
#######################################################################
#
#                 Cambridge Crystallographic Data Centre
#                                CCDC 
#
#######################################################################
#
# If this CIF has been generated from an entry in the Cambridge 
# Structural Database, then it will include bibliographic, chemical, 
# crystal, experimental, refinement or atomic coordinate data resulting 
# from the CCDC's data processing and validation procedures.
#
#######################################################################

data_MIYXUP
_symmetry_cell_setting           triclinic
_symmetry_space_group_name_H-M   'P -1'
_symmetry_Int_Tables_number      2
_space_group_name_Hall           '-P 1'
loop_
_symmetry_equiv_pos_site_id
_symmetry_equiv_pos_as_xyz
1 x,y,z
2 -x,-y,-z
_cell_length_a                   10.7917(10)
_cell_length_b                   12.0386(12)
_cell_length_c                   12.7146(11)
_cell_angle_alpha                70.344(9)
_cell_angle_beta                 82.435(7)
_cell_angle_gamma                72.872(8)
_cell_volume                     1485.62
loop_
_atom_site_label
_atom_site_type_symbol
_atom_site_fract_x
_atom_site_fract_y
_atom_site_fract_z
Ni1 Ni 0.5000 1.0000 0.0000
Ni2 Ni 1.0000 0.5000 0.0000
O1 O 0.50111(18) 0.85123(16) 0.14067(15)
O2 O 0.6451(2) 0.85075(18) 0.25175(16)
O3 O 0.8359(2) 0.50960(18) 0.10760(18)
O4 O 0.7777(2) 0.70529(19) 0.0957(2)
O5 O 0.3015(2) 1.0356(2) -0.00236(18)
H1 H 0.270(2) 1.019(3) -0.050(2)
H2 H 0.260(2) 1.015(3) 0.0590(12)
O6 O 1.0413(3) 0.3136(2) 0.0623(2)
H3 H 1.012(4) 0.274(2) 0.122(2)
H4 H 1.108(3) 0.2718(19) 0.035(3)
N1 N 0.4796(2) 1.1236(2) 0.08999(19)
N2 N 0.3054(2) 1.0553(2) 0.4189(2)
N3 N 0.4139(3) 1.1726(3) 0.4543(2)
N4 N 0.3541(3) 1.1149(2) 0.5482(2)
H5 H 0.3566 1.1217 0.6131
N5 N 0.0677(3) 0.8306(3) 0.7619(3)
N6 N 1.1099(3) 0.5045(2) 0.1228(2)
N7 N 1.0423(2) 0.3398(2) 0.4757(2)
N8 N 1.1466(3) 0.3497(3) 0.6056(2)
H6 H 1.1699 0.3391 0.6712
N9 N 1.1988(3) 0.4106(3) 0.5096(3)
N10 N 0.8373(3) 0.1030(3) 0.8382(3)
C1 C 0.5807(3) 0.8001(2) 0.2176(2)
C2 C 0.5947(2) 0.6654(2) 0.2770(2)
C3 C 0.5262(2) 0.6353(2) 0.3788(2)
H7 H 0.4731 0.6982 0.4040
C4 C 0.5341(2) 0.5144(2) 0.4445(2)
C5 C 0.6112(3) 0.4228(2) 0.4011(2)
H8 H 0.6151 0.3413 0.4401
C6 C 0.6817(3) 0.4513(2) 0.3014(2)
H9 H 0.7334 0.3882 0.2757
C7 C 0.6775(2) 0.5718(2) 0.2382(2)
C8 C 0.7694(3) 0.5989(2) 0.1385(2)
C9 C 0.5291(3) 1.2201(3) 0.0494(3)
H10 H 0.5634 1.2381 -0.0235
C10 C 0.5312(4) 1.2942(3) 0.1119(3)
H11 H 0.5646 1.3616 0.0805
C11 C 0.4838(3) 1.2678(3) 0.2199(3)
H12 H 0.4875 1.3147 0.2638
C12 C 0.4301(3) 1.1693(3) 0.2624(2)
C13 C 0.4295(3) 1.1014(3) 0.1943(2)
H13 H 0.3920 1.0364 0.2226
C14 C 0.3819(3) 1.1335(3) 0.3786(2)
C15 C 0.2905(3) 1.0458(3) 0.5261(2)
C16 C 0.2161(3) 0.9716(3) 0.6098(2)
C17 C 0.2190(3) 0.9520(3) 0.7230(3)
H14 H 0.2700 0.9854 0.7505
C18 C 0.1436(4) 0.8809(3) 0.7939(3)
H15 H 0.1464 0.8674 0.8701
C19 C 0.0655(4) 0.8496(3) 0.6523(4)
H16 H 0.0133 0.8152 0.6271
C20 C 0.1382(3) 0.9185(3) 0.5756(3)
H17 H 0.1348 0.9295 0.4999
C21 C 1.0894(3) 0.4533(3) 0.2329(3)
H18 H 1.0243 0.4130 0.2556
C22 C 1.1601(3) 0.4573(3) 0.3143(3)
C23 C 1.2584(3) 0.5166(3) 0.2794(3)
H19 H 1.3085 0.5208 0.3315
C24 C 1.2804(4) 0.5688(3) 0.1671(3)
H20 H 1.3452 0.6093 0.1422
C25 C 1.2053(3) 0.5606(3) 0.0916(3)
H21 H 1.2215 0.5956 0.0158
C26 C 1.1329(3) 0.4023(3) 0.4330(3)
C27 C 1.0541(3) 0.3080(3) 0.5851(3)
C28 C 0.9784(3) 0.2403(3) 0.6729(3)
C29 C 0.8755(3) 0.2095(3) 0.6472(3)
H22 H 0.8510 0.2353 0.5735
C30 C 0.8095(4) 0.1409(4) 0.7305(4)
H23 H 0.7417 0.1194 0.7110
C31 C 0.9341(4) 0.1358(4) 0.8624(3)
H24 H 0.9536 0.1117 0.9373
C32 C 1.0083(3) 0.2031(3) 0.7846(3)
H25 H 1.0759 0.2229 0.8063
O1A O 0.49889(18) 0.14877(16) 0.85933(15)
O2A O 0.3549(2) 0.14925(18) 0.74825(16)
O3A O 0.1641(2) 0.49040(18) 0.89240(18)
O4A O 0.2223(2) 0.29471(19) 0.9043(2)
C1A C 0.4193(3) 0.1999(2) 0.7824(2)
C2A C 0.4053(2) 0.3346(2) 0.7230(2)
C3A C 0.4738(2) 0.3647(2) 0.6212(2)
H7A H 0.5269 0.3018 0.5960
C4A C 0.4659(2) 0.4856(2) 0.5555(2)
C5A C 0.3888(3) 0.5772(2) 0.5989(2)
H8A H 0.3849 0.6587 0.5599
C6A C 0.3183(3) 0.5487(2) 0.6986(2)
H9A H 0.2666 0.6118 0.7243
C7A C 0.3225(2) 0.4282(2) 0.7618(2)
C8A C 0.2306(3) 0.4011(2) 0.8615(2)
N1A N 0.5204(2) 0.8764(2) -0.08999(19)
N2A N 0.6946(2) 0.9447(2) -0.4189(2)
N3A N 0.5861(3) 0.8274(3) -0.4543(2)
N4A N 0.6459(3) 0.8851(2) -0.5482(2)
H5A H 0.6434 0.8783 -0.6131
N5A N 0.9323(3) 1.1694(3) -0.7619(3)
C9A C 0.4709(3) 0.7799(3) -0.0494(3)
H10A H 0.4366 0.7619 0.0235
C10A C 0.4688(4) 0.7058(3) -0.1119(3)
H11A H 0.4354 0.6384 -0.0805
C11A C 0.5162(3) 0.7322(3) -0.2199(3)
H12A H 0.5125 0.6853 -0.2638
C12A C 0.5699(3) 0.8307(3) -0.2624(2)
C13A C 0.5705(3) 0.8986(3) -0.1943(2)
H13A H 0.6080 0.9636 -0.2226
C14A C 0.6181(3) 0.8665(3) -0.3786(2)
C15A C 0.7095(3) 0.9542(3) -0.5261(2)
C16A C 0.7839(3) 1.0284(3) -0.6098(2)
C17A C 0.7810(3) 1.0480(3) -0.7230(3)
H14A H 0.7300 1.0146 -0.7505
C18A C 0.8564(4) 1.1191(3) -0.7939(3)
H15A H 0.8536 1.1326 -0.8701
C19A C 0.9345(4) 1.1504(3) -0.6523(4)
H16A H 0.9867 1.1848 -0.6271
C20A C 0.8618(3) 1.0815(3) -0.5756(3)
H17A H 0.8652 1.0705 -0.4999
N6A N 0.8901(3) 0.4955(2) -0.1228(2)
N7A N 0.9577(2) 0.6602(2) -0.4757(2)
N8A N 0.8534(3) 0.6503(3) -0.6056(2)
H6A H 0.8301 0.6609 -0.6712
N9A N 0.8012(3) 0.5894(3) -0.5096(3)
N10A N 1.1627(3) 0.8970(3) -0.8382(3)
C21A C 0.9106(3) 0.5467(3) -0.2329(3)
H18A H 0.9757 0.5870 -0.2556
C22A C 0.8399(3) 0.5427(3) -0.3143(3)
C23A C 0.7416(3) 0.4834(3) -0.2794(3)
H19A H 0.6915 0.4792 -0.3315
C24A C 0.7196(4) 0.4312(3) -0.1671(3)
H20A H 0.6548 0.3907 -0.1422
C25A C 0.7947(3) 0.4394(3) -0.0916(3)
H21A H 0.7785 0.4044 -0.0158
C26A C 0.8671(3) 0.5977(3) -0.4330(3)
C27A C 0.9459(3) 0.6920(3) -0.5851(3)
C28A C 1.0216(3) 0.7597(3) -0.6729(3)
C29A C 1.1245(3) 0.7905(3) -0.6472(3)
H22A H 1.1490 0.7647 -0.5735
C30A C 1.1905(4) 0.8591(4) -0.7305(4)
H23A H 1.2583 0.8806 -0.7110
C31A C 1.0659(4) 0.8642(4) -0.8624(3)
H24A H 1.0464 0.8883 -0.9373
C32A C 0.9917(3) 0.7969(3) -0.7846(3)
H25A H 0.9241 0.7771 -0.8063
O5A O 0.6985(2) 0.9644(2) 0.00236(18)
H1A H 0.730(2) 0.981(3) 0.050(2)
H2A H 0.740(2) 0.985(3) -0.0590(12)
O6A O 0.9587(3) 0.6864(2) -0.0623(2)
H3A H 0.988(4) 0.726(2) -0.122(2)
H4A H 0.892(3) 0.7282(19) -0.035(3)
Ni1_2 Ni 0.5000 0.0000 1.0000
Ni2_2 Ni 0.0000 0.5000 1.0000
O1A_2 O 0.49889(18) 1.14877(16) -0.14067(15)
O3A_2 O 1.1641(2) 0.49040(18) -0.10760(18)
loop_
_geom_bond_atom_site_label_1
_geom_bond_atom_site_label_2
_geom_bond_site_symmetry_1
_geom_bond_site_symmetry_2
Ni1 O1 1_555 1_555
Ni2 O3 1_555 1_555
O1 C1 1_555 1_555
O2 C1 1_555 1_555
O3 C8 1_555 1_555
O4 C8 1_555 1_555
O5 Ni1 1_555 1_555
H1 O5 1_555 1_555
H2 O5 1_555 1_555
O6 Ni2 1_555 1_555
H3 O6 1_555 1_555
H4 O6 1_555 1_555
N1 Ni1 1_555 1_555
N2 C14 1_555 1_555
N3 N4 1_555 1_555
N4 H5 1_555 1_555
N5 C18 1_555 1_555
N6 Ni2 1_555 1_555
N7 C26 1_555 1_555
N8 H6 1_555 1_555
N9 N8 1_555 1_555
N10 C30 1_555 1_555
C1 C2 1_555 1_555
C2 C3 1_555 1_555
C3 H7 1_555 1_555
C4 C3 1_555 1_555
C5 C4 1_555 1_555
H8 C5 1_555 1_555
C6 C5 1_555 1_555
H9 C6 1_555 1_555
C7 C2 1_555 1_555
C8 C7 1_555 1_555
C9 N1 1_555 1_555
H10 C9 1_555 1_555
C10 C9 1_555 1_555
H11 C10 1_555 1_555
C11 C10 1_555 1_555
H12 C11 1_555 1_555
C12 C11 1_555 1_555
C13 N1 1_555 1_555
H13 C13 1_555 1_555
C14 N3 1_555 1_555
C15 N2 1_555 1_555
C16 C15 1_555 1_555
C17 C16 1_555 1_555
H14 C17 1_555 1_555
C18 C17 1_555 1_555
H15 C18 1_555 1_555
C19 N5 1_555 1_555
H16 C19 1_555 1_555
C20 C16 1_555 1_555
H17 C20 1_555 1_555
C21 N6 1_555 1_555
H18 C21 1_555 1_555
C22 C21 1_555 1_555
C23 C22 1_555 1_555
H19 C23 1_555 1_555
C24 C23 1_555 1_555
H20 C24 1_555 1_555
C25 N6 1_555 1_555
H21 C25 1_555 1_555
C26 N9 1_555 1_555
C27 N7 1_555 1_555
C28 C27 1_555 1_555
C29 C28 1_555 1_555
H22 C29 1_555 1_555
C30 C29 1_555 1_555
H23 C30 1_555 1_555
C31 N10 1_555 1_555
H24 C31 1_555 1_555
C32 C28 1_555 1_555
H25 C32 1_555 1_555
O1A C1A 1_555 1_555
O2A C1A 1_555 1_555
O3A C8A 1_555 1_555
O4A C8A 1_555 1_555
C1A C2A 1_555 1_555
C2A C3A 1_555 1_555
C3A H7A 1_555 1_555
C4A C4 1_555 1_555
C5A C4A 1_555 1_555
H8A C5A 1_555 1_555
C6A C5A 1_555 1_555
H9A C6A 1_555 1_555
C7A C2A 1_555 1_555
C8A C7A 1_555 1_555
N1A Ni1 1_555 1_555
N2A C14A 1_555 1_555
N3A N4A 1_555 1_555
N4A H5A 1_555 1_555
N5A C18A 1_555 1_555
C9A N1A 1_555 1_555
H10A C9A 1_555 1_555
C10A C9A 1_555 1_555
H11A C10A 1_555 1_555
C11A C10A 1_555 1_555
H12A C11A 1_555 1_555
C12A C11A 1_555 1_555
C13A N1A 1_555 1_555
H13A C13A 1_555 1_555
C14A N3A 1_555 1_555
C15A N2A 1_555 1_555
C16A C15A 1_555 1_555
C17A C16A 1_555 1_555
H14A C17A 1_555 1_555
C18A C17A 1_555 1_555
H15A C18A 1_555 1_555
C19A N5A 1_555 1_555
H16A C19A 1_555 1_555
C20A C16A 1_555 1_555
H17A C20A 1_555 1_555
N6A Ni2 1_555 1_555
N7A C26A 1_555 1_555
N8A H6A 1_555 1_555
N9A N8A 1_555 1_555
N10A C30A 1_555 1_555
C21A N6A 1_555 1_555
H18A C21A 1_555 1_555
C22A C21A 1_555 1_555
C23A C22A 1_555 1_555
H19A C23A 1_555 1_555
C24A C23A 1_555 1_555
H20A C24A 1_555 1_555
C25A N6A 1_555 1_555
H21A C25A 1_555 1_555
C26A N9A 1_555 1_555
C27A N7A 1_555 1_555
C28A C27A 1_555 1_555
C29A C28A 1_555 1_555
H22A C29A 1_555 1_555
C30A C29A 1_555 1_555
H23A C30A 1_555 1_555
C31A N10A 1_555 1_555
H24A C31A 1_555 1_555
C32A C28A 1_555 1_555
H25A C32A 1_555 1_555
O5A Ni1 1_555 1_555
H1A O5A 1_555 1_555
H2A O5A 1_555 1_555
O6A Ni2 1_555 1_555
H3A O6A 1_555 1_555
H4A O6A 1_555 1_555
Ni1_2 O1A 1_555 1_555
Ni2_2 O3A 1_555 1_555
O1A_2 Ni1 1_555 1_555
O3A_2 Ni2 1_555 1_555
N4 C15 1_555 1_555
N8 C27 1_555 1_555
C6 C7 1_555 1_555
C12 C13 1_555 1_555
C12 C14 1_555 1_555
C19 C20 1_555 1_555
C22 C26 1_555 1_555
C24 C25 1_555 1_555
C31 C32 1_555 1_555
C3A C4A 1_555 1_555
C6A C7A 1_555 1_555
N4A C15A 1_555 1_555
C12A C13A 1_555 1_555
C12A C14A 1_555 1_555
C19A C20A 1_555 1_555
N8A C27A 1_555 1_555
C22A C26A 1_555 1_555
C24A C25A 1_555 1_555
C31A C32A 1_555 1_555

#END
