
#######################################################################
#
#                 Cambridge Crystallographic Data Centre
#                                CCDC 
#
#######################################################################
#
# If this CIF has been generated from an entry in the Cambridge 
# Structural Database, then it will include bibliographic, chemical, 
# crystal, experimental, refinement or atomic coordinate data resulting 
# from the CCDC's data processing and validation procedures.
#
#######################################################################

data_MIYYAW
_symmetry_cell_setting           monoclinic
_symmetry_space_group_name_H-M   'C 2/c'
_symmetry_Int_Tables_number      15
_space_group_name_Hall           '-C 2yn'
loop_
_symmetry_equiv_pos_site_id
_symmetry_equiv_pos_as_xyz
1 x,y,z
2 -x,y,1/2-z
3 1/2+x,1/2+y,z
4 1/2-x,1/2+y,1/2-z
5 -x,-y,-z
6 x,-y,1/2+z
7 1/2-x,1/2-y,-z
8 1/2+x,1/2-y,1/2+z
_cell_length_a                   25.144(6)
_cell_length_b                   10.0502(3)
_cell_length_c                   15.907(3)
_cell_angle_alpha                90
_cell_angle_beta                 114.67(3)
_cell_angle_gamma                90
_cell_volume                     3652.84
loop_
_atom_site_label
_atom_site_type_symbol
_atom_site_fract_x
_atom_site_fract_y
_atom_site_fract_z
Co1 Co 0.244716(12) 0.89138(3) 0.13260(2)
O1 O 0.21242(7) 0.95914(16) -0.00345(11)
O2 O 0.30578(6) 0.75095(15) 0.12242(11)
O3 O 0.30012(6) 0.78862(15) 0.25437(10)
O4 O 0.30854(6) 0.51208(14) 0.33505(11)
O5 O 0.36201(7) 0.62157(16) 0.46582(11)
N1 N 0.67743(8) 0.77008(18) 0.58846(14)
N2 N 0.55129(8) 1.18657(19) 0.43585(14)
H1 H 0.5822 1.2301 0.4703
N3 N 0.50129(8) 1.24205(19) 0.37341(15)
N4 N 0.49266(8) 1.01803(18) 0.37521(14)
N5 N 0.31207(8) 1.05373(19) 0.17776(14)
C1 C 0.68875(10) 0.9006(2) 0.59719(18)
H2 H 0.7264 0.9275 0.6364
C2 C 0.64819(10) 0.9978(2) 0.55179(19)
H3 H 0.6587 1.0872 0.5601
C3 C 0.59147(9) 0.9605(2) 0.49351(16)
C4 C 0.57833(10) 0.8263(2) 0.48799(17)
H4 H 0.5404 0.7970 0.4527
C5 C 0.62187(10) 0.7366(2) 0.53518(18)
H5 H 0.6121 0.6467 0.5298
C6 C 0.54564(9) 1.0542(2) 0.43621(16)
C7 C 0.46728(10) 1.1363(2) 0.33831(17)
C8 C 0.40657(9) 1.1518(2) 0.26817(16)
C9 C 0.38491(11) 1.2762(2) 0.23280(19)
H6 H 0.4090 1.3508 0.2504
C10 C 0.32692(11) 1.2875(3) 0.1710(2)
H7 H 0.3114 1.3701 0.1467
C11 C 0.29247(10) 1.1754(2) 0.14574(18)
H8 H 0.2535 1.1847 0.1042
C12 C 0.36863(10) 1.0436(2) 0.23817(16)
H9 H 0.3831 0.9598 0.2611
C13 C 0.32537(9) 0.7354(2) 0.20931(15)
C14 C 0.38150(9) 0.6635(2) 0.25933(15)
C15 C 0.42249(9) 0.6642(2) 0.22177(15)
H10 H 0.4125 0.6998 0.1631
C16 C 0.47837(9) 0.6122(2) 0.27075(15)
C17 C 0.49282(9) 0.5609(2) 0.35819(17)
H11 H 0.5302 0.5277 0.3923
C18 C 0.45164(9) 0.5588(2) 0.39527(17)
H12 H 0.4618 0.5231 0.4539
C19 C 0.39569(9) 0.6088(2) 0.34650(15)
C20 C 0.35135(9) 0.5827(2) 0.38545(15)
H13 H 0.2020(9) 0.8940(15) -0.0398(11)
H14 H 0.1838(7) 1.0102(18) -0.0117(13)
O2A O 0.69422(6) 0.75095(15) 0.37758(11)
O3A O 0.69988(6) 0.78862(15) 0.24563(10)
O4A O 0.69146(6) 0.51208(14) 0.16495(11)
O5A O 0.63799(7) 0.62157(16) 0.03418(11)
C13A C 0.67463(9) 0.7354(2) 0.29069(15)
C14A C 0.61850(9) 0.6635(2) 0.24067(15)
C15A C 0.57751(9) 0.6642(2) 0.27823(15)
H10A H 0.5875 0.6998 0.3369
C16A C 0.52163(9) 0.6122(2) 0.22925(15)
C17A C 0.50718(9) 0.5609(2) 0.14181(17)
H11A H 0.4698 0.5277 0.1077
C18A C 0.54836(9) 0.5588(2) 0.10473(17)
H12A H 0.5382 0.5231 0.0461
C19A C 0.60431(9) 0.6088(2) 0.15350(15)
C20A C 0.64865(9) 0.5827(2) 0.11455(15)
Co1A Co 0.755284(12) 0.89138(3) 0.36740(2)
O1A O 0.78758(7) 0.95914(16) 0.50345(11)
N1A N 0.32257(8) 0.77008(18) -0.08846(14)
N2A N 0.44871(8) 1.18657(19) 0.06415(14)
H1A H 0.4178 1.2301 0.0297
N3A N 0.49871(8) 1.24205(19) 0.12659(15)
N4A N 0.50734(8) 1.01803(18) 0.12479(14)
N5A N 0.68793(8) 1.05373(19) 0.32224(14)
C1A C 0.31125(10) 0.9006(2) -0.09719(18)
H2A H 0.2736 0.9275 -0.1364
C2A C 0.35181(10) 0.9978(2) -0.05179(19)
H3A H 0.3413 1.0872 -0.0601
C3A C 0.40853(9) 0.9605(2) 0.00649(16)
C4A C 0.42167(10) 0.8263(2) 0.01201(17)
H4A H 0.4596 0.7970 0.0473
C5A C 0.37813(10) 0.7366(2) -0.03518(18)
H5A H 0.3879 0.6467 -0.0298
C6A C 0.45436(9) 1.0542(2) 0.06379(16)
C7A C 0.53272(10) 1.1363(2) 0.16169(17)
C8A C 0.59343(9) 1.1518(2) 0.23183(16)
C9A C 0.61509(11) 1.2762(2) 0.26720(19)
H6A H 0.5910 1.3508 0.2496
C10A C 0.67308(11) 1.2875(3) 0.3290(2)
H7A H 0.6886 1.3701 0.3533
C11A C 0.70753(10) 1.1754(2) 0.35426(18)
H8A H 0.7465 1.1847 0.3958
C12A C 0.63137(10) 1.0436(2) 0.26183(16)
H9A H 0.6169 0.9598 0.2389
H13A H 0.7980(9) 0.8940(15) 0.5398(11)
H14A H 0.8162(7) 1.0102(18) 0.5117(13)
Co1B Co 0.744716(12) 0.39138(3) 0.13260(2)
Co1C Co 0.255284(12) 0.39138(3) 0.36740(2)
Co1F Co 0.255284(12) 0.60862(3) -0.13260(2)
Co1G Co 0.744716(12) 0.60862(3) 0.63260(2)
O4B O 0.80854(6) 1.01208(14) 0.33505(11)
O4C O 0.19146(6) 1.01208(14) 0.16495(11)
N1F N 0.82257(8) 0.72992(18) 0.41154(14)
N1G N 0.17743(8) 0.72992(18) 0.08846(14)
loop_
_geom_bond_atom_site_label_1
_geom_bond_atom_site_label_2
_geom_bond_site_symmetry_1
_geom_bond_site_symmetry_2
Co1 O1 1_555 1_555
O1 H13 1_555 1_555
O2 Co1 1_555 1_555
O3 Co1 1_555 1_555
O4 C20 1_555 1_555
O5 C20 1_555 1_555
N1 C1 1_555 1_555
N2 H1 1_555 1_555
N3 N2 1_555 1_555
N4 C6 1_555 1_555
N5 Co1 1_555 1_555
C1 H2 1_555 1_555
C2 C1 1_555 1_555
H3 C2 1_555 1_555
C3 C2 1_555 1_555
C4 C3 1_555 1_555
H4 C4 1_555 1_555
C5 N1 1_555 1_555
H5 C5 1_555 1_555
C6 N2 1_555 1_555
C7 N3 1_555 1_555
C8 C7 1_555 1_555
C9 C8 1_555 1_555
H6 C9 1_555 1_555
C10 C9 1_555 1_555
H7 C10 1_555 1_555
C11 N5 1_555 1_555
H8 C11 1_555 1_555
C12 N5 1_555 1_555
H9 C12 1_555 1_555
C13 O2 1_555 1_555
C14 C13 1_555 1_555
C15 C14 1_555 1_555
H10 C15 1_555 1_555
C16 C15 1_555 1_555
C17 C16 1_555 1_555
H11 C17 1_555 1_555
C18 C17 1_555 1_555
H12 C18 1_555 1_555
C19 C14 1_555 1_555
C20 C19 1_555 1_555
H14 O1 1_555 1_555
O2A C13A 1_555 1_555
O3A C13A 1_555 1_555
O4A C20A 1_555 1_555
O5A C20A 1_555 1_555
C13A C14A 1_555 1_555
C14A C15A 1_555 1_555
C15A H10A 1_555 1_555
C16A C16 1_555 1_555
C17A C16A 1_555 1_555
H11A C17A 1_555 1_555
C18A C17A 1_555 1_555
H12A C18A 1_555 1_555
C19A C14A 1_555 1_555
C20A C19A 1_555 1_555
Co1A O2A 1_555 1_555
O1A Co1A 1_555 1_555
N1A C1A 1_555 1_555
N2A H1A 1_555 1_555
N3A N2A 1_555 1_555
N4A C6A 1_555 1_555
N5A Co1A 1_555 1_555
C1A H2A 1_555 1_555
C2A C1A 1_555 1_555
H3A C2A 1_555 1_555
C3A C2A 1_555 1_555
C4A C3A 1_555 1_555
H4A C4A 1_555 1_555
C5A N1A 1_555 1_555
H5A C5A 1_555 1_555
C6A N2A 1_555 1_555
C7A N3A 1_555 1_555
C8A C7A 1_555 1_555
C9A C8A 1_555 1_555
H6A C9A 1_555 1_555
C10A C9A 1_555 1_555
H7A C10A 1_555 1_555
C11A N5A 1_555 1_555
H8A C11A 1_555 1_555
C12A N5A 1_555 1_555
H9A C12A 1_555 1_555
H13A O1A 1_555 1_555
H14A O1A 1_555 1_555
Co1B O4A 1_555 1_555
Co1C O4 1_555 1_555
Co1F N1A 1_555 1_555
Co1G N1 1_555 1_555
O4B Co1A 1_555 1_555
O4C Co1 1_555 1_555
N1F Co1A 1_555 1_555
N1G Co1 1_555 1_555
O3 C13 1_555 1_555
N4 C7 1_555 1_555
C3 C6 1_555 1_555
C4 C5 1_555 1_555
C8 C12 1_555 1_555
C10 C11 1_555 1_555
C18 C19 1_555 1_555
O3A Co1A 1_555 1_555
C15A C16A 1_555 1_555
C18A C19A 1_555 1_555
N4A C7A 1_555 1_555
C3A C6A 1_555 1_555
C4A C5A 1_555 1_555
C8A C12A 1_555 1_555
C10A C11A 1_555 1_555

#END
