
#######################################################################
#
#                 Cambridge Crystallographic Data Centre
#                                CCDC 
#
#######################################################################
#
# If this CIF has been generated from an entry in the Cambridge 
# Structural Database, then it will include bibliographic, chemical, 
# crystal, experimental, refinement or atomic coordinate data resulting 
# from the CCDC's data processing and validation procedures.
#
#######################################################################

data_MIYZIF
_symmetry_cell_setting           monoclinic
_symmetry_space_group_name_H-M   'P 21/c'
_symmetry_Int_Tables_number      14
_space_group_name_Hall           '-P 2ybc'
loop_
_symmetry_equiv_pos_site_id
_symmetry_equiv_pos_as_xyz
1 x,y,z
2 -x,1/2+y,1/2-z
3 -x,-y,-z
4 x,1/2-y,1/2+z
_cell_length_a                   10.4453(6)
_cell_length_b                   10.8951(6)
_cell_length_c                   9.2388(5)
_cell_angle_alpha                90
_cell_angle_beta                 93.230(3)
_cell_angle_gamma                90
_cell_volume                     1049.73
loop_
_atom_site_label
_atom_site_type_symbol
_atom_site_fract_x
_atom_site_fract_y
_atom_site_fract_z
Hg1 Hg 0.0000 0.0000 0.0000
F1 F 0.06139(17) 0.28364(14) 0.00637(18)
F2 F -0.22579(18) 0.01587(12) 0.2221(2)
F3 F -0.32943(14) 0.20524(13) 0.35762(17)
F4 F -0.04277(17) 0.47454(13) 0.1395(2)
O1 O -0.23964(16) 0.44203(16) 0.32264(18)
C1 C -0.0916(2) 0.3614(2) 0.1578(3)
C2 C -0.1929(2) 0.3466(2) 0.2460(3)
C3 C -0.0797(2) 0.1439(2) 0.1076(3)
C4 C -0.2343(2) 0.2268(2) 0.2666(3)
C5 C -0.1789(2) 0.1300(2) 0.1978(3)
C6 C -0.0383(2) 0.2621(2) 0.0916(3)
C7 C -0.3478(3) 0.5158(2) 0.2586(3)
C8 C -0.3771(3) 0.6006(3) 0.3825(3)
H1 H -0.3938 0.5528 0.4666
H2 H -0.4510 0.6495 0.3552
H3 H -0.3049 0.6534 0.4042
C9 C -0.3041(3) 0.5888(3) 0.1324(3)
H4 H -0.2301 0.6364 0.1628
H5 H -0.3718 0.6427 0.0976
H6 H -0.2826 0.5340 0.0561
C10 C -0.4590(3) 0.4337(3) 0.2146(3)
H7 H -0.4349 0.3792 0.1392
H8 H -0.5305 0.4829 0.1797
H9 H -0.4827 0.3867 0.2968
F1B F -0.06139(17) -0.28364(14) -0.00637(18)
F2B F 0.22579(18) -0.01587(12) -0.2221(2)
F3B F 0.32943(14) -0.20524(13) -0.35762(17)
F4B F 0.04277(17) -0.47454(13) -0.1395(2)
O1B O 0.23964(16) -0.44203(16) -0.32264(18)
C1B C 0.0916(2) -0.3614(2) -0.1578(3)
C2B C 0.1929(2) -0.3466(2) -0.2460(3)
C3B C 0.0797(2) -0.1439(2) -0.1076(3)
C4B C 0.2343(2) -0.2268(2) -0.2666(3)
C5B C 0.1789(2) -0.1300(2) -0.1978(3)
C6B C 0.0383(2) -0.2621(2) -0.0916(3)
C7B C 0.3478(3) -0.5158(2) -0.2586(3)
C8B C 0.3771(3) -0.6006(3) -0.3825(3)
H1B H 0.3938 -0.5528 -0.4666
H2B H 0.4510 -0.6495 -0.3552
H3B H 0.3049 -0.6534 -0.4042
C9B C 0.3041(3) -0.5888(3) -0.1324(3)
H4B H 0.2301 -0.6364 -0.1628
H5B H 0.3718 -0.6427 -0.0976
H6B H 0.2826 -0.5340 -0.0561
C10B C 0.4590(3) -0.4337(3) -0.2146(3)
H7B H 0.4349 -0.3792 -0.1392
H8B H 0.5305 -0.4829 -0.1797
H9B H 0.4827 -0.3867 -0.2968
Hg1A Hg 0.0000 -0.5000 -0.5000
Hg1A_2 Hg 0.0000 0.5000 0.5000
O1A O 0.23964(16) -0.05797(16) 0.17736(18)
O1C O -0.23964(16) 0.05797(16) -0.17736(18)
loop_
_geom_bond_atom_site_label_1
_geom_bond_atom_site_label_2
_geom_bond_site_symmetry_1
_geom_bond_site_symmetry_2
Hg1 C3 1_555 1_555
F1 C6 1_555 1_555
F2 C5 1_555 1_555
F3 C4 1_555 1_555
F4 C1 1_555 1_555
O1 C2 1_555 1_555
C1 C2 1_555 1_555
C2 C4 1_555 1_555
C3 C5 1_555 1_555
C4 C5 1_555 1_555
C6 C1 1_555 1_555
C7 O1 1_555 1_555
C8 C7 1_555 1_555
H1 C8 1_555 1_555
H2 C8 1_555 1_555
H3 C8 1_555 1_555
C9 C7 1_555 1_555
H4 C9 1_555 1_555
H5 C9 1_555 1_555
H6 C9 1_555 1_555
C10 C7 1_555 1_555
H7 C10 1_555 1_555
H8 C10 1_555 1_555
H9 C10 1_555 1_555
F1B C6B 1_555 1_555
F2B C5B 1_555 1_555
F3B C4B 1_555 1_555
F4B C1B 1_555 1_555
O1B C2B 1_555 1_555
C1B C2B 1_555 1_555
C2B C4B 1_555 1_555
C3B Hg1 1_555 1_555
C4B C5B 1_555 1_555
C5B C3B 1_555 1_555
C6B C1B 1_555 1_555
C7B O1B 1_555 1_555
C8B C7B 1_555 1_555
H1B C8B 1_555 1_555
H2B C8B 1_555 1_555
H3B C8B 1_555 1_555
C9B C7B 1_555 1_555
H4B C9B 1_555 1_555
H5B C9B 1_555 1_555
H6B C9B 1_555 1_555
C10B C7B 1_555 1_555
H7B C10B 1_555 1_555
H8B C10B 1_555 1_555
H9B C10B 1_555 1_555
Hg1A O1B 1_555 1_555
Hg1A_2 O1 1_555 1_555
O1A Hg1 1_555 1_555
O1C Hg1 1_555 1_555
C3 C6 1_555 1_555
C3B C6B 1_555 1_555

#END
