
#######################################################################
#
#                 Cambridge Crystallographic Data Centre
#                                CCDC 
#
#######################################################################
#
# If this CIF has been generated from an entry in the Cambridge 
# Structural Database, then it will include bibliographic, chemical, 
# crystal, experimental, refinement or atomic coordinate data resulting 
# from the CCDC's data processing and validation procedures.
#
#######################################################################

data_MIYZID
_symmetry_cell_setting           triclinic
_symmetry_space_group_name_H-M   'P -1'
_symmetry_Int_Tables_number      2
_space_group_name_Hall           '-P 1'
loop_
_symmetry_equiv_pos_site_id
_symmetry_equiv_pos_as_xyz
1 x,y,z
2 -x,-y,-z
_cell_length_a                   5.4397(12)
_cell_length_b                   6.8130(15)
_cell_length_c                   10.727(2)
_cell_angle_alpha                73.909(4)
_cell_angle_beta                 78.839(4)
_cell_angle_gamma                70.389(4)
_cell_volume                     357.591
loop_
_atom_site_label
_atom_site_type_symbol
_atom_site_fract_x
_atom_site_fract_y
_atom_site_fract_z
Mo1 Mo 0.74556(9) 0.76879(7) 0.08791(4)
Cu1 Cu 0.59161(13) 1.30242(10) 0.10223(6)
O1 O 0.5485(8) 1.0233(6) 0.1214(4)
O2 O 0.5424(8) 0.6108(6) 0.0689(4)
O3 O 0.9884(8) 0.7898(6) -0.0416(4)
O4 O 0.9017(8) 0.6255(6) 0.2238(4)
N1 N 0.6292(9) 1.2488(7) 0.2898(4)
C1 C 0.8509(11) 1.1227(9) 0.3406(5)
H1 H 0.9952 1.0671 0.2846
C2 C 0.4186(11) 1.3316(9) 0.3685(5)
H2 H 0.2645 1.4191 0.3330
C3 C 0.8757(11) 1.0709(9) 0.4733(5)
C4 C 0.4272(11) 1.2889(9) 0.5011(6)
H3 H 0.2803 1.3487 0.5544
C5 C 0.6522(12) 1.1582(9) 0.5546(5)
H4 H 0.6574 1.1273 0.6443
C3A C 1.1243(11) 0.9291(9) 0.5267(5)
C1A C 1.1491(11) 0.8773(9) 0.6594(5)
N1A N 1.3708(9) 0.7512(7) 0.7102(4)
C2A C 1.5814(11) 0.6684(9) 0.6315(5)
H2A H 1.7355 0.5809 0.6670
C4A C 1.5728(11) 0.7111(9) 0.4989(6)
H3A H 1.7197 0.6513 0.4456
C5A C 1.3478(12) 0.8418(9) 0.4454(5)
H4A H 1.3426 0.8727 0.3557
H1A H 1.0048 0.9329 0.7154
Cu1_2 Cu 0.59161(13) 0.30242(10) 0.10223(6)
O2_2 O 0.5424(8) 1.6108(6) 0.0689(4)
O3A O 1.0116(8) 1.2102(6) 0.0416(4)
O1_2 O 0.5485(8) 0.0233(6) 0.1214(4)
Mo1_2 Mo 0.74556(9) -0.23121(7) 0.08791(4)
O4_2 O 0.9017(8) -0.3745(6) 0.2238(4)
O2A O 0.4576(8) 1.3892(6) -0.0689(4)
Cu1A Cu 0.40839(13) 0.69758(10) -0.10223(6)
Cu1A_2 Cu 1.40839(13) 0.69758(10) -0.10223(6)
Cu1A_3 Cu 1.40839(13) 0.69758(10) 0.89777(6)
O2A_2 O 0.4576(8) 0.3892(6) -0.0689(4)
O3A_2 O 1.0116(8) 0.2102(6) 0.0416(4)
N1_2 N 0.6292(9) 0.2488(7) 0.2898(4)
Mo1_3 Mo 0.74556(9) 1.76879(7) 0.08791(4)
Cu1A_4 Cu 0.40839(13) 1.69758(10) -0.10223(6)
Mo1A Mo 1.25444(9) 1.23121(7) -0.08791(4)
O2_3 O 0.5424(8) -0.3892(6) 0.0689(4)
O3_2 O 0.9884(8) -0.2102(6) -0.0416(4)
loop_
_geom_bond_atom_site_label_1
_geom_bond_atom_site_label_2
_geom_bond_site_symmetry_1
_geom_bond_site_symmetry_2
Mo1 O1 1_555 1_555
Cu1 O1 1_555 1_555
O2 Mo1 1_555 1_555
O3 Mo1 1_555 1_555
O4 Mo1 1_555 1_555
N1 Cu1 1_555 1_555
C1 N1 1_555 1_555
H1 C1 1_555 1_555
C2 N1 1_555 1_555
H2 C2 1_555 1_555
C3 C1 1_555 1_555
C4 C2 1_555 1_555
H3 C4 1_555 1_555
C5 C3 1_555 1_555
H4 C5 1_555 1_555
C3A C3 1_555 1_555
C1A C3A 1_555 1_555
N1A C1A 1_555 1_555
C2A N1A 1_555 1_555
H2A C2A 1_555 1_555
C4A C2A 1_555 1_555
H3A C4A 1_555 1_555
C5A C3A 1_555 1_555
H4A C5A 1_555 1_555
H1A C1A 1_555 1_555
Cu1_2 O2 1_555 1_555
O2_2 Cu1 1_555 1_555
O3A Cu1 1_555 1_555
O1_2 Cu1_2 1_555 1_555
Mo1_2 O1_2 1_555 1_555
O4_2 Mo1_2 1_555 1_555
O2A Cu1 1_555 1_555
Cu1A O2 1_555 1_555
Cu1A_2 O3 1_555 1_555
Cu1A_3 N1A 1_555 1_555
O2A_2 Cu1_2 1_555 1_555
O3A_2 Cu1_2 1_555 1_555
N1_2 Cu1_2 1_555 1_555
Mo1_3 O2_2 1_555 1_555
Cu1A_4 O2_2 1_555 1_555
Mo1A O3A 1_555 1_555
O2_3 Mo1_2 1_555 1_555
O3_2 Mo1_2 1_555 1_555
C4 C5 1_555 1_555
C4A C5A 1_555 1_555
O2A Cu1A_4 1_555 1_555
Cu1A O2A_2 1_555 1_555

#END
