
#######################################################################
#
#                 Cambridge Crystallographic Data Centre
#                                CCDC 
#
#######################################################################
#
# If this CIF has been generated from an entry in the Cambridge 
# Structural Database, then it will include bibliographic, chemical, 
# crystal, experimental, refinement or atomic coordinate data resulting 
# from the CCDC's data processing and validation procedures.
#
#######################################################################

data_MIZBIG
_symmetry_cell_setting           monoclinic
_symmetry_space_group_name_H-M   'P 21/n'
_symmetry_Int_Tables_number      14
_space_group_name_Hall           '-P 2yn'
loop_
_symmetry_equiv_pos_site_id
_symmetry_equiv_pos_as_xyz
1 x,y,z
2 1/2+x,1/2-y,1/2+z
3 -x,-y,-z
4 1/2-x,1/2+y,1/2-z
_cell_length_a                   14.9291(2)
_cell_length_b                   23.1597(3)
_cell_length_c                   23.78970(10)
_cell_angle_alpha                90.00
_cell_angle_beta                 96.1740(10)
_cell_angle_gamma                90.00
_cell_volume                     8177.66
loop_
_atom_site_label
_atom_site_type_symbol
_atom_site_fract_x
_atom_site_fract_y
_atom_site_fract_z
Ag1 Ag 1.01144(5) 1.04385(3) 0.27402(3)
Ag2 Ag 0.43225(7) 1.04214(5) 0.66470(5)
As1 As 0.90051(5) 1.20770(3) 0.52010(3)
As2 As 0.61262(5) 1.24264(3) 0.57717(3)
As3 As 0.85478(5) 1.36999(3) 0.63405(3)
As4 As 0.84931(5) 1.18141(3) 0.71193(3)
Mo1 Mo 1.02477(4) 1.29249(3) 0.72564(3)
Mo2 Mo 0.62393(4) 1.22967(3) 0.72907(3)
Mo3 Mo 1.05811(4) 1.31133(3) 0.58890(3)
Mo4 Mo 0.70279(4) 1.26921(3) 0.44137(3)
Mo5 Mo 0.62573(4) 1.36594(3) 0.67464(3)
Mo6 Mo 1.05747(4) 1.17531(3) 0.64339(3)
Mo7 Mo 0.66601(4) 1.38589(3) 0.52493(3)
Mo8 Mo 0.87237(4) 1.36136(3) 0.48422(3)
Mo9 Mo 0.86703(4) 1.07504(3) 0.60213(3)
Mo10 Mo 0.70106(4) 1.12205(3) 0.50369(3)
Mo11 Mo 0.65777(4) 1.10199(3) 0.63908(3)
Mo12 Mo 0.79773(4) 1.32019(3) 0.77045(3)
N1 N 1.0976(4) 1.1057(3) 0.3311(3)
N2 N 0.2176(4) 1.1978(3) 0.4893(3)
H1 H 0.2145(7) 1.1657(14) 0.4680(20)
H2 H 0.1965(13) 1.2281(11) 0.4681(20)
H3 H 0.1841(8) 1.1932(25) 0.5183(3)
N3 N 0.9813(6) 1.6175(3) 0.6644(4)
H4 H 1.0262(6) 1.6198(3) 0.6921(4)
H5 H 0.9356(6) 1.6394(3) 0.6729(4)
N4 N 0.8949(5) 1.0604(3) 0.9421(3)
H6 H 0.9476(19) 1.0413(21) 0.9471(10)
H7 H 0.8492(22) 1.0355(19) 0.9444(9)
H8 H 0.8938(40) 1.0876(4) 0.9690(3)
C1 C 0.9626(5) 1.1776(3) 0.4609(3)
C2 C 1.0018(5) 1.1235(3) 0.4669(3)
H9 H 0.9975(5) 1.1025(3) 0.4999(3)
C3 C 1.0472(5) 1.1004(3) 0.4249(3)
H10 H 1.0735(5) 1.0641(3) 0.4296(3)
C4 C 1.0538(5) 1.1311(3) 0.3753(3)
C5 C 1.0139(5) 1.1857(3) 0.3688(3)
H11 H 1.0183(5) 1.2064(3) 0.3357(3)
C6 C 0.9681(5) 1.2092(3) 0.4108(3)
H12 H 0.9413(5) 1.2454(3) 0.4061(3)
C7 C 0.4877(5) 1.2304(3) 0.5521(3)
C8 C 0.4321(5) 1.2036(4) 0.5872(3)
H13 H 0.4539(5) 1.1928(4) 0.6238(3)
C9 C 0.3421(6) 1.1932(4) 0.5663(4)
H14 H 0.3030(6) 1.1760(4) 0.5892(4)
C10 C 0.3116(5) 1.2086(3) 0.5115(3)
C11 C 0.3678(5) 1.2336(4) 0.4777(4)
H15 H 0.3470(5) 1.2432(4) 0.4406(4)
C12 C 0.4553(5) 1.2448(4) 0.4982(4)
H16 H 0.4934(5) 1.2625(4) 0.4749(4)
C13 C 0.8942(5) 1.4472(3) 0.6463(3)
C14 C 0.9519(5) 1.4701(3) 0.6103(3)
H17 H 0.9712(5) 1.4473(3) 0.5818(3)
C15 C 0.9806(6) 1.5260(3) 0.6163(3)
H18 H 1.0191(6) 1.5411(3) 0.5917(3)
C16 C 0.9528(6) 1.5606(3) 0.6590(4)
C17 C 0.8961(6) 1.5370(4) 0.6963(4)
H19 H 0.8782(6) 1.5593(4) 0.7256(4)
C18 C 0.8670(5) 1.4810(3) 0.6898(3)
H20 H 0.8289(5) 1.4656(3) 0.7144(3)
C19 C 0.8696(5) 1.1410(3) 0.7820(3)
C20 C 0.9116(6) 1.1699(4) 0.8289(3)
H21 H 0.9340(6) 1.2070(4) 0.8252(3)
C21 C 0.9198(5) 1.1430(3) 0.8812(3)
H22 H 0.9483(5) 1.1617(3) 0.9128(3)
C22 C 0.8851(5) 1.0881(3) 0.8858(3)
C23 C 0.8448(5) 1.0581(3) 0.8398(3)
H23 H 0.8234(5) 1.0208(3) 0.8438(3)
C24 C 0.8370(5) 1.0851(3) 0.7873(3)
H24 H 0.8100(5) 1.0657(3) 0.7557(3)
C25 C 0.1227(7) 1.0147(5) 0.5887(5)
H25 H 0.0853(8) 1.0481(8) 0.5910(33)
H26 H 0.1069(16) 0.9861(25) 0.6152(20)
H27 H 0.1140(13) 0.9991(32) 0.5511(13)
C26 C 0.2127(9) 1.0302(6) 0.6016(7)
N5 N 0.2880(8) 1.0427(7) 0.6097(8)
C27 C 0.5122(9) 0.8526(5) 0.6166(5)
H28 H 0.4930(54) 0.8240(5) 0.6419(19)
H29 H 0.5753(12) 0.8478(14) 0.6133(34)
H30 H 0.4788(46) 0.8481(14) 0.5800(17)
C28 C 0.4960(7) 0.9110(6) 0.6387(5)
N6 N 0.4812(7) 0.9555(5) 0.6545(5)
C29 C 0.3214(9) 1.2008(6) 0.7632(6)
H31 H 0.2583(17) 1.2028(27) 0.7502(32)
H32 H 0.3501(47) 1.2363(8) 0.7542(35)
H33 H 0.3290(59) 1.1950(22) 0.8034(6)
C30 C 0.3639(8) 1.1508(6) 0.7342(5)
N7 N 0.3881(7) 1.1105(6) 0.7172(5)
C31 C 0.8658(7) 0.8903(4) 0.1686(4)
H34 H 0.8028(9) 0.8927(19) 0.1731(22)
H35 H 0.8882(31) 0.8530(4) 0.1808(19)
H36 H 0.8742(37) 0.8958(18) 0.1295(5)
C32 C 0.9146(6) 0.9349(4) 0.2026(4)
N8 N 0.9529(6) 0.9701(4) 0.2278(4)
C33 C 0.7392(7) 1.1369(5) 0.3335(4)
H37 H 0.7515(23) 1.1767(10) 0.3426(27)
H38 H 0.7334(32) 1.1157(20) 0.3675(16)
H39 H 0.6842(11) 1.1341(28) 0.3087(12)
C34 C 0.8119(7) 1.1134(5) 0.3059(5)
N9 N 0.8683(8) 1.0943(6) 0.2840(6)
O1 O 0.5538(3) 1.0836(2) 0.6074(2)
O2 O 0.5131(3) 1.3606(2) 0.6776(2)
O3 O 1.1139(3) 1.1501(2) 0.7042(2)
O4 O 1.0837(3) 1.2519(2) 0.7761(2)
O5 O 0.6948(3) 1.1907(2) 0.4606(2)
O6 O 0.8968(3) 1.0372(2) 0.5454(2)
O7 O 0.8369(3) 1.2650(2) 0.4966(2)
O8 O 0.6310(3) 1.3854(2) 0.5986(2)
O9 O 0.7527(4) 1.0769(2) 0.4616(2)
O10 O 0.7953(3) 1.3907(2) 0.7906(2)
O11 O 0.7907(4) 1.2849(2) 0.8324(2)
O12 O 0.9191(3) 1.3087(2) 0.7599(2)
O13 O 0.6486(4) 1.2078(2) 0.7976(2)
O14 O 0.9752(3) 1.1150(2) 0.6244(2)
O15 O 0.6570(3) 1.2863(2) 0.5307(2)
O16 O 0.8677(3) 1.0233(2) 0.6527(2)
O17 O 0.5115(3) 1.2433(2) 0.7254(2)
O18 O 0.6495(4) 1.4296(2) 0.7084(2)
O19 O 0.9020(4) 1.3441(2) 0.4194(2)
O20 O 0.9740(3) 1.2287(2) 0.5759(2)
O21 O 0.7751(3) 1.2354(2) 0.7208(2)
O22 O 0.8740(3) 1.4345(2) 0.4833(2)
O23 O 0.7779(3) 1.3505(2) 0.6778(2)
O24 O 0.9780(3) 1.3439(2) 0.5311(2)
O25 O 1.1111(3) 1.3713(2) 0.6168(2)
O26 O 0.8348(3) 1.1547(2) 0.5431(2)
O27 O 0.5919(3) 1.1005(2) 0.4938(2)
O28 O 1.1326(3) 1.1648(2) 0.5948(2)
O29 O 1.1370(3) 1.2806(2) 0.5518(2)
O30 O 0.7370(3) 1.3519(2) 0.4645(2)
O31 O 0.6264(3) 1.1590(2) 0.6902(2)
O32 O 0.6850(4) 1.0457(2) 0.6830(2)
O33 O 0.9464(3) 1.2101(2) 0.6934(2)
O34 O 0.5644(3) 1.3855(2) 0.4853(2)
O35 O 0.5956(3) 1.2829(2) 0.4133(2)
O36 O 0.6985(4) 1.4557(2) 0.5208(2)
O37 O 1.0790(4) 1.3570(2) 0.7316(2)
O38 O 0.6651(3) 1.1778(2) 0.5781(2)
O39 O 0.7591(3) 1.2666(2) 0.3832(2)
O40 O 0.6271(3) 1.2716(2) 0.6428(2)
O41 O 0.9440(3) 1.3245(2) 0.6436(2)
O42 O 0.8035(3) 1.1366(2) 0.6607(2)
O43 O 1.0843(3) 1.2607(2) 0.6588(2)
O44 O 0.8066(3) 1.3624(2) 0.5664(2)
O45 O 0.6633(3) 1.3138(2) 0.7426(2)
O46 O 0.7324(3) 1.0766(2) 0.5774(2)
O18A O 1.1495(4) 1.0704(2) 0.2084(2)
Ag1A Ag 0.51144(5) 1.45615(3) 0.77402(3)
C35 C -0.6022(6) 0.0355(4) 0.4873(5)
H40 H -0.5815(31) 0.0067(22) 0.4627(12)
H41 H -0.6200(14) 0.0173(27) 0.5206(17)
H42 H -0.5545(20) 0.0625(7) 0.4979(28)
C36 C -0.6803(7) 0.0665(4) 0.4576(5)
N10 N -0.7367(6) 0.0912(4) 0.4343(4)
C37 C -0.2756(17) 0.5148(11) 0.3874(12)
H43 H -0.285(14) 0.4758(12) 0.3990(67)
H44 H -0.3329(67) 0.5330(95) 0.3771(32)
H45 H -0.2435(77) 0.5357(92) 0.4181(36)
C38 C -0.2204(17) 0.5149(11) 0.3364(10)
N11 N -0.1886(16) 0.5208(13) 0.2986(10)
C39 C 0.6377(22) 0.0521(8) 1.0258(11)
H46 H 0.6780(22) 0.037(12) 1.0563(61)
H47 H 0.600(16) 0.0218(92) 1.0092(33)
H48 H 0.601(16) 0.0817(32) 1.0400(96)
C40 C 0.6942(23) 0.0786(14) 0.9795(12)
N12 N 0.7083(13) 0.0939(12) 0.9414(9)
C41 C 0.3187(7) 0.3263(6) 1.6404(5)
H49 H 0.2673(38) 0.3016(31) 1.6325(6)
H50 H 0.3033(59) 0.3579(6) 1.6637(17)
H51 H 0.3675(23) 0.3048(33) 1.6598(19)
C42 C 0.3462(8) 0.3491(5) 1.5867(5)
N13 N 0.3677(9) 0.3653(5) 1.5466(5)
O47 O -0.3240(5) 0.2091(4) 0.9211(3)
O48 O 0.0374(5) -0.0181(3) 0.9322(3)
loop_
_geom_bond_atom_site_label_1
_geom_bond_atom_site_label_2
_geom_bond_site_symmetry_1
_geom_bond_site_symmetry_2
Ag1 N1 1_555 1_555
Ag2 N5 1_555 1_555
As1 C1 1_555 1_555
As2 C7 1_555 1_555
As3 C13 1_555 1_555
As4 C19 1_555 1_555
Mo1 O4 1_555 1_555
Mo2 O13 1_555 1_555
Mo3 O20 1_555 1_555
Mo4 O5 1_555 1_555
Mo5 O2 1_555 1_555
Mo6 O3 1_555 1_555
Mo7 O8 1_555 1_555
Mo8 O7 1_555 1_555
Mo9 O6 1_555 1_555
Mo10 O5 1_555 1_555
Mo11 O1 1_555 1_555
Mo12 O10 1_555 1_555
N1 C4 1_555 1_555
N2 H1 1_555 1_555
H2 N2 1_555 1_555
H3 N2 1_555 1_555
N3 H4 1_555 1_555
H5 N3 1_555 1_555
N4 H6 1_555 1_555
H7 N4 1_555 1_555
H8 N4 1_555 1_555
C1 C2 1_555 1_555
C2 H9 1_555 1_555
C3 C2 1_555 1_555
H10 C3 1_555 1_555
C4 C3 1_555 1_555
C5 C4 1_555 1_555
H11 C5 1_555 1_555
C6 C1 1_555 1_555
H12 C6 1_555 1_555
C7 C8 1_555 1_555
C8 H13 1_555 1_555
C9 C8 1_555 1_555
H14 C9 1_555 1_555
C10 N2 1_555 1_555
C11 C10 1_555 1_555
H15 C11 1_555 1_555
C12 C7 1_555 1_555
H16 C12 1_555 1_555
C13 C14 1_555 1_555
C14 H17 1_555 1_555
C15 C14 1_555 1_555
H18 C15 1_555 1_555
C16 N3 1_555 1_555
C17 C16 1_555 1_555
H19 C17 1_555 1_555
C18 C13 1_555 1_555
H20 C18 1_555 1_555
C19 C20 1_555 1_555
C20 H21 1_555 1_555
C21 C20 1_555 1_555
H22 C21 1_555 1_555
C22 N4 1_555 1_555
C23 C22 1_555 1_555
H23 C23 1_555 1_555
C24 C19 1_555 1_555
H24 C24 1_555 1_555
C25 H25 1_555 1_555
H26 C25 1_555 1_555
H27 C25 1_555 1_555
C26 C25 1_555 1_555
N5 C26 1_555 1_555
C27 H28 1_555 1_555
H29 C27 1_555 1_555
H30 C27 1_555 1_555
C28 C27 1_555 1_555
N6 Ag2 1_555 1_555
C29 H31 1_555 1_555
H32 C29 1_555 1_555
H33 C29 1_555 1_555
C30 C29 1_555 1_555
N7 Ag2 1_555 1_555
C31 H34 1_555 1_555
H35 C31 1_555 1_555
H36 C31 1_555 1_555
C32 C31 1_555 1_555
N8 Ag1 1_555 1_555
C33 H37 1_555 1_555
H38 C33 1_555 1_555
H39 C33 1_555 1_555
C34 C33 1_555 1_555
N9 Ag1 1_555 1_555
O1 Ag2 1_555 1_555
O7 As1 1_555 1_555
O8 Mo5 1_555 1_555
O9 Mo10 1_555 1_555
O11 Mo12 1_555 1_555
O12 Mo1 1_555 1_555
O14 Mo6 1_555 1_555
O15 As2 1_555 1_555
O16 Mo9 1_555 1_555
O17 Mo2 1_555 1_555
O18 Mo5 1_555 1_555
O19 Mo8 1_555 1_555
O20 As1 1_555 1_555
O21 As4 1_555 1_555
O22 Mo8 1_555 1_555
O23 As3 1_555 1_555
O24 Mo3 1_555 1_555
O25 Mo3 1_555 1_555
O26 As1 1_555 1_555
O27 Mo10 1_555 1_555
O28 Mo6 1_555 1_555
O29 Mo3 1_555 1_555
O30 Mo4 1_555 1_555
O31 Mo2 1_555 1_555
O32 Mo11 1_555 1_555
O33 As4 1_555 1_555
O34 Mo7 1_555 1_555
O35 Mo4 1_555 1_555
O36 Mo7 1_555 1_555
O37 Mo1 1_555 1_555
O38 As2 1_555 1_555
O39 Mo4 1_555 1_555
O40 As2 1_555 1_555
O41 As3 1_555 1_555
O42 As4 1_555 1_555
O43 Mo1 1_555 1_555
O44 As3 1_555 1_555
O45 Mo2 1_555 1_555
O46 Mo9 1_555 1_555
C35 H40 1_555 1_555
H41 C35 1_555 1_555
H42 C35 1_555 1_555
C36 C35 1_555 1_555
N10 C36 1_555 1_555
C37 H43 1_555 1_555
H44 C37 1_555 1_555
H45 C37 1_555 1_555
C38 C37 1_555 1_555
N11 C38 1_555 1_555
C39 H46 1_555 1_555
H47 C39 1_555 1_555
H48 C39 1_555 1_555
C40 C39 1_555 1_555
N12 C40 1_555 1_555
C41 H49 1_555 1_555
H50 C41 1_555 1_555
H51 C41 1_555 1_555
C42 C41 1_555 1_555
N13 C42 1_555 1_555
O18A Ag1 1_555 1_555
Ag1A O18 1_555 1_555
Mo1 O33 1_555 1_555
Mo1 O41 1_555 1_555
Mo2 O21 1_555 1_555
Mo2 O40 1_555 1_555
Mo3 O41 1_555 1_555
Mo3 O43 1_555 1_555
Mo4 O7 1_555 1_555
Mo4 O15 1_555 1_555
Mo5 O23 1_555 1_555
Mo5 O40 1_555 1_555
Mo5 O45 1_555 1_555
Mo6 O20 1_555 1_555
Mo6 O33 1_555 1_555
Mo6 O43 1_555 1_555
Mo7 O15 1_555 1_555
Mo7 O30 1_555 1_555
Mo7 O44 1_555 1_555
Mo8 O24 1_555 1_555
Mo8 O30 1_555 1_555
Mo8 O44 1_555 1_555
Mo9 O14 1_555 1_555
Mo9 O26 1_555 1_555
Mo9 O42 1_555 1_555
Mo10 O26 1_555 1_555
Mo10 O38 1_555 1_555
Mo10 O46 1_555 1_555
Mo11 O38 1_555 1_555
Mo11 O31 1_555 1_555
Mo11 O42 1_555 1_555
Mo11 O46 1_555 1_555
Mo12 O21 1_555 1_555
Mo12 O12 1_555 1_555
Mo12 O23 1_555 1_555
Mo12 O45 1_555 1_555
C5 C6 1_555 1_555
C9 C10 1_555 1_555
C11 C12 1_555 1_555
C15 C16 1_555 1_555
C17 C18 1_555 1_555
C21 C22 1_555 1_555
C23 C24 1_555 1_555
C28 N6 1_555 1_555
C30 N7 1_555 1_555
C32 N8 1_555 1_555
C34 N9 1_555 1_555

#END
