
#######################################################################
#
#                 Cambridge Crystallographic Data Centre
#                                CCDC 
#
#######################################################################
#
# If this CIF has been generated from an entry in the Cambridge 
# Structural Database, then it will include bibliographic, chemical, 
# crystal, experimental, refinement or atomic coordinate data resulting 
# from the CCDC's data processing and validation procedures.
#
#######################################################################

data_MIZJAH
_symmetry_cell_setting           monoclinic
_symmetry_space_group_name_H-M   'P 21/n'
_symmetry_Int_Tables_number      14
_space_group_name_Hall           '-P 2yn'
loop_
_symmetry_equiv_pos_site_id
_symmetry_equiv_pos_as_xyz
1 x,y,z
2 1/2-x,1/2+y,1/2-z
3 -x,-y,-z
4 1/2+x,1/2-y,1/2+z
_cell_length_a                   9.5149(19)
_cell_length_b                   19.012(4)
_cell_length_c                   22.863(5)
_cell_angle_alpha                90
_cell_angle_beta                 100.37(3)
_cell_angle_gamma                90
_cell_volume                     4068.3
loop_
_atom_site_label
_atom_site_type_symbol
_atom_site_fract_x
_atom_site_fract_y
_atom_site_fract_z
Nd1 Nd 0.7399(1) 0.4923(1) 0.0164(1)
C1 C 1.0689(7) 0.5866(4) 0.0781(3)
C2 C 1.0641(9) 0.6420(5) 0.1249(4)
C3 C 0.9288(10) 0.6466(6) 0.1491(4)
C4 C 1.0995(16) 0.6289(14) 0.2912(6)
C5 C 1.1582(19) 0.5695(11) 0.3132(6)
C6 C 1.2972(19) 0.5626(9) 0.3322(6)
C7 C 1.3900(13) 0.6191(10) 0.3306(5)
C8 C 1.3310(20) 0.6817(9) 0.3089(6)
C9 C 1.1820(30) 0.6858(10) 0.2893(6)
C10 C 1.5510(16) 0.6129(14) 0.3505(8)
C11 C 0.7371(8) 0.6286(4) -0.0418(4)
C12 C 0.7448(10) 0.6992(4) -0.0719(4)
C13 C 0.7018(11) 0.7620(5) -0.0389(4)
C14 C 0.8017(9) 0.9104(4) 0.0401(4)
C15 C 0.8114(11) 0.9640(5) -0.0008(5)
C16 C 0.7389(12) 1.0267(6) 0.0037(5)
C17 C 0.6549(11) 1.0364(5) 0.0467(5)
C18 C 0.6443(13) 0.9823(5) 0.0858(5)
C19 C 0.7178(12) 0.9186(5) 0.0832(5)
C20 C 0.5773(13) 1.1035(6) 0.0539(6)
C21 C 0.5571(8) 0.5212(4) 0.1089(4)
C22 C 0.4809(9) 0.5423(5) 0.1591(4)
C23 C 0.4962(9) 0.6204(4) 0.1721(4)
C24 C 0.4340(9) 0.7939(4) 0.1629(4)
C25 C 0.2956(10) 0.8189(5) 0.1543(5)
C26 C 0.2554(12) 0.8628(6) 0.1962(5)
C27 C 0.3473(15) 0.8806(6) 0.2471(5)
C28 C 0.4879(13) 0.8551(7) 0.2552(5)
C29 C 0.5291(11) 0.8109(6) 0.2146(5)
C30 C 0.3033(19) 0.9299(8) 0.2934(6)
N1 N 0.9114(16) 0.6260(30) 0.1908(6)
N2 N 0.7882(8) 0.7685(4) 0.0206(4)
N3 N 0.4377(7) 0.6603(4) 0.1192(3)
S1 S 0.9087(5) 0.6219(5) 0.2610(2)
S2 S 0.8976(3) 0.8318(1) 0.0391(1)
S3 S 0.4860(2) 0.7392(1) 0.1088(1)
O1 O 0.8433(16) 0.5616(14) 0.2811(6)
O2 O 0.9190(17) 0.6928(6) 0.2637(4)
O3 O 0.9651(8) 0.8169(4) 0.0984(4)
O4 O 0.9833(8) 0.8391(4) -0.0055(4)
O5 O 0.4075(7) 0.7603(3) 0.0517(3)
O6 O 0.6384(6) 0.7420(3) 0.1193(3)
O7 O 0.9590(5) 0.5503(3) 0.0591(3)
O8 O 1.1846(5) 0.5810(3) 0.0598(2)
O9 O 0.7996(6) 0.5767(3) -0.0603(2)
O10 O 0.6696(5) 0.6223(3) 0.0005(2)
O11 O 0.4868(6) 0.5142(3) 0.0568(2)
O12 O 0.6906(6) 0.5144(3) 0.1191(3)
O13 O 0.9153(6) 0.4071(3) 0.0732(3)
O14 O 0.6239(5) 0.3778(3) 0.0331(3)
Nd1B Nd 1.2601(1) 0.5077(1) -0.0164(1)
Nd1B_2 Nd 0.2601(1) 0.5077(1) -0.0164(1)
O8B O 0.8154(5) 0.4190(3) -0.0598(2)
O11B O 0.5132(6) 0.4858(3) -0.0568(2)
O15 O 0.8479(8) 0.2675(4) 0.0441(5)
loop_
_geom_bond_atom_site_label_1
_geom_bond_atom_site_label_2
_geom_bond_site_symmetry_1
_geom_bond_site_symmetry_2
Nd1 O7 1_555 1_555
C1 C2 1_555 1_555
C2 C3 1_555 1_555
C3 N1 1_555 1_555
C4 C5 1_555 1_555
C5 C6 1_555 1_555
C6 C7 1_555 1_555
C7 C8 1_555 1_555
C8 C9 1_555 1_555
C9 C4 1_555 1_555
C10 C7 1_555 1_555
C11 C12 1_555 1_555
C12 C13 1_555 1_555
C13 N2 1_555 1_555
C14 C15 1_555 1_555
C15 C16 1_555 1_555
C16 C17 1_555 1_555
C17 C18 1_555 1_555
C18 C19 1_555 1_555
C19 C14 1_555 1_555
C20 C17 1_555 1_555
C21 C22 1_555 1_555
C22 C23 1_555 1_555
C23 N3 1_555 1_555
C24 C25 1_555 1_555
C25 C26 1_555 1_555
C26 C27 1_555 1_555
C27 C28 1_555 1_555
C28 C29 1_555 1_555
C29 C24 1_555 1_555
C30 C27 1_555 1_555
N1 S1 1_555 1_555
N2 S2 1_555 1_555
N3 S3 1_555 1_555
S1 C4 1_555 1_555
S2 C14 1_555 1_555
S3 C24 1_555 1_555
O1 S1 1_555 1_555
O2 S1 1_555 1_555
O3 S2 1_555 1_555
O4 S2 1_555 1_555
O5 S3 1_555 1_555
O6 S3 1_555 1_555
O7 C1 1_555 1_555
O8 C1 1_555 1_555
O9 Nd1 1_555 1_555
O10 Nd1 1_555 1_555
O11 Nd1 1_555 1_555
O12 Nd1 1_555 1_555
O13 Nd1 1_555 1_555
O14 Nd1 1_555 1_555
Nd1B O8 1_555 1_555
Nd1B_2 O11 1_555 1_555
O8B Nd1 1_555 1_555
O11B Nd1 1_555 1_555
C11 O9 1_555 1_555
C11 O10 1_555 1_555
C21 O11 1_555 1_555
C21 O12 1_555 1_555
Nd1B_2 O11B 1_555 1_555

#END
