
#######################################################################
#
#                 Cambridge Crystallographic Data Centre
#                                CCDC 
#
#######################################################################
#
# If this CIF has been generated from an entry in the Cambridge 
# Structural Database, then it will include bibliographic, chemical, 
# crystal, experimental, refinement or atomic coordinate data resulting 
# from the CCDC's data processing and validation procedures.
#
#######################################################################

data_MIZKUC
_symmetry_cell_setting           triclinic
_symmetry_space_group_name_H-M   'P -1'
_symmetry_Int_Tables_number      2
_space_group_name_Hall           '-P 1'
loop_
_symmetry_equiv_pos_site_id
_symmetry_equiv_pos_as_xyz
1 x,y,z
2 -x,-y,-z
_cell_length_a                   4.5644(9)
_cell_length_b                   8.9738(18)
_cell_length_c                   11.778(2)
_cell_angle_alpha                78.05(3)
_cell_angle_beta                 83.67(3)
_cell_angle_gamma                84.67(3)
_cell_volume                     467.875
loop_
_atom_site_label
_atom_site_type_symbol
_atom_site_fract_x
_atom_site_fract_y
_atom_site_fract_z
Pb1 Pb 0.30452(8) 0.91374(5) 0.35680(4)
I1 I 0.22646(16) 1.24247(10) 0.45986(7)
I2 I -0.17756(15) 1.03626(10) 0.17402(7)
N1 N 0.5211(19) 0.6420(11) 0.2119(9)
O1 O 0.331(2) 0.6819(12) 0.2918(9)
C1 C 0.505(3) 0.7035(14) 0.0998(11)
H1 H 0.3678 0.7848 0.0782
C2 C 0.686(3) 0.6496(14) 0.0173(11)
H2 H 0.6663 0.6929 -0.0606
C3 C 0.902(2) 0.5315(12) 0.0442(11)
C4 C 0.915(3) 0.4791(14) 0.1635(12)
H3 H 1.0594 0.4030 0.1882
C5 C 0.731(3) 0.5319(16) 0.2438(12)
H4 H 0.7486 0.4922 0.3225
Pb1A Pb -0.30452(8) 1.08626(5) 0.64320(4)
Pb1A_2 Pb 0.69548(8) 1.08626(5) 0.64320(4)
Pb1_2 Pb -0.69548(8) 0.91374(5) 0.35680(4)
Pb1A_3 Pb 1.69548(8) 0.08626(5) -0.35680(4)
Pb1_3 Pb 1.30452(8) 0.91374(5) 0.35680(4)
I1A I -0.22646(16) 0.75753(10) 0.54014(7)
I1A_2 I 0.77354(16) 0.75753(10) 0.54014(7)
I1_2 I -0.77354(16) 1.24247(10) 0.45986(7)
I2_2 I 0.82244(15) 1.03626(10) 0.17402(7)
I2A I -0.82244(15) 0.96374(10) 0.82598(7)
I2A_2 I 0.17756(15) 0.96374(10) 0.82598(7)
N1A N 1.4789(19) 0.3580(11) -0.2119(9)
O1A O 1.669(2) 0.3181(12) -0.2918(9)
O1A_2 O -0.331(2) 1.3181(12) 0.7082(9)
C1A C 1.495(3) 0.2965(14) -0.0998(11)
H1A H 1.6322 0.2152 -0.0782
C2A C 1.314(3) 0.3504(14) -0.0173(11)
H2A H 1.3337 0.3071 0.0606
C3A C 1.098(2) 0.4685(12) -0.0442(11)
C4A C 1.085(3) 0.5209(14) -0.1635(12)
H3A H 0.9406 0.5970 -0.1882
C5A C 1.269(3) 0.4681(16) -0.2438(12)
H4A H 1.2514 0.5078 -0.3225
loop_
_geom_bond_atom_site_label_1
_geom_bond_atom_site_label_2
_geom_bond_site_symmetry_1
_geom_bond_site_symmetry_2
Pb1 I1 1_555 1_555
I1 Pb1A 1_555 1_555
I2 Pb1 1_555 1_555
N1 O1 1_555 1_555
O1 Pb1 1_555 1_555
C1 N1 1_555 1_555
H1 C1 1_555 1_555
C2 C1 1_555 1_555
H2 C2 1_555 1_555
C3 C2 1_555 1_555
C4 C3 1_555 1_555
H3 C4 1_555 1_555
C5 N1 1_555 1_555
H4 C5 1_555 1_555
Pb1A I1A 1_555 1_555
Pb1A_2 I1 1_555 1_555
Pb1_2 I2 1_555 1_555
Pb1A_3 O1A 1_555 1_555
Pb1_3 I1A_2 1_555 1_555
I1A Pb1 1_555 1_555
I1A_2 Pb1 1_555 1_555
I1_2 Pb1A 1_555 1_555
I2_2 Pb1 1_555 1_555
I2A Pb1A 1_555 1_555
I2A_2 Pb1A 1_555 1_555
N1A O1A 1_555 1_555
O1A_2 Pb1A 1_555 1_555
C1A N1A 1_555 1_555
H1A C1A 1_555 1_555
C2A C1A 1_555 1_555
H2A C2A 1_555 1_555
C3A C3 1_555 1_555
C4A C3A 1_555 1_555
H3A C4A 1_555 1_555
C5A N1A 1_555 1_555
H4A C5A 1_555 1_555
C4 C5 1_555 1_555
Pb1A_2 I1A_2 1_555 1_555
Pb1A_2 I2A_2 1_555 1_555
Pb1_2 I1A 1_555 1_555
Pb1_2 I1_2 1_555 1_555
Pb1_3 I2_2 1_555 1_555
C2A C3A 1_555 1_555
C4A C5A 1_555 1_555

#END
