
#######################################################################
#
#                 Cambridge Crystallographic Data Centre
#                                CCDC 
#
#######################################################################
#
# If this CIF has been generated from an entry in the Cambridge 
# Structural Database, then it will include bibliographic, chemical, 
# crystal, experimental, refinement or atomic coordinate data resulting 
# from the CCDC's data processing and validation procedures.
#
#######################################################################

data_MIZLEN
_symmetry_cell_setting           monoclinic
_symmetry_space_group_name_H-M   'P 21/c'
_symmetry_Int_Tables_number      14
_space_group_name_Hall           '-P 2ybc'
loop_
_symmetry_equiv_pos_site_id
_symmetry_equiv_pos_as_xyz
1 x,y,z
2 -x,1/2+y,1/2-z
3 -x,-y,-z
4 x,1/2-y,1/2+z
_cell_length_a                   16.872(5)
_cell_length_b                   7.2993(17)
_cell_length_c                   12.074(3)
_cell_angle_alpha                90
_cell_angle_beta                 107.850(4)
_cell_angle_gamma                90
_cell_volume                     1415.38
loop_
_atom_site_label
_atom_site_type_symbol
_atom_site_fract_x
_atom_site_fract_y
_atom_site_fract_z
Pb1 Pb 0.008897(13) 0.70046(3) 0.613069(18)
I1 I -0.09276(2) 1.07724(5) 0.58435(3)
O1 O -0.0787(2) 0.5859(5) 0.4424(3)
N1 N -0.1217(3) 0.5871(6) 0.6418(4)
C1 C -0.1408(4) 0.5810(8) 0.7395(5)
H1 H -0.1014 0.6198 0.8078
C2 C -0.2183(4) 0.5181(10) 0.7447(6)
H2 H -0.2294 0.5127 0.8154
C3 C -0.2767(4) 0.4653(9) 0.6451(6)
H3 H -0.3282 0.4233 0.6475
C4 C -0.2596(4) 0.4740(8) 0.5381(5)
C5 C -0.3173(4) 0.4253(9) 0.4303(6)
H4 H -0.3706 0.3870 0.4269
C6 C -0.2953(4) 0.4343(9) 0.3322(6)
H5 H -0.3341 0.4030 0.2616
C7 C -0.2152(4) 0.4899(8) 0.3337(5)
H6 H -0.2016 0.4932 0.2647
C8 C -0.1564(3) 0.5395(7) 0.4367(5)
C9 C -0.1794(3) 0.5354(7) 0.5414(5)
Pb1B Pb -0.008897(13) 1.29954(3) 0.386931(18)
Pb1A Pb -0.008897(13) 1.20046(3) 0.886931(18)
Pb1B_2 Pb -0.008897(13) 0.29954(3) 0.386931(18)
I1B I 0.09276(2) 0.92276(5) 0.41565(3)
I1A I 0.09276(2) 0.57724(5) 0.91565(3)
O1B O 0.0787(2) 0.4141(5) 0.5576(3)
N2 N -0.4173(4) 0.8660(9) 0.4382(6)
O2 O -0.5382(4) 0.7179(11) 0.4088(8)
C10 C -0.4705(6) 0.7677(14) 0.4698(9)
H7 H -0.4551 0.7317 0.5474
C11 C -0.3363(5) 0.9185(12) 0.5133(9)
H8 H -0.3079 0.9887 0.4698
H9 H -0.3045 0.8106 0.5437
H10 H -0.3425 0.9911 0.5764
C12 C -0.4367(7) 0.921(2) 0.3164(9)
H11 H -0.3911 0.9899 0.3060
H12 H -0.4862 0.9946 0.2949
H13 H -0.4457 0.8133 0.2681
loop_
_geom_bond_atom_site_label_1
_geom_bond_atom_site_label_2
_geom_bond_site_symmetry_1
_geom_bond_site_symmetry_2
Pb1 I1 1_555 1_555
I1 Pb1B 1_555 1_555
O1 Pb1 1_555 1_555
N1 Pb1 1_555 1_555
N2 C10 1_555 1_555
O2 C10 1_555 1_555
C1 N1 1_555 1_555
H1 C1 1_555 1_555
C2 C1 1_555 1_555
H2 C2 1_555 1_555
C3 C2 1_555 1_555
H3 C3 1_555 1_555
C4 C3 1_555 1_555
C5 C4 1_555 1_555
H4 C5 1_555 1_555
C6 C5 1_555 1_555
H5 C6 1_555 1_555
C7 C6 1_555 1_555
H6 C7 1_555 1_555
C8 O1 1_555 1_555
C9 N1 1_555 1_555
C10 H7 1_555 1_555
C11 N2 1_555 1_555
H8 C11 1_555 1_555
H9 C11 1_555 1_555
H10 C11 1_555 1_555
C12 N2 1_555 1_555
H11 C12 1_555 1_555
H12 C12 1_555 1_555
H13 C12 1_555 1_555
Pb1B I1B 1_555 1_555
Pb1A I1 1_555 1_555
Pb1B_2 O1 1_555 1_555
I1B Pb1 1_555 1_555
I1A Pb1 1_555 1_555
O1B Pb1 1_555 1_555
C4 C9 1_555 1_555
C7 C8 1_555 1_555
C8 C9 1_555 1_555
Pb1B_2 O1B 1_555 1_555

#END
