
#######################################################################
#
#                 Cambridge Crystallographic Data Centre
#                                CCDC 
#
#######################################################################
#
# If this CIF has been generated from an entry in the Cambridge 
# Structural Database, then it will include bibliographic, chemical, 
# crystal, experimental, refinement or atomic coordinate data resulting 
# from the CCDC's data processing and validation procedures.
#
#######################################################################

data_MIZLAJ
_symmetry_cell_setting           monoclinic
_symmetry_space_group_name_H-M   'C 2/c'
_symmetry_Int_Tables_number      15
_space_group_name_Hall           '-C 2yn'
loop_
_symmetry_equiv_pos_site_id
_symmetry_equiv_pos_as_xyz
1 x,y,z
2 1/2+x,1/2+y,z
3 -x,y,1/2-z
4 1/2-x,1/2+y,1/2-z
5 -x,-y,-z
6 1/2-x,1/2-y,-z
7 x,-y,1/2+z
8 1/2+x,1/2-y,1/2+z
_cell_length_a                   18.866(4)
_cell_length_b                   8.6033(17)
_cell_length_c                   9.6102(19)
_cell_angle_alpha                90
_cell_angle_beta                 115.43(3)
_cell_angle_gamma                90
_cell_volume                     1408.7
loop_
_atom_site_label
_atom_site_type_symbol
_atom_site_fract_x
_atom_site_fract_y
_atom_site_fract_z
Pb1 Pb 0.0000 0.42769(4) 0.2500
I1 I -0.12045(3) 0.60635(5) 0.39394(4)
O1 O 0.0583(3) 0.2083(5) 0.1924(4)
N1 N 0.0892(3) 0.0966(5) 0.2943(5)
C1 C 0.1665(4) 0.0939(7) 0.3799(7)
H1 H 0.1976 0.1730 0.3699
C2 C 0.2011(4) -0.0259(9) 0.4840(7)
H2 H 0.2550 -0.0272 0.5441
C3 C 0.1549(4) -0.1416(8) 0.4969(7)
H3 H 0.1773 -0.2220 0.5669
C4 C 0.0751(4) -0.1395(7) 0.4063(6)
H4 H 0.0438 -0.2186 0.4156
C5 C 0.0414(3) -0.0210(7) 0.3021(6)
Pb1F Pb 0.0000 0.57231(4) 0.7500
Pb1F_2 Pb 0.0000 0.57231(4) -0.2500
I1F I -0.12045(3) 0.39365(5) -0.10606(4)
I1D I 0.12045(3) 0.39365(5) 0.60606(4)
I1B I 0.12045(3) 0.60635(5) 0.10606(4)
O1B O -0.0583(3) 0.2083(5) 0.3076(4)
N1B N -0.0892(3) 0.0966(5) 0.2057(5)
C1B C -0.1665(4) 0.0939(7) 0.1201(7)
H1B H -0.1976 0.1730 0.1301
C2B C -0.2011(4) -0.0259(9) 0.0160(7)
H2B H -0.2550 -0.0272 -0.0441
C3B C -0.1549(4) -0.1416(8) 0.0031(7)
H3B H -0.1773 -0.2220 -0.0669
C4B C -0.0751(4) -0.1395(7) 0.0937(6)
H4B H -0.0438 -0.2186 0.0844
C5B C -0.0414(3) -0.0210(7) 0.1979(6)
loop_
_geom_bond_atom_site_label_1
_geom_bond_atom_site_label_2
_geom_bond_site_symmetry_1
_geom_bond_site_symmetry_2
Pb1 I1 1_555 1_555
I1 Pb1F 1_555 1_555
O1 Pb1 1_555 1_555
N1 O1 1_555 1_555
C1 N1 1_555 1_555
H1 C1 1_555 1_555
C2 C1 1_555 1_555
H2 C2 1_555 1_555
C3 C2 1_555 1_555
H3 C3 1_555 1_555
C4 C3 1_555 1_555
H4 C4 1_555 1_555
C5 N1 1_555 1_555
Pb1F I1D 1_555 1_555
Pb1F_2 I1F 1_555 1_555
I1F Pb1 1_555 1_555
I1D Pb1 1_555 1_555
I1B Pb1 1_555 1_555
O1B Pb1 1_555 1_555
N1B O1B 1_555 1_555
C1B N1B 1_555 1_555
H1B C1B 1_555 1_555
C2B C1B 1_555 1_555
H2B C2B 1_555 1_555
C3B C2B 1_555 1_555
H3B C3B 1_555 1_555
C4B C3B 1_555 1_555
H4B C4B 1_555 1_555
C5B C5 1_555 1_555
C4 C5 1_555 1_555
Pb1F_2 I1B 1_555 1_555
N1B C5B 1_555 1_555
C4B C5B 1_555 1_555

#END
