
#######################################################################
#
#                 Cambridge Crystallographic Data Centre
#                                CCDC 
#
#######################################################################
#
# If this CIF has been generated from an entry in the Cambridge 
# Structural Database, then it will include bibliographic, chemical, 
# crystal, experimental, refinement or atomic coordinate data resulting 
# from the CCDC's data processing and validation procedures.
#
#######################################################################

data_MIZLIR
_symmetry_cell_setting           monoclinic
_symmetry_space_group_name_H-M   'C 2/c'
_symmetry_Int_Tables_number      15
_space_group_name_Hall           '-C 2yn'
loop_
_symmetry_equiv_pos_site_id
_symmetry_equiv_pos_as_xyz
1 x,y,z
2 1/2+x,1/2+y,z
3 -x,y,1/2-z
4 1/2-x,1/2+y,1/2-z
5 -x,-y,-z
6 1/2-x,1/2-y,-z
7 x,-y,1/2+z
8 1/2+x,1/2-y,1/2+z
_cell_length_a                   11.7889(7)
_cell_length_b                   14.2524(9)
_cell_length_c                   16.3910(10)
_cell_angle_alpha                90
_cell_angle_beta                 99.416(1)
_cell_angle_gamma                90
_cell_volume                     2716.91
loop_
_atom_site_label
_atom_site_type_symbol
_atom_site_fract_x
_atom_site_fract_y
_atom_site_fract_z
I1 I 0.896282(16) 0.197417(15) 0.582317(12)
Cu1 Cu 0.67439(3) 0.23758(3) 0.56937(2)
S1 S 0.72188(8) 0.22144(6) 0.76750(5)
N1 N 0.6652(2) 0.34638(16) 0.65154(15)
C1 C 0.6843(2) 0.3361(2) 0.73416(18)
N2 N 0.6766(2) 0.40261(19) 0.78930(16)
C2 C 0.6223(3) 0.5055(2) 0.6759(2)
H1 H 0.6000 0.5649 0.6558
C3 C 0.6449(3) 0.4874(2) 0.7586(2)
H2 H 0.6379 0.5360 0.7953
C4 C 0.6339(3) 0.4323(2) 0.6237(2)
H3 H 0.6196 0.4428 0.5669
N3 N 0.4256(2) 0.12381(16) 0.91189(14)
C5 C 0.3836(3) 0.0360(2) 0.9059(2)
H4 H 0.3084 0.0260 0.9143
N4 N 0.6041(2) 0.0632(2) 0.8833(2)
C6 C 0.5354(2) 0.1322(2) 0.90005(18)
C7 C 0.5573(3) -0.0215(3) 0.8768(3)
H5 H 0.6018 -0.0716 0.8639
C8 C 0.4472(3) -0.0388(2) 0.8881(3)
H6 H 0.4168 -0.0991 0.8838
C9 C 0.7259(2) 0.2332(2) 0.87716(18)
H7 H 0.7735 0.2869 0.8963
H8 H 0.7629 0.1780 0.9041
S2 S 0.58835(7) 0.24749(6) 0.90973(5)
I1E I 0.603718(16) 0.302583(15) 0.417683(12)
Cu1E Cu 0.82561(3) 0.26242(3) 0.43063(2)
Cu1B Cu 0.32561(3) 0.23758(3) 0.93063(2)
N3B N 0.5744(2) 0.12381(16) 0.58811(14)
loop_
_geom_bond_atom_site_label_1
_geom_bond_atom_site_label_2
_geom_bond_site_symmetry_1
_geom_bond_site_symmetry_2
I1 Cu1 1_555 1_555
Cu1 N1 1_555 1_555
S1 C1 1_555 1_555
N1 C1 1_555 1_555
C1 N2 1_555 1_555
N2 C3 1_555 1_555
C2 H1 1_555 1_555
C3 C2 1_555 1_555
H2 C3 1_555 1_555
C4 N1 1_555 1_555
H3 C4 1_555 1_555
N3 C5 1_555 1_555
C5 H4 1_555 1_555
N4 C6 1_555 1_555
C6 N3 1_555 1_555
C7 N4 1_555 1_555
H5 C7 1_555 1_555
C8 C5 1_555 1_555
H6 C8 1_555 1_555
C9 S1 1_555 1_555
H7 C9 1_555 1_555
H8 C9 1_555 1_555
S2 C6 1_555 1_555
I1E Cu1 1_555 1_555
Cu1E I1 1_555 1_555
Cu1B N3 1_555 1_555
N3B Cu1 1_555 1_555
C2 C4 1_555 1_555
C7 C8 1_555 1_555
C9 S2 1_555 1_555
I1E Cu1E 1_555 1_555

#END
