
#######################################################################
#
#                 Cambridge Crystallographic Data Centre
#                                CCDC 
#
#######################################################################
#
# If this CIF has been generated from an entry in the Cambridge 
# Structural Database, then it will include bibliographic, chemical, 
# crystal, experimental, refinement or atomic coordinate data resulting 
# from the CCDC's data processing and validation procedures.
#
#######################################################################

data_MIZMIS
_symmetry_cell_setting           monoclinic
_symmetry_space_group_name_H-M   'P 21/n'
_symmetry_Int_Tables_number      14
_space_group_name_Hall           '-P 2yn'
loop_
_symmetry_equiv_pos_site_id
_symmetry_equiv_pos_as_xyz
1 x,y,z
2 1/2-x,1/2+y,1/2-z
3 -x,-y,-z
4 1/2+x,1/2-y,1/2+z
_cell_length_a                   7.15990(10)
_cell_length_b                   19.4285(2)
_cell_length_c                   21.3245(3)
_cell_angle_alpha                90
_cell_angle_beta                 98.42
_cell_angle_gamma                90
_cell_volume                     2934.39
loop_
_atom_site_label
_atom_site_type_symbol
_atom_site_fract_x
_atom_site_fract_y
_atom_site_fract_z
Sr1 Sr 0.11144(13) 0.00897(4) 0.36684(4)
Cu1 Cu -0.05291(17) 0.00060(6) 0.17446(5)
S1 S 0.0590(3) -0.35571(12) 0.12738(11)
S2 S 0.0368(3) 0.35649(11) 0.11585(10)
O1 O -0.0566(10) 0.0993(3) 0.1731(3)
O2 O -0.0014(12) 0.0898(3) 0.2778(3)
O3 O 0.0985(10) 0.4255(3) 0.1330(3)
O4 O -0.0444(10) -0.0978(3) 0.1802(3)
O5 O 0.0202(10) -0.0984(4) 0.4313(3)
O6 O -0.1573(12) -0.0086(4) 0.0643(4)
O7 O -0.3201(11) 0.0002(4) 0.1908(4)
O8 O 0.2209(11) 0.0018(4) 0.1687(4)
C1 C 0.0175(14) -0.2374(5) 0.1899(4)
H1 H 0.0177 -0.2167 0.1506
O10 O -0.0830(12) 0.0732(5) 0.4393(4)
C2 C -0.0257(14) 0.2016(5) 0.2340(4)
C3 C -0.0048(13) 0.3052(5) 0.2970(4)
C4 C -0.0096(14) -0.1210(5) 0.2366(4)
C5 C 0.0112(13) -0.3011(5) 0.3073(4)
O11 O -0.2586(12) -0.0076(4) 0.3312(4)
C6 C -0.0292(13) 0.2346(5) 0.2914(4)
H2 H -0.0483 0.2090 0.3268
C7 C 0.0001(13) -0.1976(4) 0.2428(4)
C8 C 0.0106(14) 0.3381(5) 0.3614(5)
C9 C 0.0352(14) -0.3410(5) 0.2542(4)
H3 H 0.0512 -0.3884 0.2578
O12 O 0.0774(15) 0.3976(4) 0.3692(4)
C10 C -0.0284(14) 0.1242(5) 0.2290(5)
C11 C 0.0346(13) -0.3084(5) 0.1961(4)
C12 C 0.0122(14) 0.3104(4) 0.1868(4)
C13 C -0.0083(13) 0.2409(5) 0.1805(4)
H4 H -0.0107 0.2200 0.1412
C14 C -0.0038(14) -0.2303(5) 0.3012(4)
H5 H -0.0167 -0.2038 0.3367
C15 C 0.0157(14) 0.3435(5) 0.2431(4)
H6 H 0.0315 0.3910 0.2456
O13 O 0.0212(12) -0.0841(4) 0.2830(3)
O14 O 0.1721(10) 0.3175(4) 0.0854(3)
O15 O 0.3007(11) 0.0208(4) 0.4849(4)
O16 O -0.0469(11) 0.3031(4) 0.4043(3)
O17 O -0.1514(10) 0.3552(4) 0.0778(3)
C16 C 0.0159(13) -0.3354(5) 0.3699(4)
O18 O -0.0213(11) -0.2976(3) 0.4148(3)
O19 O 0.0512(11) -0.3976(4) 0.3756(3)
O20 O -0.1133(11) -0.3407(4) 0.0832(3)
O21 O 0.0749(11) -0.4274(3) 0.1462(3)
O22 O 0.2256(12) -0.3312(4) 0.1038(3)
Cu2 Cu -0.00891(19) 0.31171(6) 0.49423(5)
O23 O -0.0410(11) 0.4133(4) 0.5020(3)
O24 O -0.3118(10) 0.2766(4) 0.4903(3)
O25 O 0.1863(16) 0.2404(5) 0.4936(4)
Sr1A Sr 0.38856(13) 0.50897(4) 0.13316(4)
Sr1A_2 Sr 0.38856(13) -0.49103(4) 0.13316(4)
O3A O 0.4015(10) -0.0745(3) 0.3670(3)
O18B O 0.0213(11) 0.2976(3) 0.5852(3)
O21A O 0.4251(11) 0.0726(3) 0.3538(3)
Cu2B Cu 0.00891(19) -0.31171(6) 0.50577(5)
O9 O 0.9078(14) 0.1025(5) -0.0223(4)
loop_
_geom_bond_atom_site_label_1
_geom_bond_atom_site_label_2
_geom_bond_site_symmetry_1
_geom_bond_site_symmetry_2
Sr1 O2 1_555 1_555
Cu1 O1 1_555 1_555
S1 C11 1_555 1_555
S2 O3 1_555 1_555
O1 C10 1_555 1_555
O2 C10 1_555 1_555
O3 Sr1A 1_555 1_555
O4 Cu1 1_555 1_555
O5 Sr1 1_555 1_555
O6 Cu1 1_555 1_555
O7 Cu1 1_555 1_555
O8 Cu1 1_555 1_555
C1 H1 1_555 1_555
O10 Sr1 1_555 1_555
C2 C6 1_555 1_555
C3 C6 1_555 1_555
C4 O4 1_555 1_555
C5 C9 1_555 1_555
O11 Sr1 1_555 1_555
C6 H2 1_555 1_555
C7 C1 1_555 1_555
C8 C3 1_555 1_555
C9 H3 1_555 1_555
O12 C8 1_555 1_555
C10 C2 1_555 1_555
C11 C1 1_555 1_555
C12 S2 1_555 1_555
C13 C2 1_555 1_555
H4 C13 1_555 1_555
C14 C5 1_555 1_555
H5 C14 1_555 1_555
C15 C3 1_555 1_555
H6 C15 1_555 1_555
O13 Sr1 1_555 1_555
O14 S2 1_555 1_555
O15 Sr1 1_555 1_555
O16 C8 1_555 1_555
O17 S2 1_555 1_555
C16 C5 1_555 1_555
O18 C16 1_555 1_555
O19 C16 1_555 1_555
O20 S1 1_555 1_555
O21 S1 1_555 1_555
O22 S1 1_555 1_555
Cu2 O16 1_555 1_555
O23 Cu2 1_555 1_555
O24 Cu2 1_555 1_555
O25 Cu2 1_555 1_555
Sr1A_2 O21 1_555 1_555
O3A Sr1 1_555 1_555
O18B Cu2 1_555 1_555
O21A Sr1 1_555 1_555
Cu2B O18 1_555 1_555
C4 C7 1_555 1_555
C4 O13 1_555 1_555
C7 C14 1_555 1_555
C9 C11 1_555 1_555
C12 C13 1_555 1_555
C12 C15 1_555 1_555

#END
