
#######################################################################
#
#                 Cambridge Crystallographic Data Centre
#                                CCDC 
#
#######################################################################
#
# If this CIF has been generated from an entry in the Cambridge 
# Structural Database, then it will include bibliographic, chemical, 
# crystal, experimental, refinement or atomic coordinate data resulting 
# from the CCDC's data processing and validation procedures.
#
#######################################################################

data_MIZMAK
_symmetry_cell_setting           monoclinic
_symmetry_space_group_name_H-M   'P 21/c'
_symmetry_Int_Tables_number      14
_space_group_name_Hall           '-P 2ybc'
loop_
_symmetry_equiv_pos_site_id
_symmetry_equiv_pos_as_xyz
1 x,y,z
2 -x,1/2+y,1/2-z
3 -x,-y,-z
4 x,1/2-y,1/2+z
_cell_length_a                   8.3584(8)
_cell_length_b                   9.1892(9)
_cell_length_c                   17.7463(17)
_cell_angle_alpha                90
_cell_angle_beta                 97.063(2)
_cell_angle_gamma                90
_cell_volume                     1352.7
loop_
_atom_site_label
_atom_site_type_symbol
_atom_site_fract_x
_atom_site_fract_y
_atom_site_fract_z
Cu1 Cu 0.11249(4) 0.33000(4) 0.24045(2)
S1 S 0.31905(8) 0.46305(9) 0.40009(4)
S2 S 0.36585(10) 0.48583(10) 0.09970(5)
C1 C 0.0215(3) 0.5175(3) 0.24465(14)
C2 C 0.4442(3) 0.3809(3) 0.33981(14)
C3 C 0.6898(3) 0.3294(4) 0.30676(17)
H1 H 0.8014 0.3386 0.3142
C4 C 0.6214(3) 0.2493(4) 0.24691(16)
H2 H 0.6841 0.2022 0.2146
C5 C 0.4573(3) 0.2405(3) 0.23608(16)
H3 H 0.4080 0.1851 0.1959
C6 C 0.4633(3) 0.5515(3) 0.46988(15)
H4 H 0.5483 0.5940 0.4444
H5 H 0.4099 0.6297 0.4937
C7 C 0.2047(3) 0.3814(3) 0.05562(15)
C8 C 0.0449(4) 0.3087(4) -0.04850(17)
H6 H 0.0141 0.3122 -0.1006
C9 C -0.0367(4) 0.2180(4) -0.00536(17)
H7 H -0.1210 0.1598 -0.0271
C10 C 0.0112(4) 0.2169(4) 0.07124(17)
H8 H -0.0424 0.1563 0.1018
C11 C 0.4526(4) 0.5566(3) 0.01897(18)
H9 H 0.3670 0.5938 -0.0178
H10 H 0.5234 0.6372 0.0354
N1 N -0.0309(2) 0.6327(3) 0.24874(12)
N2 N 0.3649(2) 0.3089(2) 0.28131(12)
N3 N 0.6039(2) 0.3952(3) 0.35524(12)
N4 N 0.1323(3) 0.2998(3) 0.10385(13)
N5 N 0.1662(3) 0.3915(3) -0.01877(14)
Cu1A Cu -0.11249(4) -0.17000(4) 0.25955(2)
Cu1A_2 Cu -0.11249(4) 0.83000(4) 0.25955(2)
Cu1B Cu 0.88751(4) 0.67000(4) 0.75955(2)
Cu1B_2 Cu 0.88751(4) 0.67000(4) -0.24045(2)
S1B S 0.68095(8) 0.53695(9) 0.59991(4)
S2B S 0.63415(10) 0.51417(10) -0.09970(5)
C1A C -0.0215(3) 0.0175(3) 0.25535(14)
C2B C 0.5558(3) 0.6191(3) 0.66019(14)
C3B C 0.3102(3) 0.6706(4) 0.69324(17)
H1B H 0.1986 0.6614 0.6858
C4B C 0.3786(3) 0.7507(4) 0.75309(16)
H2B H 0.3159 0.7978 0.7854
C5B C 0.5427(3) 0.7595(3) 0.76392(16)
H3B H 0.5920 0.8149 0.8041
C6B C 0.5367(3) 0.4485(3) 0.53012(15)
H4B H 0.4517 0.4060 0.5556
H5B H 0.5901 0.3703 0.5063
C7B C 0.7953(3) 0.6186(3) -0.05562(15)
C8B C 0.9551(4) 0.6913(4) 0.04850(17)
H6B H 0.9859 0.6878 0.1006
C9B C 1.0367(4) 0.7820(4) 0.00536(17)
H7B H 1.1210 0.8402 0.0271
C10B C 0.9888(4) 0.7831(4) -0.07124(17)
H8B H 1.0424 0.8437 -0.1018
C11B C 0.5474(4) 0.4434(3) -0.01897(18)
H9B H 0.6330 0.4062 0.0178
H10B H 0.4766 0.3628 -0.0354
N1A N 0.0309(2) 0.1327(3) 0.25126(12)
N1_2 N -0.0309(2) -0.3673(3) 0.24874(12)
N2B N 0.6351(2) 0.6911(2) 0.71869(12)
N2A N -0.3649(2) -0.1911(2) 0.21869(12)
N3B N 0.3961(2) 0.6048(3) 0.64476(12)
N4B N 0.8677(3) 0.7002(3) -0.10385(13)
N4A N -0.1323(3) -0.2002(3) 0.39615(13)
N5B N 0.8338(3) 0.6085(3) 0.01877(14)
loop_
_geom_bond_atom_site_label_1
_geom_bond_atom_site_label_2
_geom_bond_site_symmetry_1
_geom_bond_site_symmetry_2
Cu1 C1 1_555 1_555
S1 C2 1_555 1_555
S2 C7 1_555 1_555
C1 N1 1_555 1_555
C2 N2 1_555 1_555
C3 H1 1_555 1_555
C4 C3 1_555 1_555
H2 C4 1_555 1_555
C5 C4 1_555 1_555
H3 C5 1_555 1_555
C6 S1 1_555 1_555
H4 C6 1_555 1_555
H5 C6 1_555 1_555
C7 N4 1_555 1_555
C8 H6 1_555 1_555
C9 C8 1_555 1_555
H7 C9 1_555 1_555
C10 C9 1_555 1_555
H8 C10 1_555 1_555
C11 S2 1_555 1_555
H9 C11 1_555 1_555
H10 C11 1_555 1_555
N1 Cu1A_2 1_555 1_555
N2 Cu1 1_555 1_555
N3 C2 1_555 1_555
N4 Cu1 1_555 1_555
N5 C7 1_555 1_555
Cu1A C1A 1_555 1_555
Cu1B N2B 1_555 1_555
Cu1B_2 N4B 1_555 1_555
S1B C2B 1_555 1_555
S2B C7B 1_555 1_555
C1A N1A 1_555 1_555
C2B N2B 1_555 1_555
C3B H1B 1_555 1_555
C4B C3B 1_555 1_555
H2B C4B 1_555 1_555
C5B C4B 1_555 1_555
H3B C5B 1_555 1_555
C6B C6 1_555 1_555
H4B C6B 1_555 1_555
H5B C6B 1_555 1_555
C7B N4B 1_555 1_555
C8B H6B 1_555 1_555
C9B C8B 1_555 1_555
H7B C9B 1_555 1_555
C10B C9B 1_555 1_555
H8B C10B 1_555 1_555
C11B C11 1_555 1_555
H9B C11B 1_555 1_555
H10B C11B 1_555 1_555
N1A Cu1 1_555 1_555
N1_2 Cu1A 1_555 1_555
N2B C5B 1_555 1_555
N2A Cu1A 1_555 1_555
N3B C2B 1_555 1_555
N4B C10B 1_555 1_555
N4A Cu1A 1_555 1_555
N5B C7B 1_555 1_555
C3 N3 1_555 1_555
C5 N2 1_555 1_555
C8 N5 1_555 1_555
C10 N4 1_555 1_555
S1B C6B 1_555 1_555
S2B C11B 1_555 1_555
C3B N3B 1_555 1_555
C8B N5B 1_555 1_555

#END
