
#######################################################################
#
#                 Cambridge Crystallographic Data Centre
#                                CCDC 
#
#######################################################################
#
# If this CIF has been generated from an entry in the Cambridge 
# Structural Database, then it will include bibliographic, chemical, 
# crystal, experimental, refinement or atomic coordinate data resulting 
# from the CCDC's data processing and validation procedures.
#
#######################################################################

data_MIZMEO
_symmetry_cell_setting           monoclinic
_symmetry_space_group_name_H-M   'P 21/n'
_symmetry_Int_Tables_number      14
_space_group_name_Hall           '-P 2yn'
loop_
_symmetry_equiv_pos_site_id
_symmetry_equiv_pos_as_xyz
1 x,y,z
2 1/2-x,1/2+y,1/2-z
3 -x,-y,-z
4 1/2+x,1/2-y,1/2+z
_cell_length_a                   11.5976(2)
_cell_length_b                   20.8919(2)
_cell_length_c                   12.35380(10)
_cell_angle_alpha                90
_cell_angle_beta                 107.6130(10)
_cell_angle_gamma                90
_cell_volume                     2852.96
loop_
_atom_site_label
_atom_site_type_symbol
_atom_site_fract_x
_atom_site_fract_y
_atom_site_fract_z
Cu1 Cu 0.66240(4) 0.01499(2) 0.13847(4)
Cu2 Cu 1.01547(4) -0.36446(2) 0.07371(4)
Ca1 Ca 0.53473(7) -0.32772(4) 0.55895(7)
S1 S 0.46516(8) -0.34404(4) 0.25415(8)
S2 S 0.45746(8) 0.38118(4) 0.15186(9)
C1 C 0.7045(3) -0.20276(18) 0.1458(3)
H1 H 0.7566 -0.1730 0.1258
C2 C 0.6063(3) -0.18016(18) 0.1767(3)
C3 C 0.5299(3) -0.22369(18) 0.2062(3)
H2 H 0.4619 -0.2089 0.2268
C4 C 0.5537(3) -0.28867(18) 0.2053(3)
C5 C 0.6517(3) -0.31166(18) 0.1727(3)
H3 H 0.6658 -0.3564 0.1707
C6 C 0.7285(3) -0.26813(18) 0.1432(3)
C7 C 0.5813(4) -0.10939(18) 0.1733(4)
C8 C 0.8382(3) -0.28810(18) 0.1114(3)
C9 C 0.6920(3) 0.23096(18) 0.0579(3)
H4 H 0.7440 0.1994 0.0428
C10 C 0.7178(3) 0.29520(18) 0.0485(3)
C11 C 0.6443(3) 0.34158(17) 0.0757(3)
H5 H 0.6621 0.3858 0.0717
C12 C 0.5455(3) 0.32267(18) 0.1085(3)
C13 C 0.5166(3) 0.25805(18) 0.1128(3)
H6 H 0.4462 0.2458 0.1318
C14 C 0.5913(3) 0.21183(18) 0.0890(3)
C15 C 0.8249(3) 0.31167(18) 0.0098(3)
C16 C 0.5683(4) 0.14138(18) 0.0997(3)
O1 O 0.3524(3) -0.31186(15) 0.2487(3)
O2 O 0.8656(3) 0.00975(16) 0.1707(3)
O3 O 0.6621(3) 0.03627(15) 0.2941(3)
O4 O 0.4495(3) -0.40091(14) 0.1840(3)
O5 O 0.6275(3) -0.00552(15) -0.0260(3)
O6 O 0.5352(3) -0.35840(16) 0.3711(3)
O7 O 1.1214(3) -0.34396(18) 0.2250(3)
O8 O 0.4912(3) 0.37577(15) 0.2753(3)
O9 O 0.9059(3) -0.3951(2) -0.0690(3)
O10 O 0.4898(3) 0.44336(14) 0.1171(3)
O11 O 1.0578(4) -0.48056(19) 0.1407(4)
O12 O 0.3319(3) 0.36301(15) 0.0979(3)
O13 O 0.6698(3) -0.07460(13) 0.1708(3)
O15 O 0.4796(3) -0.08940(15) 0.1700(3)
O17 O 0.8914(3) -0.24767(14) 0.0707(3)
O18 O 0.8740(2) -0.34654(12) 0.1285(2)
O19 O 0.8448(2) 0.36946(13) -0.0115(3)
O20 O 0.8922(3) 0.26750(14) -0.0026(3)
O21 O 0.6567(3) 0.10457(13) 0.1008(3)
O22 O 0.4688(3) 0.12239(13) 0.1067(2)
O23 O 0.3809(5) -0.4079(2) 0.5006(4)
O24 O 0.7008(4) -0.4057(2) 0.5808(4)
O25 O 0.7157(4) -0.30040(19) 0.7162(4)
H7 H 0.832(2) -0.392(3) -0.074(5)
H8 H 1.006(5) -0.485(3) 0.176(5)
H9 H 0.638(3) -0.429(2) 0.562(5)
H10 H 1.195(2) -0.341(3) 0.231(5)
H11 H 0.592(5) 0.022(2) -0.075(4)
H12 H 0.757(5) -0.2666(18) 0.722(5)
H13 H 0.666(6) 0.0751(12) 0.313(5)
H14 H 0.704(5) 0.016(3) 0.352(4)
H15 H 0.358(8) -0.431(4) 0.547(6)
H16 H 0.903(5) 0.0444(18) 0.178(6)
H17 H 0.602(5) -0.0426(15) -0.046(5)
H18 H 0.893(6) -0.010(3) 0.232(3)
H19 H 1.101(6) -0.355(3) 0.283(3)
H20 H 0.346(6) -0.427(3) 0.439(3)
H21 H 0.717(8) -0.316(4) 0.781(4)
H22 H 1.128(4) -0.477(4) 0.188(6)
H23 H 0.916(9) -0.432(2) -0.092(8)
H24 H 0.737(12) -0.415(7) 0.532(9)
Cu2B Cu 0.98453(4) 0.36446(2) -0.07371(4)
Ca1B Ca 0.46527(7) 0.32772(4) 0.44105(7)
Ca1C Ca 1.03473(7) -0.17228(4) 0.05895(7)
Ca1A Ca 0.96527(7) 0.17228(4) -0.05895(7)
O8B O 0.5088(3) -0.37577(15) 0.7247(3)
O17C O 0.3914(3) -0.25233(14) 0.5707(3)
O19B O 1.1552(2) -0.36946(13) 0.0115(3)
O20B O 1.1078(3) -0.26750(14) 0.0026(3)
O20A O 0.6078(3) -0.23250(14) 0.5026(3)
O14 O 0.7655(3) -0.01048(17) 0.4963(3)
H25 H 0.839(2) 0.000(3) 0.524(5)
H27 H 0.756(6) -0.0478(15) 0.519(5)
O16 O 1.2993(4) -0.4787(2) 0.2874(4)
H26 H 1.342(5) -0.471(3) 0.245(5)
H28 H 1.333(7) -0.512(2) 0.319(6)
loop_
_geom_bond_atom_site_label_1
_geom_bond_atom_site_label_2
_geom_bond_site_symmetry_1
_geom_bond_site_symmetry_2
Cu1 O2 1_555 1_555
Cu2 O7 1_555 1_555
Ca1 O6 1_555 1_555
S1 C4 1_555 1_555
S2 C12 1_555 1_555
C1 H1 1_555 1_555
C2 C1 1_555 1_555
C3 C2 1_555 1_555
H2 C3 1_555 1_555
C4 C3 1_555 1_555
C5 C4 1_555 1_555
H3 C5 1_555 1_555
C6 C1 1_555 1_555
C7 C2 1_555 1_555
C8 C6 1_555 1_555
C9 H4 1_555 1_555
C10 C9 1_555 1_555
C11 C10 1_555 1_555
H5 C11 1_555 1_555
C12 C11 1_555 1_555
C13 C12 1_555 1_555
H6 C13 1_555 1_555
C14 C9 1_555 1_555
C15 C10 1_555 1_555
C16 C14 1_555 1_555
O1 S1 1_555 1_555
O2 H16 1_555 1_555
O3 Cu1 1_555 1_555
O4 S1 1_555 1_555
O5 Cu1 1_555 1_555
O6 S1 1_555 1_555
O7 H10 1_555 1_555
O8 S2 1_555 1_555
O9 Cu2 1_555 1_555
O10 S2 1_555 1_555
O11 Cu2 1_555 1_555
O12 S2 1_555 1_555
O13 Cu1 1_555 1_555
O14 H25 1_555 1_555
O15 C7 1_555 1_555
O16 H26 1_555 1_555
O17 C8 1_555 1_555
O18 Cu2 1_555 1_555
O19 C15 1_555 1_555
O20 C15 1_555 1_555
O21 Cu1 1_555 1_555
O22 C16 1_555 1_555
O23 Ca1 1_555 1_555
O24 Ca1 1_555 1_555
O25 Ca1 1_555 1_555
H7 O9 1_555 1_555
H8 O11 1_555 1_555
H9 O24 1_555 1_555
H11 O5 1_555 1_555
H12 O25 1_555 1_555
H13 O3 1_555 1_555
H14 O3 1_555 1_555
H15 O23 1_555 1_555
H17 O5 1_555 1_555
H18 O2 1_555 1_555
H19 O7 1_555 1_555
H20 O23 1_555 1_555
H21 O25 1_555 1_555
H22 O11 1_555 1_555
H23 O9 1_555 1_555
H24 O24 1_555 1_555
H27 O14 1_555 1_555
H28 O16 1_555 1_555
Cu2B O19 1_555 1_555
Ca1B O8 1_555 1_555
Ca1C O17 1_555 1_555
Ca1A O20 1_555 1_555
O8B Ca1 1_555 1_555
O17C Ca1 1_555 1_555
O19B Cu2 1_555 1_555
O20B Cu2 1_555 1_555
O20A Ca1 1_555 1_555
C5 C6 1_555 1_555
C7 O13 1_555 1_555
C8 O18 1_555 1_555
C13 C14 1_555 1_555
C16 O21 1_555 1_555
O20 Cu2B 1_555 1_555
Ca1C O20B 1_555 1_555

#END
