
#######################################################################
#
#                 Cambridge Crystallographic Data Centre
#                                CCDC 
#
#######################################################################
#
# If this CIF has been generated from an entry in the Cambridge 
# Structural Database, then it will include bibliographic, chemical, 
# crystal, experimental, refinement or atomic coordinate data resulting 
# from the CCDC's data processing and validation procedures.
#
#######################################################################

data_MIZPAM
_symmetry_cell_setting           monoclinic
_symmetry_space_group_name_H-M   'C 2/m'
_symmetry_Int_Tables_number      12
_space_group_name_Hall           '-C 2y'
loop_
_symmetry_equiv_pos_site_id
_symmetry_equiv_pos_as_xyz
1 x,y,z
2 -x,y,-z
3 1/2+x,1/2+y,z
4 1/2-x,1/2+y,-z
5 -x,-y,-z
6 x,-y,z
7 1/2-x,1/2-y,-z
8 1/2+x,1/2-y,z
_cell_length_a                   8.8791(14)
_cell_length_b                   13.3638(19)
_cell_length_c                   7.6711(11)
_cell_angle_alpha                90
_cell_angle_beta                 116.164(2)
_cell_angle_gamma                90
_cell_volume                     816.974
loop_
_atom_site_label
_atom_site_type_symbol
_atom_site_fract_x
_atom_site_fract_y
_atom_site_fract_z
Cd1 Cd 0.0000 0.0000 0.0000
N1 N -0.2907(9) 0.0000 -0.1460(10)
C1 C -0.0012(8) 0.1550(5) -0.3533(8)
N2 N 0.0000 0.2006(7) -0.5000
N3 N -0.0002(7) 0.1237(5) -0.2156(7)
C2 C -0.6354(13) 0.0000 -0.3072(16)
H1 H -0.7520 0.0000 -0.3618
C3 C -0.5493(10) -0.0860(7) -0.2670(15)
H2 H -0.6054 -0.1470 -0.2928
C4 C -0.3765(10) -0.0831(7) -0.1868(14)
H3 H -0.3183 -0.1433 -0.1605
C3E C -0.5493(10) 0.0860(7) -0.2670(15)
H2E H -0.6054 0.1470 -0.2928
C4E C -0.3765(10) 0.0831(7) -0.1868(14)
H3E H -0.3183 0.1433 -0.1605
C1A C 0.0012(8) 0.1550(5) -0.6467(8)
N3A N 0.0002(7) 0.1237(5) -0.7844(7)
N1A N 0.2907(9) 0.0000 0.1460(10)
C2A C 0.6354(13) 0.0000 0.3072(16)
H1A H 0.7520 0.0000 0.3618
C3A C 0.5493(10) -0.0860(7) 0.2670(15)
H2A H 0.6054 -0.1470 0.2928
C4A C 0.3765(10) -0.0831(7) 0.1868(14)
H3A H 0.3183 -0.1433 0.1605
C3D C 0.5493(10) 0.0860(7) 0.2670(15)
H2D H 0.6054 0.1470 0.2928
C4D C 0.3765(10) 0.0831(7) 0.1868(14)
H3D H 0.3183 0.1433 0.1605
C1A_2 C 0.0012(8) 0.1550(5) 0.3533(8)
N2A N 0.0000 0.2006(7) 0.5000
N3A_2 N 0.0002(7) 0.1237(5) 0.2156(7)
C1_2 C -0.0012(8) 0.1550(5) 0.6467(8)
N3_2 N -0.0002(7) 0.1237(5) 0.7844(7)
N3D N 0.0002(7) -0.1237(5) 0.2156(7)
N3E N -0.0002(7) -0.1237(5) -0.2156(7)
Cd1_2 Cd 0.0000 0.0000 -1.0000
Cd1_3 Cd 0.0000 0.0000 1.0000
loop_
_geom_bond_atom_site_label_1
_geom_bond_atom_site_label_2
_geom_bond_site_symmetry_1
_geom_bond_site_symmetry_2
Cd1 N1 1_555 1_555
N1 C4 1_555 1_555
C1 N2 1_555 1_555
N2 C1A 1_555 1_555
N3 Cd1 1_555 1_555
C2 H1 1_555 1_555
C3 C2 1_555 1_555
H2 C3 1_555 1_555
C4 C3 1_555 1_555
H3 C4 1_555 1_555
C3E C2 1_555 1_555
H2E C3E 1_555 1_555
C4E N1 1_555 1_555
H3E C4E 1_555 1_555
C1A N3A 1_555 1_555
N3A Cd1_2 1_555 1_555
N1A Cd1 1_555 1_555
C2A H1A 1_555 1_555
C3A C2A 1_555 1_555
H2A C3A 1_555 1_555
C4A N1A 1_555 1_555
H3A C4A 1_555 1_555
C3D C2A 1_555 1_555
H2D C3D 1_555 1_555
C4D N1A 1_555 1_555
H3D C4D 1_555 1_555
C1A_2 N2A 1_555 1_555
N2A C1_2 1_555 1_555
N3A_2 Cd1 1_555 1_555
C1_2 N3_2 1_555 1_555
N3_2 Cd1_3 1_555 1_555
N3D Cd1 1_555 1_555
N3E Cd1 1_555 1_555
C1 N3 1_555 1_555
C3E C4E 1_555 1_555
C3A C4A 1_555 1_555
C3D C4D 1_555 1_555
C1A_2 N3A_2 1_555 1_555

#END
