
#######################################################################
#
#                 Cambridge Crystallographic Data Centre
#                                CCDC 
#
#######################################################################
#
# If this CIF has been generated from an entry in the Cambridge 
# Structural Database, then it will include bibliographic, chemical, 
# crystal, experimental, refinement or atomic coordinate data resulting 
# from the CCDC's data processing and validation procedures.
#
#######################################################################

data_MIZQIV
_symmetry_cell_setting           monoclinic
_symmetry_space_group_name_H-M   'P 2/n'
_symmetry_Int_Tables_number      13
_space_group_name_Hall           '-P 2yac'
loop_
_symmetry_equiv_pos_site_id
_symmetry_equiv_pos_as_xyz
1 x,y,z
2 1/2-x,y,1/2-z
3 -x,-y,-z
4 1/2+x,-y,1/2+z
_cell_length_a                   7.816(1)
_cell_length_b                   6.1183(6)
_cell_length_c                   9.4646(9)
_cell_angle_alpha                90
_cell_angle_beta                 90.50(1)
_cell_angle_gamma                90
_cell_volume                     452.586
loop_
_atom_site_label
_atom_site_type_symbol
_atom_site_fract_x
_atom_site_fract_y
_atom_site_fract_z
Gd1 Gd 0.2500 0.39655(2) 0.7500
O1 O 0.4956(3) 0.2746(4) 0.6151(2)
O2 O 0.6646(3) 0.3400(4) 0.4307(2)
O3 O 0.4972(4) 0.6112(4) 0.8302(3)
O4 O 0.6326(3) 0.7275(4) 1.0237(3)
O5 O 0.2500 0.0077(6) 0.7500
C1 C 0.5456(4) 0.3883(4) 0.5130(3)
C2 C 0.5366(4) 0.5969(4) 0.9579(4)
H3 H 0.2350 -0.0618 0.8390
C1B C 0.4544(4) 0.6117(4) 0.4870(3)
O1B O 0.5044(3) 0.7254(4) 0.3849(2)
O2B O 0.3354(3) 0.6600(4) 0.5693(2)
C2B C 0.4634(4) 0.4031(4) 1.0421(4)
O3B O 0.5028(4) 0.3888(4) 1.1698(3)
O4B O 0.3674(3) 0.2725(4) 0.9763(3)
H3A H 0.2650 -0.0618 0.6610
O1A O 0.0044(3) 0.2746(4) 0.8849(2)
O2C O 0.1646(3) 0.6600(4) 0.9307(2)
O3A O 0.0028(4) 0.6112(4) 0.6698(3)
O4C O 0.1326(3) 0.2725(4) 0.5237(3)
Gd1B Gd 0.7500 0.60345(2) 0.2500
Gd1B_2 Gd 0.7500 0.60345(2) 1.2500
N1 N 0.2500 0.02259(2) 0.2500
H1 H 0.1934 0.1061 0.3242
H2 H 0.3260 -0.0586 0.3065
H1A H 0.3066 0.1061 0.1758
H2A H 0.1740 -0.0586 0.1935
loop_
_geom_bond_atom_site_label_1
_geom_bond_atom_site_label_2
_geom_bond_site_symmetry_1
_geom_bond_site_symmetry_2
Gd1 O1 1_555 1_555
O1 C1 1_555 1_555
O2 C1 1_555 1_555
O3 Gd1 1_555 1_555
O4 C2 1_555 1_555
O5 Gd1 1_555 1_555
C1 C1B 1_555 1_555
C2 O3 1_555 1_555
N1 H1 1_555 1_555
H2 N1 1_555 1_555
H3 O5 1_555 1_555
C1B O1B 1_555 1_555
O1B Gd1B 1_555 1_555
O2B Gd1 1_555 1_555
C2B C2 1_555 1_555
O3B C2B 1_555 1_555
O4B Gd1 1_555 1_555
H3A O5 1_555 1_555
H1A N1 1_555 1_555
H2A N1 1_555 1_555
O1A Gd1 1_555 1_555
O2C Gd1 1_555 1_555
O3A Gd1 1_555 1_555
O4C Gd1 1_555 1_555
Gd1B O2 1_555 1_555
Gd1B_2 O4 1_555 1_555
C1B O2B 1_555 1_555
C2B O4B 1_555 1_555
O3B Gd1B_2 1_555 1_555

#END
