
#######################################################################
#
#                 Cambridge Crystallographic Data Centre
#                                CCDC 
#
#######################################################################
#
# If this CIF has been generated from an entry in the Cambridge 
# Structural Database, then it will include bibliographic, chemical, 
# crystal, experimental, refinement or atomic coordinate data resulting 
# from the CCDC's data processing and validation procedures.
#
#######################################################################

data_MIZQOC
_symmetry_cell_setting           monoclinic
_symmetry_space_group_name_H-M   'P 21/n'
_symmetry_Int_Tables_number      14
_space_group_name_Hall           '-P 2yn'
loop_
_symmetry_equiv_pos_site_id
_symmetry_equiv_pos_as_xyz
1 x,y,z
2 1/2-x,1/2+y,1/2-z
3 -x,-y,-z
4 1/2+x,1/2-y,1/2+z
_cell_length_a                   12.8185(2)
_cell_length_b                   19.3178(3)
_cell_length_c                   13.3728(3)
_cell_angle_alpha                90
_cell_angle_beta                 103.868(2)
_cell_angle_gamma                90
_cell_volume                     3214.92
loop_
_atom_site_label
_atom_site_type_symbol
_atom_site_fract_x
_atom_site_fract_y
_atom_site_fract_z
Bi1 Bi 0.08481(2) 0.221449(13) 0.312655(19)
Bi2 Bi -0.17152(2) 0.265720(14) 0.072230(19)
F1 F 0.2365(4) 0.2693(3) 0.1488(4)
F2 F 0.2130(4) 0.2728(2) -0.0164(4)
F3 F 0.1286(3) 0.3436(2) 0.0590(3)
F4 F 0.0103(4) 0.3359(3) -0.1452(3)
F5 F 0.0261(3) 0.1083(2) 0.0400(3)
F6 F 0.1671(4) 0.1374(3) -0.0094(4)
C1 C 0.0685(6) 0.2279(4) 0.0471(6)
H1 H 0.0207 0.2347 -0.0232
F7 F 0.1683(4) 0.1383(3) 0.1517(4)
O1 O 0.0090(4) 0.2422(3) 0.1195(3)
F8 F -0.1182(4) 0.3974(3) -0.2363(3)
O2 O -0.1546(4) 0.3225(3) -0.0576(4)
C2 C -0.1080(6) 0.3883(4) -0.0557(5)
H2 H -0.0543 0.3947 0.0116
C3 C 0.1634(6) 0.2780(4) 0.0598(6)
F9 F 0.0164(4) 0.4471(3) -0.1316(4)
C4 C 0.1077(6) 0.1520(4) 0.0561(6)
C5 C -0.0497(6) 0.3927(4) -0.1442(6)
F10 F 0.0848(4) 0.3968(3) 0.2454(3)
F11 F -0.2292(4) 0.4485(3) 0.0189(4)
F12 F -0.2801(4) 0.4305(3) -0.1432(4)
O3 O 0.1269(4) 0.2155(3) 0.4888(4)
F13 F -0.1580(4) 0.5063(3) -0.0847(4)
O4 O -0.0339(4) 0.2956(3) 0.3182(4)
C6 C -0.1471(6) 0.1626(4) 0.3143(5)
H3 H -0.1588 0.2082 0.3359
C7 C -0.2267(6) 0.1124(4) 0.3055(6)
H4 H -0.2928 0.1241 0.3215
C8 C -0.0336(6) 0.0784(4) 0.2587(5)
H5 H 0.0324 0.0664 0.2429
C9 C -0.0492(5) 0.1450(4) 0.2911(5)
C10 C 0.0015(6) 0.4150(4) 0.2838(6)
C11 C 0.0492(6) 0.2026(4) 0.5451(5)
H6 H -0.0234 0.2098 0.4980
C12 C -0.0130(6) 0.3610(4) 0.3627(6)
H7 H 0.0543 0.3588 0.4189
C13 C -0.1944(7) 0.4447(4) -0.0672(6)
F14 F 0.1546(4) 0.1130(3) 0.6407(3)
F15 F 0.0768(4) 0.3176(3) 0.6060(4)
F16 F -0.0840(4) 0.4178(3) 0.2036(3)
F17 F -0.1225(4) 0.3282(3) 0.4735(4)
F18 F 0.0382(4) 0.0836(3) 0.5044(4)
F19 F 0.1456(4) 0.2386(3) 0.7126(4)
F20 F -0.0144(4) 0.1149(3) 0.6385(4)
F21 F -0.1980(4) 0.3881(3) 0.3416(4)
F22 F -0.0255(4) 0.2531(3) 0.6720(4)
F23 F -0.0893(5) 0.4365(3) 0.4662(5)
C14 C -0.2110(6) 0.0459(4) 0.2738(6)
H8 H -0.2658 0.0121 0.2688
C15 C 0.0563(6) 0.1275(4) 0.5818(6)
C16 C 0.0612(6) 0.2531(5) 0.6350(6)
C17 C -0.1153(6) 0.0289(4) 0.2494(6)
H9 H -0.1048 -0.0165 0.2263
C18 C -0.1073(7) 0.3790(4) 0.4100(6)
C19 C -0.1935(5) 0.1734(4) -0.0274(5)
C20 C -0.2222(5) 0.1115(4) 0.0138(6)
H10 H -0.2410 0.1121 0.0784
C21 C -0.1673(5) 0.1720(4) -0.1239(5)
H11 H -0.1489 0.2135 -0.1536
C22 C -0.2236(6) 0.0490(4) -0.0393(6)
H12 H -0.2439 0.0073 -0.0114
C23 C -0.1951(6) 0.0483(4) -0.1323(6)
H13 H -0.1935 0.0057 -0.1674
C24 C -0.1688(6) 0.1094(4) -0.1750(6)
H14 H -0.1516 0.1083 -0.2402
F24 F 0.0195(4) 0.4775(2) 0.3231(4)
Bi2C Bi 0.32848(2) 0.234280(14) 0.572230(19)
O3C O -0.3731(4) 0.2845(3) -0.0112(4)
loop_
_geom_bond_atom_site_label_1
_geom_bond_atom_site_label_2
_geom_bond_site_symmetry_1
_geom_bond_site_symmetry_2
Bi1 O1 1_555 1_555
Bi2 O1 1_555 1_555
F1 C3 1_555 1_555
F2 C3 1_555 1_555
F3 C3 1_555 1_555
F4 C5 1_555 1_555
F5 C4 1_555 1_555
F6 C4 1_555 1_555
C1 H1 1_555 1_555
F7 C4 1_555 1_555
O1 C1 1_555 1_555
F8 C5 1_555 1_555
O2 Bi2 1_555 1_555
C2 O2 1_555 1_555
H2 C2 1_555 1_555
C3 C1 1_555 1_555
F9 C5 1_555 1_555
C4 C1 1_555 1_555
C5 C2 1_555 1_555
F10 C10 1_555 1_555
F11 C13 1_555 1_555
F12 C13 1_555 1_555
O3 Bi1 1_555 1_555
F13 C13 1_555 1_555
O4 Bi1 1_555 1_555
C6 H3 1_555 1_555
C7 C6 1_555 1_555
H4 C7 1_555 1_555
C8 H5 1_555 1_555
C9 Bi1 1_555 1_555
C10 C12 1_555 1_555
C11 O3 1_555 1_555
H6 C11 1_555 1_555
C12 O4 1_555 1_555
H7 C12 1_555 1_555
C13 C2 1_555 1_555
F14 C15 1_555 1_555
F15 C16 1_555 1_555
F16 C10 1_555 1_555
F17 C18 1_555 1_555
F18 C15 1_555 1_555
F19 C16 1_555 1_555
F20 C15 1_555 1_555
F21 C18 1_555 1_555
F22 C16 1_555 1_555
F23 C18 1_555 1_555
C14 C7 1_555 1_555
H8 C14 1_555 1_555
C15 C11 1_555 1_555
C16 C11 1_555 1_555
C17 C8 1_555 1_555
H9 C17 1_555 1_555
C18 C12 1_555 1_555
C19 Bi2 1_555 1_555
C20 C19 1_555 1_555
H10 C20 1_555 1_555
C21 C19 1_555 1_555
H11 C21 1_555 1_555
C22 C20 1_555 1_555
H12 C22 1_555 1_555
C23 C22 1_555 1_555
H13 C23 1_555 1_555
C24 C21 1_555 1_555
H14 C24 1_555 1_555
F24 C10 1_555 1_555
Bi2C O3 1_555 1_555
O3C Bi2 1_555 1_555
C6 C9 1_555 1_555
C8 C9 1_555 1_555
C14 C17 1_555 1_555
C23 C24 1_555 1_555

#END
