
#######################################################################
#
#                 Cambridge Crystallographic Data Centre
#                                CCDC 
#
#######################################################################
#
# If this CIF has been generated from an entry in the Cambridge 
# Structural Database, then it will include bibliographic, chemical, 
# crystal, experimental, refinement or atomic coordinate data resulting 
# from the CCDC's data processing and validation procedures.
#
#######################################################################

data_MIZXUO
_symmetry_cell_setting           rhombohedral
_symmetry_space_group_name_H-M   'R -3'
_symmetry_Int_Tables_number      148
_space_group_name_Hall           '-R 3'
loop_
_symmetry_equiv_pos_site_id
_symmetry_equiv_pos_as_xyz
1 x,y,z
2 -y,x-y,z
3 -x+y,-x,z
4 2/3+x,1/3+y,1/3+z
5 2/3-y,1/3+x-y,1/3+z
6 2/3-x+y,1/3-x,1/3+z
7 1/3+x,2/3+y,2/3+z
8 2/3+y,1/3-x+y,1/3-z
9 2/3+x-y,1/3+x,1/3-z
10 -x,-y,-z
11 y,-x+y,-z
12 x-y,x,-z
13 1/3-x,2/3-y,2/3-z
14 1/3+y,2/3-x+y,2/3-z
15 1/3+x-y,2/3+x,2/3-z
16 2/3-x,1/3-y,1/3-z
17 1/3-y,2/3+x-y,2/3+z
18 1/3-x+y,2/3-x,2/3+z
_cell_length_a                   14.113(3)
_cell_length_b                   14.113(3)
_cell_length_c                   18.091(4)
_cell_angle_alpha                90
_cell_angle_beta                 90
_cell_angle_gamma                120.00
_cell_volume                     3120.56
loop_
_atom_site_label
_atom_site_type_symbol
_atom_site_fract_x
_atom_site_fract_y
_atom_site_fract_z
Y1 Y 0.0000 0.0000 0.24591(8)
O1 O -0.1238(4) -0.1202(4) 0.3358(3)
O2 O -0.1775(4) -0.0077(4) 0.2504(3)
C1 C -0.2242(6) -0.1489(6) 0.3367(4)
C2 C -0.2554(6) -0.0803(6) 0.2879(4)
C3 C -0.3038(5) -0.2324(6) 0.3788(4)
H1 H -0.2855 -0.2755 0.4076
O3 O -0.1243(5) -0.1267(5) 0.1588(3)
H2 H -0.140(8) -0.193(4) 0.141(5)
H3 H -0.166(6) -0.102(7) 0.137(5)
C3L C -0.3629(5) -0.1009(6) 0.2879(4)
C1L C -0.4425(6) -0.1844(6) 0.3300(4)
O1L O -0.5429(4) -0.2131(4) 0.3309(3)
C2L C -0.4113(6) -0.2530(6) 0.3788(4)
O2L O -0.4892(4) -0.3256(4) 0.4163(3)
H1L H -0.3812 -0.0578 0.2591
O1A O 0.1202(4) -0.0036(6) 0.3358(3)
O2A O 0.0077(4) -0.1698(6) 0.2504(3)
C1A C 0.1489(6) -0.0753(8) 0.3367(4)
C2A C 0.0803(6) -0.1751(8) 0.2879(4)
C3A C 0.2324(6) -0.0714(8) 0.3788(4)
H1A H 0.2755 -0.0100 0.4076
C3M C 0.1009(6) -0.2619(8) 0.2879(4)
C1M C 0.1844(6) -0.2580(8) 0.3300(4)
O1M O 0.2131(4) -0.3297(6) 0.3309(3)
C2M C 0.2530(6) -0.1582(8) 0.3788(4)
O2M O 0.3256(4) -0.1635(6) 0.4163(3)
H1M H 0.0578 -0.3233 0.2591
O1B O 0.0036(6) 0.1238(4) 0.3358(3)
O2B O 0.1698(6) 0.1775(4) 0.2504(3)
O3A O 0.1267(5) 0.0024(7) 0.1588(3)
H2A H 0.193(4) 0.053(9) 0.141(5)
H3A H 0.102(7) -0.064(9) 0.137(5)
O3B O -0.0024(7) 0.1243(5) 0.1588(3)
H2B H -0.053(9) 0.140(8) 0.141(5)
H3B H 0.064(9) 0.166(6) 0.137(5)
Y1L Y -0.6667 -0.3333 0.42076(8)
O3L O -0.5424(5) -0.2066(5) 0.5079(3)
H2L H -0.527(8) -0.140(4) 0.526(5)
H3L H -0.501(6) -0.231(7) 0.530(5)
O3M O -0.7934(5) -0.3357(7) 0.5079(3)
H2M H -0.860(4) -0.386(9) 0.526(5)
H3M H -0.769(7) -0.269(9) 0.530(5)
O3N O -0.6643(7) -0.4576(5) 0.5079(3)
H2N H -0.614(9) -0.473(8) 0.526(5)
H3N H -0.731(9) -0.499(6) 0.530(5)
Y1L_2 Y 0.3333 -0.3333 0.42076(8)
O1M_2 O -0.7869(4) -0.3297(6) 0.3309(3)
O1N O -0.6703(6) -0.4571(4) 0.3309(3)
O2M_2 O -0.6744(4) -0.1635(6) 0.4163(3)
O2N O -0.8365(6) -0.5108(4) 0.4163(3)
C1M_2 C -0.8156(6) -0.2580(8) 0.3300(4)
C2M_2 C -0.7470(6) -0.1582(8) 0.3788(4)
C3M_2 C -0.8991(6) -0.2619(8) 0.2879(4)
C3A_2 C -0.7676(6) -0.0714(8) 0.3788(4)
C2A_2 C -0.9197(6) -0.1751(8) 0.2879(4)
H1M_2 H -0.9422 -0.3233 0.2591
C1A_2 C -0.8511(6) -0.0753(8) 0.3367(4)
H1A_2 H -0.7245 -0.0100 0.4076
O2A_2 O -0.9923(4) -0.1698(6) 0.2504(3)
O1A_2 O -0.8798(4) -0.0036(6) 0.3358(3)
Y1_2 Y -1.0000 0.0000 0.24591(8)
O4 O -0.1393(5) -0.2927(5) 0.0695(4)
H4 H -0.143(8) -0.284(8) 0.020(2)
H5 H -0.189(6) -0.359(5) 0.087(5)
O5 O -0.4779(5) -0.2033(5) 0.1245(3)
H6 H -0.513(10) -0.225(12) 0.081(4)
H7 H -0.498(11) -0.264(8) 0.151(7)
O6 O -0.2670(5) -0.0862(5) 0.0777(4)
H8 H -0.333(5) -0.124(7) 0.100(5)
H9 H -0.230(7) -0.014(3) 0.069(5)
loop_
_geom_bond_atom_site_label_1
_geom_bond_atom_site_label_2
_geom_bond_site_symmetry_1
_geom_bond_site_symmetry_2
Y1 O1 1_555 1_555
O1 C1 1_555 1_555
O2 Y1 1_555 1_555
C1 C2 1_555 1_555
C2 O2 1_555 1_555
C3 C1 1_555 1_555
H1 C3 1_555 1_555
O3 Y1 1_555 1_555
H2 O3 1_555 1_555
H3 O3 1_555 1_555
O4 H4 1_555 1_555
H5 O4 1_555 1_555
O5 H6 1_555 1_555
H7 O5 1_555 1_555
O6 H8 1_555 1_555
H9 O6 1_555 1_555
C3L C2 1_555 1_555
C1L C3L 1_555 1_555
O1L C1L 1_555 1_555
C2L C3 1_555 1_555
O2L C2L 1_555 1_555
H1L C3L 1_555 1_555
O1A Y1 1_555 1_555
O2A Y1 1_555 1_555
C1A O1A 1_555 1_555
C2A O2A 1_555 1_555
C3A C1A 1_555 1_555
H1A C3A 1_555 1_555
C3M C2A 1_555 1_555
C1M C3M 1_555 1_555
O1M C1M 1_555 1_555
C2M C3A 1_555 1_555
O2M C2M 1_555 1_555
H1M C3M 1_555 1_555
O1B Y1 1_555 1_555
O2B Y1 1_555 1_555
O3A Y1 1_555 1_555
H2A O3A 1_555 1_555
H3A O3A 1_555 1_555
O3B Y1 1_555 1_555
H2B O3B 1_555 1_555
H3B O3B 1_555 1_555
Y1L O1L 1_555 1_555
O3L Y1L 1_555 1_555
H2L O3L 1_555 1_555
H3L O3L 1_555 1_555
O3M Y1L 1_555 1_555
H2M O3M 1_555 1_555
H3M O3M 1_555 1_555
O3N Y1L 1_555 1_555
H2N O3N 1_555 1_555
H3N O3N 1_555 1_555
Y1L_2 O1M 1_555 1_555
O1M_2 Y1L 1_555 1_555
O1N Y1L 1_555 1_555
O2M_2 Y1L 1_555 1_555
O2N Y1L 1_555 1_555
C1M_2 O1M_2 1_555 1_555
C2M_2 O2M_2 1_555 1_555
C3M_2 C1M_2 1_555 1_555
C3A_2 C2M_2 1_555 1_555
C2A_2 C3M_2 1_555 1_555
H1M_2 C3M_2 1_555 1_555
C1A_2 C3A_2 1_555 1_555
H1A_2 C3A_2 1_555 1_555
O2A_2 C2A_2 1_555 1_555
O1A_2 C1A_2 1_555 1_555
Y1_2 O2A_2 1_555 1_555
C1L C2L 1_555 1_555
O2L Y1L 1_555 1_555
C1A C2A 1_555 1_555
C1M C2M 1_555 1_555
O2M Y1L_2 1_555 1_555
C1M_2 C2M_2 1_555 1_555
C2A_2 C1A_2 1_555 1_555
O1A_2 Y1_2 1_555 1_555

#END
