
#######################################################################
#
#                 Cambridge Crystallographic Data Centre
#                                CCDC 
#
#######################################################################
#
# If this CIF has been generated from an entry in the Cambridge 
# Structural Database, then it will include bibliographic, chemical, 
# crystal, experimental, refinement or atomic coordinate data resulting 
# from the CCDC's data processing and validation procedures.
#
#######################################################################

data_MIZXEY
_symmetry_cell_setting           rhombohedral
_symmetry_space_group_name_H-M   'R -3'
_symmetry_Int_Tables_number      148
_space_group_name_Hall           '-R 3'
loop_
_symmetry_equiv_pos_site_id
_symmetry_equiv_pos_as_xyz
1 x,y,z
2 -y,x-y,z
3 -x+y,-x,z
4 2/3+x,1/3+y,1/3+z
5 2/3-y,1/3+x-y,1/3+z
6 2/3-x+y,1/3-x,1/3+z
7 1/3+x,2/3+y,2/3+z
8 2/3+y,1/3-x+y,1/3-z
9 2/3+x-y,1/3+x,1/3-z
10 -x,-y,-z
11 y,-x+y,-z
12 x-y,x,-z
13 1/3-x,2/3-y,2/3-z
14 1/3+y,2/3-x+y,2/3-z
15 1/3+x-y,2/3+x,2/3-z
16 2/3-x,1/3-y,1/3-z
17 1/3-y,2/3+x-y,2/3+z
18 1/3-x+y,2/3-x,2/3+z
_cell_length_a                   14.202(2)
_cell_length_b                   14.202(2)
_cell_length_c                   18.106(2)
_cell_angle_alpha                90
_cell_angle_beta                 90
_cell_angle_gamma                120.00
_cell_volume                     3162.66
loop_
_atom_site_label
_atom_site_type_symbol
_atom_site_fract_x
_atom_site_fract_y
_atom_site_fract_z
Gd1 Gd 0.6667 0.3333 0.07822(2)
O1 O 0.8378(2) 0.3254(2) 0.08387(16)
O2 O 0.6716(2) 0.2129(3) 0.16983(17)
O3 O 0.5403(3) 0.3353(3) -0.0102(2)
H1 H 0.500(3) 0.279(2) -0.029(2)
H2 H 0.538(4) 0.385(3) -0.029(2)
C1 C 0.7430(4) 0.1843(3) 0.1705(2)
C2 C 0.9285(4) 0.2328(4) 0.1206(3)
H3 H 0.9896 0.2758 0.0920
C3 C 0.8418(4) 0.2527(3) 0.1213(2)
C2O C 0.7382(4) 0.1005(4) 0.2127(3)
H3O H 0.6771 0.0575 0.2413
C3O C 0.8249(4) 0.0806(3) 0.2120(2)
O1O O 0.8289(2) 0.0079(2) 0.24946(16)
C1O C 0.9237(4) 0.1490(3) 0.1628(2)
O2O O 0.9951(2) 0.1204(3) 0.16350(17)
O1A O 0.6746(2) 0.5124(3) 0.08387(16)
O2A O 0.7871(3) 0.4587(4) 0.16983(17)
C1A C 0.8157(3) 0.5587(5) 0.1705(2)
C2A C 0.7672(4) 0.6957(6) 0.1206(3)
H3A H 0.7242 0.7138 0.0920
C3A C 0.7473(3) 0.5891(5) 0.1213(2)
C2G C 0.8995(4) 0.6376(6) 0.2127(3)
H3G H 0.9425 0.6195 0.2413
C3G C 0.9194(3) 0.7442(5) 0.2120(2)
O1G O 0.9921(2) 0.8209(3) 0.24946(16)
C1G C 0.8510(3) 0.7746(5) 0.1628(2)
O2G O 0.8796(3) 0.8746(4) 0.16350(17)
O1B O 0.4876(3) 0.1622(2) 0.08387(16)
O2B O 0.5413(4) 0.3284(2) 0.16983(17)
O3A O 0.6647(3) 0.2050(4) -0.0102(2)
H1A H 0.721(2) 0.221(4) -0.029(2)
H2A H 0.615(3) 0.153(5) -0.029(2)
O3B O 0.7950(4) 0.4597(3) -0.0102(2)
H1B H 0.779(4) 0.500(3) -0.029(2)
H2B H 0.847(5) 0.462(4) -0.029(2)
Gd1O Gd 1.0000 0.0000 0.25511(2)
O3O O 1.1264(3) -0.0020(3) 0.3435(2)
H1O H 1.167(3) 0.054(2) 0.362(2)
H2O H 1.129(4) -0.052(3) 0.362(2)
O3G O 1.0020(3) 0.1283(4) 0.3435(2)
H1G H 0.946(2) 0.112(4) 0.362(2)
H2G H 1.052(3) 0.180(5) 0.362(2)
O3H O 0.8717(4) -0.1264(3) 0.3435(2)
H1H H 0.888(4) -0.167(3) 0.362(2)
H2H H 0.820(5) -0.129(4) 0.362(2)
Gd1G Gd 1.0000 0.9999 0.25511(2)
O1G_2 O 0.9921(2) -0.1791(3) 0.24946(16)
O1H O 1.1791(3) 0.1711(2) 0.24946(16)
O2G_2 O 0.8796(3) -0.1254(4) 0.16350(17)
O2H O 1.1254(4) 0.0049(2) 0.16350(17)
C3G_2 C 0.9194(3) -0.2558(5) 0.2120(2)
C1G_2 C 0.8510(3) -0.2254(5) 0.1628(2)
C2G_2 C 0.8995(4) -0.3624(6) 0.2127(3)
C2A_2 C 0.7672(4) -0.3043(6) 0.1206(3)
C1A_2 C 0.8157(3) -0.4413(5) 0.1705(2)
H3G_2 H 0.9425 -0.3805 0.2413
H3A_2 H 0.7242 -0.2862 0.0920
C3A_2 C 0.7473(3) -0.4109(5) 0.1213(2)
O2A_2 O 0.7871(3) -0.5413(4) 0.16983(17)
O1A_2 O 0.6746(2) -0.4876(3) 0.08387(16)
Gd1_2 Gd 0.6667 -0.6667 0.07822(2)
O4 O 0.7528(3) 0.6011(3) -0.0894(3)
H4 H 0.6886(19) 0.570(5) -0.091(4)
H5 H 0.782(5) 0.659(3) -0.070(4)
O5 O 0.8107(4) 0.9397(3) 0.0418(2)
H6 H 0.839(4) 0.932(5) 0.077(2)
H7 H 0.849(4) 0.996(3) 0.022(3)
O6 O 0.0401(3) 0.5281(4) 0.0980(2)
H8 H 0.054(7) 0.517(7) 0.139(2)
H9 H -0.013(4) 0.490(6) 0.075(4)
loop_
_geom_bond_atom_site_label_1
_geom_bond_atom_site_label_2
_geom_bond_site_symmetry_1
_geom_bond_site_symmetry_2
Gd1 O1 1_555 1_555
O1 C3 1_555 1_555
O2 Gd1 1_555 1_555
O3 Gd1 1_555 1_555
H1 O3 1_555 1_555
H2 O3 1_555 1_555
C1 O2 1_555 1_555
C2 H3 1_555 1_555
O4 H4 1_555 1_555
H5 O4 1_555 1_555
C3 C1 1_555 1_555
O5 H6 1_555 1_555
H7 O5 1_555 1_555
O6 H8 1_555 1_555
H9 O6 1_555 1_555
C2O C1 1_555 1_555
H3O C2O 1_555 1_555
C3O C2O 1_555 1_555
O1O C3O 1_555 1_555
C1O C2 1_555 1_555
O2O C1O 1_555 1_555
O1A Gd1 1_555 1_555
O2A Gd1 1_555 1_555
C1A O2A 1_555 1_555
C2A H3A 1_555 1_555
C3A O1A 1_555 1_555
C2G C1A 1_555 1_555
H3G C2G 1_555 1_555
C3G C2G 1_555 1_555
O1G C3G 1_555 1_555
C1G C2A 1_555 1_555
O2G C1G 1_555 1_555
O1B Gd1 1_555 1_555
O2B Gd1 1_555 1_555
O3A Gd1 1_555 1_555
H1A O3A 1_555 1_555
H2A O3A 1_555 1_555
O3B Gd1 1_555 1_555
H1B O3B 1_555 1_555
H2B O3B 1_555 1_555
Gd1O O1O 1_555 1_555
O3O Gd1O 1_555 1_555
H1O O3O 1_555 1_555
H2O O3O 1_555 1_555
O3G Gd1O 1_555 1_555
H1G O3G 1_555 1_555
H2G O3G 1_555 1_555
O3H Gd1O 1_555 1_555
H1H O3H 1_555 1_555
H2H O3H 1_555 1_555
Gd1G O1G 1_555 1_555
O1G_2 Gd1O 1_555 1_555
O1H Gd1O 1_555 1_555
O2G_2 Gd1O 1_555 1_555
O2H Gd1O 1_555 1_555
C3G_2 O1G_2 1_555 1_555
C1G_2 O2G_2 1_555 1_555
C2G_2 C3G_2 1_555 1_555
C2A_2 C1G_2 1_555 1_555
C1A_2 C2G_2 1_555 1_555
H3G_2 C2G_2 1_555 1_555
H3A_2 C2A_2 1_555 1_555
C3A_2 C2A_2 1_555 1_555
O2A_2 C1A_2 1_555 1_555
O1A_2 C3A_2 1_555 1_555
Gd1_2 O2A_2 1_555 1_555
C2 C3 1_555 1_555
C3O C1O 1_555 1_555
O2O Gd1O 1_555 1_555
C1A C3A 1_555 1_555
C2A C3A 1_555 1_555
C3G C1G 1_555 1_555
O2G Gd1G 1_555 1_555
C3G_2 C1G_2 1_555 1_555
C1A_2 C3A_2 1_555 1_555
O1A_2 Gd1_2 1_555 1_555

#END
