
#######################################################################
#
#                 Cambridge Crystallographic Data Centre
#                                CCDC 
#
#######################################################################
#
# If this CIF has been generated from an entry in the Cambridge 
# Structural Database, then it will include bibliographic, chemical, 
# crystal, experimental, refinement or atomic coordinate data resulting 
# from the CCDC's data processing and validation procedures.
#
#######################################################################

data_MIZXIC
_symmetry_cell_setting           rhombohedral
_symmetry_space_group_name_H-M   'R -3'
_symmetry_Int_Tables_number      148
_space_group_name_Hall           '-R 3'
loop_
_symmetry_equiv_pos_site_id
_symmetry_equiv_pos_as_xyz
1 x,y,z
2 -y,x-y,z
3 -x+y,-x,z
4 2/3+x,1/3+y,1/3+z
5 2/3-y,1/3+x-y,1/3+z
6 2/3-x+y,1/3-x,1/3+z
7 1/3+x,2/3+y,2/3+z
8 2/3+y,1/3-x+y,1/3-z
9 2/3+x-y,1/3+x,1/3-z
10 -x,-y,-z
11 y,-x+y,-z
12 x-y,x,-z
13 1/3-x,2/3-y,2/3-z
14 1/3+y,2/3-x+y,2/3-z
15 1/3+x-y,2/3+x,2/3-z
16 2/3-x,1/3-y,1/3-z
17 1/3-y,2/3+x-y,2/3+z
18 1/3-x+y,2/3-x,2/3+z
_cell_length_a                   14.062(1)
_cell_length_b                   14.062(1)
_cell_length_c                   18.027(1)
_cell_angle_alpha                90
_cell_angle_beta                 90
_cell_angle_gamma                120.00
_cell_volume                     3087.08
loop_
_atom_site_label
_atom_site_type_symbol
_atom_site_fract_x
_atom_site_fract_y
_atom_site_fract_z
Yb1 Yb 0.0000 0.0000 0.24655(2)
O1 O 0.1196(3) 0.1229(3) 0.33562(19)
O2 O 0.0062(3) 0.1772(3) 0.25046(18)
C1 C 0.1491(4) 0.2246(4) 0.3366(2)
C2 C 0.0803(4) 0.2557(4) 0.2881(2)
C3 C 0.2332(4) 0.3037(4) 0.3789(3)
H1 H 0.2767 0.2853 0.4075
O3 O 0.1251(4) 0.1232(4) 0.1603(2)
H2 H 0.175(4) 0.124(5) 0.139(3)
H3 H 0.120(5) 0.164(4) 0.133(3)
C3L C 0.1001(4) 0.3630(4) 0.2878(3)
C1L C 0.1842(4) 0.4421(4) 0.3301(2)
O1L O 0.2137(3) 0.5438(3) 0.33105(19)
C2L C 0.2530(4) 0.4110(4) 0.3786(2)
O2L O 0.3271(3) 0.4895(3) 0.41621(18)
H1L H 0.0566 0.3814 0.2592
O1A O -0.1229(3) -0.0033(4) 0.33562(19)
O2A O -0.1772(3) -0.1710(4) 0.25046(18)
C1A C -0.2246(4) -0.0755(6) 0.3366(2)
C2A C -0.2557(4) -0.1754(6) 0.2881(2)
C3A C -0.3037(4) -0.0705(6) 0.3789(3)
H1A H -0.2853 -0.0086 0.4075
C3M C -0.3630(4) -0.2628(6) 0.2878(3)
C1M C -0.4421(4) -0.2578(6) 0.3301(2)
O1M O -0.5438(3) -0.3300(4) 0.33105(19)
C2M C -0.4110(4) -0.1579(6) 0.3786(2)
O2M O -0.4895(3) -0.1623(4) 0.41621(18)
H1M H -0.3814 -0.3247 0.2592
O1B O 0.0033(4) -0.1196(3) 0.33562(19)
O2B O 0.1710(4) -0.0062(3) 0.25046(18)
O3A O -0.1232(4) 0.0019(6) 0.1603(2)
H2A H -0.124(5) 0.051(6) 0.139(3)
H3A H -0.164(4) -0.044(6) 0.133(3)
O3B O -0.0019(6) -0.1251(4) 0.1603(2)
H2B H -0.051(6) -0.175(4) 0.139(3)
H3B H 0.044(6) -0.120(5) 0.133(3)
Yb1L Yb 0.3333 0.6667 0.42012(2)
Yb1L_2 Yb -0.6667 -0.3333 0.42012(2)
O1L_2 O -0.7863(3) -0.4562(3) 0.33105(19)
O1N O -0.6700(4) -0.2137(3) 0.33105(19)
O2L_2 O -0.6729(3) -0.5105(3) 0.41621(18)
O2N O -0.8377(4) -0.3271(3) 0.41621(18)
O3L O -0.7918(4) -0.4565(4) 0.5064(2)
O3M O -0.5435(4) -0.3352(6) 0.5064(2)
O3N O -0.6648(6) -0.2082(4) 0.5064(2)
C1L_2 C -0.8158(4) -0.5579(4) 0.3301(2)
C2L_2 C -0.7470(4) -0.5890(4) 0.3786(2)
H2L H -0.842(4) -0.457(5) 0.528(3)
H3L H -0.787(5) -0.497(4) 0.534(3)
H2M H -0.543(5) -0.384(6) 0.528(3)
H3M H -0.503(4) -0.289(6) 0.534(3)
H2N H -0.616(6) -0.158(4) 0.528(3)
H3N H -0.711(6) -0.213(5) 0.534(3)
C3L_2 C -0.8999(4) -0.6370(4) 0.2878(3)
C3_2 C -0.7668(4) -0.6963(4) 0.3789(3)
C2_2 C -0.9197(4) -0.7443(4) 0.2881(2)
H1L_2 H -0.9434 -0.6186 0.2592
C1_2 C -0.8509(4) -0.7754(4) 0.3366(2)
H1_2 H -0.7233 -0.7147 0.4075
O2_2 O -0.9938(3) -0.8228(3) 0.25046(18)
O1_2 O -0.8804(3) -0.8771(3) 0.33562(19)
Yb1_2 Yb -1.0000 -1.0000 0.24655(2)
O4 O 0.2913(4) 0.1390(4) 0.0700(3)
H4 H 0.343(6) 0.191(6) 0.087(6)
H5 H 0.272(9) 0.142(10) 0.029(3)
O5 O 0.2048(4) 0.4787(4) 0.1250(2)
H6 H 0.237(8) 0.503(8) 0.087(3)
H7 H 0.171(7) 0.503(8) 0.144(5)
O6 O 0.0863(4) 0.2660(4) 0.0779(3)
H8 H 0.029(8) 0.244(8) 0.075(5)
H9 H 0.119(7) 0.330(7) 0.095(5)
loop_
_geom_bond_atom_site_label_1
_geom_bond_atom_site_label_2
_geom_bond_site_symmetry_1
_geom_bond_site_symmetry_2
Yb1 O1 1_555 1_555
O1 C1 1_555 1_555
O2 Yb1 1_555 1_555
C1 C2 1_555 1_555
C2 O2 1_555 1_555
C3 C1 1_555 1_555
H1 C3 1_555 1_555
O3 Yb1 1_555 1_555
H2 O3 1_555 1_555
H3 O3 1_555 1_555
O4 H4 1_555 1_555
H5 O4 1_555 1_555
O5 H6 1_555 1_555
H7 O5 1_555 1_555
O6 H8 1_555 1_555
H9 O6 1_555 1_555
C3L C2 1_555 1_555
C1L C3L 1_555 1_555
O1L C1L 1_555 1_555
C2L C3 1_555 1_555
O2L C2L 1_555 1_555
H1L C3L 1_555 1_555
O1A Yb1 1_555 1_555
O2A Yb1 1_555 1_555
C1A O1A 1_555 1_555
C2A O2A 1_555 1_555
C3A C1A 1_555 1_555
H1A C3A 1_555 1_555
C3M C2A 1_555 1_555
C1M C3M 1_555 1_555
O1M C1M 1_555 1_555
C2M C3A 1_555 1_555
O2M C2M 1_555 1_555
H1M C3M 1_555 1_555
O1B Yb1 1_555 1_555
O2B Yb1 1_555 1_555
O3A Yb1 1_555 1_555
H2A O3A 1_555 1_555
H3A O3A 1_555 1_555
O3B Yb1 1_555 1_555
H2B O3B 1_555 1_555
H3B O3B 1_555 1_555
Yb1L O1L 1_555 1_555
Yb1L_2 O1M 1_555 1_555
O1L_2 Yb1L_2 1_555 1_555
O1N Yb1L_2 1_555 1_555
O2L_2 Yb1L_2 1_555 1_555
O2N Yb1L_2 1_555 1_555
O3L Yb1L_2 1_555 1_555
O3M Yb1L_2 1_555 1_555
O3N Yb1L_2 1_555 1_555
C1L_2 O1L_2 1_555 1_555
C2L_2 O2L_2 1_555 1_555
H2L O3L 1_555 1_555
H3L O3L 1_555 1_555
H2M O3M 1_555 1_555
H3M O3M 1_555 1_555
H2N O3N 1_555 1_555
H3N O3N 1_555 1_555
C3L_2 C1L_2 1_555 1_555
C3_2 C2L_2 1_555 1_555
C2_2 C3L_2 1_555 1_555
H1L_2 C3L_2 1_555 1_555
C1_2 C3_2 1_555 1_555
H1_2 C3_2 1_555 1_555
O2_2 C2_2 1_555 1_555
O1_2 C1_2 1_555 1_555
Yb1_2 O2_2 1_555 1_555
C1L C2L 1_555 1_555
O2L Yb1L 1_555 1_555
C1A C2A 1_555 1_555
C1M C2M 1_555 1_555
O2M Yb1L_2 1_555 1_555
C1L_2 C2L_2 1_555 1_555
C2_2 C1_2 1_555 1_555
O1_2 Yb1_2 1_555 1_555

#END
