
#######################################################################
#
#                 Cambridge Crystallographic Data Centre
#                                CCDC 
#
#######################################################################
#
# If this CIF has been generated from an entry in the Cambridge 
# Structural Database, then it will include bibliographic, chemical, 
# crystal, experimental, refinement or atomic coordinate data resulting 
# from the CCDC's data processing and validation procedures.
#
#######################################################################

data_MIZXOI
_symmetry_cell_setting           rhombohedral
_symmetry_space_group_name_H-M   'R -3'
_symmetry_Int_Tables_number      148
_space_group_name_Hall           '-R 3'
loop_
_symmetry_equiv_pos_site_id
_symmetry_equiv_pos_as_xyz
1 x,y,z
2 -y,x-y,z
3 -x+y,-x,z
4 2/3+x,1/3+y,1/3+z
5 2/3-y,1/3+x-y,1/3+z
6 2/3-x+y,1/3-x,1/3+z
7 1/3+x,2/3+y,2/3+z
8 2/3+y,1/3-x+y,1/3-z
9 2/3+x-y,1/3+x,1/3-z
10 -x,-y,-z
11 y,-x+y,-z
12 x-y,x,-z
13 1/3-x,2/3-y,2/3-z
14 1/3+y,2/3-x+y,2/3-z
15 1/3+x-y,2/3+x,2/3-z
16 2/3-x,1/3-y,1/3-z
17 1/3-y,2/3+x-y,2/3+z
18 1/3-x+y,2/3-x,2/3+z
_cell_length_a                   14.026(1)
_cell_length_b                   14.026(1)
_cell_length_c                   18.044(1)
_cell_angle_alpha                90
_cell_angle_beta                 90
_cell_angle_gamma                120.00
_cell_volume                     3074.19
loop_
_atom_site_label
_atom_site_type_symbol
_atom_site_fract_x
_atom_site_fract_y
_atom_site_fract_z
Lu1 Lu 0.0000 0.0000 0.246461(7)
O1 O -0.12237(12) -0.11936(13) 0.33483(8)
O2 O -0.17758(12) -0.00675(12) 0.24960(8)
C1 C -0.22424(18) -0.14898(18) 0.33651(11)
C2 C -0.25530(17) -0.07992(17) 0.28757(11)
C3 C -0.30330(18) -0.23373(19) 0.37897(12)
H1 H -0.2847 -0.2774 0.4073
O3 O -0.12267(16) -0.12548(15) 0.16047(10)
H2 H -0.124(3) -0.182(2) 0.1400(17)
H3 H -0.171(2) -0.117(3) 0.1356(17)
C3L C -0.36337(18) -0.09960(19) 0.28770(12)
C1L C -0.44243(18) -0.18435(18) 0.33016(11)
O1L O -0.54430(12) -0.21397(13) 0.33184(8)
C2L C -0.41137(17) -0.25341(17) 0.37910(11)
O2L O -0.48909(12) -0.32658(12) 0.41707(8)
H1L H -0.3820 -0.0559 0.2594
O1A O 0.11936(13) -0.00301(18) 0.33483(8)
O2A O 0.00675(12) -0.17083(17) 0.24960(8)
C1A C 0.14898(18) -0.07526(25) 0.33651(11)
C2A C 0.07992(17) -0.17538(24) 0.28757(11)
C3A C 0.23373(19) -0.06957(26) 0.37897(12)
H1A H 0.2774 -0.0073 0.4073
C3M C 0.09960(19) -0.26376(26) 0.28770(12)
C1M C 0.18435(18) -0.25807(25) 0.33016(11)
O1M O 0.21397(13) -0.33032(18) 0.33184(8)
C2M C 0.25341(17) -0.15795(24) 0.37910(11)
O2M O 0.32658(12) -0.16250(17) 0.41707(8)
H1M H 0.0559 -0.3260 0.2594
O1B O 0.00301(18) 0.12237(12) 0.33483(8)
O2B O 0.17083(17) 0.17758(12) 0.24960(8)
O3A O 0.12548(15) 0.00281(22) 0.16047(10)
H2A H 0.182(2) 0.058(4) 0.1400(17)
H3A H 0.117(3) -0.054(4) 0.1356(17)
O3B O -0.00281(22) 0.12267(16) 0.16047(10)
H2B H -0.058(4) 0.124(3) 0.1400(17)
H3B H 0.054(4) 0.171(2) 0.1356(17)
Lu1L Lu -0.6667 -0.3333 0.420206(7)
O3L O -0.54400(16) -0.20785(15) 0.50620(10)
H2L H -0.543(3) -0.151(2) 0.5267(17)
H3L H -0.496(2) -0.216(3) 0.5311(17)
O3M O -0.79215(15) -0.33614(22) 0.50620(10)
H2M H -0.849(2) -0.391(4) 0.5267(17)
H3M H -0.784(3) -0.279(4) 0.5311(17)
O3N O -0.66386(22) -0.45600(16) 0.50620(10)
H2N H -0.609(4) -0.457(3) 0.5267(17)
H3N H -0.721(4) -0.504(2) 0.5311(17)
Lu1L_2 Lu 0.3333 -0.3333 0.420206(7)
O1M_2 O -0.78603(13) -0.33032(18) 0.33184(8)
O1N O -0.66968(18) -0.45570(12) 0.33184(8)
O2M_2 O -0.67342(12) -0.16250(17) 0.41707(8)
O2N O -0.83750(17) -0.51091(12) 0.41707(8)
C1M_2 C -0.81565(18) -0.25807(25) 0.33016(11)
C2M_2 C -0.74659(17) -0.15795(24) 0.37910(11)
C3M_2 C -0.90040(19) -0.26376(26) 0.28770(12)
C3A_2 C -0.76627(19) -0.06957(26) 0.37897(12)
C2A_2 C -0.92008(17) -0.17538(24) 0.28757(11)
H1M_2 H -0.9441 -0.3260 0.2594
C1A_2 C -0.85102(18) -0.07526(25) 0.33651(11)
H1A_2 H -0.7226 -0.0073 0.4073
O2A_2 O -0.99325(12) -0.17083(17) 0.24960(8)
O1A_2 O -0.88064(13) -0.00301(18) 0.33483(8)
Lu1_2 Lu -1.0000 0.0000 0.246461(7)
O4 O -0.13837(19) -0.29148(17) 0.07036(12)
H4 H -0.194(3) -0.359(3) 0.085(3)
H5 H -0.148(5) -0.276(5) 0.0226(16)
O5 O -0.47863(19) -0.20437(19) 0.12444(11)
H6 H -0.516(3) -0.173(3) 0.144(2)
H7 H -0.505(3) -0.242(3) 0.0828(16)
O6 O -0.26595(19) -0.08642(19) 0.07778(13)
H8 H -0.333(2) -0.117(3) 0.100(2)
H9 H -0.235(3) -0.013(2) 0.077(2)
loop_
_geom_bond_atom_site_label_1
_geom_bond_atom_site_label_2
_geom_bond_site_symmetry_1
_geom_bond_site_symmetry_2
Lu1 O1 1_555 1_555
O1 C1 1_555 1_555
O2 Lu1 1_555 1_555
C1 C2 1_555 1_555
C2 O2 1_555 1_555
C3 C1 1_555 1_555
H1 C3 1_555 1_555
O3 Lu1 1_555 1_555
H2 O3 1_555 1_555
H3 O3 1_555 1_555
O4 H4 1_555 1_555
H5 O4 1_555 1_555
O5 H6 1_555 1_555
H7 O5 1_555 1_555
O6 H8 1_555 1_555
H9 O6 1_555 1_555
C3L C2 1_555 1_555
C1L C3L 1_555 1_555
O1L C1L 1_555 1_555
C2L C3 1_555 1_555
O2L C2L 1_555 1_555
H1L C3L 1_555 1_555
O1A Lu1 1_555 1_555
O2A Lu1 1_555 1_555
C1A O1A 1_555 1_555
C2A O2A 1_555 1_555
C3A C1A 1_555 1_555
H1A C3A 1_555 1_555
C3M C2A 1_555 1_555
C1M C3M 1_555 1_555
O1M C1M 1_555 1_555
C2M C3A 1_555 1_555
O2M C2M 1_555 1_555
H1M C3M 1_555 1_555
O1B Lu1 1_555 1_555
O2B Lu1 1_555 1_555
O3A Lu1 1_555 1_555
H2A O3A 1_555 1_555
H3A O3A 1_555 1_555
O3B Lu1 1_555 1_555
H2B O3B 1_555 1_555
H3B O3B 1_555 1_555
Lu1L O1L 1_555 1_555
O3L Lu1L 1_555 1_555
H2L O3L 1_555 1_555
H3L O3L 1_555 1_555
O3M Lu1L 1_555 1_555
H2M O3M 1_555 1_555
H3M O3M 1_555 1_555
O3N Lu1L 1_555 1_555
H2N O3N 1_555 1_555
H3N O3N 1_555 1_555
Lu1L_2 O1M 1_555 1_555
O1M_2 Lu1L 1_555 1_555
O1N Lu1L 1_555 1_555
O2M_2 Lu1L 1_555 1_555
O2N Lu1L 1_555 1_555
C1M_2 O1M_2 1_555 1_555
C2M_2 O2M_2 1_555 1_555
C3M_2 C1M_2 1_555 1_555
C3A_2 C2M_2 1_555 1_555
C2A_2 C3M_2 1_555 1_555
H1M_2 C3M_2 1_555 1_555
C1A_2 C3A_2 1_555 1_555
H1A_2 C3A_2 1_555 1_555
O2A_2 C2A_2 1_555 1_555
O1A_2 C1A_2 1_555 1_555
Lu1_2 O2A_2 1_555 1_555
C1L C2L 1_555 1_555
O2L Lu1L 1_555 1_555
C1A C2A 1_555 1_555
C1M C2M 1_555 1_555
O2M Lu1L_2 1_555 1_555
C1M_2 C2M_2 1_555 1_555
C2A_2 C1A_2 1_555 1_555
O1A_2 Lu1_2 1_555 1_555

#END
