
#######################################################################
#
#                 Cambridge Crystallographic Data Centre
#                                CCDC 
#
#######################################################################
#
# If this CIF has been generated from an entry in the Cambridge 
# Structural Database, then it will include bibliographic, chemical, 
# crystal, experimental, refinement or atomic coordinate data resulting 
# from the CCDC's data processing and validation procedures.
#
#######################################################################

data_MIZXAU
_symmetry_cell_setting           rhombohedral
_symmetry_space_group_name_H-M   'R -3'
_symmetry_Int_Tables_number      148
_space_group_name_Hall           '-R 3'
loop_
_symmetry_equiv_pos_site_id
_symmetry_equiv_pos_as_xyz
1 x,y,z
2 -y,x-y,z
3 -x+y,-x,z
4 2/3+x,1/3+y,1/3+z
5 2/3-y,1/3+x-y,1/3+z
6 2/3-x+y,1/3-x,1/3+z
7 1/3+x,2/3+y,2/3+z
8 2/3+y,1/3-x+y,1/3-z
9 2/3+x-y,1/3+x,1/3-z
10 -x,-y,-z
11 y,-x+y,-z
12 x-y,x,-z
13 1/3-x,2/3-y,2/3-z
14 1/3+y,2/3-x+y,2/3-z
15 1/3+x-y,2/3+x,2/3-z
16 2/3-x,1/3-y,1/3-z
17 1/3-y,2/3+x-y,2/3+z
18 1/3-x+y,2/3-x,2/3+z
_cell_length_a                   14.460(4)
_cell_length_b                   14.460(4)
_cell_length_c                   18.165(5)
_cell_angle_alpha                90
_cell_angle_beta                 90
_cell_angle_gamma                120.00
_cell_volume                     3289.29
loop_
_atom_site_label
_atom_site_type_symbol
_atom_site_fract_x
_atom_site_fract_y
_atom_site_fract_z
La1 La 0.0000 0.0000 0.24198(4)
O1 O -0.1295(4) -0.1207(4) 0.3384(3)
O2 O -0.1813(4) -0.0094(4) 0.2516(3)
C1 C -0.2281(5) -0.1502(5) 0.3377(3)
C2 C -0.2565(5) -0.0810(5) 0.2887(3)
C3 C -0.3050(5) -0.2315(6) 0.3793(4)
H1 H -0.2870 -0.2729 0.4085
O3 O -0.1336(5) -0.1337(5) 0.1514(4)
H2 H -0.131(8) -0.177(6) 0.125(4)
H3 H -0.174(6) -0.125(8) 0.124(4)
C3L C -0.3617(5) -0.1018(6) 0.2874(4)
C1L C -0.4386(5) -0.1831(5) 0.3290(3)
O1L O -0.5372(4) -0.2126(4) 0.3283(3)
C2L C -0.4102(5) -0.2523(5) 0.3780(3)
O2L O -0.4854(4) -0.3239(4) 0.4151(3)
H1L H -0.3797 -0.0604 0.2582
O1A O 0.1207(4) -0.0088(6) 0.3384(3)
O2A O 0.0094(4) -0.1719(6) 0.2516(3)
C1A C 0.1502(5) -0.0779(7) 0.3377(3)
C2A C 0.0810(5) -0.1755(7) 0.2887(3)
C3A C 0.2315(6) -0.0735(8) 0.3793(4)
H1A H 0.2729 -0.0141 0.4085
C3M C 0.1018(6) -0.2598(8) 0.2874(4)
C1M C 0.1831(5) -0.2554(7) 0.3290(3)
O1M O 0.2126(4) -0.3245(6) 0.3283(3)
C2M C 0.2523(5) -0.1578(7) 0.3780(3)
O2M O 0.3239(4) -0.1614(6) 0.4151(3)
H1M H 0.0604 -0.3192 0.2582
O1B O 0.0088(6) 0.1295(4) 0.3384(3)
O2B O 0.1719(6) 0.1813(4) 0.2516(3)
O3A O 0.1337(5) 0.0001(7) 0.1514(4)
H2A H 0.177(6) 0.046(10) 0.125(4)
H3A H 0.125(8) -0.049(10) 0.124(4)
O3B O -0.0001(7) 0.1336(5) 0.1514(4)
H2B H -0.046(10) 0.131(8) 0.125(4)
H3B H 0.049(10) 0.174(6) 0.124(4)
La1L La -0.6667 -0.3333 0.42469(4)
La1L_2 La 0.3333 -0.3333 0.42469(4)
O1L_2 O 0.4628(4) -0.2126(4) 0.3283(3)
O1N O 0.3245(6) -0.4628(4) 0.3283(3)
O2L_2 O 0.5146(4) -0.3239(4) 0.4151(3)
O2N O 0.1614(6) -0.5146(4) 0.4151(3)
O3L O 0.4669(5) -0.1996(5) 0.5153(4)
O3M O 0.1996(5) -0.3334(7) 0.5153(4)
O3N O 0.3334(7) -0.4669(5) 0.5153(4)
C1L_2 C 0.5614(5) -0.1831(5) 0.3290(3)
C2L_2 C 0.5898(5) -0.2523(5) 0.3780(3)
H2L H 0.464(8) -0.156(6) 0.542(4)
H3L H 0.507(6) -0.208(8) 0.543(4)
H2M H 0.156(6) -0.379(10) 0.542(4)
H3M H 0.208(8) -0.284(10) 0.543(4)
H2N H 0.379(10) -0.464(8) 0.542(4)
H3N H 0.284(10) -0.507(6) 0.543(4)
C3L_2 C 0.6383(5) -0.1018(6) 0.2874(4)
C3_2 C 0.6950(5) -0.2315(6) 0.3793(4)
C2_2 C 0.7435(5) -0.0810(5) 0.2887(3)
H1L_2 H 0.6203 -0.0604 0.2582
C1_2 C 0.7719(5) -0.1502(5) 0.3377(3)
H1_2 H 0.7130 -0.2729 0.4085
O2_2 O 0.8187(4) -0.0094(4) 0.2516(3)
O1_2 O 0.8705(4) -0.1207(4) 0.3384(3)
La1_2 La 1.0000 0.0000 0.24198(4)
O4 O -0.1399(5) -0.2957(5) 0.0683(3)
H4 H -0.145(8) -0.281(8) 0.026(2)
H5 H -0.169(7) -0.357(3) 0.082(5)
O5 O -0.4773(5) -0.2077(5) 0.1253(3)
H6 H -0.497(6) -0.227(6) 0.083(2)
H7 H -0.516(5) -0.191(6) 0.147(4)
O6 O -0.2716(5) -0.0850(5) 0.0766(4)
H8 H -0.236(6) -0.021(3) 0.076(5)
H9 H -0.327(4) -0.117(6) 0.099(4)
loop_
_geom_bond_atom_site_label_1
_geom_bond_atom_site_label_2
_geom_bond_site_symmetry_1
_geom_bond_site_symmetry_2
La1 O1 1_555 1_555
O1 C1 1_555 1_555
O2 La1 1_555 1_555
C1 C2 1_555 1_555
C2 O2 1_555 1_555
C3 C1 1_555 1_555
H1 C3 1_555 1_555
O3 La1 1_555 1_555
H2 O3 1_555 1_555
H3 O3 1_555 1_555
O4 H4 1_555 1_555
H5 O4 1_555 1_555
O5 H6 1_555 1_555
H7 O5 1_555 1_555
O6 H8 1_555 1_555
H9 O6 1_555 1_555
C3L C2 1_555 1_555
C1L C3L 1_555 1_555
O1L C1L 1_555 1_555
C2L C3 1_555 1_555
O2L C2L 1_555 1_555
H1L C3L 1_555 1_555
O1A La1 1_555 1_555
O2A La1 1_555 1_555
C1A O1A 1_555 1_555
C2A O2A 1_555 1_555
C3A C1A 1_555 1_555
H1A C3A 1_555 1_555
C3M C2A 1_555 1_555
C1M C3M 1_555 1_555
O1M C1M 1_555 1_555
C2M C3A 1_555 1_555
O2M C2M 1_555 1_555
H1M C3M 1_555 1_555
O1B La1 1_555 1_555
O2B La1 1_555 1_555
O3A La1 1_555 1_555
H2A O3A 1_555 1_555
H3A O3A 1_555 1_555
O3B La1 1_555 1_555
H2B O3B 1_555 1_555
H3B O3B 1_555 1_555
La1L O1L 1_555 1_555
La1L_2 O1M 1_555 1_555
O1L_2 La1L_2 1_555 1_555
O1N La1L_2 1_555 1_555
O2L_2 La1L_2 1_555 1_555
O2N La1L_2 1_555 1_555
O3L La1L_2 1_555 1_555
O3M La1L_2 1_555 1_555
O3N La1L_2 1_555 1_555
C1L_2 O1L_2 1_555 1_555
C2L_2 O2L_2 1_555 1_555
H2L O3L 1_555 1_555
H3L O3L 1_555 1_555
H2M O3M 1_555 1_555
H3M O3M 1_555 1_555
H2N O3N 1_555 1_555
H3N O3N 1_555 1_555
C3L_2 C1L_2 1_555 1_555
C3_2 C2L_2 1_555 1_555
C2_2 C3L_2 1_555 1_555
H1L_2 C3L_2 1_555 1_555
C1_2 C3_2 1_555 1_555
H1_2 C3_2 1_555 1_555
O2_2 C2_2 1_555 1_555
O1_2 C1_2 1_555 1_555
La1_2 O2_2 1_555 1_555
C1L C2L 1_555 1_555
O2L La1L 1_555 1_555
C1A C2A 1_555 1_555
C1M C2M 1_555 1_555
O2M La1L_2 1_555 1_555
C1L_2 C2L_2 1_555 1_555
C2_2 C1_2 1_555 1_555
O1_2 La1_2 1_555 1_555

#END
