
#######################################################################
#
#                 Cambridge Crystallographic Data Centre
#                                CCDC 
#
#######################################################################
#
# If this CIF has been generated from an entry in the Cambridge 
# Structural Database, then it will include bibliographic, chemical, 
# crystal, experimental, refinement or atomic coordinate data resulting 
# from the CCDC's data processing and validation procedures.
#
#######################################################################

data_MIZYAV
_symmetry_cell_setting           triclinic
_symmetry_space_group_name_H-M   'P -1'
_symmetry_Int_Tables_number      2
_space_group_name_Hall           '-P 1'
loop_
_symmetry_equiv_pos_site_id
_symmetry_equiv_pos_as_xyz
1 x,y,z
2 -x,-y,-z
_cell_length_a                   8.425(2)
_cell_length_b                   8.999(3)
_cell_length_c                   12.447(3)
_cell_angle_alpha                72.14(2)
_cell_angle_beta                 71.60(2)
_cell_angle_gamma                84.59(2)
_cell_volume                     852.288
loop_
_atom_site_label
_atom_site_type_symbol
_atom_site_fract_x
_atom_site_fract_y
_atom_site_fract_z
La1 La 0.09671(3) 0.39351(3) 0.16284(2)
Cl1 Cl 0.38647(16) -0.02417(14) -0.08881(11)
Cl2 Cl -0.26144(18) -0.15398(16) 0.36039(13)
C1 C -0.0303(6) 0.0348(6) 0.1788(4)
C2 C 0.1295(6) 0.0660(6) 0.0729(4)
C3 C 0.2071(6) -0.0588(5) 0.0322(4)
C4 C 0.1477(6) -0.2109(5) 0.0876(4)
C5 C -0.0098(6) -0.2421(5) 0.1942(4)
C6 C -0.0872(6) -0.1188(5) 0.2368(4)
O1 O -0.0988(5) 0.1545(4) 0.2056(4)
O2 O 0.1784(5) 0.2040(4) 0.0300(3)
O3 O 0.2139(5) 0.6715(4) 0.0577(3)
O4 O -0.0602(5) 0.6193(4) 0.2369(3)
Cl3 Cl -0.3051(2) 0.18123(17) 0.62836(13)
C7 C -0.0438(6) 0.1567(6) 0.4414(4)
C8 C 0.1056(6) 0.0682(6) 0.3836(4)
C9 C -0.1390(7) 0.0842(6) 0.5563(4)
O5 O -0.0681(5) 0.2919(4) 0.3793(3)
O6 O 0.1938(5) 0.1412(4) 0.2813(3)
O7 O 0.1666(5) 0.5250(4) -0.0869(3)
H1 H 0.217(8) 0.598(6) -0.088(6)
H2 H 0.251(7) 0.477(8) -0.108(7)
O8 O 0.2496(6) 0.4671(6) 0.2900(4)
H3 H 0.176(9) 0.476(11) 0.348(6)
H4 H 0.332(9) 0.523(10) 0.260(8)
O9 O 0.4128(5) 0.3684(5) 0.0809(4)
H5 H 0.495(12) 0.401(15) 0.026(10)
H6 H 0.443(17) 0.313(14) 0.136(8)
O7A O -0.1666(5) 0.4750(4) 0.0869(3)
O3_2 O 0.2139(5) -0.3285(4) 0.0577(3)
O4_2 O -0.0602(5) -0.3807(4) 0.2369(3)
C4_2 C 0.1477(6) 0.7891(5) 0.0876(4)
C5_2 C -0.0098(6) 0.7579(5) 0.1942(4)
C9A C 0.1390(7) -0.0842(6) 0.4437(4)
C8A C -0.1056(6) -0.0682(6) 0.6164(4)
La1A La -0.09671(3) 0.60649(3) -0.16284(2)
H1A H -0.217(8) 0.402(6) 0.088(6)
H2A H -0.251(7) 0.523(8) 0.108(7)
La1_2 La 0.09671(3) -0.60649(3) 0.16284(2)
C3_2 C 0.2071(6) 0.9412(5) 0.0322(4)
C6_2 C -0.0872(6) 0.8812(5) 0.2368(4)
Cl3A Cl 0.3051(2) -0.18123(17) 0.37164(13)
C7A C 0.0438(6) -0.1567(6) 0.5586(4)
O6A O -0.1938(5) -0.1412(4) 0.7187(3)
Cl1_2 Cl 0.38647(16) 0.97583(14) -0.08881(11)
C2_2 C 0.1295(6) 1.0660(6) 0.0729(4)
Cl2_2 Cl -0.26144(18) 0.84602(16) 0.36039(13)
C1_2 C -0.0303(6) 1.0348(6) 0.1788(4)
O5A O 0.0681(5) -0.2919(4) 0.6207(3)
La1A_2 La -0.09671(3) -0.39351(3) 0.83716(2)
O2_2 O 0.1784(5) 1.2040(4) 0.0300(3)
O1_2 O -0.0988(5) 1.1545(4) 0.2056(4)
La1_3 La 0.09671(3) 1.39351(3) 0.16284(2)
O1_3 O -0.0988(5) -0.8455(4) 0.2056(4)
O2_3 O 0.1784(5) -0.7960(4) 0.0300(3)
O5_2 O -0.0681(5) -0.7081(4) 0.3793(3)
O6_2 O 0.1938(5) -0.8588(4) 0.2813(3)
O7_2 O 0.1666(5) -0.4750(4) -0.0869(3)
O7A_2 O -0.1666(5) -0.5250(4) 0.0869(3)
O8_2 O 0.2496(6) -0.5329(6) 0.2900(4)
O9_2 O 0.4128(5) -0.6316(5) 0.0809(4)
H1_2 H 0.217(8) -0.402(6) -0.088(6)
H2_2 H 0.251(7) -0.523(8) -0.108(7)
H1A_2 H -0.217(8) -0.598(6) 0.088(6)
H2A_2 H -0.251(7) -0.477(8) 0.108(7)
H3_2 H 0.176(9) -0.524(11) 0.348(6)
H4_2 H 0.332(9) -0.477(10) 0.260(8)
H5_2 H 0.495(12) -0.599(15) 0.026(10)
H6_2 H 0.443(17) -0.687(14) 0.136(8)
O10 O 0.4340(6) 0.3699(5) 0.8070(4)
O11 O 0.4020(8) 0.5477(8) 0.5962(5)
O12 O 0.4513(9) 0.7613(10) 0.7112(10)
O13 O 0.0000 0.5000 0.5000
loop_
_geom_bond_atom_site_label_1
_geom_bond_atom_site_label_2
_geom_bond_site_symmetry_1
_geom_bond_site_symmetry_2
La1 O1 1_555 1_555
Cl1 C3 1_555 1_555
Cl2 C6 1_555 1_555
C1 C2 1_555 1_555
C2 C3 1_555 1_555
C3 C4 1_555 1_555
C4 C5 1_555 1_555
C5 C6 1_555 1_555
C6 C1 1_555 1_555
O1 C1 1_555 1_555
O2 La1 1_555 1_555
O3 La1 1_555 1_555
O4 La1 1_555 1_555
Cl3 C9 1_555 1_555
C7 C8 1_555 1_555
C8 O6 1_555 1_555
C9 C7 1_555 1_555
O5 La1 1_555 1_555
O6 La1 1_555 1_555
O7 La1 1_555 1_555
H1 O7 1_555 1_555
H2 O7 1_555 1_555
O8 La1 1_555 1_555
H3 O8 1_555 1_555
H4 O8 1_555 1_555
O9 La1 1_555 1_555
H5 O9 1_555 1_555
H6 O9 1_555 1_555
O7A La1 1_555 1_555
O3_2 C4 1_555 1_555
O4_2 C5 1_555 1_555
C4_2 O3 1_555 1_555
C5_2 O4 1_555 1_555
C9A C8 1_555 1_555
C8A C9 1_555 1_555
La1A O7 1_555 1_555
H1A O7A 1_555 1_555
H2A O7A 1_555 1_555
La1_2 O3_2 1_555 1_555
C3_2 C4_2 1_555 1_555
C6_2 C5_2 1_555 1_555
Cl3A C9A 1_555 1_555
C7A C9A 1_555 1_555
O6A C8A 1_555 1_555
Cl1_2 C3_2 1_555 1_555
C2_2 C3_2 1_555 1_555
Cl2_2 C6_2 1_555 1_555
C1_2 C6_2 1_555 1_555
O5A C7A 1_555 1_555
La1A_2 O6A 1_555 1_555
O2_2 C2_2 1_555 1_555
O1_2 C1_2 1_555 1_555
La1_3 O2_2 1_555 1_555
O1_3 La1_2 1_555 1_555
O2_3 La1_2 1_555 1_555
O5_2 La1_2 1_555 1_555
O6_2 La1_2 1_555 1_555
O7_2 La1_2 1_555 1_555
O7A_2 La1_2 1_555 1_555
O8_2 La1_2 1_555 1_555
O9_2 La1_2 1_555 1_555
H1_2 O7_2 1_555 1_555
H2_2 O7_2 1_555 1_555
H1A_2 O7A_2 1_555 1_555
H2A_2 O7A_2 1_555 1_555
H3_2 O8_2 1_555 1_555
H4_2 O8_2 1_555 1_555
H5_2 O9_2 1_555 1_555
H6_2 O9_2 1_555 1_555
C2 O2 1_555 1_555
C7 O5 1_555 1_555
O7A La1A 1_555 1_555
O4_2 La1_2 1_555 1_555
C4_2 C5_2 1_555 1_555
C8A C7A 1_555 1_555
C2_2 C1_2 1_555 1_555
O5A La1A_2 1_555 1_555
O1_2 La1_3 1_555 1_555

#END
