
#######################################################################
#
#                 Cambridge Crystallographic Data Centre
#                                CCDC 
#
#######################################################################
#
# If this CIF has been generated from an entry in the Cambridge 
# Structural Database, then it will include bibliographic, chemical, 
# crystal, experimental, refinement or atomic coordinate data resulting 
# from the CCDC's data processing and validation procedures.
#
#######################################################################

data_MIZZIE
_symmetry_cell_setting           triclinic
_symmetry_space_group_name_H-M   'P -1'
_symmetry_Int_Tables_number      2
_space_group_name_Hall           '-P 1'
loop_
_symmetry_equiv_pos_site_id
_symmetry_equiv_pos_as_xyz
1 x,y,z
2 -x,-y,-z
_cell_length_a                   9.381(1)
_cell_length_b                   9.941(1)
_cell_length_c                   11.311(1)
_cell_angle_alpha                76.90
_cell_angle_beta                 77.15(1)
_cell_angle_gamma                74.79(1)
_cell_volume                     976.374
loop_
_atom_site_label
_atom_site_type_symbol
_atom_site_fract_x
_atom_site_fract_y
_atom_site_fract_z
Gd1 Gd 0.23659(2) 0.33894(2) 0.31586(2)
O1 O 0.2281(3) 0.0884(3) 0.3422(3)
O2 O 0.0424(3) 0.2639(3) 0.4777(3)
C1 C 0.1257(4) 0.0405(4) 0.4142(3)
C2 C 0.0139(5) 0.1427(4) 0.4919(3)
C3 C 0.1052(5) -0.0976(4) 0.4281(4)
Cl1 Cl 0.23332(14) -0.21178(12) 0.34073(12)
O3 O 0.2179(3) 0.5056(3) 0.1179(2)
O4 O 0.0559(3) 0.3155(3) 0.2057(3)
C4 C 0.1173(4) 0.5111(4) 0.0592(3)
C5 C 0.0249(5) 0.3978(4) 0.1079(3)
C6 C 0.0837(5) 0.6096(4) -0.0452(4)
Cl2 Cl 0.18851(15) 0.73691(13) -0.10614(11)
O5 O 0.2485(3) 0.4189(3) 0.5026(2)
O6 O 0.4217(3) 0.4778(3) 0.2916(2)
C7 C 0.3651(4) 0.4554(4) 0.5076(4)
C8 C 0.4648(4) 0.4912(4) 0.3848(3)
C9 C 0.4068(4) 0.4636(4) 0.6166(3)
Cl3 Cl 0.29423(12) 0.41658(13) 0.75523(9)
O7 O 0.0350(4) 0.5540(3) 0.3437(3)
H1 H -0.0427(41) 0.5396(58) 0.3710(49)
H2 H 0.0439(74) 0.5824(63) 0.3989(42)
O8 O 0.4127(4) 0.2298(4) 0.1597(3)
H3 H 0.4404(61) 0.2699(52) 0.0956(33)
H4 H 0.455(10) 0.1540(47) 0.1780(87)
O9 O 0.4427(5) 0.1852(4) 0.4220(3)
H5 H 0.4978(74) 0.1286(64) 0.3878(64)
H6 H 0.4151(88) 0.1472(74) 0.4857(39)
C3A C -0.1052(5) 0.0976(4) 0.5719(4)
C1A C -0.1257(4) -0.0405(4) 0.5858(3)
O1A O -0.2281(3) -0.0884(3) 0.6578(3)
C2A C -0.0139(5) -0.1427(4) 0.5081(3)
O2A O -0.0424(3) -0.2639(3) 0.5223(3)
Cl1A Cl -0.23332(14) 0.21178(12) 0.65927(12)
C6A C -0.0837(5) 0.3904(4) 0.0452(4)
C4A C -0.1173(4) 0.4889(4) -0.0592(3)
O3A O -0.2179(3) 0.4944(3) -0.1179(2)
C5A C -0.0249(5) 0.6022(4) -0.1079(3)
O4A O -0.0559(3) 0.6845(3) -0.2057(3)
Cl2A Cl -0.18851(15) 0.26309(13) 0.10614(11)
C9A C 0.5932(4) 0.5364(4) 0.3834(3)
C7A C 0.6349(4) 0.5446(4) 0.4924(4)
O5A O 0.7515(3) 0.5811(3) 0.4974(2)
C8A C 0.5352(4) 0.5088(4) 0.6152(3)
O6A O 0.5783(3) 0.5222(3) 0.7084(2)
Cl3A Cl 0.70577(12) 0.58342(13) 0.24477(9)
Gd1A Gd -0.23659(2) -0.33894(2) 0.68414(2)
O7A O -0.0350(4) -0.5540(3) 0.6563(3)
H1A H 0.0427(41) -0.5396(58) 0.6290(49)
H2A H -0.0439(74) -0.5824(63) 0.6011(42)
O8A O -0.4127(4) -0.2298(4) 0.8403(3)
H3A H -0.4404(61) -0.2699(52) 0.9044(33)
H4A H -0.455(10) -0.1540(47) 0.8220(87)
O9A O -0.4427(5) -0.1852(4) 0.5780(3)
H5A H -0.4978(74) -0.1286(64) 0.6122(64)
H6A H -0.4151(88) -0.1472(74) 0.5143(39)
Gd1A_2 Gd -0.23659(2) 0.66106(2) -0.31586(2)
Gd1A_3 Gd 0.76341(2) 0.66106(2) 0.68414(2)
O3A_2 O -0.2179(3) -0.5056(3) 0.8821(2)
O4A_2 O -0.0559(3) -0.3155(3) 0.7943(3)
O5A_2 O -0.2485(3) -0.4189(3) 0.4974(2)
O6A_2 O -0.4217(3) -0.4778(3) 0.7084(2)
O10 O 0.4440(4) 0.6779(4) 0.0673(3)
O11 O 0.3635(6) 0.0579(4) 0.6673(4)
O12 O 0.4803(22) 0.0588(7) 0.8646(7)
O14 O 0.0656(7) 0.1379(6) 0.8223(5)
O16 O 0.155(11) 0.0461(28) 0.0757(85)
O13? O 0.5575(52) 0.0671(28) 0.8875(34)
O15? O 0.2059(69) 0.0632(84) 0.0376(53)
loop_
_geom_bond_atom_site_label_1
_geom_bond_atom_site_label_2
_geom_bond_site_symmetry_1
_geom_bond_site_symmetry_2
Gd1 O1 1_555 1_555
O1 C1 1_555 1_555
O2 Gd1 1_555 1_555
C1 C2 1_555 1_555
C2 O2 1_555 1_555
C3 C1 1_555 1_555
Cl1 C3 1_555 1_555
O3 Gd1 1_555 1_555
O4 Gd1 1_555 1_555
C4 O3 1_555 1_555
C5 O4 1_555 1_555
C6 C4 1_555 1_555
Cl2 C6 1_555 1_555
O5 Gd1 1_555 1_555
O6 Gd1 1_555 1_555
C7 O5 1_555 1_555
C8 O6 1_555 1_555
C9 C7 1_555 1_555
Cl3 C9 1_555 1_555
O7 Gd1 1_555 1_555
H1 O7 1_555 1_555
H2 O7 1_555 1_555
O8 Gd1 1_555 1_555
H3 O8 1_555 1_555
H4 O8 1_555 1_555
O9 Gd1 1_555 1_555
H5 O9 1_555 1_555
H6 O9 1_555 1_555
C3A C2 1_555 1_555
C1A C3A 1_555 1_555
O1A C1A 1_555 1_555
C2A C3 1_555 1_555
O2A C2A 1_555 1_555
Cl1A C3A 1_555 1_555
C6A C5 1_555 1_555
C4A C6A 1_555 1_555
O3A C4A 1_555 1_555
C5A C6 1_555 1_555
O4A C5A 1_555 1_555
Cl2A C6A 1_555 1_555
C9A C8 1_555 1_555
C7A C9A 1_555 1_555
O5A C7A 1_555 1_555
C8A C9 1_555 1_555
O6A C8A 1_555 1_555
Cl3A C9A 1_555 1_555
Gd1A O1A 1_555 1_555
O7A Gd1A 1_555 1_555
H1A O7A 1_555 1_555
H2A O7A 1_555 1_555
O8A Gd1A 1_555 1_555
H3A O8A 1_555 1_555
H4A O8A 1_555 1_555
O9A Gd1A 1_555 1_555
H5A O9A 1_555 1_555
H6A O9A 1_555 1_555
Gd1A_2 O3A 1_555 1_555
Gd1A_3 O5A 1_555 1_555
O3A_2 Gd1A 1_555 1_555
O4A_2 Gd1A 1_555 1_555
O5A_2 Gd1A 1_555 1_555
O6A_2 Gd1A 1_555 1_555
C4 C5 1_555 1_555
C7 C8 1_555 1_555
C1A C2A 1_555 1_555
O2A Gd1A 1_555 1_555
C4A C5A 1_555 1_555
O4A Gd1A_2 1_555 1_555
C7A C8A 1_555 1_555
O6A Gd1A_3 1_555 1_555

#END
