
#######################################################################
#
#                 Cambridge Crystallographic Data Centre
#                                CCDC 
#
#######################################################################
#
# If this CIF has been generated from an entry in the Cambridge 
# Structural Database, then it will include bibliographic, chemical, 
# crystal, experimental, refinement or atomic coordinate data resulting 
# from the CCDC's data processing and validation procedures.
#
#######################################################################

data_MNCITD
_symmetry_cell_setting           monoclinic
_symmetry_space_group_name_H-M   'P 21/n'
_symmetry_Int_Tables_number      14
_space_group_name_Hall           '-P 2yn'
loop_
_symmetry_equiv_pos_site_id
_symmetry_equiv_pos_as_xyz
1 x,y,z
2 1/2-x,1/2+y,1/2-z
3 -x,-y,-z
4 1/2+x,1/2-y,1/2+z
_cell_length_a                   20.575(5)
_cell_length_b                   6.755(2)
_cell_length_c                   9.230(2)
_cell_angle_alpha                90
_cell_angle_beta                 96.74(1)
_cell_angle_gamma                90
_cell_volume                     1273.96
loop_
_atom_site_label
_atom_site_type_symbol
_atom_site_fract_x
_atom_site_fract_y
_atom_site_fract_z
C1 C 0.32730 0.39500 0.78340
C2 C 0.38630 0.46600 0.88290
C3 C 0.37090 0.66270 0.95770
C4 C 0.43410 0.74960 1.03680
C5 C 0.42590 0.93660 1.12500
C6 C 0.31980 0.62460 1.06650
H1 H 0.42300 0.48800 0.82800
H8 H 0.39700 0.37100 0.95200
H9 H 0.46400 0.76700 0.96200
H10 H 0.45500 0.65300 1.10200
H11 H 0.32700 0.76200 0.79300
H12 H 0.28100 0.62700 0.32600
H13 H 0.23900 0.76800 0.34500
Mn2 Mn 0.21780 0.51410 0.54010
O1 O 0.31330 0.49440 0.66610
O5 O 0.29260 0.25740 0.81890
O6 O 0.47450 0.99400 1.20860
O7 O 0.37160 1.02710 1.11230
O8 O 0.26660 0.71810 1.04750
O9 O 0.33410 0.50260 1.16790
O10 O 0.34560 0.80740 0.85210
O11 O 0.26060 0.68130 0.37860
C1A C 0.17270 0.89500 0.71660
C2A C 0.11370 0.96600 0.61710
C3A C 0.12910 1.16270 0.54230
C4A C 0.06590 1.24960 0.46320
C5A C 0.07410 1.43660 0.37500
C6A C 0.18020 1.12460 0.43350
H1A H 0.07700 0.98800 0.67200
H8A H 0.10300 0.87100 0.54800
H9A H 0.03600 1.26700 0.53800
H10A H 0.04500 1.15300 0.39800
H11A H 0.17300 1.26200 0.70700
O1A O 0.18670 0.99440 0.83390
O5A O 0.20740 0.75740 0.68110
O6A O 0.02550 1.49400 0.29140
O7A O 0.12840 1.52710 0.38770
O8A O 0.23340 1.21810 0.45250
O9A O 0.16590 1.00260 0.33210
O10A O 0.15440 1.30740 0.64790
Mn2A Mn 0.28220 1.01410 0.95990
H12A H 0.21900 1.12700 1.17400
H13A H 0.26100 1.26800 1.15500
O11A O 0.23940 1.18130 1.12140
O7A_2 O 0.12840 0.52710 0.38770
O8A_2 O 0.23340 0.21810 0.45250
O10A_2 O 0.15440 0.30740 0.64790
Mn2A_2 Mn 0.28220 0.01410 0.95990
Mn2_2 Mn 0.21780 1.51410 0.54010
O5_2 O 0.29260 1.25740 0.81890
H11A_2 H 0.17300 0.26200 0.70700
H2 H 0.11600 0.11800 -0.05800
H3 H 0.09900 0.26200 0.00300
H4 H -0.07100 0.28800 0.06800
H5 H -0.02700 0.30400 0.16000
H14 H 0.03200 -0.22200 0.23000
H15 H 0.07200 -0.08900 0.23800
Mn1 Mn 0.00000 0.00000 0.00000
O2 O 0.08940 0.16850 -0.01500
O3 O -0.04540 0.24270 0.10470
O12 O 0.04050 -0.11910 0.21100
H2B H -0.11600 -0.11800 0.05800
H3B H -0.09900 -0.26200 -0.00300
O2B O -0.08940 -0.16850 0.01500
H4B H 0.07100 -0.28800 -0.06800
H5B H 0.02700 -0.30400 -0.16000
O3B O 0.04540 -0.24270 -0.10470
H14B H -0.03200 0.22200 -0.23000
H15B H -0.07200 0.08900 -0.23800
O12B O -0.04050 0.11910 -0.21100
H6 H 0.13500 0.56000 0.14800
H7 H 0.17800 0.59300 0.06500
O4 O 0.13990 0.55580 0.07480
loop_
_geom_bond_atom_site_label_1
_geom_bond_atom_site_label_2
_geom_bond_site_symmetry_1
_geom_bond_site_symmetry_2
C1 C2 1_555 1_555
C2 C3 1_555 1_555
C3 C4 1_555 1_555
C4 C5 1_555 1_555
C5 O6 1_555 1_555
C6 C3 1_555 1_555
H1 C2 1_555 1_555
H2 O2 1_555 1_555
H3 O2 1_555 1_555
H4 O3 1_555 1_555
H5 O3 1_555 1_555
H6 O4 1_555 1_555
H7 O4 1_555 1_555
H8 C2 1_555 1_555
H9 C4 1_555 1_555
H10 C4 1_555 1_555
H11 O10 1_555 1_555
H12 O11 1_555 1_555
H13 O11 1_555 1_555
H14 O12 1_555 1_555
H15 O12 1_555 1_555
Mn1 O2 1_555 1_555
Mn2 O1 1_555 1_555
O1 C1 1_555 1_555
O3 Mn1 1_555 1_555
O5 C1 1_555 1_555
O7 C5 1_555 1_555
O8 C6 1_555 1_555
O9 C6 1_555 1_555
O10 C3 1_555 1_555
O11 Mn2 1_555 1_555
O12 Mn1 1_555 1_555
H2B O2B 1_555 1_555
H3B O2B 1_555 1_555
O2B Mn1 1_555 1_555
H4B O3B 1_555 1_555
H5B O3B 1_555 1_555
O3B Mn1 1_555 1_555
H14B O12B 1_555 1_555
H15B O12B 1_555 1_555
O12B Mn1 1_555 1_555
C1A C2A 1_555 1_555
C2A C3A 1_555 1_555
C3A C4A 1_555 1_555
C4A C5A 1_555 1_555
C5A O6A 1_555 1_555
C6A C3A 1_555 1_555
H1A C2A 1_555 1_555
H8A C2A 1_555 1_555
H9A C4A 1_555 1_555
H10A C4A 1_555 1_555
H11A O10A 1_555 1_555
O1A C1A 1_555 1_555
O5A Mn2 1_555 1_555
O7A C5A 1_555 1_555
O8A C6A 1_555 1_555
O9A C6A 1_555 1_555
O10A C3A 1_555 1_555
Mn2A O7 1_555 1_555
H12A O11A 1_555 1_555
H13A O11A 1_555 1_555
O11A Mn2A 1_555 1_555
O7A_2 Mn2 1_555 1_555
O8A_2 Mn2 1_555 1_555
O10A_2 Mn2 1_555 1_555
Mn2A_2 O5 1_555 1_555
Mn2_2 O7A 1_555 1_555
O5_2 Mn2A 1_555 1_555
H11A_2 O10A_2 1_555 1_555
O8 Mn2A 1_555 1_555
O10 Mn2A 1_555 1_555
C1A O5A 1_555 1_555
O1A Mn2A 1_555 1_555
O8A Mn2_2 1_555 1_555
O10A Mn2_2 1_555 1_555

#END
