
#######################################################################
#
#                 Cambridge Crystallographic Data Centre
#                                CCDC 
#
#######################################################################
#
# If this CIF has been generated from an entry in the Cambridge 
# Structural Database, then it will include bibliographic, chemical, 
# crystal, experimental, refinement or atomic coordinate data resulting 
# from the CCDC's data processing and validation procedures.
#
#######################################################################

data_MNGLUD
_symmetry_cell_setting           triclinic
_symmetry_space_group_name_H-M   'P 1'
_symmetry_Int_Tables_number      1
_space_group_name_Hall           'P 1'
loop_
_symmetry_equiv_pos_site_id
_symmetry_equiv_pos_as_xyz
1 x,y,z
_cell_length_a                   7.205(5)
_cell_length_b                   8.184(4)
_cell_length_c                   11.157(6)
_cell_angle_alpha                90.96(4)
_cell_angle_beta                 94.40(5)
_cell_angle_gamma                137.34(4)
_cell_volume                     441.882
loop_
_atom_site_label
_atom_site_type_symbol
_atom_site_fract_x
_atom_site_fract_y
_atom_site_fract_z
Mn1 Mn -0.50000 -0.50000 -0.50000
O1 O -0.06110 -0.24220 -0.47340
O2 O -0.39920 -0.67030 -0.40150
O3 O -0.12050 -0.35610 -0.18380
O4 O -0.18230 -0.65200 -0.03450
O5 O -0.22590 -1.01320 -0.14310
O6 O 0.36570 -0.66110 -0.12800
O7 O 0.31560 -0.12970 -0.39370
O8 O -0.90710 -0.82050 -0.47700
O9 O -0.46650 -0.29900 -0.35540
O10 O -0.63090 -0.37840 -0.60860
O11 O -1.03490 -0.47070 -0.71870
O12 O -0.65790 -0.22960 -0.89500
O13 O -0.78420 -0.01430 -0.99980
O14 O -1.13770 -0.03270 -0.90090
O15 O -0.52780 0.33600 -0.67650
O16 O -0.30700 0.02110 -0.63090
C1 C 0.05940 -0.27760 -0.41460
C2 C -0.11280 -0.52000 -0.36150
C3 C -0.04690 -0.46620 -0.22180
C4 C -0.19040 -0.69640 -0.16020
C5 C -0.05100 -0.77170 -0.17620
C6 C 0.23230 -0.59750 -0.10360
C7 C -0.54990 -0.18890 -0.64180
C8 C -0.76990 -0.21760 -0.69900
C9 C -0.68970 -0.11120 -0.82130
C10 C -0.89120 -0.12200 -0.88790
C11 C -0.94240 0.00310 -0.82030
C12 C -0.68650 0.27900 -0.78750
H1 H -0.51700 -0.82800 -0.41400
H2 H -0.29600 -0.47300 -0.16900
H3 H -0.38400 -0.84400 -0.01500
H4 H -0.19000 -0.99800 -0.05400
H5 H 0.31800 -0.76500 -0.07900
H6 H -1.03400 -0.58600 -0.69000
H7 H -0.84700 -0.38400 -0.93700
H8 H -0.90400 -0.14800 -1.07400
H9 H -1.28000 -0.08800 -0.87100
H10 H -0.31000 0.44800 -0.67200
H11 H -0.96000 -0.95500 -0.44500
H12 H -1.05400 -0.89000 -0.53100
H13 H -0.52700 -0.24000 -0.36300
H14 H -0.39200 -0.24900 -0.27800
H15 H -0.06100 -0.60800 -0.39100
H16 H 0.17100 -0.34500 -0.19300
H17 H -0.40400 -0.83900 -0.20600
H18 H -0.02500 -0.77000 -0.27000
H19 H 0.20800 -0.60900 -0.00700
H20 H 0.35600 -0.41700 -0.12400
H21 H -0.79200 -0.12800 -0.64100
H22 H -0.49800 0.07800 -0.80000
H23 H -1.09000 -0.31100 -0.90400
H24 H -1.01200 -0.08000 -0.73700
H25 H -0.75600 0.36000 -0.78000
H26 H -0.55800 0.35500 -0.86000
O15_2 O -0.52780 -0.66400 -0.67650
Mn1_2 Mn -0.50000 0.50000 -0.50000
H10_2 H -0.31000 -0.55200 -0.67200
loop_
_geom_bond_atom_site_label_1
_geom_bond_atom_site_label_2
_geom_bond_site_symmetry_1
_geom_bond_site_symmetry_2
Mn1 O1 1_555 1_555
O1 C1 1_555 1_555
O2 Mn1 1_555 1_555
O3 C3 1_555 1_555
O4 C4 1_555 1_555
O5 C5 1_555 1_555
O6 C6 1_555 1_555
O7 C1 1_555 1_555
O8 Mn1 1_555 1_555
O9 Mn1 1_555 1_555
O10 Mn1 1_555 1_555
O11 C8 1_555 1_555
O12 C9 1_555 1_555
O13 C10 1_555 1_555
O14 C11 1_555 1_555
O15 C12 1_555 1_555
O16 C7 1_555 1_555
C1 C2 1_555 1_555
C2 O2 1_555 1_555
C3 C2 1_555 1_555
C4 C3 1_555 1_555
C5 C4 1_555 1_555
C6 C5 1_555 1_555
C7 O10 1_555 1_555
C8 C7 1_555 1_555
C9 C8 1_555 1_555
C10 C9 1_555 1_555
C11 C10 1_555 1_555
C12 C11 1_555 1_555
H1 O2 1_555 1_555
H2 O3 1_555 1_555
H3 O4 1_555 1_555
H4 O5 1_555 1_555
H5 O6 1_555 1_555
H6 O11 1_555 1_555
H7 O12 1_555 1_555
H8 O13 1_555 1_555
H9 O14 1_555 1_555
H10 O15 1_555 1_555
H11 O8 1_555 1_555
H12 O8 1_555 1_555
H13 O9 1_555 1_555
H14 O9 1_555 1_555
H15 C2 1_555 1_555
H16 C3 1_555 1_555
H17 C4 1_555 1_555
H18 C5 1_555 1_555
H19 C6 1_555 1_555
H20 C6 1_555 1_555
H21 C8 1_555 1_555
H22 C9 1_555 1_555
H23 C10 1_555 1_555
H24 C11 1_555 1_555
H25 C12 1_555 1_555
H26 C12 1_555 1_555
O15_2 Mn1 1_555 1_555
Mn1_2 O15 1_555 1_555
H10_2 O15_2 1_555 1_555

#END
