
#######################################################################
#
#                 Cambridge Crystallographic Data Centre
#                                CCDC 
#
#######################################################################
#
# If this CIF has been generated from an entry in the Cambridge 
# Structural Database, then it will include bibliographic, chemical, 
# crystal, experimental, refinement or atomic coordinate data resulting 
# from the CCDC's data processing and validation procedures.
#
#######################################################################

data_MNHPHD
_symmetry_cell_setting           monoclinic
_symmetry_space_group_name_H-M   'P 2/c'
_symmetry_Int_Tables_number      13
_space_group_name_Hall           '-P 2yc'
loop_
_symmetry_equiv_pos_site_id
_symmetry_equiv_pos_as_xyz
1 x,y,z
2 -x,y,1/2-z
3 -x,-y,-z
4 x,-y,1/2+z
_cell_length_a                   13.018(6)
_cell_length_b                   5.158(1)
_cell_length_c                   12.940(6)
_cell_angle_alpha                90
_cell_angle_beta                 113.90(3)
_cell_angle_gamma                90
_cell_volume                     794.377
loop_
_atom_site_label
_atom_site_type_symbol
_atom_site_fract_x
_atom_site_fract_y
_atom_site_fract_z
Mn1 Mn 0.50000 0.00000 0.00000
C1 C 0.22060 0.33720 -0.16040
C2 C 0.14120 0.13960 -0.19380
C3 C 0.07300 0.10440 -0.30700
C4 C 0.08480 0.26010 -0.38710
C5 C 0.16580 0.45280 -0.35470
C6 C 0.23420 0.49290 -0.24180
C7 C 0.28500 0.37690 -0.03590
C8 C 0.32140 0.70680 -0.20660
O1 O 0.36950 0.25990 0.02370
O2 O 0.23170 0.53920 0.00400
O3 O 0.37200 0.74510 -0.10280
O4 O 0.33850 0.83290 -0.28220
O5 O 0.48300 0.20270 -0.15310
H1 H 0.13200 0.05100 -0.13700
H2 H 0.01800 -0.02600 -0.32800
H3 H 0.03800 0.23500 -0.46600
H4 H 0.17800 0.54600 -0.41100
H5 H 0.26500 0.56800 0.07800
H6 H 0.43300 0.12100 -0.21300
H7 H 0.53700 0.20700 -0.17000
O1B O 0.63050 -0.25990 -0.02370
O3B O 0.62800 0.25490 0.10280
O5B O 0.51700 -0.20270 0.15310
O3_2 O 0.37200 -0.25490 -0.10280
C7B C 0.71500 -0.37690 0.03590
H6B H 0.56700 -0.12100 0.21300
H7B H 0.46300 -0.20700 0.17000
C1B C 0.77940 -0.33720 0.16040
O2B O 0.76830 -0.53920 -0.00400
C2B C 0.85880 -0.13960 0.19380
C6B C 0.76580 -0.49290 0.24180
H5B H 0.73500 -0.56800 -0.07800
C3B C 0.92700 -0.10440 0.30700
H1B H 0.86800 -0.05100 0.13700
C4B C 0.91520 -0.26010 0.38710
H2B H 0.98200 0.02600 0.32800
Mn1_2 Mn 0.50000 1.00000 0.00000
C5B C 0.83420 -0.45280 0.35470
C8B C 0.67860 -0.70680 0.20660
H3B H 0.96200 -0.23500 0.46600
H4B H 0.82200 -0.54600 0.41100
O3B_2 O 0.62800 -0.74510 0.10280
O4B O 0.66150 -0.83290 0.28220
Mn1_3 Mn 0.50000 -1.00000 0.00000
loop_
_geom_bond_atom_site_label_1
_geom_bond_atom_site_label_2
_geom_bond_site_symmetry_1
_geom_bond_site_symmetry_2
Mn1 O1 1_555 1_555
C1 C2 1_555 1_555
C2 C3 1_555 1_555
C3 C4 1_555 1_555
C4 C5 1_555 1_555
C5 C6 1_555 1_555
C6 C1 1_555 1_555
C7 C1 1_555 1_555
C8 C6 1_555 1_555
O1 C7 1_555 1_555
O2 C7 1_555 1_555
O3 C8 1_555 1_555
O4 C8 1_555 1_555
O5 Mn1 1_555 1_555
H1 C2 1_555 1_555
H2 C3 1_555 1_555
H3 C4 1_555 1_555
H4 C5 1_555 1_555
H5 O2 1_555 1_555
H6 O5 1_555 1_555
H7 O5 1_555 1_555
O1B Mn1 1_555 1_555
O3B Mn1 1_555 1_555
O5B Mn1 1_555 1_555
O3_2 Mn1 1_555 1_555
C7B O1B 1_555 1_555
H6B O5B 1_555 1_555
H7B O5B 1_555 1_555
C1B C7B 1_555 1_555
O2B C7B 1_555 1_555
C2B C1B 1_555 1_555
C6B C1B 1_555 1_555
H5B O2B 1_555 1_555
C3B C2B 1_555 1_555
H1B C2B 1_555 1_555
C4B C3B 1_555 1_555
H2B C3B 1_555 1_555
Mn1_2 O3 1_555 1_555
C5B C6B 1_555 1_555
C8B C6B 1_555 1_555
H3B C4B 1_555 1_555
H4B C5B 1_555 1_555
O3B_2 C8B 1_555 1_555
O4B C8B 1_555 1_555
Mn1_3 O3B_2 1_555 1_555
C4B C5B 1_555 1_555

#END
