
#######################################################################
#
#                 Cambridge Crystallographic Data Centre
#                                CCDC 
#
#######################################################################
#
# If this CIF has been generated from an entry in the Cambridge 
# Structural Database, then it will include bibliographic, chemical, 
# crystal, experimental, refinement or atomic coordinate data resulting 
# from the CCDC's data processing and validation procedures.
#
#######################################################################

data_MNMLTH
_symmetry_cell_setting           orthorhombic
_symmetry_space_group_name_H-M   'P 21 21 21'
_symmetry_Int_Tables_number      19
_space_group_name_Hall           'P 2ac 2ab'
loop_
_symmetry_equiv_pos_site_id
_symmetry_equiv_pos_as_xyz
1 x,y,z
2 1/2+x,1/2-y,-z
3 -x,1/2+y,1/2-z
4 1/2-x,-y,1/2+z
_cell_length_a                   9.152(1)
_cell_length_b                   9.357(3)
_cell_length_c                   10.448(2)
_cell_angle_alpha                90
_cell_angle_beta                 90
_cell_angle_gamma                90
_cell_volume                     894.717
loop_
_atom_site_label
_atom_site_type_symbol
_atom_site_fract_x
_atom_site_fract_y
_atom_site_fract_z
Mn1 Mn 0.73087 -0.15854 0.11084
O1 O 0.73390 0.03360 -0.00440
O2 O 0.78180 0.26650 -0.00300
O3 O 0.73500 0.27420 0.43990
O4 O 0.50030 0.32670 0.42940
O5 O 0.70540 0.01870 0.24370
O6 O 0.73050 -0.32860 0.24780
O7 O 0.96810 -0.12500 0.14340
C1 C 0.75300 0.15180 0.04940
C2 C 0.73710 0.15690 0.19640
C3 C 0.62070 0.26310 0.23530
C4 C 0.61730 0.28840 0.37900
H1 H 0.83200 0.19500 0.23000
H2 H 0.69600 0.01200 0.32400
H3 H 0.63300 0.35100 0.19900
H4 H 0.52800 0.22700 0.21600
H5 H 0.74800 -0.31100 0.32600
H6 H 0.79000 -0.39000 0.22000
H7 H 0.97800 -0.09000 0.21500
H8 H 1.03400 -0.18000 0.10700
O3C O 0.76500 -0.27420 -0.06010
O4B O 0.49970 -0.17330 0.07060
Mn1C Mn 0.76913 0.15854 0.61084
Mn1B Mn 0.26913 0.34146 0.38916
O8 O 0.91730 0.47910 0.13300
H9 H 0.95200 0.51700 0.08200
H10 H 0.87800 0.40700 0.08200
loop_
_geom_bond_atom_site_label_1
_geom_bond_atom_site_label_2
_geom_bond_site_symmetry_1
_geom_bond_site_symmetry_2
Mn1 O1 1_555 1_555
O1 C1 1_555 1_555
O2 C1 1_555 1_555
O3 C4 1_555 1_555
O4 C4 1_555 1_555
O5 Mn1 1_555 1_555
O6 Mn1 1_555 1_555
O7 Mn1 1_555 1_555
O8 H9 1_555 1_555
C1 C2 1_555 1_555
C2 O5 1_555 1_555
C3 C2 1_555 1_555
C4 C3 1_555 1_555
H1 C2 1_555 1_555
H2 O5 1_555 1_555
H3 C3 1_555 1_555
H4 C3 1_555 1_555
H5 O6 1_555 1_555
H6 O6 1_555 1_555
H7 O7 1_555 1_555
H8 O7 1_555 1_555
H10 O8 1_555 1_555
O3C Mn1 1_555 1_555
O4B Mn1 1_555 1_555
Mn1C O3 1_555 1_555
Mn1B O4 1_555 1_555

#END
