
#######################################################################
#
#                 Cambridge Crystallographic Data Centre
#                                CCDC 
#
#######################################################################
#
# If this CIF has been generated from an entry in the Cambridge 
# Structural Database, then it will include bibliographic, chemical, 
# crystal, experimental, refinement or atomic coordinate data resulting 
# from the CCDC's data processing and validation procedures.
#
#######################################################################

data_MNPROP
_symmetry_cell_setting           monoclinic
_symmetry_space_group_name_H-M   'C 2/c'
_symmetry_Int_Tables_number      15
_space_group_name_Hall           '-C 2yn'
loop_
_symmetry_equiv_pos_site_id
_symmetry_equiv_pos_as_xyz
1 x,y,z
2 1/2+x,1/2+y,z
3 -x,y,1/2-z
4 1/2-x,1/2+y,1/2-z
5 -x,-y,-z
6 1/2-x,1/2-y,-z
7 x,-y,1/2+z
8 1/2+x,1/2-y,1/2+z
_cell_length_a                   22.857(9)
_cell_length_b                   6.645(3)
_cell_length_c                   14.057(6)
_cell_angle_alpha                90
_cell_angle_beta                 114.28(3)
_cell_angle_gamma                90
_cell_volume                     1946.19
loop_
_atom_site_label
_atom_site_type_symbol
_atom_site_fract_x
_atom_site_fract_y
_atom_site_fract_z
Mn1 Mn 0.23987 0.01577 0.23995
O1 O 0.30749 0.25379 0.36066
O3 O 0.28406 0.09353 0.13519
O4 O 0.19875 -0.07703 0.34362
O5 O 0.31670 -0.21175 0.30268
O6 O 0.39670 0.00875 0.36273
C1 C 0.30922 0.25304 0.12252
C2 C 0.35344 0.24415 0.06685
C3 C 0.42124 0.20468 0.14344
C4 C 0.37708 -0.16515 0.34007
C5 C 0.42394 -0.33471 0.35668
C6 C 0.49326 -0.27526 0.40118
H1 H 0.34100 0.18200 0.36400
H2 H 0.31800 0.27300 0.43200
H5 H 0.35200 0.37000 0.02300
H6 H 0.33900 0.11000 0.01800
H7 H 0.41000 -0.41000 0.29500
H8 H 0.41200 -0.44500 0.38500
H9 H 0.42000 0.09000 0.20500
H10 H 0.43200 0.31800 0.18200
H11 H 0.45500 0.18200 0.11400
H12 H 0.52300 -0.41000 0.40900
H13 H 0.50000 -0.18200 0.47700
H14 H 0.50000 -0.18200 0.34100
O1C O 0.19251 -0.24621 0.13934
O5C O 0.18330 0.28825 0.19732
Mn1C Mn 0.26013 0.51577 0.26005
C1C C 0.19078 -0.24696 0.37748
Mn1C_2 Mn 0.26013 -0.48423 0.26005
O4C O 0.30125 0.42297 0.15638
H1C H 0.15900 -0.31800 0.13600
H2C H 0.18200 -0.22700 0.06800
C4C C 0.12292 0.33485 0.15993
O3C O 0.21594 -0.40647 0.36481
C2C C 0.14656 -0.25585 0.43315
O6C O 0.10330 0.50875 0.13727
C5C C 0.07606 0.16529 0.14332
C3C C 0.07876 -0.29532 0.35656
H5C H 0.14800 -0.13000 0.47700
H6C H 0.16100 -0.39000 0.48200
C6C C 0.00674 0.22474 0.09882
H7C H 0.09000 0.09000 0.20500
H8C H 0.08800 0.05500 0.11500
H9C H 0.08000 -0.41000 0.29500
H10C H 0.06800 -0.18200 0.31800
H11C H 0.04500 -0.31800 0.38600
H12C H -0.02300 0.09000 0.09100
H13C H 0.00000 0.31800 0.02300
H14C H 0.00000 0.31800 0.15900
O1_2 O 0.30749 -0.74621 0.36066
O4C_2 O 0.30125 -0.57703 0.15638
O5C_2 O 0.18330 -0.71175 0.19732
H1_2 H 0.34100 -0.81800 0.36400
H2_2 H 0.31800 -0.72700 0.43200
O2 O 0.17225 0.25457 0.43938
H3 H 0.19300 0.36400 0.43200
H4 H 0.19300 0.13600 0.43200
loop_
_geom_bond_atom_site_label_1
_geom_bond_atom_site_label_2
_geom_bond_site_symmetry_1
_geom_bond_site_symmetry_2
Mn1 O1 1_555 1_555
O1 H1 1_555 1_555
O2 H3 1_555 1_555
O3 Mn1 1_555 1_555
O4 Mn1 1_555 1_555
O5 Mn1 1_555 1_555
O6 C4 1_555 1_555
C1 O3 1_555 1_555
C2 C1 1_555 1_555
C3 C2 1_555 1_555
C4 O5 1_555 1_555
C5 C4 1_555 1_555
C6 C5 1_555 1_555
H2 O1 1_555 1_555
H4 O2 1_555 1_555
H5 C2 1_555 1_555
H6 C2 1_555 1_555
H7 C5 1_555 1_555
H8 C5 1_555 1_555
H9 C3 1_555 1_555
H10 C3 1_555 1_555
H11 C3 1_555 1_555
H12 C6 1_555 1_555
H13 C6 1_555 1_555
H14 C6 1_555 1_555
O1C Mn1 1_555 1_555
O5C Mn1 1_555 1_555
Mn1C O1 1_555 1_555
C1C O4 1_555 1_555
Mn1C_2 O5 1_555 1_555
O4C C1 1_555 1_555
H1C O1C 1_555 1_555
H2C O1C 1_555 1_555
C4C O5C 1_555 1_555
O3C C1C 1_555 1_555
C2C C1C 1_555 1_555
O6C C4C 1_555 1_555
C5C C4C 1_555 1_555
C3C C2C 1_555 1_555
H5C C2C 1_555 1_555
H6C C2C 1_555 1_555
C6C C5C 1_555 1_555
H7C C5C 1_555 1_555
H8C C5C 1_555 1_555
H9C C3C 1_555 1_555
H10C C3C 1_555 1_555
H11C C3C 1_555 1_555
H12C C6C 1_555 1_555
H13C C6C 1_555 1_555
H14C C6C 1_555 1_555
O1_2 Mn1C_2 1_555 1_555
O4C_2 Mn1C_2 1_555 1_555
O5C_2 Mn1C_2 1_555 1_555
H1_2 O1_2 1_555 1_555
H2_2 O1_2 1_555 1_555
O1C Mn1C_2 1_555 1_555
O5C Mn1C 1_555 1_555
Mn1C O4C 1_555 1_555
Mn1C_2 O3C 1_555 1_555

#END
