
#######################################################################
#
#                 Cambridge Crystallographic Data Centre
#                                CCDC 
#
#######################################################################
#
# If this CIF has been generated from an entry in the Cambridge 
# Structural Database, then it will include bibliographic, chemical, 
# crystal, experimental, refinement or atomic coordinate data resulting 
# from the CCDC's data processing and validation procedures.
#
#######################################################################

data_MNPROS10
_symmetry_cell_setting           monoclinic
_symmetry_space_group_name_H-M   'C c'
_symmetry_Int_Tables_number      9
_space_group_name_Hall           'C -2yc'
loop_
_symmetry_equiv_pos_site_id
_symmetry_equiv_pos_as_xyz
1 x,y,z
2 1/2+x,1/2+y,z
3 x,-y,1/2+z
4 1/2+x,1/2-y,1/2+z
_cell_length_a                   8.165(2)
_cell_length_b                   16.857(5)
_cell_length_c                   9.222(2)
_cell_angle_alpha                90
_cell_angle_beta                 92.02(2)
_cell_angle_gamma                90
_cell_volume                     1268.5
loop_
_atom_site_label
_atom_site_type_symbol
_atom_site_fract_x
_atom_site_fract_y
_atom_site_fract_z
S1 S 0.18673 0.22990 0.59644
O7 O 0.35530 0.21590 0.54130
O8 O 0.14640 0.16260 0.68930
O9 O 0.07050 0.23530 0.47400
O10 O 0.18580 0.30420 0.67970
Mn1 Mn 0.18000 0.09001 0.14000
O1 O 0.36660 0.07340 -0.02340
O2 O 0.24690 0.01200 0.32400
O3 O -0.01830 0.12880 0.27240
O4 O 0.35630 0.17010 0.24660
O5 O 0.07810 0.16820 -0.02060
O6 O 0.05320 -0.01730 0.06160
N1 N 0.54310 0.13860 -0.23900
C1 C 0.35250 0.03730 -0.14230
C2 C 0.48050 0.05450 -0.25260
C3 C 0.63380 0.00210 -0.22950
C4 C 0.77100 0.05880 -0.18700
C5 C 0.72420 0.13530 -0.25950
H1 H 0.42500 0.04600 -0.35100
H2 H 0.61600 -0.03800 -0.15200
H3 H 0.65900 -0.02700 -0.32200
H4 H 0.77800 0.06500 -0.07800
H5 H 0.88000 0.03800 -0.21900
H6 H 0.78400 0.18300 -0.21500
H7 H 0.75100 0.13500 -0.36800
H8 H 0.48600 0.17400 -0.31500
H9 H 0.52000 0.16000 -0.14100
H10 H 0.00000 0.16100 0.35700
H11 H -0.08800 0.16000 0.23200
H12 H 0.35400 0.18000 0.33600
H13 H 0.46400 0.16100 0.21400
H14 H 0.10300 0.17000 -0.11400
H15 H 0.00000 0.21400 0.00000
H16 H 0.07500 -0.06500 0.10700
H17 H 0.07900 -0.02300 -0.02600
C1B C 0.35250 -0.03730 0.35770
O2B O 0.24690 -0.01200 -0.17600
O1B O 0.36660 -0.07340 0.47660
C2B C 0.48050 -0.05450 0.24740
Mn1B Mn 0.18000 -0.09001 -0.36000
Mn1B_2 Mn 0.18000 -0.09001 0.64000
N1B N 0.54310 -0.13860 0.26100
C3B C 0.63380 -0.00210 0.27050
H1B H 0.42500 -0.04600 0.14900
O1B_2 O 0.36660 -0.07340 -0.52340
O3B O -0.01830 -0.12880 -0.22760
O4B O 0.35630 -0.17010 -0.25340
O5B O 0.07810 -0.16820 -0.52060
O6B O 0.05320 0.01730 -0.43840
C5B C 0.72420 -0.13530 0.24050
H8B H 0.48600 -0.17400 0.18500
H9B H 0.52000 -0.16000 0.35900
C4B C 0.77100 -0.05880 0.31300
H2B H 0.61600 0.03800 0.34800
H3B H 0.65900 0.02700 0.17800
H10B H 0.00000 -0.16100 -0.14300
H11B H -0.08800 -0.16000 -0.26800
H12B H 0.35400 -0.18000 -0.16400
H13B H 0.46400 -0.16100 -0.28600
H14B H 0.10300 -0.17000 -0.61400
H15B H 0.00000 -0.21400 -0.50000
H16B H 0.07500 0.06500 -0.39300
H17B H 0.07900 0.02300 -0.52600
H6B H 0.78400 -0.18300 0.28500
H7B H 0.75100 -0.13500 0.13200
H4B H 0.77800 -0.06500 0.42200
H5B H 0.88000 -0.03800 0.28100
loop_
_geom_bond_atom_site_label_1
_geom_bond_atom_site_label_2
_geom_bond_site_symmetry_1
_geom_bond_site_symmetry_2
Mn1 O1 1_555 1_555
S1 O7 1_555 1_555
O1 C1 1_555 1_555
O2 Mn1 1_555 1_555
O3 Mn1 1_555 1_555
O4 Mn1 1_555 1_555
O5 Mn1 1_555 1_555
O6 Mn1 1_555 1_555
O8 S1 1_555 1_555
O9 S1 1_555 1_555
O10 S1 1_555 1_555
N1 C2 1_555 1_555
C1 C2 1_555 1_555
C2 C3 1_555 1_555
C3 C4 1_555 1_555
C4 C5 1_555 1_555
C5 N1 1_555 1_555
H1 C2 1_555 1_555
H2 C3 1_555 1_555
H3 C3 1_555 1_555
H4 C4 1_555 1_555
H5 C4 1_555 1_555
H6 C5 1_555 1_555
H7 C5 1_555 1_555
H8 N1 1_555 1_555
H9 N1 1_555 1_555
H10 O3 1_555 1_555
H11 O3 1_555 1_555
H12 O4 1_555 1_555
H13 O4 1_555 1_555
H14 O5 1_555 1_555
H15 O5 1_555 1_555
H16 O6 1_555 1_555
H17 O6 1_555 1_555
C1B O2 1_555 1_555
O2B C1 1_555 1_555
O1B C1B 1_555 1_555
C2B C1B 1_555 1_555
Mn1B O2B 1_555 1_555
Mn1B_2 O1B 1_555 1_555
N1B C2B 1_555 1_555
C3B C2B 1_555 1_555
H1B C2B 1_555 1_555
O1B_2 Mn1B 1_555 1_555
O3B Mn1B 1_555 1_555
O4B Mn1B 1_555 1_555
O5B Mn1B 1_555 1_555
O6B Mn1B 1_555 1_555
C5B N1B 1_555 1_555
H8B N1B 1_555 1_555
H9B N1B 1_555 1_555
C4B C3B 1_555 1_555
H2B C3B 1_555 1_555
H3B C3B 1_555 1_555
H10B O3B 1_555 1_555
H11B O3B 1_555 1_555
H12B O4B 1_555 1_555
H13B O4B 1_555 1_555
H14B O5B 1_555 1_555
H15B O5B 1_555 1_555
H16B O6B 1_555 1_555
H17B O6B 1_555 1_555
H6B C5B 1_555 1_555
H7B C5B 1_555 1_555
H4B C4B 1_555 1_555
H5B C4B 1_555 1_555
C5B C4B 1_555 1_555

#END
