
#######################################################################
#
#                 Cambridge Crystallographic Data Centre
#                                CCDC 
#
#######################################################################
#
# If this CIF has been generated from an entry in the Cambridge 
# Structural Database, then it will include bibliographic, chemical, 
# crystal, experimental, refinement or atomic coordinate data resulting 
# from the CCDC's data processing and validation procedures.
#
#######################################################################

data_MOBBOU
_symmetry_cell_setting           monoclinic
_symmetry_space_group_name_H-M   'C 2/c'
_symmetry_Int_Tables_number      15
_space_group_name_Hall           '-C 2yn'
loop_
_symmetry_equiv_pos_site_id
_symmetry_equiv_pos_as_xyz
1 x,y,z
2 1/2+x,1/2+y,z
3 x,-y,1/2+z
4 1/2+x,1/2-y,1/2+z
5 -x,-y,-z
6 1/2-x,1/2-y,-z
7 -x,y,1/2-z
8 1/2-x,1/2+y,1/2-z
_cell_length_a                   13.884(1)
_cell_length_b                   11.522(1)
_cell_length_c                   12.720(1)
_cell_angle_alpha                90
_cell_angle_beta                 96.231(8)
_cell_angle_gamma                90
_cell_volume                     2022.82
loop_
_atom_site_label
_atom_site_type_symbol
_atom_site_fract_x
_atom_site_fract_y
_atom_site_fract_z
Th1 Th 0.0000 0.26515(5) 0.2500
Cl1 Cl 0.39767(19) 0.2663(4) 0.3266(2)
O1 O 0.1807(5) 0.2879(7) 0.2986(5)
O2 O 0.4370(5) 0.2024(7) 0.5587(6)
C1 C 0.2188(7) 0.2730(10) 0.3906(8)
C2 C 0.3505(7) 0.2296(11) 0.5256(8)
C3 C 0.3182(7) 0.2552(10) 0.4212(8)
Cl2 Cl -0.2002(2) -0.1019(3) 0.0586(3)
O3 O -0.0769(5) 0.0848(7) 0.1684(6)
O4 O -0.0913(5) -0.1640(6) -0.1242(6)
C4 C -0.0438(7) 0.0402(10) 0.0899(9)
C5 C -0.0525(8) -0.0874(9) -0.0612(9)
C6 C -0.0923(8) -0.0468(10) 0.0229(9)
O5 O 0.0716(6) 0.4383(7) 0.1738(7)
C2E C 0.1495(7) 0.2704(11) 0.4744(8)
O2E O 0.0630(5) 0.2976(7) 0.4413(6)
C3E C 0.1818(7) 0.2448(10) 0.5788(8)
Cl1E Cl 0.10233(19) 0.2337(4) 0.6734(2)
C1E C 0.2812(7) 0.2270(10) 0.6094(8)
O1E O 0.3193(5) 0.2121(7) 0.7014(5)
C5D C 0.0525(8) 0.0874(9) 0.0612(9)
O4D O 0.0913(5) 0.1640(6) 0.1242(6)
C6D C 0.0923(8) 0.0468(10) -0.0229(9)
Cl2D Cl 0.2002(2) 0.1019(3) -0.0586(3)
C4D C 0.0438(7) -0.0402(10) -0.0899(9)
O3D O 0.0769(5) -0.0848(7) -0.1684(6)
O5F O -0.0716(6) 0.4383(7) 0.3262(7)
O1F O -0.1807(5) 0.2879(7) 0.2014(5)
O2C O -0.0630(5) 0.2976(7) 0.0587(6)
O3F O 0.0769(5) 0.0848(7) 0.3316(6)
O4B O -0.0913(5) 0.1640(6) 0.3758(6)
Th1C Th 0.5000 0.23485(5) 0.7500
Th1B Th 0.0000 -0.26515(5) -0.2500
O6 O 0.2679(7) 0.0376(9) 0.2208(8)
O7 O 0.4301(7) 0.0810(11) 0.0755(9)
loop_
_geom_bond_atom_site_label_1
_geom_bond_atom_site_label_2
_geom_bond_site_symmetry_1
_geom_bond_site_symmetry_2
Th1 O1 1_555 1_555
Cl1 C3 1_555 1_555
O1 C1 1_555 1_555
O2 C2 1_555 1_555
C1 C3 1_555 1_555
C2 C3 1_555 1_555
Cl2 C6 1_555 1_555
O3 Th1 1_555 1_555
O4 C5 1_555 1_555
C4 O3 1_555 1_555
C5 C6 1_555 1_555
C6 C4 1_555 1_555
O5 Th1 1_555 1_555
C2E C1 1_555 1_555
O2E Th1 1_555 1_555
C3E C2E 1_555 1_555
Cl1E C3E 1_555 1_555
C1E C2 1_555 1_555
O1E C1E 1_555 1_555
C5D C4 1_555 1_555
O4D Th1 1_555 1_555
C6D C5D 1_555 1_555
Cl2D C6D 1_555 1_555
C4D C5 1_555 1_555
O3D C4D 1_555 1_555
O5F Th1 1_555 1_555
O1F Th1 1_555 1_555
O2C Th1 1_555 1_555
O3F Th1 1_555 1_555
O4B Th1 1_555 1_555
Th1C O2 1_555 1_555
Th1B O4 1_555 1_555
C2E O2E 1_555 1_555
C3E C1E 1_555 1_555
O1E Th1C 1_555 1_555
C5D O4D 1_555 1_555
C6D C4D 1_555 1_555
O3D Th1B 1_555 1_555

#END
