
#######################################################################
#
#                 Cambridge Crystallographic Data Centre
#                                CCDC 
#
#######################################################################
#
# If this CIF has been generated from an entry in the Cambridge 
# Structural Database, then it will include bibliographic, chemical, 
# crystal, experimental, refinement or atomic coordinate data resulting 
# from the CCDC's data processing and validation procedures.
#
#######################################################################

data_MOBFEP
_symmetry_cell_setting           triclinic
_symmetry_space_group_name_H-M   'P -1'
_symmetry_Int_Tables_number      2
_space_group_name_Hall           '-P 1'
loop_
_symmetry_equiv_pos_site_id
_symmetry_equiv_pos_as_xyz
1 x,y,z
2 -x,-y,-z
_cell_length_a                   11.5021(5)
_cell_length_b                   13.2108(9)
_cell_length_c                   20.0315(13)
_cell_angle_alpha                99.997(5)
_cell_angle_beta                 91.157(4)
_cell_angle_gamma                114.800(5)
_cell_volume                     2706.4
loop_
_atom_site_label
_atom_site_type_symbol
_atom_site_fract_x
_atom_site_fract_y
_atom_site_fract_z
Cs1 Cs 0.19469(6) 0.67650(6) 0.35339(4)
Cs2 Cs 0.67675(8) 0.80722(8) 0.21666(4)
Co1 Co 0.42122(9) 0.21988(8) 0.18089(5)
Co2 Co 0.61378(9) 0.38496(8) 0.30923(5)
Co3 Co 0.56443(9) 0.12569(8) 0.27339(5)
Co4 Co 0.34125(9) 0.19647(8) 0.32782(5)
Co5 Co 0.23392(10) 0.21346(9) 0.58480(6)
Co6 Co 1.0000 0.5000 0.5000
Co7 Co 1.20249(9) 0.97719(9) 0.94374(5)
Co8 Co 0.1789(2) 0.50343(19) 0.07103(11)
O1 O 0.6081(4) 0.2676(4) 0.2239(2)
O2 O 0.6580(5) 0.0899(4) 0.1893(2)
O3 O 0.7895(5) 0.1663(4) 0.1136(3)
O4 O 0.7569(5) 0.5078(4) 0.2658(3)
O5 O 0.9447(5) 0.5710(5) 0.2242(3)
O6 O 0.4802(5) 0.1597(4) 0.0899(3)
O7 O 0.5952(5) 0.2091(4) 0.0040(2)
O8 O 0.4208(4) 0.3247(4) 0.2712(2)
O9 O 0.3858(5) 0.3311(4) 0.1312(3)
O10 O 0.2616(6) 0.4139(5) 0.1103(3)
O11 O 0.5827(5) 0.5180(4) 0.3690(3)
O12 O 0.6028(5) 0.6845(5) 0.3487(3)
O13 O 0.2882(5) 0.3229(4) 0.3765(3)
O14 O 0.2599(6) 0.4743(5) 0.3619(3)
O15 O 0.5392(4) 0.2375(4) 0.3520(2)
O16 O 0.7550(4) 0.4213(4) 0.3871(3)
O17 O 0.8042(4) 0.3760(4) 0.4827(3)
O18 O 0.7275(5) 0.1472(4) 0.3348(3)
O19 O 0.7963(6) 0.1124(6) 0.4278(3)
O20 O 0.3431(5) 0.1514(4) 0.5253(3)
O21 O 0.3119(5) 0.1268(4) 0.4141(3)
O22 O 0.3747(4) 0.0970(4) 0.2439(2)
O23 O 0.4908(5) -0.0490(4) 0.2729(2)
O24 O 0.3677(7) -0.2265(5) 0.2292(4)
O25 O 0.2362(4) 0.0999(4) 0.1392(2)
O26 O 0.0875(4) -0.0777(4) 0.1332(3)
O27 O 0.1415(4) 0.0921(4) 0.2987(3)
O28 O -0.0128(5) -0.0792(5) 0.2952(3)
O29 O 0.1277(5) 0.2737(5) 0.6541(3)
O30 O 0.2565(5) 0.3423(5) 0.5238(3)
O31 O 0.2026(6) 0.0806(5) 0.6371(3)
O32 O 0.0584(5) 0.1191(5) 0.5266(3)
O33 O 0.9604(6) 0.5873(6) 0.5854(4)
O34 O 0.9681(6) 0.6032(6) 0.4404(4)
O35 O 1.0990(6) 0.9926(5) 0.8646(3)
O36 O 1.1990(5) 1.1224(4) 1.0088(2)
O37 O 1.0428(5) 0.8739(5) 0.9894(3)
O38 O 1.3778(5) 1.0902(4) 0.9080(3)
O39 O 1.3104(5) 0.9603(4) 1.0219(2)
O40 O -0.0028(8) 0.3702(8) 0.0658(6)
O41 O 0.1559(9) 0.5768(9) 0.1682(5)
O42 O 0.2207(12) 0.4422(11) -0.0267(5)
O43 O 0.3546(15) 0.6449(13) 0.0817(7)
O44 O 0.0947(18) 0.5977(15) 0.0262(9)
C1 C 0.7103(6) 0.2866(6) 0.1820(4)
C2 C 0.7218(7) 0.1719(6) 0.1604(4)
C3 C 0.8375(6) 0.3720(6) 0.2216(4)
H1 H 0.8478 0.3487 0.2638
H2 H 0.9072 0.3715 0.1952
C4 C 0.8478(7) 0.4909(7) 0.2378(4)
C5 C 0.6827(7) 0.3212(6) 0.1172(3)
H3 H 0.7619 0.3515 0.0959
H4 H 0.6555 0.3817 0.1292
C6 C 0.5800(7) 0.2244(7) 0.0659(4)
C7 C 0.3587(6) 0.3979(6) 0.2748(4)
C8 C 0.2512(7) 0.3556(7) 0.2176(4)
H5 H 0.1997 0.3978 0.2266
H6 H 0.1958 0.2760 0.2163
C9 C 0.3029(8) 0.3690(7) 0.1489(4)
C10 C 0.4564(7) 0.5200(6) 0.2737(4)
H7 H 0.5027 0.5180 0.2339
H8 H 0.4094 0.5647 0.2684
C11 C 0.5537(7) 0.5802(7) 0.3357(4)
C12 C 0.2977(7) 0.3995(7) 0.3446(4)
C13 C 0.5940(6) 0.2548(6) 0.4196(4)
C14 C 0.7279(6) 0.3597(6) 0.4312(4)
C15 C 0.6133(6) 0.1520(6) 0.4319(4)
H9 H 0.6328 0.1602 0.4805
H10 H 0.5335 0.0840 0.4173
C16 C 0.7199(7) 0.1369(6) 0.3951(4)
C17 C 0.5090(7) 0.2820(6) 0.4709(4)
H11 H 0.4943 0.3450 0.4606
H12 H 0.5542 0.3058 0.5163
C18 C 0.3782(7) 0.1798(6) 0.4700(4)
C19 C 0.2789(7) -0.0098(6) 0.2119(3)
C20 C 0.3361(7) -0.0906(6) 0.1775(4)
H13 H 0.2677 -0.1583 0.1503
H14 H 0.3977 -0.0529 0.1473
C21 C 0.4016(8) -0.1243(7) 0.2293(4)
C22 C 0.1928(7) 0.0049(7) 0.1576(4)
C23 C 0.1899(7) -0.0657(7) 0.2662(4)
H15 H 0.1388 -0.1459 0.2473
H16 H 0.2436 -0.0601 0.3059
C24 C 0.1010(7) -0.0127(7) 0.2885(4)
Co1A Co 1.57878(9) 0.78012(8) 0.81911(5)
Co1A_2 Co 0.57878(9) 0.78012(8) 0.81911(5)
Co2A Co 1.38622(9) 0.61504(8) 0.69077(5)
Co2A_2 Co 0.38622(9) 0.61504(8) 0.69077(5)
Co3A Co 1.43557(9) 0.87431(8) 0.72661(5)
Co4A Co 1.65875(9) 0.80353(8) 0.67218(5)
Co4A_2 Co 0.65875(9) 0.80353(8) 0.67218(5)
Co5A Co 1.76608(10) 0.78654(9) 0.41520(6)
Co5A_2 Co 0.76608(10) 0.78654(9) 0.41520(6)
Co7A Co 0.79751(9) 0.02281(9) 0.05626(5)
Co8A Co 0.8211(2) 0.49657(19) 0.92897(11)
O1A O 1.3919(4) 0.7324(4) 0.7761(2)
O2A O 1.3420(5) 0.9101(4) 0.8107(2)
O3A O 1.2105(5) 0.8337(4) 0.8864(3)
O4A O 1.2431(5) 0.4922(4) 0.7342(3)
O5A O 1.0553(5) 0.4290(5) 0.7758(3)
O6A O 1.5198(5) 0.8403(4) 0.9101(3)
O7A O 1.4048(5) 0.7909(4) 0.9960(2)
O8A O 0.5792(4) 0.6753(4) 0.7288(2)
O8A_2 O 1.5792(4) 0.6753(4) 0.7288(2)
O9A O 0.6142(5) 0.6689(4) 0.8688(3)
O9A_2 O 1.6142(5) 0.6689(4) 0.8688(3)
O10A O 0.7384(6) 0.5861(5) 0.8897(3)
O11A O 0.4173(5) 0.4820(4) 0.6310(3)
O11A_2 O 1.4173(5) 0.4820(4) 0.6310(3)
O12A O 0.3972(5) 0.3155(5) 0.6513(3)
O12_2 O 1.6028(5) 0.6845(5) 0.3487(3)
O13A O 0.7118(5) 0.6771(4) 0.6235(3)
O13A_2 O 1.7118(5) 0.6771(4) 0.6235(3)
O14A O 0.7401(6) 0.5257(5) 0.6381(3)
O15A O 1.4608(4) 0.7625(4) 0.6480(2)
O16A O 1.2450(4) 0.5787(4) 0.6129(3)
O17A O 1.1958(4) 0.6240(4) 0.5173(3)
O18A O 1.2725(5) 0.8528(4) 0.6652(3)
O19A O 1.2037(6) 0.8876(6) 0.5722(3)
O20A O 1.6569(5) 0.8486(4) 0.4747(3)
O21A O 1.6881(5) 0.8732(4) 0.5859(3)
O22A O 1.6253(4) 0.9030(4) 0.7561(2)
O23A O 1.5092(5) 1.0490(4) 0.7271(2)
O24A O 1.6323(7) 1.2265(5) 0.7708(4)
O25A O 1.7638(4) 0.9001(4) 0.8608(2)
O26A O 1.9125(4) 1.0777(4) 0.8668(3)
O27A O 1.8585(4) 0.9079(4) 0.7013(3)
O28A O 2.0128(5) 1.0792(5) 0.7048(3)
O29A O 1.8723(5) 0.7263(5) 0.3459(3)
O30A O 1.7435(5) 0.6577(5) 0.4762(3)
O31A O 1.7974(6) 0.9194(5) 0.3629(3)
O32A O 1.9416(5) 0.8809(5) 0.4734(3)
O33A O 1.0396(6) 0.4127(6) 0.4146(4)
O34A O 1.0319(6) 0.3968(6) 0.5596(4)
O40A O 1.0028(8) 0.6298(8) 0.9342(6)
O41A O 0.8441(9) 0.4232(9) 0.8318(5)
O42A O 0.7793(12) 0.5578(11) 1.0267(5)
O43A O 0.6454(15) 0.3551(13) 0.9183(7)
O44A O 0.9053(18) 0.4023(15) 0.9738(9)
C1A C 1.2897(6) 0.7134(6) 0.8180(4)
C2A C 1.2782(7) 0.8281(6) 0.8396(4)
C3A C 1.1625(6) 0.6280(6) 0.7784(4)
H1A H 1.1522 0.6513 0.7362
H2A H 1.0928 0.6285 0.8048
C4A C 1.1522(7) 0.5091(7) 0.7622(4)
C5A C 1.3173(7) 0.6788(6) 0.8828(3)
H3A H 1.2381 0.6485 0.9041
H4A H 1.3445 0.6183 0.8708
C6A C 1.4200(7) 0.7756(7) 0.9341(4)
C7A C 0.6413(6) 0.6021(6) 0.7252(4)
C8A C 0.7488(7) 0.6444(7) 0.7824(4)
H5A H 0.8003 0.6022 0.7734
H6A H 0.8042 0.7240 0.7837
C9A C 0.6971(8) 0.6310(7) 0.8511(4)
C10A C 0.5436(7) 0.4800(6) 0.7263(4)
H7A H 0.4973 0.4820 0.7661
H8A H 0.5906 0.4353 0.7316
C11A C 0.4463(7) 0.4198(7) 0.6643(4)
C12A C 0.7023(7) 0.6005(7) 0.6554(4)
C13A C 1.4060(6) 0.7452(6) 0.5804(4)
C14A C 1.2721(6) 0.6403(6) 0.5688(4)
C15A C 1.3867(6) 0.8480(6) 0.5681(4)
H9A H 1.3672 0.8398 0.5195
H10A H 1.4665 0.9160 0.5827
C16A C 1.2801(7) 0.8631(6) 0.6049(4)
C17A C 1.4910(7) 0.7180(6) 0.5291(4)
H11A H 1.5057 0.6550 0.5394
H12A H 1.4458 0.6942 0.4837
C18A C 1.6218(7) 0.8202(6) 0.5300(4)
C19A C 1.7211(7) 1.0098(6) 0.7881(3)
C20A C 1.6639(7) 1.0906(6) 0.8225(4)
H13A H 1.7323 1.1583 0.8497
H14A H 1.6023 1.0529 0.8527
C21A C 1.5984(8) 1.1243(7) 0.7707(4)
C22A C 1.8072(7) 0.9951(7) 0.8424(4)
C23A C 1.8101(7) 1.0657(7) 0.7338(4)
H15A H 1.8612 1.1459 0.7527
H16A H 1.7564 1.0601 0.6941
C24A C 1.8990(7) 1.0127(7) 0.7115(4)
O45 O 0.1072(17) 0.2880(15) -0.1506(9)
O46 O 0.5568(15) 0.5875(17) 0.1087(8)
O47 O 0.3865(10) 0.3250(8) -0.0123(6)
O56 O 1.0336(9) 0.1990(9) 0.4153(5)
O48? O 0.0537(17) 0.3049(15) -0.1192(10)
O49? O 0.4306(15) 0.6367(13) 0.1067(9)
O50? O 0.0604(18) 0.4908(17) 0.1088(10)
O51? O 0.1703(13) 0.6634(18) 0.0431(8)
O52? O 0.2622(17) 0.3379(15) -0.0213(7)
O53? O 0.4621(6) 0.8599(6) 0.3927(3)
O54? O 0.1731(5) 0.8994(5) 0.4380(3)
O55? O 0.9332(7) 0.1395(7) 0.2577(3)
loop_
_geom_bond_atom_site_label_1
_geom_bond_atom_site_label_2
_geom_bond_site_symmetry_1
_geom_bond_site_symmetry_2
Co1 O1 1_555 1_555
Co2 O1 1_555 1_555
Co3 O1 1_555 1_555
Co4 O8 1_555 1_555
Co5 O20 1_555 1_555
Co6 O17 1_555 1_555
Co7 O35 1_555 1_555
Co8 O10 1_555 1_555
O1 C1 1_555 1_555
O2 Co3 1_555 1_555
O3 C2 1_555 1_555
O4 Co2 1_555 1_555
O5 C4 1_555 1_555
O6 Co1 1_555 1_555
O7 C6 1_555 1_555
O8 Co1 1_555 1_555
O9 Co1 1_555 1_555
O10 C9 1_555 1_555
O11 Co2 1_555 1_555
O12 C11 1_555 1_555
O13 Co4 1_555 1_555
O14 C12 1_555 1_555
O15 Co2 1_555 1_555
O16 Co2 1_555 1_555
O17 C14 1_555 1_555
O18 Co3 1_555 1_555
O19 C16 1_555 1_555
O20 C18 1_555 1_555
O21 Co4 1_555 1_555
O22 Co1 1_555 1_555
O23 Co3 1_555 1_555
O24 C21 1_555 1_555
O25 Co1 1_555 1_555
O26 C22 1_555 1_555
O27 Co4 1_555 1_555
O28 C24 1_555 1_555
O29 Co5 1_555 1_555
O30 Co5 1_555 1_555
O31 Co5 1_555 1_555
O32 Co5 1_555 1_555
O33 Co6 1_555 1_555
O34 Co6 1_555 1_555
O36 Co7 1_555 1_555
O37 Co7 1_555 1_555
O38 Co7 1_555 1_555
O39 Co7 1_555 1_555
O40 Co8 1_555 1_555
O41 Co8 1_555 1_555
O42 Co8 1_555 1_555
O43 Co8 1_555 1_555
O44 Co8 1_555 1_555
C1 C2 1_555 1_555
C2 O2 1_555 1_555
C3 C1 1_555 1_555
H1 C3 1_555 1_555
H2 C3 1_555 1_555
C4 O4 1_555 1_555
C5 C1 1_555 1_555
H3 C5 1_555 1_555
H4 C5 1_555 1_555
C6 O6 1_555 1_555
C7 O8 1_555 1_555
C8 C7 1_555 1_555
H5 C8 1_555 1_555
H6 C8 1_555 1_555
C9 O9 1_555 1_555
C10 C7 1_555 1_555
H7 C10 1_555 1_555
H8 C10 1_555 1_555
C11 O11 1_555 1_555
C12 O13 1_555 1_555
C13 O15 1_555 1_555
C14 O16 1_555 1_555
C15 C13 1_555 1_555
H9 C15 1_555 1_555
H10 C15 1_555 1_555
C16 O18 1_555 1_555
C17 C13 1_555 1_555
H11 C17 1_555 1_555
H12 C17 1_555 1_555
C18 O21 1_555 1_555
C19 O22 1_555 1_555
C20 C19 1_555 1_555
H13 C20 1_555 1_555
H14 C20 1_555 1_555
C21 O23 1_555 1_555
C22 O25 1_555 1_555
C23 C19 1_555 1_555
H15 C23 1_555 1_555
H16 C23 1_555 1_555
C24 O27 1_555 1_555
Co1A O1A 1_555 1_555
Co1A_2 O8A 1_555 1_555
Co2A O1A 1_555 1_555
Co2A_2 O8A 1_555 1_555
Co3A O1A 1_555 1_555
Co4A O8A_2 1_555 1_555
Co4A_2 O8A 1_555 1_555
Co5A O12_2 1_555 1_555
Co5A_2 O12 1_555 1_555
Co7A O3 1_555 1_555
Co8A O10A 1_555 1_555
O1A C1A 1_555 1_555
O2A Co3A 1_555 1_555
O3A Co7 1_555 1_555
O4A Co2A 1_555 1_555
O5A C4A 1_555 1_555
O6A Co1A 1_555 1_555
O7A C6A 1_555 1_555
O8A C7A 1_555 1_555
O8A_2 Co1A 1_555 1_555
O9A Co1A_2 1_555 1_555
O9A_2 Co1A 1_555 1_555
O10A C9A 1_555 1_555
O11A Co2A_2 1_555 1_555
O11A_2 Co2A 1_555 1_555
O12A Co5 1_555 1_555
O13A Co4A_2 1_555 1_555
O13A_2 Co4A 1_555 1_555
O14A C12A 1_555 1_555
O15A Co2A 1_555 1_555
O16A Co2A 1_555 1_555
O17A Co6 1_555 1_555
O18A Co3A 1_555 1_555
O19A C16A 1_555 1_555
O20A Co5A 1_555 1_555
O21A Co4A 1_555 1_555
O22A Co1A 1_555 1_555
O23A Co3A 1_555 1_555
O24A C21A 1_555 1_555
O25A Co1A 1_555 1_555
O26A C22A 1_555 1_555
O27A Co4A 1_555 1_555
O28A C24A 1_555 1_555
O29A Co5A 1_555 1_555
O30A Co5A 1_555 1_555
O31A Co5A 1_555 1_555
O32A Co5A 1_555 1_555
O33A Co6 1_555 1_555
O34A Co6 1_555 1_555
O40A Co8A 1_555 1_555
O41A Co8A 1_555 1_555
O42A Co8A 1_555 1_555
O43A Co8A 1_555 1_555
O44A Co8A 1_555 1_555
C1A C2A 1_555 1_555
C2A O2A 1_555 1_555
C3A C1A 1_555 1_555
H1A C3A 1_555 1_555
H2A C3A 1_555 1_555
C4A O4A 1_555 1_555
C5A C1A 1_555 1_555
H3A C5A 1_555 1_555
H4A C5A 1_555 1_555
C6A O6A 1_555 1_555
C7A C8A 1_555 1_555
C8A H5A 1_555 1_555
H6A C8A 1_555 1_555
C9A O9A 1_555 1_555
C10A C7A 1_555 1_555
H7A C10A 1_555 1_555
H8A C10A 1_555 1_555
C11A O11A 1_555 1_555
C12A O13A 1_555 1_555
C13A O15A 1_555 1_555
C14A O16A 1_555 1_555
C15A C13A 1_555 1_555
H9A C15A 1_555 1_555
H10A C15A 1_555 1_555
C16A O18A 1_555 1_555
C17A C13A 1_555 1_555
H11A C17A 1_555 1_555
H12A C17A 1_555 1_555
C18A O20A 1_555 1_555
C19A O22A 1_555 1_555
C20A C19A 1_555 1_555
H13A C20A 1_555 1_555
H14A C20A 1_555 1_555
C21A O23A 1_555 1_555
C22A O25A 1_555 1_555
C23A C19A 1_555 1_555
H15A C23A 1_555 1_555
H16A C23A 1_555 1_555
C24A O27A 1_555 1_555
Co2 O8 1_555 1_555
Co3 O15 1_555 1_555
Co3 O22 1_555 1_555
Co4 O15 1_555 1_555
Co4 O22 1_555 1_555
C3 C4 1_555 1_555
C5 C6 1_555 1_555
C7 C12 1_555 1_555
C8 C9 1_555 1_555
C10 C11 1_555 1_555
C13 C14 1_555 1_555
C15 C16 1_555 1_555
C17 C18 1_555 1_555
C19 C22 1_555 1_555
C20 C21 1_555 1_555
C23 C24 1_555 1_555
Co2A O8A_2 1_555 1_555
Co3A O15A 1_555 1_555
Co3A O22A 1_555 1_555
Co4A O15A 1_555 1_555
Co4A O22A 1_555 1_555
O3A C2A 1_555 1_555
O12A C11A 1_555 1_555
O17A C14A 1_555 1_555
O21A C18A 1_555 1_555
C3A C4A 1_555 1_555
C5A C6A 1_555 1_555
C7A C12A 1_555 1_555
C8A C9A 1_555 1_555
C10A C11A 1_555 1_555
C13A C14A 1_555 1_555
C15A C16A 1_555 1_555
C17A C18A 1_555 1_555
C19A C22A 1_555 1_555
C20A C21A 1_555 1_555
C23A C24A 1_555 1_555

#END
