
#######################################################################
#
#                 Cambridge Crystallographic Data Centre
#                                CCDC 
#
#######################################################################
#
# If this CIF has been generated from an entry in the Cambridge 
# Structural Database, then it will include bibliographic, chemical, 
# crystal, experimental, refinement or atomic coordinate data resulting 
# from the CCDC's data processing and validation procedures.
#
#######################################################################

data_MOBMUL
_symmetry_cell_setting           monoclinic
_symmetry_space_group_name_H-M   'P 21/c'
_symmetry_Int_Tables_number      14
_space_group_name_Hall           '-P 2ybc'
loop_
_symmetry_equiv_pos_site_id
_symmetry_equiv_pos_as_xyz
1 x,y,z
2 x,1/2-y,1/2+z
3 -x,-y,-z
4 -x,1/2+y,1/2-z
_cell_length_a                   6.1066(6)
_cell_length_b                   17.7753(15)
_cell_length_c                   16.1658(15)
_cell_angle_alpha                90
_cell_angle_beta                 99.813(2)
_cell_angle_gamma                90
_cell_volume                     1729.07
loop_
_atom_site_label
_atom_site_type_symbol
_atom_site_fract_x
_atom_site_fract_y
_atom_site_fract_z
Gd1 Gd -0.18942(10) 0.08172(4) 0.33857(4)
Cu1 Cu -0.5000 0.5000 0.5000
O1 O -0.2853(19) -0.0194(6) 0.4349(6)
H1 H -0.27(3) -0.019(8) 0.4947(16)
H2 H -0.32(3) -0.062(6) 0.399(9)
O2 O 0.1325(17) 0.0047(6) 0.3795(8)
H3 H 0.253(19) 0.036(8) 0.369(10)
H4 H 0.15(2) -0.0482(19) 0.390(8)
O3 O -0.0923(17) 0.0840(6) 0.2038(6)
H5 H 0.030(16) 0.111(7) 0.189(9)
H6 H -0.19(2) 0.064(9) 0.156(7)
O4 O -0.7013(17) 0.4583(5) 0.5703(6)
O5 O -0.7572(18) 0.3530(5) 0.6385(7)
O6 O -0.282(4) 0.1290(7) 0.5837(9)
O7 O -0.1317(16) 0.1358(5) 0.4710(6)
O8 O -0.5654(15) 0.1000(5) 0.3489(7)
O9 O 0.1240(15) 0.1657(5) 0.3451(6)
O10 O -0.7382(16) 0.4530(5) 0.3577(6)
O11 O -0.6195(16) 0.4821(5) 0.2374(6)
N1 N -0.3668(19) 0.3994(6) 0.5108(7)
N2 N -0.3563(17) 0.2166(6) 0.2935(7)
C1 C -0.667(2) 0.3922(9) 0.5925(9)
C2 C -0.481(2) 0.3504(8) 0.5530(9)
C3 C -0.438(3) 0.2772(8) 0.5618(9)
H7 H -0.5187 0.2466 0.5922
C4 C -0.268(3) 0.2478(8) 0.5243(9)
C5 C -0.147(3) 0.2964(8) 0.4828(9)
H8 H -0.0298 0.2779 0.4591
C6 C -0.199(3) 0.3725(8) 0.4760(8)
H9 H -0.1168 0.4045 0.4475
C7 C -0.221(3) 0.1641(9) 0.5271(10)
C8 C -0.674(2) 0.1599(8) 0.3399(8)
C9 C -0.557(2) 0.2296(7) 0.3182(8)
C10 C -0.644(2) 0.3009(8) 0.3213(9)
H10 H -0.7759 0.3077 0.3415
C11 C -0.537(2) 0.3615(7) 0.2950(8)
C12 C -0.340(2) 0.3490(7) 0.2659(8)
H11 H -0.2660 0.3889 0.2456
C13 C -0.254(2) 0.2776(8) 0.2668(8)
H12 H -0.1190 0.2707 0.2483
C14 C -0.640(2) 0.4403(8) 0.2966(10)
O4B O -0.2987(17) 0.5417(5) 0.4297(6)
C1B C -0.333(2) 0.6078(9) 0.4075(9)
O5B O -0.2428(18) 0.6470(5) 0.3615(7)
C2B C -0.519(2) 0.6496(8) 0.4470(9)
N1B N -0.6332(19) 0.6006(6) 0.4892(7)
C6B C -0.801(3) 0.6275(8) 0.5240(8)
C5B C -0.853(3) 0.7036(8) 0.5172(9)
C4B C -0.732(3) 0.7522(8) 0.4757(9)
C3B C -0.562(3) 0.7228(8) 0.4382(9)
H7B H -0.4813 0.7534 0.4078
C7B C -0.779(3) 0.8359(9) 0.4729(10)
O6B O -0.718(4) 0.8710(7) 0.4163(9)
O7B O -0.8683(16) 0.8642(5) 0.5290(6)
Gd1B Gd -0.81058(10) 0.91828(4) 0.66143(4)
O1B O -0.7147(19) 1.0194(6) 0.5651(6)
H1B H -0.73(3) 1.019(8) 0.5053(16)
H2B H -0.68(3) 1.062(6) 0.601(9)
O2B O -1.1325(17) 0.9953(6) 0.6205(8)
H3B H -1.253(19) 0.964(8) 0.631(10)
H4B H -1.15(2) 1.0482(19) 0.610(8)
O3B O -0.9077(17) 0.9160(6) 0.7962(6)
H5B H -1.030(16) 0.889(7) 0.811(9)
H6B H -0.81(2) 0.936(9) 0.844(7)
O8B O -0.4346(15) 0.9000(5) 0.6511(7)
O9B O -1.1240(15) 0.8343(5) 0.6549(6)
O11A O -0.6195(16) 1.0179(5) 0.7374(6)
N2B N -0.6437(17) 0.7834(6) 0.7065(7)
H8B H -0.9702 0.7221 0.5409
H9B H -0.8832 0.5955 0.5525
C8_2 C 0.326(2) 0.1599(8) 0.3399(8)
O9_2 O -0.8760(15) 0.1657(5) 0.3451(6)
O8_2 O 0.4346(15) 0.1000(5) 0.3489(7)
C9_2 C 0.443(2) 0.2296(7) 0.3182(8)
Gd1_2 Gd -1.18942(10) 0.08172(4) 0.33857(4)
O11C O -0.3805(16) -0.0179(5) 0.2626(6)
Gd1_3 Gd 0.81058(10) 0.08172(4) 0.33857(4)
N2_2 N 0.6437(17) 0.2166(6) 0.2935(7)
C10_2 C 0.356(2) 0.3009(8) 0.3213(9)
Gd1C Gd -0.81058(10) 0.58172(4) 0.16143(4)
C13_2 C 0.746(2) 0.2776(8) 0.2668(8)
H10_2 H 0.2241 0.3077 0.3415
C11_2 C 0.463(2) 0.3615(7) 0.2950(8)
C12_2 C 0.660(2) 0.3490(7) 0.2659(8)
H12_2 H 0.8810 0.2707 0.2483
C14_2 C 0.360(2) 0.4403(8) 0.2966(10)
H11_2 H 0.7340 0.3889 0.2456
O10_2 O 0.2618(16) 0.4530(5) 0.3577(6)
O11_2 O 0.3805(16) 0.4821(5) 0.2374(6)
Gd1C_2 Gd 0.18942(10) 0.58172(4) 0.16143(4)
loop_
_geom_bond_atom_site_label_1
_geom_bond_atom_site_label_2
_geom_bond_site_symmetry_1
_geom_bond_site_symmetry_2
Gd1 O1 1_555 1_555
Cu1 O4 1_555 1_555
O1 H1 1_555 1_555
H2 O1 1_555 1_555
O2 Gd1 1_555 1_555
H3 O2 1_555 1_555
H4 O2 1_555 1_555
O3 Gd1 1_555 1_555
H5 O3 1_555 1_555
H6 O3 1_555 1_555
O4 C1 1_555 1_555
O5 C1 1_555 1_555
O6 C7 1_555 1_555
O7 Gd1 1_555 1_555
O8 Gd1 1_555 1_555
O9 Gd1 1_555 1_555
O10 C14 1_555 1_555
O11 C14 1_555 1_555
N1 Cu1 1_555 1_555
N2 Gd1 1_555 1_555
C1 C2 1_555 1_555
C2 N1 1_555 1_555
C3 C2 1_555 1_555
H7 C3 1_555 1_555
C4 C3 1_555 1_555
C5 C4 1_555 1_555
H8 C5 1_555 1_555
C6 N1 1_555 1_555
H9 C6 1_555 1_555
C7 O7 1_555 1_555
C8 O8 1_555 1_555
C9 N2 1_555 1_555
C10 C9 1_555 1_555
H10 C10 1_555 1_555
C11 C10 1_555 1_555
C12 C11 1_555 1_555
H11 C12 1_555 1_555
C13 N2 1_555 1_555
H12 C13 1_555 1_555
C14 C11 1_555 1_555
O4B Cu1 1_555 1_555
C1B O4B 1_555 1_555
O5B C1B 1_555 1_555
C2B C1B 1_555 1_555
N1B Cu1 1_555 1_555
C6B N1B 1_555 1_555
C5B C6B 1_555 1_555
C4B C5B 1_555 1_555
C3B C2B 1_555 1_555
H7B C3B 1_555 1_555
C7B C4B 1_555 1_555
O6B C7B 1_555 1_555
O7B C7B 1_555 1_555
Gd1B O7B 1_555 1_555
O1B Gd1B 1_555 1_555
H1B O1B 1_555 1_555
H2B O1B 1_555 1_555
O2B Gd1B 1_555 1_555
H3B O2B 1_555 1_555
H4B O2B 1_555 1_555
O3B Gd1B 1_555 1_555
H5B O3B 1_555 1_555
H6B O3B 1_555 1_555
O8B Gd1B 1_555 1_555
O9B Gd1B 1_555 1_555
O11A Gd1B 1_555 1_555
N2B Gd1B 1_555 1_555
H8B C5B 1_555 1_555
H9B C6B 1_555 1_555
C8_2 O9 1_555 1_555
O9_2 C8 1_555 1_555
O8_2 C8_2 1_555 1_555
C9_2 C8_2 1_555 1_555
Gd1_2 O9_2 1_555 1_555
O11C Gd1 1_555 1_555
Gd1_3 O8_2 1_555 1_555
N2_2 C9_2 1_555 1_555
C10_2 C9_2 1_555 1_555
Gd1C O11 1_555 1_555
C13_2 N2_2 1_555 1_555
H10_2 C10_2 1_555 1_555
C11_2 C10_2 1_555 1_555
C12_2 C13_2 1_555 1_555
H12_2 C13_2 1_555 1_555
C14_2 C11_2 1_555 1_555
H11_2 C12_2 1_555 1_555
O10_2 C14_2 1_555 1_555
O11_2 C14_2 1_555 1_555
Gd1C_2 O11_2 1_555 1_555
C4 C7 1_555 1_555
C5 C6 1_555 1_555
C8 C9 1_555 1_555
C12 C13 1_555 1_555
C2B N1B 1_555 1_555
C4B C3B 1_555 1_555
Gd1_3 N2_2 1_555 1_555
C11_2 C12_2 1_555 1_555

#END
