
#######################################################################
#
#                 Cambridge Crystallographic Data Centre
#                                CCDC 
#
#######################################################################
#
# If this CIF has been generated from an entry in the Cambridge 
# Structural Database, then it will include bibliographic, chemical, 
# crystal, experimental, refinement or atomic coordinate data resulting 
# from the CCDC's data processing and validation procedures.
#
#######################################################################

data_MOBNAS
_symmetry_cell_setting           triclinic
_symmetry_space_group_name_H-M   'P -1'
_symmetry_Int_Tables_number      2
_space_group_name_Hall           '-P 1'
loop_
_symmetry_equiv_pos_site_id
_symmetry_equiv_pos_as_xyz
1 x,y,z
2 -x,-y,-z
_cell_length_a                   9.4352(3)
_cell_length_b                   10.7205(2)
_cell_length_c                   12.3008(3)
_cell_angle_alpha                86.2230(10)
_cell_angle_beta                 81.5950(10)
_cell_angle_gamma                86.59
_cell_volume                     1226.62
loop_
_atom_site_label
_atom_site_type_symbol
_atom_site_fract_x
_atom_site_fract_y
_atom_site_fract_z
Sm1 Sm -0.07061(4) 0.15177(3) 0.35144(3)
Cu1 Cu 0.0000 0.5000 0.0000
Cu2 Cu -0.54316(9) 0.31436(8) 0.11965(7)
O1 O -0.2918(5) 0.2867(5) 0.3618(4)
O2 O -0.2727(5) 0.0219(5) 0.4481(4)
O3 O 0.1688(5) 0.1704(5) 0.4094(4)
O4 O -0.0330(5) 0.3828(4) 0.1291(4)
O5 O -0.0040(5) 0.3648(4) 0.3066(4)
O6 O 0.1095(5) 0.7782(5) 0.4648(4)
O7 O 0.0215(5) 0.9460(4) 0.3771(4)
O8 O 0.2792(5) 0.2520(4) 0.1979(4)
O9 O 0.1039(5) 0.1255(4) 0.1803(4)
O10 O 0.1863(5) -0.0864(5) -0.2054(4)
O11 O 0.4129(6) -0.1632(5) -0.2185(4)
O12 O -0.3806(5) 0.3874(5) 0.0293(4)
O13 O -0.2513(5) 0.5586(4) 0.0147(4)
O14 O -0.3297(6) 0.8256(5) 0.3464(5)
O15 O -0.5226(7) 0.7978(6) 0.4693(6)
N1 N 0.0258(6) 0.6192(5) 0.1090(5)
N2 N 0.4266(6) 0.1957(5) 0.0115(4)
N3 N -0.5268(6) 0.4487(5) 0.2184(5)
C1 C -0.0074(7) 0.4261(6) 0.2170(6)
C2 C 0.0208(7) 0.5638(6) 0.2120(6)
C3 C 0.0383(7) 0.6285(6) 0.3021(6)
C4 C 0.0541(7) 0.7581(6) 0.2868(5)
C5 C 0.0552(8) 0.8146(6) 0.1808(6)
C6 C 0.0418(8) 0.7433(6) 0.0941(6)
C7 C 0.0623(7) 0.8336(6) 0.3845(6)
C8 C 0.2190(7) 0.1762(6) 0.1456(6)
C9 C 0.2986(7) 0.1418(6) 0.0365(5)
C10 C 0.2545(7) 0.0552(6) -0.0288(5)
C11 C 0.3487(7) 0.0174(6) -0.1198(6)
C12 C 0.4830(7) 0.0710(7) -0.1452(6)
C13 C 0.5155(7) 0.1615(6) -0.0796(6)
C14 C 0.3130(7) -0.0850(6) -0.1870(5)
C15 C -0.3410(7) 0.4881(7) 0.0654(6)
C16 C -0.4161(7) 0.5223(6) 0.1770(6)
C17 C -0.3817(8) 0.6217(6) 0.2318(6)
C18 C -0.4648(8) 0.6515(7) 0.3307(6)
C19 C -0.5812(8) 0.5775(8) 0.3714(6)
C20 C -0.6068(8) 0.4768(7) 0.3136(6)
C21 C -0.4365(8) 0.7679(7) 0.3892(6)
O4A O 0.0330(5) 0.6172(4) -0.1291(4)
O5A O 0.0040(5) 0.6352(4) -0.3066(4)
O6A O -0.1095(5) 0.2218(5) -0.4648(4)
O7A O -0.0215(5) 0.0540(4) -0.3771(4)
N1A N -0.0258(6) 0.3808(5) -0.1090(5)
C1A C 0.0074(7) 0.5739(6) -0.2170(6)
C2A C -0.0208(7) 0.4362(6) -0.2120(6)
C3A C -0.0383(7) 0.3715(6) -0.3021(6)
C4A C -0.0541(7) 0.2419(6) -0.2868(5)
C5A C -0.0552(8) 0.1854(6) -0.1808(6)
C6A C -0.0418(8) 0.2567(6) -0.0941(6)
C7A C -0.0623(7) 0.1664(6) -0.3845(6)
O12A O 0.3806(5) 0.6126(5) -0.0293(4)
O13A O 0.2513(5) 0.4414(4) -0.0147(4)
O14A O 0.3297(6) 0.1744(5) -0.3464(5)
O15A O 0.5226(7) 0.2022(6) -0.4693(6)
N3A N 0.5268(6) 0.5513(5) -0.2184(5)
C15A C 0.3410(7) 0.5119(7) -0.0654(6)
C16A C 0.4161(7) 0.4777(6) -0.1770(6)
C17A C 0.3817(8) 0.3783(6) -0.2318(6)
C18A C 0.4648(8) 0.3485(7) -0.3307(6)
C19A C 0.5812(8) 0.4225(8) -0.3714(6)
C20A C 0.6068(8) 0.5232(7) -0.3136(6)
C21A C 0.4365(8) 0.2321(7) -0.3892(6)
Sm1A Sm 0.07061(4) 0.84823(3) -0.35144(3)
Cu2A Cu 0.54316(9) 0.68564(8) -0.11965(7)
O8A O -0.2792(5) -0.2520(4) -0.1979(4)
O9A O -0.1039(5) -0.1255(4) -0.1803(4)
O10A O -0.1863(5) 0.0864(5) 0.2054(4)
O11A O -0.4129(6) 0.1632(5) 0.2185(4)
N2A N -0.4266(6) -0.1957(5) -0.0115(4)
C8A C -0.2190(7) -0.1762(6) -0.1456(6)
C9A C -0.2986(7) -0.1418(6) -0.0365(5)
C10A C -0.2545(7) -0.0552(6) 0.0288(5)
C11A C -0.3487(7) -0.0174(6) 0.1198(6)
C12A C -0.4830(7) -0.0710(7) 0.1452(6)
C13A C -0.5155(7) -0.1615(6) 0.0796(6)
C14A C -0.3130(7) 0.0850(6) 0.1870(5)
O1A O 0.2918(5) 0.7133(5) -0.3618(4)
O2A O 0.2727(5) 0.9781(5) -0.4481(4)
O3A O -0.1688(5) 0.8296(5) -0.4094(4)
O6A_2 O -0.1095(5) 0.2218(5) 0.5352(4)
O7_2 O 0.0215(5) -0.0540(4) 0.3771(4)
O8_2 O -0.7208(5) 0.2520(4) 0.1979(4)
N2_2 N -0.5734(6) 0.1957(5) 0.0115(4)
Sm1A_2 Sm 0.07061(4) 0.84823(3) 0.64856(3)
Sm1_2 Sm -0.07061(4) 1.15177(3) 0.35144(3)
Cu2_2 Cu 0.45684(9) 0.31436(8) 0.11965(7)
Sm1A_3 Sm 0.07061(4) -0.15177(3) -0.35144(3)
Cu2A_2 Cu 0.54316(9) -0.31436(8) -0.11965(7)
Sm1_3 Sm -0.07061(4) 0.15177(3) -0.64856(3)
O6_2 O 0.1095(5) 0.7782(5) -0.5352(4)
O7A_2 O -0.0215(5) 1.0540(4) -0.3771(4)
O9A_2 O -0.1039(5) 0.8745(4) -0.1803(4)
O10_2 O 0.1863(5) 0.9136(5) -0.2054(4)
O8A_2 O 0.7208(5) 0.7480(4) -0.1979(4)
O11_2 O 0.4129(6) 0.8368(5) -0.2185(4)
N2A_2 N 0.5734(6) 0.8043(5) -0.0115(4)
Cu2A_3 Cu -0.45684(9) -0.31436(8) -0.11965(7)
loop_
_geom_bond_atom_site_label_1
_geom_bond_atom_site_label_2
_geom_bond_site_symmetry_1
_geom_bond_site_symmetry_2
Sm1 O1 1_555 1_555
Cu1 O4 1_555 1_555
Cu2 O12 1_555 1_555
O2 Sm1 1_555 1_555
O3 Sm1 1_555 1_555
O4 C1 1_555 1_555
O5 Sm1 1_555 1_555
O6 C7 1_555 1_555
O7 C7 1_555 1_555
O8 C8 1_555 1_555
O9 Sm1 1_555 1_555
O10 C14 1_555 1_555
O11 C14 1_555 1_555
O12 C15 1_555 1_555
O13 Cu1 1_555 1_555
O14 C21 1_555 1_555
O15 C21 1_555 1_555
N1 Cu1 1_555 1_555
N2 C9 1_555 1_555
N3 Cu2 1_555 1_555
C1 O5 1_555 1_555
C2 N1 1_555 1_555
C3 C2 1_555 1_555
C4 C3 1_555 1_555
C5 C4 1_555 1_555
C6 N1 1_555 1_555
C7 C4 1_555 1_555
C8 O9 1_555 1_555
C9 C8 1_555 1_555
C10 C9 1_555 1_555
C11 C10 1_555 1_555
C12 C11 1_555 1_555
C13 N2 1_555 1_555
C14 C11 1_555 1_555
C15 O13 1_555 1_555
C16 N3 1_555 1_555
C17 C16 1_555 1_555
C18 C17 1_555 1_555
C19 C18 1_555 1_555
C20 N3 1_555 1_555
C21 C18 1_555 1_555
O4A Cu1 1_555 1_555
O5A C1A 1_555 1_555
O6A C7A 1_555 1_555
O7A C7A 1_555 1_555
N1A Cu1 1_555 1_555
C1A O4A 1_555 1_555
C2A N1A 1_555 1_555
C3A C2A 1_555 1_555
C4A C3A 1_555 1_555
C5A C4A 1_555 1_555
C6A N1A 1_555 1_555
C7A C4A 1_555 1_555
O12A C15A 1_555 1_555
O13A Cu1 1_555 1_555
O14A C21A 1_555 1_555
O15A C21A 1_555 1_555
N3A C16A 1_555 1_555
C15A O13A 1_555 1_555
C16A C15A 1_555 1_555
C17A C16A 1_555 1_555
C18A C17A 1_555 1_555
C19A C18A 1_555 1_555
C20A N3A 1_555 1_555
C21A C18A 1_555 1_555
Sm1A O5A 1_555 1_555
Cu2A O12A 1_555 1_555
O8A C8A 1_555 1_555
O9A C8A 1_555 1_555
O10A Sm1 1_555 1_555
O11A Cu2 1_555 1_555
N2A C9A 1_555 1_555
C8A C9A 1_555 1_555
C9A C10A 1_555 1_555
C10A C11A 1_555 1_555
C11A C12A 1_555 1_555
C12A C13A 1_555 1_555
C13A N2A 1_555 1_555
C14A O10A 1_555 1_555
O1A Sm1A 1_555 1_555
O2A Sm1A 1_555 1_555
O3A Sm1A 1_555 1_555
O6A_2 Sm1 1_555 1_555
O7_2 Sm1 1_555 1_555
O8_2 Cu2 1_555 1_555
N2_2 Cu2 1_555 1_555
Sm1A_2 O6 1_555 1_555
Sm1_2 O7 1_555 1_555
Cu2_2 O8 1_555 1_555
Sm1A_3 O10 1_555 1_555
Cu2A_2 O11 1_555 1_555
Sm1_3 O6A 1_555 1_555
O6_2 Sm1A 1_555 1_555
O7A_2 Sm1A 1_555 1_555
O9A_2 Sm1A 1_555 1_555
O10_2 Sm1A 1_555 1_555
O8A_2 Cu2A 1_555 1_555
O11_2 Cu2A 1_555 1_555
N2A_2 Cu2A 1_555 1_555
Cu2A_3 O8A 1_555 1_555
N2 Cu2_2 1_555 1_555
C1 C2 1_555 1_555
C5 C6 1_555 1_555
C12 C13 1_555 1_555
C15 C16 1_555 1_555
C19 C20 1_555 1_555
O7A Sm1A_3 1_555 1_555
C1A C2A 1_555 1_555
C5A C6A 1_555 1_555
N3A Cu2A 1_555 1_555
C19A C20A 1_555 1_555
O9A Sm1A_3 1_555 1_555
O11A C14A 1_555 1_555
N2A Cu2A_3 1_555 1_555
C11A C14A 1_555 1_555

#END
