
#######################################################################
#
#                 Cambridge Crystallographic Data Centre
#                                CCDC 
#
#######################################################################
#
# If this CIF has been generated from an entry in the Cambridge 
# Structural Database, then it will include bibliographic, chemical, 
# crystal, experimental, refinement or atomic coordinate data resulting 
# from the CCDC's data processing and validation procedures.
#
#######################################################################

data_MOBQUR
_symmetry_cell_setting           triclinic
_symmetry_space_group_name_H-M   'P -1'
_symmetry_Int_Tables_number      2
_space_group_name_Hall           '-P 1'
loop_
_symmetry_equiv_pos_site_id
_symmetry_equiv_pos_as_xyz
1 x,y,z
2 -x,-y,-z
_cell_length_a                   8.3440(2)
_cell_length_b                   8.9440(3)
_cell_length_c                   9.7140(2)
_cell_angle_alpha                67.697(5)
_cell_angle_beta                 81.513(4)
_cell_angle_gamma                75.453(7)
_cell_volume                     648.102
loop_
_atom_site_label
_atom_site_type_symbol
_atom_site_fract_x
_atom_site_fract_y
_atom_site_fract_z
Sn1 Sn 0.347492(11) 0.025662(12) 0.853039(10)
O1 O 0.48690(14) -0.17550(13) 1.03158(12)
N1 N 0.15139(17) -0.14821(17) 0.73211(15)
O2 O 0.18925(18) 0.11733(15) 0.66661(15)
N2 N 0.24742(16) -0.18175(16) 0.85173(14)
O3 O 0.67567(16) -0.35353(14) 1.26094(15)
C1 C 0.13070(19) 0.0074(2) 0.64648(17)
C2 C 0.2473(2) -0.32282(19) 0.95595(18)
H1 H 0.1834 -0.3875 0.9431
C3 C 0.45499(18) -0.32110(17) 1.11815(16)
C4 C 0.33514(19) -0.39187(18) 1.09058(16)
C5 C 0.5491(2) -0.41783(19) 1.24467(18)
C6 C 0.0265(2) 0.0674(2) 0.51487(19)
H2 H 0.0884 0.1266 0.4269
H3 H -0.0721 0.1454 0.5303
C7 C 0.5139(2) -0.5644(2) 1.34442(18)
H4 H 0.5749 -0.6225 1.4286
C8 C 0.5603(2) 0.0352(2) 0.70652(18)
H5 H 0.6052 0.1271 0.6987
H6 H 0.5313 0.0483 0.6100
H7 H 0.6416 -0.0656 0.7441
C9 C 0.3877(3) -0.6265(2) 1.32052(19)
H8 H 0.3612 -0.7235 1.3901
C10 C 0.3031(2) -0.5433(2) 1.19372(19)
H9 H 0.2227 -0.5877 1.1751
C11 C 0.8113(3) -0.4672(2) 1.3448(2)
H10 H 0.7771 -0.5039 1.4489
H11 H 0.9022 -0.4135 1.3285
H12 H 0.8456 -0.5607 1.3134
C12 C 0.1607(2) 0.1073(2) 0.9941(2)
H13 H 0.1930 0.1881 1.0207
H14 H 0.1443 0.0151 1.0827
H15 H 0.0593 0.1561 0.9436
O1A O -0.48690(14) 0.17550(13) -0.03158(12)
N1A N -0.15139(17) 0.14821(17) 0.26789(15)
O2A O -0.18925(18) -0.11733(15) 0.33339(15)
N2A N -0.24742(16) 0.18175(16) 0.14827(14)
O3A O -0.67567(16) 0.35353(14) -0.26094(15)
C1A C -0.13070(19) -0.0074(2) 0.35352(17)
C2A C -0.2473(2) 0.32282(19) 0.04405(18)
H1A H -0.1834 0.3875 0.0569
C3A C -0.45499(18) 0.32110(17) -0.11815(16)
C4A C -0.33514(19) 0.39187(18) -0.09058(16)
C5A C -0.5491(2) 0.41783(19) -0.24467(18)
C6A C -0.0265(2) -0.0674(2) 0.48513(19)
H2A H -0.0884 -0.1266 0.5731
H3A H 0.0721 -0.1454 0.4697
C7A C -0.5139(2) 0.5644(2) -0.34442(18)
H4A H -0.5749 0.6225 -0.4286
C9A C -0.3877(3) 0.6265(2) -0.32052(19)
H8A H -0.3612 0.7235 -0.3901
C10A C -0.3031(2) 0.5433(2) -0.19372(19)
H9A H -0.2227 0.5877 -0.1751
C11A C -0.8113(3) 0.4672(2) -0.3448(2)
H10A H -0.7771 0.5039 -0.4489
H11A H -0.9022 0.4135 -0.3285
H12A H -0.8456 0.5607 -0.3134
Sn1A Sn -0.347492(11) -0.025662(12) 0.146961(10)
C8A C -0.5603(2) -0.0352(2) 0.29348(18)
H5A H -0.6052 -0.1271 0.3013
H6A H -0.5313 -0.0483 0.3900
H7A H -0.6416 0.0656 0.2559
C12A C -0.1607(2) -0.1073(2) 0.0059(2)
H13A H -0.1930 -0.1881 -0.0207
H14A H -0.1443 -0.0151 -0.0827
H15A H -0.0593 -0.1561 0.0564
Sn1_2 Sn -0.652508(11) 0.025662(12) -0.146961(10)
Sn1A_2 Sn 0.652508(11) -0.025662(12) 1.146961(10)
O1_2 O -0.51310(14) -0.17550(13) 0.03158(12)
O1A_2 O 0.51310(14) 0.17550(13) 0.96842(12)
O3_2 O -0.32433(16) -0.35353(14) 0.26094(15)
O3A_2 O 0.32433(16) 0.35353(14) 0.73906(15)
loop_
_geom_bond_atom_site_label_1
_geom_bond_atom_site_label_2
_geom_bond_site_symmetry_1
_geom_bond_site_symmetry_2
Sn1 O1 1_555 1_555
O1 C3 1_555 1_555
N1 N2 1_555 1_555
O2 Sn1 1_555 1_555
N2 Sn1 1_555 1_555
O3 C5 1_555 1_555
C1 N1 1_555 1_555
C2 N2 1_555 1_555
H1 C2 1_555 1_555
C3 C4 1_555 1_555
C4 C2 1_555 1_555
C5 C3 1_555 1_555
C6 C1 1_555 1_555
H2 C6 1_555 1_555
H3 C6 1_555 1_555
C7 C5 1_555 1_555
H4 C7 1_555 1_555
C8 Sn1 1_555 1_555
H5 C8 1_555 1_555
H6 C8 1_555 1_555
H7 C8 1_555 1_555
C9 C7 1_555 1_555
H8 C9 1_555 1_555
C10 C4 1_555 1_555
H9 C10 1_555 1_555
C11 O3 1_555 1_555
H10 C11 1_555 1_555
H11 C11 1_555 1_555
H12 C11 1_555 1_555
C12 Sn1 1_555 1_555
H13 C12 1_555 1_555
H14 C12 1_555 1_555
H15 C12 1_555 1_555
O1A C3A 1_555 1_555
N1A N2A 1_555 1_555
O2A C1A 1_555 1_555
N2A C2A 1_555 1_555
O3A C5A 1_555 1_555
C1A N1A 1_555 1_555
C2A H1A 1_555 1_555
C3A C4A 1_555 1_555
C4A C2A 1_555 1_555
C5A C3A 1_555 1_555
C6A C6 1_555 1_555
H2A C6A 1_555 1_555
H3A C6A 1_555 1_555
C7A C5A 1_555 1_555
H4A C7A 1_555 1_555
C9A C7A 1_555 1_555
H8A C9A 1_555 1_555
C10A C4A 1_555 1_555
H9A C10A 1_555 1_555
C11A O3A 1_555 1_555
H10A C11A 1_555 1_555
H11A C11A 1_555 1_555
H12A C11A 1_555 1_555
Sn1A O1A 1_555 1_555
C8A Sn1A 1_555 1_555
H5A C8A 1_555 1_555
H6A C8A 1_555 1_555
H7A C8A 1_555 1_555
C12A Sn1A 1_555 1_555
H13A C12A 1_555 1_555
H14A C12A 1_555 1_555
H15A C12A 1_555 1_555
Sn1_2 O1A 1_555 1_555
Sn1A_2 O1 1_555 1_555
O1_2 Sn1A 1_555 1_555
O1A_2 Sn1 1_555 1_555
O3_2 Sn1A 1_555 1_555
O3A_2 Sn1 1_555 1_555
O2 C1 1_555 1_555
O3 Sn1A_2 1_555 1_555
C9 C10 1_555 1_555
O2A Sn1A 1_555 1_555
N2A Sn1A 1_555 1_555
O3A Sn1_2 1_555 1_555
C1A C6A 1_555 1_555
C9A C10A 1_555 1_555
Sn1_2 O1_2 1_555 1_555
Sn1A_2 O1A_2 1_555 1_555

#END
