
#######################################################################
#
#                 Cambridge Crystallographic Data Centre
#                                CCDC 
#
#######################################################################
#
# If this CIF has been generated from an entry in the Cambridge 
# Structural Database, then it will include bibliographic, chemical, 
# crystal, experimental, refinement or atomic coordinate data resulting 
# from the CCDC's data processing and validation procedures.
#
#######################################################################

data_MOBVUW
_symmetry_cell_setting           triclinic
_symmetry_space_group_name_H-M   'P -1'
_symmetry_Int_Tables_number      2
_space_group_name_Hall           '-P 1'
loop_
_symmetry_equiv_pos_site_id
_symmetry_equiv_pos_as_xyz
1 x,y,z
2 -x,-y,-z
_cell_length_a                   9.5955(3)
_cell_length_b                   14.7243(14)
_cell_length_c                   14.8584(14)
_cell_angle_alpha                67.778(9)
_cell_angle_beta                 85.961(5)
_cell_angle_gamma                85.587(5)
_cell_volume                     1935.67
loop_
_atom_site_label
_atom_site_type_symbol
_atom_site_fract_x
_atom_site_fract_y
_atom_site_fract_z
Zn1 Zn 0.27206(6) 0.84397(4) 0.59807(5)
Zn2 Zn 0.23999(6) 1.34360(4) 1.09611(5)
N1 N 0.2493(5) 0.8723(3) 0.4520(3)
N2 N 0.2119(5) 0.4786(3) 0.1078(4)
N3 N 0.2657(5) 0.9802(3) 0.6075(3)
C1 C 1.0061(6) 0.7821(4) 0.6440(5)
O1 O 0.1283(4) 1.1690(3) 1.0987(4)
C2 C 0.5036(5) 0.7200(4) 0.6213(4)
O2 O 0.9704(5) 0.8672(3) 0.6301(5)
O3 O 0.4234(4) 0.6702(3) 0.6016(3)
C3 C 0.0325(6) 1.2197(4) 1.1189(4)
C4 C 0.2918(6) 1.4598(4) 0.8787(4)
H1 H 0.2738 1.5151 0.8945
O4 O -0.6094(4) 1.2457(3) 1.1538(3)
O5 O 0.4702(4) 0.8042(3) 0.6277(3)
O6 O 0.0434(4) 1.3058(3) 1.1246(3)
C5 C 0.7572(5) 0.7441(4) 0.6421(4)
H2 H 0.7302 0.8044 0.6464
N4 N 0.2901(5) 1.3711(3) 0.9503(3)
C6 C -0.4898(6) 1.2813(5) 1.1435(4)
C7 C -0.2305(6) 1.2430(4) 1.1413(4)
H3 H -0.2186 1.3039 1.1443
C8 C 0.8365(6) 0.5658(4) 0.6300(5)
C9 C -0.3650(5) 1.2112(4) 1.1463(4)
C10 C -0.2655(6) 1.0625(4) 1.1376(5)
C11 C 0.3851(6) 1.0205(4) 0.6127(5)
H4 H 0.4697 0.9858 0.6107
C12 C 0.2448(6) 0.7944(4) 0.4265(4)
H5 H 0.2457 0.7319 0.4751
C13 C -0.1323(6) 1.0925(4) 1.1308(5)
H6 H -0.0556 1.0519 1.1256
C14 C -0.3833(6) 1.1196(4) 1.1445(4)
H7 H -0.4723 1.0972 1.1479
C15 C 0.2434(6) 0.9614(4) 0.3813(4)
H8 H 0.2434 1.0161 0.3984
C16 C 0.9401(6) 0.6228(4) 0.6389(4)
H9 H 1.0338 0.6010 0.6409
C17 C 0.6566(5) 0.6866(4) 0.6333(4)
C18 C -0.1137(5) 1.1843(4) 1.1319(4)
O7 O -0.4718(5) 1.3673(3) 1.1267(5)
C19 C 0.3879(6) 1.1100(5) 0.6209(5)
H10 H 0.4732 1.1340 0.6247
O8 O -0.4030(6) 0.9406(4) 1.1341(6)
O9 O -0.1804(7) 0.9150(4) 1.1269(6)
C20 C 0.3192(6) 1.2925(4) 0.9260(4)
H11 H 0.3207 1.2305 0.9753
C21 C 0.2373(7) 0.9765(4) 0.2837(5)
H12 H 0.2338 1.0399 0.2368
N5 N -0.2845(7) 0.9670(4) 1.1315(5)
C22 C 0.3193(7) 1.4728(4) 0.7822(5)
H13 H 0.3203 1.5358 0.7347
C23 C 0.2653(6) 1.1649(4) 0.6235(4)
C24 C 0.3469(6) 1.2995(4) 0.8313(4)
H14 H 0.3665 1.2430 0.8178
C25 C 0.2974(6) 0.6232(4) 0.1124(5)
H15 H 0.3749 0.6585 0.1096
C26 C 0.2391(6) 0.8031(4) 0.3309(4)
H16 H 0.2369 0.7472 0.3162
C27 C 0.1658(6) 0.6625(4) 0.1258(4)
C28 C 0.0815(7) 0.5155(5) 0.1195(5)
H17 H 0.0058 0.4791 0.1209
C29 C 0.3175(6) 0.5344(4) 0.1030(5)
H18 H 0.4083 0.5119 0.0929
C30 C 0.1473(7) 1.0348(5) 0.6067(5)
H19 H 0.0633 1.0107 0.6004
C31 C 0.1442(6) 1.1243(5) 0.6149(5)
H20 H 0.0586 1.1587 0.6145
C32 C 0.2364(6) 0.8955(4) 0.2567(4)
C33 C 0.3454(6) 1.3916(4) 0.7559(4)
C34 C 0.3773(9) 1.4037(5) 0.6505(5)
H21 H 0.3031 1.4457 0.6118
H22 H 0.4633 1.4378 0.6285
C35 C 0.6976(6) 0.5961(4) 0.6269(4)
H23 H 0.6310 0.5565 0.6204
N6 N 0.8790(7) 0.4726(4) 0.6191(5)
C36 C 0.1392(7) 0.7595(4) 0.1378(5)
H24 H 0.0726 0.7991 0.0903
H25 H 0.0950 0.7471 0.2017
O10 O 1.0018(6) 0.4453(4) 0.6256(6)
C37 C 0.2352(8) 0.9098(4) 0.1507(4)
H26 H 0.3059 0.9555 0.1152
H27 H 0.1451 0.9404 0.1264
C38 C 0.0561(6) 0.6039(5) 0.1293(5)
H28 H -0.0355 0.6254 0.1384
C39 C 0.2606(7) 1.2626(4) 0.6349(5)
H29 H 0.2015 1.3082 0.5853
H30 H 0.2139 1.2542 0.6974
O11 O 0.7886(7) 0.4274(4) 0.6056(7)
C40 C 0.3927(8) 1.3104(5) 0.6294(5)
H31 H 0.4359 1.3256 0.5648
H32 H 0.4557 1.2638 0.6753
C41 C 0.2610(8) 0.8181(5) 0.1274(5)
H33 H 0.2987 0.8373 0.0609
H34 H 0.3322 0.7763 0.1694
C42 C 0.8991(5) 0.7139(4) 0.6447(4)
O12 O 1.1323(4) 0.7465(3) 0.6542(3)
Zn1_2 Zn 1.27206(6) 0.84397(4) 0.59807(5)
Zn2_2 Zn -0.76001(6) 1.34360(4) 1.09611(5)
Zn2_3 Zn 0.23999(6) 0.34360(4) 0.09611(5)
N2_2 N 0.2119(5) 1.4786(3) 1.1078(4)
O4_2 O 0.3906(4) 1.2457(3) 1.1538(3)
O12_2 O 0.1323(4) 0.7465(3) 0.6542(3)
loop_
_geom_bond_atom_site_label_1
_geom_bond_atom_site_label_2
_geom_bond_site_symmetry_1
_geom_bond_site_symmetry_2
Zn1 N1 1_555 1_555
Zn2 O6 1_555 1_555
N1 C12 1_555 1_555
N2 C28 1_555 1_555
N3 Zn1 1_555 1_555
C1 O2 1_555 1_555
O1 C3 1_555 1_555
C2 O3 1_555 1_555
C3 O6 1_555 1_555
C4 H1 1_555 1_555
O4 C6 1_555 1_555
O5 Zn1 1_555 1_555
C5 H2 1_555 1_555
N4 Zn2 1_555 1_555
C6 C9 1_555 1_555
C7 H3 1_555 1_555
C8 C16 1_555 1_555
C9 C7 1_555 1_555
C10 C13 1_555 1_555
C11 N3 1_555 1_555
H4 C11 1_555 1_555
C12 H5 1_555 1_555
C13 H6 1_555 1_555
C14 C9 1_555 1_555
H7 C14 1_555 1_555
C15 N1 1_555 1_555
H8 C15 1_555 1_555
C16 H9 1_555 1_555
C17 C2 1_555 1_555
C18 C3 1_555 1_555
O7 C6 1_555 1_555
C19 C11 1_555 1_555
H10 C19 1_555 1_555
O8 N5 1_555 1_555
O9 N5 1_555 1_555
C20 N4 1_555 1_555
H11 C20 1_555 1_555
C21 C15 1_555 1_555
H12 C21 1_555 1_555
N5 C10 1_555 1_555
C22 C4 1_555 1_555
H13 C22 1_555 1_555
C23 C19 1_555 1_555
C24 C20 1_555 1_555
H14 C24 1_555 1_555
C25 H15 1_555 1_555
C26 C12 1_555 1_555
H16 C26 1_555 1_555
C27 C25 1_555 1_555
C28 H17 1_555 1_555
C29 N2 1_555 1_555
H18 C29 1_555 1_555
C30 N3 1_555 1_555
H19 C30 1_555 1_555
C31 C23 1_555 1_555
H20 C31 1_555 1_555
C32 C21 1_555 1_555
C33 C22 1_555 1_555
C34 C33 1_555 1_555
H21 C34 1_555 1_555
H22 C34 1_555 1_555
C35 C8 1_555 1_555
H23 C35 1_555 1_555
N6 C8 1_555 1_555
C36 C27 1_555 1_555
H24 C36 1_555 1_555
H25 C36 1_555 1_555
O10 N6 1_555 1_555
C37 C32 1_555 1_555
H26 C37 1_555 1_555
H27 C37 1_555 1_555
C38 C27 1_555 1_555
H28 C38 1_555 1_555
C39 C23 1_555 1_555
H29 C39 1_555 1_555
H30 C39 1_555 1_555
O11 N6 1_555 1_555
C40 C34 1_555 1_555
H31 C40 1_555 1_555
H32 C40 1_555 1_555
C41 C36 1_555 1_555
H33 C41 1_555 1_555
H34 C41 1_555 1_555
C42 C1 1_555 1_555
O12 C1 1_555 1_555
Zn1_2 O12 1_555 1_555
Zn2_2 O4 1_555 1_555
Zn2_3 N2 1_555 1_555
N2_2 Zn2 1_555 1_555
O4_2 Zn2 1_555 1_555
O12_2 Zn1 1_555 1_555
C2 O5 1_555 1_555
C4 N4 1_555 1_555
C5 C17 1_555 1_555
C5 C42 1_555 1_555
C7 C18 1_555 1_555
C10 C14 1_555 1_555
C13 C18 1_555 1_555
C16 C42 1_555 1_555
C17 C35 1_555 1_555
C24 C33 1_555 1_555
C25 C29 1_555 1_555
C26 C32 1_555 1_555
C28 C38 1_555 1_555
C30 C31 1_555 1_555
C37 C41 1_555 1_555
C39 C40 1_555 1_555

#END
