
#######################################################################
#
#                 Cambridge Crystallographic Data Centre
#                                CCDC 
#
#######################################################################
#
# If this CIF has been generated from an entry in the Cambridge 
# Structural Database, then it will include bibliographic, chemical, 
# crystal, experimental, refinement or atomic coordinate data resulting 
# from the CCDC's data processing and validation procedures.
#
#######################################################################

data_MOBVIK
_symmetry_cell_setting           monoclinic
_symmetry_space_group_name_H-M   'P 21/n'
_symmetry_Int_Tables_number      14
_space_group_name_Hall           '-P 2yn'
loop_
_symmetry_equiv_pos_site_id
_symmetry_equiv_pos_as_xyz
1 x,y,z
2 1/2-x,1/2+y,1/2-z
3 -x,-y,-z
4 1/2+x,1/2-y,1/2+z
_cell_length_a                   11.0364(11)
_cell_length_b                   11.3292(8)
_cell_length_c                   15.9216(16)
_cell_angle_alpha                90
_cell_angle_beta                 103.696(9)
_cell_angle_gamma                90
_cell_volume                     1934.13
loop_
_atom_site_label
_atom_site_type_symbol
_atom_site_fract_x
_atom_site_fract_y
_atom_site_fract_z
Zn1 Zn 0.85691(4) 0.06426(4) 0.63983(3)
O1 O 0.9942(3) 0.0861(3) 0.74227(19)
O2 O 1.3229(3) 0.2742(3) 1.09694(19)
O3 O 0.9602(3) -0.1002(3) 0.7721(2)
C1 C 1.2000(4) 0.1418(4) 0.9953(3)
N1 N 0.6981(3) 0.0326(3) 0.6819(2)
N2 N 0.3868(4) -0.4311(3) 1.0603(2)
C2 C 1.1050(4) -0.0772(4) 0.9420(3)
C3 C 0.4151(5) -0.1308(4) 0.8988(3)
C4 C 1.0863(4) 0.0153(4) 0.8826(3)
C5 C 1.1877(6) -0.1651(5) 1.0895(3)
C6 C 1.1350(4) 0.1251(4) 0.9111(3)
C7 C 0.3380(5) -0.1401(5) 0.8057(3)
C8 C 1.1709(4) -0.0631(4) 1.0261(3)
C9 C 0.5113(5) 0.1025(5) 0.7157(3)
O4 O 1.1962(5) 0.3482(3) 0.9815(3)
C10 C 0.4732(4) -0.0108(4) 0.7314(3)
C11 C 0.5552(5) -0.1011(4) 0.7242(3)
C12 C 1.2191(4) 0.0477(4) 1.0521(3)
C13 C 1.0083(4) -0.0029(4) 0.7930(3)
C14 C 0.6640(5) -0.0759(4) 0.6999(3)
C15 C 0.4062(4) -0.2377(4) 0.9540(3)
C16 C 1.2419(4) 0.2641(4) 1.0250(3)
C17 C 0.6192(5) 0.1211(4) 0.6904(3)
C18 C 0.4850(5) -0.2522(5) 1.0340(3)
C19 C 0.3488(5) -0.0313(6) 0.7515(4)
C20 C 0.4743(5) -0.3475(5) 1.0848(3)
C21 C 0.3201(6) -0.3245(5) 0.9285(3)
C22 C 0.3124(6) -0.4189(5) 0.9831(3)
H1 H 1.063(4) -0.151(5) 0.922(3)
H2 H 0.259(5) -0.147(5) 0.812(3)
H3 H 0.726(4) -0.135(4) 0.703(3)
H4 H 1.122(5) 0.179(6) 0.869(3)
H5 H 0.533(4) -0.370(4) 1.143(3)
H6 H 0.651(4) 0.197(5) 0.679(3)
H7 H 0.360(4) -0.207(4) 0.781(3)
H8 H 0.468(4) 0.162(5) 0.720(3)
H9 H 0.540(4) -0.177(5) 0.738(3)
H10 H 0.512(5) -0.114(6) 0.907(4)
H11 H 0.264(4) -0.323(4) 0.877(3)
H12 H 0.537(6) -0.202(6) 1.047(4)
H13 H 0.381(8) -0.046(8) 0.932(5)
H14 H 0.258(5) -0.475(7) 0.962(4)
H15 H 0.292(5) -0.039(5) 0.708(3)
H16 H 0.334(5) 0.032(6) 0.778(3)
H17 H 1.255(5) 0.062(5) 1.109(4)
H18 H 1.160(6) -0.156(7) 1.140(4)
H19 H 1.281(5) -0.199(4) 1.113(3)
H20 H 1.160(7) -0.229(7) 1.075(4)
Zn1C Zn 0.35691(4) -0.56426(4) 1.13983(3)
Zn1C_2 Zn 1.35691(4) 0.43574(4) 1.13983(3)
O2C O 0.8229(3) 0.2258(3) 0.59694(19)
N2C N 0.8868(4) -0.0689(3) 0.5603(2)
loop_
_geom_bond_atom_site_label_1
_geom_bond_atom_site_label_2
_geom_bond_site_symmetry_1
_geom_bond_site_symmetry_2
Zn1 O1 1_555 1_555
O1 C13 1_555 1_555
O2 C16 1_555 1_555
O3 C13 1_555 1_555
C1 C6 1_555 1_555
N1 Zn1 1_555 1_555
N2 C20 1_555 1_555
C2 C4 1_555 1_555
C3 C7 1_555 1_555
C4 C6 1_555 1_555
C5 C8 1_555 1_555
C6 H4 1_555 1_555
C7 C19 1_555 1_555
C8 C2 1_555 1_555
C9 C10 1_555 1_555
O4 C16 1_555 1_555
C10 C11 1_555 1_555
C11 C14 1_555 1_555
C12 C1 1_555 1_555
C13 C4 1_555 1_555
C14 N1 1_555 1_555
C15 C3 1_555 1_555
C16 C1 1_555 1_555
C17 N1 1_555 1_555
C18 C15 1_555 1_555
C19 C10 1_555 1_555
C20 C18 1_555 1_555
C21 C15 1_555 1_555
C22 N2 1_555 1_555
H1 C2 1_555 1_555
H2 C7 1_555 1_555
H3 C14 1_555 1_555
H5 C20 1_555 1_555
H6 C17 1_555 1_555
H7 C7 1_555 1_555
H8 C9 1_555 1_555
H9 C11 1_555 1_555
H10 C3 1_555 1_555
H11 C21 1_555 1_555
H12 C18 1_555 1_555
H13 C3 1_555 1_555
H14 C22 1_555 1_555
H15 C19 1_555 1_555
H16 C19 1_555 1_555
H17 C12 1_555 1_555
H18 C5 1_555 1_555
H19 C5 1_555 1_555
H20 C5 1_555 1_555
Zn1C N2 1_555 1_555
Zn1C_2 O2 1_555 1_555
O2C Zn1 1_555 1_555
N2C Zn1 1_555 1_555
C8 C12 1_555 1_555
C9 C17 1_555 1_555
C21 C22 1_555 1_555

#END
