
#######################################################################
#
#                 Cambridge Crystallographic Data Centre
#                                CCDC 
#
#######################################################################
#
# If this CIF has been generated from an entry in the Cambridge 
# Structural Database, then it will include bibliographic, chemical, 
# crystal, experimental, refinement or atomic coordinate data resulting 
# from the CCDC's data processing and validation procedures.
#
#######################################################################

data_MOBVUU
_symmetry_cell_setting           triclinic
_symmetry_space_group_name_H-M   'P -1'
_symmetry_Int_Tables_number      2
_space_group_name_Hall           '-P 1'
loop_
_symmetry_equiv_pos_site_id
_symmetry_equiv_pos_as_xyz
1 x,y,z
2 -x,-y,-z
_cell_length_a                   8.8082(18)
_cell_length_b                   9.4231(19)
_cell_length_c                   11.029(2)
_cell_angle_alpha                90.48(3)
_cell_angle_beta                 111.12(3)
_cell_angle_gamma                99.21(3)
_cell_volume                     840.743
loop_
_atom_site_label
_atom_site_type_symbol
_atom_site_fract_x
_atom_site_fract_y
_atom_site_fract_z
Co1 Co -0.5000 0.0000 0.0000
S1 S -0.16221(7) -0.38237(6) -0.23092(5)
C1 C -0.5459(2) -0.28420(18) -0.16650(17)
H1 H -0.4873 -0.2220 -0.2057
C2 C -0.6666(2) -0.32062(19) -0.01304(18)
H2 H -0.6909 -0.2859 0.0558
C3 C -0.7214(2) -0.4641(2) -0.05694(19)
H3 H -0.7836 -0.5239 -0.0189
C4 C -0.6842(2) -0.5186(2) -0.15661(19)
H4 H -0.7192 -0.6156 -0.1855
C5 C -0.5937(2) -0.42734(18) -0.21357(17)
C6 C -0.5440(2) -0.4829(2) -0.32016(19)
H5 H -0.4635 -0.5451 -0.2833
H6 H -0.6404 -0.5409 -0.3853
C7 C -0.3137(2) -0.31471(19) -0.34731(17)
C8 C -0.1129(2) -0.1361(2) -0.39751(19)
C9 C 0.1721(2) 0.1174(2) -0.04644(19)
H7 H 0.2355 0.1720 0.0312
C10 C 0.0109(2) 0.1343(2) -0.1070(2)
H8 H -0.0324 0.2004 -0.0716
C11 C -0.0866(2) 0.0526(2) -0.2207(2)
H9 H -0.1968 0.0614 -0.2621
C12 C -0.0176(2) -0.0431(2) -0.27240(18)
C13 C 0.1468(2) -0.0514(2) -0.20495(17)
H10 H 0.1938 -0.1152 -0.2394
O1 O -0.44465(14) 0.03458(13) -0.16903(11)
O2 O -0.60270(19) 0.18110(15) -0.27886(15)
O3 O -0.5538(2) 0.00844(19) -0.37893(15)
N1 N -0.57903(16) -0.22937(15) -0.06712(14)
N2 N 0.24308(16) 0.02608(15) -0.09345(14)
N3 N -0.53564(18) 0.07665(16) -0.27749(14)
N4 N -0.47416(17) -0.37010(16) -0.38354(15)
H11 H -0.5416 -0.3363 -0.4497
N5 N -0.27857(18) -0.20103(18) -0.40994(15)
H12 H -0.3595 -0.1641 -0.4609
H13 H -0.129(2) -0.077(2) -0.469(2)
H14 H -0.054(3) -0.212(2) -0.404(2)
O1A O -0.55535(14) -0.03458(13) 0.16903(11)
N3A N -0.46436(18) -0.07665(16) 0.27749(14)
O2A O -0.39730(19) -0.18110(15) 0.27886(15)
O3A O -0.4462(2) -0.00844(19) 0.37893(15)
N2A N -0.24308(16) -0.02608(15) 0.09345(14)
Co1_2 Co 0.5000 0.0000 0.0000
N1A N -0.42097(16) 0.22937(15) 0.06712(14)
N2_2 N -0.75692(16) 0.02608(15) -0.09345(14)
C1A C -0.4541(2) 0.28420(18) 0.16650(17)
C2A C -0.3334(2) 0.32062(19) 0.01304(18)
H1A H -0.5127 0.2220 0.2057
C5A C -0.4063(2) 0.42734(18) 0.21357(17)
H2A H -0.3091 0.2859 -0.0558
C3A C -0.2786(2) 0.4641(2) 0.05694(19)
C4A C -0.3158(2) 0.5186(2) 0.15661(19)
C6A C -0.4560(2) 0.4829(2) 0.32016(19)
H3A H -0.2164 0.5239 0.0189
H4A H -0.2808 0.6156 0.1855
H5A H -0.5365 0.5451 0.2833
H6A H -0.3596 0.5409 0.3853
N4A N -0.52584(17) 0.37010(16) 0.38354(15)
C7A C -0.6863(2) 0.31471(19) 0.34731(17)
H11A H -0.4584 0.3363 0.4497
S1A S -0.83779(7) 0.38237(6) 0.23092(5)
N5A N -0.72143(18) 0.20103(18) 0.40994(15)
C8A C -0.8871(2) 0.1361(2) 0.39751(19)
H12A H -0.6405 0.1641 0.4609
C12A C -0.9824(2) 0.0431(2) 0.27240(18)
H13A H -0.871(2) 0.077(2) 0.469(2)
H14A H -0.946(3) 0.212(2) 0.404(2)
C11A C -0.9134(2) -0.0526(2) 0.2207(2)
C13A C -1.1468(2) 0.0514(2) 0.20495(17)
C10A C -1.0109(2) -0.1343(2) 0.1070(2)
H9A H -0.8032 -0.0614 0.2621
H10A H -1.1938 0.1152 0.2394
N2A_2 N -1.24308(16) -0.02608(15) 0.09345(14)
C9A C -1.1721(2) -0.1174(2) 0.04644(19)
H8A H -0.9676 -0.2004 0.0716
Co1_3 Co -1.5000 0.0000 0.0000
H7A H -1.2355 -0.1720 -0.0312
C14 C -0.8719(4) -0.3076(4) -0.5544(3)
O4 O -0.7475(2) -0.31407(19) -0.60366(17)
H15 H -0.967(3) -0.300(3) -0.616(3)
H16 H -0.775(4) -0.396(4) -0.660(3)
H17 H -0.898(5) -0.397(4) -0.511(4)
H18 H -0.831(6) -0.240(5) -0.481(5)
loop_
_geom_bond_atom_site_label_1
_geom_bond_atom_site_label_2
_geom_bond_site_symmetry_1
_geom_bond_site_symmetry_2
Co1 O1 1_555 1_555
S1 C7 1_555 1_555
C1 H1 1_555 1_555
C2 H2 1_555 1_555
C3 C2 1_555 1_555
H3 C3 1_555 1_555
C4 C3 1_555 1_555
H4 C4 1_555 1_555
C5 C1 1_555 1_555
C6 C5 1_555 1_555
H5 C6 1_555 1_555
H6 C6 1_555 1_555
C7 N4 1_555 1_555
C8 C12 1_555 1_555
C9 H7 1_555 1_555
C10 C9 1_555 1_555
H8 C10 1_555 1_555
C11 C10 1_555 1_555
H9 C11 1_555 1_555
C12 C11 1_555 1_555
C13 C12 1_555 1_555
H10 C13 1_555 1_555
C14 O4 1_555 1_555
O1 N3 1_555 1_555
O2 N3 1_555 1_555
O3 N3 1_555 1_555
O4 H16 1_555 1_555
N1 Co1 1_555 1_555
N2 C9 1_555 1_555
N4 C6 1_555 1_555
H11 N4 1_555 1_555
N5 C7 1_555 1_555
H12 N5 1_555 1_555
H13 C8 1_555 1_555
H14 C8 1_555 1_555
H15 C14 1_555 1_555
H17 C14 1_555 1_555
H18 C14 1_555 1_555
O1A Co1 1_555 1_555
N3A O1A 1_555 1_555
O2A N3A 1_555 1_555
O3A N3A 1_555 1_555
N2A Co1 1_555 1_555
Co1_2 N2 1_555 1_555
N1A Co1 1_555 1_555
N2_2 Co1 1_555 1_555
C1A N1A 1_555 1_555
C2A N1A 1_555 1_555
H1A C1A 1_555 1_555
C5A C1A 1_555 1_555
H2A C2A 1_555 1_555
C3A C2A 1_555 1_555
C4A C5A 1_555 1_555
C6A C5A 1_555 1_555
H3A C3A 1_555 1_555
H4A C4A 1_555 1_555
H5A C6A 1_555 1_555
H6A C6A 1_555 1_555
N4A C6A 1_555 1_555
C7A N4A 1_555 1_555
H11A N4A 1_555 1_555
S1A C7A 1_555 1_555
N5A C7A 1_555 1_555
C8A N5A 1_555 1_555
H12A N5A 1_555 1_555
C12A C8A 1_555 1_555
H13A C8A 1_555 1_555
H14A C8A 1_555 1_555
C11A C12A 1_555 1_555
C13A C12A 1_555 1_555
C10A C11A 1_555 1_555
H9A C11A 1_555 1_555
H10A C13A 1_555 1_555
N2A_2 C13A 1_555 1_555
C9A C10A 1_555 1_555
H8A C10A 1_555 1_555
Co1_3 N2A_2 1_555 1_555
H7A C9A 1_555 1_555
C1 N1 1_555 1_555
C2 N1 1_555 1_555
C4 C5 1_555 1_555
C8 N5 1_555 1_555
C13 N2 1_555 1_555
C3A C4A 1_555 1_555
N2A_2 C9A 1_555 1_555

#END
