
#######################################################################
#
#                 Cambridge Crystallographic Data Centre
#                                CCDC 
#
#######################################################################
#
# If this CIF has been generated from an entry in the Cambridge 
# Structural Database, then it will include bibliographic, chemical, 
# crystal, experimental, refinement or atomic coordinate data resulting 
# from the CCDC's data processing and validation procedures.
#
#######################################################################

data_MOBWAB
_symmetry_cell_setting           monoclinic
_symmetry_space_group_name_H-M   'C 2/c'
_symmetry_Int_Tables_number      15
_space_group_name_Hall           '-C 2yn'
loop_
_symmetry_equiv_pos_site_id
_symmetry_equiv_pos_as_xyz
1 x,y,z
2 1/2+x,1/2+y,z
3 x,-y,1/2+z
4 1/2+x,1/2-y,1/2+z
5 -x,-y,-z
6 1/2-x,1/2-y,-z
7 -x,y,1/2-z
8 1/2-x,1/2+y,1/2-z
_cell_length_a                   29.482(6)
_cell_length_b                   8.7676(18)
_cell_length_c                   22.297(5)
_cell_angle_alpha                90
_cell_angle_beta                 126.00(3)
_cell_angle_gamma                90
_cell_volume                     4662.75
loop_
_atom_site_label
_atom_site_type_symbol
_atom_site_fract_x
_atom_site_fract_y
_atom_site_fract_z
Mn1 Mn 0.0000 0.0000 0.0000
S1 S 0.12817(3) -0.11954(11) 0.26916(3)
S2 S 0.17614(2) 0.41665(7) 0.20220(2)
S3 S 0.0000 0.27989(10) 0.2500
N1 N 0.05818(6) -0.0584(2) 0.11748(7)
N2 N 0.07548(5) 0.0664(2) -0.00069(6)
N3 N 0.23521(6) 0.1951(2) 0.19628(7)
H1 H 0.2547 0.1130 0.2146
N4 N 0.24382(6) 0.2088(2) 0.30409(7)
H2 H 0.2694 0.1403 0.3201
N5 N 0.27884(7) 0.0052(3) 0.51845(9)
N6 N -0.00984(6) 0.24211(19) 0.03199(7)
N7 N 0.02957(6) 0.5530(2) 0.23319(7)
H3 H 0.0314 0.6502 0.2396
C1 C 0.24796(8) 0.0725(3) 0.45178(9)
H4 H 0.2109 0.0412 0.4188
C2 C 0.33164(9) 0.0540(3) 0.56487(11)
H5 H 0.3540 0.0096 0.6116
C3 C 0.35467(9) 0.1649(3) 0.54790(10)
H6 H 0.3916 0.1958 0.5824
C4 C 0.32199(8) 0.2306(3) 0.47825(10)
H7 H 0.3370 0.3054 0.4650
C5 C 0.26699(7) 0.1848(3) 0.42845(8)
C6 C 0.22833(8) 0.2549(3) 0.35257(9)
H8 H 0.1901 0.2234 0.3310
H9 H 0.2300 0.3652 0.3570
C7 C 0.22087(7) 0.2661(2) 0.23614(9)
C8 C 0.22078(7) 0.2447(3) 0.12500(8)
H10 H 0.2518 0.2209 0.1226
H11 H 0.2164 0.3547 0.1219
C9 C 0.12393(7) 0.1254(2) 0.05889(8)
H12 H 0.1276 0.1332 0.1032
C10 C 0.16803(7) 0.1746(2) 0.05830(8)
C11 C 0.16200(7) 0.1605(3) -0.00815(8)
H13 H 0.1907 0.1917 -0.0113
C12 C 0.11318(8) 0.0998(3) -0.06945(9)
H14 H 0.1088 0.0897 -0.1141
C13 C 0.07120(7) 0.0544(3) -0.06381(8)
H15 H 0.0385 0.0138 -0.1054
C14 C 0.08778(7) -0.0830(2) 0.18059(9)
C15 C -0.05214(7) 0.3336(3) -0.01816(8)
H16 H -0.0763 0.2990 -0.0667
C16 C -0.06139(8) 0.4747(3) -0.00143(10)
H17 H -0.0910 0.5345 -0.0379
C17 C -0.02592(8) 0.5275(3) 0.07078(9)
H18 H -0.0316 0.6232 0.0833
C18 C 0.01793(7) 0.4371(2) 0.12406(8)
C19 C 0.02402(7) 0.2958(2) 0.10245(8)
H19 H 0.0531 0.2335 0.1383
C20 C 0.05844(7) 0.4865(3) 0.20478(9)
H20 H 0.0798 0.3987 0.2348
H21 H 0.0846 0.5605 0.2089
C21 C 0.0000 0.4703(3) 0.2500
N1D N -0.05818(6) 0.0584(2) -0.11748(7)
C14D C -0.08778(7) 0.0830(2) -0.18059(9)
S1D S -0.12817(3) 0.11954(11) -0.26916(3)
N2D N -0.07548(5) -0.0664(2) 0.00069(6)
C9D C -0.12393(7) -0.1254(2) -0.05889(8)
H12D H -0.1276 -0.1332 -0.1032
C10D C -0.16803(7) -0.1746(2) -0.05830(8)
C8D C -0.22078(7) -0.2447(3) -0.12500(8)
N3D N -0.23521(6) -0.1951(2) -0.19628(7)
H1D H -0.2547 -0.1130 -0.2146
C7D C -0.22087(7) -0.2661(2) -0.23614(9)
S2D S -0.17614(2) -0.41665(7) -0.20220(2)
N4D N -0.24382(6) -0.2088(2) -0.30409(7)
H2D H -0.2694 -0.1403 -0.3201
C6D C -0.22833(8) -0.2549(3) -0.35257(9)
C5D C -0.26699(7) -0.1848(3) -0.42845(8)
C1D C -0.24796(8) -0.0725(3) -0.45178(9)
N5D N -0.27884(7) -0.0052(3) -0.51845(9)
C2D C -0.33164(9) -0.0540(3) -0.56487(11)
H5D H -0.3540 -0.0096 -0.6116
C3D C -0.35467(9) -0.1649(3) -0.54790(10)
H6D H -0.3916 -0.1958 -0.5824
C4D C -0.32199(8) -0.2306(3) -0.47825(10)
H7D H -0.3370 -0.3054 -0.4650
H4D H -0.2109 -0.0412 -0.4188
H8D H -0.1901 -0.2234 -0.3310
H9D H -0.2300 -0.3652 -0.3570
H10D H -0.2518 -0.2209 -0.1226
H11D H -0.2164 -0.3547 -0.1219
C11D C -0.16200(7) -0.1605(3) 0.00815(8)
H13D H -0.1907 -0.1917 0.0113
C12D C -0.11318(8) -0.0998(3) 0.06945(9)
H14D H -0.1088 -0.0897 0.1141
C13D C -0.07120(7) -0.0544(3) 0.06381(8)
H15D H -0.0385 -0.0138 0.1054
N7F N -0.02957(6) 0.5530(2) 0.26681(7)
H3F H -0.0314 0.6502 0.2604
C20F C -0.05844(7) 0.4865(3) 0.29522(9)
C18F C -0.01793(7) 0.4371(2) 0.37594(8)
C17F C 0.02592(8) 0.5275(3) 0.42922(9)
C16F C 0.06139(8) 0.4747(3) 0.50143(10)
C15F C 0.05214(7) 0.3336(3) 0.51816(8)
N6F N 0.00984(6) 0.24211(19) 0.46801(7)
Mn1F Mn 0.0000 0.0000 0.5000
C19F C -0.02402(7) 0.2958(2) 0.39755(8)
H19F H -0.0531 0.2335 0.3617
H16F H 0.0763 0.2990 0.5667
H17F H 0.0910 0.5345 0.5379
H18F H 0.0316 0.6232 0.4167
H20F H -0.0798 0.3987 0.2652
H21F H -0.0846 0.5605 0.2911
N6D N 0.00984(6) -0.24211(19) -0.03199(7)
O1 O 0.0000 0.8895(3) 0.2500
H22 H 0.032(2) 0.969(7) 0.253(3)
H22F H -0.032(2) 0.969(7) 0.247(3)
loop_
_geom_bond_atom_site_label_1
_geom_bond_atom_site_label_2
_geom_bond_site_symmetry_1
_geom_bond_site_symmetry_2
Mn1 N1 1_555 1_555
S1 C14 1_555 1_555
S2 C7 1_555 1_555
S3 C21 1_555 1_555
N1 C14 1_555 1_555
N2 Mn1 1_555 1_555
N3 H1 1_555 1_555
N4 H2 1_555 1_555
N5 C1 1_555 1_555
N6 Mn1 1_555 1_555
N7 H3 1_555 1_555
C1 H4 1_555 1_555
C2 N5 1_555 1_555
H5 C2 1_555 1_555
C3 C2 1_555 1_555
H6 C3 1_555 1_555
C4 C3 1_555 1_555
H7 C4 1_555 1_555
C5 C1 1_555 1_555
C6 N4 1_555 1_555
H8 C6 1_555 1_555
H9 C6 1_555 1_555
C7 N3 1_555 1_555
C8 N3 1_555 1_555
H10 C8 1_555 1_555
H11 C8 1_555 1_555
C9 N2 1_555 1_555
H12 C9 1_555 1_555
C10 C8 1_555 1_555
C11 C10 1_555 1_555
H13 C11 1_555 1_555
C12 C11 1_555 1_555
H14 C12 1_555 1_555
C13 N2 1_555 1_555
H15 C13 1_555 1_555
C15 N6 1_555 1_555
H16 C15 1_555 1_555
C16 C15 1_555 1_555
H17 C16 1_555 1_555
C17 C16 1_555 1_555
H18 C17 1_555 1_555
C18 C17 1_555 1_555
C19 N6 1_555 1_555
H19 C19 1_555 1_555
C20 N7 1_555 1_555
H20 C20 1_555 1_555
H21 C20 1_555 1_555
C21 N7 1_555 1_555
O1 H22 1_555 1_555
N1D Mn1 1_555 1_555
C14D N1D 1_555 1_555
S1D C14D 1_555 1_555
N2D Mn1 1_555 1_555
C9D N2D 1_555 1_555
H12D C9D 1_555 1_555
C10D C9D 1_555 1_555
C8D C10D 1_555 1_555
N3D C8D 1_555 1_555
H1D N3D 1_555 1_555
C7D N3D 1_555 1_555
S2D C7D 1_555 1_555
N4D C7D 1_555 1_555
H2D N4D 1_555 1_555
C6D N4D 1_555 1_555
C5D C6D 1_555 1_555
C1D C5D 1_555 1_555
N5D C1D 1_555 1_555
C2D N5D 1_555 1_555
H5D C2D 1_555 1_555
C3D C2D 1_555 1_555
H6D C3D 1_555 1_555
C4D C5D 1_555 1_555
H7D C4D 1_555 1_555
H4D C1D 1_555 1_555
H8D C6D 1_555 1_555
H9D C6D 1_555 1_555
H10D C8D 1_555 1_555
H11D C8D 1_555 1_555
C11D C10D 1_555 1_555
H13D C11D 1_555 1_555
C12D C11D 1_555 1_555
H14D C12D 1_555 1_555
C13D N2D 1_555 1_555
H15D C13D 1_555 1_555
N7F C21 1_555 1_555
H3F N7F 1_555 1_555
C20F N7F 1_555 1_555
C18F C20F 1_555 1_555
C17F C18F 1_555 1_555
C16F C17F 1_555 1_555
C15F C16F 1_555 1_555
N6F C15F 1_555 1_555
Mn1F N6F 1_555 1_555
C19F C18F 1_555 1_555
H19F C19F 1_555 1_555
H16F C15F 1_555 1_555
H17F C16F 1_555 1_555
H18F C17F 1_555 1_555
H20F C20F 1_555 1_555
H21F C20F 1_555 1_555
N6D Mn1 1_555 1_555
H22F O1 1_555 1_555
N4 C7 1_555 1_555
C4 C5 1_555 1_555
C5 C6 1_555 1_555
C9 C10 1_555 1_555
C12 C13 1_555 1_555
C18 C19 1_555 1_555
C18 C20 1_555 1_555
C3D C4D 1_555 1_555
C12D C13D 1_555 1_555
N6F C19F 1_555 1_555

#END
