
#######################################################################
#
#                 Cambridge Crystallographic Data Centre
#                                CCDC 
#
#######################################################################
#
# If this CIF has been generated from an entry in the Cambridge 
# Structural Database, then it will include bibliographic, chemical, 
# crystal, experimental, refinement or atomic coordinate data resulting 
# from the CCDC's data processing and validation procedures.
#
#######################################################################

data_MOCGOB
_symmetry_cell_setting           monoclinic
_symmetry_space_group_name_H-M   'P 21/c'
_symmetry_Int_Tables_number      14
_space_group_name_Hall           '-P 2ybc'
loop_
_symmetry_equiv_pos_site_id
_symmetry_equiv_pos_as_xyz
1 x,y,z
2 -x,1/2+y,1/2-z
3 -x,-y,-z
4 x,1/2-y,1/2+z
_cell_length_a                   8.7757(10)
_cell_length_b                   22.283(2)
_cell_length_c                   10.4045(12)
_cell_angle_alpha                90
_cell_angle_beta                 91.670(2)
_cell_angle_gamma                90
_cell_volume                     2033.72
loop_
_atom_site_label
_atom_site_type_symbol
_atom_site_fract_x
_atom_site_fract_y
_atom_site_fract_z
Pr1 Pr 0.239470(15) -0.498800(6) -0.030070(14)
O1 O 0.0797(2) -0.46142(9) -0.21499(19)
O2 O -0.1715(2) -0.45188(9) -0.18189(19)
O3 O 0.3280(2) -0.39552(9) -0.1214(2)
O4 O 0.5301(2) -0.44544(8) -0.05087(19)
O5 O 0.1828(2) -0.61128(8) -0.0805(2)
O6 O -0.0240(2) -0.55727(8) -0.0567(2)
O7 O 0.3333(2) -0.43372(9) 0.15214(18)
H1 H 0.2754 -0.4236 0.2128
H2 H 0.4281 -0.4328 0.1714
O8 O 0.3672(2) -0.53085(9) -0.2339(2)
H3 H 0.3445 -0.5638 -0.2711
H4 H 0.4095 -0.5045 -0.2795
N1 N 0.0561(3) -0.40620(12) -0.4490(2)
N2 N 0.0563(3) -0.42237(15) -0.5722(3)
N3 N 0.1878(3) -0.40717(15) -0.6146(3)
N4 N 0.2738(3) -0.38118(17) -0.5216(3)
N5 N 0.5007(3) -0.29956(11) -0.1965(2)
N6 N 0.5540(4) -0.29301(16) -0.3148(3)
N7 N 0.4689(6) -0.2537(2) -0.3714(4)
N8 N 0.3619(4) -0.23342(17) -0.2926(5)
N9 N 0.0222(3) -0.71250(11) -0.0085(3)
N10 N -0.0020(5) -0.72507(16) 0.1149(4)
N11 N 0.0905(4) -0.76830(16) 0.1475(4)
N12 N 0.1755(3) -0.78373(12) 0.0471(3)
C1 C -0.0523(3) -0.44631(12) -0.2458(3)
C2 C -0.0793(3) -0.41570(17) -0.3750(3)
H5 H -0.1507 -0.4398 -0.4259
H6 H -0.1269 -0.3771 -0.3604
C3 C 0.1894(4) -0.38191(18) -0.4187(3)
H7 H 0.2191 -0.3676 -0.3378
C4 C 0.4666(3) -0.39849(12) -0.0943(3)
C5 C 0.5666(3) -0.34366(12) -0.1087(3)
H8 H 0.5834 -0.3252 -0.0250
H9 H 0.6649 -0.3561 -0.1397
C6 C 0.3839(4) -0.26328(16) -0.1859(4)
H10 H 0.3255 -0.2594 -0.1131
C7 C 0.0434(3) -0.60700(12) -0.0697(3)
C8 C -0.0553(3) -0.66289(13) -0.0729(3)
H11 H -0.1503 -0.6547 -0.0309
H12 H -0.0791 -0.6738 -0.1615
C9 C 0.1328(4) -0.74817(15) -0.0462(3)
H13 H 0.1740 -0.7478 -0.1276
Pr1B Pr -0.239470(15) -0.501200(6) 0.030070(14)
Pr1B_2 Pr 0.760530(15) -0.501200(6) 0.030070(14)
O2B O 0.1715(2) -0.54812(9) 0.18189(19)
O4B O 0.4699(2) -0.55456(8) 0.05087(19)
O6B O 0.0240(2) -0.44273(8) 0.0567(2)
O9 O 0.3951(3) -0.61864(10) -0.4207(2)
H14 H 0.3307 -0.6468 -0.4117
H15 H 0.4862 -0.6298 -0.4315
O10 O 0.5549(3) -0.45510(13) -0.3519(3)
H16 H 0.5776 -0.4857 -0.3922
H17 H 0.6205 -0.4377 -0.3016
loop_
_geom_bond_atom_site_label_1
_geom_bond_atom_site_label_2
_geom_bond_site_symmetry_1
_geom_bond_site_symmetry_2
Pr1 O1 1_555 1_555
O1 C1 1_555 1_555
O2 C1 1_555 1_555
O3 Pr1 1_555 1_555
O4 Pr1 1_555 1_555
O5 Pr1 1_555 1_555
O6 Pr1 1_555 1_555
O7 Pr1 1_555 1_555
H1 O7 1_555 1_555
H2 O7 1_555 1_555
O8 Pr1 1_555 1_555
H3 O8 1_555 1_555
H4 O8 1_555 1_555
N1 N2 1_555 1_555
N2 N3 1_555 1_555
N3 N4 1_555 1_555
N4 C3 1_555 1_555
N5 N6 1_555 1_555
N6 N7 1_555 1_555
N7 N8 1_555 1_555
N8 C6 1_555 1_555
N9 N10 1_555 1_555
N10 N11 1_555 1_555
N11 N12 1_555 1_555
N12 C9 1_555 1_555
C1 C2 1_555 1_555
C2 N1 1_555 1_555
H5 C2 1_555 1_555
H6 C2 1_555 1_555
C3 N1 1_555 1_555
H7 C3 1_555 1_555
C4 O3 1_555 1_555
C5 N5 1_555 1_555
H8 C5 1_555 1_555
H9 C5 1_555 1_555
C6 N5 1_555 1_555
H10 C6 1_555 1_555
C7 O5 1_555 1_555
C8 N9 1_555 1_555
H11 C8 1_555 1_555
H12 C8 1_555 1_555
C9 N9 1_555 1_555
H13 C9 1_555 1_555
O9 H14 1_555 1_555
H15 O9 1_555 1_555
O10 H16 1_555 1_555
H17 O10 1_555 1_555
Pr1B O2 1_555 1_555
Pr1B_2 O4 1_555 1_555
O2B Pr1 1_555 1_555
O4B Pr1 1_555 1_555
O6B Pr1 1_555 1_555
O4 C4 1_555 1_555
O6 C7 1_555 1_555
O6 Pr1B 1_555 1_555
C4 C5 1_555 1_555
C7 C8 1_555 1_555
Pr1B O6B 1_555 1_555
Pr1B_2 O4B 1_555 1_555

#END
