
#######################################################################
#
#                 Cambridge Crystallographic Data Centre
#                                CCDC 
#
#######################################################################
#
# If this CIF has been generated from an entry in the Cambridge 
# Structural Database, then it will include bibliographic, chemical, 
# crystal, experimental, refinement or atomic coordinate data resulting 
# from the CCDC's data processing and validation procedures.
#
#######################################################################

data_MOCHIW
_symmetry_cell_setting           triclinic
_symmetry_space_group_name_H-M   'P -1'
_symmetry_Int_Tables_number      2
_space_group_name_Hall           '-P 1'
loop_
_symmetry_equiv_pos_site_id
_symmetry_equiv_pos_as_xyz
1 x,y,z
2 -x,-y,-z
_cell_length_a                   6.6544(2)
_cell_length_b                   7.0380(2)
_cell_length_c                   7.7938(3)
_cell_angle_alpha                111.160(2)
_cell_angle_beta                 95.307(2)
_cell_angle_gamma                90.590(2)
_cell_volume                     338.567
loop_
_atom_site_label
_atom_site_type_symbol
_atom_site_fract_x
_atom_site_fract_y
_atom_site_fract_z
Nd1 Nd 0.13017(3) 0.22235(3) -0.06652(3)
P1 P -0.32593(16) 0.25210(17) 0.02081(16)
H1 H -0.3622 0.2796 0.2022
O1 O -0.1992(4) 0.0610(5) -0.0347(5)
O2 O -0.5217(5) 0.2276(5) -0.1020(5)
O3 O -0.1815(4) 0.4269(5) 0.0271(4)
O4 O -0.0528(6) 0.2409(5) -0.3511(5)
O5 O 0.1590(6) -0.0778(5) -0.3505(5)
O6 O 0.2042(7) 0.3791(6) 0.2704(5)
H2 H 0.2730 0.3290 0.3363
H3 H 0.1733 0.5126 0.3428
C1 C -0.0620(7) 0.0921(7) -0.5001(6)
Nd1A Nd -0.13017(3) -0.22235(3) 0.06652(3)
Nd1A_2 Nd 0.86983(3) -0.22235(3) 0.06652(3)
Nd1A_3 Nd -0.13017(3) 0.77765(3) 0.06652(3)
Nd1_2 Nd 0.13017(3) -0.77765(3) -0.06652(3)
Nd1_3 Nd -0.86983(3) 0.22235(3) -0.06652(3)
Nd1A_4 Nd -0.13017(3) -0.22235(3) -0.93348(3)
P1A P 0.32593(16) -0.25210(17) -0.02081(16)
H1A H 0.3622 -0.2796 -0.2022
O1A O 0.1992(4) -0.0610(5) 0.0347(5)
O2A O -0.4783(5) -0.2276(5) 0.1020(5)
O2_2 O 0.4783(5) 0.2276(5) -0.1020(5)
O2A_2 O 0.5217(5) -0.2276(5) 0.1020(5)
O3A O 0.1815(4) 0.5731(5) -0.0271(4)
O3A_2 O 0.1815(4) -0.4269(5) -0.0271(4)
O3_2 O -0.1815(4) -0.5731(5) 0.0271(4)
O4A O 0.0528(6) -0.2409(5) 0.3511(5)
O4A_2 O 0.0528(6) -0.2409(5) -0.6489(5)
O5A O -0.1590(6) 0.0778(5) 0.3505(5)
O5A_2 O -0.1590(6) 0.0778(5) -0.6495(5)
O6A O -0.2042(7) -0.3791(6) -0.2704(5)
H2A H -0.2730 -0.3290 -0.3363
H3A H -0.1733 -0.5126 -0.3428
C1A C 0.0620(7) -0.0921(7) -0.4999(6)
O7 O 0.4295(7) 0.2169(9) 0.4955(7)
H4 H 0.5037 0.2767 0.6224
H5 H 0.4887 0.0841 0.3984
loop_
_geom_bond_atom_site_label_1
_geom_bond_atom_site_label_2
_geom_bond_site_symmetry_1
_geom_bond_site_symmetry_2
Nd1 O1 1_555 1_555
P1 H1 1_555 1_555
O1 P1 1_555 1_555
O2 P1 1_555 1_555
O3 Nd1 1_555 1_555
O4 Nd1 1_555 1_555
O5 Nd1 1_555 1_555
O6 Nd1 1_555 1_555
H2 O6 1_555 1_555
H3 O6 1_555 1_555
O7 H4 1_555 1_555
H5 O7 1_555 1_555
C1 O4 1_555 1_555
Nd1A O1 1_555 1_555
Nd1A_2 O2A_2 1_555 1_555
Nd1A_3 O3 1_555 1_555
Nd1_2 O3A_2 1_555 1_555
Nd1_3 O2 1_555 1_555
Nd1A_4 O4A_2 1_555 1_555
P1A H1A 1_555 1_555
O1A Nd1 1_555 1_555
O2A Nd1A 1_555 1_555
O2_2 Nd1 1_555 1_555
O2A_2 P1A 1_555 1_555
O3A Nd1 1_555 1_555
O3A_2 Nd1A 1_555 1_555
O3_2 Nd1A 1_555 1_555
O4A Nd1A 1_555 1_555
O4A_2 C1A 1_555 1_555
O5A Nd1A 1_555 1_555
O5A_2 C1 1_555 1_555
O6A Nd1A 1_555 1_555
H2A O6A 1_555 1_555
H3A O6A 1_555 1_555
C1A O5 1_555 1_555
P1 O3 1_555 1_555
C1 C1A 1_555 1_555
Nd1A O1A 1_555 1_555
Nd1A_3 O3A 1_555 1_555
Nd1_2 O3_2 1_555 1_555
Nd1A_4 O5A_2 1_555 1_555
P1A O1A 1_555 1_555
P1A O3A_2 1_555 1_555

#END
