
#######################################################################
#
#                 Cambridge Crystallographic Data Centre
#                                CCDC 
#
#######################################################################
#
# If this CIF has been generated from an entry in the Cambridge 
# Structural Database, then it will include bibliographic, chemical, 
# crystal, experimental, refinement or atomic coordinate data resulting 
# from the CCDC's data processing and validation procedures.
#
#######################################################################

data_MOCHUI
_symmetry_cell_setting           triclinic
_symmetry_space_group_name_H-M   'P -1'
_symmetry_Int_Tables_number      2
_space_group_name_Hall           '-P 1'
loop_
_symmetry_equiv_pos_site_id
_symmetry_equiv_pos_as_xyz
1 x,y,z
2 -x,-y,-z
_cell_length_a                   6.5434(2)
_cell_length_b                   6.9311(2)
_cell_length_c                   7.7465(3)
_cell_angle_alpha                111.4870(10)
_cell_angle_beta                 95.645(2)
_cell_angle_gamma                90.833(2)
_cell_volume                     324.839
loop_
_atom_site_label
_atom_site_type_symbol
_atom_site_fract_x
_atom_site_fract_y
_atom_site_fract_z
Gd1 Gd 0.12603(2) 0.22052(3) -0.06766(2)
P1 P -0.32840(15) 0.25208(16) 0.02006(14)
H1 H -0.3622 0.2796 0.2022
O1 O -0.1994(4) 0.0585(4) -0.0357(4)
O2 O -0.5280(4) 0.2240(5) -0.1048(4)
O3 O -0.1825(4) 0.4279(4) 0.0242(4)
O4 O -0.0518(5) 0.2446(5) -0.3483(4)
O5 O 0.1525(5) -0.0834(5) -0.3474(4)
O6 O 0.2031(6) 0.3764(5) 0.2612(4)
H2 H 0.2730 0.3290 0.3363
H3 H 0.1733 0.5126 0.3428
C1 C -0.0591(6) 0.0942(6) -0.5009(6)
Gd1A Gd -0.12603(2) -0.22052(3) 0.06766(2)
Gd1A_2 Gd -0.12603(2) 0.77948(3) 0.06766(2)
Gd1_2 Gd -0.87397(2) 0.22052(3) -0.06766(2)
Gd1A_3 Gd -0.12603(2) -0.22052(3) -0.93234(2)
Gd1A_4 Gd 0.87397(2) -0.22052(3) 0.06766(2)
Gd1_3 Gd 0.12603(2) -0.77948(3) -0.06766(2)
P1A P 0.32840(15) -0.25208(16) -0.02006(14)
H1A H 0.3622 -0.2796 -0.2022
O1A O 0.1994(4) -0.0585(4) 0.0357(4)
O2_2 O 0.4720(4) 0.2240(5) -0.1048(4)
O2A O 0.5280(4) -0.2240(5) 0.1048(4)
O2A_2 O -0.4720(4) -0.2240(5) 0.1048(4)
O3A O 0.1825(4) 0.5721(4) -0.0242(4)
O3A_2 O 0.1825(4) -0.4279(4) -0.0242(4)
O3_2 O -0.1825(4) -0.5721(4) 0.0242(4)
O4A O 0.0518(5) -0.2446(5) -0.6517(4)
O4A_2 O 0.0518(5) -0.2446(5) 0.3483(4)
O5A O -0.1525(5) 0.0834(5) -0.6526(4)
O5A_2 O -0.1525(5) 0.0834(5) 0.3474(4)
O6A O -0.2031(6) -0.3764(5) -0.2612(4)
H2A H -0.2730 -0.3290 -0.3363
H3A H -0.1733 -0.5126 -0.3428
C1A C 0.0591(6) -0.0942(6) -0.4991(6)
O7 O 0.4218(6) 0.2102(7) 0.4913(6)
H4 H 0.5037 0.2767 0.6224
H5 H 0.4887 0.0841 0.3984
loop_
_geom_bond_atom_site_label_1
_geom_bond_atom_site_label_2
_geom_bond_site_symmetry_1
_geom_bond_site_symmetry_2
Gd1 O1 1_555 1_555
P1 H1 1_555 1_555
O1 P1 1_555 1_555
O2 P1 1_555 1_555
O3 Gd1 1_555 1_555
O4 Gd1 1_555 1_555
O5 Gd1 1_555 1_555
O6 Gd1 1_555 1_555
H2 O6 1_555 1_555
H3 O6 1_555 1_555
O7 H4 1_555 1_555
H5 O7 1_555 1_555
C1 O4 1_555 1_555
Gd1A O1 1_555 1_555
Gd1A_2 O3 1_555 1_555
Gd1_2 O2 1_555 1_555
Gd1A_3 O4A 1_555 1_555
Gd1A_4 O2A 1_555 1_555
Gd1_3 O3A_2 1_555 1_555
P1A H1A 1_555 1_555
O1A Gd1 1_555 1_555
O2_2 Gd1 1_555 1_555
O2A P1A 1_555 1_555
O2A_2 Gd1A 1_555 1_555
O3A Gd1 1_555 1_555
O3A_2 Gd1A 1_555 1_555
O3_2 Gd1A 1_555 1_555
O4A C1A 1_555 1_555
O4A_2 Gd1A 1_555 1_555
O5A C1 1_555 1_555
O5A_2 Gd1A 1_555 1_555
O6A Gd1A 1_555 1_555
H2A O6A 1_555 1_555
H3A O6A 1_555 1_555
C1A O5 1_555 1_555
P1 O3 1_555 1_555
C1 C1A 1_555 1_555
Gd1A O1A 1_555 1_555
Gd1A_2 O3A 1_555 1_555
Gd1A_3 O5A 1_555 1_555
Gd1_3 O3_2 1_555 1_555
P1A O1A 1_555 1_555
P1A O3A_2 1_555 1_555

#END
