
#######################################################################
#
#                 Cambridge Crystallographic Data Centre
#                                CCDC 
#
#######################################################################
#
# If this CIF has been generated from an entry in the Cambridge 
# Structural Database, then it will include bibliographic, chemical, 
# crystal, experimental, refinement or atomic coordinate data resulting 
# from the CCDC's data processing and validation procedures.
#
#######################################################################

data_MOCHAO
_symmetry_cell_setting           triclinic
_symmetry_space_group_name_H-M   'P -1'
_symmetry_Int_Tables_number      2
_space_group_name_Hall           '-P 1'
loop_
_symmetry_equiv_pos_site_id
_symmetry_equiv_pos_as_xyz
1 x,y,z
2 -x,-y,-z
_cell_length_a                   8.8696(12)
_cell_length_b                   12.0165(17)
_cell_length_c                   18.542(3)
_cell_angle_alpha                92.244(2)
_cell_angle_beta                 98.968(2)
_cell_angle_gamma                101.927(2)
_cell_volume                     1904.72
loop_
_atom_site_label
_atom_site_type_symbol
_atom_site_fract_x
_atom_site_fract_y
_atom_site_fract_z
Sm1 Sm -0.25077(4) 0.02352(3) -0.000840(17)
O1 O -0.4972(6) -0.0289(4) -0.0790(3)
O2 O -0.7359(5) -0.0395(5) -0.1336(3)
O3 O -0.3789(5) -0.1601(4) 0.0297(3)
O4 O -0.6380(5) -0.1909(4) 0.0138(3)
O5 O -0.0338(5) -0.0548(4) 0.0583(2)
O6 O 0.1655(5) -0.1190(4) 0.1134(3)
O7 O -0.0598(5) 0.1921(4) 0.0504(3)
H1 H 0.0295 0.2060 0.0374
H2 H -0.0817 0.2375 0.0815
O8 O -0.2336(5) -0.1292(4) -0.0923(3)
H3 H -0.1645 -0.1686 -0.0831
H4 H -0.2966 -0.1419 -0.1327
N1 N -0.6014(7) 0.0686(5) -0.2477(3)
N2 N -0.5479(9) 0.1799(7) -0.2280(4)
N3 N -0.6327(10) 0.2331(7) -0.2701(5)
N4 N -0.7411(9) 0.1608(7) -0.3160(4)
N5 N -0.6589(7) -0.4052(5) 0.0594(4)
N6 N -0.6962(9) -0.5141(6) 0.0352(5)
N7 N -0.8313(10) -0.5562(7) 0.0519(6)
N8 N -0.8798(9) -0.4763(7) 0.0890(5)
N9 N -0.0030(7) -0.2247(5) 0.2124(3)
N10 N -0.0451(8) -0.3360(6) 0.2198(4)
N11 N 0.0482(9) -0.3555(7) 0.2757(4)
N12 N 0.1500(9) -0.2620(7) 0.3053(4)
C1 C -0.5951(8) -0.0298(6) -0.1346(4)
C2 C -0.5366(9) -0.0169(7) -0.2068(4)
H11 H -0.4234 0.0055 -0.1979
H12 H -0.5665 -0.0896 -0.2356
C3 C -0.7192(10) 0.0606(7) -0.3006(4)
H13 H -0.7793 -0.0077 -0.3241
C4 C -0.5127(7) -0.2186(5) 0.0293(4)
C5 C -0.5099(8) -0.3364(6) 0.0537(5)
H14 H -0.4631 -0.3758 0.0194
H15 H -0.4431 -0.3291 0.1011
C6 C -0.7732(10) -0.3854(7) 0.0922(5)
H16 H -0.7761 -0.3154 0.1145
C7 C 0.0266(8) -0.1106(5) 0.1057(3)
C8 C -0.0795(8) -0.1684(7) 0.1539(4)
H17 H -0.1271 -0.1123 0.1755
H18 H -0.1625 -0.2246 0.1242
C9 C 0.1151(11) -0.1826(8) 0.2642(5)
H19 H 0.1671 -0.1064 0.2709
Sm1A Sm -0.74923(4) -0.02352(3) 0.000840(17)
Sm1A_2 Sm 0.25077(4) -0.02352(3) 0.000840(17)
O1A O -0.5028(6) 0.0289(4) 0.0790(3)
O2A O -0.2641(5) 0.0395(5) 0.1336(3)
O4A O -0.3620(5) 0.1909(4) -0.0138(3)
O5A O 0.0338(5) 0.0548(4) -0.0583(2)
O6A O -0.1655(5) 0.1190(4) -0.1134(3)
Sm2 Sm -0.34862(4) -0.62275(3) -0.518500(17)
O9 O -0.4761(5) -0.5534(4) -0.6248(3)
O10 O -0.3480(6) -0.5435(4) -0.4000(3)
O11 O -0.6143(5) -0.6725(4) -0.5042(3)
O12 O -0.2130(5) -0.4277(4) -0.5207(3)
O13 O -0.1674(5) -0.6387(4) -0.5981(3)
O14 O -0.2214(6) -0.7987(4) -0.6695(3)
O15 O -0.0851(5) -0.6017(4) -0.4453(3)
H5 H -0.0358 -0.6550 -0.4475
H6 H -0.0439 -0.5412 -0.4180
O16 O -0.4561(5) -0.7995(4) -0.5952(3)
H7 H -0.4030 -0.8508 -0.5959
H8 H -0.5464 -0.8099 -0.6212
O17 O -0.3532(6) -0.7807(4) -0.4400(3)
H9 H -0.2708 -0.7860 -0.4112
H10 H -0.4370 -0.8307 -0.4415
N13 N -0.5523(7) -0.5420(5) -0.7687(3)
N14 N -0.6315(8) -0.6428(6) -0.8016(4)
N15 N -0.5390(9) -0.6804(6) -0.8379(4)
N16 N -0.3971(9) -0.6051(6) -0.8291(4)
N17 N -0.8343(7) -0.8735(5) -0.5147(3)
N18 N -0.9385(8) -0.9408(5) -0.5670(4)
N19 N -0.8800(8) -1.0284(6) -0.5796(4)
N20 N -0.7400(8) -1.0179(5) -0.5367(4)
N21 N 0.0698(7) -0.7445(5) -0.7072(3)
N22 N 0.0284(9) -0.8191(7) -0.7644(4)
N23 N 0.1349(8) -0.8824(6) -0.7616(4)
N24 N 0.2402(8) -0.8388(8) -0.7002(5)
C10 C -0.5783(8) -0.4993(6) -0.6411(4)
C11 C -0.6220(8) -0.4793(6) -0.7207(4)
H20 H -0.7348 -0.5008 -0.7345
H21 H -0.5901 -0.3986 -0.7270
C12 C -0.4117(9) -0.5228(7) -0.7864(4)
H22 H -0.3336 -0.4584 -0.7702
C13 C -0.7450(7) -0.6629(6) -0.4911(3)
C14 C -0.8663(8) -0.7690(5) -0.4855(4)
H23 H -0.8754 -0.7764 -0.4343
H24 H -0.9664 -0.7597 -0.5111
C15 C -0.7167(9) -0.9226(6) -0.4979(4)
H25 H -0.6286 -0.8931 -0.4630
C16 C -0.1427(8) -0.7035(6) -0.6468(4)
C17 C -0.0015(9) -0.6551(6) -0.6817(4)
H26 H -0.0334 -0.6126 -0.7227
H27 H 0.0749 -0.6027 -0.6462
C18 C 0.2032(8) -0.7577(7) -0.6688(4)
H28 H 0.2584 -0.7147 -0.6265
Sm2A Sm -0.65138(4) -0.37725(3) -0.481500(17)
O9A O -0.5239(5) -0.4466(4) -0.3752(3)
O10A O -0.6520(6) -0.4565(4) -0.6000(3)
O11A O -0.3857(5) -0.3275(4) -0.4958(3)
O12A O -0.7870(5) -0.5723(4) -0.4793(3)
O13A O -0.8326(5) -0.3613(4) -0.4019(3)
O14A O -0.7786(6) -0.2013(4) -0.3305(3)
O15A O -0.9149(5) -0.3983(4) -0.5547(3)
H5A H -0.9642 -0.3450 -0.5525
H6A H -0.9561 -0.4588 -0.5820
O16A O -0.5439(5) -0.2005(4) -0.4048(3)
H7A H -0.5970 -0.1492 -0.4041
H8A H -0.4536 -0.1901 -0.3788
O17A O -0.6468(6) -0.2193(4) -0.5600(3)
H9A H -0.7292 -0.2140 -0.5888
H10A H -0.5630 -0.1693 -0.5585
N13A N -0.4477(7) -0.4580(5) -0.2313(3)
N14A N -0.3685(8) -0.3572(6) -0.1984(4)
N15A N -0.4610(9) -0.3196(6) -0.1621(4)
N16A N -0.6029(9) -0.3949(6) -0.1709(4)
N17A N -0.1657(7) -0.1265(5) -0.4853(3)
N18A N -0.0615(8) -0.0592(5) -0.4330(4)
N19A N -0.1200(8) 0.0284(6) -0.4204(4)
N20A N -0.2600(8) 0.0179(5) -0.4633(4)
N21A N -1.0698(7) -0.2555(5) -0.2928(3)
N22A N -1.0284(9) -0.1809(7) -0.2356(4)
N23A N -1.1349(8) -0.1176(6) -0.2384(4)
N24A N -1.2402(8) -0.1612(8) -0.2998(5)
C10A C -0.4217(8) -0.5007(6) -0.3589(4)
C11A C -0.3780(8) -0.5207(6) -0.2793(4)
H20A H -0.2652 -0.4992 -0.2655
H21A H -0.4099 -0.6014 -0.2730
C12A C -0.5883(9) -0.4772(7) -0.2136(4)
H22A H -0.6664 -0.5416 -0.2298
C13A C -0.2550(7) -0.3371(6) -0.5089(3)
C14A C -0.1337(8) -0.2310(5) -0.5145(4)
H23A H -0.1246 -0.2236 -0.5657
H24A H -0.0336 -0.2403 -0.4889
C15A C -0.2833(9) -0.0774(6) -0.5021(4)
H25A H -0.3714 -0.1069 -0.5370
C16A C -0.8573(8) -0.2965(6) -0.3532(4)
C17A C -0.9985(9) -0.3449(6) -0.3183(4)
H26A H -0.9666 -0.3874 -0.2773
H27A H -1.0749 -0.3973 -0.3538
C18A C -1.2032(8) -0.2423(7) -0.3312(4)
H28A H -1.2584 -0.2853 -0.3735
O18 O -0.1123(7) -0.6387(5) -0.8652(3)
H29 H -0.1935 -0.6289 -0.8471
H30 H -0.0450 -0.5795 -0.8706
loop_
_geom_bond_atom_site_label_1
_geom_bond_atom_site_label_2
_geom_bond_site_symmetry_1
_geom_bond_site_symmetry_2
Sm1 O1 1_555 1_555
Sm2 O9 1_555 1_555
O1 C1 1_555 1_555
O2 C1 1_555 1_555
O3 Sm1 1_555 1_555
O4 C4 1_555 1_555
O5 Sm1 1_555 1_555
O6 C7 1_555 1_555
O7 Sm1 1_555 1_555
H1 O7 1_555 1_555
H2 O7 1_555 1_555
O8 Sm1 1_555 1_555
H3 O8 1_555 1_555
H4 O8 1_555 1_555
O9 C10 1_555 1_555
O10 Sm2 1_555 1_555
O11 Sm2 1_555 1_555
O12 Sm2 1_555 1_555
O13 Sm2 1_555 1_555
O14 C16 1_555 1_555
O15 Sm2 1_555 1_555
H5 O15 1_555 1_555
H6 O15 1_555 1_555
O16 Sm2 1_555 1_555
H7 O16 1_555 1_555
H8 O16 1_555 1_555
O17 Sm2 1_555 1_555
H9 O17 1_555 1_555
H10 O17 1_555 1_555
N1 N2 1_555 1_555
N2 N3 1_555 1_555
N3 N4 1_555 1_555
N4 C3 1_555 1_555
N5 N6 1_555 1_555
N6 N7 1_555 1_555
N7 N8 1_555 1_555
N8 C6 1_555 1_555
N9 N10 1_555 1_555
N10 N11 1_555 1_555
N11 N12 1_555 1_555
N12 C9 1_555 1_555
N13 N14 1_555 1_555
N14 N15 1_555 1_555
N15 N16 1_555 1_555
N16 C12 1_555 1_555
N17 N18 1_555 1_555
N18 N19 1_555 1_555
N19 N20 1_555 1_555
N20 C15 1_555 1_555
N21 N22 1_555 1_555
N22 N23 1_555 1_555
N23 N24 1_555 1_555
N24 C18 1_555 1_555
C1 C2 1_555 1_555
C2 N1 1_555 1_555
H11 C2 1_555 1_555
H12 C2 1_555 1_555
C3 N1 1_555 1_555
H13 C3 1_555 1_555
C4 O3 1_555 1_555
C5 N5 1_555 1_555
H14 C5 1_555 1_555
H15 C5 1_555 1_555
C6 N5 1_555 1_555
H16 C6 1_555 1_555
C7 O5 1_555 1_555
C8 N9 1_555 1_555
H17 C8 1_555 1_555
H18 C8 1_555 1_555
C9 N9 1_555 1_555
H19 C9 1_555 1_555
C10 C11 1_555 1_555
C11 N13 1_555 1_555
H20 C11 1_555 1_555
H21 C11 1_555 1_555
C12 N13 1_555 1_555
H22 C12 1_555 1_555
C13 O11 1_555 1_555
C14 N17 1_555 1_555
H23 C14 1_555 1_555
H24 C14 1_555 1_555
C15 N17 1_555 1_555
H25 C15 1_555 1_555
C16 O13 1_555 1_555
C17 N21 1_555 1_555
H26 C17 1_555 1_555
H27 C17 1_555 1_555
C18 N21 1_555 1_555
H28 C18 1_555 1_555
O18 H29 1_555 1_555
H30 O18 1_555 1_555
Sm1A O1 1_555 1_555
Sm1A_2 O5 1_555 1_555
Sm2A O9A 1_555 1_555
O1A Sm1 1_555 1_555
O2A Sm1 1_555 1_555
O4A Sm1 1_555 1_555
O5A Sm1 1_555 1_555
O6A Sm1 1_555 1_555
O9A C10A 1_555 1_555
O10A C10 1_555 1_555
O11A Sm2A 1_555 1_555
O12A C13 1_555 1_555
O13A Sm2A 1_555 1_555
O14A C16A 1_555 1_555
O15A Sm2A 1_555 1_555
H5A O15A 1_555 1_555
H6A O15A 1_555 1_555
O16A Sm2A 1_555 1_555
H7A O16A 1_555 1_555
H8A O16A 1_555 1_555
O17A Sm2A 1_555 1_555
H9A O17A 1_555 1_555
H10A O17A 1_555 1_555
N13A N14A 1_555 1_555
N14A N15A 1_555 1_555
N15A N16A 1_555 1_555
N16A C12A 1_555 1_555
N17A N18A 1_555 1_555
N18A N19A 1_555 1_555
N19A N20A 1_555 1_555
N20A C15A 1_555 1_555
N21A N22A 1_555 1_555
N22A N23A 1_555 1_555
N23A N24A 1_555 1_555
N24A C18A 1_555 1_555
C10A O10 1_555 1_555
C11A N13A 1_555 1_555
H20A C11A 1_555 1_555
H21A C11A 1_555 1_555
C12A N13A 1_555 1_555
H22A C12A 1_555 1_555
C13A O12 1_555 1_555
C14A N17A 1_555 1_555
H23A C14A 1_555 1_555
H24A C14A 1_555 1_555
C15A N17A 1_555 1_555
H25A C15A 1_555 1_555
C16A O13A 1_555 1_555
C17A N21A 1_555 1_555
H26A C17A 1_555 1_555
H27A C17A 1_555 1_555
C18A N21A 1_555 1_555
H28A C18A 1_555 1_555
O2 Sm1A 1_555 1_555
O4 Sm1A 1_555 1_555
O6 Sm1A_2 1_555 1_555
C4 C5 1_555 1_555
C7 C8 1_555 1_555
C13 C14 1_555 1_555
C16 C17 1_555 1_555
Sm1A O1A 1_555 1_555
Sm1A_2 O5A 1_555 1_555
Sm2A O10A 1_555 1_555
Sm2A O12A 1_555 1_555
O11A C13A 1_555 1_555
C10A C11A 1_555 1_555
C13A C14A 1_555 1_555
C16A C17A 1_555 1_555

#END
