
#######################################################################
#
#                 Cambridge Crystallographic Data Centre
#                                CCDC 
#
#######################################################################
#
# If this CIF has been generated from an entry in the Cambridge 
# Structural Database, then it will include bibliographic, chemical, 
# crystal, experimental, refinement or atomic coordinate data resulting 
# from the CCDC's data processing and validation procedures.
#
#######################################################################

data_MOCHOC
_symmetry_cell_setting           triclinic
_symmetry_space_group_name_H-M   'P -1'
_symmetry_Int_Tables_number      2
_space_group_name_Hall           '-P 1'
loop_
_symmetry_equiv_pos_site_id
_symmetry_equiv_pos_as_xyz
1 x,y,z
2 -x,-y,-z
_cell_length_a                   6.5619(2)
_cell_length_b                   6.9442(3)
_cell_length_c                   7.7412(4)
_cell_angle_alpha                111.369(3)
_cell_angle_beta                 95.495(2)
_cell_angle_gamma                90.824(2)
_cell_volume                     326.522
loop_
_atom_site_label
_atom_site_type_symbol
_atom_site_fract_x
_atom_site_fract_y
_atom_site_fract_z
Eu1 Eu 0.12702(4) 0.22108(4) -0.06735(4)
P1 P -0.32828(19) 0.2518(2) 0.0204(2)
H1 H -0.3622 0.2796 0.2022
O1 O -0.1989(5) 0.0593(5) -0.0348(5)
O2 O -0.5257(5) 0.2254(5) -0.1038(5)
O3 O -0.1818(5) 0.4278(5) 0.0254(5)
O4 O -0.0519(6) 0.2435(5) -0.3487(5)
O5 O 0.1545(5) -0.0807(5) -0.3473(5)
O6 O 0.2043(6) 0.3773(6) 0.2628(5)
H2 H 0.2730 0.3290 0.3363
H3 H 0.1733 0.5126 0.3428
C1 C -0.0590(7) 0.0946(8) -0.5015(8)
Eu1A Eu -0.12702(4) -0.22108(4) 0.06735(4)
Eu1A_2 Eu 0.87298(4) -0.22108(4) 0.06735(4)
Eu1A_3 Eu -0.12702(4) 0.77892(4) 0.06735(4)
Eu1_2 Eu 0.12702(4) -0.77892(4) -0.06735(4)
Eu1_3 Eu -0.87298(4) 0.22108(4) -0.06735(4)
Eu1A_4 Eu -0.12702(4) -0.22108(4) -0.93265(4)
P1A P 0.32828(19) -0.2518(2) -0.0204(2)
H1A H 0.3622 -0.2796 -0.2022
O1A O 0.1989(5) -0.0593(5) 0.0348(5)
O2A O -0.4743(5) -0.2254(5) 0.1038(5)
O2_2 O 0.4743(5) 0.2254(5) -0.1038(5)
O2A_2 O 0.5257(5) -0.2254(5) 0.1038(5)
O3A O 0.1818(5) 0.5722(5) -0.0254(5)
O3A_2 O 0.1818(5) -0.4278(5) -0.0254(5)
O3_2 O -0.1818(5) -0.5722(5) 0.0254(5)
O4A O 0.0519(6) -0.2435(5) 0.3487(5)
O4A_2 O 0.0519(6) -0.2435(5) -0.6513(5)
O5A O -0.1545(5) 0.0807(5) 0.3473(5)
O5A_2 O -0.1545(5) 0.0807(5) -0.6527(5)
O6A O -0.2043(6) -0.3773(6) -0.2628(5)
H2A H -0.2730 -0.3290 -0.3363
H3A H -0.1733 -0.5126 -0.3428
C1A C 0.0590(7) -0.0946(8) -0.4985(8)
O7 O 0.4237(7) 0.2129(7) 0.4923(6)
H4 H 0.5037 0.2767 0.6224
H5 H 0.4887 0.0841 0.3984
loop_
_geom_bond_atom_site_label_1
_geom_bond_atom_site_label_2
_geom_bond_site_symmetry_1
_geom_bond_site_symmetry_2
Eu1 O1 1_555 1_555
P1 H1 1_555 1_555
O1 P1 1_555 1_555
O2 P1 1_555 1_555
O3 Eu1 1_555 1_555
O4 Eu1 1_555 1_555
O5 Eu1 1_555 1_555
O6 Eu1 1_555 1_555
H2 O6 1_555 1_555
H3 O6 1_555 1_555
O7 H4 1_555 1_555
H5 O7 1_555 1_555
C1 O4 1_555 1_555
Eu1A O1 1_555 1_555
Eu1A_2 O2A_2 1_555 1_555
Eu1A_3 O3 1_555 1_555
Eu1_2 O3A_2 1_555 1_555
Eu1_3 O2 1_555 1_555
Eu1A_4 O4A_2 1_555 1_555
P1A H1A 1_555 1_555
O1A Eu1 1_555 1_555
O2A Eu1A 1_555 1_555
O2_2 Eu1 1_555 1_555
O2A_2 P1A 1_555 1_555
O3A Eu1 1_555 1_555
O3A_2 Eu1A 1_555 1_555
O3_2 Eu1A 1_555 1_555
O4A Eu1A 1_555 1_555
O4A_2 C1A 1_555 1_555
O5A Eu1A 1_555 1_555
O5A_2 C1 1_555 1_555
O6A Eu1A 1_555 1_555
H2A O6A 1_555 1_555
H3A O6A 1_555 1_555
C1A O5 1_555 1_555
P1 O3 1_555 1_555
C1 C1A 1_555 1_555
Eu1A O1A 1_555 1_555
Eu1A_3 O3A 1_555 1_555
Eu1_2 O3_2 1_555 1_555
Eu1A_4 O5A_2 1_555 1_555
P1A O1A 1_555 1_555
P1A O3A_2 1_555 1_555

#END
