
#######################################################################
#
#                 Cambridge Crystallographic Data Centre
#                                CCDC 
#
#######################################################################
#
# If this CIF has been generated from an entry in the Cambridge 
# Structural Database, then it will include bibliographic, chemical, 
# crystal, experimental, refinement or atomic coordinate data resulting 
# from the CCDC's data processing and validation procedures.
#
#######################################################################

data_MOCHES
_symmetry_cell_setting           triclinic
_symmetry_space_group_name_H-M   'P -1'
_symmetry_Int_Tables_number      2
_space_group_name_Hall           '-P 1'
loop_
_symmetry_equiv_pos_site_id
_symmetry_equiv_pos_as_xyz
1 x,y,z
2 -x,-y,-z
_cell_length_a                   6.6764(3)
_cell_length_b                   7.0684(3)
_cell_length_c                   7.8103(3)
_cell_angle_alpha                111.141(2)
_cell_angle_beta                 95.415(2)
_cell_angle_gamma                90.457(2)
_cell_volume                     341.888
loop_
_atom_site_label
_atom_site_type_symbol
_atom_site_fract_x
_atom_site_fract_y
_atom_site_fract_z
Pr1 Pr 0.13180(2) 0.22279(3) -0.06593(3)
P1 P -0.32502(12) 0.25254(15) 0.02073(14)
H1 H -0.3622 0.2796 0.2022
O1 O -0.1985(3) 0.0626(4) -0.0341(4)
O2 O -0.5198(3) 0.2281(4) -0.1013(4)
O3 O -0.1832(3) 0.4253(4) 0.0250(4)
O4 O -0.0522(4) 0.2401(4) -0.3522(4)
O5 O 0.1603(4) -0.0760(4) -0.3509(4)
O6 O 0.2053(5) 0.3809(5) 0.2723(4)
H2 H 0.2730 0.3290 0.3363
H3 H 0.1733 0.5126 0.3428
C1 C -0.0610(5) 0.0917(6) -0.5006(6)
Pr1A Pr -0.13180(2) -0.22279(3) 0.06593(3)
Pr1A_2 Pr 0.86820(2) -0.22279(3) 0.06593(3)
Pr1A_3 Pr -0.13180(2) 0.77721(3) 0.06593(3)
Pr1_2 Pr 0.13180(2) -0.77721(3) -0.06593(3)
Pr1_3 Pr -0.86820(2) 0.22279(3) -0.06593(3)
Pr1A_4 Pr -0.13180(2) -0.22279(3) -0.93407(3)
P1A P 0.32502(12) -0.25254(15) -0.02073(14)
H1A H 0.3622 -0.2796 -0.2022
O1A O 0.1985(3) -0.0626(4) 0.0341(4)
O2A O -0.4802(3) -0.2281(4) 0.1013(4)
O2_2 O 0.4802(3) 0.2281(4) -0.1013(4)
O2A_2 O 0.5198(3) -0.2281(4) 0.1013(4)
O3A O 0.1832(3) 0.5747(4) -0.0250(4)
O3A_2 O 0.1832(3) -0.4253(4) -0.0250(4)
O3_2 O -0.1832(3) -0.5747(4) 0.0250(4)
O4A O 0.0522(4) -0.2401(4) 0.3522(4)
O4A_2 O 0.0522(4) -0.2401(4) -0.6478(4)
O5A O -0.1603(4) 0.0760(4) 0.3509(4)
O5A_2 O -0.1603(4) 0.0760(4) -0.6491(4)
O6A O -0.2053(5) -0.3809(5) -0.2723(4)
H2A H -0.2730 -0.3290 -0.3363
H3A H -0.1733 -0.5126 -0.3428
C1A C 0.0610(5) -0.0917(6) -0.4994(6)
O7 O 0.4300(5) 0.2175(7) 0.4962(5)
H4 H 0.5497 0.1509 0.4249
H5 H 0.4656 0.2788 0.6357
loop_
_geom_bond_atom_site_label_1
_geom_bond_atom_site_label_2
_geom_bond_site_symmetry_1
_geom_bond_site_symmetry_2
Pr1 O1 1_555 1_555
P1 H1 1_555 1_555
O1 P1 1_555 1_555
O2 P1 1_555 1_555
O3 Pr1 1_555 1_555
O4 Pr1 1_555 1_555
O5 Pr1 1_555 1_555
O6 Pr1 1_555 1_555
H2 O6 1_555 1_555
H3 O6 1_555 1_555
O7 H4 1_555 1_555
H5 O7 1_555 1_555
C1 O4 1_555 1_555
Pr1A O1 1_555 1_555
Pr1A_2 O2A_2 1_555 1_555
Pr1A_3 O3 1_555 1_555
Pr1_2 O3A_2 1_555 1_555
Pr1_3 O2 1_555 1_555
Pr1A_4 O4A_2 1_555 1_555
P1A H1A 1_555 1_555
O1A Pr1 1_555 1_555
O2A Pr1A 1_555 1_555
O2_2 Pr1 1_555 1_555
O2A_2 P1A 1_555 1_555
O3A Pr1 1_555 1_555
O3A_2 Pr1A 1_555 1_555
O3_2 Pr1A 1_555 1_555
O4A Pr1A 1_555 1_555
O4A_2 C1A 1_555 1_555
O5A Pr1A 1_555 1_555
O5A_2 C1 1_555 1_555
O6A Pr1A 1_555 1_555
H2A O6A 1_555 1_555
H3A O6A 1_555 1_555
C1A O5 1_555 1_555
P1 O3 1_555 1_555
C1 C1A 1_555 1_555
Pr1A O1A 1_555 1_555
Pr1A_3 O3A 1_555 1_555
Pr1_2 O3_2 1_555 1_555
Pr1A_4 O5A_2 1_555 1_555
P1A O1A 1_555 1_555
P1A O3A_2 1_555 1_555

#END
