
#######################################################################
#
#                 Cambridge Crystallographic Data Centre
#                                CCDC 
#
#######################################################################
#
# If this CIF has been generated from an entry in the Cambridge 
# Structural Database, then it will include bibliographic, chemical, 
# crystal, experimental, refinement or atomic coordinate data resulting 
# from the CCDC's data processing and validation procedures.
#
#######################################################################

data_MOCJIY
_symmetry_cell_setting           triclinic
_symmetry_space_group_name_H-M   'P -1'
_symmetry_Int_Tables_number      2
_space_group_name_Hall           '-P 1'
loop_
_symmetry_equiv_pos_site_id
_symmetry_equiv_pos_as_xyz
1 x,y,z
2 -x,-y,-z
_cell_length_a                   6.4075(5)
_cell_length_b                   6.8050(7)
_cell_length_c                   7.6647(8)
_cell_angle_alpha                111.753(2)
_cell_angle_beta                 95.858(2)
_cell_angle_gamma                91.2040(10)
_cell_volume                     308.158
loop_
_atom_site_label
_atom_site_type_symbol
_atom_site_fract_x
_atom_site_fract_y
_atom_site_fract_z
Yb1 Yb 0.12249(4) 0.21853(5) -0.06862(4)
P1 P -0.3311(3) 0.2526(3) 0.0207(3)
H1 H -0.3622 0.2796 0.2022
O1 O -0.1969(7) 0.0579(8) -0.0353(7)
O2 O -0.5360(7) 0.2200(8) -0.1068(7)
O3 O -0.1816(7) 0.4322(8) 0.0243(8)
O4 O -0.0494(8) 0.2457(8) -0.3451(8)
O5 O 0.1455(9) -0.0884(9) -0.3447(8)
O6 O 0.2039(9) 0.3725(9) 0.2506(8)
H2 H 0.2730 0.3290 0.3363
H3 H 0.1733 0.5126 0.3428
C1 C -0.0571(10) 0.0982(12) -0.5005(11)
Yb1A Yb -0.12249(4) -0.21853(5) 0.06862(4)
Yb1A_2 Yb 0.87751(4) -0.21853(5) 0.06862(4)
Yb1A_3 Yb -0.12249(4) 0.78147(5) 0.06862(4)
Yb1_2 Yb 0.12249(4) -0.78147(5) -0.06862(4)
Yb1_3 Yb -0.87751(4) 0.21853(5) -0.06862(4)
Yb1A_4 Yb -0.12249(4) -0.21853(5) -0.93138(4)
P1A P 0.3311(3) -0.2526(3) -0.0207(3)
H1A H 0.3622 -0.2796 -0.2022
O1A O 0.1969(7) -0.0579(8) 0.0353(7)
O2A O -0.4640(7) -0.2200(8) 0.1068(7)
O2_2 O 0.4640(7) 0.2200(8) -0.1068(7)
O2A_2 O 0.5360(7) -0.2200(8) 0.1068(7)
O3A O 0.1816(7) 0.5678(8) -0.0243(8)
O3A_2 O 0.1816(7) -0.4322(8) -0.0243(8)
O3_2 O -0.1816(7) -0.5678(8) 0.0243(8)
O4A O 0.0494(8) -0.2457(8) 0.3451(8)
O4A_2 O 0.0494(8) -0.2457(8) -0.6549(8)
O5A O -0.1455(9) 0.0884(9) 0.3447(8)
O5A_2 O -0.1455(9) 0.0884(9) -0.6553(8)
O6A O -0.2039(9) -0.3725(9) -0.2506(8)
H2A H -0.2730 -0.3290 -0.3363
H3A H -0.1733 -0.5126 -0.3428
C1A C 0.0571(10) -0.0982(12) -0.4995(11)
O7 O 0.4159(10) 0.2086(12) 0.4899(10)
H4 H 0.5037 0.2767 0.6224
H5 H 0.4887 0.0841 0.3984
loop_
_geom_bond_atom_site_label_1
_geom_bond_atom_site_label_2
_geom_bond_site_symmetry_1
_geom_bond_site_symmetry_2
Yb1 O1 1_555 1_555
P1 H1 1_555 1_555
O1 P1 1_555 1_555
O2 P1 1_555 1_555
O3 Yb1 1_555 1_555
O4 Yb1 1_555 1_555
O5 Yb1 1_555 1_555
O6 Yb1 1_555 1_555
H2 O6 1_555 1_555
H3 O6 1_555 1_555
O7 H4 1_555 1_555
H5 O7 1_555 1_555
C1 O4 1_555 1_555
Yb1A O1 1_555 1_555
Yb1A_2 O2A_2 1_555 1_555
Yb1A_3 O3 1_555 1_555
Yb1_2 O3A_2 1_555 1_555
Yb1_3 O2 1_555 1_555
Yb1A_4 O4A_2 1_555 1_555
P1A H1A 1_555 1_555
O1A Yb1 1_555 1_555
O2A Yb1A 1_555 1_555
O2_2 Yb1 1_555 1_555
O2A_2 P1A 1_555 1_555
O3A Yb1 1_555 1_555
O3A_2 Yb1A 1_555 1_555
O3_2 Yb1A 1_555 1_555
O4A Yb1A 1_555 1_555
O4A_2 C1A 1_555 1_555
O5A Yb1A 1_555 1_555
O5A_2 C1 1_555 1_555
O6A Yb1A 1_555 1_555
H2A O6A 1_555 1_555
H3A O6A 1_555 1_555
C1A O5 1_555 1_555
P1 O3 1_555 1_555
C1 C1A 1_555 1_555
Yb1A O1A 1_555 1_555
Yb1A_3 O3A 1_555 1_555
Yb1_2 O3_2 1_555 1_555
Yb1A_4 O5A_2 1_555 1_555
P1A O1A 1_555 1_555
P1A O3A_2 1_555 1_555

#END
