
#######################################################################
#
#                 Cambridge Crystallographic Data Centre
#                                CCDC 
#
#######################################################################
#
# If this CIF has been generated from an entry in the Cambridge 
# Structural Database, then it will include bibliographic, chemical, 
# crystal, experimental, refinement or atomic coordinate data resulting 
# from the CCDC's data processing and validation procedures.
#
#######################################################################

data_MOCJAQ
_symmetry_cell_setting           triclinic
_symmetry_space_group_name_H-M   'P -1'
_symmetry_Int_Tables_number      2
_space_group_name_Hall           '-P 1'
loop_
_symmetry_equiv_pos_site_id
_symmetry_equiv_pos_as_xyz
1 x,y,z
2 -x,-y,-z
_cell_length_a                   6.4628(2)
_cell_length_b                   6.8519(2)
_cell_length_c                   7.6936(2)
_cell_angle_alpha                111.6460(10)
_cell_angle_beta                 95.7790(10)
_cell_angle_gamma                91.0280(10)
_cell_volume                     314.497
loop_
_atom_site_label
_atom_site_type_symbol
_atom_site_fract_x
_atom_site_fract_y
_atom_site_fract_z
Ho1 Ho 0.12385(3) 0.21945(3) -0.06815(3)
P1 P -0.32992(17) 0.25235(17) 0.02055(17)
H1 H -0.3622 0.2796 0.2022
O1 O -0.1989(4) 0.0582(5) -0.0353(5)
O2 O -0.5326(5) 0.2222(5) -0.1055(5)
O3 O -0.1820(5) 0.4299(5) 0.0231(5)
O4 O -0.0508(6) 0.2464(5) -0.3455(5)
O5 O 0.1484(5) -0.0856(5) -0.3449(5)
O6 O 0.2022(6) 0.3736(5) 0.2558(5)
H2 H 0.2730 0.3290 0.3363
H3 H 0.1733 0.5126 0.3428
C1 C -0.0577(7) 0.0964(7) -0.5005(7)
Ho1A Ho -0.12385(3) -0.21945(3) 0.06815(3)
Ho1A_2 Ho 0.87615(3) -0.21945(3) 0.06815(3)
Ho1A_3 Ho -0.12385(3) 0.78055(3) 0.06815(3)
Ho1_2 Ho 0.12385(3) -0.78055(3) -0.06815(3)
Ho1_3 Ho -0.87615(3) 0.21945(3) -0.06815(3)
Ho1A_4 Ho -0.12385(3) -0.21945(3) -0.93185(3)
P1A P 0.32992(17) -0.25235(17) -0.02055(17)
H1A H 0.3622 -0.2796 -0.2022
O1A O 0.1989(4) -0.0582(5) 0.0353(5)
O2A O -0.4674(5) -0.2222(5) 0.1055(5)
O2_2 O 0.4674(5) 0.2222(5) -0.1055(5)
O2A_2 O 0.5326(5) -0.2222(5) 0.1055(5)
O3A O 0.1820(5) 0.5701(5) -0.0231(5)
O3A_2 O 0.1820(5) -0.4299(5) -0.0231(5)
O3_2 O -0.1820(5) -0.5701(5) 0.0231(5)
O4A O 0.0508(6) -0.2464(5) 0.3455(5)
O4A_2 O 0.0508(6) -0.2464(5) -0.6545(5)
O5A O -0.1484(5) 0.0856(5) 0.3449(5)
O5A_2 O -0.1484(5) 0.0856(5) -0.6551(5)
O6A O -0.2022(6) -0.3736(5) -0.2558(5)
H2A H -0.2730 -0.3290 -0.3363
H3A H -0.1733 -0.5126 -0.3428
C1A C 0.0577(7) -0.0964(7) -0.4995(7)
O7 O 0.4185(7) 0.2085(8) 0.4899(7)
H4 H 0.5037 0.2767 0.6224
H5 H 0.4887 0.0841 0.3984
loop_
_geom_bond_atom_site_label_1
_geom_bond_atom_site_label_2
_geom_bond_site_symmetry_1
_geom_bond_site_symmetry_2
Ho1 O1 1_555 1_555
P1 H1 1_555 1_555
O1 P1 1_555 1_555
O2 P1 1_555 1_555
O3 Ho1 1_555 1_555
O4 Ho1 1_555 1_555
O5 Ho1 1_555 1_555
O6 Ho1 1_555 1_555
H2 O6 1_555 1_555
H3 O6 1_555 1_555
O7 H4 1_555 1_555
H5 O7 1_555 1_555
C1 O4 1_555 1_555
Ho1A O1 1_555 1_555
Ho1A_2 O2A_2 1_555 1_555
Ho1A_3 O3 1_555 1_555
Ho1_2 O3A_2 1_555 1_555
Ho1_3 O2 1_555 1_555
Ho1A_4 O4A_2 1_555 1_555
P1A H1A 1_555 1_555
O1A Ho1 1_555 1_555
O2A Ho1A 1_555 1_555
O2_2 Ho1 1_555 1_555
O2A_2 P1A 1_555 1_555
O3A Ho1 1_555 1_555
O3A_2 Ho1A 1_555 1_555
O3_2 Ho1A 1_555 1_555
O4A Ho1A 1_555 1_555
O4A_2 C1A 1_555 1_555
O5A Ho1A 1_555 1_555
O5A_2 C1 1_555 1_555
O6A Ho1A 1_555 1_555
H2A O6A 1_555 1_555
H3A O6A 1_555 1_555
C1A O5 1_555 1_555
P1 O3 1_555 1_555
C1 C1A 1_555 1_555
Ho1A O1A 1_555 1_555
Ho1A_3 O3A 1_555 1_555
Ho1_2 O3_2 1_555 1_555
Ho1A_4 O5A_2 1_555 1_555
P1A O1A 1_555 1_555
P1A O3A_2 1_555 1_555

#END
