
#######################################################################
#
#                 Cambridge Crystallographic Data Centre
#                                CCDC 
#
#######################################################################
#
# If this CIF has been generated from an entry in the Cambridge 
# Structural Database, then it will include bibliographic, chemical, 
# crystal, experimental, refinement or atomic coordinate data resulting 
# from the CCDC's data processing and validation procedures.
#
#######################################################################

data_MOCJEU
_symmetry_cell_setting           triclinic
_symmetry_space_group_name_H-M   'P -1'
_symmetry_Int_Tables_number      2
_space_group_name_Hall           '-P 1'
loop_
_symmetry_equiv_pos_site_id
_symmetry_equiv_pos_as_xyz
1 x,y,z
2 -x,-y,-z
_cell_length_a                   6.4400(3)
_cell_length_b                   6.8326(4)
_cell_length_c                   7.6747(5)
_cell_angle_alpha                111.654(4)
_cell_angle_beta                 95.757(4)
_cell_angle_gamma                91.096(4)
_cell_volume                     311.711
loop_
_atom_site_label
_atom_site_type_symbol
_atom_site_fract_x
_atom_site_fract_y
_atom_site_fract_z
Er1 Er 0.12335(5) 0.21922(6) -0.06840(5)
P1 P -0.3302(3) 0.2524(3) 0.0208(3)
H1 H -0.3622 0.2796 0.2022
O1 O -0.1979(7) 0.0583(8) -0.0357(7)
O2 O -0.5337(7) 0.2208(8) -0.1055(7)
O3 O -0.1815(7) 0.4301(8) 0.0235(7)
O4 O -0.0509(8) 0.2475(8) -0.3465(7)
O5 O 0.1464(8) -0.0845(9) -0.3463(8)
O6 O 0.2036(9) 0.3733(9) 0.2525(7)
H2 H 0.2730 0.3290 0.3363
H3 H 0.1733 0.5126 0.3428
C1 C -0.0562(11) 0.0972(12) -0.5007(11)
Er1A Er -0.12335(5) -0.21922(6) 0.06840(5)
Er1A_2 Er 0.87665(5) -0.21922(6) 0.06840(5)
Er1A_3 Er -0.12335(5) 0.78078(6) 0.06840(5)
Er1_2 Er 0.12335(5) -0.78078(6) -0.06840(5)
Er1_3 Er -0.87665(5) 0.21922(6) -0.06840(5)
Er1A_4 Er -0.12335(5) -0.21922(6) -0.93160(5)
P1A P 0.3302(3) -0.2524(3) -0.0208(3)
H1A H 0.3622 -0.2796 -0.2022
O1A O 0.1979(7) -0.0583(8) 0.0357(7)
O2A O -0.4663(7) -0.2208(8) 0.1055(7)
O2_2 O 0.4663(7) 0.2208(8) -0.1055(7)
O2A_2 O 0.5337(7) -0.2208(8) 0.1055(7)
O3A O 0.1815(7) 0.5699(8) -0.0235(7)
O3A_2 O 0.1815(7) -0.4301(8) -0.0235(7)
O3_2 O -0.1815(7) -0.5699(8) 0.0235(7)
O4A O 0.0509(8) -0.2475(8) 0.3465(7)
O4A_2 O 0.0509(8) -0.2475(8) -0.6535(7)
O5A O -0.1464(8) 0.0845(9) 0.3463(8)
O5A_2 O -0.1464(8) 0.0845(9) -0.6537(8)
O6A O -0.2036(9) -0.3733(9) -0.2525(7)
H2A H -0.2730 -0.3290 -0.3363
H3A H -0.1733 -0.5126 -0.3428
C1A C 0.0562(11) -0.0972(12) -0.4993(11)
O7 O 0.4209(10) 0.2103(11) 0.4903(9)
H4 H 0.5037 0.2767 0.6224
H5 H 0.4887 0.0841 0.3984
loop_
_geom_bond_atom_site_label_1
_geom_bond_atom_site_label_2
_geom_bond_site_symmetry_1
_geom_bond_site_symmetry_2
Er1 O1 1_555 1_555
P1 H1 1_555 1_555
O1 P1 1_555 1_555
O2 P1 1_555 1_555
O3 Er1 1_555 1_555
O4 Er1 1_555 1_555
O5 Er1 1_555 1_555
O6 Er1 1_555 1_555
H2 O6 1_555 1_555
H3 O6 1_555 1_555
O7 H4 1_555 1_555
H5 O7 1_555 1_555
C1 O4 1_555 1_555
Er1A O1 1_555 1_555
Er1A_2 O2A_2 1_555 1_555
Er1A_3 O3 1_555 1_555
Er1_2 O3A_2 1_555 1_555
Er1_3 O2 1_555 1_555
Er1A_4 O4A_2 1_555 1_555
P1A H1A 1_555 1_555
O1A Er1 1_555 1_555
O2A Er1A 1_555 1_555
O2_2 Er1 1_555 1_555
O2A_2 P1A 1_555 1_555
O3A Er1 1_555 1_555
O3A_2 Er1A 1_555 1_555
O3_2 Er1A 1_555 1_555
O4A Er1A 1_555 1_555
O4A_2 C1A 1_555 1_555
O5A Er1A 1_555 1_555
O5A_2 C1 1_555 1_555
O6A Er1A 1_555 1_555
H2A O6A 1_555 1_555
H3A O6A 1_555 1_555
C1A O5 1_555 1_555
P1 O3 1_555 1_555
C1 C1A 1_555 1_555
Er1A O1A 1_555 1_555
Er1A_3 O3A 1_555 1_555
Er1_2 O3_2 1_555 1_555
Er1A_4 O5A_2 1_555 1_555
P1A O1A 1_555 1_555
P1A O3A_2 1_555 1_555

#END
