
#######################################################################
#
#                 Cambridge Crystallographic Data Centre
#                                CCDC 
#
#######################################################################
#
# If this CIF has been generated from an entry in the Cambridge 
# Structural Database, then it will include bibliographic, chemical, 
# crystal, experimental, refinement or atomic coordinate data resulting 
# from the CCDC's data processing and validation procedures.
#
#######################################################################

data_MODDUF
_symmetry_cell_setting           monoclinic
_symmetry_space_group_name_H-M   'P 21/n'
_symmetry_Int_Tables_number      14
_space_group_name_Hall           '-P 2yn'
loop_
_symmetry_equiv_pos_site_id
_symmetry_equiv_pos_as_xyz
1 x,y,z
2 1/2-x,1/2+y,1/2-z
3 -x,-y,-z
4 1/2+x,1/2-y,1/2+z
_cell_length_a                   12.571(2)
_cell_length_b                   14.698(3)
_cell_length_c                   12.636(2)
_cell_angle_alpha                90
_cell_angle_beta                 119.011(6)
_cell_angle_gamma                90
_cell_volume                     2041.79
loop_
_atom_site_label
_atom_site_type_symbol
_atom_site_fract_x
_atom_site_fract_y
_atom_site_fract_z
Cu1 Cu 0.61473(3) 0.26395(2) 0.57692(3)
N1 N 0.60619(19) 0.13328(15) 0.6141(2)
N2 N 0.5581(2) 0.00805(16) 0.6757(2)
H1 H 0.5252 -0.0276 0.7056
N3 N 0.64575(19) 0.39456(14) 0.56052(19)
N4 N 0.6481(2) 0.54324(16) 0.5765(2)
H2 H 0.6401 0.5966 0.5997
O1 O 0.52250(17) 0.29662(13) 0.66172(17)
O2 O 0.69612(18) 0.29561(17) 0.8353(2)
O3 O 0.19639(16) 0.27227(12) 0.98022(16)
O4 O 0.37130(19) 0.25600(14) 1.14909(18)
O5 O 0.41477(17) 0.27662(13) 0.38636(17)
H3 H 0.3510 0.2580 0.3861
H4 H 0.4082 0.2721 0.3166
C1 C 0.5111(2) 0.30793(18) 0.8430(2)
C2 C 0.3978(2) 0.26894(18) 0.7913(2)
H11 H 0.3638 0.2466 0.7127
C3 C 0.3324(2) 0.26212(18) 0.8547(2)
H12 H 0.2564 0.2343 0.8181
C4 C 0.3787(2) 0.29591(18) 0.9699(2)
C5 C 0.5331(3) 0.3954(2) 1.1323(2)
H13 H 0.4903 0.3923 1.1750
C6 C 0.6357(3) 0.4476(2) 1.1762(3)
H14 H 0.6605 0.4810 1.2468
C7 C 0.7035(3) 0.4508(2) 1.1152(3)
H15 H 0.7740 0.4856 1.1463
C8 C 0.6671(3) 0.4035(2) 1.0115(3)
H16 H 0.7144 0.4053 0.9733
C9 C 0.5581(2) 0.35118(17) 0.9593(2)
C10 C 0.4903(2) 0.34582(17) 1.0226(2)
C11 C 0.5842(3) 0.30043(18) 0.7771(3)
C12 C 0.3125(2) 0.27394(17) 1.0399(2)
C13 C 0.6235(2) 0.46473(19) 0.6125(2)
H17 H 0.5945 0.4598 0.6674
C14 C 0.6877(3) 0.5244(2) 0.4974(3)
H18 H 0.7112 0.5661 0.4572
C15 C 0.6865(3) 0.4329(2) 0.4878(3)
H19 H 0.7099 0.4006 0.4391
C16 C 0.5431(3) 0.0979(2) 0.6621(3)
H20 H 0.4940 0.1315 0.6838
C17 C 0.6345(3) -0.0168(2) 0.6339(3)
H21 H 0.6612 -0.0754 0.6316
C18 C 0.6642(3) 0.05965(19) 0.5964(3)
H22 H 0.7161 0.0627 0.5635
Cu1C Cu 0.11473(3) 0.23605(2) 1.07692(3)
O3C O 0.69639(16) 0.22773(12) 0.48022(16)
O6 O 0.0571(2) 0.37164(15) 0.7624(2)
H5 H 0.1072 0.3426 0.8274
H6 H 0.0011 0.3328 0.7129
O7 O 0.1105(11) 0.4187(8) 0.5762(10)
H7 H 0.0710 0.4002 0.6169
H8 H 0.1794 0.3868 0.6144
O8? O -0.0010(9) 0.5394(6) 0.5243(9)
H9? H 0.0693 0.5188 0.5711
H10? H -0.0381 0.5579 0.5650
loop_
_geom_bond_atom_site_label_1
_geom_bond_atom_site_label_2
_geom_bond_site_symmetry_1
_geom_bond_site_symmetry_2
Cu1 N1 1_555 1_555
N1 C16 1_555 1_555
N2 H1 1_555 1_555
N3 Cu1 1_555 1_555
N4 H2 1_555 1_555
O1 Cu1 1_555 1_555
O2 C11 1_555 1_555
O3 C12 1_555 1_555
O4 C12 1_555 1_555
O5 Cu1 1_555 1_555
H3 O5 1_555 1_555
H4 O5 1_555 1_555
O6 H5 1_555 1_555
H6 O6 1_555 1_555
O7 H7 1_555 1_555
H8 O7 1_555 1_555
C1 C2 1_555 1_555
C2 H11 1_555 1_555
C3 C2 1_555 1_555
H12 C3 1_555 1_555
C4 C3 1_555 1_555
C5 H13 1_555 1_555
C6 C5 1_555 1_555
H14 C6 1_555 1_555
C7 C6 1_555 1_555
H15 C7 1_555 1_555
C8 C7 1_555 1_555
H16 C8 1_555 1_555
C9 C1 1_555 1_555
C10 C4 1_555 1_555
C11 O1 1_555 1_555
C12 C4 1_555 1_555
C13 N3 1_555 1_555
H17 C13 1_555 1_555
C14 N4 1_555 1_555
H18 C14 1_555 1_555
C15 N3 1_555 1_555
H19 C15 1_555 1_555
C16 N2 1_555 1_555
H20 C16 1_555 1_555
C17 N2 1_555 1_555
H21 C17 1_555 1_555
C18 N1 1_555 1_555
H22 C18 1_555 1_555
Cu1C O3 1_555 1_555
O3C Cu1 1_555 1_555
N4 C13 1_555 1_555
C1 C11 1_555 1_555
C5 C10 1_555 1_555
C8 C9 1_555 1_555
C9 C10 1_555 1_555
C14 C15 1_555 1_555
C17 C18 1_555 1_555

#END
