
#######################################################################
#
#                 Cambridge Crystallographic Data Centre
#                                CCDC 
#
#######################################################################
#
# If this CIF has been generated from an entry in the Cambridge 
# Structural Database, then it will include bibliographic, chemical, 
# crystal, experimental, refinement or atomic coordinate data resulting 
# from the CCDC's data processing and validation procedures.
#
#######################################################################

data_MODDEQ
_symmetry_cell_setting           monoclinic
_symmetry_space_group_name_H-M   'C 2/c'
_symmetry_Int_Tables_number      15
_space_group_name_Hall           '-C 2yn'
loop_
_symmetry_equiv_pos_site_id
_symmetry_equiv_pos_as_xyz
1 x,y,z
2 -x,y,1/2-z
3 1/2+x,1/2+y,z
4 1/2-x,1/2+y,1/2-z
5 -x,-y,-z
6 x,-y,1/2+z
7 1/2-x,1/2-y,-z
8 1/2+x,1/2-y,1/2+z
_cell_length_a                   27.1650(12)
_cell_length_b                   33.5960(12)
_cell_length_c                   19.4720(11)
_cell_angle_alpha                90
_cell_angle_beta                 111.9950(10)
_cell_angle_gamma                90
_cell_volume                     16477.4
loop_
_atom_site_label
_atom_site_type_symbol
_atom_site_fract_x
_atom_site_fract_y
_atom_site_fract_z
N1 N 0.75065(14) 0.44134(13) 0.5817(2)
N2 N 0.84337(16) 0.46552(14) 0.6983(2)
N3 N 0.81825(17) 0.43966(13) 0.7856(3)
N4 N 0.7972(2) 0.37622(16) 0.4700(3)
C1 C 0.57270(17) 0.53106(15) 0.4838(3)
C2 C 0.50585(17) 0.56682(14) 0.5464(3)
N5 N 0.82878(18) 0.43419(14) 0.5215(2)
N6 N 0.74902(16) 0.51962(14) 0.5311(2)
C3 C 0.8047(2) 0.44939(16) 0.7139(3)
C4 C 0.7042(2) 0.49994(18) 0.5133(3)
C5 C 0.7961(2) 0.4044(2) 0.5179(3)
C6 C 0.73509(18) 0.55727(13) 0.5042(2)
C7 C 0.76483(15) 0.59050(18) 0.5016(3)
H1 H 0.8017 0.5898 0.5241
C8 C 0.7395(3) 0.62478(14) 0.4655(3)
H2 H 0.7594 0.6470 0.4638
C9 C 0.6845(3) 0.62584(14) 0.4319(3)
H3 H 0.6676 0.6488 0.4077
C10 C 0.65475(16) 0.59261(19) 0.4345(3)
H4 H 0.6179 0.5933 0.4120
C11 C 0.68004(18) 0.55832(14) 0.4706(2)
C12 C 0.8044(3) 0.2333(2) 0.4608(4)
H5 H 0.7946 0.2107 0.4309
C13 C 0.8705(2) 0.45041(19) 0.8205(4)
C14 C 0.9031(3) 0.4483(2) 0.8945(4)
H6 H 0.8921 0.4377 0.9304
C15 C 0.9529(3) 0.4631(3) 0.9102(4)
H7 H 0.9767 0.4623 0.9591
C16 C 0.9703(2) 0.4793(3) 0.8573(5)
H8 H 1.0048 0.4888 0.8715
C17 C 0.9369(2) 0.4813(2) 0.7849(4)
H9 H 0.9478 0.4921 0.7490
C18 C 0.8861(2) 0.46656(19) 0.7672(4)
C19 C 0.7810(3) 0.2689(2) 0.4351(4)
H10 H 0.7545 0.2702 0.3881
C20 C 0.7815(2) 0.42687(16) 0.8194(3)
H11 H 0.8013 0.4173 0.8691
H12 H 0.7601 0.4051 0.7909
C21 C 0.7455(2) 0.46056(19) 0.8228(3)
C22 C 0.7654(2) 0.4963(2) 0.8536(3)
H13 H 0.8020 0.4995 0.8748
C23 C 0.7333(2) 0.52787(18) 0.8546(3)
H14 H 0.7483 0.5517 0.8769
C24 C 0.67893(19) 0.52411(18) 0.8226(3)
C25 C 0.6580(2) 0.48897(19) 0.7908(3)
H15 H 0.6213 0.4862 0.7691
C26 C 0.6901(2) 0.45692(17) 0.7899(3)
H16 H 0.6749 0.4331 0.7674
C27 C 0.59093(19) 0.54120(17) 0.5582(3)
H17 H 0.6261 0.5359 0.5882
C28 C 0.8538(2) 0.4238(2) 0.4737(4)
C29 C 0.8341(3) 0.3874(2) 0.4423(4)
C30 C 0.8535(4) 0.3691(2) 0.3902(5)
H18 H 0.8408 0.3447 0.3680
C31 C 0.8923(4) 0.3901(4) 0.3753(6)
H19 H 0.9065 0.3791 0.3429
C32 C 0.9106(3) 0.4266(3) 0.4064(5)
H20 H 0.9357 0.4401 0.3933
C33 C 0.8922(3) 0.4435(2) 0.4571(4)
H21 H 0.9055 0.4678 0.4794
C34 C 0.7656(2) 0.34039(18) 0.4460(3)
H22 H 0.7518 0.3393 0.3923
H23 H 0.7355 0.3420 0.4613
C35 C 0.7953(2) 0.30231(19) 0.4761(4)
C36 C 0.8331(3) 0.3009(2) 0.5426(4)
H24 H 0.8438 0.3242 0.5700
C37 C 0.74879(17) 0.44419(16) 0.6559(3)
H25 H 0.7329 0.4202 0.6664
H26 H 0.7269 0.4667 0.6578
C38 C 0.8576(3) 0.2642(3) 0.5727(4)
H27 H 0.8835 0.2632 0.6203
O1 O 0.42022(13) 0.58504(10) 0.54238(19)
O2 O 0.59558(13) 0.55488(10) 0.7993(2)
O3 O 0.48892(12) 0.60190(11) 0.6396(2)
C39 C 0.60585(18) 0.51022(16) 0.4473(3)
H28 H 0.6037 0.4817 0.4534
H29 H 0.5914 0.5160 0.3946
C40 C 0.7634(2) 0.40144(16) 0.5643(3)
H30 H 0.7309 0.3869 0.5377
H31 H 0.7829 0.3872 0.6097
C41 C 0.48688(19) 0.55616(15) 0.4723(3)
H32 H 0.4515 0.5610 0.4429
C42 C 0.51936(19) 0.53867(15) 0.4413(3)
H33 H 0.5057 0.5318 0.3914
O4 O 0.8486(2) 0.16016(15) 0.5347(3)
C43 C 0.55811(19) 0.55894(15) 0.5888(3)
H34 H 0.5715 0.5656 0.6388
C44 C 0.70069(17) 0.45618(17) 0.5249(3)
H35 H 0.6714 0.4509 0.5406
H36 H 0.6939 0.4423 0.4786
C45 C 0.8431(3) 0.2305(2) 0.5319(5)
Cd1 Cd 0.406514(13) 0.621123(11) 0.64028(2)
Cd2 Cd 0.827328(13) 0.488785(12) 0.58469(2)
N7 N 0.66149(16) 0.52247(13) 0.4782(2)
C46 C 0.4696(2) 0.58506(15) 0.5773(3)
O5 O 0.66755(13) 0.58865(11) 0.8633(2)
C47 C 0.6446(2) 0.55834(19) 0.8276(3)
O6 O 0.9055(2) 0.19012(16) 0.6229(3)
C48 C 0.8689(3) 0.1899(2) 0.5676(5)
Cl1 Cl 0.89653(6) 0.53270(6) 0.58084(11)
O7 O 0.43198(14) 0.64222(11) 0.76023(19)
O2A O 0.40442(13) 0.55488(10) 0.7007(2)
O4B O 0.3486(2) 0.66016(15) 0.5347(3)
Cd1A Cd 0.593486(13) 0.621123(11) 0.85972(2)
Cd1B Cd 0.906514(13) 0.121123(11) 0.64028(2)
O5A O 0.33245(13) 0.58865(11) 0.6367(2)
O6B O 0.4055(2) 0.69012(16) 0.6229(3)
loop_
_geom_bond_atom_site_label_1
_geom_bond_atom_site_label_2
_geom_bond_site_symmetry_1
_geom_bond_site_symmetry_2
N1 C37 1_555 1_555
N2 C3 1_555 1_555
N3 C3 1_555 1_555
N4 C5 1_555 1_555
C1 C27 1_555 1_555
C2 C41 1_555 1_555
N5 C5 1_555 1_555
N6 C4 1_555 1_555
C3 C37 1_555 1_555
C4 C44 1_555 1_555
C5 C40 1_555 1_555
C6 N6 1_555 1_555
C7 C6 1_555 1_555
H1 C7 1_555 1_555
C8 C7 1_555 1_555
H2 C8 1_555 1_555
C9 C8 1_555 1_555
H3 C9 1_555 1_555
C10 C9 1_555 1_555
H4 C10 1_555 1_555
C11 C6 1_555 1_555
C12 H5 1_555 1_555
C13 N3 1_555 1_555
C14 C13 1_555 1_555
H6 C14 1_555 1_555
C15 C14 1_555 1_555
H7 C15 1_555 1_555
C16 C15 1_555 1_555
H8 C16 1_555 1_555
C17 C16 1_555 1_555
H9 C17 1_555 1_555
C18 N2 1_555 1_555
C19 C12 1_555 1_555
H10 C19 1_555 1_555
C20 N3 1_555 1_555
H11 C20 1_555 1_555
H12 C20 1_555 1_555
C21 C20 1_555 1_555
C22 C21 1_555 1_555
H13 C22 1_555 1_555
C23 C22 1_555 1_555
H14 C23 1_555 1_555
C24 C23 1_555 1_555
C25 C24 1_555 1_555
H15 C25 1_555 1_555
C26 C21 1_555 1_555
H16 C26 1_555 1_555
C27 H17 1_555 1_555
C28 N5 1_555 1_555
C29 N4 1_555 1_555
C30 C29 1_555 1_555
H18 C30 1_555 1_555
C31 C30 1_555 1_555
H19 C31 1_555 1_555
C32 C31 1_555 1_555
H20 C32 1_555 1_555
C33 C28 1_555 1_555
H21 C33 1_555 1_555
C34 N4 1_555 1_555
H22 C34 1_555 1_555
H23 C34 1_555 1_555
C35 C19 1_555 1_555
C36 C35 1_555 1_555
H24 C36 1_555 1_555
C37 H25 1_555 1_555
H26 C37 1_555 1_555
C38 C36 1_555 1_555
H27 C38 1_555 1_555
O1 Cd1 1_555 1_555
O2 C47 1_555 1_555
O3 Cd1 1_555 1_555
C39 C1 1_555 1_555
H28 C39 1_555 1_555
H29 C39 1_555 1_555
C40 N1 1_555 1_555
H30 C40 1_555 1_555
H31 C40 1_555 1_555
C41 H32 1_555 1_555
C42 C1 1_555 1_555
H33 C42 1_555 1_555
O4 C48 1_555 1_555
C43 C2 1_555 1_555
H34 C43 1_555 1_555
C44 N1 1_555 1_555
H35 C44 1_555 1_555
H36 C44 1_555 1_555
C45 C12 1_555 1_555
Cd1 O7 1_555 1_555
Cd2 N1 1_555 1_555
N7 C4 1_555 1_555
C46 C2 1_555 1_555
O5 C47 1_555 1_555
C47 C24 1_555 1_555
O6 C48 1_555 1_555
C48 C45 1_555 1_555
Cl1 Cd2 1_555 1_555
O2A Cd1 1_555 1_555
O4B Cd1 1_555 1_555
Cd1A O2 1_555 1_555
Cd1B O4 1_555 1_555
O5A Cd1 1_555 1_555
O6B Cd1 1_555 1_555
N2 Cd2 1_555 1_555
N5 Cd2 1_555 1_555
N6 Cd2 1_555 1_555
C10 C11 1_555 1_555
C11 N7 1_555 1_555
C13 C18 1_555 1_555
C17 C18 1_555 1_555
C25 C26 1_555 1_555
C27 C43 1_555 1_555
C28 C29 1_555 1_555
C32 C33 1_555 1_555
C34 C35 1_555 1_555
C38 C45 1_555 1_555
O1 C46 1_555 1_555
O3 C46 1_555 1_555
C39 N7 1_555 1_555
C41 C42 1_555 1_555
O5 Cd1A 1_555 1_555
O6 Cd1B 1_555 1_555

#END
