
#######################################################################
#
#                 Cambridge Crystallographic Data Centre
#                                CCDC 
#
#######################################################################
#
# If this CIF has been generated from an entry in the Cambridge 
# Structural Database, then it will include bibliographic, chemical, 
# crystal, experimental, refinement or atomic coordinate data resulting 
# from the CCDC's data processing and validation procedures.
#
#######################################################################

data_MODFES
_symmetry_cell_setting           monoclinic
_symmetry_space_group_name_H-M   'P 21/c'
_symmetry_Int_Tables_number      14
_space_group_name_Hall           '-P 2ybc'
loop_
_symmetry_equiv_pos_site_id
_symmetry_equiv_pos_as_xyz
1 x,y,z
2 -x,1/2+y,1/2-z
3 -x,-y,-z
4 x,1/2-y,1/2+z
_cell_length_a                   10.2389(7)
_cell_length_b                   10.3829(6)
_cell_length_c                   17.8300(6)
_cell_angle_alpha                90
_cell_angle_beta                 97.856(5)
_cell_angle_gamma                90
_cell_volume                     1877.71
loop_
_atom_site_label
_atom_site_type_symbol
_atom_site_fract_x
_atom_site_fract_y
_atom_site_fract_z
Eu1 Eu 0.53096(4) 0.44911(4) 0.17642(2)
O1 O 0.6340(6) 0.5584(6) 0.2956(3)
O2 O 0.5649(7) 0.3605(6) 0.3062(3)
O3 O 0.6081(7) 0.1451(6) 0.5582(3)
O4 O 0.5958(6) 0.2717(6) 0.6562(3)
O5 O 0.3611(7) 0.4914(7) 0.0676(3)
H1 H 0.3459 0.5709 0.0645
H2 H 0.2915 0.4521 0.0736
O6 O 0.3633(6) 0.5704(6) 0.2262(3)
H3 H 0.3046 0.5916 0.1907
H4 H 0.3967 0.6369 0.2478
O7 O 0.5755(6) 0.6613(6) 0.1397(3)
H5 H 0.6563 0.6768 0.1512
H6 H 0.5316 0.7135 0.1622
O8 O 0.7799(6) 0.4468(7) 0.1917(4)
H7 H 0.8050 0.4424 0.1488
H8 H 0.8092 0.5145 0.2136
O9 O 0.3388(6) 0.3142(6) 0.1861(3)
H9 H 0.2876 0.3528 0.2116
H10 H 0.3632 0.2446 0.2075
N1 N 0.7582(8) 0.7117(7) 0.5699(4)
H11 H 0.7708 0.7794 0.5421
H12 H 0.7735 0.7169 0.6196
C1 C 0.6139(8) 0.4631(8) 0.3371(4)
C2 C 0.6433(8) 0.4712(9) 0.4214(5)
C3 C 0.6898(9) 0.5876(9) 0.4561(4)
H13 H 0.7048 0.6606 0.4263
C4 C 0.7133(8) 0.5940(9) 0.5346(5)
C5 C 0.6884(9) 0.4874(8) 0.5779(4)
H14 H 0.6993 0.4938 0.6315
C6 C 0.6481(8) 0.3725(8) 0.5433(5)
C7 C 0.6268(9) 0.3624(9) 0.4645(5)
H15 H 0.6016 0.2825 0.4408
C8 C 0.6176(8) 0.2560(9) 0.5881(4)
Eu1C Eu 0.53096(4) 0.05089(4) 0.67642(2)
O3C O 0.6081(7) 0.3549(6) 0.0582(3)
O4C O 0.5958(6) 0.2283(6) 0.1562(3)
O10 O -0.0325(8) 0.2577(7) 0.1387(4)
O11 O 0.0103(7) 0.0751(7) 0.2026(4)
C9 C -0.0090(9) 0.1394(10) 0.1409(5)
C10 C -0.0038(9) 0.0669(9) 0.0677(5)
C11 C 0.0407(9) -0.0603(10) 0.0691(5)
H16 H 0.0694 -0.1012 0.1161
C12 C 0.0430(9) -0.1273(10) 0.0016(5)
H17 H 0.0713 -0.2145 0.0028
O10B O 0.0325(8) -0.2577(7) -0.1387(4)
O11B O -0.0103(7) -0.0751(7) -0.2026(4)
C9B C 0.0090(9) -0.1394(10) -0.1409(5)
C10B C 0.0038(9) -0.0669(9) -0.0677(5)
C11B C -0.0407(9) 0.0603(10) -0.0691(5)
H16B H -0.0694 0.1012 -0.1161
C12B C -0.0430(9) 0.1273(10) -0.0016(5)
H17B H -0.0713 0.2145 -0.0028
O12 O 0.1053(9) 0.6473(8) 0.1714(5)
H18 H 0.0637 0.6282 0.2073
H19 H 0.0740 0.6064 0.1324
O13 O 0.0850(8) 0.4490(8) 0.0611(5)
H20 H 0.0499 0.3877 0.0817
H21 H 0.0369 0.4707 0.0212
O14 O 0.8748(7) 0.6485(7) 0.7289(4)
H22 H 0.9017 0.5720 0.7322
H23 H 0.9379 0.6980 0.7439
loop_
_geom_bond_atom_site_label_1
_geom_bond_atom_site_label_2
_geom_bond_site_symmetry_1
_geom_bond_site_symmetry_2
Eu1 O1 1_555 1_555
O1 C1 1_555 1_555
O2 Eu1 1_555 1_555
O3 C8 1_555 1_555
O4 C8 1_555 1_555
O5 Eu1 1_555 1_555
H1 O5 1_555 1_555
H2 O5 1_555 1_555
O6 Eu1 1_555 1_555
H3 O6 1_555 1_555
H4 O6 1_555 1_555
O7 Eu1 1_555 1_555
H5 O7 1_555 1_555
H6 O7 1_555 1_555
O8 Eu1 1_555 1_555
H7 O8 1_555 1_555
H8 O8 1_555 1_555
O9 Eu1 1_555 1_555
H9 O9 1_555 1_555
H10 O9 1_555 1_555
N1 H11 1_555 1_555
H12 N1 1_555 1_555
C1 O2 1_555 1_555
C2 C1 1_555 1_555
C3 C2 1_555 1_555
H13 C3 1_555 1_555
C4 N1 1_555 1_555
C5 C4 1_555 1_555
H14 C5 1_555 1_555
C6 C5 1_555 1_555
C7 C2 1_555 1_555
H15 C7 1_555 1_555
C8 C6 1_555 1_555
O10 C9 1_555 1_555
O11 C9 1_555 1_555
C9 C10 1_555 1_555
C10 C11 1_555 1_555
C11 H16 1_555 1_555
C12 C11 1_555 1_555
H17 C12 1_555 1_555
O12 H18 1_555 1_555
H19 O12 1_555 1_555
O13 H20 1_555 1_555
H21 O13 1_555 1_555
O14 H22 1_555 1_555
H23 O14 1_555 1_555
Eu1C O3 1_555 1_555
O3C Eu1 1_555 1_555
O4C Eu1 1_555 1_555
O10B C9B 1_555 1_555
O11B C9B 1_555 1_555
C9B C10B 1_555 1_555
C10B C12 1_555 1_555
C11B C10B 1_555 1_555
H16B C11B 1_555 1_555
C12B C10 1_555 1_555
H17B C12B 1_555 1_555
O4 Eu1C 1_555 1_555
C3 C4 1_555 1_555
C6 C7 1_555 1_555
C11B C12B 1_555 1_555

#END
