
#######################################################################
#
#                 Cambridge Crystallographic Data Centre
#                                CCDC 
#
#######################################################################
#
# If this CIF has been generated from an entry in the Cambridge 
# Structural Database, then it will include bibliographic, chemical, 
# crystal, experimental, refinement or atomic coordinate data resulting 
# from the CCDC's data processing and validation procedures.
#
#######################################################################

data_MODFIW
_symmetry_cell_setting           monoclinic
_symmetry_space_group_name_H-M   'P 2/c'
_symmetry_Int_Tables_number      13
_space_group_name_Hall           '-P 2yc'
loop_
_symmetry_equiv_pos_site_id
_symmetry_equiv_pos_as_xyz
1 x,y,z
2 -x,y,1/2-z
3 -x,-y,-z
4 x,-y,1/2+z
_cell_length_a                   15.529(2)
_cell_length_b                   7.9238(11)
_cell_length_c                   28.524(3)
_cell_angle_alpha                90
_cell_angle_beta                 119.779(5)
_cell_angle_gamma                90
_cell_volume                     3046.36
loop_
_atom_site_label
_atom_site_type_symbol
_atom_site_fract_x
_atom_site_fract_y
_atom_site_fract_z
Sb1 Sb 0.5000 0.20512(4) 0.2500
S1 S 0.41314(9) 0.03516(15) 0.17432(5)
S2 S 0.39191(9) 0.37409(15) 0.26340(6)
S1A S 0.58686(9) 0.03516(15) 0.32568(5)
S2A S 0.60809(9) 0.37409(15) 0.23660(6)
Mn1 Mn 0.13812(5) 0.11575(8) 0.26394(3)
N1 N 0.2156 -0.1551 0.2750
N2 N 0.1766 0.1119 0.1979
H1 H 0.1285 0.1632 0.1683
H2 H 0.2338 0.1678 0.2085
N3 N 0.1139(3) -0.6040(4) 0.26139(14)
H3 H 0.0639 -0.5816 0.2279
H4 H 0.0902 -0.5841 0.2839
N4 N 0.2945(3) 0.1542(5) 0.33435(15)
H5 H 0.3243 0.2354 0.3254
H6 H 0.2904 0.1912 0.3630
C1 C 0.2566(3) -0.1562(6) 0.2378(2)
H7 H 0.2656 -0.2718 0.2299
H8 H 0.3209 -0.1013 0.2551
C2 C 0.2939(3) -0.1575(6) 0.33221(19)
H9 H 0.3369 -0.2535 0.3382
H10 H 0.2633 -0.1728 0.3544
C3 C 0.3569(4) 0.0028(6) 0.3503(2)
H11 H 0.3991 0.0013 0.3893
H12 H 0.3993 0.0059 0.3343
C4 C 0.1870(4) -0.0648(7) 0.18534(19)
H13 H 0.2137 -0.0686 0.1610
H14 H 0.1226 -0.1194 0.1678
C5 C 0.1887(4) -0.4731(6) 0.2732(2)
H15 H 0.2180 -0.4907 0.2504
H16 H 0.2410 -0.4836 0.3105
C6 C 0.1452(3) -0.2943(5) 0.26371(18)
H17 H 0.0928 -0.2857 0.2264
H18 H 0.1150 -0.2792 0.2861
Sb2 Sb 0.10653(2) 0.22242(4) 0.394782(11)
S3 S 0.05260(8) 0.03897(13) 0.31905(4)
S4 S 0.02334(10) 0.1465(2) 0.44029(5)
S5 S 0.27719(9) 0.19225(17) 0.44937(5)
S6 S 0.06708(11) 0.49690(16) 0.36357(5)
Mn1_2 Mn 0.13812(5) -0.88425(8) 0.26394(3)
Mn1A Mn -0.13812(5) 0.11575(8) 0.23606(3)
N3_2 N 0.1139(3) 0.3960(4) 0.26139(14)
S3A S -0.05260(8) 0.03897(13) 0.18095(4)
Mn2 Mn 0.23850(5) 0.30421(8) 0.02993(3)
O1 O 0.0740(3) 0.3054(7) -0.02901(18)
H19 H 0.0336 0.3887 -0.0512
H20 H 0.0430 0.2774 -0.0080
O2 O 0.2412(4) 0.0258(6) 0.04198(17)
H21 H 0.280(3) -0.001(8) 0.0751(10)
H22 H 0.185(2) -0.015(9) 0.035(2)
N5 N 0.2683(3) 0.2729(5) -0.04013(17)
H23 H 0.2515 0.1676 -0.0534
H24 H 0.2299 0.3455 -0.0666
N6 N 0.4110(3) 0.3241(5) 0.07017(16)
H25 H 0.4392 0.2653 0.1017
N7 N 0.2078 0.3253 0.1008
H26 H 0.1496 0.2746 0.0913
H27 H 0.2555 0.2690 0.1293
N8 N 0.2724(3) 0.5772(5) 0.05893(16)
H28 H 0.2611 0.6445 0.0306
C7 C 0.2025(5) 0.6244(8) 0.0780(3)
H29 H 0.1358 0.6318 0.0473
H30 H 0.2203 0.7346 0.0950
C8 C 0.4398(4) 0.5029(8) 0.0821(2)
H31 H 0.4331 0.5578 0.0501
H32 H 0.5087 0.5106 0.1103
C9 C 0.3755(5) 0.5902(7) 0.1000(2)
H33 H 0.3852 0.5395 0.1332
H34 H 0.3942 0.7082 0.1070
C10 C 0.3729(4) 0.3032(8) -0.0240(2)
H35 H 0.3832 0.4227 -0.0268
H36 H 0.3893 0.2427 -0.0481
C11 C 0.4393(4) 0.2448(8) 0.0332(2)
H37 H 0.4347 0.1231 0.0350
H38 H 0.5076 0.2732 0.0444
C12 C 0.2041(4) 0.4987(8) 0.1174(2)
H39 H 0.2615 0.5194 0.1526
H40 H 0.1452 0.5128 0.1206
O3 O 0.5000 0.7068(7) 0.2500
H41 H 0.540(4) 0.638(6) 0.247(3)
H42 H 0.5000 0.8144(15) 0.2500
H41A H 0.460(4) 0.638(6) 0.253(3)
loop_
_geom_bond_atom_site_label_1
_geom_bond_atom_site_label_2
_geom_bond_site_symmetry_1
_geom_bond_site_symmetry_2
Sb1 S1 1_555 1_555
S2 Sb1 1_555 1_555
Mn1 N1 1_555 1_555
N1 C1 1_555 1_555
N2 Mn1 1_555 1_555
H1 N2 1_555 1_555
H2 N2 1_555 1_555
N3 H3 1_555 1_555
H4 N3 1_555 1_555
N4 Mn1 1_555 1_555
H5 N4 1_555 1_555
H6 N4 1_555 1_555
C1 H7 1_555 1_555
H8 C1 1_555 1_555
C2 N1 1_555 1_555
H9 C2 1_555 1_555
H10 C2 1_555 1_555
C3 N4 1_555 1_555
H11 C3 1_555 1_555
H12 C3 1_555 1_555
C4 N2 1_555 1_555
H13 C4 1_555 1_555
H14 C4 1_555 1_555
C5 N3 1_555 1_555
H15 C5 1_555 1_555
H16 C5 1_555 1_555
C6 N1 1_555 1_555
H17 C6 1_555 1_555
H18 C6 1_555 1_555
Sb2 S3 1_555 1_555
S3 Mn1 1_555 1_555
S4 Sb2 1_555 1_555
S5 Sb2 1_555 1_555
S6 Sb2 1_555 1_555
Mn2 O1 1_555 1_555
O1 H19 1_555 1_555
H20 O1 1_555 1_555
O2 Mn2 1_555 1_555
H21 O2 1_555 1_555
H22 O2 1_555 1_555
N5 Mn2 1_555 1_555
H23 N5 1_555 1_555
H24 N5 1_555 1_555
N6 Mn2 1_555 1_555
H25 N6 1_555 1_555
N7 Mn2 1_555 1_555
H26 N7 1_555 1_555
H27 N7 1_555 1_555
N8 Mn2 1_555 1_555
H28 N8 1_555 1_555
C7 N8 1_555 1_555
H29 C7 1_555 1_555
H30 C7 1_555 1_555
C8 N6 1_555 1_555
H31 C8 1_555 1_555
H32 C8 1_555 1_555
C9 N8 1_555 1_555
H33 C9 1_555 1_555
H34 C9 1_555 1_555
C10 N5 1_555 1_555
H35 C10 1_555 1_555
H36 C10 1_555 1_555
C11 N6 1_555 1_555
H37 C11 1_555 1_555
H38 C11 1_555 1_555
C12 N7 1_555 1_555
H39 C12 1_555 1_555
H40 C12 1_555 1_555
O3 H41 1_555 1_555
H42 O3 1_555 1_555
S1A Sb1 1_555 1_555
S2A Sb1 1_555 1_555
Mn1_2 N3 1_555 1_555
Mn1A S3 1_555 1_555
N3_2 Mn1 1_555 1_555
S3A Mn1 1_555 1_555
H41A O3 1_555 1_555
C1 C4 1_555 1_555
C2 C3 1_555 1_555
C5 C6 1_555 1_555
C7 C12 1_555 1_555
C8 C9 1_555 1_555
C10 C11 1_555 1_555
Mn1A S3A 1_555 1_555

#END
