
#######################################################################
#
#                 Cambridge Crystallographic Data Centre
#                                CCDC 
#
#######################################################################
#
# If this CIF has been generated from an entry in the Cambridge 
# Structural Database, then it will include bibliographic, chemical, 
# crystal, experimental, refinement or atomic coordinate data resulting 
# from the CCDC's data processing and validation procedures.
#
#######################################################################

data_MODGUI
_symmetry_cell_setting           monoclinic
_symmetry_space_group_name_H-M   'C 2/c'
_symmetry_Int_Tables_number      15
_space_group_name_Hall           '-C 2yn'
loop_
_symmetry_equiv_pos_site_id
_symmetry_equiv_pos_as_xyz
1 x,y,z
2 1/2+x,1/2+y,z
3 -x,y,1/2-z
4 1/2-x,1/2+y,1/2-z
5 -x,-y,-z
6 1/2-x,1/2-y,-z
7 x,-y,1/2+z
8 1/2+x,1/2-y,1/2+z
_cell_length_a                   15.3579(8)
_cell_length_b                   8.7652(5)
_cell_length_c                   16.6050(9)
_cell_angle_alpha                90
_cell_angle_beta                 100.241(3)
_cell_angle_gamma                90
_cell_volume                     2199.67
loop_
_atom_site_label
_atom_site_type_symbol
_atom_site_fract_x
_atom_site_fract_y
_atom_site_fract_z
Cu1 Cu 1.0000 0.48258(3) 0.2500
F1 F 0.92606(7) 0.77593(17) 0.00333(8)
F2 F 0.81562(9) 0.95998(17) -0.09264(9)
O1 O 0.92455(8) 0.61557(16) 0.16170(8)
O2 O 0.86509(13) 0.40923(19) 0.09534(10)
N1 N 1.10527(11) 0.49323(17) 0.19221(10)
N2 N 1.0000 0.2460(2) 0.2500
C1 C 0.87159(13) 0.5462(2) 0.10665(11)
C2 C 0.80884(12) 0.6517(2) 0.05110(11)
C3 C 0.83842(11) 0.7617(2) 0.00333(11)
C4 C 0.78132(13) 0.8572(2) -0.04644(11)
C5 C 1.11090(14) 0.6002(2) 0.13562(13)
H1 H 1.0606 0.6562 0.1145
C6 C 1.18819(17) 0.6303(3) 0.10757(16)
H2 H 1.1899 0.7058 0.0685
C7 C 1.26229(16) 0.5481(3) 0.13773(16)
H3 H 1.3154 0.5678 0.1202
C8 C 1.25719(14) 0.4362(3) 0.19412(16)
H4 H 1.3065 0.3770 0.2144
C9 C 1.17809(13) 0.4123(3) 0.22054(13)
H5 H 1.1753 0.3371 0.2595
C10 C 1.00346(13) 0.1681(2) 0.18168(13)
H6 H 1.0056 0.2218 0.1337
C11 C 1.00405(16) 0.0110(3) 0.1796(2)
H7 H 1.0071 -0.0405 0.1312
C12 C 1.0000 -0.0680(4) 0.2500
H8 H 1.0000 -0.1741 0.2500
Cu1G Cu 0.5000 1.01742(3) -0.2500
F1E F 0.57394(7) 0.72407(17) -0.00333(8)
F2E F 0.68438(9) 0.54002(17) 0.09264(9)
O1E O 0.57545(8) 0.88443(16) -0.16170(8)
O1B O 1.07545(8) 0.61557(16) 0.33830(8)
O2E O 0.63491(13) 1.09077(19) -0.09534(10)
N1B N 0.89473(11) 0.49323(17) 0.30779(10)
C1E C 0.62841(13) 0.9538(2) -0.10665(11)
C2E C 0.69116(12) 0.8483(2) -0.05110(11)
C3E C 0.66158(11) 0.7383(2) -0.00333(11)
C4E C 0.71868(13) 0.6428(2) 0.04644(11)
C5B C 0.88910(14) 0.6002(2) 0.36438(13)
H1B H 0.9394 0.6562 0.3855
C6B C 0.81181(17) 0.6303(3) 0.39243(16)
H2B H 0.8101 0.7058 0.4315
C7B C 0.73771(16) 0.5481(3) 0.36227(16)
H3B H 0.6846 0.5678 0.3798
C8B C 0.74281(14) 0.4362(3) 0.30588(16)
H4B H 0.6935 0.3770 0.2856
C9B C 0.82191(13) 0.4123(3) 0.27946(13)
H5B H 0.8247 0.3371 0.2405
C10B C 0.99654(13) 0.1681(2) 0.31832(13)
H6B H 0.9944 0.2218 0.3663
C11B C 0.99595(16) 0.0110(3) 0.3204(2)
H7B H 0.9929 -0.0405 0.3688
loop_
_geom_bond_atom_site_label_1
_geom_bond_atom_site_label_2
_geom_bond_site_symmetry_1
_geom_bond_site_symmetry_2
Cu1 O1 1_555 1_555
F1 C3 1_555 1_555
F2 C4 1_555 1_555
O1 C1 1_555 1_555
O2 C1 1_555 1_555
N1 Cu1 1_555 1_555
N2 Cu1 1_555 1_555
C1 C2 1_555 1_555
C2 C3 1_555 1_555
C3 C4 1_555 1_555
C4 C2E 1_555 1_555
C5 N1 1_555 1_555
H1 C5 1_555 1_555
C6 C5 1_555 1_555
H2 C6 1_555 1_555
C7 C6 1_555 1_555
H3 C7 1_555 1_555
C8 C7 1_555 1_555
H4 C8 1_555 1_555
C9 N1 1_555 1_555
H5 C9 1_555 1_555
C10 N2 1_555 1_555
H6 C10 1_555 1_555
C11 C10 1_555 1_555
H7 C11 1_555 1_555
C12 C11 1_555 1_555
H8 C12 1_555 1_555
Cu1G O1E 1_555 1_555
F1E C3E 1_555 1_555
F2E C4E 1_555 1_555
O1E C1E 1_555 1_555
O1B Cu1 1_555 1_555
O2E C1E 1_555 1_555
N1B Cu1 1_555 1_555
C1E C2E 1_555 1_555
C2E C3E 1_555 1_555
C3E C4E 1_555 1_555
C4E C2 1_555 1_555
C5B N1B 1_555 1_555
H1B C5B 1_555 1_555
C6B C5B 1_555 1_555
H2B C6B 1_555 1_555
C7B C6B 1_555 1_555
H3B C7B 1_555 1_555
C8B C7B 1_555 1_555
H4B C8B 1_555 1_555
C9B N1B 1_555 1_555
H5B C9B 1_555 1_555
C10B N2 1_555 1_555
H6B C10B 1_555 1_555
C11B C12 1_555 1_555
H7B C11B 1_555 1_555
C8 C9 1_555 1_555
C8B C9B 1_555 1_555
C10B C11B 1_555 1_555

#END
