
#######################################################################
#
#                 Cambridge Crystallographic Data Centre
#                                CCDC 
#
#######################################################################
#
# If this CIF has been generated from an entry in the Cambridge 
# Structural Database, then it will include bibliographic, chemical, 
# crystal, experimental, refinement or atomic coordinate data resulting 
# from the CCDC's data processing and validation procedures.
#
#######################################################################

data_MODGOD
_symmetry_cell_setting           triclinic
_symmetry_space_group_name_H-M   'P -1'
_symmetry_Int_Tables_number      2
_space_group_name_Hall           '-P 1'
loop_
_symmetry_equiv_pos_site_id
_symmetry_equiv_pos_as_xyz
1 x,y,z
2 -x,-y,-z
_cell_length_a                   7.5946(5)
_cell_length_b                   8.4284(5)
_cell_length_c                   14.1106(8)
_cell_angle_alpha                96.668(4)
_cell_angle_beta                 101.019(5)
_cell_angle_gamma                102.962(4)
_cell_volume                     851.964
loop_
_atom_site_label
_atom_site_type_symbol
_atom_site_fract_x
_atom_site_fract_y
_atom_site_fract_z
Cu1 Cu 0.75026(3) 0.22702(3) 0.601776(17)
N1 N 0.7736(2) 0.2875(2) 0.74376(12)
N2 N 0.7463(2) 0.4178(2) 0.80088(12)
C1 C 0.7618(3) 0.3802(2) 0.88962(14)
N3 N 0.7979(2) 0.2274(2) 0.89006(11)
C2 C 0.8072(3) 0.1757(2) 0.79761(14)
N4 N 0.3537(3) 0.5046(2) 0.63214(14)
C3 C 0.4691(3) 0.4291(3) 0.60224(15)
N5 N 0.5809(2) 0.3718(2) 0.57711(12)
C4 C 0.1779(3) 0.4303(3) 0.61239(14)
N6 N 0.0202(3) 0.3759(2) 0.60091(13)
N7 N 0.6398(3) -0.0063(2) 0.29552(14)
C5 C 0.6667(3) 0.0704(3) 0.38353(15)
N8 N 0.6942(3) 0.1209(2) 0.46577(13)
C6 C 0.5993(3) 0.0588(3) 0.21636(16)
N9 N 0.5623(3) 0.0958(3) 0.14076(14)
N10 N 0.8001(2) 0.4446(2) 1.06232(12)
C7 C 0.7492(3) 0.4897(2) 0.97524(14)
C8 C 0.6868(3) 0.6302(3) 0.96337(15)
H1 H 0.6522 0.6576 0.9002
C9 C 0.6767(3) 0.7294(3) 1.04667(16)
H2 H 0.6362 0.8275 1.0418
C10 C 0.7263(3) 0.6835(3) 1.13709(16)
H3 H 0.7199 0.7490 1.1953
C11 C 0.7850(3) 0.5410(3) 1.14086(15)
H4 H 0.8168 0.5093 1.2030
N11 N 0.8140(3) 0.1338(2) 0.96739(12)
H5 H 0.7058 0.0592 0.9580
H6 H 0.8217 0.2051 1.0224
N12 N 0.8200(2) 0.0212(2) 0.65314(12)
C12 C 0.8430(3) 0.0252(2) 0.75076(14)
C13 C 0.8977(3) -0.0954(3) 0.79808(16)
H7 H 0.9144 -0.0875 0.8671
C14 C 0.9277(3) -0.2290(3) 0.74188(18)
H8 H 0.9657 -0.3147 0.7720
C15 C 0.9019(3) -0.2361(3) 0.64206(17)
H9 H 0.9201 -0.3274 0.6024
C16 C 0.8493(3) -0.1087(3) 0.60037(16)
H10 H 0.8332 -0.1137 0.5316
Cu1_2 Cu -0.24974(3) 0.22702(3) 0.601776(17)
N6_2 N 1.0202(3) 0.3759(2) 0.60091(13)
loop_
_geom_bond_atom_site_label_1
_geom_bond_atom_site_label_2
_geom_bond_site_symmetry_1
_geom_bond_site_symmetry_2
Cu1 N1 1_555 1_555
N1 N2 1_555 1_555
N2 C1 1_555 1_555
C1 N3 1_555 1_555
N3 C2 1_555 1_555
C2 N1 1_555 1_555
N4 C3 1_555 1_555
C3 N5 1_555 1_555
N5 Cu1 1_555 1_555
C4 N4 1_555 1_555
N6 C4 1_555 1_555
N7 C5 1_555 1_555
C5 N8 1_555 1_555
N8 Cu1 1_555 1_555
C6 N7 1_555 1_555
N9 C6 1_555 1_555
N10 C7 1_555 1_555
C7 C1 1_555 1_555
C8 C7 1_555 1_555
H1 C8 1_555 1_555
C9 C8 1_555 1_555
H2 C9 1_555 1_555
C10 C9 1_555 1_555
H3 C10 1_555 1_555
C11 N10 1_555 1_555
H4 C11 1_555 1_555
N11 N3 1_555 1_555
H5 N11 1_555 1_555
H6 N11 1_555 1_555
N12 Cu1 1_555 1_555
C12 C2 1_555 1_555
C13 C12 1_555 1_555
H7 C13 1_555 1_555
C14 C13 1_555 1_555
H8 C14 1_555 1_555
C15 C14 1_555 1_555
H9 C15 1_555 1_555
C16 N12 1_555 1_555
H10 C16 1_555 1_555
Cu1_2 N6 1_555 1_555
N6_2 Cu1 1_555 1_555
C10 C11 1_555 1_555
N12 C12 1_555 1_555
C15 C16 1_555 1_555

#END
