
#######################################################################
#
#                 Cambridge Crystallographic Data Centre
#                                CCDC 
#
#######################################################################
#
# If this CIF has been generated from an entry in the Cambridge 
# Structural Database, then it will include bibliographic, chemical, 
# crystal, experimental, refinement or atomic coordinate data resulting 
# from the CCDC's data processing and validation procedures.
#
#######################################################################

data_MODJOG
_symmetry_cell_setting           monoclinic
_symmetry_space_group_name_H-M   'P 21/c'
_symmetry_Int_Tables_number      14
_space_group_name_Hall           '-P 2ybc'
loop_
_symmetry_equiv_pos_site_id
_symmetry_equiv_pos_as_xyz
1 x,y,z
2 -x,1/2+y,1/2-z
3 -x,-y,-z
4 x,1/2-y,1/2+z
_cell_length_a                   10.7864(13)
_cell_length_b                   12.2053(14)
_cell_length_c                   19.000(2)
_cell_angle_alpha                90
_cell_angle_beta                 92.239(2)
_cell_angle_gamma                90
_cell_volume                     2499.46
loop_
_atom_site_label
_atom_site_type_symbol
_atom_site_fract_x
_atom_site_fract_y
_atom_site_fract_z
U1 U 0.40774(3) 0.04086(3) 0.123883(14)
U2 U 0.03327(3) 0.31601(3) 0.187608(15)
O1 O 0.5521(6) 0.1052(5) 0.1229(3)
O2 O 0.2648(6) -0.0278(5) 0.1252(3)
O3 O -0.0858(6) 0.2294(5) 0.1570(3)
O4 O 0.1530(6) 0.4032(5) 0.2167(3)
O5 O 0.3524(5) 0.1199(5) 0.2338(3)
O6 O 0.1530(6) 0.1660(4) 0.2231(3)
O7 O 0.1226(6) -0.0373(4) 0.2983(3)
O8 O 0.0322(6) -0.0434(5) 0.3995(3)
O9 O 0.1360(6) 0.2200(5) 0.5841(3)
O10 O 0.3303(6) 0.2791(4) 0.5935(3)
O11 O 0.3610(6) 0.4390(4) 0.5006(3)
O12 O 0.5029(6) 0.3830(5) 0.4265(3)
O13 O -0.0333(6) 0.2928(5) 0.3025(3)
O14 O 0.4915(6) -0.0653(5) 0.2200(3)
N1 N 0.4654(9) -0.0851(8) 0.3356(4)
N2 N -0.0915(10) 0.2859(9) 0.4143(4)
C1 C 0.2495(7) 0.1612(6) 0.3380(4)
C2 C 0.3233(8) 0.2456(6) 0.3646(4)
H1 H 0.3736 0.2838 0.3344
C3 C 0.3238(8) 0.2748(6) 0.4359(4)
C4 C 0.2457(8) 0.2176(6) 0.4814(4)
C5 C 0.1765(8) 0.1300(6) 0.4539(4)
H2 H 0.1269 0.0902 0.4836
C6 C 0.1795(7) 0.1003(6) 0.3835(4)
C7 C 0.1063(8) 0.0018(7) 0.3593(4)
C8 C 0.2498(8) 0.1460(6) 0.2583(4)
C9 C 0.4018(9) 0.3734(7) 0.4574(4)
C10 C 0.2390(9) 0.2424(7) 0.5590(4)
C11 C 0.4415(11) -0.1142(9) 0.2711(5)
C12 C 0.4055(12) -0.1296(10) 0.3969(5)
H3 H 0.4673 -0.1593 0.4292
H4 H 0.3487 -0.1864 0.3822
H5 H 0.3611 -0.0723 0.4197
C13 C 0.5598(13) 0.0036(11) 0.3493(6)
H6 H 0.5182 0.0716 0.3577
H7 H 0.6103 0.0112 0.3091
H8 H 0.6114 -0.0153 0.3898
C14 C 0.3521(10) -0.2075(8) 0.2552(6)
H9 H 0.3482 -0.2542 0.2957
H10 H 0.3802 -0.2491 0.2160
H11 H 0.2711 -0.1784 0.2438
C15 C -0.0317(10) 0.3338(9) 0.3627(5)
C16 C -0.1045(14) 0.3288(12) 0.4854(6)
H12 H -0.1908 0.3393 0.4939
H13 H -0.0618 0.3976 0.4899
H14 H -0.0695 0.2777 0.5190
C17 C -0.1580(14) 0.1846(11) 0.4003(7)
H15 H -0.1245 0.1279 0.4305
H16 H -0.1494 0.1639 0.3520
H17 H -0.2443 0.1948 0.4092
C18 C 0.0320(13) 0.4421(10) 0.3754(6)
H18 H -0.0017 0.4770 0.4156
H19 H 0.0191 0.4880 0.3347
H20 H 0.1193 0.4302 0.3838
U1A U 0.59226(3) 0.54086(3) 0.376117(14)
U1C U 0.40774(3) 0.45914(3) 0.623883(14)
U2A U -0.03327(3) -0.18399(3) 0.312392(15)
U2C U 0.03327(3) 0.18399(3) 0.687608(15)
O7A O -0.1226(6) 0.4627(4) 0.2017(3)
O8A O -0.0322(6) 0.4566(5) 0.1005(3)
O9C O 0.1360(6) 0.2800(5) 0.0841(3)
O10C O 0.3303(6) 0.2209(4) 0.0935(3)
O11C O 0.3610(6) 0.0610(4) 0.0006(3)
O12A O 0.4971(6) -0.1170(5) 0.0735(3)
loop_
_geom_bond_atom_site_label_1
_geom_bond_atom_site_label_2
_geom_bond_site_symmetry_1
_geom_bond_site_symmetry_2
U1 O1 1_555 1_555
U2 O3 1_555 1_555
O2 U1 1_555 1_555
O4 U2 1_555 1_555
O5 U1 1_555 1_555
O6 U2 1_555 1_555
O7 C7 1_555 1_555
O8 C7 1_555 1_555
O9 C10 1_555 1_555
O10 C10 1_555 1_555
O11 C9 1_555 1_555
O12 C9 1_555 1_555
O13 U2 1_555 1_555
O14 U1 1_555 1_555
N1 C11 1_555 1_555
N2 C15 1_555 1_555
C1 C2 1_555 1_555
C2 H1 1_555 1_555
C3 C2 1_555 1_555
C4 C3 1_555 1_555
C5 C4 1_555 1_555
H2 C5 1_555 1_555
C6 C1 1_555 1_555
C7 C6 1_555 1_555
C8 O5 1_555 1_555
C9 C3 1_555 1_555
C10 C4 1_555 1_555
C11 O14 1_555 1_555
C12 N1 1_555 1_555
H3 C12 1_555 1_555
H4 C12 1_555 1_555
H5 C12 1_555 1_555
C13 N1 1_555 1_555
H6 C13 1_555 1_555
H7 C13 1_555 1_555
H8 C13 1_555 1_555
C14 C11 1_555 1_555
H9 C14 1_555 1_555
H10 C14 1_555 1_555
H11 C14 1_555 1_555
C15 O13 1_555 1_555
C16 N2 1_555 1_555
H12 C16 1_555 1_555
H13 C16 1_555 1_555
H14 C16 1_555 1_555
C17 N2 1_555 1_555
H15 C17 1_555 1_555
H16 C17 1_555 1_555
H17 C17 1_555 1_555
C18 C15 1_555 1_555
H18 C18 1_555 1_555
H19 C18 1_555 1_555
H20 C18 1_555 1_555
U1A O12 1_555 1_555
U1C O10 1_555 1_555
U2A O7 1_555 1_555
U2C O9 1_555 1_555
O7A U2 1_555 1_555
O8A U2 1_555 1_555
O9C U2 1_555 1_555
O10C U1 1_555 1_555
O11C U1 1_555 1_555
O12A U1 1_555 1_555
O6 C8 1_555 1_555
O8 U2A 1_555 1_555
O11 U1C 1_555 1_555
C1 C8 1_555 1_555
C5 C6 1_555 1_555

#END
