
#######################################################################
#
#                 Cambridge Crystallographic Data Centre
#                                CCDC 
#
#######################################################################
#
# If this CIF has been generated from an entry in the Cambridge 
# Structural Database, then it will include bibliographic, chemical, 
# crystal, experimental, refinement or atomic coordinate data resulting 
# from the CCDC's data processing and validation procedures.
#
#######################################################################

data_MODJEV
_symmetry_cell_setting           triclinic
_symmetry_space_group_name_H-M   'P -1'
_symmetry_Int_Tables_number      2
_space_group_name_Hall           '-P 1'
loop_
_symmetry_equiv_pos_site_id
_symmetry_equiv_pos_as_xyz
1 x,y,z
2 -x,-y,-z
_cell_length_a                   7.1016(14)
_cell_length_b                   14.794(3)
_cell_length_c                   15.096(3)
_cell_angle_alpha                111.56(3)
_cell_angle_beta                 95.32(3)
_cell_angle_gamma                97.31(3)
_cell_volume                     1446.23
loop_
_atom_site_label
_atom_site_type_symbol
_atom_site_fract_x
_atom_site_fract_y
_atom_site_fract_z
Pb1 Pb 0.50250(4) 0.06503(2) 0.265288(19)
Pb2 Pb -0.00899(4) 0.11234(2) 0.13887(2)
F1 F 0.8986(13) 0.3238(6) 0.1926(7)
F2 F 0.9276(14) 0.3801(7) 0.5078(9)
F3 F 0.6728(8) -0.0400(6) 0.3676(5)
F4 F -0.0244(18) -0.2764(11) 0.0872(11)
O1 O 0.3833(7) 0.1887(4) 0.2019(4)
O2 O 0.6657(7) 0.1535(4) 0.1739(4)
O3 O 0.3924(8) 0.2018(4) 0.4107(4)
O4 O 0.6947(8) 0.2189(4) 0.3891(4)
O5 O 0.1186(9) -0.1620(5) 0.0029(5)
O6 O 0.4024(8) -0.0707(4) 0.0775(4)
O7 O -0.2391(8) -0.0319(4) 0.0120(4)
H1 H -0.3145 -0.0566 0.0382
H2 H -0.1859 -0.0784 -0.0152
O8 O 0.8336(8) 0.0170(5) 0.2355(4)
O9 O 1.1307(8) 0.0018(5) 0.2258(4)
O10 O 0.0501(8) 0.2362(5) 0.3173(4)
H3 H 0.1424 0.2256 0.3465
H4 H -0.0254 0.2651 0.3505
C1 C 0.5762(13) 0.2909(6) 0.1437(6)
C2 C 0.7517(15) 0.3433(7) 0.1545(8)
C3 C 0.790(2) 0.4252(8) 0.1307(11)
H5 H 0.9146 0.4587 0.1389
C4 C 0.635(3) 0.4537(10) 0.0945(11)
H6 H 0.6530 0.5102 0.0807
C5 C 0.455(2) 0.4012(10) 0.0783(10)
H7 H 0.3580 0.4227 0.0496
C6 C 0.396(3) 0.3144(9) 0.1011(7)
H8 H 0.2716 0.2803 0.0912
C7 C 0.5377(11) 0.2061(6) 0.1744(5)
C8 C 0.5995(12) 0.3522(6) 0.5128(6)
C9 C 0.4447(16) 0.3912(8) 0.5579(7)
H9 H 0.3217 0.3540 0.5411
C10 C 0.482(2) 0.4869(8) 0.6279(8)
H10 H 0.3817 0.5141 0.6570
C11 C 0.660(2) 0.5406(8) 0.6543(9)
H11 H 0.6803 0.6037 0.7021
C12 C 0.814(2) 0.5043(8) 0.6121(8)
H12 H 0.9369 0.5418 0.6296
C13 C 0.7761(15) 0.4092(8) 0.5425(8)
C14 C 0.5595(11) 0.2510(6) 0.4324(5)
C15 C 0.9832(12) -0.0643(6) 0.3273(6)
C16 C 1.1421(14) -0.1041(7) 0.3439(8)
H13 H 1.2446 -0.0985 0.3111
C17 C 1.1563(18) -0.1518(9) 0.4069(9)
H14 H 1.2674 -0.1756 0.4181
C18 C 1.0000(17) -0.1632(8) 0.4532(8)
H15 H 1.0045 -0.1968 0.4945
C19 C 0.8419(15) -0.1259(8) 0.4385(7)
H16 H 0.7382 -0.1333 0.4701
C20 C 0.8340(12) -0.0773(7) 0.3773(6)
C21 C 0.9798(10) -0.0121(5) 0.2587(5)
C22 C 0.2997(14) -0.2145(6) 0.1082(6)
C23 C 0.151(2) -0.2749(9) 0.1202(9)
C24 C 0.172(3) -0.3368(10) 0.1663(12)
H17 H 0.0654 -0.3763 0.1729
C25 C 0.350(3) -0.3397(10) 0.2026(11)
H18 H 0.3673 -0.3816 0.2348
C26 C 0.509(2) -0.2812(9) 0.1926(9)
H19 H 0.6302 -0.2864 0.2180
C27 C 0.499(3) -0.2134(9) 0.1455(8)
H20 H 0.6048 -0.1736 0.1392
C28 C 0.2684(12) -0.1442(6) 0.0584(6)
Pb1_2 Pb 1.50250(4) 0.06503(2) 0.265288(19)
Pb2_2 Pb 0.99101(4) 0.11234(2) 0.13887(2)
Pb2A Pb 0.00899(4) -0.11234(2) -0.13887(2)
O2_2 O -0.3343(7) 0.1535(4) 0.1739(4)
O5A O -0.1186(9) 0.1620(5) -0.0029(5)
O7A O 0.2391(8) 0.0319(4) -0.0120(4)
H1A H 0.3145 0.0566 -0.0382
H2A H 0.1859 0.0784 0.0152
O8_2 O -0.1664(8) 0.0170(5) 0.2355(4)
O9_2 O 0.1307(8) 0.0018(5) 0.2258(4)
loop_
_geom_bond_atom_site_label_1
_geom_bond_atom_site_label_2
_geom_bond_site_symmetry_1
_geom_bond_site_symmetry_2
Pb1 F3 1_555 1_555
Pb2 O1 1_555 1_555
F1 C2 1_555 1_555
F2 C13 1_555 1_555
F3 C20 1_555 1_555
F4 C23 1_555 1_555
O1 Pb1 1_555 1_555
O2 Pb1 1_555 1_555
O3 Pb1 1_555 1_555
O4 Pb1 1_555 1_555
O5 C28 1_555 1_555
O6 Pb1 1_555 1_555
O7 Pb2 1_555 1_555
H1 O7 1_555 1_555
H2 O7 1_555 1_555
O8 Pb1 1_555 1_555
O9 C21 1_555 1_555
O10 Pb2 1_555 1_555
H3 O10 1_555 1_555
H4 O10 1_555 1_555
C1 C2 1_555 1_555
C2 C3 1_555 1_555
C3 H5 1_555 1_555
C4 C3 1_555 1_555
H6 C4 1_555 1_555
C5 C4 1_555 1_555
H7 C5 1_555 1_555
C6 C1 1_555 1_555
H8 C6 1_555 1_555
C7 O1 1_555 1_555
C8 C9 1_555 1_555
C9 H9 1_555 1_555
C10 C9 1_555 1_555
H10 C10 1_555 1_555
C11 C10 1_555 1_555
H11 C11 1_555 1_555
C12 C11 1_555 1_555
H12 C12 1_555 1_555
C13 C8 1_555 1_555
C14 O3 1_555 1_555
C15 C16 1_555 1_555
C16 H13 1_555 1_555
C17 C16 1_555 1_555
H14 C17 1_555 1_555
C18 C17 1_555 1_555
H15 C18 1_555 1_555
C19 C18 1_555 1_555
H16 C19 1_555 1_555
C20 C15 1_555 1_555
C21 O8 1_555 1_555
C22 C23 1_555 1_555
C23 C24 1_555 1_555
C24 H17 1_555 1_555
C25 C24 1_555 1_555
H18 C25 1_555 1_555
C26 C25 1_555 1_555
H19 C26 1_555 1_555
C27 C22 1_555 1_555
H20 C27 1_555 1_555
C28 O6 1_555 1_555
Pb1_2 O9 1_555 1_555
Pb2_2 O2 1_555 1_555
Pb2A O5 1_555 1_555
O2_2 Pb2 1_555 1_555
O5A Pb2 1_555 1_555
O7A Pb2 1_555 1_555
H1A O7A 1_555 1_555
H2A O7A 1_555 1_555
O8_2 Pb2 1_555 1_555
O9_2 Pb1 1_555 1_555
Pb2 O9_2 1_555 1_555
O2 C7 1_555 1_555
O4 C14 1_555 1_555
O7 Pb2A 1_555 1_555
O8 Pb2_2 1_555 1_555
O9 Pb2_2 1_555 1_555
C1 C7 1_555 1_555
C5 C6 1_555 1_555
C8 C14 1_555 1_555
C12 C13 1_555 1_555
C15 C21 1_555 1_555
C19 C20 1_555 1_555
C22 C28 1_555 1_555
C26 C27 1_555 1_555
Pb2A O7A 1_555 1_555

#END
