
#######################################################################
#
#                 Cambridge Crystallographic Data Centre
#                                CCDC 
#
#######################################################################
#
# If this CIF has been generated from an entry in the Cambridge 
# Structural Database, then it will include bibliographic, chemical, 
# crystal, experimental, refinement or atomic coordinate data resulting 
# from the CCDC's data processing and validation procedures.
#
#######################################################################

data_MODJUM
_symmetry_cell_setting           monoclinic
_symmetry_space_group_name_H-M   'P 21/c'
_symmetry_Int_Tables_number      14
_space_group_name_Hall           '-P 2ybc'
loop_
_symmetry_equiv_pos_site_id
_symmetry_equiv_pos_as_xyz
1 x,y,z
2 -x,1/2+y,1/2-z
3 -x,-y,-z
4 x,1/2-y,1/2+z
_cell_length_a                   13.5632(5)
_cell_length_b                   14.6109(5)
_cell_length_c                   11.7961(4)
_cell_angle_alpha                90
_cell_angle_beta                 110.749(4)
_cell_angle_gamma                90
_cell_volume                     2186.02
loop_
_atom_site_label
_atom_site_type_symbol
_atom_site_fract_x
_atom_site_fract_y
_atom_site_fract_z
U1 U 0.49805(3) 0.48010(3) 0.65281(3)
U2 U 0.22280(3) 0.51988(3) 0.39143(3)
O1 O 0.4750(6) 0.3616(5) 0.6213(7)
O2 O 0.5212(5) 0.5966(5) 0.6937(7)
O3 O 0.2209(5) 0.3996(6) 0.3932(7)
O4 O 0.2187(5) 0.6402(6) 0.3891(7)
O5 O 0.1461(5) 0.5315(6) 0.5593(6)
O6 O 0.3150(5) 0.5021(6) 0.6311(6)
O7 O -0.0383(5) 0.4869(6) 0.6921(6)
O8 O 0.0588(6) 0.3714(6) 0.6637(8)
O9 O 0.4239(6) 0.6902(6) 1.0713(7)
O10 O 0.4866(5) 0.5528(5) 1.1428(6)
O11 O 0.1566(6) 0.5034(6) 1.1614(7)
O12 O 0.3170(5) 0.5536(6) 1.2259(6)
O13 O 0.3960(5) 0.5126(6) 0.4593(6)
H1 H 0.4118 0.4734 0.4152
H2 H 0.4170 0.5641 0.4432
C1 C 0.2285(7) 0.5206(8) 0.7737(9)
C2 C 0.3152(7) 0.5581(7) 0.8648(9)
H3 H 0.3711 0.5809 0.8450
C3 C 0.3202(7) 0.5622(7) 0.9838(8)
C4 C 0.2370(7) 0.5266(7) 1.0141(9)
C5 C 0.1476(8) 0.4918(7) 0.9208(8)
H4 H 0.0904 0.4713 0.9397
C6 C 0.1433(7) 0.4872(7) 0.8009(8)
C7 C 0.2290(7) 0.5167(8) 0.6477(9)
C8 C 0.0465(8) 0.4439(8) 0.7080(9)
C9 C 0.2347(8) 0.5274(9) 1.1391(9)
C10 C 0.4174(7) 0.6055(8) 1.0755(9)
U1B U 0.50195(3) 0.51990(3) 0.34719(3)
U1B_2 U 0.50195(3) 0.51990(3) 1.34719(3)
U2_2 U 0.22280(3) 0.51988(3) 1.39143(3)
U2B U -0.22280(3) 0.48012(3) 0.60857(3)
O7B O 0.0383(5) 0.5131(6) 0.3079(6)
O10B O 0.5134(5) 0.4472(5) 0.8572(6)
O11_2 O 0.1566(6) 0.5034(6) 0.1614(7)
O12_2 O 0.3170(5) 0.5536(6) 0.2259(6)
O12B O 0.6830(5) 0.4464(6) 0.7741(6)
O13B O 0.6040(5) 0.4874(6) 0.5407(6)
O14 O 0.2746(7) 0.7339(6) 0.6694(9)
H5 H 0.2818 0.7090 0.7370
H6 H 0.3302 0.7637 0.6758
N1 N 0.9436(8) 0.2754(7) 0.4664(9)
H7 H 0.9015 0.3159 0.4769
C11 C 0.9942(12) 0.2850(12) 0.3781(15)
H8 H 0.9780 0.2328 0.3253
H9 H 1.0691 0.2891 0.4190
H10 H 0.9691 0.3395 0.3313
C12 C 0.9704(12) 0.1902(10) 0.5368(14)
H11 H 1.0439 0.1906 0.5861
H12 H 0.9558 0.1389 0.4825
H13 H 0.9290 0.1854 0.5878
N2 N 0.3759(7) 0.2471(7) 0.8935(8)
H14 H 0.4233 0.2050 0.9161
C13 C 0.3067(9) 0.2604(9) 0.7670(12)
H15 H 0.2353 0.2468 0.7590
H16 H 0.3282 0.2202 0.7156
H17 H 0.3113 0.3227 0.7437
C14 C 0.3567(11) 0.3124(10) 0.9776(13)
H18 H 0.3643 0.3737 0.9524
H19 H 0.4066 0.3022 1.0578
H20 H 0.2865 0.3042 0.9776
loop_
_geom_bond_atom_site_label_1
_geom_bond_atom_site_label_2
_geom_bond_site_symmetry_1
_geom_bond_site_symmetry_2
U1 O1 1_555 1_555
U2 O3 1_555 1_555
O2 U1 1_555 1_555
O4 U2 1_555 1_555
O5 U2 1_555 1_555
O6 U1 1_555 1_555
O7 C8 1_555 1_555
O8 C8 1_555 1_555
O9 C10 1_555 1_555
O10 C10 1_555 1_555
O11 C9 1_555 1_555
O12 C9 1_555 1_555
O13 U1 1_555 1_555
H1 O13 1_555 1_555
H2 O13 1_555 1_555
C1 C2 1_555 1_555
C2 H3 1_555 1_555
C3 C2 1_555 1_555
C4 C3 1_555 1_555
C5 C4 1_555 1_555
H4 C5 1_555 1_555
C6 C1 1_555 1_555
C7 O5 1_555 1_555
C8 C6 1_555 1_555
C9 C4 1_555 1_555
C10 C3 1_555 1_555
O14 H5 1_555 1_555
H6 O14 1_555 1_555
N1 H7 1_555 1_555
C11 N1 1_555 1_555
H8 C11 1_555 1_555
H9 C11 1_555 1_555
H10 C11 1_555 1_555
C12 N1 1_555 1_555
H11 C12 1_555 1_555
H12 C12 1_555 1_555
H13 C12 1_555 1_555
N2 H14 1_555 1_555
C13 N2 1_555 1_555
H15 C13 1_555 1_555
H16 C13 1_555 1_555
H17 C13 1_555 1_555
C14 N2 1_555 1_555
H18 C14 1_555 1_555
H19 C14 1_555 1_555
H20 C14 1_555 1_555
U1B O13 1_555 1_555
U1B_2 O10 1_555 1_555
U2_2 O11 1_555 1_555
U2B O7 1_555 1_555
O7B U2 1_555 1_555
O10B U1 1_555 1_555
O11_2 U2 1_555 1_555
O12_2 U2 1_555 1_555
O12B U1 1_555 1_555
O13B U1 1_555 1_555
U2 O6 1_555 1_555
U2 O13 1_555 1_555
O6 C7 1_555 1_555
O12 U1B_2 1_555 1_555
O12 U2_2 1_555 1_555
C1 C7 1_555 1_555
C5 C6 1_555 1_555
U1B O12_2 1_555 1_555
U1B O13B 1_555 1_555

#END
