
#######################################################################
#
#                 Cambridge Crystallographic Data Centre
#                                CCDC 
#
#######################################################################
#
# If this CIF has been generated from an entry in the Cambridge 
# Structural Database, then it will include bibliographic, chemical, 
# crystal, experimental, refinement or atomic coordinate data resulting 
# from the CCDC's data processing and validation procedures.
#
#######################################################################

data_MODJOF
_symmetry_cell_setting           monoclinic
_symmetry_space_group_name_H-M   'P 21/c'
_symmetry_Int_Tables_number      14
_space_group_name_Hall           '-P 2ybc'
loop_
_symmetry_equiv_pos_site_id
_symmetry_equiv_pos_as_xyz
1 x,y,z
2 -x,1/2+y,1/2-z
3 -x,-y,-z
4 x,1/2-y,1/2+z
_cell_length_a                   10.431(2)
_cell_length_b                   14.431(3)
_cell_length_c                   8.589(2)
_cell_angle_alpha                90
_cell_angle_beta                 90.676(18)
_cell_angle_gamma                90
_cell_volume                     1292.81
loop_
_atom_site_label
_atom_site_type_symbol
_atom_site_fract_x
_atom_site_fract_y
_atom_site_fract_z
Mn1 Mn 0.44828(3) 0.90619(3) 0.09904(4)
C1 C 0.4312(2) 0.77087(17) 0.3975(3)
C2 C 0.2897(2) 0.75805(18) 0.4044(3)
H1 H 0.2548 0.7425 0.3026
H2 H 0.2484 0.8140 0.4412
C3 C 0.1497(2) 0.65599(18) 0.5504(3)
C4 C 0.0389(3) 0.6984(2) 0.5034(4)
H3 H 0.0410 0.7487 0.4358
C5 C -0.0791(3) 0.6645(2) 0.5595(5)
H4 H -0.1549 0.6932 0.5280
C6 C -0.0843(3) 0.5914(2) 0.6577(5)
H5 H -0.1631 0.5709 0.6939
C7 C 0.0296(3) 0.5459(2) 0.7056(4)
C8 C 0.0335(3) 0.4681(2) 0.8054(4)
H6 H -0.0425 0.4435 0.8429
C9 C 0.1473(3) 0.4292(2) 0.8471(4)
H7 H 0.1498 0.3787 0.9144
C10 C 0.2607(3) 0.4659(2) 0.7875(3)
H8 H 0.3380 0.4383 0.8161
C11 C 0.1485(2) 0.57814(18) 0.6507(3)
N1 N 0.4916(2) 0.83643(15) 0.3196(3)
N2 N 0.6184(2) 0.82225(19) 0.3503(3)
N3 N 0.6309(2) 0.75141(19) 0.4431(3)
N4 N 0.5125(2) 0.71715(16) 0.4749(3)
N5 N 0.2634(2) 0.53792(15) 0.6926(2)
N6 N 0.5787(2) 1.01876(16) 0.1316(3)
N7 N 0.6346(2) 1.04671(15) 0.2407(3)
N8 N 0.6923(3) 1.0756(2) 0.3458(3)
O1 O 0.27145(16) 0.68346(12) 0.5115(2)
Mn1C Mn 0.44828(3) 0.59381(3) 0.59904(4)
Mn1B Mn 0.55172(3) 1.09381(3) -0.09904(4)
N4C N 0.5125(2) 0.78285(16) -0.0251(3)
N5C N 0.2634(2) 0.96208(15) 0.1926(2)
N6B N 0.4213(2) 0.98124(16) -0.1316(3)
O1C O 0.27145(16) 0.81654(12) 0.0115(2)
loop_
_geom_bond_atom_site_label_1
_geom_bond_atom_site_label_2
_geom_bond_site_symmetry_1
_geom_bond_site_symmetry_2
Mn1 N1 1_555 1_555
C1 C2 1_555 1_555
C2 H1 1_555 1_555
H2 C2 1_555 1_555
C3 C4 1_555 1_555
C4 H3 1_555 1_555
C5 C4 1_555 1_555
H4 C5 1_555 1_555
C6 C5 1_555 1_555
H5 C6 1_555 1_555
C7 C6 1_555 1_555
C8 C7 1_555 1_555
H6 C8 1_555 1_555
C9 C8 1_555 1_555
H7 C9 1_555 1_555
C10 C9 1_555 1_555
H8 C10 1_555 1_555
C11 C3 1_555 1_555
N1 C1 1_555 1_555
N2 N1 1_555 1_555
N3 N2 1_555 1_555
N4 C1 1_555 1_555
N5 C10 1_555 1_555
N6 Mn1 1_555 1_555
N7 N6 1_555 1_555
N8 N7 1_555 1_555
O1 C2 1_555 1_555
Mn1C N4 1_555 1_555
Mn1B N6 1_555 1_555
N4C Mn1 1_555 1_555
N5C Mn1 1_555 1_555
N6B Mn1 1_555 1_555
O1C Mn1 1_555 1_555
C3 O1 1_555 1_555
C7 C11 1_555 1_555
C11 N5 1_555 1_555
N3 N4 1_555 1_555
N5 Mn1C 1_555 1_555
O1 Mn1C 1_555 1_555
Mn1B N6B 1_555 1_555

#END
