
#######################################################################
#
#                 Cambridge Crystallographic Data Centre
#                                CCDC 
#
#######################################################################
#
# If this CIF has been generated from an entry in the Cambridge 
# Structural Database, then it will include bibliographic, chemical, 
# crystal, experimental, refinement or atomic coordinate data resulting 
# from the CCDC's data processing and validation procedures.
#
#######################################################################

data_MODLAT
_symmetry_cell_setting           tetragonal
_symmetry_space_group_name_H-M   'I 41/a c d'
_symmetry_Int_Tables_number      142
_space_group_name_Hall           '-I 4bd 2c'
loop_
_symmetry_equiv_pos_site_id
_symmetry_equiv_pos_as_xyz
1 x,y,z
2 1/4-y,3/4+x,1/4+z
3 1/4+y,1/4-x,3/4+z
4 1/4+y,3/4+x,3/4-z
5 1/4-y,1/4-x,1/4-z
6 1/2+x,1/2+y,1/2+z
7 3/4-y,1/4+x,3/4+z
8 3/4+y,3/4-x,1/4+z
9 3/4+y,1/4+x,1/4-z
10 1/2-x,-y,1/2+z
11 x,-y,1/2-z
12 1/2-x,y,-z
13 -x,1/2-y,z
14 1/2+x,1/2-y,-z
15 -x,1/2+y,1/2-z
16 3/4-y,3/4-x,3/4-z
17 -x,-y,-z
18 3/4+y,1/4-x,3/4-z
19 3/4-y,3/4+x,1/4-z
20 3/4-y,1/4-x,1/4+z
21 3/4+y,3/4+x,3/4+z
22 1/2-x,1/2-y,1/2-z
23 1/4+y,3/4-x,1/4-z
24 1/4-y,1/4+x,3/4-z
25 1/4-y,3/4-x,3/4+z
26 1/2+x,y,1/2-z
27 -x,y,1/2+z
28 1/2+x,-y,z
29 x,1/2+y,-z
30 1/2-x,1/2+y,z
31 x,1/2-y,1/2+z
32 1/4+y,1/4+x,1/4+z
_cell_length_a                   19.124(5)
_cell_length_b                   19.124(5)
_cell_length_c                   14.9120(4)
_cell_angle_alpha                90
_cell_angle_beta                 90
_cell_angle_gamma                90
_cell_volume                     5453.73
loop_
_atom_site_label
_atom_site_type_symbol
_atom_site_fract_x
_atom_site_fract_y
_atom_site_fract_z
Mn1 Mn 0.69057(3) -0.05943(3) 0.1250
C1 C 0.56957(19) -0.11100(19) -0.0239(2)
H1 H 0.6082 -0.1244 -0.0576
C2 C 0.5042(2) -0.1237(2) -0.0580(2)
H2 H 0.4989 -0.1454 -0.1134
C3 C 0.4464(2) -0.1038(2) -0.0088(3)
H3 H 0.4015 -0.1118 -0.0305
C4 C 0.45662(19) -0.0717(2) 0.0735(2)
H4 H 0.4187 -0.0579 0.1082
C5 C 0.52424(17) -0.06066(18) 0.1029(2)
C6 C 0.54152(16) -0.02572(17) 0.1886(2)
C7 C 0.7500 0.0594(3) 0.0000
H5 H 0.7500 0.1080 0.0000
N1 N 0.58042(15) -0.08037(14) 0.05536(18)
N2 N 0.60816(13) -0.01663(13) 0.20974(16)
N3 N 0.4964(2) 0.0000 0.2500
O1 O 0.70537(14) 0.03180(15) 0.0481(2)
Mn1G Mn 0.69057(3) 0.05943(3) 0.3750
Mn1F Mn 0.80943(3) -0.05943(3) -0.1250
C1J C 0.56957(19) 0.11100(19) 0.5239(2)
H1J H 0.6082 0.1244 0.5576
C2J C 0.5042(2) 0.1237(2) 0.5580(2)
H2J H 0.4989 0.1454 0.6134
C3J C 0.4464(2) 0.1038(2) 0.5088(3)
H3J H 0.4015 0.1118 0.5305
C4J C 0.45662(19) 0.0717(2) 0.4265(2)
H4J H 0.4187 0.0579 0.3918
C5J C 0.52424(17) 0.06066(18) 0.3971(2)
C6J C 0.54152(16) 0.02572(17) 0.3114(2)
N1J N 0.58042(15) 0.08037(14) 0.44464(18)
N1H N 0.66963(14) -0.16958(15) 0.19464(18)
N2J N 0.60816(13) 0.01663(13) 0.29026(16)
N2H N 0.73337(13) -0.14184(13) 0.04026(16)
O1K O 0.79463(14) 0.03180(15) -0.0481(2)
O1H O 0.78180(15) -0.04463(14) 0.2019(2)
loop_
_geom_bond_atom_site_label_1
_geom_bond_atom_site_label_2
_geom_bond_site_symmetry_1
_geom_bond_site_symmetry_2
Mn1 N1 1_555 1_555
C1 H1 1_555 1_555
C2 C1 1_555 1_555
H2 C2 1_555 1_555
C3 C2 1_555 1_555
H3 C3 1_555 1_555
C4 C3 1_555 1_555
H4 C4 1_555 1_555
C5 C4 1_555 1_555
C6 C5 1_555 1_555
C7 H5 1_555 1_555
N1 C1 1_555 1_555
N2 Mn1 1_555 1_555
N3 C6 1_555 1_555
O1 Mn1 1_555 1_555
Mn1G N1J 1_555 1_555
Mn1F O1K 1_555 1_555
C1J H1J 1_555 1_555
C2J C1J 1_555 1_555
H2J C2J 1_555 1_555
C3J C2J 1_555 1_555
H3J C3J 1_555 1_555
C4J C3J 1_555 1_555
H4J C4J 1_555 1_555
C5J C4J 1_555 1_555
C6J N3 1_555 1_555
N1J C1J 1_555 1_555
N1H Mn1 1_555 1_555
N2J N2 1_555 1_555
N2H Mn1 1_555 1_555
O1K C7 1_555 1_555
O1H Mn1 1_555 1_555
C5 N1 1_555 1_555
C6 N2 1_555 1_555
C7 O1 1_555 1_555
Mn1G N2J 1_555 1_555
C5J C6J 1_555 1_555
C5J N1J 1_555 1_555
C6J N2J 1_555 1_555

#END
