
#######################################################################
#
#                 Cambridge Crystallographic Data Centre
#                                CCDC 
#
#######################################################################
#
# If this CIF has been generated from an entry in the Cambridge 
# Structural Database, then it will include bibliographic, chemical, 
# crystal, experimental, refinement or atomic coordinate data resulting 
# from the CCDC's data processing and validation procedures.
#
#######################################################################

data_MODMAU
_symmetry_cell_setting           triclinic
_symmetry_space_group_name_H-M   'P -1'
_symmetry_Int_Tables_number      2
_space_group_name_Hall           '-P 1'
loop_
_symmetry_equiv_pos_site_id
_symmetry_equiv_pos_as_xyz
1 x,y,z
2 -x,-y,-z
_cell_length_a                   6.7821(14)
_cell_length_b                   7.4349(15)
_cell_length_c                   20.410(4)
_cell_angle_alpha                91.26(3)
_cell_angle_beta                 95.77(3)
_cell_angle_gamma                98.16(3)
_cell_volume                     1012.89
loop_
_atom_site_label
_atom_site_type_symbol
_atom_site_fract_x
_atom_site_fract_y
_atom_site_fract_z
C1 C -0.3785(6) 0.2965(5) 0.7826(2)
H1 H -0.4426 0.3029 0.8206
C2 C -0.4723(6) 0.1853(6) 0.7307(2)
H2 H -0.5931 0.1119 0.7349
C3 C -0.3868(6) 0.1832(6) 0.6728(2)
H3 H -0.4528 0.1144 0.6364
C4 C -0.1986(6) 0.2861(5) 0.6690(2)
C5 C -0.0963(6) 0.2913(5) 0.60945(19)
C6 C -0.0924(7) 0.2081(5) 0.5015(2)
C7 C -0.1870(8) 0.1180(6) 0.4421(2)
H4 H -0.3185 0.0601 0.4400
C8 C -0.0836(8) 0.1170(6) 0.3880(2)
H5 H -0.1458 0.0582 0.3491
C9 C 0.1164(9) 0.2037(6) 0.3903(2)
H6 H 0.1845 0.2003 0.3531
C10 C 0.2107(8) 0.2921(7) 0.4464(2)
H7 H 0.3420 0.3496 0.4471
C11 C 0.1095(7) 0.2967(6) 0.5036(2)
C12 C 0.1042(6) 0.3850(5) 0.61078(19)
C13 C 0.1983(6) 0.4856(5) 0.67084(19)
C14 C 0.3909(6) 0.5847(6) 0.6747(2)
H8 H 0.4637 0.5883 0.6384
C15 C 0.4710(6) 0.6763(6) 0.7322(2)
H9 H 0.5979 0.7444 0.7353
C16 C 0.3603(6) 0.6662(5) 0.7859(2)
H10 H 0.4165 0.7264 0.8253
C17 C 0.0958(5) 0.4841(5) 0.72651(18)
C18 C -0.1092(5) 0.3868(5) 0.72530(18)
C19 C 0.1302(5) 0.9551(5) 0.89690(18)
C20 C 0.1992(5) 1.1069(5) 0.93824(19)
C21 C 0.2685(6) 0.9238(5) 1.02315(19)
H11 H 0.3121 0.9090 1.0671
C22 C 0.2102(5) 0.7712(5) 0.98204(19)
H12 H 0.2235 0.6566 0.9978
C23 C 0.0378(6) 0.9589(5) 0.82528(19)
C24 C 0.2040(5) 1.3019(5) 0.91602(18)
N1 N -0.1984(5) 0.3963(4) 0.78077(16)
N2 N 0.1761(5) 0.5730(4) 0.78317(15)
N3 N -0.1925(5) 0.2047(4) 0.55512(17)
N4 N 0.2041(5) 0.3872(5) 0.55828(17)
N5 N 0.1356(4) 0.7877(4) 0.92032(15)
N6 N 0.2640(5) 1.0909(4) 1.00185(16)
O1 O -0.0880(4) 0.8227(4) 0.80655(14)
O2 O 0.0974(5) 1.0921(4) 0.79424(15)
O3 O -0.2753(5) 0.5957(5) 0.91335(17)
O4 O 0.3705(4) 1.3872(4) 0.91050(17)
O5 O 0.0381(4) 1.3587(3) 0.90882(14)
Zn1 Zn -0.03443(6) 0.57612(5) 0.85620(2)
H13 H -0.368(8) 0.552(8) 0.909(3)
H14 H -0.295(7) 0.692(7) 0.930(2)
O5_2 O 0.0381(4) 0.3587(3) 0.90882(14)
Zn1_2 Zn -0.03443(6) 1.57612(5) 0.85620(2)
loop_
_geom_bond_atom_site_label_1
_geom_bond_atom_site_label_2
_geom_bond_site_symmetry_1
_geom_bond_site_symmetry_2
C1 H1 1_555 1_555
C2 C1 1_555 1_555
H2 C2 1_555 1_555
C3 C2 1_555 1_555
H3 C3 1_555 1_555
C4 C3 1_555 1_555
C5 C4 1_555 1_555
C6 C7 1_555 1_555
C7 H4 1_555 1_555
C8 C7 1_555 1_555
H5 C8 1_555 1_555
C9 C8 1_555 1_555
H6 C9 1_555 1_555
C10 C9 1_555 1_555
H7 C10 1_555 1_555
C11 C6 1_555 1_555
C12 C5 1_555 1_555
C13 C12 1_555 1_555
C14 C13 1_555 1_555
H8 C14 1_555 1_555
C15 C14 1_555 1_555
H9 C15 1_555 1_555
C16 C15 1_555 1_555
H10 C16 1_555 1_555
C17 C13 1_555 1_555
C18 C4 1_555 1_555
C19 C20 1_555 1_555
C20 C24 1_555 1_555
C21 H11 1_555 1_555
C22 C21 1_555 1_555
H12 C22 1_555 1_555
C23 C19 1_555 1_555
C24 O4 1_555 1_555
N1 C1 1_555 1_555
N2 C16 1_555 1_555
N3 C5 1_555 1_555
N4 C11 1_555 1_555
N5 C19 1_555 1_555
N6 C20 1_555 1_555
O1 C23 1_555 1_555
O2 C23 1_555 1_555
O3 Zn1 1_555 1_555
O5 C24 1_555 1_555
Zn1 N1 1_555 1_555
H13 O3 1_555 1_555
H14 O3 1_555 1_555
O5_2 Zn1 1_555 1_555
Zn1_2 O5 1_555 1_555
C6 N3 1_555 1_555
C10 C11 1_555 1_555
C12 N4 1_555 1_555
C17 C18 1_555 1_555
C17 N2 1_555 1_555
C18 N1 1_555 1_555
C21 N6 1_555 1_555
C22 N5 1_555 1_555
N2 Zn1 1_555 1_555
N5 Zn1 1_555 1_555
O1 Zn1 1_555 1_555

#END
