
#######################################################################
#
#                 Cambridge Crystallographic Data Centre
#                                CCDC 
#
#######################################################################
#
# If this CIF has been generated from an entry in the Cambridge 
# Structural Database, then it will include bibliographic, chemical, 
# crystal, experimental, refinement or atomic coordinate data resulting 
# from the CCDC's data processing and validation procedures.
#
#######################################################################

data_MODRUS
_symmetry_cell_setting           monoclinic
_symmetry_space_group_name_H-M   'P 2/n'
_symmetry_Int_Tables_number      13
_space_group_name_Hall           '-P 2yac'
loop_
_symmetry_equiv_pos_site_id
_symmetry_equiv_pos_as_xyz
1 x,y,z
2 1/2+x,-y,1/2+z
3 -x,-y,-z
4 1/2-x,y,1/2-z
_cell_length_a                   11.1059(3)
_cell_length_b                   9.8725(3)
_cell_length_c                   13.0827(3)
_cell_angle_alpha                90.00
_cell_angle_beta                 101.191(2)
_cell_angle_gamma                90.00
_cell_volume                     1407.15
loop_
_atom_site_label
_atom_site_type_symbol
_atom_site_fract_x
_atom_site_fract_y
_atom_site_fract_z
Se1 Se 0.09580(3) 0.02462(4) 0.67732(3)
Cu1 Cu 0.19193(4) -0.15930(4) 0.87058(3)
V1 V -0.17927(5) 0.13024(6) 0.63853(4)
O1 O 0.1357(2) 0.0217(2) 0.8082(2)
O2 O 0.1386(2) -0.1292(3) 0.6442(2)
O3 O -0.0607(2) -0.0060(3) 0.6567(2)
O4 O 0.2183(2) -0.0957(3) 1.03327(19)
O5 O -0.2500 0.1335(4) 0.7500
O6 O -0.1123(3) 0.2714(3) 0.6238(2)
N1 N 0.2316(3) -0.3608(3) 0.8803(2)
N2 N 0.0227(3) -0.2291(3) 0.8726(2)
C1 C 0.3387(4) -0.4229(5) 0.8887(3)
C2 C 0.3476(5) -0.5651(5) 0.8896(4)
C3 C 0.2449(5) -0.6435(5) 0.8821(4)
C4 C 0.1303(4) -0.5803(4) 0.8743(3)
C5 C 0.1292(4) -0.4383(4) 0.8740(3)
C6 C 0.0168(4) -0.3667(4) 0.8705(3)
C7 C -0.0924(4) -0.4389(4) 0.8691(3)
C8 C -0.1984(4) -0.3618(5) 0.8742(3)
C9 C -0.1892(4) -0.2248(6) 0.8802(3)
C10 C -0.0792(4) -0.1606(5) 0.8779(3)
C11 C 0.0157(5) -0.6504(5) 0.8690(3)
C12 C -0.0887(5) -0.5833(5) 0.8671(4)
H1 H 0.409(5) -0.365(5) 0.899(3)
H2 H 0.422(5) -0.593(5) 0.899(4)
H3 H 0.251(5) -0.754(6) 0.885(4)
H4 H -0.279(4) -0.412(5) 0.875(3)
H5 H -0.244(5) -0.183(5) 0.887(4)
H6 H -0.070(4) -0.074(5) 0.879(3)
H7 H 0.018(4) -0.735(6) 0.865(4)
H8 H -0.156(5) -0.625(5) 0.859(4)
Se1C Se 0.40420(3) 0.02462(4) 0.82268(3)
O1C O 0.3643(2) 0.0217(2) 0.6918(2)
O2C O 0.3614(2) -0.1292(3) 0.8558(2)
O3C O 0.5607(2) -0.0060(3) 0.8433(2)
Cu1C Cu 0.30807(4) -0.15930(4) 0.62942(3)
V1C V 0.67927(5) 0.13024(6) 0.86147(4)
O4A O -0.2817(2) 0.0957(3) 0.53327(19)
N1C N 0.2684(3) -0.3608(3) 0.6197(2)
N2C N 0.4773(3) -0.2291(3) 0.6274(2)
C1C C 0.1613(4) -0.4229(5) 0.6113(3)
C2C C 0.1524(5) -0.5651(5) 0.6104(4)
C3C C 0.2551(5) -0.6435(5) 0.6179(4)
C4C C 0.3697(4) -0.5803(4) 0.6257(3)
C5C C 0.3708(4) -0.4383(4) 0.6260(3)
C6C C 0.4832(4) -0.3667(4) 0.6295(3)
C7C C 0.5924(4) -0.4389(4) 0.6309(3)
C8C C 0.6984(4) -0.3618(5) 0.6258(3)
C9C C 0.6892(4) -0.2248(6) 0.6198(3)
C10C C 0.5792(4) -0.1606(5) 0.6221(3)
C11C C 0.4843(5) -0.6504(5) 0.6310(3)
C12C C 0.5887(5) -0.5833(5) 0.6329(4)
H1C H 0.091(5) -0.365(5) 0.601(3)
H2C H 0.078(5) -0.593(5) 0.601(4)
H3C H 0.249(5) -0.754(6) 0.615(4)
H4C H 0.779(4) -0.412(5) 0.625(3)
H5C H 0.744(5) -0.183(5) 0.613(4)
H6C H 0.570(4) -0.074(5) 0.621(3)
H7C H 0.482(4) -0.735(6) 0.635(4)
H8C H 0.656(5) -0.625(5) 0.641(4)
O6C O 0.6123(3) 0.2714(3) 0.8762(2)
V1A V 0.32073(5) -0.13024(6) 1.13853(4)
V1C_2 V -0.32073(5) 0.13024(6) 0.86147(4)
O4C O 0.2817(2) -0.0957(3) 0.46673(19)
O4B O 0.7817(2) 0.0957(3) 0.96673(19)
O5_2 O 0.7500 0.1335(4) 0.7500
Cu1A Cu -0.30807(4) 0.15930(4) 0.37058(3)
loop_
_geom_bond_atom_site_label_1
_geom_bond_atom_site_label_2
_geom_bond_site_symmetry_1
_geom_bond_site_symmetry_2
Se1 O1 1_555 1_555
Cu1 O1 1_555 1_555
V1 O3 1_555 1_555
O2 Se1 1_555 1_555
O3 Se1 1_555 1_555
O4 Cu1 1_555 1_555
O5 V1 1_555 1_555
O6 V1 1_555 1_555
N1 Cu1 1_555 1_555
N2 Cu1 1_555 1_555
C1 N1 1_555 1_555
C2 C1 1_555 1_555
C3 C2 1_555 1_555
C4 C3 1_555 1_555
C5 N1 1_555 1_555
C6 N2 1_555 1_555
C7 C6 1_555 1_555
C8 C7 1_555 1_555
C9 C8 1_555 1_555
C10 N2 1_555 1_555
C11 C4 1_555 1_555
C12 C7 1_555 1_555
H1 C1 1_555 1_555
H2 C2 1_555 1_555
H3 C3 1_555 1_555
H4 C8 1_555 1_555
H5 C9 1_555 1_555
H6 C10 1_555 1_555
H7 C11 1_555 1_555
H8 C12 1_555 1_555
Se1C O1C 1_555 1_555
O1C Cu1C 1_555 1_555
O2C Cu1 1_555 1_555
O3C Se1C 1_555 1_555
Cu1C O2 1_555 1_555
V1C O3C 1_555 1_555
O4A V1 1_555 1_555
N1C Cu1C 1_555 1_555
N2C Cu1C 1_555 1_555
C1C N1C 1_555 1_555
C2C C1C 1_555 1_555
C3C C2C 1_555 1_555
C4C C3C 1_555 1_555
C5C N1C 1_555 1_555
C6C N2C 1_555 1_555
C7C C6C 1_555 1_555
C8C C7C 1_555 1_555
C9C C8C 1_555 1_555
C10C N2C 1_555 1_555
C11C C4C 1_555 1_555
C12C C7C 1_555 1_555
H1C C1C 1_555 1_555
H2C C2C 1_555 1_555
H3C C3C 1_555 1_555
H4C C8C 1_555 1_555
H5C C9C 1_555 1_555
H6C C10C 1_555 1_555
H7C C11C 1_555 1_555
H8C C12C 1_555 1_555
O6C V1C 1_555 1_555
V1A O4 1_555 1_555
V1C_2 O5 1_555 1_555
O4C Cu1C 1_555 1_555
O4B V1C 1_555 1_555
O5_2 V1C 1_555 1_555
Cu1A O4A 1_555 1_555
C4 C5 1_555 1_555
C5 C6 1_555 1_555
C9 C10 1_555 1_555
C11 C12 1_555 1_555
Se1C O2C 1_555 1_555
C4C C5C 1_555 1_555
C5C C6C 1_555 1_555
C9C C10C 1_555 1_555
C11C C12C 1_555 1_555

#END
