
#######################################################################
#
#                 Cambridge Crystallographic Data Centre
#                                CCDC 
#
#######################################################################
#
# If this CIF has been generated from an entry in the Cambridge 
# Structural Database, then it will include bibliographic, chemical, 
# crystal, experimental, refinement or atomic coordinate data resulting 
# from the CCDC's data processing and validation procedures.
#
#######################################################################

data_MODWIN
_symmetry_cell_setting           monoclinic
_symmetry_space_group_name_H-M   'C 2/c'
_symmetry_Int_Tables_number      15
_space_group_name_Hall           '-C 2yn'
loop_
_symmetry_equiv_pos_site_id
_symmetry_equiv_pos_as_xyz
1 x,y,z
2 -x,y,1/2-z
3 1/2+x,1/2+y,z
4 1/2-x,1/2+y,1/2-z
5 -x,-y,-z
6 x,-y,1/2+z
7 1/2-x,1/2-y,-z
8 1/2+x,1/2-y,1/2+z
_cell_length_a                   17.073(11)
_cell_length_b                   15.507(11)
_cell_length_c                   18.110(12)
_cell_angle_alpha                90
_cell_angle_beta                 98.765(13)
_cell_angle_gamma                90
_cell_volume                     4738.65
loop_
_atom_site_label
_atom_site_type_symbol
_atom_site_fract_x
_atom_site_fract_y
_atom_site_fract_z
C1 C 0.4849(3) 0.1032(3) 0.4603(3)
H1 H 0.5154 0.0872 0.5053
C2 C 0.4068(3) 0.0861(3) 0.4397(3)
H2 H 0.3743 0.0567 0.4679
C3 C 0.4504(3) 0.1565(3) 0.3507(3)
H3 H 0.4519 0.1842 0.3053
C4 C 0.3054(3) 0.1166(4) 0.3275(3)
H4 H 0.2910 0.0569 0.3164
H5 H 0.3052 0.1465 0.2804
C5 C 0.2448(3) 0.1572(4) 0.3692(3)
C6 C 0.2419(3) 0.2437(4) 0.3803(3)
H6 H 0.2773 0.2790 0.3603
C7 C 0.1880(3) 0.2811(4) 0.4206(3)
H7 H 0.1872 0.3405 0.4278
C8 C 0.1351(3) 0.2280(4) 0.4501(4)
H8 H 0.0969 0.2520 0.4754
C9 C 0.1389(3) 0.1383(4) 0.4418(4)
C10 C 0.1931(3) 0.1037(4) 0.4003(3)
H9 H 0.1950 0.0443 0.3932
C11 C 0.0866(3) 0.0786(4) 0.4794(4)
H10 H 0.1131 0.0653 0.5294
H11 H 0.0795 0.0249 0.4516
C12 C -0.0114(4) 0.1573(4) 0.5437(4)
H12 H 0.0196 0.1595 0.5906
C13 C -0.1057(4) 0.1745(4) 0.4521(4)
H13 H -0.1534 0.1913 0.4240
C14 C -0.0502(4) 0.1274(4) 0.4269(4)
H14 H -0.0522 0.1065 0.3785
C15 C 0.6952(3) 0.0341(3) 0.3745(3)
C16 C 0.7224(3) -0.0266(3) 0.3178(3)
C17 C 0.6714(3) -0.0743(3) 0.2646(3)
C18 C 0.7056(3) -0.1277(3) 0.2167(3)
H15 H 0.6728 -0.1604 0.1816
C19 C 0.7872(3) -0.1339(3) 0.2195(3)
C20 C 0.8362(3) -0.0858(4) 0.2710(3)
H16 H 0.8909 -0.0894 0.2734
C21 C 0.8038(3) -0.0322(3) 0.3191(3)
H17 H 0.8372 0.0010 0.3532
C22 C 0.8212(3) -0.1951(3) 0.1687(3)
C23 C 0.5836(3) -0.0707(3) 0.2582(3)
C24 C 0.5444(3) -0.0696(3) 0.3205(3)
H18 H 0.5735 -0.0681 0.3682
C25 C 0.4625(3) -0.0709(3) 0.3115(3)
H19 H 0.4377 -0.0718 0.3538
N1 N 0.5117(2) 0.1485(3) 0.4032(2)
N2 N 0.3846(2) 0.1198(3) 0.3701(2)
N3 N -0.0815(3) 0.1949(3) 0.5273(3)
N4 N 0.0098(3) 0.1153(3) 0.4842(3)
Ni1 Ni 0.62106(3) 0.20307(4) 0.41189(3)
O1 O 0.66269(19) 0.1030(2) 0.35083(18)
O2 O 0.7096(3) 0.0100(3) 0.44091(19)
O3 O 0.77926(18) -0.2224(2) 0.10971(18)
O4 O 0.89220(19) -0.2203(2) 0.18594(19)
O5 O 0.66423(18) 0.1423(2) 0.51060(18)
H20 H 0.677(3) 0.0914(8) 0.5090(6)
H21 H 0.691(2) 0.1705(8) 0.5434(11)
C15A C 0.3048(3) 0.0341(3) 0.1255(3)
C16A C 0.2776(3) -0.0266(3) 0.1822(3)
C17A C 0.3286(3) -0.0743(3) 0.2354(3)
C18A C 0.2944(3) -0.1277(3) 0.2833(3)
H15A H 0.3272 -0.1604 0.3184
C19A C 0.2128(3) -0.1339(3) 0.2805(3)
C20A C 0.1638(3) -0.0858(4) 0.2290(3)
H16A H 0.1091 -0.0894 0.2266
C21A C 0.1962(3) -0.0322(3) 0.1809(3)
H17A H 0.1628 0.0010 0.1468
C22A C 0.1788(3) -0.1951(3) 0.3313(3)
C23A C 0.4164(3) -0.0707(3) 0.2418(3)
C24A C 0.4556(3) -0.0696(3) 0.1795(3)
H18A H 0.4265 -0.0681 0.1318
C25A C 0.5375(3) -0.0709(3) 0.1885(3)
H19A H 0.5623 -0.0718 0.1462
O1A O 0.33731(19) 0.1030(2) 0.14917(18)
O2A O 0.2904(3) 0.0100(3) 0.05909(19)
O3A O 0.22074(18) -0.2224(2) 0.39029(18)
O4A O 0.10780(19) -0.2203(2) 0.31406(19)
C1A C 0.5151(3) 0.1032(3) 0.0397(3)
H1A H 0.4846 0.0872 -0.0053
C2A C 0.5932(3) 0.0861(3) 0.0603(3)
H2A H 0.6257 0.0567 0.0321
C3A C 0.5496(3) 0.1565(3) 0.1493(3)
H3A H 0.5481 0.1842 0.1947
C4A C 0.6946(3) 0.1166(4) 0.1725(3)
H4A H 0.7090 0.0569 0.1836
H5A H 0.6948 0.1465 0.2196
C5A C 0.7552(3) 0.1572(4) 0.1308(3)
C6A C 0.7581(3) 0.2437(4) 0.1197(3)
H6A H 0.7227 0.2790 0.1397
C7A C 0.8120(3) 0.2811(4) 0.0794(3)
H7A H 0.8128 0.3405 0.0722
C8A C 0.8649(3) 0.2280(4) 0.0499(4)
H8A H 0.9031 0.2520 0.0246
C9A C 0.8611(3) 0.1383(4) 0.0582(4)
C10A C 0.8069(3) 0.1037(4) 0.0997(3)
H9A H 0.8050 0.0443 0.1068
C11A C 0.9134(3) 0.0786(4) 0.0206(4)
H10A H 0.8869 0.0653 -0.0294
H11A H 0.9205 0.0249 0.0484
C12A C 1.0114(4) 0.1573(4) -0.0437(4)
H12A H 0.9804 0.1595 -0.0906
C13A C 1.1057(4) 0.1745(4) 0.0479(4)
H13A H 1.1534 0.1913 0.0760
C14A C 1.0502(4) 0.1274(4) 0.0731(4)
H14A H 1.0522 0.1065 0.1215
N1A N 0.4883(2) 0.1485(3) 0.0968(2)
N2A N 0.6154(2) 0.1198(3) 0.1299(2)
N3A N 1.0815(3) 0.1949(3) -0.0273(3)
N4A N 0.9902(3) 0.1153(3) 0.0158(3)
Ni1A Ni 0.37894(3) 0.20307(4) 0.08811(3)
O5A O 0.33577(18) 0.1423(2) -0.01060(18)
H20A H 0.323(3) 0.0914(8) -0.0090(6)
H21A H 0.309(2) 0.1705(8) -0.0434(11)
N3F N 0.5815(3) 0.3051(3) 0.4727(3)
N3G N 0.4185(3) 0.3051(3) 0.0273(3)
Ni1B Ni 0.12106(3) -0.29693(4) 0.41189(3)
Ni1C Ni 0.87894(3) -0.29693(4) 0.08811(3)
Ni1F Ni -0.12106(3) 0.29693(4) 0.58811(3)
Ni1G Ni 1.12106(3) 0.29693(4) -0.08811(3)
O3B O 0.27926(18) 0.2776(2) 0.10971(18)
O3C O 0.72074(18) 0.2776(2) 0.39029(18)
O4B O 0.39220(19) 0.2797(2) 0.18594(19)
O4C O 0.60780(19) 0.2797(2) 0.31406(19)
loop_
_geom_bond_atom_site_label_1
_geom_bond_atom_site_label_2
_geom_bond_site_symmetry_1
_geom_bond_site_symmetry_2
C1 H1 1_555 1_555
C2 C1 1_555 1_555
H2 C2 1_555 1_555
C3 H3 1_555 1_555
C4 H4 1_555 1_555
H5 C4 1_555 1_555
C5 C4 1_555 1_555
C6 C5 1_555 1_555
H6 C6 1_555 1_555
C7 C6 1_555 1_555
H7 C7 1_555 1_555
C8 C7 1_555 1_555
H8 C8 1_555 1_555
C9 C8 1_555 1_555
C10 C5 1_555 1_555
H9 C10 1_555 1_555
C11 C9 1_555 1_555
H10 C11 1_555 1_555
H11 C11 1_555 1_555
C12 H12 1_555 1_555
C13 H13 1_555 1_555
C14 C13 1_555 1_555
H14 C14 1_555 1_555
C15 C16 1_555 1_555
C16 C17 1_555 1_555
C17 C18 1_555 1_555
C18 H15 1_555 1_555
C19 C18 1_555 1_555
C20 C19 1_555 1_555
H16 C20 1_555 1_555
C21 C16 1_555 1_555
H17 C21 1_555 1_555
C22 C19 1_555 1_555
C23 C17 1_555 1_555
C24 C23 1_555 1_555
H18 C24 1_555 1_555
C25 C24 1_555 1_555
H19 C25 1_555 1_555
N1 C1 1_555 1_555
N2 C2 1_555 1_555
N3 C12 1_555 1_555
N4 C11 1_555 1_555
Ni1 N1 1_555 1_555
O1 C15 1_555 1_555
O2 C15 1_555 1_555
O3 C22 1_555 1_555
O4 C22 1_555 1_555
O5 Ni1 1_555 1_555
H20 O5 1_555 1_555
H21 O5 1_555 1_555
C15A C16A 1_555 1_555
C16A C17A 1_555 1_555
C17A C18A 1_555 1_555
C18A H15A 1_555 1_555
C19A C18A 1_555 1_555
C20A C19A 1_555 1_555
H16A C20A 1_555 1_555
C21A C16A 1_555 1_555
H17A C21A 1_555 1_555
C22A C19A 1_555 1_555
C23A C25 1_555 1_555
C24A C23A 1_555 1_555
H18A C24A 1_555 1_555
C25A C23 1_555 1_555
H19A C25A 1_555 1_555
O1A C15A 1_555 1_555
O2A C15A 1_555 1_555
O3A C22A 1_555 1_555
O4A C22A 1_555 1_555
C1A H1A 1_555 1_555
C2A C1A 1_555 1_555
H2A C2A 1_555 1_555
C3A H3A 1_555 1_555
C4A H4A 1_555 1_555
H5A C4A 1_555 1_555
C5A C4A 1_555 1_555
C6A C5A 1_555 1_555
H6A C6A 1_555 1_555
C7A C6A 1_555 1_555
H7A C7A 1_555 1_555
C8A C7A 1_555 1_555
H8A C8A 1_555 1_555
C9A C8A 1_555 1_555
C10A C5A 1_555 1_555
H9A C10A 1_555 1_555
C11A C9A 1_555 1_555
H10A C11A 1_555 1_555
H11A C11A 1_555 1_555
C12A H12A 1_555 1_555
C13A H13A 1_555 1_555
C14A C13A 1_555 1_555
H14A C14A 1_555 1_555
N1A C1A 1_555 1_555
N2A C2A 1_555 1_555
N3A C12A 1_555 1_555
N4A C11A 1_555 1_555
Ni1A O1A 1_555 1_555
O5A Ni1A 1_555 1_555
H20A O5A 1_555 1_555
H21A O5A 1_555 1_555
N3F Ni1 1_555 1_555
N3G Ni1A 1_555 1_555
Ni1B O3A 1_555 1_555
Ni1C O3 1_555 1_555
Ni1F N3 1_555 1_555
Ni1G N3A 1_555 1_555
O3B Ni1A 1_555 1_555
O3C Ni1 1_555 1_555
O4B Ni1A 1_555 1_555
O4C Ni1 1_555 1_555
C3 N1 1_555 1_555
C3 N2 1_555 1_555
C4 N2 1_555 1_555
C9 C10 1_555 1_555
C12 N4 1_555 1_555
C13 N3 1_555 1_555
C14 N4 1_555 1_555
C20 C21 1_555 1_555
Ni1 O1 1_555 1_555
O4 Ni1C 1_555 1_555
C17A C23A 1_555 1_555
C20A C21A 1_555 1_555
C24A C25A 1_555 1_555
O4A Ni1B 1_555 1_555
C3A N1A 1_555 1_555
C3A N2A 1_555 1_555
C4A N2A 1_555 1_555
C9A C10A 1_555 1_555
C12A N4A 1_555 1_555
C13A N3A 1_555 1_555
C14A N4A 1_555 1_555
N1A Ni1A 1_555 1_555

#END
