
#######################################################################
#
#                 Cambridge Crystallographic Data Centre
#                                CCDC 
#
#######################################################################
#
# If this CIF has been generated from an entry in the Cambridge 
# Structural Database, then it will include bibliographic, chemical, 
# crystal, experimental, refinement or atomic coordinate data resulting 
# from the CCDC's data processing and validation procedures.
#
#######################################################################

data_MODWUX01
_symmetry_cell_setting           monoclinic
_symmetry_space_group_name_H-M   'P 21/c'
_symmetry_Int_Tables_number      14
_space_group_name_Hall           '-P 2ybc'
loop_
_symmetry_equiv_pos_site_id
_symmetry_equiv_pos_as_xyz
1 x,y,z
2 -x,1/2+y,1/2-z
3 -x,-y,-z
4 x,1/2-y,1/2+z
_cell_length_a                   6.5560(3)
_cell_length_b                   8.1194(3)
_cell_length_c                   15.5027(6)
_cell_angle_alpha                90
_cell_angle_beta                 96.369(3)
_cell_angle_gamma                90
_cell_volume                     820.128
loop_
_atom_site_label
_atom_site_type_symbol
_atom_site_fract_x
_atom_site_fract_y
_atom_site_fract_z
Ni1 Ni 0.4834(6) 0.1761(4) -0.0235(3)
Ni2 Ni 0.0000 0.0000 0.0000
O1 O 0.305(2) 0.016(1) 0.0399(7)
O2 O -0.043(2) 0.216(1) 0.0689(7)
O3 O -0.358(1) 0.255(1) 0.0931(8)
O4 O -0.007(2) 0.366(1) 0.3808(7)
O5 O 0.328(1) 0.376(1) 0.3512(7)
O6 O 0.662(2) 0.324(1) -0.1031(7)
O7 O 0.273(2) 0.361(1) -0.0053(7)
C1 C -0.173(2) 0.256(2) 0.1203(8)
C2 C -0.119(2) 0.323(2) 0.2127(8)
C3 C 0.077(2) 0.301(2) 0.2415(8)
C4 C 0.141(2) 0.340(2) 0.3336(7)
O1B O -0.305(2) -0.016(1) -0.0399(7)
O2B O 0.043(2) -0.216(1) -0.0689(7)
O3B O 0.358(1) -0.255(1) -0.0931(8)
O4B O 0.007(2) -0.366(1) -0.3808(7)
O5B O -0.328(1) -0.376(1) -0.3512(7)
C1B C 0.173(2) -0.256(2) -0.1203(8)
C2B C 0.119(2) -0.323(2) -0.2127(8)
C3B C -0.077(2) -0.301(2) -0.2415(8)
C4B C -0.141(2) -0.340(2) -0.3336(7)
Ni1B Ni -0.4834(6) -0.1761(4) 0.0235(3)
O6B O -0.662(2) -0.324(1) 0.1031(7)
O7B O -0.273(2) -0.361(1) 0.0053(7)
O1B_2 O 0.695(2) -0.016(1) -0.0399(7)
O3_2 O 0.642(1) 0.255(1) 0.0931(8)
O5C O 0.328(1) 0.124(1) -0.1488(7)
O4A O 0.007(2) -0.134(1) 0.1192(7)
O4C O -0.007(2) 0.134(1) -0.1192(7)
Ni1B_2 Ni 0.5166(6) -0.1761(4) 0.0235(3)
Ni1_2 Ni -0.5166(6) 0.1761(4) -0.0235(3)
Ni2A Ni 0.0000 0.5000 0.5000
Ni1C Ni 0.4834(6) 0.3239(4) 0.4765(3)
Ni2A_2 Ni 0.0000 -0.5000 -0.5000
Ni1A Ni -0.4834(6) -0.3239(4) -0.4765(3)
O1_2 O -0.695(2) 0.016(1) 0.0399(7)
O3B_2 O -0.642(1) -0.255(1) -0.0931(8)
O5A O -0.328(1) -0.124(1) 0.1488(7)
O8 O 0.488(2) 0.411(1) 0.7384(7)
loop_
_geom_bond_atom_site_label_1
_geom_bond_atom_site_label_2
_geom_bond_site_symmetry_1
_geom_bond_site_symmetry_2
Ni1 O1 1_555 1_555
Ni2 O1 1_555 1_555
O1 Ni1B_2 1_555 1_555
O2 Ni2 1_555 1_555
O3 C1 1_555 1_555
O4 C4 1_555 1_555
O5 C4 1_555 1_555
O6 Ni1 1_555 1_555
O7 Ni1 1_555 1_555
C1 O2 1_555 1_555
C2 C1 1_555 1_555
C3 C2 1_555 1_555
C4 C3 1_555 1_555
O1B Ni2 1_555 1_555
O2B Ni2 1_555 1_555
O3B C1B 1_555 1_555
O4B C4B 1_555 1_555
O5B C4B 1_555 1_555
C1B O2B 1_555 1_555
C2B C1B 1_555 1_555
C3B C2B 1_555 1_555
C4B C3B 1_555 1_555
Ni1B O1B 1_555 1_555
O6B Ni1B 1_555 1_555
O7B Ni1B 1_555 1_555
O1B_2 Ni1 1_555 1_555
O3_2 Ni1 1_555 1_555
O5C Ni1 1_555 1_555
O4A Ni2 1_555 1_555
O4C Ni2 1_555 1_555
Ni1B_2 O3B 1_555 1_555
Ni1_2 O3 1_555 1_555
Ni2A O4 1_555 1_555
Ni1C O5 1_555 1_555
Ni2A_2 O4B 1_555 1_555
Ni1A O5B 1_555 1_555
O1_2 Ni1B 1_555 1_555
O3B_2 Ni1B 1_555 1_555
O5A Ni1B 1_555 1_555
O1B Ni1_2 1_555 1_555
O1B_2 Ni1B_2 1_555 1_555
Ni1_2 O1_2 1_555 1_555

#END
