
#######################################################################
#
#                 Cambridge Crystallographic Data Centre
#                                CCDC 
#
#######################################################################
#
# If this CIF has been generated from an entry in the Cambridge 
# Structural Database, then it will include bibliographic, chemical, 
# crystal, experimental, refinement or atomic coordinate data resulting 
# from the CCDC's data processing and validation procedures.
#
#######################################################################

data_MODWUX
_symmetry_cell_setting           monoclinic
_symmetry_space_group_name_H-M   'P 21/c'
_symmetry_Int_Tables_number      14
_space_group_name_Hall           '-P 2ybc'
loop_
_symmetry_equiv_pos_site_id
_symmetry_equiv_pos_as_xyz
1 x,y,z
2 x,1/2-y,1/2+z
3 -x,-y,-z
4 -x,1/2+y,1/2-z
_cell_length_a                   6.558(3)
_cell_length_b                   8.128(3)
_cell_length_c                   15.506(4)
_cell_angle_alpha                90
_cell_angle_beta                 96.36(3)
_cell_angle_gamma                90
_cell_volume                     821.436
loop_
_atom_site_label
_atom_site_type_symbol
_atom_site_fract_x
_atom_site_fract_y
_atom_site_fract_z
Ni1 Ni 0.51492(7) 0.81997(6) 0.52357(3)
Ni2 Ni 0.0000 1.0000 0.5000
O1 O 0.0351(4) 0.7818(4) 0.4324(2)
O2 O 0.3642(4) 0.7442(4) 0.40834(19)
O3 O -0.3227(4) 0.6333(4) 0.14300(19)
O4 O 0.0053(4) 0.6341(4) 0.11398(19)
C1 C 0.1728(6) 0.7354(5) 0.3870(3)
C2 C 0.1089(7) 0.6697(5) 0.2979(3)
H1 H 0.1995 0.6027 0.2719
C3 C -0.1327(6) 0.6536(5) 0.1639(3)
C4 C -0.0696(7) 0.7028(6) 0.2553(3)
H2 H -0.1635 0.7612 0.2841
O5 O 0.3130(4) 1.0139(3) 0.53520(19)
H3 H 0.315(8) 1.040(6) 0.585(4)
O6 O 0.7231(4) 0.6277(4) 0.5097(2)
H4 H 0.852(5) 0.667(6) 0.490(4)
H5 H 0.685(8) 0.542(6) 0.466(3)
O7 O 0.3417(5) 0.6606(4) 0.5941(2)
H6 H 0.207(4) 0.696(7) 0.610(3)
H7 H 0.412(7) 0.639(7) 0.6522(19)
O1B O -0.0351(4) 1.2182(4) 0.5676(2)
O2B O -0.3642(4) 1.2558(4) 0.59166(19)
O3B O 0.3227(4) 1.3667(4) 0.85700(19)
O4B O -0.0053(4) 1.3659(4) 0.88602(19)
C1B C -0.1728(6) 1.2646(5) 0.6130(3)
C2B C -0.1089(7) 1.3303(5) 0.7021(3)
H1B H -0.1995 1.3973 0.7281
C3B C 0.1327(6) 1.3464(5) 0.8361(3)
C4B C 0.0696(7) 1.2972(6) 0.7447(3)
H2B H 0.1635 1.2388 0.7159
O5B O -0.3130(4) 0.9861(3) 0.46480(19)
H3B H -0.315(8) 0.960(6) 0.415(4)
Ni1B Ni -0.51492(7) 1.18003(6) 0.47643(3)
O6B O -0.7231(4) 1.3723(4) 0.4903(2)
H4B H -0.852(5) 1.333(6) 0.510(4)
H5B H -0.685(8) 1.458(6) 0.534(3)
O7B O -0.3417(5) 1.3394(4) 0.4059(2)
H6B H -0.207(4) 1.304(7) 0.390(3)
H7B H -0.412(7) 1.361(7) 0.3478(19)
O3A O 0.6773(4) 0.8667(4) 0.64300(19)
O5B_2 O 0.6870(4) 0.9861(3) 0.46480(19)
O4A O 0.0053(4) 0.8659(4) 0.61398(19)
O4C O -0.0053(4) 1.1341(4) 0.38602(19)
Ni1A Ni -0.48508(7) 0.68003(6) 0.02357(3)
Ni2A Ni 0.0000 0.5000 0.0000
Ni1B_2 Ni 0.48508(7) 1.18003(6) 0.47643(3)
Ni1C Ni 0.48508(7) 1.31997(6) 0.97643(3)
Ni2A_2 Ni 0.0000 1.5000 1.0000
Ni1_2 Ni -0.48508(7) 0.81997(6) 0.52357(3)
O3C O -0.6773(4) 1.1333(4) 0.35700(19)
O5_2 O -0.6870(4) 1.0139(3) 0.53520(19)
H3B_2 H 0.685(8) 0.960(6) 0.415(4)
H3_2 H -0.685(8) 1.040(6) 0.585(4)
O8 O 0.5081(5) 0.5898(5) 0.7616(2)
H8 H 0.483(9) 0.688(7) 0.791(5)
H9 H 0.439(12) 0.510(7) 0.773(5)
loop_
_geom_bond_atom_site_label_1
_geom_bond_atom_site_label_2
_geom_bond_site_symmetry_1
_geom_bond_site_symmetry_2
Ni1 O2 1_555 1_555
Ni2 O1 1_555 1_555
O1 C1 1_555 1_555
O2 C1 1_555 1_555
O3 C3 1_555 1_555
O4 C3 1_555 1_555
C1 C2 1_555 1_555
C2 H1 1_555 1_555
C3 C4 1_555 1_555
C4 C2 1_555 1_555
H2 C4 1_555 1_555
O5 Ni1 1_555 1_555
H3 O5 1_555 1_555
O6 Ni1 1_555 1_555
H4 O6 1_555 1_555
H5 O6 1_555 1_555
O7 Ni1 1_555 1_555
H6 O7 1_555 1_555
H7 O7 1_555 1_555
O8 H8 1_555 1_555
H9 O8 1_555 1_555
O1B Ni2 1_555 1_555
O2B C1B 1_555 1_555
O3B C3B 1_555 1_555
O4B C3B 1_555 1_555
C1B O1B 1_555 1_555
C2B C1B 1_555 1_555
H1B C2B 1_555 1_555
C3B C4B 1_555 1_555
C4B C2B 1_555 1_555
H2B C4B 1_555 1_555
O5B Ni2 1_555 1_555
H3B O5B 1_555 1_555
Ni1B O2B 1_555 1_555
O6B Ni1B 1_555 1_555
H4B O6B 1_555 1_555
H5B O6B 1_555 1_555
O7B Ni1B 1_555 1_555
H6B O7B 1_555 1_555
H7B O7B 1_555 1_555
O3A Ni1 1_555 1_555
O5B_2 Ni1 1_555 1_555
O4A Ni2 1_555 1_555
O4C Ni2 1_555 1_555
Ni1A O3 1_555 1_555
Ni2A O4 1_555 1_555
Ni1B_2 O5 1_555 1_555
Ni1C O3B 1_555 1_555
Ni2A_2 O4B 1_555 1_555
Ni1_2 O5B 1_555 1_555
O3C Ni1B 1_555 1_555
O5_2 Ni1B 1_555 1_555
H3B_2 O5B_2 1_555 1_555
H3_2 O5_2 1_555 1_555
Ni2 O5 1_555 1_555
O5B Ni1B 1_555 1_555
O5B_2 Ni1B_2 1_555 1_555
Ni1_2 O5_2 1_555 1_555

#END
