
#######################################################################
#
#                 Cambridge Crystallographic Data Centre
#                                CCDC 
#
#######################################################################
#
# If this CIF has been generated from an entry in the Cambridge 
# Structural Database, then it will include bibliographic, chemical, 
# crystal, experimental, refinement or atomic coordinate data resulting 
# from the CCDC's data processing and validation procedures.
#
#######################################################################

data_MODZAI
_symmetry_cell_setting           triclinic
_symmetry_space_group_name_H-M   'P -1'
_symmetry_Int_Tables_number      2
_space_group_name_Hall           '-P 1'
loop_
_symmetry_equiv_pos_site_id
_symmetry_equiv_pos_as_xyz
1 x,y,z
2 -x,-y,-z
_cell_length_a                   11.1876(13)
_cell_length_b                   12.2069(18)
_cell_length_c                   12.521(2)
_cell_angle_alpha                112.398(3)
_cell_angle_beta                 100.820(5)
_cell_angle_gamma                90.607(7)
_cell_volume                     1546.47
loop_
_atom_site_label
_atom_site_type_symbol
_atom_site_fract_x
_atom_site_fract_y
_atom_site_fract_z
Sb1 Sb 0.307134(18) 0.698221(18) 0.761178(18)
F1 F 0.2326(2) 0.55125(19) 0.6512(2)
F2 F 0.2227(3) 0.7757(3) 0.6708(3)
F3 F 0.1786(2) 0.7156(3) 0.8400(2)
F4 F 0.3813(2) 0.8464(2) 0.8731(2)
F5 F 0.3975(3) 0.6263(3) 0.8510(3)
F6 F 0.4352(2) 0.6898(2) 0.6814(2)
Ag1 Ag 0.693192(19) 0.792636(19) 0.54311(2)
C1 C -0.0927(3) 0.8043(3) -0.0375(3)
H1 H -0.0277 0.7737 -0.0763
C2 C -0.2114(3) 0.7512(3) -0.0880(3)
H2 H -0.2271 0.6840 -0.1608
C3 C -0.3064(3) 0.7954(3) -0.0330(3)
H3 H -0.3873 0.7589 -0.0675
C4 C -0.2831(3) 0.8932(3) 0.0727(3)
H4 H -0.3486 0.9240 0.1105
C5 C -0.1654(3) 0.9473(3) 0.1246(3)
H5 H -0.1506 1.0148 0.1972
C6 C -0.0691(3) 0.9022(3) 0.0698(3)
C7 C 0.0566(3) 0.9559(3) 0.1256(3)
C8 C 0.1631(3) 0.9295(3) 0.0847(3)
H6 H 0.1720 0.8722 0.0106
C9 C 0.3831(3) 1.0112(3) 0.1802(3)
H7 H 0.4130 1.0957 0.2053
H8 H 0.4010 0.9666 0.1012
C10 C 0.4504(3) 0.9623(3) 0.2673(3)
C11 C 0.5638(3) 1.0146(3) 0.3348(3)
H9 H 0.5991 1.0823 0.3283
C12 C 0.6262(3) 0.9681(3) 0.4122(3)
C13 C 0.4681(3) 0.8227(3) 0.3613(3)
C14 C 0.4017(3) 0.8646(3) 0.2812(3)
H10 H 0.3236 0.8267 0.2364
C15 C 0.4168(3) 0.7232(3) 0.3774(3)
C16 C 0.3617(3) 0.6417(3) 0.3827(3)
C17 C 0.2837(3) 0.5479(3) 0.3839(3)
C18 C 0.1580(3) 0.5531(3) 0.3595(4)
H11 H 0.1245 0.6180 0.3441
C19 C 0.0829(3) 0.4621(3) 0.3581(4)
H12 H -0.0034 0.4630 0.3407
C20 C 0.1339(3) 0.3705(3) 0.3821(3)
H13 H 0.0812 0.3084 0.3810
C21 C 0.3285(3) 0.4523(3) 0.4072(3)
H14 H 0.4144 0.4487 0.4239
C22 C 0.7446(3) 1.0247(3) 0.4819(3)
C23 C 0.8395(3) 1.0825(3) 0.5324(3)
C24 C 1.1048(3) 1.2691(3) 0.7584(3)
H15 H 1.1337 1.3046 0.8415
C25 C 0.9932(3) 1.2029(3) 0.7109(3)
H16 H 0.9434 1.1929 0.7609
C26 C 0.9547(3) 1.1513(2) 0.5897(3)
C27 C 1.0321(3) 1.1682(3) 0.5201(3)
H17 H 1.0066 1.1319 0.4367
C28 C 1.1739(3) 1.2830(3) 0.6833(3)
H18 H 1.2496 1.3307 0.7169
N1 N 0.0863(2) 1.0432(2) 0.2366(2)
N2 N 0.2043(2) 1.0702(2) 0.2644(2)
N3 N 0.2515(2) 1.0021(2) 0.1721(2)
N4 N 0.2552(2) 0.3642(2) 0.4071(2)
N5 N 1.1398(2) 1.2329(2) 0.5657(2)
N6 N 0.5803(2) 0.8730(2) 0.4272(2)
Ag1A Ag 0.306808(19) 0.207364(19) 0.45689(2)
Ag1A_2 Ag 0.306808(19) 1.207364(19) 0.45689(2)
Ag1A_3 Ag 1.306808(19) 1.207364(19) 0.45689(2)
N2A N 0.7957(2) 0.9298(2) 0.7356(2)
N4A N 0.7448(2) 0.6358(2) 0.5929(2)
N5A N 0.8602(2) 0.7671(2) 0.4343(2)
loop_
_geom_bond_atom_site_label_1
_geom_bond_atom_site_label_2
_geom_bond_site_symmetry_1
_geom_bond_site_symmetry_2
Ag1 N6 1_555 1_555
C1 H1 1_555 1_555
C2 C1 1_555 1_555
H2 C2 1_555 1_555
C3 C2 1_555 1_555
H3 C3 1_555 1_555
C4 C3 1_555 1_555
H4 C4 1_555 1_555
C5 C4 1_555 1_555
H5 C5 1_555 1_555
C6 C1 1_555 1_555
C7 C6 1_555 1_555
C8 C7 1_555 1_555
H6 C8 1_555 1_555
C9 H7 1_555 1_555
H8 C9 1_555 1_555
C10 C9 1_555 1_555
C11 C10 1_555 1_555
H9 C11 1_555 1_555
C12 C11 1_555 1_555
C13 C14 1_555 1_555
C14 C10 1_555 1_555
H10 C14 1_555 1_555
C15 C13 1_555 1_555
C16 C15 1_555 1_555
C17 C16 1_555 1_555
C18 C17 1_555 1_555
H11 C18 1_555 1_555
C19 C18 1_555 1_555
H12 C19 1_555 1_555
C20 C19 1_555 1_555
H13 C20 1_555 1_555
C21 C17 1_555 1_555
H14 C21 1_555 1_555
C22 C12 1_555 1_555
C23 C22 1_555 1_555
C24 H15 1_555 1_555
C25 C24 1_555 1_555
H16 C25 1_555 1_555
C26 C23 1_555 1_555
C27 C26 1_555 1_555
H17 C27 1_555 1_555
C28 C24 1_555 1_555
H18 C28 1_555 1_555
N1 C7 1_555 1_555
N2 N1 1_555 1_555
N3 C8 1_555 1_555
N4 C20 1_555 1_555
N5 C27 1_555 1_555
N6 C12 1_555 1_555
Sb1 F1 1_555 1_555
F2 Sb1 1_555 1_555
F3 Sb1 1_555 1_555
F4 Sb1 1_555 1_555
F5 Sb1 1_555 1_555
F6 Sb1 1_555 1_555
Ag1A N4 1_555 1_555
Ag1A_2 N2 1_555 1_555
Ag1A_3 N5 1_555 1_555
N2A Ag1 1_555 1_555
N4A Ag1 1_555 1_555
N5A Ag1 1_555 1_555
C5 C6 1_555 1_555
C9 N3 1_555 1_555
C13 N6 1_555 1_555
C21 N4 1_555 1_555
C25 C26 1_555 1_555
C28 N5 1_555 1_555
N2 N3 1_555 1_555

#END
