
#######################################################################
#
#                 Cambridge Crystallographic Data Centre
#                                CCDC 
#
#######################################################################
#
# If this CIF has been generated from an entry in the Cambridge 
# Structural Database, then it will include bibliographic, chemical, 
# crystal, experimental, refinement or atomic coordinate data resulting 
# from the CCDC's data processing and validation procedures.
#
#######################################################################

data_MODZUC
_symmetry_cell_setting           triclinic
_symmetry_space_group_name_H-M   'P -1'
_symmetry_Int_Tables_number      2
_space_group_name_Hall           '-P 1'
loop_
_symmetry_equiv_pos_site_id
_symmetry_equiv_pos_as_xyz
1 x,y,z
2 -x,-y,-z
_cell_length_a                   8.9430(4)
_cell_length_b                   12.4522(6)
_cell_length_c                   16.2781(4)
_cell_angle_alpha                85.395(3)
_cell_angle_beta                 80.231(3)
_cell_angle_gamma                86.309(4)
_cell_volume                     1778.3
loop_
_atom_site_label
_atom_site_type_symbol
_atom_site_fract_x
_atom_site_fract_y
_atom_site_fract_z
Co1 Co 0.87539(5) 0.79970(4) 0.72797(3)
O1 O 0.0150(3) -0.0685(2) 0.70295(17)
O2 O 0.2077(4) -0.1121(3) 0.7720(2)
O3 O 0.4218(3) 0.0138(2) 0.7629(2)
H1 H 0.3685 -0.0370 0.7804
O4 O 0.7454(3) 0.6626(2) 0.75412(17)
O5 O 0.8709(4) 0.5466(3) 0.6659(2)
O6 O 0.7579(3) 0.3697(2) 0.65020(18)
H2 H 0.8189 0.4174 0.6412
O7 O 1.0030(4) 0.7369(3) 0.82095(19)
H3 H 1.0357 0.6677 0.8143
H4 H 1.0862 0.7741 0.8204
O8 O 1.0221(4) 0.7205(3) 0.6317(2)
H5 H 0.977(3) 0.6620(17) 0.634(4)
N1 N 0.7250(4) 0.8805(3) 0.82570(19)
N2 N 0.7384(4) 0.8689(3) 0.63676(19)
C1 C 0.1396(4) -0.0491(3) 0.7236(2)
C2 C 0.2099(4) 0.0548(3) 0.6900(2)
C3 C 0.3498(4) 0.0822(3) 0.7112(2)
C4 C 0.4140(4) 0.1795(3) 0.6827(2)
C5 C 0.3404(4) 0.2517(3) 0.6284(2)
C6 C 0.4008(5) 0.3511(3) 0.5925(3)
H6 H 0.4948 0.3695 0.6027
C7 C 0.3229(6) 0.4193(4) 0.5437(3)
H7 H 0.3647 0.4839 0.5212
C8 C 0.1807(6) 0.3949(4) 0.5260(3)
H8 H 0.1276 0.4439 0.4940
C9 C 0.1217(5) 0.2988(4) 0.5563(3)
H9 H 0.0294 0.2812 0.5432
C10 C 0.1991(4) 0.2251(3) 0.6075(2)
C11 C 0.1376(4) 0.1263(3) 0.6391(2)
H10 H 0.0459 0.1089 0.6252
C12 C 0.7648(4) 0.5711(3) 0.7247(2)
C13 C 0.6594(4) 0.4850(3) 0.7608(2)
C14 C 0.5591(4) 0.4996(3) 0.8341(2)
H11 H 0.5562 0.5643 0.8592
C15 C 0.4617(4) 0.4194(3) 0.8714(2)
C16 C 0.3626(5) 0.4330(4) 0.9482(3)
H12 H 0.3592 0.4980 0.9731
C17 C 0.2730(5) 0.3538(4) 0.9862(3)
H13 H 0.2100 0.3640 1.0369
C18 C 0.2761(5) 0.2560(4) 0.9482(3)
H14 H 0.2146 0.2016 0.9743
C19 C 0.3676(4) 0.2397(3) 0.8738(2)
H15 H 0.3672 0.1743 0.8500
C20 C 0.4638(4) 0.3206(3) 0.8318(2)
C21 C 0.5620(4) 0.3066(3) 0.7544(2)
C22 C 0.6600(4) 0.3860(3) 0.7221(2)
C23 C 0.5644(4) 0.2051(3) 0.7083(2)
H16 H 0.5966 0.1443 0.7435
H17 H 0.6406 0.2112 0.6583
C24 C 0.7594(6) 0.9715(4) 0.8528(3)
H18 H 0.8457 1.0048 0.8251
C25 C 0.6742(7) 1.0201(4) 0.9202(4)
H19 H 0.7049 1.0839 0.9365
C26 C 0.5457(5) 0.9756(3) 0.9630(2)
C27 C 0.5059(5) 0.8840(4) 0.9315(3)
H20 H 0.4164 0.8520 0.9559
C28 C 0.5965(5) 0.8393(3) 0.8647(3)
H21 H 0.5662 0.7769 0.8458
C29 C 0.6150(6) 0.8259(4) 0.6222(3)
H22 H 0.5909 0.7588 0.6486
C30 C 0.5205(5) 0.8739(4) 0.5708(3)
H23 H 0.4344 0.8393 0.5647
C31 C 0.5499(4) 0.9726(3) 0.5278(2)
C32 C 0.6807(6) 1.0157(4) 0.5413(3)
H24 H 0.7102 1.0813 0.5139
C33 C 0.7677(6) 0.9626(4) 0.5949(3)
H25 H 0.8546 0.9953 0.6025
C34 C 1.1763(8) 0.6996(8) 0.6186(6)
H26 H 1.2265 0.7660 0.6039
H27 H 1.2040 0.6524 0.5741
H28 H 1.2065 0.6658 0.6688
N1A N 0.2750(4) 1.1195(3) 1.17430(19)
C24A C 0.2406(6) 1.0285(4) 1.1472(3)
H18A H 0.1543 0.9952 1.1749
C25A C 0.3258(7) 0.9799(4) 1.0798(4)
H19A H 0.2951 0.9161 1.0635
C26A C 0.4543(5) 1.0244(3) 1.0370(2)
C27A C 0.4941(5) 1.1160(4) 1.0685(3)
H20A H 0.5836 1.1480 1.0441
C28A C 0.4035(5) 1.1607(3) 1.1353(3)
H21A H 0.4338 1.2231 1.1542
N2A N 0.2616(4) 1.1311(3) 0.36324(19)
C29A C 0.3850(6) 1.1741(4) 0.3778(3)
H22A H 0.4091 1.2412 0.3514
C30A C 0.4795(5) 1.1261(4) 0.4292(3)
H23A H 0.5656 1.1607 0.4353
C31A C 0.4501(4) 1.0274(3) 0.4722(2)
C32A C 0.3193(6) 0.9843(4) 0.4587(3)
H24A H 0.2898 0.9187 0.4861
C33A C 0.2323(6) 1.0374(4) 0.4051(3)
H25A H 0.1454 1.0047 0.3975
Co1A Co 0.12461(5) 1.20030(4) 0.27203(3)
O1A O 0.9850(3) 2.0685(2) 0.29705(17)
O2A O 0.7923(4) 2.1121(3) 0.2280(2)
O3A O 0.5782(3) 1.9862(2) 0.2371(2)
H1A H 0.6315 2.0370 0.2196
O4A O 0.2546(3) 1.3374(2) 0.24588(17)
O5A O 0.1291(4) 1.4534(3) 0.3341(2)
O6A O 0.2421(3) 1.6303(2) 0.34980(18)
H2A H 0.1811 1.5826 0.3588
O7A O -0.0030(4) 1.2631(3) 0.17905(19)
H3A H -0.0357 1.3323 0.1857
H4A H -0.0862 1.2259 0.1796
O8A O -0.0221(4) 1.2795(3) 0.3683(2)
H5A H 0.023(3) 1.3380(17) 0.366(4)
C1A C 0.8604(4) 2.0491(3) 0.2764(2)
C2A C 0.7901(4) 1.9452(3) 0.3100(2)
C3A C 0.6502(4) 1.9178(3) 0.2888(2)
C4A C 0.5860(4) 1.8205(3) 0.3173(2)
C5A C 0.6596(4) 1.7483(3) 0.3716(2)
C6A C 0.5992(5) 1.6489(3) 0.4075(3)
H6A H 0.5052 1.6305 0.3973
C7A C 0.6771(6) 1.5807(4) 0.4563(3)
H7A H 0.6353 1.5161 0.4788
C8A C 0.8193(6) 1.6051(4) 0.4740(3)
H8A H 0.8724 1.5561 0.5060
C9A C 0.8783(5) 1.7012(4) 0.4437(3)
H9A H 0.9706 1.7188 0.4568
C10A C 0.8009(4) 1.7749(3) 0.3925(2)
C11A C 0.8624(4) 1.8737(3) 0.3609(2)
H10A H 0.9541 1.8911 0.3748
C12A C 0.2352(4) 1.4289(3) 0.2753(2)
C13A C 0.3406(4) 1.5150(3) 0.2392(2)
C14A C 0.4409(4) 1.5004(3) 0.1659(2)
H11A H 0.4438 1.4357 0.1408
C15A C 0.5383(4) 1.5806(3) 0.1286(2)
C16A C 0.6374(5) 1.5670(4) 0.0518(3)
H12A H 0.6408 1.5020 0.0269
C17A C 0.7270(5) 1.6462(4) 0.0138(3)
H13A H 0.7900 1.6360 -0.0369
C18A C 0.7239(5) 1.7440(4) 0.0518(3)
H14A H 0.7854 1.7984 0.0257
C19A C 0.6324(4) 1.7603(3) 0.1262(2)
H15A H 0.6328 1.8257 0.1500
C20A C 0.5362(4) 1.6794(3) 0.1682(2)
C21A C 0.4380(4) 1.6934(3) 0.2456(2)
C22A C 0.3400(4) 1.6140(3) 0.2779(2)
C23A C 0.4356(4) 1.7949(3) 0.2917(2)
H16A H 0.4034 1.8557 0.2565
H17A H 0.3594 1.7888 0.3417
C34A C -0.1763(8) 1.3004(8) 0.3814(6)
H26A H -0.2265 1.2340 0.3961
H27A H -0.2040 1.3476 0.4259
H28A H -0.2065 1.3342 0.3312
Co1_2 Co -0.12461(5) -0.20030(4) 0.72797(3)
Co1A_2 Co 0.12461(5) 1.20030(4) 1.27203(3)
Co1A_3 Co 1.12461(5) 2.20030(4) 0.27203(3)
O1_2 O 1.0150(3) 0.9315(2) 0.70295(17)
O1A_2 O -0.0150(3) 1.0685(2) 0.29705(17)
N1A_2 N 0.2750(4) 1.1195(3) 0.17430(19)
O9 O 1.0328(9) 1.5245(7) 0.8609(5)
N3 N 0.9753(6) 1.3590(5) 0.8550(3)
C35 C 1.0512(13) 1.4388(9) 0.8193(7)
H29 H 1.1142 1.4354 0.7678
C36 C 0.8747(12) 1.3548(9) 0.9341(6)
H30 H 0.7793 1.3286 0.9272
H31 H 0.8585 1.4258 0.9540
H32 H 0.9193 1.3073 0.9737
C37 C 0.9817(9) 1.2606(6) 0.8154(4)
H33 H 0.8804 1.2401 0.8143
H34 H 1.0336 1.2050 0.8459
H35 H 1.0354 1.2701 0.7592
loop_
_geom_bond_atom_site_label_1
_geom_bond_atom_site_label_2
_geom_bond_site_symmetry_1
_geom_bond_site_symmetry_2
Co1 O4 1_555 1_555
O1 C1 1_555 1_555
O2 C1 1_555 1_555
O3 H1 1_555 1_555
O4 C12 1_555 1_555
O5 C12 1_555 1_555
O6 H2 1_555 1_555
O7 Co1 1_555 1_555
H3 O7 1_555 1_555
H4 O7 1_555 1_555
O8 Co1 1_555 1_555
H5 O8 1_555 1_555
N1 Co1 1_555 1_555
N2 Co1 1_555 1_555
C1 C2 1_555 1_555
C2 C3 1_555 1_555
C3 O3 1_555 1_555
C4 C3 1_555 1_555
C5 C4 1_555 1_555
C6 C5 1_555 1_555
H6 C6 1_555 1_555
C7 C6 1_555 1_555
H7 C7 1_555 1_555
C8 C7 1_555 1_555
H8 C8 1_555 1_555
C9 C8 1_555 1_555
H9 C9 1_555 1_555
C10 C5 1_555 1_555
C11 C2 1_555 1_555
H10 C11 1_555 1_555
C12 C13 1_555 1_555
C13 C14 1_555 1_555
C14 H11 1_555 1_555
C15 C14 1_555 1_555
C16 C15 1_555 1_555
H12 C16 1_555 1_555
C17 C16 1_555 1_555
H13 C17 1_555 1_555
C18 C17 1_555 1_555
H14 C18 1_555 1_555
C19 C18 1_555 1_555
H15 C19 1_555 1_555
C20 C15 1_555 1_555
C21 C20 1_555 1_555
C22 O6 1_555 1_555
C23 C4 1_555 1_555
H16 C23 1_555 1_555
H17 C23 1_555 1_555
C24 N1 1_555 1_555
H18 C24 1_555 1_555
C25 C24 1_555 1_555
H19 C25 1_555 1_555
C26 C25 1_555 1_555
C27 C26 1_555 1_555
H20 C27 1_555 1_555
C28 N1 1_555 1_555
H21 C28 1_555 1_555
C29 N2 1_555 1_555
H22 C29 1_555 1_555
C30 C29 1_555 1_555
H23 C30 1_555 1_555
C31 C30 1_555 1_555
C32 C31 1_555 1_555
H24 C32 1_555 1_555
C33 N2 1_555 1_555
H25 C33 1_555 1_555
C34 O8 1_555 1_555
H26 C34 1_555 1_555
H27 C34 1_555 1_555
H28 C34 1_555 1_555
O9 C35 1_555 1_555
N3 C35 1_555 1_555
C35 H29 1_555 1_555
C36 N3 1_555 1_555
H30 C36 1_555 1_555
H31 C36 1_555 1_555
H32 C36 1_555 1_555
C37 N3 1_555 1_555
H33 C37 1_555 1_555
H34 C37 1_555 1_555
H35 C37 1_555 1_555
N1A C24A 1_555 1_555
C24A H18A 1_555 1_555
C25A C24A 1_555 1_555
H19A C25A 1_555 1_555
C26A C26 1_555 1_555
C27A C26A 1_555 1_555
H20A C27A 1_555 1_555
C28A N1A 1_555 1_555
H21A C28A 1_555 1_555
N2A C29A 1_555 1_555
C29A H22A 1_555 1_555
C30A C29A 1_555 1_555
H23A C30A 1_555 1_555
C31A C31 1_555 1_555
C32A C31A 1_555 1_555
H24A C32A 1_555 1_555
C33A N2A 1_555 1_555
H25A C33A 1_555 1_555
Co1A N2A 1_555 1_555
O1A C1A 1_555 1_555
O2A C1A 1_555 1_555
O3A H1A 1_555 1_555
O4A Co1A 1_555 1_555
O5A C12A 1_555 1_555
O6A H2A 1_555 1_555
O7A Co1A 1_555 1_555
H3A O7A 1_555 1_555
H4A O7A 1_555 1_555
O8A Co1A 1_555 1_555
H5A O8A 1_555 1_555
C1A C2A 1_555 1_555
C2A C3A 1_555 1_555
C3A O3A 1_555 1_555
C4A C3A 1_555 1_555
C5A C4A 1_555 1_555
C6A C5A 1_555 1_555
H6A C6A 1_555 1_555
C7A C6A 1_555 1_555
H7A C7A 1_555 1_555
C8A C7A 1_555 1_555
H8A C8A 1_555 1_555
C9A C8A 1_555 1_555
H9A C9A 1_555 1_555
C10A C5A 1_555 1_555
C11A C2A 1_555 1_555
H10A C11A 1_555 1_555
C12A O4A 1_555 1_555
C13A C12A 1_555 1_555
C14A C13A 1_555 1_555
H11A C14A 1_555 1_555
C15A C14A 1_555 1_555
C16A C15A 1_555 1_555
H12A C16A 1_555 1_555
C17A C16A 1_555 1_555
H13A C17A 1_555 1_555
C18A C17A 1_555 1_555
H14A C18A 1_555 1_555
C19A C18A 1_555 1_555
H15A C19A 1_555 1_555
C20A C15A 1_555 1_555
C21A C20A 1_555 1_555
C22A O6A 1_555 1_555
C23A C4A 1_555 1_555
H16A C23A 1_555 1_555
H17A C23A 1_555 1_555
C34A O8A 1_555 1_555
H26A C34A 1_555 1_555
H27A C34A 1_555 1_555
H28A C34A 1_555 1_555
Co1_2 O1 1_555 1_555
Co1A_2 N1A 1_555 1_555
Co1A_3 O1A 1_555 1_555
O1_2 Co1 1_555 1_555
O1A_2 Co1A 1_555 1_555
N1A_2 Co1A 1_555 1_555
C9 C10 1_555 1_555
C10 C11 1_555 1_555
C13 C22 1_555 1_555
C19 C20 1_555 1_555
C21 C22 1_555 1_555
C21 C23 1_555 1_555
C27 C28 1_555 1_555
C32 C33 1_555 1_555
C25A C26A 1_555 1_555
C27A C28A 1_555 1_555
C30A C31A 1_555 1_555
C32A C33A 1_555 1_555
C9A C10A 1_555 1_555
C10A C11A 1_555 1_555
C13A C22A 1_555 1_555
C19A C20A 1_555 1_555
C21A C22A 1_555 1_555
C21A C23A 1_555 1_555

#END
