
#######################################################################
#
#                 Cambridge Crystallographic Data Centre
#                                CCDC 
#
#######################################################################
#
# If this CIF has been generated from an entry in the Cambridge 
# Structural Database, then it will include bibliographic, chemical, 
# crystal, experimental, refinement or atomic coordinate data resulting 
# from the CCDC's data processing and validation procedures.
#
#######################################################################

data_MOFBIU
_symmetry_cell_setting           orthorhombic
_symmetry_space_group_name_H-M   'P n a 21'
_symmetry_Int_Tables_number      33
_space_group_name_Hall           'P 2c -2n'
loop_
_symmetry_equiv_pos_site_id
_symmetry_equiv_pos_as_xyz
1 x,y,z
2 -x,-y,1/2+z
3 1/2-x,1/2+y,1/2+z
4 1/2+x,1/2-y,z
_cell_length_a                   13.0642(4)
_cell_length_b                   19.2967(9)
_cell_length_c                   13.5884(4)
_cell_angle_alpha                90
_cell_angle_beta                 90
_cell_angle_gamma                90
_cell_volume                     3425.58
loop_
_atom_site_label
_atom_site_type_symbol
_atom_site_fract_x
_atom_site_fract_y
_atom_site_fract_z
Cd1 Cd 0.70620(2) 0.222190(17) 0.12463(4)
O1 O 0.2073(3) 0.3274(2) 0.9713(3)
O2 O 0.3309(3) 0.2496(2) 0.9782(3)
O3 O 0.4458(3) 0.2306(2) 0.8288(3)
H1 H 0.4297 0.2314 0.8871
O4 O 0.6350(3) 0.2333(2) 0.2800(3)
O5 O 0.7706(3) 0.3015(2) 0.2750(3)
O6 O 0.5234(3) 0.2246(2) 0.4303(3)
H2 H 0.5382 0.2229 0.3717
O7 O 0.5605(3) 0.1468(3) 0.1230(5)
H3 H 0.514(2) 0.158(4) 0.164(3)
N1 N 0.6396(3) 0.3253(2) 0.0704(3)
N2 N 0.6742(3) 0.6457(2) -0.3173(3)
C1 C 0.2779(4) 0.2937(3) 0.9319(4)
C2 C 0.3012(4) 0.3073(3) 0.8245(4)
C3 C 0.3836(4) 0.2743(2) 0.7770(4)
C4 C 0.4032(4) 0.2832(2) 0.6766(3)
C5 C 0.3343(3) 0.3254(2) 0.6228(6)
C6 C 0.3407(4) 0.3333(3) 0.5181(4)
H4 H 0.3944 0.3122 0.4846
C7 C 0.2709(5) 0.3703(3) 0.4664(4)
H5 H 0.2768 0.3733 0.3983
C8 C 0.1898(5) 0.4044(3) 0.5142(5)
H6 H 0.1427 0.4302 0.4782
C9 C 0.1807(4) 0.3990(3) 0.6157(6)
H7 H 0.1278 0.4218 0.6481
C10 C 0.2509(4) 0.3594(3) 0.6691(4)
C11 C 0.2375(4) 0.3499(3) 0.7717(4)
H8 H 0.1845 0.3729 0.8038
C12 C 0.6965(4) 0.2758(3) 0.3204(4)
C13 C 0.6769(4) 0.2942(3) 0.4272(4)
C14 C 0.5911(4) 0.2657(3) 0.4780(4)
C15 C 0.5749(4) 0.2785(2) 0.5770(3)
C16 C 0.6483(3) 0.3191(2) 0.6295(6)
C17 C 0.6442(4) 0.3286(3) 0.7340(4)
H9 H 0.5901 0.3097 0.7693
C18 C 0.7171(4) 0.3643(3) 0.7818(5)
H10 H 0.7136 0.3684 0.8499
C19 C 0.7990(4) 0.3959(3) 0.7305(5)
H11 H 0.8476 0.4217 0.7645
C20 C 0.8061(3) 0.3884(2) 0.6326(7)
H12 H 0.8601 0.4092 0.5991
C21 C 0.7327(4) 0.3493(3) 0.5792(4)
C22 C 0.7443(4) 0.3358(3) 0.4766(4)
H13 H 0.7987 0.3556 0.4426
C23 C 0.4878(3) 0.2416(2) 0.6298(7)
H14 H 0.4564 0.2103 0.5828
H15 H 0.5181 0.2131 0.6809
C24 C 0.5511(4) 0.3240(3) 0.0230(4)
H16 H 0.5204 0.2812 0.0121
C25 C 0.5020(5) 0.3821(4) -0.0110(6)
H17 H 0.4391 0.3781 -0.0425
C26 C 0.5462(5) 0.4463(3) 0.0017(4)
C27 C 0.6392(5) 0.4472(3) 0.0489(4)
H18 H 0.6729 0.4892 0.0581
C28 C 0.6829(5) 0.3875(3) 0.0825(4)
H19 H 0.7453 0.3902 0.1152
C29 C 0.6889(4) 0.5774(3) -0.3295(4)
H20 H 0.7475 0.5629 -0.3626
C30 C 0.6231(5) 0.5283(3) -0.2963(4)
H21 H 0.6376 0.4817 -0.3069
C31 C 0.5349(4) 0.5466(3) -0.2469(4)
C32 C 0.5180(5) 0.6176(3) -0.2343(5)
H22 H 0.4595 0.6332 -0.2022
C33 C 0.5895(4) 0.6644(3) -0.2700(4)
H23 H 0.5775 0.7114 -0.2604
C34 C 0.4919(6) 0.5139(3) -0.0303(5)
H24 H 0.4588 0.5337 0.0271
H25 H 0.5439 0.5465 -0.0516
C35 C 0.4140(4) 0.5081(3) -0.1101(5)
H26 H 0.3755 0.5510 -0.1135
H27 H 0.3664 0.4712 -0.0936
C36 C 0.4604(5) 0.4932(3) -0.2112(5)
H28 H 0.4053 0.4893 -0.2587
H29 H 0.4949 0.4487 -0.2086
C37 C 0.5150(8) 0.1053(5) 0.0439(7)
H30 H 0.5388 0.1220 -0.0186
H31 H 0.4417 0.1091 0.0468
H32 H 0.5345 0.0577 0.0518
Cd1B Cd 0.79380(2) 0.722190(17) -0.37537(4)
Cd1C Cd 0.20620(2) 0.277810(17) 1.12463(4)
O1C O 0.7073(3) 0.1726(2) -0.0287(3)
O2C O 0.8309(3) 0.2504(2) -0.0218(3)
N2B N 0.8258(3) 0.1457(2) 0.1827(3)
O8 O 0.4318(4) 0.1138(3) 0.2714(5)
H33 H 0.3774 0.1340 0.2800
C38 C 0.4303(10) 0.0513(4) 0.3210(8)
H34 H 0.3730 0.0243 0.2991
H35 H 0.4244 0.0597 0.3904
H36 H 0.4926 0.0265 0.3080
loop_
_geom_bond_atom_site_label_1
_geom_bond_atom_site_label_2
_geom_bond_site_symmetry_1
_geom_bond_site_symmetry_2
Cd1 O4 1_555 1_555
O1 C1 1_555 1_555
O2 C1 1_555 1_555
O3 H1 1_555 1_555
O4 C12 1_555 1_555
O5 Cd1 1_555 1_555
O6 H2 1_555 1_555
O7 Cd1 1_555 1_555
H3 O7 1_555 1_555
N1 Cd1 1_555 1_555
N2 C29 1_555 1_555
C1 C2 1_555 1_555
C2 C3 1_555 1_555
C3 O3 1_555 1_555
C4 C3 1_555 1_555
C5 C4 1_555 1_555
C6 C5 1_555 1_555
H4 C6 1_555 1_555
C7 C6 1_555 1_555
H5 C7 1_555 1_555
C8 C7 1_555 1_555
H6 C8 1_555 1_555
C9 C8 1_555 1_555
H7 C9 1_555 1_555
C10 C5 1_555 1_555
C11 C2 1_555 1_555
H8 C11 1_555 1_555
C12 O5 1_555 1_555
C13 C12 1_555 1_555
C14 O6 1_555 1_555
C15 C14 1_555 1_555
C16 C15 1_555 1_555
C17 C16 1_555 1_555
H9 C17 1_555 1_555
C18 C17 1_555 1_555
H10 C18 1_555 1_555
C19 C18 1_555 1_555
H11 C19 1_555 1_555
C20 C19 1_555 1_555
H12 C20 1_555 1_555
C21 C16 1_555 1_555
C22 C13 1_555 1_555
H13 C22 1_555 1_555
C23 C4 1_555 1_555
H14 C23 1_555 1_555
H15 C23 1_555 1_555
C24 N1 1_555 1_555
H16 C24 1_555 1_555
C25 C24 1_555 1_555
H17 C25 1_555 1_555
C26 C25 1_555 1_555
C27 C26 1_555 1_555
H18 C27 1_555 1_555
C28 N1 1_555 1_555
H19 C28 1_555 1_555
C29 H20 1_555 1_555
C30 C29 1_555 1_555
H21 C30 1_555 1_555
C31 C30 1_555 1_555
C32 C31 1_555 1_555
H22 C32 1_555 1_555
C33 N2 1_555 1_555
H23 C33 1_555 1_555
C34 C26 1_555 1_555
H24 C34 1_555 1_555
H25 C34 1_555 1_555
C35 C34 1_555 1_555
H26 C35 1_555 1_555
H27 C35 1_555 1_555
C36 C31 1_555 1_555
H28 C36 1_555 1_555
H29 C36 1_555 1_555
C37 O7 1_555 1_555
H30 C37 1_555 1_555
H31 C37 1_555 1_555
H32 C37 1_555 1_555
O8 H33 1_555 1_555
C38 O8 1_555 1_555
H34 C38 1_555 1_555
H35 C38 1_555 1_555
H36 C38 1_555 1_555
Cd1B N2 1_555 1_555
Cd1C O1 1_555 1_555
O1C Cd1 1_555 1_555
O2C Cd1 1_555 1_555
N2B Cd1 1_555 1_555
O2 Cd1C 1_555 1_555
C9 C10 1_555 1_555
C10 C11 1_555 1_555
C13 C14 1_555 1_555
C15 C23 1_555 1_555
C20 C21 1_555 1_555
C21 C22 1_555 1_555
C27 C28 1_555 1_555
C32 C33 1_555 1_555
C35 C36 1_555 1_555

#END
