
#######################################################################
#
#                 Cambridge Crystallographic Data Centre
#                                CCDC 
#
#######################################################################
#
# If this CIF has been generated from an entry in the Cambridge 
# Structural Database, then it will include bibliographic, chemical, 
# crystal, experimental, refinement or atomic coordinate data resulting 
# from the CCDC's data processing and validation procedures.
#
#######################################################################

data_MOFCUF
_symmetry_cell_setting           orthorhombic
_symmetry_space_group_name_H-M   'P b c a'
_symmetry_Int_Tables_number      61
_space_group_name_Hall           '-P 2ac 2ab'
loop_
_symmetry_equiv_pos_site_id
_symmetry_equiv_pos_as_xyz
1 x,y,z
2 1/2-x,-y,1/2+z
3 -x,1/2+y,1/2-z
4 1/2+x,1/2-y,-z
5 -x,-y,-z
6 1/2+x,y,1/2-z
7 x,1/2-y,1/2+z
8 1/2-x,1/2+y,z
_cell_length_a                   25.0558(4)
_cell_length_b                   28.5128(4)
_cell_length_c                   30.83410(10)
_cell_angle_alpha                90
_cell_angle_beta                 90
_cell_angle_gamma                90
_cell_volume                     22028.2
loop_
_atom_site_label
_atom_site_type_symbol
_atom_site_fract_x
_atom_site_fract_y
_atom_site_fract_z
Ag1 Ag 0.72657(3) 0.00335(3) 0.13364(3)
Ag2 Ag 0.74195(3) 0.00758(3) 0.03517(3)
Ag3 Ag 0.75643(3) 0.01418(3) -0.06529(3)
Ag4 Ag 0.73818(4) -0.01434(3) 0.33290(3)
Ag5 Ag 0.72789(3) 0.00070(3) 0.23196(3)
S1 S 0.66151(15) 0.22607(12) 0.09451(14)
N1 N 0.8012(3) 0.0444(3) 0.1276(3)
C1 C 0.8484(5) 0.0283(4) 0.1389(4)
H1 H 0.8518 -0.0039 0.1463
C2 C 0.8939(5) 0.0569(5) 0.1404(4)
H2 H 0.9270 0.0440 0.1495
C3 C 0.8911(5) 0.1024(5) 0.1289(4)
H3 H 0.9218 0.1219 0.1299
C4 C 0.8422(5) 0.1200(5) 0.1157(4)
H4 H 0.8391 0.1518 0.1067
C5 C 0.7974(4) 0.0907(4) 0.1156(4)
C6 C 0.7440(4) 0.1073(4) 0.1007(3)
N2 N 0.7112(3) 0.0729(3) 0.0852(3)
C7 C 0.6620(4) 0.0860(4) 0.0735(3)
C8 C 0.6438(4) 0.1326(4) 0.0754(4)
H5 H 0.6086 0.1404 0.0664
C9 C 0.6781(5) 0.1668(4) 0.0905(4)
C10 C 0.7298(4) 0.1534(4) 0.1025(4)
H6 H 0.7549 0.1763 0.1117
C11 C 0.6269(4) 0.0481(4) 0.0577(4)
N3 N 0.6512(3) 0.0092(3) 0.0412(3)
C12 C 0.6205(5) -0.0269(5) 0.0291(4)
H7 H 0.6373 -0.0539 0.0175
C13 C 0.5647(6) -0.0268(5) 0.0326(5)
H8 H 0.5442 -0.0532 0.0237
C14 C 0.5406(5) 0.0128(5) 0.0493(4)
H9 H 0.5029 0.0142 0.0519
C15 C 0.5717(5) 0.0508(4) 0.0622(4)
H10 H 0.5555 0.0782 0.0739
C16 C 0.5928(5) 0.2278(5) 0.0781(5)
H11 H 0.5780 0.2589 0.0842
H12 H 0.5726 0.2040 0.0941
H13 H 0.5903 0.2215 0.0469
S2 S 0.79206(15) 0.23746(12) 0.00851(14)
N4 N 0.8308(4) 0.0189(3) 0.0233(3)
C17 C 0.8671(5) -0.0152(5) 0.0332(4)
H14 H 0.8544 -0.0449 0.0425
C18 C 0.9205(5) -0.0084(5) 0.0302(4)
H15 H 0.9443 -0.0331 0.0375
C19 C 0.9399(5) 0.0333(5) 0.0171(4)
H16 H 0.9773 0.0379 0.0144
C20 C 0.9051(5) 0.0691(5) 0.0075(4)
H17 H 0.9180 0.0992 -0.0005
C21 C 0.8498(5) 0.0602(4) 0.0099(3)
C22 C 0.8111(4) 0.0978(4) -0.0007(4)
N5 N 0.7632(3) 0.0830(3) -0.0165(3)
C23 C 0.7256(4) 0.1162(4) -0.0252(4)
C24 C 0.7330(5) 0.1632(4) -0.0176(4)
H18 H 0.7053 0.1852 -0.0230
C25 C 0.7830(5) 0.1778(4) -0.0016(4)
C26 C 0.8227(5) 0.1441(4) 0.0070(4)
H19 H 0.8567 0.1532 0.0178
C27 C 0.6741(4) 0.0974(4) -0.0433(4)
N6 N 0.6764(3) 0.0559(3) -0.0648(3)
C28 C 0.6315(5) 0.0400(4) -0.0804(4)
H20 H 0.6326 0.0108 -0.0952
C29 C 0.5831(5) 0.0618(5) -0.0773(5)
H21 H 0.5521 0.0485 -0.0901
C30 C 0.5808(5) 0.1024(5) -0.0557(4)
H22 H 0.5476 0.1180 -0.0524
C31 C 0.6267(4) 0.1218(4) -0.0381(4)
H23 H 0.6256 0.1509 -0.0230
C32 C 0.8600(5) 0.2405(4) 0.0245(5)
H24 H 0.8685 0.2727 0.0334
H25 H 0.8828 0.2316 0.0000
H26 H 0.8661 0.2191 0.0488
S3 S 0.91967(17) 0.19423(13) -0.08963(15)
N7 N 0.8414(4) -0.0141(3) -0.0818(3)
C33 C 0.8541(5) -0.0578(4) -0.0725(4)
H27 H 0.8269 -0.0782 -0.0623
C34 C 0.9054(5) -0.0753(4) -0.0770(4)
H28 H 0.9132 -0.1071 -0.0702
C35 C 0.9450(5) -0.0454(5) -0.0917(4)
H29 H 0.9804 -0.0565 -0.0959
C36 C 0.9324(4) 0.0008(5) -0.1001(4)
H30 H 0.9592 0.0223 -0.1090
C37 C 0.8796(4) 0.0156(4) -0.0953(4)
C38 C 0.8626(4) 0.0651(4) -0.1047(4)
N8 N 0.8124(3) 0.0700(3) -0.1206(3)
C39 C 0.7947(4) 0.1141(4) -0.1270(3)
C40 C 0.8261(5) 0.1533(4) -0.1183(4)
H31 H 0.8121 0.1838 -0.1229
C41 C 0.8775(5) 0.1478(4) -0.1030(4)
C42 C 0.8966(5) 0.1030(4) -0.0965(4)
H32 H 0.9321 0.0980 -0.0868
C43 C 0.7392(5) 0.1193(4) -0.1441(4)
N9 N 0.7190(4) 0.0834(3) -0.1666(3)
C44 C 0.6684(5) 0.0869(5) -0.1793(4)
H33 H 0.6540 0.0616 -0.1956
C45 C 0.6356(5) 0.1236(5) -0.1710(5)
H34 H 0.5998 0.1240 -0.1810
C46 C 0.6562(6) 0.1600(5) -0.1475(5)
H35 H 0.6350 0.1868 -0.1413
C47 C 0.7089(5) 0.1574(4) -0.1327(4)
H36 H 0.7234 0.1816 -0.1151
C48 C 0.8783(6) 0.2444(5) -0.0975(6)
H37 H 0.8969 0.2724 -0.0872
H38 H 0.8450 0.2404 -0.0812
H39 H 0.8701 0.2478 -0.1284
S4 S 0.51626(15) 0.11970(15) 0.30512(14)
N10 N 0.6645(4) -0.0503(4) 0.2587(3)
C49 C 0.6645(6) -0.0949(5) 0.2485(4)
H40 H 0.6943 -0.1067 0.2329
C50 C 0.6239(8) -0.1259(5) 0.2590(5)
H41 H 0.6264 -0.1581 0.2514
C51 C 0.5810(7) -0.1095(6) 0.2802(5)
H42 H 0.5528 -0.1302 0.2879
C52 C 0.5778(6) -0.0622(6) 0.2909(4)
H43 H 0.5472 -0.0499 0.3051
C53 C 0.6206(6) -0.0337(5) 0.2802(4)
C54 C 0.6212(5) 0.0170(5) 0.2927(4)
N11 N 0.6686(4) 0.0338(3) 0.3061(3)
C55 C 0.6709(5) 0.0785(4) 0.3195(4)
C56 C 0.6265(5) 0.1076(4) 0.3178(4)
H44 H 0.6299 0.1397 0.3253
C57 C 0.5773(5) 0.0902(5) 0.3052(4)
C58 C 0.5755(5) 0.0437(5) 0.2907(4)
H45 H 0.5433 0.0308 0.2796
C59 C 0.7239(5) 0.0950(4) 0.3338(4)
N12 N 0.7621(4) 0.0627(3) 0.3409(3)
C60 C 0.8103(5) 0.0765(5) 0.3524(4)
H46 H 0.8368 0.0533 0.3571
C61 C 0.8242(6) 0.1237(5) 0.3581(4)
H47 H 0.8595 0.1323 0.3661
C62 C 0.7862(6) 0.1566(5) 0.3519(5)
H48 H 0.7936 0.1888 0.3570
C63 C 0.7362(6) 0.1423(5) 0.3379(5)
H49 H 0.7099 0.1652 0.3311
C64 C 0.5342(6) 0.1714(6) 0.3273(6)
H50 H 0.5027 0.1916 0.3298
H51 H 0.5609 0.1866 0.3088
H52 H 0.5493 0.1659 0.3561
S5 S 0.53550(15) 0.16355(13) 0.18299(14)
N13 N 0.7601(4) 0.0751(3) 0.2280(3)
C65 C 0.8103(5) 0.0861(5) 0.2399(4)
H53 H 0.8324 0.0617 0.2508
C66 C 0.8313(5) 0.1298(5) 0.2372(4)
H54 H 0.8675 0.1354 0.2448
C67 C 0.7988(6) 0.1662(5) 0.2232(4)
H55 H 0.8117 0.1976 0.2222
C68 C 0.7481(5) 0.1559(4) 0.2109(4)
H56 H 0.7257 0.1800 0.1999
C69 C 0.7289(5) 0.1103(4) 0.2142(3)
C70 C 0.6740(4) 0.0976(4) 0.2004(4)
N14 N 0.6656(4) 0.0531(3) 0.1889(3)
C71 C 0.6159(5) 0.0403(4) 0.1763(4)
C72 C 0.5735(5) 0.0720(4) 0.1742(4)
H57 H 0.5445 0.0598 0.1928
C73 C 0.5832(5) 0.1193(4) 0.1862(4)
C74 C 0.6349(5) 0.1311(4) 0.1996(4)
H58 H 0.6428 0.1624 0.2080
C75 C 0.6081(4) -0.0098(4) 0.1642(4)
N15 N 0.6489(4) -0.0331(3) 0.1465(3)
C76 C 0.6423(5) -0.0777(4) 0.1355(4)
H59 H 0.6713 -0.0938 0.1224
C77 C 0.5952(5) -0.1017(5) 0.1420(5)
H60 H 0.5916 -0.1337 0.1338
C78 C 0.5538(5) -0.0778(5) 0.1609(5)
H61 H 0.5209 -0.0933 0.1665
C79 C 0.5603(5) -0.0307(5) 0.1716(5)
H62 H 0.5316 -0.0135 0.1840
C80 C 0.4752(5) 0.1331(5) 0.1699(6)
H63 H 0.4456 0.1554 0.1685
H64 H 0.4679 0.1095 0.1922
H65 H 0.4792 0.1175 0.1417
N16 N 0.7567(5) -0.0753(4) 0.0713(5)
C81 C 0.7744(6) -0.1100(5) 0.0724(5)
C82 C 0.7955(7) -0.1585(5) 0.0738(6)
H66 H 0.8090 -0.1672 0.0450
H67 H 0.7669 -0.1801 0.0822
H68 H 0.8246 -0.1604 0.0950
N17 N 0.7236(5) -0.0625(4) -0.0431(4)
C83 C 0.7144(5) -0.1003(5) -0.0356(4)
C84 C 0.6988(6) -0.1477(4) -0.0261(5)
H69 H 0.6843 -0.1492 0.0034
H70 H 0.7299 -0.1683 -0.0284
H71 H 0.6714 -0.1577 -0.0468
N18 N 0.7842(5) -0.0590(4) 0.2082(4)
C85 C 0.8205(6) -0.0813(5) 0.2088(5)
C86 C 0.8687(7) -0.1102(6) 0.2114(5)
H72 H 0.8662 -0.1311 0.2366
H73 H 0.9000 -0.0898 0.2145
H74 H 0.8721 -0.1289 0.1849
Ag4A Ag 0.76182(4) 0.01434(3) -0.16710(3)
Ag3A Ag 0.74357(3) -0.01418(3) 0.43471(3)
N8A N 0.6876(3) -0.0700(3) 0.3794(3)
N9A N 0.7810(4) -0.0834(3) 0.3334(3)
Cl1 Cl 0.16428(15) 0.21747(12) 0.07203(13)
O1 O 0.1291(5) 0.2055(5) 0.1056(4)
O2 O 0.1412(4) 0.2534(4) 0.0468(4)
O3 O 0.2143(4) 0.2323(3) 0.0889(3)
O4 O 0.1722(5) 0.1759(4) 0.0469(5)
Cl2 Cl 0.55366(13) 0.38957(12) 0.10989(13)
O5 O 0.5195(4) 0.4032(4) 0.1438(3)
O6 O 0.6008(4) 0.4165(4) 0.1097(3)
O7 O 0.5253(4) 0.3944(3) 0.0691(3)
O8 O 0.5679(5) 0.3415(4) 0.1165(4)
Cl3 Cl 0.8399(3) 0.2733(2) 0.14010(18)
O9 O 0.7964(5) 0.2452(4) 0.1354(5)
O10 O 0.8395(7) 0.2943(5) 0.1815(5)
O11 O 0.8344(9) 0.3090(5) 0.1066(5)
O12 O 0.8873(7) 0.2476(12) 0.1326(7)
Cl4 Cl 0.96291(17) 0.34611(16) -0.02979(17)
O13 O 0.9576(7) 0.2973(6) -0.0323(5)
O14 O 0.9398(6) 0.3560(5) 0.0110(5)
O15 O 1.0146(5) 0.3559(5) -0.0287(5)
O16 O 0.9358(8) 0.3680(10) -0.0596(6)
Cl5 Cl 0.56996(17) -0.0029(2) -0.2247(2)
O17 O 0.5489(6) 0.0429(6) -0.2209(7)
O18 O 0.5739(7) -0.0121(6) -0.1797(6)
O19 O 0.6203(5) 0.0020(5) -0.2399(9)
O20 O 0.5404(7) -0.0351(7) -0.2399(6)
N19 N 0.9783(6) 0.1526(5) 0.0559(5)
C87 C 1.0019(7) 0.1722(5) 0.0301(6)
C88 C 1.0317(6) 0.1977(5) -0.0025(5)
H75 H 1.0138 0.2275 -0.0086
H76 H 1.0335 0.1790 -0.0291
H77 H 1.0678 0.2038 0.0082
C89 C 0.6302(5) 0.2529(5) 0.2456(9)
C90 C 0.6580(10) 0.2482(4) 0.2844(6)
C91 C 0.7118(10) 0.2598(5) 0.2863(5)
C92 C 0.7379(5) 0.2760(6) 0.2494(9)
C93 C 0.7101(10) 0.2806(5) 0.2106(6)
C94 C 0.6563(10) 0.2691(5) 0.2087(5)
N20 N 0.5184(8) 0.1804(8) -0.1608(12)
C95 C 0.5113(7) 0.2007(7) -0.1293(12)
C96 C 0.5004(8) 0.2243(8) -0.0857(7)
H78 H 0.4763 0.2510 -0.0900
H79 H 0.5341 0.2355 -0.0733
H80 H 0.4839 0.2017 -0.0659
N21 N 0.9094(11) 0.2588(8) -0.2192(9)
C97 C 0.9311(16) 0.2547(14) -0.2479(15)
C98 C 0.9557(17) 0.2332(16) -0.2662(14)
H81? H 0.9401 -0.0720 -0.3560
H82? H 0.8202 0.0191 -0.3577
N22? N 0.8728(14) 0.2587(12) -0.2081(11)
N23? N 0.970(2) 0.231(2) -0.2045(18)
C99? C 1.010(2) 0.2085(18) -0.2037(18)
C100? C 1.003(2) 0.203(2) -0.243(2)
loop_
_geom_bond_atom_site_label_1
_geom_bond_atom_site_label_2
_geom_bond_site_symmetry_1
_geom_bond_site_symmetry_2
Ag1 Ag2 1_555 1_555
Ag2 Ag3 1_555 1_555
Ag3 N5 1_555 1_555
Ag4 Ag5 1_555 1_555
Ag5 Ag1 1_555 1_555
S1 C9 1_555 1_555
N1 Ag1 1_555 1_555
C1 N1 1_555 1_555
H1 C1 1_555 1_555
C2 C1 1_555 1_555
H2 C2 1_555 1_555
C3 C2 1_555 1_555
H3 C3 1_555 1_555
C4 C3 1_555 1_555
H4 C4 1_555 1_555
C5 N1 1_555 1_555
C6 C5 1_555 1_555
N2 Ag1 1_555 1_555
C7 N2 1_555 1_555
C8 C7 1_555 1_555
H5 C8 1_555 1_555
C9 C8 1_555 1_555
C10 C6 1_555 1_555
H6 C10 1_555 1_555
C11 C7 1_555 1_555
N3 Ag2 1_555 1_555
C12 N3 1_555 1_555
H7 C12 1_555 1_555
C13 C12 1_555 1_555
H8 C13 1_555 1_555
C14 C13 1_555 1_555
H9 C14 1_555 1_555
C15 C11 1_555 1_555
H10 C15 1_555 1_555
C16 S1 1_555 1_555
H11 C16 1_555 1_555
H12 C16 1_555 1_555
H13 C16 1_555 1_555
S2 C25 1_555 1_555
N4 Ag2 1_555 1_555
C17 N4 1_555 1_555
H14 C17 1_555 1_555
C18 C17 1_555 1_555
H15 C18 1_555 1_555
C19 C18 1_555 1_555
H16 C19 1_555 1_555
C20 C19 1_555 1_555
H17 C20 1_555 1_555
C21 N4 1_555 1_555
C22 C21 1_555 1_555
N5 Ag2 1_555 1_555
C23 N5 1_555 1_555
C24 C23 1_555 1_555
H18 C24 1_555 1_555
C25 C24 1_555 1_555
C26 C22 1_555 1_555
H19 C26 1_555 1_555
C27 C23 1_555 1_555
N6 Ag3 1_555 1_555
C28 N6 1_555 1_555
H20 C28 1_555 1_555
C29 C28 1_555 1_555
H21 C29 1_555 1_555
C30 C29 1_555 1_555
H22 C30 1_555 1_555
C31 C27 1_555 1_555
H23 C31 1_555 1_555
C32 S2 1_555 1_555
H24 C32 1_555 1_555
H25 C32 1_555 1_555
H26 C32 1_555 1_555
S3 C41 1_555 1_555
N7 Ag3 1_555 1_555
C33 N7 1_555 1_555
H27 C33 1_555 1_555
C34 C33 1_555 1_555
H28 C34 1_555 1_555
C35 C34 1_555 1_555
H29 C35 1_555 1_555
C36 C35 1_555 1_555
H30 C36 1_555 1_555
C37 N7 1_555 1_555
C38 C37 1_555 1_555
N8 Ag3 1_555 1_555
C39 N8 1_555 1_555
C40 C39 1_555 1_555
H31 C40 1_555 1_555
C41 C40 1_555 1_555
C42 C38 1_555 1_555
H32 C42 1_555 1_555
C43 C39 1_555 1_555
N9 C43 1_555 1_555
C44 N9 1_555 1_555
H33 C44 1_555 1_555
C45 C44 1_555 1_555
H34 C45 1_555 1_555
C46 C45 1_555 1_555
H35 C46 1_555 1_555
C47 C43 1_555 1_555
H36 C47 1_555 1_555
C48 S3 1_555 1_555
H37 C48 1_555 1_555
H38 C48 1_555 1_555
H39 C48 1_555 1_555
S4 C57 1_555 1_555
N10 Ag5 1_555 1_555
C49 N10 1_555 1_555
H40 C49 1_555 1_555
C50 C49 1_555 1_555
H41 C50 1_555 1_555
C51 C50 1_555 1_555
H42 C51 1_555 1_555
C52 C51 1_555 1_555
H43 C52 1_555 1_555
C53 N10 1_555 1_555
C54 C53 1_555 1_555
N11 Ag4 1_555 1_555
C55 N11 1_555 1_555
C56 C55 1_555 1_555
H44 C56 1_555 1_555
C57 C56 1_555 1_555
C58 C54 1_555 1_555
H45 C58 1_555 1_555
C59 C55 1_555 1_555
N12 Ag4 1_555 1_555
C60 N12 1_555 1_555
H46 C60 1_555 1_555
C61 C60 1_555 1_555
H47 C61 1_555 1_555
C62 C61 1_555 1_555
H48 C62 1_555 1_555
C63 C59 1_555 1_555
H49 C63 1_555 1_555
C64 S4 1_555 1_555
H50 C64 1_555 1_555
H51 C64 1_555 1_555
H52 C64 1_555 1_555
S5 C73 1_555 1_555
N13 Ag5 1_555 1_555
C65 N13 1_555 1_555
H53 C65 1_555 1_555
C66 C65 1_555 1_555
H54 C66 1_555 1_555
C67 C66 1_555 1_555
H55 C67 1_555 1_555
C68 C67 1_555 1_555
H56 C68 1_555 1_555
C69 N13 1_555 1_555
C70 C69 1_555 1_555
N14 Ag1 1_555 1_555
C71 N14 1_555 1_555
C72 C71 1_555 1_555
H57 C72 1_555 1_555
C73 C72 1_555 1_555
C74 C70 1_555 1_555
H58 C74 1_555 1_555
C75 C71 1_555 1_555
N15 Ag1 1_555 1_555
C76 N15 1_555 1_555
H59 C76 1_555 1_555
C77 C76 1_555 1_555
H60 C77 1_555 1_555
C78 C77 1_555 1_555
H61 C78 1_555 1_555
C79 C75 1_555 1_555
H62 C79 1_555 1_555
C80 S5 1_555 1_555
H63 C80 1_555 1_555
H64 C80 1_555 1_555
H65 C80 1_555 1_555
N16 Ag2 1_555 1_555
C81 N16 1_555 1_555
C82 C81 1_555 1_555
H66 C82 1_555 1_555
H67 C82 1_555 1_555
H68 C82 1_555 1_555
N17 Ag3 1_555 1_555
C83 N17 1_555 1_555
C84 C83 1_555 1_555
H69 C84 1_555 1_555
H70 C84 1_555 1_555
H71 C84 1_555 1_555
N18 Ag5 1_555 1_555
C85 N18 1_555 1_555
C86 C85 1_555 1_555
H72 C86 1_555 1_555
H73 C86 1_555 1_555
H74 C86 1_555 1_555
Cl1 O1 1_555 1_555
O2 Cl1 1_555 1_555
O3 Cl1 1_555 1_555
O4 Cl1 1_555 1_555
Cl2 O5 1_555 1_555
O6 Cl2 1_555 1_555
O7 Cl2 1_555 1_555
O8 Cl2 1_555 1_555
Cl3 O9 1_555 1_555
O10 Cl3 1_555 1_555
O11 Cl3 1_555 1_555
O12 Cl3 1_555 1_555
Cl4 O13 1_555 1_555
O14 Cl4 1_555 1_555
O15 Cl4 1_555 1_555
O16 Cl4 1_555 1_555
Cl5 O17 1_555 1_555
O18 Cl5 1_555 1_555
O19 Cl5 1_555 1_555
O20 Cl5 1_555 1_555
N19 C87 1_555 1_555
C87 C88 1_555 1_555
C88 H75 1_555 1_555
H76 C88 1_555 1_555
H77 C88 1_555 1_555
C89 C90 1_555 1_555
C90 C91 1_555 1_555
C91 C92 1_555 1_555
C92 C93 1_555 1_555
C93 C94 1_555 1_555
C94 C89 1_555 1_555
N20 C95 1_555 1_555
C95 C96 1_555 1_555
C96 H78 1_555 1_555
H79 C96 1_555 1_555
H80 C96 1_555 1_555
N21 C97 1_555 1_555
C97 C98 1_555 1_555
Ag4A Ag3 1_555 1_555
Ag3A Ag4 1_555 1_555
N8A Ag4 1_555 1_555
N9A Ag4 1_555 1_555
Ag2 N2 1_555 1_555
Ag5 N14 1_555 1_555
C4 C5 1_555 1_555
C6 N2 1_555 1_555
C9 C10 1_555 1_555
C11 N3 1_555 1_555
C14 C15 1_555 1_555
C20 C21 1_555 1_555
C22 N5 1_555 1_555
C25 C26 1_555 1_555
C27 N6 1_555 1_555
C30 C31 1_555 1_555
C36 C37 1_555 1_555
C38 N8 1_555 1_555
N8 Ag4A 1_555 1_555
C41 C42 1_555 1_555
N9 Ag4A 1_555 1_555
C46 C47 1_555 1_555
C52 C53 1_555 1_555
C54 N11 1_555 1_555
C57 C58 1_555 1_555
C59 N12 1_555 1_555
C62 C63 1_555 1_555
C68 C69 1_555 1_555
C70 N14 1_555 1_555
C73 C74 1_555 1_555
C75 N15 1_555 1_555
C78 C79 1_555 1_555
Ag3A N8A 1_555 1_555

#END
