
#######################################################################
#
#                 Cambridge Crystallographic Data Centre
#                                CCDC 
#
#######################################################################
#
# If this CIF has been generated from an entry in the Cambridge 
# Structural Database, then it will include bibliographic, chemical, 
# crystal, experimental, refinement or atomic coordinate data resulting 
# from the CCDC's data processing and validation procedures.
#
#######################################################################

data_MOFDUI
_symmetry_cell_setting           monoclinic
_symmetry_space_group_name_H-M   'P 21/c'
_symmetry_Int_Tables_number      14
_space_group_name_Hall           '-P 2ybc'
loop_
_symmetry_equiv_pos_site_id
_symmetry_equiv_pos_as_xyz
1 x,y,z
2 -x,1/2+y,1/2-z
3 -x,-y,-z
4 x,1/2-y,1/2+z
_cell_length_a                   12.3254(8)
_cell_length_b                   7.9281(5)
_cell_length_c                   13.0742(8)
_cell_angle_alpha                90
_cell_angle_beta                 90.00
_cell_angle_gamma                90
_cell_volume                     1277.57
loop_
_atom_site_label
_atom_site_type_symbol
_atom_site_fract_x
_atom_site_fract_y
_atom_site_fract_z
C1 C 1.06124(19) 0.4114(3) 0.1072(2)
H1 H 1.0709 0.5268 0.0979
C2 C 1.15126(18) 0.3079(3) 0.11016(19)
H2 H 1.2206 0.3522 0.1020
C3 C 1.13601(17) 0.1370(3) 0.12557(18)
C4 C 1.03250(18) 0.0693(3) 0.13439(19)
H3 H 1.0229 -0.0462 0.1429
C5 C 0.94375(16) 0.1766(3) 0.13036(17)
C6 C 0.95730(18) 0.3487(3) 0.11776(19)
H4 H 0.8977 0.4205 0.1164
C7 C 0.81730(17) -0.0527(3) 0.14277(19)
H5 H 0.8621 -0.1054 0.1947
H6 H 0.8359 -0.1021 0.0772
C8 C 0.69892(16) -0.0858(3) 0.16584(15)
C9 C 1.21727(17) -0.1356(3) 0.13167(18)
H7 H 1.1804 -0.1732 0.0702
H8 H 1.1737 -0.1683 0.1902
C10 C 1.32707(15) -0.2178(3) 0.13834(14)
C11 C 0.44485(16) 0.2292(3) 0.06551(15)
H9 H 0.4303 0.1209 0.0418
H10 H 0.316(2) -0.2079(17) 0.3673(16)
H11 H 0.317(2) -0.107(3) 0.4516(8)
La1 La 0.477431(8) 0.065716(13) 0.315979(8)
O1 O 0.83840(12) 0.1232(2) 0.14040(15)
O2 O 0.63620(12) 0.03362(19) 0.18580(12)
O3 O 0.67516(12) -0.23864(19) 0.16386(13)
O4 O 1.22890(12) 0.04133(19) 0.12962(16)
O5 O 1.40646(11) -0.14408(17) 0.18043(10)
O6 O 1.33362(11) -0.36487(18) 0.10376(11)
O7 O 0.45153(11) 0.25310(17) 0.16046(10)
O8 O 0.32328(12) -0.1104(2) 0.38881(12)
O9 O 0.45675(13) 0.3435(2) 0.00267(12)
La1_2 La 1.477431(8) 0.065716(13) 0.315979(8)
La1A La 0.522569(8) -0.434284(13) 0.184021(8)
La1A_2 La 0.522569(8) 0.565716(13) 0.184021(8)
La1A_3 La 1.522569(8) -0.434284(13) 0.184021(8)
La1C La 0.477431(8) 0.434284(13) -0.184021(8)
O3A O 0.32484(12) 0.26136(19) 0.33614(13)
O5_2 O 0.40646(11) -0.14408(17) 0.18043(10)
O5A O 0.59354(11) 0.35592(17) 0.31957(10)
O6A O 0.66638(11) 0.13513(18) 0.39624(11)
O7A O 0.54847(11) -0.24690(17) 0.33954(10)
O9C O 0.45675(13) 0.1565(2) 0.50267(12)
loop_
_geom_bond_atom_site_label_1
_geom_bond_atom_site_label_2
_geom_bond_site_symmetry_1
_geom_bond_site_symmetry_2
C1 H1 1_555 1_555
C2 C1 1_555 1_555
H2 C2 1_555 1_555
C3 C2 1_555 1_555
C4 C3 1_555 1_555
H3 C4 1_555 1_555
C5 C4 1_555 1_555
C6 C1 1_555 1_555
H4 C6 1_555 1_555
C7 H5 1_555 1_555
H6 C7 1_555 1_555
C8 C7 1_555 1_555
C9 H7 1_555 1_555
H8 C9 1_555 1_555
C10 C9 1_555 1_555
C11 H9 1_555 1_555
H10 O8 1_555 1_555
H11 O8 1_555 1_555
La1 O2 1_555 1_555
O1 C5 1_555 1_555
O2 C8 1_555 1_555
O3 C8 1_555 1_555
O4 C3 1_555 1_555
O5 C10 1_555 1_555
O6 C10 1_555 1_555
O7 C11 1_555 1_555
O8 La1 1_555 1_555
O9 C11 1_555 1_555
La1_2 O5 1_555 1_555
La1A O3 1_555 1_555
La1A_2 O7 1_555 1_555
La1A_3 O5 1_555 1_555
La1C O9 1_555 1_555
O3A La1 1_555 1_555
O5_2 La1 1_555 1_555
O5A La1 1_555 1_555
O6A La1 1_555 1_555
O7A La1 1_555 1_555
O9C La1 1_555 1_555
C5 C6 1_555 1_555
C7 O1 1_555 1_555
C9 O4 1_555 1_555
La1 O7 1_555 1_555
O6 La1A_3 1_555 1_555
La1A O5_2 1_555 1_555
La1A O7A 1_555 1_555
La1A_2 O5A 1_555 1_555

#END
