
#######################################################################
#
#                 Cambridge Crystallographic Data Centre
#                                CCDC 
#
#######################################################################
#
# If this CIF has been generated from an entry in the Cambridge 
# Structural Database, then it will include bibliographic, chemical, 
# crystal, experimental, refinement or atomic coordinate data resulting 
# from the CCDC's data processing and validation procedures.
#
#######################################################################

data_MOFDIW
_symmetry_cell_setting           triclinic
_symmetry_space_group_name_H-M   'P -1'
_symmetry_Int_Tables_number      2
_space_group_name_Hall           '-P 1'
loop_
_symmetry_equiv_pos_site_id
_symmetry_equiv_pos_as_xyz
1 x,y,z
2 -x,-y,-z
_cell_length_a                   7.1628(4)
_cell_length_b                   7.9091(4)
_cell_length_c                   10.2589(4)
_cell_angle_alpha                91.372(4)
_cell_angle_beta                 101.829(4)
_cell_angle_gamma                102.587(5)
_cell_volume                     553.733
loop_
_atom_site_label
_atom_site_type_symbol
_atom_site_fract_x
_atom_site_fract_y
_atom_site_fract_z
Eu1 Eu 0.28511(3) 0.79400(2) 0.924828(16)
O1 O 0.0857(4) 0.9956(3) 0.8532(2)
O2 O -0.0951(3) 1.1652(3) 0.9191(2)
O3 O 0.7416(3) 0.4906(3) 0.9967(2)
O4 O 0.5111(4) 0.9426(3) 1.1203(2)
O5 O 0.5670(4) 0.6810(3) 0.9112(2)
O6 O -0.0309(4) 0.6116(3) 0.8071(2)
O7 O 0.6773(4) 0.6794(3) 1.5972(2)
N1 N 0.4988(4) 0.7145(4) 1.2492(3)
N2 N 0.7256(4) 1.1696(4) 1.3282(3)
C1 C -0.0037(5) 1.0472(4) 0.9344(3)
N3 N 0.5485(5) 0.6563(4) 1.3752(3)
H1 H 0.5125 0.5462 1.3813
C2 C 0.5881(5) 0.5504(4) 0.9731(3)
C3 C 0.5564(5) 0.8807(5) 1.2373(3)
C4 C 0.6678(5) 0.9997(5) 1.3505(3)
C5 C 0.8543(6) 1.2278(5) 1.5653(4)
H2 H 0.9134 1.3098 1.6366
C6 C 0.6465(5) 0.7510(5) 1.4893(3)
C7 C 0.8159(5) 1.2783(5) 1.4340(3)
H3 H 0.8562 1.3953 1.4204
C8 C 0.7095(5) 0.9366(5) 1.4769(3)
C9 C 0.8025(5) 1.0546(5) 1.5861(3)
H4 H 0.8291 1.0166 1.6716
H5 H -0.090(5) 0.560(4) 0.860(4)
H6 H -0.094(5) 0.661(5) 0.755(3)
O1A O -0.0857(4) 1.0044(3) 1.1468(2)
O2A O 0.0951(3) 0.8348(3) 1.0809(2)
C1A C 0.0037(5) 0.9528(4) 1.0656(3)
O3A O 0.2584(3) 0.5094(3) 1.0033(2)
O5A O 0.4330(4) 0.3190(3) 1.0888(2)
C2A C 0.4119(5) 0.4496(4) 1.0269(3)
Eu1A Eu -0.28511(3) 1.20600(2) 1.075172(16)
O4A O -0.5111(4) 1.0574(3) 0.8797(2)
O6A O 0.0309(4) 1.3884(3) 1.1929(2)
O7A O -0.6773(4) 1.3206(3) 0.4028(2)
N1A N -0.4988(4) 1.2855(4) 0.7508(3)
N2A N -0.7256(4) 0.8304(4) 0.6718(3)
N3A N -0.5485(5) 1.3437(4) 0.6248(3)
H1A H -0.5125 1.4538 0.6187
C3A C -0.5564(5) 1.1193(5) 0.7627(3)
C4A C -0.6678(5) 1.0003(5) 0.6495(3)
C5A C -0.8543(6) 0.7722(5) 0.4347(4)
H2A H -0.9134 0.6902 0.3634
C6A C -0.6465(5) 1.2490(5) 0.5107(3)
C7A C -0.8159(5) 0.7217(5) 0.5660(3)
H3A H -0.8562 0.6047 0.5796
C8A C -0.7095(5) 1.0634(5) 0.5231(3)
C9A C -0.8025(5) 0.9454(5) 0.4139(3)
H4A H -0.8291 0.9834 0.3284
H5A H 0.090(5) 1.440(4) 1.140(4)
H6A H 0.094(5) 1.339(5) 1.245(3)
Eu1_2 Eu -0.71489(3) 0.79400(2) 0.924828(16)
Eu1A_2 Eu 0.71489(3) 0.20600(2) 1.075172(16)
Eu1A_3 Eu 0.71489(3) 1.20600(2) 1.075172(16)
O3_2 O -0.2584(3) 1.4906(3) 0.9967(2)
O4_2 O -0.4889(4) 0.9426(3) 1.1203(2)
O4A_2 O 0.4889(4) 1.0574(3) 0.8797(2)
O5A_2 O -0.5670(4) 1.3190(3) 1.0888(2)
N2_2 N -0.2744(4) 1.1696(4) 1.3282(3)
N2A_2 N 0.2744(4) 0.8304(4) 0.6718(3)
loop_
_geom_bond_atom_site_label_1
_geom_bond_atom_site_label_2
_geom_bond_site_symmetry_1
_geom_bond_site_symmetry_2
Eu1 O1 1_555 1_555
O1 C1 1_555 1_555
O2 C1 1_555 1_555
O3 C2 1_555 1_555
O4 Eu1 1_555 1_555
O5 Eu1 1_555 1_555
O6 Eu1 1_555 1_555
O7 C6 1_555 1_555
N1 N3 1_555 1_555
N2 C4 1_555 1_555
C1 C1A 1_555 1_555
N3 H1 1_555 1_555
C2 O5 1_555 1_555
C3 O4 1_555 1_555
C4 C3 1_555 1_555
C5 H2 1_555 1_555
C6 N3 1_555 1_555
C7 N2 1_555 1_555
H3 C7 1_555 1_555
C8 C4 1_555 1_555
C9 C5 1_555 1_555
H4 C9 1_555 1_555
H5 O6 1_555 1_555
H6 O6 1_555 1_555
O1A C1A 1_555 1_555
O2A Eu1 1_555 1_555
C1A O2A 1_555 1_555
O3A Eu1 1_555 1_555
O5A C2A 1_555 1_555
C2A C2 1_555 1_555
Eu1A O2 1_555 1_555
O4A Eu1A 1_555 1_555
O6A Eu1A 1_555 1_555
O7A C6A 1_555 1_555
N1A N3A 1_555 1_555
N2A C4A 1_555 1_555
N3A H1A 1_555 1_555
C3A O4A 1_555 1_555
C4A C3A 1_555 1_555
C5A H2A 1_555 1_555
C6A N3A 1_555 1_555
C7A N2A 1_555 1_555
H3A C7A 1_555 1_555
C8A C4A 1_555 1_555
C9A C5A 1_555 1_555
H4A C9A 1_555 1_555
H5A O6A 1_555 1_555
H6A O6A 1_555 1_555
Eu1_2 O4A 1_555 1_555
Eu1A_2 O3 1_555 1_555
Eu1A_3 O4 1_555 1_555
O3_2 Eu1A 1_555 1_555
O4_2 Eu1A 1_555 1_555
O4A_2 Eu1 1_555 1_555
O5A_2 Eu1A 1_555 1_555
N2_2 Eu1A 1_555 1_555
N2A_2 Eu1 1_555 1_555
N1 C3 1_555 1_555
N2 Eu1A_3 1_555 1_555
C5 C7 1_555 1_555
C6 C8 1_555 1_555
C8 C9 1_555 1_555
O1A Eu1A 1_555 1_555
O3A C2A 1_555 1_555
O5A Eu1A_2 1_555 1_555
N1A C3A 1_555 1_555
N2A Eu1_2 1_555 1_555
C5A C7A 1_555 1_555
C6A C8A 1_555 1_555
C8A C9A 1_555 1_555
Eu1_2 O4_2 1_555 1_555
Eu1A_3 O4A_2 1_555 1_555

#END
