
#######################################################################
#
#                 Cambridge Crystallographic Data Centre
#                                CCDC 
#
#######################################################################
#
# If this CIF has been generated from an entry in the Cambridge 
# Structural Database, then it will include bibliographic, chemical, 
# crystal, experimental, refinement or atomic coordinate data resulting 
# from the CCDC's data processing and validation procedures.
#
#######################################################################

data_MOFDOC
_symmetry_cell_setting           triclinic
_symmetry_space_group_name_H-M   'P -1'
_symmetry_Int_Tables_number      2
_space_group_name_Hall           '-P 1'
loop_
_symmetry_equiv_pos_site_id
_symmetry_equiv_pos_as_xyz
1 x,y,z
2 -x,-y,-z
_cell_length_a                   7.1205(3)
_cell_length_b                   7.8366(5)
_cell_length_c                   10.2949(6)
_cell_angle_alpha                91.199(5)
_cell_angle_beta                 102.326(4)
_cell_angle_gamma                102.157(4)
_cell_volume                     547.326
loop_
_atom_site_label
_atom_site_type_symbol
_atom_site_fract_x
_atom_site_fract_y
_atom_site_fract_z
Tb1 Tb 0.28551(3) 0.29575(3) 0.42517(2)
O1 O 0.0860(5) 0.4977(5) 0.3539(4)
O2 O 0.7406(5) -0.0120(5) 0.4957(4)
O3 O 0.4873(5) 0.5577(5) 0.3813(3)
O4 O 0.5667(5) 0.1836(5) 0.4119(4)
O5 O 0.3225(5) 0.8194(6) -0.0984(4)
O6 O -0.0278(5) 0.1135(6) 0.3096(4)
N1 N 0.2733(6) 0.3284(6) 0.1752(4)
O7 O -0.0970(5) 0.6681(5) 0.4200(4)
N2 N 0.4500(6) 0.8437(7) 0.1244(4)
H1 H 0.4854 0.9545 0.1177
C1 C -0.0038(7) 0.5498(8) 0.4354(5)
C2 C 0.1974(7) 0.4409(9) -0.0844(5)
H2 H 0.1715 0.4776 -0.1705
N3 N 0.4994(6) 0.7870(7) 0.2506(4)
C3 C 0.3320(7) 0.4983(8) 0.1517(5)
C4 C 0.1837(8) 0.2164(8) 0.0694(5)
H3 H 0.1449 0.0986 0.0836
C5 C 0.4419(7) 0.6212(8) 0.2631(5)
C6 C 0.3535(7) 0.7483(8) 0.0106(5)
C7 C 0.2905(7) 0.5623(8) 0.0243(5)
C8 C 0.1451(8) 0.2670(8) -0.0617(5)
H4 H 0.0849 0.1840 -0.1323
C9 C 0.5871(7) 0.0507(8) 0.4724(5)
H5 H -0.094(4) 0.049(6) 0.356(3)
H6 H -0.102(4) 0.158(5) 0.251(4)
O1A O -0.0860(5) 0.5023(5) 0.6461(4)
O7A O 0.0970(5) 0.3319(5) 0.5800(4)
C1A C 0.0038(7) 0.4502(8) 0.5646(5)
O2A O 0.2594(5) 0.0120(5) 0.5043(4)
O4A O 0.4333(5) -0.1836(5) 0.5881(4)
C9A C 0.4129(7) -0.0507(8) 0.5276(5)
Tb1A Tb -0.28551(3) 0.70425(3) 0.57483(2)
O3A O -0.4873(5) 0.4423(5) 0.6187(3)
O5A O -0.3225(5) 0.1806(6) 1.0984(4)
O6A O 0.0278(5) 0.8865(6) 0.6904(4)
N1A N -0.2733(6) 0.6716(6) 0.8248(4)
N2A N -0.4500(6) 0.1563(7) 0.8756(4)
H1A H -0.4854 0.0455 0.8823
C2A C -0.1974(7) 0.5591(9) 1.0844(5)
H2A H -0.1715 0.5224 1.1705
N3A N -0.4994(6) 0.2130(7) 0.7494(4)
C3A C -0.3320(7) 0.5017(8) 0.8483(5)
C4A C -0.1837(8) 0.7836(8) 0.9306(5)
H3A H -0.1449 0.9014 0.9164
C5A C -0.4419(7) 0.3788(8) 0.7369(5)
C6A C -0.3535(7) 0.2517(8) 0.9894(5)
C7A C -0.2905(7) 0.4377(8) 0.9757(5)
C8A C -0.1451(8) 0.7330(8) 1.0617(5)
H4A H -0.0849 0.8160 1.1323
H5A H 0.094(4) 0.951(6) 0.644(3)
H6A H 0.102(4) 0.842(5) 0.749(4)
Tb1_2 Tb -0.71449(3) 0.29575(3) 0.42517(2)
Tb1A_2 Tb 0.71449(3) -0.29575(3) 0.57483(2)
Tb1A_3 Tb 0.71449(3) 0.70425(3) 0.57483(2)
O2_2 O -0.2594(5) 0.9880(5) 0.4957(4)
O3_2 O -0.5127(5) 0.5577(5) 0.3813(3)
O3A_2 O 0.5127(5) 0.4423(5) 0.6187(3)
O4A_2 O -0.5667(5) 0.8164(5) 0.5881(4)
loop_
_geom_bond_atom_site_label_1
_geom_bond_atom_site_label_2
_geom_bond_site_symmetry_1
_geom_bond_site_symmetry_2
Tb1 O1 1_555 1_555
O1 C1 1_555 1_555
O2 C9 1_555 1_555
O3 Tb1 1_555 1_555
O4 Tb1 1_555 1_555
O5 C6 1_555 1_555
O6 Tb1 1_555 1_555
N1 Tb1 1_555 1_555
O7 C1 1_555 1_555
N2 H1 1_555 1_555
C1 C1A 1_555 1_555
C2 H2 1_555 1_555
N3 N2 1_555 1_555
C3 N1 1_555 1_555
C4 N1 1_555 1_555
H3 C4 1_555 1_555
C5 O3 1_555 1_555
C6 N2 1_555 1_555
C7 C2 1_555 1_555
C8 C2 1_555 1_555
H4 C8 1_555 1_555
C9 O4 1_555 1_555
H5 O6 1_555 1_555
H6 O6 1_555 1_555
O1A C1A 1_555 1_555
O7A Tb1 1_555 1_555
C1A O7A 1_555 1_555
O2A Tb1 1_555 1_555
O4A C9A 1_555 1_555
C9A C9 1_555 1_555
Tb1A O7 1_555 1_555
O3A Tb1A 1_555 1_555
O5A C6A 1_555 1_555
O6A Tb1A 1_555 1_555
N1A Tb1A 1_555 1_555
N2A H1A 1_555 1_555
C2A H2A 1_555 1_555
N3A N2A 1_555 1_555
C3A N1A 1_555 1_555
C4A N1A 1_555 1_555
H3A C4A 1_555 1_555
C5A O3A 1_555 1_555
C6A N2A 1_555 1_555
C7A C2A 1_555 1_555
C8A C2A 1_555 1_555
H4A C8A 1_555 1_555
H5A O6A 1_555 1_555
H6A O6A 1_555 1_555
Tb1_2 O3A 1_555 1_555
Tb1A_2 O2 1_555 1_555
Tb1A_3 O3 1_555 1_555
O2_2 Tb1A 1_555 1_555
O3_2 Tb1A 1_555 1_555
O3A_2 Tb1 1_555 1_555
O4A_2 Tb1A 1_555 1_555
N3 C5 1_555 1_555
C3 C5 1_555 1_555
C3 C7 1_555 1_555
C4 C8 1_555 1_555
C6 C7 1_555 1_555
O1A Tb1A 1_555 1_555
O2A C9A 1_555 1_555
O4A Tb1A_2 1_555 1_555
N3A C5A 1_555 1_555
C3A C5A 1_555 1_555
C3A C7A 1_555 1_555
C4A C8A 1_555 1_555
C6A C7A 1_555 1_555
Tb1_2 O3_2 1_555 1_555
Tb1A_3 O3A_2 1_555 1_555

#END
