
#######################################################################
#
#                 Cambridge Crystallographic Data Centre
#                                CCDC 
#
#######################################################################
#
# If this CIF has been generated from an entry in the Cambridge 
# Structural Database, then it will include bibliographic, chemical, 
# crystal, experimental, refinement or atomic coordinate data resulting 
# from the CCDC's data processing and validation procedures.
#
#######################################################################

data_MOFFES
_symmetry_cell_setting           tetragonal
_symmetry_space_group_name_H-M   'P 41 21 2'
_symmetry_Int_Tables_number      92
_space_group_name_Hall           'P 4abw 2nw'
loop_
_symmetry_equiv_pos_site_id
_symmetry_equiv_pos_as_xyz
1 x,y,z
2 -x,-y,1/2+z
3 1/2-y,1/2+x,1/4+z
4 1/2+y,1/2-x,3/4+z
5 1/2-x,1/2+y,1/4-z
6 1/2+x,1/2-y,3/4-z
7 y,x,-z
8 -y,-x,1/2-z
_cell_length_a                   8.1320(10)
_cell_length_b                   8.1320(10)
_cell_length_c                   16.708(3)
_cell_angle_alpha                90
_cell_angle_beta                 90
_cell_angle_gamma                90
_cell_volume                     1104.89
loop_
_atom_site_label
_atom_site_type_symbol
_atom_site_fract_x
_atom_site_fract_y
_atom_site_fract_z
Fe1 Fe 0.29097(7) 0.29097(7) 0.0000
N1 N 0.4812(4) 0.4812(4) 0.0000
N2 N 1.0971(4) 1.0971(4) 0.0000
N3 N 0.4222(5) 0.1603(5) 0.0907(2)
N4 N 0.3799(4) 0.0430(5) 0.1263(2)
N5 N 0.3460(5) -0.0745(5) 0.1607(3)
C1 C 0.6417(5) 0.4439(5) -0.0008(4)
H1 H 0.664(4) 0.332(4) 0.003(2)
C2 C 0.7642(5) 0.5582(5) -0.0009(3)
H2 H 0.869(4) 0.520(4) 0.005(2)
C3 C 0.7235(5) 0.7235(5) 0.0000
C4 C 0.8535(5) 0.8535(5) 0.0000
C5 C 1.0036(6) 0.8290(5) -0.0375(3)
H3 H 1.045(5) 0.736(5) -0.057(2)
C6 C 1.1189(5) 0.9519(6) -0.0360(3)
H4 H 1.209(6) 0.934(6) -0.065(3)
C2F C 0.5582(5) 0.7642(5) 0.0009(3)
C1F C 0.4439(5) 0.6417(5) 0.0008(4)
H1F H 0.332(4) 0.664(4) -0.003(2)
H2F H 0.520(4) 0.869(4) -0.005(2)
C6F C 0.9519(6) 1.1189(5) 0.0360(3)
C5F C 0.8290(5) 1.0036(6) 0.0375(3)
H3F H 0.736(5) 1.045(5) 0.057(2)
H4F H 0.934(6) 1.209(6) 0.065(3)
N3F N 0.1603(5) 0.4222(5) -0.0907(2)
N4F N 0.0430(5) 0.3799(4) -0.1263(2)
N5F N -0.0745(5) 0.3460(5) -0.1607(3)
N2_2 N 0.0971(4) 0.0971(4) 0.0000
N5C N 0.4255(5) 0.1540(5) -0.0893(3)
N5D N 0.1540(5) 0.4255(5) 0.0893(3)
Fe1_2 Fe 1.29097(7) 1.29097(7) 0.0000
Fe1B Fe 0.20903(7) -0.20903(7) 0.2500
Fe1C Fe -0.20903(7) 0.20903(7) -0.2500
loop_
_geom_bond_atom_site_label_1
_geom_bond_atom_site_label_2
_geom_bond_site_symmetry_1
_geom_bond_site_symmetry_2
Fe1 N1 1_555 1_555
N1 C1 1_555 1_555
N2 C6 1_555 1_555
N3 Fe1 1_555 1_555
N4 N3 1_555 1_555
N5 N4 1_555 1_555
C1 H1 1_555 1_555
C2 C1 1_555 1_555
H2 C2 1_555 1_555
C3 C2 1_555 1_555
C4 C3 1_555 1_555
C5 C4 1_555 1_555
H3 C5 1_555 1_555
C6 C5 1_555 1_555
H4 C6 1_555 1_555
C2F C3 1_555 1_555
C1F N1 1_555 1_555
H1F C1F 1_555 1_555
H2F C2F 1_555 1_555
C6F N2 1_555 1_555
C5F C4 1_555 1_555
H3F C5F 1_555 1_555
H4F C6F 1_555 1_555
N3F Fe1 1_555 1_555
N4F N3F 1_555 1_555
N5F N4F 1_555 1_555
N2_2 Fe1 1_555 1_555
N5C Fe1 1_555 1_555
N5D Fe1 1_555 1_555
Fe1_2 N2 1_555 1_555
Fe1B N5 1_555 1_555
Fe1C N5F 1_555 1_555
C2F C1F 1_555 1_555
C6F C5F 1_555 1_555

#END
