
#######################################################################
#
#                 Cambridge Crystallographic Data Centre
#                                CCDC 
#
#######################################################################
#
# If this CIF has been generated from an entry in the Cambridge 
# Structural Database, then it will include bibliographic, chemical, 
# crystal, experimental, refinement or atomic coordinate data resulting 
# from the CCDC's data processing and validation procedures.
#
#######################################################################

data_MOFFIY
_symmetry_cell_setting           monoclinic
_symmetry_space_group_name_H-M   'P 21/c'
_symmetry_Int_Tables_number      14
_space_group_name_Hall           '-P 2ybc'
loop_
_symmetry_equiv_pos_site_id
_symmetry_equiv_pos_as_xyz
1 x,y,z
2 -x,1/2+y,1/2-z
3 -x,-y,-z
4 x,1/2-y,1/2+z
_cell_length_a                   12.2814(7)
_cell_length_b                   7.8064(5)
_cell_length_c                   13.0193(8)
_cell_angle_alpha                90
_cell_angle_beta                 90.9050(10)
_cell_angle_gamma                90
_cell_volume                     1248.05
loop_
_atom_site_label
_atom_site_type_symbol
_atom_site_fract_x
_atom_site_fract_y
_atom_site_fract_z
C1 C 1.0630(3) 0.4253(4) 0.8920(3)
H1 H 1.0728 0.5427 0.9000
C2 C 1.1533(3) 0.3198(4) 0.8911(3)
H2 H 1.2229 0.3649 0.8998
C3 C 1.1378(2) 0.1450(4) 0.8771(2)
C4 C 1.0340(2) 0.0763(4) 0.8674(3)
H3 H 1.0243 -0.0412 0.8595
C5 C 0.9445(2) 0.1861(4) 0.8696(2)
C6 C 0.9585(3) 0.3617(4) 0.8812(3)
H4 H 0.8988 0.4348 0.8816
C7 C 0.8176(2) -0.0471(3) 0.8568(3)
H5 H 0.8364 -0.0976 0.9228
H6 H 0.8625 -0.1002 0.8051
C8 C 0.6987(2) -0.0808(3) 0.8318(2)
C9 C 1.2203(2) -0.1302(4) 0.8696(3)
H7 H 1.1747 -0.1613 0.8110
H8 H 1.1854 -0.1710 0.9312
C10 C 1.3301(2) -0.2127(3) 0.8601(2)
C11 C 0.4481(2) 0.2330(4) 0.9378(2)
H9 H 0.4381 0.1185 0.9549
H10 H 0.324(3) -0.085(3) 0.5471(9)
H11 H 0.323(3) -0.1991(18) 0.627(2)
Nd1 Nd 0.476413(11) 0.077482(16) 0.689692(10)
O1 O 0.83860(17) 0.1317(3) 0.8598(2)
O2 O 0.67675(17) -0.2369(3) 0.82805(18)
O3 O 0.63385(16) 0.0407(3) 0.81688(17)
O4 O 1.23158(17) 0.0495(3) 0.8741(2)
O5 O 1.40879(15) -0.1349(2) 0.81791(15)
O6 O 1.33911(16) -0.3634(2) 0.89174(16)
O7 O 0.45519(15) 0.2707(2) 0.84372(14)
O8 O 0.32607(17) -0.0968(3) 0.61061(17)
O9 O 0.45347(19) 0.3372(3) 1.00793(17)
Nd1_2 Nd 1.476413(11) 0.077482(16) 0.689692(10)
Nd1A Nd 0.523587(11) -0.422518(16) 0.810308(10)
Nd1A_2 Nd 0.523587(11) 0.577482(16) 0.810308(10)
Nd1A_3 Nd 1.523587(11) -0.422518(16) 0.810308(10)
Nd1C Nd 0.476413(11) 0.422518(16) 1.189692(10)
O2A O 0.32325(17) 0.2631(3) 0.67195(18)
O5_2 O 0.40879(15) -0.1349(2) 0.81791(15)
O5A O 0.59121(15) 0.3651(2) 0.68209(15)
O6A O 0.66089(16) 0.1366(2) 0.60826(16)
O7A O 0.54481(15) -0.2293(2) 0.65628(14)
O9C O 0.45347(19) 0.1628(3) 0.50793(17)
loop_
_geom_bond_atom_site_label_1
_geom_bond_atom_site_label_2
_geom_bond_site_symmetry_1
_geom_bond_site_symmetry_2
C1 H1 1_555 1_555
C2 C1 1_555 1_555
H2 C2 1_555 1_555
C3 C2 1_555 1_555
C4 C3 1_555 1_555
H3 C4 1_555 1_555
C5 C4 1_555 1_555
C6 C1 1_555 1_555
H4 C6 1_555 1_555
C7 H5 1_555 1_555
H6 C7 1_555 1_555
C8 C7 1_555 1_555
C9 H7 1_555 1_555
H8 C9 1_555 1_555
C10 C9 1_555 1_555
C11 H9 1_555 1_555
H10 O8 1_555 1_555
H11 O8 1_555 1_555
Nd1 O3 1_555 1_555
O1 C5 1_555 1_555
O2 C8 1_555 1_555
O3 C8 1_555 1_555
O4 C3 1_555 1_555
O5 C10 1_555 1_555
O6 C10 1_555 1_555
O7 C11 1_555 1_555
O8 Nd1 1_555 1_555
O9 C11 1_555 1_555
Nd1_2 O5 1_555 1_555
Nd1A O2 1_555 1_555
Nd1A_2 O7 1_555 1_555
Nd1A_3 O5 1_555 1_555
Nd1C O9 1_555 1_555
O2A Nd1 1_555 1_555
O5_2 Nd1 1_555 1_555
O5A Nd1 1_555 1_555
O6A Nd1 1_555 1_555
O7A Nd1 1_555 1_555
O9C Nd1 1_555 1_555
C5 C6 1_555 1_555
C7 O1 1_555 1_555
C9 O4 1_555 1_555
Nd1 O7 1_555 1_555
O6 Nd1A_3 1_555 1_555
Nd1A O5_2 1_555 1_555
Nd1A O7A 1_555 1_555
Nd1A_2 O5A 1_555 1_555

#END
