
#######################################################################
#
#                 Cambridge Crystallographic Data Centre
#                                CCDC 
#
#######################################################################
#
# If this CIF has been generated from an entry in the Cambridge 
# Structural Database, then it will include bibliographic, chemical, 
# crystal, experimental, refinement or atomic coordinate data resulting 
# from the CCDC's data processing and validation procedures.
#
#######################################################################

data_MOFFEU
_symmetry_cell_setting           monoclinic
_symmetry_space_group_name_H-M   'P 21/c'
_symmetry_Int_Tables_number      14
_space_group_name_Hall           '-P 2ybc'
loop_
_symmetry_equiv_pos_site_id
_symmetry_equiv_pos_as_xyz
1 x,y,z
2 -x,1/2+y,1/2-z
3 -x,-y,-z
4 x,1/2-y,1/2+z
_cell_length_a                   12.312(5)
_cell_length_b                   7.845(3)
_cell_length_c                   13.049(5)
_cell_angle_alpha                90
_cell_angle_beta                 90.00
_cell_angle_gamma                90
_cell_volume                     1260.37
loop_
_atom_site_label
_atom_site_type_symbol
_atom_site_fract_x
_atom_site_fract_y
_atom_site_fract_z
C1 C 0.4370(3) 0.4216(3) 0.1074(3)
H1 H 0.4272 0.5383 0.0988
C2 C 0.3473(3) 0.3163(4) 0.1090(3)
H2 H 0.2778 0.3607 0.1007
C3 C 0.3629(2) 0.1426(4) 0.1235(2)
C4 C 0.4662(3) 0.0745(3) 0.1327(3)
H3 H 0.4757 -0.0424 0.1408
C5 C 0.5558(2) 0.1834(4) 0.1298(2)
C6 C 0.5418(3) 0.3579(4) 0.1182(3)
H4 H 0.6014 0.4308 0.1175
C7 C 0.6824(3) -0.0490(3) 0.1437(3)
H5 H 0.6644 -0.0995 0.0780
H6 H 0.6372 -0.1018 0.1956
C8 C 0.8012(3) -0.0821(3) 0.1679(2)
C9 C 0.2806(2) -0.1310(4) 0.1307(3)
H7 H 0.3248 -0.1621 0.1893
H8 H 0.3168 -0.1711 0.0692
C10 C 0.1710(2) -0.2137(3) 0.1395(2)
C11 C 1.0525(2) 0.2676(4) 0.5626(2)
H9 H 1.0633 0.3809 0.5441
H10 H 1.180(4) -0.093(4) 0.4524(9)
H11 H 1.183(3) -0.199(2) 0.370(2)
O1 O 0.66150(17) 0.1291(3) 0.1406(2)
O2 O 0.82340(18) -0.2381(3) 0.17002(19)
O3 O 0.86567(17) 0.0381(3) 0.18390(18)
O4 O 0.26943(18) 0.0469(3) 0.1265(2)
O5 O 0.09198(15) -0.1376(2) 0.18184(15)
O6 O 0.16236(16) -0.3637(2) 0.10749(15)
O7 O 1.04608(19) 0.1625(3) 0.49412(17)
O8 O 1.17437(18) -0.1004(3) 0.38957(17)
O9 O 1.04543(16) 0.2333(2) 0.65721(14)
Pr1 Pr 1.023537(11) 0.074689(16) 0.311674(10)
O2A O 1.17660(18) 0.2619(3) 0.32998(19)
O5_2 O 1.09198(15) -0.1376(2) 0.18184(15)
O5A O 0.90802(15) 0.3624(2) 0.31816(15)
O6A O 0.83764(16) 0.1363(2) 0.39251(15)
O9B O 0.95457(16) -0.2333(2) 0.34279(14)
O9C O 1.04543(16) 0.2667(2) 0.15721(14)
Pr1_2 Pr 0.023537(11) 0.074689(16) 0.311674(10)
Pr1A Pr -0.023537(11) -0.425311(16) 0.188326(10)
Pr1A_2 Pr 0.976463(11) -0.425311(16) 0.188326(10)
Pr1B Pr 0.976463(11) -0.074689(16) 0.688326(10)
Pr1C Pr 1.023537(11) 0.425311(16) 0.811674(10)
loop_
_geom_bond_atom_site_label_1
_geom_bond_atom_site_label_2
_geom_bond_site_symmetry_1
_geom_bond_site_symmetry_2
C1 H1 1_555 1_555
C2 C1 1_555 1_555
H2 C2 1_555 1_555
C3 C2 1_555 1_555
C4 C3 1_555 1_555
H3 C4 1_555 1_555
C5 C4 1_555 1_555
C6 C1 1_555 1_555
H4 C6 1_555 1_555
C7 H5 1_555 1_555
H6 C7 1_555 1_555
C8 C7 1_555 1_555
C9 H7 1_555 1_555
H8 C9 1_555 1_555
C10 C9 1_555 1_555
C11 H9 1_555 1_555
H10 O8 1_555 1_555
H11 O8 1_555 1_555
O1 C5 1_555 1_555
O2 C8 1_555 1_555
O3 C8 1_555 1_555
O4 C3 1_555 1_555
O5 C10 1_555 1_555
O6 C10 1_555 1_555
O7 C11 1_555 1_555
O8 Pr1 1_555 1_555
O9 C11 1_555 1_555
Pr1 O3 1_555 1_555
O2A Pr1 1_555 1_555
O5_2 Pr1 1_555 1_555
O5A Pr1 1_555 1_555
O6A Pr1 1_555 1_555
O9B Pr1 1_555 1_555
O9C Pr1 1_555 1_555
Pr1_2 O5 1_555 1_555
Pr1A O5 1_555 1_555
Pr1A_2 O2 1_555 1_555
Pr1B O9 1_555 1_555
Pr1C O9 1_555 1_555
C5 C6 1_555 1_555
C7 O1 1_555 1_555
C9 O4 1_555 1_555
O6 Pr1A 1_555 1_555
O7 Pr1 1_555 1_555
O5_2 Pr1A_2 1_555 1_555
O9B Pr1A_2 1_555 1_555

#END
