
#######################################################################
#
#                 Cambridge Crystallographic Data Centre
#                                CCDC 
#
#######################################################################
#
# If this CIF has been generated from an entry in the Cambridge 
# Structural Database, then it will include bibliographic, chemical, 
# crystal, experimental, refinement or atomic coordinate data resulting 
# from the CCDC's data processing and validation procedures.
#
#######################################################################

data_MOFFOE
_symmetry_cell_setting           monoclinic
_symmetry_space_group_name_H-M   'P 21/c'
_symmetry_Int_Tables_number      14
_space_group_name_Hall           '-P 2ybc'
loop_
_symmetry_equiv_pos_site_id
_symmetry_equiv_pos_as_xyz
1 x,y,z
2 -x,1/2+y,1/2-z
3 -x,-y,-z
4 x,1/2-y,1/2+z
_cell_length_a                   12.2745(6)
_cell_length_b                   7.8023(4)
_cell_length_c                   13.0090(7)
_cell_angle_alpha                90
_cell_angle_beta                 90.8530(10)
_cell_angle_gamma                90
_cell_volume                     1245.73
loop_
_atom_site_label
_atom_site_type_symbol
_atom_site_fract_x
_atom_site_fract_y
_atom_site_fract_z
C1 C 0.5630(3) 0.9252(4) 0.3920(3)
H1 H 0.5727 1.0426 0.4003
C2 C 0.4583(3) 0.8610(5) 0.3810(3)
H2 H 0.3985 0.9340 0.3814
C3 C 0.4445(3) 0.6862(4) 0.3696(3)
C4 C 0.5341(3) 0.5759(4) 0.3677(3)
H3 H 0.5243 0.4584 0.3603
C5 C 0.6379(3) 0.6450(4) 0.3770(3)
C6 C 0.6534(3) 0.8200(5) 0.3909(3)
H4 H 0.7231 0.8652 0.3993
C7 C 0.7203(3) 0.3700(4) 0.3694(3)
H5 H 0.6750 0.3390 0.3105
H6 H 0.6850 0.3291 0.4309
C8 C 0.8305(2) 0.2871(4) 0.3603(2)
C9 C 0.3177(3) 0.4529(4) 0.3567(3)
H7 H 0.3364 0.4024 0.4227
H8 H 0.3628 0.3997 0.3050
C10 C 0.1988(3) 0.4190(4) 0.3316(2)
C11 C 1.0518(3) 0.2673(4) 0.5622(3)
H9 H 1.0617 0.3820 0.5452
Eu1 Eu 1.023651(12) 0.077457(19) 0.310310(12)
O1 O 0.7315(2) 0.5495(3) 0.3741(2)
O2 O 0.90935(17) 0.3646(3) 0.31787(17)
O3 O 0.83931(18) 0.1365(3) 0.39193(18)
O4 O 0.33871(19) 0.6315(3) 0.3596(2)
O5 O 0.13414(19) 0.5408(3) 0.31667(19)
O6 O 0.1768(2) 0.2631(3) 0.3279(2)
O7 O 1.0466(2) 0.1632(4) 0.49186(19)
O8 O 1.17390(19) -0.0971(3) 0.38939(18)
H10 H 1.1710 -0.0888 0.4527
H11 H 1.1808 -0.1981 0.3718
O9 O 1.04472(18) 0.2295(3) 0.65617(16)
Eu1_2 Eu 0.023651(12) 0.077457(19) 0.310310(12)
Eu1A Eu -0.023651(12) 0.577457(19) 0.189690(12)
Eu1A_2 Eu 0.976349(12) 0.577457(19) 0.189690(12)
Eu1B Eu 0.976349(12) -0.077457(19) 0.689690(12)
Eu1C Eu 1.023651(12) 0.422543(19) 0.810310(12)
O2A O 1.09065(17) -0.1354(3) 0.18213(17)
O5A O 0.86586(19) 0.0408(3) 0.18333(19)
O6_2 O 1.1768(2) 0.2631(3) 0.3279(2)
O9B O 0.95528(18) -0.2295(3) 0.34383(16)
O9C O 1.04472(18) 0.2705(3) 0.15617(16)
loop_
_geom_bond_atom_site_label_1
_geom_bond_atom_site_label_2
_geom_bond_site_symmetry_1
_geom_bond_site_symmetry_2
C1 H1 1_555 1_555
C2 C1 1_555 1_555
H2 C2 1_555 1_555
C3 C2 1_555 1_555
C4 C3 1_555 1_555
H3 C4 1_555 1_555
C5 C4 1_555 1_555
C6 C1 1_555 1_555
H4 C6 1_555 1_555
C7 H5 1_555 1_555
H6 C7 1_555 1_555
C8 C7 1_555 1_555
C9 H7 1_555 1_555
H8 C9 1_555 1_555
C10 C9 1_555 1_555
C11 H9 1_555 1_555
Eu1 O2 1_555 1_555
O1 C5 1_555 1_555
O2 C8 1_555 1_555
O3 C8 1_555 1_555
O4 C3 1_555 1_555
O5 C10 1_555 1_555
O6 C10 1_555 1_555
O7 C11 1_555 1_555
O8 Eu1 1_555 1_555
H10 O8 1_555 1_555
H11 O8 1_555 1_555
O9 C11 1_555 1_555
Eu1_2 O6 1_555 1_555
Eu1A O5 1_555 1_555
Eu1A_2 O2 1_555 1_555
Eu1B O9 1_555 1_555
Eu1C O9 1_555 1_555
O2A Eu1 1_555 1_555
O5A Eu1 1_555 1_555
O6_2 Eu1 1_555 1_555
O9B Eu1 1_555 1_555
O9C Eu1 1_555 1_555
C5 C6 1_555 1_555
C7 O1 1_555 1_555
C9 O4 1_555 1_555
Eu1 O3 1_555 1_555
Eu1 O7 1_555 1_555
Eu1A_2 O9C 1_555 1_555

#END
