
#######################################################################
#
#                 Cambridge Crystallographic Data Centre
#                                CCDC 
#
#######################################################################
#
# If this CIF has been generated from an entry in the Cambridge 
# Structural Database, then it will include bibliographic, chemical, 
# crystal, experimental, refinement or atomic coordinate data resulting 
# from the CCDC's data processing and validation procedures.
#
#######################################################################

data_MOFHUM
_symmetry_cell_setting           monoclinic
_symmetry_space_group_name_H-M   'P 21/c'
_symmetry_Int_Tables_number      14
_space_group_name_Hall           '-P 2ybc'
loop_
_symmetry_equiv_pos_site_id
_symmetry_equiv_pos_as_xyz
1 x,y,z
2 -x,1/2+y,1/2-z
3 -x,-y,-z
4 x,1/2-y,1/2+z
_cell_length_a                   7.7742(4)
_cell_length_b                   9.7972(4)
_cell_length_c                   14.3897(6)
_cell_angle_alpha                90
_cell_angle_beta                 97.228(5)
_cell_angle_gamma                90
_cell_volume                     1087.29
loop_
_atom_site_label
_atom_site_type_symbol
_atom_site_fract_x
_atom_site_fract_y
_atom_site_fract_z
Zn1 Zn 0.19615(5) 0.39760(4) 0.22494(3)
Cl1 Cl 0.43551(13) 0.40851(10) 0.32770(7)
N1 N 0.2179(4) 0.4109(3) 0.0887(2)
C1 C 0.2446(4) 0.3026(4) 0.0371(3)
C2 C 0.2432(4) 0.5261(4) 0.0336(3)
N2 N 0.2863(4) 0.3396(4) -0.0473(2)
C3 C 0.2310(5) 0.6642(4) 0.0510(3)
H1 H 0.2010 0.6959 0.1077
C4 C 0.1282(5) 0.1227(3) 0.1383(3)
C5 C 0.2881(4) 0.4802(4) -0.0525(2)
N3 N 0.0126(4) 0.1397(3) 0.2658(2)
N4 N 0.1148(4) 0.2043(3) 0.2121(2)
C6 C 0.2327(5) 0.1552(4) 0.0617(3)
H2 H 0.1838 0.1061 0.0060
H3 H 0.3493 0.1208 0.0792
N5 N 0.0403(4) 0.0083(3) 0.1446(2)
C7 C 0.3092(5) 0.7056(4) -0.1036(3)
H4 H 0.3303 0.7687 -0.1491
C8 C 0.2649(5) 0.7529(4) -0.0182(3)
H5 H 0.2582 0.8463 -0.0081
C9 C 0.3226(5) 0.5693(4) -0.1222(3)
H6 H 0.3533 0.5382 -0.1790
N6 N -0.0290(4) 0.0225(3) 0.2254(2)
H7 H 0.318(5) 0.290(4) -0.081(3)
Zn1A Zn -0.19615(5) -0.10240(4) 0.27506(3)
N6A N 0.0290(4) 0.5225(3) 0.2746(2)
loop_
_geom_bond_atom_site_label_1
_geom_bond_atom_site_label_2
_geom_bond_site_symmetry_1
_geom_bond_site_symmetry_2
Zn1 Cl1 1_555 1_555
N1 Zn1 1_555 1_555
C1 N1 1_555 1_555
C2 N1 1_555 1_555
N2 C1 1_555 1_555
C3 C2 1_555 1_555
H1 C3 1_555 1_555
C4 N4 1_555 1_555
C5 C2 1_555 1_555
N3 N4 1_555 1_555
N4 Zn1 1_555 1_555
C6 C1 1_555 1_555
H2 C6 1_555 1_555
H3 C6 1_555 1_555
N5 C4 1_555 1_555
C7 H4 1_555 1_555
C8 C3 1_555 1_555
H5 C8 1_555 1_555
C9 C5 1_555 1_555
H6 C9 1_555 1_555
N6 N3 1_555 1_555
H7 N2 1_555 1_555
Zn1A N6 1_555 1_555
N6A Zn1 1_555 1_555
N2 C5 1_555 1_555
C4 C6 1_555 1_555
N5 N6 1_555 1_555
C7 C8 1_555 1_555
C7 C9 1_555 1_555

#END
