
#######################################################################
#
#                 Cambridge Crystallographic Data Centre
#                                CCDC 
#
#######################################################################
#
# If this CIF has been generated from an entry in the Cambridge 
# Structural Database, then it will include bibliographic, chemical, 
# crystal, experimental, refinement or atomic coordinate data resulting 
# from the CCDC's data processing and validation procedures.
#
#######################################################################

data_MOFJEW
_symmetry_cell_setting           monoclinic
_symmetry_space_group_name_H-M   'P n'
_symmetry_Int_Tables_number      7
_space_group_name_Hall           'P -2yac'
loop_
_symmetry_equiv_pos_site_id
_symmetry_equiv_pos_as_xyz
1 x,y,z
2 1/2+x,-y,1/2+z
_cell_length_a                   6.763(1)
_cell_length_b                   10.923(1)
_cell_length_c                   10.857(1)
_cell_angle_alpha                90
_cell_angle_beta                 91.925(1)
_cell_angle_gamma                90
_cell_volume                     801.578
loop_
_atom_site_label
_atom_site_type_symbol
_atom_site_fract_x
_atom_site_fract_y
_atom_site_fract_z
Cu1 Cu 0.33190 0.48900(3) 0.49870
O1 O 0.3416(7) 0.3116(2) 0.4881(4)
O2 O 0.1639(7) 0.3055(3) 0.3110(3)
O3 O -0.0843(6) 0.2269(3) 0.5229(4)
O4 O -0.2011(6) 0.0421(3) 0.5665(4)
O5 O 0.3309(7) -0.3337(2) 0.5200(3)
O6 O 0.1966(7) -0.3230(3) 0.3315(3)
O7 O 0.7189(6) -0.0602(3) 0.2643(3)
O8 O 0.6350(7) -0.2418(3) 0.3389(4)
O9 O 0.0661(9) 0.4749(4) 0.5685(6)
O10 O 0.5599(9) 0.5012(3) 0.3880(5)
O11 O 0.4935(12) 0.4868(3) 0.6809(5)
C1 C 0.2508(6) 0.1181(3) 0.4123(3)
C2 C 0.1022(6) 0.0524(3) 0.4698(3)
C3 C 0.1178(7) -0.0756(3) 0.4773(4)
C4 C 0.2764(6) -0.1372(3) 0.4287(3)
C5 C 0.4262(6) -0.0700(3) 0.3733(4)
C6 C 0.4125(6) 0.0574(3) 0.3645(4)
C7 C 0.2463(6) 0.2569(3) 0.4009(4)
C8 C -0.0684(7) 0.1163(4) 0.5217(4)
C9 C 0.2688(6) -0.2749(4) 0.4251(4)
C10 C 0.6027(7) -0.1334(4) 0.3237(4)
H1 H 0.01980 -0.11990 0.51570
H2 H -0.29190 0.08240 0.59410
H3 H 0.51140 0.10170 0.32710
H4 H 0.81300 -0.09920 0.23910
H5 H -0.02190 0.41620 0.56630
H6 H -0.03950 0.52010 0.56920
H7 H 0.58640 0.56590 0.35120
H8 H 0.59160 0.43200 0.35850
H9 H 0.56350 0.42410 0.72550
H10 H 0.56490 0.53920 0.62780
O5_2 O 0.3309(7) 0.6663(2) 0.5200(3)
Cu1_2 Cu 0.33190 -0.51100(3) 0.49870
O12 O 0.0176(5) 0.8265(3) 0.1659(3)
H11 H -0.05320 0.79220 0.11080
H12 H 0.06240 0.79760 0.23520
O13 O 0.8440(7) -0.3196(4) 0.5741(4)
H13 H 0.73710 -0.30520 0.52990
H14 H 0.78490 -0.32250 0.64330
O14 O 0.7020(7) 0.2962(4) 0.2768(3)
H15 H 0.72140 0.31240 0.18970
H16 H 0.79200 0.30420 0.33330
loop_
_geom_bond_atom_site_label_1
_geom_bond_atom_site_label_2
_geom_bond_site_symmetry_1
_geom_bond_site_symmetry_2
Cu1 O1 1_555 1_555
O1 C7 1_555 1_555
O2 C7 1_555 1_555
O3 C8 1_555 1_555
O4 C8 1_555 1_555
O5 C9 1_555 1_555
O6 C9 1_555 1_555
O7 C10 1_555 1_555
O8 C10 1_555 1_555
O9 Cu1 1_555 1_555
O10 Cu1 1_555 1_555
O11 Cu1 1_555 1_555
C1 C2 1_555 1_555
C2 C3 1_555 1_555
C3 C4 1_555 1_555
C4 C5 1_555 1_555
C5 C6 1_555 1_555
C6 C1 1_555 1_555
C7 C1 1_555 1_555
C8 C2 1_555 1_555
C9 C4 1_555 1_555
C10 C5 1_555 1_555
H1 C3 1_555 1_555
H2 O4 1_555 1_555
H3 C6 1_555 1_555
H4 O7 1_555 1_555
H5 O9 1_555 1_555
H6 O9 1_555 1_555
H7 O10 1_555 1_555
H8 O10 1_555 1_555
H9 O11 1_555 1_555
H10 O11 1_555 1_555
O12 H11 1_555 1_555
H12 O12 1_555 1_555
O13 H13 1_555 1_555
H14 O13 1_555 1_555
O14 H15 1_555 1_555
H16 O14 1_555 1_555
O5_2 Cu1 1_555 1_555
Cu1_2 O5 1_555 1_555

#END
