
#######################################################################
#
#                 Cambridge Crystallographic Data Centre
#                                CCDC 
#
#######################################################################
#
# If this CIF has been generated from an entry in the Cambridge 
# Structural Database, then it will include bibliographic, chemical, 
# crystal, experimental, refinement or atomic coordinate data resulting 
# from the CCDC's data processing and validation procedures.
#
#######################################################################

data_MOFJEW02
_symmetry_cell_setting           monoclinic
_symmetry_space_group_name_H-M   'P n'
_symmetry_Int_Tables_number      7
_space_group_name_Hall           'P -2yac'
loop_
_symmetry_equiv_pos_site_id
_symmetry_equiv_pos_as_xyz
1 x,y,z
2 1/2+x,-y,1/2+z
_cell_length_a                   6.7846(4)
_cell_length_b                   10.9535(6)
_cell_length_c                   10.6835(6)
_cell_angle_alpha                90
_cell_angle_beta                 91.810(2)
_cell_angle_gamma                90
_cell_volume                     793.549
loop_
_atom_site_label
_atom_site_type_symbol
_atom_site_fract_x
_atom_site_fract_y
_atom_site_fract_z
Cu1 Cu 0.76183(5) 0.48926(2) 0.30815(4)
C1 C 0.7077(3) 0.8636(2) 0.2370(2)
C2 C 0.8577(3) 0.9305(2) 0.1811(2)
C3 C 0.8430(3) 1.0573(2) 0.1714(2)
H1 H 0.9441 1.1021 0.1326
C4 C 0.6813(3) 1.1185(2) 0.2182(2)
C5 C 0.5331(3) 1.0519(2) 0.2758(2)
C6 C 0.5469(3) 0.9250(2) 0.2849(2)
H2 H 0.4460 0.8803 0.3241
C7 C 0.7007(3) 0.7255(2) 0.2335(2)
C8 C 1.0337(3) 0.8664(2) 0.1317(2)
C9 C 0.6762(3) 1.2560(2) 0.2060(2)
C10 C 0.3608(3) 1.1166(2) 0.3287(2)
O1 O 0.6303(3) 0.67768(16) 0.13688(19)
O2 O 0.7600(3) 0.66650(14) 0.33000(17)
O3 O 1.0644(3) 0.75791(17) 0.1466(2)
O4 O 1.1519(3) 0.93993(16) 0.07205(18)
H3 H 1.245(5) 0.909(3) 0.048(3)
O5 O 0.5948(3) 1.30471(17) 0.11443(18)
O6 O 0.7698(3) 1.31239(14) 0.2955(2)
O7 O 0.3445(3) 1.22747(16) 0.3277(2)
O8 O 0.2284(3) 1.04273(17) 0.37434(19)
H4 H 0.144(6) 1.075(4) 0.400(3)
O9 O 0.9171(5) 0.48837(18) 0.4943(3)
H5 H 0.952(7) 0.5544(16) 0.528(4)
H6 H 0.971(6) 0.4326(19) 0.537(3)
O10 O 0.9907(4) 0.50110(16) 0.1973(3)
H7 H 1.022(6) 0.4396(16) 0.155(3)
H8 H 1.001(6) 0.5609(16) 0.150(2)
O11 O 0.4933(3) 0.4750(2) 0.3754(3)
H9 H 0.406(4) 0.529(2) 0.375(4)
H10 H 0.436(5) 0.4098(17) 0.357(4)
Cu1_2 Cu 0.76183(5) 1.48926(2) 0.30815(4)
O6_2 O 0.7698(3) 0.31239(14) 0.2955(2)
O12 O 1.1268(3) 0.29584(18) 0.08627(18)
H11 H 1.163(4) 0.293(3) 0.0122(13)
H12 H 1.228(3) 0.291(3) 0.132(2)
O13 O 0.2803(3) 0.68048(18) 0.37682(19)
H13 H 0.192(4) 0.687(3) 0.320(2)
H14 H 0.227(4) 0.693(3) 0.4453(16)
O14 O 1.4483(3) 0.82649(15) -0.02735(17)
H15 H 1.503(4) 0.779(2) 0.022(2)
H16 H 1.401(4) 0.791(2) -0.0887(19)
loop_
_geom_bond_atom_site_label_1
_geom_bond_atom_site_label_2
_geom_bond_site_symmetry_1
_geom_bond_site_symmetry_2
Cu1 O2 1_555 1_555
C1 C2 1_555 1_555
C2 C3 1_555 1_555
C3 H1 1_555 1_555
C4 C3 1_555 1_555
C5 C4 1_555 1_555
C6 C1 1_555 1_555
H2 C6 1_555 1_555
C7 C1 1_555 1_555
C8 C2 1_555 1_555
C9 C4 1_555 1_555
C10 C5 1_555 1_555
O1 C7 1_555 1_555
O2 C7 1_555 1_555
O3 C8 1_555 1_555
O4 C8 1_555 1_555
H3 O4 1_555 1_555
O5 C9 1_555 1_555
O6 C9 1_555 1_555
O7 C10 1_555 1_555
O8 C10 1_555 1_555
H4 O8 1_555 1_555
O9 Cu1 1_555 1_555
H5 O9 1_555 1_555
H6 O9 1_555 1_555
O10 Cu1 1_555 1_555
H7 O10 1_555 1_555
H8 O10 1_555 1_555
O11 Cu1 1_555 1_555
H9 O11 1_555 1_555
H10 O11 1_555 1_555
O12 H11 1_555 1_555
H12 O12 1_555 1_555
O13 H13 1_555 1_555
H14 O13 1_555 1_555
O14 H15 1_555 1_555
H16 O14 1_555 1_555
Cu1_2 O6 1_555 1_555
O6_2 Cu1 1_555 1_555
C5 C6 1_555 1_555

#END
