
#######################################################################
#
#                 Cambridge Crystallographic Data Centre
#                                CCDC 
#
#######################################################################
#
# If this CIF has been generated from an entry in the Cambridge 
# Structural Database, then it will include bibliographic, chemical, 
# crystal, experimental, refinement or atomic coordinate data resulting 
# from the CCDC's data processing and validation procedures.
#
#######################################################################

data_MOFJEW01
_symmetry_cell_setting           monoclinic
_symmetry_space_group_name_H-M   'P n'
_symmetry_Int_Tables_number      7
_space_group_name_Hall           'P -2yac'
loop_
_symmetry_equiv_pos_site_id
_symmetry_equiv_pos_as_xyz
1 x,y,z
2 1/2+x,-y,1/2+z
_cell_length_a                   6.7636(10)
_cell_length_b                   10.9341(17)
_cell_length_c                   10.8572(16)
_cell_angle_alpha                90
_cell_angle_beta                 91.933(3)
_cell_angle_gamma                90
_cell_volume                     802.475
loop_
_atom_site_label
_atom_site_type_symbol
_atom_site_fract_x
_atom_site_fract_y
_atom_site_fract_z
Cu1 Cu 0.65586(7) 0.48910(3) 0.23261(6)
O1 O 0.6654(6) 0.3123(2) 0.2215(4)
O2 O 0.4899(5) 0.3053(3) 0.0444(3)
O3 O 0.2398(5) 0.2267(3) 0.2561(4)
O4 O 0.1235(5) 0.0426(3) 0.3006(3)
H1 H 0.0298 0.0839 0.3302
O5 O 0.5205(6) -0.3228(3) 0.0648(3)
O6 O 0.6559(6) -0.3338(2) 0.2526(3)
O7 O 0.9588(5) -0.2414(3) 0.0720(4)
O8 O 1.0433(4) -0.0606(3) -0.0023(3)
H2 H 1.1472 -0.0916 -0.0304
O9 O 0.8858(7) 0.5005(3) 0.1218(5)
H3 H 0.9017 0.5692 0.0865
H4 H 0.9029 0.4369 0.0783
O10 O 0.3888(7) 0.4746(4) 0.2974(5)
H5 H 0.3349 0.4064 0.2785
H6 H 0.3111 0.5356 0.3026
O11 O 0.8178(9) 0.4865(3) 0.4152(5)
H7 H 0.8573 0.5558 0.4425
H8 H 0.8422 0.4251 0.4615
C1 C 0.5706(5) 0.2563(3) 0.1340(4)
C2 C 0.5758(5) 0.1184(3) 0.1454(3)
C3 C 0.4272(5) 0.0513(3) 0.2025(4)
C4 C 0.2563(6) 0.1163(3) 0.2557(4)
C5 C 0.4411(6) -0.0754(3) 0.2096(4)
H9 H 0.3422 -0.1197 0.2470
C6 C 0.6011(5) -0.1368(3) 0.1616(4)
C7 C 0.5929(5) -0.2748(3) 0.1580(4)
C8 C 0.7499(5) -0.0698(3) 0.1069(4)
C9 C 0.9263(6) -0.1337(4) 0.0568(4)
C10 C 0.7364(6) 0.0570(3) 0.0981(4)
H10 H 0.8354 0.1009 0.0603
Cu1_2 Cu 0.65586(7) -0.51090(3) 0.23261(6)
O6_2 O 0.6559(6) 0.6662(2) 0.2526(3)
O12 O 0.8426(4) 0.1734(2) 0.3993(3)
H11 H 0.8914 0.2214 0.4536
H12 H 0.7857 0.2053 0.3363
O13 O 0.5266(5) 0.7033(3) 0.5101(3)
H13 H 0.5544 0.7147 0.4341
H14 H 0.6193 0.6555 0.5624
O14 O 0.1689(6) 0.6809(3) 0.3065(4)
H15 H 0.1303 0.6752 0.3801
H16 H 0.0811 0.7000 0.2517
loop_
_geom_bond_atom_site_label_1
_geom_bond_atom_site_label_2
_geom_bond_site_symmetry_1
_geom_bond_site_symmetry_2
Cu1 O1 1_555 1_555
O1 C1 1_555 1_555
O2 C1 1_555 1_555
O3 C4 1_555 1_555
O4 H1 1_555 1_555
O5 C7 1_555 1_555
O6 C7 1_555 1_555
O7 C9 1_555 1_555
O8 H2 1_555 1_555
O9 Cu1 1_555 1_555
H3 O9 1_555 1_555
H4 O9 1_555 1_555
O10 Cu1 1_555 1_555
H5 O10 1_555 1_555
H6 O10 1_555 1_555
O11 Cu1 1_555 1_555
H7 O11 1_555 1_555
H8 O11 1_555 1_555
C1 C2 1_555 1_555
C2 C3 1_555 1_555
C3 C4 1_555 1_555
C4 O4 1_555 1_555
C5 C3 1_555 1_555
H9 C5 1_555 1_555
C6 C5 1_555 1_555
C7 C6 1_555 1_555
C8 C6 1_555 1_555
C9 O8 1_555 1_555
C10 C2 1_555 1_555
H10 C10 1_555 1_555
O12 H11 1_555 1_555
H12 O12 1_555 1_555
O13 H13 1_555 1_555
H14 O13 1_555 1_555
O14 H15 1_555 1_555
H16 O14 1_555 1_555
Cu1_2 O6 1_555 1_555
O6_2 Cu1 1_555 1_555
C8 C9 1_555 1_555
C8 C10 1_555 1_555

#END
