
#######################################################################
#
#                 Cambridge Crystallographic Data Centre
#                                CCDC 
#
#######################################################################
#
# If this CIF has been generated from an entry in the Cambridge 
# Structural Database, then it will include bibliographic, chemical, 
# crystal, experimental, refinement or atomic coordinate data resulting 
# from the CCDC's data processing and validation procedures.
#
#######################################################################

data_MOFJAU
_symmetry_cell_setting           tetragonal
_symmetry_space_group_name_H-M   'P 43 2 2'
_symmetry_Int_Tables_number      95
_space_group_name_Hall           'P 4cw 2c'
loop_
_symmetry_equiv_pos_site_id
_symmetry_equiv_pos_as_xyz
1 x,y,z
2 -y,x,3/4+z
3 x,-y,1/2-z
4 -x,-y,1/2+z
5 -y,-x,3/4-z
6 y,x,1/4-z
7 y,-x,1/4+z
8 -x,y,-z
_cell_length_a                   10.8421(4)
_cell_length_b                   10.8421(4)
_cell_length_c                   16.6841(12)
_cell_angle_alpha                90
_cell_angle_beta                 90
_cell_angle_gamma                90
_cell_volume                     1961.23
loop_
_atom_site_label
_atom_site_type_symbol
_atom_site_fract_x
_atom_site_fract_y
_atom_site_fract_z
Zn1 Zn 0.42735(8) 0.57265(8) 0.3750
N1 N 0.2200(9) 0.5822(12) 0.3428(5)
N2 N 0.3759(9) 0.5366(10) 0.5702(7)
C1 C -0.0292(15) 0.8053(16) 0.2292(8)
H1 H -0.0886 0.8561 0.2062
N3 N 0.1976(9) 0.4452(12) 0.5751(6)
C2 C 0.1383(10) 0.4991(12) 0.3741(8)
N4 N 0.0220(10) 0.5316(11) 0.3557(6)
H2 H -0.0438 0.4936 0.3705
C3 C 0.1015(13) 0.8402(15) 0.2195(8)
H3 H 0.1244 0.9096 0.1903
C4 C 0.2384(11) 0.4433(12) 0.4997(8)
C5 C 0.0264(12) 0.6360(15) 0.3090(8)
C6 C 0.1844(12) 0.7686(14) 0.2541(8)
H4 H 0.2676 0.7876 0.2484
C7 C 0.1514(12) 0.6663(13) 0.2986(7)
C8 C -0.0689(15) 0.7021(15) 0.2701(7)
H5 H -0.1512 0.6780 0.2720
N5 N 0.2830(10) 0.5068(12) 0.6188(7)
N6 N 0.3519(9) 0.4990(11) 0.4963(6)
C9 C 0.1715(11) 0.4000(12) 0.4281(7)
H6 H 0.2226 0.3411 0.3997
H7 H 0.0970 0.3576 0.4450
N1D N 0.4178(12) 0.7800(9) 0.4072(5)
N2D N 0.4634(10) 0.6241(9) 0.1798(7)
C1D C 0.1947(16) 1.0292(15) 0.5208(8)
H1D H 0.1439 1.0886 0.5438
N3D N 0.5548(12) 0.8024(9) 0.1749(6)
C2D C 0.5009(12) 0.8617(10) 0.3759(8)
N4D N 0.4684(11) 0.9780(10) 0.3943(6)
H2D H 0.5064 1.0438 0.3795
C3D C 0.1598(15) 0.8985(13) 0.5305(8)
H3D H 0.0904 0.8756 0.5597
C4D C 0.5567(12) 0.7616(11) 0.2503(8)
C5D C 0.3640(15) 0.9736(12) 0.4410(8)
C6D C 0.2314(14) 0.8156(12) 0.4959(8)
H4D H 0.2124 0.7324 0.5016
C7D C 0.3337(13) 0.8486(12) 0.4514(7)
C8D C 0.2979(15) 1.0689(15) 0.4799(7)
H5D H 0.3220 1.1512 0.4780
N5D N 0.4932(12) 0.7170(10) 0.1312(7)
N6D N 0.5010(11) 0.6481(9) 0.2537(6)
C9D C 0.6000(12) 0.8285(11) 0.3219(7)
H6D H 0.6589 0.7774 0.3503
H7D H 0.6424 0.9030 0.3050
Zn1A Zn 0.42735(8) 0.42735(8) 0.1250
Zn1F Zn 0.57265(8) 0.57265(8) 0.6250
N2A N 0.4634(10) 0.3759(9) 0.3202(7)
N2G N 0.6241(9) 0.5366(10) 0.4298(7)
loop_
_geom_bond_atom_site_label_1
_geom_bond_atom_site_label_2
_geom_bond_site_symmetry_1
_geom_bond_site_symmetry_2
Zn1 N1 1_555 1_555
N1 C2 1_555 1_555
N2 N5 1_555 1_555
C1 H1 1_555 1_555
N3 C4 1_555 1_555
C2 N4 1_555 1_555
N4 H2 1_555 1_555
C3 C1 1_555 1_555
H3 C3 1_555 1_555
C4 N6 1_555 1_555
C5 N4 1_555 1_555
C6 C3 1_555 1_555
H4 C6 1_555 1_555
C7 N1 1_555 1_555
C8 C1 1_555 1_555
H5 C8 1_555 1_555
N5 N3 1_555 1_555
N6 Zn1 1_555 1_555
C9 C2 1_555 1_555
H6 C9 1_555 1_555
H7 C9 1_555 1_555
N1D Zn1 1_555 1_555
N2D N5D 1_555 1_555
C1D H1D 1_555 1_555
N3D C4D 1_555 1_555
C2D N1D 1_555 1_555
N4D C2D 1_555 1_555
H2D N4D 1_555 1_555
C3D C1D 1_555 1_555
H3D C3D 1_555 1_555
C4D N6D 1_555 1_555
C5D N4D 1_555 1_555
C6D C3D 1_555 1_555
H4D C6D 1_555 1_555
C7D N1D 1_555 1_555
C8D C1D 1_555 1_555
H5D C8D 1_555 1_555
N5D N3D 1_555 1_555
N6D Zn1 1_555 1_555
C9D C2D 1_555 1_555
H6D C9D 1_555 1_555
H7D C9D 1_555 1_555
Zn1A N2D 1_555 1_555
Zn1F N2 1_555 1_555
N2A Zn1 1_555 1_555
N2G Zn1 1_555 1_555
N2 N6 1_555 1_555
C4 C9 1_555 1_555
C5 C7 1_555 1_555
C5 C8 1_555 1_555
C6 C7 1_555 1_555
N2D N6D 1_555 1_555
C4D C9D 1_555 1_555
C5D C7D 1_555 1_555
C5D C8D 1_555 1_555
C6D C7D 1_555 1_555

#END
