
#######################################################################
#
#                 Cambridge Crystallographic Data Centre
#                                CCDC 
#
#######################################################################
#
# If this CIF has been generated from an entry in the Cambridge 
# Structural Database, then it will include bibliographic, chemical, 
# crystal, experimental, refinement or atomic coordinate data resulting 
# from the CCDC's data processing and validation procedures.
#
#######################################################################

data_MOFJEY
_symmetry_cell_setting           triclinic
_symmetry_space_group_name_H-M   'P -1'
_symmetry_Int_Tables_number      2
_space_group_name_Hall           '-P 1'
loop_
_symmetry_equiv_pos_site_id
_symmetry_equiv_pos_as_xyz
1 x,y,z
2 -x,-y,-z
_cell_length_a                   8.9434(5)
_cell_length_b                   9.5486(7)
_cell_length_c                   17.5772(8)
_cell_angle_alpha                75.014(5)
_cell_angle_beta                 83.778(5)
_cell_angle_gamma                68.304(6)
_cell_volume                     1347.13
loop_
_atom_site_label
_atom_site_type_symbol
_atom_site_fract_x
_atom_site_fract_y
_atom_site_fract_z
Cd1 Cd 1.04031(5) 0.17269(5) 0.00901(2)
Cd2 Cd 0.93821(5) 0.35218(5) 0.18505(2)
Cl1 Cl 0.78516(18) 0.34817(18) 0.06143(8)
Cl2 Cl 0.92620(19) 0.09771(18) -0.10052(8)
N1 N 0.7789(6) 0.2137(6) 0.2706(3)
N2 N 0.9867(6) 0.3110(6) 0.3200(3)
N3 N 0.9198(6) 0.2270(6) 0.4533(3)
N4 N 1.1290(6) 0.3321(6) 0.4193(3)
N5 N 1.1611(6) 0.4338(6) 0.2081(3)
N6 N 0.9656(6) 0.1924(6) 0.6090(3)
N7 N 0.7084(6) 0.9415(6) 0.0494(3)
O1 O 0.7398(5) 0.5861(5) 0.1878(2)
O2 O 0.8961(5) 0.6355(4) 0.0847(2)
O3 O 0.2368(5) 1.0607(5) 0.2358(2)
O4 O 0.1441(5) 1.2123(5) 0.1187(2)
C1 C 0.6780(7) 0.1628(7) 0.2451(3)
H1 H 0.6734 0.1735 0.1912
C2 C 0.5792(8) 0.0946(7) 0.2949(3)
H2 H 0.5100 0.0609 0.2748
C3 C 0.5860(8) 0.0781(7) 0.3750(4)
H3 H 0.5211 0.0332 0.4097
C4 C 0.6907(7) 0.1291(7) 0.4032(4)
H4 H 0.6962 0.1199 0.4569
C5 C 0.7878(7) 0.1945(7) 0.3498(3)
C6 C 0.9016(7) 0.2490(7) 0.3759(3)
C7 C 1.0323(7) 0.2732(7) 0.4720(3)
C8 C 1.1002(8) 0.3491(7) 0.3445(3)
C9 C 1.1984(7) 0.4171(7) 0.2828(3)
C10 C 1.3189(8) 0.4584(7) 0.3030(4)
H5 H 1.3379 0.4490 0.3554
C11 C 1.4111(8) 0.5146(8) 0.2422(4)
H6 H 1.4949 0.5414 0.2533
C12 C 1.3760(8) 0.5297(7) 0.1653(4)
H7 H 1.4361 0.5664 0.1238
C13 C 1.2500(8) 0.4896(7) 0.1508(4)
H8 H 1.2260 0.5019 0.0987
C14 C 1.0542(8) 0.2614(7) 0.5565(3)
C15 C 1.1616(8) 0.3161(7) 0.5782(3)
H9 H 1.2218 0.3613 0.5403
C16 C 1.1785(8) 0.3028(7) 0.6579(3)
H10 H 1.2505 0.3381 0.6744
C17 C 1.0854(7) 0.2356(7) 0.7118(3)
H11 H 1.0922 0.2269 0.7653
C18 C 0.9829(8) 0.1818(7) 0.6853(3)
H12 H 0.9222 0.1355 0.7223
C19 C 0.7736(7) 0.6771(7) 0.1284(3)
C20 C 0.6618(7) 0.8439(7) 0.1099(3)
C21 C 0.5190(7) 0.8933(7) 0.1500(3)
H13 H 0.4909 0.8254 0.1922
C22 C 0.4160(7) 1.0487(7) 0.1260(3)
C23 C 0.4660(7) 1.1485(7) 0.0658(3)
H14 H 0.4023 1.2528 0.0501
C24 C 0.6151(7) 1.0882(7) 0.0293(3)
H15 H 0.6496 1.1548 -0.0109
C25 C 0.2541(7) 1.1058(7) 0.1646(4)
Cd1_2 Cd 0.04031(5) 1.17269(5) 0.00901(2)
Cd1A Cd 0.95969(5) -0.17269(5) -0.00901(2)
Cd1A_2 Cd 0.95969(5) 0.82731(5) -0.00901(2)
Cd2_2 Cd -0.06179(5) 1.35218(5) 0.18505(2)
Cl2A Cl 1.07380(19) -0.09771(18) 0.10052(8)
N7A N 1.2916(6) 0.0585(6) -0.0494(3)
O2A O 1.1039(5) 0.3645(4) -0.0847(2)
O4_2 O 1.1441(5) 0.2123(5) 0.1187(2)
O5 O 0.7203(9) 0.0692(9) 0.5991(3)
H16 H 0.723(8) 0.025(7) 0.644(4)
H17 H 0.798(12) 0.113(12) 0.587(6)
O7 O 0.4952(13) 0.4000(14) 0.5828(6)
O7A O 0.5048(13) 0.6000(14) 0.4172(6)
O6? O 0.535(2) 0.468(3) 0.5310(9)
loop_
_geom_bond_atom_site_label_1
_geom_bond_atom_site_label_2
_geom_bond_site_symmetry_1
_geom_bond_site_symmetry_2
Cd1 Cl1 1_555 1_555
Cd2 Cl1 1_555 1_555
Cl2 Cd1 1_555 1_555
N1 Cd2 1_555 1_555
N2 Cd2 1_555 1_555
N3 C6 1_555 1_555
N4 C7 1_555 1_555
N5 Cd2 1_555 1_555
N6 C14 1_555 1_555
N7 C20 1_555 1_555
O1 Cd2 1_555 1_555
O2 Cd2 1_555 1_555
O3 C25 1_555 1_555
O4 C25 1_555 1_555
C1 N1 1_555 1_555
H1 C1 1_555 1_555
C2 C1 1_555 1_555
H2 C2 1_555 1_555
C3 C2 1_555 1_555
H3 C3 1_555 1_555
C4 C3 1_555 1_555
H4 C4 1_555 1_555
C5 N1 1_555 1_555
C6 N2 1_555 1_555
C7 N3 1_555 1_555
C8 N2 1_555 1_555
C9 N5 1_555 1_555
C10 C9 1_555 1_555
H5 C10 1_555 1_555
C11 C10 1_555 1_555
H6 C11 1_555 1_555
C12 C11 1_555 1_555
H7 C12 1_555 1_555
C13 N5 1_555 1_555
H8 C13 1_555 1_555
C14 C7 1_555 1_555
C15 C14 1_555 1_555
H9 C15 1_555 1_555
C16 C15 1_555 1_555
H10 C16 1_555 1_555
C17 C16 1_555 1_555
H11 C17 1_555 1_555
C18 N6 1_555 1_555
H12 C18 1_555 1_555
C19 O1 1_555 1_555
C20 C19 1_555 1_555
C21 C20 1_555 1_555
H13 C21 1_555 1_555
C22 C21 1_555 1_555
C23 C22 1_555 1_555
H14 C23 1_555 1_555
C24 N7 1_555 1_555
H15 C24 1_555 1_555
C25 C22 1_555 1_555
O5 H16 1_555 1_555
H17 O5 1_555 1_555
Cd1_2 O4 1_555 1_555
Cd1A Cl2 1_555 1_555
Cd1A_2 N7 1_555 1_555
Cd2_2 O4 1_555 1_555
Cl2A Cd1 1_555 1_555
N7A Cd1 1_555 1_555
O2A Cd1 1_555 1_555
O4_2 Cd1 1_555 1_555
Cd2 O4_2 1_555 1_555
N4 C8 1_555 1_555
O2 C19 1_555 1_555
O2 Cd1A_2 1_555 1_555
C4 C5 1_555 1_555
C5 C6 1_555 1_555
C8 C9 1_555 1_555
C12 C13 1_555 1_555
C17 C18 1_555 1_555
C23 C24 1_555 1_555
Cd1A Cl2A 1_555 1_555

#END
