
#######################################################################
#
#                 Cambridge Crystallographic Data Centre
#                                CCDC 
#
#######################################################################
#
# If this CIF has been generated from an entry in the Cambridge 
# Structural Database, then it will include bibliographic, chemical, 
# crystal, experimental, refinement or atomic coordinate data resulting 
# from the CCDC's data processing and validation procedures.
#
#######################################################################

data_MOFKOI
_symmetry_cell_setting           triclinic
_symmetry_space_group_name_H-M   'P -1'
_symmetry_Int_Tables_number      2
_space_group_name_Hall           '-P 1'
loop_
_symmetry_equiv_pos_site_id
_symmetry_equiv_pos_as_xyz
1 x,y,z
2 -x,-y,-z
_cell_length_a                   13.0857(17)
_cell_length_b                   17.004(2)
_cell_length_c                   19.292(3)
_cell_angle_alpha                82.128(2)
_cell_angle_beta                 86.703(2)
_cell_angle_gamma                69.173(2)
_cell_volume                     3974.17
loop_
_atom_site_label
_atom_site_type_symbol
_atom_site_fract_x
_atom_site_fract_y
_atom_site_fract_z
O1 O 0.785(3) 0.982(2) 0.4969(17)
O3 O 1.589(3) 0.646(2) 0.5404(15)
P1 P 1.2673(6) 0.6194(4) 0.2259(3)
P2 P 2.1607(6) -0.1343(4) 0.2428(3)
W1 W 1.41899(10) 0.58624(7) 0.37738(5)
W2 W 2.42733(10) -0.13457(7) 0.21975(5)
W3 W 1.09549(10) 0.66400(7) 0.07864(5)
W4 W 1.37713(10) 0.66382(7) 0.05832(5)
W5 W 0.99902(10) 0.61882(7) 0.23892(5)
W6 W 1.90085(10) -0.14840(7) 0.25376(5)
W7 W 1.99844(10) -0.10322(7) 0.09407(5)
W8 W 2.06466(10) -0.17813(7) 0.41128(5)
W9 W 2.28051(10) -0.10351(7) 0.07548(5)
W10 W 1.16206(10) 0.58777(7) 0.39588(5)
W11 W 1.52934(10) 0.63233(7) 0.20127(5)
W12 W 2.32171(10) -0.18099(7) 0.39434(5)
W13 W 1.49171(10) 0.42624(7) 0.25322(5)
W14 W 2.06406(11) 0.07169(7) 0.15151(6)
W15 W 2.20940(11) 0.03859(7) 0.29874(6)
W16 W 1.33164(10) 0.46118(7) 0.11232(5)
W17 W 1.23608(10) 0.42012(7) 0.27567(5)
W18 W 1.95340(11) 0.03446(7) 0.30980(6)
O2 O 1.3425(16) 0.6588(11) 0.1833(8)
O4 O 1.3155(16) 0.5200(12) 0.2187(9)
O5 O 1.1508(16) 0.6552(12) 0.1961(9)
O6 O 1.2676(17) 0.6270(12) 0.3051(9)
O7 O 2.1156(16) -0.0358(11) 0.2491(8)
O8 O 2.1846(16) -0.1797(11) 0.3168(9)
O9 O 2.2639(17) -0.1520(12) 0.1972(9)
O10 O 2.0729(16) -0.1562(11) 0.2088(8)
O11 O 1.9521(19) 0.1042(14) 0.2220(10)
O12 O 1.0498(15) 0.6233(10) 0.3278(8)
O13 O 0.8856(18) 0.5980(12) 0.2621(9)
O14 O 2.1537(17) 0.1042(12) 0.2111(9)
O15 O 1.3494(16) 0.4025(11) 0.0457(8)
O16 O 2.0648(16) 0.0755(11) 0.3389(9)
O17 O 1.9704(16) -0.1835(11) 0.3402(8)
O18 O 1.5368(17) 0.5124(12) 0.2113(9)
O19 O 1.985(2) -0.1732(14) 0.4871(11)
O20 O 1.5923(16) 0.1775(12) 0.5440(9)
O21 O 1.4770(18) 0.4493(13) 0.5626(9)
O22 O 2.1483(17) -0.1198(12) 0.0680(9)
O23 O 1.4111(19) 0.6660(13) -0.0289(10)
O24 O 1.5489(18) -0.1212(13) 0.2307(10)
O25 O 2.019(2) 0.1625(12) 0.0932(9)
O26 O 2.4082(16) -0.1837(11) 0.3119(8)
O27 O 1.8435(18) 0.0958(13) 0.3530(10)
O28 O 1.9283(18) -0.0626(12) 0.0188(11)
O29 O 1.0471(18) 0.6631(12) -0.0018(9)
O30 O 2.2562(16) -0.0597(12) 0.3672(9)
O31 O 1.3904(16) 0.3708(12) 0.2894(9)
O32 O 1.6612(19) 0.6122(14) 0.2067(10)
O33 O 1.3929(16) 0.5446(12) 0.0758(9)
O34 O 1.6128(17) 0.3454(12) 0.2720(9)
O35 O 2.0129(17) -0.0594(12) 0.3822(9)
O36 O 1.7667(19) -0.1292(15) 0.2787(11)
O37 O 1.4867(17) 0.6255(11) 0.2987(10)
O38 O 1.3117(17) 0.5559(11) 0.4305(9)
O39 O 1.6964(19) 0.0603(13) 0.0071(10)
O40 O 1.2238(18) 0.6894(12) 0.0561(9)
O41 O 1.1026(17) 0.5529(12) 0.4673(9)
O42 O 0.9932(17) 0.6293(12) 0.1387(9)
O43 O 1.1903(19) 0.3389(12) 0.3088(10)
O44 O 1.9926(17) 0.0031(11) 0.1230(9)
O45 O 1.1947(16) 0.5459(12) 0.0921(9)
O46 O 2.4008(16) -0.0980(12) 0.1256(9)
O47 O 1.0996(16) 0.5081(12) 0.2425(9)
O48 O 1.3568(17) 0.7009(12) 0.4013(9)
O49 O 1.4625(16) 0.4822(11) 0.3346(8)
O50 O 2.3305(15) -0.0302(10) 0.2446(8)
O51 O 2.1885(17) 0.0038(12) 0.1104(9)
O52 O 1.2217(17) 0.4804(12) 0.3509(9)
O53 O 0.9360(17) 0.7444(12) 0.2326(9)
O54 O 2.195(2) -0.1755(14) 0.4501(11)
O55 O 1.4854(15) 0.3621(11) -0.1027(8)
O56 O 2.1332(17) -0.3008(12) 0.4139(9)
O57 O 1.2651(16) 0.4020(11) 0.1783(9)
O58 O 1.3523(19) 0.7806(12) 0.0681(9)
O59 O 1.0249(17) 0.7795(13) 0.0907(9)
O60 O 1.8785(17) -0.0991(13) 0.1575(10)
O61 O 2.4838(18) -0.2468(13) 0.1975(9)
O62 O 1.8967(17) -0.0341(12) 0.2709(9)
O63 O 1.4615(16) 0.4039(11) 0.1635(8)
Cu1 Cu 1.6311(4) -0.1397(2) 0.3400(2)
Cu2 Cu 1.6876(4) -0.0413(2) 0.1292(2)
Cu3 Cu 1.2972(4) 0.3706(2) -0.05112(19)
Cu4 Cu 1.2955(4) 0.5021(2) 0.5895(2)
Cu5 Cu 1.6544(5) 0.1741(3) 0.4037(3)
Cu6 Cu 1.7310(4) 0.2819(3) 0.1509(2)
C1 C 1.483(3) 0.025(2) 0.3923(18)
H1 H 1.4221 0.0087 0.4066
C2 C 1.643(2) 0.023(2) 0.3608(15)
H2 H 1.7174 0.0051 0.3453
C3 C 1.393(3) 0.182(2) 0.4056(15)
H3 H 1.3386 0.1900 0.3693
H4 H 1.4154 0.2327 0.3992
C4 C 1.347(4) 0.175(3) 0.471(2)
H5 H 1.3511 0.1159 0.4848
H6 H 1.3864 0.1910 0.5054
C5 C 1.224(3) 0.236(2) 0.4661(17)
H7 H 1.1812 0.2125 0.4403
H8 H 1.2197 0.2921 0.4405
C6 C 1.178(3) 0.2478(18) 0.5389(13)
H9 H 1.0987 0.2819 0.5352
H10 H 1.1846 0.1913 0.5641
C7 C 1.204(3) 0.379(2) 0.5652(15)
H11 H 1.1477 0.4161 0.5348
C8 C 1.338(3) 0.3227(19) 0.6345(14)
H12 H 1.3974 0.3171 0.6631
C9 C 1.579(3) 0.195(2) 0.1892(16)
H13 H 1.5236 0.2441 0.2041
C10 C 1.735(3) 0.109(2) 0.1529(15)
H14 H 1.8086 0.0871 0.1375
C11 C 1.470(3) 0.0959(19) 0.1979(14)
H15 H 1.4953 0.0335 0.2098
H16 H 1.4282 0.1213 0.2387
C12 C 1.393(2) 0.1212(17) 0.1355(13)
H17 H 1.3361 0.0954 0.1454
H18 H 1.4351 0.0988 0.0938
C13 C 1.340(3) 0.215(2) 0.1204(16)
H19 H 1.3206 0.2394 0.1651
H20 H 1.3929 0.2386 0.0952
C14 C 1.235(3) 0.2411(19) 0.0754(14)
H21 H 1.1990 0.3035 0.0709
H22 H 1.1837 0.2156 0.0999
C15 C 1.313(3) 0.2099(19) -0.1012(15)
H23 H 1.3331 0.2273 -0.1472
C16 C 1.263(3) 0.1430(19) -0.0150(14)
H24 H 1.2435 0.1014 0.0148
C17 C 1.711(3) 0.4542(19) 0.0939(14)
H25 H 1.6391 0.4668 0.0785
C18 C 1.149(3) 0.5283(18) -0.1225(13)
H26 H 1.0975 0.5032 -0.1303
C19 C 1.958(3) 0.322(2) 0.1779(18)
H27 H 2.0227 0.3391 0.1700
H28 H 1.9710 0.2702 0.1557
C20 C 1.936(3) 0.305(2) 0.2591(17)
H29 H 1.8669 0.2928 0.2656
H30 H 1.9957 0.2532 0.2787
C21 C 1.928(3) 0.377(2) 0.3007(16)
H31 H 1.8610 0.4266 0.2868
H32 H 1.9917 0.3950 0.2898
C22 C 1.923(3) 0.348(2) 0.3828(16)
H33 H 1.9909 0.3002 0.3963
H34 H 1.9207 0.3958 0.4082
C23 C 1.818(3) 0.2492(19) 0.4027(14)
H35 H 1.8740 0.1981 0.3937
C24 C 1.660(3) 0.3388(18) 0.4240(14)
H36 H 1.5846 0.3613 0.4358
N1 N 1.577(2) -0.0244(18) 0.3635(13)
N2 N 1.587(2) 0.1009(17) 0.3838(13)
N3 N 1.490(3) 0.105(3) 0.3975(18)
N4 N 1.232(2) 0.2906(16) 0.5824(12)
N5 N 1.274(3) 0.3975(18) 0.6018(13)
N6 N 1.688(2) -0.2583(17) 0.3762(12)
N7 N 1.676(2) 0.1915(17) 0.1687(13)
N8 N 1.566(2) 0.1217(15) 0.1865(11)
N9 N 1.662(2) 0.0642(14) 0.1645(11)
N10 N 1.258(2) 0.2140(15) 0.0043(11)
N11 N 1.296(2) 0.2557(17) -0.0491(13)
N12 N 1.299(2) 0.1333(16) -0.0807(12)
N13 N 1.777(2) 0.3785(16) 0.1250(12)
N14 N 1.235(2) 0.4912(15) -0.0880(11)
N15 N 1.860(2) 0.3912(17) 0.1476(13)
N16 N 1.715(2) 0.2592(14) 0.4153(11)
N17 N 1.727(2) 0.3833(16) 0.4136(12)
N18 N 1.829(2) 0.3231(16) 0.4049(12)
O64 O 2.2637(17) 0.1043(12) 0.3298(9)
N12A N 1.701(2) -0.1333(16) 0.0807(12)
N17A N 1.273(2) 0.6167(16) 0.5864(12)
N6A N 1.312(2) 0.2583(17) 0.6238(12)
N14A N 1.765(2) 0.5088(15) 0.0880(11)
N15A N 1.140(2) 0.6088(17) -0.1476(13)
C8A C 1.662(3) -0.3227(19) 0.3655(14)
N4A N 1.768(2) -0.2906(16) 0.4176(12)
Cu2A Cu 1.3124(4) 0.0413(2) -0.1292(2)
C17A C 1.289(3) 0.5458(19) -0.0939(14)
C18A C 1.851(3) 0.4717(18) 0.1225(13)
Cu4A Cu 1.7045(4) 0.4979(2) 0.4105(2)
O21A O 1.5230(18) 0.5507(13) 0.4374(9)
O24_2 O 2.5489(18) -0.1212(13) 0.2307(10)
O55A O 1.5146(15) 0.6379(11) 0.1027(8)
O53_2 O 1.9360(17) -0.2556(12) 0.2326(9)
O59_2 O 2.0249(17) -0.2205(13) 0.0907(9)
O39A O 2.3036(19) -0.0603(13) -0.0071(10)
O58_2 O 2.3523(19) -0.2194(12) 0.0681(9)
O56_2 O 1.1332(17) 0.6992(12) 0.4139(9)
O61_2 O 1.4838(18) 0.7532(13) 0.1975(9)
O20A O 2.4077(16) -0.1775(12) 0.4560(9)
O48_2 O 2.3568(17) -0.2991(12) 0.4013(9)
W12A W 1.67829(10) 0.18099(7) 0.60566(5)
W1A W 1.58101(10) 0.41376(7) 0.62262(5)
W2_2 W 1.42733(10) -0.13457(7) 0.21975(5)
W9A W 1.71949(10) 0.10351(7) -0.07548(5)
W12_2 W 1.32171(10) 0.81901(7) 0.39434(5)
W6_2 W 0.90085(10) 0.85160(7) 0.25376(5)
W4A W 1.62287(10) 0.33618(7) -0.05832(5)
W11A W 1.47066(10) 0.36767(7) -0.20127(5)
W10_2 W 2.16206(10) -0.41223(7) 0.39588(5)
W9_2 W 1.28051(10) 0.89649(7) 0.07548(5)
W7_2 W 0.99844(10) 0.89678(7) 0.09407(5)
W11_2 W 2.52934(10) -0.36767(7) 0.20127(5)
C15A C 1.687(3) -0.2099(19) 0.1012(15)
C16A C 1.737(3) -0.1430(19) 0.0150(14)
C24A C 1.340(3) 0.6612(18) 0.5760(14)
N18A N 1.171(2) 0.6769(16) 0.5951(12)
Cu1A Cu 1.3689(4) 0.1397(2) 0.6600(2)
Cu3A Cu 1.7028(4) 0.6294(2) 0.05112(19)
C19A C 1.042(3) 0.678(2) -0.1779(18)
N13A N 1.223(2) 0.6215(16) -0.1250(12)
H12A H 1.6026 -0.3171 0.3369
N5A N 1.726(3) -0.3975(18) 0.3982(13)
C6A C 1.822(3) -0.2478(18) 0.4611(13)
C7A C 1.796(3) -0.379(2) 0.4348(15)
O39A_2 O 1.3036(19) -0.0603(13) -0.0071(10)
O60A O 1.1215(17) 0.0991(13) -0.1575(10)
N9A N 1.338(2) -0.0642(14) -0.1645(11)
H25A H 1.3609 0.5332 -0.0785
H26A H 1.9025 0.4968 0.1303
N5A_2 N 1.726(3) 0.6025(18) 0.3982(13)
H23A H 1.6669 -0.2273 0.1472
H24A H 1.7565 -0.1014 -0.0148
H36A H 1.4154 0.6387 0.5642
H27A H 0.9773 0.6609 -0.1700
H28A H 1.0290 0.7298 -0.1557
H9A H 1.9013 -0.2819 0.4648
H10A H 1.8154 -0.1913 0.4359
H11A H 1.8523 -0.4161 0.4652
loop_
_geom_bond_atom_site_label_1
_geom_bond_atom_site_label_2
_geom_bond_site_symmetry_1
_geom_bond_site_symmetry_2
P1 O2 1_555 1_555
P2 O7 1_555 1_555
W1 O6 1_555 1_555
W2 O9 1_555 1_555
W3 O5 1_555 1_555
W4 O2 1_555 1_555
W5 O5 1_555 1_555
W6 O10 1_555 1_555
W7 O10 1_555 1_555
W8 O8 1_555 1_555
W9 O9 1_555 1_555
W10 O6 1_555 1_555
W11 O2 1_555 1_555
W12 O8 1_555 1_555
W13 O4 1_555 1_555
W14 O7 1_555 1_555
W15 O7 1_555 1_555
W16 O4 1_555 1_555
W17 O4 1_555 1_555
W18 O7 1_555 1_555
O4 P1 1_555 1_555
O5 P1 1_555 1_555
O6 P1 1_555 1_555
O8 P2 1_555 1_555
O9 P2 1_555 1_555
O10 P2 1_555 1_555
O11 W14 1_555 1_555
O12 W5 1_555 1_555
O13 W5 1_555 1_555
O14 W14 1_555 1_555
O15 W16 1_555 1_555
O16 W15 1_555 1_555
O17 W6 1_555 1_555
O18 W11 1_555 1_555
O19 W8 1_555 1_555
O20 Cu5 1_555 1_555
O21 Cu4 1_555 1_555
O22 W7 1_555 1_555
O23 W4 1_555 1_555
O24 Cu1 1_555 1_555
O25 W14 1_555 1_555
O26 W2 1_555 1_555
O27 W18 1_555 1_555
O28 W7 1_555 1_555
O29 W3 1_555 1_555
O30 W12 1_555 1_555
O31 W13 1_555 1_555
O32 W11 1_555 1_555
O33 W4 1_555 1_555
O34 W13 1_555 1_555
O35 W8 1_555 1_555
O36 W6 1_555 1_555
O37 W1 1_555 1_555
O38 W1 1_555 1_555
O39 Cu2 1_555 1_555
O40 W3 1_555 1_555
O41 W10 1_555 1_555
O42 W3 1_555 1_555
O43 W17 1_555 1_555
O44 W7 1_555 1_555
O45 W3 1_555 1_555
O46 W2 1_555 1_555
O47 W5 1_555 1_555
O48 W1 1_555 1_555
O49 W1 1_555 1_555
O50 W2 1_555 1_555
O51 W9 1_555 1_555
O52 W10 1_555 1_555
O53 W5 1_555 1_555
O54 W8 1_555 1_555
O55 Cu3 1_555 1_555
O56 W8 1_555 1_555
O57 W16 1_555 1_555
O58 W4 1_555 1_555
O59 W3 1_555 1_555
O60 W6 1_555 1_555
O61 W2 1_555 1_555
O62 W6 1_555 1_555
O63 W13 1_555 1_555
Cu1 O36 1_555 1_555
Cu2 O60 1_555 1_555
Cu3 O15 1_555 1_555
Cu4 N5 1_555 1_555
Cu5 O27 1_555 1_555
Cu6 N7 1_555 1_555
C1 H1 1_555 1_555
C2 H2 1_555 1_555
C3 H3 1_555 1_555
H4 C3 1_555 1_555
C4 C3 1_555 1_555
H5 C4 1_555 1_555
H6 C4 1_555 1_555
C5 C4 1_555 1_555
H7 C5 1_555 1_555
H8 C5 1_555 1_555
C6 C5 1_555 1_555
H9 C6 1_555 1_555
H10 C6 1_555 1_555
C7 H11 1_555 1_555
C8 H12 1_555 1_555
C9 H13 1_555 1_555
C10 H14 1_555 1_555
C11 H15 1_555 1_555
H16 C11 1_555 1_555
C12 C11 1_555 1_555
H17 C12 1_555 1_555
H18 C12 1_555 1_555
C13 C12 1_555 1_555
H19 C13 1_555 1_555
H20 C13 1_555 1_555
C14 C13 1_555 1_555
H21 C14 1_555 1_555
H22 C14 1_555 1_555
C15 H23 1_555 1_555
C16 H24 1_555 1_555
C17 H25 1_555 1_555
C18 H26 1_555 1_555
C19 H27 1_555 1_555
H28 C19 1_555 1_555
C20 C19 1_555 1_555
H29 C20 1_555 1_555
H30 C20 1_555 1_555
C21 C20 1_555 1_555
H31 C21 1_555 1_555
H32 C21 1_555 1_555
C22 C21 1_555 1_555
H33 C22 1_555 1_555
H34 C22 1_555 1_555
C23 H35 1_555 1_555
C24 H36 1_555 1_555
N1 Cu1 1_555 1_555
N2 Cu5 1_555 1_555
N3 C1 1_555 1_555
N4 C6 1_555 1_555
N5 C7 1_555 1_555
N6 Cu1 1_555 1_555
N7 C9 1_555 1_555
N8 C9 1_555 1_555
N9 Cu2 1_555 1_555
N10 C14 1_555 1_555
N11 Cu3 1_555 1_555
N12 C15 1_555 1_555
N13 Cu6 1_555 1_555
N14 Cu3 1_555 1_555
N15 C19 1_555 1_555
N16 Cu5 1_555 1_555
N17 C24 1_555 1_555
N18 C22 1_555 1_555
O64 W15 1_555 1_555
N12A Cu2 1_555 1_555
N17A Cu4 1_555 1_555
N6A C8 1_555 1_555
N14A C17 1_555 1_555
N15A C18 1_555 1_555
C8A N6 1_555 1_555
N4A N6 1_555 1_555
Cu2A N12 1_555 1_555
C17A N14 1_555 1_555
C18A N15 1_555 1_555
Cu4A N17 1_555 1_555
O21A W1 1_555 1_555
O24_2 W2 1_555 1_555
O55A W4 1_555 1_555
O53_2 W6 1_555 1_555
O59_2 W7 1_555 1_555
O39A W9 1_555 1_555
O58_2 W9 1_555 1_555
O56_2 W10 1_555 1_555
O61_2 W11 1_555 1_555
O20A W12 1_555 1_555
O48_2 W12 1_555 1_555
W12A O20 1_555 1_555
W1A O21 1_555 1_555
W2_2 O24 1_555 1_555
W9A O39 1_555 1_555
W12_2 O48 1_555 1_555
W6_2 O53 1_555 1_555
W4A O55 1_555 1_555
W11A O55 1_555 1_555
W10_2 O56 1_555 1_555
W9_2 O58 1_555 1_555
W7_2 O59 1_555 1_555
W11_2 O61 1_555 1_555
C15A N12A 1_555 1_555
C16A N12A 1_555 1_555
C24A N17A 1_555 1_555
N18A N17A 1_555 1_555
Cu1A N6A 1_555 1_555
Cu3A N14A 1_555 1_555
C19A N15A 1_555 1_555
N13A N15A 1_555 1_555
H12A C8A 1_555 1_555
N5A C8A 1_555 1_555
C6A N4A 1_555 1_555
C7A N4A 1_555 1_555
O39A_2 Cu2A 1_555 1_555
O60A Cu2A 1_555 1_555
N9A Cu2A 1_555 1_555
H25A C17A 1_555 1_555
H26A C18A 1_555 1_555
N5A_2 Cu4A 1_555 1_555
H23A C15A 1_555 1_555
H24A C16A 1_555 1_555
H36A C24A 1_555 1_555
H27A C19A 1_555 1_555
H28A C19A 1_555 1_555
H9A C6A 1_555 1_555
H10A C6A 1_555 1_555
H11A C7A 1_555 1_555
W4 O40 1_555 1_555
W5 O42 1_555 1_555
W7 O60 1_555 1_555
W8 O17 1_555 1_555
W9 O22 1_555 1_555
W9 O46 1_555 1_555
W10 O38 1_555 1_555
W10 O12 1_555 1_555
W11 O37 1_555 1_555
W11 O55A 1_555 1_555
W12 O26 1_555 1_555
W12 O54 1_555 1_555
W13 O18 1_555 1_555
W13 O49 1_555 1_555
W14 O44 1_555 1_555
W14 O51 1_555 1_555
W15 O30 1_555 1_555
W15 O50 1_555 1_555
W15 O14 1_555 1_555
W16 O33 1_555 1_555
W16 O45 1_555 1_555
W16 O63 1_555 1_555
W17 O47 1_555 1_555
W17 O52 1_555 1_555
W17 O31 1_555 1_555
W17 O57 1_555 1_555
W18 O35 1_555 1_555
W18 O62 1_555 1_555
W18 O11 1_555 1_555
W18 O16 1_555 1_555
C1 N1 1_555 1_555
C2 N2 1_555 1_555
C2 N1 1_555 1_555
C3 N3 1_555 1_555
C7 N4 1_555 1_555
C8 N5 1_555 1_555
C10 N9 1_555 1_555
C10 N7 1_555 1_555
C11 N8 1_555 1_555
C15 N11 1_555 1_555
C16 N12 1_555 1_555
C16 N10 1_555 1_555
C17 N13 1_555 1_555
C18 N14 1_555 1_555
C23 N18 1_555 1_555
C23 N16 1_555 1_555
C24 N16 1_555 1_555
N2 N3 1_555 1_555
N4 N6A 1_555 1_555
N8 N9 1_555 1_555
N10 N11 1_555 1_555
N13 N15 1_555 1_555
N17 N18 1_555 1_555
N14A C18A 1_555 1_555
C17A N13A 1_555 1_555
Cu4A O21A 1_555 1_555
O55A Cu3A 1_555 1_555
N5A C7A 1_555 1_555

#END
