
#######################################################################
#
#                 Cambridge Crystallographic Data Centre
#                                CCDC 
#
#######################################################################
#
# If this CIF has been generated from an entry in the Cambridge 
# Structural Database, then it will include bibliographic, chemical, 
# crystal, experimental, refinement or atomic coordinate data resulting 
# from the CCDC's data processing and validation procedures.
#
#######################################################################

data_MOFKIC
_symmetry_cell_setting           triclinic
_symmetry_space_group_name_H-M   'P -1'
_symmetry_Int_Tables_number      2
_space_group_name_Hall           '-P 1'
loop_
_symmetry_equiv_pos_site_id
_symmetry_equiv_pos_as_xyz
1 x,y,z
2 -x,-y,-z
_cell_length_a                   13.469(5)
_cell_length_b                   15.258(5)
_cell_length_c                   20.189(5)
_cell_angle_alpha                95.160(5)
_cell_angle_beta                 94.389(5)
_cell_angle_gamma                107.452(5)
_cell_volume                     3918.55
loop_
_atom_site_label
_atom_site_type_symbol
_atom_site_fract_x
_atom_site_fract_y
_atom_site_fract_z
P1 P -0.0030(4) -0.2281(4) 0.2612(3)
P2 P -0.2484(4) -0.4533(3) 0.2556(3)
W1 W 0.15046(6) -0.37726(6) 0.23699(5)
W2 W -0.44999(7) -0.62747(6) 0.15662(5)
W3 W -0.08322(6) -0.58799(6) 0.22982(5)
W4 W -0.28186(6) -0.37816(6) 0.41972(5)
W5 W -0.05489(6) -0.16182(6) 0.42352(5)
W6 W 0.26953(6) -0.12853(6) 0.29940(5)
W7 W 0.10956(6) -0.28963(6) 0.40544(5)
W8 W -0.19214(7) -0.52461(6) 0.09493(5)
W9 W 0.14821(7) -0.06627(6) 0.16664(5)
W10 W -0.33789(7) -0.68407(6) 0.29563(5)
W11 W -0.49645(6) -0.54864(6) 0.30957(5)
W12 W -0.37188(7) -0.38667(6) 0.11659(5)
W13 W -0.39992(7) -0.30439(6) 0.27191(5)
W14 W -0.11821(6) -0.50527(6) 0.39994(5)
W15 W 0.04146(7) -0.31241(6) 0.10069(5)
W16 W -0.16908(7) -0.08974(6) 0.27496(5)
W17 W 0.11570(7) 0.00638(6) 0.32520(5)
W18 W -0.13949(7) -0.17409(6) 0.12046(5)
O1 O 0.0951(10) -0.1386(9) 0.2618(8)
O2 O 0.3565(15) 0.1235(12) 0.0603(12)
O3 O -0.0125(10) -0.2506(10) 0.3349(8)
O5 O 0.0184(10) -0.3055(9) 0.2168(7)
O7 O -0.0999(10) -0.2030(9) 0.2297(8)
O8 O -0.2881(10) -0.3788(9) 0.2284(7)
O9 O -0.1705(10) -0.4808(9) 0.2117(7)
O10 O -0.2013(11) -0.4242(9) 0.3302(7)
O11 O -0.3463(10) -0.5428(9) 0.2528(8)
O12 O 0.1506(11) 0.1163(10) 0.3630(8)
O13 O 0.1516(11) 0.0283(9) 0.2340(7)
O14 O -0.2912(11) -0.1973(9) 0.2626(8)
O15 O -0.5461(10) -0.6115(9) 0.2203(7)
O16 O -0.4401(12) -0.3852(10) 0.0424(10)
O17 O -0.0102(11) -0.3910(9) 0.4140(8)
O18 O 0.2442(10) -0.0192(9) 0.3409(8)
O19 O -0.4203(10) -0.7166(9) 0.2078(7)
O20 O 0.4011(10) -0.1020(9) 0.3237(9)
O21 O -0.2199(10) -0.6625(9) 0.2441(7)
O22 O -0.4425(11) -0.3317(10) 0.1795(8)
O23 O 0.2719(10) -0.0756(10) 0.2193(8)
O24 O -0.3241(12) -0.6075(9) 0.1171(10)
O25 O -0.1656(11) -0.1342(10) 0.0464(8)
O26 O 0.0569(11) -0.2067(10) 0.4573(8)
O27 O -0.4466(11) -0.5061(10) 0.1363(8)
O28 O -0.0272(10) -0.0144(9) 0.2848(7)
O29 O 0.1422(10) -0.3608(9) 0.1431(7)
O30 O 0.1285(10) -0.1877(9) 0.1288(7)
O31 O -0.4548(11) -0.6566(9) 0.3300(8)
O32 O -0.0718(10) -0.2624(9) 0.0938(8)
O33 O -0.3941(11) -0.4828(10) 0.3816(9)
O34 O -0.0244(11) -0.6718(10) 0.2306(9)
O35 O -0.0655(10) -0.5378(9) 0.3197(8)
O36 O -0.4816(11) -0.4336(9) 0.2803(9)
O37 O -0.2277(11) -0.0072(10) 0.2972(8)
O38 O -0.2654(10) -0.4370(9) 0.0892(8)
O39 O 0.2053(11) -0.1879(10) 0.3697(8)
O40 O -0.0639(10) -0.4308(9) 0.0973(7)
O41 O -0.0716(11) -0.5646(10) 0.4555(9)
O42 O -0.1794(10) -0.0899(9) 0.1813(8)
O43 O 0.0559(10) -0.0633(9) 0.3903(8)
O44 O 0.2042(12) -0.0018(10) 0.1061(9)
O45 O -0.1560(11) -0.2738(9) 0.4301(8)
O46 O -0.3519(11) -0.7932(11) 0.3194(8)
O47 O 0.1985(10) -0.3046(10) 0.4645(8)
O48 O 0.1263(10) -0.3625(9) 0.3280(8)
O49 O 0.0666(11) -0.3202(9) 0.0189(8)
O50 O -0.3351(10) -0.3123(9) 0.3579(8)
O51 O 0.2366(10) -0.2475(9) 0.2533(8)
O52 O -0.5419(11) -0.6967(10) 0.0955(7)
O53 O 0.0081(11) -0.0873(10) 0.1401(8)
O54 O -0.1234(10) -0.6042(9) 0.1377(7)
O55 O -0.2640(10) -0.2662(9) 0.1225(8)
O56 O -0.2466(10) -0.6065(9) 0.3657(8)
O57 O -0.2039(10) -0.4538(9) 0.4542(7)
O58 O -0.3335(11) -0.3542(9) 0.4928(9)
O59 O -0.6102(11) -0.5705(10) 0.3462(9)
O60 O -0.1451(10) -0.1339(9) 0.3606(7)
O61 O -0.4944(10) -0.2536(9) 0.2932(8)
O62 O 0.2499(11) -0.4239(10) 0.2424(8)
O63 O -0.2099(11) -0.5731(10) 0.0121(7)
O64 O -0.0689(11) -0.0984(10) 0.4951(8)
O65 O 0.0390(10) -0.4859(9) 0.2212(7)
Cu1 Cu 0.0370(2) -0.2613(2) -0.09186(19)
Cu2 Cu 0.3706(3) 0.0878(2) -0.0312(2)
Cu3 Cu 0.2893(2) -0.39692(18) 0.09176(16)
Cu4 Cu 0.1377(2) -0.16250(19) 0.57576(16)
Cu5 Cu -0.2555(2) -0.45219(19) 0.58396(17)
Cu6 Cu 0.4895(2) -0.16671(18) 0.37960(16)
C1 C 0.2549(19) -0.1787(18) -0.1167(14)
H1 H 0.2622 -0.2319 -0.1393
C2 C 0.197(2) -0.087(2) -0.0600(17)
H2 H 0.1515 -0.0638 -0.0364
C3 C 0.4420(18) -0.0697(17) -0.1228(13)
H3 H 0.4870 -0.0285 -0.0857
H4 H 0.4643 -0.1244 -0.1289
C4 C 0.4552(18) -0.0224(15) -0.1846(16)
H5 H 0.4129 -0.0664 -0.2214
H6 H 0.5276 -0.0104 -0.1932
C5 C 0.4285(17) 0.0693(17) -0.1883(14)
H7 H 0.4336 0.0864 -0.2333
H8 H 0.3570 0.0602 -0.1784
C6 C 0.5551(19) 0.2435(17) -0.0520(14)
H9 H 0.5613 0.2725 -0.0087
C7 C 0.5807(16) 0.2142(13) -0.1549(12)
H10 H 0.6063 0.2200 -0.1963
C8 C -0.0190(16) -0.2269(15) 0.6656(14)
H11 H 0.0144 -0.1800 0.7000
C9 C -0.0571(17) -0.3137(16) 0.5748(17)
H12 H -0.0524 -0.3390 0.5320
C10 C -0.1757(17) -0.3014(15) 0.7223(13)
H13 H -0.2456 -0.3029 0.7052
H14 H -0.1808 -0.3611 0.7372
C11 C -0.1383(16) -0.2292(14) 0.7808(11)
H15 H -0.0650 -0.2208 0.7943
H16 H -0.1441 -0.1710 0.7681
C12 C -0.2030(16) -0.2562(15) 0.8413(13)
H17 H -0.2762 -0.2658 0.8268
H18 H -0.1808 -0.2043 0.8763
C13 C -0.1275(18) -0.4252(17) 0.9169(13)
H19 H -0.0796 -0.4483 0.9393
C14 C -0.2659(17) -0.4168(17) 0.8672(12)
H20 H -0.3340 -0.4308 0.8469
C15 C 0.3734(16) -0.3650(14) 0.3949(12)
H21 H 0.3577 -0.3830 0.3491
C16 C 0.3797(17) -0.3704(15) 0.5022(13)
H22 H 0.3712 -0.3906 0.5441
C17 C 0.4696(17) -0.2020(16) 0.5348(13)
H23 H 0.4320 -0.2083 0.5741
H24 H 0.4572 -0.1510 0.5137
C18 C 0.5880(17) -0.1762(16) 0.5580(13)
H25 H 0.6070 -0.1211 0.5902
H26 H 0.5996 -0.2258 0.5812
C19 C 0.662(2) -0.1584(14) 0.5042(13)
H27 H 0.7296 -0.1596 0.5229
H28 H 0.6359 -0.2090 0.4683
C20 C 0.6559(16) 0.0202(14) 0.4058(11)
H29 H 0.6278 0.0456 0.3716
C21 C 0.7586(17) 0.0042(13) 0.4856(11)
H30 H 0.8152 0.0130 0.5176
N1 N 0.1697(15) -0.1740(12) -0.0922(10)
N2 N 0.3304(15) -0.0976(13) -0.1054(12)
N3 N 0.2941(15) -0.0391(13) -0.0659(13)
N4 N 0.5018(15) 0.1466(12) -0.1394(13)
N5 N 0.4809(16) 0.1643(12) -0.0766(11)
N6 N 0.6174(14) 0.2746(12) -0.0969(10)
N7 N 0.0187(14) -0.2396(13) 0.6093(10)
N8 N -0.1093(13) -0.2882(12) 0.6674(10)
N9 N -0.1361(14) -0.3450(12) 0.6079(10)
N10 N -0.1945(14) -0.3374(13) 0.8696(10)
N11 N -0.1027(14) -0.3418(13) 0.9012(10)
N12 N -0.2281(14) -0.4765(12) 0.8984(10)
N13 N 0.3473(14) -0.4225(13) 0.4409(12)
N14 N 0.4256(14) -0.2853(13) 0.4890(11)
N15 N 0.4241(13) -0.2796(11) 0.4214(10)
N16 N 0.6760(14) -0.0703(12) 0.4749(10)
N17 N 0.6100(13) -0.0631(13) 0.4228(11)
N18 N 0.7497(14) 0.0652(12) 0.4439(11)
O54A O 0.1234(10) -0.3958(9) -0.1377(7)
O59A O -0.3898(11) -0.4295(10) 0.6538(9)
O61_2 O 0.5056(10) -0.2536(9) 0.2932(8)
O63A O 0.2099(11) -0.4269(10) -0.0121(7)
Cu1A Cu -0.0370(2) -0.7387(2) 0.09186(19)
Cu1_2 Cu 0.0370(2) -0.2613(2) 0.90814(19)
Cu3A Cu -0.2893(2) -0.60308(18) -0.09176(16)
Cu3A_2 Cu 0.7107(2) 0.39692(18) -0.09176(16)
Cu3A_3 Cu -0.2893(2) -0.60308(18) 0.90824(16)
Cu4A Cu 0.8623(2) 0.16250(19) 0.42424(16)
Cu5A Cu -0.7445(2) -0.54781(19) 0.41604(17)
Cu5A_2 Cu 0.2555(2) -0.54781(19) 0.41604(17)
Cu6_2 Cu -0.5105(2) -0.16671(18) 0.37960(16)
N6A N 0.3826(14) -0.2746(12) 0.0969(10)
N11_2 N -0.1027(14) -0.3418(13) -0.0988(10)
N12A N 0.2281(14) -0.5235(12) 0.1016(10)
N13A N -0.3473(14) -0.5775(13) 0.5591(12)
N18A N 0.2503(14) -0.0652(12) 0.5561(11)
O4 O -0.0234(16) -0.0856(15) -0.0591(12)
O6 O 0.365(2) 0.160(2) 0.227(2)
loop_
_geom_bond_atom_site_label_1
_geom_bond_atom_site_label_2
_geom_bond_site_symmetry_1
_geom_bond_site_symmetry_2
P1 O1 1_555 1_555
P2 O8 1_555 1_555
W1 O5 1_555 1_555
W2 O11 1_555 1_555
W3 O9 1_555 1_555
W4 O10 1_555 1_555
W5 O3 1_555 1_555
W6 O1 1_555 1_555
W7 O3 1_555 1_555
W8 O9 1_555 1_555
W9 O1 1_555 1_555
W10 O11 1_555 1_555
W11 O11 1_555 1_555
W12 O8 1_555 1_555
W13 O8 1_555 1_555
W14 O10 1_555 1_555
W15 O5 1_555 1_555
W16 O7 1_555 1_555
W17 O1 1_555 1_555
W18 O7 1_555 1_555
O2 Cu2 1_555 1_555
O3 P1 1_555 1_555
O5 P1 1_555 1_555
O7 P1 1_555 1_555
O9 P2 1_555 1_555
O10 P2 1_555 1_555
O11 P2 1_555 1_555
O12 W17 1_555 1_555
O13 W9 1_555 1_555
O14 W13 1_555 1_555
O15 W2 1_555 1_555
O16 W12 1_555 1_555
O17 W7 1_555 1_555
O18 W6 1_555 1_555
O19 W2 1_555 1_555
O20 W6 1_555 1_555
O21 W3 1_555 1_555
O22 W12 1_555 1_555
O23 W6 1_555 1_555
O24 W2 1_555 1_555
O25 W18 1_555 1_555
O26 W5 1_555 1_555
O27 W2 1_555 1_555
O28 W16 1_555 1_555
O29 W1 1_555 1_555
O30 W9 1_555 1_555
O31 W10 1_555 1_555
O32 W15 1_555 1_555
O33 W4 1_555 1_555
O34 W3 1_555 1_555
O35 W3 1_555 1_555
O36 W11 1_555 1_555
O37 W16 1_555 1_555
O38 W8 1_555 1_555
O39 W6 1_555 1_555
O40 W8 1_555 1_555
O41 W14 1_555 1_555
O42 W16 1_555 1_555
O43 W5 1_555 1_555
O44 W9 1_555 1_555
O45 W4 1_555 1_555
O46 W10 1_555 1_555
O47 W7 1_555 1_555
O48 W1 1_555 1_555
O49 W15 1_555 1_555
O50 W4 1_555 1_555
O51 W1 1_555 1_555
O52 W2 1_555 1_555
O53 W9 1_555 1_555
O54 W3 1_555 1_555
O55 W12 1_555 1_555
O56 W10 1_555 1_555
O57 W4 1_555 1_555
O58 W4 1_555 1_555
O59 W11 1_555 1_555
O60 W5 1_555 1_555
O61 W13 1_555 1_555
O62 W1 1_555 1_555
O63 W8 1_555 1_555
O64 W5 1_555 1_555
O65 W1 1_555 1_555
Cu1 O49 1_555 1_555
Cu2 N3 1_555 1_555
Cu3 O29 1_555 1_555
Cu4 O26 1_555 1_555
Cu5 O57 1_555 1_555
Cu6 O20 1_555 1_555
C1 H1 1_555 1_555
C2 H2 1_555 1_555
C3 H3 1_555 1_555
H4 C3 1_555 1_555
C4 C3 1_555 1_555
H5 C4 1_555 1_555
H6 C4 1_555 1_555
C5 C4 1_555 1_555
H7 C5 1_555 1_555
H8 C5 1_555 1_555
C6 H9 1_555 1_555
C7 H10 1_555 1_555
C8 H11 1_555 1_555
C9 H12 1_555 1_555
C10 H13 1_555 1_555
H14 C10 1_555 1_555
C11 C10 1_555 1_555
H15 C11 1_555 1_555
H16 C11 1_555 1_555
C12 C11 1_555 1_555
H17 C12 1_555 1_555
H18 C12 1_555 1_555
C13 H19 1_555 1_555
C14 H20 1_555 1_555
C15 H21 1_555 1_555
C16 H22 1_555 1_555
C17 H23 1_555 1_555
H24 C17 1_555 1_555
C18 C17 1_555 1_555
H25 C18 1_555 1_555
H26 C18 1_555 1_555
C19 C18 1_555 1_555
H27 C19 1_555 1_555
H28 C19 1_555 1_555
C20 H29 1_555 1_555
C21 H30 1_555 1_555
N1 Cu1 1_555 1_555
N2 C1 1_555 1_555
N3 C2 1_555 1_555
N4 C5 1_555 1_555
N5 Cu2 1_555 1_555
N6 C6 1_555 1_555
N7 Cu4 1_555 1_555
N8 C8 1_555 1_555
N9 Cu5 1_555 1_555
N10 C12 1_555 1_555
N11 C13 1_555 1_555
N12 C13 1_555 1_555
N13 C15 1_555 1_555
N14 C16 1_555 1_555
N15 Cu6 1_555 1_555
N16 C19 1_555 1_555
N17 Cu6 1_555 1_555
N18 C20 1_555 1_555
O54A Cu1 1_555 1_555
O59A Cu5 1_555 1_555
O61_2 Cu6 1_555 1_555
O63A Cu3 1_555 1_555
Cu1A O54 1_555 1_555
Cu1_2 N11 1_555 1_555
Cu3A O63 1_555 1_555
Cu3A_2 N6 1_555 1_555
Cu3A_3 N12 1_555 1_555
Cu4A N18 1_555 1_555
Cu5A O59 1_555 1_555
Cu5A_2 N13 1_555 1_555
Cu6_2 O61 1_555 1_555
N6A Cu3 1_555 1_555
N11_2 Cu1 1_555 1_555
N12A Cu3 1_555 1_555
N13A Cu5 1_555 1_555
N18A Cu4 1_555 1_555
W3 O65 1_555 1_555
W5 O45 1_555 1_555
W6 O51 1_555 1_555
W7 O26 1_555 1_555
W7 O39 1_555 1_555
W7 O48 1_555 1_555
W8 O24 1_555 1_555
W8 O54 1_555 1_555
W9 O23 1_555 1_555
W10 O19 1_555 1_555
W10 O21 1_555 1_555
W11 O15 1_555 1_555
W11 O31 1_555 1_555
W11 O33 1_555 1_555
W12 O27 1_555 1_555
W12 O38 1_555 1_555
W13 O22 1_555 1_555
W13 O36 1_555 1_555
W13 O50 1_555 1_555
W14 O17 1_555 1_555
W14 O35 1_555 1_555
W14 O56 1_555 1_555
W14 O57 1_555 1_555
W15 O29 1_555 1_555
W15 O30 1_555 1_555
W15 O40 1_555 1_555
W16 O14 1_555 1_555
W16 O60 1_555 1_555
W17 O13 1_555 1_555
W17 O18 1_555 1_555
W17 O28 1_555 1_555
W17 O43 1_555 1_555
W18 O32 1_555 1_555
W18 O42 1_555 1_555
W18 O53 1_555 1_555
W18 O55 1_555 1_555
C1 N1 1_555 1_555
C2 N1 1_555 1_555
C3 N2 1_555 1_555
C6 N5 1_555 1_555
C7 N4 1_555 1_555
C7 N6 1_555 1_555
C8 N7 1_555 1_555
C9 N7 1_555 1_555
C9 N9 1_555 1_555
C10 N8 1_555 1_555
C14 N10 1_555 1_555
C14 N12 1_555 1_555
C15 N15 1_555 1_555
C16 N13 1_555 1_555
C17 N14 1_555 1_555
C20 N17 1_555 1_555
C21 N16 1_555 1_555
C21 N18 1_555 1_555
N2 N3 1_555 1_555
N4 N5 1_555 1_555
N8 N9 1_555 1_555
N10 N11 1_555 1_555
N14 N15 1_555 1_555
N16 N17 1_555 1_555

#END
