
#######################################################################
#
#                 Cambridge Crystallographic Data Centre
#                                CCDC 
#
#######################################################################
#
# If this CIF has been generated from an entry in the Cambridge 
# Structural Database, then it will include bibliographic, chemical, 
# crystal, experimental, refinement or atomic coordinate data resulting 
# from the CCDC's data processing and validation procedures.
#
#######################################################################

data_MOFQIJ
_symmetry_cell_setting           triclinic
_symmetry_space_group_name_H-M   'P -1'
_symmetry_Int_Tables_number      2
_space_group_name_Hall           '-P 1'
loop_
_symmetry_equiv_pos_site_id
_symmetry_equiv_pos_as_xyz
1 x,y,z
2 -x,-y,-z
_cell_length_a                   8.998(3)
_cell_length_b                   14.203(3)
_cell_length_c                   20.465(4)
_cell_angle_alpha                89.308(6)
_cell_angle_beta                 87.965(5)
_cell_angle_gamma                82.542(5)
_cell_volume                     2591.56
loop_
_atom_site_label
_atom_site_type_symbol
_atom_site_fract_x
_atom_site_fract_y
_atom_site_fract_z
Cd1 Cd 0.15527(2) 0.361047(13) 0.250223(9)
Cd2 Cd 0.47210(2) 0.045370(13) -0.251266(9)
O1 O 0.3427(3) 0.1433(2) -0.17721(12)
O2 O 0.4550(3) 0.0284(2) -0.12111(13)
O3 O 0.2122(3) 0.23137(16) 0.17577(10)
O4 O 0.2075(3) 0.37505(16) 0.13904(10)
O5 O 0.5064(3) 0.04195(18) 0.61583(12)
O6 O 0.4062(3) 0.16255(18) 0.67441(11)
O7 O 0.3254(3) 0.26986(15) 0.32330(9)
O8 O 0.1142(2) 0.34338(17) 0.36232(10)
O9 O 0.6121(3) -0.10371(17) -0.25200(13)
H1 H 0.6081 -0.1280 -0.2138
H2 H 0.5758 -0.1390 -0.2791
C1 C 0.2363(3) 0.29174(19) 0.37104(13)
N1 N 0.2704(3) -0.03729(17) -0.26748(12)
N2 N 0.0740(3) -0.05974(19) -0.45154(12)
N3 N -0.2996(3) 0.10015(18) -0.23790(12)
N4 N -0.1575(3) 0.1771(2) -0.05356(13)
N5 N -0.2573(3) 0.2987(2) 0.05443(12)
N6 N -0.0993(3) 0.36330(16) 0.23923(11)
N7 N 0.2682(3) 0.49575(16) 0.26213(11)
N8 N 0.4236(3) 0.55196(18) 0.44806(12)
C2 C 0.3829(4) 0.1069(3) -0.12398(17)
C3 C 0.3373(3) 0.1610(2) -0.06090(14)
C4 C 0.3486(3) 0.1104(2) -0.00390(15)
H3 H 0.3824 0.0457 -0.0052
C5 C 0.3101(3) 0.1539(2) 0.05673(14)
H4 H 0.3186 0.1172 0.0947
C6 C 0.2607(3) 0.2483(2) 0.06144(13)
C7 C 0.2253(3) 0.2878(2) 0.12894(13)
C8 C 0.2463(3) 0.3050(2) 0.00305(13)
C9 C 0.2855(3) 0.2605(2) -0.05921(14)
C10 C 0.2676(5) 0.3179(3) -0.11617(16)
H5 H 0.2933 0.2905 -0.1567
C11 C 0.2149(6) 0.4101(3) -0.11346(19)
H6 H 0.2045 0.4457 -0.1519
C12 C 0.1752(6) 0.4540(3) -0.05316(19)
H7 H 0.1378 0.5181 -0.0517
C13 C 0.1914(4) 0.4026(2) 0.00305(17)
H8 H 0.1655 0.4326 0.0427
C14 C 0.4337(4) 0.1216(2) 0.62055(16)
C15 C 0.4408(3) 0.1405(2) 0.50044(15)
H9 H 0.5186 0.0904 0.5005
C16 C 0.3745(3) 0.17148(19) 0.55851(14)
C17 C 0.2529(3) 0.2476(2) 0.55860(13)
C18 C 0.2015(3) 0.28788(19) 0.49743(13)
C19 C 0.2783(3) 0.25363(18) 0.43806(12)
C20 C 0.3953(3) 0.1818(2) 0.44058(14)
H10 H 0.4453 0.1601 0.4020
C21 C 0.0779(4) 0.3604(2) 0.49916(15)
H11 H 0.0422 0.3865 0.4599
C22 C 0.0093(4) 0.3934(3) 0.55636(17)
H12 H -0.0726 0.4406 0.5558
C23 C 0.0624(4) 0.3559(3) 0.61590(17)
H13 H 0.0177 0.3798 0.6550
C24 C 0.1785(4) 0.2851(3) 0.61684(15)
H14 H 0.2107 0.2602 0.6569
C25 C 0.2415(4) -0.0667(2) -0.32688(15)
H15 H 0.3068 -0.0553 -0.3615
C26 C 0.1769(4) -0.0541(2) -0.21781(15)
H16 H 0.1971 -0.0351 -0.1761
C27 C 0.1196(4) -0.1131(2) -0.33995(16)
C28 C 0.0234(4) -0.1275(2) -0.28771(17)
H17 H -0.0612 -0.1570 -0.2943
C29 C 0.0517(4) -0.0985(2) -0.22601(17)
H18 H -0.0123 -0.1086 -0.1907
C30 C -0.0692(4) -0.0049(3) -0.43862(17)
H19 H -0.0789 0.0115 -0.3926
H20 H -0.1480 -0.0428 -0.4481
C31 C 0.0883(4) -0.0850(3) -0.52047(16)
H21 H 0.0123 -0.1246 -0.5309
H22 H 0.1861 -0.1206 -0.5299
C32 C -0.2214(4) 0.1273(2) -0.28973(16)
H23 H -0.2607 0.1242 -0.3310
C33 C -0.0277(4) 0.1650(3) -0.2238(2)
H24 H 0.0640 0.1875 -0.2194
C34 C -0.0856(4) 0.1596(3) -0.28460(18)
H25 H -0.0333 0.1776 -0.3217
C35 C -0.1049(4) 0.1373(3) -0.16965(17)
C36 C -0.2414(3) 0.1051(2) -0.17918(16)
H26 H -0.2951 0.0859 -0.1428
C37 C -0.0457(4) 0.1351(3) -0.10147(18)
H27 H -0.0131 0.0698 -0.0890
H28 H 0.0408 0.1694 -0.1014
C38 C -0.1125(5) 0.1542(3) 0.01283(18)
H29 H -0.0186 0.1784 0.0202
H30 H -0.0964 0.0858 0.0185
C39 C -0.2293(5) 0.1963(3) 0.06202(18)
H31 H -0.3216 0.1693 0.0564
H32 H -0.1956 0.1805 0.1058
C40 C -0.1866(4) 0.2795(3) -0.06046(16)
H33 H -0.2186 0.2955 -0.1044
H34 H -0.0947 0.3066 -0.0540
C41 C -0.3056(4) 0.3217(3) -0.01190(17)
H35 H -0.3230 0.3900 -0.0177
H36 H -0.3988 0.2965 -0.0190
C42 C -0.3659(4) 0.3415(3) 0.10318(17)
H37 H -0.4523 0.3071 0.1047
H38 H -0.3997 0.4064 0.0901
C43 C -0.3033(3) 0.3417(2) 0.17106(16)
C44 C -0.1563(3) 0.3560(2) 0.17998(14)
H39 H -0.0939 0.3608 0.1432
C45 C -0.1894(3) 0.3551(2) 0.29156(15)
H40 H -0.1518 0.3614 0.3328
C46 C -0.3351(4) 0.3380(3) 0.28714(16)
H41 H -0.3943 0.3315 0.3247
C47 C -0.3922(4) 0.3303(3) 0.22621(17)
H42 H -0.4902 0.3176 0.2222
C48 C 0.3209(4) 0.5421(2) 0.21074(15)
H43 H 0.3015 0.5230 0.1689
C49 C 0.4023(4) 0.6165(2) 0.21725(18)
H44 H 0.4378 0.6470 0.1805
C50 C 0.4309(4) 0.6457(2) 0.27934(17)
H45 H 0.4860 0.6959 0.2847
C51 C 0.3771(3) 0.5997(2) 0.33309(15)
C52 C 0.2972(3) 0.5245(2) 0.32198(14)
H46 H 0.2619 0.4924 0.3580
C53 C 0.3961(4) 0.6312(2) 0.40260(16)
H47 H 0.4793 0.6682 0.4031
H48 H 0.3063 0.6719 0.4171
C54 C 0.5747(4) 0.5016(2) 0.43863(15)
H49 H 0.6475 0.5445 0.4468
H50 H 0.5895 0.4805 0.3937
C55 C 0.4006(4) 0.5829(2) 0.51590(15)
H51 H 0.2993 0.6150 0.5226
H52 H 0.4700 0.6274 0.5253
C56 C 0.0991(4) -0.1427(2) -0.40939(16)
H53 H 0.1878 -0.1836 -0.4249
H54 H 0.0142 -0.1782 -0.4107
N1A N -0.2704(3) 0.03729(17) -0.73252(12)
N2A N -0.0740(3) 0.05974(19) -0.54846(12)
C25A C -0.2415(4) 0.0667(2) -0.67312(15)
H15A H -0.3068 0.0553 -0.6385
C26A C -0.1769(4) 0.0541(2) -0.78219(15)
H16A H -0.1971 0.0351 -0.8239
C27A C -0.1196(4) 0.1131(2) -0.66005(16)
C28A C -0.0234(4) 0.1275(2) -0.71229(17)
H17A H 0.0612 0.1570 -0.7057
C29A C -0.0517(4) 0.0985(2) -0.77399(17)
H18A H 0.0123 0.1086 -0.8093
C30A C 0.0692(4) 0.0049(3) -0.56138(17)
H19A H 0.0789 -0.0115 -0.6074
H20A H 0.1480 0.0428 -0.5519
C31A C -0.0883(4) 0.0850(3) -0.47953(16)
H21A H -0.0123 0.1246 -0.4691
H22A H -0.1861 0.1206 -0.4701
C56A C -0.0991(4) 0.1427(2) -0.59061(16)
H53A H -0.1878 0.1836 -0.5751
H54A H -0.0142 0.1782 -0.5893
N7A N 0.7318(3) 0.50425(16) 0.73787(11)
N8A N 0.5764(3) 0.44804(18) 0.55194(12)
C48A C 0.6791(4) 0.4579(2) 0.78926(15)
H43A H 0.6985 0.4770 0.8311
C49A C 0.5977(4) 0.3835(2) 0.78275(18)
H44A H 0.5622 0.3530 0.8195
C50A C 0.5691(4) 0.3543(2) 0.72066(17)
H45A H 0.5140 0.3041 0.7153
C51A C 0.6229(3) 0.4003(2) 0.66691(15)
C52A C 0.7028(3) 0.4755(2) 0.67802(14)
H46A H 0.7381 0.5076 0.6420
C53A C 0.6039(4) 0.3688(2) 0.59740(16)
H47A H 0.5207 0.3318 0.5969
H48A H 0.6937 0.3281 0.5829
C54A C 0.4253(4) 0.4984(2) 0.56137(15)
H49A H 0.3525 0.4555 0.5532
H50A H 0.4105 0.5195 0.6063
C55A C 0.5994(4) 0.4171(2) 0.48410(15)
H51A H 0.7007 0.3850 0.4774
H52A H 0.5300 0.3726 0.4747
Cd1A Cd -0.15527(2) -0.361047(13) -1.250223(9)
Cd2A Cd -0.47210(2) -0.045370(13) -0.748734(9)
O1A O -0.3427(3) -0.1433(2) -0.82279(12)
O2A O -0.4550(3) -0.0284(2) -0.87889(13)
O3A O -0.2122(3) -0.23137(16) -1.17577(10)
O4A O -0.2075(3) -0.37505(16) -1.13904(10)
O5A O -0.5064(3) -0.04195(18) -1.61583(12)
O6A O -0.4062(3) -0.16255(18) -1.67441(11)
O7A O -0.3254(3) -0.26986(15) -1.32330(9)
O8A O -0.1142(2) -0.34338(17) -1.36232(10)
O9A O -0.6121(3) 0.10371(17) -0.74800(13)
H1A H -0.6081 0.1280 -0.7862
H2A H -0.5758 0.1390 -0.7209
C1A C -0.2363(3) -0.29174(19) -1.37104(13)
N3A N 0.2996(3) -0.10015(18) -0.76210(12)
N4A N 0.1575(3) -0.1771(2) -0.94644(13)
N5A N 0.2573(3) -0.2987(2) -1.05443(12)
N6A N 0.0993(3) -0.36330(16) -1.23923(11)
C2A C -0.3829(4) -0.1069(3) -0.87602(17)
C3A C -0.3373(3) -0.1610(2) -0.93910(14)
C4A C -0.3486(3) -0.1104(2) -0.99610(15)
H3A H -0.3824 -0.0457 -0.9948
C5A C -0.3101(3) -0.1539(2) -1.05673(14)
H4A H -0.3186 -0.1172 -1.0947
C6A C -0.2607(3) -0.2483(2) -1.06144(13)
C7A C -0.2253(3) -0.2878(2) -1.12894(13)
C8A C -0.2463(3) -0.3050(2) -1.00305(13)
C9A C -0.2855(3) -0.2605(2) -0.94079(14)
C10A C -0.2676(5) -0.3179(3) -0.88383(16)
H5A H -0.2933 -0.2905 -0.8433
C11A C -0.2149(6) -0.4101(3) -0.88654(19)
H6A H -0.2045 -0.4457 -0.8481
C12A C -0.1752(6) -0.4540(3) -0.94684(19)
H7A H -0.1378 -0.5181 -0.9483
C13A C -0.1914(4) -0.4026(2) -1.00305(17)
H8A H -0.1655 -0.4326 -1.0427
C14A C -0.4337(4) -0.1216(2) -1.62055(16)
C15A C -0.4408(3) -0.1405(2) -1.50044(15)
H9A H -0.5186 -0.0904 -1.5005
C16A C -0.3745(3) -0.17148(19) -1.55851(14)
C17A C -0.2529(3) -0.2476(2) -1.55860(13)
C18A C -0.2015(3) -0.28788(19) -1.49743(13)
C19A C -0.2783(3) -0.25363(18) -1.43806(12)
C20A C -0.3953(3) -0.1818(2) -1.44058(14)
H10A H -0.4453 -0.1601 -1.4020
C21A C -0.0779(4) -0.3604(2) -1.49916(15)
H11A H -0.0422 -0.3865 -1.4599
C22A C -0.0093(4) -0.3934(3) -1.55636(17)
H12A H 0.0726 -0.4406 -1.5558
C23A C -0.0624(4) -0.3559(3) -1.61590(17)
H13A H -0.0177 -0.3798 -1.6550
C24A C -0.1785(4) -0.2851(3) -1.61684(15)
H14A H -0.2107 -0.2602 -1.6569
C32A C 0.2214(4) -0.1273(2) -0.71027(16)
H23A H 0.2607 -0.1242 -0.6690
C33A C 0.0277(4) -0.1650(3) -0.7762(2)
H24A H -0.0640 -0.1875 -0.7806
C34A C 0.0856(4) -0.1596(3) -0.71540(18)
H25A H 0.0333 -0.1776 -0.6783
C35A C 0.1049(4) -0.1373(3) -0.83035(17)
C36A C 0.2414(3) -0.1051(2) -0.82082(16)
H26A H 0.2951 -0.0859 -0.8572
C37A C 0.0457(4) -0.1351(3) -0.89853(18)
H27A H 0.0131 -0.0698 -0.9110
H28A H -0.0408 -0.1694 -0.8986
C38A C 0.1125(5) -0.1542(3) -1.01283(18)
H29A H 0.0186 -0.1784 -1.0202
H30A H 0.0964 -0.0858 -1.0185
C39A C 0.2293(5) -0.1963(3) -1.06202(18)
H31A H 0.3216 -0.1693 -1.0564
H32A H 0.1956 -0.1805 -1.1058
C40A C 0.1866(4) -0.2795(3) -0.93954(16)
H33A H 0.2186 -0.2955 -0.8956
H34A H 0.0947 -0.3066 -0.9460
C41A C 0.3056(4) -0.3217(3) -0.98810(17)
H35A H 0.3230 -0.3900 -0.9823
H36A H 0.3988 -0.2965 -0.9810
C42A C 0.3659(4) -0.3415(3) -1.10318(17)
H37A H 0.4523 -0.3071 -1.1047
H38A H 0.3997 -0.4064 -1.0901
C43A C 0.3033(3) -0.3417(2) -1.17106(16)
C44A C 0.1563(3) -0.3560(2) -1.17998(14)
H39A H 0.0939 -0.3608 -1.1432
C45A C 0.1894(3) -0.3551(2) -1.29156(15)
H40A H 0.1518 -0.3614 -1.3328
C46A C 0.3351(4) -0.3380(3) -1.28714(16)
H41A H 0.3943 -0.3315 -1.3247
C47A C 0.3922(4) -0.3303(3) -1.22621(17)
H42A H 0.4902 -0.3176 -1.2222
Cd1A_2 Cd 0.84473(2) 0.638953(13) 0.749777(9)
Cd2_2 Cd -0.52790(2) 0.045370(13) -0.251266(9)
Cd2_3 Cd 0.47210(2) 0.045370(13) 0.748734(9)
Cd2A_2 Cd -0.47210(2) -0.045370(13) -1.748734(9)
Cd2A_3 Cd 0.52790(2) -0.045370(13) -0.748734(9)
O5_2 O 0.5064(3) 0.04195(18) -0.38417(12)
O5A_2 O -0.5064(3) -0.04195(18) -0.61583(12)
O6_2 O 0.4062(3) 0.16255(18) -0.32559(11)
O6A_2 O -0.4062(3) -0.16255(18) -0.67441(11)
N3_2 N 0.7004(3) 0.10015(18) -0.23790(12)
N3A_2 N -0.7004(3) -0.10015(18) -0.76210(12)
N7A_2 N -0.2682(3) -0.49575(16) -1.26213(11)
loop_
_geom_bond_atom_site_label_1
_geom_bond_atom_site_label_2
_geom_bond_site_symmetry_1
_geom_bond_site_symmetry_2
Cd1 O3 1_555 1_555
Cd2 O1 1_555 1_555
O1 C2 1_555 1_555
O2 Cd2 1_555 1_555
O3 C7 1_555 1_555
O4 Cd1 1_555 1_555
O5 C14 1_555 1_555
O6 C14 1_555 1_555
O7 Cd1 1_555 1_555
O8 Cd1 1_555 1_555
O9 Cd2 1_555 1_555
H1 O9 1_555 1_555
H2 O9 1_555 1_555
C1 O7 1_555 1_555
N1 Cd2 1_555 1_555
N2 C30 1_555 1_555
N3 C32 1_555 1_555
N4 C37 1_555 1_555
N5 C39 1_555 1_555
N6 Cd1 1_555 1_555
N7 Cd1 1_555 1_555
N8 C53 1_555 1_555
C2 O2 1_555 1_555
C3 C2 1_555 1_555
C4 C3 1_555 1_555
H3 C4 1_555 1_555
C5 C4 1_555 1_555
H4 C5 1_555 1_555
C6 C5 1_555 1_555
C7 O4 1_555 1_555
C8 C6 1_555 1_555
C9 C3 1_555 1_555
C10 C9 1_555 1_555
H5 C10 1_555 1_555
C11 C10 1_555 1_555
H6 C11 1_555 1_555
C12 C11 1_555 1_555
H7 C12 1_555 1_555
C13 C8 1_555 1_555
H8 C13 1_555 1_555
C14 C16 1_555 1_555
C15 H9 1_555 1_555
C16 C15 1_555 1_555
C17 C16 1_555 1_555
C18 C17 1_555 1_555
C19 C1 1_555 1_555
C20 C15 1_555 1_555
H10 C20 1_555 1_555
C21 C18 1_555 1_555
H11 C21 1_555 1_555
C22 C21 1_555 1_555
H12 C22 1_555 1_555
C23 C22 1_555 1_555
H13 C23 1_555 1_555
C24 C17 1_555 1_555
H14 C24 1_555 1_555
C25 N1 1_555 1_555
H15 C25 1_555 1_555
C26 N1 1_555 1_555
H16 C26 1_555 1_555
C27 C25 1_555 1_555
C28 C27 1_555 1_555
H17 C28 1_555 1_555
C29 C26 1_555 1_555
H18 C29 1_555 1_555
C30 H19 1_555 1_555
H20 C30 1_555 1_555
C31 N2 1_555 1_555
H21 C31 1_555 1_555
H22 C31 1_555 1_555
C32 H23 1_555 1_555
C33 H24 1_555 1_555
C34 C32 1_555 1_555
H25 C34 1_555 1_555
C35 C33 1_555 1_555
C36 N3 1_555 1_555
H26 C36 1_555 1_555
C37 C35 1_555 1_555
H27 C37 1_555 1_555
H28 C37 1_555 1_555
C38 N4 1_555 1_555
H29 C38 1_555 1_555
H30 C38 1_555 1_555
C39 C38 1_555 1_555
H31 C39 1_555 1_555
H32 C39 1_555 1_555
C40 N4 1_555 1_555
H33 C40 1_555 1_555
H34 C40 1_555 1_555
C41 N5 1_555 1_555
H35 C41 1_555 1_555
H36 C41 1_555 1_555
C42 N5 1_555 1_555
H37 C42 1_555 1_555
H38 C42 1_555 1_555
C43 C42 1_555 1_555
C44 N6 1_555 1_555
H39 C44 1_555 1_555
C45 N6 1_555 1_555
H40 C45 1_555 1_555
C46 C45 1_555 1_555
H41 C46 1_555 1_555
C47 C43 1_555 1_555
H42 C47 1_555 1_555
C48 N7 1_555 1_555
H43 C48 1_555 1_555
C49 C48 1_555 1_555
H44 C49 1_555 1_555
C50 C49 1_555 1_555
H45 C50 1_555 1_555
C51 C50 1_555 1_555
C52 N7 1_555 1_555
H46 C52 1_555 1_555
C53 C51 1_555 1_555
H47 C53 1_555 1_555
H48 C53 1_555 1_555
C54 N8 1_555 1_555
H49 C54 1_555 1_555
H50 C54 1_555 1_555
C55 N8 1_555 1_555
H51 C55 1_555 1_555
H52 C55 1_555 1_555
C56 N2 1_555 1_555
H53 C56 1_555 1_555
H54 C56 1_555 1_555
N1A C25A 1_555 1_555
N2A C30A 1_555 1_555
C25A H15A 1_555 1_555
C26A N1A 1_555 1_555
H16A C26A 1_555 1_555
C27A C25A 1_555 1_555
C28A C27A 1_555 1_555
H17A C28A 1_555 1_555
C29A C26A 1_555 1_555
H18A C29A 1_555 1_555
C30A C31 1_555 1_555
H19A C30A 1_555 1_555
H20A C30A 1_555 1_555
C31A C30 1_555 1_555
H21A C31A 1_555 1_555
H22A C31A 1_555 1_555
C56A N2A 1_555 1_555
H53A C56A 1_555 1_555
H54A C56A 1_555 1_555
N7A C48A 1_555 1_555
N8A C53A 1_555 1_555
C48A H43A 1_555 1_555
C49A C48A 1_555 1_555
H44A C49A 1_555 1_555
C50A C49A 1_555 1_555
H45A C50A 1_555 1_555
C51A C50A 1_555 1_555
C52A N7A 1_555 1_555
H46A C52A 1_555 1_555
C53A C51A 1_555 1_555
H47A C53A 1_555 1_555
H48A C53A 1_555 1_555
C54A C55 1_555 1_555
H49A C54A 1_555 1_555
H50A C54A 1_555 1_555
C55A C54 1_555 1_555
H51A C55A 1_555 1_555
H52A C55A 1_555 1_555
Cd1A O3A 1_555 1_555
Cd2A N1A 1_555 1_555
O1A Cd2A 1_555 1_555
O2A Cd2A 1_555 1_555
O3A C7A 1_555 1_555
O4A Cd1A 1_555 1_555
O5A C14A 1_555 1_555
O6A C14A 1_555 1_555
O7A Cd1A 1_555 1_555
O8A Cd1A 1_555 1_555
O9A Cd2A 1_555 1_555
H1A O9A 1_555 1_555
H2A O9A 1_555 1_555
C1A O7A 1_555 1_555
N3A C32A 1_555 1_555
N4A C37A 1_555 1_555
N5A C39A 1_555 1_555
N6A Cd1A 1_555 1_555
C2A O1A 1_555 1_555
C3A C2A 1_555 1_555
C4A C3A 1_555 1_555
H3A C4A 1_555 1_555
C5A C4A 1_555 1_555
H4A C5A 1_555 1_555
C6A C5A 1_555 1_555
C7A O4A 1_555 1_555
C8A C6A 1_555 1_555
C9A C3A 1_555 1_555
C10A C9A 1_555 1_555
H5A C10A 1_555 1_555
C11A C10A 1_555 1_555
H6A C11A 1_555 1_555
C12A C11A 1_555 1_555
H7A C12A 1_555 1_555
C13A C8A 1_555 1_555
H8A C13A 1_555 1_555
C14A C16A 1_555 1_555
C15A H9A 1_555 1_555
C16A C15A 1_555 1_555
C17A C16A 1_555 1_555
C18A C17A 1_555 1_555
C19A C1A 1_555 1_555
C20A C15A 1_555 1_555
H10A C20A 1_555 1_555
C21A C18A 1_555 1_555
H11A C21A 1_555 1_555
C22A C21A 1_555 1_555
H12A C22A 1_555 1_555
C23A C22A 1_555 1_555
H13A C23A 1_555 1_555
C24A C17A 1_555 1_555
H14A C24A 1_555 1_555
C32A H23A 1_555 1_555
C33A H24A 1_555 1_555
C34A C32A 1_555 1_555
H25A C34A 1_555 1_555
C35A C33A 1_555 1_555
C36A N3A 1_555 1_555
H26A C36A 1_555 1_555
C37A C35A 1_555 1_555
H27A C37A 1_555 1_555
H28A C37A 1_555 1_555
C38A N4A 1_555 1_555
H29A C38A 1_555 1_555
H30A C38A 1_555 1_555
C39A C38A 1_555 1_555
H31A C39A 1_555 1_555
H32A C39A 1_555 1_555
C40A N4A 1_555 1_555
H33A C40A 1_555 1_555
H34A C40A 1_555 1_555
C41A N5A 1_555 1_555
H35A C41A 1_555 1_555
H36A C41A 1_555 1_555
C42A N5A 1_555 1_555
H37A C42A 1_555 1_555
H38A C42A 1_555 1_555
C43A C42A 1_555 1_555
C44A N6A 1_555 1_555
H39A C44A 1_555 1_555
C45A N6A 1_555 1_555
H40A C45A 1_555 1_555
C46A C45A 1_555 1_555
H41A C46A 1_555 1_555
C47A C43A 1_555 1_555
H42A C47A 1_555 1_555
Cd1A_2 N7A 1_555 1_555
Cd2_2 N3 1_555 1_555
Cd2_3 O5 1_555 1_555
Cd2A_2 O5A 1_555 1_555
Cd2A_3 N3A 1_555 1_555
O5_2 Cd2 1_555 1_555
O5A_2 Cd2A 1_555 1_555
O6_2 Cd2 1_555 1_555
O6A_2 Cd2A 1_555 1_555
N3_2 Cd2 1_555 1_555
N3A_2 Cd2A 1_555 1_555
N7A_2 Cd1A 1_555 1_555
O6 Cd2_3 1_555 1_555
O8 C1 1_555 1_555
C6 C7 1_555 1_555
C8 C9 1_555 1_555
C12 C13 1_555 1_555
C18 C19 1_555 1_555
C19 C20 1_555 1_555
C23 C24 1_555 1_555
C27 C56 1_555 1_555
C28 C29 1_555 1_555
C33 C34 1_555 1_555
C35 C36 1_555 1_555
C40 C41 1_555 1_555
C43 C44 1_555 1_555
C46 C47 1_555 1_555
C51 C52 1_555 1_555
N2A C31A 1_555 1_555
C27A C56A 1_555 1_555
C28A C29A 1_555 1_555
N8A C54A 1_555 1_555
N8A C55A 1_555 1_555
C51A C52A 1_555 1_555
O2A C2A 1_555 1_555
O6A Cd2A_2 1_555 1_555
O8A C1A 1_555 1_555
C6A C7A 1_555 1_555
C8A C9A 1_555 1_555
C12A C13A 1_555 1_555
C18A C19A 1_555 1_555
C19A C20A 1_555 1_555
C23A C24A 1_555 1_555
C33A C34A 1_555 1_555
C35A C36A 1_555 1_555
C40A C41A 1_555 1_555
C43A C44A 1_555 1_555
C46A C47A 1_555 1_555

#END
