
#######################################################################
#
#                 Cambridge Crystallographic Data Centre
#                                CCDC 
#
#######################################################################
#
# If this CIF has been generated from an entry in the Cambridge 
# Structural Database, then it will include bibliographic, chemical, 
# crystal, experimental, refinement or atomic coordinate data resulting 
# from the CCDC's data processing and validation procedures.
#
#######################################################################

data_MOFQEF
_symmetry_cell_setting           triclinic
_symmetry_space_group_name_H-M   'P -1'
_symmetry_Int_Tables_number      2
_space_group_name_Hall           '-P 1'
loop_
_symmetry_equiv_pos_site_id
_symmetry_equiv_pos_as_xyz
1 x,y,z
2 -x,-y,-z
_cell_length_a                   9.570(4)
_cell_length_b                   10.216(4)
_cell_length_c                   14.104(5)
_cell_angle_alpha                72.737(4)
_cell_angle_beta                 78.811(5)
_cell_angle_gamma                66.531(4)
_cell_volume                     1203.32
loop_
_atom_site_label
_atom_site_type_symbol
_atom_site_fract_x
_atom_site_fract_y
_atom_site_fract_z
Zn1 Zn 0.82545(9) 0.37712(7) 0.24552(5)
Br1 Br 0.73801(13) 0.06431(9) -0.14195(6)
O1 O 0.8111(5) 0.2733(4) 0.1500(3)
O2 O 0.8596(6) 0.0911(5) 0.2859(4)
O3 O 0.8433(6) -0.3850(5) 0.2942(3)
O4 O 0.7806(5) -0.4203(5) 0.1627(3)
N1 N 0.6664(6) 0.3690(5) 0.3611(4)
N2 N 0.5612(6) 0.2891(6) 0.5109(4)
N3 N 0.7260(6) -0.1470(5) 0.6722(4)
N4 N 0.9518(6) -0.2880(5) 0.7315(4)
C1 C 0.8366(7) 0.1379(6) 0.1970(5)
C2 C 0.8269(7) 0.0384(6) 0.1401(5)
C3 C 0.8336(7) -0.1027(6) 0.1912(5)
H1 H 0.8549 -0.1371 0.2576
C4 C 0.8091(8) -0.1934(6) 0.1452(5)
C5 C 0.7787(8) -0.1436(7) 0.0456(5)
H2 H 0.7611 -0.2027 0.0138
C6 C 0.7753(8) -0.0030(7) -0.0054(5)
C7 C 0.7998(8) 0.0872(7) 0.0406(5)
H3 H 0.7981 0.1802 0.0047
C8 C 0.8128(7) -0.3432(7) 0.2075(5)
C9 C 0.5064(8) 0.4264(6) 0.3577(5)
C10 C 0.4169(9) 0.5162(7) 0.2802(5)
H4 H 0.4604 0.5512 0.2178
C11 C 0.2603(9) 0.5522(8) 0.2988(6)
H5 H 0.1974 0.6129 0.2481
C12 C 0.1948(9) 0.4986(7) 0.3929(6)
H6 H 0.0895 0.5222 0.4027
C13 C 0.2830(8) 0.4119(7) 0.4710(5)
H7 H 0.2389 0.3793 0.5337
C14 C 0.4398(8) 0.3752(6) 0.4526(5)
C15 C 0.6902(8) 0.2903(6) 0.4534(5)
H8 H 0.7870 0.2404 0.4763
C16 C 0.5530(8) 0.2141(7) 0.6178(5)
H9 H 0.4827 0.2843 0.6548
H10 H 0.6531 0.1784 0.6419
C17 C 0.5001(8) 0.0856(7) 0.6371(5)
H11 H 0.4757 0.0548 0.7082
H12 H 0.4065 0.1203 0.6051
C18 C 0.6126(8) -0.0478(7) 0.6015(5)
H13 H 0.5566 -0.1018 0.5899
H14 H 0.6653 -0.0150 0.5385
C19 C 0.8775(8) -0.1850(7) 0.6569(5)
H15 H 0.9264 -0.1431 0.5995
C20 C 0.8366(7) -0.3214(6) 0.8004(4)
C21 C 0.6960(8) -0.2348(6) 0.7640(5)
C22 C 0.5614(9) -0.2445(7) 0.8157(5)
H16 H 0.4673 -0.1850 0.7906
C23 C 0.5721(9) -0.3458(8) 0.9056(6)
H17 H 0.4833 -0.3559 0.9418
C24 C 0.7117(9) -0.4337(8) 0.9444(5)
H18 H 0.7141 -0.4997 1.0064
C25 C 0.8480(8) -0.4248(7) 0.8921(5)
H19 H 0.9422 -0.4847 0.9169
Zn1_2 Zn 0.82545(9) -0.62288(7) 0.24552(5)
Zn1A Zn 1.17455(9) -0.37712(7) 0.75448(5)
O4_2 O 0.7806(5) 0.5797(5) 0.1627(3)
N4A N 1.0482(6) 0.2880(5) 0.2685(4)
O5 O 1.0184(8) 0.8543(7) 0.4194(5)
H20 H 0.9297 0.8495 0.4335
H21 H 1.0180 0.9356 0.3797
loop_
_geom_bond_atom_site_label_1
_geom_bond_atom_site_label_2
_geom_bond_site_symmetry_1
_geom_bond_site_symmetry_2
Zn1 O1 1_555 1_555
Br1 C6 1_555 1_555
O1 C1 1_555 1_555
O2 C1 1_555 1_555
O3 C8 1_555 1_555
O4 C8 1_555 1_555
N1 Zn1 1_555 1_555
N2 C14 1_555 1_555
N3 C18 1_555 1_555
N4 C19 1_555 1_555
C1 C2 1_555 1_555
C2 C3 1_555 1_555
C3 H1 1_555 1_555
C4 C3 1_555 1_555
C5 C4 1_555 1_555
H2 C5 1_555 1_555
C6 C5 1_555 1_555
C7 C2 1_555 1_555
H3 C7 1_555 1_555
C8 C4 1_555 1_555
C9 N1 1_555 1_555
C10 C9 1_555 1_555
H4 C10 1_555 1_555
C11 C10 1_555 1_555
H5 C11 1_555 1_555
C12 C11 1_555 1_555
H6 C12 1_555 1_555
C13 C12 1_555 1_555
H7 C13 1_555 1_555
C14 C9 1_555 1_555
C15 N1 1_555 1_555
H8 C15 1_555 1_555
C16 N2 1_555 1_555
H9 C16 1_555 1_555
H10 C16 1_555 1_555
C17 C16 1_555 1_555
H11 C17 1_555 1_555
H12 C17 1_555 1_555
C18 C17 1_555 1_555
H13 C18 1_555 1_555
H14 C18 1_555 1_555
C19 N3 1_555 1_555
H15 C19 1_555 1_555
C20 N4 1_555 1_555
C21 N3 1_555 1_555
C22 C21 1_555 1_555
H16 C22 1_555 1_555
C23 C22 1_555 1_555
H17 C23 1_555 1_555
C24 C23 1_555 1_555
H18 C24 1_555 1_555
C25 C20 1_555 1_555
H19 C25 1_555 1_555
O5 H20 1_555 1_555
H21 O5 1_555 1_555
Zn1_2 O4 1_555 1_555
Zn1A N4 1_555 1_555
O4_2 Zn1 1_555 1_555
N4A Zn1 1_555 1_555
N2 C15 1_555 1_555
C6 C7 1_555 1_555
C13 C14 1_555 1_555
C20 C21 1_555 1_555
C24 C25 1_555 1_555

#END
