
#######################################################################
#
#                 Cambridge Crystallographic Data Centre
#                                CCDC 
#
#######################################################################
#
# If this CIF has been generated from an entry in the Cambridge 
# Structural Database, then it will include bibliographic, chemical, 
# crystal, experimental, refinement or atomic coordinate data resulting 
# from the CCDC's data processing and validation procedures.
#
#######################################################################

data_MOFQAB
_symmetry_cell_setting           triclinic
_symmetry_space_group_name_H-M   'P -1'
_symmetry_Int_Tables_number      2
_space_group_name_Hall           '-P 1'
loop_
_symmetry_equiv_pos_site_id
_symmetry_equiv_pos_as_xyz
1 x,y,z
2 -x,-y,-z
_cell_length_a                   8.803(4)
_cell_length_b                   9.512(4)
_cell_length_c                   10.099(4)
_cell_angle_alpha                115.283(4)
_cell_angle_beta                 96.272(5)
_cell_angle_gamma                91.594(5)
_cell_volume                     757.437
loop_
_atom_site_label
_atom_site_type_symbol
_atom_site_fract_x
_atom_site_fract_y
_atom_site_fract_z
Cd1 Cd 0.79018(5) 1.01542(6) 1.00243(5)
Cl1 Cl 1.02591(19) 1.20835(19) 1.09425(19)
O1 O 0.6143(5) 0.8892(6) 0.7888(5)
O2 O 0.7926(5) 1.0332(6) 0.7583(5)
O3 O 0.6474(5) 0.8629(6) 0.0762(5)
O4 O 0.7849(6) 1.0438(6) 0.2715(5)
O5 O 0.6274(5) 1.2157(5) 1.1004(5)
H1 H 0.5854 1.2073 1.1688
H2 H 0.5754 1.1869 1.0157
Br1 Br 0.32694(9) 0.48805(8) 0.24477(8)
C1 C 0.6803(8) 0.9316(8) 0.7073(7)
C2 C 0.6253(7) 0.8606(7) 0.5464(7)
C3 C 0.5199(8) 0.7317(8) 0.4833(8)
H3 H 0.4834 0.6883 0.5418
C4 C 0.4683(8) 0.6665(8) 0.3325(7)
C5 C 0.5213(7) 0.7288(8) 0.2438(7)
H4 H 0.4853 0.6846 0.1433
C6 C 0.6301(7) 0.8592(8) 0.3050(7)
C7 C 0.6790(7) 0.9211(8) 0.4542(7)
H5 H 0.7509 1.0070 0.4958
C8 C 0.6908(8) 0.9275(8) 0.2126(7)
Cd1_2 Cd 0.79018(5) 1.01542(6) 0.00243(5)
Cd1A Cd 1.20982(5) 0.98458(6) 0.99757(5)
Cl1A Cl 0.97409(19) 0.79165(19) 0.90575(19)
O3_2 O 0.6474(5) 0.8629(6) 1.0762(5)
O4_2 O 0.7849(6) 1.0438(6) 1.2715(5)
N1 N -0.0274(7) 0.2361(7) 0.7033(6)
H6 H -0.0748 0.1612 0.7127
N2 N 0.0506(6) 0.3865(6) 0.6092(6)
C9 C 0.1169(8) 0.4471(8) 0.7538(8)
H7 H 0.1831 0.5372 0.8026
C10 C 0.0702(8) 0.3546(9) 0.8120(8)
H8 H 0.0982 0.3674 0.9082
C11 C -0.0355(9) 0.2582(9) 0.5813(8)
H9 H -0.0925 0.1938 0.4910
C12 C 0.0669(9) 0.4498(9) 0.5010(9)
H10 H 0.0665 0.3649 0.4035
H11 H 0.1636 0.5128 0.5274
N1A N 0.0274(7) 0.7639(7) 0.2967(6)
H6A H 0.0748 0.8388 0.2873
N2A N -0.0506(6) 0.6135(6) 0.3908(6)
C9A C -0.1169(8) 0.5529(8) 0.2462(8)
H7A H -0.1831 0.4628 0.1974
C10A C -0.0702(8) 0.6454(9) 0.1880(8)
H8A H -0.0982 0.6326 0.0918
C11A C 0.0355(9) 0.7418(9) 0.4187(8)
H9A H 0.0925 0.8062 0.5090
C12A C -0.0669(9) 0.5502(9) 0.4990(9)
H10A H -0.0665 0.6351 0.5965
H11A H -0.1636 0.4872 0.4726
loop_
_geom_bond_atom_site_label_1
_geom_bond_atom_site_label_2
_geom_bond_site_symmetry_1
_geom_bond_site_symmetry_2
Cd1 Cl1 1_555 1_555
Cl1 Cd1A 1_555 1_555
O1 Cd1 1_555 1_555
O2 Cd1 1_555 1_555
O3 C8 1_555 1_555
O4 C8 1_555 1_555
O5 Cd1 1_555 1_555
H1 O5 1_555 1_555
H2 O5 1_555 1_555
Br1 C4 1_555 1_555
C1 O1 1_555 1_555
C2 C1 1_555 1_555
C3 C2 1_555 1_555
H3 C3 1_555 1_555
C4 C3 1_555 1_555
C5 C4 1_555 1_555
H4 C5 1_555 1_555
C6 C5 1_555 1_555
C7 C2 1_555 1_555
H5 C7 1_555 1_555
C8 C6 1_555 1_555
N1 H6 1_555 1_555
N2 C9 1_555 1_555
C9 H7 1_555 1_555
C10 N1 1_555 1_555
H8 C10 1_555 1_555
C11 N1 1_555 1_555
H9 C11 1_555 1_555
C12 N2 1_555 1_555
H10 C12 1_555 1_555
H11 C12 1_555 1_555
Cd1_2 O3 1_555 1_555
Cd1A Cl1A 1_555 1_555
Cl1A Cd1 1_555 1_555
O3_2 Cd1 1_555 1_555
O4_2 Cd1 1_555 1_555
N1A H6A 1_555 1_555
N2A C9A 1_555 1_555
C9A H7A 1_555 1_555
C10A N1A 1_555 1_555
H8A C10A 1_555 1_555
C11A N1A 1_555 1_555
H9A C11A 1_555 1_555
C12A C12 1_555 1_555
H10A C12A 1_555 1_555
H11A C12A 1_555 1_555
O2 C1 1_555 1_555
O4 Cd1_2 1_555 1_555
C6 C7 1_555 1_555
N2 C11 1_555 1_555
C9 C10 1_555 1_555
N2A C11A 1_555 1_555
N2A C12A 1_555 1_555
C9A C10A 1_555 1_555

#END
