
#######################################################################
#
#                 Cambridge Crystallographic Data Centre
#                                CCDC 
#
#######################################################################
#
# If this CIF has been generated from an entry in the Cambridge 
# Structural Database, then it will include bibliographic, chemical, 
# crystal, experimental, refinement or atomic coordinate data resulting 
# from the CCDC's data processing and validation procedures.
#
#######################################################################

data_MOFQAZ
_symmetry_cell_setting           cubic
_symmetry_space_group_name_H-M   'P 21 3'
_symmetry_Int_Tables_number      198
_space_group_name_Hall           'P 2ac 2ab 3'
loop_
_symmetry_equiv_pos_site_id
_symmetry_equiv_pos_as_xyz
1 x,y,z
2 y,z,x
3 z,x,y
4 1/2+x,1/2-y,-z
5 1/2+y,1/2-z,-x
6 1/2+z,1/2-x,-y
7 -y,1/2+z,1/2-x
8 -z,1/2+x,1/2-y
9 1/2-z,-x,1/2+y
10 1/2-x,-y,1/2+z
11 1/2-y,-z,1/2+x
12 -x,1/2+y,1/2-z
_cell_length_a                   15.365(5)
_cell_length_b                   15.365(5)
_cell_length_c                   15.365(5)
_cell_angle_alpha                90
_cell_angle_beta                 90
_cell_angle_gamma                90
_cell_volume                     3627.42
loop_
_atom_site_label
_atom_site_type_symbol
_atom_site_fract_x
_atom_site_fract_y
_atom_site_fract_z
Cr1 Cr 0.8985(2) 0.6015(2) 0.3985(2)
Mn1 Mn 0.8516(2) 0.3516(2) 0.1484(2)
O1 O 0.8858(7) 0.5869(6) 0.2642(6)
O2 O 0.8645(7) 0.4867(6) 0.1622(6)
O3 O 0.8897(7) 0.4660(6) 0.3849(7)
O4 O 0.8620(8) 0.3652(7) 0.2830(6)
C11 C 0.876(1) 0.5124(9) 0.2387(9)
C12 C 0.875(1) 0.442(1) 0.309(1)
O1E O 0.7642(6) 0.6142(7) 0.4131(6)
O2E O 0.6622(6) 0.6355(7) 0.5133(6)
O3E O 0.8849(7) 0.6103(7) 0.5340(6)
O4E O 0.7830(6) 0.6380(8) 0.6348(7)
C11E C 0.7387(9) 0.624(1) 0.4876(9)
C12E C 0.809(1) 0.625(1) 0.558(1)
O1J O 0.9131(6) 0.7358(6) 0.3858(7)
O2J O 1.0133(6) 0.8378(6) 0.3645(7)
O3J O 1.0340(6) 0.6151(7) 0.3897(7)
O4J O 1.1348(7) 0.7170(6) 0.3620(8)
C11J C 0.9876(9) 0.7613(9) 0.376(1)
C12J C 1.058(1) 0.691(1) 0.375(1)
O2D O 0.9867(6) 0.3378(6) 0.1355(7)
O2G O 0.8378(6) 0.3645(7) 0.0133(6)
O4D O 0.8652(7) 0.2170(6) 0.1380(8)
O4G O 0.7170(6) 0.3620(8) 0.1348(7)
Mn1E Mn 0.6484(2) 0.6484(2) 0.6484(2)
Mn1B Mn 1.1484(2) 0.8516(2) 0.3516(2)
Ru1 Ru 0.87506(9) 0.87506(9) 0.87506(9)
N1 N 0.8743(9) 0.8631(8) 1.0075(7)
N2 N 0.8777(9) 0.7441(7) 0.8879(8)
C1 C 0.873(1) 0.781(1) 1.0374(9)
C2 C 0.876(1) 0.7119(9) 0.969(1)
C3 C 0.876(1) 0.620(1) 0.989(1)
C4 C 0.876(2) 0.566(1) 0.915(1)
C5 C 0.878(2) 0.595(1) 0.836(1)
C6 C 0.878(1) 0.688(1) 0.819(1)
C7 C 0.876(1) 0.763(1) 1.130(1)
C8 C 0.874(2) 0.832(1) 1.183(1)
C9 C 0.873(2) 0.916(1) 1.153(2)
C10 C 0.874(1) 0.927(1) 1.064(1)
H1 H 0.8747 0.5953 1.0512
H2 H 0.8760 0.5013 0.9284
H3 H 0.8845 0.5526 0.7857
H4 H 0.8764 0.7092 0.7578
H5 H 0.8800 0.7002 1.1515
H6 H 0.8726 0.8211 1.2480
H7 H 0.8782 0.9671 1.1961
H8 H 0.8709 0.9899 1.0424
N1A N 0.8631(8) 1.0075(7) 0.8743(9)
N2A N 0.7441(7) 0.8879(8) 0.8777(9)
C1A C 0.781(1) 1.0374(9) 0.873(1)
C2A C 0.7119(9) 0.969(1) 0.876(1)
C3A C 0.620(1) 0.989(1) 0.876(1)
C4A C 0.566(1) 0.915(1) 0.876(2)
C5A C 0.595(1) 0.836(1) 0.878(2)
C6A C 0.688(1) 0.819(1) 0.878(1)
C7A C 0.763(1) 1.130(1) 0.876(1)
C8A C 0.832(1) 1.183(1) 0.874(2)
C9A C 0.916(1) 1.153(2) 0.873(2)
C10A C 0.927(1) 1.064(1) 0.874(1)
H1A H 0.5953 1.0512 0.8747
H2A H 0.5013 0.9284 0.8760
H3A H 0.5526 0.7857 0.8845
H4A H 0.7092 0.7578 0.8764
H5A H 0.7002 1.1515 0.8800
H6A H 0.8211 1.2480 0.8726
H7A H 0.9671 1.1961 0.8782
H8A H 0.9899 1.0424 0.8709
N1B N 1.0075(7) 0.8743(9) 0.8631(8)
N2B N 0.8879(8) 0.8777(9) 0.7441(7)
C1B C 1.0374(9) 0.873(1) 0.781(1)
C2B C 0.969(1) 0.876(1) 0.7119(9)
C3B C 0.989(1) 0.876(1) 0.620(1)
C4B C 0.915(1) 0.876(2) 0.566(1)
C5B C 0.836(1) 0.878(2) 0.595(1)
C6B C 0.819(1) 0.878(1) 0.688(1)
C7B C 1.130(1) 0.876(1) 0.763(1)
C8B C 1.183(1) 0.874(2) 0.832(1)
C9B C 1.153(2) 0.873(2) 0.916(1)
C10B C 1.064(1) 0.874(1) 0.927(1)
H1B H 1.0512 0.8747 0.5953
H2B H 0.9284 0.8760 0.5013
H3B H 0.7857 0.8845 0.5526
H4B H 0.7578 0.8764 0.7092
H5B H 1.1515 0.8800 0.7002
H6B H 1.2480 0.8726 0.8211
H7B H 1.1961 0.8782 0.9671
H8B H 1.0424 0.8709 0.9899
loop_
_geom_bond_atom_site_label_1
_geom_bond_atom_site_label_2
_geom_bond_site_symmetry_1
_geom_bond_site_symmetry_2
Ru1 N1 1_555 1_555
Cr1 O1 1_555 1_555
Mn1 O2 1_555 1_555
O1 C11 1_555 1_555
O2 C11 1_555 1_555
O3 Cr1 1_555 1_555
O4 Mn1 1_555 1_555
N1 C1 1_555 1_555
N2 Ru1 1_555 1_555
C1 C2 1_555 1_555
C2 N2 1_555 1_555
C3 C2 1_555 1_555
C4 C3 1_555 1_555
C5 C4 1_555 1_555
C6 N2 1_555 1_555
C7 C1 1_555 1_555
C8 C7 1_555 1_555
C9 C8 1_555 1_555
C10 N1 1_555 1_555
C11 C12 1_555 1_555
C12 O3 1_555 1_555
H1 C3 1_555 1_555
H2 C4 1_555 1_555
H3 C5 1_555 1_555
H4 C6 1_555 1_555
H5 C7 1_555 1_555
H6 C8 1_555 1_555
H7 C9 1_555 1_555
H8 C10 1_555 1_555
N1A Ru1 1_555 1_555
N2A Ru1 1_555 1_555
C1A N1A 1_555 1_555
C2A N2A 1_555 1_555
C3A C2A 1_555 1_555
C4A C3A 1_555 1_555
C5A C4A 1_555 1_555
C6A N2A 1_555 1_555
C7A C1A 1_555 1_555
C8A C7A 1_555 1_555
C9A C8A 1_555 1_555
C10A N1A 1_555 1_555
H1A C3A 1_555 1_555
H2A C4A 1_555 1_555
H3A C5A 1_555 1_555
H4A C6A 1_555 1_555
H5A C7A 1_555 1_555
H6A C8A 1_555 1_555
H7A C9A 1_555 1_555
H8A C10A 1_555 1_555
N1B Ru1 1_555 1_555
N2B Ru1 1_555 1_555
C1B N1B 1_555 1_555
C2B N2B 1_555 1_555
C3B C2B 1_555 1_555
C4B C3B 1_555 1_555
C5B C4B 1_555 1_555
C6B N2B 1_555 1_555
C7B C1B 1_555 1_555
C8B C7B 1_555 1_555
C9B C8B 1_555 1_555
C10B N1B 1_555 1_555
H1B C3B 1_555 1_555
H2B C4B 1_555 1_555
H3B C5B 1_555 1_555
H4B C6B 1_555 1_555
H5B C7B 1_555 1_555
H6B C8B 1_555 1_555
H7B C9B 1_555 1_555
H8B C10B 1_555 1_555
O1E Cr1 1_555 1_555
O2E C11E 1_555 1_555
O3E Cr1 1_555 1_555
O4E C12E 1_555 1_555
C11E O1E 1_555 1_555
C12E O3E 1_555 1_555
O1J Cr1 1_555 1_555
O2J C11J 1_555 1_555
O3J Cr1 1_555 1_555
O4J C12J 1_555 1_555
C11J O1J 1_555 1_555
C12J O3J 1_555 1_555
O2D Mn1 1_555 1_555
O2G Mn1 1_555 1_555
O4D Mn1 1_555 1_555
O4G Mn1 1_555 1_555
Mn1E O2E 1_555 1_555
Mn1B O2J 1_555 1_555
O4 C12 1_555 1_555
C5 C6 1_555 1_555
C9 C10 1_555 1_555
C1A C2A 1_555 1_555
C5A C6A 1_555 1_555
C9A C10A 1_555 1_555
C1B C2B 1_555 1_555
C5B C6B 1_555 1_555
C9B C10B 1_555 1_555
O4E Mn1E 1_555 1_555
C11E C12E 1_555 1_555
O4J Mn1B 1_555 1_555
C11J C12J 1_555 1_555

#END
