
#######################################################################
#
#                 Cambridge Crystallographic Data Centre
#                                CCDC 
#
#######################################################################
#
# If this CIF has been generated from an entry in the Cambridge 
# Structural Database, then it will include bibliographic, chemical, 
# crystal, experimental, refinement or atomic coordinate data resulting 
# from the CCDC's data processing and validation procedures.
#
#######################################################################

data_MOFTUY
_symmetry_cell_setting           monoclinic
_symmetry_space_group_name_H-M   'P 21/c'
_symmetry_Int_Tables_number      14
_space_group_name_Hall           '-P 2ybc'
loop_
_symmetry_equiv_pos_site_id
_symmetry_equiv_pos_as_xyz
1 x,y,z
2 -x,1/2+y,1/2-z
3 -x,-y,-z
4 x,1/2-y,1/2+z
_cell_length_a                   27.720(6)
_cell_length_b                   5.8060(12)
_cell_length_c                   7.5530(15)
_cell_angle_alpha                90
_cell_angle_beta                 92.70(3)
_cell_angle_gamma                90
_cell_volume                     1214.25
loop_
_atom_site_label
_atom_site_type_symbol
_atom_site_fract_x
_atom_site_fract_y
_atom_site_fract_z
O1 O 0.30981(2) 0.19507(10) 0.75495(8)
O2 O 0.25016(2) -0.03371(10) 0.51187(7)
Na1 Na 0.283726(12) -0.13589(6) 0.88579(4)
Na2 Na 0.223402(12) 0.40623(6) 0.72914(4)
O3 O 0.18667(2) -0.22998(10) 0.73717(8)
O4 O 0.30637(2) 0.56616(10) 0.67982(7)
O5 O 0.20585(2) 0.07292(10) 0.90797(8)
C1 C 0.32814(2) 0.39322(12) 0.74728(9)
C2 C 0.47477(2) 0.48536(12) 0.96330(9)
C3 C 0.40206(3) 0.25237(13) 0.92100(10)
H1 H 0.3857 0.1113 0.9394
C4 C 0.45103(3) 0.65996(13) 0.86395(10)
H2 H 0.4676 0.7996 0.8422
C5 C 0.37873(2) 0.42770(12) 0.82446(9)
C6 C 0.10733(3) 0.14760(13) 0.97549(10)
H3 H 0.1294 0.2675 1.0072
C7 C 0.12349(2) -0.04582(12) 0.88604(9)
C8 C 0.44905(3) 0.28123(13) 0.99092(10)
H4 H 0.464 0.1606 1.0585
C9 C 0.02564(2) -0.00824(12) 0.97524(9)
C10 C 0.09035(3) -0.21822(14) 0.83861(11)
H5 H 0.1006 -0.3492 0.7751
C11 C 0.05918(3) 0.16682(13) 1.01884(11)
H6 H 0.0488 0.3005 1.0789
C12 C 0.04236(3) -0.20012(14) 0.88355(11)
H7 H 0.0205 -0.3205 0.8514
C13 C 0.17553(2) -0.07043(12) 0.84115(9)
C14 C 0.40367(3) 0.63262(13) 0.79664(10)
H8 H 0.3883 0.7541 0.7315
O1B O 0.69019(2) 0.80493(10) 1.24505(8)
C1B C 0.67186(2) 0.60678(12) 1.25272(9)
C2B C 0.52523(2) 0.51464(12) 1.03670(9)
C3B C 0.59794(3) 0.74763(13) 1.07900(10)
H1B H 0.6143 0.8887 1.0606
C4B C 0.54897(3) 0.34004(13) 1.13605(10)
H2B H 0.5324 0.2004 1.1578
C5B C 0.62127(2) 0.57230(12) 1.17554(9)
C8B C 0.55095(3) 0.71877(13) 1.00908(10)
H4B H 0.536 0.8394 0.9415
C14B C 0.59633(3) 0.36738(13) 1.20336(10)
H8B H 0.6117 0.2459 1.2685
O4B O 0.69363(2) 0.43384(10) 1.32018(7)
O3B O -0.18667(2) 0.22998(10) 1.26283(8)
O5B O -0.20585(2) -0.07292(10) 1.09203(8)
C6B C -0.10733(3) -0.14760(13) 1.02451(10)
H3B H -0.1294 -0.2675 0.9928
C7B C -0.12349(2) 0.04582(12) 1.11396(9)
C9B C -0.02564(2) 0.00824(12) 1.02476(9)
C10B C -0.09035(3) 0.21822(14) 1.16139(11)
H5B H -0.1006 0.3492 1.2249
C11B C -0.05918(3) -0.16682(13) 0.98116(11)
H6B H -0.0488 -0.3005 0.9211
C12B C -0.04236(3) 0.20012(14) 1.11645(11)
H7B H -0.0205 0.3205 1.1486
C13B C -0.17553(2) 0.07043(12) 1.15885(9)
O2B O -0.25016(2) 0.03371(10) 1.48813(7)
Na1B Na -0.283726(12) 0.13589(6) 1.11421(4)
Na2B Na -0.223402(12) -0.40623(6) 1.27086(4)
O1B_2 O -0.30981(2) -0.19507(10) 1.24505(8)
O2A O -0.25016(2) -0.53371(10) 0.98813(7)
O2A_2 O -0.25016(2) 0.46629(10) 0.98813(7)
O2C O 0.25016(2) -0.46629(10) 1.01187(7)
O2C_2 O 0.25016(2) 0.53371(10) 1.01187(7)
Na1_2 Na 0.283726(12) 0.86411(6) 0.88579(4)
Na1A Na -0.283726(12) 0.36411(6) 1.61421(4)
Na1A_2 Na 0.716274(12) 0.36411(6) 1.61421(4)
Na1B_2 Na 0.716274(12) 0.13589(6) 1.11421(4)
Na1B_3 Na 0.716274(12) 1.13589(6) 1.11421(4)
Na1C Na 0.283726(12) -0.36411(6) 0.38579(4)
Na1C_2 Na 0.283726(12) 0.63589(6) 0.38579(4)
Na2_2 Na 0.223402(12) -0.59377(6) 0.72914(4)
Na2A Na -0.223402(12) -0.09377(6) 0.77086(4)
Na2A_2 Na -0.223402(12) -0.09377(6) 1.77086(4)
Na2B_2 Na -0.223402(12) 0.59377(6) 1.27086(4)
Na2B_3 Na 0.776598(12) 0.59377(6) 1.27086(4)
Na2C Na 0.223402(12) 0.09377(6) 0.22914(4)
Na2C_2 Na 0.223402(12) 0.09377(6) 1.22914(4)
O3_2 O 0.18667(2) 0.77002(10) 0.73717(8)
O3B_2 O -0.18667(2) -0.77002(10) 1.26283(8)
O4_2 O 0.30637(2) -0.43384(10) 0.67982(7)
O4A O -0.30637(2) 0.06616(10) 0.82018(7)
O4B_2 O -0.30637(2) -0.56616(10) 1.32018(7)
O4B_3 O -0.30637(2) 0.43384(10) 1.32018(7)
O4C O 0.30637(2) -0.06616(10) 1.17982(7)
O5A O -0.20585(2) -0.42708(10) 1.59203(8)
O5C O 0.20585(2) 0.42708(10) 0.40797(8)
loop_
_geom_bond_atom_site_label_1
_geom_bond_atom_site_label_2
_geom_bond_site_symmetry_1
_geom_bond_site_symmetry_2
O1 Na1 1_555 1_555
O2 Na1 1_555 1_555
Na1 O3 1_555 1_555
Na2 O1 1_555 1_555
O3 C13 1_555 1_555
O4 Na2 1_555 1_555
O5 Na1 1_555 1_555
C1 O1 1_555 1_555
C2 C4 1_555 1_555
C3 H1 1_555 1_555
C4 H2 1_555 1_555
C5 C1 1_555 1_555
C6 H3 1_555 1_555
C7 C6 1_555 1_555
C8 C2 1_555 1_555
H4 C8 1_555 1_555
C9 C11 1_555 1_555
C10 C7 1_555 1_555
H5 C10 1_555 1_555
C11 C6 1_555 1_555
H6 C11 1_555 1_555
C12 C9 1_555 1_555
H7 C12 1_555 1_555
C13 O5 1_555 1_555
C14 C4 1_555 1_555
H8 C14 1_555 1_555
O1B C1B 1_555 1_555
C1B C5B 1_555 1_555
C2B C2 1_555 1_555
C3B H1B 1_555 1_555
C4B C2B 1_555 1_555
H2B C4B 1_555 1_555
C5B C3B 1_555 1_555
C8B C2B 1_555 1_555
H4B C8B 1_555 1_555
C14B C4B 1_555 1_555
H8B C14B 1_555 1_555
O4B C1B 1_555 1_555
O3B C13B 1_555 1_555
O5B C13B 1_555 1_555
C6B H3B 1_555 1_555
C7B C6B 1_555 1_555
C9B C9 1_555 1_555
C10B C7B 1_555 1_555
H5B C10B 1_555 1_555
C11B C6B 1_555 1_555
H6B C11B 1_555 1_555
C12B C9B 1_555 1_555
H7B C12B 1_555 1_555
C13B C7B 1_555 1_555
O2B Na1B 1_555 1_555
Na1B O3B 1_555 1_555
Na2B O5B 1_555 1_555
O1B_2 Na1B 1_555 1_555
O2A Na2B 1_555 1_555
O2A_2 Na1B 1_555 1_555
O2C Na1 1_555 1_555
O2C_2 Na2 1_555 1_555
Na1_2 O4 1_555 1_555
Na1A O2B 1_555 1_555
Na1A_2 O4B 1_555 1_555
Na1B_2 O4B 1_555 1_555
Na1B_3 O1B 1_555 1_555
Na1C O2 1_555 1_555
Na1C_2 O4 1_555 1_555
Na2_2 O3 1_555 1_555
Na2A O5B 1_555 1_555
Na2A_2 O2B 1_555 1_555
Na2B_2 O3B 1_555 1_555
Na2B_3 O1B 1_555 1_555
Na2C O2 1_555 1_555
Na2C_2 O5 1_555 1_555
O3_2 Na2 1_555 1_555
O3B_2 Na2B 1_555 1_555
O4_2 Na1 1_555 1_555
O4A Na1B 1_555 1_555
O4B_2 Na2B 1_555 1_555
O4B_3 Na1B 1_555 1_555
O4C Na1 1_555 1_555
O5A Na2B 1_555 1_555
O5C Na2 1_555 1_555
Na2 O5 1_555 1_555
O4 C1 1_555 1_555
C3 C5 1_555 1_555
C3 C8 1_555 1_555
C5 C14 1_555 1_555
C7 C13 1_555 1_555
C10 C12 1_555 1_555
C3B C8B 1_555 1_555
C5B C14B 1_555 1_555
O4B Na2B_3 1_555 1_555
O5B Na1B 1_555 1_555
C9B C11B 1_555 1_555
C10B C12B 1_555 1_555
Na2B O1B_2 1_555 1_555
O2A_2 Na2B_2 1_555 1_555
O2C Na2_2 1_555 1_555
O2C_2 Na1_2 1_555 1_555
Na1_2 O3_2 1_555 1_555
Na1A O4B_3 1_555 1_555
Na1C O4_2 1_555 1_555
Na1C_2 O5C 1_555 1_555
Na2_2 O4_2 1_555 1_555
Na2A O4A 1_555 1_555
Na2A_2 O5A 1_555 1_555
Na2B_2 O4B_3 1_555 1_555
Na2C O5C 1_555 1_555
Na2C_2 O4C 1_555 1_555

#END
