
#######################################################################
#
#                 Cambridge Crystallographic Data Centre
#                                CCDC 
#
#######################################################################
#
# If this CIF has been generated from an entry in the Cambridge 
# Structural Database, then it will include bibliographic, chemical, 
# crystal, experimental, refinement or atomic coordinate data resulting 
# from the CCDC's data processing and validation procedures.
#
#######################################################################

data_MOFTIL
_symmetry_cell_setting           monoclinic
_symmetry_space_group_name_H-M   'P c'
_symmetry_Int_Tables_number      7
_space_group_name_Hall           'P -2yc'
loop_
_symmetry_equiv_pos_site_id
_symmetry_equiv_pos_as_xyz
1 x,y,z
2 x,-y,1/2+z
_cell_length_a                   4.8219(8)
_cell_length_b                   8.2274(13)
_cell_length_c                   10.5920(17)
_cell_angle_alpha                90
_cell_angle_beta                 96.115(2)
_cell_angle_gamma                90
_cell_volume                     417.812
loop_
_atom_site_label
_atom_site_type_symbol
_atom_site_fract_x
_atom_site_fract_y
_atom_site_fract_z
Zn1 Zn 0.68147(6) 0.18554(3) 0.40995(4)
C1 C 0.1464(8) 0.6252(3) 0.8848(2)
C2 C 0.2719(6) 0.4779(3) 0.8307(3)
C3 C 0.4457(7) 0.4935(4) 0.7352(3)
H1 H 0.4814 0.5960 0.7036
C4 C 0.5663(7) 0.3582(4) 0.6864(3)
H2 H 0.6833 0.3700 0.6227
C5 C 0.5125(7) 0.2034(4) 0.7328(3)
C6 C 0.3295(7) 0.1886(3) 0.8257(3)
H3 H 0.2888 0.0862 0.8561
C7 C 0.2084(7) 0.3246(4) 0.8730(3)
H4 H 0.0837 0.3131 0.9336
C8 C 0.6511(6) 0.0622(3) 0.6825(3)
N1 N 0.7366(7) 0.0547(3) 0.5662(3)
N2 N 0.8665(7) -0.0904(3) 0.5582(2)
N3 N 0.8588(7) -0.1686(3) 0.6635(3)
N4 N 0.7259(6) -0.0747(3) 0.7445(3)
O1 O 0.2846(5) 0.7559(3) 0.8964(2)
O2 O -0.0978(5) 0.6150(2) 0.9142(2)
Zn1A Zn 0.68147(6) -0.18554(3) 0.90995(4)
Zn1A_2 Zn 0.68147(6) 0.81446(3) 0.90995(4)
Zn1A_3 Zn -0.31853(6) 0.81446(3) 0.90995(4)
N4A N 0.7259(6) 0.0747(3) 0.2445(3)
O1A O 0.2846(5) 0.2441(3) 0.3964(2)
O2A O 0.9022(5) 0.3850(2) 0.4142(2)
loop_
_geom_bond_atom_site_label_1
_geom_bond_atom_site_label_2
_geom_bond_site_symmetry_1
_geom_bond_site_symmetry_2
Zn1 N1 1_555 1_555
C1 C2 1_555 1_555
C2 C3 1_555 1_555
C3 H1 1_555 1_555
C4 C3 1_555 1_555
H2 C4 1_555 1_555
C5 C4 1_555 1_555
C6 C5 1_555 1_555
H3 C6 1_555 1_555
C7 C2 1_555 1_555
H4 C7 1_555 1_555
C8 C5 1_555 1_555
N1 C8 1_555 1_555
N2 N1 1_555 1_555
N3 N2 1_555 1_555
N4 C8 1_555 1_555
O1 C1 1_555 1_555
O2 C1 1_555 1_555
Zn1A N4 1_555 1_555
Zn1A_2 O1 1_555 1_555
Zn1A_3 O2 1_555 1_555
N4A Zn1 1_555 1_555
O1A Zn1 1_555 1_555
O2A Zn1 1_555 1_555
C6 C7 1_555 1_555
N3 N4 1_555 1_555

#END
