
#######################################################################
#
#                 Cambridge Crystallographic Data Centre
#                                CCDC 
#
#######################################################################
#
# If this CIF has been generated from an entry in the Cambridge 
# Structural Database, then it will include bibliographic, chemical, 
# crystal, experimental, refinement or atomic coordinate data resulting 
# from the CCDC's data processing and validation procedures.
#
#######################################################################

data_MOFTIL01
_symmetry_cell_setting           monoclinic
_symmetry_space_group_name_H-M   'P c'
_symmetry_Int_Tables_number      7
_space_group_name_Hall           'P -2yc'
loop_
_symmetry_equiv_pos_site_id
_symmetry_equiv_pos_as_xyz
1 x,y,z
2 x,-y,1/2+z
_cell_length_a                   4.8244(5)
_cell_length_b                   8.2293(11)
_cell_length_c                   10.5946(10)
_cell_angle_alpha                90
_cell_angle_beta                 96.162(8)
_cell_angle_gamma                90
_cell_volume                     418.191
loop_
_atom_site_label
_atom_site_type_symbol
_atom_site_fract_x
_atom_site_fract_y
_atom_site_fract_z
Zn1 Zn 0.81743(5) 0.18583(3) 0.53930(4)
O1 O 0.4208(5) 0.2432(3) 0.5265(3)
O2 O 0.0383(5) 0.3856(3) 0.5434(3)
N1 N 0.8726(7) 0.9459(4) 0.1961(3)
N2 N 1.0019(8) 1.0906(4) 0.1881(3)
N3 N 0.9952(8) 1.1687(4) 0.2932(3)
N4 N 0.8600(7) 1.0746(4) 0.3740(3)
C1 C 0.4060(6) 0.5221(4) 0.4602(3)
C2 C 0.5806(7) 0.5058(4) 0.3640(3)
H1 H 0.6162 0.4033 0.3325
C3 C 0.7010(7) 0.6418(4) 0.3153(3)
H2 H 0.8178 0.6303 0.2515
C4 C 0.6470(6) 0.7964(4) 0.3619(3)
C5 C 0.4645(8) 0.8132(4) 0.4551(4)
H3 H 0.4236 0.9159 0.4846
C6 C 0.3438(7) 0.6759(4) 0.5039(4)
H4 H 0.2218 0.6872 0.5656
C7 C 0.2817(6) 0.3742(4) 0.5143(3)
C8 C 0.7878(6) 0.9381(4) 0.3118(3)
Zn1_2 Zn -0.18257(5) 0.18583(3) 0.53930(4)
Zn1A Zn 0.81743(5) 0.81417(3) 0.03930(4)
Zn1_3 Zn 0.81743(5) 1.18583(3) 0.53930(4)
O2_2 O 1.0383(5) 0.3856(3) 0.5434(3)
N1A N 0.8726(7) 0.0541(4) 0.6961(3)
N4_2 N 0.8600(7) 0.0746(4) 0.3740(3)
loop_
_geom_bond_atom_site_label_1
_geom_bond_atom_site_label_2
_geom_bond_site_symmetry_1
_geom_bond_site_symmetry_2
Zn1 O1 1_555 1_555
O1 C7 1_555 1_555
O2 C7 1_555 1_555
N1 N2 1_555 1_555
N2 N3 1_555 1_555
N3 N4 1_555 1_555
N4 C8 1_555 1_555
C1 C2 1_555 1_555
C2 H1 1_555 1_555
C3 C2 1_555 1_555
H2 C3 1_555 1_555
C4 C3 1_555 1_555
C5 C4 1_555 1_555
H3 C5 1_555 1_555
C6 C1 1_555 1_555
H4 C6 1_555 1_555
C7 C1 1_555 1_555
C8 N1 1_555 1_555
Zn1_2 O2 1_555 1_555
Zn1A N1 1_555 1_555
Zn1_3 N4 1_555 1_555
O2_2 Zn1 1_555 1_555
N1A Zn1 1_555 1_555
N4_2 Zn1 1_555 1_555
C4 C8 1_555 1_555
C5 C6 1_555 1_555

#END
