
#######################################################################
#
#                 Cambridge Crystallographic Data Centre
#                                CCDC 
#
#######################################################################
#
# If this CIF has been generated from an entry in the Cambridge 
# Structural Database, then it will include bibliographic, chemical, 
# crystal, experimental, refinement or atomic coordinate data resulting 
# from the CCDC's data processing and validation procedures.
#
#######################################################################

data_MOFVIO
_symmetry_cell_setting           monoclinic
_symmetry_space_group_name_H-M   'P n'
_symmetry_Int_Tables_number      7
_space_group_name_Hall           'P -2yac'
loop_
_symmetry_equiv_pos_site_id
_symmetry_equiv_pos_as_xyz
1 x,y,z
2 1/2+x,-y,1/2+z
_cell_length_a                   11.4682(2)
_cell_length_b                   8.89770(10)
_cell_length_c                   15.6872(2)
_cell_angle_alpha                90
_cell_angle_beta                 94.0740(10)
_cell_angle_gamma                90
_cell_volume                     1596.69
loop_
_atom_site_label
_atom_site_type_symbol
_atom_site_fract_x
_atom_site_fract_y
_atom_site_fract_z
C1 C 0.2496(3) 0.0698(4) 0.4919(3)
C2 C 0.1434(3) 0.1389(4) 0.5295(2)
C3 C 0.1553(3) 0.2811(4) 0.5679(2)
C4 C 0.0342(4) 0.0687(4) 0.5264(3)
H1 H 0.0228 -0.0262 0.4992
C5 C -0.0576(3) 0.1396(4) 0.5635(3)
C6 C -0.0373(3) 0.2795(4) 0.6000(2)
C7 C -0.1310(3) 0.3667(4) 0.6435(2)
C8 C 0.6948(3) -0.1194(4) 0.5131(2)
C9 C 0.6006(3) -0.2112(4) 0.5497(2)
C10 C 0.6173(3) -0.3471(4) 0.5914(3)
H2 H 0.6928 -0.3912 0.5978
C11 C 0.5220(4) -0.4185(4) 0.6241(3)
C12 C 0.4015(3) -0.2203(4) 0.5670(2)
H3 H 0.3257 -0.1779 0.5569
C13 C 0.4121(3) -0.3554(4) 0.6107(2)
C14 C 0.3030(4) -0.4240(4) 0.6430(3)
C15 C 0.4367(3) 1.1919(4) 0.2309(2)
C16 C 0.6260(3) 1.1327(4) 0.2050(3)
C17 C 0.6198(4) 0.9968(5) 0.2450(3)
C18 C 0.4232(4) 1.0558(4) 0.2707(3)
C19 C 0.6360(3) 0.3223(4) 0.4331(3)
C20 C 0.4385(4) 0.3615(5) 0.4234(3)
C21 C 0.4510(4) 0.5012(5) 0.3863(3)
C22 C 0.6557(4) 0.4607(5) 0.3950(3)
H4 H 0.733 0.4909 0.3849
C23 C 0.5613(4) 0.5546(4) 0.3716(2)
C24 C 0.5805(3) 0.7007(5) 0.3321(2)
C25 C 0.4990(4) 0.8073(4) 0.3201(2)
C26 C 0.5158(4) 0.9543(4) 0.2791(2)
Cu1 Cu 0.50463(3) 0.06940(5) 0.50160(3)
Cu2 Cu 0.05439(3) -0.43390(5) 0.63802(3)
N1 N 0.4921(3) -0.1470(4) 0.5385(2)
N2 N 0.5290(3) 0.2721(4) 0.4462(2)
N3 N 0.5368(3) 1.2329(4) 0.1974(2)
N4 N 0.0659(3) 0.3491(4) 0.6008(2)
O1 O 0.7957(2) -0.1686(3) 0.5159(2)
O2 O 0.6630(2) 0.0077(3) 0.48058(19)
O3 O 0.3121(3) -0.5110(3) 0.70508(18)
O4 O 0.2084(2) -0.3808(3) 0.60352(17)
O5 O 0.5683(2) 0.1275(3) 0.63720(19)
O6 O -0.0332(2) -0.3760(3) 0.51184(17)
H5 H 0.0159 -0.3392 0.4805
O7 O 0.3453(2) 0.1227(3) 0.52498(17)
O8 O 0.2377(3) -0.0298(3) 0.43765(18)
O9 O -0.0989(2) 0.4965(3) 0.67130(17)
O10 O -0.2280(2) 0.3109(3) 0.64862(19)
H6 H 0.224(5) 0.331(6) 0.566(4)
H7 H -0.127(5) 0.101(6) 0.564(4)
H8 H 0.633(2) 0.167(6) 0.644(3)
H9 H 0.522(3) 0.165(6) 0.669(3)
H10 H -0.082(5) -0.314(7) 0.516(4)
H11 H 0.535(5) -0.502(6) 0.654(4)
H12 H 0.371(5) 1.262(6) 0.226(4)
H13 H 0.688(5) 1.147(6) 0.174(4)
H14 H 0.680(5) 0.936(7) 0.247(4)
H15 H 0.353(5) 1.038(6) 0.295(4)
H16 H 0.698(5) 0.262(6) 0.455(3)
H17 H 0.364(5) 0.321(6) 0.431(3)
H18 H 0.385(6) 0.548(6) 0.369(4)
H19 H 0.662(5) 0.723(6) 0.322(4)
H20 H 0.430(5) 0.796(6) 0.335(4)
Cu2_2 Cu 0.05439(3) 0.56610(5) 0.63802(3)
Cu2A Cu 0.55439(3) 1.43390(5) 0.13802(3)
N3A N 0.0368(3) -0.2329(4) 0.6974(2)
N4_2 N 0.0659(3) -0.6509(4) 0.6008(2)
O9_2 O -0.0989(2) -0.5035(3) 0.67130(17)
C27 C 0.1024(4) 0.1856(4) 0.3005(3)
C28 C -0.1026(4) 0.1401(5) 0.3166(3)
H21 H -0.1668 0.1896 0.3436
H22 H -0.0897 0.0399 0.3414
H23 H -0.1227 0.1308 0.255
C29 C -0.0113(3) 0.3687(4) 0.3762(3)
H24 H -0.092 0.3768 0.3926
H25 H 0.0059 0.4533 0.3391
H26 H 0.0425 0.3707 0.4276
N5 N 0.0030(3) 0.2287(4) 0.33076(19)
O11 O 0.1926(3) 0.2608(3) 0.3099(2)
H27 H 0.102(5) 0.082(6) 0.282(4)
O12 O 0.0738(2) -0.2387(3) 0.38259(17)
H28 H 0.116(4) -0.166(4) 0.397(3)
H29 H 0.118(4) -0.300(4) 0.361(3)
O13 O 0.4014(3) 0.2094(3) 0.74815(18)
H30 H 0.448(4) 0.220(5) 0.790(2)
H31 H 0.381(4) 0.294(3) 0.732(3)
O14 O 0.1884(3) -0.4317(3) 0.2929(2)
H32 H 0.190(5) -0.5239(16) 0.301(3)
H33 H 0.223(4) -0.412(5) 0.250(2)
loop_
_geom_bond_atom_site_label_1
_geom_bond_atom_site_label_2
_geom_bond_site_symmetry_1
_geom_bond_site_symmetry_2
C1 C2 1_555 1_555
C2 C3 1_555 1_555
C3 N4 1_555 1_555
C4 C2 1_555 1_555
H1 C4 1_555 1_555
C5 C4 1_555 1_555
C6 C5 1_555 1_555
C7 C6 1_555 1_555
C8 C9 1_555 1_555
C9 C10 1_555 1_555
C10 H2 1_555 1_555
C11 C10 1_555 1_555
C12 H3 1_555 1_555
C13 C11 1_555 1_555
C14 C13 1_555 1_555
C15 C18 1_555 1_555
C16 C17 1_555 1_555
C17 C26 1_555 1_555
C18 C26 1_555 1_555
C19 C22 1_555 1_555
C20 C21 1_555 1_555
C21 C23 1_555 1_555
C22 H4 1_555 1_555
C23 C22 1_555 1_555
C24 C23 1_555 1_555
C25 C24 1_555 1_555
C26 C25 1_555 1_555
Cu1 N1 1_555 1_555
Cu2 O4 1_555 1_555
N1 C9 1_555 1_555
N2 C19 1_555 1_555
N3 C15 1_555 1_555
N4 C6 1_555 1_555
O1 C8 1_555 1_555
O2 C8 1_555 1_555
O3 C14 1_555 1_555
O4 C14 1_555 1_555
O5 Cu1 1_555 1_555
O6 Cu2 1_555 1_555
H5 O6 1_555 1_555
O7 C1 1_555 1_555
O8 C1 1_555 1_555
O9 C7 1_555 1_555
O10 C7 1_555 1_555
H6 C3 1_555 1_555
H7 C5 1_555 1_555
H8 O5 1_555 1_555
H9 O5 1_555 1_555
H10 O6 1_555 1_555
H11 C11 1_555 1_555
H12 C15 1_555 1_555
H13 C16 1_555 1_555
H14 C17 1_555 1_555
H15 C18 1_555 1_555
H16 C19 1_555 1_555
H17 C20 1_555 1_555
H18 C21 1_555 1_555
H19 C24 1_555 1_555
H20 C25 1_555 1_555
C27 N5 1_555 1_555
C28 H21 1_555 1_555
H22 C28 1_555 1_555
H23 C28 1_555 1_555
C29 H24 1_555 1_555
H25 C29 1_555 1_555
H26 C29 1_555 1_555
N5 C28 1_555 1_555
O11 C27 1_555 1_555
H27 C27 1_555 1_555
O12 H28 1_555 1_555
H29 O12 1_555 1_555
O13 H30 1_555 1_555
H31 O13 1_555 1_555
O14 H32 1_555 1_555
H33 O14 1_555 1_555
Cu2_2 N4 1_555 1_555
Cu2A N3 1_555 1_555
N3A Cu2 1_555 1_555
N4_2 Cu2 1_555 1_555
O9_2 Cu2 1_555 1_555
C12 C13 1_555 1_555
C12 N1 1_555 1_555
C16 N3 1_555 1_555
C20 N2 1_555 1_555
Cu1 N2 1_555 1_555
Cu1 O2 1_555 1_555
Cu1 O7 1_555 1_555
O9 Cu2_2 1_555 1_555
C29 N5 1_555 1_555

#END
