
#######################################################################
#
#                 Cambridge Crystallographic Data Centre
#                                CCDC 
#
#######################################################################
#
# If this CIF has been generated from an entry in the Cambridge 
# Structural Database, then it will include bibliographic, chemical, 
# crystal, experimental, refinement or atomic coordinate data resulting 
# from the CCDC's data processing and validation procedures.
#
#######################################################################

data_MOFWAH
_symmetry_cell_setting           orthorhombic
_symmetry_space_group_name_H-M   'P c a 21'
_symmetry_Int_Tables_number      29
_space_group_name_Hall           'P 2c -2ac'
loop_
_symmetry_equiv_pos_site_id
_symmetry_equiv_pos_as_xyz
1 x,y,z
2 -x,-y,1/2+z
3 1/2+x,-y,z
4 1/2-x,y,1/2+z
_cell_length_a                   25.926(5)
_cell_length_b                   13.837(3)
_cell_length_c                   15.243(3)
_cell_angle_alpha                90
_cell_angle_beta                 90
_cell_angle_gamma                90
_cell_volume                     5468.24
loop_
_atom_site_label
_atom_site_type_symbol
_atom_site_fract_x
_atom_site_fract_y
_atom_site_fract_z
Mn1 Mn 0.86198(5) 0.73765(8) 0.11564(8)
Mn2 Mn 0.92099(5) 0.81283(9) -0.07483(8)
Mn3 Mn 0.82050(5) 0.73243(10) -0.24751(9)
O1 O 0.8173(3) -0.1192(4) 0.1060(4)
O2 O 0.8962(3) -0.1249(4) 0.0528(4)
O3 O 1.0624(2) 0.3199(4) -0.3729(4)
O4 O 1.0274(2) 0.2721(4) -0.4985(4)
O5 O 0.8719(3) -0.0849(4) -0.1397(4)
O6 O 0.8044(3) -0.1270(4) -0.2228(4)
O7 O 0.8615(2) 0.7014(4) -0.0315(4)
O8 O 0.8113(3) 0.6484(4) -0.1396(4)
O9 O 1.0625(3) 0.2631(5) 0.3096(4)
O10 O 1.1105(3) 0.2910(6) 0.1912(5)
O11 O 0.7659(2) 0.6904(4) -0.3329(4)
O12 O 0.6901(2) 0.6251(4) -0.3742(4)
N1 N 0.8516(3) 0.7447(5) 0.2606(5)
N2 N 0.8083(3) 0.7663(6) 0.3873(5)
N3 N 0.9590(3) 0.9821(7) 0.4960(5)
N4 N 1.0138(3) 1.0779(5) 0.4244(6)
C1 C 0.8554(4) -0.0772(6) 0.0716(5)
C2 C 1.0241(4) 0.3067(6) -0.4221(6)
C3 C 0.8334(4) -0.0673(7) -0.1845(6)
C4 C 0.8383(3) 0.6355(6) -0.0715(6)
C5 C 1.0684(4) 0.2887(7) 0.2320(7)
C6 C 0.8404(3) 0.5322(6) -0.0436(5)
C7 C 0.8021(4) 0.4662(5) -0.0665(6)
H1 H 0.7735 0.4856 -0.0987
C8 C 0.8077(3) 0.3698(6) -0.0398(5)
H2 H 0.7820 0.3261 -0.0550
C9 C 0.8487(3) 0.3367(6) 0.0073(6)
C10 C 0.8867(3) 0.4038(6) 0.0311(5)
C11 C 0.8813(4) 0.4986(6) 0.0051(6)
H3 H 0.9068 0.5424 0.0213
C12 C 0.9342(3) 0.3750(5) 0.0843(6)
C13 C 0.9838(4) 0.3841(7) 0.0489(6)
H4 H 0.9879 0.4087 -0.0074
C14 C 1.0263(4) 0.3571(8) 0.0961(7)
H5 H 1.0588 0.3635 0.0710
C15 C 1.0221(4) 0.3203(6) 0.1814(6)
C16 C 0.9734(4) 0.3148(8) 0.2187(7)
H6 H 0.9700 0.2938 0.2763
C17 C 0.9287(4) 0.3404(7) 0.1707(6)
H7 H 0.8962 0.3344 0.1959
C18 C 0.8514(3) 0.2295(6) 0.0262(5)
C19 C 0.8069(4) 0.1792(6) 0.0440(6)
H8 H 0.7755 0.2116 0.0479
C20 C 0.8089(4) 0.0808(6) 0.0558(6)
H9 H 0.7783 0.0476 0.0656
C21 C 0.8547(4) 0.0288(6) 0.0538(5)
C22 C 0.8985(3) 0.0817(6) 0.0362(6)
H10 H 0.9299 0.0495 0.0347
C23 C 0.8982(3) 0.1786(6) 0.0209(6)
H11 H 0.9287 0.2107 0.0071
C24 C 0.7350(4) 0.6192(6) -0.3414(5)
C25 C 0.7530(3) 0.5199(5) -0.3129(6)
C26 C 0.7163(4) 0.4556(7) -0.2830(6)
H12 H 0.6818 0.4737 -0.2789
C27 C 0.7320(3) 0.3630(6) -0.2592(6)
H13 H 0.7077 0.3201 -0.2370
C28 C 0.7829(3) 0.3326(6) -0.2675(5)
C29 C 0.8186(3) 0.3984(6) -0.3016(5)
C30 C 0.8036(3) 0.4947(6) -0.3184(5)
H14 H 0.8282 0.5408 -0.3332
C31 C 0.7965(3) 0.2295(6) -0.2458(5)
C32 C 0.7623(3) 0.1573(6) -0.2640(7)
H15 H 0.7308 0.1723 -0.2899
C33 C 0.7740(4) 0.0609(6) -0.2442(7)
H16 H 0.7509 0.0122 -0.2592
C34 C 0.8190(3) 0.0379(7) -0.2031(5)
C35 C 0.8523(4) 0.1106(7) -0.1797(6)
H17 H 0.8821 0.0957 -0.1487
C36 C 0.8420(4) 0.2065(7) -0.2016(6)
H18 H 0.8653 0.2549 -0.1868
C37 C 0.8736(3) 0.3736(6) -0.3278(5)
C38 C 0.9155(4) 0.4123(7) -0.2876(6)
H19 H 0.9109 0.4540 -0.2404
C39 C 0.9660(4) 0.3902(6) -0.3168(5)
H20 H 0.9948 0.4143 -0.2876
C40 C 0.9713(3) 0.3329(6) -0.3884(6)
C41 C 0.9298(3) 0.2955(7) -0.4318(6)
H21 H 0.9344 0.2587 -0.4823
C42 C 0.8808(4) 0.3134(6) -0.3996(6)
H22 H 0.8524 0.2847 -0.4262
C43 C 0.8204(4) 0.7993(7) 0.3067(6)
H23 H 0.8074 0.8573 0.2851
C44 C 0.8635(3) 0.6682(7) 0.3199(6)
C45 C 0.8942(5) 0.5868(7) 0.3092(7)
H24 H 0.9127 0.5757 0.2579
C46 C 0.8958(5) 0.5218(7) 0.3803(8)
H25 H 0.9156 0.4660 0.3755
C47 C 0.8690(5) 0.5384(10) 0.4565(7)
H26 H 0.8720 0.4949 0.5027
C48 C 0.8380(5) 0.6177(8) 0.4657(6)
H27 H 0.8187 0.6270 0.5164
C49 C 0.8362(4) 0.6825(8) 0.3990(6)
C50 C 0.7766(4) 0.8146(8) 0.4544(6)
H28 H 0.7545 0.7671 0.4823
H29 H 0.7547 0.8621 0.4262
C51 C 0.8085(4) 0.8637(8) 0.5231(6)
H30 H 0.8342 0.8183 0.5441
H31 H 0.7862 0.8797 0.5722
C52 C 0.8361(5) 0.9562(8) 0.4933(7)
H32 H 0.8567 0.9417 0.4418
H33 H 0.8105 1.0038 0.4766
C53 C 0.8710(6) 0.9994(10) 0.5632(8)
H34 H 0.8546 0.9928 0.6201
H35 H 0.8755 1.0678 0.5517
C54 C 0.9249(5) 0.9493(10) 0.5656(7)
H36 H 0.9410 0.9620 0.6219
H37 H 0.9202 0.8799 0.5604
C55 C 0.9853(5) 1.0667(8) 0.4966(7)
H38 H 0.9836 1.1116 0.5418
C56 C 0.9696(4) 0.9343(7) 0.4207(7)
C57 C 0.9544(5) 0.8443(10) 0.3873(8)
H39 H 0.9318 0.8039 0.4174
C58 C 0.9750(5) 0.8192(9) 0.3065(9)
H40 H 0.9668 0.7593 0.2825
C59 C 1.0076(5) 0.8810(10) 0.2603(9)
H41 H 1.0192 0.8629 0.2049
C60 C 1.0230(4) 0.9686(8) 0.2951(8)
H42 H 1.0454 1.0084 0.2640
C61 C 1.0046(4) 0.9966(8) 0.3771(6)
Mn1_2 Mn 0.86198(5) -0.26235(8) 0.11564(8)
Mn1A Mn 1.13802(5) 0.26235(8) -0.38436(8)
Mn1C Mn 0.63802(5) 0.73765(8) -0.38436(8)
Mn2_2 Mn 0.92099(5) -0.18717(9) -0.07483(8)
Mn2A Mn 1.07901(5) 0.18717(9) -0.57483(8)
Mn2A_2 Mn 1.07901(5) 0.18717(9) 0.42517(8)
Mn2A_3 Mn 1.07901(5) 1.18717(9) 0.42517(8)
Mn3_2 Mn 0.82050(5) -0.26757(10) -0.24751(9)
Mn3A Mn 1.17950(5) 0.26757(10) 0.25249(9)
O1_2 O 0.8173(3) 0.8808(4) 0.1060(4)
O2_2 O 0.8962(3) 0.8751(4) 0.0528(4)
O3A O 0.9376(2) 0.6801(4) 0.1271(4)
O4A O 0.9726(2) 0.7279(4) 0.0015(4)
O5_2 O 0.8719(3) 0.9151(4) -0.1397(4)
O6_2 O 0.8044(3) 0.8730(4) -0.2228(4)
O9A O 0.9375(3) 0.7369(5) -0.1904(4)
O10A O 0.8895(3) 0.7090(6) -0.3088(5)
O12C O 0.8099(2) 0.6251(4) 0.1258(4)
N4A N 0.9862(3) 0.9221(5) -0.0756(6)
N5 N 0.6113(8) 0.0855(14) 0.7671(14)
C62 C 0.6429(8) 0.1960(15) 0.8883(14)
H43 H 0.6793 0.1830 0.8914
H44 H 0.6274 0.1829 0.9442
H45 H 0.6376 0.2626 0.8732
C63 C 0.6242(9) 0.1469(18) 0.8351(17)
loop_
_geom_bond_atom_site_label_1
_geom_bond_atom_site_label_2
_geom_bond_site_symmetry_1
_geom_bond_site_symmetry_2
Mn1 O7 1_555 1_555
Mn2 O7 1_555 1_555
Mn3 O8 1_555 1_555
O1 C1 1_555 1_555
O2 C1 1_555 1_555
O3 C2 1_555 1_555
O4 C2 1_555 1_555
O5 C3 1_555 1_555
O6 C3 1_555 1_555
O7 C4 1_555 1_555
O8 C4 1_555 1_555
O9 C5 1_555 1_555
O10 C5 1_555 1_555
O11 Mn3 1_555 1_555
O12 C24 1_555 1_555
N1 Mn1 1_555 1_555
N2 C43 1_555 1_555
N3 C54 1_555 1_555
N4 C55 1_555 1_555
C1 C21 1_555 1_555
C2 C40 1_555 1_555
C3 C34 1_555 1_555
C4 C6 1_555 1_555
C5 C15 1_555 1_555
C6 C7 1_555 1_555
C7 H1 1_555 1_555
C8 C7 1_555 1_555
H2 C8 1_555 1_555
C9 C8 1_555 1_555
C10 C9 1_555 1_555
C11 C6 1_555 1_555
H3 C11 1_555 1_555
C12 C10 1_555 1_555
C13 C12 1_555 1_555
H4 C13 1_555 1_555
C14 C13 1_555 1_555
H5 C14 1_555 1_555
C15 C14 1_555 1_555
C16 C15 1_555 1_555
H6 C16 1_555 1_555
C17 C12 1_555 1_555
H7 C17 1_555 1_555
C18 C9 1_555 1_555
C19 C18 1_555 1_555
H8 C19 1_555 1_555
C20 C19 1_555 1_555
H9 C20 1_555 1_555
C21 C20 1_555 1_555
C22 C21 1_555 1_555
H10 C22 1_555 1_555
C23 C18 1_555 1_555
H11 C23 1_555 1_555
C24 O11 1_555 1_555
C25 C24 1_555 1_555
C26 C25 1_555 1_555
H12 C26 1_555 1_555
C27 C26 1_555 1_555
H13 C27 1_555 1_555
C28 C27 1_555 1_555
C29 C28 1_555 1_555
C30 C25 1_555 1_555
H14 C30 1_555 1_555
C31 C28 1_555 1_555
C32 C31 1_555 1_555
H15 C32 1_555 1_555
C33 C32 1_555 1_555
H16 C33 1_555 1_555
C34 C33 1_555 1_555
C35 C34 1_555 1_555
H17 C35 1_555 1_555
C36 C31 1_555 1_555
H18 C36 1_555 1_555
C37 C29 1_555 1_555
C38 C37 1_555 1_555
H19 C38 1_555 1_555
C39 C38 1_555 1_555
H20 C39 1_555 1_555
C40 C39 1_555 1_555
C41 C40 1_555 1_555
H21 C41 1_555 1_555
C42 C37 1_555 1_555
H22 C42 1_555 1_555
C43 N1 1_555 1_555
H23 C43 1_555 1_555
C44 N1 1_555 1_555
C45 C44 1_555 1_555
H24 C45 1_555 1_555
C46 C45 1_555 1_555
H25 C46 1_555 1_555
C47 C46 1_555 1_555
H26 C47 1_555 1_555
C48 C47 1_555 1_555
H27 C48 1_555 1_555
C49 N2 1_555 1_555
C50 N2 1_555 1_555
H28 C50 1_555 1_555
H29 C50 1_555 1_555
C51 C50 1_555 1_555
H30 C51 1_555 1_555
H31 C51 1_555 1_555
C52 C51 1_555 1_555
H32 C52 1_555 1_555
H33 C52 1_555 1_555
C53 C52 1_555 1_555
H34 C53 1_555 1_555
H35 C53 1_555 1_555
C54 C53 1_555 1_555
H36 C54 1_555 1_555
H37 C54 1_555 1_555
C55 N3 1_555 1_555
H38 C55 1_555 1_555
C56 N3 1_555 1_555
C57 C56 1_555 1_555
H39 C57 1_555 1_555
C58 C57 1_555 1_555
H40 C58 1_555 1_555
C59 C58 1_555 1_555
H41 C59 1_555 1_555
C60 C59 1_555 1_555
H42 C60 1_555 1_555
C61 N4 1_555 1_555
N5 C63 1_555 1_555
C62 H43 1_555 1_555
H44 C62 1_555 1_555
H45 C62 1_555 1_555
C63 C62 1_555 1_555
Mn1_2 O1 1_555 1_555
Mn1A O3 1_555 1_555
Mn1C O12 1_555 1_555
Mn2_2 O2 1_555 1_555
Mn2A O4 1_555 1_555
Mn2A_2 O9 1_555 1_555
Mn2A_3 N4 1_555 1_555
Mn3_2 O6 1_555 1_555
Mn3A O10 1_555 1_555
O1_2 Mn1 1_555 1_555
O2_2 Mn1 1_555 1_555
O3A Mn1 1_555 1_555
O4A Mn2 1_555 1_555
O5_2 Mn2 1_555 1_555
O6_2 Mn3 1_555 1_555
O9A Mn2 1_555 1_555
O10A Mn3 1_555 1_555
O12C Mn1 1_555 1_555
N4A Mn2 1_555 1_555
Mn2 O2_2 1_555 1_555
O2 Mn1_2 1_555 1_555
O5 Mn2_2 1_555 1_555
C10 C11 1_555 1_555
C16 C17 1_555 1_555
C22 C23 1_555 1_555
C29 C30 1_555 1_555
C35 C36 1_555 1_555
C41 C42 1_555 1_555
C44 C49 1_555 1_555
C48 C49 1_555 1_555
C56 C61 1_555 1_555
C60 C61 1_555 1_555

#END
