
#######################################################################
#
#                 Cambridge Crystallographic Data Centre
#                                CCDC 
#
#######################################################################
#
# If this CIF has been generated from an entry in the Cambridge 
# Structural Database, then it will include bibliographic, chemical, 
# crystal, experimental, refinement or atomic coordinate data resulting 
# from the CCDC's data processing and validation procedures.
#
#######################################################################

data_MOFWOU
_symmetry_cell_setting           monoclinic
_symmetry_space_group_name_H-M   'P 21/c'
_symmetry_Int_Tables_number      14
_space_group_name_Hall           '-P 2ybc'
loop_
_symmetry_equiv_pos_site_id
_symmetry_equiv_pos_as_xyz
1 x,y,z
2 -x,1/2+y,1/2-z
3 -x,-y,-z
4 x,1/2-y,1/2+z
_cell_length_a                   9.788(3)
_cell_length_b                   13.030(4)
_cell_length_c                   11.646(4)
_cell_angle_alpha                90
_cell_angle_beta                 104.551(5)
_cell_angle_gamma                90
_cell_volume                     1437.66
loop_
_atom_site_label
_atom_site_type_symbol
_atom_site_fract_x
_atom_site_fract_y
_atom_site_fract_z
Ni1 Ni 1.0000 0.0000 1.0000
O1 O 0.99552(14) 0.00172(10) 0.81334(11)
O2 O 0.77151(14) 0.00362(10) 0.70653(12)
N1 N 1.21421(16) -0.00418(12) 1.03554(13)
N2 N 1.01984(16) 0.16107(12) 1.00621(13)
N3 N 0.78738(19) 0.19108(14) 1.00835(15)
C1 C 1.2568(2) 0.09893(17) 1.00296(18)
H1 H 1.2368 0.1054 0.9174
H2 H 1.3573 0.1090 1.0358
C2 C 1.1736(2) 0.17850(16) 1.05298(19)
H3 H 1.1982 0.1740 1.1389
H4 H 1.1977 0.2467 1.0312
C3 C 0.9578(2) 0.21743(16) 0.89487(18)
H5 H 0.9761 0.1820 0.8270
H6 H 0.9957 0.2865 0.8980
C4 C 0.7994(2) 0.21954(17) 0.88795(19)
H7 H 0.7608 0.2875 0.8666
H8 H 0.7491 0.1708 0.8295
C5 C 0.9309(2) 0.20096(16) 1.08196(18)
H9 H 0.9438 0.1607 1.1540
H10 H 0.9534 0.2721 1.1031
C6 C 1.2774(2) -0.09078(17) 0.98433(19)
H11 H 1.3768 -0.0950 1.0248
H12 H 1.2710 -0.0758 0.9016
C7 C 0.9023(2) 0.00206(13) 0.71636(15)
C8 C 0.9534(2) 0.00161(13) 0.60428(15)
C9 C 0.8572(2) -0.00924(14) 0.49328(16)
H13 H 0.7613 -0.0155 0.4885
C10 C 1.0957(2) 0.01072(14) 0.60946(16)
H14 H 1.1604 0.0179 0.6826
H23 H 1.250(2) -0.0106(14) 1.1139(7)
Ni1_2 Ni 1.0000 0.0000 0.0000
O1B O 1.00448(14) -0.00172(10) 0.18666(11)
O1B_2 O 1.00448(14) -0.00172(10) 1.18666(11)
O2B O 1.22849(14) -0.00362(10) 0.29347(12)
N1B N 0.78579(16) 0.00418(12) 0.96446(13)
N2B N 0.98016(16) -0.16107(12) 0.99379(13)
N3B N 1.21262(19) -0.19108(14) 0.99165(15)
C1B C 0.7432(2) -0.09893(17) 0.99704(18)
H1B H 0.7632 -0.1054 1.0826
H2B H 0.6427 -0.1090 0.9642
C2B C 0.8264(2) -0.17850(16) 0.94702(19)
H3B H 0.8018 -0.1740 0.8611
H4B H 0.8023 -0.2467 0.9688
C3B C 1.0422(2) -0.21743(16) 1.10513(18)
H5B H 1.0239 -0.1820 1.1730
H6B H 1.0043 -0.2865 1.1020
C4B C 1.2006(2) -0.21954(17) 1.11205(19)
H7B H 1.2392 -0.2875 1.1334
H8B H 1.2509 -0.1708 1.1705
C5B C 1.0691(2) -0.20096(16) 0.91804(18)
H9B H 1.0562 -0.1607 0.8460
H10B H 1.0466 -0.2721 0.8969
C6B C 0.7226(2) 0.09078(17) 1.01567(19)
H11B H 0.6232 0.0950 0.9752
H12B H 0.7290 0.0758 1.0984
C7B C 1.0977(2) -0.00206(13) 0.28364(15)
C8B C 1.0466(2) -0.00161(13) 0.39572(15)
C9B C 1.1428(2) 0.00924(14) 0.50672(16)
H13B H 1.2387 0.0155 0.5115
C10B C 0.9043(2) -0.01072(14) 0.39054(16)
H14B H 0.8396 -0.0179 0.3174
H23B H 0.750(2) 0.0106(14) 0.8861(7)
O3 O 0.60530(17) 0.16504(13) 0.57937(14)
H15 H 0.6457 0.1084 0.6112
H16 H 0.6671 0.2062 0.5626
O4 O 0.5600(2) 0.0477(2) 0.2223(2)
H17 H 0.5825 0.0900 0.2795
H18 H 0.4837 0.0129 0.2193
O5 O 0.3971(2) 0.16786(17) 0.37008(18)
H19 H 0.3415 0.1168 0.3579
H20 H 0.4590 0.1692 0.4362
O6 O 0.5774(2) 0.84196(17) 0.2652(2)
H21 H 0.5126 0.8260 0.3007
H22 H 0.5924 0.7932 0.2194
loop_
_geom_bond_atom_site_label_1
_geom_bond_atom_site_label_2
_geom_bond_site_symmetry_1
_geom_bond_site_symmetry_2
Ni1 O1 1_555 1_555
O1 C7 1_555 1_555
O2 C7 1_555 1_555
N1 Ni1 1_555 1_555
N2 Ni1 1_555 1_555
N3 C4 1_555 1_555
C1 N1 1_555 1_555
H1 C1 1_555 1_555
H2 C1 1_555 1_555
C2 N2 1_555 1_555
H3 C2 1_555 1_555
H4 C2 1_555 1_555
C3 N2 1_555 1_555
H5 C3 1_555 1_555
H6 C3 1_555 1_555
C4 C3 1_555 1_555
H7 C4 1_555 1_555
H8 C4 1_555 1_555
C5 N2 1_555 1_555
H9 C5 1_555 1_555
H10 C5 1_555 1_555
C6 N1 1_555 1_555
H11 C6 1_555 1_555
H12 C6 1_555 1_555
C7 C8 1_555 1_555
C8 C9 1_555 1_555
C9 H13 1_555 1_555
C10 C8 1_555 1_555
H14 C10 1_555 1_555
O3 H15 1_555 1_555
H16 O3 1_555 1_555
O4 H17 1_555 1_555
H18 O4 1_555 1_555
O5 H19 1_555 1_555
H20 O5 1_555 1_555
O6 H21 1_555 1_555
H22 O6 1_555 1_555
H23 N1 1_555 1_555
Ni1_2 O1B 1_555 1_555
O1B C7B 1_555 1_555
O1B_2 Ni1 1_555 1_555
O2B C7B 1_555 1_555
N1B Ni1 1_555 1_555
N2B Ni1 1_555 1_555
N3B C6 1_555 1_555
C1B N1B 1_555 1_555
H1B C1B 1_555 1_555
H2B C1B 1_555 1_555
C2B N2B 1_555 1_555
H3B C2B 1_555 1_555
H4B C2B 1_555 1_555
C3B N2B 1_555 1_555
H5B C3B 1_555 1_555
H6B C3B 1_555 1_555
C4B N3B 1_555 1_555
H7B C4B 1_555 1_555
H8B C4B 1_555 1_555
C5B N2B 1_555 1_555
H9B C5B 1_555 1_555
H10B C5B 1_555 1_555
C6B N3 1_555 1_555
H11B C6B 1_555 1_555
H12B C6B 1_555 1_555
C7B C8B 1_555 1_555
C8B C9B 1_555 1_555
C9B C10 1_555 1_555
H13B C9B 1_555 1_555
C10B C9 1_555 1_555
H14B C10B 1_555 1_555
H23B N1B 1_555 1_555
N3 C5 1_555 1_555
C1 C2 1_555 1_555
N1B C6B 1_555 1_555
N3B C5B 1_555 1_555
C1B C2B 1_555 1_555
C3B C4B 1_555 1_555
C8B C10B 1_555 1_555

#END
