
#######################################################################
#
#                 Cambridge Crystallographic Data Centre
#                                CCDC 
#
#######################################################################
#
# If this CIF has been generated from an entry in the Cambridge 
# Structural Database, then it will include bibliographic, chemical, 
# crystal, experimental, refinement or atomic coordinate data resulting 
# from the CCDC's data processing and validation procedures.
#
#######################################################################

data_MOFWEL
_symmetry_cell_setting           triclinic
_symmetry_space_group_name_H-M   'P -1'
_symmetry_Int_Tables_number      2
_space_group_name_Hall           '-P 1'
loop_
_symmetry_equiv_pos_site_id
_symmetry_equiv_pos_as_xyz
1 x,y,z
2 -x,-y,-z
_cell_length_a                   8.8451(18)
_cell_length_b                   10.334(2)
_cell_length_c                   11.762(2)
_cell_angle_alpha                77.05(3)
_cell_angle_beta                 81.50(3)
_cell_angle_gamma                75.82(3)
_cell_volume                     1010.92
loop_
_atom_site_label
_atom_site_type_symbol
_atom_site_fract_x
_atom_site_fract_y
_atom_site_fract_z
Mn1 Mn 1.0000 0.5000 0.0000
Mn2 Mn 1.30125(7) 0.56650(6) 0.09411(5)
O1 O 1.1729(4) 0.6179(4) 0.2652(3)
O2 O 1.0365(3) 0.6032(3) 0.1297(2)
O3 O 0.3233(4) 1.3565(3) 0.1483(3)
O4 O 0.1223(4) 1.3063(3) 0.0856(3)
O5 O 0.2255(3) 0.5665(3) 0.9212(2)
O6 O 0.4676(3) 0.4633(3) 0.8749(3)
N1 N 1.3004(7) 0.7835(5) 0.0216(5)
C1 C 1.0442(5) 0.6227(4) 0.2321(4)
C2 C 0.8960(5) 0.6525(4) 0.3092(3)
C3 C 0.8995(5) 0.6548(5) 0.4264(4)
H1 H 0.9944 0.6434 0.4565
C4 C 0.7597(5) 0.6742(4) 0.4981(3)
H2 H 0.7619 0.6772 0.5763
C5 C 0.6164(5) 0.6893(4) 0.4557(3)
C6 C 0.6147(5) 0.6891(4) 0.3378(3)
H3 H 0.5197 0.7018 0.3072
C7 C 0.7532(5) 0.6701(4) 0.2656(3)
H4 H 0.7508 0.6691 0.1870
C8 C 0.4693(5) 0.7029(4) 0.5362(3)
C9 C 0.4691(5) 0.6189(4) 0.6456(3)
H5 H 0.5603 0.5555 0.6660
C10 C 0.3364(5) 0.6264(4) 0.7260(3)
C11 C 0.3447(5) 0.5450(4) 0.8483(3)
C12 C 0.1990(5) 0.7146(5) 0.6928(4)
H6 H 0.1082 0.7176 0.7443
C13 C 0.1957(5) 0.7979(5) 0.5841(4)
H7 H 0.1018 0.8563 0.5628
C14 C 0.3301(5) 0.7972(4) 0.5043(4)
C15 C 0.3193(5) 0.9061(4) 0.3972(3)
C16 C 0.4284(5) 0.9875(4) 0.3685(3)
H8 H 0.5184 0.9634 0.4075
C17 C 0.4047(5) 1.1032(4) 0.2834(3)
H9 H 0.4786 1.1569 0.2656
C18 C 0.2723(5) 1.1412(4) 0.2235(3)
C19 C 0.1688(5) 1.0541(4) 0.2467(4)
H10 H 0.0833 1.0744 0.2034
C20 C 0.1913(5) 0.9390(4) 0.3324(4)
H11 H 0.1204 0.8826 0.3472
C21 C 0.2376(5) 1.2783(4) 0.1445(4)
C22 C 1.2842(12) 0.8921(8) -0.0188(7)
C23 C 1.2492(15) 1.0391(9) -0.0749(10)
H12 H 1.2296 1.0486 -0.1548
H13 H 1.3371 1.0774 -0.0730
H14 H 1.1584 1.0861 -0.0332
Mn2A Mn -0.30125(7) 0.43350(6) 0.90589(5)
O1A O -0.1729(4) 0.3821(4) 0.7348(3)
O2A O -0.0365(3) 0.3968(3) 0.8703(2)
O3A O 0.6767(4) -0.3565(3) 0.8517(3)
O4A O 0.8777(4) -0.3063(3) 0.9144(3)
O5A O 0.7745(3) 0.4335(3) 0.0788(2)
O6A O 0.5324(3) 0.5367(3) 0.1251(3)
N1A N -0.3004(7) 0.2165(5) 0.9784(5)
C1A C -0.0442(5) 0.3773(4) 0.7679(4)
C2A C 0.1040(5) 0.3475(4) 0.6908(3)
C3A C 0.1005(5) 0.3452(5) 0.5736(4)
H1A H 0.0056 0.3566 0.5435
C4A C 0.2403(5) 0.3258(4) 0.5019(3)
H2A H 0.2381 0.3228 0.4237
C5A C 0.3836(5) 0.3107(4) 0.5443(3)
C6A C 0.3853(5) 0.3109(4) 0.6622(3)
H3A H 0.4803 0.2982 0.6928
C7A C 0.2468(5) 0.3299(4) 0.7344(3)
H4A H 0.2492 0.3309 0.8130
C8A C 0.5307(5) 0.2971(4) 0.4638(3)
C9A C 0.5309(5) 0.3811(4) 0.3544(3)
H5A H 0.4397 0.4445 0.3340
C10A C 0.6636(5) 0.3736(4) 0.2740(3)
C11A C 0.6553(5) 0.4550(4) 0.1517(3)
C12A C 0.8010(5) 0.2854(5) 0.3072(4)
H6A H 0.8918 0.2824 0.2557
C13A C 0.8043(5) 0.2021(5) 0.4159(4)
H7A H 0.8982 0.1437 0.4372
C14A C 0.6699(5) 0.2028(4) 0.4957(4)
C15A C 0.6807(5) 0.0939(4) 0.6028(3)
C16A C 0.5716(5) 0.0125(4) 0.6315(3)
H8A H 0.4816 0.0366 0.5925
C17A C 0.5953(5) -0.1032(4) 0.7166(3)
H9A H 0.5214 -0.1569 0.7344
C18A C 0.7277(5) -0.1412(4) 0.7765(3)
C19A C 0.8312(5) -0.0541(4) 0.7533(4)
H10A H 0.9167 -0.0744 0.7966
C20A C 0.8087(5) 0.0610(4) 0.6676(4)
H11A H 0.8796 0.1174 0.6528
C21A C 0.7624(5) -0.2783(4) 0.8555(4)
C22A C -0.2842(12) 0.1079(8) 1.0188(7)
C23A C -0.2492(15) -0.0391(9) 1.0749(10)
H12A H -0.2296 -0.0486 1.1548
H13A H -0.3371 -0.0774 1.0730
H14A H -0.1584 -0.0861 1.0332
Mn1_2 Mn 0.0000 0.5000 1.0000
Mn1_3 Mn 0.0000 1.5000 0.0000
Mn1_4 Mn 1.0000 -0.5000 1.0000
Mn2_2 Mn 0.30125(7) 0.56650(6) 0.09411(5)
Mn2_3 Mn 0.30125(7) 0.56650(6) 1.09411(5)
Mn2_4 Mn 0.30125(7) 1.56650(6) 0.09411(5)
Mn2A_2 Mn 0.69875(7) -0.56650(6) 0.90589(5)
Mn2A_3 Mn 0.69875(7) 0.43350(6) -0.09411(5)
Mn2A_4 Mn 0.69875(7) 0.43350(6) 0.90589(5)
O2A_2 O 0.9635(3) 0.3968(3) -0.1297(2)
O3_2 O 1.3233(4) 0.3565(3) 0.1483(3)
O3A_2 O -0.3233(4) 0.6435(3) 0.8517(3)
O4_2 O 1.1223(4) 0.3063(3) 0.0856(3)
O4A_2 O 0.8777(4) 0.6937(3) -0.0856(3)
O5_2 O 1.2255(3) 0.5665(3) -0.0788(2)
O5A_2 O -0.2255(3) 0.4335(3) 1.0788(2)
O6_2 O -0.5324(3) 0.4633(3) 0.8749(3)
O6A_2 O 1.5324(3) 0.5367(3) 0.1251(3)
loop_
_geom_bond_atom_site_label_1
_geom_bond_atom_site_label_2
_geom_bond_site_symmetry_1
_geom_bond_site_symmetry_2
Mn1 O2 1_555 1_555
Mn2 O1 1_555 1_555
O1 C1 1_555 1_555
O2 Mn2 1_555 1_555
O3 C21 1_555 1_555
O4 C21 1_555 1_555
O5 C11 1_555 1_555
O6 C11 1_555 1_555
N1 Mn2 1_555 1_555
C1 O2 1_555 1_555
C2 C1 1_555 1_555
C3 C2 1_555 1_555
H1 C3 1_555 1_555
C4 C3 1_555 1_555
H2 C4 1_555 1_555
C5 C4 1_555 1_555
C6 C5 1_555 1_555
H3 C6 1_555 1_555
C7 C2 1_555 1_555
H4 C7 1_555 1_555
C8 C5 1_555 1_555
C9 C8 1_555 1_555
H5 C9 1_555 1_555
C10 C9 1_555 1_555
C11 C10 1_555 1_555
C12 C10 1_555 1_555
H6 C12 1_555 1_555
C13 C12 1_555 1_555
H7 C13 1_555 1_555
C14 C8 1_555 1_555
C15 C14 1_555 1_555
C16 C15 1_555 1_555
H8 C16 1_555 1_555
C17 C16 1_555 1_555
H9 C17 1_555 1_555
C18 C17 1_555 1_555
C19 C18 1_555 1_555
H10 C19 1_555 1_555
C20 C15 1_555 1_555
H11 C20 1_555 1_555
C21 C18 1_555 1_555
C22 N1 1_555 1_555
C23 C22 1_555 1_555
H12 C23 1_555 1_555
H13 C23 1_555 1_555
H14 C23 1_555 1_555
Mn2A O1A 1_555 1_555
O1A C1A 1_555 1_555
O2A Mn2A 1_555 1_555
O3A C21A 1_555 1_555
O4A C21A 1_555 1_555
O5A Mn1 1_555 1_555
O6A C11A 1_555 1_555
N1A Mn2A 1_555 1_555
C1A O2A 1_555 1_555
C2A C1A 1_555 1_555
C3A C2A 1_555 1_555
H1A C3A 1_555 1_555
C4A C3A 1_555 1_555
H2A C4A 1_555 1_555
C5A C4A 1_555 1_555
C6A C5A 1_555 1_555
H3A C6A 1_555 1_555
C7A C2A 1_555 1_555
H4A C7A 1_555 1_555
C8A C5A 1_555 1_555
C9A C8A 1_555 1_555
H5A C9A 1_555 1_555
C10A C9A 1_555 1_555
C11A O5A 1_555 1_555
C12A C10A 1_555 1_555
H6A C12A 1_555 1_555
C13A C12A 1_555 1_555
H7A C13A 1_555 1_555
C14A C8A 1_555 1_555
C15A C14A 1_555 1_555
C16A C15A 1_555 1_555
H8A C16A 1_555 1_555
C17A C16A 1_555 1_555
H9A C17A 1_555 1_555
C18A C17A 1_555 1_555
C19A C18A 1_555 1_555
H10A C19A 1_555 1_555
C20A C15A 1_555 1_555
H11A C20A 1_555 1_555
C21A C18A 1_555 1_555
C22A N1A 1_555 1_555
C23A C22A 1_555 1_555
H12A C23A 1_555 1_555
H13A C23A 1_555 1_555
H14A C23A 1_555 1_555
Mn1_2 O5 1_555 1_555
Mn1_3 O4 1_555 1_555
Mn1_4 O4A 1_555 1_555
Mn2_2 O6A 1_555 1_555
Mn2_3 O5 1_555 1_555
Mn2_4 O3 1_555 1_555
Mn2A_2 O3A 1_555 1_555
Mn2A_3 O5A 1_555 1_555
Mn2A_4 O6 1_555 1_555
O2A_2 Mn1 1_555 1_555
O3_2 Mn2 1_555 1_555
O3A_2 Mn2A 1_555 1_555
O4_2 Mn1 1_555 1_555
O4A_2 Mn1 1_555 1_555
O5_2 Mn1 1_555 1_555
O5A_2 Mn2A 1_555 1_555
O6_2 Mn2A 1_555 1_555
O6A_2 Mn2 1_555 1_555
Mn2 O5_2 1_555 1_555
C6 C7 1_555 1_555
C13 C14 1_555 1_555
C19 C20 1_555 1_555
O2A Mn1_2 1_555 1_555
C6A C7A 1_555 1_555
C10A C11A 1_555 1_555
C13A C14A 1_555 1_555
C19A C20A 1_555 1_555
Mn1_2 O5A_2 1_555 1_555
Mn2A_3 O2A_2 1_555 1_555

#END
