
#######################################################################
#
#                 Cambridge Crystallographic Data Centre
#                                CCDC 
#
#######################################################################
#
# If this CIF has been generated from an entry in the Cambridge 
# Structural Database, then it will include bibliographic, chemical, 
# crystal, experimental, refinement or atomic coordinate data resulting 
# from the CCDC's data processing and validation procedures.
#
#######################################################################

data_MOFYAJ
_symmetry_cell_setting           triclinic
_symmetry_space_group_name_H-M   'P -1'
_symmetry_Int_Tables_number      2
_space_group_name_Hall           '-P 1'
loop_
_symmetry_equiv_pos_site_id
_symmetry_equiv_pos_as_xyz
1 x,y,z
2 -x,-y,-z
_cell_length_a                   9.5968(7)
_cell_length_b                   10.6725(9)
_cell_length_c                   11.6254(7)
_cell_angle_alpha                73.962(7)
_cell_angle_beta                 69.363(6)
_cell_angle_gamma                65.849(8)
_cell_volume                     1004.52
loop_
_atom_site_label
_atom_site_type_symbol
_atom_site_fract_x
_atom_site_fract_y
_atom_site_fract_z
Co1 Co 0.40996(3) 0.08028(3) 0.19166(2)
O1 O 0.28735(19) 0.29003(15) 0.11126(15)
O2 O 0.45362(19) 0.25125(14) 0.21543(14)
O3 O 0.31507(19) 0.95246(15) 0.16486(13)
O4 O 0.39151(18) 0.96528(14) -0.04147(13)
N1 N 0.2370(2) 0.09448(18) 0.36909(16)
N2 N 0.5305(2) -0.08410(18) 0.31173(16)
C1 C 0.3607(2) 0.3348(2) 0.15183(18)
C2 C 0.3440(2) 0.4866(2) 0.12628(18)
C3 C 0.4280(3) 0.5205(2) 0.17959(19)
H1 H 0.4880 0.4512 0.2296
C4 C 0.4260(3) 0.6572(2) 0.16070(19)
H2 H 0.4831 0.6771 0.1991
C5 C 0.3410(2) 0.7609(2) 0.08657(18)
C6 C 0.2498(2) 0.7322(2) 0.03002(19)
C7 C 0.1535(3) 0.8383(2) -0.0421(2)
H3 H 0.1522 0.9287 -0.0551
C8 C 0.0627(3) 0.8113(3) -0.0930(2)
H4 H -0.0030 0.8834 -0.1371
C9 C 0.0686(3) 0.6742(3) -0.0785(2)
H5 H 0.0089 0.6555 -0.1153
C10 C 0.1611(3) 0.5683(2) -0.0110(2)
H6 H 0.1651 0.4781 -0.0040
C11 C 0.2515(2) 0.5928(2) 0.04894(19)
C12 C 0.3505(2) 0.9041(2) 0.06656(18)
C13 C 0.0898(3) 0.1861(2) 0.3904(2)
H7 H 0.0591 0.2506 0.3235
C14 C -0.0211(3) 0.1917(3) 0.5061(2)
C15 C 0.0295(3) 0.0952(3) 0.6035(2)
H8 H -0.0402 0.0944 0.6829
C16 C 0.1818(3) 0.0004(3) 0.5842(2)
H9 H 0.2156 -0.0636 0.6502
C17 C 0.2847(3) 0.0015(2) 0.46467(19)
C18 C 0.4493(3) -0.0983(2) 0.43296(19)
C19 C 0.5183(3) -0.2013(2) 0.5190(2)
H10 H 0.4619 -0.2092 0.6026
C20 C 0.6701(3) -0.2918(3) 0.4807(2)
H11 H 0.7169 -0.3606 0.5388
C21 C 0.7542(3) -0.2814(3) 0.3563(2)
C22 C 0.6778(3) -0.1742(2) 0.2756(2)
H12 H 0.7321 -0.1645 0.1917
C23 C 0.9208(4) -0.3775(3) 0.3090(3)
H13 H 0.9873 -0.3238 0.2604
H14 H 0.9209 -0.4348 0.2582
H15 H 0.9605 -0.4353 0.3781
C24 C -0.1870(3) 0.2966(3) 0.5231(3)
H16 H -0.1947 0.3726 0.5568
H17 H -0.2613 0.2534 0.5793
H18 H -0.2108 0.3308 0.4442
Co1_2 Co 0.40996(3) 1.08028(3) 0.19166(2)
Co1A Co 0.59004(3) 0.91972(3) -0.19166(2)
O3_2 O 0.31507(19) -0.04754(15) 0.16486(13)
O4A O 0.60849(18) 0.03472(14) 0.04147(13)
loop_
_geom_bond_atom_site_label_1
_geom_bond_atom_site_label_2
_geom_bond_site_symmetry_1
_geom_bond_site_symmetry_2
Co1 O1 1_555 1_555
O1 C1 1_555 1_555
O2 Co1 1_555 1_555
O3 C12 1_555 1_555
O4 C12 1_555 1_555
N1 Co1 1_555 1_555
N2 Co1 1_555 1_555
C1 O2 1_555 1_555
C2 C1 1_555 1_555
C3 C2 1_555 1_555
H1 C3 1_555 1_555
C4 C3 1_555 1_555
H2 C4 1_555 1_555
C5 C4 1_555 1_555
C6 C5 1_555 1_555
C7 C6 1_555 1_555
H3 C7 1_555 1_555
C8 C7 1_555 1_555
H4 C8 1_555 1_555
C9 C8 1_555 1_555
H5 C9 1_555 1_555
C10 C9 1_555 1_555
H6 C10 1_555 1_555
C11 C2 1_555 1_555
C12 C5 1_555 1_555
C13 N1 1_555 1_555
H7 C13 1_555 1_555
C14 C13 1_555 1_555
C15 C14 1_555 1_555
H8 C15 1_555 1_555
C16 C15 1_555 1_555
H9 C16 1_555 1_555
C17 N1 1_555 1_555
C18 N2 1_555 1_555
C19 C18 1_555 1_555
H10 C19 1_555 1_555
C20 C19 1_555 1_555
H11 C20 1_555 1_555
C21 C20 1_555 1_555
C22 N2 1_555 1_555
H12 C22 1_555 1_555
C23 C21 1_555 1_555
H13 C23 1_555 1_555
H14 C23 1_555 1_555
H15 C23 1_555 1_555
C24 C14 1_555 1_555
H16 C24 1_555 1_555
H17 C24 1_555 1_555
H18 C24 1_555 1_555
Co1_2 O3 1_555 1_555
Co1A O4 1_555 1_555
O3_2 Co1 1_555 1_555
O4A Co1 1_555 1_555
C6 C11 1_555 1_555
C10 C11 1_555 1_555
C16 C17 1_555 1_555
C17 C18 1_555 1_555
C21 C22 1_555 1_555

#END
