
#######################################################################
#
#                 Cambridge Crystallographic Data Centre
#                                CCDC 
#
#######################################################################
#
# If this CIF has been generated from an entry in the Cambridge 
# Structural Database, then it will include bibliographic, chemical, 
# crystal, experimental, refinement or atomic coordinate data resulting 
# from the CCDC's data processing and validation procedures.
#
#######################################################################

data_MOFYIR
_symmetry_cell_setting           triclinic
_symmetry_space_group_name_H-M   'P -1'
_symmetry_Int_Tables_number      2
_space_group_name_Hall           '-P 1'
loop_
_symmetry_equiv_pos_site_id
_symmetry_equiv_pos_as_xyz
1 x,y,z
2 -x,-y,-z
_cell_length_a                   8.8615(4)
_cell_length_b                   13.2176(6)
_cell_length_c                   19.1476(10)
_cell_angle_alpha                78.192(4)
_cell_angle_beta                 81.697(4)
_cell_angle_gamma                80.696(4)
_cell_volume                     2151.94
loop_
_atom_site_label
_atom_site_type_symbol
_atom_site_fract_x
_atom_site_fract_y
_atom_site_fract_z
Co1 Co 0.14911(3) 0.14439(2) 0.558181(14)
Co2 Co 0.68378(3) 0.66157(2) 0.068083(14)
O1 O 0.08431(15) 0.04707(11) 0.65383(7)
O2 O -0.05553(16) -0.05223(11) 0.61414(7)
O3 O 0.04010(16) -0.35263(11) 0.97734(8)
O4 O -0.19578(15) -0.26062(11) 0.97636(7)
O5 O 0.24319(15) 0.22795(11) 0.46022(7)
O6 O 0.44952(16) 0.11838(12) 0.42705(8)
O7 O 0.56052(15) 0.57661(11) 0.15523(7)
O8 O 0.40950(16) 0.49759(12) 0.10504(7)
O9 O 0.28172(15) 0.00773(11) 0.52801(8)
H1 H 0.333(2) -0.0394(14) 0.5545(10)
H2 H 0.340(2) 0.0355(17) 0.4934(9)
O10 O -0.04021(16) 0.12300(11) 0.51060(8)
H3 H -0.076(3) 0.0733(13) 0.5380(9)
H4 H -0.014(3) 0.1106(17) 0.4692(6)
O11 O 0.85773(17) 0.53297(12) 0.07203(8)
H5 H 0.857(3) 0.4737(10) 0.0628(13)
H6 H 0.925(2) 0.5634(15) 0.0438(11)
O12 O 0.54259(17) 0.62638(12) -0.00074(8)
H7 H 0.484(2) 0.5919(17) 0.0289(10)
H8 H 0.579(3) 0.5979(17) -0.0353(9)
N1 N 0.02433(18) 0.28807(13) 0.58164(9)
N2 N 0.30380(18) 0.19911(13) 0.61302(9)
N3 N 0.53848(18) 0.80081(13) 0.08113(9)
N4 N 0.80543(18) 0.72849(13) 0.13200(9)
C1 C 0.0172(2) -0.03273(16) 0.66043(10)
C2 C 0.0155(2) -0.10614(15) 0.73206(10)
C3 C -0.1220(2) -0.14228(16) 0.76004(11)
H9 H -0.2049 -0.1276 0.7315
C4 C -0.1415(2) -0.20038(16) 0.82987(11)
H10 H -0.2386 -0.2225 0.8484
C5 C -0.0227(2) -0.22602(15) 0.87222(10)
C6 C 0.1264(2) -0.19795(15) 0.84301(10)
C7 C 0.2581(2) -0.22904(16) 0.88145(11)
H11 H 0.2469 -0.2673 0.9292
C8 C 0.3998(2) -0.20478(16) 0.85075(11)
H12 H 0.4863 -0.2274 0.8769
C9 C 0.4183(2) -0.14630(16) 0.78034(11)
H13 H 0.5175 -0.1306 0.7591
C10 C 0.2942(2) -0.11207(16) 0.74246(11)
H14 H 0.3081 -0.0714 0.6956
C11 C 0.1449(2) -0.13653(15) 0.77225(10)
C12 C -0.0600(2) -0.28461(16) 0.94782(11)
C13 C -0.1131(2) 0.33198(17) 0.56043(11)
H15 H -0.1703 0.2907 0.5419
C14 C -0.1764(2) 0.43429(17) 0.56406(11)
C15 C -0.0890(2) 0.49438(17) 0.58961(12)
H16 H -0.1257 0.5656 0.5912
C16 C 0.0521(2) 0.44943(17) 0.61280(12)
H17 H 0.1118 0.4893 0.6312
C17 C 0.1053(2) 0.34613(16) 0.60898(10)
C18 C 0.2546(2) 0.29192(16) 0.63289(11)
C19 C 0.3373(2) 0.33214(17) 0.67508(12)
H18 H 0.3001 0.3972 0.6894
C20 C 0.4748(2) 0.27573(18) 0.69571(12)
H19 H 0.5318 0.3017 0.7249
C21 C 0.5294(2) 0.18142(17) 0.67384(11)
C22 C 0.4380(2) 0.14631(17) 0.63267(11)
H20 H 0.4728 0.0814 0.6178
C23 C 0.6791(2) 0.11705(19) 0.69322(13)
H21 H 0.7645 0.1564 0.6721
H22 H 0.6925 0.0520 0.6746
H23 H 0.6775 0.1009 0.7456
C24 C -0.3324(2) 0.47821(19) 0.54014(13)
H24 H -0.4109 0.4725 0.5819
H25 H -0.3551 0.4389 0.5056
H26 H -0.3326 0.5517 0.5174
C25 C 0.3631(2) 0.20428(16) 0.41950(11)
C26 C 0.4018(2) 0.28516(16) 0.35421(10)
C27 C 0.2896(2) 0.32184(16) 0.30885(11)
H27 H 0.1907 0.2999 0.3216
C28 C 0.3197(2) 0.39132(16) 0.24392(11)
H28 H 0.2417 0.4144 0.2128
C29 C 0.4603(2) 0.42626(16) 0.22480(10)
C30 C 0.5810(2) 0.38849(15) 0.26996(10)
C31 C 0.7343(2) 0.41308(16) 0.24955(11)
H29 H 0.7578 0.4585 0.2053
C32 C 0.8477(2) 0.37205(16) 0.29291(11)
H30 H 0.9497 0.3875 0.2776
C33 C 0.8155(2) 0.30721(16) 0.35994(11)
H31 H 0.8942 0.2820 0.3905
C34 C 0.6706(2) 0.28065(16) 0.38093(11)
H32 H 0.6496 0.2369 0.4262
C35 C 0.5502(2) 0.31778(15) 0.33587(10)
C36 C 0.4798(2) 0.50535(16) 0.15593(11)
C37 C 0.4034(2) 0.83254(17) 0.05408(11)
H33 H 0.3637 0.7857 0.0322
C38 C 0.3185(2) 0.92997(19) 0.05640(12)
C39 C 0.3806(3) 0.99799(18) 0.08707(12)
H34 H 0.3288 1.0666 0.0880
C40 C 0.5188(3) 0.96533(18) 0.11638(12)
H35 H 0.5609 1.0108 0.1385
C41 C 0.5948(2) 0.86596(16) 0.11308(11)
C42 C 0.7425(2) 0.82414(16) 0.14352(11)
C43 C 0.8122(2) 0.87858(18) 0.18222(12)
H36 H 0.7657 0.9458 0.1903
C44 C 0.9497(2) 0.83371(18) 0.20874(12)
H37 H 0.9977 0.8698 0.2356
C45 C 1.0173(2) 0.73589(18) 0.19601(11)
C46 C 0.9385(2) 0.68625(17) 0.15772(11)
H38 H 0.9820 0.6186 0.1495
C47 C 1.1683(3) 0.6838(2) 0.22194(13)
H39 H 1.2524 0.7182 0.1927
H40 H 1.1836 0.6101 0.2177
H41 H 1.1673 0.6891 0.2723
C48 C 0.1671(3) 0.9608(2) 0.02550(14)
H42 H 0.0830 0.9432 0.0631
H43 H 0.1669 0.9231 -0.0136
H44 H 0.1527 1.0361 0.0069
Co2_2 Co -0.31622(3) -0.33843(2) 1.068083(14)
O4_2 O 0.80422(15) 0.73938(11) -0.02364(7)
loop_
_geom_bond_atom_site_label_1
_geom_bond_atom_site_label_2
_geom_bond_site_symmetry_1
_geom_bond_site_symmetry_2
Co1 O1 1_555 1_555
Co2 O7 1_555 1_555
O1 C1 1_555 1_555
O2 C1 1_555 1_555
O3 C12 1_555 1_555
O4 C12 1_555 1_555
O5 Co1 1_555 1_555
O6 C25 1_555 1_555
O7 C36 1_555 1_555
O8 C36 1_555 1_555
O9 Co1 1_555 1_555
H1 O9 1_555 1_555
H2 O9 1_555 1_555
O10 Co1 1_555 1_555
H3 O10 1_555 1_555
H4 O10 1_555 1_555
O11 Co2 1_555 1_555
H5 O11 1_555 1_555
H6 O11 1_555 1_555
O12 Co2 1_555 1_555
H7 O12 1_555 1_555
H8 O12 1_555 1_555
N1 Co1 1_555 1_555
N2 Co1 1_555 1_555
N3 Co2 1_555 1_555
N4 Co2 1_555 1_555
C1 C2 1_555 1_555
C2 C3 1_555 1_555
C3 H9 1_555 1_555
C4 C3 1_555 1_555
H10 C4 1_555 1_555
C5 C4 1_555 1_555
C6 C5 1_555 1_555
C7 C6 1_555 1_555
H11 C7 1_555 1_555
C8 C7 1_555 1_555
H12 C8 1_555 1_555
C9 C8 1_555 1_555
H13 C9 1_555 1_555
C10 C9 1_555 1_555
H14 C10 1_555 1_555
C11 C2 1_555 1_555
C12 C5 1_555 1_555
C13 N1 1_555 1_555
H15 C13 1_555 1_555
C14 C13 1_555 1_555
C15 C14 1_555 1_555
H16 C15 1_555 1_555
C16 C15 1_555 1_555
H17 C16 1_555 1_555
C17 N1 1_555 1_555
C18 N2 1_555 1_555
C19 C18 1_555 1_555
H18 C19 1_555 1_555
C20 C19 1_555 1_555
H19 C20 1_555 1_555
C21 C20 1_555 1_555
C22 N2 1_555 1_555
H20 C22 1_555 1_555
C23 C21 1_555 1_555
H21 C23 1_555 1_555
H22 C23 1_555 1_555
H23 C23 1_555 1_555
C24 C14 1_555 1_555
H24 C24 1_555 1_555
H25 C24 1_555 1_555
H26 C24 1_555 1_555
C25 O5 1_555 1_555
C26 C25 1_555 1_555
C27 C26 1_555 1_555
H27 C27 1_555 1_555
C28 C27 1_555 1_555
H28 C28 1_555 1_555
C29 C28 1_555 1_555
C30 C29 1_555 1_555
C31 C30 1_555 1_555
H29 C31 1_555 1_555
C32 C31 1_555 1_555
H30 C32 1_555 1_555
C33 C32 1_555 1_555
H31 C33 1_555 1_555
C34 C33 1_555 1_555
H32 C34 1_555 1_555
C35 C26 1_555 1_555
C36 C29 1_555 1_555
C37 N3 1_555 1_555
H33 C37 1_555 1_555
C38 C37 1_555 1_555
C39 C38 1_555 1_555
H34 C39 1_555 1_555
C40 C39 1_555 1_555
H35 C40 1_555 1_555
C41 N3 1_555 1_555
C42 N4 1_555 1_555
C43 C42 1_555 1_555
H36 C43 1_555 1_555
C44 C43 1_555 1_555
H37 C44 1_555 1_555
C45 C44 1_555 1_555
C46 N4 1_555 1_555
H38 C46 1_555 1_555
C47 C45 1_555 1_555
H39 C47 1_555 1_555
H40 C47 1_555 1_555
H41 C47 1_555 1_555
C48 C38 1_555 1_555
H42 C48 1_555 1_555
H43 C48 1_555 1_555
H44 C48 1_555 1_555
Co2_2 O4 1_555 1_555
O4_2 Co2 1_555 1_555
C6 C11 1_555 1_555
C10 C11 1_555 1_555
C16 C17 1_555 1_555
C17 C18 1_555 1_555
C21 C22 1_555 1_555
C30 C35 1_555 1_555
C34 C35 1_555 1_555
C40 C41 1_555 1_555
C41 C42 1_555 1_555
C45 C46 1_555 1_555

#END
