
#######################################################################
#
#                 Cambridge Crystallographic Data Centre
#                                CCDC 
#
#######################################################################
#
# If this CIF has been generated from an entry in the Cambridge 
# Structural Database, then it will include bibliographic, chemical, 
# crystal, experimental, refinement or atomic coordinate data resulting 
# from the CCDC's data processing and validation procedures.
#
#######################################################################

data_MOFYAJ01
_symmetry_cell_setting           orthorhombic
_symmetry_space_group_name_H-M   'P b c a'
_symmetry_Int_Tables_number      61
_space_group_name_Hall           '-P 2ac 2ab'
loop_
_symmetry_equiv_pos_site_id
_symmetry_equiv_pos_as_xyz
1 x,y,z
2 1/2-x,-y,1/2+z
3 1/2+x,1/2-y,-z
4 -x,1/2+y,1/2-z
5 -x,-y,-z
6 1/2+x,y,1/2-z
7 1/2-x,1/2+y,z
8 x,1/2-y,1/2+z
_cell_length_a                   12.5060(4)
_cell_length_b                   17.1232(6)
_cell_length_c                   19.2757(6)
_cell_angle_alpha                90
_cell_angle_beta                 90
_cell_angle_gamma                90
_cell_volume                     4127.75
loop_
_atom_site_label
_atom_site_type_symbol
_atom_site_fract_x
_atom_site_fract_y
_atom_site_fract_z
Co1 Co 0.483969(19) 0.078449(14) 0.402458(13)
O1 O 0.52483(11) 0.17056(8) 0.47300(7)
O2 O 0.59182(11) 0.17073(8) 0.36789(7)
O3 O 0.88396(10) 0.50752(8) 0.41821(7)
O4 O 0.89189(10) 0.48988(8) 0.53316(7)
N1 N 0.35042(13) 0.14192(10) 0.36052(9)
N2 N 0.44794(13) 0.01735(10) 0.30955(8)
C1 C 0.58493(15) 0.20061(11) 0.42740(10)
C2 C 0.65069(14) 0.27231(11) 0.44314(10)
C3 C 0.74924(16) 0.27780(12) 0.41145(10)
H1 H 0.7719 0.2378 0.3824
C4 C 0.81600(15) 0.34252(12) 0.42218(10)
H2 H 0.8822 0.3446 0.4003
C5 C 0.78499(14) 0.40289(11) 0.46455(10)
C6 C 0.68408(15) 0.39928(12) 0.49933(10)
C7 C 0.64969(18) 0.46017(13) 0.54414(13)
H3 H 0.6935 0.5033 0.5514
C8 C 0.5529(2) 0.45591(17) 0.57654(17)
H4 H 0.5317 0.4958 0.6062
C9 C 0.4853(2) 0.39193(17) 0.56549(16)
H5 H 0.4192 0.3902 0.5875
C10 C 0.51476(16) 0.33239(14) 0.52311(12)
H6 H 0.4686 0.2904 0.5164
C11 C 0.61593(15) 0.33349(11) 0.48866(10)
C12 C 0.85942(14) 0.47225(11) 0.47335(10)
C13 C 0.30989(17) 0.20829(13) 0.38637(12)
H7 H 0.3401 0.2280 0.4268
C14 C 0.2258(2) 0.24956(16) 0.35673(13)
C15 C 0.1825(2) 0.2172(2) 0.29708(16)
H8 H 0.1259 0.2422 0.2750
C16 C 0.2220(2) 0.1489(2) 0.27001(14)
H9 H 0.1918 0.1275 0.2302
C17 C 0.30727(16) 0.11188(14) 0.30229(11)
C18 C 0.35924(16) 0.04060(14) 0.27542(11)
C19 C 0.3239(2) -0.00063(17) 0.21709(12)
H10 H 0.2625 0.0151 0.1937
C20 C 0.3805(2) -0.06457(17) 0.19472(13)
H11 H 0.3561 -0.0928 0.1567
C21 C 0.4729(2) -0.08751(14) 0.22785(13)
C22 C 0.50226(17) -0.04406(13) 0.28606(12)
H12 H 0.5636 -0.0589 0.3099
C23 C 0.5412(3) -0.15416(17) 0.20333(17)
H13 H 0.4970 -0.1989 0.1947
H14 H 0.5931 -0.1667 0.2383
H15 H 0.5773 -0.1395 0.1613
C24 C 0.1875(3) 0.32505(18) 0.38734(16)
H16 H 0.1900 0.3652 0.3527
H17 H 0.2327 0.3393 0.4256
H18 H 0.1154 0.3190 0.4034
Co1B Co 0.983969(19) 0.421551(14) 0.597542(13)
Co1F Co 1.016031(19) 0.578449(14) 0.402458(13)
O3F O 0.61604(10) 0.00752(8) 0.41821(7)
O4B O 0.39189(10) 0.01012(8) 0.46684(7)
loop_
_geom_bond_atom_site_label_1
_geom_bond_atom_site_label_2
_geom_bond_site_symmetry_1
_geom_bond_site_symmetry_2
Co1 O1 1_555 1_555
O1 C1 1_555 1_555
O2 Co1 1_555 1_555
O3 C12 1_555 1_555
O4 C12 1_555 1_555
N1 Co1 1_555 1_555
N2 Co1 1_555 1_555
C1 O2 1_555 1_555
C2 C1 1_555 1_555
C3 C2 1_555 1_555
H1 C3 1_555 1_555
C4 C3 1_555 1_555
H2 C4 1_555 1_555
C5 C4 1_555 1_555
C6 C5 1_555 1_555
C7 C6 1_555 1_555
H3 C7 1_555 1_555
C8 C7 1_555 1_555
H4 C8 1_555 1_555
C9 C8 1_555 1_555
H5 C9 1_555 1_555
C10 C9 1_555 1_555
H6 C10 1_555 1_555
C11 C2 1_555 1_555
C12 C5 1_555 1_555
C13 N1 1_555 1_555
H7 C13 1_555 1_555
C14 C13 1_555 1_555
C15 C14 1_555 1_555
H8 C15 1_555 1_555
C16 C15 1_555 1_555
H9 C16 1_555 1_555
C17 N1 1_555 1_555
C18 N2 1_555 1_555
C19 C18 1_555 1_555
H10 C19 1_555 1_555
C20 C19 1_555 1_555
H11 C20 1_555 1_555
C21 C20 1_555 1_555
C22 N2 1_555 1_555
H12 C22 1_555 1_555
C23 C21 1_555 1_555
H13 C23 1_555 1_555
H14 C23 1_555 1_555
H15 C23 1_555 1_555
C24 C14 1_555 1_555
H16 C24 1_555 1_555
H17 C24 1_555 1_555
H18 C24 1_555 1_555
Co1B O4 1_555 1_555
Co1F O3 1_555 1_555
O3F Co1 1_555 1_555
O4B Co1 1_555 1_555
C6 C11 1_555 1_555
C10 C11 1_555 1_555
C16 C17 1_555 1_555
C17 C18 1_555 1_555
C21 C22 1_555 1_555

#END
