
#######################################################################
#
#                 Cambridge Crystallographic Data Centre
#                                CCDC 
#
#######################################################################
#
# If this CIF has been generated from an entry in the Cambridge 
# Structural Database, then it will include bibliographic, chemical, 
# crystal, experimental, refinement or atomic coordinate data resulting 
# from the CCDC's data processing and validation procedures.
#
#######################################################################

data_MOGNAX
_symmetry_cell_setting           triclinic
_symmetry_space_group_name_H-M   'P -1'
_symmetry_Int_Tables_number      2
_space_group_name_Hall           '-P 1'
loop_
_symmetry_equiv_pos_site_id
_symmetry_equiv_pos_as_xyz
1 x,y,z
2 -x,-y,-z
_cell_length_a                   9.917(2)
_cell_length_b                   11.088(2)
_cell_length_c                   14.790(3)
_cell_angle_alpha                81.93(3)
_cell_angle_beta                 74.43(3)
_cell_angle_gamma                73.27(3)
_cell_volume                     1496.8
loop_
_atom_site_label
_atom_site_type_symbol
_atom_site_fract_x
_atom_site_fract_y
_atom_site_fract_z
Ag1 Ag 0.93730(9) 1.38969(7) 0.01695(5)
Ag2 Ag 0.94287(9) 1.12640(7) 0.02324(5)
S1 S 0.8177(3) 1.5924(2) 0.10681(17)
S2 S 0.7926(3) 1.3092(2) -0.07220(16)
S3 S 1.0189(3) 1.2028(3) 0.15241(17)
S4 S 0.7821(3) 0.9702(2) 0.06874(17)
C1 C 0.8512(10) 1.5439(9) 0.2162(7)
N1 N 0.7365(9) 1.5342(8) 0.2889(5)
H1 H 0.6526 1.5525 0.2767
C2 C 0.7440(15) 1.4979(12) 0.3795(8)
H2 H 0.6607 1.4947 0.4263
C3 C 0.8773(14) 1.4660(11) 0.4003(8)
H3 H 0.8857 1.4397 0.4615
C4 C 0.9980(12) 1.4731(11) 0.3300(8)
H4 H 1.0884 1.4534 0.3438
C5 C 0.9852(10) 1.5094(9) 0.2394(7)
H5 H 1.0684 1.5110 0.1922
C6 C 0.6219(9) 1.3121(8) -0.0003(6)
N2 N 0.5497(8) 1.2376(7) -0.0207(5)
H6 H 0.5896 1.1933 -0.0689
C7 C 0.4164(11) 1.2290(10) 0.0315(8)
H7 H 0.3716 1.1747 0.0157
C8 C 0.3494(12) 1.2991(11) 0.1061(9)
H8 H 0.2579 1.2943 0.1414
C9 C 0.4179(10) 1.3786(10) 0.1297(7)
H9 H 0.3731 1.4266 0.1816
C10 C 0.5541(10) 1.3865(9) 0.0755(6)
H10 H 0.5995 1.4413 0.0901
C11 C 0.8777(10) 1.1989(8) 0.2501(6)
N3 N 0.7308(11) 1.2253(11) 0.2480(8)
H11 H 0.7056 1.2477 0.1955
C12 C 0.6280(13) 1.2153(12) 0.3299(9)
H12 H 0.5312 1.2314 0.3285
C13 C 0.6671(15) 1.1822(14) 0.4121(8)
H13 H 0.5980 1.1760 0.4680
C14 C 0.8119(16) 1.1574(12) 0.4118(9)
H14 H 0.8412 1.1342 0.4678
C15 C 0.9065(9) 1.1666(8) 0.3337(5)
H15 H 1.0029 1.1489 0.3365
C16 C 0.7768(10) 0.9136(8) 0.1836(6)
N4 N 0.6499(10) 0.8963(9) 0.2372(6)
H16 H 0.5775 0.9173 0.2115
C17 C 0.6261(19) 0.8500(14) 0.3258(10)
H17 H 0.5369 0.8355 0.3574
C18 C 0.737(2) 0.8245(14) 0.3683(9)
H18 H 0.7224 0.7958 0.4314
C19 C 0.8757(16) 0.8407(11) 0.3188(9)
H19 H 0.9516 0.8235 0.3484
C20 C 0.8929(13) 0.8826(10) 0.2259(7)
H20 H 0.9833 0.8905 0.1907
Ag1A Ag 1.06270(9) 1.61031(7) -0.01695(5)
S1A S 1.1823(3) 1.4076(2) -0.10681(17)
Ag2A Ag 1.05713(9) 0.87360(7) -0.02324(5)
S4A S 1.2179(3) 1.0298(2) -0.06874(17)
F1 F 0.2701(17) 0.7501(16) 0.3349(10)
F2 F 0.2540(17) 0.5724(17) 0.3519(10)
F3 F 0.4088(10) 0.6144(13) 0.4117(6)
F4 F 0.4515(9) 0.6082(11) 0.2579(6)
B1 B 0.3516(16) 0.6245(17) 0.3416(10)
F5 F 0.265(2) 1.1195(17) 0.2965(8)
F6 F 0.227(3) 1.2304(16) 0.3950(15)
F7 F 0.1426(18) 1.098(2) 0.4242(18)
F8 F 0.3584(10) 1.0519(10) 0.4204(6)
B2 B 0.2518(17) 1.1189(18) 0.3837(12)
O1 O 0.6290(11) 1.0875(9) -0.1789(6)
loop_
_geom_bond_atom_site_label_1
_geom_bond_atom_site_label_2
_geom_bond_site_symmetry_1
_geom_bond_site_symmetry_2
Ag1 Ag2 1_555 1_555
Ag2 S2 1_555 1_555
S1 Ag1 1_555 1_555
S2 Ag1 1_555 1_555
S3 Ag1 1_555 1_555
S4 Ag2 1_555 1_555
F1 B1 1_555 1_555
F2 B1 1_555 1_555
F3 B1 1_555 1_555
F4 B1 1_555 1_555
F5 B2 1_555 1_555
F6 B2 1_555 1_555
F7 B2 1_555 1_555
F8 B2 1_555 1_555
C1 S1 1_555 1_555
N1 C1 1_555 1_555
H1 N1 1_555 1_555
C2 N1 1_555 1_555
H2 C2 1_555 1_555
C3 C2 1_555 1_555
H3 C3 1_555 1_555
C4 C3 1_555 1_555
H4 C4 1_555 1_555
C5 C1 1_555 1_555
H5 C5 1_555 1_555
C6 S2 1_555 1_555
N2 C6 1_555 1_555
H6 N2 1_555 1_555
C7 N2 1_555 1_555
H7 C7 1_555 1_555
C8 C7 1_555 1_555
H8 C8 1_555 1_555
C9 C8 1_555 1_555
H9 C9 1_555 1_555
C10 C6 1_555 1_555
H10 C10 1_555 1_555
C11 S3 1_555 1_555
N3 C11 1_555 1_555
H11 N3 1_555 1_555
C12 N3 1_555 1_555
H12 C12 1_555 1_555
C13 C12 1_555 1_555
H13 C13 1_555 1_555
C14 C13 1_555 1_555
H14 C14 1_555 1_555
C15 C11 1_555 1_555
H15 C15 1_555 1_555
C16 S4 1_555 1_555
N4 C16 1_555 1_555
H16 N4 1_555 1_555
C17 N4 1_555 1_555
H17 C17 1_555 1_555
C18 C17 1_555 1_555
H18 C18 1_555 1_555
C19 C18 1_555 1_555
H19 C19 1_555 1_555
C20 C16 1_555 1_555
H20 C20 1_555 1_555
Ag1A Ag1 1_555 1_555
S1A Ag1 1_555 1_555
Ag2A Ag2 1_555 1_555
S4A Ag2 1_555 1_555
Ag2 S3 1_555 1_555
S1 Ag1A 1_555 1_555
S4 Ag2A 1_555 1_555
C4 C5 1_555 1_555
C9 C10 1_555 1_555
C14 C15 1_555 1_555
C19 C20 1_555 1_555
Ag1A S1A 1_555 1_555
Ag2A S4A 1_555 1_555

#END
