
#######################################################################
#
#                 Cambridge Crystallographic Data Centre
#                                CCDC 
#
#######################################################################
#
# If this CIF has been generated from an entry in the Cambridge 
# Structural Database, then it will include bibliographic, chemical, 
# crystal, experimental, refinement or atomic coordinate data resulting 
# from the CCDC's data processing and validation procedures.
#
#######################################################################

data_MOGNEB01
_symmetry_cell_setting           triclinic
_symmetry_space_group_name_H-M   'P -1'
_symmetry_Int_Tables_number      2
_space_group_name_Hall           '-P 1'
loop_
_symmetry_equiv_pos_site_id
_symmetry_equiv_pos_as_xyz
1 x,y,z
2 -x,-y,-z
_cell_length_a                   9.8871(5)
_cell_length_b                   10.9878(6)
_cell_length_c                   14.8197(8)
_cell_angle_alpha                82.816(2)
_cell_angle_beta                 73.570(2)
_cell_angle_gamma                72.209(2)
_cell_volume                     1469.07
loop_
_atom_site_label
_atom_site_type_symbol
_atom_site_fract_x
_atom_site_fract_y
_atom_site_fract_z
Ag1 Ag 0.05930(2) 0.372364(18) 0.478341(14)
Ag2 Ag 0.06121(2) 0.110561(19) 0.487117(15)
S1 S -0.02072(7) 0.29571(7) 0.35173(5)
C1 C 0.1226(3) 0.3024(2) 0.25412(19)
C2 C 0.2699(3) 0.2761(3) 0.2544(2)
H1 H 0.2979 0.2483 0.3116
C3 C 0.3749(3) 0.2898(3) 0.1735(2)
H2 H 0.4747 0.2712 0.1748
C4 C 0.3348(4) 0.3311(3) 0.0892(2)
H3 H 0.4064 0.3424 0.0330
C5 C 0.1925(4) 0.3548(3) 0.0888(2)
H4 H 0.1634 0.3820 0.0320
N1 N 0.0910(3) 0.3397(2) 0.16985(16)
H5 H -0.0007 0.3549 0.1675
S2 S 0.20604(7) 0.19195(6) 0.57561(5)
C6 C 0.3780(3) 0.1852(2) 0.50143(19)
C7 C 0.4490(3) 0.1080(2) 0.42332(19)
H6 H 0.4037 0.0505 0.4092
C8 C 0.5839(3) 0.1151(3) 0.3672(2)
H7 H 0.6297 0.0641 0.3136
C9 C 0.6539(3) 0.1967(3) 0.3884(2)
H8 H 0.7464 0.2026 0.3495
C10 C 0.5859(3) 0.2678(3) 0.4666(2)
H9 H 0.6322 0.3225 0.4834
N2 N 0.4526(2) 0.2603(2) 0.52000(15)
H10 H 0.4117 0.3071 0.5700
S3 S 0.22469(7) 0.52296(6) 0.43377(5)
C11 C 0.2350(3) 0.5815(2) 0.31938(19)
C12 C 0.1212(3) 0.6118(3) 0.2740(2)
H11 H 0.0298 0.5965 0.3063
C13 C 0.1404(4) 0.6635(3) 0.1833(2)
H12 H 0.0625 0.6839 0.1535
C14 C 0.2744(4) 0.6859(3) 0.1353(2)
H13 H 0.2885 0.7222 0.0729
C15 C 0.3843(4) 0.6549(3) 0.1791(2)
H14 H 0.4766 0.6687 0.1470
N3 N 0.3634(3) 0.6043(2) 0.26849(17)
H15 H 0.4369 0.5851 0.2950
S4 S 0.18892(7) -0.09643(6) 0.39456(4)
C16 C 0.1581(3) -0.0434(2) 0.28493(18)
C17 C 0.0234(3) -0.0098(3) 0.2620(2)
H16 H -0.0628 -0.0151 0.3093
C18 C 0.0136(3) 0.0307(3) 0.1718(2)
H17 H -0.0789 0.0528 0.1574
C19 C 0.1393(3) 0.0396(3) 0.1013(2)
H18 H 0.1333 0.0683 0.0390
C20 C 0.2701(3) 0.0061(3) 0.1242(2)
H19 H 0.3570 0.0104 0.0773
N4 N 0.2767(2) -0.0335(2) 0.21355(16)
H20 H 0.3629 -0.0540 0.2262
Ag1A Ag -0.05930(2) 0.627636(18) 0.521659(14)
Ag2A Ag -0.06121(2) -0.110561(19) 0.512883(15)
S3A S -0.22469(7) 0.47704(6) 0.56623(5)
S4A S -0.18892(7) 0.09643(6) 0.60544(4)
Cl1 Cl 0.67825(8) -0.16132(7) 0.16431(5)
O1 O 0.7808(3) -0.0927(3) 0.1559(2)
O2 O 0.6126(3) -0.1311(3) 0.08707(17)
O3 O 0.7514(3) -0.2963(3) 0.1657(2)
O4 O 0.5630(2) -0.1328(2) 0.25162(15)
Cl2 Cl -0.23319(8) 0.35082(7) 0.09890(5)
O5 O -0.2580(3) 0.2311(3) 0.0922(2)
O6 O -0.2144(3) 0.3576(3) 0.19076(18)
O7 O -0.1006(3) 0.3586(3) 0.03027(19)
O8 O -0.3558(3) 0.4500(3) 0.0815(2)
O9 O 0.6329(3) 0.5710(2) 0.32821(18)
H21 H 0.675(4) 0.615(4) 0.287(2)
H22 H 0.680(4) 0.499(3) 0.311(3)
loop_
_geom_bond_atom_site_label_1
_geom_bond_atom_site_label_2
_geom_bond_site_symmetry_1
_geom_bond_site_symmetry_2
Ag1 S1 1_555 1_555
Ag2 S1 1_555 1_555
S1 C1 1_555 1_555
C1 C2 1_555 1_555
C2 H1 1_555 1_555
C3 C2 1_555 1_555
H2 C3 1_555 1_555
C4 C3 1_555 1_555
H3 C4 1_555 1_555
C5 C4 1_555 1_555
H4 C5 1_555 1_555
N1 C1 1_555 1_555
H5 N1 1_555 1_555
S2 Ag1 1_555 1_555
C6 S2 1_555 1_555
C7 C6 1_555 1_555
H6 C7 1_555 1_555
C8 C7 1_555 1_555
H7 C8 1_555 1_555
C9 C8 1_555 1_555
H8 C9 1_555 1_555
C10 C9 1_555 1_555
H9 C10 1_555 1_555
N2 C6 1_555 1_555
H10 N2 1_555 1_555
S3 Ag1 1_555 1_555
C11 S3 1_555 1_555
C12 C11 1_555 1_555
H11 C12 1_555 1_555
C13 C12 1_555 1_555
H12 C13 1_555 1_555
C14 C13 1_555 1_555
H13 C14 1_555 1_555
C15 C14 1_555 1_555
H14 C15 1_555 1_555
N3 C11 1_555 1_555
H15 N3 1_555 1_555
S4 Ag2 1_555 1_555
C16 S4 1_555 1_555
C17 C16 1_555 1_555
H16 C17 1_555 1_555
C18 C17 1_555 1_555
H17 C18 1_555 1_555
C19 C18 1_555 1_555
H18 C19 1_555 1_555
C20 C19 1_555 1_555
H19 C20 1_555 1_555
N4 C16 1_555 1_555
H20 N4 1_555 1_555
Cl1 O1 1_555 1_555
O2 Cl1 1_555 1_555
O3 Cl1 1_555 1_555
O4 Cl1 1_555 1_555
Cl2 O5 1_555 1_555
O6 Cl2 1_555 1_555
O7 Cl2 1_555 1_555
O8 Cl2 1_555 1_555
O9 H21 1_555 1_555
H22 O9 1_555 1_555
Ag1A S3 1_555 1_555
Ag2A S4 1_555 1_555
S3A Ag1 1_555 1_555
S4A Ag2 1_555 1_555
Ag2 S2 1_555 1_555
C5 N1 1_555 1_555
C10 N2 1_555 1_555
C15 N3 1_555 1_555
C20 N4 1_555 1_555
Ag1A S3A 1_555 1_555
Ag2A S4A 1_555 1_555

#END
