
#######################################################################
#
#                 Cambridge Crystallographic Data Centre
#                                CCDC 
#
#######################################################################
#
# If this CIF has been generated from an entry in the Cambridge 
# Structural Database, then it will include bibliographic, chemical, 
# crystal, experimental, refinement or atomic coordinate data resulting 
# from the CCDC's data processing and validation procedures.
#
#######################################################################

data_MOGNOL
_symmetry_cell_setting           orthorhombic
_symmetry_space_group_name_H-M   'P n n m'
_symmetry_Int_Tables_number      58
_space_group_name_Hall           '-P 2 2n'
loop_
_symmetry_equiv_pos_site_id
_symmetry_equiv_pos_as_xyz
1 x,y,z
2 x,y,-z
3 1/2-x,1/2+y,1/2+z
4 1/2+x,1/2-y,1/2+z
5 -x,-y,-z
6 -x,-y,z
7 1/2+x,1/2-y,1/2-z
8 1/2-x,1/2+y,1/2-z
_cell_length_a                   14.307(3)
_cell_length_b                   16.681(5)
_cell_length_c                   7.653(6)
_cell_angle_alpha                90
_cell_angle_beta                 90
_cell_angle_gamma                90
_cell_volume                     1826.43
loop_
_atom_site_label
_atom_site_type_symbol
_atom_site_fract_x
_atom_site_fract_y
_atom_site_fract_z
Ag1 Ag 0.51776(5) 0.08520(4) 0.31237(11)
S1 S 0.5419(2) 0.2102(2) 0.5000
S2 S 0.5277(2) 0.1420(2) 0.0000
S3 S 0.65248(14) -0.01736(12) 0.3003(3)
N1 N 0.8922(6) -0.0844(6) 0.7796(14)
N2 N 0.4504(7) 0.3453(6) 0.5000
H1 H 0.5062(7) 0.3643(6) 0.5000
N3 N 0.3512(8) 0.1877(7) 0.0000
H2 H 0.3403(8) 0.1370(7) 0.0000
C1 C 0.7060(8) -0.0316(6) 0.5000
C2 C 0.7978(7) -0.0580(6) 0.5000
C3 C 0.8477(6) -0.0731(5) 0.6576(15)
C4 C 0.4414(8) 0.2674(6) 0.5000
C5 C 0.3506(9) 0.2398(8) 0.5000
H3 H 0.3396(9) 0.1848(8) 0.5000
C6 C 0.2770(10) 0.2911(9) 0.5000
H4 H 0.2164(10) 0.2710(9) 0.5000
C7 C 0.2913(10) 0.3726(8) 0.5000
H5 H 0.2414(10) 0.4084(8) 0.5000
C8 C 0.3794(11) 0.3981(8) 0.5000
H6 H 0.3920(11) 0.4528(8) 0.5000
C9 C 0.4384(8) 0.2104(8) 0.0000
C10 C 0.4507(11) 0.2913(10) 0.0000
H7 H 0.5110(11) 0.3122(10) 0.0000
C11 C 0.3769(14) 0.3416(10) 0.0000
H8 H 0.3876(14) 0.3966(10) 0.0000
C12 C 0.2915(12) 0.3156(10) 0.0000
H9 H 0.2411(12) 0.3509(10) 0.0000
C13 C 0.2785(12) 0.2360(10) 0.0000
H10 H 0.2183(12) 0.2150(10) 0.0000
S3A S 0.65248(14) -0.01736(12) 0.6997(3)
C3A C 0.8477(6) -0.0731(5) 0.3424(15)
N1A N 0.8922(6) -0.0844(6) 0.2204(14)
Ag1A Ag 0.51776(5) 0.08520(4) 0.68763(11)
Ag1E Ag 0.48224(5) -0.08520(4) 0.31237(11)
S3E S 0.34752(14) 0.01736(12) 0.3003(3)
Ag1A_2 Ag 0.51776(5) 0.08520(4) -0.31237(11)
Ag1D Ag 0.48224(5) -0.08520(4) 0.68763(11)
S2_2 S 0.5277(2) 0.1420(2) 1.0000
S3D S 0.34752(14) 0.01736(12) 0.6997(3)
loop_
_geom_bond_atom_site_label_1
_geom_bond_atom_site_label_2
_geom_bond_site_symmetry_1
_geom_bond_site_symmetry_2
Ag1 S1 1_555 1_555
S1 C4 1_555 1_555
S2 Ag1 1_555 1_555
S3 Ag1 1_555 1_555
N1 C3 1_555 1_555
N2 H1 1_555 1_555
N3 H2 1_555 1_555
C1 S3 1_555 1_555
C2 C1 1_555 1_555
C3 C2 1_555 1_555
C4 N2 1_555 1_555
C5 C4 1_555 1_555
H3 C5 1_555 1_555
C6 C5 1_555 1_555
H4 C6 1_555 1_555
C7 C6 1_555 1_555
H5 C7 1_555 1_555
C8 N2 1_555 1_555
H6 C8 1_555 1_555
C9 S2 1_555 1_555
C10 C9 1_555 1_555
H7 C10 1_555 1_555
C11 C10 1_555 1_555
H8 C11 1_555 1_555
C12 C11 1_555 1_555
H9 C12 1_555 1_555
C13 N3 1_555 1_555
H10 C13 1_555 1_555
S3A C1 1_555 1_555
C3A C2 1_555 1_555
N1A C3A 1_555 1_555
Ag1A Ag1 1_555 1_555
Ag1E Ag1 1_555 1_555
S3E Ag1 1_555 1_555
Ag1A_2 S2 1_555 1_555
Ag1D S3A 1_555 1_555
S2_2 Ag1A 1_555 1_555
S3D Ag1A 1_555 1_555
S1 Ag1A 1_555 1_555
S3 Ag1E 1_555 1_555
N3 C9 1_555 1_555
C7 C8 1_555 1_555
C12 C13 1_555 1_555
S3A Ag1A 1_555 1_555
Ag1A Ag1D 1_555 1_555
Ag1E Ag1D 1_555 1_555
Ag1E S3E 1_555 1_555
Ag1D S3D 1_555 1_555

#END
