
#######################################################################
#
#                 Cambridge Crystallographic Data Centre
#                                CCDC 
#
#######################################################################
#
# If this CIF has been generated from an entry in the Cambridge 
# Structural Database, then it will include bibliographic, chemical, 
# crystal, experimental, refinement or atomic coordinate data resulting 
# from the CCDC's data processing and validation procedures.
#
#######################################################################

data_MOGNEB
_symmetry_cell_setting           triclinic
_symmetry_space_group_name_H-M   'P -1'
_symmetry_Int_Tables_number      2
_space_group_name_Hall           '-P 1'
loop_
_symmetry_equiv_pos_site_id
_symmetry_equiv_pos_as_xyz
1 x,y,z
2 -x,-y,-z
_cell_length_a                   9.985(2)
_cell_length_b                   11.087(2)
_cell_length_c                   14.915(3)
_cell_angle_alpha                81.97(3)
_cell_angle_beta                 73.92(3)
_cell_angle_gamma                73.01(3)
_cell_volume                     1514.2
loop_
_atom_site_label
_atom_site_type_symbol
_atom_site_fract_x
_atom_site_fract_y
_atom_site_fract_z
Ag1 Ag 0.44227(9) 0.62614(8) 0.02289(5)
Ag2 Ag 0.43752(10) 0.88937(9) 0.01609(6)
S1 S 0.5189(3) 0.7016(3) 0.1504(2)
S2 S 0.2942(3) 0.8085(3) -0.0723(2)
S3 S 0.2818(3) 0.4727(3) 0.0666(2)
S4 S 0.3175(2) 1.0923(3) 0.1057(2)
C1 C 0.3743(10) 0.6977(10) 0.2476(7)
C2 C 0.2313(12) 0.7275(12) 0.2461(8)
H1 H 0.2058(12) 0.7524(12) 0.1896(8)
C3 C 0.1271(13) 0.7211(14) 0.3255(9)
H2 H 0.0308(13) 0.7422(14) 0.3233(9)
C4 C 0.1627(14) 0.6837(16) 0.4091(9)
H3 H 0.0913(14) 0.6793(16) 0.4638(9)
C5 C 0.3025(15) 0.6534(15) 0.4111(8)
H4 H 0.3289(15) 0.6249(15) 0.4671(8)
N1 N 0.4053(10) 0.6647(9) 0.3307(6)
H5 H 0.4935(10) 0.6500(9) 0.3335(6)
C6 C 0.1232(9) 0.8098(8) -0.0020(6)
C7 C 0.0525(10) 0.8853(11) 0.0741(7)
H6 H 0.0965(10) 0.9405(11) 0.0890(7)
C8 C -0.0820(11) 0.8777(12) 0.1268(7)
H7 H -0.1285(11) 0.9270(12) 0.1777(7)
C9 C -0.1483(11) 0.7969(12) 0.1040(8)
H8 H -0.2379(11) 0.7893(12) 0.1402(8)
C10 C -0.0808(12) 0.7304(12) 0.0291(9)
H9 H -0.1254(12) 0.6779(12) 0.0115(9)
N2 N 0.0516(8) 0.7382(8) -0.0220(6)
H10 H 0.0916(8) 0.6941(8) -0.0701(6)
C11 C 0.2725(10) 0.4149(9) 0.1816(7)
C12 C 0.3855(12) 0.3895(10) 0.2247(7)
H11 H 0.4732(12) 0.4060(10) 0.1927(7)
C13 C 0.3648(17) 0.3390(13) 0.3167(9)
H12 H 0.4414(17) 0.3172(13) 0.3451(9)
C14 C 0.2334(21) 0.3207(16) 0.3665(9)
H13 H 0.2195(21) 0.2895(16) 0.4286(9)
C15 C 0.1256(19) 0.3488(14) 0.3233(9)
H14 H 0.0361(19) 0.3366(14) 0.3558(9)
N3 N 0.1459(10) 0.3949(10) 0.2326(6)
H15 H 0.0748(10) 0.4120(10) 0.2068(6)
C16 C 0.3515(10) 1.0434(9) 0.2148(6)
C17 C 0.4856(11) 1.0082(10) 0.2365(7)
H16 H 0.5687(11) 1.0103(10) 0.1895(7)
C18 C 0.4962(13) 0.9709(12) 0.3257(8)
H17 H 0.5863(13) 0.9481(12) 0.3391(8)
C19 C 0.3744(14) 0.9664(13) 0.3967(8)
H18 H 0.3811(14) 0.9429(13) 0.4580(8)
C20 C 0.2445(14) 0.9972(13) 0.3748(8)
H19 H 0.1615(14) 0.9923(13) 0.4210(8)
N4 N 0.2363(9) 1.0347(9) 0.2863(5)
H20 H 0.1527(9) 1.0544(9) 0.2745(5)
Ag1A Ag 0.55773(9) 0.37386(8) -0.02289(5)
S3A S 0.7182(3) 0.5273(3) -0.0666(2)
Ag2A Ag 0.56248(10) 1.11063(9) -0.01609(6)
S4A S 0.6825(2) 0.9077(3) -0.1057(2)
Cl1 Cl 0.7436(4) 0.6328(4) 0.3914(2)
O1 O 0.8580(13) 0.5511(14) 0.4220(10)
O2 O 0.6117(16) 0.6444(24) 0.4579(12)
O3 O 0.7169(24) 0.6101(30) 0.3178(18)
O4 O 0.7619(31) 0.7470(25) 0.3854(33)
Cl2 Cl 0.8410(3) 1.1358(4) 0.3375(2)
O5 O 0.9484(11) 1.1227(13) 0.2524(7)
O6 O 0.9029(14) 1.1219(19) 0.4113(8)
O7 O 0.7504(25) 1.0659(27) 0.3468(15)
O8 O 0.7556(20) 1.2642(20) 0.3353(13)
O9 O 0.8687(12) 0.4212(11) 0.1774(7)
loop_
_geom_bond_atom_site_label_1
_geom_bond_atom_site_label_2
_geom_bond_site_symmetry_1
_geom_bond_site_symmetry_2
Ag1 Ag2 1_555 1_555
Ag2 S1 1_555 1_555
Cl1 O1 1_555 1_555
Cl2 O5 1_555 1_555
S1 Ag1 1_555 1_555
S2 Ag1 1_555 1_555
S3 Ag1 1_555 1_555
S4 Ag2 1_555 1_555
C1 S1 1_555 1_555
C2 C1 1_555 1_555
H1 C2 1_555 1_555
C3 C2 1_555 1_555
H2 C3 1_555 1_555
C4 C3 1_555 1_555
H3 C4 1_555 1_555
C5 C4 1_555 1_555
H4 C5 1_555 1_555
N1 C1 1_555 1_555
H5 N1 1_555 1_555
C6 S2 1_555 1_555
C7 C6 1_555 1_555
H6 C7 1_555 1_555
C8 C7 1_555 1_555
H7 C8 1_555 1_555
C9 C8 1_555 1_555
H8 C9 1_555 1_555
C10 C9 1_555 1_555
H9 C10 1_555 1_555
N2 C6 1_555 1_555
H10 N2 1_555 1_555
C11 S3 1_555 1_555
C12 C11 1_555 1_555
H11 C12 1_555 1_555
C13 C12 1_555 1_555
H12 C13 1_555 1_555
C14 C13 1_555 1_555
H13 C14 1_555 1_555
C15 C14 1_555 1_555
H14 C15 1_555 1_555
N3 C11 1_555 1_555
H15 N3 1_555 1_555
C16 S4 1_555 1_555
C17 C16 1_555 1_555
H16 C17 1_555 1_555
C18 C17 1_555 1_555
H17 C18 1_555 1_555
C19 C18 1_555 1_555
H18 C19 1_555 1_555
C20 C19 1_555 1_555
H19 C20 1_555 1_555
N4 C16 1_555 1_555
H20 N4 1_555 1_555
O2 Cl1 1_555 1_555
O3 Cl1 1_555 1_555
O4 Cl1 1_555 1_555
O6 Cl2 1_555 1_555
O7 Cl2 1_555 1_555
O8 Cl2 1_555 1_555
Ag1A Ag1 1_555 1_555
S3A Ag1 1_555 1_555
Ag2A Ag2 1_555 1_555
S4A Ag2 1_555 1_555
Ag2 S2 1_555 1_555
S3 Ag1A 1_555 1_555
S4 Ag2A 1_555 1_555
C5 N1 1_555 1_555
C10 N2 1_555 1_555
C15 N3 1_555 1_555
C20 N4 1_555 1_555
Ag1A S3A 1_555 1_555
Ag2A S4A 1_555 1_555

#END
