
#######################################################################
#
#                 Cambridge Crystallographic Data Centre
#                                CCDC 
#
#######################################################################
#
# If this CIF has been generated from an entry in the Cambridge 
# Structural Database, then it will include bibliographic, chemical, 
# crystal, experimental, refinement or atomic coordinate data resulting 
# from the CCDC's data processing and validation procedures.
#
#######################################################################

data_MOGNEC
_symmetry_cell_setting           monoclinic
_symmetry_space_group_name_H-M   'C 2/c'
_symmetry_Int_Tables_number      15
_space_group_name_Hall           '-C 2yn'
loop_
_symmetry_equiv_pos_site_id
_symmetry_equiv_pos_as_xyz
1 x,y,z
2 1/2+x,1/2+y,z
3 -x,y,1/2-z
4 1/2-x,1/2+y,1/2-z
5 -x,-y,-z
6 1/2-x,1/2-y,-z
7 x,-y,1/2+z
8 1/2+x,1/2-y,1/2+z
_cell_length_a                   22.262(5)
_cell_length_b                   12.667(3)
_cell_length_c                   16.121(3)
_cell_angle_alpha                90
_cell_angle_beta                 112.21(3)
_cell_angle_gamma                90
_cell_volume                     4208.71
loop_
_atom_site_label
_atom_site_type_symbol
_atom_site_fract_x
_atom_site_fract_y
_atom_site_fract_z
Tb1 Tb 0.199040(9) 0.274740(16) -0.171120(13)
K1 K 0.31689(5) 0.03743(9) -0.17398(7)
O1 O 0.25516(14) -0.1197(2) -0.45971(19)
O2 O 0.22477(14) -0.1042(2) -0.60837(19)
O3 O 0.22764(13) 0.1806(2) -0.28149(17)
O4 O 0.16597(13) 0.3151(2) -0.34801(19)
O5 O 0.27413(12) 0.3962(2) -0.20258(18)
O6 O 0.32309(14) 0.2633(2) -0.11361(19)
O7 O 0.40126(13) 0.6999(2) -0.2441(2)
O8 O 0.50314(15) 0.7163(3) -0.1469(2)
O9 O 0.4661(3) 0.0721(5) -0.1267(4)
O10 O 0.3826(2) 0.0245(3) 0.0243(3)
O11 O 0.13338(15) 0.4428(3) -0.2000(2)
O12 O 0.13145(14) 0.2583(2) -0.0742(2)
C1 C 0.23137(18) -0.0673(3) -0.5310(3)
C2 C 0.20961(19) 0.0434(3) -0.5275(3)
C3 C 0.21289(19) 0.0859(3) -0.4455(3)
H1 H 0.2295 0.0457 -0.3935
C4 C 0.19114(18) 0.1887(3) -0.4420(3)
C5 C 0.19558(18) 0.2314(4) -0.3522(3)
C6 C 0.1658(2) 0.2496(3) -0.5196(3)
H2 H 0.1512 0.3179 -0.5169
C7 C 0.1625(2) 0.2074(3) -0.6016(3)
H3 H 0.1458 0.2475 -0.6537
C8 C 0.1843(2) 0.1056(4) -0.6045(3)
H4 H 0.1820 0.0780 -0.6590
C9 C 0.3253(2) 0.3493(3) -0.1534(3)
C10 C 0.38969(19) 0.3986(3) -0.1398(3)
C11 C 0.39189(19) 0.5008(3) -0.1716(3)
H5 H 0.3535 0.5368 -0.2027
C12 C 0.4517(2) 0.5491(4) -0.1568(3)
C13 C 0.45211(19) 0.6625(4) -0.1855(3)
C14 C 0.5079(2) 0.4937(4) -0.1123(4)
H6 H 0.5477 0.5256 -0.1024
C15 C 0.5069(2) 0.3919(4) -0.0821(4)
H7 H 0.5455 0.3552 -0.0539
C16 C 0.4482(2) 0.3451(4) -0.0942(3)
H8 H 0.4474 0.2776 -0.0719
Tb1C Tb 0.300960(9) -0.225260(16) -0.328880(13)
Tb1F Tb 0.199040(9) -0.274740(16) -0.671120(13)
Tb1C_2 Tb 0.300960(9) 0.774740(16) -0.328880(13)
K1C K 0.18311(5) 0.53743(9) -0.32602(7)
K1F K 0.31689(5) -0.03743(9) -0.67398(7)
O1C O 0.24484(14) 0.3803(2) -0.04029(19)
O2F O 0.22477(14) 0.1042(2) -0.10837(19)
O4C O 0.33403(13) -0.1849(2) -0.15199(19)
O5C O 0.22587(12) -0.1038(2) -0.29742(18)
O7C O 0.09874(13) 0.1999(2) -0.2559(2)
O11C O 0.36662(15) -0.0572(3) -0.3000(2)
O13 O 0.0000 0.3236(11) -0.7500
O14 O 0.4627(2) 0.1320(4) -0.5516(4)
O15 O 0.5000 0.1043(5) -0.7500
loop_
_geom_bond_atom_site_label_1
_geom_bond_atom_site_label_2
_geom_bond_site_symmetry_1
_geom_bond_site_symmetry_2
Tb1 O3 1_555 1_555
K1 O3 1_555 1_555
O1 C1 1_555 1_555
O2 C1 1_555 1_555
O3 C5 1_555 1_555
O4 Tb1 1_555 1_555
O5 Tb1 1_555 1_555
O6 Tb1 1_555 1_555
O7 C13 1_555 1_555
O8 C13 1_555 1_555
O9 K1 1_555 1_555
O10 K1 1_555 1_555
O11 Tb1 1_555 1_555
O12 Tb1 1_555 1_555
C1 C2 1_555 1_555
C2 C3 1_555 1_555
C3 H1 1_555 1_555
C4 C3 1_555 1_555
C5 O4 1_555 1_555
C6 C4 1_555 1_555
H2 C6 1_555 1_555
C7 C6 1_555 1_555
H3 C7 1_555 1_555
C8 C2 1_555 1_555
H4 C8 1_555 1_555
C9 O5 1_555 1_555
C10 C9 1_555 1_555
C11 C10 1_555 1_555
H5 C11 1_555 1_555
C12 C11 1_555 1_555
C13 C12 1_555 1_555
C14 C12 1_555 1_555
H6 C14 1_555 1_555
C15 C14 1_555 1_555
H7 C15 1_555 1_555
C16 C10 1_555 1_555
H8 C16 1_555 1_555
Tb1C O1 1_555 1_555
Tb1F O2 1_555 1_555
Tb1C_2 O7 1_555 1_555
K1C O4 1_555 1_555
K1F O2 1_555 1_555
O1C Tb1 1_555 1_555
O2F Tb1 1_555 1_555
O4C K1 1_555 1_555
O5C K1 1_555 1_555
O7C Tb1 1_555 1_555
O11C K1 1_555 1_555
K1 O6 1_555 1_555
K1 O2F 1_555 1_555
O5 K1C 1_555 1_555
O6 C9 1_555 1_555
O11 K1C 1_555 1_555
C4 C5 1_555 1_555
C7 C8 1_555 1_555
C15 C16 1_555 1_555
Tb1C O4C 1_555 1_555
Tb1C O5C 1_555 1_555
Tb1C O11C 1_555 1_555

#END
