
#######################################################################
#
#                 Cambridge Crystallographic Data Centre
#                                CCDC 
#
#######################################################################
#
# If this CIF has been generated from an entry in the Cambridge 
# Structural Database, then it will include bibliographic, chemical, 
# crystal, experimental, refinement or atomic coordinate data resulting 
# from the CCDC's data processing and validation procedures.
#
#######################################################################

data_MOGTUZ
_symmetry_cell_setting           triclinic
_symmetry_space_group_name_H-M   'P -1'
_symmetry_Int_Tables_number      2
_space_group_name_Hall           '-P 1'
loop_
_symmetry_equiv_pos_site_id
_symmetry_equiv_pos_as_xyz
1 x,y,z
2 -x,-y,-z
_cell_length_a                   8.491(11)
_cell_length_b                   9.107(13)
_cell_length_c                   9.210(12)
_cell_angle_alpha                71.18(2)
_cell_angle_beta                 84.23(2)
_cell_angle_gamma                65.210(18)
_cell_volume                     611.492
loop_
_atom_site_label
_atom_site_type_symbol
_atom_site_fract_x
_atom_site_fract_y
_atom_site_fract_z
Cd1 Cd 0.5000 0.5000 0.5000
Br1 Br 0.88626(6) 0.39777(5) 0.95155(6)
Br2 Br 1.26022(6) 0.11420(6) 1.12343(5)
C1 C 0.7622(6) 0.6656(6) 0.5434(5)
H1 H 0.7751 0.6113 0.6488
C2 C 0.6858(7) 0.7521(7) 0.3160(5)
H2 H 0.6305 0.7703 0.2257
C3 C 0.9704(5) 0.7997(6) 0.5223(5)
H3 H 1.0817 0.7408 0.4834
H4 H 0.9805 0.7565 0.6335
C4 C 0.9292(5) 0.9846(6) 0.4725(5)
H5 H 0.8197 1.0440 0.5137
H6 H 0.9171 1.0292 0.3614
C5 C 0.6834(5) 0.2517(5) 0.8291(5)
C6 C 0.8462(5) 0.1201(5) 0.9200(4)
C7 C 0.9539(5) 0.1685(5) 0.9783(4)
C8 C 1.1060(5) 0.0500(5) 1.0547(4)
N1 N 0.6640(5) 0.6540(5) 0.4506(4)
N2 N 0.8394(4) 0.7626(4) 0.4692(4)
N3 N 0.7908(6) 0.8210(6) 0.3202(4)
O1 O 0.6984(4) 0.2969(4) 0.6887(3)
O2 O 0.6418(4) 0.3960(4) 0.3067(3)
H7 H 0.6139 0.3157 0.2997
H8 H 0.6147 0.4771 0.2180
O3 O 0.5511(4) 0.3007(4) 0.8999(3)
Br1A Br 1.11374(6) -0.39777(5) 1.04845(6)
Br2A Br 0.73978(6) -0.11420(6) 0.87657(5)
C5A C 1.3166(5) -0.2517(5) 1.1709(5)
C6A C 1.1538(5) -0.1201(5) 1.0800(4)
C7A C 1.0461(5) -0.1685(5) 1.0217(4)
C8A C 0.8940(5) -0.0500(5) 0.9453(4)
O1A O 1.3016(4) -0.2969(4) 1.3113(3)
O3A O 1.4489(4) -0.3007(4) 1.1001(3)
C1A C 1.2378(6) 1.3344(6) 0.4566(5)
H1A H 1.2249 1.3887 0.3512
C2A C 1.3142(7) 1.2479(7) 0.6840(5)
H2A H 1.3695 1.2297 0.7743
C3A C 1.0296(5) 1.2003(6) 0.4777(5)
H3A H 0.9183 1.2592 0.5166
H4A H 1.0195 1.2435 0.3665
C4A C 1.0708(5) 1.0154(6) 0.5275(5)
H5A H 1.1803 0.9560 0.4863
H6A H 1.0829 0.9708 0.6386
N1A N 1.3360(5) 1.3460(5) 0.5494(4)
N2A N 1.1606(4) 1.2374(4) 0.5308(4)
N3A N 1.2092(6) 1.1790(6) 0.6798(4)
O2A O 0.3582(4) 0.6040(4) 0.6933(3)
H7A H 0.3861 0.6843 0.7003
H8A H 0.3853 0.5229 0.7820
Cd1_2 Cd 1.5000 -0.5000 1.5000
Cd1_3 Cd 1.5000 1.5000 0.5000
N1A_2 N 0.3360(5) 0.3460(5) 0.5494(4)
O1A_2 O 0.3016(4) 0.7031(4) 0.3113(3)
O4 O 0.5532(5) 0.1917(5) 1.2085(4)
H9 H 0.5529 0.2258 1.1110
H10 H 0.6209 0.0867 1.2398
loop_
_geom_bond_atom_site_label_1
_geom_bond_atom_site_label_2
_geom_bond_site_symmetry_1
_geom_bond_site_symmetry_2
Cd1 N1 1_555 1_555
Br1 C7 1_555 1_555
Br2 C8 1_555 1_555
C1 H1 1_555 1_555
C2 H2 1_555 1_555
C3 H3 1_555 1_555
H4 C3 1_555 1_555
C4 C3 1_555 1_555
H5 C4 1_555 1_555
H6 C4 1_555 1_555
C5 C6 1_555 1_555
C6 C7 1_555 1_555
C7 C8 1_555 1_555
C8 C6A 1_555 1_555
N1 C1 1_555 1_555
N2 C1 1_555 1_555
N3 C2 1_555 1_555
O1 Cd1 1_555 1_555
O2 Cd1 1_555 1_555
H7 O2 1_555 1_555
H8 O2 1_555 1_555
O3 C5 1_555 1_555
O4 H9 1_555 1_555
H10 O4 1_555 1_555
Br1A C7A 1_555 1_555
Br2A C8A 1_555 1_555
C5A C6A 1_555 1_555
C6A C7A 1_555 1_555
C7A C8A 1_555 1_555
C8A C6 1_555 1_555
O1A C5A 1_555 1_555
O3A C5A 1_555 1_555
C1A H1A 1_555 1_555
C2A H2A 1_555 1_555
C3A H3A 1_555 1_555
H4A C3A 1_555 1_555
C4A C4 1_555 1_555
H5A C4A 1_555 1_555
H6A C4A 1_555 1_555
N1A C1A 1_555 1_555
N2A C1A 1_555 1_555
N3A C2A 1_555 1_555
O2A Cd1 1_555 1_555
H7A O2A 1_555 1_555
H8A O2A 1_555 1_555
Cd1_2 O1A 1_555 1_555
Cd1_3 N1A 1_555 1_555
N1A_2 Cd1 1_555 1_555
O1A_2 Cd1 1_555 1_555
C2 N1 1_555 1_555
C3 N2 1_555 1_555
C5 O1 1_555 1_555
N2 N3 1_555 1_555
C2A N1A 1_555 1_555
C3A C4A 1_555 1_555
C3A N2A 1_555 1_555
N2A N3A 1_555 1_555

#END
