
#######################################################################
#
#                 Cambridge Crystallographic Data Centre
#                                CCDC 
#
#######################################################################
#
# If this CIF has been generated from an entry in the Cambridge 
# Structural Database, then it will include bibliographic, chemical, 
# crystal, experimental, refinement or atomic coordinate data resulting 
# from the CCDC's data processing and validation procedures.
#
#######################################################################

data_MOGVAH
_symmetry_cell_setting           monoclinic
_symmetry_space_group_name_H-M   'P 21/c'
_symmetry_Int_Tables_number      14
_space_group_name_Hall           '-P 2ybc'
loop_
_symmetry_equiv_pos_site_id
_symmetry_equiv_pos_as_xyz
1 x,y,z
2 -x,1/2+y,1/2-z
3 -x,-y,-z
4 x,1/2-y,1/2+z
_cell_length_a                   9.6238(8)
_cell_length_b                   17.2400(14)
_cell_length_c                   12.7886(10)
_cell_angle_alpha                90
_cell_angle_beta                 91.914(2)
_cell_angle_gamma                90
_cell_volume                     2120.63
loop_
_atom_site_label
_atom_site_type_symbol
_atom_site_fract_x
_atom_site_fract_y
_atom_site_fract_z
Br1 Br 1.09837(5) -0.03139(3) 0.86900(4)
Br2 Br 1.22878(5) -0.11566(3) 0.65694(4)
Br3 Br 0.70149(6) -0.10564(3) 0.45508(5)
Br4 Br 0.57509(5) -0.01229(3) 0.65887(5)
Zn1 Zn 1.12822(6) -0.15741(3) 0.29449(4)
C1 C 1.0396(4) -0.0880(2) 0.6604(3)
C2 C 0.8468(5) -0.0269(2) 0.7459(3)
O1 O 0.7515(4) -0.00929(18) 0.9141(3)
O2 O 1.0081(4) -0.21429(18) 0.4699(3)
O3 O 1.0628(4) -0.09665(17) 0.4118(3)
C3 C 0.9857(5) -0.0515(2) 0.7477(3)
C4 C 0.8152(5) -0.0828(2) 0.5746(4)
C5 C 0.9540(5) -0.1039(2) 0.5734(3)
O4 O 0.7950(3) 0.09583(17) 0.8204(2)
C6 C 0.7631(4) -0.0437(2) 0.6594(4)
N1 N 0.2865(4) -0.2738(2) -0.1617(3)
C7 C 0.4115(6) -0.2709(3) -0.2064(5)
H1 H 0.4385 -0.3059 -0.2572
N2 N 0.4911(5) -0.2146(3) -0.1722(4)
C8 C 0.7934(5) 0.0230(3) 0.8357(4)
C9 C 0.2915(5) -0.2157(3) -0.0942(4)
H2 H 0.2208 -0.2023 -0.0498
C10 C 0.4654(5) -0.1117(3) -0.0418(4)
H3 H 0.3877 -0.0834 -0.0141
H4 H 0.5125 -0.0777 -0.0894
C11 C 1.0125(5) -0.1433(3) 0.4785(4)
N3 N 0.4127(4) -0.1794(2) -0.0994(3)
N4 N 0.9612(4) -0.1982(2) 0.2156(3)
N5 N 0.7866(4) -0.1934(2) 0.1033(3)
C12 C 0.9157(5) -0.1715(3) 0.1234(4)
H5 H 0.9680 -0.1415 0.0789
N6 N 0.7411(5) -0.2378(3) 0.1836(4)
C13 C 0.6957(5) -0.1746(3) 0.0129(4)
H6 H 0.6706 -0.2219 -0.0241
H7 H 0.7451 -0.1414 -0.0346
C14 C 0.5643(5) -0.1336(3) 0.0467(4)
H8 H 0.5162 -0.1672 0.0944
H9 H 0.5908 -0.0870 0.0849
C15 C 0.8485(6) -0.2386(3) 0.2475(4)
H10 H 0.8486 -0.2650 0.3109
Zn1B Zn 0.87178(6) 0.15741(3) 0.70551(4)
Zn1C Zn 0.12822(6) -0.34259(3) -0.20551(4)
O4B O 1.2050(3) -0.09583(17) 0.1796(2)
N1C N 1.2865(4) -0.2262(2) 0.3383(3)
loop_
_geom_bond_atom_site_label_1
_geom_bond_atom_site_label_2
_geom_bond_site_symmetry_1
_geom_bond_site_symmetry_2
Br1 C3 1_555 1_555
Br2 C1 1_555 1_555
Br3 C4 1_555 1_555
Br4 C6 1_555 1_555
Zn1 O3 1_555 1_555
C1 C3 1_555 1_555
C2 C3 1_555 1_555
O1 C8 1_555 1_555
O2 C11 1_555 1_555
O3 C11 1_555 1_555
C4 C5 1_555 1_555
C5 C1 1_555 1_555
O4 C8 1_555 1_555
C6 C2 1_555 1_555
N1 C7 1_555 1_555
C7 H1 1_555 1_555
N2 C7 1_555 1_555
C8 C2 1_555 1_555
C9 N1 1_555 1_555
H2 C9 1_555 1_555
C10 H3 1_555 1_555
H4 C10 1_555 1_555
C11 C5 1_555 1_555
N3 N2 1_555 1_555
N4 Zn1 1_555 1_555
N5 C12 1_555 1_555
C12 N4 1_555 1_555
H5 C12 1_555 1_555
N6 N5 1_555 1_555
C13 N5 1_555 1_555
H6 C13 1_555 1_555
H7 C13 1_555 1_555
C14 C10 1_555 1_555
H8 C14 1_555 1_555
H9 C14 1_555 1_555
C15 N4 1_555 1_555
H10 C15 1_555 1_555
Zn1B O4 1_555 1_555
Zn1C N1 1_555 1_555
O4B Zn1 1_555 1_555
N1C Zn1 1_555 1_555
C4 C6 1_555 1_555
C9 N3 1_555 1_555
C10 N3 1_555 1_555
N6 C15 1_555 1_555
C13 C14 1_555 1_555

#END
