
#######################################################################
#
#                 Cambridge Crystallographic Data Centre
#                                CCDC 
#
#######################################################################
#
# If this CIF has been generated from an entry in the Cambridge 
# Structural Database, then it will include bibliographic, chemical, 
# crystal, experimental, refinement or atomic coordinate data resulting 
# from the CCDC's data processing and validation procedures.
#
#######################################################################

data_MOHFIA
_symmetry_cell_setting           triclinic
_symmetry_space_group_name_H-M   'P -1'
_symmetry_Int_Tables_number      2
_space_group_name_Hall           '-P 1'
loop_
_symmetry_equiv_pos_site_id
_symmetry_equiv_pos_as_xyz
1 x,y,z
2 -x,-y,-z
_cell_length_a                   3.96540(10)
_cell_length_b                   9.5080(2)
_cell_length_c                   10.1683(2)
_cell_angle_alpha                76.1670(10)
_cell_angle_beta                 87.8560(10)
_cell_angle_gamma                82.2300(10)
_cell_volume                     368.834
loop_
_atom_site_label
_atom_site_type_symbol
_atom_site_fract_x
_atom_site_fract_y
_atom_site_fract_z
Mo1 Mo 0.12289(4) 0.16383(17) 0.267029(16)
N1 N -0.0554(5) 0.0204(2) 0.5587(2)
O1 O -0.0024(5) 0.24662(18) 0.43212(17)
O2 O -0.1186(5) -0.01300(18) 0.82600(17)
O3 O 0.5578(5) 0.1549(2) 0.2839(2)
O4 O 0.0080(5) 0.3178(2) 0.14596(18)
C1 C -0.0711(5) 0.1613(2) 0.5467(2)
C2 C -0.1829(5) 0.2224(2) 0.6624(2)
C3 C -0.2796(7) 0.3741(2) 0.6410(2)
H1 H -0.2512 0.4341 0.5556
C4 C -0.4157(7) 0.4351(2) 0.7444(2)
H2 H -0.513(7) 0.532(3) 0.740(3)
C5 C -0.4570(7) 0.3469(2) 0.8720(2)
H3 H -0.5537 0.3882 0.941
C6 C -0.2199(5) 0.1340(2) 0.7940(2)
C7 C -0.3549(7) 0.1963(2) 0.8982(2)
H4 H -0.3772 0.1381 0.9849
O1A O 0.0024(5) -0.24662(18) 0.56788(17)
C1A C 0.0711(5) -0.1613(2) 0.4533(2)
C2A C 0.1829(5) -0.2224(2) 0.3376(2)
C3A C 0.2796(7) -0.3741(2) 0.3590(2)
H1A H 0.2512 -0.4341 0.4444
C4A C 0.4157(7) -0.4351(2) 0.2556(2)
H2A H 0.513(7) -0.532(3) 0.260(3)
C5A C 0.4570(7) -0.3469(2) 0.1280(2)
H3A H 0.5537 -0.3882 0.059
O2A O 0.1186(5) 0.01300(18) 0.17400(17)
C6A C 0.2199(5) -0.1340(2) 0.2060(2)
C7A C 0.3549(7) -0.1963(2) 0.1018(2)
H4A H 0.3772 -0.1381 0.0151
N1A N 0.0554(5) -0.0204(2) 0.4413(2)
Mo1A Mo -0.12289(4) -0.16383(17) 0.732971(16)
O3A O -0.5578(5) -0.1549(2) 0.7161(2)
O4A O -0.0080(5) -0.3178(2) 0.85404(18)
Mo1_2 Mo 1.12289(4) 0.16383(17) 0.267029(16)
Mo1A_2 Mo -1.12289(4) -0.16383(17) 0.732971(16)
O3_2 O -0.4422(5) 0.1549(2) 0.2839(2)
O3A_2 O 0.4422(5) -0.1549(2) 0.7161(2)
loop_
_geom_bond_atom_site_label_1
_geom_bond_atom_site_label_2
_geom_bond_site_symmetry_1
_geom_bond_site_symmetry_2
Mo1 O1 1_555 1_555
N1 C1 1_555 1_555
O1 C1 1_555 1_555
O2 C6 1_555 1_555
O3 Mo1 1_555 1_555
O4 Mo1 1_555 1_555
C1 C2 1_555 1_555
C2 C3 1_555 1_555
C3 H1 1_555 1_555
C4 C3 1_555 1_555
H2 C4 1_555 1_555
C5 C4 1_555 1_555
H3 C5 1_555 1_555
C6 C2 1_555 1_555
C7 C5 1_555 1_555
H4 C7 1_555 1_555
O1A C1A 1_555 1_555
C1A C2A 1_555 1_555
C2A C3A 1_555 1_555
C3A H1A 1_555 1_555
C4A C3A 1_555 1_555
H2A C4A 1_555 1_555
C5A C4A 1_555 1_555
H3A C5A 1_555 1_555
O2A Mo1 1_555 1_555
C6A C2A 1_555 1_555
C7A C5A 1_555 1_555
H4A C7A 1_555 1_555
N1A Mo1 1_555 1_555
Mo1A N1 1_555 1_555
O3A Mo1A 1_555 1_555
O4A Mo1A 1_555 1_555
Mo1_2 O3 1_555 1_555
Mo1A_2 O3A 1_555 1_555
O3_2 Mo1 1_555 1_555
O3A_2 Mo1A 1_555 1_555
N1 N1A 1_555 1_555
O2 Mo1A 1_555 1_555
C6 C7 1_555 1_555
O1A Mo1A 1_555 1_555
C1A N1A 1_555 1_555
O2A C6A 1_555 1_555
C6A C7A 1_555 1_555

#END
