
#######################################################################
#
#                 Cambridge Crystallographic Data Centre
#                                CCDC 
#
#######################################################################
#
# If this CIF has been generated from an entry in the Cambridge 
# Structural Database, then it will include bibliographic, chemical, 
# crystal, experimental, refinement or atomic coordinate data resulting 
# from the CCDC's data processing and validation procedures.
#
#######################################################################

data_MOHHOH
_symmetry_cell_setting           triclinic
_symmetry_space_group_name_H-M   'P -1'
_symmetry_Int_Tables_number      2
_space_group_name_Hall           '-P 1'
loop_
_symmetry_equiv_pos_site_id
_symmetry_equiv_pos_as_xyz
1 x,y,z
2 -x,-y,-z
_cell_length_a                   6.6034(10)
_cell_length_b                   7.6695(12)
_cell_length_c                   10.5333(16)
_cell_angle_alpha                76.055(3)
_cell_angle_beta                 85.522(2)
_cell_angle_gamma                64.535(2)
_cell_volume                     467.237
loop_
_atom_site_label
_atom_site_type_symbol
_atom_site_fract_x
_atom_site_fract_y
_atom_site_fract_z
Ag1 Ag 0.5000 0.5000 0.5000
Cu1 Cu 0.5000 0.0000 1.0000
P1 P -0.34085(14) 0.64069(14) 0.80718(9)
N1 N 0.2741(5) 0.4287(5) 0.6466(3)
N2 N 0.2993(4) 0.2230(4) 0.8577(3)
O1 O -0.3725(4) 0.8090(4) 0.8641(2)
O2 O -0.4419(4) 0.7025(4) 0.6666(3)
O3 O -0.4120(4) 0.4860(4) 0.8941(3)
O4 O 0.2418(4) -0.0805(4) 1.0543(2)
H1 H 0.273(10) -0.209(3) 1.065(6)
C1 C -0.0474(5) 0.4993(5) 0.7804(3)
C2 C 0.0597(5) 0.5428(5) 0.6664(3)
H2 H -0.0212 0.6560 0.6010
C3 C 0.3843(5) 0.2700(5) 0.7423(3)
H3 H 0.5325 0.1854 0.7272
C4 C 0.0825(5) 0.3394(5) 0.8767(3)
H4 H 0.0189 0.3106 0.9575
H5 H 0.1579 -0.0345 1.1193
H6 H -0.570(6) 0.807(6) 0.659(6)
Cu1_2 Cu -0.5000 1.0000 1.0000
Cu1_3 Cu 0.5000 1.0000 0.0000
Cu1_4 Cu 1.5000 0.0000 0.0000
P1A P 1.34085(14) 0.35931(14) 0.19282(9)
N1A N 0.7259(5) 0.5713(5) 0.3534(3)
N2A N 0.7007(4) 0.7770(4) 0.1423(3)
N2A_2 N 0.7007(4) -0.2230(4) 1.1423(3)
O1A O 1.3725(4) 0.1910(4) 0.1359(2)
O1_2 O 0.6275(4) -0.1910(4) 0.8641(2)
O1A_2 O 0.3725(4) 0.1910(4) 1.1359(2)
O2A O 1.4419(4) 0.2975(4) 0.3334(3)
O3A O 1.4120(4) 0.5140(4) 0.1059(3)
O4A O 0.7582(4) 0.0805(4) 0.9457(2)
H1A H 0.727(10) 0.209(3) 0.935(6)
C1A C 1.0474(5) 0.5007(5) 0.2196(3)
C2A C 0.9403(5) 0.4572(5) 0.3336(3)
H2A H 1.0212 0.3440 0.3990
C3A C 0.6157(5) 0.7300(5) 0.2577(3)
H3A H 0.4675 0.8146 0.2728
C4A C 0.9175(5) 0.6606(5) 0.1233(3)
H4A H 0.9811 0.6894 0.0425
H5A H 0.8421 0.0345 0.8807
H6A H 1.570(6) 0.193(6) 0.341(6)
N3 N -0.9527(5) 1.0498(5) 0.6612(3)
O5 O -0.7930(5) 1.0209(5) 0.5823(3)
O6 O -1.1209(5) 1.2101(5) 0.6401(3)
O7 O -0.9342(5) 0.9170(5) 0.7615(3)
loop_
_geom_bond_atom_site_label_1
_geom_bond_atom_site_label_2
_geom_bond_site_symmetry_1
_geom_bond_site_symmetry_2
Ag1 N1 1_555 1_555
Cu1 N2 1_555 1_555
P1 O1 1_555 1_555
N1 C2 1_555 1_555
N2 C3 1_555 1_555
N3 O5 1_555 1_555
O1 Cu1_2 1_555 1_555
O2 P1 1_555 1_555
O3 P1 1_555 1_555
O4 Cu1 1_555 1_555
H1 O4 1_555 1_555
O6 N3 1_555 1_555
O7 N3 1_555 1_555
C1 P1 1_555 1_555
C2 C1 1_555 1_555
H2 C2 1_555 1_555
C3 N1 1_555 1_555
H3 C3 1_555 1_555
C4 N2 1_555 1_555
H4 C4 1_555 1_555
H5 O4 1_555 1_555
H6 O2 1_555 1_555
Cu1_3 N2A 1_555 1_555
Cu1_4 O1A 1_555 1_555
P1A O1A 1_555 1_555
N1A Ag1 1_555 1_555
N2A C3A 1_555 1_555
N2A_2 Cu1 1_555 1_555
O1_2 Cu1 1_555 1_555
O1A_2 Cu1 1_555 1_555
O2A P1A 1_555 1_555
O3A P1A 1_555 1_555
O4A Cu1 1_555 1_555
H1A O4A 1_555 1_555
C1A P1A 1_555 1_555
C2A N1A 1_555 1_555
H2A C2A 1_555 1_555
C3A N1A 1_555 1_555
H3A C3A 1_555 1_555
C4A N2A 1_555 1_555
H4A C4A 1_555 1_555
H5A O4A 1_555 1_555
H6A O2A 1_555 1_555
C1 C4 1_555 1_555
C1A C2A 1_555 1_555
C1A C4A 1_555 1_555

#END
