
#######################################################################
#
#                 Cambridge Crystallographic Data Centre
#                                CCDC 
#
#######################################################################
#
# If this CIF has been generated from an entry in the Cambridge 
# Structural Database, then it will include bibliographic, chemical, 
# crystal, experimental, refinement or atomic coordinate data resulting 
# from the CCDC's data processing and validation procedures.
#
#######################################################################

data_MOHHAT
_symmetry_cell_setting           monoclinic
_symmetry_space_group_name_H-M   'P 21/c'
_symmetry_Int_Tables_number      14
_space_group_name_Hall           '-P 2ybc'
loop_
_symmetry_equiv_pos_site_id
_symmetry_equiv_pos_as_xyz
1 x,y,z
2 -x,1/2+y,1/2-z
3 -x,-y,-z
4 x,1/2-y,1/2+z
_cell_length_a                   8.552(3)
_cell_length_b                   4.9588(17)
_cell_length_c                   24.778(10)
_cell_angle_alpha                90
_cell_angle_beta                 95.154(6)
_cell_angle_gamma                90
_cell_volume                     1046.53
loop_
_atom_site_label
_atom_site_type_symbol
_atom_site_fract_x
_atom_site_fract_y
_atom_site_fract_z
Zn1 Zn -0.67951(3) -1.64191(6) -0.401180(11)
Zn2 Zn -0.40059(4) -1.71651(7) -0.276690(13)
O1 O -0.3097(2) -1.4907(4) -0.32946(8)
O2 O -0.5579(2) -1.9905(4) -0.28463(8)
O3 O -0.4544(2) -1.5577(4) -0.40832(8)
O4 O -0.2208(2) -0.5968(4) -0.54357(8)
O5 O -0.3275(2) -0.9846(4) -0.57334(8)
O6 O 0.2053(2) -0.4295(5) -0.25107(8)
O7 O 0.3154(2) -0.4850(4) -0.32809(8)
O8 O 0.0819(2) -0.7710(4) -0.37073(8)
C1 C -0.2517(3) -1.2326(5) -0.40525(11)
C2 C -0.2914(3) -1.1568(5) -0.45894(11)
H1 H -0.3726 -1.2438 -0.4796
C3 C -0.2086(3) -0.9499(5) -0.48134(10)
C4 C -0.0858(3) -0.8217(5) -0.45048(11)
H2 H -0.0314 -0.6815 -0.4653
C5 C -0.0454(3) -0.9044(6) -0.39768(11)
C6 C -0.1282(3) -1.1057(6) -0.37420(11)
H3 H -0.1022 -1.1560 -0.3384
C7 C -0.3464(3) -1.4451(5) -0.37937(11)
C8 C -0.2548(3) -0.8419(5) -0.53680(10)
C9 C 0.0792(3) -0.7297(6) -0.31409(11)
H4 H -0.0214 -0.6563 -0.3062
H5 H 0.0957 -0.8990 -0.2948
C10 C 0.2094(3) -0.5338(6) -0.29692(11)
H6 H -0.5691 -2.0685 -0.3151
Zn1B Zn -0.32049(3) -0.35809(6) -0.598820(11)
Zn1_2 Zn 0.32049(3) -0.64191(6) -0.401180(11)
Zn1B_2 Zn -0.32049(3) -1.35809(6) -0.598820(11)
Zn2A Zn -0.59941(4) -2.21651(7) -0.223310(13)
Zn2A_2 Zn 0.40059(4) -0.21651(7) -0.223310(13)
O2A O -0.4421(2) -1.4905(4) -0.21537(8)
O4B O -0.7792(2) -1.4032(4) -0.45643(8)
O5B O -0.6725(2) -2.0154(4) -0.42666(8)
O6A O -0.2053(2) -1.9295(5) -0.24893(8)
O7_2 O -0.6846(2) -1.4850(4) -0.32809(8)
O8_2 O -0.9181(2) -1.7710(4) -0.37073(8)
H6A H -0.4309 -1.5685 -0.1849
loop_
_geom_bond_atom_site_label_1
_geom_bond_atom_site_label_2
_geom_bond_site_symmetry_1
_geom_bond_site_symmetry_2
Zn1 O3 1_555 1_555
Zn2 O1 1_555 1_555
O1 C7 1_555 1_555
O2 Zn2 1_555 1_555
O3 C7 1_555 1_555
O4 C8 1_555 1_555
O5 C8 1_555 1_555
O6 C10 1_555 1_555
O7 C10 1_555 1_555
O8 C5 1_555 1_555
C1 C2 1_555 1_555
C2 H1 1_555 1_555
C3 C2 1_555 1_555
C4 C3 1_555 1_555
H2 C4 1_555 1_555
C5 C4 1_555 1_555
C6 C1 1_555 1_555
H3 C6 1_555 1_555
C7 C1 1_555 1_555
C8 C3 1_555 1_555
C9 O8 1_555 1_555
H4 C9 1_555 1_555
H5 C9 1_555 1_555
C10 C9 1_555 1_555
H6 O2 1_555 1_555
Zn1B O4 1_555 1_555
Zn1_2 O7 1_555 1_555
Zn1B_2 O5 1_555 1_555
Zn2A O2 1_555 1_555
Zn2A_2 O6 1_555 1_555
O2A Zn2 1_555 1_555
O4B Zn1 1_555 1_555
O5B Zn1 1_555 1_555
O6A Zn2 1_555 1_555
O7_2 Zn1 1_555 1_555
O8_2 Zn1 1_555 1_555
H6A O2A 1_555 1_555
O8 Zn1_2 1_555 1_555
C5 C6 1_555 1_555

#END
