
#######################################################################
#
#                 Cambridge Crystallographic Data Centre
#                                CCDC 
#
#######################################################################
#
# If this CIF has been generated from an entry in the Cambridge 
# Structural Database, then it will include bibliographic, chemical, 
# crystal, experimental, refinement or atomic coordinate data resulting 
# from the CCDC's data processing and validation procedures.
#
#######################################################################

data_MOHJOK
_symmetry_cell_setting           triclinic
_symmetry_space_group_name_H-M   'P -1'
_symmetry_Int_Tables_number      2
_space_group_name_Hall           '-P 1'
loop_
_symmetry_equiv_pos_site_id
_symmetry_equiv_pos_as_xyz
1 x,y,z
2 -x,-y,-z
_cell_length_a                   11.5114(4)
_cell_length_b                   12.9844(5)
_cell_length_c                   14.8967(5)
_cell_angle_alpha                88.466(2)
_cell_angle_beta                 88.375(2)
_cell_angle_gamma                73.766(2)
_cell_volume                     2136.54
loop_
_atom_site_label
_atom_site_type_symbol
_atom_site_fract_x
_atom_site_fract_y
_atom_site_fract_z
Cu1 Cu 0.43945(3) 0.60518(3) 0.43730(2)
Cu2 Cu 0.07560(3) 0.88704(3) 0.49484(3)
O1 O 0.56964(19) 0.48011(17) 0.41249(14)
O2 O 0.0000(2) 0.8570(2) 0.63358(15)
H1 H -0.0021 0.7950 0.6545
H2 H -0.0121 0.9062 0.6731
O3 O 0.08079(19) 0.75409(18) 0.43947(14)
O4 O 0.08723(19) 1.02111(18) 0.53825(14)
O5 O 0.55610(19) 0.67951(17) 0.47914(14)
N1 N 0.3270(2) 0.5436(2) 0.37626(16)
N2 N 0.2071(2) 0.6013(2) 0.38810(17)
H3 H 0.1468 0.5786 0.3696
N3 N 0.2864(2) 0.7203(2) 0.46034(16)
N4 N 0.2493(2) 0.8215(2) 0.49865(17)
N5 N 0.7482(2) 0.6773(2) 0.50984(18)
C1 C 0.5753(3) 0.4065(3) 0.3515(2)
C2 C 0.6878(3) 0.3347(3) 0.3294(2)
H4 H 0.7586 0.3440 0.3553
C3 C 0.6990(3) 0.2515(3) 0.2717(2)
H5 H 0.7764 0.2036 0.2594
C4 C 0.5965(3) 0.2371(3) 0.2311(2)
H6 H 0.6036 0.1788 0.1922
C5 C 0.4860(3) 0.3084(3) 0.2483(2)
H7 H 0.4168 0.3001 0.2193
C6 C 0.4722(3) 0.3939(3) 0.3080(2)
C7 C 0.3522(3) 0.4630(3) 0.3234(2)
H8 H 0.2875 0.4484 0.2927
C8 C 0.1898(3) 0.6966(3) 0.43087(19)
C9 C 0.3286(3) 0.8614(3) 0.5317(2)
H9 H 0.4113 0.8212 0.5275
C10 C 0.2988(3) 0.9646(3) 0.5752(2)
C11 C 0.3943(3) 0.9892(3) 0.6192(2)
H10 H 0.4733 0.9409 0.6148
C12 C 0.3770(3) 1.0805(3) 0.6681(2)
H11 H 0.4429 1.0957 0.6967
C13 C 0.2610(3) 1.1505(3) 0.6750(2)
H12 H 0.2474 1.2135 0.7094
C14 C 0.1657(3) 1.1293(3) 0.6324(2)
H13 H 0.0873 1.1781 0.6382
C15 C 0.1816(3) 1.0373(3) 0.5806(2)
C16 C 0.6687(3) 0.6377(3) 0.4736(2)
H14 H 0.6975 0.5733 0.4410
C17 C 0.7096(3) 0.7762(3) 0.5610(2)
H15 H 0.6682 0.8357 0.5212
H16 H 0.7806 0.7917 0.5860
H17 H 0.6543 0.7675 0.6099
C18 C 0.8775(3) 0.6248(3) 0.5013(3)
H18 H 0.8906 0.5601 0.4655
H19 H 0.9110 0.6049 0.5611
H20 H 0.9180 0.6739 0.4715
Cu1A Cu 0.56055(3) 0.39482(3) 0.56270(2)
Cu2A Cu -0.07560(3) 1.11296(3) 0.50516(3)
O1A O 0.43036(19) 0.51989(17) 0.58751(14)
O4A O -0.08723(19) 0.97889(18) 0.46175(14)
Cu3 Cu 0.55509(3) 0.39479(3) 0.06333(2)
Cu4 Cu 0.91585(3) 0.10337(3) 0.02847(3)
O6 O 0.42504(19) 0.52128(17) 0.08482(13)
O7 O 0.91311(19) 0.24281(17) 0.07266(14)
O8 O 0.91277(19) -0.02061(17) -0.03813(13)
O9 O 0.43994(19) 0.31974(17) 0.02149(14)
O10 O 0.8892(2) 0.0316(2) 0.17256(16)
O11 O 1.0329(2) -0.0488(2) 0.26285(16)
O12 O 0.9787(3) -0.1394(2) 0.15790(16)
N6 N 0.6662(2) 0.4598(2) 0.12202(17)
N7 N 0.7855(2) 0.4025(2) 0.11057(17)
H21 H 0.8451 0.4283 0.1254
N8 N 0.7087(2) 0.2784(2) 0.04390(16)
N9 N 0.7460(2) 0.1752(2) 0.01004(16)
N10 N 0.2497(2) 0.3166(2) -0.00954(18)
N11 N 0.9672(3) -0.0528(3) 0.1978(2)
C19 C 0.4177(3) 0.5955(3) 0.1455(2)
C20 C 0.3042(3) 0.6665(3) 0.1671(2)
H22 H 0.2340 0.6566 0.1408
C21 C 0.2919(3) 0.7499(3) 0.2251(2)
H23 H 0.2142 0.7977 0.2368
C22 C 0.3932(3) 0.7646(3) 0.2670(2)
H24 H 0.3847 0.8221 0.3071
C23 C 0.5052(3) 0.6951(3) 0.2495(2)
H25 H 0.5738 0.7045 0.2786
C24 C 0.5208(3) 0.6096(3) 0.1890(2)
C25 C 0.6412(3) 0.5416(3) 0.1735(2)
H26 H 0.7060 0.5578 0.2027
C26 C 0.8060(3) 0.3032(3) 0.0748(2)
C27 C 0.6698(3) 0.1369(3) -0.0289(2)
H27 H 0.5874 0.1780 -0.0281
C28 C 0.7011(3) 0.0352(3) -0.0742(2)
C29 C 0.6070(3) 0.0110(3) -0.1194(2)
H28 H 0.5273 0.0575 -0.1132
C30 C 0.6260(3) -0.0776(3) -0.1724(2)
H29 H 0.5604 -0.0930 -0.2012
C31 C 0.7430(3) -0.1440(3) -0.1832(2)
H30 H 0.7580 -0.2043 -0.2210
C32 C 0.8378(3) -0.1231(3) -0.1393(2)
H31 H 0.9174 -0.1689 -0.1478
C33 C 0.8188(3) -0.0353(3) -0.0823(2)
C34 C 0.3271(3) 0.3584(3) 0.0277(2)
H32 H 0.2962 0.4216 0.0616
C35 C 0.1193(3) 0.3652(3) 0.0002(3)
H33 H 0.1038 0.4263 0.0405
H34 H 0.0810 0.3120 0.0255
H35 H 0.0855 0.3900 -0.0588
C36 C 0.2915(3) 0.2185(3) -0.0608(2)
H36 H 0.3502 0.2275 -0.1072
H37 H 0.2224 0.2035 -0.0893
H38 H 0.3300 0.1586 -0.0205
Cu3A Cu 0.44491(3) 0.60521(3) -0.06333(2)
Cu4A Cu 1.08415(3) -0.10337(3) -0.02847(3)
O6A O 0.57496(19) 0.47872(17) -0.08482(13)
O8A O 1.08723(19) 0.02061(17) 0.03813(13)
O13 O 0.9620(3) 0.4817(2) 0.19127(19)
O14 O 1.1234(3) 0.3980(3) 0.2633(3)
O15 O 0.9647(3) 0.3432(2) 0.2716(2)
N12 N 1.0174(3) 0.4066(3) 0.2442(2)
O16 O 0.0288(2) 0.6570(2) 0.25680(17)
H39 H 0.0216 0.7147 0.2250
H40 H 0.0042 0.6083 0.2317
loop_
_geom_bond_atom_site_label_1
_geom_bond_atom_site_label_2
_geom_bond_site_symmetry_1
_geom_bond_site_symmetry_2
Cu1 O1 1_555 1_555
Cu2 O2 1_555 1_555
O1 C1 1_555 1_555
O2 H1 1_555 1_555
H2 O2 1_555 1_555
O3 Cu2 1_555 1_555
O4 Cu2 1_555 1_555
O5 Cu1 1_555 1_555
N1 Cu1 1_555 1_555
N2 N1 1_555 1_555
H3 N2 1_555 1_555
N3 Cu1 1_555 1_555
N4 Cu2 1_555 1_555
N5 C16 1_555 1_555
C1 C2 1_555 1_555
C2 H4 1_555 1_555
C3 C2 1_555 1_555
H5 C3 1_555 1_555
C4 C3 1_555 1_555
H6 C4 1_555 1_555
C5 C4 1_555 1_555
H7 C5 1_555 1_555
C6 C1 1_555 1_555
C7 N1 1_555 1_555
H8 C7 1_555 1_555
C8 O3 1_555 1_555
C9 N4 1_555 1_555
H9 C9 1_555 1_555
C10 C9 1_555 1_555
C11 C10 1_555 1_555
H10 C11 1_555 1_555
C12 C11 1_555 1_555
H11 C12 1_555 1_555
C13 C12 1_555 1_555
H12 C13 1_555 1_555
C14 C13 1_555 1_555
H13 C14 1_555 1_555
C15 O4 1_555 1_555
C16 O5 1_555 1_555
H14 C16 1_555 1_555
C17 N5 1_555 1_555
H15 C17 1_555 1_555
H16 C17 1_555 1_555
H17 C17 1_555 1_555
C18 N5 1_555 1_555
H18 C18 1_555 1_555
H19 C18 1_555 1_555
H20 C18 1_555 1_555
Cu3 O6 1_555 1_555
Cu4 O7 1_555 1_555
O6 C19 1_555 1_555
O7 C26 1_555 1_555
O8 Cu4 1_555 1_555
O9 Cu3 1_555 1_555
O10 Cu4 1_555 1_555
O11 N11 1_555 1_555
O12 N11 1_555 1_555
N6 Cu3 1_555 1_555
N7 N6 1_555 1_555
H21 N7 1_555 1_555
N8 Cu3 1_555 1_555
N9 Cu4 1_555 1_555
N10 C34 1_555 1_555
N11 O10 1_555 1_555
C19 C20 1_555 1_555
C20 H22 1_555 1_555
C21 C20 1_555 1_555
H23 C21 1_555 1_555
C22 C21 1_555 1_555
H24 C22 1_555 1_555
C23 C22 1_555 1_555
H25 C23 1_555 1_555
C24 C19 1_555 1_555
C25 N6 1_555 1_555
H26 C25 1_555 1_555
C26 N7 1_555 1_555
C27 N9 1_555 1_555
H27 C27 1_555 1_555
C28 C27 1_555 1_555
C29 C28 1_555 1_555
H28 C29 1_555 1_555
C30 C29 1_555 1_555
H29 C30 1_555 1_555
C31 C30 1_555 1_555
H30 C31 1_555 1_555
C32 C31 1_555 1_555
H31 C32 1_555 1_555
C33 O8 1_555 1_555
C34 O9 1_555 1_555
H32 C34 1_555 1_555
C35 N10 1_555 1_555
H33 C35 1_555 1_555
H34 C35 1_555 1_555
H35 C35 1_555 1_555
C36 N10 1_555 1_555
H36 C36 1_555 1_555
H37 C36 1_555 1_555
H38 C36 1_555 1_555
O13 N12 1_555 1_555
O14 N12 1_555 1_555
O15 N12 1_555 1_555
O16 H39 1_555 1_555
H40 O16 1_555 1_555
Cu1A O1 1_555 1_555
Cu2A O4 1_555 1_555
O1A Cu1 1_555 1_555
O4A Cu2 1_555 1_555
Cu3A O6 1_555 1_555
Cu4A O8 1_555 1_555
O6A Cu3 1_555 1_555
O8A Cu4 1_555 1_555
N2 C8 1_555 1_555
N3 N4 1_555 1_555
N3 C8 1_555 1_555
C5 C6 1_555 1_555
C6 C7 1_555 1_555
C10 C15 1_555 1_555
C14 C15 1_555 1_555
N8 N9 1_555 1_555
N8 C26 1_555 1_555
C23 C24 1_555 1_555
C24 C25 1_555 1_555
C28 C33 1_555 1_555
C32 C33 1_555 1_555
Cu1A O1A 1_555 1_555
Cu2A O4A 1_555 1_555
Cu3A O6A 1_555 1_555
Cu4A O8A 1_555 1_555

#END
