
#######################################################################
#
#                 Cambridge Crystallographic Data Centre
#                                CCDC 
#
#######################################################################
#
# If this CIF has been generated from an entry in the Cambridge 
# Structural Database, then it will include bibliographic, chemical, 
# crystal, experimental, refinement or atomic coordinate data resulting 
# from the CCDC's data processing and validation procedures.
#
#######################################################################

data_MOHJOJ
_symmetry_cell_setting           orthorhombic
_symmetry_space_group_name_H-M   'P b c a'
_symmetry_Int_Tables_number      61
_space_group_name_Hall           '-P 2ac 2ab'
loop_
_symmetry_equiv_pos_site_id
_symmetry_equiv_pos_as_xyz
1 x,y,z
2 1/2-x,-y,1/2+z
3 1/2+x,1/2-y,-z
4 -x,1/2+y,1/2-z
5 -x,-y,-z
6 1/2+x,y,1/2-z
7 1/2-x,1/2+y,z
8 x,1/2-y,1/2+z
_cell_length_a                   12.5436(14)
_cell_length_b                   7.0918(8)
_cell_length_c                   15.5908(17)
_cell_angle_alpha                90
_cell_angle_beta                 90
_cell_angle_gamma                90
_cell_volume                     1386.91
loop_
_atom_site_label
_atom_site_type_symbol
_atom_site_fract_x
_atom_site_fract_y
_atom_site_fract_z
Zn1 Zn 0.5000 0.0000 0.5000
P1 P 0.36105(6) 0.24694(10) 0.15525(4)
N1 N 0.43133(19) 0.2114(3) 0.40963(15)
N2 N 0.36515(19) 0.5209(3) 0.38376(16)
O1 O 0.43985(16) 0.3609(3) 0.10618(13)
O2 O 0.39177(16) 0.0329(3) 0.14886(13)
O3 O 0.24483(16) 0.2721(3) 0.13450(13)
O4 O 0.64090(17) 0.1521(3) 0.51276(14)
C1 C 0.4174(2) 0.1702(4) 0.32639(18)
H1 H 0.4341 0.0481 0.3071
C2 C 0.3793(2) 0.3013(4) 0.26764(18)
C3 C 0.3548(2) 0.4784(4) 0.30067(19)
H2 H 0.3299 0.5720 0.2630
C4 C 0.4042(2) 0.3845(4) 0.43369(19)
H3 H 0.4135 0.4141 0.4920
H4 H 0.641(3) 0.256(5) 0.550(3)
H5 H 0.675(3) 0.192(6) 0.466(2)
H6 H 0.340(2) -0.047(4) 0.145(3)
Zn1G Zn 0.5000 0.5000 0.0000
Zn1G_2 Zn 0.5000 -0.5000 1.0000
P1D P 0.63895(6) -0.24694(10) 0.84475(4)
N1D N 0.56867(19) -0.2114(3) 0.59037(15)
N2D N 0.63485(19) -0.5209(3) 0.61624(16)
O1G O 0.43985(16) 0.1391(3) 0.60618(13)
O1C O 0.56015(16) -0.1391(3) 0.39382(13)
O1D O 0.56015(16) -0.3609(3) 0.89382(13)
O2D O 0.60823(16) -0.0329(3) 0.85114(13)
O3D O 0.75517(16) -0.2721(3) 0.86550(13)
O4D O 0.35910(17) -0.1521(3) 0.48724(14)
C1D C 0.5826(2) -0.1702(4) 0.67361(18)
H1D H 0.5659 -0.0481 0.6929
C2D C 0.6207(2) -0.3013(4) 0.73236(18)
C3D C 0.6452(2) -0.4784(4) 0.69933(19)
H2D H 0.6701 -0.5720 0.7370
C4D C 0.5958(2) -0.3845(4) 0.56631(19)
H3D H 0.5865 -0.4141 0.5080
H4D H 0.359(3) -0.256(5) 0.450(3)
H5D H 0.325(3) -0.192(6) 0.534(2)
H6D H 0.660(2) 0.047(4) 0.855(3)
loop_
_geom_bond_atom_site_label_1
_geom_bond_atom_site_label_2
_geom_bond_site_symmetry_1
_geom_bond_site_symmetry_2
Zn1 N1 1_555 1_555
P1 O1 1_555 1_555
N1 C1 1_555 1_555
N2 C3 1_555 1_555
O1 Zn1G 1_555 1_555
O2 P1 1_555 1_555
O3 P1 1_555 1_555
O4 Zn1 1_555 1_555
C1 H1 1_555 1_555
C2 P1 1_555 1_555
C3 C2 1_555 1_555
H2 C3 1_555 1_555
C4 N1 1_555 1_555
H3 C4 1_555 1_555
H4 O4 1_555 1_555
H5 O4 1_555 1_555
H6 O2 1_555 1_555
Zn1G_2 O1D 1_555 1_555
P1D O1D 1_555 1_555
N1D Zn1 1_555 1_555
N2D C3D 1_555 1_555
O1G Zn1 1_555 1_555
O1C Zn1 1_555 1_555
O2D P1D 1_555 1_555
O3D P1D 1_555 1_555
O4D Zn1 1_555 1_555
C1D N1D 1_555 1_555
H1D C1D 1_555 1_555
C2D P1D 1_555 1_555
C3D C2D 1_555 1_555
H2D C3D 1_555 1_555
C4D N1D 1_555 1_555
H3D C4D 1_555 1_555
H4D O4D 1_555 1_555
H5D O4D 1_555 1_555
H6D O2D 1_555 1_555
N2 C4 1_555 1_555
C1 C2 1_555 1_555
N2D C4D 1_555 1_555
C1D C2D 1_555 1_555

#END
