
#######################################################################
#
#                 Cambridge Crystallographic Data Centre
#                                CCDC 
#
#######################################################################
#
# If this CIF has been generated from an entry in the Cambridge 
# Structural Database, then it will include bibliographic, chemical, 
# crystal, experimental, refinement or atomic coordinate data resulting 
# from the CCDC's data processing and validation procedures.
#
#######################################################################

data_MOHJAV
_symmetry_cell_setting           triclinic
_symmetry_space_group_name_H-M   'P -1'
_symmetry_Int_Tables_number      2
_space_group_name_Hall           '-P 1'
loop_
_symmetry_equiv_pos_site_id
_symmetry_equiv_pos_as_xyz
1 x,y,z
2 -x,-y,-z
_cell_length_a                   8.5096(10)
_cell_length_b                   8.7131(10)
_cell_length_c                   17.296(2)
_cell_angle_alpha                88.498(2)
_cell_angle_beta                 76.163(2)
_cell_angle_gamma                83.192(2)
_cell_volume                     1236.41
loop_
_atom_site_label
_atom_site_type_symbol
_atom_site_fract_x
_atom_site_fract_y
_atom_site_fract_z
Ag1 Ag 0.30837(9) -0.15337(7) -0.80328(3)
Ag2 Ag 0.27983(6) 0.12300(6) -0.48571(4)
Ag3 Ag 0.35708(8) -0.13243(7) -0.30899(3)
Ag4 Ag 0.27012(6) 0.13088(6) -0.95890(4)
P1 P 0.39836(17) -0.27067(17) -0.48279(8)
P2 P 0.38906(17) -0.27119(16) -0.98105(8)
S1 S 0.2367(2) 0.18645(17) -0.18479(9)
S2 S 0.21943(18) 0.18710(17) -0.69634(9)
O1 O 0.3860(5) -0.1196(5) -0.4395(2)
O2 O 0.3281(5) -0.3935(5) -0.4207(2)
O3 O 0.5643(5) -0.3244(5) -0.5333(2)
O4 O 0.3644(5) -0.1265(5) -0.9317(2)
O5 O 0.3156(5) -0.4020(5) -0.9257(2)
O6 O 0.5606(5) -0.3202(4) -1.0281(2)
O7 O 0.0836(8) 0.1669(7) -0.1991(5)
O8 O 0.3756(10) 0.1355(7) -0.2456(5)
O9 O 0.2481(8) 0.1393(6) -0.1066(4)
O10 O 0.2979(6) 0.1478(5) -0.7777(3)
O11 O 0.0524(6) 0.1590(5) -0.6725(3)
O12 O 0.3153(6) 0.1380(6) -0.6403(3)
N1 N 0.2146(7) -0.2038(6) -0.6776(3)
N2 N -0.0099(6) -0.1825(6) -0.5655(3)
N3 N 0.0040(6) -0.1790(6) -1.0815(3)
N4 N 0.2431(7) -0.1947(6) -1.1856(3)
F1 F 0.2282(10) 0.4578(6) -0.2504(4)
F2 F 0.1212(7) 0.4616(5) -0.1291(4)
F3 F 0.3785(7) 0.4279(6) -0.1676(5)
F4 F 0.3608(6) 0.4382(6) -0.7123(4)
F5 F 0.1323(8) 0.4635(6) -0.7439(4)
F6 F 0.1379(7) 0.4522(5) -0.6227(3)
C1 C 0.0562(8) -0.1813(7) -0.6435(4)
H1 H -0.0155 -0.1630 -0.6774
C2 C 0.3163(7) -0.2321(6) -0.6299(3)
H2 H 0.4290 -0.2478 -0.6526
C3 C 0.2612(7) -0.2390(6) -0.5476(3)
C4 C 0.0942(7) -0.2122(7) -0.5180(3)
H3 H 0.0519 -0.2149 -0.4626
C5 C 0.0970(7) -0.2088(7) -1.0284(4)
H4 H 0.0459 -0.2122 -0.9739
C6 C 0.0819(8) -0.1733(7) -1.1575(4)
H5 H 0.0180 -0.1523 -1.1949
C7 C 0.3344(7) -0.2249(6) -1.1323(3)
C8 C 0.2646(6) -0.2345(6) -1.0517(3)
C9 C 0.2408(10) 0.3947(8) -0.1843(5)
C10 C 0.2109(9) 0.3962(8) -0.6941(5)
Ag2A Ag 0.72017(6) -0.12300(6) -0.51429(4)
Ag2A_2 Ag -0.27983(6) -0.12300(6) -0.51429(4)
Ag3_2 Ag 0.35708(8) -0.13243(7) -1.30899(3)
Ag4A Ag 0.72988(6) -0.13088(6) -1.04110(4)
Ag4_2 Ag 0.27012(6) 0.13088(6) 0.04110(4)
Ag4A_2 Ag -0.27012(6) -0.13088(6) -1.04110(4)
O3A O 0.4357(5) 0.3244(5) -0.4667(2)
O6A O 0.4394(5) 0.3202(4) -0.9719(2)
O9_2 O 0.2481(8) 0.1393(6) -1.1066(4)
N2A N 0.0099(6) 0.1825(6) -0.4345(3)
N3A N -0.0040(6) 0.1790(6) -0.9185(3)
N4_2 N 0.2431(7) -0.1947(6) -0.1856(3)
loop_
_geom_bond_atom_site_label_1
_geom_bond_atom_site_label_2
_geom_bond_site_symmetry_1
_geom_bond_site_symmetry_2
Ag1 O4 1_555 1_555
Ag2 O1 1_555 1_555
Ag3 O1 1_555 1_555
Ag4 O4 1_555 1_555
P1 O1 1_555 1_555
P2 O4 1_555 1_555
S1 O7 1_555 1_555
S2 O10 1_555 1_555
O2 P1 1_555 1_555
O3 P1 1_555 1_555
O5 P2 1_555 1_555
O6 P2 1_555 1_555
O8 Ag3 1_555 1_555
O9 S1 1_555 1_555
O10 Ag1 1_555 1_555
O11 S2 1_555 1_555
O12 Ag2 1_555 1_555
N1 Ag1 1_555 1_555
N2 C1 1_555 1_555
N3 C5 1_555 1_555
N4 C6 1_555 1_555
F1 C9 1_555 1_555
F2 C9 1_555 1_555
F3 C9 1_555 1_555
F4 C10 1_555 1_555
F5 C10 1_555 1_555
F6 C10 1_555 1_555
C1 N1 1_555 1_555
H1 C1 1_555 1_555
C2 N1 1_555 1_555
H2 C2 1_555 1_555
C3 P1 1_555 1_555
C4 N2 1_555 1_555
H3 C4 1_555 1_555
C5 H4 1_555 1_555
C6 N3 1_555 1_555
H5 C6 1_555 1_555
C7 N4 1_555 1_555
C8 P2 1_555 1_555
C9 S1 1_555 1_555
C10 S2 1_555 1_555
Ag2A O3 1_555 1_555
Ag2A_2 N2 1_555 1_555
Ag3_2 N4 1_555 1_555
Ag4A O6 1_555 1_555
Ag4_2 O9 1_555 1_555
Ag4A_2 N3 1_555 1_555
O3A Ag2 1_555 1_555
O6A Ag4 1_555 1_555
O9_2 Ag4 1_555 1_555
N2A Ag2 1_555 1_555
N3A Ag4 1_555 1_555
N4_2 Ag3 1_555 1_555
S1 O8 1_555 1_555
S2 O12 1_555 1_555
C2 C3 1_555 1_555
C3 C4 1_555 1_555
C5 C8 1_555 1_555
C7 C8 1_555 1_555

#END
