
#######################################################################
#
#                 Cambridge Crystallographic Data Centre
#                                CCDC 
#
#######################################################################
#
# If this CIF has been generated from an entry in the Cambridge 
# Structural Database, then it will include bibliographic, chemical, 
# crystal, experimental, refinement or atomic coordinate data resulting 
# from the CCDC's data processing and validation procedures.
#
#######################################################################

data_MOHKUR
_symmetry_cell_setting           triclinic
_symmetry_space_group_name_H-M   'P -1'
_symmetry_Int_Tables_number      2
_space_group_name_Hall           '-P 1'
loop_
_symmetry_equiv_pos_site_id
_symmetry_equiv_pos_as_xyz
1 x,y,z
2 -x,-y,-z
_cell_length_a                   10.0325(7)
_cell_length_b                   13.9308(10)
_cell_length_c                   38.265(3)
_cell_angle_alpha                93.487(2)
_cell_angle_beta                 94.028(2)
_cell_angle_gamma                92.390(2)
_cell_volume                     5319.18
loop_
_atom_site_label
_atom_site_type_symbol
_atom_site_fract_x
_atom_site_fract_y
_atom_site_fract_z
Sm1 Sm 0.18847(3) 1.16506(2) 0.251188(8)
Sm2 Sm 0.38001(3) 0.93068(2) 0.257085(8)
Sm3 Sm 0.18106(3) 0.66857(2) 0.251487(8)
Sm4 Sm 0.00012(3) 0.42091(2) 0.256183(8)
C1 C -0.0481(6) 1.2236(5) 0.29997(17)
C2 C 0.3687(7) 1.0515(5) 0.32127(16)
C3 C 0.0792(7) 0.8430(5) 0.28465(17)
C4 C 0.4807(7) 0.7230(4) 0.29336(16)
C5 C 0.0226(7) 0.5510(5) 0.31955(16)
C6 C 0.3142(6) 1.3473(5) 0.28361(17)
C7 C 0.3741(6) 1.1094(4) 0.19886(17)
C8 C 0.0543(6) 0.9945(5) 0.21579(16)
C9 C -0.0314(6) 0.6054(4) 0.19909(17)
C10 C 0.3014(6) 0.5049(5) 0.21662(16)
C11 C 0.0072(7) 0.3022(5) 0.19143(17)
C12 C -0.1151(7) 1.2459(6) 0.33339(18)
H1 H -0.1340 1.3151 0.3345
H2 H -0.2024 1.2094 0.3316
C13 C 0.3690(7) 1.1186(5) 0.35342(18)
H3 H 0.4040 1.1828 0.3477
H4 H 0.2754 1.1254 0.3595
C14 C 0.0185(7) 0.9227(5) 0.30566(18)
H5 H -0.0708 0.9356 0.2948
H6 H 0.0759 0.9824 0.3061
C15 C 0.5949(7) 0.6879(5) 0.31693(18)
H7 H 0.6083 0.6195 0.3101
H8 H 0.6782 0.7253 0.3132
C16 C 0.0091(8) 0.6251(5) 0.34979(17)
H9 H 0.0599 0.6851 0.3453
H10 H -0.0862 0.6404 0.3506
C17 C 0.3966(7) 1.4292(5) 0.30295(19)
H11 H 0.4713 1.4486 0.2889
H12 H 0.3405 1.4853 0.3065
C18 C 0.4682(7) 1.0870(5) 0.17074(18)
H13 H 0.5580 1.1159 0.1785
H14 H 0.4759 1.0163 0.1680
C19 C -0.0138(7) 0.9156(5) 0.19088(18)
H15 H 0.0495 0.8642 0.1865
H16 H -0.0916 0.8869 0.2017
C20 C -0.1422(7) 0.5767(5) 0.17085(18)
H17 H -0.1488 0.5056 0.1676
H18 H -0.2279 0.5978 0.1793
C21 C 0.3505(7) 0.4271(5) 0.19257(17)
H19 H 0.2837 0.3723 0.1897
H20 H 0.4351 0.4036 0.2031
C22 C 0.0101(8) 0.2395(5) 0.15811(17)
H21 H -0.0313 0.1756 0.1620
H22 H 0.1048 0.2300 0.1536
C23 C -0.0421(7) 1.2250(5) 0.36741(18)
C24 C 0.4498(7) 1.0885(5) 0.38528(17)
C25 C 0.0062(7) 0.8920(4) 0.34289(18)
C26 C 0.5697(7) 0.6976(5) 0.35542(18)
C27 C 0.0589(8) 0.5921(5) 0.38512(18)
C28 C 0.4513(7) 1.3978(5) 0.33804(19)
C29 C 0.4258(7) 1.1228(5) 0.13581(18)
C30 C -0.0597(8) 0.9556(5) 0.15663(18)
C31 C -0.1253(7) 0.6169(5) 0.13580(18)
C32 C 0.3738(7) 0.4642(5) 0.15706(17)
C33 C -0.0590(7) 0.2759(5) 0.12548(17)
C34 C 0.0169(7) 1.2994(5) 0.38963(19)
H23 H 0.0159 1.3634 0.3824
C35 C 0.3894(7) 1.0704(5) 0.41591(18)
H24 H 0.2953 1.0753 0.4164
C36 C -0.1176(7) 0.8721(5) 0.35548(18)
H25 H -0.1967 0.8793 0.3409
C37 C 0.5182(7) 0.7798(5) 0.37080(18)
H26 H 0.4953 0.8312 0.3566
C38 C 0.1955(7) 0.5878(5) 0.39410(18)
H27 H 0.2575 0.6059 0.3777
C39 C 0.5862(7) 1.3829(5) 0.34458(18)
H28 H 0.6446 1.3907 0.3264
C40 C 0.3763(9) 1.0609(5) 0.1078(2)
H29 H 0.3713 0.9935 0.1105
C41 C -0.1935(9) 0.9717(5) 0.1483(2)
H30 H -0.2579 0.9561 0.1644
C42 C -0.0876(8) 0.5600(5) 0.10765(19)
H31 H -0.0711 0.4942 0.1105
C43 C 0.5017(7) 0.4793(5) 0.14670(18)
H32 H 0.5761 0.4659 0.1621
C44 C 0.0120(9) 0.2924(5) 0.09675(19)
H33 H 0.1057 0.2839 0.0982
C45 C 0.0773(7) 1.2822(5) 0.4222(2)
H34 H 0.1167 1.3341 0.4371
C46 C 0.4623(7) 1.0455(5) 0.44575(18)
H35 H 0.4188 1.0336 0.4664
C47 C -0.1276(7) 0.8415(5) 0.38926(18)
H36 H -0.2130 0.8285 0.3976
C48 C 0.4998(7) 0.7882(5) 0.40660(19)
H37 H 0.4644 0.8449 0.4167
C49 C 0.2430(7) 0.5577(5) 0.4264(2)
H38 H 0.3365 0.5550 0.4320
C50 C 0.6385(7) 1.3569(5) 0.37724(19)
H39 H 0.7315 1.3479 0.3813
C51 C 0.3337(11) 1.0954(6) 0.0758(2)
H40 H 0.3005 1.0518 0.0568
C52 C -0.2348(11) 1.0104(6) 0.1169(2)
H41 H -0.3267 1.0211 0.1116
C53 C -0.0734(10) 0.5972(6) 0.0754(2)
H42 H -0.0471 0.5570 0.0564
C54 C 0.5239(9) 0.5140(5) 0.1139(2)
H43 H 0.6124 0.5232 0.1070
C55 C -0.0498(10) 0.3213(6) 0.0656(2)
H44 H 0.0012 0.3328 0.0462
C56 C 0.0803(6) 1.1892(5) 0.43280(18)
C57 C 0.5985(7) 1.0380(5) 0.44521(17)
C58 C -0.0126(7) 0.8302(5) 0.41053(18)
C59 C 0.5331(7) 0.7137(6) 0.42749(18)
C60 C 0.1532(7) 0.5317(5) 0.45023(18)
C61 C 0.5526(7) 1.3441(5) 0.40386(18)
C62 C 0.3396(11) 1.1935(6) 0.07163(19)
C63 C -0.1413(14) 1.0334(6) 0.0932(2)
C64 C -0.0973(13) 0.6925(7) 0.0707(2)
C65 C 0.4167(9) 0.5344(5) 0.09200(19)
C66 C -0.1861(9) 0.3331(5) 0.0633(2)
C67 C 0.0245(7) 1.1137(5) 0.41063(18)
H45 H 0.0283 1.0496 0.4177
C68 C 0.6624(7) 1.0542(5) 0.41460(18)
H46 H 0.7561 1.0480 0.4139
C69 C 0.1121(7) 0.8503(5) 0.39833(19)
H47 H 0.1912 0.8431 0.4129
C70 C 0.5858(8) 0.6318(5) 0.41240(19)
H48 H 0.6099 0.5807 0.4266
C71 C 0.0173(7) 0.5366(5) 0.44204(18)
H49 H -0.0444 0.5194 0.4586
C72 C 0.4167(7) 1.3564(5) 0.39706(19)
H50 H 0.3572 1.3459 0.4148
C73 C 0.3898(8) 1.2576(5) 0.09948(18)
H51 H 0.3945 1.3250 0.0968
C74 C -0.0086(12) 1.0197(6) 0.1016(2)
H52 H 0.0564 1.0370 0.0859
C75 C -0.1339(12) 0.7512(6) 0.0982(2)
H53 H -0.1488 0.8172 0.0952
C76 C 0.2873(9) 0.5216(5) 0.1022(2)
H54 H 0.2132 0.5366 0.0870
C77 C -0.2589(9) 0.3168(6) 0.0921(2)
H55 H -0.3525 0.3253 0.0906
C78 C -0.0368(7) 1.1310(5) 0.37820(18)
H56 H -0.0754 1.0788 0.3632
C79 C 0.5855(7) 1.0795(5) 0.38531(18)
H57 H 0.6284 1.0910 0.3645
C80 C 0.1203(7) 0.8809(5) 0.36481(18)
H58 H 0.2058 0.8945 0.3566
C81 C 0.6033(7) 0.6239(5) 0.37698(19)
H59 H 0.6389 0.5672 0.3671
C82 C -0.0288(7) 0.5665(5) 0.40974(17)
H60 H -0.1223 0.5695 0.4043
C83 C 0.3675(7) 1.3838(5) 0.36494(19)
H61 H 0.2745 1.3932 0.3610
C84 C 0.4324(7) 1.2212(5) 0.13093(18)
H62 H 0.4673 1.2645 0.1498
C85 C 0.0308(9) 0.9807(5) 0.1331(2)
H63 H 0.1230 0.9710 0.1384
C86 C -0.1491(8) 0.7128(5) 0.13056(19)
H64 H -0.1762 0.7531 0.1495
C87 C 0.2672(7) 0.4868(5) 0.13466(19)
H65 H 0.1787 0.4784 0.1416
C88 C -0.1968(8) 0.2887(5) 0.1226(2)
H66 H -0.2480 0.2777 0.1421
C89 C 0.2121(8) 1.2369(7) 0.4860(2)
H67 H 0.2919 1.2548 0.4741
H68 H 0.2392 1.2120 0.5087
H69 H 0.1591 1.2936 0.4898
C90 C 0.8060(8) 1.0006(6) 0.47555(19)
H70 H 0.8204 0.9482 0.4581
H71 H 0.8415 0.9838 0.4988
H72 H 0.8522 1.0598 0.4693
C91 C 0.0836(8) 0.7859(6) 0.4655(2)
H73 H 0.1366 0.7375 0.4539
H74 H 0.0570 0.7631 0.4878
H75 H 0.1372 0.8464 0.4699
C92 C 0.4643(8) 0.7962(7) 0.4794(2)
H76 H 0.5229 0.8530 0.4767
H77 H 0.4581 0.7869 0.5044
H78 H 0.3750 0.8057 0.4684
C93 C 0.3297(9) 0.4968(7) 0.4921(2)
H79 H 0.3695 0.4534 0.4750
H80 H 0.3436 0.4730 0.5156
H81 H 0.3721 0.5615 0.4919
C94 C 0.7314(8) 1.3084(6) 0.4444(2)
H82 H 0.7618 1.2589 0.4279
H83 H 0.7473 1.2886 0.4685
H84 H 0.7810 1.3694 0.4420
C95 C 0.3104(12) 1.3224(6) 0.0339(2)
H85 H 0.2614 1.3605 0.0507
H86 H 0.2767 1.3339 0.0099
H87 H 0.4058 1.3412 0.0371
C96 C -0.065(2) 1.0825(12) 0.0351(4)
H88 H 0.0052 1.1279 0.0461
H89 H -0.1024 1.1075 0.0133
H90 H -0.0265 1.0202 0.0298
C97 C 0.5560(14) 0.5782(8) 0.0471(3)
H91 H 0.6088 0.6252 0.0631
H92 H 0.5496 0.6015 0.0234
H93 H 0.5996 0.5165 0.0467
O1 O 0.0373(5) 1.1616(3) 0.29806(12)
O2 O 0.4336(5) 0.9770(3) 0.32005(12)
O3 O 0.0030(5) 0.7770(3) 0.26810(13)
O4 O 0.3735(4) 0.6746(3) 0.29080(12)
O5 O -0.0372(5) 0.4710(4) 0.31853(13)
O6 O 0.1887(5) 1.3400(3) 0.28578(12)
O7 O 0.4028(4) 1.0828(3) 0.23002(11)
O8 O 0.1646(5) 0.9827(3) 0.23253(12)
O9 O 0.2880(5) 0.7874(3) 0.22019(12)
O10 O -0.0406(4) 0.5742(3) 0.22956(12)
O11 O 0.1982(5) 0.4889(3) 0.23385(12)
O12 O 0.0837(5) 0.2827(3) 0.21826(11)
O13 O 0.3718(5) 1.2816(3) 0.26691(13)
O14 O 0.2978(4) 1.0719(3) 0.29353(11)
O15 O 0.2049(4) 0.8388(3) 0.28490(11)
O16 O 0.5036(4) 0.7987(3) 0.27796(12)
O17 O 0.0958(5) 0.5718(3) 0.29482(12)
O18 O 0.2710(5) 1.1533(3) 0.19276(12)
O19 O -0.0020(5) 1.0740(3) 0.21949(12)
O20 O 0.4347(5) 0.8780(3) 0.19626(12)
O21 O 0.0649(5) 0.6598(3) 0.19317(12)
O22 O 0.3584(4) 0.5875(3) 0.21984(12)
O23 O -0.0661(5) 0.3717(3) 0.19422(13)
O24 O 0.1340(5) 1.1639(4) 0.46488(13)
O25 O 0.6660(5) 1.0154(4) 0.47608(12)
O26 O -0.0327(5) 0.8013(4) 0.44344(12)
O27 O 0.5178(6) 0.7131(4) 0.46281(13)
O28 O 0.1897(5) 0.5009(4) 0.48289(13)
O29 O 0.5926(5) 1.3204(4) 0.43701(13)
O30 O 0.2920(9) 1.2226(4) 0.03964(15)
O31 O -0.1836(9) 1.0689(4) 0.06215(16)
O32 O 0.4012(19) 0.8679(7) 0.0282(2)
O33 O -0.0806(12) 0.7222(5) 0.03758(16)
O34 O 0.4254(8) 0.5654(4) 0.05879(15)
O35 O -0.2584(8) 0.3608(4) 0.03413(17)
O36 O -0.0876(5) 1.2717(3) 0.27403(12)
O37 O -0.2371(5) 0.4416(4) 0.25418(14)
O38 O 0.6191(5) 0.9778(3) 0.25682(14)
C98 C -0.105(3) 0.8208(8) 0.0323(3)
H94 H -0.1982 0.8331 0.0365
H95 H -0.0883 0.8345 0.0082
H96 H -0.0453 0.8623 0.0487
C99 C 0.3584(7) 0.8047(5) 0.19427(17)
C100 C 0.3491(9) 0.7328(5) 0.16272(19)
H97 H 0.4197 0.6861 0.1663
H98 H 0.2618 0.6966 0.1620
C101 C 0.3624(6) 0.7732(5) 0.12750(13)
C102 C 0.2551(5) 0.7874(5) 0.10366(17)
H99 H 0.1661 0.7753 0.1098
C103 C 0.2780(6) 0.8194(5) 0.07081(15)
H100 H 0.2046 0.8292 0.0545
C104 C 0.4081(7) 0.8372(5) 0.06180(14)
C105 C 0.5154(5) 0.8230(6) 0.08564(18)
H101 H 0.6044 0.8351 0.0795
C106 C 0.4925(5) 0.7910(5) 0.11849(16)
H102 H 0.5659 0.7813 0.1348
C107 C -0.1864(17) 0.3699(8) 0.0032(2)
H103 H -0.1190 0.4230 0.0073
H104 H -0.2489 0.3829 -0.0167
H105 H -0.1424 0.3098 -0.0022
C108 C 0.5653(10) 0.8878(8) 0.0192(3)
H106 H 0.6036 0.9441 0.0336
H107 H 0.5702 0.8994 -0.0057
H108 H 0.6158 0.8312 0.0247
Sm1_2 Sm 0.18847(3) 0.16506(2) 0.251188(8)
Sm4_2 Sm 0.00012(3) 1.42091(2) 0.256183(8)
O6_2 O 0.1887(5) 0.3400(3) 0.28578(12)
O12_2 O 0.0837(5) 1.2827(3) 0.21826(11)
O36_2 O -0.0876(5) 0.2717(3) 0.27403(12)
O39 O 0.7507(5) 0.1371(3) 0.23024(14)
O40 O 0.6349(5) 0.6012(4) 0.23254(15)
O41 O 0.7431(5) 0.8008(4) 0.24454(14)
O42 O 0.5923(5) 0.2969(4) 0.22800(16)
loop_
_geom_bond_atom_site_label_1
_geom_bond_atom_site_label_2
_geom_bond_site_symmetry_1
_geom_bond_site_symmetry_2
Sm1 O1 1_555 1_555
Sm2 O2 1_555 1_555
Sm3 O3 1_555 1_555
Sm4 O5 1_555 1_555
C1 C12 1_555 1_555
C2 C13 1_555 1_555
C3 C14 1_555 1_555
C4 C15 1_555 1_555
C5 C16 1_555 1_555
C6 C17 1_555 1_555
C7 C18 1_555 1_555
C8 C19 1_555 1_555
C9 C20 1_555 1_555
C10 C21 1_555 1_555
C11 C22 1_555 1_555
C12 H1 1_555 1_555
H2 C12 1_555 1_555
C13 H3 1_555 1_555
H4 C13 1_555 1_555
C14 H5 1_555 1_555
H6 C14 1_555 1_555
C15 H7 1_555 1_555
H8 C15 1_555 1_555
C16 H9 1_555 1_555
H10 C16 1_555 1_555
C17 H11 1_555 1_555
H12 C17 1_555 1_555
C18 H13 1_555 1_555
H14 C18 1_555 1_555
C19 H15 1_555 1_555
H16 C19 1_555 1_555
C20 H17 1_555 1_555
H18 C20 1_555 1_555
C21 H19 1_555 1_555
H20 C21 1_555 1_555
C22 H21 1_555 1_555
H22 C22 1_555 1_555
C23 C12 1_555 1_555
C24 C13 1_555 1_555
C25 C14 1_555 1_555
C26 C15 1_555 1_555
C27 C16 1_555 1_555
C28 C17 1_555 1_555
C29 C18 1_555 1_555
C30 C19 1_555 1_555
C31 C20 1_555 1_555
C32 C21 1_555 1_555
C33 C22 1_555 1_555
C34 C23 1_555 1_555
H23 C34 1_555 1_555
C35 C24 1_555 1_555
H24 C35 1_555 1_555
C36 C25 1_555 1_555
H25 C36 1_555 1_555
C37 C26 1_555 1_555
H26 C37 1_555 1_555
C38 C27 1_555 1_555
H27 C38 1_555 1_555
C39 C28 1_555 1_555
H28 C39 1_555 1_555
C40 C29 1_555 1_555
H29 C40 1_555 1_555
C41 C30 1_555 1_555
H30 C41 1_555 1_555
C42 C31 1_555 1_555
H31 C42 1_555 1_555
C43 C32 1_555 1_555
H32 C43 1_555 1_555
C44 C33 1_555 1_555
H33 C44 1_555 1_555
C45 C34 1_555 1_555
H34 C45 1_555 1_555
C46 C35 1_555 1_555
H35 C46 1_555 1_555
C47 C36 1_555 1_555
H36 C47 1_555 1_555
C48 C37 1_555 1_555
H37 C48 1_555 1_555
C49 C38 1_555 1_555
H38 C49 1_555 1_555
C50 C39 1_555 1_555
H39 C50 1_555 1_555
C51 C40 1_555 1_555
H40 C51 1_555 1_555
C52 C41 1_555 1_555
H41 C52 1_555 1_555
C53 C42 1_555 1_555
H42 C53 1_555 1_555
C54 C43 1_555 1_555
H43 C54 1_555 1_555
C55 C44 1_555 1_555
H44 C55 1_555 1_555
C56 C45 1_555 1_555
C57 C46 1_555 1_555
C58 C47 1_555 1_555
C59 C48 1_555 1_555
C60 C49 1_555 1_555
C61 C50 1_555 1_555
C62 C51 1_555 1_555
C63 C52 1_555 1_555
C64 C53 1_555 1_555
C65 C54 1_555 1_555
C66 C55 1_555 1_555
C67 C56 1_555 1_555
H45 C67 1_555 1_555
C68 C57 1_555 1_555
H46 C68 1_555 1_555
C69 C58 1_555 1_555
H47 C69 1_555 1_555
C70 C59 1_555 1_555
H48 C70 1_555 1_555
C71 C60 1_555 1_555
H49 C71 1_555 1_555
C72 C61 1_555 1_555
H50 C72 1_555 1_555
C73 C62 1_555 1_555
H51 C73 1_555 1_555
C74 C63 1_555 1_555
H52 C74 1_555 1_555
C75 C64 1_555 1_555
H53 C75 1_555 1_555
C76 C65 1_555 1_555
H54 C76 1_555 1_555
C77 C66 1_555 1_555
H55 C77 1_555 1_555
C78 C23 1_555 1_555
H56 C78 1_555 1_555
C79 C24 1_555 1_555
H57 C79 1_555 1_555
C80 C25 1_555 1_555
H58 C80 1_555 1_555
C81 C26 1_555 1_555
H59 C81 1_555 1_555
C82 C27 1_555 1_555
H60 C82 1_555 1_555
C83 C28 1_555 1_555
H61 C83 1_555 1_555
C84 C29 1_555 1_555
H62 C84 1_555 1_555
C85 C30 1_555 1_555
H63 C85 1_555 1_555
C86 C31 1_555 1_555
H64 C86 1_555 1_555
C87 C32 1_555 1_555
H65 C87 1_555 1_555
C88 C33 1_555 1_555
H66 C88 1_555 1_555
C89 H67 1_555 1_555
H68 C89 1_555 1_555
H69 C89 1_555 1_555
C90 H70 1_555 1_555
H71 C90 1_555 1_555
H72 C90 1_555 1_555
C91 H73 1_555 1_555
H74 C91 1_555 1_555
H75 C91 1_555 1_555
C92 H76 1_555 1_555
H77 C92 1_555 1_555
H78 C92 1_555 1_555
C93 H79 1_555 1_555
H80 C93 1_555 1_555
H81 C93 1_555 1_555
C94 H82 1_555 1_555
H83 C94 1_555 1_555
H84 C94 1_555 1_555
C95 H85 1_555 1_555
H86 C95 1_555 1_555
H87 C95 1_555 1_555
C96 H88 1_555 1_555
H89 C96 1_555 1_555
H90 C96 1_555 1_555
C97 H91 1_555 1_555
H92 C97 1_555 1_555
H93 C97 1_555 1_555
O1 C1 1_555 1_555
O2 C2 1_555 1_555
O3 C3 1_555 1_555
O4 Sm3 1_555 1_555
O5 C5 1_555 1_555
O6 Sm1 1_555 1_555
O7 Sm1 1_555 1_555
O8 Sm1 1_555 1_555
O9 Sm2 1_555 1_555
O10 Sm3 1_555 1_555
O11 Sm3 1_555 1_555
O12 Sm4 1_555 1_555
O13 Sm1 1_555 1_555
O14 Sm1 1_555 1_555
O15 Sm2 1_555 1_555
O16 Sm2 1_555 1_555
O17 Sm3 1_555 1_555
O18 Sm1 1_555 1_555
O19 Sm1 1_555 1_555
O20 Sm2 1_555 1_555
O21 Sm3 1_555 1_555
O22 Sm3 1_555 1_555
O23 Sm4 1_555 1_555
O24 C56 1_555 1_555
O25 C57 1_555 1_555
O26 C58 1_555 1_555
O27 C59 1_555 1_555
O28 C60 1_555 1_555
O29 C61 1_555 1_555
O30 C62 1_555 1_555
O31 C63 1_555 1_555
O32 C104 1_555 1_555
O33 C64 1_555 1_555
O34 C65 1_555 1_555
O35 C66 1_555 1_555
O36 C1 1_555 1_555
O37 Sm4 1_555 1_555
O38 Sm2 1_555 1_555
C98 O33 1_555 1_555
H94 C98 1_555 1_555
H95 C98 1_555 1_555
H96 C98 1_555 1_555
C99 O9 1_555 1_555
C100 C99 1_555 1_555
H97 C100 1_555 1_555
H98 C100 1_555 1_555
C101 C100 1_555 1_555
C102 C101 1_555 1_555
H99 C102 1_555 1_555
C103 C102 1_555 1_555
H100 C103 1_555 1_555
C104 C103 1_555 1_555
C105 C104 1_555 1_555
H101 C105 1_555 1_555
C106 C101 1_555 1_555
H102 C106 1_555 1_555
C107 O35 1_555 1_555
H103 C107 1_555 1_555
H104 C107 1_555 1_555
H105 C107 1_555 1_555
C108 O32 1_555 1_555
H106 C108 1_555 1_555
H107 C108 1_555 1_555
H108 C108 1_555 1_555
Sm1_2 O12 1_555 1_555
Sm4_2 O6 1_555 1_555
O6_2 Sm4 1_555 1_555
O12_2 Sm1 1_555 1_555
O36_2 Sm4 1_555 1_555
Sm2 O7 1_555 1_555
Sm2 O8 1_555 1_555
Sm2 O14 1_555 1_555
Sm3 O9 1_555 1_555
Sm3 O15 1_555 1_555
Sm4 O10 1_555 1_555
Sm4 O11 1_555 1_555
Sm4 O17 1_555 1_555
C2 O14 1_555 1_555
C3 O15 1_555 1_555
C4 O4 1_555 1_555
C4 O16 1_555 1_555
C5 O17 1_555 1_555
C6 O6 1_555 1_555
C6 O13 1_555 1_555
C7 O7 1_555 1_555
C7 O18 1_555 1_555
C8 O8 1_555 1_555
C8 O19 1_555 1_555
C9 O10 1_555 1_555
C9 O21 1_555 1_555
C10 O11 1_555 1_555
C10 O22 1_555 1_555
C11 O12 1_555 1_555
C11 O23 1_555 1_555
C67 C78 1_555 1_555
C68 C79 1_555 1_555
C69 C80 1_555 1_555
C70 C81 1_555 1_555
C71 C82 1_555 1_555
C72 C83 1_555 1_555
C73 C84 1_555 1_555
C74 C85 1_555 1_555
C75 C86 1_555 1_555
C76 C87 1_555 1_555
C77 C88 1_555 1_555
C89 O24 1_555 1_555
C90 O25 1_555 1_555
C91 O26 1_555 1_555
C92 O27 1_555 1_555
C93 O28 1_555 1_555
C94 O29 1_555 1_555
C95 O30 1_555 1_555
C96 O31 1_555 1_555
C97 O34 1_555 1_555
O20 C99 1_555 1_555
O36 Sm4_2 1_555 1_555
C105 C106 1_555 1_555
Sm1_2 O6_2 1_555 1_555
Sm4_2 O12_2 1_555 1_555

#END
