
#######################################################################
#
#                 Cambridge Crystallographic Data Centre
#                                CCDC 
#
#######################################################################
#
# If this CIF has been generated from an entry in the Cambridge 
# Structural Database, then it will include bibliographic, chemical, 
# crystal, experimental, refinement or atomic coordinate data resulting 
# from the CCDC's data processing and validation procedures.
#
#######################################################################

data_MOHKOK
_symmetry_cell_setting           triclinic
_symmetry_space_group_name_H-M   'P -1'
_symmetry_Int_Tables_number      2
_space_group_name_Hall           '-P 1'
loop_
_symmetry_equiv_pos_site_id
_symmetry_equiv_pos_as_xyz
1 x,y,z
2 -x,-y,-z
_cell_length_a                   10.142(2)
_cell_length_b                   14.930(4)
_cell_length_c                   15.4664(16)
_cell_angle_alpha                114.061(2)
_cell_angle_beta                 106.5910(10)
_cell_angle_gamma                94.815(3)
_cell_volume                     1994.97
loop_
_atom_site_label
_atom_site_type_symbol
_atom_site_fract_x
_atom_site_fract_y
_atom_site_fract_z
C1 C 1.2204(11) -0.0129(7) -0.0041(7)
C2 C 1.3593(5) -0.0002(4) 0.0022(3)
C3 C 1.4791(5) 0.0426(3) 0.0919(3)
C4 C 1.3862(5) -0.0449(3) -0.0940(3)
H1 H 1.3113 -0.0744 -0.1555
C5 C 1.4474(6) 0.0936(4) 0.1869(3)
C6 C 0.7980(4) 0.2626(3) -0.4645(3)
C7 C 0.9493(4) 0.3179(3) -0.4013(3)
C8 C 1.0504(4) 0.2974(3) -0.4525(3)
H2 H 1.0191 0.2566 -0.5219
C9 C 1.1905(4) 0.3373(3) -0.4000(3)
H3 H 1.2549 0.3223 -0.4333
C10 C 1.2388(4) 0.4013(3) -0.2955(3)
C11 C 1.1410(4) 0.4205(3) -0.2464(3)
H4 H 1.1725 0.4626 -0.1772
C12 C 0.9946(4) 0.3773(3) -0.2997(3)
C13 C 0.9038(4) 0.4034(3) -0.2378(3)
C14 C 1.3953(4) 0.4373(3) -0.2358(3)
C15 C 0.5401(4) 0.8596(3) 0.4709(3)
H5 H 0.4567 0.8201 0.4175
C16 C 0.7092(4) 0.9242(3) 0.6136(3)
H6 H 0.7671 0.9378 0.6783
C17 C 0.7356(5) 0.9697(3) 0.5569(3)
H7 H 0.8127 1.0210 0.5765
C18 C 0.6098(4) 0.9540(3) 0.3839(3)
H8 H 0.6288 1.0268 0.4115
H9 H 0.5123 0.9272 0.3383
C19 C 0.7059(5) 0.9147(3) 0.3252(3)
C20 C 0.8073(5) 0.9805(4) 0.3223(3)
H10 H 0.8205 1.0497 0.3593
C21 C 0.8898(5) 0.9420(4) 0.2634(4)
H11 H 0.9621 0.9853 0.2643
C22 C 0.8647(4) 0.8437(3) 0.2064(3)
C23 C 0.7602(5) 0.7762(3) 0.2033(4)
H12 H 0.7447 0.7077 0.1614
C24 C 0.6791(5) 0.8099(3) 0.2619(4)
H13 H 0.6080 0.7650 0.2602
C25 C 0.9552(5) 0.8003(4) 0.1384(3)
H14 H 1.0113 0.8551 0.1367
H15 H 1.0193 0.7668 0.1670
C26 C 0.7667(4) 0.7528(3) -0.0286(3)
H16 H 0.7500 0.8162 -0.0176
C27 C 0.7016(5) 0.6662(4) -0.1101(3)
H17 H 0.6329 0.6594 -0.1684
C28 C 0.8511(4) 0.6323(3) -0.0064(3)
H18 H 0.9058 0.5975 0.0220
C29 C 1.4688(4) 0.4113(3) 0.3768(3)
H19 H 1.5533 0.4286 0.3690
C30 C 1.3038(4) 0.3272(3) 0.3934(3)
H20 H 1.2492 0.2774 0.3983
C31 C 1.3727(5) 0.4653(3) 0.3809(3)
H21 H 1.3760 0.5257 0.3764
C32 C 1.1314(4) 0.4401(3) 0.4059(2)
H22 H 1.1416 0.5122 0.4294
H23 H 1.1155 0.4243 0.4576
C33 C 1.0062(4) 0.3866(3) 0.3116(3)
C34 C 0.8738(5) 0.3603(4) 0.3193(3)
H24 H 0.8667 0.3687 0.3806
C35 C 0.7529(5) 0.3206(4) 0.2299(3)
H25 H 0.6648 0.3036 0.2334
C36 C 0.7614(4) 0.3067(3) 0.1395(3)
C37 C 0.8935(4) 0.3321(3) 0.1309(3)
H26 H 0.8995 0.3238 0.0693
C38 C 1.0105(4) 0.3690(3) 0.2153(3)
H27 H 1.0979 0.3834 0.2098
C39 C 0.6214(4) 0.2674(3) 0.0512(3)
H28 H 0.5534 0.3049 0.0723
H29 H 0.5847 0.1971 0.0314
C40 C 0.6819(4) 0.2100(3) -0.1080(3)
H30 H 0.6959 0.1468 -0.1155
H31 H 0.7299 0.2310 -0.2229
C41 C 0.6999(4) 0.2575(3) -0.1688(3)
C42 C 0.6348(5) 0.3579(3) -0.0532(3)
H32 H 0.6104 0.4151 -0.0132
N1 N 1.4290(3) 0.3265(2) 0.3856(2)
N2 N 1.2661(4) 0.4133(3) 0.3932(2)
N3 N 0.6397(3) 0.2774(3) -0.0369(2)
N4 N 0.6676(4) 0.3481(3) -0.1300(2)
N5 N 0.5813(3) 0.8545(2) 0.5574(2)
N6 N 0.6288(4) 0.9260(2) 0.4683(3)
N7 N 0.8642(4) 0.7294(3) 0.0364(2)
N8 N 0.7481(4) 0.5898(3) -0.0969(3)
O1 O 1.1594(7) -0.0567(4) 0.0315(5)
O2 O 1.1343(8) 0.0148(6) -0.0601(5)
H33 H 1.0462 0.0114 -0.0488
O3 O 1.3214(4) 0.0983(3) 0.1880(2)
O4 O 1.5529(3) 0.1340(2) 0.2702(2)
O5 O 0.7276(3) 0.2991(2) -0.5201(2)
O6 O 0.7565(3) 0.1865(2) -0.4630(2)
O7 O 0.7719(3) 0.3931(2) -0.2897(2)
O8 O 0.9493(3) 0.4330(2) -0.1467(2)
O9 O 1.4781(3) 0.4184(2) -0.2846(2)
O10 O 1.4323(3) 0.4860(3) -0.1406(2)
Zn1 Zn 0.67232(5) 0.44311(4) -0.19128(3)
Zn2 Zn 1.53389(5) 0.22022(3) 0.39564(3)
C1A C 1.7796(11) 0.0129(7) 0.0041(7)
C2A C 1.6407(5) 0.0002(4) -0.0022(3)
C3A C 1.5209(5) -0.0426(3) -0.0919(3)
C4A C 1.6138(5) 0.0449(3) 0.0940(3)
H1A H 1.6887 0.0744 0.1555
C5A C 1.5526(6) -0.0936(4) -0.1869(3)
C6_2 C -0.2020(4) 0.2626(3) -0.4645(3)
C7_2 C -0.0507(4) 0.3179(3) -0.4013(3)
C8_2 C 0.0504(4) 0.2974(3) -0.4525(3)
H2_2 H 0.0191 0.2566 -0.5219
C9_2 C 0.1905(4) 0.3373(3) -0.4000(3)
H3_2 H 0.2549 0.3223 -0.4333
C10_2 C 0.2388(4) 0.4013(3) -0.2955(3)
C11_2 C 0.1410(4) 0.4205(3) -0.2464(3)
H4_2 H 0.1725 0.4626 -0.1772
C12_2 C -0.0054(4) 0.3773(3) -0.2997(3)
C13_2 C -0.0962(4) 0.4034(3) -0.2378(3)
C14_2 C 0.3953(4) 0.4373(3) -0.2358(3)
C15A C 1.4599(4) 0.1404(3) 0.5291(3)
H5A H 1.5433 0.1799 0.5825
C16A C 1.2908(4) 0.0758(3) 0.3864(3)
H6A H 1.2329 0.0622 0.3217
C17A C 1.2644(5) 0.0303(3) 0.4431(3)
H7A H 1.1873 -0.0210 0.4235
C18A C 1.3902(4) 0.0460(3) 0.6161(3)
H8A H 1.3712 -0.0268 0.5885
H9A H 1.4877 0.0728 0.6617
C19A C 1.2941(5) 0.0853(3) 0.6748(3)
C20A C 1.1927(5) 0.0195(4) 0.6777(3)
H10A H 1.1795 -0.0497 0.6407
C21A C 1.1102(5) 0.0580(4) 0.7366(4)
H11A H 1.0379 0.0147 0.7357
C22A C 1.1353(4) 0.1563(3) 0.7936(3)
C23A C 1.2398(5) 0.2238(3) 0.7967(4)
H12A H 1.2553 0.2923 0.8386
C24A C 1.3209(5) 0.1901(3) 0.7381(4)
H13A H 1.3920 0.2350 0.7398
C25A C 1.0448(5) 0.1997(4) 0.8616(3)
H14A H 0.9887 0.1449 0.8633
H15A H 0.9807 0.2332 0.8330
C26A C 1.2333(4) 0.2472(3) 1.0286(3)
H16A H 1.2500 0.1838 1.0176
C27A C 1.2984(5) 0.3338(4) 1.1101(3)
H17A H 1.3671 0.3406 1.1684
C28A C 1.1489(4) 0.3677(3) 1.0064(3)
H18A H 1.0942 0.4025 0.9780
C29_2 C 0.4688(4) 0.4113(3) 0.3768(3)
H19_2 H 0.5533 0.4286 0.3690
C30_2 C 0.3038(4) 0.3272(3) 0.3934(3)
H20_2 H 0.2492 0.2774 0.3983
C31_2 C 0.3727(5) 0.4653(3) 0.3809(3)
H21_2 H 0.3760 0.5257 0.3764
C32_2 C 0.1314(4) 0.4401(3) 0.4059(2)
H22_2 H 0.1416 0.5122 0.4294
H23_2 H 0.1155 0.4243 0.4576
C33_2 C 0.0062(4) 0.3866(3) 0.3116(3)
C34_2 C -0.1262(5) 0.3603(4) 0.3193(3)
H24_2 H -0.1333 0.3687 0.3806
C35_2 C -0.2471(5) 0.3206(4) 0.2299(3)
H25_2 H -0.3352 0.3036 0.2334
C36_2 C -0.2386(4) 0.3067(3) 0.1395(3)
C37_2 C -0.1065(4) 0.3321(3) 0.1309(3)
H26_2 H -0.1005 0.3238 0.0693
C38_2 C 0.0105(4) 0.3690(3) 0.2153(3)
H27_2 H 0.0979 0.3834 0.2098
C39_2 C -0.3786(4) 0.2674(3) 0.0512(3)
H28_2 H -0.4466 0.3049 0.0723
H29_2 H -0.4153 0.1971 0.0314
C40_2 C -0.3181(4) 0.2100(3) -0.1080(3)
H30_2 H -0.3041 0.1468 -0.1155
H31_2 H -0.2701 0.2310 -0.2229
C41_2 C -0.3001(4) 0.2575(3) -0.1688(3)
C42_2 C -0.3652(5) 0.3579(3) -0.0532(3)
H32_2 H -0.3896 0.4151 -0.0132
N1_2 N 0.4290(3) 0.3265(2) 0.3856(2)
N1A N 0.5710(3) 0.6735(2) 0.6144(2)
N2_2 N 0.2661(4) 0.4133(3) 0.3932(2)
N3_2 N -0.3603(3) 0.2774(3) -0.0369(2)
N4_2 N -0.3324(4) 0.3481(3) -0.1300(2)
N5A N 1.4187(3) 0.1455(2) 0.4426(2)
N6A N 1.3712(4) 0.0740(2) 0.5317(3)
N7A N 1.1358(4) 0.2706(3) 0.9636(2)
N8A N 1.2519(4) 0.4102(3) 1.0969(3)
N8_2 N -0.2519(4) 0.5898(3) -0.0969(3)
O1A O 1.8406(7) 0.0567(4) -0.0315(5)
O2A O 1.8657(8) -0.0148(6) 0.0601(5)
H33A H 1.9538 -0.0114 0.0488
O3A O 1.6786(4) -0.0983(3) -0.1880(2)
O4A O 1.4471(3) -0.1340(2) -0.2702(2)
O4A_2 O 0.4471(3) 0.8660(2) 0.7298(2)
O5_2 O -0.2724(3) 0.2991(2) -0.5201(2)
O5_3 O 1.7276(3) 0.2991(2) 0.4799(2)
O5A O 0.2724(3) 0.7009(2) 0.5201(2)
O6_2 O -0.2435(3) 0.1865(2) -0.4630(2)
O7_2 O -0.2281(3) 0.3931(2) -0.2897(2)
O8_2 O -0.0507(3) 0.4330(2) -0.1467(2)
O9_2 O 0.4781(3) 0.4184(2) -0.2846(2)
O9_3 O -0.5219(3) 0.4184(2) -0.2846(2)
O10_2 O 0.4323(3) 0.4860(3) -0.1406(2)
Zn1_2 Zn -0.32768(5) 0.44311(4) -0.19128(3)
Zn1_3 Zn 1.67232(5) 0.44311(4) -0.19128(3)
Zn1A Zn 1.32768(5) 0.55689(4) 1.19128(3)
Zn2A Zn 0.46611(5) 0.77978(3) 0.60436(3)
Zn2_2 Zn 0.53389(5) 0.22022(3) -0.60436(3)
Zn2A_2 Zn 1.46611(5) -0.22022(3) -0.39564(3)
Zn2_3 Zn -0.46611(5) 0.22022(3) -0.60436(3)
Zn2_4 Zn 0.53389(5) 0.22022(3) 0.39564(3)
loop_
_geom_bond_atom_site_label_1
_geom_bond_atom_site_label_2
_geom_bond_site_symmetry_1
_geom_bond_site_symmetry_2
C1 C2 1_555 1_555
C2 C3 1_555 1_555
C3 C5 1_555 1_555
C4 C2 1_555 1_555
H1 C4 1_555 1_555
C5 O3 1_555 1_555
C6 C7 1_555 1_555
C7 C8 1_555 1_555
C8 H2 1_555 1_555
C9 C8 1_555 1_555
H3 C9 1_555 1_555
C10 C9 1_555 1_555
C11 C10 1_555 1_555
H4 C11 1_555 1_555
C12 C7 1_555 1_555
C13 C12 1_555 1_555
C14 C10 1_555 1_555
C15 H5 1_555 1_555
C16 H6 1_555 1_555
C17 C16 1_555 1_555
H7 C17 1_555 1_555
C18 H8 1_555 1_555
H9 C18 1_555 1_555
C19 C18 1_555 1_555
C20 C19 1_555 1_555
H10 C20 1_555 1_555
C21 C20 1_555 1_555
H11 C21 1_555 1_555
C22 C21 1_555 1_555
C23 C22 1_555 1_555
H12 C23 1_555 1_555
C24 C19 1_555 1_555
H13 C24 1_555 1_555
C25 C22 1_555 1_555
H14 C25 1_555 1_555
H15 C25 1_555 1_555
C26 H16 1_555 1_555
C27 C26 1_555 1_555
H17 C27 1_555 1_555
C28 H18 1_555 1_555
C29 H19 1_555 1_555
C30 H20 1_555 1_555
C31 C29 1_555 1_555
H21 C31 1_555 1_555
C32 H22 1_555 1_555
H23 C32 1_555 1_555
C33 C32 1_555 1_555
C34 C33 1_555 1_555
H24 C34 1_555 1_555
C35 C34 1_555 1_555
H25 C35 1_555 1_555
C36 C35 1_555 1_555
C37 C36 1_555 1_555
H26 C37 1_555 1_555
C38 C33 1_555 1_555
H27 C38 1_555 1_555
C39 C36 1_555 1_555
H28 C39 1_555 1_555
H29 C39 1_555 1_555
C40 H30 1_555 1_555
H31 C41 1_555 1_555
C41 C40 1_555 1_555
C42 H32 1_555 1_555
N1 C29 1_555 1_555
N2 C30 1_555 1_555
N3 C39 1_555 1_555
N4 C41 1_555 1_555
N5 C15 1_555 1_555
N6 C15 1_555 1_555
N7 C25 1_555 1_555
N8 C27 1_555 1_555
O1 C1 1_555 1_555
O2 C1 1_555 1_555
H33 O2 1_555 1_555
O4 C5 1_555 1_555
O5 C6 1_555 1_555
O6 C6 1_555 1_555
O7 C13 1_555 1_555
O8 C13 1_555 1_555
O9 C14 1_555 1_555
O10 C14 1_555 1_555
Zn1 N4 1_555 1_555
Zn2 N1 1_555 1_555
C1A C2A 1_555 1_555
C2A C3A 1_555 1_555
C3A C4 1_555 1_555
C4A C3 1_555 1_555
H1A C4A 1_555 1_555
C5A C3A 1_555 1_555
C6_2 C7_2 1_555 1_555
C7_2 C8_2 1_555 1_555
C8_2 H2_2 1_555 1_555
C9_2 C8_2 1_555 1_555
H3_2 C9_2 1_555 1_555
C10_2 C9_2 1_555 1_555
C11_2 C10_2 1_555 1_555
H4_2 C11_2 1_555 1_555
C12_2 C7_2 1_555 1_555
C13_2 C12_2 1_555 1_555
C14_2 C10_2 1_555 1_555
C15A H5A 1_555 1_555
C16A H6A 1_555 1_555
C17A C16A 1_555 1_555
H7A C17A 1_555 1_555
C18A H8A 1_555 1_555
H9A C18A 1_555 1_555
C19A C18A 1_555 1_555
C20A C19A 1_555 1_555
H10A C20A 1_555 1_555
C21A C20A 1_555 1_555
H11A C21A 1_555 1_555
C22A C21A 1_555 1_555
C23A C22A 1_555 1_555
H12A C23A 1_555 1_555
C24A C19A 1_555 1_555
H13A C24A 1_555 1_555
C25A C22A 1_555 1_555
H14A C25A 1_555 1_555
H15A C25A 1_555 1_555
C26A H16A 1_555 1_555
C27A C26A 1_555 1_555
H17A C27A 1_555 1_555
C28A H18A 1_555 1_555
C29_2 H19_2 1_555 1_555
C30_2 H20_2 1_555 1_555
C31_2 C29_2 1_555 1_555
H21_2 C31_2 1_555 1_555
C32_2 H22_2 1_555 1_555
H23_2 C32_2 1_555 1_555
C33_2 C32_2 1_555 1_555
C34_2 C33_2 1_555 1_555
H24_2 C34_2 1_555 1_555
C35_2 C34_2 1_555 1_555
H25_2 C35_2 1_555 1_555
C36_2 C35_2 1_555 1_555
C37_2 C36_2 1_555 1_555
H26_2 C37_2 1_555 1_555
C38_2 C33_2 1_555 1_555
H27_2 C38_2 1_555 1_555
C39_2 C36_2 1_555 1_555
H28_2 C39_2 1_555 1_555
H29_2 C39_2 1_555 1_555
C40_2 H30_2 1_555 1_555
H31_2 C41_2 1_555 1_555
C41_2 C40_2 1_555 1_555
C42_2 H32_2 1_555 1_555
N1_2 C29_2 1_555 1_555
N1A Zn2A 1_555 1_555
N2_2 C30_2 1_555 1_555
N3_2 C39_2 1_555 1_555
N4_2 C41_2 1_555 1_555
N5A Zn2 1_555 1_555
N6A C15A 1_555 1_555
N7A C25A 1_555 1_555
N8A C27A 1_555 1_555
N8_2 Zn1_2 1_555 1_555
O1A C1A 1_555 1_555
O2A C1A 1_555 1_555
H33A O2A 1_555 1_555
O3A C5A 1_555 1_555
O4A C5A 1_555 1_555
O4A_2 Zn2A 1_555 1_555
O5_2 C6_2 1_555 1_555
O5_3 Zn2 1_555 1_555
O5A Zn2A 1_555 1_555
O6_2 C6_2 1_555 1_555
O7_2 C13_2 1_555 1_555
O8_2 C13_2 1_555 1_555
O9_2 Zn1 1_555 1_555
O9_3 Zn1_2 1_555 1_555
O10_2 C14_2 1_555 1_555
Zn1_2 N4_2 1_555 1_555
Zn1_3 O9 1_555 1_555
Zn1A N8A 1_555 1_555
Zn2A N5 1_555 1_555
Zn2_2 O5 1_555 1_555
Zn2A_2 O4A 1_555 1_555
Zn2_3 O5_2 1_555 1_555
Zn2_4 N1_2 1_555 1_555
C11 C12 1_555 1_555
C16 N5 1_555 1_555
C17 N6 1_555 1_555
C18 N6 1_555 1_555
C23 C24 1_555 1_555
C26 N7 1_555 1_555
C28 N7 1_555 1_555
C28 N8 1_555 1_555
C30 N1 1_555 1_555
C31 N2 1_555 1_555
C32 N2 1_555 1_555
C37 C38 1_555 1_555
C40 N3 1_555 1_555
C42 N3 1_555 1_555
C42 N4 1_555 1_555
N8 Zn1 1_555 1_555
O4 Zn2 1_555 1_555
O7 Zn1 1_555 1_555
C2A C4A 1_555 1_555
C11_2 C12_2 1_555 1_555
C14_2 O9_2 1_555 1_555
C15A N5A 1_555 1_555
C16A N5A 1_555 1_555
C17A N6A 1_555 1_555
C18A N6A 1_555 1_555
C23A C24A 1_555 1_555
C26A N7A 1_555 1_555
C28A N7A 1_555 1_555
C28A N8A 1_555 1_555
C30_2 N1_2 1_555 1_555
C31_2 N2_2 1_555 1_555
C32_2 N2_2 1_555 1_555
C37_2 C38_2 1_555 1_555
C40_2 N3_2 1_555 1_555
C42_2 N3_2 1_555 1_555
C42_2 N4_2 1_555 1_555
O7_2 Zn1_2 1_555 1_555

#END
