
#######################################################################
#
#                 Cambridge Crystallographic Data Centre
#                                CCDC 
#
#######################################################################
#
# If this CIF has been generated from an entry in the Cambridge 
# Structural Database, then it will include bibliographic, chemical, 
# crystal, experimental, refinement or atomic coordinate data resulting 
# from the CCDC's data processing and validation procedures.
#
#######################################################################

data_MOHKIE
_symmetry_cell_setting           monoclinic
_symmetry_space_group_name_H-M   'C 2/c'
_symmetry_Int_Tables_number      15
_space_group_name_Hall           '-C 2yn'
loop_
_symmetry_equiv_pos_site_id
_symmetry_equiv_pos_as_xyz
1 x,y,z
2 1/2+x,1/2+y,z
3 -x,y,1/2-z
4 1/2-x,1/2+y,1/2-z
5 -x,-y,-z
6 1/2-x,1/2-y,-z
7 x,-y,1/2+z
8 1/2+x,1/2-y,1/2+z
_cell_length_a                   21.909(6)
_cell_length_b                   9.982(3)
_cell_length_c                   20.680(6)
_cell_angle_alpha                90
_cell_angle_beta                 110.377(5)
_cell_angle_gamma                90
_cell_volume                     4239.61
loop_
_atom_site_label
_atom_site_type_symbol
_atom_site_fract_x
_atom_site_fract_y
_atom_site_fract_z
C1 C 0.3981(3) 0.8579(6) 0.3535(3)
H1 H 0.4400 0.8381 0.3550
C2 C 0.3595(3) 0.9399(6) 0.3028(3)
H2 H 0.3761 0.9757 0.2709
C3 C 0.2972(3) 0.9711(6) 0.2974(3)
C4 C 0.2753(3) 0.9191(7) 0.3470(4)
H3 H 0.2337 0.9402 0.3460
C5 C 0.3143(3) 0.8361(7) 0.3982(4)
H4 H 0.2982 0.8010 0.4307
C6 C 0.3757(3) 0.8047(6) 0.4018(3)
C7 C 0.2553(3) 1.0614(6) 0.2411(3)
H5 H 0.2619 1.1534 0.2572
H6 H 0.2690 1.0544 0.2014
C8 C 0.1532(3) 0.9343(6) 0.1739(3)
H7 H 0.1701 0.8800 0.1476
C9 C 0.0914(3) 0.9338(5) 0.1739(3)
H8 H 0.0580 0.8782 0.1472
C10 C 0.1439(3) 1.0822(5) 0.2459(3)
H9 H 0.1544 1.1494 0.2792
C11 C 0.4141(3) 0.7054(6) 0.4546(3)
H10 H 0.3985 0.7072 0.4931
H11 H 0.4058 0.6166 0.4344
C12 C 0.5172(3) 0.8280(5) 0.5235(3)
H12 H 0.4993 0.8926 0.5440
C13 C 0.5283(3) 0.6574(5) 0.4641(3)
H13 H 0.5184 0.5826 0.4356
C14 C 0.5800(3) 0.8160(6) 0.5303(3)
H14 H 0.6133 0.8723 0.5561
C15 C 0.0912(3) 1.3149(5) 0.3491(3)
C16 C 0.0957(2) 1.4633(5) 0.3640(3)
C17 C 0.1540(2) 1.5233(5) 0.4032(3)
C18 C 0.1569(2) 1.6624(5) 0.4084(3)
H15 H 0.1959 1.7031 0.4344
C19 C 0.1029(2) 1.7417(5) 0.3756(3)
C20 C 0.0451(3) 1.6811(5) 0.3385(3)
H16 H 0.0083 1.7328 0.3167
C21 C 0.0418(3) 1.5423(5) 0.3334(3)
H17 H 0.0022 1.5018 0.3089
C22 C 0.1062(3) 1.8931(5) 0.3847(3)
C23 C 0.2146(2) 1.4478(5) 0.4439(3)
Cd1 Cd 0.0000 1.08238(5) 0.2500
Cd2 Cd 0.673094(18) 0.64399(4) 0.46653(2)
N1 N 0.1859(2) 1.0297(4) 0.2197(2)
N2 N 0.0861(2) 1.0281(4) 0.2193(2)
N3 N 0.5872(2) 0.7062(4) 0.4927(2)
N4 N 0.4846(2) 0.7280(4) 0.4810(2)
O1 O 0.14414(17) 1.2514(3) 0.3659(2)
O2 O 0.03580(18) 1.2665(3) 0.3197(2)
O3 O 0.21464(17) 1.3799(3) 0.49498(19)
O4 O 0.26416(18) 1.4641(4) 0.4284(2)
O5 O 0.15943(18) 1.9383(3) 0.4238(2)
O6 O 0.05553(18) 1.9577(3) 0.3558(2)
C1B C -0.3981(3) 0.8579(6) 0.1465(3)
H1B H -0.4400 0.8381 0.1450
C2B C -0.3595(3) 0.9399(6) 0.1972(3)
H2B H -0.3761 0.9757 0.2291
C3B C -0.2972(3) 0.9711(6) 0.2026(3)
C4B C -0.2753(3) 0.9191(7) 0.1530(4)
H3B H -0.2337 0.9402 0.1540
C5B C -0.3143(3) 0.8361(7) 0.1018(4)
H4B H -0.2982 0.8010 0.0693
C6B C -0.3757(3) 0.8047(6) 0.0982(3)
C7B C -0.2553(3) 1.0614(6) 0.2589(3)
H5B H -0.2619 1.1534 0.2428
H6B H -0.2690 1.0544 0.2986
C8B C -0.1532(3) 0.9343(6) 0.3261(3)
H7B H -0.1701 0.8800 0.3524
C9B C -0.0914(3) 0.9338(5) 0.3261(3)
H8B H -0.0580 0.8782 0.3528
C10B C -0.1439(3) 1.0822(5) 0.2541(3)
H9B H -0.1544 1.1494 0.2208
C11B C -0.4141(3) 0.7054(6) 0.0454(3)
H10B H -0.3985 0.7072 0.0069
H11B H -0.4058 0.6166 0.0656
C12B C -0.5172(3) 0.8280(5) -0.0235(3)
H12B H -0.4993 0.8926 -0.0440
C13B C -0.5283(3) 0.6574(5) 0.0359(3)
H13B H -0.5184 0.5826 0.0644
C14B C -0.5800(3) 0.8160(6) -0.0303(3)
H14B H -0.6133 0.8723 -0.0561
C15B C -0.0912(3) 1.3149(5) 0.1509(3)
C16B C -0.0957(2) 1.4633(5) 0.1360(3)
C17B C -0.1540(2) 1.5233(5) 0.0968(3)
C18B C -0.1569(2) 1.6624(5) 0.0916(3)
H15B H -0.1959 1.7031 0.0656
C19B C -0.1029(2) 1.7417(5) 0.1244(3)
C20B C -0.0451(3) 1.6811(5) 0.1615(3)
H16B H -0.0083 1.7328 0.1833
C21B C -0.0418(3) 1.5423(5) 0.1666(3)
H17B H -0.0022 1.5018 0.1911
C22B C -0.1062(3) 1.8931(5) 0.1153(3)
C23B C -0.2146(2) 1.4478(5) 0.0561(3)
Cd1_2 Cd 0.0000 2.08238(5) 0.2500
Cd2B Cd -0.673094(18) 0.64399(4) 0.03347(2)
Cd2A Cd 0.173094(18) 1.14399(4) 0.46653(2)
Cd2D Cd 0.326906(18) 1.35601(4) 0.53347(2)
Cd2A_2 Cd 0.173094(18) 2.14399(4) 0.46653(2)
Cd2C Cd -0.173094(18) 1.14399(4) 0.03347(2)
Cd2F Cd -0.326906(18) 1.35601(4) -0.03347(2)
Cd2C_2 Cd -0.173094(18) 2.14399(4) 0.03347(2)
N1B N -0.1859(2) 1.0297(4) 0.2803(2)
N2B N -0.0861(2) 1.0281(4) 0.2807(2)
N3B N -0.5872(2) 0.7062(4) 0.0073(2)
N4B N -0.4846(2) 0.7280(4) 0.0190(2)
O1B O -0.14414(17) 1.2514(3) 0.1341(2)
O1A O 0.64414(17) 0.7514(3) 0.3659(2)
O1C O -0.64414(17) 0.7514(3) 0.1341(2)
O2B O -0.03580(18) 1.2665(3) 0.1803(2)
O3B O -0.21464(17) 1.3799(3) 0.00502(19)
O3A O 0.71464(17) 0.8799(3) 0.49498(19)
O3D O 0.78536(17) 0.6201(3) 0.50502(19)
O3F O -0.78536(17) 0.6201(3) -0.00502(19)
O3C O -0.71464(17) 0.8799(3) 0.00502(19)
O4B O -0.26416(18) 1.4641(4) 0.0716(2)
O4D O 0.73584(18) 0.5359(4) 0.5716(2)
O4F O -0.73584(18) 0.5359(4) -0.0716(2)
O5B O -0.15943(18) 1.9383(3) 0.0762(2)
O5A O 0.65943(18) 0.4383(3) 0.4238(2)
O5C O -0.65943(18) 0.4383(3) 0.0762(2)
O6B O -0.05553(18) 1.9577(3) 0.1442(2)
O6_2 O 0.05553(18) 0.9577(3) 0.3558(2)
O6B_2 O -0.05553(18) 0.9577(3) 0.1442(2)
loop_
_geom_bond_atom_site_label_1
_geom_bond_atom_site_label_2
_geom_bond_site_symmetry_1
_geom_bond_site_symmetry_2
C1 H1 1_555 1_555
C2 C1 1_555 1_555
H2 C2 1_555 1_555
C3 C2 1_555 1_555
C4 C3 1_555 1_555
H3 C4 1_555 1_555
C5 C4 1_555 1_555
H4 C5 1_555 1_555
C6 C1 1_555 1_555
C7 C3 1_555 1_555
H5 C7 1_555 1_555
H6 C7 1_555 1_555
C8 H7 1_555 1_555
C9 C8 1_555 1_555
H8 C9 1_555 1_555
C10 H9 1_555 1_555
C11 C6 1_555 1_555
H10 C11 1_555 1_555
H11 C11 1_555 1_555
C12 H12 1_555 1_555
C13 H13 1_555 1_555
C14 C12 1_555 1_555
H14 C14 1_555 1_555
C15 C16 1_555 1_555
C16 C17 1_555 1_555
C17 C18 1_555 1_555
C18 H15 1_555 1_555
C19 C18 1_555 1_555
C20 C19 1_555 1_555
H16 C20 1_555 1_555
C21 C16 1_555 1_555
H17 C21 1_555 1_555
C22 C19 1_555 1_555
C23 C17 1_555 1_555
Cd1 N2 1_555 1_555
Cd2 N3 1_555 1_555
N1 C7 1_555 1_555
N2 C9 1_555 1_555
N3 C13 1_555 1_555
N4 C11 1_555 1_555
O1 C15 1_555 1_555
O2 C15 1_555 1_555
O3 C23 1_555 1_555
O4 C23 1_555 1_555
O5 C22 1_555 1_555
O6 C22 1_555 1_555
C1B H1B 1_555 1_555
C2B C1B 1_555 1_555
H2B C2B 1_555 1_555
C3B C2B 1_555 1_555
C4B C3B 1_555 1_555
H3B C4B 1_555 1_555
C5B C4B 1_555 1_555
H4B C5B 1_555 1_555
C6B C1B 1_555 1_555
C7B C3B 1_555 1_555
H5B C7B 1_555 1_555
H6B C7B 1_555 1_555
C8B H7B 1_555 1_555
C9B C8B 1_555 1_555
H8B C9B 1_555 1_555
C10B H9B 1_555 1_555
C11B C6B 1_555 1_555
H10B C11B 1_555 1_555
H11B C11B 1_555 1_555
C12B H12B 1_555 1_555
C13B H13B 1_555 1_555
C14B C12B 1_555 1_555
H14B C14B 1_555 1_555
C15B C16B 1_555 1_555
C16B C17B 1_555 1_555
C17B C18B 1_555 1_555
C18B H15B 1_555 1_555
C19B C18B 1_555 1_555
C20B C19B 1_555 1_555
H16B C20B 1_555 1_555
C21B C16B 1_555 1_555
H17B C21B 1_555 1_555
C22B C19B 1_555 1_555
C23B C17B 1_555 1_555
Cd1_2 O6 1_555 1_555
Cd2B N3B 1_555 1_555
Cd2A O1 1_555 1_555
Cd2D O3 1_555 1_555
Cd2A_2 O5 1_555 1_555
Cd2C O1B 1_555 1_555
Cd2F O3B 1_555 1_555
Cd2C_2 O5B 1_555 1_555
N1B C7B 1_555 1_555
N2B Cd1 1_555 1_555
N3B C13B 1_555 1_555
N4B C11B 1_555 1_555
O1B C15B 1_555 1_555
O1A Cd2 1_555 1_555
O1C Cd2B 1_555 1_555
O2B Cd1 1_555 1_555
O3B C23B 1_555 1_555
O3A Cd2 1_555 1_555
O3D Cd2 1_555 1_555
O3F Cd2B 1_555 1_555
O3C Cd2B 1_555 1_555
O4B C23B 1_555 1_555
O4D Cd2 1_555 1_555
O4F Cd2B 1_555 1_555
O5B C22B 1_555 1_555
O5A Cd2 1_555 1_555
O5C Cd2B 1_555 1_555
O6B C22B 1_555 1_555
O6_2 Cd1 1_555 1_555
O6B_2 Cd1 1_555 1_555
C5 C6 1_555 1_555
C8 N1 1_555 1_555
C10 N1 1_555 1_555
C10 N2 1_555 1_555
C12 N4 1_555 1_555
C13 N4 1_555 1_555
C14 N3 1_555 1_555
C20 C21 1_555 1_555
Cd1 O2 1_555 1_555
O3 Cd2A 1_555 1_555
O4 Cd2D 1_555 1_555
C5B C6B 1_555 1_555
C8B N1B 1_555 1_555
C9B N2B 1_555 1_555
C10B N1B 1_555 1_555
C10B N2B 1_555 1_555
C12B N4B 1_555 1_555
C13B N4B 1_555 1_555
C14B N3B 1_555 1_555
C15B O2B 1_555 1_555
C20B C21B 1_555 1_555
Cd1_2 O6B 1_555 1_555
Cd2C O3B 1_555 1_555
Cd2F O4B 1_555 1_555

#END
