
#######################################################################
#
#                 Cambridge Crystallographic Data Centre
#                                CCDC 
#
#######################################################################
#
# If this CIF has been generated from an entry in the Cambridge 
# Structural Database, then it will include bibliographic, chemical, 
# crystal, experimental, refinement or atomic coordinate data resulting 
# from the CCDC's data processing and validation procedures.
#
#######################################################################

data_MOHLUR
_symmetry_cell_setting           triclinic
_symmetry_space_group_name_H-M   'P -1'
_symmetry_Int_Tables_number      2
_space_group_name_Hall           '-P 1'
loop_
_symmetry_equiv_pos_site_id
_symmetry_equiv_pos_as_xyz
1 x,y,z
2 -x,-y,-z
_cell_length_a                   8.244(5)
_cell_length_b                   9.858(6)
_cell_length_c                   12.130(6)
_cell_angle_alpha                103.88(2)
_cell_angle_beta                 96.27(2)
_cell_angle_gamma                105.88(2)
_cell_volume                     904.207
loop_
_atom_site_label
_atom_site_type_symbol
_atom_site_fract_x
_atom_site_fract_y
_atom_site_fract_z
C1 C 0.5304(4) 0.5454(4) 0.9023(3)
H1 H 0.5512 0.5751 0.8367
C2 C 0.6124(4) 0.6402(4) 1.0123(3)
C3 C 0.4184(4) 0.4076(4) 0.8915(3)
H2 H 0.3630 0.3463 0.8184
C4 C 0.7348(4) 0.7909(4) 1.0260(3)
C5 C 1.1154(4) 0.8877(4) 1.1870(3)
H3 H 1.0173 0.8899 1.2177
C6 C 1.3025(4) 0.9056(4) 1.0777(3)
H4 H 1.3583 0.9233 1.0176
C7 C 1.3637(5) 0.8588(5) 1.1649(4)
H5 H 1.4666 0.8377 1.1757
C8 C 1.2454(5) 0.7955(5) 1.3362(3)
H6 H 1.1699 0.8310 1.3836
H7 H 1.3608 0.8334 1.3817
C9 C 1.1886(5) 0.6306(5) 1.3025(4)
H8 H 1.2631 0.5937 1.2550
H9 H 1.1930 0.5961 1.3709
C10 C 0.9672(5) 0.4344(5) 1.1658(3)
H10 H 1.0548 0.4241 1.1200
H11 H 0.8610 0.4156 1.1130
C11 C 0.9421(5) 0.3220(4) 1.2329(4)
H12 H 0.9293 0.2263 1.1813
H13 H 1.0431 0.3478 1.2922
C12 C 0.7605(4) 0.4215(4) 1.3664(3)
H14 H 0.8391 0.5147 1.3991
C13 C 0.6457(5) 0.1947(4) 1.2610(4)
H15 H 0.6285 0.1030 1.2096
C14 C 0.5336(5) 0.2358(4) 1.3237(4)
H16 H 0.4234 0.1765 1.3215
C15 C 0.7072(4) 0.7415(4) 1.4713(3)
C16 C 0.8597(4) 0.8747(4) 1.4863(3)
C17 C 1.0012(4) 0.9142(4) 1.5751(3)
H17 H 1.0023 0.8574 1.6261
C18 C 0.8589(4) 0.9619(4) 1.4120(3)
H18 H 0.7647 0.9375 1.3532
N1 N 1.1456(3) 0.9228(3) 1.0913(2)
N2 N 1.2425(4) 0.8490(3) 1.2343(3)
N3 N 0.6060(4) 0.3786(3) 1.3914(2)
N4 N 0.7899(4) 0.3136(3) 1.2875(3)
O1 O 0.8236(3) 0.8033(3) 0.9471(2)
O2 O 0.7481(3) 0.8934(3) 1.1130(2)
O3 O 1.0164(3) 0.5805(3) 1.2392(2)
O4 O 0.5815(3) 0.7119(3) 1.3948(2)
O5 O 0.7181(3) 0.6644(3) 1.5415(2)
Cu1 Cu 1.0000 1.0000 1.0000
Cu2 Cu 0.5000 0.5000 1.5000
C1A C 0.4696(4) 0.4546(4) 1.0977(3)
H1A H 0.4488 0.4249 1.1633
C2A C 0.3876(4) 0.3598(4) 0.9877(3)
C3A C 0.5816(4) 0.5924(4) 1.1085(3)
H2A H 0.6370 0.6537 1.1816
C4A C 0.2652(4) 0.2091(4) 0.9740(3)
C5A C 0.8846(4) 1.1123(4) 0.8130(3)
H3A H 0.9827 1.1101 0.7823
C6A C 0.6975(4) 1.0944(4) 0.9223(3)
H4A H 0.6417 1.0767 0.9824
C7A C 0.6363(5) 1.1412(5) 0.8351(4)
H5A H 0.5334 1.1623 0.8243
C8A C 0.7546(5) 1.2045(5) 0.6638(3)
H6A H 0.8301 1.1690 0.6164
H7A H 0.6392 1.1666 0.6183
C9A C 0.8114(5) 1.3694(5) 0.6975(4)
H8A H 0.7369 1.4063 0.7450
H9A H 0.8070 1.4039 0.6291
C10A C 1.0328(5) 1.5656(5) 0.8342(3)
H10A H 0.9452 1.5759 0.8800
H11A H 1.1390 1.5844 0.8870
C11A C 1.0579(5) 1.6780(4) 0.7671(4)
H12A H 1.0707 1.7737 0.8187
H13A H 0.9569 1.6522 0.7078
C12A C 1.2395(4) 1.5785(4) 0.6336(3)
H14A H 1.1609 1.4853 0.6009
C13A C 1.3543(5) 1.8053(4) 0.7390(4)
H15A H 1.3715 1.8970 0.7904
C14A C 1.4664(5) 1.7642(4) 0.6763(4)
H16A H 1.5766 1.8235 0.6785
C15A C 1.2928(4) 1.2585(4) 1.5287(3)
C16A C 1.1403(4) 1.1253(4) 1.5137(3)
C17A C 0.9988(4) 1.0858(4) 1.4249(3)
H17A H 0.9977 1.1426 1.3739
C18A C 1.1411(4) 1.0381(4) 1.5880(3)
H18A H 1.2353 1.0625 1.6468
N1A N 0.8544(3) 1.0772(3) 0.9087(2)
N2A N 0.7575(4) 1.1510(3) 0.7657(3)
N3A N 1.3940(4) 1.6214(3) 0.6086(2)
N3A_2 N 0.3940(4) 0.6214(3) 1.6086(2)
N4A N 1.2101(4) 1.6864(3) 0.7125(3)
O1A O 0.1764(3) 0.1967(3) 1.0529(2)
O1A_2 O 1.1764(3) 1.1967(3) 1.0529(2)
O2A O 0.2519(3) 0.1066(3) 0.8870(2)
O3A O 0.9836(3) 1.4195(3) 0.7608(2)
O4A O 1.4185(3) 1.2881(3) 1.6052(2)
O5A O 1.2819(3) 1.3356(3) 1.4585(2)
O5A_2 O 0.2819(3) 0.3356(3) 1.4585(2)
Cu1_2 Cu 0.0000 0.0000 1.0000
Cu2_2 Cu 1.5000 1.5000 1.5000
Cu2_3 Cu 1.5000 1.5000 0.5000
loop_
_geom_bond_atom_site_label_1
_geom_bond_atom_site_label_2
_geom_bond_site_symmetry_1
_geom_bond_site_symmetry_2
C1 H1 1_555 1_555
C2 C1 1_555 1_555
C3 C1 1_555 1_555
H2 C3 1_555 1_555
C4 C2 1_555 1_555
C5 H3 1_555 1_555
C6 H4 1_555 1_555
C7 C6 1_555 1_555
H5 C7 1_555 1_555
C8 H6 1_555 1_555
H7 C8 1_555 1_555
C9 C8 1_555 1_555
H8 C9 1_555 1_555
H9 C9 1_555 1_555
C10 H10 1_555 1_555
H11 C10 1_555 1_555
C11 C10 1_555 1_555
H12 C11 1_555 1_555
H13 C11 1_555 1_555
C12 H14 1_555 1_555
C13 H15 1_555 1_555
C14 C13 1_555 1_555
H16 C14 1_555 1_555
C15 C16 1_555 1_555
C16 C17 1_555 1_555
C17 H17 1_555 1_555
C18 C16 1_555 1_555
H18 C18 1_555 1_555
N1 C5 1_555 1_555
N2 C5 1_555 1_555
N3 C12 1_555 1_555
N4 C11 1_555 1_555
O1 C4 1_555 1_555
O2 C4 1_555 1_555
O3 C9 1_555 1_555
O4 C15 1_555 1_555
O5 C15 1_555 1_555
Cu1 N1 1_555 1_555
Cu2 N3 1_555 1_555
C1A H1A 1_555 1_555
C2A C3 1_555 1_555
C3A C2 1_555 1_555
H2A C3A 1_555 1_555
C4A C2A 1_555 1_555
C5A H3A 1_555 1_555
C6A H4A 1_555 1_555
C7A C6A 1_555 1_555
H5A C7A 1_555 1_555
C8A H6A 1_555 1_555
H7A C8A 1_555 1_555
C9A C8A 1_555 1_555
H8A C9A 1_555 1_555
H9A C9A 1_555 1_555
C10A H10A 1_555 1_555
H11A C10A 1_555 1_555
C11A C10A 1_555 1_555
H12A C11A 1_555 1_555
H13A C11A 1_555 1_555
C12A H14A 1_555 1_555
C13A H15A 1_555 1_555
C14A C13A 1_555 1_555
H16A C14A 1_555 1_555
C15A C16A 1_555 1_555
C16A C17A 1_555 1_555
C17A C18 1_555 1_555
H17A C17A 1_555 1_555
C18A C17 1_555 1_555
H18A C18A 1_555 1_555
N1A Cu1 1_555 1_555
N2A C5A 1_555 1_555
N3A C12A 1_555 1_555
N3A_2 Cu2 1_555 1_555
N4A C11A 1_555 1_555
O1A C4A 1_555 1_555
O1A_2 Cu1 1_555 1_555
O2A C4A 1_555 1_555
O3A C9A 1_555 1_555
O4A C15A 1_555 1_555
O5A C15A 1_555 1_555
O5A_2 Cu2 1_555 1_555
Cu1_2 O1A 1_555 1_555
Cu2_2 O5A 1_555 1_555
Cu2_3 N3A 1_555 1_555
C6 N1 1_555 1_555
C7 N2 1_555 1_555
C8 N2 1_555 1_555
C10 O3 1_555 1_555
C12 N4 1_555 1_555
C13 N4 1_555 1_555
C14 N3 1_555 1_555
O1 Cu1 1_555 1_555
O5 Cu2 1_555 1_555
C1A C2A 1_555 1_555
C1A C3A 1_555 1_555
C5A N1A 1_555 1_555
C6A N1A 1_555 1_555
C7A N2A 1_555 1_555
C8A N2A 1_555 1_555
C10A O3A 1_555 1_555
C12A N4A 1_555 1_555
C13A N4A 1_555 1_555
C14A N3A 1_555 1_555
C16A C18A 1_555 1_555

#END
