
#######################################################################
#
#                 Cambridge Crystallographic Data Centre
#                                CCDC 
#
#######################################################################
#
# If this CIF has been generated from an entry in the Cambridge 
# Structural Database, then it will include bibliographic, chemical, 
# crystal, experimental, refinement or atomic coordinate data resulting 
# from the CCDC's data processing and validation procedures.
#
#######################################################################

data_MOHLAX
_symmetry_cell_setting           monoclinic
_symmetry_space_group_name_H-M   'C 2/c'
_symmetry_Int_Tables_number      15
_space_group_name_Hall           '-C 2yn'
loop_
_symmetry_equiv_pos_site_id
_symmetry_equiv_pos_as_xyz
1 x,y,z
2 1/2+x,1/2+y,z
3 -x,y,1/2-z
4 1/2-x,1/2+y,1/2-z
5 -x,-y,-z
6 1/2-x,1/2-y,-z
7 x,-y,1/2+z
8 1/2+x,1/2-y,1/2+z
_cell_length_a                   21.9618(17)
_cell_length_b                   13.7136(11)
_cell_length_c                   16.205(2)
_cell_angle_alpha                90
_cell_angle_beta                 128.8420(10)
_cell_angle_gamma                90
_cell_volume                     3801.35
loop_
_atom_site_label
_atom_site_type_symbol
_atom_site_fract_x
_atom_site_fract_y
_atom_site_fract_z
Cd1 Cd 0.108949(14) -0.052021(18) 0.394661(18)
C1 C 0.3233(2) -0.1074(3) 0.6982(3)
C2 C 0.3601(2) -0.1955(3) 0.7097(3)
H1 H 0.3354 -0.2398 0.6539
C3 C 0.4337(2) -0.2171(2) 0.8046(3)
C4 C 0.4731(2) -0.1490(2) 0.8867(3)
H2 H 0.5239 -0.1610 0.9478
C5 C 0.4351(2) -0.0625(2) 0.8757(3)
C6 C 0.3606(2) -0.0423(2) 0.7828(3)
H3 H 0.3354 0.0149 0.7771
C7 C 0.2450(2) -0.0843(3) 0.5948(3)
C8 C 0.4713(2) -0.3142(3) 0.8187(3)
C9 C -0.0130(2) 0.0816(3) 0.3947(3)
H4 H -0.0309 0.0215 0.3983
C10 C -0.0477(3) 0.1668(3) 0.3973(3)
H5 H -0.0873 0.1629 0.4029
C11 C -0.0222(3) 0.2543(3) 0.3916(3)
H6 H -0.0452 0.3114 0.3912
C12 C 0.0398(3) 0.2590(3) 0.3861(3)
C13 C 0.0699(3) 0.3498(3) 0.3813(4)
H7 H 0.0492 0.4082 0.3830
C14 C 0.1274(3) 0.3511(3) 0.3746(4)
H8 H 0.1467 0.4108 0.3728
C15 C 0.1603(3) 0.2627(3) 0.3701(3)
C16 C 0.2190(3) 0.2613(4) 0.3595(4)
H9 H 0.2386 0.3196 0.3554
C17 C 0.2472(3) 0.1745(4) 0.3551(4)
H10 H 0.2858 0.1729 0.3475
C18 C 0.2174(3) 0.0886(4) 0.3623(4)
H11 H 0.2375 0.0298 0.3603
C19 C 0.1322(2) 0.1723(3) 0.3752(3)
C20 C 0.0709(2) 0.1705(3) 0.3837(3)
N1 N 0.46870(19) 0.0107(2) 0.9574(2)
N2 N 0.04392(18) 0.0831(2) 0.3874(2)
N3 N 0.16147(19) 0.0858(2) 0.3719(2)
O1 O 0.22553(16) -0.1276(2) 0.5124(2)
O2 O 0.20132(18) -0.0233(3) 0.5911(2)
O3 O 0.54399(16) -0.3202(2) 0.8898(2)
O4 O 0.42759(16) -0.38451(18) 0.7615(2)
Cd1D Cd 0.891051(14) 0.052021(18) 1.605339(18)
Cd1G Cd 0.608949(14) -0.447979(18) 0.894661(18)
Cd1E Cd 0.391051(14) -0.447979(18) 0.605339(18)
Cd1C Cd 0.391051(14) 0.447979(18) 1.105339(18)
Cd1A Cd 0.608949(14) 0.447979(18) 1.394661(18)
C1D C 0.6767(2) 0.1074(3) 1.3018(3)
C2D C 0.6399(2) 0.1955(3) 1.2903(3)
H1D H 0.6646 0.2398 1.3461
C3D C 0.5663(2) 0.2171(2) 1.1954(3)
C4D C 0.5269(2) 0.1490(2) 1.1133(3)
H2D H 0.4761 0.1610 1.0522
C5D C 0.5649(2) 0.0625(2) 1.1243(3)
C6D C 0.6394(2) 0.0423(2) 1.2172(3)
H3D H 0.6646 -0.0149 1.2229
C7D C 0.7550(2) 0.0843(3) 1.4052(3)
C8D C 0.5287(2) 0.3142(3) 1.1813(3)
C9D C 1.0130(2) -0.0816(3) 1.6053(3)
H4D H 1.0309 -0.0215 1.6017
C10D C 1.0477(3) -0.1668(3) 1.6027(3)
H5D H 1.0873 -0.1629 1.5971
C11D C 1.0222(3) -0.2543(3) 1.6084(3)
H6D H 1.0452 -0.3114 1.6088
C12D C 0.9602(3) -0.2590(3) 1.6139(3)
C13D C 0.9301(3) -0.3498(3) 1.6187(4)
H7D H 0.9508 -0.4082 1.6170
C14D C 0.8726(3) -0.3511(3) 1.6254(4)
H8D H 0.8533 -0.4108 1.6272
C15D C 0.8397(3) -0.2627(3) 1.6299(3)
C16D C 0.7810(3) -0.2613(4) 1.6405(4)
H9D H 0.7614 -0.3196 1.6446
C17D C 0.7528(3) -0.1745(4) 1.6449(4)
H10D H 0.7142 -0.1729 1.6525
C18D C 0.7826(3) -0.0886(4) 1.6377(4)
H11D H 0.7625 -0.0298 1.6397
C19D C 0.8678(2) -0.1723(3) 1.6248(3)
C20D C 0.9291(2) -0.1705(3) 1.6163(3)
N1D N 0.53130(19) -0.0107(2) 1.0426(2)
N2D N 0.95608(18) -0.0831(2) 1.6126(2)
N3D N 0.83853(19) -0.0858(2) 1.6281(2)
O1D O 0.77447(16) 0.1276(2) 1.4876(2)
O2D O 0.79868(18) 0.0233(3) 1.4089(2)
O3D O 0.45601(16) 0.3202(2) 1.1102(2)
O3G O 0.04399(16) -0.1798(2) 0.3898(2)
O3C O 0.95601(16) 0.1798(2) 1.6102(2)
O4D O 0.57241(16) 0.38451(18) 1.2385(2)
O4E O 0.07241(16) -0.11549(18) 0.2385(2)
O4A O 0.92759(16) 0.11549(18) 1.7615(2)
O5 O 0.1919(4) 0.1115(4) 0.7107(5)
H12 H 0.153(3) 0.118(8) 0.6462(19)
H13 H 0.174(4) 0.101(7) 0.743(5)
O6 O 0.1716(4) 0.6897(8) 0.5932(8)
H14 H 0.212(5) 0.676(10) 0.656(3)
H15 H 0.177(8) 0.658(10) 0.553(7)
loop_
_geom_bond_atom_site_label_1
_geom_bond_atom_site_label_2
_geom_bond_site_symmetry_1
_geom_bond_site_symmetry_2
Cd1 N2 1_555 1_555
C1 C2 1_555 1_555
C2 H1 1_555 1_555
C3 C2 1_555 1_555
C4 C3 1_555 1_555
H2 C4 1_555 1_555
C5 C4 1_555 1_555
C6 C1 1_555 1_555
H3 C6 1_555 1_555
C7 C1 1_555 1_555
C8 C3 1_555 1_555
C9 H4 1_555 1_555
C10 C9 1_555 1_555
H5 C10 1_555 1_555
C11 C10 1_555 1_555
H6 C11 1_555 1_555
C12 C11 1_555 1_555
C13 C12 1_555 1_555
H7 C13 1_555 1_555
C14 C13 1_555 1_555
H8 C14 1_555 1_555
C15 C14 1_555 1_555
C16 C15 1_555 1_555
H9 C16 1_555 1_555
C17 C16 1_555 1_555
H10 C17 1_555 1_555
C18 C17 1_555 1_555
H11 C18 1_555 1_555
C19 C15 1_555 1_555
C20 C12 1_555 1_555
N1 C5 1_555 1_555
N2 C9 1_555 1_555
N3 Cd1 1_555 1_555
O1 Cd1 1_555 1_555
O2 Cd1 1_555 1_555
O3 C8 1_555 1_555
O4 C8 1_555 1_555
O5 H12 1_555 1_555
H13 O5 1_555 1_555
O6 H14 1_555 1_555
H15 O6 1_555 1_555
Cd1D N2D 1_555 1_555
Cd1G O3 1_555 1_555
Cd1E O4 1_555 1_555
Cd1C O3D 1_555 1_555
Cd1A O4D 1_555 1_555
C1D C2D 1_555 1_555
C2D H1D 1_555 1_555
C3D C2D 1_555 1_555
C4D C3D 1_555 1_555
H2D C4D 1_555 1_555
C5D C4D 1_555 1_555
C6D C1D 1_555 1_555
H3D C6D 1_555 1_555
C7D C1D 1_555 1_555
C8D C3D 1_555 1_555
C9D H4D 1_555 1_555
C10D C9D 1_555 1_555
H5D C10D 1_555 1_555
C11D C10D 1_555 1_555
H6D C11D 1_555 1_555
C12D C11D 1_555 1_555
C13D C12D 1_555 1_555
H7D C13D 1_555 1_555
C14D C13D 1_555 1_555
H8D C14D 1_555 1_555
C15D C14D 1_555 1_555
C16D C15D 1_555 1_555
H9D C16D 1_555 1_555
C17D C16D 1_555 1_555
H10D C17D 1_555 1_555
C18D C17D 1_555 1_555
H11D C18D 1_555 1_555
C19D C15D 1_555 1_555
C20D C12D 1_555 1_555
N1D N1 1_555 1_555
N2D C9D 1_555 1_555
N3D Cd1D 1_555 1_555
O1D Cd1D 1_555 1_555
O2D Cd1D 1_555 1_555
O3D C8D 1_555 1_555
O3G Cd1 1_555 1_555
O3C Cd1D 1_555 1_555
O4D C8D 1_555 1_555
O4E Cd1 1_555 1_555
O4A Cd1D 1_555 1_555
C5 C6 1_555 1_555
C7 O1 1_555 1_555
C7 O2 1_555 1_555
C18 N3 1_555 1_555
C19 C20 1_555 1_555
C19 N3 1_555 1_555
C20 N2 1_555 1_555
C5D C6D 1_555 1_555
C5D N1D 1_555 1_555
C7D O1D 1_555 1_555
C7D O2D 1_555 1_555
C18D N3D 1_555 1_555
C19D C20D 1_555 1_555
C19D N3D 1_555 1_555
C20D N2D 1_555 1_555

#END
