
#######################################################################
#
#                 Cambridge Crystallographic Data Centre
#                                CCDC 
#
#######################################################################
#
# If this CIF has been generated from an entry in the Cambridge 
# Structural Database, then it will include bibliographic, chemical, 
# crystal, experimental, refinement or atomic coordinate data resulting 
# from the CCDC's data processing and validation procedures.
#
#######################################################################

data_MOHLOL
_symmetry_cell_setting           monoclinic
_symmetry_space_group_name_H-M   'C 2/c'
_symmetry_Int_Tables_number      15
_space_group_name_Hall           '-C 2yn'
loop_
_symmetry_equiv_pos_site_id
_symmetry_equiv_pos_as_xyz
1 x,y,z
2 1/2+x,1/2+y,z
3 -x,y,1/2-z
4 1/2-x,1/2+y,1/2-z
5 -x,-y,-z
6 1/2-x,1/2-y,-z
7 x,-y,1/2+z
8 1/2+x,1/2-y,1/2+z
_cell_length_a                   6.961(4)
_cell_length_b                   19.331(8)
_cell_length_c                   13.812(7)
_cell_angle_alpha                90
_cell_angle_beta                 95.43(2)
_cell_angle_gamma                90
_cell_volume                     1850.25
loop_
_atom_site_label
_atom_site_type_symbol
_atom_site_fract_x
_atom_site_fract_y
_atom_site_fract_z
C1 C -0.3066(3) -0.00125(9) -0.01667(12)
H1 H -0.1769 -0.0021 -0.0278
C2 C -0.4391(3) 0.03285(9) -0.08148(13)
H2 H -0.3982 0.0547 -0.1359
C3 C -0.3671(3) -0.03427(8) 0.06501(12)
C4 C -0.2227(3) -0.07161(8) 0.13446(12)
C5 C -1.0578(4) -0.25931(13) 0.1167(2)
H3 H -1.1917 -0.2569 0.1140
C6 C -0.9568(4) -0.31195(13) 0.0822(2)
H4 H -1.0072 -0.3520 0.0524
C7 C -0.7604(3) -0.23358(10) 0.14486(13)
H5 H -0.6467 -0.2105 0.1657
C8 C -0.6029(4) -0.33889(12) 0.08305(16)
H6 H -0.6328 -0.3657 0.0242
H7 H -0.4921 -0.3100 0.0739
C9 C -0.5540(4) -0.38682(12) 0.16683(19)
H8 H -0.4485 -0.4170 0.1533
H9 H -0.6648 -0.4152 0.1777
N1 N -0.9333(3) -0.21000(8) 0.15626(12)
N2 N -0.7671(3) -0.29515(9) 0.09946(12)
O1 O -0.04655(18) -0.05789(7) 0.13585(9)
O2 O -0.71756(19) 0.11672(7) -0.19096(10)
O3 O -0.5000 -0.34599(10) 0.2500
Ni1 Ni 0.0000 -0.134450(16) 0.2500
C1D C -0.6934(3) 0.00125(9) 0.01667(12)
H1D H -0.8231 0.0021 0.0278
C2D C -0.5609(3) -0.03285(9) 0.08148(13)
H2D H -0.6018 -0.0547 0.1359
C3D C -0.6329(3) 0.03427(8) -0.06501(12)
C4D C -0.7773(3) 0.07161(8) -0.13446(12)
C5B C 0.0578(4) -0.25931(13) 0.3833(2)
H3B H 0.1917 -0.2569 0.3860
C6B C -0.0432(4) -0.31195(13) 0.4178(2)
H4B H 0.0072 -0.3520 0.4476
C7B C -0.2396(3) -0.23358(10) 0.35514(13)
H5B H -0.3533 -0.2105 0.3343
C8B C -0.3971(4) -0.33889(12) 0.41695(16)
H6B H -0.3672 -0.3657 0.4758
H7B H -0.5079 -0.3100 0.4261
C9B C -0.4460(4) -0.38682(12) 0.33317(19)
H8B H -0.5515 -0.4170 0.3467
H9B H -0.3352 -0.4152 0.3223
N1B N -0.0667(3) -0.21000(8) 0.34374(12)
N1_2 N 0.0667(3) -0.21000(8) 0.15626(12)
N2B N -0.2329(3) -0.29515(9) 0.40054(12)
O1D O -0.95345(18) 0.05789(7) -0.13585(9)
O1B O 0.04655(18) -0.05789(7) 0.36415(9)
O2D O -0.28244(19) -0.11672(7) 0.19096(10)
O2F O 0.28244(19) -0.11672(7) 0.30904(10)
Ni1_2 Ni -1.0000 -0.134450(16) 0.2500
Ni1F Ni -1.0000 0.134450(16) -0.2500
loop_
_geom_bond_atom_site_label_1
_geom_bond_atom_site_label_2
_geom_bond_site_symmetry_1
_geom_bond_site_symmetry_2
C1 H1 1_555 1_555
C2 C1 1_555 1_555
H2 C2 1_555 1_555
C3 C1 1_555 1_555
C4 C3 1_555 1_555
C5 H3 1_555 1_555
C6 C5 1_555 1_555
H4 C6 1_555 1_555
C7 H5 1_555 1_555
C8 H6 1_555 1_555
H7 C8 1_555 1_555
C9 C8 1_555 1_555
H8 C9 1_555 1_555
H9 C9 1_555 1_555
N1 C5 1_555 1_555
N2 C6 1_555 1_555
O1 C4 1_555 1_555
O2 C4D 1_555 1_555
O3 C9 1_555 1_555
Ni1 O1 1_555 1_555
C1D H1D 1_555 1_555
C2D C3 1_555 1_555
H2D C2D 1_555 1_555
C3D C2 1_555 1_555
C4D C3D 1_555 1_555
C5B H3B 1_555 1_555
C6B C5B 1_555 1_555
H4B C6B 1_555 1_555
C7B H5B 1_555 1_555
C8B H6B 1_555 1_555
H7B C8B 1_555 1_555
C9B O3 1_555 1_555
H8B C9B 1_555 1_555
H9B C9B 1_555 1_555
N1B Ni1 1_555 1_555
N1_2 Ni1 1_555 1_555
N2B C6B 1_555 1_555
O1D C4D 1_555 1_555
O1B Ni1 1_555 1_555
O2D C4 1_555 1_555
O2F Ni1 1_555 1_555
Ni1_2 N1 1_555 1_555
Ni1F O2 1_555 1_555
C7 N1 1_555 1_555
C7 N2 1_555 1_555
C8 N2 1_555 1_555
Ni1 O2D 1_555 1_555
C1D C2D 1_555 1_555
C1D C3D 1_555 1_555
C5B N1B 1_555 1_555
C7B N1B 1_555 1_555
C7B N2B 1_555 1_555
C8B C9B 1_555 1_555
C8B N2B 1_555 1_555
O1D Ni1F 1_555 1_555

#END
