
#######################################################################
#
#                 Cambridge Crystallographic Data Centre
#                                CCDC 
#
#######################################################################
#
# If this CIF has been generated from an entry in the Cambridge 
# Structural Database, then it will include bibliographic, chemical, 
# crystal, experimental, refinement or atomic coordinate data resulting 
# from the CCDC's data processing and validation procedures.
#
#######################################################################

data_MOHLOL01
_symmetry_cell_setting           monoclinic
_symmetry_space_group_name_H-M   'C 2/c'
_symmetry_Int_Tables_number      15
_space_group_name_Hall           '-C 2yn'
loop_
_symmetry_equiv_pos_site_id
_symmetry_equiv_pos_as_xyz
1 x,y,z
2 1/2+x,1/2+y,z
3 -x,y,1/2-z
4 1/2-x,1/2+y,1/2-z
5 -x,-y,-z
6 1/2-x,1/2-y,-z
7 x,-y,1/2+z
8 1/2+x,1/2-y,1/2+z
_cell_length_a                   6.9627(14)
_cell_length_b                   19.317(4)
_cell_length_c                   13.806(3)
_cell_angle_alpha                90
_cell_angle_beta                 95.51(3)
_cell_angle_gamma                90
_cell_volume                     1848.31
loop_
_atom_site_label
_atom_site_type_symbol
_atom_site_fract_x
_atom_site_fract_y
_atom_site_fract_z
C1 C 0.1933(2) 0.49875(7) -0.01665(10)
H1 H 0.3229 0.4979 -0.0277
C2 C 0.2770(2) 0.42836(7) 0.13449(10)
C3 C 0.0609(2) 0.53286(7) -0.08161(10)
H2 H 0.1017 0.5547 -0.1361
C4 C 0.13323(19) 0.46578(7) 0.06489(10)
C5 C 0.1025(3) 0.16102(10) 0.41687(14)
H3 H -0.0083 0.1899 0.4259
H4 H 0.1323 0.1342 0.4758
C6 C 0.2601(2) 0.26654(8) 0.35526(11)
H5 H 0.1465 0.2897 0.3346
C7 C 0.4572(3) 0.18791(11) 0.41788(17)
H6 H 0.5077 0.1478 0.4477
C8 C 0.0536(4) 0.11302(10) 0.33296(16)
H7 H 0.1644 0.0846 0.3222
H8 H -0.0520 0.0828 0.3463
C9 C 0.5576(3) 0.24049(12) 0.38338(17)
H9 H 0.6915 0.2428 0.3861
N1 N 0.4333(2) 0.28992(7) 0.34375(10)
N2 N 0.2672(2) 0.20490(7) 0.40060(10)
Ni1 Ni 0.5000 0.365547(13) 0.2500
O1 O 0.45380(14) 0.44213(6) 0.13553(8)
O2 O 0.21797(15) 0.38326(6) 0.19082(8)
O3 O 0.0000 0.15393(8) 0.2500
C1D C -0.1933(2) 0.50125(7) 0.01665(10)
H1D H -0.3229 0.5021 0.0277
C2D C -0.2770(2) 0.57164(7) -0.13449(10)
C3D C -0.0609(2) 0.46714(7) 0.08161(10)
H2D H -0.1017 0.4453 0.1361
C4D C -0.13323(19) 0.53422(7) -0.06489(10)
C5B C -0.1025(3) 0.16102(10) 0.08313(14)
H3B H 0.0083 0.1899 0.0741
H4B H -0.1323 0.1342 0.0242
C6B C -0.2601(2) 0.26654(8) 0.14474(11)
H5B H -0.1465 0.2897 0.1654
C7B C -0.4572(3) 0.18791(11) 0.08212(17)
H6B H -0.5077 0.1478 0.0523
C8B C -0.0536(4) 0.11302(10) 0.16704(16)
H7B H -0.1644 0.0846 0.1778
H8B H 0.0520 0.0828 0.1537
C9B C -0.5576(3) 0.24049(12) 0.11662(17)
H9B H -0.6915 0.2428 0.1139
N1B N -0.4333(2) 0.28992(7) 0.15625(10)
N1B_2 N 0.5667(2) 0.28992(7) 0.15625(10)
N2B N -0.2672(2) 0.20490(7) 0.09940(10)
Ni1F Ni -0.5000 0.634453(13) -0.2500
Ni1_2 Ni -0.5000 0.365547(13) 0.2500
O1D O -0.45380(14) 0.55787(6) -0.13553(8)
O1B O 0.54620(14) 0.44213(6) 0.36447(8)
O2D O -0.21797(15) 0.61674(6) -0.19082(8)
O2B O 0.78203(15) 0.38326(6) 0.30918(8)
loop_
_geom_bond_atom_site_label_1
_geom_bond_atom_site_label_2
_geom_bond_site_symmetry_1
_geom_bond_site_symmetry_2
C1 H1 1_555 1_555
C2 C4 1_555 1_555
C3 C1 1_555 1_555
H2 C3 1_555 1_555
C4 C1 1_555 1_555
C5 H3 1_555 1_555
H4 C5 1_555 1_555
C6 H5 1_555 1_555
C7 H6 1_555 1_555
C8 C5 1_555 1_555
H7 C8 1_555 1_555
H8 C8 1_555 1_555
C9 C7 1_555 1_555
H9 C9 1_555 1_555
N1 C6 1_555 1_555
N2 C5 1_555 1_555
Ni1 N1 1_555 1_555
O1 C2 1_555 1_555
O2 C2 1_555 1_555
O3 C8 1_555 1_555
C1D H1D 1_555 1_555
C2D C4D 1_555 1_555
C3D C4 1_555 1_555
H2D C3D 1_555 1_555
C4D C3 1_555 1_555
C5B H3B 1_555 1_555
H4B C5B 1_555 1_555
C6B H5B 1_555 1_555
C7B H6B 1_555 1_555
C8B O3 1_555 1_555
H7B C8B 1_555 1_555
H8B C8B 1_555 1_555
C9B C7B 1_555 1_555
H9B C9B 1_555 1_555
N1B C6B 1_555 1_555
N1B_2 Ni1 1_555 1_555
N2B C5B 1_555 1_555
Ni1F O1D 1_555 1_555
Ni1_2 N1B 1_555 1_555
O1D C2D 1_555 1_555
O1B Ni1 1_555 1_555
O2D C2D 1_555 1_555
O2B Ni1 1_555 1_555
C6 N2 1_555 1_555
C7 N2 1_555 1_555
C9 N1 1_555 1_555
Ni1 O1 1_555 1_555
Ni1 O2 1_555 1_555
C1D C3D 1_555 1_555
C1D C4D 1_555 1_555
C5B C8B 1_555 1_555
C6B N2B 1_555 1_555
C7B N2B 1_555 1_555
C9B N1B 1_555 1_555
Ni1F O2D 1_555 1_555

#END
