
#######################################################################
#
#                 Cambridge Crystallographic Data Centre
#                                CCDC 
#
#######################################################################
#
# If this CIF has been generated from an entry in the Cambridge 
# Structural Database, then it will include bibliographic, chemical, 
# crystal, experimental, refinement or atomic coordinate data resulting 
# from the CCDC's data processing and validation procedures.
#
#######################################################################

data_MOHMIH
_symmetry_cell_setting           monoclinic
_symmetry_space_group_name_H-M   'P 21/c'
_symmetry_Int_Tables_number      14
_space_group_name_Hall           '-P 2ybc'
loop_
_symmetry_equiv_pos_site_id
_symmetry_equiv_pos_as_xyz
1 x,y,z
2 -x,1/2+y,1/2-z
3 -x,-y,-z
4 x,1/2-y,1/2+z
_cell_length_a                   5.9252(5)
_cell_length_b                   13.3465(10)
_cell_length_c                   9.9607(8)
_cell_angle_alpha                90
_cell_angle_beta                 92.0560(10)
_cell_angle_gamma                90
_cell_volume                     787.192
loop_
_atom_site_label
_atom_site_type_symbol
_atom_site_fract_x
_atom_site_fract_y
_atom_site_fract_z
Cd1 Cd 0.39287(3) 0.507076(16) 0.31331(2)
Cl1 Cl 0.31333(16) 0.69617(6) 0.36168(8)
N1 N 0.6253(4) 0.57008(19) 0.1367(2)
C1 C 0.5950(5) 0.5364(2) 0.0126(3)
N2 N 0.7158(4) 0.5602(2) -0.0921(2)
C2 C 0.8845(6) 0.6264(3) -0.0696(3)
H1 H 0.9740 0.6451 -0.1402
C3 C 0.9275(6) 0.6671(3) 0.0556(3)
H2 H 1.0423 0.7137 0.0704
C4 C 0.7945(5) 0.6364(2) 0.1583(3)
H3 H 0.8217 0.6618 0.2442
O1 O 0.0037(4) 0.48157(18) 0.3264(2)
C5 C -0.0798(5) 0.4988(2) 0.4366(3)
O2 O -0.2851(3) 0.51578(16) 0.4558(2)
O3 O 0.4620(5) 0.33753(18) 0.3439(2)
H4 H 0.5247 0.3304 0.4205
H5 H 0.5329 0.3113 0.2937
N1B N 0.3747(4) 0.42992(19) -0.1367(2)
C1B C 0.4050(5) 0.4636(2) -0.0126(3)
N2B N 0.2842(4) 0.4398(2) 0.0921(2)
C2B C 0.1155(6) 0.3736(3) 0.0696(3)
H1B H 0.0260 0.3549 0.1402
C3B C 0.0725(6) 0.3329(3) -0.0556(3)
H2B H -0.0423 0.2863 -0.0704
C4B C 0.2055(5) 0.3636(2) -0.1583(3)
H3B H 0.1783 0.3382 -0.2442
O1B O -0.0037(4) 0.51843(18) 0.6736(2)
C5B C 0.0798(5) 0.5012(2) 0.5634(3)
O2B O 0.2851(3) 0.48422(16) 0.5442(2)
Cd1B Cd -0.39287(3) 0.492924(16) 0.68669(2)
Cl1B Cl -0.31333(16) 0.30383(6) 0.63832(8)
O3B O -0.4620(5) 0.66247(18) 0.6561(2)
H4B H -0.5247 0.6696 0.5795
H5B H -0.5329 0.6887 0.7063
Cd1_2 Cd -0.60713(3) 0.507076(16) 0.31331(2)
Cd1B_2 Cd 0.60713(3) 0.492924(16) -0.31331(2)
Cd1B_3 Cd 0.60713(3) 0.492924(16) 0.68669(2)
N1B_2 N -0.6253(4) 0.42992(19) 0.8633(2)
N2_2 N -0.2842(4) 0.5602(2) 0.9079(2)
O2_2 O 0.7149(3) 0.51578(16) 0.4558(2)
O2B_2 O -0.7149(3) 0.48422(16) 0.5442(2)
loop_
_geom_bond_atom_site_label_1
_geom_bond_atom_site_label_2
_geom_bond_site_symmetry_1
_geom_bond_site_symmetry_2
Cd1 Cl1 1_555 1_555
N1 Cd1 1_555 1_555
C1 N1 1_555 1_555
N2 C1 1_555 1_555
C2 N2 1_555 1_555
H1 C2 1_555 1_555
C3 C2 1_555 1_555
H2 C3 1_555 1_555
C4 N1 1_555 1_555
H3 C4 1_555 1_555
O1 Cd1 1_555 1_555
C5 O1 1_555 1_555
O2 C5 1_555 1_555
O3 Cd1 1_555 1_555
H4 O3 1_555 1_555
H5 O3 1_555 1_555
N1B C1B 1_555 1_555
C1B C1 1_555 1_555
N2B Cd1 1_555 1_555
C2B N2B 1_555 1_555
H1B C2B 1_555 1_555
C3B C2B 1_555 1_555
H2B C3B 1_555 1_555
C4B N1B 1_555 1_555
H3B C4B 1_555 1_555
O1B C5B 1_555 1_555
C5B C5 1_555 1_555
O2B Cd1 1_555 1_555
Cd1B O2 1_555 1_555
Cl1B Cd1B 1_555 1_555
O3B Cd1B 1_555 1_555
H4B O3B 1_555 1_555
H5B O3B 1_555 1_555
Cd1_2 O2 1_555 1_555
Cd1B_2 N2 1_555 1_555
Cd1B_3 O2B 1_555 1_555
N1B_2 Cd1B 1_555 1_555
N2_2 Cd1B 1_555 1_555
O2_2 Cd1 1_555 1_555
O2B_2 Cd1B 1_555 1_555
C3 C4 1_555 1_555
N1B Cd1B_2 1_555 1_555
C1B N2B 1_555 1_555
C3B C4B 1_555 1_555
O1B Cd1B 1_555 1_555
C5B O2B 1_555 1_555
Cd1_2 O2B_2 1_555 1_555
Cd1B_3 O2_2 1_555 1_555

#END
