
#######################################################################
#
#                 Cambridge Crystallographic Data Centre
#                                CCDC 
#
#######################################################################
#
# If this CIF has been generated from an entry in the Cambridge 
# Structural Database, then it will include bibliographic, chemical, 
# crystal, experimental, refinement or atomic coordinate data resulting 
# from the CCDC's data processing and validation procedures.
#
#######################################################################

data_MOHMON
_symmetry_cell_setting           orthorhombic
_symmetry_space_group_name_H-M   'C m c m'
_symmetry_Int_Tables_number      63
_space_group_name_Hall           '-C 2n 2'
loop_
_symmetry_equiv_pos_site_id
_symmetry_equiv_pos_as_xyz
1 x,y,z
2 -x,-y,1/2+z
3 -x,y,1/2-z
4 x,-y,-z
5 1/2+x,1/2+y,z
6 1/2-x,1/2-y,1/2+z
7 1/2-x,1/2+y,1/2-z
8 1/2+x,1/2-y,-z
9 -x,-y,-z
10 x,y,1/2-z
11 x,-y,1/2+z
12 -x,y,z
13 1/2-x,1/2-y,-z
14 1/2+x,1/2+y,1/2-z
15 1/2+x,1/2-y,1/2+z
16 1/2-x,1/2+y,z
_cell_length_a                   15.1749(12)
_cell_length_b                   6.9090(5)
_cell_length_c                   27.353(2)
_cell_angle_alpha                90
_cell_angle_beta                 90
_cell_angle_gamma                90
_cell_volume                     2867.78
loop_
_atom_site_label
_atom_site_type_symbol
_atom_site_fract_x
_atom_site_fract_y
_atom_site_fract_z
Cd1 Cd 0.29795(2) 1.04274(5) 0.379425(12)
Cl1 Cl 0.18921(8) 0.85749(18) 0.43320(4)
Cl2 Cl 0.19960(7) 1.22990(18) 0.32135(4)
O1 O 0.42707(19) 1.1388(5) 0.33776(11)
C1 C 0.5000 1.0931(9) 0.3547(2)
C2 C 0.5000 0.9701(9) 0.4019(2)
N1 N 0.4223(2) 0.9198(5) 0.42036(12)
C3 C 0.4221(3) 0.8089(6) 0.46027(16)
H1 H 0.3686 0.7698 0.4736
C4 C 0.5000 0.7508(9) 0.4823(2)
H2 H 0.5000 0.6762 0.5106
O1K O 0.57293(19) 1.1388(5) 0.33776(11)
N1K N 0.5777(2) 0.9198(5) 0.42036(12)
C3K C 0.5779(3) 0.8089(6) 0.46027(16)
H1K H 0.6314 0.7698 0.4736
Cd1K Cd 0.70205(2) 1.04274(5) 0.379425(12)
Cl1K Cl 0.81079(8) 0.85749(18) 0.43320(4)
Cl2K Cl 0.80040(7) 1.22990(18) 0.32135(4)
Cd1D Cd 0.79795(2) 0.54274(5) 0.379425(12)
Cd1D_2 Cd 0.79795(2) 1.54274(5) 0.379425(12)
Cd1O Cd 0.20205(2) 0.54274(5) 0.379425(12)
Cd1O_2 Cd 0.20205(2) 1.54274(5) 0.379425(12)
Cl1D Cl 0.68921(8) 1.35749(18) 0.43320(4)
Cl1O Cl 0.31079(8) 1.35749(18) 0.43320(4)
Cl2D Cl 0.69960(7) 0.72990(18) 0.32135(4)
Cl2O Cl 0.30040(7) 0.72990(18) 0.32135(4)
loop_
_geom_bond_atom_site_label_1
_geom_bond_atom_site_label_2
_geom_bond_site_symmetry_1
_geom_bond_site_symmetry_2
Cd1 Cl1 1_555 1_555
Cl1 Cd1O 1_555 1_555
Cl2 Cd1 1_555 1_555
O1 Cd1 1_555 1_555
C1 O1 1_555 1_555
C2 C1 1_555 1_555
N1 Cd1 1_555 1_555
C3 N1 1_555 1_555
H1 C3 1_555 1_555
C4 C3 1_555 1_555
H2 C4 1_555 1_555
O1K C1 1_555 1_555
N1K C2 1_555 1_555
C3K C4 1_555 1_555
H1K C3K 1_555 1_555
Cd1K O1K 1_555 1_555
Cl1K Cd1K 1_555 1_555
Cl2K Cd1K 1_555 1_555
Cd1D Cl1K 1_555 1_555
Cd1D_2 Cl2K 1_555 1_555
Cd1O Cl2O 1_555 1_555
Cd1O_2 Cl2 1_555 1_555
Cl1D Cd1K 1_555 1_555
Cl1O Cd1 1_555 1_555
Cl2D Cd1K 1_555 1_555
Cl2O Cd1 1_555 1_555
C2 N1 1_555 1_555
N1K C3K 1_555 1_555
N1K Cd1K 1_555 1_555
Cd1D Cl2D 1_555 1_555
Cd1D_2 Cl1D 1_555 1_555
Cd1O_2 Cl1O 1_555 1_555

#END
