
#######################################################################
#
#                 Cambridge Crystallographic Data Centre
#                                CCDC 
#
#######################################################################
#
# If this CIF has been generated from an entry in the Cambridge 
# Structural Database, then it will include bibliographic, chemical, 
# crystal, experimental, refinement or atomic coordinate data resulting 
# from the CCDC's data processing and validation procedures.
#
#######################################################################

data_MOHMUT
_symmetry_cell_setting           tetragonal
_symmetry_space_group_name_H-M   'I -4 c 2'
_symmetry_Int_Tables_number      120
_space_group_name_Hall           'I -4 -2c'
loop_
_symmetry_equiv_pos_site_id
_symmetry_equiv_pos_as_xyz
1 x,y,z
2 -x,-y,z
3 y,-x,-z
4 -y,x,-z
5 x,-y,1/2+z
6 -x,y,1/2+z
7 y,x,1/2-z
8 -y,-x,1/2-z
9 1/2+x,1/2+y,1/2+z
10 1/2-x,1/2-y,1/2+z
11 1/2+y,1/2-x,1/2-z
12 1/2-y,1/2+x,1/2-z
13 1/2+x,1/2-y,z
14 1/2-x,1/2+y,z
15 1/2+y,1/2+x,-z
16 1/2-y,1/2-x,-z
_cell_length_a                   13.3631(11)
_cell_length_b                   13.3631(11)
_cell_length_c                   17.3076(16)
_cell_angle_alpha                90
_cell_angle_beta                 90
_cell_angle_gamma                90
_cell_volume                     3090.66
loop_
_atom_site_label
_atom_site_type_symbol
_atom_site_fract_x
_atom_site_fract_y
_atom_site_fract_z
Cd1 Cd 0.0000 0.0000 0.86113(2)
Cd2 Cd 0.40329(2) -0.09671(2) 1.0000
Cl1 Cl -0.09497(8) -0.09497(8) 0.7500
Cl2 Cl 0.5000 0.0000 1.10468(9)
O1 O 0.1231(2) 0.0497(2) 0.94482(16)
O2 O 0.2667(2) 0.0074(2) 1.0013(5)
N1 N 0.1137(3) -0.1310(3) 0.8717(2)
N2 N 0.2761(3) -0.1642(3) 0.9184(2)
C1 C 0.1943(3) -0.0076(3) 0.9566(2)
C2 C 0.1948(3) -0.1077(3) 0.9126(3)
C3 C 0.1118(4) -0.2208(4) 0.8372(3)
H1 H 0.0558 -0.2392 0.8087
C4 C 0.1905(5) -0.2862(4) 0.8430(3)
H2 H 0.1882 -0.3496 0.8209
C5 C 0.2729(5) -0.2531(5) 0.8832(3)
H3 H 0.3289 -0.2944 0.8859
O1A O -0.1231(2) -0.0497(2) 0.94482(16)
O2A O -0.2667(2) -0.0074(2) 1.0013(5)
N1A N -0.1137(3) 0.1310(3) 0.8717(2)
N2A N -0.2761(3) 0.1642(3) 0.9184(2)
C1A C -0.1943(3) 0.0076(3) 0.9566(2)
C2A C -0.1948(3) 0.1077(3) 0.9126(3)
C3A C -0.1118(4) 0.2208(4) 0.8372(3)
H1A H -0.0558 0.2392 0.8087
C4A C -0.1905(5) 0.2862(4) 0.8430(3)
H2A H -0.1882 0.3496 0.8209
C5A C -0.2729(5) 0.2531(5) 0.8832(3)
H3A H -0.3289 0.2944 0.8859
Cd1F Cd 0.0000 0.0000 0.63887(2)
Cd2A Cd -0.40329(2) 0.09671(2) 1.0000
Cd2A_2 Cd 0.59671(2) 0.09671(2) 1.0000
Cl1A Cl 0.09497(8) 0.09497(8) 0.7500
Cl2N Cl 0.5000 0.0000 0.89532(9)
O2N O 0.5074(2) -0.2333(2) 0.9987(5)
N2N N 0.3358(3) -0.2239(3) 1.0816(2)
loop_
_geom_bond_atom_site_label_1
_geom_bond_atom_site_label_2
_geom_bond_site_symmetry_1
_geom_bond_site_symmetry_2
Cd1 Cl1 1_555 1_555
Cd2 Cl2 1_555 1_555
Cl1 Cd1F 1_555 1_555
Cl2 Cd2A_2 1_555 1_555
O1 Cd1 1_555 1_555
O2 Cd2 1_555 1_555
N1 Cd1 1_555 1_555
N2 Cd2 1_555 1_555
C1 O1 1_555 1_555
C2 N1 1_555 1_555
C3 N1 1_555 1_555
H1 C3 1_555 1_555
C4 C3 1_555 1_555
H2 C4 1_555 1_555
C5 N2 1_555 1_555
H3 C5 1_555 1_555
O1A Cd1 1_555 1_555
O2A C1A 1_555 1_555
N1A Cd1 1_555 1_555
N2A C2A 1_555 1_555
C1A O1A 1_555 1_555
C2A N1A 1_555 1_555
C3A N1A 1_555 1_555
H1A C3A 1_555 1_555
C4A C3A 1_555 1_555
H2A C4A 1_555 1_555
C5A N2A 1_555 1_555
H3A C5A 1_555 1_555
Cd1F Cl1A 1_555 1_555
Cd2A O2A 1_555 1_555
Cd2A_2 Cl2N 1_555 1_555
Cl1A Cd1 1_555 1_555
Cl2N Cd2 1_555 1_555
O2N Cd2 1_555 1_555
N2N Cd2 1_555 1_555
O2 C1 1_555 1_555
N2 C2 1_555 1_555
C1 C2 1_555 1_555
C4 C5 1_555 1_555
N2A Cd2A 1_555 1_555
C1A C2A 1_555 1_555
C4A C5A 1_555 1_555

#END
