
#######################################################################
#
#                 Cambridge Crystallographic Data Centre
#                                CCDC 
#
#######################################################################
#
# If this CIF has been generated from an entry in the Cambridge 
# Structural Database, then it will include bibliographic, chemical, 
# crystal, experimental, refinement or atomic coordinate data resulting 
# from the CCDC's data processing and validation procedures.
#
#######################################################################

data_MOHMAY
_symmetry_cell_setting           monoclinic
_symmetry_space_group_name_H-M   'P 21/n'
_symmetry_Int_Tables_number      14
_space_group_name_Hall           '-P 2yn'
loop_
_symmetry_equiv_pos_site_id
_symmetry_equiv_pos_as_xyz
1 x,y,z
2 1/2-x,1/2+y,1/2-z
3 -x,-y,-z
4 1/2+x,1/2-y,1/2+z
_cell_length_a                   10.352(5)
_cell_length_b                   12.761(5)
_cell_length_c                   14.229(6)
_cell_angle_alpha                90
_cell_angle_beta                 97.241(18)
_cell_angle_gamma                90
_cell_volume                     1864.69
loop_
_atom_site_label
_atom_site_type_symbol
_atom_site_fract_x
_atom_site_fract_y
_atom_site_fract_z
C1 C -0.1983(3) 0.3781(2) 0.0330(2)
C2 C -0.3149(3) 0.3068(2) 0.0112(2)
C3 C -0.4371(4) 0.3537(3) 0.0067(3)
H1 H -0.4429 0.4238 0.0235
C4 C -0.5498(4) 0.2983(4) -0.0221(3)
H2 H -0.6303 0.3311 -0.0244
C5 C -0.5428(4) 0.1945(4) -0.0475(3)
H3 H -0.6183 0.1574 -0.0685
C6 C -0.4223(3) 0.1457(3) -0.0415(3)
H4 H -0.4178 0.0753 -0.0577
C7 C -0.3085(3) 0.1999(2) -0.0117(2)
C8 C -0.1833(3) 0.1397(2) 0.0050(2)
C9 C -0.1395(4) -0.0478(3) 0.1704(3)
H5 H -0.1531 0.0226 0.1826
C10 C -0.1752(4) -0.1278(3) 0.2222(3)
H6 H -0.2168 -0.1233 0.2763
C11 C -0.0805(3) -0.1888(3) 0.1049(2)
H7 H -0.0453 -0.2351 0.0644
C12 C -0.1573(4) -0.3258(3) 0.2118(3)
H8 H -0.2177 -0.3250 0.2586
H9 H -0.1964 -0.3671 0.1583
C13 C -0.0383(6) -0.3758(4) 0.2521(5)
H10 H -0.0639 -0.4271 0.2966
H11 H -0.0085 -0.4156 0.2008
C14 C 0.1775(4) -0.3728(3) 0.3169(3)
H12 H 0.1819 -0.4452 0.2968
H13 H 0.1973 -0.3707 0.3853
C15 C 0.2758(4) -0.3093(3) 0.2733(3)
H14 H 0.3593 -0.3449 0.2827
H15 H 0.2493 -0.3036 0.2056
C16 C 0.1993(4) -0.1249(3) 0.3083(3)
H16 H 0.1184 -0.1249 0.2715
C17 C 0.2505(4) -0.0476(3) 0.3657(3)
H17 H 0.2098 0.0158 0.3750
C18 C 0.3921(4) -0.1716(3) 0.3755(3)
H18 H 0.4671 -0.2110 0.3923
N1 N -0.0796(3) -0.0857(2) 0.0960(2)
N2 N -0.1386(3) -0.2180(2) 0.1798(2)
N3 N 0.2902(3) -0.2035(2) 0.3148(2)
N4 N 0.3721(3) -0.0765(2) 0.4086(2)
O1 O -0.1101(2) 0.37232(16) -0.02276(16)
O2 O -0.1970(3) 0.4447(2) 0.09592(19)
O3 O -0.0987(2) 0.16441(18) 0.07196(19)
O4 O -0.1716(2) 0.06071(18) -0.04771(17)
O5 O 0.0547(4) -0.3350(3) 0.2910(5)
Cu1 Cu 0.5000 0.0000 0.5000
Cu2 Cu 0.0000 0.0000 0.0000
C1B C 0.1983(3) -0.3781(2) -0.0330(2)
C2B C 0.3149(3) -0.3068(2) -0.0112(2)
C3B C 0.4371(4) -0.3537(3) -0.0067(3)
H1B H 0.4429 -0.4238 -0.0235
C4B C 0.5498(4) -0.2983(4) 0.0221(3)
H2B H 0.6303 -0.3311 0.0244
C5B C 0.5428(4) -0.1945(4) 0.0475(3)
H3B H 0.6183 -0.1574 0.0685
C6B C 0.4223(3) -0.1457(3) 0.0415(3)
H4B H 0.4178 -0.0753 0.0577
C7B C 0.3085(3) -0.1999(2) 0.0117(2)
C8B C 0.1833(3) -0.1397(2) -0.0050(2)
C9B C 0.1395(4) 0.0478(3) -0.1704(3)
H5B H 0.1531 -0.0226 -0.1826
C10B C 0.1752(4) 0.1278(3) -0.2222(3)
H6B H 0.2168 0.1233 -0.2763
C11B C 0.0805(3) 0.1888(3) -0.1049(2)
H7B H 0.0453 0.2351 -0.0644
C12B C 0.1573(4) 0.3258(3) -0.2118(3)
H8B H 0.2177 0.3250 -0.2586
H9B H 0.1964 0.3671 -0.1583
C13B C 0.0383(6) 0.3758(4) -0.2521(5)
H10B H 0.0639 0.4271 -0.2966
H11B H 0.0085 0.4156 -0.2008
C14B C -0.1775(4) 0.3728(3) -0.3169(3)
H12B H -0.1819 0.4452 -0.2968
H13B H -0.1973 0.3707 -0.3853
C15B C -0.2758(4) 0.3093(3) -0.2733(3)
H14B H -0.3593 0.3449 -0.2827
H15B H -0.2493 0.3036 -0.2056
C16B C -0.1993(4) 0.1249(3) -0.3083(3)
H16B H -0.1184 0.1249 -0.2715
C17B C -0.2505(4) 0.0476(3) -0.3657(3)
H17B H -0.2098 -0.0158 -0.3750
C18B C -0.3921(4) 0.1716(3) -0.3755(3)
H18B H -0.4671 0.2110 -0.3923
N1B N 0.0796(3) 0.0857(2) -0.0960(2)
N2B N 0.1386(3) 0.2180(2) -0.1798(2)
N3B N -0.2902(3) 0.2035(2) -0.3148(2)
N4B N 0.6279(3) 0.0765(2) 0.5914(2)
N4B_2 N -0.3721(3) 0.0765(2) -0.4086(2)
O1C O 0.3899(2) 0.12768(16) 0.47724(16)
O1A O 0.6101(2) -0.12768(16) 0.52276(16)
O1B O 0.1101(2) -0.37232(16) 0.02276(16)
O2C O 0.3030(3) 0.0553(2) 0.59592(19)
O2A O 0.6970(3) -0.0553(2) 0.40408(19)
O2B O 0.1970(3) -0.4447(2) -0.09592(19)
O3B O 0.0987(2) -0.16441(18) -0.07196(19)
O4B O 0.1716(2) -0.06071(18) 0.04771(17)
O5B O -0.0547(4) 0.3350(3) -0.2910(5)
Cu1C Cu 0.0000 0.5000 0.0000
Cu1C_2 Cu 0.0000 -0.5000 0.0000
Cu1_2 Cu -0.5000 0.0000 -0.5000
loop_
_geom_bond_atom_site_label_1
_geom_bond_atom_site_label_2
_geom_bond_site_symmetry_1
_geom_bond_site_symmetry_2
C1 C2 1_555 1_555
C2 C3 1_555 1_555
C3 H1 1_555 1_555
C4 C3 1_555 1_555
H2 C4 1_555 1_555
C5 C4 1_555 1_555
H3 C5 1_555 1_555
C6 C5 1_555 1_555
H4 C6 1_555 1_555
C7 C2 1_555 1_555
C8 C7 1_555 1_555
C9 H5 1_555 1_555
C10 C9 1_555 1_555
H6 C10 1_555 1_555
C11 H7 1_555 1_555
C12 H8 1_555 1_555
H9 C12 1_555 1_555
C13 C12 1_555 1_555
H10 C13 1_555 1_555
H11 C13 1_555 1_555
C14 H12 1_555 1_555
H13 C14 1_555 1_555
C15 C14 1_555 1_555
H14 C15 1_555 1_555
H15 C15 1_555 1_555
C16 H16 1_555 1_555
C17 C16 1_555 1_555
H17 C17 1_555 1_555
C18 H18 1_555 1_555
N1 C9 1_555 1_555
N2 C10 1_555 1_555
N3 C15 1_555 1_555
N4 C17 1_555 1_555
O1 C1 1_555 1_555
O2 C1 1_555 1_555
O3 C8 1_555 1_555
O4 C8 1_555 1_555
O5 C13 1_555 1_555
Cu1 N4 1_555 1_555
Cu2 N1 1_555 1_555
C1B C2B 1_555 1_555
C2B C3B 1_555 1_555
C3B H1B 1_555 1_555
C4B C3B 1_555 1_555
H2B C4B 1_555 1_555
C5B C4B 1_555 1_555
H3B C5B 1_555 1_555
C6B C5B 1_555 1_555
H4B C6B 1_555 1_555
C7B C2B 1_555 1_555
C8B C7B 1_555 1_555
C9B H5B 1_555 1_555
C10B C9B 1_555 1_555
H6B C10B 1_555 1_555
C11B H7B 1_555 1_555
C12B H8B 1_555 1_555
H9B C12B 1_555 1_555
C13B C12B 1_555 1_555
H10B C13B 1_555 1_555
H11B C13B 1_555 1_555
C14B H12B 1_555 1_555
H13B C14B 1_555 1_555
C15B C14B 1_555 1_555
H14B C15B 1_555 1_555
H15B C15B 1_555 1_555
C16B H16B 1_555 1_555
C17B C16B 1_555 1_555
H17B C17B 1_555 1_555
C18B H18B 1_555 1_555
N1B Cu2 1_555 1_555
N2B C10B 1_555 1_555
N3B C15B 1_555 1_555
N4B Cu1 1_555 1_555
N4B_2 C17B 1_555 1_555
O1C Cu1 1_555 1_555
O1A Cu1 1_555 1_555
O1B C1B 1_555 1_555
O2C Cu1 1_555 1_555
O2A Cu1 1_555 1_555
O2B C1B 1_555 1_555
O3B Cu2 1_555 1_555
O4B Cu2 1_555 1_555
O5B C13B 1_555 1_555
Cu1C O1 1_555 1_555
Cu1C_2 O1B 1_555 1_555
Cu1_2 N4B_2 1_555 1_555
C6 C7 1_555 1_555
C11 N1 1_555 1_555
C11 N2 1_555 1_555
C12 N2 1_555 1_555
C14 O5 1_555 1_555
C16 N3 1_555 1_555
C18 N3 1_555 1_555
C18 N4 1_555 1_555
O2 Cu1C 1_555 1_555
O3 Cu2 1_555 1_555
O4 Cu2 1_555 1_555
C6B C7B 1_555 1_555
C8B O3B 1_555 1_555
C8B O4B 1_555 1_555
C9B N1B 1_555 1_555
C11B N1B 1_555 1_555
C11B N2B 1_555 1_555
C12B N2B 1_555 1_555
C14B O5B 1_555 1_555
C16B N3B 1_555 1_555
C18B N3B 1_555 1_555
C18B N4B_2 1_555 1_555
O2B Cu1C_2 1_555 1_555

#END
