
#######################################################################
#
#                 Cambridge Crystallographic Data Centre
#                                CCDC 
#
#######################################################################
#
# If this CIF has been generated from an entry in the Cambridge 
# Structural Database, then it will include bibliographic, chemical, 
# crystal, experimental, refinement or atomic coordinate data resulting 
# from the CCDC's data processing and validation procedures.
#
#######################################################################

data_MOHMEC
_symmetry_cell_setting           monoclinic
_symmetry_space_group_name_H-M   'P 21/c'
_symmetry_Int_Tables_number      14
_space_group_name_Hall           '-P 2ybc'
loop_
_symmetry_equiv_pos_site_id
_symmetry_equiv_pos_as_xyz
1 x,y,z
2 -x,1/2+y,1/2-z
3 -x,-y,-z
4 x,1/2-y,1/2+z
_cell_length_a                   9.472(4)
_cell_length_b                   17.653(5)
_cell_length_c                   8.516(3)
_cell_angle_alpha                90
_cell_angle_beta                 97.072(15)
_cell_angle_gamma                90
_cell_volume                     1413.12
loop_
_atom_site_label
_atom_site_type_symbol
_atom_site_fract_x
_atom_site_fract_y
_atom_site_fract_z
C1 C 0.53074(18) -0.02496(10) 0.0710(2)
C2 C -0.02318(18) 0.04111(9) 0.0157(2)
C3 C 0.1237(2) -0.07246(12) 0.3791(3)
H1 H 0.0771 -0.0977 0.2918
C4 C 0.2542(2) 0.00504(12) 0.5241(3)
H2 H 0.3162 0.0445 0.5559
C5 C 0.1955(2) -0.04209(12) 0.6234(3)
H3 H 0.2092 -0.0411 0.7334
C6 C 0.0286(2) -0.15504(12) 0.5808(3)
H4 H -0.0691 -0.1509 0.5317
H5 H 0.0283 -0.1525 0.6946
C7 C 0.0885(2) -0.23026(12) 0.5381(3)
H6 H 0.0250 -0.2707 0.5616
H7 H 0.0967 -0.2316 0.4257
C8 C 0.3115(2) -0.29311(12) 0.5533(3)
H8 H 0.2525 -0.3233 0.4759
H9 H 0.3575 -0.3272 0.6332
C9 C 0.4232(2) -0.25277(14) 0.4734(3)
H10 H 0.4665 -0.2884 0.4071
H11 H 0.3782 -0.2133 0.4056
N1 N 0.20896(17) -0.01399(9) 0.3692(2)
N2 N 0.11171(18) -0.09141(10) 0.5292(2)
O1 O 0.46044(13) -0.02842(8) 0.18664(16)
O2 O 0.64604(14) -0.05841(7) 0.05888(17)
O3 O 0.07007(13) 0.08470(7) 0.08252(16)
O4 O -0.14994(13) 0.05759(7) -0.02864(17)
O5 O 0.22412(16) -0.24095(9) 0.62562(19)
Co1 Co 0.26760(2) 0.031938(13) 0.15546(3)
C10 C 0.5433(2) -0.14615(11) 0.6331(2)
H12 H 0.4787 -0.1087 0.5956
C11 C 0.7208(2) -0.20383(11) 0.7611(3)
H13 H 0.8032 -0.2132 0.8297
C12 C 0.6473(2) -0.25636(12) 0.6684(3)
H14 H 0.6690 -0.3075 0.6615
N3 N 0.53429(17) -0.21899(10) 0.5868(2)
N4 N 0.65532(16) -0.13451(9) 0.7386(2)
C1B C 0.46926(18) 0.02496(10) -0.0710(2)
C2B C 0.02318(18) -0.04111(9) -0.0157(2)
C3B C 0.8763(2) 0.07246(12) 0.6209(3)
H1B H 0.9229 0.0977 0.7082
C4B C 0.7458(2) -0.00504(12) 0.4759(3)
H2B H 0.6838 -0.0445 0.4441
C5B C 0.8045(2) 0.04209(12) 0.3766(3)
H3B H 0.7908 0.0411 0.2666
C6B C 0.9714(2) 0.15504(12) 0.4192(3)
H4B H 1.0691 0.1509 0.4683
H5B H 0.9717 0.1525 0.3054
C7B C 0.9115(2) 0.23026(12) 0.4619(3)
H6B H 0.9750 0.2707 0.4384
H7B H 0.9033 0.2316 0.5743
C8B C 0.6885(2) 0.29311(12) 0.4467(3)
H8B H 0.7475 0.3233 0.5241
H9B H 0.6425 0.3272 0.3668
C9B C 0.5768(2) 0.25277(14) 0.5266(3)
H10B H 0.5335 0.2884 0.5929
H11B H 0.6218 0.2133 0.5944
N1B N 0.79104(17) 0.01399(9) 0.6308(2)
N2B N 0.88829(18) 0.09141(10) 0.4708(2)
O1B O 0.53956(13) 0.02842(8) -0.18664(16)
O1B_2 O 0.53956(13) 0.02842(8) 0.81336(16)
O2B O 0.35396(14) 0.05841(7) -0.05888(17)
O2_2 O 0.64604(14) -0.05841(7) 1.05888(17)
O3B O -0.07007(13) -0.08470(7) -0.08252(16)
O3B_2 O 0.92993(13) -0.08470(7) 0.91748(16)
O4B O 0.14994(13) -0.05759(7) 0.02864(17)
O4_2 O 0.85006(13) 0.05759(7) 0.97136(17)
O5B O 0.77588(16) 0.24095(9) 0.37438(19)
Co1B Co 0.73240(2) -0.031938(13) 0.84454(3)
Co1B_2 Co 0.73240(2) -0.031938(13) -0.15546(3)
Co1B_3 Co -0.26760(2) -0.031938(13) -0.15546(3)
C10B C 0.4567(2) 0.14615(11) 0.3669(2)
H12B H 0.5213 0.1087 0.4044
C11B C 0.2792(2) 0.20383(11) 0.2389(3)
H13B H 0.1968 0.2132 0.1703
C12B C 0.3527(2) 0.25636(12) 0.3316(3)
H14B H 0.3310 0.3075 0.3385
N3B N 0.46571(17) 0.21899(10) 0.4132(2)
N4B N 0.34468(16) 0.13451(9) 0.2614(2)
loop_
_geom_bond_atom_site_label_1
_geom_bond_atom_site_label_2
_geom_bond_site_symmetry_1
_geom_bond_site_symmetry_2
C1 O1 1_555 1_555
C2 O3 1_555 1_555
C3 H1 1_555 1_555
C4 H2 1_555 1_555
C5 C4 1_555 1_555
H3 C5 1_555 1_555
C6 H4 1_555 1_555
H5 C6 1_555 1_555
C7 C6 1_555 1_555
H6 C7 1_555 1_555
H7 C7 1_555 1_555
C8 H8 1_555 1_555
H9 C8 1_555 1_555
C9 C8 1_555 1_555
H10 C9 1_555 1_555
H11 C9 1_555 1_555
N1 C3 1_555 1_555
N2 C3 1_555 1_555
O1 Co1 1_555 1_555
O2 C1 1_555 1_555
O3 Co1 1_555 1_555
O4 C2 1_555 1_555
O5 C7 1_555 1_555
Co1 N1 1_555 1_555
C10 H12 1_555 1_555
C11 H13 1_555 1_555
C12 C11 1_555 1_555
H14 C12 1_555 1_555
N3 C9 1_555 1_555
N4 C10 1_555 1_555
C1B C1 1_555 1_555
C2B C2 1_555 1_555
C3B H1B 1_555 1_555
C4B H2B 1_555 1_555
C5B C4B 1_555 1_555
H3B C5B 1_555 1_555
C6B H4B 1_555 1_555
H5B C6B 1_555 1_555
C7B C6B 1_555 1_555
H6B C7B 1_555 1_555
H7B C7B 1_555 1_555
C8B H8B 1_555 1_555
H9B C8B 1_555 1_555
C9B C8B 1_555 1_555
H10B C9B 1_555 1_555
H11B C9B 1_555 1_555
N1B C3B 1_555 1_555
N2B C3B 1_555 1_555
O1B C1B 1_555 1_555
O1B_2 Co1B 1_555 1_555
O2B Co1 1_555 1_555
O2_2 Co1B 1_555 1_555
O3B C2B 1_555 1_555
O3B_2 Co1B 1_555 1_555
O4B Co1 1_555 1_555
O4_2 Co1B 1_555 1_555
O5B C7B 1_555 1_555
Co1B N4 1_555 1_555
Co1B_2 O2 1_555 1_555
Co1B_3 O4 1_555 1_555
C10B H12B 1_555 1_555
C11B H13B 1_555 1_555
C12B C11B 1_555 1_555
H14B C12B 1_555 1_555
N3B C9B 1_555 1_555
N4B Co1 1_555 1_555
C4 N1 1_555 1_555
C5 N2 1_555 1_555
C6 N2 1_555 1_555
C8 O5 1_555 1_555
C10 N3 1_555 1_555
C11 N4 1_555 1_555
C12 N3 1_555 1_555
C1B O2B 1_555 1_555
C2B O4B 1_555 1_555
C4B N1B 1_555 1_555
C5B N2B 1_555 1_555
C6B N2B 1_555 1_555
C8B O5B 1_555 1_555
N1B Co1B 1_555 1_555
O1B Co1B_2 1_555 1_555
O3B Co1B_3 1_555 1_555
C10B N3B 1_555 1_555
C10B N4B 1_555 1_555
C11B N4B 1_555 1_555
C12B N3B 1_555 1_555

#END
