
#######################################################################
#
#                 Cambridge Crystallographic Data Centre
#                                CCDC 
#
#######################################################################
#
# If this CIF has been generated from an entry in the Cambridge 
# Structural Database, then it will include bibliographic, chemical, 
# crystal, experimental, refinement or atomic coordinate data resulting 
# from the CCDC's data processing and validation procedures.
#
#######################################################################

data_MOHMUS
_symmetry_cell_setting           orthorhombic
_symmetry_space_group_name_H-M   'P b c n'
_symmetry_Int_Tables_number      60
_space_group_name_Hall           '-P 2n 2ab'
loop_
_symmetry_equiv_pos_site_id
_symmetry_equiv_pos_as_xyz
1 x,y,z
2 1/2-x,1/2-y,1/2+z
3 1/2+x,1/2-y,-z
4 -x,y,1/2-z
5 -x,-y,-z
6 1/2+x,1/2+y,1/2-z
7 1/2-x,1/2+y,z
8 x,-y,1/2+z
_cell_length_a                   11.7668(16)
_cell_length_b                   16.821(3)
_cell_length_c                   20.579(3)
_cell_angle_alpha                90
_cell_angle_beta                 90
_cell_angle_gamma                90
_cell_volume                     4073.19
loop_
_atom_site_label
_atom_site_type_symbol
_atom_site_fract_x
_atom_site_fract_y
_atom_site_fract_z
C1 C 0.5979(4) 0.9372(3) 0.6618(3)
C2 C 0.5212(4) 0.8649(3) 0.6644(3)
C3 C 0.4053(4) 0.8738(3) 0.6755(2)
H1 H 0.3742 0.9246 0.6771
C4 C 0.3348(4) 0.8082(3) 0.6845(2)
C5 C 0.2097(4) 0.8190(3) 0.7018(3)
C6 C 0.4951(4) 0.7222(3) 0.6649(2)
C7 C 0.3811(4) 0.7332(3) 0.6790(3)
H2 H 0.3348 0.6890 0.6850
C8 C 0.5427(4) 0.6388(3) 0.6613(3)
C9 C 0.2879(6) 0.9764(4) 0.9758(3)
H3 H 0.3526 0.9519 0.9592
C10 C 0.1346(6) 1.0413(4) 0.9833(3)
H4 H 0.0709 1.0715 0.9729
C11 C 0.1618(6) 1.0158(4) 1.0434(3)
H5 H 0.1206 1.0247 1.0813
C12 C 0.3169(6) 0.9306(4) 1.0909(3)
H6 H 0.3860 0.9583 1.1032
H7 H 0.2675 0.9289 1.1286
C13 C 0.3456(7) 0.8480(4) 1.0709(4)
H8 H 0.3723 0.8184 1.1083
H9 H 0.4063 0.8493 1.0390
C14 C 0.2792(7) 0.7343(4) 1.0176(4)
H10 H 0.3328 0.7393 0.9821
H11 H 0.3112 0.6992 1.0503
C15 C 0.1678(6) 0.7033(4) 0.9939(3)
H12 H 0.1130 0.7057 1.0291
H13 H 0.1767 0.6479 0.9817
C16 C 0.0856(6) 0.8254(4) 0.9390(3)
H14 H 0.0858 0.8600 0.9743
C17 C 0.0477(5) 0.8406(4) 0.8778(3)
H15 H 0.0180 0.8889 0.8638
C18 C 0.1071(5) 0.7211(4) 0.8767(3)
H16 H 0.1272 0.6705 0.8626
C19 C 0.5665(4) 0.7889(3) 0.6594(2)
H17 H 0.6440 0.7822 0.6524
N1 N 0.2157(4) 1.0158(3) 0.9396(2)
N2 N 0.2601(4) 0.9748(3) 1.0384(2)
N3 N 0.1234(4) 0.7482(3) 0.9378(2)
N4 N 0.0597(4) 0.7746(3) 0.8399(2)
O1 O 0.1577(3) 0.7552(2) 0.71703(19)
O2 O 0.1656(3) 0.8860(2) 0.6994(2)
O3 O 0.1947(4) 1.0249(2) 0.7498(2)
O4 O 0.5560(3) 1.0044(2) 0.6551(2)
O5 O 0.0000 0.6232(4) 0.7500
O6 O 0.7037(3) 0.9246(2) 0.66451(18)
O7 O 0.6500(3) 0.6319(2) 0.6502(2)
O8 O 0.4798(3) 0.5803(2) 0.6690(2)
O9 O 0.2536(4) 0.8108(3) 1.0450(2)
Cu1 Cu 0.0000 0.76113(6) 0.7500
Cu2 Cu 0.21275(6) 1.02499(4) 0.84435(3)
H18 H 0.134(3) 1.051(2) 0.738(3)
H19 H 0.187(4) 0.9745(14) 0.738(3)
H20 H -0.006(6) 0.588(3) 0.725(3)
C1C C -0.5979(4) 0.9372(3) 0.8382(3)
C2C C -0.5212(4) 0.8649(3) 0.8356(3)
C3C C -0.4053(4) 0.8738(3) 0.8245(2)
H1C H -0.3742 0.9246 0.8229
C4C C -0.3348(4) 0.8082(3) 0.8155(2)
C5C C -0.2097(4) 0.8190(3) 0.7982(3)
C6C C -0.4951(4) 0.7222(3) 0.8351(2)
C7C C -0.3811(4) 0.7332(3) 0.8210(3)
H2C H -0.3348 0.6890 0.8150
C8C C -0.5427(4) 0.6388(3) 0.8387(3)
C9C C -0.2879(6) 0.9764(4) 0.5242(3)
H3C H -0.3526 0.9519 0.5408
C10C C -0.1346(6) 1.0413(4) 0.5167(3)
H4C H -0.0709 1.0715 0.5271
C11C C -0.1618(6) 1.0158(4) 0.4566(3)
H5C H -0.1206 1.0247 0.4187
C12C C -0.3169(6) 0.9306(4) 0.4091(3)
H6C H -0.3860 0.9583 0.3968
H7C H -0.2675 0.9289 0.3714
C13C C -0.3456(7) 0.8480(4) 0.4291(4)
H8C H -0.3723 0.8184 0.3917
H9C H -0.4063 0.8493 0.4610
C14C C -0.2792(7) 0.7343(4) 0.4824(4)
H10C H -0.3328 0.7393 0.5179
H11C H -0.3112 0.6992 0.4497
C15C C -0.1678(6) 0.7033(4) 0.5061(3)
H12C H -0.1130 0.7057 0.4709
H13C H -0.1767 0.6479 0.5183
C16C C -0.0856(6) 0.8254(4) 0.5610(3)
H14C H -0.0858 0.8600 0.5257
C17C C -0.0477(5) 0.8406(4) 0.6222(3)
H15C H -0.0180 0.8889 0.6362
C18C C -0.1071(5) 0.7211(4) 0.6233(3)
H16C H -0.1272 0.6705 0.6374
C19C C -0.5665(4) 0.7889(3) 0.8406(2)
H17C H -0.6440 0.7822 0.8476
N1C N -0.2157(4) 1.0158(3) 0.5604(2)
N2C N -0.2601(4) 0.9748(3) 0.4616(2)
N3C N -0.1234(4) 0.7482(3) 0.5622(2)
N4C N -0.0597(4) 0.7746(3) 0.6601(2)
O1C O -0.1577(3) 0.7552(2) 0.78297(19)
O2C O -0.1656(3) 0.8860(2) 0.8006(2)
O3C O -0.1947(4) 1.0249(2) 0.7502(2)
O4C O -0.5560(3) 1.0044(2) 0.8449(2)
O6C O -0.7037(3) 0.9246(2) 0.83549(18)
O6C_2 O 0.2963(3) 0.9246(2) 0.83549(18)
O6_2 O -0.2963(3) 0.9246(2) 0.66451(18)
O7C O -0.6500(3) 0.6319(2) 0.8498(2)
O7E O 0.1500(3) 1.1319(2) 0.8498(2)
O7F O -0.1500(3) 1.1319(2) 0.6502(2)
O8C O -0.4798(3) 0.5803(2) 0.8310(2)
O9C O -0.2536(4) 0.8108(3) 0.4550(2)
Cu2C Cu -0.21275(6) 1.02499(4) 0.65565(3)
Cu2C_2 Cu 0.78725(6) 1.02499(4) 0.65565(3)
Cu2E Cu 0.71275(6) 0.52499(4) 0.65565(3)
Cu2_2 Cu -0.78725(6) 1.02499(4) 0.84435(3)
Cu2F Cu -0.71275(6) 0.52499(4) 0.84435(3)
H18C H -0.134(3) 1.051(2) 0.762(3)
H19C H -0.187(4) 0.9745(14) 0.762(3)
H20C H 0.006(6) 0.588(3) 0.775(3)
loop_
_geom_bond_atom_site_label_1
_geom_bond_atom_site_label_2
_geom_bond_site_symmetry_1
_geom_bond_site_symmetry_2
C1 C2 1_555 1_555
C2 C3 1_555 1_555
C3 H1 1_555 1_555
C4 C3 1_555 1_555
C5 C4 1_555 1_555
C6 C7 1_555 1_555
C7 C4 1_555 1_555
H2 C7 1_555 1_555
C8 C6 1_555 1_555
C9 H3 1_555 1_555
C10 H4 1_555 1_555
C11 C10 1_555 1_555
H5 C11 1_555 1_555
C12 H6 1_555 1_555
H7 C12 1_555 1_555
C13 C12 1_555 1_555
H8 C13 1_555 1_555
H9 C13 1_555 1_555
C14 H10 1_555 1_555
H11 C14 1_555 1_555
C15 C14 1_555 1_555
H12 C15 1_555 1_555
H13 C15 1_555 1_555
C16 H14 1_555 1_555
C17 C16 1_555 1_555
H15 C17 1_555 1_555
C18 H16 1_555 1_555
C19 C2 1_555 1_555
H17 C19 1_555 1_555
N1 C9 1_555 1_555
N2 C9 1_555 1_555
N3 C15 1_555 1_555
N4 C17 1_555 1_555
O1 C5 1_555 1_555
O2 C5 1_555 1_555
O3 Cu2 1_555 1_555
O4 C1 1_555 1_555
O5 Cu1 1_555 1_555
O6 C1 1_555 1_555
O7 C8 1_555 1_555
O8 C8 1_555 1_555
O9 C13 1_555 1_555
Cu1 N4 1_555 1_555
Cu2 N1 1_555 1_555
H18 O3 1_555 1_555
H19 O3 1_555 1_555
H20 O5 1_555 1_555
C1C C2C 1_555 1_555
C2C C3C 1_555 1_555
C3C H1C 1_555 1_555
C4C C3C 1_555 1_555
C5C C4C 1_555 1_555
C6C C7C 1_555 1_555
C7C C4C 1_555 1_555
H2C C7C 1_555 1_555
C8C C6C 1_555 1_555
C9C H3C 1_555 1_555
C10C H4C 1_555 1_555
C11C C10C 1_555 1_555
H5C C11C 1_555 1_555
C12C H6C 1_555 1_555
H7C C12C 1_555 1_555
C13C C12C 1_555 1_555
H8C C13C 1_555 1_555
H9C C13C 1_555 1_555
C14C H10C 1_555 1_555
H11C C14C 1_555 1_555
C15C C14C 1_555 1_555
H12C C15C 1_555 1_555
H13C C15C 1_555 1_555
C16C H14C 1_555 1_555
C17C C16C 1_555 1_555
H15C C17C 1_555 1_555
C18C H16C 1_555 1_555
C19C C2C 1_555 1_555
H17C C19C 1_555 1_555
N1C C9C 1_555 1_555
N2C C9C 1_555 1_555
N3C C15C 1_555 1_555
N4C Cu1 1_555 1_555
O1C Cu1 1_555 1_555
O2C C5C 1_555 1_555
O3C Cu2C 1_555 1_555
O4C C1C 1_555 1_555
O6C C1C 1_555 1_555
O6C_2 Cu2 1_555 1_555
O6_2 Cu2C 1_555 1_555
O7C C8C 1_555 1_555
O7E Cu2 1_555 1_555
O7F Cu2C 1_555 1_555
O8C C8C 1_555 1_555
O9C C13C 1_555 1_555
Cu2C N1C 1_555 1_555
Cu2C_2 O6 1_555 1_555
Cu2E O7 1_555 1_555
Cu2_2 O6C 1_555 1_555
Cu2F O7C 1_555 1_555
H18C O3C 1_555 1_555
H19C O3C 1_555 1_555
H20C O5 1_555 1_555
C6 C19 1_555 1_555
C10 N1 1_555 1_555
C11 N2 1_555 1_555
C12 N2 1_555 1_555
C14 O9 1_555 1_555
C16 N3 1_555 1_555
C18 N3 1_555 1_555
C18 N4 1_555 1_555
O1 Cu1 1_555 1_555
C5C O1C 1_555 1_555
C6C C19C 1_555 1_555
C10C N1C 1_555 1_555
C11C N2C 1_555 1_555
C12C N2C 1_555 1_555
C14C O9C 1_555 1_555
C16C N3C 1_555 1_555
C17C N4C 1_555 1_555
C18C N3C 1_555 1_555
C18C N4C 1_555 1_555

#END
