
#######################################################################
#
#                 Cambridge Crystallographic Data Centre
#                                CCDC 
#
#######################################################################
#
# If this CIF has been generated from an entry in the Cambridge 
# Structural Database, then it will include bibliographic, chemical, 
# crystal, experimental, refinement or atomic coordinate data resulting 
# from the CCDC's data processing and validation procedures.
#
#######################################################################

data_MOHNAA
_symmetry_cell_setting           triclinic
_symmetry_space_group_name_H-M   'P 1'
_symmetry_Int_Tables_number      1
_space_group_name_Hall           'P 1'
loop_
_symmetry_equiv_pos_site_id
_symmetry_equiv_pos_as_xyz
1 x,y,z
_cell_length_a                   9.5305(17)
_cell_length_b                   10.600(2)
_cell_length_c                   20.362(4)
_cell_angle_alpha                89.999(3)
_cell_angle_beta                 90.000(2)
_cell_angle_gamma                90.212(2)
_cell_volume                     2057.02
loop_
_atom_site_label
_atom_site_type_symbol
_atom_site_fract_x
_atom_site_fract_y
_atom_site_fract_z
Cd1 Cd 0.18112(13) 0.84669(11) 0.31951(5)
Cd2 Cd 1.54130(14) 1.34663(13) 0.82033(6)
Cd3 Cd 1.18093(13) 1.21655(12) 0.82019(6)
Cd4 Cd 0.54105(12) 0.71688(11) 0.31962(5)
Cd5 Cd 0.68072(14) 1.34620(13) 0.64865(6)
Cd6 Cd 0.04192(13) 0.84601(11) 0.14826(5)
Cd7 Cd 0.68005(12) 0.71713(11) 0.14831(5)
Cd8 Cd 1.04161(13) 1.21685(13) 0.64852(6)
N1 N 1.4789(13) 1.3130(13) 0.5807(7)
O1 O -0.0213(12) 0.8030(11) 0.2571(6)
O2 O 1.2454(13) 1.2831(12) 0.7133(6)
O3 O 0.7404(15) 1.2957(14) 0.7579(7)
O4 O 0.2463(12) 0.7921(11) 0.2143(6)
O5 O -0.0711(16) 0.4115(14) 0.6295(7)
O6 O 0.9836(16) 1.2709(14) 0.7601(8)
O7 O 1.2978(15) 0.4040(13) -0.1597(7)
C1 C 0.9837(11) 1.2516(12) 0.9584(6)
H1 H 1.0646 1.2294 0.9811
N2 N 0.9844(10) 1.2550(11) 0.8901(6)
C2 C 0.8634(13) 1.2881(12) 0.8562(4)
N3 N 0.7418(10) 1.3178(11) 0.8905(5)
C3 C 0.7412(11) 1.3143(12) 0.9587(5)
H2 H 0.6598 1.3341 0.9817
C4 C 0.8621(13) 1.2812(15) 0.9927(4)
H3 H 0.8616 1.2789 1.0383
O8 O -0.2117(12) 0.9067(11) 0.1299(6)
N4 N 0.4806(14) 0.7522(13) 0.0817(7)
N5 N 1.2438(17) 1.2490(16) 0.5800(9)
O9 O 0.4237(14) 0.9081(12) 0.3387(6)
N6 N 0.2443(13) 0.8178(12) 0.0801(7)
C5 C -0.1382(11) 0.7799(11) 0.3548(4)
N7 N -0.0174(9) 0.8137(10) 0.3888(5)
C6 C -0.0183(10) 0.8175(11) 0.4570(5)
H4 H 0.0625 0.8401 0.4798
C7 C -0.1402(12) 0.7874(13) 0.4912(4)
H5 H -0.1408 0.7899 0.5369
C8 C -0.2610(10) 0.7536(10) 0.4572(5)
H6 H -0.3425 0.7335 0.4801
N8 N -0.2601(9) 0.7499(10) 0.3890(5)
C9 C 1.358(2) 1.2834(19) 0.6866(9)
O10 O 0.2732(14) 0.9164(12) 0.4204(6)
C10 C 0.3640(19) 0.7833(16) 0.1847(8)
C11 C 0.0965(18) 0.5229(16) 0.4154(9)
H7 H 0.0840 0.5196 0.3701
C12 C 1.3597(14) 1.2840(13) 0.6081(7)
C13 C 0.866(3) 1.282(2) 0.7844(11)
C14 C 0.2112(17) 0.5769(14) 0.4425(8)
O11 O -0.0532(12) 0.9235(10) 0.0503(6)
O12 O -0.7315(17) 1.1381(15) -0.0799(8)
C15 C 1.2451(15) 1.2461(14) 0.5154(8)
H8 H 1.1653 1.2173 0.4937
O13 O 1.4533(16) 0.4297(14) -0.0799(8)
C16 C 0.005(3) 0.486(2) 0.5246(12)
C17 C 0.3600(17) 0.7811(17) -0.0214(8)
H9 H 0.3585 0.7799 -0.0671
C18 C 0.5052(12) 0.9868(10) 0.4425(5)
C19 C 0.6249(12) 1.0438(10) 0.4170(5)
H10 H 0.6359 1.0513 0.3718
C20 C 0.7282(12) 1.0895(10) 0.4590(6)
H11 H 0.8083 1.1276 0.4419
C21 C 0.7118(13) 1.0783(10) 0.5266(6)
C22 C 0.5921(13) 1.0213(11) 0.5521(5)
H12 H 0.5811 1.0138 0.5973
C23 C 0.4888(12) 0.9756(10) 0.5101(5)
H13 H 0.4087 0.9375 0.5272
C24 C 0.3626(13) 0.7875(12) 0.1087(6)
C25 C -0.506(2) 1.0828(19) 0.0106(10)
H14 H -0.5907 1.1114 0.0275
C26 C -0.487(2) 1.0797(18) -0.0550(9)
O14 O -0.2332(15) 0.4281(13) 0.5509(7)
C27 C 0.127(2) 0.5448(19) 0.5504(10)
H15 H 0.1327 0.5579 0.5955
C28 C 1.332(2) 0.4352(18) -0.1005(9)
C29 C 0.2324(19) 0.5820(16) 0.5125(8)
H16 H 0.3166 0.6101 0.5304
C30 C -0.270(2) 0.9734(16) -0.0412(9)
H17 H -0.1946 0.9287 -0.0586
C31 C -0.3731(18) 1.0233(16) -0.0829(9)
H18 H -0.3641 1.0181 -0.1283
C32 C -0.2809(19) 0.9917(16) 0.0265(8)
C33 C 1.4732(18) 1.3255(17) 0.5155(9)
H19 H 1.5483 1.3636 0.4940
C34 C -0.004(2) 0.4714(19) 0.4596(10)
H20 H -0.0794 0.4257 0.4426
C35 C 0.2490(15) 0.8220(14) 0.0158(7)
H21 H 0.1717 0.8549 -0.0062
C36 C -0.106(2) 0.437(2) 0.5697(11)
C37 C -0.607(2) 1.1337(19) -0.1026(10)
C38 C -0.1718(19) 0.9413(16) 0.0704(8)
C39 C 0.401(2) 0.9333(18) 0.3962(9)
C40 C -0.408(2) 1.047(2) 0.0511(11)
H22 H -0.4202 1.0567 0.0961
C41 C 1.3588(16) 1.2838(15) 0.4782(8)
H23 H 1.3593 1.2816 0.4325
C42 C 0.4750(15) 0.7416(14) 0.0151(7)
H24 H 0.5511 0.7066 -0.0068
O15 O 0.6192(13) 0.5394(12) 0.6829(7)
O16 O 0.5979(13) 0.5365(12) 0.7875(6)
O17 O 1.1222(14) 1.0276(12) 0.7912(7)
O18 O 0.6133(16) 0.5222(15) 0.2977(8)
O19 O 1.0999(13) 1.0242(12) 0.6831(7)
O20 O 0.2925(12) 0.6608(11) 0.3389(6)
O21 O 0.7883(14) 1.1566(12) 0.6305(6)
O22 O -0.5796(14) 1.1567(12) -0.1596(7)
C43 C 0.8083(18) 0.3381(17) 0.3078(10)
H25 H 0.7800 0.3742 0.3473
O23 O 0.4731(13) 0.7723(12) 0.2128(6)
C44 C 0.6604(15) 0.4831(13) 0.2445(8)
C45 C 0.9111(19) 0.2260(18) 0.3064(11)
H26 H 0.9390 0.1861 0.3449
C46 C 0.7602(18) 0.3826(16) 0.2487(10)
C47 C 0.8156(17) 0.3302(16) 0.1849(9)
H27 H 0.7863 0.3637 0.1450
C48 C 1.0667(19) 0.9815(17) 0.7438(10)
O24 O -0.2606(13) 0.7777(11) 0.2564(6)
O25 O 1.4743(13) 1.3001(12) 0.7121(6)
O26 O 0.9501(14) 1.1324(12) 0.5501(7)
C49 C 0.9605(17) 0.1866(15) 0.2456(9)
C50 C 0.9037(19) 0.2392(18) 0.1863(11)
H28 H 0.9325 0.2050 0.1465
C51 C 1.2181(11) 0.4868(10) -0.0540(5)
C52 C 1.2358(11) 0.4777(10) 0.0119(5)
H29 H 1.3144 0.4401 0.0305
C53 C 1.1249(11) 0.5301(10) 0.0511(5)
H30 H 1.1365 0.5294 0.0964
C54 C 1.0100(11) 0.5781(10) 0.0283(5)
C55 C 0.9936(11) 0.5873(10) -0.0393(5)
H31 H 0.9098 0.6210 -0.0547
C56 C 1.0931(12) 0.5499(10) -0.0866(5)
H32 H 1.0837 0.5622 -0.1316
C57 C 0.9558(13) 0.8817(12) 0.7445(8)
C58 C 0.9086(14) 0.8294(13) 0.8031(6)
H33 H 0.9416 0.8604 0.8429
C59 C 0.8121(14) 0.7308(13) 0.8021(6)
H34 H 0.7805 0.6959 0.8413
C60 C 0.7627(13) 0.6845(11) 0.7426(7)
C61 C 0.8099(15) 0.7368(14) 0.6839(6)
H35 H 0.7768 0.7059 0.6441
C62 C 0.9064(15) 0.8354(14) 0.6849(6)
H36 H 0.9380 0.8704 0.6457
O27 O 0.4454(14) 0.6436(12) 0.4208(6)
C63 C 0.3274(19) 0.6296(17) 0.3992(8)
O28 O 0.7732(13) 0.6427(12) 0.0494(6)
C64 C 0.8999(19) 0.6255(17) 0.0699(9)
O29 O 0.9287(12) 0.6545(11) 0.1306(6)
C65 C -0.140(2) 0.7844(18) 0.2833(9)
C66 C 1.0660(16) 0.0803(14) 0.2455(8)
C67 C 0.832(2) 1.1223(17) 0.5700(9)
O30 O 0.6075(17) 0.5230(16) 0.1783(9)
C68 C 0.6511(19) 0.5817(17) 0.7431(10)
O31 O 1.1121(18) 0.0410(16) 0.1844(9)
O32 O 1.1056(16) 0.0392(14) 0.2976(8)
Cd1_2 Cd 1.18112(13) -0.15331(11) 0.31951(5)
Cd2_2 Cd -0.45870(14) 1.34663(13) -0.17967(6)
Cd2_3 Cd 0.54130(14) 0.34663(13) 0.82033(6)
Cd2_4 Cd 0.54130(14) 1.34663(13) 0.82033(6)
Cd2_5 Cd 1.54130(14) 0.34663(13) -0.17967(6)
Cd3_2 Cd -0.81907(13) 1.21655(12) -0.17981(6)
Cd3_3 Cd 1.18093(13) 0.21655(12) -0.17981(6)
Cd4_2 Cd -0.45895(12) 0.71688(11) 0.31962(5)
Cd5_2 Cd -0.31928(14) 0.34620(13) 0.64865(6)
Cd5_3 Cd 0.68072(14) 0.34620(13) 0.64865(6)
Cd5_4 Cd 1.68072(14) 1.34620(13) 0.64865(6)
Cd6_2 Cd 1.04192(13) -0.15399(11) 0.14826(5)
Cd6_3 Cd 1.04192(13) 0.84601(11) 0.14826(5)
Cd7_2 Cd -0.31995(12) 0.71713(11) 0.14831(5)
Cd8_2 Cd 0.04161(13) 0.21685(13) 0.64852(6)
N1_2 N 0.4789(13) 1.3130(13) 0.5807(7)
O3_2 O 1.7404(15) 1.2957(14) 0.7579(7)
O5_2 O 0.9289(16) 1.4115(14) 0.6295(7)
O7_2 O 1.2978(15) 1.4040(13) 0.8403(7)
N3_2 N 1.7418(10) 1.3178(11) 0.8905(5)
O8_2 O 0.7883(12) 0.9067(11) 0.1299(6)
N8_2 N 0.7399(9) 0.7499(10) 0.3890(5)
O12_2 O 1.2685(17) 1.1381(15) 0.9201(8)
O13_2 O 1.4533(16) 1.4297(14) 0.9201(8)
O14_2 O 0.7668(15) 1.4281(13) 0.5509(7)
O15_2 O 0.6192(13) 1.5394(12) 0.6829(7)
O16_2 O 1.5979(13) 1.5365(12) 0.7875(6)
O22_2 O 1.4204(14) 1.1567(12) 0.8404(7)
O24_2 O 0.7394(13) 0.7777(11) 0.2564(6)
O25_2 O 0.4743(13) 1.3001(12) 0.7121(6)
O29_2 O -0.0713(12) 0.6545(11) 0.1306(6)
O31_2 O 0.1121(18) 1.0410(16) 0.1844(9)
O32_2 O 0.1056(16) 1.0392(14) 0.2976(8)
loop_
_geom_bond_atom_site_label_1
_geom_bond_atom_site_label_2
_geom_bond_site_symmetry_1
_geom_bond_site_symmetry_2
Cd1 O1 1_555 1_555
Cd2 O25 1_555 1_555
Cd3 O2 1_555 1_555
Cd4 O9 1_555 1_555
Cd5 O3 1_555 1_555
Cd6 O1 1_555 1_555
Cd7 N4 1_555 1_555
Cd8 O2 1_555 1_555
N1 C12 1_555 1_555
O1 C65 1_555 1_555
O2 C9 1_555 1_555
O3 C13 1_555 1_555
O4 Cd1 1_555 1_555
O5 C36 1_555 1_555
O6 Cd3 1_555 1_555
O7 C28 1_555 1_555
C1 H1 1_555 1_555
N2 Cd3 1_555 1_555
C2 N2 1_555 1_555
N3 C2 1_555 1_555
C3 N3 1_555 1_555
H2 C3 1_555 1_555
C4 C1 1_555 1_555
H3 C4 1_555 1_555
O8 Cd6 1_555 1_555
N4 C24 1_555 1_555
N5 Cd8 1_555 1_555
O9 Cd1 1_555 1_555
N6 Cd6 1_555 1_555
C5 N7 1_555 1_555
N7 Cd1 1_555 1_555
C6 N7 1_555 1_555
H4 C6 1_555 1_555
C7 C6 1_555 1_555
H5 C7 1_555 1_555
C8 C7 1_555 1_555
H6 C8 1_555 1_555
N8 C5 1_555 1_555
C9 C12 1_555 1_555
O10 Cd1 1_555 1_555
C10 O4 1_555 1_555
C11 H7 1_555 1_555
C12 N5 1_555 1_555
C13 O6 1_555 1_555
C14 C11 1_555 1_555
O11 Cd6 1_555 1_555
O12 C37 1_555 1_555
C15 N5 1_555 1_555
H8 C15 1_555 1_555
O13 C28 1_555 1_555
C16 C27 1_555 1_555
C17 H9 1_555 1_555
C18 C19 1_555 1_555
C19 H10 1_555 1_555
C20 C19 1_555 1_555
H11 C20 1_555 1_555
C21 C20 1_555 1_555
C22 C21 1_555 1_555
H12 C22 1_555 1_555
C23 C18 1_555 1_555
H13 C23 1_555 1_555
C24 N6 1_555 1_555
C25 H14 1_555 1_555
C26 C25 1_555 1_555
O14 C36 1_555 1_555
C27 H15 1_555 1_555
C28 C51 1_555 1_555
C29 C14 1_555 1_555
H16 C29 1_555 1_555
C30 H17 1_555 1_555
C31 C26 1_555 1_555
H18 C31 1_555 1_555
C32 C30 1_555 1_555
C33 N1 1_555 1_555
H19 C33 1_555 1_555
C34 C11 1_555 1_555
H20 C34 1_555 1_555
C35 N6 1_555 1_555
H21 C35 1_555 1_555
C36 C16 1_555 1_555
C37 C26 1_555 1_555
C38 O8 1_555 1_555
C39 O9 1_555 1_555
C40 C25 1_555 1_555
H22 C40 1_555 1_555
C41 C15 1_555 1_555
H23 C41 1_555 1_555
C42 N4 1_555 1_555
H24 C42 1_555 1_555
O15 C68 1_555 1_555
O16 C68 1_555 1_555
O17 Cd3 1_555 1_555
O18 Cd4 1_555 1_555
O19 Cd8 1_555 1_555
O20 Cd1 1_555 1_555
O21 Cd5 1_555 1_555
O22 C37 1_555 1_555
C43 H25 1_555 1_555
O23 Cd4 1_555 1_555
C44 O18 1_555 1_555
C45 C43 1_555 1_555
H26 C45 1_555 1_555
C46 C43 1_555 1_555
C47 C46 1_555 1_555
H27 C47 1_555 1_555
C48 O17 1_555 1_555
O24 C65 1_555 1_555
O25 C9 1_555 1_555
O26 Cd8 1_555 1_555
C49 C45 1_555 1_555
C50 C47 1_555 1_555
H28 C50 1_555 1_555
C51 C52 1_555 1_555
C52 H29 1_555 1_555
C53 C52 1_555 1_555
H30 C53 1_555 1_555
C54 C53 1_555 1_555
C55 C54 1_555 1_555
H31 C55 1_555 1_555
C56 C51 1_555 1_555
H32 C56 1_555 1_555
C57 C48 1_555 1_555
C58 C57 1_555 1_555
H33 C58 1_555 1_555
C59 C58 1_555 1_555
H34 C59 1_555 1_555
C60 C59 1_555 1_555
C61 C60 1_555 1_555
H35 C61 1_555 1_555
C62 C57 1_555 1_555
H36 C62 1_555 1_555
O27 Cd4 1_555 1_555
C63 C14 1_555 1_555
O28 Cd7 1_555 1_555
C64 C54 1_555 1_555
O29 Cd7 1_555 1_555
C65 C5 1_555 1_555
C66 C49 1_555 1_555
C67 C21 1_555 1_555
O30 Cd7 1_555 1_555
C68 C60 1_555 1_555
O31 C66 1_555 1_555
O32 C66 1_555 1_555
Cd1_2 O32 1_555 1_555
Cd2_2 O22 1_555 1_555
Cd2_3 O16 1_555 1_555
Cd2_4 O3 1_555 1_555
Cd2_5 O7 1_555 1_555
Cd3_2 O12 1_555 1_555
Cd3_3 O7 1_555 1_555
Cd4_2 N8 1_555 1_555
Cd5_2 O5 1_555 1_555
Cd5_3 O15 1_555 1_555
Cd5_4 N1 1_555 1_555
Cd6_2 O31 1_555 1_555
Cd6_3 O29 1_555 1_555
Cd7_2 O8 1_555 1_555
Cd8_2 O5 1_555 1_555
N1_2 Cd5 1_555 1_555
O3_2 Cd2 1_555 1_555
O5_2 Cd5 1_555 1_555
O7_2 Cd2 1_555 1_555
N3_2 Cd2 1_555 1_555
O8_2 Cd7 1_555 1_555
N8_2 Cd4 1_555 1_555
O12_2 Cd3 1_555 1_555
O13_2 Cd2 1_555 1_555
O14_2 Cd5 1_555 1_555
O15_2 Cd5 1_555 1_555
O16_2 Cd2 1_555 1_555
O22_2 Cd2 1_555 1_555
O24_2 Cd4 1_555 1_555
O25_2 Cd5 1_555 1_555
O29_2 Cd6 1_555 1_555
O31_2 Cd6 1_555 1_555
O32_2 Cd1 1_555 1_555
Cd3 O7_2 1_555 1_555
Cd3 O22_2 1_555 1_555
Cd4 O20 1_555 1_555
Cd6 O4 1_555 1_555
Cd7 O23 1_555 1_555
Cd7 O24_2 1_555 1_555
Cd8 O6 1_555 1_555
Cd8 O21 1_555 1_555
Cd8 O5_2 1_555 1_555
C1 N2 1_555 1_555
C2 C13 1_555 1_555
N3 Cd2_4 1_555 1_555
C3 C4 1_555 1_555
C8 N8 1_555 1_555
O10 C39 1_555 1_555
C10 C24 1_555 1_555
C10 O23 1_555 1_555
O11 C38 1_555 1_555
O13 Cd2_5 1_555 1_555
C16 C34 1_555 1_555
C17 C35 1_555 1_555
C17 C42 1_555 1_555
C18 C39 1_555 1_555
C22 C23 1_555 1_555
O14 Cd5_2 1_555 1_555
C27 C29 1_555 1_555
C30 C31 1_555 1_555
C32 C38 1_555 1_555
C32 C40 1_555 1_555
C33 C41 1_555 1_555
O19 C48 1_555 1_555
O20 C63 1_555 1_555
O21 C67 1_555 1_555
O22 Cd3_2 1_555 1_555
C44 C46 1_555 1_555
C44 O30 1_555 1_555
O24 Cd4_2 1_555 1_555
O24 Cd7_2 1_555 1_555
O25 Cd5_4 1_555 1_555
O26 C67 1_555 1_555
C49 C50 1_555 1_555
C55 C56 1_555 1_555
C61 C62 1_555 1_555
O27 C63 1_555 1_555
O28 C64 1_555 1_555
C64 O29 1_555 1_555
Cd2_4 O25_2 1_555 1_555
Cd5_4 O3_2 1_555 1_555
Cd6_3 O8_2 1_555 1_555
Cd7_2 O29_2 1_555 1_555

#END
