
#######################################################################
#
#                 Cambridge Crystallographic Data Centre
#                                CCDC 
#
#######################################################################
#
# If this CIF has been generated from an entry in the Cambridge 
# Structural Database, then it will include bibliographic, chemical, 
# crystal, experimental, refinement or atomic coordinate data resulting 
# from the CCDC's data processing and validation procedures.
#
#######################################################################

data_MOHNEC01
_symmetry_cell_setting           orthorhombic
_symmetry_space_group_name_H-M   'P b c n'
_symmetry_Int_Tables_number      60
_space_group_name_Hall           '-P 2n 2ab'
loop_
_symmetry_equiv_pos_site_id
_symmetry_equiv_pos_as_xyz
1 x,y,z
2 1/2-x,1/2-y,1/2+z
3 1/2+x,1/2-y,-z
4 -x,y,1/2-z
5 -x,-y,-z
6 1/2+x,1/2+y,1/2-z
7 1/2-x,1/2+y,z
8 x,-y,1/2+z
_cell_length_a                   22.543(5)
_cell_length_b                   6.7760(14)
_cell_length_c                   28.608(6)
_cell_angle_alpha                90
_cell_angle_beta                 90
_cell_angle_gamma                90
_cell_volume                     4369.91
loop_
_atom_site_label
_atom_site_type_symbol
_atom_site_fract_x
_atom_site_fract_y
_atom_site_fract_z
Pt1 Pt 0.24950(3) 0.20095(8) 0.13001(2)
N1 N 0.2014(7) 0.1712(19) 0.0705(5)
N2 N 0.1706(6) 0.2148(18) 0.1588(5)
N3 N 0.2705(7) 0.232(2) 0.1985(6)
C1 C 0.2223(10) 0.147(3) 0.0280(8)
H1 H 0.2630 0.1467 0.0227
C2 C 0.1837(13) 0.122(3) -0.0084(8)
H2 H 0.1987 0.1004 -0.0383
C3 C 0.1211(12) 0.127(3) -0.0019(8)
H3 H 0.0955 0.1138 -0.0272
C4 C 0.0991(9) 0.152(2) 0.0430(6)
H4 H 0.0588 0.1533 0.0500
C5 C 0.1434(10) 0.175(2) 0.0768(7)
C6 C 0.1241(10) 0.202(2) 0.1294(6)
C7 C 0.0660(8) 0.216(3) 0.1473(6)
H5 H 0.0329 0.2094 0.1279
C8 C 0.0610(9) 0.239(3) 0.1915(7)
H6 H 0.0229 0.2489 0.2037
C9 C 0.1071(9) 0.251(2) 0.2218(7)
H7 H 0.1007 0.2650 0.2538
C10 C 0.1647(8) 0.240(2) 0.2036(6)
C11 C 0.2220(10) 0.247(3) 0.2284(8)
C12 C 0.2284(11) 0.268(3) 0.2750(7)
H8 H 0.1949 0.2768 0.2939
C13 C 0.2810(12) 0.276(3) 0.2941(7)
H9 H 0.2850 0.2858 0.3264
C14 C 0.3335(10) 0.269(3) 0.2644(8)
H10 H 0.3711 0.2802 0.2775
C15 C 0.3271(7) 0.245(3) 0.2181(8)
H11 H 0.3604 0.2368 0.1990
C16 C 0.3314(10) 0.188(2) 0.1029(8)
C17 C 0.3785(10) 0.173(3) 0.0863(9)
C18 C 0.4289(12) 0.159(4) 0.0660(10)
C19 C 0.4703(13) 0.122(4) 0.0464(13)
H12 H 0.5048 0.0910 0.0300
Pt1F Pt 0.25050(3) -0.29905(8) 0.13001(2)
Pt1F_2 Pt 0.25050(3) 0.70095(8) 0.13001(2)
C20 C 0.1546(14) 0.399(4) 0.4078(10)
S1 S 0.1089(3) 0.1925(8) 0.38034(19)
O1 O 0.1526(9) 0.038(2) 0.3779(5)
O2 O 0.0636(6) 0.158(2) 0.4109(5)
O3 O 0.0923(6) 0.276(2) 0.3359(4)
F1 F 0.1660(8) 0.343(2) 0.4508(5)
F2 F 0.1971(9) 0.442(3) 0.3843(7)
F3 F 0.1184(9) 0.554(2) 0.4109(7)
loop_
_geom_bond_atom_site_label_1
_geom_bond_atom_site_label_2
_geom_bond_site_symmetry_1
_geom_bond_site_symmetry_2
Pt1 N1 1_555 1_555
N1 C1 1_555 1_555
N2 Pt1 1_555 1_555
N3 Pt1 1_555 1_555
C1 H1 1_555 1_555
C2 C1 1_555 1_555
H2 C2 1_555 1_555
C3 C2 1_555 1_555
H3 C3 1_555 1_555
C4 C3 1_555 1_555
H4 C4 1_555 1_555
C5 N1 1_555 1_555
C6 N2 1_555 1_555
C7 C6 1_555 1_555
H5 C7 1_555 1_555
C8 C7 1_555 1_555
H6 C8 1_555 1_555
C9 C8 1_555 1_555
H7 C9 1_555 1_555
C10 N2 1_555 1_555
C11 N3 1_555 1_555
C12 C11 1_555 1_555
H8 C12 1_555 1_555
C13 C12 1_555 1_555
H9 C13 1_555 1_555
C14 C13 1_555 1_555
H10 C14 1_555 1_555
C15 N3 1_555 1_555
H11 C15 1_555 1_555
C16 Pt1 1_555 1_555
C17 C16 1_555 1_555
C18 C17 1_555 1_555
C19 C18 1_555 1_555
H12 C19 1_555 1_555
C20 S1 1_555 1_555
S1 O1 1_555 1_555
O2 S1 1_555 1_555
O3 S1 1_555 1_555
F1 C20 1_555 1_555
F2 C20 1_555 1_555
F3 C20 1_555 1_555
Pt1F Pt1 1_555 1_555
Pt1F_2 Pt1 1_555 1_555
C4 C5 1_555 1_555
C5 C6 1_555 1_555
C9 C10 1_555 1_555
C10 C11 1_555 1_555
C14 C15 1_555 1_555

#END
