
#######################################################################
#
#                 Cambridge Crystallographic Data Centre
#                                CCDC 
#
#######################################################################
#
# If this CIF has been generated from an entry in the Cambridge 
# Structural Database, then it will include bibliographic, chemical, 
# crystal, experimental, refinement or atomic coordinate data resulting 
# from the CCDC's data processing and validation procedures.
#
#######################################################################

data_MOHPAC
_symmetry_cell_setting           orthorhombic
_symmetry_space_group_name_H-M   'P n a 21'
_symmetry_Int_Tables_number      33
_space_group_name_Hall           'P 2c -2n'
loop_
_symmetry_equiv_pos_site_id
_symmetry_equiv_pos_as_xyz
1 x,y,z
2 -x,-y,1/2+z
3 1/2-x,1/2+y,1/2+z
4 1/2+x,1/2-y,z
_cell_length_a                   8.657(5)
_cell_length_b                   14.336(5)
_cell_length_c                   9.360(5)
_cell_angle_alpha                90
_cell_angle_beta                 90
_cell_angle_gamma                90
_cell_volume                     1161.64
loop_
_atom_site_label
_atom_site_type_symbol
_atom_site_fract_x
_atom_site_fract_y
_atom_site_fract_z
Cu1 Cu 0.87062(8) 0.04398(5) 0.01026(10)
C1 C 0.6969(7) 0.0805(4) -0.2857(7)
H1 H 0.5894 0.0679 -0.2636
H2 H 0.7429 0.0241 -0.3239
C2 C 0.7088(11) 0.1586(5) -0.3930(10)
H3 H 0.6197 0.1589 -0.4559
H4 H 0.8015 0.1521 -0.4504
N1 N 0.8493(6) -0.0047(4) 0.2949(6)
N2 N 0.6898(9) -0.1053(4) -0.0557(7)
O1 O 0.9516(5) -0.0013(3) 0.1979(5)
O2 O 0.7141(6) 0.0154(6) 0.2616(8)
O3 O 0.8803(5) -0.0317(4) 0.4160(6)
O4 O 0.8348(6) -0.0831(3) -0.0547(6)
O5 O 0.5946(8) -0.0466(4) -0.0279(11)
O6 O 0.6574(12) -0.1860(5) -0.0914(9)
C3 C 0.7924(6) 0.1989(4) -0.1497(6)
C4 C 0.9932(8) 0.2243(4) 0.1620(8)
H5 H 1.0395 0.1997 0.2433
C5 C 0.9952(9) 0.3199(4) 0.1230(9)
H6 H 1.0429 0.3685 0.1718
C6 C 0.9113(7) 0.3259(4) -0.0028(9)
H7 H 0.8913 0.3792 -0.0564
N3 N 0.7792(5) 0.1103(3) -0.1572(5)
N4 N 0.8642(5) 0.2368(4) -0.0312(6)
N5 N 0.9166(6) 0.1755(3) 0.0665(6)
S1 S 0.7161(2) 0.26604(11) -0.2865(2)
Cu1A Cu 1.12938(8) -0.04398(5) 0.51026(10)
O3A O 1.1197(5) 0.0317(4) -0.0840(6)
loop_
_geom_bond_atom_site_label_1
_geom_bond_atom_site_label_2
_geom_bond_site_symmetry_1
_geom_bond_site_symmetry_2
Cu1 O1 1_555 1_555
C1 H1 1_555 1_555
H2 C1 1_555 1_555
C2 C1 1_555 1_555
H3 C2 1_555 1_555
H4 C2 1_555 1_555
N1 O1 1_555 1_555
N2 O4 1_555 1_555
O2 Cu1 1_555 1_555
O3 N1 1_555 1_555
O4 Cu1 1_555 1_555
O5 Cu1 1_555 1_555
O6 N2 1_555 1_555
C3 N3 1_555 1_555
C4 H5 1_555 1_555
C5 C4 1_555 1_555
H6 C5 1_555 1_555
C6 C5 1_555 1_555
H7 C6 1_555 1_555
N3 Cu1 1_555 1_555
N4 C3 1_555 1_555
N5 Cu1 1_555 1_555
S1 C2 1_555 1_555
Cu1A O3 1_555 1_555
O3A Cu1 1_555 1_555
C1 N3 1_555 1_555
N1 O2 1_555 1_555
N2 O5 1_555 1_555
C3 S1 1_555 1_555
C4 N5 1_555 1_555
C6 N4 1_555 1_555
N4 N5 1_555 1_555

#END
