
#######################################################################
#
#                 Cambridge Crystallographic Data Centre
#                                CCDC 
#
#######################################################################
#
# If this CIF has been generated from an entry in the Cambridge 
# Structural Database, then it will include bibliographic, chemical, 
# crystal, experimental, refinement or atomic coordinate data resulting 
# from the CCDC's data processing and validation procedures.
#
#######################################################################

data_MOHQIK
_symmetry_cell_setting           monoclinic
_symmetry_space_group_name_H-M   'P 2/c'
_symmetry_Int_Tables_number      13
_space_group_name_Hall           '-P 2yc'
loop_
_symmetry_equiv_pos_site_id
_symmetry_equiv_pos_as_xyz
1 x,y,z
2 -x,y,1/2-z
3 -x,-y,-z
4 x,-y,1/2+z
_cell_length_a                   10.283(2)
_cell_length_b                   10.358(2)
_cell_length_c                   6.7096(13)
_cell_angle_alpha                90
_cell_angle_beta                 107.45(3)
_cell_angle_gamma                90
_cell_volume                     681.759
loop_
_atom_site_label
_atom_site_type_symbol
_atom_site_fract_x
_atom_site_fract_y
_atom_site_fract_z
Cd1 Cd 0.5000 0.21579(8) 0.7500
C1 C 0.0677(8) -0.0409(8) 0.3144(12)
H1 H 0.1174 -0.1155 0.3631
C2 C 0.1188(8) 0.0814(8) 0.3605(13)
C3 C 0.2554(8) 0.1219(8) 0.4994(12)
O1 O 0.3441(6) 0.0411(5) 0.5835(9)
O2 O 0.2744(6) 0.2431(5) 0.5299(9)
O3 O 0.5872(6) 0.2040(5) 0.4686(9)
H2 H 0.5375 0.1767 0.3509
H3 H 0.6690 0.2269 0.4833
O4 O 0.5000 0.4370(8) 0.7500
H4 H 0.4300 0.4780 0.6784
H5 H 0.5700 0.4780 0.8216
S1 S 0.0000 0.1974(3) 0.2500
Cd1_2 Cd -0.5000 0.21579(8) -0.2500
C1A C -0.0677(8) -0.0409(8) 0.1856(12)
H1A H -0.1174 -0.1155 0.1369
C2A C -0.1188(8) 0.0814(8) 0.1395(13)
C3A C -0.2554(8) 0.1219(8) 0.0006(12)
O1A O -0.3441(6) 0.0411(5) -0.0835(9)
O1A_2 O 0.6559(6) 0.0411(5) 0.9165(9)
O2A O -0.2744(6) 0.2431(5) -0.0299(9)
O2A_2 O 0.7256(6) 0.2431(5) 0.9701(9)
O3A O 0.4128(6) 0.2040(5) 1.0314(9)
H2A H 0.4625 0.1767 1.1491
H3A H 0.3310 0.2269 1.0167
O5 O 0.2680(9) 0.4263(9) 0.2203(17)
O6 O 0.1383(14) 0.3765(13) 0.804(2)
loop_
_geom_bond_atom_site_label_1
_geom_bond_atom_site_label_2
_geom_bond_site_symmetry_1
_geom_bond_site_symmetry_2
Cd1 O1 1_555 1_555
C1 H1 1_555 1_555
C2 C1 1_555 1_555
C3 C2 1_555 1_555
O1 C3 1_555 1_555
O2 Cd1 1_555 1_555
O3 Cd1 1_555 1_555
H2 O3 1_555 1_555
H3 O3 1_555 1_555
O4 Cd1 1_555 1_555
H4 O4 1_555 1_555
H5 O4 1_555 1_555
S1 C2 1_555 1_555
Cd1_2 O1A 1_555 1_555
C1A C1 1_555 1_555
H1A C1A 1_555 1_555
C2A S1 1_555 1_555
C3A C2A 1_555 1_555
O1A C3A 1_555 1_555
O1A_2 Cd1 1_555 1_555
O2A Cd1_2 1_555 1_555
O2A_2 Cd1 1_555 1_555
O3A Cd1 1_555 1_555
H2A O3A 1_555 1_555
H3A O3A 1_555 1_555
C3 O2 1_555 1_555
C1A C2A 1_555 1_555
C3A O2A 1_555 1_555

#END
