
#######################################################################
#
#                 Cambridge Crystallographic Data Centre
#                                CCDC 
#
#######################################################################
#
# If this CIF has been generated from an entry in the Cambridge 
# Structural Database, then it will include bibliographic, chemical, 
# crystal, experimental, refinement or atomic coordinate data resulting 
# from the CCDC's data processing and validation procedures.
#
#######################################################################

data_MOHREH
_symmetry_cell_setting           triclinic
_symmetry_space_group_name_H-M   'P -1'
_symmetry_Int_Tables_number      2
_space_group_name_Hall           '-P 1'
loop_
_symmetry_equiv_pos_site_id
_symmetry_equiv_pos_as_xyz
1 x,y,z
2 -x,-y,-z
_cell_length_a                   7.5486(8)
_cell_length_b                   8.9123(9)
_cell_length_c                   23.177(2)
_cell_angle_alpha                99.3150(10)
_cell_angle_beta                 93.509(2)
_cell_angle_gamma                91.944(2)
_cell_volume                     1534.27
loop_
_atom_site_label
_atom_site_type_symbol
_atom_site_fract_x
_atom_site_fract_y
_atom_site_fract_z
Co1 Co -0.23778(8) 0.31257(6) 1.00282(3)
Co2 Co -1.26527(8) 0.27230(7) 1.46193(3)
N1 N -0.3772(5) 0.3112(4) 1.08032(15)
N2 N -1.1415(5) 0.2993(4) 1.38327(16)
O1 O -0.0039(5) 0.3074(4) 1.05867(16)
O2 O -0.2457(4) 0.0795(4) 0.98015(14)
O3 O -0.4750(4) 0.3153(4) 0.94861(14)
O4 O -0.2194(5) 0.5504(4) 1.01620(15)
O5 O -0.0833(4) 0.3116(3) 0.93043(12)
O6 O -0.2904(4) 0.2963(5) 0.85696(14)
O7 O 0.0129(4) -0.0185(3) 0.90370(13)
O8 O 0.2774(4) 0.0867(3) 0.93803(13)
O9 O 0.5206(5) 0.4182(4) 0.59001(15)
O10 O 0.6461(4) 0.2216(3) 0.53888(13)
O11 O 0.9744(4) 0.1169(4) 0.59800(14)
O12 O 0.7990(4) -0.0890(4) 0.56497(14)
O13 O -1.2689(5) 0.5079(4) 1.48652(16)
O14 O -1.5145(5) 0.2739(4) 1.41921(16)
O15 O -1.2688(5) 0.0312(4) 1.44084(16)
O16 O -1.0032(4) 0.2653(4) 1.50336(15)
C1 C -0.3355(7) 0.4123(6) 1.1293(2)
H1 H -0.2354 0.4767 1.1304
C2 C -0.4330(7) 0.4255(6) 1.1779(2)
H2 H -0.3999 0.4987 1.2105
C3 C -0.5810(6) 0.3291(5) 1.1781(2)
C4 C -0.6190(6) 0.2205(5) 1.1289(2)
H3 H -0.7139 0.1505 1.1276
C5 C -0.5162(6) 0.2158(5) 1.0816(2)
H4 H -0.5454 0.1422 1.0488
C6 C 0.1451(6) 0.0701(5) 0.90183(18)
C7 C 0.1471(6) 0.1538(4) 0.85017(17)
C8 C 0.2884(6) 0.1338(5) 0.81450(18)
H5 H 0.3863 0.0829 0.8264
C9 C 0.2875(6) 0.1882(5) 0.76123(18)
C10 C 0.1370(6) 0.2608(5) 0.74423(19)
H6 H 0.1283 0.2913 0.7077
C11 C 0.0008(6) 0.2880(5) 0.78107(19)
H7 H -0.0959 0.3409 0.7697
C12 C 0.0050(6) 0.2380(5) 0.83467(18)
C13 C -0.1359(6) 0.2831(5) 0.8760(2)
C14 C 0.4371(6) 0.1604(5) 0.72208(18)
C15 C 0.4573(6) 0.2406(5) 0.67612(18)
H8 H 0.3830 0.3201 0.6724
C16 C 0.5840(6) 0.2068(5) 0.63560(18)
C17 C 0.6989(6) 0.0895(5) 0.64141(18)
C18 C 0.6857(6) 0.0147(5) 0.6885(2)
H9 H 0.7646 -0.0608 0.6935
C19 C 0.5585(6) 0.0483(5) 0.7285(2)
H10 H 0.5537 -0.0041 0.7600
C20 C 0.8341(6) 0.0369(5) 0.59776(19)
C21 C 0.5849(6) 0.2901(5) 0.58449(19)
C22 C -1.0033(7) 0.3977(6) 1.3821(2)
H11 H -0.9690 0.4654 1.4162
C23 C -0.9102(7) 0.4037(6) 1.3335(2)
H12 H -0.8164 0.4750 1.3351
C24 C -0.9558(6) 0.3038(5) 1.2819(2)
C25 C -1.1037(7) 0.2081(6) 1.2827(2)
H13 H -1.1448 0.1424 1.2488
C26 C -1.1904(7) 0.2092(6) 1.3332(2)
H14 H -1.2890 0.1431 1.3321
C27 C -0.8523(7) 0.2887(5) 1.2299(2)
H15 H -0.9046 0.2332 1.1952
C28 C -0.6909(7) 0.3481(6) 1.2287(2)
H16 H -0.6419 0.4075 1.2630
H17 H -0.004(8) 0.219(3) 1.063(3)
H18 H -0.435(6) 0.321(5) 0.9163(12)
H19 H -0.257(7) 0.027(5) 1.0059(17)
H20 H -0.136(6) 0.587(7) 1.040(2)
H21 H 0.095(4) 0.325(7) 1.050(3)
H22 H -0.170(5) 0.044(5) 0.9577(19)
H23 H -0.527(6) 0.231(3) 0.945(2)
H24 H -0.314(4) 0.586(6) 1.024(2)
H25 H -1.343(5) 0.542(6) 1.4655(19)
H26 H -1.595(6) 0.217(5) 1.426(2)
H27 H -1.184(5) -0.014(6) 1.428(2)
H28 H -0.945(5) 0.205(4) 1.4816(16)
H29 H -1.181(6) 0.562(6) 1.486(3)
H30 H -1.544(10) 0.361(4) 1.416(3)
H31 H -1.317(8) -0.005(7) 1.466(2)
H32 H -1.005(7) 0.233(6) 1.5349(14)
Co2_2 Co 0.73473(8) 0.27230(7) 0.46193(3)
O10_2 O -1.3539(4) 0.2216(3) 1.53888(13)
loop_
_geom_bond_atom_site_label_1
_geom_bond_atom_site_label_2
_geom_bond_site_symmetry_1
_geom_bond_site_symmetry_2
Co1 N1 1_555 1_555
Co2 N2 1_555 1_555
N1 C1 1_555 1_555
N2 C22 1_555 1_555
O1 Co1 1_555 1_555
O2 Co1 1_555 1_555
O3 Co1 1_555 1_555
O4 Co1 1_555 1_555
O5 Co1 1_555 1_555
O6 C13 1_555 1_555
O7 C6 1_555 1_555
O8 C6 1_555 1_555
O9 C21 1_555 1_555
O10 C21 1_555 1_555
O11 C20 1_555 1_555
O12 C20 1_555 1_555
O13 Co2 1_555 1_555
O14 Co2 1_555 1_555
O15 Co2 1_555 1_555
O16 Co2 1_555 1_555
C1 H1 1_555 1_555
C2 C1 1_555 1_555
H2 C2 1_555 1_555
C3 C2 1_555 1_555
C4 C3 1_555 1_555
H3 C4 1_555 1_555
C5 N1 1_555 1_555
H4 C5 1_555 1_555
C6 C7 1_555 1_555
C7 C8 1_555 1_555
C8 H5 1_555 1_555
C9 C8 1_555 1_555
C10 C9 1_555 1_555
H6 C10 1_555 1_555
C11 C10 1_555 1_555
H7 C11 1_555 1_555
C12 C7 1_555 1_555
C13 O5 1_555 1_555
C14 C9 1_555 1_555
C15 C14 1_555 1_555
H8 C15 1_555 1_555
C16 C15 1_555 1_555
C17 C16 1_555 1_555
C18 C17 1_555 1_555
H9 C18 1_555 1_555
C19 C14 1_555 1_555
H10 C19 1_555 1_555
C20 C17 1_555 1_555
C21 C16 1_555 1_555
C22 H11 1_555 1_555
C23 C22 1_555 1_555
H12 C23 1_555 1_555
C24 C23 1_555 1_555
C25 C24 1_555 1_555
H13 C25 1_555 1_555
C26 N2 1_555 1_555
H14 C26 1_555 1_555
C27 C24 1_555 1_555
H15 C27 1_555 1_555
C28 C3 1_555 1_555
H16 C28 1_555 1_555
H17 O1 1_555 1_555
H18 O3 1_555 1_555
H19 O2 1_555 1_555
H20 O4 1_555 1_555
H21 O1 1_555 1_555
H22 O2 1_555 1_555
H23 O3 1_555 1_555
H24 O4 1_555 1_555
H25 O13 1_555 1_555
H26 O14 1_555 1_555
H27 O15 1_555 1_555
H28 O16 1_555 1_555
H29 O13 1_555 1_555
H30 O14 1_555 1_555
H31 O15 1_555 1_555
H32 O16 1_555 1_555
Co2_2 O10 1_555 1_555
O10_2 Co2 1_555 1_555
C4 C5 1_555 1_555
C11 C12 1_555 1_555
C12 C13 1_555 1_555
C18 C19 1_555 1_555
C25 C26 1_555 1_555
C27 C28 1_555 1_555

#END
