
#######################################################################
#
#                 Cambridge Crystallographic Data Centre
#                                CCDC 
#
#######################################################################
#
# If this CIF has been generated from an entry in the Cambridge 
# Structural Database, then it will include bibliographic, chemical, 
# crystal, experimental, refinement or atomic coordinate data resulting 
# from the CCDC's data processing and validation procedures.
#
#######################################################################

data_MOHRAD
_symmetry_cell_setting           triclinic
_symmetry_space_group_name_H-M   'P -1'
_symmetry_Int_Tables_number      2
_space_group_name_Hall           '-P 1'
loop_
_symmetry_equiv_pos_site_id
_symmetry_equiv_pos_as_xyz
1 x,y,z
2 -x,-y,-z
_cell_length_a                   7.5977(11)
_cell_length_b                   8.0802(12)
_cell_length_c                   12.1478(18)
_cell_angle_alpha                107.793(2)
_cell_angle_beta                 93.448(2)
_cell_angle_gamma                97.462(2)
_cell_volume                     700.132
loop_
_atom_site_label
_atom_site_type_symbol
_atom_site_fract_x
_atom_site_fract_y
_atom_site_fract_z
Zn1 Zn 0.34494(8) -0.72086(9) 0.45821(5)
N1 N 0.2165(6) -0.6828(6) 0.3070(4)
O1 O -0.4052(5) -0.4895(5) -0.7448(3)
O2 O -0.4486(5) -0.2415(5) -0.6100(3)
O3 O -0.9296(5) 0.0986(5) -1.3226(3)
O4 O -0.8264(5) -0.1573(5) -1.3792(3)
O5 O 0.1094(5) -0.7092(5) 0.5279(3)
O6 O 0.3057(6) -0.9925(6) 0.3777(4)
O7 O 0.5862(5) -0.6269(5) 0.4220(3)
C1 C -0.3345(6) -0.0715(7) -0.7820(4)
C2 C -0.3623(7) 0.0224(7) -0.8588(4)
H1 H -0.2983 0.1346 -0.8437
C3 C -0.4852(7) -0.0494(7) -0.9586(4)
C4 C -0.4265(7) 0.2190(7) -1.0206(4)
H2 H -0.3491 0.2723 -0.9530
C5 C -0.4512(7) 0.3109(7) -1.0983(4)
H3 H -0.3880 0.4235 -1.0828
C6 C -0.4322(7) -0.2381(7) -0.8016(4)
C7 C -0.4261(6) -0.3341(7) -0.7135(4)
C8 C -0.8167(7) -0.0006(7) -1.3153(4)
C9 C 0.1430(8) -0.5381(8) 0.3156(4)
H4 H 0.1402 -0.4590 0.3892
C10 C 0.0723(8) -0.5012(8) 0.2219(5)
H5 H 0.0210 -0.3996 0.2329
C11 C 0.0757(7) -0.6137(7) 0.1097(5)
C12 C 0.1463(8) -0.7688(8) 0.1015(5)
H6 H 0.1475 -0.8519 0.0292
C13 C 0.2131(8) -0.7972(8) 0.1996(5)
H7 H 0.2586 -0.9011 0.1920
C14 C 0.0199(7) -0.5763(7) 0.0030(5)
H8 H 0.0116 -0.6677 -0.0667
H9 H 0.026(5) -0.752(6) 0.477(3)
H10 H 0.204(3) -1.047(7) 0.369(5)
H11 H 0.578(9) -0.608(9) 0.359(3)
H12 H 0.112(9) -0.761(8) 0.576(4)
H13 H 0.364(10) -1.070(8) 0.380(7)
H14 H 0.650(7) -0.703(6) 0.409(5)
Zn1A Zn -0.34494(8) -0.27914(9) -0.45821(5)
Zn1_2 Zn -0.65506(8) 0.27914(9) -1.54179(5)
N1A N -0.2165(6) -0.3172(6) -0.3070(4)
O1A O -0.5948(5) 0.4895(5) -1.2552(3)
O2A O 0.4486(5) -0.7585(5) 0.6100(3)
O2A_2 O -0.5514(5) 0.2415(5) -1.3900(3)
O3A O -0.0704(5) -0.0986(5) -0.6774(3)
O4A O -0.1736(5) 0.1573(5) -0.6208(3)
O5A O -0.1094(5) -0.2908(5) -0.5279(3)
O6A O -0.3057(6) -0.0075(6) -0.3777(4)
O7A O -0.5862(5) -0.3731(5) -0.4220(3)
C1A C -0.6655(6) 0.0715(7) -1.2180(4)
C2A C -0.6377(7) -0.0224(7) -1.1412(4)
H1A H -0.7017 -0.1346 -1.1563
C3A C -0.5148(7) 0.0494(7) -1.0414(4)
C4A C -0.5735(7) -0.2190(7) -0.9794(4)
H2A H -0.6509 -0.2723 -1.0470
C5A C -0.5488(7) -0.3109(7) -0.9017(4)
H3A H -0.6120 -0.4235 -0.9172
C6A C -0.5678(7) 0.2381(7) -1.1984(4)
C7A C -0.5739(6) 0.3341(7) -1.2865(4)
C8A C -0.1833(7) 0.0006(7) -0.6847(4)
C9A C -0.1430(8) -0.4619(8) -0.3156(4)
H4A H -0.1402 -0.5410 -0.3892
C10A C -0.0723(8) -0.4988(8) -0.2219(5)
H5A H -0.0210 -0.6004 -0.2329
C11A C -0.0757(7) -0.3863(7) -0.1097(5)
C12A C -0.1463(8) -0.2312(8) -0.1015(5)
H6A H -0.1475 -0.1481 -0.0292
C13A C -0.2131(8) -0.2028(8) -0.1996(5)
H7A H -0.2586 -0.0989 -0.1920
C14A C -0.0199(7) -0.4237(7) -0.0030(5)
H8A H -0.0116 -0.3323 0.0667
H9A H -0.026(5) -0.248(6) -0.477(3)
H10A H -0.204(3) 0.047(7) -0.369(5)
H11A H -0.578(9) -0.392(9) -0.359(3)
H12A H -0.112(9) -0.239(8) -0.576(4)
H13A H -0.364(10) 0.070(8) -0.380(7)
H14A H -0.650(7) -0.297(6) -0.409(5)
loop_
_geom_bond_atom_site_label_1
_geom_bond_atom_site_label_2
_geom_bond_site_symmetry_1
_geom_bond_site_symmetry_2
Zn1 N1 1_555 1_555
N1 C9 1_555 1_555
O1 C7 1_555 1_555
O2 C7 1_555 1_555
O3 C8 1_555 1_555
O4 C8 1_555 1_555
O5 Zn1 1_555 1_555
O6 Zn1 1_555 1_555
O7 Zn1 1_555 1_555
C1 C2 1_555 1_555
C2 H1 1_555 1_555
C3 C2 1_555 1_555
C4 H2 1_555 1_555
C5 C4 1_555 1_555
H3 C5 1_555 1_555
C6 C1 1_555 1_555
C7 C6 1_555 1_555
C8 C1A 1_555 1_555
C9 H4 1_555 1_555
C10 C9 1_555 1_555
H5 C10 1_555 1_555
C11 C10 1_555 1_555
C12 C11 1_555 1_555
H6 C12 1_555 1_555
C13 N1 1_555 1_555
H7 C13 1_555 1_555
C14 C11 1_555 1_555
H8 C14 1_555 1_555
H9 O5 1_555 1_555
H10 O6 1_555 1_555
H11 O7 1_555 1_555
H12 O5 1_555 1_555
H13 O6 1_555 1_555
H14 O7 1_555 1_555
Zn1A O2 1_555 1_555
Zn1_2 O2A_2 1_555 1_555
N1A Zn1A 1_555 1_555
O1A C7A 1_555 1_555
O2A Zn1 1_555 1_555
O2A_2 C7A 1_555 1_555
O3A C8A 1_555 1_555
O4A C8A 1_555 1_555
O5A Zn1A 1_555 1_555
O6A Zn1A 1_555 1_555
O7A Zn1A 1_555 1_555
C1A C2A 1_555 1_555
C2A H1A 1_555 1_555
C3A C3 1_555 1_555
C4A C3 1_555 1_555
H2A C4A 1_555 1_555
C5A C6 1_555 1_555
H3A C5A 1_555 1_555
C6A C5 1_555 1_555
C7A C6A 1_555 1_555
C8A C1 1_555 1_555
C9A N1A 1_555 1_555
H4A C9A 1_555 1_555
C10A C9A 1_555 1_555
H5A C10A 1_555 1_555
C11A C10A 1_555 1_555
C12A C11A 1_555 1_555
H6A C12A 1_555 1_555
C13A N1A 1_555 1_555
H7A C13A 1_555 1_555
C14A C14 1_555 1_555
H8A C14A 1_555 1_555
H9A O5A 1_555 1_555
H10A O6A 1_555 1_555
H11A O7A 1_555 1_555
H12A O5A 1_555 1_555
H13A O6A 1_555 1_555
H14A O7A 1_555 1_555
C4 C3A 1_555 1_555
C12 C13 1_555 1_555
C1A C6A 1_555 1_555
C2A C3A 1_555 1_555
C4A C5A 1_555 1_555
C11A C14A 1_555 1_555
C12A C13A 1_555 1_555

#END
