
#######################################################################
#
#                 Cambridge Crystallographic Data Centre
#                                CCDC 
#
#######################################################################
#
# If this CIF has been generated from an entry in the Cambridge 
# Structural Database, then it will include bibliographic, chemical, 
# crystal, experimental, refinement or atomic coordinate data resulting 
# from the CCDC's data processing and validation procedures.
#
#######################################################################

data_MOHSAF
_symmetry_cell_setting           monoclinic
_symmetry_space_group_name_H-M   'P 21/c'
_symmetry_Int_Tables_number      14
_space_group_name_Hall           '-P 2ybc'
loop_
_symmetry_equiv_pos_site_id
_symmetry_equiv_pos_as_xyz
1 x,y,z
2 -x,1/2+y,1/2-z
3 -x,-y,-z
4 x,1/2-y,1/2+z
_cell_length_a                   16.246(3)
_cell_length_b                   7.3291(15)
_cell_length_c                   10.799(2)
_cell_angle_alpha                90
_cell_angle_beta                 99.02(3)
_cell_angle_gamma                90
_cell_volume                     1269.92
loop_
_atom_site_label
_atom_site_type_symbol
_atom_site_fract_x
_atom_site_fract_y
_atom_site_fract_z
C1 C -0.2328(5) 0.6321(12) -0.2720(8)
C2 C -0.1457(5) 0.6511(11) -0.2109(8)
C3 C -0.1199(6) 0.7551(11) -0.1027(9)
H1 H -0.1603 0.8238 -0.0677
C4 C -0.0389(5) 0.7606(12) -0.0461(9)
H2 H -0.0238 0.833 0.0269
C5 C 0.0230(5) 0.6604(11) -0.0944(8)
C6 C -0.0035(5) 0.5519(12) -0.2003(8)
H3 H 0.0362 0.4782 -0.2329
C7 C -0.0847(5) 0.5493(12) -0.2580(8)
H4 H -0.0999 0.4771 -0.3311
C8 C 0.1106(5) 0.6688(11) -0.0353(8)
C9 C 0.1380(6) 0.7693(12) 0.0724(9)
H5 H 0.098 0.8306 0.1129
C10 C 0.2206(5) 0.7828(12) 0.1219(9)
H6 H 0.2367 0.8524 0.1959
C11 C 0.2809(5) 0.6969(11) 0.0662(8)
C12 C 0.2557(6) 0.5899(12) -0.0409(9)
H7 H 0.296 0.5276 -0.08
C13 C 0.1739(5) 0.5759(12) -0.0880(9)
H8 H 0.1579 0.5008 -0.1594
C14 C 0.3684(5) 0.7276(12) 0.1156(9)
N1 N 0.4074(5) 0.6773(10) 0.2298(7)
N2 N 0.4849(5) 0.7462(10) 0.2404(7)
N3 N 0.4934(5) 0.8337(10) 0.1355(7)
N4 N 0.4213(5) 0.8225(10) 0.0555(7)
Cd1 Cd 0.61583(4) 0.97314(8) 0.10957(6)
O1 O -0.2480(4) 0.5267(8) -0.3668(6)
O2 O -0.2914(4) 0.7156(8) -0.2314(6)
O3 O 0.6148(4) 0.7552(9) -0.0457(7)
H9 H 0.652(5) 0.770(13) -0.093(7)
H10 H 0.569(5) 0.765(13) -0.112(6)
N1A N 0.5926(5) 1.1773(10) 0.2702(7)
N4B N 0.5787(5) 1.1775(10) -0.0555(7)
Cd1A Cd 0.38417(4) 0.47314(8) 0.39043(6)
Cd1B Cd 0.38417(4) 1.02686(8) -0.10957(6)
Cd1C Cd -0.38417(4) 0.52686(8) -0.39043(6)
O1C O 0.7520(4) 0.9733(8) 0.1332(6)
O2C O 0.7086(4) 0.7844(8) 0.2686(6)
loop_
_geom_bond_atom_site_label_1
_geom_bond_atom_site_label_2
_geom_bond_site_symmetry_1
_geom_bond_site_symmetry_2
C1 C2 1_555 1_555
C2 C3 1_555 1_555
C3 H1 1_555 1_555
C4 C3 1_555 1_555
H2 C4 1_555 1_555
C5 C4 1_555 1_555
C6 C5 1_555 1_555
H3 C6 1_555 1_555
C7 C2 1_555 1_555
H4 C7 1_555 1_555
C8 C5 1_555 1_555
C9 C8 1_555 1_555
H5 C9 1_555 1_555
C10 C9 1_555 1_555
H6 C10 1_555 1_555
C11 C10 1_555 1_555
C12 C11 1_555 1_555
H7 C12 1_555 1_555
C13 C8 1_555 1_555
H8 C13 1_555 1_555
C14 C11 1_555 1_555
N1 C14 1_555 1_555
N2 N1 1_555 1_555
N3 N2 1_555 1_555
N4 C14 1_555 1_555
Cd1 N3 1_555 1_555
O1 C1 1_555 1_555
O2 C1 1_555 1_555
O3 Cd1 1_555 1_555
H9 O3 1_555 1_555
H10 O3 1_555 1_555
N1A Cd1 1_555 1_555
N4B Cd1 1_555 1_555
Cd1A N1 1_555 1_555
Cd1B N4 1_555 1_555
Cd1C O1 1_555 1_555
O1C Cd1 1_555 1_555
O2C Cd1 1_555 1_555
C6 C7 1_555 1_555
C12 C13 1_555 1_555
N3 N4 1_555 1_555
O2 Cd1C 1_555 1_555

#END
