
#######################################################################
#
#                 Cambridge Crystallographic Data Centre
#                                CCDC 
#
#######################################################################
#
# If this CIF has been generated from an entry in the Cambridge 
# Structural Database, then it will include bibliographic, chemical, 
# crystal, experimental, refinement or atomic coordinate data resulting 
# from the CCDC's data processing and validation procedures.
#
#######################################################################

data_MOHSEJ
_symmetry_cell_setting           monoclinic
_symmetry_space_group_name_H-M   'P 21/c'
_symmetry_Int_Tables_number      14
_space_group_name_Hall           '-P 2ybc'
loop_
_symmetry_equiv_pos_site_id
_symmetry_equiv_pos_as_xyz
1 x,y,z
2 -x,1/2+y,1/2-z
3 -x,-y,-z
4 x,1/2-y,1/2+z
_cell_length_a                   18.1094(11)
_cell_length_b                   16.8243(10)
_cell_length_c                   17.2672(10)
_cell_angle_alpha                90
_cell_angle_beta                 110.9570(10)
_cell_angle_gamma                90
_cell_volume                     4912.92
loop_
_atom_site_label
_atom_site_type_symbol
_atom_site_fract_x
_atom_site_fract_y
_atom_site_fract_z
Co1 Co 0.15853(3) 0.68266(3) 0.49582(3)
Co2 Co 0.67582(3) 0.89971(3) 0.29437(3)
Co3 Co 0.85005(3) 0.82987(3) 0.07226(4)
Co4 Co 0.40393(3) 0.74152(3) 0.33964(3)
Co5 Co 0.0000 1.0000 0.5000
N1 N 0.6914(2) 0.8578(2) 0.1981(2)
N2 N 0.7544(2) 0.8777(2) 0.1765(2)
N3 N 0.7553(2) 0.8276(2) 0.1195(2)
N4 N 0.6955(2) 0.7747(2) 0.1018(2)
N5 N 0.5917(2) 0.7571(2) 0.1544(3)
N6 N 0.4960(2) 0.7382(2) 0.2163(2)
N7 N 0.4833(2) 0.7764(2) 0.2800(2)
N8 N 0.5332(2) 0.8339(2) 0.3094(2)
N9 N 0.5811(2) 0.8370(2) 0.2645(2)
N10 N 0.7729(2) 0.9582(2) 0.3277(2)
N11 N 0.8397(2) 0.9329(2) 0.3878(2)
N12 N 0.8915(2) 0.9878(2) 0.3969(2)
N13 N 0.8625(2) 1.0505(2) 0.3448(3)
N14 N 0.7339(2) 1.0750(2) 0.2454(3)
N15 N 0.5990(2) 1.1166(2) 0.1919(2)
N16 N 0.5298(2) 1.0775(2) 0.1815(3)
N17 N 0.5444(2) 1.0055(2) 0.2078(2)
N18 N 0.6237(2) 0.9935(2) 0.2353(2)
N19 N 0.7312(2) 0.8101(2) 0.3571(2)
N20 N 0.7731(2) 0.7575(2) 0.3303(2)
N21 N 0.8070(2) 0.7079(2) 0.3903(2)
N22 N 0.7887(2) 0.7269(2) 0.4580(2)
N23 N 0.7097(3) 0.8292(2) 0.4848(3)
N24 N 0.6469(3) 0.9439(3) 0.5111(3)
N25 N 0.6164(4) 1.0114(3) 0.4680(3)
N26 N 0.6238(3) 1.0076(2) 0.3962(3)
N27 N 0.6602(2) 0.9377(2) 0.3919(2)
N28 N 0.2541(2) 0.71001(19) 0.4780(2)
N29 N 0.2694(2) 0.6980(2) 0.4077(2)
N30 N 0.3393(2) 0.7266(2) 0.4203(2)
N31 N 0.3723(2) 0.7578(2) 0.4971(2)
N32 N 0.3293(2) 0.7681(2) 0.6111(2)
N33 N 0.3008(2) 0.7361(2) 0.7330(2)
N34 N 0.2393(2) 0.6977(3) 0.7437(2)
N35 N 0.1888(2) 0.6752(2) 0.6732(2)
N36 N 0.2153(2) 0.6980(2) 0.6123(2)
N37 N 0.1884(2) 0.5730(2) 0.5001(2)
N38 N 0.2388(2) 0.5343(2) 0.5667(2)
N39 N 0.2370(2) 0.4595(2) 0.5505(2)
N40 N 0.1854(2) 0.4457(2) 0.4727(2)
N41 N 0.1083(3) 0.5306(2) 0.3647(3)
N42 N 0.0343(3) 0.6175(2) 0.2570(2)
N43 N 0.0241(3) 0.6973(3) 0.2553(3)
N44 N 0.0632(3) 0.7293(2) 0.3275(3)
N45 N 0.1007(2) 0.6701(2) 0.3795(2)
N46 N 0.0657(2) 0.6560(2) 0.5189(2)
N47 N 0.0519(2) 0.5814(2) 0.5425(2)
N48 N -0.0121(2) 0.5840(2) 0.5596(3)
N49 N -0.0425(2) 0.6595(2) 0.5482(2)
N50 N 0.0013(2) 0.7811(2) 0.5085(3)
N51 N 0.0556(2) 0.8996(2) 0.4744(2)
N52 N 0.1243(2) 0.9158(2) 0.4612(3)
N53 N 0.1645(2) 0.8520(2) 0.4680(3)
N54 N 0.1256(2) 0.7910(2) 0.4881(2)
C1 C 0.6573(3) 0.7953(3) 0.1516(3)
C2 C 0.5569(3) 0.7774(3) 0.2094(3)
C3 C 0.7886(3) 1.0292(2) 0.3044(3)
C4 C 0.6550(2) 1.0632(2) 0.2244(2)
C5 C 0.7425(3) 0.7897(2) 0.4353(3)
C6 C 0.6738(3) 0.9004(3) 0.4628(3)
C7 C 0.3186(3) 0.7451(3) 0.5312(3)
C8 C 0.2836(2) 0.7345(2) 0.6512(2)
C9 C 0.0819(3) 0.6043(3) 0.3352(3)
C10 C 0.1583(3) 0.5174(2) 0.4436(3)
C11 C 0.0592(3) 0.8230(2) 0.4907(3)
C12 C 0.0079(3) 0.7018(2) 0.5249(3)
H1 H 0.568(3) 0.720(3) 0.124(3)
H2 H 0.743(3) 1.115(3) 0.234(3)
H3 H 0.702(3) 0.798(3) 0.531(3)
H4 H 0.375(3) 0.785(3) 0.637(3)
H5 H 0.091(3) 0.495(3) 0.342(3)
H6 H -0.038(3) 0.808(3) 0.511(3)
O1 O 0.8862(2) 0.71814(19) 0.1225(2)
H7 H 0.8498(18) 0.686(2) 0.124(3)
H8 H 0.9341(13) 0.710(3) 0.159(2)
O2 O 0.9212(2) 0.8768(2) 0.1977(2)
O3 O 0.50673(19) 0.7207(2) 0.44420(19)
H9 H 0.4997 0.6847 0.4677
H10 H 0.5480 0.7139 0.4500
O4 O 0.4077(2) 0.86329(19) 0.3746(2)
H11 H 0.3629(13) 0.881(3) 0.369(3)
H12 H 0.4493(16) 0.887(3) 0.406(3)
O5 O 0.0385(2) 1.0689(2) 0.4187(2)
H13 H 0.006(2) 1.081(3) 0.3701(17)
H14 H 0.0803(19) 1.061(3) 0.409(3)
H15 H 0.904(3) 0.867(3) 0.237(3)
H16 H 0.9694(14) 0.887(3) 0.222(3)
Co1B Co -0.15853(3) 1.31734(3) 0.50418(3)
Co2B Co -0.67582(3) 1.10029(3) 0.70563(3)
Co3B Co -0.85005(3) 1.17013(3) 0.92774(4)
Co4B Co -0.40393(3) 1.25848(3) 0.66036(3)
N1B N -0.6914(2) 1.1422(2) 0.8019(2)
N2B N -0.7544(2) 1.1223(2) 0.8235(2)
N3B N -0.7553(2) 1.1724(2) 0.8805(2)
N4B N -0.6955(2) 1.2253(2) 0.8982(2)
N5B N -0.5917(2) 1.2429(2) 0.8456(3)
N6B N -0.4960(2) 1.2618(2) 0.7837(2)
N7B N -0.4833(2) 1.2236(2) 0.7200(2)
N8B N -0.5332(2) 1.1661(2) 0.6906(2)
N9B N -0.5811(2) 1.1630(2) 0.7355(2)
N10B N -0.7729(2) 1.0418(2) 0.6723(2)
N11B N -0.8397(2) 1.0671(2) 0.6122(2)
N12B N -0.8915(2) 1.0122(2) 0.6031(2)
N13B N -0.8625(2) 0.9495(2) 0.6552(3)
N14B N -0.7339(2) 0.9250(2) 0.7546(3)
N15B N -0.5990(2) 0.8834(2) 0.8081(2)
N16B N -0.5298(2) 0.9225(2) 0.8185(3)
N17B N -0.5444(2) 0.9945(2) 0.7922(2)
N18B N -0.6237(2) 1.0065(2) 0.7647(2)
N19B N -0.7312(2) 1.1899(2) 0.6429(2)
N20B N -0.7731(2) 1.2425(2) 0.6697(2)
N21B N -0.8070(2) 1.2921(2) 0.6097(2)
N22B N -0.7887(2) 1.2731(2) 0.5420(2)
N23B N -0.7097(3) 1.1708(2) 0.5152(3)
N24B N -0.6469(3) 1.0561(3) 0.4889(3)
N25B N -0.6164(4) 0.9886(3) 0.5320(3)
N26B N -0.6238(3) 0.9924(2) 0.6038(3)
N27B N -0.6602(2) 1.0623(2) 0.6081(2)
N28B N -0.2541(2) 1.28999(19) 0.5220(2)
N29B N -0.2694(2) 1.3020(2) 0.5923(2)
N30B N -0.3393(2) 1.2734(2) 0.5797(2)
N31B N -0.3723(2) 1.2422(2) 0.5029(2)
N32B N -0.3293(2) 1.2319(2) 0.3889(2)
N33B N -0.3008(2) 1.2639(2) 0.2670(2)
N34B N -0.2393(2) 1.3023(3) 0.2563(2)
N35B N -0.1888(2) 1.3248(2) 0.3268(2)
N36B N -0.2153(2) 1.3020(2) 0.3877(2)
N37B N -0.1884(2) 1.4270(2) 0.4999(2)
N38B N -0.2388(2) 1.4657(2) 0.4333(2)
N39B N -0.2370(2) 1.5405(2) 0.4495(2)
N40B N -0.1854(2) 1.5543(2) 0.5273(2)
N41B N -0.1083(3) 1.4694(2) 0.6353(3)
N42B N -0.0343(3) 1.3825(2) 0.7430(2)
N43B N -0.0241(3) 1.3027(3) 0.7447(3)
N44B N -0.0632(3) 1.2707(2) 0.6725(3)
N45B N -0.1007(2) 1.3299(2) 0.6205(2)
N46B N -0.0657(2) 1.3440(2) 0.4811(2)
N47B N -0.0519(2) 1.4186(2) 0.4575(2)
N48B N 0.0121(2) 1.4160(2) 0.4404(3)
N49B N 0.0425(2) 1.3405(2) 0.4518(2)
N50B N -0.0013(2) 1.2189(2) 0.4915(3)
N51B N -0.0556(2) 1.1004(2) 0.5256(2)
N52B N -0.1243(2) 1.0842(2) 0.5388(3)
N53B N -0.1645(2) 1.1480(2) 0.5320(3)
N54B N -0.1256(2) 1.2090(2) 0.5119(2)
C1B C -0.6573(3) 1.2047(3) 0.8484(3)
C2B C -0.5569(3) 1.2226(3) 0.7906(3)
C3B C -0.7886(3) 0.9708(2) 0.6956(3)
C4B C -0.6550(2) 0.9368(2) 0.7756(2)
C5B C -0.7425(3) 1.2103(2) 0.5647(3)
C6B C -0.6738(3) 1.0996(3) 0.5372(3)
C7B C -0.3186(3) 1.2549(3) 0.4688(3)
C8B C -0.2836(2) 1.2655(2) 0.3488(2)
C9B C -0.0819(3) 1.3957(3) 0.6648(3)
C10B C -0.1583(3) 1.4826(2) 0.5564(3)
C11B C -0.0592(3) 1.1770(2) 0.5093(3)
C12B C -0.0079(3) 1.2982(2) 0.4751(3)
H1B H -0.568(3) 1.280(3) 0.876(3)
H2B H -0.743(3) 0.885(3) 0.766(3)
H3B H -0.702(3) 1.202(3) 0.469(3)
H4B H -0.375(3) 1.215(3) 0.363(3)
H5B H -0.091(3) 1.505(3) 0.658(3)
H6B H 0.038(3) 1.192(3) 0.489(3)
O1B O -0.8862(2) 1.28186(19) 0.8775(2)
H7B H -0.8498(18) 1.314(2) 0.876(3)
H8B H -0.9341(13) 1.290(3) 0.841(2)
O2B O -0.9212(2) 1.1232(2) 0.8023(2)
O3B O -0.50673(19) 1.2793(2) 0.55580(19)
H9B H -0.4997 1.3153 0.5323
H10B H -0.5480 1.2861 0.5500
O4B O -0.4077(2) 1.13671(19) 0.6254(2)
H11B H -0.3629(13) 1.119(3) 0.631(3)
H12B H -0.4493(16) 1.113(3) 0.594(3)
O5B O -0.0385(2) 0.9311(2) 0.5813(2)
H13B H -0.006(2) 0.919(3) 0.6299(17)
H14B H -0.0803(19) 0.939(3) 0.591(3)
H15B H -0.904(3) 1.133(3) 0.763(3)
H16B H -0.9694(14) 1.113(3) 0.778(3)
Co3A Co -0.85005(3) 1.32987(3) 0.42774(4)
Co3A_2 Co 0.14995(3) 0.32987(3) 0.42774(4)
Co3A_3 Co 0.14995(3) 1.32987(3) 0.42774(4)
Co3C Co -0.14995(3) 0.67013(3) 0.57226(4)
Co3C_2 Co -0.14995(3) 1.67013(3) 0.57226(4)
Co3C_3 Co 0.85005(3) 0.67013(3) 0.57226(4)
Co4A Co -0.40393(3) 1.24152(3) 0.16036(3)
Co4A_2 Co 0.59607(3) 1.24152(3) 0.16036(3)
Co4C Co -0.59607(3) 0.75848(3) 0.83964(3)
Co4C_2 Co 0.40393(3) 0.75848(3) 0.83964(3)
Co5_2 Co -1.0000 1.0000 0.5000
Co5_3 Co 1.0000 1.0000 0.5000
N12_2 N -0.1085(2) 0.9878(2) 0.3969(2)
N12B_2 N 0.1085(2) 1.0122(2) 0.6031(2)
N15A N 0.4010(2) 0.6166(2) 0.3081(2)
N15C N -0.4010(2) 1.3834(2) 0.6919(2)
N22A N -0.7887(2) 1.2269(2) 1.0420(2)
N22C N 0.7887(2) 0.7731(2) -0.0420(2)
N33A N -0.3008(2) 1.2361(2) 0.7670(2)
N33C N 0.3008(2) 0.7639(2) 0.2330(2)
N40A N 0.8146(2) 0.9457(2) 0.0273(2)
N40C N -0.8146(2) 1.0543(2) 0.9727(2)
N49A N -0.9575(2) 1.1595(2) 0.9518(2)
N49C N 0.9575(2) 0.8405(2) 0.0482(2)
O6 O 0.3124(6) 0.0812(6) 0.3023(8)
H17 H 0.2715 0.0520 0.2897
H18 H 0.3557 0.0941 0.3401
O7 O 0.1635(4) 0.0668(4) 0.3405(4)
H19 H 0.1410 0.0789 0.2896
H20 H 0.1356 0.0312 0.3519
O8 O 0.0797(2) 0.8846(3) 0.2569(3)
H21 H 0.0699 0.8411 0.2302
H22 H 0.1061 0.9137 0.2360
O9 O 0.7381(3) 0.4152(3) 0.1205(3)
H23 H 0.7562 0.3816 0.1606
H24 H 0.7640 0.4077 0.0859
O10 O 0.3779(8) 0.4889(9) 0.4644(7)
H25 H 0.3478 0.5088 0.4188
H26 H 0.3508 0.4554 0.4799
O11 O 0.4932(5) 0.5917(4) 0.5373(4)
H27 H 0.4750 0.6387 0.5334
H28 H 0.4554 0.5612 0.5102
O12 O 0.4800(3) 0.1304(3) 0.4469(3)
H29 H 0.525(2) 0.137(4) 0.485(3)
H30 H 0.452(4) 0.108(4) 0.403(3)
O13 O 0.1103(5) 0.0731(4) 0.1587(5)
H31 H 0.156(3) 0.050(6) 0.185(5)
H32 H 0.106(5) 0.097(5) 0.113(3)
O14 O 0.3990(7) 0.5865(8) 0.6486(13)
H33 H 0.4333 0.5998 0.6950
H34 H 0.4164 0.6002 0.6109
O15 O 0.4242(8) 0.9919(6) 0.2870(11)
H35 H 0.3957 0.9651 0.2454
H36 H 0.3901 1.0219 0.2955
O16 O 0.6227(3) 0.6505(3) 0.3874(4)
H37 H 0.6076 0.6987 0.3825
H38 H 0.6261 0.6346 0.4353
loop_
_geom_bond_atom_site_label_1
_geom_bond_atom_site_label_2
_geom_bond_site_symmetry_1
_geom_bond_site_symmetry_2
Co1 N28 1_555 1_555
Co2 N1 1_555 1_555
Co3 N3 1_555 1_555
Co4 N7 1_555 1_555
Co5 N51 1_555 1_555
N1 N2 1_555 1_555
N2 N3 1_555 1_555
N3 N4 1_555 1_555
N4 C1 1_555 1_555
N5 C1 1_555 1_555
N6 N7 1_555 1_555
N7 N8 1_555 1_555
N8 N9 1_555 1_555
N9 Co2 1_555 1_555
N10 Co2 1_555 1_555
N11 N10 1_555 1_555
N12 N11 1_555 1_555
N13 N12 1_555 1_555
N14 C3 1_555 1_555
N15 N16 1_555 1_555
N16 N17 1_555 1_555
N17 N18 1_555 1_555
N18 Co2 1_555 1_555
N19 Co2 1_555 1_555
N20 N19 1_555 1_555
N21 N20 1_555 1_555
N22 N21 1_555 1_555
N23 C5 1_555 1_555
N24 N25 1_555 1_555
N25 N26 1_555 1_555
N26 N27 1_555 1_555
N27 Co2 1_555 1_555
N28 N29 1_555 1_555
N29 N30 1_555 1_555
N30 Co4 1_555 1_555
N31 N30 1_555 1_555
N32 C7 1_555 1_555
N33 N34 1_555 1_555
N34 N35 1_555 1_555
N35 N36 1_555 1_555
N36 Co1 1_555 1_555
N37 Co1 1_555 1_555
N38 N37 1_555 1_555
N39 N38 1_555 1_555
N40 N39 1_555 1_555
N41 C9 1_555 1_555
N42 N43 1_555 1_555
N43 N44 1_555 1_555
N44 N45 1_555 1_555
N45 Co1 1_555 1_555
N46 Co1 1_555 1_555
N47 N46 1_555 1_555
N48 N47 1_555 1_555
N49 N48 1_555 1_555
N50 C11 1_555 1_555
N51 N52 1_555 1_555
N52 N53 1_555 1_555
N53 N54 1_555 1_555
N54 Co1 1_555 1_555
C1 N1 1_555 1_555
C2 N5 1_555 1_555
C3 N10 1_555 1_555
C4 N14 1_555 1_555
C5 N19 1_555 1_555
C6 N23 1_555 1_555
C7 N28 1_555 1_555
C8 N32 1_555 1_555
C9 N42 1_555 1_555
C10 N37 1_555 1_555
C11 N51 1_555 1_555
C12 N46 1_555 1_555
H1 N5 1_555 1_555
H2 N14 1_555 1_555
H3 N23 1_555 1_555
H4 N32 1_555 1_555
H5 N41 1_555 1_555
H6 N50 1_555 1_555
O1 Co3 1_555 1_555
H7 O1 1_555 1_555
H8 O1 1_555 1_555
O2 Co3 1_555 1_555
O3 Co4 1_555 1_555
H9 O3 1_555 1_555
H10 O3 1_555 1_555
O4 Co4 1_555 1_555
H11 O4 1_555 1_555
H12 O4 1_555 1_555
O5 Co5 1_555 1_555
H13 O5 1_555 1_555
H14 O5 1_555 1_555
H15 O2 1_555 1_555
H16 O2 1_555 1_555
O6 H17 1_555 1_555
H18 O6 1_555 1_555
O7 H19 1_555 1_555
H20 O7 1_555 1_555
O8 H21 1_555 1_555
H22 O8 1_555 1_555
O9 H23 1_555 1_555
H24 O9 1_555 1_555
O10 H25 1_555 1_555
H26 O10 1_555 1_555
O11 H27 1_555 1_555
H28 O11 1_555 1_555
O12 H29 1_555 1_555
H30 O12 1_555 1_555
O13 H31 1_555 1_555
H32 O13 1_555 1_555
O14 H33 1_555 1_555
H34 O14 1_555 1_555
O15 H35 1_555 1_555
H36 O15 1_555 1_555
O16 H37 1_555 1_555
H38 O16 1_555 1_555
Co1B N28B 1_555 1_555
Co2B N1B 1_555 1_555
Co3B N3B 1_555 1_555
Co4B N7B 1_555 1_555
N1B N2B 1_555 1_555
N2B N3B 1_555 1_555
N3B N4B 1_555 1_555
N4B C1B 1_555 1_555
N5B C1B 1_555 1_555
N6B N7B 1_555 1_555
N7B N8B 1_555 1_555
N8B N9B 1_555 1_555
N9B Co2B 1_555 1_555
N10B Co2B 1_555 1_555
N11B N10B 1_555 1_555
N12B N11B 1_555 1_555
N13B N12B 1_555 1_555
N14B C3B 1_555 1_555
N15B N16B 1_555 1_555
N16B N17B 1_555 1_555
N17B N18B 1_555 1_555
N18B Co2B 1_555 1_555
N19B Co2B 1_555 1_555
N20B N19B 1_555 1_555
N21B N20B 1_555 1_555
N22B N21B 1_555 1_555
N23B C5B 1_555 1_555
N24B N25B 1_555 1_555
N25B N26B 1_555 1_555
N26B N27B 1_555 1_555
N27B Co2B 1_555 1_555
N28B N29B 1_555 1_555
N29B N30B 1_555 1_555
N30B Co4B 1_555 1_555
N31B N30B 1_555 1_555
N32B C7B 1_555 1_555
N33B N34B 1_555 1_555
N34B N35B 1_555 1_555
N35B N36B 1_555 1_555
N36B Co1B 1_555 1_555
N37B Co1B 1_555 1_555
N38B N37B 1_555 1_555
N39B N38B 1_555 1_555
N40B N39B 1_555 1_555
N41B C9B 1_555 1_555
N42B N43B 1_555 1_555
N43B N44B 1_555 1_555
N44B N45B 1_555 1_555
N45B Co1B 1_555 1_555
N46B Co1B 1_555 1_555
N47B N46B 1_555 1_555
N48B N47B 1_555 1_555
N49B N48B 1_555 1_555
N50B C11B 1_555 1_555
N51B Co5 1_555 1_555
N52B N51B 1_555 1_555
N53B N52B 1_555 1_555
N54B Co1B 1_555 1_555
C1B N1B 1_555 1_555
C2B N5B 1_555 1_555
C3B N10B 1_555 1_555
C4B N14B 1_555 1_555
C5B N19B 1_555 1_555
C6B N23B 1_555 1_555
C7B N28B 1_555 1_555
C8B N32B 1_555 1_555
C9B N42B 1_555 1_555
C10B N37B 1_555 1_555
C11B N51B 1_555 1_555
C12B N46B 1_555 1_555
H1B N5B 1_555 1_555
H2B N14B 1_555 1_555
H3B N23B 1_555 1_555
H4B N32B 1_555 1_555
H5B N41B 1_555 1_555
H6B N50B 1_555 1_555
O1B Co3B 1_555 1_555
H7B O1B 1_555 1_555
H8B O1B 1_555 1_555
O2B Co3B 1_555 1_555
O3B Co4B 1_555 1_555
H9B O3B 1_555 1_555
H10B O3B 1_555 1_555
O4B Co4B 1_555 1_555
H11B O4B 1_555 1_555
H12B O4B 1_555 1_555
O5B Co5 1_555 1_555
H13B O5B 1_555 1_555
H14B O5B 1_555 1_555
H15B O2B 1_555 1_555
H16B O2B 1_555 1_555
Co3A N22B 1_555 1_555
Co3A_2 N40 1_555 1_555
Co3A_3 N49B 1_555 1_555
Co3C N49 1_555 1_555
Co3C_2 N40B 1_555 1_555
Co3C_3 N22 1_555 1_555
Co4A N33B 1_555 1_555
Co4A_2 N15 1_555 1_555
Co4C N15B 1_555 1_555
Co4C_2 N33 1_555 1_555
Co5_2 N12B 1_555 1_555
Co5_3 N12 1_555 1_555
N12_2 Co5 1_555 1_555
N12B_2 Co5 1_555 1_555
N15A Co4 1_555 1_555
N15C Co4B 1_555 1_555
N22A Co3B 1_555 1_555
N22C Co3 1_555 1_555
N33A Co4B 1_555 1_555
N33C Co4 1_555 1_555
N40A Co3 1_555 1_555
N40C Co3B 1_555 1_555
N49A Co3B 1_555 1_555
N49C Co3 1_555 1_555
N6 C2 1_555 1_555
N9 C2 1_555 1_555
N13 C3 1_555 1_555
N15 C4 1_555 1_555
N18 C4 1_555 1_555
N22 C5 1_555 1_555
N24 C6 1_555 1_555
N27 C6 1_555 1_555
N31 C7 1_555 1_555
N33 C8 1_555 1_555
N36 C8 1_555 1_555
N40 C10 1_555 1_555
N41 C10 1_555 1_555
N45 C9 1_555 1_555
N49 C12 1_555 1_555
N50 C12 1_555 1_555
N54 C11 1_555 1_555
N6B C2B 1_555 1_555
N9B C2B 1_555 1_555
N13B C3B 1_555 1_555
N15B C4B 1_555 1_555
N18B C4B 1_555 1_555
N22B C5B 1_555 1_555
N24B C6B 1_555 1_555
N27B C6B 1_555 1_555
N31B C7B 1_555 1_555
N33B C8B 1_555 1_555
N36B C8B 1_555 1_555
N40B C10B 1_555 1_555
N41B C10B 1_555 1_555
N45B C9B 1_555 1_555
N49B C12B 1_555 1_555
N50B C12B 1_555 1_555
N53B N54B 1_555 1_555
N54B C11B 1_555 1_555

#END
