
#######################################################################
#
#                 Cambridge Crystallographic Data Centre
#                                CCDC 
#
#######################################################################
#
# If this CIF has been generated from an entry in the Cambridge 
# Structural Database, then it will include bibliographic, chemical, 
# crystal, experimental, refinement or atomic coordinate data resulting 
# from the CCDC's data processing and validation procedures.
#
#######################################################################

data_MOHZAM
_symmetry_cell_setting           monoclinic
_symmetry_space_group_name_H-M   'P 21'
_symmetry_Int_Tables_number      4
_space_group_name_Hall           'P 2yb'
loop_
_symmetry_equiv_pos_site_id
_symmetry_equiv_pos_as_xyz
1 x,y,z
2 -x,1/2+y,-z
_cell_length_a                   10.3160(10)
_cell_length_b                   19.7793(19)
_cell_length_c                   10.6749(11)
_cell_angle_alpha                90
_cell_angle_beta                 118.437(2)
_cell_angle_gamma                90
_cell_volume                     1915.33
loop_
_atom_site_label
_atom_site_type_symbol
_atom_site_fract_x
_atom_site_fract_y
_atom_site_fract_z
Cu1 Cu 0.65254(6) 0.97572(3) 0.15263(6)
Cu2 Cu 0.96465(7) 0.91677(3) 0.28746(7)
Cu3 Cu 0.81423(7) 0.99751(3) -0.04408(6)
Cu4 Cu 0.97134(7) 1.07710(3) 0.24063(7)
N1 N 0.8496(5) 0.9119(2) -0.1243(4)
N2 N 1.0909(5) 0.8599(2) 0.2332(5)
N3 N 0.5790(6) 1.0192(3) -0.2445(5)
N4 N 0.3660(7) 1.0934(3) -0.3473(6)
N5 N 0.4516(5) 0.9736(3) -0.0090(5)
N6 N 0.2252(6) 0.9526(5) -0.2243(6)
N7 N 0.1744(7) 0.9255(3) -0.4654(6)
N8 N 0.6019(5) 1.0352(2) 0.2743(5)
N9 N 0.8652(5) 1.1586(2) 0.2604(4)
N10 N 0.1541(5) 1.0938(3) -0.5835(6)
O1 O 0.9220(5) 1.0546(2) -0.1129(5)
O2 O 1.0551(6) 1.1219(3) 0.0776(6)
O3 O 0.8794(4) 0.8387(2) 0.3343(4)
O4 O 0.6443(5) 0.8716(2) 0.2489(5)
O5 O 0.7398(4) 0.93249(19) 0.0455(4)
O6 O 1.0324(3) 0.98834(19) 0.2062(4)
O7 O 0.7819(4) 1.06523(18) 0.0697(4)
O8 O 0.8512(4) 0.98706(19) 0.3164(3)
C1 C 0.6906(7) 0.8729(3) -0.0344(6)
H1 H 0.5883 0.8779 -0.1060
H2 H 0.6974 0.8357 0.0275
C2 C 0.7826(6) 0.8583(3) -0.1047(5)
C3 C 0.7990(9) 0.7946(3) -0.1484(7)
H3 H 0.7518 0.7575 -0.1343
C4 C 0.8869(10) 0.7865(4) -0.2136(9)
H4 H 0.9002 0.7441 -0.2432
C5 C 0.9526(9) 0.8417(4) -0.2333(9)
H5 H 1.0108 0.8373 -0.2778
C6 C 0.9334(7) 0.9045(3) -0.1875(6)
H6 H 0.9796 0.9421 -0.2009
C7 C 1.1670(6) 0.9726(3) 0.2085(7)
H7 H 1.2488 0.9893 0.2958
H8 H 1.1709 0.9940 0.1286
C8 C 1.1786(6) 0.8969(3) 0.1996(5)
C9 C 1.2745(7) 0.8659(4) 0.1615(7)
H9 H 1.3352 0.8917 0.1379
C10 C 1.2796(8) 0.7963(4) 0.1586(8)
H10 H 1.3439 0.7747 0.1333
C11 C 1.1887(8) 0.7591(4) 0.1936(8)
H11 H 1.1903 0.7121 0.1921
C12 C 1.0954(7) 0.7926(3) 0.2307(7)
H12 H 1.0339 0.7677 0.2546
C13 C 0.7119(9) 0.7621(4) 0.3446(11)
H13 H 0.7571 0.7588 0.4465
H14 H 0.7500 0.7273 0.3086
H15 H 0.6071 0.7570 0.3046
C14 C 0.7455(6) 0.8299(3) 0.3043(6)
C15 C 1.1001(10) 1.1243(4) -0.1319(12)
H16 H 1.1555 1.1644 -0.0875
H17 H 1.0284 1.1343 -0.2284
H18 H 1.1656 1.0897 -0.1313
C16 C 1.0201(8) 1.0992(4) -0.0482(8)
C17 C 0.4765(7) 1.0514(3) -0.2992(6)
C18 C 0.2565(6) 1.0900(3) -0.4740(6)
C19 C 0.3495(6) 0.9626(3) -0.1144(6)
C20 C 0.2072(7) 0.9390(3) -0.3507(6)
C21 C 0.8434(6) 0.9978(3) 0.4428(5)
H19 H 0.9314 1.0210 0.5119
H20 H 0.8370 0.9548 0.4832
C22 C 0.7104(6) 1.0395(3) 0.4098(5)
C23 C 0.6954(7) 1.0798(4) 0.5097(7)
H21 H 0.7696 1.0809 0.6039
C24 C 0.5695(9) 1.1178(4) 0.4671(8)
H22 H 0.5591 1.1460 0.5314
C25 C 0.4575(8) 1.1134(4) 0.3261(8)
H23 H 0.3713 1.1384 0.2956
C26 C 0.4764(7) 1.0717(3) 0.2328(7)
H24 H 0.4015 1.0683 0.1392
C27 C 0.7008(7) 1.1247(3) 0.0206(6)
H25 H 0.5963 1.1143 -0.0260
H26 H 0.7232 1.1460 -0.0487
C28 C 0.7374(6) 1.1720(3) 0.1423(6)
C29 C 0.6479(7) 1.2253(3) 0.1385(7)
H27 H 0.5597 1.2340 0.0565
C30 C 0.6911(8) 1.2650(3) 0.2570(8)
H28 H 0.6323 1.3008 0.2563
C31 C 0.8218(8) 1.2515(3) 0.3767(7)
H29 H 0.8536 1.2781 0.4579
C32 C 0.9038(7) 1.1983(3) 0.3740(6)
H30 H 0.9917 1.1890 0.4558
Cu2_2 Cu -0.03535(7) 0.91677(3) -0.71254(7)
Cu4_2 Cu -0.02866(7) 1.07710(3) -0.75937(7)
N7_2 N 1.1744(7) 0.9255(3) 0.5346(6)
N10_2 N 1.1541(5) 1.0938(3) 0.4165(6)
N11 N 0.4719(15) 0.7845(7) 0.5377(13)
C33 C 0.5351(11) 0.9057(5) 0.5091(9)
H31 H 0.5635 0.9072 0.4356
H32 H 0.6151 0.9216 0.5970
H33 H 0.4505 0.9340 0.4830
C34 C 0.5005(11) 0.8391(6) 0.5265(9)
loop_
_geom_bond_atom_site_label_1
_geom_bond_atom_site_label_2
_geom_bond_site_symmetry_1
_geom_bond_site_symmetry_2
Cu1 N5 1_555 1_555
Cu2 N2 1_555 1_555
Cu3 N1 1_555 1_555
Cu4 N9 1_555 1_555
N1 C2 1_555 1_555
N2 C8 1_555 1_555
N3 Cu3 1_555 1_555
N4 C17 1_555 1_555
N5 C19 1_555 1_555
N6 C19 1_555 1_555
N7 C20 1_555 1_555
N8 Cu1 1_555 1_555
N9 C28 1_555 1_555
N10 C18 1_555 1_555
O1 Cu3 1_555 1_555
O2 Cu4 1_555 1_555
O3 Cu2 1_555 1_555
O4 Cu1 1_555 1_555
O5 Cu1 1_555 1_555
O6 Cu2 1_555 1_555
O7 Cu1 1_555 1_555
O8 Cu1 1_555 1_555
C1 O5 1_555 1_555
H1 C1 1_555 1_555
H2 C1 1_555 1_555
C2 C1 1_555 1_555
C3 C2 1_555 1_555
H3 C3 1_555 1_555
C4 C3 1_555 1_555
H4 C4 1_555 1_555
C5 C4 1_555 1_555
H5 C5 1_555 1_555
C6 N1 1_555 1_555
H6 C6 1_555 1_555
C7 O6 1_555 1_555
H7 C7 1_555 1_555
H8 C7 1_555 1_555
C8 C7 1_555 1_555
C9 C8 1_555 1_555
H9 C9 1_555 1_555
C10 C9 1_555 1_555
H10 C10 1_555 1_555
C11 C10 1_555 1_555
H11 C11 1_555 1_555
C12 N2 1_555 1_555
H12 C12 1_555 1_555
C13 H13 1_555 1_555
H14 C13 1_555 1_555
H15 C13 1_555 1_555
C14 O3 1_555 1_555
C15 H16 1_555 1_555
H17 C15 1_555 1_555
H18 C15 1_555 1_555
C16 O1 1_555 1_555
C17 N3 1_555 1_555
C18 N4 1_555 1_555
C20 N6 1_555 1_555
C21 O8 1_555 1_555
H19 C21 1_555 1_555
H20 C21 1_555 1_555
C22 N8 1_555 1_555
C23 C22 1_555 1_555
H21 C23 1_555 1_555
C24 C23 1_555 1_555
H22 C24 1_555 1_555
C25 C24 1_555 1_555
H23 C25 1_555 1_555
C26 N8 1_555 1_555
H24 C26 1_555 1_555
C27 O7 1_555 1_555
H25 C27 1_555 1_555
H26 C27 1_555 1_555
C28 C27 1_555 1_555
C29 C28 1_555 1_555
H27 C29 1_555 1_555
C30 C29 1_555 1_555
H28 C30 1_555 1_555
C31 C30 1_555 1_555
H29 C31 1_555 1_555
C32 N9 1_555 1_555
H30 C32 1_555 1_555
N11 C34 1_555 1_555
C33 H31 1_555 1_555
H32 C33 1_555 1_555
H33 C33 1_555 1_555
C34 C33 1_555 1_555
Cu2_2 N7 1_555 1_555
Cu4_2 N10 1_555 1_555
N7_2 Cu2 1_555 1_555
N10_2 Cu4 1_555 1_555
Cu2 O5 1_555 1_555
Cu2 O8 1_555 1_555
Cu3 O5 1_555 1_555
Cu3 O6 1_555 1_555
Cu3 O7 1_555 1_555
Cu4 O6 1_555 1_555
Cu4 O7 1_555 1_555
Cu4 O8 1_555 1_555
O2 C16 1_555 1_555
O4 C14 1_555 1_555
C5 C6 1_555 1_555
C11 C12 1_555 1_555
C13 C14 1_555 1_555
C15 C16 1_555 1_555
C21 C22 1_555 1_555
C25 C26 1_555 1_555
C31 C32 1_555 1_555

#END
