
#######################################################################
#
#                 Cambridge Crystallographic Data Centre
#                                CCDC 
#
#######################################################################
#
# If this CIF has been generated from an entry in the Cambridge 
# Structural Database, then it will include bibliographic, chemical, 
# crystal, experimental, refinement or atomic coordinate data resulting 
# from the CCDC's data processing and validation procedures.
#
#######################################################################

data_MOJDIA
_symmetry_cell_setting           triclinic
_symmetry_space_group_name_H-M   'P -1'
_symmetry_Int_Tables_number      2
_space_group_name_Hall           '-P 1'
loop_
_symmetry_equiv_pos_site_id
_symmetry_equiv_pos_as_xyz
1 x,y,z
2 -x,-y,-z
_cell_length_a                   13.008(4)
_cell_length_b                   16.887(5)
_cell_length_c                   18.288(7)
_cell_angle_alpha                114.561(6)
_cell_angle_beta                 92.220(13)
_cell_angle_gamma                95.181(9)
_cell_volume                     3625.92
loop_
_atom_site_label
_atom_site_type_symbol
_atom_site_fract_x
_atom_site_fract_y
_atom_site_fract_z
Cu1 Cu -0.07553(8) -0.25347(7) 0.66057(5)
Cu2 Cu 0.10534(8) -0.10399(7) 0.67014(5)
Cu3 Cu 0.0000 0.0000 1.0000
Cu4 Cu 0.17162(8) -0.04254(7) 0.50835(6)
Cu5 Cu -0.17175(8) -0.44160(7) 0.48310(6)
Cu6 Cu 0.50240(8) -0.22498(7) 0.54846(7)
Cu7 Cu 0.01049(8) -0.24795(7) 0.51490(6)
N1 N -0.5212(17) -0.4982(10) 0.1804(10)
H1 H -0.4875 -0.5061 0.1376
H2 H -0.5881 -0.5152 0.1749
N2 N -0.2337(5) -0.3378(4) 0.5228(4)
N3 N -0.2094(5) -0.2691(4) 0.5991(4)
N4 N -0.3657(5) -0.2586(4) 0.5525(4)
N5 N -0.3236(8) 0.0780(6) 0.9014(5)
H3 H -0.3813 0.0851 0.9259
H4 H -0.2696 0.1181 0.9217
N6 N -0.2832(14) -0.3064(10) 0.1681(8)
H5 H -0.2530 -0.3475 0.1310
H6 H -0.3435 -0.2932 0.1559
N7 N -0.0288(5) -0.1421(5) 0.5241(4)
N8 N -0.0009(5) -0.0733(5) 0.5999(4)
N9 N -0.1117(5) -0.0295(5) 0.5329(4)
N10 N -0.0575(11) 0.2949(8) 0.8950(6)
H7 H -0.0066 0.3096 0.9330
H8 H -0.1089 0.3272 0.9025
N11 N 0.0793(15) -0.4366(12) 0.9076(7)
H9 H 0.0982 -0.4836 0.9112
H10 H 0.0599 -0.3938 0.9502
N12 N 0.0516(5) -0.3422(4) 0.5310(4)
N13 N 0.1231(5) -0.4494(4) 0.5466(4)
N14 N 0.0299(5) -0.3379(5) 0.6062(4)
N15 N 0.2288(12) -0.4982(9) 0.1824(7)
H11 H 0.2294 -0.4593 0.1620
H12 H 0.2462 -0.5508 0.1535
N16 N 0.3931(9) -0.3223(8) 0.8364(7)
H13 H 0.3896 -0.2909 0.8883
H14 H 0.4129 -0.3751 0.8192
N17 N 0.3713(5) -0.1879(5) 0.5542(4)
N18 N 0.2284(5) -0.1321(5) 0.6097(4)
N19 N 0.2480(5) -0.1094(5) 0.5458(4)
N20 N 0.4667(10) -0.1343(12) 0.2287(8)
H15 H 0.4798 -0.1827 0.1885
H16 H 0.4727 -0.0844 0.2238
N21 N -0.3476(8) -0.3304(7) 0.9433(6)
H17 H -0.3331 -0.3387 0.9868
H18 H -0.4078 -0.3524 0.9151
N22 N -0.0233(5) -0.1604(4) 0.7676(4)
N23 N 0.0626(5) -0.1046(4) 0.7704(4)
N24 N 0.0249(5) -0.0764(4) 0.8962(4)
N25 N 0.4737(6) 0.1559(6) 0.9818(5)
H19 H 0.5053 0.1574 1.0259
H20 H 0.5025 0.1861 0.9572
C1 C -0.470(2) -0.4596(11) 0.2555(12)
C2 C -0.3745(19) -0.4324(10) 0.2719(9)
H21 H -0.3340 -0.4383 0.2282
C3 C -0.3225(12) -0.3928(9) 0.3519(7)
H22 H -0.2499 -0.3758 0.3594
C4 C -0.3760(8) -0.3804(7) 0.4147(7)
C5 C -0.4820(11) -0.4109(10) 0.4002(10)
H23 H -0.5227 -0.4041 0.4440
C6 C -0.5261(15) -0.4502(12) 0.3233(14)
H24 H -0.5975 -0.4722 0.3143
C7 C -0.3263(7) -0.3288(6) 0.4962(5)
C8 C -0.2895(7) -0.2238(5) 0.6144(5)
C9 C -0.2983(6) -0.1451(5) 0.6872(5)
C10 C -0.2179(7) -0.0799(6) 0.7214(5)
H25 H -0.1550 -0.0857 0.6958
C11 C -0.2241(8) -0.0053(6) 0.7921(6)
H26 H -0.1666 0.0388 0.8141
C12 C -0.3180(9) 0.0040(7) 0.8310(6)
C13 C -0.3992(8) -0.0616(7) 0.7956(6)
H27 H -0.4628 -0.0557 0.8201
C14 C -0.3916(7) -0.1356(6) 0.7258(5)
H28 H -0.4488 -0.1799 0.7037
C15 C -0.2356(16) -0.2624(11) 0.2459(9)
C16 C -0.1430(14) -0.2795(8) 0.2685(7)
H29 H -0.1081 -0.3234 0.2301
C17 C -0.0987(9) -0.2343(6) 0.3463(6)
H30 H -0.0342 -0.2485 0.3608
C18 C -0.1458(7) -0.1685(6) 0.4041(6)
C19 C -0.2430(9) -0.1518(7) 0.3799(8)
H31 H -0.2786 -0.1080 0.4178
C20 C -0.2863(11) -0.1980(11) 0.3024(10)
H32 H -0.3517 -0.1860 0.2871
C21 C -0.0955(6) -0.1147(5) 0.4846(5)
C22 C -0.0532(6) -0.0088(6) 0.6019(5)
C23 C -0.0536(7) 0.0715(5) 0.6758(5)
C24 C 0.0241(8) 0.0973(7) 0.7390(6)
H33 H 0.0802 0.0631 0.7319
C25 C 0.0231(10) 0.1683(7) 0.8095(6)
H34 H 0.0778 0.1829 0.8505
C26 C -0.0567(11) 0.2200(8) 0.8225(6)
C27 C -0.1379(9) 0.1958(7) 0.7613(6)
H35 H -0.1946 0.2294 0.7698
C28 C -0.1355(8) 0.1227(7) 0.6883(5)
H36 H -0.1897 0.1077 0.6469
C29 C -0.2755(8) -0.2827(6) 0.9191(6)
C30 C -0.1813(9) -0.2479(7) 0.9623(6)
H37 H -0.1665 -0.2564 1.0096
C31 C -0.1067(8) -0.2007(6) 0.9391(5)
H38 H -0.0428 -0.1762 0.9710
C32 C -0.1264(7) -0.1893(6) 0.8680(5)
C33 C -0.2204(7) -0.2237(6) 0.8254(5)
H39 H -0.2350 -0.2165 0.7774
C34 C -0.2957(8) -0.2692(7) 0.8503(7)
H40 H -0.3611 -0.2910 0.8200
C35 C -0.0445(6) -0.1413(5) 0.8443(4)
C36 C 0.0927(6) -0.0566(5) 0.8491(4)
C37 C 0.1896(7) 0.0037(5) 0.8840(4)
C38 C 0.2375(7) 0.0077(6) 0.9543(5)
H41 H 0.2052 -0.0249 0.9804
C39 C 0.3304(7) 0.0576(7) 0.9872(5)
H42 H 0.3619 0.0589 1.0355
C40 C 0.3780(7) 0.1055(6) 0.9510(6)
C41 C 0.3315(8) 0.1010(7) 0.8788(6)
H43 H 0.3648 0.1327 0.8522
C42 C 0.2388(7) 0.0513(6) 0.8465(5)
H44 H 0.2075 0.0493 0.7979
C43 C 0.0802(15) -0.4300(11) 0.8360(8)
C44 C 0.0821(18) -0.3487(13) 0.8342(11)
H45 H 0.0857 -0.2975 0.8834
C45 C 0.0788(16) -0.3408(12) 0.7587(9)
H46 H 0.0773 -0.2850 0.7580
C46 C 0.0778(8) -0.4134(6) 0.6890(5)
C47 C 0.1008(16) -0.4814(9) 0.6989(8)
H47 H 0.1151 -0.5311 0.6527
C48 C 0.1059(16) -0.4860(11) 0.7728(9)
H48 H 0.1312 -0.5361 0.7750
C49 C 0.0752(6) -0.4013(6) 0.6144(5)
C50 C 0.1073(6) -0.4082(5) 0.4976(5)
C51 C 0.1464(7) -0.4293(6) 0.4196(5)
C52 C 0.1732(17) -0.5109(11) 0.3718(9)
H49 H 0.1769 -0.5525 0.3940
C53 C 0.195(2) -0.5343(12) 0.2928(10)
H50 H 0.2057 -0.5933 0.2608
C54 C 0.2009(12) -0.4769(9) 0.2592(7)
C55 C 0.1747(11) -0.3985(9) 0.3032(7)
H51 H 0.1731 -0.3570 0.2807
C56 C 0.1493(12) -0.3754(8) 0.3825(7)
H52 H 0.1330 -0.3174 0.4122
C57 C 0.3667(9) -0.2878(8) 0.7801(7)
C58 C 0.3355(9) -0.2043(8) 0.8076(6)
H53 H 0.3284 -0.1710 0.8633
C59 C 0.3146(8) -0.1706(8) 0.7514(6)
H54 H 0.2947 -0.1132 0.7702
C60 C 0.3217(7) -0.2169(6) 0.6699(5)
C61 C 0.3520(8) -0.3021(7) 0.6429(6)
H55 H 0.3563 -0.3361 0.5869
C62 C 0.3755(8) -0.3367(7) 0.6979(6)
H56 H 0.3974 -0.3934 0.6795
C63 C 0.3050(6) -0.1795(6) 0.6127(5)
C64 C 0.3321(7) -0.1432(6) 0.5148(5)
C65 C 0.3721(6) -0.1388(6) 0.4433(5)
C66 C 0.3947(9) -0.2145(8) 0.3804(6)
H57 H 0.3885 -0.2686 0.3852
C67 C 0.4266(10) -0.2107(10) 0.3099(7)
H58 H 0.4419 -0.2631 0.2672
C68 C 0.4367(10) -0.1364(12) 0.2997(8)
C69 C 0.4195(8) -0.0607(12) 0.3631(9)
H59 H 0.4297 -0.0068 0.3582
C70 C 0.3878(7) -0.0612(8) 0.4340(7)
H60 H 0.3765 -0.0076 0.4771
Cu1A Cu 0.07553(8) -0.74653(7) 0.33943(5)
Cu2A Cu -0.10534(8) -0.89601(7) 0.32986(5)
Cu4A Cu -0.17162(8) -0.95746(7) 0.49165(6)
Cu5A Cu 0.17175(8) -0.55840(7) 0.51690(6)
Cu6A Cu -0.50240(8) -0.77502(7) 0.45154(7)
Cu7A Cu -0.01049(8) -0.75205(7) 0.48510(6)
N1A N 0.5212(17) -0.5018(10) 0.8196(10)
H1A H 0.4875 -0.4939 0.8624
H2A H 0.5881 -0.4848 0.8251
N2A N 0.2337(5) -0.6622(4) 0.4772(4)
N3A N 0.2094(5) -0.7309(4) 0.4009(4)
N4A N 0.3657(5) -0.7414(4) 0.4475(4)
N5A N 0.3236(8) -1.0780(6) 0.0986(5)
H3A H 0.3813 -1.0851 0.0741
H4A H 0.2696 -1.1181 0.0783
N6A N 0.2832(14) -0.6936(10) 0.8319(8)
H5A H 0.2530 -0.6525 0.8690
H6A H 0.3435 -0.7068 0.8441
N7A N 0.0288(5) -0.8579(5) 0.4759(4)
N8A N 0.0009(5) -0.9267(5) 0.4001(4)
N9A N 0.1117(5) -0.9705(5) 0.4671(4)
N10A N 0.0575(11) -1.2949(8) 0.1050(6)
H7A H 0.0066 -1.3096 0.0670
H8A H 0.1089 -1.3272 0.0975
N11A N -0.0793(15) -0.5634(12) 0.0924(7)
H9A H -0.0982 -0.5164 0.0888
H10A H -0.0599 -0.6062 0.0498
N12A N -0.0516(5) -0.6578(4) 0.4690(4)
N13A N -0.1231(5) -0.5506(4) 0.4534(4)
N14A N -0.0299(5) -0.6621(5) 0.3938(4)
N15A N -0.2288(12) -0.5018(9) 0.8176(7)
H11A H -0.2294 -0.5407 0.8380
H12A H -0.2462 -0.4492 0.8465
N16A N -0.3931(9) -0.6777(8) 0.1636(7)
H13A H -0.3896 -0.7091 0.1117
H14A H -0.4129 -0.6249 0.1808
N17A N -0.3713(5) -0.8121(5) 0.4458(4)
N18A N -0.2284(5) -0.8679(5) 0.3903(4)
N19A N -0.2480(5) -0.8906(5) 0.4542(4)
N20A N -0.4667(10) -0.8657(12) 0.7713(8)
H15A H -0.4798 -0.8173 0.8115
H16A H -0.4727 -0.9156 0.7762
N21A N 0.3476(8) -0.6696(7) 0.0567(6)
H17A H 0.3331 -0.6613 0.0132
H18A H 0.4078 -0.6476 0.0849
N22A N 0.0233(5) -0.8396(4) 0.2324(4)
N23A N -0.0626(5) -0.8954(4) 0.2296(4)
N24A N -0.0249(5) -0.9236(4) 0.1038(4)
N25A N -0.4737(6) -1.1559(6) 0.0182(5)
H19A H -0.5053 -1.1574 -0.0259
H20A H -0.5025 -1.1861 0.0428
C1A C 0.470(2) -0.5404(11) 0.7445(12)
C2A C 0.3745(19) -0.5676(10) 0.7281(9)
H21A H 0.3340 -0.5617 0.7718
C3A C 0.3225(12) -0.6072(9) 0.6481(7)
H22A H 0.2499 -0.6242 0.6406
C4A C 0.3760(8) -0.6196(7) 0.5853(7)
C5A C 0.4820(11) -0.5891(10) 0.5998(10)
H23A H 0.5227 -0.5959 0.5560
C6A C 0.5261(15) -0.5498(12) 0.6767(14)
H24A H 0.5975 -0.5278 0.6857
C7A C 0.3263(7) -0.6712(6) 0.5038(5)
C8A C 0.2895(7) -0.7762(5) 0.3856(5)
C9A C 0.2983(6) -0.8549(5) 0.3128(5)
C10A C 0.2179(7) -0.9201(6) 0.2786(5)
H25A H 0.1550 -0.9143 0.3042
C11A C 0.2241(8) -0.9947(6) 0.2079(6)
H26A H 0.1666 -1.0388 0.1859
C12A C 0.3180(9) -1.0040(7) 0.1690(6)
C13A C 0.3992(8) -0.9384(7) 0.2044(6)
H27A H 0.4628 -0.9443 0.1799
C14A C 0.3916(7) -0.8644(6) 0.2742(5)
H28A H 0.4488 -0.8201 0.2963
C15A C 0.2356(16) -0.7376(11) 0.7541(9)
C16A C 0.1430(14) -0.7205(8) 0.7315(7)
H29A H 0.1081 -0.6766 0.7699
C17A C 0.0987(9) -0.7657(6) 0.6537(6)
H30A H 0.0342 -0.7515 0.6392
C18A C 0.1458(7) -0.8315(6) 0.5959(6)
C19A C 0.2430(9) -0.8482(7) 0.6201(8)
H31A H 0.2786 -0.8920 0.5822
C20A C 0.2863(11) -0.8020(11) 0.6976(10)
H32A H 0.3517 -0.8140 0.7129
C21A C 0.0955(6) -0.8853(5) 0.5154(5)
C22A C 0.0532(6) -0.9912(6) 0.3981(5)
C23A C 0.0536(7) -1.0715(5) 0.3242(5)
C24A C -0.0241(8) -1.0973(7) 0.2610(6)
H33A H -0.0802 -1.0631 0.2681
C25A C -0.0231(10) -1.1683(7) 0.1905(6)
H34A H -0.0778 -1.1829 0.1495
C26A C 0.0567(11) -1.2200(8) 0.1775(6)
C27A C 0.1379(9) -1.1958(7) 0.2387(6)
H35A H 0.1946 -1.2294 0.2302
C28A C 0.1355(8) -1.1227(7) 0.3117(5)
H36A H 0.1897 -1.1077 0.3531
C29A C 0.2755(8) -0.7173(6) 0.0809(6)
C30A C 0.1813(9) -0.7521(7) 0.0377(6)
H37A H 0.1665 -0.7436 -0.0096
C31A C 0.1067(8) -0.7993(6) 0.0609(5)
H38A H 0.0428 -0.8238 0.0290
C32A C 0.1264(7) -0.8107(6) 0.1320(5)
C33A C 0.2204(7) -0.7763(6) 0.1746(5)
H39A H 0.2350 -0.7835 0.2226
C34A C 0.2957(8) -0.7308(7) 0.1497(7)
H40A H 0.3611 -0.7090 0.1800
C35A C 0.0445(6) -0.8587(5) 0.1557(4)
C36A C -0.0927(6) -0.9434(5) 0.1509(4)
C37A C -0.1896(7) -1.0037(5) 0.1160(4)
C38A C -0.2375(7) -1.0077(6) 0.0457(5)
H41A H -0.2052 -0.9751 0.0196
C39A C -0.3304(7) -1.0576(7) 0.0128(5)
H42A H -0.3619 -1.0589 -0.0355
C40A C -0.3780(7) -1.1055(6) 0.0490(6)
C41A C -0.3315(8) -1.1010(7) 0.1212(6)
H43A H -0.3648 -1.1327 0.1478
C42A C -0.2388(7) -1.0513(6) 0.1535(5)
H44A H -0.2075 -1.0493 0.2021
C43A C -0.0802(15) -0.5700(11) 0.1640(8)
C44A C -0.0821(18) -0.6513(13) 0.1658(11)
H45A H -0.0857 -0.7025 0.1166
C45A C -0.0788(16) -0.6592(12) 0.2413(9)
H46A H -0.0773 -0.7150 0.2420
C46A C -0.0778(8) -0.5866(6) 0.3110(5)
C47A C -0.1008(16) -0.5186(9) 0.3011(8)
H47A H -0.1151 -0.4689 0.3473
C48A C -0.1059(16) -0.5140(11) 0.2272(9)
H48A H -0.1312 -0.4639 0.2250
C49A C -0.0752(6) -0.5987(6) 0.3856(5)
C50A C -0.1073(6) -0.5918(5) 0.5024(5)
C51A C -0.1464(7) -0.5707(6) 0.5804(5)
C52A C -0.1732(17) -0.4891(11) 0.6282(9)
H49A H -0.1769 -0.4475 0.6060
C53A C -0.195(2) -0.4657(12) 0.7072(10)
H50A H -0.2057 -0.4067 0.7392
C54A C -0.2009(12) -0.5231(9) 0.7408(7)
C55A C -0.1747(11) -0.6015(9) 0.6968(7)
H51A H -0.1731 -0.6430 0.7193
C56A C -0.1493(12) -0.6246(8) 0.6175(7)
H52A H -0.1330 -0.6826 0.5878
C57A C -0.3667(9) -0.7122(8) 0.2199(7)
C58A C -0.3355(9) -0.7957(8) 0.1924(6)
H53A H -0.3284 -0.8290 0.1367
C59A C -0.3146(8) -0.8294(8) 0.2486(6)
H54A H -0.2947 -0.8868 0.2298
C60A C -0.3217(7) -0.7831(6) 0.3301(5)
C61A C -0.3520(8) -0.6979(7) 0.3571(6)
H55A H -0.3563 -0.6639 0.4131
C62A C -0.3755(8) -0.6633(7) 0.3021(6)
H56A H -0.3974 -0.6066 0.3205
C63A C -0.3050(6) -0.8205(6) 0.3873(5)
C64A C -0.3321(7) -0.8568(6) 0.4852(5)
C65A C -0.3721(6) -0.8612(6) 0.5567(5)
C66A C -0.3947(9) -0.7855(8) 0.6196(6)
H57A H -0.3885 -0.7314 0.6148
C67A C -0.4266(10) -0.7893(10) 0.6901(7)
H58A H -0.4419 -0.7369 0.7328
C68A C -0.4367(10) -0.8636(12) 0.7003(8)
C69A C -0.4195(8) -0.9393(12) 0.6369(9)
H59A H -0.4297 -0.9932 0.6418
C70A C -0.3878(7) -0.9388(8) 0.5660(7)
H60A H -0.3765 -0.9924 0.5229
Cu3_2 Cu 0.0000 -1.0000 0.0000
Cu4_2 Cu 0.17162(8) -1.04254(7) 0.50835(6)
Cu4A_2 Cu -0.17162(8) 0.04254(7) 0.49165(6)
Cu6_2 Cu -0.49760(8) -0.22498(7) 0.54846(7)
Cu6A_2 Cu 0.49760(8) -0.77502(7) 0.45154(7)
N4_2 N 0.6343(5) -0.2586(4) 0.5525(4)
N4A_2 N -0.6343(5) -0.7414(4) 0.4475(4)
N9_2 N -0.1117(5) -1.0295(5) 0.5329(4)
N9A_2 N 0.1117(5) 0.0295(5) 0.4671(4)
N24A_2 N -0.0249(5) 0.0764(4) 1.1038(4)
O1 O -0.5153(6) -0.3205(5) 0.0867(4)
O2 O -0.1481(17) -0.4455(14) 0.0106(11)
O3 O 0.2503(15) -0.3892(11) 0.0919(10)
O4 O 0.288(2) -0.2788(15) 0.9931(12)
O5? O -0.1970(18) -0.4257(11) 0.0341(10)
loop_
_geom_bond_atom_site_label_1
_geom_bond_atom_site_label_2
_geom_bond_site_symmetry_1
_geom_bond_site_symmetry_2
Cu1 N3 1_555 1_555
Cu2 N8 1_555 1_555
Cu3 N24 1_555 1_555
Cu4 N19 1_555 1_555
Cu5 N2 1_555 1_555
Cu6 N17 1_555 1_555
Cu7 N7 1_555 1_555
N1 H1 1_555 1_555
H2 N1 1_555 1_555
N2 N3 1_555 1_555
N3 C8 1_555 1_555
N4 C7 1_555 1_555
N5 H3 1_555 1_555
H4 N5 1_555 1_555
N6 H5 1_555 1_555
H6 N6 1_555 1_555
N7 N8 1_555 1_555
N8 C22 1_555 1_555
N9 C21 1_555 1_555
N10 H7 1_555 1_555
H8 N10 1_555 1_555
N11 H9 1_555 1_555
H10 N11 1_555 1_555
N12 Cu7 1_555 1_555
N13 C49 1_555 1_555
N14 Cu1 1_555 1_555
N15 H11 1_555 1_555
H12 N15 1_555 1_555
N16 H13 1_555 1_555
H14 N16 1_555 1_555
N17 C63 1_555 1_555
N18 Cu2 1_555 1_555
N19 N18 1_555 1_555
N20 H15 1_555 1_555
H16 N20 1_555 1_555
N21 H17 1_555 1_555
H18 N21 1_555 1_555
N22 Cu1 1_555 1_555
N23 Cu2 1_555 1_555
N24 C35 1_555 1_555
N25 H19 1_555 1_555
H20 N25 1_555 1_555
C1 N1 1_555 1_555
C2 C1 1_555 1_555
H21 C2 1_555 1_555
C3 C2 1_555 1_555
H22 C3 1_555 1_555
C4 C3 1_555 1_555
C5 C4 1_555 1_555
H23 C5 1_555 1_555
C6 C1 1_555 1_555
H24 C6 1_555 1_555
C7 N2 1_555 1_555
C8 N4 1_555 1_555
C9 C8 1_555 1_555
C10 C9 1_555 1_555
H25 C10 1_555 1_555
C11 C10 1_555 1_555
H26 C11 1_555 1_555
C12 N5 1_555 1_555
C13 C12 1_555 1_555
H27 C13 1_555 1_555
C14 C9 1_555 1_555
H28 C14 1_555 1_555
C15 N6 1_555 1_555
C16 C15 1_555 1_555
H29 C16 1_555 1_555
C17 C16 1_555 1_555
H30 C17 1_555 1_555
C18 C17 1_555 1_555
C19 C18 1_555 1_555
H31 C19 1_555 1_555
C20 C15 1_555 1_555
H32 C20 1_555 1_555
C21 N7 1_555 1_555
C22 N9 1_555 1_555
C23 C22 1_555 1_555
C24 C23 1_555 1_555
H33 C24 1_555 1_555
C25 C24 1_555 1_555
H34 C25 1_555 1_555
C26 N10 1_555 1_555
C27 C26 1_555 1_555
H35 C27 1_555 1_555
C28 C23 1_555 1_555
H36 C28 1_555 1_555
C29 N21 1_555 1_555
C30 C29 1_555 1_555
H37 C30 1_555 1_555
C31 C30 1_555 1_555
H38 C31 1_555 1_555
C32 C31 1_555 1_555
C33 C32 1_555 1_555
H39 C33 1_555 1_555
C34 C29 1_555 1_555
H40 C34 1_555 1_555
C35 N22 1_555 1_555
C36 N23 1_555 1_555
C37 C36 1_555 1_555
C38 C37 1_555 1_555
H41 C38 1_555 1_555
C39 C38 1_555 1_555
H42 C39 1_555 1_555
C40 N25 1_555 1_555
C41 C40 1_555 1_555
H43 C41 1_555 1_555
C42 C37 1_555 1_555
H44 C42 1_555 1_555
C43 N11 1_555 1_555
C44 C43 1_555 1_555
H45 C44 1_555 1_555
C45 C44 1_555 1_555
H46 C45 1_555 1_555
C46 C45 1_555 1_555
C47 C46 1_555 1_555
H47 C47 1_555 1_555
C48 C43 1_555 1_555
H48 C48 1_555 1_555
C49 N14 1_555 1_555
C50 N12 1_555 1_555
C51 C50 1_555 1_555
C52 C51 1_555 1_555
H49 C52 1_555 1_555
C53 C52 1_555 1_555
H50 C53 1_555 1_555
C54 N15 1_555 1_555
C55 C54 1_555 1_555
H51 C55 1_555 1_555
C56 C51 1_555 1_555
H52 C56 1_555 1_555
C57 N16 1_555 1_555
C58 C57 1_555 1_555
H53 C58 1_555 1_555
C59 C58 1_555 1_555
H54 C59 1_555 1_555
C60 C59 1_555 1_555
C61 C60 1_555 1_555
H55 C61 1_555 1_555
C62 C57 1_555 1_555
H56 C62 1_555 1_555
C63 N18 1_555 1_555
C64 N17 1_555 1_555
C65 C64 1_555 1_555
C66 C65 1_555 1_555
H57 C66 1_555 1_555
C67 C66 1_555 1_555
H58 C67 1_555 1_555
C68 N20 1_555 1_555
C69 C68 1_555 1_555
H59 C69 1_555 1_555
C70 C65 1_555 1_555
H60 C70 1_555 1_555
Cu1A N3A 1_555 1_555
Cu2A N8A 1_555 1_555
Cu4A N19A 1_555 1_555
Cu5A N13 1_555 1_555
Cu6A N17A 1_555 1_555
Cu7A N7A 1_555 1_555
N1A H1A 1_555 1_555
H2A N1A 1_555 1_555
N2A Cu5A 1_555 1_555
N3A N2A 1_555 1_555
N4A C7A 1_555 1_555
N5A H3A 1_555 1_555
H4A N5A 1_555 1_555
N6A H5A 1_555 1_555
H6A N6A 1_555 1_555
N7A N8A 1_555 1_555
N8A C22A 1_555 1_555
N9A C21A 1_555 1_555
N10A H7A 1_555 1_555
H8A N10A 1_555 1_555
N11A H9A 1_555 1_555
H10A N11A 1_555 1_555
N12A Cu7A 1_555 1_555
N13A Cu5 1_555 1_555
N14A Cu1A 1_555 1_555
N15A H11A 1_555 1_555
H12A N15A 1_555 1_555
N16A H13A 1_555 1_555
H14A N16A 1_555 1_555
N17A C63A 1_555 1_555
N18A Cu2A 1_555 1_555
N19A N18A 1_555 1_555
N20A H15A 1_555 1_555
H16A N20A 1_555 1_555
N21A H17A 1_555 1_555
H18A N21A 1_555 1_555
N22A Cu1A 1_555 1_555
N23A Cu2A 1_555 1_555
N24A C35A 1_555 1_555
N25A H19A 1_555 1_555
H20A N25A 1_555 1_555
C1A N1A 1_555 1_555
C2A C1A 1_555 1_555
H21A C2A 1_555 1_555
C3A C2A 1_555 1_555
H22A C3A 1_555 1_555
C4A C3A 1_555 1_555
C5A C4A 1_555 1_555
H23A C5A 1_555 1_555
C6A C1A 1_555 1_555
H24A C6A 1_555 1_555
C7A N2A 1_555 1_555
C8A N3A 1_555 1_555
C9A C8A 1_555 1_555
C10A C9A 1_555 1_555
H25A C10A 1_555 1_555
C11A C10A 1_555 1_555
H26A C11A 1_555 1_555
C12A N5A 1_555 1_555
C13A C12A 1_555 1_555
H27A C13A 1_555 1_555
C14A C9A 1_555 1_555
H28A C14A 1_555 1_555
C15A N6A 1_555 1_555
C16A C15A 1_555 1_555
H29A C16A 1_555 1_555
C17A C16A 1_555 1_555
H30A C17A 1_555 1_555
C18A C17A 1_555 1_555
C19A C18A 1_555 1_555
H31A C19A 1_555 1_555
C20A C15A 1_555 1_555
H32A C20A 1_555 1_555
C21A N7A 1_555 1_555
C22A N9A 1_555 1_555
C23A C22A 1_555 1_555
C24A C23A 1_555 1_555
H33A C24A 1_555 1_555
C25A C24A 1_555 1_555
H34A C25A 1_555 1_555
C26A N10A 1_555 1_555
C27A C26A 1_555 1_555
H35A C27A 1_555 1_555
C28A C23A 1_555 1_555
H36A C28A 1_555 1_555
C29A N21A 1_555 1_555
C30A C29A 1_555 1_555
H37A C30A 1_555 1_555
C31A C30A 1_555 1_555
H38A C31A 1_555 1_555
C32A C31A 1_555 1_555
C33A C32A 1_555 1_555
H39A C33A 1_555 1_555
C34A C29A 1_555 1_555
H40A C34A 1_555 1_555
C35A N22A 1_555 1_555
C36A N23A 1_555 1_555
C37A C36A 1_555 1_555
C38A C37A 1_555 1_555
H41A C38A 1_555 1_555
C39A C38A 1_555 1_555
H42A C39A 1_555 1_555
C40A N25A 1_555 1_555
C41A C40A 1_555 1_555
H43A C41A 1_555 1_555
C42A C37A 1_555 1_555
H44A C42A 1_555 1_555
C43A N11A 1_555 1_555
C44A C43A 1_555 1_555
H45A C44A 1_555 1_555
C45A C44A 1_555 1_555
H46A C45A 1_555 1_555
C46A C45A 1_555 1_555
C47A C46A 1_555 1_555
H47A C47A 1_555 1_555
C48A C43A 1_555 1_555
H48A C48A 1_555 1_555
C49A N13A 1_555 1_555
C50A N12A 1_555 1_555
C51A C50A 1_555 1_555
C52A C51A 1_555 1_555
H49A C52A 1_555 1_555
C53A C52A 1_555 1_555
H50A C53A 1_555 1_555
C54A N15A 1_555 1_555
C55A C54A 1_555 1_555
H51A C55A 1_555 1_555
C56A C51A 1_555 1_555
H52A C56A 1_555 1_555
C57A N16A 1_555 1_555
C58A C57A 1_555 1_555
H53A C58A 1_555 1_555
C59A C58A 1_555 1_555
H54A C59A 1_555 1_555
C60A C59A 1_555 1_555
C61A C60A 1_555 1_555
H55A C61A 1_555 1_555
C62A C57A 1_555 1_555
H56A C62A 1_555 1_555
C63A N18A 1_555 1_555
C64A N17A 1_555 1_555
C65A C64A 1_555 1_555
C66A C65A 1_555 1_555
H57A C66A 1_555 1_555
C67A C66A 1_555 1_555
H58A C67A 1_555 1_555
C68A N20A 1_555 1_555
C69A C68A 1_555 1_555
H59A C69A 1_555 1_555
C70A C65A 1_555 1_555
H60A C70A 1_555 1_555
Cu3_2 N24A 1_555 1_555
Cu4_2 N9A 1_555 1_555
Cu4A_2 N9 1_555 1_555
Cu6_2 N4 1_555 1_555
Cu6A_2 N4A 1_555 1_555
N4_2 Cu6 1_555 1_555
N4A_2 Cu6A 1_555 1_555
N9_2 Cu4A 1_555 1_555
N9A_2 Cu4 1_555 1_555
N24A_2 Cu3 1_555 1_555
N12 N14 1_555 1_555
N13 C50 1_555 1_555
N19 C64 1_555 1_555
N22 N23 1_555 1_555
N24 C36 1_555 1_555
C4 C7 1_555 1_555
C5 C6 1_555 1_555
C11 C12 1_555 1_555
C13 C14 1_555 1_555
C18 C21 1_555 1_555
C19 C20 1_555 1_555
C25 C26 1_555 1_555
C27 C28 1_555 1_555
C32 C35 1_555 1_555
C33 C34 1_555 1_555
C39 C40 1_555 1_555
C41 C42 1_555 1_555
C46 C49 1_555 1_555
C47 C48 1_555 1_555
C53 C54 1_555 1_555
C55 C56 1_555 1_555
C60 C63 1_555 1_555
C61 C62 1_555 1_555
C67 C68 1_555 1_555
C69 C70 1_555 1_555
N4A C8A 1_555 1_555
N12A N14A 1_555 1_555
N13A C50A 1_555 1_555
N14A C49A 1_555 1_555
N19A C64A 1_555 1_555
N22A N23A 1_555 1_555
N24A C36A 1_555 1_555
C4A C7A 1_555 1_555
C5A C6A 1_555 1_555
C11A C12A 1_555 1_555
C13A C14A 1_555 1_555
C18A C21A 1_555 1_555
C19A C20A 1_555 1_555
C25A C26A 1_555 1_555
C27A C28A 1_555 1_555
C32A C35A 1_555 1_555
C33A C34A 1_555 1_555
C39A C40A 1_555 1_555
C41A C42A 1_555 1_555
C46A C49A 1_555 1_555
C47A C48A 1_555 1_555
C53A C54A 1_555 1_555
C55A C56A 1_555 1_555
C60A C63A 1_555 1_555
C61A C62A 1_555 1_555
C67A C68A 1_555 1_555
C69A C70A 1_555 1_555

#END
