
#######################################################################
#
#                 Cambridge Crystallographic Data Centre
#                                CCDC 
#
#######################################################################
#
# If this CIF has been generated from an entry in the Cambridge 
# Structural Database, then it will include bibliographic, chemical, 
# crystal, experimental, refinement or atomic coordinate data resulting 
# from the CCDC's data processing and validation procedures.
#
#######################################################################

data_MOJFIA
_symmetry_cell_setting           orthorhombic
_symmetry_space_group_name_H-M   'P 21 21 21'
_symmetry_Int_Tables_number      19
_space_group_name_Hall           'P 2ac 2ab'
loop_
_symmetry_equiv_pos_site_id
_symmetry_equiv_pos_as_xyz
1 x,y,z
2 1/2-x,-y,1/2+z
3 -x,1/2+y,1/2-z
4 1/2+x,1/2-y,-z
_cell_length_a                   8.617(5)
_cell_length_b                   9.664(5)
_cell_length_c                   13.678(16)
_cell_angle_alpha                90
_cell_angle_beta                 90
_cell_angle_gamma                90
_cell_volume                     1139.03
loop_
_atom_site_label
_atom_site_type_symbol
_atom_site_fract_x
_atom_site_fract_y
_atom_site_fract_z
Cu1 Cu 0.1571(2) 0.9049(2) 0.98316(12)
S1 S 0.1668(4) 0.6429(4) 0.9013(3)
C1 C 0.1736(23) 1.1646(17) 0.8939(14)
H1 H 0.2158(23) 1.2266(17) 0.8459(14)
H2 H 0.2260(23) 1.1814(17) 0.9546(14)
S2 S -0.0205(10) 0.6980(14) 1.2675(5)
N1 N -0.1250(16) 0.5910(13) 0.9760(8)
N2 N 0.0870(14) 0.8432(13) 1.1088(9)
N3 N -0.0558(13) 0.9503(12) 0.9351(8)
H3 H -0.1253(13) 0.8934(12) 0.9633(8)
C2 C 0.0956(20) 0.9737(18) 0.7879(11)
H4 H 0.1398(20) 0.8958(18) 0.7544(11)
H5 H 0.0830(20) 1.0470(18) 0.7411(11)
N4 N 0.2019(14) 1.0180(12) 0.8639(8)
H6 H 0.3010(14) 1.0067(12) 0.8448(8)
C3 C -0.0888(18) 1.0938(14) 0.9634(10)
H7 H -0.0689(18) 1.1056(14) 1.0319(10)
H8 H -0.1964(18) 1.1138(14) 0.9519(10)
C4 C 0.0062(26) 1.1943(20) 0.9090(16)
H9 H -0.0382(26) 1.2020(20) 0.8448(16)
H10 H -0.0034(26) 1.2834(20) 0.9394(16)
C5 C -0.0616(18) 0.9333(16) 0.8281(9)
H11 H -0.1405(18) 0.9919(16) 0.8010(9)
H12 H -0.0850(18) 0.8391(16) 0.8113(9)
C6 C -0.0066(19) 0.6082(14) 0.9468(10)
C7 C 0.0419(20) 0.7839(19) 1.1748(14)
N1C N 0.3750(16) 0.9090(13) 1.0240(8)
Cu1C Cu -0.3429(2) 0.5951(2) 1.01684(12)
loop_
_geom_bond_atom_site_label_1
_geom_bond_atom_site_label_2
_geom_bond_site_symmetry_1
_geom_bond_site_symmetry_2
Cu1 S1 1_555 1_555
S1 C6 1_555 1_555
C1 H1 1_555 1_555
H2 C1 1_555 1_555
S2 C7 1_555 1_555
N1 C6 1_555 1_555
N2 Cu1 1_555 1_555
N3 Cu1 1_555 1_555
H3 N3 1_555 1_555
C2 H4 1_555 1_555
H5 C2 1_555 1_555
N4 Cu1 1_555 1_555
H6 N4 1_555 1_555
C3 N3 1_555 1_555
H7 C3 1_555 1_555
H8 C3 1_555 1_555
C4 C1 1_555 1_555
H9 C4 1_555 1_555
H10 C4 1_555 1_555
C5 N3 1_555 1_555
H11 C5 1_555 1_555
H12 C5 1_555 1_555
C7 N2 1_555 1_555
N1C Cu1 1_555 1_555
Cu1C N1 1_555 1_555
C1 N4 1_555 1_555
C2 N4 1_555 1_555
C2 C5 1_555 1_555
C3 C4 1_555 1_555

#END
