
#######################################################################
#
#                 Cambridge Crystallographic Data Centre
#                                CCDC 
#
#######################################################################
#
# If this CIF has been generated from an entry in the Cambridge 
# Structural Database, then it will include bibliographic, chemical, 
# crystal, experimental, refinement or atomic coordinate data resulting 
# from the CCDC's data processing and validation procedures.
#
#######################################################################

data_MOJLII
_symmetry_cell_setting           triclinic
_symmetry_space_group_name_H-M   'P -1'
_symmetry_Int_Tables_number      2
_space_group_name_Hall           '-P 1'
loop_
_symmetry_equiv_pos_site_id
_symmetry_equiv_pos_as_xyz
1 x,y,z
2 -x,-y,-z
_cell_length_a                   6.5572(4)
_cell_length_b                   7.0804(4)
_cell_length_c                   11.8406(6)
_cell_angle_alpha                77.390(3)
_cell_angle_beta                 75.780(3)
_cell_angle_gamma                79.845(3)
_cell_volume                     515.641
loop_
_atom_site_label
_atom_site_type_symbol
_atom_site_fract_x
_atom_site_fract_y
_atom_site_fract_z
Cu1 Cu 0.5000 1.0000 0.5000
Cu2 Cu 0.0000 1.0000 0.5000
O1 O 0.47579(18) 1.08335(19) 0.33456(9)
O2 O 0.3018(3) 0.7134(2) 0.50988(14)
O3 O 0.12978(18) 1.09780(19) 0.33722(9)
O4 O 0.3160(3) 1.5080(2) -0.24918(11)
O5 O 0.6350(3) 1.3630(3) -0.27354(11)
N1 N 0.4626(3) 1.4028(2) -0.21176(11)
N2 N 0.2017(2) 1.1206(2) 0.55768(11)
N3 N 0.1484(2) 1.1468(2) 0.65977(12)
N4 N 0.0974(3) 1.1718(3) 0.75494(16)
C1 C 0.3598(2) 1.1882(2) 0.15484(12)
C2 C 0.5656(2) 1.1843(2) 0.08724(12)
H1 H 0.6797 1.1370 0.1237
C3 C 0.6021(3) 1.2504(2) -0.03433(13)
H2 H 0.7391 1.2467 -0.0807
C4 C 0.4276(3) 1.3219(2) -0.08417(12)
C5 C 0.2220(3) 1.3243(2) -0.02019(13)
H3 H 0.1087 1.3710 -0.0573
C6 C 0.1877(3) 1.2555(2) 0.10070(13)
H4 H 0.0500 1.2541 0.1458
C7 C 0.3184(2) 1.1173(2) 0.28742(12)
H5 H 0.277(5) 0.642(4) 0.572(3)
H6 H 0.303(5) 0.638(4) 0.470(3)
O1A O -0.47579(18) 0.91665(19) 0.66544(9)
O2A O -0.3018(3) 1.2866(2) 0.49012(14)
O3A O -0.12978(18) 0.90220(19) 0.66278(9)
O4A O -0.3160(3) 0.4920(2) 1.24918(11)
O5A O -0.6350(3) 0.6370(3) 1.27354(11)
N1A N -0.4626(3) 0.5972(2) 1.21176(11)
N2A N -0.2017(2) 0.8794(2) 0.44232(11)
N3A N -0.1484(2) 0.8532(2) 0.34023(12)
N4A N -0.0974(3) 0.8282(3) 0.24506(16)
C1A C -0.3598(2) 0.8118(2) 0.84516(12)
C2A C -0.5656(2) 0.8157(2) 0.91276(12)
H1A H -0.6797 0.8630 0.8763
C3A C -0.6021(3) 0.7496(2) 1.03433(13)
H2A H -0.7391 0.7533 1.0807
C4A C -0.4276(3) 0.6781(2) 1.08417(12)
C5A C -0.2220(3) 0.6757(2) 1.02019(13)
H3A H -0.1087 0.6290 1.0573
C6A C -0.1877(3) 0.7445(2) 0.89930(13)
H4A H -0.0500 0.7459 0.8542
C7A C -0.3184(2) 0.8827(2) 0.71258(12)
H5A H -0.277(5) 1.358(4) 0.428(3)
H6A H -0.303(5) 1.362(4) 0.530(3)
Cu1_2 Cu -0.5000 1.0000 0.5000
O1A_2 O 0.52421(18) 0.91665(19) 0.66544(9)
O2A_2 O 0.6982(3) 1.2866(2) 0.49012(14)
N2A_2 N 0.7983(2) 0.8794(2) 0.44232(11)
loop_
_geom_bond_atom_site_label_1
_geom_bond_atom_site_label_2
_geom_bond_site_symmetry_1
_geom_bond_site_symmetry_2
Cu1 O1 1_555 1_555
Cu2 O2 1_555 1_555
O1 C7 1_555 1_555
O2 Cu1 1_555 1_555
O3 Cu2 1_555 1_555
O4 N1 1_555 1_555
O5 N1 1_555 1_555
N1 C4 1_555 1_555
N2 Cu1 1_555 1_555
N3 N2 1_555 1_555
N4 N3 1_555 1_555
C1 C2 1_555 1_555
C2 H1 1_555 1_555
C3 C2 1_555 1_555
H2 C3 1_555 1_555
C4 C3 1_555 1_555
C5 C4 1_555 1_555
H3 C5 1_555 1_555
C6 C1 1_555 1_555
H4 C6 1_555 1_555
C7 O3 1_555 1_555
H5 O2 1_555 1_555
H6 O2 1_555 1_555
O1A C7A 1_555 1_555
O2A Cu2 1_555 1_555
O3A Cu2 1_555 1_555
O4A N1A 1_555 1_555
O5A N1A 1_555 1_555
N1A C4A 1_555 1_555
N2A Cu2 1_555 1_555
N3A N2A 1_555 1_555
N4A N3A 1_555 1_555
C1A C2A 1_555 1_555
C2A H1A 1_555 1_555
C3A C2A 1_555 1_555
H2A C3A 1_555 1_555
C4A C3A 1_555 1_555
C5A C4A 1_555 1_555
H3A C5A 1_555 1_555
C6A C1A 1_555 1_555
H4A C6A 1_555 1_555
C7A O3A 1_555 1_555
H5A O2A 1_555 1_555
H6A O2A 1_555 1_555
Cu1_2 O1A 1_555 1_555
O1A_2 Cu1 1_555 1_555
O2A_2 Cu1 1_555 1_555
N2A_2 Cu1 1_555 1_555
Cu2 N2 1_555 1_555
C1 C7 1_555 1_555
C5 C6 1_555 1_555
O2A Cu1_2 1_555 1_555
N2A Cu1_2 1_555 1_555
C1A C7A 1_555 1_555
C5A C6A 1_555 1_555

#END
