
#######################################################################
#
#                 Cambridge Crystallographic Data Centre
#                                CCDC 
#
#######################################################################
#
# If this CIF has been generated from an entry in the Cambridge 
# Structural Database, then it will include bibliographic, chemical, 
# crystal, experimental, refinement or atomic coordinate data resulting 
# from the CCDC's data processing and validation procedures.
#
#######################################################################

data_MOJLUU
_symmetry_cell_setting           monoclinic
_symmetry_space_group_name_H-M   'P 21/c'
_symmetry_Int_Tables_number      14
_space_group_name_Hall           '-P 2ybc'
loop_
_symmetry_equiv_pos_site_id
_symmetry_equiv_pos_as_xyz
1 x,y,z
2 -x,1/2+y,1/2-z
3 -x,-y,-z
4 x,1/2-y,1/2+z
_cell_length_a                   18.045(4)
_cell_length_b                   15.186(3)
_cell_length_c                   12.340(3)
_cell_angle_alpha                90
_cell_angle_beta                 101.39(3)
_cell_angle_gamma                90
_cell_volume                     3314.95
loop_
_atom_site_label
_atom_site_type_symbol
_atom_site_fract_x
_atom_site_fract_y
_atom_site_fract_z
Cu1 Cu 0.22837(4) 0.74455(5) 0.75548(5)
Cu2 Cu 0.27242(4) 0.74249(5) 1.02869(5)
O1 O 0.1363(2) 0.6906(3) 0.7908(3)
N1 N 0.2464(3) 0.8164(3) 0.8930(4)
O2 O 0.3304(2) 0.6629(3) 0.8171(3)
N2 N 0.2054(3) 0.6881(4) 0.6075(4)
N3 N -0.0947(3) 0.5897(3) 0.9273(4)
N4 N 0.1549(3) 0.6386(4) 0.5702(4)
O3 O 0.1836(2) 0.6405(3) 0.9610(3)
O4 O 0.3658(2) 0.6981(3) 0.9956(3)
C1 C -0.0576(3) 0.5343(4) 0.8660(4)
C2 C 0.1311(3) 0.6558(4) 0.8822(5)
N5 N 0.2613(3) 0.8947(4) 0.8947(4)
C3 C 0.4596(3) 0.6414(4) 0.9079(5)
C4 C 0.0508(3) 0.6322(4) 0.8944(4)
C5 C 0.5688(4) 0.5966(4) 0.8313(5)
N6 N 0.6114(3) 0.5914(4) 0.9364(5)
C6 C 0.3777(4) 0.6696(4) 0.9044(5)
N7 N 0.1079(3) 0.5908(4) 0.5364(5)
C7 C -0.0601(3) 0.6637(4) 0.9702(4)
C8 C 0.0148(3) 0.5546(4) 0.8454(4)
C9 C -0.1015(3) 0.7243(4) 1.0350(5)
C10 C 0.0485(3) 0.4962(4) 0.7779(4)
H1 H 0.0958 0.5092 0.7627
C11 C -0.0945(3) 0.4556(4) 0.8213(5)
H2 H -0.1420 0.4415 0.8351
C12 C 0.0139(3) 0.6848(4) 0.9559(4)
H3 H 0.0375 0.7352 0.9889
C13 C -0.0844(4) 0.8136(4) 1.0432(5)
H4 H -0.0474 0.8360 1.0079
C14 C -0.0603(4) 0.4007(4) 0.7579(5)
H5 H -0.0846 0.3493 0.7293
C15 C 0.0115(4) 0.4212(4) 0.7355(5)
H6 H 0.0338 0.3837 0.6917
C16 C 0.6299(3) 0.6055(5) 1.1386(5)
C17 C -0.1218(4) 0.8702(5) 1.1036(5)
H7 H -0.1102 0.9299 1.1082
C18 C 0.5054(3) 0.6351(4) 1.0102(5)
H8 H 0.4848 0.6473 1.0720
C19 C 0.4905(3) 0.6212(4) 0.8113(5)
C20 C 0.4516(4) 0.6260(5) 0.7005(5)
H9 H 0.4007 0.6415 0.6852
C21 C -0.1763(4) 0.8362(5) 1.1564(5)
H10 H -0.2015 0.8736 1.1967
C22 C 0.5829(3) 0.6107(4) 1.0266(5)
C23 C 0.7294(4) 0.5400(6) 1.2737(8)
H11 H 0.7670 0.4976 1.2919
C24 C 0.6884(4) 0.5444(4) 1.1669(6)
H12 H 0.6999 0.5065 1.1134
C25 C -0.1567(3) 0.6914(4) 1.0883(5)
H13 H -0.1690 0.6319 1.0830
C26 C 0.4877(5) 0.6082(5) 0.6148(6)
H14 H 0.4608 0.6115 0.5424
C27 C 0.6146(4) 0.6625(5) 1.2205(5)
H15 H 0.5756 0.7033 1.2033
C28 C 0.5646(4) 0.5849(5) 0.6346(6)
H16 H 0.5883 0.5737 0.5756
C29 C -0.1938(4) 0.7476(5) 1.1501(5)
H17 H -0.2301 0.7254 1.1867
C30 C 0.6043(4) 0.5790(5) 0.7400(6)
H18 H 0.6552 0.5633 0.7528
C31 C 0.6574(5) 0.6589(6) 1.3278(6)
H19 H 0.6473 0.6975 1.3816
C32 C 0.7152(5) 0.5975(7) 1.3542(7)
H20 H 0.7442 0.5951 1.4253
N8 N 0.2923(3) 0.8225(3) 0.6754(4)
N9 N 0.3576(3) 0.8387(4) 0.7224(4)
N10 N 0.4179(3) 0.8551(4) 0.7648(5)
N11 N 0.2748(4) 0.9678(4) 0.8967(5)
H21 H 0.663(4) 0.574(5) 0.959(6)
Cu2C Cu 0.27242(4) 0.75751(5) 0.52869(5)
N2C N 0.2054(3) 0.8119(4) 1.1075(4)
N8C N 0.2923(3) 0.6775(3) 1.1754(4)
O5 O 0.7582(2) 0.5266(3) 0.9267(4)
H22 H 0.8004 0.5533 0.9405
H23 H 0.7559 0.4876 0.9753
loop_
_geom_bond_atom_site_label_1
_geom_bond_atom_site_label_2
_geom_bond_site_symmetry_1
_geom_bond_site_symmetry_2
Cu1 O1 1_555 1_555
Cu2 N1 1_555 1_555
O1 C2 1_555 1_555
N1 Cu1 1_555 1_555
O2 Cu1 1_555 1_555
N2 Cu1 1_555 1_555
N3 C1 1_555 1_555
N4 N2 1_555 1_555
O3 Cu2 1_555 1_555
O4 Cu2 1_555 1_555
C1 C8 1_555 1_555
C2 O3 1_555 1_555
N5 N1 1_555 1_555
C3 C6 1_555 1_555
C4 C2 1_555 1_555
C5 N6 1_555 1_555
N6 C22 1_555 1_555
C6 O2 1_555 1_555
N7 N4 1_555 1_555
C7 N3 1_555 1_555
C8 C4 1_555 1_555
C9 C7 1_555 1_555
C10 C8 1_555 1_555
H1 C10 1_555 1_555
C11 C1 1_555 1_555
H2 C11 1_555 1_555
C12 C4 1_555 1_555
H3 C12 1_555 1_555
C13 C9 1_555 1_555
H4 C13 1_555 1_555
C14 C11 1_555 1_555
H5 C14 1_555 1_555
C15 C10 1_555 1_555
H6 C15 1_555 1_555
C16 C22 1_555 1_555
C17 C13 1_555 1_555
H7 C17 1_555 1_555
C18 C3 1_555 1_555
H8 C18 1_555 1_555
C19 C3 1_555 1_555
C20 C19 1_555 1_555
H9 C20 1_555 1_555
C21 C17 1_555 1_555
H10 C21 1_555 1_555
C22 C18 1_555 1_555
C23 H11 1_555 1_555
C24 C16 1_555 1_555
H12 C24 1_555 1_555
C25 C9 1_555 1_555
H13 C25 1_555 1_555
C26 C20 1_555 1_555
H14 C26 1_555 1_555
C27 C16 1_555 1_555
H15 C27 1_555 1_555
C28 C26 1_555 1_555
H16 C28 1_555 1_555
C29 C21 1_555 1_555
H17 C29 1_555 1_555
C30 C5 1_555 1_555
H18 C30 1_555 1_555
C31 C27 1_555 1_555
H19 C31 1_555 1_555
C32 C23 1_555 1_555
H20 C32 1_555 1_555
N8 Cu1 1_555 1_555
N9 N8 1_555 1_555
N10 N9 1_555 1_555
N11 N5 1_555 1_555
H21 N6 1_555 1_555
O5 H22 1_555 1_555
H23 O5 1_555 1_555
Cu2C N2 1_555 1_555
N2C Cu2 1_555 1_555
N8C Cu2 1_555 1_555
O4 C6 1_555 1_555
C5 C19 1_555 1_555
C7 C12 1_555 1_555
C14 C15 1_555 1_555
C23 C24 1_555 1_555
C25 C29 1_555 1_555
C28 C30 1_555 1_555
C31 C32 1_555 1_555
N8 Cu2C 1_555 1_555

#END
