
#######################################################################
#
#                 Cambridge Crystallographic Data Centre
#                                CCDC 
#
#######################################################################
#
# If this CIF has been generated from an entry in the Cambridge 
# Structural Database, then it will include bibliographic, chemical, 
# crystal, experimental, refinement or atomic coordinate data resulting 
# from the CCDC's data processing and validation procedures.
#
#######################################################################

data_MOJQIN
_symmetry_cell_setting           monoclinic
_symmetry_space_group_name_H-M   'C 2/c'
_symmetry_Int_Tables_number      15
_space_group_name_Hall           '-C 2yn'
loop_
_symmetry_equiv_pos_site_id
_symmetry_equiv_pos_as_xyz
1 x,y,z
2 -x,y,1/2-z
3 1/2+x,1/2+y,z
4 1/2-x,1/2+y,1/2-z
5 -x,-y,-z
6 x,-y,1/2+z
7 1/2-x,1/2-y,-z
8 1/2+x,1/2-y,1/2+z
_cell_length_a                   9.6212(12)
_cell_length_b                   25.086(3)
_cell_length_c                   9.6024(12)
_cell_angle_alpha                90
_cell_angle_beta                 112.263(2)
_cell_angle_gamma                90
_cell_volume                     2144.84
loop_
_atom_site_label
_atom_site_type_symbol
_atom_site_fract_x
_atom_site_fract_y
_atom_site_fract_z
Co1 Co 0.2500 0.2500 0.5000
O1 O 0.3126(2) 0.24198(9) 0.7330(2)
N1 N 0.3198(3) 0.33196(11) 0.5251(3)
C1 C 0.4521(4) 0.23609(11) 0.7995(4)
O2 O 0.5211(3) 0.23116(9) 0.9396(2)
N2 N 0.2121(4) 0.45649(11) 0.6527(4)
H1 H 0.1659 0.4418 0.7038
C2 C 0.2543(4) 0.36842(13) 0.5816(4)
H2 H 0.1797 0.3572 0.6143
O3 O 0.2669(5) 0.53596(12) 0.5759(6)
C3 C 0.4272(4) 0.34884(15) 0.4786(5)
H3 H 0.4729 0.3241 0.4375
N3 N 0.0000 0.61996(17) 0.7500
C4 C 0.4728(5) 0.40108(16) 0.4889(5)
H4 H 0.5486 0.4111 0.4565
C5 C 0.4056(5) 0.43856(16) 0.5476(5)
H5 H 0.4355 0.4740 0.5560
C6 C 0.2919(4) 0.42220(14) 0.5940(4)
C7 C 0.1997(5) 0.51046(15) 0.6377(5)
C8 C 0.0949(4) 0.53686(14) 0.6973(4)
C9 C 0.0000 0.5092(2) 0.7500
H6 H 0.0000 0.4721 0.7500
C10 C 0.0893(5) 0.59242(14) 0.6979(4)
H7 H 0.1507 0.6113 0.6603
O1A O 0.6874(2) 0.24198(9) 0.7670(2)
C1A C 0.5479(4) 0.23609(11) 0.7005(4)
O2A O 0.4789(3) 0.23116(9) 0.5604(2)
N1A N -0.3198(3) 0.33196(11) 0.9749(3)
N2A N -0.2121(4) 0.45649(11) 0.8473(4)
H1A H -0.1659 0.4418 0.7962
C2A C -0.2543(4) 0.36842(13) 0.9184(4)
H2A H -0.1797 0.3572 0.8857
O3A O -0.2669(5) 0.53596(12) 0.9241(6)
C3A C -0.4272(4) 0.34884(15) 1.0214(5)
H3A H -0.4729 0.3241 1.0625
C4A C -0.4728(5) 0.40108(16) 1.0111(5)
H4A H -0.5486 0.4111 1.0435
C5A C -0.4056(5) 0.43856(16) 0.9524(5)
H5A H -0.4355 0.4740 0.9440
C6A C -0.2919(4) 0.42220(14) 0.9060(4)
C7A C -0.1997(5) 0.51046(15) 0.8623(5)
C8A C -0.0949(4) 0.53686(14) 0.8027(4)
C10A C -0.0893(5) 0.59242(14) 0.8021(4)
H7A H -0.1507 0.6113 0.8397
Co1A Co -0.2500 0.2500 1.0000
Co1A_2 Co 0.7500 0.2500 1.0000
O1F O 0.1874(2) 0.25802(9) 0.2670(2)
N1F N 0.1802(3) 0.16804(11) 0.4749(3)
O2G O 0.0211(3) 0.26884(9) 0.4396(2)
O4 O -0.1852(5) 0.30604(14) 0.5800(5)
H8 H -0.1081 0.2866 0.6211
H9 H -0.1950 0.3114 0.4894
O5 O 0.0000 0.38535(16) 0.7500
loop_
_geom_bond_atom_site_label_1
_geom_bond_atom_site_label_2
_geom_bond_site_symmetry_1
_geom_bond_site_symmetry_2
Co1 O1 1_555 1_555
O1 C1 1_555 1_555
N1 Co1 1_555 1_555
C1 O2 1_555 1_555
O2 Co1A_2 1_555 1_555
N2 H1 1_555 1_555
C2 N1 1_555 1_555
H2 C2 1_555 1_555
O3 C7 1_555 1_555
C3 N1 1_555 1_555
H3 C3 1_555 1_555
N3 C10 1_555 1_555
C4 C3 1_555 1_555
H4 C4 1_555 1_555
C5 C4 1_555 1_555
H5 C5 1_555 1_555
C6 N2 1_555 1_555
C7 N2 1_555 1_555
C8 C7 1_555 1_555
C9 C8 1_555 1_555
H6 C9 1_555 1_555
C10 C8 1_555 1_555
H7 C10 1_555 1_555
O4 H8 1_555 1_555
H9 O4 1_555 1_555
O1A C1A 1_555 1_555
C1A C1 1_555 1_555
O2A Co1 1_555 1_555
N1A C2A 1_555 1_555
N2A H1A 1_555 1_555
C2A H2A 1_555 1_555
O3A C7A 1_555 1_555
C3A N1A 1_555 1_555
H3A C3A 1_555 1_555
C4A C3A 1_555 1_555
H4A C4A 1_555 1_555
C5A C4A 1_555 1_555
H5A C5A 1_555 1_555
C6A N2A 1_555 1_555
C7A N2A 1_555 1_555
C8A C9 1_555 1_555
C10A N3 1_555 1_555
H7A C10A 1_555 1_555
Co1A N1A 1_555 1_555
Co1A_2 O1A 1_555 1_555
O1F Co1 1_555 1_555
N1F Co1 1_555 1_555
O2G Co1 1_555 1_555
C2 C6 1_555 1_555
C5 C6 1_555 1_555
C1A O2A 1_555 1_555
C2A C6A 1_555 1_555
C5A C6A 1_555 1_555
C7A C8A 1_555 1_555
C8A C10A 1_555 1_555

#END
