
#######################################################################
#
#                 Cambridge Crystallographic Data Centre
#                                CCDC 
#
#######################################################################
#
# If this CIF has been generated from an entry in the Cambridge 
# Structural Database, then it will include bibliographic, chemical, 
# crystal, experimental, refinement or atomic coordinate data resulting 
# from the CCDC's data processing and validation procedures.
#
#######################################################################

data_MOJQOT
_symmetry_cell_setting           monoclinic
_symmetry_space_group_name_H-M   'C 2/c'
_symmetry_Int_Tables_number      15
_space_group_name_Hall           '-C 2yn'
loop_
_symmetry_equiv_pos_site_id
_symmetry_equiv_pos_as_xyz
1 x,y,z
2 -x,y,1/2-z
3 1/2+x,1/2+y,z
4 1/2-x,1/2+y,1/2-z
5 -x,-y,-z
6 x,-y,1/2+z
7 1/2-x,1/2-y,-z
8 1/2+x,1/2-y,1/2+z
_cell_length_a                   21.892(5)
_cell_length_b                   20.441(5)
_cell_length_c                   8.5308(19)
_cell_angle_alpha                90
_cell_angle_beta                 110.646(4)
_cell_angle_gamma                90
_cell_volume                     3572.31
loop_
_atom_site_label
_atom_site_type_symbol
_atom_site_fract_x
_atom_site_fract_y
_atom_site_fract_z
Co1 Co 0.74192(5) 0.18224(5) 0.49605(12)
N1 N 0.7437(3) 0.0837(3) 0.4359(7)
O1 O 0.8020(3) 0.2113(3) 0.3635(7)
C1 C 0.8271(4) 0.2611(4) 0.3218(9)
O2 O 0.8171(3) 0.3191(3) 0.3617(7)
N2 N 0.6429(3) -0.0394(3) 0.1361(8)
H1 H 0.6424 -0.0815 0.1330
C2 C 0.8728(4) 0.2499(4) 0.2268(9)
H2 H 0.9163 0.2439 0.3113
O3 O 0.8345(3) 0.2923(3) -0.2915(7)
C3 C 0.8568(4) 0.1867(4) 0.1232(10)
H3 H 0.8569 0.1502 0.1960
H4 H 0.8134 0.1900 0.0392
N3 N 0.5000 -0.1509(4) -0.2500
O4 O 0.8221(3) 0.1840(3) -0.2959(7)
C4 C 0.9056(4) 0.1736(4) 0.0378(10)
H5 H 0.8924 0.1348 -0.0312
H6 H 0.9480 0.1650 0.1224
C5 C 0.9116(4) 0.2313(4) -0.0723(9)
H7 H 0.9489 0.2225 -0.1070
O5 O 0.5909(3) 0.0515(3) 0.0013(7)
C6 C 0.8505(4) 0.2363(4) -0.2317(9)
C7 C 0.9257(4) 0.2946(4) 0.0301(9)
H8 H 0.9694 0.2923 0.1129
H9 H 0.9245 0.3310 -0.0439
C8 C 0.8779(4) 0.3077(4) 0.1188(10)
H10 H 0.8352 0.3168 0.0361
H11 H 0.8918 0.3462 0.1890
C9 C 0.6953(4) 0.0572(4) 0.3052(9)
H12 H 0.6626 0.0843 0.2366
C10 C 0.7917(4) 0.0452(4) 0.5320(11)
H13 H 0.8254 0.0637 0.6204
C11 C 0.7926(4) -0.0213(4) 0.5038(11)
H14 H 0.8264 -0.0472 0.5727
C12 C 0.7428(4) -0.0490(4) 0.3718(10)
H15 H 0.7425 -0.0936 0.3511
C13 C 0.6931(3) -0.0093(4) 0.2709(9)
C14 C 0.5951(4) -0.0072(4) 0.0100(9)
C15 C 0.5468(3) -0.0489(3) -0.1234(9)
C16 C 0.5444(4) -0.1171(4) -0.1286(10)
H16 H 0.5754 -0.1402 -0.0433
C17 C 0.5000 -0.0149(5) -0.2500
H17 H 0.5000 0.0306 -0.2500
N1A N 0.2563(3) 0.0837(3) -0.9359(7)
N2A N 0.3571(3) -0.0394(3) -0.6361(8)
H1A H 0.3576 -0.0815 -0.6330
O5A O 0.4091(3) 0.0515(3) -0.5013(7)
C9A C 0.3047(4) 0.0572(4) -0.8052(9)
H12A H 0.3374 0.0843 -0.7366
C10A C 0.2083(4) 0.0452(4) -1.0320(11)
H13A H 0.1746 0.0637 -1.1204
C11A C 0.2074(4) -0.0213(4) -1.0038(11)
H14A H 0.1736 -0.0472 -1.0727
C12A C 0.2572(4) -0.0490(4) -0.8718(10)
H15A H 0.2575 -0.0936 -0.8511
C13A C 0.3069(3) -0.0093(4) -0.7709(9)
C14A C 0.4049(4) -0.0072(4) -0.5100(9)
C15A C 0.4532(3) -0.0489(3) -0.3766(9)
C16A C 0.4556(4) -0.1171(4) -0.3714(10)
H16A H 0.4246 -0.1402 -0.4567
Co1A Co 0.25808(5) 0.18224(5) -0.99605(12)
O1A O 0.1980(3) 0.2113(3) -0.8635(7)
C1A C 0.1729(4) 0.2611(4) -0.8218(9)
O2A O 0.1829(3) 0.3191(3) -0.8617(7)
C2A C 0.1272(4) 0.2499(4) -0.7268(9)
H2A H 0.0837 0.2439 -0.8113
O3A O 0.1655(3) 0.2923(3) -0.2085(7)
C3A C 0.1432(4) 0.1867(4) -0.6232(10)
H3A H 0.1431 0.1502 -0.6960
H4A H 0.1866 0.1900 -0.5392
O4A O 0.1779(3) 0.1840(3) -0.2041(7)
C4A C 0.0944(4) 0.1736(4) -0.5378(10)
H5A H 0.1076 0.1348 -0.4688
H6A H 0.0520 0.1650 -0.6224
C5A C 0.0884(4) 0.2313(4) -0.4277(9)
H7A H 0.0511 0.2225 -0.3930
C6A C 0.1495(4) 0.2363(4) -0.2683(9)
C7A C 0.0743(4) 0.2946(4) -0.5301(9)
H8A H 0.0306 0.2923 -0.6129
H9A H 0.0755 0.3310 -0.4561
C8A C 0.1221(4) 0.3077(4) -0.6188(10)
H10A H 0.1648 0.3168 -0.5361
H11A H 0.1082 0.3462 -0.6890
Co1_2 Co 0.74192(5) 0.18224(5) -0.50395(12)
Co1A_2 Co 0.25808(5) 0.18224(5) 0.00395(12)
Co1F Co 0.75808(5) 0.31776(5) -0.49605(12)
Co1F_2 Co 0.75808(5) 0.31776(5) 0.50395(12)
Co1G Co 0.24192(5) 0.31776(5) -1.00395(12)
Co1G_2 Co 0.24192(5) 0.31776(5) -0.00395(12)
O2F O 0.6829(3) 0.1809(3) 0.6383(7)
O2G O 0.3171(3) 0.1809(3) -1.1383(7)
O3F O 0.6655(3) 0.2077(3) 0.2915(7)
O3G O 0.3345(3) 0.2077(3) -0.7915(7)
O4_2 O 0.8221(3) 0.1840(3) 0.7041(7)
O4A_2 O 0.1779(3) 0.1840(3) -1.2041(7)
loop_
_geom_bond_atom_site_label_1
_geom_bond_atom_site_label_2
_geom_bond_site_symmetry_1
_geom_bond_site_symmetry_2
Co1 N1 1_555 1_555
N1 C9 1_555 1_555
O1 Co1 1_555 1_555
C1 O1 1_555 1_555
O2 C1 1_555 1_555
N2 H1 1_555 1_555
C2 C1 1_555 1_555
H2 C2 1_555 1_555
O3 C6 1_555 1_555
C3 C2 1_555 1_555
H3 C3 1_555 1_555
H4 C3 1_555 1_555
N3 C16 1_555 1_555
O4 C6 1_555 1_555
C4 C3 1_555 1_555
H5 C4 1_555 1_555
H6 C4 1_555 1_555
C5 C4 1_555 1_555
H7 C5 1_555 1_555
O5 C14 1_555 1_555
C6 C5 1_555 1_555
C7 C5 1_555 1_555
H8 C7 1_555 1_555
H9 C7 1_555 1_555
C8 C2 1_555 1_555
H10 C8 1_555 1_555
H11 C8 1_555 1_555
C9 H12 1_555 1_555
C10 N1 1_555 1_555
H13 C10 1_555 1_555
C11 C10 1_555 1_555
H14 C11 1_555 1_555
C12 C11 1_555 1_555
H15 C12 1_555 1_555
C13 N2 1_555 1_555
C14 N2 1_555 1_555
C15 C14 1_555 1_555
C16 C15 1_555 1_555
H16 C16 1_555 1_555
C17 C15 1_555 1_555
H17 C17 1_555 1_555
N1A C9A 1_555 1_555
N2A H1A 1_555 1_555
O5A C14A 1_555 1_555
C9A H12A 1_555 1_555
C10A N1A 1_555 1_555
H13A C10A 1_555 1_555
C11A C10A 1_555 1_555
H14A C11A 1_555 1_555
C12A C11A 1_555 1_555
H15A C12A 1_555 1_555
C13A N2A 1_555 1_555
C14A N2A 1_555 1_555
C15A C17 1_555 1_555
C16A N3 1_555 1_555
H16A C16A 1_555 1_555
Co1A N1A 1_555 1_555
O1A Co1A 1_555 1_555
C1A O1A 1_555 1_555
O2A C1A 1_555 1_555
C2A C1A 1_555 1_555
H2A C2A 1_555 1_555
O3A C6A 1_555 1_555
C3A C2A 1_555 1_555
H3A C3A 1_555 1_555
H4A C3A 1_555 1_555
O4A C6A 1_555 1_555
C4A C3A 1_555 1_555
H5A C4A 1_555 1_555
H6A C4A 1_555 1_555
C5A C4A 1_555 1_555
H7A C5A 1_555 1_555
C6A C5A 1_555 1_555
C7A C5A 1_555 1_555
H8A C7A 1_555 1_555
H9A C7A 1_555 1_555
C8A C2A 1_555 1_555
H10A C8A 1_555 1_555
H11A C8A 1_555 1_555
Co1_2 O4 1_555 1_555
Co1A_2 O4A 1_555 1_555
Co1F O3 1_555 1_555
Co1F_2 Co1 1_555 1_555
Co1G Co1A 1_555 1_555
Co1G_2 O3A 1_555 1_555
O2F Co1 1_555 1_555
O2G Co1A 1_555 1_555
O3F Co1 1_555 1_555
O3G Co1A 1_555 1_555
O4_2 Co1 1_555 1_555
O4A_2 Co1A 1_555 1_555
O2 Co1F_2 1_555 1_555
C7 C8 1_555 1_555
C9 C13 1_555 1_555
C12 C13 1_555 1_555
C9A C13A 1_555 1_555
C12A C13A 1_555 1_555
C14A C15A 1_555 1_555
C15A C16A 1_555 1_555
O2A Co1G 1_555 1_555
C7A C8A 1_555 1_555
Co1_2 Co1F 1_555 1_555
Co1A_2 Co1G_2 1_555 1_555

#END
