
#######################################################################
#
#                 Cambridge Crystallographic Data Centre
#                                CCDC 
#
#######################################################################
#
# If this CIF has been generated from an entry in the Cambridge 
# Structural Database, then it will include bibliographic, chemical, 
# crystal, experimental, refinement or atomic coordinate data resulting 
# from the CCDC's data processing and validation procedures.
#
#######################################################################

data_MOJQUZ
_symmetry_cell_setting           monoclinic
_symmetry_space_group_name_H-M   'P 21/c'
_symmetry_Int_Tables_number      14
_space_group_name_Hall           '-P 2ybc'
loop_
_symmetry_equiv_pos_site_id
_symmetry_equiv_pos_as_xyz
1 x,y,z
2 -x,1/2+y,1/2-z
3 -x,-y,-z
4 x,1/2-y,1/2+z
_cell_length_a                   10.0135(6)
_cell_length_b                   16.1146(10)
_cell_length_c                   16.5796(10)
_cell_angle_alpha                90
_cell_angle_beta                 105.4200(10)
_cell_angle_gamma                90
_cell_volume                     2579.04
loop_
_atom_site_label
_atom_site_type_symbol
_atom_site_fract_x
_atom_site_fract_y
_atom_site_fract_z
Co1 Co -0.00999(3) 0.152179(18) 0.540251(19)
N1 N -0.0520(2) 0.25809(12) 0.46502(12)
O1 O -0.21348(19) 0.14000(13) 0.54116(13)
C1 C -0.2123(3) 0.07751(19) 0.58720(18)
O2 O -0.06710(19) 0.07616(11) 0.42854(11)
H1 H -0.126(3) 0.0301(16) 0.4333(15)
H2 H 0.000(3) 0.0488(16) 0.4167(16)
O3 O -0.10199(18) 0.03823(14) 0.61783(13)
N2 N 0.1162(2) 0.45327(13) 0.42972(15)
H3 H 0.0940(9) 0.4823(11) 0.3803(19)
C2 C -0.3443(2) 0.05097(16) 0.60531(16)
O4 O -0.82945(15) 0.09003(10) 0.56640(10)
N3 N 0.3908(3) 0.64842(15) 0.41395(14)
C3 C -0.4666(2) 0.09301(15) 0.56873(15)
H4 H -0.4663 0.1371 0.5325
O5 O -0.71966(18) 0.17780(12) 0.50320(12)
N4 N 0.6930(2) 0.71574(13) 0.63953(13)
H5 H 0.6699 0.7491 0.5976
C4 C -0.5888(2) 0.06944(14) 0.58608(14)
C5 C -0.7202(2) 0.11697(15) 0.54789(15)
N5 N 0.9526(2) 0.72003(13) 0.84489(13)
O6 O 0.2202(2) 0.44256(12) 0.56814(12)
C6 C -0.5873(2) 0.00381(15) 0.64074(15)
H6 H -0.6694 -0.0116 0.6528
O7 O 0.6336(2) 0.59812(15) 0.69571(13)
C7 C -0.4668(3) -0.03933(16) 0.67778(16)
C8 C -0.4688(3) -0.1112(2) 0.7365(2)
H7 H -0.5611 -0.1186 0.7421
H8 H -0.4070 -0.0997 0.7904
H9 H -0.4397 -0.1610 0.7142
C9 C -0.3455(3) -0.01489(16) 0.65920(16)
H10 H -0.2635 -0.0431 0.6832
C10 C -0.1682(3) 0.26247(17) 0.40235(16)
H11 H -0.2324 0.2196 0.3957
C11 C -0.1957(3) 0.32800(17) 0.34763(18)
H12 H -0.2769 0.3292 0.3044
C12 C -0.1023(3) 0.39151(17) 0.35744(17)
H13 H -0.1193 0.4363 0.3207
C13 C 0.0178(3) 0.38880(15) 0.42234(16)
C14 C 0.0396(3) 0.32061(15) 0.47502(16)
H14 H 0.1201 0.3180 0.5187
C15 C 0.2114(3) 0.47555(16) 0.50087(17)
C16 C 0.3089(3) 0.54443(15) 0.49284(15)
C17 C 0.3044(3) 0.58758(17) 0.42053(17)
H15 H 0.2358 0.5731 0.3727
C18 C 0.4891(3) 0.66810(16) 0.48318(17)
H16 H 0.5510 0.7102 0.4799
C19 C 0.5036(2) 0.62925(15) 0.55924(15)
C20 C 0.4114(3) 0.56590(15) 0.56322(16)
H17 H 0.4189 0.5380 0.6133
C21 C 0.6149(3) 0.64677(17) 0.63676(17)
C22 C 0.8094(2) 0.73780(15) 0.70549(15)
C23 C 0.9025(3) 0.79454(15) 0.68902(17)
H18 H 0.8854 0.8205 0.6372
C24 C 1.0210(3) 0.81173(18) 0.75108(17)
H19 H 1.0848 0.8499 0.7417
C25 C 1.0446(3) 0.77238(17) 0.82676(17)
H20 H 1.1274 0.7823 0.8670
C26 C 0.8362(3) 0.70420(16) 0.78514(15)
H21 H 0.7705 0.6692 0.7976
Co1_2 Co -1.00999(3) 0.152179(18) 0.540251(19)
Co1A Co 1.00999(3) 0.652179(18) 0.959749(19)
O4_2 O 0.17055(15) 0.09003(10) 0.56640(10)
N5A N 0.0474(2) 0.22003(13) 0.65511(13)
O8 O 0.1109(4) 0.00903(15) 0.76002(15)
H22 H 0.183(6) 0.039(3) 0.759(3)
H23 H 0.040(4) 0.029(3) 0.716(3)
loop_
_geom_bond_atom_site_label_1
_geom_bond_atom_site_label_2
_geom_bond_site_symmetry_1
_geom_bond_site_symmetry_2
Co1 N1 1_555 1_555
N1 C10 1_555 1_555
O1 Co1 1_555 1_555
C1 O1 1_555 1_555
O2 Co1 1_555 1_555
H1 O2 1_555 1_555
H2 O2 1_555 1_555
O3 C1 1_555 1_555
N2 H3 1_555 1_555
C2 C1 1_555 1_555
O4 C5 1_555 1_555
N3 C17 1_555 1_555
C3 C2 1_555 1_555
H4 C3 1_555 1_555
O5 C5 1_555 1_555
N4 H5 1_555 1_555
C4 C3 1_555 1_555
C5 C4 1_555 1_555
N5 C25 1_555 1_555
O6 C15 1_555 1_555
C6 C4 1_555 1_555
H6 C6 1_555 1_555
O7 C21 1_555 1_555
C7 C6 1_555 1_555
C8 C7 1_555 1_555
H7 C8 1_555 1_555
H8 C8 1_555 1_555
H9 C8 1_555 1_555
C9 C2 1_555 1_555
H10 C9 1_555 1_555
C10 H11 1_555 1_555
C11 C10 1_555 1_555
H12 C11 1_555 1_555
C12 C11 1_555 1_555
H13 C12 1_555 1_555
C13 N2 1_555 1_555
C14 N1 1_555 1_555
H14 C14 1_555 1_555
C15 N2 1_555 1_555
C16 C15 1_555 1_555
C17 C16 1_555 1_555
H15 C17 1_555 1_555
C18 N3 1_555 1_555
H16 C18 1_555 1_555
C19 C18 1_555 1_555
C20 C16 1_555 1_555
H17 C20 1_555 1_555
C21 N4 1_555 1_555
C22 N4 1_555 1_555
C23 C22 1_555 1_555
H18 C23 1_555 1_555
C24 C23 1_555 1_555
H19 C24 1_555 1_555
C25 C24 1_555 1_555
H20 C25 1_555 1_555
C26 N5 1_555 1_555
H21 C26 1_555 1_555
O8 H22 1_555 1_555
H23 O8 1_555 1_555
Co1_2 O4 1_555 1_555
Co1A N5 1_555 1_555
O4_2 Co1 1_555 1_555
N5A Co1 1_555 1_555
C7 C9 1_555 1_555
C12 C13 1_555 1_555
C13 C14 1_555 1_555
C19 C20 1_555 1_555
C19 C21 1_555 1_555
C22 C26 1_555 1_555

#END
