
#######################################################################
#
#                 Cambridge Crystallographic Data Centre
#                                CCDC 
#
#######################################################################
#
# If this CIF has been generated from an entry in the Cambridge 
# Structural Database, then it will include bibliographic, chemical, 
# crystal, experimental, refinement or atomic coordinate data resulting 
# from the CCDC's data processing and validation procedures.
#
#######################################################################

data_MOJQOS
_symmetry_cell_setting           monoclinic
_symmetry_space_group_name_H-M   'C 2/c'
_symmetry_Int_Tables_number      15
_space_group_name_Hall           '-C 2yn'
loop_
_symmetry_equiv_pos_site_id
_symmetry_equiv_pos_as_xyz
1 x,y,z
2 1/2+x,1/2+y,z
3 -x,y,1/2-z
4 1/2-x,1/2+y,1/2-z
5 -x,-y,-z
6 1/2-x,1/2-y,-z
7 x,-y,1/2+z
8 1/2+x,1/2-y,1/2+z
_cell_length_a                   42.3490(8)
_cell_length_b                   4.71000(10)
_cell_length_c                   14.4091(3)
_cell_angle_alpha                90
_cell_angle_beta                 104.9530(10)
_cell_angle_gamma                90
_cell_volume                     2776.77
loop_
_atom_site_label
_atom_site_type_symbol
_atom_site_fract_x
_atom_site_fract_y
_atom_site_fract_z
Cu1 Cu 0.0000 1.0000 1.0000
O1 O 0.03938(3) 0.7708(2) 1.04219(9)
O2 O 0.02369(3) 0.4140(3) 1.12273(10)
O3 O -0.02163(3) 0.8161(3) 1.08765(10)
O4 O 0.11439(4) 0.0980(3) 1.00014(12)
O5 O 0.11165(3) 0.1480(4) 0.75755(11)
O6 O 0.19612(4) 0.4039(5) 1.00954(12)
C1 C 0.07686(4) 0.3977(3) 1.10021(12)
C2 C 0.04388(4) 0.5384(3) 1.08750(12)
C3 C 0.11185(4) 0.3565(3) 0.99215(12)
C4 C 0.19432(4) 0.0751(4) 0.87762(14)
C5 C 0.13927(4) 0.1614(4) 0.80808(13)
C6 C 0.18199(5) 0.2879(4) 0.93587(14)
C7 C 0.12774(6) 0.5145(4) 0.92416(18)
C8 C 0.16868(5) 0.0040(3) 0.79970(14)
C9 C 0.22486(5) -0.0428(5) 0.89013(19)
C10 C 0.22897(6) -0.2360(5) 0.8212(2)
C11 C 0.17281(6) -0.1861(5) 0.73078(16)
C12 C 0.20373(7) -0.3042(5) 0.74318(19)
N1 N 0.14936(4) 0.3342(3) 0.88807(11)
N2 N 0.09601(4) 0.5168(3) 1.04039(12)
H1 H 0.2391(8) -0.006(5) 0.952(2)
H2 H 0.2493(7) -0.314(6) 0.8276(19)
H3 H 0.2072(7) -0.436(7) 0.701(2)
H4 H 0.1381(6) 0.654(6) 0.9560(16)
H5 H 0.0877(5) 0.420(6) 1.1650(17)
H6 H 0.1569(7) -0.217(6) 0.682(2)
H7 H 0.0733(5) 0.199(5) 1.0854(16)
H8 H 0.1129(8) 0.598(7) 0.879(2)
H9 H 0.0969(6) 0.682(6) 1.0307(17)
H10 H -0.0253(6) 0.913(7) 1.1300(19)
H11 H -0.0083(8) 0.697(7) 1.113(2)
Cu1_2 Cu 0.0000 0.0000 1.0000
Cu1_3 Cu 0.0000 2.0000 1.0000
O1D O -0.03938(3) 1.2292(2) 0.95781(9)
O2D O -0.02369(3) 1.5860(3) 0.87727(10)
O2_2 O 0.02369(3) 1.4140(3) 1.12273(10)
O2D_2 O -0.02369(3) 0.5860(3) 0.87727(10)
O3D O 0.02163(3) 1.1839(3) 0.91235(10)
O4D O -0.11439(4) 1.9020(3) 0.99986(12)
O5D O -0.11165(3) 1.8520(4) 1.24245(11)
O6D O -0.19612(4) 1.5961(5) 0.99046(12)
C1D C -0.07686(4) 1.6023(3) 0.89979(12)
C2D C -0.04388(4) 1.4616(3) 0.91250(12)
C3D C -0.11185(4) 1.6435(3) 1.00785(12)
C4D C -0.19432(4) 1.9249(4) 1.12238(14)
C5D C -0.13927(4) 1.8386(4) 1.19192(13)
C6D C -0.18199(5) 1.7121(4) 1.06413(14)
C7D C -0.12774(6) 1.4855(4) 1.07584(18)
C8D C -0.16868(5) 1.9960(3) 1.20030(14)
C9D C -0.22486(5) 2.0428(5) 1.10987(19)
C10D C -0.22897(6) 2.2360(5) 1.1788(2)
C11D C -0.17281(6) 2.1861(5) 1.26922(16)
C12D C -0.20373(7) 2.3042(5) 1.25682(19)
N1D N -0.14936(4) 1.6658(3) 1.11193(11)
N2D N -0.09601(4) 1.4832(3) 0.95961(12)
H1D H -0.2391(8) 2.006(5) 1.048(2)
H2D H -0.2493(7) 2.314(6) 1.1724(19)
H3D H -0.2072(7) 2.436(7) 1.299(2)
H4D H -0.1381(6) 1.346(6) 1.0440(16)
H5D H -0.0877(5) 1.580(6) 0.8350(17)
H6D H -0.1569(7) 2.217(6) 1.318(2)
H7D H -0.0733(5) 1.801(5) 0.9146(16)
H8D H -0.1129(8) 1.402(7) 1.121(2)
H9D H -0.0969(6) 1.318(6) 0.9693(17)
H10D H 0.0253(6) 1.087(7) 0.8700(19)
H11D H 0.0083(8) 1.303(7) 0.887(2)
O7 O 0.95047(6) 0.0804(6) 0.20978(16)
H12 H 0.9352(11) 0.001(8) 0.212(3)
H13 H 0.9592(8) 0.165(8) 0.252(2)
loop_
_geom_bond_atom_site_label_1
_geom_bond_atom_site_label_2
_geom_bond_site_symmetry_1
_geom_bond_site_symmetry_2
Cu1 O1 1_555 1_555
O1 C2 1_555 1_555
O2 C2 1_555 1_555
O3 Cu1 1_555 1_555
O4 C3 1_555 1_555
O5 C5 1_555 1_555
O6 C6 1_555 1_555
O7 H12 1_555 1_555
C1 C2 1_555 1_555
C3 C7 1_555 1_555
C4 C6 1_555 1_555
C5 C8 1_555 1_555
C6 N1 1_555 1_555
C7 N1 1_555 1_555
C8 C4 1_555 1_555
C9 C4 1_555 1_555
C10 C9 1_555 1_555
C11 C8 1_555 1_555
C12 C10 1_555 1_555
N1 C5 1_555 1_555
N2 C1 1_555 1_555
H1 C9 1_555 1_555
H2 C10 1_555 1_555
H3 C12 1_555 1_555
H4 C7 1_555 1_555
H5 C1 1_555 1_555
H6 C11 1_555 1_555
H7 C1 1_555 1_555
H8 C7 1_555 1_555
H9 N2 1_555 1_555
H10 O3 1_555 1_555
H11 O3 1_555 1_555
H13 O7 1_555 1_555
Cu1_2 O2 1_555 1_555
Cu1_3 O2D 1_555 1_555
O1D Cu1 1_555 1_555
O2D C2D 1_555 1_555
O2_2 Cu1 1_555 1_555
O2D_2 Cu1 1_555 1_555
O3D Cu1 1_555 1_555
O4D C3D 1_555 1_555
O5D C5D 1_555 1_555
O6D C6D 1_555 1_555
C1D C2D 1_555 1_555
C2D O1D 1_555 1_555
C3D C7D 1_555 1_555
C4D C6D 1_555 1_555
C5D C8D 1_555 1_555
C6D N1D 1_555 1_555
C7D N1D 1_555 1_555
C8D C4D 1_555 1_555
C9D C4D 1_555 1_555
C10D C9D 1_555 1_555
C11D C8D 1_555 1_555
C12D C10D 1_555 1_555
N1D C5D 1_555 1_555
N2D C1D 1_555 1_555
H1D C9D 1_555 1_555
H2D C10D 1_555 1_555
H3D C12D 1_555 1_555
H4D C7D 1_555 1_555
H5D C1D 1_555 1_555
H6D C11D 1_555 1_555
H7D C1D 1_555 1_555
H8D C7D 1_555 1_555
H9D N2D 1_555 1_555
H10D O3D 1_555 1_555
H11D O3D 1_555 1_555
C3 N2 1_555 1_555
C11 C12 1_555 1_555
C3D N2D 1_555 1_555
C11D C12D 1_555 1_555

#END
