
#######################################################################
#
#                 Cambridge Crystallographic Data Centre
#                                CCDC 
#
#######################################################################
#
# If this CIF has been generated from an entry in the Cambridge 
# Structural Database, then it will include bibliographic, chemical, 
# crystal, experimental, refinement or atomic coordinate data resulting 
# from the CCDC's data processing and validation procedures.
#
#######################################################################

data_MOJRAG
_symmetry_cell_setting           monoclinic
_symmetry_space_group_name_H-M   'P c'
_symmetry_Int_Tables_number      7
_space_group_name_Hall           'P -2yc'
loop_
_symmetry_equiv_pos_site_id
_symmetry_equiv_pos_as_xyz
1 x,y,z
2 x,-y,1/2+z
_cell_length_a                   13.9086(14)
_cell_length_b                   10.7465(11)
_cell_length_c                   10.1189(10)
_cell_angle_alpha                90
_cell_angle_beta                 110.040(2)
_cell_angle_gamma                90
_cell_volume                     1420.89
loop_
_atom_site_label
_atom_site_type_symbol
_atom_site_fract_x
_atom_site_fract_y
_atom_site_fract_z
Co1 Co 0.40312(6) 0.39459(5) 0.59890(7)
O1 O 0.5145(3) 0.5456(4) 0.6076(4)
N1 N 0.4752(4) 0.2704(4) 0.5016(5)
C1 C 0.5626(4) 0.5124(5) 0.7316(6)
O2 O 0.5312(4) 0.4185(4) 0.7824(5)
N2 N 0.4439(5) 0.1959(4) 0.1367(5)
H1 H 0.4522 0.2651 0.0994
C2 C 0.6560(4) 0.5782(5) 0.8200(6)
O3 O 0.9149(3) 0.7679(3) 1.0685(5)
N3 N 0.3346(3) 0.2654(4) -0.3020(5)
C3 C 0.6953(4) 0.5541(5) 0.9638(6)
H2 H 0.6634 0.4960 1.0031
O4 O 1.2756(4) 0.4086(4) 1.4195(5)
N4 N 0.0641(3) -0.0288(4) -0.3517(5)
H3 H 0.0856 -0.0285 -0.2612
C4 C 0.7815(5) 0.6165(5) 1.0485(7)
H4 H 0.8071 0.6018 1.1449
O5 O 1.2971(3) 0.5575(4) 1.5730(4)
C5 C 0.8290(4) 0.7007(5) 0.9879(7)
N5 N -0.1888(5) -0.1204(5) -0.6027(8)
O6 O 0.3928(4) -0.0013(3) 0.0908(6)
C6 C 0.7903(4) 0.7259(5) 0.8445(6)
H5 H 0.8227 0.7831 0.8049
O7 O 0.0918(3) 0.0478(4) -0.5446(4)
C7 C 0.7037(4) 0.6649(5) 0.7621(6)
H6 H 0.6768 0.6820 0.6663
C8 C 0.9936(4) 0.6992(5) 1.1638(7)
C9 C 1.0348(4) 0.7440(5) 1.2986(7)
H7 H 1.0076 0.8144 1.3259
C10 C 1.1175(4) 0.6831(5) 1.3934(6)
H8 H 1.1460 0.7131 1.4847
C11 C 1.1583(4) 0.5772(6) 1.3531(6)
C12 C 1.2481(4) 0.5102(6) 1.4549(6)
C13 C 1.1159(4) 0.5343(6) 1.2163(7)
H9 H 1.1435 0.4646 1.1880
C14 C 1.0319(5) 0.5950(5) 1.1204(8)
H10 H 1.0024 0.5654 1.0289
C15 C 0.5510(5) 0.1935(6) 0.5712(7)
H11 H 0.5755 0.1963 0.6690
C16 C 0.5942(6) 0.1111(6) 0.5062(8)
H12 H 0.6456 0.0575 0.5585
C17 C 0.5598(6) 0.1086(5) 0.3585(8)
H13 H 0.5890 0.0548 0.3109
C18 C 0.4820(5) 0.1874(5) 0.2862(6)
C19 C 0.4416(4) 0.2673(5) 0.3617(6)
H14 H 0.3890 0.3208 0.3125
C20 C 0.3968(4) 0.1049(4) 0.0516(6)
C21 C 0.3462(4) 0.1404(5) -0.1008(5)
C22 C 0.3808(4) 0.2351(5) -0.1649(6)
H15 H 0.4383 0.2800 -0.1118
C23 C 0.2509(4) 0.2014(5) -0.3763(6)
H16 H 0.2181 0.2223 -0.4702
C24 C 0.2105(5) 0.1039(5) -0.3187(7)
C25 C 0.2612(4) 0.0722(5) -0.1812(6)
H17 H 0.2387 0.0051 -0.1416
C26 C 0.1169(4) 0.0389(5) -0.4162(6)
C27 C -0.0249(4) -0.1007(5) -0.4226(6)
C28 C -0.0333(5) -0.2197(6) -0.3755(7)
H18 H 0.0183 -0.2526 -0.2985
C29 C -0.1934(6) -0.2349(7) -0.5559(9)
H19 H -0.2512 -0.2820 -0.6022
C30 C -0.1043(5) -0.0558(6) -0.5368(8)
H20 H -0.0984 0.0238 -0.5691
C31 C -0.1195(6) -0.2887(6) -0.4448(9)
H21 H -0.1270 -0.3694 -0.4166
Co1_2 Co 0.40312(6) 0.39459(5) -0.40110(7)
Co1_3 Co 1.40312(6) 0.39459(5) 1.59890(7)
N3_2 N 0.3346(3) 0.2654(4) 0.6980(5)
O4_2 O 0.2756(4) 0.4086(4) 0.4195(5)
O5_2 O 0.2971(3) 0.5575(4) 0.5730(4)
loop_
_geom_bond_atom_site_label_1
_geom_bond_atom_site_label_2
_geom_bond_site_symmetry_1
_geom_bond_site_symmetry_2
Co1 O1 1_555 1_555
O1 C1 1_555 1_555
N1 Co1 1_555 1_555
C1 O2 1_555 1_555
O2 Co1 1_555 1_555
N2 H1 1_555 1_555
C2 C1 1_555 1_555
O3 C5 1_555 1_555
N3 C22 1_555 1_555
C3 C2 1_555 1_555
H2 C3 1_555 1_555
O4 C12 1_555 1_555
N4 H3 1_555 1_555
C4 C3 1_555 1_555
H4 C4 1_555 1_555
O5 C12 1_555 1_555
C5 C4 1_555 1_555
N5 C29 1_555 1_555
O6 C20 1_555 1_555
C6 C5 1_555 1_555
H5 C6 1_555 1_555
O7 C26 1_555 1_555
C7 C2 1_555 1_555
H6 C7 1_555 1_555
C8 O3 1_555 1_555
C9 C8 1_555 1_555
H7 C9 1_555 1_555
C10 C9 1_555 1_555
H8 C10 1_555 1_555
C11 C10 1_555 1_555
C12 C11 1_555 1_555
C13 C11 1_555 1_555
H9 C13 1_555 1_555
C14 C8 1_555 1_555
H10 C14 1_555 1_555
C15 N1 1_555 1_555
H11 C15 1_555 1_555
C16 C15 1_555 1_555
H12 C16 1_555 1_555
C17 C16 1_555 1_555
H13 C17 1_555 1_555
C18 N2 1_555 1_555
C19 N1 1_555 1_555
H14 C19 1_555 1_555
C20 N2 1_555 1_555
C21 C20 1_555 1_555
C22 C21 1_555 1_555
H15 C22 1_555 1_555
C23 N3 1_555 1_555
H16 C23 1_555 1_555
C24 C23 1_555 1_555
C25 C21 1_555 1_555
H17 C25 1_555 1_555
C26 N4 1_555 1_555
C27 N4 1_555 1_555
C28 C27 1_555 1_555
H18 C28 1_555 1_555
C29 H19 1_555 1_555
C30 N5 1_555 1_555
H20 C30 1_555 1_555
C31 C28 1_555 1_555
H21 C31 1_555 1_555
Co1_2 N3 1_555 1_555
Co1_3 O4 1_555 1_555
N3_2 Co1 1_555 1_555
O4_2 Co1 1_555 1_555
O5_2 Co1 1_555 1_555
O5 Co1_3 1_555 1_555
C6 C7 1_555 1_555
C13 C14 1_555 1_555
C17 C18 1_555 1_555
C18 C19 1_555 1_555
C24 C25 1_555 1_555
C24 C26 1_555 1_555
C27 C30 1_555 1_555
C29 C31 1_555 1_555

#END
