
#######################################################################
#
#                 Cambridge Crystallographic Data Centre
#                                CCDC 
#
#######################################################################
#
# If this CIF has been generated from an entry in the Cambridge 
# Structural Database, then it will include bibliographic, chemical, 
# crystal, experimental, refinement or atomic coordinate data resulting 
# from the CCDC's data processing and validation procedures.
#
#######################################################################

data_MOJSUA
_symmetry_cell_setting           monoclinic
_symmetry_space_group_name_H-M   'P 21/c'
_symmetry_Int_Tables_number      14
_space_group_name_Hall           '-P 2ybc'
loop_
_symmetry_equiv_pos_site_id
_symmetry_equiv_pos_as_xyz
1 x,y,z
2 -x,1/2+y,1/2-z
3 -x,-y,-z
4 x,1/2-y,1/2+z
_cell_length_a                   10.549(2)
_cell_length_b                   11.073(2)
_cell_length_c                   24.245(5)
_cell_angle_alpha                90.00
_cell_angle_beta                 94.58(3)
_cell_angle_gamma                90.00
_cell_volume                     2822.99
loop_
_atom_site_label
_atom_site_type_symbol
_atom_site_fract_x
_atom_site_fract_y
_atom_site_fract_z
Zn1 Zn 0.47104(4) 0.75800(4) 0.398053(18)
Fe1 Fe -0.13294(6) 0.35140(6) 0.31509(2)
O1 O 0.3176(3) 0.6735(3) 0.36070(11)
O2 O 0.4919(3) 0.5915(3) 0.33586(13)
O3 O 0.2791(3) 0.2767(3) 0.12815(13)
O4 O 0.4584(3) 0.3696(3) 0.15508(11)
N1 N 0.5598(3) 0.6789(3) 0.46570(13)
N2 N 0.4796(4) 0.8126(3) 0.53076(14)
H3 H 0.4912 0.8337 0.5658
N3 N 0.3717(3) 0.8730(3) 0.44620(13)
C1 C -0.0528(6) 0.1932(5) 0.3430(2)
H4 H -0.0132 0.1354 0.3211
C2 C -0.1810(6) 0.1958(5) 0.3536(2)
H5 H -0.2438 0.1391 0.3403
C3 C -0.2013(7) 0.2959(6) 0.3869(2)
H6 H -0.2803 0.3191 0.3999
C4 C -0.0846(7) 0.3563(5) 0.3977(2)
H7 H -0.0705 0.4274 0.4192
C5 C 0.0071(6) 0.2922(5) 0.3708(2)
H8 H 0.0948 0.3121 0.3713
C6 C -0.2549(4) 0.3789(5) 0.2465(2)
H9 H -0.3288 0.3327 0.2359
C7 C -0.2505(4) 0.4815(5) 0.2806(2)
H10 H -0.3207 0.5166 0.2969
C8 C -0.1231(4) 0.5241(4) 0.28665(19)
H11 H -0.0934 0.5929 0.3072
C9 C -0.0477(4) 0.4445(4) 0.25618(16)
C10 C -0.1313(4) 0.3556(4) 0.23058(17)
H12 H -0.1078 0.2922 0.2071
C11 C 0.0914(4) 0.4516(3) 0.25320(15)
C12 C 0.1656(4) 0.5193(3) 0.29155(15)
H13 H 0.1260 0.5615 0.3197
C13 C 0.2967(4) 0.5266(3) 0.28965(15)
C14 C 0.3548(4) 0.4669(3) 0.24796(15)
H14 H 0.4445 0.4705 0.2468
C15 C 0.2815(4) 0.4017(3) 0.20793(15)
C16 C 0.1507(4) 0.3946(4) 0.21108(16)
H15 H 0.1007 0.3498 0.1839
C17 C 0.3409(4) 0.3431(4) 0.16044(16)
C18 C 0.2815(5) 0.9437(4) 0.4197(2)
H16 H 0.2664 0.9358 0.3807
C19 C 0.2116(6) 1.0251(5) 0.4460(2)
H17 H 0.1493 1.0732 0.4259
C20 C 0.2333(5) 1.0366(5) 0.5030(2)
H18 H 0.1869 1.0936 0.5226
C21 C 0.3216(5) 0.9650(4) 0.5302(2)
H19 H 0.3366 0.9709 0.5693
C22 C 0.3906(4) 0.8829(4) 0.50114(16)
C23 C 0.5545(4) 0.7167(4) 0.51760(16)
C24 C 0.6274(5) 0.6596(5) 0.56121(18)
H20 H 0.6253 0.6888 0.5980
C25 C 0.7003(5) 0.5635(5) 0.55080(18)
H21 H 0.7483 0.5239 0.5803
C26 C 0.7050(5) 0.5227(4) 0.49684(19)
H22 H 0.7555 0.4551 0.4886
C27 C 0.6348(5) 0.5828(4) 0.45629(18)
H23 H 0.6385 0.5561 0.4192
C30 C 0.3743(4) 0.6006(4) 0.33155(15)
Zn1A Zn 0.52896(4) 0.25800(4) 0.101947(18)
O4A O 0.5416(3) 0.8696(3) 0.34492(11)
O5 O 0.5144(4) 0.8793(3) 0.64569(13)
H1 H 0.5099 0.9519 0.6554
C28 C 0.5564(7) 0.8086(6) 0.6916(2)
H24 H 0.6490 0.8152 0.6981
H25 H 0.5330 0.7240 0.6844
H26 H 0.5164 0.8371 0.7243
O6 O 1.0287(13) 0.7162(11) 0.4444(5)
H2 H 1.0386 0.7911 0.4483
C29 C 0.9667(11) 0.6978(15) 0.4052(5)
H27 H 0.9382 0.7745 0.3883
H28 H 0.8926 0.6502 0.4140
H29 H 1.0155 0.6526 0.3793
loop_
_geom_bond_atom_site_label_1
_geom_bond_atom_site_label_2
_geom_bond_site_symmetry_1
_geom_bond_site_symmetry_2
Zn1 O1 1_555 1_555
Fe1 C1 1_555 1_555
O1 C30 1_555 1_555
O2 Zn1 1_555 1_555
O3 C17 1_555 1_555
O4 C17 1_555 1_555
O5 H1 1_555 1_555
O6 H2 1_555 1_555
N1 Zn1 1_555 1_555
N2 H3 1_555 1_555
N3 Zn1 1_555 1_555
C1 H4 1_555 1_555
C2 Fe1 1_555 1_555
H5 C2 1_555 1_555
C3 Fe1 1_555 1_555
H6 C3 1_555 1_555
C4 Fe1 1_555 1_555
H7 C4 1_555 1_555
C5 Fe1 1_555 1_555
H8 C5 1_555 1_555
C6 Fe1 1_555 1_555
H9 C6 1_555 1_555
C7 Fe1 1_555 1_555
H10 C7 1_555 1_555
C8 Fe1 1_555 1_555
H11 C8 1_555 1_555
C9 Fe1 1_555 1_555
C10 Fe1 1_555 1_555
H12 C10 1_555 1_555
C11 C9 1_555 1_555
C12 C11 1_555 1_555
H13 C12 1_555 1_555
C13 C12 1_555 1_555
C14 C13 1_555 1_555
H14 C14 1_555 1_555
C15 C14 1_555 1_555
C16 C11 1_555 1_555
H15 C16 1_555 1_555
C17 C15 1_555 1_555
C18 N3 1_555 1_555
H16 C18 1_555 1_555
C19 C18 1_555 1_555
H17 C19 1_555 1_555
C20 C19 1_555 1_555
H18 C20 1_555 1_555
C21 C20 1_555 1_555
H19 C21 1_555 1_555
C22 N2 1_555 1_555
C23 N1 1_555 1_555
C24 C23 1_555 1_555
H20 C24 1_555 1_555
C25 C24 1_555 1_555
H21 C25 1_555 1_555
C26 C25 1_555 1_555
H22 C26 1_555 1_555
C27 N1 1_555 1_555
H23 C27 1_555 1_555
C28 O5 1_555 1_555
H24 C28 1_555 1_555
H25 C28 1_555 1_555
H26 C28 1_555 1_555
C29 O6 1_555 1_555
H27 C29 1_555 1_555
H28 C29 1_555 1_555
H29 C29 1_555 1_555
C30 O2 1_555 1_555
Zn1A O4 1_555 1_555
O4A Zn1 1_555 1_555
N2 C23 1_555 1_555
N3 C22 1_555 1_555
C1 C2 1_555 1_555
C1 C5 1_555 1_555
C2 C3 1_555 1_555
C3 C4 1_555 1_555
C4 C5 1_555 1_555
C6 C7 1_555 1_555
C6 C10 1_555 1_555
C7 C8 1_555 1_555
C8 C9 1_555 1_555
C9 C10 1_555 1_555
C13 C30 1_555 1_555
C15 C16 1_555 1_555
C21 C22 1_555 1_555
C26 C27 1_555 1_555

#END
