
#######################################################################
#
#                 Cambridge Crystallographic Data Centre
#                                CCDC 
#
#######################################################################
#
# If this CIF has been generated from an entry in the Cambridge 
# Structural Database, then it will include bibliographic, chemical, 
# crystal, experimental, refinement or atomic coordinate data resulting 
# from the CCDC's data processing and validation procedures.
#
#######################################################################

data_MOJTAH
_symmetry_cell_setting           triclinic
_symmetry_space_group_name_H-M   'P -1'
_symmetry_Int_Tables_number      2
_space_group_name_Hall           '-P 1'
loop_
_symmetry_equiv_pos_site_id
_symmetry_equiv_pos_as_xyz
1 x,y,z
2 -x,-y,-z
_cell_length_a                   9.7240(19)
_cell_length_b                   10.214(2)
_cell_length_c                   14.320(3)
_cell_angle_alpha                93.32(3)
_cell_angle_beta                 103.32(3)
_cell_angle_gamma                92.87(3)
_cell_volume                     1378.74
loop_
_atom_site_label
_atom_site_type_symbol
_atom_site_fract_x
_atom_site_fract_y
_atom_site_fract_z
Zn1 Zn 0.50655(4) 0.79505(4) 0.32434(3)
Fe1 Fe -0.18921(6) 1.25731(5) 0.11855(4)
O1 O 0.5247(3) 1.0598(2) 0.38571(19)
N1 N 0.6381(3) 0.7859(3) 0.2160(2)
C1 C -0.1764(5) 1.2973(5) 0.2620(3)
H1 H -0.0907 1.3139 0.3099
O2 O 0.3937(3) 0.9400(2) 0.25968(18)
N2 N 0.7209(3) 0.8230(3) 0.4087(2)
C2 C -0.2546(6) 1.3923(5) 0.2081(3)
H2 H -0.2313 1.4843 0.2148
O3 O 0.3669(3) 1.6401(2) 0.25433(19)
C3 C -0.3716(5) 1.3283(7) 0.1437(4)
H3 H -0.4408 1.3691 0.0986
O4 O 0.5493(3) 1.5548(2) 0.3483(2)
C4 C -0.3695(6) 1.1931(6) 0.1569(4)
H4 H -0.4368 1.1266 0.1222
O5 O 0.4198(3) 0.7883(3) 0.4454(2)
C5 C -0.2489(6) 1.1734(6) 0.2314(4)
H5 H -0.2221 1.0917 0.2561
C6 C -0.0670(4) 1.1311(4) 0.0624(3)
H7 H -0.0453 1.0458 0.0819
C7 C -0.1850(4) 1.1622(5) -0.0101(3)
H8 H -0.2555 1.1002 -0.0473
C8 C -0.1812(4) 1.2985(5) -0.0182(3)
H9 H -0.2476 1.3445 -0.0616
C9 C -0.0591(4) 1.3555(4) 0.0507(3)
H10 H -0.0311 1.4466 0.0614
C10 C 0.0141(4) 1.2524(4) 0.1011(3)
C11 C 0.1525(4) 1.2659(3) 0.1720(2)
C12 C 0.2216(4) 1.3916(3) 0.2019(2)
H11 H 0.1759 1.4675 0.1790
C13 C 0.3559(4) 1.4064(3) 0.2646(2)
C14 C 0.4214(4) 1.2946(3) 0.3007(2)
H12 H 0.5112 1.3043 0.3449
C15 C 0.2226(4) 1.1558(3) 0.2078(2)
H13 H 0.1789 1.0703 0.1878
C16 C 0.3560(4) 1.1695(3) 0.2725(3)
C17 C 0.4307(4) 1.0484(4) 0.3091(3)
C18 C 0.5952(5) 0.7701(5) 0.1206(3)
H14 H 0.4965 0.7652 0.0921
C19 C 0.6904(5) 0.7605(6) 0.0603(3)
H15 H 0.6558 0.7506 -0.0075
C20 C 0.8326(5) 0.7654(5) 0.0995(3)
H16 H 0.8975 0.7570 0.0594
C21 C 0.8822(4) 0.7832(4) 0.2007(3)
C22 C 0.7791(4) 0.7917(3) 0.2552(3)
C23 C 1.0298(4) 0.7904(5) 0.2488(3)
H17 H 1.0991 0.7824 0.2121
C24 C 1.0708(4) 0.8083(4) 0.3448(3)
H18 H 1.1690 0.8148 0.3747
C25 C 0.9700(4) 0.8182(4) 0.4041(3)
C26 C 0.8237(4) 0.8106(3) 0.3589(3)
C27 C 1.0070(4) 0.8375(4) 0.5044(3)
H19 H 1.1037 0.8414 0.5380
C28 C 0.9030(4) 0.8510(4) 0.5544(3)
H20 H 0.9273 0.8657 0.6224
C29 C 0.7609(4) 0.8427(4) 0.5037(3)
H21 H 0.6899 0.8515 0.5390
C30 C 0.4293(4) 1.5416(4) 0.2913(3)
H25 H 0.436(6) 0.841(5) 0.495(4)
H26 H 0.398(6) 0.719(6) 0.463(4)
Zn1_2 Zn 0.50655(4) 1.79505(4) 0.32434(3)
O3_2 O 0.3669(3) 0.6401(2) 0.25433(19)
O6 O 0.3157(4) 0.5605(5) 0.4968(3)
H6 H 0.3624 0.5191 0.5411
C31 C 0.1842(5) 0.5107(5) 0.4726(4)
H22 H 0.1487 0.5010 0.5307
H23 H 0.1804 0.4244 0.4381
H24 H 0.1254 0.5694 0.4310
loop_
_geom_bond_atom_site_label_1
_geom_bond_atom_site_label_2
_geom_bond_site_symmetry_1
_geom_bond_site_symmetry_2
Zn1 N1 1_555 1_555
Fe1 C1 1_555 1_555
O1 C17 1_555 1_555
N1 C18 1_555 1_555
C1 H1 1_555 1_555
O2 Zn1 1_555 1_555
N2 Zn1 1_555 1_555
C2 Fe1 1_555 1_555
H2 C2 1_555 1_555
O3 C30 1_555 1_555
C3 Fe1 1_555 1_555
H3 C3 1_555 1_555
O4 C30 1_555 1_555
C4 Fe1 1_555 1_555
H4 C4 1_555 1_555
O5 Zn1 1_555 1_555
C5 Fe1 1_555 1_555
H5 C5 1_555 1_555
O6 H6 1_555 1_555
C6 Fe1 1_555 1_555
H7 C6 1_555 1_555
C7 Fe1 1_555 1_555
H8 C7 1_555 1_555
C8 Fe1 1_555 1_555
H9 C8 1_555 1_555
C9 Fe1 1_555 1_555
H10 C9 1_555 1_555
C10 Fe1 1_555 1_555
C11 C10 1_555 1_555
C12 C11 1_555 1_555
H11 C12 1_555 1_555
C13 C12 1_555 1_555
C14 C13 1_555 1_555
H12 C14 1_555 1_555
C15 C11 1_555 1_555
H13 C15 1_555 1_555
C16 C14 1_555 1_555
C17 O2 1_555 1_555
C18 H14 1_555 1_555
C19 C18 1_555 1_555
H15 C19 1_555 1_555
C20 C19 1_555 1_555
H16 C20 1_555 1_555
C21 C20 1_555 1_555
C22 N1 1_555 1_555
C23 C21 1_555 1_555
H17 C23 1_555 1_555
C24 C23 1_555 1_555
H18 C24 1_555 1_555
C25 C24 1_555 1_555
C26 N2 1_555 1_555
C27 C25 1_555 1_555
H19 C27 1_555 1_555
C28 C27 1_555 1_555
H20 C28 1_555 1_555
C29 N2 1_555 1_555
H21 C29 1_555 1_555
C30 C13 1_555 1_555
C31 O6 1_555 1_555
H22 C31 1_555 1_555
H23 C31 1_555 1_555
H24 C31 1_555 1_555
H25 O5 1_555 1_555
H26 O5 1_555 1_555
Zn1_2 O3 1_555 1_555
O3_2 Zn1 1_555 1_555
C1 C2 1_555 1_555
C1 C5 1_555 1_555
C2 C3 1_555 1_555
C3 C4 1_555 1_555
C4 C5 1_555 1_555
C6 C7 1_555 1_555
C6 C10 1_555 1_555
C7 C8 1_555 1_555
C8 C9 1_555 1_555
C9 C10 1_555 1_555
C15 C16 1_555 1_555
C16 C17 1_555 1_555
C21 C22 1_555 1_555
C22 C26 1_555 1_555
C25 C26 1_555 1_555
C28 C29 1_555 1_555

#END
