
#######################################################################
#
#                 Cambridge Crystallographic Data Centre
#                                CCDC 
#
#######################################################################
#
# If this CIF has been generated from an entry in the Cambridge 
# Structural Database, then it will include bibliographic, chemical, 
# crystal, experimental, refinement or atomic coordinate data resulting 
# from the CCDC's data processing and validation procedures.
#
#######################################################################

data_MOJTEM
_symmetry_cell_setting           monoclinic
_symmetry_space_group_name_H-M   'P 21/c'
_symmetry_Int_Tables_number      14
_space_group_name_Hall           '-P 2ybc'
loop_
_symmetry_equiv_pos_site_id
_symmetry_equiv_pos_as_xyz
1 x,y,z
2 -x,1/2+y,1/2-z
3 -x,-y,-z
4 x,1/2-y,1/2+z
_cell_length_a                   11.9812(8)
_cell_length_b                   8.8306(4)
_cell_length_c                   21.3304(9)
_cell_angle_alpha                90
_cell_angle_beta                 120.741(3)
_cell_angle_gamma                90
_cell_volume                     1939.67
loop_
_atom_site_label
_atom_site_type_symbol
_atom_site_fract_x
_atom_site_fract_y
_atom_site_fract_z
Ni1 Ni 0.02421(5) -0.21098(6) -0.31113(3)
C1 C -0.8597(5) -0.1566(7) -0.4084(3)
C2 C -0.8282(7) -0.2241(9) -0.4641(4)
H1 H -0.9058 -0.2702 -0.5037
H2 H -0.8013 -0.1436 -0.4844
C3 C -0.7219(8) -0.3417(10) -0.4298(5)
H3 H -0.7045 -0.3776 -0.4670
H4 H -0.7547 -0.4270 -0.4154
C4 C -0.5927(7) -0.2925(7) -0.3635(5)
C5 C -0.5243(8) -0.1672(10) -0.3715(5)
H5 H -0.5636 -0.1110 -0.4143
C6 C -0.3977(7) -0.1285(8) -0.3146(4)
H6 H -0.3519 -0.0479 -0.3188
C7 C -0.3474(7) -0.2154(7) -0.2543(4)
C8 C -0.4154(8) -0.3369(10) -0.2478(5)
H7 H -0.3776 -0.3928 -0.2048
C9 C -0.5339(8) -0.3743(9) -0.3022(5)
H8 H -0.5759 -0.4582 -0.2974
C10 C -0.1535(6) -0.0630(6) -0.1834(3)
H9 H -0.0962 -0.0459 -0.1316
H10 H -0.2149 0.0202 -0.2023
C11 C -0.0729(4) -0.0599(5) -0.2201(2)
C12 C 0.3150(5) -0.1735(8) -0.2183(3)
H11 H 0.3047 -0.1458 -0.2630
C13 C 0.4392(5) -0.1818(8) -0.1583(3)
H12 H 0.5097 -0.1613 -0.1639
C14 C 0.4611(5) -0.2198(6) -0.0900(3)
C15 C 0.3481(5) -0.2517(8) -0.0877(3)
H13 H 0.3547 -0.2800 -0.0439
C16 C 0.2280(5) -0.2411(8) -0.1501(3)
H14 H 0.1553 -0.2618 -0.1466
C17 C 0.5915(4) -0.2328(6) -0.0258(3)
C18 C 0.6909(5) -0.2992(7) -0.0314(3)
H15 H 0.6766 -0.3335 -0.0762
C19 C 0.8124(5) -0.3135(7) 0.0312(3)
H16 H 0.8778 -0.3629 0.0280
C20 C 0.7436(5) -0.1911(6) 0.1003(3)
H17 H 0.7617 -0.1518 0.1450
C21 C 0.6202(5) -0.1768(7) 0.0414(3)
H18 H 0.5561 -0.1296 0.0467
O1 O -0.0658(3) -0.1776(4) -0.25060(18)
O2 O 0.0194(4) 0.0176(4) -0.3332(2)
H19 H 0.033(6) 0.084(5) -0.302(3)
H20 H 0.071(5) 0.037(7) -0.349(3)
O3 O -0.0147(3) 0.0623(4) -0.21489(18)
O4 O -0.2238(4) -0.2001(5) -0.1930(3)
O5 O -0.8965(4) -0.2481(4) -0.3770(2)
O6 O -0.8481(5) -0.0184(5) -0.3994(3)
N1 N 0.2095(4) -0.2034(5) -0.2147(2)
N2 N 0.8390(4) -0.2594(5) 0.0958(2)
Ni1_2 Ni -0.97579(5) -0.21098(6) -0.31113(3)
Ni1A Ni -0.02421(5) 0.28902(6) -0.18887(3)
Ni1C Ni 1.02421(5) -0.28902(6) 0.18887(3)
O3A O 0.0147(3) -0.4377(4) -0.28511(18)
O5_2 O 0.1035(4) -0.2481(4) -0.3770(2)
N2C N -0.1610(4) -0.2406(5) -0.4042(2)
loop_
_geom_bond_atom_site_label_1
_geom_bond_atom_site_label_2
_geom_bond_site_symmetry_1
_geom_bond_site_symmetry_2
Ni1 O1 1_555 1_555
C1 C2 1_555 1_555
C2 H1 1_555 1_555
H2 C2 1_555 1_555
C3 C2 1_555 1_555
H3 C3 1_555 1_555
H4 C3 1_555 1_555
C4 C3 1_555 1_555
C5 C4 1_555 1_555
H5 C5 1_555 1_555
C6 C5 1_555 1_555
H6 C6 1_555 1_555
C7 C6 1_555 1_555
C8 C7 1_555 1_555
H7 C8 1_555 1_555
C9 C4 1_555 1_555
H8 C9 1_555 1_555
C10 H9 1_555 1_555
H10 C10 1_555 1_555
C11 C10 1_555 1_555
C12 H11 1_555 1_555
C13 C12 1_555 1_555
H12 C13 1_555 1_555
C14 C13 1_555 1_555
C15 C14 1_555 1_555
H13 C15 1_555 1_555
C16 C15 1_555 1_555
H14 C16 1_555 1_555
C17 C14 1_555 1_555
C18 C17 1_555 1_555
H15 C18 1_555 1_555
C19 C18 1_555 1_555
H16 C19 1_555 1_555
C20 H17 1_555 1_555
C21 C17 1_555 1_555
H18 C21 1_555 1_555
O1 C11 1_555 1_555
O2 Ni1 1_555 1_555
H19 O2 1_555 1_555
H20 O2 1_555 1_555
O3 C11 1_555 1_555
O4 C7 1_555 1_555
O5 C1 1_555 1_555
O6 C1 1_555 1_555
N1 Ni1 1_555 1_555
N2 C19 1_555 1_555
Ni1_2 O5 1_555 1_555
Ni1A O3 1_555 1_555
Ni1C N2 1_555 1_555
O3A Ni1 1_555 1_555
O5_2 Ni1 1_555 1_555
N2C Ni1 1_555 1_555
C8 C9 1_555 1_555
C10 O4 1_555 1_555
C12 N1 1_555 1_555
C16 N1 1_555 1_555
C20 C21 1_555 1_555
C20 N2 1_555 1_555

#END
