
#######################################################################
#
#                 Cambridge Crystallographic Data Centre
#                                CCDC 
#
#######################################################################
#
# If this CIF has been generated from an entry in the Cambridge 
# Structural Database, then it will include bibliographic, chemical, 
# crystal, experimental, refinement or atomic coordinate data resulting 
# from the CCDC's data processing and validation procedures.
#
#######################################################################

data_MOJTUC
_symmetry_cell_setting           monoclinic
_symmetry_space_group_name_H-M   'P 21/a'
_symmetry_Int_Tables_number      14
_space_group_name_Hall           '-P 2yab'
loop_
_symmetry_equiv_pos_site_id
_symmetry_equiv_pos_as_xyz
1 x,y,z
2 1/2-x,1/2+y,-z
3 -x,-y,-z
4 1/2+x,1/2-y,z
_cell_length_a                   11.7311(7)
_cell_length_b                   14.2417(9)
_cell_length_c                   17.7909(11)
_cell_angle_alpha                90
_cell_angle_beta                 92.802(6)
_cell_angle_gamma                90
_cell_volume                     2968.79
loop_
_atom_site_label
_atom_site_type_symbol
_atom_site_fract_x
_atom_site_fract_y
_atom_site_fract_z
Cs1 Cs 0.52620(6) 0.35842(6) 0.42301(4)
Cs2 Cs 0.15648(8) 0.51912(8) 0.43699(5)
F1 F 0.6530(5) 0.4731(5) 0.2912(3)
O1 O 0.3841(5) 0.3019(4) 0.2695(3)
O2 O 0.2995(5) 0.5648(4) 0.2878(3)
O3 O 0.1169(6) 0.3375(7) 0.3432(5)
C1 C 0.6457(9) 0.6625(7) 0.1207(6)
H1 H 0.6442 0.7054 0.0813
C2 C 0.4400(7) 0.2910(7) 0.2026(4)
C3 C 0.5499(7) 0.3566(6) 0.1063(4)
H2 H 0.5786 0.4086 0.0818
O4 O 0.5103(6) 0.6917(6) 0.3968(4)
C4 C 0.7379(9) 0.6602(8) 0.1711(7)
H3 H 0.7988 0.7012 0.1660
C5 C 0.2054(7) 0.5290(6) 0.0602(5)
C6 C 0.4567(6) 0.4680(6) 0.1968(4)
H4 H 0.4501 0.4622 0.2513
C7 C 0.3425(7) 0.5052(6) 0.1657(4)
C8 C 0.5528(7) 0.5360(6) 0.1857(5)
C9 C 0.3064(7) 0.4933(6) 0.0899(4)
H5 H 0.3529 0.4598 0.0586
C10 C 0.1644(7) 0.5892(6) 0.1837(5)
C11 C 0.2699(7) 0.5552(6) 0.2114(4)
C12 C 0.6494(8) 0.5376(7) 0.2348(5)
C13 C 0.1351(7) 0.5767(6) 0.1081(5)
H6 H 0.0661 0.6009 0.0886
C14 C 0.2617(7) 0.3042(7) 0.2625(5)
H7 H 0.2339 0.2489 0.2355
H8 H 0.2369 0.3592 0.2340
C15 C 0.5749(7) 0.2673(6) 0.0804(5)
C16 C 0.3722(8) 0.6433(7) 0.3063(5)
H9 H 0.3258 0.6993 0.3101
H10 H 0.4238 0.6530 0.2660
C17 C 0.5286(7) 0.1914(7) 0.1157(5)
H11 H 0.5430 0.1315 0.0975
O5 O 0.4230(7) 0.5561(6) 0.4158(4)
C18 C 0.4825(6) 0.3709(6) 0.1684(4)
C19 C 0.4614(7) 0.2001(7) 0.1774(5)
C20 C 0.6544(9) 0.2532(7) 0.0155(6)
H12 H 0.7173 0.2140 0.0320
H13 H 0.6827 0.3131 0.0000
H14 H 0.6131 0.2239 -0.0260
C21 C 0.5548(8) 0.6018(6) 0.1277(5)
H15 H 0.4933 0.6049 0.0928
C22 C 0.2128(9) 0.3068(8) 0.3404(6)
C23 C 0.1720(8) 0.5175(7) -0.0221(5)
H16 H 0.2278 0.4795 -0.0456
H17 H 0.1680 0.5780 -0.0458
H18 H 0.0987 0.4875 -0.0274
C24 C 0.4412(9) 0.6290(8) 0.3796(5)
C25 C 0.0837(8) 0.6379(7) 0.2349(6)
H19 H 0.0178 0.6595 0.2058
H20 H 0.1217 0.6905 0.2588
H21 H 0.0604 0.5946 0.2726
O6 O 0.0841(10) 0.6197(9) 0.5800(5)
O7 O -0.0749(8) 0.6254(7) 0.4011(5)
O8 O 0.2724(7) 0.2751(8) 0.3942(4)
C26 C 0.4166(9) 0.1144(7) 0.2143(6)
H22 H 0.3367 0.1076 0.2010
H23 H 0.4273 0.1203 0.2679
H24 H 0.4569 0.0601 0.1977
C27 C 0.7389(8) 0.5976(8) 0.2282(6)
H25 H 0.8007 0.5954 0.2630
Cs1A Cs -0.02620(6) 0.85842(6) 0.57699(4)
Cs1B Cs 0.47380(6) 0.64158(6) 0.57699(4)
Cs1C Cs 0.02620(6) 0.14158(6) 0.42301(4)
Cs2B Cs -0.15648(8) 0.48088(8) 0.56301(5)
O3C O 0.6169(6) 0.1625(7) 0.3432(5)
O4B O 0.4897(6) 0.3083(6) 0.6032(4)
O5B O 0.5770(7) 0.4439(6) 0.5842(4)
O6A O 0.4159(10) 0.1197(9) 0.4200(5)
O6B O -0.0841(10) 0.3803(9) 0.4200(5)
O8C O 0.7724(7) 0.2249(8) 0.3942(4)
O9 O 0.2756(9) 0.312(2) 0.5437(6)
loop_
_geom_bond_atom_site_label_1
_geom_bond_atom_site_label_2
_geom_bond_site_symmetry_1
_geom_bond_site_symmetry_2
Cs1 F1 1_555 1_555
Cs2 O2 1_555 1_555
F1 C12 1_555 1_555
O1 Cs1 1_555 1_555
O2 C11 1_555 1_555
O3 Cs2 1_555 1_555
C1 H1 1_555 1_555
C2 O1 1_555 1_555
C3 H2 1_555 1_555
O4 C24 1_555 1_555
C4 C1 1_555 1_555
H3 C4 1_555 1_555
C5 C9 1_555 1_555
C6 H4 1_555 1_555
C7 C6 1_555 1_555
C8 C6 1_555 1_555
C9 C7 1_555 1_555
H5 C9 1_555 1_555
C10 C11 1_555 1_555
C11 C7 1_555 1_555
C12 C8 1_555 1_555
C13 C5 1_555 1_555
H6 C13 1_555 1_555
C14 O1 1_555 1_555
H7 C14 1_555 1_555
H8 C14 1_555 1_555
C15 C3 1_555 1_555
C16 O2 1_555 1_555
H9 C16 1_555 1_555
H10 C16 1_555 1_555
C17 C15 1_555 1_555
H11 C17 1_555 1_555
O5 Cs1 1_555 1_555
C18 C2 1_555 1_555
C19 C2 1_555 1_555
C20 C15 1_555 1_555
H12 C20 1_555 1_555
H13 C20 1_555 1_555
H14 C20 1_555 1_555
C21 C1 1_555 1_555
H15 C21 1_555 1_555
C22 O3 1_555 1_555
C23 C5 1_555 1_555
H16 C23 1_555 1_555
H17 C23 1_555 1_555
H18 C23 1_555 1_555
C24 C16 1_555 1_555
C25 C10 1_555 1_555
H19 C25 1_555 1_555
H20 C25 1_555 1_555
H21 C25 1_555 1_555
O6 Cs2 1_555 1_555
O7 Cs2 1_555 1_555
O8 Cs1 1_555 1_555
C26 C19 1_555 1_555
H22 C26 1_555 1_555
H23 C26 1_555 1_555
H24 C26 1_555 1_555
C27 C4 1_555 1_555
H25 C27 1_555 1_555
Cs1A O6 1_555 1_555
Cs1B O4 1_555 1_555
Cs1C O3 1_555 1_555
Cs2B O6 1_555 1_555
O3C Cs1 1_555 1_555
O4B Cs1 1_555 1_555
O5B Cs1 1_555 1_555
O6A Cs1 1_555 1_555
O6B Cs2 1_555 1_555
O8C Cs1 1_555 1_555
Cs2 O5 1_555 1_555
C3 C18 1_555 1_555
C6 C18 1_555 1_555
C8 C21 1_555 1_555
C10 C13 1_555 1_555
C12 C27 1_555 1_555
C14 C22 1_555 1_555
C17 C19 1_555 1_555
O5 C24 1_555 1_555
O5 Cs1B 1_555 1_555
C22 O8 1_555 1_555
O8 Cs1C 1_555 1_555
Cs1B O5B 1_555 1_555
Cs1C O6B 1_555 1_555
Cs2B O6B 1_555 1_555

#END
