
#######################################################################
#
#                 Cambridge Crystallographic Data Centre
#                                CCDC 
#
#######################################################################
#
# If this CIF has been generated from an entry in the Cambridge 
# Structural Database, then it will include bibliographic, chemical, 
# crystal, experimental, refinement or atomic coordinate data resulting 
# from the CCDC's data processing and validation procedures.
#
#######################################################################

data_MOJTEL
_symmetry_cell_setting           triclinic
_symmetry_space_group_name_H-M   'P -1'
_symmetry_Int_Tables_number      2
_space_group_name_Hall           '-P 1'
loop_
_symmetry_equiv_pos_site_id
_symmetry_equiv_pos_as_xyz
1 x,y,z
2 -x,-y,-z
_cell_length_a                   9.6959(12)
_cell_length_b                   10.0016(12)
_cell_length_c                   14.2310(18)
_cell_angle_alpha                94.555(2)
_cell_angle_beta                 102.563(2)
_cell_angle_gamma                92.556(2)
_cell_volume                     1340.03
loop_
_atom_site_label
_atom_site_type_symbol
_atom_site_fract_x
_atom_site_fract_y
_atom_site_fract_z
Co1 Co 0.51179(4) 0.80296(4) 0.33173(3)
Fe1 Fe -0.18782(6) 1.26312(5) 0.12087(4)
O1 O 0.4158(3) 0.7991(3) 0.4501(2)
O2 O 0.5197(3) 1.0481(2) 0.37638(19)
O3 O 0.3829(3) 0.9336(2) 0.25020(18)
O4 O 0.3707(3) 1.6439(2) 0.2582(2)
O5 O 0.5462(3) 1.5614(2) 0.3547(2)
N1 N 0.7252(3) 0.8264(3) 0.4132(2)
N2 N 0.6355(3) 0.7914(3) 0.2219(2)
C1 C 0.3559(3) 1.4082(3) 0.2685(2)
C2 C 0.3527(4) 1.1683(3) 0.2699(2)
C3 C 0.1523(3) 1.2690(3) 0.1737(2)
C4 C 0.2204(4) 1.1558(3) 0.2065(2)
H1 H 0.1757 1.0689 0.1851
C5 C 0.4204(3) 1.2937(3) 0.3011(2)
H2 H 0.5104 1.3017 0.3446
C6 C 0.2232(4) 1.3950(3) 0.2059(2)
H3 H 0.1794 1.4735 0.1844
C7 C 0.8255(3) 0.8120(3) 0.3601(2)
C8 C 0.4295(4) 1.5464(3) 0.2963(3)
C9 C 0.4235(4) 1.0423(3) 0.3012(3)
C10 C 0.0150(4) 1.2564(4) 0.1027(3)
C11 C 0.9096(4) 0.8493(4) 0.5557(3)
H4 H 0.9356 0.8617 0.6243
C12 C 0.9716(4) 0.8169(4) 0.4019(3)
C13 C 0.7775(4) 0.7944(3) 0.2569(3)
C14 C -0.0561(4) 1.3629(5) 0.0552(3)
H5 H -0.0274 1.4558 0.0682
C15 C 1.0115(4) 0.8352(4) 0.5032(3)
H6 H 1.1086 0.8378 0.5351
C16 C 0.5898(4) 0.7766(5) 0.1263(3)
H7 H 0.4908 0.7740 0.0998
C17 C 0.7684(4) 0.8454(4) 0.5085(3)
H8 H 0.6993 0.8569 0.5462
C18 C -0.3691(5) 1.1962(6) 0.1572(4)
H9 H -0.4357 1.1280 0.1215
C19 C -0.0658(4) 1.1358(4) 0.0622(3)
H10 H -0.0447 1.0484 0.0807
C20 C 1.0684(4) 0.8045(4) 0.3397(3)
H11 H 1.1670 0.8071 0.3675
C21 C 0.8762(4) 0.7832(4) 0.1984(3)
C22 C -0.2507(6) 1.1761(5) 0.2314(4)
H12 H -0.2242 1.0924 0.2548
C23 C -0.3710(5) 1.3338(6) 0.1454(4)
H13 H -0.4387 1.3753 0.1001
C24 C -0.1787(5) 1.3032(5) 0.2647(3)
H14 H -0.0942 1.3199 0.3135
C25 C 1.0243(4) 0.7893(4) 0.2432(3)
H15 H 1.0919 0.7824 0.2040
C26 C -0.1768(4) 1.3069(6) -0.0147(3)
H16 H -0.2418 1.3554 -0.0570
C27 C -0.2549(6) 1.3996(5) 0.2127(3)
H17 H -0.2321 1.4938 0.2214
C28 C -0.1829(5) 1.1658(5) -0.0101(3)
H18 H -0.2528 1.1027 -0.0486
C29 C 0.8228(5) 0.7679(5) 0.0986(3)
H19 H 0.8854 0.7598 0.0558
C30 C 0.6820(5) 0.7647(6) 0.0634(3)
H20 H 0.6451 0.7544 -0.0044
H25 H 0.398(5) 0.731(5) 0.460(3)
H26 H 0.446(5) 0.855(5) 0.504(4)
Co1_2 Co 0.51179(4) 1.80296(4) 0.33173(3)
O4_2 O 0.3707(3) 0.6439(2) 0.2582(2)
O6 O 0.6870(4) 0.4314(4) 0.4992(3)
H21 H 0.6396 0.4707 0.4541
C31 C 0.8166(5) 0.4903(5) 0.5262(4)
H22 H 0.8256 0.5454 0.5876
H23 H 0.8338 0.5475 0.4767
H24 H 0.8860 0.4215 0.5344
loop_
_geom_bond_atom_site_label_1
_geom_bond_atom_site_label_2
_geom_bond_site_symmetry_1
_geom_bond_site_symmetry_2
Co1 O1 1_555 1_555
Fe1 C10 1_555 1_555
O1 H25 1_555 1_555
O2 C9 1_555 1_555
O3 Co1 1_555 1_555
O4 C8 1_555 1_555
O5 C8 1_555 1_555
N1 Co1 1_555 1_555
N2 Co1 1_555 1_555
C1 C5 1_555 1_555
C2 C4 1_555 1_555
C3 C4 1_555 1_555
C4 H1 1_555 1_555
C5 C2 1_555 1_555
H2 C5 1_555 1_555
C6 C1 1_555 1_555
H3 C6 1_555 1_555
C7 N1 1_555 1_555
C8 C1 1_555 1_555
C9 O3 1_555 1_555
C10 C3 1_555 1_555
C11 H4 1_555 1_555
C12 C7 1_555 1_555
C13 N2 1_555 1_555
C14 Fe1 1_555 1_555
H5 C14 1_555 1_555
C15 C11 1_555 1_555
H6 C15 1_555 1_555
C16 N2 1_555 1_555
H7 C16 1_555 1_555
C17 N1 1_555 1_555
H8 C17 1_555 1_555
C18 Fe1 1_555 1_555
H9 C18 1_555 1_555
C19 Fe1 1_555 1_555
H10 C19 1_555 1_555
C20 C12 1_555 1_555
H11 C20 1_555 1_555
C21 C13 1_555 1_555
C22 Fe1 1_555 1_555
H12 C22 1_555 1_555
C23 Fe1 1_555 1_555
H13 C23 1_555 1_555
C24 Fe1 1_555 1_555
H14 C24 1_555 1_555
C25 C20 1_555 1_555
H15 C25 1_555 1_555
C26 Fe1 1_555 1_555
H16 C26 1_555 1_555
C27 Fe1 1_555 1_555
H17 C27 1_555 1_555
C28 Fe1 1_555 1_555
H18 C28 1_555 1_555
C29 C21 1_555 1_555
H19 C29 1_555 1_555
C30 C16 1_555 1_555
H20 C30 1_555 1_555
O6 H21 1_555 1_555
C31 O6 1_555 1_555
H22 C31 1_555 1_555
H23 C31 1_555 1_555
H24 C31 1_555 1_555
H26 O1 1_555 1_555
Co1_2 O4 1_555 1_555
O4_2 Co1 1_555 1_555
C2 C9 1_555 1_555
C3 C6 1_555 1_555
C7 C13 1_555 1_555
C10 C14 1_555 1_555
C10 C19 1_555 1_555
C11 C17 1_555 1_555
C12 C15 1_555 1_555
C14 C26 1_555 1_555
C18 C22 1_555 1_555
C18 C23 1_555 1_555
C19 C28 1_555 1_555
C21 C25 1_555 1_555
C22 C24 1_555 1_555
C23 C27 1_555 1_555
C24 C27 1_555 1_555
C26 C28 1_555 1_555
C29 C30 1_555 1_555

#END
