
#######################################################################
#
#                 Cambridge Crystallographic Data Centre
#                                CCDC 
#
#######################################################################
#
# If this CIF has been generated from an entry in the Cambridge 
# Structural Database, then it will include bibliographic, chemical, 
# crystal, experimental, refinement or atomic coordinate data resulting 
# from the CCDC's data processing and validation procedures.
#
#######################################################################

data_MOJTIP
_symmetry_cell_setting           monoclinic
_symmetry_space_group_name_H-M   'P 21/c'
_symmetry_Int_Tables_number      14
_space_group_name_Hall           '-P 2ybc'
loop_
_symmetry_equiv_pos_site_id
_symmetry_equiv_pos_as_xyz
1 x,y,z
2 -x,1/2+y,1/2-z
3 -x,-y,-z
4 x,1/2-y,1/2+z
_cell_length_a                   10.478(2)
_cell_length_b                   11.196(2)
_cell_length_c                   24.220(5)
_cell_angle_alpha                90.00
_cell_angle_beta                 93.43(3)
_cell_angle_gamma                90.00
_cell_volume                     2836.2
loop_
_atom_site_label
_atom_site_type_symbol
_atom_site_fract_x
_atom_site_fract_y
_atom_site_fract_z
Co1 Co 0.97697(4) 0.75402(3) 0.398976(14)
Fe1 Fe 0.37083(4) 0.34801(4) 0.315311(16)
O1 O 0.81531(17) 0.67582(17) 0.36380(8)
N1 N 0.8798(3) 0.8686(2) 0.44833(9)
C1 C 0.3772(3) 0.3542(3) 0.23122(12)
H1 H 0.4032 0.2916 0.2079
O2 O 0.99362(17) 0.5993(2) 0.33834(8)
N2 N 0.9867(3) 0.8096(2) 0.53247(9)
H2 H 0.9989 0.8310 0.5673
C2 C 0.2517(3) 0.3758(4) 0.24665(14)
H3 H 0.1785 0.3298 0.2354
O3 O 0.9786(2) 0.37511(19) 0.15974(9)
N3 N 1.0616(2) 0.6727(2) 0.46668(9)
C3 C 0.2525(3) 0.4761(3) 0.28126(14)
H4 H 0.1802 0.5093 0.2975
O4 O 0.8016(3) 0.2889(2) 0.12860(9)
C4 C 0.3794(3) 0.5198(3) 0.28803(13)
H5 H 0.4069 0.5873 0.3093
C5 C 0.4587(2) 0.4440(2) 0.25714(11)
C6 C 0.4498(4) 0.1899(3) 0.34235(15)
H7 H 0.4901 0.1322 0.3205
C7 C 0.3198(4) 0.1936(4) 0.35276(16)
H8 H 0.2561 0.1389 0.3391
C8 C 0.2998(4) 0.2937(4) 0.38737(16)
H9 H 0.2205 0.3178 0.4009
C9 C 0.4185(4) 0.3505(4) 0.39798(13)
H10 H 0.4339 0.4196 0.4201
C10 C 0.5098(4) 0.2869(4) 0.37005(15)
H11 H 0.5981 0.3062 0.3698
C11 C 0.5982(2) 0.4533(2) 0.25448(10)
C12 C 0.6619(2) 0.3979(2) 0.21255(10)
H12 H 0.6144 0.3525 0.1853
C13 C 0.7938(2) 0.4079(2) 0.20998(10)
C14 C 0.8630(2) 0.4725(2) 0.25007(10)
H13 H 0.9534 0.4776 0.2492
C15 C 0.6696(2) 0.5209(2) 0.29316(10)
H14 H 0.6272 0.5615 0.3212
C16 C 0.8011(2) 0.5304(2) 0.29185(10)
C17 C 0.8750(2) 0.6045(2) 0.33370(10)
C18 C 0.7891(3) 0.9377(3) 0.42277(13)
H15 H 0.7744 0.9297 0.3839
C19 C 0.7172(4) 1.0181(4) 0.44928(16)
H16 H 0.6540 1.0649 0.4295
C20 C 0.7390(4) 1.0297(4) 0.50630(16)
H17 H 0.6919 1.0860 0.5262
C21 C 0.8280(3) 0.9599(3) 0.53297(13)
H18 H 0.8430 0.9662 0.5719
C22 C 0.8978(3) 0.8787(3) 0.50320(11)
C23 C 1.0609(3) 0.7135(3) 0.51851(11)
C24 C 1.1361(4) 0.6586(3) 0.56112(12)
H19 H 1.1363 0.6892 0.5977
C25 C 1.2082(3) 0.5623(3) 0.55037(13)
H20 H 1.2590 0.5250 0.5793
C26 C 1.2077(3) 0.5183(3) 0.49680(13)
H21 H 1.2565 0.4499 0.4883
C27 C 1.1350(3) 0.5762(3) 0.45705(13)
H22 H 1.1355 0.5473 0.4202
C28 C 0.8599(3) 0.3525(3) 0.16315(11)
Co1A Co 1.02303(4) 0.25402(3) 0.101024(14)
O3A O 1.0214(2) 0.87511(19) 0.34026(9)
O5 O 1.5086(9) 0.7246(7) 0.4413(3)
H6 H 1.4794 0.7943 0.4380
C30 C 1.5007(19) 0.6808(10) 0.4021(4)
H26 H 1.4872 0.7404 0.3727
H27 H 1.4282 0.6254 0.4011
H28 H 1.5795 0.6363 0.3966
O6 O 0.9744(3) 1.1229(2) 0.35281(9)
C29 C 0.9378(6) 1.1950(4) 0.30749(16)
H23 H 0.9525 1.2790 0.3173
H24 H 0.8468 1.1826 0.2973
H25 H 0.9884 1.1740 0.2762
H29 H 0.966(15) 1.050(14) 0.345(5)
loop_
_geom_bond_atom_site_label_1
_geom_bond_atom_site_label_2
_geom_bond_site_symmetry_1
_geom_bond_site_symmetry_2
Co1 O1 1_555 1_555
Fe1 C1 1_555 1_555
O1 C17 1_555 1_555
N1 Co1 1_555 1_555
C1 H1 1_555 1_555
O2 Co1 1_555 1_555
N2 H2 1_555 1_555
C2 Fe1 1_555 1_555
H3 C2 1_555 1_555
O3 C28 1_555 1_555
N3 Co1 1_555 1_555
C3 Fe1 1_555 1_555
H4 C3 1_555 1_555
O4 C28 1_555 1_555
C4 Fe1 1_555 1_555
H5 C4 1_555 1_555
O5 H6 1_555 1_555
C5 Fe1 1_555 1_555
O6 C29 1_555 1_555
C6 Fe1 1_555 1_555
H7 C6 1_555 1_555
C7 Fe1 1_555 1_555
H8 C7 1_555 1_555
C8 Fe1 1_555 1_555
H9 C8 1_555 1_555
C9 Fe1 1_555 1_555
H10 C9 1_555 1_555
C10 Fe1 1_555 1_555
H11 C10 1_555 1_555
C11 C5 1_555 1_555
C12 C11 1_555 1_555
H12 C12 1_555 1_555
C13 C12 1_555 1_555
C14 C13 1_555 1_555
H13 C14 1_555 1_555
C15 C11 1_555 1_555
H14 C15 1_555 1_555
C16 C14 1_555 1_555
C17 O2 1_555 1_555
C18 N1 1_555 1_555
H15 C18 1_555 1_555
C19 C18 1_555 1_555
H16 C19 1_555 1_555
C20 C19 1_555 1_555
H17 C20 1_555 1_555
C21 C20 1_555 1_555
H18 C21 1_555 1_555
C22 N1 1_555 1_555
C23 N2 1_555 1_555
C24 C23 1_555 1_555
H19 C24 1_555 1_555
C25 C24 1_555 1_555
H20 C25 1_555 1_555
C26 C25 1_555 1_555
H21 C26 1_555 1_555
C27 N3 1_555 1_555
H22 C27 1_555 1_555
C28 C13 1_555 1_555
C29 H23 1_555 1_555
H24 C29 1_555 1_555
H25 C29 1_555 1_555
C30 O5 1_555 1_555
H26 C30 1_555 1_555
H27 C30 1_555 1_555
H28 C30 1_555 1_555
H29 O6 1_555 1_555
Co1A O3 1_555 1_555
O3A Co1 1_555 1_555
C1 C2 1_555 1_555
C1 C5 1_555 1_555
N2 C22 1_555 1_555
C2 C3 1_555 1_555
N3 C23 1_555 1_555
C3 C4 1_555 1_555
C4 C5 1_555 1_555
C6 C7 1_555 1_555
C6 C10 1_555 1_555
C7 C8 1_555 1_555
C8 C9 1_555 1_555
C9 C10 1_555 1_555
C15 C16 1_555 1_555
C16 C17 1_555 1_555
C21 C22 1_555 1_555
C26 C27 1_555 1_555

#END
