
#######################################################################
#
#                 Cambridge Crystallographic Data Centre
#                                CCDC 
#
#######################################################################
#
# If this CIF has been generated from an entry in the Cambridge 
# Structural Database, then it will include bibliographic, chemical, 
# crystal, experimental, refinement or atomic coordinate data resulting 
# from the CCDC's data processing and validation procedures.
#
#######################################################################

data_MOJVAK
_symmetry_cell_setting           monoclinic
_symmetry_space_group_name_H-M   'P 21/c'
_symmetry_Int_Tables_number      14
_space_group_name_Hall           '-P 2ybc'
loop_
_symmetry_equiv_pos_site_id
_symmetry_equiv_pos_as_xyz
1 x,y,z
2 -x,1/2+y,1/2-z
3 -x,-y,-z
4 x,1/2-y,1/2+z
_cell_length_a                   17.6717(12)
_cell_length_b                   14.1935(9)
_cell_length_c                   11.5938(8)
_cell_angle_alpha                90
_cell_angle_beta                 101.479(4)
_cell_angle_gamma                90
_cell_volume                     2849.83
loop_
_atom_site_label
_atom_site_type_symbol
_atom_site_fract_x
_atom_site_fract_y
_atom_site_fract_z
C1 C 0.19305(17) 0.5363(2) 0.0127(3)
C2 C 0.1690(2) 0.6620(3) -0.1761(3)
H1 H 0.1609 0.7037 -0.2392
C3 C 0.1295(2) 0.5970(2) -0.0078(3)
H2 H 0.0944 0.5957 0.0422
C4 C 0.24367(19) 0.5408(3) -0.0642(3)
H3 H 0.2863 0.5010 -0.0527
C5 C 0.1183(2) 0.6590(2) -0.1016(3)
H4 H 0.0758 0.6990 -0.1140
C6 C 0.2323(2) 0.6030(3) -0.1576(3)
H5 H 0.2672 0.6052 -0.2080
C7 C 0.20833(16) 0.2883(2) 0.1396(3)
C8 C 0.17484(16) 0.36841(19) 0.0791(3)
C9 C 0.17953(17) 0.1979(2) 0.1098(3)
C10 C 0.08305(18) 0.2665(2) -0.0466(3)
C11 C 0.11276(17) 0.3549(2) -0.0125(3)
H6 H 0.0899 0.4074 -0.0532
C12 C 0.11731(18) 0.1897(2) 0.0166(3)
H7 H 0.0977 0.1299 -0.0044
C13 C 0.2160(2) 0.1117(2) 0.1726(3)
H8 H 0.1994 0.1049 0.2460
H9 H 0.2712 0.1179 0.1872
H10 H 0.2009 0.0571 0.1246
C14 C 0.0174(2) 0.2535(3) -0.1502(4)
H11 H 0.0057 0.3127 -0.1899
H12 H -0.0273 0.2312 -0.1232
H13 H 0.0319 0.2085 -0.2036
C15 C 0.17733(16) 0.50394(18) 0.2207(3)
C16 C 0.22555(16) 0.55770(18) 0.3061(3)
C17 C 0.19979(18) 0.5927(2) 0.4039(3)
C18 C 0.07234(17) 0.5282(2) 0.3248(3)
C19 C 0.20745(16) 0.4667(2) 0.1148(3)
H14 H 0.2635 0.4600 0.1395
C20 C 0.12331(18) 0.5778(2) 0.4099(3)
H15 H 0.1052 0.6020 0.4739
C21 C 0.10174(17) 0.4902(2) 0.2324(3)
H16 H 0.0694 0.4541 0.1763
C22 C -0.01131(18) 0.5176(2) 0.3306(3)
H17 H -0.0160 0.4767 0.3947
H18 H -0.0389 0.4912 0.2581
H19 H -0.0325 0.5783 0.3426
C23 C 0.2542(2) 0.6436(3) 0.5012(3)
H20 H 0.3020 0.6094 0.5206
H21 H 0.2313 0.6477 0.5694
H22 H 0.2640 0.7058 0.4753
C24 C 0.34668(18) 0.3273(2) 0.4195(3)
C25 C 0.26993(18) 0.3008(2) 0.3454(3)
H23 H 0.2545 0.2391 0.3684
H24 H 0.2310 0.3461 0.3570
C26 C 0.31326(18) 0.6579(2) 0.2325(3)
H25 H 0.3157 0.7115 0.2849
H26 H 0.2697 0.6669 0.1679
C27 C 0.38618(19) 0.6533(2) 0.1849(3)
O1 O 0.30173(11) 0.57326(13) 0.29536(18)
O2 O 0.27604(11) 0.29943(15) 0.22358(18)
O3 O 0.40020(12) 0.35331(15) 0.37048(19)
O4 O 0.42134(13) 0.57640(16) 0.1866(2)
O5 O 0.35106(13) 0.32408(17) 0.5291(2)
O6 O 0.40603(16) 0.72902(19) 0.1444(3)
Na1 Na 0.42987(7) 0.52193(8) 0.38336(11)
Na2 Na 0.40535(8) 0.23567(9) 0.69512(12)
O7 O 0.43421(14) 0.49013(19) 0.5830(2)
O8 O 0.46412(17) 0.69004(19) 0.4490(3)
H27 H 0.5064 0.6908 0.4935
O9 O 0.42812(17) 0.3797(2) 0.8356(3)
H28 H 0.4744 0.3916 0.8524
O10 O 0.43582(19) 0.10339(19) 0.5892(3)
H29 H 0.4238 0.0551 0.6198
H30 H 0.426(2) 0.526(3) 0.640(4)
H31 H 0.4052(19) 0.441(3) 0.583(3)
H32 H 0.439(4) 0.718(5) 0.494(6)
H33 H 0.430(3) 0.101(4) 0.5158(18)
H34 H 0.404(3) 0.426(4) 0.803(6)
O2C O 0.27604(11) 0.20057(15) 0.72358(18)
O3C O 0.40020(12) 0.14669(15) 0.87048(19)
Na1B Na 0.57013(7) 0.47807(8) 0.61664(11)
Na2C Na 0.40535(8) 0.26433(9) 0.19512(12)
O7B O 0.56579(14) 0.50987(19) 0.4170(2)
O11 O 0.41067(19) 0.6028(2) 0.7651(3)
H35 H 0.438(4) 0.602(5) 0.846(8)
H36 H 0.416(3) 0.656(2) 0.733(5)
loop_
_geom_bond_atom_site_label_1
_geom_bond_atom_site_label_2
_geom_bond_site_symmetry_1
_geom_bond_site_symmetry_2
C1 C3 1_555 1_555
C2 H1 1_555 1_555
C3 H2 1_555 1_555
C4 C1 1_555 1_555
H3 C4 1_555 1_555
C5 C2 1_555 1_555
H4 C5 1_555 1_555
C6 C2 1_555 1_555
H5 C6 1_555 1_555
C7 C8 1_555 1_555
C8 C11 1_555 1_555
C9 C7 1_555 1_555
C10 C11 1_555 1_555
C11 H6 1_555 1_555
C12 C9 1_555 1_555
H7 C12 1_555 1_555
C13 C9 1_555 1_555
H8 C13 1_555 1_555
H9 C13 1_555 1_555
H10 C13 1_555 1_555
C14 C10 1_555 1_555
H11 C14 1_555 1_555
H12 C14 1_555 1_555
H13 C14 1_555 1_555
C15 C16 1_555 1_555
C16 C17 1_555 1_555
C17 C20 1_555 1_555
C18 C20 1_555 1_555
C19 C1 1_555 1_555
H14 C19 1_555 1_555
C20 H15 1_555 1_555
C21 C15 1_555 1_555
H16 C21 1_555 1_555
C22 C18 1_555 1_555
H17 C22 1_555 1_555
H18 C22 1_555 1_555
H19 C22 1_555 1_555
C23 C17 1_555 1_555
H20 C23 1_555 1_555
H21 C23 1_555 1_555
H22 C23 1_555 1_555
C24 C25 1_555 1_555
C25 H23 1_555 1_555
H24 C25 1_555 1_555
C26 H25 1_555 1_555
H26 C26 1_555 1_555
C27 C26 1_555 1_555
O1 C16 1_555 1_555
O2 C7 1_555 1_555
O3 C24 1_555 1_555
O4 C27 1_555 1_555
O5 C24 1_555 1_555
O6 C27 1_555 1_555
Na1 O1 1_555 1_555
Na2 O5 1_555 1_555
O7 Na1 1_555 1_555
O8 Na1 1_555 1_555
H27 O8 1_555 1_555
O9 Na2 1_555 1_555
H28 O9 1_555 1_555
O10 Na2 1_555 1_555
H29 O10 1_555 1_555
H30 O7 1_555 1_555
H31 O7 1_555 1_555
H32 O8 1_555 1_555
H33 O10 1_555 1_555
H34 O9 1_555 1_555
O11 H35 1_555 1_555
H36 O11 1_555 1_555
O2C Na2 1_555 1_555
O3C Na2 1_555 1_555
Na1B O7 1_555 1_555
Na2C O2 1_555 1_555
O7B Na1 1_555 1_555
C3 C5 1_555 1_555
C4 C6 1_555 1_555
C8 C19 1_555 1_555
C10 C12 1_555 1_555
C15 C19 1_555 1_555
C18 C21 1_555 1_555
C25 O2 1_555 1_555
C26 O1 1_555 1_555
O3 Na1 1_555 1_555
O3 Na2C 1_555 1_555
O4 Na1 1_555 1_555
Na1B O7B 1_555 1_555

#END
