
#######################################################################
#
#                 Cambridge Crystallographic Data Centre
#                                CCDC 
#
#######################################################################
#
# If this CIF has been generated from an entry in the Cambridge 
# Structural Database, then it will include bibliographic, chemical, 
# crystal, experimental, refinement or atomic coordinate data resulting 
# from the CCDC's data processing and validation procedures.
#
#######################################################################

data_MOJVEO
_symmetry_cell_setting           monoclinic
_symmetry_space_group_name_H-M   'C 2/c'
_symmetry_Int_Tables_number      15
_space_group_name_Hall           '-C 2yn'
loop_
_symmetry_equiv_pos_site_id
_symmetry_equiv_pos_as_xyz
1 x,y,z
2 -x,y,1/2-z
3 1/2+x,1/2+y,z
4 1/2-x,1/2+y,1/2-z
5 -x,-y,-z
6 x,-y,1/2+z
7 1/2-x,1/2-y,-z
8 1/2+x,1/2-y,1/2+z
_cell_length_a                   31.862(3)
_cell_length_b                   14.3653(14)
_cell_length_c                   11.8638(12)
_cell_angle_alpha                90
_cell_angle_beta                 92.336(6)
_cell_angle_gamma                90
_cell_volume                     5425.63
loop_
_atom_site_label
_atom_site_type_symbol
_atom_site_fract_x
_atom_site_fract_y
_atom_site_fract_z
O1 O 0.44183(17) 0.0191(4) 0.1181(4)
C1 C 0.4376(2) 0.0186(5) 0.2202(6)
Cs1 Cs 0.490065(17) 0.13865(4) 0.49748(4)
C2 C 0.3159(2) 0.3563(5) 0.5442(6)
H1 H 0.2979 0.3571 0.4804
C3 C 0.3485(2) 0.2935(5) 0.5508(6)
C4 C 0.3685(3) 0.3580(7) 0.7336(7)
H2 H 0.3863 0.3581 0.7976
C5 C 0.3362(3) 0.4184(6) 0.7254(8)
H3 H 0.3319 0.4603 0.7836
C6 C 0.3095(3) 0.4185(6) 0.6312(8)
H4 H 0.2871 0.4602 0.6259
C7 C 0.3751(2) 0.2951(6) 0.6462(7)
H5 H 0.3977 0.2540 0.6521
C8 C 0.3404(2) 0.2564(4) 0.3405(6)
C9 C 0.3669(2) 0.3023(5) 0.2688(6)
C10 C 0.2990(2) 0.2430(5) 0.3036(6)
H6 H 0.2811 0.2104 0.3495
C11 C 0.2833(3) 0.2766(5) 0.2005(6)
C12 C 0.3528(3) 0.3329(5) 0.1628(7)
C13 C 0.3109(3) 0.3202(5) 0.1316(6)
H7 H 0.3010 0.3420 0.0617
C14 C 0.3824(3) 0.3774(6) 0.0821(7)
H8 H 0.3702 0.3747 0.0068
H9 H 0.4087 0.3446 0.0851
H10 H 0.3871 0.4412 0.1032
C15 C 0.2374(3) 0.2668(6) 0.1659(7)
H11 H 0.2345 0.2258 0.1021
H12 H 0.2261 0.3268 0.1460
H13 H 0.2225 0.2416 0.2275
C16 C 0.4563(3) 0.4115(6) 0.4155(8)
C17 C 0.4161(3) 0.4072(6) 0.3497(9)
H14 H 0.3934 0.4239 0.3978
H15 H 0.4165 0.4519 0.2885
O2 O 0.40858(16) 0.3158(3) 0.3041(4)
O3 O 0.4753(3) 0.3438(5) 0.4406(8)
C18 C 0.3632(2) 0.0492(5) 0.4402(6)
C19 C 0.34228(19) 0.1257(4) 0.4838(5)
C20 C 0.3511(2) -0.0418(5) 0.4654(6)
C21 C 0.3173(2) -0.0538(5) 0.5326(6)
H16 H 0.3086 -0.1141 0.5481
C22 C 0.3088(2) 0.1088(5) 0.5515(6)
H17 H 0.2943 0.1591 0.5805
C23 C 0.2961(2) 0.0193(5) 0.5776(6)
C24 C 0.3752(3) -0.1241(5) 0.4229(7)
H18 H 0.3713 -0.1764 0.4717
H19 H 0.4045 -0.1088 0.4222
H20 H 0.3651 -0.1394 0.3479
C25 C 0.2610(3) 0.0021(6) 0.6560(8)
H21 H 0.2393 -0.0337 0.6177
H22 H 0.2496 0.0606 0.6794
H23 H 0.2716 -0.0316 0.7210
C26 C 0.3570(2) 0.2240(4) 0.4563(6)
H24 H 0.3876 0.2204 0.4521
O4 O 0.39915(13) 0.0658(3) 0.3815(4)
O5 O 0.46597(15) -0.0069(4) 0.2935(4)
O6 O 0.4660(2) 0.4934(4) 0.4465(9)
H25 H 0.4910 0.5026 0.4364
C27 C 0.3960(2) 0.0501(5) 0.2623(6)
H26 H 0.3873 0.1070 0.2241
H27 H 0.3749 0.0029 0.2454
O7 O 0.5000 0.2217(7) 0.2500
O8 O 0.5249(4) 0.3137(12) 0.6773(18)
O1A O 0.55817(17) 0.0191(4) 0.3819(4)
C1A C 0.5624(2) 0.0186(5) 0.2798(6)
Cs1A Cs 0.509935(17) 0.13865(4) 0.00252(4)
C2A C 0.6841(2) 0.3563(5) -0.0442(6)
H1A H 0.7021 0.3571 0.0196
C3A C 0.6515(2) 0.2935(5) -0.0508(6)
C4A C 0.6315(3) 0.3580(7) -0.2336(7)
H2A H 0.6137 0.3581 -0.2976
C5A C 0.6638(3) 0.4184(6) -0.2254(8)
H3A H 0.6681 0.4603 -0.2836
C6A C 0.6905(3) 0.4185(6) -0.1312(8)
H4A H 0.7129 0.4602 -0.1259
C7A C 0.6249(2) 0.2951(6) -0.1462(7)
H5A H 0.6023 0.2540 -0.1521
C8A C 0.6596(2) 0.2564(4) 0.1595(6)
C9A C 0.6331(2) 0.3023(5) 0.2312(6)
C10A C 0.7010(2) 0.2430(5) 0.1964(6)
H6A H 0.7189 0.2104 0.1505
C11A C 0.7167(3) 0.2766(5) 0.2995(6)
C12A C 0.6472(3) 0.3329(5) 0.3372(7)
C13A C 0.6891(3) 0.3202(5) 0.3684(6)
H7A H 0.6990 0.3420 0.4383
C14A C 0.6176(3) 0.3774(6) 0.4179(7)
H8A H 0.6298 0.3747 0.4932
H9A H 0.5913 0.3446 0.4149
H10A H 0.6129 0.4412 0.3968
C15A C 0.7626(3) 0.2668(6) 0.3341(7)
H11A H 0.7655 0.2258 0.3979
H12A H 0.7739 0.3268 0.3540
H13A H 0.7775 0.2416 0.2725
C16A C 0.5437(3) 0.4115(6) 0.0845(8)
C17A C 0.5839(3) 0.4072(6) 0.1503(9)
H14A H 0.6066 0.4239 0.1022
H15A H 0.5835 0.4519 0.2115
O2A O 0.59142(16) 0.3158(3) 0.1959(4)
O3A O 0.5247(3) 0.3438(5) 0.0594(8)
C18A C 0.6368(2) 0.0492(5) 0.0598(6)
C19A C 0.65772(19) 0.1257(4) 0.0162(5)
C20A C 0.6489(2) -0.0418(5) 0.0346(6)
C21A C 0.6827(2) -0.0538(5) -0.0326(6)
H16A H 0.6914 -0.1141 -0.0481
C22A C 0.6912(2) 0.1088(5) -0.0515(6)
H17A H 0.7057 0.1591 -0.0805
C23A C 0.7039(2) 0.0193(5) -0.0776(6)
C24A C 0.6248(3) -0.1241(5) 0.0771(7)
H18A H 0.6287 -0.1764 0.0283
H19A H 0.5955 -0.1088 0.0778
H20A H 0.6349 -0.1394 0.1521
C25A C 0.7390(3) 0.0021(6) -0.1560(8)
H21A H 0.7607 -0.0337 -0.1177
H22A H 0.7504 0.0606 -0.1794
H23A H 0.7284 -0.0316 -0.2210
C26A C 0.6430(2) 0.2240(4) 0.0437(6)
H24A H 0.6124 0.2204 0.0479
O4A O 0.60085(13) 0.0658(3) 0.1185(4)
O5A O 0.53403(15) -0.0069(4) 0.2065(4)
O6A O 0.5340(2) 0.4934(4) 0.0535(9)
H25A H 0.5090 0.5026 0.0636
C27A C 0.6040(2) 0.0501(5) 0.2377(6)
H26A H 0.6127 0.1070 0.2759
H27A H 0.6251 0.0029 0.2546
O8A O 0.4751(4) 0.3137(12) -0.1773(18)
O1D O 0.55817(17) -0.0191(4) -0.1181(4)
O1E O 0.44183(17) -0.0191(4) 0.6181(4)
Cs1D Cs 0.509935(17) -0.13865(4) 0.50252(4)
Cs1E Cs 0.490065(17) -0.13865(4) -0.00252(4)
O5D O 0.53403(15) 0.0069(4) 0.7065(4)
O5E O 0.46597(15) 0.0069(4) -0.2065(4)
loop_
_geom_bond_atom_site_label_1
_geom_bond_atom_site_label_2
_geom_bond_site_symmetry_1
_geom_bond_site_symmetry_2
O1 C1 1_555 1_555
C1 O5 1_555 1_555
Cs1 O3 1_555 1_555
C2 H1 1_555 1_555
C3 C2 1_555 1_555
C4 H2 1_555 1_555
C5 C4 1_555 1_555
H3 C5 1_555 1_555
C6 C2 1_555 1_555
H4 C6 1_555 1_555
C7 C3 1_555 1_555
H5 C7 1_555 1_555
C8 C9 1_555 1_555
C9 C12 1_555 1_555
C10 C8 1_555 1_555
H6 C10 1_555 1_555
C11 C10 1_555 1_555
C12 C13 1_555 1_555
C13 C11 1_555 1_555
H7 C13 1_555 1_555
C14 C12 1_555 1_555
H8 C14 1_555 1_555
H9 C14 1_555 1_555
H10 C14 1_555 1_555
C15 C11 1_555 1_555
H11 C15 1_555 1_555
H12 C15 1_555 1_555
H13 C15 1_555 1_555
C16 C17 1_555 1_555
C17 H14 1_555 1_555
H15 C17 1_555 1_555
O2 C9 1_555 1_555
O3 C16 1_555 1_555
C18 C19 1_555 1_555
C19 C22 1_555 1_555
C20 C18 1_555 1_555
C21 C20 1_555 1_555
H16 C21 1_555 1_555
C22 H17 1_555 1_555
C23 C21 1_555 1_555
C24 C20 1_555 1_555
H18 C24 1_555 1_555
H19 C24 1_555 1_555
H20 C24 1_555 1_555
C25 C23 1_555 1_555
H21 C25 1_555 1_555
H22 C25 1_555 1_555
H23 C25 1_555 1_555
C26 C3 1_555 1_555
H24 C26 1_555 1_555
O4 Cs1 1_555 1_555
O5 Cs1 1_555 1_555
O6 C16 1_555 1_555
H25 O6 1_555 1_555
C27 C1 1_555 1_555
H26 C27 1_555 1_555
H27 C27 1_555 1_555
O7 Cs1 1_555 1_555
O8 Cs1 1_555 1_555
O1A Cs1 1_555 1_555
C1A O1A 1_555 1_555
Cs1A O1 1_555 1_555
C2A H1A 1_555 1_555
C3A C2A 1_555 1_555
C4A H2A 1_555 1_555
C5A C4A 1_555 1_555
H3A C5A 1_555 1_555
C6A C2A 1_555 1_555
H4A C6A 1_555 1_555
C7A C3A 1_555 1_555
H5A C7A 1_555 1_555
C8A C9A 1_555 1_555
C9A C12A 1_555 1_555
C10A C8A 1_555 1_555
H6A C10A 1_555 1_555
C11A C10A 1_555 1_555
C12A C13A 1_555 1_555
C13A C11A 1_555 1_555
H7A C13A 1_555 1_555
C14A C12A 1_555 1_555
H8A C14A 1_555 1_555
H9A C14A 1_555 1_555
H10A C14A 1_555 1_555
C15A C11A 1_555 1_555
H11A C15A 1_555 1_555
H12A C15A 1_555 1_555
H13A C15A 1_555 1_555
C16A C17A 1_555 1_555
C17A H14A 1_555 1_555
H15A C17A 1_555 1_555
O2A C9A 1_555 1_555
O3A Cs1A 1_555 1_555
C18A C19A 1_555 1_555
C19A C22A 1_555 1_555
C20A C18A 1_555 1_555
C21A C20A 1_555 1_555
H16A C21A 1_555 1_555
C22A H17A 1_555 1_555
C23A C21A 1_555 1_555
C24A C20A 1_555 1_555
H18A C24A 1_555 1_555
H19A C24A 1_555 1_555
H20A C24A 1_555 1_555
C25A C23A 1_555 1_555
H21A C25A 1_555 1_555
H22A C25A 1_555 1_555
H23A C25A 1_555 1_555
C26A C3A 1_555 1_555
H24A C26A 1_555 1_555
O4A Cs1A 1_555 1_555
O5A C1A 1_555 1_555
O6A C16A 1_555 1_555
H25A O6A 1_555 1_555
C27A C1A 1_555 1_555
H26A C27A 1_555 1_555
H27A C27A 1_555 1_555
O8A Cs1A 1_555 1_555
O1D Cs1A 1_555 1_555
O1E Cs1 1_555 1_555
Cs1D O5 1_555 1_555
Cs1E O1 1_555 1_555
O5D Cs1 1_555 1_555
O5E Cs1A 1_555 1_555
C4 C7 1_555 1_555
C5 C6 1_555 1_555
C8 C26 1_555 1_555
C17 O2 1_555 1_555
C18 O4 1_555 1_555
C19 C26 1_555 1_555
C22 C23 1_555 1_555
O4 C27 1_555 1_555
O7 Cs1A 1_555 1_555
O1A Cs1D 1_555 1_555
Cs1A O5A 1_555 1_555
C4A C7A 1_555 1_555
C5A C6A 1_555 1_555
C8A C26A 1_555 1_555
C16A O3A 1_555 1_555
C17A O2A 1_555 1_555
C18A O4A 1_555 1_555
C19A C26A 1_555 1_555
C22A C23A 1_555 1_555
O4A C27A 1_555 1_555
O5A Cs1E 1_555 1_555
O1D Cs1E 1_555 1_555
O1E Cs1D 1_555 1_555
Cs1D O5D 1_555 1_555
Cs1E O5E 1_555 1_555

#END
