
#######################################################################
#
#                 Cambridge Crystallographic Data Centre
#                                CCDC 
#
#######################################################################
#
# If this CIF has been generated from an entry in the Cambridge 
# Structural Database, then it will include bibliographic, chemical, 
# crystal, experimental, refinement or atomic coordinate data resulting 
# from the CCDC's data processing and validation procedures.
#
#######################################################################

data_MOJWUF
_symmetry_cell_setting           monoclinic
_symmetry_space_group_name_H-M   'C 2/c'
_symmetry_Int_Tables_number      15
_space_group_name_Hall           '-C 2yn'
loop_
_symmetry_equiv_pos_site_id
_symmetry_equiv_pos_as_xyz
1 x,y,z
2 -x,y,1/2-z
3 1/2+x,1/2+y,z
4 1/2-x,1/2+y,1/2-z
5 -x,-y,-z
6 x,-y,1/2+z
7 1/2-x,1/2-y,-z
8 1/2+x,1/2-y,1/2+z
_cell_length_a                   24.1992(8)
_cell_length_b                   11.9022(4)
_cell_length_c                   8.8298(4)
_cell_angle_alpha                90
_cell_angle_beta                 97.481(3)
_cell_angle_gamma                90
_cell_volume                     2521.54
loop_
_atom_site_label
_atom_site_type_symbol
_atom_site_fract_x
_atom_site_fract_y
_atom_site_fract_z
Zn1 Zn 0.0000 0.0000 0.0000
C1 C 0.12957(17) 0.3839(4) 0.0719(5)
C2 C 0.07735(16) 0.3304(3) 0.0624(4)
C3 C 0.03408(16) 0.3850(3) 0.1215(5)
H1 H -0.0007 0.3509 0.1145
C4 C 0.04187(18) 0.4890(3) 0.1904(5)
C5 C 0.09226(19) 0.5441(4) 0.1941(5)
H2 H 0.0969 0.6159 0.2352
C6 C 0.1356(2) 0.4910(4) 0.1361(6)
H3 H 0.1697 0.5276 0.1398
C7 C 0.06332(15) 0.2188(3) -0.0118(5)
C8 C 0.18041(19) 0.3300(5) 0.0226(6)
C9 C -0.08832(18) 0.1598(4) 0.0759(5)
H4 H -0.0591 0.1855 0.1463
C10 C -0.1386(2) 0.2149(6) 0.0637(7)
H5 H -0.1432 0.2760 0.1267
C11 C -0.1825(2) 0.1799(7) -0.0417(7)
C12 C -0.1742(2) 0.0861(6) -0.1256(7)
H6 H -0.2032 0.0571 -0.1938
C13 C -0.1230(2) 0.0352(5) -0.1089(6)
H7 H -0.1178 -0.0270 -0.1692
C14 C -0.2385(3) 0.2400(12) -0.0595(9)
H8 H -0.2338 0.3113 -0.1096
H9 H -0.2643 0.1957 -0.1284
O1 O 0.03459(12) 0.1553(2) 0.0614(3)
O2 O 0.0000 -0.0496(3) 0.2500
O3 O 0.07735(13) 0.1987(3) -0.1390(4)
O4 O 0.18457(18) 0.2206(4) 0.0521(6)
O5 O 0.21886(19) 0.3852(4) -0.0033(8)
H10 H 0.2454 0.3382 -0.0016
O6 O 0.0000 0.5465(4) 0.2500
N1 N -0.08008(13) 0.0711(3) -0.0099(4)
C1A C -0.12957(17) 0.3839(4) 0.4281(5)
C2A C -0.07735(16) 0.3304(3) 0.4376(4)
C3A C -0.03408(16) 0.3850(3) 0.3785(5)
H1A H 0.0007 0.3509 0.3855
C4A C -0.04187(18) 0.4890(3) 0.3096(5)
C5A C -0.09226(19) 0.5441(4) 0.3059(5)
H2A H -0.0969 0.6159 0.2648
C6A C -0.1356(2) 0.4910(4) 0.3639(6)
H3A H -0.1697 0.5276 0.3602
C7A C -0.06332(15) 0.2188(3) 0.5118(5)
C8A C -0.18041(19) 0.3300(5) 0.4774(6)
O1A O -0.03459(12) 0.1553(2) 0.4386(3)
O3A O -0.07735(13) 0.1987(3) 0.6390(4)
O4A O -0.18457(18) 0.2206(4) 0.4479(6)
O5A O -0.21886(19) 0.3852(4) 0.5033(8)
H10A H -0.2454 0.3382 0.5016
C9F C -0.41168(18) 0.3402(4) -0.0759(5)
H4F H -0.4409 0.3145 -0.1463
C10F C -0.3614(2) 0.2851(6) -0.0637(7)
H5F H -0.3568 0.2240 -0.1267
C11F C -0.3175(2) 0.3201(7) 0.0417(7)
C12F C -0.3258(2) 0.4139(6) 0.1256(7)
H6F H -0.2968 0.4429 0.1938
C13F C -0.3770(2) 0.4648(5) 0.1089(6)
H7F H -0.3822 0.5270 0.1692
C14F C -0.2615(3) 0.2600(12) 0.0595(9)
H8F H -0.2662 0.1887 0.1096
H9F H -0.2357 0.3043 0.1284
N1F N -0.41992(13) 0.4289(3) 0.0099(4)
Zn1A Zn 0.0000 0.0000 0.5000
Zn1B Zn -0.5000 0.5000 0.0000
O1D O -0.03459(12) -0.1553(2) -0.0614(3)
O2D O 0.0000 0.0496(3) -0.2500
N1D N 0.08008(13) -0.0711(3) 0.0099(4)
loop_
_geom_bond_atom_site_label_1
_geom_bond_atom_site_label_2
_geom_bond_site_symmetry_1
_geom_bond_site_symmetry_2
Zn1 O1 1_555 1_555
C1 C2 1_555 1_555
C2 C3 1_555 1_555
C3 H1 1_555 1_555
C4 C3 1_555 1_555
C5 C4 1_555 1_555
H2 C5 1_555 1_555
C6 C1 1_555 1_555
H3 C6 1_555 1_555
C7 C2 1_555 1_555
C8 C1 1_555 1_555
C9 H4 1_555 1_555
C10 C9 1_555 1_555
H5 C10 1_555 1_555
C11 C10 1_555 1_555
C12 C11 1_555 1_555
H6 C12 1_555 1_555
C13 C12 1_555 1_555
H7 C13 1_555 1_555
C14 C11 1_555 1_555
H8 C14 1_555 1_555
H9 C14 1_555 1_555
O1 C7 1_555 1_555
O2 Zn1 1_555 1_555
O3 C7 1_555 1_555
O4 C8 1_555 1_555
O5 C8 1_555 1_555
H10 O5 1_555 1_555
O6 C4 1_555 1_555
N1 Zn1 1_555 1_555
C1A C2A 1_555 1_555
C2A C3A 1_555 1_555
C3A H1A 1_555 1_555
C4A O6 1_555 1_555
C5A C4A 1_555 1_555
H2A C5A 1_555 1_555
C6A C1A 1_555 1_555
H3A C6A 1_555 1_555
C7A C2A 1_555 1_555
C8A C1A 1_555 1_555
O1A C7A 1_555 1_555
O3A C7A 1_555 1_555
O4A C8A 1_555 1_555
O5A C8A 1_555 1_555
H10A O5A 1_555 1_555
C9F H4F 1_555 1_555
C10F C9F 1_555 1_555
H5F C10F 1_555 1_555
C11F C10F 1_555 1_555
C12F C11F 1_555 1_555
H6F C12F 1_555 1_555
C13F C12F 1_555 1_555
H7F C13F 1_555 1_555
C14F C14 1_555 1_555
H8F C14F 1_555 1_555
H9F C14F 1_555 1_555
N1F C9F 1_555 1_555
Zn1A O2 1_555 1_555
Zn1B N1F 1_555 1_555
O1D Zn1 1_555 1_555
O2D Zn1 1_555 1_555
N1D Zn1 1_555 1_555
C5 C6 1_555 1_555
C9 N1 1_555 1_555
C13 N1 1_555 1_555
C3A C4A 1_555 1_555
C5A C6A 1_555 1_555
O1A Zn1A 1_555 1_555
C11F C14F 1_555 1_555
C13F N1F 1_555 1_555

#END
