
#######################################################################
#
#                 Cambridge Crystallographic Data Centre
#                                CCDC 
#
#######################################################################
#
# If this CIF has been generated from an entry in the Cambridge 
# Structural Database, then it will include bibliographic, chemical, 
# crystal, experimental, refinement or atomic coordinate data resulting 
# from the CCDC's data processing and validation procedures.
#
#######################################################################

data_MOJWEP
_symmetry_cell_setting           triclinic
_symmetry_space_group_name_H-M   'P -1'
_symmetry_Int_Tables_number      2
_space_group_name_Hall           '-P 1'
loop_
_symmetry_equiv_pos_site_id
_symmetry_equiv_pos_as_xyz
1 x,y,z
2 -x,-y,-z
_cell_length_a                   11.40800(10)
_cell_length_b                   15.2294(2)
_cell_length_c                   20.9915(2)
_cell_angle_alpha                107.3320(10)
_cell_angle_beta                 93.2770(10)
_cell_angle_gamma                94.4720(10)
_cell_volume                     3458.4
loop_
_atom_site_label
_atom_site_type_symbol
_atom_site_fract_x
_atom_site_fract_y
_atom_site_fract_z
Cu1 Cu -0.04287(2) 0.31133(2) 0.05639(2)
P1 P -0.19973(4) 0.30984(3) 0.11489(2)
P2 P 0.12862(4) 0.25488(3) 0.06962(2)
N1 N -0.01777(13) 0.42456(11) 0.02406(8)
C1 C 0.02342(17) 0.41609(13) -0.03572(10)
H1 H 0.0410 0.3571 -0.0624
C2 C -0.04086(16) 0.50939(13) 0.05938(10)
H2 H -0.0702 0.5183 0.1021
C3 C -0.29150(15) 0.40085(13) 0.10994(10)
C4 C -0.33525(18) 0.45960(14) 0.16564(11)
H3 H -0.3245 0.4493 0.2080
C5 C -0.3945(2) 0.53327(15) 0.15962(12)
H4 H -0.4243 0.5731 0.1979
C6 C -0.4106(2) 0.54905(16) 0.09854(13)
H5 H -0.4502 0.6001 0.0948
C7 C -0.36863(19) 0.49006(18) 0.04254(13)
H6 H -0.3804 0.5002 0.0002
C8 C -0.30952(18) 0.41624(16) 0.04814(11)
H7 H -0.2811 0.3759 0.0096
C9 C -0.30022(16) 0.20510(13) 0.09840(9)
C10 C -0.25290(18) 0.12132(14) 0.09126(10)
H8 H -0.1699 0.1189 0.0913
C11 C -0.32653(19) 0.04140(14) 0.08411(10)
H9 H -0.2936 -0.0149 0.0813
C12 C -0.44784(18) 0.04343(14) 0.08112(9)
H10 H -0.4982 -0.0115 0.0756
C13 C -0.49540(17) 0.12617(14) 0.08617(10)
H11 H -0.5786 0.1275 0.0829
C14 C -0.42199(17) 0.20702(14) 0.09595(9)
H12 H -0.4551 0.2638 0.1010
C15 C -0.15317(16) 0.33865(13) 0.20397(10)
C16 C -0.0708(2) 0.41504(16) 0.23220(12)
H13 H -0.0428 0.4513 0.2054
C17 C -0.0296(3) 0.43850(16) 0.29875(13)
H14 H 0.0257 0.4913 0.3175
C18 C -0.0680(2) 0.38572(15) 0.33841(11)
H15 H -0.0386 0.4015 0.3841
C19 C -0.14954(17) 0.30999(15) 0.31092(10)
H16 H -0.1767 0.2737 0.3379
C20 C -0.19213(16) 0.28641(14) 0.24410(10)
H17 H -0.2483 0.2342 0.2257
C21 C 0.22844(16) 0.33565(13) 0.13623(9)
C22 C 0.30324(17) 0.30620(14) 0.17884(10)
H18 H 0.3041 0.2421 0.1734
C23 C 0.37663(19) 0.37050(15) 0.22930(10)
H19 H 0.4280 0.3501 0.2580
C24 C 0.3752(2) 0.46371(16) 0.23792(12)
H20 H 0.4242 0.5074 0.2731
C25 C 0.3024(2) 0.49370(16) 0.19522(14)
H21 H 0.3027 0.5579 0.2006
C26 C 0.22904(19) 0.43001(15) 0.14465(12)
H22 H 0.1790 0.4508 0.1156
C27 C 0.21259(16) 0.22930(12) -0.00410(9)
C28 C 0.33402(17) 0.25151(15) -0.00123(11)
H23 H 0.3769 0.2824 0.0407
C29 C 0.39269(19) 0.22872(16) -0.05929(12)
H24 H 0.4756 0.2436 -0.0569
C30 C 0.3309(2) 0.18459(16) -0.12032(12)
H25 H 0.3712 0.1689 -0.1599
C31 C 0.2098(2) 0.16316(16) -0.12380(11)
H26 H 0.1671 0.1332 -0.1659
C32 C 0.15070(18) 0.18535(14) -0.06601(10)
H27 H 0.0678 0.1705 -0.0687
C33 C 0.11931(15) 0.14972(12) 0.09433(9)
C34 C 0.06174(16) 0.15114(13) 0.15160(9)
H28 H 0.0294 0.2056 0.1759
C35 C 0.05172(17) 0.07342(14) 0.17305(10)
H29 H 0.0123 0.0749 0.2120
C36 C 0.09886(18) -0.00654(14) 0.13812(10)
H30 H 0.0923 -0.0595 0.1532
C37 C 0.15563(19) -0.00862(14) 0.08109(11)
H31 H 0.1879 -0.0633 0.0570
C38 C 0.16553(17) 0.06901(13) 0.05901(10)
H32 H 0.2040 0.0670 0.0197
B1 B -0.2099(2) 0.24428(17) -0.10971(12)
F1 F -0.12962(11) 0.23817(8) -0.05751(6)
F2 F -0.31997(13) 0.21013(14) -0.10001(9)
F3 F -0.17506(13) 0.19410(10) -0.17017(6)
F4 F -0.21004(14) 0.33640(9) -0.10764(7)
N1A N 0.01777(13) 0.57544(11) -0.02406(8)
C1A C -0.02342(17) 0.58391(13) 0.03572(10)
H1A H -0.0410 0.6429 0.0624
C2A C 0.04086(16) 0.49061(13) -0.05938(10)
H2A H 0.0702 0.4817 -0.1021
Cu1A Cu 0.04287(2) 0.68867(2) -0.05639(2)
P1A P 0.19973(4) 0.69016(3) -0.11489(2)
P2A P -0.12862(4) 0.74512(3) -0.06962(2)
C3A C 0.29150(15) 0.59915(13) -0.10994(10)
C4A C 0.33525(18) 0.54040(14) -0.16564(11)
H3A H 0.3245 0.5507 -0.2080
C5A C 0.3945(2) 0.46673(15) -0.15962(12)
H4A H 0.4243 0.4269 -0.1979
C6A C 0.4106(2) 0.45095(16) -0.09854(13)
H5A H 0.4502 0.3999 -0.0948
C7A C 0.36863(19) 0.50994(18) -0.04254(13)
H6A H 0.3804 0.4998 -0.0002
C8A C 0.30952(18) 0.58376(16) -0.04814(11)
H7A H 0.2811 0.6241 -0.0096
C9A C 0.30022(16) 0.79490(13) -0.09840(9)
C10A C 0.25290(18) 0.87868(14) -0.09126(10)
H8A H 0.1699 0.8811 -0.0913
C11A C 0.32653(19) 0.95860(14) -0.08411(10)
H9A H 0.2936 1.0149 -0.0813
C12A C 0.44784(18) 0.95657(14) -0.08112(9)
H10A H 0.4982 1.0115 -0.0756
C13A C 0.49540(17) 0.87383(14) -0.08617(10)
H11A H 0.5786 0.8725 -0.0829
C14A C 0.42199(17) 0.79298(14) -0.09595(9)
H12A H 0.4551 0.7362 -0.1010
C15A C 0.15317(16) 0.66135(13) -0.20397(10)
C16A C 0.0708(2) 0.58496(16) -0.23220(12)
H13A H 0.0428 0.5487 -0.2054
C17A C 0.0296(3) 0.56150(16) -0.29875(13)
H14A H -0.0257 0.5087 -0.3175
C18A C 0.0680(2) 0.61428(15) -0.33841(11)
H15A H 0.0386 0.5985 -0.3841
C19A C 0.14954(17) 0.69001(15) -0.31092(10)
H16A H 0.1767 0.7263 -0.3379
C20A C 0.19213(16) 0.71359(14) -0.24410(10)
H17A H 0.2483 0.7658 -0.2257
C21A C -0.22844(16) 0.66435(13) -0.13623(9)
C22A C -0.30324(17) 0.69380(14) -0.17884(10)
H18A H -0.3041 0.7579 -0.1734
C23A C -0.37663(19) 0.62950(15) -0.22930(10)
H19A H -0.4280 0.6499 -0.2580
C24A C -0.3752(2) 0.53629(16) -0.23792(12)
H20A H -0.4242 0.4926 -0.2731
C25A C -0.3024(2) 0.50630(16) -0.19522(14)
H21A H -0.3027 0.4421 -0.2006
C26A C -0.22904(19) 0.56999(15) -0.14465(12)
H22A H -0.1790 0.5492 -0.1156
C27A C -0.21259(16) 0.77070(12) 0.00410(9)
C28A C -0.33402(17) 0.74849(15) 0.00123(11)
H23A H -0.3769 0.7176 -0.0407
C29A C -0.39269(19) 0.77128(16) 0.05929(12)
H24A H -0.4756 0.7564 0.0569
C30A C -0.3309(2) 0.81541(16) 0.12032(12)
H25A H -0.3712 0.8311 0.1599
C31A C -0.2098(2) 0.83684(16) 0.12380(11)
H26A H -0.1671 0.8668 0.1659
C32A C -0.15070(18) 0.81465(14) 0.06601(10)
H27A H -0.0678 0.8295 0.0687
C33A C -0.11931(15) 0.85028(12) -0.09433(9)
C34A C -0.06174(16) 0.84886(13) -0.15160(9)
H28A H -0.0294 0.7944 -0.1759
C35A C -0.05172(17) 0.92658(14) -0.17305(10)
H29A H -0.0123 0.9251 -0.2120
C36A C -0.09886(18) 1.00654(14) -0.13812(10)
H30A H -0.0923 1.0595 -0.1532
C37A C -0.15563(19) 1.00862(14) -0.08109(11)
H31A H -0.1879 1.0633 -0.0570
C38A C -0.16553(17) 0.93099(13) -0.05901(10)
H32A H -0.2040 0.9330 -0.0197
B1A B 0.2099(2) 0.75572(17) 0.10971(12)
F1A F 0.12962(11) 0.76183(8) 0.05751(6)
F2A F 0.31997(13) 0.78987(14) 0.10001(9)
F3A F 0.17506(13) 0.80590(10) 0.17017(6)
F4A F 0.21004(14) 0.66360(9) 0.10764(7)
Cu2 Cu 0.26454(2) 0.13868(2) 0.50935(2)
P3 P 0.23650(4) 0.17518(3) 0.41212(2)
P4 P 0.29680(4) 0.24328(3) 0.61355(2)
N2 N 0.10719(13) 0.05595(10) 0.50894(7)
N3 N 0.40571(13) 0.05435(10) 0.50042(7)
C39 C 0.10216(15) -0.02923(12) 0.51489(9)
H33 H 0.1731 -0.0523 0.5259
C40 C 0.00348(16) 0.08487(12) 0.49448(9)
H34 H 0.0025 0.1454 0.4906
C41 C 0.51477(16) 0.09117(12) 0.52730(9)
H35 H 0.5289 0.1563 0.5469
C42 C 0.39255(15) -0.03766(12) 0.47247(9)
H36 H 0.3175 -0.0670 0.4519
C43 C 0.35972(16) 0.35724(12) 0.61379(9)
C44 C 0.31684(16) 0.43949(13) 0.64948(9)
H37 H 0.2558 0.4382 0.6782
C45 C 0.36334(18) 0.52326(13) 0.64302(10)
H38 H 0.3333 0.5789 0.6671
C46 C 0.45290(18) 0.52628(13) 0.60189(10)
H39 H 0.4841 0.5837 0.5976
C47 C 0.49728(18) 0.44467(14) 0.56675(10)
H40 H 0.5597 0.4463 0.5389
C48 C 0.45015(17) 0.36120(13) 0.57252(9)
H41 H 0.4799 0.3056 0.5479
C49 C 0.40515(16) 0.20417(13) 0.66399(9)
C50 C 0.50520(18) 0.25907(14) 0.69971(10)
H42 H 0.5186 0.3216 0.7001
C51 C 0.5854(2) 0.22247(15) 0.73472(11)
H43 H 0.6536 0.2602 0.7589
C52 C 0.5668(2) 0.13170(15) 0.73463(11)
H44 H 0.6215 0.1072 0.7589
C53 C 0.46763(19) 0.07643(14) 0.69893(10)
H45 H 0.4546 0.0139 0.6986
C54 C 0.38766(17) 0.11244(13) 0.66375(9)
H46 H 0.3202 0.0742 0.6392
C55 C 0.17454(16) 0.26806(12) 0.66731(9)
C56 C 0.06410(17) 0.27835(13) 0.63953(10)
H47 H 0.0526 0.2699 0.5928
C57 C -0.02894(18) 0.30069(14) 0.67917(11)
H48 H -0.1035 0.3075 0.6596
C58 C -0.01295(19) 0.31309(14) 0.74745(12)
H49 H -0.0763 0.3287 0.7749
C59 C 0.0958(2) 0.30250(14) 0.77520(11)
H50 H 0.1067 0.3105 0.8219
C60 C 0.18956(18) 0.28039(13) 0.73594(10)
H51 H 0.2639 0.2737 0.7558
C61 C 0.20905(15) 0.29482(12) 0.42165(10)
C62 C 0.1634(2) 0.34439(15) 0.47996(10)
H52 H 0.1418 0.3144 0.5119
C63 C 0.1489(2) 0.43729(17) 0.49210(13)
H53 H 0.1164 0.4702 0.5320
C64 C 0.1809(2) 0.48188(16) 0.44710(17)
H54 H 0.1724 0.5459 0.4559
C65 C 0.2256(2) 0.43328(19) 0.38897(19)
H55 H 0.2477 0.4641 0.3576
C66 C 0.23899(19) 0.33972(16) 0.37544(14)
H56 H 0.2685 0.3067 0.3347
C67 C 0.10605(16) 0.10345(12) 0.36399(9)
C68 C 0.11100(18) 0.00781(13) 0.34105(10)
H57 H 0.1835 -0.0171 0.3462
C69 C 0.01123(19) -0.05109(14) 0.31083(10)
H58 H 0.0158 -0.1159 0.2944
C70 C -0.09521(18) -0.01500(15) 0.30463(10)
H59 H -0.1641 -0.0553 0.2848
C71 C -0.10140(17) 0.07947(15) 0.32729(10)
H60 H -0.1745 0.1039 0.3229
C72 C -0.00038(16) 0.13906(14) 0.35665(9)
H61 H -0.0046 0.2040 0.3716
C73 C 0.34898(16) 0.15628(12) 0.35214(9)
C74 C 0.46484(17) 0.19246(13) 0.37543(10)
H62 H 0.4849 0.2207 0.4220
C75 C 0.55109(18) 0.18736(15) 0.33073(11)
H63 H 0.6296 0.2133 0.3468
C76 C 0.52301(18) 0.14437(14) 0.26257(11)
H64 H 0.5821 0.1409 0.2320
C77 C 0.40843(18) 0.10661(14) 0.23948(10)
H65 H 0.3893 0.0762 0.1931
C78 C 0.32161(17) 0.11299(13) 0.28373(10)
H66 H 0.2430 0.0878 0.2674
N2A N -0.10719(13) -0.05595(10) 0.49106(7)
C39A C -0.10216(15) 0.02923(12) 0.48511(9)
H33A H -0.1731 0.0523 0.4741
C40A C -0.00348(16) -0.08487(12) 0.50552(9)
H34A H -0.0025 -0.1454 0.5094
N3A N 0.59429(13) -0.05435(10) 0.49958(7)
C41A C 0.48523(16) -0.09117(12) 0.47270(9)
H35A H 0.4711 -0.1563 0.4531
C42A C 0.60745(15) 0.03766(12) 0.52753(9)
H36A H 0.6825 0.0670 0.5481
Cu2A Cu -0.26454(2) -0.13868(2) 0.49065(2)
P3A P -0.23650(4) -0.17518(3) 0.58788(2)
P4A P -0.29680(4) -0.24328(3) 0.38645(2)
C43A C -0.35972(16) -0.35724(12) 0.38621(9)
C44A C -0.31684(16) -0.43949(13) 0.35052(9)
H37A H -0.2558 -0.4382 0.3218
C45A C -0.36334(18) -0.52326(13) 0.35698(10)
H38A H -0.3333 -0.5789 0.3329
C46A C -0.45290(18) -0.52628(13) 0.39811(10)
H39A H -0.4841 -0.5837 0.4024
C47A C -0.49728(18) -0.44467(14) 0.43325(10)
H40A H -0.5597 -0.4463 0.4611
C48A C -0.45015(17) -0.36120(13) 0.42748(9)
H41A H -0.4799 -0.3056 0.4521
C49A C -0.40515(16) -0.20417(13) 0.33601(9)
C50A C -0.50520(18) -0.25907(14) 0.30029(10)
H42A H -0.5186 -0.3216 0.2999
C51A C -0.5854(2) -0.22247(15) 0.26528(11)
H43A H -0.6536 -0.2602 0.2411
C52A C -0.5668(2) -0.13170(15) 0.26537(11)
H44A H -0.6215 -0.1072 0.2411
C53A C -0.46763(19) -0.07643(14) 0.30107(10)
H45A H -0.4546 -0.0139 0.3014
C54A C -0.38766(17) -0.11244(13) 0.33625(9)
H46A H -0.3202 -0.0742 0.3608
C55A C -0.17454(16) -0.26806(12) 0.33269(9)
C56A C -0.06410(17) -0.27835(13) 0.36047(10)
H47A H -0.0526 -0.2699 0.4072
C57A C 0.02894(18) -0.30069(14) 0.32083(11)
H48A H 0.1035 -0.3075 0.3404
C58A C 0.01295(19) -0.31309(14) 0.25255(12)
H49A H 0.0763 -0.3287 0.2251
C59A C -0.0958(2) -0.30250(14) 0.22480(11)
H50A H -0.1067 -0.3105 0.1781
C60A C -0.18956(18) -0.28039(13) 0.26406(10)
H51A H -0.2639 -0.2737 0.2442
C61A C -0.20905(15) -0.29482(12) 0.57835(10)
C62A C -0.1634(2) -0.34439(15) 0.52004(10)
H52A H -0.1418 -0.3144 0.4881
C63A C -0.1489(2) -0.43729(17) 0.50790(13)
H53A H -0.1164 -0.4702 0.4680
C64A C -0.1809(2) -0.48188(16) 0.55290(17)
H54A H -0.1724 -0.5459 0.5441
C65A C -0.2256(2) -0.43328(19) 0.61103(19)
H55A H -0.2477 -0.4641 0.6424
C66A C -0.23899(19) -0.33972(16) 0.62456(14)
H56A H -0.2685 -0.3067 0.6653
C67A C -0.10605(16) -0.10345(12) 0.63601(9)
C68A C -0.11100(18) -0.00781(13) 0.65895(10)
H57A H -0.1835 0.0171 0.6538
C69A C -0.01123(19) 0.05109(14) 0.68917(10)
H58A H -0.0158 0.1159 0.7056
C70A C 0.09521(18) 0.01500(15) 0.69537(10)
H59A H 0.1641 0.0553 0.7152
C71A C 0.10140(17) -0.07947(15) 0.67271(10)
H60A H 0.1745 -0.1039 0.6771
C72A C 0.00038(16) -0.13906(14) 0.64335(9)
H61A H 0.0046 -0.2040 0.6284
C73A C -0.34898(16) -0.15628(12) 0.64786(9)
C74A C -0.46484(17) -0.19246(13) 0.62457(10)
H62A H -0.4849 -0.2207 0.5780
C75A C -0.55109(18) -0.18736(15) 0.66927(11)
H63A H -0.6296 -0.2133 0.6532
C76A C -0.52301(18) -0.14437(14) 0.73743(11)
H64A H -0.5821 -0.1409 0.7680
C77A C -0.40843(18) -0.10661(14) 0.76052(10)
H65A H -0.3893 -0.0762 0.8069
C78A C -0.32161(17) -0.11299(13) 0.71627(10)
H66A H -0.2430 -0.0878 0.7326
Cu2A_2 Cu 0.73546(2) -0.13868(2) 0.49065(2)
N3A_2 N -0.40571(13) -0.05435(10) 0.49958(7)
B2 B 0.7601(2) 0.25009(17) 0.49454(13)
F5 F 0.87758(13) 0.27943(11) 0.49800(10)
F6 F 0.73222(13) 0.16296(9) 0.44781(7)
F7 F 0.69105(16) 0.31068(11) 0.47857(11)
F8 F 0.7340(2) 0.24344(17) 0.55644(9)
loop_
_geom_bond_atom_site_label_1
_geom_bond_atom_site_label_2
_geom_bond_site_symmetry_1
_geom_bond_site_symmetry_2
Cu1 P1 1_555 1_555
P1 C3 1_555 1_555
P2 Cu1 1_555 1_555
N1 Cu1 1_555 1_555
C1 N1 1_555 1_555
H1 C1 1_555 1_555
C2 N1 1_555 1_555
H2 C2 1_555 1_555
C3 C4 1_555 1_555
C4 H3 1_555 1_555
C5 C4 1_555 1_555
H4 C5 1_555 1_555
C6 C5 1_555 1_555
H5 C6 1_555 1_555
C7 C6 1_555 1_555
H6 C7 1_555 1_555
C8 C3 1_555 1_555
H7 C8 1_555 1_555
C9 P1 1_555 1_555
C10 C9 1_555 1_555
H8 C10 1_555 1_555
C11 C10 1_555 1_555
H9 C11 1_555 1_555
C12 C11 1_555 1_555
H10 C12 1_555 1_555
C13 C12 1_555 1_555
H11 C13 1_555 1_555
C14 C9 1_555 1_555
H12 C14 1_555 1_555
C15 P1 1_555 1_555
C16 C15 1_555 1_555
H13 C16 1_555 1_555
C17 C16 1_555 1_555
H14 C17 1_555 1_555
C18 C17 1_555 1_555
H15 C18 1_555 1_555
C19 C18 1_555 1_555
H16 C19 1_555 1_555
C20 C15 1_555 1_555
H17 C20 1_555 1_555
C21 P2 1_555 1_555
C22 C21 1_555 1_555
H18 C22 1_555 1_555
C23 C22 1_555 1_555
H19 C23 1_555 1_555
C24 C23 1_555 1_555
H20 C24 1_555 1_555
C25 C24 1_555 1_555
H21 C25 1_555 1_555
C26 C21 1_555 1_555
H22 C26 1_555 1_555
C27 P2 1_555 1_555
C28 C27 1_555 1_555
H23 C28 1_555 1_555
C29 C28 1_555 1_555
H24 C29 1_555 1_555
C30 C29 1_555 1_555
H25 C30 1_555 1_555
C31 C30 1_555 1_555
H26 C31 1_555 1_555
C32 C27 1_555 1_555
H27 C32 1_555 1_555
C33 P2 1_555 1_555
C34 C33 1_555 1_555
H28 C34 1_555 1_555
C35 C34 1_555 1_555
H29 C35 1_555 1_555
C36 C35 1_555 1_555
H30 C36 1_555 1_555
C37 C36 1_555 1_555
H31 C37 1_555 1_555
C38 C33 1_555 1_555
H32 C38 1_555 1_555
B1 F1 1_555 1_555
F1 Cu1 1_555 1_555
F2 B1 1_555 1_555
F3 B1 1_555 1_555
F4 B1 1_555 1_555
Cu2 P3 1_555 1_555
P3 C61 1_555 1_555
P4 Cu2 1_555 1_555
N2 Cu2 1_555 1_555
N3 Cu2 1_555 1_555
C39 N2 1_555 1_555
H33 C39 1_555 1_555
C40 N2 1_555 1_555
H34 C40 1_555 1_555
C41 N3 1_555 1_555
H35 C41 1_555 1_555
C42 N3 1_555 1_555
H36 C42 1_555 1_555
C43 P4 1_555 1_555
C44 C43 1_555 1_555
H37 C44 1_555 1_555
C45 C44 1_555 1_555
H38 C45 1_555 1_555
C46 C45 1_555 1_555
H39 C46 1_555 1_555
C47 C46 1_555 1_555
H40 C47 1_555 1_555
C48 C43 1_555 1_555
H41 C48 1_555 1_555
C49 P4 1_555 1_555
C50 C49 1_555 1_555
H42 C50 1_555 1_555
C51 C50 1_555 1_555
H43 C51 1_555 1_555
C52 C51 1_555 1_555
H44 C52 1_555 1_555
C53 C52 1_555 1_555
H45 C53 1_555 1_555
C54 C49 1_555 1_555
H46 C54 1_555 1_555
C55 P4 1_555 1_555
C56 C55 1_555 1_555
H47 C56 1_555 1_555
C57 C56 1_555 1_555
H48 C57 1_555 1_555
C58 C57 1_555 1_555
H49 C58 1_555 1_555
C59 C58 1_555 1_555
H50 C59 1_555 1_555
C60 C55 1_555 1_555
H51 C60 1_555 1_555
C61 C62 1_555 1_555
C62 H52 1_555 1_555
C63 C62 1_555 1_555
H53 C63 1_555 1_555
C64 C63 1_555 1_555
H54 C64 1_555 1_555
C65 C64 1_555 1_555
H55 C65 1_555 1_555
C66 C61 1_555 1_555
H56 C66 1_555 1_555
C67 P3 1_555 1_555
C68 C67 1_555 1_555
H57 C68 1_555 1_555
C69 C68 1_555 1_555
H58 C69 1_555 1_555
C70 C69 1_555 1_555
H59 C70 1_555 1_555
C71 C70 1_555 1_555
H60 C71 1_555 1_555
C72 C67 1_555 1_555
H61 C72 1_555 1_555
C73 P3 1_555 1_555
C74 C73 1_555 1_555
H62 C74 1_555 1_555
C75 C74 1_555 1_555
H63 C75 1_555 1_555
C76 C75 1_555 1_555
H64 C76 1_555 1_555
C77 C76 1_555 1_555
H65 C77 1_555 1_555
C78 C73 1_555 1_555
H66 C78 1_555 1_555
B2 F5 1_555 1_555
F6 B2 1_555 1_555
F7 B2 1_555 1_555
F8 B2 1_555 1_555
N1A C1A 1_555 1_555
C1A C2 1_555 1_555
H1A C1A 1_555 1_555
C2A C1 1_555 1_555
H2A C2A 1_555 1_555
Cu1A N1A 1_555 1_555
P1A Cu1A 1_555 1_555
P2A Cu1A 1_555 1_555
C3A P1A 1_555 1_555
C4A C3A 1_555 1_555
H3A C4A 1_555 1_555
C5A C4A 1_555 1_555
H4A C5A 1_555 1_555
C6A C5A 1_555 1_555
H5A C6A 1_555 1_555
C7A C6A 1_555 1_555
H6A C7A 1_555 1_555
C8A C3A 1_555 1_555
H7A C8A 1_555 1_555
C9A P1A 1_555 1_555
C10A C9A 1_555 1_555
H8A C10A 1_555 1_555
C11A C10A 1_555 1_555
H9A C11A 1_555 1_555
C12A C11A 1_555 1_555
H10A C12A 1_555 1_555
C13A C12A 1_555 1_555
H11A C13A 1_555 1_555
C14A C9A 1_555 1_555
H12A C14A 1_555 1_555
C15A P1A 1_555 1_555
C16A C15A 1_555 1_555
H13A C16A 1_555 1_555
C17A C16A 1_555 1_555
H14A C17A 1_555 1_555
C18A C17A 1_555 1_555
H15A C18A 1_555 1_555
C19A C18A 1_555 1_555
H16A C19A 1_555 1_555
C20A C15A 1_555 1_555
H17A C20A 1_555 1_555
C21A P2A 1_555 1_555
C22A C21A 1_555 1_555
H18A C22A 1_555 1_555
C23A C22A 1_555 1_555
H19A C23A 1_555 1_555
C24A C23A 1_555 1_555
H20A C24A 1_555 1_555
C25A C24A 1_555 1_555
H21A C25A 1_555 1_555
C26A C21A 1_555 1_555
H22A C26A 1_555 1_555
C27A P2A 1_555 1_555
C28A C27A 1_555 1_555
H23A C28A 1_555 1_555
C29A C28A 1_555 1_555
H24A C29A 1_555 1_555
C30A C29A 1_555 1_555
H25A C30A 1_555 1_555
C31A C30A 1_555 1_555
H26A C31A 1_555 1_555
C32A C27A 1_555 1_555
H27A C32A 1_555 1_555
C33A P2A 1_555 1_555
C34A C33A 1_555 1_555
H28A C34A 1_555 1_555
C35A C34A 1_555 1_555
H29A C35A 1_555 1_555
C36A C35A 1_555 1_555
H30A C36A 1_555 1_555
C37A C36A 1_555 1_555
H31A C37A 1_555 1_555
C38A C33A 1_555 1_555
H32A C38A 1_555 1_555
B1A F1A 1_555 1_555
F1A Cu1A 1_555 1_555
F2A B1A 1_555 1_555
F3A B1A 1_555 1_555
F4A B1A 1_555 1_555
N2A C39A 1_555 1_555
C39A C40 1_555 1_555
H33A C39A 1_555 1_555
C40A C39 1_555 1_555
H34A C40A 1_555 1_555
N3A C41A 1_555 1_555
C41A C42 1_555 1_555
H35A C41A 1_555 1_555
C42A C41 1_555 1_555
H36A C42A 1_555 1_555
Cu2A N2A 1_555 1_555
P3A Cu2A 1_555 1_555
P4A Cu2A 1_555 1_555
C43A P4A 1_555 1_555
C44A C43A 1_555 1_555
H37A C44A 1_555 1_555
C45A C44A 1_555 1_555
H38A C45A 1_555 1_555
C46A C45A 1_555 1_555
H39A C46A 1_555 1_555
C47A C46A 1_555 1_555
H40A C47A 1_555 1_555
C48A C43A 1_555 1_555
H41A C48A 1_555 1_555
C49A P4A 1_555 1_555
C50A C49A 1_555 1_555
H42A C50A 1_555 1_555
C51A C50A 1_555 1_555
H43A C51A 1_555 1_555
C52A C51A 1_555 1_555
H44A C52A 1_555 1_555
C53A C52A 1_555 1_555
H45A C53A 1_555 1_555
C54A C49A 1_555 1_555
H46A C54A 1_555 1_555
C55A P4A 1_555 1_555
C56A C55A 1_555 1_555
H47A C56A 1_555 1_555
C57A C56A 1_555 1_555
H48A C57A 1_555 1_555
C58A C57A 1_555 1_555
H49A C58A 1_555 1_555
C59A C58A 1_555 1_555
H50A C59A 1_555 1_555
C60A C55A 1_555 1_555
H51A C60A 1_555 1_555
C61A P3A 1_555 1_555
C62A C61A 1_555 1_555
H52A C62A 1_555 1_555
C63A C62A 1_555 1_555
H53A C63A 1_555 1_555
C64A C63A 1_555 1_555
H54A C64A 1_555 1_555
C65A C64A 1_555 1_555
H55A C65A 1_555 1_555
C66A C61A 1_555 1_555
H56A C66A 1_555 1_555
C67A P3A 1_555 1_555
C68A C67A 1_555 1_555
H57A C68A 1_555 1_555
C69A C68A 1_555 1_555
H58A C69A 1_555 1_555
C70A C69A 1_555 1_555
H59A C70A 1_555 1_555
C71A C70A 1_555 1_555
H60A C71A 1_555 1_555
C72A C67A 1_555 1_555
H61A C72A 1_555 1_555
C73A P3A 1_555 1_555
C74A C73A 1_555 1_555
H62A C74A 1_555 1_555
C75A C74A 1_555 1_555
H63A C75A 1_555 1_555
C76A C75A 1_555 1_555
H64A C76A 1_555 1_555
C77A C76A 1_555 1_555
H65A C77A 1_555 1_555
C78A C73A 1_555 1_555
H66A C78A 1_555 1_555
Cu2A_2 N3A 1_555 1_555
N3A_2 Cu2A 1_555 1_555
C7 C8 1_555 1_555
C13 C14 1_555 1_555
C19 C20 1_555 1_555
C25 C26 1_555 1_555
C31 C32 1_555 1_555
C37 C38 1_555 1_555
C47 C48 1_555 1_555
C53 C54 1_555 1_555
C59 C60 1_555 1_555
C65 C66 1_555 1_555
C71 C72 1_555 1_555
C77 C78 1_555 1_555
N1A C2A 1_555 1_555
C7A C8A 1_555 1_555
C13A C14A 1_555 1_555
C19A C20A 1_555 1_555
C25A C26A 1_555 1_555
C31A C32A 1_555 1_555
C37A C38A 1_555 1_555
N2A C40A 1_555 1_555
N3A C42A 1_555 1_555
C47A C48A 1_555 1_555
C53A C54A 1_555 1_555
C59A C60A 1_555 1_555
C65A C66A 1_555 1_555
C71A C72A 1_555 1_555
C77A C78A 1_555 1_555

#END
