
#######################################################################
#
#                 Cambridge Crystallographic Data Centre
#                                CCDC 
#
#######################################################################
#
# If this CIF has been generated from an entry in the Cambridge 
# Structural Database, then it will include bibliographic, chemical, 
# crystal, experimental, refinement or atomic coordinate data resulting 
# from the CCDC's data processing and validation procedures.
#
#######################################################################

data_MOJXOA
_symmetry_cell_setting           triclinic
_symmetry_space_group_name_H-M   'P -1'
_symmetry_Int_Tables_number      2
_space_group_name_Hall           '-P 1'
loop_
_symmetry_equiv_pos_site_id
_symmetry_equiv_pos_as_xyz
1 x,y,z
2 -x,-y,-z
_cell_length_a                   10.274(4)
_cell_length_b                   12.984(6)
_cell_length_c                   13.342(6)
_cell_angle_alpha                102.455(3)
_cell_angle_beta                 95.454(4)
_cell_angle_gamma                100.813(6)
_cell_volume                     1689.93
loop_
_atom_site_label
_atom_site_type_symbol
_atom_site_fract_x
_atom_site_fract_y
_atom_site_fract_z
Cd1 Cd 0.18273(2) 0.052449(18) 0.660676(18)
C1 C 0.3208(3) 0.3767(3) 0.6534(3)
C2 C 0.4608(4) 0.4238(3) 0.6598(3)
C3 C 0.5031(4) 0.5257(3) 0.6436(3)
C4 C 0.4048(4) 0.5833(3) 0.6176(3)
C5 C 0.2670(4) 0.5376(3) 0.6128(3)
C6 C 0.2284(4) 0.4351(3) 0.6317(3)
H1 H 0.1379 0.4061 0.6295
C7 C 0.1702(5) 0.5950(3) 0.5832(3)
H2 H 0.0797 0.5668 0.5818
C8 C 0.2085(5) 0.6897(4) 0.5572(4)
H3 H 0.1440 0.7255 0.5367
C9 C 0.3425(6) 0.7343(4) 0.5605(4)
H4 H 0.3667 0.7999 0.5425
C10 C 0.4389(5) 0.6846(3) 0.5896(3)
H5 H 0.5284 0.7164 0.5914
C11 C 0.6518(4) 0.5685(3) 0.6464(3)
H6 H 0.6659 0.5773 0.5776
H7 H 0.6979 0.5131 0.6598
C12 C 0.7199(3) 0.6737(3) 0.7234(3)
C13 C 0.7968(4) 0.7540(3) 0.6866(3)
C14 C 0.8718(3) 0.8520(3) 0.7558(3)
C15 C 0.8631(4) 0.8685(3) 0.8587(3)
H8 H 0.9091 0.9334 0.9029
C16 C 0.7861(4) 0.7901(3) 0.9010(3)
C17 C 0.7171(3) 0.6898(3) 0.8315(3)
C18 C 0.6538(4) 0.6085(3) 0.8782(3)
H9 H 0.6097 0.5419 0.8361
C19 C 0.6559(4) 0.6256(4) 0.9823(3)
H10 H 0.6149 0.5701 1.0100
C20 C 0.7193(5) 0.7262(4) 1.0496(3)
H11 H 0.7165 0.7379 1.1206
C21 C 0.7846(4) 0.8060(4) 1.0090(3)
H12 H 0.8285 0.8717 1.0531
C22 C 0.2764(4) 0.2639(3) 0.6636(3)
C23 C 0.9663(3) 0.9317(3) 0.7162(3)
C24 C 0.3290(5) 0.0156(4) 0.4530(4)
H13 H 0.3977 0.0760 0.4798
C25 C 0.3216(6) -0.0556(5) 0.3621(5)
H14 H 0.3845 -0.0546 0.3163
C26 C 0.1473(4) -0.1016(3) 0.4339(3)
H15 H 0.0656 -0.1390 0.4452
C27 C 0.1534(6) -0.2290(4) 0.2667(4)
H16 H 0.0567 -0.2406 0.2529
H17 H 0.1747 -0.2899 0.2911
C28 C 0.2095(4) -0.2265(3) 0.1668(3)
C29 C 0.2880(4) -0.2960(4) 0.1317(3)
H18 H 0.3089 -0.3433 0.1709
C30 C 0.3373(4) -0.2974(4) 0.0385(3)
H19 H 0.3920 -0.3449 0.0168
C31 C 0.3071(4) -0.2306(3) -0.0221(3)
C32 C 0.2301(5) -0.1587(4) 0.0131(4)
H20 H 0.2115 -0.1104 -0.0258
C33 C 0.1797(5) -0.1572(4) 0.1057(4)
H21 H 0.1253 -0.1094 0.1274
C34 C 0.3615(6) -0.2372(4) -0.1246(4)
H22 H 0.4496 -0.2539 -0.1170
H23 H 0.3038 -0.2963 -0.1765
C35 C 0.4743(4) -0.0516(4) -0.1359(4)
H24 H 0.5550 -0.0445 -0.0944
C36 C 0.4370(4) 0.0235(4) -0.1821(3)
H25 H 0.4884 0.0921 -0.1769
C37 C 0.2755(4) -0.1141(3) -0.2219(3)
H26 H 0.1929 -0.1600 -0.2491
N1 N 0.2205(3) -0.0141(2) 0.4999(2)
N2 N 0.2042(4) -0.1297(3) 0.3496(3)
N3 N 0.3123(3) -0.0168(3) -0.2377(2)
N4 N 0.3717(4) -0.1390(3) -0.1618(3)
O1 O 0.3644(3) 0.2101(2) 0.6824(2)
O2 O 0.1544(3) 0.2224(2) 0.6527(2)
O3 O 0.9933(3) 0.9040(2) 0.6247(2)
O4 O 1.0236(3) 1.01989(19) 0.7753(2)
O5 O 0.5538(3) 0.3683(2) 0.6831(2)
H27 H 0.515(4) 0.306(2) 0.682(4)
O6 O 0.8012(3) 0.7357(2) 0.5835(2)
H28 H 0.855(4) 0.784(3) 0.568(4)
Cd1_2 Cd 0.18273(2) 0.052449(18) -0.339324(18)
Cd1_3 Cd 1.18273(2) 1.052449(18) 0.660676(18)
N3_2 N 0.3123(3) -0.0168(3) 0.7623(2)
O3_2 O -0.0067(3) -0.0960(2) 0.6247(2)
O4_2 O 0.0236(3) 0.01989(19) 0.7753(2)
loop_
_geom_bond_atom_site_label_1
_geom_bond_atom_site_label_2
_geom_bond_site_symmetry_1
_geom_bond_site_symmetry_2
Cd1 N1 1_555 1_555
C1 C2 1_555 1_555
C2 C3 1_555 1_555
C3 C4 1_555 1_555
C4 C5 1_555 1_555
C5 C6 1_555 1_555
C6 C1 1_555 1_555
H1 C6 1_555 1_555
C7 C5 1_555 1_555
H2 C7 1_555 1_555
C8 C7 1_555 1_555
H3 C8 1_555 1_555
C9 C8 1_555 1_555
H4 C9 1_555 1_555
C10 C4 1_555 1_555
H5 C10 1_555 1_555
C11 C3 1_555 1_555
H6 C11 1_555 1_555
H7 C11 1_555 1_555
C12 C11 1_555 1_555
C13 C12 1_555 1_555
C14 C13 1_555 1_555
C15 C14 1_555 1_555
H8 C15 1_555 1_555
C16 C15 1_555 1_555
C17 C12 1_555 1_555
C18 C17 1_555 1_555
H9 C18 1_555 1_555
C19 C18 1_555 1_555
H10 C19 1_555 1_555
C20 C19 1_555 1_555
H11 C20 1_555 1_555
C21 C16 1_555 1_555
H12 C21 1_555 1_555
C22 C1 1_555 1_555
C23 C14 1_555 1_555
C24 H13 1_555 1_555
C25 C24 1_555 1_555
H14 C25 1_555 1_555
C26 H15 1_555 1_555
C27 H16 1_555 1_555
H17 C27 1_555 1_555
C28 C27 1_555 1_555
C29 C28 1_555 1_555
H18 C29 1_555 1_555
C30 C29 1_555 1_555
H19 C30 1_555 1_555
C31 C30 1_555 1_555
C32 C31 1_555 1_555
H20 C32 1_555 1_555
C33 C28 1_555 1_555
H21 C33 1_555 1_555
C34 C31 1_555 1_555
H22 C34 1_555 1_555
H23 C34 1_555 1_555
C35 H24 1_555 1_555
C36 C35 1_555 1_555
H25 C36 1_555 1_555
C37 H26 1_555 1_555
N1 C24 1_555 1_555
N2 C25 1_555 1_555
N3 C36 1_555 1_555
N4 C34 1_555 1_555
O1 Cd1 1_555 1_555
O2 Cd1 1_555 1_555
O3 C23 1_555 1_555
O4 C23 1_555 1_555
O5 C2 1_555 1_555
H27 O5 1_555 1_555
O6 C13 1_555 1_555
H28 O6 1_555 1_555
Cd1_2 N3 1_555 1_555
Cd1_3 O3 1_555 1_555
N3_2 Cd1 1_555 1_555
O3_2 Cd1 1_555 1_555
O4_2 Cd1 1_555 1_555
C9 C10 1_555 1_555
C16 C17 1_555 1_555
C20 C21 1_555 1_555
C22 O1 1_555 1_555
C22 O2 1_555 1_555
C26 N1 1_555 1_555
C26 N2 1_555 1_555
C27 N2 1_555 1_555
C32 C33 1_555 1_555
C35 N4 1_555 1_555
C37 N3 1_555 1_555
C37 N4 1_555 1_555
O4 Cd1_3 1_555 1_555

#END
