
#######################################################################
#
#                 Cambridge Crystallographic Data Centre
#                                CCDC 
#
#######################################################################
#
# If this CIF has been generated from an entry in the Cambridge 
# Structural Database, then it will include bibliographic, chemical, 
# crystal, experimental, refinement or atomic coordinate data resulting 
# from the CCDC's data processing and validation procedures.
#
#######################################################################

data_MOJXIU
_symmetry_cell_setting           triclinic
_symmetry_space_group_name_H-M   'P -1'
_symmetry_Int_Tables_number      2
_space_group_name_Hall           '-P 1'
loop_
_symmetry_equiv_pos_site_id
_symmetry_equiv_pos_as_xyz
1 x,y,z
2 -x,-y,-z
_cell_length_a                   13.572(9)
_cell_length_b                   17.466(10)
_cell_length_c                   19.348(14)
_cell_angle_alpha                63.764(19)
_cell_angle_beta                 86.94(4)
_cell_angle_gamma                72.94(3)
_cell_volume                     3917.3
loop_
_atom_site_label
_atom_site_type_symbol
_atom_site_fract_x
_atom_site_fract_y
_atom_site_fract_z
Cd1 Cd 1.81896(4) 0.38798(4) -0.13512(3)
Cd2 Cd 1.28433(4) 0.18726(4) 0.51755(3)
C1 C 2.0719(6) 0.1718(5) 0.0082(4)
C2 C 2.1346(6) 0.1795(6) 0.0605(4)
C3 C 2.2018(6) 0.1075(5) 0.1170(4)
C4 C 2.2108(6) 0.0207(5) 0.1249(4)
C5 C 2.1545(6) 0.0104(6) 0.0708(5)
C6 C 2.0875(7) 0.0879(6) 0.0140(5)
H1 H 2.0511 0.0824 -0.0221
C7 C 2.1634(7) -0.0752(6) 0.0783(6)
H2 H 2.1287 -0.0812 0.0417
C8 C 2.2217(8) -0.1481(7) 0.1382(6)
H3 H 2.2273 -0.2044 0.1423
C9 C 2.2749(7) -0.1417(6) 0.1950(5)
H4 H 2.3126 -0.1934 0.2371
C10 C 2.2712(6) -0.0611(6) 0.1887(5)
H5 H 2.3081 -0.0578 0.2259
C11 C 2.2720(6) 0.1202(6) 0.1692(4)
H6 H 2.2642 0.1836 0.1484
H7 H 2.2469 0.1015 0.2202
C12 C 2.3845(6) 0.0713(5) 0.1781(4)
C13 C 2.4328(6) 0.0162(6) 0.2515(4)
C14 C 2.5379(7) -0.0347(6) 0.2643(4)
C15 C 2.5932(7) -0.0290(6) 0.2028(5)
H8 H 2.6624 -0.0630 0.2118
C16 C 2.5496(7) 0.0270(7) 0.1251(5)
C17 C 2.6094(8) 0.0311(8) 0.0631(6)
H9 H 2.6785 -0.0031 0.0711
C18 C 2.5608(10) 0.0893(9) -0.0119(6)
H10 H 2.5984 0.0934 -0.0543
C19 C 2.4619(10) 0.1385(9) -0.0234(5)
H11 H 2.4325 0.1752 -0.0739
C20 C 2.4015(8) 0.1374(6) 0.0361(5)
H12 H 2.3335 0.1745 0.0257
C21 C 2.4442(7) 0.0788(6) 0.1140(4)
C22 C 1.9898(6) 0.2499(6) -0.0483(4)
C23 C 2.5903(8) -0.0924(7) 0.3447(5)
C24 C 0.4825(6) 0.5606(6) 0.2340(4)
C25 C 0.5617(6) 0.4783(5) 0.2589(4)
C26 C 0.6621(6) 0.4701(6) 0.2818(4)
C27 C 0.6830(6) 0.5471(5) 0.2771(4)
C28 C 0.6020(6) 0.6284(5) 0.2542(4)
C29 C 0.5020(6) 0.6325(5) 0.2322(4)
H13 H 0.4487 0.6861 0.2163
C30 C 0.6244(8) 0.7052(6) 0.2490(6)
H14 H 0.5713 0.7587 0.2340
C31 C 0.7216(9) 0.7017(7) 0.2656(7)
H15 H 0.7351 0.7524 0.2623
C32 C 0.8003(8) 0.6230(8) 0.2875(6)
H16 H 0.8671 0.6214 0.2980
C33 C 0.7831(6) 0.5469(6) 0.2941(4)
H17 H 0.8379 0.4943 0.3099
C34 C 0.7462(6) 0.3813(5) 0.3043(5)
H18 H 0.7160 0.3411 0.2971
H19 H 0.7990 0.3916 0.2684
C35 C 0.7981(5) 0.3344(5) 0.3846(4)
C36 C 0.9030(6) 0.3163(5) 0.3963(4)
C37 C 0.9565(6) 0.2717(5) 0.4713(4)
C38 C 0.9006(7) 0.2466(6) 0.5350(5)
H20 H 0.9343 0.2196 0.5843
C39 C 0.7932(7) 0.2610(6) 0.5266(5)
C40 C 0.7433(6) 0.3021(6) 0.4516(5)
C41 C 0.6359(7) 0.3063(6) 0.4463(6)
H21 H 0.5992 0.3328 0.3981
C42 C 0.5894(8) 0.2723(9) 0.5104(7)
H22 H 0.5205 0.2750 0.5056
C43 C 0.6391(9) 0.2331(9) 0.5841(7)
H23 H 0.6040 0.2098 0.6274
C44 C 0.7386(9) 0.2291(7) 0.5921(6)
H24 H 0.7716 0.2051 0.6413
C45 C 0.3767(6) 0.5686(6) 0.2090(4)
C46 C 1.0708(6) 0.2506(5) 0.4809(5)
C47 C 1.8997(8) 0.4953(7) -0.3000(5)
H25 H 1.8934 0.5371 -0.2813
C48 C 1.9232(8) 0.5170(7) -0.3757(5)
H26 H 1.9282 0.5739 -0.4074
C49 C 1.9390(8) 0.4563(7) -0.4044(5)
C50 C 1.9302(10) 0.3739(8) -0.3536(6)
H27 H 1.9400 0.3296 -0.3697
C51 C 1.9070(10) 0.3566(8) -0.2795(6)
H28 H 1.9061 0.2990 -0.2458
C52 C 1.9646(12) 0.4770(10) -0.4861(6)
H29 H 1.9338 0.4596 -0.5162
C53 C 1.4638(8) 0.1341(7) 0.4173(5)
H30 H 1.4931 0.0899 0.4663
C54 C 1.5176(9) 0.1366(7) 0.3557(6)
H31 H 1.5824 0.0951 0.3635
C55 C 1.4781(9) 0.1993(8) 0.2820(6)
C56 C 1.3850(9) 0.2597(9) 0.2777(5)
H32 H 1.3559 0.3069 0.2298
C57 C 1.3336(9) 0.2525(9) 0.3418(6)
H33 H 1.2686 0.2932 0.3355
C58 C 1.5325(11) 0.2063(9) 0.2105(7)
H34 H 1.5250 0.1768 0.1821
C59 C 1.5909(19) 0.2577(15) 0.1931(11)
H35 H 1.6043 0.2777 0.2278
C60 C 1.6381(15) 0.2859(12) 0.1150(9)
C61 C 1.6640(13) 0.2353(8) 0.0764(6)
H36 H 1.6436 0.1842 0.0915
C62 C 1.7242(11) 0.2631(8) 0.0113(7)
H37 H 1.7579 0.2217 -0.0067
C63 C 1.6816(15) 0.3973(11) 0.0040(9)
H38 H 1.6777 0.4573 -0.0246
C64 C 1.632(2) 0.3736(12) 0.0722(12)
H39 H 1.5955 0.4165 0.0879
C65 C 1.3117(10) 0.3612(12) 0.5232(12)
H40 H 1.2998 0.3386 0.5752
C66 C 1.359(2) 0.470(3) 0.5308(15)
H41 H 1.3767 0.5252 0.5067
H42 H 1.4147 0.4240 0.5670
H43 H 1.2977 0.4790 0.5575
C67 C 1.3666(11) 0.4683(10) 0.4072(7)
H44 H 1.3823 0.5241 0.3858
H45 H 1.3098 0.4735 0.3763
H46 H 1.4262 0.4219 0.4076
C68 C 1.2277(13) 0.0456(11) 0.4870(16)
C69 C 1.189(3) -0.0880(17) 0.5554(15)
H47 H 1.2166 -0.0840 0.5978
H48 H 1.2281 -0.1427 0.5539
H49 H 1.1179 -0.0874 0.5620
C70 C 1.148(3) -0.0123(19) 0.4162(17)
H50 H 1.1551 0.0400 0.3722
H51 H 1.0761 -0.0084 0.4203
H52 H 1.1843 -0.0647 0.4098
O1 O 1.9798(4) 0.3256(4) -0.0511(3)
O2 O 1.8324(5) 0.5185(4) -0.1437(4)
O3 O 1.9319(4) 0.2386(4) -0.0885(3)
O4 O 2.1236(5) 0.2613(4) 0.0544(4)
H53 H 2.0775 0.3092 0.0177
O5 O 2.5410(5) -0.0942(5) 0.4013(3)
O6 O 2.6835(5) -0.1356(5) 0.3527(4)
O7 O 2.3784(5) 0.0089(5) 0.3134(3)
H54 H 2.4099 -0.0280 0.3613
O8 O 0.3605(4) 0.5050(4) 0.2023(4)
O9 O 0.3081(4) 0.6405(4) 0.1882(3)
O10 O 0.5418(5) 0.4080(4) 0.2583(4)
H55 H 0.478(2) 0.426(6) 0.246(6)
O11 O 1.1216(4) 0.2612(4) 0.4242(3)
O12 O 1.1132(5) 0.2215(5) 0.5477(4)
O13 O 0.9569(4) 0.3424(5) 0.3327(3)
H56 H 1.021(2) 0.324(6) 0.349(5)
O14 O 1.3058(5) 0.3259(5) 0.4841(4)
O15 O 1.2648(7) 0.0554(6) 0.5301(5)
N1 N 1.8859(5) 0.4171(4) -0.2534(3)
N2 N 1.3712(6) 0.1914(5) 0.4116(4)
N3 N 1.7338(6) 0.3407(6) -0.0228(4)
N4 N 1.3410(11) 0.4482(7) 0.4793(6)
N5 N 1.1934(13) -0.0183(11) 0.4890(12)
C47A C 2.1003(8) 0.5047(7) -0.7000(5)
H25A H 2.1066 0.4629 -0.7187
C48A C 2.0768(8) 0.4830(7) -0.6243(5)
H26A H 2.0718 0.4261 -0.5926
C49A C 2.0610(8) 0.5437(7) -0.5956(5)
C50A C 2.0698(10) 0.6261(8) -0.6464(6)
H27A H 2.0600 0.6704 -0.6303
C51A C 2.0930(10) 0.6434(8) -0.7205(6)
H28A H 2.0939 0.7010 -0.7542
C52A C 2.0354(12) 0.5230(10) -0.5139(6)
H29A H 2.0662 0.5404 -0.4838
N1A N 2.1141(5) 0.5829(4) -0.7466(3)
Cd1A Cd 0.18104(4) 0.61202(4) 0.13512(3)
Cd2A Cd 0.71567(4) 0.81274(4) -0.51755(3)
C1A C -0.0719(6) 0.8282(5) -0.0082(4)
C2A C -0.1346(6) 0.8205(6) -0.0605(4)
C3A C -0.2018(6) 0.8925(5) -0.1170(4)
C4A C -0.2108(6) 0.9793(5) -0.1249(4)
C5A C -0.1545(6) 0.9896(6) -0.0708(5)
C6A C -0.0875(7) 0.9121(6) -0.0140(5)
H1A H -0.0511 0.9176 0.0221
C7A C -0.1634(7) 1.0752(6) -0.0783(6)
H2A H -0.1287 1.0812 -0.0417
C8A C -0.2217(8) 1.1481(7) -0.1382(6)
H3A H -0.2273 1.2044 -0.1423
C9A C -0.2749(7) 1.1417(6) -0.1950(5)
H4A H -0.3126 1.1934 -0.2371
C10A C -0.2712(6) 1.0611(6) -0.1887(5)
H5A H -0.3081 1.0578 -0.2259
C11A C -0.2720(6) 0.8798(6) -0.1692(4)
H6A H -0.2642 0.8164 -0.1484
H7A H -0.2469 0.8985 -0.2202
C12A C -0.3845(6) 0.9287(5) -0.1781(4)
C13A C -0.4328(6) 0.9838(6) -0.2515(4)
C14A C -0.5379(7) 1.0347(6) -0.2643(4)
C15A C -0.5932(7) 1.0290(6) -0.2028(5)
H8A H -0.6624 1.0630 -0.2118
C16A C -0.5496(7) 0.9730(7) -0.1251(5)
C17A C -0.6094(8) 0.9689(8) -0.0631(6)
H9A H -0.6785 1.0031 -0.0711
C18A C -0.5608(10) 0.9107(9) 0.0119(6)
H10A H -0.5984 0.9066 0.0543
C19A C -0.4619(10) 0.8615(9) 0.0234(5)
H11A H -0.4325 0.8248 0.0739
C20A C -0.4015(8) 0.8626(6) -0.0361(5)
H12A H -0.3335 0.8255 -0.0257
C21A C -0.4442(7) 0.9212(6) -0.1140(4)
C22A C 0.0102(6) 0.7501(6) 0.0483(4)
C23A C -0.5903(8) 1.0924(7) -0.3447(5)
C24A C 1.5175(6) 0.4394(6) -0.2340(4)
C25A C 1.4383(6) 0.5217(5) -0.2589(4)
C26A C 1.3379(6) 0.5299(6) -0.2818(4)
C27A C 1.3170(6) 0.4529(5) -0.2771(4)
C28A C 1.3980(6) 0.3716(5) -0.2542(4)
C29A C 1.4980(6) 0.3675(5) -0.2322(4)
H13A H 1.5513 0.3139 -0.2163
C30A C 1.3756(8) 0.2948(6) -0.2490(6)
H14A H 1.4287 0.2413 -0.2340
C31A C 1.2784(9) 0.2983(7) -0.2656(7)
H15A H 1.2649 0.2476 -0.2623
C32A C 1.1997(8) 0.3770(8) -0.2875(6)
H16A H 1.1329 0.3786 -0.2980
C33A C 1.2169(6) 0.4531(6) -0.2941(4)
H17A H 1.1621 0.5057 -0.3099
C34A C 1.2538(6) 0.6187(5) -0.3043(5)
H18A H 1.2840 0.6589 -0.2971
H19A H 1.2010 0.6084 -0.2684
C35A C 1.2019(5) 0.6656(5) -0.3846(4)
C36A C 1.0970(6) 0.6837(5) -0.3963(4)
C37A C 1.0435(6) 0.7283(5) -0.4713(4)
C38A C 1.0994(7) 0.7534(6) -0.5350(5)
H20A H 1.0657 0.7804 -0.5843
C39A C 1.2068(7) 0.7390(6) -0.5266(5)
C40A C 1.2567(6) 0.6979(6) -0.4516(5)
C41A C 1.3641(7) 0.6937(6) -0.4463(6)
H21A H 1.4008 0.6672 -0.3981
C42A C 1.4106(8) 0.7277(9) -0.5104(7)
H22A H 1.4795 0.7250 -0.5056
C43A C 1.3609(9) 0.7669(9) -0.5841(7)
H23A H 1.3960 0.7902 -0.6274
C44A C 1.2614(9) 0.7709(7) -0.5921(6)
H24A H 1.2284 0.7949 -0.6413
C45A C 1.6233(6) 0.4314(6) -0.2090(4)
C46A C 0.9292(6) 0.7494(5) -0.4809(5)
C53A C 0.5362(8) 0.8659(7) -0.4173(5)
H30A H 0.5069 0.9101 -0.4663
C54A C 0.4824(9) 0.8634(7) -0.3557(6)
H31A H 0.4176 0.9049 -0.3635
C55A C 0.5219(9) 0.8007(8) -0.2820(6)
C56A C 0.6150(9) 0.7403(9) -0.2777(5)
H32A H 0.6441 0.6931 -0.2298
C57A C 0.6664(9) 0.7475(9) -0.3418(6)
H33A H 0.7314 0.7068 -0.3355
C58A C 0.4675(11) 0.7937(9) -0.2105(7)
H34A H 0.4750 0.8232 -0.1821
C59A C 0.4091(19) 0.7423(15) -0.1931(11)
H35A H 0.3957 0.7223 -0.2278
C60A C 0.3619(15) 0.7141(12) -0.1150(9)
C61A C 0.3360(13) 0.7647(8) -0.0764(6)
H36A H 0.3564 0.8158 -0.0915
C62A C 0.2758(11) 0.7369(8) -0.0113(7)
H37A H 0.2421 0.7783 0.0067
C63A C 0.3184(15) 0.6027(11) -0.0040(9)
H38A H 0.3223 0.5427 0.0246
C64A C 0.368(2) 0.6264(12) -0.0722(12)
H39A H 0.4045 0.5835 -0.0879
C65A C 0.6883(10) 0.6388(12) -0.5232(12)
H40A H 0.7002 0.6614 -0.5752
C66A C 0.641(2) 0.530(3) -0.5308(15)
H41A H 0.6233 0.4748 -0.5067
H42A H 0.5853 0.5760 -0.5670
H43A H 0.7023 0.5210 -0.5575
C67A C 0.6334(11) 0.5317(10) -0.4072(7)
H44A H 0.6177 0.4759 -0.3858
H45A H 0.6902 0.5265 -0.3763
H46A H 0.5738 0.5781 -0.4076
C68A C 0.7723(13) 0.9544(11) -0.4870(16)
C69A C 0.811(3) 1.0880(17) -0.5554(15)
H47A H 0.7834 1.0840 -0.5978
H48A H 0.7719 1.1427 -0.5539
H49A H 0.8821 1.0874 -0.5620
C70A C 0.852(3) 1.0123(19) -0.4162(17)
H50A H 0.8449 0.9600 -0.3722
H51A H 0.9239 1.0084 -0.4203
H52A H 0.8157 1.0647 -0.4098
O1A O 0.0202(4) 0.6744(4) 0.0511(3)
O2A O 0.1676(5) 0.4815(4) 0.1437(4)
O3A O 0.0681(4) 0.7614(4) 0.0885(3)
O4A O -0.1236(5) 0.7387(4) -0.0544(4)
H53A H -0.0775 0.6908 -0.0177
O5A O -0.5410(5) 1.0942(5) -0.4013(3)
O6A O -0.6835(5) 1.1356(5) -0.3527(4)
O7A O -0.3784(5) 0.9911(5) -0.3134(3)
H54A H -0.4099 1.0280 -0.3613
O8A O 1.6395(4) 0.4950(4) -0.2023(4)
O9A O 1.6919(4) 0.3595(4) -0.1882(3)
O10A O 1.4582(5) 0.5920(4) -0.2583(4)
H55A H 1.522(2) 0.574(6) -0.246(6)
O11A O 0.8784(4) 0.7388(4) -0.4242(3)
O12A O 0.8868(5) 0.7785(5) -0.5477(4)
O13A O 1.0431(4) 0.6576(5) -0.3327(3)
H56A H 0.979(2) 0.676(6) -0.349(5)
O14A O 0.6942(5) 0.6741(5) -0.4841(4)
O15A O 0.7352(7) 0.9446(6) -0.5301(5)
N2A N 0.6288(6) 0.8086(5) -0.4116(4)
N3A N 0.2662(6) 0.6593(6) 0.0228(4)
N4A N 0.6590(11) 0.5518(7) -0.4793(6)
N5A N 0.8066(13) 1.0183(11) -0.4890(12)
Cd1A_2 Cd 2.18104(4) 0.61202(4) -0.86488(3)
Cd2_2 Cd -0.71567(4) 1.18726(4) -0.48245(3)
Cd2A_2 Cd 2.71567(4) -0.18726(4) 0.48245(3)
O5_2 O 0.5410(5) 0.9058(5) -0.5987(3)
O5A_2 O 1.4590(5) 0.0942(5) 0.5987(3)
O6_2 O 0.6835(5) 0.8644(5) -0.6473(4)
O6A_2 O 1.3165(5) 0.1356(5) 0.6473(4)
N1A_2 N 0.1141(5) 0.5829(4) 0.2534(3)
C71 C 1.7453(11) 0.6044(8) -0.0279(7)
H57 H 1.8156 0.5974 -0.0327
C72 C 1.6053(14) 0.6198(13) 0.0501(10)
H58 H 1.5688 0.6212 0.0083
H59 H 1.5755 0.6747 0.0541
H60 H 1.6002 0.5703 0.0976
C73 C 1.7761(16) 0.6059(12) 0.0954(7)
H61 H 1.7373 0.6114 0.1367
H62 H 1.8063 0.6539 0.0721
H63 H 1.8300 0.5496 0.1154
O16 O 1.6944(8) 0.6078(6) -0.0801(5)
N6 N 1.7066(10) 0.6102(7) 0.0366(6)
C74 C -0.156(2) 0.9922(18) -0.7166(12)
H64 H -0.1927 0.9568 -0.6818
C75 C -0.074(3) 1.022(2) -0.8361(19)
H65 H -0.0796 1.0784 -0.8369
H66 H -0.1249 1.0305 -0.8736
H67 H -0.0063 0.9976 -0.8482
C76 C -0.0861(18) 0.8800(18) -0.7590(17)
H68 H -0.0975 0.8392 -0.7085
H69 H -0.0187 0.8553 -0.7718
H70 H -0.1378 0.8895 -0.7963
O17 O -0.166(2) 1.0659(15) -0.7224(13)
N7 N -0.0921(11) 0.9606(9) -0.7597(11)
loop_
_geom_bond_atom_site_label_1
_geom_bond_atom_site_label_2
_geom_bond_site_symmetry_1
_geom_bond_site_symmetry_2
Cd1 O1 1_555 1_555
Cd2 O11 1_555 1_555
C1 C2 1_555 1_555
C2 C3 1_555 1_555
C3 C4 1_555 1_555
C4 C5 1_555 1_555
C5 C6 1_555 1_555
C6 C1 1_555 1_555
H1 C6 1_555 1_555
C7 C5 1_555 1_555
H2 C7 1_555 1_555
C8 C7 1_555 1_555
H3 C8 1_555 1_555
C9 C8 1_555 1_555
H4 C9 1_555 1_555
C10 C4 1_555 1_555
H5 C10 1_555 1_555
C11 C3 1_555 1_555
H6 C11 1_555 1_555
H7 C11 1_555 1_555
C12 C11 1_555 1_555
C13 C12 1_555 1_555
C14 C13 1_555 1_555
C15 C14 1_555 1_555
H8 C15 1_555 1_555
C16 C15 1_555 1_555
C17 C16 1_555 1_555
H9 C17 1_555 1_555
C18 C17 1_555 1_555
H10 C18 1_555 1_555
C19 C18 1_555 1_555
H11 C19 1_555 1_555
C20 C19 1_555 1_555
H12 C20 1_555 1_555
C21 C12 1_555 1_555
C22 C1 1_555 1_555
C23 C14 1_555 1_555
C24 C25 1_555 1_555
C25 C26 1_555 1_555
C26 C27 1_555 1_555
C27 C28 1_555 1_555
C28 C29 1_555 1_555
C29 C24 1_555 1_555
H13 C29 1_555 1_555
C30 C28 1_555 1_555
H14 C30 1_555 1_555
C31 C30 1_555 1_555
H15 C31 1_555 1_555
C32 C31 1_555 1_555
H16 C32 1_555 1_555
C33 C27 1_555 1_555
H17 C33 1_555 1_555
C34 C26 1_555 1_555
H18 C34 1_555 1_555
H19 C34 1_555 1_555
C35 C34 1_555 1_555
C36 C35 1_555 1_555
C37 C36 1_555 1_555
C38 C37 1_555 1_555
H20 C38 1_555 1_555
C39 C38 1_555 1_555
C40 C35 1_555 1_555
C41 C40 1_555 1_555
H21 C41 1_555 1_555
C42 C41 1_555 1_555
H22 C42 1_555 1_555
C43 C42 1_555 1_555
H23 C43 1_555 1_555
C44 C39 1_555 1_555
H24 C44 1_555 1_555
C45 C24 1_555 1_555
C46 C37 1_555 1_555
C47 H25 1_555 1_555
C48 C47 1_555 1_555
H26 C48 1_555 1_555
C49 C48 1_555 1_555
C50 C49 1_555 1_555
H27 C50 1_555 1_555
C51 C50 1_555 1_555
H28 C51 1_555 1_555
C52 C49 1_555 1_555
H29 C52 1_555 1_555
C53 H30 1_555 1_555
C54 C53 1_555 1_555
H31 C54 1_555 1_555
C55 C54 1_555 1_555
C56 C55 1_555 1_555
H32 C56 1_555 1_555
C57 C56 1_555 1_555
H33 C57 1_555 1_555
C58 C55 1_555 1_555
H34 C58 1_555 1_555
C59 C58 1_555 1_555
H35 C59 1_555 1_555
C60 C59 1_555 1_555
C61 C60 1_555 1_555
H36 C61 1_555 1_555
C62 C61 1_555 1_555
H37 C62 1_555 1_555
C63 H38 1_555 1_555
C64 C60 1_555 1_555
H39 C64 1_555 1_555
C65 H40 1_555 1_555
C66 H41 1_555 1_555
H42 C66 1_555 1_555
H43 C66 1_555 1_555
C67 H44 1_555 1_555
H45 C67 1_555 1_555
H46 C67 1_555 1_555
C68 O15 1_555 1_555
C69 H47 1_555 1_555
H48 C69 1_555 1_555
H49 C69 1_555 1_555
C70 H50 1_555 1_555
H51 C70 1_555 1_555
H52 C70 1_555 1_555
O1 C22 1_555 1_555
O2 Cd1 1_555 1_555
O3 Cd1 1_555 1_555
O4 C2 1_555 1_555
H53 O4 1_555 1_555
O5 C23 1_555 1_555
O6 C23 1_555 1_555
O7 C13 1_555 1_555
H54 O7 1_555 1_555
O8 C45 1_555 1_555
O9 C45 1_555 1_555
O10 C25 1_555 1_555
H55 O10 1_555 1_555
O11 C46 1_555 1_555
O12 Cd2 1_555 1_555
O13 C36 1_555 1_555
H56 O13 1_555 1_555
O14 Cd2 1_555 1_555
O15 Cd2 1_555 1_555
N1 Cd1 1_555 1_555
N2 Cd2 1_555 1_555
N3 Cd1 1_555 1_555
N4 C65 1_555 1_555
N5 C68 1_555 1_555
C71 H57 1_555 1_555
C72 H58 1_555 1_555
H59 C72 1_555 1_555
H60 C72 1_555 1_555
C73 H61 1_555 1_555
H62 C73 1_555 1_555
H63 C73 1_555 1_555
O16 C71 1_555 1_555
N6 C71 1_555 1_555
C74 H64 1_555 1_555
C75 H65 1_555 1_555
H66 C75 1_555 1_555
H67 C75 1_555 1_555
C76 H68 1_555 1_555
H69 C76 1_555 1_555
H70 C76 1_555 1_555
O17 C74 1_555 1_555
N7 C74 1_555 1_555
C47A H25A 1_555 1_555
C48A C47A 1_555 1_555
H26A C48A 1_555 1_555
C49A C48A 1_555 1_555
C50A C49A 1_555 1_555
H27A C50A 1_555 1_555
C51A C50A 1_555 1_555
H28A C51A 1_555 1_555
C52A C52 1_555 1_555
H29A C52A 1_555 1_555
N1A C47A 1_555 1_555
Cd1A O8 1_555 1_555
Cd2A O11A 1_555 1_555
C1A C2A 1_555 1_555
C2A C3A 1_555 1_555
C3A C4A 1_555 1_555
C4A C5A 1_555 1_555
C5A C6A 1_555 1_555
C6A C1A 1_555 1_555
H1A C6A 1_555 1_555
C7A C5A 1_555 1_555
H2A C7A 1_555 1_555
C8A C7A 1_555 1_555
H3A C8A 1_555 1_555
C9A C8A 1_555 1_555
H4A C9A 1_555 1_555
C10A C4A 1_555 1_555
H5A C10A 1_555 1_555
C11A C3A 1_555 1_555
H6A C11A 1_555 1_555
H7A C11A 1_555 1_555
C12A C11A 1_555 1_555
C13A C12A 1_555 1_555
C14A C13A 1_555 1_555
C15A C14A 1_555 1_555
H8A C15A 1_555 1_555
C16A C15A 1_555 1_555
C17A C16A 1_555 1_555
H9A C17A 1_555 1_555
C18A C17A 1_555 1_555
H10A C18A 1_555 1_555
C19A C18A 1_555 1_555
H11A C19A 1_555 1_555
C20A C19A 1_555 1_555
H12A C20A 1_555 1_555
C21A C12A 1_555 1_555
C22A C1A 1_555 1_555
C23A C14A 1_555 1_555
C24A C25A 1_555 1_555
C25A C26A 1_555 1_555
C26A C27A 1_555 1_555
C27A C28A 1_555 1_555
C28A C29A 1_555 1_555
C29A C24A 1_555 1_555
H13A C29A 1_555 1_555
C30A C28A 1_555 1_555
H14A C30A 1_555 1_555
C31A C30A 1_555 1_555
H15A C31A 1_555 1_555
C32A C31A 1_555 1_555
H16A C32A 1_555 1_555
C33A C27A 1_555 1_555
H17A C33A 1_555 1_555
C34A C26A 1_555 1_555
H18A C34A 1_555 1_555
H19A C34A 1_555 1_555
C35A C34A 1_555 1_555
C36A C35A 1_555 1_555
C37A C36A 1_555 1_555
C38A C37A 1_555 1_555
H20A C38A 1_555 1_555
C39A C38A 1_555 1_555
C40A C35A 1_555 1_555
C41A C40A 1_555 1_555
H21A C41A 1_555 1_555
C42A C41A 1_555 1_555
H22A C42A 1_555 1_555
C43A C42A 1_555 1_555
H23A C43A 1_555 1_555
C44A C39A 1_555 1_555
H24A C44A 1_555 1_555
C45A C24A 1_555 1_555
C46A C37A 1_555 1_555
C53A H30A 1_555 1_555
C54A C53A 1_555 1_555
H31A C54A 1_555 1_555
C55A C54A 1_555 1_555
C56A C55A 1_555 1_555
H32A C56A 1_555 1_555
C57A C56A 1_555 1_555
H33A C57A 1_555 1_555
C58A C55A 1_555 1_555
H34A C58A 1_555 1_555
C59A C58A 1_555 1_555
H35A C59A 1_555 1_555
C60A C59A 1_555 1_555
C61A C60A 1_555 1_555
H36A C61A 1_555 1_555
C62A C61A 1_555 1_555
H37A C62A 1_555 1_555
C63A H38A 1_555 1_555
C64A C60A 1_555 1_555
H39A C64A 1_555 1_555
C65A H40A 1_555 1_555
C66A H41A 1_555 1_555
H42A C66A 1_555 1_555
H43A C66A 1_555 1_555
C67A H44A 1_555 1_555
H45A C67A 1_555 1_555
H46A C67A 1_555 1_555
C68A O15A 1_555 1_555
C69A H47A 1_555 1_555
H48A C69A 1_555 1_555
H49A C69A 1_555 1_555
C70A H50A 1_555 1_555
H51A C70A 1_555 1_555
H52A C70A 1_555 1_555
O1A Cd1A 1_555 1_555
O2A Cd1A 1_555 1_555
O3A Cd1A 1_555 1_555
O4A C2A 1_555 1_555
H53A O4A 1_555 1_555
O5A C23A 1_555 1_555
O6A C23A 1_555 1_555
O7A C13A 1_555 1_555
H54A O7A 1_555 1_555
O8A Cd1 1_555 1_555
O9A Cd1 1_555 1_555
O10A C25A 1_555 1_555
H55A O10A 1_555 1_555
O11A C46A 1_555 1_555
O12A Cd2A 1_555 1_555
O13A C36A 1_555 1_555
H56A O13A 1_555 1_555
O14A Cd2A 1_555 1_555
O15A Cd2A 1_555 1_555
N2A Cd2A 1_555 1_555
N3A Cd1A 1_555 1_555
N4A C65A 1_555 1_555
N5A C68A 1_555 1_555
Cd1A_2 N1A 1_555 1_555
Cd2_2 O5A 1_555 1_555
Cd2A_2 O5 1_555 1_555
O5_2 Cd2A 1_555 1_555
O5A_2 Cd2 1_555 1_555
O6_2 Cd2A 1_555 1_555
O6A_2 Cd2 1_555 1_555
N1A_2 Cd1A 1_555 1_555
C9 C10 1_555 1_555
C16 C21 1_555 1_555
C20 C21 1_555 1_555
C22 O3 1_555 1_555
C32 C33 1_555 1_555
C39 C40 1_555 1_555
C43 C44 1_555 1_555
C46 O12 1_555 1_555
C47 N1 1_555 1_555
C51 N1 1_555 1_555
C53 N2 1_555 1_555
C57 N2 1_555 1_555
C62 N3 1_555 1_555
C63 C64 1_555 1_555
C63 N3 1_555 1_555
C65 O14 1_555 1_555
C66 N4 1_555 1_555
C67 N4 1_555 1_555
C69 N5 1_555 1_555
C70 N5 1_555 1_555
O6 Cd2A_2 1_555 1_555
O9 Cd1A 1_555 1_555
C72 N6 1_555 1_555
C73 N6 1_555 1_555
C75 N7 1_555 1_555
C76 N7 1_555 1_555
C49A C52A 1_555 1_555
C51A N1A 1_555 1_555
C9A C10A 1_555 1_555
C16A C21A 1_555 1_555
C20A C21A 1_555 1_555
C22A O1A 1_555 1_555
C22A O3A 1_555 1_555
C32A C33A 1_555 1_555
C39A C40A 1_555 1_555
C43A C44A 1_555 1_555
C45A O8A 1_555 1_555
C45A O9A 1_555 1_555
C46A O12A 1_555 1_555
C53A N2A 1_555 1_555
C57A N2A 1_555 1_555
C62A N3A 1_555 1_555
C63A C64A 1_555 1_555
C63A N3A 1_555 1_555
C65A O14A 1_555 1_555
C66A N4A 1_555 1_555
C67A N4A 1_555 1_555
C69A N5A 1_555 1_555
C70A N5A 1_555 1_555
O6A Cd2_2 1_555 1_555

#END
