
#######################################################################
#
#                 Cambridge Crystallographic Data Centre
#                                CCDC 
#
#######################################################################
#
# If this CIF has been generated from an entry in the Cambridge 
# Structural Database, then it will include bibliographic, chemical, 
# crystal, experimental, refinement or atomic coordinate data resulting 
# from the CCDC's data processing and validation procedures.
#
#######################################################################

data_MOJZAO
_symmetry_cell_setting           triclinic
_symmetry_space_group_name_H-M   'P -1'
_symmetry_Int_Tables_number      2
_space_group_name_Hall           '-P 1'
loop_
_symmetry_equiv_pos_site_id
_symmetry_equiv_pos_as_xyz
1 x,y,z
2 -x,-y,-z
_cell_length_a                   7.930(7)
_cell_length_b                   9.974(9)
_cell_length_c                   12.502(11)
_cell_angle_alpha                97.557(11)
_cell_angle_beta                 102.226(11)
_cell_angle_gamma                105.244(9)
_cell_volume                     913.843
loop_
_atom_site_label
_atom_site_type_symbol
_atom_site_fract_x
_atom_site_fract_y
_atom_site_fract_z
Cd1 Cd 0.124564(17) 0.648011(13) 0.431062(10)
O1 O 0.06544(18) 0.37754(14) 0.45431(11)
O2 O -0.0465(2) 0.44252(14) 0.29896(12)
O3 O 0.1243(2) -0.11502(17) 0.42755(12)
O4 O 0.0110(2) -0.26285(15) 0.26754(13)
O5 O -0.6401(2) -0.23462(15) -0.40308(12)
O6 O -0.6059(3) -0.00343(17) -0.39729(14)
H1 H -0.6864 -0.0331 -0.4556
N1 N 0.3533(2) 0.61685(19) 0.35936(14)
N2 N 0.4700(2) 0.56614(18) 0.21979(14)
C1 C -0.0059(2) 0.35102(19) 0.34984(16)
C2 C 0.0220(3) 0.1046(2) 0.33496(16)
H2 H 0.0806 0.1261 0.4106
C3 C -0.0087(3) -0.0290(2) 0.27188(16)
C4 C 0.0468(3) -0.1427(2) 0.32457(17)
C5 C -0.0978(3) -0.0612(2) 0.15910(17)
H3 H -0.1174 -0.1512 0.1180
C6 C -0.1588(3) 0.0386(2) 0.10595(16)
C7 C -0.1249(3) 0.1726(2) 0.17056(16)
H4 H -0.1627 0.2414 0.1373
C8 C -0.0360(3) 0.20588(19) 0.28352(16)
C9 C -0.2599(3) 0.0019(2) -0.01369(16)
C10 C -0.3005(4) 0.1030(2) -0.0715(2)
H5 H -0.2598 0.1975 -0.0350
C11 C -0.3994(4) 0.0686(2) -0.1813(2)
H6 H -0.4252 0.1396 -0.2171
C12 C -0.4601(3) -0.0693(2) -0.23862(16)
C13 C -0.4172(4) -0.1711(2) -0.1835(2)
H7 H -0.4542 -0.2650 -0.2211
C14 C -0.3203(4) -0.1361(2) -0.0734(2)
H8 H -0.2945 -0.2075 -0.0380
C15 C -0.5760(3) -0.1108(2) -0.35450(17)
C16 C 0.5288(3) 0.6224(3) 0.40139(19)
H9 H 0.5887 0.6448 0.4769
C17 C 0.3227(3) 0.5825(2) 0.25070(18)
H10 H 0.2124 0.5709 0.2008
C18 C 0.6025(3) 0.5907(3) 0.3174(2)
H11 H 0.7199 0.5862 0.3241
C19 C 0.4854(3) 0.5325(2) 0.10838(17)
C20 C 0.3399(3) 0.5125(3) 0.01814(19)
H12 H 0.2310 0.5206 0.0304
C21 C 0.6462(3) 0.5193(3) 0.08995(19)
H13 H 0.7446 0.5316 0.1500
N1A N 0.6467(2) 0.38315(19) -0.35936(14)
N2A N 0.5300(2) 0.43386(18) -0.21979(14)
C16A C 0.4712(3) 0.3776(3) -0.40139(19)
H9A H 0.4113 0.3552 -0.4769
C17A C 0.6773(3) 0.4175(2) -0.25070(18)
H10A H 0.7876 0.4291 -0.2008
C18A C 0.3975(3) 0.4093(3) -0.3174(2)
H11A H 0.2801 0.4138 -0.3241
C19A C 0.5146(3) 0.4675(2) -0.10838(17)
C20A C 0.6601(3) 0.4875(3) -0.01814(19)
H12A H 0.7690 0.4794 -0.0304
C21A C 0.3538(3) 0.4807(3) -0.08995(19)
H13A H 0.2554 0.4684 -0.1500
Cd1A Cd -0.124564(17) 0.351989(13) 0.568938(10)
O1A O -0.06544(18) 0.62246(14) 0.54569(11)
O2A O 0.0465(2) 0.55748(14) 0.70104(12)
O3A O -0.1243(2) 1.11502(17) 0.57245(12)
O4A O -0.0110(2) 1.26285(15) 0.73246(13)
O5A O 0.6401(2) 1.23462(15) 1.40308(12)
O6A O 0.6059(3) 1.00343(17) 1.39729(14)
H1A H 0.6864 1.0331 1.4556
C1A C 0.0059(2) 0.64898(19) 0.65016(16)
C2A C -0.0220(3) 0.8954(2) 0.66504(16)
H2A H -0.0806 0.8739 0.5894
C3A C 0.0087(3) 1.0290(2) 0.72812(16)
C4A C -0.0468(3) 1.1427(2) 0.67543(17)
C5A C 0.0978(3) 1.0612(2) 0.84090(17)
H3A H 0.1174 1.1512 0.8820
C6A C 0.1588(3) 0.9614(2) 0.89405(16)
C7A C 0.1249(3) 0.8274(2) 0.82944(16)
H4A H 0.1627 0.7586 0.8627
C8A C 0.0360(3) 0.79412(19) 0.71648(16)
C9A C 0.2599(3) 0.9981(2) 1.01369(16)
C10A C 0.3005(4) 0.8970(2) 1.0715(2)
H5A H 0.2598 0.8025 1.0350
C11A C 0.3994(4) 0.9314(2) 1.1813(2)
H6A H 0.4252 0.8604 1.2171
C12A C 0.4601(3) 1.0693(2) 1.23862(16)
C13A C 0.4172(4) 1.1711(2) 1.1835(2)
H7A H 0.4542 1.2650 1.2211
C14A C 0.3203(4) 1.1361(2) 1.0734(2)
H8A H 0.2945 1.2075 1.0380
C15A C 0.5760(3) 1.1108(2) 1.35450(17)
Cd1_2 Cd -0.875436(17) -0.351989(13) -0.568938(10)
Cd1_3 Cd 0.124564(17) -0.351989(13) 0.431062(10)
Cd1A_2 Cd -0.124564(17) 1.351989(13) 0.568938(10)
Cd1A_3 Cd 0.875436(17) 0.351989(13) -0.431062(10)
Cd1A_4 Cd 0.875436(17) 1.351989(13) 1.568938(10)
O3_2 O 0.1243(2) 0.88498(17) 0.42755(12)
O3A_2 O -0.1243(2) 0.11502(17) 0.57245(12)
O4_2 O 0.0110(2) 0.73715(15) 0.26754(13)
O4A_2 O -0.0110(2) 0.26285(15) 0.73246(13)
O5_2 O 0.3599(2) 0.76538(15) 0.59692(12)
O5A_2 O -0.3599(2) 0.23462(15) 0.40308(12)
N1A_2 N -0.3533(2) 0.38315(19) 0.64064(14)
loop_
_geom_bond_atom_site_label_1
_geom_bond_atom_site_label_2
_geom_bond_site_symmetry_1
_geom_bond_site_symmetry_2
Cd1 O1 1_555 1_555
O1 C1 1_555 1_555
O2 Cd1 1_555 1_555
O3 C4 1_555 1_555
O4 C4 1_555 1_555
O5 C15 1_555 1_555
O6 H1 1_555 1_555
N1 Cd1 1_555 1_555
N2 C17 1_555 1_555
C1 O2 1_555 1_555
C2 H2 1_555 1_555
C3 C2 1_555 1_555
C4 C3 1_555 1_555
C5 C3 1_555 1_555
H3 C5 1_555 1_555
C6 C5 1_555 1_555
C7 C6 1_555 1_555
H4 C7 1_555 1_555
C8 C1 1_555 1_555
C9 C6 1_555 1_555
C10 C9 1_555 1_555
H5 C10 1_555 1_555
C11 C10 1_555 1_555
H6 C11 1_555 1_555
C12 C11 1_555 1_555
C13 C12 1_555 1_555
H7 C13 1_555 1_555
C14 C9 1_555 1_555
H8 C14 1_555 1_555
C15 O6 1_555 1_555
C16 N1 1_555 1_555
H9 C16 1_555 1_555
C17 N1 1_555 1_555
H10 C17 1_555 1_555
C18 N2 1_555 1_555
H11 C18 1_555 1_555
C19 N2 1_555 1_555
C20 C19 1_555 1_555
H12 C20 1_555 1_555
C21 C19 1_555 1_555
H13 C21 1_555 1_555
N1A C16A 1_555 1_555
N2A C17A 1_555 1_555
C16A H9A 1_555 1_555
C17A N1A 1_555 1_555
H10A C17A 1_555 1_555
C18A N2A 1_555 1_555
H11A C18A 1_555 1_555
C19A N2A 1_555 1_555
C20A C21 1_555 1_555
H12A C20A 1_555 1_555
C21A C20 1_555 1_555
H13A C21A 1_555 1_555
Cd1A O1 1_555 1_555
O1A Cd1 1_555 1_555
O2A Cd1A 1_555 1_555
O3A C4A 1_555 1_555
O4A C4A 1_555 1_555
O5A C15A 1_555 1_555
O6A H1A 1_555 1_555
C1A O1A 1_555 1_555
C2A H2A 1_555 1_555
C3A C2A 1_555 1_555
C4A C3A 1_555 1_555
C5A C3A 1_555 1_555
H3A C5A 1_555 1_555
C6A C5A 1_555 1_555
C7A C6A 1_555 1_555
H4A C7A 1_555 1_555
C8A C1A 1_555 1_555
C9A C6A 1_555 1_555
C10A C9A 1_555 1_555
H5A C10A 1_555 1_555
C11A C10A 1_555 1_555
H6A C11A 1_555 1_555
C12A C11A 1_555 1_555
C13A C12A 1_555 1_555
H7A C13A 1_555 1_555
C14A C9A 1_555 1_555
H8A C14A 1_555 1_555
C15A O6A 1_555 1_555
Cd1_2 O5 1_555 1_555
Cd1_3 O3 1_555 1_555
Cd1A_2 O3A 1_555 1_555
Cd1A_3 N1A 1_555 1_555
Cd1A_4 O5A 1_555 1_555
O3_2 Cd1 1_555 1_555
O3A_2 Cd1A 1_555 1_555
O4_2 Cd1 1_555 1_555
O4A_2 Cd1A 1_555 1_555
O5_2 Cd1 1_555 1_555
O5A_2 Cd1A 1_555 1_555
N1A_2 Cd1A 1_555 1_555
O4 Cd1_3 1_555 1_555
C2 C8 1_555 1_555
C7 C8 1_555 1_555
C12 C15 1_555 1_555
C13 C14 1_555 1_555
C16 C18 1_555 1_555
C16A C18A 1_555 1_555
C19A C20A 1_555 1_555
C19A C21A 1_555 1_555
Cd1A O1A 1_555 1_555
O2A C1A 1_555 1_555
O4A Cd1A_2 1_555 1_555
C2A C8A 1_555 1_555
C7A C8A 1_555 1_555
C12A C15A 1_555 1_555
C13A C14A 1_555 1_555

#END
