
#######################################################################
#
#                 Cambridge Crystallographic Data Centre
#                                CCDC 
#
#######################################################################
#
# If this CIF has been generated from an entry in the Cambridge 
# Structural Database, then it will include bibliographic, chemical, 
# crystal, experimental, refinement or atomic coordinate data resulting 
# from the CCDC's data processing and validation procedures.
#
#######################################################################

data_MOKBIX01
_symmetry_cell_setting           monoclinic
_symmetry_space_group_name_H-M   'C 2/c'
_symmetry_Int_Tables_number      15
_space_group_name_Hall           '-C 2yn'
loop_
_symmetry_equiv_pos_site_id
_symmetry_equiv_pos_as_xyz
1 x,y,z
2 1/2+x,1/2+y,z
3 x,-y,1/2+z
4 1/2+x,1/2-y,1/2+z
5 -x,-y,-z
6 1/2-x,1/2-y,-z
7 -x,y,1/2-z
8 1/2-x,1/2+y,1/2-z
_cell_length_a                   21.6034(13)
_cell_length_b                   11.4566(7)
_cell_length_c                   17.7982(12)
_cell_angle_alpha                90
_cell_angle_beta                 104.245(4)
_cell_angle_gamma                90
_cell_volume                     4269.64
loop_
_atom_site_label
_atom_site_type_symbol
_atom_site_fract_x
_atom_site_fract_y
_atom_site_fract_z
Zn1 Zn 0.180712(19) 0.12843(4) 0.34766(3)
Zn2 Zn 0.0000 0.13703(5) 0.2500
O1 O 0.17035(11) 0.1230(2) 0.23247(15)
O2 O 0.06510(12) 0.1350(2) 0.18054(16)
O3 O 0.15498(11) 0.1352(2) 0.45653(15)
O4 O 0.07650(11) 0.1372(2) 0.35311(15)
N1 N 0.27852(15) 0.1209(3) 0.3868(2)
N2 N 0.39176(18) 0.0742(4) 0.4303(3)
N3 N 0.43603(19) -0.1111(4) 0.4874(3)
N4 N -0.17768(15) -0.0632(2) 0.1508(2)
N5 N -0.18247(15) -0.6809(2) 0.1544(2)
N6 N 0.0000 0.3248(3) 0.2500
N7 N 0.0000 0.9467(3) 0.2500
C1 C 0.3312(2) 0.0946(3) 0.4086(3)
C2 C 0.4127(2) -0.0270(4) 0.4602(3)
C3 C -0.1625(2) -0.1254(3) 0.0948(3)
H1 H -0.1505 -0.0855 0.0550
C4 C -0.1634(2) -0.2453(3) 0.0923(3)
H2 H -0.1520 -0.2843 0.0518
C5 C -0.18129(17) -0.3083(3) 0.1500(2)
C6 C -0.1981(2) -0.2432(3) 0.2079(3)
H3 H -0.2110 -0.2806 0.2479
C7 C -0.1954(2) -0.1233(3) 0.2059(3)
H4 H -0.2067 -0.0818 0.2454
C8 C -0.18202(18) -0.4370(3) 0.1503(2)
C9 C -0.2031(2) -0.5020(3) 0.0838(3)
H5 H -0.2172 -0.4652 0.0361
C10 C -0.20319(19) -0.6226(3) 0.0885(2)
H6 H -0.2186 -0.6650 0.0432
C11 C -0.16164(18) -0.6170(3) 0.2193(2)
H7 H -0.1468 -0.6558 0.2662
C12 C -0.16134(18) -0.4975(3) 0.2191(2)
H8 H -0.1472 -0.4570 0.2655
C13 C 0.0508(2) 0.1521(4) 0.4776(3)
H9 H 0.0096 0.1228 0.4507
H10 H 0.0470 0.2326 0.4907
H11 H 0.0665 0.1076 0.5241
C14 C 0.09619(18) 0.1413(3) 0.4266(2)
C15 C 0.1348(2) 0.1206(4) 0.0967(3)
H12 H 0.0950 0.1238 0.0581
H13 H 0.1563 0.0489 0.0915
H14 H 0.1611 0.1854 0.0899
C16 C 0.12215(17) 0.1265(3) 0.1762(2)
C17 C -0.00524(18) 0.3867(3) 0.1846(2)
H15 H -0.0087 0.3462 0.1385
C18 C -0.00571(18) 0.5070(3) 0.1823(2)
H16 H -0.0099 0.5454 0.1353
C19 C 0.0000 0.5710(4) 0.2500
C20 C 0.0000 0.7001(4) 0.2500
C21 C 0.0118(2) 0.7648(3) 0.1895(3)
H17 H 0.0204 0.7268 0.1470
C22 C 0.0109(2) 0.8850(3) 0.1914(3)
H18 H 0.0185 0.9254 0.1492
C18F C 0.00571(18) 0.5070(3) 0.3177(2)
C17F C 0.00524(18) 0.3867(3) 0.3154(2)
H15F H 0.0087 0.3462 0.3615
H16F H 0.0099 0.5454 0.3647
C22F C -0.0109(2) 0.8850(3) 0.3086(3)
C21F C -0.0118(2) 0.7648(3) 0.3105(3)
H17F H -0.0204 0.7268 0.3530
H18F H -0.0185 0.9254 0.3508
O1F O -0.17035(11) 0.1230(2) 0.26753(15)
O2F O -0.06510(12) 0.1350(2) 0.31946(16)
C15F C -0.1348(2) 0.1206(4) 0.4033(3)
H12F H -0.0950 0.1238 0.4419
H13F H -0.1563 0.0489 0.4085
H14F H -0.1611 0.1854 0.4101
C16F C -0.12215(17) 0.1265(3) 0.3238(2)
O3F O -0.15498(11) 0.1352(2) 0.04347(15)
O4F O -0.07650(11) 0.1372(2) 0.14689(15)
C13F C -0.0508(2) 0.1521(4) 0.0224(3)
H9F H -0.0096 0.1228 0.0493
H10F H -0.0470 0.2326 0.0093
H11F H -0.0665 0.1076 -0.0241
C14F C -0.09619(18) 0.1413(3) 0.0734(2)
N7_2 N 0.0000 -0.0533(3) 0.2500
Zn2_2 Zn 0.0000 1.13703(5) 0.2500
Zn1F Zn -0.180712(19) 0.12843(4) 0.15234(3)
N5F N 0.18247(15) 0.3191(2) 0.3456(2)
N1F N -0.27852(15) 0.1209(3) 0.1132(2)
N2F N -0.39176(18) 0.0742(4) 0.0697(3)
N3F N -0.43603(19) -0.1111(4) 0.0126(3)
C1F C -0.3312(2) 0.0946(3) 0.0914(3)
C2F C -0.4127(2) -0.0270(4) 0.0398(3)
N4F N 0.17768(15) -0.0632(2) 0.3492(2)
N4_2 N -0.17768(15) 0.9368(2) 0.1508(2)
N5_2 N -0.18247(15) 0.3191(2) 0.1544(2)
C3_2 C -0.1625(2) 0.8746(3) 0.0948(3)
H1_2 H -0.1505 0.9145 0.0550
C4_2 C -0.1634(2) 0.7547(3) 0.0923(3)
H2_2 H -0.1520 0.7157 0.0518
C5_2 C -0.18129(17) 0.6917(3) 0.1500(2)
C6_2 C -0.1981(2) 0.7568(3) 0.2079(3)
H3_2 H -0.2110 0.7194 0.2479
C7_2 C -0.1954(2) 0.8767(3) 0.2059(3)
H4_2 H -0.2067 0.9182 0.2454
C8_2 C -0.18202(18) 0.5630(3) 0.1503(2)
C9_2 C -0.2031(2) 0.4980(3) 0.0838(3)
H5_2 H -0.2172 0.5348 0.0361
C10_2 C -0.20319(19) 0.3774(3) 0.0885(2)
H6_2 H -0.2186 0.3350 0.0432
C11_2 C -0.16164(18) 0.3830(3) 0.2193(2)
H7_2 H -0.1468 0.3442 0.2662
C12_2 C -0.16134(18) 0.5025(3) 0.2191(2)
H8_2 H -0.1472 0.5430 0.2655
Zn1F_2 Zn -0.180712(19) 1.12843(4) 0.15234(3)
Zn1F_3 Zn -0.180712(19) -0.87157(4) 0.15234(3)
loop_
_geom_bond_atom_site_label_1
_geom_bond_atom_site_label_2
_geom_bond_site_symmetry_1
_geom_bond_site_symmetry_2
Zn1 O1 1_555 1_555
Zn2 O2 1_555 1_555
O1 C16 1_555 1_555
O2 C16 1_555 1_555
O3 Zn1 1_555 1_555
O4 Zn1 1_555 1_555
N1 Zn1 1_555 1_555
N2 C1 1_555 1_555
N3 C2 1_555 1_555
N4 C3 1_555 1_555
N5 C10 1_555 1_555
N6 Zn2 1_555 1_555
N7 C22 1_555 1_555
C1 N1 1_555 1_555
C2 N2 1_555 1_555
C3 H1 1_555 1_555
C4 C3 1_555 1_555
H2 C4 1_555 1_555
C5 C4 1_555 1_555
C6 C5 1_555 1_555
H3 C6 1_555 1_555
C7 N4 1_555 1_555
H4 C7 1_555 1_555
C8 C5 1_555 1_555
C9 C8 1_555 1_555
H5 C9 1_555 1_555
C10 C9 1_555 1_555
H6 C10 1_555 1_555
C11 N5 1_555 1_555
H7 C11 1_555 1_555
C12 C8 1_555 1_555
H8 C12 1_555 1_555
C13 H9 1_555 1_555
H10 C13 1_555 1_555
H11 C13 1_555 1_555
C14 O3 1_555 1_555
C15 H12 1_555 1_555
H13 C15 1_555 1_555
H14 C15 1_555 1_555
C16 C15 1_555 1_555
C17 N6 1_555 1_555
H15 C17 1_555 1_555
C18 C17 1_555 1_555
H16 C18 1_555 1_555
C19 C18 1_555 1_555
C20 C19 1_555 1_555
C21 C20 1_555 1_555
H17 C21 1_555 1_555
C22 C21 1_555 1_555
H18 C22 1_555 1_555
C18F C19 1_555 1_555
C17F N6 1_555 1_555
H15F C17F 1_555 1_555
H16F C18F 1_555 1_555
C22F N7 1_555 1_555
C21F C20 1_555 1_555
H17F C21F 1_555 1_555
H18F C22F 1_555 1_555
O1F C16F 1_555 1_555
O2F Zn2 1_555 1_555
C15F H12F 1_555 1_555
H13F C15F 1_555 1_555
H14F C15F 1_555 1_555
C16F O2F 1_555 1_555
O3F C14F 1_555 1_555
O4F Zn2 1_555 1_555
C13F H9F 1_555 1_555
H10F C13F 1_555 1_555
H11F C13F 1_555 1_555
C14F O4F 1_555 1_555
N7_2 Zn2 1_555 1_555
Zn2_2 N7 1_555 1_555
Zn1F N4 1_555 1_555
N5F Zn1 1_555 1_555
N1F Zn1F 1_555 1_555
N2F C1F 1_555 1_555
N3F C2F 1_555 1_555
C1F N1F 1_555 1_555
C2F N2F 1_555 1_555
N4F Zn1 1_555 1_555
N4_2 C3_2 1_555 1_555
N5_2 Zn1F 1_555 1_555
C3_2 H1_2 1_555 1_555
C4_2 C3_2 1_555 1_555
H2_2 C4_2 1_555 1_555
C5_2 C4_2 1_555 1_555
C6_2 C5_2 1_555 1_555
H3_2 C6_2 1_555 1_555
C7_2 N4_2 1_555 1_555
H4_2 C7_2 1_555 1_555
C8_2 C5_2 1_555 1_555
C9_2 C8_2 1_555 1_555
H5_2 C9_2 1_555 1_555
C10_2 N5_2 1_555 1_555
H6_2 C10_2 1_555 1_555
C11_2 N5_2 1_555 1_555
H7_2 C11_2 1_555 1_555
C12_2 C8_2 1_555 1_555
H8_2 C12_2 1_555 1_555
Zn1F_2 N4_2 1_555 1_555
Zn1F_3 N5 1_555 1_555
Zn2 O4 1_555 1_555
O4 C14 1_555 1_555
C6 C7 1_555 1_555
C11 C12 1_555 1_555
C13 C14 1_555 1_555
C18F C17F 1_555 1_555
C22F C21F 1_555 1_555
O1F Zn1F 1_555 1_555
C15F C16F 1_555 1_555
O3F Zn1F 1_555 1_555
O4F Zn1F 1_555 1_555
C13F C14F 1_555 1_555
C6_2 C7_2 1_555 1_555
C9_2 C10_2 1_555 1_555
C11_2 C12_2 1_555 1_555

#END
