
#######################################################################
#
#                 Cambridge Crystallographic Data Centre
#                                CCDC 
#
#######################################################################
#
# If this CIF has been generated from an entry in the Cambridge 
# Structural Database, then it will include bibliographic, chemical, 
# crystal, experimental, refinement or atomic coordinate data resulting 
# from the CCDC's data processing and validation procedures.
#
#######################################################################

data_MOKGAV
_symmetry_cell_setting           orthorhombic
_symmetry_space_group_name_H-M   'P 21 21 21'
_symmetry_Int_Tables_number      19
_space_group_name_Hall           'P 2ac 2ab'
loop_
_symmetry_equiv_pos_site_id
_symmetry_equiv_pos_as_xyz
1 x,y,z
2 1/2+x,1/2-y,-z
3 -x,1/2+y,1/2-z
4 1/2-x,-y,1/2+z
_cell_length_a                   9.9528(5)
_cell_length_b                   23.3963(13)
_cell_length_c                   8.8936(6)
_cell_angle_alpha                90
_cell_angle_beta                 90
_cell_angle_gamma                90
_cell_volume                     2070.95
loop_
_atom_site_label
_atom_site_type_symbol
_atom_site_fract_x
_atom_site_fract_y
_atom_site_fract_z
Cu1 Cu -0.0111(16) 0.0052(6) 0.5258(13)
Ni1 Ni -0.0031(10) -0.0001(10) 0.0001(17)
N1 N -0.0937(21) -0.0651(6) 0.3832(21)
N2 N 0.1309(22) -0.0645(7) 0.5602(22)
N3 N 0.1262(20) 0.0802(7) 0.5502(35)
N4 N -0.1185(27) 0.0753(6) 0.4066(29)
N5 N 0.1516(18) -0.0138(15) 0.2849(19)
N6 N 0.073(5) 0.1242(11) 0.030(6)
N7 N -0.1519(19) 0.0008(28) 0.7081(21)
N8 N -0.080(6) -0.1233(11) -0.059(6)
C1 C -0.0320(21) -0.1210(6) 0.4225(16)
C2 C -0.1322(23) -0.1700(7) 0.4288(27)
C3 C -0.0668(28) -0.2254(6) 0.4771(31)
C4 C 0.0132(34) -0.2194(8) 0.6212(28)
C5 C 0.1091(30) -0.1692(8) 0.6178(25)
C6 C 0.0386(24) -0.1141(7) 0.5734(16)
C7 C 0.0883(25) 0.1265(7) 0.4436(22)
C8 C 0.1589(29) 0.1826(8) 0.4756(31)
C9 C 0.105(4) 0.2312(9) 0.3807(27)
C10 C -0.046(4) 0.2367(6) 0.3947(27)
C11 C -0.117(4) 0.1811(7) 0.3599(28)
C12 C -0.0639(25) 0.1319(6) 0.4533(18)
C13 C 0.0796(13) -0.0095(16) 0.1844(19)
C14 C 0.0340(16) 0.0788(11) 0.0067(32)
C15 C -0.0868(13) 0.0070(13) 0.8138(19)
C16 C -0.0448(17) -0.0791(10) -0.0182(30)
H1 H -0.1816(20) -0.0658(7) 0.4072(34)
H2 H -0.0688(33) -0.0552(7) 0.2893(17)
H3 H 0.1805(18) -0.0679(7) 0.4759(28)
H4 H 0.1724(29) -0.0585(8) 0.6490(27)
H5 H 0.112(4) 0.0921(7) 0.6452(30)
H6 H 0.2073(17) 0.0661(9) 0.525(6)
H7 H -0.099(4) 0.0694(7) 0.3088(25)
H8 H -0.2040(23) 0.0722(8) 0.438(5)
H9 H 0.0354(22) -0.1297(8) 0.3468(16)
H10 H -0.1726(29) -0.1748(8) 0.3306(33)
H11 H -0.2033(24) -0.1603(9) 0.499(4)
H12 H -0.0079(31) -0.2389(8) 0.3977(33)
H13 H -0.1356(32) -0.2543(7) 0.491(4)
H14 H 0.064(4) -0.2543(8) 0.638(4)
H15 H -0.048(4) -0.2150(12) 0.7050(28)
H16 H 0.150(4) -0.1644(10) 0.7159(29)
H17 H 0.1809(26) -0.1768(8) 0.547(4)
H18 H -0.0284(28) -0.1051(9) 0.6490(16)
H19 H 0.1120(34) 0.1139(10) 0.3431(27)
H20 H 0.2544(29) 0.1782(11) 0.457(5)
H21 H 0.1486(32) 0.1920(8) 0.5812(30)
H22 H 0.147(4) 0.2667(9) 0.411(4)
H23 H 0.129(5) 0.2248(13) 0.2763(29)
H24 H -0.069(4) 0.2488(8) 0.4958(33)
H25 H -0.078(5) 0.2662(7) 0.327(4)
H26 H -0.213(4) 0.1854(8) 0.379(5)
H27 H -0.107(5) 0.1721(8) 0.2541(25)
H28 H -0.0885(23) 0.1379(9) 0.5576(20)
Ni1_2 Ni -0.0031(10) -0.0001(10) 1.0001(17)
C15_2 C -0.0868(13) 0.0070(13) -0.1862(19)
loop_
_geom_bond_atom_site_label_1
_geom_bond_atom_site_label_2
_geom_bond_site_symmetry_1
_geom_bond_site_symmetry_2
Cu1 N1 1_555 1_555
Ni1 C13 1_555 1_555
N1 C1 1_555 1_555
N2 Cu1 1_555 1_555
N3 Cu1 1_555 1_555
N4 Cu1 1_555 1_555
N5 Cu1 1_555 1_555
N6 C14 1_555 1_555
N7 Cu1 1_555 1_555
N8 C16 1_555 1_555
C1 C2 1_555 1_555
C2 C3 1_555 1_555
C3 C4 1_555 1_555
C4 C5 1_555 1_555
C5 C6 1_555 1_555
C6 N2 1_555 1_555
C7 N3 1_555 1_555
C8 C7 1_555 1_555
C9 C8 1_555 1_555
C10 C9 1_555 1_555
C11 C10 1_555 1_555
C12 N4 1_555 1_555
C13 N5 1_555 1_555
C14 Ni1 1_555 1_555
C15 N7 1_555 1_555
C16 Ni1 1_555 1_555
H1 N1 1_555 1_555
H2 N1 1_555 1_555
H3 N2 1_555 1_555
H4 N2 1_555 1_555
H5 N3 1_555 1_555
H6 N3 1_555 1_555
H7 N4 1_555 1_555
H8 N4 1_555 1_555
H9 C1 1_555 1_555
H10 C2 1_555 1_555
H11 C2 1_555 1_555
H12 C3 1_555 1_555
H13 C3 1_555 1_555
H14 C4 1_555 1_555
H15 C4 1_555 1_555
H16 C5 1_555 1_555
H17 C5 1_555 1_555
H18 C6 1_555 1_555
H19 C7 1_555 1_555
H20 C8 1_555 1_555
H21 C8 1_555 1_555
H22 C9 1_555 1_555
H23 C9 1_555 1_555
H24 C10 1_555 1_555
H25 C10 1_555 1_555
H26 C11 1_555 1_555
H27 C11 1_555 1_555
H28 C12 1_555 1_555
Ni1_2 C15 1_555 1_555
C15_2 Ni1 1_555 1_555
C1 C6 1_555 1_555
C7 C12 1_555 1_555
C11 C12 1_555 1_555

#END
