
#######################################################################
#
#                 Cambridge Crystallographic Data Centre
#                                CCDC 
#
#######################################################################
#
# If this CIF has been generated from an entry in the Cambridge 
# Structural Database, then it will include bibliographic, chemical, 
# crystal, experimental, refinement or atomic coordinate data resulting 
# from the CCDC's data processing and validation procedures.
#
#######################################################################

data_MOKJUT
_symmetry_cell_setting           orthorhombic
_symmetry_space_group_name_H-M   'P c c n'
_symmetry_Int_Tables_number      56
_space_group_name_Hall           '-P 2ab 2ac'
loop_
_symmetry_equiv_pos_site_id
_symmetry_equiv_pos_as_xyz
1 x,y,z
2 1/2-x,1/2-y,z
3 1/2+x,-y,1/2-z
4 -x,1/2+y,1/2-z
5 -x,-y,-z
6 1/2+x,1/2+y,-z
7 1/2-x,y,1/2+z
8 x,1/2-y,1/2+z
_cell_length_a                   12.354(5)
_cell_length_b                   16.814(6)
_cell_length_c                   9.0073(18)
_cell_angle_alpha                90
_cell_angle_beta                 90
_cell_angle_gamma                90
_cell_volume                     1871
loop_
_atom_site_label
_atom_site_type_symbol
_atom_site_fract_x
_atom_site_fract_y
_atom_site_fract_z
Pb1 Pb 0.2500 0.2500 0.02246(2)
S1 S 0.09982(9) 0.31279(7) 0.23814(13)
N1 N 0.1164(3) 0.4639(2) 0.3453(4)
H1 H 0.1159 0.4486 0.4387
N2 N 0.1136(3) 0.4597(2) 0.1039(4)
H2 H 0.1105 0.4414 0.0125
C1 C 0.1111(4) 0.4145(3) 0.2261(6)
C2 C 0.1227(4) 0.5429(3) 0.2973(5)
C3 C 0.1273(4) 0.6145(3) 0.3747(6)
H3 H 0.1273 0.6163 0.4801
C4 C 0.1319(4) 0.6828(3) 0.2895(6)
H4 H 0.1355 0.7330 0.3376
C5 C 0.1313(4) 0.6798(3) 0.1329(6)
H5 H 0.1344 0.7283 0.0787
C6 C 0.1263(4) 0.6089(3) 0.0558(5)
H6 H 0.1259 0.6071 -0.0496
C7 C 0.1219(4) 0.5399(3) 0.1419(5)
O1 O 0.1463(3) 0.1242(2) 0.1015(3)
O2 O 0.1376(3) 0.1303(2) 0.3442(3)
O3 O 0.1276(3) 0.01595(19) 0.2326(4)
N3 N 0.1373(3) 0.0892(2) 0.2289(5)
S1A S 0.40018(9) 0.18721(7) 0.23814(13)
N1A N 0.3836(3) 0.0361(2) 0.3453(4)
H1A H 0.3841 0.0514 0.4387
N2A N 0.3864(3) 0.0403(2) 0.1039(4)
H2A H 0.3895 0.0586 0.0125
C1A C 0.3889(4) 0.0855(3) 0.2261(6)
C2A C 0.3773(4) -0.0429(3) 0.2973(5)
C3A C 0.3727(4) -0.1145(3) 0.3747(6)
H3A H 0.3727 -0.1163 0.4801
C4A C 0.3681(4) -0.1828(3) 0.2895(6)
H4A H 0.3645 -0.2330 0.3376
C5A C 0.3687(4) -0.1798(3) 0.1329(6)
H5A H 0.3656 -0.2283 0.0787
C6A C 0.3737(4) -0.1089(3) 0.0558(5)
H6A H 0.3741 -0.1071 -0.0496
C7A C 0.3781(4) -0.0399(3) 0.1419(5)
O1A O 0.3537(3) 0.3758(2) 0.1015(3)
O2A O 0.3624(3) 0.3697(2) 0.3442(3)
O3A O 0.3724(3) 0.48405(19) 0.2326(4)
N3A N 0.3627(3) 0.4108(2) 0.2289(5)
Pb1F Pb 0.2500 0.2500 0.52246(2)
O2F O 0.3624(3) 0.1303(2) -0.1558(3)
O2G O 0.1376(3) 0.3697(2) -0.1558(3)
loop_
_geom_bond_atom_site_label_1
_geom_bond_atom_site_label_2
_geom_bond_site_symmetry_1
_geom_bond_site_symmetry_2
Pb1 S1 1_555 1_555
S1 C1 1_555 1_555
N1 H1 1_555 1_555
N2 H2 1_555 1_555
C1 N1 1_555 1_555
C2 N1 1_555 1_555
C3 C2 1_555 1_555
H3 C3 1_555 1_555
C4 C3 1_555 1_555
H4 C4 1_555 1_555
C5 C4 1_555 1_555
H5 C5 1_555 1_555
C6 C5 1_555 1_555
H6 C6 1_555 1_555
C7 N2 1_555 1_555
O1 Pb1 1_555 1_555
O2 N3 1_555 1_555
O3 N3 1_555 1_555
N3 O1 1_555 1_555
S1A Pb1 1_555 1_555
N1A H1A 1_555 1_555
N2A H2A 1_555 1_555
C1A S1A 1_555 1_555
C2A N1A 1_555 1_555
C3A C2A 1_555 1_555
H3A C3A 1_555 1_555
C4A C3A 1_555 1_555
H4A C4A 1_555 1_555
C5A C4A 1_555 1_555
H5A C5A 1_555 1_555
C6A C5A 1_555 1_555
H6A C6A 1_555 1_555
C7A N2A 1_555 1_555
O1A Pb1 1_555 1_555
O2A N3A 1_555 1_555
O3A N3A 1_555 1_555
N3A O1A 1_555 1_555
Pb1F O2 1_555 1_555
O2F Pb1 1_555 1_555
O2G Pb1 1_555 1_555
N2 C1 1_555 1_555
C2 C7 1_555 1_555
C6 C7 1_555 1_555
N1A C1A 1_555 1_555
N2A C1A 1_555 1_555
C2A C7A 1_555 1_555
C6A C7A 1_555 1_555
O2A Pb1F 1_555 1_555

#END
