
#######################################################################
#
#                 Cambridge Crystallographic Data Centre
#                                CCDC 
#
#######################################################################
#
# If this CIF has been generated from an entry in the Cambridge 
# Structural Database, then it will include bibliographic, chemical, 
# crystal, experimental, refinement or atomic coordinate data resulting 
# from the CCDC's data processing and validation procedures.
#
#######################################################################

data_MOKKII
_symmetry_cell_setting           monoclinic
_symmetry_space_group_name_H-M   'P 21'
_symmetry_Int_Tables_number      4
_space_group_name_Hall           'P 2yb'
loop_
_symmetry_equiv_pos_site_id
_symmetry_equiv_pos_as_xyz
1 x,y,z
2 -x,1/2+y,-z
_cell_length_a                   4.05170(10)
_cell_length_b                   24.3412(7)
_cell_length_c                   10.7681(4)
_cell_angle_alpha                90
_cell_angle_beta                 93.9769(17)
_cell_angle_gamma                90
_cell_volume                     1059.43
loop_
_atom_site_label
_atom_site_type_symbol
_atom_site_fract_x
_atom_site_fract_y
_atom_site_fract_z
Pb1 Pb 0.36716(9) 0.144657(16) 0.86558(4)
S1 S -0.1081(6) 0.13925(12) 1.0871(3)
S2 S 0.0392(7) 0.02185(12) 1.1840(3)
S3 S 0.8132(7) 0.08057(11) 0.7319(3)
S4 S 0.6530(7) 0.08682(13) 0.4496(3)
N1 N 0.208(2) 0.0579(4) 0.9768(9)
N2 N 0.320(2) 0.0046(4) 0.9836(9)
N3 N 0.452(2) 0.1566(4) 0.6052(8)
N4 N 0.322(2) 0.1736(4) 0.4878(9)
C1 C 0.052(2) 0.0735(4) 1.0719(11)
C2 C 0.248(3) -0.0194(5) 1.0860(9)
H1 H 0.3065 -0.0564 1.1051
C3 C 0.634(3) 0.1126(4) 0.6009(10)
C4 C 0.415(2) 0.1415(5) 0.3973(10)
H2 H 0.3548 0.1481 0.3117
Pb1_2 Pb -0.63284(9) 0.144657(16) 0.86558(4)
Pb1_3 Pb 1.36716(9) 0.144657(16) 0.86558(4)
S1_2 S 0.8919(6) 0.13925(12) 1.0871(3)
S3_2 S -0.1868(7) 0.08057(11) 0.7319(3)
Pb2 Pb 1.39233(10) 0.311957(15) 0.62122(4)
S5 S 0.8894(6) 0.24029(11) 0.7742(2)
S6 S 1.0068(8) 0.28747(13) 1.0385(3)
S7 S 1.8799(7) 0.39599(11) 0.6524(3)
S8 S 1.8643(7) 0.47324(13) 0.4294(3)
N5 N 1.254(2) 0.3280(3) 0.8502(8)
N6 N 1.349(2) 0.3634(4) 0.9437(9)
N7 N 1.550(2) 0.3826(4) 0.4299(9)
N8 N 1.487(2) 0.4040(4) 0.3109(9)
C5 C 1.063(3) 0.2877(5) 0.8816(9)
C6 C 1.234(3) 0.3465(5) 1.0481(11)
H3 H 1.2748 0.3659 1.1241
C7 C 1.747(2) 0.4144(5) 0.5025(10)
C8 C 1.641(3) 0.4499(5) 0.2958(11)
H4 H 1.6319 0.4691 0.2189
O1 O 0.877(2) 0.2630(3) 0.4624(7)
C9 C 0.887(3) 0.2689(5) 0.3328(12)
H5 H 0.7676 0.3023 0.3056
H6 H 0.7830 0.2369 0.2909
H7 H 1.1178 0.2716 0.3115
Pb2_2 Pb 0.39233(10) 0.311957(15) 0.62122(4)
Pb2_3 Pb 2.39233(10) 0.311957(15) 0.62122(4)
S5_2 S 1.8894(6) 0.24029(11) 0.7742(2)
S7_2 S 0.8799(7) 0.39599(11) 0.6524(3)
loop_
_geom_bond_atom_site_label_1
_geom_bond_atom_site_label_2
_geom_bond_site_symmetry_1
_geom_bond_site_symmetry_2
Pb1 S3 1_555 1_555
S1 C1 1_555 1_555
S2 C1 1_555 1_555
S3 C3 1_555 1_555
S4 C3 1_555 1_555
N1 Pb1 1_555 1_555
N2 N1 1_555 1_555
N3 Pb1 1_555 1_555
N4 N3 1_555 1_555
C1 N1 1_555 1_555
C2 S2 1_555 1_555
H1 C2 1_555 1_555
C3 N3 1_555 1_555
C4 S4 1_555 1_555
H2 C4 1_555 1_555
Pb2 S7 1_555 1_555
S5 C5 1_555 1_555
S6 C5 1_555 1_555
S7 C7 1_555 1_555
S8 C7 1_555 1_555
N5 Pb2 1_555 1_555
N6 N5 1_555 1_555
N7 Pb2 1_555 1_555
N8 N7 1_555 1_555
C5 N5 1_555 1_555
C6 S6 1_555 1_555
H3 C6 1_555 1_555
C7 N7 1_555 1_555
C8 S8 1_555 1_555
H4 C8 1_555 1_555
O1 Pb2 1_555 1_555
C9 O1 1_555 1_555
H5 C9 1_555 1_555
H6 C9 1_555 1_555
H7 C9 1_555 1_555
Pb1_2 S1 1_555 1_555
Pb1_3 S3 1_555 1_555
S1_2 Pb1 1_555 1_555
S3_2 Pb1 1_555 1_555
Pb2_2 S5 1_555 1_555
Pb2_3 S7 1_555 1_555
S5_2 Pb2 1_555 1_555
S7_2 Pb2 1_555 1_555
N2 C2 1_555 1_555
N4 C4 1_555 1_555
N6 C6 1_555 1_555
N8 C8 1_555 1_555
Pb1_2 S3_2 1_555 1_555
Pb2_2 S7_2 1_555 1_555

#END
