
#######################################################################
#
#                 Cambridge Crystallographic Data Centre
#                                CCDC 
#
#######################################################################
#
# If this CIF has been generated from an entry in the Cambridge 
# Structural Database, then it will include bibliographic, chemical, 
# crystal, experimental, refinement or atomic coordinate data resulting 
# from the CCDC's data processing and validation procedures.
#
#######################################################################

data_MOKKAA
_symmetry_cell_setting           orthorhombic
_symmetry_space_group_name_H-M   'P b c n'
_symmetry_Int_Tables_number      60
_space_group_name_Hall           '-P 2n 2ab'
loop_
_symmetry_equiv_pos_site_id
_symmetry_equiv_pos_as_xyz
1 x,y,z
2 1/2-x,1/2-y,1/2+z
3 1/2+x,1/2-y,-z
4 -x,y,1/2-z
5 -x,-y,-z
6 1/2+x,1/2+y,1/2-z
7 1/2-x,1/2+y,z
8 x,-y,1/2+z
_cell_length_a                   17.9942(7)
_cell_length_b                   6.3605(2)
_cell_length_c                   13.1333(5)
_cell_angle_alpha                90
_cell_angle_beta                 90
_cell_angle_gamma                90
_cell_volume                     1503.13
loop_
_atom_site_label
_atom_site_type_symbol
_atom_site_fract_x
_atom_site_fract_y
_atom_site_fract_z
Pb1 Pb 0.34677(2) 0.18855(3) 0.48212(2)
S1 S 0.32482(7) 0.6241(2) 0.50658(8)
N1 N 0.2199(2) 0.6706(5) 0.6524(3)
N2 N 0.3311(2) 0.6691(6) 0.7157(3)
H1 H 0.373(4) 0.679(8) 0.725(5)
N3 N 0.2852(2) 0.6989(6) 0.7972(3)
C1 C 0.2925(2) 0.6522(7) 0.6303(4)
C2 C 0.2189(3) 0.7005(7) 0.7551(4)
H2 H 0.177(4) 0.729(9) 0.788(5)
O1 O 0.45722(19) 0.3048(5) 0.6009(3)
O2 O 0.55153(17) 0.1258(6) 0.6578(3)
O3 O 0.45288(17) -0.0358(5) 0.6019(3)
N4 N 0.4879(2) 0.1306(7) 0.6212(3)
O4 O 0.44780(19) 0.3576(7) 0.3520(3)
H3 H 0.478(4) 0.283(10) 0.361(5)
H4 H 0.465(3) 0.458(10) 0.365(5)
Pb1F Pb 0.15323(2) 0.68855(3) 0.48212(2)
Pb1G Pb 0.34677(2) 0.81145(3) 0.98212(2)
N1F N 0.2801(2) 0.1706(5) 0.6524(3)
N3G N 0.2852(2) 0.3011(6) 0.2972(3)
loop_
_geom_bond_atom_site_label_1
_geom_bond_atom_site_label_2
_geom_bond_site_symmetry_1
_geom_bond_site_symmetry_2
Pb1 S1 1_555 1_555
S1 C1 1_555 1_555
N1 C1 1_555 1_555
N2 H1 1_555 1_555
N3 N2 1_555 1_555
C1 N2 1_555 1_555
C2 N1 1_555 1_555
H2 C2 1_555 1_555
O1 Pb1 1_555 1_555
O2 N4 1_555 1_555
O3 Pb1 1_555 1_555
N4 O1 1_555 1_555
O4 Pb1 1_555 1_555
H3 O4 1_555 1_555
H4 O4 1_555 1_555
Pb1F N1 1_555 1_555
Pb1G N3 1_555 1_555
N1F Pb1 1_555 1_555
N3G Pb1 1_555 1_555
N3 C2 1_555 1_555
O3 N4 1_555 1_555

#END
