
#######################################################################
#
#                 Cambridge Crystallographic Data Centre
#                                CCDC 
#
#######################################################################
#
# If this CIF has been generated from an entry in the Cambridge 
# Structural Database, then it will include bibliographic, chemical, 
# crystal, experimental, refinement or atomic coordinate data resulting 
# from the CCDC's data processing and validation procedures.
#
#######################################################################

data_MOKLAB
_symmetry_cell_setting           orthorhombic
_symmetry_space_group_name_H-M   'P b c a'
_symmetry_Int_Tables_number      61
_space_group_name_Hall           '-P 2ac 2ab'
loop_
_symmetry_equiv_pos_site_id
_symmetry_equiv_pos_as_xyz
1 x,y,z
2 1/2-x,-y,1/2+z
3 1/2+x,1/2-y,-z
4 -x,1/2+y,1/2-z
5 -x,-y,-z
6 1/2+x,y,1/2-z
7 1/2-x,1/2+y,z
8 x,1/2-y,1/2+z
_cell_length_a                   19.9345(3)
_cell_length_b                   7.34785(13)
_cell_length_c                   24.3982(4)
_cell_angle_alpha                90
_cell_angle_beta                 90
_cell_angle_gamma                90
_cell_volume                     3573.74
loop_
_atom_site_label
_atom_site_type_symbol
_atom_site_fract_x
_atom_site_fract_y
_atom_site_fract_z
Pb1 Pb 0.19551(2) 0.64375(2) 0.58470(2)
S1 S 0.29159(5) 0.79338(13) 0.65447(4)
S2 S 0.22577(5) 0.82379(14) 0.76733(4)
S3 S 0.30316(5) 0.49642(13) 0.52439(4)
S4 S 0.25911(5) 0.37676(13) 0.40949(4)
N1 N 0.16038(17) 0.8326(4) 0.67731(13)
N2 N 0.18100(16) 0.5271(4) 0.47910(13)
C1 C 0.2216(2) 0.8212(5) 0.69601(15)
C2 C 0.1403(2) 0.8400(5) 0.77011(16)
H1 H 0.1154 0.8459 0.8023
C3 C 0.1134(2) 0.8431(5) 0.71879(16)
C4 C 0.0418(2) 0.8631(5) 0.70479(16)
C5 C 0.0233(2) 0.9393(5) 0.65482(16)
H2 H 0.0561 0.9696 0.6293
C6 C -0.0434(2) 0.9702(5) 0.64280(17)
H3 H -0.0554 1.0216 0.6094
C7 C -0.0929(2) 0.9243(6) 0.68084(17)
H4 H -0.1378 0.9472 0.6731
C8 C -0.0750(2) 0.8449(6) 0.72991(17)
H5 H -0.1080 0.8115 0.7549
C9 C -0.0081(2) 0.8148(5) 0.74202(16)
H6 H 0.0036 0.7618 0.7753
C10 C 0.2426(2) 0.4704(5) 0.47304(15)
C11 C 0.1777(2) 0.4176(5) 0.39101(16)
H7 H 0.1595 0.3883 0.3570
C12 C 0.1429(2) 0.4984(5) 0.43232(15)
C13 C 0.0728(2) 0.5624(5) 0.43102(15)
C14 C 0.0291(2) 0.5086(6) 0.38946(16)
H8 H 0.0442 0.4298 0.3623
C15 C -0.0362(2) 0.5705(6) 0.38804(17)
H9 H -0.0645 0.5352 0.3596
C16 C -0.0597(2) 0.6854(5) 0.42898(16)
H10 H -0.1039 0.7261 0.4283
C17 C -0.0170(2) 0.7390(6) 0.47081(16)
H11 H -0.0325 0.8157 0.4983
C18 C 0.0486(2) 0.6788(5) 0.47176(16)
H12 H 0.0770 0.7162 0.4998
Pb1F Pb 0.30449(2) 0.14375(2) 0.58470(2)
Pb1F_2 Pb 0.30449(2) 1.14375(2) 0.58470(2)
S1F S 0.20841(5) 0.29338(13) 0.65447(4)
S3F S 0.19684(5) 0.99642(13) 0.52439(4)
loop_
_geom_bond_atom_site_label_1
_geom_bond_atom_site_label_2
_geom_bond_site_symmetry_1
_geom_bond_site_symmetry_2
Pb1 S1 1_555 1_555
S1 C1 1_555 1_555
S2 C1 1_555 1_555
S3 Pb1 1_555 1_555
S4 C10 1_555 1_555
N1 Pb1 1_555 1_555
N2 Pb1 1_555 1_555
C1 N1 1_555 1_555
C2 S2 1_555 1_555
H1 C2 1_555 1_555
C3 N1 1_555 1_555
C4 C3 1_555 1_555
C5 C4 1_555 1_555
H2 C5 1_555 1_555
C6 C5 1_555 1_555
H3 C6 1_555 1_555
C7 C6 1_555 1_555
H4 C7 1_555 1_555
C8 C7 1_555 1_555
H5 C8 1_555 1_555
C9 C4 1_555 1_555
H6 C9 1_555 1_555
C10 S3 1_555 1_555
C11 S4 1_555 1_555
H7 C11 1_555 1_555
C12 N2 1_555 1_555
C13 C12 1_555 1_555
C14 C13 1_555 1_555
H8 C14 1_555 1_555
C15 C14 1_555 1_555
H9 C15 1_555 1_555
C16 C15 1_555 1_555
H10 C16 1_555 1_555
C17 C16 1_555 1_555
H11 C17 1_555 1_555
C18 C13 1_555 1_555
H12 C18 1_555 1_555
Pb1F S3 1_555 1_555
Pb1F_2 S1 1_555 1_555
S1F Pb1 1_555 1_555
S3F Pb1 1_555 1_555
N2 C10 1_555 1_555
C2 C3 1_555 1_555
C8 C9 1_555 1_555
C11 C12 1_555 1_555
C17 C18 1_555 1_555
Pb1F S1F 1_555 1_555
Pb1F_2 S3F 1_555 1_555

#END
