
#######################################################################
#
#                 Cambridge Crystallographic Data Centre
#                                CCDC 
#
#######################################################################
#
# If this CIF has been generated from an entry in the Cambridge 
# Structural Database, then it will include bibliographic, chemical, 
# crystal, experimental, refinement or atomic coordinate data resulting 
# from the CCDC's data processing and validation procedures.
#
#######################################################################

data_MOKQIO
_symmetry_cell_setting           monoclinic
_symmetry_space_group_name_H-M   'C 2/c'
_symmetry_Int_Tables_number      15
_space_group_name_Hall           '-C 2yn'
loop_
_symmetry_equiv_pos_site_id
_symmetry_equiv_pos_as_xyz
1 x,y,z
2 -x,y,1/2-z
3 1/2+x,1/2+y,z
4 1/2-x,1/2+y,1/2-z
5 -x,-y,-z
6 x,-y,1/2+z
7 1/2-x,1/2-y,-z
8 1/2+x,1/2-y,1/2+z
_cell_length_a                   25.437(12)
_cell_length_b                   11.469(5)
_cell_length_c                   7.876(4)
_cell_angle_alpha                90
_cell_angle_beta                 91.841(7)
_cell_angle_gamma                90
_cell_volume                     2296.53
loop_
_atom_site_label
_atom_site_type_symbol
_atom_site_fract_x
_atom_site_fract_y
_atom_site_fract_z
Cl1 Cl 0.3082(4) 0.9900(10) 0.2682(14)
Ag1 Ag 0.0000 0.10137(8) 0.2500
N1 N 0.0668(2) 0.0827(5) 0.1025(7)
N2 N 0.1419(2) 0.1223(5) -0.0205(8)
C1 C 0.0913(3) -0.0226(7) 0.0624(8)
C2 C 0.1719(3) -0.0853(7) -0.0685(10)
H1 H 0.2032 -0.0677 -0.1205
C3 C 0.1386(2) 0.0015(7) -0.0135(8)
C4 C 0.0756(3) -0.1363(7) 0.0879(9)
H2 H 0.0435 -0.1533 0.1360
C5 C 0.0985(3) 0.1643(7) 0.0488(9)
H3 H 0.0915 0.2435 0.0582
C6 C 0.1846(3) 0.1927(7) -0.0948(10)
H4 H 0.1704 0.2663 -0.1358
H5 H 0.1988 0.1513 -0.1904
C7 C 0.1094(4) -0.2240(8) 0.0390(10)
H6 H 0.1008 -0.3013 0.0606
C8 C 0.1565(4) -0.1984(8) -0.0430(11)
H7 H 0.1775 -0.2591 -0.0802
C9 C 0.2283(3) 0.2153(7) 0.0382(8)
H8 H 0.2142 0.2579 0.1330
H9 H 0.2420 0.1417 0.0807
N1F N 0.4332(2) 0.4173(5) -0.1025(7)
N2F N 0.3581(2) 0.3777(5) 0.0205(8)
C1F C 0.4087(3) 0.5226(7) -0.0624(8)
C2F C 0.3281(3) 0.5853(7) 0.0685(10)
H1F H 0.2968 0.5677 0.1205
C3F C 0.3614(2) 0.4985(7) 0.0135(8)
C4F C 0.4244(3) 0.6363(7) -0.0879(9)
H2F H 0.4565 0.6533 -0.1360
C5F C 0.4015(3) 0.3357(7) -0.0488(9)
H3F H 0.4085 0.2565 -0.0582
C6F C 0.3154(3) 0.3073(7) 0.0948(10)
H4F H 0.3296 0.2337 0.1358
H5F H 0.3012 0.3487 0.1904
C7F C 0.3906(4) 0.7240(8) -0.0390(10)
H6F H 0.3992 0.8013 -0.0606
C8F C 0.3435(4) 0.6984(8) 0.0430(11)
H7F H 0.3225 0.7591 0.0802
C9F C 0.2717(3) 0.2847(7) -0.0382(8)
H8F H 0.2858 0.2421 -0.1330
H9F H 0.2580 0.3583 -0.0807
Ag1F Ag 0.5000 0.39863(8) -0.2500
N1A N -0.0668(2) 0.0827(5) 0.3975(7)
loop_
_geom_bond_atom_site_label_1
_geom_bond_atom_site_label_2
_geom_bond_site_symmetry_1
_geom_bond_site_symmetry_2
Ag1 N1 1_555 1_555
N1 C1 1_555 1_555
N2 C3 1_555 1_555
C1 C3 1_555 1_555
C2 H1 1_555 1_555
C3 C2 1_555 1_555
C4 C1 1_555 1_555
H2 C4 1_555 1_555
C5 N1 1_555 1_555
H3 C5 1_555 1_555
C6 N2 1_555 1_555
H4 C6 1_555 1_555
H5 C6 1_555 1_555
C7 C4 1_555 1_555
H6 C7 1_555 1_555
C8 C2 1_555 1_555
H7 C8 1_555 1_555
C9 C6 1_555 1_555
H8 C9 1_555 1_555
H9 C9 1_555 1_555
N1F C1F 1_555 1_555
N2F C3F 1_555 1_555
C1F C3F 1_555 1_555
C2F H1F 1_555 1_555
C3F C2F 1_555 1_555
C4F C1F 1_555 1_555
H2F C4F 1_555 1_555
C5F N1F 1_555 1_555
H3F C5F 1_555 1_555
C6F N2F 1_555 1_555
H4F C6F 1_555 1_555
H5F C6F 1_555 1_555
C7F C4F 1_555 1_555
H6F C7F 1_555 1_555
C8F C2F 1_555 1_555
H7F C8F 1_555 1_555
C9F C9 1_555 1_555
H8F C9F 1_555 1_555
H9F C9F 1_555 1_555
Ag1F N1F 1_555 1_555
N1A Ag1 1_555 1_555
N2 C5 1_555 1_555
C7 C8 1_555 1_555
N2F C5F 1_555 1_555
C6F C9F 1_555 1_555
C7F C8F 1_555 1_555

#END
