
#######################################################################
#
#                 Cambridge Crystallographic Data Centre
#                                CCDC 
#
#######################################################################
#
# If this CIF has been generated from an entry in the Cambridge 
# Structural Database, then it will include bibliographic, chemical, 
# crystal, experimental, refinement or atomic coordinate data resulting 
# from the CCDC's data processing and validation procedures.
#
#######################################################################

data_MOKQAG
_symmetry_cell_setting           monoclinic
_symmetry_space_group_name_H-M   'C 2/c'
_symmetry_Int_Tables_number      15
_space_group_name_Hall           '-C 2yn'
loop_
_symmetry_equiv_pos_site_id
_symmetry_equiv_pos_as_xyz
1 x,y,z
2 -x,y,1/2-z
3 1/2+x,1/2+y,z
4 1/2-x,1/2+y,1/2-z
5 -x,-y,-z
6 x,-y,1/2+z
7 1/2-x,1/2-y,-z
8 1/2+x,1/2-y,1/2+z
_cell_length_a                   16.927(3)
_cell_length_b                   7.5639(15)
_cell_length_c                   9.2316(18)
_cell_angle_alpha                90
_cell_angle_beta                 93.42(3)
_cell_angle_gamma                90
_cell_volume                     1179.85
loop_
_atom_site_label
_atom_site_type_symbol
_atom_site_fract_x
_atom_site_fract_y
_atom_site_fract_z
N1 N 0.5789(7) 0.7165(11) 0.3976(10)
N2 N 0.5935(13) 0.5387(11) 0.420(2)
N3 N 0.6632(5) 0.6885(13) 0.5863(9)
O1 O 0.5000 1.3043(14) 0.2500
H1 H 0.470(6) 1.385(13) 0.198(10)
S1 S 0.6205(3) 1.0321(3) 0.5211(5)
Pb1 Pb 0.5000 0.96455(5) 0.2500
C1 C 0.6195(6) 0.8026(14) 0.4997(10)
C2 C 0.6430(15) 0.5255(17) 0.531(2)
H2 H 0.6624 0.4191 0.5695
C3 C 0.7152(7) 0.7247(14) 0.7075(12)
H3 H 0.7534 0.8110 0.6817
H4 H 0.7418 0.6179 0.7384
H5 H 0.6856 0.7697 0.7851
H1A H 0.530(6) 1.385(13) 0.302(10)
N1A N 0.4211(7) 0.7165(11) 0.1024(10)
N2A N 0.4065(13) 0.5387(11) 0.080(2)
N3A N 0.3368(5) 0.6885(13) -0.0863(9)
S1A S 0.3795(3) 1.0321(3) -0.0211(5)
C1A C 0.3805(6) 0.8026(14) 0.0003(10)
C2A C 0.3570(15) 0.5255(17) -0.031(2)
H2A H 0.3376 0.4191 -0.0695
C3A C 0.2848(7) 0.7247(14) -0.2075(12)
H3A H 0.2466 0.8110 -0.1817
H4A H 0.2582 0.6179 -0.2384
H5A H 0.3144 0.7697 -0.2851
S1D S 0.3795(3) 0.9679(3) 0.4789(5)
S1E S 0.6205(3) 0.9679(3) 0.0211(5)
Pb1D Pb 0.5000 1.03545(5) -0.2500
Pb1D_2 Pb 0.5000 1.03545(5) 0.7500
loop_
_geom_bond_atom_site_label_1
_geom_bond_atom_site_label_2
_geom_bond_site_symmetry_1
_geom_bond_site_symmetry_2
N1 N2 1_555 1_555
N2 C2 1_555 1_555
N3 C1 1_555 1_555
O1 H1 1_555 1_555
S1 Pb1 1_555 1_555
Pb1 N1 1_555 1_555
C1 N1 1_555 1_555
C2 N3 1_555 1_555
H2 C2 1_555 1_555
C3 N3 1_555 1_555
H3 C3 1_555 1_555
H4 C3 1_555 1_555
H5 C3 1_555 1_555
H1A O1 1_555 1_555
N1A Pb1 1_555 1_555
N2A N1A 1_555 1_555
N3A C1A 1_555 1_555
S1A Pb1 1_555 1_555
C1A N1A 1_555 1_555
C2A N2A 1_555 1_555
H2A C2A 1_555 1_555
C3A N3A 1_555 1_555
H3A C3A 1_555 1_555
H4A C3A 1_555 1_555
H5A C3A 1_555 1_555
S1D Pb1 1_555 1_555
S1E Pb1 1_555 1_555
Pb1D S1A 1_555 1_555
Pb1D_2 S1 1_555 1_555
O1 Pb1 1_555 1_555
S1 C1 1_555 1_555
N3A C2A 1_555 1_555
S1A C1A 1_555 1_555
S1D Pb1D_2 1_555 1_555
S1E Pb1D 1_555 1_555

#END
