
#######################################################################
#
#                 Cambridge Crystallographic Data Centre
#                                CCDC 
#
#######################################################################
#
# If this CIF has been generated from an entry in the Cambridge 
# Structural Database, then it will include bibliographic, chemical, 
# crystal, experimental, refinement or atomic coordinate data resulting 
# from the CCDC's data processing and validation procedures.
#
#######################################################################

data_MOKREL
_symmetry_cell_setting           triclinic
_symmetry_space_group_name_H-M   'P -1'
_symmetry_Int_Tables_number      2
_space_group_name_Hall           '-P 1'
loop_
_symmetry_equiv_pos_site_id
_symmetry_equiv_pos_as_xyz
1 x,y,z
2 -x,-y,-z
_cell_length_a                   9.4497(3)
_cell_length_b                   10.1253(3)
_cell_length_c                   13.6282(5)
_cell_angle_alpha                87.028(3)
_cell_angle_beta                 83.596(3)
_cell_angle_gamma                82.969(3)
_cell_volume                     1285.11
loop_
_atom_site_label
_atom_site_type_symbol
_atom_site_fract_x
_atom_site_fract_y
_atom_site_fract_z
C1 C 0.6910(2) 0.5074(2) 0.18368(18)
H1 H 0.6661 0.5942 0.2042
C2 C 0.6022(2) 0.4532(2) 0.12512(19)
H2 H 0.5197 0.5037 0.1067
C3 C 0.6369(2) 0.3258(2) 0.09503(18)
H3 H 0.5791 0.2899 0.0550
C4 C 0.7593(2) 0.2496(2) 0.12445(17)
C5 C 0.8004(2) 0.1097(2) 0.10191(17)
C6 C 0.7630(2) -0.0780(2) 0.02759(18)
C7 C 0.6846(2) -0.1460(2) -0.03274(19)
H4 H 0.6037 -0.1019 -0.0583
C8 C 0.7283(2) -0.2758(2) -0.05299(19)
H5 H 0.6768 -0.3196 -0.0929
C9 C 0.8495(2) -0.3450(2) -0.01488(19)
H6 H 0.8776 -0.4335 -0.0303
C10 C 0.9268(2) -0.2840(2) 0.04465(18)
H7 H 1.0060 -0.3309 0.0706
C11 C 0.8853(2) -0.1493(2) 0.06630(17)
C12 C 0.9228(2) 0.0378(2) 0.14075(17)
C13 C 1.0070(2) 0.1048(2) 0.20269(17)
C14 C 1.1225(2) 0.0384(2) 0.24847(19)
H8 H 1.1498 -0.0521 0.2405
C15 C 1.1947(2) 0.1098(3) 0.30532(19)
H9 H 1.2697 0.0672 0.3382
C16 C 1.1557(2) 0.2453(2) 0.31369(19)
H10 H 1.2086 0.2929 0.3499
C17 C 0.9706(2) 0.2390(2) 0.21820(17)
C18 C 0.8429(2) 0.3116(2) 0.18242(16)
C19 C 0.3336(2) 0.6745(2) 0.26865(18)
C20 C 0.3876(2) 0.6616(2) 0.36005(19)
H11 H 0.3531 0.6017 0.4083
C21 C 0.4927(2) 0.7381(2) 0.37886(19)
H12 H 0.5309 0.7260 0.4391
C22 C 0.5422(2) 0.8315(2) 0.31089(18)
C23 C 0.4874(2) 0.8443(2) 0.22008(19)
H13 H 0.5189 0.9069 0.1729
C24 C 0.3861(2) 0.7649(2) 0.19893(18)
H14 H 0.3531 0.7726 0.1369
C25 C 0.6413(2) 0.9236(2) 0.33985(18)
C26 C 0.7659(2) 0.8779(2) 0.38320(18)
C27 C 0.8389(3) 0.9687(3) 0.4249(2)
H15 H 0.9198 0.9377 0.4563
C28 C 0.7943(3) 1.1026(3) 0.4208(2)
H16 H 0.8442 1.1615 0.4495
C29 C 0.6760(3) 1.1491(3) 0.3743(2)
H17 H 0.6469 1.2401 0.3698
C30 C 0.5997(3) 1.0608(2) 0.3340(2)
H18 H 0.5193 1.0933 0.3026
C31 C 0.2137(2) 0.5968(2) 0.2479(2)
C32 C 0.8277(2) 0.7350(2) 0.3872(2)
N1 N 0.80989(18) 0.43843(17) 0.21084(14)
N2 N 1.04520(18) 0.30998(18) 0.27194(14)
N3 N 0.72094(18) 0.05180(18) 0.04617(14)
N4 N 0.96456(18) -0.08885(18) 0.12323(14)
O1 O 0.13274(17) 0.56084(17) 0.32356(14)
O2 O 0.19997(18) 0.57395(17) 0.16213(14)
O3 O 0.8729(2) 0.4191(2) 0.44785(14)
O4 O 0.84486(15) 0.67256(15) 0.30793(12)
O5 O 0.8631(2) 0.68687(17) 0.46792(14)
Cu1 Cu 0.95674(3) 0.49841(3) 0.29273(2)
H19 H 0.935(3) 0.380(3) 0.486(2)
H20 H 0.848(3) 0.503(3) 0.469(2)
O1_2 O 1.13274(17) 0.56084(17) 0.32356(14)
Cu1_2 Cu -0.04326(3) 0.49841(3) 0.29273(2)
loop_
_geom_bond_atom_site_label_1
_geom_bond_atom_site_label_2
_geom_bond_site_symmetry_1
_geom_bond_site_symmetry_2
C1 H1 1_555 1_555
C2 C1 1_555 1_555
H2 C2 1_555 1_555
C3 C2 1_555 1_555
H3 C3 1_555 1_555
C4 C3 1_555 1_555
C5 C4 1_555 1_555
C6 C7 1_555 1_555
C7 H4 1_555 1_555
C8 C7 1_555 1_555
H5 C8 1_555 1_555
C9 C8 1_555 1_555
H6 C9 1_555 1_555
C10 C9 1_555 1_555
H7 C10 1_555 1_555
C11 C6 1_555 1_555
C12 C5 1_555 1_555
C13 C12 1_555 1_555
C14 C13 1_555 1_555
H8 C14 1_555 1_555
C15 C14 1_555 1_555
H9 C15 1_555 1_555
C16 C15 1_555 1_555
H10 C16 1_555 1_555
C17 C13 1_555 1_555
C18 C4 1_555 1_555
C19 C20 1_555 1_555
C20 H11 1_555 1_555
C21 C20 1_555 1_555
H12 C21 1_555 1_555
C22 C21 1_555 1_555
C23 C22 1_555 1_555
H13 C23 1_555 1_555
C24 C19 1_555 1_555
H14 C24 1_555 1_555
C25 C22 1_555 1_555
C26 C25 1_555 1_555
C27 C26 1_555 1_555
H15 C27 1_555 1_555
C28 C27 1_555 1_555
H16 C28 1_555 1_555
C29 C28 1_555 1_555
H17 C29 1_555 1_555
C30 C25 1_555 1_555
H18 C30 1_555 1_555
C31 C19 1_555 1_555
C32 C26 1_555 1_555
N1 C1 1_555 1_555
N2 C16 1_555 1_555
N3 C5 1_555 1_555
N4 C11 1_555 1_555
O1 C31 1_555 1_555
O2 C31 1_555 1_555
O3 Cu1 1_555 1_555
O4 C32 1_555 1_555
O5 C32 1_555 1_555
Cu1 N1 1_555 1_555
H19 O3 1_555 1_555
H20 O3 1_555 1_555
O1_2 Cu1 1_555 1_555
Cu1_2 O1 1_555 1_555
C6 N3 1_555 1_555
C10 C11 1_555 1_555
C12 N4 1_555 1_555
C17 C18 1_555 1_555
C17 N2 1_555 1_555
C18 N1 1_555 1_555
C23 C24 1_555 1_555
C29 C30 1_555 1_555
N2 Cu1 1_555 1_555
O4 Cu1 1_555 1_555

#END
