
#######################################################################
#
#                 Cambridge Crystallographic Data Centre
#                                CCDC 
#
#######################################################################
#
# If this CIF has been generated from an entry in the Cambridge 
# Structural Database, then it will include bibliographic, chemical, 
# crystal, experimental, refinement or atomic coordinate data resulting 
# from the CCDC's data processing and validation procedures.
#
#######################################################################

data_MOKRIP
_symmetry_cell_setting           triclinic
_symmetry_space_group_name_H-M   'P -1'
_symmetry_Int_Tables_number      2
_space_group_name_Hall           '-P 1'
loop_
_symmetry_equiv_pos_site_id
_symmetry_equiv_pos_as_xyz
1 x,y,z
2 -x,-y,-z
_cell_length_a                   9.1846(18)
_cell_length_b                   10.407(2)
_cell_length_c                   13.755(3)
_cell_angle_alpha                81.59(3)
_cell_angle_beta                 81.47(3)
_cell_angle_gamma                85.61(3)
_cell_volume                     1284.21
loop_
_atom_site_label
_atom_site_type_symbol
_atom_site_fract_x
_atom_site_fract_y
_atom_site_fract_z
C1 C 0.5175(3) 0.2656(3) 0.6086(2)
H1 H 0.5360 0.3267 0.5523
C2 C 0.3741(3) 0.2586(3) 0.6570(2)
H2 H 0.2987 0.3143 0.6341
C3 C 0.3458(3) 0.1677(3) 0.7393(2)
H3 H 0.2504 0.1610 0.7727
C4 C 0.4599(3) 0.0857(3) 0.77283(19)
C5 C 0.4372(3) -0.0159(3) 0.85837(18)
C6 C 0.2856(3) -0.1255(3) 0.9845(2)
C7 C 0.1414(3) -0.1453(3) 1.0375(2)
H4 H 0.0591 -0.0992 1.0152
C8 C 0.1271(4) -0.2343(3) 1.1223(2)
H5 H 0.0345 -0.2445 1.1594
C9 C 0.2461(4) -0.3086(3) 1.1537(2)
H6 H 0.2314 -0.3699 1.2101
C10 C 0.3861(4) -0.2942(3) 1.1038(2)
H7 H 0.4659 -0.3442 1.1263
C11 C 0.4064(3) -0.2009(3) 1.01663(19)
C12 C 0.5590(3) -0.0948(3) 0.88816(18)
C13 C 0.7074(3) -0.0786(3) 0.83330(19)
C14 C 0.8306(3) -0.1567(3) 0.8573(2)
H8 H 0.8221 -0.2217 0.9116
C15 C 0.9645(3) -0.1369(3) 0.7999(2)
H9 H 1.0478 -0.1884 0.8145
C16 C 0.9736(3) -0.0385(3) 0.7196(2)
H10 H 1.0647 -0.0260 0.6809
C17 C 0.7263(3) 0.0189(2) 0.75040(18)
C18 C 0.6019(3) 0.1013(2) 0.72024(18)
C19 C 1.1833(3) 0.1102(3) 0.48511(19)
C20 C 1.8101(3) 0.3964(3) 0.38642(19)
C21 C 1.3086(3) 0.1826(2) 0.42381(18)
C22 C 1.2889(3) 0.3134(3) 0.3884(2)
H11 H 1.1980 0.3572 0.4032
C23 C 1.4045(3) 0.3792(3) 0.3311(2)
H12 H 1.3900 0.4667 0.3069
C24 C 1.5419(3) 0.3158(3) 0.30937(18)
C25 C 1.5613(3) 0.1849(3) 0.34525(19)
H13 H 1.6524 0.1410 0.3315
C26 C 1.4447(3) 0.1195(2) 0.40173(19)
H14 H 1.4584 0.0315 0.4251
C27 C 1.6637(3) 0.3874(3) 0.24422(19)
C28 C 1.6496(4) 0.4213(3) 0.1434(2)
H15 H 1.5671 0.3983 0.1195
C29 C 1.7570(4) 0.4886(4) 0.0791(2)
H16 H 1.7473 0.5091 0.0122
C30 C 1.8775(4) 0.5249(4) 0.1138(2)
H17 H 1.9497 0.5700 0.0705
C31 C 1.8920(3) 0.4947(3) 0.2134(2)
H18 H 1.9733 0.5213 0.2367
C32 C 1.7868(3) 0.4252(3) 0.27899(19)
N1 N 0.6296(2) 0.1896(2) 0.63855(16)
N2 N 0.8590(2) 0.0383(2) 0.69516(16)
N3 N 0.3008(2) -0.0314(2) 0.90415(17)
N4 N 0.5450(3) -0.1865(2) 0.96732(16)
O1 O 1.0737(2) 0.1789(2) 0.51739(17)
O2 O 1.1960(2) -0.01042(18) 0.50344(14)
O3 O 0.8883(3) 0.3667(2) 0.60655(16)
O4 O 1.8446(3) 0.4876(2) 0.42623(16)
O5 O 1.7969(3) 0.2824(2) 0.42674(15)
Fe1 Fe 0.85401(4) 0.17498(4) 0.55704(3)
H19 H 0.869(4) 0.413(4) 0.557(3)
H20 H 0.984(4) 0.370(4) 0.608(3)
O2A O 0.8040(2) 0.01042(18) 0.49656(14)
O5_2 O 0.7969(3) 0.2824(2) 0.42674(15)
Fe1_2 Fe 1.85401(4) 0.17498(4) 0.55704(3)
Fe1A Fe 1.14599(4) -0.17498(4) 0.44296(3)
loop_
_geom_bond_atom_site_label_1
_geom_bond_atom_site_label_2
_geom_bond_site_symmetry_1
_geom_bond_site_symmetry_2
C1 H1 1_555 1_555
C2 C1 1_555 1_555
H2 C2 1_555 1_555
C3 C2 1_555 1_555
H3 C3 1_555 1_555
C4 C3 1_555 1_555
C5 C4 1_555 1_555
C6 C7 1_555 1_555
C7 H4 1_555 1_555
C8 C7 1_555 1_555
H5 C8 1_555 1_555
C9 C8 1_555 1_555
H6 C9 1_555 1_555
C10 C9 1_555 1_555
H7 C10 1_555 1_555
C11 C6 1_555 1_555
C12 C5 1_555 1_555
C13 C12 1_555 1_555
C14 C13 1_555 1_555
H8 C14 1_555 1_555
C15 C14 1_555 1_555
H9 C15 1_555 1_555
C16 C15 1_555 1_555
H10 C16 1_555 1_555
C17 C13 1_555 1_555
C18 C4 1_555 1_555
C19 C21 1_555 1_555
C20 C32 1_555 1_555
C21 C22 1_555 1_555
C22 H11 1_555 1_555
C23 C22 1_555 1_555
H12 C23 1_555 1_555
C24 C23 1_555 1_555
C25 C24 1_555 1_555
H13 C25 1_555 1_555
C26 C21 1_555 1_555
H14 C26 1_555 1_555
C27 C24 1_555 1_555
C28 C27 1_555 1_555
H15 C28 1_555 1_555
C29 C28 1_555 1_555
H16 C29 1_555 1_555
C30 C29 1_555 1_555
H17 C30 1_555 1_555
C31 C30 1_555 1_555
H18 C31 1_555 1_555
C32 C27 1_555 1_555
N1 C1 1_555 1_555
N2 C16 1_555 1_555
N3 C5 1_555 1_555
N4 C11 1_555 1_555
O1 C19 1_555 1_555
O2 C19 1_555 1_555
O3 Fe1 1_555 1_555
O4 C20 1_555 1_555
O5 C20 1_555 1_555
Fe1 N1 1_555 1_555
H19 O3 1_555 1_555
H20 O3 1_555 1_555
O2A Fe1 1_555 1_555
O5_2 Fe1 1_555 1_555
Fe1_2 O5 1_555 1_555
Fe1A O2 1_555 1_555
C6 N3 1_555 1_555
C10 C11 1_555 1_555
C12 N4 1_555 1_555
C17 C18 1_555 1_555
C17 N2 1_555 1_555
C18 N1 1_555 1_555
C25 C26 1_555 1_555
C31 C32 1_555 1_555
N2 Fe1 1_555 1_555
O1 Fe1 1_555 1_555

#END
