
#######################################################################
#
#                 Cambridge Crystallographic Data Centre
#                                CCDC 
#
#######################################################################
#
# If this CIF has been generated from an entry in the Cambridge 
# Structural Database, then it will include bibliographic, chemical, 
# crystal, experimental, refinement or atomic coordinate data resulting 
# from the CCDC's data processing and validation procedures.
#
#######################################################################

data_MOKSOW
_symmetry_cell_setting           triclinic
_symmetry_space_group_name_H-M   'P -1'
_symmetry_Int_Tables_number      2
_space_group_name_Hall           '-P 1'
loop_
_symmetry_equiv_pos_site_id
_symmetry_equiv_pos_as_xyz
1 x,y,z
2 -x,-y,-z
_cell_length_a                   12.6854(4)
_cell_length_b                   12.9595(5)
_cell_length_c                   13.3088(6)
_cell_angle_alpha                118.727(4)
_cell_angle_beta                 108.227(3)
_cell_angle_gamma                97.557(3)
_cell_volume                     1714.86
loop_
_atom_site_label
_atom_site_type_symbol
_atom_site_fract_x
_atom_site_fract_y
_atom_site_fract_z
Cd1 Cd 0.198404(16) 0.104785(17) 0.397363(17)
C1 C 0.0967(2) -0.3918(3) 0.2120(3)
C2 C 0.1546(2) -0.2938(2) 0.2101(2)
C3 C 0.2189(2) -0.3179(3) 0.1381(3)
H1 H 0.2614 -0.2528 0.1392
C4 C 0.2204(3) -0.4375(3) 0.0651(3)
C5 C 0.1601(3) -0.5340(3) 0.0629(3)
H2 H 0.1590 -0.6147 0.0116
C6 C 0.1014(3) -0.5103(3) 0.1371(3)
H3 H 0.0627 -0.5759 0.1379
C7 C 0.4272(2) -0.7402(3) -0.0934(3)
C8 C 0.3444(3) -0.7395(3) -0.1918(3)
C9 C 0.2955(3) -0.6440(3) -0.1598(3)
H4 H 0.2398 -0.6430 -0.2241
C10 C 0.3286(3) -0.5513(3) -0.0346(3)
C11 C 0.4095(3) -0.5505(3) 0.0615(3)
H5 H 0.4329 -0.4869 0.1458
C12 C 0.4563(3) -0.6459(3) 0.0313(3)
H6 H 0.5093 -0.6471 0.0970
C13 C 0.1549(3) -0.1604(3) 0.2782(3)
C14 C 0.0327(3) -0.3881(4) 0.2933(4)
C15 C 0.4919(3) -0.8319(3) -0.1042(3)
C16 C 0.3045(3) -0.8325(3) -0.3330(3)
C17 C -0.0671(3) 0.0778(3) 0.3775(3)
H7 H -0.0400 0.0580 0.4373
C18 C -0.1782(3) 0.0870(3) 0.3452(4)
H8 H -0.2249 0.0729 0.3821
C19 C -0.2186(3) 0.1168(3) 0.2590(4)
H9 H -0.2928 0.1247 0.2376
C20 C -0.1488(2) 0.1355(3) 0.2022(3)
C21 C -0.1850(3) 0.1634(3) 0.1077(4)
H10 H -0.2579 0.1736 0.0839
C22 C -0.1166(4) 0.1750(3) 0.0527(4)
H11 H -0.1437 0.1920 -0.0094
C23 C -0.0034(3) 0.1620(2) 0.0864(3)
C24 C 0.0707(4) 0.1685(3) 0.0286(3)
H12 H 0.0464 0.1826 -0.0359
C25 C 0.1765(3) 0.1546(3) 0.0657(3)
H13 H 0.2257 0.1600 0.0280
C26 C 0.2114(3) 0.1320(2) 0.1617(3)
H14 H 0.2845 0.1225 0.1870
C27 C 0.0378(2) 0.1381(2) 0.1813(3)
C28 C -0.0368(2) 0.1238(2) 0.2398(3)
C29 C 0.1783(3) 0.3970(3) 0.5454(3)
H15 H 0.0999 0.3530 0.5168
C30 C 0.2149(3) 0.5271(3) 0.6163(3)
H16 H 0.1621 0.5684 0.6344
C31 C 0.3290(3) 0.5928(3) 0.6585(3)
H17 H 0.3547 0.6797 0.7044
C32 C 0.4078(2) 0.5288(2) 0.6325(2)
C33 C 0.5297(3) 0.5917(3) 0.6760(3)
H18 H 0.5586 0.6786 0.7221
C34 C 0.6029(3) 0.5272(3) 0.6512(3)
H19 H 0.6819 0.5705 0.6814
C35 C 0.5620(2) 0.3930(3) 0.5792(2)
C36 C 0.6352(3) 0.3226(3) 0.5513(3)
H20 H 0.7147 0.3624 0.5797
C37 C 0.5904(3) 0.1965(3) 0.4831(3)
H21 H 0.6391 0.1491 0.4661
C38 C 0.4707(3) 0.1383(3) 0.4387(3)
H22 H 0.4406 0.0514 0.3909
C39 C 0.4422(2) 0.3279(2) 0.5323(2)
C40 C 0.3638(2) 0.3974(2) 0.5605(2)
O1 O 0.2253(2) -0.08079(19) 0.2844(2)
O2 O 0.0803(3) -0.1346(2) 0.3209(3)
O3 O -0.0091(3) -0.3000(3) 0.3388(3)
H23 H 0.0138 -0.2471 0.3229
O4 O 0.0199(3) -0.4690(3) 0.3127(4)
O5 O 0.2088(2) -0.8444(2) -0.4070(2)
O6 O 0.3710(2) -0.8904(2) -0.3712(2)
O7 O 0.5299(2) -0.8458(3) -0.0172(3)
O8 O 0.5082(2) -0.8937(2) -0.2038(2)
H24 H 0.4693 -0.8783 -0.2566
O9 O 0.2803(2) -0.4557(2) -0.0095(2)
N1 N 0.14391(18) 0.12376(19) 0.21785(19)
N2 N 0.00279(18) 0.0959(2) 0.3273(2)
N3 N 0.24842(19) 0.3329(2) 0.5165(2)
N4 N 0.39769(18) 0.2016(2) 0.4617(2)
Cd1_2 Cd 0.198404(16) -0.895215(17) -0.602637(17)
O5_2 O 0.2088(2) 0.1556(2) 0.5930(2)
O10 O 0.4665(2) 0.1089(2) 1.1468(3)
H25 H 0.4569 0.0322 1.1179
H26 H 0.4341 0.1033 1.0821
loop_
_geom_bond_atom_site_label_1
_geom_bond_atom_site_label_2
_geom_bond_site_symmetry_1
_geom_bond_site_symmetry_2
Cd1 O1 1_555 1_555
C1 C2 1_555 1_555
C2 C3 1_555 1_555
C3 H1 1_555 1_555
C4 C3 1_555 1_555
C5 C4 1_555 1_555
H2 C5 1_555 1_555
C6 C1 1_555 1_555
H3 C6 1_555 1_555
C7 C8 1_555 1_555
C8 C9 1_555 1_555
C9 H4 1_555 1_555
C10 C9 1_555 1_555
C11 C10 1_555 1_555
H5 C11 1_555 1_555
C12 C7 1_555 1_555
H6 C12 1_555 1_555
C13 C2 1_555 1_555
C14 C1 1_555 1_555
C15 C7 1_555 1_555
C16 C8 1_555 1_555
C17 H7 1_555 1_555
C18 C17 1_555 1_555
H8 C18 1_555 1_555
C19 C18 1_555 1_555
H9 C19 1_555 1_555
C20 C19 1_555 1_555
C21 C20 1_555 1_555
H10 C21 1_555 1_555
C22 C21 1_555 1_555
H11 C22 1_555 1_555
C23 C22 1_555 1_555
C24 C23 1_555 1_555
H12 C24 1_555 1_555
C25 C24 1_555 1_555
H13 C25 1_555 1_555
C26 C25 1_555 1_555
H14 C26 1_555 1_555
C27 C23 1_555 1_555
C28 C20 1_555 1_555
C29 H15 1_555 1_555
C30 C29 1_555 1_555
H16 C30 1_555 1_555
C31 C30 1_555 1_555
H17 C31 1_555 1_555
C32 C31 1_555 1_555
C33 C32 1_555 1_555
H18 C33 1_555 1_555
C34 C33 1_555 1_555
H19 C34 1_555 1_555
C35 C34 1_555 1_555
C36 C35 1_555 1_555
H20 C36 1_555 1_555
C37 C36 1_555 1_555
H21 C37 1_555 1_555
C38 C37 1_555 1_555
H22 C38 1_555 1_555
C39 C35 1_555 1_555
C40 C32 1_555 1_555
O1 C13 1_555 1_555
O2 Cd1 1_555 1_555
O3 C14 1_555 1_555
H23 O3 1_555 1_555
O4 C14 1_555 1_555
O5 C16 1_555 1_555
O6 C16 1_555 1_555
O7 C15 1_555 1_555
O8 C15 1_555 1_555
H24 O8 1_555 1_555
O9 C4 1_555 1_555
N1 Cd1 1_555 1_555
N2 Cd1 1_555 1_555
N3 Cd1 1_555 1_555
N4 Cd1 1_555 1_555
O10 H25 1_555 1_555
H26 O10 1_555 1_555
Cd1_2 O5 1_555 1_555
O5_2 Cd1 1_555 1_555
C5 C6 1_555 1_555
C10 O9 1_555 1_555
C11 C12 1_555 1_555
C13 O2 1_555 1_555
C17 N2 1_555 1_555
C26 N1 1_555 1_555
C27 C28 1_555 1_555
C27 N1 1_555 1_555
C28 N2 1_555 1_555
C29 N3 1_555 1_555
C38 N4 1_555 1_555
C39 C40 1_555 1_555
C39 N4 1_555 1_555
C40 N3 1_555 1_555

#END
