
#######################################################################
#
#                 Cambridge Crystallographic Data Centre
#                                CCDC 
#
#######################################################################
#
# If this CIF has been generated from an entry in the Cambridge 
# Structural Database, then it will include bibliographic, chemical, 
# crystal, experimental, refinement or atomic coordinate data resulting 
# from the CCDC's data processing and validation procedures.
#
#######################################################################

data_MOKTAI
_symmetry_cell_setting           triclinic
_symmetry_space_group_name_H-M   'P -1'
_symmetry_Int_Tables_number      2
_space_group_name_Hall           '-P 1'
loop_
_symmetry_equiv_pos_site_id
_symmetry_equiv_pos_as_xyz
1 x,y,z
2 -x,-y,-z
_cell_length_a                   7.8769(16)
_cell_length_b                   8.8723(18)
_cell_length_c                   11.130(2)
_cell_angle_alpha                102.88(3)
_cell_angle_beta                 98.22(3)
_cell_angle_gamma                109.70(3)
_cell_volume                     693.429
loop_
_atom_site_label
_atom_site_type_symbol
_atom_site_fract_x
_atom_site_fract_y
_atom_site_fract_z
Hg1 Hg 0.53129(6) 0.42782(5) 0.29481(4)
C1 C 0.718(2) 0.3400(16) 0.0518(11)
H1 H 0.7012 0.4385 0.0506
C2 C 0.771(2) 0.2638(18) -0.0485(13)
H2 H 0.7853 0.3076 -0.1166
C3 C 0.8018(18) 0.1208(17) -0.0466(11)
H3 H 0.8425 0.0680 -0.1117
C4 C 0.7708(16) 0.0572(14) 0.0550(10)
H4 H 0.7854 -0.0420 0.0571
C5 C 0.7180(13) 0.1428(12) 0.1533(9)
C6 C 0.687(2) 0.0873(15) 0.2679(12)
H5 H 0.7502 0.1829 0.3426
H6 H 0.5549 0.0495 0.2650
C7 C 0.9273(15) -0.0380(12) 0.3215(9)
C8 C 1.0996(16) 0.0931(14) 0.3644(11)
H7 H 1.1147 0.2030 0.3691
C9 C 1.2472(18) 0.0486(16) 0.3997(11)
H8 H 1.3655 0.1322 0.4295
C10 C 1.2270(17) -0.1176(15) 0.3929(10)
H9 H 1.3308 -0.1406 0.4187
C11 C 1.0565(17) -0.2445(15) 0.3487(10)
H10 H 1.0420 -0.3549 0.3412
C12 C 0.9041(15) -0.2025(12) 0.3151(10)
N1 N 0.6897(12) 0.2840(10) 0.1506(8)
N2 N 0.7492(13) -0.0457(11) 0.2813(8)
N3 N 0.6292(13) -0.2019(11) 0.2552(9)
N4 N 0.7158(13) -0.2982(11) 0.2734(9)
Cl1 Cl 0.7113(4) 0.4535(4) 0.4912(3)
Cl2 Cl 0.2573(5) 0.3545(4) 0.1442(3)
Hg1_2 Hg 0.53129(6) -0.57218(5) 0.29481(4)
N4_2 N 0.7158(13) 0.7018(11) 0.2734(9)
loop_
_geom_bond_atom_site_label_1
_geom_bond_atom_site_label_2
_geom_bond_site_symmetry_1
_geom_bond_site_symmetry_2
Hg1 N1 1_555 1_555
C1 H1 1_555 1_555
C2 C1 1_555 1_555
H2 C2 1_555 1_555
C3 C2 1_555 1_555
H3 C3 1_555 1_555
C4 C3 1_555 1_555
H4 C4 1_555 1_555
C5 C4 1_555 1_555
C6 C5 1_555 1_555
H5 C6 1_555 1_555
H6 C6 1_555 1_555
C7 C8 1_555 1_555
C8 H7 1_555 1_555
C9 C8 1_555 1_555
H8 C9 1_555 1_555
C10 C9 1_555 1_555
H9 C10 1_555 1_555
C11 C10 1_555 1_555
H10 C11 1_555 1_555
C12 C7 1_555 1_555
N1 C1 1_555 1_555
N2 C6 1_555 1_555
N3 N2 1_555 1_555
N4 C12 1_555 1_555
Cl1 Hg1 1_555 1_555
Cl2 Hg1 1_555 1_555
Hg1_2 N4 1_555 1_555
N4_2 Hg1 1_555 1_555
C5 N1 1_555 1_555
C7 N2 1_555 1_555
C11 C12 1_555 1_555
N3 N4 1_555 1_555

#END
