
#######################################################################
#
#                 Cambridge Crystallographic Data Centre
#                                CCDC 
#
#######################################################################
#
# If this CIF has been generated from an entry in the Cambridge 
# Structural Database, then it will include bibliographic, chemical, 
# crystal, experimental, refinement or atomic coordinate data resulting 
# from the CCDC's data processing and validation procedures.
#
#######################################################################

data_MOKTEN01
_symmetry_cell_setting           orthorhombic
_symmetry_space_group_name_H-M   'P c c n'
_symmetry_Int_Tables_number      56
_space_group_name_Hall           '-P 2ab 2ac'
loop_
_symmetry_equiv_pos_site_id
_symmetry_equiv_pos_as_xyz
1 x,y,z
2 1/2-x,1/2-y,z
3 1/2+x,-y,1/2-z
4 -x,1/2+y,1/2-z
5 -x,-y,-z
6 1/2+x,1/2+y,-z
7 1/2-x,y,1/2+z
8 x,1/2-y,1/2+z
_cell_length_a                   18.277(2)
_cell_length_b                   8.9567(11)
_cell_length_c                   17.046(2)
_cell_angle_alpha                90
_cell_angle_beta                 90
_cell_angle_gamma                90
_cell_volume                     2790.46
loop_
_atom_site_label
_atom_site_type_symbol
_atom_site_fract_x
_atom_site_fract_y
_atom_site_fract_z
Se1 Se 0.56304(4) 0.83796(7) 0.07915(4)
Fe1 Fe 0.7500 1.2500 0.07700(5)
S1 S 0.51769(7) 1.76088(15) -0.16420(8)
N1 N 0.6691(2) 1.0834(5) 0.0766(3)
C1 C 0.6271(3) 0.9874(5) 0.0770(3)
N2 N 0.6854(2) 1.3710(4) -0.0138(2)
N3 N 0.6915(2) 2.1222(4) -0.3300(2)
C2 C 0.6118(3) 1.3715(5) -0.0126(3)
H1 H 0.5879 1.3220 0.0287
C3 C 0.5698(3) 1.4409(5) -0.0690(3)
H2 H 0.5185 1.4399 -0.0648
C4 C 0.6030(3) 1.5125(5) -0.1320(3)
C5 C 0.6791(3) 1.5102(6) -0.1335(3)
H3 H 0.7043 1.5558 -0.1751
C6 C 0.7173(3) 1.4412(6) -0.0741(3)
H4 H 0.7687 1.4436 -0.0760
C7 C 0.5585(3) 1.5851(6) -0.1952(3)
H5 H 0.5196 1.5166 -0.2115
H6 H 0.5900 1.6034 -0.2408
C8 C 0.5968(3) 1.8738(6) -0.1379(3)
H7 H 0.5824 1.9446 -0.0968
H8 H 0.6347 1.8085 -0.1161
C9 C 0.6288(2) 1.9597(5) -0.2058(3)
C10 C 0.6634(3) 1.8895(6) -0.2685(3)
H9 H 0.6663 1.7848 -0.2700
C11 C 0.6937(3) 1.9733(5) -0.3287(3)
H10 H 0.7167 1.9231 -0.3704
C12 C 0.6570(3) 2.1891(5) -0.2702(3)
H11 H 0.6542 2.2939 -0.2703
C13 C 0.6256(3) 2.1134(5) -0.2087(3)
H12 H 0.6019 2.1665 -0.1685
Se1A Se 0.93696(4) 1.66204(7) 0.07915(4)
S1A S 0.98231(7) 0.73912(15) -0.16420(8)
N1A N 0.8309(2) 1.4166(5) 0.0766(3)
C1A C 0.8729(3) 1.5126(5) 0.0770(3)
N2A N 0.8146(2) 1.1290(4) -0.0138(2)
N3A N 0.8085(2) 0.3778(4) -0.3300(2)
C2A C 0.8882(3) 1.1285(5) -0.0126(3)
H1A H 0.9121 1.1780 0.0287
C3A C 0.9302(3) 1.0591(5) -0.0690(3)
H2A H 0.9815 1.0601 -0.0648
C4A C 0.8970(3) 0.9875(5) -0.1320(3)
C5A C 0.8209(3) 0.9898(6) -0.1335(3)
H3A H 0.7957 0.9442 -0.1751
C6A C 0.7827(3) 1.0588(6) -0.0741(3)
H4A H 0.7313 1.0564 -0.0760
C7A C 0.9415(3) 0.9149(6) -0.1952(3)
H5A H 0.9804 0.9834 -0.2115
H6A H 0.9100 0.8966 -0.2408
C8A C 0.9032(3) 0.6262(6) -0.1379(3)
H7A H 0.9176 0.5554 -0.0968
H8A H 0.8653 0.6915 -0.1161
C9A C 0.8712(2) 0.5403(5) -0.2058(3)
C10A C 0.8366(3) 0.6105(6) -0.2685(3)
H9A H 0.8337 0.7152 -0.2700
C11A C 0.8063(3) 0.5267(5) -0.3287(3)
H10A H 0.7833 0.5769 -0.3704
C12A C 0.8430(3) 0.3109(5) -0.2702(3)
H11A H 0.8458 0.2061 -0.2703
C13A C 0.8744(3) 0.3866(5) -0.2087(3)
H12A H 0.8981 0.3335 -0.1685
Fe1F Fe 0.7500 0.2500 -0.42300(5)
Fe1F_2 Fe 0.7500 2.2500 -0.42300(5)
N3F N 0.8085(2) 1.1222(4) 0.1700(2)
N3G N 0.6915(2) 1.3778(4) 0.1700(2)
loop_
_geom_bond_atom_site_label_1
_geom_bond_atom_site_label_2
_geom_bond_site_symmetry_1
_geom_bond_site_symmetry_2
Se1 C1 1_555 1_555
Fe1 N1 1_555 1_555
S1 C7 1_555 1_555
N1 C1 1_555 1_555
N2 Fe1 1_555 1_555
N3 C11 1_555 1_555
C2 N2 1_555 1_555
H1 C2 1_555 1_555
C3 C2 1_555 1_555
H2 C3 1_555 1_555
C4 C3 1_555 1_555
C5 C4 1_555 1_555
H3 C5 1_555 1_555
C6 N2 1_555 1_555
H4 C6 1_555 1_555
C7 C4 1_555 1_555
H5 C7 1_555 1_555
H6 C7 1_555 1_555
C8 S1 1_555 1_555
H7 C8 1_555 1_555
H8 C8 1_555 1_555
C9 C8 1_555 1_555
C10 C9 1_555 1_555
H9 C10 1_555 1_555
C11 C10 1_555 1_555
H10 C11 1_555 1_555
C12 N3 1_555 1_555
H11 C12 1_555 1_555
C13 C9 1_555 1_555
H12 C13 1_555 1_555
Se1A C1A 1_555 1_555
S1A C7A 1_555 1_555
N1A Fe1 1_555 1_555
C1A N1A 1_555 1_555
N2A Fe1 1_555 1_555
N3A C11A 1_555 1_555
C2A N2A 1_555 1_555
H1A C2A 1_555 1_555
C3A C2A 1_555 1_555
H2A C3A 1_555 1_555
C4A C3A 1_555 1_555
C5A C4A 1_555 1_555
H3A C5A 1_555 1_555
C6A N2A 1_555 1_555
H4A C6A 1_555 1_555
C7A C4A 1_555 1_555
H5A C7A 1_555 1_555
H6A C7A 1_555 1_555
C8A S1A 1_555 1_555
H7A C8A 1_555 1_555
H8A C8A 1_555 1_555
C9A C8A 1_555 1_555
C10A C9A 1_555 1_555
H9A C10A 1_555 1_555
C11A C10A 1_555 1_555
H10A C11A 1_555 1_555
C12A N3A 1_555 1_555
H11A C12A 1_555 1_555
C13A C9A 1_555 1_555
H12A C13A 1_555 1_555
Fe1F N3A 1_555 1_555
Fe1F_2 N3 1_555 1_555
N3F Fe1 1_555 1_555
N3G Fe1 1_555 1_555
C5 C6 1_555 1_555
C12 C13 1_555 1_555
C5A C6A 1_555 1_555
C12A C13A 1_555 1_555

#END
