
#######################################################################
#
#                 Cambridge Crystallographic Data Centre
#                                CCDC 
#
#######################################################################
#
# If this CIF has been generated from an entry in the Cambridge 
# Structural Database, then it will include bibliographic, chemical, 
# crystal, experimental, refinement or atomic coordinate data resulting 
# from the CCDC's data processing and validation procedures.
#
#######################################################################

data_MOKVAL
_symmetry_cell_setting           monoclinic
_symmetry_space_group_name_H-M   'P 21/c'
_symmetry_Int_Tables_number      14
_space_group_name_Hall           '-P 2ybc'
loop_
_symmetry_equiv_pos_site_id
_symmetry_equiv_pos_as_xyz
1 x,y,z
2 -x,1/2+y,1/2-z
3 -x,-y,-z
4 x,1/2-y,1/2+z
_cell_length_a                   7.165(17)
_cell_length_b                   22.07(5)
_cell_length_c                   10.934(18)
_cell_angle_alpha                90
_cell_angle_beta                 125.970(4)
_cell_angle_gamma                90
_cell_volume                     1399.33
loop_
_atom_site_label
_atom_site_type_symbol
_atom_site_fract_x
_atom_site_fract_y
_atom_site_fract_z
O1 O 0.6471(12) 0.2425(3) 0.5139(10)
H1 H 0.5742 0.2580 0.5470
H2 H 0.7678 0.2587 0.5302
Cu1 Cu 0.40417(11) 0.12060(3) 0.16378(8)
O2 O 0.3999(7) 0.2063(2) 0.1235(5)
O3 O 0.0466(8) 0.2051(2) 0.0657(6)
O4 O 0.1313(7) 0.4040(2) -0.1357(5)
O5 O -0.2389(8) 0.3980(3) -0.2509(6)
O6 O 0.4764(7) 0.1354(2) 0.3670(5)
H3 H 0.3615 0.1216 0.3539
H4 H 0.5277 0.1680 0.4010
N1 N 0.3675(8) 0.0301(3) 0.1775(5)
N2 N 0.2485(9) 0.0988(3) -0.0493(6)
N3 N 0.1023(11) 0.0255(3) -0.2222(7)
H5 H 0.0636 -0.0109 -0.2560
C1 C 0.4385(12) -0.0032(3) 0.2996(8)
H6 H 0.5113 0.0162 0.3924
C2 C 0.4092(14) -0.0645(4) 0.2948(8)
H7 H 0.4577 -0.0859 0.3820
C3 C 0.3099(13) -0.0932(4) 0.1629(8)
H8 H 0.2865 -0.1349 0.1574
C4 C 0.2416(12) -0.0606(3) 0.0337(7)
H9 H 0.1774 -0.0802 -0.0582
C5 C 0.2708(9) 0.0003(3) 0.0452(6)
C6 C 0.2056(10) 0.0418(3) -0.0808(6)
C7 C 0.0635(15) 0.0787(4) -0.3125(8)
H10 H -0.0994 0.0845 -0.3916
H11 H 0.1459 0.0757 -0.3578
C8 C 0.1630(15) 0.1316(4) -0.1918(9)
H12 H 0.2873 0.1528 -0.1852
H13 H 0.0435 0.1604 -0.2162
C9 C 0.2037(11) 0.2312(3) 0.0708(7)
C10 C 0.1757(11) 0.2924(3) 0.0091(7)
H14 H 0.3073 0.3161 0.0515
C11 C -0.0185(10) 0.3156(3) -0.0998(7)
H15 H -0.1520 0.2931 -0.1383
C12 C -0.0417(10) 0.3764(3) -0.1674(7)
Cu1C Cu -0.59583(11) 0.37940(3) -0.33622(8)
O5C O 0.7611(8) 0.1020(3) 0.2491(6)
loop_
_geom_bond_atom_site_label_1
_geom_bond_atom_site_label_2
_geom_bond_site_symmetry_1
_geom_bond_site_symmetry_2
O1 H1 1_555 1_555
H2 O1 1_555 1_555
Cu1 O2 1_555 1_555
O2 C9 1_555 1_555
O3 C9 1_555 1_555
O4 C12 1_555 1_555
O5 C12 1_555 1_555
O6 Cu1 1_555 1_555
H3 O6 1_555 1_555
H4 O6 1_555 1_555
N1 Cu1 1_555 1_555
N2 Cu1 1_555 1_555
N3 H5 1_555 1_555
C1 N1 1_555 1_555
H6 C1 1_555 1_555
C2 C1 1_555 1_555
H7 C2 1_555 1_555
C3 C2 1_555 1_555
H8 C3 1_555 1_555
C4 C3 1_555 1_555
H9 C4 1_555 1_555
C5 N1 1_555 1_555
C6 N2 1_555 1_555
C7 N3 1_555 1_555
H10 C7 1_555 1_555
H11 C7 1_555 1_555
C8 N2 1_555 1_555
H12 C8 1_555 1_555
H13 C8 1_555 1_555
C9 C10 1_555 1_555
C10 H14 1_555 1_555
C11 C10 1_555 1_555
H15 C11 1_555 1_555
C12 C11 1_555 1_555
Cu1C O5 1_555 1_555
O5C Cu1 1_555 1_555
N3 C6 1_555 1_555
C4 C5 1_555 1_555
C5 C6 1_555 1_555
C7 C8 1_555 1_555

#END
