
#######################################################################
#
#                 Cambridge Crystallographic Data Centre
#                                CCDC 
#
#######################################################################
#
# If this CIF has been generated from an entry in the Cambridge 
# Structural Database, then it will include bibliographic, chemical, 
# crystal, experimental, refinement or atomic coordinate data resulting 
# from the CCDC's data processing and validation procedures.
#
#######################################################################

data_MOKYOC
_symmetry_cell_setting           triclinic
_symmetry_space_group_name_H-M   'P -1'
_symmetry_Int_Tables_number      2
_space_group_name_Hall           '-P 1'
loop_
_symmetry_equiv_pos_site_id
_symmetry_equiv_pos_as_xyz
1 x,y,z
2 -x,-y,-z
_cell_length_a                   10.522(2)
_cell_length_b                   10.670(2)
_cell_length_c                   11.957(2)
_cell_angle_alpha                107.37(3)
_cell_angle_beta                 96.00(3)
_cell_angle_gamma                98.02(3)
_cell_volume                     1253.39
loop_
_atom_site_label
_atom_site_type_symbol
_atom_site_fract_x
_atom_site_fract_y
_atom_site_fract_z
Mn1 Mn 0.38153(5) 0.57737(5) 0.41517(5)
C1 C 0.4226(4) 0.6483(3) 0.6674(3)
O1 O 0.3547(3) 0.6853(2) 0.5949(2)
O2 O 0.4872(3) 0.5604(3) 0.6356(3)
C2 C 0.4215(4) 0.7148(4) 0.7974(3)
C3 C 0.3479(4) 0.8139(4) 0.8321(4)
H1 H 0.2976 0.8392 0.7768
C4 C 0.3526(5) 0.8740(4) 0.9537(4)
C5 C 0.4247(6) 0.8392(6) 1.0375(5)
H2 H 0.4252 0.8818 1.1178
C6 C 0.4965(6) 0.7406(6) 1.0019(5)
H3 H 0.5461 0.7153 1.0577
C7 C 0.4940(5) 0.6783(4) 0.8800(4)
H4 H 0.5424 0.6113 0.8553
N1 N 0.2761(6) 0.9786(5) 0.9914(6)
O3 O 0.2085(7) 1.0066(7) 0.9156(6)
O4 O 0.2811(6) 1.0345(5) 1.0981(5)
C8 C 0.2450(4) 0.6309(4) 0.2450(4)
O5 O 0.2340(3) 0.6901(3) 0.3483(2)
O6 O 0.3198(3) 0.5480(3) 0.2199(2)
C9 C 0.1660(4) 0.6562(4) 0.1436(3)
C10 C 0.1752(4) 0.5866(4) 0.0275(4)
H5 H 0.2296 0.5239 0.0111
C11 C 0.1021(4) 0.6120(4) -0.0631(3)
C12 C 0.0206(5) 0.7024(5) -0.0424(4)
H6 H -0.0282 0.7169 -0.1053
C13 C 0.0115(5) 0.7718(5) 0.0730(5)
H7 H -0.0435 0.8339 0.0887
C14 C 0.0843(5) 0.7484(4) 0.1649(4)
H8 H 0.0783 0.7956 0.2427
N2 N 0.1121(4) 0.5384(4) -0.1846(4)
O7 O 0.1841(4) 0.4559(4) -0.2014(3)
O8 O 0.0484(5) 0.5622(5) -0.2643(3)
C15 C 0.1443(4) 0.4119(4) 0.4808(3)
H9 H 0.1526 0.4922 0.5417
C16 C 0.0460(4) 0.3094(4) 0.4760(4)
H10 H -0.0100 0.3214 0.5321
C17 C 0.0319(4) 0.1888(4) 0.3869(3)
C18 C 0.1172(4) 0.1798(4) 0.3065(4)
H11 H 0.1105 0.1015 0.2438
C19 C 0.2118(4) 0.2867(4) 0.3193(4)
H12 H 0.2694 0.2775 0.2646
C20 C -0.0696(4) 0.0716(4) 0.3758(4)
H13 H -0.0680 -0.0074 0.3163
C21 C -0.1579(4) 0.0698(4) 0.4399(4)
H14 H -0.1599 0.1497 0.4981
C22 C -0.2592(4) -0.0469(4) 0.4322(4)
C23 C -0.3345(5) -0.0361(4) 0.5175(4)
H15 H -0.3231 0.0435 0.5798
C24 C -0.4280(4) -0.1411(4) 0.5137(4)
H16 H -0.4783 -0.1299 0.5743
C25 C -0.3767(5) -0.2698(4) 0.3452(4)
H17 H -0.3899 -0.3506 0.2842
C26 C -0.2796(5) -0.1678(4) 0.3440(5)
H18 H -0.2288 -0.1814 0.2838
N3 N 0.2269(3) 0.4032(3) 0.4049(3)
N4 N -0.4506(3) -0.2574(3) 0.4286(3)
Mn1_2 Mn -0.61847(5) -0.42263(5) 0.41517(5)
Mn1A Mn 0.61847(5) 0.42263(5) 0.58483(5)
O2A O 0.5128(3) 0.4396(3) 0.3644(3)
N4_2 N 0.5494(3) 0.7426(3) 0.4286(3)
loop_
_geom_bond_atom_site_label_1
_geom_bond_atom_site_label_2
_geom_bond_site_symmetry_1
_geom_bond_site_symmetry_2
Mn1 O1 1_555 1_555
C1 O1 1_555 1_555
O2 C1 1_555 1_555
C2 C1 1_555 1_555
C3 C2 1_555 1_555
H1 C3 1_555 1_555
C4 C3 1_555 1_555
C5 C4 1_555 1_555
H2 C5 1_555 1_555
C6 C5 1_555 1_555
H3 C6 1_555 1_555
C7 C2 1_555 1_555
H4 C7 1_555 1_555
N1 C4 1_555 1_555
O3 N1 1_555 1_555
O4 N1 1_555 1_555
C8 O5 1_555 1_555
O5 Mn1 1_555 1_555
O6 Mn1 1_555 1_555
C9 C8 1_555 1_555
C10 C9 1_555 1_555
H5 C10 1_555 1_555
C11 C10 1_555 1_555
C12 C11 1_555 1_555
H6 C12 1_555 1_555
C13 C12 1_555 1_555
H7 C13 1_555 1_555
C14 C9 1_555 1_555
H8 C14 1_555 1_555
N2 C11 1_555 1_555
O7 N2 1_555 1_555
O8 N2 1_555 1_555
C15 H9 1_555 1_555
C16 C15 1_555 1_555
H10 C16 1_555 1_555
C17 C16 1_555 1_555
C18 C17 1_555 1_555
H11 C18 1_555 1_555
C19 C18 1_555 1_555
H12 C19 1_555 1_555
C20 C17 1_555 1_555
H13 C20 1_555 1_555
C21 C20 1_555 1_555
H14 C21 1_555 1_555
C22 C21 1_555 1_555
C23 C22 1_555 1_555
H15 C23 1_555 1_555
C24 C23 1_555 1_555
H16 C24 1_555 1_555
C25 H17 1_555 1_555
C26 C22 1_555 1_555
H18 C26 1_555 1_555
N3 Mn1 1_555 1_555
N4 C24 1_555 1_555
Mn1_2 N4 1_555 1_555
Mn1A O2 1_555 1_555
O2A Mn1 1_555 1_555
N4_2 Mn1 1_555 1_555
C6 C7 1_555 1_555
C8 O6 1_555 1_555
C13 C14 1_555 1_555
C15 N3 1_555 1_555
C19 N3 1_555 1_555
C25 C26 1_555 1_555
C25 N4 1_555 1_555

#END
