
#######################################################################
#
#                 Cambridge Crystallographic Data Centre
#                                CCDC 
#
#######################################################################
#
# If this CIF has been generated from an entry in the Cambridge 
# Structural Database, then it will include bibliographic, chemical, 
# crystal, experimental, refinement or atomic coordinate data resulting 
# from the CCDC's data processing and validation procedures.
#
#######################################################################

data_MOKYUI
_symmetry_cell_setting           trigonal
_symmetry_space_group_name_H-M   'P -3 c 1'
_symmetry_Int_Tables_number      165
_space_group_name_Hall           '-P 3 2"c'
loop_
_symmetry_equiv_pos_site_id
_symmetry_equiv_pos_as_xyz
1 x,y,z
2 -y,x-y,z
3 -x+y,-x,z
4 y,x,1/2-z
5 -x,-x+y,1/2-z
6 x-y,-y,1/2-z
7 -x,-y,-z
8 y,-x+y,-z
9 x-y,x,-z
10 -y,-x,1/2+z
11 x,x-y,1/2+z
12 -x+y,y,1/2+z
_cell_length_a                   15.8589(4)
_cell_length_b                   15.8589(4)
_cell_length_c                   16.8430(8)
_cell_angle_alpha                90
_cell_angle_beta                 90
_cell_angle_gamma                120
_cell_volume                     3668.56
loop_
_atom_site_label
_atom_site_type_symbol
_atom_site_fract_x
_atom_site_fract_y
_atom_site_fract_z
Yb1 Yb 0.6667 0.3333 0.17147(3)
O1 O 0.6038(3) 0.1997(3) 0.0973(3)
O2 O 0.4890(4) 0.2330(4) 0.2046(4)
O3 O 0.5762(5) 0.3612(5) 0.2751(4)
C1 C 0.6333(5) 0.1452(5) 0.0643(4)
N1 N 0.4933(6) 0.2861(6) 0.2629(5)
C2 C 0.7113(6) 0.1817(6) 0.0112(5)
C3 C 0.5855(5) 0.0435(5) 0.0796(4)
O4 O 0.4225(5) 0.2637(6) 0.3034(5)
H1 H 0.7425 0.2473 -0.0023
C4 C 0.7434(6) 0.1233(7) -0.0219(5)
C5 C 0.6206(7) -0.0141(6) 0.0427(5)
C6 C 0.5006(5) -0.0037(5) 0.1265(4)
H2 H 0.7967 0.1507 -0.0558
C7 C 0.6981(7) 0.0252(7) -0.0056(5)
H3 H 0.5887 -0.0808 0.0524
H4 H 0.4710 -0.0709 0.1313
N2 N 0.4606(4) 0.0384(4) 0.1631(4)
H5 H 0.7210 -0.0132 -0.0279
C8 C 0.3696(6) -0.0117(6) 0.2057(4)
H6 H 0.493(5) 0.1034(11) 0.157(4)
H7 H 0.3418 -0.0813 0.1987
H8 H 0.3245 0.0064 0.1833
O2A O 0.7670(4) 0.2560(6) 0.2046(4)
O3A O 0.6388(5) 0.2150(7) 0.2751(4)
O2B O 0.7440(6) 0.5110(4) 0.2046(4)
O3B O 0.7850(7) 0.4238(5) 0.2751(4)
O1A O 0.8003(3) 0.4041(4) 0.0973(3)
O1B O 0.5959(4) 0.3962(3) 0.0973(3)
N1A N 0.7139(6) 0.2072(8) 0.2629(5)
N1B N 0.7928(8) 0.5067(6) 0.2629(5)
C1A C 0.8548(5) 0.4881(7) 0.0643(4)
C1B C 0.5119(7) 0.3667(5) 0.0643(4)
O4A O 0.7363(6) 0.1588(8) 0.3034(5)
O4B O 0.8412(8) 0.5775(5) 0.3034(5)
C2A C 0.8183(6) 0.5296(8) 0.0112(5)
C3A C 0.9565(5) 0.5420(7) 0.0796(4)
C2B C 0.4704(8) 0.2887(6) 0.0112(5)
C3B C 0.4580(7) 0.4145(5) 0.0796(4)
H1A H 0.7527 0.4952 -0.0023
C4A C 0.8767(7) 0.6201(9) -0.0219(5)
C5A C 1.0141(6) 0.6347(9) 0.0427(5)
C6A C 1.0037(5) 0.5043(7) 0.1265(4)
H1B H 0.5048 0.2575 -0.0023
C4B C 0.3799(9) 0.2566(6) -0.0219(5)
C5B C 0.3653(9) 0.3794(7) 0.0427(5)
C6B C 0.4957(7) 0.4994(5) 0.1265(4)
H2A H 0.8493 0.6460 -0.0558
C7A C 0.9748(7) 0.6729(10) -0.0056(5)
H3A H 1.0808 0.6695 0.0524
H4A H 1.0709 0.5419 0.1313
N2A N 0.9616(4) 0.4222(6) 0.1631(4)
H2B H 0.3540 0.2033 -0.0558
C7B C 0.3271(10) 0.3019(7) -0.0056(5)
H3B H 0.3305 0.4113 0.0524
H4B H 0.4581 0.5290 0.1313
N2B N 0.5778(6) 0.5394(4) 0.1631(4)
H5A H 1.0132 0.7342 -0.0279
C8A C 1.0117(6) 0.3813(8) 0.2057(4)
H6A H 0.8966(11) 0.3896(51) 0.157(4)
H5B H 0.2658 0.2790 -0.0279
C8B C 0.6187(8) 0.6304(6) 0.2057(4)
H6B H 0.6104(51) 0.507(5) 0.157(4)
C8E C 0.3813(8) 0.0117(6) 0.2943(4)
H7A H 1.0813 0.4231 0.1987
H8A H 0.9936 0.3181 0.1833
C8C C 0.9883(6) 0.3696(6) 0.2943(4)
H7B H 0.5769 0.6582 0.1987
H8B H 0.6819 0.6755 0.1833
C8D C 0.6304(6) 0.6187(8) 0.2943(4)
H7E H 0.4231 0.0813 0.3013
H8E H 0.3181 -0.0064 0.3167
N2E N 0.4222(6) -0.0384(4) 0.3369(4)
H7C H 0.9187 0.3418 0.3013
H8C H 1.0064 0.3245 0.3167
N2C N 1.0384(4) 0.4606(4) 0.3369(4)
H7D H 0.6582 0.5769 0.3013
H8D H 0.6755 0.6819 0.3167
N2D N 0.5394(4) 0.5778(6) 0.3369(4)
C6E C 0.5043(7) 0.0037(5) 0.3735(4)
H6E H 0.3896(51) -0.1034(11) 0.343(4)
C6C C 0.9963(5) 0.5006(5) 0.3735(4)
H6C H 1.1034(11) 0.493(5) 0.343(4)
C6D C 0.4994(5) 0.4957(7) 0.3735(4)
H6D H 0.507(5) 0.6104(51) 0.343(4)
C3E C 0.5420(7) -0.0435(5) 0.4204(4)
H4E H 0.5419 0.0709 0.3687
C3C C 1.0435(5) 0.5855(5) 0.4204(4)
H4C H 0.9291 0.4710 0.3687
C3D C 0.4145(5) 0.4580(7) 0.4204(4)
H4D H 0.5290 0.4581 0.3687
C1E C 0.4881(7) -0.1452(5) 0.4357(4)
C5E C 0.6347(9) 0.0141(6) 0.4573(5)
C1C C 1.1452(5) 0.6333(5) 0.4357(4)
C5C C 0.9859(6) 0.6206(7) 0.4573(5)
C1D C 0.3667(5) 0.5119(7) 0.4357(4)
C5D C 0.3794(7) 0.3653(9) 0.4573(5)
C2E C 0.5296(8) -0.1817(6) 0.4888(5)
O1E O 0.4041(4) -0.1997(3) 0.4027(3)
C7E C 0.6729(10) -0.0252(7) 0.5056(5)
H3E H 0.6695 0.0808 0.4476
C2C C 1.1817(6) 0.7113(6) 0.4888(5)
O1C O 1.1997(3) 0.6038(3) 0.4027(3)
C7C C 1.0252(7) 0.6981(7) 0.5056(5)
H3C H 0.9192 0.5887 0.4476
C2D C 0.2887(6) 0.4704(8) 0.4888(5)
O1D O 0.3962(3) 0.5959(4) 0.4027(3)
C7D C 0.3019(7) 0.3271(10) 0.5056(5)
H3D H 0.4113 0.3305 0.4476
H1E H 0.4952 -0.2473 0.5023
C4E C 0.6201(9) -0.1233(7) 0.5219(5)
Yb1C Yb 0.3333 -0.3333 0.32853(3)
H5E H 0.7342 0.0132 0.5279
H1C H 1.2473 0.7425 0.5023
C4C C 1.1233(7) 0.7434(6) 0.5219(5)
Yb1C_2 Yb 1.3333 0.6667 0.32853(3)
H5C H 0.9868 0.7210 0.5279
H1D H 0.2575 0.5048 0.5023
C4D C 0.2566(6) 0.3799(9) 0.5219(5)
Yb1C_3 Yb 0.3333 0.6667 0.32853(3)
H5D H 0.2790 0.2658 0.5279
H2E H 0.6460 -0.1507 0.5558
O1D_2 O 0.3962(3) -0.4041(4) 0.4027(3)
O2E O 0.2560(6) -0.2330(4) 0.2954(4)
O3D O 0.4238(5) -0.2150(7) 0.2249(4)
O2D O 0.5110(4) -0.2560(6) 0.2954(4)
O3E O 0.2150(7) -0.3612(5) 0.2249(4)
O1C_2 O 0.1997(3) -0.3962(3) 0.4027(3)
O3C O 0.3612(5) -0.4238(5) 0.2249(4)
O2C O 0.2330(4) -0.5110(4) 0.2954(4)
H2C H 1.1507 0.7967 0.5558
H2D H 0.2033 0.3540 0.5558
N1E N 0.2072(8) -0.2861(6) 0.2371(5)
N1D N 0.5067(6) -0.2072(8) 0.2371(5)
N1C N 0.2861(6) -0.5067(6) 0.2371(5)
O4E O 0.1588(8) -0.2637(6) 0.1966(5)
O4D O 0.5775(5) -0.1588(8) 0.1966(5)
O4C O 0.2637(6) -0.5775(5) 0.1966(5)
loop_
_geom_bond_atom_site_label_1
_geom_bond_atom_site_label_2
_geom_bond_site_symmetry_1
_geom_bond_site_symmetry_2
Yb1 O1 1_555 1_555
O1 C1 1_555 1_555
O2 Yb1 1_555 1_555
O3 Yb1 1_555 1_555
C1 C2 1_555 1_555
N1 O2 1_555 1_555
C2 H1 1_555 1_555
C3 C1 1_555 1_555
O4 N1 1_555 1_555
C4 C2 1_555 1_555
C5 C3 1_555 1_555
C6 C3 1_555 1_555
H2 C4 1_555 1_555
C7 C4 1_555 1_555
H3 C5 1_555 1_555
H4 C6 1_555 1_555
N2 C6 1_555 1_555
H5 C7 1_555 1_555
C8 N2 1_555 1_555
H6 N2 1_555 1_555
H7 C8 1_555 1_555
H8 C8 1_555 1_555
O2A Yb1 1_555 1_555
O3A Yb1 1_555 1_555
O2B Yb1 1_555 1_555
O3B Yb1 1_555 1_555
O1A Yb1 1_555 1_555
O1B Yb1 1_555 1_555
N1A O2A 1_555 1_555
N1B O2B 1_555 1_555
C1A O1A 1_555 1_555
C1B O1B 1_555 1_555
O4A N1A 1_555 1_555
O4B N1B 1_555 1_555
C2A C1A 1_555 1_555
C3A C1A 1_555 1_555
C2B C1B 1_555 1_555
C3B C1B 1_555 1_555
H1A C2A 1_555 1_555
C4A C2A 1_555 1_555
C5A C3A 1_555 1_555
C6A C3A 1_555 1_555
H1B C2B 1_555 1_555
C4B C2B 1_555 1_555
C5B C3B 1_555 1_555
C6B C3B 1_555 1_555
H2A C4A 1_555 1_555
C7A C4A 1_555 1_555
H3A C5A 1_555 1_555
H4A C6A 1_555 1_555
N2A C6A 1_555 1_555
H2B C4B 1_555 1_555
C7B C4B 1_555 1_555
H3B C5B 1_555 1_555
H4B C6B 1_555 1_555
N2B C6B 1_555 1_555
H5A C7A 1_555 1_555
C8A N2A 1_555 1_555
H6A N2A 1_555 1_555
H5B C7B 1_555 1_555
C8B N2B 1_555 1_555
H6B N2B 1_555 1_555
C8E C8 1_555 1_555
H7A C8A 1_555 1_555
H8A C8A 1_555 1_555
C8C C8A 1_555 1_555
H7B C8B 1_555 1_555
H8B C8B 1_555 1_555
C8D C8B 1_555 1_555
H7E C8E 1_555 1_555
H8E C8E 1_555 1_555
N2E C8E 1_555 1_555
H7C C8C 1_555 1_555
H8C C8C 1_555 1_555
N2C C8C 1_555 1_555
H7D C8D 1_555 1_555
H8D C8D 1_555 1_555
N2D C8D 1_555 1_555
C6E N2E 1_555 1_555
H6E N2E 1_555 1_555
C6C N2C 1_555 1_555
H6C N2C 1_555 1_555
C6D N2D 1_555 1_555
H6D N2D 1_555 1_555
C3E C6E 1_555 1_555
H4E C6E 1_555 1_555
C3C C6C 1_555 1_555
H4C C6C 1_555 1_555
C3D C6D 1_555 1_555
H4D C6D 1_555 1_555
C1E C3E 1_555 1_555
C5E C3E 1_555 1_555
C1C C3C 1_555 1_555
C5C C3C 1_555 1_555
C1D C3D 1_555 1_555
C5D C3D 1_555 1_555
C2E C1E 1_555 1_555
O1E C1E 1_555 1_555
C7E C5E 1_555 1_555
H3E C5E 1_555 1_555
C2C C1C 1_555 1_555
O1C C1C 1_555 1_555
C7C C5C 1_555 1_555
H3C C5C 1_555 1_555
C2D C1D 1_555 1_555
O1D C1D 1_555 1_555
C7D C5D 1_555 1_555
H3D C5D 1_555 1_555
H1E C2E 1_555 1_555
C4E C2E 1_555 1_555
Yb1C O1E 1_555 1_555
H5E C7E 1_555 1_555
H1C C2C 1_555 1_555
C4C C2C 1_555 1_555
Yb1C_2 O1C 1_555 1_555
H5C C7C 1_555 1_555
H1D C2D 1_555 1_555
C4D C2D 1_555 1_555
Yb1C_3 O1D 1_555 1_555
H5D C7D 1_555 1_555
H2E C4E 1_555 1_555
O1D_2 Yb1C 1_555 1_555
O2E Yb1C 1_555 1_555
O3D Yb1C 1_555 1_555
O2D Yb1C 1_555 1_555
O3E Yb1C 1_555 1_555
O1C_2 Yb1C 1_555 1_555
O3C Yb1C 1_555 1_555
O2C Yb1C 1_555 1_555
H2C C4C 1_555 1_555
H2D C4D 1_555 1_555
N1E O2E 1_555 1_555
N1D O3D 1_555 1_555
N1C O3C 1_555 1_555
O4E N1E 1_555 1_555
O4D N1D 1_555 1_555
O4C N1C 1_555 1_555
O3 N1 1_555 1_555
C5 C7 1_555 1_555
O3A N1A 1_555 1_555
O3B N1B 1_555 1_555
C5A C7A 1_555 1_555
C5B C7B 1_555 1_555
C7E C4E 1_555 1_555
C7C C4C 1_555 1_555
C7D C4D 1_555 1_555
O2D N1D 1_555 1_555
O3E N1E 1_555 1_555
O2C N1C 1_555 1_555

#END
