
#######################################################################
#
#                 Cambridge Crystallographic Data Centre
#                                CCDC 
#
#######################################################################
#
# If this CIF has been generated from an entry in the Cambridge 
# Structural Database, then it will include bibliographic, chemical, 
# crystal, experimental, refinement or atomic coordinate data resulting 
# from the CCDC's data processing and validation procedures.
#
#######################################################################

data_MOKZUI
_symmetry_cell_setting           monoclinic
_symmetry_space_group_name_H-M   'P 21'
_symmetry_Int_Tables_number      4
_space_group_name_Hall           'P 2yb'
loop_
_symmetry_equiv_pos_site_id
_symmetry_equiv_pos_as_xyz
1 x,y,z
2 -x,1/2+y,-z
_cell_length_a                   7.6075(13)
_cell_length_b                   22.281(4)
_cell_length_c                   9.8205(16)
_cell_angle_alpha                90
_cell_angle_beta                 108.150(2)
_cell_angle_gamma                90
_cell_volume                     1581.78
loop_
_atom_site_label
_atom_site_type_symbol
_atom_site_fract_x
_atom_site_fract_y
_atom_site_fract_z
Cu1 Cu 0.65447(8) -0.074095(19) 0.03002(6)
Cu2 Cu 0.64748(9) -0.14898(2) 0.52764(6)
O1 O 0.3519(6) -0.0347(2) 0.0291(5)
H1 H 0.2866 -0.0516 0.0860
H2 H 0.2708 -0.0306 -0.0534
O2 O 0.3137(7) -0.1796(2) 0.5268(6)
H3 H 0.2491 -0.1625 0.5734
H4 H 0.2502 -0.1749 0.4368
O3 O 0.6762(5) -0.10763(18) 0.2227(4)
O4 O 0.5688(5) -0.18057(17) 0.3307(4)
O5 O 1.0203(7) -0.4124(2) 0.2408(6)
H5 H 0.9791 -0.4493 0.2326
O6 O 0.6594(6) -0.11945(16) -0.2813(4)
O7 O 0.6068(6) -0.04034(17) -0.1634(4)
O8 O 0.5628(7) 0.22702(19) -0.7188(5)
H6 H 0.6072 0.2557 -0.6597
O9 O 0.9706(6) -0.1209(3) 0.0535(5)
O10 O 1.1001(8) -0.1743(3) 0.2412(8)
O11 O 1.1833(7) -0.0821(2) 0.2309(6)
N1 N 0.7849(6) 0.0017(2) 0.1148(5)
N2 N 1.2032(7) 0.2784(2) 0.3938(5)
N3 N 0.5382(6) -0.1539(2) -0.0360(5)
H7 H 0.4461 -0.1496 -0.1192
H8 H 0.6229 -0.1791 -0.0508
N4 N 0.5479(7) -0.0687(2) -0.5344(4)
H9 H 0.6038 -0.0536 -0.5952
H10 H 0.4261 -0.0716 -0.5816
N5 N 1.0848(7) -0.1252(3) 0.1757(7)
C1 C 0.7881(13) 0.0209(3) 0.2439(8)
H11 H 0.7375 -0.0038 0.2983
C2 C 0.8616(13) 0.0753(3) 0.3024(8)
H12 H 0.8581 0.0865 0.3927
C3 C 0.9385(7) 0.1119(3) 0.2273(6)
C4 C 0.9382(11) 0.0923(3) 0.0942(6)
H13 H 0.9902 0.1160 0.0388
C5 C 0.8613(10) 0.0378(3) 0.0432(6)
H14 H 0.8632 0.0257 -0.0469
C6 C 1.1788(10) 0.2348(3) 0.4811(7)
H15 H 1.2239 0.2407 0.5797
C7 C 1.0896(10) 0.1815(3) 0.4301(7)
H16 H 1.0761 0.1525 0.4942
C8 C 1.0201(8) 0.1711(2) 0.2842(6)
C9 C 1.0389(8) 0.2170(2) 0.1946(6)
H17 H 0.9921 0.2125 0.0957
C10 C 1.1284(8) 0.2700(2) 0.2533(6)
H18 H 1.1361 0.3008 0.1916
C11 C 0.5793(7) -0.1544(3) 0.2209(5)
C12 C 0.4648(7) -0.1786(2) 0.0739(5)
H19 H 0.3428 -0.1600 0.0550
C13 C 0.4278(8) -0.2456(3) 0.0658(6)
H20 H 0.3535 -0.2544 0.1276
H21 H 0.3527 -0.2548 -0.0314
C14 C 0.5901(7) -0.2881(2) 0.1050(5)
C15 C 0.5558(8) -0.3495(3) 0.1026(6)
H22 H 0.4336 -0.3626 0.0722
C16 C 0.6930(9) -0.3917(3) 0.1429(6)
H23 H 0.6638 -0.4323 0.1370
C17 C 0.8755(9) -0.3732(3) 0.1924(6)
C18 C 0.9170(9) -0.3136(3) 0.1911(7)
H24 H 1.0398 -0.3011 0.2195
C19 C 0.7735(7) -0.2710(2) 0.1467(6)
H25 H 0.8030 -0.2306 0.1455
C20 C 0.6144(7) -0.0656(3) -0.2748(5)
C21 C 0.5769(7) -0.0273(2) -0.4100(5)
H26 H 0.6911 -0.0051 -0.4013
C22 C 0.4230(9) 0.0195(3) -0.4340(7)
H27 H 0.3063 0.0015 -0.4885
H28 H 0.4129 0.0318 -0.3419
C23 C 0.4578(8) 0.0741(2) -0.5127(6)
C24 C 0.5572(10) 0.1221(3) -0.4340(6)
H29 H 0.6009 0.1195 -0.3345
C25 C 0.5922(10) 0.1736(3) -0.5005(7)
H30 H 0.6569 0.2054 -0.4464
C26 C 0.5290(9) 0.1770(2) -0.6499(6)
C27 C 0.4357(9) 0.1295(3) -0.7271(6)
H31 H 0.3966 0.1314 -0.8266
C28 C 0.3982(8) 0.0787(2) -0.6605(6)
H32 H 0.3322 0.0472 -0.7155
Cu2_2 Cu 0.64748(9) -0.14898(2) -0.47236(6)
Cu2A Cu 1.35252(9) 0.35102(2) 0.47236(6)
O6_2 O 0.6594(6) -0.11945(16) 0.7187(4)
N2A N 0.7968(7) -0.2216(2) 0.6062(5)
N4_2 N 0.5479(7) -0.0687(2) 0.4656(4)
H9_2 H 0.6038 -0.0536 0.4048
H10_2 H 0.4261 -0.0716 0.4184
O12 O 0.9665(9) -0.0804(3) 0.5561(7)
O13 O 1.0682(9) -0.0326(3) 0.7594(7)
O14 O 1.1989(8) -0.1120(4) 0.7213(7)
N6 N 1.0791(7) -0.0751(3) 0.6782(6)
loop_
_geom_bond_atom_site_label_1
_geom_bond_atom_site_label_2
_geom_bond_site_symmetry_1
_geom_bond_site_symmetry_2
Cu1 O1 1_555 1_555
Cu2 O2 1_555 1_555
O1 H1 1_555 1_555
H2 O1 1_555 1_555
O2 H3 1_555 1_555
H4 O2 1_555 1_555
O3 Cu1 1_555 1_555
O4 Cu2 1_555 1_555
O5 H5 1_555 1_555
O6 C20 1_555 1_555
O7 Cu1 1_555 1_555
O8 H6 1_555 1_555
O9 Cu1 1_555 1_555
O10 N5 1_555 1_555
O11 N5 1_555 1_555
O12 N6 1_555 1_555
O13 N6 1_555 1_555
O14 N6 1_555 1_555
N1 Cu1 1_555 1_555
N2 C6 1_555 1_555
N3 Cu1 1_555 1_555
H7 N3 1_555 1_555
H8 N3 1_555 1_555
N4 H9 1_555 1_555
H10 N4 1_555 1_555
N5 O9 1_555 1_555
C1 N1 1_555 1_555
H11 C1 1_555 1_555
C2 C1 1_555 1_555
H12 C2 1_555 1_555
C3 C2 1_555 1_555
C4 C3 1_555 1_555
H13 C4 1_555 1_555
C5 N1 1_555 1_555
H14 C5 1_555 1_555
C6 H15 1_555 1_555
C7 C6 1_555 1_555
H16 C7 1_555 1_555
C8 C3 1_555 1_555
C9 C8 1_555 1_555
H17 C9 1_555 1_555
C10 N2 1_555 1_555
H18 C10 1_555 1_555
C11 O3 1_555 1_555
C12 N3 1_555 1_555
H19 C12 1_555 1_555
C13 C12 1_555 1_555
H20 C13 1_555 1_555
H21 C13 1_555 1_555
C14 C13 1_555 1_555
C15 C14 1_555 1_555
H22 C15 1_555 1_555
C16 C15 1_555 1_555
H23 C16 1_555 1_555
C17 O5 1_555 1_555
C18 C17 1_555 1_555
H24 C18 1_555 1_555
C19 C14 1_555 1_555
H25 C19 1_555 1_555
C20 O7 1_555 1_555
C21 N4 1_555 1_555
H26 C21 1_555 1_555
C22 C21 1_555 1_555
H27 C22 1_555 1_555
H28 C22 1_555 1_555
C23 C22 1_555 1_555
C24 C23 1_555 1_555
H29 C24 1_555 1_555
C25 C24 1_555 1_555
H30 C25 1_555 1_555
C26 O8 1_555 1_555
C27 C26 1_555 1_555
H31 C27 1_555 1_555
C28 C23 1_555 1_555
H32 C28 1_555 1_555
Cu2_2 O6 1_555 1_555
Cu2A N2 1_555 1_555
O6_2 Cu2 1_555 1_555
N2A Cu2 1_555 1_555
N4_2 Cu2 1_555 1_555
H9_2 N4_2 1_555 1_555
H10_2 N4_2 1_555 1_555
O4 C11 1_555 1_555
N4 Cu2_2 1_555 1_555
C4 C5 1_555 1_555
C7 C8 1_555 1_555
C9 C10 1_555 1_555
C11 C12 1_555 1_555
C16 C17 1_555 1_555
C18 C19 1_555 1_555
C20 C21 1_555 1_555
C25 C26 1_555 1_555
C27 C28 1_555 1_555

#END
