
#######################################################################
#
#                 Cambridge Crystallographic Data Centre
#                                CCDC 
#
#######################################################################
#
# If this CIF has been generated from an entry in the Cambridge 
# Structural Database, then it will include bibliographic, chemical, 
# crystal, experimental, refinement or atomic coordinate data resulting 
# from the CCDC's data processing and validation procedures.
#
#######################################################################

data_MOKZAP
_symmetry_cell_setting           triclinic
_symmetry_space_group_name_H-M   'P -1'
_symmetry_Int_Tables_number      2
_space_group_name_Hall           '-P 1'
loop_
_symmetry_equiv_pos_site_id
_symmetry_equiv_pos_as_xyz
1 x,y,z
2 -x,-y,-z
_cell_length_a                   10.7100(9)
_cell_length_b                   10.9351(11)
_cell_length_c                   11.6709(12)
_cell_angle_alpha                78.6210(10)
_cell_angle_beta                 68.5270(10)
_cell_angle_gamma                79.604(2)
_cell_volume                     1238.16
loop_
_atom_site_label
_atom_site_type_symbol
_atom_site_fract_x
_atom_site_fract_y
_atom_site_fract_z
Cd1 Cd 0.35553(3) 0.58790(3) 0.63904(3)
N1 N 0.1711(3) 0.4724(3) 0.6848(3)
N2 N 0.4341(3) 0.3638(3) 0.9661(3)
N3 N 0.4377(3) 0.4726(3) 0.7850(3)
N4 N 0.2864(4) -0.1309(3) 1.3347(4)
N5 N 0.2837(4) -0.2694(3) 1.4996(3)
O1 O 0.1531(3) 0.6595(3) 0.8098(3)
O2 O -0.0621(3) 0.6365(4) 0.9233(4)
O3 O 0.4102(3) 0.4160(3) 0.5080(3)
O4 O 0.3297(4) 0.2650(4) 0.4607(4)
O5 O 0.4156(3) 0.7772(3) 0.6826(3)
H1 H 0.5009 0.7757 0.6589
H2 H 0.3823 0.7825 0.7599
C1 C 0.0476(4) 0.6078(4) 0.8426(4)
C2 C 0.0531(4) 0.5019(4) 0.7737(4)
C3 C -0.0582(5) 0.4399(5) 0.7986(6)
H3 H -0.1392 0.4607 0.8609
C4 C -0.0473(5) 0.3487(6) 0.7307(6)
H4 H -0.1209 0.3059 0.7470
C5 C 0.0733(5) 0.3189(5) 0.6371(6)
H5 H 0.0810 0.2584 0.5882
C6 C 0.1827(4) 0.3822(4) 0.6184(4)
C7 C 0.3192(4) 0.3521(4) 0.5207(4)
C8 C 0.3608(4) 0.4217(4) 0.8953(4)
H6 H 0.2673 0.4257 0.9204
C9 C 0.5676(4) 0.4445(4) 0.7858(4)
H7 H 0.6443 0.4680 0.7203
C10 C 0.5669(4) 0.3769(5) 0.8971(4)
H8 H 0.6415 0.3459 0.9215
C11 C 0.3605(5) -0.2146(4) 1.3921(4)
H9 H 0.4540 -0.2317 1.3600
C12 C 0.1538(5) -0.2172(5) 1.5115(5)
H10 H 0.0773 -0.2379 1.5788
C13 C 0.1538(5) -0.1316(5) 1.4112(5)
H11 H 0.0790 -0.0827 1.3966
C14 C 0.3825(5) 0.2939(4) 1.0918(4)
H12 H 0.2890 0.3264 1.1316
H13 H 0.4340 0.3070 1.1406
C15 C 0.3913(5) 0.1561(4) 1.0900(4)
H14 H 0.4855 0.1225 1.0561
H15 H 0.3461 0.1435 1.0356
C16 C 0.3272(5) 0.0832(4) 1.2203(4)
H16 H 0.3728 0.0942 1.2750
H17 H 0.2328 0.1161 1.2548
C17 C 0.3383(6) -0.0549(5) 1.2125(4)
H18 H 0.2885 -0.0652 1.1611
H19 H 0.4324 -0.0854 1.1724
Cd1_2 Cd 0.35553(3) -0.41210(3) 1.63904(3)
Cd1A Cd 0.64447(3) 0.41210(3) 0.36096(3)
N5_2 N 0.2837(4) 0.7306(3) 0.4996(3)
O3A O 0.5898(3) 0.5840(3) 0.4920(3)
O6 O 0.2431(6) 0.7917(6) 0.9495(5)
H20 H 0.2173 0.7577 0.9037
H21 H 0.2630 0.8645 0.9127
O7 O 0.2860(6) 0.0212(5) 0.6141(6)
H22 H 0.3458 -0.0406 0.6182
H23 H 0.3240 0.0814 0.5625
O8 O 0.9219(7) 0.8450(6) 0.0209(6)
H24 H 0.9111 0.7823 -0.0061
H25 H 1.0057 0.8429 0.0074
O9 O 0.6759(7) 0.9435(7) 0.1660(7)
H26 H 0.7521 0.9124 0.1196
H27 H 0.6843 0.9546 0.2328
O10 O 0.0449(10) 0.9408(12) 0.7444(11)
H28 H 0.1239 0.9632 0.7161
H29 H 0.0246 0.9161 0.8221
O11? O 0.0035(13) 1.0357(15) 0.8025(13)
H30? H 0.0853 1.0241 0.7550
H31? H -0.0106 0.9761 0.8630
loop_
_geom_bond_atom_site_label_1
_geom_bond_atom_site_label_2
_geom_bond_site_symmetry_1
_geom_bond_site_symmetry_2
Cd1 N1 1_555 1_555
N1 C2 1_555 1_555
N2 C8 1_555 1_555
N3 Cd1 1_555 1_555
N4 C11 1_555 1_555
N5 C11 1_555 1_555
O1 Cd1 1_555 1_555
O2 C1 1_555 1_555
O3 Cd1 1_555 1_555
O4 C7 1_555 1_555
O5 Cd1 1_555 1_555
H1 O5 1_555 1_555
H2 O5 1_555 1_555
C1 O1 1_555 1_555
C2 C1 1_555 1_555
C3 C2 1_555 1_555
H3 C3 1_555 1_555
C4 C3 1_555 1_555
H4 C4 1_555 1_555
C5 C4 1_555 1_555
H5 C5 1_555 1_555
C6 N1 1_555 1_555
C7 O3 1_555 1_555
C8 N3 1_555 1_555
H6 C8 1_555 1_555
C9 N3 1_555 1_555
H7 C9 1_555 1_555
C10 N2 1_555 1_555
H8 C10 1_555 1_555
C11 H9 1_555 1_555
C12 N5 1_555 1_555
H10 C12 1_555 1_555
C13 N4 1_555 1_555
H11 C13 1_555 1_555
C14 N2 1_555 1_555
H12 C14 1_555 1_555
H13 C14 1_555 1_555
C15 C14 1_555 1_555
H14 C15 1_555 1_555
H15 C15 1_555 1_555
C16 C15 1_555 1_555
H16 C16 1_555 1_555
H17 C16 1_555 1_555
C17 N4 1_555 1_555
H18 C17 1_555 1_555
H19 C17 1_555 1_555
O6 H20 1_555 1_555
H21 O6 1_555 1_555
O7 H22 1_555 1_555
H23 O7 1_555 1_555
O8 H24 1_555 1_555
H25 O8 1_555 1_555
O9 H26 1_555 1_555
H27 O9 1_555 1_555
O10 H28 1_555 1_555
H29 O10 1_555 1_555
Cd1_2 N5 1_555 1_555
Cd1A O3 1_555 1_555
N5_2 Cd1 1_555 1_555
O3A Cd1 1_555 1_555
C5 C6 1_555 1_555
C6 C7 1_555 1_555
C9 C10 1_555 1_555
C12 C13 1_555 1_555
C16 C17 1_555 1_555
Cd1A O3A 1_555 1_555

#END
