
#######################################################################
#
#                 Cambridge Crystallographic Data Centre
#                                CCDC 
#
#######################################################################
#
# If this CIF has been generated from an entry in the Cambridge 
# Structural Database, then it will include bibliographic, chemical, 
# crystal, experimental, refinement or atomic coordinate data resulting 
# from the CCDC's data processing and validation procedures.
#
#######################################################################

data_MOKZET
_symmetry_cell_setting           monoclinic
_symmetry_space_group_name_H-M   'P 21/c'
_symmetry_Int_Tables_number      14
_space_group_name_Hall           '-P 2ybc'
loop_
_symmetry_equiv_pos_site_id
_symmetry_equiv_pos_as_xyz
1 x,y,z
2 -x,1/2+y,1/2-z
3 -x,-y,-z
4 x,1/2-y,1/2+z
_cell_length_a                   16.9774(19)
_cell_length_b                   17.280(2)
_cell_length_c                   17.340(2)
_cell_angle_alpha                90
_cell_angle_beta                 95.3410(10)
_cell_angle_gamma                90
_cell_volume                     5064.94
loop_
_atom_site_label
_atom_site_type_symbol
_atom_site_fract_x
_atom_site_fract_y
_atom_site_fract_z
Zn1 Zn 0.25636(8) 0.52718(8) 0.28676(8)
N1 N 0.2430(5) 0.5531(6) 0.3957(6)
N2 N 0.4508(6) 0.5377(6) 0.1639(6)
N3 N 0.3540(6) 0.5505(6) 0.2366(6)
N4 N 0.0522(6) 0.4786(7) 0.1505(6)
N5 N 0.1670(6) 0.4851(6) 0.2204(6)
O1 O 0.2934(5) 0.4213(5) 0.3482(5)
O2 O 0.2982(6) 0.3687(6) 0.4646(6)
O3 O 0.2139(5) 0.6457(5) 0.2819(5)
O4 O 0.1643(6) 0.7376(5) 0.3568(6)
C1 C 0.2835(7) 0.4226(8) 0.4227(8)
C2 C 0.2573(6) 0.5038(8) 0.4549(8)
C3 C 0.2489(6) 0.5132(7) 0.5335(7)
H1 H 0.2598 0.4751 0.5709
C4 C 0.2220(7) 0.5873(8) 0.5486(8)
H2 H 0.2146 0.6002 0.5995
C5 C 0.2054(7) 0.6431(8) 0.4915(8)
H3 H 0.1884 0.6923 0.5037
C6 C 0.2153(6) 0.6226(7) 0.4157(7)
C7 C 0.1974(7) 0.6730(8) 0.3447(8)
C8 C 0.3925(7) 0.5007(8) 0.1950(7)
H4 H 0.3806 0.4484 0.1887
C9 C 0.3889(8) 0.6220(8) 0.2307(7)
H5 H 0.3729 0.6678 0.2527
C10 C 0.4499(8) 0.6138(8) 0.1879(8)
H6 H 0.4852 0.6523 0.1764
C11 C 0.5009(8) 0.5035(8) 0.1109(8)
H7 H 0.5034 0.4481 0.1201
H8 H 0.5540 0.5240 0.1219
C12 C 0.4749(8) 0.5171(8) 0.0284(8)
H9 H 0.4720 0.5725 0.0198
H10 H 0.4217 0.4967 0.0180
C13 C 0.1042(8) 0.5272(9) 0.1859(7)
H11 H 0.0992 0.5807 0.1872
C14 C 0.1488(8) 0.4085(8) 0.2011(7)
H12 H 0.1788 0.3653 0.2169
C15 C 0.0790(8) 0.4081(9) 0.1550(8)
H13 H 0.0549 0.3649 0.1310
C16 C -0.0266(8) 0.5041(9) 0.1092(8)
H14 H -0.0488 0.5461 0.1373
H15 H -0.0638 0.4614 0.1058
C17 C -0.0093(9) 0.5331(8) 0.0217(9)
H16 H -0.0556 0.5589 -0.0033
H17 H 0.0346 0.5693 0.0250
N2B N 0.5492(6) 0.4623(6) -0.1639(6)
N3B N 0.6460(6) 0.4495(6) -0.2366(6)
C8B C 0.6075(7) 0.4993(8) -0.1950(7)
H4B H 0.6194 0.5516 -0.1887
C9B C 0.6111(8) 0.3780(8) -0.2307(7)
H5B H 0.6271 0.3322 -0.2527
C10B C 0.5501(8) 0.3862(8) -0.1879(8)
H6B H 0.5148 0.3477 -0.1764
C11B C 0.4991(8) 0.4965(8) -0.1109(8)
H7B H 0.4966 0.5519 -0.1201
H8B H 0.4460 0.4760 -0.1219
C12B C 0.5251(8) 0.4829(8) -0.0284(8)
H9B H 0.5280 0.4275 -0.0198
H10B H 0.5783 0.5033 -0.0180
N4B N -0.0522(6) 0.5214(7) -0.1505(6)
N5B N -0.1670(6) 0.5149(6) -0.2204(6)
C13B C -0.1042(8) 0.4728(9) -0.1859(7)
H11B H -0.0992 0.4193 -0.1872
C14B C -0.1488(8) 0.5915(8) -0.2011(7)
H12B H -0.1788 0.6347 -0.2169
C15B C -0.0790(8) 0.5919(9) -0.1550(8)
H13B H -0.0549 0.6351 -0.1310
C16B C 0.0266(8) 0.4959(9) -0.1092(8)
H14B H 0.0488 0.4539 -0.1373
H15B H 0.0638 0.5386 -0.1058
C17B C 0.0093(9) 0.4669(8) -0.0217(9)
H16B H 0.0556 0.4411 0.0033
H17B H -0.0346 0.4307 -0.0250
Zn1B Zn -0.25636(8) 0.47282(8) -0.28676(8)
N1B N -0.2430(5) 0.4469(6) -0.3957(6)
O1B O -0.2934(5) 0.5787(5) -0.3482(5)
O2B O -0.2982(6) 0.6313(6) -0.4646(6)
O3B O -0.2139(5) 0.3543(5) -0.2819(5)
O4B O -0.1643(6) 0.2624(5) -0.3568(6)
C1B C -0.2835(7) 0.5774(8) -0.4227(8)
C2B C -0.2573(6) 0.4962(8) -0.4549(8)
C3B C -0.2489(6) 0.4868(7) -0.5335(7)
H1B H -0.2598 0.5249 -0.5709
C4B C -0.2220(7) 0.4127(8) -0.5486(8)
H2B H -0.2146 0.3998 -0.5995
C5B C -0.2054(7) 0.3569(8) -0.4915(8)
H3B H -0.1884 0.3077 -0.5037
C6B C -0.2153(6) 0.3774(7) -0.4157(7)
C7B C -0.1974(7) 0.3270(8) -0.3447(8)
Zn1B_2 Zn 0.74364(8) 0.47282(8) -0.28676(8)
N3B_2 N -0.3540(6) 0.4495(6) -0.2366(6)
Zn2 Zn 0.25146(8) 0.51291(8) 0.78854(8)
N6 N 0.2629(5) 0.5470(6) 0.9018(6)
N7 N 0.0368(7) 0.5141(7) 0.6552(7)
N8 N 0.1490(6) 0.5325(6) 0.7296(6)
N9 N 0.4296(6) 0.4578(6) 0.6544(6)
N10 N 0.3311(5) 0.4673(6) 0.7272(6)
O5 O 0.2168(5) 0.4110(5) 0.8508(5)
O6 O 0.1942(6) 0.3724(6) 0.9691(7)
O7 O 0.2978(5) 0.6286(4) 0.7848(5)
O8 O 0.3525(6) 0.7249(6) 0.8579(6)
C18 C 0.2155(7) 0.4183(7) 0.9206(8)
C19 C 0.2450(7) 0.5014(7) 0.9596(7)
C20 C 0.2446(7) 0.5265(8) 1.0335(8)
H18 H 0.2309 0.4941 1.0730
C21 C 0.2653(7) 0.6015(9) 1.0468(8)
H19 H 0.2606 0.6231 1.0953
C22 C 0.2923(7) 0.6444(8) 0.9912(8)
H20 H 0.3128 0.6934 1.0026
C23 C 0.2900(7) 0.6161(7) 0.9171(7)
C24 C 0.3173(8) 0.6594(8) 0.8477(8)
C25 C 0.1049(8) 0.4807(8) 0.6837(8)
H21 H 0.1199 0.4302 0.6738
C26 C 0.1075(8) 0.6008(8) 0.7238(8)
H22 H 0.1223 0.6469 0.7486
C27 C 0.0409(8) 0.5890(8) 0.6753(8)
H23 H 0.0041 0.6269 0.6587
C28 C -0.0257(8) 0.4768(9) 0.6045(8)
H24 H -0.0732 0.5083 0.6026
H25 H -0.0378 0.4268 0.6260
C29 C 0.0000(11) 0.4647(8) 0.5157(10)
H26 H 0.0522 0.4416 0.5170
H27 H -0.0375 0.4313 0.4861
C30 C 0.3886(7) 0.5053(7) 0.6945(7)
H28 H 0.3981 0.5581 0.6997
C31 C 0.3366(7) 0.3925(7) 0.7049(7)
H29 H 0.3045 0.3520 0.7183
C32 C 0.3991(8) 0.3871(8) 0.6582(8)
H30 H 0.4161 0.3427 0.6343
C33 C 0.4919(7) 0.4831(7) 0.6074(7)
H31 H 0.5111 0.5331 0.6264
H32 H 0.5356 0.4469 0.6151
C34 C 0.4689(7) 0.4897(8) 0.5245(7)
H33 H 0.4274 0.5283 0.5170
H34 H 0.4464 0.4407 0.5065
N7B N -0.0368(7) 0.4859(7) 0.3448(7)
N8B N -0.1490(6) 0.4675(6) 0.2704(6)
C25B C -0.1049(8) 0.5193(8) 0.3163(8)
H21B H -0.1199 0.5698 0.3262
C26B C -0.1075(8) 0.3992(8) 0.2762(8)
H22B H -0.1223 0.3531 0.2514
C27B C -0.0409(8) 0.4110(8) 0.3247(8)
H23B H -0.0041 0.3731 0.3413
C28B C 0.0257(8) 0.5232(9) 0.3955(8)
H24B H 0.0732 0.4917 0.3974
H25B H 0.0378 0.5732 0.3740
C29B C 0.0000(11) 0.5353(8) 0.4843(10)
H26B H -0.0522 0.5584 0.4830
H27B H 0.0375 0.5687 0.5139
N9B N 0.5704(6) 0.5422(6) 0.3456(6)
N10B N 0.6689(5) 0.5327(6) 0.2728(6)
C30B C 0.6114(7) 0.4947(7) 0.3055(7)
H28B H 0.6019 0.4419 0.3003
C31B C 0.6634(7) 0.6075(7) 0.2951(7)
H29B H 0.6955 0.6480 0.2817
C32B C 0.6009(8) 0.6129(8) 0.3418(8)
H30B H 0.5839 0.6573 0.3657
C33B C 0.5081(7) 0.5169(7) 0.3926(7)
H31B H 0.4889 0.4669 0.3736
H32B H 0.4644 0.5531 0.3849
C34B C 0.5311(7) 0.5103(8) 0.4755(7)
H33B H 0.5726 0.4717 0.4830
H34B H 0.5536 0.5593 0.4935
Zn2B Zn -0.25146(8) 0.48709(8) 0.21146(8)
N6B N -0.2629(5) 0.4530(6) 0.0982(6)
O5B O -0.2168(5) 0.5890(5) 0.1492(5)
O6B O -0.1942(6) 0.6276(6) 0.0309(7)
O7B O -0.2978(5) 0.3714(4) 0.2152(5)
O8B O -0.3525(6) 0.2751(6) 0.1421(6)
C18B C -0.2155(7) 0.5817(7) 0.0794(8)
C19B C -0.2450(7) 0.4986(7) 0.0404(7)
C20B C -0.2446(7) 0.4735(8) -0.0335(8)
H18B H -0.2309 0.5059 -0.0730
C21B C -0.2653(7) 0.3985(9) -0.0468(8)
H19B H -0.2606 0.3769 -0.0953
C22B C -0.2923(7) 0.3556(8) 0.0088(8)
H20B H -0.3128 0.3066 -0.0026
C23B C -0.2900(7) 0.3839(7) 0.0829(7)
C24B C -0.3173(8) 0.3406(8) 0.1523(8)
Zn2B_2 Zn 0.74854(8) 0.48709(8) 0.21146(8)
N10B_2 N -0.3311(5) 0.5327(6) 0.2728(6)
loop_
_geom_bond_atom_site_label_1
_geom_bond_atom_site_label_2
_geom_bond_site_symmetry_1
_geom_bond_site_symmetry_2
Zn1 N1 1_555 1_555
N1 C2 1_555 1_555
N2 C8 1_555 1_555
N3 Zn1 1_555 1_555
N4 C13 1_555 1_555
N5 Zn1 1_555 1_555
O1 Zn1 1_555 1_555
O2 C1 1_555 1_555
O3 Zn1 1_555 1_555
O4 C7 1_555 1_555
C1 O1 1_555 1_555
C2 C1 1_555 1_555
C3 C2 1_555 1_555
H1 C3 1_555 1_555
C4 C3 1_555 1_555
H2 C4 1_555 1_555
C5 C4 1_555 1_555
H3 C5 1_555 1_555
C6 N1 1_555 1_555
C7 O3 1_555 1_555
C8 N3 1_555 1_555
H4 C8 1_555 1_555
C9 N3 1_555 1_555
H5 C9 1_555 1_555
C10 N2 1_555 1_555
H6 C10 1_555 1_555
C11 N2 1_555 1_555
H7 C11 1_555 1_555
H8 C11 1_555 1_555
C12 C11 1_555 1_555
H9 C12 1_555 1_555
H10 C12 1_555 1_555
C13 N5 1_555 1_555
H11 C13 1_555 1_555
C14 N5 1_555 1_555
H12 C14 1_555 1_555
C15 N4 1_555 1_555
H13 C15 1_555 1_555
C16 N4 1_555 1_555
H14 C16 1_555 1_555
H15 C16 1_555 1_555
C17 C16 1_555 1_555
H16 C17 1_555 1_555
H17 C17 1_555 1_555
Zn2 N6 1_555 1_555
N6 C19 1_555 1_555
N7 C25 1_555 1_555
N8 Zn2 1_555 1_555
N9 C30 1_555 1_555
N10 Zn2 1_555 1_555
O5 Zn2 1_555 1_555
O6 C18 1_555 1_555
O7 Zn2 1_555 1_555
O8 C24 1_555 1_555
C18 O5 1_555 1_555
C19 C18 1_555 1_555
C20 C19 1_555 1_555
H18 C20 1_555 1_555
C21 C20 1_555 1_555
H19 C21 1_555 1_555
C22 C21 1_555 1_555
H20 C22 1_555 1_555
C23 N6 1_555 1_555
C24 O7 1_555 1_555
C25 N8 1_555 1_555
H21 C25 1_555 1_555
C26 N8 1_555 1_555
H22 C26 1_555 1_555
C27 N7 1_555 1_555
H23 C27 1_555 1_555
C28 N7 1_555 1_555
H24 C28 1_555 1_555
H25 C28 1_555 1_555
C29 C28 1_555 1_555
H26 C29 1_555 1_555
H27 C29 1_555 1_555
C30 N10 1_555 1_555
H28 C30 1_555 1_555
C31 N10 1_555 1_555
H29 C31 1_555 1_555
C32 N9 1_555 1_555
H30 C32 1_555 1_555
C33 N9 1_555 1_555
H31 C33 1_555 1_555
H32 C33 1_555 1_555
C34 C33 1_555 1_555
H33 C34 1_555 1_555
H34 C34 1_555 1_555
N2B C8B 1_555 1_555
N3B C8B 1_555 1_555
C8B H4B 1_555 1_555
C9B N3B 1_555 1_555
H5B C9B 1_555 1_555
C10B N2B 1_555 1_555
H6B C10B 1_555 1_555
C11B N2B 1_555 1_555
H7B C11B 1_555 1_555
H8B C11B 1_555 1_555
C12B C12 1_555 1_555
H9B C12B 1_555 1_555
H10B C12B 1_555 1_555
N4B C13B 1_555 1_555
N5B C13B 1_555 1_555
C13B H11B 1_555 1_555
C14B N5B 1_555 1_555
H12B C14B 1_555 1_555
C15B N4B 1_555 1_555
H13B C15B 1_555 1_555
C16B N4B 1_555 1_555
H14B C16B 1_555 1_555
H15B C16B 1_555 1_555
C17B C17 1_555 1_555
H16B C17B 1_555 1_555
H17B C17B 1_555 1_555
Zn1B N5B 1_555 1_555
N1B Zn1B 1_555 1_555
O1B Zn1B 1_555 1_555
O2B C1B 1_555 1_555
O3B Zn1B 1_555 1_555
O4B C7B 1_555 1_555
C1B O1B 1_555 1_555
C2B N1B 1_555 1_555
C3B C2B 1_555 1_555
H1B C3B 1_555 1_555
C4B C3B 1_555 1_555
H2B C4B 1_555 1_555
C5B C4B 1_555 1_555
H3B C5B 1_555 1_555
C6B N1B 1_555 1_555
C7B O3B 1_555 1_555
Zn1B_2 N3B 1_555 1_555
N3B_2 Zn1B 1_555 1_555
N7B C25B 1_555 1_555
N8B C25B 1_555 1_555
C25B H21B 1_555 1_555
C26B N8B 1_555 1_555
H22B C26B 1_555 1_555
C27B N7B 1_555 1_555
H23B C27B 1_555 1_555
C28B N7B 1_555 1_555
H24B C28B 1_555 1_555
H25B C28B 1_555 1_555
C29B C29 1_555 1_555
H26B C29B 1_555 1_555
H27B C29B 1_555 1_555
N9B C30B 1_555 1_555
N10B C30B 1_555 1_555
C30B H28B 1_555 1_555
C31B N10B 1_555 1_555
H29B C31B 1_555 1_555
C32B N9B 1_555 1_555
H30B C32B 1_555 1_555
C33B N9B 1_555 1_555
H31B C33B 1_555 1_555
H32B C33B 1_555 1_555
C34B C34 1_555 1_555
H33B C34B 1_555 1_555
H34B C34B 1_555 1_555
Zn2B N8B 1_555 1_555
N6B Zn2B 1_555 1_555
O5B Zn2B 1_555 1_555
O6B C18B 1_555 1_555
O7B Zn2B 1_555 1_555
O8B C24B 1_555 1_555
C18B O5B 1_555 1_555
C19B N6B 1_555 1_555
C20B C19B 1_555 1_555
H18B C20B 1_555 1_555
C21B C20B 1_555 1_555
H19B C21B 1_555 1_555
C22B C21B 1_555 1_555
H20B C22B 1_555 1_555
C23B N6B 1_555 1_555
C24B O7B 1_555 1_555
Zn2B_2 N10B 1_555 1_555
N10B_2 Zn2B 1_555 1_555
C5 C6 1_555 1_555
C6 C7 1_555 1_555
C9 C10 1_555 1_555
C14 C15 1_555 1_555
C22 C23 1_555 1_555
C23 C24 1_555 1_555
C26 C27 1_555 1_555
C31 C32 1_555 1_555
C9B C10B 1_555 1_555
C11B C12B 1_555 1_555
C14B C15B 1_555 1_555
C16B C17B 1_555 1_555
C1B C2B 1_555 1_555
C5B C6B 1_555 1_555
C6B C7B 1_555 1_555
C26B C27B 1_555 1_555
C28B C29B 1_555 1_555
C31B C32B 1_555 1_555
C33B C34B 1_555 1_555
C18B C19B 1_555 1_555
C22B C23B 1_555 1_555
C23B C24B 1_555 1_555

#END
