
#######################################################################
#
#                 Cambridge Crystallographic Data Centre
#                                CCDC 
#
#######################################################################
#
# If this CIF has been generated from an entry in the Cambridge 
# Structural Database, then it will include bibliographic, chemical, 
# crystal, experimental, refinement or atomic coordinate data resulting 
# from the CCDC's data processing and validation procedures.
#
#######################################################################

data_MOLBAS
_symmetry_cell_setting           triclinic
_symmetry_space_group_name_H-M   'P -1'
_symmetry_Int_Tables_number      2
_space_group_name_Hall           '-P 1'
loop_
_symmetry_equiv_pos_site_id
_symmetry_equiv_pos_as_xyz
1 x,y,z
2 -x,-y,-z
_cell_length_a                   8.8428(7)
_cell_length_b                   9.1236(7)
_cell_length_c                   13.6962(11)
_cell_angle_alpha                77.1490(10)
_cell_angle_beta                 79.5030(10)
_cell_angle_gamma                87.5030(10)
_cell_volume                     1059.27
loop_
_atom_site_label
_atom_site_type_symbol
_atom_site_fract_x
_atom_site_fract_y
_atom_site_fract_z
Cu1 Cu 0.07405(6) 0.21582(6) 0.09340(4)
O1 O 0.1761(3) 0.0423(3) 0.0285(2)
O2 O -0.0541(3) 0.4003(3) 0.1258(2)
O3 O -0.1139(3) 0.6338(3) 0.0527(2)
O4 O 0.1184(3) -0.1340(3) -0.0483(2)
O5 O 0.1586(4) 0.4426(4) 0.3845(3)
O6 O 0.6406(4) 0.8883(4) 0.5503(2)
N1 N 0.2796(4) 0.3009(4) 0.1206(3)
N2 N 1.0185(4) 1.0711(4) 0.2413(2)
N3 N 0.3930(4) 0.5185(4) 0.2923(3)
H1 H 0.4679 0.5781 0.2878
N4 N 0.6943(4) 0.8389(4) 0.3922(3)
H2 H 0.6590 0.8019 0.3484
N5 N 0.4354(4) 0.6729(4) 0.4324(2)
C1 C 0.0853(4) -0.0269(4) -0.0058(3)
C2 C -0.0478(4) 0.5103(4) 0.0513(3)
C3 C 0.2717(5) 0.3822(5) 0.1919(3)
H3 H 0.1755 0.4018 0.2273
C4 C 0.4175(5) 0.2748(5) 0.0696(3)
H4 H 0.4236 0.2181 0.0203
C5 C 0.5514(5) 0.3278(6) 0.0865(4)
H5 H 0.6457 0.3080 0.0490
C6 C 0.5436(5) 0.4111(5) 0.1604(3)
H6 H 0.6325 0.4483 0.1733
C7 C 0.4008(5) 0.4382(4) 0.2148(3)
C8 C 0.2780(5) 0.5100(5) 0.3732(3)
C9 C 0.3077(4) 0.5908(4) 0.4526(3)
C10 C 0.2026(5) 0.5746(5) 0.5425(3)
H7 H 0.1162 0.5144 0.5537
C11 C 0.2282(5) 0.6490(5) 0.6149(3)
H8 H 0.1588 0.6412 0.6756
C12 C 0.3592(5) 0.7359(5) 0.5955(3)
H9 H 0.3795 0.7880 0.6428
C13 C 0.4598(5) 0.7434(4) 0.5038(3)
C14 C 0.6064(5) 0.8320(5) 0.4847(3)
C15 C 0.8423(5) 0.9042(5) 0.3644(3)
C16 C 0.8793(5) 1.0078(5) 0.2734(3)
H10 H 0.8046 1.0346 0.2328
C17 C 1.1240(5) 1.0326(5) 0.3017(3)
H11 H 1.2209 1.0761 0.2805
C18 C 1.0947(5) 0.9314(5) 0.3936(3)
H12 H 1.1703 0.9083 0.4338
C19 C 0.9530(5) 0.8650(5) 0.4254(3)
H13 H 0.9316 0.7949 0.4868
O1A O -0.1761(3) -0.0423(3) -0.0285(2)
O4A O -0.1184(3) 0.1340(3) 0.0483(2)
C1A C -0.0853(4) 0.0269(4) 0.0058(3)
O2A O 0.0541(3) 0.5997(3) -0.1258(2)
C2A C 0.0478(4) 0.4897(4) -0.0513(3)
O3A O 0.1139(3) 0.3662(3) -0.0527(2)
Cu1A Cu -0.07405(6) -0.21582(6) -0.09340(4)
O5A O -0.1586(4) -0.4426(4) -0.3845(3)
O6A O -0.6406(4) -0.8883(4) -0.5503(2)
N1A N -0.2796(4) -0.3009(4) -0.1206(3)
N2A N -1.0185(4) -1.0711(4) -0.2413(2)
N3A N -0.3930(4) -0.5185(4) -0.2923(3)
H1A H -0.4679 -0.5781 -0.2878
N4A N -0.6943(4) -0.8389(4) -0.3922(3)
H2A H -0.6590 -0.8019 -0.3484
N5A N -0.4354(4) -0.6729(4) -0.4324(2)
C3A C -0.2717(5) -0.3822(5) -0.1919(3)
H3A H -0.1755 -0.4018 -0.2273
C4A C -0.4175(5) -0.2748(5) -0.0696(3)
H4A H -0.4236 -0.2181 -0.0203
C5A C -0.5514(5) -0.3278(6) -0.0865(4)
H5A H -0.6457 -0.3080 -0.0490
C6A C -0.5436(5) -0.4111(5) -0.1604(3)
H6A H -0.6325 -0.4483 -0.1733
C7A C -0.4008(5) -0.4382(4) -0.2148(3)
C8A C -0.2780(5) -0.5100(5) -0.3732(3)
C9A C -0.3077(4) -0.5908(4) -0.4526(3)
C10A C -0.2026(5) -0.5746(5) -0.5425(3)
H7A H -0.1162 -0.5144 -0.5537
C11A C -0.2282(5) -0.6490(5) -0.6149(3)
H8A H -0.1588 -0.6412 -0.6756
C12A C -0.3592(5) -0.7359(5) -0.5955(3)
H9A H -0.3795 -0.7880 -0.6428
C13A C -0.4598(5) -0.7434(4) -0.5038(3)
C14A C -0.6064(5) -0.8320(5) -0.4847(3)
C15A C -0.8423(5) -0.9042(5) -0.3644(3)
C16A C -0.8793(5) -1.0078(5) -0.2734(3)
H10A H -0.8046 -1.0346 -0.2328
C17A C -1.1240(5) -1.0326(5) -0.3017(3)
H11A H -1.2209 -1.0761 -0.2805
C18A C -1.0947(5) -0.9314(5) -0.3936(3)
H12A H -1.1703 -0.9083 -0.4338
C19A C -0.9530(5) -0.8650(5) -0.4254(3)
H13A H -0.9316 -0.7949 -0.4868
Cu1_2 Cu 1.07405(6) 1.21582(6) 0.09340(4)
Cu1A_2 Cu -1.07405(6) -1.21582(6) -0.09340(4)
Cu1A_3 Cu -0.07405(6) 0.78418(6) -0.09340(4)
O2A_2 O 0.0541(3) -0.4003(3) -0.1258(2)
O3_2 O -0.1139(3) -0.3662(3) 0.0527(2)
N2_2 N 0.0185(4) 0.0711(4) 0.2413(2)
N2A_2 N -0.0185(4) -0.0711(4) -0.2413(2)
O7 O 0.3952(8) 0.8609(8) 0.1329(5)
H14 H 0.3327 0.8682 0.1865
H15 H 0.3695 0.9262 0.0837
O8 O 0.6620(4) 0.7374(4) 0.2069(3)
H16 H 0.6710 0.8139 0.1576
H17 H 0.7441 0.6860 0.1998
loop_
_geom_bond_atom_site_label_1
_geom_bond_atom_site_label_2
_geom_bond_site_symmetry_1
_geom_bond_site_symmetry_2
Cu1 O1 1_555 1_555
O1 C1 1_555 1_555
O2 Cu1 1_555 1_555
O3 C2 1_555 1_555
O4 C1 1_555 1_555
O5 C8 1_555 1_555
O6 C14 1_555 1_555
N1 Cu1 1_555 1_555
N2 C16 1_555 1_555
N3 H1 1_555 1_555
N4 H2 1_555 1_555
N5 C9 1_555 1_555
C1 C1A 1_555 1_555
C2 O2 1_555 1_555
C3 N1 1_555 1_555
H3 C3 1_555 1_555
C4 N1 1_555 1_555
H4 C4 1_555 1_555
C5 C4 1_555 1_555
H5 C5 1_555 1_555
C6 C5 1_555 1_555
H6 C6 1_555 1_555
C7 N3 1_555 1_555
C8 N3 1_555 1_555
C9 C8 1_555 1_555
C10 C9 1_555 1_555
H7 C10 1_555 1_555
C11 C10 1_555 1_555
H8 C11 1_555 1_555
C12 C11 1_555 1_555
H9 C12 1_555 1_555
C13 N5 1_555 1_555
C14 N4 1_555 1_555
C15 N4 1_555 1_555
C16 C15 1_555 1_555
H10 C16 1_555 1_555
C17 N2 1_555 1_555
H11 C17 1_555 1_555
C18 C17 1_555 1_555
H12 C18 1_555 1_555
C19 C15 1_555 1_555
H13 C19 1_555 1_555
O7 H14 1_555 1_555
H15 O7 1_555 1_555
O8 H16 1_555 1_555
H17 O8 1_555 1_555
O1A C1A 1_555 1_555
O4A Cu1 1_555 1_555
C1A O4A 1_555 1_555
O2A C2A 1_555 1_555
C2A C2 1_555 1_555
O3A Cu1 1_555 1_555
Cu1A O4 1_555 1_555
O5A C8A 1_555 1_555
O6A C14A 1_555 1_555
N1A Cu1A 1_555 1_555
N2A C16A 1_555 1_555
N3A H1A 1_555 1_555
N4A H2A 1_555 1_555
N5A C9A 1_555 1_555
C3A N1A 1_555 1_555
H3A C3A 1_555 1_555
C4A N1A 1_555 1_555
H4A C4A 1_555 1_555
C5A C4A 1_555 1_555
H5A C5A 1_555 1_555
C6A C5A 1_555 1_555
H6A C6A 1_555 1_555
C7A N3A 1_555 1_555
C8A N3A 1_555 1_555
C9A C8A 1_555 1_555
C10A C9A 1_555 1_555
H7A C10A 1_555 1_555
C11A C10A 1_555 1_555
H8A C11A 1_555 1_555
C12A C11A 1_555 1_555
H9A C12A 1_555 1_555
C13A N5A 1_555 1_555
C14A N4A 1_555 1_555
C15A N4A 1_555 1_555
C16A C15A 1_555 1_555
H10A C16A 1_555 1_555
C17A N2A 1_555 1_555
H11A C17A 1_555 1_555
C18A C17A 1_555 1_555
H12A C18A 1_555 1_555
C19A C15A 1_555 1_555
H13A C19A 1_555 1_555
Cu1_2 N2 1_555 1_555
Cu1A_2 N2A 1_555 1_555
Cu1A_3 O3 1_555 1_555
O2A_2 Cu1A 1_555 1_555
O3_2 Cu1A 1_555 1_555
N2_2 Cu1 1_555 1_555
N2A_2 Cu1A 1_555 1_555
C3 C7 1_555 1_555
C6 C7 1_555 1_555
C12 C13 1_555 1_555
C13 C14 1_555 1_555
C18 C19 1_555 1_555
O1A Cu1A 1_555 1_555
O2A Cu1A_3 1_555 1_555
C2A O3A 1_555 1_555
C3A C7A 1_555 1_555
C6A C7A 1_555 1_555
C12A C13A 1_555 1_555
C13A C14A 1_555 1_555
C18A C19A 1_555 1_555

#END
