
#######################################################################
#
#                 Cambridge Crystallographic Data Centre
#                                CCDC 
#
#######################################################################
#
# If this CIF has been generated from an entry in the Cambridge 
# Structural Database, then it will include bibliographic, chemical, 
# crystal, experimental, refinement or atomic coordinate data resulting 
# from the CCDC's data processing and validation procedures.
#
#######################################################################

data_MOLBAR
_symmetry_cell_setting           monoclinic
_symmetry_space_group_name_H-M   'P 21/c'
_symmetry_Int_Tables_number      14
_space_group_name_Hall           '-P 2ybc'
loop_
_symmetry_equiv_pos_site_id
_symmetry_equiv_pos_as_xyz
1 x,y,z
2 -x,1/2+y,1/2-z
3 -x,-y,-z
4 x,1/2-y,1/2+z
_cell_length_a                   13.4134(3)
_cell_length_b                   10.3270(3)
_cell_length_c                   22.1028(6)
_cell_angle_alpha                90
_cell_angle_beta                 101.9000(10)
_cell_angle_gamma                90
_cell_volume                     2995.89
loop_
_atom_site_label
_atom_site_type_symbol
_atom_site_fract_x
_atom_site_fract_y
_atom_site_fract_z
Mn1 Mn 0.5000 0.5000 0.5000
O1 O 0.54549(11) 0.63488(14) 0.43921(7)
O2 O 0.42438(14) 0.38670(19) 0.41921(8)
O3 O 0.34512(13) 0.58875(17) 0.49089(8)
P1 P 0.57901(4) 0.75716(5) 0.41302(2)
C1 C 0.48769(15) 0.8007(2) 0.34365(9)
C2 C 0.48610(17) 0.9224(2) 0.31593(10)
H1 H 0.5328 0.9875 0.3341
C3 C 0.41556(19) 0.9477(2) 0.26148(10)
H2 H 0.4130 1.0311 0.2431
C4 C 0.34912(18) 0.8517(2) 0.23411(10)
H3 H 0.3019 0.8692 0.1967
C5 C 0.35126(18) 0.7307(2) 0.26096(11)
H4 H 0.3063 0.6648 0.2416
C6 C 0.41939(16) 0.7051(2) 0.31641(10)
H5 H 0.4193 0.6228 0.3356
C7 C 0.69898(15) 0.7360(2) 0.38963(9)
C8 C 0.75600(18) 0.8420(2) 0.37671(11)
H6 H 0.7331 0.9277 0.3817
C9 C 0.84620(19) 0.8218(3) 0.35648(13)
H7 H 0.8855 0.8937 0.3481
C10 C 0.87897(18) 0.6967(3) 0.34848(12)
H8 H 0.9399 0.6833 0.3338
C11 C 0.82342(17) 0.5915(2) 0.36184(11)
H9 H 0.8466 0.5061 0.3566
C12 C 0.73358(16) 0.6106(2) 0.38298(10)
H10 H 0.6960 0.5384 0.3928
C13 C 0.59240(15) 0.8934(2) 0.46444(9)
H11 H 0.6392 0.8696 0.5036
H12 H 0.6241 0.9656 0.4457
C14 C 0.49196(15) 0.9407(2) 0.47908(9)
H13 H 0.4440 0.9626 0.4401
H14 H 0.4612 0.8705 0.4996
C15 C 0.4599(2) 0.3111(3) 0.37399(14)
H15 H 0.4655 0.2197 0.3878
H16 H 0.5291 0.3411 0.3715
C16 C 0.3934(2) 0.3170(3) 0.31064(13)
H17 H 0.3271 0.2780 0.3115
H18 H 0.4258 0.2693 0.2816
H19 H 0.3838 0.4075 0.2974
H34 H 0.352(3) 0.351(4) 0.4229(18)
H35 H 0.302(3) 0.526(4) 0.4765(19)
H36 H 0.318(3) 0.637(4) 0.5163(19)
Mn1_2 Mn 0.5000 1.5000 0.5000
O1B O 0.45451(11) 1.36512(14) 0.56079(7)
O1B_2 O 0.45451(11) 0.36512(14) 0.56079(7)
O2B O 0.57562(14) 0.61330(19) 0.58079(8)
O3B O 0.65488(13) 0.41125(17) 0.50911(8)
P1B P 0.42099(4) 1.24284(5) 0.58698(2)
C1B C 0.51231(15) 1.1993(2) 0.65635(9)
C2B C 0.51390(17) 1.0776(2) 0.68407(10)
H1B H 0.4672 1.0125 0.6659
C3B C 0.58444(19) 1.0523(2) 0.73852(10)
H2B H 0.5870 0.9689 0.7569
C4B C 0.65088(18) 1.1483(2) 0.76589(10)
H3B H 0.6981 1.1308 0.8033
C5B C 0.64874(18) 1.2693(2) 0.73904(11)
H4B H 0.6937 1.3352 0.7584
C6B C 0.58061(16) 1.2949(2) 0.68359(10)
H5B H 0.5807 1.3772 0.6644
C7B C 0.30102(15) 1.2640(2) 0.61037(9)
C8B C 0.24400(18) 1.1580(2) 0.62329(11)
H6B H 0.2669 1.0723 0.6183
C9B C 0.15380(19) 1.1782(3) 0.64352(13)
H7B H 0.1145 1.1063 0.6519
C10B C 0.12103(18) 1.3033(3) 0.65152(12)
H8B H 0.0601 1.3167 0.6662
C11B C 0.17658(17) 1.4085(2) 0.63816(11)
H9B H 0.1534 1.4939 0.6434
C12B C 0.26642(16) 1.3894(2) 0.61702(10)
H10B H 0.3040 1.4616 0.6072
C13B C 0.40760(15) 1.1066(2) 0.53556(9)
H11B H 0.3608 1.1304 0.4964
H12B H 0.3759 1.0344 0.5543
C14B C 0.50804(15) 1.0593(2) 0.52092(9)
H13B H 0.5560 1.0374 0.5599
H14B H 0.5388 1.1295 0.5004
C15B C 0.5401(2) 0.6889(3) 0.62601(14)
H15B H 0.5345 0.7803 0.6122
H16B H 0.4709 0.6589 0.6285
C16B C 0.6066(2) 0.6830(3) 0.68936(13)
H17B H 0.6729 0.7220 0.6885
H18B H 0.5742 0.7307 0.7184
H19B H 0.6162 0.5925 0.7026
H34B H 0.648(3) 0.649(4) 0.5771(18)
H35B H 0.698(3) 0.474(4) 0.5235(19)
H36B H 0.682(3) 0.363(4) 0.4837(19)
O4 O 0.32591(14) 0.8477(2) 0.59908(11)
O5 O 0.17836(16) 0.84843(19) 0.62178(10)
O6 O 0.22340(16) 0.68865(18) 0.57033(9)
N1 N 0.24226(15) 0.79552(19) 0.59688(9)
O7 O 0.24516(11) 0.35852(16) 0.45062(7)
P2 P 0.14168(4) 0.30088(5) 0.42641(2)
C17 C 0.15004(16) 0.1269(2) 0.41961(10)
C18 C 0.1118(2) 0.0418(3) 0.45708(13)
H20 H 0.0718 0.0736 0.4847
C19 C 0.1310(2) -0.0898(3) 0.45488(14)
H21 H 0.1037 -0.1474 0.4808
C20 C 0.1893(2) -0.1376(3) 0.41554(13)
H22 H 0.2015 -0.2281 0.4139
C21 C 0.22986(19) -0.0542(3) 0.37873(12)
H23 H 0.2713 -0.0866 0.3521
C22 C 0.21033(18) 0.0779(2) 0.38039(11)
H24 H 0.2382 0.1352 0.3546
C23 C 0.08777(16) 0.3656(2) 0.35085(9)
C24 C -0.00681(17) 0.3234(2) 0.31805(10)
H25 H -0.0421 0.2561 0.3342
C25 C -0.04910(18) 0.3801(2) 0.26170(11)
H26 H -0.1135 0.3517 0.2392
C26 C 0.00246(19) 0.4782(3) 0.23824(11)
H27 H -0.0267 0.5167 0.1996
C27 C 0.0961(2) 0.5204(3) 0.27071(12)
H28 H 0.1311 0.5874 0.2543
C28 C 0.13894(18) 0.4649(2) 0.32719(11)
H29 H 0.2030 0.4945 0.3497
C29 C 0.05135(16) 0.3373(2) 0.47382(10)
H30 H -0.0160 0.3011 0.4544
H31 H 0.0735 0.2961 0.5148
C30 C 0.04168(16) 0.4840(2) 0.48209(10)
H32 H 0.1076 0.5190 0.5047
H33 H 0.0253 0.5260 0.4410
O7B O -0.24516(11) 0.64148(16) 0.54938(7)
P2B P -0.14168(4) 0.69912(5) 0.57359(2)
C17B C -0.15004(16) 0.8731(2) 0.58039(10)
C18B C -0.1118(2) 0.9582(3) 0.54292(13)
H20B H -0.0718 0.9264 0.5153
C19B C -0.1310(2) 1.0898(3) 0.54512(14)
H21B H -0.1037 1.1474 0.5192
C20B C -0.1893(2) 1.1376(3) 0.58446(13)
H22B H -0.2015 1.2281 0.5861
C21B C -0.22986(19) 1.0542(3) 0.62127(12)
H23B H -0.2713 1.0866 0.6479
C22B C -0.21033(18) 0.9221(2) 0.61961(11)
H24B H -0.2382 0.8648 0.6454
C23B C -0.08777(16) 0.6344(2) 0.64915(9)
C24B C 0.00681(17) 0.6766(2) 0.68195(10)
H25B H 0.0421 0.7439 0.6658
C25B C 0.04910(18) 0.6199(2) 0.73830(11)
H26B H 0.1135 0.6483 0.7608
C26B C -0.00246(19) 0.5218(3) 0.76176(11)
H27B H 0.0267 0.4833 0.8004
C27B C -0.0961(2) 0.4796(3) 0.72929(12)
H28B H -0.1311 0.4126 0.7457
C28B C -0.13894(18) 0.5351(2) 0.67281(11)
H29B H -0.2030 0.5055 0.6503
C29B C -0.05135(16) 0.6627(2) 0.52618(10)
H30B H 0.0160 0.6989 0.5456
H31B H -0.0735 0.7039 0.4852
C30B C -0.04168(16) 0.5160(2) 0.51791(10)
H32B H -0.1076 0.4810 0.4953
H33B H -0.0253 0.4740 0.5590
loop_
_geom_bond_atom_site_label_1
_geom_bond_atom_site_label_2
_geom_bond_site_symmetry_1
_geom_bond_site_symmetry_2
Mn1 O1 1_555 1_555
O1 P1 1_555 1_555
O2 Mn1 1_555 1_555
O3 Mn1 1_555 1_555
O4 N1 1_555 1_555
O5 N1 1_555 1_555
O6 N1 1_555 1_555
O7 P2 1_555 1_555
P1 C1 1_555 1_555
P2 C17 1_555 1_555
C1 C2 1_555 1_555
C2 H1 1_555 1_555
C3 C2 1_555 1_555
H2 C3 1_555 1_555
C4 C3 1_555 1_555
H3 C4 1_555 1_555
C5 C4 1_555 1_555
H4 C5 1_555 1_555
C6 C1 1_555 1_555
H5 C6 1_555 1_555
C7 P1 1_555 1_555
C8 C7 1_555 1_555
H6 C8 1_555 1_555
C9 C8 1_555 1_555
H7 C9 1_555 1_555
C10 C9 1_555 1_555
H8 C10 1_555 1_555
C11 C10 1_555 1_555
H9 C11 1_555 1_555
C12 C7 1_555 1_555
H10 C12 1_555 1_555
C13 P1 1_555 1_555
H11 C13 1_555 1_555
H12 C13 1_555 1_555
C14 C13 1_555 1_555
H13 C14 1_555 1_555
H14 C14 1_555 1_555
C15 O2 1_555 1_555
H15 C15 1_555 1_555
H16 C15 1_555 1_555
C16 C15 1_555 1_555
H17 C16 1_555 1_555
H18 C16 1_555 1_555
H19 C16 1_555 1_555
C17 C18 1_555 1_555
C18 H20 1_555 1_555
C19 C18 1_555 1_555
H21 C19 1_555 1_555
C20 C19 1_555 1_555
H22 C20 1_555 1_555
C21 C20 1_555 1_555
H23 C21 1_555 1_555
C22 C17 1_555 1_555
H24 C22 1_555 1_555
C23 P2 1_555 1_555
C24 C23 1_555 1_555
H25 C24 1_555 1_555
C25 C24 1_555 1_555
H26 C25 1_555 1_555
C26 C25 1_555 1_555
H27 C26 1_555 1_555
C27 C26 1_555 1_555
H28 C27 1_555 1_555
C28 C23 1_555 1_555
H29 C28 1_555 1_555
C29 P2 1_555 1_555
H30 C29 1_555 1_555
H31 C29 1_555 1_555
C30 C29 1_555 1_555
H32 C30 1_555 1_555
H33 C30 1_555 1_555
H34 O2 1_555 1_555
H35 O3 1_555 1_555
H36 O3 1_555 1_555
Mn1_2 O1B 1_555 1_555
O1B P1B 1_555 1_555
O1B_2 Mn1 1_555 1_555
O2B Mn1 1_555 1_555
O3B Mn1 1_555 1_555
O7B P2B 1_555 1_555
P1B C1B 1_555 1_555
P2B C17B 1_555 1_555
C1B C2B 1_555 1_555
C2B H1B 1_555 1_555
C3B C2B 1_555 1_555
H2B C3B 1_555 1_555
C4B C3B 1_555 1_555
H3B C4B 1_555 1_555
C5B C4B 1_555 1_555
H4B C5B 1_555 1_555
C6B C1B 1_555 1_555
H5B C6B 1_555 1_555
C7B P1B 1_555 1_555
C8B C7B 1_555 1_555
H6B C8B 1_555 1_555
C9B C8B 1_555 1_555
H7B C9B 1_555 1_555
C10B C9B 1_555 1_555
H8B C10B 1_555 1_555
C11B C10B 1_555 1_555
H9B C11B 1_555 1_555
C12B C7B 1_555 1_555
H10B C12B 1_555 1_555
C13B P1B 1_555 1_555
H11B C13B 1_555 1_555
H12B C13B 1_555 1_555
C14B C14 1_555 1_555
H13B C14B 1_555 1_555
H14B C14B 1_555 1_555
C15B O2B 1_555 1_555
H15B C15B 1_555 1_555
H16B C15B 1_555 1_555
C16B C15B 1_555 1_555
H17B C16B 1_555 1_555
H18B C16B 1_555 1_555
H19B C16B 1_555 1_555
C17B C18B 1_555 1_555
C18B H20B 1_555 1_555
C19B C18B 1_555 1_555
H21B C19B 1_555 1_555
C20B C19B 1_555 1_555
H22B C20B 1_555 1_555
C21B C20B 1_555 1_555
H23B C21B 1_555 1_555
C22B C17B 1_555 1_555
H24B C22B 1_555 1_555
C23B P2B 1_555 1_555
C24B C23B 1_555 1_555
H25B C24B 1_555 1_555
C25B C24B 1_555 1_555
H26B C25B 1_555 1_555
C26B C25B 1_555 1_555
H27B C26B 1_555 1_555
C27B C26B 1_555 1_555
H28B C27B 1_555 1_555
C28B C23B 1_555 1_555
H29B C28B 1_555 1_555
C29B P2B 1_555 1_555
H30B C29B 1_555 1_555
H31B C29B 1_555 1_555
C30B C30 1_555 1_555
H32B C30B 1_555 1_555
H33B C30B 1_555 1_555
H34B O2B 1_555 1_555
H35B O3B 1_555 1_555
H36B O3B 1_555 1_555
C5 C6 1_555 1_555
C11 C12 1_555 1_555
C21 C22 1_555 1_555
C27 C28 1_555 1_555
C5B C6B 1_555 1_555
C11B C12B 1_555 1_555
C13B C14B 1_555 1_555
C21B C22B 1_555 1_555
C27B C28B 1_555 1_555
C29B C30B 1_555 1_555

#END
