
#######################################################################
#
#                 Cambridge Crystallographic Data Centre
#                                CCDC 
#
#######################################################################
#
# If this CIF has been generated from an entry in the Cambridge 
# Structural Database, then it will include bibliographic, chemical, 
# crystal, experimental, refinement or atomic coordinate data resulting 
# from the CCDC's data processing and validation procedures.
#
#######################################################################

data_MOLBOF
_symmetry_cell_setting           monoclinic
_symmetry_space_group_name_H-M   'P 21/n'
_symmetry_Int_Tables_number      14
_space_group_name_Hall           '-P 2yn'
loop_
_symmetry_equiv_pos_site_id
_symmetry_equiv_pos_as_xyz
1 x,y,z
2 1/2-x,1/2+y,1/2-z
3 -x,-y,-z
4 1/2+x,1/2-y,1/2+z
_cell_length_a                   8.0458(9)
_cell_length_b                   14.2074(16)
_cell_length_c                   12.1692(13)
_cell_angle_alpha                90
_cell_angle_beta                 90.261(2)
_cell_angle_gamma                90
_cell_volume                     1391.05
loop_
_atom_site_label
_atom_site_type_symbol
_atom_site_fract_x
_atom_site_fract_y
_atom_site_fract_z
Zn1 Zn 1.14316(4) 0.77749(2) -0.32218(2)
Zn2 Zn 0.5000 0.5000 0.5000
O1 O 1.0033(3) 0.57204(14) -0.35796(16)
O2 O 1.0332(2) 0.68060(13) -0.22726(15)
O3 O 0.7867(2) 0.28827(13) -0.14645(16)
O4 O 1.0984(3) 0.24290(15) -0.34770(16)
O5 O 1.1177(2) 0.25985(14) -0.16619(15)
O6 O 0.6960(2) 0.55177(13) 0.08566(15)
O7 O 0.5646(3) 0.62160(13) 0.27068(15)
O8 O 0.5101(3) 0.47830(14) 0.33331(16)
O9 O 1.0752(3) 0.73169(14) -0.46874(16)
H1 H 1.0485 0.6761 -0.4507
H2 H 1.0289 0.7451 -0.5298
O10 O 0.5310(4) 0.35424(17) 0.51517(19)
H3 H 0.5326 0.3166 0.4608
H4 H 0.4596 0.3334 0.5603
O11 O 0.7595(3) 0.5174(2) 0.4939(2)
H5 H 0.8146 0.5433 0.5459
H6 H 0.7732 0.4576 0.5017
C1 C 0.8994(3) 0.53836(19) -0.1798(2)
C2 C 0.8819(3) 0.44336(19) -0.2071(2)
H7 H 0.9189 0.4208 -0.2744
C3 C 0.8079(3) 0.38322(18) -0.1316(2)
C4 C 0.7476(3) 0.41724(18) -0.0324(2)
H8 H 0.6983 0.3766 0.0176
C5 C 0.7616(3) 0.51305(18) -0.0087(2)
C6 C 0.8408(3) 0.57380(18) -0.0809(2)
H9 H 0.8543 0.6371 -0.0634
C7 C 0.9851(3) 0.60155(18) -0.2611(2)
C8 C 0.8479(3) 0.2495(2) -0.2458(2)
H10 H 0.7999 0.2840 -0.3070
H11 H 0.8107 0.1848 -0.2515
C9 C 1.0352(3) 0.25173(18) -0.2559(2)
C10 C 0.6224(3) 0.48551(18) 0.1594(2)
H12 H 0.7036 0.4378 0.1789
H13 H 0.5298 0.4545 0.1231
C11 C 0.5621(3) 0.53333(18) 0.2618(2)
Zn1B Zn -0.14316(4) 0.22251(2) 1.32218(2)
Zn1A Zn 1.35684(4) 0.27749(2) -0.17782(2)
Zn1C Zn 0.64316(4) 0.72251(2) 0.17782(2)
Zn1C_2 Zn -0.35684(4) 0.72251(2) 1.17782(2)
Zn1A_2 Zn 0.35684(4) 0.27749(2) 0.82218(2)
O1B O -0.0033(3) 0.42796(14) 1.35796(16)
O2B O -0.0332(2) 0.31940(13) 1.22726(15)
O3B O 0.2133(2) 0.71173(13) 1.14645(16)
O4B O -0.0984(3) 0.75710(15) 1.34770(16)
O5B O -0.1177(2) 0.74015(14) 1.16619(15)
O5A O 1.3823(2) 0.75985(14) -0.33381(15)
O5C O -0.3823(2) 0.24015(14) 1.33381(15)
O6B O 0.3040(2) 0.44823(13) 0.91434(15)
O7B O 0.4354(3) 0.37840(13) 0.72932(15)
O7C O 1.0646(3) 0.87840(13) -0.22932(15)
O7A O -0.0646(3) 0.12160(13) 1.22932(15)
O8B O 0.4899(3) 0.52170(14) 0.66669(16)
O9B O -0.0752(3) 0.26831(14) 1.46874(16)
H1B H -0.0485 0.3239 1.4507
H2B H -0.0289 0.2549 1.5298
O10B O 0.4690(4) 0.64576(17) 0.48483(19)
H3B H 0.4674 0.6834 0.5392
H4B H 0.5404 0.6666 0.4397
O11B O 0.2405(3) 0.4826(2) 0.5061(2)
H5B H 0.1854 0.4567 0.4541
H6B H 0.2268 0.5424 0.4983
C1B C 0.1006(3) 0.46164(19) 1.1798(2)
C2B C 0.1181(3) 0.55664(19) 1.2071(2)
H7B H 0.0811 0.5792 1.2744
C3B C 0.1921(3) 0.61678(18) 1.1316(2)
C4B C 0.2524(3) 0.58276(18) 1.0324(2)
H8B H 0.3017 0.6234 0.9824
C5B C 0.2384(3) 0.48695(18) 1.0087(2)
C6B C 0.1592(3) 0.42620(18) 1.0809(2)
H9B H 0.1457 0.3629 1.0634
C7B C 0.0149(3) 0.39845(18) 1.2611(2)
C8B C 0.1521(3) 0.7505(2) 1.2458(2)
H10B H 0.2001 0.7160 1.3070
H11B H 0.1893 0.8152 1.2515
C9B C -0.0352(3) 0.74827(18) 1.2559(2)
C10B C 0.3776(3) 0.51449(18) 0.8406(2)
H12B H 0.2964 0.5622 0.8211
H13B H 0.4702 0.5455 0.8769
C11B C 0.4379(3) 0.46667(18) 0.7382(2)
loop_
_geom_bond_atom_site_label_1
_geom_bond_atom_site_label_2
_geom_bond_site_symmetry_1
_geom_bond_site_symmetry_2
Zn1 O2 1_555 1_555
Zn2 O8 1_555 1_555
O1 C7 1_555 1_555
O2 C7 1_555 1_555
O3 C3 1_555 1_555
O4 C9 1_555 1_555
O5 C9 1_555 1_555
O6 C5 1_555 1_555
O7 C11 1_555 1_555
O8 C11 1_555 1_555
O9 Zn1 1_555 1_555
H1 O9 1_555 1_555
H2 O9 1_555 1_555
O10 Zn2 1_555 1_555
H3 O10 1_555 1_555
H4 O10 1_555 1_555
O11 Zn2 1_555 1_555
H5 O11 1_555 1_555
H6 O11 1_555 1_555
C1 C2 1_555 1_555
C2 H7 1_555 1_555
C3 C2 1_555 1_555
C4 C3 1_555 1_555
H8 C4 1_555 1_555
C5 C4 1_555 1_555
C6 C1 1_555 1_555
H9 C6 1_555 1_555
C7 C1 1_555 1_555
C8 O3 1_555 1_555
H10 C8 1_555 1_555
H11 C8 1_555 1_555
C9 C8 1_555 1_555
C10 O6 1_555 1_555
H12 C10 1_555 1_555
H13 C10 1_555 1_555
C11 C10 1_555 1_555
Zn1B O2B 1_555 1_555
Zn1A O5 1_555 1_555
Zn1C O7 1_555 1_555
Zn1C_2 O5B 1_555 1_555
Zn1A_2 O7B 1_555 1_555
O1B C7B 1_555 1_555
O2B C7B 1_555 1_555
O3B C3B 1_555 1_555
O4B C9B 1_555 1_555
O5B C9B 1_555 1_555
O5A Zn1 1_555 1_555
O5C Zn1B 1_555 1_555
O6B C5B 1_555 1_555
O7B C11B 1_555 1_555
O7C Zn1 1_555 1_555
O7A Zn1B 1_555 1_555
O8B Zn2 1_555 1_555
O9B Zn1B 1_555 1_555
H1B O9B 1_555 1_555
H2B O9B 1_555 1_555
O10B Zn2 1_555 1_555
H3B O10B 1_555 1_555
H4B O10B 1_555 1_555
O11B Zn2 1_555 1_555
H5B O11B 1_555 1_555
H6B O11B 1_555 1_555
C1B C2B 1_555 1_555
C2B H7B 1_555 1_555
C3B C2B 1_555 1_555
C4B C3B 1_555 1_555
H8B C4B 1_555 1_555
C5B C4B 1_555 1_555
C6B C1B 1_555 1_555
H9B C6B 1_555 1_555
C7B C1B 1_555 1_555
C8B O3B 1_555 1_555
H10B C8B 1_555 1_555
H11B C8B 1_555 1_555
C9B C8B 1_555 1_555
C10B O6B 1_555 1_555
H12B C10B 1_555 1_555
H13B C10B 1_555 1_555
C11B O8B 1_555 1_555
C5 C6 1_555 1_555
C5B C6B 1_555 1_555
C10B C11B 1_555 1_555

#END
