
#######################################################################
#
#                 Cambridge Crystallographic Data Centre
#                                CCDC 
#
#######################################################################
#
# If this CIF has been generated from an entry in the Cambridge 
# Structural Database, then it will include bibliographic, chemical, 
# crystal, experimental, refinement or atomic coordinate data resulting 
# from the CCDC's data processing and validation procedures.
#
#######################################################################

data_MOLBEW
_symmetry_cell_setting           monoclinic
_symmetry_space_group_name_H-M   'C 2/c'
_symmetry_Int_Tables_number      15
_space_group_name_Hall           '-C 2yn'
loop_
_symmetry_equiv_pos_site_id
_symmetry_equiv_pos_as_xyz
1 x,y,z
2 -x,y,1/2-z
3 1/2+x,1/2+y,z
4 1/2-x,1/2+y,1/2-z
5 -x,-y,-z
6 x,-y,1/2+z
7 1/2-x,1/2-y,-z
8 1/2+x,1/2-y,1/2+z
_cell_length_a                   15.581(3)
_cell_length_b                   13.426(3)
_cell_length_c                   9.655(2)
_cell_angle_alpha                90
_cell_angle_beta                 101.560(3)
_cell_angle_gamma                90
_cell_volume                     1978.76
loop_
_atom_site_label
_atom_site_type_symbol
_atom_site_fract_x
_atom_site_fract_y
_atom_site_fract_z
Co1 Co -0.5000 0.10273(3) -0.2500
O1 O -0.56744(10) -0.01472(11) -0.37703(16)
N1 N -0.41611(13) 0.21639(14) -0.1453(2)
C1 C -0.43688(18) 0.26541(18) -0.0392(3)
H1 H -0.4811 0.2451 0.0065
O2 O -0.56870(10) -0.09463(11) -0.58090(16)
N2 N -0.38820(15) 0.34803(16) -0.0022(2)
C2 C -0.32983(16) 0.35447(18) -0.0925(2)
C3 C -0.34764(15) 0.27190(17) -0.1825(2)
C4 C -0.30008(17) 0.2571(2) -0.2886(3)
H2 H -0.3104 0.2023 -0.3486
C5 C -0.23681(19) 0.3273(2) -0.3012(3)
H3 H -0.2051 0.3201 -0.3726
C6 C -0.21933(18) 0.4087(2) -0.2091(3)
H4 H -0.1758 0.4537 -0.2203
C7 C -0.26466(18) 0.4239(2) -0.1032(3)
H5 H -0.2527 0.4777 -0.0415
C8 C -0.4016(2) 0.4215(2) 0.1046(3)
H6 H -0.3450 0.4436 0.1569
H7 H -0.4323 0.3900 0.1709
C9 C -0.4538(2) 0.5115(2) 0.0385(4)
H8 H -0.4566 0.5596 0.1125
H9 H -0.4225 0.5425 -0.0274
C10 C -0.53946(13) -0.03151(14) -0.4880(2)
O1D O -0.43256(10) 0.01472(11) -0.62297(16)
O2D O -0.43130(10) 0.09463(11) -0.41910(16)
C10D C -0.46054(13) 0.03151(14) -0.5120(2)
N1D N -0.58389(13) 0.78361(14) 0.1453(2)
C1D C -0.56312(18) 0.73459(18) 0.0392(3)
H1D H -0.5189 0.7549 -0.0065
N2D N -0.61180(15) 0.65197(16) 0.0022(2)
C2D C -0.67017(16) 0.64553(18) 0.0925(2)
C3D C -0.65236(15) 0.72810(17) 0.1825(2)
C4D C -0.69992(17) 0.7429(2) 0.2886(3)
H2D H -0.6896 0.7977 0.3486
C5D C -0.76319(19) 0.6727(2) 0.3012(3)
H3D H -0.7949 0.6799 0.3726
C6D C -0.78067(18) 0.5913(2) 0.2091(3)
H4D H -0.8242 0.5463 0.2203
C7D C -0.73534(18) 0.5761(2) 0.1032(3)
H5D H -0.7473 0.5223 0.0415
C8D C -0.5984(2) 0.5785(2) -0.1046(3)
H6D H -0.6550 0.5564 -0.1569
H7D H -0.5677 0.6100 -0.1709
C9D C -0.5462(2) 0.4885(2) -0.0385(4)
H8D H -0.5434 0.4404 -0.1125
H9D H -0.5775 0.4575 0.0274
Co1D Co -0.5000 -0.10273(3) -0.7500
Co1D_2 Co -0.5000 0.89727(3) 0.2500
O1A O -0.43256(10) -0.01472(11) -0.12297(16)
N1A N -0.58389(13) 0.21639(14) -0.3547(2)
O2E O -0.56870(10) 0.09463(11) -0.08090(16)
O3 O -0.5000 0.2134(2) 0.2500
loop_
_geom_bond_atom_site_label_1
_geom_bond_atom_site_label_2
_geom_bond_site_symmetry_1
_geom_bond_site_symmetry_2
Co1 O1 1_555 1_555
O1 C10 1_555 1_555
N1 Co1 1_555 1_555
C1 N1 1_555 1_555
H1 C1 1_555 1_555
O2 C10 1_555 1_555
N2 C1 1_555 1_555
C2 N2 1_555 1_555
C3 N1 1_555 1_555
C4 C3 1_555 1_555
H2 C4 1_555 1_555
C5 C4 1_555 1_555
H3 C5 1_555 1_555
C6 C5 1_555 1_555
H4 C6 1_555 1_555
C7 C2 1_555 1_555
H5 C7 1_555 1_555
C8 N2 1_555 1_555
H6 C8 1_555 1_555
H7 C8 1_555 1_555
C9 C8 1_555 1_555
H8 C9 1_555 1_555
H9 C9 1_555 1_555
C10 C10D 1_555 1_555
O1D C10D 1_555 1_555
O2D Co1 1_555 1_555
C10D O2D 1_555 1_555
N1D C1D 1_555 1_555
C1D H1D 1_555 1_555
N2D C1D 1_555 1_555
C2D N2D 1_555 1_555
C3D N1D 1_555 1_555
C4D C3D 1_555 1_555
H2D C4D 1_555 1_555
C5D C4D 1_555 1_555
H3D C5D 1_555 1_555
C6D C5D 1_555 1_555
H4D C6D 1_555 1_555
C7D C2D 1_555 1_555
H5D C7D 1_555 1_555
C8D N2D 1_555 1_555
H6D C8D 1_555 1_555
H7D C8D 1_555 1_555
C9D C9 1_555 1_555
H8D C9D 1_555 1_555
H9D C9D 1_555 1_555
Co1D O2 1_555 1_555
Co1D_2 N1D 1_555 1_555
O1A Co1 1_555 1_555
N1A Co1 1_555 1_555
O2E Co1 1_555 1_555
C2 C3 1_555 1_555
C6 C7 1_555 1_555
O1D Co1D 1_555 1_555
C2D C3D 1_555 1_555
C6D C7D 1_555 1_555
C8D C9D 1_555 1_555

#END
