
#######################################################################
#
#                 Cambridge Crystallographic Data Centre
#                                CCDC 
#
#######################################################################
#
# If this CIF has been generated from an entry in the Cambridge 
# Structural Database, then it will include bibliographic, chemical, 
# crystal, experimental, refinement or atomic coordinate data resulting 
# from the CCDC's data processing and validation procedures.
#
#######################################################################

data_MOLBOG
_symmetry_cell_setting           monoclinic
_symmetry_space_group_name_H-M   'P 21/n'
_symmetry_Int_Tables_number      14
_space_group_name_Hall           '-P 2yn'
loop_
_symmetry_equiv_pos_site_id
_symmetry_equiv_pos_as_xyz
1 x,y,z
2 1/2-x,1/2+y,1/2-z
3 -x,-y,-z
4 1/2+x,1/2-y,1/2+z
_cell_length_a                   7.2061(14)
_cell_length_b                   21.568(4)
_cell_length_c                   17.437(4)
_cell_angle_alpha                90
_cell_angle_beta                 98.88(3)
_cell_angle_gamma                90
_cell_volume                     2677.6
loop_
_atom_site_label
_atom_site_type_symbol
_atom_site_fract_x
_atom_site_fract_y
_atom_site_fract_z
C1 C 0.2937(8) 1.1878(2) 0.5105(3)
H1 H 0.3054 1.2308 0.5123
C2 C 0.3006(9) 1.1578(3) 0.4405(3)
H2 H 0.3149 1.1805 0.3964
C3 C 0.2861(8) 1.0942(2) 0.4368(3)
H3 H 0.2908 1.0734 0.3903
C4 C 0.2645(7) 1.0615(2) 0.5034(3)
C5 C 0.2470(7) 0.9941(2) 0.5034(3)
C6 C 0.2424(7) 0.9012(2) 0.4396(3)
C7 C 0.2544(8) 0.8663(3) 0.3716(3)
H4 H 0.2736 0.8865 0.3263
C8 C 0.2379(8) 0.8034(3) 0.3726(4)
H5 H 0.2464 0.7807 0.3279
C9 C 0.2078(8) 0.7723(3) 0.4413(4)
H6 H 0.1951 0.7294 0.4408
C10 C 0.1974(8) 0.8041(2) 0.5074(4)
H7 H 0.1795 0.7830 0.5522
C11 C 0.2140(7) 0.8701(2) 0.5083(3)
C12 C 0.2159(7) 0.9628(2) 0.5722(3)
C13 C 0.1965(7) 0.9983(2) 0.6420(3)
C14 C 0.1514(8) 0.9704(2) 0.7082(3)
H8 H 0.1355 0.9277 0.7098
C15 C 0.1302(9) 1.0061(3) 0.7715(3)
H9 H 0.1002 0.9880 0.8163
C16 C 0.1545(8) 1.0699(3) 0.7673(3)
H10 H 0.1388 1.0940 0.8100
C17 C 0.2181(7) 1.0630(2) 0.6419(3)
C18 C 0.2532(7) 1.0949(2) 0.5716(3)
C19 C 0.4752(8) 1.3259(2) 0.6764(3)
C20 C -0.0194(7) 1.3184(2) 0.3341(3)
C21 C 0.5955(7) 1.3772(2) 0.6518(3)
C22 C 0.5724(7) 1.4002(2) 0.5763(3)
C23 C 0.6932(8) 1.4470(3) 0.5592(4)
H11 H 0.6788 1.4634 0.5093
C24 C 0.8341(10) 1.4694(3) 0.6152(4)
H12 H 0.9133 1.5006 0.6027
C25 C 0.8576(10) 1.4460(4) 0.6887(4)
H13 H 0.9535 1.4608 0.7261
C26 C 0.7383(9) 1.4004(3) 0.7072(3)
H14 H 0.7534 1.3849 0.7575
C27 C 0.4197(7) 1.3787(2) 0.5145(3)
C28 C 0.2325(7) 1.3811(2) 0.5247(3)
H15 H 0.2011 1.3962 0.5710
C29 C 0.0933(7) 1.3613(2) 0.4671(3)
H16 H -0.0312 1.3621 0.4753
C30 C 0.1364(7) 1.3399(2) 0.3967(3)
C31 C 0.3223(7) 1.3381(2) 0.3853(3)
H17 H 0.3526 1.3241 0.3383
C32 C 0.4630(7) 1.3570(2) 0.4439(3)
H18 H 0.5877 1.3552 0.4361
N1 N 0.2711(6) 1.15791(18) 0.5747(2)
N2 N 0.1994(6) 1.09783(19) 0.7045(2)
N3 N 0.2600(6) 0.96368(19) 0.4380(2)
N4 N 0.2010(6) 0.90132(19) 0.5748(3)
O1 O 0.4318(5) 1.28165(15) 0.6304(2)
O2 O 0.4264(8) 1.32854(19) 0.7420(2)
O3 O 0.094(7) 1.3099(15) 0.797(3)
O4 O 0.0209(5) 1.31206(17) 0.26607(19)
O5 O -0.1779(5) 1.30783(18) 0.3507(2)
Pb1 Pb 0.23591(3) 1.221019(9) 0.699297(11)
O4C O 0.5209(5) 1.18794(17) 0.76607(19)
O5C O 0.3221(5) 1.19217(18) 0.8507(2)
Pb1C Pb -0.26409(3) 1.278981(9) 0.199297(11)
loop_
_geom_bond_atom_site_label_1
_geom_bond_atom_site_label_2
_geom_bond_site_symmetry_1
_geom_bond_site_symmetry_2
C1 H1 1_555 1_555
C2 C1 1_555 1_555
H2 C2 1_555 1_555
C3 C2 1_555 1_555
H3 C3 1_555 1_555
C4 C3 1_555 1_555
C5 C4 1_555 1_555
C6 C7 1_555 1_555
C7 H4 1_555 1_555
C8 C7 1_555 1_555
H5 C8 1_555 1_555
C9 C8 1_555 1_555
H6 C9 1_555 1_555
C10 C9 1_555 1_555
H7 C10 1_555 1_555
C11 C6 1_555 1_555
C12 C5 1_555 1_555
C13 C12 1_555 1_555
C14 C13 1_555 1_555
H8 C14 1_555 1_555
C15 C14 1_555 1_555
H9 C15 1_555 1_555
C16 C15 1_555 1_555
H10 C16 1_555 1_555
C17 C13 1_555 1_555
C18 C4 1_555 1_555
C19 C21 1_555 1_555
C20 C30 1_555 1_555
C21 C22 1_555 1_555
C22 C23 1_555 1_555
C23 H11 1_555 1_555
C24 C23 1_555 1_555
H12 C24 1_555 1_555
C25 C24 1_555 1_555
H13 C25 1_555 1_555
C26 C21 1_555 1_555
H14 C26 1_555 1_555
C27 C22 1_555 1_555
C28 C27 1_555 1_555
H15 C28 1_555 1_555
C29 C28 1_555 1_555
H16 C29 1_555 1_555
C30 C29 1_555 1_555
C31 C30 1_555 1_555
H17 C31 1_555 1_555
C32 C27 1_555 1_555
H18 C32 1_555 1_555
N1 C1 1_555 1_555
N2 C16 1_555 1_555
N3 C5 1_555 1_555
N4 C11 1_555 1_555
O1 C19 1_555 1_555
O2 C19 1_555 1_555
O3 Pb1 1_555 1_555
O4 C20 1_555 1_555
O5 C20 1_555 1_555
Pb1 N1 1_555 1_555
O4C Pb1 1_555 1_555
O5C Pb1 1_555 1_555
Pb1C O4 1_555 1_555
C6 N3 1_555 1_555
C10 C11 1_555 1_555
C12 N4 1_555 1_555
C17 C18 1_555 1_555
C17 N2 1_555 1_555
C18 N1 1_555 1_555
C25 C26 1_555 1_555
C31 C32 1_555 1_555
N2 Pb1 1_555 1_555
O1 Pb1 1_555 1_555
O2 Pb1 1_555 1_555
O5 Pb1C 1_555 1_555

#END
