
#######################################################################
#
#                 Cambridge Crystallographic Data Centre
#                                CCDC 
#
#######################################################################
#
# If this CIF has been generated from an entry in the Cambridge 
# Structural Database, then it will include bibliographic, chemical, 
# crystal, experimental, refinement or atomic coordinate data resulting 
# from the CCDC's data processing and validation procedures.
#
#######################################################################

data_MOLCAS
_symmetry_cell_setting           triclinic
_symmetry_space_group_name_H-M   'P -1'
_symmetry_Int_Tables_number      2
_space_group_name_Hall           '-P 1'
loop_
_symmetry_equiv_pos_site_id
_symmetry_equiv_pos_as_xyz
1 x,y,z
2 -x,-y,-z
_cell_length_a                   9.0283(2)
_cell_length_b                   9.6152(2)
_cell_length_c                   10.1064(3)
_cell_angle_alpha                93.1051(14)
_cell_angle_beta                 113.8441(13)
_cell_angle_gamma                106.2234(14)
_cell_volume                     756.414
loop_
_atom_site_label
_atom_site_type_symbol
_atom_site_fract_x
_atom_site_fract_y
_atom_site_fract_z
Co1 Co 1.0000 0.5000 0.5000
N1 N 1.01957(16) 0.65228(13) 0.67162(13)
C1 C 1.03383(19) 0.61342(16) 0.80048(16)
H1 H 1.0383 0.5174 0.8141
C2 C 1.0424(2) 0.70658(17) 0.91461(16)
H2 H 1.0567 0.6758 1.0055
C3 C 1.02991(19) 0.84579(16) 0.89522(16)
C4 C 1.0187(2) 0.88780(16) 0.76216(16)
H3 H 1.0136 0.9830 0.7453
C5 C 1.01496(19) 0.78910(16) 0.65568(16)
H4 H 1.0088 0.8195 0.5662
C6 C 1.0239(2) 0.94025(17) 1.01034(16)
H5 H 1.0560 0.9150 1.1052
C13 C 0.65820(18) 0.11433(15) 0.55886(15)
C14 C 0.51484(18) 0.14047(15) 0.56273(15)
C15 C 0.64162(18) -0.02575(15) 0.49757(15)
H11 H 0.7397 -0.0436 0.4968
C16 C 0.82592(18) 0.23614(15) 0.60063(15)
C17 C 0.52051(18) 0.28671(16) 0.63096(16)
O1 O 0.81410(13) 0.34150(11) 0.53333(11)
O2 O 0.96182(13) 0.21851(12) 0.68884(12)
O3 O 0.65657(14) 0.35861(12) 0.74754(12)
O4 O 0.39350(15) 0.32596(13) 0.57317(14)
O5 O 1.19427(14) 0.43673(12) 0.66059(12)
H13 H 1.258(3) 0.410(3) 0.635(3)
H14 H 1.136(3) 0.361(3) 0.675(2)
Co1_2 Co 1.0000 1.5000 1.5000
Co1_3 Co 0.0000 -0.5000 0.5000
N1A N 0.98043(16) 1.34772(13) 1.32838(13)
N1A_2 N 0.98043(16) 0.34772(13) 0.32838(13)
C1A C 0.96617(19) 1.38658(16) 1.19952(16)
H1A H 0.9617 1.4826 1.1859
C2A C 0.9576(2) 1.29342(17) 1.08539(16)
H2A H 0.9433 1.3242 0.9945
C3A C 0.97009(19) 1.15421(16) 1.10478(16)
C4A C 0.9813(2) 1.11220(16) 1.23784(16)
H3A H 0.9864 1.0170 1.2547
C5A C 0.98504(19) 1.21090(16) 1.34432(16)
H4A H 0.9912 1.1805 1.4338
C6A C 0.9761(2) 1.05975(17) 0.98966(16)
H5A H 0.9440 1.0850 0.8948
C13A C 0.34180(18) -0.11433(15) 0.44114(15)
C14A C 0.48516(18) -0.14047(15) 0.43727(15)
C15A C 0.35838(18) 0.02575(15) 0.50243(15)
H11A H 0.2603 0.0436 0.5032
C16A C 0.17408(18) -0.23614(15) 0.39937(15)
C17A C 0.47949(18) -0.28671(16) 0.36904(16)
O1A O 0.18590(13) -0.34150(11) 0.46667(11)
O1A_2 O 1.18590(13) 0.65850(11) 0.46667(11)
O2A O 0.03818(13) -0.21851(12) 0.31116(12)
O3A O 0.34343(14) -0.35861(12) 0.25246(12)
O4A O 0.60650(15) -0.32596(13) 0.42683(14)
O5A O 0.80573(14) 0.56327(12) 0.33941(12)
H13A H 0.742(3) 0.590(3) 0.365(3)
H14A H 0.864(3) 0.639(3) 0.325(2)
N2 N 0.62629(16) 0.59521(14) 0.84960(14)
C7 C 0.5584(2) 0.68283(18) 0.76311(18)
H6 H 0.5330 0.6643 0.6617
C8 C 0.5238(2) 0.79944(18) 0.81624(18)
H7 H 0.4767 0.8604 0.7521
C9 C 0.55852(19) 0.82723(17) 0.96460(17)
C10 C 0.6294(2) 0.73470(18) 1.05249(17)
H8 H 0.6558 0.7500 1.1543
C11 C 0.6615(2) 0.62079(18) 0.99221(18)
H9 H 0.7101 0.5587 1.0539
C12 C 0.5236(2) 0.94623(18) 1.03210(18)
H10 H 0.5360 0.9462 1.1300
H12 H 0.642(4) 0.485(3) 0.799(3)
N2A N 0.37371(16) 1.40479(14) 1.15040(14)
C7A C 0.4416(2) 1.31717(18) 1.23689(18)
H6A H 0.4670 1.3357 1.3383
C8A C 0.4762(2) 1.20056(18) 1.18376(18)
H7A H 0.5233 1.1396 1.2479
C9A C 0.44148(19) 1.17277(17) 1.03540(17)
C10A C 0.3706(2) 1.26530(18) 0.94751(17)
H8A H 0.3442 1.2500 0.8457
C11A C 0.3385(2) 1.37921(18) 1.00779(18)
H9A H 0.2899 1.4413 0.9461
C12A C 0.4764(2) 1.05377(18) 0.96790(18)
H10A H 0.4640 1.0538 0.8700
H12A H 0.358(4) 1.515(3) 1.201(3)
loop_
_geom_bond_atom_site_label_1
_geom_bond_atom_site_label_2
_geom_bond_site_symmetry_1
_geom_bond_site_symmetry_2
Co1 N1 1_555 1_555
N1 C1 1_555 1_555
C1 H1 1_555 1_555
C2 C1 1_555 1_555
H2 C2 1_555 1_555
C3 C2 1_555 1_555
C4 C3 1_555 1_555
H3 C4 1_555 1_555
C5 N1 1_555 1_555
H4 C5 1_555 1_555
C6 C3 1_555 1_555
H5 C6 1_555 1_555
N2 C7 1_555 1_555
C7 H6 1_555 1_555
C8 C7 1_555 1_555
H7 C8 1_555 1_555
C9 C8 1_555 1_555
C10 C9 1_555 1_555
H8 C10 1_555 1_555
C11 N2 1_555 1_555
H9 C11 1_555 1_555
C12 C9 1_555 1_555
H10 C12 1_555 1_555
C13 C14 1_555 1_555
C14 C17 1_555 1_555
C15 C13 1_555 1_555
H11 C15 1_555 1_555
C16 C13 1_555 1_555
C17 O3 1_555 1_555
O1 Co1 1_555 1_555
O2 C16 1_555 1_555
H12 N2 1_555 1_555
O4 C17 1_555 1_555
O5 Co1 1_555 1_555
H13 O5 1_555 1_555
H14 O5 1_555 1_555
Co1_2 N1A 1_555 1_555
Co1_3 O1A 1_555 1_555
N1A C1A 1_555 1_555
N1A_2 Co1 1_555 1_555
C1A H1A 1_555 1_555
C2A C1A 1_555 1_555
H2A C2A 1_555 1_555
C3A C2A 1_555 1_555
C4A C3A 1_555 1_555
H3A C4A 1_555 1_555
C5A N1A 1_555 1_555
H4A C5A 1_555 1_555
C6A C6 1_555 1_555
H5A C6A 1_555 1_555
N2A C7A 1_555 1_555
C7A H6A 1_555 1_555
C8A C7A 1_555 1_555
H7A C8A 1_555 1_555
C9A C8A 1_555 1_555
C10A C9A 1_555 1_555
H8A C10A 1_555 1_555
C11A N2A 1_555 1_555
H9A C11A 1_555 1_555
C12A C12 1_555 1_555
H10A C12A 1_555 1_555
C13A C14A 1_555 1_555
C14A C15 1_555 1_555
C15A C14 1_555 1_555
H11A C15A 1_555 1_555
C16A C13A 1_555 1_555
C17A C14A 1_555 1_555
O1A C16A 1_555 1_555
O1A_2 Co1 1_555 1_555
O2A C16A 1_555 1_555
O3A C17A 1_555 1_555
H12A N2A 1_555 1_555
O4A C17A 1_555 1_555
O5A Co1 1_555 1_555
H13A O5A 1_555 1_555
H14A O5A 1_555 1_555
C4 C5 1_555 1_555
C10 C11 1_555 1_555
C16 O1 1_555 1_555
C3A C6A 1_555 1_555
C4A C5A 1_555 1_555
C9A C12A 1_555 1_555
C10A C11A 1_555 1_555
C13A C15A 1_555 1_555

#END
