
#######################################################################
#
#                 Cambridge Crystallographic Data Centre
#                                CCDC 
#
#######################################################################
#
# If this CIF has been generated from an entry in the Cambridge 
# Structural Database, then it will include bibliographic, chemical, 
# crystal, experimental, refinement or atomic coordinate data resulting 
# from the CCDC's data processing and validation procedures.
#
#######################################################################

data_MOLCUN
_symmetry_cell_setting           triclinic
_symmetry_space_group_name_H-M   'P -1'
_symmetry_Int_Tables_number      2
_space_group_name_Hall           '-P 1'
loop_
_symmetry_equiv_pos_site_id
_symmetry_equiv_pos_as_xyz
1 x,y,z
2 -x,-y,-z
_cell_length_a                   5.6814(9)
_cell_length_b                   9.6717(16)
_cell_length_c                   13.926(2)
_cell_angle_alpha                97.243(9)
_cell_angle_beta                 95.403(8)
_cell_angle_gamma                99.439(9)
_cell_volume                     743.659
loop_
_atom_site_label
_atom_site_type_symbol
_atom_site_fract_x
_atom_site_fract_y
_atom_site_fract_z
C1 C -0.1073(4) 0.2934(2) 0.70272(16)
C2 C -0.2856(4) 0.3710(2) 0.68239(17)
H1 H -0.3729 0.3547 0.6192
C3 C -0.3385(4) 0.4718(2) 0.75269(18)
H2 H -0.4624 0.5237 0.7383
C4 C -0.2090(4) 0.4963(2) 0.84445(18)
H3 H -0.2450 0.5653 0.8931
C5 C -0.0290(4) 0.4218(2) 0.86603(17)
H4 H 0.0598 0.4406 0.9290
C6 C 0.0237(4) 0.3190(2) 0.79589(16)
C7 C 0.4868(4) 0.1940(2) 0.93111(16)
C8 C 0.5962(4) 0.2304(2) 1.03052(18)
C9 C 0.5779(4) 0.0885(2) 0.86632(17)
O1 O 0.0843(3) 0.07424(16) 0.64750(11)
O2 O 0.0691(3) 0.24991(16) 0.54015(12)
O3 O -0.2931(3) 0.09568(16) 0.56080(11)
O4 O 0.4975(3) 0.05060(16) 0.78197(11)
O5 O 0.1245(3) -0.24430(16) 0.68542(12)
O6 O 0.6481(3) -0.23399(16) 0.61081(12)
Na1 Na 0.38248(15) -0.06636(9) 0.61527(6)
S1 S -0.05722(9) 0.16769(5) 0.60505(4)
N1 N 0.2066(3) 0.24252(18) 0.81901(13)
N2 N 0.3158(3) 0.26424(18) 0.90760(13)
N3 N 0.6810(4) 0.2580(2) 1.10999(15)
O7 O 0.7579(3) 0.04044(16) 0.91226(11)
C10 C 0.8599(4) -0.0655(3) 0.85368(19)
H5 H 0.9896 -0.0942 0.8938
H6 H 0.9240 -0.0254 0.7983
H7 H 0.7345 -0.1483 0.8296
H8 H 0.2334 0.1813 0.7760
H9 H -0.0272 -0.2405 0.6754
H10 H 0.1530 -0.2441 0.7450
H11 H 0.7194 -0.2294 0.5567
H12 H 0.5489 -0.3145 0.5967
O3_2 O 0.7069(3) 0.09568(16) 0.56080(11)
O3A O 0.2931(3) -0.09568(16) 0.43920(11)
Na1_2 Na -0.61752(15) -0.06636(9) 0.61527(6)
Na1A Na -0.38248(15) 0.06636(9) 0.38473(6)
O8 O 0.2769(3) 0.54109(18) 0.56674(15)
H13 H 0.1968 0.4570 0.5601
H14 H 0.1814 0.5920 0.5965
loop_
_geom_bond_atom_site_label_1
_geom_bond_atom_site_label_2
_geom_bond_site_symmetry_1
_geom_bond_site_symmetry_2
C1 C2 1_555 1_555
C2 H1 1_555 1_555
C3 C2 1_555 1_555
H2 C3 1_555 1_555
C4 C3 1_555 1_555
H3 C4 1_555 1_555
C5 C4 1_555 1_555
H4 C5 1_555 1_555
C6 C1 1_555 1_555
C7 C8 1_555 1_555
C8 N3 1_555 1_555
C9 C7 1_555 1_555
O1 Na1 1_555 1_555
O2 S1 1_555 1_555
O3 S1 1_555 1_555
O4 C9 1_555 1_555
O5 Na1 1_555 1_555
O6 Na1 1_555 1_555
Na1 O4 1_555 1_555
S1 C1 1_555 1_555
N1 C6 1_555 1_555
N2 C7 1_555 1_555
O7 C9 1_555 1_555
C10 O7 1_555 1_555
H5 C10 1_555 1_555
H6 C10 1_555 1_555
H7 C10 1_555 1_555
H8 N1 1_555 1_555
H9 O5 1_555 1_555
H10 O5 1_555 1_555
H11 O6 1_555 1_555
H12 O6 1_555 1_555
O8 H13 1_555 1_555
H14 O8 1_555 1_555
O3_2 Na1 1_555 1_555
O3A Na1 1_555 1_555
Na1_2 O3 1_555 1_555
Na1A O3 1_555 1_555
C5 C6 1_555 1_555
O1 S1 1_555 1_555
N1 N2 1_555 1_555

#END
