
#######################################################################
#
#                 Cambridge Crystallographic Data Centre
#                                CCDC 
#
#######################################################################
#
# If this CIF has been generated from an entry in the Cambridge 
# Structural Database, then it will include bibliographic, chemical, 
# crystal, experimental, refinement or atomic coordinate data resulting 
# from the CCDC's data processing and validation procedures.
#
#######################################################################

data_MOLCOG
_symmetry_cell_setting           monoclinic
_symmetry_space_group_name_H-M   'P 21/c'
_symmetry_Int_Tables_number      14
_space_group_name_Hall           '-P 2ybc'
loop_
_symmetry_equiv_pos_site_id
_symmetry_equiv_pos_as_xyz
1 x,y,z
2 -x,1/2+y,1/2-z
3 -x,-y,-z
4 x,1/2-y,1/2+z
_cell_length_a                   9.4197(10)
_cell_length_b                   18.2526(18)
_cell_length_c                   17.0040(18)
_cell_angle_alpha                90
_cell_angle_beta                 105.275(9)
_cell_angle_gamma                90
_cell_volume                     2820.28
loop_
_atom_site_label
_atom_site_type_symbol
_atom_site_fract_x
_atom_site_fract_y
_atom_site_fract_z
Fe1 Fe 0.00217(3) 0.253651(19) 0.171808(19)
N1 N -0.09659(19) 0.15504(10) 0.19265(11)
N2 N -0.1354(2) 0.23753(10) 0.05576(11)
N3 N -0.1861(2) 0.29797(10) 0.19239(11)
N4 N 0.1079(2) 0.23360(10) 0.29336(12)
N5 N 0.0851(2) 0.35138(14) 0.15547(12)
N6 N 0.1705(3) 0.52489(13) -0.01435(15)
N7 N 0.8354(2) 0.69905(11) 0.35803(11)
N8 N 0.7224(2) 0.55072(13) 0.53443(14)
C1 C -0.1477(3) 0.11718(13) 0.11326(14)
H1 H -0.2260 0.0817 0.1156
H2 H -0.0650 0.0898 0.1014
C2 C -0.2063(2) 0.17207(13) 0.04681(14)
C3 C -0.3215(3) 0.15624(15) -0.02047(15)
H3 H -0.3702 0.1102 -0.0251
C4 C -0.3643(3) 0.20840(18) -0.08062(16)
H4 H -0.4426 0.1987 -0.1276
C5 C -0.2924(3) 0.27449(17) -0.07183(17)
H5 H -0.3202 0.3110 -0.1129
C6 C -0.1793(3) 0.28764(15) -0.00280(16)
H6 H -0.1311 0.3338 0.0031
C7 C -0.2218(3) 0.17299(13) 0.22791(15)
H7 H -0.1877 0.1703 0.2881
H8 H -0.3006 0.1361 0.2094
C8 C -0.2837(2) 0.24770(13) 0.20363(12)
C9 C -0.4290(3) 0.26470(14) 0.19687(14)
H9 H -0.4960 0.2281 0.2043
C10 C -0.4751(3) 0.33591(17) 0.17917(16)
H10 H -0.5746 0.3492 0.1742
C11 C -0.3747(3) 0.38766(15) 0.16883(18)
H11 H -0.4040 0.4372 0.1573
C12 C -0.2318(3) 0.36670(14) 0.17546(15)
H12 H -0.1634 0.4024 0.1677
C13 C 0.0134(2) 0.11170(12) 0.25282(14)
H13 H 0.0805 0.0864 0.2256
H14 H -0.0365 0.0742 0.2781
C14 C 0.0995(3) 0.16307(14) 0.31705(14)
C15 C 0.1664(3) 0.13989(17) 0.39537(16)
H15 H 0.1582 0.0904 0.4109
C16 C 0.2455(4) 0.1899(2) 0.45074(18)
H16 H 0.2930 0.1751 0.5048
C17 C 0.2547(3) 0.26070(19) 0.42703(18)
H17 H 0.3093 0.2957 0.4643
C18 C 0.1841(3) 0.28099(15) 0.34842(17)
H18 H 0.1897 0.3306 0.3327
C19 C 0.3341(2) 0.49939(13) 0.19369(14)
C20 C 0.3541(2) 0.47925(13) 0.27501(14)
H19 H 0.2897 0.4442 0.2885
C21 C 0.4658(2) 0.50907(12) 0.33665(14)
H20 H 0.4766 0.4936 0.3912
C22 C 0.5626(2) 0.56119(12) 0.32071(14)
C23 C 0.5441(2) 0.58124(13) 0.23905(14)
H21 H 0.6089 0.6161 0.2256
C24 C 0.4329(3) 0.55101(13) 0.17767(14)
H22 H 0.4232 0.5657 0.1229
C25 C 0.2167(3) 0.46749(14) 0.12813(15)
C26 C 0.1409(3) 0.40453(16) 0.14133(14)
C27 C 0.1874(3) 0.49767(15) 0.04878(17)
C28 C 0.6762(2) 0.59476(13) 0.38727(14)
C29 C 0.7643(3) 0.65216(13) 0.37295(13)
C30 C 0.7023(3) 0.57012(14) 0.46761(16)
Fe1A Fe 0.99783(3) 0.753651(19) 0.328192(19)
N7A N 0.1646(2) 0.19905(11) 0.14197(11)
O1 O 0.9961(2) 0.54698(11) 0.66068(11)
H23 H 0.9099 0.5459 0.6304
C31 C 1.0910(3) 0.57864(16) 0.61782(18)
H24 H 1.0770 0.5541 0.5650
H25 H 1.1934 0.5728 0.6497
H26 H 1.0683 0.6309 0.6090
loop_
_geom_bond_atom_site_label_1
_geom_bond_atom_site_label_2
_geom_bond_site_symmetry_1
_geom_bond_site_symmetry_2
Fe1 N1 1_555 1_555
N1 C1 1_555 1_555
N2 Fe1 1_555 1_555
N3 Fe1 1_555 1_555
N4 Fe1 1_555 1_555
N5 Fe1 1_555 1_555
N6 C27 1_555 1_555
N7 C29 1_555 1_555
N8 C30 1_555 1_555
C1 H1 1_555 1_555
H2 C1 1_555 1_555
C2 N2 1_555 1_555
C3 C2 1_555 1_555
H3 C3 1_555 1_555
C4 C3 1_555 1_555
H4 C4 1_555 1_555
C5 C4 1_555 1_555
H5 C5 1_555 1_555
C6 N2 1_555 1_555
H6 C6 1_555 1_555
C7 N1 1_555 1_555
H7 C7 1_555 1_555
H8 C7 1_555 1_555
C8 N3 1_555 1_555
C9 C8 1_555 1_555
H9 C9 1_555 1_555
C10 C9 1_555 1_555
H10 C10 1_555 1_555
C11 C10 1_555 1_555
H11 C11 1_555 1_555
C12 N3 1_555 1_555
H12 C12 1_555 1_555
C13 N1 1_555 1_555
H13 C13 1_555 1_555
H14 C13 1_555 1_555
C14 N4 1_555 1_555
C15 C14 1_555 1_555
H15 C15 1_555 1_555
C16 C15 1_555 1_555
H16 C16 1_555 1_555
C17 C16 1_555 1_555
H17 C17 1_555 1_555
C18 N4 1_555 1_555
H18 C18 1_555 1_555
C19 C20 1_555 1_555
C20 H19 1_555 1_555
C21 C20 1_555 1_555
H20 C21 1_555 1_555
C22 C21 1_555 1_555
C23 C22 1_555 1_555
H21 C23 1_555 1_555
C24 C19 1_555 1_555
H22 C24 1_555 1_555
C25 C19 1_555 1_555
C26 N5 1_555 1_555
C27 C25 1_555 1_555
C28 C22 1_555 1_555
C29 C28 1_555 1_555
C30 C28 1_555 1_555
O1 H23 1_555 1_555
C31 O1 1_555 1_555
H24 C31 1_555 1_555
H25 C31 1_555 1_555
H26 C31 1_555 1_555
Fe1A N7 1_555 1_555
N7A Fe1 1_555 1_555
C1 C2 1_555 1_555
C5 C6 1_555 1_555
C7 C8 1_555 1_555
C11 C12 1_555 1_555
C13 C14 1_555 1_555
C17 C18 1_555 1_555
C23 C24 1_555 1_555
C25 C26 1_555 1_555

#END
