
#######################################################################
#
#                 Cambridge Crystallographic Data Centre
#                                CCDC 
#
#######################################################################
#
# If this CIF has been generated from an entry in the Cambridge 
# Structural Database, then it will include bibliographic, chemical, 
# crystal, experimental, refinement or atomic coordinate data resulting 
# from the CCDC's data processing and validation procedures.
#
#######################################################################

data_MOLDIB
_symmetry_cell_setting           triclinic
_symmetry_space_group_name_H-M   'P -1'
_symmetry_Int_Tables_number      2
_space_group_name_Hall           '-P 1'
loop_
_symmetry_equiv_pos_site_id
_symmetry_equiv_pos_as_xyz
1 x,y,z
2 -x,-y,-z
_cell_length_a                   7.2192(14)
_cell_length_b                   8.3899(17)
_cell_length_c                   11.191(2)
_cell_angle_alpha                74.81(3)
_cell_angle_beta                 84.38(3)
_cell_angle_gamma                74.77(3)
_cell_volume                     630.857
loop_
_atom_site_label
_atom_site_type_symbol
_atom_site_fract_x
_atom_site_fract_y
_atom_site_fract_z
Cu1 Cu 0.5000 0.5000 0.5000
Cu2 Cu 0.60502(6) 0.14889(5) 0.67727(4)
O1 O 0.4137(4) 0.5396(3) 0.6626(2)
O2 O 0.4923(4) 0.2840(3) 0.7968(2)
O3 O 0.2545(4) 0.8884(3) 0.6656(2)
O4 O 0.0364(3) 0.7545(3) 0.6431(2)
N1 N -0.0760(4) 0.8992(4) 0.9138(3)
O5 O -0.0914(4) 0.9901(3) 0.8074(2)
O6 O -0.1828(4) 0.9354(4) 1.0003(3)
C1 C 0.4125(5) 0.4405(5) 0.7685(3)
C2 C 0.3040(5) 0.5173(4) 0.8683(3)
C3 C 0.3238(5) 0.4248(5) 0.9919(3)
H1 H 0.4059 0.3163 1.0102
C4 C 0.2259(5) 0.4892(5) 1.0865(3)
H2 H 0.2456 0.4267 1.1682
C5 C 0.0972(5) 0.6478(5) 1.0605(3)
H3 H 0.0278 0.6925 1.1239
C6 C 0.0742(5) 0.7389(4) 0.9371(3)
C7 C 0.1780(5) 0.6809(4) 0.8390(3)
C8 C 0.1552(5) 0.7822(4) 0.7051(3)
O7 O 0.2814(3) 0.6783(3) 0.4260(2)
H4 H 0.2155 0.7125 0.4851
H5 H 0.2210 0.6430 0.3807
O8 O 0.3426(3) 0.2698(3) 0.5484(2)
H6 H 0.3077 0.2192 0.5020
O9 O 0.4909(4) -0.0296(3) 0.7909(2)
H7 H 0.4176 -0.0575 0.7500
H8 H 0.4347 0.0290 0.8407
O10 O 0.7143(3) -0.0160(3) 0.5746(2)
H9 H 0.7214 0.0292 0.4970
H10 H 0.8244 -0.0745 0.6022
Cu2A Cu 0.39498(6) 0.85111(5) 0.32273(4)
Cu2_2 Cu -0.39498(6) 1.14889(5) 0.67727(4)
Cu2A_2 Cu 1.39498(6) -0.14889(5) 0.32273(4)
O1A O 0.5863(4) 0.4604(3) 0.3374(2)
O2A O 0.5077(4) 0.7160(3) 0.2032(2)
O3A O 0.7455(4) 0.1116(3) 0.3344(2)
O4A O 0.9636(3) 0.2455(3) 0.3569(2)
N1A N 1.0760(4) 0.1008(4) 0.0862(3)
O5A O 1.0914(4) 0.0099(3) 0.1926(2)
O5_2 O 0.9086(4) -0.0099(3) 0.8074(2)
O5A_2 O 0.0914(4) 1.0099(3) 0.1926(2)
O6A O 1.1828(4) 0.0646(4) -0.0003(3)
C1A C 0.5875(5) 0.5595(5) 0.2315(3)
C2A C 0.6960(5) 0.4827(4) 0.1317(3)
C3A C 0.6762(5) 0.5752(5) 0.0081(3)
H1A H 0.5941 0.6837 -0.0102
C4A C 0.7741(5) 0.5108(5) -0.0865(3)
H2A H 0.7544 0.5733 -0.1682
C5A C 0.9028(5) 0.3522(5) -0.0605(3)
H3A H 0.9722 0.3075 -0.1239
C6A C 0.9258(5) 0.2611(4) 0.0629(3)
C7A C 0.8220(5) 0.3191(4) 0.1610(3)
C8A C 0.8448(5) 0.2178(4) 0.2949(3)
O7A O 0.7186(3) 0.3217(3) 0.5740(2)
H4A H 0.7845 0.2875 0.5149
H5A H 0.7790 0.3570 0.6193
O8A O 0.6574(3) 0.7302(3) 0.4516(2)
H6A H 0.6923 0.7808 0.4980
O9A O 0.5091(4) 1.0296(3) 0.2091(2)
H7A H 0.5824 1.0575 0.2500
H8A H 0.5653 0.9710 0.1593
O10A O 0.2857(3) 1.0160(3) 0.4254(2)
H9A H 0.2786 0.9708 0.5030
H10A H 0.1756 1.0745 0.3978
O11 O 0.0155(4) 0.4078(3) 0.6559(2)
H11 H 0.1077 0.3645 0.6117
H12 H 0.0135 0.5114 0.6470
loop_
_geom_bond_atom_site_label_1
_geom_bond_atom_site_label_2
_geom_bond_site_symmetry_1
_geom_bond_site_symmetry_2
Cu1 O1 1_555 1_555
Cu2 O2 1_555 1_555
O1 C1 1_555 1_555
O2 C1 1_555 1_555
O3 C8 1_555 1_555
O4 C8 1_555 1_555
N1 O5 1_555 1_555
O5 Cu2_2 1_555 1_555
O6 N1 1_555 1_555
C1 C2 1_555 1_555
C2 C3 1_555 1_555
C3 H1 1_555 1_555
C4 C3 1_555 1_555
H2 C4 1_555 1_555
C5 C4 1_555 1_555
H3 C5 1_555 1_555
C6 N1 1_555 1_555
C7 C2 1_555 1_555
C8 C7 1_555 1_555
O7 Cu1 1_555 1_555
H4 O7 1_555 1_555
H5 O7 1_555 1_555
O8 Cu1 1_555 1_555
H6 O8 1_555 1_555
O9 Cu2 1_555 1_555
H7 O9 1_555 1_555
H8 O9 1_555 1_555
O10 Cu2 1_555 1_555
H9 O10 1_555 1_555
H10 O10 1_555 1_555
O11 H11 1_555 1_555
H12 O11 1_555 1_555
Cu2A O7 1_555 1_555
Cu2A_2 O5A 1_555 1_555
O1A Cu1 1_555 1_555
O2A Cu2A 1_555 1_555
O3A C8A 1_555 1_555
O4A C8A 1_555 1_555
N1A O5A 1_555 1_555
O5_2 Cu2 1_555 1_555
O5A_2 Cu2A 1_555 1_555
O6A N1A 1_555 1_555
C1A O1A 1_555 1_555
C2A C1A 1_555 1_555
C3A C2A 1_555 1_555
H1A C3A 1_555 1_555
C4A C3A 1_555 1_555
H2A C4A 1_555 1_555
C5A C4A 1_555 1_555
H3A C5A 1_555 1_555
C6A N1A 1_555 1_555
C7A C2A 1_555 1_555
C8A C7A 1_555 1_555
O7A Cu1 1_555 1_555
H4A O7A 1_555 1_555
H5A O7A 1_555 1_555
O8A Cu1 1_555 1_555
H6A O8A 1_555 1_555
O9A Cu2A 1_555 1_555
H7A O9A 1_555 1_555
H8A O9A 1_555 1_555
O10A Cu2A 1_555 1_555
H9A O10A 1_555 1_555
H10A O10A 1_555 1_555
Cu2 O8 1_555 1_555
Cu2 O7A 1_555 1_555
C5 C6 1_555 1_555
C6 C7 1_555 1_555
Cu2A O8A 1_555 1_555
O2A C1A 1_555 1_555
C5A C6A 1_555 1_555
C6A C7A 1_555 1_555

#END
