
#######################################################################
#
#                 Cambridge Crystallographic Data Centre
#                                CCDC 
#
#######################################################################
#
# If this CIF has been generated from an entry in the Cambridge 
# Structural Database, then it will include bibliographic, chemical, 
# crystal, experimental, refinement or atomic coordinate data resulting 
# from the CCDC's data processing and validation procedures.
#
#######################################################################

data_MOLHUR
_symmetry_cell_setting           monoclinic
_symmetry_space_group_name_H-M   'P 21/c'
_symmetry_Int_Tables_number      14
_space_group_name_Hall           '-P 2ybc'
loop_
_symmetry_equiv_pos_site_id
_symmetry_equiv_pos_as_xyz
1 x,y,z
2 -x,1/2+y,1/2-z
3 -x,-y,-z
4 x,1/2-y,1/2+z
_cell_length_a                   18.390(3)
_cell_length_b                   14.018(3)
_cell_length_c                   13.338(6)
_cell_angle_alpha                90
_cell_angle_beta                 101.919(12)
_cell_angle_gamma                90
_cell_volume                     3364.29
loop_
_atom_site_label
_atom_site_type_symbol
_atom_site_fract_x
_atom_site_fract_y
_atom_site_fract_z
C1 C 0.5076(2) 0.0184(2) 0.7195(3)
H1 H 0.4756 -0.0265 0.7382
C2 C 0.50399(18) 0.0555(2) 0.6256(2)
H2 H 0.4686 0.0400 0.5674
C3 C 0.59773(19) 0.1201(2) 0.7243(2)
H3 H 0.6395 0.1573 0.7487
C4 C 0.5990(3) 0.0372(2) 0.8899(3)
H4 H 0.6222 0.0937 0.9245
H5 H 0.5596 0.0173 0.9235
C5 C 0.6554(3) -0.0408(2) 0.8972(3)
H6 H 0.6764 -0.0550 0.9685
H7 H 0.6954 -0.0213 0.8642
C6 C 0.6685(2) -0.2001(2) 0.8511(3)
H8 H 0.7024 -0.1889 0.8055
H9 H 0.6973 -0.2091 0.9200
C7 C 0.6217(2) -0.2864(2) 0.8174(3)
H10 H 0.5859 -0.2936 0.8610
H11 H 0.6534 -0.3424 0.8267
C8 C 0.6038(2) -0.3218(3) 0.6280(3)
H12 H 0.6476 -0.3553 0.6286
C9 C 0.5503(2) -0.3031(3) 0.5461(3)
H13 H 0.5505 -0.3223 0.4794
C10 C 0.51610(17) -0.24054(19) 0.6760(2)
H14 H 0.4890 -0.2084 0.7171
C11 C 0.35193(16) -0.34250(18) 0.3472(2)
C12 C 0.29648(15) -0.41185(16) 0.28698(19)
C13 C 0.25159(15) -0.46506(17) 0.33846(19)
H15 H 0.2507 -0.4501 0.4061
C14 C 0.20795(15) -0.54026(17) 0.29101(19)
C15 C 0.20917(15) -0.56287(16) 0.18938(19)
C16 C 0.25282(15) -0.50816(17) 0.13781(19)
H16 H 0.2538 -0.5234 0.0702
C17 C 0.29480(15) -0.43198(17) 0.18327(19)
C18 C 0.33301(15) -0.36893(18) 0.1193(2)
C19 C 0.16271(17) -0.59389(19) 0.3546(2)
C20 C 0.16434(16) -0.64405(18) 0.1346(2)
C21 C -0.0153(2) -0.8309(3) 0.4411(3)
H17 H -0.0163 -0.8510 0.5072
C22 C -0.0617(2) -0.8609(3) 0.3548(3)
H18 H -0.1001 -0.9048 0.3504
C23 C 0.01586(17) -0.7576(2) 0.3145(2)
H19 H 0.0399 -0.7175 0.2763
C24 C -0.0750(2) -0.8210(2) 0.1650(3)
H20 H -0.0378 -0.8071 0.1250
H21 H -0.0923 -0.8857 0.1494
C25 C -0.1394(2) -0.7531(2) 0.1346(3)
H22 H -0.1763 -0.7644 0.1757
H23 H -0.1626 -0.7619 0.0630
C26 C -0.1657(3) -0.5886(3) 0.1192(3)
H24 H -0.1849 -0.5935 0.0460
H25 H -0.2065 -0.5975 0.1540
C27 C -0.1307(3) -0.4919(3) 0.1450(3)
H26 H -0.1624 -0.4435 0.1064
H27 H -0.0833 -0.4899 0.1241
C28 C -0.0831(4) -0.5250(3) 0.3324(3)
H28 H -0.0604 -0.5835 0.3268
C29 C -0.0862(3) -0.4785(3) 0.4197(3)
H29 H -0.0671 -0.5009 0.4855
C30 C -0.13986(19) -0.3909(2) 0.2959(3)
H30 H -0.1641 -0.3401 0.2584
N1 N 0.56123(14) 0.12022(16) 0.62910(18)
N2 N 0.56772(17) 0.05981(17) 0.78242(19)
N3 N 0.58187(15) -0.28235(18) 0.7105(2)
N4 N 0.49466(14) -0.25090(17) 0.57542(18)
N5 N 0.03388(14) -0.76580(17) 0.41535(19)
N6 N -0.04095(15) -0.81395(18) 0.2746(2)
N7 N -0.11933(18) -0.46989(19) 0.2538(2)
N8 N -0.12190(16) -0.39296(17) 0.3967(2)
O1 O 0.61958(13) -0.12181(15) 0.84832(18)
O2 O 0.32610(12) -0.28265(14) 0.40327(16)
O3 O 0.41790(11) -0.34987(15) 0.34331(16)
O4 O 0.33464(14) -0.28170(13) 0.13175(16)
O5 O 0.36093(12) -0.40889(14) 0.04941(15)
O6 O 0.19211(13) -0.66876(15) 0.39963(17)
O7 O 0.10281(13) -0.56066(16) 0.36586(18)
O8 O 0.10800(13) -0.67220(16) 0.16150(17)
O9 O 0.18897(12) -0.68043(13) 0.05952(16)
O10 O -0.11039(14) -0.65938(15) 0.15119(18)
Co1 Co 0.40402(2) -0.19769(2) 0.48098(3)
Co2 Co 0.12841(2) -0.70927(2) 0.49853(3)
N1B N 0.43877(14) -0.12022(16) 0.37090(18)
N8B N 0.12190(16) -0.60704(17) 0.6033(2)
O5C O 0.36093(12) -0.09111(14) 0.54941(15)
O9C O 0.18897(12) -0.81957(13) 0.55952(16)
Co1B Co 0.59598(2) 0.19769(2) 0.51902(3)
Co1C Co 0.40402(2) -0.30231(2) -0.01902(3)
Co2C Co 0.12841(2) -0.79073(2) -0.00147(3)
Co2B Co -0.12841(2) -0.29073(2) 0.50147(3)
O11 O 0.6798(4) 0.5710(5) 1.1054(5)
O12? O 0.2235(8) -0.1386(10) 0.1081(10)
loop_
_geom_bond_atom_site_label_1
_geom_bond_atom_site_label_2
_geom_bond_site_symmetry_1
_geom_bond_site_symmetry_2
C1 H1 1_555 1_555
C2 C1 1_555 1_555
H2 C2 1_555 1_555
C3 H3 1_555 1_555
C4 H4 1_555 1_555
H5 C4 1_555 1_555
C5 C4 1_555 1_555
H6 C5 1_555 1_555
H7 C5 1_555 1_555
C6 H8 1_555 1_555
H9 C6 1_555 1_555
C7 C6 1_555 1_555
H10 C7 1_555 1_555
H11 C7 1_555 1_555
C8 H12 1_555 1_555
C9 C8 1_555 1_555
H13 C9 1_555 1_555
C10 H14 1_555 1_555
C11 C12 1_555 1_555
C12 C13 1_555 1_555
C13 H15 1_555 1_555
C14 C13 1_555 1_555
C15 C14 1_555 1_555
C16 C15 1_555 1_555
H16 C16 1_555 1_555
C17 C12 1_555 1_555
C18 C17 1_555 1_555
C19 C14 1_555 1_555
C20 C15 1_555 1_555
C21 H17 1_555 1_555
C22 C21 1_555 1_555
H18 C22 1_555 1_555
C23 H19 1_555 1_555
C24 H20 1_555 1_555
H21 C24 1_555 1_555
C25 C24 1_555 1_555
H22 C25 1_555 1_555
H23 C25 1_555 1_555
C26 H24 1_555 1_555
H25 C26 1_555 1_555
C27 C26 1_555 1_555
H26 C27 1_555 1_555
H27 C27 1_555 1_555
C28 H28 1_555 1_555
C29 C28 1_555 1_555
H29 C29 1_555 1_555
C30 H30 1_555 1_555
N1 C2 1_555 1_555
N2 C1 1_555 1_555
N3 C7 1_555 1_555
N4 C9 1_555 1_555
N5 C21 1_555 1_555
N6 C22 1_555 1_555
N7 C27 1_555 1_555
N8 C29 1_555 1_555
O1 C5 1_555 1_555
O2 C11 1_555 1_555
O3 C11 1_555 1_555
O4 C18 1_555 1_555
O5 C18 1_555 1_555
O6 C19 1_555 1_555
O7 C19 1_555 1_555
O8 C20 1_555 1_555
O9 C20 1_555 1_555
O10 C25 1_555 1_555
Co1 N4 1_555 1_555
Co2 N5 1_555 1_555
N1B Co1 1_555 1_555
N8B Co2 1_555 1_555
O5C Co1 1_555 1_555
O9C Co2 1_555 1_555
Co1B N1 1_555 1_555
Co1C O5 1_555 1_555
Co2C O9 1_555 1_555
Co2B N8 1_555 1_555
C3 N1 1_555 1_555
C3 N2 1_555 1_555
C4 N2 1_555 1_555
C6 O1 1_555 1_555
C8 N3 1_555 1_555
C10 N3 1_555 1_555
C10 N4 1_555 1_555
C16 C17 1_555 1_555
C23 N5 1_555 1_555
C23 N6 1_555 1_555
C24 N6 1_555 1_555
C26 O10 1_555 1_555
C28 N7 1_555 1_555
C30 N7 1_555 1_555
C30 N8 1_555 1_555
O2 Co1 1_555 1_555
O6 Co2 1_555 1_555

#END
