
#######################################################################
#
#                 Cambridge Crystallographic Data Centre
#                                CCDC 
#
#######################################################################
#
# If this CIF has been generated from an entry in the Cambridge 
# Structural Database, then it will include bibliographic, chemical, 
# crystal, experimental, refinement or atomic coordinate data resulting 
# from the CCDC's data processing and validation procedures.
#
#######################################################################

data_MOLJIH
_symmetry_cell_setting           monoclinic
_symmetry_space_group_name_H-M   'C 2/c'
_symmetry_Int_Tables_number      15
_space_group_name_Hall           '-C 2yn'
loop_
_symmetry_equiv_pos_site_id
_symmetry_equiv_pos_as_xyz
1 x,y,z
2 1/2+x,1/2+y,z
3 -x,y,1/2-z
4 1/2-x,1/2+y,1/2-z
5 -x,-y,-z
6 1/2-x,1/2-y,-z
7 x,-y,1/2+z
8 1/2+x,1/2-y,1/2+z
_cell_length_a                   23.431(8)
_cell_length_b                   9.456(3)
_cell_length_c                   19.838(11)
_cell_angle_alpha                90
_cell_angle_beta                 123.444(4)
_cell_angle_gamma                90
_cell_volume                     3667.61
loop_
_atom_site_label
_atom_site_type_symbol
_atom_site_fract_x
_atom_site_fract_y
_atom_site_fract_z
Cu1 Cu 0.2500 0.2500 0.5000
Cl1 Cl 0.17848(4) 0.49735(9) 0.49205(5)
F1 F -0.00110(9) 0.2782(2) 0.06243(13)
F2 F 0.03625(13) 0.7547(2) 0.13294(17)
O1 O 0.21283(9) 0.2049(2) 0.19749(11)
H1 H 0.2299 0.2463 0.1764
N1 N 0.12916(11) 0.1502(3) 0.25809(13)
N2 N 0.07749(13) 0.1990(4) 0.26390(16)
N3 N 0.17782(12) 0.2143(3) 0.38275(13)
N4 N 0.14313(11) 0.0343(3) 0.05186(13)
N5 N 0.11163(14) -0.0852(3) 0.05224(18)
N6 N 0.19451(11) -0.1357(3) 0.03193(13)
C1 C 0.11287(13) 0.3574(3) 0.14292(15)
C2 C 0.04358(14) 0.3864(3) 0.10155(17)
C3 C 0.01623(16) 0.5161(4) 0.09773(19)
H2 H -0.0308 0.5300 0.0701
C4 C 0.06131(18) 0.6238(4) 0.1365(2)
C5 C 0.13050(17) 0.6049(4) 0.1789(2)
H3 H 0.1601 0.6806 0.2048
C6 C 0.15554(15) 0.4718(3) 0.18244(18)
H4 H 0.2026 0.4580 0.2123
C7 C 0.14085(13) 0.2098(3) 0.14548(15)
C8 C 0.11578(15) 0.1007(3) 0.18068(16)
H5 H 0.0671 0.0852 0.1431
H6 H 0.1390 0.0114 0.1884
C9 C 0.18762(14) 0.1607(3) 0.32870(15)
H7 H 0.2299 0.1340 0.3389
C10 C 0.10957(17) 0.2354(4) 0.3397(2)
H8 H 0.0872 0.2730 0.3624
C11 C 0.11819(15) 0.1713(3) 0.05826(16)
H9 H 0.0686 0.1713 0.0240
H10 H 0.1346 0.2436 0.0382
C12 C 0.14453(16) -0.1847(4) 0.0404(2)
H11 H 0.1343 -0.2803 0.0381
C13 C 0.19197(15) 0.0021(3) 0.03952(17)
H12 H 0.2202 0.0675 0.0367
Cu1F Cu 0.2500 -0.2500 0.0000
Cu1F_2 Cu 0.2500 0.7500 1.0000
Cl1E Cl 0.32152(4) 0.00265(9) 0.50795(5)
F1E F 0.50110(9) 0.2218(2) 0.93757(13)
F2E F 0.46375(13) -0.2547(2) 0.86706(17)
O1E O 0.28717(9) 0.2951(2) 0.80251(11)
H1E H 0.2701 0.2537 0.8236
N1E N 0.37084(11) 0.3498(3) 0.74191(13)
N2E N 0.42251(13) 0.3010(4) 0.73610(16)
N3E N 0.32218(12) 0.2857(3) 0.61725(13)
N4E N 0.35687(11) 0.4657(3) 0.94814(13)
N5E N 0.38837(14) 0.5852(3) 0.94776(18)
N6E N 0.30549(11) 0.6357(3) 0.96807(13)
N6F N 0.19451(11) 0.1357(3) 0.53193(13)
N6C N 0.30549(11) 0.3643(3) 0.46807(13)
C1E C 0.38713(13) 0.1426(3) 0.85708(15)
C2E C 0.45642(14) 0.1136(3) 0.89845(17)
C3E C 0.48377(16) -0.0161(4) 0.90227(19)
H2E H 0.5308 -0.0300 0.9299
C4E C 0.43869(18) -0.1238(4) 0.8635(2)
C5E C 0.36950(17) -0.1049(4) 0.8211(2)
H3E H 0.3399 -0.1806 0.7952
C6E C 0.34446(15) 0.0282(3) 0.81756(18)
H4E H 0.2974 0.0420 0.7877
C7E C 0.35915(13) 0.2902(3) 0.85452(15)
C8E C 0.38422(15) 0.3993(3) 0.81932(16)
H5E H 0.4329 0.4148 0.8569
H6E H 0.3610 0.4886 0.8116
C9E C 0.31238(14) 0.3393(3) 0.67130(15)
H7E H 0.2701 0.3660 0.6611
C10E C 0.39043(17) 0.2646(4) 0.6603(2)
H8E H 0.4128 0.2270 0.6376
C11E C 0.38181(15) 0.3287(3) 0.94174(16)
H9E H 0.4314 0.3287 0.9760
H10E H 0.3654 0.2564 0.9618
C12E C 0.35547(16) 0.6847(4) 0.9596(2)
H11E H 0.3657 0.7803 0.9619
C13E C 0.30803(15) 0.4979(3) 0.96048(17)
H12E H 0.2798 0.4325 0.9633
O2 O 0.27952(15) 0.3322(4) 0.14117(19)
O3 O 0.3725(6) 0.2578(10) 0.1218(7)
O4? O 0.4297(12) 0.290(2) 0.1718(14)
O5? O 0.3473(6) 0.2989(13) 0.1493(7)
loop_
_geom_bond_atom_site_label_1
_geom_bond_atom_site_label_2
_geom_bond_site_symmetry_1
_geom_bond_site_symmetry_2
Cu1 Cl1 1_555 1_555
F1 C2 1_555 1_555
F2 C4 1_555 1_555
O1 H1 1_555 1_555
N1 N2 1_555 1_555
N2 C10 1_555 1_555
N3 Cu1 1_555 1_555
N4 N5 1_555 1_555
N5 C12 1_555 1_555
N6 C12 1_555 1_555
C1 C2 1_555 1_555
C2 C3 1_555 1_555
C3 H2 1_555 1_555
C4 C3 1_555 1_555
C5 C4 1_555 1_555
H3 C5 1_555 1_555
C6 C1 1_555 1_555
H4 C6 1_555 1_555
C7 O1 1_555 1_555
C8 N1 1_555 1_555
H5 C8 1_555 1_555
H6 C8 1_555 1_555
C9 N1 1_555 1_555
H7 C9 1_555 1_555
C10 N3 1_555 1_555
H8 C10 1_555 1_555
C11 N4 1_555 1_555
H9 C11 1_555 1_555
H10 C11 1_555 1_555
C12 H11 1_555 1_555
C13 N4 1_555 1_555
H12 C13 1_555 1_555
Cu1F N6 1_555 1_555
Cu1F_2 N6E 1_555 1_555
Cl1E Cu1 1_555 1_555
F1E C2E 1_555 1_555
F2E C4E 1_555 1_555
O1E H1E 1_555 1_555
N1E N2E 1_555 1_555
N2E C10E 1_555 1_555
N3E Cu1 1_555 1_555
N4E N5E 1_555 1_555
N5E C12E 1_555 1_555
N6E C12E 1_555 1_555
N6F Cu1 1_555 1_555
N6C Cu1 1_555 1_555
C1E C2E 1_555 1_555
C2E C3E 1_555 1_555
C3E H2E 1_555 1_555
C4E C3E 1_555 1_555
C5E C4E 1_555 1_555
H3E C5E 1_555 1_555
C6E C1E 1_555 1_555
H4E C6E 1_555 1_555
C7E O1E 1_555 1_555
C8E N1E 1_555 1_555
H5E C8E 1_555 1_555
H6E C8E 1_555 1_555
C9E N1E 1_555 1_555
H7E C9E 1_555 1_555
C10E N3E 1_555 1_555
H8E C10E 1_555 1_555
C11E N4E 1_555 1_555
H9E C11E 1_555 1_555
H10E C11E 1_555 1_555
C12E H11E 1_555 1_555
C13E N4E 1_555 1_555
H12E C13E 1_555 1_555
N3 C9 1_555 1_555
N6 C13 1_555 1_555
C1 C7 1_555 1_555
C5 C6 1_555 1_555
C7 C8 1_555 1_555
C7 C11 1_555 1_555
N3E C9E 1_555 1_555
N6E C13E 1_555 1_555
C1E C7E 1_555 1_555
C5E C6E 1_555 1_555
C7E C8E 1_555 1_555
C7E C11E 1_555 1_555

#END
