
#######################################################################
#
#                 Cambridge Crystallographic Data Centre
#                                CCDC 
#
#######################################################################
#
# If this CIF has been generated from an entry in the Cambridge 
# Structural Database, then it will include bibliographic, chemical, 
# crystal, experimental, refinement or atomic coordinate data resulting 
# from the CCDC's data processing and validation procedures.
#
#######################################################################

data_MOLKAA
_symmetry_cell_setting           monoclinic
_symmetry_space_group_name_H-M   'P 21'
_symmetry_Int_Tables_number      4
_space_group_name_Hall           'P 2yb'
loop_
_symmetry_equiv_pos_site_id
_symmetry_equiv_pos_as_xyz
1 x,y,z
2 -x,1/2+y,-z
_cell_length_a                   11.5836(10)
_cell_length_b                   9.1343(5)
_cell_length_c                   11.6110(11)
_cell_angle_alpha                90
_cell_angle_beta                 111.699(7)
_cell_angle_gamma                90
_cell_volume                     1141.48
loop_
_atom_site_label
_atom_site_type_symbol
_atom_site_fract_x
_atom_site_fract_y
_atom_site_fract_z
Cu1 Cu 0.04239(2) 0.61675(6) 0.69754(2)
Ni1 Ni 0.11101(2) 0.11788(6) 0.89270(2)
N1 N 0.1647(3) -0.1281(4) 1.0781(3)
N2 N 0.1848(3) 0.3489(4) 1.0928(3)
N3 N 0.0581(3) 0.3478(4) 0.6933(3)
N4 N 0.0383(3) 0.8944(4) 0.6889(3)
N5 N -0.07161(13) 0.6178(5) 0.51691(13)
N6 N -0.11614(16) 0.5951(3) 0.72941(16)
N7 N 0.15882(13) 0.6194(4) 0.87999(13)
N8 N 0.19974(17) 0.6441(3) 0.66572(17)
C1 C 0.1435(4) -0.0323(4) 1.0079(4)
C2 C 0.1564(4) 0.2606(4) 1.0182(4)
C3 C 0.0777(4) 0.2619(4) 0.7707(4)
C4 C 0.0678(4) 0.9786(4) 0.7687(4)
C5 C -0.2027(2) 0.6324(5) 0.5074(2)
C6 C -0.2977(2) 0.5842(4) 0.3834(2)
C7 C -0.4293(3) 0.5943(10) 0.3838(3)
C8 C -0.4412(3) 0.5055(6) 0.4904(3)
C9 C -0.3454(3) 0.5565(5) 0.6147(3)
C10 C -0.2150(2) 0.5445(3) 0.6141(2)
C11 C 0.2873(2) 0.6555(2) 0.8888(2)
C12 C 0.3883(2) 0.6024(6) 1.0071(2)
C13 C 0.5173(2) 0.6375(6) 1.0066(3)
C14 C 0.5338(2) 0.5769(4) 0.8910(3)
C15 C 0.4315(2) 0.6335(6) 0.7741(3)
C16 C 0.3044(2) 0.5933(3) 0.7751(2)
H1 H -0.211(3) 0.731(4) 0.521(3)
H2 H -0.05140 0.69470 0.47680
H3 H -0.06210 0.53220 0.47960
H4 H -0.280(3) 0.488(4) 0.371(3)
H5 H -0.285(3) 0.652(4) 0.319(3)
H6 H -0.10520 0.52830 0.79190
H7 H -0.13800 0.68350 0.75350
H8 H -0.449(5) 0.700(7) 0.386(5)
H9 H -0.493(5) 0.559(5) 0.303(4)
H10 H 0.13200 0.68820 0.92240
H11 H 0.15820 0.52940 0.91520
H12 H -0.429(5) 0.402(3) 0.480(5)
H13 H -0.516(5) 0.525(5) 0.490(5)
H14 H 0.19620 0.59130 0.59700
H15 H 0.21000 0.74130 0.65120
H16 H -0.355(4) 0.665(5) 0.640(4)
H17 H -0.347(4) 0.495(5) 0.672(4)
H18 H -0.192(3) 0.441(4) 0.607(3)
H19 H 0.286(3) 0.763(4) 0.885(3)
H20 H 0.380(3) 0.502(4) 1.013(3)
H21 H 0.376(3) 0.652(4) 1.073(3)
H22 H 0.582(3) 0.604(6) 1.086(3)
H23 H 0.537(4) 0.745(5) 1.015(4)
H24 H 0.613(3) 0.601(6) 0.892(3)
H25 H 0.536(4) 0.465(5) 0.890(4)
H26 H 0.434(3) 0.597(5) 0.701(3)
H27 H 0.438(3) 0.732(4) 0.766(3)
H28 H 0.297(3) 0.492(4) 0.776(3)
Ni1_2 Ni 0.11101(2) 1.11788(6) 0.89270(2)
C4_2 C 0.0678(4) -0.0214(4) 0.7687(4)
O1 O 0.24875(18) 0.6177(5) 0.24184(14)
H29 H 0.237(4) 0.538(5) 0.191(4)
H30 H 0.194(3) 0.672(5) 0.194(4)
O2 O 0.2175(2) 0.5156(3) 0.44808(19)
H31 H 0.144(4) 0.489(5) 0.411(4)
H32 H 0.225(4) 0.558(4) 0.393(4)
loop_
_geom_bond_atom_site_label_1
_geom_bond_atom_site_label_2
_geom_bond_site_symmetry_1
_geom_bond_site_symmetry_2
Cu1 N3 1_555 1_555
Ni1 C1 1_555 1_555
N1 C1 1_555 1_555
N2 C2 1_555 1_555
N3 C3 1_555 1_555
N4 Cu1 1_555 1_555
N5 Cu1 1_555 1_555
N6 Cu1 1_555 1_555
N7 Cu1 1_555 1_555
N8 Cu1 1_555 1_555
C2 Ni1 1_555 1_555
C3 Ni1 1_555 1_555
C4 N4 1_555 1_555
C5 N5 1_555 1_555
C6 C5 1_555 1_555
C7 C6 1_555 1_555
C8 C7 1_555 1_555
C9 C8 1_555 1_555
C10 N6 1_555 1_555
C11 N7 1_555 1_555
C12 C11 1_555 1_555
C13 C12 1_555 1_555
C14 C13 1_555 1_555
C15 C14 1_555 1_555
C16 N8 1_555 1_555
O1 H29 1_555 1_555
O2 H31 1_555 1_555
H1 C5 1_555 1_555
H2 N5 1_555 1_555
H3 N5 1_555 1_555
H4 C6 1_555 1_555
H5 C6 1_555 1_555
H6 N6 1_555 1_555
H7 N6 1_555 1_555
H8 C7 1_555 1_555
H9 C7 1_555 1_555
H10 N7 1_555 1_555
H11 N7 1_555 1_555
H12 C8 1_555 1_555
H13 C8 1_555 1_555
H14 N8 1_555 1_555
H15 N8 1_555 1_555
H16 C9 1_555 1_555
H17 C9 1_555 1_555
H18 C10 1_555 1_555
H19 C11 1_555 1_555
H20 C12 1_555 1_555
H21 C12 1_555 1_555
H22 C13 1_555 1_555
H23 C13 1_555 1_555
H24 C14 1_555 1_555
H25 C14 1_555 1_555
H26 C15 1_555 1_555
H27 C15 1_555 1_555
H28 C16 1_555 1_555
H30 O1 1_555 1_555
H32 O2 1_555 1_555
Ni1_2 C4 1_555 1_555
C4_2 Ni1 1_555 1_555
C5 C10 1_555 1_555
C9 C10 1_555 1_555
C11 C16 1_555 1_555
C15 C16 1_555 1_555

#END
