
#######################################################################
#
#                 Cambridge Crystallographic Data Centre
#                                CCDC 
#
#######################################################################
#
# If this CIF has been generated from an entry in the Cambridge 
# Structural Database, then it will include bibliographic, chemical, 
# crystal, experimental, refinement or atomic coordinate data resulting 
# from the CCDC's data processing and validation procedures.
#
#######################################################################

data_MOLKAB
_symmetry_cell_setting           monoclinic
_symmetry_space_group_name_H-M   'P 21/c'
_symmetry_Int_Tables_number      14
_space_group_name_Hall           '-P 2ybc'
loop_
_symmetry_equiv_pos_site_id
_symmetry_equiv_pos_as_xyz
1 x,y,z
2 -x,1/2+y,1/2-z
3 -x,-y,-z
4 x,1/2-y,1/2+z
_cell_length_a                   20.2830(4)
_cell_length_b                   14.2213(3)
_cell_length_c                   19.8390(4)
_cell_angle_alpha                90
_cell_angle_beta                 110.326(2)
_cell_angle_gamma                90
_cell_volume                     5366.24
loop_
_atom_site_label
_atom_site_type_symbol
_atom_site_fract_x
_atom_site_fract_y
_atom_site_fract_z
Cd1 Cd 0.531203(13) 0.300841(19) 0.256772(13)
Cd2 Cd 1.025682(13) -0.057668(19) 0.241687(14)
Ca1 Ca 0.56025(4) 0.04360(5) 0.29633(4)
Ca2 Ca 0.93867(4) -0.30289(5) 0.19041(4)
C1 C 0.71864(19) 0.1784(3) 0.2504(2)
C2 C 0.7800(2) 0.2313(3) 0.2672(2)
H1 H 0.7799 0.2939 0.2808
C3 C 0.8409(2) 0.1920(3) 0.2638(2)
H2 H 0.8815 0.2282 0.2751
C4 C 0.8421(2) 0.0989(3) 0.2437(2)
C5 C 0.7808(2) 0.0466(3) 0.2247(2)
H3 H 0.7807 -0.0153 0.2095
C6 C 0.7193(2) 0.0861(3) 0.2282(2)
H4 H 0.6784 0.0504 0.2155
C7 C 0.65384(19) 0.2211(3) 0.2570(2)
C8 C 0.9095(2) 0.0553(3) 0.2442(2)
C9 C 1.0052(2) -0.1858(3) 0.0421(2)
C10 C 1.0248(2) -0.2791(3) 0.0439(2)
H5 H 1.0369 -0.3124 0.0869
C11 C 1.0265(2) -0.3234(3) -0.0173(2)
H6 H 1.0403 -0.3860 -0.0153
C12 C 1.0076(2) -0.2748(3) -0.0821(2)
C13 C 0.9861(3) -0.1824(3) -0.0844(2)
H7 H 0.9717 -0.1499 -0.1278
C14 C 0.9859(3) -0.1376(3) -0.0222(2)
H8 H 0.9726 -0.0748 -0.0240
C15 C 1.0059(2) -0.1367(3) 0.10926(19)
C16 C 1.0089(2) -0.3224(3) -0.1489(2)
C17 C 1.21799(19) 0.0686(3) 0.2481(2)
C18 C 1.2215(2) 0.1640(3) 0.2363(3)
H9 H 1.1822 0.2017 0.2296
C19 C 1.2832(2) 0.2037(3) 0.2346(3)
H10 H 1.2849 0.2678 0.2261
C20 C 1.34236(19) 0.1488(3) 0.2452(2)
C21 C 1.3382(2) 0.0523(3) 0.2552(2)
H11 H 1.3771 0.0142 0.2611
C22 C 1.2763(2) 0.0131(3) 0.2562(2)
H12 H 1.2738 -0.0514 0.2625
C23 C 1.15215(19) 0.0245(3) 0.2523(2)
C24 C 1.41035(19) 0.1920(3) 0.2482(2)
C25 C 0.5086(2) 0.4236(3) 0.3671(2)
C26 C 0.5042(2) 0.4630(3) 0.4364(2)
C27 C 0.5232(2) 0.4087(3) 0.4989(2)
H13 H 0.5389 0.3474 0.4983
C28 C 0.4811(2) 0.5542(3) 0.4383(2)
H14 H 0.4684 0.5909 0.3969
C29 C 0.5120(2) 0.3838(3) 0.1232(2)
C30 C 0.5065(2) 0.4443(3) 0.0597(2)
C31 C 0.5187(2) 0.5404(3) 0.0673(2)
H15 H 0.5314 0.5677 0.1126
C32 C 0.6479(3) 0.1446(4) 0.4636(3)
C33 C 0.7097(5) 0.1491(6) 0.5853(4)
H16 H 0.7606 0.1530 0.6056
H17 H 0.6922 0.1221 0.6207
C34 C 0.6778(4) 0.2440(5) 0.5613(3)
H18 H 0.6432 0.2594 0.5832
H19 H 0.7135 0.2926 0.5730
C35 C 0.8273(5) -0.5093(10) -0.0741(5)
H20 H 0.8324 -0.5698 -0.0515
H21 H 0.8562 -0.5064 -0.1035
H22 H 0.7790 -0.4996 -0.1035
C36 C 0.8382(4) -0.3489(9) -0.0649(6)
H23 H 0.8523 -0.2981 -0.0311
H24 H 0.7898 -0.3410 -0.0946
H25 H 0.8669 -0.3490 -0.0945
C37 C 0.8665(3) -0.4303(8) 0.0365(4)
O1 O 0.60093(13) 0.16840(19) 0.24743(15)
O2 O 0.84729(16) -0.1892(2) 0.15275(19)
H26 H 0.8575 -0.1276 0.1602
H27 H 0.8025 -0.2078 0.1311
O3 O 0.65201(14) 0.3067(2) 0.27012(17)
O4 O 0.65261(16) -0.0682(2) 0.3390(2)
H28 H 0.6977 -0.0495 0.3512
H29 H 0.6426 -0.1291 0.3430
O5 O 0.96587(15) 0.0988(2) 0.27368(19)
O6 O 0.90862(16) -0.0242(2) 0.21722(18)
O7 O 1.00711(14) -0.18777(19) 0.16236(13)
O8 O 1.00732(18) -0.04967(19) 0.11320(15)
O9 O 1.04336(18) -0.3971(2) -0.14369(16)
O10 O 0.9748(2) -0.2850(2) -0.20794(16)
O11 O 1.10330(14) 0.0776(2) 0.25571(16)
O12 O 1.14584(15) -0.06286(19) 0.25113(18)
O13 O 1.41165(14) 0.2769(2) 0.23042(17)
O14 O 1.46534(14) 0.1447(2) 0.26962(16)
O15 O 0.54224(16) 0.3485(2) 0.36961(14)
O16 O 0.4778(2) 0.4669(2) 0.31094(15)
O17 O 0.50982(14) 0.42613(18) 0.17982(13)
O18 O 0.51774(18) 0.2977(2) 0.12124(15)
O19 O 0.62051(19) 0.1152(3) 0.40163(17)
O20 O 0.8827(2) -0.3657(3) 0.07990(19)
N1 N 0.6452(3) 0.2328(3) 0.4843(2)
H30 H 0.6262 0.2781 0.4554
N2 N 0.6874(3) 0.0947(4) 0.5198(2)
H31 H 0.6984 0.0367 0.5174
N3 N 0.8472(4) -0.4429(9) -0.0241(5)
C38 C 0.4878(2) 0.4039(3) -0.0082(2)
H32 H 0.4795 0.3396 -0.0138
C25B C 0.4914(2) 0.5764(3) 0.6329(2)
C26B C 0.4958(2) 0.5370(3) 0.5636(2)
C27B C 0.4768(2) 0.5913(3) 0.5011(2)
H13B H 0.4611 0.6526 0.5017
C28B C 0.5189(2) 0.4458(3) 0.5617(2)
H14B H 0.5316 0.4091 0.6031
O15B O 0.45776(16) 0.6515(2) 0.63039(14)
O16B O 0.5222(2) 0.5331(2) 0.68906(15)
C29B C 0.4880(2) 0.6162(3) -0.1232(2)
C30B C 0.4935(2) 0.5557(3) -0.0597(2)
C31B C 0.4813(2) 0.4596(3) -0.0673(2)
H15B H 0.4686 0.4323 -0.1126
O17B O 0.49018(14) 0.57387(18) -0.17982(13)
O18B O 0.48226(18) 0.7023(2) -0.12124(15)
C38B C 0.5122(2) 0.5961(3) 0.0082(2)
H32B H 0.5205 0.6604 0.0138
Cd1B Cd 0.468797(13) 0.699159(19) -0.256772(13)
Cd2B Cd -0.025682(13) 1.057668(19) -0.241687(14)
Ca1B Ca 0.43975(4) 0.95640(5) -0.29633(4)
Ca2B Ca 0.06133(4) 1.30289(5) -0.19041(4)
C1B C 0.28136(19) 0.8216(3) -0.2504(2)
C2B C 0.2200(2) 0.7687(3) -0.2672(2)
H1B H 0.2201 0.7061 -0.2808
C3B C 0.1591(2) 0.8080(3) -0.2638(2)
H2B H 0.1185 0.7718 -0.2751
C4B C 0.1579(2) 0.9011(3) -0.2437(2)
C5B C 0.2192(2) 0.9534(3) -0.2247(2)
H3B H 0.2193 1.0153 -0.2095
C6B C 0.2807(2) 0.9139(3) -0.2282(2)
H4B H 0.3216 0.9496 -0.2155
C7B C 0.34616(19) 0.7789(3) -0.2570(2)
C8B C 0.0905(2) 0.9447(3) -0.2442(2)
C9B C -0.0052(2) 1.1858(3) -0.0421(2)
C10B C -0.0248(2) 1.2791(3) -0.0439(2)
H5B H -0.0369 1.3124 -0.0869
C11B C -0.0265(2) 1.3234(3) 0.0173(2)
H6B H -0.0403 1.3860 0.0153
C12B C -0.0076(2) 1.2748(3) 0.0821(2)
C13B C 0.0139(3) 1.1824(3) 0.0844(2)
H7B H 0.0283 1.1499 0.1278
C14B C 0.0141(3) 1.1376(3) 0.0222(2)
H8B H 0.0274 1.0748 0.0240
C15B C -0.0059(2) 1.1367(3) -0.10926(19)
C16B C -0.0089(2) 1.3224(3) 0.1489(2)
C17B C -0.21799(19) 0.9314(3) -0.2481(2)
C18B C -0.2215(2) 0.8360(3) -0.2363(3)
H9B H -0.1822 0.7983 -0.2296
C19B C -0.2832(2) 0.7963(3) -0.2346(3)
H10B H -0.2849 0.7322 -0.2261
C20B C -0.34236(19) 0.8512(3) -0.2452(2)
C21B C -0.3382(2) 0.9477(3) -0.2552(2)
H11B H -0.3771 0.9858 -0.2611
C22B C -0.2763(2) 0.9869(3) -0.2562(2)
H12B H -0.2738 1.0514 -0.2625
C23B C -0.15215(19) 0.9755(3) -0.2523(2)
C24B C -0.41035(19) 0.8080(3) -0.2482(2)
C32B C 0.3521(3) 0.8554(4) -0.4636(3)
C33B C 0.2903(5) 0.8509(6) -0.5853(4)
H16B H 0.2394 0.8470 -0.6056
H17B H 0.3078 0.8779 -0.6207
C34B C 0.3222(4) 0.7560(5) -0.5613(3)
H18B H 0.3568 0.7406 -0.5832
H19B H 0.2865 0.7074 -0.5730
C35B C 0.1727(5) 1.5093(10) 0.0741(5)
H20B H 0.1676 1.5698 0.0515
H21B H 0.1438 1.5064 0.1035
H22B H 0.2210 1.4996 0.1035
C36B C 0.1618(4) 1.3489(9) 0.0649(6)
H23B H 0.1477 1.2981 0.0311
H24B H 0.2102 1.3410 0.0946
H25B H 0.1331 1.3490 0.0945
C37B C 0.1335(3) 1.4303(8) -0.0365(4)
O1B O 0.39907(13) 0.83160(19) -0.24743(15)
O2B O 0.15271(16) 1.1892(2) -0.15275(19)
H26B H 0.1425 1.1276 -0.1602
H27B H 0.1975 1.2078 -0.1311
O3B O 0.34799(14) 0.6933(2) -0.27012(17)
O4B O 0.34739(16) 1.0682(2) -0.3390(2)
H28B H 0.3023 1.0495 -0.3512
H29B H 0.3574 1.1291 -0.3430
O5B O 0.03413(15) 0.9012(2) -0.27368(19)
O6B O 0.09138(16) 1.0242(2) -0.21722(18)
O7B O -0.00711(14) 1.18777(19) -0.16236(13)
O8B O -0.00732(18) 1.04967(19) -0.11320(15)
O9B O -0.04336(18) 1.3971(2) 0.14369(16)
O10B O 0.0252(2) 1.2850(2) 0.20794(16)
O11B O -0.10330(14) 0.9224(2) -0.25571(16)
O12B O -0.14584(15) 1.06286(19) -0.25113(18)
O13B O -0.41165(14) 0.7231(2) -0.23042(17)
O14B O -0.46534(14) 0.8553(2) -0.26962(16)
O19B O 0.37949(19) 0.8848(3) -0.40163(17)
O20B O 0.1173(2) 1.3657(3) -0.07990(19)
N1B N 0.3548(3) 0.7672(3) -0.4843(2)
H30B H 0.3738 0.7219 -0.4554
N2B N 0.3126(3) 0.9053(4) -0.5198(2)
H31B H 0.3016 0.9633 -0.5174
N3B N 0.1528(4) 1.4429(9) 0.0241(5)
Cd1_2 Cd 1.531203(13) 0.300841(19) 0.256772(13)
Cd1B_2 Cd -0.531203(13) 0.699159(19) -0.256772(13)
Cd1B_3 Cd 0.468797(13) 0.699159(19) 0.743228(13)
Cd2A Cd -0.025682(13) 1.442332(19) 0.258313(14)
Cd2C Cd 1.025682(13) -0.442332(19) -0.258313(14)
Ca1_2 Ca 1.56025(4) 0.04360(5) 0.29633(4)
Ca1A Ca 0.43975(4) 0.54360(5) 0.20367(4)
Ca1B_2 Ca -0.56025(4) 0.95640(5) -0.29633(4)
Ca1C Ca 0.56025(4) 0.45640(5) -0.20367(4)
Ca1C_2 Ca 0.56025(4) 0.45640(5) 0.79633(4)
Ca2A Ca 0.06133(4) 1.19711(5) 0.30959(4)
Ca2A_2 Ca 1.06133(4) 0.19711(5) 0.30959(4)
Ca2C Ca -0.06133(4) 0.80289(5) -0.30959(4)
Ca2C_2 Ca 0.93867(4) -0.19711(5) -0.30959(4)
O5A O 1.03413(15) -0.4012(2) 0.22632(19)
O5C O -0.03413(15) 1.4012(2) -0.22632(19)
O9A O -0.04336(18) 1.1029(2) -0.35631(16)
O9C O 1.04336(18) -0.1029(2) 0.35631(16)
O10A O 0.0252(2) 1.2150(2) -0.29206(16)
O10C O 0.9748(2) -0.2150(2) 0.29206(16)
O11A O 0.89670(14) -0.4224(2) 0.24429(16)
O11C O 0.10330(14) 1.4224(2) -0.24429(16)
O13_2 O 0.41165(14) 0.2769(2) 0.23042(17)
O13B_2 O 0.58835(14) 0.7231(2) -0.23042(17)
O14_2 O 0.46534(14) 0.1447(2) 0.26962(16)
O14B_2 O 0.53466(14) 0.8553(2) -0.26962(16)
O15B_2 O 0.45776(16) 0.6515(2) -0.36961(14)
O16A O 0.5222(2) -0.0331(2) 0.18906(15)
O16C O 0.4778(2) 1.0331(2) -0.18906(15)
O17A O 0.49018(14) -0.07387(18) 0.32018(13)
O17C O 0.50982(14) 1.07387(18) -0.32018(13)
C39 C 0.3522(4) 0.2134(6) 0.0490(4)
H33 H 0.3474 0.2610 0.0812
H34 H 0.4002 0.1929 0.0641
H35 H 0.3225 0.1609 0.0494
C40 C 0.3370(5) 0.1858(7) -0.0764(5)
H36 H 0.3230 0.2162 -0.1224
H37 H 0.3068 0.1330 -0.0788
H38 H 0.3847 0.1646 -0.0635
C41 C 0.3115(4) 0.3354(6) -0.0362(5)
H39 H 0.2983 0.3562 -0.0835
O21 O 0.3078(3) 0.3946(3) 0.0117(3)
N4 N 0.3317(3) 0.2514(5) -0.0231(3)
C42 C 0.8237(8) 0.1267(13) -0.0355(14)
H40 H 0.8730 0.1322 -0.0082
H41 H 0.7985 0.1760 -0.0218
H42 H 0.8165 0.1319 -0.0858
C43 C 0.7261(12) 0.0342(14) -0.0701(9)
H43 H 0.7053 -0.0223 -0.0601
H44 H 0.7243 0.0333 -0.1191
H45 H 0.7006 0.0877 -0.0627
C44 C 0.8203(6) -0.0177(15) 0.0172(11)
H46 H 0.8572 0.0015 0.0578
O22 O 0.8049(5) -0.1068(7) 0.0194(4)
N5 N 0.7994(5) 0.0402(7) -0.0220(5)
loop_
_geom_bond_atom_site_label_1
_geom_bond_atom_site_label_2
_geom_bond_site_symmetry_1
_geom_bond_site_symmetry_2
Cd1 O1 1_555 1_555
Cd2 O5 1_555 1_555
Ca1 O1 1_555 1_555
Ca2 O2 1_555 1_555
C1 C2 1_555 1_555
C2 H1 1_555 1_555
C3 C2 1_555 1_555
H2 C3 1_555 1_555
C4 C3 1_555 1_555
C5 C4 1_555 1_555
H3 C5 1_555 1_555
C6 C1 1_555 1_555
H4 C6 1_555 1_555
C7 C1 1_555 1_555
C8 C4 1_555 1_555
C9 C10 1_555 1_555
C10 H5 1_555 1_555
C11 C10 1_555 1_555
H6 C11 1_555 1_555
C12 C11 1_555 1_555
C13 C12 1_555 1_555
H7 C13 1_555 1_555
C14 C9 1_555 1_555
H8 C14 1_555 1_555
C15 C9 1_555 1_555
C16 C12 1_555 1_555
C17 C18 1_555 1_555
C18 H9 1_555 1_555
C19 C18 1_555 1_555
H10 C19 1_555 1_555
C20 C19 1_555 1_555
C21 C20 1_555 1_555
H11 C21 1_555 1_555
C22 C17 1_555 1_555
H12 C22 1_555 1_555
C23 C17 1_555 1_555
C24 C20 1_555 1_555
C25 C26 1_555 1_555
C26 C27 1_555 1_555
C27 H13 1_555 1_555
C28 C26 1_555 1_555
H14 C28 1_555 1_555
C29 C30 1_555 1_555
C30 C31 1_555 1_555
C31 H15 1_555 1_555
C32 O19 1_555 1_555
C33 H16 1_555 1_555
H17 C33 1_555 1_555
C34 C33 1_555 1_555
H18 C34 1_555 1_555
H19 C34 1_555 1_555
C35 H20 1_555 1_555
H21 C35 1_555 1_555
H22 C35 1_555 1_555
C36 H23 1_555 1_555
H24 C36 1_555 1_555
H25 C36 1_555 1_555
C37 O20 1_555 1_555
O1 C7 1_555 1_555
O2 H26 1_555 1_555
H27 O2 1_555 1_555
O3 Cd1 1_555 1_555
O4 Ca1 1_555 1_555
H28 O4 1_555 1_555
H29 O4 1_555 1_555
O5 C8 1_555 1_555
O6 Cd2 1_555 1_555
O7 Cd2 1_555 1_555
O8 Cd2 1_555 1_555
O9 C16 1_555 1_555
O10 C16 1_555 1_555
O11 Cd2 1_555 1_555
O12 Cd2 1_555 1_555
O13 C24 1_555 1_555
O14 C24 1_555 1_555
O15 Cd1 1_555 1_555
O16 C25 1_555 1_555
O17 Cd1 1_555 1_555
O18 Cd1 1_555 1_555
O19 Ca1 1_555 1_555
O20 Ca2 1_555 1_555
N1 C32 1_555 1_555
H30 N1 1_555 1_555
N2 C32 1_555 1_555
H31 N2 1_555 1_555
N3 C35 1_555 1_555
C38 C30 1_555 1_555
H32 C38 1_555 1_555
C39 H33 1_555 1_555
H34 C39 1_555 1_555
H35 C39 1_555 1_555
C40 H36 1_555 1_555
H37 C40 1_555 1_555
H38 C40 1_555 1_555
C41 H39 1_555 1_555
O21 C41 1_555 1_555
N4 C39 1_555 1_555
C42 H40 1_555 1_555
H41 C42 1_555 1_555
H42 C42 1_555 1_555
C43 H43 1_555 1_555
H44 C43 1_555 1_555
H45 C43 1_555 1_555
C44 H46 1_555 1_555
O22 C44 1_555 1_555
N5 C42 1_555 1_555
C25B C26B 1_555 1_555
C26B C27B 1_555 1_555
C27B C28 1_555 1_555
H13B C27B 1_555 1_555
C28B C27 1_555 1_555
H14B C28B 1_555 1_555
O15B C25B 1_555 1_555
O16B C25B 1_555 1_555
C29B C30B 1_555 1_555
C30B C31B 1_555 1_555
C31B C38 1_555 1_555
H15B C31B 1_555 1_555
O17B C29B 1_555 1_555
O18B C29B 1_555 1_555
C38B C31 1_555 1_555
H32B C38B 1_555 1_555
Cd1B O17B 1_555 1_555
Cd2B O5B 1_555 1_555
Ca1B O1B 1_555 1_555
Ca2B O2B 1_555 1_555
C1B C2B 1_555 1_555
C2B H1B 1_555 1_555
C3B C2B 1_555 1_555
H2B C3B 1_555 1_555
C4B C3B 1_555 1_555
C5B C4B 1_555 1_555
H3B C5B 1_555 1_555
C6B C1B 1_555 1_555
H4B C6B 1_555 1_555
C7B C1B 1_555 1_555
C8B C4B 1_555 1_555
C9B C10B 1_555 1_555
C10B H5B 1_555 1_555
C11B C10B 1_555 1_555
H6B C11B 1_555 1_555
C12B C11B 1_555 1_555
C13B C12B 1_555 1_555
H7B C13B 1_555 1_555
C14B C9B 1_555 1_555
H8B C14B 1_555 1_555
C15B C9B 1_555 1_555
C16B C12B 1_555 1_555
C17B C18B 1_555 1_555
C18B H9B 1_555 1_555
C19B C18B 1_555 1_555
H10B C19B 1_555 1_555
C20B C19B 1_555 1_555
C21B C20B 1_555 1_555
H11B C21B 1_555 1_555
C22B C17B 1_555 1_555
H12B C22B 1_555 1_555
C23B C17B 1_555 1_555
C24B C20B 1_555 1_555
C32B O19B 1_555 1_555
C33B H16B 1_555 1_555
H17B C33B 1_555 1_555
C34B C33B 1_555 1_555
H18B C34B 1_555 1_555
H19B C34B 1_555 1_555
C35B H20B 1_555 1_555
H21B C35B 1_555 1_555
H22B C35B 1_555 1_555
C36B H23B 1_555 1_555
H24B C36B 1_555 1_555
H25B C36B 1_555 1_555
C37B O20B 1_555 1_555
O1B Cd1B 1_555 1_555
O2B H26B 1_555 1_555
H27B O2B 1_555 1_555
O3B Cd1B 1_555 1_555
O4B Ca1B 1_555 1_555
H28B O4B 1_555 1_555
H29B O4B 1_555 1_555
O5B C8B 1_555 1_555
O6B Cd2B 1_555 1_555
O7B Cd2B 1_555 1_555
O8B Cd2B 1_555 1_555
O9B C16B 1_555 1_555
O10B C16B 1_555 1_555
O11B Cd2B 1_555 1_555
O12B Cd2B 1_555 1_555
O13B C24B 1_555 1_555
O14B C24B 1_555 1_555
O19B Ca1B 1_555 1_555
O20B Ca2B 1_555 1_555
N1B C32B 1_555 1_555
H30B N1B 1_555 1_555
N2B C32B 1_555 1_555
H31B N2B 1_555 1_555
N3B C35B 1_555 1_555
Cd1_2 O13 1_555 1_555
Cd1B_2 O13B 1_555 1_555
Cd1B_3 O15B 1_555 1_555
Cd2A O9B 1_555 1_555
Cd2C O9 1_555 1_555
Ca1_2 O14 1_555 1_555
Ca1A O16 1_555 1_555
Ca1B_2 O14B 1_555 1_555
Ca1C O17B 1_555 1_555
Ca1C_2 O16B 1_555 1_555
Ca2A O10B 1_555 1_555
Ca2A_2 O5 1_555 1_555
Ca2C O5B 1_555 1_555
Ca2C_2 O10 1_555 1_555
O5A Ca2 1_555 1_555
O5C Ca2B 1_555 1_555
O9A Cd2B 1_555 1_555
O9C Cd2 1_555 1_555
O10A Cd2B 1_555 1_555
O10C Cd2 1_555 1_555
O11A Ca2 1_555 1_555
O11C Ca2B 1_555 1_555
O13_2 Cd1 1_555 1_555
O13B_2 Cd1B 1_555 1_555
O14_2 Cd1 1_555 1_555
O14B_2 Cd1B 1_555 1_555
O15B_2 Cd1B 1_555 1_555
O16A Ca1 1_555 1_555
O16C Ca1B 1_555 1_555
O17A Ca1 1_555 1_555
O17C Ca1B 1_555 1_555
Ca1 O14_2 1_555 1_555
Ca2 O7 1_555 1_555
Ca2 O10C 1_555 1_555
C5 C6 1_555 1_555
C7 O3 1_555 1_555
C8 O6 1_555 1_555
C13 C14 1_555 1_555
C15 O7 1_555 1_555
C15 O8 1_555 1_555
C21 C22 1_555 1_555
C23 O11 1_555 1_555
C23 O12 1_555 1_555
C25 O15 1_555 1_555
C29 O17 1_555 1_555
C29 O18 1_555 1_555
C33 N2 1_555 1_555
C34 N1 1_555 1_555
C36 N3 1_555 1_555
C37 N3 1_555 1_555
O10 Cd2C 1_555 1_555
O11 Ca2A_2 1_555 1_555
O14 Cd1_2 1_555 1_555
O17 Ca1A 1_555 1_555
C40 N4 1_555 1_555
C41 N4 1_555 1_555
C43 N5 1_555 1_555
C44 N5 1_555 1_555
C26B C28B 1_555 1_555
C30B C38B 1_555 1_555
O18B Cd1B 1_555 1_555
Ca1B O14B_2 1_555 1_555
Ca2B O7B 1_555 1_555
Ca2B O10A 1_555 1_555
C5B C6B 1_555 1_555
C7B O1B 1_555 1_555
C7B O3B 1_555 1_555
C8B O6B 1_555 1_555
C13B C14B 1_555 1_555
C15B O7B 1_555 1_555
C15B O8B 1_555 1_555
C21B C22B 1_555 1_555
C23B O11B 1_555 1_555
C23B O12B 1_555 1_555
C33B N2B 1_555 1_555
C34B N1B 1_555 1_555
C36B N3B 1_555 1_555
C37B N3B 1_555 1_555
O10B Cd2A 1_555 1_555
O11B Ca2C 1_555 1_555
O14B Cd1B_2 1_555 1_555

#END
