
#######################################################################
#
#                 Cambridge Crystallographic Data Centre
#                                CCDC 
#
#######################################################################
#
# If this CIF has been generated from an entry in the Cambridge 
# Structural Database, then it will include bibliographic, chemical, 
# crystal, experimental, refinement or atomic coordinate data resulting 
# from the CCDC's data processing and validation procedures.
#
#######################################################################

data_MOLKOP
_symmetry_cell_setting           triclinic
_symmetry_space_group_name_H-M   'P -1'
_symmetry_Int_Tables_number      2
_space_group_name_Hall           '-P 1'
loop_
_symmetry_equiv_pos_site_id
_symmetry_equiv_pos_as_xyz
1 x,y,z
2 -x,-y,-z
_cell_length_a                   12.6922(8)
_cell_length_b                   12.7087(9)
_cell_length_c                   13.2065(6)
_cell_angle_alpha                67.298(6)
_cell_angle_beta                 66.065(5)
_cell_angle_gamma                74.549(6)
_cell_volume                     1780.89
loop_
_atom_site_label
_atom_site_type_symbol
_atom_site_fract_x
_atom_site_fract_y
_atom_site_fract_z
Zn1 Zn 0.23845(5) 0.28483(6) 0.40255(5)
Zn2 Zn 0.79315(5) -0.17444(6) 0.04355(5)
O1 O 0.3531(3) 0.2175(4) 0.2842(3)
O2 O 0.4184(6) 0.1268(6) 0.4280(4)
O3 O -0.0683(4) 0.6507(4) 0.0289(4)
O4 O -0.1222(3) 0.7430(4) 0.1568(3)
O5 O 0.0982(4) 0.1333(5) 0.4680(3)
O6 O 0.1393(3) 0.2150(4) 0.5648(3)
O7 O 0.6541(5) -0.3177(5) 0.1561(4)
O8 O 0.6909(3) -0.2148(4) -0.0200(3)
N1 N 0.6812(4) -0.0619(4) 0.1289(4)
N2 N 0.1465(3) 0.4098(4) 0.3050(3)
N3 N -0.1170(4) -0.0691(4) 0.8851(3)
N4 N 0.3211(4) 0.3803(4) 0.4367(3)
C1 C 0.4224(6) 0.1447(6) 0.3310(5)
C2 C 0.5159(5) 0.0751(6) 0.2570(5)
C3 C 0.5989(6) -0.0037(6) 0.2986(5)
H1 H 0.5994 -0.0129 0.3718
C4 C 0.6783(5) -0.0665(6) 0.2350(5)
H2 H 0.7350 -0.1165 0.2643
C5 C 0.6004(5) 0.0159(6) 0.0898(5)
H3 H 0.6005 0.0236 0.0168
C6 C 0.5176(5) 0.0850(6) 0.1499(5)
H4 H 0.4636 0.1376 0.1182
C7 C -0.0655(5) 0.6630(6) 0.1178(5)
C8 C 0.0094(4) 0.5726(5) 0.1832(4)
C9 C 0.0715(5) 0.4786(6) 0.1487(5)
H5 H 0.0686 0.4687 0.0837
C10 C 0.1387(5) 0.3985(6) 0.2122(5)
H6 H 0.1800 0.3345 0.1890
C11 C 0.0892(5) 0.5018(6) 0.3360(4)
H7 H 0.0966 0.5114 0.3990
C12 C 0.0184(5) 0.5849(5) 0.2788(5)
H8 H -0.0222 0.6477 0.3043
C13 C 0.0883(5) 0.1454(6) 0.5598(5)
C14 C 0.0147(4) 0.0705(5) 0.6750(4)
C15 C -0.0006(5) 0.0838(5) 0.7792(4)
H9 H 0.0346 0.1388 0.7801
C16 C -0.0688(5) 0.0142(6) 0.8820(4)
H10 H -0.0817 0.0256 0.9517
C17 C -0.1024(6) -0.0815(6) 0.7853(5)
H11 H -0.1375 -0.1380 0.7870
C18 C -0.0373(5) -0.0144(6) 0.6790(5)
H12 H -0.0283 -0.0260 0.6105
C19 C 0.3104(6) 0.3636(7) 0.5458(5)
H13 H 0.2545 0.3195 0.6066
C20 C 0.3789(6) 0.4092(7) 0.5720(5)
H14 H 0.3688 0.3943 0.6498
C21 C 0.4616(5) 0.4757(6) 0.4870(4)
C22 C 0.4691(6) 0.4983(7) 0.3732(5)
H15 H 0.5218 0.5453 0.3113
C23 C 0.3974(6) 0.4501(7) 0.3532(5)
H16 H 0.4024 0.4674 0.2764
C24 C 0.5692(5) -0.3347(6) 0.0568(5)
H17 H 0.5480 -0.4012 0.1240
H18 H 0.6036 -0.3573 -0.0125
H19 H 0.5011 -0.2801 0.0526
C25 C 0.6361(4) -0.2927(5) 0.0646(4)
N4A N 0.6789(4) 0.6197(4) 0.5633(3)
C19A C 0.6896(6) 0.6364(7) 0.4542(5)
H13A H 0.7455 0.6805 0.3934
C20A C 0.6211(6) 0.5908(7) 0.4280(5)
H14A H 0.6312 0.6057 0.3502
C21A C 0.5384(5) 0.5243(6) 0.5130(4)
C22A C 0.5309(6) 0.5017(7) 0.6268(5)
H15A H 0.4782 0.4547 0.6887
C23A C 0.6026(6) 0.5499(7) 0.6468(5)
H16A H 0.5976 0.5326 0.7236
Zn1A Zn 0.76155(5) 0.71517(6) 0.59745(5)
Zn2A Zn 0.20685(5) 1.17444(6) 0.95645(5)
O1A O 0.6469(3) 0.7825(4) 0.7158(3)
O2A O 0.5816(6) 0.8732(6) 0.5720(4)
O3A O 1.0683(4) 0.3493(4) 0.9711(4)
O4A O 1.1222(3) 0.2570(4) 0.8432(3)
O5A O 0.9018(4) 0.8667(5) 0.5320(3)
O6A O 0.8607(3) 0.7850(4) 0.4352(3)
O7A O 0.3459(5) 1.3177(5) 0.8439(4)
O8A O 0.3091(3) 1.2148(4) 1.0200(3)
N1A N 0.3188(4) 1.0619(4) 0.8711(4)
N2A N 0.8535(3) 0.5902(4) 0.6950(3)
N3A N 1.1170(4) 1.0691(4) 0.1149(3)
C1A C 0.5776(6) 0.8553(6) 0.6690(5)
C2A C 0.4841(5) 0.9249(6) 0.7430(5)
C3A C 0.4011(6) 1.0037(6) 0.7014(5)
H1A H 0.4006 1.0129 0.6282
C4A C 0.3217(5) 1.0665(6) 0.7650(5)
H2A H 0.2650 1.1165 0.7357
C5A C 0.3996(5) 0.9841(6) 0.9102(5)
H3A H 0.3995 0.9764 0.9832
C6A C 0.4824(5) 0.9150(6) 0.8501(5)
H4A H 0.5364 0.8624 0.8818
C7A C 1.0655(5) 0.3370(6) 0.8822(5)
C8A C 0.9906(4) 0.4274(5) 0.8168(4)
C9A C 0.9285(5) 0.5214(6) 0.8513(5)
H5A H 0.9314 0.5313 0.9163
C10A C 0.8613(5) 0.6015(6) 0.7878(5)
H6A H 0.8200 0.6655 0.8110
C11A C 0.9108(5) 0.4982(6) 0.6640(4)
H7A H 0.9034 0.4886 0.6010
C12A C 0.9816(5) 0.4151(5) 0.7212(5)
H8A H 1.0222 0.3523 0.6957
C13A C 0.9117(5) 0.8546(6) 0.4402(5)
C14A C 0.9853(4) 0.9295(5) 0.3250(4)
C15A C 1.0006(5) 0.9162(5) 0.2208(4)
H9A H 0.9654 0.8612 0.2199
C16A C 1.0688(5) 0.9858(6) 0.1180(4)
H10A H 1.0817 0.9744 0.0483
C17A C 1.1024(6) 1.0815(6) 0.2147(5)
H11A H 1.1375 1.1380 0.2130
C18A C 1.0373(5) 1.0144(6) 0.3210(5)
H12A H 1.0283 1.0260 0.3895
C24A C 0.4308(5) 1.3347(6) 0.9432(5)
H17A H 0.4520 1.4012 0.8760
H18A H 0.3964 1.3573 1.0125
H19A H 0.4989 1.2801 0.9474
C25A C 0.3639(4) 1.2927(5) 0.9354(4)
Zn2_2 Zn -0.20685(5) -0.17444(6) 1.04355(5)
Zn2_3 Zn -0.20685(5) 0.82556(6) 0.04355(5)
Zn2A_2 Zn 1.20685(5) 0.17444(6) 0.95645(5)
Zn2A_3 Zn 1.20685(5) 1.17444(6) -0.04355(5)
O3_2 O 0.9317(4) -0.3493(4) 0.0289(4)
O3A_2 O 0.0683(4) 1.3493(4) 0.9711(4)
O4_2 O 0.8778(3) -0.2570(4) 0.1568(3)
O4A_2 O 0.1222(3) 1.2570(4) 0.8432(3)
N3_2 N 0.8830(4) -0.0691(4) -0.1149(3)
N3A_2 N 0.1170(4) 1.0691(4) 1.1149(3)
O9 O 0.8478(8) 0.1758(10) 0.0366(8)
N5 N 0.7218(8) 0.3006(9) 0.0246(8)
C26 C 0.6345(18) 0.395(3) 0.0700(18)
H20 H 0.6371 0.3887 0.1439
H21 H 0.5577 0.3870 0.0795
H22 H 0.6541 0.4690 0.0152
C27 C 0.7119(11) 0.3099(13) -0.0753(11)
H23 H 0.7309 0.2354 -0.0853
H24 H 0.7642 0.3606 -0.1391
H25 H 0.6336 0.3404 -0.0733
C28 C 0.7714(10) 0.2600(13) 0.0892(11)
C29 C 0.7995(10) 0.2400(13) 0.1797(10)
H26 H 0.7614 0.3006 0.2137
H27 H 0.8822 0.2364 0.1563
H28 H 0.7757 0.1680 0.2362
O10 O 0.1904(7) 0.6762(8) 0.3910(7)
N6 N 0.2727(9) 0.7888(11) 0.4017(9)
C30 C 0.3323(11) 0.8258(14) 0.2673(11)
H29 H 0.2811 0.8220 0.2320
H30 H 0.4031 0.7752 0.2472
H31 H 0.3496 0.9032 0.2395
C31 C 0.3071(12) 0.8505(14) 0.4582(12)
H32 H 0.2848 0.8115 0.5408
H33 H 0.2686 0.9281 0.4441
H34 H 0.3897 0.8511 0.4259
C32 C 0.2097(9) 0.7152(11) 0.4516(10)
C33 C 0.1556(9) 0.6911(11) 0.5769(9)
H35 H 0.2076 0.7018 0.6074
H36 H 0.1387 0.6131 0.6125
H37 H 0.0848 0.7425 0.5937
loop_
_geom_bond_atom_site_label_1
_geom_bond_atom_site_label_2
_geom_bond_site_symmetry_1
_geom_bond_site_symmetry_2
Zn1 O1 1_555 1_555
Zn2 O7 1_555 1_555
O1 C1 1_555 1_555
O2 C1 1_555 1_555
O3 C7 1_555 1_555
O4 C7 1_555 1_555
O5 C13 1_555 1_555
O6 Zn1 1_555 1_555
O7 C25 1_555 1_555
O8 Zn2 1_555 1_555
N1 Zn2 1_555 1_555
N2 Zn1 1_555 1_555
N3 C16 1_555 1_555
N4 Zn1 1_555 1_555
C1 C2 1_555 1_555
C2 C3 1_555 1_555
C3 H1 1_555 1_555
C4 N1 1_555 1_555
H2 C4 1_555 1_555
C5 N1 1_555 1_555
H3 C5 1_555 1_555
C6 C2 1_555 1_555
H4 C6 1_555 1_555
C7 C8 1_555 1_555
C8 C9 1_555 1_555
C9 H5 1_555 1_555
C10 N2 1_555 1_555
H6 C10 1_555 1_555
C11 N2 1_555 1_555
H7 C11 1_555 1_555
C12 C8 1_555 1_555
H8 C12 1_555 1_555
C13 O6 1_555 1_555
C14 C13 1_555 1_555
C15 C14 1_555 1_555
H9 C15 1_555 1_555
C16 C15 1_555 1_555
H10 C16 1_555 1_555
C17 N3 1_555 1_555
H11 C17 1_555 1_555
C18 C14 1_555 1_555
H12 C18 1_555 1_555
C19 N4 1_555 1_555
H13 C19 1_555 1_555
C20 C19 1_555 1_555
H14 C20 1_555 1_555
C21 C20 1_555 1_555
C22 C21 1_555 1_555
H15 C22 1_555 1_555
C23 N4 1_555 1_555
H16 C23 1_555 1_555
C24 H17 1_555 1_555
H18 C24 1_555 1_555
H19 C24 1_555 1_555
C25 O8 1_555 1_555
O9 C28 1_555 1_555
N5 C26 1_555 1_555
C26 H20 1_555 1_555
H21 C26 1_555 1_555
H22 C26 1_555 1_555
C27 N5 1_555 1_555
H23 C27 1_555 1_555
H24 C27 1_555 1_555
H25 C27 1_555 1_555
C28 N5 1_555 1_555
C29 C28 1_555 1_555
H26 C29 1_555 1_555
H27 C29 1_555 1_555
H28 C29 1_555 1_555
O10 C32 1_555 1_555
N6 C30 1_555 1_555
C30 H29 1_555 1_555
H30 C30 1_555 1_555
H31 C30 1_555 1_555
C31 N6 1_555 1_555
H32 C31 1_555 1_555
H33 C31 1_555 1_555
H34 C31 1_555 1_555
C32 N6 1_555 1_555
C33 C32 1_555 1_555
H35 C33 1_555 1_555
H36 C33 1_555 1_555
H37 C33 1_555 1_555
N4A C19A 1_555 1_555
C19A H13A 1_555 1_555
C20A C19A 1_555 1_555
H14A C20A 1_555 1_555
C21A C21 1_555 1_555
C22A C21A 1_555 1_555
H15A C22A 1_555 1_555
C23A N4A 1_555 1_555
H16A C23A 1_555 1_555
Zn1A N4A 1_555 1_555
Zn2A O7A 1_555 1_555
O1A Zn1A 1_555 1_555
O2A C1A 1_555 1_555
O3A C7A 1_555 1_555
O4A C7A 1_555 1_555
O5A C13A 1_555 1_555
O6A Zn1A 1_555 1_555
O7A C25A 1_555 1_555
O8A Zn2A 1_555 1_555
N1A Zn2A 1_555 1_555
N2A Zn1A 1_555 1_555
N3A C16A 1_555 1_555
C1A O1A 1_555 1_555
C2A C1A 1_555 1_555
C3A C2A 1_555 1_555
H1A C3A 1_555 1_555
C4A N1A 1_555 1_555
H2A C4A 1_555 1_555
C5A N1A 1_555 1_555
H3A C5A 1_555 1_555
C6A C2A 1_555 1_555
H4A C6A 1_555 1_555
C7A C8A 1_555 1_555
C8A C9A 1_555 1_555
C9A H5A 1_555 1_555
C10A N2A 1_555 1_555
H6A C10A 1_555 1_555
C11A N2A 1_555 1_555
H7A C11A 1_555 1_555
C12A C8A 1_555 1_555
H8A C12A 1_555 1_555
C13A O6A 1_555 1_555
C14A C13A 1_555 1_555
C15A C14A 1_555 1_555
H9A C15A 1_555 1_555
C16A C15A 1_555 1_555
H10A C16A 1_555 1_555
C17A N3A 1_555 1_555
H11A C17A 1_555 1_555
C18A C14A 1_555 1_555
H12A C18A 1_555 1_555
C24A H17A 1_555 1_555
H18A C24A 1_555 1_555
H19A C24A 1_555 1_555
C25A O8A 1_555 1_555
Zn2_2 N3 1_555 1_555
Zn2_3 O3 1_555 1_555
Zn2A_2 O3A 1_555 1_555
Zn2A_3 N3A 1_555 1_555
O3_2 Zn2 1_555 1_555
O3A_2 Zn2A 1_555 1_555
O4_2 Zn2 1_555 1_555
O4A_2 Zn2A 1_555 1_555
N3_2 Zn2 1_555 1_555
N3A_2 Zn2A 1_555 1_555
O4 Zn2_3 1_555 1_555
C3 C4 1_555 1_555
C5 C6 1_555 1_555
C9 C10 1_555 1_555
C11 C12 1_555 1_555
C17 C18 1_555 1_555
C22 C23 1_555 1_555
C24 C25 1_555 1_555
C20A C21A 1_555 1_555
C22A C23A 1_555 1_555
O4A Zn2A_2 1_555 1_555
C3A C4A 1_555 1_555
C5A C6A 1_555 1_555
C9A C10A 1_555 1_555
C11A C12A 1_555 1_555
C17A C18A 1_555 1_555
C24A C25A 1_555 1_555

#END
