
#######################################################################
#
#                 Cambridge Crystallographic Data Centre
#                                CCDC 
#
#######################################################################
#
# If this CIF has been generated from an entry in the Cambridge 
# Structural Database, then it will include bibliographic, chemical, 
# crystal, experimental, refinement or atomic coordinate data resulting 
# from the CCDC's data processing and validation procedures.
#
#######################################################################

data_MOLLOO
_symmetry_cell_setting           monoclinic
_symmetry_space_group_name_H-M   'P 21/n'
_symmetry_Int_Tables_number      14
_space_group_name_Hall           '-P 2yn'
loop_
_symmetry_equiv_pos_site_id
_symmetry_equiv_pos_as_xyz
1 x,y,z
2 1/2-x,1/2+y,1/2-z
3 -x,-y,-z
4 1/2+x,1/2-y,1/2+z
_cell_length_a                   8.656(2)
_cell_length_b                   11.625(3)
_cell_length_c                   12.769(4)
_cell_angle_alpha                90
_cell_angle_beta                 103.61(2)
_cell_angle_gamma                90
_cell_volume                     1248.81
loop_
_atom_site_label
_atom_site_type_symbol
_atom_site_fract_x
_atom_site_fract_y
_atom_site_fract_z
Ag1 Ag 0.17549(3) 0.81468(3) 0.66166(2)
Fe1 Fe 0.0000 1.0000 1.0000
N1 N 0.2224(3) 0.9560(3) 1.1244(2)
N2 N 0.0840(4) 0.9156(3) 0.8762(2)
C1 C 0.1169(4) 0.8789(3) 0.8019(3)
N3 N 0.1137(4) 1.1568(3) 0.9601(2)
C2 C 0.4984(4) 0.9200(3) 1.2870(3)
C3 C 0.3512(4) 0.8815(4) 1.2966(3)
H1 H 0.3419 0.8426 1.3585
N4 N 0.9232(4) 0.8526(3) 1.5294(3)
C4 C 0.1832(4) 1.2223(3) 0.9230(3)
C5 C 0.3636(5) 0.9907(4) 1.1144(3)
H2 H 0.3696 1.0285 1.0513
C6 C 0.6423(5) 0.8832(3) 1.4796(3)
H3 H 0.5466 0.8869 1.5007
C7 C 0.6455(4) 0.9000(3) 1.3723(3)
C8 C 0.2187(4) 0.9007(4) 1.2153(3)
H4 H 0.1213 0.8737 1.2239
C9 C 0.5022(5) 0.9743(4) 1.1915(3)
H5 H 0.5983 0.9999 1.1794
C10 C 0.7934(4) 0.8935(3) 1.3472(3)
H6 H 0.8022 0.9050 1.2768
C11 C 0.9263(4) 0.8701(4) 1.4273(3)
H7 H 1.0239 0.8662 1.4089
C12 C 0.7821(5) 0.8610(4) 1.5543(3)
H8 H 0.7780 0.8514 1.6259
N1B N -0.2224(3) 1.0440(3) 0.8756(2)
C2B C -0.4984(4) 1.0800(3) 0.7130(3)
C3B C -0.3512(4) 1.1185(4) 0.7034(3)
H1B H -0.3419 1.1574 0.6415
N4B N -0.9232(4) 1.1474(3) 0.4706(3)
C5B C -0.3636(5) 1.0093(4) 0.8856(3)
H2B H -0.3696 0.9715 0.9487
C6B C -0.6423(5) 1.1168(3) 0.5204(3)
H3B H -0.5466 1.1131 0.4993
C7B C -0.6455(4) 1.1000(3) 0.6277(3)
C8B C -0.2187(4) 1.0993(4) 0.7847(3)
H4B H -0.1213 1.1263 0.7761
C9B C -0.5022(5) 1.0257(4) 0.8085(3)
H5B H -0.5983 1.0001 0.8206
C10B C -0.7934(4) 1.1065(3) 0.6528(3)
H6B H -0.8022 1.0950 0.7232
C11B C -0.9263(4) 1.1299(4) 0.5727(3)
H7B H -1.0239 1.1338 0.5911
C12B C -0.7821(5) 1.1390(4) 0.4457(3)
H8B H -0.7780 1.1486 0.3741
N2B N -0.0840(4) 1.0844(3) 1.1238(2)
C1B C -0.1169(4) 1.1211(3) 1.1981(3)
N3B N -0.1137(4) 0.8432(3) 1.0399(2)
C4B C -0.1832(4) 0.7777(3) 1.0770(3)
Ag1B Ag -0.17549(3) 1.18532(3) 1.33834(2)
N4_2 N -0.0768(4) 0.8526(3) 0.5294(3)
C4A C 0.3168(4) 0.7223(3) 0.5770(3)
Ag1_2 Ag 1.17549(3) 0.81468(3) 1.66166(2)
Ag1A Ag 0.32451(3) 1.31468(3) 0.83834(2)
Ag1B_2 Ag -1.17549(3) 1.18532(3) 0.33834(2)
Ag1C Ag -0.32451(3) 0.68532(3) 1.16166(2)
N4B_2 N 0.0768(4) 1.1474(3) 1.4706(3)
C4C C -0.3168(4) 1.2777(3) 1.4230(3)
loop_
_geom_bond_atom_site_label_1
_geom_bond_atom_site_label_2
_geom_bond_site_symmetry_1
_geom_bond_site_symmetry_2
Ag1 C1 1_555 1_555
Fe1 N1 1_555 1_555
N1 C5 1_555 1_555
N2 Fe1 1_555 1_555
C1 N2 1_555 1_555
N3 Fe1 1_555 1_555
C2 C3 1_555 1_555
C3 H1 1_555 1_555
N4 C11 1_555 1_555
C4 N3 1_555 1_555
C5 H2 1_555 1_555
C6 H3 1_555 1_555
C7 C2 1_555 1_555
C8 N1 1_555 1_555
H4 C8 1_555 1_555
C9 C2 1_555 1_555
H5 C9 1_555 1_555
C10 C7 1_555 1_555
H6 C10 1_555 1_555
C11 C10 1_555 1_555
H7 C11 1_555 1_555
C12 N4 1_555 1_555
H8 C12 1_555 1_555
N1B Fe1 1_555 1_555
C2B C3B 1_555 1_555
C3B H1B 1_555 1_555
N4B C11B 1_555 1_555
C5B N1B 1_555 1_555
H2B C5B 1_555 1_555
C6B H3B 1_555 1_555
C7B C2B 1_555 1_555
C8B N1B 1_555 1_555
H4B C8B 1_555 1_555
C9B C2B 1_555 1_555
H5B C9B 1_555 1_555
C10B C7B 1_555 1_555
H6B C10B 1_555 1_555
C11B C10B 1_555 1_555
H7B C11B 1_555 1_555
C12B N4B 1_555 1_555
H8B C12B 1_555 1_555
N2B Fe1 1_555 1_555
C1B N2B 1_555 1_555
N3B Fe1 1_555 1_555
C4B N3B 1_555 1_555
Ag1B C1B 1_555 1_555
N4_2 Ag1 1_555 1_555
C4A Ag1 1_555 1_555
Ag1_2 N4 1_555 1_555
Ag1A C4 1_555 1_555
Ag1B_2 N4B 1_555 1_555
Ag1C C4B 1_555 1_555
N4B_2 Ag1B 1_555 1_555
C4C Ag1B 1_555 1_555
C3 C8 1_555 1_555
C5 C9 1_555 1_555
C6 C7 1_555 1_555
C6 C12 1_555 1_555
C3B C8B 1_555 1_555
C5B C9B 1_555 1_555
C6B C7B 1_555 1_555
C6B C12B 1_555 1_555

#END
