
#######################################################################
#
#                 Cambridge Crystallographic Data Centre
#                                CCDC 
#
#######################################################################
#
# If this CIF has been generated from an entry in the Cambridge 
# Structural Database, then it will include bibliographic, chemical, 
# crystal, experimental, refinement or atomic coordinate data resulting 
# from the CCDC's data processing and validation procedures.
#
#######################################################################

data_MOLLIK
_symmetry_cell_setting           monoclinic
_symmetry_space_group_name_H-M   'C 2/c'
_symmetry_Int_Tables_number      15
_space_group_name_Hall           '-C 2yn'
loop_
_symmetry_equiv_pos_site_id
_symmetry_equiv_pos_as_xyz
1 x,y,z
2 -x,y,1/2-z
3 1/2+x,1/2+y,z
4 1/2-x,1/2+y,1/2-z
5 -x,-y,-z
6 x,-y,1/2+z
7 1/2-x,1/2-y,-z
8 1/2+x,1/2-y,1/2+z
_cell_length_a                   11.5588(18)
_cell_length_b                   15.664(2)
_cell_length_c                   9.2687(14)
_cell_angle_alpha                90
_cell_angle_beta                 101.764(2)
_cell_angle_gamma                90
_cell_volume                     1642.91
loop_
_atom_site_label
_atom_site_type_symbol
_atom_site_fract_x
_atom_site_fract_y
_atom_site_fract_z
Zn1 Zn 0.5000 0.09402(4) 0.7500
O1 O 0.4100(3) 0.08459(17) 0.5310(3)
O2 O 0.4034(3) 0.00659(19) 0.3298(3)
C1 C 0.7471(7) 0.2946(4) 0.7585(8)
H1 H 0.8074 0.3298 0.8072
N1 N 0.6193(3) 0.1893(2) 0.7104(4)
C2 C 0.4456(3) 0.0263(2) 0.4592(4)
N2 N 0.6825(4) 0.3059(3) 0.6236(6)
C3 C 0.6058(4) 0.2401(3) 0.5981(6)
H2 H 0.5504 0.2323 0.5110
C4 C 0.6894(7) 0.3769(5) 0.5226(10)
H3 H 0.6876 0.3541 0.4248
H4 H 0.7643 0.4060 0.5543
C5 C 0.5901(5) 0.4411(3) 0.5139(9)
C6 C 0.7085(6) 0.2236(4) 0.8094(6)
H5 H 0.7390 0.2003 0.9016
C7 C 0.6073(10) 0.5142(6) 0.490(2)
H6 H 0.6815 0.5301 0.4754
C8 C 0.4788(12) 0.4229(7) 0.516(3)
H7 H 0.4571 0.3660 0.5214
O1D O 0.5900(3) -0.08459(17) 0.4690(3)
O2D O 0.5966(3) -0.00659(19) 0.6702(3)
C2D C 0.5544(3) -0.0263(2) 0.5408(4)
C1D C 0.2529(7) 0.7054(4) 0.2415(8)
H1D H 0.1926 0.6702 0.1928
N1D N 0.3807(3) 0.8107(2) 0.2896(4)
N2D N 0.3175(4) 0.6941(3) 0.3764(6)
C3D C 0.3942(4) 0.7599(3) 0.4019(6)
H2D H 0.4496 0.7677 0.4890
C4D C 0.3106(7) 0.6231(5) 0.4774(10)
H3D H 0.3124 0.6459 0.5752
H4D H 0.2357 0.5940 0.4457
C5D C 0.4099(5) 0.5589(3) 0.4861(9)
C6D C 0.2915(6) 0.7764(4) 0.1906(6)
H5D H 0.2610 0.7997 0.0984
C7D C 0.3927(10) 0.4858(6) 0.510(2)
H6D H 0.3185 0.4699 0.5246
C8D C 0.5212(12) 0.5771(7) 0.484(3)
H7D H 0.5429 0.6340 0.4786
Zn1D Zn 0.5000 -0.09402(4) 0.2500
Zn1D_2 Zn 0.5000 0.90598(4) 0.2500
O1A O 0.5900(3) 0.08459(17) 0.9690(3)
O2E O 0.4034(3) -0.00659(19) 0.8298(3)
N1A N 0.3807(3) 0.1893(2) 0.7896(4)
loop_
_geom_bond_atom_site_label_1
_geom_bond_atom_site_label_2
_geom_bond_site_symmetry_1
_geom_bond_site_symmetry_2
Zn1 O1 1_555 1_555
O1 C2 1_555 1_555
O2 C2 1_555 1_555
C1 H1 1_555 1_555
N1 Zn1 1_555 1_555
C2 C2D 1_555 1_555
N2 C1 1_555 1_555
C3 N1 1_555 1_555
H2 C3 1_555 1_555
C4 N2 1_555 1_555
H3 C4 1_555 1_555
H4 C4 1_555 1_555
C5 C4 1_555 1_555
C6 C1 1_555 1_555
H5 C6 1_555 1_555
C7 C5 1_555 1_555
H6 C7 1_555 1_555
C8 C5 1_555 1_555
H7 C8 1_555 1_555
O1D C2D 1_555 1_555
O2D Zn1 1_555 1_555
C2D O2D 1_555 1_555
C1D H1D 1_555 1_555
N1D C3D 1_555 1_555
N2D C1D 1_555 1_555
C3D N2D 1_555 1_555
H2D C3D 1_555 1_555
C4D N2D 1_555 1_555
H3D C4D 1_555 1_555
H4D C4D 1_555 1_555
C5D C4D 1_555 1_555
C6D C1D 1_555 1_555
H5D C6D 1_555 1_555
C7D C8 1_555 1_555
H6D C7D 1_555 1_555
C8D C7 1_555 1_555
H7D C8D 1_555 1_555
Zn1D O2 1_555 1_555
Zn1D_2 N1D 1_555 1_555
O1A Zn1 1_555 1_555
O2E Zn1 1_555 1_555
N1A Zn1 1_555 1_555
N1 C6 1_555 1_555
N2 C3 1_555 1_555
O1D Zn1D 1_555 1_555
N1D C6D 1_555 1_555
C5D C7D 1_555 1_555
C5D C8D 1_555 1_555

#END
