
#######################################################################
#
#                 Cambridge Crystallographic Data Centre
#                                CCDC 
#
#######################################################################
#
# If this CIF has been generated from an entry in the Cambridge 
# Structural Database, then it will include bibliographic, chemical, 
# crystal, experimental, refinement or atomic coordinate data resulting 
# from the CCDC's data processing and validation procedures.
#
#######################################################################

data_MOLLOP
_symmetry_cell_setting           monoclinic
_symmetry_space_group_name_H-M   'P 21/c'
_symmetry_Int_Tables_number      14
_space_group_name_Hall           '-P 2ybc'
loop_
_symmetry_equiv_pos_site_id
_symmetry_equiv_pos_as_xyz
1 x,y,z
2 -x,1/2+y,1/2-z
3 -x,-y,-z
4 x,1/2-y,1/2+z
_cell_length_a                   8.974(2)
_cell_length_b                   19.011(4)
_cell_length_c                   22.223(5)
_cell_angle_alpha                90
_cell_angle_beta                 101.507(4)
_cell_angle_gamma                90
_cell_volume                     3715.14
loop_
_atom_site_label
_atom_site_type_symbol
_atom_site_fract_x
_atom_site_fract_y
_atom_site_fract_z
Sn1 Sn 0.46816(12) 0.52660(5) 0.64643(4)
Sn2 Sn 0.36534(13) 0.29517(5) 0.81389(4)
N1 N 0.4308(14) 0.3997(5) 0.5735(5)
O1 O 0.4162(11) 0.4311(5) 0.6910(4)
O2 O 0.3567(14) 0.3225(5) 0.7076(4)
O3 O 0.3759(12) 0.2395(5) 0.4083(4)
O4 O 0.4570(12) 0.3465(5) 0.3935(4)
C1 C 0.3988(16) 0.3496(6) 0.6092(5)
C2 C 0.3640(19) 0.2821(8) 0.5885(7)
H1 H 0.3333 0.2488 0.6142
C3 C 0.375(2) 0.2638(7) 0.5290(6)
H2 H 0.3570 0.2180 0.5147
C4 C 0.4125(16) 0.3159(6) 0.4922(5)
C5 C 0.4367(15) 0.3829(6) 0.5162(5)
H3 H 0.4585 0.4184 0.4905
C6 C 0.3895(18) 0.3682(7) 0.6731(6)
C7 C 0.4174(18) 0.3006(7) 0.4255(6)
C8 C 0.6906(18) 0.5075(8) 0.6354(8)
H4 H 0.6885 0.5016 0.5919
H5 H 0.7507 0.5491 0.6487
C9 C 0.7725(17) 0.4443(8) 0.6689(8)
H6 H 0.7496 0.4420 0.7097
H7 H 0.7330 0.4018 0.6473
C10 C 0.9439(17) 0.4456(9) 0.6749(9)
H8 H 0.9856 0.4013 0.6923
H9 H 0.9673 0.4497 0.6342
C11 C 1.019(2) 0.5051(10) 0.7144(10)
H10 H 1.1271 0.5037 0.7160
H11 H 1.0001 0.5003 0.7551
H12 H 0.9793 0.5491 0.6972
C12 C 0.263(2) 0.5425(9) 0.5801(8)
H13 H 0.2871 0.5438 0.5396
H14 H 0.1961 0.5026 0.5814
C13 C 0.178(2) 0.6084(9) 0.5894(8)
H15 H 0.2426 0.6485 0.5855
H16 H 0.1596 0.6085 0.6309
C14 C 0.0248(19) 0.6179(11) 0.5440(9)
H17 H -0.0315 0.5740 0.5403
H18 H -0.0355 0.6534 0.5595
C15 C 0.053(3) 0.6400(13) 0.4815(8)
H19 H -0.0429 0.6447 0.4533
H20 H 0.1133 0.6050 0.4665
H21 H 0.1053 0.6842 0.4851
C16 C 0.471(2) 0.5803(9) 0.7311(6)
H22 H 0.4809 0.6304 0.7247
H23 H 0.3742 0.5727 0.7434
C17 C 0.599(2) 0.5566(8) 0.7829(6)
H24 H 0.5834 0.5074 0.7914
H25 H 0.6942 0.5605 0.7691
C18 C 0.610(2) 0.5979(9) 0.8417(6)
H26 H 0.5176 0.5912 0.8571
H27 H 0.6179 0.6475 0.8325
C19 C 0.745(2) 0.5779(11) 0.8923(8)
H28 H 0.7436 0.6056 0.9283
H29 H 0.8384 0.5865 0.8784
H30 H 0.7391 0.5289 0.9020
C20 C 0.1955(18) 0.2196(9) 0.7777(8)
H31 H 0.1588 0.1984 0.8116
H32 H 0.2429 0.1827 0.7579
C21 C 0.0608(19) 0.2471(9) 0.7323(9)
H33 H 0.0962 0.2642 0.6964
H34 H 0.0192 0.2870 0.7506
C22 C -0.065(2) 0.1949(9) 0.7115(9)
H35 H -0.0223 0.1535 0.6959
H36 H -0.1062 0.1806 0.7468
C23 C -0.193(2) 0.2222(12) 0.6626(10)
H37 H -0.2682 0.1860 0.6516
H38 H -0.2385 0.2623 0.6780
H39 H -0.1540 0.2355 0.6270
C24 C 0.602(2) 0.2909(12) 0.8196(9)
H40 H 0.6268 0.3160 0.7848
H41 H 0.6319 0.2422 0.8165
C25 C 0.695(2) 0.3221(13) 0.8785(9)
H42 H 0.6787 0.2934 0.9128
H43 H 0.6556 0.3687 0.8841
C26 C 0.861(2) 0.3276(14) 0.8807(9)
H44 H 0.8967 0.2836 0.8665
H45 H 0.8790 0.3644 0.8528
C27 C 0.953(3) 0.3436(15) 0.9447(11)
H46 H 1.0580 0.3488 0.9428
H47 H 0.9161 0.3864 0.9596
H48 H 0.9414 0.3056 0.9719
C28 C 0.278(2) 0.3957(9) 0.8296(7)
H49 H 0.1682 0.3914 0.8226
H50 H 0.3008 0.4269 0.7981
C29 C 0.328(2) 0.4323(9) 0.8900(8)
H51 H 0.3154 0.4008 0.9230
H52 H 0.4347 0.4442 0.8955
C30 C 0.234(3) 0.5002(9) 0.8937(8)
H53 H 0.1274 0.4884 0.8891
H54 H 0.2452 0.5316 0.8604
C31 C 0.289(3) 0.5368(11) 0.9547(9)
H55 H 0.2311 0.5792 0.9560
H56 H 0.2749 0.5062 0.9875
H57 H 0.3945 0.5483 0.9592
Sn1B Sn 0.53184(12) 0.47340(5) 0.35357(4)
Sn2C Sn 0.36534(13) 0.20483(5) 0.31389(4)
O3C O 0.3759(12) 0.2605(5) 0.9083(4)
O4B O 0.5430(12) 0.6535(5) 0.6065(4)
loop_
_geom_bond_atom_site_label_1
_geom_bond_atom_site_label_2
_geom_bond_site_symmetry_1
_geom_bond_site_symmetry_2
Sn1 O1 1_555 1_555
Sn2 O2 1_555 1_555
N1 C1 1_555 1_555
O1 C6 1_555 1_555
O2 C6 1_555 1_555
O3 C7 1_555 1_555
O4 C7 1_555 1_555
C1 C2 1_555 1_555
C2 H1 1_555 1_555
C3 C2 1_555 1_555
H2 C3 1_555 1_555
C4 C3 1_555 1_555
C5 N1 1_555 1_555
H3 C5 1_555 1_555
C6 C1 1_555 1_555
C7 C4 1_555 1_555
C8 Sn1 1_555 1_555
H4 C8 1_555 1_555
H5 C8 1_555 1_555
C9 C8 1_555 1_555
H6 C9 1_555 1_555
H7 C9 1_555 1_555
C10 C9 1_555 1_555
H8 C10 1_555 1_555
H9 C10 1_555 1_555
C11 C10 1_555 1_555
H10 C11 1_555 1_555
H11 C11 1_555 1_555
H12 C11 1_555 1_555
C12 Sn1 1_555 1_555
H13 C12 1_555 1_555
H14 C12 1_555 1_555
C13 C12 1_555 1_555
H15 C13 1_555 1_555
H16 C13 1_555 1_555
C14 C13 1_555 1_555
H17 C14 1_555 1_555
H18 C14 1_555 1_555
C15 C14 1_555 1_555
H19 C15 1_555 1_555
H20 C15 1_555 1_555
H21 C15 1_555 1_555
C16 Sn1 1_555 1_555
H22 C16 1_555 1_555
H23 C16 1_555 1_555
C17 C16 1_555 1_555
H24 C17 1_555 1_555
H25 C17 1_555 1_555
C18 C17 1_555 1_555
H26 C18 1_555 1_555
H27 C18 1_555 1_555
C19 C18 1_555 1_555
H28 C19 1_555 1_555
H29 C19 1_555 1_555
H30 C19 1_555 1_555
C20 Sn2 1_555 1_555
H31 C20 1_555 1_555
H32 C20 1_555 1_555
C21 C20 1_555 1_555
H33 C21 1_555 1_555
H34 C21 1_555 1_555
C22 C21 1_555 1_555
H35 C22 1_555 1_555
H36 C22 1_555 1_555
C23 C22 1_555 1_555
H37 C23 1_555 1_555
H38 C23 1_555 1_555
H39 C23 1_555 1_555
C24 Sn2 1_555 1_555
H40 C24 1_555 1_555
H41 C24 1_555 1_555
C25 C24 1_555 1_555
H42 C25 1_555 1_555
H43 C25 1_555 1_555
C26 C25 1_555 1_555
H44 C26 1_555 1_555
H45 C26 1_555 1_555
C27 C26 1_555 1_555
H46 C27 1_555 1_555
H47 C27 1_555 1_555
H48 C27 1_555 1_555
C28 Sn2 1_555 1_555
H49 C28 1_555 1_555
H50 C28 1_555 1_555
C29 C28 1_555 1_555
H51 C29 1_555 1_555
H52 C29 1_555 1_555
C30 C29 1_555 1_555
H53 C30 1_555 1_555
H54 C30 1_555 1_555
C31 C30 1_555 1_555
H55 C31 1_555 1_555
H56 C31 1_555 1_555
H57 C31 1_555 1_555
Sn1B O4 1_555 1_555
Sn2C O3 1_555 1_555
O3C Sn2 1_555 1_555
O4B Sn1 1_555 1_555
C4 C5 1_555 1_555

#END
