
#######################################################################
#
#                 Cambridge Crystallographic Data Centre
#                                CCDC 
#
#######################################################################
#
# If this CIF has been generated from an entry in the Cambridge 
# Structural Database, then it will include bibliographic, chemical, 
# crystal, experimental, refinement or atomic coordinate data resulting 
# from the CCDC's data processing and validation procedures.
#
#######################################################################

data_MOLQEL
_symmetry_cell_setting           monoclinic
_symmetry_space_group_name_H-M   'P 21/n'
_symmetry_Int_Tables_number      14
_space_group_name_Hall           '-P 2yn'
loop_
_symmetry_equiv_pos_site_id
_symmetry_equiv_pos_as_xyz
1 x,y,z
2 1/2-x,1/2+y,1/2-z
3 -x,-y,-z
4 1/2+x,1/2-y,1/2+z
_cell_length_a                   14.290(3)
_cell_length_b                   12.973(3)
_cell_length_c                   17.818(4)
_cell_angle_alpha                90
_cell_angle_beta                 95.33(3)
_cell_angle_gamma                90
_cell_volume                     3288.89
loop_
_atom_site_label
_atom_site_type_symbol
_atom_site_fract_x
_atom_site_fract_y
_atom_site_fract_z
Zn1 Zn 1.00990(4) 0.94595(4) 0.22538(3)
Zn2 Zn 1.07056(4) 0.77955(4) 0.36340(3)
C1 C 0.8018(4) 0.7956(4) 0.3191(3)
C2 C 0.7344(4) 0.7303(4) 0.2843(3)
H1 H 0.7349 0.7145 0.2334
C3 C 0.6665(4) 0.6889(4) 0.3256(3)
C4 C 0.6618(4) 0.7174(4) 0.4002(3)
H2 H 0.6144 0.6907 0.4269
C5 C 0.7277(4) 0.7859(4) 0.4361(3)
C6 C 0.7991(4) 0.8230(4) 0.3940(3)
H3 H 0.8451 0.8665 0.4167
C7 C 0.7241(4) 0.8163(4) 0.5158(3)
C8 C 0.7749(4) 0.9020(4) 0.5461(3)
H4 H 0.8074 0.9436 0.5148
C9 C 0.7769(4) 0.9248(4) 0.6219(3)
C10 C 0.7253(3) 0.8671(4) 0.6690(3)
H5 H 0.7274 0.8823 0.7201
C11 C 0.6706(4) 0.7866(4) 0.6389(3)
C12 C 0.6721(4) 0.7606(4) 0.5640(3)
H6 H 0.6373 0.7042 0.5451
C13 C 0.8753(4) 0.8396(4) 0.2738(3)
C14 C 0.5979(4) 0.6112(4) 0.2895(3)
C15 C 0.8420(3) 1.0091(4) 0.6557(3)
C16 C 0.6148(4) 0.7232(4) 0.6897(3)
C17 C 1.2454(7) 0.7145(9) 0.4491(6)
H7 H 1.2354 0.7740 0.4763
C18 C 1.3581(10) 0.5861(15) 0.4218(10)
H8 H 1.3493 0.5197 0.4440
H9 H 1.4236 0.5960 0.4157
H10 H 1.3225 0.5896 0.3735
C19 C 1.3915(11) 0.707(2) 0.5333(9)
H11 H 1.3665 0.7711 0.5500
H12 H 1.4524 0.7192 0.5163
H13 H 1.3969 0.6589 0.5743
C20 C 0.9440(6) 0.5953(7) 0.3827(6)
H14 H 0.9491 0.6093 0.4341
C21 C 0.8721(8) 0.4914(10) 0.2816(8)
H15 H 0.9110 0.5339 0.2532
H16 H 0.8073 0.5024 0.2642
H17 H 0.8879 0.4203 0.2750
C22 C 0.8368(11) 0.4634(10) 0.4149(9)
H18 H 0.8580 0.4871 0.4646
H19 H 0.8484 0.3908 0.4114
H20 H 0.7706 0.4764 0.4050
N1 N 1.3269(5) 0.6645(10) 0.4697(5)
N2 N 0.8872(5) 0.5178(5) 0.3599(6)
O1 O 0.8602(3) 0.8510(4) 0.2057(2)
O2 O 0.9538(2) 0.8697(3) 0.3101(2)
O3 O 0.5942(3) 0.5967(4) 0.2212(2)
O4 O 0.5491(3) 0.5610(3) 0.3327(2)
O5 O 0.8737(3) 0.9949(3) 0.7226(2)
O6 O 0.8605(3) 1.0831(3) 0.6140(2)
O7 O 0.6185(3) 0.7462(3) 0.7575(2)
O8 O 0.5686(2) 0.6490(3) 0.6584(2)
O9 O 1.0285(3) 0.8001(3) 0.4724(2)
H21 H 1.0072 0.7569 0.5031
H22 H 1.0362 0.8601 0.4924
O10 O 1.1886(3) 0.6947(4) 0.4043(3)
O11 O 0.9891(3) 0.6490(3) 0.3455(3)
Zn1A Zn 0.49010(4) 0.44595(4) 0.27462(3)
Zn1B Zn 0.99010(4) 1.05405(4) 0.77462(3)
Zn1C Zn 0.50990(4) 0.55405(4) 0.72538(3)
Zn2B Zn 0.92944(4) 1.22045(4) 0.63660(3)
Zn2C Zn 0.57056(4) 0.72045(4) 0.86340(3)
O4A O 0.9509(3) 1.0610(3) 0.1673(2)
O5B O 1.1263(3) 1.0051(3) 0.2774(2)
O6B O 1.1395(3) 0.9169(3) 0.3860(2)
O7C O 1.1185(3) 0.7538(3) 0.2575(2)
O8C O 1.0686(2) 0.8510(3) 0.1584(2)
C23 C 0.0671(6) 0.2928(7) 0.3699(5)
H23 H 0.0415 0.2280 0.3590
C24 C 0.1085(8) 0.2927(9) 0.2410(6)
H24 H 0.0830 0.2243 0.2415
H25 H 0.1724 0.2897 0.2288
H26 H 0.0720 0.3334 0.2040
C25 C 0.1515(7) 0.4376(7) 0.3285(7)
H27 H 0.1159 0.4903 0.3009
H28 H 0.2133 0.4341 0.3117
H29 H 0.1562 0.4537 0.3813
N3 N 0.1052(5) 0.3400(5) 0.3160(4)
O12 O 0.0616(4) 0.3263(5) 0.4346(3)
O13 O 0.0561(6) 0.9545(5) 0.5711(4)
H30 H 0.0294 1.0145 0.5851
H31 H 0.1030 0.9859 0.5556
loop_
_geom_bond_atom_site_label_1
_geom_bond_atom_site_label_2
_geom_bond_site_symmetry_1
_geom_bond_site_symmetry_2
Zn1 O1 1_555 1_555
Zn2 O2 1_555 1_555
C1 C2 1_555 1_555
C2 H1 1_555 1_555
C3 C2 1_555 1_555
C4 C3 1_555 1_555
H2 C4 1_555 1_555
C5 C4 1_555 1_555
C6 C1 1_555 1_555
H3 C6 1_555 1_555
C7 C5 1_555 1_555
C8 C7 1_555 1_555
H4 C8 1_555 1_555
C9 C8 1_555 1_555
C10 C9 1_555 1_555
H5 C10 1_555 1_555
C11 C10 1_555 1_555
C12 C7 1_555 1_555
H6 C12 1_555 1_555
C13 C1 1_555 1_555
C14 C3 1_555 1_555
C15 C9 1_555 1_555
C16 C11 1_555 1_555
C17 H7 1_555 1_555
C18 H8 1_555 1_555
H9 C18 1_555 1_555
H10 C18 1_555 1_555
C19 H11 1_555 1_555
H12 C19 1_555 1_555
H13 C19 1_555 1_555
C20 H14 1_555 1_555
C21 H15 1_555 1_555
H16 C21 1_555 1_555
H17 C21 1_555 1_555
C22 H18 1_555 1_555
H19 C22 1_555 1_555
H20 C22 1_555 1_555
N1 C17 1_555 1_555
N2 C20 1_555 1_555
O1 C13 1_555 1_555
O2 Zn1 1_555 1_555
O3 C14 1_555 1_555
O4 C14 1_555 1_555
O5 C15 1_555 1_555
O6 C15 1_555 1_555
O7 C16 1_555 1_555
O8 C16 1_555 1_555
O9 Zn2 1_555 1_555
H21 O9 1_555 1_555
H22 O9 1_555 1_555
O10 Zn2 1_555 1_555
O11 Zn2 1_555 1_555
C23 H23 1_555 1_555
C24 H24 1_555 1_555
H25 C24 1_555 1_555
H26 C24 1_555 1_555
C25 H27 1_555 1_555
H28 C25 1_555 1_555
H29 C25 1_555 1_555
N3 C23 1_555 1_555
O12 C23 1_555 1_555
O13 H30 1_555 1_555
H31 O13 1_555 1_555
Zn1A O4 1_555 1_555
Zn1B O5 1_555 1_555
Zn1C O8 1_555 1_555
Zn2B O6 1_555 1_555
Zn2C O7 1_555 1_555
O4A Zn1 1_555 1_555
O5B Zn1 1_555 1_555
O6B Zn2 1_555 1_555
O7C Zn2 1_555 1_555
O8C Zn1 1_555 1_555
C5 C6 1_555 1_555
C11 C12 1_555 1_555
C13 O2 1_555 1_555
C17 O10 1_555 1_555
C18 N1 1_555 1_555
C19 N1 1_555 1_555
C20 O11 1_555 1_555
C21 N2 1_555 1_555
C22 N2 1_555 1_555
C24 N3 1_555 1_555
C25 N3 1_555 1_555

#END
