
#######################################################################
#
#                 Cambridge Crystallographic Data Centre
#                                CCDC 
#
#######################################################################
#
# If this CIF has been generated from an entry in the Cambridge 
# Structural Database, then it will include bibliographic, chemical, 
# crystal, experimental, refinement or atomic coordinate data resulting 
# from the CCDC's data processing and validation procedures.
#
#######################################################################

data_MOLROW
_symmetry_cell_setting           triclinic
_symmetry_space_group_name_H-M   'P -1'
_symmetry_Int_Tables_number      2
_space_group_name_Hall           '-P 1'
loop_
_symmetry_equiv_pos_site_id
_symmetry_equiv_pos_as_xyz
1 x,y,z
2 -x,-y,-z
_cell_length_a                   6.914(10)
_cell_length_b                   9.309(13)
_cell_length_c                   13.686(19)
_cell_angle_alpha                101.141(18)
_cell_angle_beta                 100.339(18)
_cell_angle_gamma                94.268(18)
_cell_volume                     844.782
loop_
_atom_site_label
_atom_site_type_symbol
_atom_site_fract_x
_atom_site_fract_y
_atom_site_fract_z
C1 C 0.5425(9) 0.5009(6) 0.8517(4)
C2 C 0.3424(10) 0.5254(6) 0.8318(5)
C3 C 0.2815(10) 0.6474(7) 0.8901(5)
H1 H 0.1502 0.6664 0.8767
C4 C 0.4161(10) 0.7403(6) 0.9677(5)
C5 C 0.6120(11) 0.7153(7) 0.9917(5)
H2 H 0.6998 0.7769 1.0455
C6 C 0.6735(10) 0.5946(7) 0.9324(5)
H3 H 0.8047 0.5760 0.9470
C7 C 0.6218(11) 0.3847(7) 0.7800(6)
C8 C 0.1785(10) 0.4173(8) 0.7590(5)
C9 C -0.1734(11) -0.0769(9) 0.7478(5)
H4 H -0.1323 -0.0296 0.8156
C10 C -0.2239(11) -0.2296(9) 0.7235(7)
H5 H -0.2169 -0.2832 0.7745
C11 C -0.2842(11) -0.2995(9) 0.6228(7)
H6 H -0.3184 -0.4010 0.6049
C12 C -0.2930(10) -0.2167(7) 0.5491(6)
H7 H -0.3333 -0.2619 0.4809
C13 C -0.2415(9) -0.0659(7) 0.5774(5)
C14 C -0.2411(8) 0.0317(7) 0.5031(5)
C15 C -0.2933(10) -0.0180(8) 0.3982(5)
H8 H -0.3339 -0.1174 0.3710
C16 C -0.2852(10) 0.0788(9) 0.3346(5)
H9 H -0.3159 0.0451 0.2645
C17 C -0.2300(11) 0.2291(9) 0.3766(6)
H10 H -0.2267 0.2975 0.3353
C18 C -0.1807(10) 0.2725(8) 0.4811(5)
H11 H -0.1409 0.3717 0.5098
N1 N 0.3471(11) 0.8689(7) 1.0288(5)
N2 N -0.1828(8) 0.0026(6) 0.6762(4)
N3 N -0.1880(7) 0.1779(5) 0.5428(4)
O1 O 0.7648(8) 0.3212(5) 0.8193(4)
O2 O 0.5570(8) 0.3651(6) 0.6878(4)
O3 O 0.1697(7) 0.2840(5) 0.7648(4)
O4 O 0.0480(8) 0.4681(6) 0.7023(4)
O5 O 0.4651(9) 0.9491(6) 1.0987(4)
O6 O 0.1709(10) 0.8875(7) 1.0045(5)
Zn1 Zn -0.12277(12) 0.23106(8) 0.69978(6)
O1_2 O -0.2352(8) 0.3212(5) 0.8193(4)
Zn1_2 Zn 0.87723(12) 0.23106(8) 0.69978(6)
loop_
_geom_bond_atom_site_label_1
_geom_bond_atom_site_label_2
_geom_bond_site_symmetry_1
_geom_bond_site_symmetry_2
C1 C2 1_555 1_555
C2 C3 1_555 1_555
C3 H1 1_555 1_555
C4 C3 1_555 1_555
C5 C4 1_555 1_555
H2 C5 1_555 1_555
C6 C1 1_555 1_555
H3 C6 1_555 1_555
C7 C1 1_555 1_555
C8 C2 1_555 1_555
C9 H4 1_555 1_555
C10 C9 1_555 1_555
H5 C10 1_555 1_555
C11 C10 1_555 1_555
H6 C11 1_555 1_555
C12 C11 1_555 1_555
H7 C12 1_555 1_555
C13 C12 1_555 1_555
C14 C13 1_555 1_555
C15 C14 1_555 1_555
H8 C15 1_555 1_555
C16 C15 1_555 1_555
H9 C16 1_555 1_555
C17 C16 1_555 1_555
H10 C17 1_555 1_555
C18 C17 1_555 1_555
H11 C18 1_555 1_555
N1 C4 1_555 1_555
N2 C9 1_555 1_555
N3 C14 1_555 1_555
O1 C7 1_555 1_555
O2 C7 1_555 1_555
O3 C8 1_555 1_555
O4 C8 1_555 1_555
O5 N1 1_555 1_555
O6 N1 1_555 1_555
Zn1 N2 1_555 1_555
O1_2 Zn1 1_555 1_555
Zn1_2 O1 1_555 1_555
C5 C6 1_555 1_555
C13 N2 1_555 1_555
C18 N3 1_555 1_555
N3 Zn1 1_555 1_555
O3 Zn1 1_555 1_555
O4 Zn1 1_555 1_555

#END
