
#######################################################################
#
#                 Cambridge Crystallographic Data Centre
#                                CCDC 
#
#######################################################################
#
# If this CIF has been generated from an entry in the Cambridge 
# Structural Database, then it will include bibliographic, chemical, 
# crystal, experimental, refinement or atomic coordinate data resulting 
# from the CCDC's data processing and validation procedures.
#
#######################################################################

data_MOLSAJ
_symmetry_cell_setting           monoclinic
_symmetry_space_group_name_H-M   'P 21/c'
_symmetry_Int_Tables_number      14
_space_group_name_Hall           '-P 2ybc'
loop_
_symmetry_equiv_pos_site_id
_symmetry_equiv_pos_as_xyz
1 x,y,z
2 -x,1/2+y,1/2-z
3 -x,-y,-z
4 x,1/2-y,1/2+z
_cell_length_a                   14.550(19)
_cell_length_b                   10.370(14)
_cell_length_c                   15.95(2)
_cell_angle_alpha                90
_cell_angle_beta                 103.613(16)
_cell_angle_gamma                90
_cell_volume                     2338.98
loop_
_atom_site_label
_atom_site_type_symbol
_atom_site_fract_x
_atom_site_fract_y
_atom_site_fract_z
C1 C 0.3039(3) 0.2775(4) 0.2261(3)
C2 C 0.2540(3) 0.3920(4) 0.2252(2)
C3 C 0.1560(3) 0.3887(4) 0.2140(3)
H1 H 0.1219 0.4647 0.2132
C4 C 0.1104(3) 0.2716(5) 0.2042(3)
C5 C 0.1585(4) 0.1575(5) 0.2062(3)
H2 H 0.1263 0.0793 0.2000
C6 C 0.2542(3) 0.1609(4) 0.2173(3)
H3 H 0.2873 0.0839 0.2190
C7 C 0.4094(4) 0.2692(4) 0.2358(4)
C8 C 0.3009(3) 0.5224(4) 0.2332(3)
C9 C 0.3108(4) 0.8828(5) 0.3897(4)
H4 H 0.2614 0.8241 0.3840
C10 C 0.4306(4) 0.9856(6) 0.3678(4)
H5 H 0.4807 1.0099 0.3442
C11 C 0.4022(5) 1.0483(7) 0.4299(4)
H6 H 0.4288 1.1230 0.4575
C12 C 0.2695(6) 1.0153(8) 0.5076(4)
H7 H 0.3116 1.0390 0.5621
H8 H 0.2338 0.9402 0.5175
C13 C 0.2020(5) 1.1252(6) 0.4766(3)
C14 C 0.1065(6) 1.1025(7) 0.4507(5)
H9 H 0.0826 1.0201 0.4545
C15 C 0.0462(5) 1.2032(9) 0.4188(5)
H10 H -0.0184 1.1880 0.4002
C16 C 0.0813(5) 1.3265(7) 0.4145(4)
H11 H 0.0405 1.3943 0.3936
C17 C 0.1750(4) 1.3477(6) 0.4407(3)
C18 C 0.2343(4) 1.2462(6) 0.4724(3)
H12 H 0.2988 1.2618 0.4917
C19 C 0.2160(4) 1.4818(6) 0.4317(3)
H13 H 0.2766 1.4724 0.4170
H14 H 0.1740 1.5274 0.3848
C20 C 0.3102(4) 1.5934(5) 0.5625(4)
H15 H 0.3690 1.5707 0.5537
C21 C 0.2014(3) 1.6719(5) 0.6148(4)
H16 H 0.1703 1.7159 0.6509
C22 C 0.1584(4) 1.6083(6) 0.5440(4)
H17 H 0.0936 1.5998 0.5219
Cd1 Cd 0.39838(2) 0.74636(3) 0.24266(2)
N1 N 0.0066(4) 0.2685(6) 0.1907(4)
N2 N 0.3747(3) 0.8800(4) 0.3442(3)
N3 N 0.3259(4) 0.9820(5) 0.4459(3)
N4 N 0.2284(3) 1.5583(4) 0.5105(3)
N5 N 0.2983(3) 1.6636(4) 0.6275(3)
O1 O 0.4392(3) 0.2260(4) 0.1749(3)
O2 O 0.4634(2) 0.3011(4) 0.3063(3)
O3 O 0.3777(2) 0.5332(3) 0.2106(2)
O4 O 0.2617(2) 0.6139(3) 0.2599(2)
O5 O -0.0331(3) 0.1655(6) 0.1752(4)
O6 O -0.0342(3) 0.3682(6) 0.1988(4)
Cd1A Cd 0.60162(2) 0.24636(3) 0.25734(2)
Cd1C Cd 0.39838(2) 1.75364(3) 0.74266(2)
N5C N 0.2983(3) 0.8364(4) 0.1275(3)
O1A O 0.5608(3) 0.7260(4) 0.3251(3)
O2A O 0.5366(2) 0.8011(4) 0.1937(3)
O7 O 0.5510(6) 0.5077(15) 0.5778(6)
H18 H 0.5246 0.5811 0.5761
H19 H 0.5314 0.4590 0.6128
loop_
_geom_bond_atom_site_label_1
_geom_bond_atom_site_label_2
_geom_bond_site_symmetry_1
_geom_bond_site_symmetry_2
C1 C2 1_555 1_555
C2 C3 1_555 1_555
C3 H1 1_555 1_555
C4 C3 1_555 1_555
C5 C4 1_555 1_555
H2 C5 1_555 1_555
C6 C1 1_555 1_555
H3 C6 1_555 1_555
C7 C1 1_555 1_555
C8 C2 1_555 1_555
C9 H4 1_555 1_555
C10 H5 1_555 1_555
C11 C10 1_555 1_555
H6 C11 1_555 1_555
C12 H7 1_555 1_555
H8 C12 1_555 1_555
C13 C12 1_555 1_555
C14 C13 1_555 1_555
H9 C14 1_555 1_555
C15 C14 1_555 1_555
H10 C15 1_555 1_555
C16 C15 1_555 1_555
H11 C16 1_555 1_555
C17 C16 1_555 1_555
C18 C13 1_555 1_555
H12 C18 1_555 1_555
C19 C17 1_555 1_555
H13 C19 1_555 1_555
H14 C19 1_555 1_555
C20 H15 1_555 1_555
C21 H16 1_555 1_555
C22 C21 1_555 1_555
H17 C22 1_555 1_555
Cd1 N2 1_555 1_555
N1 C4 1_555 1_555
N2 C9 1_555 1_555
N3 C9 1_555 1_555
N4 C19 1_555 1_555
N5 C20 1_555 1_555
O1 C7 1_555 1_555
O2 C7 1_555 1_555
O3 C8 1_555 1_555
O4 C8 1_555 1_555
O5 N1 1_555 1_555
O6 N1 1_555 1_555
O7 H18 1_555 1_555
H19 O7 1_555 1_555
Cd1A O1 1_555 1_555
Cd1C N5 1_555 1_555
N5C Cd1 1_555 1_555
O1A Cd1 1_555 1_555
O2A Cd1 1_555 1_555
C5 C6 1_555 1_555
C10 N2 1_555 1_555
C11 N3 1_555 1_555
C12 N3 1_555 1_555
C17 C18 1_555 1_555
C20 N4 1_555 1_555
C21 N5 1_555 1_555
C22 N4 1_555 1_555
Cd1 O3 1_555 1_555
Cd1 O4 1_555 1_555
O2 Cd1A 1_555 1_555

#END
