
#######################################################################
#
#                 Cambridge Crystallographic Data Centre
#                                CCDC 
#
#######################################################################
#
# If this CIF has been generated from an entry in the Cambridge 
# Structural Database, then it will include bibliographic, chemical, 
# crystal, experimental, refinement or atomic coordinate data resulting 
# from the CCDC's data processing and validation procedures.
#
#######################################################################

data_MOLTAJ
_symmetry_cell_setting           triclinic
_symmetry_space_group_name_H-M   'P -1'
_symmetry_Int_Tables_number      2
_space_group_name_Hall           '-P 1'
loop_
_symmetry_equiv_pos_site_id
_symmetry_equiv_pos_as_xyz
1 x,y,z
2 -x,-y,-z
_cell_length_a                   11.65037(7)
_cell_length_b                   6.80213(3)
_cell_length_c                   6.36027(3)
_cell_angle_alpha                73.5213(4)
_cell_angle_beta                 99.6862(7)
_cell_angle_gamma                96.1653(7)
_cell_volume                     475.491
loop_
_atom_site_label
_atom_site_type_symbol
_atom_site_fract_x
_atom_site_fract_y
_atom_site_fract_z
Ni1 Ni 1.9524(3) -0.2005(5) 0.6528(5)
Ni2 Ni 1.00000 0.00000 0.00000
Ni3 Ni 1.9166(2) -0.4022(4) 0.2888(4)
O1 O 1.7475(7) -0.3228(19) 0.2725(18)
O2 O 1.7808(7) -0.1553(17) 0.5333(17)
O3 O 1.1523(7) -0.1441(15) 0.0256(16)
O4 O 1.1193(7) -0.2985(13) -0.2394(16)
O5 O 1.0051(10) -0.1189(10) 0.3441(9)
O6 O 1.1072(9) 0.2514(12) 0.0452(11)
O7 O 1.9133(7) -0.5059(11) 0.6232(12)
C1 C 1.7126(7) -0.232(3) 0.397(2)
C2 C 1.5799(7) -0.184(2) 0.358(3)
C3 C 1.5077(8) -0.308(2) 0.206(3)
C4 C 1.3864(8) -0.218(2) 0.152(2)
C5 C 1.3130(8) -0.329(2) -0.012(2)
C6 C 1.1853(9) -0.254(3) -0.080(2)
Ni1A Ni 0.0476(3) 0.2005(5) -0.6528(5)
Ni1_2 Ni 0.9524(3) -0.2005(5) -0.3472(5)
Ni1A_2 Ni 1.0476(3) 0.2005(5) 0.3472(5)
Ni1_3 Ni 0.9524(3) -0.2005(5) 0.6528(5)
Ni1A_3 Ni 1.0476(3) 0.2005(5) -0.6528(5)
Ni1A_4 Ni 2.0476(3) -0.7995(5) 0.3472(5)
Ni3A Ni 0.0834(2) 0.4022(4) -0.2888(4)
Ni3A_2 Ni 1.0834(2) -0.5978(4) -0.2888(4)
Ni3_2 Ni 0.9166(2) -0.4022(4) 0.2888(4)
Ni3A_3 Ni 1.0834(2) 0.4022(4) -0.2888(4)
Ni3A_4 Ni 2.0834(2) -0.5978(4) 0.7112(4)
Ni3_3 Ni 0.9166(2) 0.5978(4) 0.2888(4)
O1A O 0.2525(7) 0.3228(19) -0.2725(18)
O2A O 0.2192(7) 0.1553(17) -0.5333(17)
O3A O 0.8477(7) 0.1441(15) -0.0256(16)
O4A O 0.8807(7) 0.2985(13) 0.2394(16)
O4_2 O 2.1193(7) -0.2985(13) 0.7606(16)
O4A_2 O 1.8807(7) -0.7015(13) 0.2394(16)
O4A_3 O -0.1193(7) 0.2985(13) -0.7606(16)
O4_3 O 0.1193(7) 0.7015(13) -0.2394(16)
O5A O 0.9949(10) 0.1189(10) -0.3441(9)
O5A_2 O 1.9949(10) 0.1189(10) 0.6559(9)
O5_2 O 2.0051(10) -0.1189(10) 0.3441(9)
O5_3 O 0.0051(10) -0.1189(10) -0.6559(9)
O5A_3 O -0.0051(10) 0.1189(10) -0.3441(9)
O6A O 0.8928(9) -0.2514(12) -0.0452(11)
O6A_2 O 1.8928(9) -0.2514(12) 0.9548(11)
O6A_3 O 1.8928(9) -0.2514(12) -0.0452(11)
O6_2 O 0.1072(9) 0.2514(12) -0.9548(11)
O6_3 O 0.1072(9) 0.2514(12) 0.0452(11)
O7A O 2.0867(7) -0.4941(11) 0.3768(12)
O7A_2 O 0.0867(7) 0.5059(11) -0.6232(12)
O7_2 O -0.0867(7) 0.4941(11) -0.3768(12)
C1A C 0.2874(7) 0.232(3) -0.397(2)
C2A C 0.4201(7) 0.184(2) -0.358(3)
C3A C 0.4923(8) 0.308(2) -0.206(3)
C4A C 0.6136(8) 0.218(2) -0.152(2)
C5A C 0.6870(8) 0.329(2) 0.012(2)
C6A C 0.8147(9) 0.254(3) 0.080(2)
loop_
_geom_bond_atom_site_label_1
_geom_bond_atom_site_label_2
_geom_bond_site_symmetry_1
_geom_bond_site_symmetry_2
Ni1 O2 1_555 1_555
Ni2 O3 1_555 1_555
Ni3 O1 1_555 1_555
O1 C1 1_555 1_555
O2 C1 1_555 1_555
O3 C6 1_555 1_555
O4 C6 1_555 1_555
O5 Ni2 1_555 1_555
O6 Ni2 1_555 1_555
O7 Ni1 1_555 1_555
C1 C2 1_555 1_555
C2 C3 1_555 1_555
C3 C4 1_555 1_555
C4 C5 1_555 1_555
C5 C6 1_555 1_555
Ni1A O2A 1_555 1_555
Ni1_2 O4 1_555 1_555
Ni1A_2 O5 1_555 1_555
Ni1_3 O5 1_555 1_555
Ni1A_3 O5A 1_555 1_555
Ni1A_4 O4A_2 1_555 1_555
Ni3A O1A 1_555 1_555
Ni3A_2 O4 1_555 1_555
Ni3_2 O5 1_555 1_555
Ni3A_3 O6 1_555 1_555
Ni3A_4 O7 1_555 1_555
Ni3_3 O4A 1_555 1_555
O1A C1A 1_555 1_555
O2A C1A 1_555 1_555
O3A Ni2 1_555 1_555
O4A Ni1A_2 1_555 1_555
O4_2 Ni1 1_555 1_555
O4A_2 Ni3 1_555 1_555
O4A_3 Ni1A 1_555 1_555
O4_3 Ni3A 1_555 1_555
O5A Ni2 1_555 1_555
O5A_2 Ni1 1_555 1_555
O5_2 Ni1 1_555 1_555
O5_3 Ni1A 1_555 1_555
O5A_3 Ni1A 1_555 1_555
O6A Ni2 1_555 1_555
O6A_2 Ni1 1_555 1_555
O6A_3 Ni3 1_555 1_555
O6_2 Ni1A 1_555 1_555
O6_3 Ni3A 1_555 1_555
O7A Ni3 1_555 1_555
O7A_2 Ni1A 1_555 1_555
O7_2 Ni3A 1_555 1_555
C1A C2A 1_555 1_555
C2A C3A 1_555 1_555
C3A C4A 1_555 1_555
C4A C5A 1_555 1_555
C5A C6A 1_555 1_555
C6A O3A 1_555 1_555
Ni3 O7 1_555 1_555
Ni3 O5_2 1_555 1_555
O6 Ni1A_2 1_555 1_555
Ni1_2 O5A 1_555 1_555
Ni1_2 O6A 1_555 1_555
Ni1A_4 O7A 1_555 1_555
Ni3A O5A_3 1_555 1_555
Ni3A O7A_2 1_555 1_555
Ni3_2 O6A 1_555 1_555
Ni3A_3 O5A 1_555 1_555
Ni3A_4 O4_2 1_555 1_555
Ni3A_4 O7A 1_555 1_555
O4A C6A 1_555 1_555

#END
