
#######################################################################
#
#                 Cambridge Crystallographic Data Centre
#                                CCDC 
#
#######################################################################
#
# If this CIF has been generated from an entry in the Cambridge 
# Structural Database, then it will include bibliographic, chemical, 
# crystal, experimental, refinement or atomic coordinate data resulting 
# from the CCDC's data processing and validation procedures.
#
#######################################################################

data_MOLTEN
_symmetry_cell_setting           triclinic
_symmetry_space_group_name_H-M   'P -1'
_symmetry_Int_Tables_number      2
_space_group_name_Hall           '-P 1'
loop_
_symmetry_equiv_pos_site_id
_symmetry_equiv_pos_as_xyz
1 x,y,z
2 -x,-y,-z
_cell_length_a                   13.93252(4)
_cell_length_b                   6.78926(6)
_cell_length_c                   6.35344(4)
_cell_angle_alpha                73.6299(6)
_cell_angle_beta                 95.1402(9)
_cell_angle_gamma                91.8046(11)
_cell_volume                     574.287
loop_
_atom_site_label
_atom_site_type_symbol
_atom_site_fract_x
_atom_site_fract_y
_atom_site_fract_z
Ni1 Ni 0.00000 1.00000 0.00000
Ni2 Ni -0.0383(3) 0.7936(5) -0.3394(5)
Ni3 Ni 0.0706(2) 0.3908(4) -0.2996(4)
C1 C 0.1526(7) 0.733(2) -0.091(2)
C2 C 0.2594(7) 0.645(2) -0.048(2)
C3 C 0.3188(6) 0.731(3) 0.121(3)
C4 C 0.4237(6) 0.671(3) 0.128(3)
C5 C 0.4852(6) 0.787(2) 0.269(3)
C6 C 0.5917(6) 0.720(2) 0.295(3)
C7 C 0.6503(6) 0.859(2) 0.419(3)
C8 C 0.7611(6) 0.805(3) 0.444(2)
O1 O 0.1270(6) 0.8552(14) 0.0138(16)
O2 O 0.0993(6) 0.6840(13) -0.2538(16)
O3 O 0.8213(6) 0.8881(16) 0.5633(17)
O4 O 0.7911(6) 0.7190(17) 0.3062(17)
O5 O 0.0814(7) 1.2474(11) 0.0323(10)
O6 O -0.0625(6) 0.5038(11) -0.3672(12)
O7 O -0.0042(9) 0.8948(11) 0.3377(9)
Ni2A Ni 0.0383(3) 1.2064(5) 0.3394(5)
Ni2_2 Ni 0.9617(3) 0.7936(5) 0.6606(5)
Ni2_3 Ni -0.0383(3) 0.7936(5) 0.6606(5)
Ni2A_2 Ni -0.9617(3) 1.2064(5) -0.6606(5)
Ni2A_3 Ni 0.0383(3) 1.2064(5) -0.6606(5)
Ni2A_4 Ni 0.0383(3) 0.2064(5) -0.6606(5)
Ni3A Ni -0.0706(2) 1.6092(4) 0.2996(4)
Ni3A_2 Ni 0.9294(2) 0.6092(4) 0.2996(4)
Ni3_2 Ni 0.0706(2) 1.3908(4) -0.2996(4)
Ni3A_3 Ni -0.0706(2) 0.6092(4) -0.7004(4)
Ni3A_4 Ni -0.0706(2) 0.6092(4) 0.2996(4)
Ni3_3 Ni -0.9294(2) 1.3908(4) -0.2996(4)
C1A C -0.1526(7) 1.267(2) 0.091(2)
C2A C -0.2594(7) 1.355(2) 0.048(2)
C3A C -0.3188(6) 1.269(3) -0.121(3)
C4A C -0.4237(6) 1.329(3) -0.128(3)
C5A C -0.4852(6) 1.213(2) -0.269(3)
C6A C -0.5917(6) 1.280(2) -0.295(3)
C7A C -0.6503(6) 1.141(2) -0.419(3)
C8A C -0.7611(6) 1.195(3) -0.444(2)
O1A O -0.1270(6) 1.1448(14) -0.0138(16)
O2A O -0.0993(6) 1.3160(13) 0.2538(16)
O3A O -0.8213(6) 1.1119(16) -0.5633(17)
O3_2 O -0.1787(6) 0.8881(16) -0.4367(17)
O3A_2 O 0.1787(6) 1.1119(16) 0.4367(17)
O4A O -0.7911(6) 1.2810(17) -0.3062(17)
O4A_2 O 0.2089(6) 0.2810(17) -0.3062(17)
O4_2 O -0.2089(6) 1.7190(17) 0.3062(17)
O5A O -0.0814(7) 0.7526(11) -0.0323(10)
O5_2 O 0.0814(7) 0.2474(11) 0.0323(10)
O5A_2 O -0.0814(7) 1.7526(11) -0.0323(10)
O6A O 0.0625(6) 0.4962(11) -0.6328(12)
O6A_2 O 0.0625(6) 1.4962(11) 0.3672(12)
O6_2 O -0.0625(6) 1.5038(11) 0.6328(12)
O7A O 0.0042(9) 1.1052(11) -0.3377(9)
O7_2 O -0.0042(9) 0.8948(11) -0.6623(9)
O7A_2 O 0.0042(9) 0.1052(11) -0.3377(9)
O7A_3 O 0.0042(9) 1.1052(11) 0.6623(9)
O7_3 O -0.0042(9) 1.8948(11) 0.3377(9)
loop_
_geom_bond_atom_site_label_1
_geom_bond_atom_site_label_2
_geom_bond_site_symmetry_1
_geom_bond_site_symmetry_2
Ni1 O1 1_555 1_555
Ni2 O2 1_555 1_555
Ni3 O2 1_555 1_555
C1 C2 1_555 1_555
C2 C3 1_555 1_555
C3 C4 1_555 1_555
C4 C5 1_555 1_555
C5 C6 1_555 1_555
C6 C7 1_555 1_555
C7 C8 1_555 1_555
C8 O3 1_555 1_555
O1 C1 1_555 1_555
O2 C1 1_555 1_555
O3 Ni2_2 1_555 1_555
O4 C8 1_555 1_555
O5 Ni1 1_555 1_555
O6 Ni2 1_555 1_555
O7 Ni1 1_555 1_555
Ni2A O5 1_555 1_555
Ni2_3 O7 1_555 1_555
Ni2A_2 O3A 1_555 1_555
Ni2A_3 O7A 1_555 1_555
Ni2A_4 O6A 1_555 1_555
Ni3A O2A 1_555 1_555
Ni3A_2 O4 1_555 1_555
Ni3_2 O5 1_555 1_555
Ni3A_3 O6 1_555 1_555
Ni3A_4 O7 1_555 1_555
Ni3_3 O4A 1_555 1_555
C1A C2A 1_555 1_555
C2A C3A 1_555 1_555
C3A C4A 1_555 1_555
C4A C5A 1_555 1_555
C5A C6A 1_555 1_555
C6A C7A 1_555 1_555
C7A C8A 1_555 1_555
C8A O3A 1_555 1_555
O1A Ni1 1_555 1_555
O2A Ni2A 1_555 1_555
O3_2 Ni2 1_555 1_555
O3A_2 Ni2A 1_555 1_555
O4A C8A 1_555 1_555
O4A_2 Ni3 1_555 1_555
O4_2 Ni3A 1_555 1_555
O5A Ni1 1_555 1_555
O5_2 Ni3 1_555 1_555
O5A_2 Ni3A 1_555 1_555
O6A Ni3 1_555 1_555
O6A_2 Ni2A 1_555 1_555
O6_2 Ni3A 1_555 1_555
O7A Ni1 1_555 1_555
O7_2 Ni2 1_555 1_555
O7A_2 Ni3 1_555 1_555
O7A_3 Ni2A 1_555 1_555
O7_3 Ni3A 1_555 1_555
Ni2 O5A 1_555 1_555
Ni2 O7A 1_555 1_555
Ni3 O6 1_555 1_555
O7 Ni2A 1_555 1_555
Ni2_3 O7A_3 1_555 1_555
Ni2A_3 O7_2 1_555 1_555
Ni2A_4 O7A_2 1_555 1_555
Ni3A O6A_2 1_555 1_555
Ni3_2 O7A 1_555 1_555
Ni3A_3 O6A 1_555 1_555
Ni3A_3 O7_2 1_555 1_555
Ni3A_4 O5A 1_555 1_555
C1A O1A 1_555 1_555
C1A O2A 1_555 1_555

#END
