
#######################################################################
#
#                 Cambridge Crystallographic Data Centre
#                                CCDC 
#
#######################################################################
#
# If this CIF has been generated from an entry in the Cambridge 
# Structural Database, then it will include bibliographic, chemical, 
# crystal, experimental, refinement or atomic coordinate data resulting 
# from the CCDC's data processing and validation procedures.
#
#######################################################################

data_MOLVEP
_symmetry_cell_setting           triclinic
_symmetry_space_group_name_H-M   'P -1'
_symmetry_Int_Tables_number      2
_space_group_name_Hall           '-P 1'
loop_
_symmetry_equiv_pos_site_id
_symmetry_equiv_pos_as_xyz
1 x,y,z
2 -x,-y,-z
_cell_length_a                   9.2185(14)
_cell_length_b                   10.1085(15)
_cell_length_c                   32.201(5)
_cell_angle_alpha                90.004(2)
_cell_angle_beta                 89.993(2)
_cell_angle_gamma                89.989(2)
_cell_volume                     3000.66
loop_
_atom_site_label
_atom_site_type_symbol
_atom_site_fract_x
_atom_site_fract_y
_atom_site_fract_z
O1 O 0.879(4) 0.750(3) 0.0014(11)
H3 H 0.7889 0.7469 0.0103
H4 H 0.8927 0.7916 -0.0215
O2 O 0.127(4) 0.758(3) 0.4991(11)
H1 H 0.1624 0.6808 0.5029
H2 H 0.0526 0.7820 0.5126
S1 S 0.3275(10) 0.7308(14) 0.3068(3)
S2 S -0.3286(10) 0.2374(14) 0.3066(3)
N4 N 0.5249(13) 0.8859(11) 0.1018(4)
N5 N 0.0231(12) -0.1269(11) 0.1559(4)
N6 N -0.5232(13) 0.3860(11) 0.1016(4)
Zn1 Zn -0.32454(17) 0.02289(15) 0.08860(6)
Zn2 Zn 0.32491(17) 0.52254(15) 0.08862(6)
Zn5 Zn -0.17588(17) 0.24011(15) 0.16980(5)
Zn6 Zn 0.17600(17) 0.74040(15) 0.16985(6)
S4 S -0.1701(8) 0.0648(8) -0.0468(2)
S6 S 0.1709(8) 0.5645(8) -0.0471(2)
N8 N 0.3460(12) 0.7829(11) 0.1338(4)
N9 N -0.3442(12) 0.2824(10) 0.1337(4)
N11 N -0.1517(12) -0.0168(10) 0.1224(4)
N12 N -0.0244(14) 0.3713(12) 0.1562(4)
N13 N -0.3983(13) 0.1992(11) 0.1029(4)
N14 N 0.1519(13) 0.4827(11) 0.1232(4)
N17 N 0.4012(13) 0.6973(12) 0.1033(4)
N19 N -0.1027(12) 0.0629(11) 0.1548(4)
C1 C 0.0000(15) 0.4920(15) 0.1752(5)
N23 N 0.1047(13) 0.5639(12) 0.1552(4)
C2 C -0.0007(16) -0.0096(15) 0.1758(6)
C3 C 0.0735(16) 0.3726(14) 0.1245(5)
H5 H 0.0842 0.3035 0.1057
C5 C -0.5063(17) 0.2698(14) 0.0831(6)
C6 C 0.4214(16) 0.8881(15) 0.1311(5)
H6 H 0.4059 0.9610 0.1481
C7 C -0.4200(16) 0.3929(14) 0.1315(5)
H7 H -0.4046 0.4663 0.1484
C8 C 0.5071(15) 0.7661(15) 0.0843(5)
C9 C -0.0736(16) -0.1296(15) 0.1239(5)
H8 H -0.0844 -0.1999 0.1055
N26 N -0.2861(18) 0.0182(15) 0.0283(6)
N27 N 0.283(2) 0.5144(15) 0.0299(6)
N28 N 0.2086(17) 0.7583(15) 0.2287(5)
N31 N -0.2116(17) 0.2609(15) 0.2293(5)
C18 C 0.239(2) 0.5390(18) -0.0008(7)
C19 C -0.231(2) 0.037(2) -0.0019(6)
N33 N -0.583(2) 0.2229(17) 0.0526(6)
H13 H -0.5671 0.1397 0.0436
H14 H -0.6515 0.2730 0.0405
N34 N 0.582(2) 0.7229(17) 0.0524(6)
H15 H 0.5651 0.6413 0.0424
H16 H 0.6518 0.7736 0.0408
C22 C 0.264(2) 0.755(3) 0.2581(7)
C24 C -0.270(3) 0.266(3) 0.2575(8)
N39 N -0.069(4) 0.523(3) 0.2127(10)
H27 H -0.1258 0.4627 0.2253
H28 H -0.0527 0.6018 0.2248
N40 N 0.082(5) 0.042(4) 0.2073(14)
H29 H 0.1545 -0.0065 0.2182
H30 H 0.0593 0.1210 0.2184
N4_2 N -0.4751(13) -0.1141(11) 0.1018(4)
N5_2 N 0.0231(12) 0.8731(11) 0.1559(4)
N6_2 N 0.4768(13) 0.3860(11) 0.1016(4)
Zn1_2 Zn 0.67546(17) 1.02289(15) 0.08860(6)
Zn2_2 Zn -0.67509(17) 0.52254(15) 0.08862(6)
Zn6_2 Zn 0.17600(17) -0.25960(15) 0.16985(6)
S3 S 0.3312(10) 1.2392(14) 0.1938(3)
N1 N 0.5225(13) 1.3884(11) 0.3984(4)
N2 N -0.0236(13) 0.8730(10) 0.3441(4)
N3 N 1.0229(13) 0.3718(11) 0.3447(4)
Zn3 Zn 0.67501(18) 0.52263(15) 0.41133(6)
Zn4 Zn 0.32460(17) 1.02304(15) 0.41140(6)
Zn7 Zn 0.17579(17) 1.24113(15) 0.33014(5)
Zn8 Zn 0.82412(17) 0.74092(15) 0.33016(6)
S5 S 0.1693(8) 1.0630(8) 0.5469(2)
N7 N 0.3448(12) 1.2824(10) 0.3660(4)
N10 N 0.6547(12) 0.7820(11) 0.3660(4)
N15 N 0.1526(12) 0.9830(10) 0.3770(4)
N16 N 0.1014(13) 1.0629(12) 0.3445(4)
N18 N 0.6007(13) 0.6969(11) 0.3975(4)
N20 N 0.8967(13) 0.5641(12) 0.3451(4)
N21 N 0.4759(14) 0.8855(12) 0.3977(4)
N22 N 0.3996(14) 1.1980(12) 0.3974(4)
N24 N 0.8455(13) 0.4826(11) 0.3774(4)
C4 C 0.4888(17) 0.7633(14) 0.4162(5)
N25 N 0.2876(18) 1.0167(15) 0.4698(5)
C10 C 0.0746(15) 0.8688(15) 0.3755(5)
H9 H 0.0869 0.7977 0.3935
C11 C 0.9985(16) 0.4901(16) 0.3252(6)
C12 C 0.5057(17) 1.2664(15) 0.4168(6)
C13 C 0.4234(16) 1.3911(14) 0.3683(5)
H10 H 0.4108 1.4629 0.3506
C14 C 0.9280(15) 0.3717(14) 0.3756(5)
H11 H 0.9189 0.3021 0.3944
C15 C 0.5814(17) 0.8878(14) 0.3694(5)
H12 H 0.6001 0.9619 0.3531
C16 C 0.0012(17) 0.9894(16) 0.3239(6)
N29 N 0.7121(18) 0.5181(15) 0.4715(6)
N30 N 0.2115(17) 1.2590(15) 0.2701(5)
N32 N 0.7881(18) 0.7567(16) 0.2714(5)
S7 S 0.8293(8) 0.5638(9) 0.5476(2)
C17 C 0.238(2) 1.0344(18) 0.5015(6)
C20 C 0.7647(19) 0.5340(19) 0.5022(6)
S8 S 0.6705(10) 0.7342(14) 0.1933(3)
N35 N 0.581(2) 1.2261(18) 0.4469(6)
H17 H 0.6534 1.2760 0.4573
H18 H 0.5636 1.1454 0.4576
N36 N 0.422(2) 0.7249(17) 0.4483(6)
H19 H 0.3597 0.7796 0.4614
H20 H 0.4369 0.6428 0.4581
C21 C 0.733(3) 0.746(3) 0.2416(7)
C23 C 0.270(3) 1.266(3) 0.2416(7)
N37 N -0.072(4) 1.033(3) 0.2933(12)
H23 H -0.1486 0.9876 0.2835
H24 H -0.0470 1.1107 0.2817
N38 N 1.069(4) 0.527(3) 0.2925(11)
H25 H 1.1349 0.4733 0.2805
H26 H 1.0486 0.6060 0.2809
N1_2 N 0.5225(13) 0.3884(11) 0.3984(4)
N2_2 N 0.9764(13) 0.8730(10) 0.3441(4)
N3_2 N 0.0229(13) 1.3718(11) 0.3447(4)
Zn3_2 Zn 0.67501(18) 1.52263(15) 0.41133(6)
Zn7_2 Zn 1.17579(17) 0.24113(15) 0.33014(5)
Zn8_2 Zn -0.17588(17) 0.74092(15) 0.33016(6)
O3 O 0.53(3) 1.01(3) 0.250(7)
H21 H 0.4368 1.0110 0.2431
H22 H 0.5569 0.9761 0.2712
loop_
_geom_bond_atom_site_label_1
_geom_bond_atom_site_label_2
_geom_bond_site_symmetry_1
_geom_bond_site_symmetry_2
O1 H3 1_555 1_555
O2 H1 1_555 1_555
H2 O2 1_555 1_555
H4 O1 1_555 1_555
S1 C22 1_555 1_555
S2 C24 1_555 1_555
S3 C23 1_555 1_555
N1 C12 1_555 1_555
N2 C10 1_555 1_555
N3 C11 1_555 1_555
N4 C6 1_555 1_555
N5 C2 1_555 1_555
N6 C5 1_555 1_555
Zn1 N11 1_555 1_555
Zn2 N14 1_555 1_555
Zn3 N18 1_555 1_555
Zn4 N15 1_555 1_555
Zn5 N9 1_555 1_555
Zn6 N8 1_555 1_555
Zn7 N7 1_555 1_555
Zn8 N10 1_555 1_555
S4 C19 1_555 1_555
S5 C17 1_555 1_555
S6 C18 1_555 1_555
N7 N22 1_555 1_555
N8 N17 1_555 1_555
N9 N13 1_555 1_555
N10 N18 1_555 1_555
N11 N19 1_555 1_555
N12 Zn5 1_555 1_555
N13 Zn1 1_555 1_555
N14 N23 1_555 1_555
N15 N16 1_555 1_555
N16 Zn7 1_555 1_555
N17 Zn2 1_555 1_555
N18 C4 1_555 1_555
N19 Zn5 1_555 1_555
N20 Zn8 1_555 1_555
N21 Zn4 1_555 1_555
C1 N12 1_555 1_555
N22 Zn4 1_555 1_555
N23 Zn6 1_555 1_555
C2 N19 1_555 1_555
C3 N12 1_555 1_555
H5 C3 1_555 1_555
N24 Zn3 1_555 1_555
C4 N21 1_555 1_555
C5 N13 1_555 1_555
C6 N8 1_555 1_555
H6 C6 1_555 1_555
C7 N6 1_555 1_555
H7 C7 1_555 1_555
C8 N4 1_555 1_555
C9 N5 1_555 1_555
H8 C9 1_555 1_555
N25 Zn4 1_555 1_555
C10 N15 1_555 1_555
H9 C10 1_555 1_555
C11 N20 1_555 1_555
C12 N22 1_555 1_555
N26 Zn1 1_555 1_555
N27 Zn2 1_555 1_555
C13 N1 1_555 1_555
H10 C13 1_555 1_555
N28 Zn6 1_555 1_555
C14 N3 1_555 1_555
H11 C14 1_555 1_555
C15 N10 1_555 1_555
H12 C15 1_555 1_555
C16 N2 1_555 1_555
N29 Zn3 1_555 1_555
N30 Zn7 1_555 1_555
N31 Zn5 1_555 1_555
N32 Zn8 1_555 1_555
S7 C20 1_555 1_555
C17 N25 1_555 1_555
C18 N27 1_555 1_555
C19 N26 1_555 1_555
C20 N29 1_555 1_555
S8 C21 1_555 1_555
N33 C5 1_555 1_555
H13 N33 1_555 1_555
H14 N33 1_555 1_555
N34 C8 1_555 1_555
H15 N34 1_555 1_555
H16 N34 1_555 1_555
N35 C12 1_555 1_555
H17 N35 1_555 1_555
H18 N35 1_555 1_555
N36 C4 1_555 1_555
H19 N36 1_555 1_555
H20 N36 1_555 1_555
C21 N32 1_555 1_555
C22 N28 1_555 1_555
C23 N30 1_555 1_555
C24 N31 1_555 1_555
O3 H21 1_555 1_555
H22 O3 1_555 1_555
N37 C16 1_555 1_555
H23 N37 1_555 1_555
H24 N37 1_555 1_555
N38 C11 1_555 1_555
H25 N38 1_555 1_555
H26 N38 1_555 1_555
N39 C1 1_555 1_555
H27 N39 1_555 1_555
H28 N39 1_555 1_555
N40 C2 1_555 1_555
H29 N40 1_555 1_555
H30 N40 1_555 1_555
N1_2 Zn3 1_555 1_555
N2_2 Zn8 1_555 1_555
N3_2 Zn7 1_555 1_555
N4_2 Zn1 1_555 1_555
N5_2 Zn6 1_555 1_555
N6_2 Zn2 1_555 1_555
Zn1_2 N4 1_555 1_555
Zn2_2 N6 1_555 1_555
Zn3_2 N1 1_555 1_555
Zn6_2 N5 1_555 1_555
Zn7_2 N3 1_555 1_555
Zn8_2 N2 1_555 1_555
N7 C13 1_555 1_555
N9 C7 1_555 1_555
N11 C9 1_555 1_555
N14 C3 1_555 1_555
N16 C16 1_555 1_555
N17 C8 1_555 1_555
N20 N24 1_555 1_555
N21 C15 1_555 1_555
C1 N23 1_555 1_555
N24 C14 1_555 1_555

#END
