
#######################################################################
#
#                 Cambridge Crystallographic Data Centre
#                                CCDC 
#
#######################################################################
#
# If this CIF has been generated from an entry in the Cambridge 
# Structural Database, then it will include bibliographic, chemical, 
# crystal, experimental, refinement or atomic coordinate data resulting 
# from the CCDC's data processing and validation procedures.
#
#######################################################################

data_MOLVOZ01
_symmetry_cell_setting           triclinic
_symmetry_space_group_name_H-M   'P -1'
_symmetry_Int_Tables_number      2
_space_group_name_Hall           '-P 1'
loop_
_symmetry_equiv_pos_site_id
_symmetry_equiv_pos_as_xyz
1 x,y,z
2 -x,-y,-z
_cell_length_a                   4.192(3)
_cell_length_b                   13.470(10)
_cell_length_c                   16.027(15)
_cell_angle_alpha                113.73(4)
_cell_angle_beta                 92.64(3)
_cell_angle_gamma                98.10(3)
_cell_volume                     814.915
loop_
_atom_site_label
_atom_site_type_symbol
_atom_site_fract_x
_atom_site_fract_y
_atom_site_fract_z
I1 I 0.04715(14) 0.14020(5) 0.45801(5)
I2 I 0.37603(14) -0.17445(5) 0.29918(5)
I3 I 0.46501(14) 0.08495(5) 0.20901(6)
Cu1 Cu -0.0632(3) -0.07880(11) 0.40208(12)
Cu2 Cu 0.4855(3) 0.04069(10) 0.35299(12)
Cu3 Cu -0.0130(3) 0.19225(10) 0.19829(12)
N1 N 0.114(2) 0.2272(6) 0.0897(6)
N2 N 0.182(2) 0.3572(6) 0.2694(7)
C1 C 0.214(3) 0.4224(10) 0.3574(11)
H1 H 0.1132 0.3941 0.3957
C2 C 0.383(5) 0.5293(11) 0.3982(11)
H2 H 0.3869 0.5723 0.4605
C3 C 0.544(3) 0.5689(9) 0.3428(12)
H3 H 0.6690 0.6392 0.3679
C4 C 0.523(3) 0.5048(8) 0.2490(9)
C5 C 0.701(3) 0.5365(9) 0.1864(12)
H4 H 0.8488 0.6022 0.2093
C6 C 0.660(2) 0.4733(9) 0.0952(12)
H5 H 0.7581 0.5004 0.0560
C7 C 0.467(2) 0.3649(8) 0.0578(9)
C8 C 0.417(3) 0.2960(9) -0.0340(10)
H6 H 0.5134 0.3185 -0.0760
C9 C 0.223(4) 0.1935(10) -0.0641(12)
H7 H 0.1893 0.1457 -0.1260
C10 C 0.085(3) 0.1651(9) -0.0007(10)
H8 H -0.0428 0.0956 -0.0218
C11 C 0.314(2) 0.3273(7) 0.1170(8)
C12 C 0.330(2) 0.3984(7) 0.2173(9)
I1A I -0.04715(14) -0.14020(5) 0.54199(5)
I1_2 I 1.04715(14) 0.14020(5) 0.45801(5)
I2_2 I -0.62397(14) -0.17445(5) 0.29918(5)
I3_2 I -0.53499(14) 0.08495(5) 0.20901(6)
Cu1A Cu 0.0632(3) 0.07880(11) 0.59792(12)
Cu1_2 Cu 0.9368(3) -0.07880(11) 0.40208(12)
Cu2_2 Cu -0.5145(3) 0.04069(10) 0.35299(12)
Cu3_2 Cu 0.9870(3) 0.19225(10) 0.19829(12)
loop_
_geom_bond_atom_site_label_1
_geom_bond_atom_site_label_2
_geom_bond_site_symmetry_1
_geom_bond_site_symmetry_2
I1 Cu1 1_555 1_555
I2 Cu1 1_555 1_555
I3 Cu2 1_555 1_555
Cu1 I1A 1_555 1_555
Cu2 I1 1_555 1_555
Cu3 I3 1_555 1_555
N1 Cu3 1_555 1_555
N2 Cu3 1_555 1_555
C1 N2 1_555 1_555
H1 C1 1_555 1_555
C2 C1 1_555 1_555
H2 C2 1_555 1_555
C3 C2 1_555 1_555
H3 C3 1_555 1_555
C4 C3 1_555 1_555
C5 C4 1_555 1_555
H4 C5 1_555 1_555
C6 C5 1_555 1_555
H5 C6 1_555 1_555
C7 C6 1_555 1_555
C8 C7 1_555 1_555
H6 C8 1_555 1_555
C9 C8 1_555 1_555
H7 C9 1_555 1_555
C10 N1 1_555 1_555
H8 C10 1_555 1_555
C11 N1 1_555 1_555
C12 N2 1_555 1_555
I1A Cu1A 1_555 1_555
I1_2 Cu2 1_555 1_555
I2_2 Cu1 1_555 1_555
I3_2 Cu3 1_555 1_555
Cu1A I1 1_555 1_555
Cu1_2 I2 1_555 1_555
Cu2_2 I1 1_555 1_555
Cu3_2 I3 1_555 1_555
I2 Cu2 1_555 1_555
C4 C12 1_555 1_555
C7 C11 1_555 1_555
C9 C10 1_555 1_555
C11 C12 1_555 1_555
I1_2 Cu1_2 1_555 1_555
I2_2 Cu2_2 1_555 1_555
I3_2 Cu2_2 1_555 1_555

#END
