
#######################################################################
#
#                 Cambridge Crystallographic Data Centre
#                                CCDC 
#
#######################################################################
#
# If this CIF has been generated from an entry in the Cambridge 
# Structural Database, then it will include bibliographic, chemical, 
# crystal, experimental, refinement or atomic coordinate data resulting 
# from the CCDC's data processing and validation procedures.
#
#######################################################################

data_MOLXES
_symmetry_cell_setting           triclinic
_symmetry_space_group_name_H-M   'P -1'
_symmetry_Int_Tables_number      2
_space_group_name_Hall           '-P 1'
loop_
_symmetry_equiv_pos_site_id
_symmetry_equiv_pos_as_xyz
1 x,y,z
2 -x,-y,-z
_cell_length_a                   9.5261(10)
_cell_length_b                   9.5959(10)
_cell_length_c                   17.4222(18)
_cell_angle_alpha                101.364(2)
_cell_angle_beta                 103.347(2)
_cell_angle_gamma                93.395(2)
_cell_volume                     1510.01
loop_
_atom_site_label
_atom_site_type_symbol
_atom_site_fract_x
_atom_site_fract_y
_atom_site_fract_z
Cu1 Cu 0.5000 0.5000 0.5000
Cu2 Cu 1.0000 1.0000 1.0000
N1 N 0.5402(3) 0.7076(3) 0.54669(18)
N2 N 0.5121(4) 0.9269(4) 0.6019(2)
N3 N 0.5629(4) 0.9949(4) 0.8957(2)
N4 N 0.7922(3) 1.0267(3) 0.96041(18)
O1 O 0.3501(3) 0.4772(3) 0.59461(15)
O2 O 0.5839(3) 0.4630(3) 0.61144(15)
O3 O 1.0164(3) 0.9396(3) 0.88630(14)
O4 O 1.0630(4) 1.1732(3) 0.91596(16)
C1 C 0.6739(5) 0.7796(5) 0.5867(3)
H1 H 0.7617 0.7410 0.5897
C2 C 0.6590(5) 0.9153(5) 0.6212(3)
H2 H 0.7326 0.9860 0.6517
C3 C 0.4441(4) 0.8005(4) 0.5569(2)
C4 C 0.2850(5) 0.7673(5) 0.5216(3)
H3 H 0.2664 0.6828 0.4792
H4 H 0.2477 0.8461 0.4999
H5 H 0.2381 0.7517 0.5628
C5 C 0.4441(5) 1.0481(5) 0.6391(3)
H6 H 0.3413 1.0366 0.6129
H7 H 0.4867 1.1362 0.6304
C6 C 0.4640(5) 1.0588(5) 0.7301(3)
H8 H 0.5648 1.0915 0.7575
H9 H 0.4053 1.1298 0.7501
C7 C 0.4225(5) 0.9182(5) 0.7509(3)
H10 H 0.4892 0.8508 0.7368
H11 H 0.3260 0.8796 0.7181
C8 C 0.4238(5) 0.9308(5) 0.8397(3)
H12 H 0.3481 0.9883 0.8520
H13 H 0.4010 0.8362 0.8485
C9 C 0.5876(5) 1.1284(5) 0.9430(3)
H14 H 0.5199 1.1937 0.9472
C10 C 0.7284(5) 1.1485(5) 0.9826(3)
H15 H 0.7754 1.2314 1.0191
C11 C 0.6891(4) 0.9349(4) 0.9076(2)
C12 C 0.7066(5) 0.7882(5) 0.8689(3)
H16 H 0.7402 0.7899 0.8212
H17 H 0.6150 0.7302 0.8545
H18 H 0.7761 0.7491 0.9059
C13 C 1.0413(4) 1.0576(4) 0.8664(2)
C14 C 1.0418(4) 1.0535(4) 0.7795(2)
C15 C 1.0229(4) 0.9238(4) 0.6442(2)
H19 H 1.0136 0.8366 0.6079
C16 C 1.0317(4) 1.0498(4) 0.6168(2)
C17 C 1.0535(6) 1.1787(5) 0.7527(2)
H20 H 1.0652 1.2659 0.7893
C18 C 1.0481(6) 1.1774(5) 0.6730(2)
H21 H 1.0555 1.2635 0.6566
C19 C 1.0217(4) 1.0547(4) 0.5311(2)
H22 H 1.0484 1.1423 0.5203
C20 C 0.5478(5) 0.4869(5) 0.9788(2)
H23 H 0.6414 0.4780 1.0069
C21 C 0.5206(5) 0.4699(4) 0.8900(2)
C22 C 0.3906(5) 0.4961(5) 0.8423(2)
H24 H 0.3139 0.5182 0.8656
C23 C 0.3736(5) 0.4896(5) 0.7604(2)
H25 H 0.2856 0.5062 0.7290
C24 C 0.4871(4) 0.4586(4) 0.7256(2)
C25 C 0.6144(4) 0.4288(4) 0.7715(2)
H26 H 0.6900 0.4047 0.7476
C26 C 0.6313(5) 0.4345(4) 0.8531(2)
H27 H 0.7184 0.4141 0.8836
C27 C 0.4707(5) 0.4649(4) 0.6381(2)
C28 C 1.0278(4) 0.9254(4) 0.7239(2)
H28 H 1.0216 0.8395 0.7407
O1A O 0.6499(3) 0.5228(3) 1.40539(15)
O2A O 0.4161(3) 0.5370(3) 1.38856(15)
C20A C 0.4522(5) 0.5131(5) 1.0212(2)
H23A H 0.3586 0.5220 0.9931
C21A C 0.4794(5) 0.5301(4) 1.1100(2)
C22A C 0.6094(5) 0.5039(5) 1.1577(2)
H24A H 0.6861 0.4818 1.1344
C23A C 0.6264(5) 0.5104(5) 1.2396(2)
H25A H 0.7144 0.4938 1.2710
C24A C 0.5129(4) 0.5414(4) 1.2744(2)
C25A C 0.3856(4) 0.5712(4) 1.2285(2)
H26A H 0.3100 0.5953 1.2524
C26A C 0.3687(5) 0.5655(4) 1.1469(2)
H27A H 0.2816 0.5859 1.1164
C27A C 0.5293(5) 0.5351(4) 1.3619(2)
O3A O 0.9836(3) 1.0604(3) 0.11370(14)
O4A O 0.9370(4) 0.8268(3) 0.08404(16)
C13A C 0.9587(4) 0.9424(4) 0.1336(2)
C14A C 0.9582(4) 0.9465(4) 0.2205(2)
C15A C 0.9771(4) 1.0762(4) 0.3558(2)
H19A H 0.9864 1.1634 0.3921
C16A C 0.9683(4) 0.9502(4) 0.3832(2)
C17A C 0.9465(6) 0.8213(5) 0.2473(2)
H20A H 0.9348 0.7341 0.2107
C18A C 0.9519(6) 0.8226(5) 0.3270(2)
H21A H 0.9445 0.7365 0.3434
C19A C 0.9783(4) 0.9453(4) 0.4689(2)
H22A H 0.9516 0.8577 0.4797
C28A C 0.9722(4) 1.0746(4) 0.2761(2)
H28A H 0.9784 1.1605 0.2593
N1A N 0.4598(3) 0.2924(3) 0.45331(18)
N2A N 0.4879(4) 0.0731(4) 0.3981(2)
N3A N 0.4371(4) 0.0051(4) 0.1043(2)
N4A N 0.2078(3) -0.0267(3) 0.03959(18)
C1A C 0.3261(5) 0.2204(5) 0.4133(3)
H1A H 0.2383 0.2590 0.4103
C2A C 0.3410(5) 0.0847(5) 0.3788(3)
H2A H 0.2674 0.0140 0.3483
C3A C 0.5559(4) 0.1995(4) 0.4431(2)
C4A C 0.7150(5) 0.2327(5) 0.4784(3)
H3A H 0.7336 0.3172 0.5208
H4A H 0.7523 0.1539 0.5001
H5A H 0.7619 0.2483 0.4372
C5A C 0.5559(5) -0.0481(5) 0.3609(3)
H6A H 0.6587 -0.0366 0.3871
H7A H 0.5133 -0.1362 0.3696
C6A C 0.5360(5) -0.0588(5) 0.2699(3)
H8A H 0.4352 -0.0915 0.2425
H9A H 0.5947 -0.1298 0.2499
C7A C 0.5775(5) 0.0818(5) 0.2491(3)
H10A H 0.5108 0.1492 0.2632
H11A H 0.6740 0.1204 0.2819
C8A C 0.5762(5) 0.0692(5) 0.1603(3)
H12A H 0.6519 0.0117 0.1480
H13A H 0.5990 0.1638 0.1515
C9A C 0.4124(5) -0.1284(5) 0.0570(3)
H14A H 0.4801 -0.1937 0.0528
C10A C 0.2716(5) -0.1485(5) 0.0174(3)
H15A H 0.2246 -0.2314 -0.0191
C11A C 0.3109(4) 0.0651(4) 0.0924(2)
C12A C 0.2934(5) 0.2118(5) 0.1311(3)
H16A H 0.2598 0.2101 0.1788
H17A H 0.3850 0.2698 0.1455
H18A H 0.2239 0.2509 0.0941
Cu1_2 Cu 0.5000 0.5000 1.5000
Cu2_2 Cu 0.0000 0.0000 0.0000
Cu2_3 Cu 1.0000 1.0000 0.0000
N4A_2 N 1.2078(3) 0.9733(3) 1.03959(18)
O1A_2 O 0.6499(3) 0.5228(3) 0.40539(15)
O2A_2 O 0.4161(3) 0.5370(3) 0.38856(15)
O3A_2 O 0.9836(3) 1.0604(3) 1.11370(14)
O4A_2 O 0.9370(4) 0.8268(3) 1.08404(16)
O5 O 0.9594(4) 0.3632(4) 0.1703(2)
O6 O 0.9433(5) 0.5462(7) 0.4340(3)
O7 O 0.9311(5) 0.5335(4) 0.0602(2)
O8 O 0.1078(4) 0.4687(4) 0.3268(2)
loop_
_geom_bond_atom_site_label_1
_geom_bond_atom_site_label_2
_geom_bond_site_symmetry_1
_geom_bond_site_symmetry_2
Cu1 N1 1_555 1_555
Cu2 N4 1_555 1_555
N1 C1 1_555 1_555
N2 C2 1_555 1_555
N3 C8 1_555 1_555
N4 C10 1_555 1_555
O1 Cu1 1_555 1_555
O2 Cu1 1_555 1_555
O3 Cu2 1_555 1_555
O4 Cu2 1_555 1_555
C1 H1 1_555 1_555
C2 C1 1_555 1_555
H2 C2 1_555 1_555
C3 N1 1_555 1_555
C4 C3 1_555 1_555
H3 C4 1_555 1_555
H4 C4 1_555 1_555
H5 C4 1_555 1_555
C5 N2 1_555 1_555
H6 C5 1_555 1_555
H7 C5 1_555 1_555
C6 C5 1_555 1_555
H8 C6 1_555 1_555
H9 C6 1_555 1_555
C7 C6 1_555 1_555
H10 C7 1_555 1_555
H11 C7 1_555 1_555
C8 C7 1_555 1_555
H12 C8 1_555 1_555
H13 C8 1_555 1_555
C9 N3 1_555 1_555
H14 C9 1_555 1_555
C10 C9 1_555 1_555
H15 C10 1_555 1_555
C11 N3 1_555 1_555
C12 C11 1_555 1_555
H16 C12 1_555 1_555
H17 C12 1_555 1_555
H18 C12 1_555 1_555
C13 O3 1_555 1_555
C14 C13 1_555 1_555
C15 H19 1_555 1_555
C16 C15 1_555 1_555
C17 C14 1_555 1_555
H20 C17 1_555 1_555
C18 C16 1_555 1_555
H21 C18 1_555 1_555
C19 C16 1_555 1_555
H22 C19 1_555 1_555
C20 H23 1_555 1_555
C21 C20 1_555 1_555
C22 C21 1_555 1_555
H24 C22 1_555 1_555
C23 C22 1_555 1_555
H25 C23 1_555 1_555
C24 C23 1_555 1_555
C25 C24 1_555 1_555
H26 C25 1_555 1_555
C26 C21 1_555 1_555
H27 C26 1_555 1_555
C27 O1 1_555 1_555
C28 C14 1_555 1_555
H28 C28 1_555 1_555
O1A C27A 1_555 1_555
O2A C27A 1_555 1_555
C20A C20 1_555 1_555
H23A C20A 1_555 1_555
C21A C20A 1_555 1_555
C22A C21A 1_555 1_555
H24A C22A 1_555 1_555
C23A C22A 1_555 1_555
H25A C23A 1_555 1_555
C24A C23A 1_555 1_555
C25A C24A 1_555 1_555
H26A C25A 1_555 1_555
C26A C21A 1_555 1_555
H27A C26A 1_555 1_555
C27A C24A 1_555 1_555
O3A C13A 1_555 1_555
O4A C13A 1_555 1_555
C13A C14A 1_555 1_555
C14A C17A 1_555 1_555
C15A H19A 1_555 1_555
C16A C15A 1_555 1_555
C17A H20A 1_555 1_555
C18A C16A 1_555 1_555
H21A C18A 1_555 1_555
C19A C19 1_555 1_555
H22A C19A 1_555 1_555
C28A C14A 1_555 1_555
H28A C28A 1_555 1_555
N1A Cu1 1_555 1_555
N2A C2A 1_555 1_555
N3A C8A 1_555 1_555
N4A C10A 1_555 1_555
C1A N1A 1_555 1_555
H1A C1A 1_555 1_555
C2A C1A 1_555 1_555
H2A C2A 1_555 1_555
C3A N1A 1_555 1_555
C4A C3A 1_555 1_555
H3A C4A 1_555 1_555
H4A C4A 1_555 1_555
H5A C4A 1_555 1_555
C5A N2A 1_555 1_555
H6A C5A 1_555 1_555
H7A C5A 1_555 1_555
C6A C5A 1_555 1_555
H8A C6A 1_555 1_555
H9A C6A 1_555 1_555
C7A C6A 1_555 1_555
H10A C7A 1_555 1_555
H11A C7A 1_555 1_555
C8A C7A 1_555 1_555
H12A C8A 1_555 1_555
H13A C8A 1_555 1_555
C9A N3A 1_555 1_555
H14A C9A 1_555 1_555
C10A C9A 1_555 1_555
H15A C10A 1_555 1_555
C11A N3A 1_555 1_555
C12A C11A 1_555 1_555
H16A C12A 1_555 1_555
H17A C12A 1_555 1_555
H18A C12A 1_555 1_555
Cu1_2 O1A 1_555 1_555
Cu2_2 N4A 1_555 1_555
Cu2_3 O3A 1_555 1_555
N4A_2 Cu2 1_555 1_555
O1A_2 Cu1 1_555 1_555
O2A_2 Cu1 1_555 1_555
O3A_2 Cu2 1_555 1_555
O4A_2 Cu2 1_555 1_555
N2 C3 1_555 1_555
N4 C11 1_555 1_555
O2 C27 1_555 1_555
O4 C13 1_555 1_555
C15 C28 1_555 1_555
C17 C18 1_555 1_555
C24 C27 1_555 1_555
C25 C26 1_555 1_555
O2A Cu1_2 1_555 1_555
C25A C26A 1_555 1_555
O4A Cu2_3 1_555 1_555
C15A C28A 1_555 1_555
C16A C19A 1_555 1_555
C17A C18A 1_555 1_555
N2A C3A 1_555 1_555
N4A C11A 1_555 1_555

#END
