
#######################################################################
#
#                 Cambridge Crystallographic Data Centre
#                                CCDC 
#
#######################################################################
#
# If this CIF has been generated from an entry in the Cambridge 
# Structural Database, then it will include bibliographic, chemical, 
# crystal, experimental, refinement or atomic coordinate data resulting 
# from the CCDC's data processing and validation procedures.
#
#######################################################################

data_MOMKEG
_symmetry_cell_setting           monoclinic
_symmetry_space_group_name_H-M   'P 21/c'
_symmetry_Int_Tables_number      14
_space_group_name_Hall           '-P 2ybc'
loop_
_symmetry_equiv_pos_site_id
_symmetry_equiv_pos_as_xyz
1 x,y,z
2 -x,1/2+y,1/2-z
3 -x,-y,-z
4 x,1/2-y,1/2+z
_cell_length_a                   9.0318(10)
_cell_length_b                   19.069(2)
_cell_length_c                   12.9064(15)
_cell_angle_alpha                90
_cell_angle_beta                 102.4340(10)
_cell_angle_gamma                90
_cell_volume                     2170.7
loop_
_atom_site_label
_atom_site_type_symbol
_atom_site_fract_x
_atom_site_fract_y
_atom_site_fract_z
Co1 Co 0.11847(5) 0.21888(2) 0.32209(4)
O1 O -0.0178(3) 0.20683(14) -0.1521(2)
O2 O 0.1548(3) 0.18769(15) -0.0054(2)
O3 O 0.1702(3) 0.10157(13) 0.1975(2)
O4 O -0.0053(3) 0.18347(14) 0.1888(2)
O5 O -0.0826(5) 0.0387(2) 0.2701(2)
O6 O -0.2044(4) -0.05339(15) 0.1918(2)
H1 H -0.1964 -0.0665 0.2532
O7 O -0.4714(4) -0.03680(19) -0.1691(3)
O8 O -0.3752(4) 0.02302(16) -0.2806(2)
N1 N -0.3790(4) 0.00508(18) -0.1903(3)
N2 N 0.3176(3) 0.25178(17) 0.2923(3)
N3 N 0.5334(5) 0.3097(2) 0.3028(4)
N4 N 0.5230(4) 0.2548(2) 0.2336(3)
N5 N 0.7613(5) 0.55131(19) -0.0267(3)
N6 N 0.7895(5) 0.5969(2) -0.1008(3)
N7 N 0.8328(4) 0.64729(16) 0.0584(2)
C1 C -0.0682(4) 0.11710(17) -0.0393(3)
C2 C -0.0578(4) 0.09228(17) 0.0643(3)
C3 C -0.1502(4) 0.03652(18) 0.0816(3)
C4 C -0.2541(4) 0.00714(19) -0.0019(3)
H2 H -0.3151 -0.0301 0.0095
C5 C -0.2651(4) 0.03423(18) -0.1020(3)
C6 C -0.1740(4) 0.08769(18) -0.1223(3)
H3 H -0.1829 0.1042 -0.1912
C7 C 0.0321(4) 0.17463(18) -0.0646(3)
C8 C 0.0474(4) 0.12730(18) 0.1572(3)
C9 C -0.1408(5) 0.0084(2) 0.1910(3)
C10 C 0.3936(5) 0.2218(2) 0.2281(3)
H4 H 0.3609 0.1831 0.1853
C11 C 0.4080(5) 0.3054(2) 0.3355(4)
H5 H 0.3824 0.3364 0.3844
C12 C 0.6406(6) 0.2423(4) 0.1742(5)
H6 H 0.6266 0.1968 0.1402
H7 H 0.7399 0.2434 0.2215
C13 C 0.6270(8) 0.3051(4) 0.0839(5)
H8 H 0.5305 0.3012 0.0338
H9 H 0.6308 0.3505 0.1181
C14 C 0.7471(8) 0.2998(4) 0.0290(6)
H10 H 0.7433 0.2541 -0.0047
H11 H 0.8433 0.3036 0.0794
C15 C 0.7375(9) 0.3535(3) -0.0502(6)
H12 H 0.6327 0.3580 -0.0877
H13 H 0.7961 0.3389 -0.1012
C16 C 0.7968(7) 0.4283(3) -0.0041(5)
H14 H 0.8001 0.4300 0.0715
H15 H 0.8984 0.4363 -0.0149
C17 C 0.6995(7) 0.4794(3) -0.0558(5)
H16 H 0.6016 0.4747 -0.0370
H17 H 0.6849 0.4729 -0.1319
C18 C 0.7901(5) 0.5821(2) 0.0677(3)
H18 H 0.7814 0.5608 0.1310
C19 C 0.8303(5) 0.6534(2) -0.0465(3)
H19 H 0.8558 0.6946 -0.0770
Co1A Co 0.88153(5) 0.71888(2) 0.17791(4)
Co1C Co 0.11847(5) 0.28112(2) -0.17791(4)
O1C O -0.0178(3) 0.29317(14) 0.3479(2)
N7A N 0.1672(4) 0.14729(16) 0.4416(2)
loop_
_geom_bond_atom_site_label_1
_geom_bond_atom_site_label_2
_geom_bond_site_symmetry_1
_geom_bond_site_symmetry_2
Co1 O4 1_555 1_555
O1 C7 1_555 1_555
O2 C7 1_555 1_555
O3 C8 1_555 1_555
O4 C8 1_555 1_555
O5 C9 1_555 1_555
O6 H1 1_555 1_555
O7 N1 1_555 1_555
O8 N1 1_555 1_555
N1 C5 1_555 1_555
N2 Co1 1_555 1_555
N3 N4 1_555 1_555
N4 C10 1_555 1_555
N5 N6 1_555 1_555
N6 C19 1_555 1_555
N7 C18 1_555 1_555
C1 C2 1_555 1_555
C2 C3 1_555 1_555
C3 C4 1_555 1_555
C4 H2 1_555 1_555
C5 C4 1_555 1_555
C6 C1 1_555 1_555
H3 C6 1_555 1_555
C7 C1 1_555 1_555
C8 C2 1_555 1_555
C9 O6 1_555 1_555
C10 N2 1_555 1_555
H4 C10 1_555 1_555
C11 N2 1_555 1_555
H5 C11 1_555 1_555
C12 N4 1_555 1_555
H6 C12 1_555 1_555
H7 C12 1_555 1_555
C13 C12 1_555 1_555
H8 C13 1_555 1_555
H9 C13 1_555 1_555
C14 C13 1_555 1_555
H10 C14 1_555 1_555
H11 C14 1_555 1_555
C15 C14 1_555 1_555
H12 C15 1_555 1_555
H13 C15 1_555 1_555
C16 C15 1_555 1_555
H14 C16 1_555 1_555
H15 C16 1_555 1_555
C17 N5 1_555 1_555
H16 C17 1_555 1_555
H17 C17 1_555 1_555
C18 N5 1_555 1_555
H18 C18 1_555 1_555
C19 N7 1_555 1_555
H19 C19 1_555 1_555
Co1A N7 1_555 1_555
Co1C O1 1_555 1_555
O1C Co1 1_555 1_555
N7A Co1 1_555 1_555
N3 C11 1_555 1_555
C3 C9 1_555 1_555
C5 C6 1_555 1_555
C16 C17 1_555 1_555

#END
