
#######################################################################
#
#                 Cambridge Crystallographic Data Centre
#                                CCDC 
#
#######################################################################
#
# If this CIF has been generated from an entry in the Cambridge 
# Structural Database, then it will include bibliographic, chemical, 
# crystal, experimental, refinement or atomic coordinate data resulting 
# from the CCDC's data processing and validation procedures.
#
#######################################################################

data_MOMQOW
_symmetry_cell_setting           triclinic
_symmetry_space_group_name_H-M   'P -1'
_symmetry_Int_Tables_number      2
_space_group_name_Hall           '-P 1'
loop_
_symmetry_equiv_pos_site_id
_symmetry_equiv_pos_as_xyz
1 x,y,z
2 -x,-y,-z
_cell_length_a                   9.898(2)
_cell_length_b                   16.193(3)
_cell_length_c                   16.909(3)
_cell_angle_alpha                67.68(3)
_cell_angle_beta                 80.85(3)
_cell_angle_gamma                78.78(3)
_cell_volume                     2448.33
loop_
_atom_site_label
_atom_site_type_symbol
_atom_site_fract_x
_atom_site_fract_y
_atom_site_fract_z
La1 La 0.19662(3) 0.238104(16) 0.758016(14)
O1 O -0.3572(4) -0.3209(2) 1.19835(19)
C1 C -0.0635(6) 0.3866(3) 0.9815(3)
H1 H -0.0092 0.3333 1.0117
C2 C 0.4079(5) 0.1374(3) 0.6647(3)
C3 C 0.0216(5) 0.3528(3) 0.8483(3)
C4 C -0.2973(6) 0.2382(3) 0.7482(3)
H2 H -0.3645 0.2837 0.7192
C5 C -0.3809(5) -0.2516(3) 1.1321(3)
O2 O 0.0705(4) 0.2730(2) 0.89404(19)
C6 C 0.2456(5) 0.0095(3) 0.9080(3)
H3 H 0.3307 0.0280 0.9034
O3 O 0.3047(4) 0.0996(2) 0.7057(2)
C7 C -0.2853(8) 0.4744(4) 0.5462(3)
H4 H -0.3061 0.4272 0.5967
O4 O 0.0481(4) 0.3823(2) 0.76856(18)
C8 C -0.0164(7) 0.8319(4) 0.4619(3)
H5 H 0.0200 0.8826 0.4570
N1 N -0.3583(4) -0.0483(2) 0.8921(2)
C9 C -0.2421(5) -0.0073(3) 0.8805(2)
C10 C -0.3125(10) 0.4758(4) 0.4685(4)
H6 H -0.3512 0.4294 0.4653
N2 N -0.1890(4) -0.1486(2) 0.9636(2)
H7 H -0.1462 -0.1994 0.9949
N3 N -0.1081(4) 0.6025(3) 0.7058(2)
H8 H -0.0706 0.6348 0.7239
N4 N -0.2228(5) 0.6159(3) 0.3935(2)
C11 C -0.0018(5) -0.0477(3) 0.9218(2)
C12 C -0.2808(9) 0.5487(4) 0.3943(3)
H9 H -0.3020 0.5499 0.3422
N5 N 0.1446(4) 0.0694(2) 0.8681(2)
N6 N -0.1023(5) 0.7522(3) 0.3908(2)
C13 C -0.0390(7) 0.7667(4) 0.5398(3)
H10 H -0.0169 0.7716 0.5891
N7 N -0.2127(4) 0.4911(2) 0.7093(2)
C14 C -0.1524(5) 0.4908(3) 0.8487(2)
C15 C -0.1935(5) 0.6134(3) 0.4699(3)
C16 C -0.4359(5) -0.2610(3) 1.0586(3)
C17 C -0.4110(5) -0.2031(3) 0.9721(3)
N8 N -0.0649(4) 0.1958(2) 0.7883(2)
C18 C 0.0200(5) 0.0419(3) 0.8739(2)
C19 C -0.1361(5) -0.0689(3) 0.9242(2)
C20 C 0.1074(5) -0.1096(3) 0.9640(3)
H11 H 0.0956 -0.1692 0.9962
C21 C -0.1915(5) 0.5496(3) 0.6257(3)
C22 C -0.1283(5) 0.6195(3) 0.6222(3)
C23 C -0.0960(5) 0.6917(3) 0.5450(3)
C24 C -0.1678(5) 0.2578(3) 0.7505(3)
H12 H -0.1520 0.3174 0.7241
C25 C -0.2209(6) 0.5192(4) 0.9810(3)
H13 H -0.2724 0.5549 1.0105
C26 C -0.1387(6) 0.4412(4) 1.0242(3)
H14 H -0.1334 0.4249 1.0828
C27 C -0.2262(6) 0.5445(3) 0.5483(3)
C28 C -0.4728(5) -0.2147(3) 0.9091(3)
H15 H -0.4580 -0.1770 0.8522
C29 C -0.2220(5) 0.0847(3) 0.8323(2)
C30 C -0.5557(6) -0.2810(4) 0.9296(3)
H16 H -0.5953 -0.2877 0.8865
C31 C -0.1592(5) 0.5245(3) 0.7545(3)
C32 C -0.5795(6) -0.3370(3) 1.0134(3)
H17 H -0.6355 -0.3814 1.0273
C33 C -0.0687(5) 0.4111(3) 0.8932(3)
C34 C -0.0921(5) 0.1097(3) 0.8303(2)
C35 C -0.1288(5) 0.6879(3) 0.4684(3)
C36 C 0.2311(5) -0.0814(3) 0.9574(3)
H18 H 0.3049 -0.1213 0.9850
C37 C -0.3220(5) -0.1322(3) 0.9439(3)
C38 C -0.2271(6) 0.5448(3) 0.8935(3)
H19 H -0.2816 0.5984 0.8642
C39 C -0.3259(5) 0.1517(3) 0.7891(3)
H20 H -0.4122 0.1376 0.7881
C40 C -0.5188(6) -0.3267(3) 1.0775(3)
H21 H -0.5346 -0.3648 1.1342
C41 C -0.0488(6) 0.8213(4) 0.3902(3)
H22 H -0.0317 0.8662 0.3373
O5 O -0.3598(4) -0.1750(2) 1.12571(19)
O6 O 0.4232(4) 0.2118(2) 0.6658(2)
C42 C 0.5175(5) 0.0942(3) 0.6123(3)
C43 C 0.5405(5) 0.0046(3) 0.6158(3)
C44 C 0.6048(6) 0.1551(4) 0.5554(3)
H23 H 0.5911 0.2143 0.5532
C45 C 0.7121(6) 0.1272(4) 0.5020(3)
H24 H 0.7647 0.1687 0.4616
C46 C 0.6541(6) -0.0228(4) 0.5648(4)
H25 H 0.6724 -0.0826 0.5681
C47 C 0.7389(6) 0.0386(4) 0.5095(4)
H26 H 0.8147 0.0192 0.4774
N9 N 0.3150(4) -0.0501(3) 0.6856(2)
H27 H 0.2694 0.0009 0.6856
N10 N 0.4931(5) -0.1533(3) 0.6719(3)
C48 C 0.4519(5) -0.0669(3) 0.6616(3)
C49 C 0.2630(6) -0.1295(3) 0.7099(3)
C50 C 0.3748(6) -0.1923(3) 0.7015(3)
C51 C 0.1238(6) -0.1463(3) 0.7274(3)
C52 C 0.3568(6) -0.2841(3) 0.7189(3)
C53 C 0.1020(6) -0.2355(3) 0.7416(3)
C54 C 0.2213(6) -0.3051(3) 0.7399(3)
C55 C 0.0058(6) -0.0821(4) 0.7278(3)
H28 H 0.0154 -0.0235 0.7203
C56 C -0.1234(6) -0.1059(4) 0.7391(4)
H29 H -0.2024 -0.0640 0.7390
C57 C 0.2995(7) -0.4546(3) 0.7596(3)
H30 H 0.2817 -0.5133 0.7748
C58 C -0.1332(6) -0.1934(4) 0.7506(4)
H31 H -0.2213 -0.2088 0.7576
C59 C 0.4656(7) -0.3525(4) 0.7168(4)
H32 H 0.5560 -0.3402 0.7016
C60 C 0.4377(8) -0.4378(4) 0.7374(4)
H33 H 0.5091 -0.4845 0.7368
N11 N -0.0264(5) -0.2574(3) 0.7525(3)
N12 N 0.1931(5) -0.3896(3) 0.7596(3)
La1A La -0.19662(3) -0.238104(16) 1.241984(14)
La1A_2 La -0.19662(3) 0.761896(16) 0.241984(14)
O1A O 0.3572(4) 0.3209(2) 0.80165(19)
N4A N 0.2228(5) 0.3841(3) 0.6065(2)
N6A N 0.1023(5) 0.2478(3) 0.6092(2)
O5A O 0.3598(4) 0.1750(2) 0.87429(19)
loop_
_geom_bond_atom_site_label_1
_geom_bond_atom_site_label_2
_geom_bond_site_symmetry_1
_geom_bond_site_symmetry_2
La1 O2 1_555 1_555
O1 C5 1_555 1_555
C1 H1 1_555 1_555
C2 O3 1_555 1_555
C3 O2 1_555 1_555
C4 H2 1_555 1_555
C5 C16 1_555 1_555
C6 H3 1_555 1_555
O3 La1 1_555 1_555
C7 H4 1_555 1_555
O4 La1 1_555 1_555
C8 H5 1_555 1_555
N1 C9 1_555 1_555
C9 C19 1_555 1_555
C10 C7 1_555 1_555
H6 C10 1_555 1_555
N2 H7 1_555 1_555
N3 H8 1_555 1_555
N4 C12 1_555 1_555
C11 C18 1_555 1_555
C12 C10 1_555 1_555
H9 C12 1_555 1_555
N5 La1 1_555 1_555
N6 C35 1_555 1_555
C13 C8 1_555 1_555
H10 C13 1_555 1_555
N7 C21 1_555 1_555
C14 C31 1_555 1_555
C15 N4 1_555 1_555
C16 C17 1_555 1_555
C17 C28 1_555 1_555
N8 La1 1_555 1_555
C18 N5 1_555 1_555
C19 N2 1_555 1_555
C20 C11 1_555 1_555
H11 C20 1_555 1_555
C21 C22 1_555 1_555
C22 N3 1_555 1_555
C23 C13 1_555 1_555
C24 C4 1_555 1_555
H12 C24 1_555 1_555
C25 H13 1_555 1_555
C26 C1 1_555 1_555
H14 C26 1_555 1_555
C27 C7 1_555 1_555
C28 H15 1_555 1_555
C29 C9 1_555 1_555
C30 C28 1_555 1_555
H16 C30 1_555 1_555
C31 N3 1_555 1_555
C32 C30 1_555 1_555
H17 C32 1_555 1_555
C33 C1 1_555 1_555
C34 N8 1_555 1_555
C35 C15 1_555 1_555
C36 C6 1_555 1_555
H18 C36 1_555 1_555
C37 N1 1_555 1_555
C38 C14 1_555 1_555
H19 C38 1_555 1_555
C39 C4 1_555 1_555
H20 C39 1_555 1_555
C40 C16 1_555 1_555
H21 C40 1_555 1_555
C41 C8 1_555 1_555
H22 C41 1_555 1_555
O5 C5 1_555 1_555
O6 La1 1_555 1_555
C42 C2 1_555 1_555
C43 C42 1_555 1_555
C44 C42 1_555 1_555
H23 C44 1_555 1_555
C45 C44 1_555 1_555
H24 C45 1_555 1_555
C46 C43 1_555 1_555
H25 C46 1_555 1_555
C47 C45 1_555 1_555
H26 C47 1_555 1_555
N9 H27 1_555 1_555
N10 C48 1_555 1_555
C48 C43 1_555 1_555
C49 N9 1_555 1_555
C50 N10 1_555 1_555
C51 C49 1_555 1_555
C52 C50 1_555 1_555
C53 C51 1_555 1_555
C54 C52 1_555 1_555
C55 C51 1_555 1_555
H28 C55 1_555 1_555
C56 C55 1_555 1_555
H29 C56 1_555 1_555
C57 H30 1_555 1_555
C58 C56 1_555 1_555
H31 C58 1_555 1_555
C59 C52 1_555 1_555
H32 C59 1_555 1_555
C60 C57 1_555 1_555
H33 C60 1_555 1_555
N11 C53 1_555 1_555
N12 C54 1_555 1_555
La1A O1 1_555 1_555
La1A_2 N4 1_555 1_555
O1A La1 1_555 1_555
N4A La1 1_555 1_555
N6A La1 1_555 1_555
O5A La1 1_555 1_555
C2 O6 1_555 1_555
C3 O4 1_555 1_555
C3 C33 1_555 1_555
C6 N5 1_555 1_555
N2 C37 1_555 1_555
C11 C19 1_555 1_555
N6 C41 1_555 1_555
N6 La1A_2 1_555 1_555
N7 C31 1_555 1_555
C14 C33 1_555 1_555
C15 C27 1_555 1_555
C17 C37 1_555 1_555
N8 C24 1_555 1_555
C18 C34 1_555 1_555
C20 C36 1_555 1_555
C21 C27 1_555 1_555
C22 C23 1_555 1_555
C23 C35 1_555 1_555
C25 C26 1_555 1_555
C25 C38 1_555 1_555
C29 C34 1_555 1_555
C29 C39 1_555 1_555
C32 C40 1_555 1_555
O5 La1A 1_555 1_555
C46 C47 1_555 1_555
N9 C48 1_555 1_555
C49 C50 1_555 1_555
C53 C54 1_555 1_555
C57 N12 1_555 1_555
C58 N11 1_555 1_555
C59 C60 1_555 1_555

#END
