
#######################################################################
#
#                 Cambridge Crystallographic Data Centre
#                                CCDC 
#
#######################################################################
#
# If this CIF has been generated from an entry in the Cambridge 
# Structural Database, then it will include bibliographic, chemical, 
# crystal, experimental, refinement or atomic coordinate data resulting 
# from the CCDC's data processing and validation procedures.
#
#######################################################################

data_MOMQIQ
_symmetry_cell_setting           monoclinic
_symmetry_space_group_name_H-M   'C 2/c'
_symmetry_Int_Tables_number      15
_space_group_name_Hall           '-C 2yn'
loop_
_symmetry_equiv_pos_site_id
_symmetry_equiv_pos_as_xyz
1 x,y,z
2 -x,y,1/2-z
3 1/2+x,1/2+y,z
4 1/2-x,1/2+y,1/2-z
5 -x,-y,-z
6 x,-y,1/2+z
7 1/2-x,1/2-y,-z
8 1/2+x,1/2-y,1/2+z
_cell_length_a                   17.5676(15)
_cell_length_b                   11.4496(8)
_cell_length_c                   7.6197(8)
_cell_angle_alpha                90
_cell_angle_beta                 102.787(2)
_cell_angle_gamma                90
_cell_volume                     1494.63
loop_
_atom_site_label
_atom_site_type_symbol
_atom_site_fract_x
_atom_site_fract_y
_atom_site_fract_z
C1 C 0.41481(8) 0.84502(14) 0.1029(2)
C2 C 0.40644(9) 0.71543(14) 0.0816(2)
C3 C 0.34605(9) 0.65625(14) 0.1341(2)
H1 H 0.3074 0.6967 0.1748
C4 C 0.34503(9) 0.53456(14) 0.1240(2)
C5 C 0.28119(9) 0.46366(15) 0.1716(2)
C6 C 0.40495(9) 0.47430(15) 0.0726(2)
H2 H 0.4037 0.3931 0.0703
C7 C 0.46712(9) 0.53254(14) 0.0242(2)
C8 C 0.46505(9) 0.65426(14) 0.0241(2)
H3 H 0.5037 0.6956 -0.0152
Ca1 Ca 0.5000 1.05046(4) 0.2500
O1 O 0.45154(7) 0.90094(10) 0.00558(16)
O2 O 0.39125(7) 0.89413(10) 0.22911(17)
O3 O 0.22692(7) 0.52899(12) 0.2198(2)
H4 H 0.1930 0.4868 0.2444
O4 O 0.27880(8) 0.35807(11) 0.1665(2)
O5 O 0.39351(8) 1.16987(12) 0.09466(18)
H5 H 0.3824(13) 1.163(2) -0.020(2)
H6 H 0.3570(12) 1.205(2) 0.123(3)
C1D C 0.58519(8) 0.15498(14) -0.1029(2)
C2D C 0.59356(9) 0.28457(14) -0.0816(2)
C3D C 0.65395(9) 0.34375(14) -0.1341(2)
H1D H 0.6926 0.3033 -0.1748
C4D C 0.65497(9) 0.46544(14) -0.1240(2)
C5D C 0.71881(9) 0.53634(15) -0.1716(2)
C6D C 0.59505(9) 0.52570(15) -0.0726(2)
H2D H 0.5963 0.6069 -0.0703
C7D C 0.53288(9) 0.46746(14) -0.0242(2)
C8D C 0.53495(9) 0.34574(14) -0.0241(2)
H3D H 0.4963 0.3044 0.0152
O1D O 0.54846(7) 0.09906(10) -0.00558(16)
O2D O 0.60875(7) 0.10587(10) -0.22911(17)
O3D O 0.77308(7) 0.47101(12) -0.2198(2)
H4D H 0.8070 0.5132 -0.2444
O4D O 0.72120(8) 0.64193(11) -0.1665(2)
O5A O 0.60649(8) 1.16987(12) 0.40534(18)
H5A H 0.6176(13) 1.163(2) 0.520(2)
H6A H 0.6430(12) 1.205(2) 0.377(3)
Ca1_2 Ca 0.5000 0.05046(4) 0.2500
Ca1D Ca 0.5000 -0.05046(4) -0.2500
Ca1D_2 Ca 0.5000 0.94954(4) -0.2500
O1A O 0.54846(7) 0.90094(10) 0.49442(16)
O1D_2 O 0.54846(7) 1.09906(10) -0.00558(16)
O1E O 0.45154(7) 1.09906(10) 0.50558(16)
O2A O 0.60875(7) 0.89413(10) 0.27089(17)
loop_
_geom_bond_atom_site_label_1
_geom_bond_atom_site_label_2
_geom_bond_site_symmetry_1
_geom_bond_site_symmetry_2
C1 C2 1_555 1_555
C2 C3 1_555 1_555
C3 H1 1_555 1_555
C4 C3 1_555 1_555
C5 C4 1_555 1_555
C6 C4 1_555 1_555
H2 C6 1_555 1_555
C7 C6 1_555 1_555
C8 C2 1_555 1_555
H3 C8 1_555 1_555
Ca1 O1 1_555 1_555
O1 C1 1_555 1_555
O2 C1 1_555 1_555
O3 C5 1_555 1_555
H4 O3 1_555 1_555
O4 C5 1_555 1_555
O5 Ca1 1_555 1_555
H5 O5 1_555 1_555
H6 O5 1_555 1_555
C1D C2D 1_555 1_555
C2D C3D 1_555 1_555
C3D H1D 1_555 1_555
C4D C3D 1_555 1_555
C5D C4D 1_555 1_555
C6D C4D 1_555 1_555
H2D C6D 1_555 1_555
C7D C7 1_555 1_555
C8D C2D 1_555 1_555
H3D C8D 1_555 1_555
O1D C1D 1_555 1_555
O2D C1D 1_555 1_555
O3D C5D 1_555 1_555
H4D O3D 1_555 1_555
O4D C5D 1_555 1_555
O5A Ca1 1_555 1_555
H5A O5A 1_555 1_555
H6A O5A 1_555 1_555
Ca1_2 O1D 1_555 1_555
Ca1D O1D 1_555 1_555
Ca1D_2 O1 1_555 1_555
O1A Ca1 1_555 1_555
O1D_2 Ca1 1_555 1_555
O1E Ca1 1_555 1_555
O2A Ca1 1_555 1_555
C7 C8 1_555 1_555
Ca1 O2 1_555 1_555
C6D C7D 1_555 1_555
C7D C8D 1_555 1_555
O2D Ca1D 1_555 1_555
Ca1D_2 O1D_2 1_555 1_555

#END
