
#######################################################################
#
#                 Cambridge Crystallographic Data Centre
#                                CCDC 
#
#######################################################################
#
# If this CIF has been generated from an entry in the Cambridge 
# Structural Database, then it will include bibliographic, chemical, 
# crystal, experimental, refinement or atomic coordinate data resulting 
# from the CCDC's data processing and validation procedures.
#
#######################################################################

data_MOMQEM
_symmetry_cell_setting           monoclinic
_symmetry_space_group_name_H-M   'P 21/n'
_symmetry_Int_Tables_number      14
_space_group_name_Hall           '-P 2yn'
loop_
_symmetry_equiv_pos_site_id
_symmetry_equiv_pos_as_xyz
1 x,y,z
2 1/2-x,1/2+y,1/2-z
3 -x,-y,-z
4 1/2+x,1/2-y,1/2+z
_cell_length_a                   17.3056(13)
_cell_length_b                   11.0114(9)
_cell_length_c                   17.7484(14)
_cell_angle_alpha                90
_cell_angle_beta                 117.3640(10)
_cell_angle_gamma                90
_cell_volume                     3003.67
loop_
_atom_site_label
_atom_site_type_symbol
_atom_site_fract_x
_atom_site_fract_y
_atom_site_fract_z
Cd1 Cd -0.14846(2) -0.04833(3) 0.88428(2)
O1 O -0.14299(19) 0.1532(3) 0.8999(2)
N1 N -0.0658(2) -0.0635(3) 0.8200(2)
C1 C -0.1153(3) 0.2528(4) 0.8903(3)
C2 C 0.0222(3) 0.2130(4) 0.8756(3)
C3 C -0.0184(3) -0.0448(4) 0.7212(3)
C4 C -0.0640(3) 0.2566(4) 0.8401(3)
N2 N 0.0468(2) -0.0943(4) 0.7957(2)
C5 C -0.1005(3) 0.3028(4) 0.7568(3)
C6 C -0.0543(3) 0.3025(4) 0.7111(3)
H1 H -0.0786 0.3343 0.6565
C7 C 0.0147(3) -0.1035(4) 0.8511(3)
H2 H 0.0459 -0.1347 0.9056
C8 C 0.0674(3) 0.2109(4) 0.8285(3)
H3 H 0.1237 0.1802 0.8518
N3 N 0.3533(3) -0.2040(4) 1.1117(3)
C9 C -0.0881(3) -0.0273(4) 0.7379(3)
C10 C -0.0987(4) 0.0332(5) 0.5817(3)
C11 C 0.5993(3) -0.0582(5) 1.2135(4)
C12 C 0.4698(3) -0.1195(4) 1.2161(4)
C13 C 0.4355(3) -0.1586(4) 1.1326(3)
C14 C -0.1663(3) 0.0218(4) 0.6755(3)
H4 H -0.2136 0.0329 0.6861
C15 C -0.1054(4) 0.0669(6) 0.4960(4)
H5 H -0.0492 0.0600 0.4981
H6 H -0.1259 0.1489 0.4823
H7 H -0.1455 0.0130 0.4534
N4 N 0.0759(3) 0.2459(4) 0.6969(3)
C16 C -0.1714(3) 0.0534(4) 0.5980(3)
O2 O 0.0406(3) 0.2865(4) 0.6243(3)
C17 C 0.4835(3) -0.1501(5) 1.0880(4)
H8 H 0.4607 -0.1768 1.0322
C18 C 0.5664(4) -0.1006(5) 1.1291(4)
N5 N 0.4096(3) -0.1443(4) 1.2453(3)
C19 C 0.3433(4) -0.1938(5) 1.1817(4)
H9 H 0.2936 -0.2196 1.1847
O3 O -0.1277(2) 0.3506(3) 0.9175(3)
H10 H -0.1049 0.4058 0.9037
C20 C 0.0280(3) 0.2547(4) 0.7472(3)
C21 C 0.5512(4) -0.0671(5) 1.2562(4)
H11 H 0.5729 -0.0383 1.3115
O4 O 0.1482(3) 0.1995(4) 0.7297(3)
C22 C -0.0230(3) -0.0153(5) 0.6431(3)
H12 H 0.0243 -0.0282 0.6327
C23 C 0.1875(3) -0.2076(5) 0.8814(4)
H13 H 0.1477 -0.2649 0.8867
H14 H 0.2262 -0.2539 0.8665
C24 C 0.2411(3) -0.1522(5) 0.9665(3)
H15 H 0.2037 -0.1096 0.9849
H16 H 0.2815 -0.0941 0.9632
C25 C -0.2550(4) 0.1090(6) 0.5319(4)
H17 H -0.2773 0.0608 0.4812
H18 H -0.2438 0.1900 0.5194
H19 H -0.2969 0.1116 0.5532
C26 C 0.1344(3) -0.1236(5) 0.8076(3)
H20 H 0.1664 -0.0483 0.8157
H21 H 0.1291 -0.1607 0.7559
C27 C 0.2910(3) -0.2512(5) 1.0299(4)
H22 H 0.2500 -0.3032 1.0377
H23 H 0.3215 -0.3006 1.0068
C28 C 0.6906(4) -0.0046(6) 1.2576(5)
H24 H 0.7032 0.0206 1.3139
H25 H 0.6940 0.0642 1.2261
H26 H 0.7321 -0.0648 1.2607
C29 C 0.6195(4) -0.0907(7) 1.0817(5)
H27 H 0.5862 -0.1207 1.0250
H28 H 0.6717 -0.1378 1.1102
H29 H 0.6344 -0.0072 1.0797
C30 C -0.1937(3) 0.3485(5) 0.7127(3)
O5 O -0.2088(2) 0.4338(3) 0.6602(3)
O6 O -0.2501(2) 0.3011(4) 0.7256(3)
C31 C 0.0661(3) 0.1628(5) 0.9639(3)
O7 O 0.1210(2) 0.0817(3) 0.9803(2)
O8 O 0.0490(2) 0.2069(4) 1.0197(2)
Cd1A Cd -0.35154(2) 0.45167(3) 0.61572(2)
Cd1B Cd 0.14846(2) 0.04833(3) 1.11572(2)
O5A O -0.2912(2) -0.0662(3) 0.8398(3)
O6A O -0.2499(2) -0.1989(4) 0.7744(3)
O7B O -0.1210(2) -0.0817(3) 1.0197(2)
O8B O -0.0490(2) -0.2069(4) 0.9803(2)
O9 O 0.4419(4) 0.9355(4) 0.3968(3)
H30 H 0.4073 0.9189 0.3453
H31 H 0.4330 0.8834 0.4270
loop_
_geom_bond_atom_site_label_1
_geom_bond_atom_site_label_2
_geom_bond_site_symmetry_1
_geom_bond_site_symmetry_2
Cd1 O1 1_555 1_555
O1 C1 1_555 1_555
N1 Cd1 1_555 1_555
C1 C4 1_555 1_555
C2 C4 1_555 1_555
C3 N2 1_555 1_555
C4 C5 1_555 1_555
N2 C7 1_555 1_555
C5 C6 1_555 1_555
C6 H1 1_555 1_555
C7 N1 1_555 1_555
H2 C7 1_555 1_555
C8 C2 1_555 1_555
H3 C8 1_555 1_555
N3 C13 1_555 1_555
C9 N1 1_555 1_555
C10 C15 1_555 1_555
C11 C18 1_555 1_555
C12 C13 1_555 1_555
C13 C17 1_555 1_555
C14 C9 1_555 1_555
H4 C14 1_555 1_555
C15 H5 1_555 1_555
H6 C15 1_555 1_555
H7 C15 1_555 1_555
N4 O2 1_555 1_555
C16 C10 1_555 1_555
C17 H8 1_555 1_555
C18 C17 1_555 1_555
N5 C12 1_555 1_555
C19 N3 1_555 1_555
H9 C19 1_555 1_555
O3 C1 1_555 1_555
H10 O3 1_555 1_555
C20 C6 1_555 1_555
C21 C11 1_555 1_555
H11 C21 1_555 1_555
O4 N4 1_555 1_555
C22 C3 1_555 1_555
H12 C22 1_555 1_555
C23 H13 1_555 1_555
H14 C23 1_555 1_555
C24 C23 1_555 1_555
H15 C24 1_555 1_555
H16 C24 1_555 1_555
C25 C16 1_555 1_555
H17 C25 1_555 1_555
H18 C25 1_555 1_555
H19 C25 1_555 1_555
C26 N2 1_555 1_555
H20 C26 1_555 1_555
H21 C26 1_555 1_555
C27 N3 1_555 1_555
H22 C27 1_555 1_555
H23 C27 1_555 1_555
C28 C11 1_555 1_555
H24 C28 1_555 1_555
H25 C28 1_555 1_555
H26 C28 1_555 1_555
C29 C18 1_555 1_555
H27 C29 1_555 1_555
H28 C29 1_555 1_555
H29 C29 1_555 1_555
C30 C5 1_555 1_555
O5 C30 1_555 1_555
O6 C30 1_555 1_555
C31 C2 1_555 1_555
O7 C31 1_555 1_555
O8 C31 1_555 1_555
O9 H30 1_555 1_555
H31 O9 1_555 1_555
Cd1A O5 1_555 1_555
Cd1B O7 1_555 1_555
O5A Cd1 1_555 1_555
O6A Cd1 1_555 1_555
O7B Cd1 1_555 1_555
O8B Cd1 1_555 1_555
C3 C9 1_555 1_555
C8 C20 1_555 1_555
C10 C22 1_555 1_555
C12 C21 1_555 1_555
C14 C16 1_555 1_555
N4 C20 1_555 1_555
N5 C19 1_555 1_555
C23 C26 1_555 1_555
C24 C27 1_555 1_555
O6 Cd1A 1_555 1_555
O8 Cd1B 1_555 1_555

#END
