
#######################################################################
#
#                 Cambridge Crystallographic Data Centre
#                                CCDC 
#
#######################################################################
#
# If this CIF has been generated from an entry in the Cambridge 
# Structural Database, then it will include bibliographic, chemical, 
# crystal, experimental, refinement or atomic coordinate data resulting 
# from the CCDC's data processing and validation procedures.
#
#######################################################################

data_MOMQAI
_symmetry_cell_setting           monoclinic
_symmetry_space_group_name_H-M   'P 21/c'
_symmetry_Int_Tables_number      14
_space_group_name_Hall           '-P 2ybc'
loop_
_symmetry_equiv_pos_site_id
_symmetry_equiv_pos_as_xyz
1 x,y,z
2 -x,1/2+y,1/2-z
3 -x,-y,-z
4 x,1/2-y,1/2+z
_cell_length_a                   4.3043(2)
_cell_length_b                   21.4959(11)
_cell_length_c                   10.7450(6)
_cell_angle_alpha                90
_cell_angle_beta                 91.411(5)
_cell_angle_gamma                90
_cell_volume                     993.878
loop_
_atom_site_label
_atom_site_type_symbol
_atom_site_fract_x
_atom_site_fract_y
_atom_site_fract_z
Ca1 Ca 0.40947(9) 0.493674(19) 0.82331(4)
C1 C 0.7340(4) 0.65080(10) 0.5539(2)
C2 C 0.8657(5) 0.61121(10) 0.4676(2)
H1 H 0.8337 0.5685 0.4727
C3 C 1.0454(4) 0.63568(10) 0.3737(2)
C4 C 1.0933(5) 0.69936(10) 0.3673(2)
H2 H 1.2176 0.7157 0.3058
C5 C 0.9570(5) 0.73869(10) 0.4521(2)
C6 C 0.7766(5) 0.71501(10) 0.5464(2)
H3 H 0.6858 0.7415 0.6035
C7 C 0.5461(5) 0.62302(11) 0.6532(2)
C8 C 1.1870(5) 0.59393(10) 0.2794(2)
C9 C 0.8306(5) 0.84429(10) 0.4986(2)
H4 H 0.8788 0.8437 0.5873
H5 H 0.6129 0.8337 0.4861
C10 C 0.8943(5) 0.90796(10) 0.4460(2)
O1 O 0.5136(3) 0.56697(7) 0.66487(15)
O2 O 0.4178(4) 0.66402(8) 0.72786(16)
O3 O 1.0681(3) 0.54037(7) 0.25971(15)
O4 O 1.4224(3) 0.61149(7) 0.22331(15)
O5 O 1.0197(3) 0.80077(7) 0.43622(16)
O6 O 0.7195(3) 0.95171(7) 0.48157(14)
O7 O 1.1065(3) 0.91483(7) 0.37025(15)
H6 H 0.306(7) 0.6444(15) 0.783(3)
Ca1A Ca 0.59053(9) 0.993674(19) 0.67669(4)
Ca1B Ca 0.59053(9) 0.506326(19) 0.17669(4)
Ca1B_2 Ca 1.59053(9) 0.506326(19) 0.17669(4)
Ca1C Ca 0.40947(9) 1.006326(19) 0.32331(4)
Ca1C_2 Ca 1.40947(9) 1.006326(19) 0.32331(4)
O3B O -0.0681(3) 0.45963(7) 0.74029(15)
O3B_2 O 0.9319(3) 0.45963(7) 0.74029(15)
O4B O 0.5776(3) 0.38851(7) 0.77669(15)
O6A O 0.2805(3) 0.45171(7) 1.01843(14)
O6C O 0.7195(3) 0.54829(7) 0.98157(14)
O7C O 0.1065(3) 0.58517(7) 0.87025(15)
loop_
_geom_bond_atom_site_label_1
_geom_bond_atom_site_label_2
_geom_bond_site_symmetry_1
_geom_bond_site_symmetry_2
Ca1 O1 1_555 1_555
C1 C2 1_555 1_555
C2 H1 1_555 1_555
C3 C2 1_555 1_555
C4 C3 1_555 1_555
H2 C4 1_555 1_555
C5 C4 1_555 1_555
C6 C1 1_555 1_555
H3 C6 1_555 1_555
C7 C1 1_555 1_555
C8 C3 1_555 1_555
C9 H4 1_555 1_555
H5 C9 1_555 1_555
C10 C9 1_555 1_555
O1 C7 1_555 1_555
O2 C7 1_555 1_555
O3 C8 1_555 1_555
O4 C8 1_555 1_555
O5 C5 1_555 1_555
O6 C10 1_555 1_555
O7 C10 1_555 1_555
H6 O2 1_555 1_555
Ca1A O6 1_555 1_555
Ca1B O3 1_555 1_555
Ca1B_2 O3 1_555 1_555
Ca1C O6 1_555 1_555
Ca1C_2 O7 1_555 1_555
O3B Ca1 1_555 1_555
O3B_2 Ca1 1_555 1_555
O4B Ca1 1_555 1_555
O6A Ca1 1_555 1_555
O6C Ca1 1_555 1_555
O7C Ca1 1_555 1_555
C5 C6 1_555 1_555
C9 O5 1_555 1_555
O4 Ca1B_2 1_555 1_555

#END
