
#######################################################################
#
#                 Cambridge Crystallographic Data Centre
#                                CCDC 
#
#######################################################################
#
# If this CIF has been generated from an entry in the Cambridge 
# Structural Database, then it will include bibliographic, chemical, 
# crystal, experimental, refinement or atomic coordinate data resulting 
# from the CCDC's data processing and validation procedures.
#
#######################################################################

data_MOMRUC
_symmetry_cell_setting           triclinic
_symmetry_space_group_name_H-M   'P -1'
_symmetry_Int_Tables_number      2
_space_group_name_Hall           '-P 1'
loop_
_symmetry_equiv_pos_site_id
_symmetry_equiv_pos_as_xyz
1 x,y,z
2 -x,-y,-z
_cell_length_a                   12.437(3)
_cell_length_b                   13.592(3)
_cell_length_c                   17.545(4)
_cell_angle_alpha                109.62(3)
_cell_angle_beta                 93.83(3)
_cell_angle_gamma                114.49(3)
_cell_volume                     2467.84
loop_
_atom_site_label
_atom_site_type_symbol
_atom_site_fract_x
_atom_site_fract_y
_atom_site_fract_z
Co1 Co 0.57640(15) -0.11501(15) 1.07490(10)
Co2 Co 0.61795(15) 0.03900(14) 0.96787(10)
Co3 Co 1.0000 0.5000 1.0000
Co4 Co 1.15386(18) 0.31857(18) 1.40239(12)
Co5 Co 0.5000 0.0000 1.5000
Si1 Si 0.6376(3) 0.1653(3) 1.1691(2)
W1 W 0.70049(4) 0.34820(4) 1.05978(3)
W2 W 0.41819(4) 0.25675(4) 1.13433(3)
W3 W 0.87202(5) 0.47596(4) 1.25742(3)
W4 W 0.58767(5) 0.38025(4) 1.33363(3)
W5 W 0.82318(5) 0.29110(5) 1.37990(3)
W6 W 0.37401(5) 0.08941(5) 1.24464(3)
W7 W 0.60361(5) 0.00365(5) 1.29464(3)
W8 W 0.90756(4) 0.26677(4) 1.10335(3)
W9 W 0.85673(5) 0.08297(5) 1.22489(3)
O1 O 0.5670(8) 0.3462(7) 1.1110(5)
O2 O 0.9044(8) 0.3764(8) 1.4823(6)
O3 O 0.6006(8) 0.4960(8) 1.4210(6)
O4 O 0.5540(9) -0.0830(8) 1.3517(6)
O5 O 0.6906(8) 0.4256(7) 1.0005(5)
O6 O 0.8566(6) 0.3529(5) 1.0435(6)
O7 O 0.7593(8) -0.0267(8) 1.1267(5)
O8 O 0.7409(7) 0.2742(7) 1.1525(5)
O9 O 0.7065(7) 0.1440(7) 1.2407(5)
O10 O 0.4897(7) 0.3836(7) 1.2489(5)
O11 O 0.9755(8) 0.0477(9) 1.2312(6)
O12 O 0.3130(7) 0.1672(7) 1.1879(5)
O13 O 0.5714(7) 0.0456(7) 1.0844(5)
O14 O 0.5400(8) 0.2058(7) 1.2079(5)
O15 O 1.0391(8) 0.2888(8) 1.0687(6)
O16 O 0.3259(8) 0.3048(8) 1.0978(6)
O17 O 0.9738(8) 0.6198(8) 1.3161(6)
O18 O 0.4517(7) 0.2548(7) 1.3389(5)
O19 O 0.5349(8) -0.0932(7) 1.1888(5)
O20 O 0.2488(8) 0.0279(8) 1.2820(6)
O21 O 0.7990(7) 0.1263(7) 1.0249(5)
O22 O 0.4886(8) 0.0639(8) 1.3041(5)
O23 O 0.7583(8) -0.0001(7) 1.2851(5)
O24 O 0.9258(8) 0.2038(8) 1.1826(6)
O25 O 0.6098(7) -0.1248(7) 0.9554(5)
O26 O 0.6534(8) 0.0227(8) 0.8533(5)
O27 O 0.9722(7) 0.4247(8) 1.1973(5)
O28 O 0.3931(7) -0.1956(7) 1.0121(5)
O29 O 0.9303(2) 0.2256(7) 1.3411(5)
O30 O 0.7159(8) 0.1553(8) 1.3930(5)
O31 O 0.6918(8) 0.3347(8) 1.3794(5)
O32 O 0.8054(7) 0.4906(7) 1.1647(5)
O33 O 0.7265(8) 0.4620(8) 1.2956(5)
O34 O 0.8859(7) 0.3985(7) 1.3267(5)
C1 C 0.6048(16) -0.2865(14) 1.1467(9)
H1 H 0.6853 -0.2226 1.1776
H2 H 0.5476 -0.2745 1.1790
C2 C 0.6026(17) -0.3979(14) 1.1399(10)
H3 H 0.5206 -0.4614 1.1127
H4 H 0.6557 -0.4129 1.1047
C3 C 0.842(2) 0.329(2) 0.8373(14)
H5 H 0.7557 0.2754 0.8225
H6 H 0.8649 0.3396 0.7878
C4 C 0.911(2) 0.2760(17) 0.8668(16)
H7 H 0.9257 0.2255 0.8194
H8 H 0.8623 0.2277 0.8940
C5 C 1.071(2) 0.221(2) 1.5192(15)
H9 H 0.9828 0.1807 1.5023
H10 H 1.0942 0.2364 1.5774
C6 C 1.114(2) 0.146(2) 1.4725(16)
H11 H 1.1878 0.1597 1.5064
H12 H 1.0539 0.0649 1.4573
C7 C 1.212(2) 0.4967(18) 1.3431(12)
H13 H 1.1337 0.4800 1.3134
H14 H 1.2680 0.5785 1.3558
C8 C 1.2549(18) 0.4237(15) 1.2889(15)
H15 H 1.2320 0.4148 1.2321
H16 H 1.3429 0.4598 1.3057
C9 C 0.7491(16) 0.0766(19) 1.5642(13)
H17 H 0.7756 0.0682 1.5127
H18 H 0.8100 0.0814 1.6048
C10 C 0.7341(17) 0.1834(17) 1.5952(12)
H19 H 0.8071 0.2506 1.5976
H20 H 0.7207 0.1987 1.6509
N1 N 0.5752(11) -0.2783(10) 1.0670(7)
H23 H 0.5008 -0.3381 1.0383
H24 H 0.6286 -0.2891 1.0373
N2 N 0.6405(12) -0.3998(11) 1.2202(8)
H25 H 0.6368 -0.4696 1.2118
H26 H 0.5913 -0.3877 1.2526
H27 H 0.7166 -0.3432 1.2450
N3 N 0.8672(13) 0.4445(14) 0.9023(9)
H28 H 0.8879 0.4985 0.8799
H29 H 0.7989 0.4380 0.9195
N4 N 1.0267(14) 0.3674(11) 0.9253(9)
H30 H 1.0545 0.3376 0.9559
H31 H 1.0823 0.3942 0.8972
N5 N 1.1142(13) 0.3362(14) 1.5120(8)
H32 H 1.0560 0.3594 1.5165
H33 H 1.1807 0.3912 1.5531
N6 N 1.1404(13) 0.1646(14) 1.3961(9)
H34 H 1.2105 0.1626 1.3889
H35 H 1.0805 0.1057 1.3518
N7 N 1.1992(17) 0.4828(14) 1.4196(10)
H36 H 1.2699 0.5318 1.4584
H37 H 1.1415 0.5014 1.4379
N8 N 1.2005(13) 0.3068(12) 1.2935(9)
H38 H 1.1340 0.2565 1.2512
H39 H 1.2543 0.2781 1.2882
N9 N 0.6299(12) -0.0261(13) 1.5496(8)
H40 H 0.6281 -0.0929 1.5147
H41 H 0.6180 -0.0328 1.5981
N10 N 0.6297(12) 0.1661(12) 1.5388(8)
H42 H 0.6012 0.2158 1.5654
H43 H 0.6526 0.1815 1.4947
Co1A Co 1.42360(15) 1.11501(15) 0.92510(10)
Co1A_2 Co 0.42360(15) 0.11501(15) 0.92510(10)
Co2A Co 1.38205(15) 0.96100(14) 1.03213(10)
Co2A_2 Co 0.38205(15) -0.03900(14) 1.03213(10)
Co2_2 Co 1.61795(15) 1.03900(14) 0.96787(10)
Co4A Co 0.84614(18) 0.68143(18) 0.59761(12)
Co5_2 Co 1.5000 1.0000 0.5000
Si1A Si 1.3624(3) 0.8347(3) 0.8309(2)
W1A W 1.29951(4) 0.65180(4) 0.94022(3)
W1A_2 W 0.29951(4) -0.34820(4) 0.94022(3)
W2A W 1.58181(4) 0.74325(4) 0.86567(3)
W2A_2 W 0.58181(4) -0.25675(4) 0.86567(3)
W3A W 1.12798(5) 0.52404(4) 0.74258(3)
W4A W 1.41233(5) 0.61975(4) 0.66637(3)
W5A W 1.17682(5) 0.70890(5) 0.62010(3)
W6A W 1.62599(5) 0.91059(5) 0.75536(3)
W6A_2 W 0.62599(5) -0.08941(5) 0.75536(3)
W7A W 1.39639(5) 0.99635(5) 0.70536(3)
W8A W 1.09244(4) 0.73323(4) 0.89665(3)
W9A W 1.14327(5) 0.91703(5) 0.77511(3)
O1A O 1.4330(8) 0.6538(7) 0.8890(5)
O2A O 1.0956(8) 0.6236(8) 0.5177(6)
O3A O 1.3994(8) 0.5040(8) 0.5790(6)
O4A O 1.4460(9) 1.0830(8) 0.6483(6)
O4A_2 O 0.4460(9) 0.0830(8) 1.6483(6)
O5A O 1.3094(8) 0.5744(7) 0.9995(5)
O6A O 1.1434(6) 0.6471(5) 0.9565(6)
O7A O 1.2407(8) 1.0267(8) 0.8733(5)
O8A O 1.2591(7) 0.7258(7) 0.8475(5)
O9A O 1.2935(7) 0.8560(7) 0.7593(5)
O10A O 1.5103(7) 0.6164(7) 0.7511(5)
O11A O 1.0245(8) 0.9523(9) 0.7688(6)
O12A O 1.6870(7) 0.8328(7) 0.8121(5)
O13A O 1.4286(7) 0.9544(7) 0.9156(5)
O13A_2 O 0.4286(7) -0.0456(7) 0.9156(5)
O13_2 O 1.5714(7) 1.0456(7) 1.0844(5)
O14A O 1.4600(8) 0.7942(7) 0.7921(5)
O15A O 0.9609(8) 0.7112(8) 0.9313(6)
O16A O 1.6741(8) 0.6952(8) 0.9022(6)
O17A O 1.0262(8) 0.3802(8) 0.6839(6)
O18A O 1.5483(7) 0.7452(7) 0.6611(5)
O19A O 1.4651(8) 1.0932(7) 0.8112(5)
O20A O 1.7512(8) 0.9721(8) 0.7180(6)
O21A O 1.2010(7) 0.8737(7) 0.9751(5)
O22A O 1.5114(8) 0.9361(8) 0.6959(5)
O23A O 1.2417(8) 1.0001(7) 0.7149(5)
O24A O 1.0742(8) 0.7962(8) 0.8174(6)
O25A O 0.3902(7) 0.1248(7) 1.0446(5)
O25A_2 O 1.3902(7) 1.1248(7) 1.0446(5)
O25_2 O 1.6098(7) 0.8752(7) 0.9554(5)
O26A O 0.3466(8) -0.0227(8) 1.1467(5)
O26A_2 O 1.3466(8) 0.9773(8) 1.1467(5)
O26_2 O 1.6534(8) 1.0227(8) 0.8533(5)
O27A O 1.0278(7) 0.5753(8) 0.8027(5)
O28A O 0.6069(7) 0.1956(7) 0.9879(5)
O28A_2 O 1.6069(7) 1.1956(7) 0.9879(5)
O28_2 O 1.3931(7) 0.8044(7) 1.0121(5)
O29A O 1.0697(2) 0.7744(7) 0.6589(5)
O30A O 1.2841(8) 0.8447(8) 0.6070(5)
O31A O 1.3082(8) 0.6653(8) 0.6206(5)
O32A O 1.1946(7) 0.5094(7) 0.8353(5)
O33A O 1.2735(8) 0.5380(8) 0.7044(5)
O34A O 1.1141(7) 0.6015(7) 0.6733(5)
C1A C 1.3952(16) 1.2865(14) 0.8533(9)
H1A H 1.3147 1.2226 0.8224
H2A H 1.4524 1.2745 0.8210
C2A C 1.3974(17) 1.3979(14) 0.8601(10)
H3A H 1.4794 1.4614 0.8873
H4A H 1.3443 1.4129 0.8953
C3A C 1.158(2) 0.671(2) 1.1627(14)
H5A H 1.2443 0.7246 1.1775
H6A H 1.1351 0.6604 1.2122
C4A C 1.089(2) 0.7240(17) 1.1332(16)
H7A H 1.0743 0.7745 1.1806
H8A H 1.1377 0.7723 1.1060
C5A C 0.929(2) 0.779(2) 0.4808(15)
H9A H 1.0172 0.8193 0.4977
H10A H 0.9058 0.7636 0.4226
C6A C 0.886(2) 0.854(2) 0.5275(16)
H11A H 0.8122 0.8403 0.4936
H12A H 0.9461 0.9351 0.5427
C7A C 0.788(2) 0.5033(18) 0.6569(12)
H13A H 0.8663 0.5200 0.6866
H14A H 0.7320 0.4215 0.6442
C8A C 0.7451(18) 0.5763(15) 0.7111(15)
H15A H 0.7680 0.5852 0.7679
H16A H 0.6571 0.5402 0.6943
C9A C 0.2509(16) -0.0766(19) 1.4358(13)
H17A H 0.2244 -0.0682 1.4873
H18A H 0.1900 -0.0814 1.3952
C10A C 0.2659(17) -0.1834(17) 1.4048(12)
H19A H 0.1929 -0.2506 1.4024
H20A H 0.2793 -0.1987 1.3491
N1A N 1.4248(11) 1.2783(10) 0.9330(7)
H23A H 1.4992 1.3381 0.9617
H24A H 1.3714 1.2891 0.9627
N2A N 1.3595(12) 1.3998(11) 0.7798(8)
H25A H 1.3632 1.4696 0.7882
H26A H 1.4087 1.3877 0.7474
H27A H 1.2834 1.3432 0.7550
N3A N 1.1328(13) 0.5555(14) 1.0977(9)
H28A H 1.1121 0.5015 1.1201
H29A H 1.2011 0.5620 1.0805
N4A N 0.9733(14) 0.6326(11) 1.0747(9)
H30A H 0.9455 0.6624 1.0441
H31A H 0.9177 0.6058 1.1028
N5A N 0.8858(13) 0.6638(14) 0.4880(8)
H32A H 0.9440 0.6406 0.4835
H33A H 0.8193 0.6088 0.4469
N6A N 0.8596(13) 0.8354(14) 0.6039(9)
H34A H 0.7895 0.8374 0.6111
H35A H 0.9195 0.8943 0.6482
N7A N 0.8008(17) 0.5172(14) 0.5804(10)
H36A H 0.7301 0.4682 0.5416
H37A H 0.8585 0.4986 0.5621
N8A N 0.7995(13) 0.6932(12) 0.7065(9)
H38A H 0.8660 0.7435 0.7488
H39A H 0.7457 0.7219 0.7118
N9A N 0.3701(12) 0.0261(13) 1.4504(8)
H40A H 0.3719 0.0929 1.4853
H41A H 0.3820 0.0328 1.4019
N10A N 0.3703(12) -0.1661(12) 1.4612(8)
H42A H 0.3988 -0.2158 1.4346
H43A H 0.3474 -0.1815 1.5053
O35 O 0.094(3) 0.218(3) 0.730(2)
O36 O 0.1499(14) 0.1975(14) 0.9304(10)
O40 O 0.436(4) 0.282(4) 0.649(3)
O42 O 0.471(2) 0.317(2) 0.5135(15)
C11 C 0.0503(17) 0.0423(17) 1.0386(11)
H21 H 0.1196 0.0931 1.0239
H22 H 0.0229 0.0917 1.0772
N11 N 0.0879(12) -0.0204(11) 1.0794(8)
H44 H 0.1466 0.0316 1.1252
H45 H 0.1154 -0.0640 1.0446
H46 H 0.0245 -0.0670 1.0929
C11A C -0.0503(17) -0.0423(17) 0.9614(11)
H21A H -0.1196 -0.0931 0.9761
H22A H -0.0229 -0.0917 0.9228
N11A N -0.0879(12) 0.0204(11) 0.9206(8)
H44A H -0.1466 -0.0316 0.8748
H45A H -0.1154 0.0640 0.9554
H46A H -0.0245 0.0670 0.9071
O37? O 0.420(2) 0.298(2) 0.5009(16)
O38? O 0.505(2) 0.316(2) 0.6748(15)
O39? O 0.191(5) 0.155(5) 0.661(3)
O41? O 0.169(4) 0.090(5) 0.619(3)
loop_
_geom_bond_atom_site_label_1
_geom_bond_atom_site_label_2
_geom_bond_site_symmetry_1
_geom_bond_site_symmetry_2
Co1 O7 1_555 1_555
Co2 O13 1_555 1_555
Co3 O6 1_555 1_555
Co4 O29 1_555 1_555
Co5 O4 1_555 1_555
Si1 O8 1_555 1_555
W1 O1 1_555 1_555
W2 O1 1_555 1_555
W3 O8 1_555 1_555
W4 O3 1_555 1_555
W5 O2 1_555 1_555
W6 O12 1_555 1_555
W7 O4 1_555 1_555
W8 O6 1_555 1_555
W9 O7 1_555 1_555
O5 W1 1_555 1_555
O6 W1 1_555 1_555
O8 W1 1_555 1_555
O9 Si1 1_555 1_555
O10 W2 1_555 1_555
O11 W9 1_555 1_555
O12 W2 1_555 1_555
O13 Co1 1_555 1_555
O14 Si1 1_555 1_555
O15 W8 1_555 1_555
O16 W2 1_555 1_555
O17 W3 1_555 1_555
O18 W4 1_555 1_555
O19 Co1 1_555 1_555
O20 W6 1_555 1_555
O21 Co2 1_555 1_555
O22 W6 1_555 1_555
O23 W7 1_555 1_555
O24 W8 1_555 1_555
O25 Co1 1_555 1_555
O26 Co2 1_555 1_555
O27 W3 1_555 1_555
O28 Co1 1_555 1_555
O29 W5 1_555 1_555
O30 W5 1_555 1_555
O31 W4 1_555 1_555
O32 W1 1_555 1_555
O33 W3 1_555 1_555
O34 W3 1_555 1_555
C1 H1 1_555 1_555
H2 C1 1_555 1_555
C2 C1 1_555 1_555
H3 C2 1_555 1_555
H4 C2 1_555 1_555
C3 H5 1_555 1_555
H6 C3 1_555 1_555
C4 C3 1_555 1_555
H7 C4 1_555 1_555
H8 C4 1_555 1_555
C5 H9 1_555 1_555
H10 C5 1_555 1_555
C6 C5 1_555 1_555
H11 C6 1_555 1_555
H12 C6 1_555 1_555
C7 H13 1_555 1_555
H14 C7 1_555 1_555
C8 C7 1_555 1_555
H15 C8 1_555 1_555
H16 C8 1_555 1_555
C9 H17 1_555 1_555
H18 C9 1_555 1_555
C10 C9 1_555 1_555
H19 C10 1_555 1_555
H20 C10 1_555 1_555
C11 H21 1_555 1_555
H22 C11 1_555 1_555
N1 Co1 1_555 1_555
H23 N1 1_555 1_555
H24 N1 1_555 1_555
N2 C2 1_555 1_555
H25 N2 1_555 1_555
H26 N2 1_555 1_555
H27 N2 1_555 1_555
N3 Co3 1_555 1_555
H28 N3 1_555 1_555
H29 N3 1_555 1_555
N4 Co3 1_555 1_555
H30 N4 1_555 1_555
H31 N4 1_555 1_555
N5 Co4 1_555 1_555
H32 N5 1_555 1_555
H33 N5 1_555 1_555
N6 Co4 1_555 1_555
H34 N6 1_555 1_555
H35 N6 1_555 1_555
N7 Co4 1_555 1_555
H36 N7 1_555 1_555
H37 N7 1_555 1_555
N8 Co4 1_555 1_555
H38 N8 1_555 1_555
H39 N8 1_555 1_555
N9 Co5 1_555 1_555
H40 N9 1_555 1_555
H41 N9 1_555 1_555
N10 Co5 1_555 1_555
H42 N10 1_555 1_555
H43 N10 1_555 1_555
N11 C11 1_555 1_555
H44 N11 1_555 1_555
H45 N11 1_555 1_555
H46 N11 1_555 1_555
Co1A O7A 1_555 1_555
Co1A_2 O13A_2 1_555 1_555
Co2A O13A 1_555 1_555
Co2A_2 O13 1_555 1_555
Co2_2 O13A 1_555 1_555
Co4A O29A 1_555 1_555
Co5_2 O4A 1_555 1_555
Si1A O8A 1_555 1_555
W1A O1A 1_555 1_555
W1A_2 O28 1_555 1_555
W2A O1A 1_555 1_555
W2A_2 O25 1_555 1_555
W3A O8A 1_555 1_555
W4A O3A 1_555 1_555
W5A O2A 1_555 1_555
W6A O12A 1_555 1_555
W6A_2 O26 1_555 1_555
W7A O4A 1_555 1_555
W8A O6A 1_555 1_555
W9A O7A 1_555 1_555
O4A_2 Co5 1_555 1_555
O5A W1A 1_555 1_555
O6A Co3 1_555 1_555
O8A W1A 1_555 1_555
O9A Si1A 1_555 1_555
O10A W2A 1_555 1_555
O11A W9A 1_555 1_555
O12A W2A 1_555 1_555
O13A Co1A 1_555 1_555
O13A_2 Co2 1_555 1_555
O13_2 Co2A 1_555 1_555
O14A Si1A 1_555 1_555
O15A W8A 1_555 1_555
O16A W2A 1_555 1_555
O17A W3A 1_555 1_555
O18A W4A 1_555 1_555
O19A Co1A 1_555 1_555
O20A W6A 1_555 1_555
O21A Co2A 1_555 1_555
O22A W6A 1_555 1_555
O23A W7A 1_555 1_555
O24A W8A 1_555 1_555
O25A W2 1_555 1_555
O25A_2 Co1A 1_555 1_555
O25_2 Co2_2 1_555 1_555
O26A W6 1_555 1_555
O26A_2 Co2A 1_555 1_555
O26_2 Co2_2 1_555 1_555
O27A W3A 1_555 1_555
O28A Co2 1_555 1_555
O28A_2 Co1A 1_555 1_555
O28_2 Co2A 1_555 1_555
O29A W5A 1_555 1_555
O30A W5A 1_555 1_555
O31A W4A 1_555 1_555
O32A W1A 1_555 1_555
O33A W3A 1_555 1_555
O34A W3A 1_555 1_555
C1A H1A 1_555 1_555
H2A C1A 1_555 1_555
C2A C1A 1_555 1_555
H3A C2A 1_555 1_555
H4A C2A 1_555 1_555
C3A H5A 1_555 1_555
H6A C3A 1_555 1_555
C4A C3A 1_555 1_555
H7A C4A 1_555 1_555
H8A C4A 1_555 1_555
C5A H9A 1_555 1_555
H10A C5A 1_555 1_555
C6A C5A 1_555 1_555
H11A C6A 1_555 1_555
H12A C6A 1_555 1_555
C7A H13A 1_555 1_555
H14A C7A 1_555 1_555
C8A C7A 1_555 1_555
H15A C8A 1_555 1_555
H16A C8A 1_555 1_555
C9A H17A 1_555 1_555
H18A C9A 1_555 1_555
C10A C9A 1_555 1_555
H19A C10A 1_555 1_555
H20A C10A 1_555 1_555
C11A C11 1_555 1_555
H21A C11A 1_555 1_555
H22A C11A 1_555 1_555
N1A Co1A 1_555 1_555
H23A N1A 1_555 1_555
H24A N1A 1_555 1_555
N2A C2A 1_555 1_555
H25A N2A 1_555 1_555
H26A N2A 1_555 1_555
H27A N2A 1_555 1_555
N3A Co3 1_555 1_555
H28A N3A 1_555 1_555
H29A N3A 1_555 1_555
N4A Co3 1_555 1_555
H30A N4A 1_555 1_555
H31A N4A 1_555 1_555
N5A Co4A 1_555 1_555
H32A N5A 1_555 1_555
H33A N5A 1_555 1_555
N6A Co4A 1_555 1_555
H34A N6A 1_555 1_555
H35A N6A 1_555 1_555
N7A Co4A 1_555 1_555
H36A N7A 1_555 1_555
H37A N7A 1_555 1_555
N8A Co4A 1_555 1_555
H38A N8A 1_555 1_555
H39A N8A 1_555 1_555
N9A Co5 1_555 1_555
H40A N9A 1_555 1_555
H41A N9A 1_555 1_555
N10A Co5 1_555 1_555
H42A N10A 1_555 1_555
H43A N10A 1_555 1_555
N11A C11A 1_555 1_555
H44A N11A 1_555 1_555
H45A N11A 1_555 1_555
H46A N11A 1_555 1_555
Co2 O25 1_555 1_555
Si1 O13 1_555 1_555
W1 O28A 1_555 1_555
W2 O14 1_555 1_555
W3 O32 1_555 1_555
W4 O10 1_555 1_555
W4 O14 1_555 1_555
W4 O33 1_555 1_555
W5 O9 1_555 1_555
W5 O31 1_555 1_555
W5 O34 1_555 1_555
W6 O14 1_555 1_555
W6 O18 1_555 1_555
W7 O9 1_555 1_555
W7 O19 1_555 1_555
W7 O22 1_555 1_555
W7 O30 1_555 1_555
W8 O8 1_555 1_555
W8 O21 1_555 1_555
W8 O27 1_555 1_555
W9 O9 1_555 1_555
W9 O23 1_555 1_555
W9 O24 1_555 1_555
W9 O29 1_555 1_555
O28 Co2A_2 1_555 1_555
C1 N1 1_555 1_555
C3 N3 1_555 1_555
C4 N4 1_555 1_555
C5 N5 1_555 1_555
C6 N6 1_555 1_555
C7 N7 1_555 1_555
C8 N8 1_555 1_555
C9 N9 1_555 1_555
C10 N10 1_555 1_555
Co1A_2 O25A 1_555 1_555
Co1A_2 O28A 1_555 1_555
Co2A O25A_2 1_555 1_555
Co2A_2 O13A_2 1_555 1_555
Co2A_2 O25A 1_555 1_555
Co2A_2 O26A 1_555 1_555
Co2_2 O13_2 1_555 1_555
Co2_2 O28A_2 1_555 1_555
Si1A O13A 1_555 1_555
W1A O6A 1_555 1_555
W1A O28_2 1_555 1_555
W2A O14A 1_555 1_555
W2A O25_2 1_555 1_555
W3A O32A 1_555 1_555
W4A O10A 1_555 1_555
W4A O14A 1_555 1_555
W4A O33A 1_555 1_555
W5A O9A 1_555 1_555
W5A O31A 1_555 1_555
W5A O34A 1_555 1_555
W6A O14A 1_555 1_555
W6A O18A 1_555 1_555
W6A O26_2 1_555 1_555
W7A O9A 1_555 1_555
W7A O19A 1_555 1_555
W7A O22A 1_555 1_555
W7A O30A 1_555 1_555
W8A O8A 1_555 1_555
W8A O21A 1_555 1_555
W8A O27A 1_555 1_555
W9A O9A 1_555 1_555
W9A O23A 1_555 1_555
W9A O24A 1_555 1_555
W9A O29A 1_555 1_555
C1A N1A 1_555 1_555
C3A N3A 1_555 1_555
C4A N4A 1_555 1_555
C5A N5A 1_555 1_555
C6A N6A 1_555 1_555
C7A N7A 1_555 1_555
C8A N8A 1_555 1_555
C9A N9A 1_555 1_555
C10A N10A 1_555 1_555

#END
