
#######################################################################
#
#                 Cambridge Crystallographic Data Centre
#                                CCDC 
#
#######################################################################
#
# If this CIF has been generated from an entry in the Cambridge 
# Structural Database, then it will include bibliographic, chemical, 
# crystal, experimental, refinement or atomic coordinate data resulting 
# from the CCDC's data processing and validation procedures.
#
#######################################################################

data_MOMSUE
_symmetry_cell_setting           monoclinic
_symmetry_space_group_name_H-M   'C 2/c'
_symmetry_Int_Tables_number      15
_space_group_name_Hall           '-C 2yn'
loop_
_symmetry_equiv_pos_site_id
_symmetry_equiv_pos_as_xyz
1 x,y,z
2 -x,y,1/2-z
3 1/2+x,1/2+y,z
4 1/2-x,1/2+y,1/2-z
5 -x,-y,-z
6 x,-y,1/2+z
7 1/2-x,1/2-y,-z
8 1/2+x,1/2-y,1/2+z
_cell_length_a                   41.545(11)
_cell_length_b                   16.537(4)
_cell_length_c                   27.950(7)
_cell_angle_alpha                90
_cell_angle_beta                 106.346(3)
_cell_angle_gamma                90
_cell_volume                     18426.3
loop_
_atom_site_label
_atom_site_type_symbol
_atom_site_fract_x
_atom_site_fract_y
_atom_site_fract_z
Ge1 Ge 0.15222(2) 0.84610(6) 0.49687(4)
Ge2 Ge 0.22011(2) 0.77055(6) 0.49142(4)
Ge3 Ge 0.10226(2) 0.91173(6) 0.51090(4)
Ge4 Ge 0.02912(2) 0.97517(6) 0.50503(4)
Ge5 Ge 0.19736(3) 0.78671(7) 0.39497(4)
Ge6 Ge 0.12509(2) 0.71288(7) 0.45065(5)
Ge7 Ge 0.18442(3) 0.64774(6) 0.44653(4)
Ge8 Ge 0.05906(3) 0.84819(7) 0.54899(5)
Ge9 Ge 0.19459(3) 0.90679(6) 0.45696(5)
Ge10 Ge 0.17675(3) 0.70989(7) 0.53000(4)
Ge11 Ge 0.11318(3) 0.91618(8) 0.60721(4)
Ge12 Ge 0.07273(3) 1.03802(8) 0.46735(5)
Ge13 Ge 0.12302(2) 1.05194(7) 0.54863(5)
Ge14 Ge 0.05089(3) 0.97167(8) 0.60267(5)
Ge15 Ge 0.06009(3) 1.10633(7) 0.54458(5)
Ge16 Ge 0.13809(3) 0.85337(7) 0.39900(4)
Ge17 Ge 0.14204(3) 0.70675(9) 0.36817(4)
Ge18 Ge 0.10251(3) 1.06457(9) 0.62723(5)
K1 K 0.04965(13) 0.8476(4) 0.3983(2)
K2 K 0.19179(5) 1.03118(15) 0.66548(9)
O1 O 0.1825(2) 0.9506(6) 0.7518(3)
O2 O 0.1862(2) 1.1185(6) 0.7523(3)
O3 O 0.2037(3) 1.2025(6) 0.6736(4)
O4 O 0.2359(3) 1.1201(7) 0.6149(4)
O5 O 0.2312(2) 0.9524(7) 0.6164(4)
O6 O 0.2195(2) 0.8676(5) 0.6957(4)
N1 N -0.0191(6) 0.885(2) 0.3139(13)
N2 N -0.0606(8) 0.806(6) 0.209(2)
C1 C 0.1780(4) 1.0010(10) 0.7925(5)
C2 C 0.1636(3) 1.0815(10) 0.7717(5)
C3 C 0.1759(4) 1.2031(8) 0.7408(6)
C4 C 0.2012(5) 1.2436(10) 0.7172(6)
C5 C 0.2239(5) 1.2442(11) 0.6487(7)
C6 C 0.2213(6) 1.1989(11) 0.6011(8)
C7 C 0.2322(5) 1.0712(13) 0.5730(6)
C8 C 0.2512(4) 0.9894(11) 0.5903(6)
C9 C 0.2415(4) 0.8701(10) 0.6264(6)
C10 C 0.2177(4) 0.8284(8) 0.6512(6)
C11 C 0.1993(5) 0.8288(9) 0.7197(7)
C12 C 0.1975(4) 0.8774(10) 0.7673(6)
C13 C -0.0462(18) 0.814(3) 0.288(4)
C14 C -0.0654(12) 0.848(3) 0.2612(14)
Ge2F Ge 0.27989(2) 0.72945(6) 0.50858(4)
Ge4D Ge -0.02912(2) 1.02483(6) 0.49497(4)
K1A K -0.04965(13) 0.8476(4) 0.1017(2)
N2A N 0.0606(8) 0.806(6) 0.291(2)
K3 K 0.16184(8) 0.46542(19) 0.63331(11)
O7 O 0.1328(3) 0.3820(6) 0.7002(5)
O8 O 0.1836(3) 0.4958(6) 0.7399(3)
O9 O 0.2262(2) 0.5314(6) 0.6802(4)
O10 O 0.2071(3) 0.4933(7) 0.5823(4)
O11 O 0.1631(5) 0.3693(9) 0.5459(7)
O12 O 0.1113(3) 0.3503(9) 0.5974(7)
N3 N 0.1067(12) 0.578(2) 0.5624(13)
N4 N 0.1329(9) 0.645(3) 0.6242(17)
C15 C 0.1334(5) 0.4202(12) 0.7433(8)
C16 C 0.1704(5) 0.4403(8) 0.7696(6)
C17 C 0.2157(4) 0.5136(10) 0.7622(6)
C18 C 0.2263(4) 0.5718(9) 0.7272(6)
C19 C 0.2328(4) 0.5804(11) 0.6437(7)
C20 C 0.2367(4) 0.5330(11) 0.6023(6)
C21 C 0.2085(8) 0.4454(19) 0.5489(12)
C22 C 0.1300(9) 0.349(2) 0.5226(11)
C23 C 0.1175(9) 0.2940(13) 0.5533(10)
C24 C 0.1015(5) 0.3069(13) 0.6325(10)
C25 C 0.1003(5) 0.3546(15) 0.6766(11)
C26 C 0.0770(17) 0.596(3) 0.580(5)
C27 C 0.096(2) 0.635(3) 0.628(2)
C28 C 0.1798(11) 0.4256(16) 0.5161(9)
K4 K 0.08183(12) 0.2732(3) 0.34356(18)
O13 O 0.0369(3) 0.3333(9) 0.3980(5)
O14 O 0.0946(4) 0.4179(7) 0.3971(5)
O15 O 0.1276(3) 0.3834(8) 0.3234(5)
O16 O 0.1162(3) 0.2301(7) 0.2752(4)
O17 O 0.0591(3) 0.1414(7) 0.2808(4)
O18 O 0.0329(3) 0.1777(7) 0.3564(4)
N5 N 0.1235(8) 0.168(2) 0.4135(10)
N6 N 0.1861(16) 0.141(2) 0.4075(15)
C29 C 0.0543(10) 0.3870(18) 0.4385(15)
C30 C 0.0671(7) 0.4544(15) 0.4110(11)
C31 C 0.1128(7) 0.4774(12) 0.3796(9)
C32 C 0.1428(5) 0.4295(13) 0.3691(8)
C33 C 0.1510(5) 0.3436(12) 0.3043(8)
C34 C 0.1333(6) 0.2975(13) 0.2597(8)
C35 C 0.0957(5) 0.1828(15) 0.2314(7)
C36 C 0.0839(5) 0.1105(13) 0.2565(9)
C37 C 0.0483(5) 0.0767(10) 0.3093(7)
C38 C 0.0202(6) 0.1143(13) 0.3240(8)
C39 C 0.0091(5) 0.2104(13) 0.3798(10)
C40 C 0.0257(6) 0.2653(14) 0.4189(10)
C41 C 0.1571(19) 0.133(3) 0.438(3)
C42 C 0.1954(12) 0.188(3) 0.4478(16)
loop_
_geom_bond_atom_site_label_1
_geom_bond_atom_site_label_2
_geom_bond_site_symmetry_1
_geom_bond_site_symmetry_2
Ge1 Ge3 1_555 1_555
Ge2 Ge5 1_555 1_555
Ge3 Ge8 1_555 1_555
Ge4 Ge8 1_555 1_555
Ge5 Ge9 1_555 1_555
Ge6 Ge1 1_555 1_555
Ge7 Ge2 1_555 1_555
Ge8 Ge11 1_555 1_555
Ge9 Ge1 1_555 1_555
Ge10 Ge1 1_555 1_555
Ge11 Ge3 1_555 1_555
Ge12 Ge3 1_555 1_555
Ge13 Ge3 1_555 1_555
Ge14 Ge4 1_555 1_555
Ge15 Ge4 1_555 1_555
Ge16 Ge1 1_555 1_555
Ge17 Ge5 1_555 1_555
Ge18 Ge11 1_555 1_555
K1 Ge3 1_555 1_555
K2 Ge11 1_555 1_555
O1 K2 1_555 1_555
O2 K2 1_555 1_555
O3 K2 1_555 1_555
O4 K2 1_555 1_555
O5 K2 1_555 1_555
O6 K2 1_555 1_555
N1 K1 1_555 1_555
N2 C14 1_555 1_555
C1 O1 1_555 1_555
C2 O2 1_555 1_555
C3 O2 1_555 1_555
C4 O3 1_555 1_555
C5 O3 1_555 1_555
C6 O4 1_555 1_555
C7 O4 1_555 1_555
C8 O5 1_555 1_555
C9 O5 1_555 1_555
C10 O6 1_555 1_555
C11 O6 1_555 1_555
C12 O1 1_555 1_555
C13 N1 1_555 1_555
C14 C13 1_555 1_555
K3 O7 1_555 1_555
O7 C15 1_555 1_555
O8 K3 1_555 1_555
O9 K3 1_555 1_555
O10 K3 1_555 1_555
O11 K3 1_555 1_555
O12 K3 1_555 1_555
N3 K3 1_555 1_555
N4 K3 1_555 1_555
C15 C16 1_555 1_555
C16 O8 1_555 1_555
C17 O8 1_555 1_555
C18 O9 1_555 1_555
C19 O9 1_555 1_555
C20 O10 1_555 1_555
C21 O10 1_555 1_555
C22 O11 1_555 1_555
C23 O12 1_555 1_555
C24 O12 1_555 1_555
C25 O7 1_555 1_555
C26 N3 1_555 1_555
C27 N4 1_555 1_555
C28 O11 1_555 1_555
K4 O13 1_555 1_555
O13 C29 1_555 1_555
O14 K4 1_555 1_555
O15 K4 1_555 1_555
O16 K4 1_555 1_555
O17 K4 1_555 1_555
O18 K4 1_555 1_555
N5 K4 1_555 1_555
N6 C42 1_555 1_555
C29 C30 1_555 1_555
C30 O14 1_555 1_555
C31 O14 1_555 1_555
C32 O15 1_555 1_555
C33 O15 1_555 1_555
C34 O16 1_555 1_555
C35 O16 1_555 1_555
C36 O17 1_555 1_555
C37 O17 1_555 1_555
C38 O18 1_555 1_555
C39 O18 1_555 1_555
C40 O13 1_555 1_555
C41 N5 1_555 1_555
C42 C41 1_555 1_555
Ge2F Ge2 1_555 1_555
Ge4D Ge4 1_555 1_555
K1A N2 1_555 1_555
N2A K1 1_555 1_555
Ge2 Ge9 1_555 1_555
Ge2 Ge10 1_555 1_555
Ge4 Ge12 1_555 1_555
Ge5 Ge16 1_555 1_555
Ge6 Ge7 1_555 1_555
Ge6 Ge10 1_555 1_555
Ge6 Ge17 1_555 1_555
Ge7 Ge10 1_555 1_555
Ge7 Ge17 1_555 1_555
Ge8 Ge14 1_555 1_555
Ge9 Ge16 1_555 1_555
Ge11 Ge14 1_555 1_555
Ge12 Ge13 1_555 1_555
Ge12 Ge15 1_555 1_555
Ge12 K1 1_555 1_555
Ge13 Ge15 1_555 1_555
Ge13 Ge18 1_555 1_555
Ge13 K2 1_555 1_555
Ge14 Ge18 1_555 1_555
Ge15 Ge18 1_555 1_555
Ge16 Ge17 1_555 1_555
Ge16 K1 1_555 1_555
Ge18 K2 1_555 1_555
C1 C2 1_555 1_555
C3 C4 1_555 1_555
C5 C6 1_555 1_555
C7 C8 1_555 1_555
C9 C10 1_555 1_555
C11 C12 1_555 1_555
C17 C18 1_555 1_555
C19 C20 1_555 1_555
C21 C28 1_555 1_555
C22 C23 1_555 1_555
C24 C25 1_555 1_555
C26 C27 1_555 1_555
C31 C32 1_555 1_555
C33 C34 1_555 1_555
C35 C36 1_555 1_555
C37 C38 1_555 1_555
C39 C40 1_555 1_555

#END
