
#######################################################################
#
#                 Cambridge Crystallographic Data Centre
#                                CCDC 
#
#######################################################################
#
# If this CIF has been generated from an entry in the Cambridge 
# Structural Database, then it will include bibliographic, chemical, 
# crystal, experimental, refinement or atomic coordinate data resulting 
# from the CCDC's data processing and validation procedures.
#
#######################################################################

data_MOMTAL
_symmetry_cell_setting           monoclinic
_symmetry_space_group_name_H-M   'P 21/c'
_symmetry_Int_Tables_number      14
_space_group_name_Hall           '-P 2ybc'
loop_
_symmetry_equiv_pos_site_id
_symmetry_equiv_pos_as_xyz
1 x,y,z
2 -x,1/2+y,1/2-z
3 -x,-y,-z
4 x,1/2-y,1/2+z
_cell_length_a                   8.090(9)
_cell_length_b                   16.109(17)
_cell_length_c                   8.590(9)
_cell_angle_alpha                90
_cell_angle_beta                 117.800(12)
_cell_angle_gamma                90
_cell_volume                     990.257
loop_
_atom_site_label
_atom_site_type_symbol
_atom_site_fract_x
_atom_site_fract_y
_atom_site_fract_z
Co1 Co 0.0000 0.5000 0.0000
N1 N 0.2608(3) 0.45406(13) 0.2113(3)
N2 N 0.5428(3) 0.40307(14) 0.3724(3)
N3 N 0.9039(3) 0.12963(13) 0.4628(3)
N4 N 0.1069(4) 0.48751(16) -0.1829(3)
N5 N 0.1996(3) 0.44059(16) -0.2004(3)
N6 N 0.2975(5) 0.3925(2) -0.2208(5)
C1 C 0.2759(4) 0.42571(17) 0.3682(4)
H1 H 0.1810 0.4283 0.4003
C2 C 0.4458(4) 0.39388(19) 0.4683(4)
H2 H 0.4898 0.3704 0.5795
C3 C 0.4231(4) 0.43930(16) 0.2177(4)
H3 H 0.4525 0.4520 0.1279
C4 C 0.7381(4) 0.38501(17) 0.4300(5)
H4 H 0.8110 0.4086 0.5464
H5 H 0.7757 0.4127 0.3513
C5 C 0.7868(4) 0.29378(17) 0.4374(4)
C6 C 0.9610(4) 0.27323(18) 0.4591(5)
H6 H 1.0439 0.3151 0.4673
C7 C 1.0140(4) 0.19232(18) 0.4689(5)
H7 H 1.1316 0.1804 0.4802
C8 C 0.7366(4) 0.15010(17) 0.4422(4)
H8 H 0.6581 0.1073 0.4394
C9 C 0.6699(4) 0.23012(17) 0.4247(4)
H9 H 0.5485 0.2405 0.4049
N1B N -0.2608(3) 0.54594(13) -0.2113(3)
N2B N -0.5428(3) 0.59693(14) -0.3724(3)
N3B N -0.9039(3) 0.87037(13) -0.4628(3)
N4B N -0.1069(4) 0.51249(16) 0.1829(3)
N5B N -0.1996(3) 0.55941(16) 0.2004(3)
N6B N -0.2975(5) 0.6075(2) 0.2208(5)
C1B C -0.2759(4) 0.57429(17) -0.3682(4)
H1B H -0.1810 0.5717 -0.4003
C2B C -0.4458(4) 0.60612(19) -0.4683(4)
H2B H -0.4898 0.6296 -0.5795
C3B C -0.4231(4) 0.56070(16) -0.2177(4)
H3B H -0.4525 0.5480 -0.1279
C4B C -0.7381(4) 0.61499(17) -0.4300(5)
H4B H -0.8110 0.5914 -0.5464
H5B H -0.7757 0.5873 -0.3513
C5B C -0.7868(4) 0.70622(17) -0.4374(4)
C6B C -0.9610(4) 0.72677(18) -0.4591(5)
H6B H -1.0439 0.6849 -0.4673
C7B C -1.0140(4) 0.80768(18) -0.4689(5)
H7B H -1.1316 0.8196 -0.4802
C8B C -0.7366(4) 0.84990(17) -0.4422(4)
H8B H -0.6581 0.8927 -0.4394
C9B C -0.6699(4) 0.76988(17) -0.4247(4)
H9B H -0.5485 0.7595 -0.4049
Co1A Co -1.0000 1.0000 -0.5000
Co1A_2 Co 1.0000 0.0000 0.5000
N3A N 0.0961(3) 0.62963(13) 0.0372(3)
N3C N -0.0961(3) 0.37037(13) -0.0372(3)
loop_
_geom_bond_atom_site_label_1
_geom_bond_atom_site_label_2
_geom_bond_site_symmetry_1
_geom_bond_site_symmetry_2
Co1 N1 1_555 1_555
N1 C1 1_555 1_555
N2 C2 1_555 1_555
N3 C7 1_555 1_555
N4 Co1 1_555 1_555
N5 N4 1_555 1_555
N6 N5 1_555 1_555
C1 H1 1_555 1_555
C2 C1 1_555 1_555
H2 C2 1_555 1_555
C3 N1 1_555 1_555
H3 C3 1_555 1_555
C4 N2 1_555 1_555
H4 C4 1_555 1_555
H5 C4 1_555 1_555
C5 C4 1_555 1_555
C6 C5 1_555 1_555
H6 C6 1_555 1_555
C7 C6 1_555 1_555
H7 C7 1_555 1_555
C8 N3 1_555 1_555
H8 C8 1_555 1_555
C9 C5 1_555 1_555
H9 C9 1_555 1_555
N1B Co1 1_555 1_555
N2B C2B 1_555 1_555
N3B C7B 1_555 1_555
N4B Co1 1_555 1_555
N5B N4B 1_555 1_555
N6B N5B 1_555 1_555
C1B N1B 1_555 1_555
H1B C1B 1_555 1_555
C2B C1B 1_555 1_555
H2B C2B 1_555 1_555
C3B N1B 1_555 1_555
H3B C3B 1_555 1_555
C4B N2B 1_555 1_555
H4B C4B 1_555 1_555
H5B C4B 1_555 1_555
C5B C4B 1_555 1_555
C6B C5B 1_555 1_555
H6B C6B 1_555 1_555
C7B C6B 1_555 1_555
H7B C7B 1_555 1_555
C8B N3B 1_555 1_555
H8B C8B 1_555 1_555
C9B C5B 1_555 1_555
H9B C9B 1_555 1_555
Co1A N3B 1_555 1_555
Co1A_2 N3 1_555 1_555
N3A Co1 1_555 1_555
N3C Co1 1_555 1_555
N2 C3 1_555 1_555
C8 C9 1_555 1_555
N2B C3B 1_555 1_555
C8B C9B 1_555 1_555

#END
