
#######################################################################
#
#                 Cambridge Crystallographic Data Centre
#                                CCDC 
#
#######################################################################
#
# If this CIF has been generated from an entry in the Cambridge 
# Structural Database, then it will include bibliographic, chemical, 
# crystal, experimental, refinement or atomic coordinate data resulting 
# from the CCDC's data processing and validation procedures.
#
#######################################################################

data_MOMYEU
_symmetry_cell_setting           triclinic
_symmetry_space_group_name_H-M   'P -1'
_symmetry_Int_Tables_number      2
_space_group_name_Hall           '-P 1'
loop_
_symmetry_equiv_pos_site_id
_symmetry_equiv_pos_as_xyz
1 x,y,z
2 -x,-y,-z
_cell_length_a                   8.6065(3)
_cell_length_b                   9.5595(5)
_cell_length_c                   9.5987(5)
_cell_angle_alpha                77.884(4)
_cell_angle_beta                 82.744(4)
_cell_angle_gamma                87.356(4)
_cell_volume                     765.79
loop_
_atom_site_label
_atom_site_type_symbol
_atom_site_fract_x
_atom_site_fract_y
_atom_site_fract_z
Co1 Co 0.34974(4) 0.09000(4) 0.23608(4)
Co2 Co 0.5000 0.5000 0.5000
Co3 Co 0.0000 0.5000 0.0000
S1 S 0.02013(7) 0.26796(7) 0.33143(7)
O1 O 0.1219(2) 0.1821(2) 0.2451(2)
O2 O -0.0350(2) 0.3958(2) 0.2366(2)
O3 O -0.1138(3) 0.1808(2) 0.4028(2)
O4 O 0.1048(2) 0.3092(2) 0.4396(2)
O5 O 0.5263(2) 0.4581(2) 0.29341(19)
O6 O 0.4576(2) 0.2897(2) 0.18403(19)
O7 O 0.4632(2) 0.27884(19) 0.54952(19)
O8 O 0.3956(2) 0.11277(19) 0.43728(19)
O9 O 0.5633(2) -0.0135(2) 0.16782(18)
O10 O 0.6801(2) -0.0879(2) -0.02615(19)
O11 O 0.2798(2) -0.11984(19) 0.32748(19)
H1 H 0.2192 -0.1339 0.4054
H2 H 0.3611 -0.1708 0.3449
O12 O 0.2588(2) 0.5340(2) 0.4949(2)
H3 H 0.2087 0.5580 0.5676
H4 H 0.2042 0.4722 0.4732
N1 N 0.0116(2) 0.7117(2) 0.0435(2)
H5 H -0.0354 0.7728 -0.0256
N2 N -0.1661(2) 0.9153(2) 0.3240(2)
H6 H -0.1639 1.0069 0.3297
H7 H -0.1328 0.8607 0.4020
H8 H -0.2637 0.8925 0.3177
N3 N 0.2427(3) 0.4981(3) 0.0038(2)
H9 H 0.2755 0.4129 0.0520
H10 H 0.2927 0.5139 -0.0861
C1 C 0.4785(3) 0.3364(3) 0.2929(3)
C2 C 0.4428(3) 0.2329(3) 0.4387(3)
C3 C 0.5701(3) -0.0296(3) 0.0416(3)
C4 C 0.2749(3) 0.6134(3) 0.0766(3)
H11 H 0.3857 0.6341 0.0599
H12 H 0.2452 0.5841 0.1793
C5 C 0.1812(3) 0.7442(3) 0.0172(3)
H13 H 0.2010 0.8219 0.0630
H14 H 0.2126 0.7741 -0.0850
C6 C -0.0647(3) 0.7360(3) 0.1827(3)
H15 H -0.0118 0.6779 0.2589
H16 H -0.1724 0.7055 0.1959
C7 C -0.0628(3) 0.8918(3) 0.1951(3)
H17 H 0.0433 0.9178 0.2012
H18 H -0.0981 0.9523 0.1101
O9A O 0.4367(2) 0.0135(2) -0.16782(18)
O10A O 0.3199(2) 0.0879(2) 0.02615(19)
C3A C 0.4299(3) 0.0296(3) -0.0416(3)
Co1A Co -0.34974(4) 0.91000(4) -0.23608(4)
S1A S -0.02013(7) 0.73204(7) -0.33143(7)
O1A O -0.1219(2) 0.8179(2) -0.2451(2)
O2A O 0.0350(2) 0.6042(2) -0.2366(2)
O3A O 0.1138(3) 0.8192(2) -0.4028(2)
O4A O -0.1048(2) 0.6908(2) -0.4396(2)
O5A O -0.5263(2) 0.5419(2) -0.29341(19)
O6A O -0.4576(2) 0.7103(2) -0.18403(19)
O7A O -0.4632(2) 0.72116(19) -0.54952(19)
O8A O -0.3956(2) 0.88723(19) -0.43728(19)
O11A O -0.2798(2) 1.11984(19) -0.32748(19)
H1A H -0.2192 1.1339 -0.4054
H2A H -0.3611 1.1708 -0.3449
N1A N -0.0116(2) 0.2883(2) -0.0435(2)
H5A H 0.0354 0.2272 0.0256
N2A N 0.1661(2) 0.0847(2) -0.3240(2)
H6A H 0.1639 -0.0069 -0.3297
H7A H 0.1328 0.1393 -0.4020
H8A H 0.2637 0.1075 -0.3177
N3A N -0.2427(3) 0.5019(3) -0.0038(2)
H9A H -0.2755 0.5871 -0.0520
H10A H -0.2927 0.4861 0.0861
C1A C -0.4785(3) 0.6636(3) -0.2929(3)
C2A C -0.4428(3) 0.7671(3) -0.4387(3)
C4A C -0.2749(3) 0.3866(3) -0.0766(3)
H11A H -0.3857 0.3659 -0.0599
H12A H -0.2452 0.4159 -0.1793
C5A C -0.1812(3) 0.2558(3) -0.0172(3)
H13A H -0.2010 0.1781 -0.0630
H14A H -0.2126 0.2259 0.0850
C6A C 0.0647(3) 0.2640(3) -0.1827(3)
H15A H 0.0118 0.3221 -0.2589
H16A H 0.1724 0.2945 -0.1959
C7A C 0.0628(3) 0.1082(3) -0.1951(3)
H17A H -0.0433 0.0822 -0.2012
H18A H 0.0981 0.0477 -0.1101
O12A O 0.7412(2) 0.4660(2) 0.5051(2)
H3A H 0.7913 0.4420 0.4324
H4A H 0.7958 0.5278 0.5268
Co1A_2 Co 0.65026(4) -0.09000(4) -0.23608(4)
Co2_2 Co -0.5000 0.5000 -0.5000
O5A_2 O 0.4737(2) 0.5419(2) 0.70659(19)
O7A_2 O 0.5368(2) 0.72116(19) 0.45048(19)
O9A_2 O -0.5633(2) 1.0135(2) -0.16782(18)
O10_2 O -0.3199(2) 0.9121(2) -0.02615(19)
loop_
_geom_bond_atom_site_label_1
_geom_bond_atom_site_label_2
_geom_bond_site_symmetry_1
_geom_bond_site_symmetry_2
Co1 O1 1_555 1_555
Co2 O5 1_555 1_555
Co3 O2 1_555 1_555
S1 O1 1_555 1_555
O2 S1 1_555 1_555
O3 S1 1_555 1_555
O4 S1 1_555 1_555
O5 C1 1_555 1_555
O6 Co1 1_555 1_555
O7 Co2 1_555 1_555
O8 Co1 1_555 1_555
O9 Co1 1_555 1_555
O10 C3 1_555 1_555
O11 Co1 1_555 1_555
H1 O11 1_555 1_555
H2 O11 1_555 1_555
O12 Co2 1_555 1_555
H3 O12 1_555 1_555
H4 O12 1_555 1_555
N1 Co3 1_555 1_555
H5 N1 1_555 1_555
N2 H6 1_555 1_555
H7 N2 1_555 1_555
H8 N2 1_555 1_555
N3 Co3 1_555 1_555
H9 N3 1_555 1_555
H10 N3 1_555 1_555
C1 O6 1_555 1_555
C2 O7 1_555 1_555
C3 O9 1_555 1_555
C4 N3 1_555 1_555
H11 C4 1_555 1_555
H12 C4 1_555 1_555
C5 N1 1_555 1_555
H13 C5 1_555 1_555
H14 C5 1_555 1_555
C6 N1 1_555 1_555
H15 C6 1_555 1_555
H16 C6 1_555 1_555
C7 N2 1_555 1_555
H17 C7 1_555 1_555
H18 C7 1_555 1_555
O9A C3A 1_555 1_555
O10A Co1 1_555 1_555
C3A C3 1_555 1_555
Co1A O1A 1_555 1_555
S1A O1A 1_555 1_555
O2A Co3 1_555 1_555
O3A S1A 1_555 1_555
O4A S1A 1_555 1_555
O5A C1A 1_555 1_555
O6A Co1A 1_555 1_555
O7A C2A 1_555 1_555
O8A Co1A 1_555 1_555
O11A Co1A 1_555 1_555
H1A O11A 1_555 1_555
H2A O11A 1_555 1_555
N1A Co3 1_555 1_555
H5A N1A 1_555 1_555
N2A H6A 1_555 1_555
H7A N2A 1_555 1_555
H8A N2A 1_555 1_555
N3A Co3 1_555 1_555
H9A N3A 1_555 1_555
H10A N3A 1_555 1_555
C1A O6A 1_555 1_555
C2A O8A 1_555 1_555
C4A N3A 1_555 1_555
H11A C4A 1_555 1_555
H12A C4A 1_555 1_555
C5A N1A 1_555 1_555
H13A C5A 1_555 1_555
H14A C5A 1_555 1_555
C6A N1A 1_555 1_555
H15A C6A 1_555 1_555
H16A C6A 1_555 1_555
C7A N2A 1_555 1_555
H17A C7A 1_555 1_555
H18A C7A 1_555 1_555
O12A Co2 1_555 1_555
H3A O12A 1_555 1_555
H4A O12A 1_555 1_555
Co1A_2 O10 1_555 1_555
Co2_2 O5A 1_555 1_555
O5A_2 Co2 1_555 1_555
O7A_2 Co2 1_555 1_555
O9A_2 Co1A 1_555 1_555
O10_2 Co1A 1_555 1_555
O8 C2 1_555 1_555
C1 C2 1_555 1_555
C4 C5 1_555 1_555
C6 C7 1_555 1_555
O9A Co1A_2 1_555 1_555
O10A C3A 1_555 1_555
S1A O2A 1_555 1_555
O7A Co2_2 1_555 1_555
C1A C2A 1_555 1_555
C4A C5A 1_555 1_555
C6A C7A 1_555 1_555

#END
