
#######################################################################
#
#                 Cambridge Crystallographic Data Centre
#                                CCDC 
#
#######################################################################
#
# If this CIF has been generated from an entry in the Cambridge 
# Structural Database, then it will include bibliographic, chemical, 
# crystal, experimental, refinement or atomic coordinate data resulting 
# from the CCDC's data processing and validation procedures.
#
#######################################################################

data_MOMYIY
_symmetry_cell_setting           triclinic
_symmetry_space_group_name_H-M   'P -1'
_symmetry_Int_Tables_number      2
_space_group_name_Hall           '-P 1'
loop_
_symmetry_equiv_pos_site_id
_symmetry_equiv_pos_as_xyz
1 x,y,z
2 -x,-y,-z
_cell_length_a                   8.4331(6)
_cell_length_b                   9.4691(5)
_cell_length_c                   9.5144(5)
_cell_angle_alpha                71.522(5)
_cell_angle_beta                 64.356(6)
_cell_angle_gamma                89.622(5)
_cell_volume                     641.995
loop_
_atom_site_label
_atom_site_type_symbol
_atom_site_fract_x
_atom_site_fract_y
_atom_site_fract_z
Co1 Co 0.80920(5) 0.98575(5) 0.32827(5)
Co2 Co 0.5000 0.5000 1.0000
S1 S 0.46340(10) 0.76785(8) 0.68722(8)
O1 O 0.6045(3) 0.8150(2) 0.5131(2)
O2 O 0.5443(3) 0.7031(2) 0.7984(2)
O3 O 0.3274(3) 0.6560(2) 0.7094(2)
O4 O 0.3841(3) 0.8994(2) 0.7239(3)
O5 O 0.9910(3) 0.8703(2) 0.4081(3)
O6 O 1.1601(3) 0.8938(2) 0.5292(2)
O7 O 0.8221(3) 0.8676(2) 0.1667(2)
O8 O 0.9668(3) 0.8864(2) -0.1004(2)
N1 N 0.5826(4) 0.2459(3) 0.6564(3)
H1 H 0.4901 0.2210 0.6409
H2 H 0.6793 0.2169 0.5887
N2 N 0.7129(3) 0.3845(3) 0.8272(3)
N3 N 0.7343(3) 0.5918(3) 0.9882(3)
H3 H 0.7328 0.6901 0.9749
H4 H 0.7395 0.5446 1.0841
C1 C 1.0432(4) 0.9325(3) 0.4814(3)
C2 C 0.9393(4) 0.9289(3) 0.0190(4)
C3 C 0.5445(5) 0.1655(4) 0.8310(4)
H5 H 0.5406 0.0583 0.8509
H6 H 0.4285 0.1816 0.9041
C4 C 0.6821(4) 0.2175(3) 0.8722(4)
H7 H 0.6442 0.1700 0.9905
H8 H 0.7936 0.1849 0.8136
C5 C 0.6142(5) 0.4116(4) 0.6124(4)
H9 H 0.5057 0.4450 0.6759
H10 H 0.6478 0.4611 0.4952
C6 C 0.7591(4) 0.4539(4) 0.6491(4)
H11 H 0.8677 0.4219 0.5837
H12 H 0.7811 0.5626 0.6165
C7 C 0.8715(4) 0.4163(4) 0.8509(4)
H13 H 0.9777 0.4018 0.7632
H14 H 0.8577 0.3461 0.9565
C8 C 0.8928(4) 0.5745(4) 0.8480(4)
H15 H 0.9991 0.5948 0.8584
H16 H 0.9046 0.6454 0.7436
O5A O 1.0090(3) 1.1297(2) 0.5919(3)
O6A O 0.8399(3) 1.1062(2) 0.4708(2)
C1A C 0.9568(4) 1.0675(3) 0.5186(3)
O7A O 1.1779(3) 1.1324(2) -0.1667(2)
O8A O 1.0332(3) 1.1136(2) 0.1004(2)
C2A C 1.0607(4) 1.0711(3) -0.0190(4)
Co1A Co 0.19080(5) 0.01425(5) 1.67173(5)
S1A S 0.53660(10) 0.23215(8) 1.31278(8)
O1A O 0.3955(3) 0.1850(2) 1.4869(2)
O2A O 0.4557(3) 0.2969(2) 1.2016(2)
O3A O 0.6726(3) 0.3440(2) 1.2906(2)
O4A O 0.6159(3) 0.1006(2) 1.2761(3)
N1A N 0.4174(4) 0.7541(3) 1.3436(3)
H1A H 0.5099 0.7790 1.3591
H2A H 0.3207 0.7831 1.4113
N2A N 0.2871(3) 0.6155(3) 1.1728(3)
N3A N 0.2657(3) 0.4082(3) 1.0118(3)
H3A H 0.2672 0.3099 1.0251
H4A H 0.2605 0.4554 0.9159
C3A C 0.4555(5) 0.8345(4) 1.1690(4)
H5A H 0.4594 0.9417 1.1491
H6A H 0.5715 0.8184 1.0959
C4A C 0.3179(4) 0.7825(3) 1.1278(4)
H7A H 0.3558 0.8300 1.0095
H8A H 0.2064 0.8151 1.1864
C5A C 0.3858(5) 0.5884(4) 1.3876(4)
H9A H 0.4943 0.5550 1.3241
H10A H 0.3522 0.5389 1.5048
C6A C 0.2409(4) 0.5461(4) 1.3509(4)
H11A H 0.1323 0.5781 1.4163
H12A H 0.2189 0.4374 1.3835
C7A C 0.1285(4) 0.5837(4) 1.1491(4)
H13A H 0.0223 0.5982 1.2368
H14A H 0.1423 0.6539 1.0435
C8A C 0.1072(4) 0.4255(4) 1.1520(4)
H15A H 0.0009 0.4052 1.1416
H16A H 0.0954 0.3546 1.2564
Co1_2 Co 0.80920(5) -0.01425(5) 1.32827(5)
Co1A_2 Co 0.19080(5) 1.01425(5) 0.67173(5)
Co1A_3 Co 1.19080(5) 1.01425(5) -0.32827(5)
Co1A_4 Co 1.19080(5) 1.01425(5) 0.67173(5)
O4_2 O 0.3841(3) -0.1006(2) 1.7239(3)
O4A_2 O 0.6159(3) 1.1006(2) 0.2761(3)
O5A_2 O 0.0090(3) 0.1297(2) 1.5919(3)
O6_2 O 0.1601(3) -0.1062(2) 1.5292(2)
O7A_2 O 0.1779(3) 0.1324(2) 1.8333(2)
O8_2 O -0.0332(3) -0.1136(2) 1.8996(2)
loop_
_geom_bond_atom_site_label_1
_geom_bond_atom_site_label_2
_geom_bond_site_symmetry_1
_geom_bond_site_symmetry_2
Co1 O1 1_555 1_555
Co2 O2 1_555 1_555
S1 O1 1_555 1_555
O2 S1 1_555 1_555
O3 S1 1_555 1_555
O4 S1 1_555 1_555
O5 Co1 1_555 1_555
O6 C1 1_555 1_555
O7 Co1 1_555 1_555
O8 C2 1_555 1_555
N1 H1 1_555 1_555
H2 N1 1_555 1_555
N2 Co2 1_555 1_555
N3 Co2 1_555 1_555
H3 N3 1_555 1_555
H4 N3 1_555 1_555
C1 O5 1_555 1_555
C2 O7 1_555 1_555
C3 N1 1_555 1_555
H5 C3 1_555 1_555
H6 C3 1_555 1_555
C4 N2 1_555 1_555
H7 C4 1_555 1_555
H8 C4 1_555 1_555
C5 N1 1_555 1_555
H9 C5 1_555 1_555
H10 C5 1_555 1_555
C6 N2 1_555 1_555
H11 C6 1_555 1_555
H12 C6 1_555 1_555
C7 N2 1_555 1_555
H13 C7 1_555 1_555
H14 C7 1_555 1_555
C8 N3 1_555 1_555
H15 C8 1_555 1_555
H16 C8 1_555 1_555
O5A C1A 1_555 1_555
O6A Co1 1_555 1_555
C1A C1 1_555 1_555
O7A C2A 1_555 1_555
O8A Co1 1_555 1_555
C2A C2 1_555 1_555
Co1A O1A 1_555 1_555
S1A O1A 1_555 1_555
O2A Co2 1_555 1_555
O3A S1A 1_555 1_555
O4A S1A 1_555 1_555
N1A H1A 1_555 1_555
H2A N1A 1_555 1_555
N2A Co2 1_555 1_555
N3A Co2 1_555 1_555
H3A N3A 1_555 1_555
H4A N3A 1_555 1_555
C3A N1A 1_555 1_555
H5A C3A 1_555 1_555
H6A C3A 1_555 1_555
C4A N2A 1_555 1_555
H7A C4A 1_555 1_555
H8A C4A 1_555 1_555
C5A N1A 1_555 1_555
H9A C5A 1_555 1_555
H10A C5A 1_555 1_555
C6A N2A 1_555 1_555
H11A C6A 1_555 1_555
H12A C6A 1_555 1_555
C7A N2A 1_555 1_555
H13A C7A 1_555 1_555
H14A C7A 1_555 1_555
C8A N3A 1_555 1_555
H15A C8A 1_555 1_555
H16A C8A 1_555 1_555
Co1_2 O4A 1_555 1_555
Co1A_2 O4 1_555 1_555
Co1A_3 O8 1_555 1_555
Co1A_4 O6 1_555 1_555
O4_2 Co1A 1_555 1_555
O4A_2 Co1 1_555 1_555
O5A_2 Co1A 1_555 1_555
O6_2 Co1A 1_555 1_555
O7A_2 Co1A 1_555 1_555
O8_2 Co1A 1_555 1_555
C3 C4 1_555 1_555
C5 C6 1_555 1_555
C7 C8 1_555 1_555
O5A Co1A_4 1_555 1_555
O6A C1A 1_555 1_555
O7A Co1A_3 1_555 1_555
O8A C2A 1_555 1_555
S1A O2A 1_555 1_555
C3A C4A 1_555 1_555
C5A C6A 1_555 1_555
C7A C8A 1_555 1_555

#END
