
#######################################################################
#
#                 Cambridge Crystallographic Data Centre
#                                CCDC 
#
#######################################################################
#
# If this CIF has been generated from an entry in the Cambridge 
# Structural Database, then it will include bibliographic, chemical, 
# crystal, experimental, refinement or atomic coordinate data resulting 
# from the CCDC's data processing and validation procedures.
#
#######################################################################

data_MOMZOE
_symmetry_cell_setting           triclinic
_symmetry_space_group_name_H-M   'P -1'
_symmetry_Int_Tables_number      2
_space_group_name_Hall           '-P 1'
loop_
_symmetry_equiv_pos_site_id
_symmetry_equiv_pos_as_xyz
1 x,y,z
2 -x,-y,-z
_cell_length_a                   7.3783(9)
_cell_length_b                   10.6172(14)
_cell_length_c                   14.5214(19)
_cell_angle_alpha                71.145(1)
_cell_angle_beta                 84.913(1)
_cell_angle_gamma                77.000(1)
_cell_volume                     1048.77
loop_
_atom_site_label
_atom_site_type_symbol
_atom_site_fract_x
_atom_site_fract_y
_atom_site_fract_z
Ag1 Ag -0.08619(2) 0.024768(14) -0.298530(9)
Ag2 Ag -0.430146(19) 0.460875(15) -0.194078(10)
O1 O -0.77702(19) 0.54787(14) -0.22622(10)
O2 O -0.9922(2) 0.44872(19) -0.24296(14)
O3 O -0.7155(2) 0.32988(15) -0.20033(13)
O4 O -0.0806(2) -0.23113(15) -0.21927(12)
H1 H -0.177(3) -0.244(2) -0.2415(16)
H2 H 0.011(3) -0.297(2) -0.2211(18)
O8 O 0.1777(2) 0.16650(16) -0.31339(12)
H3 H 0.275(3) 0.099(2) -0.2976(19)
H4 H 0.192(3) 0.214(2) -0.2763(17)
N1 N -0.3444(2) 0.44272(15) -0.34082(11)
N2 N -0.1483(2) 0.08881(15) -0.46179(11)
N3 N -0.1780(2) 0.05063(15) -0.15189(11)
N4 N -0.3552(2) 0.40657(15) -0.03586(11)
N5 N -0.8294(2) 0.44133(17) -0.22265(11)
C1 C -0.3562(2) 0.33359(18) -0.36593(13)
H5 H -0.4002 0.2611 -0.3185
C2 C -0.3072(2) 0.32154(18) -0.45781(13)
C3 C -0.2472(3) 0.42977(19) -0.52698(13)
H6 H -0.2162 0.4266 -0.5912
C4 C -0.2327(3) 0.54297(19) -0.50178(14)
H7 H -0.1905 0.6174 -0.5480
C5 C -0.2814(3) 0.54461(19) -0.40764(14)
H8 H -0.2696 0.6209 -0.3898
C6 C -0.3225(3) 0.19620(18) -0.48183(14)
H9 H -0.4262 0.1583 -0.4431
H10 H -0.3525 0.2224 -0.5515
C7 C 0.0067(3) 0.13954(18) -0.52416(14)
H11 H 0.0334 0.2164 -0.5070
H12 H -0.0307 0.1736 -0.5931
C8 C -0.1808(3) -0.02855(18) -0.48812(14)
H13 H -0.2209 0.0030 -0.5566
H14 H -0.2820 -0.0659 -0.4463
C9 C -0.1636(3) 0.15990(18) -0.12806(13)
H15 H -0.1260 0.2337 -0.1773
C10 C -0.2010(2) 0.17085(18) -0.03466(13)
C11 C -0.2512(3) 0.06131(19) 0.03728(14)
H16 H -0.2735 0.0635 0.1022
C12 C -0.2684(3) -0.05198(19) 0.01289(14)
H17 H -0.3049 -0.1275 0.0608
C13 C -0.2318(3) -0.05335(19) -0.08199(14)
H18 H -0.2451 -0.1305 -0.0983
C14 C -0.1818(3) 0.29791(19) -0.01411(14)
H19 H -0.1511 0.2744 0.0552
H20 H -0.0775 0.3335 -0.0540
C15 C -0.5072(3) 0.36007(18) 0.03151(14)
H21 H -0.4658 0.3322 0.0995
H22 H -0.5359 0.2798 0.0199
C16 C -0.3183(3) 0.52833(18) -0.01756(13)
H23 H -0.2191 0.5627 -0.0628
H24 H -0.2741 0.5026 0.0497
Ag1A Ag 0.08619(2) -0.024768(14) -0.701470(9)
Ag1A_2 Ag -0.91381(2) 0.975232(14) 0.298530(9)
Ag2A Ag 0.430146(19) -0.460875(15) -0.805922(10)
Ag2A_2 Ag -0.569854(19) 0.539125(15) 0.194078(10)
O1A O 0.77702(19) -0.54787(14) -0.77378(10)
O2A O 0.9922(2) -0.44872(19) -0.75704(14)
O3A O 0.7155(2) -0.32988(15) -0.79967(13)
O4A O 0.0806(2) 0.23113(15) -0.78073(12)
H1A H 0.177(3) 0.244(2) -0.7585(16)
H2A H -0.011(3) 0.297(2) -0.7789(18)
O8A O -0.1777(2) -0.16650(16) -0.68661(12)
H3A H -0.275(3) -0.099(2) -0.7024(19)
H4A H -0.192(3) -0.214(2) -0.7237(17)
N1A N 0.3444(2) -0.44272(15) -0.65918(11)
N2A N 0.1483(2) -0.08881(15) -0.53821(11)
N3A N -0.8220(2) 0.94937(15) 0.15189(11)
N3A_2 N 0.1780(2) -0.05063(15) -0.84811(11)
N4A N -0.6448(2) 0.59343(15) 0.03586(11)
N4A_2 N 0.3552(2) -0.40657(15) -0.96414(11)
N5A N 0.8294(2) -0.44133(17) -0.77735(11)
C1A C 0.3562(2) -0.33359(18) -0.63407(13)
H5A H 0.4002 -0.2611 -0.6815
C2A C 0.3072(2) -0.32154(18) -0.54219(13)
C3A C 0.2472(3) -0.42977(19) -0.47302(13)
H6A H 0.2162 -0.4266 -0.4088
C4A C 0.2327(3) -0.54297(19) -0.49822(14)
H7A H 0.1905 -0.6174 -0.4520
C5A C 0.2814(3) -0.54461(19) -0.59236(14)
H8A H 0.2696 -0.6209 -0.6102
C6A C 0.3225(3) -0.19620(18) -0.51817(14)
H9A H 0.4262 -0.1583 -0.5569
H10A H 0.3525 -0.2224 -0.4485
C7A C -0.0067(3) -0.13954(18) -0.47584(14)
H11A H -0.0334 -0.2164 -0.4930
H12A H 0.0307 -0.1736 -0.4069
C8A C 0.1808(3) 0.02855(18) -0.51188(14)
H13A H 0.2209 -0.0030 -0.4434
H14A H 0.2820 0.0659 -0.5537
C9A C -0.8364(3) 0.84010(18) 0.12806(13)
H15A H -0.8740 0.7663 0.1773
C10A C -0.7990(2) 0.82915(18) 0.03466(13)
C11A C -0.7488(3) 0.93869(19) -0.03728(14)
H16A H -0.7265 0.9365 -0.1022
C12A C -0.7316(3) 1.05198(19) -0.01289(14)
H17A H -0.6951 1.1275 -0.0608
C13A C -0.7682(3) 1.05335(19) 0.08199(14)
H18A H -0.7549 1.1305 0.0983
C14A C -0.8182(3) 0.70209(19) 0.01411(14)
H19A H -0.8489 0.7256 -0.0552
H20A H -0.9225 0.6665 0.0540
C15A C -0.4928(3) 0.63993(18) -0.03151(14)
H21A H -0.5342 0.6678 -0.0995
H22A H -0.4641 0.7202 -0.0199
C16A C -0.6817(3) 0.47167(18) 0.01756(13)
H23A H -0.7809 0.4373 0.0628
H24A H -0.7259 0.4974 -0.0497
O5 O -0.4216(2) 0.74332(15) -0.27854(12)
O6 O -0.7086(2) 0.84062(15) -0.25976(12)
O7 O -0.4921(2) 0.95635(15) -0.28639(14)
N6 N -0.5422(2) 0.84667(16) -0.27526(11)
loop_
_geom_bond_atom_site_label_1
_geom_bond_atom_site_label_2
_geom_bond_site_symmetry_1
_geom_bond_site_symmetry_2
Ag1 O4 1_555 1_555
Ag2 O1 1_555 1_555
O1 N5 1_555 1_555
O2 N5 1_555 1_555
O3 N5 1_555 1_555
O4 H1 1_555 1_555
H2 O4 1_555 1_555
O5 N6 1_555 1_555
O6 N6 1_555 1_555
O7 N6 1_555 1_555
O8 Ag1 1_555 1_555
H3 O8 1_555 1_555
H4 O8 1_555 1_555
N1 Ag2 1_555 1_555
N2 Ag1 1_555 1_555
N3 Ag1 1_555 1_555
N4 Ag2 1_555 1_555
C1 N1 1_555 1_555
H5 C1 1_555 1_555
C2 C1 1_555 1_555
C3 C2 1_555 1_555
H6 C3 1_555 1_555
C4 C3 1_555 1_555
H7 C4 1_555 1_555
C5 N1 1_555 1_555
H8 C5 1_555 1_555
C6 N2 1_555 1_555
H9 C6 1_555 1_555
H10 C6 1_555 1_555
C7 N2 1_555 1_555
H11 C7 1_555 1_555
H12 C7 1_555 1_555
C8 N2 1_555 1_555
H13 C8 1_555 1_555
H14 C8 1_555 1_555
C9 N3 1_555 1_555
H15 C9 1_555 1_555
C10 C9 1_555 1_555
C11 C10 1_555 1_555
H16 C11 1_555 1_555
C12 C11 1_555 1_555
H17 C12 1_555 1_555
C13 N3 1_555 1_555
H18 C13 1_555 1_555
C14 N4 1_555 1_555
H19 C14 1_555 1_555
H20 C14 1_555 1_555
C15 N4 1_555 1_555
H21 C15 1_555 1_555
H22 C15 1_555 1_555
C16 N4 1_555 1_555
H23 C16 1_555 1_555
H24 C16 1_555 1_555
Ag1A O4A 1_555 1_555
Ag1A_2 N3A 1_555 1_555
Ag2A O1A 1_555 1_555
Ag2A_2 N4A 1_555 1_555
O1A N5A 1_555 1_555
O2A N5A 1_555 1_555
O3A N5A 1_555 1_555
O4A H1A 1_555 1_555
H2A O4A 1_555 1_555
O8A Ag1A 1_555 1_555
H3A O8A 1_555 1_555
H4A O8A 1_555 1_555
N1A Ag2A 1_555 1_555
N2A Ag1A 1_555 1_555
N3A C9A 1_555 1_555
N3A_2 Ag1A 1_555 1_555
N4A C14A 1_555 1_555
N4A_2 Ag2A 1_555 1_555
C1A N1A 1_555 1_555
H5A C1A 1_555 1_555
C2A C1A 1_555 1_555
C3A C2A 1_555 1_555
H6A C3A 1_555 1_555
C4A C3A 1_555 1_555
H7A C4A 1_555 1_555
C5A N1A 1_555 1_555
H8A C5A 1_555 1_555
C6A N2A 1_555 1_555
H9A C6A 1_555 1_555
H10A C6A 1_555 1_555
C7A C8 1_555 1_555
H11A C7A 1_555 1_555
H12A C7A 1_555 1_555
C8A C7 1_555 1_555
H13A C8A 1_555 1_555
H14A C8A 1_555 1_555
C9A H15A 1_555 1_555
C10A C9A 1_555 1_555
C11A C10A 1_555 1_555
H16A C11A 1_555 1_555
C12A C11A 1_555 1_555
H17A C12A 1_555 1_555
C13A N3A 1_555 1_555
H18A C13A 1_555 1_555
C14A C10A 1_555 1_555
H19A C14A 1_555 1_555
H20A C14A 1_555 1_555
C15A C16 1_555 1_555
H21A C15A 1_555 1_555
H22A C15A 1_555 1_555
C16A C15 1_555 1_555
H23A C16A 1_555 1_555
H24A C16A 1_555 1_555
C2 C6 1_555 1_555
C4 C5 1_555 1_555
C10 C14 1_555 1_555
C12 C13 1_555 1_555
N2A C7A 1_555 1_555
N2A C8A 1_555 1_555
N4A C15A 1_555 1_555
N4A C16A 1_555 1_555
C2A C6A 1_555 1_555
C4A C5A 1_555 1_555
C12A C13A 1_555 1_555

#END
