
#######################################################################
#
#                 Cambridge Crystallographic Data Centre
#                                CCDC 
#
#######################################################################
#
# If this CIF has been generated from an entry in the Cambridge 
# Structural Database, then it will include bibliographic, chemical, 
# crystal, experimental, refinement or atomic coordinate data resulting 
# from the CCDC's data processing and validation procedures.
#
#######################################################################

data_MOMZIY
_symmetry_cell_setting           monoclinic
_symmetry_space_group_name_H-M   'P 21/c'
_symmetry_Int_Tables_number      14
_space_group_name_Hall           '-P 2ybc'
loop_
_symmetry_equiv_pos_site_id
_symmetry_equiv_pos_as_xyz
1 x,y,z
2 -x,1/2+y,1/2-z
3 -x,-y,-z
4 x,1/2-y,1/2+z
_cell_length_a                   26.674(11)
_cell_length_b                   5.990(2)
_cell_length_c                   14.666(6)
_cell_angle_alpha                90
_cell_angle_beta                 91.974(5)
_cell_angle_gamma                90
_cell_volume                     2341.9
loop_
_atom_site_label
_atom_site_type_symbol
_atom_site_fract_x
_atom_site_fract_y
_atom_site_fract_z
Ag1 Ag 0.24654(4) 0.27585(17) 0.47231(8)
N1 N 0.2927(4) 0.5657(17) 0.4774(7)
N2 N 0.4469(3) 1.0165(14) 0.5144(6)
N3 N 0.2019(4) -0.0173(16) 0.4807(7)
N4 N 0.0543(3) -0.5045(13) 0.5180(6)
C1 C 0.3066(5) 0.663(2) 0.5561(9)
H13 H 0.2940 0.6023 0.6107
C2 C 0.3379(5) 0.844(2) 0.5634(8)
H14 H 0.3457 0.9103 0.6210
C3 C 0.3582(4) 0.9290(19) 0.4836(8)
C4 C 0.3428(5) 0.829(2) 0.4021(8)
H15 H 0.3558 0.8813 0.3466
C5 C 0.3088(6) 0.654(2) 0.4000(9)
H16 H 0.2969 0.5962 0.3430
C6 C 0.3968(4) 1.1096(19) 0.4894(8)
H17 H 0.3981 1.1869 0.4299
H18 H 0.3872 1.2206 0.5358
C7 C 0.4813(5) 1.2015(18) 0.5363(8)
H19 H 0.4685 1.2876 0.5882
H20 H 0.4828 1.3030 0.4832
C8 C 0.5334(4) 1.1149(18) 0.5606(7)
H21 H 0.5561 1.2423 0.5742
H22 H 0.5323 1.0209 0.6160
C9 C 0.1920(5) -0.110(2) 0.5604(10)
H23 H 0.2063 -0.0467 0.6147
C10 C 0.1614(5) -0.296(2) 0.5667(8)
H24 H 0.1548 -0.3552 0.6252
C11 C 0.1404(4) -0.3954(18) 0.4911(8)
C12 C 0.1526(5) -0.3035(19) 0.4068(8)
H25 H 0.1403 -0.3685 0.3513
C13 C 0.1825(5) -0.119(2) 0.4060(9)
H26 H 0.1902 -0.0578 0.3483
C14 C 0.1045(4) -0.5875(19) 0.4964(8)
H27 H 0.1028 -0.6676 0.4373
H28 H 0.1165 -0.6935 0.5441
C15 C 0.0313(4) -0.3789(17) 0.4413(7)
H29 H 0.0301 -0.4741 0.3861
H30 H 0.0522 -0.2466 0.4286
C16 C 0.0217(4) -0.6967(16) 0.5376(7)
H31 H 0.0361 -0.7806 0.5904
H32 H 0.0203 -0.7983 0.4844
Ag1B Ag -0.24654(4) -1.27585(17) 0.52769(8)
Ag1B_2 Ag 0.75346(4) 1.72415(17) 0.52769(8)
N1B N 0.7073(4) 1.4343(17) 0.5226(7)
N1B_2 N -0.2927(4) -1.5657(17) 0.5226(7)
N2B N 0.5531(3) 0.9835(14) 0.4856(6)
N3B N -0.2019(4) -0.9827(16) 0.5193(7)
N4B N -0.0543(3) -0.4955(13) 0.4820(6)
C1B C 0.6934(5) 1.337(2) 0.4439(9)
H13B H 0.7060 1.3977 0.3893
C2B C 0.6621(5) 1.156(2) 0.4366(8)
H14B H 0.6543 1.0897 0.3790
C3B C 0.6418(4) 1.0710(19) 0.5164(8)
C4B C 0.6572(5) 1.171(2) 0.5979(8)
H15B H 0.6442 1.1187 0.6534
C5B C 0.6912(6) 1.346(2) 0.6000(9)
H16B H 0.7031 1.4038 0.6570
C6B C 0.6032(4) 0.8904(19) 0.5106(8)
H17B H 0.6019 0.8131 0.5701
H18B H 0.6128 0.7794 0.4642
C7B C 0.5187(5) 0.7985(18) 0.4637(8)
H19B H 0.5315 0.7124 0.4118
H20B H 0.5172 0.6970 0.5168
C8B C 0.4666(4) 0.8851(18) 0.4394(7)
H21B H 0.4439 0.7577 0.4258
H22B H 0.4677 0.9791 0.3840
C9B C -0.1920(5) -0.890(2) 0.4396(10)
H23B H -0.2063 -0.9533 0.3853
C10B C -0.1614(5) -0.704(2) 0.4333(8)
H24B H -0.1548 -0.6448 0.3748
C11B C -0.1404(4) -0.6046(18) 0.5089(8)
C12B C -0.1526(5) -0.6965(19) 0.5932(8)
H25B H -0.1403 -0.6315 0.6487
C13B C -0.1825(5) -0.881(2) 0.5940(9)
H26B H -0.1902 -0.9422 0.6517
C14B C -0.1045(4) -0.4125(19) 0.5036(8)
H27B H -0.1028 -0.3324 0.5627
H28B H -0.1165 -0.3065 0.4559
C15B C -0.0313(4) -0.6211(17) 0.5587(7)
H29B H -0.0301 -0.5259 0.6139
H30B H -0.0522 -0.7534 0.5714
C16B C -0.0217(4) -0.3033(16) 0.4624(7)
H31B H -0.0361 -0.2194 0.4096
H32B H -0.0203 -0.2017 0.5156
O1 O 0.0507(3) -0.2255(13) 0.6766(5)
H1 H 0.062(4) -0.296(14) 0.628(4)
H2 H 0.048(4) -0.331(11) 0.718(5)
O2 O 0.4495(3) 0.7418(13) 0.6721(6)
H3 H 0.424(3) 0.651(14) 0.687(8)
H4 H 0.473(3) 0.643(13) 0.662(8)
O3 O 0.1142(4) -0.6272(14) 0.2139(6)
H5 H 0.092(3) -0.693(18) 0.248(7)
H6 H 0.1434(19) -0.684(18) 0.234(7)
O4 O 0.0505(3) 0.0867(14) 0.2985(6)
H7 H 0.043(4) -0.057(5) 0.302(8)
H8 H 0.021(2) 0.152(15) 0.305(8)
O5 O 0.5500(3) 1.5930(15) 0.7038(6)
H9 H 0.5175(14) 1.626(19) 0.705(8)
H10 H 0.554(4) 1.487(15) 0.746(6)
O6 O 0.3867(4) 0.3829(16) 0.7045(6)
H11 H 0.396(4) 0.35(2) 0.761(4)
H12 H 0.3544(15) 0.34(2) 0.702(7)
N5 N 0.2479(4) 0.2642(16) 0.7394(6)
O7 O 0.2170(12) 0.143(6) 0.7818(17)
O8 O 0.2310(7) 0.335(3) 0.6674(11)
O9 O 0.2887(7) 0.311(3) 0.7790(10)
O10? O 0.2867(11) 0.193(4) 0.705(2)
O11? O 0.2401(11) 0.450(5) 0.714(3)
O12? O 0.2214(17) 0.162(9) 0.787(4)
loop_
_geom_bond_atom_site_label_1
_geom_bond_atom_site_label_2
_geom_bond_site_symmetry_1
_geom_bond_site_symmetry_2
Ag1 N1 1_555 1_555
O1 H1 1_555 1_555
H2 O1 1_555 1_555
O2 H3 1_555 1_555
H4 O2 1_555 1_555
O3 H5 1_555 1_555
H6 O3 1_555 1_555
O4 H7 1_555 1_555
H8 O4 1_555 1_555
O5 H9 1_555 1_555
H10 O5 1_555 1_555
O6 H11 1_555 1_555
H12 O6 1_555 1_555
N1 C1 1_555 1_555
N2 C6 1_555 1_555
N3 Ag1 1_555 1_555
N4 C14 1_555 1_555
C1 H13 1_555 1_555
C2 C1 1_555 1_555
H14 C2 1_555 1_555
C3 C2 1_555 1_555
C4 C3 1_555 1_555
H15 C4 1_555 1_555
C5 N1 1_555 1_555
H16 C5 1_555 1_555
C6 C3 1_555 1_555
H17 C6 1_555 1_555
H18 C6 1_555 1_555
C7 N2 1_555 1_555
H19 C7 1_555 1_555
H20 C7 1_555 1_555
C8 C7 1_555 1_555
H21 C8 1_555 1_555
H22 C8 1_555 1_555
C9 N3 1_555 1_555
H23 C9 1_555 1_555
C10 C9 1_555 1_555
H24 C10 1_555 1_555
C11 C10 1_555 1_555
C12 C11 1_555 1_555
H25 C12 1_555 1_555
C13 N3 1_555 1_555
H26 C13 1_555 1_555
C14 C11 1_555 1_555
H27 C14 1_555 1_555
H28 C14 1_555 1_555
C15 N4 1_555 1_555
H29 C15 1_555 1_555
H30 C15 1_555 1_555
C16 N4 1_555 1_555
H31 C16 1_555 1_555
H32 C16 1_555 1_555
N5 O7 1_555 1_555
O8 N5 1_555 1_555
O9 N5 1_555 1_555
Ag1B N1B_2 1_555 1_555
Ag1B_2 N1B 1_555 1_555
N1B C1B 1_555 1_555
N2B C8 1_555 1_555
N3B Ag1B 1_555 1_555
N4B C14B 1_555 1_555
C1B H13B 1_555 1_555
C2B C1B 1_555 1_555
H14B C2B 1_555 1_555
C3B C2B 1_555 1_555
C4B C3B 1_555 1_555
H15B C4B 1_555 1_555
C5B N1B 1_555 1_555
H16B C5B 1_555 1_555
C6B N2B 1_555 1_555
H17B C6B 1_555 1_555
H18B C6B 1_555 1_555
C7B N2B 1_555 1_555
H19B C7B 1_555 1_555
H20B C7B 1_555 1_555
C8B N2 1_555 1_555
H21B C8B 1_555 1_555
H22B C8B 1_555 1_555
C9B N3B 1_555 1_555
H23B C9B 1_555 1_555
C10B C9B 1_555 1_555
H24B C10B 1_555 1_555
C11B C10B 1_555 1_555
C12B C11B 1_555 1_555
H25B C12B 1_555 1_555
C13B N3B 1_555 1_555
H26B C13B 1_555 1_555
C14B C11B 1_555 1_555
H27B C14B 1_555 1_555
H28B C14B 1_555 1_555
C15B C16 1_555 1_555
H29B C15B 1_555 1_555
H30B C15B 1_555 1_555
C16B C15 1_555 1_555
H31B C16B 1_555 1_555
H32B C16B 1_555 1_555
C4 C5 1_555 1_555
C12 C13 1_555 1_555
N4B C15B 1_555 1_555
N4B C16B 1_555 1_555
C3B C6B 1_555 1_555
C4B C5B 1_555 1_555
C7B C8B 1_555 1_555
C12B C13B 1_555 1_555

#END
