
#######################################################################
#
#                 Cambridge Crystallographic Data Centre
#                                CCDC 
#
#######################################################################
#
# If this CIF has been generated from an entry in the Cambridge 
# Structural Database, then it will include bibliographic, chemical, 
# crystal, experimental, refinement or atomic coordinate data resulting 
# from the CCDC's data processing and validation procedures.
#
#######################################################################

data_MONDEA
_symmetry_cell_setting           monoclinic
_symmetry_space_group_name_H-M   'P 21/n'
_symmetry_Int_Tables_number      14
_space_group_name_Hall           '-P 2yn'
loop_
_symmetry_equiv_pos_site_id
_symmetry_equiv_pos_as_xyz
1 x,y,z
2 1/2-x,1/2+y,1/2-z
3 -x,-y,-z
4 1/2+x,1/2-y,1/2+z
_cell_length_a                   13.2460(5)
_cell_length_b                   5.5949(3)
_cell_length_c                   38.923(4)
_cell_angle_alpha                90
_cell_angle_beta                 92.448(7)
_cell_angle_gamma                90
_cell_volume                     2881.95
loop_
_atom_site_label
_atom_site_type_symbol
_atom_site_fract_x
_atom_site_fract_y
_atom_site_fract_z
Nd1 Nd 0.305350(16) 0.44035(4) 0.143025(6)
C1 C 0.1504(3) 0.2461(7) 0.07280(12)
C2 C 0.0515(3) 0.3320(7) 0.05626(11)
C3 C 0.0103(3) 0.5524(7) 0.06343(12)
H1 H 0.0457 0.6573 0.0780
C4 C -0.0044(3) 0.1768(7) 0.03513(12)
H2 H 0.0217 0.0265 0.0305
C5 C -0.0977(3) 0.2399(7) 0.02083(13)
H3 H -0.1341 0.1331 0.0068
C6 C -0.0829(3) 0.6192(7) 0.04926(12)
H4 H -0.1097 0.7682 0.0543
C7 C -0.1363(3) 0.4637(7) 0.02755(11)
C8 C -0.2768(3) 0.4466(8) -0.01739(12)
H5 H -0.2544 0.3152 -0.0296
C9 C -0.3567(4) 0.7395(9) -0.00087(15)
H6 H -0.4063 0.8567 -0.0002
C10 C 0.1483(3) 0.9288(7) 0.15921(10)
C11 C 0.0382(3) 0.9216(6) 0.14761(11)
C12 C -0.0049(3) 1.1187(7) 0.13058(12)
H7 H 0.0334 1.2566 0.1281
C13 C -0.0220(3) 0.7222(7) 0.15283(12)
H8 H 0.0051 0.5908 0.1646
C14 C -0.1221(3) 0.7170(7) 0.14073(12)
H9 H -0.1621 0.5840 0.1447
C15 C -0.1032(3) 1.1132(6) 0.11726(11)
H10 H -0.1297 1.2425 0.1048
C16 C -0.1621(3) 0.9120(7) 0.12264(11)
C17 C -0.3234(3) 1.0886(7) 0.09820(12)
H11 H -0.3023 1.2465 0.0965
C18 C -0.4084(3) 0.7735(7) 0.09699(12)
H12 H -0.4629 0.6699 0.0937
C19 C 0.4677(3) 0.9190(7) 0.16650(11)
C20 C 0.5722(3) 0.9657(7) 0.18188(11)
C21 C 0.6210(3) 1.1825(7) 0.17651(12)
H13 H 0.5867 1.3050 0.1648
C22 C 0.6245(3) 0.7878(7) 0.20004(12)
H14 H 0.5926 0.6427 0.2039
C23 C 0.7200(3) 1.2173(7) 0.18838(12)
H15 H 0.7521 1.3621 0.1845
C24 C 0.7220(3) 0.8213(7) 0.21239(11)
H16 H 0.7552 0.7013 0.2250
C25 C 0.7710(3) 1.0355(7) 0.20604(11)
C26 C 0.9387(3) 0.9128(7) 0.23286(12)
H17 H 0.9235 0.7543 0.2376
C27 C 1.0113(3) 1.2397(8) 0.22786(13)
H18 H 1.0620 1.3550 0.2290
N1 N -0.2296(3) 0.5355(6) 0.01106(10)
N2 N -0.2818(3) 0.7314(7) 0.02212(12)
N3 N -0.3588(3) 0.5697(7) -0.02574(11)
N4 N -0.2639(3) 0.9069(5) 0.10946(9)
N5 N -0.3194(3) 0.6998(6) 0.10876(10)
N6 N -0.4159(3) 1.0129(6) 0.08986(10)
N7 N 0.8733(2) 1.0684(6) 0.21760(9)
N8 N 0.9212(3) 1.2848(6) 0.21435(10)
N9 N 1.0267(3) 1.0134(6) 0.24014(10)
O1 O 0.1928(2) 0.3830(5) 0.09520(8)
O2 O 0.3156(2) 0.7966(4) 0.10439(8)
H19 H 0.268(2) 0.867(6) 0.0933(10)
H20 H 0.350(3) 0.902(6) 0.1148(10)
O3 O 0.1835(2) 0.0462(5) 0.06396(8)
O4 O 0.3202(2) 0.3847(5) 0.20785(8)
H21 H 0.311(3) 0.238(4) 0.2115(11)
H22 H 0.371(2) 0.427(6) 0.2207(10)
O5 O 0.1908(2) 0.7319(4) 0.16724(8)
O6 O 0.4181(2) 0.3439(5) 0.09520(8)
H23 H 0.464(2) 0.245(6) 0.0954(10)
H24 H 0.403(3) 0.388(7) 0.0749(6)
O7 O 0.1914(2) 1.1278(4) 0.16012(8)
O8 O 0.4378(2) 0.7054(4) 0.16596(8)
O9 O 0.4185(2) 1.0943(4) 0.15415(8)
Nd1_2 Nd 0.305350(16) 1.44035(4) 0.143025(6)
O7_2 O 0.1914(2) 0.1278(4) 0.16012(8)
O9_2 O 0.4185(2) 0.0943(4) 0.15415(8)
O10 O 0.2976(2) 0.9294(5) 0.22860(8)
H25 H 0.267(3) 0.851(7) 0.2128(8)
H26 H 0.263(3) 0.925(8) 0.2461(7)
loop_
_geom_bond_atom_site_label_1
_geom_bond_atom_site_label_2
_geom_bond_site_symmetry_1
_geom_bond_site_symmetry_2
Nd1 O1 1_555 1_555
C1 C2 1_555 1_555
C2 C3 1_555 1_555
C3 H1 1_555 1_555
C4 C2 1_555 1_555
H2 C4 1_555 1_555
C5 C4 1_555 1_555
H3 C5 1_555 1_555
C6 C3 1_555 1_555
H4 C6 1_555 1_555
C7 C5 1_555 1_555
C8 H5 1_555 1_555
C9 H6 1_555 1_555
C10 C11 1_555 1_555
C11 C12 1_555 1_555
C12 H7 1_555 1_555
C13 C11 1_555 1_555
H8 C13 1_555 1_555
C14 C13 1_555 1_555
H9 C14 1_555 1_555
C15 C12 1_555 1_555
H10 C15 1_555 1_555
C16 C14 1_555 1_555
C17 H11 1_555 1_555
C18 H12 1_555 1_555
C19 C20 1_555 1_555
C20 C21 1_555 1_555
C21 H13 1_555 1_555
C22 C20 1_555 1_555
H14 C22 1_555 1_555
C23 C21 1_555 1_555
H15 C23 1_555 1_555
C24 C22 1_555 1_555
H16 C24 1_555 1_555
C25 C23 1_555 1_555
C26 H17 1_555 1_555
C27 H18 1_555 1_555
N1 C7 1_555 1_555
N2 C9 1_555 1_555
N3 C8 1_555 1_555
N4 C16 1_555 1_555
N5 C18 1_555 1_555
N6 C17 1_555 1_555
N7 C25 1_555 1_555
N8 C27 1_555 1_555
N9 C26 1_555 1_555
O1 C1 1_555 1_555
O2 Nd1 1_555 1_555
H19 O2 1_555 1_555
H20 O2 1_555 1_555
O3 C1 1_555 1_555
O4 Nd1 1_555 1_555
H21 O4 1_555 1_555
H22 O4 1_555 1_555
O5 Nd1 1_555 1_555
O6 Nd1 1_555 1_555
H23 O6 1_555 1_555
H24 O6 1_555 1_555
O7 C10 1_555 1_555
O8 Nd1 1_555 1_555
O9 C19 1_555 1_555
O10 H25 1_555 1_555
H26 O10 1_555 1_555
Nd1_2 O7 1_555 1_555
O7_2 Nd1 1_555 1_555
O9_2 Nd1 1_555 1_555
C6 C7 1_555 1_555
C8 N1 1_555 1_555
C9 N3 1_555 1_555
C10 O5 1_555 1_555
C15 C16 1_555 1_555
C17 N4 1_555 1_555
C18 N6 1_555 1_555
C19 O8 1_555 1_555
C24 C25 1_555 1_555
C26 N7 1_555 1_555
C27 N9 1_555 1_555
N1 N2 1_555 1_555
N4 N5 1_555 1_555
N7 N8 1_555 1_555
O9 Nd1_2 1_555 1_555

#END
