
#######################################################################
#
#                 Cambridge Crystallographic Data Centre
#                                CCDC 
#
#######################################################################
#
# If this CIF has been generated from an entry in the Cambridge 
# Structural Database, then it will include bibliographic, chemical, 
# crystal, experimental, refinement or atomic coordinate data resulting 
# from the CCDC's data processing and validation procedures.
#
#######################################################################

data_MONDUQ
_symmetry_cell_setting           monoclinic
_symmetry_space_group_name_H-M   'C 2/c'
_symmetry_Int_Tables_number      15
_space_group_name_Hall           '-C 2yn'
loop_
_symmetry_equiv_pos_site_id
_symmetry_equiv_pos_as_xyz
1 x,y,z
2 -x,y,1/2-z
3 1/2+x,1/2+y,z
4 1/2-x,1/2+y,1/2-z
5 -x,-y,-z
6 x,-y,1/2+z
7 1/2-x,1/2-y,-z
8 1/2+x,1/2-y,1/2+z
_cell_length_a                   18.254
_cell_length_b                   11.632
_cell_length_c                   16.153
_cell_angle_alpha                90
_cell_angle_beta                 112.25
_cell_angle_gamma                90
_cell_volume                     3174.4
loop_
_atom_site_label
_atom_site_type_symbol
_atom_site_fract_x
_atom_site_fract_y
_atom_site_fract_z
Zn1 Zn 0.76560(3) 1.17322(3) 0.84538(3)
O1 O 0.70786(16) 1.0366(2) 0.85490(16)
O2 O 0.77461(16) 1.0726(2) 0.99783(17)
O3 O 0.73801(16) 0.8073(2) 1.21618(15)
O4 O 0.65027(19) 0.6657(2) 1.17610(16)
O5 O 0.67399(19) 1.2926(3) 0.84954(19)
H1 H 0.694(3) 1.345(4) 0.886(3)
H2 H 0.664(3) 1.319(4) 0.806(3)
O6 O 0.86739(19) 1.0623(3) 0.8564(2)
H3 H 0.895(3) 1.086(4) 0.825(3)
H4 H 0.860(3) 0.982(4) 0.842(3)
N1 N 0.84992(17) 1.2931(2) 0.90436(19)
C1 C 0.7274(2) 1.0135(3) 0.9375(2)
C2 C 0.68920(18) 0.9084(3) 0.9579(2)
C3 C 0.70589(18) 0.8740(3) 1.0453(2)
H5 H 0.7411 0.9164 1.0924
C4 C 0.67040(18) 0.7770(3) 1.06264(19)
C5 C 0.61913(19) 0.7126(3) 0.9925(2)
H6 H 0.5955 0.6474 1.0046
C6 C 0.60240(18) 0.7441(3) 0.90398(19)
C7 C 0.63775(18) 0.8433(3) 0.8885(2)
H7 H 0.6265 0.8666 0.8299
C8 C 0.6870(2) 0.7459(3) 1.1587(2)
C9 C 0.54939(19) 0.6765(3) 0.8263(2)
C10 C 0.5485(2) 0.5561(3) 0.8258(2)
H8 H 0.5804 0.5152 0.8761
C11 C 0.5000 0.4983(4) 0.7500
H9 H 0.5000 0.4184 0.7500
C12 C 0.5000 0.7329(4) 0.7500
H10 H 0.5000 0.8129 0.7500
C13 C 0.8598(2) 1.3810(3) 0.8565(2)
H11 H 0.8258 1.3874 0.7969
C14 C 0.9177(2) 1.4619(3) 0.8914(2)
H12 H 0.9226 1.5213 0.8553
C15 C 0.9689(2) 1.4562(3) 0.9797(2)
C16 C 0.9580(2) 1.3648(4) 1.0281(3)
H13 H 0.9909 1.3565 1.0880
C17 C 0.8994(3) 1.2863(4) 0.9890(3)
H14 H 0.8940 1.2252 1.0234
O1A O 0.29214(16) 1.0366(2) 0.64510(16)
O2A O 0.22539(16) 1.0726(2) 0.50217(17)
O3A O 0.26199(16) 0.8073(2) 0.28382(15)
O4A O 0.34973(19) 0.6657(2) 0.32390(16)
C1A C 0.2726(2) 1.0135(3) 0.5625(2)
C2A C 0.31080(18) 0.9084(3) 0.5421(2)
C3A C 0.29411(18) 0.8740(3) 0.4547(2)
H5A H 0.2589 0.9164 0.4076
C4A C 0.32960(18) 0.7770(3) 0.43736(19)
C5A C 0.38087(19) 0.7126(3) 0.5075(2)
H6A H 0.4045 0.6474 0.4954
C6A C 0.39760(18) 0.7441(3) 0.59602(19)
C7A C 0.36225(18) 0.8433(3) 0.6115(2)
H7A H 0.3735 0.8666 0.6701
C8A C 0.3130(2) 0.7459(3) 0.3413(2)
C9A C 0.45061(19) 0.6765(3) 0.6737(2)
C10A C 0.4515(2) 0.5561(3) 0.6742(2)
H8A H 0.4196 0.5152 0.6239
N1D N 1.15008(17) 1.7069(2) 1.09564(19)
C13D C 1.1402(2) 1.6190(3) 1.1435(2)
H11D H 1.1742 1.6126 1.2031
C14D C 1.0823(2) 1.5381(3) 1.1086(2)
H12D H 1.0774 1.4787 1.1447
C15D C 1.0311(2) 1.5438(3) 1.0203(2)
C16D C 1.0420(2) 1.6352(4) 0.9719(3)
H13D H 1.0091 1.6435 0.9120
C17D C 1.1006(3) 1.7137(4) 1.0110(3)
H14D H 1.1060 1.7748 0.9766
Zn1A Zn 0.23440(3) 1.17322(3) 0.65462(3)
O5A O 0.32601(19) 1.2926(3) 0.65046(19)
H1A H 0.306(3) 1.345(4) 0.614(3)
H2A H 0.336(3) 1.319(4) 0.694(3)
O6A O 0.13261(19) 1.0623(3) 0.6436(2)
H3A H 0.105(3) 1.086(4) 0.675(3)
H4A H 0.140(3) 0.982(4) 0.658(3)
Zn1D Zn 0.23440(3) 0.82678(3) 0.15462(3)
Zn1D_2 Zn 1.23440(3) 1.82678(3) 1.15462(3)
Zn1E Zn 0.76560(3) 0.82678(3) 1.34538(3)
O3D O 0.26199(16) 1.1927(2) 0.78382(15)
O3E O 0.73801(16) 1.1927(2) 0.71618(15)
N1A N 0.15008(17) 1.2931(2) 0.59564(19)
O7 O 0.0305(6) 0.3752(10) 0.2606(9)
O7A O -0.0305(6) 0.3752(10) 0.2394(9)
loop_
_geom_bond_atom_site_label_1
_geom_bond_atom_site_label_2
_geom_bond_site_symmetry_1
_geom_bond_site_symmetry_2
Zn1 O1 1_555 1_555
O1 C1 1_555 1_555
O2 C1 1_555 1_555
O3 C8 1_555 1_555
O4 C8 1_555 1_555
O5 Zn1 1_555 1_555
H1 O5 1_555 1_555
H2 O5 1_555 1_555
O6 Zn1 1_555 1_555
H3 O6 1_555 1_555
H4 O6 1_555 1_555
N1 Zn1 1_555 1_555
C1 C2 1_555 1_555
C2 C3 1_555 1_555
C3 H5 1_555 1_555
C4 C3 1_555 1_555
C5 C4 1_555 1_555
H6 C5 1_555 1_555
C6 C5 1_555 1_555
C7 C2 1_555 1_555
H7 C7 1_555 1_555
C8 C4 1_555 1_555
C9 C6 1_555 1_555
C10 C9 1_555 1_555
H8 C10 1_555 1_555
C11 C10 1_555 1_555
H9 C11 1_555 1_555
C12 C9 1_555 1_555
H10 C12 1_555 1_555
C13 N1 1_555 1_555
H11 C13 1_555 1_555
C14 C13 1_555 1_555
H12 C14 1_555 1_555
C15 C14 1_555 1_555
C16 C15 1_555 1_555
H13 C16 1_555 1_555
C17 N1 1_555 1_555
H14 C17 1_555 1_555
O1A C1A 1_555 1_555
O2A C1A 1_555 1_555
O3A C8A 1_555 1_555
O4A C8A 1_555 1_555
C1A C2A 1_555 1_555
C2A C3A 1_555 1_555
C3A H5A 1_555 1_555
C4A C3A 1_555 1_555
C5A C4A 1_555 1_555
H6A C5A 1_555 1_555
C6A C5A 1_555 1_555
C7A C2A 1_555 1_555
H7A C7A 1_555 1_555
C8A C4A 1_555 1_555
C9A C12 1_555 1_555
C10A C11 1_555 1_555
H8A C10A 1_555 1_555
N1D C13D 1_555 1_555
C13D H11D 1_555 1_555
C14D C13D 1_555 1_555
H12D C14D 1_555 1_555
C15D C15 1_555 1_555
C16D C15D 1_555 1_555
H13D C16D 1_555 1_555
C17D N1D 1_555 1_555
H14D C17D 1_555 1_555
Zn1A O1A 1_555 1_555
O5A Zn1A 1_555 1_555
H1A O5A 1_555 1_555
H2A O5A 1_555 1_555
O6A Zn1A 1_555 1_555
H3A O6A 1_555 1_555
H4A O6A 1_555 1_555
Zn1D O3A 1_555 1_555
Zn1D_2 N1D 1_555 1_555
Zn1E O3 1_555 1_555
O3D Zn1A 1_555 1_555
O3E Zn1 1_555 1_555
N1A Zn1A 1_555 1_555
C6 C7 1_555 1_555
C16 C17 1_555 1_555
C6A C7A 1_555 1_555
C6A C9A 1_555 1_555
C9A C10A 1_555 1_555
C14D C15D 1_555 1_555
C16D C17D 1_555 1_555

#END
