
#######################################################################
#
#                 Cambridge Crystallographic Data Centre
#                                CCDC 
#
#######################################################################
#
# If this CIF has been generated from an entry in the Cambridge 
# Structural Database, then it will include bibliographic, chemical, 
# crystal, experimental, refinement or atomic coordinate data resulting 
# from the CCDC's data processing and validation procedures.
#
#######################################################################

data_MONFEC
_symmetry_cell_setting           monoclinic
_symmetry_space_group_name_H-M   'P 21/c'
_symmetry_Int_Tables_number      14
_space_group_name_Hall           '-P 2ybc'
loop_
_symmetry_equiv_pos_site_id
_symmetry_equiv_pos_as_xyz
1 x,y,z
2 -x,1/2+y,1/2-z
3 -x,-y,-z
4 x,1/2-y,1/2+z
_cell_length_a                   13.1317(3)
_cell_length_b                   12.1256(3)
_cell_length_c                   7.8119(2)
_cell_angle_alpha                90
_cell_angle_beta                 99.734(2)
_cell_angle_gamma                90
_cell_volume                     1225.98
loop_
_atom_site_label
_atom_site_type_symbol
_atom_site_fract_x
_atom_site_fract_y
_atom_site_fract_z
Mn1 Mn 0.73682(3) 0.48229(4) 0.90140(5)
O1 O 0.13662(15) 0.09007(17) 0.4808(2)
N1 N 0.33549(18) 0.1488(2) 0.5839(3)
C1 C 0.1610(2) 0.1873(2) 0.4379(3)
Mn2 Mn 0.0000 0.5000 0.5000
O2 O 0.10638(16) 0.24991(17) 0.3349(3)
C2 C 0.2682(2) 0.2281(2) 0.5190(3)
O3 O 0.15329(15) 0.44222(17) 0.5772(2)
C3 C 0.2949(2) 0.3391(2) 0.5234(3)
O4 O 0.21979(16) 0.48848(18) 0.3447(3)
C4 C 0.3958(2) 0.3675(2) 0.5957(4)
H1 H 0.414(3) 0.440(3) 0.606(4)
O5 O 0.59326(16) 0.41408(18) 0.7798(3)
C5 C 0.4661(2) 0.2859(2) 0.6607(3)
O6 O 0.63734(16) 0.23609(19) 0.7861(3)
C6 C 0.4324(2) 0.1770(3) 0.6510(4)
H2 H 0.475(2) 0.118(3) 0.687(4)
O7 O -0.05305(15) 0.33896(17) 0.6079(2)
C7 C 0.2161(2) 0.4289(2) 0.4724(3)
O8 O 0.01926(16) 0.55949(18) 0.7706(3)
C8 C 0.5747(2) 0.3133(3) 0.7481(4)
O9 O 0.71219(17) 0.44599(19) 1.1618(3)
O10 O 0.82447(16) 0.32461(17) 0.8875(3)
Mn1B Mn -0.73682(3) 0.51771(4) 0.09860(5)
O1B O -0.13662(15) 0.90993(17) 0.5192(2)
N1B N -0.33549(18) 0.8512(2) 0.4161(3)
C1B C -0.1610(2) 0.8127(2) 0.5621(3)
O2B O -0.10638(16) 0.75009(17) 0.6651(3)
C2B C -0.2682(2) 0.7719(2) 0.4810(3)
O3B O -0.15329(15) 0.55778(17) 0.4228(2)
C3B C -0.2949(2) 0.6609(2) 0.4766(3)
O4B O -0.21979(16) 0.51152(18) 0.6553(3)
C4B C -0.3958(2) 0.6325(2) 0.4043(4)
H1B H -0.414(3) 0.560(3) 0.394(4)
O5B O -0.59326(16) 0.58592(18) 0.2202(3)
C5B C -0.4661(2) 0.7141(2) 0.3393(3)
O6B O -0.63734(16) 0.76391(19) 0.2139(3)
C6B C -0.4324(2) 0.8230(3) 0.3490(4)
H2B H -0.475(2) 0.882(3) 0.313(4)
O7B O 0.05305(15) 0.66104(17) 0.3921(2)
C7B C -0.2161(2) 0.5711(2) 0.5276(3)
O8B O -0.01926(16) 0.44051(18) 0.2294(3)
C8B C -0.5747(2) 0.6867(3) 0.2519(4)
O9B O -0.71219(17) 0.55401(19) -0.1618(3)
O10B O -0.82447(16) 0.67539(17) 0.1125(3)
Mn1_2 Mn -0.26318(3) 0.48229(4) 0.90140(5)
Mn1A Mn 0.26318(3) -0.01771(4) 0.59860(5)
Mn1B_2 Mn 0.26318(3) 0.51771(4) 0.09860(5)
Mn1C Mn -0.26318(3) 1.01771(4) 0.40140(5)
O1A O 0.86338(15) 0.59007(17) 1.0192(2)
O1C O -0.86338(15) 0.40993(17) -0.0192(2)
N1A N 0.66451(18) 0.6488(2) 0.9161(3)
N1C N -0.66451(18) 0.3512(2) 0.0839(3)
O4_2 O -0.78021(16) 0.48848(18) 0.3447(3)
O4B_2 O 0.78021(16) 0.51152(18) 0.6553(3)
loop_
_geom_bond_atom_site_label_1
_geom_bond_atom_site_label_2
_geom_bond_site_symmetry_1
_geom_bond_site_symmetry_2
Mn1 O5 1_555 1_555
O1 C1 1_555 1_555
N1 C2 1_555 1_555
C1 O2 1_555 1_555
Mn2 O3 1_555 1_555
C2 C1 1_555 1_555
O3 C7 1_555 1_555
C3 C2 1_555 1_555
O4 C7 1_555 1_555
C4 C3 1_555 1_555
H1 C4 1_555 1_555
O5 C8 1_555 1_555
C5 C4 1_555 1_555
O6 C8 1_555 1_555
C6 N1 1_555 1_555
H2 C6 1_555 1_555
O7 Mn2 1_555 1_555
C7 C3 1_555 1_555
O8 Mn2 1_555 1_555
C8 C5 1_555 1_555
O9 Mn1 1_555 1_555
O10 Mn1 1_555 1_555
Mn1B O5B 1_555 1_555
O1B C1B 1_555 1_555
N1B C2B 1_555 1_555
C1B O2B 1_555 1_555
C2B C1B 1_555 1_555
O3B Mn2 1_555 1_555
C3B C2B 1_555 1_555
O4B C7B 1_555 1_555
C4B C3B 1_555 1_555
H1B C4B 1_555 1_555
O5B C8B 1_555 1_555
C5B C4B 1_555 1_555
O6B C8B 1_555 1_555
C6B N1B 1_555 1_555
H2B C6B 1_555 1_555
O7B Mn2 1_555 1_555
C7B O3B 1_555 1_555
O8B Mn2 1_555 1_555
C8B C5B 1_555 1_555
O9B Mn1B 1_555 1_555
O10B Mn1B 1_555 1_555
Mn1_2 O4B 1_555 1_555
Mn1A O1 1_555 1_555
Mn1B_2 O4 1_555 1_555
Mn1C O1B 1_555 1_555
O1A Mn1 1_555 1_555
O1C Mn1B 1_555 1_555
N1A Mn1 1_555 1_555
N1C Mn1B 1_555 1_555
O4_2 Mn1B 1_555 1_555
O4B_2 Mn1 1_555 1_555
N1 Mn1A 1_555 1_555
C5 C6 1_555 1_555
N1B Mn1C 1_555 1_555
C3B C7B 1_555 1_555
C5B C6B 1_555 1_555

#END
