
#######################################################################
#
#                 Cambridge Crystallographic Data Centre
#                                CCDC 
#
#######################################################################
#
# If this CIF has been generated from an entry in the Cambridge 
# Structural Database, then it will include bibliographic, chemical, 
# crystal, experimental, refinement or atomic coordinate data resulting 
# from the CCDC's data processing and validation procedures.
#
#######################################################################

data_MONFAY
_symmetry_cell_setting           monoclinic
_symmetry_space_group_name_H-M   'P 21/c'
_symmetry_Int_Tables_number      14
_space_group_name_Hall           '-P 2ybc'
loop_
_symmetry_equiv_pos_site_id
_symmetry_equiv_pos_as_xyz
1 x,y,z
2 -x,1/2+y,1/2-z
3 -x,-y,-z
4 x,1/2-y,1/2+z
_cell_length_a                   12.8585(10)
_cell_length_b                   11.9873(10)
_cell_length_c                   7.6685(6)
_cell_angle_alpha                90
_cell_angle_beta                 98.896(7)
_cell_angle_gamma                90
_cell_volume                     1167.79
loop_
_atom_site_label
_atom_site_type_symbol
_atom_site_fract_x
_atom_site_fract_y
_atom_site_fract_z
Co1 Co 0.26570(7) 0.48850(7) 0.59428(13)
Co2 Co 0.0000 1.0000 0.5000
O1 O 0.1375(3) 0.5855(4) 0.4772(7)
O2 O 0.1062(4) 0.7475(4) 0.3311(8)
O3 O 0.2202(4) 0.9881(4) 0.3364(7)
O4 O 0.1507(3) 0.9400(4) 0.5711(7)
O5 O 0.5968(4) 0.9144(4) 0.7875(7)
O6 O 0.6434(4) 0.7348(4) 0.7900(9)
O7 O 0.2917(4) 0.4540(4) 0.3403(7)
H1 H 0.2983 0.3844 0.3244
H2 H 0.2407 0.4766 0.2645
O8 O 0.1775(4) 0.3365(4) 0.6018(7)
H3 H 0.1413 0.3207 0.5025
H4 H 0.2165 0.2801 0.6304
O9 O 0.0540(4) 1.1521(4) 0.3955(7)
H5 H 0.1050 1.1317 0.3445
H6 H 0.0061 1.1790 0.3183
O10 O -0.0213(4) 0.9358(4) 0.2410(7)
H7 H 0.0355 0.9107 0.2120
H8 H -0.0479 0.9866 0.1705
N1 N 0.3365(4) 0.6464(5) 0.5859(8)
C1 C 0.1607(5) 0.6844(6) 0.4356(9)
C2 C 0.2689(5) 0.7263(6) 0.5179(10)
C3 C 0.2974(5) 0.8377(6) 0.5197(10)
C4 C 0.3988(5) 0.8670(5) 0.5934(10)
H9 H 0.4199 0.9412 0.5959
C5 C 0.4688(5) 0.7844(6) 0.6636(11)
C6 C 0.4346(5) 0.6746(6) 0.6549(10)
H10 H 0.4816 0.6187 0.6986
C7 C 0.2160(5) 0.9285(6) 0.4663(10)
C8 C 0.5787(5) 0.8130(6) 0.7526(10)
Co1B Co -0.26570(7) 1.51150(7) 0.40572(13)
O1B O -0.1375(3) 1.4145(4) 0.5228(7)
O2B O -0.1062(4) 1.2525(4) 0.6689(8)
O3B O -0.2202(4) 1.0119(4) 0.6636(7)
O4B O -0.1507(3) 1.0600(4) 0.4289(7)
O5B O -0.5968(4) 1.0856(4) 0.2125(7)
O6B O -0.6434(4) 1.2652(4) 0.2100(9)
O7B O -0.2917(4) 1.5460(4) 0.6597(7)
H1B H -0.2983 1.6156 0.6756
H2B H -0.2407 1.5234 0.7355
O8B O -0.1775(4) 1.6635(4) 0.3982(7)
H3B H -0.1413 1.6793 0.4975
H4B H -0.2165 1.7199 0.3696
O9B O -0.0540(4) 0.8479(4) 0.6045(7)
H5B H -0.1050 0.8683 0.6555
H6B H -0.0061 0.8210 0.6817
O10B O 0.0213(4) 1.0642(4) 0.7590(7)
H7B H -0.0355 1.0893 0.7880
H8B H 0.0479 1.0134 0.8295
N1B N -0.3365(4) 1.3536(5) 0.4141(8)
C1B C -0.1607(5) 1.3156(6) 0.5644(9)
C2B C -0.2689(5) 1.2737(6) 0.4821(10)
C3B C -0.2974(5) 1.1623(6) 0.4803(10)
C4B C -0.3988(5) 1.1330(5) 0.4066(10)
H9B H -0.4199 1.0588 0.4041
C5B C -0.4688(5) 1.2156(6) 0.3364(11)
C6B C -0.4346(5) 1.3254(6) 0.3451(10)
H10B H -0.4816 1.3813 0.3014
C7B C -0.2160(5) 1.0715(6) 0.5337(10)
C8B C -0.5787(5) 1.1870(6) 0.2474(10)
Co1A Co -0.26570(7) 0.98850(7) 0.90572(13)
Co1A_2 Co 0.73430(7) 0.98850(7) 0.90572(13)
Co1C Co -0.73430(7) 1.01150(7) 0.09428(13)
Co1C_2 Co 0.26570(7) 1.01150(7) 0.09428(13)
O3A O -0.2202(4) 1.4881(4) 0.1636(7)
O3C O 0.2202(4) 0.5119(4) 0.8364(7)
O5A O 0.4032(4) 0.4144(4) 0.7125(7)
O5C O -0.4032(4) 1.5856(4) 0.2875(7)
loop_
_geom_bond_atom_site_label_1
_geom_bond_atom_site_label_2
_geom_bond_site_symmetry_1
_geom_bond_site_symmetry_2
Co1 O1 1_555 1_555
Co2 O4 1_555 1_555
O1 C1 1_555 1_555
O2 C1 1_555 1_555
O3 C7 1_555 1_555
O4 C7 1_555 1_555
O5 C8 1_555 1_555
O6 C8 1_555 1_555
O7 Co1 1_555 1_555
H1 O7 1_555 1_555
H2 O7 1_555 1_555
O8 Co1 1_555 1_555
H3 O8 1_555 1_555
H4 O8 1_555 1_555
O9 Co2 1_555 1_555
H5 O9 1_555 1_555
H6 O9 1_555 1_555
O10 Co2 1_555 1_555
H7 O10 1_555 1_555
H8 O10 1_555 1_555
N1 Co1 1_555 1_555
C1 C2 1_555 1_555
C2 N1 1_555 1_555
C3 C2 1_555 1_555
C4 C3 1_555 1_555
H9 C4 1_555 1_555
C5 C4 1_555 1_555
C6 N1 1_555 1_555
H10 C6 1_555 1_555
C7 C3 1_555 1_555
C8 C5 1_555 1_555
Co1B O1B 1_555 1_555
O1B C1B 1_555 1_555
O2B C1B 1_555 1_555
O3B C7B 1_555 1_555
O4B Co2 1_555 1_555
O5B C8B 1_555 1_555
O6B C8B 1_555 1_555
O7B Co1B 1_555 1_555
H1B O7B 1_555 1_555
H2B O7B 1_555 1_555
O8B Co1B 1_555 1_555
H3B O8B 1_555 1_555
H4B O8B 1_555 1_555
O9B Co2 1_555 1_555
H5B O9B 1_555 1_555
H6B O9B 1_555 1_555
O10B Co2 1_555 1_555
H7B O10B 1_555 1_555
H8B O10B 1_555 1_555
N1B Co1B 1_555 1_555
C1B C2B 1_555 1_555
C2B N1B 1_555 1_555
C3B C2B 1_555 1_555
C4B C3B 1_555 1_555
H9B C4B 1_555 1_555
C5B C4B 1_555 1_555
C6B N1B 1_555 1_555
H10B C6B 1_555 1_555
C7B O4B 1_555 1_555
C8B C5B 1_555 1_555
Co1A O3B 1_555 1_555
Co1A_2 O5 1_555 1_555
Co1C O5B 1_555 1_555
Co1C_2 O3 1_555 1_555
O3A Co1B 1_555 1_555
O3C Co1 1_555 1_555
O5A Co1 1_555 1_555
O5C Co1B 1_555 1_555
C5 C6 1_555 1_555
C3B C7B 1_555 1_555
C5B C6B 1_555 1_555

#END
