
#######################################################################
#
#                 Cambridge Crystallographic Data Centre
#                                CCDC 
#
#######################################################################
#
# If this CIF has been generated from an entry in the Cambridge 
# Structural Database, then it will include bibliographic, chemical, 
# crystal, experimental, refinement or atomic coordinate data resulting 
# from the CCDC's data processing and validation procedures.
#
#######################################################################

data_MONLUY
_symmetry_cell_setting           monoclinic
_symmetry_space_group_name_H-M   'P 21/n'
_symmetry_Int_Tables_number      14
_space_group_name_Hall           '-P 2yn'
loop_
_symmetry_equiv_pos_site_id
_symmetry_equiv_pos_as_xyz
1 x,y,z
2 1/2-x,1/2+y,1/2-z
3 -x,-y,-z
4 1/2+x,1/2-y,1/2+z
_cell_length_a                   9.8706(11)
_cell_length_b                   15.4989(18)
_cell_length_c                   17.095(2)
_cell_angle_alpha                90
_cell_angle_beta                 99.256(2)
_cell_angle_gamma                90
_cell_volume                     2581.2
loop_
_atom_site_label
_atom_site_type_symbol
_atom_site_fract_x
_atom_site_fract_y
_atom_site_fract_z
C1 C 0.5931(6) 0.2169(3) 0.1948(3)
H1 H 0.6871 0.2235 0.1961
C2 C 0.5463(6) 0.1673(4) 0.2534(3)
H2 H 0.6083 0.1421 0.2936
C3 C 0.4081(7) 0.1564(4) 0.2508(4)
H3 H 0.3758 0.1230 0.2891
C4 C 0.3157(6) 0.1950(3) 0.1909(3)
C5 C 0.3705(5) 0.2457(3) 0.1349(3)
C6 C 0.1705(6) 0.1870(4) 0.1850(4)
H4 H 0.1345 0.1524 0.2211
C7 C 0.0856(6) 0.2282(4) 0.1288(3)
H5 H -0.0087 0.2214 0.1259
C8 C 0.1374(5) 0.2828(3) 0.0728(3)
C9 C 0.2803(5) 0.2916(3) 0.0754(3)
C10 C 0.0517(6) 0.3308(4) 0.0160(4)
H6 H -0.0431 0.3262 0.0120
C11 C 0.1073(6) 0.3848(4) -0.0340(3)
H7 H 0.0510 0.4188 -0.0705
C12 C 0.2498(5) 0.3879(3) -0.0291(3)
H8 H 0.2867 0.4225 -0.0648
C13 C 0.8596(5) -0.0470(3) -0.3979(3)
C14 C 0.8446(5) 0.0106(3) -0.3286(3)
C15 C 0.9556(5) 0.0395(3) -0.2763(3)
H9 H 1.0437 0.0232 -0.2829
C16 C 0.9376(5) 0.0925(3) -0.2138(3)
H10 H 1.0141 0.1101 -0.1784
C17 C 0.8087(5) 0.1200(3) -0.2027(3)
C18 C 0.6969(5) 0.0906(3) -0.2561(3)
H11 H 0.6089 0.1076 -0.2500
C19 C 0.7141(5) 0.0369(3) -0.3176(3)
H12 H 0.6376 0.0178 -0.3523
C20 C 0.7884(5) 0.1813(3) -0.1365(3)
H13 H 0.7278 0.2276 -0.1583
H14 H 0.8762 0.2067 -0.1147
C21 C 0.6842(5) 0.2100(3) -0.0193(3)
C22 C 0.7270(5) 0.1371(3) -0.0687(3)
H15 H 0.6454 0.1043 -0.0916
C23 C 0.8319(5) 0.0753(3) -0.0227(3)
H16 H 0.8699 0.0395 -0.0603
H17 H 0.9065 0.1090 0.0061
C24 C 0.7756(5) 0.0177(3) 0.0350(3)
C25 C 0.7594(6) 0.0454(4) 0.1101(3)
H18 H 0.7797 0.1023 0.1248
C26 C 0.7409(6) -0.0687(4) 0.0158(3)
H19 H 0.7486 -0.0894 -0.0344
C27 C 0.6962(6) -0.1226(3) 0.0693(3)
H20 H 0.6761 -0.1797 0.0552
C28 C 0.6802(5) -0.0948(3) 0.1432(3)
C29 C 0.7136(6) -0.0102(4) 0.1633(3)
H21 H 0.7051 0.0097 0.2137
C30 C 0.6437(5) -0.1529(4) 0.2070(3)
N1 N 0.5073(4) 0.2546(2) 0.1376(2)
N2 N 0.3349(4) 0.3436(3) 0.0242(2)
O1 O 0.7606(3) 0.2369(2) 0.04097(18)
O2 O 0.5677(3) 0.2471(2) -0.04346(18)
O3 O 0.7592(4) -0.0870(2) -0.4323(2)
O4 O 0.9788(3) -0.0496(2) -0.41934(19)
O5 O 0.5791(4) -0.2264(3) 0.1856(2)
H22 H 0.5674 -0.2307 0.1372
O6 O 0.6735(4) -0.1347(3) 0.2765(2)
Pb1 Pb 0.595504(17) 0.369366(10) 0.045421(10)
O3A O 0.7408(4) 0.4130(2) -0.0677(2)
O4A O 0.5212(3) 0.4504(2) -0.08066(19)
Pb1A Pb 0.904496(17) -0.130634(10) -0.545421(10)
loop_
_geom_bond_atom_site_label_1
_geom_bond_atom_site_label_2
_geom_bond_site_symmetry_1
_geom_bond_site_symmetry_2
C1 H1 1_555 1_555
C2 C1 1_555 1_555
H2 C2 1_555 1_555
C3 C2 1_555 1_555
H3 C3 1_555 1_555
C4 C3 1_555 1_555
C5 C4 1_555 1_555
C6 C4 1_555 1_555
H4 C6 1_555 1_555
C7 C6 1_555 1_555
H5 C7 1_555 1_555
C8 C7 1_555 1_555
C9 C5 1_555 1_555
C10 C8 1_555 1_555
H6 C10 1_555 1_555
C11 C10 1_555 1_555
H7 C11 1_555 1_555
C12 C11 1_555 1_555
H8 C12 1_555 1_555
C13 C14 1_555 1_555
C14 C15 1_555 1_555
C15 H9 1_555 1_555
C16 C15 1_555 1_555
H10 C16 1_555 1_555
C17 C16 1_555 1_555
C18 C17 1_555 1_555
H11 C18 1_555 1_555
C19 C14 1_555 1_555
H12 C19 1_555 1_555
C20 C17 1_555 1_555
H13 C20 1_555 1_555
H14 C20 1_555 1_555
C21 C22 1_555 1_555
C22 C20 1_555 1_555
H15 C22 1_555 1_555
C23 C22 1_555 1_555
H16 C23 1_555 1_555
H17 C23 1_555 1_555
C24 C23 1_555 1_555
C25 C24 1_555 1_555
H18 C25 1_555 1_555
C26 C24 1_555 1_555
H19 C26 1_555 1_555
C27 C26 1_555 1_555
H20 C27 1_555 1_555
C28 C27 1_555 1_555
C29 C25 1_555 1_555
H21 C29 1_555 1_555
C30 C28 1_555 1_555
N1 C1 1_555 1_555
N2 C9 1_555 1_555
O1 C21 1_555 1_555
O2 C21 1_555 1_555
O3 C13 1_555 1_555
O4 C13 1_555 1_555
O5 C30 1_555 1_555
H22 O5 1_555 1_555
O6 C30 1_555 1_555
Pb1 N1 1_555 1_555
O3A Pb1 1_555 1_555
O4A Pb1 1_555 1_555
Pb1A O3 1_555 1_555
C5 N1 1_555 1_555
C8 C9 1_555 1_555
C12 N2 1_555 1_555
C18 C19 1_555 1_555
C28 C29 1_555 1_555
N2 Pb1 1_555 1_555
O1 Pb1 1_555 1_555
O2 Pb1 1_555 1_555
O4 Pb1A 1_555 1_555

#END
