
#######################################################################
#
#                 Cambridge Crystallographic Data Centre
#                                CCDC 
#
#######################################################################
#
# If this CIF has been generated from an entry in the Cambridge 
# Structural Database, then it will include bibliographic, chemical, 
# crystal, experimental, refinement or atomic coordinate data resulting 
# from the CCDC's data processing and validation procedures.
#
#######################################################################

data_MONLOQ
_symmetry_cell_setting           triclinic
_symmetry_space_group_name_H-M   'P -1'
_symmetry_Int_Tables_number      2
_space_group_name_Hall           '-P 1'
loop_
_symmetry_equiv_pos_site_id
_symmetry_equiv_pos_as_xyz
1 x,y,z
2 -x,-y,-z
_cell_length_a                   7.582(1)
_cell_length_b                   9.531(1)
_cell_length_c                   18.285(2)
_cell_angle_alpha                95.30(1)
_cell_angle_beta                 91.00(1)
_cell_angle_gamma                92.69(1)
_cell_volume                     1313.93
loop_
_atom_site_label
_atom_site_type_symbol
_atom_site_fract_x
_atom_site_fract_y
_atom_site_fract_z
Pb1 Pb 0.74171(4) 0.46035(3) 0.026755(17)
O1 O 0.5322(8) 0.4599(6) -0.0695(3)
N1 N 0.2799(10) 0.7823(8) 0.0364(4)
N2 N 0.3519(10) 0.6816(7) -0.1335(4)
C1 C 0.2166(12) 0.8980(9) -0.0062(5)
H1 H 0.0950 0.8741 -0.0236
H2 H 0.2164 0.9857 0.0263
C2 C 0.3323(13) 0.9211(9) -0.0717(5)
H3 H 0.4554 0.9092 -0.0573
H4 H 0.3232 1.0189 -0.0833
C3 C 0.2881(14) 0.8248(10) -0.1401(5)
H5 H 0.3427 0.8641 -0.1824
H6 H 0.1599 0.8184 -0.1486
C4 C 0.4268(12) 0.6253(9) -0.1887(5)
H7 H 0.4396 0.6797 -0.2287
C5 C 0.4960(11) 0.4851(9) -0.1973(5)
C6 C 0.5167(12) 0.4277(10) -0.2703(5)
H8 H 0.4892 0.4828 -0.3087
C7 C 0.5499(12) 0.4081(9) -0.1395(4)
C8 C 0.5899(13) 0.2339(10) -0.3668(5)
H9 H 0.6341 0.1398 -0.3681
H10 H 0.6706 0.2938 -0.3921
H11 H 0.4744 0.2293 -0.3908
C9 C 0.5755(11) 0.2939(10) -0.2881(5)
C10 C 0.6227(11) 0.2184(9) -0.2304(5)
H12 H 0.6587 0.1259 -0.2411
C11 C 0.6192(12) 0.2739(9) -0.1561(5)
C12 C 0.3214(11) 0.8168(9) 0.1033(5)
H13 H 0.3122 0.9123 0.1202
N3 N 0.8185(10) 0.7178(7) -0.0796(4)
O2 O 0.8002(11) 0.8004(8) -0.1278(4)
O3 O 0.7495(11) 0.7446(7) -0.0181(4)
O4 O 0.9089(9) 0.6112(7) -0.0906(4)
C11A C 0.3808(12) 0.7261(9) 0.1561(5)
C7A C 0.4501(12) 0.5919(9) 0.1395(4)
O1A O 0.4678(8) 0.5401(6) 0.0695(3)
C5A C 0.5040(11) 0.5149(9) 0.1973(5)
C4A C 0.5732(12) 0.3747(9) 0.1887(5)
N2A N 0.6481(10) 0.3184(7) 0.1335(4)
C3A C 0.7119(14) 0.1752(10) 0.1401(5)
C2A C 0.6677(13) 0.0789(9) 0.0717(5)
C1A C 0.7834(12) 0.1020(9) 0.0062(5)
N1A N 0.7201(10) 0.2177(8) -0.0364(4)
C12A C 0.6786(11) 0.1832(9) -0.1033(5)
H13A H 0.6878 0.0877 -0.1202
H1A H 0.9050 0.1259 0.0236
H2A H 0.7836 0.0143 -0.0263
H3A H 0.5446 0.0908 0.0573
H4A H 0.6768 -0.0189 0.0833
H5A H 0.6573 0.1359 0.1824
H6A H 0.8401 0.1816 0.1486
H7A H 0.5604 0.3203 0.2287
C6A C 0.4833(12) 0.5723(10) 0.2703(5)
H8A H 0.5108 0.5172 0.3087
C9A C 0.4245(11) 0.7061(10) 0.2881(5)
C8A C 0.4101(13) 0.7661(10) 0.3668(5)
H9A H 0.3659 0.8602 0.3681
H10A H 0.3294 0.7062 0.3921
H11A H 0.5256 0.7707 0.3908
C10A C 0.3773(11) 0.7816(9) 0.2304(5)
H12A H 0.3413 0.8741 0.2411
N3A N 1.1815(10) 0.2822(7) 0.0796(4)
O2A O 1.1998(11) 0.1996(8) 0.1278(4)
O3A O 1.2505(11) 0.2554(7) 0.0181(4)
O4A O 1.0911(9) 0.3888(7) 0.0906(4)
Pb1A Pb 0.25829(4) 0.53965(3) -0.026755(17)
Pb1A_2 Pb 1.25829(4) 0.53965(3) -0.026755(17)
O3A_2 O 0.2505(11) 0.2554(7) 0.0181(4)
O4_2 O -0.0911(9) 0.6112(7) -0.0906(4)
O4A_2 O 0.0911(9) 0.3888(7) 0.0906(4)
Pb2 Pb 0.76243(4) 0.54214(3) 0.530870(16)
O5 O 0.9672(8) 0.5493(6) 0.4357(3)
N4 N 0.8558(10) 0.6603(8) 0.6550(4)
N5 N 0.7966(10) 0.7936(8) 0.5034(4)
C13 C 0.7901(14) 0.8012(10) 0.6794(5)
H14 H 0.8335 0.8300 0.7296
H15 H 0.6608 0.7948 0.6800
C14 C 0.8491(14) 0.9099(9) 0.6302(5)
H16 H 0.9738 0.8977 0.6192
H17 H 0.8405 1.0034 0.6567
C15 C 0.7433(14) 0.9057(9) 0.5568(5)
H18 H 0.6171 0.8915 0.5662
H19 H 0.7610 0.9966 0.5362
C16 C 0.8282(12) 0.8318(9) 0.4401(5)
H20 H 0.8186 0.9285 0.4353
C17 C 0.8776(11) 0.7468(9) 0.3735(5)
C18 C 0.8619(12) 0.8081(10) 0.3082(5)
H21 H 0.8215 0.9001 0.3097
C19 C 0.9029(12) 0.7408(9) 0.2409(5)
C20 C 0.8784(15) 0.8113(12) 0.1705(6)
H22 H 0.9138 0.7486 0.1291
H23 H 0.9506 0.8984 0.1732
H24 H 0.7552 0.8317 0.1643
C21 C 0.9677(12) 0.6068(10) 0.2409(5)
H25 H 0.9964 0.5584 0.1958
C22 C 0.9916(12) 0.5414(9) 0.3053(5)
C23 C 0.9447(11) 0.6087(9) 0.3749(5)
C24 C 0.9348(13) 0.5988(9) 0.7036(5)
H26 H 0.9477 0.6482 0.7504
N6 N 0.6783(11) 0.2588(8) 0.4054(4)
O6 O 0.6831(13) 0.1693(10) 0.3524(5)
O7 O 0.5860(10) 0.3628(7) 0.4037(4)
O8 O 0.7650(11) 0.2420(8) 0.4615(4)
C22A C 1.0084(12) 0.4586(9) 0.6947(5)
C21A C 1.0323(12) 0.3932(10) 0.7591(5)
C19A C 1.0971(12) 0.2592(9) 0.7591(5)
C18A C 1.1381(12) 0.1919(10) 0.6918(5)
C17A C 1.1224(11) 0.2532(9) 0.6265(5)
C16A C 1.1718(12) 0.1682(9) 0.5599(5)
N5A N 1.2034(10) 0.2064(8) 0.4966(4)
C15A C 1.2567(14) 0.0943(9) 0.4432(5)
C14A C 1.1509(14) 0.0901(9) 0.3698(5)
C13A C 1.2099(14) 0.1988(10) 0.3206(5)
N4A N 1.1442(10) 0.3397(8) 0.3450(4)
C24A C 1.0652(13) 0.4012(9) 0.2964(5)
H26A H 1.0523 0.3518 0.2496
H14A H 1.1665 0.1700 0.2704
H15A H 1.3392 0.2052 0.3200
H16A H 1.0262 0.1023 0.3808
H17A H 1.1595 -0.0034 0.3433
H18A H 1.3829 0.1085 0.4338
H19A H 1.2390 0.0034 0.4638
H20A H 1.1814 0.0715 0.5647
C23A C 1.0553(11) 0.3913(9) 0.6251(5)
O5A O 1.0328(8) 0.4507(6) 0.5643(3)
H21A H 1.1785 0.0999 0.6903
C20A C 1.1216(15) 0.1887(12) 0.8295(6)
H22A H 1.0862 0.2514 0.8709
H23A H 1.0494 0.1016 0.8268
H24A H 1.2448 0.1683 0.8357
H25A H 1.0036 0.4416 0.8042
N6A N 0.3217(11) 0.7412(8) 0.5946(4)
O6A O 0.3169(13) 0.8307(10) 0.6476(5)
O7A O 0.4140(10) 0.6372(7) 0.5963(4)
O8A O 0.2350(11) 0.7580(8) 0.5385(4)
Pb2A Pb 1.23757(4) 0.45786(3) 0.469130(16)
Pb2A_2 Pb 0.23757(4) 0.45786(3) 0.469130(16)
O7_2 O 1.5860(10) 0.3628(7) 0.4037(4)
O7A_2 O 1.4140(10) 0.6372(7) 0.5963(4)
O8A_2 O 1.2350(11) 0.7580(8) 0.5385(4)
loop_
_geom_bond_atom_site_label_1
_geom_bond_atom_site_label_2
_geom_bond_site_symmetry_1
_geom_bond_site_symmetry_2
Pb1 O1 1_555 1_555
O1 C7 1_555 1_555
N1 C1 1_555 1_555
N2 C3 1_555 1_555
C1 H1 1_555 1_555
H2 C1 1_555 1_555
C2 C1 1_555 1_555
H3 C2 1_555 1_555
H4 C2 1_555 1_555
C3 C2 1_555 1_555
H5 C3 1_555 1_555
H6 C3 1_555 1_555
C4 N2 1_555 1_555
H7 C4 1_555 1_555
C5 C4 1_555 1_555
C6 C5 1_555 1_555
H8 C6 1_555 1_555
C7 C5 1_555 1_555
C8 H9 1_555 1_555
H10 C8 1_555 1_555
H11 C8 1_555 1_555
C9 C6 1_555 1_555
C10 C9 1_555 1_555
H12 C10 1_555 1_555
C11 C7 1_555 1_555
C12 N1 1_555 1_555
H13 C12 1_555 1_555
N3 O2 1_555 1_555
O3 Pb1 1_555 1_555
O4 Pb1 1_555 1_555
Pb2 O5 1_555 1_555
O5 C23 1_555 1_555
N4 Pb2 1_555 1_555
N5 Pb2 1_555 1_555
C13 N4 1_555 1_555
H14 C13 1_555 1_555
H15 C13 1_555 1_555
C14 C13 1_555 1_555
H16 C14 1_555 1_555
H17 C14 1_555 1_555
C15 N5 1_555 1_555
H18 C15 1_555 1_555
H19 C15 1_555 1_555
C16 N5 1_555 1_555
H20 C16 1_555 1_555
C17 C16 1_555 1_555
C18 C17 1_555 1_555
H21 C18 1_555 1_555
C19 C18 1_555 1_555
C20 C19 1_555 1_555
H22 C20 1_555 1_555
H23 C20 1_555 1_555
H24 C20 1_555 1_555
C21 C19 1_555 1_555
H25 C21 1_555 1_555
C22 C21 1_555 1_555
C23 C17 1_555 1_555
C24 N4 1_555 1_555
H26 C24 1_555 1_555
N6 O6 1_555 1_555
O7 Pb2 1_555 1_555
O8 Pb2 1_555 1_555
C11A C12 1_555 1_555
C7A C11A 1_555 1_555
O1A Pb1 1_555 1_555
C5A C7A 1_555 1_555
C4A C5A 1_555 1_555
N2A Pb1 1_555 1_555
C3A N2A 1_555 1_555
C2A C3A 1_555 1_555
C1A C2A 1_555 1_555
N1A Pb1 1_555 1_555
C12A C11 1_555 1_555
H13A C12A 1_555 1_555
H1A C1A 1_555 1_555
H2A C1A 1_555 1_555
H3A C2A 1_555 1_555
H4A C2A 1_555 1_555
H5A C3A 1_555 1_555
H6A C3A 1_555 1_555
H7A C4A 1_555 1_555
C6A C5A 1_555 1_555
H8A C6A 1_555 1_555
C9A C6A 1_555 1_555
C8A C9A 1_555 1_555
H9A C8A 1_555 1_555
H10A C8A 1_555 1_555
H11A C8A 1_555 1_555
C10A C11A 1_555 1_555
H12A C10A 1_555 1_555
C22A C24 1_555 1_555
C21A C22A 1_555 1_555
C19A C21A 1_555 1_555
C18A C19A 1_555 1_555
C17A C18A 1_555 1_555
C16A C17A 1_555 1_555
N5A C16A 1_555 1_555
C15A N5A 1_555 1_555
C14A C15A 1_555 1_555
C13A C14A 1_555 1_555
N4A C13A 1_555 1_555
C24A C22 1_555 1_555
H26A C24A 1_555 1_555
H14A C13A 1_555 1_555
H15A C13A 1_555 1_555
H16A C14A 1_555 1_555
H17A C14A 1_555 1_555
H18A C15A 1_555 1_555
H19A C15A 1_555 1_555
H20A C16A 1_555 1_555
C23A C22A 1_555 1_555
O5A Pb2 1_555 1_555
H21A C18A 1_555 1_555
C20A C19A 1_555 1_555
H22A C20A 1_555 1_555
H23A C20A 1_555 1_555
H24A C20A 1_555 1_555
H25A C21A 1_555 1_555
N3A O2A 1_555 1_555
O3A N3A 1_555 1_555
O4A Pb1 1_555 1_555
Pb1A O1 1_555 1_555
N6A O6A 1_555 1_555
O7A Pb2 1_555 1_555
O8A N6A 1_555 1_555
Pb2A O5 1_555 1_555
Pb1A_2 O4 1_555 1_555
Pb2A_2 O7 1_555 1_555
O3A_2 Pb1A 1_555 1_555
O4_2 Pb1A 1_555 1_555
O4A_2 Pb1A 1_555 1_555
O7_2 Pb2A 1_555 1_555
O7A_2 Pb2A 1_555 1_555
O8A_2 Pb2A 1_555 1_555
N1 Pb1A 1_555 1_555
N2 Pb1A 1_555 1_555
C8 C9 1_555 1_555
C10 C11 1_555 1_555
N3 O3 1_555 1_555
N3 O4 1_555 1_555
C14 C15 1_555 1_555
C22 C23 1_555 1_555
N6 O7 1_555 1_555
N6 O8 1_555 1_555
C7A O1A 1_555 1_555
O1A Pb1A 1_555 1_555
C4A N2A 1_555 1_555
C1A N1A 1_555 1_555
N1A C12A 1_555 1_555
C9A C10A 1_555 1_555
C17A C23A 1_555 1_555
N5A Pb2A 1_555 1_555
N4A C24A 1_555 1_555
N4A Pb2A 1_555 1_555
C23A O5A 1_555 1_555
O5A Pb2A 1_555 1_555
N3A O4A 1_555 1_555
O3A Pb1A_2 1_555 1_555
O4A Pb1A_2 1_555 1_555
N6A O7A 1_555 1_555
O7A Pb2A_2 1_555 1_555
O8A Pb2A_2 1_555 1_555

#END
