
#######################################################################
#
#                 Cambridge Crystallographic Data Centre
#                                CCDC 
#
#######################################################################
#
# If this CIF has been generated from an entry in the Cambridge 
# Structural Database, then it will include bibliographic, chemical, 
# crystal, experimental, refinement or atomic coordinate data resulting 
# from the CCDC's data processing and validation procedures.
#
#######################################################################

data_MONMAF
_symmetry_cell_setting           monoclinic
_symmetry_space_group_name_H-M   'P 21/c'
_symmetry_Int_Tables_number      14
_space_group_name_Hall           '-P 2ybc'
loop_
_symmetry_equiv_pos_site_id
_symmetry_equiv_pos_as_xyz
1 x,y,z
2 -x,1/2+y,1/2-z
3 -x,-y,-z
4 x,1/2-y,1/2+z
_cell_length_a                   12.2464(8)
_cell_length_b                   21.4616(14)
_cell_length_c                   10.2707(7)
_cell_angle_alpha                90
_cell_angle_beta                 105.7360(10)
_cell_angle_gamma                90
_cell_volume                     2598.25
loop_
_atom_site_label
_atom_site_type_symbol
_atom_site_fract_x
_atom_site_fract_y
_atom_site_fract_z
C1 C 0.0244(2) -0.08580(15) 1.1446(3)
H1 H 0.0319 -0.0427 1.1428
C2 C -0.0505(3) -0.1110(2) 1.2119(3)
H2 H -0.0923 -0.0853 1.2533
C3 C -0.0609(3) -0.1739(2) 1.2156(3)
H3 H -0.1098 -0.1914 1.2606
C4 C 0.0009(2) -0.21251(16) 1.1529(3)
C5 C 0.0736(2) -0.18375(12) 1.0850(3)
C6 C 0.1392(2) -0.22128(11) 1.0192(2)
C7 C 0.1339(3) -0.28691(13) 1.0266(3)
C8 C 0.0596(3) -0.31434(16) 1.0961(4)
H4 H 0.0553 -0.3575 1.1010
C9 C -0.0041(3) -0.27923(19) 1.1542(4)
H5 H -0.0530 -0.2986 1.1967
C10 C 0.2013(3) -0.32167(14) 0.9631(4)
H6 H 0.2007 -0.3650 0.9668
C11 C 0.2680(3) -0.29201(14) 0.8957(3)
H7 H 0.3129 -0.3146 0.8528
C12 C 0.2676(3) -0.22714(13) 0.8925(3)
H8 H 0.3132 -0.2072 0.8463
C13 C 0.2768(3) -0.04408(12) 0.7509(3)
C14 C 0.2709(2) -0.00864(11) 0.6229(3)
C15 C 0.3671(3) 0.01398(14) 0.5939(3)
H9 H 0.4386 0.0039 0.6489
C16 C 0.3558(3) 0.05271(14) 0.4796(3)
H10 H 0.4203 0.0687 0.4604
C17 C 0.2492(3) 0.06710(12) 0.3957(3)
C18 C 0.1559(3) 0.04223(14) 0.4232(3)
H11 H 0.0844 0.0502 0.3656
C19 C 0.1661(3) 0.00540(13) 0.5354(3)
H12 H 0.1009 -0.0105 0.5530
C20 C 0.2372(3) 0.11294(13) 0.2793(3)
H13 H 0.1575 0.1157 0.2306
H14 H 0.2607 0.1537 0.3172
C21 C 0.3030(2) 0.09785(11) 0.1794(3)
H15 H 0.3825 0.0928 0.2311
C22 C 0.5176(2) 0.37432(11) 0.3390(3)
C23 C 0.2994(2) 0.15009(10) 0.0759(3)
H16 H 0.3376 0.1360 0.0100
H17 H 0.2210 0.1586 0.0283
C24 C 0.3544(2) 0.20924(11) 0.1402(2)
C25 C 0.2941(2) 0.26434(11) 0.1337(3)
H18 H 0.2180 0.2654 0.0850
C26 C 0.3450(2) 0.31799(11) 0.1985(3)
H19 H 0.3027 0.3542 0.1949
C27 C 0.4587(2) 0.31737(10) 0.2685(3)
C28 C 0.5192(2) 0.26279(12) 0.2726(3)
H20 H 0.5960 0.2620 0.3182
C29 C 0.4676(2) 0.20929(12) 0.2100(3)
H21 H 0.5098 0.1729 0.2151
C30 C 0.2668(2) 0.03744(10) 0.1052(2)
N1 N 0.08511(18) -0.12054(10) 1.0833(2)
N2 N 0.20558(19) -0.19234(10) 0.9517(2)
O1 O 0.18421(18) -0.05563(10) 0.77725(19)
O2 O 0.37228(18) -0.05979(9) 0.82658(19)
O3 O 0.62217(16) 0.37726(8) 0.3512(2)
O4 O 0.45813(15) 0.41344(7) 0.37918(19)
O5 O 0.17025(18) 0.01602(10) 0.0877(2)
O6 O 0.33647(17) 0.00876(8) 0.0593(2)
Cd1 Cd 0.229329(15) -0.082274(8) 0.995122(18)
Cd2 Cd 0.5000 0.0000 1.0000
C1B C 0.9756(2) 0.08580(15) -0.1446(3)
H1B H 0.9681 0.0427 -0.1428
C2B C 1.0505(3) 0.1110(2) -0.2119(3)
H2B H 1.0923 0.0853 -0.2533
C3B C 1.0609(3) 0.1739(2) -0.2156(3)
H3B H 1.1098 0.1914 -0.2606
C4B C 0.9991(2) 0.21251(16) -0.1529(3)
C5B C 0.9264(2) 0.18375(12) -0.0850(3)
C6B C 0.8608(2) 0.22128(11) -0.0192(2)
C7B C 0.8661(3) 0.28691(13) -0.0266(3)
C8B C 0.9404(3) 0.31434(16) -0.0961(4)
H4B H 0.9447 0.3575 -0.1010
C9B C 1.0041(3) 0.27923(19) -0.1542(4)
H5B H 1.0530 0.2986 -0.1967
C10B C 0.7987(3) 0.32167(14) 0.0369(4)
H6B H 0.7993 0.3650 0.0332
C11B C 0.7320(3) 0.29201(14) 0.1043(3)
H7B H 0.6871 0.3146 0.1472
C12B C 0.7324(3) 0.22714(13) 0.1075(3)
H8B H 0.6868 0.2072 0.1537
C13B C 0.7232(3) 0.04408(12) 0.2491(3)
C14B C 0.7291(2) 0.00864(11) 0.3771(3)
C15B C 0.6329(3) -0.01398(14) 0.4061(3)
H9B H 0.5614 -0.0039 0.3511
C16B C 0.6442(3) -0.05271(14) 0.5204(3)
H10B H 0.5797 -0.0687 0.5396
C17B C 0.7508(3) -0.06710(12) 0.6043(3)
C18B C 0.8441(3) -0.04223(14) 0.5768(3)
H11B H 0.9156 -0.0502 0.6344
C19B C 0.8339(3) -0.00540(13) 0.4646(3)
H12B H 0.8991 0.0105 0.4470
C20B C 0.7628(3) -0.11294(13) 0.7207(3)
H13B H 0.8425 -0.1157 0.7694
H14B H 0.7393 -0.1537 0.6828
C21B C 0.6970(2) -0.09785(11) 0.8206(3)
H15B H 0.6175 -0.0928 0.7689
C22B C 0.4824(2) -0.37432(11) 0.6610(3)
C23B C 0.7006(2) -0.15009(10) 0.9241(3)
H16B H 0.6624 -0.1360 0.9900
H17B H 0.7790 -0.1586 0.9717
C24B C 0.6456(2) -0.20924(11) 0.8598(2)
C25B C 0.7059(2) -0.26434(11) 0.8663(3)
H18B H 0.7820 -0.2654 0.9150
C26B C 0.6550(2) -0.31799(11) 0.8015(3)
H19B H 0.6973 -0.3542 0.8051
C27B C 0.5413(2) -0.31737(10) 0.7315(3)
C28B C 0.4808(2) -0.26279(12) 0.7274(3)
H20B H 0.4040 -0.2620 0.6818
C29B C 0.5324(2) -0.20929(12) 0.7900(3)
H21B H 0.4902 -0.1729 0.7849
C30B C 0.7332(2) -0.03744(10) 0.8948(2)
N1B N 0.91489(18) 0.12054(10) -0.0833(2)
N2B N 0.79442(19) 0.19234(10) 0.0483(2)
O1B O 0.81579(18) 0.05563(10) 0.22275(19)
O2B O 0.62772(18) 0.05979(9) 0.17342(19)
O3B O 0.37783(16) -0.37726(8) 0.6488(2)
O4B O 0.54187(15) -0.41344(7) 0.62082(19)
O5B O 0.82975(18) -0.01602(10) 0.9123(2)
O6B O 0.66353(17) -0.00876(8) 0.9407(2)
Cd1B Cd 0.770671(15) 0.082274(8) 0.004878(18)
O2B_2 O 0.62772(18) 0.05979(9) 1.17342(19)
O3A O 0.37783(16) -0.12274(8) 1.1488(2)
O3C O 0.62217(16) 0.12274(8) -0.1488(2)
O4A O 0.54187(15) -0.08656(7) 1.12082(19)
O4C O 0.45813(15) 0.08656(7) 0.87918(19)
O5_2 O 0.17025(18) 0.01602(10) 1.0877(2)
O5B_2 O 0.82975(18) -0.01602(10) -0.0877(2)
O6_2 O 0.33647(17) 0.00876(8) 1.0593(2)
O6B_2 O 0.66353(17) -0.00876(8) -0.0593(2)
Cd1_2 Cd 0.229329(15) -0.082274(8) -0.004878(18)
Cd1A Cd 0.770671(15) 0.417726(8) 0.504878(18)
Cd1B_2 Cd 0.770671(15) 0.082274(8) 1.004878(18)
Cd1C Cd 0.229329(15) -0.417726(8) 0.495122(18)
Cd2_2 Cd 0.5000 0.0000 0.0000
Cd2A Cd 0.5000 -0.5000 0.5000
Cd2A_2 Cd 0.5000 0.5000 0.5000
loop_
_geom_bond_atom_site_label_1
_geom_bond_atom_site_label_2
_geom_bond_site_symmetry_1
_geom_bond_site_symmetry_2
C1 H1 1_555 1_555
C2 C1 1_555 1_555
H2 C2 1_555 1_555
C3 C2 1_555 1_555
H3 C3 1_555 1_555
C4 C3 1_555 1_555
C5 C4 1_555 1_555
C6 C5 1_555 1_555
C7 C6 1_555 1_555
C8 C7 1_555 1_555
H4 C8 1_555 1_555
C9 C4 1_555 1_555
H5 C9 1_555 1_555
C10 C7 1_555 1_555
H6 C10 1_555 1_555
C11 C10 1_555 1_555
H7 C11 1_555 1_555
C12 C11 1_555 1_555
H8 C12 1_555 1_555
C13 C14 1_555 1_555
C14 C15 1_555 1_555
C15 H9 1_555 1_555
C16 C15 1_555 1_555
H10 C16 1_555 1_555
C17 C16 1_555 1_555
C18 C17 1_555 1_555
H11 C18 1_555 1_555
C19 C14 1_555 1_555
H12 C19 1_555 1_555
C20 C17 1_555 1_555
H13 C20 1_555 1_555
H14 C20 1_555 1_555
C21 C20 1_555 1_555
H15 C21 1_555 1_555
C22 C27 1_555 1_555
C23 C21 1_555 1_555
H16 C23 1_555 1_555
H17 C23 1_555 1_555
C24 C23 1_555 1_555
C25 C24 1_555 1_555
H18 C25 1_555 1_555
C26 C25 1_555 1_555
H19 C26 1_555 1_555
C27 C26 1_555 1_555
C28 C27 1_555 1_555
H20 C28 1_555 1_555
C29 C24 1_555 1_555
H21 C29 1_555 1_555
C30 C21 1_555 1_555
N1 C1 1_555 1_555
N2 C6 1_555 1_555
O1 C13 1_555 1_555
O2 C13 1_555 1_555
O3 C22 1_555 1_555
O4 C22 1_555 1_555
O5 C30 1_555 1_555
O6 C30 1_555 1_555
Cd1 N1 1_555 1_555
Cd2 O2 1_555 1_555
C1B H1B 1_555 1_555
C2B C1B 1_555 1_555
H2B C2B 1_555 1_555
C3B C2B 1_555 1_555
H3B C3B 1_555 1_555
C4B C3B 1_555 1_555
C5B C4B 1_555 1_555
C6B C5B 1_555 1_555
C7B C6B 1_555 1_555
C8B C7B 1_555 1_555
H4B C8B 1_555 1_555
C9B C4B 1_555 1_555
H5B C9B 1_555 1_555
C10B C7B 1_555 1_555
H6B C10B 1_555 1_555
C11B C10B 1_555 1_555
H7B C11B 1_555 1_555
C12B C11B 1_555 1_555
H8B C12B 1_555 1_555
C13B C14B 1_555 1_555
C14B C15B 1_555 1_555
C15B H9B 1_555 1_555
C16B C15B 1_555 1_555
H10B C16B 1_555 1_555
C17B C16B 1_555 1_555
C18B C17B 1_555 1_555
H11B C18B 1_555 1_555
C19B C14B 1_555 1_555
H12B C19B 1_555 1_555
C20B C17B 1_555 1_555
H13B C20B 1_555 1_555
H14B C20B 1_555 1_555
C21B C20B 1_555 1_555
H15B C21B 1_555 1_555
C22B C27B 1_555 1_555
C23B C21B 1_555 1_555
H16B C23B 1_555 1_555
H17B C23B 1_555 1_555
C24B C23B 1_555 1_555
C25B C24B 1_555 1_555
H18B C25B 1_555 1_555
C26B C25B 1_555 1_555
H19B C26B 1_555 1_555
C27B C26B 1_555 1_555
C28B C27B 1_555 1_555
H20B C28B 1_555 1_555
C29B C24B 1_555 1_555
H21B C29B 1_555 1_555
C30B C21B 1_555 1_555
N1B C1B 1_555 1_555
N2B C6B 1_555 1_555
O1B C13B 1_555 1_555
O2B C13B 1_555 1_555
O3B C22B 1_555 1_555
O4B C22B 1_555 1_555
O5B C30B 1_555 1_555
O6B Cd2 1_555 1_555
Cd1B N1B 1_555 1_555
O2B_2 Cd2 1_555 1_555
O3A Cd1 1_555 1_555
O3C Cd1B 1_555 1_555
O4A Cd2 1_555 1_555
O4C Cd2 1_555 1_555
O5_2 Cd1 1_555 1_555
O5B_2 Cd1B 1_555 1_555
O6_2 Cd1 1_555 1_555
O6B_2 Cd1B 1_555 1_555
Cd1_2 O5 1_555 1_555
Cd1A O3 1_555 1_555
Cd1B_2 O5B 1_555 1_555
Cd1C O3B 1_555 1_555
Cd2_2 O6 1_555 1_555
Cd2A O4B 1_555 1_555
Cd2A_2 O4 1_555 1_555
C5 N1 1_555 1_555
C8 C9 1_555 1_555
C12 N2 1_555 1_555
C18 C19 1_555 1_555
C28 C29 1_555 1_555
N2 Cd1 1_555 1_555
O1 Cd1 1_555 1_555
O2 Cd1 1_555 1_555
O6 Cd1_2 1_555 1_555
Cd2 O6_2 1_555 1_555
C5B N1B 1_555 1_555
C8B C9B 1_555 1_555
C12B N2B 1_555 1_555
C18B C19B 1_555 1_555
C28B C29B 1_555 1_555
C30B O6B 1_555 1_555
N2B Cd1B 1_555 1_555
O1B Cd1B 1_555 1_555
O2B Cd1B 1_555 1_555
O2B Cd2_2 1_555 1_555
O6B Cd1B_2 1_555 1_555
O2B_2 Cd1B_2 1_555 1_555
O6B_2 Cd2_2 1_555 1_555

#END
