
#######################################################################
#
#                 Cambridge Crystallographic Data Centre
#                                CCDC 
#
#######################################################################
#
# If this CIF has been generated from an entry in the Cambridge 
# Structural Database, then it will include bibliographic, chemical, 
# crystal, experimental, refinement or atomic coordinate data resulting 
# from the CCDC's data processing and validation procedures.
#
#######################################################################

data_MONNAE
_symmetry_cell_setting           monoclinic
_symmetry_space_group_name_H-M   'P 21/n'
_symmetry_Int_Tables_number      14
_space_group_name_Hall           '-P 2yn'
loop_
_symmetry_equiv_pos_site_id
_symmetry_equiv_pos_as_xyz
1 x,y,z
2 1/2+x,1/2-y,1/2+z
3 -x,-y,-z
4 1/2-x,1/2+y,1/2-z
_cell_length_a                   7.054(2)
_cell_length_b                   14.793(4)
_cell_length_c                   13.249(4)
_cell_angle_alpha                90
_cell_angle_beta                 101.286(3)
_cell_angle_gamma                90
_cell_volume                     1355.8
loop_
_atom_site_label
_atom_site_type_symbol
_atom_site_fract_x
_atom_site_fract_y
_atom_site_fract_z
Ag1 Ag 0.23949(3) 0.523773(14) 0.241243(17)
S1 S 0.44786(11) 0.27042(5) 0.19397(6)
N1 N 0.4407(4) 0.34979(15) 0.27875(18)
C1 C 0.3146(4) 0.32423(17) 0.3361(2)
C2 C 0.2260(4) 0.23868(17) 0.3058(2)
N2 N 0.2902(4) 0.20128(16) 0.22719(19)
N3 N 0.2697(3) 0.47154(14) 0.40752(18)
C3 C 0.2888(4) 0.38176(17) 0.4250(2)
C4 C 0.2918(4) 0.3436(2) 0.5218(2)
H1 H 0.3062 0.2802 0.5319
C5 C 0.2733(5) 0.4003(2) 0.6031(2)
H2 H 0.2742 0.3762 0.6696
C6 C 0.2536(4) 0.4929(2) 0.5858(2)
H3 H 0.2407 0.5330 0.6400
C7 C 0.2531(4) 0.52514(18) 0.4877(2)
H4 H 0.2405 0.5884 0.4762
N4 N 0.0770(3) 0.10061(14) 0.34877(16)
C8 C 0.0731(4) 0.19269(17) 0.34810(19)
C9 C -0.0731(4) 0.24059(19) 0.3809(2)
H5 H -0.0774 0.3047 0.3764
C10 C -0.2127(4) 0.1937(2) 0.4204(2)
H6 H -0.3122 0.2252 0.4447
C11 C -0.2043(5) 0.1000(2) 0.4237(2)
H7 H -0.2966 0.0664 0.4516
C12 C -0.0603(5) 0.05631(19) 0.3858(2)
H8 H -0.0584 -0.0079 0.3860
N5 N -0.0856(4) 0.39382(16) 0.14147(19)
O1 O -0.2429(4) 0.35495(17) 0.1118(2)
O2 O 0.0466(4) 0.3853(2) 0.0947(2)
O3 O -0.0618(3) 0.44233(17) 0.22131(18)
N4C N 0.4230(3) 0.60061(14) 0.15123(16)
Ag1C Ag 0.26051(3) 0.023773(14) 0.258757(17)
loop_
_geom_bond_atom_site_label_1
_geom_bond_atom_site_label_2
_geom_bond_site_symmetry_1
_geom_bond_site_symmetry_2
Ag1 N3 1_555 1_555
S1 N1 1_555 1_555
N1 C1 1_555 1_555
C1 C2 1_555 1_555
C2 N2 1_555 1_555
N2 S1 1_555 1_555
N3 C3 1_555 1_555
C3 C1 1_555 1_555
C4 C3 1_555 1_555
H1 C4 1_555 1_555
C5 C4 1_555 1_555
H2 C5 1_555 1_555
C6 C5 1_555 1_555
H3 C6 1_555 1_555
C7 N3 1_555 1_555
H4 C7 1_555 1_555
N4 C8 1_555 1_555
C8 C2 1_555 1_555
C9 C8 1_555 1_555
H5 C9 1_555 1_555
C10 C9 1_555 1_555
H6 C10 1_555 1_555
C11 C10 1_555 1_555
H7 C11 1_555 1_555
C12 N4 1_555 1_555
H8 C12 1_555 1_555
N5 O1 1_555 1_555
O2 N5 1_555 1_555
O3 Ag1 1_555 1_555
N4C Ag1 1_555 1_555
Ag1C N4 1_555 1_555
C6 C7 1_555 1_555
C11 C12 1_555 1_555
N5 O3 1_555 1_555

#END
