
#######################################################################
#
#                 Cambridge Crystallographic Data Centre
#                                CCDC 
#
#######################################################################
#
# If this CIF has been generated from an entry in the Cambridge 
# Structural Database, then it will include bibliographic, chemical, 
# crystal, experimental, refinement or atomic coordinate data resulting 
# from the CCDC's data processing and validation procedures.
#
#######################################################################

data_MONPIQ
_symmetry_cell_setting           triclinic
_symmetry_space_group_name_H-M   'P -1'
_symmetry_Int_Tables_number      2
_space_group_name_Hall           '-P 1'
loop_
_symmetry_equiv_pos_site_id
_symmetry_equiv_pos_as_xyz
1 x,y,z
2 -x,-y,-z
_cell_length_a                   8.128(2)
_cell_length_b                   8.606(2)
_cell_length_c                   8.614(2)
_cell_angle_alpha                73.415(16)
_cell_angle_beta                 85.388(11)
_cell_angle_gamma                88.509(12)
_cell_volume                     575.605
loop_
_atom_site_label
_atom_site_type_symbol
_atom_site_fract_x
_atom_site_fract_y
_atom_site_fract_z
Li1 Li 0.7547(2) -0.2361(2) 0.1657(2)
O1 O 0.79899(10) -0.29823(9) 0.39484(9)
N1 N 0.65652(10) -0.00583(10) 0.14688(10)
N2 N 1.02210(11) 0.20015(11) -0.03388(11)
N3 N 0.67714(11) 0.54965(11) 0.13469(11)
N4 N 0.47819(10) 0.17477(10) 0.22272(10)
C1 C 0.73038(12) 0.14227(11) 0.10818(11)
C2 C 0.62164(12) 0.25139(12) 0.15466(12)
C3 C 0.50820(12) 0.02451(11) 0.21405(11)
C4 C 0.89200(12) 0.17319(11) 0.02975(12)
C5 C 0.65011(12) 0.41731(12) 0.14230(12)
C6 C 0.38523(12) -0.10710(12) 0.28531(12)
F1 F 0.37713(8) -0.15446(8) 0.44854(7)
F2 F 0.42344(8) -0.23981(8) 0.23717(8)
F3 F 0.23264(8) -0.06240(8) 0.24419(8)
C7 C 0.85643(15) -0.18136(14) 0.46874(14)
H1 H 0.7607(18) -0.1146(17) 0.4909(17)
H2 H 0.9364(18) -0.1114(18) 0.3859(18)
C8 C 0.92628(18) -0.28099(18) 0.62440(17)
H3 H 0.909(2) -0.225(2) 0.713(2)
H4 H 1.042(2) -0.296(2) 0.608(2)
C9 C 0.83599(17) -0.44346(16) 0.66683(15)
H5 H 0.915(2) -0.535(2) 0.677(2)
H6 H 0.770(2) -0.463(2) 0.772(2)
C10 C 0.72821(16) -0.42745(15) 0.52694(14)
H7 H 0.728(2) -0.523(2) 0.490(2)
H8 H 0.610(2) -0.398(2) 0.555(2)
Li1_2 Li 0.7547(2) 0.7639(2) 0.1657(2)
Li1A Li 1.2453(2) 0.2361(2) -0.1657(2)
N2A N 0.97790(11) -0.20015(11) 0.03388(11)
N3_2 N 0.67714(11) -0.45035(11) 0.13469(11)
loop_
_geom_bond_atom_site_label_1
_geom_bond_atom_site_label_2
_geom_bond_site_symmetry_1
_geom_bond_site_symmetry_2
Li1 O1 1_555 1_555
O1 C7 1_555 1_555
N1 Li1 1_555 1_555
N2 C4 1_555 1_555
N3 C5 1_555 1_555
N4 C2 1_555 1_555
C1 N1 1_555 1_555
C2 C1 1_555 1_555
C3 N1 1_555 1_555
C4 C1 1_555 1_555
C5 C2 1_555 1_555
C6 C3 1_555 1_555
F1 C6 1_555 1_555
F2 C6 1_555 1_555
F3 C6 1_555 1_555
C7 H1 1_555 1_555
H2 C7 1_555 1_555
C8 C7 1_555 1_555
H3 C8 1_555 1_555
H4 C8 1_555 1_555
C9 C8 1_555 1_555
H5 C9 1_555 1_555
H6 C9 1_555 1_555
C10 O1 1_555 1_555
H7 C10 1_555 1_555
H8 C10 1_555 1_555
Li1_2 N3 1_555 1_555
Li1A N2 1_555 1_555
N2A Li1 1_555 1_555
N3_2 Li1 1_555 1_555
N4 C3 1_555 1_555
C9 C10 1_555 1_555

#END
