
#######################################################################
#
#                 Cambridge Crystallographic Data Centre
#                                CCDC 
#
#######################################################################
#
# If this CIF has been generated from an entry in the Cambridge 
# Structural Database, then it will include bibliographic, chemical, 
# crystal, experimental, refinement or atomic coordinate data resulting 
# from the CCDC's data processing and validation procedures.
#
#######################################################################

data_MONPAI
_symmetry_cell_setting           triclinic
_symmetry_space_group_name_H-M   'P -1'
_symmetry_Int_Tables_number      2
_space_group_name_Hall           '-P 1'
loop_
_symmetry_equiv_pos_site_id
_symmetry_equiv_pos_as_xyz
1 x,y,z
2 -x,-y,-z
_cell_length_a                   7.8709(16)
_cell_length_b                   8.8711(18)
_cell_length_c                   19.835(4)
_cell_angle_alpha                100.55(3)
_cell_angle_beta                 92.53(3)
_cell_angle_gamma                92.59(3)
_cell_volume                     1358.21
loop_
_atom_site_label
_atom_site_type_symbol
_atom_site_fract_x
_atom_site_fract_y
_atom_site_fract_z
Ba1 Ba 0.48174(3) 0.75159(2) 0.042730(11)
Ba2 Ba 0.96358(3) 0.73645(3) 0.154949(11)
C1 C 0.5692(5) 0.4724(4) 0.1384(2)
C2 C 0.5439(5) 0.3613(4) 0.18722(19)
C3 C 0.4489(4) 0.2219(4) 0.16656(19)
H1 H 0.4083 0.1920 0.1211
C4 C 0.4151(5) 0.1281(4) 0.21387(19)
C5 C 0.2973(5) -0.0141(4) 0.1934(2)
C6 C 0.4817(5) 0.1703(5) 0.2812(2)
H2 H 0.4581 0.1085 0.3131
C7 C 0.5840(5) 0.3055(5) 0.30104(19)
C8 C 0.6121(5) 0.4017(5) 0.25415(19)
H3 H 0.6768 0.4935 0.2677
C9 C 0.7297(6) 0.2632(5) 0.4063(2)
C10 C 0.7892(5) 0.3305(5) 0.4797(2)
C11 C 0.7397(7) 0.4689(5) 0.5142(2)
H4 H 0.6736 0.5296 0.4911
C12 C 0.7876(7) 0.5193(5) 0.5835(2)
H5 H 0.7540 0.6136 0.6062
C13 C 0.8837(5) 0.4310(5) 0.6182(2)
C14 C 0.9303(5) 0.4747(5) 0.6937(2)
C15 C 0.9378(8) 0.2950(6) 0.5836(3)
H6 H 1.0066 0.2359 0.6065
C16 C 0.8906(9) 0.2450(6) 0.5148(3)
H7 H 0.9279 0.1523 0.4919
C17 C 0.9577(5) 0.6729(4) 0.79589(19)
C18 C 1.0684(5) 0.7966(4) 0.81952(19)
H8 H 1.1166 0.8511 0.7887
C19 C 1.1096(5) 0.8414(4) 0.88995(19)
C20 C 1.2413(5) 0.9690(4) 0.9154(2)
C21 C 1.0341(5) 0.7642(4) 0.93623(19)
H9 H 1.0601 0.7950 0.9831
C22 C 0.9187(4) 0.6398(4) 0.91260(19)
C23 C 0.8401(4) 0.5524(4) 0.96211(19)
C24 C 0.8816(5) 0.5936(4) 0.84252(19)
H10 H 0.8060 0.5097 0.8266
N1 N 0.6529(5) 0.3543(4) 0.36968(16)
H11 H 0.6443 0.4488 0.3886
N2 N 0.9217(4) 0.6222(4) 0.72404(16)
H12 H 0.8936 0.6883 0.6993
O1 O 0.6360(4) 0.6042(3) 0.16118(15)
O2 O 0.5119(4) 0.4296(3) 0.07744(13)
O3 O 0.2780(4) -0.0759(3) 0.13097(15)
O4 O 0.2184(4) -0.0647(4) 0.23945(15)
O5 O 0.7518(6) 0.1271(4) 0.38323(18)
O6 O 0.9780(5) 0.3754(4) 0.72577(15)
O7 O 1.2579(3) 1.0725(3) 0.87956(14)
O8 O 1.3297(4) 0.9655(3) 0.96881(14)
O9 O 0.8096(3) 0.6234(3) 1.02074(13)
O10 O 0.8111(3) 0.4098(3) 0.94060(14)
O11 O 0.7943(6) 0.8809(5) 0.2718(2)
H13 H 0.7401 0.8342 0.2987
H14 H 0.7897 0.9775 0.2850
Ba1_2 Ba 0.48174(3) -0.24841(2) 0.042730(11)
Ba1_3 Ba 0.48174(3) 0.75159(2) 1.042730(11)
Ba1_4 Ba 1.48174(3) 0.75159(2) 1.042730(11)
Ba1A Ba 0.51826(3) 0.24841(2) -0.042730(11)
Ba1A_2 Ba 0.51826(3) 0.24841(2) 0.957270(11)
Ba1A_3 Ba 1.51826(3) 1.24841(2) 0.957270(11)
Ba2_2 Ba -0.03642(3) -0.26355(3) 0.154949(11)
Ba2_3 Ba 0.96358(3) 0.73645(3) 1.154949(11)
Ba2A Ba 1.03642(3) 0.26355(3) 0.845051(11)
Ba2A_2 Ba 1.03642(3) 1.26355(3) 0.845051(11)
C24A C 1.1184(5) 0.4064(4) 0.15748(19)
O2A O 0.4881(4) 0.5704(3) -0.07744(13)
O3_2 O 0.2780(4) 0.9241(3) 0.13097(15)
O3_3 O 1.2780(4) 0.9241(3) 0.13097(15)
O4_2 O 1.2184(4) 0.9353(4) 0.23945(15)
O6A O 1.0220(5) 0.6246(4) 0.27423(15)
O7A O 0.7421(3) 0.9275(3) 0.12044(14)
O8_2 O 0.3297(4) 0.9655(3) -0.03119(14)
O8A O 0.6703(4) 1.0345(3) 0.03119(14)
O9_2 O 0.8096(3) 0.6234(3) 0.02074(13)
O10A O 0.1889(3) 0.5902(3) 0.05940(14)
O10A_2 O 1.1889(3) 0.5902(3) 0.05940(14)
O12 O 0.4289(9) 0.7167(6) 0.2781(4)
H15 H 0.4775 0.6345 0.2631
H16 H 0.3377 0.6949 0.2965
O13 O 0.1086(5) 0.1220(4) 0.3503(2)
H17 H 0.0328 0.0624 0.3624
H18 H 0.1512 0.0771 0.3138
loop_
_geom_bond_atom_site_label_1
_geom_bond_atom_site_label_2
_geom_bond_site_symmetry_1
_geom_bond_site_symmetry_2
Ba1 O1 1_555 1_555
Ba2 O1 1_555 1_555
C1 C2 1_555 1_555
C2 C3 1_555 1_555
C3 H1 1_555 1_555
C4 C3 1_555 1_555
C5 C4 1_555 1_555
C6 C4 1_555 1_555
H2 C6 1_555 1_555
C7 C6 1_555 1_555
C8 C2 1_555 1_555
H3 C8 1_555 1_555
C9 C10 1_555 1_555
C10 C11 1_555 1_555
C11 H4 1_555 1_555
C12 C11 1_555 1_555
H5 C12 1_555 1_555
C13 C12 1_555 1_555
C14 C13 1_555 1_555
C15 C13 1_555 1_555
H6 C15 1_555 1_555
C16 C10 1_555 1_555
H7 C16 1_555 1_555
C17 C18 1_555 1_555
C18 H8 1_555 1_555
C19 C18 1_555 1_555
C20 C19 1_555 1_555
C21 C19 1_555 1_555
H9 C21 1_555 1_555
C22 C21 1_555 1_555
C23 C22 1_555 1_555
C24 C17 1_555 1_555
H10 C24 1_555 1_555
N1 C7 1_555 1_555
H11 N1 1_555 1_555
N2 C14 1_555 1_555
H12 N2 1_555 1_555
O1 C1 1_555 1_555
O2 Ba1 1_555 1_555
O3 C5 1_555 1_555
O4 C5 1_555 1_555
O5 C9 1_555 1_555
O6 C14 1_555 1_555
O7 C20 1_555 1_555
O8 C20 1_555 1_555
O9 C23 1_555 1_555
O10 C23 1_555 1_555
O11 Ba2 1_555 1_555
H13 O11 1_555 1_555
H14 O11 1_555 1_555
O12 H15 1_555 1_555
H16 O12 1_555 1_555
O13 H17 1_555 1_555
H18 O13 1_555 1_555
Ba1_2 O3 1_555 1_555
Ba1_3 O9 1_555 1_555
Ba1_4 O8 1_555 1_555
Ba1A O2 1_555 1_555
Ba1A_2 O10 1_555 1_555
Ba1A_3 O7 1_555 1_555
Ba2_2 O3 1_555 1_555
Ba2_3 O9 1_555 1_555
Ba2A C24 1_555 1_555
Ba2A_2 O7 1_555 1_555
C24A Ba2 1_555 1_555
O2A Ba1 1_555 1_555
O3_2 Ba1 1_555 1_555
O3_3 Ba2 1_555 1_555
O4_2 Ba2 1_555 1_555
O6A Ba2 1_555 1_555
O7A Ba1 1_555 1_555
O8_2 Ba1 1_555 1_555
O8A Ba1 1_555 1_555
O9_2 Ba1 1_555 1_555
O10A Ba1 1_555 1_555
O10A_2 Ba2 1_555 1_555
Ba2 O7A 1_555 1_555
Ba2 O9_2 1_555 1_555
C1 O2 1_555 1_555
C7 C8 1_555 1_555
C9 N1 1_555 1_555
C15 C16 1_555 1_555
C17 N2 1_555 1_555
C22 C24 1_555 1_555
O4 Ba2_2 1_555 1_555
O6 Ba2A 1_555 1_555
O8 Ba1A_3 1_555 1_555
O10 Ba2A 1_555 1_555
Ba1A O2A 1_555 1_555

#END
