
#######################################################################
#
#                 Cambridge Crystallographic Data Centre
#                                CCDC 
#
#######################################################################
#
# If this CIF has been generated from an entry in the Cambridge 
# Structural Database, then it will include bibliographic, chemical, 
# crystal, experimental, refinement or atomic coordinate data resulting 
# from the CCDC's data processing and validation procedures.
#
#######################################################################

data_MONPOW
_symmetry_cell_setting           monoclinic
_symmetry_space_group_name_H-M   'P 21/c'
_symmetry_Int_Tables_number      14
_space_group_name_Hall           '-P 2ybc'
loop_
_symmetry_equiv_pos_site_id
_symmetry_equiv_pos_as_xyz
1 x,y,z
2 -x,1/2+y,1/2-z
3 -x,-y,-z
4 x,1/2-y,1/2+z
_cell_length_a                   11.582(4)
_cell_length_b                   8.604(3)
_cell_length_c                   14.248(5)
_cell_angle_alpha                90
_cell_angle_beta                 125.080(9)
_cell_angle_gamma                90
_cell_volume                     1161.92
loop_
_atom_site_label
_atom_site_type_symbol
_atom_site_fract_x
_atom_site_fract_y
_atom_site_fract_z
Li1 Li 0.1560(2) 0.69812(19) 0.44433(16)
N1 N -0.14883(9) 0.52614(9) 0.61315(7)
N2 N 0.04036(11) 0.68468(10) 0.51109(9)
N3 N -0.11692(10) 1.07852(10) 0.61815(8)
N4 N -0.22454(10) 0.72836(9) 0.66965(8)
C1 C -0.10599(11) 0.66303(10) 0.59399(9)
C2 C -0.15252(11) 0.78540(10) 0.62829(9)
C3 C -0.21732(11) 0.57493(11) 0.65828(9)
C4 C -0.02482(11) 0.67325(10) 0.54809(9)
C5 C -0.13261(11) 0.94791(11) 0.62273(9)
C6 C -0.28174(12) 0.46295(11) 0.69591(10)
F1 F -0.23509(9) 0.31859(7) 0.70205(7)
F2 F -0.42141(8) 0.45916(10) 0.62580(8)
F3 F -0.24966(11) 0.49673(9) 0.79950(7)
O1 O 0.34922(8) 0.71773(9) 0.57269(7)
C7 C 0.44366(11) 0.80987(11) 0.62671(9)
O2 O 0.54302(9) 0.79403(10) 0.73722(7)
O3 O 0.45853(9) 0.93669(10) 0.58242(7)
C8 C 0.64062(14) 0.92338(15) 0.77717(11)
H1 H 0.7306(16) 0.8802(17) 0.8049(12)
H2 H 0.6405(16) 0.9759(19) 0.8361(14)
C9 C 0.58144(14) 1.02182(13) 0.67064(12)
H3 H 0.5500(16) 1.1232(18) 0.6761(13)
H4 H 0.6442(16) 1.0276(18) 0.6483(13)
Li1B Li -0.1560(2) 0.30188(19) 0.55567(16)
Li1B_2 Li -0.1560(2) 1.30188(19) 0.55567(16)
N1B N 0.14883(9) 0.47386(9) 0.38685(7)
N3B N 0.11692(10) 0.92148(10) 0.38185(8)
loop_
_geom_bond_atom_site_label_1
_geom_bond_atom_site_label_2
_geom_bond_site_symmetry_1
_geom_bond_site_symmetry_2
Li1 N2 1_555 1_555
N1 C1 1_555 1_555
N2 C4 1_555 1_555
N3 C5 1_555 1_555
N4 C2 1_555 1_555
C1 C2 1_555 1_555
C2 C5 1_555 1_555
C3 N1 1_555 1_555
C4 C1 1_555 1_555
C6 C3 1_555 1_555
F1 C6 1_555 1_555
F2 C6 1_555 1_555
F3 C6 1_555 1_555
O1 Li1 1_555 1_555
C7 O1 1_555 1_555
O2 C7 1_555 1_555
O3 C7 1_555 1_555
C8 O2 1_555 1_555
H1 C8 1_555 1_555
H2 C8 1_555 1_555
C9 O3 1_555 1_555
H3 C9 1_555 1_555
H4 C9 1_555 1_555
Li1B N1 1_555 1_555
Li1B_2 N3 1_555 1_555
N1B Li1 1_555 1_555
N3B Li1 1_555 1_555
N4 C3 1_555 1_555
C8 C9 1_555 1_555

#END
