
#######################################################################
#
#                 Cambridge Crystallographic Data Centre
#                                CCDC 
#
#######################################################################
#
# If this CIF has been generated from an entry in the Cambridge 
# Structural Database, then it will include bibliographic, chemical, 
# crystal, experimental, refinement or atomic coordinate data resulting 
# from the CCDC's data processing and validation procedures.
#
#######################################################################

data_MONQUC
_symmetry_cell_setting           tetragonal
_symmetry_space_group_name_H-M   'I -4'
_symmetry_Int_Tables_number      82
_space_group_name_Hall           'I -4'
loop_
_symmetry_equiv_pos_site_id
_symmetry_equiv_pos_as_xyz
1 x,y,z
2 -x,-y,z
3 y,-x,-z
4 -y,x,-z
5 1/2+x,1/2+y,1/2+z
6 1/2-x,1/2-y,1/2+z
7 1/2+y,1/2-x,1/2-z
8 1/2-y,1/2+x,1/2-z
_cell_length_a                   16.927(4)
_cell_length_b                   16.927(4)
_cell_length_c                   7.271(2)
_cell_angle_alpha                90
_cell_angle_beta                 90
_cell_angle_gamma                90
_cell_volume                     2083.31
loop_
_atom_site_label
_atom_site_type_symbol
_atom_site_fract_x
_atom_site_fract_y
_atom_site_fract_z
K1 K 0.44986(7) 0.59675(7) 0.79496(15)
O1 O 0.3945(2) 0.4506(2) 0.8294(4)
C1 C 0.3151(3) 0.3909(3) 0.5943(7)
C2 C 0.2561(3) 0.4037(3) 0.4614(7)
H1 H 0.2198 0.4450 0.4793
C3 C 0.2498(3) 0.3577(3) 0.3062(8)
H2 H 0.2101 0.3685 0.2193
C4 C 0.3016(3) 0.2955(4) 0.2773(9)
H3 H 0.2956 0.2625 0.1743
C5 C 0.3617(3) 0.2827(3) 0.4007(7)
H4 H 0.3975 0.2411 0.3808
C6 C 0.3700(3) 0.3299(3) 0.5524(7)
H5 H 0.4133 0.3217 0.6312
C7 C 0.2538(3) 0.4659(3) 0.8588(6)
C8 C 0.2596(3) 0.5265(3) 0.9915(7)
H6 H 0.3093 0.5492 1.0155
C9 C 0.1950(4) 0.5531(4) 1.0861(8)
H7 H 0.2010 0.5939 1.1728
C10 C 0.1211(3) 0.5208(4) 1.0559(8)
H8 H 0.0767 0.5396 1.1202
C11 C 0.1137(3) 0.4605(4) 0.9298(7)
H9 H 0.0639 0.4376 0.9094
C12 C 0.1769(3) 0.4337(3) 0.8349(6)
H10 H 0.1698 0.3924 0.7501
C13 C 0.3238(3) 0.4371(3) 0.7626(6)
K1A K 0.55014(7) 0.40325(7) 0.79496(15)
K1C K 0.40325(7) 0.44986(7) 1.20504(15)
K1C_2 K 0.40325(7) 0.44986(7) 0.20504(15)
K1B K 0.59675(7) 0.55014(7) 1.20504(15)
K1_2 K 0.44986(7) 0.59675(7) 1.79496(15)
K1B_2 K 0.59675(7) 0.55014(7) 0.20504(15)
K1A_2 K 0.55014(7) 0.40325(7) 1.79496(15)
O1A O 0.6055(2) 0.5494(2) 0.8294(4)
O1B O 0.4506(2) 0.6055(2) 1.1706(4)
O1C O 0.5494(2) 0.3945(2) 1.1706(4)
C1B C 0.3909(3) 0.6849(3) 0.4057(7)
C1C C 0.6091(3) 0.3151(3) 0.4057(7)
C1_2 C 0.3151(3) 0.3909(3) 1.5943(7)
C1B_2 C 0.3909(3) 0.6849(3) 1.4057(7)
C1A C 0.6849(3) 0.6091(3) 0.5943(7)
C1C_2 C 0.6091(3) 0.3151(3) 1.4057(7)
C1A_2 C 0.6849(3) 0.6091(3) 1.5943(7)
C2B C 0.4037(3) 0.7439(3) 0.5386(7)
C2C C 0.5963(3) 0.2561(3) 0.5386(7)
C2_2 C 0.2561(3) 0.4037(3) 1.4614(7)
C2B_2 C 0.4037(3) 0.7439(3) 1.5386(7)
C2A C 0.7439(3) 0.5963(3) 0.4614(7)
C2C_2 C 0.5963(3) 0.2561(3) 1.5386(7)
C2A_2 C 0.7439(3) 0.5963(3) 1.4614(7)
H1B H 0.4450 0.7802 0.5207
H1B_2 H 0.4450 0.7802 1.5207
H1A H 0.7802 0.5550 0.4793
H1C H 0.5550 0.2198 1.5207
C3B C 0.3577(3) 0.7502(3) 0.6938(8)
C3C C 0.6423(3) 0.2498(3) 0.6938(8)
C3_2 C 0.2498(3) 0.3577(3) 1.3062(8)
C3B_2 C 0.3577(3) 0.7502(3) 1.6938(8)
C3A C 0.7502(3) 0.6423(3) 0.3062(8)
C3C_2 C 0.6423(3) 0.2498(3) 1.6938(8)
C3A_2 C 0.7502(3) 0.6423(3) 1.3062(8)
H2B H 0.3685 0.7899 0.7807
H2B_2 H 0.3685 0.7899 1.7807
H2A H 0.7899 0.6315 0.2193
H2C H 0.6315 0.2101 1.7807
C4B C 0.2955(4) 0.6984(3) 0.7227(9)
C4C C 0.7045(4) 0.3016(3) 0.7227(9)
C4_2 C 0.3016(3) 0.2955(4) 1.2773(9)
C4B_2 C 0.2955(4) 0.6984(3) 1.7227(9)
C4A C 0.6984(3) 0.7045(4) 0.2773(9)
C4C_2 C 0.7045(4) 0.3016(3) 1.7227(9)
C4A_2 C 0.6984(3) 0.7045(4) 1.2773(9)
H3B H 0.2625 0.7044 0.8257
H3B_2 H 0.2625 0.7044 1.8257
H3A H 0.7044 0.7375 0.1743
H3C H 0.7375 0.2956 1.8257
C5B C 0.2827(3) 0.6383(3) 0.5993(7)
C5C C 0.7173(3) 0.3617(3) 0.5993(7)
C5_2 C 0.3617(3) 0.2827(3) 1.4007(7)
C5B_2 C 0.2827(3) 0.6383(3) 1.5993(7)
C5A C 0.6383(3) 0.7173(3) 0.4007(7)
C5C_2 C 0.7173(3) 0.3617(3) 1.5993(7)
C5A_2 C 0.6383(3) 0.7173(3) 1.4007(7)
H4B H 0.2411 0.6025 0.6192
H4B_2 H 0.2411 0.6025 1.6192
H4A H 0.6025 0.7589 0.3808
H4C H 0.7589 0.3975 1.6192
C6B C 0.3299(3) 0.6300(3) 0.4476(7)
C6C C 0.6701(3) 0.3700(3) 0.4476(7)
C6_2 C 0.3700(3) 0.3299(3) 1.5524(7)
C6B_2 C 0.3299(3) 0.6300(3) 1.4476(7)
C6A C 0.6300(3) 0.6701(3) 0.5524(7)
C6C_2 C 0.6701(3) 0.3700(3) 1.4476(7)
C6A_2 C 0.6300(3) 0.6701(3) 1.5524(7)
H5B H 0.3217 0.5867 0.3688
H5B_2 H 0.3217 0.5867 1.3688
H5A H 0.5867 0.6783 0.6312
H5C H 0.6783 0.4133 1.3688
C7B C 0.4659(3) 0.7462(3) 1.1412(6)
C7A C 0.7462(3) 0.5341(3) 0.8588(6)
C7C C 0.5341(3) 0.2538(3) 1.1412(6)
C8B C 0.5265(3) 0.7404(3) 1.0085(7)
C8A C 0.7404(3) 0.4735(3) 0.9915(7)
C8C C 0.4735(3) 0.2596(3) 1.0085(7)
H6B H 0.5492 0.6907 0.9845
H6A H 0.6907 0.4508 1.0155
H6C H 0.4508 0.3093 0.9845
C9B C 0.5531(4) 0.8050(4) 0.9139(8)
C9A C 0.8050(4) 0.4469(4) 1.0861(8)
C9C C 0.4469(4) 0.1950(4) 0.9139(8)
H7B H 0.5939 0.7990 0.8272
H7A H 0.7990 0.4061 1.1728
H7C H 0.4061 0.2010 0.8272
C10B C 0.5208(4) 0.8789(3) 0.9441(8)
C10A C 0.8789(3) 0.4792(4) 1.0559(8)
C10C C 0.4792(4) 0.1211(3) 0.9441(8)
H8B H 0.5396 0.9233 0.8798
H8A H 0.9233 0.4604 1.1202
H8C H 0.4604 0.0767 0.8798
C11B C 0.4605(4) 0.8863(3) 1.0702(7)
C11A C 0.8863(3) 0.5395(4) 0.9298(7)
C11C C 0.5395(4) 0.1137(3) 1.0702(7)
H9B H 0.4376 0.9361 1.0906
H9A H 0.9361 0.5624 0.9094
H9C H 0.5624 0.0639 1.0906
C12B C 0.4337(3) 0.8231(3) 1.1651(6)
C12A C 0.8231(3) 0.5663(3) 0.8349(6)
C12C C 0.5663(3) 0.1769(3) 1.1651(6)
H10B H 0.3924 0.8302 1.2499
H10A H 0.8302 0.6076 0.7501
H10C H 0.6076 0.1698 1.2499
C13A C 0.6762(3) 0.5629(3) 0.7626(6)
C13B C 0.4371(3) 0.6762(3) 1.2374(6)
C13C C 0.5629(3) 0.3238(3) 1.2374(6)
loop_
_geom_bond_atom_site_label_1
_geom_bond_atom_site_label_2
_geom_bond_site_symmetry_1
_geom_bond_site_symmetry_2
K1 O1 1_555 1_555
O1 C13 1_555 1_555
C1 C2 1_555 1_555
C2 H1 1_555 1_555
C3 C2 1_555 1_555
H2 C3 1_555 1_555
C4 C3 1_555 1_555
H3 C4 1_555 1_555
C5 C4 1_555 1_555
H4 C5 1_555 1_555
C6 C1 1_555 1_555
H5 C6 1_555 1_555
C7 C8 1_555 1_555
C8 H6 1_555 1_555
C9 C8 1_555 1_555
H7 C9 1_555 1_555
C10 C9 1_555 1_555
H8 C10 1_555 1_555
C11 C10 1_555 1_555
H9 C11 1_555 1_555
C12 C7 1_555 1_555
H10 C12 1_555 1_555
C13 C1 1_555 1_555
K1A O1 1_555 1_555
K1C O1 1_555 1_555
K1C_2 C1 1_555 1_555
K1B O1A 1_555 1_555
K1_2 C1B_2 1_555 1_555
K1B_2 C1A 1_555 1_555
K1A_2 C1C_2 1_555 1_555
O1A K1 1_555 1_555
O1B K1 1_555 1_555
O1C K1A 1_555 1_555
C1B K1 1_555 1_555
C1C K1A 1_555 1_555
C1_2 K1C 1_555 1_555
C1B_2 C2B_2 1_555 1_555
C1A C2A 1_555 1_555
C1C_2 C2C_2 1_555 1_555
C1A_2 K1B 1_555 1_555
C2B K1 1_555 1_555
C2C K1A 1_555 1_555
C2_2 K1C 1_555 1_555
C2B_2 K1_2 1_555 1_555
C2A K1B_2 1_555 1_555
C2C_2 K1A_2 1_555 1_555
C2A_2 K1B 1_555 1_555
H1B C2B 1_555 1_555
H1B_2 C2B_2 1_555 1_555
H1A C2A 1_555 1_555
H1C C2C_2 1_555 1_555
C3B K1 1_555 1_555
C3C K1A 1_555 1_555
C3_2 K1C 1_555 1_555
C3B_2 K1_2 1_555 1_555
C3A K1B_2 1_555 1_555
C3C_2 K1A_2 1_555 1_555
C3A_2 K1B 1_555 1_555
H2B C3B 1_555 1_555
H2B_2 C3B_2 1_555 1_555
H2A C3A 1_555 1_555
H2C C3C_2 1_555 1_555
C4B K1 1_555 1_555
C4C K1A 1_555 1_555
C4_2 K1C 1_555 1_555
C4B_2 K1_2 1_555 1_555
C4A K1B_2 1_555 1_555
C4C_2 K1A_2 1_555 1_555
C4A_2 K1B 1_555 1_555
H3B C4B 1_555 1_555
H3B_2 C4B_2 1_555 1_555
H3A C4A 1_555 1_555
H3C C4C_2 1_555 1_555
C5B K1 1_555 1_555
C5C K1A 1_555 1_555
C5_2 K1C 1_555 1_555
C5B_2 K1_2 1_555 1_555
C5A K1B_2 1_555 1_555
C5C_2 K1A_2 1_555 1_555
C5A_2 K1B 1_555 1_555
H4B C5B 1_555 1_555
H4B_2 C5B_2 1_555 1_555
H4A C5A 1_555 1_555
H4C C5C_2 1_555 1_555
C6B K1 1_555 1_555
C6C K1A 1_555 1_555
C6_2 K1C 1_555 1_555
C6B_2 K1_2 1_555 1_555
C6A K1B_2 1_555 1_555
C6C_2 K1A_2 1_555 1_555
C6A_2 K1B 1_555 1_555
H5B C6B 1_555 1_555
H5B_2 C6B_2 1_555 1_555
H5A C6A 1_555 1_555
H5C C6C_2 1_555 1_555
C7B C8B 1_555 1_555
C7A C8A 1_555 1_555
C7C C8C 1_555 1_555
C8B H6B 1_555 1_555
C8A H6A 1_555 1_555
C8C H6C 1_555 1_555
C9B C8B 1_555 1_555
C9A C8A 1_555 1_555
C9C C8C 1_555 1_555
H7B C9B 1_555 1_555
H7A C9A 1_555 1_555
H7C C9C 1_555 1_555
C10B C9B 1_555 1_555
C10A C9A 1_555 1_555
C10C C9C 1_555 1_555
H8B C10B 1_555 1_555
H8A C10A 1_555 1_555
H8C C10C 1_555 1_555
C11B C10B 1_555 1_555
C11A C10A 1_555 1_555
C11C C10C 1_555 1_555
H9B C11B 1_555 1_555
H9A C11A 1_555 1_555
H9C C11C 1_555 1_555
C12B C7B 1_555 1_555
C12A C7A 1_555 1_555
C12C C7C 1_555 1_555
H10B C12B 1_555 1_555
H10A C12A 1_555 1_555
H10C C12C 1_555 1_555
C13A O1A 1_555 1_555
C13B O1B 1_555 1_555
C13C O1C 1_555 1_555
C2 K1C_2 1_555 1_555
C3 K1C_2 1_555 1_555
C4 K1C_2 1_555 1_555
C5 C6 1_555 1_555
C5 K1C_2 1_555 1_555
C6 K1C_2 1_555 1_555
C7 C13 1_555 1_555
C11 C12 1_555 1_555
K1A O1A 1_555 1_555
K1C O1B 1_555 1_555
K1C O1C 1_555 1_555
K1B O1B 1_555 1_555
K1B O1C 1_555 1_555
C1B C2B 1_555 1_555
C1B C6B 1_555 1_555
C1C C2C 1_555 1_555
C1C C6C 1_555 1_555
C1_2 C2_2 1_555 1_555
C1_2 C6_2 1_555 1_555
C1B_2 C6B_2 1_555 1_555
C1B_2 C13B 1_555 1_555
C1A C6A 1_555 1_555
C1A C13A 1_555 1_555
C1C_2 C6C_2 1_555 1_555
C1C_2 C13C 1_555 1_555
C1A_2 C2A_2 1_555 1_555
C1A_2 C6A_2 1_555 1_555
C2B C3B 1_555 1_555
C2C C3C 1_555 1_555
C2_2 C3_2 1_555 1_555
C2B_2 C3B_2 1_555 1_555
C2A C3A 1_555 1_555
C2C_2 C3C_2 1_555 1_555
C2A_2 C3A_2 1_555 1_555
C3B C4B 1_555 1_555
C3C C4C 1_555 1_555
C3_2 C4_2 1_555 1_555
C3B_2 C4B_2 1_555 1_555
C3A C4A 1_555 1_555
C3C_2 C4C_2 1_555 1_555
C3A_2 C4A_2 1_555 1_555
C4B C5B 1_555 1_555
C4C C5C 1_555 1_555
C4_2 C5_2 1_555 1_555
C4B_2 C5B_2 1_555 1_555
C4A C5A 1_555 1_555
C4C_2 C5C_2 1_555 1_555
C4A_2 C5A_2 1_555 1_555
C5B C6B 1_555 1_555
C5C C6C 1_555 1_555
C5_2 C6_2 1_555 1_555
C5B_2 C6B_2 1_555 1_555
C5A C6A 1_555 1_555
C5C_2 C6C_2 1_555 1_555
C5A_2 C6A_2 1_555 1_555
C7B C13B 1_555 1_555
C7A C13A 1_555 1_555
C7C C13C 1_555 1_555
C11B C12B 1_555 1_555
C11A C12A 1_555 1_555
C11C C12C 1_555 1_555

#END
