
#######################################################################
#
#                 Cambridge Crystallographic Data Centre
#                                CCDC 
#
#######################################################################
#
# If this CIF has been generated from an entry in the Cambridge 
# Structural Database, then it will include bibliographic, chemical, 
# crystal, experimental, refinement or atomic coordinate data resulting 
# from the CCDC's data processing and validation procedures.
#
#######################################################################

data_MONTUG
_symmetry_cell_setting           triclinic
_symmetry_space_group_name_H-M   'P -1'
_symmetry_Int_Tables_number      2
_space_group_name_Hall           '-P 1'
loop_
_symmetry_equiv_pos_site_id
_symmetry_equiv_pos_as_xyz
1 x,y,z
2 -x,-y,-z
_cell_length_a                   7.60872(14)
_cell_length_b                   10.09635(18)
_cell_length_c                   11.4337(2)
_cell_angle_alpha                72.858(5)
_cell_angle_beta                 88.015(7)
_cell_angle_gamma                82.627(6)
_cell_volume                     832.378
loop_
_atom_site_label
_atom_site_type_symbol
_atom_site_fract_x
_atom_site_fract_y
_atom_site_fract_z
Na1 Na 0.37580(14) 0.36336(11) 0.97006(9)
Na2 Na 0.09268(13) 0.80345(10) -0.12713(9)
O1 O 0.0824(3) 0.83138(18) 0.65441(16)
O2 O 0.1699(3) 0.57688(18) 0.81977(15)
O3 O 0.4567(3) 0.11849(19) 0.93062(16)
O4 O 0.5625(3) 0.01806(18) 0.78767(16)
O5 O 0.5087(3) 0.30467(19) 0.34800(17)
O6 O 0.2200(3) 0.37782(18) 0.31229(16)
O7 O 0.0975(3) 0.75546(18) 0.08881(16)
O8 O -0.0031(3) 0.96347(18) 0.11337(15)
O9 O 0.6423(3) 0.46914(19) 0.91146(16)
O10 O 0.1996(3) 0.23052(19) 1.13443(16)
O11 O 0.3993(3) 0.77475(19) -0.13719(17)
N1 N 0.3310(3) 0.3549(2) 0.75461(19)
N2 N 0.1526(3) 0.6376(2) 0.33646(19)
C1 C 0.4091(4) 0.2457(3) 0.7205(3)
C2 C 0.4201(4) 0.2455(3) 0.6000(3)
C3 C 0.3414(4) 0.3586(3) 0.5075(3)
C4 C 0.2562(4) 0.4743(3) 0.5414(3)
C5 C 0.1755(4) 0.6071(3) 0.4587(3)
C6 C 0.0841(4) 0.7758(3) 0.2890(3)
C7 C 0.0612(4) 0.8351(3) 0.3830(3)
C8 C 0.1184(4) 0.7283(3) 0.4914(3)
C9 C 0.1226(4) 0.7304(3) 0.6167(3)
C10 C 0.1831(4) 0.5872(3) 0.7113(3)
C11 C 0.2597(4) 0.4663(3) 0.6667(3)
C12 C 0.4845(4) 0.1169(3) 0.8195(3)
C13 C 0.3584(4) 0.3463(3) 0.3785(3)
C14 C 0.0578(4) 0.8329(3) 0.1545(3)
H1 H 0.1772 0.5795 0.2946
H2 H 0.4808 0.1689 0.5802
H3 H 0.0169 0.9272 0.3770
H4 H 0.5059 0.3013 0.2773
Na1A Na 0.62420(14) 0.63664(11) 0.02994(9)
Na1A_2 Na 0.62420(14) 0.63664(11) 1.02994(9)
Na2_2 Na 0.09268(13) 0.80345(10) 0.87287(9)
Na2A Na -0.09268(13) 0.19655(10) 1.12713(9)
Na2A_2 Na -0.09268(13) 1.19655(10) 0.12713(9)
O1_2 O 0.0824(3) 0.83138(18) -0.34559(16)
O2_2 O 0.1699(3) 0.57688(18) -0.18023(15)
O8A O 0.0031(3) 1.03653(18) -0.11337(15)
O9A O 0.3577(3) 0.53086(19) 1.08854(16)
O10A O -0.1996(3) 0.76948(19) -0.13443(16)
O11A O 0.6007(3) 0.22525(19) 1.13719(17)
loop_
_geom_bond_atom_site_label_1
_geom_bond_atom_site_label_2
_geom_bond_site_symmetry_1
_geom_bond_site_symmetry_2
Na1 O2 1_555 1_555
Na2 O7 1_555 1_555
O1 C9 1_555 1_555
O2 C10 1_555 1_555
O3 Na1 1_555 1_555
O4 C12 1_555 1_555
O5 C13 1_555 1_555
O6 C13 1_555 1_555
O7 C14 1_555 1_555
O8 C14 1_555 1_555
O9 Na1 1_555 1_555
O10 Na1 1_555 1_555
O11 Na2 1_555 1_555
N1 Na1 1_555 1_555
N2 C5 1_555 1_555
C1 N1 1_555 1_555
C2 C1 1_555 1_555
C3 C2 1_555 1_555
C4 C3 1_555 1_555
C5 C4 1_555 1_555
C6 N2 1_555 1_555
C7 C6 1_555 1_555
C8 C5 1_555 1_555
C9 C8 1_555 1_555
C10 C9 1_555 1_555
C11 N1 1_555 1_555
C12 O3 1_555 1_555
C13 C3 1_555 1_555
C14 C6 1_555 1_555
H1 N2 1_555 1_555
H2 C2 1_555 1_555
H3 C7 1_555 1_555
H4 O5 1_555 1_555
Na1A O11 1_555 1_555
Na1A_2 O9 1_555 1_555
Na2_2 O1 1_555 1_555
Na2A O10 1_555 1_555
Na2A_2 O8 1_555 1_555
O1_2 Na2 1_555 1_555
O2_2 Na2 1_555 1_555
O8A Na2 1_555 1_555
O9A Na1 1_555 1_555
O10A Na2 1_555 1_555
O11A Na1 1_555 1_555
O2 Na2_2 1_555 1_555
C1 C12 1_555 1_555
C4 C11 1_555 1_555
C7 C8 1_555 1_555
C10 C11 1_555 1_555
Na1A_2 O9A 1_555 1_555

#END
