
#######################################################################
#
#                 Cambridge Crystallographic Data Centre
#                                CCDC 
#
#######################################################################
#
# If this CIF has been generated from an entry in the Cambridge 
# Structural Database, then it will include bibliographic, chemical, 
# crystal, experimental, refinement or atomic coordinate data resulting 
# from the CCDC's data processing and validation procedures.
#
#######################################################################

data_MONXIY
_symmetry_cell_setting           cubic
_symmetry_space_group_name_H-M   'F -4 3 c'
_symmetry_Int_Tables_number      219
_space_group_name_Hall           'F -4n 2 3'
loop_
_symmetry_equiv_pos_site_id
_symmetry_equiv_pos_as_xyz
1 x,y,z
2 -x,-y,z
3 x,-y,-z
4 -x,y,-z
5 z,x,y
6 y,z,x
7 -z,-x,y
8 -y,z,-x
9 z,-x,-y
10 -y,-z,x
11 -z,x,-y
12 y,-z,-x
13 1/2+y,x,z
14 -y,-x,1/2+z
15 -y,1/2+x,-z
16 1/2+y,-x,-z
17 1/2+x,z,y
18 1/2+z,y,x
19 -x,-z,1/2+y
20 1/2+z,-y,-x
21 -x,1/2+z,-y
22 -z,-y,1/2+x
23 1/2+x,-z,-y
24 -z,1/2+y,-x
25 x,1/2+y,1/2+z
26 -x,1/2-y,1/2+z
27 x,1/2-y,1/2-z
28 -x,1/2+y,1/2-z
29 z,1/2+x,1/2+y
30 y,1/2+z,1/2+x
31 -z,1/2-x,1/2+y
32 -y,1/2+z,1/2-x
33 z,1/2-x,1/2-y
34 -y,1/2-z,1/2+x
35 -z,1/2+x,1/2-y
36 y,1/2-z,1/2-x
37 1/2+y,1/2+x,1/2+z
38 -y,1/2-x,z
39 -y,x,1/2-z
40 1/2+y,1/2-x,1/2-z
41 1/2+x,1/2+z,1/2+y
42 1/2+z,1/2+y,1/2+x
43 -x,1/2-z,y
44 1/2+z,1/2-y,1/2-x
45 -x,z,1/2-y
46 -z,1/2-y,x
47 1/2+x,1/2-z,1/2-y
48 -z,y,1/2-x
49 1/2+x,y,1/2+z
50 1/2-x,-y,1/2+z
51 1/2+x,-y,1/2-z
52 1/2-x,y,1/2-z
53 1/2+z,x,1/2+y
54 1/2+y,z,1/2+x
55 1/2-z,-x,1/2+y
56 1/2-y,z,1/2-x
57 1/2+z,-x,1/2-y
58 1/2-y,-z,1/2+x
59 1/2-z,x,1/2-y
60 1/2+y,-z,1/2-x
61 y,x,1/2+z
62 1/2-y,-x,z
63 1/2-y,1/2+x,1/2-z
64 y,-x,1/2-z
65 x,z,1/2+y
66 z,y,1/2+x
67 1/2-x,-z,y
68 z,-y,1/2-x
69 1/2-x,1/2+z,1/2-y
70 1/2-z,-y,x
71 x,-z,1/2-y
72 1/2-z,1/2+y,1/2-x
73 1/2+x,1/2+y,z
74 1/2-x,1/2-y,z
75 1/2+x,1/2-y,-z
76 1/2-x,1/2+y,-z
77 1/2+z,1/2+x,y
78 1/2+y,1/2+z,x
79 1/2-z,1/2-x,y
80 1/2-y,1/2+z,-x
81 1/2+z,1/2-x,-y
82 1/2-y,1/2-z,x
83 1/2-z,1/2+x,-y
84 1/2+y,1/2-z,-x
85 y,1/2+x,z
86 1/2-y,1/2-x,1/2+z
87 1/2-y,x,-z
88 y,1/2-x,-z
89 x,1/2+z,y
90 z,1/2+y,x
91 1/2-x,1/2-z,1/2+y
92 z,1/2-y,-x
93 1/2-x,z,-y
94 1/2-z,1/2-y,1/2+x
95 x,1/2-z,-y
96 1/2-z,y,-x
_cell_length_a                   38.493
_cell_length_b                   38.493
_cell_length_c                   38.493
_cell_angle_alpha                90
_cell_angle_beta                 90
_cell_angle_gamma                90
_cell_volume                     57035.5
loop_
_atom_site_label
_atom_site_type_symbol
_atom_site_fract_x
_atom_site_fract_y
_atom_site_fract_z
Cu1 Cu 0.67425(2) 0.67425(2) 0.82575(2)
Cl1 Cl 0.63707(5) 0.63707(5) 0.86293(5)
N1 N 0.77558(16) 0.71236(15) 0.84711(15)
N2 N 0.71764(16) 0.68920(15) 0.85322(16)
N3 N 0.6918(2) 0.6782(2) 0.90649(18)
H1 H 0.6740 0.6699 0.8958
H2 H 0.6922 0.6787 0.9288
C1 C 0.77609(19) 0.71351(18) 0.88237(19)
C2 C 0.7902(2) 0.7230(2) 0.93621(19)
C3 C 0.7491(2) 0.7031(2) 0.90334(18)
C4 C 0.8357(2) 0.7377(2) 0.8913(2)
H3 H 0.8473 0.7490 0.9106
H4 H 0.8329 0.7547 0.8729
N4 N 0.80191(17) 0.72565(17) 0.90242(15)
C5 C 0.8658(4) 0.6832(4) 0.9053(4)
H5 H 0.8801 0.6649 0.8961
H6 H 0.8445 0.6735 0.9140
H7 H 0.8779 0.6947 0.9237
C6 C 0.8581(3) 0.7077(3) 0.8782(3)
H8 H 0.8460 0.6959 0.8594
H9 H 0.8797 0.7169 0.8689
N5 N 0.7583(2) 0.7096(2) 0.93826(17)
C7 C 0.7191(2) 0.69041(19) 0.88815(18)
C8 C 0.7461(2) 0.70029(19) 0.83523(19)
H10 H 0.7444 0.6991 0.8112
S1 S 0.81304(7) 0.74281(8) 0.97065(5)
Cu2 Cu 0.72881(3) 0.71511(4) 0.98061(3)
N1IA N 0.71236(15) 0.65289(15) 0.72442(16)
N2IA N 0.68920(15) 0.64678(16) 0.78236(16)
N3IA N 0.6782(2) 0.59351(18) 0.8082(2)
H1IA H 0.6699 0.6042 0.8260
H2IA H 0.6787 0.5712 0.8078
C1IA C 0.71351(18) 0.61763(19) 0.72391(19)
C2IA C 0.7230(2) 0.56379(19) 0.7098(2)
C3IA C 0.7031(2) 0.59666(18) 0.7509(2)
C4IA C 0.7377(2) 0.6087(2) 0.6643(2)
H3IA H 0.7490 0.5894 0.6527
H4IA H 0.7547 0.6271 0.6671
N4IA N 0.72565(17) 0.59758(15) 0.69809(17)
C5IA C 0.6832(4) 0.5947(4) 0.6342(4)
H5IA H 0.6649 0.6039 0.6199
H6IA H 0.6735 0.5860 0.6555
H7IA H 0.6947 0.5763 0.6221
C6IA C 0.7077(3) 0.6218(3) 0.6419(3)
H8IA H 0.6959 0.6406 0.6540
H9IA H 0.7169 0.6311 0.6203
N5IA N 0.7096(2) 0.56174(17) 0.7417(2)
C7IA C 0.69041(19) 0.61185(18) 0.7809(2)
C8IA C 0.70029(19) 0.66477(19) 0.7539(2)
H10IA H 0.6991 0.6888 0.7556
S1IA S 0.74281(8) 0.52935(5) 0.68696(7)
Cu2IA Cu 0.71511(4) 0.51939(3) 0.77119(3)
N1FB N 0.65289(15) 0.77558(16) 0.78764(15)
N2FB N 0.64678(16) 0.71764(16) 0.81080(15)
N3FB N 0.59351(18) 0.6918(2) 0.8218(2)
H1FB H 0.6042 0.6740 0.8301
H2FB H 0.5712 0.6922 0.8213
C1FB C 0.61763(19) 0.77609(19) 0.78649(18)
C2FB C 0.56379(19) 0.7902(2) 0.7770(2)
C3FB C 0.59666(18) 0.7491(2) 0.7969(2)
C4FB C 0.6087(2) 0.8357(2) 0.7623(2)
H3FB H 0.5894 0.8473 0.7510
H4FB H 0.6271 0.8329 0.7453
N4FB N 0.59758(15) 0.80191(17) 0.77435(17)
C5FB C 0.5947(4) 0.8658(4) 0.8168(4)
H5FB H 0.6039 0.8801 0.8351
H6FB H 0.5860 0.8445 0.8265
H7FB H 0.5763 0.8779 0.8053
C6FB C 0.6218(3) 0.8581(3) 0.7923(3)
H8FB H 0.6406 0.8460 0.8041
H9FB H 0.6311 0.8797 0.7831
N5FB N 0.56174(17) 0.7583(2) 0.7904(2)
C7FB C 0.61185(18) 0.7191(2) 0.80959(19)
C8FB C 0.66477(19) 0.7461(2) 0.79971(19)
H10FB H 0.6888 0.7444 0.8009
S1FB S 0.52935(5) 0.81304(7) 0.75719(8)
Cu2FB Cu 0.51939(3) 0.72881(3) 0.78489(4)
S1Q S 0.47065(5) 0.74281(8) 0.81304(7)
S1PB S 0.68696(7) 0.47065(5) 0.75719(8)
S1UB S 0.68696(7) 0.75719(8) 0.97065(5)
S1ZB S 0.52935(5) 0.68696(7) 0.74281(8)
S1CC S 0.75719(8) 0.52935(5) 0.81304(7)
S1IC S 0.74281(8) 0.68696(7) 1.02935(5)
Cu2QA Cu 0.48061(3) 0.78489(4) 0.77119(3)
Cu2UB Cu 0.77119(3) 0.78489(4) 0.98061(3)
Cu2ZB Cu 0.51939(3) 0.77119(3) 0.71511(4)
Cu2CC Cu 0.78489(4) 0.51939(3) 0.72881(3)
Cu2HC Cu 0.78489(4) 0.72881(3) 1.01939(3)
Cu2JC Cu 0.72881(3) 0.48061(3) 0.71511(4)
loop_
_geom_bond_atom_site_label_1
_geom_bond_atom_site_label_2
_geom_bond_site_symmetry_1
_geom_bond_site_symmetry_2
Cu1 Cl1 1_555 1_555
N1 C1 1_555 1_555
N2 Cu1 1_555 1_555
N3 H1 1_555 1_555
H2 N3 1_555 1_555
C1 C3 1_555 1_555
C2 N4 1_555 1_555
C3 N5 1_555 1_555
C4 H3 1_555 1_555
H4 C4 1_555 1_555
N4 C1 1_555 1_555
C5 H5 1_555 1_555
H6 C5 1_555 1_555
H7 C5 1_555 1_555
C6 C4 1_555 1_555
H8 C6 1_555 1_555
H9 C6 1_555 1_555
N5 C2 1_555 1_555
C7 N2 1_555 1_555
C8 N1 1_555 1_555
H10 C8 1_555 1_555
S1 C2 1_555 1_555
Cu2 N5 1_555 1_555
N1IA C1IA 1_555 1_555
N2IA Cu1 1_555 1_555
N3IA H1IA 1_555 1_555
H2IA N3IA 1_555 1_555
C1IA C3IA 1_555 1_555
C2IA N4IA 1_555 1_555
C3IA N5IA 1_555 1_555
C4IA H3IA 1_555 1_555
H4IA C4IA 1_555 1_555
N4IA C1IA 1_555 1_555
C5IA H5IA 1_555 1_555
H6IA C5IA 1_555 1_555
H7IA C5IA 1_555 1_555
C6IA C4IA 1_555 1_555
H8IA C6IA 1_555 1_555
H9IA C6IA 1_555 1_555
N5IA C2IA 1_555 1_555
C7IA N2IA 1_555 1_555
C8IA N1IA 1_555 1_555
H10IA C8IA 1_555 1_555
S1IA C2IA 1_555 1_555
Cu2IA N5IA 1_555 1_555
N1FB C1FB 1_555 1_555
N2FB Cu1 1_555 1_555
N3FB H1FB 1_555 1_555
H2FB N3FB 1_555 1_555
C1FB C3FB 1_555 1_555
C2FB N4FB 1_555 1_555
C3FB N5FB 1_555 1_555
C4FB H3FB 1_555 1_555
H4FB C4FB 1_555 1_555
N4FB C1FB 1_555 1_555
C5FB H5FB 1_555 1_555
H6FB C5FB 1_555 1_555
H7FB C5FB 1_555 1_555
C6FB C4FB 1_555 1_555
H8FB C6FB 1_555 1_555
H9FB C6FB 1_555 1_555
N5FB C2FB 1_555 1_555
C7FB N2FB 1_555 1_555
C8FB N1FB 1_555 1_555
H10FB C8FB 1_555 1_555
S1FB C2FB 1_555 1_555
Cu2FB N5FB 1_555 1_555
S1Q Cu2FB 1_555 1_555
S1PB Cu2IA 1_555 1_555
S1UB Cu2 1_555 1_555
S1ZB Cu2FB 1_555 1_555
S1CC Cu2IA 1_555 1_555
S1IC Cu2 1_555 1_555
Cu2QA S1FB 1_555 1_555
Cu2UB S1 1_555 1_555
Cu2ZB S1FB 1_555 1_555
Cu2CC S1IA 1_555 1_555
Cu2HC S1 1_555 1_555
Cu2JC S1IA 1_555 1_555
N2 C8 1_555 1_555
N3 C7 1_555 1_555
C3 C7 1_555 1_555
C4 N4 1_555 1_555
C5 C6 1_555 1_555
N2IA C8IA 1_555 1_555
N3IA C7IA 1_555 1_555
C3IA C7IA 1_555 1_555
C4IA N4IA 1_555 1_555
C5IA C6IA 1_555 1_555
N2FB C8FB 1_555 1_555
N3FB C7FB 1_555 1_555
C3FB C7FB 1_555 1_555
C4FB N4FB 1_555 1_555
C5FB C6FB 1_555 1_555
S1Q Cu2QA 1_555 1_555
S1PB Cu2JC 1_555 1_555
S1IC Cu2HC 1_555 1_555

#END
