
#######################################################################
#
#                 Cambridge Crystallographic Data Centre
#                                CCDC 
#
#######################################################################
#
# If this CIF has been generated from an entry in the Cambridge 
# Structural Database, then it will include bibliographic, chemical, 
# crystal, experimental, refinement or atomic coordinate data resulting 
# from the CCDC's data processing and validation procedures.
#
#######################################################################

data_MONZOG
_symmetry_cell_setting           monoclinic
_symmetry_space_group_name_H-M   'P 2/n'
_symmetry_Int_Tables_number      13
_space_group_name_Hall           '-P 2yac'
loop_
_symmetry_equiv_pos_site_id
_symmetry_equiv_pos_as_xyz
1 x,y,z
2 1/2-x,y,1/2-z
3 -x,-y,-z
4 1/2+x,-y,1/2+z
_cell_length_a                   15.332(4)
_cell_length_b                   12.217(3)
_cell_length_c                   23.840(5)
_cell_angle_alpha                90
_cell_angle_beta                 93.909(3)
_cell_angle_gamma                90
_cell_volume                     4455.11
loop_
_atom_site_label
_atom_site_type_symbol
_atom_site_fract_x
_atom_site_fract_y
_atom_site_fract_z
Dy1 Dy 0.96099(2) 0.15854(2) 0.507117(12)
S1 S 1.09572(12) 0.37200(15) 0.56868(8)
S2 S 0.34292(12) -0.00010(14) 0.53285(7)
S3 S 0.62916(13) 0.29816(18) 0.45259(8)
S4 S 1.06868(16) 0.05601(19) 0.71808(8)
S5 S 1.09780(17) 0.2281(2) 0.39895(10)
O1 O 1.0170(3) -0.0263(4) 0.56032(19)
F1 F 0.5981(4) 0.3305(5) 0.6818(2)
O2 O 0.8280(3) 0.2432(4) 0.4592(2)
F2 F 0.3157(3) 0.3724(5) 0.6438(2)
O3 O 0.8405(3) 0.2413(5) 0.5522(2)
O4 O 0.9869(3) 0.1220(4) 0.6073(2)
F3 F 0.4338(4) 0.5178(4) 0.6495(2)
O5 O 1.0153(4) 0.2569(4) 0.4285(2)
O6 O 0.1145(3) 0.1422(4) 0.5177(2)
F4 F 0.4696(4) 0.4350(4) 0.72754(19)
O7 O 0.1577(3) -0.0264(4) 0.4931(2)
O8 O 1.0076(4) 0.3318(4) 0.5448(2)
F5 F 0.5940(4) 0.4751(4) 0.6319(3)
C1 C 0.2923(5) 0.1906(6) 0.5573(3)
C2 C 0.7017(4) 0.2798(5) 0.5100(3)
C3 C 1.2106(5) -0.2169(6) 0.7350(3)
C4 C 1.1566(5) -0.1226(6) 0.7167(3)
C5 C 0.3831(5) 0.1880(6) 0.5736(3)
C6 C 0.5685(4) 0.3035(6) 0.5497(3)
C7 C 1.0677(5) -0.0159(6) 0.6559(3)
C8 C 1.0207(5) 0.0290(6) 0.6055(3)
C9 C 0.5121(5) 0.3180(5) 0.5967(3)
C10 C 0.3944(6) 0.3274(7) 0.6546(4)
C11 C 0.4311(5) 0.2774(6) 0.6036(3)
C12 C 0.4206(5) 0.0867(5) 0.5632(3)
C13 C 1.1171(5) -0.1088(5) 0.6616(3)
H1 H 1.1242 -0.1589 0.6318
C14 C 0.2618(4) 0.0956(6) 0.5339(3)
C15 C 0.7955(5) 0.2542(6) 0.5055(3)
C16 C 0.1696(5) 0.0675(6) 0.5127(3)
C17 C 0.5428(5) 0.3105(7) 0.4937(3)
C18 C 0.5422(5) 0.3881(6) 0.6462(3)
C19 C 1.0947(8) 0.3568(11) 0.6414(4)
H2 H 1.0974 0.2789 0.6511
H3 H 1.0408 0.3885 0.6543
H4 H 1.1453 0.3945 0.6598
C20 C 0.4606(6) 0.4211(7) 0.6719(4)
C21 C 0.4520(6) 0.3332(8) 0.4677(4)
H5 H 0.4531 0.3336 0.4267
H6 H 0.4321 0.4046 0.4806
H7 H 0.4120 0.2761 0.4791
C22 C 1.1355(6) -0.0391(8) 0.7525(3)
C23 C 1.0919(9) 0.5161(7) 0.5623(5)
H8 H 1.0913 0.5364 0.5225
H9 H 1.1434 0.5480 0.5827
H10 H 1.0388 0.5437 0.5782
C24 C 1.1617(7) -0.0255(9) 0.8140(3)
H11 H 1.1371 0.0429 0.8276
H12 H 1.2256 -0.0230 0.8196
H13 H 1.1394 -0.0873 0.8350
C25 C 1.0806(8) 0.2853(12) 0.3298(4)
H14 H 1.0364 0.2422 0.3079
H15 H 1.1356 0.2840 0.3112
H16 H 1.0603 0.3611 0.3326
C26 C 1.1777(8) 0.3285(12) 0.4255(5)
H17 H 1.1970 0.3107 0.4645
H18 H 1.1512 0.4015 0.4240
H19 H 1.2281 0.3274 0.4024
C27 C 0.6604(4) 0.2871(6) 0.5587(3)
H20 H 0.6898 0.2817 0.5949
C28 C 0.5108(5) 0.0492(6) 0.5777(3)
H21 H 0.5174 -0.0263 0.5648
H22 H 0.5231 0.0523 0.6186
H23 H 0.5519 0.0966 0.5595
C29 C 1.1811(10) -0.3299(7) 0.7223(4)
C30 C 1.2500 -0.4014(9) 0.7500
F6 F 1.2876(8) -0.4213(9) 0.6950(4)
F7 F 1.2168(8) -0.3562(8) 0.6639(4)
F8 F 1.1016(7) -0.3496(8) 0.7585(6)
F9 F 0.3860(5) 0.2553(5) 0.6957(2)
H24 H 0.264(7) 0.246(9) 0.564(4)
S4A S 1.43132(16) 0.05601(19) 0.78192(8)
O1A O 1.4830(3) -0.0263(4) 0.93968(19)
O4A O 1.5131(3) 0.1220(4) 0.8927(2)
C3A C 1.2894(5) -0.2169(6) 0.7650(3)
C4A C 1.3434(5) -0.1226(6) 0.7833(3)
C7A C 1.4323(5) -0.0159(6) 0.8441(3)
C8A C 1.4793(5) 0.0290(6) 0.8945(3)
C13A C 1.3829(5) -0.1088(5) 0.8384(3)
H1A H 1.3758 -0.1589 0.8682
C22A C 1.3645(6) -0.0391(8) 0.7475(3)
C24A C 1.3383(7) -0.0255(9) 0.6860(3)
H11A H 1.3629 0.0429 0.6724
H12A H 1.2744 -0.0230 0.6804
H13A H 1.3606 -0.0873 0.6650
C29A C 1.3189(10) -0.3299(7) 0.7777(4)
F6A F 1.2124(8) -0.4213(9) 0.8050(4)
F7A F 1.2832(8) -0.3562(8) 0.8361(4)
F8A F 1.3984(7) -0.3496(8) 0.7415(6)
Dy1A Dy 1.53901(2) 0.15854(2) 0.992883(12)
S1A S 1.40428(12) 0.37200(15) 0.93132(8)
S2A S 2.15708(12) -0.00010(14) 0.96715(7)
S3A S 1.87084(13) 0.29816(18) 1.04741(8)
S5A S 1.40220(17) 0.2281(2) 1.10105(10)
F1A F 1.9019(4) 0.3305(5) 0.8182(2)
O2A O 1.6720(3) 0.2432(4) 1.0408(2)
F2A F 2.1843(3) 0.3724(5) 0.8562(2)
O3A O 1.6595(3) 0.2413(5) 0.9478(2)
F3A F 2.0662(4) 0.5178(4) 0.8505(2)
O5A O 1.4847(4) 0.2569(4) 1.0715(2)
O6A O 2.3855(3) 0.1422(4) 0.9823(2)
F4A F 2.0304(4) 0.4350(4) 0.77246(19)
O7A O 2.3423(3) -0.0264(4) 1.0069(2)
O8A O 1.4924(4) 0.3318(4) 0.9552(2)
F5A F 1.9060(4) 0.4751(4) 0.8681(3)
C1A C 2.2077(5) 0.1906(6) 0.9427(3)
C2A C 1.7983(4) 0.2798(5) 0.9900(3)
C5A C 2.1169(5) 0.1880(6) 0.9264(3)
C6A C 1.9315(4) 0.3035(6) 0.9503(3)
C9A C 1.9879(5) 0.3180(5) 0.9033(3)
C10A C 2.1056(6) 0.3274(7) 0.8454(4)
C11A C 2.0689(5) 0.2774(6) 0.8964(3)
C12A C 2.0794(5) 0.0867(5) 0.9368(3)
C14A C 2.2382(4) 0.0956(6) 0.9661(3)
C15A C 1.7045(5) 0.2542(6) 0.9945(3)
C16A C 2.3304(5) 0.0675(6) 0.9873(3)
C17A C 1.9572(5) 0.3105(7) 1.0063(3)
C18A C 1.9578(5) 0.3881(6) 0.8538(3)
C19A C 1.4053(8) 0.3568(11) 0.8586(4)
H2A H 1.4026 0.2789 0.8489
H3A H 1.4592 0.3885 0.8457
H4A H 1.3547 0.3945 0.8402
C20A C 2.0394(6) 0.4211(7) 0.8281(4)
C21A C 2.0480(6) 0.3332(8) 1.0323(4)
H5A H 2.0469 0.3336 1.0733
H6A H 2.0679 0.4046 1.0194
H7A H 2.0880 0.2761 1.0209
C23A C 1.4081(9) 0.5161(7) 0.9377(5)
H8A H 1.4087 0.5364 0.9775
H9A H 1.3566 0.5480 0.9173
H10A H 1.4612 0.5437 0.9218
C25A C 1.4194(8) 0.2853(12) 1.1702(4)
H14A H 1.4636 0.2422 1.1921
H15A H 1.3644 0.2840 1.1888
H16A H 1.4397 0.3611 1.1674
C26A C 1.3223(8) 0.3285(12) 1.0745(5)
H17A H 1.3030 0.3107 1.0355
H18A H 1.3488 0.4015 1.0760
H19A H 1.2719 0.3274 1.0976
C27A C 1.8396(4) 0.2871(6) 0.9413(3)
H20A H 1.8102 0.2817 0.9051
C28A C 1.9892(5) 0.0492(6) 0.9223(3)
H21A H 1.9826 -0.0263 0.9352
H22A H 1.9769 0.0523 0.8814
H23A H 1.9481 0.0966 0.9405
F9A F 2.1140(5) 0.2553(5) 0.8043(2)
H24A H 2.236(7) 0.246(9) 0.936(4)
Dy1_2 Dy -0.03901(2) 0.15854(2) 0.507117(12)
Dy1A_2 Dy 2.53901(2) 0.15854(2) 0.992883(12)
Dy1B Dy 0.03901(2) -0.15854(2) 0.492883(12)
Dy1B_2 Dy 1.03901(2) -0.15854(2) 0.492883(12)
Dy1C Dy 1.46099(2) -0.15854(2) 1.007117(12)
Dy1C_2 Dy 2.46099(2) -0.15854(2) 1.007117(12)
O1B O 0.9830(3) 0.0263(4) 0.43968(19)
O1C O 1.5170(3) 0.0263(4) 1.06032(19)
O6_2 O 1.1145(3) 0.1422(4) 0.5177(2)
O6A_2 O 1.3855(3) 0.1422(4) 0.9823(2)
O7B O 0.8423(3) 0.0264(4) 0.5069(2)
O7C O 1.6577(3) 0.0264(4) 0.9931(2)
O9 O 0.8836(6) 0.4254(9) 0.6281(4)
C31 C 0.8412(13) 0.386(2) 0.6733(8)
C32 C 1.1731(7) -0.0029(10) 0.3156(4)
O10 O 1.2427(13) -0.0377(14) 0.3734(9)
C33 C 0.442(2) 0.211(3) 0.3217(11)
O11 O 0.356(3) 0.200(3) 0.3451(17)
F10? F 1.1125(9) -0.3583(9) 0.7198(6)
F11? F 1.1355(8) -0.3469(7) 0.6725(4)
F12? F 1.2777(6) -0.5004(7) 0.7385(5)
loop_
_geom_bond_atom_site_label_1
_geom_bond_atom_site_label_2
_geom_bond_site_symmetry_1
_geom_bond_site_symmetry_2
Dy1 O1 1_555 1_555
S1 O8 1_555 1_555
S2 C12 1_555 1_555
S3 C2 1_555 1_555
S4 C7 1_555 1_555
S5 O5 1_555 1_555
O1 C8 1_555 1_555
F1 C18 1_555 1_555
O2 Dy1 1_555 1_555
F2 C10 1_555 1_555
O3 Dy1 1_555 1_555
O4 Dy1 1_555 1_555
F3 C20 1_555 1_555
O5 Dy1 1_555 1_555
O6 C16 1_555 1_555
F4 C20 1_555 1_555
O7 C16 1_555 1_555
O8 Dy1 1_555 1_555
F5 C18 1_555 1_555
C1 C5 1_555 1_555
C2 C15 1_555 1_555
C3 C4 1_555 1_555
C4 C13 1_555 1_555
C5 C11 1_555 1_555
C6 C9 1_555 1_555
C7 C8 1_555 1_555
C8 O4 1_555 1_555
C9 C11 1_555 1_555
C10 C11 1_555 1_555
C12 C5 1_555 1_555
C13 C7 1_555 1_555
H1 C13 1_555 1_555
C14 S2 1_555 1_555
C15 O2 1_555 1_555
C16 C14 1_555 1_555
C17 S3 1_555 1_555
C18 C9 1_555 1_555
C19 S1 1_555 1_555
H2 C19 1_555 1_555
H3 C19 1_555 1_555
H4 C19 1_555 1_555
C20 C10 1_555 1_555
C21 C17 1_555 1_555
H5 C21 1_555 1_555
H6 C21 1_555 1_555
H7 C21 1_555 1_555
C22 S4 1_555 1_555
C23 S1 1_555 1_555
H8 C23 1_555 1_555
H9 C23 1_555 1_555
H10 C23 1_555 1_555
C24 C22 1_555 1_555
H11 C24 1_555 1_555
H12 C24 1_555 1_555
H13 C24 1_555 1_555
C25 S5 1_555 1_555
H14 C25 1_555 1_555
H15 C25 1_555 1_555
H16 C25 1_555 1_555
C26 S5 1_555 1_555
H17 C26 1_555 1_555
H18 C26 1_555 1_555
H19 C26 1_555 1_555
C27 C2 1_555 1_555
H20 C27 1_555 1_555
C28 C12 1_555 1_555
H21 C28 1_555 1_555
H22 C28 1_555 1_555
H23 C28 1_555 1_555
C29 C3 1_555 1_555
C30 C29 1_555 1_555
F6 C30 1_555 1_555
F7 C29 1_555 1_555
F8 C29 1_555 1_555
F9 C10 1_555 1_555
H24 C1 1_555 1_555
O9 C31 1_555 1_555
C32 O10 1_555 1_555
C33 O11 1_555 1_555
S4A C7A 1_555 1_555
O1A C8A 1_555 1_555
O4A C8A 1_555 1_555
C3A C3 1_555 1_555
C4A C3A 1_555 1_555
C7A C8A 1_555 1_555
C13A C4A 1_555 1_555
H1A C13A 1_555 1_555
C22A S4A 1_555 1_555
C24A C22A 1_555 1_555
H11A C24A 1_555 1_555
H12A C24A 1_555 1_555
H13A C24A 1_555 1_555
C29A C30 1_555 1_555
F6A C30 1_555 1_555
F7A C29A 1_555 1_555
F8A C29A 1_555 1_555
Dy1A O1A 1_555 1_555
S1A O8A 1_555 1_555
S2A C12A 1_555 1_555
S3A C2A 1_555 1_555
S5A O5A 1_555 1_555
F1A C18A 1_555 1_555
O2A Dy1A 1_555 1_555
F2A C10A 1_555 1_555
O3A Dy1A 1_555 1_555
F3A C20A 1_555 1_555
O5A Dy1A 1_555 1_555
O6A C16A 1_555 1_555
F4A C20A 1_555 1_555
O7A C16A 1_555 1_555
O8A Dy1A 1_555 1_555
F5A C18A 1_555 1_555
C1A C5A 1_555 1_555
C2A C15A 1_555 1_555
C5A C11A 1_555 1_555
C6A C9A 1_555 1_555
C9A C11A 1_555 1_555
C10A C11A 1_555 1_555
C12A C5A 1_555 1_555
C14A S2A 1_555 1_555
C15A O2A 1_555 1_555
C16A C14A 1_555 1_555
C17A S3A 1_555 1_555
C18A C9A 1_555 1_555
C19A S1A 1_555 1_555
H2A C19A 1_555 1_555
H3A C19A 1_555 1_555
H4A C19A 1_555 1_555
C20A C10A 1_555 1_555
C21A C17A 1_555 1_555
H5A C21A 1_555 1_555
H6A C21A 1_555 1_555
H7A C21A 1_555 1_555
C23A S1A 1_555 1_555
H8A C23A 1_555 1_555
H9A C23A 1_555 1_555
H10A C23A 1_555 1_555
C25A S5A 1_555 1_555
H14A C25A 1_555 1_555
H15A C25A 1_555 1_555
H16A C25A 1_555 1_555
C26A S5A 1_555 1_555
H17A C26A 1_555 1_555
H18A C26A 1_555 1_555
H19A C26A 1_555 1_555
C27A C2A 1_555 1_555
H20A C27A 1_555 1_555
C28A C12A 1_555 1_555
H21A C28A 1_555 1_555
H22A C28A 1_555 1_555
H23A C28A 1_555 1_555
F9A C10A 1_555 1_555
H24A C1A 1_555 1_555
Dy1_2 O6 1_555 1_555
Dy1A_2 O6A 1_555 1_555
Dy1B O7 1_555 1_555
Dy1B_2 O1 1_555 1_555
Dy1C O1A 1_555 1_555
Dy1C_2 O7A 1_555 1_555
O1B Dy1 1_555 1_555
O1C Dy1A 1_555 1_555
O6_2 Dy1 1_555 1_555
O6A_2 Dy1A 1_555 1_555
O7B Dy1 1_555 1_555
O7C Dy1A 1_555 1_555
O3 C15 1_555 1_555
C1 C14 1_555 1_555
C4 C22 1_555 1_555
C6 C17 1_555 1_555
C6 C27 1_555 1_555
C18 C20 1_555 1_555
O4A Dy1A 1_555 1_555
C3A C29A 1_555 1_555
C4A C22A 1_555 1_555
C7A C13A 1_555 1_555
O3A C15A 1_555 1_555
C1A C14A 1_555 1_555
C6A C17A 1_555 1_555
C6A C27A 1_555 1_555
C18A C20A 1_555 1_555
Dy1B_2 O1B 1_555 1_555
Dy1C O1C 1_555 1_555

#END
