
#######################################################################
#
#                 Cambridge Crystallographic Data Centre
#                                CCDC 
#
#######################################################################
#
# If this CIF has been generated from an entry in the Cambridge 
# Structural Database, then it will include bibliographic, chemical, 
# crystal, experimental, refinement or atomic coordinate data resulting 
# from the CCDC's data processing and validation procedures.
#
#######################################################################

data_MOPBIE
_symmetry_cell_setting           cubic
_symmetry_space_group_name_H-M   'P a -3'
_symmetry_Int_Tables_number      205
_space_group_name_Hall           '-P 2ac 2ab 3'
loop_
_symmetry_equiv_pos_site_id
_symmetry_equiv_pos_as_xyz
1 x,y,z
2 1/2-x,-y,1/2+z
3 -x,1/2+y,1/2-z
4 1/2+x,1/2-y,-z
5 z,x,y
6 1/2+z,1/2-x,-y
7 1/2-z,-x,1/2+y
8 -z,1/2+x,1/2-y
9 y,z,x
10 -y,1/2+z,1/2-x
11 1/2+y,1/2-z,-x
12 1/2-y,-z,1/2+x
13 -x,-y,-z
14 1/2+x,y,1/2-z
15 x,1/2-y,1/2+z
16 1/2-x,1/2+y,z
17 -z,-x,-y
18 1/2-z,1/2+x,y
19 1/2+z,x,1/2-y
20 z,1/2-x,1/2+y
21 -y,-z,-x
22 y,1/2-z,1/2+x
23 1/2-y,1/2+z,x
24 1/2+y,z,1/2-x
_cell_length_a                   20.4860(14)
_cell_length_b                   20.4860(14)
_cell_length_c                   20.4860(14)
_cell_angle_alpha                90
_cell_angle_beta                 90
_cell_angle_gamma                90
_cell_volume                     8597.49
loop_
_atom_site_label
_atom_site_type_symbol
_atom_site_fract_x
_atom_site_fract_y
_atom_site_fract_z
C18 C 0.0000 0.5000 1.0000
N2 N 0.03904(12) 0.53904(12) 0.96096(12)
S1 S 0.03904(12) 0.53904(12) 0.96096(12)
N2L N -0.03904(12) 0.46096(12) 1.03904(12)
S1L S -0.03904(12) 0.46096(12) 1.03904(12)
K1 K 0.0000 0.5000 0.5000
C1 C 0.14787(19) 0.56456(18) 0.60715(18)
C2 C 0.22063(18) 0.56343(17) 0.60825(17)
C3 C 0.2503(2) 0.5177(2) 0.5675(2)
H1 H 0.2241 0.4904 0.5424
C4 C 0.3173(3) 0.5117(3) 0.5635(3)
H2 H 0.3357 0.4802 0.5364
C5 C 0.3562(2) 0.5517(2) 0.5990(2)
H3 H 0.4013 0.5474 0.5964
C6 C 0.32924(18) 0.5988(2) 0.6392(2)
H4 H 0.3563 0.6267 0.6626
C7 C 0.26198(17) 0.60452(17) 0.64468(17)
C8 C 0.27442(17) 0.69040(19) 0.72429(19)
H5 H 0.3009 0.7184 0.6967
H6 H 0.3033 0.6635 0.7504
C9 C 0.23162(17) 0.73162(17) 0.76838(17)
C10 C 0.18840(19) 0.68840(19) 0.81160(19)
H7 H 0.2144 0.6542 0.8304
C11 C 0.0456(2) 0.6070(3) 0.6489(3)
H8 H 0.0270 0.5635 0.6503
H9 H 0.0308 0.6280 0.6091
C12 C 0.02229(18) 0.6455(2) 0.7069(2)
C13 C -0.0011(2) 0.7083(3) 0.7003(3)
H10 H -0.0017 0.7280 0.6594
C14 C -0.0233(3) 0.7418(3) 0.7536(4)
H11 H -0.0390 0.7842 0.7488
C15 C -0.0225(3) 0.7134(4) 0.8134(3)
H12 H -0.0386 0.7359 0.8494
C16 C 0.0015(3) 0.6526(3) 0.8207(3)
H13 H 0.0035 0.6337 0.8619
C17 C 0.0228(2) 0.6190(3) 0.7681(3)
H14 H 0.0383 0.5766 0.7737
N1 N 0.11706(15) 0.6025(2) 0.64859(18)
H15 H 0.1392 0.6252 0.6761
O1 O 0.11732(15) 0.53137(16) 0.56787(15)
O2 O 0.23315(11) 0.64973(12) 0.68454(12)
C1G C 0.39285(18) 0.64787(19) 0.93544(18)
C2G C 0.39175(17) 0.72063(18) 0.93657(17)
C3G C 0.4325(2) 0.7503(2) 0.9823(2)
H1G H 0.4576 0.7241 1.0096
C4G C 0.4365(3) 0.8173(3) 0.9883(3)
H2G H 0.4636 0.8357 1.0198
C5G C 0.4010(2) 0.8562(2) 0.9483(2)
H3G H 0.4036 0.9013 0.9526
C6G C 0.3608(2) 0.82924(18) 0.9012(2)
H4G H 0.3374 0.8563 0.8733
C7G C 0.35532(17) 0.76198(17) 0.89548(17)
C8G C 0.27571(19) 0.77442(17) 0.80960(19)
H5G H 0.3033 0.8009 0.7816
H6G H 0.2496 0.8033 0.8365
H7G H 0.1696 0.7144 0.8458
C11G C 0.3511(3) 0.5456(2) 0.8930(3)
H8G H 0.3497 0.5270 0.9365
H9G H 0.3909 0.5308 0.8720
C12G C 0.2931(2) 0.52229(18) 0.8545(2)
C13G C 0.2997(3) 0.4989(2) 0.7917(3)
H10G H 0.3406 0.4983 0.7720
C14G C 0.2464(4) 0.4767(3) 0.7582(3)
H11G H 0.2512 0.4610 0.7158
C15G C 0.1866(3) 0.4775(3) 0.7866(4)
H12G H 0.1506 0.4614 0.7641
C16G C 0.1793(3) 0.5015(3) 0.8474(3)
H13G H 0.1381 0.5035 0.8663
C17G C 0.2319(3) 0.5228(2) 0.8810(3)
H14G H 0.2263 0.5383 0.9234
N1G N 0.35141(18) 0.61706(15) 0.8975(2)
H15G H 0.3239 0.6392 0.8748
O1G O 0.43213(15) 0.61732(15) 0.96863(16)
O2G O 0.31546(12) 0.73315(11) 0.85027(12)
C1J C 0.06456(18) 0.89285(18) 0.85213(19)
C2J C 0.06343(17) 0.89175(17) 0.77937(18)
C3J C 0.0177(2) 0.9325(2) 0.7497(2)
H1J H -0.0096 0.9576 0.7759
C4J C 0.0117(3) 0.9365(3) 0.6827(3)
H2J H -0.0198 0.9636 0.6643
C5J C 0.0517(2) 0.9010(2) 0.6438(2)
H3J H 0.0474 0.9036 0.5987
C6J C 0.0988(2) 0.8608(2) 0.67076(18)
H4J H 0.1267 0.8374 0.6437
C7J C 0.10452(17) 0.85532(17) 0.73802(17)
C8J C 0.19040(19) 0.77571(19) 0.72558(17)
H5J H 0.2184 0.8033 0.6991
H6J H 0.1635 0.7496 0.6967
H7J H 0.1542 0.6696 0.7856
C11J C 0.1070(3) 0.8511(3) 0.9544(2)
H8J H 0.0635 0.8497 0.9730
H9J H 0.1280 0.8909 0.9692
C12J C 0.1455(2) 0.7931(2) 0.97771(18)
C13J C 0.2083(3) 0.7997(3) 1.0011(2)
H10J H 0.2280 0.8406 1.0017
C14J C 0.2418(3) 0.7464(4) 1.0233(3)
H11J H 0.2842 0.7512 1.0390
C15J C 0.2134(4) 0.6866(3) 1.0225(3)
H12J H 0.2359 0.6506 1.0386
C16J C 0.1526(3) 0.6793(3) 0.9985(3)
H13J H 0.1337 0.6381 0.9965
C17J C 0.1190(3) 0.7319(3) 0.9772(2)
H14J H 0.0766 0.7263 0.9617
N1J N 0.1025(2) 0.85141(18) 0.88294(15)
H15J H 0.1252 0.8239 0.8608
O1J O 0.03137(16) 0.93213(15) 0.88268(15)
O2J O 0.14973(12) 0.81546(12) 0.76685(11)
C1L C -0.14787(19) 0.43544(18) 0.39285(18)
C2L C -0.22063(18) 0.43657(17) 0.39175(17)
C3L C -0.2503(2) 0.4823(2) 0.4325(2)
H1L H -0.2241 0.5096 0.4576
C4L C -0.3173(3) 0.4883(3) 0.4365(3)
H2L H -0.3357 0.5198 0.4636
C5L C -0.3562(2) 0.4483(2) 0.4010(2)
H3L H -0.4013 0.4526 0.4036
C6L C -0.32924(18) 0.4012(2) 0.3608(2)
H4L H -0.3563 0.3733 0.3374
C7L C -0.26198(17) 0.39548(17) 0.35532(17)
C8L C -0.27442(17) 0.30960(19) 0.27571(19)
H5L H -0.3009 0.2816 0.3033
H6L H -0.3033 0.3365 0.2496
C9L C -0.23162(17) 0.26838(17) 0.23162(17)
C10L C -0.18840(19) 0.31160(19) 0.18840(19)
H7L H -0.2144 0.3458 0.1696
C11L C -0.0456(2) 0.3930(3) 0.3511(3)
H8L H -0.0270 0.4365 0.3497
H9L H -0.0308 0.3720 0.3909
C12L C -0.02229(18) 0.3545(2) 0.2931(2)
C13L C 0.0011(2) 0.2917(3) 0.2997(3)
H10L H 0.0017 0.2720 0.3406
C14L C 0.0233(3) 0.2582(3) 0.2464(4)
H11L H 0.0390 0.2158 0.2512
C15L C 0.0225(3) 0.2866(4) 0.1866(3)
H12L H 0.0386 0.2641 0.1506
C16L C -0.0015(3) 0.3474(3) 0.1793(3)
H13L H -0.0035 0.3663 0.1381
C17L C -0.0228(2) 0.3810(3) 0.2319(3)
H14L H -0.0383 0.4234 0.2263
N1L N -0.11706(15) 0.3975(2) 0.35141(18)
H15L H -0.1392 0.3748 0.3239
O1L O -0.11732(15) 0.46863(16) 0.43213(15)
O2L O -0.23315(11) 0.35027(12) 0.31546(12)
C1S C -0.39285(18) 0.35213(19) 0.06456(18)
C2S C -0.39175(17) 0.27937(18) 0.06343(17)
C3S C -0.4325(2) 0.2497(2) 0.0177(2)
H1S H -0.4576 0.2759 -0.0096
C4S C -0.4365(3) 0.1827(3) 0.0117(3)
H2S H -0.4636 0.1643 -0.0198
C5S C -0.4010(2) 0.1438(2) 0.0517(2)
H3S H -0.4036 0.0987 0.0474
C6S C -0.3608(2) 0.17076(18) 0.0988(2)
H4S H -0.3374 0.1437 0.1267
C7S C -0.35532(17) 0.23802(17) 0.10452(17)
C8S C -0.27571(19) 0.22558(17) 0.19040(19)
H5S H -0.3033 0.1991 0.2184
H6S H -0.2496 0.1967 0.1635
H7S H -0.1696 0.2856 0.1542
C11S C -0.3511(3) 0.4544(2) 0.1070(3)
H8S H -0.3497 0.4730 0.0635
H9S H -0.3909 0.4692 0.1280
C12S C -0.2931(2) 0.47771(18) 0.1455(2)
C13S C -0.2997(3) 0.5011(2) 0.2083(3)
H10S H -0.3406 0.5017 0.2280
C14S C -0.2464(4) 0.5233(3) 0.2418(3)
H11S H -0.2512 0.5390 0.2842
C15S C -0.1866(3) 0.5225(3) 0.2134(4)
H12S H -0.1506 0.5386 0.2359
C16S C -0.1793(3) 0.4985(3) 0.1526(3)
H13S H -0.1381 0.4965 0.1337
C17S C -0.2319(3) 0.4772(2) 0.1190(3)
H14S H -0.2263 0.4617 0.0766
N1S N -0.35141(18) 0.38294(15) 0.1025(2)
H15S H -0.3239 0.3608 0.1252
O1S O -0.43213(15) 0.38268(15) 0.03137(16)
O2S O -0.31546(12) 0.26685(11) 0.14973(12)
C1V C -0.06456(18) 0.10715(18) 0.14787(19)
C2V C -0.06343(17) 0.10825(17) 0.22063(18)
C3V C -0.0177(2) 0.0675(2) 0.2503(2)
H1V H 0.0096 0.0424 0.2241
C4V C -0.0117(3) 0.0635(3) 0.3173(3)
H2V H 0.0198 0.0364 0.3357
C5V C -0.0517(2) 0.0990(2) 0.3562(2)
H3V H -0.0474 0.0964 0.4013
C6V C -0.0988(2) 0.1392(2) 0.32924(18)
H4V H -0.1267 0.1626 0.3563
C7V C -0.10452(17) 0.14468(17) 0.26198(17)
C8V C -0.19040(19) 0.22429(19) 0.27442(17)
H5V H -0.2184 0.1967 0.3009
H6V H -0.1635 0.2504 0.3033
H7V H -0.1542 0.3304 0.2144
C11V C -0.1070(3) 0.1489(3) 0.0456(2)
H8V H -0.0635 0.1503 0.0270
H9V H -0.1280 0.1091 0.0308
C12V C -0.1455(2) 0.2069(2) 0.02229(18)
C13V C -0.2083(3) 0.2003(3) -0.0011(2)
H10V H -0.2280 0.1594 -0.0017
C14V C -0.2418(3) 0.2536(4) -0.0233(3)
H11V H -0.2842 0.2488 -0.0390
C15V C -0.2134(4) 0.3134(3) -0.0225(3)
H12V H -0.2359 0.3494 -0.0386
C16V C -0.1526(3) 0.3207(3) 0.0015(3)
H13V H -0.1337 0.3619 0.0035
C17V C -0.1190(3) 0.2681(3) 0.0228(2)
H14V H -0.0766 0.2737 0.0383
N1V N -0.1025(2) 0.14859(18) 0.11706(15)
H15V H -0.1252 0.1761 0.1392
O1V O -0.03137(16) 0.06787(15) 0.11732(15)
O2V O -0.14973(12) 0.18454(12) 0.23315(11)
K1A K -0.5000 0.5000 0.0000
K1A_2 K 0.5000 0.5000 1.0000
K1B K 0.0000 0.0000 0.0000
K1B_2 K 0.0000 1.0000 1.0000
O1E O 0.06787(15) 0.38268(15) 0.46863(16)
O1K O -0.03137(16) 0.43213(15) 0.61732(15)
O1Q O -0.06787(15) 0.61732(15) 0.53137(16)
O1W O 0.03137(16) 0.56787(15) 0.38268(15)
H16? H 0.2144 0.6542 0.8304
H17? H 0.2144 0.6542 0.8304
loop_
_geom_bond_atom_site_label_1
_geom_bond_atom_site_label_2
_geom_bond_site_symmetry_1
_geom_bond_site_symmetry_2
K1 O1 1_555 1_555
C1 C2 1_555 1_555
C2 C3 1_555 1_555
C3 H1 1_555 1_555
C4 C3 1_555 1_555
H2 C4 1_555 1_555
C5 C4 1_555 1_555
H3 C5 1_555 1_555
C6 C5 1_555 1_555
H4 C6 1_555 1_555
C7 C2 1_555 1_555
C8 H5 1_555 1_555
H6 C8 1_555 1_555
C9 C8 1_555 1_555
C10 C9 1_555 1_555
H7 C10 1_555 1_555
C11 H8 1_555 1_555
H9 C11 1_555 1_555
C12 C11 1_555 1_555
C13 C12 1_555 1_555
H10 C13 1_555 1_555
C14 C13 1_555 1_555
H11 C14 1_555 1_555
C15 C14 1_555 1_555
H12 C15 1_555 1_555
C16 C15 1_555 1_555
H13 C16 1_555 1_555
C17 C12 1_555 1_555
H14 C17 1_555 1_555
N1 C1 1_555 1_555
H15 N1 1_555 1_555
O1 C1 1_555 1_555
O2 C7 1_555 1_555
C18 N2 1_555 1_555
S1 C18 1_555 1_555
C1G C2G 1_555 1_555
C2G C3G 1_555 1_555
C3G H1G 1_555 1_555
C4G C3G 1_555 1_555
H2G C4G 1_555 1_555
C5G C4G 1_555 1_555
H3G C5G 1_555 1_555
C6G C5G 1_555 1_555
H4G C6G 1_555 1_555
C7G C2G 1_555 1_555
C8G C9 1_555 1_555
H5G C8G 1_555 1_555
H6G C8G 1_555 1_555
H7G C10 1_555 1_555
C11G H8G 1_555 1_555
H9G C11G 1_555 1_555
C12G C11G 1_555 1_555
C13G C12G 1_555 1_555
H10G C13G 1_555 1_555
C14G C13G 1_555 1_555
H11G C14G 1_555 1_555
C15G C14G 1_555 1_555
H12G C15G 1_555 1_555
C16G C15G 1_555 1_555
H13G C16G 1_555 1_555
C17G C12G 1_555 1_555
H14G C17G 1_555 1_555
N1G C1G 1_555 1_555
H15G N1G 1_555 1_555
O1G C1G 1_555 1_555
O2G C7G 1_555 1_555
C1J C2J 1_555 1_555
C2J C3J 1_555 1_555
C3J H1J 1_555 1_555
C4J C3J 1_555 1_555
H2J C4J 1_555 1_555
C5J C4J 1_555 1_555
H3J C5J 1_555 1_555
C6J C5J 1_555 1_555
H4J C6J 1_555 1_555
C7J C2J 1_555 1_555
C8J C9 1_555 1_555
H5J C8J 1_555 1_555
H6J C8J 1_555 1_555
H7J C10 1_555 1_555
C11J H8J 1_555 1_555
H9J C11J 1_555 1_555
C12J C11J 1_555 1_555
C13J C12J 1_555 1_555
H10J C13J 1_555 1_555
C14J C13J 1_555 1_555
H11J C14J 1_555 1_555
C15J C14J 1_555 1_555
H12J C15J 1_555 1_555
C16J C15J 1_555 1_555
H13J C16J 1_555 1_555
C17J C12J 1_555 1_555
H14J C17J 1_555 1_555
N1J C1J 1_555 1_555
H15J N1J 1_555 1_555
O1J C1J 1_555 1_555
O2J C7J 1_555 1_555
C1L C2L 1_555 1_555
C2L C3L 1_555 1_555
C3L H1L 1_555 1_555
C4L C3L 1_555 1_555
H2L C4L 1_555 1_555
C5L C4L 1_555 1_555
H3L C5L 1_555 1_555
C6L C5L 1_555 1_555
H4L C6L 1_555 1_555
C7L C2L 1_555 1_555
C8L H5L 1_555 1_555
H6L C8L 1_555 1_555
C9L C8L 1_555 1_555
C10L C9L 1_555 1_555
H7L C10L 1_555 1_555
C11L H8L 1_555 1_555
H9L C11L 1_555 1_555
C12L C11L 1_555 1_555
C13L C12L 1_555 1_555
H10L C13L 1_555 1_555
C14L C13L 1_555 1_555
H11L C14L 1_555 1_555
C15L C14L 1_555 1_555
H12L C15L 1_555 1_555
C16L C15L 1_555 1_555
H13L C16L 1_555 1_555
C17L C12L 1_555 1_555
H14L C17L 1_555 1_555
N1L C1L 1_555 1_555
H15L N1L 1_555 1_555
O1L K1 1_555 1_555
O2L C7L 1_555 1_555
C1S C2S 1_555 1_555
C2S C3S 1_555 1_555
C3S H1S 1_555 1_555
C4S C3S 1_555 1_555
H2S C4S 1_555 1_555
C5S C4S 1_555 1_555
H3S C5S 1_555 1_555
C6S C5S 1_555 1_555
H4S C6S 1_555 1_555
C7S C2S 1_555 1_555
C8S C9L 1_555 1_555
H5S C8S 1_555 1_555
H6S C8S 1_555 1_555
H7S C10L 1_555 1_555
C11S H8S 1_555 1_555
H9S C11S 1_555 1_555
C12S C11S 1_555 1_555
C13S C12S 1_555 1_555
H10S C13S 1_555 1_555
C14S C13S 1_555 1_555
H11S C14S 1_555 1_555
C15S C14S 1_555 1_555
H12S C15S 1_555 1_555
C16S C15S 1_555 1_555
H13S C16S 1_555 1_555
C17S C12S 1_555 1_555
H14S C17S 1_555 1_555
N1S C1S 1_555 1_555
H15S N1S 1_555 1_555
O1S C1S 1_555 1_555
O2S C7S 1_555 1_555
C1V C2V 1_555 1_555
C2V C3V 1_555 1_555
C3V H1V 1_555 1_555
C4V C3V 1_555 1_555
H2V C4V 1_555 1_555
C5V C4V 1_555 1_555
H3V C5V 1_555 1_555
C6V C5V 1_555 1_555
H4V C6V 1_555 1_555
C7V C2V 1_555 1_555
C8V C9L 1_555 1_555
H5V C8V 1_555 1_555
H6V C8V 1_555 1_555
H7V C10L 1_555 1_555
C11V H8V 1_555 1_555
H9V C11V 1_555 1_555
C12V C11V 1_555 1_555
C13V C12V 1_555 1_555
H10V C13V 1_555 1_555
C14V C13V 1_555 1_555
H11V C14V 1_555 1_555
C15V C14V 1_555 1_555
H12V C15V 1_555 1_555
C16V C15V 1_555 1_555
H13V C16V 1_555 1_555
C17V C12V 1_555 1_555
H14V C17V 1_555 1_555
N1V C1V 1_555 1_555
H15V N1V 1_555 1_555
O1V C1V 1_555 1_555
O2V C7V 1_555 1_555
K1A O1S 1_555 1_555
K1A_2 O1G 1_555 1_555
K1B O1V 1_555 1_555
K1B_2 O1J 1_555 1_555
O1E K1 1_555 1_555
O1K K1 1_555 1_555
O1Q K1 1_555 1_555
O1W K1 1_555 1_555
N2L C18 1_555 1_555
S1L C18 1_555 1_555
C6 C7 1_555 1_555
C8 O2 1_555 1_555
C11 N1 1_555 1_555
C16 C17 1_555 1_555
C6G C7G 1_555 1_555
C8G O2G 1_555 1_555
C11G N1G 1_555 1_555
C16G C17G 1_555 1_555
C6J C7J 1_555 1_555
C8J O2J 1_555 1_555
C11J N1J 1_555 1_555
C16J C17J 1_555 1_555
C1L O1L 1_555 1_555
C6L C7L 1_555 1_555
C8L O2L 1_555 1_555
C11L N1L 1_555 1_555
C16L C17L 1_555 1_555
C6S C7S 1_555 1_555
C8S O2S 1_555 1_555
C11S N1S 1_555 1_555
C16S C17S 1_555 1_555
C6V C7V 1_555 1_555
C8V O2V 1_555 1_555
C11V N1V 1_555 1_555
C16V C17V 1_555 1_555

#END
