
#######################################################################
#
#                 Cambridge Crystallographic Data Centre
#                                CCDC 
#
#######################################################################
#
# If this CIF has been generated from an entry in the Cambridge 
# Structural Database, then it will include bibliographic, chemical, 
# crystal, experimental, refinement or atomic coordinate data resulting 
# from the CCDC's data processing and validation procedures.
#
#######################################################################

data_MOPCEA
_symmetry_cell_setting           triclinic
_symmetry_space_group_name_H-M   'P -1'
_symmetry_Int_Tables_number      2
_space_group_name_Hall           '-P 1'
loop_
_symmetry_equiv_pos_site_id
_symmetry_equiv_pos_as_xyz
1 x,y,z
2 -x,-y,-z
_cell_length_a                   8.5086(14)
_cell_length_b                   8.8210(14)
_cell_length_c                   11.3779(18)
_cell_angle_alpha                83.653(2)
_cell_angle_beta                 85.280(2)
_cell_angle_gamma                62.368(2)
_cell_volume                     751.458
loop_
_atom_site_label
_atom_site_type_symbol
_atom_site_fract_x
_atom_site_fract_y
_atom_site_fract_z
Mn1 Mn 0.0000 1.0000 0.0000
O1 O -0.0365(3) 1.0382(3) 0.18930(18)
N1 N 0.0938(3) 0.9690(3) 0.2686(2)
C1 C -0.1391(4) 0.5805(4) 0.0787(2)
N2 N -0.0611(3) 0.6687(3) 0.0144(2)
O2 O -0.1233(3) 0.8325(3) 0.0287(2)
O3 O 0.2695(3) 0.7985(3) 0.0196(2)
H1 H 0.3114 0.6988 0.0636
H2 H 0.3546 0.7843 -0.0355
C2 C 0.0770(4) 0.8703(4) 0.3680(2)
C3 C -0.0776(4) 0.8477(4) 0.3923(3)
O4 O -0.2217(3) 0.9281(4) 0.3250(2)
H3 H -0.1981 0.9786 0.2718
C4 C 0.2180(4) 0.7947(4) 0.4473(3)
C5 C -0.0735(4) 0.4102(4) 0.0632(3)
H4 H -0.1233 0.3472 0.1075
C6 C 0.3696(4) 0.9318(5) 0.3292(3)
H5 H 0.4643 0.9576 0.3164
C7 C 0.2323(4) 1.0000(4) 0.2499(3)
H6 H 0.2381 1.0682 0.1829
C8 C -0.0820(5) 0.7449(5) 0.4908(3)
H7 H -0.1813 0.7269 0.5070
C9 C -0.2893(5) 0.6737(4) 0.1612(3)
H8 H -0.2492 0.7145 0.2214
H9 H -0.3347 0.5976 0.1973
H10 H -0.3813 0.7693 0.1184
C10 C 0.3649(5) 0.8280(5) 0.4246(3)
H11 H 0.4591 0.7784 0.4756
C11 C 0.2046(6) 0.6908(5) 0.5477(3)
H12 H 0.2965 0.6389 0.6004
C12 C 0.0588(6) 0.6669(5) 0.5671(3)
H13 H 0.0522 0.5969 0.6328
Mn1_2 Mn 0.0000 0.0000 0.0000
O1A O 0.0365(3) 0.9618(3) -0.18930(18)
N1A N -0.0938(3) 1.0310(3) -0.2686(2)
C1A C 0.1391(4) 0.4195(4) -0.0787(2)
N2A N 0.0611(3) 0.3313(3) -0.0144(2)
O2A O 0.1233(3) 0.1675(3) -0.0287(2)
O2A_2 O 0.1233(3) 1.1675(3) -0.0287(2)
O3A O -0.2695(3) 1.2015(3) -0.0196(2)
H1A H -0.3114 1.3012 -0.0636
H2A H -0.3546 1.2157 0.0355
C2A C -0.0770(4) 1.1297(4) -0.3680(2)
C3A C 0.0776(4) 1.1523(4) -0.3923(3)
O4A O 0.2217(3) 1.0719(4) -0.3250(2)
H3A H 0.1981 1.0214 -0.2718
C4A C -0.2180(4) 1.2053(4) -0.4473(3)
C5A C 0.0735(4) 0.5898(4) -0.0632(3)
H4A H 0.1233 0.6528 -0.1075
C6A C -0.3696(4) 1.0682(5) -0.3292(3)
H5A H -0.4643 1.0424 -0.3164
C7A C -0.2323(4) 1.0000(4) -0.2499(3)
H6A H -0.2381 0.9318 -0.1829
C8A C 0.0820(5) 1.2551(5) -0.4908(3)
H7A H 0.1813 1.2731 -0.5070
C9A C 0.2893(5) 0.3263(4) -0.1612(3)
H8A H 0.2492 0.2855 -0.2214
H9A H 0.3347 0.4024 -0.1973
H10A H 0.3813 0.2307 -0.1184
C10A C -0.3649(5) 1.1720(5) -0.4246(3)
H11A H -0.4591 1.2216 -0.4756
C11A C -0.2046(6) 1.3092(5) -0.5477(3)
H12A H -0.2965 1.3611 -0.6004
C12A C -0.0588(6) 1.3331(5) -0.5671(3)
H13A H -0.0522 1.4031 -0.6328
Cl1 Cl 0.37585(12) 0.38825(12) 0.21315(7)
O5 O 0.4169(8) 0.2539(6) 0.1389(4)
O6 O 0.1833(11) 0.4712(12) 0.2113(8)
O7 O 0.4766(14) 0.4644(14) 0.1751(7)
O8 O 0.3986(8) 0.3328(7) 0.3321(4)
O9? O 0.2293(13) 0.5504(14) 0.1865(9)
loop_
_geom_bond_atom_site_label_1
_geom_bond_atom_site_label_2
_geom_bond_site_symmetry_1
_geom_bond_site_symmetry_2
Mn1 O1 1_555 1_555
Cl1 O5 1_555 1_555
O1 N1 1_555 1_555
N1 C2 1_555 1_555
C1 N2 1_555 1_555
N2 O2 1_555 1_555
O2 Mn1 1_555 1_555
O3 Mn1 1_555 1_555
H1 O3 1_555 1_555
H2 O3 1_555 1_555
C2 C3 1_555 1_555
C3 O4 1_555 1_555
O4 H3 1_555 1_555
C4 C2 1_555 1_555
C5 C1 1_555 1_555
H4 C5 1_555 1_555
C6 H5 1_555 1_555
C7 N1 1_555 1_555
H6 C7 1_555 1_555
C8 C3 1_555 1_555
H7 C8 1_555 1_555
C9 C1 1_555 1_555
H8 C9 1_555 1_555
H9 C9 1_555 1_555
H10 C9 1_555 1_555
C10 C4 1_555 1_555
H11 C10 1_555 1_555
C11 C4 1_555 1_555
H12 C11 1_555 1_555
C12 C8 1_555 1_555
H13 C12 1_555 1_555
O6 Cl1 1_555 1_555
O7 Cl1 1_555 1_555
O8 Cl1 1_555 1_555
Mn1_2 O2A 1_555 1_555
O1A Mn1 1_555 1_555
N1A O1A 1_555 1_555
C1A N2A 1_555 1_555
N2A C5 1_555 1_555
O2A N2A 1_555 1_555
O2A_2 Mn1 1_555 1_555
O3A Mn1 1_555 1_555
H1A O3A 1_555 1_555
H2A O3A 1_555 1_555
C2A N1A 1_555 1_555
C3A C2A 1_555 1_555
O4A C3A 1_555 1_555
H3A O4A 1_555 1_555
C4A C2A 1_555 1_555
C5A N2 1_555 1_555
H4A C5A 1_555 1_555
C6A H5A 1_555 1_555
C7A N1A 1_555 1_555
H6A C7A 1_555 1_555
C8A C3A 1_555 1_555
H7A C8A 1_555 1_555
C9A C1A 1_555 1_555
H8A C9A 1_555 1_555
H9A C9A 1_555 1_555
H10A C9A 1_555 1_555
C10A C4A 1_555 1_555
H11A C10A 1_555 1_555
C11A C4A 1_555 1_555
H12A C11A 1_555 1_555
C12A C8A 1_555 1_555
H13A C12A 1_555 1_555
C6 C7 1_555 1_555
C6 C10 1_555 1_555
C11 C12 1_555 1_555
C1A C5A 1_555 1_555
C6A C7A 1_555 1_555
C6A C10A 1_555 1_555
C11A C12A 1_555 1_555

#END
