
#######################################################################
#
#                 Cambridge Crystallographic Data Centre
#                                CCDC 
#
#######################################################################
#
# If this CIF has been generated from an entry in the Cambridge 
# Structural Database, then it will include bibliographic, chemical, 
# crystal, experimental, refinement or atomic coordinate data resulting 
# from the CCDC's data processing and validation procedures.
#
#######################################################################

data_MOPFEC
_symmetry_cell_setting           triclinic
_symmetry_space_group_name_H-M   'P -1'
_symmetry_Int_Tables_number      2
_space_group_name_Hall           '-P 1'
loop_
_symmetry_equiv_pos_site_id
_symmetry_equiv_pos_as_xyz
1 x,y,z
2 -x,-y,-z
_cell_length_a                   9.8888(10)
_cell_length_b                   10.7259(10)
_cell_length_c                   13.1808(10)
_cell_angle_alpha                69.450(10)
_cell_angle_beta                 82.737(10)
_cell_angle_gamma                70.075(10)
_cell_volume                     1230.68
loop_
_atom_site_label
_atom_site_type_symbol
_atom_site_fract_x
_atom_site_fract_y
_atom_site_fract_z
Cu1 Cu 0.40027(8) 0.58871(7) 0.08625(6)
Cu2 Cu 0.03274(7) 0.83752(7) -0.01586(5)
Cu3 Cu 0.15483(7) 0.53354(7) 0.05125(5)
Cu4 Cu 0.15312(6) 0.70915(6) 0.18339(5)
S1 S 0.16403(12) 0.91962(11) 0.07883(10)
S2 S 0.35015(14) 1.04639(13) -0.09779(12)
S3 S 0.32517(12) 0.56377(11) -0.07297(9)
S4 S 0.34792(17) 0.77038(15) -0.29250(11)
S5 S -0.08035(12) 0.67158(12) 0.04980(9)
S6 S -0.24033(16) 0.57429(17) 0.25791(12)
S7 S 0.33675(13) 0.50400(12) 0.26153(10)
S8 S 0.2492(2) 0.25320(16) 0.39916(11)
N1 N 0.4213(4) 0.7789(4) 0.0122(3)
N2 N 0.1495(4) 0.8335(4) -0.1528(3)
N3 N -0.0275(4) 0.6690(4) 0.2459(3)
N4 N 0.1846(4) 0.3809(4) 0.1954(3)
C1 C 0.3235(5) 0.8964(5) 0.0026(4)
C2 C 0.5160(6) 0.9403(5) -0.1417(5)
H1 H 0.5073 0.9441 -0.2153
H2 H 0.5948 0.9736 -0.1392
C3 C 0.5429(5) 0.7883(5) -0.0624(4)
H3 H 0.5572 0.7250 -0.1032
H4 H 0.6296 0.7594 -0.0215
C4 C 0.1163(6) 0.9622(5) -0.2467(4)
H5 H 0.1173 1.0398 -0.2255
H6 H 0.0206 0.9835 -0.2723
C5 C 0.2233(8) 0.9467(7) -0.3364(5)
H7 H 0.2743 1.0144 -0.3522
H8 H 0.1746 0.9632 -0.4015
C6 C 0.2584(5) 0.7337(4) -0.1666(4)
C7 C -0.1041(5) 0.6436(5) 0.1888(4)
C8 C -0.2003(11) 0.5979(15) 0.3781(6)
H9 H -0.2776 0.6737 0.3936
H10 H -0.1905 0.5126 0.4395
C9 C -0.0692(7) 0.6305(7) 0.3602(5)
H11 H 0.0067 0.5497 0.4016
H12 H -0.0801 0.7076 0.3860
C10 C 0.2502(5) 0.3833(5) 0.2718(4)
C11 C 0.1206(6) 0.2692(6) 0.2286(4)
H13 H 0.1699 0.2011 0.1925
H14 H 0.0204 0.3080 0.2071
C12 C 0.1303(12) 0.1979(9) 0.3485(6)
H15 H 0.1659 0.0968 0.3652
H16 H 0.0359 0.2228 0.3816
S3A S 0.67483(12) 0.43623(11) 0.07297(9)
S1A S -0.16403(12) 1.08038(11) -0.07883(10)
Cu2A Cu -0.03274(7) 1.16248(7) 0.01586(5)
Cu1A Cu 0.59973(8) 0.41129(7) -0.08625(6)
O1 O -0.5545(5) 0.8390(6) 0.4233(3)
O2 O -0.1788(4) 1.2147(4) -0.4323(4)
loop_
_geom_bond_atom_site_label_1
_geom_bond_atom_site_label_2
_geom_bond_site_symmetry_1
_geom_bond_site_symmetry_2
Cu1 Cu3 1_555 1_555
Cu2 Cu3 1_555 1_555
Cu3 Cu4 1_555 1_555
Cu4 Cu1 1_555 1_555
S1 Cu2 1_555 1_555
S2 C1 1_555 1_555
S3 Cu1 1_555 1_555
S4 C5 1_555 1_555
S5 Cu2 1_555 1_555
S6 C7 1_555 1_555
S7 Cu1 1_555 1_555
S8 C10 1_555 1_555
N1 Cu1 1_555 1_555
N2 Cu2 1_555 1_555
N3 Cu4 1_555 1_555
N4 Cu3 1_555 1_555
C1 S1 1_555 1_555
C2 S2 1_555 1_555
H1 C2 1_555 1_555
H2 C2 1_555 1_555
C3 N1 1_555 1_555
H3 C3 1_555 1_555
H4 C3 1_555 1_555
C4 N2 1_555 1_555
H5 C4 1_555 1_555
H6 C4 1_555 1_555
C5 C4 1_555 1_555
H7 C5 1_555 1_555
H8 C5 1_555 1_555
C6 S3 1_555 1_555
C7 S5 1_555 1_555
C8 S6 1_555 1_555
H9 C8 1_555 1_555
H10 C8 1_555 1_555
C9 N3 1_555 1_555
H11 C9 1_555 1_555
H12 C9 1_555 1_555
C10 S7 1_555 1_555
C11 N4 1_555 1_555
H13 C11 1_555 1_555
H14 C11 1_555 1_555
C12 S8 1_555 1_555
H15 C12 1_555 1_555
H16 C12 1_555 1_555
S3A Cu1 1_555 1_555
S1A Cu2 1_555 1_555
Cu2A S1 1_555 1_555
Cu1A S3 1_555 1_555
Cu2 Cu4 1_555 1_555
Cu3 S3 1_555 1_555
Cu3 S5 1_555 1_555
Cu4 S1 1_555 1_555
Cu4 S7 1_555 1_555
S4 C6 1_555 1_555
N1 C1 1_555 1_555
N2 C6 1_555 1_555
N3 C7 1_555 1_555
N4 C10 1_555 1_555
C2 C3 1_555 1_555
C8 C9 1_555 1_555
C11 C12 1_555 1_555
S3A Cu1A 1_555 1_555
S1A Cu2A 1_555 1_555

#END
