
#######################################################################
#
#                 Cambridge Crystallographic Data Centre
#                                CCDC 
#
#######################################################################
#
# If this CIF has been generated from an entry in the Cambridge 
# Structural Database, then it will include bibliographic, chemical, 
# crystal, experimental, refinement or atomic coordinate data resulting 
# from the CCDC's data processing and validation procedures.
#
#######################################################################

data_MOPJUY
_symmetry_cell_setting           triclinic
_symmetry_space_group_name_H-M   'P -1'
_symmetry_Int_Tables_number      2
_space_group_name_Hall           '-P 1'
loop_
_symmetry_equiv_pos_site_id
_symmetry_equiv_pos_as_xyz
1 x,y,z
2 -x,-y,-z
_cell_length_a                   9.8614(10)
_cell_length_b                   10.1055(11)
_cell_length_c                   11.2904(12)
_cell_angle_alpha                65.250(6)
_cell_angle_beta                 84.059(7)
_cell_angle_gamma                66.936(6)
_cell_volume                     937.644
loop_
_atom_site_label
_atom_site_type_symbol
_atom_site_fract_x
_atom_site_fract_y
_atom_site_fract_z
Pb1 Pb 0.038791(14) 0.227501(15) 0.606406(13)
N1 N -0.6693(4) 1.1091(4) -0.3246(4)
N2 N 0.7481(4) 0.3230(6) -0.2941(5)
O1 O -0.1226(3) 0.1886(3) 0.4814(3)
O2 O -0.1360(3) 0.0404(3) 0.3870(3)
O3 O -0.0678(3) 0.4910(3) 0.3956(3)
O4 O 0.1383(3) 0.2943(3) 0.3994(3)
O5 O -0.1861(3) 0.8622(3) -0.0718(3)
O6 O 0.3167(3) 0.4896(3) -0.0450(3)
C1 C 0.0387(4) 0.4315(4) 0.3395(4)
C2 C 0.0511(4) 0.5200(4) 0.1980(4)
C3 C 0.1798(4) 0.4680(4) 0.1378(4)
H1 H 0.2601 0.3778 0.1864
C4 C 0.1874(4) 0.5505(4) 0.0064(4)
C5 C 0.0675(4) 0.6865(5) -0.0688(4)
H2 H 0.0731 0.7432 -0.1574
C6 C -0.0596(4) 0.7337(4) -0.0067(4)
C7 C -0.0679(4) 0.6538(4) 0.1246(4)
H3 H -0.1537 0.6896 0.1643
C8 C 0.3283(5) 0.5667(5) -0.1817(4)
H4 H 0.3174 0.6743 -0.2042
H5 H 0.2506 0.5702 -0.2304
C9 C 0.4771(5) 0.4769(5) -0.2163(4)
C10 C 0.5105(6) 0.5319(7) -0.3444(5)
H6 H 0.4426 0.6218 -0.4079
C11 C 0.6472(6) 0.4508(8) -0.3770(6)
H7 H 0.6689 0.4898 -0.4641
C12 C 0.7147(5) 0.2715(6) -0.1715(5)
H8 H 0.7851 0.1812 -0.1106
C13 C 0.5819(5) 0.3430(5) -0.1272(5)
H9 H 0.5638 0.3014 -0.0394
C14 C -0.2063(4) 0.9185(5) -0.2110(4)
H10 H -0.1553 0.8324 -0.2373
H11 H -0.1660 0.9991 -0.2547
C15 C -0.3693(4) 0.9862(4) -0.2479(4)
C16 C -0.4199(5) 1.0671(7) -0.3753(5)
H12 H -0.3539 1.0832 -0.4396
C17 C -0.5682(5) 1.1256(7) -0.4106(5)
H13 H -0.5991 1.1794 -0.4991
C18 C -0.6189(5) 1.0291(6) -0.2014(5)
H14 H -0.6870 1.0143 -0.1388
C19 C -0.4723(5) 0.9656(6) -0.1583(5)
H15 H -0.4436 0.9094 -0.0695
C20 C -0.0732(4) 0.0656(4) 0.4616(4)
O1A O 0.1226(3) -0.1886(3) 0.5186(3)
O2A O 0.1360(3) -0.0404(3) 0.6130(3)
C20A C 0.0732(4) -0.0656(4) 0.5384(4)
Pb1A Pb -0.038791(14) -0.227501(15) 0.393594(13)
N1A N 0.6693(4) -1.1091(4) 1.3246(4)
N2A N -0.7481(4) -0.3230(6) 1.2941(5)
O3A O 0.0678(3) -0.4910(3) 0.6044(3)
O4A O -0.1383(3) -0.2943(3) 0.6006(3)
O5A O 0.1861(3) -0.8622(3) 1.0718(3)
O6A O -0.3167(3) -0.4896(3) 1.0450(3)
C1A C -0.0387(4) -0.4315(4) 0.6605(4)
C2A C -0.0511(4) -0.5200(4) 0.8020(4)
C3A C -0.1798(4) -0.4680(4) 0.8622(4)
H1A H -0.2601 -0.3778 0.8136
C4A C -0.1874(4) -0.5505(4) 0.9936(4)
C5A C -0.0675(4) -0.6865(5) 1.0688(4)
H2A H -0.0731 -0.7432 1.1574
C6A C 0.0596(4) -0.7337(4) 1.0067(4)
C7A C 0.0679(4) -0.6538(4) 0.8754(4)
H3A H 0.1537 -0.6896 0.8357
C8A C -0.3283(5) -0.5667(5) 1.1817(4)
H4A H -0.3174 -0.6743 1.2042
H5A H -0.2506 -0.5702 1.2304
C9A C -0.4771(5) -0.4769(5) 1.2163(4)
C10A C -0.5105(6) -0.5319(7) 1.3444(5)
H6A H -0.4426 -0.6218 1.4079
C11A C -0.6472(6) -0.4508(8) 1.3770(6)
H7A H -0.6689 -0.4898 1.4641
C12A C -0.7147(5) -0.2715(6) 1.1715(5)
H8A H -0.7851 -0.1812 1.1106
C13A C -0.5819(5) -0.3430(5) 1.1272(5)
H9A H -0.5638 -0.3014 1.0394
C14A C 0.2063(4) -0.9185(5) 1.2110(4)
H10A H 0.1553 -0.8324 1.2373
H11A H 0.1660 -0.9991 1.2547
C15A C 0.3693(4) -0.9862(4) 1.2479(4)
C16A C 0.4199(5) -1.0671(7) 1.3753(5)
H12A H 0.3539 -1.0832 1.4396
C17A C 0.5682(5) -1.1256(7) 1.4106(5)
H13A H 0.5991 -1.1794 1.4991
C18A C 0.6189(5) -1.0291(6) 1.2014(5)
H14A H 0.6870 -1.0143 1.1388
C19A C 0.4723(5) -0.9656(6) 1.1583(5)
H15A H 0.4436 -0.9094 1.0695
Pb1_2 Pb -0.961209(14) 1.227501(15) -0.393594(13)
Pb1_3 Pb 1.038791(14) 0.227501(15) -0.393594(13)
Pb1A_2 Pb -1.038791(14) -0.227501(15) 1.393594(13)
Pb1A_3 Pb 0.961209(14) -1.227501(15) 1.393594(13)
N1_2 N 0.3307(4) 0.1091(4) 0.6754(4)
N1A_2 N -0.3307(4) -0.1091(4) 0.3246(4)
N2_2 N -0.2519(4) 0.3230(6) 0.7059(5)
N2A_2 N 0.2519(4) -0.3230(6) 0.2941(5)
loop_
_geom_bond_atom_site_label_1
_geom_bond_atom_site_label_2
_geom_bond_site_symmetry_1
_geom_bond_site_symmetry_2
Pb1 O1 1_555 1_555
N1 C17 1_555 1_555
N2 C11 1_555 1_555
O1 C20 1_555 1_555
O2 C20 1_555 1_555
O3 Pb1 1_555 1_555
O4 Pb1 1_555 1_555
O5 C6 1_555 1_555
O6 C4 1_555 1_555
C1 O3 1_555 1_555
C2 C1 1_555 1_555
C3 C2 1_555 1_555
H1 C3 1_555 1_555
C4 C3 1_555 1_555
C5 C4 1_555 1_555
H2 C5 1_555 1_555
C6 C5 1_555 1_555
C7 C2 1_555 1_555
H3 C7 1_555 1_555
C8 O6 1_555 1_555
H4 C8 1_555 1_555
H5 C8 1_555 1_555
C9 C8 1_555 1_555
C10 C9 1_555 1_555
H6 C10 1_555 1_555
C11 C10 1_555 1_555
H7 C11 1_555 1_555
C12 N2 1_555 1_555
H8 C12 1_555 1_555
C13 C9 1_555 1_555
H9 C13 1_555 1_555
C14 O5 1_555 1_555
H10 C14 1_555 1_555
H11 C14 1_555 1_555
C15 C14 1_555 1_555
C16 C15 1_555 1_555
H12 C16 1_555 1_555
C17 C16 1_555 1_555
H13 C17 1_555 1_555
C18 N1 1_555 1_555
H14 C18 1_555 1_555
C19 C15 1_555 1_555
H15 C19 1_555 1_555
C20 C20A 1_555 1_555
O1A C20A 1_555 1_555
O2A Pb1 1_555 1_555
C20A O2A 1_555 1_555
Pb1A O2 1_555 1_555
N1A C17A 1_555 1_555
N2A C11A 1_555 1_555
O3A Pb1A 1_555 1_555
O4A Pb1A 1_555 1_555
O5A C6A 1_555 1_555
O6A C4A 1_555 1_555
C1A O3A 1_555 1_555
C2A C1A 1_555 1_555
C3A C2A 1_555 1_555
H1A C3A 1_555 1_555
C4A C3A 1_555 1_555
C5A C4A 1_555 1_555
H2A C5A 1_555 1_555
C6A C5A 1_555 1_555
C7A C2A 1_555 1_555
H3A C7A 1_555 1_555
C8A O6A 1_555 1_555
H4A C8A 1_555 1_555
H5A C8A 1_555 1_555
C9A C8A 1_555 1_555
C10A C9A 1_555 1_555
H6A C10A 1_555 1_555
C11A C10A 1_555 1_555
H7A C11A 1_555 1_555
C12A N2A 1_555 1_555
H8A C12A 1_555 1_555
C13A C9A 1_555 1_555
H9A C13A 1_555 1_555
C14A O5A 1_555 1_555
H10A C14A 1_555 1_555
H11A C14A 1_555 1_555
C15A C14A 1_555 1_555
C16A C15A 1_555 1_555
H12A C16A 1_555 1_555
C17A C16A 1_555 1_555
H13A C17A 1_555 1_555
C18A N1A 1_555 1_555
H14A C18A 1_555 1_555
C19A C15A 1_555 1_555
H15A C19A 1_555 1_555
Pb1_2 N1 1_555 1_555
Pb1_3 N2 1_555 1_555
Pb1A_2 N2A 1_555 1_555
Pb1A_3 N1A 1_555 1_555
N1_2 Pb1 1_555 1_555
N1A_2 Pb1A 1_555 1_555
N2_2 Pb1 1_555 1_555
N2A_2 Pb1A 1_555 1_555
O4 C1 1_555 1_555
C6 C7 1_555 1_555
C12 C13 1_555 1_555
C18 C19 1_555 1_555
O1A Pb1A 1_555 1_555
O4A C1A 1_555 1_555
C6A C7A 1_555 1_555
C12A C13A 1_555 1_555
C18A C19A 1_555 1_555

#END
