
#######################################################################
#
#                 Cambridge Crystallographic Data Centre
#                                CCDC 
#
#######################################################################
#
# If this CIF has been generated from an entry in the Cambridge 
# Structural Database, then it will include bibliographic, chemical, 
# crystal, experimental, refinement or atomic coordinate data resulting 
# from the CCDC's data processing and validation procedures.
#
#######################################################################

data_MOPKIN
_symmetry_cell_setting           monoclinic
_symmetry_space_group_name_H-M   'P 21/c'
_symmetry_Int_Tables_number      14
_space_group_name_Hall           '-P 2ybc'
loop_
_symmetry_equiv_pos_site_id
_symmetry_equiv_pos_as_xyz
1 x,y,z
2 -x,1/2+y,1/2-z
3 -x,-y,-z
4 x,1/2-y,1/2+z
_cell_length_a                   8.906(2)
_cell_length_b                   19.688(5)
_cell_length_c                   7.919(2)
_cell_angle_alpha                90
_cell_angle_beta                 94.15(4)
_cell_angle_gamma                90
_cell_volume                     1384.89
loop_
_atom_site_label
_atom_site_type_symbol
_atom_site_fract_x
_atom_site_fract_y
_atom_site_fract_z
Mn1 Mn 0.50553(5) 0.55464(2) 0.82359(5)
N1 N 0.2459(3) 0.44680(12) 0.8858(3)
O1 O 0.9185(2) 0.67228(11) 0.6559(3)
O2 O 0.2254(3) 0.72185(11) 1.0209(3)
N2 N 0.3638(3) 0.46868(12) 0.9423(3)
N3 N 0.5634(3) 0.67484(12) 0.8360(3)
N4 N 0.7538(3) 0.58781(12) 0.7005(3)
N5 N 0.3153(3) 0.61905(12) 0.9500(3)
C1 C 0.4615(3) 0.71787(14) 0.8928(4)
C2 C 0.3311(3) 0.68316(15) 0.9554(4)
C3 C 0.7873(3) 0.65067(15) 0.7104(4)
C4 C 0.6875(3) 0.70161(14) 0.7771(4)
C5 C 0.4787(3) 0.78771(15) 0.8920(4)
H1 H 0.4052 0.8160 0.9316
C6 C 0.9859(4) 0.61198(16) 0.5827(4)
H2 H 1.0867 0.6041 0.6337
H3 H 0.9904 0.6169 0.4613
C7 C 0.1714(3) 0.60427(16) 1.0242(4)
H4 H 0.1870 0.5747 1.1219
H5 H 0.1008 0.5828 0.9417
C8 C 0.7153(3) 0.77097(15) 0.7731(4)
H6 H 0.8036 0.7877 0.7327
C9 C 0.1138(4) 0.67375(17) 1.0755(5)
H7 H 0.0154 0.6829 1.0196
H8 H 0.1069 0.6762 1.1971
N6 N 0.1327(3) 0.42553(15) 0.8287(4)
C10 C 0.6082(4) 0.81463(16) 0.8307(4)
H9 H 0.6228 0.8614 0.8283
C11 C 0.8803(4) 0.55412(16) 0.6240(5)
H10 H 0.8453 0.5298 0.5221
H11 H 0.9305 0.5224 0.7030
N7 N 0.3885(3) 0.55569(11) 0.4562(3)
N8 N 0.3618(3) 0.57172(13) 0.5949(3)
N9 N 0.4115(3) 0.54222(13) 0.3165(3)
Mn1B Mn 0.49447(5) 0.44536(2) 0.17641(5)
Mn1B_2 Mn 0.49447(5) 0.44536(2) 1.17641(5)
N2B N 0.6362(3) 0.53132(12) 1.0577(3)
N9B N 0.5885(3) 0.45778(13) 0.6835(3)
loop_
_geom_bond_atom_site_label_1
_geom_bond_atom_site_label_2
_geom_bond_site_symmetry_1
_geom_bond_site_symmetry_2
Mn1 N2 1_555 1_555
N1 N2 1_555 1_555
O1 C3 1_555 1_555
O2 C2 1_555 1_555
N2 Mn1B_2 1_555 1_555
N3 Mn1 1_555 1_555
N4 C3 1_555 1_555
N5 Mn1 1_555 1_555
C1 N3 1_555 1_555
C2 N5 1_555 1_555
C3 C4 1_555 1_555
C4 N3 1_555 1_555
C5 C1 1_555 1_555
H1 C5 1_555 1_555
C6 O1 1_555 1_555
H2 C6 1_555 1_555
H3 C6 1_555 1_555
C7 N5 1_555 1_555
H4 C7 1_555 1_555
H5 C7 1_555 1_555
C8 C4 1_555 1_555
H6 C8 1_555 1_555
C9 O2 1_555 1_555
H7 C9 1_555 1_555
H8 C9 1_555 1_555
N6 N1 1_555 1_555
C10 C5 1_555 1_555
H9 C10 1_555 1_555
C11 N4 1_555 1_555
H10 C11 1_555 1_555
H11 C11 1_555 1_555
N7 N8 1_555 1_555
N8 Mn1 1_555 1_555
N9 N7 1_555 1_555
Mn1B N9 1_555 1_555
Mn1B_2 N2B 1_555 1_555
N2B Mn1 1_555 1_555
N9B Mn1 1_555 1_555
C1 C2 1_555 1_555
C6 C11 1_555 1_555
C7 C9 1_555 1_555
C8 C10 1_555 1_555

#END
