
#######################################################################
#
#                 Cambridge Crystallographic Data Centre
#                                CCDC 
#
#######################################################################
#
# If this CIF has been generated from an entry in the Cambridge 
# Structural Database, then it will include bibliographic, chemical, 
# crystal, experimental, refinement or atomic coordinate data resulting 
# from the CCDC's data processing and validation procedures.
#
#######################################################################

data_MOPKAF
_symmetry_cell_setting           monoclinic
_symmetry_space_group_name_H-M   'P 21/n'
_symmetry_Int_Tables_number      14
_space_group_name_Hall           '-P 2yn'
loop_
_symmetry_equiv_pos_site_id
_symmetry_equiv_pos_as_xyz
1 x,y,z
2 1/2-x,1/2+y,1/2-z
3 -x,-y,-z
4 1/2+x,1/2-y,1/2+z
_cell_length_a                   13.0823(2)
_cell_length_b                   10.3988(2)
_cell_length_c                   24.4204(4)
_cell_angle_alpha                90
_cell_angle_beta                 98.2560(10)
_cell_angle_gamma                90
_cell_volume                     3287.73
loop_
_atom_site_label
_atom_site_type_symbol
_atom_site_fract_x
_atom_site_fract_y
_atom_site_fract_z
Ba1 Ba 0.57842(2) 0.40824(3) 0.139048(11)
N1 N 0.6897(3) -0.4505(4) 0.09483(17)
N2 N 0.1974(3) 0.0910(4) -0.28035(15)
N3 N -0.0702(4) 0.6605(6) -0.1633(2)
N4 N 0.4715(3) 1.2722(4) 0.18482(15)
O1 O 0.5370(2) 0.3004(3) 0.05813(13)
O2 O 0.6788(2) 0.2176(4) 0.10504(12)
O3 O 0.7921(3) -0.1103(3) -0.03449(16)
O4 O 0.4830(2) 0.0558(4) -0.12353(13)
O5 O 0.4743(3) 0.6101(3) 0.19997(17)
O6 O 0.4499(3) 0.5439(4) 0.11341(15)
O7 O 0.1123(2) 0.7353(4) 0.02723(14)
O8 O 0.1871(2) 0.9554(3) 0.19509(14)
C1 C 0.6117(3) 0.2222(4) 0.06305(16)
C2 C 0.6195(3) 0.1333(4) 0.01526(16)
C3 C 0.5439(3) 0.1388(4) -0.03111(16)
H1 H 0.4884 0.1950 -0.0322
C4 C 0.5527(3) 0.0591(4) -0.07561(16)
C5 C 0.6347(3) -0.0244(4) -0.07429(17)
H2 H 0.6393 -0.0783 -0.1042
C6 C 0.7096(3) -0.0282(4) -0.02880(18)
C7 C 0.7031(3) 0.0484(4) 0.01684(17)
H3 H 0.7531 0.0436 0.0479
C8 C 0.3961(4) 0.1359(5) -0.12627(17)
H4 H 0.4177 0.2251 -0.1231
H5 H 0.3581 0.1164 -0.0960
C9 C 0.3280(4) 0.1143(4) -0.18093(18)
C10 C 0.2433(5) 0.0380(6) -0.1857(2)
H6 H 0.2281 -0.0086 -0.1554
C11 C 0.1794(4) 0.0297(6) -0.2361(2)
H7 H 0.1210 -0.0220 -0.2384
C12 C 0.2818(4) 0.1616(6) -0.27705(18)
H8 H 0.2963 0.2041 -0.3085
C13 C 0.3494(4) 0.1746(6) -0.22841(19)
H9 H 0.4091 0.2237 -0.2276
C14 C 0.8495(4) -0.1628(5) 0.0130(2)
H10 H 0.8697 -0.0940 0.0391
H11 H 0.9121 -0.2005 0.0030
C15 C 0.7933(3) -0.2632(5) 0.0409(2)
C16 C 0.7058(4) -0.3254(5) 0.0145(2)
H12 H 0.6804 -0.3057 -0.0221
C17 C 0.6565(4) -0.4167(5) 0.0428(2)
H13 H 0.5974 -0.4561 0.0245
C18 C 0.7749(4) -0.3916(5) 0.1197(2)
H14 H 0.7996 -0.4138 0.1561
C19 C 0.8279(4) -0.3001(5) 0.0944(2)
H15 H 0.8872 -0.2631 0.1136
C20 C 0.4266(3) 0.6094(4) 0.1523(2)
C21 C 0.3302(3) 0.6919(4) 0.13929(18)
C22 C 0.3071(3) 0.7851(4) 0.17598(17)
H16 H 0.3499 0.7979 0.2094
C23 C 0.2186(3) 0.8596(4) 0.16224(18)
C24 C 0.1553(3) 0.8403(4) 0.11294(19)
H17 H 0.0960 0.8898 0.1042
C25 C 0.1795(3) 0.7473(4) 0.07622(18)
C26 C 0.2682(3) 0.6737(4) 0.08892(19)
H18 H 0.2858 0.6129 0.0639
C27 C 0.1453(4) 0.6498(6) -0.0132(2)
H19 H 0.1514 0.5628 0.0013
H20 H 0.2122 0.6764 -0.0219
C28 C 0.0664(4) 0.6546(5) -0.0641(2)
C29 C 0.0033(5) 0.5546(6) -0.0796(3)
H21 H 0.0046 0.4819 -0.0574
C30 C -0.0643(5) 0.5614(7) -0.1295(3)
H22 H -0.1077 0.4917 -0.1393
C31 C -0.0075(5) 0.7577(7) -0.1482(3)
H23 H -0.0089 0.8284 -0.1716
C32 C 0.0603(5) 0.7591(7) -0.0990(3)
H24 H 0.1018 0.8307 -0.0897
C33 C 0.2577(4) 1.0022(5) 0.24058(19)
H25 H 0.2950 0.9304 0.2593
H26 H 0.2195 1.0442 0.2668
C34 C 0.3331(4) 1.0953(4) 0.22224(18)
C35 C 0.2990(4) 1.2031(5) 0.1924(2)
H27 H 0.2285 1.2190 0.1840
C36 C 0.3688(4) 1.2878(4) 0.1749(2)
H28 H 0.3431 1.3600 0.1550
C37 C 0.5042(4) 1.1673(5) 0.2133(2)
H29 H 0.5751 1.1532 0.2204
C38 C 0.4409(4) 1.0783(5) 0.2330(2)
H30 H 0.4689 1.0077 0.2531
Ba1_2 Ba 0.57842(2) -0.59176(3) 0.139048(11)
Ba1_3 Ba 0.57842(2) 1.40824(3) 0.139048(11)
Ba1C Ba 0.07842(2) 0.09176(3) -0.360952(11)
N1_2 N 0.6897(3) 0.5495(4) 0.09483(17)
N2C N 0.6974(3) 0.4090(4) 0.21965(15)
N4_2 N 0.4715(3) 0.2722(4) 0.18482(15)
loop_
_geom_bond_atom_site_label_1
_geom_bond_atom_site_label_2
_geom_bond_site_symmetry_1
_geom_bond_site_symmetry_2
Ba1 O1 1_555 1_555
N1 C17 1_555 1_555
N2 C11 1_555 1_555
N3 C30 1_555 1_555
N4 C36 1_555 1_555
O1 C1 1_555 1_555
O2 Ba1 1_555 1_555
O3 C6 1_555 1_555
O4 C4 1_555 1_555
O5 Ba1 1_555 1_555
O6 Ba1 1_555 1_555
O7 C25 1_555 1_555
O8 C23 1_555 1_555
C1 O2 1_555 1_555
C2 C1 1_555 1_555
C3 C2 1_555 1_555
H1 C3 1_555 1_555
C4 C3 1_555 1_555
C5 C4 1_555 1_555
H2 C5 1_555 1_555
C6 C5 1_555 1_555
C7 C2 1_555 1_555
H3 C7 1_555 1_555
C8 O4 1_555 1_555
H4 C8 1_555 1_555
H5 C8 1_555 1_555
C9 C8 1_555 1_555
C10 C9 1_555 1_555
H6 C10 1_555 1_555
C11 C10 1_555 1_555
H7 C11 1_555 1_555
C12 N2 1_555 1_555
H8 C12 1_555 1_555
C13 C9 1_555 1_555
H9 C13 1_555 1_555
C14 O3 1_555 1_555
H10 C14 1_555 1_555
H11 C14 1_555 1_555
C15 C14 1_555 1_555
C16 C15 1_555 1_555
H12 C16 1_555 1_555
C17 C16 1_555 1_555
H13 C17 1_555 1_555
C18 N1 1_555 1_555
H14 C18 1_555 1_555
C19 C15 1_555 1_555
H15 C19 1_555 1_555
C20 O5 1_555 1_555
C21 C20 1_555 1_555
C22 C21 1_555 1_555
H16 C22 1_555 1_555
C23 C22 1_555 1_555
C24 C23 1_555 1_555
H17 C24 1_555 1_555
C25 C24 1_555 1_555
C26 C21 1_555 1_555
H18 C26 1_555 1_555
C27 O7 1_555 1_555
H19 C27 1_555 1_555
H20 C27 1_555 1_555
C28 C27 1_555 1_555
C29 C28 1_555 1_555
H21 C29 1_555 1_555
C30 C29 1_555 1_555
H22 C30 1_555 1_555
C31 N3 1_555 1_555
H23 C31 1_555 1_555
C32 C28 1_555 1_555
H24 C32 1_555 1_555
C33 O8 1_555 1_555
H25 C33 1_555 1_555
H26 C33 1_555 1_555
C34 C33 1_555 1_555
C35 C34 1_555 1_555
H27 C35 1_555 1_555
C36 C35 1_555 1_555
H28 C36 1_555 1_555
C37 N4 1_555 1_555
H29 C37 1_555 1_555
C38 C34 1_555 1_555
H30 C38 1_555 1_555
Ba1_2 N1 1_555 1_555
Ba1_3 N4 1_555 1_555
Ba1C N2 1_555 1_555
N1_2 Ba1 1_555 1_555
N2C Ba1 1_555 1_555
N4_2 Ba1 1_555 1_555
O6 C20 1_555 1_555
C6 C7 1_555 1_555
C12 C13 1_555 1_555
C18 C19 1_555 1_555
C25 C26 1_555 1_555
C31 C32 1_555 1_555
C37 C38 1_555 1_555

#END
