
#######################################################################
#
#                 Cambridge Crystallographic Data Centre
#                                CCDC 
#
#######################################################################
#
# If this CIF has been generated from an entry in the Cambridge 
# Structural Database, then it will include bibliographic, chemical, 
# crystal, experimental, refinement or atomic coordinate data resulting 
# from the CCDC's data processing and validation procedures.
#
#######################################################################

data_MOPKUZ
_symmetry_cell_setting           monoclinic
_symmetry_space_group_name_H-M   'P 21/c'
_symmetry_Int_Tables_number      14
_space_group_name_Hall           '-P 2ybc'
loop_
_symmetry_equiv_pos_site_id
_symmetry_equiv_pos_as_xyz
1 x,y,z
2 -x,1/2+y,1/2-z
3 -x,-y,-z
4 x,1/2-y,1/2+z
_cell_length_a                   10.861(2)
_cell_length_b                   7.2872(15)
_cell_length_c                   19.898(4)
_cell_angle_alpha                90
_cell_angle_beta                 92.44(3)
_cell_angle_gamma                90
_cell_volume                     1573.42
loop_
_atom_site_label
_atom_site_type_symbol
_atom_site_fract_x
_atom_site_fract_y
_atom_site_fract_z
Ni1 Ni 0.686876(12) 0.04368(2) 0.144307(7)
O1 O 0.59067(8) 0.10221(13) 0.22336(4)
O2 O 0.71353(9) -0.07936(14) 0.28713(5)
O3 O 0.73023(9) 0.10135(15) 0.53584(5)
O4 O 0.58399(8) 0.29176(13) 0.57137(4)
N1 N 0.42572(9) 0.33232(15) 0.37999(5)
N2 N 0.80837(10) 0.23795(15) 0.17121(5)
N3 N 0.83574(10) -0.05608(15) 0.09961(6)
C1 C 0.47533(11) 0.23870(17) 0.33001(6)
C2 C 0.57582(11) 0.12353(17) 0.34011(6)
C3 C 0.63217(11) 0.03910(17) 0.27960(6)
C4 C 0.62600(11) 0.10239(17) 0.40493(6)
H1 H 0.6984(15) 0.023(2) 0.4129(8)
C5 C 0.57478(11) 0.19732(17) 0.45744(6)
C6 C 0.63499(11) 0.19267(17) 0.52782(6)
C7 C 0.47426(11) 0.31008(17) 0.44280(6)
H2 H 0.4359(14) 0.381(2) 0.4772(8)
C8 C 0.78008(14) 0.3927(2) 0.20299(7)
H3 H 0.6960(15) 0.401(2) 0.2166(8)
C9 C 0.86657(17) 0.5299(2) 0.21546(8)
H4 H 0.8372(18) 0.641(3) 0.2389(10)
C10 C 0.98460(16) 0.5039(2) 0.19443(8)
H5 H 1.0483(19) 0.592(3) 0.2033(10)
C11 C 1.01383(13) 0.3451(2) 0.16055(8)
H6 H 1.0976(17) 0.326(3) 0.1447(9)
C12 C 0.92284(12) 0.21356(19) 0.14925(6)
C13 C 0.94047(12) 0.04035(19) 0.11231(7)
C14 C 1.05352(13) -0.0217(2) 0.09113(8)
H7 H 1.1275(17) 0.050(2) 0.1014(9)
C15 C 1.05702(15) -0.1829(3) 0.05421(8)
H8 H 1.1374(18) -0.228(3) 0.0383(10)
C16 C 0.94962(15) -0.2777(2) 0.04028(8)
H9 H 0.9453(19) -0.392(3) 0.0122(11)
C17 C 0.84019(13) -0.2122(2) 0.06442(7)
H10 H 0.7650(16) -0.284(2) 0.0570(8)
H11 H 0.4379(14) 0.255(2) 0.2853(8)
Ni1A Ni 0.313124(12) 0.54368(2) 0.355693(7)
Ni1C Ni 0.686876(12) 0.45632(2) 0.644307(7)
O4C O 0.58399(8) 0.20824(13) 0.07137(4)
N1A N 0.57428(9) -0.16768(15) 0.12001(5)
O5 O 0.33283(11) 0.14745(18) 0.11072(7)
H12 H 0.323(2) 0.221(3) 0.1475(12)
H13 H 0.411(2) 0.163(4) 0.0991(12)
loop_
_geom_bond_atom_site_label_1
_geom_bond_atom_site_label_2
_geom_bond_site_symmetry_1
_geom_bond_site_symmetry_2
Ni1 O1 1_555 1_555
O1 C3 1_555 1_555
O2 C3 1_555 1_555
O3 C6 1_555 1_555
O4 C6 1_555 1_555
N1 C1 1_555 1_555
N2 Ni1 1_555 1_555
N3 Ni1 1_555 1_555
C1 C2 1_555 1_555
C2 C3 1_555 1_555
C4 C2 1_555 1_555
H1 C4 1_555 1_555
C5 C4 1_555 1_555
C6 C5 1_555 1_555
C7 N1 1_555 1_555
H2 C7 1_555 1_555
C8 N2 1_555 1_555
H3 C8 1_555 1_555
C9 C8 1_555 1_555
H4 C9 1_555 1_555
C10 C9 1_555 1_555
H5 C10 1_555 1_555
C11 C10 1_555 1_555
H6 C11 1_555 1_555
C12 N2 1_555 1_555
C13 N3 1_555 1_555
C14 C13 1_555 1_555
H7 C14 1_555 1_555
C15 C14 1_555 1_555
H8 C15 1_555 1_555
C16 C15 1_555 1_555
H9 C16 1_555 1_555
C17 N3 1_555 1_555
H10 C17 1_555 1_555
H11 C1 1_555 1_555
O5 H12 1_555 1_555
H13 O5 1_555 1_555
Ni1A N1 1_555 1_555
Ni1C O4 1_555 1_555
O4C Ni1 1_555 1_555
N1A Ni1 1_555 1_555
C5 C7 1_555 1_555
C11 C12 1_555 1_555
C12 C13 1_555 1_555
C16 C17 1_555 1_555

#END
