
#######################################################################
#
#                 Cambridge Crystallographic Data Centre
#                                CCDC 
#
#######################################################################
#
# If this CIF has been generated from an entry in the Cambridge 
# Structural Database, then it will include bibliographic, chemical, 
# crystal, experimental, refinement or atomic coordinate data resulting 
# from the CCDC's data processing and validation procedures.
#
#######################################################################

data_MOPLIO
_symmetry_cell_setting           triclinic
_symmetry_space_group_name_H-M   'P -1'
_symmetry_Int_Tables_number      2
_space_group_name_Hall           '-P 1'
loop_
_symmetry_equiv_pos_site_id
_symmetry_equiv_pos_as_xyz
1 x,y,z
2 -x,-y,-z
_cell_length_a                   8.2026(16)
_cell_length_b                   11.283(2)
_cell_length_c                   11.597(2)
_cell_angle_alpha                76.50(3)
_cell_angle_beta                 70.88(3)
_cell_angle_gamma                76.97(3)
_cell_volume                     973.019
loop_
_atom_site_label
_atom_site_type_symbol
_atom_site_fract_x
_atom_site_fract_y
_atom_site_fract_z
Cu1 Cu 0.25733(3) 0.20161(2) 0.29010(2)
O1 O 0.5563(2) 0.41494(15) -0.14369(15)
N1 N 0.4884(3) 0.33894(18) -0.18676(18)
C1 C 0.3244(3) 0.3538(2) -0.1954(2)
O2 O 0.47486(19) 0.21865(14) 0.15033(14)
N2 N 0.5934(3) 0.2412(2) -0.2324(2)
C2 C 0.3329(3) 0.2542(2) -0.2494(2)
O3 O 0.2976(2) 0.37770(15) 0.07885(16)
N3 N 0.4988(3) 0.1880(2) -0.2702(2)
C3 C 0.1855(4) 0.2351(3) -0.2747(2)
H1 H 0.1885 0.1679 -0.3094
N4 N 0.1614(2) 0.12325(16) 0.18930(16)
C4 C 0.0392(4) 0.3192(3) -0.2462(3)
H2 H -0.0604 0.3096 -0.2624
N5 N 0.3403(2) 0.30878(16) 0.37196(16)
C5 C 0.0320(4) 0.4206(3) -0.1929(3)
H3 H -0.0720 0.4761 -0.1756
O4 O 0.4057(3) 0.03103(15) 0.37767(18)
C6 C 0.1728(4) 0.4407(3) -0.1656(3)
H4 H 0.1679 0.5076 -0.1297
C7 C 0.6002(3) 0.3496(2) -0.0324(2)
H5 H 0.6565 0.4011 -0.0061
H6 H 0.6831 0.2753 -0.0506
C8 C 0.4417(3) 0.3142(2) 0.0728(2)
C9 C 0.2668(3) 0.0555(2) 0.1058(2)
H7 H 0.3859 0.0400 0.0980
C10 C 0.2095(3) 0.0069(2) 0.0304(2)
H8 H 0.2896 -0.0391 -0.0270
C11 C 0.0334(3) 0.02612(19) 0.03944(19)
C12 C -0.0758(3) 0.0956(3) 0.1274(2)
H9 H -0.1957 0.1114 0.1382
C13 C -0.0082(3) 0.1414(3) 0.1991(2)
H10 H -0.0853 0.1876 0.2574
C14 C 0.2408(3) 0.4108(2) 0.4117(2)
H11 H 0.1273 0.4312 0.4053
C15 C 0.2980(3) 0.4876(2) 0.4618(2)
H12 H 0.2235 0.5576 0.4882
C16 C 0.4662(3) 0.46043(18) 0.47284(18)
C17 C 0.5698(3) 0.3537(2) 0.4306(2)
H13 H 0.6841 0.3313 0.4351
C18 C 0.5024(3) 0.2815(2) 0.3824(2)
H14 H 0.5732 0.2104 0.3559
O5 O 0.0268(2) 0.21960(16) 0.41433(15)
O6 O 0.1026(3) 0.0699(2) 0.56062(18)
C19 C -0.0015(4) 0.1505(3) 0.5193(2)
H15 H -0.1151 0.1622 0.5714
H16 H 0.4199 -0.0386 0.3561
H17 H 0.3375 0.0224 0.4509
N4A N -0.1614(2) -0.12325(16) -0.18930(16)
C9A C -0.2668(3) -0.0555(2) -0.1058(2)
H7A H -0.3859 -0.0400 -0.0980
C10A C -0.2095(3) -0.0069(2) -0.0304(2)
H8A H -0.2896 0.0391 0.0270
C11A C -0.0334(3) -0.02612(19) -0.03944(19)
C12A C 0.0758(3) -0.0956(3) -0.1274(2)
H9A H 0.1957 -0.1114 -0.1382
C13A C 0.0082(3) -0.1414(3) -0.1991(2)
H10A H 0.0853 -0.1876 -0.2574
N5A N 0.6597(2) 0.69122(16) 0.62804(16)
C14A C 0.7592(3) 0.5892(2) 0.5883(2)
H11A H 0.8727 0.5688 0.5947
C15A C 0.7020(3) 0.5124(2) 0.5382(2)
H12A H 0.7765 0.4424 0.5118
C16A C 0.5338(3) 0.53957(18) 0.52716(18)
C17A C 0.4302(3) 0.6463(2) 0.5694(2)
H13A H 0.3159 0.6687 0.5649
C18A C 0.4976(3) 0.7185(2) 0.6176(2)
H14A H 0.4268 0.7896 0.6441
Cu1A Cu -0.25733(3) -0.20161(2) -0.29010(2)
O1A O -0.5563(2) -0.41494(15) 0.14369(15)
N1A N -0.4884(3) -0.33894(18) 0.18676(18)
C1A C -0.3244(3) -0.3538(2) 0.1954(2)
O2A O -0.47486(19) -0.21865(14) -0.15033(14)
N2A N -0.5934(3) -0.2412(2) 0.2324(2)
C2A C -0.3329(3) -0.2542(2) 0.2494(2)
O3A O -0.2976(2) -0.37770(15) -0.07885(16)
N3A N -0.4988(3) -0.1880(2) 0.2702(2)
C3A C -0.1855(4) -0.2351(3) 0.2747(2)
H1A H -0.1885 -0.1679 0.3094
C4A C -0.0392(4) -0.3192(3) 0.2462(3)
H2A H 0.0604 -0.3096 0.2624
C5A C -0.0320(4) -0.4206(3) 0.1929(3)
H3A H 0.0720 -0.4761 0.1756
O4A O -0.4057(3) -0.03103(15) -0.37767(18)
C6A C -0.1728(4) -0.4407(3) 0.1656(3)
H4A H -0.1679 -0.5076 0.1297
C7A C -0.6002(3) -0.3496(2) 0.0324(2)
H5A H -0.6565 -0.4011 0.0061
H6A H -0.6831 -0.2753 0.0506
C8A C -0.4417(3) -0.3142(2) -0.0728(2)
O5A O -0.0268(2) -0.21960(16) -0.41433(15)
O6A O -0.1026(3) -0.0699(2) -0.56062(18)
C19A C 0.0015(4) -0.1505(3) -0.5193(2)
H15A H 0.1151 -0.1622 -0.5714
H16A H -0.4199 0.0386 -0.3561
H17A H -0.3375 -0.0224 -0.4509
Cu1A_2 Cu 0.74267(3) 0.79839(2) 0.70990(2)
N5A_2 N -0.3403(2) -0.30878(16) -0.37196(16)
loop_
_geom_bond_atom_site_label_1
_geom_bond_atom_site_label_2
_geom_bond_site_symmetry_1
_geom_bond_site_symmetry_2
Cu1 O2 1_555 1_555
O1 N1 1_555 1_555
N1 C1 1_555 1_555
C1 C2 1_555 1_555
O2 C8 1_555 1_555
N2 N1 1_555 1_555
C2 N3 1_555 1_555
O3 Cu1 1_555 1_555
N3 N2 1_555 1_555
C3 C2 1_555 1_555
H1 C3 1_555 1_555
N4 Cu1 1_555 1_555
C4 C3 1_555 1_555
H2 C4 1_555 1_555
N5 Cu1 1_555 1_555
C5 C4 1_555 1_555
H3 C5 1_555 1_555
O4 Cu1 1_555 1_555
C6 C1 1_555 1_555
H4 C6 1_555 1_555
C7 O1 1_555 1_555
H5 C7 1_555 1_555
H6 C7 1_555 1_555
C8 O3 1_555 1_555
C9 N4 1_555 1_555
H7 C9 1_555 1_555
C10 C9 1_555 1_555
H8 C10 1_555 1_555
C11 C10 1_555 1_555
C12 C11 1_555 1_555
H9 C12 1_555 1_555
C13 N4 1_555 1_555
H10 C13 1_555 1_555
C14 N5 1_555 1_555
H11 C14 1_555 1_555
C15 C14 1_555 1_555
H12 C15 1_555 1_555
C16 C15 1_555 1_555
C17 C16 1_555 1_555
H13 C17 1_555 1_555
C18 N5 1_555 1_555
H14 C18 1_555 1_555
O5 Cu1 1_555 1_555
O6 C19 1_555 1_555
C19 O5 1_555 1_555
H15 C19 1_555 1_555
H16 O4 1_555 1_555
H17 O4 1_555 1_555
N4A C9A 1_555 1_555
C9A H7A 1_555 1_555
C10A C9A 1_555 1_555
H8A C10A 1_555 1_555
C11A C11 1_555 1_555
C12A C11A 1_555 1_555
H9A C12A 1_555 1_555
C13A N4A 1_555 1_555
H10A C13A 1_555 1_555
N5A C14A 1_555 1_555
C14A H11A 1_555 1_555
C15A C14A 1_555 1_555
H12A C15A 1_555 1_555
C16A C16 1_555 1_555
C17A C16A 1_555 1_555
H13A C17A 1_555 1_555
C18A N5A 1_555 1_555
H14A C18A 1_555 1_555
Cu1A N4A 1_555 1_555
O1A N1A 1_555 1_555
N1A C1A 1_555 1_555
C1A C2A 1_555 1_555
O2A Cu1A 1_555 1_555
N2A N1A 1_555 1_555
C2A N3A 1_555 1_555
O3A Cu1A 1_555 1_555
N3A N2A 1_555 1_555
C3A C2A 1_555 1_555
H1A C3A 1_555 1_555
C4A C3A 1_555 1_555
H2A C4A 1_555 1_555
C5A C4A 1_555 1_555
H3A C5A 1_555 1_555
O4A Cu1A 1_555 1_555
C6A C1A 1_555 1_555
H4A C6A 1_555 1_555
C7A O1A 1_555 1_555
H5A C7A 1_555 1_555
H6A C7A 1_555 1_555
C8A O2A 1_555 1_555
O5A Cu1A 1_555 1_555
O6A C19A 1_555 1_555
C19A O5A 1_555 1_555
H15A C19A 1_555 1_555
H16A O4A 1_555 1_555
H17A O4A 1_555 1_555
Cu1A_2 N5A 1_555 1_555
N5A_2 Cu1A 1_555 1_555
C5 C6 1_555 1_555
C7 C8 1_555 1_555
C12 C13 1_555 1_555
C17 C18 1_555 1_555
C10A C11A 1_555 1_555
C12A C13A 1_555 1_555
C15A C16A 1_555 1_555
C17A C18A 1_555 1_555
O3A C8A 1_555 1_555
C5A C6A 1_555 1_555
C7A C8A 1_555 1_555

#END
