
#######################################################################
#
#                 Cambridge Crystallographic Data Centre
#                                CCDC 
#
#######################################################################
#
# If this CIF has been generated from an entry in the Cambridge 
# Structural Database, then it will include bibliographic, chemical, 
# crystal, experimental, refinement or atomic coordinate data resulting 
# from the CCDC's data processing and validation procedures.
#
#######################################################################

data_MOPMUB
_symmetry_cell_setting           triclinic
_symmetry_space_group_name_H-M   'P -1'
_symmetry_Int_Tables_number      2
_space_group_name_Hall           '-P 1'
loop_
_symmetry_equiv_pos_site_id
_symmetry_equiv_pos_as_xyz
1 x,y,z
2 -x,-y,-z
_cell_length_a                   4.9435(19)
_cell_length_b                   7.089(3)
_cell_length_c                   11.726(5)
_cell_angle_alpha                97.919(6)
_cell_angle_beta                 92.130(6)
_cell_angle_gamma                107.441(5)
_cell_volume                     386.96
loop_
_atom_site_label
_atom_site_type_symbol
_atom_site_fract_x
_atom_site_fract_y
_atom_site_fract_z
Ni1 Ni 1.0000 0.0000 1.0000
P1 P 0.7925(2) 0.26592(15) 0.80422(8)
O1 O 0.5966(5) 0.3819(4) 0.8510(2)
O2 O 0.8243(6) 0.1099(4) 0.8722(2)
O3 O 1.0879(6) 0.4304(4) 0.7966(3)
H1 H 1.2172 0.3810 0.8018
O4 O 0.7890(6) 0.1223(4) 1.1265(2)
H2 H 0.6199 0.0924 1.1047
H3 H 0.8495 0.2403 1.1307
O5 O 1.3410(5) 0.2500(4) 1.0350(2)
H4 H 1.4277 0.2658 0.9770
H5 H 1.3473 0.3594 1.0711
C1 C 1.0045(8) 0.1932(6) 0.5101(3)
H6 H 1.0077 0.3262 0.5173
C2 C 0.8289(9) -0.1281(6) 0.5695(3)
C3 C 0.6497(8) 0.1570(6) 0.6579(3)
H7 H 0.4741 0.0509 0.6614
H8 H 0.6004 0.2588 0.6218
C4 C 0.8334(8) 0.0719(6) 0.5796(3)
C5 C 0.6494(10) -0.2709(7) 0.6407(4)
H9 H 0.6752 -0.4001 0.6212
H10 H 0.4528 -0.2820 0.6251
H11 H 0.7056 -0.2219 0.7212
P1A P 1.2075(2) -0.26592(15) 0.19578(8)
O1A O 1.4034(5) -0.3819(4) 0.1490(2)
O2A O 1.1757(6) -0.1099(4) 0.1278(2)
O3A O 0.9121(6) -0.4304(4) 0.2034(3)
H1A H 0.7828 -0.3810 0.1982
C1A C 0.9955(8) -0.1932(6) 0.4899(3)
H6A H 0.9923 -0.3262 0.4827
C2A C 1.1711(9) 0.1281(6) 0.4305(3)
C3A C 1.3503(8) -0.1570(6) 0.3421(3)
H7A H 1.5259 -0.0509 0.3386
H8A H 1.3996 -0.2588 0.3782
C4A C 1.1666(8) -0.0719(6) 0.4204(3)
C5A C 1.3506(10) 0.2709(7) 0.3593(4)
H9A H 1.3248 0.4001 0.3788
H10A H 1.5472 0.2820 0.3749
H11A H 1.2944 0.2219 0.2788
O4A O 1.2110(6) -0.1223(4) 0.8735(2)
H2A H 1.3801 -0.0924 0.8953
H3A H 1.1505 -0.2403 0.8693
O5A O 0.6590(5) -0.2500(4) 0.9650(2)
H4A H 0.5723 -0.2658 1.0230
H5A H 0.6527 -0.3594 0.9289
Ni1_2 Ni 1.0000 0.0000 0.0000
O2A_2 O 1.1757(6) -0.1099(4) 1.1278(2)
loop_
_geom_bond_atom_site_label_1
_geom_bond_atom_site_label_2
_geom_bond_site_symmetry_1
_geom_bond_site_symmetry_2
Ni1 O2 1_555 1_555
P1 O1 1_555 1_555
O2 P1 1_555 1_555
O3 P1 1_555 1_555
H1 O3 1_555 1_555
O4 Ni1 1_555 1_555
H2 O4 1_555 1_555
H3 O4 1_555 1_555
O5 Ni1 1_555 1_555
H4 O5 1_555 1_555
H5 O5 1_555 1_555
C1 H6 1_555 1_555
C2 C4 1_555 1_555
C3 P1 1_555 1_555
H7 C3 1_555 1_555
H8 C3 1_555 1_555
C4 C1 1_555 1_555
C5 C2 1_555 1_555
H9 C5 1_555 1_555
H10 C5 1_555 1_555
H11 C5 1_555 1_555
P1A O1A 1_555 1_555
O2A P1A 1_555 1_555
O3A P1A 1_555 1_555
H1A O3A 1_555 1_555
C1A C2 1_555 1_555
H6A C1A 1_555 1_555
C2A C1 1_555 1_555
C3A P1A 1_555 1_555
H7A C3A 1_555 1_555
H8A C3A 1_555 1_555
C4A C1A 1_555 1_555
C5A C2A 1_555 1_555
H9A C5A 1_555 1_555
H10A C5A 1_555 1_555
H11A C5A 1_555 1_555
O4A Ni1 1_555 1_555
H2A O4A 1_555 1_555
H3A O4A 1_555 1_555
O5A Ni1 1_555 1_555
H4A O5A 1_555 1_555
H5A O5A 1_555 1_555
Ni1_2 O2A 1_555 1_555
O2A_2 Ni1 1_555 1_555
C3 C4 1_555 1_555
C2A C4A 1_555 1_555
C3A C4A 1_555 1_555

#END
