
#######################################################################
#
#                 Cambridge Crystallographic Data Centre
#                                CCDC 
#
#######################################################################
#
# If this CIF has been generated from an entry in the Cambridge 
# Structural Database, then it will include bibliographic, chemical, 
# crystal, experimental, refinement or atomic coordinate data resulting 
# from the CCDC's data processing and validation procedures.
#
#######################################################################

data_MOPNOW
_symmetry_cell_setting           monoclinic
_symmetry_space_group_name_H-M   'P 21/c'
_symmetry_Int_Tables_number      14
_space_group_name_Hall           '-P 2ybc'
loop_
_symmetry_equiv_pos_site_id
_symmetry_equiv_pos_as_xyz
1 x,y,z
2 -x,1/2+y,1/2-z
3 -x,-y,-z
4 x,1/2-y,1/2+z
_cell_length_a                   10.233(3)
_cell_length_b                   11.720(4)
_cell_length_c                   10.233(3)
_cell_angle_alpha                90
_cell_angle_beta                 92.87
_cell_angle_gamma                90
_cell_volume                     1225.71
loop_
_atom_site_label
_atom_site_type_symbol
_atom_site_fract_x
_atom_site_fract_y
_atom_site_fract_z
Zn1 Zn 0.96385(3) 0.28675(3) 0.25780(3)
O1 O 0.89618(18) 0.10144(18) 0.3700(2)
O2 O 0.77646(19) 0.24183(19) 0.2857(2)
O3 O -0.0654(2) 0.20863(17) 0.0654(2)
O4 O 0.0412(2) 0.12152(18) -0.0921(2)
O5 O 0.9320(2) 0.43016(19) 0.1475(2)
H1 H 0.9933 0.4745 0.1603
N1 N 0.3134(2) 0.0923(2) 0.2361(2)
N2 N 0.2459(2) 0.1680(2) 0.3064(2)
N3 N 0.1410(2) 0.1926(2) 0.2337(2)
C1 C 0.3028(3) -0.0096(3) 0.0197(3)
H2 H 0.3937 0.0058 0.0089
H3 H 0.2546 0.0010 -0.0623
H4 H 0.2926 -0.0869 0.0487
C2 C 0.2525(3) 0.0694(2) 0.1183(3)
C3 C 0.1407(3) 0.1354(2) 0.1184(3)
C4 C 0.0305(3) 0.1557(2) 0.0231(3)
C5 C 0.7875(3) 0.1424(2) 0.3316(3)
C6 C 0.6661(2) 0.0708(2) 0.3360(3)
C7 C 0.6730(3) -0.0406(2) 0.3822(3)
H5 H 0.7526 -0.0703 0.4141
C8 C 0.5465(3) 0.1152(2) 0.2899(3)
H6 H 0.5407 0.1902 0.2607
C9 C 0.4366(3) 0.0469(2) 0.2877(3)
C10 C 0.5612(3) -0.1074(2) 0.3806(3)
H7 H 0.5662 -0.1817 0.4123
C11 C 0.4418(3) -0.0648(2) 0.3324(3)
H8 H 0.3671 -0.1100 0.3301
H9 H 0.913(4) 0.418(4) 0.063(5)
Zn1_2 Zn -0.03615(3) 0.28675(3) 0.25780(3)
Zn1C Zn -0.03615(3) 0.21325(3) -0.24220(3)
O3_2 O 0.9346(2) 0.20863(17) 0.0654(2)
O4C O 1.0412(2) 0.37848(18) 0.4079(2)
N3_2 N 1.1410(2) 0.1926(2) 0.2337(2)
loop_
_geom_bond_atom_site_label_1
_geom_bond_atom_site_label_2
_geom_bond_site_symmetry_1
_geom_bond_site_symmetry_2
Zn1 O1 1_555 1_555
O1 C5 1_555 1_555
O2 Zn1 1_555 1_555
O3 C4 1_555 1_555
O4 C4 1_555 1_555
O5 Zn1 1_555 1_555
H1 O5 1_555 1_555
N1 N2 1_555 1_555
N2 N3 1_555 1_555
N3 C3 1_555 1_555
C1 H2 1_555 1_555
H3 C1 1_555 1_555
H4 C1 1_555 1_555
C2 N1 1_555 1_555
C3 C2 1_555 1_555
C4 C3 1_555 1_555
C5 O2 1_555 1_555
C6 C5 1_555 1_555
C7 C6 1_555 1_555
H5 C7 1_555 1_555
C8 C6 1_555 1_555
H6 C8 1_555 1_555
C9 N1 1_555 1_555
C10 C7 1_555 1_555
H7 C10 1_555 1_555
C11 C9 1_555 1_555
H8 C11 1_555 1_555
H9 O5 1_555 1_555
Zn1_2 O3 1_555 1_555
Zn1C O4 1_555 1_555
O3_2 Zn1 1_555 1_555
O4C Zn1 1_555 1_555
N3_2 Zn1 1_555 1_555
N3 Zn1_2 1_555 1_555
C1 C2 1_555 1_555
C8 C9 1_555 1_555
C10 C11 1_555 1_555

#END
