
#######################################################################
#
#                 Cambridge Crystallographic Data Centre
#                                CCDC 
#
#######################################################################
#
# If this CIF has been generated from an entry in the Cambridge 
# Structural Database, then it will include bibliographic, chemical, 
# crystal, experimental, refinement or atomic coordinate data resulting 
# from the CCDC's data processing and validation procedures.
#
#######################################################################

data_MOPNUC
_symmetry_cell_setting           monoclinic
_symmetry_space_group_name_H-M   'P 21/c'
_symmetry_Int_Tables_number      14
_space_group_name_Hall           '-P 2ybc'
loop_
_symmetry_equiv_pos_site_id
_symmetry_equiv_pos_as_xyz
1 x,y,z
2 -x,1/2+y,1/2-z
3 -x,-y,-z
4 x,1/2-y,1/2+z
_cell_length_a                   11.8352(19)
_cell_length_b                   11.9801(19)
_cell_length_c                   9.9876(16)
_cell_angle_alpha                90
_cell_angle_beta                 113.201(2)
_cell_angle_gamma                90
_cell_volume                     1301.59
loop_
_atom_site_label
_atom_site_type_symbol
_atom_site_fract_x
_atom_site_fract_y
_atom_site_fract_z
Mn1 Mn -0.08627(3) 0.53013(2) 0.60334(3)
O1 O 0.05493(14) 0.78838(12) 0.57782(17)
O2 O 0.05830(12) 0.60206(11) 0.55381(15)
O3 O 0.75486(14) 0.62001(13) 0.47395(18)
O4 O -0.08994(16) 0.61048(15) 0.79273(18)
H1 H -0.1472 0.6714 0.7635
H2 H -0.0094 0.6384 0.8509
O5 O 0.05296(13) 0.42340(12) 0.77347(15)
H3 H 0.0824 0.3670 0.7268
H4 H 0.0153 0.3885 0.8321
O6 O 0.78975(15) 0.70347(13) 0.2957(2)
N1 N 0.21201(15) 0.61489(13) 0.41814(18)
N2 N 0.29859(15) 0.63494(14) 0.37143(19)
N3 N 0.32823(14) 0.74433(13) 0.40109(17)
C1 C 0.59604(19) 0.85729(17) 0.2567(2)
H5 H 0.6537 0.8802 0.2206
C2 C 0.49018(19) 0.91916(17) 0.2265(2)
H6 H 0.4784 0.9845 0.1723
C3 C 0.61676(18) 0.76069(16) 0.3411(2)
C4 C 0.52902(17) 0.72762(16) 0.3936(2)
H7 H 0.5424 0.6646 0.4523
C5 C 0.40142(19) 0.88517(16) 0.2759(2)
H8 H 0.3297 0.9262 0.2543
C6 C 0.42224(17) 0.78854(16) 0.3584(2)
C7 C 0.2758(2) 0.91133(17) 0.5175(3)
H9 H 0.3606 0.9323 0.5480
H10 H 0.2514 0.9184 0.5980
H11 H 0.2259 0.9592 0.4396
C8 C 0.25985(17) 0.79377(16) 0.4663(2)
C9 C 0.18568(17) 0.70859(16) 0.4767(2)
C10 C 0.09220(17) 0.70184(16) 0.5421(2)
C11 C 0.72991(18) 0.69016(16) 0.3729(2)
Mn1_2 Mn 0.91373(3) 0.53013(2) 0.60334(3)
Mn1B Mn 0.08627(3) 0.46987(2) 0.39666(3)
O2B O -0.05830(12) 0.39794(11) 0.44619(15)
O3_2 O -0.24514(14) 0.62001(13) 0.47395(18)
N1B N -0.21201(15) 0.38511(13) 0.58186(18)
loop_
_geom_bond_atom_site_label_1
_geom_bond_atom_site_label_2
_geom_bond_site_symmetry_1
_geom_bond_site_symmetry_2
Mn1 O2 1_555 1_555
O1 C10 1_555 1_555
O2 C10 1_555 1_555
O3 C11 1_555 1_555
O4 Mn1 1_555 1_555
H1 O4 1_555 1_555
H2 O4 1_555 1_555
O5 Mn1 1_555 1_555
H3 O5 1_555 1_555
H4 O5 1_555 1_555
O6 C11 1_555 1_555
N1 N2 1_555 1_555
N2 N3 1_555 1_555
N3 C6 1_555 1_555
C1 H5 1_555 1_555
C2 C1 1_555 1_555
H6 C2 1_555 1_555
C3 C1 1_555 1_555
C4 C3 1_555 1_555
H7 C4 1_555 1_555
C5 C2 1_555 1_555
H8 C5 1_555 1_555
C6 C4 1_555 1_555
C7 H9 1_555 1_555
H10 C7 1_555 1_555
H11 C7 1_555 1_555
C8 N3 1_555 1_555
C9 N1 1_555 1_555
C10 C9 1_555 1_555
C11 C3 1_555 1_555
Mn1_2 O3 1_555 1_555
Mn1B O2 1_555 1_555
O2B Mn1 1_555 1_555
O3_2 Mn1 1_555 1_555
N1B Mn1 1_555 1_555
N1 Mn1B 1_555 1_555
C5 C6 1_555 1_555
C7 C8 1_555 1_555
C8 C9 1_555 1_555
Mn1B O2B 1_555 1_555

#END
