
#######################################################################
#
#                 Cambridge Crystallographic Data Centre
#                                CCDC 
#
#######################################################################
#
# If this CIF has been generated from an entry in the Cambridge 
# Structural Database, then it will include bibliographic, chemical, 
# crystal, experimental, refinement or atomic coordinate data resulting 
# from the CCDC's data processing and validation procedures.
#
#######################################################################

data_MOPNIQ
_symmetry_cell_setting           triclinic
_symmetry_space_group_name_H-M   'P -1'
_symmetry_Int_Tables_number      2
_space_group_name_Hall           '-P 1'
loop_
_symmetry_equiv_pos_site_id
_symmetry_equiv_pos_as_xyz
1 x,y,z
2 -x,-y,-z
_cell_length_a                   11.4219(15)
_cell_length_b                   11.7628(15)
_cell_length_c                   12.3756(16)
_cell_angle_alpha                88.559(2)
_cell_angle_beta                 86.842(2)
_cell_angle_gamma                65.001(2)
_cell_volume                     1504.64
loop_
_atom_site_label
_atom_site_type_symbol
_atom_site_fract_x
_atom_site_fract_y
_atom_site_fract_z
Zn1 Zn 0.57682(2) 0.07347(2) 0.755103(17)
C1 C 0.9353(4) -0.7557(3) 0.2969(2)
H1 H 0.8654 -0.7693 0.2692
H2 H 0.9666 -0.8079 0.3593
H3 H 1.0040 -0.7764 0.2422
C2 C 0.8882(2) -0.6203(2) 0.32814(18)
C3 C 0.84308(19) -0.48683(18) 0.49119(16)
C4 C 0.8111(2) -0.37167(19) 0.43996(16)
H4 H 0.8208 -0.3675 0.3651
C5 C 0.7648(2) -0.26375(18) 0.50120(16)
H5 H 0.7437 -0.1869 0.4668
C6 C 0.74894(18) -0.26724(17) 0.61305(15)
C7 C 0.7868(2) -0.38364(19) 0.66396(16)
H6 H 0.7801 -0.3880 0.7390
C8 C 0.8339(2) -0.49202(18) 0.60400(16)
H7 H 0.8598 -0.5692 0.6388
C9 C 0.68605(19) -0.14932(19) 0.67644(17)
C10 C -0.3782(2) 0.5393(3) 1.0761(2)
H8 H -0.4393 0.6169 1.0471
H9 H -0.3405 0.5562 1.1377
H10 H -0.4216 0.4875 1.0978
C11 C -0.2737(2) 0.4726(2) 0.99114(19)
C12 C -0.03466(19) 0.35092(19) 0.97440(16)
C13 C -0.0218(2) 0.3086(2) 0.86840(16)
H11 H -0.0947 0.3232 0.8302
C14 C 0.1009(2) 0.24427(19) 0.82059(16)
H12 H 0.1095 0.2161 0.7498
C15 C 0.21072(19) 0.22106(18) 0.87571(16)
C16 C 0.1973(2) 0.2623(2) 0.98227(17)
H13 H 0.2703 0.2463 1.0208
C17 C 0.0759(2) 0.3267(2) 1.03058(17)
H14 H 0.0677 0.3544 1.1015
C18 C 0.3425(2) 0.15375(19) 0.82345(17)
C19 C 0.5254(2) 0.2367(2) 0.5575(2)
H15 H 0.5171 0.1685 0.5285
C20 C 0.5028(2) 0.3393(2) 0.49274(19)
H16 H 0.4805 0.3393 0.4216
C21 C 0.51329(18) 0.44286(17) 0.53327(16)
C22 C 0.5515(3) 0.4335(2) 0.63953(18)
H17 H 0.5626 0.4994 0.6702
C23 C 0.5728(3) 0.3270(2) 0.69888(18)
H18 H 0.5983 0.3229 0.7695
C24 C 0.8412(2) 0.0443(2) 0.79942(17)
H19 H 0.8481 0.0476 0.7243
C25 C 0.9495(2) 0.0201(2) 0.85598(17)
H20 H 1.0273 0.0072 0.8192
C26 C 0.94241(19) 0.01496(18) 0.96776(16)
C27 C 0.8220(2) 0.0398(3) 1.01689(18)
H21 H 0.8115 0.0406 1.0920
C28 C 0.7184(2) 0.0631(3) 0.95479(18)
H22 H 0.6386 0.0796 0.9895
N1 N 0.88457(18) -0.60091(16) 0.43610(14)
H23 H 0.9053 -0.6620 0.4785
N2 N -0.15410(17) 0.41664(17) 1.03034(14)
H24 H -0.1442 0.4251 1.1027
N3 N 0.55852(16) 0.22932(15) 0.66003(14)
N4 N 0.72695(16) 0.06329(16) 0.84680(14)
O1 O 0.8578(2) -0.53698(16) 0.26048(13)
O2 O 0.64431(16) -0.14900(14) 0.77170(12)
O3 O 0.67140(15) -0.04605(13) 0.63050(12)
O4 O -0.29722(16) 0.47141(19) 0.89578(14)
O5 O 0.43842(15) 0.14845(17) 0.87312(13)
O6 O 0.35843(15) 0.10608(15) 0.73155(12)
C19A C 0.4746(2) 0.7633(2) 0.4425(2)
H15A H 0.4829 0.8315 0.4715
C20A C 0.4972(2) 0.6607(2) 0.50726(19)
H16A H 0.5195 0.6607 0.5784
C21A C 0.48671(18) 0.55714(17) 0.46673(16)
C22A C 0.4485(3) 0.5665(2) 0.36047(18)
H17A H 0.4374 0.5006 0.3298
C23A C 0.4272(3) 0.6730(2) 0.30112(18)
H18A H 0.4017 0.6771 0.2305
N3A N 0.44148(16) 0.77068(15) 0.33997(14)
C24A C 1.1588(2) -0.0443(2) 1.20058(17)
H19A H 1.1519 -0.0476 1.2757
C25A C 1.0505(2) -0.0201(2) 1.14402(17)
H20A H 0.9727 -0.0072 1.1808
C26A C 1.05759(19) -0.01496(18) 1.03224(16)
C27A C 1.1780(2) -0.0398(3) 0.98311(18)
H21A H 1.1885 -0.0406 0.9080
C28A C 1.2816(2) -0.0631(3) 1.04521(18)
H22A H 1.3614 -0.0796 1.0105
N4A N 1.27305(16) -0.06329(16) 1.15320(14)
Zn1A Zn 0.42318(2) 0.92653(2) 0.244897(17)
C1A C 0.0647(4) 1.7557(3) 0.7031(2)
H1A H 0.1346 1.7693 0.7308
H2A H 0.0334 1.8079 0.6407
H3A H -0.0040 1.7764 0.7578
C2A C 0.1118(2) 1.6203(2) 0.67186(18)
C3A C 0.15692(19) 1.48683(18) 0.50881(16)
C4A C 0.1889(2) 1.37167(19) 0.56004(16)
H4A H 0.1792 1.3675 0.6349
C5A C 0.2352(2) 1.26375(18) 0.49880(16)
H5A H 0.2563 1.1869 0.5332
C6A C 0.25106(18) 1.26724(17) 0.38695(15)
C7A C 0.2132(2) 1.38364(19) 0.33604(16)
H6A H 0.2199 1.3880 0.2610
C8A C 0.1661(2) 1.49202(18) 0.39600(16)
H7A H 0.1402 1.5692 0.3612
C9A C 0.31395(19) 1.14932(19) 0.32356(17)
C10A C 1.3782(2) 0.4607(3) -0.0761(2)
H8A H 1.4393 0.3831 -0.0471
H9A H 1.3405 0.4438 -0.1377
H10A H 1.4216 0.5125 -0.0978
C11A C 1.2737(2) 0.5274(2) 0.00886(19)
C12A C 1.03466(19) 0.64908(19) 0.02560(16)
C13A C 1.0218(2) 0.6914(2) 0.13160(16)
H11A H 1.0947 0.6768 0.1698
C14A C 0.8991(2) 0.75573(19) 0.17941(16)
H12A H 0.8905 0.7839 0.2502
C15A C 0.78928(19) 0.77894(18) 0.12429(16)
C16A C 0.8027(2) 0.7377(2) 0.01773(17)
H13A H 0.7297 0.7537 -0.0208
C17A C 0.9241(2) 0.6733(2) -0.03058(17)
H14A H 0.9323 0.6456 -0.1015
C18A C 0.6575(2) 0.84625(19) 0.17655(17)
N1A N 0.11543(18) 1.60091(16) 0.56390(14)
H23A H 0.0947 1.6620 0.5215
N2A N 1.15410(17) 0.58336(17) -0.03034(14)
H24A H 1.1442 0.5749 -0.1027
O1A O 0.1422(2) 1.53698(16) 0.73952(13)
O2A O 0.35569(16) 1.14900(14) 0.22830(12)
O3A O 0.32860(15) 1.04605(13) 0.36950(12)
O4A O 1.29722(16) 0.52859(19) 0.10422(14)
O5A O 0.56158(15) 0.85155(17) 0.12688(13)
O6A O 0.64157(15) 0.89392(15) 0.26845(12)
Zn1A_2 Zn 1.42318(2) -0.07347(2) 1.244897(17)
N4A_2 N 0.27305(16) 0.93671(16) 0.15320(14)
O7 O 0.82197(17) 0.02539(17) 0.48238(15)
H25 H 0.7776 -0.0093 0.5244
H26 H 0.7758 0.0513 0.4228
O8 O 0.9354(2) 0.17557(17) 0.57040(15)
H27 H 0.8798 0.1420 0.5436
H28 H 1.0168 0.1153 0.5583
O9 O 0.2931(2) 0.9052(2) 0.71343(15)
H29 H 0.3139 0.9750 0.7183
H30 H 0.3574 0.8279 0.7450
O10 O 0.50229(19) 0.7083(2) 0.81522(18)
H31 H 0.5522 0.6197 0.8371
H32 H 0.5452 0.7657 0.8171
loop_
_geom_bond_atom_site_label_1
_geom_bond_atom_site_label_2
_geom_bond_site_symmetry_1
_geom_bond_site_symmetry_2
Zn1 N3 1_555 1_555
C1 H1 1_555 1_555
H2 C1 1_555 1_555
H3 C1 1_555 1_555
C2 C1 1_555 1_555
C3 C4 1_555 1_555
C4 H4 1_555 1_555
C5 C4 1_555 1_555
H5 C5 1_555 1_555
C6 C5 1_555 1_555
C7 C6 1_555 1_555
H6 C7 1_555 1_555
C8 C3 1_555 1_555
H7 C8 1_555 1_555
C9 C6 1_555 1_555
C10 H8 1_555 1_555
H9 C10 1_555 1_555
H10 C10 1_555 1_555
C11 C10 1_555 1_555
C12 C13 1_555 1_555
C13 H11 1_555 1_555
C14 C13 1_555 1_555
H12 C14 1_555 1_555
C15 C14 1_555 1_555
C16 C15 1_555 1_555
H13 C16 1_555 1_555
C17 C12 1_555 1_555
H14 C17 1_555 1_555
C18 C15 1_555 1_555
C19 H15 1_555 1_555
C20 C19 1_555 1_555
H16 C20 1_555 1_555
C21 C20 1_555 1_555
C22 C21 1_555 1_555
H17 C22 1_555 1_555
C23 C22 1_555 1_555
H18 C23 1_555 1_555
C24 H19 1_555 1_555
C25 C24 1_555 1_555
H20 C25 1_555 1_555
C26 C25 1_555 1_555
C27 C26 1_555 1_555
H21 C27 1_555 1_555
C28 C27 1_555 1_555
H22 C28 1_555 1_555
N1 C2 1_555 1_555
H23 N1 1_555 1_555
N2 C11 1_555 1_555
H24 N2 1_555 1_555
N3 C19 1_555 1_555
N4 Zn1 1_555 1_555
O1 C2 1_555 1_555
O2 Zn1 1_555 1_555
O3 Zn1 1_555 1_555
O4 C11 1_555 1_555
O5 Zn1 1_555 1_555
O6 Zn1 1_555 1_555
O7 H25 1_555 1_555
H26 O7 1_555 1_555
O8 H27 1_555 1_555
H28 O8 1_555 1_555
O9 H29 1_555 1_555
H30 O9 1_555 1_555
O10 H31 1_555 1_555
H32 O10 1_555 1_555
C19A H15A 1_555 1_555
C20A C19A 1_555 1_555
H16A C20A 1_555 1_555
C21A C21 1_555 1_555
C22A C21A 1_555 1_555
H17A C22A 1_555 1_555
C23A C22A 1_555 1_555
H18A C23A 1_555 1_555
N3A C19A 1_555 1_555
C24A H19A 1_555 1_555
C25A C24A 1_555 1_555
H20A C25A 1_555 1_555
C26A C26 1_555 1_555
C27A C26A 1_555 1_555
H21A C27A 1_555 1_555
C28A C27A 1_555 1_555
H22A C28A 1_555 1_555
N4A C24A 1_555 1_555
Zn1A N3A 1_555 1_555
C1A H1A 1_555 1_555
H2A C1A 1_555 1_555
H3A C1A 1_555 1_555
C2A C1A 1_555 1_555
C3A C4A 1_555 1_555
C4A H4A 1_555 1_555
C5A C4A 1_555 1_555
H5A C5A 1_555 1_555
C6A C5A 1_555 1_555
C7A C6A 1_555 1_555
H6A C7A 1_555 1_555
C8A C3A 1_555 1_555
H7A C8A 1_555 1_555
C9A C6A 1_555 1_555
C10A H8A 1_555 1_555
H9A C10A 1_555 1_555
H10A C10A 1_555 1_555
C11A C10A 1_555 1_555
C12A C13A 1_555 1_555
C13A H11A 1_555 1_555
C14A C13A 1_555 1_555
H12A C14A 1_555 1_555
C15A C14A 1_555 1_555
C16A C15A 1_555 1_555
H13A C16A 1_555 1_555
C17A C12A 1_555 1_555
H14A C17A 1_555 1_555
C18A C15A 1_555 1_555
N1A C2A 1_555 1_555
H23A N1A 1_555 1_555
N2A C11A 1_555 1_555
H24A N2A 1_555 1_555
O1A C2A 1_555 1_555
O2A Zn1A 1_555 1_555
O3A Zn1A 1_555 1_555
O4A C11A 1_555 1_555
O5A Zn1A 1_555 1_555
O6A Zn1A 1_555 1_555
Zn1A_2 N4A 1_555 1_555
N4A_2 Zn1A 1_555 1_555
C3 N1 1_555 1_555
C7 C8 1_555 1_555
C9 O2 1_555 1_555
C9 O3 1_555 1_555
C12 N2 1_555 1_555
C16 C17 1_555 1_555
C18 O5 1_555 1_555
C18 O6 1_555 1_555
C23 N3 1_555 1_555
C24 N4 1_555 1_555
C28 N4 1_555 1_555
C20A C21A 1_555 1_555
C23A N3A 1_555 1_555
C25A C26A 1_555 1_555
C28A N4A 1_555 1_555
C3A N1A 1_555 1_555
C7A C8A 1_555 1_555
C9A O2A 1_555 1_555
C9A O3A 1_555 1_555
C12A N2A 1_555 1_555
C16A C17A 1_555 1_555
C18A O5A 1_555 1_555
C18A O6A 1_555 1_555

#END
