
#######################################################################
#
#                 Cambridge Crystallographic Data Centre
#                                CCDC 
#
#######################################################################
#
# If this CIF has been generated from an entry in the Cambridge 
# Structural Database, then it will include bibliographic, chemical, 
# crystal, experimental, refinement or atomic coordinate data resulting 
# from the CCDC's data processing and validation procedures.
#
#######################################################################

data_MOPYIA
_symmetry_cell_setting           triclinic
_symmetry_space_group_name_H-M   'P -1'
_symmetry_Int_Tables_number      2
_space_group_name_Hall           '-P 1'
loop_
_symmetry_equiv_pos_site_id
_symmetry_equiv_pos_as_xyz
1 x,y,z
2 -x,-y,-z
_cell_length_a                   10.7310(2)
_cell_length_b                   13.5271(4)
_cell_length_c                   13.9758(4)
_cell_angle_alpha                108.833(1)
_cell_angle_beta                 106.683(1)
_cell_angle_gamma                106.488(1)
_cell_volume                     1673.2
loop_
_atom_site_label
_atom_site_type_symbol
_atom_site_fract_x
_atom_site_fract_y
_atom_site_fract_z
In1 In -0.5000 0.0000 -0.5000
In2 In 0.0000 0.0000 0.0000
K1 K -0.17188(12) 0.14763(9) -0.18727(9)
Cl1 Cl -0.37156(15) -0.08394(10) -0.39870(11)
Cl2 Cl 0.00310(14) 0.00726(10) 0.17859(10)
F1 F -0.2770(5) 0.3268(3) -0.1483(3)
F2 F -0.4000(4) 0.4113(3) -0.2085(3)
F3 F -0.5067(5) 0.2409(3) -0.2286(3)
F4 F -0.1443(5) 0.3750(4) -0.2814(4)
F5 F -0.2955(5) 0.4333(3) -0.3534(4)
F6 F -0.2706(4) 0.2902(3) -0.4560(4)
F7 F -0.3520(4) 0.0143(3) 0.0147(4)
F8 F -0.3514(4) 0.1407(3) -0.0455(4)
F9 F -0.3322(4) 0.1782(4) 0.1209(4)
F10 F -0.0889(4) 0.3293(3) 0.0448(3)
F11 F 0.0849(4) 0.3305(3) 0.1666(3)
F12 F -0.0856(4) 0.3578(3) 0.2061(3)
O1 O -0.3708(4) 0.1572(3) -0.3576(3)
O2 O -0.3335(4) 0.0315(3) -0.5694(3)
O3 O 0.0782(4) 0.3050(3) -0.1412(3)
O4 O -0.0998(3) 0.1125(3) -0.0013(3)
O5 O 0.2173(4) 0.1517(3) 0.0910(3)
C1 C -0.3934(8) 0.3090(5) -0.2324(5)
C2 C -0.3897(6) 0.2564(4) -0.3445(5)
H1 H -0.4845 0.2356 -0.4036
C3 C -0.2734(8) 0.3397(5) -0.3588(6)
C4 C -0.3601(7) 0.0405(6) -0.6745(5)
H2 H -0.4440 -0.0281 -0.7363
H3 H -0.3777 0.1097 -0.6694
C5 C -0.2308(9) 0.0487(10) -0.6920(8)
H4 H -0.1785 0.1265 -0.6832
H5 H -0.2553 -0.0078 -0.7679
C6 C -0.1398(9) 0.0239(9) -0.6058(7)
H6 H -0.1606 -0.0588 -0.6347
H7 H -0.0367 0.0688 -0.5819
C7 C -0.1836(6) 0.0610(6) -0.5130(5)
H8 H -0.1681 0.0194 -0.4672
H9 H -0.1297 0.1446 -0.4649
C8 C 0.1614(7) 0.2833(5) -0.2023(6)
H10 H 0.1107 0.2685 -0.2802
H11 H 0.1802 0.2157 -0.2023
C9 C 0.2979(8) 0.3884(6) -0.1449(7)
H12 H 0.3701 0.3837 -0.0859
H13 H 0.3373 0.4005 -0.1983
C10 C 0.2551(8) 0.4813(5) -0.0971(6)
H14 H 0.2177 0.5084 -0.1524
H15 H 0.3366 0.5472 -0.0305
C11 C 0.1409(6) 0.4250(4) -0.0672(5)
H16 H 0.1821 0.4377 0.0110
H17 H 0.0680 0.4567 -0.0766
C12 C -0.2921(7) 0.1256(6) 0.0437(6)
C13 C -0.1299(6) 0.1691(4) 0.0853(4)
H18 H -0.0930 0.1493 0.1476
C14 C -0.0556(7) 0.2974(5) 0.1266(5)
C15 C 0.2752(7) 0.2293(5) 0.0474(5)
H19 H 0.2065 0.2599 0.0195
H20 H 0.2982 0.1897 -0.0138
C16 C 0.4080(8) 0.3234(6) 0.1451(7)
H21 H 0.4881 0.3403 0.1226
H22 H 0.3923 0.3941 0.1723
C17 C 0.4417(8) 0.2881(7) 0.2303(6)
H23 H 0.4539 0.3468 0.3008
H24 H 0.5323 0.2788 0.2421
C18 C 0.3241(6) 0.1778(5) 0.1971(5)
H25 H 0.3590 0.1165 0.1899
H26 H 0.2836 0.1846 0.2530
In1_2 In 0.5000 0.0000 0.5000
K1A K 0.17188(12) -0.14763(9) 0.18727(9)
Cl1A Cl -0.62844(15) 0.08394(10) -0.60130(11)
Cl2A Cl -0.00310(14) -0.00726(10) -0.17859(10)
F1A F 0.2770(5) -0.3268(3) 0.1483(3)
F2A F 0.4000(4) -0.4113(3) 0.2085(3)
F3A F 0.5067(5) -0.2409(3) 0.2286(3)
F4A F 0.1443(5) -0.3750(4) 0.2814(4)
F5A F 0.2955(5) -0.4333(3) 0.3534(4)
F6A F 0.2706(4) -0.2902(3) 0.4560(4)
F7A F 0.3520(4) -0.0143(3) -0.0147(4)
F8A F 0.3514(4) -0.1407(3) 0.0455(4)
F9A F 0.3322(4) -0.1782(4) -0.1209(4)
F10A F 0.0889(4) -0.3293(3) -0.0448(3)
F11A F -0.0849(4) -0.3305(3) -0.1666(3)
F12A F 0.0856(4) -0.3578(3) -0.2061(3)
O1A O 0.3708(4) -0.1572(3) 0.3576(3)
O1A_2 O -0.6292(4) -0.1572(3) -0.6424(3)
O2A O -0.6665(4) -0.0315(3) -0.4306(3)
O3A O -0.0782(4) -0.3050(3) 0.1412(3)
O4A O 0.0998(3) -0.1125(3) 0.0013(3)
O5A O -0.2173(4) -0.1517(3) -0.0910(3)
C1A C 0.3934(8) -0.3090(5) 0.2324(5)
C2A C 0.3897(6) -0.2564(4) 0.3445(5)
H1A H 0.4845 -0.2356 0.4036
C3A C 0.2734(8) -0.3397(5) 0.3588(6)
C4A C -0.6399(7) -0.0405(6) -0.3255(5)
H2A H -0.5560 0.0281 -0.2637
H3A H -0.6223 -0.1097 -0.3306
C5A C -0.7692(9) -0.0487(10) -0.3080(8)
H4A H -0.8215 -0.1265 -0.3168
H5A H -0.7447 0.0078 -0.2321
C6A C -0.8602(9) -0.0239(9) -0.3942(7)
H6A H -0.8394 0.0588 -0.3653
H7A H -0.9633 -0.0688 -0.4181
C7A C -0.8164(6) -0.0610(6) -0.4870(5)
H8A H -0.8319 -0.0194 -0.5328
H9A H -0.8703 -0.1446 -0.5351
C8A C -0.1614(7) -0.2833(5) 0.2023(6)
H10A H -0.1107 -0.2685 0.2802
H11A H -0.1802 -0.2157 0.2023
C9A C -0.2979(8) -0.3884(6) 0.1449(7)
H12A H -0.3701 -0.3837 0.0859
H13A H -0.3373 -0.4005 0.1983
C10A C -0.2551(8) -0.4813(5) 0.0971(6)
H14A H -0.2177 -0.5084 0.1524
H15A H -0.3366 -0.5472 0.0305
C11A C -0.1409(6) -0.4250(4) 0.0672(5)
H16A H -0.1821 -0.4377 -0.0110
H17A H -0.0680 -0.4567 0.0766
C12A C 0.2921(7) -0.1256(6) -0.0437(6)
C13A C 0.1299(6) -0.1691(4) -0.0853(4)
H18A H 0.0930 -0.1493 -0.1476
C14A C 0.0556(7) -0.2974(5) -0.1266(5)
C15A C -0.2752(7) -0.2293(5) -0.0474(5)
H19A H -0.2065 -0.2599 -0.0195
H20A H -0.2982 -0.1897 0.0138
C16A C -0.4080(8) -0.3234(6) -0.1451(7)
H21A H -0.4881 -0.3403 -0.1226
H22A H -0.3923 -0.3941 -0.1723
C17A C -0.4417(8) -0.2881(7) -0.2303(6)
H23A H -0.4539 -0.3468 -0.3008
H24A H -0.5323 -0.2788 -0.2421
C18A C -0.3241(6) -0.1778(5) -0.1971(5)
H25A H -0.3590 -0.1165 -0.1899
H26A H -0.2836 -0.1846 -0.2530
O6 O 0.0934(12) 0.2856(9) -0.4708(9)
C19 C 0.064(2) 0.3797(16) -0.4885(18)
H27 H 0.0067 0.3545 -0.5683
H28 H 0.0120 0.4064 -0.4453
C20 C 0.203(2) 0.4694(19) -0.451(2)
H29 H 0.2518 0.5100 -0.3684
H30 H 0.1969 0.5255 -0.4810
C21 C 0.277(2) 0.3926(17) -0.503(2)
H31 H 0.2603 0.3834 -0.5792
H32 H 0.3808 0.4273 -0.4565
C22 C 0.2030(18) 0.2777(14) -0.5034(15)
H33 H 0.1635 0.2142 -0.5788
H34 H 0.2717 0.2635 -0.4508
C23? C 0.190(3) 0.3402(19) -0.5682(19)
C24? C 0.133(2) 0.4267(17) -0.5253(18)
C25? C 0.136(3) 0.4273(19) -0.415(2)
C26? C 0.286(3) 0.352(2) -0.458(2)
H35? H 0.2451 0.3614 -0.6101
H36? H 0.1134 0.2618 -0.6150
H37? H 0.0347 0.4037 -0.5783
H38? H 0.1947 0.5036 -0.5135
H39? H 0.1950 0.5054 -0.3535
H40? H 0.0383 0.4010 -0.4190
H41? H 0.3143 0.2869 -0.4679
H42? H 0.3737 0.4249 -0.4181
O7? O 0.197(2) 0.3513(18) -0.4008(19)
loop_
_geom_bond_atom_site_label_1
_geom_bond_atom_site_label_2
_geom_bond_site_symmetry_1
_geom_bond_site_symmetry_2
In1 Cl1 1_555 1_555
In2 Cl2 1_555 1_555
K1 O1 1_555 1_555
F1 C1 1_555 1_555
F2 C1 1_555 1_555
F3 C1 1_555 1_555
F4 C3 1_555 1_555
F5 C3 1_555 1_555
F6 C3 1_555 1_555
F7 C12 1_555 1_555
F8 C12 1_555 1_555
F9 C12 1_555 1_555
F10 C14 1_555 1_555
F11 C14 1_555 1_555
F12 C14 1_555 1_555
O1 In1 1_555 1_555
O2 In1 1_555 1_555
O3 K1 1_555 1_555
O4 In2 1_555 1_555
O5 In2 1_555 1_555
O6 C19 1_555 1_555
C1 C2 1_555 1_555
C2 O1 1_555 1_555
H1 C2 1_555 1_555
C3 C2 1_555 1_555
C4 O2 1_555 1_555
H2 C4 1_555 1_555
H3 C4 1_555 1_555
C5 C4 1_555 1_555
H4 C5 1_555 1_555
H5 C5 1_555 1_555
C6 C5 1_555 1_555
H6 C6 1_555 1_555
H7 C6 1_555 1_555
C7 O2 1_555 1_555
H8 C7 1_555 1_555
H9 C7 1_555 1_555
C8 O3 1_555 1_555
H10 C8 1_555 1_555
H11 C8 1_555 1_555
C9 C8 1_555 1_555
H12 C9 1_555 1_555
H13 C9 1_555 1_555
C10 C9 1_555 1_555
H14 C10 1_555 1_555
H15 C10 1_555 1_555
C11 O3 1_555 1_555
H16 C11 1_555 1_555
H17 C11 1_555 1_555
C12 C13 1_555 1_555
C13 O4 1_555 1_555
H18 C13 1_555 1_555
C14 C13 1_555 1_555
C15 O5 1_555 1_555
H19 C15 1_555 1_555
H20 C15 1_555 1_555
C16 C15 1_555 1_555
H21 C16 1_555 1_555
H22 C16 1_555 1_555
C17 C16 1_555 1_555
H23 C17 1_555 1_555
H24 C17 1_555 1_555
C18 O5 1_555 1_555
H25 C18 1_555 1_555
H26 C18 1_555 1_555
C19 H27 1_555 1_555
H28 C19 1_555 1_555
C20 C19 1_555 1_555
H29 C20 1_555 1_555
H30 C20 1_555 1_555
C21 C20 1_555 1_555
H31 C21 1_555 1_555
H32 C21 1_555 1_555
C22 O6 1_555 1_555
H33 C22 1_555 1_555
H34 C22 1_555 1_555
In1_2 O1A 1_555 1_555
K1A O1A 1_555 1_555
Cl1A In1 1_555 1_555
Cl2A In2 1_555 1_555
F1A C1A 1_555 1_555
F2A C1A 1_555 1_555
F3A C1A 1_555 1_555
F4A C3A 1_555 1_555
F5A C3A 1_555 1_555
F6A C3A 1_555 1_555
F7A C12A 1_555 1_555
F8A C12A 1_555 1_555
F9A C12A 1_555 1_555
F10A C14A 1_555 1_555
F11A C14A 1_555 1_555
F12A C14A 1_555 1_555
O1A C2A 1_555 1_555
O1A_2 In1 1_555 1_555
O2A In1 1_555 1_555
O3A K1A 1_555 1_555
O4A In2 1_555 1_555
O5A In2 1_555 1_555
C1A C2A 1_555 1_555
C2A H1A 1_555 1_555
C3A C2A 1_555 1_555
C4A O2A 1_555 1_555
H2A C4A 1_555 1_555
H3A C4A 1_555 1_555
C5A C4A 1_555 1_555
H4A C5A 1_555 1_555
H5A C5A 1_555 1_555
C6A C5A 1_555 1_555
H6A C6A 1_555 1_555
H7A C6A 1_555 1_555
C7A O2A 1_555 1_555
H8A C7A 1_555 1_555
H9A C7A 1_555 1_555
C8A O3A 1_555 1_555
H10A C8A 1_555 1_555
H11A C8A 1_555 1_555
C9A C8A 1_555 1_555
H12A C9A 1_555 1_555
H13A C9A 1_555 1_555
C10A C9A 1_555 1_555
H14A C10A 1_555 1_555
H15A C10A 1_555 1_555
C11A O3A 1_555 1_555
H16A C11A 1_555 1_555
H17A C11A 1_555 1_555
C12A C13A 1_555 1_555
C13A O4A 1_555 1_555
H18A C13A 1_555 1_555
C14A C13A 1_555 1_555
C15A O5A 1_555 1_555
H19A C15A 1_555 1_555
H20A C15A 1_555 1_555
C16A C15A 1_555 1_555
H21A C16A 1_555 1_555
H22A C16A 1_555 1_555
C17A C16A 1_555 1_555
H23A C17A 1_555 1_555
H24A C17A 1_555 1_555
C18A O5A 1_555 1_555
H25A C18A 1_555 1_555
H26A C18A 1_555 1_555
K1 O4 1_555 1_555
C6 C7 1_555 1_555
C10 C11 1_555 1_555
C17 C18 1_555 1_555
C21 C22 1_555 1_555
K1A O4A 1_555 1_555
C6A C7A 1_555 1_555
C10A C11A 1_555 1_555
C17A C18A 1_555 1_555

#END
