
#######################################################################
#
#                 Cambridge Crystallographic Data Centre
#                                CCDC 
#
#######################################################################
#
# If this CIF has been generated from an entry in the Cambridge 
# Structural Database, then it will include bibliographic, chemical, 
# crystal, experimental, refinement or atomic coordinate data resulting 
# from the CCDC's data processing and validation procedures.
#
#######################################################################

data_MOPZUN
_symmetry_cell_setting           monoclinic
_symmetry_space_group_name_H-M   'P 21/c'
_symmetry_Int_Tables_number      14
_space_group_name_Hall           '-P 2ybc'
loop_
_symmetry_equiv_pos_site_id
_symmetry_equiv_pos_as_xyz
1 x,y,z
2 -x,1/2+y,1/2-z
3 -x,-y,-z
4 x,1/2-y,1/2+z
_cell_length_a                   9.2560(15)
_cell_length_b                   20.212(3)
_cell_length_c                   7.8527(13)
_cell_angle_alpha                90
_cell_angle_beta                 100.834(3)
_cell_angle_gamma                90
_cell_volume                     1442.92
loop_
_atom_site_label
_atom_site_type_symbol
_atom_site_fract_x
_atom_site_fract_y
_atom_site_fract_z
Mn1 Mn 0.22339(2) 0.574052(12) 0.20425(3)
O1 O 0.33913(12) 0.58196(6) 0.47067(14)
O2 O 0.36477(12) 0.53660(7) 0.73223(15)
O3 O 0.12544(12) 0.54913(5) 0.94521(13)
O4 O 0.17887(13) 0.44182(6) 0.91685(15)
O5 O 0.34102(13) 0.47916(6) 0.21412(15)
H1 H 0.2978 0.4609 0.1200
H2 H 0.4359 0.4755 0.2311
N1 N 0.07233(13) 0.52583(6) 0.37614(15)
N2 N 0.37980(14) 0.64840(7) 0.13418(17)
N3 N 0.11938(15) 0.67573(7) 0.21847(17)
C1 C 0.29430(16) 0.55003(8) 0.58680(19)
C2 C 0.13682(16) 0.52461(7) 0.54374(18)
C3 C 0.06368(15) 0.49931(7) 0.66930(18)
C4 C 0.13115(16) 0.49633(8) 0.86111(19)
C5 C 0.50477(19) 0.63179(9) 0.0836(2)
H3 H 0.5284 0.5872 0.0791
C6 C 0.6004(2) 0.67787(10) 0.0378(3)
H4 H 0.6870 0.6647 0.0040
C7 C 0.5651(2) 0.74323(10) 0.0431(2)
H5 H 0.6275 0.7753 0.0121
C8 C 0.43610(19) 0.76151(9) 0.0947(2)
H6 H 0.4107 0.8059 0.0988
C9 C 0.34517(17) 0.71291(8) 0.1403(2)
C10 C 0.20423(18) 0.72806(8) 0.1966(2)
C11 C 0.1614(2) 0.79213(9) 0.2262(2)
H7 H 0.2223 0.8276 0.2127
C12 C 0.0281(2) 0.80309(10) 0.2757(2)
H8 H -0.0021 0.8458 0.2956
C13 C -0.0589(2) 0.75005(10) 0.2949(2)
H9 H -0.1498 0.7561 0.3267
C14 C -0.00974(19) 0.68724(9) 0.2662(2)
H10 H -0.0690 0.6513 0.2808
Mn1B Mn -0.22339(2) 0.425948(12) 0.79575(3)
Mn1_2 Mn 0.22339(2) 0.574052(12) 1.20425(3)
Mn1B_2 Mn -0.22339(2) 0.425948(12) -0.20425(3)
O1B O -0.33913(12) 0.41804(6) 0.52933(14)
O2B O -0.36477(12) 0.46340(7) 0.26777(15)
O3B O -0.12544(12) 0.45087(5) 0.05479(13)
O3_2 O 0.12544(12) 0.54913(5) -0.05479(13)
O3B_2 O -0.12544(12) 0.45087(5) 1.05479(13)
O4B O -0.17887(13) 0.55818(6) 0.08315(15)
O5B O -0.34102(13) 0.52084(6) 0.78588(15)
H1B H -0.2978 0.5391 0.8800
H2B H -0.4359 0.5245 0.7689
N1B N -0.07233(13) 0.47417(6) 0.62386(15)
N2B N -0.37980(14) 0.35160(7) 0.86582(17)
N3B N -0.11938(15) 0.32427(7) 0.78153(17)
C1B C -0.29430(16) 0.44997(8) 0.41320(19)
C2B C -0.13682(16) 0.47539(7) 0.45626(18)
C3B C -0.06368(15) 0.50069(7) 0.33070(18)
C4B C -0.13115(16) 0.50367(8) 0.13889(19)
C5B C -0.50477(19) 0.36821(9) 0.9164(2)
H3B H -0.5284 0.4128 0.9209
C6B C -0.6004(2) 0.32213(10) 0.9622(3)
H4B H -0.6870 0.3353 0.9960
C7B C -0.5651(2) 0.25677(10) 0.9569(2)
H5B H -0.6275 0.2247 0.9879
C8B C -0.43610(19) 0.23849(9) 0.9053(2)
H6B H -0.4107 0.1941 0.9012
C9B C -0.34517(17) 0.28709(8) 0.8597(2)
C10B C -0.20423(18) 0.27194(8) 0.8034(2)
C11B C -0.1614(2) 0.20787(9) 0.7738(2)
H7B H -0.2223 0.1724 0.7873
C12B C -0.0281(2) 0.19691(10) 0.7243(2)
H8B H 0.0021 0.1542 0.7044
C13B C 0.0589(2) 0.24995(10) 0.7051(2)
H9B H 0.1498 0.2439 0.6733
C14B C 0.00974(19) 0.31276(9) 0.7338(2)
H10B H 0.0690 0.3487 0.7192
O6 O 0.3034(3) 0.39078(10) 0.5056(3)
H11 H 0.2277 0.3743 0.5296
H12 H 0.2981 0.4119 0.4098
loop_
_geom_bond_atom_site_label_1
_geom_bond_atom_site_label_2
_geom_bond_site_symmetry_1
_geom_bond_site_symmetry_2
Mn1 O1 1_555 1_555
O1 C1 1_555 1_555
O2 C1 1_555 1_555
O3 C4 1_555 1_555
O4 C4 1_555 1_555
O5 Mn1 1_555 1_555
H1 O5 1_555 1_555
H2 O5 1_555 1_555
N1 Mn1 1_555 1_555
N2 Mn1 1_555 1_555
N3 Mn1 1_555 1_555
C1 C2 1_555 1_555
C2 N1 1_555 1_555
C3 C2 1_555 1_555
C4 C3 1_555 1_555
C5 N2 1_555 1_555
H3 C5 1_555 1_555
C6 C5 1_555 1_555
H4 C6 1_555 1_555
C7 C6 1_555 1_555
H5 C7 1_555 1_555
C8 C7 1_555 1_555
H6 C8 1_555 1_555
C9 N2 1_555 1_555
C10 N3 1_555 1_555
C11 C10 1_555 1_555
H7 C11 1_555 1_555
C12 C11 1_555 1_555
H8 C12 1_555 1_555
C13 C12 1_555 1_555
H9 C13 1_555 1_555
C14 N3 1_555 1_555
H10 C14 1_555 1_555
O6 H11 1_555 1_555
H12 O6 1_555 1_555
Mn1B O1B 1_555 1_555
Mn1_2 O3 1_555 1_555
Mn1B_2 O3B 1_555 1_555
O1B C1B 1_555 1_555
O2B C1B 1_555 1_555
O3B C4B 1_555 1_555
O3_2 Mn1 1_555 1_555
O3B_2 Mn1B 1_555 1_555
O4B C4B 1_555 1_555
O5B Mn1B 1_555 1_555
H1B O5B 1_555 1_555
H2B O5B 1_555 1_555
N1B C3 1_555 1_555
N2B Mn1B 1_555 1_555
N3B Mn1B 1_555 1_555
C1B C2B 1_555 1_555
C2B N1B 1_555 1_555
C3B N1 1_555 1_555
C4B C3B 1_555 1_555
C5B N2B 1_555 1_555
H3B C5B 1_555 1_555
C6B C5B 1_555 1_555
H4B C6B 1_555 1_555
C7B C6B 1_555 1_555
H5B C7B 1_555 1_555
C8B C7B 1_555 1_555
H6B C8B 1_555 1_555
C9B N2B 1_555 1_555
C10B N3B 1_555 1_555
C11B C10B 1_555 1_555
H7B C11B 1_555 1_555
C12B C11B 1_555 1_555
H8B C12B 1_555 1_555
C13B C12B 1_555 1_555
H9B C13B 1_555 1_555
C14B N3B 1_555 1_555
H10B C14B 1_555 1_555
C8 C9 1_555 1_555
C9 C10 1_555 1_555
C13 C14 1_555 1_555
Mn1B N1B 1_555 1_555
C2B C3B 1_555 1_555
C8B C9B 1_555 1_555
C9B C10B 1_555 1_555
C13B C14B 1_555 1_555

#END
