
#######################################################################
#
#                 Cambridge Crystallographic Data Centre
#                                CCDC 
#
#######################################################################
#
# If this CIF has been generated from an entry in the Cambridge 
# Structural Database, then it will include bibliographic, chemical, 
# crystal, experimental, refinement or atomic coordinate data resulting 
# from the CCDC's data processing and validation procedures.
#
#######################################################################

data_MOQCUR
_symmetry_cell_setting           orthorhombic
_symmetry_space_group_name_H-M   'P b c a'
_symmetry_Int_Tables_number      61
_space_group_name_Hall           '-P 2ac 2ab'
loop_
_symmetry_equiv_pos_site_id
_symmetry_equiv_pos_as_xyz
1 x,y,z
2 1/2-x,-y,1/2+z
3 -x,1/2+y,1/2-z
4 1/2+x,1/2-y,-z
5 -x,-y,-z
6 1/2+x,y,1/2-z
7 x,1/2-y,1/2+z
8 1/2-x,1/2+y,z
_cell_length_a                   13.532(4)
_cell_length_b                   15.185(4)
_cell_length_c                   26.133(5)
_cell_angle_alpha                90
_cell_angle_beta                 90
_cell_angle_gamma                90
_cell_volume                     5369.9
loop_
_atom_site_label
_atom_site_type_symbol
_atom_site_fract_x
_atom_site_fract_y
_atom_site_fract_z
Cu1 Cu 0.30811(5) -0.24057(3) 0.426828(19)
Cu2 Cu 0.42499(4) 0.02294(3) 0.683291(18)
O1 O 0.3265(3) -0.36540(19) 0.41558(10)
O2 O 0.3359(3) -0.46671(19) 0.35474(11)
O3 O 0.3940(3) -0.43129(19) 0.23297(10)
O4 O 0.2351(3) -0.4645(2) 0.24646(13)
O5 O 0.3289(3) -0.11574(19) 0.43931(11)
O6 O 0.3550(3) -0.0196(2) 0.50232(12)
O7 O 0.4087(3) -0.0613(2) 0.62758(10)
O8 O 0.2509(3) -0.0337(2) 0.61007(12)
O9 O 0.1465(3) -0.2349(2) 0.43728(14)
H1 H 0.1145 -0.2778 0.4294
H2 H 0.1400 -0.1918 0.4145
O10 O 0.5878(3) -0.0181(2) 0.68186(12)
H3 H 0.6071 -0.0307 0.6587
H4 H 0.6315 -0.0280 0.7025
N1 N 0.3030(3) -0.2372(2) 0.35099(13)
N2 N 0.2869(3) -0.2603(2) 0.24674(13)
N3 N 0.3237(3) -0.2494(2) 0.50141(13)
N4 N 0.3211(4) -0.2351(3) 0.60640(14)
N5 N 0.4453(3) 0.1161(2) 0.73552(13)
N6 N 0.4322(3) 0.1273(2) 0.63706(13)
C1 C 0.3089(4) -0.3189(3) 0.33064(15)
C2 C 0.3008(4) -0.3297(3) 0.27813(15)
C3 C 0.2824(4) -0.1807(3) 0.26823(17)
H5 H 0.2743 -0.1316 0.2474
C4 C 0.2895(4) -0.1690(3) 0.32007(18)
H6 H 0.2848 -0.1126 0.3337
C5 C 0.3253(4) -0.3909(3) 0.36934(16)
C6 C 0.3092(4) -0.4184(3) 0.25051(14)
C7 C 0.3283(4) -0.1688(3) 0.52361(15)
C8 C 0.3259(4) -0.1631(3) 0.57653(16)
C9 C 0.3172(5) -0.3124(3) 0.58303(18)
H7 H 0.3150 -0.3632 0.6029
C10 C 0.3163(5) -0.3208(3) 0.53074(18)
H8 H 0.3106 -0.3762 0.5158
C11 C 0.3375(4) -0.0934(3) 0.48611(16)
C12 C 0.3262(4) -0.0770(3) 0.60627(15)
C13 C 0.4582(4) 0.1031(3) 0.78517(16)
H9 H 0.4558 0.0459 0.7979
C14 C 0.4750(5) 0.1717(4) 0.8185(2)
H10 H 0.4839 0.1606 0.8532
C15 C 0.4787(5) 0.2557(4) 0.8005(2)
H11 H 0.4913 0.3024 0.8226
C16 C 0.4634(4) 0.2706(3) 0.74896(19)
H12 H 0.4632 0.3277 0.7360
C17 C 0.4398(4) 0.2838(3) 0.6338(2)
H13 H 0.4408 0.3374 0.6510
C18 C 0.4388(5) 0.2809(4) 0.5813(2)
H14 H 0.4419 0.3326 0.5623
C19 C 0.4333(5) 0.2012(4) 0.5572(2)
H15 H 0.4320 0.1982 0.5217
C20 C 0.4296(4) 0.1260(3) 0.58581(17)
H16 H 0.4253 0.0721 0.5691
C21 C 0.4482(4) 0.1992(3) 0.71697(17)
C22 C 0.4392(4) 0.2053(3) 0.66082(17)
Cu2F Cu 0.42499(4) -0.52294(3) 0.183291(18)
O3F O 0.3940(3) -0.06871(19) 0.73297(10)
O11 O 0.0769(3) -0.0654(2) 0.43583(13)
H17 H 0.1421 -0.0336 0.4353
H18 H 0.0216 -0.0515 0.4308
O12 O 0.0858(3) -0.4031(2) 0.42225(15)
H19 H 0.0326 -0.4103 0.4138
H20 H 0.1078 -0.4390 0.4447
O13 O 0.1034(3) -0.0197(2) 0.53750(14)
H21 H 0.1552 -0.0226 0.5670
H22 H 0.0592 -0.0076 0.5508
loop_
_geom_bond_atom_site_label_1
_geom_bond_atom_site_label_2
_geom_bond_site_symmetry_1
_geom_bond_site_symmetry_2
Cu1 O1 1_555 1_555
Cu2 O7 1_555 1_555
O1 C5 1_555 1_555
O2 C5 1_555 1_555
O3 C6 1_555 1_555
O4 C6 1_555 1_555
O5 Cu1 1_555 1_555
O6 C11 1_555 1_555
O7 C12 1_555 1_555
O8 C12 1_555 1_555
O9 Cu1 1_555 1_555
H1 O9 1_555 1_555
H2 O9 1_555 1_555
O10 Cu2 1_555 1_555
H3 O10 1_555 1_555
H4 O10 1_555 1_555
N1 Cu1 1_555 1_555
N2 C2 1_555 1_555
N3 Cu1 1_555 1_555
N4 C8 1_555 1_555
N5 Cu2 1_555 1_555
N6 Cu2 1_555 1_555
C1 N1 1_555 1_555
C2 C1 1_555 1_555
C3 N2 1_555 1_555
H5 C3 1_555 1_555
C4 N1 1_555 1_555
H6 C4 1_555 1_555
C5 C1 1_555 1_555
C6 C2 1_555 1_555
C7 N3 1_555 1_555
C8 C7 1_555 1_555
C9 N4 1_555 1_555
H7 C9 1_555 1_555
C10 N3 1_555 1_555
H8 C10 1_555 1_555
C11 O5 1_555 1_555
C12 C8 1_555 1_555
C13 N5 1_555 1_555
H9 C13 1_555 1_555
C14 C13 1_555 1_555
H10 C14 1_555 1_555
C15 C14 1_555 1_555
H11 C15 1_555 1_555
C16 C15 1_555 1_555
H12 C16 1_555 1_555
C17 H13 1_555 1_555
C18 C17 1_555 1_555
H14 C18 1_555 1_555
C19 C18 1_555 1_555
H15 C19 1_555 1_555
C20 N6 1_555 1_555
H16 C20 1_555 1_555
C21 N5 1_555 1_555
C22 N6 1_555 1_555
O11 H17 1_555 1_555
H18 O11 1_555 1_555
O12 H19 1_555 1_555
H20 O12 1_555 1_555
O13 H21 1_555 1_555
H22 O13 1_555 1_555
Cu2F O3 1_555 1_555
O3F Cu2 1_555 1_555
C3 C4 1_555 1_555
C7 C11 1_555 1_555
C9 C10 1_555 1_555
C16 C21 1_555 1_555
C17 C22 1_555 1_555
C19 C20 1_555 1_555
C21 C22 1_555 1_555

#END
