
#######################################################################
#
#                 Cambridge Crystallographic Data Centre
#                                CCDC 
#
#######################################################################
#
# If this CIF has been generated from an entry in the Cambridge 
# Structural Database, then it will include bibliographic, chemical, 
# crystal, experimental, refinement or atomic coordinate data resulting 
# from the CCDC's data processing and validation procedures.
#
#######################################################################

data_MOQDEC
_symmetry_cell_setting           monoclinic
_symmetry_space_group_name_H-M   'P 21/c'
_symmetry_Int_Tables_number      14
_space_group_name_Hall           '-P 2ybc'
loop_
_symmetry_equiv_pos_site_id
_symmetry_equiv_pos_as_xyz
1 x,y,z
2 -x,1/2+y,1/2-z
3 -x,-y,-z
4 x,1/2-y,1/2+z
_cell_length_a                   11.442(6)
_cell_length_b                   6.604(3)
_cell_length_c                   23.618(8)
_cell_angle_alpha                90
_cell_angle_beta                 104.377(16)
_cell_angle_gamma                90
_cell_volume                     1728.76
loop_
_atom_site_label
_atom_site_type_symbol
_atom_site_fract_x
_atom_site_fract_y
_atom_site_fract_z
Cu1 Cu 0.0000 0.0000 0.0000
O1 O 0.08365(16) 0.1707(3) -0.04584(7)
O2 O 0.2105(2) 0.4317(3) -0.03693(8)
O3 O 0.20192(18) 0.8315(3) 0.03067(8)
H1 H 0.1647 0.8835 0.0469
O4 O 0.35912(18) 0.6495(3) 0.07457(9)
N1 N 0.05385(18) 0.2155(3) 0.05913(8)
C1 C 0.1213(2) 0.3594(4) 0.04169(10)
C2 C 0.1674(2) 0.5232(4) 0.07615(10)
C3 C 0.1397(3) 0.5378(4) 0.13046(11)
H2 H 0.1682 0.6469 0.1549
C4 C 0.0705(3) 0.3915(4) 0.14793(10)
H3 H 0.0522 0.4011 0.1841
C5 C 0.0286(2) 0.2307(4) 0.11142(10)
H4 H -0.0179 0.1313 0.1232
C6 C 0.1410(2) 0.3207(4) -0.01861(10)
C7 C 0.2497(2) 0.6794(4) 0.05879(10)
Cu1_2 Cu 0.0000 -1.0000 0.0000
Cu1_3 Cu 0.0000 1.0000 0.0000
O1B O -0.08365(16) -0.1707(3) 0.04584(7)
O2B O -0.2105(2) -0.4317(3) 0.03693(8)
O3B O -0.20192(18) -0.8315(3) -0.03067(8)
O3_2 O 0.20192(18) -0.1685(3) 0.03067(8)
O3B_2 O -0.20192(18) 0.1685(3) -0.03067(8)
H1B H -0.1647 -0.8835 -0.0469
H1_2 H 0.1647 -0.1165 0.0469
H1B_2 H -0.1647 0.1165 -0.0469
O4B O -0.35912(18) -0.6495(3) -0.07457(9)
N1B N -0.05385(18) -0.2155(3) -0.05913(8)
C1B C -0.1213(2) -0.3594(4) -0.04169(10)
C2B C -0.1674(2) -0.5232(4) -0.07615(10)
C3B C -0.1397(3) -0.5378(4) -0.13046(11)
H2B H -0.1682 -0.6469 -0.1549
C4B C -0.0705(3) -0.3915(4) -0.14793(10)
H3B H -0.0522 -0.4011 -0.1841
C5B C -0.0286(2) -0.2307(4) -0.11142(10)
H4B H 0.0179 -0.1313 -0.1232
C6B C -0.1410(2) -0.3207(4) 0.01861(10)
C7B C -0.2497(2) -0.6794(4) -0.05879(10)
N2 N 0.6524(3) 0.1184(4) 0.04277(12)
N3 N 0.3788(2) 0.0761(4) 0.27802(10)
C8 C 0.5502(4) 0.2226(5) 0.03718(13)
H5 H 0.5207 0.3008 0.0040
C9 C 0.4861(3) 0.2152(5) 0.08165(13)
H6 H 0.4147 0.2869 0.0782
C10 C 0.3549(2) 0.0795(4) 0.17424(12)
H7 H 0.3025 0.0786 0.1372
C11 C 0.3099(3) 0.0728(5) 0.22379(12)
H8 H 0.2268 0.0655 0.2186
C12 C 0.4970(3) 0.0835(4) 0.28379(11)
H9 H 0.5471 0.0854 0.3214
C13 C 0.5504(2) 0.0887(4) 0.23714(11)
H10 H 0.6340 0.0930 0.2438
C14 C 0.6404(3) -0.0077(4) 0.13203(14)
H11 H 0.6735 -0.0882 0.1643
C15 C 0.6974(3) 0.0043(5) 0.08779(14)
H12 H 0.7679 -0.0685 0.0898
C16 C 0.5340(2) 0.0973(4) 0.13007(11)
C17 C 0.4781(2) 0.0875(4) 0.18060(11)
O5 O 0.1414(2) 0.7036(3) 0.26712(9)
H13 H 0.1172 0.5942 0.2811
H14 H 0.1616 0.7947 0.2980
O6 O 0.0658(3) 0.3486(4) 0.30373(11)
H15 H 0.1061 0.2452 0.3214
H16 H -0.0036 0.3115 0.2838
O7 O 0.2146(2) 0.0103(4) 0.34874(9)
H17 H 0.2834 0.0523 0.3400
H18 H 0.2162 0.0365 0.3833
loop_
_geom_bond_atom_site_label_1
_geom_bond_atom_site_label_2
_geom_bond_site_symmetry_1
_geom_bond_site_symmetry_2
Cu1 O1 1_555 1_555
O1 C6 1_555 1_555
O2 C6 1_555 1_555
O3 H1 1_555 1_555
O4 C7 1_555 1_555
N1 Cu1 1_555 1_555
N2 C8 1_555 1_555
N3 C11 1_555 1_555
C1 N1 1_555 1_555
C2 C1 1_555 1_555
C3 C2 1_555 1_555
H2 C3 1_555 1_555
C4 C3 1_555 1_555
H3 C4 1_555 1_555
C5 N1 1_555 1_555
H4 C5 1_555 1_555
C6 C1 1_555 1_555
C7 O3 1_555 1_555
C8 H5 1_555 1_555
C9 C8 1_555 1_555
H6 C9 1_555 1_555
C10 H7 1_555 1_555
C11 C10 1_555 1_555
H8 C11 1_555 1_555
C12 N3 1_555 1_555
H9 C12 1_555 1_555
C13 C12 1_555 1_555
H10 C13 1_555 1_555
C14 H11 1_555 1_555
C15 N2 1_555 1_555
H12 C15 1_555 1_555
C16 C9 1_555 1_555
C17 C10 1_555 1_555
O5 H13 1_555 1_555
H14 O5 1_555 1_555
O6 H15 1_555 1_555
H16 O6 1_555 1_555
O7 H17 1_555 1_555
H18 O7 1_555 1_555
Cu1_2 O3B 1_555 1_555
Cu1_3 O3 1_555 1_555
O1B Cu1 1_555 1_555
O2B C6B 1_555 1_555
O3B H1B 1_555 1_555
O3_2 Cu1 1_555 1_555
O3B_2 Cu1 1_555 1_555
H1_2 O3_2 1_555 1_555
H1B_2 O3B_2 1_555 1_555
O4B C7B 1_555 1_555
N1B Cu1 1_555 1_555
C1B N1B 1_555 1_555
C2B C1B 1_555 1_555
C3B C2B 1_555 1_555
H2B C3B 1_555 1_555
C4B C3B 1_555 1_555
H3B C4B 1_555 1_555
C5B N1B 1_555 1_555
H4B C5B 1_555 1_555
C6B O1B 1_555 1_555
C7B O3B 1_555 1_555
C2 C7 1_555 1_555
C4 C5 1_555 1_555
C13 C17 1_555 1_555
C14 C15 1_555 1_555
C14 C16 1_555 1_555
C16 C17 1_555 1_555
C1B C6B 1_555 1_555
C2B C7B 1_555 1_555
C4B C5B 1_555 1_555

#END
