
#######################################################################
#
#                 Cambridge Crystallographic Data Centre
#                                CCDC 
#
#######################################################################
#
# If this CIF has been generated from an entry in the Cambridge 
# Structural Database, then it will include bibliographic, chemical, 
# crystal, experimental, refinement or atomic coordinate data resulting 
# from the CCDC's data processing and validation procedures.
#
#######################################################################

data_MOQDAY
_symmetry_cell_setting           monoclinic
_symmetry_space_group_name_H-M   'P 21/c'
_symmetry_Int_Tables_number      14
_space_group_name_Hall           '-P 2ybc'
loop_
_symmetry_equiv_pos_site_id
_symmetry_equiv_pos_as_xyz
1 x,y,z
2 -x,1/2+y,1/2-z
3 -x,-y,-z
4 x,1/2-y,1/2+z
_cell_length_a                   7.761(2)
_cell_length_b                   27.434(9)
_cell_length_c                   13.238(4)
_cell_angle_alpha                90
_cell_angle_beta                 100.775(13)
_cell_angle_gamma                90
_cell_volume                     2768.88
loop_
_atom_site_label
_atom_site_type_symbol
_atom_site_fract_x
_atom_site_fract_y
_atom_site_fract_z
Cu1 Cu -0.49748(5) -0.439140(14) 0.29114(4)
Cu2 Cu -0.02568(5) -0.185130(14) 0.43067(3)
O1 O -0.7385(3) -0.45713(8) 0.2422(2)
O2 O -0.9016(3) -0.51761(10) 0.1693(3)
O3 O -0.7933(3) -0.63691(9) 0.12408(18)
O4 O -0.8657(4) -0.61564(11) 0.2727(2)
O5 O -0.2537(3) -0.41940(8) 0.3146(2)
O6 O -0.0833(3) -0.35426(9) 0.3517(3)
O7 O -0.1986(3) -0.23707(8) 0.39444(18)
O8 O -0.1481(4) -0.25880(10) 0.2401(2)
O9 O -0.5021(6) -0.44539(19) 0.4606(3)
H1 H -0.414(3) -0.446(2) 0.501(3)
H2 H -0.575(4) -0.445(2) 0.492(3)
O10 O -0.1044(4) -0.17163(11) 0.5902(2)
H3 H -0.098(5) -0.1434(8) 0.608(3)
H4 H -0.117(5) -0.1869(12) 0.640(2)
N1 N -0.4531(3) -0.50882(9) 0.2696(2)
N2 N -0.5400(3) -0.36846(9) 0.2836(2)
N3 N 0.1733(4) -0.23084(10) 0.4818(2)
N4 N 0.1677(3) -0.13649(10) 0.4661(2)
C1 C -0.6035(4) -0.53405(11) 0.2398(2)
C2 C -0.6043(4) -0.58424(11) 0.2313(2)
C3 C -0.4439(5) -0.60799(12) 0.2521(3)
H5 H -0.4395 -0.6417 0.2460
C4 C -0.2919(5) -0.58210(13) 0.2814(3)
H6 H -0.1842 -0.5980 0.2950
C5 C -0.3007(5) -0.53201(13) 0.2906(3)
H7 H -0.1982 -0.5143 0.3117
C6 C -0.7632(4) -0.50147(13) 0.2146(3)
C7 C -0.7712(4) -0.61413(12) 0.2069(3)
C8 C -0.3908(4) -0.34243(11) 0.3017(3)
C9 C -0.3929(4) -0.29175(11) 0.2979(2)
C10 C -0.5566(4) -0.26907(12) 0.2774(3)
H8 H -0.5636 -0.2352 0.2756
C11 C -0.7063(5) -0.29625(13) 0.2599(3)
H9 H -0.8153 -0.2810 0.2461
C12 C -0.6952(4) -0.34660(12) 0.2628(3)
H10 H -0.7971 -0.3652 0.2500
C13 C -0.2271(4) -0.37327(12) 0.3254(3)
C14 C -0.2296(4) -0.26065(11) 0.3119(3)
C15 C 0.1620(5) -0.27898(14) 0.4938(3)
H11 H 0.0519 -0.2936 0.4823
C16 C 0.3091(6) -0.30776(15) 0.5229(3)
H12 H 0.2984 -0.3412 0.5317
C17 C 0.4709(6) -0.28611(17) 0.5385(3)
H13 H 0.5715 -0.3050 0.5564
C18 C 0.4846(5) -0.23647(15) 0.5277(3)
H14 H 0.5936 -0.2213 0.5382
C19 C 0.3319(4) -0.20987(13) 0.5009(2)
C20 C 0.3298(4) -0.15599(13) 0.4926(2)
C21 C 0.4771(5) -0.12690(16) 0.5138(3)
H15 H 0.5881 -0.1407 0.5310
C22 C 0.4565(6) -0.07700(16) 0.5093(3)
H16 H 0.5541 -0.0567 0.5233
C23 C 0.2934(6) -0.05762(15) 0.4842(3)
H17 H 0.268(5) -0.0232(8) 0.482(3)
C24 C 0.1499(5) -0.08825(13) 0.4624(3)
H18 H 0.0383 -0.0748 0.4448
Cu2A Cu -0.97432(5) -0.685130(14) 0.06933(3)
O3A O -0.2067(3) -0.13691(9) 0.37592(18)
O11 O -0.8763(5) -0.4356(2) 0.4597(3)
H19 H -0.928(7) -0.4175(16) 0.415(3)
H20 H -0.892(9) -0.4644(8) 0.444(5)
O12 O -0.1235(5) -0.43116(13) 0.1281(3)
H21 H -0.061(6) -0.4540(13) 0.120(3)
H22 H -0.139(7) -0.4340(19) 0.1925(18)
O13 O -1.1115(4) -0.68852(12) 0.2515(3)
H23 H -1.041(5) -0.6655(13) 0.267(4)
H24 H -1.045(7) -0.7126(15) 0.257(5)
O14 O -0.8462(6) -0.54446(17) 0.4270(3)
H25 H -0.817(6) -0.5761(9) 0.444(3)
loop_
_geom_bond_atom_site_label_1
_geom_bond_atom_site_label_2
_geom_bond_site_symmetry_1
_geom_bond_site_symmetry_2
Cu1 O1 1_555 1_555
Cu2 O7 1_555 1_555
O1 C6 1_555 1_555
O2 C6 1_555 1_555
O3 C7 1_555 1_555
O4 C7 1_555 1_555
O5 Cu1 1_555 1_555
O6 C13 1_555 1_555
O7 C14 1_555 1_555
O8 C14 1_555 1_555
O9 Cu1 1_555 1_555
H1 O9 1_555 1_555
H2 O9 1_555 1_555
O10 Cu2 1_555 1_555
H3 O10 1_555 1_555
H4 O10 1_555 1_555
N1 Cu1 1_555 1_555
N2 Cu1 1_555 1_555
N3 Cu2 1_555 1_555
N4 Cu2 1_555 1_555
C1 N1 1_555 1_555
C2 C1 1_555 1_555
C3 C2 1_555 1_555
H5 C3 1_555 1_555
C4 C3 1_555 1_555
H6 C4 1_555 1_555
C5 N1 1_555 1_555
H7 C5 1_555 1_555
C6 C1 1_555 1_555
C7 C2 1_555 1_555
C8 N2 1_555 1_555
C9 C8 1_555 1_555
C10 C9 1_555 1_555
H8 C10 1_555 1_555
C11 C10 1_555 1_555
H9 C11 1_555 1_555
C12 N2 1_555 1_555
H10 C12 1_555 1_555
C13 O5 1_555 1_555
C14 C9 1_555 1_555
C15 N3 1_555 1_555
H11 C15 1_555 1_555
C16 C15 1_555 1_555
H12 C16 1_555 1_555
C17 C16 1_555 1_555
H13 C17 1_555 1_555
C18 C17 1_555 1_555
H14 C18 1_555 1_555
C19 N3 1_555 1_555
C20 N4 1_555 1_555
C21 C20 1_555 1_555
H15 C21 1_555 1_555
C22 C21 1_555 1_555
H16 C22 1_555 1_555
C23 C22 1_555 1_555
H17 C23 1_555 1_555
C24 N4 1_555 1_555
H18 C24 1_555 1_555
O11 H19 1_555 1_555
H20 O11 1_555 1_555
O12 H21 1_555 1_555
H22 O12 1_555 1_555
O13 H23 1_555 1_555
H24 O13 1_555 1_555
O14 H25 1_555 1_555
Cu2A O3 1_555 1_555
O3A Cu2 1_555 1_555
C4 C5 1_555 1_555
C8 C13 1_555 1_555
C11 C12 1_555 1_555
C18 C19 1_555 1_555
C19 C20 1_555 1_555
C23 C24 1_555 1_555

#END
