
#######################################################################
#
#                 Cambridge Crystallographic Data Centre
#                                CCDC 
#
#######################################################################
#
# If this CIF has been generated from an entry in the Cambridge 
# Structural Database, then it will include bibliographic, chemical, 
# crystal, experimental, refinement or atomic coordinate data resulting 
# from the CCDC's data processing and validation procedures.
#
#######################################################################

data_MOQDOM
_symmetry_cell_setting           monoclinic
_symmetry_space_group_name_H-M   'P 21/c'
_symmetry_Int_Tables_number      14
_space_group_name_Hall           '-P 2ybc'
loop_
_symmetry_equiv_pos_site_id
_symmetry_equiv_pos_as_xyz
1 x,y,z
2 -x,1/2+y,1/2-z
3 -x,-y,-z
4 x,1/2-y,1/2+z
_cell_length_a                   12.998(6)
_cell_length_b                   10.072(4)
_cell_length_c                   14.368(6)
_cell_angle_alpha                90
_cell_angle_beta                 105.328(18)
_cell_angle_gamma                90
_cell_volume                     1814.09
loop_
_atom_site_label
_atom_site_type_symbol
_atom_site_fract_x
_atom_site_fract_y
_atom_site_fract_z
Zn1 Zn 0.24563(2) 0.56518(2) 0.214404(18)
O1 O 0.24750(15) 0.51282(17) 0.35757(11)
O2 O 0.27031(18) 0.59446(18) 0.50579(12)
O3 O 0.25812(13) 0.87967(17) 0.57667(11)
O4 O 0.43014(14) 0.8249(2) 0.61101(12)
O5 O 0.40081(16) 0.4814(2) 0.23963(15)
H1 H 0.4547 0.5063 0.2903
H2 H 0.4187 0.5385 0.1949
N1 N 0.29815(15) 0.74363(18) 0.29143(13)
N2 N 0.08057(15) 0.62840(19) 0.17221(14)
N3 N 0.16094(17) 0.38810(19) 0.15858(14)
C1 C 0.30195(16) 0.7370(2) 0.38605(15)
C2 C 0.33467(16) 0.8444(2) 0.44720(15)
C3 C 0.36347(19) 0.9608(2) 0.40840(18)
H3 H 0.3864 1.0340 0.4478
C4 C 0.3579(2) 0.9673(2) 0.31121(17)
H4 H 0.3759 1.0450 0.2842
C5 C 0.3250(2) 0.8563(2) 0.25503(16)
H5 H 0.3215 0.8601 0.1896
C6 C 0.27020(19) 0.6037(2) 0.41994(16)
C7 C 0.34157(18) 0.8454(2) 0.55407(16)
C8 C 0.0442(2) 0.7515(3) 0.1794(2)
H6 H 0.0932 0.8171 0.2068
C9 C -0.0618(2) 0.7855(3) 0.1483(2)
H7 H -0.0841 0.8719 0.1551
C10 C -0.1341(2) 0.6886(3) 0.1067(2)
H8 H -0.2064 0.7086 0.0851
C11 C -0.0986(2) 0.5624(3) 0.0975(2)
H9 H -0.1465 0.4964 0.0687
C12 C -0.0098(2) 0.2913(3) 0.0869(2)
H10 H -0.0833 0.3011 0.0638
C13 C 0.0380(3) 0.1695(3) 0.0843(2)
H11 H -0.0033 0.0956 0.0600
C14 C 0.1459(3) 0.1581(3) 0.1175(2)
H12 H 0.1791 0.0768 0.1155
C15 C 0.2057(3) 0.2695(3) 0.1542(2)
H13 H 0.2794 0.2615 0.1766
C16 C 0.00968(19) 0.5338(2) 0.13155(17)
C17 C 0.0546(2) 0.3994(2) 0.12485(16)
Zn1C Zn 0.24563(2) 0.93482(2) 0.714404(18)
O3C O 0.25812(13) 0.62033(17) 0.07667(11)
O6 O 0.3972(2) 0.2869(2) 0.44069(19)
H14 H 0.4545 0.2849 0.4147
H15 H 0.3614 0.3601 0.4108
O7 O 0.4365(3) 0.4327(3) 0.6098(2)
loop_
_geom_bond_atom_site_label_1
_geom_bond_atom_site_label_2
_geom_bond_site_symmetry_1
_geom_bond_site_symmetry_2
Zn1 O1 1_555 1_555
O1 C6 1_555 1_555
O2 C6 1_555 1_555
O3 C7 1_555 1_555
O4 C7 1_555 1_555
O5 Zn1 1_555 1_555
H1 O5 1_555 1_555
H2 O5 1_555 1_555
N1 Zn1 1_555 1_555
N2 Zn1 1_555 1_555
N3 Zn1 1_555 1_555
C1 N1 1_555 1_555
C2 C1 1_555 1_555
C3 C2 1_555 1_555
H3 C3 1_555 1_555
C4 C3 1_555 1_555
H4 C4 1_555 1_555
C5 N1 1_555 1_555
H5 C5 1_555 1_555
C6 C1 1_555 1_555
C7 C2 1_555 1_555
C8 N2 1_555 1_555
H6 C8 1_555 1_555
C9 C8 1_555 1_555
H7 C9 1_555 1_555
C10 C9 1_555 1_555
H8 C10 1_555 1_555
C11 C10 1_555 1_555
H9 C11 1_555 1_555
C12 H10 1_555 1_555
C13 C12 1_555 1_555
H11 C13 1_555 1_555
C14 C13 1_555 1_555
H12 C14 1_555 1_555
C15 N3 1_555 1_555
H13 C15 1_555 1_555
C16 N2 1_555 1_555
C17 N3 1_555 1_555
O6 H14 1_555 1_555
H15 O6 1_555 1_555
Zn1C O3 1_555 1_555
O3C Zn1 1_555 1_555
C4 C5 1_555 1_555
C11 C16 1_555 1_555
C12 C17 1_555 1_555
C14 C15 1_555 1_555
C16 C17 1_555 1_555

#END
