
#######################################################################
#
#                 Cambridge Crystallographic Data Centre
#                                CCDC 
#
#######################################################################
#
# If this CIF has been generated from an entry in the Cambridge 
# Structural Database, then it will include bibliographic, chemical, 
# crystal, experimental, refinement or atomic coordinate data resulting 
# from the CCDC's data processing and validation procedures.
#
#######################################################################

data_MOQDAY01
_symmetry_cell_setting           monoclinic
_symmetry_space_group_name_H-M   'P 21/c'
_symmetry_Int_Tables_number      14
_space_group_name_Hall           '-P 2ybc'
loop_
_symmetry_equiv_pos_site_id
_symmetry_equiv_pos_as_xyz
1 x,y,z
2 -x,1/2+y,1/2-z
3 -x,-y,-z
4 x,1/2-y,1/2+z
_cell_length_a                   7.7713(7)
_cell_length_b                   27.478(3)
_cell_length_c                   13.2621(13)
_cell_angle_alpha                90
_cell_angle_beta                 100.6940(10)
_cell_angle_gamma                90
_cell_volume                     2782.8
loop_
_atom_site_label
_atom_site_type_symbol
_atom_site_fract_x
_atom_site_fract_y
_atom_site_fract_z
C1 C 0.3059(4) 0.65375(10) 0.2627(2)
H1 H 0.2041 0.6352 0.2495
C2 C 0.2940(4) 0.70367(11) 0.2599(2)
H2 H 0.1851 0.7188 0.2460
C3 C 0.4447(4) 0.73104(10) 0.2778(2)
H3 H 0.4380 0.7648 0.2763
C4 C 0.6080(4) 0.70810(10) 0.2982(2)
C5 C 0.6098(3) 0.65772(9) 0.3014(2)
C6 C 0.7728(4) 0.62670(10) 0.3255(2)
C7 C 0.7715(4) 0.73929(9) 0.3118(2)
C8 C 0.3961(3) 0.46602(10) 0.2399(2)
C9 C 0.3947(4) 0.41578(10) 0.2313(2)
C10 C 0.5551(4) 0.39198(10) 0.2519(2)
H4 H 0.5594 0.3583 0.2455
C11 C 0.7077(4) 0.41791(11) 0.2816(3)
H5 H 0.8151 0.4020 0.2954
C12 C 0.6991(4) 0.46756(11) 0.2907(3)
H6 H 0.8016 0.4852 0.3119
C13 C 0.2370(4) 0.49861(11) 0.2150(3)
C14 C 0.2279(4) 0.38567(10) 0.2071(2)
C15 C 1.1624(4) 0.72099(11) 0.4935(2)
H7 H 1.0525 0.7064 0.4819
C16 C 1.3097(5) 0.69204(12) 0.5224(3)
H8 H 1.2987 0.6586 0.5306
C17 C 1.4716(5) 0.71352(14) 0.5386(3)
H9 H 1.5719 0.6946 0.5567
C18 C 1.4853(4) 0.76329(13) 0.5280(2)
H10 H 1.5944 0.7784 0.5393
C19 C 1.3330(4) 0.79043(11) 0.5000(2)
C20 C 1.3297(4) 0.84401(11) 0.4929(2)
C21 C 1.4775(4) 0.87321(13) 0.5136(3)
H11 H 1.5884 0.8594 0.5301
C22 C 1.4573(5) 0.92303(14) 0.5093(3)
H12 H 1.5548 0.9432 0.5236
C23 C 1.2930(5) 0.94259(12) 0.4840(3)
H13 H 1.2773 0.9761 0.4816
C24 C 1.1508(4) 0.91165(11) 0.4621(2)
H14 H 1.0393 0.9250 0.4438
Cu1 Cu 0.97468(4) 0.814840(11) 0.43093(3)
Cu2 Cu 0.50262(4) 0.560788(12) 0.29127(3)
N1 N 0.4604(3) 0.63149(8) 0.28376(18)
N2 N 0.5466(3) 0.49106(8) 0.26969(19)
N3 N 1.1735(3) 0.76913(8) 0.48197(18)
N4 N 1.1679(3) 0.86344(8) 0.46615(18)
O1 O 0.8022(2) 0.76290(7) 0.39474(16)
O2 O 0.8532(3) 0.74115(8) 0.24074(18)
O3 O 0.9167(3) 0.64545(8) 0.3519(2)
O4 O 0.7465(2) 0.58054(7) 0.31489(18)
O5 O 0.2617(3) 0.54288(7) 0.2425(2)
O6 O 0.0981(3) 0.48234(8) 0.1691(2)
O7 O 0.1341(3) 0.38428(9) 0.2725(2)
O8 O 0.2067(2) 0.36306(7) 0.12410(16)
O9 O 0.89530(15) 0.82848(4) 0.59099(9)
H15 H 0.9003 0.8576 0.6066
H16 H 0.8802 0.8114 0.6392
O10 O 0.49902(15) 0.55416(4) 0.46099(9)
H17 H 0.4126 0.5522 0.4871
H18 H 0.5923 0.5554 0.5011
Cu1A Cu 0.02532(4) 0.314840(11) 0.06907(3)
O8A O 0.7933(2) 0.86306(7) 0.37590(16)
O11 O 0.87638(15) 0.56876(4) 0.12790(9)
H19 H 0.8813 0.5704 0.1904
H20 H 0.9526 0.5516 0.1116
O12 O 0.11147(15) 0.81128(4) 0.24842(9)
H21 H 0.0419 0.7887 0.2261
H22 H 0.0521 0.8369 0.2498
O13 O 0.12471(15) 0.56395(4) 0.45987(9)
H23 H 0.0644 0.5866 0.4306
H24 H 0.0860 0.5371 0.4375
O14 O 0.84324(15) 0.54550(4) 0.57140(9)
H25 H 0.8343 0.5740 0.5957
H26 H 0.9193 0.5261 0.6023
loop_
_geom_bond_atom_site_label_1
_geom_bond_atom_site_label_2
_geom_bond_site_symmetry_1
_geom_bond_site_symmetry_2
C1 H1 1_555 1_555
C2 C1 1_555 1_555
H2 C2 1_555 1_555
C3 C2 1_555 1_555
H3 C3 1_555 1_555
C4 C3 1_555 1_555
C5 C4 1_555 1_555
C6 C5 1_555 1_555
C7 C4 1_555 1_555
C8 C9 1_555 1_555
C9 C10 1_555 1_555
C10 H4 1_555 1_555
C11 C10 1_555 1_555
H5 C11 1_555 1_555
C12 C11 1_555 1_555
H6 C12 1_555 1_555
C13 C8 1_555 1_555
C14 C9 1_555 1_555
C15 H7 1_555 1_555
C16 C15 1_555 1_555
H8 C16 1_555 1_555
C17 C16 1_555 1_555
H9 C17 1_555 1_555
C18 C17 1_555 1_555
H10 C18 1_555 1_555
C19 C18 1_555 1_555
C20 C19 1_555 1_555
C21 C20 1_555 1_555
H11 C21 1_555 1_555
C22 C21 1_555 1_555
H12 C22 1_555 1_555
C23 C22 1_555 1_555
H13 C23 1_555 1_555
C24 C23 1_555 1_555
H14 C24 1_555 1_555
Cu1 N3 1_555 1_555
Cu2 N1 1_555 1_555
N1 C1 1_555 1_555
N2 C8 1_555 1_555
N3 C15 1_555 1_555
N4 C20 1_555 1_555
O1 C7 1_555 1_555
O2 C7 1_555 1_555
O3 C6 1_555 1_555
O4 C6 1_555 1_555
O5 C13 1_555 1_555
O6 C13 1_555 1_555
O7 C14 1_555 1_555
O8 C14 1_555 1_555
O9 Cu1 1_555 1_555
H15 O9 1_555 1_555
H16 O9 1_555 1_555
O10 Cu2 1_555 1_555
H17 O10 1_555 1_555
H18 O10 1_555 1_555
O11 H19 1_555 1_555
H20 O11 1_555 1_555
O12 H21 1_555 1_555
H22 O12 1_555 1_555
O13 H23 1_555 1_555
H24 O13 1_555 1_555
O14 H25 1_555 1_555
H26 O14 1_555 1_555
Cu1A O8 1_555 1_555
O8A Cu1 1_555 1_555
C5 N1 1_555 1_555
C12 N2 1_555 1_555
C19 N3 1_555 1_555
C24 N4 1_555 1_555
Cu1 N4 1_555 1_555
Cu1 O1 1_555 1_555
Cu2 N2 1_555 1_555
Cu2 O4 1_555 1_555
Cu2 O5 1_555 1_555

#END
