
#######################################################################
#
#                 Cambridge Crystallographic Data Centre
#                                CCDC 
#
#######################################################################
#
# If this CIF has been generated from an entry in the Cambridge 
# Structural Database, then it will include bibliographic, chemical, 
# crystal, experimental, refinement or atomic coordinate data resulting 
# from the CCDC's data processing and validation procedures.
#
#######################################################################

data_MOQFIJ
_symmetry_cell_setting           orthorhombic
_symmetry_space_group_name_H-M   'P b c a'
_symmetry_Int_Tables_number      61
_space_group_name_Hall           '-P 2ac 2ab'
loop_
_symmetry_equiv_pos_site_id
_symmetry_equiv_pos_as_xyz
1 x,y,z
2 1/2-x,-y,1/2+z
3 1/2+x,1/2-y,-z
4 -x,1/2+y,1/2-z
5 -x,-y,-z
6 1/2+x,y,1/2-z
7 1/2-x,1/2+y,z
8 x,1/2-y,1/2+z
_cell_length_a                   6.3972(1)
_cell_length_b                   19.2951(4)
_cell_length_c                   21.8976(6)
_cell_angle_alpha                90
_cell_angle_beta                 90
_cell_angle_gamma                90
_cell_volume                     2702.92
loop_
_atom_site_label
_atom_site_type_symbol
_atom_site_fract_x
_atom_site_fract_y
_atom_site_fract_z
C1 C 0.2864(9) -0.0188(3) 0.3378(2)
C2 C 0.4126(10) -0.0747(3) 0.3529(3)
H1 H 0.5463 -0.0671 0.3682
C3 C 0.3386(11) -0.1425(3) 0.3451(4)
H2 H 0.4224 -0.18 0.3555
C4 C 0.1424(10) -0.1530(3) 0.3221(3)
H3 H 0.0942 -0.198 0.3167
C5 C 0.0145(10) -0.0981(3) 0.3066(3)
H4 H -0.1187 -0.1061 0.2911
C6 C 0.0873(9) -0.0310(3) 0.3146(3)
H5 H 0.0021 0.0063 0.3043
C7 C 0.2285(9) 0.1039(3) 0.4110(3)
H6 H 0.0801 0.1025 0.4
C8 C 0.2527(10) 0.0615(3) 0.4694(3)
H7 H 0.209 0.0141 0.462
H8 H 0.3984 0.0608 0.4816
C9 C 0.1210(11) 0.0925(3) 0.5206(3)
H9 H 0.1423 0.066 0.5577
H10 H -0.0257 0.0895 0.5098
C10 C 0.1794(10) 0.1681(3) 0.5320(3)
H11 H 0.0895 0.1872 0.5634
H12 H 0.3226 0.1707 0.5463
C11 C 0.1566(10) 0.2102(3) 0.4742(3)
H13 H 0.2019 0.2574 0.482
H14 H 0.0105 0.2116 0.4625
C12 C 0.2845(9) 0.1801(3) 0.4218(3)
H15 H 0.4322 0.1839 0.4312
H16 H 0.2577 0.2064 0.3849
O1 O 0.6078(6) 0.0609(2) 0.3702(2)
H17 H 0.6792 0.0929 0.357
P1 P 0.3724(2) 0.06961(7) 0.34681(7)
Cl1 Cl 0.3119(2) 0.19919(7) 0.17356(7)
Au1 Au 0.34147(3) 0.134022(10) 0.262321(10)
Au1E Au -0.15853(3) 0.134022(10) 0.237679(10)
Au1E_2 Au 0.84147(3) 0.134022(10) 0.237679(10)
loop_
_geom_bond_atom_site_label_1
_geom_bond_atom_site_label_2
_geom_bond_site_symmetry_1
_geom_bond_site_symmetry_2
C1 C2 1_555 1_555
C2 H1 1_555 1_555
C3 C2 1_555 1_555
H2 C3 1_555 1_555
C4 C3 1_555 1_555
H3 C4 1_555 1_555
C5 C4 1_555 1_555
H4 C5 1_555 1_555
C6 C1 1_555 1_555
H5 C6 1_555 1_555
C7 H6 1_555 1_555
C8 C7 1_555 1_555
H7 C8 1_555 1_555
H8 C8 1_555 1_555
C9 C8 1_555 1_555
H9 C9 1_555 1_555
H10 C9 1_555 1_555
C10 C9 1_555 1_555
H11 C10 1_555 1_555
H12 C10 1_555 1_555
C11 C10 1_555 1_555
H13 C11 1_555 1_555
H14 C11 1_555 1_555
C12 C7 1_555 1_555
H15 C12 1_555 1_555
H16 C12 1_555 1_555
O1 H17 1_555 1_555
P1 C1 1_555 1_555
Cl1 Au1 1_555 1_555
Au1 P1 1_555 1_555
Au1E Au1 1_555 1_555
Au1E_2 Au1 1_555 1_555
C5 C6 1_555 1_555
C7 P1 1_555 1_555
C11 C12 1_555 1_555
O1 P1 1_555 1_555

#END
