
#######################################################################
#
#                 Cambridge Crystallographic Data Centre
#                                CCDC 
#
#######################################################################
#
# If this CIF has been generated from an entry in the Cambridge 
# Structural Database, then it will include bibliographic, chemical, 
# crystal, experimental, refinement or atomic coordinate data resulting 
# from the CCDC's data processing and validation procedures.
#
#######################################################################

data_MOQFAA
_symmetry_cell_setting           monoclinic
_symmetry_space_group_name_H-M   'P 2/c'
_symmetry_Int_Tables_number      13
_space_group_name_Hall           '-P 2yc'
loop_
_symmetry_equiv_pos_site_id
_symmetry_equiv_pos_as_xyz
1 x,y,z
2 -x,y,1/2-z
3 -x,-y,-z
4 x,-y,1/2+z
_cell_length_a                   13.6537(9)
_cell_length_b                   7.6063(5)
_cell_length_c                   23.3667(13)
_cell_angle_alpha                90
_cell_angle_beta                 113.450(3)
_cell_angle_gamma                90
_cell_volume                     2226.3
loop_
_atom_site_label
_atom_site_type_symbol
_atom_site_fract_x
_atom_site_fract_y
_atom_site_fract_z
Zn1 Zn 0.13847(5) 0.03175(10) 0.26073(3)
O1 O -0.0015(4) 0.3072(6) 0.0637(2)
O2 O 0.0000 -0.1231(8) 0.2500
O3 O 0.3903(4) -0.2973(7) 0.4390(2)
O4 O -0.1143(3) 0.1694(6) 0.1691(2)
O5 O 0.0604(3) 0.2081(6) 0.18914(19)
O6 O 0.2332(3) -0.1595(6) 0.3300(2)
O7 O 0.1049(4) -0.2838(7) 0.3526(2)
N1 N 0.2833(4) 0.1758(7) 0.2866(2)
N2 N 0.8297(4) 0.8773(7) 0.3073(2)
C1 C -0.0035(5) 0.1501(9) 0.0329(3)
C2 C -0.0434(5) -0.0057(9) 0.0447(3)
H1 H -0.071(5) -0.013(8) 0.074(3)
C3 C 0.5478(6) -0.1603(11) 0.5076(4)
H2 H 0.575(4) -0.274(8) 0.515(2)
C4 C 0.4410(5) -0.1444(10) 0.4690(3)
C5 C 0.3931(5) 0.0184(11) 0.4612(4)
H3 H 0.320(7) 0.033(12) 0.429(4)
C6 C 0.0408(5) 0.1552(9) -0.0113(3)
H4 H 0.058(5) 0.270(9) -0.023(3)
C7 C -0.0721(5) 0.3193(9) 0.0949(3)
H5 H -0.1412 0.2741 0.0673
H6 H -0.0813 0.4426 0.1022
C8 C -0.0370(5) 0.2216(8) 0.1574(3)
C9 C 0.2808(5) -0.3175(11) 0.4264(3)
H7 H 0.2671 -0.2601 0.4595
H8 H 0.2668 -0.4419 0.4284
C10 C 0.2005(5) -0.2465(9) 0.3640(3)
C11 C 0.2829(6) 0.3491(10) 0.2928(3)
H9 H 0.2170 0.4040 0.2820
C12 C 0.3715(7) 0.4528(12) 0.3140(4)
H10 H 0.3648 0.5736 0.3173
C13 C 0.4697(7) 0.3801(15) 0.3302(4)
C14 C 0.4735(6) 0.1959(14) 0.3244(4)
H11 H 0.5387 0.1391 0.3352
C15 C 0.3790(5) 0.0999(11) 0.3026(4)
H12 H 0.3824 -0.0215 0.2989
C16 C 0.5687(8) 0.498(2) 0.3539(5)
C17 C 0.6518(9) 0.4519(19) 0.4029(4)
H13 H 0.6789 0.3455 0.3915
H14 H 0.6251 0.4178 0.4341
C18 C 0.7470(6) 0.5656(12) 0.4360(3)
H15 H 0.8070 0.4919 0.4606
H16 H 0.7318 0.6432 0.4644
C19 C 0.7777(5) 0.6751(10) 0.3917(3)
C20 C 0.7623(5) 0.8553(10) 0.3867(3)
H17 H 0.7336 0.9120 0.4118
C21 C 0.7889(5) 0.9510(9) 0.3451(3)
H18 H 0.7782 1.0720 0.3431
C22 C 0.8218(5) 0.6005(10) 0.3537(3)
H19 H 0.8355 0.4804 0.3558
C23 C 0.8454(5) 0.7038(9) 0.3126(3)
H20 H 0.8740 0.6497 0.2871
Zn1A Zn -0.13847(5) 0.03175(10) 0.23927(3)
Zn1A_2 Zn 0.86153(5) 1.03175(10) 0.23927(3)
Zn1B Zn 0.86153(5) -0.03175(10) 0.73927(3)
Zn1C Zn 0.13847(5) -0.03175(10) -0.23927(3)
Zn1B_2 Zn -0.13847(5) -0.03175(10) -0.26073(3)
Zn1_2 Zn -0.86153(5) 1.03175(10) 0.26073(3)
O1B O 0.0015(4) -0.3072(6) -0.0637(2)
O3B O 0.6097(4) 0.2973(7) 0.5610(2)
O4A O 0.1143(3) 0.1694(6) 0.3309(2)
O4B O 0.1143(3) -0.1694(6) -0.1691(2)
O5A O -0.0604(3) 0.2081(6) 0.31086(19)
O5B O -0.0604(3) -0.2081(6) -0.18914(19)
O6A O -0.2332(3) -0.1595(6) 0.1700(2)
O6B O 0.7668(3) 0.1595(6) 0.6700(2)
O7B O 0.8951(4) 0.2838(7) 0.6474(2)
N1A N -0.2833(4) 0.1758(7) 0.2134(2)
N2_2 N -0.1703(4) -0.1227(7) 0.3073(2)
N2A N 0.1703(4) -0.1227(7) 0.1927(2)
N2A_2 N -0.8297(4) 0.8773(7) 0.1927(2)
C1B C 0.0035(5) -0.1501(9) -0.0329(3)
C2B C 0.0434(5) 0.0057(9) -0.0447(3)
H1B H 0.071(5) 0.013(8) -0.074(3)
C3B C 0.4522(6) 0.1603(11) 0.4924(4)
H2B H 0.425(4) 0.274(8) 0.485(2)
C4B C 0.5590(5) 0.1444(10) 0.5310(3)
C5B C 0.6069(5) -0.0184(11) 0.5388(4)
H3B H 0.680(7) -0.033(12) 0.571(4)
C6B C -0.0408(5) -0.1552(9) 0.0113(3)
H4B H -0.058(5) -0.270(9) 0.023(3)
C7B C 0.0721(5) -0.3193(9) -0.0949(3)
H5B H 0.1412 -0.2741 -0.0673
H6B H 0.0813 -0.4426 -0.1022
C8B C 0.0370(5) -0.2216(8) -0.1574(3)
C9B C 0.7192(5) 0.3175(11) 0.5736(3)
H7B H 0.7329 0.2601 0.5405
H8B H 0.7332 0.4419 0.5716
C10B C 0.7995(5) 0.2465(9) 0.6360(3)
C11A C -0.2829(6) 0.3491(10) 0.2072(3)
H9A H -0.2170 0.4040 0.2180
C12A C -0.3715(7) 0.4528(12) 0.1860(4)
H10A H -0.3648 0.5736 0.1827
C13A C -0.4697(7) 0.3801(15) 0.1698(4)
C14A C -0.4735(6) 0.1959(14) 0.1756(4)
H11A H -0.5387 0.1391 0.1648
C15A C -0.3790(5) 0.0999(11) 0.1974(4)
H12A H -0.3824 -0.0215 0.2011
C16A C -0.5687(8) 0.498(2) 0.1461(5)
C17A C -0.6518(9) 0.4519(19) 0.0971(4)
H13A H -0.6789 0.3455 0.1085
H14A H -0.6251 0.4178 0.0659
C18A C -0.7470(6) 0.5656(12) 0.0640(3)
H15A H -0.8070 0.4919 0.0394
H16A H -0.7318 0.6432 0.0356
C19A C -0.7777(5) 0.6751(10) 0.1083(3)
C20A C -0.7623(5) 0.8553(10) 0.1133(3)
H17A H -0.7336 0.9120 0.0882
C21A C -0.7889(5) 0.9510(9) 0.1549(3)
H18A H -0.7782 1.0720 0.1569
C22A C -0.8218(5) 0.6005(10) 0.1463(3)
H19A H -0.8355 0.4804 0.1442
C23A C -0.8454(5) 0.7038(9) 0.1874(3)
H20A H -0.8740 0.6497 0.2129
loop_
_geom_bond_atom_site_label_1
_geom_bond_atom_site_label_2
_geom_bond_site_symmetry_1
_geom_bond_site_symmetry_2
Zn1 O2 1_555 1_555
O1 C1 1_555 1_555
O2 Zn1A 1_555 1_555
O3 C4 1_555 1_555
O4 C8 1_555 1_555
O5 Zn1 1_555 1_555
O6 Zn1 1_555 1_555
O7 C10 1_555 1_555
N1 Zn1 1_555 1_555
N2 C21 1_555 1_555
C1 C2 1_555 1_555
C2 H1 1_555 1_555
C3 H2 1_555 1_555
C4 C3 1_555 1_555
C5 C4 1_555 1_555
H3 C5 1_555 1_555
C6 C1 1_555 1_555
H4 C6 1_555 1_555
C7 O1 1_555 1_555
H5 C7 1_555 1_555
H6 C7 1_555 1_555
C8 O5 1_555 1_555
C9 O3 1_555 1_555
H7 C9 1_555 1_555
H8 C9 1_555 1_555
C10 O6 1_555 1_555
C11 N1 1_555 1_555
H9 C11 1_555 1_555
C12 C11 1_555 1_555
H10 C12 1_555 1_555
C13 C12 1_555 1_555
C14 C13 1_555 1_555
H11 C14 1_555 1_555
C15 N1 1_555 1_555
H12 C15 1_555 1_555
C16 C13 1_555 1_555
C17 C16 1_555 1_555
H13 C17 1_555 1_555
H14 C17 1_555 1_555
C18 C17 1_555 1_555
H15 C18 1_555 1_555
H16 C18 1_555 1_555
C19 C18 1_555 1_555
C20 C19 1_555 1_555
H17 C20 1_555 1_555
C21 C20 1_555 1_555
H18 C21 1_555 1_555
C22 C19 1_555 1_555
H19 C22 1_555 1_555
C23 N2 1_555 1_555
H20 C23 1_555 1_555
Zn1A O4 1_555 1_555
Zn1A_2 N2 1_555 1_555
Zn1B O6B 1_555 1_555
Zn1C O4B 1_555 1_555
Zn1B_2 O5B 1_555 1_555
Zn1_2 N2A_2 1_555 1_555
O1B C1B 1_555 1_555
O3B C4B 1_555 1_555
O4A Zn1 1_555 1_555
O4B C8B 1_555 1_555
O5A Zn1A 1_555 1_555
O5B C8B 1_555 1_555
O6A Zn1A 1_555 1_555
O6B C10B 1_555 1_555
O7B C10B 1_555 1_555
N1A Zn1A 1_555 1_555
N2_2 Zn1A 1_555 1_555
N2A Zn1 1_555 1_555
N2A_2 C21A 1_555 1_555
C1B C2B 1_555 1_555
C2B C6 1_555 1_555
H1B C2B 1_555 1_555
C3B C5 1_555 1_555
H2B C3B 1_555 1_555
C4B C3B 1_555 1_555
C5B C3 1_555 1_555
H3B C5B 1_555 1_555
C6B C2 1_555 1_555
H4B C6B 1_555 1_555
C7B O1B 1_555 1_555
H5B C7B 1_555 1_555
H6B C7B 1_555 1_555
C8B C7B 1_555 1_555
C9B O3B 1_555 1_555
H7B C9B 1_555 1_555
H8B C9B 1_555 1_555
C10B C9B 1_555 1_555
C11A N1A 1_555 1_555
H9A C11A 1_555 1_555
C12A C11A 1_555 1_555
H10A C12A 1_555 1_555
C13A C12A 1_555 1_555
C14A C13A 1_555 1_555
H11A C14A 1_555 1_555
C15A N1A 1_555 1_555
H12A C15A 1_555 1_555
C16A C13A 1_555 1_555
C17A C16A 1_555 1_555
H13A C17A 1_555 1_555
H14A C17A 1_555 1_555
C18A C17A 1_555 1_555
H15A C18A 1_555 1_555
H16A C18A 1_555 1_555
C19A C18A 1_555 1_555
C20A C19A 1_555 1_555
H17A C20A 1_555 1_555
C21A C20A 1_555 1_555
H18A C21A 1_555 1_555
C22A C19A 1_555 1_555
H19A C22A 1_555 1_555
C23A N2A_2 1_555 1_555
H20A C23A 1_555 1_555
C7 C8 1_555 1_555
C9 C10 1_555 1_555
C14 C15 1_555 1_555
C22 C23 1_555 1_555
C1B C6B 1_555 1_555
C4B C5B 1_555 1_555
C14A C15A 1_555 1_555
C22A C23A 1_555 1_555

#END
