
#######################################################################
#
#                 Cambridge Crystallographic Data Centre
#                                CCDC 
#
#######################################################################
#
# If this CIF has been generated from an entry in the Cambridge 
# Structural Database, then it will include bibliographic, chemical, 
# crystal, experimental, refinement or atomic coordinate data resulting 
# from the CCDC's data processing and validation procedures.
#
#######################################################################

data_MOQGAB
_symmetry_cell_setting           monoclinic
_symmetry_space_group_name_H-M   'P 21/n'
_symmetry_Int_Tables_number      14
_space_group_name_Hall           '-P 2yn'
loop_
_symmetry_equiv_pos_site_id
_symmetry_equiv_pos_as_xyz
1 x,y,z
2 1/2-x,1/2+y,1/2-z
3 -x,-y,-z
4 1/2+x,1/2-y,1/2+z
_cell_length_a                   10.2482(4)
_cell_length_b                   6.7907(3)
_cell_length_c                   16.7406(8)
_cell_angle_alpha                90
_cell_angle_beta                 98.316(2)
_cell_angle_gamma                90
_cell_volume                     1152.77
loop_
_atom_site_label
_atom_site_type_symbol
_atom_site_fract_x
_atom_site_fract_y
_atom_site_fract_z
Mo1 Mo 0.35295(5) 1.37161(7) 1.01895(3)
Zn1 Zn 0.37424(7) 0.87469(9) 1.01097(5)
O1 O 0.4475(5) 1.1414(6) 1.0433(3)
O2 O 0.2195(5) 1.3495(6) 1.0702(3)
O3 O 0.2845(5) 1.3801(7) 0.9200(3)
O4 O 0.4310(5) 1.6027(6) 1.0505(3)
N1 N 0.2392(5) 0.8664(7) 0.9096(4)
N2 N 0.0608(5) 0.7536(8) 0.9741(4)
H1 H -0.0136 0.6935 0.9646
N3 N 0.2211(6) 0.8650(7) 1.0803(4)
C1 C 0.2832(7) 0.9170(10) 0.8401(4)
H2 H 0.3684 0.9665 0.8428
C2 C 0.2065(8) 0.8982(11) 0.7645(5)
H3 H 0.2392 0.9346 0.7176
C3 C 0.0797(8) 0.8231(11) 0.7615(5)
H4 H 0.0266 0.8072 0.7120
C4 C 0.0332(7) 0.7731(10) 0.8306(4)
H5 H -0.0513 0.7216 0.8286
C5 C 0.1142(6) 0.7999(9) 0.9059(4)
C6 C 0.1040(6) 0.7851(9) 1.0553(4)
C7 C 0.0200(6) 0.7299(9) 1.1109(5)
H6 H -0.0618 0.6744 1.0923
C8 C 0.0566(7) 0.7564(10) 1.1908(5)
H7 H 0.0016 0.7182 1.2276
C9 C 0.1771(8) 0.8413(10) 1.2167(5)
H8 H 0.2056 0.8622 1.2713
C10 C 0.2540(7) 0.8941(10) 1.1598(4)
H9 H 0.3345 0.9542 1.1776
Zn1B Zn 0.62576(7) 1.12531(9) 0.98903(5)
Zn1_2 Zn 0.37424(7) 1.87469(9) 1.01097(5)
O1B O 0.5525(5) 0.8586(6) 0.9567(3)
O4_2 O 0.4310(5) 0.6027(6) 1.0505(3)
loop_
_geom_bond_atom_site_label_1
_geom_bond_atom_site_label_2
_geom_bond_site_symmetry_1
_geom_bond_site_symmetry_2
Mo1 O1 1_555 1_555
Zn1 O1 1_555 1_555
O1 Zn1B 1_555 1_555
O2 Mo1 1_555 1_555
O3 Mo1 1_555 1_555
O4 Mo1 1_555 1_555
N1 Zn1 1_555 1_555
N2 H1 1_555 1_555
N3 Zn1 1_555 1_555
C1 N1 1_555 1_555
H2 C1 1_555 1_555
C2 C1 1_555 1_555
H3 C2 1_555 1_555
C3 C2 1_555 1_555
H4 C3 1_555 1_555
C4 C3 1_555 1_555
H5 C4 1_555 1_555
C5 N1 1_555 1_555
C6 N2 1_555 1_555
C7 C6 1_555 1_555
H6 C7 1_555 1_555
C8 C7 1_555 1_555
H7 C8 1_555 1_555
C9 C8 1_555 1_555
H8 C9 1_555 1_555
C10 N3 1_555 1_555
H9 C10 1_555 1_555
Zn1B O1B 1_555 1_555
Zn1_2 O4 1_555 1_555
O1B Zn1 1_555 1_555
O4_2 Zn1 1_555 1_555
N2 C5 1_555 1_555
N3 C6 1_555 1_555
C4 C5 1_555 1_555
C9 C10 1_555 1_555

#END
