
#######################################################################
#
#                 Cambridge Crystallographic Data Centre
#                                CCDC 
#
#######################################################################
#
# If this CIF has been generated from an entry in the Cambridge 
# Structural Database, then it will include bibliographic, chemical, 
# crystal, experimental, refinement or atomic coordinate data resulting 
# from the CCDC's data processing and validation procedures.
#
#######################################################################

data_MOQSER
_symmetry_cell_setting           triclinic
_symmetry_space_group_name_H-M   'P -1'
_symmetry_Int_Tables_number      2
_space_group_name_Hall           '-P 1'
loop_
_symmetry_equiv_pos_site_id
_symmetry_equiv_pos_as_xyz
1 x,y,z
2 -x,-y,-z
_cell_length_a                   10.656(5)
_cell_length_b                   13.663(6)
_cell_length_c                   14.858(7)
_cell_angle_alpha                65.450(6)
_cell_angle_beta                 89.184(7)
_cell_angle_gamma                76.271(7)
_cell_volume                     1902.71
loop_
_atom_site_label
_atom_site_type_symbol
_atom_site_fract_x
_atom_site_fract_y
_atom_site_fract_z
Co1 Co 0.09839(5) -0.17708(4) -0.37019(3)
Co2 Co -0.04600(5) -0.33821(4) -0.08823(3)
N1 N -0.2251(3) -0.3051(3) -0.1708(2)
N2 N -0.3371(3) -0.2979(3) -0.2980(2)
N3 N 0.4040(3) -0.0593(3) -0.3011(2)
N4 N 0.2510(3) -0.1110(3) -0.3558(2)
N5 N 0.3261(3) -0.3862(3) 0.0531(2)
N6 N 0.1478(3) -0.3765(3) -0.0268(2)
O1 O 0.0155(3) -0.4454(2) -0.14965(18)
O2 O 0.1197(3) -0.6183(2) -0.04490(18)
O3 O -0.0031(3) -0.3012(2) -0.3869(2)
O4 O 0.1920(3) -0.3505(2) -0.31190(19)
O5 O 0.0329(3) -0.20639(19) -0.22704(18)
O6 O -0.0785(3) -0.1705(2) -0.1146(2)
O7 O -0.0583(3) -0.04307(19) -0.40847(18)
O8 O -0.1197(3) 0.1412(2) -0.48068(18)
C1 C 0.0777(4) -0.5430(3) -0.1300(3)
C2 C 0.0938(3) -0.5726(3) -0.2169(3)
C3 C 0.0867(4) -0.6782(3) -0.2016(3)
H1 H 0.0840 -0.7298 -0.1370
C4 C 0.0835(4) -0.7103(3) -0.2788(3)
C5 C 0.0970(4) -0.6336(3) -0.3732(3)
H2 H 0.0999 -0.6535 -0.4261
C6 C 0.1063(4) -0.5280(3) -0.3899(3)
H3 H 0.1165 -0.4787 -0.4537
C7 C 0.1007(4) -0.4939(3) -0.3134(3)
C8 C 0.0975(4) -0.3743(3) -0.3379(3)
C9 C -0.0158(4) -0.1397(3) -0.1893(3)
C10 C 0.0089(4) -0.0266(3) -0.2234(3)
C11 C 0.0552(4) -0.0058(3) -0.1472(3)
H4 H 0.0672 -0.0608 -0.0824
C12 C 0.0836(5) 0.0928(3) -0.1651(3)
H5 H 0.1171 0.1026 -0.1129
C13 C 0.0627(4) -0.8213(3) -0.2606(3)
C14 C 0.0160(3) -0.8404(3) -0.3367(3)
H6 H 0.0020 -0.7842 -0.4010
C15 C -0.0107(4) 0.0582(3) -0.3198(3)
C16 C -0.0661(4) 0.0502(3) -0.4094(3)
C17 C -0.2318(4) -0.2818(4) -0.2663(3)
H7 H -0.1687 -0.2566 -0.3073
C18 C -0.3357(4) -0.3366(4) -0.1399(3)
H8 H -0.3584 -0.3584 -0.0750
C19 C -0.4096(5) -0.3318(4) -0.2174(3)
H9 H -0.4899 -0.3478 -0.2162
C20 C -0.3681(5) -0.2907(4) -0.3969(3)
H10 H -0.2981 -0.2717 -0.4378
H11 H -0.4465 -0.2321 -0.4285
C21 C -0.3873(4) -0.4002(4) -0.3900(3)
C22 C -0.5107(5) -0.4142(4) -0.3927(3)
H12 H -0.5817 -0.3543 -0.4045
C23 C -0.5310(4) -0.5158(4) -0.3782(3)
H13 H -0.6153 -0.5234 -0.3795
C24 C -0.4264(4) -0.6073(4) -0.3618(3)
C25 C -0.3020(4) -0.5907(4) -0.3635(3)
H14 H -0.2309 -0.6493 -0.3557
C26 C -0.2813(5) -0.4884(4) -0.3768(3)
H15 H -0.1974 -0.4796 -0.3768
C27 C 0.3134(4) -0.1165(3) -0.2767(3)
H16 H 0.2961 -0.1557 -0.2117
C28 C 0.3075(5) -0.0457(4) -0.4343(3)
H17 H 0.2845 -0.0266 -0.5008
C29 C 0.3996(5) -0.0134(4) -0.4022(3)
H18 H 0.4508 0.0315 -0.4412
C30 C 0.4955(4) -0.0505(4) -0.2339(3)
H19 H 0.5782 -0.1031 -0.2262
H20 H 0.4631 -0.0700 -0.1690
C31 C 0.5157(4) 0.0655(4) -0.2719(3)
C32 C 0.4189(5) 0.1510(4) -0.2702(4)
H21 H 0.3405 0.1374 -0.2469
C33 C 0.4360(5) 0.2570(4) -0.3025(4)
H22 H 0.3683 0.3138 -0.3017
C34 C -0.4473(4) -0.7195(3) -0.3363(3)
C35 C -0.3560(5) -0.8038(5) -0.3443(5)
H23 H -0.2803 -0.7894 -0.3728
C36 C 0.6268(5) 0.0903(4) -0.3111(5)
H24 H 0.6926 0.0344 -0.3154
C37 C 0.1989(4) -0.3790(3) 0.0549(3)
H25 H 0.1519 -0.3760 0.1073
C38 C 0.2524(4) -0.3841(3) -0.0825(3)
H26 H 0.2481 -0.3859 -0.1443
C39 C 0.3592(4) -0.3884(4) -0.0351(3)
H27 H 0.4413 -0.3922 -0.0576
C40 C 0.4148(5) -0.3824(4) 0.1265(3)
H28 H 0.4958 -0.4383 0.1381
H29 H 0.3762 -0.3992 0.1890
C41 C 0.4413(5) -0.2698(4) 0.0902(3)
C42 C 0.3441(6) -0.1781(5) 0.0825(4)
H30 H 0.2624 -0.1870 0.1012
C43 C 0.3669(5) -0.0736(5) 0.0474(5)
H31 H 0.2999 -0.0135 0.0428
C44 C 0.4880(5) -0.0560(4) 0.0187(3)
C45 C 0.5845(5) -0.1490(4) 0.0287(4)
H32 H 0.6667 -0.1410 0.0110
C46 C 0.5613(5) -0.2538(5) 0.0645(4)
H33 H 0.6287 -0.3146 0.0712
Co1A Co -0.09839(5) 0.17708(4) -0.62981(3)
Co1_2 Co 0.09839(5) 0.82292(4) -0.37019(3)
Co1_3 Co -0.90161(5) -1.17708(4) -0.37019(3)
Co1A_2 Co -0.09839(5) -0.82292(4) -0.62981(3)
Co1_4 Co 0.09839(5) -1.17708(4) -0.37019(3)
Co2_2 Co 0.95400(5) 0.66179(4) -0.08823(3)
Co2A Co 0.04600(5) 0.33821(4) 0.08823(3)
Co2_3 Co -0.04600(5) 0.66179(4) -0.08823(3)
Co2A_2 Co 1.04600(5) 0.33821(4) 0.08823(3)
Co2A_3 Co 0.04600(5) -0.66179(4) 0.08823(3)
Co2_4 Co -0.04600(5) -1.33821(4) -0.08823(3)
N1_2 N 0.7749(3) 0.6949(3) -0.1708(2)
N2_2 N 0.6629(3) 0.7021(3) -0.2980(2)
N3_2 N -0.5960(3) -1.0593(3) -0.3011(2)
N4_2 N -0.7490(3) -1.1110(3) -0.3558(2)
N5A N 0.6739(3) 0.3862(3) -0.0531(2)
N6_2 N 1.1478(3) 0.6235(3) -0.0268(2)
N6A N 0.8522(3) 0.3765(3) 0.0268(2)
O1_2 O 1.0155(3) 0.5546(2) -0.14965(18)
O1_3 O 0.0155(3) 0.5546(2) -0.14965(18)
O2A O -0.1197(3) -0.3817(2) 0.04490(18)
O2A_2 O 0.8803(3) 0.6183(2) 0.04490(18)
O2_2 O 0.1197(3) 0.3817(2) -0.04490(18)
O3_2 O -0.0031(3) 0.6988(2) -0.3869(2)
O3_3 O -1.0031(3) -1.3012(2) -0.3869(2)
O4_2 O 0.1920(3) 0.6495(2) -0.31190(19)
O4_3 O -0.8080(3) -1.3505(2) -0.31190(19)
O5_2 O 1.0329(3) 0.79361(19) -0.22704(18)
O5_3 O -0.9671(3) -1.20639(19) -0.22704(18)
O5_4 O 0.0329(3) -1.20639(19) -0.22704(18)
O6_2 O 0.9215(3) 0.8295(2) -0.1146(2)
O6_3 O -0.0785(3) -1.1705(2) -0.1146(2)
O7_2 O -1.0583(3) -1.04307(19) -0.40847(18)
O7_3 O -0.0583(3) -1.04307(19) -0.40847(18)
O8A O 0.1197(3) -0.1412(2) -0.51932(18)
O8A_2 O -0.8803(3) -1.1412(2) -0.51932(18)
O8_2 O -0.1197(3) -0.8588(2) -0.48068(18)
C1_2 C 0.0777(4) 0.4570(3) -0.1300(3)
C2_2 C 0.0938(3) 0.4274(3) -0.2169(3)
C3_2 C 0.0867(4) 0.3218(3) -0.2016(3)
H1_2 H 0.0840 0.2702 -0.1370
C4_2 C 0.0835(4) 0.2897(3) -0.2788(3)
C5_2 C 0.0970(4) 0.3664(3) -0.3732(3)
H2_2 H 0.0999 0.3465 -0.4261
C6_2 C 0.1063(4) 0.4720(3) -0.3899(3)
H3_2 H 0.1165 0.5213 -0.4537
C7_2 C 0.1007(4) 0.5061(3) -0.3134(3)
C8_2 C 0.0975(4) 0.6257(3) -0.3379(3)
C9_2 C -0.0158(4) -1.1397(3) -0.1893(3)
C10_2 C 0.0089(4) -1.0266(3) -0.2234(3)
C11_2 C 0.0552(4) -1.0058(3) -0.1472(3)
H4_2 H 0.0672 -1.0608 -0.0824
C12_2 C 0.0836(5) -0.9072(3) -0.1651(3)
H5_2 H 0.1171 -0.8974 -0.1129
C13_2 C 0.0627(4) 0.1787(3) -0.2606(3)
C14_2 C 0.0160(3) 0.1596(3) -0.3367(3)
H6_2 H 0.0020 0.2158 -0.4010
C15_2 C -0.0107(4) -0.9418(3) -0.3198(3)
C16_2 C -0.0661(4) -0.9498(3) -0.4094(3)
C17_2 C 0.7682(4) 0.7182(4) -0.2663(3)
H7_2 H 0.8313 0.7434 -0.3073
C18_2 C 0.6643(4) 0.6634(4) -0.1399(3)
H8_2 H 0.6416 0.6416 -0.0750
C19_2 C 0.5904(5) 0.6682(4) -0.2174(3)
H9_2 H 0.5101 0.6522 -0.2162
C20_2 C 0.6319(5) 0.7093(4) -0.3969(3)
H10_2 H 0.7019 0.7283 -0.4378
H11_2 H 0.5535 0.7679 -0.4285
C21_2 C 0.6127(4) 0.5998(4) -0.3900(3)
C22_2 C 0.4893(5) 0.5858(4) -0.3927(3)
H12_2 H 0.4183 0.6457 -0.4045
C23_2 C 0.4690(4) 0.4842(4) -0.3782(3)
H13_2 H 0.3847 0.4766 -0.3795
C24_2 C 0.5736(4) 0.3927(4) -0.3618(3)
C25_2 C 0.6980(4) 0.4093(4) -0.3635(3)
H14_2 H 0.7691 0.3507 -0.3557
C26_2 C 0.7187(5) 0.5116(4) -0.3768(3)
H15_2 H 0.8026 0.5204 -0.3768
C27_2 C -0.6866(4) -1.1165(3) -0.2767(3)
H16_2 H -0.7039 -1.1557 -0.2117
C28_2 C -0.6925(5) -1.0457(4) -0.4343(3)
H17_2 H -0.7155 -1.0266 -0.5008
C29_2 C -0.6004(5) -1.0134(4) -0.4022(3)
H18_2 H -0.5492 -0.9685 -0.4412
C30_2 C -0.5045(4) -1.0505(4) -0.2339(3)
H19_2 H -0.4218 -1.1031 -0.2262
H20_2 H -0.5369 -1.0700 -0.1690
C31_2 C -0.4843(4) -0.9345(4) -0.2719(3)
C32_2 C -0.5811(5) -0.8490(4) -0.2702(4)
H21_2 H -0.6595 -0.8626 -0.2469
C33_2 C -0.5640(5) -0.7430(4) -0.3025(4)
H22_2 H -0.6317 -0.6862 -0.3017
C34_2 C 0.5527(4) 0.2805(3) -0.3363(3)
C35_2 C 0.6440(5) 0.1962(5) -0.3443(5)
H23_2 H 0.7197 0.2106 -0.3728
C36_2 C -0.3732(5) -0.9097(4) -0.3111(5)
H24_2 H -0.3074 -0.9656 -0.3154
C37A C 0.8011(4) 0.3790(3) -0.0549(3)
H25A H 0.8481 0.3760 -0.1073
C38A C 0.7476(4) 0.3841(3) 0.0825(3)
H26A H 0.7519 0.3859 0.1443
C39A C 0.6408(4) 0.3884(4) 0.0351(3)
H27A H 0.5587 0.3922 0.0576
C40A C 0.5852(5) 0.3824(4) -0.1265(3)
H28A H 0.5042 0.4383 -0.1381
H29A H 0.6238 0.3992 -0.1890
C41A C 0.5587(5) 0.2698(4) -0.0902(3)
C42A C 0.6559(6) 0.1781(5) -0.0825(4)
H30A H 0.7376 0.1870 -0.1012
C43A C 0.6331(5) 0.0736(5) -0.0474(5)
H31A H 0.7001 0.0135 -0.0428
C44A C 0.5120(5) 0.0560(4) -0.0187(3)
C45A C 0.4155(5) 0.1490(4) -0.0287(4)
H32A H 0.3333 0.1410 -0.0110
C46A C 0.4387(5) 0.2538(5) -0.0645(4)
H33A H 0.3713 0.3146 -0.0712
loop_
_geom_bond_atom_site_label_1
_geom_bond_atom_site_label_2
_geom_bond_site_symmetry_1
_geom_bond_site_symmetry_2
Co1 N4 1_555 1_555
Co2 N1 1_555 1_555
N1 C17 1_555 1_555
N2 C17 1_555 1_555
N3 C27 1_555 1_555
N4 C27 1_555 1_555
N5 C37 1_555 1_555
N6 Co2 1_555 1_555
O1 Co2 1_555 1_555
O2 C1 1_555 1_555
O3 Co1 1_555 1_555
O4 Co1 1_555 1_555
O5 Co1 1_555 1_555
O6 Co2 1_555 1_555
O7 Co1 1_555 1_555
O8 C16 1_555 1_555
C1 O1 1_555 1_555
C2 C1 1_555 1_555
C3 C2 1_555 1_555
H1 C3 1_555 1_555
C4 C3 1_555 1_555
C5 C4 1_555 1_555
H2 C5 1_555 1_555
C6 C5 1_555 1_555
H3 C6 1_555 1_555
C7 C2 1_555 1_555
C8 O3 1_555 1_555
C9 O5 1_555 1_555
C10 C9 1_555 1_555
C11 C10 1_555 1_555
H4 C11 1_555 1_555
C12 C11 1_555 1_555
H5 C12 1_555 1_555
C13 C4 1_555 1_555
C14 C13 1_555 1_555
H6 C14 1_555 1_555
C15 C10 1_555 1_555
C16 O7 1_555 1_555
C17 H7 1_555 1_555
C18 N1 1_555 1_555
H8 C18 1_555 1_555
C19 N2 1_555 1_555
H9 C19 1_555 1_555
C20 N2 1_555 1_555
H10 C20 1_555 1_555
H11 C20 1_555 1_555
C21 C20 1_555 1_555
C22 C21 1_555 1_555
H12 C22 1_555 1_555
C23 C22 1_555 1_555
H13 C23 1_555 1_555
C24 C23 1_555 1_555
C25 C24 1_555 1_555
H14 C25 1_555 1_555
C26 C21 1_555 1_555
H15 C26 1_555 1_555
C27 H16 1_555 1_555
C28 N4 1_555 1_555
H17 C28 1_555 1_555
C29 N3 1_555 1_555
H18 C29 1_555 1_555
C30 N3 1_555 1_555
H19 C30 1_555 1_555
H20 C30 1_555 1_555
C31 C30 1_555 1_555
C32 C31 1_555 1_555
H21 C32 1_555 1_555
C33 C32 1_555 1_555
H22 C33 1_555 1_555
C34 C24 1_555 1_555
C35 C34 1_555 1_555
H23 C35 1_555 1_555
C36 C31 1_555 1_555
H24 C36 1_555 1_555
C37 N6 1_555 1_555
H25 C37 1_555 1_555
C38 N6 1_555 1_555
H26 C38 1_555 1_555
C39 N5 1_555 1_555
H27 C39 1_555 1_555
C40 N5 1_555 1_555
H28 C40 1_555 1_555
H29 C40 1_555 1_555
C41 C40 1_555 1_555
C42 C41 1_555 1_555
H30 C42 1_555 1_555
C43 C42 1_555 1_555
H31 C43 1_555 1_555
C44 C43 1_555 1_555
C45 C44 1_555 1_555
H32 C45 1_555 1_555
C46 C41 1_555 1_555
H33 C46 1_555 1_555
Co1A O8 1_555 1_555
Co1_2 O3_2 1_555 1_555
Co1_3 N4_2 1_555 1_555
Co1A_2 O8_2 1_555 1_555
Co1_4 O5_4 1_555 1_555
Co2_2 N1_2 1_555 1_555
Co2A O2_2 1_555 1_555
Co2_3 O1_3 1_555 1_555
Co2A_2 N6A 1_555 1_555
Co2A_3 O2 1_555 1_555
Co2_4 O5_4 1_555 1_555
N1_2 C17_2 1_555 1_555
N2_2 C17_2 1_555 1_555
N3_2 C27_2 1_555 1_555
N4_2 C27_2 1_555 1_555
N5A C37A 1_555 1_555
N6_2 Co2_2 1_555 1_555
N6A C37A 1_555 1_555
O1_2 Co2_2 1_555 1_555
O1_3 C1_2 1_555 1_555
O2A Co2 1_555 1_555
O2A_2 Co2_2 1_555 1_555
O2_2 C1_2 1_555 1_555
O3_2 C8_2 1_555 1_555
O3_3 Co1_3 1_555 1_555
O4_2 Co1_2 1_555 1_555
O4_3 Co1_3 1_555 1_555
O5_2 Co2_2 1_555 1_555
O5_3 Co1_3 1_555 1_555
O5_4 C9_2 1_555 1_555
O6_2 Co2_2 1_555 1_555
O6_3 Co2_4 1_555 1_555
O7_2 Co1_3 1_555 1_555
O7_3 Co1_4 1_555 1_555
O8A Co1 1_555 1_555
O8A_2 Co1_3 1_555 1_555
O8_2 C16_2 1_555 1_555
C1_2 C2_2 1_555 1_555
C2_2 C3_2 1_555 1_555
C3_2 H1_2 1_555 1_555
C4_2 C3_2 1_555 1_555
C5_2 C4_2 1_555 1_555
H2_2 C5_2 1_555 1_555
C6_2 C5_2 1_555 1_555
H3_2 C6_2 1_555 1_555
C7_2 C2_2 1_555 1_555
C8_2 O4_2 1_555 1_555
C9_2 O6_3 1_555 1_555
C10_2 C9_2 1_555 1_555
C11_2 C10_2 1_555 1_555
H4_2 C11_2 1_555 1_555
C12_2 C13 1_555 1_555
H5_2 C12_2 1_555 1_555
C13_2 C12 1_555 1_555
C14_2 C15 1_555 1_555
H6_2 C14_2 1_555 1_555
C15_2 C14 1_555 1_555
C16_2 O7_3 1_555 1_555
C17_2 H7_2 1_555 1_555
C18_2 N1_2 1_555 1_555
H8_2 C18_2 1_555 1_555
C19_2 N2_2 1_555 1_555
H9_2 C19_2 1_555 1_555
C20_2 N2_2 1_555 1_555
H10_2 C20_2 1_555 1_555
H11_2 C20_2 1_555 1_555
C21_2 C20_2 1_555 1_555
C22_2 C21_2 1_555 1_555
H12_2 C22_2 1_555 1_555
C23_2 C22_2 1_555 1_555
H13_2 C23_2 1_555 1_555
C24_2 C23_2 1_555 1_555
C25_2 C24_2 1_555 1_555
H14_2 C25_2 1_555 1_555
C26_2 C21_2 1_555 1_555
H15_2 C26_2 1_555 1_555
C27_2 H16_2 1_555 1_555
C28_2 N4_2 1_555 1_555
H17_2 C28_2 1_555 1_555
C29_2 N3_2 1_555 1_555
H18_2 C29_2 1_555 1_555
C30_2 N3_2 1_555 1_555
H19_2 C30_2 1_555 1_555
H20_2 C30_2 1_555 1_555
C31_2 C30_2 1_555 1_555
C32_2 C31_2 1_555 1_555
H21_2 C32_2 1_555 1_555
C33_2 C34 1_555 1_555
H22_2 C33_2 1_555 1_555
C34_2 C33 1_555 1_555
C35_2 C36 1_555 1_555
H23_2 C35_2 1_555 1_555
C36_2 C35 1_555 1_555
H24_2 C36_2 1_555 1_555
C37A H25A 1_555 1_555
C38A N6A 1_555 1_555
H26A C38A 1_555 1_555
C39A N5A 1_555 1_555
H27A C39A 1_555 1_555
C40A N5A 1_555 1_555
H28A C40A 1_555 1_555
H29A C40A 1_555 1_555
C41A C40A 1_555 1_555
C42A C41A 1_555 1_555
H30A C42A 1_555 1_555
C43A C42A 1_555 1_555
H31A C43A 1_555 1_555
C44A C44 1_555 1_555
C45A C44A 1_555 1_555
H32A C45A 1_555 1_555
C46A C41A 1_555 1_555
H33A C46A 1_555 1_555
Co2 O5 1_555 1_555
O4 C8 1_555 1_555
O6 C9 1_555 1_555
C6 C7 1_555 1_555
C7 C8 1_555 1_555
C15 C16 1_555 1_555
C18 C19 1_555 1_555
C25 C26 1_555 1_555
C28 C29 1_555 1_555
C38 C39 1_555 1_555
C45 C46 1_555 1_555
C4_2 C13_2 1_555 1_555
C6_2 C7_2 1_555 1_555
C7_2 C8_2 1_555 1_555
C10_2 C15_2 1_555 1_555
C11_2 C12_2 1_555 1_555
C13_2 C14_2 1_555 1_555
C15_2 C16_2 1_555 1_555
C18_2 C19_2 1_555 1_555
C24_2 C34_2 1_555 1_555
C25_2 C26_2 1_555 1_555
C28_2 C29_2 1_555 1_555
C31_2 C36_2 1_555 1_555
C32_2 C33_2 1_555 1_555
C34_2 C35_2 1_555 1_555
C38A C39A 1_555 1_555
C43A C44A 1_555 1_555
C45A C46A 1_555 1_555

#END
