
#######################################################################
#
#                 Cambridge Crystallographic Data Centre
#                                CCDC 
#
#######################################################################
#
# If this CIF has been generated from an entry in the Cambridge 
# Structural Database, then it will include bibliographic, chemical, 
# crystal, experimental, refinement or atomic coordinate data resulting 
# from the CCDC's data processing and validation procedures.
#
#######################################################################

data_MOQZUP
_symmetry_cell_setting           orthorhombic
_symmetry_space_group_name_H-M   'P n a 21'
_symmetry_Int_Tables_number      33
_space_group_name_Hall           'P 2c -2n'
loop_
_symmetry_equiv_pos_site_id
_symmetry_equiv_pos_as_xyz
1 x,y,z
2 -x,-y,1/2+z
3 1/2+x,1/2-y,z
4 1/2-x,1/2+y,1/2+z
_cell_length_a                   22.3014(4)
_cell_length_b                   16.89100(10)
_cell_length_c                   6.07420(10)
_cell_angle_alpha                90
_cell_angle_beta                 90
_cell_angle_gamma                90
_cell_volume                     2288.11
loop_
_atom_site_label
_atom_site_type_symbol
_atom_site_fract_x
_atom_site_fract_y
_atom_site_fract_z
O1 O 0.7231(2) 0.6029(3) 0.8936(9)
C1 C 0.7351(3) 0.5490(4) 0.7486(17)
Zn1 Zn 0.81869(3) 0.19387(4) 0.25488(18)
F1 F 1.0313(3) 0.2417(3) -0.3781(10)
F2 F 1.0306(3) 0.4907(3) -0.0456(13)
O2 O 1.1124(2) 0.1504(3) 0.1948(8)
H1 H 1.1111 0.1026 0.2185
O3 O 0.8138(2) 0.2926(3) 0.4162(10)
O4 O 0.8795(3) 0.2449(3) 0.6478(11)
O5 O 0.7100(3) 0.5438(3) 0.5762(11)
N1 N 0.9877(3) 0.1187(3) 0.0663(11)
N2 N 0.9028(3) 0.1580(4) 0.1979(12)
N3 N 0.9857(3) 0.0879(4) 0.2725(15)
N4 N 1.1982(3) 0.2706(4) -0.2738(13)
N5 N 1.1914(2) 0.2063(4) -0.1451(10)
N6 N 1.2622(3) 0.2726(4) 0.0118(10)
C2 C 1.0303(4) 0.3665(5) -0.213(2)
H2 H 1.0120 0.3872 -0.3377
C3 C 1.0442(5) 0.4130(5) -0.036(2)
C4 C 1.0726(5) 0.3827(6) 0.143(2)
H3 H 1.0831 0.4155 0.2603
C5 C 1.0859(4) 0.3026(5) 0.1510(15)
H4 H 1.1044 0.2822 0.2759
C6 C 1.0725(3) 0.2522(4) -0.0212(13)
C7 C 1.0448(3) 0.2868(4) -0.1970(12)
C8 C 1.0908(3) 0.1662(4) -0.0220(14)
C9 C 1.1420(3) 0.1525(4) -0.1859(11)
H5 H 1.1560 0.0983 -0.1736
H6 H 1.1272 0.1603 -0.3346
C10 C 1.0400(3) 0.1087(4) -0.0762(15)
H7 H 1.0279 0.1165 -0.2281
H8 H 1.0547 0.0549 -0.0620
C11 C 0.9384(3) 0.1603(4) 0.0254(13)
H9 H 0.9302 0.1869 -0.1053
C12 C 0.9334(4) 0.1130(5) 0.3439(14)
H10 H 0.9187 0.1008 0.4831
C13 C 0.8460(4) 0.2966(4) 0.5875(14)
C14 C 0.8698(3) 0.3798(5) 0.9208(14)
H11 H 0.8988 0.3425 0.9578
C15 C 0.8385(3) 0.3706(4) 0.7316(14)
C16 C 0.7944(3) 0.4274(4) 0.6763(12)
H12 H 0.7729 0.4221 0.5460
C17 C 0.7831(3) 0.4910(4) 0.8151(12)
C18 C 0.8154(3) 0.4978(5) 1.0001(15)
H13 H 0.8081 0.5407 1.0923
C19 C 0.8598(4) 0.4430(4) 1.0607(15)
H14 H 0.8816 0.4490 1.1900
C20 C 1.2291(3) 0.2082(4) 0.0203(14)
H15 H 1.2321 0.1695 0.1286
C21 C 1.2414(4) 0.3092(5) -0.1680(13)
H16 H 1.2560 0.3579 -0.2152
O1C O 0.7769(2) 0.1029(3) 0.3936(9)
Zn1B Zn 1.31869(3) 0.30613(4) 0.25488(18)
Zn1C Zn 0.68131(3) 0.69387(4) 0.75488(18)
N6B N 0.7622(3) 0.2274(4) 0.0118(10)
O6 O 0.8538(4) 0.0086(4) 0.7124(16)
H17 H 0.8347 0.0338 0.6139
H18 H 0.8368 0.0168 0.8354
loop_
_geom_bond_atom_site_label_1
_geom_bond_atom_site_label_2
_geom_bond_site_symmetry_1
_geom_bond_site_symmetry_2
O1 C1 1_555 1_555
C1 O5 1_555 1_555
Zn1 O3 1_555 1_555
F1 C7 1_555 1_555
F2 C3 1_555 1_555
O2 H1 1_555 1_555
O3 C13 1_555 1_555
O4 C13 1_555 1_555
N1 N3 1_555 1_555
N2 Zn1 1_555 1_555
N3 C12 1_555 1_555
N4 N5 1_555 1_555
N5 C9 1_555 1_555
N6 C20 1_555 1_555
C2 H2 1_555 1_555
C3 C2 1_555 1_555
C4 C3 1_555 1_555
H3 C4 1_555 1_555
C5 C4 1_555 1_555
H4 C5 1_555 1_555
C6 C5 1_555 1_555
C7 C2 1_555 1_555
C8 O2 1_555 1_555
C9 C8 1_555 1_555
H5 C9 1_555 1_555
H6 C9 1_555 1_555
C10 N1 1_555 1_555
H7 C10 1_555 1_555
H8 C10 1_555 1_555
C11 N1 1_555 1_555
H9 C11 1_555 1_555
C12 N2 1_555 1_555
H10 C12 1_555 1_555
C13 C15 1_555 1_555
C14 H11 1_555 1_555
C15 C14 1_555 1_555
C16 C15 1_555 1_555
H12 C16 1_555 1_555
C17 C1 1_555 1_555
C18 C17 1_555 1_555
H13 C18 1_555 1_555
C19 C14 1_555 1_555
H14 C19 1_555 1_555
C20 N5 1_555 1_555
H15 C20 1_555 1_555
C21 N4 1_555 1_555
H16 C21 1_555 1_555
O6 H17 1_555 1_555
H18 O6 1_555 1_555
O1C Zn1 1_555 1_555
Zn1B N6 1_555 1_555
Zn1C O1 1_555 1_555
N6B Zn1 1_555 1_555
N2 C11 1_555 1_555
N6 C21 1_555 1_555
C6 C7 1_555 1_555
C6 C8 1_555 1_555
C8 C10 1_555 1_555
C16 C17 1_555 1_555
C18 C19 1_555 1_555

#END
