
#######################################################################
#
#                 Cambridge Crystallographic Data Centre
#                                CCDC 
#
#######################################################################
#
# If this CIF has been generated from an entry in the Cambridge 
# Structural Database, then it will include bibliographic, chemical, 
# crystal, experimental, refinement or atomic coordinate data resulting 
# from the CCDC's data processing and validation procedures.
#
#######################################################################

data_MORBAY
_symmetry_cell_setting           triclinic
_symmetry_space_group_name_H-M   'P -1'
_symmetry_Int_Tables_number      2
_space_group_name_Hall           '-P 1'
loop_
_symmetry_equiv_pos_site_id
_symmetry_equiv_pos_as_xyz
1 x,y,z
2 -x,-y,-z
_cell_length_a                   10.81800(10)
_cell_length_b                   13.7438(5)
_cell_length_c                   14.0469(2)
_cell_angle_alpha                76.765(3)
_cell_angle_beta                 69.394(6)
_cell_angle_gamma                77.952(4)
_cell_volume                     1884.04
loop_
_atom_site_label
_atom_site_type_symbol
_atom_site_fract_x
_atom_site_fract_y
_atom_site_fract_z
Mn1 Mn 0.14052(5) 0.37500(4) 0.42338(4)
F1 F 0.5819(3) 0.0717(2) -0.0016(2)
F2 F 0.7599(3) -0.02128(16) 0.27017(19)
F3 F 0.2100(3) 0.9735(2) 0.2945(2)
F4 F 0.6221(2) 0.78903(18) 0.29962(19)
N1 N 1.0061(3) 0.2712(2) 0.4212(2)
N2 N 0.9158(3) 0.1832(2) 0.3602(2)
N3 N 0.9032(4) 0.1352(3) 0.4583(3)
N4 N 0.4928(3) 0.1535(2) 0.4354(2)
N5 N 0.4288(3) 0.0920(2) 0.4106(3)
N6 N 0.2916(3) 0.2317(2) 0.4582(2)
N7 N 0.2915(3) 0.4728(2) 0.4157(2)
N8 N 0.3911(3) 0.5877(2) 0.4419(2)
N9 N 0.4773(3) 0.5364(2) 0.3659(2)
N10 N 0.7527(3) 0.7200(2) 0.0385(2)
N11 N 0.7216(3) 0.8219(2) 0.0245(3)
N12 N 0.7760(4) 0.7654(3) -0.1253(3)
O1 O 0.6885(2) 0.28621(16) 0.30811(18)
H1 H 0.7375 0.3145 0.2543
O2 O 0.2626(3) 0.3477(2) 0.26363(19)
H2 H 0.2464 0.3097 0.2308
H3 H 0.3030 0.3941 0.2199
O3 O 0.5618(2) 0.58110(19) 0.14522(19)
H4 H 0.6245 0.5393 0.1207
O4 O 0.0416(3) 0.3624(2) 0.58277(19)
O5 O -0.0276(3) 0.5032(2) 0.64826(19)
O6 O -0.2516(3) 0.4600(2) 1.0345(2)
O7 O -0.1345(3) 0.3503(2) 1.12333(19)
C1 C 0.6129(4) 0.0981(3) 0.0734(3)
C2 C 0.6738(4) 0.0239(3) 0.1324(3)
H5 H 0.6939 -0.0428 0.1219
C3 C 0.7038(4) 0.0535(3) 0.2082(3)
C4 C 0.6792(3) 0.1513(2) 0.2263(3)
C5 C 0.6152(4) 0.2221(3) 0.1644(3)
H6 H 0.5940 0.2887 0.1752
C6 C 0.5822(4) 0.1972(3) 0.0879(3)
H7 H 0.5403 0.2459 0.0470
C7 C 0.7160(3) 0.1811(2) 0.3105(3)
C8 C 0.8661(3) 0.1463(3) 0.2932(3)
H8 H 0.8823 0.0731 0.3051
H9 H 0.9154 0.1698 0.2219
C9 C 0.9761(3) 0.2632(3) 0.3401(3)
H10 H 0.9948 0.3077 0.2777
C10 C 0.9585(4) 0.1917(3) 0.4904(3)
H11 H 0.9645 0.1778 0.5567
C11 C 0.6373(3) 0.1325(3) 0.4189(3)
H12 H 0.6651 0.0601 0.4280
H13 H 0.6567 0.1586 0.4700
C12 C 0.3103(4) 0.1423(3) 0.4259(3)
H14 H 0.2422 0.1188 0.4155
C13 C 0.4084(3) 0.2349(3) 0.4634(3)
H15 H 0.4298 0.2872 0.4839
C14 C 0.4149(3) 0.4700(3) 0.3516(3)
H16 H 0.4531 0.4273 0.3030
C15 C 0.2838(4) 0.5455(3) 0.4688(3)
H17 H 0.2069 0.5641 0.5212
C16 C 0.6087(3) 0.5655(3) 0.3041(3)
H18 H 0.6727 0.5056 0.2890
H19 H 0.6386 0.6008 0.3426
C17 C 0.6006(3) 0.6350(2) 0.2018(3)
C18 C 0.4964(3) 0.7274(3) 0.2245(2)
C19 C 0.3793(4) 0.7406(3) 0.2023(3)
H20 H 0.3644 0.6935 0.1708
C20 C 0.2825(4) 0.8239(4) 0.2265(4)
H21 H 0.2036 0.8324 0.2111
C21 C 0.3042(5) 0.8916(3) 0.2723(3)
C22 C 0.4174(5) 0.8823(3) 0.2964(3)
H22 H 0.4315 0.9300 0.3276
C23 C 0.5099(4) 0.7995(3) 0.2729(3)
C24 C 0.7430(3) 0.6605(3) 0.1397(3)
H23 H 0.7701 0.6974 0.1784
H24 H 0.8042 0.5982 0.1318
C25 C 0.7362(5) 0.8446(3) -0.0744(3)
H25 H 0.7203 0.9107 -0.1072
C26 C 0.7856(4) 0.6894(3) -0.0510(3)
H26 H 0.8123 0.6224 -0.0601
C27 C 0.0011(3) 0.4096(3) 0.6558(3)
C28 C -0.0157(3) 0.3471(3) 0.7625(2)
C29 C 0.0288(3) 0.2444(3) 0.7750(3)
H27 H 0.0692 0.2128 0.7175
C30 C 0.0134(4) 0.1884(3) 0.8729(3)
H28 H 0.0447 0.1196 0.8805
C31 C -0.0483(4) 0.2341(3) 0.9596(3)
H29 H -0.0592 0.1958 1.0251
C32 C -0.0934(3) 0.3365(3) 0.9485(3)
C33 C -0.0775(3) 0.3930(3) 0.8503(3)
H30 H -0.1082 0.4618 0.8428
C34 C -0.1643(4) 0.3855(3) 1.0440(3)
Mn1_2 Mn 1.14052(5) 0.37500(4) 0.42338(4)
Mn1A Mn -0.14052(5) 0.62500(4) 0.57662(4)
N1_2 N 0.0061(3) 0.2712(2) 0.4212(2)
O5A O 0.0276(3) 0.4968(2) 0.35174(19)
O8 O 0.6139(3) 0.5202(3) 0.8921(2)
H31 H 0.5635 0.4817 0.8895
H32 H 0.6485 0.4923 0.9392
loop_
_geom_bond_atom_site_label_1
_geom_bond_atom_site_label_2
_geom_bond_site_symmetry_1
_geom_bond_site_symmetry_2
Mn1 N6 1_555 1_555
F1 C1 1_555 1_555
F2 C3 1_555 1_555
F3 C21 1_555 1_555
F4 C23 1_555 1_555
N1 C9 1_555 1_555
N2 N3 1_555 1_555
N3 C10 1_555 1_555
N4 N5 1_555 1_555
N5 C12 1_555 1_555
N6 C12 1_555 1_555
N7 Mn1 1_555 1_555
N8 N9 1_555 1_555
N9 C14 1_555 1_555
N10 N11 1_555 1_555
N11 C25 1_555 1_555
N12 C25 1_555 1_555
O1 H1 1_555 1_555
O2 Mn1 1_555 1_555
H2 O2 1_555 1_555
H3 O2 1_555 1_555
O3 H4 1_555 1_555
O4 Mn1 1_555 1_555
O5 C27 1_555 1_555
O6 C34 1_555 1_555
O7 C34 1_555 1_555
C1 C2 1_555 1_555
C2 H5 1_555 1_555
C3 C2 1_555 1_555
C4 C3 1_555 1_555
C5 C4 1_555 1_555
H6 C5 1_555 1_555
C6 C1 1_555 1_555
H7 C6 1_555 1_555
C7 O1 1_555 1_555
C8 N2 1_555 1_555
H8 C8 1_555 1_555
H9 C8 1_555 1_555
C9 N2 1_555 1_555
H10 C9 1_555 1_555
C10 N1 1_555 1_555
H11 C10 1_555 1_555
C11 N4 1_555 1_555
H12 C11 1_555 1_555
H13 C11 1_555 1_555
C12 H14 1_555 1_555
C13 N4 1_555 1_555
H15 C13 1_555 1_555
C14 N7 1_555 1_555
H16 C14 1_555 1_555
C15 N7 1_555 1_555
H17 C15 1_555 1_555
C16 N9 1_555 1_555
H18 C16 1_555 1_555
H19 C16 1_555 1_555
C17 O3 1_555 1_555
C18 C17 1_555 1_555
C19 C18 1_555 1_555
H20 C19 1_555 1_555
C20 C19 1_555 1_555
H21 C20 1_555 1_555
C21 C20 1_555 1_555
C22 C21 1_555 1_555
H22 C22 1_555 1_555
C23 C18 1_555 1_555
C24 N10 1_555 1_555
H23 C24 1_555 1_555
H24 C24 1_555 1_555
C25 H25 1_555 1_555
C26 N10 1_555 1_555
H26 C26 1_555 1_555
C27 O4 1_555 1_555
C28 C27 1_555 1_555
C29 C28 1_555 1_555
H27 C29 1_555 1_555
C30 C29 1_555 1_555
H28 C30 1_555 1_555
C31 C30 1_555 1_555
H29 C31 1_555 1_555
C32 C31 1_555 1_555
C33 C28 1_555 1_555
H30 C33 1_555 1_555
C34 C32 1_555 1_555
O8 H31 1_555 1_555
H32 O8 1_555 1_555
Mn1_2 N1 1_555 1_555
Mn1A O5 1_555 1_555
N1_2 Mn1 1_555 1_555
O5A Mn1 1_555 1_555
N6 C13 1_555 1_555
N8 C15 1_555 1_555
N12 C26 1_555 1_555
C4 C7 1_555 1_555
C5 C6 1_555 1_555
C7 C8 1_555 1_555
C7 C11 1_555 1_555
C16 C17 1_555 1_555
C17 C24 1_555 1_555
C22 C23 1_555 1_555
C32 C33 1_555 1_555

#END
