
#######################################################################
#
#                 Cambridge Crystallographic Data Centre
#                                CCDC 
#
#######################################################################
#
# If this CIF has been generated from an entry in the Cambridge 
# Structural Database, then it will include bibliographic, chemical, 
# crystal, experimental, refinement or atomic coordinate data resulting 
# from the CCDC's data processing and validation procedures.
#
#######################################################################

data_MORCOM
_symmetry_cell_setting           monoclinic
_symmetry_space_group_name_H-M   'P 21/c'
_symmetry_Int_Tables_number      14
_space_group_name_Hall           '-P 2ybc'
loop_
_symmetry_equiv_pos_site_id
_symmetry_equiv_pos_as_xyz
1 x,y,z
2 -x,1/2+y,1/2-z
3 -x,-y,-z
4 x,1/2-y,1/2+z
_cell_length_a                   9.044(3)
_cell_length_b                   13.615(4)
_cell_length_c                   10.092(4)
_cell_angle_alpha                90
_cell_angle_beta                 100.97(3)
_cell_angle_gamma                90
_cell_volume                     1219.96
loop_
_atom_site_label
_atom_site_type_symbol
_atom_site_fract_x
_atom_site_fract_y
_atom_site_fract_z
Cd1 Cd 1.0000 0.0000 1.0000
O1 O 0.98673(18) 0.04524(13) 1.21426(15)
O3 O 0.8634(2) -0.08178(13) 1.28335(16)
O4 O 1.19895(19) 0.10747(12) 0.98477(17)
H3 H 1.191(3) 0.1092(17) 0.9018(16)
H4 H 1.216(3) 0.1659(13) 1.015(2)
N1 N 0.8174(2) 0.11669(14) 0.91732(19)
N2 N 0.4830(2) 0.40751(13) 0.92645(19)
C1 C 0.8449(3) 0.19060(17) 0.8382(2)
H5 H 0.9366 0.1916 0.8092
C2 C 0.7435(3) 0.26548(17) 0.7974(2)
H6 H 0.7671 0.3152 0.7418
C3 C 0.6064(3) 0.26633(16) 0.8397(2)
C4 C 0.5763(3) 0.18757(17) 0.9189(2)
H7 H 0.4844 0.1836 0.9471
C5 C 0.6834(3) 0.11597(17) 0.9550(2)
H8 H 0.6616 0.0643 1.0084
C6 C 0.4970(3) 0.35053(17) 0.8052(2)
H9 H 0.5314 0.3934 0.7405
H10 H 0.3990 0.3250 0.7637
C7 C 0.6311(2) 0.44526(16) 0.9954(2)
H11 H 0.6753 0.4845 0.9328
H12 H 0.6981 0.3905 1.0246
C8 C 0.3850(3) 0.49284(16) 0.8838(2)
H13 H 0.2865 0.4703 0.8386
H14 H 0.4277 0.5322 0.8204
C9 C 0.9446(2) -0.00643(18) 1.3043(2)
C10 C 1.0001(3) 0.02766(17) 1.4465(2)
H15 H 1.0367 0.0915 1.4599
Cd1_2 Cd 0.0000 1.0000 1.0000
Cd1_3 Cd 1.0000 0.0000 2.0000
O1B O 1.01327(18) -0.04524(13) 1.78574(15)
O1B_2 O 1.01327(18) -0.04524(13) 0.78574(15)
O3B O 1.1366(2) 0.08178(13) 1.71665(16)
O4B O 0.80105(19) -0.10747(12) 1.01523(17)
H3B H 0.809(3) -0.1092(17) 1.0982(16)
H4B H 0.784(3) -0.1659(13) 0.985(2)
N1B N 0.1826(2) 0.88331(14) 1.08268(19)
N1B_2 N 1.1826(2) -0.11669(14) 1.08268(19)
N2B N 0.5170(2) 0.59249(13) 1.07355(19)
C1B C 0.1551(3) 0.80940(17) 1.1618(2)
H5B H 0.0634 0.8084 1.1908
C2B C 0.2565(3) 0.73452(17) 1.2026(2)
H6B H 0.2329 0.6848 1.2582
C3B C 0.3936(3) 0.73367(16) 1.1603(2)
C4B C 0.4237(3) 0.81243(17) 1.0811(2)
H7B H 0.5156 0.8164 1.0529
C5B C 0.3166(3) 0.88403(17) 1.0450(2)
H8B H 0.3384 0.9357 0.9916
C6B C 0.5030(3) 0.64947(17) 1.1948(2)
H9B H 0.4686 0.6066 1.2595
H10B H 0.6010 0.6750 1.2363
C7B C 0.3689(2) 0.55474(16) 1.0046(2)
H11B H 0.3247 0.5155 1.0672
H12B H 0.3019 0.6095 0.9754
C8B C 0.6150(3) 0.50716(16) 1.1162(2)
H13B H 0.7135 0.5297 1.1614
H14B H 0.5723 0.4678 1.1796
C9B C 1.0554(2) 0.00643(18) 1.6957(2)
C10B C 0.9999(3) -0.02766(17) 1.5535(2)
H15B H 0.9633 -0.0915 1.5401
O2 O 0.2885(2) 0.29328(12) 0.06860(19)
H1 H 0.352(3) 0.3299(17) 0.038(3)
H2 H 0.242(3) 0.3316(17) 0.111(2)
loop_
_geom_bond_atom_site_label_1
_geom_bond_atom_site_label_2
_geom_bond_site_symmetry_1
_geom_bond_site_symmetry_2
Cd1 O1 1_555 1_555
O1 C9 1_555 1_555
O2 H1 1_555 1_555
H2 O2 1_555 1_555
O3 C9 1_555 1_555
O4 Cd1 1_555 1_555
H3 O4 1_555 1_555
H4 O4 1_555 1_555
N1 Cd1 1_555 1_555
N2 C6 1_555 1_555
C1 N1 1_555 1_555
H5 C1 1_555 1_555
C2 C1 1_555 1_555
H6 C2 1_555 1_555
C3 C2 1_555 1_555
C4 C3 1_555 1_555
H7 C4 1_555 1_555
C5 N1 1_555 1_555
H8 C5 1_555 1_555
C6 C3 1_555 1_555
H9 C6 1_555 1_555
H10 C6 1_555 1_555
C7 N2 1_555 1_555
H11 C7 1_555 1_555
H12 C7 1_555 1_555
C8 N2 1_555 1_555
H13 C8 1_555 1_555
H14 C8 1_555 1_555
C9 C10 1_555 1_555
C10 H15 1_555 1_555
Cd1_2 N1B 1_555 1_555
Cd1_3 O1B 1_555 1_555
O1B C9B 1_555 1_555
O1B_2 Cd1 1_555 1_555
O3B C9B 1_555 1_555
O4B Cd1 1_555 1_555
H3B O4B 1_555 1_555
H4B O4B 1_555 1_555
N1B C1B 1_555 1_555
N1B_2 Cd1 1_555 1_555
N2B C6B 1_555 1_555
C1B H5B 1_555 1_555
C2B C1B 1_555 1_555
H6B C2B 1_555 1_555
C3B C2B 1_555 1_555
C4B C3B 1_555 1_555
H7B C4B 1_555 1_555
C5B N1B 1_555 1_555
H8B C5B 1_555 1_555
C6B C3B 1_555 1_555
H9B C6B 1_555 1_555
H10B C6B 1_555 1_555
C7B C8 1_555 1_555
H11B C7B 1_555 1_555
H12B C7B 1_555 1_555
C8B C7 1_555 1_555
H13B C8B 1_555 1_555
H14B C8B 1_555 1_555
C9B C10B 1_555 1_555
C10B C10 1_555 1_555
H15B C10B 1_555 1_555
C4 C5 1_555 1_555
N2B C7B 1_555 1_555
N2B C8B 1_555 1_555
C4B C5B 1_555 1_555

#END
