
#######################################################################
#
#                 Cambridge Crystallographic Data Centre
#                                CCDC 
#
#######################################################################
#
# If this CIF has been generated from an entry in the Cambridge 
# Structural Database, then it will include bibliographic, chemical, 
# crystal, experimental, refinement or atomic coordinate data resulting 
# from the CCDC's data processing and validation procedures.
#
#######################################################################

data_MORDAA
_symmetry_cell_setting           tetragonal
_symmetry_space_group_name_H-M   'I 41/a'
_symmetry_Int_Tables_number      88
_space_group_name_Hall           '-I 4ad'
loop_
_symmetry_equiv_pos_site_id
_symmetry_equiv_pos_as_xyz
1 x,y,z
2 3/4-y,1/4+x,1/4+z
3 1/2-x,-y,1/2+z
4 3/4+y,3/4-x,3/4+z
5 1/2+x,1/2+y,1/2+z
6 1/4-y,3/4+x,3/4+z
7 -x,1/2-y,z
8 1/4+y,1/4-x,1/4+z
9 -x,-y,-z
10 1/4+y,3/4-x,3/4-z
11 1/2+x,y,1/2-z
12 1/4-y,1/4+x,1/4-z
13 1/2-x,1/2-y,1/2-z
14 3/4+y,1/4-x,1/4-z
15 x,1/2+y,-z
16 3/4-y,3/4+x,3/4-z
_cell_length_a                   22.927(5)
_cell_length_b                   22.927(5)
_cell_length_c                   15.430(3)
_cell_angle_alpha                90
_cell_angle_beta                 90
_cell_angle_gamma                90
_cell_volume                     8110.74
loop_
_atom_site_label
_atom_site_type_symbol
_atom_site_fract_x
_atom_site_fract_y
_atom_site_fract_z
W1 W 0.10522(3) 0.21516(3) 0.28338(5)
W2 W 0.02428(3) 0.35798(3) 0.28388(5)
W3 W 0.07619(4) 0.11597(3) 0.13247(5)
V1 V 0.0000 0.2500 0.3856(4)
V2 V 0.0000 0.2500 0.1250
O1 O 0.0235(4) 0.0888(5) 0.2223(7)
O2 O 0.1249(4) 0.1457(5) 0.2254(7)
O3 O 0.0501(5) 0.4051(5) 0.3597(8)
O4 O -0.0422(5) 0.3257(5) 0.3468(7)
O5 O 0.1110(5) 0.1669(5) 0.0522(7)
O6 O 0.0618(4) 0.2843(4) 0.3187(7)
O7 O 0.1387(5) 0.2621(5) 0.1969(7)
O8 O 0.1118(5) 0.0534(5) 0.1131(8)
O9 O 0.0276(4) 0.2002(4) 0.1845(7)
O10 O 0.1575(5) 0.2138(5) 0.3603(8)
O11 O 0.0000 0.2500 0.4879(10)
Ni1 Ni 0.0000 0.2500 0.6250
N1 N 0.1751(6) 0.1986(6) 0.5836(10)
N2 N 0.0887(7) 0.2364(7) 0.6250(10)
C1 C 0.2587(8) 0.0703(9) 0.6047(14)
H1 H 0.2952 0.0880 0.6031
C2 C 0.1822(8) 0.2166(8) 0.6688(14)
H2 H 0.2152 0.2129 0.7036
C3 C 0.1186(8) 0.2101(8) 0.5599(13)
H3 H 0.1027 0.2011 0.5061
C4 C 0.2162(7) 0.1606(8) 0.5343(12)
H4 H 0.2558 0.1746 0.5408
H5 H 0.2063 0.1609 0.4731
C5 C 0.2525(8) 0.0154(8) 0.6409(12)
H6 H 0.2849 -0.0038 0.6632
C6 C 0.1983(8) -0.0113(8) 0.6442(12)
C7 C 0.1569(9) 0.0710(9) 0.5685(13)
H7 H 0.1256 0.0892 0.5411
C8 C 0.1294(9) 0.2413(8) 0.6904(12)
H8 H 0.1219 0.2593 0.7433
C9 C 0.2107(8) 0.0986(8) 0.5709(12)
C10 C 0.1492(8) 0.0166(8) 0.6064(14)
H9 H 0.1127 -0.0011 0.6070
C11 C 0.1896(9) -0.0672(9) 0.6898(13)
H10 H 0.2113 -0.0659 0.7437
H11 H 0.1487 -0.0707 0.7045
C12 C 0.2625(8) -0.1918(7) 0.6129(13)
H12 H 0.2912 -0.2204 0.6162
C13 C 0.2513(7) -0.1504(7) 0.6735(11)
H13 H 0.2711 -0.1456 0.7257
N3 N 0.2063(5) -0.1173(5) 0.6447(9)
C14 C 0.1896(8) -0.1382(7) 0.5663(9)
H14 H 0.1596 -0.1235 0.5320
N4 N 0.2243(10) -0.1843(7) 0.5466(10)
W1F W -0.10522(3) 0.28484(3) 0.28338(5)
W2F W -0.02428(3) 0.14202(3) 0.28388(5)
W3F W -0.07619(4) 0.38403(3) 0.13247(5)
O1F O -0.0235(4) 0.4112(5) 0.2223(7)
O2F O -0.1249(4) 0.3543(5) 0.2254(7)
O3F O -0.0501(5) 0.0949(5) 0.3597(8)
O4F O 0.0422(5) 0.1743(5) 0.3468(7)
O5F O -0.1110(5) 0.3331(5) 0.0522(7)
O6F O -0.0618(4) 0.2157(4) 0.3187(7)
O7F O -0.1387(5) 0.2379(5) 0.1969(7)
O8F O -0.1118(5) 0.4466(5) 0.1131(8)
O9F O -0.0276(4) 0.2998(4) 0.1845(7)
O10F O -0.1575(5) 0.2862(5) 0.3603(8)
N1F N -0.1751(6) 0.3014(6) 0.5836(10)
N2F N -0.0887(7) 0.2636(7) 0.6250(10)
C1F C -0.2587(8) 0.4297(9) 0.6047(14)
H1F H -0.2952 0.4120 0.6031
C2F C -0.1822(8) 0.2834(8) 0.6688(14)
H2F H -0.2152 0.2871 0.7036
C3F C -0.1186(8) 0.2899(8) 0.5599(13)
H3F H -0.1027 0.2989 0.5061
C4F C -0.2162(7) 0.3394(8) 0.5343(12)
H4F H -0.2558 0.3254 0.5408
H5F H -0.2063 0.3391 0.4731
C5F C -0.2525(8) 0.4846(8) 0.6409(12)
H6F H -0.2849 0.5038 0.6632
C6F C -0.1983(8) 0.5113(8) 0.6442(12)
C7F C -0.1569(9) 0.4290(9) 0.5685(13)
H7F H -0.1256 0.4108 0.5411
C8F C -0.1294(9) 0.2587(8) 0.6904(12)
H8F H -0.1219 0.2407 0.7433
C9F C -0.2107(8) 0.4014(8) 0.5709(12)
C10F C -0.1492(8) 0.4834(8) 0.6064(14)
H9F H -0.1127 0.5011 0.6070
C11F C -0.1896(9) 0.5672(9) 0.6898(13)
H10F H -0.2113 0.5659 0.7437
H11F H -0.1487 0.5707 0.7045
C12F C -0.2625(8) 0.6918(7) 0.6129(13)
H12F H -0.2912 0.7204 0.6162
C13F C -0.2513(7) 0.6504(7) 0.6735(11)
H13F H -0.2711 0.6456 0.7257
N3F N -0.2063(5) 0.6173(5) 0.6447(9)
C14F C -0.1896(8) 0.6382(7) 0.5663(9)
H14F H -0.1596 0.6235 0.5320
N4F N -0.2243(10) 0.6843(7) 0.5466(10)
W1K W 0.03484(3) 0.35522(3) -0.03338(5)
W2K W -0.10798(3) 0.27428(3) -0.03388(5)
W3K W 0.13403(3) 0.32619(4) 0.11753(5)
V1K V 0.0000 0.2500 -0.1356(4)
O1K O 0.1612(5) 0.2735(4) 0.0277(7)
O2K O 0.1043(5) 0.3749(4) 0.0246(7)
O3K O -0.1551(5) 0.3001(5) -0.1097(8)
O4K O -0.0757(5) 0.2078(5) -0.0968(7)
O5K O 0.0831(5) 0.3610(5) 0.1978(7)
O6K O -0.0343(4) 0.3118(4) -0.0687(7)
O7K O -0.0121(5) 0.3887(5) 0.0531(7)
O8K O 0.1966(5) 0.3618(5) 0.1369(8)
O9K O 0.0498(4) 0.2776(4) 0.0655(7)
O10K O 0.0362(5) 0.4075(5) -0.1103(8)
O11K O 0.0000 0.2500 -0.2379(10)
W1M W -0.03484(3) 0.14478(3) -0.03338(5)
W2M W 0.10798(3) 0.22572(3) -0.03388(5)
W3M W -0.13403(3) 0.17381(4) 0.11753(5)
O1M O -0.1612(5) 0.2265(4) 0.0277(7)
O2M O -0.1043(5) 0.1251(4) 0.0246(7)
O3M O 0.1551(5) 0.1999(5) -0.1097(8)
O4M O 0.0757(5) 0.2922(5) -0.0968(7)
O5M O -0.0831(5) 0.1390(5) 0.1978(7)
O6M O 0.0343(4) 0.1882(4) -0.0687(7)
O7M O 0.0121(5) 0.1113(5) 0.0531(7)
O8M O -0.1966(5) 0.1382(5) 0.1369(8)
O9M O -0.0498(4) 0.2224(4) 0.0655(7)
O10M O -0.0362(5) 0.0925(5) -0.1103(8)
N1K N 0.0514(6) 0.4251(6) 0.6664(10)
N2K N 0.0136(7) 0.3387(7) 0.6250(10)
C1K C 0.1797(9) 0.5087(8) 0.6453(14)
H1K H 0.1620 0.5452 0.6469
C2K C 0.0334(8) 0.4322(8) 0.5812(14)
H2K H 0.0371 0.4652 0.5464
C3K C 0.0399(8) 0.3686(8) 0.6901(13)
H3K H 0.0489 0.3527 0.7439
C4K C 0.0894(8) 0.4662(7) 0.7157(12)
H4K H 0.0754 0.5058 0.7092
H5K H 0.0891 0.4563 0.7769
C5K C 0.2346(8) 0.5025(8) 0.6091(12)
H6K H 0.2538 0.5349 0.5868
C6K C 0.2613(8) 0.4483(8) 0.6058(12)
C7K C 0.1790(9) 0.4069(9) 0.6815(13)
H7K H 0.1608 0.3756 0.7089
C8K C 0.0087(8) 0.3794(9) 0.5596(12)
H8K H -0.0093 0.3719 0.5067
C9K C 0.1514(8) 0.4607(8) 0.6791(12)
C10K C 0.2334(8) 0.3992(8) 0.6436(14)
H9K H 0.2511 0.3627 0.6430
C11K C 0.3172(9) 0.4396(9) 0.5602(13)
H10K H 0.3159 0.4613 0.5063
H11K H 0.3207 0.3987 0.5455
C12K C 0.4418(7) 0.5125(8) 0.6371(13)
H12K H 0.4704 0.5412 0.6338
C13K C 0.4004(7) 0.5013(7) 0.5765(11)
H13K H 0.3956 0.5211 0.5243
N3K N 0.3673(5) 0.4563(5) 0.6053(9)
C14K C 0.3882(7) 0.4396(8) 0.6837(9)
H14K H 0.3735 0.4096 0.7180
N4K N 0.4343(7) 0.4743(10) 0.7034(10)
N1M N -0.0514(6) 0.0749(6) 0.6664(10)
N2M N -0.0136(7) 0.1613(7) 0.6250(10)
C1M C -0.1797(9) -0.0087(8) 0.6453(14)
H1M H -0.1620 -0.0452 0.6469
C2M C -0.0334(8) 0.0678(8) 0.5812(14)
H2M H -0.0371 0.0348 0.5464
C3M C -0.0399(8) 0.1314(8) 0.6901(13)
H3M H -0.0489 0.1473 0.7439
C4M C -0.0894(8) 0.0338(7) 0.7157(12)
H4M H -0.0754 -0.0058 0.7092
H5M H -0.0891 0.0437 0.7769
C5M C -0.2346(8) -0.0025(8) 0.6091(12)
H6M H -0.2538 -0.0349 0.5868
C6M C -0.2613(8) 0.0517(8) 0.6058(12)
C7M C -0.1790(9) 0.0931(9) 0.6815(13)
H7M H -0.1608 0.1244 0.7089
C8M C -0.0087(8) 0.1206(9) 0.5596(12)
H8M H 0.0093 0.1281 0.5067
C9M C -0.1514(8) 0.0393(8) 0.6791(12)
C10M C -0.2334(8) 0.1008(8) 0.6436(14)
H9M H -0.2511 0.1373 0.6430
C11M C -0.3172(9) 0.0604(9) 0.5602(13)
H10M H -0.3159 0.0387 0.5063
H11M H -0.3207 0.1013 0.5455
C12M C -0.4418(7) -0.0125(8) 0.6371(13)
H12M H -0.4704 -0.0412 0.6338
C13M C -0.4004(7) -0.0013(7) 0.5765(11)
H13M H -0.3956 -0.0211 0.5243
N3M N -0.3673(5) 0.0437(5) 0.6053(9)
C14M C -0.3882(7) 0.0604(8) 0.6837(9)
H14M H -0.3735 0.0904 0.7180
N4M N -0.4343(7) 0.0257(10) 0.7034(10)
O11K_2 O 0.0000 0.2500 0.7621(10)
Ni1_2 Ni 0.0000 0.2500 -0.3750
loop_
_geom_bond_atom_site_label_1
_geom_bond_atom_site_label_2
_geom_bond_site_symmetry_1
_geom_bond_site_symmetry_2
W1 V1 1_555 1_555
W2 V1 1_555 1_555
W3 O1 1_555 1_555
V1 O4 1_555 1_555
V2 O9 1_555 1_555
O1 W2F 1_555 1_555
O2 W1 1_555 1_555
O3 W2 1_555 1_555
O4 W2 1_555 1_555
O5 W3 1_555 1_555
O6 W1 1_555 1_555
O7 W1 1_555 1_555
O8 W3 1_555 1_555
O9 W1 1_555 1_555
O10 W1 1_555 1_555
O11 V1 1_555 1_555
Ni1 O11 1_555 1_555
N1 C2 1_555 1_555
N2 Ni1 1_555 1_555
C1 H1 1_555 1_555
C2 H2 1_555 1_555
C3 N1 1_555 1_555
H3 C3 1_555 1_555
C4 N1 1_555 1_555
H4 C4 1_555 1_555
H5 C4 1_555 1_555
C5 C1 1_555 1_555
H6 C5 1_555 1_555
C6 C5 1_555 1_555
C7 H7 1_555 1_555
C8 N2 1_555 1_555
H8 C8 1_555 1_555
C9 C1 1_555 1_555
C10 C6 1_555 1_555
H9 C10 1_555 1_555
C11 C6 1_555 1_555
H10 C11 1_555 1_555
H11 C11 1_555 1_555
C12 H12 1_555 1_555
C13 C12 1_555 1_555
H13 C13 1_555 1_555
N3 C11 1_555 1_555
C14 N3 1_555 1_555
H14 C14 1_555 1_555
N4 C12 1_555 1_555
W1F V1 1_555 1_555
W2F V1 1_555 1_555
W3F O1F 1_555 1_555
O1F W2 1_555 1_555
O2F W1F 1_555 1_555
O3F W2F 1_555 1_555
O4F W1 1_555 1_555
O5F W3F 1_555 1_555
O6F V1 1_555 1_555
O7F W1F 1_555 1_555
O8F W3F 1_555 1_555
O9F W2 1_555 1_555
O10F W1F 1_555 1_555
N1F C2F 1_555 1_555
N2F Ni1 1_555 1_555
C1F H1F 1_555 1_555
C2F H2F 1_555 1_555
C3F N1F 1_555 1_555
H3F C3F 1_555 1_555
C4F N1F 1_555 1_555
H4F C4F 1_555 1_555
H5F C4F 1_555 1_555
C5F C1F 1_555 1_555
H6F C5F 1_555 1_555
C6F C5F 1_555 1_555
C7F H7F 1_555 1_555
C8F N2F 1_555 1_555
H8F C8F 1_555 1_555
C9F C1F 1_555 1_555
C10F C6F 1_555 1_555
H9F C10F 1_555 1_555
C11F C6F 1_555 1_555
H10F C11F 1_555 1_555
H11F C11F 1_555 1_555
C12F H12F 1_555 1_555
C13F C12F 1_555 1_555
H13F C13F 1_555 1_555
N3F C11F 1_555 1_555
C14F N3F 1_555 1_555
H14F C14F 1_555 1_555
N4F C12F 1_555 1_555
W1K V1K 1_555 1_555
W2K O5F 1_555 1_555
W3K O7 1_555 1_555
V1K W2K 1_555 1_555
O1K W3K 1_555 1_555
O2K W1K 1_555 1_555
O3K W2K 1_555 1_555
O4K W2K 1_555 1_555
O5K W2 1_555 1_555
O6K W1K 1_555 1_555
O7K W3F 1_555 1_555
O8K W3K 1_555 1_555
O9K V2 1_555 1_555
O10K W1K 1_555 1_555
O11K V1K 1_555 1_555
W1M V1K 1_555 1_555
W2M O5 1_555 1_555
W3M O7F 1_555 1_555
O1M W2K 1_555 1_555
O2M W1M 1_555 1_555
O3M W2M 1_555 1_555
O4M W1K 1_555 1_555
O5M W2F 1_555 1_555
O6M V1K 1_555 1_555
O7M W3 1_555 1_555
O8M W3M 1_555 1_555
O9M V2 1_555 1_555
O10M W1M 1_555 1_555
N1K C2K 1_555 1_555
N2K Ni1 1_555 1_555
C1K H1K 1_555 1_555
C2K H2K 1_555 1_555
C3K N1K 1_555 1_555
H3K C3K 1_555 1_555
C4K N1K 1_555 1_555
H4K C4K 1_555 1_555
H5K C4K 1_555 1_555
C5K C1K 1_555 1_555
H6K C5K 1_555 1_555
C6K C5K 1_555 1_555
C7K H7K 1_555 1_555
C8K N2K 1_555 1_555
H8K C8K 1_555 1_555
C9K C1K 1_555 1_555
C10K C6K 1_555 1_555
H9K C10K 1_555 1_555
C11K C6K 1_555 1_555
H10K C11K 1_555 1_555
H11K C11K 1_555 1_555
C12K H12K 1_555 1_555
C13K C12K 1_555 1_555
H13K C13K 1_555 1_555
N3K C11K 1_555 1_555
C14K N3K 1_555 1_555
H14K C14K 1_555 1_555
N4K C12K 1_555 1_555
N1M C2M 1_555 1_555
N2M Ni1 1_555 1_555
C1M H1M 1_555 1_555
C2M H2M 1_555 1_555
C3M N1M 1_555 1_555
H3M C3M 1_555 1_555
C4M N1M 1_555 1_555
H4M C4M 1_555 1_555
H5M C4M 1_555 1_555
C5M C1M 1_555 1_555
H6M C5M 1_555 1_555
C6M C5M 1_555 1_555
C7M H7M 1_555 1_555
C8M N2M 1_555 1_555
H8M C8M 1_555 1_555
C9M C1M 1_555 1_555
C10M C6M 1_555 1_555
H9M C10M 1_555 1_555
C11M C6M 1_555 1_555
H10M C11M 1_555 1_555
H11M C11M 1_555 1_555
C12M H12M 1_555 1_555
C13M C12M 1_555 1_555
H13M C13M 1_555 1_555
N3M C11M 1_555 1_555
C14M N3M 1_555 1_555
H14M C14M 1_555 1_555
N4M C12M 1_555 1_555
O11K_2 Ni1 1_555 1_555
Ni1_2 O11K 1_555 1_555
W2 O6 1_555 1_555
W3 O2 1_555 1_555
W3 O9 1_555 1_555
V1 O6 1_555 1_555
V1 O4F 1_555 1_555
V2 O9F 1_555 1_555
O4 W1F 1_555 1_555
O9 W2F 1_555 1_555
N2 C3 1_555 1_555
C2 C8 1_555 1_555
C4 C9 1_555 1_555
C7 C9 1_555 1_555
C7 C10 1_555 1_555
C13 N3 1_555 1_555
C14 N4 1_555 1_555
W1F O6F 1_555 1_555
W1F O9F 1_555 1_555
W2F O4F 1_555 1_555
W2F O6F 1_555 1_555
W3F O2F 1_555 1_555
W3F O9F 1_555 1_555
N2F C3F 1_555 1_555
C2F C8F 1_555 1_555
C4F C9F 1_555 1_555
C7F C9F 1_555 1_555
C7F C10F 1_555 1_555
C13F N3F 1_555 1_555
C14F N4F 1_555 1_555
W1K O7K 1_555 1_555
W1K O9K 1_555 1_555
W2K O6K 1_555 1_555
W2K O9M 1_555 1_555
W3K O2K 1_555 1_555
W3K O5K 1_555 1_555
W3K O9K 1_555 1_555
V1K O4K 1_555 1_555
V1K O6K 1_555 1_555
V1K W2M 1_555 1_555
V1K O4M 1_555 1_555
O1K W2M 1_555 1_555
O4K W1M 1_555 1_555
O9K W2M 1_555 1_555
W1M O6M 1_555 1_555
W1M O7M 1_555 1_555
W1M O9M 1_555 1_555
W2M O4M 1_555 1_555
W2M O6M 1_555 1_555
W3M O1M 1_555 1_555
W3M O2M 1_555 1_555
W3M O5M 1_555 1_555
W3M O9M 1_555 1_555
N2K C3K 1_555 1_555
C2K C8K 1_555 1_555
C4K C9K 1_555 1_555
C7K C9K 1_555 1_555
C7K C10K 1_555 1_555
C13K N3K 1_555 1_555
C14K N4K 1_555 1_555
N2M C3M 1_555 1_555
C2M C8M 1_555 1_555
C4M C9M 1_555 1_555
C7M C9M 1_555 1_555
C7M C10M 1_555 1_555
C13M N3M 1_555 1_555
C14M N4M 1_555 1_555

#END
