
#######################################################################
#
#                 Cambridge Crystallographic Data Centre
#                                CCDC 
#
#######################################################################
#
# If this CIF has been generated from an entry in the Cambridge 
# Structural Database, then it will include bibliographic, chemical, 
# crystal, experimental, refinement or atomic coordinate data resulting 
# from the CCDC's data processing and validation procedures.
#
#######################################################################

data_MORFAB
_symmetry_cell_setting           rhombohedral
_symmetry_space_group_name_H-M   'R -3 c'
_symmetry_Int_Tables_number      167
_space_group_name_Hall           '-R 3 2"c'
loop_
_symmetry_equiv_pos_site_id
_symmetry_equiv_pos_as_xyz
1 x,y,z
2 -y,x-y,z
3 -x+y,-x,z
4 y,x,1/2-z
5 x-y,-y,1/2-z
6 -x,-x+y,1/2-z
7 2/3+x,1/3+y,1/3+z
8 2/3-y,1/3+x-y,1/3+z
9 2/3-x+y,1/3-x,1/3+z
10 2/3+y,1/3+x,5/6-z
11 2/3+x-y,1/3-y,5/6-z
12 2/3-x,1/3-x+y,5/6-z
13 1/3+x,2/3+y,2/3+z
14 1/3-y,2/3+x-y,2/3+z
15 1/3-x+y,2/3-x,2/3+z
16 1/3+y,2/3+x,1/6-z
17 1/3+x-y,2/3-y,1/6-z
18 1/3-x,2/3-x+y,1/6-z
19 -x,-y,-z
20 y,-x+y,-z
21 x-y,x,-z
22 -y,-x,1/2+z
23 -x+y,y,1/2+z
24 x,x-y,1/2+z
25 1/3-x,2/3-y,2/3-z
26 1/3+y,2/3-x+y,2/3-z
27 1/3+x-y,2/3+x,2/3-z
28 1/3-y,2/3-x,1/6+z
29 1/3-x+y,2/3+y,1/6+z
30 1/3+x,2/3+x-y,1/6+z
31 2/3-x,1/3-y,1/3-z
32 2/3+y,1/3-x+y,1/3-z
33 2/3+x-y,1/3+x,1/3-z
34 2/3-y,1/3-x,5/6+z
35 2/3-x+y,1/3+y,5/6+z
36 2/3+x,1/3+x-y,5/6+z
_cell_length_a                   12.3617(5)
_cell_length_b                   12.3617(5)
_cell_length_c                   38.896(3)
_cell_angle_alpha                90
_cell_angle_beta                 90
_cell_angle_gamma                120
_cell_volume                     5147.45
loop_
_atom_site_label
_atom_site_type_symbol
_atom_site_fract_x
_atom_site_fract_y
_atom_site_fract_z
Cd1 Cd 0.6667 0.3333 0.3333
N1 N 0.8421(4) 0.4072(4) 0.37330(12)
N2 N 1.0038(4) 0.4425(4) 0.40448(10)
C1 C 0.8489(7) 0.4753(7) 0.40276(15)
H1 H 0.7930 0.5027 0.4079
C2 C 0.9423(8) 0.4952(7) 0.42184(19)
H2 H 0.9643 0.5362 0.4429
C3 C 0.9384(4) 0.3935(4) 0.37619(11)
C4 C 1.1173(5) 0.4506(5) 0.4167
H3 H 1.1779 0.4830 0.3981
C5 C 0.9802(7) 0.3318(8) 0.3501(2)
H4 H 0.9313 0.3148 0.3296
H5 H 0.9691 0.2549 0.3594
H6 H 1.0668 0.3863 0.3448
Cd1I Cd 1.0000 0.0000 0.5000
Cd1I_2 Cd 1.0000 1.0000 0.5000
Cd1I_3 Cd -0.0000 0.0000 0.5000
N1I N 1.0739(4) 0.1754(4) 0.46003(12)
N1A N 0.5928(4) 0.4349(6) 0.37330(12)
N1K N 0.8246(4) 0.8984(6) 0.46003(12)
N1B N 0.5651(6) 0.1579(4) 0.37330(12)
N1J N 0.1016(6) -0.0739(4) 0.46003(12)
N1X N 0.4912(4) 0.2595(4) 0.29337(12)
N1Y N 0.7405(4) 0.2318(6) 0.29337(12)
N1Z N 0.7682(6) 0.5088(4) 0.29337(12)
N2I N 1.1092(4) 0.3371(4) 0.42885(10)
N2A N 0.5575(4) 0.5613(6) 0.40448(10)
N2K N 0.6629(4) 0.7720(6) 0.42885(10)
N2B N 0.4387(6) -0.0038(4) 0.40448(10)
N2J N 0.2280(6) -0.1092(4) 0.42885(10)
C1I C 1.1420(7) 0.1822(7) 0.43057(15)
C1A C 0.5247(7) 0.3736(10) 0.40276(15)
C1K C 0.8178(7) 0.9597(10) 0.43057(15)
C1B C 0.6264(10) 0.1511(7) 0.40276(15)
C1J C 0.0403(10) -0.1420(7) 0.43057(15)
H1I H 1.1694 0.1263 0.4254
H1A H 0.4973 0.2903 0.4079
H1K H 0.8737 1.0430 0.4254
H1B H 0.7097 0.2070 0.4079
H1J H -0.0430 -0.1694 0.4254
C2I C 1.1619(7) 0.2756(8) 0.41149(19)
C2A C 0.5048(7) 0.4471(11) 0.42184(19)
C2K C 0.7244(8) 0.8862(11) 0.41149(19)
C2B C 0.5529(11) 0.0577(8) 0.42184(19)
C2J C 0.1138(11) -0.1619(7) 0.41149(19)
H2I H 1.2029 0.2976 0.3904
H2A H 0.4638 0.4281 0.4429
H2K H 0.7024 0.9052 0.3904
H2B H 0.5719 0.0357 0.4429
H2J H 0.0948 -0.2029 0.3904
C3I C 1.0602(4) 0.2717(4) 0.45714(11)
C3A C 0.6065(4) 0.5449(6) 0.37619(11)
C3K C 0.7283(4) 0.7884(6) 0.45714(11)
C3B C 0.4551(6) 0.0616(4) 0.37619(11)
C3J C 0.2116(6) -0.0602(4) 0.45714(11)
C4A C 0.5494(5) 0.6667(7) 0.4167
C4B C 0.3333(7) -0.1173(5) 0.4167
H3I H 1.1497 0.5112 0.4352
H3A H 0.5170 0.6949 0.3981
H3K H 0.4888 0.6384 0.4352
H3B H 0.3051 -0.1779 0.3981
H3J H 0.3616 -0.1497 0.4352
C5I C 0.9985(8) 0.3135(7) 0.4832(2)
C5A C 0.6682(8) 0.6484(11) 0.3501(2)
C5K C 0.6865(7) 0.6849(11) 0.4832(2)
C5B C 0.3516(11) 0.0198(7) 0.3501(2)
C5J C 0.3151(11) 0.0015(8) 0.4832(2)
H4I H 0.9815 0.2646 0.5037
H4A H 0.6852 0.6165 0.3296
H4K H 0.7354 0.7168 0.5037
H4B H 0.3835 0.0687 0.3296
H4J H 0.2832 0.0185 0.5037
H5I H 0.9216 0.3024 0.4739
H5A H 0.7451 0.7142 0.3594
H5K H 0.6976 0.6191 0.4739
H5B H 0.2858 0.0309 0.3594
H5J H 0.3809 0.0784 0.4739
H6I H 1.0530 0.4001 0.4885
H6A H 0.6137 0.6805 0.3448
H6K H 0.5999 0.6528 0.4885
H6B H 0.3195 -0.0668 0.3448
H6J H 0.3472 -0.0530 0.4885
O1 O 0.6667 0.3333 0.1924(3)
O2 O 0.6669(5) 0.2263(5) 0.14407(15)
Cl1 Cl 0.6667 0.3333 0.15836(6)
O2B O 0.5594(7) 0.3331(5) 0.14407(15)
O2A O 0.7737(5) 0.4406(7) 0.14407(15)
loop_
_geom_bond_atom_site_label_1
_geom_bond_atom_site_label_2
_geom_bond_site_symmetry_1
_geom_bond_site_symmetry_2
Cd1 N1 1_555 1_555
N1 C1 1_555 1_555
N2 C2 1_555 1_555
O1 Cl1 1_555 1_555
O2 Cl1 1_555 1_555
C1 H1 1_555 1_555
C2 C1 1_555 1_555
H2 C2 1_555 1_555
C3 N1 1_555 1_555
C4 N2 1_555 1_555
H3 C4 1_555 1_555
C5 C3 1_555 1_555
H4 C5 1_555 1_555
H5 C5 1_555 1_555
H6 C5 1_555 1_555
Cl1 O2B 1_555 1_555
Cd1I N1I 1_555 1_555
Cd1I_2 N1K 1_555 1_555
Cd1I_3 N1J 1_555 1_555
N1I C1I 1_555 1_555
N1A Cd1 1_555 1_555
N1K C1K 1_555 1_555
N1B Cd1 1_555 1_555
N1J C1J 1_555 1_555
N1X Cd1 1_555 1_555
N1Y Cd1 1_555 1_555
N1Z Cd1 1_555 1_555
N2I C4 1_555 1_555
N2A C2A 1_555 1_555
N2K C2K 1_555 1_555
N2B C2B 1_555 1_555
N2J C2J 1_555 1_555
O2A Cl1 1_555 1_555
C1I H1I 1_555 1_555
C1A N1A 1_555 1_555
C1K H1K 1_555 1_555
C1B N1B 1_555 1_555
C1J H1J 1_555 1_555
H1A C1A 1_555 1_555
H1B C1B 1_555 1_555
C2I N2I 1_555 1_555
C2A C1A 1_555 1_555
C2K C1K 1_555 1_555
C2B C1B 1_555 1_555
C2J C1J 1_555 1_555
H2I C2I 1_555 1_555
H2A C2A 1_555 1_555
H2K C2K 1_555 1_555
H2B C2B 1_555 1_555
H2J C2J 1_555 1_555
C3I N1I 1_555 1_555
C3A N1A 1_555 1_555
C3K N1K 1_555 1_555
C3B N1B 1_555 1_555
C3J N1J 1_555 1_555
C4A N2A 1_555 1_555
C4B N2B 1_555 1_555
H3I C4 1_555 1_555
H3A C4A 1_555 1_555
H3K C4A 1_555 1_555
H3B C4B 1_555 1_555
H3J C4B 1_555 1_555
C5I C3I 1_555 1_555
C5A C3A 1_555 1_555
C5K C3K 1_555 1_555
C5B C3B 1_555 1_555
C5J C3J 1_555 1_555
H4I C5I 1_555 1_555
H4A C5A 1_555 1_555
H4K C5K 1_555 1_555
H4B C5B 1_555 1_555
H4J C5J 1_555 1_555
H5I C5I 1_555 1_555
H5A C5A 1_555 1_555
H5K C5K 1_555 1_555
H5B C5B 1_555 1_555
H5J C5J 1_555 1_555
H6I C5I 1_555 1_555
H6A C5A 1_555 1_555
H6K C5K 1_555 1_555
H6B C5B 1_555 1_555
H6J C5J 1_555 1_555
N2 C3 1_555 1_555
N2I C3I 1_555 1_555
N2A C3A 1_555 1_555
N2K C3K 1_555 1_555
N2K C4A 1_555 1_555
N2B C3B 1_555 1_555
N2J C3J 1_555 1_555
N2J C4B 1_555 1_555
C1I C2I 1_555 1_555

#END
