
#######################################################################
#
#                 Cambridge Crystallographic Data Centre
#                                CCDC 
#
#######################################################################
#
# If this CIF has been generated from an entry in the Cambridge 
# Structural Database, then it will include bibliographic, chemical, 
# crystal, experimental, refinement or atomic coordinate data resulting 
# from the CCDC's data processing and validation procedures.
#
#######################################################################

data_MORHEH
_symmetry_cell_setting           orthorhombic
_symmetry_space_group_name_H-M   'C m c 21'
_symmetry_Int_Tables_number      36
_space_group_name_Hall           'C 2n -2'
loop_
_symmetry_equiv_pos_site_id
_symmetry_equiv_pos_as_xyz
1 x,y,z
2 -x,-y,1/2+z
3 x,-y,1/2+z
4 -x,y,z
5 1/2+x,1/2+y,z
6 1/2-x,1/2-y,1/2+z
7 1/2+x,1/2-y,1/2+z
8 1/2-x,1/2+y,z
_cell_length_a                   17.2620(2)
_cell_length_b                   13.5822(2)
_cell_length_c                   11.2426(2)
_cell_angle_alpha                90
_cell_angle_beta                 90
_cell_angle_gamma                90
_cell_volume                     2635.89
loop_
_atom_site_label
_atom_site_type_symbol
_atom_site_fract_x
_atom_site_fract_y
_atom_site_fract_z
Cu1 Cu 0.91083(2) 0.35701(3) 0.46042(5)
O1 O 0.64828(17) -0.0138(2) 0.6419(3)
O2 O 0.66732(14) -0.04195(17) 0.4490(3)
O3 O 0.91586(19) 0.3549(2) 0.2534(3)
N1 N 1.0000 0.4494(3) 0.4680(7)
N2 N 1.0000 0.5366(3) 0.4472(8)
N3 N 1.0000 0.6186(5) 0.4289(9)
N4 N 1.0000 0.2635(3) 0.4684(6)
N5 N 1.0000 0.1747(3) 0.4680(7)
N6 N 1.0000 0.0921(4) 0.4670(11)
N7 N 0.83397(19) 0.2522(2) 0.4988(3)
C1 C 0.7849(3) 0.2231(3) 0.4162(4)
H1 H 0.7836 0.2584 0.3432
C2 C 0.7348(2) 0.1434(3) 0.4299(3)
H2 H 0.7004 0.1259 0.3674
C3 C 0.7354(2) 0.0902(3) 0.5340(4)
C4 C 0.7873(2) 0.1197(3) 0.6246(3)
C5 C 0.7942(3) 0.0697(3) 0.7362(4)
H3 H 0.7625 0.0140 0.7518
C6 C 0.8455(3) 0.1007(4) 0.8206(4)
H4 H 0.8501 0.0659 0.8937
C7 C 0.8918(3) 0.1842(5) 0.7991(4)
H5 H 0.9274 0.2052 0.8584
C8 C 0.8869(3) 0.2351(3) 0.6966(4)
H6 H 0.9175 0.2924 0.6847
C9 C 0.8352(2) 0.2021(3) 0.6059(4)
C10 C 0.6792(2) 0.0052(3) 0.5462(4)
Cu1G Cu 0.58917(2) 0.85701(3) 0.46042(5)
Cu1G_2 Cu 0.58917(2) -0.14299(3) 0.46042(5)
Cu1C Cu 1.08917(2) 0.35701(3) 0.46042(5)
O1G O 0.85172(17) 0.4862(2) 0.6419(3)
O2G O 0.83268(14) 0.45805(17) 0.4490(3)
O2_2 O 0.66732(14) 0.95805(17) 0.4490(3)
O3G O 0.58414(19) 0.8549(2) 0.2534(3)
N1D N 0.5000 0.9494(3) 0.4680(7)
N4D N 0.5000 0.7635(3) 0.4684(6)
N7G N 0.66603(19) 0.7522(2) 0.4988(3)
C1G C 0.7151(3) 0.7231(3) 0.4162(4)
H1G H 0.7164 0.7584 0.3432
C2G C 0.7652(2) 0.6434(3) 0.4299(3)
H2G H 0.7996 0.6259 0.3674
C3G C 0.7646(2) 0.5902(3) 0.5340(4)
C4G C 0.7127(2) 0.6197(3) 0.6246(3)
C5G C 0.7058(3) 0.5697(3) 0.7362(4)
H3G H 0.7375 0.5140 0.7518
C6G C 0.6545(3) 0.6007(4) 0.8206(4)
H4G H 0.6499 0.5659 0.8937
C7G C 0.6082(3) 0.6842(5) 0.7991(4)
H5G H 0.5726 0.7052 0.8584
C8G C 0.6131(3) 0.7351(3) 0.6966(4)
H6G H 0.5825 0.7924 0.6847
C9G C 0.6648(2) 0.7021(3) 0.6059(4)
C10G C 0.8208(2) 0.5052(3) 0.5462(4)
O4 O 0.9220(4) 0.2025(5) 1.0986(6)
C11 C 0.8910(6) 0.1177(7) 1.1496(10)
loop_
_geom_bond_atom_site_label_1
_geom_bond_atom_site_label_2
_geom_bond_site_symmetry_1
_geom_bond_site_symmetry_2
Cu1 O3 1_555 1_555
O1 C10 1_555 1_555
O2 C10 1_555 1_555
N1 Cu1 1_555 1_555
N2 N1 1_555 1_555
N3 N2 1_555 1_555
N4 Cu1 1_555 1_555
N5 N4 1_555 1_555
N6 N5 1_555 1_555
N7 Cu1 1_555 1_555
C1 N7 1_555 1_555
H1 C1 1_555 1_555
C2 C1 1_555 1_555
H2 C2 1_555 1_555
C3 C2 1_555 1_555
C4 C3 1_555 1_555
C5 C4 1_555 1_555
H3 C5 1_555 1_555
C6 C5 1_555 1_555
H4 C6 1_555 1_555
C7 C6 1_555 1_555
H5 C7 1_555 1_555
C8 C7 1_555 1_555
H6 C8 1_555 1_555
C9 N7 1_555 1_555
C10 C3 1_555 1_555
O4 C11 1_555 1_555
Cu1G O2_2 1_555 1_555
Cu1G_2 O2 1_555 1_555
Cu1C N1 1_555 1_555
O1G C10G 1_555 1_555
O2G Cu1 1_555 1_555
O3G Cu1G 1_555 1_555
N1D Cu1G 1_555 1_555
N4D Cu1G 1_555 1_555
N7G Cu1G 1_555 1_555
C1G N7G 1_555 1_555
H1G C1G 1_555 1_555
C2G C1G 1_555 1_555
H2G C2G 1_555 1_555
C3G C2G 1_555 1_555
C4G C3G 1_555 1_555
C5G C4G 1_555 1_555
H3G C5G 1_555 1_555
C6G C5G 1_555 1_555
H4G C6G 1_555 1_555
C7G C6G 1_555 1_555
H5G C7G 1_555 1_555
C8G C7G 1_555 1_555
H6G C8G 1_555 1_555
C9G N7G 1_555 1_555
C10G O2G 1_555 1_555
N4 Cu1C 1_555 1_555
C4 C9 1_555 1_555
C8 C9 1_555 1_555
C3G C10G 1_555 1_555
C4G C9G 1_555 1_555
C8G C9G 1_555 1_555

#END
