
#######################################################################
#
#                 Cambridge Crystallographic Data Centre
#                                CCDC 
#
#######################################################################
#
# If this CIF has been generated from an entry in the Cambridge 
# Structural Database, then it will include bibliographic, chemical, 
# crystal, experimental, refinement or atomic coordinate data resulting 
# from the CCDC's data processing and validation procedures.
#
#######################################################################

data_MOSGUY
_symmetry_cell_setting           monoclinic
_symmetry_space_group_name_H-M   'P 21/n'
_symmetry_Int_Tables_number      14
_space_group_name_Hall           '-P 2yn'
loop_
_symmetry_equiv_pos_site_id
_symmetry_equiv_pos_as_xyz
1 x,y,z
2 1/2-x,1/2+y,1/2-z
3 -x,-y,-z
4 1/2+x,1/2-y,1/2+z
_cell_length_a                   7.8705(4)
_cell_length_b                   4.9984(3)
_cell_length_c                   30.9367(17)
_cell_angle_alpha                90
_cell_angle_beta                 90.343(5)
_cell_angle_gamma                90
_cell_volume                     1217.03
loop_
_atom_site_label
_atom_site_type_symbol
_atom_site_fract_x
_atom_site_fract_y
_atom_site_fract_z
Cl1 Cl 1.27919(6) -0.12915(9) 0.58911(1)
Cl2 Cl 0.69450(7) -0.32482(12) 0.50398(2)
O1 O 0.53927(17) -0.1305(3) 0.68571(4)
O2 O 1.09103(16) 0.2868(2) 0.63187(4)
O3 O 0.91847(14) 0.0867(2) 0.70030(4)
O4 O 0.82594(15) 0.4876(2) 0.72053(4)
C1 C 0.9901(2) 0.1520(3) 0.60290(5)
C2 C 1.0678(2) -0.0509(3) 0.57930(5)
C3 C 0.9783(2) -0.1965(4) 0.54875(6)
C4 C 0.8087(2) -0.1391(4) 0.54187(6)
C5 C 0.7290(2) 0.0595(4) 0.56468(6)
C6 C 0.8202(2) 0.2046(4) 0.59526(6)
C7 C 1.0111(2) 0.4701(3) 0.66080(6)
C8 C 0.9095(2) 0.3348(3) 0.69635(5)
Li1 Li 0.7439(4) -0.1484(5) 0.72192(9)
H1 H 1.03270 -0.33390 0.53270
H2 H 0.61230 0.09750 0.55960
H3 H 0.76500 0.34180 0.61110
H4 H 0.446(2) -0.115(5) 0.6995(7)
H5 H 0.523(3) -0.279(4) 0.6722(7)
H6 H 0.93430 0.58810 0.64400
H7 H 1.09950 0.58420 0.67430
O4_2 O 0.82594(15) -0.5124(2) 0.72053(4)
O4A O 0.67406(15) -0.0124(2) 0.77947(4)
Li1_2 Li 0.7439(4) 0.8516(5) 0.72192(9)
Li1A Li 0.7561(4) 0.3516(5) 0.77808(9)
O5 O 0.47121(19) 0.3859(3) 0.64621(5)
H8 H 0.374(2) 0.359(5) 0.6351(8)
H9 H 0.498(3) 0.233(4) 0.6570(8)
O6 O 1.23705(18) -0.0636(3) 0.73011(5)
H10 H 1.141(2) -0.038(5) 0.7176(7)
H11 H 1.233(3) -0.213(4) 0.7433(8)
loop_
_geom_bond_atom_site_label_1
_geom_bond_atom_site_label_2
_geom_bond_site_symmetry_1
_geom_bond_site_symmetry_2
Cl1 C2 1_555 1_555
Cl2 C4 1_555 1_555
O1 Li1 1_555 1_555
O2 C1 1_555 1_555
O3 C8 1_555 1_555
O4 C8 1_555 1_555
C1 C2 1_555 1_555
C2 C3 1_555 1_555
C3 C4 1_555 1_555
C4 C5 1_555 1_555
C5 C6 1_555 1_555
C6 C1 1_555 1_555
C7 O2 1_555 1_555
C8 C7 1_555 1_555
Li1 O3 1_555 1_555
H1 C3 1_555 1_555
H2 C5 1_555 1_555
H3 C6 1_555 1_555
H4 O1 1_555 1_555
H5 O1 1_555 1_555
H6 C7 1_555 1_555
H7 C7 1_555 1_555
O5 H8 1_555 1_555
H9 O5 1_555 1_555
O6 H10 1_555 1_555
H11 O6 1_555 1_555
O4_2 Li1 1_555 1_555
O4A Li1 1_555 1_555
Li1_2 O4 1_555 1_555
Li1A O4 1_555 1_555
O4A Li1A 1_555 1_555

#END
