
#######################################################################
#
#                 Cambridge Crystallographic Data Centre
#                                CCDC 
#
#######################################################################
#
# If this CIF has been generated from an entry in the Cambridge 
# Structural Database, then it will include bibliographic, chemical, 
# crystal, experimental, refinement or atomic coordinate data resulting 
# from the CCDC's data processing and validation procedures.
#
#######################################################################

data_MOSHEJ
_symmetry_cell_setting           orthorhombic
_symmetry_space_group_name_H-M   'P c a 21'
_symmetry_Int_Tables_number      29
_space_group_name_Hall           'P 2c -2ac'
loop_
_symmetry_equiv_pos_site_id
_symmetry_equiv_pos_as_xyz
1 x,y,z
2 -x,-y,1/2+z
3 1/2-x,y,1/2+z
4 1/2+x,-y,z
_cell_length_a                   8.9877(4)
_cell_length_b                   7.3441(2)
_cell_length_c                   32.8250(13)
_cell_angle_alpha                90
_cell_angle_beta                 90
_cell_angle_gamma                90
_cell_volume                     2166.67
loop_
_atom_site_label
_atom_site_type_symbol
_atom_site_fract_x
_atom_site_fract_y
_atom_site_fract_z
Cs1 Cs 0.39793(3) 0.87227(4) 0.61920(1)
Cs2 Cs 0.74246(3) 0.56521(4) 0.53580(1)
Cl1 Cl 0.50500(16) 1.12366(16) 0.71033(5)
Cl2 Cl 0.47449(15) 0.38099(16) 0.45046(5)
Cl3 Cl 0.16789(17) 0.7733(2) 0.82087(5)
Cl4 Cl 0.83358(16) 0.7247(2) 0.34450(5)
O1 O 0.0857(4) 0.7401(6) 0.58531(14)
O2 O 0.6309(4) 0.7720(5) 0.69486(12)
O3 O 0.3286(4) 0.7283(5) 0.45830(12)
O4 O 0.7332(3) 0.7689(4) 0.61976(13)
O5 O 0.4738(4) 0.7928(5) 0.52898(13)
O6 O 0.8847(4) 0.5357(5) 0.63378(12)
O7 O 0.4191(4) 1.0892(5) 0.52555(14)
C1 C 0.5314(5) 0.7619(7) 0.72640(16)
C2 C 0.4481(5) 0.7399(7) 0.43267(17)
C3 C 0.4591(6) 0.9254(7) 0.73655(17)
C4 C 0.5247(6) 0.5771(7) 0.42413(17)
C5 C 0.3483(6) 0.9292(7) 0.76539(17)
C6 C 0.6411(6) 0.5713(7) 0.39706(18)
C7 C 0.3125(6) 0.7725(7) 0.7852(2)
C8 C 0.6854(6) 0.7317(8) 0.37813(18)
C9 C 0.3880(6) 0.6110(7) 0.77779(18)
C10 C 0.6145(6) 0.8924(7) 0.38618(18)
C11 C 0.4983(5) 0.6079(7) 0.74849(17)
C12 C 0.4955(6) 0.8964(7) 0.41329(18)
C13 C 0.6962(6) 0.6087(6) 0.68103(16)
C14 C 0.2939(6) 0.8921(7) 0.48090(17)
C15 C 0.7779(5) 0.6436(6) 0.64165(16)
C16 C 0.4066(5) 0.9283(7) 0.51428(17)
H1 H 0.29760 1.03940 0.77140
H2 H 0.69040 0.45970 0.39140
H3 H 0.36420 0.50400 0.79270
H4 H 0.64650 1.00140 0.37330
H5 H 0.55170 0.49850 0.74350
H6 H 0.44620 1.00840 0.41850
H7 H 0.027(5) 0.663(7) 0.5969(18)
H8 H 0.61800 0.51570 0.67660
H9 H 0.19370 0.88000 0.49320
H10 H 0.022(5) 0.804(7) 0.5708(18)
H11 H 0.76630 0.56200 0.70180
H12 H 0.29180 0.99710 0.46200
Cs1C Cs -0.10207(3) 1.12773(4) 0.61920(1)
Cs1C_2 Cs 0.89793(3) 0.12773(4) 0.61920(1)
Cs1C_3 Cs 0.89793(3) 1.12773(4) 0.61920(1)
Cs2C Cs 0.24246(3) 0.43479(4) 0.53580(1)
Cs2C_2 Cs 0.24246(3) 1.43479(4) 0.53580(1)
Cl2C Cl 0.97449(15) 0.61901(16) 0.45046(5)
O1C O 0.5857(4) 0.2599(6) 0.58531(14)
O1C_2 O 0.5857(4) 1.2599(6) 0.58531(14)
O3C O 0.8286(4) 0.2717(5) 0.45830(12)
O4C O 0.2332(3) 1.2311(4) 0.61976(13)
O5C O 0.9738(4) 0.2072(5) 0.52898(13)
O6C O 0.3847(4) 0.4643(5) 0.63378(12)
O7C O 0.9191(4) 0.9108(5) 0.52555(14)
loop_
_geom_bond_atom_site_label_1
_geom_bond_atom_site_label_2
_geom_bond_site_symmetry_1
_geom_bond_site_symmetry_2
Cs1 Cl1 1_555 1_555
Cs2 O4 1_555 1_555
Cl1 C3 1_555 1_555
Cl2 C4 1_555 1_555
Cl3 C7 1_555 1_555
Cl4 C8 1_555 1_555
O1 Cs1 1_555 1_555
O2 Cs1 1_555 1_555
O3 C2 1_555 1_555
O4 Cs1 1_555 1_555
O5 Cs1 1_555 1_555
O6 Cs2 1_555 1_555
O7 Cs1 1_555 1_555
C1 O2 1_555 1_555
C2 C4 1_555 1_555
C3 C1 1_555 1_555
C4 C6 1_555 1_555
C5 C3 1_555 1_555
C6 C8 1_555 1_555
C7 C5 1_555 1_555
C8 C10 1_555 1_555
C9 C7 1_555 1_555
C10 C12 1_555 1_555
C11 C1 1_555 1_555
C12 C2 1_555 1_555
C13 O2 1_555 1_555
C14 O3 1_555 1_555
C15 O4 1_555 1_555
C16 O5 1_555 1_555
H1 C5 1_555 1_555
H2 C6 1_555 1_555
H3 C9 1_555 1_555
H4 C10 1_555 1_555
H5 C11 1_555 1_555
H6 C12 1_555 1_555
H7 O1 1_555 1_555
H8 C13 1_555 1_555
H9 C14 1_555 1_555
H10 O1 1_555 1_555
H11 C13 1_555 1_555
H12 C14 1_555 1_555
Cs1C O1 1_555 1_555
Cs1C_2 O6 1_555 1_555
Cs1C_3 O4 1_555 1_555
Cs2C Cl2 1_555 1_555
Cs2C_2 O7 1_555 1_555
Cl2C Cs2 1_555 1_555
O1C Cs2 1_555 1_555
O1C_2 Cs1 1_555 1_555
O3C Cs2 1_555 1_555
O4C Cs1 1_555 1_555
O5C Cs2 1_555 1_555
O6C Cs1 1_555 1_555
O7C Cs2 1_555 1_555
Cs2 O5 1_555 1_555
O1 Cs2C 1_555 1_555
O3 Cs2C 1_555 1_555
O5 Cs2C 1_555 1_555
O6 C15 1_555 1_555
O7 C16 1_555 1_555
C9 C11 1_555 1_555
C13 C15 1_555 1_555
C14 C16 1_555 1_555
Cs1C O4C 1_555 1_555
Cs1C_2 O1C 1_555 1_555
Cs1C_2 O5C 1_555 1_555
Cs1C_3 O1C_2 1_555 1_555
Cs1C_3 O7C 1_555 1_555
Cs2C O6C 1_555 1_555
Cs2C_2 O4C 1_555 1_555

#END
