
#######################################################################
#
#                 Cambridge Crystallographic Data Centre
#                                CCDC 
#
#######################################################################
#
# If this CIF has been generated from an entry in the Cambridge 
# Structural Database, then it will include bibliographic, chemical, 
# crystal, experimental, refinement or atomic coordinate data resulting 
# from the CCDC's data processing and validation procedures.
#
#######################################################################

data_MOSNUF
_symmetry_cell_setting           cubic
_symmetry_space_group_name_H-M   'P 41 3 2'
_symmetry_Int_Tables_number      213
_space_group_name_Hall           'P 4bd 2ab 3'
loop_
_symmetry_equiv_pos_site_id
_symmetry_equiv_pos_as_xyz
1 x,y,z
2 1/2+x,1/2-y,-z
3 1/2-x,-y,1/2+z
4 -x,1/2+y,1/2-z
5 1/4-y,3/4+x,1/4+z
6 3/4+y,1/4+x,1/4-z
7 1/4+y,1/4-x,3/4+z
8 3/4-y,3/4-x,3/4-z
9 y,z,x
10 1/2-y,-z,1/2+x
11 1/2+y,1/2-z,-x
12 -y,1/2+z,1/2-x
13 1/4-z,3/4+y,1/4+x
14 3/4-z,3/4-y,3/4-x
15 1/4+z,1/4-y,3/4+x
16 3/4+z,1/4+y,1/4-x
17 z,x,y
18 -z,1/2+x,1/2-y
19 1/2-z,-x,1/2+y
20 1/2+z,1/2-x,-y
21 3/4-x,3/4-z,3/4-y
22 1/4-x,3/4+z,1/4+y
23 1/4+x,1/4-z,3/4+y
24 3/4+x,1/4+z,1/4-y
_cell_length_a                   15.66850(10)
_cell_length_b                   15.66850(10)
_cell_length_c                   15.66850(10)
_cell_angle_alpha                90
_cell_angle_beta                 90
_cell_angle_gamma                90
_cell_volume                     3846.65
loop_
_atom_site_label
_atom_site_type_symbol
_atom_site_fract_x
_atom_site_fract_y
_atom_site_fract_z
Mn1 Mn 0.90045(2) 0.40045(2) 0.09955(2)
O1 O 0.89218(11) 0.53746(10) 0.11496(9)
O2 O 0.88493(11) 0.41483(9) 0.23662(10)
C6 C 0.875 0.56097(13) 0.18903(13)
C7 C 0.875 0.49009(12) 0.25991(12)
O1T O 0.85782(11) 0.63504(9) 0.21254(10)
O2T O 0.86507(11) 0.51338(10) 0.33517(9)
O1J O 1.03746(10) 0.38504(9) 0.10782(11)
O2J O 0.91483(9) 0.26338(10) 0.11507(11)
C6J C 1.06097(13) 0.31097(13) 0.125
C7J C 0.99009(12) 0.24009(12) 0.125
O1L O 1.13504(9) 0.28746(10) 0.14218(11)
O2L O 1.01338(10) 0.16483(9) 0.13493(11)
O1Q O 0.88504(9) 0.39218(11) -0.03746(10)
O2Q O 0.76338(10) 0.38493(11) 0.08517(9)
C6F C 0.81097(13) 0.375 -0.06097(13)
C7F C 0.74009(12) 0.375 0.00991(12)
O1F O 0.78746(10) 0.35782(11) -0.13504(9)
O2F O 0.66483(9) 0.36507(11) -0.01338(10)
Mn1D Mn 0.84955(2) 0.65045(2) 0.34955(2)
Mn1E Mn 1.15045(2) 0.15045(2) 0.15045(2)
Mn1F Mn 0.65045(2) 0.34955(2) -0.15045(2)
O1D O 0.71254(10) 0.64218(11) 0.36496(9)
O1O O 0.86496(9) 0.78746(10) 0.35782(11)
O2D O 0.83517(9) 0.63493(11) 0.48662(10)
O2O O 0.98662(10) 0.66483(9) 0.36507(11)
Co1 Co 0.625 0.875 0.125
N1 N 0.75987(10) 0.89048(12) 0.12995(11)
C1 C 0.81667(15) 0.82624(18) 0.13682(16)
H1 H 0.7968 0.7703 0.1379
C2 C 0.90302(17) 0.8407(2) 0.14230(19)
H2 H 0.9408 0.7954 0.1483
C3 C 0.93249(17) 0.9228(3) 0.13878(19)
H3 H 0.9908 0.9337 0.1411
C4 C 0.87494(17) 0.9901(2) 0.13175(16)
H4 H 0.894 1.0462 0.1296
C5 C 0.78838(13) 0.97137(15) 0.12802(13)
N1E N 0.64048(12) 1.00987(10) 0.12005(11)
C1E C 0.57624(18) 1.06667(15) 0.11318(16)
H1E H 0.5203 1.0468 0.1121
C2E C 0.5907(2) 1.15302(17) 0.10770(19)
H2E H 0.5454 1.1908 0.1017
C3E C 0.6728(3) 1.18249(17) 0.11122(19)
H3E H 0.6837 1.2408 0.1089
C4E C 0.7401(2) 1.12494(17) 0.11825(16)
H4E H 0.7962 1.144 0.1204
C5E C 0.72137(15) 1.03838(13) 0.12198(13)
N1I N 0.60952(12) 0.87005(11) 0.25987(10)
C1I C 0.67376(18) 0.86318(16) 0.31667(15)
H1I H 0.7297 0.8621 0.2968
C2I C 0.6593(2) 0.85770(19) 0.40302(17)
H2I H 0.7046 0.8517 0.4408
C3I C 0.5772(3) 0.86122(19) 0.43249(17)
H3I H 0.5663 0.8589 0.4908
C4I C 0.5099(2) 0.86825(16) 0.37494(17)
H4I H 0.4538 0.8704 0.394
C5I C 0.52863(15) 0.87198(13) 0.28838(13)
N1U N 0.49013(10) 0.87995(11) 0.14048(12)
C1U C 0.43333(15) 0.88682(16) 0.07624(18)
H1U H 0.4532 0.8879 0.0203
C2U C 0.34698(17) 0.89230(19) 0.0907(2)
H2U H 0.3092 0.8983 0.0454
C3U C 0.31751(17) 0.88878(19) 0.1728(3)
H3U H 0.2592 0.8911 0.1837
C4U C 0.37506(17) 0.88175(16) 0.2401(2)
H4U H 0.356 0.8796 0.2962
C5U C 0.46162(13) 0.87802(13) 0.22137(15)
N1M N 0.62005(11) 0.85952(12) -0.00987(10)
C1M C 0.61318(16) 0.92376(18) -0.06667(15)
H1M H 0.6121 0.9797 -0.0468
C2M C 0.60770(19) 0.9093(2) -0.15302(17)
H2M H 0.6017 0.9546 -0.1908
C3M C 0.61122(19) 0.8272(3) -0.18249(17)
H3M H 0.6089 0.8163 -0.2408
C4M C 0.61825(16) 0.7599(2) -0.12494(17)
H4M H 0.6204 0.7038 -0.144
C5M C 0.62198(13) 0.77863(15) -0.03838(13)
N1S N 0.62995(11) 0.74013(10) 0.10952(12)
C1S C 0.63682(16) 0.68333(15) 0.17376(18)
H1S H 0.6379 0.7032 0.2297
C2S C 0.64230(19) 0.59698(17) 0.1593(2)
H2S H 0.6483 0.5592 0.2046
C3S C 0.63878(19) 0.56751(17) 0.0772(3)
H3S H 0.6411 0.5092 0.0663
C4S C 0.63175(16) 0.62506(17) 0.0099(2)
H4S H 0.6296 0.606 -0.0462
C5S C 0.62802(13) 0.71162(13) 0.02863(15)
O3? O 0.8421(7) 0.875 -0.0921(7)
loop_
_geom_bond_atom_site_label_1
_geom_bond_atom_site_label_2
_geom_bond_site_symmetry_1
_geom_bond_site_symmetry_2
Co1 N1 1_555 1_555
N1 C1 1_555 1_555
C1 H1 1_555 1_555
C2 C1 1_555 1_555
H2 C2 1_555 1_555
C3 C2 1_555 1_555
H3 C3 1_555 1_555
C4 C3 1_555 1_555
H4 C4 1_555 1_555
C5 N1 1_555 1_555
Mn1 O1 1_555 1_555
O1 C6 1_555 1_555
O2 Mn1 1_555 1_555
C6 C7 1_555 1_555
C7 O2 1_555 1_555
N1E Co1 1_555 1_555
C1E N1E 1_555 1_555
H1E C1E 1_555 1_555
C2E C1E 1_555 1_555
H2E C2E 1_555 1_555
C3E C2E 1_555 1_555
H3E C3E 1_555 1_555
C4E C3E 1_555 1_555
H4E C4E 1_555 1_555
C5E C5 1_555 1_555
N1I Co1 1_555 1_555
C1I N1I 1_555 1_555
H1I C1I 1_555 1_555
C2I C1I 1_555 1_555
H2I C2I 1_555 1_555
C3I C2I 1_555 1_555
H3I C3I 1_555 1_555
C4I C3I 1_555 1_555
H4I C4I 1_555 1_555
C5I N1I 1_555 1_555
N1U Co1 1_555 1_555
C1U N1U 1_555 1_555
H1U C1U 1_555 1_555
C2U C1U 1_555 1_555
H2U C2U 1_555 1_555
C3U C2U 1_555 1_555
H3U C3U 1_555 1_555
C4U C3U 1_555 1_555
H4U C4U 1_555 1_555
C5U C5I 1_555 1_555
N1M Co1 1_555 1_555
C1M N1M 1_555 1_555
H1M C1M 1_555 1_555
C2M C1M 1_555 1_555
H2M C2M 1_555 1_555
C3M C2M 1_555 1_555
H3M C3M 1_555 1_555
C4M C3M 1_555 1_555
H4M C4M 1_555 1_555
C5M N1M 1_555 1_555
N1S Co1 1_555 1_555
C1S N1S 1_555 1_555
H1S C1S 1_555 1_555
C2S C1S 1_555 1_555
H2S C2S 1_555 1_555
C3S C2S 1_555 1_555
H3S C3S 1_555 1_555
C4S C3S 1_555 1_555
H4S C4S 1_555 1_555
C5S C5M 1_555 1_555
O1T C6 1_555 1_555
O2T C7 1_555 1_555
O1J Mn1 1_555 1_555
O2J Mn1 1_555 1_555
C6J O1J 1_555 1_555
C7J O2J 1_555 1_555
O1L C6J 1_555 1_555
O2L C7J 1_555 1_555
O1Q Mn1 1_555 1_555
O2Q Mn1 1_555 1_555
C6F O1Q 1_555 1_555
C7F O2Q 1_555 1_555
O1F C6F 1_555 1_555
O2F C7F 1_555 1_555
Mn1D O1T 1_555 1_555
Mn1E O1L 1_555 1_555
Mn1F O1F 1_555 1_555
O1D Mn1D 1_555 1_555
O1O Mn1D 1_555 1_555
O2D Mn1D 1_555 1_555
O2O Mn1D 1_555 1_555
C4 C5 1_555 1_555
N1E C5E 1_555 1_555
C4E C5E 1_555 1_555
C4I C5I 1_555 1_555
N1U C5U 1_555 1_555
C4U C5U 1_555 1_555
C4M C5M 1_555 1_555
N1S C5S 1_555 1_555
C4S C5S 1_555 1_555
O2T Mn1D 1_555 1_555
C6J C7J 1_555 1_555
O2L Mn1E 1_555 1_555
C6F C7F 1_555 1_555
O2F Mn1F 1_555 1_555

#END
