
#######################################################################
#
#                 Cambridge Crystallographic Data Centre
#                                CCDC 
#
#######################################################################
#
# If this CIF has been generated from an entry in the Cambridge 
# Structural Database, then it will include bibliographic, chemical, 
# crystal, experimental, refinement or atomic coordinate data resulting 
# from the CCDC's data processing and validation procedures.
#
#######################################################################

data_MOSPOB
_symmetry_cell_setting           monoclinic
_symmetry_space_group_name_H-M   'P 21/n'
_symmetry_Int_Tables_number      14
_space_group_name_Hall           '-P 2yn'
loop_
_symmetry_equiv_pos_site_id
_symmetry_equiv_pos_as_xyz
1 x,y,z
2 1/2-x,1/2+y,1/2-z
3 -x,-y,-z
4 1/2+x,1/2-y,1/2+z
_cell_length_a                   11.0286(7)
_cell_length_b                   8.1750(6)
_cell_length_c                   20.3318(14)
_cell_angle_alpha                90
_cell_angle_beta                 104.720(7)
_cell_angle_gamma                90
_cell_volume                     1772.93
loop_
_atom_site_label
_atom_site_type_symbol
_atom_site_fract_x
_atom_site_fract_y
_atom_site_fract_z
Cu1 Cu 0.25661(4) 0.03121(5) 0.19799(2)
N1 N 0.4138(3) -0.0319(3) 0.16768(16)
C1 C 0.5195(4) -0.0749(5) 0.2112(2)
H1 H 0.5260 -0.0623 0.2574
C2 C 0.6209(4) -0.1378(6) 0.1913(2)
H2 H 0.6933 -0.1676 0.2238
C3 C 0.6146(4) -0.1560(4) 0.1238(2)
C4 C 0.5042(4) -0.1157(6) 0.0784(2)
H3 H 0.4951 -0.1295 0.0320
C5 C 0.4071(4) -0.0550(6) 0.1018(2)
H4 H 0.3327 -0.0285 0.0702
C6 C 0.7215(4) -0.2221(5) 0.0979(2)
C7 C 0.8226(4) -0.3183(6) 0.1424(3)
H5 H 0.8487 -0.4031 0.1164
H6 H 0.7925 -0.3664 0.1784
H7 H 0.8924 -0.2480 0.1615
O1 O 0.7221(3) -0.1968(5) 0.03977(18)
C8 C 0.1712(4) 0.0294(4) 0.3465(2)
C9 C 0.1502(4) -0.0253(5) 0.4079(2)
H8 H 0.2143 -0.0198 0.4477
C10 C 0.0355(5) -0.0867(6) 0.4096(3)
H9 H 0.0213 -0.1213 0.4506
C11 C -0.0579(4) -0.0971(6) 0.3510(2)
H10 H -0.1353 -0.1405 0.3522
C12 C -0.0385(4) -0.0435(5) 0.2898(2)
H11 H -0.1033 -0.0503 0.2504
C13 C 0.0767(4) 0.0202(4) 0.2867(2)
N2 N -0.0068(3) 0.1217(4) 0.18163(16)
C14 C -0.0164(3) 0.1654(5) 0.11833(19)
C15 C 0.0809(4) 0.1678(4) 0.0816(2)
N3 N 0.0544(3) 0.2178(4) 0.01807(16)
H12 H 0.1117 0.2185 -0.0038
H13 H -0.0203 0.2498 -0.0016
C16 C -0.1400(4) 0.2184(6) 0.0831(2)
N4 N 0.0982(3) 0.0743(3) 0.22352(16)
N5 N -0.2371(4) 0.2608(6) 0.0543(2)
O2 O 0.3549(2) 0.0021(3) 0.29229(14)
O3 O 0.4054(3) 0.0656(3) 0.41103(14)
O4 O 0.1904(2) 0.1216(3) 0.10965(14)
S1 S 0.32209(9) 0.10098(12) 0.34653(5)
O5 O 0.3119(3) 0.2692(3) 0.32731(18)
Cu1A Cu 0.24339(4) 0.53121(5) 0.30201(2)
O5A O 0.1881(3) -0.2308(3) 0.17269(18)
loop_
_geom_bond_atom_site_label_1
_geom_bond_atom_site_label_2
_geom_bond_site_symmetry_1
_geom_bond_site_symmetry_2
Cu1 N1 1_555 1_555
N1 C1 1_555 1_555
C1 H1 1_555 1_555
C2 C1 1_555 1_555
H2 C2 1_555 1_555
C3 C2 1_555 1_555
C4 C3 1_555 1_555
H3 C4 1_555 1_555
C5 N1 1_555 1_555
H4 C5 1_555 1_555
C6 C3 1_555 1_555
C7 C6 1_555 1_555
H5 C7 1_555 1_555
H6 C7 1_555 1_555
H7 C7 1_555 1_555
O1 C6 1_555 1_555
C8 C9 1_555 1_555
C9 H8 1_555 1_555
C10 C9 1_555 1_555
H9 C10 1_555 1_555
C11 C10 1_555 1_555
H10 C11 1_555 1_555
C12 C11 1_555 1_555
H11 C12 1_555 1_555
C13 C8 1_555 1_555
N2 C14 1_555 1_555
C14 C15 1_555 1_555
C15 N3 1_555 1_555
N3 H12 1_555 1_555
H13 N3 1_555 1_555
C16 C14 1_555 1_555
N4 Cu1 1_555 1_555
N5 C16 1_555 1_555
O2 Cu1 1_555 1_555
O3 S1 1_555 1_555
O4 Cu1 1_555 1_555
S1 C8 1_555 1_555
O5 S1 1_555 1_555
Cu1A O5 1_555 1_555
O5A Cu1 1_555 1_555
C4 C5 1_555 1_555
C12 C13 1_555 1_555
C13 N4 1_555 1_555
N2 N4 1_555 1_555
C15 O4 1_555 1_555
O2 S1 1_555 1_555

#END
