
#######################################################################
#
#                 Cambridge Crystallographic Data Centre
#                                CCDC 
#
#######################################################################
#
# If this CIF has been generated from an entry in the Cambridge 
# Structural Database, then it will include bibliographic, chemical, 
# crystal, experimental, refinement or atomic coordinate data resulting 
# from the CCDC's data processing and validation procedures.
#
#######################################################################

data_MOSTEV
_symmetry_cell_setting           orthorhombic
_symmetry_space_group_name_H-M   'P b c n'
_symmetry_Int_Tables_number      60
_space_group_name_Hall           '-P 2n 2ab'
loop_
_symmetry_equiv_pos_site_id
_symmetry_equiv_pos_as_xyz
1 x,y,z
2 1/2-x,1/2-y,1/2+z
3 -x,y,1/2-z
4 1/2+x,1/2-y,-z
5 -x,-y,-z
6 1/2+x,1/2+y,1/2-z
7 x,-y,1/2+z
8 1/2-x,1/2+y,z
_cell_length_a                   25.2150(14)
_cell_length_b                   16.4859(10)
_cell_length_c                   28.9810(17)
_cell_angle_alpha                90
_cell_angle_beta                 90
_cell_angle_gamma                90
_cell_volume                     12047.2
loop_
_atom_site_label
_atom_site_type_symbol
_atom_site_fract_x
_atom_site_fract_y
_atom_site_fract_z
Ag1 Ag 0.51851(2) 0.88361(3) 0.17603(2)
Rh1 Rh 0.52555(2) 0.90075(3) 0.00815(2)
Rh2 Rh 0.31252(2) 0.79456(3) 0.16361(2)
Rh3 Rh 0.27469(2) 0.86801(3) 0.27340(2)
N1 N 0.6095(2) 1.1104(4) 0.07405(19)
N2 N 0.56172(19) 1.0175(3) 0.14393(16)
N3 N 0.44884(19) 0.9623(3) 0.19639(17)
N4 N 0.35487(19) 1.0477(3) 0.21138(17)
N5 N 0.4397(2) 0.7719(3) 0.3019(2)
N6 N 0.3824(2) 0.6511(3) 0.2580(2)
S1 S 0.55876(7) 1.03504(10) 0.00567(5)
S2 S 0.50565(7) 0.92940(11) 0.08624(5)
S3 S 0.40245(7) 0.82459(10) 0.17609(7)
S4 S 0.29275(6) 0.92042(9) 0.19731(6)
S5 S 0.36208(6) 0.87896(9) 0.29863(6)
S6 S 0.29827(6) 0.74272(9) 0.24036(6)
C1 C 0.5750(3) 1.0518(4) 0.0644(2)
C2 C 0.5506(2) 1.0049(4) 0.0991(2)
C3 C 0.5957(2) 1.0783(4) 0.1522(2)
H1 H 0.6035 1.0912 0.1834
C4 C 0.6194(3) 1.1220(4) 0.1191(3)
H2 H 0.6442 1.1627 0.1279
C5 C 0.4016(2) 0.9258(4) 0.1919(2)
C6 C 0.3551(2) 0.9693(3) 0.1996(2)
C7 C 0.4032(3) 1.0829(4) 0.2140(2)
H3 H 0.4052 1.1392 0.2209
C8 C 0.4493(2) 1.0412(4) 0.2073(2)
H4 H 0.4822 1.0686 0.2104
C9 C 0.3892(3) 0.7843(4) 0.2874(2)
C10 C 0.3613(2) 0.7225(3) 0.2645(2)
C11 C 0.4306(3) 0.6383(5) 0.2744(3)
H5 H 0.4459 0.5860 0.2714
C12 C 0.4589(3) 0.6975(4) 0.2956(3)
H6 H 0.4936 0.6855 0.3063
C13 C 0.5142(3) 0.7766(4) -0.0195(2)
C14 C 0.5443(3) 0.8248(4) -0.0516(2)
C15 C 0.5911(3) 0.8502(5) -0.0301(3)
C16 C 0.5911(4) 0.8197(5) 0.0159(3)
C17 C 0.5434(4) 0.7734(5) 0.0221(3)
C18 C 0.4636(4) 0.7356(6) -0.0283(4)
H7 H 0.4655 0.6797 -0.0169
H8 H 0.4565 0.7351 -0.0616
H9 H 0.4350 0.7645 -0.0123
C19 C 0.5308(4) 0.8351(5) -0.1021(2)
H10 H 0.5410 0.8896 -0.1123
H11 H 0.4926 0.8277 -0.1065
H12 H 0.5501 0.7946 -0.1204
C20 C 0.6339(4) 0.9003(7) -0.0534(4)
H13 H 0.6454 0.9436 -0.0326
H14 H 0.6196 0.9242 -0.0818
H15 H 0.6641 0.8654 -0.0610
C21 C 0.6340(4) 0.8269(7) 0.0512(4)
H16 H 0.6529 0.7751 0.0537
H17 H 0.6183 0.8407 0.0811
H18 H 0.6589 0.8695 0.0419
C22 C 0.5294(5) 0.7245(6) 0.0646(3)
H19 H 0.5253 0.6673 0.0562
H20 H 0.4960 0.7447 0.0777
H21 H 0.5577 0.7299 0.0875
C23 C 0.3125(4) 0.7981(6) 0.0894(3)
C24 C 0.3262(4) 0.7164(7) 0.1051(4)
C25 C 0.2788(5) 0.6901(5) 0.1295(3)
C26 C 0.2418(5) 0.7522(8) 0.1277(4)
C27 C 0.2592(5) 0.8142(7) 0.1030(4)
C28 C 0.3430(6) 0.8569(9) 0.0596(4)
H22 H 0.3791 0.8627 0.0717
H23 H 0.3252 0.9098 0.0600
H24 H 0.3445 0.8364 0.0279
C29 C 0.3786(7) 0.6742(12) 0.0947(5)
H25 H 0.3815 0.6647 0.0614
H26 H 0.3799 0.6222 0.1111
H27 H 0.4080 0.7086 0.1049
C30 C 0.2734(7) 0.6061(6) 0.1494(4)
H28 H 0.2547 0.6091 0.1790
H29 H 0.3088 0.5828 0.1542
H30 H 0.2533 0.5719 0.1280
C31 C 0.1839(5) 0.7390(11) 0.1475(5)
H31 H 0.1766 0.7800 0.1711
H32 H 0.1813 0.6848 0.1611
H33 H 0.1581 0.7441 0.1224
C32 C 0.2297(7) 0.8875(9) 0.0917(5)
H34 H 0.2139 0.8819 0.0610
H35 H 0.2537 0.9342 0.0920
H36 H 0.2015 0.8957 0.1146
C33 C 0.2247(2) 0.9637(4) 0.3008(2)
C34 C 0.1915(3) 0.9096(4) 0.2749(2)
C35 C 0.1946(2) 0.8327(4) 0.2946(2)
C36 C 0.2298(3) 0.8373(4) 0.3335(2)
C37 C 0.2464(3) 0.9198(4) 0.3379(2)
C38 C 0.2332(3) 1.0532(4) 0.2922(3)
H37 H 0.2067 1.0845 0.3093
H38 H 0.2297 1.0645 0.2591
H39 H 0.2688 1.0687 0.3025
C39 C 0.1575(3) 0.9335(4) 0.2344(3)
H40 H 0.1265 0.9637 0.2455
H41 H 0.1456 0.8846 0.2182
H42 H 0.1781 0.9676 0.2134
C40 C 0.1654(3) 0.7590(4) 0.2794(3)
H43 H 0.1338 0.7517 0.2986
H44 H 0.1884 0.7114 0.2825
H45 H 0.1547 0.7652 0.2471
C41 C 0.2419(4) 0.7707(5) 0.3678(3)
H46 H 0.2782 0.7772 0.3793
H47 H 0.2384 0.7178 0.3526
H48 H 0.2169 0.7739 0.3936
C42 C 0.2778(3) 0.9553(5) 0.3775(3)
H49 H 0.2859 1.0123 0.3710
H50 H 0.3110 0.9249 0.3812
H51 H 0.2570 0.9515 0.4060
Ag1B Ag 0.48149(2) 0.88361(3) 0.32397(2)
Rh1D Rh 0.47445(2) 1.09925(3) -0.00815(2)
N5B N 0.5603(2) 0.7719(3) 0.1981(2)
S1D S 0.44124(7) 0.96496(10) -0.00567(5)
loop_
_geom_bond_atom_site_label_1
_geom_bond_atom_site_label_2
_geom_bond_site_symmetry_1
_geom_bond_site_symmetry_2
Ag1 N2 1_555 1_555
Rh1 S1 1_555 1_555
Rh2 S3 1_555 1_555
Rh3 S4 1_555 1_555
N1 C1 1_555 1_555
N2 C2 1_555 1_555
N3 Ag1 1_555 1_555
N4 C6 1_555 1_555
N5 C9 1_555 1_555
N6 C10 1_555 1_555
S1 C1 1_555 1_555
S2 Ag1 1_555 1_555
S3 C5 1_555 1_555
S4 Rh2 1_555 1_555
S5 Rh3 1_555 1_555
S6 Rh2 1_555 1_555
C1 C2 1_555 1_555
C2 S2 1_555 1_555
C3 N2 1_555 1_555
H1 C3 1_555 1_555
C4 N1 1_555 1_555
H2 C4 1_555 1_555
C5 N3 1_555 1_555
C6 S4 1_555 1_555
C7 N4 1_555 1_555
H3 C7 1_555 1_555
C8 N3 1_555 1_555
H4 C8 1_555 1_555
C9 S5 1_555 1_555
C10 S6 1_555 1_555
C11 N6 1_555 1_555
H5 C11 1_555 1_555
C12 N5 1_555 1_555
H6 C12 1_555 1_555
C13 Rh1 1_555 1_555
C14 Rh1 1_555 1_555
C15 Rh1 1_555 1_555
C16 Rh1 1_555 1_555
C17 Rh1 1_555 1_555
C18 C13 1_555 1_555
H7 C18 1_555 1_555
H8 C18 1_555 1_555
H9 C18 1_555 1_555
C19 C14 1_555 1_555
H10 C19 1_555 1_555
H11 C19 1_555 1_555
H12 C19 1_555 1_555
C20 C15 1_555 1_555
H13 C20 1_555 1_555
H14 C20 1_555 1_555
H15 C20 1_555 1_555
C21 C16 1_555 1_555
H16 C21 1_555 1_555
H17 C21 1_555 1_555
H18 C21 1_555 1_555
C22 C17 1_555 1_555
H19 C22 1_555 1_555
H20 C22 1_555 1_555
H21 C22 1_555 1_555
C23 Rh2 1_555 1_555
C24 Rh2 1_555 1_555
C25 Rh2 1_555 1_555
C26 Rh2 1_555 1_555
C27 Rh2 1_555 1_555
C28 C23 1_555 1_555
H22 C28 1_555 1_555
H23 C28 1_555 1_555
H24 C28 1_555 1_555
C29 C24 1_555 1_555
H25 C29 1_555 1_555
H26 C29 1_555 1_555
H27 C29 1_555 1_555
C30 C25 1_555 1_555
H28 C30 1_555 1_555
H29 C30 1_555 1_555
H30 C30 1_555 1_555
C31 C26 1_555 1_555
H31 C31 1_555 1_555
H32 C31 1_555 1_555
H33 C31 1_555 1_555
C32 C27 1_555 1_555
H34 C32 1_555 1_555
H35 C32 1_555 1_555
H36 C32 1_555 1_555
C33 Rh3 1_555 1_555
C34 Rh3 1_555 1_555
C35 Rh3 1_555 1_555
C36 Rh3 1_555 1_555
C37 Rh3 1_555 1_555
C38 C33 1_555 1_555
H37 C38 1_555 1_555
H38 C38 1_555 1_555
H39 C38 1_555 1_555
C39 C34 1_555 1_555
H40 C39 1_555 1_555
H41 C39 1_555 1_555
H42 C39 1_555 1_555
C40 C35 1_555 1_555
H43 C40 1_555 1_555
H44 C40 1_555 1_555
H45 C40 1_555 1_555
C41 C36 1_555 1_555
H46 C41 1_555 1_555
H47 C41 1_555 1_555
H48 C41 1_555 1_555
C42 C37 1_555 1_555
H49 C42 1_555 1_555
H50 C42 1_555 1_555
H51 C42 1_555 1_555
Ag1B N5 1_555 1_555
Rh1D S1 1_555 1_555
N5B Ag1 1_555 1_555
S1D Rh1 1_555 1_555
Rh1 S2 1_555 1_555
Rh3 S6 1_555 1_555
C3 C4 1_555 1_555
C5 C6 1_555 1_555
C7 C8 1_555 1_555
C9 C10 1_555 1_555
C11 C12 1_555 1_555
C13 C14 1_555 1_555
C13 C17 1_555 1_555
C14 C15 1_555 1_555
C15 C16 1_555 1_555
C16 C17 1_555 1_555
C23 C24 1_555 1_555
C23 C27 1_555 1_555
C24 C25 1_555 1_555
C25 C26 1_555 1_555
C26 C27 1_555 1_555
C33 C34 1_555 1_555
C33 C37 1_555 1_555
C34 C35 1_555 1_555
C35 C36 1_555 1_555
C36 C37 1_555 1_555
Rh1D S1D 1_555 1_555

#END
