
#######################################################################
#
#                 Cambridge Crystallographic Data Centre
#                                CCDC 
#
#######################################################################
#
# If this CIF has been generated from an entry in the Cambridge 
# Structural Database, then it will include bibliographic, chemical, 
# crystal, experimental, refinement or atomic coordinate data resulting 
# from the CCDC's data processing and validation procedures.
#
#######################################################################

data_MOSZEA
_symmetry_cell_setting           triclinic
_symmetry_space_group_name_H-M   'P -1'
_symmetry_Int_Tables_number      2
_space_group_name_Hall           '-P 1'
loop_
_symmetry_equiv_pos_site_id
_symmetry_equiv_pos_as_xyz
1 x,y,z
2 -x,-y,-z
_cell_length_a                   8.2998(12)
_cell_length_b                   10.0819(15)
_cell_length_c                   17.318(3)
_cell_angle_alpha                96.652(2)
_cell_angle_beta                 100.629(2)
_cell_angle_gamma                108.077(2)
_cell_volume                     1330.53
loop_
_atom_site_label
_atom_site_type_symbol
_atom_site_fract_x
_atom_site_fract_y
_atom_site_fract_z
Ni1 Ni 0.69956(7) 1.19003(6) 0.87739(3)
Ni2 Ni 0.85659(8) 1.36762(7) 0.60834(4)
S1 S -0.22307(15) 0.77425(14) 0.74915(8)
O1 O 0.8982(4) 1.1719(4) 0.6830(2)
O2 O 0.7107(4) 1.1265(4) 0.76286(19)
O3 O 0.7748(4) 1.2547(4) 0.99695(19)
O4 O 1.0135(4) 1.3775(4) 1.0943(2)
O5 O 0.9194(5) 1.2964(4) 0.5084(2)
O6 O 0.8012(6) 1.1538(5) 0.3893(2)
O7 O 0.7154(5) 1.4040(4) 0.6856(2)
O8 O 0.4478(5) 1.3199(4) 0.7064(2)
O9 O 0.6629(4) 1.4007(4) 0.8577(2)
H1 H 0.7581 1.4660 0.8704
H2 H 0.6180 1.3885 0.8091
O10 O 0.8030(7) 1.5901(5) 0.5634(3)
H3 H 0.7961 1.6337 0.6070
H4 H 0.8897 1.6361 0.5461
N1 N 0.9442(5) 1.2626(4) 0.8884(2)
N2 N 0.6305(5) 1.2512(4) 0.5473(2)
N3 N 0.4516(5) 1.0892(4) 0.8666(2)
N4 N -0.1779(5) 0.9038(5) 0.8903(2)
N5 N -0.3530(5) 0.8299(5) 0.8649(2)
N6 N -0.9129(5) 0.4965(4) 0.6684(2)
C1 C 0.8619(6) 1.1791(5) 0.7489(3)
C2 C 1.0073(6) 1.2550(5) 0.8231(3)
C3 C 1.1824(6) 1.3118(5) 0.8283(3)
H5 H 1.2270 1.3079 0.7830
C4 C 1.2911(6) 1.3751(6) 0.9028(3)
H6 H 1.4109 1.4131 0.9081
C5 C 1.2227(6) 1.3823(5) 0.9695(3)
H7 H 1.2954 1.4258 1.0197
C6 C 1.0453(6) 1.3240(5) 0.9606(3)
C7 C 0.9391(6) 1.3217(5) 1.0237(3)
C8 C 0.7873(8) 1.2105(6) 0.4531(3)
C9 C 0.6145(7) 1.1851(6) 0.4741(3)
C10 C 0.4519(7) 1.1018(6) 0.4266(3)
H8 H 0.4389 1.0541 0.3753
C11 C 0.3092(8) 1.0937(6) 0.4600(4)
H9 H 0.1978 1.0410 0.4296
C12 C 0.3289(7) 1.1626(6) 0.5379(3)
H10 H 0.2333 1.1554 0.5601
C13 C 0.4961(7) 1.2415(6) 0.5803(3)
C14 C 0.5516(7) 1.3255(6) 0.6637(3)
C15 C 0.3472(6) 1.0279(5) 0.7932(3)
H11 H 0.3966 1.0319 0.7491
C16 C 0.1708(6) 0.9599(5) 0.7813(3)
H12 H 0.1027 0.9185 0.7301
C17 C 0.0954(6) 0.9536(5) 0.8465(3)
C18 C 0.2028(6) 1.0150(5) 0.9222(3)
H13 H 0.1568 1.0116 0.9672
C19 C 0.3778(6) 1.0807(5) 0.9293(3)
H14 H 0.4487 1.1214 0.9801
C20 C -0.0923(6) 0.8850(5) 0.8354(3)
C21 C -0.3974(6) 0.7566(5) 0.7930(3)
C22 C -0.7763(6) 0.5116(6) 0.6344(3)
H15 H -0.7956 0.4638 0.5825
C23 C -0.6101(7) 0.5949(6) 0.6736(3)
H16 H -0.5192 0.6017 0.6482
C24 C -0.5758(6) 0.6691(5) 0.7506(3)
C25 C -0.7166(6) 0.6548(5) 0.7860(3)
H17 H -0.7005 0.7013 0.8379
C26 C -0.8812(6) 0.5695(5) 0.7419(3)
H18 H -0.9752 0.5629 0.7651
Ni2_2 Ni -1.14341(8) 0.36762(7) 0.60834(4)
N6_2 N 1.0871(5) 1.4965(4) 0.6684(2)
loop_
_geom_bond_atom_site_label_1
_geom_bond_atom_site_label_2
_geom_bond_site_symmetry_1
_geom_bond_site_symmetry_2
Ni1 O2 1_555 1_555
Ni2 O1 1_555 1_555
S1 C20 1_555 1_555
O1 C1 1_555 1_555
O2 C1 1_555 1_555
O3 Ni1 1_555 1_555
O4 C7 1_555 1_555
O5 Ni2 1_555 1_555
O6 C8 1_555 1_555
O7 Ni2 1_555 1_555
O8 C14 1_555 1_555
O9 Ni1 1_555 1_555
H1 O9 1_555 1_555
H2 O9 1_555 1_555
O10 Ni2 1_555 1_555
H3 O10 1_555 1_555
H4 O10 1_555 1_555
N1 Ni1 1_555 1_555
N2 Ni2 1_555 1_555
N3 Ni1 1_555 1_555
N4 N5 1_555 1_555
N5 C21 1_555 1_555
N6 C22 1_555 1_555
C1 C2 1_555 1_555
C2 N1 1_555 1_555
C3 C2 1_555 1_555
H5 C3 1_555 1_555
C4 C3 1_555 1_555
H6 C4 1_555 1_555
C5 C4 1_555 1_555
H7 C5 1_555 1_555
C6 N1 1_555 1_555
C7 O3 1_555 1_555
C8 O5 1_555 1_555
C9 N2 1_555 1_555
C10 C9 1_555 1_555
H8 C10 1_555 1_555
C11 C10 1_555 1_555
H9 C11 1_555 1_555
C12 C11 1_555 1_555
H10 C12 1_555 1_555
C13 N2 1_555 1_555
C14 O7 1_555 1_555
C15 N3 1_555 1_555
H11 C15 1_555 1_555
C16 C15 1_555 1_555
H12 C16 1_555 1_555
C17 C16 1_555 1_555
C18 C17 1_555 1_555
H13 C18 1_555 1_555
C19 N3 1_555 1_555
H14 C19 1_555 1_555
C20 N4 1_555 1_555
C21 S1 1_555 1_555
C22 H15 1_555 1_555
C23 C22 1_555 1_555
H16 C23 1_555 1_555
C24 C21 1_555 1_555
C25 C24 1_555 1_555
H17 C25 1_555 1_555
C26 N6 1_555 1_555
H18 C26 1_555 1_555
Ni2_2 N6 1_555 1_555
N6_2 Ni2 1_555 1_555
C5 C6 1_555 1_555
C6 C7 1_555 1_555
C8 C9 1_555 1_555
C12 C13 1_555 1_555
C13 C14 1_555 1_555
C17 C20 1_555 1_555
C18 C19 1_555 1_555
C23 C24 1_555 1_555
C25 C26 1_555 1_555

#END
