
#######################################################################
#
#                 Cambridge Crystallographic Data Centre
#                                CCDC 
#
#######################################################################
#
# If this CIF has been generated from an entry in the Cambridge 
# Structural Database, then it will include bibliographic, chemical, 
# crystal, experimental, refinement or atomic coordinate data resulting 
# from the CCDC's data processing and validation procedures.
#
#######################################################################

data_MOSZOK
_symmetry_cell_setting           triclinic
_symmetry_space_group_name_H-M   'P -1'
_symmetry_Int_Tables_number      2
_space_group_name_Hall           '-P 1'
loop_
_symmetry_equiv_pos_site_id
_symmetry_equiv_pos_as_xyz
1 x,y,z
2 -x,-y,-z
_cell_length_a                   8.135(2)
_cell_length_b                   8.834(3)
_cell_length_c                   10.015(3)
_cell_angle_alpha                70.545(4)
_cell_angle_beta                 71.103(4)
_cell_angle_gamma                75.785(4)
_cell_volume                     634.359
loop_
_atom_site_label
_atom_site_type_symbol
_atom_site_fract_x
_atom_site_fract_y
_atom_site_fract_z
Ni1 Ni 0.04021(3) 0.15037(3) 0.87985(3)
N1 N -0.0829(2) 0.3069(2) 0.73316(19)
N2 N -0.0529(2) 0.5376(2) 0.7868(2)
H1 H -0.1179 0.6218 0.8116
N3 N 0.1739(2) 0.3286(2) 0.85495(19)
O1 O 0.2311(2) 0.0443(2) 0.70594(17)
C1 C 0.5204(3) -0.0107(3) 0.5612(2)
H2 H 0.6387 -0.0250 0.5576
O3 O 0.13677(18) -0.00305(18) 1.03993(15)
C2 C -0.1404(3) 0.2457(3) 0.6520(2)
H3 H -0.1120 0.1347 0.6615
C3 C -0.2378(3) 0.3391(3) 0.5568(3)
H4 H -0.2765 0.2925 0.5039
C4 C -0.2782(3) 0.5056(3) 0.5407(3)
H5 H -0.3457 0.5719 0.4776
C5 C -0.2178(3) 0.5707(3) 0.6181(3)
H6 H -0.2429 0.6819 0.6076
C6 C -0.1178(3) 0.4688(3) 0.7134(2)
C7 C 0.1043(3) 0.4872(3) 0.8252(2)
C8 C 0.1878(3) 0.6062(3) 0.8296(3)
H7 H 0.1352 0.7144 0.8122
C9 C 0.3477(3) 0.5600(3) 0.8600(3)
H8 H 0.4049 0.6367 0.8643
C10 C 0.4246(3) 0.3974(3) 0.8844(3)
H9 H 0.5349 0.3642 0.9026
C11 C 0.3345(3) 0.2878(3) 0.8812(2)
H10 H 0.3861 0.1792 0.8978
C12 C 0.3878(3) -0.0135(3) 0.7062(2)
O4 O 0.4437(2) -0.0761(2) 0.81955(17)
H13 H 0.231(3) -0.046(4) 0.995(3)
Ni1A Ni 0.95979(3) -0.15037(3) 0.12015(3)
Ni1A_2 Ni -0.04021(3) -0.15037(3) 1.12015(3)
N1A N 1.0829(2) -0.3069(2) 0.26684(19)
N2A N 1.0529(2) -0.5376(2) 0.2132(2)
H1A H 1.1179 -0.6218 0.1884
N3A N 0.8261(2) -0.3286(2) 0.14505(19)
O1A O 0.7689(2) -0.0443(2) 0.29406(17)
C1A C 0.4796(3) 0.0107(3) 0.4388(2)
H2A H 0.3613 0.0250 0.4424
O3A O -0.13677(18) 0.00305(18) 0.96007(15)
O3A_2 O 0.86323(18) 0.00305(18) -0.03993(15)
O3_2 O 1.13677(18) -0.00305(18) 0.03993(15)
C2A C 1.1404(3) -0.2457(3) 0.3480(2)
H3A H 1.1120 -0.1347 0.3385
C3A C 1.2378(3) -0.3391(3) 0.4432(3)
H4A H 1.2765 -0.2925 0.4961
C4A C 1.2782(3) -0.5056(3) 0.4593(3)
H5A H 1.3457 -0.5719 0.5224
C5A C 1.2178(3) -0.5707(3) 0.3819(3)
H6A H 1.2429 -0.6819 0.3924
C6A C 1.1178(3) -0.4688(3) 0.2866(2)
C7A C 0.8957(3) -0.4872(3) 0.1748(2)
C8A C 0.8122(3) -0.6062(3) 0.1704(3)
H7A H 0.8648 -0.7144 0.1878
C9A C 0.6523(3) -0.5600(3) 0.1400(3)
H8A H 0.5951 -0.6367 0.1357
C10A C 0.5754(3) -0.3974(3) 0.1156(3)
H9A H 0.4651 -0.3642 0.0974
C11A C 0.6655(3) -0.2878(3) 0.1188(2)
H10A H 0.6139 -0.1792 0.1022
C12A C 0.6122(3) 0.0135(3) 0.2938(2)
O4A O 0.5563(2) 0.0761(2) 0.18045(17)
H13A H -0.231(3) 0.046(4) 1.005(3)
H13A_2 H 0.769(3) 0.046(4) 0.005(3)
H13_2 H 1.231(3) -0.046(4) -0.005(3)
O2 O 0.1972(2) 0.1399(2) 0.22330(18)
H11 H 0.168(4) 0.101(4) 0.169(3)
H12 H 0.3066(15) 0.122(4) 0.212(4)
loop_
_geom_bond_atom_site_label_1
_geom_bond_atom_site_label_2
_geom_bond_site_symmetry_1
_geom_bond_site_symmetry_2
Ni1 N1 1_555 1_555
N1 C2 1_555 1_555
N2 H1 1_555 1_555
N3 Ni1 1_555 1_555
O1 Ni1 1_555 1_555
C1 H2 1_555 1_555
O2 H11 1_555 1_555
O3 Ni1 1_555 1_555
C2 H3 1_555 1_555
C3 C2 1_555 1_555
H4 C3 1_555 1_555
C4 C3 1_555 1_555
H5 C4 1_555 1_555
C5 C4 1_555 1_555
H6 C5 1_555 1_555
C6 N1 1_555 1_555
C7 N2 1_555 1_555
C8 C7 1_555 1_555
H7 C8 1_555 1_555
C9 C8 1_555 1_555
H8 C9 1_555 1_555
C10 C9 1_555 1_555
H9 C10 1_555 1_555
C11 N3 1_555 1_555
H10 C11 1_555 1_555
C12 O1 1_555 1_555
O4 C12 1_555 1_555
H12 O2 1_555 1_555
H13 O3 1_555 1_555
Ni1A N1A 1_555 1_555
Ni1A_2 O3 1_555 1_555
N1A C2A 1_555 1_555
N2A H1A 1_555 1_555
N3A Ni1A 1_555 1_555
O1A Ni1A 1_555 1_555
C1A C1 1_555 1_555
H2A C1A 1_555 1_555
O3A Ni1 1_555 1_555
O3A_2 Ni1A 1_555 1_555
O3_2 Ni1A 1_555 1_555
C2A H3A 1_555 1_555
C3A C2A 1_555 1_555
H4A C3A 1_555 1_555
C4A C3A 1_555 1_555
H5A C4A 1_555 1_555
C5A C4A 1_555 1_555
H6A C5A 1_555 1_555
C6A N1A 1_555 1_555
C7A N2A 1_555 1_555
C8A C7A 1_555 1_555
H7A C8A 1_555 1_555
C9A C8A 1_555 1_555
H8A C9A 1_555 1_555
C10A C9A 1_555 1_555
H9A C10A 1_555 1_555
C11A N3A 1_555 1_555
H10A C11A 1_555 1_555
C12A O1A 1_555 1_555
O4A C12A 1_555 1_555
H13A O3A 1_555 1_555
H13A_2 O3A_2 1_555 1_555
H13_2 O3_2 1_555 1_555
N2 C6 1_555 1_555
N3 C7 1_555 1_555
C1 C12 1_555 1_555
C5 C6 1_555 1_555
C10 C11 1_555 1_555
Ni1A_2 O3A 1_555 1_555
N2A C6A 1_555 1_555
N3A C7A 1_555 1_555
C1A C12A 1_555 1_555
C5A C6A 1_555 1_555
C10A C11A 1_555 1_555

#END
