
#######################################################################
#
#                 Cambridge Crystallographic Data Centre
#                                CCDC 
#
#######################################################################
#
# If this CIF has been generated from an entry in the Cambridge 
# Structural Database, then it will include bibliographic, chemical, 
# crystal, experimental, refinement or atomic coordinate data resulting 
# from the CCDC's data processing and validation procedures.
#
#######################################################################

data_MOTLIQ
_symmetry_cell_setting           triclinic
_symmetry_space_group_name_H-M   'P -1'
_symmetry_Int_Tables_number      2
_space_group_name_Hall           '-P 1'
loop_
_symmetry_equiv_pos_site_id
_symmetry_equiv_pos_as_xyz
1 x,y,z
2 -x,-y,-z
_cell_length_a                   12.500(3)
_cell_length_b                   12.825(3)
_cell_length_c                   19.342(4)
_cell_angle_alpha                106.82(3)
_cell_angle_beta                 102.51(3)
_cell_angle_gamma                103.04(3)
_cell_volume                     2756.29
loop_
_atom_site_label
_atom_site_type_symbol
_atom_site_fract_x
_atom_site_fract_y
_atom_site_fract_z
Pt1 Pt 1.0000 0.5000 0.5000
Pt2 Pt 1.0000 1.0000 0.0000
Na1 Na 0.9990(2) 0.67487(19) 0.21013(14)
Na2 Na 0.4568(2) 0.29552(19) 0.27965(13)
N1 N 0.9501(7) 0.5686(5) 0.2913(4)
N2 N 0.6394(5) 0.3306(5) 0.3869(4)
N3 N 0.9700(7) 0.8207(6) 0.5719(5)
N4 N 1.0722(5) 0.8049(5) 0.1429(3)
N5 N 0.2888(6) 0.2637(5) 0.1672(4)
N6 N 0.6935(9) 0.9860(9) 0.0500(6)
O1 O 0.7906(3) 0.5977(4) 0.0821(3)
O2 O 0.9293(5) 0.4788(4) 0.0945(3)
O3 O 1.1489(4) 0.5709(4) 0.1970(3)
O4 O 1.2153(4) 0.7669(4) 0.3191(3)
O5 O 1.0469(4) 0.8484(3) 0.3289(3)
O6 O 0.8330(4) 0.7818(3) 0.2056(2)
O7 O 0.3858(4) 0.4534(3) 0.3522(3)
O8 O 0.5347(4) 0.5151(4) 0.2923(3)
O9 O 0.5806(6) 0.3481(6) 0.1967(4)
O10 O 0.5059(5) 0.1300(4) 0.1941(3)
O11 O 0.3759(3) 0.0829(3) 0.2695(2)
O12 O 0.2844(4) 0.2341(3) 0.3301(3)
S1 S 0.94739(17) 0.40595(14) 0.36897(10)
S2 S 0.84747(14) 0.35650(14) 0.50383(10)
S3 S 0.86784(16) 0.60293(15) 0.46834(11)
S4 S 1.16279(14) 0.96460(13) 0.07967(9)
S5 S 0.11615(15) 0.18631(13) 0.02260(9)
S6 S 0.94956(18) 1.06695(16) 0.10779(10)
C1 C 0.7429(6) 0.4872(6) 0.0372(4)
C2 C 0.6309(7) 0.4391(7) -0.0136(5)
C3 C 0.5927(8) 0.3255(9) -0.0583(6)
C4 C 0.6655(9) 0.2603(8) -0.0441(6)
C5 C 0.7794(8) 0.3076(6) 0.0075(5)
C6 C 0.8167(6) 0.4222(6) 0.0468(4)
C7 C 1.0131(7) 0.4187(7) 0.0945(6)
C8 C 1.1353(8) 0.5106(8) 0.1240(6)
C9 C 1.2677(6) 0.6416(6) 0.2374(5)
C10 C 1.2842(7) 0.6929(7) 0.3180(5)
C11 C 1.2267(7) 0.8299(5) 0.3918(4)
C12 C 1.3234(7) 0.8509(6) 0.4557(5)
C13 C 1.3235(9) 0.9141(7) 0.5265(5)
C14 C 1.2303(10) 0.9509(7) 0.5309(5)
C15 C 1.1372(8) 0.9290(6) 0.4672(4)
C16 C 1.1351(7) 0.8714(5) 0.3964(4)
C17 C 0.9551(6) 0.8976(6) 0.3313(4)
C18 C 0.8961(6) 0.8973(5) 0.2535(5)
C19 C 0.7820(6) 0.7818(5) 0.1310(4)
C20 C 0.7123(6) 0.6634(6) 0.0809(4)
C21 C 0.4668(7) 0.5531(6) 0.3925(4)
C22 C 0.4693(8) 0.6204(7) 0.4626(5)
C23 C 0.5496(11) 0.7194(9) 0.4981(6)
C24 C 0.6360(9) 0.7593(7) 0.4689(6)
C25 C 0.6395(8) 0.6946(8) 0.3965(8)
C26 C 0.5476(7) 0.5879(6) 0.3611(5)
C27 C 0.6236(10) 0.5437(9) 0.2603(8)
C28 C 0.5813(12) 0.4552(11) 0.1853(8)
C29 C 0.5463(12) 0.2531(9) 0.1263(7)
C30 C 0.5791(12) 0.1585(8) 0.1531(7)
C31 C 0.5169(6) 0.0423(5) 0.2203(4)
C32 C 0.5903(7) -0.0217(6) 0.2084(5)
C33 C 0.5944(6) -0.1072(6) 0.2402(5)
C34 C 0.5247(6) -0.1341(6) 0.2804(4)
C35 C 0.4489(6) -0.0705(5) 0.2921(4)
C36 C 0.4458(5) 0.0152(5) 0.2612(3)
C37 C 0.2919(6) 0.0494(5) 0.3054(4)
C38 C 0.2130(6) 0.1201(5) 0.2941(4)
C39 C 0.2139(6) 0.3101(6) 0.3273(4)
C40 C 0.2915(7) 0.4181(6) 0.3813(4)
C41 C 0.9511(6) 0.5052(6) 0.3255(4)
C42 C 0.7261(6) 0.3442(5) 0.4323(4)
C43 C 0.9338(7) 0.7325(7) 0.5307(5)
C44 C 1.1034(5) 0.8688(5) 0.1156(3)
C45 C 0.2147(6) 0.2278(5) 0.1087(4)
C46 C 0.8017(9) 1.0236(7) 0.0727(5)
N1A N 1.0499(7) 0.4314(5) 0.7087(4)
S1A S 1.05261(17) 0.59405(14) 0.63103(10)
C41A C 1.0489(6) 0.4948(6) 0.6745(4)
N2A N 1.3606(5) 0.6694(5) 0.6131(4)
S2A S 1.15253(14) 0.64350(14) 0.49617(10)
C42A C 1.2739(6) 0.6558(5) 0.5677(4)
N3A N 1.0300(7) 0.1793(6) 0.4281(5)
S3A S 1.13216(16) 0.39707(15) 0.53166(11)
C43A C 1.0662(7) 0.2675(7) 0.4693(5)
Na1A Na 1.0010(2) 0.32513(19) 0.78987(14)
Na2A Na 1.5432(2) 0.70448(19) 0.72035(13)
N4A N 0.9278(5) 0.1951(5) 0.8571(3)
S4A S 0.83721(14) 0.03540(13) 0.92033(9)
C44A C 0.8966(5) 0.1312(5) 0.8844(3)
O1A O 1.2094(3) 0.4023(4) 0.9179(3)
O2A O 1.0707(5) 0.5212(4) 0.9055(3)
O3A O 0.8511(4) 0.4291(4) 0.8030(3)
O4A O 0.7847(4) 0.2331(4) 0.6809(3)
O5A O 0.9531(4) 0.1516(3) 0.6711(3)
O6A O 1.1670(4) 0.2182(3) 0.7944(2)
C1A C 1.2571(6) 0.5128(6) 0.9628(4)
C2A C 1.3691(7) 0.5609(7) 1.0136(5)
C3A C 1.4073(8) 0.6745(9) 1.0583(6)
C4A C 1.3345(9) 0.7397(8) 1.0441(6)
C5A C 1.2206(8) 0.6924(6) 0.9925(5)
C6A C 1.1833(6) 0.5778(6) 0.9532(4)
C7A C 0.9869(7) 0.5813(7) 0.9055(6)
C8A C 0.8647(8) 0.4894(8) 0.8760(6)
C9A C 0.7323(6) 0.3584(6) 0.7626(5)
C10A C 0.7158(7) 0.3071(7) 0.6820(5)
C11A C 0.7733(7) 0.1701(5) 0.6082(4)
C12A C 0.6766(7) 0.1491(6) 0.5443(5)
C13A C 0.6765(9) 0.0859(7) 0.4735(5)
C14A C 0.7697(10) 0.0491(7) 0.4691(5)
C15A C 0.8628(8) 0.0710(6) 0.5328(4)
C16A C 0.8649(7) 0.1286(5) 0.6036(4)
C17A C 1.0449(6) 0.1024(6) 0.6687(4)
C18A C 1.1039(6) 0.1027(5) 0.7465(5)
C19A C 1.2180(6) 0.2182(5) 0.8690(4)
C20A C 1.2877(6) 0.3366(6) 0.9191(4)
N5A N 1.7112(6) 0.7363(5) 0.8328(4)
S5A S 1.88385(15) 0.81369(13) 0.97740(9)
C45A C 1.7853(6) 0.7722(5) 0.8913(4)
O7A O 1.6142(4) 0.5466(3) 0.6478(3)
O8A O 1.4653(4) 0.4849(4) 0.7077(3)
O9A O 1.4194(6) 0.6519(6) 0.8033(4)
O10A O 1.4941(5) 0.8700(4) 0.8059(3)
O11A O 1.6241(3) 0.9171(3) 0.7305(2)
O12A O 1.7156(4) 0.7659(3) 0.6699(3)
C21A C 1.5332(7) 0.4469(6) 0.6075(4)
C22A C 1.5307(8) 0.3796(7) 0.5374(5)
C23A C 1.4504(11) 0.2806(9) 0.5019(6)
C24A C 1.3640(9) 0.2407(7) 0.5311(6)
C25A C 1.3605(8) 0.3054(8) 0.6035(8)
C26A C 1.4524(7) 0.4121(6) 0.6389(5)
C27A C 1.3764(10) 0.4563(9) 0.7397(8)
C28A C 1.4187(12) 0.5448(11) 0.8147(8)
C29A C 1.4537(12) 0.7469(9) 0.8737(7)
C30A C 1.4209(12) 0.8415(8) 0.8469(7)
C31A C 1.4831(6) 0.9577(5) 0.7797(4)
C32A C 1.4097(7) 1.0217(6) 0.7916(5)
C33A C 1.4056(6) 1.1072(6) 0.7598(5)
C34A C 1.4753(6) 1.1341(6) 0.7196(4)
C35A C 1.5511(6) 1.0705(5) 0.7079(4)
C36A C 1.5542(5) 0.9848(5) 0.7388(3)
C37A C 1.7081(6) 0.9506(5) 0.6946(4)
C38A C 1.7870(6) 0.8799(5) 0.7059(4)
C39A C 1.7861(6) 0.6899(6) 0.6727(4)
C40A C 1.7085(7) 0.5819(6) 0.6187(4)
N6A N 1.3065(9) 1.0140(9) -0.0500(6)
S6A S 1.05044(18) 0.93305(16) -0.10779(10)
C46A C 1.1983(9) 0.9764(7) -0.0727(5)
S4A_2 S 0.83721(14) 1.03540(13) -0.07967(9)
S5_2 S 1.11615(15) 1.18631(13) 0.02260(9)
S5A_2 S 0.88385(15) 0.81369(13) -0.02260(9)
Pt2_2 Pt 0.0000 0.0000 0.0000
Pt2_3 Pt 1.0000 0.0000 1.0000
Pt2_4 Pt 2.0000 1.0000 1.0000
loop_
_geom_bond_atom_site_label_1
_geom_bond_atom_site_label_2
_geom_bond_site_symmetry_1
_geom_bond_site_symmetry_2
Pt1 S1 1_555 1_555
Pt2 S4 1_555 1_555
Na1 N1 1_555 1_555
Na2 N2 1_555 1_555
N1 C41 1_555 1_555
N2 C42 1_555 1_555
N3 C43 1_555 1_555
N4 Na1 1_555 1_555
N5 Na2 1_555 1_555
N6 C46 1_555 1_555
O1 Na1 1_555 1_555
O2 Na1 1_555 1_555
O3 Na1 1_555 1_555
O4 Na1 1_555 1_555
O5 Na1 1_555 1_555
O6 Na1 1_555 1_555
O7 Na2 1_555 1_555
O8 Na2 1_555 1_555
O9 Na2 1_555 1_555
O10 Na2 1_555 1_555
O11 Na2 1_555 1_555
O12 Na2 1_555 1_555
S1 C41 1_555 1_555
S2 Pt1 1_555 1_555
S3 Pt1 1_555 1_555
S4 C44 1_555 1_555
S5 C45 1_555 1_555
S6 Pt2 1_555 1_555
C1 O1 1_555 1_555
C2 C1 1_555 1_555
C3 C2 1_555 1_555
C4 C3 1_555 1_555
C5 C4 1_555 1_555
C6 O2 1_555 1_555
C7 O2 1_555 1_555
C8 O3 1_555 1_555
C9 O3 1_555 1_555
C10 O4 1_555 1_555
C11 O4 1_555 1_555
C12 C11 1_555 1_555
C13 C12 1_555 1_555
C14 C13 1_555 1_555
C15 C14 1_555 1_555
C16 O5 1_555 1_555
C17 O5 1_555 1_555
C18 O6 1_555 1_555
C19 O6 1_555 1_555
C20 O1 1_555 1_555
C21 O7 1_555 1_555
C22 C21 1_555 1_555
C23 C22 1_555 1_555
C24 C23 1_555 1_555
C25 C24 1_555 1_555
C26 O8 1_555 1_555
C27 O8 1_555 1_555
C28 O9 1_555 1_555
C29 O9 1_555 1_555
C30 O10 1_555 1_555
C31 O10 1_555 1_555
C32 C31 1_555 1_555
C33 C32 1_555 1_555
C34 C33 1_555 1_555
C35 C34 1_555 1_555
C36 O11 1_555 1_555
C37 O11 1_555 1_555
C38 O12 1_555 1_555
C39 O12 1_555 1_555
C40 O7 1_555 1_555
C42 S2 1_555 1_555
C43 S3 1_555 1_555
C44 N4 1_555 1_555
C45 N5 1_555 1_555
C46 S6 1_555 1_555
N1A C41A 1_555 1_555
S1A Pt1 1_555 1_555
C41A S1A 1_555 1_555
N2A C42A 1_555 1_555
S2A Pt1 1_555 1_555
C42A S2A 1_555 1_555
N3A C43A 1_555 1_555
S3A Pt1 1_555 1_555
C43A S3A 1_555 1_555
Na1A N1A 1_555 1_555
Na2A N2A 1_555 1_555
N4A Na1A 1_555 1_555
S4A C44A 1_555 1_555
C44A N4A 1_555 1_555
O1A Na1A 1_555 1_555
O2A Na1A 1_555 1_555
O3A Na1A 1_555 1_555
O4A Na1A 1_555 1_555
O5A Na1A 1_555 1_555
O6A Na1A 1_555 1_555
C1A O1A 1_555 1_555
C2A C1A 1_555 1_555
C3A C2A 1_555 1_555
C4A C3A 1_555 1_555
C5A C4A 1_555 1_555
C6A O2A 1_555 1_555
C7A O2A 1_555 1_555
C8A O3A 1_555 1_555
C9A O3A 1_555 1_555
C10A O4A 1_555 1_555
C11A O4A 1_555 1_555
C12A C11A 1_555 1_555
C13A C12A 1_555 1_555
C14A C13A 1_555 1_555
C15A C14A 1_555 1_555
C16A O5A 1_555 1_555
C17A O5A 1_555 1_555
C18A O6A 1_555 1_555
C19A O6A 1_555 1_555
C20A O1A 1_555 1_555
N5A Na2A 1_555 1_555
S5A C45A 1_555 1_555
C45A N5A 1_555 1_555
O7A Na2A 1_555 1_555
O8A Na2A 1_555 1_555
O9A Na2A 1_555 1_555
O10A Na2A 1_555 1_555
O11A Na2A 1_555 1_555
O12A Na2A 1_555 1_555
C21A O7A 1_555 1_555
C22A C21A 1_555 1_555
C23A C22A 1_555 1_555
C24A C23A 1_555 1_555
C25A C24A 1_555 1_555
C26A O8A 1_555 1_555
C27A O8A 1_555 1_555
C28A O9A 1_555 1_555
C29A O9A 1_555 1_555
C30A O10A 1_555 1_555
C31A O10A 1_555 1_555
C32A C31A 1_555 1_555
C33A C32A 1_555 1_555
C34A C33A 1_555 1_555
C35A C34A 1_555 1_555
C36A O11A 1_555 1_555
C37A O11A 1_555 1_555
C38A O12A 1_555 1_555
C39A O12A 1_555 1_555
C40A O7A 1_555 1_555
N6A C46A 1_555 1_555
S6A Pt2 1_555 1_555
C46A S6A 1_555 1_555
S4A_2 Pt2 1_555 1_555
S5_2 Pt2 1_555 1_555
S5A_2 Pt2 1_555 1_555
Pt2_2 S5 1_555 1_555
Pt2_3 S4A 1_555 1_555
Pt2_4 S5A 1_555 1_555
C1 C6 1_555 1_555
C5 C6 1_555 1_555
C7 C8 1_555 1_555
C9 C10 1_555 1_555
C11 C16 1_555 1_555
C15 C16 1_555 1_555
C17 C18 1_555 1_555
C19 C20 1_555 1_555
C21 C26 1_555 1_555
C25 C26 1_555 1_555
C27 C28 1_555 1_555
C29 C30 1_555 1_555
C31 C36 1_555 1_555
C35 C36 1_555 1_555
C37 C38 1_555 1_555
C39 C40 1_555 1_555
C1A C6A 1_555 1_555
C5A C6A 1_555 1_555
C7A C8A 1_555 1_555
C9A C10A 1_555 1_555
C11A C16A 1_555 1_555
C15A C16A 1_555 1_555
C17A C18A 1_555 1_555
C19A C20A 1_555 1_555
C21A C26A 1_555 1_555
C25A C26A 1_555 1_555
C27A C28A 1_555 1_555
C29A C30A 1_555 1_555
C31A C36A 1_555 1_555
C35A C36A 1_555 1_555
C37A C38A 1_555 1_555
C39A C40A 1_555 1_555

#END
