
#######################################################################
#
#                 Cambridge Crystallographic Data Centre
#                                CCDC 
#
#######################################################################
#
# If this CIF has been generated from an entry in the Cambridge 
# Structural Database, then it will include bibliographic, chemical, 
# crystal, experimental, refinement or atomic coordinate data resulting 
# from the CCDC's data processing and validation procedures.
#
#######################################################################

data_MOTLEN
_symmetry_cell_setting           orthorhombic
_symmetry_space_group_name_H-M   'P 21 21 21'
_symmetry_Int_Tables_number      19
_space_group_name_Hall           'P 2ac 2ab'
loop_
_symmetry_equiv_pos_site_id
_symmetry_equiv_pos_as_xyz
1 x,y,z
2 1/2-x,-y,1/2+z
3 -x,1/2+y,1/2-z
4 1/2+x,1/2-y,-z
_cell_length_a                   8.1333(19)
_cell_length_b                   10.973(3)
_cell_length_c                   28.154(7)
_cell_angle_alpha                90
_cell_angle_beta                 90
_cell_angle_gamma                90
_cell_volume                     2512.65
loop_
_atom_site_label
_atom_site_type_symbol
_atom_site_fract_x
_atom_site_fract_y
_atom_site_fract_z
Cu1 Cu 0.00153(10) 0.78435(6) 0.92413(2)
N1 N -0.1419(6) 0.7323(5) 0.87029(16)
O1 O 0.3391(5) 0.8115(4) 1.02285(14)
O2 O 0.1281(5) 0.8490(4) 0.97635(13)
N2 N 0.1513(6) 0.6398(4) 0.93015(16)
H1 H 0.1028 0.5808 0.9474
H2 H 0.1758 0.6097 0.9013
N3 N -0.0866(7) 0.9499(5) 0.90697(18)
C1 C 0.2548(7) 0.7852(6) 0.98783(19)
C2 C 0.3682(7) 0.8329(5) 0.88767(19)
C3 C -0.1732(7) 0.6199(6) 0.8548(2)
H3 H -0.1250 0.5541 0.8703
C4 C -0.2479(9) 1.0468(7) 0.8459(2)
C5 C -0.3426(8) 0.6952(7) 0.7918(2)
H4 H -0.4072 0.6818 0.7651
C6 C -0.2129(7) 0.8271(6) 0.8481(2)
C7 C 0.2275(7) 0.7322(6) 0.81409(19)
H5 H 0.2548 0.6520 0.8214
C8 C -0.3490(9) 1.0336(8) 0.8048(3)
H6 H -0.3955 1.1018 0.7904
C9 C 0.0948(9) 0.8819(8) 0.7632(3)
H7 H 0.0331 0.8992 0.7362
C10 C -0.2771(8) 0.5976(6) 0.8158(2)
H8 H -0.3008 0.5182 0.8063
C11 C -0.1825(7) 0.9448(6) 0.8668(2)
C12 C -0.3133(7) 0.8148(7) 0.80727(19)
C13 C 0.2349(8) 0.9481(6) 0.8322(2)
C14 C 0.2761(7) 0.8265(5) 0.8435(2)
C15 C 0.4298(7) 0.7296(6) 0.91736(19)
H9 H 0.5284 0.7556 0.9339
H10 H 0.4598 0.6626 0.8967
C16 C -0.0503(8) 1.0582(7) 0.9254(3)
H11 H 0.0180 1.0618 0.9518
C17 C 0.1433(9) 0.9752(7) 0.7923(3)
H12 H 0.1150 1.0553 0.7853
C18 C 0.1372(8) 0.7593(7) 0.7735(2)
H13 H 0.1046 0.6971 0.7531
C19 C -0.3766(9) 0.9213(8) 0.7869(2)
H14 H -0.4409 0.9143 0.7598
N4 N 0.2995(8) 1.0236(5) 0.8662(2)
C20 C 0.3028(7) 0.6836(5) 0.95435(19)
H15 H 0.3511 0.6165 0.9726
C21 C -0.2116(10) 1.1623(7) 0.8664(3)
H16 H -0.2539 1.2336 0.8533
C22 C -0.1109(10) 1.1659(7) 0.9065(3)
H17 H -0.0845 1.2402 0.9204
C23 C 0.3793(8) 0.9531(6) 0.8984(2)
H18 H 0.4350 0.9836 0.9246
H21 H 0.2834 1.1220 0.8534
Cu1C Cu 0.50153(10) 0.71565(6) 1.07587(2)
O1C O -0.1609(5) 0.6885(4) 0.97715(14)
O3 O 0.4276(9) 0.4307(7) 0.8496(3)
Cl1 Cl 0.2877(3) 0.35786(16) 0.85323(7)
O4 O 0.1509(8) 0.4353(5) 0.8526(2)
O5 O 0.2904(7) 0.2884(5) 0.89732(17)
O6 O 0.2800(13) 0.2754(5) 0.8146(2)
O7 O 0.5403(11) 0.3077(7) 0.9667(2)
O8 O 0.8030(14) 0.4446(6) 0.9527(2)
O9 O 0.1080(13) 0.3960(7) 0.9822(3)
H19 H -0.0022 0.4413 0.9927
H20 H 0.1061 0.3332 1.0093
loop_
_geom_bond_atom_site_label_1
_geom_bond_atom_site_label_2
_geom_bond_site_symmetry_1
_geom_bond_site_symmetry_2
Cu1 N1 1_555 1_555
N1 C3 1_555 1_555
O1 C1 1_555 1_555
O2 Cu1 1_555 1_555
N2 Cu1 1_555 1_555
H1 N2 1_555 1_555
H2 N2 1_555 1_555
N3 Cu1 1_555 1_555
C1 O2 1_555 1_555
C2 C14 1_555 1_555
O3 Cl1 1_555 1_555
C3 H3 1_555 1_555
C4 C8 1_555 1_555
C5 H4 1_555 1_555
C6 N1 1_555 1_555
C7 H5 1_555 1_555
C8 H6 1_555 1_555
C9 H7 1_555 1_555
C10 C3 1_555 1_555
H8 C10 1_555 1_555
C11 N3 1_555 1_555
C12 C5 1_555 1_555
C13 C14 1_555 1_555
C14 C7 1_555 1_555
C15 C2 1_555 1_555
H9 C15 1_555 1_555
H10 C15 1_555 1_555
C16 N3 1_555 1_555
H11 C16 1_555 1_555
C17 C9 1_555 1_555
H12 C17 1_555 1_555
C18 C7 1_555 1_555
H13 C18 1_555 1_555
C19 C8 1_555 1_555
H14 C19 1_555 1_555
N4 C13 1_555 1_555
C20 N2 1_555 1_555
H15 C20 1_555 1_555
C21 C4 1_555 1_555
H16 C21 1_555 1_555
C22 C16 1_555 1_555
H17 C22 1_555 1_555
C23 C2 1_555 1_555
H18 C23 1_555 1_555
Cl1 O4 1_555 1_555
O5 Cl1 1_555 1_555
O6 Cl1 1_555 1_555
O9 H19 1_555 1_555
H20 O9 1_555 1_555
H21 N4 1_555 1_555
Cu1C O1 1_555 1_555
O1C Cu1 1_555 1_555
C1 C20 1_555 1_555
C4 C11 1_555 1_555
C5 C10 1_555 1_555
C6 C11 1_555 1_555
C6 C12 1_555 1_555
C9 C18 1_555 1_555
C12 C19 1_555 1_555
C13 C17 1_555 1_555
C15 C20 1_555 1_555
N4 C23 1_555 1_555
C21 C22 1_555 1_555

#END
