
#######################################################################
#
#                 Cambridge Crystallographic Data Centre
#                                CCDC 
#
#######################################################################
#
# If this CIF has been generated from an entry in the Cambridge 
# Structural Database, then it will include bibliographic, chemical, 
# crystal, experimental, refinement or atomic coordinate data resulting 
# from the CCDC's data processing and validation procedures.
#
#######################################################################

data_MOTLUD01
_symmetry_cell_setting           orthorhombic
_symmetry_space_group_name_H-M   'P b c a'
_symmetry_Int_Tables_number      61
_space_group_name_Hall           '-P 2ac 2ab'
loop_
_symmetry_equiv_pos_site_id
_symmetry_equiv_pos_as_xyz
1 x,y,z
2 1/2-x,-y,1/2+z
3 1/2+x,1/2-y,-z
4 -x,1/2+y,1/2-z
5 -x,-y,-z
6 1/2+x,y,1/2-z
7 1/2-x,1/2+y,z
8 x,1/2-y,1/2+z
_cell_length_a                   13.4221(18)
_cell_length_b                   15.4565(17)
_cell_length_c                   27.194(4)
_cell_angle_alpha                90
_cell_angle_beta                 90
_cell_angle_gamma                90
_cell_volume                     5641.63
loop_
_atom_site_label
_atom_site_type_symbol
_atom_site_fract_x
_atom_site_fract_y
_atom_site_fract_z
C1 C 0.3297(2) 0.8905(2) 0.86532(11)
C2 C 0.3129(2) 0.81641(19) 0.82987(10)
C3 C 0.3055(2) 0.82350(19) 0.77930(11)
C4 C 0.3067(2) 0.9085(2) 0.75150(11)
C5 C 0.2971(2) 0.7481(2) 0.75224(12)
H1 H 0.2939 0.7508 0.7181
C6 C 0.2934(2) 0.6691(2) 0.77540(12)
H2 H 0.2868 0.6184 0.7573
C7 C 0.2997(2) 0.6667(2) 0.82583(12)
H3 H 0.2965 0.6136 0.8419
C8 C 0.3406(3) 0.8934(2) 0.48383(11)
C9 C 0.3359(2) 0.8177(2) 0.51859(11)
C10 C 0.3371(2) 0.8214(2) 0.56954(11)
C11 C 0.3282(2) 0.9042(2) 0.59882(11)
C12 C 0.3439(3) 0.7450(2) 0.59534(12)
H4 H 0.3475 0.7460 0.6295
C13 C 0.3453(3) 0.6676(2) 0.57100(13)
H5 H 0.3500 0.6159 0.5883
C14 C 0.3399(3) 0.6677(2) 0.52070(12)
H6 H 0.3389 0.6152 0.5040
C15 C 0.4203(2) 1.1072(2) 0.58098(11)
H7 H 0.4166 1.0546 0.5644
C16 C 0.4212(3) 1.1830(2) 0.55360(13)
H8 H 0.4185 1.1807 0.5195
C17 C 0.4262(3) 1.2608(2) 0.57710(12)
H9 H 0.4271 1.3121 0.5592
C18 C 0.4299(2) 1.2625(2) 0.62889(13)
C19 C 0.4296(2) 1.1836(2) 0.65314(11)
C20 C 0.4378(2) 1.1802(2) 0.70581(11)
C21 C 0.4345(2) 1.3397(2) 0.65756(14)
H10 H 0.4319 1.3931 0.6419
C22 C 0.4426(2) 1.3368(2) 0.70711(14)
H11 H 0.4458 1.3882 0.7248
C23 C 0.4462(2) 1.2564(2) 0.73289(12)
C24 C 0.4582(2) 1.2481(2) 0.78414(13)
H12 H 0.4652 1.2970 0.8038
C25 C 0.4595(3) 1.1680(2) 0.80455(13)
H13 H 0.4679 1.1617 0.8383
C26 C 0.4481(2) 1.0958(2) 0.77488(12)
H14 H 0.4479 1.0415 0.7896
Cu1 Cu 0.41695(3) 1.00671(2) 0.676812(12)
Cu2 Cu 0.31517(3) 0.74703(2) 0.924232(13)
N1 N 0.31010(19) 0.73842(16) 0.85213(9)
N2 N 0.3360(2) 0.74051(17) 0.49529(9)
N3 N 0.42444(18) 1.10626(16) 0.62961(9)
N4 N 0.43759(18) 1.10061(16) 0.72657(9)
O1 O 0.33173(18) 0.86835(14) 0.91052(7)
O2 O 0.34222(19) 0.96313(14) 0.84977(8)
O3 O 0.38474(15) 0.91814(13) 0.72507(7)
O4 O 0.23419(16) 0.95720(14) 0.75323(8)
O5 O 0.32986(18) 0.87532(14) 0.43870(7)
O6 O 0.3570(2) 0.96557(16) 0.50043(8)
O7 O 0.24948(17) 0.94454(16) 0.59853(8)
O8 O 0.40503(16) 0.92156(14) 0.62415(8)
O9 O 0.1471(2) 0.73824(16) 0.93346(10)
H15 H 0.1071 0.6960 0.9300
H16 H 0.1160 0.7838 0.9250
O10 O 0.58534(16) 0.96885(18) 0.67473(8)
H17 H 0.6371 0.9644 0.6925
H18 H 0.6035 0.9576 0.6455
Cu2G Cu 0.31517(3) 0.75297(2) 0.424232(13)
N2G N 0.3360(2) 0.75949(17) 0.99529(9)
O5G O 0.32986(18) 0.62468(14) 0.93870(7)
O11 O 0.0936(2) 0.91002(17) 0.92688(10)
H19 H 0.0318 0.9205 0.9232
H20 H 0.1150 0.9474 0.9472
O12 O 0.07173(19) 0.56630(17) 0.92893(10)
H21 H 0.1105 0.5395 0.9095
H22 H 0.0186 0.5365 0.9307
O13 O 0.2007(3) 1.0602(2) 0.67174(10)
H23 H 0.2155 1.0277 0.6476
H24 H 0.2015 1.0269 0.6966
O14 O 0.0923(2) 0.96260(18) 0.53256(10)
H25 H 0.1507 0.9638 0.5446
H26 H 0.0998 0.9628 0.5015
loop_
_geom_bond_atom_site_label_1
_geom_bond_atom_site_label_2
_geom_bond_site_symmetry_1
_geom_bond_site_symmetry_2
C1 C2 1_555 1_555
C2 C3 1_555 1_555
C3 C4 1_555 1_555
C4 O3 1_555 1_555
C5 C3 1_555 1_555
H1 C5 1_555 1_555
C6 C5 1_555 1_555
H2 C6 1_555 1_555
C7 C6 1_555 1_555
H3 C7 1_555 1_555
C8 C9 1_555 1_555
C9 C10 1_555 1_555
C10 C11 1_555 1_555
C11 O7 1_555 1_555
C12 C10 1_555 1_555
H4 C12 1_555 1_555
C13 C12 1_555 1_555
H5 C13 1_555 1_555
C14 C13 1_555 1_555
H6 C14 1_555 1_555
C15 H7 1_555 1_555
C16 C15 1_555 1_555
H8 C16 1_555 1_555
C17 C16 1_555 1_555
H9 C17 1_555 1_555
C18 C17 1_555 1_555
C19 C18 1_555 1_555
C20 C19 1_555 1_555
C21 C18 1_555 1_555
H10 C21 1_555 1_555
C22 C21 1_555 1_555
H11 C22 1_555 1_555
C23 C20 1_555 1_555
C24 C23 1_555 1_555
H12 C24 1_555 1_555
C25 C24 1_555 1_555
H13 C25 1_555 1_555
C26 C25 1_555 1_555
H14 C26 1_555 1_555
Cu1 N3 1_555 1_555
Cu2 N1 1_555 1_555
N1 C2 1_555 1_555
N2 C9 1_555 1_555
N3 C15 1_555 1_555
N4 C20 1_555 1_555
O1 C1 1_555 1_555
O2 C1 1_555 1_555
O3 Cu1 1_555 1_555
O4 C4 1_555 1_555
O5 C8 1_555 1_555
O6 C8 1_555 1_555
O8 C11 1_555 1_555
O9 Cu2 1_555 1_555
H15 O9 1_555 1_555
H16 O9 1_555 1_555
O10 Cu1 1_555 1_555
H17 O10 1_555 1_555
H18 O10 1_555 1_555
O11 H19 1_555 1_555
H20 O11 1_555 1_555
O12 H21 1_555 1_555
H22 O12 1_555 1_555
O13 H23 1_555 1_555
H24 O13 1_555 1_555
O14 H25 1_555 1_555
H26 O14 1_555 1_555
Cu2G N2 1_555 1_555
N2G Cu2 1_555 1_555
O5G Cu2 1_555 1_555
C7 N1 1_555 1_555
C14 N2 1_555 1_555
C19 N3 1_555 1_555
C22 C23 1_555 1_555
C26 N4 1_555 1_555
Cu1 N4 1_555 1_555
Cu1 O8 1_555 1_555
Cu2 O1 1_555 1_555
O5 Cu2G 1_555 1_555

#END
