
#######################################################################
#
#                 Cambridge Crystallographic Data Centre
#                                CCDC 
#
#######################################################################
#
# If this CIF has been generated from an entry in the Cambridge 
# Structural Database, then it will include bibliographic, chemical, 
# crystal, experimental, refinement or atomic coordinate data resulting 
# from the CCDC's data processing and validation procedures.
#
#######################################################################

data_MOTLEM
_symmetry_cell_setting           monoclinic
_symmetry_space_group_name_H-M   'P 21/c'
_symmetry_Int_Tables_number      14
_space_group_name_Hall           '-P 2ybc'
loop_
_symmetry_equiv_pos_site_id
_symmetry_equiv_pos_as_xyz
1 x,y,z
2 x,1/2-y,1/2+z
3 -x,-y,-z
4 -x,1/2+y,1/2-z
_cell_length_a                   10.974(5)
_cell_length_b                   15.187(7)
_cell_length_c                   13.632(6)
_cell_angle_alpha                90
_cell_angle_beta                 96.409(7)
_cell_angle_gamma                90
_cell_volume                     2257.74
loop_
_atom_site_label
_atom_site_type_symbol
_atom_site_fract_x
_atom_site_fract_y
_atom_site_fract_z
Pt1 Pt 1.0000 0.0000 0.5000
Na1 Na 0.7533(2) 0.12129(16) 0.07222(17)
N1 N 0.8913(6) 0.1042(4) 0.2294(5)
N2 N 0.8918(7) 0.2499(4) 0.5806(5)
N3 N 0.6562(9) 0.0160(7) 0.6109(8)
O1 O 0.5777(4) 0.0960(3) 0.1653(3)
O2 O 0.5829(5) 0.2223(3) 0.0360(4)
O3 O 0.6996(6) 0.1584(4) -0.1072(4)
O4 O 0.8498(5) 0.0184(4) -0.0392(5)
O5 O 0.6978(5) -0.0393(4) 0.0922(6)
S1 S 1.05067(18) 0.12177(12) 0.40349(13)
S2 S 1.00421(18) 0.09096(12) 0.64142(12)
S3 S 0.78777(18) 0.02258(14) 0.45016(14)
C1 C 0.4824(6) 0.1573(5) 0.1620(6)
C2 C 0.3954(8) 0.1487(7) 0.2280(7)
C3 C 0.3025(13) 0.2125(10) 0.2219(10)
C4 C 0.3010(11) 0.2789(10) 0.1525(13)
C5 C 0.3935(10) 0.2896(6) 0.0828(10)
C6 C 0.4880(8) 0.2227(5) 0.0921(7)
C7 C 0.5624(9) 0.2651(6) -0.0595(7)
C8 C 0.6764(11) 0.2457(7) -0.1101(7)
C9 C 0.8114(10) 0.1395(7) -0.1519(7)
C10 C 0.8274(9) 0.0370(10) -0.1385(8)
C11 C 0.8364(10) -0.0740(6) -0.0126(10)
C12 C 0.7977(13) -0.0885(7) 0.0797(8)
C13 C 0.6462(14) -0.0487(8) 0.1765(11)
C14 C 0.5501(9) 0.0069(6) 0.1874(9)
C15 C 0.9560(6) 0.1097(4) 0.3005(5)
C16 C 0.9373(7) 0.1851(5) 0.6010(5)
C17 C 0.7169(8) 0.0166(6) 0.5491(7)
N1B N 1.1087(6) -0.1042(4) 0.7706(5)
S1B S 0.94933(18) -0.12177(12) 0.59651(13)
C15B C 1.0440(6) -0.1097(4) 0.6995(5)
N2B N 1.1082(7) -0.2499(4) 0.4194(5)
S2B S 0.99579(18) -0.09096(12) 0.35858(12)
C16B C 1.0627(7) -0.1851(5) 0.3990(5)
N3B N 1.3438(9) -0.0160(7) 0.3891(8)
S3B S 1.21223(18) -0.02258(14) 0.54984(14)
C17B C 1.2831(8) -0.0166(6) 0.4509(7)
Na1B Na 1.2467(2) -0.12129(16) 0.92778(17)
O1B O 1.4223(4) -0.0960(3) 0.8347(3)
O2B O 1.4171(5) -0.2223(3) 0.9640(4)
O3B O 1.3004(6) -0.1584(4) 1.1072(4)
O4B O 1.1502(5) -0.0184(4) 1.0392(5)
O5B O 1.3022(5) 0.0393(4) 0.9078(6)
C1B C 1.5176(6) -0.1573(5) 0.8380(6)
C2B C 1.6046(8) -0.1487(7) 0.7720(7)
C3B C 1.6975(13) -0.2125(10) 0.7781(10)
C4B C 1.6990(11) -0.2789(10) 0.8475(13)
C5B C 1.6065(10) -0.2896(6) 0.9172(10)
C6B C 1.5120(8) -0.2227(5) 0.9079(7)
C7B C 1.4376(9) -0.2651(6) 1.0595(7)
C8B C 1.3236(11) -0.2457(7) 1.1101(7)
C9B C 1.1886(10) -0.1395(7) 1.1519(7)
C10B C 1.1726(9) -0.0370(10) 1.1385(8)
C11B C 1.1636(10) 0.0740(6) 1.0126(10)
C12B C 1.2023(13) 0.0885(7) 0.9203(8)
C13B C 1.3538(14) 0.0487(8) 0.8235(11)
C14B C 1.4499(9) -0.0069(6) 0.8126(9)
N2A N 0.8918(7) 0.2501(4) 0.0806(5)
Na1A Na 0.7533(2) 0.37871(16) 0.57222(17)
Na1C Na 1.2467(2) -0.37871(16) 0.42778(17)
N2C N 1.1082(7) -0.2501(4) 0.9194(5)
loop_
_geom_bond_atom_site_label_1
_geom_bond_atom_site_label_2
_geom_bond_site_symmetry_1
_geom_bond_site_symmetry_2
Pt1 S1 1_555 1_555
Na1 N1 1_555 1_555
N1 C15 1_555 1_555
N2 C16 1_555 1_555
N3 C17 1_555 1_555
O1 Na1 1_555 1_555
O2 Na1 1_555 1_555
O3 Na1 1_555 1_555
O4 Na1 1_555 1_555
O5 Na1 1_555 1_555
S1 C15 1_555 1_555
S2 Pt1 1_555 1_555
S3 Pt1 1_555 1_555
C1 O1 1_555 1_555
C2 C1 1_555 1_555
C3 C2 1_555 1_555
C4 C3 1_555 1_555
C5 C4 1_555 1_555
C6 O2 1_555 1_555
C7 O2 1_555 1_555
C8 O3 1_555 1_555
C9 O3 1_555 1_555
C10 O4 1_555 1_555
C11 O4 1_555 1_555
C12 O5 1_555 1_555
C13 O5 1_555 1_555
C14 O1 1_555 1_555
C16 S2 1_555 1_555
C17 S3 1_555 1_555
N1B C15B 1_555 1_555
S1B Pt1 1_555 1_555
C15B S1B 1_555 1_555
N2B C16B 1_555 1_555
S2B Pt1 1_555 1_555
C16B S2B 1_555 1_555
N3B C17B 1_555 1_555
S3B Pt1 1_555 1_555
C17B S3B 1_555 1_555
Na1B N1B 1_555 1_555
O1B Na1B 1_555 1_555
O2B Na1B 1_555 1_555
O3B Na1B 1_555 1_555
O4B Na1B 1_555 1_555
O5B Na1B 1_555 1_555
C1B O1B 1_555 1_555
C2B C1B 1_555 1_555
C3B C2B 1_555 1_555
C4B C3B 1_555 1_555
C5B C4B 1_555 1_555
C6B O2B 1_555 1_555
C7B O2B 1_555 1_555
C8B O3B 1_555 1_555
C9B O3B 1_555 1_555
C10B O4B 1_555 1_555
C11B O4B 1_555 1_555
C12B O5B 1_555 1_555
C13B O5B 1_555 1_555
C14B O1B 1_555 1_555
N2A Na1 1_555 1_555
Na1A N2 1_555 1_555
Na1C N2B 1_555 1_555
N2C Na1B 1_555 1_555
C1 C6 1_555 1_555
C5 C6 1_555 1_555
C7 C8 1_555 1_555
C9 C10 1_555 1_555
C11 C12 1_555 1_555
C13 C14 1_555 1_555
C1B C6B 1_555 1_555
C5B C6B 1_555 1_555
C7B C8B 1_555 1_555
C9B C10B 1_555 1_555
C11B C12B 1_555 1_555
C13B C14B 1_555 1_555

#END
