
#######################################################################
#
#                 Cambridge Crystallographic Data Centre
#                                CCDC 
#
#######################################################################
#
# If this CIF has been generated from an entry in the Cambridge 
# Structural Database, then it will include bibliographic, chemical, 
# crystal, experimental, refinement or atomic coordinate data resulting 
# from the CCDC's data processing and validation procedures.
#
#######################################################################

data_MOTMAJ
_symmetry_cell_setting           monoclinic
_symmetry_space_group_name_H-M   'P 21/n'
_symmetry_Int_Tables_number      14
_space_group_name_Hall           '-P 2yn'
loop_
_symmetry_equiv_pos_site_id
_symmetry_equiv_pos_as_xyz
1 x,y,z
2 1/2+x,1/2-y,1/2+z
3 -x,-y,-z
4 1/2-x,1/2+y,1/2-z
_cell_length_a                   10.0970(17)
_cell_length_b                   13.157(2)
_cell_length_c                   17.303(3)
_cell_angle_alpha                90
_cell_angle_beta                 94.954(2)
_cell_angle_gamma                90
_cell_volume                     2290.05
loop_
_atom_site_label
_atom_site_type_symbol
_atom_site_fract_x
_atom_site_fract_y
_atom_site_fract_z
Pd1 Pd 0.0000 1.0000 1.0000
K1 K 0.37871(6) 0.63449(4) 1.01477(3)
N1 N 0.1214(3) 0.70076(17) 1.05870(14)
N2 N -0.2508(2) 1.00696(16) 1.18367(13)
O1 O 0.37196(15) 0.73184(11) 0.87394(8)
O2 O 0.49948(15) 0.81575(11) 0.99254(8)
O3 O 0.50454(16) 0.73376(12) 1.14285(9)
O4 O 0.36623(17) 0.54532(12) 1.15584(9)
O5 O 0.32724(17) 0.41887(12) 1.02073(10)
O6 O 0.25597(16) 0.54199(12) 0.88668(9)
S1 S -0.01808(7) 0.87679(4) 1.09635(4)
S2 S -0.13983(8) 1.10790(5) 1.06202(4)
C1 C 0.4730(2) 0.79577(16) 0.85723(13)
C2 C 0.5098(3) 0.81649(19) 0.78381(15)
C3 C 0.6137(3) 0.8818(2) 0.7740(2)
C4 C 0.6810(4) 0.9262(2) 0.8370(2)
C5 C 0.6473(3) 0.90513(19) 0.91101(18)
C6 C 0.5427(2) 0.84072(16) 0.92181(13)
C7 C 0.5601(3) 0.8677(2) 1.05967(15)
C8 C 0.4845(3) 0.8392(2) 1.12710(15)
C9 C 0.4467(3) 0.6992(2) 1.21053(16)
C10 C 0.4579(3) 0.5868(2) 1.21432(17)
C11 C 0.3595(4) 0.4379(2) 1.15712(19)
C12 C 0.2675(4) 0.4025(2) 1.09167(19)
C13 C 0.2472(3) 0.3856(2) 0.95286(19)
C14 C 0.1672(3) 0.4688(2) 0.9141(2)
C15 C 0.1899(3) 0.6222(2) 0.84366(16)
C16 C 0.2904(3) 0.6878(2) 0.81026(14)
C17 C 0.0669(3) 0.77373(18) 1.07281(14)
C18 C -0.2032(2) 1.04587(18) 1.13413(14)
H1 H 0.464(2) 0.7871(17) 0.7422(14)
H2 H 0.633(3) 0.8962(19) 0.7248(18)
H3 H 0.747(3) 0.964(3) 0.8312(19)
H4 H 0.696(3) 0.9344(19) 0.9524(15)
H5 H 0.554(2) 0.9390(19) 1.0496(12)
H6 H 0.649(3) 0.8501(17) 1.0690(13)
H7 H 0.521(2) 0.8799(17) 1.1723(14)
H8 H 0.394(3) 0.8490(16) 1.1170(13)
H9 H 0.489(3) 0.729(2) 1.2526(18)
H10 H 0.355(3) 0.7219(18) 1.2075(13)
H11 H 0.549(3) 0.5635(19) 1.2020(14)
H12 H 0.437(2) 0.5694(18) 1.2643(16)
H13 H 0.453(3) 0.410(2) 1.1539(16)
H14 H 0.329(2) 0.4199(18) 1.2058(14)
H15 H 0.251(3) 0.336(2) 1.0980(15)
H16 H 0.187(3) 0.4404(19) 1.0875(14)
H17 H 0.307(3) 0.361(2) 0.9159(16)
H18 H 0.189(3) 0.332(2) 0.9637(14)
H19 H 0.114(3) 0.5041(19) 0.9528(19)
H20 H 0.114(3) 0.446(2) 0.8701(17)
H21 H 0.139(2) 0.6637(17) 0.8770(13)
H22 H 0.132(2) 0.5926(15) 0.8014(13)
H23 H 0.250(2) 0.7430(16) 0.7793(13)
H24 H 0.342(2) 0.6453(15) 0.7804(12)
N1B N -0.1214(3) 1.29924(17) 0.94130(14)
S1B S 0.01808(7) 1.12321(4) 0.90365(4)
C17B C -0.0669(3) 1.22627(18) 0.92719(14)
N2B N 0.2508(2) 0.99304(16) 0.81633(13)
S2B S 0.13983(8) 0.89210(5) 0.93798(4)
C18B C 0.2032(2) 0.95413(18) 0.86587(14)
K1B K -0.37871(6) 1.36551(4) 0.98523(3)
O1B O 0.62804(15) 0.26816(11) 1.12606(8)
O2B O 0.50052(15) 0.18425(11) 1.00746(8)
O3B O 0.49546(16) 0.26624(12) 0.85715(9)
O4B O 0.63377(17) 0.45468(12) 0.84416(9)
O5B O 0.67276(17) 0.58113(12) 0.97927(10)
O6B O 0.74403(16) 0.45801(12) 1.11332(9)
C1B C 0.5270(2) 0.20423(16) 1.14277(13)
C2B C 0.4902(3) 0.18351(19) 1.21619(15)
C3B C 0.3863(3) 0.1182(2) 1.2260(2)
C4B C 0.3190(4) 0.0738(2) 1.1630(2)
C5B C 0.3527(3) 0.09487(19) 1.08899(18)
C6B C 0.4573(2) 0.15928(16) 1.07819(13)
C7B C 0.4399(3) 0.1323(2) 0.94033(15)
C8B C 0.5155(3) 0.1608(2) 0.87290(15)
C9B C 0.5533(3) 0.3008(2) 0.78947(16)
C10B C 0.5421(3) 0.4132(2) 0.78568(17)
C11B C 0.6405(4) 0.5621(2) 0.84288(19)
C12B C 0.7325(4) 0.5975(2) 0.90833(19)
C13B C 0.7528(3) 0.6144(2) 1.04714(19)
C14B C 0.8328(3) 0.5312(2) 1.0859(2)
C15B C 0.8101(3) 0.3778(2) 1.15634(16)
C16B C 0.7096(3) 0.3122(2) 1.18974(14)
H1B H 0.536(2) 0.2129(17) 1.2578(14)
H2B H 0.367(3) 0.1038(19) 1.2752(18)
H3B H 0.253(3) 0.036(3) 1.1688(19)
H4B H 0.304(3) 0.0656(19) 1.0476(15)
H5B H 0.446(2) 0.0610(19) 0.9504(12)
H6B H 0.351(3) 0.1499(17) 0.9310(13)
H7B H 0.479(2) 0.1201(17) 0.8277(14)
H8B H 0.606(3) 0.1510(16) 0.8830(13)
H9B H 0.511(3) 0.271(2) 0.7474(18)
H10B H 0.645(3) 0.2781(18) 0.7925(13)
H11B H 0.451(3) 0.4365(19) 0.7980(14)
H12B H 0.563(2) 0.4306(18) 0.7357(16)
H13B H 0.547(3) 0.590(2) 0.8461(16)
H14B H 0.671(2) 0.5801(18) 0.7942(14)
H15B H 0.749(3) 0.664(2) 0.9020(15)
H16B H 0.813(3) 0.5596(19) 0.9125(14)
H17B H 0.693(3) 0.639(2) 1.0841(16)
H18B H 0.811(3) 0.668(2) 1.0363(14)
H19B H 0.886(3) 0.4959(19) 1.0472(19)
H20B H 0.886(3) 0.554(2) 1.1299(17)
H21B H 0.861(2) 0.3363(17) 1.1230(13)
H22B H 0.868(2) 0.4074(15) 1.1986(13)
H23B H 0.750(2) 0.2570(16) 1.2207(13)
H24B H 0.658(2) 0.3547(15) 1.2196(12)
K1B_2 K 0.62129(6) 0.36551(4) 0.98523(3)
N1B_2 N 0.8786(3) 0.29924(17) 0.94130(14)
loop_
_geom_bond_atom_site_label_1
_geom_bond_atom_site_label_2
_geom_bond_site_symmetry_1
_geom_bond_site_symmetry_2
Pd1 S1 1_555 1_555
K1 N1 1_555 1_555
N1 C17 1_555 1_555
N2 C18 1_555 1_555
O1 K1 1_555 1_555
O2 K1 1_555 1_555
O3 K1 1_555 1_555
O4 K1 1_555 1_555
O5 K1 1_555 1_555
O6 K1 1_555 1_555
S1 C17 1_555 1_555
S2 Pd1 1_555 1_555
C1 O1 1_555 1_555
C2 C1 1_555 1_555
C3 C2 1_555 1_555
C4 C3 1_555 1_555
C5 C4 1_555 1_555
C6 O2 1_555 1_555
C7 O2 1_555 1_555
C8 O3 1_555 1_555
C9 O3 1_555 1_555
C10 O4 1_555 1_555
C11 O4 1_555 1_555
C12 O5 1_555 1_555
C13 O5 1_555 1_555
C14 O6 1_555 1_555
C15 O6 1_555 1_555
C16 O1 1_555 1_555
C18 S2 1_555 1_555
H1 C2 1_555 1_555
H2 C3 1_555 1_555
H3 C4 1_555 1_555
H4 C5 1_555 1_555
H5 C7 1_555 1_555
H6 C7 1_555 1_555
H7 C8 1_555 1_555
H8 C8 1_555 1_555
H9 C9 1_555 1_555
H10 C9 1_555 1_555
H11 C10 1_555 1_555
H12 C10 1_555 1_555
H13 C11 1_555 1_555
H14 C11 1_555 1_555
H15 C12 1_555 1_555
H16 C12 1_555 1_555
H17 C13 1_555 1_555
H18 C13 1_555 1_555
H19 C14 1_555 1_555
H20 C14 1_555 1_555
H21 C15 1_555 1_555
H22 C15 1_555 1_555
H23 C16 1_555 1_555
H24 C16 1_555 1_555
N1B C17B 1_555 1_555
S1B Pd1 1_555 1_555
C17B S1B 1_555 1_555
N2B C18B 1_555 1_555
S2B Pd1 1_555 1_555
C18B S2B 1_555 1_555
K1B N1B 1_555 1_555
O1B C1B 1_555 1_555
O2B C6B 1_555 1_555
O3B C8B 1_555 1_555
O4B C10B 1_555 1_555
O5B K1 1_555 1_555
O6B C14B 1_555 1_555
C1B C2B 1_555 1_555
C2B C3B 1_555 1_555
C3B C4B 1_555 1_555
C4B C5B 1_555 1_555
C5B C6B 1_555 1_555
C6B C1B 1_555 1_555
C7B O2B 1_555 1_555
C8B C7B 1_555 1_555
C9B O3B 1_555 1_555
C10B C9B 1_555 1_555
C11B O4B 1_555 1_555
C12B O5B 1_555 1_555
C13B O5B 1_555 1_555
C14B C13B 1_555 1_555
C15B O6B 1_555 1_555
C16B O1B 1_555 1_555
H1B C2B 1_555 1_555
H2B C3B 1_555 1_555
H3B C4B 1_555 1_555
H4B C5B 1_555 1_555
H5B C7B 1_555 1_555
H6B C7B 1_555 1_555
H7B C8B 1_555 1_555
H8B C8B 1_555 1_555
H9B C9B 1_555 1_555
H10B C9B 1_555 1_555
H11B C10B 1_555 1_555
H12B C10B 1_555 1_555
H13B C11B 1_555 1_555
H14B C11B 1_555 1_555
H15B C12B 1_555 1_555
H16B C12B 1_555 1_555
H17B C13B 1_555 1_555
H18B C13B 1_555 1_555
H19B C14B 1_555 1_555
H20B C14B 1_555 1_555
H21B C15B 1_555 1_555
H22B C15B 1_555 1_555
H23B C16B 1_555 1_555
H24B C16B 1_555 1_555
K1B_2 O5 1_555 1_555
N1B_2 K1B_2 1_555 1_555
C1 C6 1_555 1_555
C5 C6 1_555 1_555
C7 C8 1_555 1_555
C9 C10 1_555 1_555
C11 C12 1_555 1_555
C13 C14 1_555 1_555
C15 C16 1_555 1_555
O1B K1B_2 1_555 1_555
O2B K1B_2 1_555 1_555
O3B K1B_2 1_555 1_555
O4B K1B_2 1_555 1_555
O5B K1B_2 1_555 1_555
O6B K1B_2 1_555 1_555
C11B C12B 1_555 1_555
C15B C16B 1_555 1_555

#END
