
#######################################################################
#
#                 Cambridge Crystallographic Data Centre
#                                CCDC 
#
#######################################################################
#
# If this CIF has been generated from an entry in the Cambridge 
# Structural Database, then it will include bibliographic, chemical, 
# crystal, experimental, refinement or atomic coordinate data resulting 
# from the CCDC's data processing and validation procedures.
#
#######################################################################

data_MOTMEN
_symmetry_cell_setting           monoclinic
_symmetry_space_group_name_H-M   'P 21/n'
_symmetry_Int_Tables_number      14
_space_group_name_Hall           '-P 2yn'
loop_
_symmetry_equiv_pos_site_id
_symmetry_equiv_pos_as_xyz
1 x,y,z
2 1/2+x,1/2-y,1/2+z
3 -x,-y,-z
4 1/2-x,1/2+y,1/2-z
_cell_length_a                   10.0908(18)
_cell_length_b                   13.124(2)
_cell_length_c                   17.317(3)
_cell_angle_alpha                90
_cell_angle_beta                 94.841(2)
_cell_angle_gamma                90
_cell_volume                     2285.14
loop_
_atom_site_label
_atom_site_type_symbol
_atom_site_fract_x
_atom_site_fract_y
_atom_site_fract_z
Pt1 Pt 0.5000 0.5000 0.0000
S1 S 0.51371(11) 0.37740(7) -0.09600(6)
S2 S 0.63539(13) 0.60781(8) -0.06406(7)
K1 K 0.12067(8) 0.13443(6) -0.01422(4)
N1 N 0.3788(4) 0.2001(3) -0.0579(2)
N2 N 0.7516(3) 0.5077(2) -0.18387(18)
O1 O 0.0011(2) 0.31615(16) 0.00826(13)
O2 O 0.1294(2) 0.23180(16) 0.12655(12)
O3 O 0.2441(2) 0.04207(18) 0.11347(13)
O4 O 0.1728(2) -0.08117(18) -0.02047(15)
O5 O 0.1341(3) 0.0460(2) -0.15506(14)
O6 O -0.0042(2) 0.23393(18) -0.14196(13)
C1 C -0.0419(3) 0.3401(2) 0.0792(2)
C2 C -0.1475(4) 0.4046(3) 0.0901(3)
C3 C -0.1808(5) 0.4250(3) 0.1642(3)
C4 C -0.1131(4) 0.3821(3) 0.2266(3)
C5 C -0.0085(4) 0.3164(3) 0.2163(2)
C6 C 0.0272(3) 0.2956(2) 0.1435(2)
C7 C 0.2110(4) 0.1874(3) 0.1895(2)
C8 C 0.3110(4) 0.1217(3) 0.1562(2)
C9 C 0.3338(5) -0.0317(3) 0.0859(3)
C10 C 0.2533(5) -0.1149(3) 0.0467(3)
C11 C 0.2326(5) -0.0964(4) -0.0911(3)
C12 C 0.1403(5) -0.0609(3) -0.1566(3)
C13 C 0.0426(5) 0.0878(4) -0.2135(3)
C14 C 0.0528(5) 0.1996(4) -0.2096(2)
C15 C 0.0150(5) 0.3396(3) -0.1265(2)
C16 C -0.0598(4) 0.3677(3) -0.0588(2)
C17 C 0.4318(4) 0.2735(3) -0.0712(2)
C18 C 0.7014(4) 0.5446(3) -0.1347(2)
H1 H -0.190(3) 0.436(3) 0.0483(18)
H2 H -0.256(4) 0.465(3) 0.172(2)
H3 H -0.132(3) 0.396(2) 0.2761(19)
H4 H 0.031(3) 0.289(2) 0.2562(16)
H5 H 0.155(3) 0.149(2) 0.2214(15)
H6 H 0.250(3) 0.245(2) 0.2189(17)
H7 H 0.362(3) 0.095(2) 0.1982(16)
H8 H 0.371(3) 0.161(2) 0.1245(17)
H9 H 0.385(4) -0.053(3) 0.134(2)
H10 H 0.382(4) 0.000(2) 0.049(2)
H11 H 0.197(4) -0.135(3) 0.086(2)
H12 H 0.319(4) -0.164(3) 0.038(2)
H13 H 0.246(3) -0.159(2) -0.0955(17)
H14 H 0.320(4) -0.061(3) -0.0866(19)
H15 H 0.045(4) -0.088(3) -0.153(2)
H16 H 0.167(3) -0.082(3) -0.206(2)
H17 H -0.053(4) 0.065(3) -0.204(2)
H18 H 0.064(3) 0.064(2) -0.2641(18)
H19 H 0.010(4) 0.233(3) -0.254(2)
H20 H 0.140(3) 0.222(2) -0.2077(18)
H21 H 0.106(3) 0.348(2) -0.1146(18)
H22 H -0.025(3) 0.383(2) -0.1719(18)
H23 H -0.060(3) 0.438(3) -0.0516(17)
H24 H -0.153(3) 0.350(2) -0.0702(15)
S1B S 0.48629(11) 0.62260(7) 0.09600(6)
N1B N 0.6212(4) 0.7999(3) 0.0579(2)
C17B C 0.5682(4) 0.7265(3) 0.0712(2)
S2B S 0.36461(13) 0.39219(8) 0.06406(7)
N2B N 0.2484(3) 0.4923(2) 0.18387(18)
C18B C 0.2986(4) 0.4554(3) 0.1347(2)
K1B K 0.87933(8) 0.86557(6) 0.01422(4)
O1B O -0.0011(2) -0.31615(16) -0.00826(13)
O2B O -0.1294(2) -0.23180(16) -0.12655(12)
O3B O -0.2441(2) -0.04207(18) -0.11347(13)
O4B O -0.1728(2) 0.08117(18) 0.02047(15)
O5B O -0.1341(3) -0.0460(2) 0.15506(14)
O6B O 0.0042(2) -0.23393(18) 0.14196(13)
C1B C 0.0419(3) -0.3401(2) -0.0792(2)
C2B C 0.1475(4) -0.4046(3) -0.0901(3)
C3B C 0.1808(5) -0.4250(3) -0.1642(3)
C4B C 0.1131(4) -0.3821(3) -0.2266(3)
C5B C 0.0085(4) -0.3164(3) -0.2163(2)
C6B C -0.0272(3) -0.2956(2) -0.1435(2)
C7B C -0.2110(4) -0.1874(3) -0.1895(2)
C8B C -0.3110(4) -0.1217(3) -0.1562(2)
C9B C -0.3338(5) 0.0317(3) -0.0859(3)
C10B C -0.2533(5) 0.1149(3) -0.0467(3)
C11B C -0.2326(5) 0.0964(4) 0.0911(3)
C12B C -0.1403(5) 0.0609(3) 0.1566(3)
C13B C -0.0426(5) -0.0878(4) 0.2135(3)
C14B C -0.0528(5) -0.1996(4) 0.2096(2)
C15B C -0.0150(5) -0.3396(3) 0.1265(2)
C16B C 0.0598(4) -0.3677(3) 0.0588(2)
H1B H 0.190(3) -0.436(3) -0.0483(18)
H2B H 0.256(4) -0.465(3) -0.172(2)
H3B H 0.132(3) -0.396(2) -0.2761(19)
H4B H -0.031(3) -0.289(2) -0.2562(16)
H5B H -0.155(3) -0.149(2) -0.2214(15)
H6B H -0.250(3) -0.245(2) -0.2189(17)
H7B H -0.362(3) -0.095(2) -0.1982(16)
H8B H -0.371(3) -0.161(2) -0.1245(17)
H9B H -0.385(4) 0.053(3) -0.134(2)
H10B H -0.382(4) 0.000(2) -0.049(2)
H11B H -0.197(4) 0.135(3) -0.086(2)
H12B H -0.319(4) 0.164(3) -0.038(2)
H13B H -0.246(3) 0.159(2) 0.0955(17)
H14B H -0.320(4) 0.061(3) 0.0866(19)
H15B H -0.045(4) 0.088(3) 0.153(2)
H16B H -0.167(3) 0.082(3) 0.206(2)
H17B H 0.053(4) -0.065(3) 0.204(2)
H18B H -0.064(3) -0.064(2) 0.2641(18)
H19B H -0.010(4) -0.233(3) 0.254(2)
H20B H -0.140(3) -0.222(2) 0.2077(18)
H21B H -0.106(3) -0.348(2) 0.1146(18)
H22B H 0.025(3) -0.383(2) 0.1719(18)
H23B H 0.060(3) -0.438(3) 0.0516(17)
H24B H 0.153(3) -0.350(2) 0.0702(15)
K1B_2 K -0.12067(8) -0.13443(6) 0.01422(4)
N1B_2 N -0.3788(4) -0.2001(3) 0.0579(2)
loop_
_geom_bond_atom_site_label_1
_geom_bond_atom_site_label_2
_geom_bond_site_symmetry_1
_geom_bond_site_symmetry_2
Pt1 S1 1_555 1_555
S1 C17 1_555 1_555
S2 Pt1 1_555 1_555
K1 N1 1_555 1_555
N1 C17 1_555 1_555
N2 C18 1_555 1_555
O1 K1 1_555 1_555
O2 K1 1_555 1_555
O3 K1 1_555 1_555
O4 K1 1_555 1_555
O5 K1 1_555 1_555
O6 K1 1_555 1_555
C1 O1 1_555 1_555
C2 C1 1_555 1_555
C3 C2 1_555 1_555
C4 C3 1_555 1_555
C5 C4 1_555 1_555
C6 O2 1_555 1_555
C7 O2 1_555 1_555
C8 O3 1_555 1_555
C9 O3 1_555 1_555
C10 O4 1_555 1_555
C11 O4 1_555 1_555
C12 O5 1_555 1_555
C13 O5 1_555 1_555
C14 O6 1_555 1_555
C15 O6 1_555 1_555
C16 O1 1_555 1_555
C18 S2 1_555 1_555
H1 C2 1_555 1_555
H2 C3 1_555 1_555
H3 C4 1_555 1_555
H4 C5 1_555 1_555
H5 C7 1_555 1_555
H6 C7 1_555 1_555
H7 C8 1_555 1_555
H8 C8 1_555 1_555
H9 C9 1_555 1_555
H10 C9 1_555 1_555
H11 C10 1_555 1_555
H12 C10 1_555 1_555
H13 C11 1_555 1_555
H14 C11 1_555 1_555
H15 C12 1_555 1_555
H16 C12 1_555 1_555
H17 C13 1_555 1_555
H18 C13 1_555 1_555
H19 C14 1_555 1_555
H20 C14 1_555 1_555
H21 C15 1_555 1_555
H22 C15 1_555 1_555
H23 C16 1_555 1_555
H24 C16 1_555 1_555
S1B Pt1 1_555 1_555
N1B C17B 1_555 1_555
C17B S1B 1_555 1_555
S2B Pt1 1_555 1_555
N2B C18B 1_555 1_555
C18B S2B 1_555 1_555
K1B N1B 1_555 1_555
O1B C1B 1_555 1_555
O2B C6B 1_555 1_555
O3B C8B 1_555 1_555
O4B K1 1_555 1_555
O5B C12B 1_555 1_555
O6B C14B 1_555 1_555
C1B C2B 1_555 1_555
C2B C3B 1_555 1_555
C3B C4B 1_555 1_555
C4B C5B 1_555 1_555
C5B C6B 1_555 1_555
C6B C1B 1_555 1_555
C7B O2B 1_555 1_555
C8B C7B 1_555 1_555
C9B O3B 1_555 1_555
C10B O4B 1_555 1_555
C11B O4B 1_555 1_555
C12B C11B 1_555 1_555
C13B O5B 1_555 1_555
C14B C13B 1_555 1_555
C15B O6B 1_555 1_555
C16B O1B 1_555 1_555
H1B C2B 1_555 1_555
H2B C3B 1_555 1_555
H3B C4B 1_555 1_555
H4B C5B 1_555 1_555
H5B C7B 1_555 1_555
H6B C7B 1_555 1_555
H7B C8B 1_555 1_555
H8B C8B 1_555 1_555
H9B C9B 1_555 1_555
H10B C9B 1_555 1_555
H11B C10B 1_555 1_555
H12B C10B 1_555 1_555
H13B C11B 1_555 1_555
H14B C11B 1_555 1_555
H15B C12B 1_555 1_555
H16B C12B 1_555 1_555
H17B C13B 1_555 1_555
H18B C13B 1_555 1_555
H19B C14B 1_555 1_555
H20B C14B 1_555 1_555
H21B C15B 1_555 1_555
H22B C15B 1_555 1_555
H23B C16B 1_555 1_555
H24B C16B 1_555 1_555
K1B_2 O4 1_555 1_555
N1B_2 K1B_2 1_555 1_555
C1 C6 1_555 1_555
C5 C6 1_555 1_555
C7 C8 1_555 1_555
C9 C10 1_555 1_555
C11 C12 1_555 1_555
C13 C14 1_555 1_555
C15 C16 1_555 1_555
O1B K1B_2 1_555 1_555
O2B K1B_2 1_555 1_555
O3B K1B_2 1_555 1_555
O4B K1B_2 1_555 1_555
O5B K1B_2 1_555 1_555
O6B K1B_2 1_555 1_555
C9B C10B 1_555 1_555
C15B C16B 1_555 1_555

#END
