
#######################################################################
#
#                 Cambridge Crystallographic Data Centre
#                                CCDC 
#
#######################################################################
#
# If this CIF has been generated from an entry in the Cambridge 
# Structural Database, then it will include bibliographic, chemical, 
# crystal, experimental, refinement or atomic coordinate data resulting 
# from the CCDC's data processing and validation procedures.
#
#######################################################################

data_MOTNOZ
_symmetry_cell_setting           triclinic
_symmetry_space_group_name_H-M   'P -1'
_symmetry_Int_Tables_number      2
_space_group_name_Hall           '-P 1'
loop_
_symmetry_equiv_pos_site_id
_symmetry_equiv_pos_as_xyz
1 x,y,z
2 -x,-y,-z
_cell_length_a                   9.260(3)
_cell_length_b                   10.595(3)
_cell_length_c                   11.532(3)
_cell_angle_alpha                90.07(2)
_cell_angle_beta                 102.86(2)
_cell_angle_gamma                103.33(2)
_cell_volume                     1071.66
loop_
_atom_site_label
_atom_site_type_symbol
_atom_site_fract_x
_atom_site_fract_y
_atom_site_fract_z
Cd1 Cd 0.66928(4) 0.81368(3) 0.97327(3)
O1 O 0.8149(4) 0.6673(4) 1.0343(4)
O2 O 0.9660(4) 0.8443(4) 1.0000(4)
O3 O 0.3869(5) 0.8114(4) 0.8860(4)
O4 O 0.4769(4) 0.6405(4) 0.8747(4)
O5 O 0.7765(5) 1.0202(4) 1.0643(4)
N1 N 0.5683(5) 0.7750(4) 1.1409(4)
N2 N 0.4360(5) 0.6703(4) 1.2628(4)
N3 N -0.2059(5) -0.0041(4) 1.6494(3)
N4 N -0.3058(5) -0.1083(4) 1.7899(4)
C1 C 0.5102(6) 0.6606(5) 1.1752(4)
H1 H 0.5186 0.5825 1.1437
C2 C 0.5309(6) 0.8633(5) 1.2093(5)
H2 H 0.5586 0.9531 1.2051
C3 C 0.4486(6) 0.8012(6) 1.2830(5)
H3 H 0.4078 0.8389 1.3371
C4 C 0.3515(6) 0.5663(5) 1.3184(5)
C5 C 0.2706(6) 0.4540(5) 1.2544(4)
H4 H 0.2736 0.4422 1.1751
C6 C 0.1840(6) 0.3577(5) 1.3085(5)
H5 H 0.1287 0.2814 1.2647
C7 C 0.1783(6) 0.3732(5) 1.4277(5)
C8 C 0.2602(10) 0.4845(8) 1.4878(6)
H6 H 0.2573 0.4967 1.5670
C9 C 0.3497(9) 0.5827(7) 1.4364(6)
H7 H 0.4071 0.6579 1.4811
C10 C 0.0809(6) 0.2706(5) 1.4844(5)
C11 C -0.0530(7) 0.1946(6) 1.4207(5)
H8 H -0.0817 0.2046 1.3393
C12 C -0.1481(6) 0.1029(6) 1.4731(5)
H9 H -0.2392 0.0530 1.4274
C13 C -0.1059(6) 0.0865(5) 1.5933(4)
C14 C 0.0321(7) 0.1560(7) 1.6582(5)
H10 H 0.0640 0.1419 1.7385
C15 C 0.1236(7) 0.2470(7) 1.6038(5)
H11 H 0.2169 0.2940 1.6487
C16 C -0.1865(6) -0.0244(5) 1.7677(4)
H12 H -0.1005 0.0156 1.8256
C17 C -0.4038(6) -0.1450(5) 1.6836(5)
H13 H -0.4978 -0.2042 1.6720
C18 C -0.3441(6) -0.0818(6) 1.5954(5)
H14 H -0.3890 -0.0902 1.5143
C19 C 0.9460(6) 0.7343(5) 1.0369(5)
C20 C 1.0799(7) 0.6795(7) 1.0889(7)
H15 H 1.0638 0.5933 1.0547
H16 H 1.0916 0.6764 1.1736
H17 H 1.1704 0.7335 1.0717
C21 C 0.3664(6) 0.6928(5) 0.8614(5)
C22 C 0.2090(7) 0.6077(8) 0.8169(7)
H18 H 0.1355 0.6488 0.8378
H19 H 0.2028 0.5254 0.8525
H20 H 0.1883 0.5946 0.7318
H21 H 0.739(7) 1.075(6) 1.079(5)
H22 H 0.867(9) 1.054(7) 1.054(6)
Cd1_2 Cd -0.33072(4) -0.18632(3) 1.97327(3)
N4_2 N 0.6942(5) 0.8917(4) 0.7899(4)
loop_
_geom_bond_atom_site_label_1
_geom_bond_atom_site_label_2
_geom_bond_site_symmetry_1
_geom_bond_site_symmetry_2
Cd1 O1 1_555 1_555
O1 C19 1_555 1_555
O2 Cd1 1_555 1_555
O3 Cd1 1_555 1_555
O4 Cd1 1_555 1_555
O5 Cd1 1_555 1_555
N1 Cd1 1_555 1_555
N2 C1 1_555 1_555
N3 C13 1_555 1_555
N4 C16 1_555 1_555
C1 N1 1_555 1_555
H1 C1 1_555 1_555
C2 N1 1_555 1_555
H2 C2 1_555 1_555
C3 N2 1_555 1_555
H3 C3 1_555 1_555
C4 N2 1_555 1_555
C5 C4 1_555 1_555
H4 C5 1_555 1_555
C6 C5 1_555 1_555
H5 C6 1_555 1_555
C7 C6 1_555 1_555
C8 C7 1_555 1_555
H6 C8 1_555 1_555
C9 C4 1_555 1_555
H7 C9 1_555 1_555
C10 C7 1_555 1_555
C11 C10 1_555 1_555
H8 C11 1_555 1_555
C12 C11 1_555 1_555
H9 C12 1_555 1_555
C13 C12 1_555 1_555
C14 C13 1_555 1_555
H10 C14 1_555 1_555
C15 C10 1_555 1_555
H11 C15 1_555 1_555
C16 N3 1_555 1_555
H12 C16 1_555 1_555
C17 N4 1_555 1_555
H13 C17 1_555 1_555
C18 N3 1_555 1_555
H14 C18 1_555 1_555
C19 O2 1_555 1_555
C20 C19 1_555 1_555
H15 C20 1_555 1_555
H16 C20 1_555 1_555
H17 C20 1_555 1_555
C21 O3 1_555 1_555
C22 C21 1_555 1_555
H18 C22 1_555 1_555
H19 C22 1_555 1_555
H20 C22 1_555 1_555
H21 O5 1_555 1_555
H22 O5 1_555 1_555
Cd1_2 N4 1_555 1_555
N4_2 Cd1 1_555 1_555
O4 C21 1_555 1_555
C2 C3 1_555 1_555
C8 C9 1_555 1_555
C14 C15 1_555 1_555
C17 C18 1_555 1_555

#END
