
#######################################################################
#
#                 Cambridge Crystallographic Data Centre
#                                CCDC 
#
#######################################################################
#
# If this CIF has been generated from an entry in the Cambridge 
# Structural Database, then it will include bibliographic, chemical, 
# crystal, experimental, refinement or atomic coordinate data resulting 
# from the CCDC's data processing and validation procedures.
#
#######################################################################

data_MOTNEP
_symmetry_cell_setting           triclinic
_symmetry_space_group_name_H-M   'P -1'
_symmetry_Int_Tables_number      2
_space_group_name_Hall           '-P 1'
loop_
_symmetry_equiv_pos_site_id
_symmetry_equiv_pos_as_xyz
1 x,y,z
2 -x,-y,-z
_cell_length_a                   10.104(3)
_cell_length_b                   10.676(4)
_cell_length_c                   11.869(4)
_cell_angle_alpha                111.14(3)
_cell_angle_beta                 98.22(3)
_cell_angle_gamma                110.32(2)
_cell_volume                     1065.88
loop_
_atom_site_label
_atom_site_type_symbol
_atom_site_fract_x
_atom_site_fract_y
_atom_site_fract_z
Cd1 Cd 0.54421(5) 0.67086(4) 0.92094(4)
O1 O 0.3954(5) 0.6791(4) 1.0415(4)
O2 O 0.3276(5) 0.4421(4) 0.9989(4)
O3 O 0.4872(5) 0.8322(5) 0.8546(4)
O4 O 0.6573(5) 0.7849(4) 0.7750(4)
N1 N 0.7468(5) 0.8822(5) 1.0683(4)
N2 N 0.9001(5) 1.1211(5) 1.1710(4)
N3 N 1.4274(6) 2.4577(5) 1.7395(4)
N4 N 1.3129(6) 2.2239(5) 1.5980(4)
C1 C 0.3234(7) 0.5617(7) 1.0501(6)
C2 C 0.2307(14) 0.5769(11) 1.1375(12)
H1 H 0.1944 0.4888 1.1502
H2 H 0.2897 0.6618 1.2176
H3 H 0.1484 0.5900 1.1008
C3 C 0.5859(7) 0.8592(6) 0.8021(5)
C4 C 0.6231(10) 0.9966(8) 0.7763(9)
H4 H 0.7279 1.0586 0.8115
H5 H 0.5711 1.0517 0.8149
H6 H 0.5936 0.9652 0.6864
C5 C 0.7573(6) 1.0188(5) 1.1140(5)
H7 H 0.6766 1.0418 1.1078
C6 C 0.9872(7) 1.0449(6) 1.1600(6)
H8 H 1.0901 1.0851 1.1896
C7 C 0.8914(7) 0.9000(6) 1.0972(6)
H9 H 0.9190 0.8219 1.0761
C8 C 0.9508(7) 1.2797(5) 1.2378(5)
C9 C 0.8686(7) 1.3474(6) 1.2057(6)
H10 H 0.7796 1.2914 1.1399
C10 C 0.9193(7) 1.4993(6) 1.2721(7)
H11 H 0.8618 1.5446 1.2522
C11 C 1.0544(7) 1.5868(5) 1.3683(5)
C12 C 1.1333(8) 1.5163(6) 1.3978(6)
H12 H 1.2231 1.5722 1.4626
C13 C 1.0835(8) 1.3643(7) 1.3344(6)
H13 H 1.1394 1.3188 1.3567
C14 C 1.1130(7) 1.7526(6) 1.4322(5)
C15 C 1.2159(9) 1.8379(6) 1.5553(6)
H14 H 1.2416 1.7901 1.6005
C16 C 1.2796(8) 1.9930(6) 1.6098(6)
H15 H 1.3484 2.0482 1.6904
C17 C 1.2408(7) 2.0646(5) 1.5445(5)
C18 C 1.1326(7) 1.9842(6) 1.4280(6)
H16 H 1.1005 2.0327 1.3868
C19 C 1.0723(7) 1.8291(6) 1.3729(6)
H17 H 1.0018 1.7753 1.2931
C20 C 1.3570(7) 2.3207(6) 1.7226(5)
H18 H 1.3396 2.2934 1.7870
C21 C 1.4276(8) 2.4488(6) 1.6200(6)
H19 H 1.4693 2.5297 1.6027
C22 C 1.3581(8) 2.3044(6) 1.5323(6)
H20 H 1.3440 2.2677 1.4455
Cd1A Cd 0.45579(5) 0.32914(4) 1.07906(4)
Cd1_2 Cd 1.54421(5) 2.67086(4) 1.92094(4)
O2A O 0.6724(5) 0.5579(4) 1.0011(4)
N3_2 N 0.4274(6) 0.4577(5) 0.7395(4)
loop_
_geom_bond_atom_site_label_1
_geom_bond_atom_site_label_2
_geom_bond_site_symmetry_1
_geom_bond_site_symmetry_2
Cd1 O1 1_555 1_555
O1 C1 1_555 1_555
O2 C1 1_555 1_555
O3 Cd1 1_555 1_555
O4 Cd1 1_555 1_555
N1 Cd1 1_555 1_555
N2 C5 1_555 1_555
N3 C20 1_555 1_555
N4 C17 1_555 1_555
C1 C2 1_555 1_555
C2 H1 1_555 1_555
H2 C2 1_555 1_555
H3 C2 1_555 1_555
C3 O3 1_555 1_555
C4 C3 1_555 1_555
H4 C4 1_555 1_555
H5 C4 1_555 1_555
H6 C4 1_555 1_555
C5 N1 1_555 1_555
H7 C5 1_555 1_555
C6 N2 1_555 1_555
H8 C6 1_555 1_555
C7 N1 1_555 1_555
H9 C7 1_555 1_555
C8 N2 1_555 1_555
C9 C8 1_555 1_555
H10 C9 1_555 1_555
C10 C9 1_555 1_555
H11 C10 1_555 1_555
C11 C10 1_555 1_555
C12 C11 1_555 1_555
H12 C12 1_555 1_555
C13 C8 1_555 1_555
H13 C13 1_555 1_555
C14 C11 1_555 1_555
C15 C14 1_555 1_555
H14 C15 1_555 1_555
C16 C15 1_555 1_555
H15 C16 1_555 1_555
C17 C16 1_555 1_555
C18 C17 1_555 1_555
H16 C18 1_555 1_555
C19 C14 1_555 1_555
H17 C19 1_555 1_555
C20 N4 1_555 1_555
H18 C20 1_555 1_555
C21 N3 1_555 1_555
H19 C21 1_555 1_555
C22 N4 1_555 1_555
H20 C22 1_555 1_555
Cd1A O2 1_555 1_555
Cd1_2 N3 1_555 1_555
O2A Cd1 1_555 1_555
N3_2 Cd1 1_555 1_555
O4 C3 1_555 1_555
C6 C7 1_555 1_555
C12 C13 1_555 1_555
C18 C19 1_555 1_555
C21 C22 1_555 1_555

#END
