
#######################################################################
#
#                 Cambridge Crystallographic Data Centre
#                                CCDC 
#
#######################################################################
#
# If this CIF has been generated from an entry in the Cambridge 
# Structural Database, then it will include bibliographic, chemical, 
# crystal, experimental, refinement or atomic coordinate data resulting 
# from the CCDC's data processing and validation procedures.
#
#######################################################################

data_MOTRAQ
_symmetry_cell_setting           monoclinic
_symmetry_space_group_name_H-M   'C 2/c'
_symmetry_Int_Tables_number      15
_space_group_name_Hall           '-C 2yn'
loop_
_symmetry_equiv_pos_site_id
_symmetry_equiv_pos_as_xyz
1 x,y,z
2 -x,y,1/2-z
3 1/2+x,1/2+y,z
4 1/2-x,1/2+y,1/2-z
5 -x,-y,-z
6 x,-y,1/2+z
7 1/2-x,1/2-y,-z
8 1/2+x,1/2-y,1/2+z
_cell_length_a                   22.2003(19)
_cell_length_b                   7.3575(7)
_cell_length_c                   15.5257(12)
_cell_angle_alpha                90
_cell_angle_beta                 130.5877(18)
_cell_angle_gamma                90
_cell_volume                     1925.83
loop_
_atom_site_label
_atom_site_type_symbol
_atom_site_fract_x
_atom_site_fract_y
_atom_site_fract_z
Mg1 Mg 0.24723(11) 0.7075(3) 0.24333(14)
O1 O 0.3058(2) 0.4630(5) 0.3415(3)
O2 O 0.2738(3) 0.8017(6) 0.3866(3)
O3 O 0.3547(3) 0.8064(6) 0.2961(4)
O4 O 0.2257(3) 0.6019(6) 0.1049(3)
O5 O 0.1389(3) 0.6096(6) 0.1847(4)
N1 N 0.3583(3) 0.4781(6) 0.4544(4)
C1 C 0.2919(4) 0.9485(8) 0.4396(5)
C2 C 0.3893(4) 0.9581(9) 0.3218(5)
C3 C 0.4301(3) 0.5498(8) 0.5027(5)
C4 C 0.3376(4) 0.4322(8) 0.5164(5)
C5 C 0.3401(4) 0.9346(10) 0.5659(5)
C6 C 0.4725(4) 0.9505(10) 0.3634(6)
C7 C 0.4876(3) 0.5607(8) 0.6206(4)
H1 H 0.4413 0.5926 0.4566
C8 C 0.3933(4) 0.4456(8) 0.6334(4)
H2 H 0.2854 0.3912 0.4800
H3 H 0.3863 0.8567 0.5987
H4 H 0.3073 0.8820 0.5813
H5 H 0.3579 1.0560 0.5998
H6 H 0.4898 1.0732 0.3636
H7 H 0.4734 0.8722 0.3132
H8 H 0.5085 0.9011 0.4406
C9 C 0.4696(4) 0.5069(8) 0.6879(4)
H9 H 0.5392 0.6047 0.6552
H10 H 0.3790 0.4123 0.6771
O1C O 0.1942(2) 0.9630(5) 0.1585(3)
Mg1C Mg 0.25277(11) 0.2075(3) 0.25667(14)
Mg1C_2 Mg 0.25277(11) 1.2075(3) 0.25667(14)
O4C O 0.2743(3) 1.1019(6) 0.3951(3)
O5C O 0.3611(3) 1.1096(6) 0.3153(4)
C9A C 0.5304(4) 0.5069(8) 0.8121(4)
C7A C 0.5124(3) 0.5607(8) 0.8794(4)
C8A C 0.6067(4) 0.4456(8) 0.8666(4)
C3A C 0.5699(3) 0.5498(8) 0.9973(5)
H9A H 0.4608 0.6047 0.8448
C4A C 0.6624(4) 0.4322(8) 0.9836(5)
H10A H 0.6210 0.4123 0.8229
N1A N 0.6417(3) 0.4781(6) 1.0456(4)
H1A H 0.5587 0.5926 1.0434
H2A H 0.7146 0.3912 1.0200
O1A O 0.6942(2) 0.4630(5) 1.1585(3)
Mg1A Mg 0.75277(11) 0.7075(3) 1.25667(14)
Mg1B Mg 0.74723(11) 0.2075(3) 1.24333(14)
O2A O 0.7262(3) 0.8017(6) 1.1134(3)
O3A O 0.6453(3) 0.8064(6) 1.2039(4)
O1B O 0.8058(2) 0.9630(5) 1.3415(3)
O4A O 0.7743(3) 0.6019(6) 1.3951(3)
O5A O 0.8611(3) 0.6096(6) 1.3153(4)
C1A C 0.7081(4) 0.9485(8) 1.0604(5)
C2A C 0.6107(4) 0.9581(9) 1.1782(5)
Mg1B_2 Mg 0.74723(11) 1.2075(3) 1.24333(14)
O4B O 0.7257(3) 1.1019(6) 1.1049(3)
C5A C 0.6599(4) 0.9346(10) 0.9341(5)
O5B O 0.6389(3) 1.1096(6) 1.1847(4)
C6A C 0.5275(4) 0.9505(10) 1.1366(6)
H3A H 0.6137 0.8567 0.9013
H4A H 0.6927 0.8820 0.9187
H5A H 0.6421 1.0560 0.9002
H6A H 0.5102 1.0732 1.1364
H7A H 0.5266 0.8722 1.1868
H8A H 0.4915 0.9011 1.0594
loop_
_geom_bond_atom_site_label_1
_geom_bond_atom_site_label_2
_geom_bond_site_symmetry_1
_geom_bond_site_symmetry_2
Mg1 O1 1_555 1_555
O1 N1 1_555 1_555
O2 Mg1 1_555 1_555
O3 Mg1 1_555 1_555
O4 Mg1 1_555 1_555
O5 Mg1 1_555 1_555
N1 C3 1_555 1_555
C1 O2 1_555 1_555
C2 O3 1_555 1_555
C3 C7 1_555 1_555
C4 N1 1_555 1_555
C5 C1 1_555 1_555
C6 C2 1_555 1_555
C7 C9 1_555 1_555
H1 C3 1_555 1_555
C8 C4 1_555 1_555
H2 C4 1_555 1_555
H3 C5 1_555 1_555
H4 C5 1_555 1_555
H5 C5 1_555 1_555
H6 C6 1_555 1_555
H7 C6 1_555 1_555
H8 C6 1_555 1_555
C9 C8 1_555 1_555
H9 C7 1_555 1_555
H10 C8 1_555 1_555
O1C Mg1 1_555 1_555
Mg1C O1 1_555 1_555
Mg1C_2 O1C 1_555 1_555
O4C C1 1_555 1_555
O5C C2 1_555 1_555
C9A C9 1_555 1_555
C7A C9A 1_555 1_555
C8A C9A 1_555 1_555
C3A C7A 1_555 1_555
H9A C7A 1_555 1_555
C4A C8A 1_555 1_555
H10A C8A 1_555 1_555
N1A C3A 1_555 1_555
H1A C3A 1_555 1_555
H2A C4A 1_555 1_555
O1A N1A 1_555 1_555
Mg1A O1A 1_555 1_555
Mg1B O1A 1_555 1_555
O2A Mg1A 1_555 1_555
O3A Mg1A 1_555 1_555
O1B Mg1A 1_555 1_555
O4A Mg1A 1_555 1_555
O5A Mg1A 1_555 1_555
C1A O2A 1_555 1_555
C2A O3A 1_555 1_555
Mg1B_2 O1B 1_555 1_555
O4B C1A 1_555 1_555
C5A C1A 1_555 1_555
O5B C2A 1_555 1_555
C6A C2A 1_555 1_555
H3A C5A 1_555 1_555
H4A C5A 1_555 1_555
H5A C5A 1_555 1_555
H6A C6A 1_555 1_555
H7A C6A 1_555 1_555
H8A C6A 1_555 1_555
Mg1C_2 O4C 1_555 1_555
Mg1C_2 O5C 1_555 1_555
C4A N1A 1_555 1_555
Mg1B_2 O4B 1_555 1_555
Mg1B_2 O5B 1_555 1_555

#END
