
#######################################################################
#
#                 Cambridge Crystallographic Data Centre
#                                CCDC 
#
#######################################################################
#
# If this CIF has been generated from an entry in the Cambridge 
# Structural Database, then it will include bibliographic, chemical, 
# crystal, experimental, refinement or atomic coordinate data resulting 
# from the CCDC's data processing and validation procedures.
#
#######################################################################

data_MOTRUK
_symmetry_cell_setting           monoclinic
_symmetry_space_group_name_H-M   'C 2/c'
_symmetry_Int_Tables_number      15
_space_group_name_Hall           '-C 2yn'
loop_
_symmetry_equiv_pos_site_id
_symmetry_equiv_pos_as_xyz
1 x,y,z
2 -x,y,1/2-z
3 1/2+x,1/2+y,z
4 1/2-x,1/2+y,1/2-z
5 -x,-y,-z
6 x,-y,1/2+z
7 1/2-x,1/2-y,-z
8 1/2+x,1/2-y,1/2+z
_cell_length_a                   21.47(3)
_cell_length_b                   19.39(3)
_cell_length_c                   10.099(14)
_cell_angle_alpha                90
_cell_angle_beta                 119.867(16)
_cell_angle_gamma                90
_cell_volume                     3645.85
loop_
_atom_site_label
_atom_site_type_symbol
_atom_site_fract_x
_atom_site_fract_y
_atom_site_fract_z
C1 C 0.1762(3) 0.4503(3) 0.6361(6)
C2 C 0.2111(4) 0.4778(6) 0.5650(9)
H1 H 0.1839 0.4968 0.4655
C3 C 0.2843(4) 0.4780(6) 0.6362(9)
H2 H 0.3077 0.4975 0.5863
C4 C 0.3239(3) 0.4505(3) 0.7783(6)
C5 C 0.2899(3) 0.4203(3) 0.8475(6)
H3 H 0.3172 0.3991 0.9446
C6 C 0.2160(3) 0.4208(3) 0.7755(6)
H4 H 0.1926 0.4001 0.8242
C7 C 0.0973(3) 0.4538(3) 0.5622(6)
C8 C 0.4037(3) 0.4538(3) 0.8582(6)
O1 O 0.4237(2) 0.3548(2) 1.2414(5)
O2 O 0.4257(3) 0.1452(2) 2.0981(5)
C9 C 0.4186(13) 0.3705(6) 1.474(2)
H5 H 0.4142 0.4193 1.4671
C10 C 0.4240(13) 0.3367(8) 1.601(2)
H6 H 0.4232 0.3624 1.6803
C11 C 0.4305(12) 0.2653(8) 1.6118(17)
C12 C 0.4317(12) 0.2277(6) 1.4959(19)
H7 H 0.4361 0.1789 1.5032
C13 C 0.4263(10) 0.2615(8) 1.3692(16)
H8 H 0.4271 0.2358 1.2900
N1 N 0.4198(10) 0.3329(8) 1.3585(19)
C14 C 0.4332(13) 0.1288(7) 1.872(3)
H9 H 0.4347 0.0799 1.8791
C15 C 0.4377(12) 0.1614(7) 1.755(2)
H10 H 0.4424 0.1348 1.6813
C16 C 0.4354(12) 0.2330(7) 1.7451(18)
C17 C 0.4286(12) 0.2720(6) 1.8527(19)
H11 H 0.4271 0.3209 1.8460
C18 C 0.4241(11) 0.2394(9) 1.9702(17)
H12 H 0.4195 0.2660 2.0438
N2 N 0.4264(12) 0.1678(9) 1.980(2)
O3 O 0.0694(2) 0.4350(2) 0.6385(5)
O4 O 0.0635(2) 0.4738(2) 0.4273(4)
O5 O 0.4364(2) 0.4357(2) 0.9926(4)
O6 O 0.4314(2) 0.4745(2) 0.7824(5)
Ca1 Ca 0.0000 0.44406(8) 0.7500
Ca2 Ca 0.5000 0.44442(8) 1.2500
C1A C -0.1762(3) 0.4503(3) 0.8639(6)
C2A C -0.2111(4) 0.4778(6) 0.9350(9)
H1A H -0.1839 0.4968 1.0345
C3A C -0.2843(4) 0.4780(6) 0.8638(9)
H2A H -0.3077 0.4975 0.9137
C4A C -0.3239(3) 0.4505(3) 0.7217(6)
C5A C -0.2899(3) 0.4203(3) 0.6525(6)
H3A H -0.3172 0.3991 0.5554
C6A C -0.2160(3) 0.4208(3) 0.7245(6)
H4A H -0.1926 0.4001 0.6758
C7A C -0.0973(3) 0.4538(3) 0.9378(6)
C8A C -0.4037(3) 0.4538(3) 0.6418(6)
O3A O -0.0694(2) 0.4350(2) 0.8615(5)
O4A O -0.0635(2) 0.4738(2) 1.0727(4)
O5A O -0.4364(2) 0.4357(2) 0.5074(4)
O6A O -0.4314(2) 0.4745(2) 0.7176(5)
O1G O -0.0763(2) 0.1452(2) -0.2586(5)
O2G O -0.0743(3) 0.3548(2) 0.5981(5)
C9G C -0.0814(13) 0.1295(6) -0.026(2)
H5G H -0.0858 0.0807 -0.0329
C10G C -0.0760(13) 0.1633(8) 0.101(2)
H6G H -0.0768 0.1376 0.1803
C11G C -0.0695(12) 0.2347(8) 0.1118(17)
C12G C -0.0683(12) 0.2723(6) -0.0041(19)
H7G H -0.0639 0.3211 0.0032
C13G C -0.0737(10) 0.2385(8) -0.1308(16)
H8G H -0.0729 0.2642 -0.2100
N1G N -0.0802(10) 0.1671(8) -0.1415(19)
C14G C -0.0668(13) 0.3712(7) 0.372(3)
H9G H -0.0653 0.4201 0.3791
C15G C -0.0623(12) 0.3386(7) 0.255(2)
H10G H -0.0576 0.3652 0.1813
C16G C -0.0646(12) 0.2670(7) 0.2451(18)
C17G C -0.0714(12) 0.2280(6) 0.3527(19)
H11G H -0.0729 0.1791 0.3460
C18G C -0.0759(11) 0.2606(9) 0.4702(17)
H12G H -0.0805 0.2340 0.5438
N2G N -0.0736(12) 0.3322(9) 0.480(2)
O1A O 0.5763(2) 0.3548(2) 1.2586(5)
O2F O 0.0743(3) 0.3548(2) 0.9019(5)
O4D O -0.0635(2) 0.5262(2) 0.5727(4)
O4E O 0.0635(2) 0.5262(2) 0.9273(4)
O5A_2 O 0.5636(2) 0.4357(2) 1.5074(4)
O6D O 0.5686(2) 0.5255(2) 1.2176(5)
O6E O 0.4314(2) 0.5255(2) 1.2824(5)
Ca1D Ca 0.0000 0.55594(8) 0.2500
Ca1D_2 Ca 0.0000 0.55594(8) 1.2500
Ca1F Ca 0.5000 0.05594(8) 2.2500
Ca2_2 Ca -0.5000 0.44442(8) 0.2500
Ca2D Ca -0.5000 0.55558(8) 0.7500
Ca2D_2 Ca 0.5000 0.55558(8) 0.7500
Ca2F Ca 0.0000 0.05558(8) -0.2500
O7 O 0.7462(14) 0.1057(14) 0.870(3)
N5 N 0.7513(15) 0.1904(13) 0.723(3)
C29 C 0.7458(16) 0.1245(13) 0.753(3)
C30 C 0.756(2) 0.2441(15) 0.828(4)
C31 C 0.751(2) 0.2110(18) 0.585(3)
C19? C 0.4290(14) 0.3639(8) 1.459(3)
H13? H 0.4430 0.4106 1.4622
C20? C 0.4189(13) 0.3380(9) 1.576(2)
H14? H 0.4259 0.3670 1.6578
C21? C 0.3985(13) 0.2697(10) 1.572(2)
C22? C 0.3882(15) 0.2272(8) 1.452(2)
H15? H 0.3743 0.1805 1.4490
C23? C 0.3984(13) 0.2531(10) 1.335(2)
H16? H 0.3914 0.2241 1.2533
N3? N 0.4188(13) 0.3215(11) 1.339(2)
C24? C 0.4233(15) 0.1379(9) 1.881(3)
H17? H 0.4350 0.0906 1.9053
C25? C 0.4143(13) 0.1646(8) 1.745(2)
H18? H 0.4198 0.1355 1.6760
C26? C 0.3971(13) 0.2338(9) 1.710(2)
C27? C 0.3890(14) 0.2763(8) 1.812(2)
H19? H 0.3773 0.3237 1.7876
C28? C 0.3981(14) 0.2496(12) 1.948(2)
H20? H 0.3926 0.2787 2.0169
N4? N 0.4152(15) 0.1804(13) 1.983(3)
O8? O 0.7481(19) 0.1292(17) 0.661(4)
N6? N 0.7491(19) 0.2334(16) 0.765(4)
C32? C 0.751(2) 0.1648(16) 0.765(4)
C33? C 0.747(3) 0.2715(19) 0.639(5)
C34? C 0.753(3) 0.272(2) 0.891(5)
loop_
_geom_bond_atom_site_label_1
_geom_bond_atom_site_label_2
_geom_bond_site_symmetry_1
_geom_bond_site_symmetry_2
C1 C2 1_555 1_555
C2 H1 1_555 1_555
C3 C2 1_555 1_555
H2 C3 1_555 1_555
C4 C3 1_555 1_555
C5 C4 1_555 1_555
H3 C5 1_555 1_555
C6 C1 1_555 1_555
H4 C6 1_555 1_555
C7 C1 1_555 1_555
C8 C4 1_555 1_555
O1 N1 1_555 1_555
O2 N2 1_555 1_555
C9 H5 1_555 1_555
C10 C9 1_555 1_555
H6 C10 1_555 1_555
C11 C10 1_555 1_555
C12 C11 1_555 1_555
H7 C12 1_555 1_555
C13 C12 1_555 1_555
H8 C13 1_555 1_555
N1 C9 1_555 1_555
C14 H9 1_555 1_555
C15 C14 1_555 1_555
H10 C15 1_555 1_555
C16 C11 1_555 1_555
C17 C16 1_555 1_555
H11 C17 1_555 1_555
C18 C17 1_555 1_555
H12 C18 1_555 1_555
N2 C14 1_555 1_555
O3 C7 1_555 1_555
O4 C7 1_555 1_555
O5 C8 1_555 1_555
O6 C8 1_555 1_555
Ca1 O3 1_555 1_555
Ca2 O1 1_555 1_555
O7 C29 1_555 1_555
N5 C29 1_555 1_555
C30 N5 1_555 1_555
C31 N5 1_555 1_555
C1A C2A 1_555 1_555
C2A H1A 1_555 1_555
C3A C2A 1_555 1_555
H2A C3A 1_555 1_555
C4A C3A 1_555 1_555
C5A C4A 1_555 1_555
H3A C5A 1_555 1_555
C6A C1A 1_555 1_555
H4A C6A 1_555 1_555
C7A C1A 1_555 1_555
C8A C4A 1_555 1_555
O3A Ca1 1_555 1_555
O4A C7A 1_555 1_555
O5A C8A 1_555 1_555
O6A C8A 1_555 1_555
O1G N1G 1_555 1_555
O2G Ca1 1_555 1_555
C9G H5G 1_555 1_555
C10G C9G 1_555 1_555
H6G C10G 1_555 1_555
C11G C10G 1_555 1_555
C12G C11G 1_555 1_555
H7G C12G 1_555 1_555
C13G C12G 1_555 1_555
H8G C13G 1_555 1_555
N1G C9G 1_555 1_555
C14G H9G 1_555 1_555
C15G C14G 1_555 1_555
H10G C15G 1_555 1_555
C16G C11G 1_555 1_555
C17G C16G 1_555 1_555
H11G C17G 1_555 1_555
C18G C17G 1_555 1_555
H12G C18G 1_555 1_555
N2G O2G 1_555 1_555
O1A Ca2 1_555 1_555
O2F Ca1 1_555 1_555
O4D Ca1 1_555 1_555
O4E Ca1 1_555 1_555
O5A_2 Ca2 1_555 1_555
O6D Ca2 1_555 1_555
O6E Ca2 1_555 1_555
Ca1D O4 1_555 1_555
Ca1D_2 O4A 1_555 1_555
Ca1F O2 1_555 1_555
Ca2_2 O5A 1_555 1_555
Ca2D O6A 1_555 1_555
Ca2D_2 O6 1_555 1_555
Ca2F O1G 1_555 1_555
C5 C6 1_555 1_555
C13 N1 1_555 1_555
C15 C16 1_555 1_555
C18 N2 1_555 1_555
O5 Ca2 1_555 1_555
C5A C6A 1_555 1_555
C7A O3A 1_555 1_555
C13G N1G 1_555 1_555
C14G N2G 1_555 1_555
C15G C16G 1_555 1_555
C18G N2G 1_555 1_555

#END
