
#######################################################################
#
#                 Cambridge Crystallographic Data Centre
#                                CCDC 
#
#######################################################################
#
# If this CIF has been generated from an entry in the Cambridge 
# Structural Database, then it will include bibliographic, chemical, 
# crystal, experimental, refinement or atomic coordinate data resulting 
# from the CCDC's data processing and validation procedures.
#
#######################################################################

data_MOTRIX
_symmetry_cell_setting           triclinic
_symmetry_space_group_name_H-M   'P -1'
_symmetry_Int_Tables_number      2
_space_group_name_Hall           '-P 1'
loop_
_symmetry_equiv_pos_site_id
_symmetry_equiv_pos_as_xyz
1 x,y,z
2 -x,-y,-z
_cell_length_a                   9.120(2)
_cell_length_b                   9.214(3)
_cell_length_c                   9.618(3)
_cell_angle_alpha                70.046(4)
_cell_angle_beta                 87.725(4)
_cell_angle_gamma                65.772(4)
_cell_volume                     688.019
loop_
_atom_site_label
_atom_site_type_symbol
_atom_site_fract_x
_atom_site_fract_y
_atom_site_fract_z
Co1 Co 0.5000 0.5000 0.0000
F1 F 0.62115(19) -0.09287(17) 0.17081(15)
F2 F 0.3728(2) -0.05402(18) 0.12911(17)
F3 F 0.40441(16) 0.72092(15) 0.45155(13)
F4 F 0.65072(15) 0.56444(17) 0.42355(13)
O1 O 0.28340(18) 0.6432(2) 0.25499(16)
O2 O 0.52965(18) 0.24457(19) 0.07326(16)
O3 O 0.2722(2) 0.2727(2) 0.0670(2)
O4 O 0.53881(18) 0.49340(19) 0.21737(15)
O5 O 0.75080(18) 0.4113(2) -0.00507(17)
C1 C 0.4332(2) 0.5708(2) 0.2847(2)
C2 C 0.4983(2) 0.5732(3) 0.4302(2)
C3 C 0.4200(3) 0.1953(3) 0.0730(2)
C4 C 0.4828(3) 0.0095(3) 0.0759(2)
H12 H 0.764(4) 0.386(4) -0.076(3)
H13 H 0.758(4) 0.497(3) -0.024(4)
Co1_2 Co 0.5000 -0.5000 0.0000
Co1_3 Co 0.5000 0.5000 1.0000
F1A F 0.37885(19) 0.09287(17) -0.17081(15)
F2A F 0.6272(2) 0.05402(18) -0.12911(17)
F3A F 0.59559(16) 0.27908(15) 0.54845(13)
F4A F 0.34928(15) 0.43556(17) 0.57645(13)
O1A O 0.71660(18) 0.3568(2) 0.74501(16)
O2A O 0.47035(18) -0.24457(19) -0.07326(16)
O2A_2 O 0.47035(18) 0.75543(19) -0.07326(16)
O3A O 0.7278(2) -0.2727(2) -0.0670(2)
O4A O 0.46119(18) 0.50660(19) 0.78263(15)
O4A_2 O 0.46119(18) 0.50660(19) -0.21737(15)
O5A O 0.24920(18) 0.5887(2) 0.00507(17)
C1A C 0.5668(2) 0.4292(2) 0.7153(2)
C2A C 0.5017(2) 0.4268(3) 0.5698(2)
C3A C 0.5800(3) -0.1953(3) -0.0730(2)
C4A C 0.5172(3) -0.0095(3) -0.0759(2)
H12A H 0.236(4) 0.614(4) 0.076(3)
H13A H 0.242(4) 0.503(3) 0.024(4)
N1 N 0.0453(2) 0.2067(2) 0.4362(2)
N2 N 0.0902(2) 0.0618(2) 0.6720(2)
C5 C -0.0139(3) 0.1997(3) 0.5655(2)
H1 H -0.1141 0.2799 0.5795
C6 C 0.2199(3) -0.0227(3) 0.6090(3)
H2 H 0.3120 -0.1253 0.6595
C7 C 0.1917(3) 0.0673(3) 0.4627(3)
H3 H 0.2605 0.0398 0.3900
C8 C 0.0666(3) 0.0095(3) 0.8305(3)
H4 H 0.1598 -0.0961 0.8868
H5 H -0.0321 -0.0094 0.8425
H6 H 0.0565 0.0992 0.8681
C9 C -0.0326(3) 0.3429(3) 0.2914(2)
H7 H -0.1490 0.3683 0.2805
H8 H 0.0173 0.3033 0.2101
C10 C -0.0151(3) 0.5029(4) 0.2778(3)
H9 H -0.0681 0.5910 0.1808
H10 H 0.1000 0.4785 0.2867
H11 H -0.0660 0.5432 0.3572
loop_
_geom_bond_atom_site_label_1
_geom_bond_atom_site_label_2
_geom_bond_site_symmetry_1
_geom_bond_site_symmetry_2
Co1 O2 1_555 1_555
F1 C4 1_555 1_555
F2 C4 1_555 1_555
F3 C2 1_555 1_555
F4 C2 1_555 1_555
O1 C1 1_555 1_555
O2 C3 1_555 1_555
O3 C3 1_555 1_555
O4 Co1 1_555 1_555
O5 Co1 1_555 1_555
N1 C5 1_555 1_555
N2 C5 1_555 1_555
C1 O4 1_555 1_555
C2 C1 1_555 1_555
C3 C4 1_555 1_555
C4 C4A 1_555 1_555
C5 H1 1_555 1_555
C6 N2 1_555 1_555
H2 C6 1_555 1_555
C7 N1 1_555 1_555
H3 C7 1_555 1_555
C8 N2 1_555 1_555
H4 C8 1_555 1_555
H5 C8 1_555 1_555
H6 C8 1_555 1_555
C9 N1 1_555 1_555
H7 C9 1_555 1_555
H8 C9 1_555 1_555
C10 C9 1_555 1_555
H9 C10 1_555 1_555
H10 C10 1_555 1_555
H11 C10 1_555 1_555
H12 O5 1_555 1_555
H13 O5 1_555 1_555
Co1_2 O2A 1_555 1_555
Co1_3 O4A 1_555 1_555
F1A C4A 1_555 1_555
F2A C4A 1_555 1_555
F3A C2A 1_555 1_555
F4A C2A 1_555 1_555
O1A C1A 1_555 1_555
O2A C3A 1_555 1_555
O2A_2 Co1 1_555 1_555
O3A C3A 1_555 1_555
O4A C1A 1_555 1_555
O4A_2 Co1 1_555 1_555
O5A Co1 1_555 1_555
C1A C2A 1_555 1_555
C2A C2 1_555 1_555
C3A C4A 1_555 1_555
H12A O5A 1_555 1_555
H13A O5A 1_555 1_555
C6 C7 1_555 1_555

#END
