
#######################################################################
#
#                 Cambridge Crystallographic Data Centre
#                                CCDC 
#
#######################################################################
#
# If this CIF has been generated from an entry in the Cambridge 
# Structural Database, then it will include bibliographic, chemical, 
# crystal, experimental, refinement or atomic coordinate data resulting 
# from the CCDC's data processing and validation procedures.
#
#######################################################################

data_MOTVEY
_symmetry_cell_setting           triclinic
_symmetry_space_group_name_H-M   'P -1'
_symmetry_Int_Tables_number      2
_space_group_name_Hall           '-P 1'
loop_
_symmetry_equiv_pos_site_id
_symmetry_equiv_pos_as_xyz
1 x,y,z
2 -x,-y,-z
_cell_length_a                   8.1554(8)
_cell_length_b                   10.4317(10)
_cell_length_c                   13.8394(13)
_cell_angle_alpha                90.5480(10)
_cell_angle_beta                 105.8780(10)
_cell_angle_gamma                97.7320(10)
_cell_volume                     1120.84
loop_
_atom_site_label
_atom_site_type_symbol
_atom_site_fract_x
_atom_site_fract_y
_atom_site_fract_z
Zn1 Zn 0.32182(4) -0.82867(3) 0.65533(2)
Zn2 Zn 0.5000 0.0000 0.5000
Zn3 Zn 0.28451(4) -0.03008(3) 0.27973(2)
Zn4 Zn 0.03939(4) 0.04904(3) 0.40491(2)
O1 O 0.2469(2) -0.0349(2) 0.42023(13)
O2 O 0.5350(2) -0.04160(19) 0.35076(13)
O3 O 0.2738(2) 0.15004(18) -0.21136(13)
O4 O 0.5016(2) -0.19361(17) 0.53290(12)
O5 O 0.6708(2) -0.17614(17) 0.69307(12)
O6 O 0.1660(2) 0.77782(18) 0.24636(12)
O7 O 0.1052(2) 0.71600(17) 0.38950(12)
O8 O 0.0358(2) 0.00128(18) -0.24581(12)
O9 O -0.0308(2) 0.22015(18) 0.37362(13)
O10 O -0.2982(2) 0.15950(18) 0.27333(14)
O11 O -0.1012(2) -0.11185(19) 0.44290(13)
O12 O -0.4114(4) 0.3837(3) -0.04890(16)
O13 O -0.2545(4) 0.5627(3) -0.05792(17)
N1 N 0.3973(3) -0.6399(2) 0.64517(15)
N2 N 0.2662(3) -0.0067(2) 0.12691(15)
C1 C 0.5656(3) -0.2368(3) 0.61767(18)
C2 C 0.5060(3) -0.3785(3) 0.62789(18)
C3 C 0.3604(3) -0.4440(3) 0.55902(19)
H1 H 0.2960 -0.4001 0.5049
C4 C 0.3108(3) -0.5729(3) 0.57023(19)
H2 H 0.2110 -0.6167 0.5229
C5 C 0.5369(4) -0.5759(3) 0.71216(19)
H3 H 0.5985 -0.6219 0.7659
C6 C 0.5947(4) -0.4466(3) 0.70635(19)
H4 H 0.6937 -0.4046 0.7553
C7 C 0.3335(4) 0.1041(3) 0.09598(19)
H5 H 0.4003 0.1686 0.1451
C8 C 0.3100(4) 0.1287(3) -0.00467(19)
H6 H 0.3636 0.2072 -0.0237
C9 C 0.2072(3) 0.0376(3) -0.07752(18)
C10 C 0.1399(3) -0.0780(3) -0.04598(18)
H7 H 0.0709 -0.1433 -0.0938
C11 C 0.1741(3) -0.0977(3) 0.05599(19)
H8 H 0.1310 -0.1788 0.0768
C12 C 0.1684(3) 0.0645(2) -0.18810(18)
N3 N -0.2982(4) 0.4731(3) -0.01093(18)
C13 C -0.2095(4) 0.4722(3) 0.09662(18)
C14 C -0.2381(3) 0.3614(3) 0.14754(18)
H9 H -0.3181 0.2889 0.1147
C15 C -0.1465(3) 0.3594(3) 0.24803(19)
C16 C -0.0378(3) 0.4691(3) 0.29556(18)
H10 H 0.0225 0.4681 0.3647
C17 C -0.0157(3) 0.5808(3) 0.24372(18)
C18 C -0.0987(4) 0.5810(3) 0.14192(19)
H11 H -0.0796 0.6544 0.1043
C19 C -0.1631(4) 0.2359(3) 0.30209(18)
C20 C 0.0946(3) 0.7010(3) 0.29804(18)
H12 H 0.578(4) 0.011(3) 0.332(2)
H13 H -0.045(4) -0.159(3) 0.444(2)
H14 H 0.214(5) -0.102(4) 0.424(3)
Zn1A Zn -0.32182(4) -0.17133(3) 0.34467(2)
Zn3A Zn -0.28451(4) -0.96992(3) 0.72027(2)
Zn4A Zn -0.03939(4) -1.04904(3) 0.59509(2)
O1A O -0.2469(2) -0.9651(2) 0.57977(13)
O2A O -0.5350(2) -0.95840(19) 0.64924(13)
O3A O -0.2738(2) -1.15004(18) 1.21136(13)
O4A O -0.5016(2) -0.80639(17) 0.46710(12)
O5A O -0.6708(2) -0.82386(17) 0.30693(12)
O6A O -0.1660(2) -1.77782(18) 0.75364(12)
O7A O -0.1052(2) -1.71600(17) 0.61050(12)
O8A O -0.0358(2) -1.00128(18) 1.24581(12)
O9A O 0.0308(2) -1.22015(18) 0.62638(13)
O10A O 0.2982(2) -1.15950(18) 0.72667(14)
O11A O 0.1012(2) -0.88815(19) 0.55710(13)
O12A O 0.4114(4) -1.3837(3) 1.04890(16)
O13A O 0.2545(4) -1.5627(3) 1.05792(17)
N1A N -0.3973(3) -0.3601(2) 0.35483(15)
N2A N -0.2662(3) -0.9933(2) 0.87309(15)
C1A C -0.5656(3) -0.7632(3) 0.38233(18)
C2A C -0.5060(3) -0.6215(3) 0.37211(18)
C3A C -0.3604(3) -0.5560(3) 0.44098(19)
H1A H -0.2960 -0.5999 0.4951
C4A C -0.3108(3) -0.4271(3) 0.42977(19)
H2A H -0.2110 -0.3833 0.4771
C5A C -0.5369(4) -0.4241(3) 0.28784(19)
H3A H -0.5985 -0.3781 0.2341
C6A C -0.5947(4) -0.5534(3) 0.29365(19)
H4A H -0.6937 -0.5954 0.2447
C7A C -0.3335(4) -1.1041(3) 0.90402(19)
H5A H -0.4003 -1.1686 0.8549
C8A C -0.3100(4) -1.1287(3) 1.00467(19)
H6A H -0.3636 -1.2072 1.0237
C9A C -0.2072(3) -1.0376(3) 1.07752(18)
C10A C -0.1399(3) -0.9220(3) 1.04598(18)
H7A H -0.0709 -0.8567 1.0938
C11A C -0.1741(3) -0.9023(3) 0.94401(19)
H8A H -0.1310 -0.8212 0.9232
C12A C -0.1684(3) -1.0645(2) 1.18810(18)
N3A N 0.2982(4) -1.4731(3) 1.01093(18)
C13A C 0.2095(4) -1.4722(3) 0.90338(18)
C14A C 0.2381(3) -1.3614(3) 0.85246(18)
H9A H 0.3181 -1.2889 0.8853
C15A C 0.1465(3) -1.3594(3) 0.75197(19)
C16A C 0.0378(3) -1.4691(3) 0.70444(18)
H10A H -0.0225 -1.4681 0.6353
C17A C 0.0157(3) -1.5808(3) 0.75628(18)
C18A C 0.0987(4) -1.5810(3) 0.85808(19)
H11A H 0.0796 -1.6544 0.8957
C19A C 0.1631(4) -1.2359(3) 0.69791(18)
C20A C -0.0946(3) -1.7010(3) 0.70196(18)
H12A H -0.578(4) -1.011(3) 0.668(2)
H13A H 0.045(4) -0.841(3) 0.556(2)
H14A H -0.214(5) -0.898(4) 0.576(3)
Zn1_2 Zn -0.67818(4) -0.82867(3) 0.65533(2)
Zn1_3 Zn 0.32182(4) 0.17133(3) -0.34467(2)
Zn1A_2 Zn -0.32182(4) -1.17133(3) 1.34467(2)
Zn1A_3 Zn 0.67818(4) -0.17133(3) 0.34467(2)
Zn2_2 Zn -0.5000 -1.0000 0.5000
Zn3_2 Zn -0.71549(4) -1.03008(3) 0.27973(2)
Zn3_3 Zn 0.28451(4) 0.96992(3) 0.27973(2)
Zn3A_2 Zn -0.28451(4) -1.96992(3) 0.72027(2)
Zn3A_3 Zn 0.71549(4) 0.03008(3) 0.72027(2)
Zn4_2 Zn 0.03939(4) -0.95096(3) 0.40491(2)
Zn4_3 Zn 0.03939(4) -0.95096(3) 1.40491(2)
Zn4A_2 Zn -0.03939(4) -0.04904(3) -0.40491(2)
Zn4A_3 Zn -0.03939(4) -0.04904(3) 0.59509(2)
O1A_2 O 0.7531(2) 0.0349(2) 0.57977(13)
O2_2 O -0.4650(2) -0.04160(19) 0.35076(13)
O2A_2 O 0.4650(2) -0.95840(19) 0.64924(13)
O2A_3 O 0.4650(2) 0.04160(19) 0.64924(13)
O3_2 O 0.2738(2) -0.84996(18) 0.78864(13)
O3A_2 O -0.2738(2) -0.15004(18) 0.21136(13)
O4A_2 O 0.4984(2) 0.19361(17) 0.46710(12)
O5_2 O -0.3292(2) -1.17614(17) 0.69307(12)
O5A_2 O 0.3292(2) 0.17614(17) 0.30693(12)
O6_2 O 0.1660(2) -0.22218(18) 0.24636(12)
O6A_2 O -0.1660(2) -0.77782(18) 0.75364(12)
O8_2 O 0.0358(2) -0.99872(18) 0.75419(12)
O8A_2 O -0.0358(2) -0.00128(18) 0.24581(12)
O11_2 O -0.1012(2) -1.11185(19) 0.44290(13)
O11A_2 O 0.1012(2) 0.11185(19) 0.55710(13)
loop_
_geom_bond_atom_site_label_1
_geom_bond_atom_site_label_2
_geom_bond_site_symmetry_1
_geom_bond_site_symmetry_2
Zn1 N1 1_555 1_555
Zn2 O1 1_555 1_555
Zn3 O1 1_555 1_555
Zn4 O1 1_555 1_555
O1 H14 1_555 1_555
O2 Zn2 1_555 1_555
O3 C12 1_555 1_555
O4 Zn2 1_555 1_555
O5 C1 1_555 1_555
O6 C20 1_555 1_555
O7 C20 1_555 1_555
O8 C12 1_555 1_555
O9 Zn4 1_555 1_555
O10 C19 1_555 1_555
O11 Zn4 1_555 1_555
O12 N3 1_555 1_555
O13 N3 1_555 1_555
N1 C4 1_555 1_555
N2 Zn3 1_555 1_555
C1 O4 1_555 1_555
C2 C1 1_555 1_555
C3 C2 1_555 1_555
H1 C3 1_555 1_555
C4 C3 1_555 1_555
H2 C4 1_555 1_555
C5 N1 1_555 1_555
H3 C5 1_555 1_555
C6 C2 1_555 1_555
H4 C6 1_555 1_555
C7 N2 1_555 1_555
H5 C7 1_555 1_555
C8 C7 1_555 1_555
H6 C8 1_555 1_555
C9 C8 1_555 1_555
C10 C9 1_555 1_555
H7 C10 1_555 1_555
C11 N2 1_555 1_555
H8 C11 1_555 1_555
C12 C9 1_555 1_555
N3 C13 1_555 1_555
C13 C14 1_555 1_555
C14 H9 1_555 1_555
C15 C14 1_555 1_555
C16 C15 1_555 1_555
H10 C16 1_555 1_555
C17 C16 1_555 1_555
C18 C13 1_555 1_555
H11 C18 1_555 1_555
C19 O9 1_555 1_555
C20 C17 1_555 1_555
H12 O2 1_555 1_555
H13 O11 1_555 1_555
Zn1A O11 1_555 1_555
Zn3A O1A 1_555 1_555
Zn4A O1A 1_555 1_555
O1A H14A 1_555 1_555
O2A Zn3A 1_555 1_555
O3A C12A 1_555 1_555
O4A C1A 1_555 1_555
O5A C1A 1_555 1_555
O6A C20A 1_555 1_555
O7A C20A 1_555 1_555
O8A C12A 1_555 1_555
O9A Zn4A 1_555 1_555
O10A C19A 1_555 1_555
O11A Zn1 1_555 1_555
O12A N3A 1_555 1_555
O13A N3A 1_555 1_555
N1A Zn1A 1_555 1_555
N2A Zn3A 1_555 1_555
C1A C2A 1_555 1_555
C2A C3A 1_555 1_555
C3A H1A 1_555 1_555
C4A N1A 1_555 1_555
H2A C4A 1_555 1_555
C5A N1A 1_555 1_555
H3A C5A 1_555 1_555
C6A C2A 1_555 1_555
H4A C6A 1_555 1_555
C7A N2A 1_555 1_555
H5A C7A 1_555 1_555
C8A C7A 1_555 1_555
H6A C8A 1_555 1_555
C9A C8A 1_555 1_555
C10A C9A 1_555 1_555
H7A C10A 1_555 1_555
C11A N2A 1_555 1_555
H8A C11A 1_555 1_555
C12A C9A 1_555 1_555
N3A C13A 1_555 1_555
C13A C14A 1_555 1_555
C14A H9A 1_555 1_555
C15A C14A 1_555 1_555
C16A C15A 1_555 1_555
H10A C16A 1_555 1_555
C17A C16A 1_555 1_555
C18A C13A 1_555 1_555
H11A C18A 1_555 1_555
C19A O9A 1_555 1_555
C20A C17A 1_555 1_555
H12A O2A 1_555 1_555
H13A O11A 1_555 1_555
Zn1_2 O2A 1_555 1_555
Zn1_3 O3 1_555 1_555
Zn1A_2 O3A 1_555 1_555
Zn1A_3 O2 1_555 1_555
Zn2_2 O1A 1_555 1_555
Zn3_2 O5A 1_555 1_555
Zn3_3 O6 1_555 1_555
Zn3A_2 O6A 1_555 1_555
Zn3A_3 O5 1_555 1_555
Zn4_2 O11A 1_555 1_555
Zn4_3 O8A 1_555 1_555
Zn4A_2 O8 1_555 1_555
Zn4A_3 O11 1_555 1_555
O1A_2 Zn2 1_555 1_555
O2_2 Zn1A 1_555 1_555
O2A_2 Zn1 1_555 1_555
O2A_3 Zn2 1_555 1_555
O3_2 Zn1 1_555 1_555
O3A_2 Zn1A 1_555 1_555
O4A_2 Zn2 1_555 1_555
O5_2 Zn3A 1_555 1_555
O5A_2 Zn3 1_555 1_555
O6_2 Zn3 1_555 1_555
O6A_2 Zn3A 1_555 1_555
O8_2 Zn4A 1_555 1_555
O8A_2 Zn4 1_555 1_555
O11_2 Zn4A 1_555 1_555
O11A_2 Zn4 1_555 1_555
Zn3 O2 1_555 1_555
C5 C6 1_555 1_555
C10 C11 1_555 1_555
C15 C19 1_555 1_555
C17 C18 1_555 1_555
Zn4A O11A 1_555 1_555
O2A Zn2_2 1_555 1_555
O4A Zn2_2 1_555 1_555
C3A C4A 1_555 1_555
C5A C6A 1_555 1_555
C10A C11A 1_555 1_555
C15A C19A 1_555 1_555
C17A C18A 1_555 1_555
Zn3A_3 O1A_2 1_555 1_555
Zn3A_3 O2A_3 1_555 1_555
Zn4_2 O11_2 1_555 1_555
Zn4A_3 O11A_2 1_555 1_555

#END
