
#######################################################################
#
#                 Cambridge Crystallographic Data Centre
#                                CCDC 
#
#######################################################################
#
# If this CIF has been generated from an entry in the Cambridge 
# Structural Database, then it will include bibliographic, chemical, 
# crystal, experimental, refinement or atomic coordinate data resulting 
# from the CCDC's data processing and validation procedures.
#
#######################################################################

data_MOTXOI
_symmetry_cell_setting           monoclinic
_symmetry_space_group_name_H-M   'P 2/n'
_symmetry_Int_Tables_number      13
_space_group_name_Hall           '-P 2yac'
loop_
_symmetry_equiv_pos_site_id
_symmetry_equiv_pos_as_xyz
1 x,y,z
2 1/2+x,-y,1/2+z
3 -x,-y,-z
4 1/2-x,y,1/2-z
_cell_length_a                   7.689(2)
_cell_length_b                   16.975(5)
_cell_length_c                   11.689(3)
_cell_angle_alpha                90
_cell_angle_beta                 90.208(7)
_cell_angle_gamma                90
_cell_volume                     1525.65
loop_
_atom_site_label
_atom_site_type_symbol
_atom_site_fract_x
_atom_site_fract_y
_atom_site_fract_z
Cu1 Cu -0.00358(13) -0.27072(3) -0.53890(4)
N1 N 0.0228(9) -0.2083(2) -0.6800(3)
N2 N 0.0607(6) -0.1254(2) -0.8503(3)
N3 N 0.1369(7) -0.1650(3) -1.0458(4)
N4 N 0.1891(9) -0.3423(3) -0.5909(5)
N5 N 0.4804(11) -0.3924(3) -0.6271(4)
N6 N 0.7590(8) -0.3277(3) -0.5975(5)
N7 N -0.0888(6) -0.1747(2) -0.4544(3)
N8 N 0.0381(7) -0.2140(2) -0.2793(3)
H1 H 0.1021 -0.1976 -0.2237
N9 N -0.0071(9) -0.32845(19) -0.3898(3)
C1 C 0.0455(7) -0.1735(3) -0.7635(4)
C2 C 0.1032(8) -0.1509(3) -0.9525(5)
C3 C 0.3303(10) -0.3621(3) -0.6076(5)
C4 C 0.6230(10) -0.3541(4) -0.6100(5)
C5 C -0.1794(8) -0.1188(3) -0.5128(4)
H2 H -0.2271 -0.1324 -0.5833
C6 C -0.2043(8) -0.0438(3) -0.4739(5)
H3 H -0.2691 -0.0075 -0.5157
C7 C -0.1294(9) -0.0236(3) -0.3693(5)
H4 H -0.1382 0.0276 -0.3420
C8 C -0.0418(8) -0.0801(3) -0.3062(4)
H5 H 0.0098 -0.0671 -0.2366
C9 C -0.0322(8) -0.1561(3) -0.3483(4)
C10 C 0.0197(10) -0.2945(3) -0.2876(4)
C11 C 0.0390(9) -0.3395(3) -0.1879(4)
H6 H 0.0644 -0.3153 -0.1184
C12 C 0.0202(15) -0.4194(3) -0.1940(4)
H7 H 0.0276 -0.4498 -0.1280
C13 C -0.0102(15) -0.4554(3) -0.2992(4)
H8 H -0.0217 -0.5098 -0.3052
C14 C -0.0226(12) -0.4077(3) -0.3937(4)
H9 H -0.0429 -0.4312 -0.4644
N6_2 N -0.2410(8) -0.3277(3) -0.5975(5)
Cu1_2 Cu 0.99642(13) -0.27072(3) -0.53890(4)
loop_
_geom_bond_atom_site_label_1
_geom_bond_atom_site_label_2
_geom_bond_site_symmetry_1
_geom_bond_site_symmetry_2
Cu1 N1 1_555 1_555
N1 C1 1_555 1_555
N2 C1 1_555 1_555
N3 C2 1_555 1_555
N4 Cu1 1_555 1_555
N5 C3 1_555 1_555
N6 C4 1_555 1_555
N7 Cu1 1_555 1_555
N8 H1 1_555 1_555
N9 Cu1 1_555 1_555
C2 N2 1_555 1_555
C3 N4 1_555 1_555
C4 N5 1_555 1_555
C5 N7 1_555 1_555
H2 C5 1_555 1_555
C6 C5 1_555 1_555
H3 C6 1_555 1_555
C7 C6 1_555 1_555
H4 C7 1_555 1_555
C8 C7 1_555 1_555
H5 C8 1_555 1_555
C9 N7 1_555 1_555
C10 N8 1_555 1_555
C11 C10 1_555 1_555
H6 C11 1_555 1_555
C12 C11 1_555 1_555
H7 C12 1_555 1_555
C13 C12 1_555 1_555
H8 C13 1_555 1_555
C14 N9 1_555 1_555
H9 C14 1_555 1_555
N6_2 Cu1 1_555 1_555
Cu1_2 N6 1_555 1_555
N8 C9 1_555 1_555
N9 C10 1_555 1_555
C8 C9 1_555 1_555
C13 C14 1_555 1_555

#END
