
#######################################################################
#
#                 Cambridge Crystallographic Data Centre
#                                CCDC 
#
#######################################################################
#
# If this CIF has been generated from an entry in the Cambridge 
# Structural Database, then it will include bibliographic, chemical, 
# crystal, experimental, refinement or atomic coordinate data resulting 
# from the CCDC's data processing and validation procedures.
#
#######################################################################

data_MOTXUO
_symmetry_cell_setting           monoclinic
_symmetry_space_group_name_H-M   'I 2/a'
_symmetry_Int_Tables_number      15
_space_group_name_Hall           '-I 2ya'
loop_
_symmetry_equiv_pos_site_id
_symmetry_equiv_pos_as_xyz
1 x,y,z
2 1/2+x,1/2+y,1/2+z
3 1/2+x,-y,z
4 x,1/2-y,1/2+z
5 -x,-y,-z
6 1/2-x,1/2-y,1/2-z
7 1/2-x,y,-z
8 -x,1/2+y,1/2-z
_cell_length_a                   13.106(3)
_cell_length_b                   9.140(2)
_cell_length_c                   14.190(6)
_cell_angle_alpha                90
_cell_angle_beta                 98.862(4)
_cell_angle_gamma                90
_cell_volume                     1679.51
loop_
_atom_site_label
_atom_site_type_symbol
_atom_site_fract_x
_atom_site_fract_y
_atom_site_fract_z
Cu1 Cu -0.2500 0.2500 0.2500
N1 N -0.16166(17) 0.1953(2) 0.37274(15)
N2 N -0.04695(18) 0.1807(4) 0.52516(16)
N3 N -0.09293(17) 0.1766(3) 0.68615(16)
N4 N -0.23875(15) 0.0435(2) 0.20082(14)
C1 C -0.11243(19) 0.1889(3) 0.44661(18)
C2 C -0.07620(18) 0.1793(3) 0.60912(19)
C3 C -0.1474(2) -0.0228(3) 0.20149(18)
H1 H -0.0873 0.0224 0.2350
C4 C -0.1369(2) -0.1536(3) 0.15578(18)
H2 H -0.0705 -0.1967 0.1581
C5 C -0.22344(19) -0.2224(2) 0.10616(17)
C6 C -0.3185(2) -0.1574(3) 0.11004(18)
H3 H -0.3802 -0.2030 0.0801
C7 C -0.32305(19) -0.0268(3) 0.15733(18)
H4 H -0.3888 0.0157 0.1593
C8 C -0.2146(2) -0.3605(3) 0.04872(18)
H5 H -0.2321 -0.4458 0.0861
H6 H -0.1421 -0.3719 0.0382
N3C N -0.09293(17) 0.3234(3) 0.18615(16)
Cu1C Cu -0.2500 0.2500 0.7500
N3F N -0.40707(17) 0.1766(3) 0.31385(16)
N1E N -0.33834(17) 0.3047(2) 0.12726(15)
C8F C -0.2854(2) -0.3605(3) -0.04872(18)
C5F C -0.27656(19) -0.2224(2) -0.10616(17)
C4F C -0.3631(2) -0.1536(3) -0.15578(18)
C3F C -0.3526(2) -0.0228(3) -0.20149(18)
N4F N -0.26125(15) 0.0435(2) -0.20082(14)
Cu1C_2 Cu -0.2500 0.2500 -0.2500
N3E N -0.40707(17) 0.3234(3) -0.18615(16)
C7F C -0.17695(19) -0.0268(3) -0.15733(18)
C6F C -0.1815(2) -0.1574(3) -0.11004(18)
H3F H -0.1198 -0.2030 -0.0801
H4F H -0.1112 0.0157 -0.1593
H1F H -0.4127 0.0224 -0.2350
H2F H -0.4295 -0.1967 -0.1581
H5F H -0.2679 -0.4458 -0.0861
H6F H -0.3579 -0.3719 -0.0382
N4E N -0.26125(15) 0.4565(2) 0.29918(14)
C1E C -0.38757(19) 0.3111(3) 0.05339(18)
C2E C -0.42380(18) 0.3207(3) -0.10912(19)
N2E N -0.45305(18) 0.3193(4) -0.02516(16)
loop_
_geom_bond_atom_site_label_1
_geom_bond_atom_site_label_2
_geom_bond_site_symmetry_1
_geom_bond_site_symmetry_2
Cu1 N1 1_555 1_555
N1 C1 1_555 1_555
N2 C1 1_555 1_555
N3 C2 1_555 1_555
N4 Cu1 1_555 1_555
C2 N2 1_555 1_555
C3 N4 1_555 1_555
H1 C3 1_555 1_555
C4 C3 1_555 1_555
H2 C4 1_555 1_555
C5 C4 1_555 1_555
C6 C5 1_555 1_555
H3 C6 1_555 1_555
C7 N4 1_555 1_555
H4 C7 1_555 1_555
C8 C5 1_555 1_555
H5 C8 1_555 1_555
H6 C8 1_555 1_555
N3C Cu1 1_555 1_555
Cu1C N3 1_555 1_555
N3F Cu1 1_555 1_555
N1E Cu1 1_555 1_555
C8F C8 1_555 1_555
C5F C8F 1_555 1_555
C4F C5F 1_555 1_555
C3F C4F 1_555 1_555
N4F C3F 1_555 1_555
Cu1C_2 N4F 1_555 1_555
N3E Cu1C_2 1_555 1_555
C7F N4F 1_555 1_555
C6F C5F 1_555 1_555
H3F C6F 1_555 1_555
H4F C7F 1_555 1_555
H1F C3F 1_555 1_555
H2F C4F 1_555 1_555
H5F C8F 1_555 1_555
H6F C8F 1_555 1_555
N4E Cu1 1_555 1_555
C1E N1E 1_555 1_555
C2E N3E 1_555 1_555
N2E C1E 1_555 1_555
C6 C7 1_555 1_555
C7F C6F 1_555 1_555
C2E N2E 1_555 1_555

#END
