
#######################################################################
#
#                 Cambridge Crystallographic Data Centre
#                                CCDC 
#
#######################################################################
#
# If this CIF has been generated from an entry in the Cambridge 
# Structural Database, then it will include bibliographic, chemical, 
# crystal, experimental, refinement or atomic coordinate data resulting 
# from the CCDC's data processing and validation procedures.
#
#######################################################################

data_MOVBAB
_symmetry_cell_setting           monoclinic
_symmetry_space_group_name_H-M   'C 2/c'
_symmetry_Int_Tables_number      15
_space_group_name_Hall           '-C 2yn'
loop_
_symmetry_equiv_pos_site_id
_symmetry_equiv_pos_as_xyz
1 x,y,z
2 -x,y,1/2-z
3 1/2+x,1/2+y,z
4 1/2-x,1/2+y,1/2-z
5 -x,-y,-z
6 x,-y,1/2+z
7 1/2-x,1/2-y,-z
8 1/2+x,1/2-y,1/2+z
_cell_length_a                   30.901(6)
_cell_length_b                   8.2835(17)
_cell_length_c                   17.348(4)
_cell_angle_alpha                90
_cell_angle_beta                 93.48(3)
_cell_angle_gamma                90
_cell_volume                     4432.35
loop_
_atom_site_label
_atom_site_type_symbol
_atom_site_fract_x
_atom_site_fract_y
_atom_site_fract_z
Fe1 Fe 0.18699(3) 0.81161(13) 0.11204(6)
Zn1 Zn 0.0000 0.87677(11) 0.2500
N1 N -0.00007(17) 1.0455(6) 0.1610(3)
O1 O 0.03441(19) 0.6933(6) 0.1877(4)
O2 O 0.0659(2) 0.7873(6) 0.2921(4)
C1 C 0.2476(3) 0.7168(14) 0.1271(7)
H2 H 0.2570 0.6153 0.1044
C2 C 0.2294(3) 0.7307(10) 0.1979(5)
H3 H 0.2245 0.6433 0.2345
C3 C 0.2204(2) 0.8948(11) 0.2078(5)
H4 H 0.2076 0.9426 0.2528
C4 C 0.2328(3) 0.9802(11) 0.1421(6)
H5 H 0.2305 1.0969 0.1335
C5 C 0.2494(3) 0.8664(17) 0.0924(6)
H6 H 0.2608 0.8890 0.0419
C6 C 0.1480(2) 0.6635(11) 0.0459(5)
H7 H 0.1569 0.5629 0.0217
C7 C 0.1487(3) 0.8164(15) 0.0126(6)
H8 H 0.1588 0.8401 -0.0387
C8 C 0.1341(2) 0.9311(12) 0.0634(6)
H9 H 0.1316 1.0475 0.0542
C9 C 0.1235(2) 0.8471(8) 0.1314(5)
H10 H 0.1127 0.8975 0.1777
C10 C 0.1314(2) 0.6783(9) 0.1223(4)
C11 C 0.1272(2) 0.5487(7) 0.1798(4)
C12 C 0.1537(2) 0.4123(9) 0.1782(6)
H11 H 0.1730 0.4009 0.1395
C13 C 0.1512(3) 0.2958(10) 0.2332(8)
H12 H 0.1697 0.2076 0.2311
C14 C 0.1238(3) 0.3001(10) 0.2901(6)
H13 H 0.1226 0.2170 0.3260
C15 C 0.0971(3) 0.4365(9) 0.2929(5)
H14 H 0.0785 0.4470 0.3327
C16 C 0.0981(2) 0.5566(7) 0.2368(4)
C17 C 0.0638(3) 0.6905(9) 0.2386(5)
C18 C 0.0270(3) 1.1682(9) 0.1658(5)
H15 H 0.0479 1.1708 0.2068
C19 C 0.0261(3) 1.2934(8) 0.1129(5)
H16 H 0.0461 1.3772 0.1192
C20 C -0.0036(2) 1.2953(8) 0.0519(4)
C21 C -0.0313(2) 1.1625(7) 0.0451(4)
H17 H -0.0516 1.1542 0.0034
C22 C -0.0284(2) 1.0428(8) 0.1011(4)
H18 H -0.0474 0.9560 0.0960
C23 C -0.0088(3) 1.4288(8) -0.0022(6)
H19 H -0.0208(14) 1.414(4) -0.040(2)
Fe1A Fe -0.18699(3) 0.81161(13) 0.38796(6)
Zn1D Zn 0.0000 2.12323(11) -0.2500
N1D N 0.00007(17) 1.9545(6) -0.1610(3)
N1A N 0.00007(17) 1.0455(6) 0.3390(3)
O1A O -0.03441(19) 0.6933(6) 0.3123(4)
O2A O -0.0659(2) 0.7873(6) 0.2079(4)
C1A C -0.2476(3) 0.7168(14) 0.3729(7)
H2A H -0.2570 0.6153 0.3956
C2A C -0.2294(3) 0.7307(10) 0.3021(5)
H3A H -0.2245 0.6433 0.2655
C3A C -0.2204(2) 0.8948(11) 0.2922(5)
H4A H -0.2076 0.9426 0.2472
C4A C -0.2328(3) 0.9802(11) 0.3579(6)
H5A H -0.2305 1.0969 0.3665
C5A C -0.2494(3) 0.8664(17) 0.4076(6)
H6A H -0.2608 0.8890 0.4581
C6A C -0.1480(2) 0.6635(11) 0.4541(5)
H7A H -0.1569 0.5629 0.4783
C7A C -0.1487(3) 0.8164(15) 0.4874(6)
H8A H -0.1588 0.8401 0.5387
C8A C -0.1341(2) 0.9311(12) 0.4366(6)
H9A H -0.1316 1.0475 0.4458
C9A C -0.1235(2) 0.8471(8) 0.3686(5)
H10A H -0.1127 0.8975 0.3223
C10A C -0.1314(2) 0.6783(9) 0.3777(4)
C11A C -0.1272(2) 0.5487(7) 0.3202(4)
C12A C -0.1537(2) 0.4123(9) 0.3218(6)
H11A H -0.1730 0.4009 0.3605
C13A C -0.1512(3) 0.2958(10) 0.2668(8)
H12A H -0.1697 0.2076 0.2689
C14A C -0.1238(3) 0.3001(10) 0.2099(6)
H13A H -0.1226 0.2170 0.1740
C15A C -0.0971(3) 0.4365(9) 0.2071(5)
H14A H -0.0785 0.4470 0.1673
C16A C -0.0981(2) 0.5566(7) 0.2632(4)
C17A C -0.0638(3) 0.6905(9) 0.2614(5)
C18D C -0.0270(3) 1.8318(9) -0.1658(5)
H15D H -0.0479 1.8292 -0.2068
C19D C -0.0261(3) 1.7066(8) -0.1129(5)
H16D H -0.0461 1.6228 -0.1192
C20D C 0.0036(2) 1.7047(8) -0.0519(4)
C21D C 0.0313(2) 1.8375(7) -0.0451(4)
H17D H 0.0516 1.8458 -0.0034
C22D C 0.0284(2) 1.9572(8) -0.1011(4)
H18D H 0.0474 2.0440 -0.0960
C23D C 0.0088(3) 1.5712(8) 0.0022(6)
H19D H 0.0208(14) 1.586(4) 0.040(2)
O3 O 0.1484(4) 0.8688(13) 0.3729(7)
H1 H 0.1221 0.8583 0.3640
C24 C 0.1637(7) 0.7446(13) 0.4169(9)
loop_
_geom_bond_atom_site_label_1
_geom_bond_atom_site_label_2
_geom_bond_site_symmetry_1
_geom_bond_site_symmetry_2
Fe1 C1 1_555 1_555
Zn1 N1 1_555 1_555
N1 C18 1_555 1_555
O1 Zn1 1_555 1_555
O2 Zn1 1_555 1_555
O3 H1 1_555 1_555
C1 H2 1_555 1_555
C2 Fe1 1_555 1_555
H3 C2 1_555 1_555
C3 Fe1 1_555 1_555
H4 C3 1_555 1_555
C4 Fe1 1_555 1_555
H5 C4 1_555 1_555
C5 Fe1 1_555 1_555
H6 C5 1_555 1_555
C6 Fe1 1_555 1_555
H7 C6 1_555 1_555
C7 Fe1 1_555 1_555
H8 C7 1_555 1_555
C8 Fe1 1_555 1_555
H9 C8 1_555 1_555
C9 Fe1 1_555 1_555
H10 C9 1_555 1_555
C10 Fe1 1_555 1_555
C11 C10 1_555 1_555
C12 C11 1_555 1_555
H11 C12 1_555 1_555
C13 C12 1_555 1_555
H12 C13 1_555 1_555
C14 C13 1_555 1_555
H13 C14 1_555 1_555
C15 C14 1_555 1_555
H14 C15 1_555 1_555
C16 C11 1_555 1_555
C17 O1 1_555 1_555
C18 H15 1_555 1_555
C19 C18 1_555 1_555
H16 C19 1_555 1_555
C20 C19 1_555 1_555
C21 C20 1_555 1_555
H17 C21 1_555 1_555
C22 N1 1_555 1_555
H18 C22 1_555 1_555
C23 C20 1_555 1_555
C24 O3 1_555 1_555
H19 C23 1_555 1_555
Fe1A C1A 1_555 1_555
Zn1D N1D 1_555 1_555
N1D C18D 1_555 1_555
N1A Zn1 1_555 1_555
O1A Zn1 1_555 1_555
O2A Zn1 1_555 1_555
C1A H2A 1_555 1_555
C2A Fe1A 1_555 1_555
H3A C2A 1_555 1_555
C3A Fe1A 1_555 1_555
H4A C3A 1_555 1_555
C4A Fe1A 1_555 1_555
H5A C4A 1_555 1_555
C5A Fe1A 1_555 1_555
H6A C5A 1_555 1_555
C6A Fe1A 1_555 1_555
H7A C6A 1_555 1_555
C7A Fe1A 1_555 1_555
H8A C7A 1_555 1_555
C8A Fe1A 1_555 1_555
H9A C8A 1_555 1_555
C9A Fe1A 1_555 1_555
H10A C9A 1_555 1_555
C10A Fe1A 1_555 1_555
C11A C10A 1_555 1_555
C12A C11A 1_555 1_555
H11A C12A 1_555 1_555
C13A C12A 1_555 1_555
H12A C13A 1_555 1_555
C14A C13A 1_555 1_555
H13A C14A 1_555 1_555
C15A C14A 1_555 1_555
H14A C15A 1_555 1_555
C16A C11A 1_555 1_555
C17A O1A 1_555 1_555
C18D H15D 1_555 1_555
C19D C18D 1_555 1_555
H16D C19D 1_555 1_555
C20D C19D 1_555 1_555
C21D C20D 1_555 1_555
H17D C21D 1_555 1_555
C22D N1D 1_555 1_555
H18D C22D 1_555 1_555
C23D C23 1_555 1_555
H19D C23D 1_555 1_555
O2 C17 1_555 1_555
C1 C2 1_555 1_555
C1 C5 1_555 1_555
C2 C3 1_555 1_555
C3 C4 1_555 1_555
C4 C5 1_555 1_555
C6 C7 1_555 1_555
C6 C10 1_555 1_555
C7 C8 1_555 1_555
C8 C9 1_555 1_555
C9 C10 1_555 1_555
C15 C16 1_555 1_555
C16 C17 1_555 1_555
C21 C22 1_555 1_555
O2A C17A 1_555 1_555
C1A C2A 1_555 1_555
C1A C5A 1_555 1_555
C2A C3A 1_555 1_555
C3A C4A 1_555 1_555
C4A C5A 1_555 1_555
C6A C7A 1_555 1_555
C6A C10A 1_555 1_555
C7A C8A 1_555 1_555
C8A C9A 1_555 1_555
C9A C10A 1_555 1_555
C15A C16A 1_555 1_555
C16A C17A 1_555 1_555
C20D C23D 1_555 1_555
C21D C22D 1_555 1_555

#END
