
#######################################################################
#
#                 Cambridge Crystallographic Data Centre
#                                CCDC 
#
#######################################################################
#
# If this CIF has been generated from an entry in the Cambridge 
# Structural Database, then it will include bibliographic, chemical, 
# crystal, experimental, refinement or atomic coordinate data resulting 
# from the CCDC's data processing and validation procedures.
#
#######################################################################

data_MOVDUW
_symmetry_cell_setting           orthorhombic
_symmetry_space_group_name_H-M   'P 21 21 21'
_symmetry_Int_Tables_number      19
_space_group_name_Hall           'P 2ac 2ab'
loop_
_symmetry_equiv_pos_site_id
_symmetry_equiv_pos_as_xyz
1 x,y,z
2 1/2-x,-y,1/2+z
3 -x,1/2+y,1/2-z
4 1/2+x,1/2-y,-z
_cell_length_a                   7.1577(3)
_cell_length_b                   7.2892(5)
_cell_length_c                   14.9510(10)
_cell_angle_alpha                90
_cell_angle_beta                 90
_cell_angle_gamma                90
_cell_volume                     780.052
loop_
_atom_site_label
_atom_site_type_symbol
_atom_site_fract_x
_atom_site_fract_y
_atom_site_fract_z
Cd1 Cd -0.05185(3) -0.00618(3) 0.210880(13)
C1 C 0.2637(4) -0.2719(4) 0.1413(2)
C2 C 0.3984(4) -0.3231(4) 0.0673(2)
H1 H 0.3289 -0.3866 0.0210
H2 H 0.4465 -0.2108 0.0412
C3 C 0.5626(4) -0.4417(4) 0.0937(2)
H3 H 0.6312 -0.4696 0.0386
C4 C 0.7036(4) -0.3526(4) 0.1588(2)
N1 N 0.5043(4) -0.6225(4) 0.1334(2)
H4 H 0.4228 -0.6771 0.0972
H5 H 0.4513 -0.6035 0.1865
H6 H 0.6042 -0.6939 0.1401
O1 O 0.1425(4) -0.1545(4) 0.12136(17)
O2 O 0.2794(3) -0.3512(3) 0.21672(16)
O3 O 0.7043(4) -0.1815(3) 0.1642(2)
O4 O 0.8087(4) -0.4650(3) 0.19672(19)
N2 N -0.0043(4) 0.2916(4) 0.0826(2)
O5 O 0.1004(4) 0.2819(4) 0.1512(2)
O6 O -0.1331(4) 0.1747(4) 0.0772(2)
O7 O 0.0184(6) 0.4064(5) 0.0243(2)
O3_2 O -0.2957(4) -0.1815(3) 0.1642(2)
Cd1_2 Cd 0.94815(3) -0.00618(3) 0.210880(13)
Cd1B Cd 0.05185(3) 0.49382(3) 0.289120(13)
O4B O 0.1913(4) 0.0350(3) 0.30328(19)
O2B O -0.2794(3) 0.1488(3) 0.28328(16)
O5B O -0.1004(4) -0.2181(4) 0.3488(2)
Cd1B_2 Cd 1.05185(3) -0.50618(3) 0.289120(13)
Cd1B_3 Cd 0.05185(3) -0.50618(3) 0.289120(13)
loop_
_geom_bond_atom_site_label_1
_geom_bond_atom_site_label_2
_geom_bond_site_symmetry_1
_geom_bond_site_symmetry_2
Cd1 O1 1_555 1_555
C1 C2 1_555 1_555
C2 H1 1_555 1_555
H2 C2 1_555 1_555
C3 C2 1_555 1_555
H3 C3 1_555 1_555
C4 C3 1_555 1_555
N1 C3 1_555 1_555
H4 N1 1_555 1_555
H5 N1 1_555 1_555
H6 N1 1_555 1_555
O1 C1 1_555 1_555
O2 C1 1_555 1_555
O3 C4 1_555 1_555
O4 C4 1_555 1_555
N2 O5 1_555 1_555
O5 Cd1 1_555 1_555
O6 Cd1 1_555 1_555
O7 N2 1_555 1_555
O3_2 Cd1 1_555 1_555
Cd1_2 O3 1_555 1_555
Cd1B O5 1_555 1_555
O4B Cd1 1_555 1_555
O2B Cd1 1_555 1_555
O5B Cd1 1_555 1_555
Cd1B_2 O4 1_555 1_555
Cd1B_3 O2 1_555 1_555
N2 O6 1_555 1_555
O5B Cd1B_3 1_555 1_555

#END
