
#######################################################################
#
#                 Cambridge Crystallographic Data Centre
#                                CCDC 
#
#######################################################################
#
# If this CIF has been generated from an entry in the Cambridge 
# Structural Database, then it will include bibliographic, chemical, 
# crystal, experimental, refinement or atomic coordinate data resulting 
# from the CCDC's data processing and validation procedures.
#
#######################################################################

data_MOVNUI
_symmetry_cell_setting           orthorhombic
_symmetry_space_group_name_H-M   'P 21 21 21'
_symmetry_Int_Tables_number      19
_space_group_name_Hall           'P 2ac 2ab'
loop_
_symmetry_equiv_pos_site_id
_symmetry_equiv_pos_as_xyz
1 x,y,z
2 1/2-x,-y,1/2+z
3 1/2+x,1/2-y,-z
4 -x,1/2+y,1/2-z
_cell_length_a                   9.5331(3)
_cell_length_b                   20.8240(7)
_cell_length_c                   22.8981(6)
_cell_angle_alpha                90
_cell_angle_beta                 90
_cell_angle_gamma                90
_cell_volume                     4545.67
loop_
_atom_site_label
_atom_site_type_symbol
_atom_site_fract_x
_atom_site_fract_y
_atom_site_fract_z
Au1 Au 0.59841(3) 0.28926(2) 0.25338(2)
Au2 Au -0.08247(3) 0.29994(2) 0.23608(2)
C1 C 0.5033(8) 0.1595(4) 0.1778(3)
C2 C 0.4179(8) 0.2128(4) 0.1455(3)
H1 H 0.3790 0.2431 0.1752
C3 C 0.5484(9) 0.1066(4) 0.1354(4)
H2 H 0.6058 0.0749 0.1562
H3 H 0.6033 0.1255 0.1036
H4 H 0.4650 0.0855 0.1194
C4 C 0.4139(9) 0.1319(4) 0.2264(4)
H5 H 0.3316 0.1107 0.2096
H6 H 0.3833 0.1666 0.2524
H7 H 0.4690 0.1007 0.2487
C5 C 0.2943(8) 0.1839(4) 0.1104(4)
C6 C -0.0112(8) 0.3664(4) 0.1050(4)
C7 C 0.0515(7) 0.3045(4) 0.0775(3)
H8 H 0.0829 0.2761 0.1101
C8 C 0.1785(9) 0.3164(4) 0.0375(4)
C9 C 0.0987(9) 0.3990(4) 0.1429(4)
H9 H 0.1765 0.4137 0.1183
H10 H 0.1339 0.3685 0.1720
H11 H 0.0565 0.4360 0.1627
C10 C -0.0627(10) 0.4128(4) 0.0579(3)
H12 H -0.0996 0.4517 0.0764
H13 H -0.1370 0.3922 0.0349
H14 H 0.0155 0.4242 0.0321
C11 C 0.4421(8) 0.4368(4) 0.2447(4)
C12 C 0.3354(9) 0.4795(4) 0.2610(5)
H15 H 0.2957 0.4778 0.2990
C13 C 0.2891(12) 0.5242(5) 0.2203(7)
H16 H 0.2172 0.5537 0.2307
C14 C 0.3465(15) 0.5263(6) 0.1647(7)
H17 H 0.3141 0.5572 0.1374
C15 C 0.4494(13) 0.4841(6) 0.1492(6)
H18 H 0.4883 0.4854 0.1110
C16 C 0.4972(11) 0.4390(5) 0.1898(4)
H19 H 0.5688 0.4095 0.1790
C17 C 0.6394(8) 0.4248(4) 0.3400(4)
C18 C 0.7733(9) 0.4348(4) 0.3172(4)
H20 H 0.7970 0.4188 0.2797
C19 C 0.8717(10) 0.4682(5) 0.3500(5)
H21 H 0.9634 0.4744 0.3348
C20 C 0.8381(11) 0.4927(5) 0.4043(5)
H22 H 0.9060 0.5159 0.4261
C21 C 0.7062(11) 0.4833(5) 0.4266(4)
H23 H 0.6824 0.4998 0.4640
C22 C 0.6073(9) 0.4496(4) 0.3941(4)
H24 H 0.5159 0.4436 0.4096
C23 C 0.0593(9) 0.1839(4) 0.3270(4)
C24 C 0.0434(9) 0.1432(5) 0.2807(4)
H25 H -0.0034 0.1577 0.2465
C25 C 0.0947(11) 0.0813(5) 0.2830(5)
H26 H 0.0825 0.0540 0.2502
C26 C 0.1614(12) 0.0584(6) 0.3305(6)
H27 H 0.1942 0.0154 0.3320
C27 C 0.1798(18) 0.0984(7) 0.3751(6)
H28 H 0.2321 0.0839 0.4079
C28 C 0.1263(16) 0.1600(6) 0.3760(5)
H29 H 0.1355 0.1858 0.4100
C29 C -0.1509(8) 0.2647(4) 0.3788(4)
C30 C -0.1582(9) 0.3063(5) 0.4248(4)
H30 H -0.0845 0.3364 0.4307
C31 C -0.2712(11) 0.3056(5) 0.4632(4)
H31 H -0.2748 0.3354 0.4945
C32 C -0.3774(11) 0.2620(6) 0.4560(5)
H32 H -0.4534 0.2605 0.4828
C33 C -0.3723(10) 0.2211(5) 0.4102(4)
H33 H -0.4474 0.1919 0.4041
C34 C -0.2600(8) 0.2211(5) 0.3722(4)
H34 H -0.2572 0.1909 0.3411
C35 C 0.3704(8) 0.3589(4) 0.3464(4)
H35 H 0.4082 0.3337 0.3795
H36 H 0.3300 0.3990 0.3624
C36 C 0.2541(8) 0.3203(4) 0.3164(4)
H37 H 0.2267 0.3418 0.2796
H38 H 0.2893 0.2769 0.3067
C37 C 0.1265(8) 0.3147(4) 0.3564(4)
H39 H 0.0883 0.3581 0.3640
H40 H 0.1560 0.2962 0.3943
N1 N 0.5084(6) 0.2503(3) 0.1038(3)
H41 H 0.5819 0.2677 0.1236
H42 H 0.5413 0.2236 0.0755
H43 H 0.4568 0.2822 0.0872
N2 N -0.0577(6) 0.2686(3) 0.0431(3)
H44 H -0.1338 0.2611 0.0661
H45 H -0.0838 0.2924 0.0116
H46 H -0.0214 0.2305 0.0308
O1 O 0.1856(6) 0.1738(3) 0.1384(3)
O2 O 0.3141(6) 0.1739(3) 0.0567(2)
O3 O 0.2912(6) 0.3313(3) 0.0621(3)
O4 O 0.1618(6) 0.3113(3) -0.0170(2)
P1 P 0.5141(2) 0.37923(10) 0.29661(9)
P2 P -0.0102(2) 0.26488(11) 0.32505(9)
S1 S 0.66461(19) 0.19422(10) 0.20911(9)
S2 S -0.1645(2) 0.34309(12) 0.14949(9)
Au1_2 Au -0.40159(3) 0.28926(2) 0.25338(2)
Au2_2 Au 0.91753(3) 0.29994(2) 0.23608(2)
C38 C 0.3571(16) 0.4174(9) 0.5286(7)
H47 H 0.4356 0.4057 0.5031
H48 H 0.3494 0.3860 0.5603
H49 H 0.3734 0.4602 0.5450
C39 C 0.2314(19) 0.4177(7) 0.4958(7)
H50 H 0.1555 0.4345 0.5211
H51 H 0.2073 0.3727 0.4861
O5 O 0.2319(12) 0.4537(4) 0.4434(4)
H52 H 0.2170 0.4926 0.4511
O6 O 0.1348(7) 0.5732(3) 0.4711(3)
O7 O 0.0750(7) 0.6232(4) 0.3658(3)
O8 O 0.5812(6) 0.3390(3) 0.0064(2)
loop_
_geom_bond_atom_site_label_1
_geom_bond_atom_site_label_2
_geom_bond_site_symmetry_1
_geom_bond_site_symmetry_2
Au1 P1 1_555 1_555
Au2 P2 1_555 1_555
C1 C2 1_555 1_555
C2 H1 1_555 1_555
C3 C1 1_555 1_555
H2 C3 1_555 1_555
H3 C3 1_555 1_555
H4 C3 1_555 1_555
C4 C1 1_555 1_555
H5 C4 1_555 1_555
H6 C4 1_555 1_555
H7 C4 1_555 1_555
C5 C2 1_555 1_555
C6 C7 1_555 1_555
C7 H8 1_555 1_555
C8 C7 1_555 1_555
C9 C6 1_555 1_555
H9 C9 1_555 1_555
H10 C9 1_555 1_555
H11 C9 1_555 1_555
C10 C6 1_555 1_555
H12 C10 1_555 1_555
H13 C10 1_555 1_555
H14 C10 1_555 1_555
C11 C12 1_555 1_555
C12 H15 1_555 1_555
C13 C12 1_555 1_555
H16 C13 1_555 1_555
C14 C13 1_555 1_555
H17 C14 1_555 1_555
C15 C14 1_555 1_555
H18 C15 1_555 1_555
C16 C11 1_555 1_555
H19 C16 1_555 1_555
C17 C18 1_555 1_555
C18 H20 1_555 1_555
C19 C18 1_555 1_555
H21 C19 1_555 1_555
C20 C19 1_555 1_555
H22 C20 1_555 1_555
C21 C20 1_555 1_555
H23 C21 1_555 1_555
C22 C17 1_555 1_555
H24 C22 1_555 1_555
C23 C24 1_555 1_555
C24 H25 1_555 1_555
C25 C24 1_555 1_555
H26 C25 1_555 1_555
C26 C25 1_555 1_555
H27 C26 1_555 1_555
C27 C26 1_555 1_555
H28 C27 1_555 1_555
C28 C23 1_555 1_555
H29 C28 1_555 1_555
C29 C30 1_555 1_555
C30 H30 1_555 1_555
C31 C30 1_555 1_555
H31 C31 1_555 1_555
C32 C31 1_555 1_555
H32 C32 1_555 1_555
C33 C32 1_555 1_555
H33 C33 1_555 1_555
C34 C29 1_555 1_555
H34 C34 1_555 1_555
C35 H35 1_555 1_555
H36 C35 1_555 1_555
C36 C35 1_555 1_555
H37 C36 1_555 1_555
H38 C36 1_555 1_555
C37 C36 1_555 1_555
H39 C37 1_555 1_555
H40 C37 1_555 1_555
N1 C2 1_555 1_555
H41 N1 1_555 1_555
H42 N1 1_555 1_555
H43 N1 1_555 1_555
N2 C7 1_555 1_555
H44 N2 1_555 1_555
H45 N2 1_555 1_555
H46 N2 1_555 1_555
O1 C5 1_555 1_555
O2 C5 1_555 1_555
O3 C8 1_555 1_555
O4 C8 1_555 1_555
P1 C11 1_555 1_555
P2 C23 1_555 1_555
S1 Au1 1_555 1_555
S2 Au2 1_555 1_555
C38 H47 1_555 1_555
H48 C38 1_555 1_555
H49 C38 1_555 1_555
C39 C38 1_555 1_555
H50 C39 1_555 1_555
H51 C39 1_555 1_555
O5 C39 1_555 1_555
H52 O5 1_555 1_555
Au1_2 Au2 1_555 1_555
Au2_2 Au1 1_555 1_555
C1 S1 1_555 1_555
C6 S2 1_555 1_555
C15 C16 1_555 1_555
C17 P1 1_555 1_555
C21 C22 1_555 1_555
C27 C28 1_555 1_555
C29 P2 1_555 1_555
C33 C34 1_555 1_555
C35 P1 1_555 1_555
C37 P2 1_555 1_555

#END
