
#######################################################################
#
#                 Cambridge Crystallographic Data Centre
#                                CCDC 
#
#######################################################################
#
# If this CIF has been generated from an entry in the Cambridge 
# Structural Database, then it will include bibliographic, chemical, 
# crystal, experimental, refinement or atomic coordinate data resulting 
# from the CCDC's data processing and validation procedures.
#
#######################################################################

data_MOVPOC
_symmetry_cell_setting           monoclinic
_symmetry_space_group_name_H-M   'P 21/n'
_symmetry_Int_Tables_number      14
_space_group_name_Hall           '-P 2yn'
loop_
_symmetry_equiv_pos_site_id
_symmetry_equiv_pos_as_xyz
1 x,y,z
2 1/2+x,1/2-y,1/2+z
3 -x,-y,-z
4 1/2-x,1/2+y,1/2-z
_cell_length_a                   10.460(3)
_cell_length_b                   15.127(8)
_cell_length_c                   14.3170(9)
_cell_angle_alpha                90
_cell_angle_beta                 97.006(2)
_cell_angle_gamma                90
_cell_volume                     2248.44
loop_
_atom_site_label
_atom_site_type_symbol
_atom_site_fract_x
_atom_site_fract_y
_atom_site_fract_z
Co1 Co -0.5000 0.5000 0.5000
S1 S -0.1567(3) 0.7031(2) 0.5833(2)
O1 O -0.1306(6) 0.1071(4) 0.4712(4)
N1 N -0.3778(5) 0.3883(3) 0.4729(3)
N2 N 0.0263(5) 0.0203(3) 0.1573(3)
N3 N -0.0950(5) 0.1656(3) 0.3304(3)
N4 N -0.3422(5) 0.5842(4) 0.5089(3)
C1 C -0.4015(7) 0.3056(5) 0.4989(5)
C2 C -0.3277(8) 0.2351(4) 0.4806(5)
C3 C -0.2230(6) 0.2463(4) 0.4311(4)
C4 C -0.1982(7) 0.3310(5) 0.4038(5)
C5 C -0.2753(7) 0.3994(4) 0.4264(5)
C6 C 0.0929(7) -0.0395(5) 0.2146(4)
C7 C 0.1037(8) -0.0338(5) 0.3098(5)
C8 C 0.0429(7) 0.0330(5) 0.3524(4)
C9 C -0.0266(6) 0.0949(4) 0.2956(4)
C10 C -0.0320(6) 0.0852(4) 0.1987(4)
C11 C -0.1432(7) 0.1674(5) 0.4134(4)
C12 C -0.2627(6) 0.6328(5) 0.5377(5)
H1 H -0.4737 0.2955 0.5319
H2 H -0.3481 0.1779 0.5019
H3 H -0.1280 0.3423 0.3692
H4 H -0.2549 0.4576 0.4082
H5 H 0.1336 -0.0874 0.1870
H6 H 0.1536 -0.0762 0.3473
H7 H 0.0484 0.0367 0.4190
H8 H -0.0801 0.1273 0.1597
H9 H -0.1082 0.2167 0.2917
N1B N -0.6222(5) 0.6117(3) 0.5271(3)
N2C N -0.5263(5) 0.5203(3) 0.3427(3)
N4B N -0.6578(5) 0.4158(4) 0.4911(3)
C1B C -0.5985(7) 0.6944(5) 0.5011(5)
C5B C -0.7247(7) 0.6006(4) 0.5736(5)
C12B C -0.7373(6) 0.3672(5) 0.4623(5)
C2B C -0.6723(8) 0.7649(4) 0.5194(5)
H1B H -0.5263 0.7045 0.4681
C4B C -0.8018(7) 0.6690(5) 0.5962(5)
H4B H -0.7451 0.5424 0.5918
S1B S -0.8433(3) 0.2969(2) 0.4167(2)
C3B C -0.7770(6) 0.7537(4) 0.5689(4)
H2B H -0.6519 0.8221 0.4981
H3B H -0.8720 0.6577 0.6308
N2A N -0.4737(5) 0.4797(3) 0.6573(3)
C11B C -0.8568(7) 0.8326(5) 0.5866(4)
Co1A Co 0.0000 0.0000 0.0000
O1B O -0.8694(6) 0.8929(4) 0.5288(4)
N3B N -0.9050(5) 0.8344(3) 0.6696(3)
C9B C -0.9734(6) 0.9051(4) 0.7044(4)
H9B H -0.8918 0.7833 0.7083
C8B C -1.0429(7) 0.9670(5) 0.6476(4)
C10B C -0.9680(6) 0.9148(4) 0.8013(4)
C7B C -1.1037(8) 1.0338(5) 0.6902(5)
H7B H -1.0484 0.9633 0.5810
N2B N -1.0263(5) 0.9797(3) 0.8427(3)
H8B H -0.9199 0.8727 0.8403
C6B C -1.0929(7) 1.0395(5) 0.7854(4)
H6B H -1.1536 1.0762 0.6527
Co1A_2 Co -1.0000 1.0000 1.0000
H5B H -1.1336 1.0874 0.8130
O2 O -0.1297(10) 0.3018(5) 0.1841(5)
C13 C -0.021(2) 0.358(1) 0.1745(9)
C14 C -0.076(3) 0.414(1) 0.085(1)
C15 C -0.212(3) 0.415(2) 0.090(2)
C16 C -0.241(2) 0.347(1) 0.149(1)
H10 H 0.0528 0.3245 0.1629
H11 H 0.0006 0.3940 0.2284
H12 H -0.0571 0.3870 0.0288
H13 H -0.0418 0.4725 0.0889
H14 H -0.2568 0.4068 0.0287
H15 H -0.2362 0.4705 0.1141
H16 H -0.2989 0.3069 0.1152
H17 H -0.2793 0.3709 0.2005
O3 O -0.418(2) 0.091(1) 0.188(2)
C17 C -0.424(2) 0.149(1) 0.275(1)
C18 C -0.5769 0.1821 0.2755
C19 C -0.6564 0.1488 0.1847
C20 C -0.5666 0.0941 0.1295
H18 H -0.4119 0.1062 0.3385
H19 H -0.3710 0.2043 0.2781
H20 H -0.5773 0.2548 0.2768
H21 H -0.6182 0.1567 0.3373
H22 H -0.6953 0.2053 0.1420
H23 H -0.7362 0.1072 0.2025
H24 H -0.5621 0.1242 0.0600
H25 H -0.6030 0.0260 0.1205
loop_
_geom_bond_atom_site_label_1
_geom_bond_atom_site_label_2
_geom_bond_site_symmetry_1
_geom_bond_site_symmetry_2
Co1 N1 1_555 1_555
S1 C12 1_555 1_555
O1 C11 1_555 1_555
O2 C13 1_555 1_555
O3 C17 1_555 1_555
N1 C1 1_555 1_555
N2 C6 1_555 1_555
N3 C9 1_555 1_555
N4 Co1 1_555 1_555
C1 C2 1_555 1_555
C2 C3 1_555 1_555
C3 C4 1_555 1_555
C4 C5 1_555 1_555
C5 N1 1_555 1_555
C6 C7 1_555 1_555
C7 C8 1_555 1_555
C8 C9 1_555 1_555
C9 C10 1_555 1_555
C10 N2 1_555 1_555
C11 N3 1_555 1_555
C12 N4 1_555 1_555
C13 C14 1_555 1_555
C14 C15 1_555 1_555
C15 C16 1_555 1_555
C16 O2 1_555 1_555
C17 C18 1_555 1_555
C18 C19 1_555 1_555
C19 C20 1_555 1_555
C20 O3 1_555 1_555
H1 C1 1_555 1_555
H2 C2 1_555 1_555
H3 C4 1_555 1_555
H4 C5 1_555 1_555
H5 C6 1_555 1_555
H6 C7 1_555 1_555
H7 C8 1_555 1_555
H8 C10 1_555 1_555
H9 N3 1_555 1_555
H10 C13 1_555 1_555
H11 C13 1_555 1_555
H12 C14 1_555 1_555
H13 C14 1_555 1_555
H14 C15 1_555 1_555
H15 C15 1_555 1_555
H16 C16 1_555 1_555
H17 C16 1_555 1_555
H18 C17 1_555 1_555
H19 C17 1_555 1_555
H20 C18 1_555 1_555
H21 C18 1_555 1_555
H22 C19 1_555 1_555
H23 C19 1_555 1_555
H24 C20 1_555 1_555
H25 C20 1_555 1_555
N1B Co1 1_555 1_555
N2C Co1 1_555 1_555
N4B Co1 1_555 1_555
C1B N1B 1_555 1_555
C5B N1B 1_555 1_555
C12B N4B 1_555 1_555
C2B C1B 1_555 1_555
H1B C1B 1_555 1_555
C4B C5B 1_555 1_555
H4B C5B 1_555 1_555
S1B C12B 1_555 1_555
C3B C2B 1_555 1_555
H2B C2B 1_555 1_555
H3B C4B 1_555 1_555
N2A Co1 1_555 1_555
C11B C3B 1_555 1_555
Co1A N2 1_555 1_555
O1B C11B 1_555 1_555
N3B C11B 1_555 1_555
C9B N3B 1_555 1_555
H9B N3B 1_555 1_555
C8B C9B 1_555 1_555
C10B C9B 1_555 1_555
C7B C8B 1_555 1_555
H7B C8B 1_555 1_555
N2B C10B 1_555 1_555
H8B C10B 1_555 1_555
C6B C7B 1_555 1_555
H6B C7B 1_555 1_555
Co1A_2 N2B 1_555 1_555
H5B C6B 1_555 1_555
C3 C11 1_555 1_555
C4B C3B 1_555 1_555
N2B C6B 1_555 1_555

#END
