
#######################################################################
#
#                 Cambridge Crystallographic Data Centre
#                                CCDC 
#
#######################################################################
#
# If this CIF has been generated from an entry in the Cambridge 
# Structural Database, then it will include bibliographic, chemical, 
# crystal, experimental, refinement or atomic coordinate data resulting 
# from the CCDC's data processing and validation procedures.
#
#######################################################################

data_MOVPAO
_symmetry_cell_setting           monoclinic
_symmetry_space_group_name_H-M   'C 2/c'
_symmetry_Int_Tables_number      15
_space_group_name_Hall           '-C 2yn'
loop_
_symmetry_equiv_pos_site_id
_symmetry_equiv_pos_as_xyz
1 x,y,z
2 1/2+x,1/2+y,z
3 -x,y,1/2-z
4 1/2-x,1/2+y,1/2-z
5 -x,-y,-z
6 1/2-x,1/2-y,-z
7 x,-y,1/2+z
8 1/2+x,1/2-y,1/2+z
_cell_length_a                   19.730(3)
_cell_length_b                   18.3287(8)
_cell_length_c                   14.9877(3)
_cell_angle_alpha                90
_cell_angle_beta                 115.2061(6)
_cell_angle_gamma                90
_cell_volume                     4903.85
loop_
_atom_site_label
_atom_site_type_symbol
_atom_site_fract_x
_atom_site_fract_y
_atom_site_fract_z
Co1 Co 0.2500 0.2500 0.5000
S1 S 0.0476(2) 0.1353(3) 0.5477(3)
O1 O 0.4343(4) -0.0831(4) 0.4829(5)
N1 N 0.2891(4) 0.1423(3) 0.4742(4)
N2 N 0.3213(4) -0.2325(3) 0.1577(4)
N3 N 0.3312(4) -0.0968(4) 0.3393(4)
N4 N 0.1609(4) 0.1989(3) 0.5145(4)
C1 C 0.3603(5) 0.1331(5) 0.4908(6)
C2 C 0.3880(5) 0.0677(5) 0.4751(7)
C3 C 0.3417(5) 0.0083(4) 0.4393(5)
C4 C 0.2683(5) 0.0174(5) 0.4229(6)
C5 C 0.2444(5) 0.0843(5) 0.4431(6)
C6 C 0.3788(6) -0.2759(5) 0.2111(6)
C7 C 0.4224(5) -0.2647(5) 0.3101(6)
C8 C 0.4090(5) -0.2060(5) 0.3570(5)
C9 C 0.3507(4) -0.1592(4) 0.3019(5)
C10 C 0.3090(4) -0.1757(4) 0.2029(5)
C11 C 0.3728(5) -0.0616(4) 0.4227(5)
C12 C 0.1141(5) 0.1731(5) 0.5278(5)
H1 H 0.3936 0.1734 0.5144
H2 H 0.4395 0.0636 0.4891
H3 H 0.2339 -0.0218 0.3977
H4 H 0.1940 0.0888 0.4343
H5 H 0.4618 -0.2977 0.3459
H6 H 0.4387 -0.1976 0.4253
H7 H 0.2689 -0.1439 0.1652
H8 H 0.3900 -0.3159 0.1795
H9 H 0.2829 -0.0772 0.3009
N2F N 0.3213(4) 0.2325(3) 0.6577(4)
Co1F Co 0.2500 -0.2500 0.0000
N2C N 0.1787(4) 0.2675(3) 0.3423(4)
N1E N 0.2109(4) 0.3577(3) 0.5258(4)
N4E N 0.3391(4) 0.3011(3) 0.4855(4)
C12E C 0.3859(5) 0.3269(5) 0.4722(5)
S1E S 0.4524(2) 0.3647(3) 0.4523(3)
C1E C 0.1397(5) 0.3669(5) 0.5092(6)
C5E C 0.2556(5) 0.4157(5) 0.5569(6)
C2E C 0.1120(5) 0.4323(5) 0.5249(7)
H1E H 0.1064 0.3266 0.4856
C4E C 0.2317(5) 0.4826(5) 0.5771(6)
H4E H 0.3060 0.4112 0.5657
C3E C 0.1583(5) 0.4917(4) 0.5607(5)
H2E H 0.0605 0.4364 0.5109
H3E H 0.2661 0.5218 0.6023
C11E C 0.1272(5) 0.5616(4) 0.5773(5)
O1E O 0.0657(4) 0.5831(4) 0.5171(5)
N3E N 0.1688(4) 0.5968(4) 0.6607(4)
C9E C 0.1493(4) 0.6592(4) 0.6981(5)
H9E H 0.2171 0.5772 0.6991
C8E C 0.0910(5) 0.7060(5) 0.6430(5)
C10E C 0.1910(4) 0.6757(4) 0.7971(5)
C7E C 0.0776(5) 0.7647(5) 0.6899(6)
H6E H 0.0613 0.6976 0.5747
N2E N 0.1787(4) 0.7325(3) 0.8423(4)
H7E H 0.2311 0.6439 0.8348
C6E C 0.1212(6) 0.7759(5) 0.7889(6)
H5E H 0.0382 0.7977 0.6541
Co1F_2 Co 0.2500 0.7500 1.0000
H8E H 0.1100 0.8159 0.8205
O2 O 0.1940(5) -0.0319(6) 0.1908(7)
C13 C 0.220(2) 0.038(3) 0.152(3)
C14 C 0.166(3) 0.059(2) 0.117(3)
O3 O 0.436(1) 0.033(1) 0.236(2)
O4 O 0.5000 0.073(1) 0.7500
O5 O 0.172(2) 0.185(2) 0.859(3)
O6 O 0.167(2) 0.266(2) 0.781(3)
O7 O 0.114(2) 0.254(2) 0.893(3)
O8? O 0.030(2) 0.009(2) 0.304(2)
loop_
_geom_bond_atom_site_label_1
_geom_bond_atom_site_label_2
_geom_bond_site_symmetry_1
_geom_bond_site_symmetry_2
Co1 N1 1_555 1_555
S1 C12 1_555 1_555
O1 C11 1_555 1_555
N1 C1 1_555 1_555
N2 C6 1_555 1_555
N3 C9 1_555 1_555
N4 Co1 1_555 1_555
C1 C2 1_555 1_555
C2 C3 1_555 1_555
C3 C4 1_555 1_555
C4 C5 1_555 1_555
C5 N1 1_555 1_555
C6 C7 1_555 1_555
C7 C8 1_555 1_555
C8 C9 1_555 1_555
C9 C10 1_555 1_555
C10 N2 1_555 1_555
C11 N3 1_555 1_555
C12 N4 1_555 1_555
H1 C1 1_555 1_555
H2 C2 1_555 1_555
H3 C4 1_555 1_555
H4 C5 1_555 1_555
H5 C7 1_555 1_555
H6 C8 1_555 1_555
H7 C10 1_555 1_555
H8 C6 1_555 1_555
H9 N3 1_555 1_555
O2 C13 1_555 1_555
C13 C14 1_555 1_555
N2F Co1 1_555 1_555
Co1F N2 1_555 1_555
N2C Co1 1_555 1_555
N1E Co1 1_555 1_555
N4E Co1 1_555 1_555
C12E N4E 1_555 1_555
S1E C12E 1_555 1_555
C1E N1E 1_555 1_555
C5E N1E 1_555 1_555
C2E C1E 1_555 1_555
H1E C1E 1_555 1_555
C4E C5E 1_555 1_555
H4E C5E 1_555 1_555
C3E C2E 1_555 1_555
H2E C2E 1_555 1_555
H3E C4E 1_555 1_555
C11E C3E 1_555 1_555
O1E C11E 1_555 1_555
N3E C11E 1_555 1_555
C9E N3E 1_555 1_555
H9E N3E 1_555 1_555
C8E C9E 1_555 1_555
C10E C9E 1_555 1_555
C7E C8E 1_555 1_555
H6E C8E 1_555 1_555
N2E C10E 1_555 1_555
H7E C10E 1_555 1_555
C6E C7E 1_555 1_555
H5E C7E 1_555 1_555
Co1F_2 N2E 1_555 1_555
H8E C6E 1_555 1_555
C3 C11 1_555 1_555
C4E C3E 1_555 1_555
N2E C6E 1_555 1_555

#END
