
#######################################################################
#
#                 Cambridge Crystallographic Data Centre
#                                CCDC 
#
#######################################################################
#
# If this CIF has been generated from an entry in the Cambridge 
# Structural Database, then it will include bibliographic, chemical, 
# crystal, experimental, refinement or atomic coordinate data resulting 
# from the CCDC's data processing and validation procedures.
#
#######################################################################

data_MOVPEU
_symmetry_cell_setting           monoclinic
_symmetry_space_group_name_H-M   'P 21'
_symmetry_Int_Tables_number      4
_space_group_name_Hall           'P 2yb'
loop_
_symmetry_equiv_pos_site_id
_symmetry_equiv_pos_as_xyz
1 x,y,z
2 -x,1/2+y,-z
_cell_length_a                   15.0714(5)
_cell_length_b                   24.8843(8)
_cell_length_c                   29.8410(11)
_cell_angle_alpha                90
_cell_angle_beta                 93.312(7)
_cell_angle_gamma                90
_cell_volume                     11172.9
loop_
_atom_site_label
_atom_site_type_symbol
_atom_site_fract_x
_atom_site_fract_y
_atom_site_fract_z
Au1 Au 1.11130(10) 0.21069(5) 1.04046(4)
Au2 Au 0.57547(8) 0.33117(5) 0.94547(4)
S1 S 1.1545(9) 0.2238(4) 1.1137(3)
S2 S 0.4466(5) 0.3192(3) 0.9013(3)
P1 P 1.0574(6) 0.1907(3) 0.9701(3)
P2 P 0.6903(5) 0.3519(3) 0.9946(3)
O1 O 1.096(3) 0.1917(13) 1.2201(13)
O2 O 1.082(2) 0.1052(13) 1.2007(13)
O3 O 0.490(3) 0.3549(10) 0.7436(7)
O4 O 0.566(2) 0.4228(11) 0.7781(9)
N1 N 1.270(3) 0.1943(18) 1.2009(12)
H1 H 1.2686 0.1911 1.2313
H2 H 1.2515 0.2276 1.1923
H3 H 1.3270 0.1893 1.1929
N2 N 0.5112(17) 0.2940(9) 0.8140(8)
H4 H 0.5496 0.2855 0.7926
H5 H 0.5262 0.2755 0.8396
H6 H 0.4549 0.2851 0.8041
C1 C 1.221(3) 0.1630(12) 1.1283(12)
C2 C 1.211(3) 0.1527(18) 1.1784(13)
H7 H 1.2411 0.1175 1.1848
C3 C 1.122(2) 0.1492(13) 1.2021(10)
C4 C 1.317(3) 0.175(2) 1.1183(19)
H8 H 1.3356 0.2093 1.1326
H9 H 1.3559 0.1462 1.1301
H10 H 1.3221 0.1782 1.0858
C5 C 1.197(3) 0.1099(16) 1.1051(15)
H11 H 1.1352 0.1004 1.1106
H12 H 1.2030 0.1136 1.0727
H13 H 1.2367 0.0816 1.1170
C6 C 0.4530(19) 0.3652(12) 0.8581(10)
C7 C 0.516(2) 0.3532(9) 0.8234(7)
H14 H 0.5759 0.3583 0.8391
C8 C 0.5249(19) 0.3789(10) 0.7766(8)
C9 C 0.359(2) 0.3701(14) 0.8326(12)
H15 H 0.3379 0.3343 0.8232
H16 H 0.3166 0.3859 0.8527
H17 H 0.3630 0.3930 0.8062
C10 C 0.480(3) 0.4174(13) 0.8709(11)
H18 H 0.4425 0.4305 0.8944
H19 H 0.5421 0.4167 0.8824
H20 H 0.4738 0.4414 0.8448
C11 C 1.1487(14) 0.1900(9) 0.9292(7)
C12 C 1.2326(16) 0.1702(8) 0.9419(6)
H21 H 1.2438 0.1551 0.9709
C13 C 1.3002(12) 0.1724(9) 0.9122(8)
H22 H 1.3575 0.1588 0.9209
C14 C 1.2839(14) 0.1945(9) 0.8697(7)
H23 H 1.3301 0.1960 0.8494
C15 C 1.2000(17) 0.2143(9) 0.8570(6)
H24 H 1.1888 0.2294 0.8279
C16 C 1.1324(13) 0.2121(10) 0.8867(8)
H25 H 1.0750 0.2257 0.8780
C17 C 1.0005(14) 0.1239(7) 0.9695(8)
C18 C 0.9745(15) 0.0985(10) 1.0081(7)
H26 H 0.9848 0.1153 1.0365
C19 C 0.9335(14) 0.0485(10) 1.0052(8)
H27 H 0.9157 0.0312 1.0316
C20 C 0.9185(14) 0.0239(8) 0.9636(10)
H28 H 0.8904 -0.0103 0.9616
C21 C 0.9444(15) 0.0492(9) 0.9250(8)
H29 H 0.9341 0.0324 0.8966
C22 C 0.9855(14) 0.0992(9) 0.9279(7)
H30 H 1.0032 0.1166 0.9016
C23 C 0.7565(12) 0.4098(6) 0.9788(7)
C24 C 0.7535(12) 0.4244(7) 0.9338(6)
H31 H 0.7190 0.4040 0.9122
C25 C 0.8009(14) 0.4689(8) 0.9203(6)
H32 H 0.7988 0.4789 0.8895
C26 C 0.8513(14) 0.4988(7) 0.9518(8)
H33 H 0.8837 0.5292 0.9425
C27 C 0.8543(14) 0.4842(8) 0.9968(7)
H34 H 0.8887 0.5046 1.0183
C28 C 0.8069(14) 0.4397(8) 1.0103(6)
H35 H 0.8089 0.4297 1.0411
C29 C 0.6521(14) 0.3703(8) 1.0479(7)
C30 C 0.5797(14) 0.4048(9) 1.0490(7)
H36 H 0.5524 0.4183 1.0218
C31 C 0.5472(13) 0.4194(10) 1.0899(9)
H37 H 0.4977 0.4430 1.0907
C32 C 0.5871(17) 0.3996(12) 1.1297(7)
H38 H 0.5648 0.4096 1.1577
C33 C 0.6595(17) 0.3651(11) 1.1286(7)
H39 H 0.6868 0.3516 1.1558
C34 C 0.6920(12) 0.3505(8) 1.0877(8)
H40 H 0.7415 0.3269 1.0869
C35 C 0.9695(16) 0.2331(11) 0.9442(10)
H41 H 0.9934 0.2687 0.9361
H42 H 0.9424 0.2159 0.9168
C36 C 0.8988(16) 0.2391(11) 0.9813(10)
H43 H 0.9291 0.2483 1.0106
H44 H 0.8664 0.2049 0.9846
C37 C 0.8303(19) 0.2862(9) 0.9657(9)
H45 H 0.8629 0.3184 0.9562
H46 H 0.7903 0.2739 0.9403
C38 C 0.7758(19) 0.2995(10) 1.0073(9)
H47 H 0.8169 0.3120 1.0322
H48 H 0.7464 0.2664 1.0173
Au3 Au 0.60130(8) 0.20389(4) 0.95846(4)
Au4 Au 0.08974(8) 0.33884(5) 1.04641(4)
S3 S 0.6340(7) 0.2098(3) 0.8844(3)
S4 S -0.0289(5) 0.3237(4) 1.0900(2)
P3 P 0.5662(5) 0.1945(3) 1.0303(2)
P4 P 0.1938(5) 0.3557(3) 0.9961(3)
O5 O 0.7535(14) 0.0717(7) 0.7901(7)
O6 O 0.6078(16) 0.0537(9) 0.7856(10)
O7 O 0.0234(19) 0.3687(17) 1.2480(7)
O8 O -0.119(2) 0.3889(13) 1.2337(10)
N3 N 0.7231(17) 0.1751(10) 0.7980(7)
H49 H 0.7210 0.1729 0.7676
H50 H 0.7115 0.2095 0.8063
H51 H 0.7782 0.1655 0.8094
N4 N 0.018(3) 0.2955(14) 1.1865(11)
H52 H 0.0012 0.2773 1.2111
H53 H 0.0153 0.2731 1.1623
H54 H 0.0744 0.3078 1.1915
C39 C 0.6515(17) 0.1381(11) 0.8675(10)
C40 C 0.6552(16) 0.1383(7) 0.8159(9)
H55 H 0.5957 0.1503 0.8032
C41 C 0.6740(15) 0.0826(8) 0.7954(7)
C42 C 0.575(2) 0.1043(12) 0.8808(11)
H56 H 0.5196 0.1179 0.8658
H57 H 0.5841 0.0670 0.8719
H58 H 0.5704 0.1062 0.9134
C43 C 0.7399(17) 0.1186(11) 0.8901(10)
H59 H 0.7884 0.1415 0.8806
H60 H 0.7371 0.1206 0.9227
H61 H 0.7508 0.0814 0.8812
C44 C -0.017(2) 0.3717(16) 1.1376(14)
C45 C -0.044(3) 0.3421(15) 1.1775(8)
H62 H -0.1041 0.3268 1.1698
C46 C -0.0467(19) 0.3690(11) 1.2243(7)
C47 C 0.082(3) 0.3909(15) 1.1509(14)
H63 H 0.1051 0.4112 1.1259
H64 H 0.0819 0.4139 1.1776
H65 H 0.1197 0.3595 1.1573
C48 C -0.091(3) 0.4147(15) 1.1344(13)
H66 H -0.0817 0.4383 1.1087
H67 H -0.1487 0.3971 1.1304
H68 H -0.0882 0.4361 1.1621
C49 C 0.6634(12) 0.1943(9) 1.0715(6)
C50 C 0.6606(14) 0.2212(9) 1.1122(7)
H69 H 0.6079 0.2393 1.1196
C51 C 0.7348(17) 0.2216(9) 1.1421(6)
H70 H 0.7329 0.2400 1.1699
C52 C 0.8119(13) 0.1952(10) 1.1312(8)
H71 H 0.8627 0.1955 1.1516
C53 C 0.8148(12) 0.1683(10) 1.0905(8)
H72 H 0.8675 0.1503 1.0830
C54 C 0.7405(15) 0.1679(9) 1.0606(6)
H73 H 0.7424 0.1495 1.0328
C55 C 0.5123(14) 0.1286(7) 1.0384(8)
C56 C 0.4619(16) 0.1075(10) 1.0021(6)
H74 H 0.4622 0.1245 0.9736
C57 C 0.4110(15) 0.0616(10) 1.0074(9)
H75 H 0.3766 0.0473 0.9826
C58 C 0.4106(16) 0.0368(8) 1.0491(11)
H76 H 0.3759 0.0054 1.0528
C59 C 0.4611(18) 0.0578(9) 1.0855(8)
H77 H 0.4608 0.0408 1.1140
C60 C 0.5119(15) 0.1037(9) 1.0801(6)
H78 H 0.5464 0.1181 1.1049
C61 C 0.2549(14) 0.4150(8) 1.0088(8)
C62 C 0.3069(18) 0.4357(9) 0.9759(7)
H79 H 0.3047 0.4199 0.9469
C63 C 0.3620(18) 0.4795(10) 0.9855(8)
H80 H 0.3976 0.4936 0.9630
C64 C 0.3652(16) 0.5025(8) 1.0280(9)
H81 H 0.4030 0.5325 1.0345
C65 C 0.3132(16) 0.4819(8) 1.0609(7)
H82 H 0.3154 0.4976 1.0899
C66 C 0.2581(14) 0.4381(9) 1.0513(7)
H83 H 0.2225 0.4240 1.0738
C67 C 0.1333(15) 0.3638(8) 0.9426(5)
C68 C 0.1675(13) 0.3442(8) 0.9035(6)
H84 H 0.2193 0.3224 0.9052
C69 C 0.1258(16) 0.3566(9) 0.8620(5)
H85 H 0.1492 0.3432 0.8353
C70 C 0.0500(15) 0.3885(10) 0.8596(6)
H86 H 0.0216 0.3970 0.8313
C71 C 0.0159(12) 0.4081(9) 0.8987(9)
H87 H -0.0359 0.4299 0.8971
C72 C 0.0575(15) 0.3957(9) 0.9402(7)
H88 H 0.0341 0.4091 0.9669
C73 C 0.4863(17) 0.2432(11) 1.0511(9)
H89 H 0.4643 0.2303 1.0798
H90 H 0.5163 0.2782 1.0567
C74 C 0.4098(15) 0.2504(10) 1.0174(8)
H91 H 0.4332 0.2580 0.9878
H92 H 0.3762 0.2162 1.0149
C75 C 0.3486(19) 0.2937(12) 1.0286(11)
H93 H 0.3826 0.3270 1.0356
H94 H 0.3164 0.2836 1.0553
C76 C 0.2790(18) 0.3039(10) 0.9867(10)
H95 H 0.2486 0.2696 0.9790
H96 H 0.3124 0.3147 0.9605
Au1_2 Au 0.11130(10) 0.21069(5) 1.04046(4)
Au4_2 Au 1.08974(8) 0.33884(5) 1.04641(4)
O9 O 0.7116(12) 0.2939(7) 0.7987(6)
C77 C 0.768(2) 0.3266(13) 0.8358(11)
H97 H 0.7444 0.3220 0.8658
H98 H 0.7698 0.3654 0.8284
C78 C 0.864(3) 0.2997(18) 0.8335(14)
H99 H 0.9058 0.3169 0.8555
H100 H 0.8601 0.2613 0.8404
H101 H 0.8853 0.3042 0.8033
O10 O 0.332(3) 0.3959(18) 0.1756(15)
O11 O 0.820(2) 0.1648(13) 0.6557(10)
O12 O 0.948(2) 0.1020(14) 0.6813(11)
O13 O 0.9065(19) 0.1632(11) 0.8249(9)
O14 O 0.212(2) 0.3025(12) 0.2346(10)
O15 O 0.841(3) 0.4831(15) 0.2695(12)
O16 O 0.955(2) 0.5074(13) 0.3499(11)
O17 O 0.711(4) 0.520(2) 0.1441(18)
O18 O 0.982(3) 0.0677(17) 0.8083(14)
O19 O 0.147(3) 0.3318(15) 0.7441(12)
O20 O 0.780(3) 0.0220(18) 0.1421(14)
Au5? Au 1.13142(10) 0.39380(6) 0.44518(5)
Au6? Au 0.59809(8) 0.25950(5) 0.53819(4)
S5? S 1.2123(15) 0.3841(6) 0.3846(4)
S6? S 0.4895(5) 0.2649(4) 0.5874(3)
P5? P 1.0585(5) 0.4081(3) 0.5075(3)
P6? P 0.6898(5) 0.2422(3) 0.4830(3)
O21? O 1.221(2) 0.4808(10) 0.2487(11)
O22? O 1.091(2) 0.5101(11) 0.2750(10)
O23? O 0.5703(16) 0.2272(8) 0.7419(6)
O24? O 0.6689(18) 0.1766(11) 0.7065(8)
N5? N 1.0699(16) 0.4283(13) 0.3178(9)
H102? H 1.0388 0.4223 0.2912
H103? H 1.0627 0.3999 0.3365
H104? H 1.0496 0.4588 0.3305
N6? N 0.5664(19) 0.3021(8) 0.6800(8)
H105? H 0.5543 0.3226 0.6552
H106? H 0.5170 0.2995 0.6960
H107? H 0.6112 0.3174 0.6973
C79? C 1.219(2) 0.4442(15) 0.3498(12)
C80? C 1.1658(16) 0.4346(10) 0.3097(8)
H108? H 1.1872 0.4012 0.2952
C81? C 1.1574(18) 0.4797(10) 0.2743(8)
C82? C 1.191(3) 0.4944(15) 0.3770(13)
H109? H 1.2303 0.4983 0.4040
H110? H 1.1943 0.5267 0.3584
H111? H 1.1293 0.4897 0.3857
C83? C 1.317(2) 0.438(3) 0.3361(19)
H112? H 1.3579 0.4441 0.3624
H113? H 1.3260 0.4016 0.3245
H114? H 1.3290 0.4643 0.3128
C84? C 0.5176(18) 0.2210(11) 0.6349(9)
C85? C 0.5944(16) 0.2466(8) 0.6659(6)
H115? H 0.6495 0.2493 0.6490
C86? C 0.6140(16) 0.2137(9) 0.7093(6)
C87? C 0.552(3) 0.1656(11) 0.6187(11)
H116? H 0.5056 0.1484 0.5993
H117? H 0.6052 0.1711 0.6020
H118? H 0.5664 0.1426 0.6448
C88? C 0.424(3) 0.216(2) 0.6600(14)
H119? H 0.4059 0.2520 0.6695
H120? H 0.3785 0.2009 0.6392
H121? H 0.4330 0.1929 0.6863
C89? C 1.1368(16) 0.4114(11) 0.5539(7)
C90? C 1.1134(16) 0.3943(12) 0.5960(9)
H122? H 1.0582 0.3766 0.5991
C91? C 1.171(2) 0.4030(14) 0.6335(7)
H123? H 1.1548 0.3913 0.6622
C92? C 1.252(2) 0.4288(15) 0.6289(8)
H124? H 1.2907 0.4347 0.6545
C93? C 1.2749(16) 0.4459(14) 0.5868(9)
H125? H 1.3301 0.4636 0.5837
C94? C 1.2176(18) 0.4372(12) 0.5493(7)
H126? H 1.2336 0.4489 0.5206
C95? C 0.9934(15) 0.4692(8) 0.5006(9)
C96? C 0.9670(16) 0.4903(9) 0.4588(8)
H127? H 0.9846 0.4732 0.4323
C97? C 0.9148(16) 0.5363(10) 0.4558(8)
H128? H 0.8968 0.5507 0.4272
C98? C 0.8891(16) 0.5613(9) 0.4946(11)
H129? H 0.8534 0.5928 0.4926
C99? C 0.9155(18) 0.5403(10) 0.5364(9)
H130? H 0.8978 0.5574 0.5630
C100? C 0.9676(18) 0.4942(10) 0.5394(8)
H131? H 0.9856 0.4798 0.5680
C101? C 0.7547(13) 0.1793(6) 0.4938(9)
C102? C 0.7785(15) 0.1661(9) 0.5381(8)
H132? H 0.7629 0.1892 0.5617
C103? C 0.8252(16) 0.1189(10) 0.5479(8)
H133? H 0.8416 0.1099 0.5782
C104? C 0.8481(15) 0.0851(8) 0.5133(11)
H134? H 0.8800 0.0528 0.5200
C105? C 0.8242(16) 0.0983(8) 0.4690(9)
H135? H 0.8398 0.0752 0.4454
C106? C 0.7775(16) 0.1455(8) 0.4592(8)
H136? H 0.7612 0.1545 0.4290
C107? C 0.6261(16) 0.2249(11) 0.4294(7)
C108? C 0.6528(16) 0.2416(11) 0.3878(9)
H137? H 0.7059 0.2619 0.3859
C109? C 0.602(2) 0.2287(13) 0.3490(7)
H138? H 0.6201 0.2402 0.3206
C110? C 0.524(2) 0.1991(14) 0.3517(8)
H139? H 0.4894 0.1903 0.3252
C111? C 0.4975(15) 0.1823(12) 0.3933(10)
H140? H 0.4444 0.1621 0.3952
C112? C 0.5484(17) 0.1952(12) 0.4321(8)
H141? H 0.5301 0.1838 0.4605
C113? C 0.986(2) 0.3547(12) 0.5262(13)
H142? H 1.0179 0.3201 0.5273
H143? H 0.9669 0.3629 0.5568
C114? C 0.906(2) 0.3507(11) 0.4946(13)
H144? H 0.9263 0.3472 0.4638
H145? H 0.8720 0.3845 0.4960
C115? C 0.8441(16) 0.3036(10) 0.5036(8)
H146? H 0.8813 0.2710 0.5076
H147? H 0.8178 0.3106 0.5327
C116? C 0.7683(17) 0.2902(12) 0.4697(9)
H148? H 0.7949 0.2782 0.4418
H149? H 0.7359 0.3240 0.4625
Au7? Au 0.62921(9) 0.38549(5) 0.54092(5)
Au8? Au 0.10420(10) 0.26623(6) 0.44158(5)
S7? S 0.6955(8) 0.3658(4) 0.6098(3)
S8? S 0.0053(15) 0.2897(8) 0.3844(5)
P7? P 0.5586(6) 0.4059(3) 0.4721(3)
P8? P 0.1988(6) 0.2430(3) 0.4990(3)
O25? O 0.7057(13) 0.3473(8) 0.7215(6)
O26? O 0.8490(14) 0.3684(16) 0.7212(13)
N7? N 0.6526(19) 0.4435(9) 0.6927(9)
H150? H 0.6456 0.4435 0.7228
H151? H 0.6402 0.4768 0.6814
H152? H 0.6148 0.4191 0.6792
C117? C 0.762(2) 0.4280(12) 0.6369(12)
C118? C 0.7463(18) 0.4288(9) 0.6842(10)
H153? H 0.7848 0.4579 0.6979
C119? C 0.7678(14) 0.3773(9) 0.7114(8)
C120? C 0.849(2) 0.4135(18) 0.6237(16)
H154? H 0.8498 0.4147 0.5909
H155? H 0.8927 0.4389 0.6369
H156? H 0.8633 0.3771 0.6343
C121? C 0.734(3) 0.4761(12) 0.6063(11)
H157? H 0.6743 0.4883 0.6135
H158? H 0.7763 0.5055 0.6113
H159? H 0.7327 0.4648 0.5748
C122? C 0.6258(16) 0.4118(10) 0.4281(7)
C123? C 0.6039(16) 0.3854(11) 0.3879(9)
H160? H 0.5496 0.3661 0.3842
C124? C 0.661(2) 0.3874(12) 0.3532(7)
H161? H 0.6465 0.3694 0.3257
C125? C 0.7409(19) 0.4157(13) 0.3587(9)
H162? H 0.7802 0.4170 0.3349
C126? C 0.7627(15) 0.4420(11) 0.3989(11)
H163? H 0.8170 0.4614 0.4026
C127? C 0.7052(19) 0.4401(10) 0.4336(8)
H164? H 0.7201 0.4581 0.4611
C128? C 0.4970(15) 0.4700(8) 0.4749(10)
C129? C 0.4706(18) 0.4963(11) 0.4353(8)
H165? H 0.4872 0.4824 0.4073
C130? C 0.4200(18) 0.5429(11) 0.4365(10)
H166? H 0.4019 0.5608 0.4094
C131? C 0.3957(15) 0.5632(8) 0.4774(12)
H167? H 0.3611 0.5951 0.4783
C132? C 0.4221(16) 0.5370(10) 0.5171(10)
H168? H 0.4056 0.5509 0.5451
C133? C 0.4728(16) 0.4904(10) 0.5159(8)
H169? H 0.4908 0.4724 0.5430
C134? C 0.2585(18) 0.1830(9) 0.4911(13)
C135? C 0.2479(17) 0.1610(11) 0.4483(11)
H170? H 0.2109 0.1784 0.4259
C136? C 0.291(2) 0.1136(11) 0.4383(10)
H171? H 0.2840 0.0986 0.4091
C137? C 0.3454(17) 0.0882(8) 0.4711(12)
H172? H 0.3751 0.0558 0.4643
C138? C 0.3561(17) 0.1101(11) 0.5139(11)
H173? H 0.3931 0.0927 0.5363
C139? C 0.313(2) 0.1575(11) 0.5239(10)
H174? H 0.3199 0.1725 0.5532
C140? C 0.136(2) 0.2371(16) 0.5496(8)
C141? C 0.057(2) 0.2090(16) 0.5472(7)
H175? H 0.0312 0.1975 0.5189
C142? C 0.0140(18) 0.1975(15) 0.5862(10)
H176? H -0.0405 0.1783 0.5845
C143? C 0.051(2) 0.2143(15) 0.6275(8)
H177? H 0.0220 0.2065 0.6542
C144? C 0.131(2) 0.2425(15) 0.6299(8)
H178? H 0.1563 0.2540 0.6582
C145? C 0.1735(18) 0.2539(15) 0.5909(10)
H179? H 0.2281 0.2732 0.5926
C146? C 0.477(2) 0.3578(12) 0.4565(12)
H180? H 0.4487 0.3687 0.4271
H181? H 0.5071 0.3231 0.4520
C147? C 0.406(2) 0.3480(11) 0.4865(11)
H182? H 0.3681 0.3807 0.4864
H183? H 0.4333 0.3441 0.5172
C148? C 0.344(2) 0.2996(11) 0.4775(11)
H184? H 0.3106 0.3044 0.4482
H185? H 0.3802 0.2666 0.4757
C149? C 0.281(2) 0.2934(15) 0.5131(12)
H186? H 0.2509 0.3281 0.5178
H187? H 0.3138 0.2834 0.5415
loop_
_geom_bond_atom_site_label_1
_geom_bond_atom_site_label_2
_geom_bond_site_symmetry_1
_geom_bond_site_symmetry_2
Au1 S1 1_555 1_555
Au2 S2 1_555 1_555
S1 C1 1_555 1_555
S2 C6 1_555 1_555
P1 Au1 1_555 1_555
P2 Au2 1_555 1_555
O1 C3 1_555 1_555
O2 C3 1_555 1_555
O3 C8 1_555 1_555
O4 C8 1_555 1_555
N1 H1 1_555 1_555
H2 N1 1_555 1_555
H3 N1 1_555 1_555
N2 H4 1_555 1_555
H5 N2 1_555 1_555
H6 N2 1_555 1_555
C1 C2 1_555 1_555
C2 N1 1_555 1_555
H7 C2 1_555 1_555
C3 C2 1_555 1_555
C4 C1 1_555 1_555
H8 C4 1_555 1_555
H9 C4 1_555 1_555
H10 C4 1_555 1_555
C5 C1 1_555 1_555
H11 C5 1_555 1_555
H12 C5 1_555 1_555
H13 C5 1_555 1_555
C6 C7 1_555 1_555
C7 N2 1_555 1_555
H14 C7 1_555 1_555
C8 C7 1_555 1_555
C9 C6 1_555 1_555
H15 C9 1_555 1_555
H16 C9 1_555 1_555
H17 C9 1_555 1_555
C10 C6 1_555 1_555
H18 C10 1_555 1_555
H19 C10 1_555 1_555
H20 C10 1_555 1_555
C11 P1 1_555 1_555
C12 C11 1_555 1_555
H21 C12 1_555 1_555
C13 C12 1_555 1_555
H22 C13 1_555 1_555
C14 C13 1_555 1_555
H23 C14 1_555 1_555
C15 C14 1_555 1_555
H24 C15 1_555 1_555
C16 C11 1_555 1_555
H25 C16 1_555 1_555
C17 P1 1_555 1_555
C18 C17 1_555 1_555
H26 C18 1_555 1_555
C19 C18 1_555 1_555
H27 C19 1_555 1_555
C20 C19 1_555 1_555
H28 C20 1_555 1_555
C21 C20 1_555 1_555
H29 C21 1_555 1_555
C22 C17 1_555 1_555
H30 C22 1_555 1_555
C23 P2 1_555 1_555
C24 C23 1_555 1_555
H31 C24 1_555 1_555
C25 C24 1_555 1_555
H32 C25 1_555 1_555
C26 C25 1_555 1_555
H33 C26 1_555 1_555
C27 C26 1_555 1_555
H34 C27 1_555 1_555
C28 C23 1_555 1_555
H35 C28 1_555 1_555
C29 P2 1_555 1_555
C30 C29 1_555 1_555
H36 C30 1_555 1_555
C31 C30 1_555 1_555
H37 C31 1_555 1_555
C32 C31 1_555 1_555
H38 C32 1_555 1_555
C33 C32 1_555 1_555
H39 C33 1_555 1_555
C34 C29 1_555 1_555
H40 C34 1_555 1_555
C35 P1 1_555 1_555
H41 C35 1_555 1_555
H42 C35 1_555 1_555
C36 C35 1_555 1_555
H43 C36 1_555 1_555
H44 C36 1_555 1_555
C37 C36 1_555 1_555
H45 C37 1_555 1_555
H46 C37 1_555 1_555
C38 P2 1_555 1_555
H47 C38 1_555 1_555
H48 C38 1_555 1_555
Au3 Au2 1_555 1_555
Au4 S4 1_555 1_555
S3 Au3 1_555 1_555
S4 C44 1_555 1_555
P3 Au3 1_555 1_555
P4 Au4 1_555 1_555
O5 C41 1_555 1_555
O6 C41 1_555 1_555
O7 C46 1_555 1_555
O8 C46 1_555 1_555
N3 H49 1_555 1_555
H50 N3 1_555 1_555
H51 N3 1_555 1_555
N4 H52 1_555 1_555
H53 N4 1_555 1_555
H54 N4 1_555 1_555
C39 S3 1_555 1_555
C40 N3 1_555 1_555
H55 C40 1_555 1_555
C41 C40 1_555 1_555
C42 C39 1_555 1_555
H56 C42 1_555 1_555
H57 C42 1_555 1_555
H58 C42 1_555 1_555
C43 C39 1_555 1_555
H59 C43 1_555 1_555
H60 C43 1_555 1_555
H61 C43 1_555 1_555
C44 C45 1_555 1_555
C45 N4 1_555 1_555
H62 C45 1_555 1_555
C46 C45 1_555 1_555
C47 C44 1_555 1_555
H63 C47 1_555 1_555
H64 C47 1_555 1_555
H65 C47 1_555 1_555
C48 C44 1_555 1_555
H66 C48 1_555 1_555
H67 C48 1_555 1_555
H68 C48 1_555 1_555
C49 P3 1_555 1_555
C50 C49 1_555 1_555
H69 C50 1_555 1_555
C51 C50 1_555 1_555
H70 C51 1_555 1_555
C52 C51 1_555 1_555
H71 C52 1_555 1_555
C53 C52 1_555 1_555
H72 C53 1_555 1_555
C54 C49 1_555 1_555
H73 C54 1_555 1_555
C55 P3 1_555 1_555
C56 C55 1_555 1_555
H74 C56 1_555 1_555
C57 C56 1_555 1_555
H75 C57 1_555 1_555
C58 C57 1_555 1_555
H76 C58 1_555 1_555
C59 C58 1_555 1_555
H77 C59 1_555 1_555
C60 C55 1_555 1_555
H78 C60 1_555 1_555
C61 P4 1_555 1_555
C62 C61 1_555 1_555
H79 C62 1_555 1_555
C63 C62 1_555 1_555
H80 C63 1_555 1_555
C64 C63 1_555 1_555
H81 C64 1_555 1_555
C65 C64 1_555 1_555
H82 C65 1_555 1_555
C66 C61 1_555 1_555
H83 C66 1_555 1_555
C67 P4 1_555 1_555
C68 C67 1_555 1_555
H84 C68 1_555 1_555
C69 C68 1_555 1_555
H85 C69 1_555 1_555
C70 C69 1_555 1_555
H86 C70 1_555 1_555
C71 C70 1_555 1_555
H87 C71 1_555 1_555
C72 C67 1_555 1_555
H88 C72 1_555 1_555
C73 P3 1_555 1_555
H89 C73 1_555 1_555
H90 C73 1_555 1_555
C74 C73 1_555 1_555
H91 C74 1_555 1_555
H92 C74 1_555 1_555
C75 C74 1_555 1_555
H93 C75 1_555 1_555
H94 C75 1_555 1_555
C76 P4 1_555 1_555
H95 C76 1_555 1_555
H96 C76 1_555 1_555
O9 C77 1_555 1_555
C77 H97 1_555 1_555
H98 C77 1_555 1_555
C78 C77 1_555 1_555
H99 C78 1_555 1_555
H100 C78 1_555 1_555
H101 C78 1_555 1_555
Au1_2 Au4 1_555 1_555
Au4_2 Au1 1_555 1_555
C15 C16 1_555 1_555
C21 C22 1_555 1_555
C27 C28 1_555 1_555
C33 C34 1_555 1_555
C37 C38 1_555 1_555
C39 C40 1_555 1_555
C53 C54 1_555 1_555
C59 C60 1_555 1_555
C65 C66 1_555 1_555
C71 C72 1_555 1_555
C75 C76 1_555 1_555

#END
