
#######################################################################
#
#                 Cambridge Crystallographic Data Centre
#                                CCDC 
#
#######################################################################
#
# If this CIF has been generated from an entry in the Cambridge 
# Structural Database, then it will include bibliographic, chemical, 
# crystal, experimental, refinement or atomic coordinate data resulting 
# from the CCDC's data processing and validation procedures.
#
#######################################################################

data_MOVPOE
_symmetry_cell_setting           hexagonal
_symmetry_space_group_name_H-M   'P 63'
_symmetry_Int_Tables_number      173
_space_group_name_Hall           'P 6c'
loop_
_symmetry_equiv_pos_site_id
_symmetry_equiv_pos_as_xyz
1 x,y,z
2 -x,-y,1/2+z
3 -y,x-y,z
4 -x+y,-x,z
5 x-y,x,1/2+z
6 y,-x+y,1/2+z
_cell_length_a                   45.058(3)
_cell_length_b                   45.058(3)
_cell_length_c                   12.0740(8)
_cell_angle_alpha                90
_cell_angle_beta                 90
_cell_angle_gamma                120
_cell_volume                     21228.8
loop_
_atom_site_label
_atom_site_type_symbol
_atom_site_fract_x
_atom_site_fract_y
_atom_site_fract_z
Au1 Au 0.39950(2) 0.36567(2) 0.21342(6)
S1 S 0.45057(10) 0.39184(10) 0.3097(4)
P1 P 0.34674(10) 0.33830(10) 0.1392(4)
Cu1 Cu 0.49197(5) 0.40831(5) 0.1696(2)
C1 C 0.4610(4) 0.4353(4) 0.3474(16)
C2 C 0.3375(3) 0.3636(3) 0.0399(8)
C3 C 0.3371(3) 0.3008(2) 0.0574(8)
C4 C 0.3131(4) 0.3256(4) 0.2448(13)
O1 O 0.4739(3) 0.4404(3) 0.0841(11)
N1 N 0.5143(3) 0.4531(3) 0.2537(11)
S2 S 0.46544(12) 0.36053(16) 0.0643(4)
N2 N 0.5357(4) 0.4160(5) 0.0890(14)
C5 C 0.4874(4) 0.4613(4) 0.2633(18)
C6 C 0.4739(5) 0.4408(5) 0.4688(18)
C7 C 0.4278(4) 0.4374(5) 0.3445(16)
C8 C 0.3611(2) 0.3979(3) 0.0200(9)
C9 C 0.3057(2) 0.3483(2) -0.0122(9)
C10 C 0.3612(2) 0.3047(2) -0.0220(9)
C11 C 0.3064(2) 0.2700(3) 0.0653(9)
H1 H 0.2907 0.3168 0.2071
H2 H 0.3120 0.3066 0.2893
C12 C 0.3184(4) 0.3544(3) 0.3227(13)
C13 C 0.4717(5) 0.4596(4) 0.1507(16)
H3 H 0.5215 0.4506 0.3216
H4 H 0.5325 0.4697 0.2155
H5 H 0.4971 0.4850 0.2937
H6 H 0.4950 0.4396 0.4728
H7 H 0.4785 0.4634 0.4944
H8 H 0.4563 0.4230 0.5159
H9 H 0.4191 0.4339 0.2684
H10 H 0.4105 0.4196 0.3924
H11 H 0.4327 0.4600 0.3708
H12 H 0.3828 0.4083 0.0556
C14 C 0.3530(3) 0.4168(2) -0.0518(10)
C15 C 0.2976(3) 0.3672(4) -0.0840(9)
H13 H 0.2896 0.3248 0.0014
H14 H 0.3822 0.3257 -0.0275
C16 C 0.3544(3) 0.2779(3) -0.0935(9)
C17 C 0.2996(2) 0.2432(2) -0.0062(11)
H15 H 0.2899 0.2673 0.1196
H16 H 0.3398 0.3619 0.3649
H17 H 0.3215 0.3742 0.2777
C18 C 0.2906(3) 0.3456(4) 0.4009(13)
O2 O 0.4604(3) 0.4795(3) 0.1338(12)
H18 H 0.3691 0.4403 -0.0654
C19 C 0.3212(4) 0.4015(4) -0.1039(9)
H19 H 0.2759 0.3568 -0.1196
H20 H 0.3709 0.2806 -0.1478
C20 C 0.3236(3) 0.2471(3) -0.0856(10)
H21 H 0.2786 0.2222 -0.0007
P2 P 0.29919(10) 0.38074(11) 0.4950(4)
H22 H 0.2869 0.3255 0.4448
H23 H 0.2693 0.3391 0.3592
H24 H 0.3157 0.4145 -0.1530
H25 H 0.3190 0.2288 -0.1344
Au2 Au 0.31081(2) 0.42894(2) 0.39925(6)
C21 C 0.3326(3) 0.3838(3) 0.5855(9)
C22 C 0.2628(3) 0.3669(3) 0.5850(8)
S3 S 0.31898(10) 0.47458(11) 0.2888(4)
C23 C 0.3258(3) 0.3561(2) 0.6530(10)
C24 C 0.3645(3) 0.4134(3) 0.5888(10)
C25 C 0.2374(3) 0.3327(3) 0.5933(10)
C26 C 0.2623(2) 0.3912(2) 0.6544(10)
Cu2 Cu 0.33250(5) 0.51878(5) 0.4127(2)
C27 C 0.3609(4) 0.4933(4) 0.2229(18)
H26 H 0.3040 0.3359 0.6507
C28 C 0.3510(4) 0.3580(3) 0.7239(10)
C29 C 0.3898(2) 0.4153(3) 0.6597(12)
H27 H 0.3692 0.4323 0.5427
H28 H 0.2377 0.3161 0.5458
C30 C 0.2114(3) 0.3229(3) 0.6710(12)
C31 C 0.2363(3) 0.3814(3) 0.7321(9)
H29 H 0.2797 0.4146 0.6487
S4 S 0.29248(11) 0.48665(13) 0.5433(5)
O3 O 0.3777(3) 0.5163(3) 0.4784(12)
N3 N 0.3687(3) 0.5463(3) 0.3017(13)
N4 N 0.3378(4) 0.5596(4) 0.4986(16)
C32 C 0.3859(4) 0.5264(4) 0.2828(19)
C33 C 0.3557(5) 0.4984(5) 0.1011(18)
C34 C 0.3752(5) 0.4701(5) 0.2202(17)
H30 H 0.3464 0.3391 0.7700
C35 C 0.3830(3) 0.3876(4) 0.7272(10)
H31 H 0.4116 0.4355 0.6620
H32 H 0.1939 0.2995 0.6767
C36 C 0.2108(3) 0.3472(4) 0.7405(9)
H33 H 0.2359 0.3980 0.7796
Au3 Au 0.24650(2) 0.43971(2) 0.46178(7)
C37 C 0.2802(4) 0.5182(5) 0.5805(19)
C38 C 0.3989(5) 0.5229(4) 0.394(2)
H34 H 0.3593 0.5486 0.2379
H35 H 0.3836 0.5675 0.3286
H36 H 0.3598 0.5719 0.5234
H37 H 0.3343 0.5734 0.4516
C39 C 0.3153(5) 0.5516(5) 0.591(2)
H38 H 0.4061 0.5400 0.2333
H39 H 0.3462 0.5137 0.0950
H40 H 0.3778 0.5086 0.0626
H41 H 0.3399 0.4762 0.0675
H42 H 0.3794 0.4653 0.2961
H43 H 0.3589 0.4486 0.1839
H44 H 0.3968 0.4810 0.1790
H45 H 0.4002 0.3889 0.7757
H46 H 0.1930 0.3405 0.7936
P3 P 0.20130(10) 0.39231(11) 0.3895(4)
C40 C 0.2584(6) 0.5047(6) 0.686(2)
C41 C 0.2599(6) 0.5223(6) 0.483(2)
O4 O 0.4265(3) 0.5226(3) 0.3971(12)
H47 H 0.3271 0.5455 0.6492
C42 C 0.3143(6) 0.5815(7) 0.642(3)
C43 C 0.1755(3) 0.4007(3) 0.2969(9)
C44 C 0.2138(3) 0.3667(3) 0.3115(9)
C45 C 0.1704(3) 0.3651(4) 0.4946(15)
H48 H 0.2369 0.4836 0.6692
H49 H 0.2711 0.4998 0.7424
H50 H 0.2532 0.5220 0.7147
H51 H 0.2747 0.5310 0.4174
H52 H 0.2398 0.5001 0.4656
H53 H 0.2524 0.5386 0.5039
O5 O 0.3151(5) 0.6011(6) 0.576(2)
O6 O 0.3118(7) 0.5878(7) 0.739(2)
C46 C 0.1812(3) 0.4337(3) 0.2826(11)
C47 C 0.1507(3) 0.3739(2) 0.2340(11)
C48 C 0.2391(3) 0.3831(2) 0.2316(10)
C49 C 0.1971(3) 0.3312(3) 0.3212(9)
H54 H 0.1500 0.3465 0.4573
H55 H 0.1808 0.3543 0.5399
C50 C 0.1592(4) 0.3847(4) 0.5706(13)
H56 H 0.1981 0.4520 0.3256
C51 C 0.1621(4) 0.4400(3) 0.2055(12)
C52 C 0.1316(3) 0.3802(4) 0.1569(10)
H57 H 0.1468 0.3513 0.2438
H58 H 0.2505 0.4073 0.2249
C53 C 0.2476(3) 0.3640(4) 0.1614(9)
C54 C 0.2056(3) 0.3121(2) 0.2511(11)
H59 H 0.1798 0.3200 0.3758
H60 H 0.1796 0.4026 0.6101
H61 H 0.1499 0.3963 0.5249
C55 C 0.1325(3) 0.3622(3) 0.6551(13)
H62 H 0.1660 0.4626 0.1958
C56 C 0.1373(3) 0.4132(4) 0.1426(9)
H63 H 0.1146 0.3619 0.1139
H64 H 0.2649 0.3752 0.1068
C57 C 0.2309(3) 0.3285(4) 0.1712(10)
H65 H 0.1942 0.2879 0.2578
P4 P 0.12554(10) 0.38933(11) 0.7542(4)
H66 H 0.1403 0.3482 0.6952
H67 H 0.1107 0.3465 0.6171
H68 H 0.1242 0.4175 0.0899
H69 H 0.2367 0.3155 0.1233
Au4 Au 0.11497(2) 0.42786(2) 0.66670(6)
C58 C 0.1625(3) 0.4070(3) 0.8443(9)
C59 C 0.0901(2) 0.3604(3) 0.8436(8)
C60 C 0.1690(3) 0.3852(2) 0.9085(9)
C61 C 0.1850(4) 0.4421(3) 0.8467(11)
C62 C 0.0759(3) 0.3750(2) 0.9116(10)
C63 C 0.0794(3) 0.3258(3) 0.8531(9)
C64 C 0.1442(6) 0.5011(6) 0.5290(17)
H70 H 0.1536 0.3612 0.9068
C65 C 0.1980(3) 0.3986(3) 0.9752(9)
C66 C 0.2140(3) 0.4555(2) 0.9134(12)
H71 H 0.1806 0.4570 0.8028
H72 H 0.0832 0.3987 0.9051
C67 C 0.0511(3) 0.3549(4) 0.9890(9)
C68 C 0.0546(3) 0.3057(2) 0.9305(11)
H73 H 0.0891 0.3158 0.8066
C69 C 0.1402(5) 0.5328(5) 0.510(2)
C70 C 0.1691(5) 0.5130(5) 0.625(2)
C71 C 0.1608(7) 0.4939(6) 0.432(2)
H74 H 0.2024 0.3838 1.0191
C72 C 0.2205(3) 0.4338(3) 0.9777(11)
H75 H 0.2294 0.4795 0.9151
H76 H 0.0414 0.3649 1.0355
C73 C 0.0404(2) 0.3203(3) 0.9985(9)
H77 H 0.0473 0.2820 0.9370
H78 H 0.1265 0.5275 0.4397
C74 C 0.1724(4) 0.5693(4) 0.4889(18)
H79 H 0.1588 0.5178 0.6889
H80 H 0.1745 0.4951 0.6442
H81 H 0.1902 0.5339 0.6037
H82 H 0.1450 0.4861 0.3685
H83 H 0.1819 0.5149 0.4114
H84 H 0.1662 0.4761 0.4518
H85 H 0.1085 0.5455 0.5563
H86 H 0.1338 0.5507 0.6414
H87 H 0.2403 0.4429 1.0232
H88 H 0.0234 0.3066 1.0514
O7 O 0.1857(4) 0.5886(4) 0.5661(14)
O8 O 0.1854(5) 0.5739(4) 0.3987(16)
S2D S 0.10491(20) 0.46544(12) 0.5643(4)
Cu1D Cu 0.08366(7) 0.49197(5) 0.6696(2)
N2D N 0.1197(6) 0.5357(4) 0.5890(14)
O9 O 0.3333 0.6667 0.543(7)
O10 O 0.3738(8) 0.4970(8) 0.731(3)
O11 O 0.4335(5) 0.4971(5) 0.5977(18)
O12 O 0.4755(3) 0.5384(3) 0.2489(12)
O13 O 0.4596(4) 0.4443(4) 0.8620(14)
O14 O 0.4333(4) 0.4853(4) 0.9477(15)
O15 O 0.5083(10) 0.3956(11) 0.637(4)
O16 O 0.5574(5) 0.4478(5) 0.467(2)
loop_
_geom_bond_atom_site_label_1
_geom_bond_atom_site_label_2
_geom_bond_site_symmetry_1
_geom_bond_site_symmetry_2
Au1 S1 1_555 1_555
S1 Cu1 1_555 1_555
P1 Au1 1_555 1_555
Cu1 O1 1_555 1_555
C1 S1 1_555 1_555
C2 P1 1_555 1_555
C3 P1 1_555 1_555
C4 P1 1_555 1_555
O1 C13 1_555 1_555
N1 Cu1 1_555 1_555
S2 Cu1 1_555 1_555
N2 Cu1 1_555 1_555
C5 C1 1_555 1_555
C6 C1 1_555 1_555
C7 C1 1_555 1_555
C8 C2 1_555 1_555
C9 C2 1_555 1_555
C10 C3 1_555 1_555
C11 C3 1_555 1_555
H1 C4 1_555 1_555
H2 C4 1_555 1_555
C12 C4 1_555 1_555
C13 C5 1_555 1_555
H3 N1 1_555 1_555
H4 N1 1_555 1_555
H5 C5 1_555 1_555
H6 C6 1_555 1_555
H7 C6 1_555 1_555
H8 C6 1_555 1_555
H9 C7 1_555 1_555
H10 C7 1_555 1_555
H11 C7 1_555 1_555
H12 C8 1_555 1_555
C14 C8 1_555 1_555
C15 C9 1_555 1_555
H13 C9 1_555 1_555
H14 C10 1_555 1_555
C16 C10 1_555 1_555
C17 C11 1_555 1_555
H15 C11 1_555 1_555
H16 C12 1_555 1_555
H17 C12 1_555 1_555
C18 C12 1_555 1_555
O2 C13 1_555 1_555
H18 C14 1_555 1_555
C19 C14 1_555 1_555
H19 C15 1_555 1_555
H20 C16 1_555 1_555
C20 C16 1_555 1_555
H21 C17 1_555 1_555
P2 C18 1_555 1_555
H22 C18 1_555 1_555
H23 C18 1_555 1_555
H24 C19 1_555 1_555
H25 C20 1_555 1_555
Au2 P2 1_555 1_555
C21 P2 1_555 1_555
C22 P2 1_555 1_555
S3 Au2 1_555 1_555
C23 C21 1_555 1_555
C24 C21 1_555 1_555
C25 C22 1_555 1_555
C26 C22 1_555 1_555
Cu2 S3 1_555 1_555
C27 S3 1_555 1_555
H26 C23 1_555 1_555
C28 C23 1_555 1_555
C29 C24 1_555 1_555
H27 C24 1_555 1_555
H28 C25 1_555 1_555
C30 C25 1_555 1_555
C31 C26 1_555 1_555
H29 C26 1_555 1_555
S4 Cu2 1_555 1_555
O3 Cu2 1_555 1_555
N3 Cu2 1_555 1_555
N4 Cu2 1_555 1_555
C32 C27 1_555 1_555
C33 C27 1_555 1_555
C34 C27 1_555 1_555
H30 C28 1_555 1_555
C35 C28 1_555 1_555
H31 C29 1_555 1_555
H32 C30 1_555 1_555
C36 C30 1_555 1_555
H33 C31 1_555 1_555
Au3 S4 1_555 1_555
C37 S4 1_555 1_555
C38 O3 1_555 1_555
H34 N3 1_555 1_555
H35 N3 1_555 1_555
H36 N4 1_555 1_555
H37 N4 1_555 1_555
C39 N4 1_555 1_555
H38 C32 1_555 1_555
H39 C33 1_555 1_555
H40 C33 1_555 1_555
H41 C33 1_555 1_555
H42 C34 1_555 1_555
H43 C34 1_555 1_555
H44 C34 1_555 1_555
H45 C35 1_555 1_555
H46 C36 1_555 1_555
P3 Au3 1_555 1_555
C40 C37 1_555 1_555
C41 C37 1_555 1_555
O4 C38 1_555 1_555
H47 C39 1_555 1_555
C42 C39 1_555 1_555
C43 P3 1_555 1_555
C44 P3 1_555 1_555
C45 P3 1_555 1_555
H48 C40 1_555 1_555
H49 C40 1_555 1_555
H50 C40 1_555 1_555
H51 C41 1_555 1_555
H52 C41 1_555 1_555
H53 C41 1_555 1_555
O5 C42 1_555 1_555
O6 C42 1_555 1_555
C46 C43 1_555 1_555
C47 C43 1_555 1_555
C48 C44 1_555 1_555
C49 C44 1_555 1_555
H54 C45 1_555 1_555
H55 C45 1_555 1_555
C50 C45 1_555 1_555
H56 C46 1_555 1_555
C51 C46 1_555 1_555
C52 C47 1_555 1_555
H57 C47 1_555 1_555
H58 C48 1_555 1_555
C53 C48 1_555 1_555
C54 C49 1_555 1_555
H59 C49 1_555 1_555
H60 C50 1_555 1_555
H61 C50 1_555 1_555
C55 C50 1_555 1_555
H62 C51 1_555 1_555
C56 C51 1_555 1_555
H63 C52 1_555 1_555
H64 C53 1_555 1_555
C57 C53 1_555 1_555
H65 C54 1_555 1_555
P4 C55 1_555 1_555
H66 C55 1_555 1_555
H67 C55 1_555 1_555
H68 C56 1_555 1_555
H69 C57 1_555 1_555
Au4 P4 1_555 1_555
C58 P4 1_555 1_555
C59 P4 1_555 1_555
C60 C58 1_555 1_555
C61 C58 1_555 1_555
C62 C59 1_555 1_555
C63 C59 1_555 1_555
C64 C69 1_555 1_555
H70 C60 1_555 1_555
C65 C60 1_555 1_555
C66 C61 1_555 1_555
H71 C61 1_555 1_555
H72 C62 1_555 1_555
C67 C62 1_555 1_555
C68 C63 1_555 1_555
H73 C63 1_555 1_555
C69 H78 1_555 1_555
C70 C64 1_555 1_555
C71 C64 1_555 1_555
H74 C65 1_555 1_555
C72 C65 1_555 1_555
H75 C66 1_555 1_555
H76 C67 1_555 1_555
C73 C67 1_555 1_555
H77 C68 1_555 1_555
C74 C69 1_555 1_555
H79 C70 1_555 1_555
H80 C70 1_555 1_555
H81 C70 1_555 1_555
H82 C71 1_555 1_555
H83 C71 1_555 1_555
H84 C71 1_555 1_555
H85 N2D 1_555 1_555
H86 N2D 1_555 1_555
H87 C72 1_555 1_555
H88 C73 1_555 1_555
O7 C74 1_555 1_555
O8 C74 1_555 1_555
S2D Au4 1_555 1_555
Cu1D S2D 1_555 1_555
N2D C69 1_555 1_555
N1 C5 1_555 1_555
C15 C19 1_555 1_555
C17 C20 1_555 1_555
C29 C35 1_555 1_555
C31 C36 1_555 1_555
N3 C32 1_555 1_555
C32 C38 1_555 1_555
C37 C39 1_555 1_555
C52 C56 1_555 1_555
C54 C57 1_555 1_555
C64 S2D 1_555 1_555
C66 C72 1_555 1_555
C68 C73 1_555 1_555
Cu1D N2D 1_555 1_555

#END
