
#######################################################################
#
#                 Cambridge Crystallographic Data Centre
#                                CCDC 
#
#######################################################################
#
# If this CIF has been generated from an entry in the Cambridge 
# Structural Database, then it will include bibliographic, chemical, 
# crystal, experimental, refinement or atomic coordinate data resulting 
# from the CCDC's data processing and validation procedures.
#
#######################################################################

data_MOVPUI
_symmetry_cell_setting           monoclinic
_symmetry_space_group_name_H-M   'P 21/c'
_symmetry_Int_Tables_number      14
_space_group_name_Hall           '-P 2ybc'
loop_
_symmetry_equiv_pos_site_id
_symmetry_equiv_pos_as_xyz
1 x,y,z
2 x,1/2-y,1/2+z
3 -x,-y,-z
4 -x,1/2+y,1/2-z
_cell_length_a                   8.805(3)
_cell_length_b                   15.585(7)
_cell_length_c                   9.5214(7)
_cell_angle_alpha                90
_cell_angle_beta                 98.727(2)
_cell_angle_gamma                90
_cell_volume                     1291.46
loop_
_atom_site_label
_atom_site_type_symbol
_atom_site_fract_x
_atom_site_fract_y
_atom_site_fract_z
Co1 Co 0.0000 0.0000 0.0000
S1 S 0.4341(2) 0.0151(1) -0.2498(2)
O1 O -0.5072(3) 0.2188(3) -0.0093(3)
N1 N -0.1013(4) 0.1194(2) -0.1068(3)
N2 N -0.8854(4) 0.4294(2) -0.3114(3)
N3 N -0.5512(4) 0.2933(2) -0.2169(4)
N4 N 0.1913(4) 0.0151(2) -0.0966(4)
C1 C -0.2422(4) 0.1443(3) -0.0940(4)
C2 C -0.3106(5) 0.2179(3) -0.1573(4)
C3 C -0.2303(5) 0.2656(3) -0.2428(6)
C4 C -0.0850(6) 0.2379(4) -0.2614(6)
C5 C -0.0243(5) 0.1662(3) -0.1903(6)
C6 C -0.9317(6) 0.4396(4) -0.1846(5)
C7 C -0.8592(7) 0.4022(4) -0.0629(5)
C8 C -0.7313(6) 0.3510(4) -0.0680(5)
C9 C -0.6832(5) 0.3389(3) -0.1980(5)
C10 C -0.7629(5) 0.3799(3) -0.3161(4)
C11 C -0.4643(5) 0.2426(3) -0.1215(4)
C12 C 0.2934(5) 0.0157(2) -0.1585(5)
H1 H -0.2999 0.1100 -0.0386
H2 H -0.2734 0.3163 -0.2880
H3 H -0.0281 0.2684 -0.3226
H4 H 0.0769 0.1492 -0.2009
H5 H -1.0193 0.4743 -0.1791
H6 H -0.8961 0.4112 0.0246
H7 H -0.6784 0.3251 0.0157
H8 H -0.7282 0.3722 -0.4050
H9 H -0.5187 0.2986 -0.3073
N2A N 0.1146(4) 0.0706(2) 0.1886(3)
Co1A Co -1.0000 0.5000 -0.5000
N2C N -0.1146(4) -0.0706(2) -0.1886(3)
N1B N 0.1013(4) -0.1194(2) 0.1068(3)
N4B N -0.1913(4) -0.0151(2) 0.0966(4)
C12B C -0.2934(5) -0.0157(2) 0.1585(5)
S1B S -0.4341(2) -0.0151(1) 0.2498(2)
C1B C 0.2422(4) -0.1443(3) 0.0940(4)
C5B C 0.0243(5) -0.1662(3) 0.1903(6)
C2B C 0.3106(5) -0.2179(3) 0.1573(4)
H1B H 0.2999 -0.1100 0.0386
C4B C 0.0850(6) -0.2379(4) 0.2614(6)
H4B H -0.0769 -0.1492 0.2009
C3B C 0.2303(5) -0.2656(3) 0.2428(6)
C11B C 0.4643(5) -0.2426(3) 0.1215(4)
H3B H 0.0281 -0.2684 0.3226
H2B H 0.2734 -0.3163 0.2880
O1B O 0.5072(3) -0.2188(3) 0.0093(3)
N3B N 0.5512(4) -0.2933(2) 0.2169(4)
C9B C 0.6832(5) -0.3389(3) 0.1980(5)
H9B H 0.5187 -0.2986 0.3073
C8B C 0.7313(6) -0.3510(4) 0.0680(5)
C10B C 0.7629(5) -0.3799(3) 0.3161(4)
C7B C 0.8592(7) -0.4022(4) 0.0629(5)
H7B H 0.6784 -0.3251 -0.0157
N2B N 0.8854(4) -0.4294(2) 0.3114(3)
H8B H 0.7282 -0.3722 0.4050
C6B C 0.9317(6) -0.4396(4) 0.1846(5)
H6B H 0.8961 -0.4112 -0.0246
Co1A_2 Co 1.0000 -0.5000 0.5000
H5B H 1.0193 -0.4743 0.1791
loop_
_geom_bond_atom_site_label_1
_geom_bond_atom_site_label_2
_geom_bond_site_symmetry_1
_geom_bond_site_symmetry_2
Co1 N1 1_555 1_555
S1 C12 1_555 1_555
O1 C11 1_555 1_555
N1 C1 1_555 1_555
N2 C6 1_555 1_555
N3 C9 1_555 1_555
N4 Co1 1_555 1_555
C1 C2 1_555 1_555
C2 C3 1_555 1_555
C3 C4 1_555 1_555
C4 C5 1_555 1_555
C5 N1 1_555 1_555
C6 C7 1_555 1_555
C7 C8 1_555 1_555
C8 C9 1_555 1_555
C9 C10 1_555 1_555
C10 N2 1_555 1_555
C11 N3 1_555 1_555
C12 N4 1_555 1_555
H1 C1 1_555 1_555
H2 C3 1_555 1_555
H3 C4 1_555 1_555
H4 C5 1_555 1_555
H5 C6 1_555 1_555
H6 C7 1_555 1_555
H7 C8 1_555 1_555
H8 C10 1_555 1_555
H9 N3 1_555 1_555
N2A Co1 1_555 1_555
Co1A N2 1_555 1_555
N2C Co1 1_555 1_555
N1B Co1 1_555 1_555
N4B Co1 1_555 1_555
C12B N4B 1_555 1_555
S1B C12B 1_555 1_555
C1B N1B 1_555 1_555
C5B N1B 1_555 1_555
C2B C1B 1_555 1_555
H1B C1B 1_555 1_555
C4B C5B 1_555 1_555
H4B C5B 1_555 1_555
C3B C2B 1_555 1_555
C11B C2B 1_555 1_555
H3B C4B 1_555 1_555
H2B C3B 1_555 1_555
O1B C11B 1_555 1_555
N3B C11B 1_555 1_555
C9B N3B 1_555 1_555
H9B N3B 1_555 1_555
C8B C9B 1_555 1_555
C10B C9B 1_555 1_555
C7B C8B 1_555 1_555
H7B C8B 1_555 1_555
N2B C10B 1_555 1_555
H8B C10B 1_555 1_555
C6B C7B 1_555 1_555
H6B C7B 1_555 1_555
Co1A_2 N2B 1_555 1_555
H5B C6B 1_555 1_555
C2 C11 1_555 1_555
C4B C3B 1_555 1_555
N2B C6B 1_555 1_555

#END
