
#######################################################################
#
#                 Cambridge Crystallographic Data Centre
#                                CCDC 
#
#######################################################################
#
# If this CIF has been generated from an entry in the Cambridge 
# Structural Database, then it will include bibliographic, chemical, 
# crystal, experimental, refinement or atomic coordinate data resulting 
# from the CCDC's data processing and validation procedures.
#
#######################################################################

data_MOVPIW
_symmetry_cell_setting           monoclinic
_symmetry_space_group_name_H-M   'P 21/n'
_symmetry_Int_Tables_number      14
_space_group_name_Hall           '-P 2yn'
loop_
_symmetry_equiv_pos_site_id
_symmetry_equiv_pos_as_xyz
1 x,y,z
2 1/2+x,1/2-y,1/2+z
3 -x,-y,-z
4 1/2-x,1/2+y,1/2-z
_cell_length_a                   10.4196(8)
_cell_length_b                   14.6675(9)
_cell_length_c                   14.253(1)
_cell_angle_alpha                90
_cell_angle_beta                 97.5061(9)
_cell_angle_gamma                90
_cell_volume                     2159.61
loop_
_atom_site_label
_atom_site_type_symbol
_atom_site_fract_x
_atom_site_fract_y
_atom_site_fract_z
Co1 Co 0.0000 0.0000 0.0000
S1 S -0.3475(3) 0.2138(2) -0.0649(3)
O1 O -0.3736(5) -0.4035(3) 0.0304(3)
N1 N -0.1258(5) -0.1134(3) 0.0237(3)
N2 N -0.5356(5) -0.4825(3) 0.3440(3)
N3 N -0.4101(5) -0.3368(3) 0.1691(3)
N4 N -0.1548(5) 0.0886(3) -0.0053(3)
C1 C -0.1093(6) -0.1970(4) -0.0096(4)
C2 C -0.1833(7) -0.2704(4) 0.0093(5)
C3 C -0.2804(6) -0.2579(4) 0.0672(4)
C4 C -0.2973(6) -0.1718(4) 0.1011(4)
C5 C -0.2202(6) -0.1020(4) 0.0786(5)
C6 C -0.6129(6) -0.5383(5) 0.2878(4)
C7 C -0.6283(7) -0.5327(5) 0.1906(5)
C8 C -0.5624(6) -0.4654(5) 0.1477(4)
C9 C -0.4831(5) -0.4077(4) 0.2038(4)
C10 C -0.4713(5) -0.4179(4) 0.3015(4)
C11 C -0.3587(6) -0.3395(4) 0.0866(4)
C12 C -0.2356(6) 0.1411(4) -0.0285(5)
H1 H -0.0429 -0.2061 -0.0484
H2 H -0.1690 -0.3287 -0.0165
H3 H -0.3627 -0.1608 0.1403
H4 H -0.2338 -0.0429 0.1027
H5 H -0.6595 -0.5840 0.3164
H6 H -0.6833 -0.5743 0.1533
H7 H -0.5722 -0.4596 0.0807
H8 H -0.4156 -0.3777 0.3400
H9 H -0.3960 -0.2833 0.2066
N2A N -0.0356(5) -0.0175(3) -0.1560(3)
Co1A Co -0.5000 -0.5000 0.5000
N2C N 0.0356(5) 0.0175(3) 0.1560(3)
N1B N 0.1258(5) 0.1134(3) -0.0237(3)
N4B N 0.1548(5) -0.0886(3) 0.0053(3)
C12B C 0.2356(6) -0.1411(4) 0.0285(5)
S1B S 0.3475(3) -0.2138(2) 0.0649(3)
C1B C 0.1093(6) 0.1970(4) 0.0096(4)
C5B C 0.2202(6) 0.1020(4) -0.0786(5)
C2B C 0.1833(7) 0.2704(4) -0.0093(5)
H1B H 0.0429 0.2061 0.0484
C4B C 0.2973(6) 0.1718(4) -0.1011(4)
H4B H 0.2338 0.0429 -0.1027
C3B C 0.2804(6) 0.2579(4) -0.0672(4)
H2B H 0.1690 0.3287 0.0165
H3B H 0.3627 0.1608 -0.1403
C11B C 0.3587(6) 0.3395(4) -0.0866(4)
O1B O 0.3736(5) 0.4035(3) -0.0304(3)
N3B N 0.4101(5) 0.3368(3) -0.1691(3)
C9B C 0.4831(5) 0.4077(4) -0.2038(4)
H9B H 0.3960 0.2833 -0.2066
C8B C 0.5624(6) 0.4654(5) -0.1477(4)
C10B C 0.4713(5) 0.4179(4) -0.3015(4)
C7B C 0.6283(7) 0.5327(5) -0.1906(5)
H7B H 0.5722 0.4596 -0.0807
N2B N 0.5356(5) 0.4825(3) -0.3440(3)
H8B H 0.4156 0.3777 -0.3400
C6B C 0.6129(6) 0.5383(5) -0.2878(4)
H6B H 0.6833 0.5743 -0.1533
Co1A_2 Co 0.5000 0.5000 -0.5000
H5B H 0.6595 0.5840 -0.3164
O2 O -0.3901(7) -0.2029(4) 0.3258(4)
C13 C -0.189(1) -0.129(1) 0.3501(8)
C14 C -0.3216(10) -0.1463(5) 0.3704(6)
C15 C -0.366(1) -0.0909(7) 0.4435(8)
H10 H -0.1396 -0.1837 0.3601
H11 H -0.1911 -0.1104 0.2861
H12 H -0.1505 -0.0829 0.3909
H13 H -0.2990 -0.0508 0.4690
H14 H -0.4394 -0.0563 0.4173
H15 H -0.3897 -0.1292 0.4923
O3 O -0.1260 -0.4299 0.2532
C16 C 0.0681 -0.3230 0.2455
C17 C -0.0216 -0.4032 0.2877
C18 C 0.0411 -0.4493 0.3720
loop_
_geom_bond_atom_site_label_1
_geom_bond_atom_site_label_2
_geom_bond_site_symmetry_1
_geom_bond_site_symmetry_2
Co1 N1 1_555 1_555
S1 C12 1_555 1_555
O1 C11 1_555 1_555
O2 C14 1_555 1_555
O3 C17 1_555 1_555
N1 C1 1_555 1_555
N2 C6 1_555 1_555
N3 C9 1_555 1_555
N4 Co1 1_555 1_555
C1 C2 1_555 1_555
C2 C3 1_555 1_555
C3 C4 1_555 1_555
C4 C5 1_555 1_555
C5 N1 1_555 1_555
C6 C7 1_555 1_555
C7 C8 1_555 1_555
C8 C9 1_555 1_555
C9 C10 1_555 1_555
C10 N2 1_555 1_555
C11 N3 1_555 1_555
C12 N4 1_555 1_555
C13 C14 1_555 1_555
C14 C15 1_555 1_555
C15 H13 1_555 1_555
C16 C17 1_555 1_555
C17 C18 1_555 1_555
H1 C1 1_555 1_555
H2 C2 1_555 1_555
H3 C4 1_555 1_555
H4 C5 1_555 1_555
H5 C6 1_555 1_555
H6 C7 1_555 1_555
H7 C8 1_555 1_555
H8 C10 1_555 1_555
H9 N3 1_555 1_555
H10 C13 1_555 1_555
H11 C13 1_555 1_555
H12 C13 1_555 1_555
H14 C15 1_555 1_555
H15 C15 1_555 1_555
N2A Co1 1_555 1_555
Co1A N2 1_555 1_555
N2C Co1 1_555 1_555
N1B Co1 1_555 1_555
N4B Co1 1_555 1_555
C12B N4B 1_555 1_555
S1B C12B 1_555 1_555
C1B N1B 1_555 1_555
C5B N1B 1_555 1_555
C2B C1B 1_555 1_555
H1B C1B 1_555 1_555
C4B C5B 1_555 1_555
H4B C5B 1_555 1_555
C3B C2B 1_555 1_555
H2B C2B 1_555 1_555
H3B C4B 1_555 1_555
C11B C3B 1_555 1_555
O1B C11B 1_555 1_555
N3B C11B 1_555 1_555
C9B N3B 1_555 1_555
H9B N3B 1_555 1_555
C8B C9B 1_555 1_555
C10B C9B 1_555 1_555
C7B C8B 1_555 1_555
H7B C8B 1_555 1_555
N2B C10B 1_555 1_555
H8B C10B 1_555 1_555
C6B C7B 1_555 1_555
H6B C7B 1_555 1_555
Co1A_2 N2B 1_555 1_555
H5B C6B 1_555 1_555
C3 C11 1_555 1_555
C4B C3B 1_555 1_555
N2B C6B 1_555 1_555

#END
