
#######################################################################
#
#                 Cambridge Crystallographic Data Centre
#                                CCDC 
#
#######################################################################
#
# If this CIF has been generated from an entry in the Cambridge 
# Structural Database, then it will include bibliographic, chemical, 
# crystal, experimental, refinement or atomic coordinate data resulting 
# from the CCDC's data processing and validation procedures.
#
#######################################################################

data_MOVQIZ
_symmetry_cell_setting           triclinic
_symmetry_space_group_name_H-M   'P 1'
_symmetry_Int_Tables_number      1
_space_group_name_Hall           'P 1'
loop_
_symmetry_equiv_pos_site_id
_symmetry_equiv_pos_as_xyz
1 x,y,z
_cell_length_a                   8.153(3)
_cell_length_b                   15.778(6)
_cell_length_c                   22.334(9)
_cell_angle_alpha                74.413(7)
_cell_angle_beta                 81.760(7)
_cell_angle_gamma                78.438(7)
_cell_volume                     2698.98
loop_
_atom_site_label
_atom_site_type_symbol
_atom_site_fract_x
_atom_site_fract_y
_atom_site_fract_z
Au1 Au 0.25818(15) 1.04587(8) 0.80324(7)
P1 P 0.0912(10) 1.1640(6) 0.8321(5)
C1 C 0.223(3) 1.231(2) 0.8516(16)
C2 C -0.022(3) 1.2370(13) 0.7704(10)
C3 C -0.065(4) 1.138(2) 0.8976(15)
C4 C 0.189(3) 1.263(2) 0.9049(15)
C5 C 0.366(3) 1.247(2) 0.8113(14)
C6 C -0.073(3) 1.3272(14) 0.7682(13)
C7 C -0.069(3) 1.2013(14) 0.7262(12)
C8 C -0.194(4) 1.080(2) 0.8862(15)
H1 H -0.0068 1.1049 0.9351
H2 H -0.1293 1.1949 0.9059
H3 H 0.0911 1.2520 0.9325
C9 C 0.298(3) 1.312(2) 0.9180(14)
C10 C 0.475(3) 1.296(2) 0.8244(15)
H4 H 0.3895 1.2253 0.7748
H5 H -0.0405 1.3516 0.7983
C11 C -0.171(3) 1.3817(13) 0.7218(15)
C12 C -0.167(4) 1.256(2) 0.6799(12)
H6 H -0.0348 1.1396 0.7277
C13 C -0.333(4) 1.073(2) 0.9400(16)
H7 H -0.2428 1.1096 0.8462
H8 H -0.1332 1.0202 0.8840
H9 H 0.2745 1.3339 0.9545
C14 C 0.441(3) 1.328(2) 0.8778(16)
H10 H 0.5729 1.3072 0.7969
H11 H -0.2053 1.4434 0.7203
C15 C -0.218(3) 1.346(2) 0.6777(13)
H12 H -0.1996 1.2314 0.6497
C16 C -0.439(4) 1.008(2) 0.9360(14)
H13 H -0.2833 1.0527 0.9804
H14 H -0.4045 1.1321 0.9382
H15 H 0.5154 1.3615 0.8867
H16 H -0.2849 1.3833 0.6460
C17 C -0.586(4) 1.000(2) 0.9857(17)
H17 H -0.3675 0.9487 0.9395
H18 H -0.4824 1.0269 0.8944
P2 P -0.6997(13) 0.9097(7) 0.9947(5)
H19 H -0.6673 1.0567 0.9767
H20 H -0.5442 0.9942 1.0263
C18 C -0.862(3) 0.9227(18) 1.0573(10)
C19 C -0.550(3) 0.8077(16) 1.0250(12)
Au2 Au -0.80782(16) 0.89364(9) 0.91124(7)
C20 C -0.834(3) 0.954(2) 1.1069(13)
C21 C -1.017(3) 0.8988(18) 1.0559(12)
C22 C -0.507(3) 0.744(2) 0.9900(10)
C23 C -0.489(4) 0.7908(19) 1.0828(12)
S1 S -0.9335(13) 0.8650(7) 0.8344(6)
H21 H -0.7286 0.9701 1.1078
C24 C -0.960(4) 0.961(2) 1.1551(12)
C25 C -1.143(3) 0.906(2) 1.1042(16)
H22 H -1.0359 0.8776 1.0220
H23 H -0.5485 0.7559 0.9505
C26 C -0.402(4) 0.6643(17) 1.0127(14)
C27 C -0.384(4) 0.711(2) 1.1055(11)
H24 H -0.5188 0.8340 1.1067
S2 S -0.5484(14) 0.9287(7) 0.7748(5)
Cu1 Cu -0.6937(7) 0.8203(3) 0.7716(3)
C28 C -1.006(5) 0.755(3) 0.866(2)
H25 H -0.9407 0.9822 1.1891
C29 C -1.114(4) 0.937(2) 1.1538(14)
H26 H -1.2480 0.8897 1.1033
H27 H -0.3720 0.6211 0.9887
C30 C -0.341(3) 0.6475(17) 1.0705(15)
H28 H -0.3422 0.6992 1.1450
C31 C -0.482(6) 0.965(3) 0.685(2)
N1 N -0.818(5) 0.721(2) 0.773(2)
O1 O -0.600(4) 0.6997(18) 0.8540(13)
N2 N -0.546(5) 0.815(2) 0.6912(18)
C32 C -0.870(6) 0.687(3) 0.841(3)
C33 C -1.182(6) 0.754(3) 0.848(3)
C34 C -1.036(6) 0.732(3) 0.937(2)
H29 H -1.2004 0.9420 1.1868
H30 H -0.2689 0.5927 1.0860
C35 C -0.639(7) 1.014(3) 0.657(2)
C36 C -0.419(6) 0.867(2) 0.680(2)
C37 C -0.324(7) 1.011(3) 0.686(2)
H31 H -0.7497 0.6770 0.7570
H32 H -0.9092 0.7417 0.7502
C38 C -0.723(6) 0.660(3) 0.874(3)
H33 H -0.6112 0.8342 0.6588
H34 H -0.4977 0.7574 0.6929
H35 H -0.9205 0.6329 0.8458
H36 H -1.2119 0.6946 0.8665
H37 H -1.2652 0.7986 0.8645
H38 H -1.1801 0.7680 0.8028
H39 H -1.0722 0.6741 0.9519
H40 H -1.1235 0.7781 0.9500
H41 H -0.9316 0.7302 0.9548
H42 H -0.7317 0.9820 0.6763
H43 H -0.6639 1.0742 0.6637
H44 H -0.6235 1.0178 0.6120
C39 C -0.352(8) 0.888(2) 0.602(2)
H45 H -0.3238 0.8373 0.7059
H46 H -0.2355 0.9656 0.7074
H47 H -0.3589 1.0579 0.7087
H48 H -0.2806 1.0366 0.6433
O2 O -0.717(4) 0.5948(19) 0.9248(17)
O3 O -0.459(5) 0.885(2) 0.5662(16)
O4 O -0.207(6) 0.902(3) 0.5891(18)
Au1_2 Au -0.74182(15) 1.04587(8) 0.80324(7)
P1_2 P -0.9088(10) 1.1640(6) 0.8321(5)
Au3 Au 0.67708(15) 0.58104(8) 0.32026(7)
Au4 Au 0.74751(14) 0.49529(8) 0.45186(7)
Cu2 Cu 0.6312(6) 0.7322(3) 0.4269(2)
S3 S 0.4838(12) 0.6745(6) 0.3712(5)
S4 S 0.8696(13) 0.6225(7) 0.4322(5)
P3 P -0.1493(12) 0.4896(6) 0.2659(5)
P4 P 0.6414(10) 0.3672(6) 0.4810(5)
N3 N 0.495(6) 0.845(2) 0.3951(18)
H49 H 0.4408 0.8653 0.4283
H50 H 0.5652 0.8836 0.3744
N4 N 0.748(4) 0.782(2) 0.4824(15)
H51 H 0.8370 0.8063 0.4609
H52 H 0.6749 0.8227 0.4992
O5 O 0.412(5) 0.986(2) 0.290(2)
O6 O 0.154(4) 0.960(2) 0.2983(18)
O7 O 0.532(3) 0.6699(18) 0.5314(12)
O8 O 0.644(3) 0.622(2) 0.6221(11)
C40 C 0.415(6) 0.780(3) 0.311(2)
C41 C 0.367(6) 0.850(2) 0.3528(19)
H53 H 0.2674 0.8309 0.3814
C42 C 0.299(6) 0.941(3) 0.311(3)
C43 C 0.560(6) 0.808(3) 0.265(2)
H54 H 0.6494 0.8153 0.2879
H55 H 0.6044 0.7627 0.2421
H56 H 0.5222 0.8652 0.2361
C44 C 0.279(6) 0.768(4) 0.282(3)
H57 H 0.1877 0.7501 0.3133
H58 H 0.2366 0.8247 0.2526
H59 H 0.3188 0.7222 0.2585
C45 C 0.937(5) 0.630(3) 0.506(2)
C46 C 0.804(5) 0.695(3) 0.5335(19)
H60 H 0.8558 0.7126 0.5654
C47 C 0.653(5) 0.658(3) 0.5646(19)
C48 C 0.961(5) 0.543(3) 0.5506(19)
H61 H 0.8530 0.5216 0.5624
H62 H 1.0413 0.5007 0.5313
H63 H 1.0042 0.5482 0.5880
C49 C 1.104(6) 0.657(4) 0.491(3)
H64 H 1.0953 0.7155 0.4616
H65 H 1.1452 0.6603 0.5297
H66 H 1.1823 0.6128 0.4730
C50 C -0.281(4) 0.436(2) 0.240(2)
C51 C -0.237(4) 0.346(2) 0.241(2)
H67 H -0.1366 0.3125 0.2581
C52 C -0.339(5) 0.3053(17) 0.217(2)
H68 H -0.3091 0.2437 0.2177
C53 C -0.486(4) 0.355(2) 0.192(2)
H69 H -0.5560 0.3266 0.1755
C54 C -0.530(4) 0.445(2) 0.191(2)
H70 H -0.6303 0.4783 0.1738
C55 C -0.428(5) 0.4855(17) 0.215(2)
H71 H -0.4578 0.5471 0.2143
C56 C -0.031(3) 0.5528(18) 0.2000(10)
C57 C 0.024(3) 0.5209(19) 0.1471(12)
H72 H -0.0016 0.4657 0.1449
C58 C 0.116(3) 0.570(3) 0.0973(10)
H73 H 0.1541 0.5480 0.0611
C59 C 0.154(3) 0.651(3) 0.1004(13)
H74 H 0.2168 0.6840 0.0664
C60 C 0.098(4) 0.683(2) 0.1534(16)
H75 H 0.1239 0.7377 0.1555
C61 C 0.006(3) 0.634(2) 0.2032(12)
H76 H -0.0318 0.6554 0.2394
C62 C 0.801(3) 0.2683(14) 0.5038(14)
C63 C 0.954(3) 0.2844(15) 0.5151(14)
H77 H 0.9694 0.3439 0.5107
C64 C 1.083(3) 0.214(2) 0.5328(15)
H78 H 1.1877 0.2246 0.5405
C65 C 1.060(3) 0.1265(17) 0.5392(15)
H79 H 1.1487 0.0781 0.5512
C66 C 0.907(4) 0.1104(13) 0.5279(15)
H80 H 0.8914 0.0509 0.5323
C67 C 0.778(3) 0.1813(16) 0.5102(16)
H81 H 0.6731 0.1702 0.5025
C68 C 0.495(3) 0.3684(15) 0.5491(9)
C69 C 0.450(3) 0.4470(12) 0.5688(12)
H82 H 0.4906 0.4995 0.5447
C70 C 0.347(3) 0.4489(16) 0.6237(13)
H83 H 0.3160 0.5026 0.6371
C71 C 0.288(3) 0.372(2) 0.6589(10)
H84 H 0.2168 0.3733 0.6965
C72 C 0.332(3) 0.2934(16) 0.6393(11)
H85 H 0.2922 0.2409 0.6633
C73 C 0.436(3) 0.2915(12) 0.5843(12)
H86 H 0.4667 0.2378 0.5709
C74 C 0.527(4) 0.339(2) 0.4271(18)
H87 H 0.6084 0.3275 0.3916
H88 H 0.4866 0.2829 0.4486
C75 C 0.377(4) 0.4069(18) 0.4001(19)
H89 H 0.3056 0.4274 0.4349
H90 H 0.4203 0.4594 0.3719
C76 C 0.270(4) 0.377(2) 0.3657(14)
H91 H 0.2173 0.3282 0.3947
H92 H 0.3424 0.3513 0.3329
C77 C 0.137(4) 0.4465(18) 0.3359(15)
H93 H 0.1896 0.4898 0.3015
H94 H 0.0764 0.4790 0.3670
C78 C 0.006(4) 0.407(2) 0.3087(17)
H95 H -0.0531 0.3680 0.3440
H96 H 0.0687 0.3697 0.2810
Au3_2 Au -0.32292(15) 0.58104(8) 0.32026(7)
P3_2 P 0.8507(12) 0.4896(6) 0.2659(5)
O9 O 0.997(6) 0.906(3) 0.481(2)
O10 O 0.855(5) 0.637(3) 0.702(2)
O11 O 0.923(7) 0.471(4) 0.873(3)
O12 O 0.663(4) 0.576(2) 0.8118(18)
O13 O 0.263(7) 0.774(5) 0.588(3)
O14 O 0.428(4) 0.568(2) 0.7324(17)
O15 O 0.017(7) 0.770(4) 0.673(3)
O16 O 0.126(5) 0.505(3) 0.764(2)
O17 O 0.754(14) 0.332(7) 0.962(5)
O18 O 0.051(5) 0.490(3) 0.978(2)
O19 O 0.478(5) 0.453(3) 0.004(2)
O20 O 0.439(8) 0.050(5) 0.155(4)
O21 O 0.235(13) 0.384(7) 0.075(6)
O22 O 0.188(11) 0.191(6) 0.105(4)
loop_
_geom_bond_atom_site_label_1
_geom_bond_atom_site_label_2
_geom_bond_site_symmetry_1
_geom_bond_site_symmetry_2
Au1 P1 1_555 1_555
P1 C1 1_555 1_555
C1 C4 1_555 1_555
C2 P1 1_555 1_555
C3 P1 1_555 1_555
C4 H3 1_555 1_555
C5 C1 1_555 1_555
C6 C2 1_555 1_555
C7 C2 1_555 1_555
C8 C3 1_555 1_555
H1 C3 1_555 1_555
H2 C3 1_555 1_555
C9 C4 1_555 1_555
C10 C5 1_555 1_555
H4 C5 1_555 1_555
H5 C6 1_555 1_555
C11 C6 1_555 1_555
C12 C7 1_555 1_555
H6 C7 1_555 1_555
C13 C8 1_555 1_555
H7 C8 1_555 1_555
H8 C8 1_555 1_555
H9 C9 1_555 1_555
C14 C9 1_555 1_555
H10 C10 1_555 1_555
H11 C11 1_555 1_555
C15 C11 1_555 1_555
H12 C12 1_555 1_555
C16 C13 1_555 1_555
H13 C13 1_555 1_555
H14 C13 1_555 1_555
H15 C14 1_555 1_555
H16 C15 1_555 1_555
C17 C16 1_555 1_555
H17 C16 1_555 1_555
H18 C16 1_555 1_555
P2 C17 1_555 1_555
H19 C17 1_555 1_555
H20 C17 1_555 1_555
C18 P2 1_555 1_555
C19 P2 1_555 1_555
Au2 P2 1_555 1_555
C20 C18 1_555 1_555
C21 C18 1_555 1_555
C22 C19 1_555 1_555
C23 C19 1_555 1_555
S1 Au2 1_555 1_555
H21 C20 1_555 1_555
C24 C20 1_555 1_555
C25 C21 1_555 1_555
H22 C21 1_555 1_555
H23 C22 1_555 1_555
C26 C22 1_555 1_555
C27 C23 1_555 1_555
H24 C23 1_555 1_555
S2 Cu1 1_555 1_555
Cu1 S1 1_555 1_555
C28 S1 1_555 1_555
H25 C24 1_555 1_555
C29 C24 1_555 1_555
H26 C25 1_555 1_555
H27 C26 1_555 1_555
C30 C26 1_555 1_555
H28 C27 1_555 1_555
C31 S2 1_555 1_555
N1 Cu1 1_555 1_555
O1 Cu1 1_555 1_555
N2 Cu1 1_555 1_555
C32 C28 1_555 1_555
C33 C28 1_555 1_555
C34 C28 1_555 1_555
H29 C29 1_555 1_555
H30 C30 1_555 1_555
C35 C31 1_555 1_555
C36 C31 1_555 1_555
C37 C31 1_555 1_555
H31 N1 1_555 1_555
H32 N1 1_555 1_555
C38 O1 1_555 1_555
H33 N2 1_555 1_555
H34 N2 1_555 1_555
H35 C32 1_555 1_555
H36 C33 1_555 1_555
H37 C33 1_555 1_555
H38 C33 1_555 1_555
H39 C34 1_555 1_555
H40 C34 1_555 1_555
H41 C34 1_555 1_555
H42 C35 1_555 1_555
H43 C35 1_555 1_555
H44 C35 1_555 1_555
C39 C36 1_555 1_555
H45 C36 1_555 1_555
H46 C37 1_555 1_555
H47 C37 1_555 1_555
H48 C37 1_555 1_555
O2 C38 1_555 1_555
O3 C39 1_555 1_555
O4 C39 1_555 1_555
Au3 Au4 1_555 1_555
Au4 S4 1_555 1_555
Cu2 S3 1_555 1_555
S3 Au3 1_555 1_555
S4 Cu2 1_555 1_555
P3 C50 1_555 1_555
P4 Au4 1_555 1_555
N3 Cu2 1_555 1_555
H49 N3 1_555 1_555
H50 N3 1_555 1_555
N4 Cu2 1_555 1_555
H51 N4 1_555 1_555
H52 N4 1_555 1_555
O5 C42 1_555 1_555
O6 C42 1_555 1_555
O7 Cu2 1_555 1_555
O8 C47 1_555 1_555
C40 S3 1_555 1_555
C41 N3 1_555 1_555
H53 C41 1_555 1_555
C42 C41 1_555 1_555
C43 C40 1_555 1_555
H54 C43 1_555 1_555
H55 C43 1_555 1_555
H56 C43 1_555 1_555
C44 C40 1_555 1_555
H57 C44 1_555 1_555
H58 C44 1_555 1_555
H59 C44 1_555 1_555
C45 S4 1_555 1_555
C46 N4 1_555 1_555
H60 C46 1_555 1_555
C47 O7 1_555 1_555
C48 C45 1_555 1_555
H61 C48 1_555 1_555
H62 C48 1_555 1_555
H63 C48 1_555 1_555
C49 C45 1_555 1_555
H64 C49 1_555 1_555
H65 C49 1_555 1_555
H66 C49 1_555 1_555
C50 C51 1_555 1_555
C51 H67 1_555 1_555
C52 C51 1_555 1_555
H68 C52 1_555 1_555
C53 C52 1_555 1_555
H69 C53 1_555 1_555
C54 C53 1_555 1_555
H70 C54 1_555 1_555
C55 C50 1_555 1_555
H71 C55 1_555 1_555
C56 P3 1_555 1_555
C57 C56 1_555 1_555
H72 C57 1_555 1_555
C58 C57 1_555 1_555
H73 C58 1_555 1_555
C59 C58 1_555 1_555
H74 C59 1_555 1_555
C60 C59 1_555 1_555
H75 C60 1_555 1_555
C61 C56 1_555 1_555
H76 C61 1_555 1_555
C62 P4 1_555 1_555
C63 C62 1_555 1_555
H77 C63 1_555 1_555
C64 C63 1_555 1_555
H78 C64 1_555 1_555
C65 C64 1_555 1_555
H79 C65 1_555 1_555
C66 C65 1_555 1_555
H80 C66 1_555 1_555
C67 C62 1_555 1_555
H81 C67 1_555 1_555
C68 P4 1_555 1_555
C69 C68 1_555 1_555
H82 C69 1_555 1_555
C70 C69 1_555 1_555
H83 C70 1_555 1_555
C71 C70 1_555 1_555
H84 C71 1_555 1_555
C72 C71 1_555 1_555
H85 C72 1_555 1_555
C73 C68 1_555 1_555
H86 C73 1_555 1_555
C74 P4 1_555 1_555
H87 C74 1_555 1_555
H88 C74 1_555 1_555
C75 C74 1_555 1_555
H89 C75 1_555 1_555
H90 C75 1_555 1_555
C76 C75 1_555 1_555
H91 C76 1_555 1_555
H92 C76 1_555 1_555
C77 C76 1_555 1_555
H93 C77 1_555 1_555
H94 C77 1_555 1_555
C78 P3 1_555 1_555
H95 C78 1_555 1_555
H96 C78 1_555 1_555
Au1_2 Au2 1_555 1_555
P1_2 Au1_2 1_555 1_555
Au3_2 P3 1_555 1_555
P3_2 Au3 1_555 1_555
C10 C14 1_555 1_555
C12 C15 1_555 1_555
C25 C29 1_555 1_555
C27 C30 1_555 1_555
S2 Au1_2 1_555 1_555
N1 C32 1_555 1_555
N2 C36 1_555 1_555
C32 C38 1_555 1_555
C40 C41 1_555 1_555
C45 C46 1_555 1_555
C46 C47 1_555 1_555
C54 C55 1_555 1_555
C60 C61 1_555 1_555
C66 C67 1_555 1_555
C72 C73 1_555 1_555
C77 C78 1_555 1_555

#END
