
#######################################################################
#
#                 Cambridge Crystallographic Data Centre
#                                CCDC 
#
#######################################################################
#
# If this CIF has been generated from an entry in the Cambridge 
# Structural Database, then it will include bibliographic, chemical, 
# crystal, experimental, refinement or atomic coordinate data resulting 
# from the CCDC's data processing and validation procedures.
#
#######################################################################

data_MOVQUL
_symmetry_cell_setting           orthorhombic
_symmetry_space_group_name_H-M   'P 21 21 2'
_symmetry_Int_Tables_number      18
_space_group_name_Hall           'P 2 2ab'
loop_
_symmetry_equiv_pos_site_id
_symmetry_equiv_pos_as_xyz
1 x,y,z
2 -x,-y,z
3 1/2+x,1/2-y,-z
4 1/2-x,1/2+y,-z
_cell_length_a                   24.68(2)
_cell_length_b                   29.68(3)
_cell_length_c                   14.703(14)
_cell_angle_alpha                90
_cell_angle_beta                 90
_cell_angle_gamma                90
_cell_volume                     10770
loop_
_atom_site_label
_atom_site_type_symbol
_atom_site_fract_x
_atom_site_fract_y
_atom_site_fract_z
Au1 Au 0.36015(9) 0.30308(8) 1.39862(15)
S1 S 0.3368(6) 0.3575(5) 1.5073(10)
P1 P 0.3862(7) 0.2492(5) 1.2955(11)
Au2 Au 0.23377(9) 0.28479(7) 1.37688(14)
Cu1 Cu 0.2924(3) 0.4062(3) 1.4093(6)
C1 C 0.400(2) 0.3986(19) 1.516(4)
C2 C 0.3949(16) 0.1962(12) 1.353(3)
C3 C 0.4441(10) 0.2616(12) 1.2394(18)
C4 C 0.333(2) 0.241(2) 1.209(4)
S2 S 0.2467(6) 0.3570(5) 1.3153(12)
O1 O 0.3643(19) 0.4113(14) 1.316(3)
N1 N 0.3415(14) 0.4558(12) 1.460(3)
N2 N 0.2320(17) 0.4542(14) 1.376(3)
C5 C 0.4039(15) 0.440(2) 1.452(5)
C6 C 0.402(2) 0.4134(18) 1.617(4)
C7 C 0.456(2) 0.371(2) 1.508(4)
C8 C 0.4284(15) 0.1975(11) 1.429(3)
C9 C 0.3732(13) 0.1554(16) 1.324(2)
C10 C 0.4567(11) 0.3069(10) 1.227(2)
C11 C 0.4779(13) 0.2285(9) 1.204(2)
H1 H 0.3445 0.2159 1.1703
H2 H 0.3001 0.2314 1.2419
C12 C 0.3177(18) 0.2774(17) 1.151(3)
C13 C 0.407(3) 0.421(2) 1.358(6)
H3 H 0.3366 0.4817 1.4280
H4 H 0.3331 0.4612 1.5192
H5 H 0.4320 0.4625 1.4680
H6 H 0.3991 0.3868 1.6561
H7 H 0.4359 0.4291 1.6290
H8 H 0.3714 0.4337 1.6296
H9 H 0.4544 0.3450 1.5482
H10 H 0.4610 0.3615 1.4452
H11 H 0.4858 0.3909 1.5263
H12 H 0.4432 0.2254 1.4488
C14 C 0.4402(13) 0.1580(15) 1.476(2)
C15 C 0.3850(15) 0.1160(11) 1.371(3)
H13 H 0.3503 0.1545 1.2721
H14 H 0.4336 0.3295 1.2515
C16 C 0.5030(13) 0.3190(8) 1.180(2)
C17 C 0.5243(11) 0.2407(10) 1.1562(19)
H15 H 0.4693 0.1976 1.2122
H16 H 0.3494 0.2869 1.1142
H17 H 0.3059 0.3034 1.1878
C18 C 0.272(2) 0.2639(16) 1.087(3)
O2 O 0.4551(17) 0.4176(13) 1.325(3)
H18 H 0.4632 0.1589 1.5277
C19 C 0.4186(16) 0.1173(11) 1.447(3)
H19 H 0.3702 0.0881 1.3511
H20 H 0.5116 0.3500 1.1712
C20 C 0.5369(10) 0.2860(11) 1.1440(18)
H21 H 0.5474 0.2181 1.1320
H22 H 0.2388 0.2584 1.1228
H23 H 0.2819 0.2356 1.0554
C21 C 0.261(2) 0.304(2) 1.013(4)
H24 H 0.4266 0.0903 1.4789
H25 H 0.5685 0.2943 1.1115
P2 P 0.2151(6) 0.2861(6) 0.9335(11)
H26 H 0.2959 0.3119 0.9824
H27 H 0.2476 0.3311 1.0442
Au3 Au 0.21978(9) 0.20912(8) 0.90305(17)
C22 C 0.1533(11) 0.2950(14) 0.991(2)
C23 C 0.2212(14) 0.3213(12) 0.845(2)
S3 S 0.2116(7) 0.1322(6) 0.9010(13)
C24 C 0.1277(15) 0.2607(10) 1.039(2)
C25 C 0.1298(14) 0.3375(12) 0.987(2)
C26 C 0.2043(12) 0.3046(9) 0.761(3)
C27 C 0.2381(13) 0.3658(13) 0.8525(19)
Cu2 Cu 0.2900(4) 0.0943(3) 0.9067(6)
C28 C 0.1873(18) 0.1104(15) 0.789(2)
H28 H 0.1437 0.2316 1.0423
C29 C 0.0786(14) 0.2689(11) 1.083(2)
C30 C 0.0807(15) 0.3457(10) 1.030(2)
H29 H 0.1473 0.3610 0.9541
H30 H 0.1927 0.2741 0.7562
C31 C 0.2041(12) 0.3324(12) 0.6853(19)
C32 C 0.2379(13) 0.3936(9) 0.776(3)
H31 H 0.2497 0.3772 0.9096
S4 S 0.3351(7) 0.1456(6) 1.0020(12)
O3 O 0.2809(17) 0.0439(18) 1.022(4)
N3 N 0.2545(18) 0.0495(18) 0.819(3)
N4 N 0.3629(14) 0.0607(17) 0.890(3)
C33 C 0.1946(18) 0.0603(15) 0.805(3)
C34 C 0.209(3) 0.140(2) 0.713(4)
C35 C 0.1283(18) 0.1264(19) 0.785(4)
H32 H 0.0611 0.2454 1.1152
C36 C 0.0551(11) 0.3114(13) 1.078(2)
H33 H 0.0647 0.3748 1.0270
H34 H 0.1925 0.3210 0.6282
C37 C 0.2209(13) 0.3769(11) 0.693(2)
H35 H 0.2494 0.4241 0.7816
Au4 Au 0.35663(10) 0.19608(9) 0.89723(17)
C38 C 0.395(3) 0.1101(19) 1.033(5)
C39 C 0.3318(18) 0.0431(13) 1.040(3)
H36 H 0.2720 0.0504 0.7648
H37 H 0.2578 0.0211 0.8421
H38 H 0.3582 0.0317 0.8720
H39 H 0.3857 0.0753 0.8518
C40 C 0.381(2) 0.064(2) 0.990(3)
H40 H 0.1713 0.0488 0.8555
C41 C 0.1780(17) 0.0407(12) 0.711(3)
H41 H 0.1967 0.1713 0.7226
H42 H 0.2486 0.1392 0.7130
H43 H 0.1953 0.1293 0.6544
H44 H 0.1274 0.1590 0.7745
H45 H 0.1095 0.1109 0.7352
H46 H 0.1103 0.1194 0.8427
H47 H 0.0216 0.3170 1.1076
H48 H 0.2208 0.3959 0.6409
P3 P 0.3804(6) 0.2512(5) 0.8000(9)
C42 C 0.387(3) 0.101(2) 1.132(4)
C43 C 0.434(3) 0.127(2) 0.998(5)
O4 O 0.3327(19) 0.0199(17) 1.116(3)
H49 H 0.4131 0.0435 0.9984
O5 O 0.1314(17) 0.028(2) 0.682(4)
O6 O 0.2095(18) 0.0325(17) 0.642(3)
C44 C 0.4455(11) 0.2394(15) 0.737(2)
C45 C 0.391(2) 0.3024(14) 0.863(3)
C46 C 0.339(2) 0.2585(17) 0.709(4)
H50 H 0.3515 0.0866 1.1418
H51 H 0.4156 0.0805 1.1538
H52 H 0.3886 0.1292 1.1663
H53 H 0.4289 0.1295 0.9323
H54 H 0.4395 0.1577 1.0233
H55 H 0.4665 0.1091 1.0109
C47 C 0.4638(15) 0.1960(12) 0.719(2)
C48 C 0.4768(16) 0.2763(11) 0.712(3)
C49 C 0.3621(16) 0.340(2) 0.835(3)
C50 C 0.4289(18) 0.3062(15) 0.933(4)
H56 H 0.3037 0.2702 0.7318
H57 H 0.3546 0.2821 0.6697
C51 C 0.3274(19) 0.2173(18) 0.651(3)
H58 H 0.4423 0.1708 0.7363
C52 C 0.5134(16) 0.1895(11) 0.677(2)
C53 C 0.5265(15) 0.2698(12) 0.670(2)
H59 H 0.4643 0.3060 0.7242
H60 H 0.3364 0.3373 0.7873
C54 C 0.3706(18) 0.3814(16) 0.877(4)
C55 C 0.4373(16) 0.348(2) 0.975(3)
H61 H 0.4488 0.2806 0.9525
H62 H 0.3190 0.1914 0.6906
H63 H 0.3602 0.2098 0.6152
C56 C 0.2760(19) 0.2256(17) 0.580(3)
H64 H 0.5259 0.1598 0.6646
C57 C 0.5448(11) 0.2264(15) 0.652(2)
H65 H 0.5479 0.2950 0.6525
H66 H 0.3506 0.4070 0.8577
C58 C 0.408(2) 0.3852(14) 0.947(3)
H67 H 0.4630 0.3503 1.0229
H68 H 0.2418 0.2233 0.6148
H69 H 0.2784 0.2567 0.5560
C59 C 0.2732(19) 0.1981(17) 0.511(3)
H70 H 0.5787 0.2219 0.6227
H71 H 0.4139 0.4135 0.9755
P4 P 0.2183(5) 0.2160(5) 0.4301(10)
H72 H 0.2656 0.1672 0.5334
H73 H 0.3084 0.1976 0.4790
C60 C 0.2177(13) 0.1734(11) 0.3372(19)
C61 C 0.1548(10) 0.2102(14) 0.486(2)
C62 C 0.2467(12) 0.1333(12) 0.3425(18)
C63 C 0.1922(12) 0.1854(9) 0.256(2)
C64 C 0.1289(14) 0.1691(11) 0.499(2)
C65 C 0.1348(13) 0.2488(10) 0.528(2)
C66 C 0.1811(19) 0.3821(16) 0.319(3)
H74 H 0.2641 0.1252 0.3976
C67 C 0.2502(12) 0.1053(9) 0.267(2)
C68 C 0.1956(12) 0.1573(12) 0.1810(18)
H75 H 0.1723 0.2128 0.2528
H76 H 0.1426 0.1427 0.4708
C69 C 0.0831(14) 0.1666(10) 0.554(2)
C70 C 0.0889(14) 0.2463(10) 0.583(2)
H77 H 0.1524 0.2769 0.5189
C71 C 0.2050(18) 0.4347(19) 0.305(4)
C72 C 0.1498(17) 0.3799(15) 0.407(3)
C73 C 0.154(3) 0.365(3) 0.254(5)
H78 H 0.2700 0.0779 0.2707
C74 C 0.2246(13) 0.1172(10) 0.1863(19)
H79 H 0.1782 0.1655 0.1258
H80 H 0.0655 0.1385 0.5628
C75 C 0.0631(11) 0.2052(13) 0.596(2)
H81 H 0.0753 0.2727 0.6110
H82 H 0.2264 0.4372 0.2473
C76 C 0.1514(16) 0.4616(13) 0.298(3)
H83 H 0.1716 0.3930 0.4562
H84 H 0.1160 0.3970 0.4008
H85 H 0.1415 0.3485 0.4215
H86 H 0.1756 0.3673 0.1977
H87 H 0.1458 0.3338 0.2667
H88 H 0.1203 0.3823 0.2459
H89 H 0.2093 0.4589 0.4242
H90 H 0.2471 0.4809 0.3596
H91 H 0.2270 0.0980 0.1348
H92 H 0.0318 0.2035 0.6330
O7 O 0.122(2) 0.4802(18) 0.362(3)
O8 O 0.1236(17) 0.4729(16) 0.226(3)
Au2_2 Au 0.23377(9) 0.28479(7) 0.37688(14)
S2_2 S 0.2467(6) 0.3570(5) 0.3153(12)
Au1_2 Au 0.36015(9) 0.30308(8) 0.39862(15)
Cu1_2 Cu 0.2924(3) 0.4062(3) 0.4093(6)
N2_2 N 0.2320(17) 0.4542(14) 0.376(3)
O9 O 0.211(3) -0.001(3) 1.088(5)
O10 O 0.546(2) 0.4485(18) 1.405(4)
O11 O 0.464(2) 0.4365(17) 1.152(4)
O12 O 0.030(2) 0.4619(19) 0.127(4)
O13 O 0.568(2) 0.4818(18) 1.129(4)
O14 O 0.344(2) 0.0940(18) 0.665(4)
O15 O 0.212(2) -0.001(2) 1.381(4)
O16 O 0.2222(17) 0.5738(15) 1.463(3)
O17 O 0.255(4) -0.070(3) 0.936(6)
O18 O 0.366(3) 0.006(2) 1.293(5)
loop_
_geom_bond_atom_site_label_1
_geom_bond_atom_site_label_2
_geom_bond_site_symmetry_1
_geom_bond_site_symmetry_2
Au1 S1 1_555 1_555
S1 Cu1 1_555 1_555
P1 Au1 1_555 1_555
Au2 Au1 1_555 1_555
Cu1 S2 1_555 1_555
C1 S1 1_555 1_555
C2 P1 1_555 1_555
C3 P1 1_555 1_555
C4 P1 1_555 1_555
S2 Au2 1_555 1_555
O1 Cu1 1_555 1_555
N1 Cu1 1_555 1_555
N2 Cu1 1_555 1_555
C5 C1 1_555 1_555
C6 C1 1_555 1_555
C7 C1 1_555 1_555
C8 C2 1_555 1_555
C9 C2 1_555 1_555
C10 C3 1_555 1_555
C11 C3 1_555 1_555
H1 C4 1_555 1_555
H2 C4 1_555 1_555
C12 C4 1_555 1_555
C13 O1 1_555 1_555
H3 N1 1_555 1_555
H4 N1 1_555 1_555
H5 C5 1_555 1_555
H6 C6 1_555 1_555
H7 C6 1_555 1_555
H8 C6 1_555 1_555
H9 C7 1_555 1_555
H10 C7 1_555 1_555
H11 C7 1_555 1_555
H12 C8 1_555 1_555
C14 C8 1_555 1_555
C15 C9 1_555 1_555
H13 C9 1_555 1_555
H14 C10 1_555 1_555
C16 C10 1_555 1_555
C17 C11 1_555 1_555
H15 C11 1_555 1_555
H16 C12 1_555 1_555
H17 C12 1_555 1_555
C18 C12 1_555 1_555
O2 C13 1_555 1_555
H18 C14 1_555 1_555
C19 C14 1_555 1_555
H19 C15 1_555 1_555
H20 C16 1_555 1_555
C20 C16 1_555 1_555
H21 C17 1_555 1_555
H22 C18 1_555 1_555
H23 C18 1_555 1_555
C21 C18 1_555 1_555
H24 C19 1_555 1_555
H25 C20 1_555 1_555
P2 C21 1_555 1_555
H26 C21 1_555 1_555
H27 C21 1_555 1_555
Au3 P2 1_555 1_555
C22 P2 1_555 1_555
C23 P2 1_555 1_555
S3 Au3 1_555 1_555
C24 C22 1_555 1_555
C25 C22 1_555 1_555
C26 C23 1_555 1_555
C27 C23 1_555 1_555
Cu2 S3 1_555 1_555
C28 S3 1_555 1_555
H28 C24 1_555 1_555
C29 C24 1_555 1_555
C30 C25 1_555 1_555
H29 C25 1_555 1_555
H30 C26 1_555 1_555
C31 C26 1_555 1_555
C32 C27 1_555 1_555
H31 C27 1_555 1_555
S4 Cu2 1_555 1_555
O3 Cu2 1_555 1_555
N3 Cu2 1_555 1_555
N4 Cu2 1_555 1_555
C33 C28 1_555 1_555
C34 C28 1_555 1_555
C35 C28 1_555 1_555
H32 C29 1_555 1_555
C36 C29 1_555 1_555
H33 C30 1_555 1_555
H34 C31 1_555 1_555
C37 C31 1_555 1_555
H35 C32 1_555 1_555
Au4 S4 1_555 1_555
C38 S4 1_555 1_555
C39 O3 1_555 1_555
H36 N3 1_555 1_555
H37 N3 1_555 1_555
H38 N4 1_555 1_555
H39 N4 1_555 1_555
C40 N4 1_555 1_555
H40 C33 1_555 1_555
C41 C33 1_555 1_555
H41 C34 1_555 1_555
H42 C34 1_555 1_555
H43 C34 1_555 1_555
H44 C35 1_555 1_555
H45 C35 1_555 1_555
H46 C35 1_555 1_555
H47 C36 1_555 1_555
H48 C37 1_555 1_555
P3 Au4 1_555 1_555
C42 C38 1_555 1_555
C43 C38 1_555 1_555
O4 C39 1_555 1_555
H49 C40 1_555 1_555
O5 C41 1_555 1_555
O6 C41 1_555 1_555
C44 P3 1_555 1_555
C45 P3 1_555 1_555
C46 P3 1_555 1_555
H50 C42 1_555 1_555
H51 C42 1_555 1_555
H52 C42 1_555 1_555
H53 C43 1_555 1_555
H54 C43 1_555 1_555
H55 C43 1_555 1_555
C47 C44 1_555 1_555
C48 C44 1_555 1_555
C49 C45 1_555 1_555
C50 C45 1_555 1_555
H56 C46 1_555 1_555
H57 C46 1_555 1_555
C51 C46 1_555 1_555
H58 C47 1_555 1_555
C52 C47 1_555 1_555
C53 C48 1_555 1_555
H59 C48 1_555 1_555
H60 C49 1_555 1_555
C54 C49 1_555 1_555
C55 C50 1_555 1_555
H61 C50 1_555 1_555
H62 C51 1_555 1_555
H63 C51 1_555 1_555
C56 C51 1_555 1_555
H64 C52 1_555 1_555
C57 C52 1_555 1_555
H65 C53 1_555 1_555
H66 C54 1_555 1_555
C58 C54 1_555 1_555
H67 C55 1_555 1_555
H68 C56 1_555 1_555
H69 C56 1_555 1_555
C59 C56 1_555 1_555
H70 C57 1_555 1_555
H71 C58 1_555 1_555
P4 C59 1_555 1_555
H72 C59 1_555 1_555
H73 C59 1_555 1_555
C60 P4 1_555 1_555
C61 P4 1_555 1_555
C62 C60 1_555 1_555
C63 C60 1_555 1_555
C64 C61 1_555 1_555
C65 C61 1_555 1_555
C66 C71 1_555 1_555
H74 C62 1_555 1_555
C67 C62 1_555 1_555
C68 C63 1_555 1_555
H75 C63 1_555 1_555
H76 C64 1_555 1_555
C69 C64 1_555 1_555
C70 C65 1_555 1_555
H77 C65 1_555 1_555
C71 H82 1_555 1_555
C72 C66 1_555 1_555
C73 C66 1_555 1_555
H78 C67 1_555 1_555
C74 C67 1_555 1_555
H79 C68 1_555 1_555
H80 C69 1_555 1_555
C75 C69 1_555 1_555
H81 C70 1_555 1_555
C76 C71 1_555 1_555
H83 C72 1_555 1_555
H84 C72 1_555 1_555
H85 C72 1_555 1_555
H86 C73 1_555 1_555
H87 C73 1_555 1_555
H88 C73 1_555 1_555
H89 N2_2 1_555 1_555
H90 N2_2 1_555 1_555
H91 C74 1_555 1_555
H92 C75 1_555 1_555
O7 C76 1_555 1_555
O8 C76 1_555 1_555
Au2_2 P4 1_555 1_555
S2_2 C66 1_555 1_555
Au1_2 Au2_2 1_555 1_555
Cu1_2 S2_2 1_555 1_555
N2_2 C71 1_555 1_555
N1 C5 1_555 1_555
C5 C13 1_555 1_555
C15 C19 1_555 1_555
C17 C20 1_555 1_555
C30 C36 1_555 1_555
C32 C37 1_555 1_555
N3 C33 1_555 1_555
C38 C40 1_555 1_555
C39 C40 1_555 1_555
C53 C57 1_555 1_555
C55 C58 1_555 1_555
C68 C74 1_555 1_555
C70 C75 1_555 1_555
Au2_2 S2_2 1_555 1_555
Cu1_2 N2_2 1_555 1_555

#END
