
#######################################################################
#
#                 Cambridge Crystallographic Data Centre
#                                CCDC 
#
#######################################################################
#
# If this CIF has been generated from an entry in the Cambridge 
# Structural Database, then it will include bibliographic, chemical, 
# crystal, experimental, refinement or atomic coordinate data resulting 
# from the CCDC's data processing and validation procedures.
#
#######################################################################

data_MOVROG
_symmetry_cell_setting           hexagonal
_symmetry_space_group_name_H-M   'P 63'
_symmetry_Int_Tables_number      173
_space_group_name_Hall           'P 6c'
loop_
_symmetry_equiv_pos_site_id
_symmetry_equiv_pos_as_xyz
1 x,y,z
2 -x,-y,1/2+z
3 -y,x-y,z
4 -x+y,-x,z
5 x-y,x,1/2+z
6 y,-x+y,1/2+z
_cell_length_a                   44.6970(8)
_cell_length_b                   44.6970(8)
_cell_length_c                   11.9683(2)
_cell_angle_alpha                90
_cell_angle_beta                 90
_cell_angle_gamma                120
_cell_volume                     20707.1
loop_
_atom_site_label
_atom_site_type_symbol
_atom_site_fract_x
_atom_site_fract_y
_atom_site_fract_z
Au1 Au 0.36622(3) 0.39993(3) 0.55896(10)
S1 S 0.39269(19) 0.45072(18) 0.6574(7)
P1 P 0.33891(18) 0.34680(18) 0.4812(6)
Au2 Au 0.31373(4) 0.42746(3) 0.51222(10)
Cu1 Cu 0.40945(9) 0.49275(9) 0.5149(3)
C1 C 0.4349(9) 0.4599(8) 0.692(3)
C2 C 0.3647(4) 0.3386(5) 0.3850(11)
C3 C 0.3018(4) 0.3387(5) 0.3969(14)
C4 C 0.3261(6) 0.3128(6) 0.582(2)
S2 S 0.36112(27) 0.46671(19) 0.4095(7)
O1 O 0.4419(5) 0.4751(5) 0.4324(16)
N1 N 0.4566(5) 0.5156(5) 0.596(2)
N2 N 0.4167(9) 0.5391(7) 0.444(3)
C5 C 0.4636(8) 0.4877(8) 0.607(3)
C6 C 0.4383(8) 0.4265(8) 0.700(3)
C7 C 0.4436(7) 0.4750(7) 0.815(2)
C8 C 0.3995(5) 0.3617(3) 0.3670(13)
C9 C 0.3487(3) 0.3068(4) 0.3314(14)
C10 C 0.2715(5) 0.3070(4) 0.4059(13)
C11 C 0.3046(4) 0.3624(4) 0.3165(16)
H1 H 0.3060 0.3108 0.6242
H2 H 0.3180 0.2908 0.5414
C12 C 0.3544(6) 0.3164(7) 0.671(2)
C13 C 0.4625(7) 0.4725(8) 0.495(3)
H3 H 0.4732 0.5332 0.5552
H4 H 0.4552 0.5238 0.6645
H5 H 0.4871 0.4967 0.6396
H6 H 0.4333 0.4152 0.6269
H7 H 0.4618 0.4330 0.7227
H8 H 0.4218 0.4106 0.7553
H9 H 0.4421 0.4962 0.8184
H10 H 0.4270 0.4579 0.8672
H11 H 0.4670 0.4803 0.8347
H12 H 0.4105 0.3835 0.4036
C14 C 0.4184(3) 0.3530(4) 0.2954(14)
C15 C 0.3676(4) 0.2980(3) 0.2598(14)
H13 H 0.3249 0.2910 0.3437
H14 H 0.2696 0.2908 0.4608
C16 C 0.2440(4) 0.2990(4) 0.3344(16)
C17 C 0.2771(5) 0.3544(4) 0.2450(13)
H15 H 0.3253 0.3840 0.3104
H16 H 0.3747 0.3191 0.6291
H17 H 0.3620 0.3381 0.7132
C18 C 0.3452(6) 0.2900(6) 0.749(2)
O2 O 0.4818(5) 0.4605(5) 0.4794(18)
H18 H 0.4423 0.3687 0.2831
C19 C 0.4025(4) 0.3211(5) 0.2418(13)
H19 H 0.3567 0.2762 0.2232
H20 H 0.2233 0.2774 0.3405
C20 C 0.2468(4) 0.3227(5) 0.2539(14)
H21 H 0.2790 0.3706 0.1900
P2 P 0.38003(18) 0.29884(17) 0.8408(6)
H22 H 0.3381 0.2681 0.7085
H23 H 0.3252 0.2871 0.7927
H24 H 0.4154 0.3151 0.1929
H25 H 0.2280 0.3172 0.2050
Au3 Au 0.42900(3) 0.31060(3) 0.74610(10)
C21 C 0.3842(5) 0.3327(4) 0.9329(13)
C22 C 0.3653(6) 0.2627(4) 0.9337(13)
Au4 Au 0.43868(3) 0.24645(3) 0.81157(11)
S3 S 0.4750(2) 0.31829(19) 0.6361(7)
C23 C 0.4136(4) 0.3652(5) 0.9368(14)
C24 C 0.3560(4) 0.3254(4) 1.0001(15)
C25 C 0.3895(4) 0.2616(4) 1.0035(16)
C26 C 0.3308(5) 0.2370(5) 0.9402(14)
S4 S 0.4849(2) 0.2927(2) 0.8981(8)
P3 P 0.39149(19) 0.20109(18) 0.7365(7)
Cu2 Cu 0.51840(9) 0.33177(9) 0.7648(3)
C27 C 0.4950(8) 0.3608(7) 0.559(3)
H26 H 0.4329 0.3703 0.8908
C28 C 0.4149(4) 0.3904(4) 1.0079(16)
C29 C 0.3572(4) 0.3506(5) 1.0712(13)
H27 H 0.3359 0.3032 0.9974
H28 H 0.4131 0.2791 0.9991
C30 C 0.3793(5) 0.2348(5) 1.0799(14)
C31 C 0.3205(4) 0.2101(4) 1.0166(16)
H29 H 0.3142 0.2377 0.8925
C32 C 0.5167(8) 0.2785(8) 0.938(3)
C33 C 0.3668(5) 0.2143(5) 0.6534(15)
C34 C 0.3998(6) 0.1763(4) 0.6397(13)
C35 C 0.3643(6) 0.1689(6) 0.843(2)
O3 O 0.5165(5) 0.3780(5) 0.8257(19)
N3 N 0.5475(5) 0.3681(5) 0.6503(18)
N4 N 0.5606(6) 0.3362(6) 0.840(3)
C36 C 0.5256(9) 0.3841(7) 0.629(3)
C37 C 0.5027(9) 0.3543(7) 0.445(3)
C38 C 0.4716(8) 0.3765(8) 0.557(3)
H30 H 0.4350 0.4126 1.0106
C39 C 0.3866(5) 0.3831(4) 1.0751(13)
H31 H 0.3379 0.3456 1.1172
H32 H 0.3959 0.2340 1.1276
C40 C 0.3448(5) 0.2090(4) 1.0864(13)
H33 H 0.2970 0.1926 1.0210
C41 C 0.5488(7) 0.3155(7) 0.950(4)
C42 C 0.5195(9) 0.2567(8) 0.841(4)
C43 C 0.5001(9) 0.2565(9) 1.045(3)
C44 C 0.3311(5) 0.1960(4) 0.6635(13)
C45 C 0.3824(4) 0.2399(4) 0.5727(17)
C46 C 0.4335(5) 0.1826(4) 0.6318(14)
C47 C 0.3740(4) 0.1510(5) 0.5734(15)
H34 H 0.3526 0.1786 0.8877
H35 H 0.3462 0.1481 0.8040
C48 C 0.3837(8) 0.1583(7) 0.919(2)
C49 C 0.5227(7) 0.3991(9) 0.735(3)
H36 H 0.5685 0.3837 0.6785
H37 H 0.5505 0.3585 0.5874
H38 H 0.5710 0.3277 0.7950
H39 H 0.5760 0.3588 0.8543
H40 H 0.5401 0.4044 0.5797
H41 H 0.4811 0.3388 0.4060
H42 H 0.5150 0.3763 0.4043
H43 H 0.5172 0.3436 0.4484
H44 H 0.4668 0.3806 0.6337
H45 H 0.4832 0.3985 0.5164
H46 H 0.4499 0.3606 0.5194
H47 H 0.3875 0.4003 1.1238
H48 H 0.3378 0.1907 1.1386
H49 H 0.5430 0.3288 1.0046
C50 C 0.5790(8) 0.3130(7) 0.996(4)
H50 H 0.5300 0.2716 0.7757
H51 H 0.5337 0.2469 0.8646
H52 H 0.4963 0.2380 0.8212
H53 H 0.4989 0.2712 1.1036
H54 H 0.4767 0.2378 1.0277
H55 H 0.5141 0.2467 1.0712
H56 H 0.3204 0.1785 0.7187
C51 C 0.3109(4) 0.2034(4) 0.5929(16)
C52 C 0.3623(5) 0.2473(4) 0.5021(14)
H57 H 0.4069 0.2524 0.5657
H58 H 0.4511 0.1999 0.6771
C53 C 0.4414(4) 0.1637(5) 0.5576(16)
C54 C 0.3819(5) 0.1321(4) 0.4992(14)
H59 H 0.3510 0.1467 0.5788
H60 H 0.3959 0.1492 0.8736
H61 H 0.4016 0.1792 0.9585
C55 C 0.3625(6) 0.1320(6) 1.004(2)
O4 O 0.5250(5) 0.4271(5) 0.746(2)
O5 O 0.5988(9) 0.3105(8) 0.932(3)
O6 O 0.5870(9) 0.3122(8) 1.095(3)
H62 H 0.2865 0.1909 0.5998
C56 C 0.3265(5) 0.2290(5) 0.5122(14)
H63 H 0.3729 0.2648 0.4469
H64 H 0.4645 0.1680 0.5521
C57 C 0.4156(6) 0.1384(5) 0.4913(13)
H65 H 0.3643 0.1148 0.4539
P4 P 0.38847(18) 0.12381(19) 1.1000(6)
H66 H 0.3462 0.1102 0.9660
H67 H 0.3488 0.1400 1.0465
H68 H 0.3127 0.2341 0.4640
H69 H 0.4211 0.1255 0.4405
C58 C 0.4079(6) 0.1610(4) 1.1918(14)
C59 C 0.3588(5) 0.0879(4) 1.1889(14)
C60 C 0.3854(4) 0.1683(4) 1.2503(16)
C61 C 0.4434(5) 0.1826(5) 1.2016(16)
C62 C 0.3735(4) 0.0740(5) 1.2591(16)
C63 C 0.3240(5) 0.0778(5) 1.1994(14)
C64 C 0.5028(7) 0.1469(8) 0.882(3)
H70 H 0.3612 0.1535 1.2436
C65 C 0.3984(5) 0.1973(5) 1.3185(15)
C66 C 0.4564(4) 0.2116(5) 1.2699(18)
H71 H 0.4587 0.1776 1.1617
H72 H 0.3972 0.0809 1.2519
C67 C 0.3534(5) 0.0499(4) 1.3399(14)
C68 C 0.3039(4) 0.0537(5) 1.2802(16)
H73 H 0.3140 0.0873 1.1514
C69 C 0.5329(7) 0.1403(7) 0.849(3)
C70 C 0.5108(8) 0.1691(9) 0.989(4)
C71 C 0.4981(9) 0.1621(11) 0.775(3)
H74 H 0.3831 0.2023 1.3585
C72 C 0.4339(6) 0.2190(4) 1.3283(15)
H75 H 0.4806 0.2265 1.2766
H76 H 0.3634 0.0404 1.3879
C73 C 0.3186(5) 0.0398(4) 1.3505(13)
H77 H 0.2802 0.0468 1.2874
H78 H 0.5281 0.1271 0.7780
C74 C 0.5684(7) 0.1730(7) 0.849(3)
H79 H 0.5133 0.1567 1.0524
H80 H 0.5323 0.1911 0.9785
H81 H 0.4918 0.1736 1.0036
H82 H 0.4932 0.1459 0.7129
H83 H 0.4787 0.1664 0.7833
H84 H 0.5192 0.1839 0.7582
H85 H 0.5516 0.1382 0.9977
H86 H 0.5518 0.1129 0.9192
H87 H 0.4428 0.2388 1.3750
H88 H 0.3049 0.0233 1.4057
O7 O 0.5908(6) 0.1882(6) 0.925(2)
O8 O 0.5763(6) 0.1889(6) 0.761(2)
Au2E Au 0.42746(3) 0.11373(5) 1.01222(10)
S2E S 0.46671(19) 0.10559(33) 0.9095(7)
Au1E Au 0.39993(3) 0.03371(4) 1.05896(10)
Cu1E Cu 0.49275(9) 0.08330(13) 1.0149(3)
N2E N 0.5391(7) 0.1224(11) 0.944(3)
O9 O 0.5389(5) 0.4742(5) 0.5871(18)
O10 O 0.4869(6) 0.4353(6) 0.291(2)
O11 O 0.4425(5) 0.4600(5) 0.205(2)
O12 O 0.5553(8) 0.4427(8) 0.309(3)
O13 O 0.5048(7) 0.5669(7) 0.442(3)
O14 O 0.5066(11) 0.6301(11) 0.570(4)
O15 O 0.6103(9) 0.2614(9) 0.762(3)
O16 O 0.5974(9) 0.4831(9) 0.477(3)
loop_
_geom_bond_atom_site_label_1
_geom_bond_atom_site_label_2
_geom_bond_site_symmetry_1
_geom_bond_site_symmetry_2
Au1 S1 1_555 1_555
S1 Cu1 1_555 1_555
P1 Au1 1_555 1_555
Au2 Au1 1_555 1_555
Cu1 S2 1_555 1_555
C1 S1 1_555 1_555
C2 P1 1_555 1_555
C3 P1 1_555 1_555
C4 P1 1_555 1_555
S2 Au2 1_555 1_555
O1 Cu1 1_555 1_555
N1 Cu1 1_555 1_555
N2 Cu1 1_555 1_555
C5 C1 1_555 1_555
C6 C1 1_555 1_555
C7 C1 1_555 1_555
C8 C2 1_555 1_555
C9 C2 1_555 1_555
C10 C3 1_555 1_555
C11 C3 1_555 1_555
H1 C4 1_555 1_555
H2 C4 1_555 1_555
C12 C4 1_555 1_555
C13 O1 1_555 1_555
H3 N1 1_555 1_555
H4 N1 1_555 1_555
H5 C5 1_555 1_555
H6 C6 1_555 1_555
H7 C6 1_555 1_555
H8 C6 1_555 1_555
H9 C7 1_555 1_555
H10 C7 1_555 1_555
H11 C7 1_555 1_555
H12 C8 1_555 1_555
C14 C8 1_555 1_555
C15 C9 1_555 1_555
H13 C9 1_555 1_555
H14 C10 1_555 1_555
C16 C10 1_555 1_555
C17 C11 1_555 1_555
H15 C11 1_555 1_555
H16 C12 1_555 1_555
H17 C12 1_555 1_555
C18 C12 1_555 1_555
O2 C13 1_555 1_555
H18 C14 1_555 1_555
C19 C14 1_555 1_555
H19 C15 1_555 1_555
H20 C16 1_555 1_555
C20 C16 1_555 1_555
H21 C17 1_555 1_555
P2 C18 1_555 1_555
H22 C18 1_555 1_555
H23 C18 1_555 1_555
H24 C19 1_555 1_555
H25 C20 1_555 1_555
Au3 P2 1_555 1_555
C21 P2 1_555 1_555
C22 P2 1_555 1_555
Au4 Au3 1_555 1_555
S3 Au3 1_555 1_555
C23 C21 1_555 1_555
C24 C21 1_555 1_555
C25 C22 1_555 1_555
C26 C22 1_555 1_555
S4 Au4 1_555 1_555
P3 Au4 1_555 1_555
Cu2 S3 1_555 1_555
C27 S3 1_555 1_555
H26 C23 1_555 1_555
C28 C23 1_555 1_555
C29 C24 1_555 1_555
H27 C24 1_555 1_555
H28 C25 1_555 1_555
C30 C25 1_555 1_555
C31 C26 1_555 1_555
H29 C26 1_555 1_555
C32 S4 1_555 1_555
C33 P3 1_555 1_555
C34 P3 1_555 1_555
C35 P3 1_555 1_555
O3 Cu2 1_555 1_555
N3 Cu2 1_555 1_555
N4 Cu2 1_555 1_555
C36 C27 1_555 1_555
C37 C27 1_555 1_555
C38 C27 1_555 1_555
H30 C28 1_555 1_555
C39 C28 1_555 1_555
H31 C29 1_555 1_555
H32 C30 1_555 1_555
C40 C30 1_555 1_555
H33 C31 1_555 1_555
C41 C32 1_555 1_555
C42 C32 1_555 1_555
C43 C32 1_555 1_555
C44 C33 1_555 1_555
C45 C33 1_555 1_555
C46 C34 1_555 1_555
C47 C34 1_555 1_555
H34 C35 1_555 1_555
H35 C35 1_555 1_555
C48 C35 1_555 1_555
C49 O3 1_555 1_555
H36 N3 1_555 1_555
H37 N3 1_555 1_555
H38 N4 1_555 1_555
H39 N4 1_555 1_555
H40 C36 1_555 1_555
H41 C37 1_555 1_555
H42 C37 1_555 1_555
H43 C37 1_555 1_555
H44 C38 1_555 1_555
H45 C38 1_555 1_555
H46 C38 1_555 1_555
H47 C39 1_555 1_555
H48 C40 1_555 1_555
H49 C41 1_555 1_555
C50 C41 1_555 1_555
H50 C42 1_555 1_555
H51 C42 1_555 1_555
H52 C42 1_555 1_555
H53 C43 1_555 1_555
H54 C43 1_555 1_555
H55 C43 1_555 1_555
H56 C44 1_555 1_555
C51 C44 1_555 1_555
C52 C45 1_555 1_555
H57 C45 1_555 1_555
H58 C46 1_555 1_555
C53 C46 1_555 1_555
C54 C47 1_555 1_555
H59 C47 1_555 1_555
H60 C48 1_555 1_555
H61 C48 1_555 1_555
C55 C48 1_555 1_555
O4 C49 1_555 1_555
O5 C50 1_555 1_555
O6 C50 1_555 1_555
H62 C51 1_555 1_555
C56 C51 1_555 1_555
H63 C52 1_555 1_555
H64 C53 1_555 1_555
C57 C53 1_555 1_555
H65 C54 1_555 1_555
P4 C55 1_555 1_555
H66 C55 1_555 1_555
H67 C55 1_555 1_555
H68 C56 1_555 1_555
H69 C57 1_555 1_555
C58 P4 1_555 1_555
C59 P4 1_555 1_555
C60 C58 1_555 1_555
C61 C58 1_555 1_555
C62 C59 1_555 1_555
C63 C59 1_555 1_555
C64 C69 1_555 1_555
H70 C60 1_555 1_555
C65 C60 1_555 1_555
C66 C61 1_555 1_555
H71 C61 1_555 1_555
H72 C62 1_555 1_555
C67 C62 1_555 1_555
C68 C63 1_555 1_555
H73 C63 1_555 1_555
C69 H78 1_555 1_555
C70 C64 1_555 1_555
C71 C64 1_555 1_555
H74 C65 1_555 1_555
C72 C65 1_555 1_555
H75 C66 1_555 1_555
H76 C67 1_555 1_555
C73 C67 1_555 1_555
H77 C68 1_555 1_555
C74 C69 1_555 1_555
H79 C70 1_555 1_555
H80 C70 1_555 1_555
H81 C70 1_555 1_555
H82 C71 1_555 1_555
H83 C71 1_555 1_555
H84 C71 1_555 1_555
H85 N2E 1_555 1_555
H86 N2E 1_555 1_555
H87 C72 1_555 1_555
H88 C73 1_555 1_555
O7 C74 1_555 1_555
O8 C74 1_555 1_555
Au2E P4 1_555 1_555
S2E C64 1_555 1_555
Au1E Au2E 1_555 1_555
Cu1E S2E 1_555 1_555
N2E C69 1_555 1_555
N1 C5 1_555 1_555
C5 C13 1_555 1_555
C15 C19 1_555 1_555
C17 C20 1_555 1_555
S4 Cu2 1_555 1_555
C29 C39 1_555 1_555
C31 C40 1_555 1_555
N3 C36 1_555 1_555
N4 C41 1_555 1_555
C36 C49 1_555 1_555
C52 C56 1_555 1_555
C54 C57 1_555 1_555
C66 C72 1_555 1_555
C68 C73 1_555 1_555
Au2E S2E 1_555 1_555
Cu1E N2E 1_555 1_555

#END
