
#######################################################################
#
#                 Cambridge Crystallographic Data Centre
#                                CCDC 
#
#######################################################################
#
# If this CIF has been generated from an entry in the Cambridge 
# Structural Database, then it will include bibliographic, chemical, 
# crystal, experimental, refinement or atomic coordinate data resulting 
# from the CCDC's data processing and validation procedures.
#
#######################################################################

data_MOVREW
_symmetry_cell_setting           triclinic
_symmetry_space_group_name_H-M   'P 1'
_symmetry_Int_Tables_number      1
_space_group_name_Hall           'P 1'
loop_
_symmetry_equiv_pos_site_id
_symmetry_equiv_pos_as_xyz
1 x,y,z
_cell_length_a                   8.1584(17)
_cell_length_b                   15.724(3)
_cell_length_c                   22.336(5)
_cell_angle_alpha                74.900(5)
_cell_angle_beta                 81.814(6)
_cell_angle_gamma                78.344(5)
_cell_volume                     2697.11
loop_
_atom_site_label
_atom_site_type_symbol
_atom_site_fract_x
_atom_site_fract_y
_atom_site_fract_z
Au1 Au 0.8927(3) 0.81379(14) 0.22548(10)
Au2 Au 0.9605(3) 0.96570(15) 0.11817(11)
S1 S 0.701(3) 0.9322(11) 0.2544(8)
P1 P 1.0633(17) 0.6940(9) 0.1968(7)
S2 S 1.086(3) 0.9948(11) 0.1966(8)
P2 P 0.852(2) 0.9499(12) 0.0358(7)
Cu1 Cu 0.8438(13) 1.0390(6) 0.2586(4)
C1 C 0.630(9) 0.900(5) 0.339(4)
C2 C 1.150(8) 1.114(5) 0.162(3)
C3 C 0.702(5) 1.048(3) 0.007(2)
C4 C 1.026(5) 0.938(4) -0.028(2)
C5 C 0.736(5) 0.859(3) 0.038(2)
O1 O 0.752(5) 1.167(3) 0.170(2)
N1 N 0.690(9) 1.052(4) 0.340(3)
N2 N 0.961(7) 1.143(4) 0.255(3)
C6 C 0.566(9) 0.989(5) 0.3506(19)
C7 C 0.486(9) 0.846(4) 0.352(3)
C8 C 0.791(10) 0.852(5) 0.372(4)
C9 C 1.032(6) 1.170(4) 0.188(3)
C10 C 1.325(8) 1.114(5) 0.183(4)
C11 C 1.156(10) 1.127(5) 0.090(3)
C12 C 0.650(6) 1.113(4) 0.0410(17)
C13 C 0.656(6) 1.064(3) -0.053(2)
C14 C 1.182(6) 0.958(4) -0.025(2)
C15 C 0.996(5) 0.910(4) -0.079(3)
C16 C 0.606(4) 0.851(3) 0.0955(19)
H1 H 0.6785 0.8731 -0.0002
H2 H 0.8154 0.8023 0.0406
C17 C 0.877(5) 1.203(3) 0.1559(19)
H3 H 0.7525 1.0373 0.3729
H4 H 0.6344 1.1089 0.3360
H5 H 0.8870 1.1895 0.2657
H6 H 1.0447 1.1262 0.2806
H7 H 0.4703 1.0190 0.3249
C18 C 0.504(7) 0.977(3) 0.418(2)
H8 H 0.5286 0.7865 0.3444
H9 H 0.4395 0.8395 0.3959
H10 H 0.3971 0.8770 0.3250
H11 H 0.8271 0.7928 0.3623
H12 H 0.8801 0.8873 0.3567
H13 H 0.7657 0.8440 0.4169
H14 H 1.0839 1.2242 0.1852
H15 H 1.4113 1.0726 0.1640
H16 H 1.3518 1.1741 0.1691
H17 H 1.3219 1.0939 0.2283
H18 H 1.2450 1.0825 0.0766
H19 H 1.0474 1.1202 0.0797
H20 H 1.1782 1.1872 0.0694
H21 H 0.6806 1.1016 0.0821
C19 C 0.552(6) 1.194(3) 0.015(2)
C20 C 0.559(5) 1.146(4) -0.0793(17)
H22 H 0.6918 1.0203 -0.0765
H23 H 1.2026 0.9774 0.0100
C21 C 1.309(5) 0.949(4) -0.073(3)
C22 C 1.123(7) 0.901(4) -0.126(2)
H24 H 0.8888 0.8960 -0.0806
C23 C 0.492(4) 0.788(2) 0.0861(16)
H25 H 0.5391 0.9101 0.0980
H26 H 0.6622 0.8246 0.1343
O2 O 0.856(6) 1.268(3) 0.111(2)
O3 O 0.359(6) 0.967(3) 0.439(2)
O4 O 0.588(7) 0.975(4) 0.460(2)
H27 H 0.5164 1.2381 0.0383
C24 C 0.506(5) 1.210(3) -0.045(2)
H28 H 0.5275 1.1567 -0.1204
H29 H 1.4161 0.9631 -0.0705
C25 C 1.279(6) 0.921(4) -0.123(2)
H30 H 1.1023 0.8817 -0.1611
C26 C 0.349(4) 0.781(3) 0.1385(18)
H31 H 0.4451 0.8124 0.0453
H32 H 0.5590 0.7281 0.0864
H33 H 0.4398 1.2656 -0.0630
H34 H 1.3660 0.9153 -0.1560
C27 C 0.234(5) 0.716(3) 0.131(2)
H35 H 0.2808 0.8413 0.1374
H36 H 0.3964 0.7589 0.1792
H37 H 0.3058 0.6585 0.1281
H38 H 0.1810 0.7417 0.0919
C28 C 0.183(6) 0.622(3) 0.261(2)
C29 C -0.074(6) 0.626(3) 0.177(3)
C30 C 0.227(6) 0.531(3) 0.264(2)
C31 C 0.239(6) 0.659(2) 0.303(2)
C32 C -0.037(5) 0.590(4) 0.125(3)
C33 C -0.216(6) 0.609(3) 0.217(2)
H39 H 0.1896 0.5063 0.2354
C34 C 0.327(6) 0.477(2) 0.310(2)
C35 C 0.338(6) 0.605(3) 0.348(2)
H40 H 0.2082 0.7215 0.3005
H41 H 0.0597 0.6015 0.0968
C36 C -0.142(6) 0.537(4) 0.113(2)
C37 C -0.321(5) 0.557(4) 0.206(2)
H42 H -0.2415 0.6340 0.2528
H43 H 0.3578 0.4146 0.3120
C38 C 0.383(6) 0.514(3) 0.352(2)
H44 H 0.3764 0.6298 0.3772
H45 H -0.1164 0.5128 0.0778
C39 C -0.284(6) 0.521(4) 0.154(3)
H46 H -0.4175 0.5453 0.2339
H47 H 0.4512 0.4763 0.3829
H48 H -0.3550 0.4847 0.1464
P1_2 P 0.0633(17) 0.6940(9) 0.1968(7)
Au1_2 Au -0.1073(3) 0.81379(14) 0.22548(10)
Au3 Au 0.4747(3) 0.27901(14) 0.71100(11)
Au4 Au 0.4024(3) 0.36549(14) 0.57925(10)
Cu2 Cu 0.5149(13) 0.1276(5) 0.6047(4)
S3 S 0.660(3) 0.1865(10) 0.6585(7)
S4 S 0.277(2) 0.2398(10) 0.5965(7)
P3 P 1.299(2) 0.3692(11) 0.7661(7)
P4 P 0.5098(18) 0.4921(11) 0.5502(7)
O5 O 0.988(7) -0.101(3) 0.730(3)
O6 O 0.758(8) -0.134(4) 0.737(3)
O7 O 0.610(6) 0.198(3) 0.4930(16)
O8 O 0.507(6) 0.237(4) 0.4096(14)
N3 N 0.657(10) 0.008(4) 0.631(3)
H49 H 0.5909 -0.0320 0.6527
H50 H 0.7100 -0.0104 0.5971
N4 N 0.395(8) 0.082(4) 0.551(2)
H51 H 0.4635 0.0365 0.5374
H52 H 0.3027 0.0612 0.5733
C40 C 0.731(11) 0.078(6) 0.719(4)
C41 C 0.786(10) 0.012(4) 0.672(4)
H53 H 0.8854 0.0316 0.6439
C42 C 0.845(7) -0.076(3) 0.714(2)
C43 C 0.568(12) 0.052(6) 0.759(4)
H54 H 0.4888 0.0471 0.7310
H55 H 0.5956 -0.0060 0.7883
H56 H 0.5167 0.0975 0.7815
C44 C 0.875(12) 0.090(6) 0.753(4)
H57 H 0.9692 0.1062 0.7228
H58 H 0.8346 0.1366 0.7761
H59 H 0.9135 0.0331 0.7829
C45 C 0.208(8) 0.231(5) 0.524(3)
C46 C 0.341(6) 0.156(4) 0.496(2)
H60 H 0.2896 0.1343 0.4662
C47 C 0.489(5) 0.197(3) 0.4657(17)
C48 C 0.020(9) 0.219(6) 0.529(4)
H61 H 0.0031 0.1638 0.5594
H62 H -0.0536 0.2701 0.5416
H63 H -0.0068 0.2164 0.4879
C49 C 0.218(11) 0.320(4) 0.475(3)
H64 H 0.3324 0.3326 0.4689
H65 H 0.1865 0.3151 0.4350
H66 H 0.1397 0.3688 0.4886
C50 C 1.181(6) 0.301(4) 0.830(2)
C51 C 1.141(6) 0.221(4) 0.8251(19)
H67 H 1.1763 0.2013 0.7880
C52 C 1.050(7) 0.171(3) 0.874(2)
H68 H 1.0227 0.1170 0.8706
C53 C 0.998(6) 0.201(4) 0.929(2)
H69 H 0.9360 0.1665 0.9621
C54 C 1.038(6) 0.280(4) 0.934(2)
H70 H 1.0030 0.3003 0.9709
C55 C 1.129(7) 0.330(3) 0.885(3)
H71 H 1.1566 0.3846 0.8883
C56 C 1.436(7) 0.425(4) 0.795(4)
C57 C 1.594(7) 0.382(3) 0.813(3)
H72 H 1.6354 0.3225 0.8088
C58 C 1.692(6) 0.426(4) 0.836(4)
H73 H 1.7997 0.3969 0.8486
C59 C 1.631(7) 0.513(4) 0.842(4)
H74 H 1.6978 0.5434 0.8584
C60 C 1.473(7) 0.556(3) 0.824(4)
H75 H 1.4316 0.6154 0.8282
C61 C 1.375(6) 0.512(4) 0.801(4)
H76 H 1.2673 0.5409 0.7884
C62 C 0.352(6) 0.589(2) 0.529(3)
C63 C 0.381(5) 0.673(3) 0.529(3)
H77 H 0.4852 0.6797 0.5398
C64 C 0.258(6) 0.748(2) 0.512(3)
H78 H 0.2782 0.8055 0.5112
C65 C 0.106(6) 0.738(2) 0.495(2)
H79 H 0.0221 0.7895 0.4835
C66 C 0.077(5) 0.654(3) 0.496(3)
H80 H -0.0270 0.6476 0.4844
C67 C 0.200(6) 0.579(2) 0.513(3)
H81 H 0.1800 0.5217 0.5131
C68 C 0.664(5) 0.492(3) 0.4831(15)
C69 C 0.719(5) 0.569(2) 0.4467(18)
H82 H 0.6873 0.6236 0.4594
C70 C 0.821(5) 0.566(2) 0.3915(16)
H83 H 0.8588 0.6186 0.3666
C71 C 0.868(5) 0.486(3) 0.3728(14)
H84 H 0.9372 0.4841 0.3352
C72 C 0.812(5) 0.409(2) 0.4093(18)
H85 H 0.8441 0.3546 0.3965
C73 C 0.710(5) 0.412(2) 0.4644(16)
H86 H 0.6727 0.3596 0.4893
C74 C 1.132(6) 0.455(3) 0.723(2)
H87 H 1.0594 0.4862 0.7527
H88 H 1.1870 0.4993 0.6911
C75 C 1.017(4) 0.414(3) 0.6900(18)
H89 H 1.0865 0.3886 0.6567
H90 H 0.9703 0.3652 0.7208
C76 C 0.874(5) 0.485(3) 0.6621(16)
H91 H 0.9208 0.5350 0.6322
H92 H 0.8028 0.5095 0.6956
C77 C 0.764(5) 0.447(3) 0.628(2)
H93 H 0.7176 0.3962 0.6571
H94 H 0.8313 0.4258 0.5926
C78 C 0.621(6) 0.526(3) 0.605(2)
H95 H 0.6691 0.5801 0.5840
H96 H 0.5424 0.5385 0.6410
Au3_2 Au 1.4747(3) 0.27901(14) 0.71100(11)
P3_2 P 0.299(2) 0.3692(11) 0.7661(7)
O9 O 0.036(6) 0.351(3) 0.269(2)
O10 O 0.722(6) 0.284(3) 0.308(2)
O11 O 0.896(15) 0.077(8) 0.449(6)
O12 O 0.856(14) 0.923(7) 0.547(5)
O13 O 0.123(11) 0.721(6) 0.777(4)
O14 O 0.28(3) 0.957(13) 0.679(9)
O15 O 0.318(11) 0.226(6) 0.325(4)
O16 O 0.492(11) 0.290(6) 0.213(4)
O17 O 0.170(12) 0.085(6) 0.352(5)
O18 O 0.886(5) 0.265(3) 0.7762(19)
O19 O 0.457(4) 0.729(2) 0.2658(17)
O20 O 0.653(12) 0.408(6) 0.029(4)
O21 O 1.23(2) 0.697(12) 0.656(8)
O22 O 0.096(12) 0.382(6) 0.048(5)
O23 O 0.932(18) 0.467(10) -0.044(7)
loop_
_geom_bond_atom_site_label_1
_geom_bond_atom_site_label_2
_geom_bond_site_symmetry_1
_geom_bond_site_symmetry_2
Au1 Au2 1_555 1_555
Au2 S2 1_555 1_555
S1 Au1 1_555 1_555
P1 Au1 1_555 1_555
S2 Cu1 1_555 1_555
P2 Au2 1_555 1_555
Cu1 S1 1_555 1_555
C1 S1 1_555 1_555
C2 S2 1_555 1_555
C3 P2 1_555 1_555
C4 P2 1_555 1_555
C5 P2 1_555 1_555
O1 Cu1 1_555 1_555
N1 Cu1 1_555 1_555
N2 Cu1 1_555 1_555
C6 C1 1_555 1_555
C7 C1 1_555 1_555
C8 C1 1_555 1_555
C9 C2 1_555 1_555
C10 C2 1_555 1_555
C11 C2 1_555 1_555
C12 C3 1_555 1_555
C13 C3 1_555 1_555
C14 C4 1_555 1_555
C15 C4 1_555 1_555
C16 C5 1_555 1_555
H1 C5 1_555 1_555
H2 C5 1_555 1_555
C17 O1 1_555 1_555
H3 N1 1_555 1_555
H4 N1 1_555 1_555
H5 N2 1_555 1_555
H6 N2 1_555 1_555
H7 C6 1_555 1_555
C18 C6 1_555 1_555
H8 C7 1_555 1_555
H9 C7 1_555 1_555
H10 C7 1_555 1_555
H11 C8 1_555 1_555
H12 C8 1_555 1_555
H13 C8 1_555 1_555
H14 C9 1_555 1_555
H15 C10 1_555 1_555
H16 C10 1_555 1_555
H17 C10 1_555 1_555
H18 C11 1_555 1_555
H19 C11 1_555 1_555
H20 C11 1_555 1_555
H21 C12 1_555 1_555
C19 C12 1_555 1_555
C20 C13 1_555 1_555
H22 C13 1_555 1_555
H23 C14 1_555 1_555
C21 C14 1_555 1_555
C22 C15 1_555 1_555
H24 C15 1_555 1_555
C23 C16 1_555 1_555
H25 C16 1_555 1_555
H26 C16 1_555 1_555
O2 C17 1_555 1_555
O3 C18 1_555 1_555
O4 C18 1_555 1_555
H27 C19 1_555 1_555
C24 C19 1_555 1_555
H28 C20 1_555 1_555
H29 C21 1_555 1_555
C25 C21 1_555 1_555
H30 C22 1_555 1_555
C26 C23 1_555 1_555
H31 C23 1_555 1_555
H32 C23 1_555 1_555
H33 C24 1_555 1_555
H34 C25 1_555 1_555
C27 C26 1_555 1_555
H35 C26 1_555 1_555
H36 C26 1_555 1_555
H37 C27 1_555 1_555
H38 C27 1_555 1_555
C28 C30 1_555 1_555
C29 C32 1_555 1_555
C30 H39 1_555 1_555
C31 C28 1_555 1_555
C32 H41 1_555 1_555
C33 C29 1_555 1_555
C34 C30 1_555 1_555
C35 C31 1_555 1_555
H40 C31 1_555 1_555
C36 C32 1_555 1_555
C37 C33 1_555 1_555
H42 C33 1_555 1_555
H43 C34 1_555 1_555
C38 C34 1_555 1_555
H44 C35 1_555 1_555
H45 C36 1_555 1_555
C39 C36 1_555 1_555
H46 C37 1_555 1_555
H47 C38 1_555 1_555
H48 C39 1_555 1_555
Au3 Au4 1_555 1_555
Au4 S4 1_555 1_555
Cu2 S3 1_555 1_555
S3 Au3 1_555 1_555
S4 Cu2 1_555 1_555
P3 C50 1_555 1_555
P4 Au4 1_555 1_555
O5 C42 1_555 1_555
O6 C42 1_555 1_555
O7 Cu2 1_555 1_555
O8 C47 1_555 1_555
N3 Cu2 1_555 1_555
H49 N3 1_555 1_555
H50 N3 1_555 1_555
N4 Cu2 1_555 1_555
H51 N4 1_555 1_555
H52 N4 1_555 1_555
C40 S3 1_555 1_555
C41 N3 1_555 1_555
H53 C41 1_555 1_555
C42 C41 1_555 1_555
C43 C40 1_555 1_555
H54 C43 1_555 1_555
H55 C43 1_555 1_555
H56 C43 1_555 1_555
C44 C40 1_555 1_555
H57 C44 1_555 1_555
H58 C44 1_555 1_555
H59 C44 1_555 1_555
C45 S4 1_555 1_555
C46 N4 1_555 1_555
H60 C46 1_555 1_555
C47 O7 1_555 1_555
C48 C45 1_555 1_555
H61 C48 1_555 1_555
H62 C48 1_555 1_555
H63 C48 1_555 1_555
C49 C45 1_555 1_555
H64 C49 1_555 1_555
H65 C49 1_555 1_555
H66 C49 1_555 1_555
C50 C51 1_555 1_555
C51 H67 1_555 1_555
C52 C51 1_555 1_555
H68 C52 1_555 1_555
C53 C52 1_555 1_555
H69 C53 1_555 1_555
C54 C53 1_555 1_555
H70 C54 1_555 1_555
C55 C50 1_555 1_555
H71 C55 1_555 1_555
C56 P3 1_555 1_555
C57 C56 1_555 1_555
H72 C57 1_555 1_555
C58 C57 1_555 1_555
H73 C58 1_555 1_555
C59 C58 1_555 1_555
H74 C59 1_555 1_555
C60 C59 1_555 1_555
H75 C60 1_555 1_555
C61 C56 1_555 1_555
H76 C61 1_555 1_555
C62 P4 1_555 1_555
C63 C62 1_555 1_555
H77 C63 1_555 1_555
C64 C63 1_555 1_555
H78 C64 1_555 1_555
C65 C64 1_555 1_555
H79 C65 1_555 1_555
C66 C65 1_555 1_555
H80 C66 1_555 1_555
C67 C62 1_555 1_555
H81 C67 1_555 1_555
C68 P4 1_555 1_555
C69 C68 1_555 1_555
H82 C69 1_555 1_555
C70 C69 1_555 1_555
H83 C70 1_555 1_555
C71 C70 1_555 1_555
H84 C71 1_555 1_555
C72 C71 1_555 1_555
H85 C72 1_555 1_555
C73 C68 1_555 1_555
H86 C73 1_555 1_555
C74 P3 1_555 1_555
H87 C74 1_555 1_555
H88 C74 1_555 1_555
C75 C74 1_555 1_555
H89 C75 1_555 1_555
H90 C75 1_555 1_555
C76 C75 1_555 1_555
H91 C76 1_555 1_555
H92 C76 1_555 1_555
C77 C76 1_555 1_555
H93 C77 1_555 1_555
H94 C77 1_555 1_555
C78 P4 1_555 1_555
H95 C78 1_555 1_555
H96 C78 1_555 1_555
P1_2 C27 1_555 1_555
Au1_2 P1_2 1_555 1_555
Au3_2 P3 1_555 1_555
P3_2 Au3 1_555 1_555
N1 C6 1_555 1_555
N2 C9 1_555 1_555
C9 C17 1_555 1_555
C20 C24 1_555 1_555
C22 C25 1_555 1_555
C28 P1_2 1_555 1_555
C29 P1_2 1_555 1_555
C35 C38 1_555 1_555
C37 C39 1_555 1_555
C40 C41 1_555 1_555
C45 C46 1_555 1_555
C46 C47 1_555 1_555
C54 C55 1_555 1_555
C60 C61 1_555 1_555
C66 C67 1_555 1_555
C72 C73 1_555 1_555
C77 C78 1_555 1_555

#END
