
#######################################################################
#
#                 Cambridge Crystallographic Data Centre
#                                CCDC 
#
#######################################################################
#
# If this CIF has been generated from an entry in the Cambridge 
# Structural Database, then it will include bibliographic, chemical, 
# crystal, experimental, refinement or atomic coordinate data resulting 
# from the CCDC's data processing and validation procedures.
#
#######################################################################

data_MOVSAR
_symmetry_cell_setting           monoclinic
_symmetry_space_group_name_H-M   'C c'
_symmetry_Int_Tables_number      9
_space_group_name_Hall           'C -2yc'
loop_
_symmetry_equiv_pos_site_id
_symmetry_equiv_pos_as_xyz
1 x,y,z
2 x,-y,1/2+z
3 1/2+x,1/2+y,z
4 1/2+x,1/2-y,1/2+z
_cell_length_a                   16.1695(8)
_cell_length_b                   11.8116(6)
_cell_length_c                   7.0266(4)
_cell_angle_alpha                90
_cell_angle_beta                 99.5310(10)
_cell_angle_gamma                90
_cell_volume                     1323.47
loop_
_atom_site_label
_atom_site_type_symbol
_atom_site_fract_x
_atom_site_fract_y
_atom_site_fract_z
Cu1 Cu 0.13833(14) 0.24700(2) 0.1871(4)
S1 S 0.1390(3) 0.16330(5) 0.6889(6)
O1 O 0.0556(4) 0.1240(6) 0.2185(10)
N1 N 0.0465(5) 0.3637(7) 0.1541(11)
N2 N 0.2293(4) 0.3652(7) 0.2118(11)
O2 O 0.0688(4) 0.0899(6) 0.5866(10)
C1 C 0.2206(5) 0.4777(7) 0.2182(13)
O3 O 0.2065(4) 0.0899(6) 0.7820(9)
C2 C 0.0628(5) 0.4772(6) 0.1582(12)
C3 C 0.3115(5) 0.3308(7) 0.2494(13)
H1 H 0.3217(5) 0.2533(7) 0.2549(13)
O4 O 0.1710(6) 0.2293(6) 0.5433(13)
C4 C -0.0339(4) 0.3264(7) 0.1266(13)
N3 N 0.1370(7) 0.5223(2) 0.1933(23)
C5 C -0.1033(5) 0.3990(8) 0.0941(15)
C6 C 0.3772(6) 0.3986(9) 0.2784(15)
O5 O 0.2200(4) 0.1227(6) 0.1638(9)
C7 C -0.0867(6) 0.5194(9) 0.0909(16)
C8 C 0.3658(5) 0.5108(9) 0.2769(17)
H2 H 0.4118(5) 0.5592(9) 0.2986(17)
C9 C 0.2861(6) 0.5541(8) 0.2433(17)
C10 C -0.0062(6) 0.5539(8) 0.1201(16)
O6 O 0.1115(6) 0.2388(5) 0.8341(13)
H3 H -0.0428(30) 0.2435(37) 0.1403(68)
H4 H -0.1488(30) 0.3793(41) 0.1076(70)
H5 H -0.1251(29) 0.5645(44) 0.0678(70)
H6 H 0.0107(29) 0.6399(41) 0.1628(73)
H7 H 0.4382(31) 0.3646(43) 0.3298(74)
H8 H 0.2761(24) 0.6179(37) 0.2784(57)
H9 H 0.1406(24) 0.5812(25) 0.1416(44)
H10 H 0.0656(19) 0.0615(28) 0.1713(45)
H11 H 0.2245(29) 0.1080(38) 0.0129(68)
H12 H 0.0649(31) 0.1071(42) 0.2887(77)
O6_2 O 0.1115(6) 0.2388(5) -0.1659(13)
Cu1_2 Cu 0.13833(14) 0.24700(2) 1.1871(4)
loop_
_geom_bond_atom_site_label_1
_geom_bond_atom_site_label_2
_geom_bond_site_symmetry_1
_geom_bond_site_symmetry_2
Cu1 O1 1_555 1_555
S1 O2 1_555 1_555
O1 H10 1_555 1_555
N1 Cu1 1_555 1_555
N2 Cu1 1_555 1_555
C1 N2 1_555 1_555
O3 S1 1_555 1_555
C2 N1 1_555 1_555
C3 N2 1_555 1_555
H1 C3 1_555 1_555
O4 Cu1 1_555 1_555
C4 N1 1_555 1_555
N3 C1 1_555 1_555
C5 C4 1_555 1_555
C6 C3 1_555 1_555
O5 Cu1 1_555 1_555
C7 C5 1_555 1_555
C8 C6 1_555 1_555
H2 C8 1_555 1_555
C9 C1 1_555 1_555
C10 C2 1_555 1_555
O6 S1 1_555 1_555
H3 C4 1_555 1_555
H4 C5 1_555 1_555
H5 C7 1_555 1_555
H6 C10 1_555 1_555
H7 C6 1_555 1_555
H8 C9 1_555 1_555
H9 N3 1_555 1_555
H11 O5 1_555 1_555
H12 O1 1_555 1_555
O6_2 Cu1 1_555 1_555
Cu1_2 O6 1_555 1_555
S1 O4 1_555 1_555
C2 N3 1_555 1_555
C7 C10 1_555 1_555
C8 C9 1_555 1_555

#END
