
#######################################################################
#
#                 Cambridge Crystallographic Data Centre
#                                CCDC 
#
#######################################################################
#
# If this CIF has been generated from an entry in the Cambridge 
# Structural Database, then it will include bibliographic, chemical, 
# crystal, experimental, refinement or atomic coordinate data resulting 
# from the CCDC's data processing and validation procedures.
#
#######################################################################

data_MOVSIA
_symmetry_cell_setting           monoclinic
_symmetry_space_group_name_H-M   'P 21/c'
_symmetry_Int_Tables_number      14
_space_group_name_Hall           '-P 2ybc'
loop_
_symmetry_equiv_pos_site_id
_symmetry_equiv_pos_as_xyz
1 x,y,z
2 -x,1/2+y,1/2-z
3 -x,-y,-z
4 x,1/2-y,1/2+z
_cell_length_a                   10.4816(7)
_cell_length_b                   16.7672(7)
_cell_length_c                   16.0530(12)
_cell_angle_alpha                90
_cell_angle_beta                 106.582(4)
_cell_angle_gamma                90
_cell_volume                     2703.94
loop_
_atom_site_label
_atom_site_type_symbol
_atom_site_fract_x
_atom_site_fract_y
_atom_site_fract_z
Cu1 Cu -0.29848(3) 0.05668(2) -0.41779(2)
Cu2 Cu 0.15325(3) -0.03897(2) -0.94347(2)
O1 O -0.32521(17) 0.18973(11) -0.43090(11)
O2 O 0.11047(18) -0.17096(12) -0.96492(12)
H1 H 0.0473 -0.1773 -1.0084
H2 H 0.1688 -0.1984 -0.9645
O3 O -0.34595(18) 0.25559(14) -0.55448(12)
O5 O -0.91809(18) 0.25782(14) -0.40507(12)
O7 O -0.71832(19) 0.24587(16) -0.31339(12)
O8 O -0.84367(16) 0.23894(12) -0.69921(11)
H7 H -0.8006 0.2437 -0.7343
N1 N -0.2214(2) 0.03875(13) -0.51028(14)
N2 N 0.0771(2) -0.02321(14) -0.84962(14)
N3 N -0.3705(2) 0.03844(13) -0.32316(15)
N4 N -0.7458(2) -0.01926(14) -0.02416(14)
C1 C -0.3925(2) 0.22359(15) -0.49931(15)
C2 C -0.5417(2) 0.22786(13) -0.51574(15)
C3 C -0.5969(2) 0.23334(14) -0.44647(14)
H8 H -0.5424 0.2315 -0.3895
C4 C -0.7342(2) 0.24158(13) -0.46305(14)
C5 C -0.8148(2) 0.24257(14) -0.54815(15)
H9 H -0.9065 0.2472 -0.5591
C6 C -0.7599(2) 0.23669(14) -0.61778(14)
C7 C -0.6227(2) 0.22992(13) -0.60078(14)
H10 H -0.5851 0.2268 -0.6466
C8 C -0.7949(2) 0.24956(15) -0.38842(15)
C9 C -0.1312(3) 0.08942(16) -0.52392(18)
H11 H -0.1083 0.1338 -0.4881
C10 C -0.0705(3) 0.07887(16) -0.58868(18)
H12 H -0.0088 0.1161 -0.5961
C11 C -0.1011(2) 0.01295(14) -0.64291(15)
C12 C -0.1954(3) -0.03953(16) -0.62895(18)
H13 H -0.2205 -0.0841 -0.6643
C13 C -0.2518(3) -0.02528(17) -0.56251(18)
H14 H -0.3136 -0.0616 -0.5535
C14 C -0.0372(2) -0.00009(14) -0.71319(15)
C15 C -0.0289(3) -0.07524(16) -0.74720(18)
H15 H -0.0615 -0.1195 -0.7250
C16 C 0.0281(3) -0.08385(17) -0.81425(19)
H16 H 0.0326 -0.1348 -0.8361
C17 C 0.0711(3) 0.04969(17) -0.81574(19)
H17 H 0.1055 0.0929 -0.8386
C18 C 0.0162(3) 0.06289(16) -0.74838(19)
H18 H 0.0149 0.1142 -0.7265
C19 C -0.4058(4) -0.03441(18) -0.3041(2)
H19 H -0.3844 -0.0778 -0.3336
C20 C -0.4725(3) -0.04843(17) -0.2428(2)
H20 H -0.4947 -0.1003 -0.2317
C21 C -0.5063(2) 0.01471(14) -0.19786(15)
C22 C -0.4634(3) 0.08967(15) -0.21478(17)
H21 H -0.4789 0.1338 -0.1839
C23 C -0.3977(3) 0.09884(15) -0.27739(17)
H22 H -0.3711 0.1498 -0.2881
C24 C -0.5872(2) 0.00321(14) -0.13674(15)
C25 C -0.6548(3) -0.06755(17) -0.13532(19)
H23 H -0.6482 -0.1093 -0.1720
C26 C -0.7320(3) -0.07576(18) -0.07918(18)
H24 H -0.7770 -0.1236 -0.0798
C27 C -0.6803(3) 0.04935(16) -0.02556(19)
H25 H -0.6884 0.0901 0.0119
C28 C -0.6015(3) 0.06227(16) -0.07992(19)
H26 H -0.5578 0.1108 -0.0784
Cu2_2 Cu -0.84675(3) -0.03897(2) 0.05653(2)
N4_2 N 0.2542(2) -0.01926(14) -1.02416(14)
O4 O -0.3294(3) 0.29065(15) -0.22171(18)
H3 H -0.2358 0.2802 -0.2245
H4 H -0.3193 0.2819 -0.1685
O6 O -0.1283(2) 0.25832(15) -0.30198(19)
H5 H -0.1820 0.2297 -0.3498
H6 H -0.0585 0.2524 -0.3155
loop_
_geom_bond_atom_site_label_1
_geom_bond_atom_site_label_2
_geom_bond_site_symmetry_1
_geom_bond_site_symmetry_2
Cu1 O1 1_555 1_555
Cu2 O2 1_555 1_555
O1 C1 1_555 1_555
O2 H1 1_555 1_555
H2 O2 1_555 1_555
O3 C1 1_555 1_555
O4 H3 1_555 1_555
H4 O4 1_555 1_555
O5 C8 1_555 1_555
O6 H5 1_555 1_555
H6 O6 1_555 1_555
O7 C8 1_555 1_555
O8 H7 1_555 1_555
N1 Cu1 1_555 1_555
N2 Cu2 1_555 1_555
N3 Cu1 1_555 1_555
N4 C26 1_555 1_555
C1 C2 1_555 1_555
C2 C3 1_555 1_555
C3 H8 1_555 1_555
C4 C3 1_555 1_555
C5 C4 1_555 1_555
H9 C5 1_555 1_555
C6 O8 1_555 1_555
C7 C2 1_555 1_555
H10 C7 1_555 1_555
C8 C4 1_555 1_555
C9 N1 1_555 1_555
H11 C9 1_555 1_555
C10 C9 1_555 1_555
H12 C10 1_555 1_555
C11 C10 1_555 1_555
C12 C11 1_555 1_555
H13 C12 1_555 1_555
C13 N1 1_555 1_555
H14 C13 1_555 1_555
C14 C11 1_555 1_555
C15 C14 1_555 1_555
H15 C15 1_555 1_555
C16 N2 1_555 1_555
H16 C16 1_555 1_555
C17 N2 1_555 1_555
H17 C17 1_555 1_555
C18 C14 1_555 1_555
H18 C18 1_555 1_555
C19 N3 1_555 1_555
H19 C19 1_555 1_555
C20 C19 1_555 1_555
H20 C20 1_555 1_555
C21 C20 1_555 1_555
C22 C21 1_555 1_555
H21 C22 1_555 1_555
C23 N3 1_555 1_555
H22 C23 1_555 1_555
C24 C21 1_555 1_555
C25 C24 1_555 1_555
H23 C25 1_555 1_555
C26 C25 1_555 1_555
H24 C26 1_555 1_555
C27 N4 1_555 1_555
H25 C27 1_555 1_555
C28 C24 1_555 1_555
H26 C28 1_555 1_555
Cu2_2 N4 1_555 1_555
N4_2 Cu2 1_555 1_555
C5 C6 1_555 1_555
C6 C7 1_555 1_555
C12 C13 1_555 1_555
C15 C16 1_555 1_555
C17 C18 1_555 1_555
C22 C23 1_555 1_555
C27 C28 1_555 1_555

#END
