
#######################################################################
#
#                 Cambridge Crystallographic Data Centre
#                                CCDC 
#
#######################################################################
#
# If this CIF has been generated from an entry in the Cambridge 
# Structural Database, then it will include bibliographic, chemical, 
# crystal, experimental, refinement or atomic coordinate data resulting 
# from the CCDC's data processing and validation procedures.
#
#######################################################################

data_MOVSEW
_symmetry_cell_setting           monoclinic
_symmetry_space_group_name_H-M   'P 21/c'
_symmetry_Int_Tables_number      14
_space_group_name_Hall           '-P 2ybc'
loop_
_symmetry_equiv_pos_site_id
_symmetry_equiv_pos_as_xyz
1 x,y,z
2 -x,1/2+y,1/2-z
3 -x,-y,-z
4 x,1/2-y,1/2+z
_cell_length_a                   11.105(3)
_cell_length_b                   19.337(5)
_cell_length_c                   20.513(5)
_cell_angle_alpha                90
_cell_angle_beta                 94.632(4)
_cell_angle_gamma                90
_cell_volume                     4390.52
loop_
_atom_site_label
_atom_site_type_symbol
_atom_site_fract_x
_atom_site_fract_y
_atom_site_fract_z
Cu1 Cu 0.03781(5) 0.77997(4) 0.26655(3)
O1 O 0.0530(3) 0.8304(2) 0.34903(17)
O2 O 0.0223(16) 0.8992(8) 0.2128(8)
O3 O 0.0537(5) 0.7224(3) 0.3814(3)
O5 O 0.0307(4) 0.7786(3) 0.6901(2)
O7 O 0.0298(8) 0.6848(4) 0.6293(4)
O9 O 0.1055(8) 0.9760(3) 0.5497(2)
H1 H 0.1462 0.9935 0.5225
N1 N -0.1435(4) 0.7803(2) 0.2663(2)
N2 N -0.7804(4) 0.7795(2) 0.2663(2)
C1 C 0.0673(5) 0.8109(3) 0.4628(3)
C2 C 0.0503(5) 0.7670(3) 0.5147(3)
H3 H 0.0370 0.7201 0.5073
C3 C 0.0532(5) 0.7935(4) 0.5782(3)
C4 C 0.0725(7) 0.8629(4) 0.5889(3)
H4 H 0.0735 0.8809 0.6310
C5 C 0.0904(8) 0.9061(4) 0.5364(3)
C6 C 0.0854(6) 0.8808(3) 0.4738(3)
H5 H 0.0942 0.9105 0.4389
C7 C 0.0584(5) 0.7856(3) 0.3935(3)
C8 C 0.0337(6) 0.7469(5) 0.6352(4)
C9 C -0.2030(4) 0.8344(3) 0.2881(3)
H6 H -0.1591 0.8732 0.3026
C10 C -0.3263(4) 0.8354(3) 0.2902(3)
H7 H -0.3641 0.8744 0.3054
C11 C -0.3947(4) 0.7780(2) 0.2695(2)
C12 C -0.3307(4) 0.7213(3) 0.2470(3)
H8 H -0.3719 0.6815 0.2328
C13 C -0.2098(4) 0.7245(3) 0.2460(3)
H9 H -0.1697 0.6864 0.2305
C14 C -0.5281(4) 0.7785(3) 0.2684(2)
C15 C -0.5945(4) 0.8402(3) 0.2654(3)
H10 H -0.5545 0.8824 0.2639
C16 C -0.7171(5) 0.8387(3) 0.2646(3)
H11 H -0.7590 0.8804 0.2628
C17 C -0.7178(5) 0.7198(3) 0.2699(3)
H12 H -0.7602 0.6784 0.2716
C18 C -0.5941(5) 0.7172(3) 0.2710(3)
H13 H -0.5545 0.6748 0.2735
Cu1C Cu 0.03781(5) 0.72003(4) -0.23345(3)
Cu1C_2 Cu 0.03781(5) 0.72003(4) 0.76655(3)
Cu1_2 Cu -0.96219(5) 0.77997(4) 0.26655(3)
Cu1_3 Cu 1.03781(5) 0.77997(4) 0.26655(3)
O1C O 0.0530(3) 0.6696(2) -0.15097(17)
O2C O 0.0223(16) 0.6008(8) -0.2872(8)
O3C O 0.0537(5) 0.7776(3) -0.1186(3)
O5C O 0.0307(4) 0.7214(3) 0.1901(2)
O5_2 O 0.0307(4) 0.7786(3) -0.3099(2)
O7C O 0.0298(8) 0.8152(4) 0.1293(4)
O9C O 0.1055(8) 0.5240(3) 0.0497(2)
H1C H 0.1462 0.5065 0.0225
N1_2 N 0.8565(4) 0.7803(2) 0.2663(2)
N1C N -0.1435(4) 0.7197(2) -0.2337(2)
N2_2 N 0.2196(4) 0.7795(2) 0.2663(2)
N2C N 0.2196(4) 0.7205(2) -0.2337(2)
C1C C 0.0673(5) 0.6891(3) -0.0372(3)
C2C C 0.0503(5) 0.7330(3) 0.0147(3)
H3C H 0.0370 0.7799 0.0073
C3C C 0.0532(5) 0.7065(4) 0.0782(3)
C4C C 0.0725(7) 0.6371(4) 0.0889(3)
H4C H 0.0735 0.6191 0.1310
C5C C 0.0904(8) 0.5939(4) 0.0364(3)
C6C C 0.0854(6) 0.6192(3) -0.0262(3)
H5C H 0.0942 0.5895 -0.0611
C7C C 0.0584(5) 0.7144(3) -0.1065(3)
C8C C 0.0337(6) 0.7531(5) 0.1352(4)
C9_2 C 0.7970(4) 0.8344(3) 0.2881(3)
H6_2 H 0.8409 0.8732 0.3026
C10_2 C 0.6737(4) 0.8354(3) 0.2902(3)
H7_2 H 0.6359 0.8744 0.3054
C11_2 C 0.6053(4) 0.7780(2) 0.2695(2)
C12_2 C 0.6693(4) 0.7213(3) 0.2470(3)
H8_2 H 0.6281 0.6815 0.2328
C13_2 C 0.7902(4) 0.7245(3) 0.2460(3)
H9_2 H 0.8303 0.6864 0.2305
C14_2 C 0.4719(4) 0.7785(3) 0.2684(2)
C15_2 C 0.4055(4) 0.8402(3) 0.2654(3)
H10_2 H 0.4455 0.8824 0.2639
C16_2 C 0.2829(5) 0.8387(3) 0.2646(3)
H11_2 H 0.2410 0.8804 0.2628
C17_2 C 0.2822(5) 0.7198(3) 0.2699(3)
H12_2 H 0.2398 0.6784 0.2716
C18_2 C 0.4059(5) 0.7172(3) 0.2710(3)
H13_2 H 0.4455 0.6748 0.2735
Cu2 Cu 0.28830(7) 0.43823(3) 0.52237(3)
Cu3 Cu 0.5000 0.5000 1.0000
O4 O 0.0793(7) 0.4396(5) 0.4662(5)
O6 O 0.3413(8) 0.4519(4) 1.0758(4)
O11 O 0.2296(4) 0.4418(2) 0.60791(18)
O13 O 0.4105(4) 0.4301(2) 0.6619(2)
O15 O 0.4162(5) 0.4872(2) 0.9105(3)
O16 O 0.2432(7) 0.4727(3) 0.9552(2)
O17 O -0.0688(5) 0.4813(6) 0.7709(3)
H2 H -0.0971 0.4807 0.7327
O18 O 0.3525(5) 0.4290(2) 0.43772(19)
O19 O 0.3952(6) 0.3525(2) 0.3623(2)
N3 N 0.6820(4) 0.0417(2) 0.9804(2)
N4 N 0.5603(5) 0.4007(2) 0.9963(2)
N5 N 0.2828(4) 0.3344(2) 0.5167(2)
C19 C 0.2414(5) 0.4567(3) 0.7221(2)
C20 C 0.3047(5) 0.4626(3) 0.7828(3)
H14 H 0.3885 0.4594 0.7867
C21 C 0.2414(6) 0.4734(3) 0.8385(2)
C22 C 0.1198(7) 0.4794(4) 0.8334(3)
H15 H 0.0790 0.4866 0.8707
C23 C 0.0563(7) 0.4750(5) 0.7731(3)
C24 C 0.1176(6) 0.4632(4) 0.7180(3)
H16 H 0.0742 0.4595 0.6774
C25 C 0.3005(5) 0.4419(2) 0.6605(3)
C26 C 0.3015(8) 0.4783(3) 0.9072(3)
C27 C 0.6190(5) 0.0696(3) 1.0277(3)
H17 H 0.5873 0.0402 1.0578
C28 C 0.5999(6) 0.1396(3) 1.0329(3)
H18 H 0.5570 0.1568 1.0665
C29 C 0.6449(5) 0.1848(3) 0.9878(2)
C30 C 0.7096(5) 0.1558(3) 0.9401(3)
H19 H 0.7420 0.1840 0.9092
C31 C 0.7265(5) 0.0857(3) 0.9381(3)
H20 H 0.7712 0.0678 0.9056
C32 C 0.6207(5) 0.2605(3) 0.9907(3)
C33 C 0.6005(6) 0.2930(3) 1.0492(3)
H21 H 0.6076 0.2681 1.0881
C34 C 0.5697(6) 0.3625(3) 1.0499(3)
H22 H 0.5550 0.3830 1.0895
C35 C 0.5847(6) 0.3715(3) 0.9399(3)
H23 H 0.5817 0.3985 0.9023
C36 C 0.6145(5) 0.3015(3) 0.9360(3)
H24 H 0.6304 0.2826 0.8959
C37 C 0.2455(6) 0.2888(3) 0.5592(3)
H25 H 0.2230 0.3042 0.5994
C38 C 0.2390(6) 0.2185(3) 0.5450(3)
H26 H 0.2158 0.1871 0.5760
C39 C 0.2674(6) 0.1960(3) 0.4846(3)
H27 H 0.2602 0.1495 0.4734
C40 C 0.3066(6) 0.2434(3) 0.4411(3)
H28 H 0.3279 0.2291 0.4003
C41 C 0.3140(5) 0.3118(3) 0.4583(2)
C42 C 0.3576(6) 0.3673(3) 0.4153(3)
Cu2B Cu 0.71170(7) 0.56177(3) 1.47763(3)
Cu2A Cu 0.71170(7) -0.06177(3) 0.97763(3)
Cu2C Cu 0.28830(7) 1.06177(3) 1.02237(3)
O4B O 0.9207(7) 0.5604(5) 1.5338(5)
O6B O 0.6587(8) 0.5481(4) 0.9242(4)
O11B O 0.7704(4) 0.5582(2) 1.39209(18)
O13B O 0.5895(4) 0.5699(2) 1.3381(2)
O15B O 0.5838(5) 0.5128(2) 1.0895(3)
O16B O 0.7568(7) 0.5273(3) 1.0448(2)
O17B O 1.0688(5) 0.5187(6) 1.2291(3)
H2B H 1.0971 0.5193 1.2673
O18B O 0.6475(5) 0.5710(2) 1.56228(19)
O19B O 0.6048(6) 0.6475(2) 1.6377(2)
N3B N 0.3180(4) 0.9583(2) 1.0196(2)
N3A N 0.3180(4) 0.5417(2) 0.5196(2)
N3C N 0.6820(4) 0.4583(2) 1.4804(2)
N4B N 0.4397(5) 0.5993(2) 1.0037(2)
N5B N 0.7172(4) 0.6656(2) 1.4833(2)
C19B C 0.7586(5) 0.5433(3) 1.2779(2)
C20B C 0.6953(5) 0.5374(3) 1.2172(3)
H14B H 0.6115 0.5406 1.2133
C21B C 0.7586(6) 0.5266(3) 1.1615(2)
C22B C 0.8802(7) 0.5206(4) 1.1666(3)
H15B H 0.9210 0.5134 1.1293
C23B C 0.9437(7) 0.5250(5) 1.2269(3)
C24B C 0.8824(6) 0.5368(4) 1.2820(3)
H16B H 0.9258 0.5405 1.3226
C25B C 0.6995(5) 0.5581(2) 1.3395(3)
C26B C 0.6985(8) 0.5217(3) 1.0928(3)
C27B C 0.3810(5) 0.9304(3) 0.9723(3)
H17B H 0.4127 0.9598 0.9422
C28B C 0.4001(6) 0.8604(3) 0.9671(3)
H18B H 0.4430 0.8432 0.9335
C29B C 0.3551(5) 0.8152(3) 1.0122(2)
C30B C 0.2904(5) 0.8442(3) 1.0599(3)
H19B H 0.2580 0.8160 1.0908
C31B C 0.2735(5) 0.9143(3) 1.0619(3)
H20B H 0.2288 0.9322 1.0944
C32B C 0.3793(5) 0.7395(3) 1.0093(3)
C33B C 0.3995(6) 0.7070(3) 0.9508(3)
H21B H 0.3924 0.7319 0.9119
C34B C 0.4303(6) 0.6375(3) 0.9501(3)
H22B H 0.4450 0.6170 0.9105
C35B C 0.4153(6) 0.6285(3) 1.0601(3)
H23B H 0.4183 0.6015 1.0977
C36B C 0.3855(5) 0.6985(3) 1.0640(3)
H24B H 0.3696 0.7174 1.1041
C37B C 0.7545(6) 0.7112(3) 1.4408(3)
H25B H 0.7770 0.6958 1.4006
C38B C 0.7610(6) 0.7815(3) 1.4550(3)
H26B H 0.7842 0.8129 1.4240
C39B C 0.7326(6) 0.8040(3) 1.5154(3)
H27B H 0.7398 0.8505 1.5266
C40B C 0.6934(6) 0.7566(3) 1.5589(3)
H28B H 0.6721 0.7709 1.5997
C41B C 0.6860(5) 0.6882(3) 1.5417(2)
C42B C 0.6424(6) 0.6327(3) 1.5847(3)
O8 O 0.0675(8) 0.5952(4) 0.4321(4)
O10 O -0.3032(8) 0.4678(5) 0.8172(3)
O12 O -0.1830(8) 0.4801(7) 0.6578(5)
O14 O 0.5892(6) 0.5205(3) 0.7035(3)
loop_
_geom_bond_atom_site_label_1
_geom_bond_atom_site_label_2
_geom_bond_site_symmetry_1
_geom_bond_site_symmetry_2
Cu1 O1 1_555 1_555
Cu2 O4 1_555 1_555
Cu3 O6 1_555 1_555
O1 C7 1_555 1_555
O2 Cu1 1_555 1_555
O3 Cu1 1_555 1_555
O5 C8 1_555 1_555
O7 C8 1_555 1_555
O9 H1 1_555 1_555
O11 Cu2 1_555 1_555
O13 C25 1_555 1_555
O15 Cu3 1_555 1_555
O16 C26 1_555 1_555
O17 H2 1_555 1_555
O18 Cu2 1_555 1_555
O19 C42 1_555 1_555
N1 Cu1 1_555 1_555
N2 C16 1_555 1_555
N3 C27 1_555 1_555
N4 Cu3 1_555 1_555
N5 Cu2 1_555 1_555
C1 C2 1_555 1_555
C2 H3 1_555 1_555
C3 C2 1_555 1_555
C4 C3 1_555 1_555
H4 C4 1_555 1_555
C5 O9 1_555 1_555
C6 C1 1_555 1_555
H5 C6 1_555 1_555
C7 O3 1_555 1_555
C8 C3 1_555 1_555
C9 N1 1_555 1_555
H6 C9 1_555 1_555
C10 C9 1_555 1_555
H7 C10 1_555 1_555
C11 C10 1_555 1_555
C12 C11 1_555 1_555
H8 C12 1_555 1_555
C13 N1 1_555 1_555
H9 C13 1_555 1_555
C14 C11 1_555 1_555
C15 C14 1_555 1_555
H10 C15 1_555 1_555
C16 C15 1_555 1_555
H11 C16 1_555 1_555
C17 N2 1_555 1_555
H12 C17 1_555 1_555
C18 C14 1_555 1_555
H13 C18 1_555 1_555
C19 C20 1_555 1_555
C20 H14 1_555 1_555
C21 C20 1_555 1_555
C22 C21 1_555 1_555
H15 C22 1_555 1_555
C23 O17 1_555 1_555
C24 C19 1_555 1_555
H16 C24 1_555 1_555
C25 O11 1_555 1_555
C26 O15 1_555 1_555
C27 H17 1_555 1_555
C28 C27 1_555 1_555
H18 C28 1_555 1_555
C29 C28 1_555 1_555
C30 C29 1_555 1_555
H19 C30 1_555 1_555
C31 N3 1_555 1_555
H20 C31 1_555 1_555
C32 C29 1_555 1_555
C33 C32 1_555 1_555
H21 C33 1_555 1_555
C34 N4 1_555 1_555
H22 C34 1_555 1_555
C35 N4 1_555 1_555
H23 C35 1_555 1_555
C36 C32 1_555 1_555
H24 C36 1_555 1_555
C37 N5 1_555 1_555
H25 C37 1_555 1_555
C38 C37 1_555 1_555
H26 C38 1_555 1_555
C39 C38 1_555 1_555
H27 C39 1_555 1_555
C40 C39 1_555 1_555
H28 C40 1_555 1_555
C41 N5 1_555 1_555
C42 O18 1_555 1_555
Cu1C O1C 1_555 1_555
Cu1C_2 O5 1_555 1_555
Cu1_2 N2 1_555 1_555
Cu1_3 N1_2 1_555 1_555
Cu2B O4B 1_555 1_555
Cu2A N3 1_555 1_555
Cu2C N3B 1_555 1_555
O1C C7C 1_555 1_555
O2C Cu1C 1_555 1_555
O3C Cu1C 1_555 1_555
O5C Cu1 1_555 1_555
O5_2 Cu1C 1_555 1_555
O6B Cu3 1_555 1_555
O7C C8C 1_555 1_555
O9C H1C 1_555 1_555
O11B Cu2B 1_555 1_555
O13B C25B 1_555 1_555
O15B Cu3 1_555 1_555
O16B C26B 1_555 1_555
O17B H2B 1_555 1_555
O18B Cu2B 1_555 1_555
O19B C42B 1_555 1_555
N1_2 C9_2 1_555 1_555
N1C Cu1C 1_555 1_555
N2_2 Cu1 1_555 1_555
N2C Cu1C 1_555 1_555
N3B C27B 1_555 1_555
N3A Cu2 1_555 1_555
N3C Cu2B 1_555 1_555
N4B Cu3 1_555 1_555
N5B Cu2B 1_555 1_555
C1C C2C 1_555 1_555
C2C H3C 1_555 1_555
C3C C2C 1_555 1_555
C4C C3C 1_555 1_555
H4C C4C 1_555 1_555
C5C O9C 1_555 1_555
C6C C1C 1_555 1_555
H5C C6C 1_555 1_555
C7C O3C 1_555 1_555
C8C O5C 1_555 1_555
C9_2 H6_2 1_555 1_555
C10_2 C9_2 1_555 1_555
H7_2 C10_2 1_555 1_555
C11_2 C10_2 1_555 1_555
C12_2 C11_2 1_555 1_555
H8_2 C12_2 1_555 1_555
C13_2 N1_2 1_555 1_555
H9_2 C13_2 1_555 1_555
C14_2 C11_2 1_555 1_555
C15_2 C14_2 1_555 1_555
H10_2 C15_2 1_555 1_555
C16_2 N2_2 1_555 1_555
H11_2 C16_2 1_555 1_555
C17_2 N2_2 1_555 1_555
H12_2 C17_2 1_555 1_555
C18_2 C14_2 1_555 1_555
H13_2 C18_2 1_555 1_555
C19B C20B 1_555 1_555
C20B H14B 1_555 1_555
C21B C20B 1_555 1_555
C22B C21B 1_555 1_555
H15B C22B 1_555 1_555
C23B O17B 1_555 1_555
C24B C19B 1_555 1_555
H16B C24B 1_555 1_555
C25B O11B 1_555 1_555
C26B O15B 1_555 1_555
C27B H17B 1_555 1_555
C28B C27B 1_555 1_555
H18B C28B 1_555 1_555
C29B C28B 1_555 1_555
C30B C29B 1_555 1_555
H19B C30B 1_555 1_555
C31B N3B 1_555 1_555
H20B C31B 1_555 1_555
C32B C29B 1_555 1_555
C33B C32B 1_555 1_555
H21B C33B 1_555 1_555
C34B N4B 1_555 1_555
H22B C34B 1_555 1_555
C35B N4B 1_555 1_555
H23B C35B 1_555 1_555
C36B C32B 1_555 1_555
H24B C36B 1_555 1_555
C37B N5B 1_555 1_555
H25B C37B 1_555 1_555
C38B C37B 1_555 1_555
H26B C38B 1_555 1_555
C39B C38B 1_555 1_555
H27B C39B 1_555 1_555
C40B C39B 1_555 1_555
H28B C40B 1_555 1_555
C41B N5B 1_555 1_555
C42B O18B 1_555 1_555
C1 C7 1_555 1_555
C4 C5 1_555 1_555
C5 C6 1_555 1_555
C12 C13 1_555 1_555
C17 C18 1_555 1_555
C19 C25 1_555 1_555
C21 C26 1_555 1_555
C22 C23 1_555 1_555
C23 C24 1_555 1_555
C30 C31 1_555 1_555
C33 C34 1_555 1_555
C35 C36 1_555 1_555
C40 C41 1_555 1_555
C41 C42 1_555 1_555
C1C C7C 1_555 1_555
C3C C8C 1_555 1_555
C4C C5C 1_555 1_555
C5C C6C 1_555 1_555
C12_2 C13_2 1_555 1_555
C15_2 C16_2 1_555 1_555
C17_2 C18_2 1_555 1_555
C19B C25B 1_555 1_555
C21B C26B 1_555 1_555
C22B C23B 1_555 1_555
C23B C24B 1_555 1_555
C30B C31B 1_555 1_555
C33B C34B 1_555 1_555
C35B C36B 1_555 1_555
C40B C41B 1_555 1_555
C41B C42B 1_555 1_555

#END
