
#######################################################################
#
#                 Cambridge Crystallographic Data Centre
#                                CCDC 
#
#######################################################################
#
# If this CIF has been generated from an entry in the Cambridge 
# Structural Database, then it will include bibliographic, chemical, 
# crystal, experimental, refinement or atomic coordinate data resulting 
# from the CCDC's data processing and validation procedures.
#
#######################################################################

data_MOVTUO
_symmetry_cell_setting           triclinic
_symmetry_space_group_name_H-M   'P -1'
_symmetry_Int_Tables_number      2
_space_group_name_Hall           '-P 1'
loop_
_symmetry_equiv_pos_site_id
_symmetry_equiv_pos_as_xyz
1 x,y,z
2 -x,-y,-z
_cell_length_a                   7.843(2)
_cell_length_b                   10.395(3)
_cell_length_c                   12.745(4)
_cell_angle_alpha                108.462(4)
_cell_angle_beta                 93.572(4)
_cell_angle_gamma                107.288(4)
_cell_volume                     926.931
loop_
_atom_site_label
_atom_site_type_symbol
_atom_site_fract_x
_atom_site_fract_y
_atom_site_fract_z
Co1 Co -0.33762(9) 0.52277(7) -0.11734(5)
N1 N -0.1867(5) 0.6996(4) 0.0340(3)
N2 N 0.5027(5) 1.3560(4) 0.7297(3)
O1 O -0.2041(4) 0.6651(3) -0.2211(3)
O2 O -0.0875(4) 0.5239(4) -0.1698(3)
O3 O 0.4539(4) 0.5957(3) -0.1083(2)
O4 O 0.3400(4) 0.6314(3) 0.0519(2)
C1 C 0.0924(7) 0.6731(5) -0.2580(4)
C2 C 0.2622(7) 0.7410(5) -0.1883(4)
C3 C 0.4113(7) 0.7914(6) -0.2348(5)
H1 H 0.5242 0.8397 -0.1888
C4 C 0.3970(8) 0.7719(6) -0.3478(5)
H2 H 0.5001 0.8045 -0.3772
C5 C 0.2310(8) 0.7046(6) -0.4168(5)
H3 H 0.2202 0.6916 -0.4928
C6 C 0.0798(7) 0.6563(5) -0.3708(4)
H4 H -0.0332 0.6113 -0.4169
C7 C -0.0771(7) 0.6174(5) -0.2143(4)
C8 C 0.2882(6) 0.7594(5) -0.0652(4)
H5 H 0.1720 0.7481 -0.0403
H6 H 0.3681 0.8566 -0.0227
C9 C 0.3676(6) 0.6530(5) -0.0386(4)
C10 C -0.0874(6) 0.6769(5) 0.1114(4)
H7 H -0.0845 0.5843 0.0981
C11 C 0.0108(6) 0.7848(5) 0.2098(4)
H8 H 0.0762 0.7637 0.2617
C12 C 0.0123(6) 0.9241(5) 0.2317(4)
C13 C -0.0828(7) 0.9478(5) 0.1490(4)
H9 H -0.0810 1.0405 0.1577
C14 C -0.1807(7) 0.8338(5) 0.0529(4)
H10 H -0.2455 0.8524 -0.0009
C15 C 0.1141(6) 1.0437(5) 0.3348(4)
H11 H 0.1345 1.1369 0.3356
C16 C 0.1791(6) 1.0283(5) 0.4270(4)
H12 H 0.1549 0.9345 0.4254
C17 C 0.2855(6) 1.1441(5) 0.5318(4)
C18 C 0.3709(7) 1.1100(5) 0.6112(4)
H13 H 0.3573 1.0143 0.5998
C19 C 0.4777(7) 1.2178(6) 0.7084(4)
H14 H 0.5341 1.1919 0.7610
C20 C 0.4184(7) 1.3886(5) 0.6541(4)
H15 H 0.4316 1.4848 0.6683
C21 C 0.3116(7) 1.2873(6) 0.5549(4)
H16 H 0.2573 1.3163 0.5037
Co1_2 Co 0.66238(9) 0.52277(7) -0.11734(5)
Co1_3 Co 0.66238(9) 1.52277(7) 0.88266(5)
Co1A Co 0.33762(9) 0.47723(7) 0.11734(5)
N2_2 N -0.4973(5) 0.3560(4) -0.2703(3)
O3_2 O -0.5461(4) 0.5957(3) -0.1083(2)
O4A O -0.3400(4) 0.3686(3) -0.0519(2)
loop_
_geom_bond_atom_site_label_1
_geom_bond_atom_site_label_2
_geom_bond_site_symmetry_1
_geom_bond_site_symmetry_2
Co1 N1 1_555 1_555
N1 C10 1_555 1_555
N2 C19 1_555 1_555
O1 Co1 1_555 1_555
O2 Co1 1_555 1_555
O3 C9 1_555 1_555
O4 C9 1_555 1_555
C1 C2 1_555 1_555
C2 C3 1_555 1_555
C3 H1 1_555 1_555
C4 C3 1_555 1_555
H2 C4 1_555 1_555
C5 C4 1_555 1_555
H3 C5 1_555 1_555
C6 C1 1_555 1_555
H4 C6 1_555 1_555
C7 O1 1_555 1_555
C8 C2 1_555 1_555
H5 C8 1_555 1_555
H6 C8 1_555 1_555
C9 C8 1_555 1_555
C10 H7 1_555 1_555
C11 C10 1_555 1_555
H8 C11 1_555 1_555
C12 C11 1_555 1_555
C13 C12 1_555 1_555
H9 C13 1_555 1_555
C14 N1 1_555 1_555
H10 C14 1_555 1_555
C15 C12 1_555 1_555
H11 C15 1_555 1_555
C16 C15 1_555 1_555
H12 C16 1_555 1_555
C17 C16 1_555 1_555
C18 C17 1_555 1_555
H13 C18 1_555 1_555
C19 C18 1_555 1_555
H14 C19 1_555 1_555
C20 N2 1_555 1_555
H15 C20 1_555 1_555
C21 C17 1_555 1_555
H16 C21 1_555 1_555
Co1_2 O3 1_555 1_555
Co1_3 N2 1_555 1_555
Co1A O4 1_555 1_555
N2_2 Co1 1_555 1_555
O3_2 Co1 1_555 1_555
O4A Co1 1_555 1_555
O2 C7 1_555 1_555
C1 C7 1_555 1_555
C5 C6 1_555 1_555
C13 C14 1_555 1_555
C20 C21 1_555 1_555

#END
