
#######################################################################
#
#                 Cambridge Crystallographic Data Centre
#                                CCDC 
#
#######################################################################
#
# If this CIF has been generated from an entry in the Cambridge 
# Structural Database, then it will include bibliographic, chemical, 
# crystal, experimental, refinement or atomic coordinate data resulting 
# from the CCDC's data processing and validation procedures.
#
#######################################################################

data_MOVVEA
_symmetry_cell_setting           monoclinic
_symmetry_space_group_name_H-M   'P 21/n'
_symmetry_Int_Tables_number      14
_space_group_name_Hall           '-P 2yn'
loop_
_symmetry_equiv_pos_site_id
_symmetry_equiv_pos_as_xyz
1 x,y,z
2 1/2-x,1/2+y,1/2-z
3 -x,-y,-z
4 1/2+x,1/2-y,1/2+z
_cell_length_a                   6.1802(11)
_cell_length_b                   11.754(2)
_cell_length_c                   12.715(2)
_cell_angle_alpha                90
_cell_angle_beta                 102.782(2)
_cell_angle_gamma                90
_cell_volume                     900.755
loop_
_atom_site_label
_atom_site_type_symbol
_atom_site_fract_x
_atom_site_fract_y
_atom_site_fract_z
Cu1 Cu 0.0000 0.0000 0.5000
N1 N 0.0580(3) 0.08988(15) 0.37808(15)
O1 O -0.2199(3) 0.11777(14) 0.49944(14)
O2 O -0.3712(3) 0.27138(16) 0.41777(16)
O3 O -0.3736(4) 0.37790(19) 0.25510(19)
H1 H -0.3635 0.3440 0.3124
O4 O -0.2071(3) 0.37876(17) 0.12107(16)
C1 C 0.2088(4) 0.06316(19) 0.32244(19)
H2 H 0.3085 0.0049 0.3477
C2 C 0.2238(4) 0.1186(2) 0.2281(2)
C3 C 0.0749(4) 0.2062(2) 0.1948(2)
H3 H 0.0794 0.2451 0.1316
C4 C -0.0823(4) 0.23788(19) 0.25335(19)
C5 C -0.0861(4) 0.17644(18) 0.34719(18)
C6 C -0.2385(4) 0.1903(2) 0.42617(19)
C7 C -0.2301(4) 0.3376(2) 0.2052(2)
C8 C 0.3894(4) 0.0796(2) 0.1648(2)
H4 H 0.5277 0.0604 0.2144
H5 H 0.4188 0.1415 0.1194
C9 C 0.3070(5) -0.0226(3) 0.0950(3)
H6 H 0.2535 -0.0792 0.1375
H7 H 0.4264 -0.0537 0.0670
H8 H 0.1888 0.0002 0.0363
N1B N -0.0580(3) -0.08988(15) 0.62192(15)
O1B O 0.2199(3) -0.11777(14) 0.50056(14)
O2B O 0.3712(3) -0.27138(16) 0.58223(16)
O3B O 0.3736(4) -0.37790(19) 0.74490(19)
H1B H 0.3635 -0.3440 0.6876
O4B O 0.2071(3) -0.37876(17) 0.87893(16)
C1B C -0.2088(4) -0.06316(19) 0.67756(19)
H2B H -0.3085 -0.0049 0.6523
C2B C -0.2238(4) -0.1186(2) 0.7719(2)
C3B C -0.0749(4) -0.2062(2) 0.8052(2)
H3B H -0.0794 -0.2451 0.8684
C4B C 0.0823(4) -0.23788(19) 0.74665(19)
C5B C 0.0861(4) -0.17644(18) 0.65281(18)
C6B C 0.2385(4) -0.1903(2) 0.57383(19)
C7B C 0.2301(4) -0.3376(2) 0.7948(2)
C8B C -0.3894(4) -0.0796(2) 0.8352(2)
H4B H -0.5277 -0.0604 0.7856
H5B H -0.4188 -0.1415 0.8806
C9B C -0.3070(5) 0.0226(3) 0.9050(3)
H6B H -0.2535 0.0792 0.8625
H7B H -0.4264 0.0537 0.9330
H8B H -0.1888 -0.0002 0.9637
Cu1A Cu -0.5000 0.5000 0.0000
Cu1A_2 Cu 0.5000 -0.5000 1.0000
O4A O -0.2929(3) -0.12124(17) 0.37893(16)
O4C O 0.2929(3) 0.12124(17) 0.62107(16)
loop_
_geom_bond_atom_site_label_1
_geom_bond_atom_site_label_2
_geom_bond_site_symmetry_1
_geom_bond_site_symmetry_2
Cu1 N1 1_555 1_555
N1 C1 1_555 1_555
O1 Cu1 1_555 1_555
O2 C6 1_555 1_555
O3 H1 1_555 1_555
O4 C7 1_555 1_555
C1 H2 1_555 1_555
C2 C1 1_555 1_555
C3 C2 1_555 1_555
H3 C3 1_555 1_555
C4 C3 1_555 1_555
C5 N1 1_555 1_555
C6 O1 1_555 1_555
C7 O3 1_555 1_555
C8 C2 1_555 1_555
H4 C8 1_555 1_555
H5 C8 1_555 1_555
C9 C8 1_555 1_555
H6 C9 1_555 1_555
H7 C9 1_555 1_555
H8 C9 1_555 1_555
N1B Cu1 1_555 1_555
O1B Cu1 1_555 1_555
O2B C6B 1_555 1_555
O3B H1B 1_555 1_555
O4B C7B 1_555 1_555
C1B N1B 1_555 1_555
H2B C1B 1_555 1_555
C2B C1B 1_555 1_555
C3B C2B 1_555 1_555
H3B C3B 1_555 1_555
C4B C3B 1_555 1_555
C5B N1B 1_555 1_555
C6B O1B 1_555 1_555
C7B O3B 1_555 1_555
C8B C2B 1_555 1_555
H4B C8B 1_555 1_555
H5B C8B 1_555 1_555
C9B C8B 1_555 1_555
H6B C9B 1_555 1_555
H7B C9B 1_555 1_555
H8B C9B 1_555 1_555
Cu1A O4 1_555 1_555
Cu1A_2 O4B 1_555 1_555
O4A Cu1 1_555 1_555
O4C Cu1 1_555 1_555
C4 C5 1_555 1_555
C4 C7 1_555 1_555
C5 C6 1_555 1_555
C4B C5B 1_555 1_555
C4B C7B 1_555 1_555
C5B C6B 1_555 1_555

#END
