
#######################################################################
#
#                 Cambridge Crystallographic Data Centre
#                                CCDC 
#
#######################################################################
#
# If this CIF has been generated from an entry in the Cambridge 
# Structural Database, then it will include bibliographic, chemical, 
# crystal, experimental, refinement or atomic coordinate data resulting 
# from the CCDC's data processing and validation procedures.
#
#######################################################################

data_MOVWIF
_symmetry_cell_setting           monoclinic
_symmetry_space_group_name_H-M   'C 2/c'
_symmetry_Int_Tables_number      15
_space_group_name_Hall           '-C 2yn'
loop_
_symmetry_equiv_pos_site_id
_symmetry_equiv_pos_as_xyz
1 x,y,z
2 -x,y,1/2-z
3 1/2+x,1/2+y,z
4 1/2-x,1/2+y,1/2-z
5 -x,-y,-z
6 x,-y,1/2+z
7 1/2-x,1/2-y,-z
8 1/2+x,1/2-y,1/2+z
_cell_length_a                   25.444(2)
_cell_length_b                   5.8508(5)
_cell_length_c                   19.0633(17)
_cell_angle_alpha                90
_cell_angle_beta                 124.1250(10)
_cell_angle_gamma                90
_cell_volume                     2349.27
loop_
_atom_site_label
_atom_site_type_symbol
_atom_site_fract_x
_atom_site_fract_y
_atom_site_fract_z
Sm1 Sm 0.133270(6) -0.16141(2) 0.112791(8)
O1 O 0.10610(10) 0.1700(3) 0.02633(14)
O2 O 0.15020(10) 0.5182(4) 0.05479(14)
O3 O 0.20738(10) 0.3101(4) -0.24797(13)
O4 O 0.26671(9) 0.5492(4) -0.14007(13)
O5 O 0.07176(10) -0.4715(3) 0.13398(13)
O6 O 0.05572(9) -0.1114(3) 0.15232(13)
O7 O 0.16352(11) 0.1711(4) 0.20714(15)
H1 H 0.1409(19) 0.287(7) 0.189(2)
H2 H 0.196(2) 0.212(7) 0.229(3)
O8 O 0.03044(3) -0.20655(9) -0.02496(4)
H3 H 0.0159 -0.0909 -0.0555
H4 H 0.0034 -0.3112 -0.0460
S1 S 0.19201(3) 0.49385(9) -0.06321(4)
S2 S 0.00000(3) -0.19380(9) 0.25000(4)
C1 C 0.15323(3) 0.28736(9) -0.04373(4)
C2 C 0.14345(3) 0.09134(9) -0.08967(4)
H5 H 0.1243 -0.0396 -0.0861
C3 C 0.16558(14) 0.1110(5) -0.14260(18)
H6 H 0.1621 -0.0046 -0.1784
C4 C 0.19273(13) 0.3196(5) -0.13535(18)
C5 C 0.13520(13) 0.3288(5) 0.01663(18)
C6 C 0.22421(13) 0.3977(5) -0.17723(17)
C7 C 0.05122(13) -0.3239(5) 0.16208(18)
C8 C 0.02356(13) -0.3969(5) 0.20855(18)
C9 C 0.01375(18) -0.6144(5) 0.2265(2)
H7 H 0.0241 -0.7465 0.2097
O5A O -0.07176(10) -0.4715(3) 0.36602(13)
O6A O -0.05572(9) -0.1114(3) 0.34768(13)
C7A C -0.05122(13) -0.3239(5) 0.33792(18)
C8A C -0.02356(13) -0.3969(5) 0.29145(18)
C9A C -0.01375(18) -0.6144(5) 0.2735(2)
H7A H -0.0241 -0.7465 0.2903
Sm1A Sm -0.133270(6) -0.16141(2) 0.387209(8)
O1A O -0.10610(10) 0.1700(3) 0.47367(14)
O2A O -0.15020(10) 0.5182(4) 0.44521(14)
O3A O -0.20738(10) 0.3101(4) 0.74797(13)
O4A O -0.26671(9) 0.5492(4) 0.64007(13)
O7A O -0.16352(11) 0.1711(4) 0.29286(15)
H1A H -0.1409(19) 0.287(7) 0.311(2)
H2A H -0.196(2) 0.212(7) 0.271(3)
O8A O -0.03044(3) -0.20655(9) 0.52496(4)
H3A H -0.0159 -0.0909 0.5555
H4A H -0.0034 -0.3112 0.5460
S1A S -0.19201(3) 0.49385(9) 0.56321(4)
C1A C -0.15323(3) 0.28736(9) 0.54373(4)
C2A C -0.14345(3) 0.09134(9) 0.58967(4)
H5A H -0.1243 -0.0396 0.5861
C3A C -0.16558(14) 0.1110(5) 0.64260(18)
H6A H -0.1621 -0.0046 0.6784
C4A C -0.19273(13) 0.3196(5) 0.63535(18)
C5A C -0.13520(13) 0.3288(5) 0.48337(18)
C6A C -0.22421(13) 0.3977(5) 0.67723(17)
Sm1_2 Sm 0.133270(6) 0.83859(2) 0.112791(8)
Sm1A_2 Sm -0.133270(6) 0.83859(2) 0.387209(8)
Sm1D Sm -0.133270(6) 0.16141(2) 0.887209(8)
Sm1E Sm 0.133270(6) 0.16141(2) -0.387209(8)
Sm1F Sm 0.366730(6) 0.66141(2) -0.112791(8)
Sm1G Sm -0.366730(6) 0.66141(2) 0.612791(8)
O2_2 O 0.15020(10) -0.4818(4) 0.05479(14)
O2A_2 O -0.15020(10) -0.4818(4) 0.44521(14)
O3D O -0.20738(10) -0.3101(4) 0.24797(13)
O3E O 0.20738(10) -0.3101(4) 0.25203(13)
O4F O 0.23329(9) -0.0492(4) 0.14007(13)
O4G O -0.23329(9) -0.0492(4) 0.35993(13)
loop_
_geom_bond_atom_site_label_1
_geom_bond_atom_site_label_2
_geom_bond_site_symmetry_1
_geom_bond_site_symmetry_2
Sm1 O1 1_555 1_555
O1 C5 1_555 1_555
O2 C5 1_555 1_555
O3 C6 1_555 1_555
O4 C6 1_555 1_555
O5 Sm1 1_555 1_555
O6 Sm1 1_555 1_555
O7 Sm1 1_555 1_555
H1 O7 1_555 1_555
H2 O7 1_555 1_555
O8 Sm1 1_555 1_555
H3 O8 1_555 1_555
H4 O8 1_555 1_555
S1 C1 1_555 1_555
S2 C8 1_555 1_555
C1 C2 1_555 1_555
C2 H5 1_555 1_555
C3 C2 1_555 1_555
H6 C3 1_555 1_555
C4 S1 1_555 1_555
C5 C1 1_555 1_555
C6 C4 1_555 1_555
C7 O5 1_555 1_555
C8 C7 1_555 1_555
C9 C8 1_555 1_555
H7 C9 1_555 1_555
O5A C7A 1_555 1_555
O6A C7A 1_555 1_555
C7A C8A 1_555 1_555
C8A S2 1_555 1_555
C9A C9 1_555 1_555
H7A C9A 1_555 1_555
Sm1A O5A 1_555 1_555
O1A Sm1A 1_555 1_555
O2A C5A 1_555 1_555
O3A C6A 1_555 1_555
O4A C6A 1_555 1_555
O7A Sm1A 1_555 1_555
H1A O7A 1_555 1_555
H2A O7A 1_555 1_555
O8A Sm1A 1_555 1_555
H3A O8A 1_555 1_555
H4A O8A 1_555 1_555
S1A C1A 1_555 1_555
C1A C2A 1_555 1_555
C2A H5A 1_555 1_555
C3A C2A 1_555 1_555
H6A C3A 1_555 1_555
C4A S1A 1_555 1_555
C5A O1A 1_555 1_555
C6A C4A 1_555 1_555
Sm1_2 O2 1_555 1_555
Sm1A_2 O2A 1_555 1_555
Sm1D O3A 1_555 1_555
Sm1E O3 1_555 1_555
Sm1F O4 1_555 1_555
Sm1G O4A 1_555 1_555
O2_2 Sm1 1_555 1_555
O2A_2 Sm1A 1_555 1_555
O3D Sm1A 1_555 1_555
O3E Sm1 1_555 1_555
O4F Sm1 1_555 1_555
O4G Sm1A 1_555 1_555
O6 C7 1_555 1_555
C3 C4 1_555 1_555
O6A Sm1A 1_555 1_555
C8A C9A 1_555 1_555
C1A C5A 1_555 1_555
C3A C4A 1_555 1_555

#END
