
#######################################################################
#
#                 Cambridge Crystallographic Data Centre
#                                CCDC 
#
#######################################################################
#
# If this CIF has been generated from an entry in the Cambridge 
# Structural Database, then it will include bibliographic, chemical, 
# crystal, experimental, refinement or atomic coordinate data resulting 
# from the CCDC's data processing and validation procedures.
#
#######################################################################

data_MOVWAX
_symmetry_cell_setting           monoclinic
_symmetry_space_group_name_H-M   'P 21/c'
_symmetry_Int_Tables_number      14
_space_group_name_Hall           '-P 2ybc'
loop_
_symmetry_equiv_pos_site_id
_symmetry_equiv_pos_as_xyz
1 x,y,z
2 -x,1/2+y,1/2-z
3 -x,-y,-z
4 x,1/2-y,1/2+z
_cell_length_a                   9.7791(10)
_cell_length_b                   8.9844(9)
_cell_length_c                   42.842(4)
_cell_angle_alpha                90
_cell_angle_beta                 92.3930(10)
_cell_angle_gamma                90
_cell_volume                     3760.79
loop_
_atom_site_label
_atom_site_type_symbol
_atom_site_fract_x
_atom_site_fract_y
_atom_site_fract_z
Mn1 Mn 0.63900(4) 0.05867(4) 0.242149(8)
N1 N 0.5558(2) 0.0465(2) 0.19099(5)
N2 N 0.3485(3) 0.1924(3) -0.02176(6)
N3 N 0.6933(3) 0.0962(3) 0.29395(5)
N4 N 0.8689(3) 0.1584(3) 0.50867(6)
O1 O 0.9374(2) -0.1482(3) 0.23036(6)
O2 O 0.84276(19) 0.0761(2) 0.22616(4)
O3 O 0.9730(4) 0.0643(3) 0.05524(6)
O4 O 0.8888(3) 0.2815(3) 0.06889(5)
H1 H 0.8777 0.2909 0.0499
O5 O 0.6907(2) -0.1742(2) 0.24797(5)
H2 H 0.6392 -0.2459 0.2422
H3 H 0.7703 -0.1829 0.2409
O6 O 0.42805(19) 0.03949(18) 0.25609(4)
O7 O 0.40180(19) -0.20384(19) 0.26016(4)
O8 O 0.2667(3) 0.2333(3) 0.42017(5)
H4 H 0.2930 0.2545 0.4380
O9 O 0.4123(3) 0.0456(3) 0.42776(5)
C1 C 0.9386(3) -0.0153(3) 0.22276(6)
C2 C 1.0643(3) 0.0432(4) 0.20675(6)
H5 H 1.0947 0.1352 0.2167
H6 H 1.1380 -0.0287 0.2090
C3 C 1.0315(3) 0.0707(3) 0.17262(6)
C4 C 0.9736(3) 0.2042(3) 0.16260(6)
H7 H 0.9554 0.2775 0.1772
C5 C 0.9423(3) 0.2300(3) 0.13131(6)
H8 H 0.9020 0.3197 0.1252
C6 C 0.9701(3) 0.1248(3) 0.10912(6)
C7 C 1.0260(4) -0.0096(4) 0.11922(7)
H9 H 1.0433 -0.0834 0.1047
C8 C 1.0563(3) -0.0355(3) 0.15028(7)
H10 H 1.0942 -0.1264 0.1564
C9 C 0.9437(4) 0.1518(4) 0.07522(7)
C10 C 0.6147(3) 0.1838(3) 0.31083(7)
H11 H 0.5466 0.2394 0.3005
C11 C 0.6291(3) 0.1961(4) 0.34269(7)
H12 H 0.5708 0.2583 0.3533
C12 C 0.7290(3) 0.1176(3) 0.35919(7)
C13 C 0.8110(4) 0.0291(4) 0.34173(7)
H13 H 0.8806 -0.0266 0.3515
C14 C 0.7906(4) 0.0225(4) 0.30976(7)
H14 H 0.8487 -0.0375 0.2986
C15 C 0.7418(4) 0.1324(4) 0.39425(7)
H15 H 0.7463 0.2376 0.3993
H16 H 0.6587 0.0937 0.4028
C16 C 0.8605(4) 0.0575(4) 0.41062(7)
H17 H 0.9448 0.0915 0.4018
H18 H 0.8538 -0.0491 0.4074
C17 C 0.8652(4) 0.0899(4) 0.44511(7)
C18 C 0.7986(5) 0.0048(5) 0.46609(8)
H19 H 0.7501 -0.0789 0.4592
C19 C 0.8029(5) 0.0420(5) 0.49728(8)
H20 H 0.7566 -0.0184 0.5110
C20 C 0.9341(4) 0.2395(4) 0.48851(8)
H21 H 0.9822 0.3223 0.4960
C21 C 0.9355(4) 0.2094(4) 0.45714(8)
H22 H 0.9843 0.2706 0.4441
C22 C 0.3628(3) -0.0747(3) 0.26440(5)
C23 C 0.2304(3) -0.0476(3) 0.28095(6)
H23 H 0.1789 0.0306 0.2702
H24 H 0.1754 -0.1374 0.2801
C24 C 0.2569(3) -0.0033(3) 0.31471(6)
C25 C 0.1873(3) 0.1138(3) 0.32769(6)
H25 H 0.1245 0.1677 0.3153
C26 C 0.2096(3) 0.1524(3) 0.35883(6)
H26 H 0.1614 0.2314 0.3671
C27 C 0.3027(3) 0.0748(3) 0.37767(6)
C28 C 0.3718(3) -0.0421(3) 0.36489(7)
H27 H 0.4344 -0.0961 0.3773
C29 C 0.3492(3) -0.0803(3) 0.33392(7)
H28 H 0.3973 -0.1597 0.3258
C30 C 0.3325(3) 0.1155(4) 0.41084(7)
C31 C 0.6334(3) 0.0039(3) 0.16782(6)
H29 H 0.7181 -0.0389 0.1729
C32 C 0.5942(4) 0.0203(4) 0.13651(7)
H30 H 0.6519 -0.0111 0.1211
C33 C 0.4684(4) 0.0839(4) 0.12838(7)
C34 C 0.3884(3) 0.1266(4) 0.15246(7)
H31 H 0.3031 0.1692 0.1481
C35 C 0.4339(3) 0.1066(3) 0.18267(7)
H32 H 0.3772 0.1362 0.1984
C36 C 0.4164(5) 0.1124(6) 0.09489(8)
H33 H 0.3341 0.0535 0.0913
H34 H 0.3894 0.2161 0.0935
C37 C 0.4975(6) 0.0853(8) 0.07161(10)
H35 H 0.5186 -0.0202 0.0717
H36 H 0.5829 0.1383 0.0757
C38 C 0.4423(5) 0.1276(6) 0.03887(9)
C39 C 0.5018(5) 0.2354(6) 0.02201(9)
H37 H 0.5746 0.2901 0.0307
C40 C 0.4542(4) 0.2632(5) -0.00791(8)
H38 H 0.4983 0.3359 -0.0192
C41 C 0.2882(5) 0.0895(5) -0.00541(8)
H39 H 0.2142 0.0381 -0.0145
C42 C 0.3314(5) 0.0551(5) 0.02500(9)
H40 H 0.2854 -0.0171 0.0360
Mn1A Mn 0.36100(4) -0.44133(4) 0.257851(8)
O7A O 0.59820(19) 0.29616(19) 0.23984(4)
loop_
_geom_bond_atom_site_label_1
_geom_bond_atom_site_label_2
_geom_bond_site_symmetry_1
_geom_bond_site_symmetry_2
Mn1 N1 1_555 1_555
N1 C31 1_555 1_555
N2 C40 1_555 1_555
N3 Mn1 1_555 1_555
N4 C19 1_555 1_555
O1 C1 1_555 1_555
O2 Mn1 1_555 1_555
O3 C9 1_555 1_555
O4 H1 1_555 1_555
O5 Mn1 1_555 1_555
H2 O5 1_555 1_555
H3 O5 1_555 1_555
O6 Mn1 1_555 1_555
O7 C22 1_555 1_555
O8 H4 1_555 1_555
O9 C30 1_555 1_555
C1 O2 1_555 1_555
C2 C1 1_555 1_555
H5 C2 1_555 1_555
H6 C2 1_555 1_555
C3 C2 1_555 1_555
C4 C3 1_555 1_555
H7 C4 1_555 1_555
C5 C4 1_555 1_555
H8 C5 1_555 1_555
C6 C5 1_555 1_555
C7 C6 1_555 1_555
H9 C7 1_555 1_555
C8 C3 1_555 1_555
H10 C8 1_555 1_555
C9 O4 1_555 1_555
C10 N3 1_555 1_555
H11 C10 1_555 1_555
C11 C10 1_555 1_555
H12 C11 1_555 1_555
C12 C11 1_555 1_555
C13 C12 1_555 1_555
H13 C13 1_555 1_555
C14 N3 1_555 1_555
H14 C14 1_555 1_555
C15 C12 1_555 1_555
H15 C15 1_555 1_555
H16 C15 1_555 1_555
C16 C15 1_555 1_555
H17 C16 1_555 1_555
H18 C16 1_555 1_555
C17 C16 1_555 1_555
C18 C17 1_555 1_555
H19 C18 1_555 1_555
C19 C18 1_555 1_555
H20 C19 1_555 1_555
C20 N4 1_555 1_555
H21 C20 1_555 1_555
C21 C17 1_555 1_555
H22 C21 1_555 1_555
C22 O6 1_555 1_555
C23 C22 1_555 1_555
H23 C23 1_555 1_555
H24 C23 1_555 1_555
C24 C23 1_555 1_555
C25 C24 1_555 1_555
H25 C25 1_555 1_555
C26 C25 1_555 1_555
H26 C26 1_555 1_555
C27 C26 1_555 1_555
C28 C27 1_555 1_555
H27 C28 1_555 1_555
C29 C24 1_555 1_555
H28 C29 1_555 1_555
C30 O8 1_555 1_555
C31 H29 1_555 1_555
C32 C31 1_555 1_555
H30 C32 1_555 1_555
C33 C32 1_555 1_555
C34 C33 1_555 1_555
H31 C34 1_555 1_555
C35 N1 1_555 1_555
H32 C35 1_555 1_555
C36 C33 1_555 1_555
H33 C36 1_555 1_555
H34 C36 1_555 1_555
C37 C36 1_555 1_555
H35 C37 1_555 1_555
H36 C37 1_555 1_555
C38 C37 1_555 1_555
C39 C38 1_555 1_555
H37 C39 1_555 1_555
C40 C39 1_555 1_555
H38 C40 1_555 1_555
C41 N2 1_555 1_555
H39 C41 1_555 1_555
C42 C38 1_555 1_555
H40 C42 1_555 1_555
Mn1A O7 1_555 1_555
O7A Mn1 1_555 1_555
C6 C9 1_555 1_555
C7 C8 1_555 1_555
C13 C14 1_555 1_555
C20 C21 1_555 1_555
C27 C30 1_555 1_555
C28 C29 1_555 1_555
C34 C35 1_555 1_555
C41 C42 1_555 1_555

#END
