
#######################################################################
#
#                 Cambridge Crystallographic Data Centre
#                                CCDC 
#
#######################################################################
#
# If this CIF has been generated from an entry in the Cambridge 
# Structural Database, then it will include bibliographic, chemical, 
# crystal, experimental, refinement or atomic coordinate data resulting 
# from the CCDC's data processing and validation procedures.
#
#######################################################################

data_MOVXEC
_symmetry_cell_setting           triclinic
_symmetry_space_group_name_H-M   'P -1'
_symmetry_Int_Tables_number      2
_space_group_name_Hall           '-P 1'
loop_
_symmetry_equiv_pos_site_id
_symmetry_equiv_pos_as_xyz
1 x,y,z
2 -x,-y,-z
_cell_length_a                   8.3159(4)
_cell_length_b                   9.2835(3)
_cell_length_c                   16.6372(5)
_cell_angle_alpha                95.336(3)
_cell_angle_beta                 95.151(3)
_cell_angle_gamma                92.049(3)
_cell_volume                     1272.41
loop_
_atom_site_label
_atom_site_type_symbol
_atom_site_fract_x
_atom_site_fract_y
_atom_site_fract_z
Pb1 Pb 1.0000 0.5000 0.5000
Pb2 Pb 0.54477(2) 0.553095(17) 0.728433(10)
O1 O 0.6510(4) 0.5508(3) 0.8645(2)
O2 O 0.4176(4) 0.7060(3) 0.81980(19)
O3 O 1.2234(4) 0.5628(3) 0.6343(2)
O4 O 1.1648(5) 0.7416(4) 0.5645(2)
O5 O 1.3783(4) 0.7589(3) 0.6498(2)
O6 O 0.7831(5) 0.3560(4) 0.7130(2)
O7 O 0.7900(5) 0.4823(4) 0.6103(2)
O8 O 0.9370(5) 0.2957(4) 0.6181(2)
N1 N 0.5903(5) 0.6311(4) 0.9218(3)
N2 N 0.4724(5) 0.7056(4) 0.8963(2)
N3 N 0.7687(5) 0.7595(4) 0.7396(2)
N4 N 1.3680(5) 1.3272(4) 0.7679(3)
N5 N 1.2180(5) 0.2807(4) 0.5019(2)
N6 N 1.2565(5) 0.6886(4) 0.6169(2)
N7 N 0.8382(5) 0.3770(4) 0.6471(2)
C1 C 0.3935(6) 0.7954(5) 0.9549(3)
C2 C 0.3794(7) 0.7513(5) 1.0318(3)
H1 H 0.4236 0.6638 1.0470
C3 C 0.2991(7) 0.8387(6) 1.0851(3)
H2 H 0.2872 0.8105 1.1378
C4 C 0.2353(7) 0.9673(6) 1.0630(3)
H3 H 0.1804 1.0262 1.1005
C5 C 0.2518(7) 1.0098(5) 0.9865(3)
H4 H 0.2074 1.0972 0.9713
C6 C 0.3334(6) 0.9239(5) 0.9321(3)
H5 H 0.3478 0.9532 0.8799
C7 C 0.9235(6) 0.7321(5) 0.7553(3)
H6 H 0.9508 0.6356 0.7632
C8 C 1.0472(6) 0.8379(5) 0.7608(3)
H7 H 1.1565 0.8137 0.7717
C9 C 1.0089(6) 0.9795(4) 0.7502(3)
C10 C 0.8486(6) 1.0071(5) 0.7321(3)
H8 H 0.8183 1.1024 0.7230
C11 C 0.7318(6) 0.8955(5) 0.7272(3)
H9 H 0.6218 0.9161 0.7147
C12 C 1.3909(6) 1.1978(5) 0.7281(3)
H10 H 1.4884 1.1851 0.7032
C13 C 1.2784(6) 1.0819(5) 0.7217(3)
H11 H 1.2994 0.9921 0.6932
C14 C 1.1352(6) 1.0990(5) 0.7575(3)
C15 C 1.2307(6) 1.3416(5) 0.8032(3)
H12 H 1.2131 1.4320 0.8321
C16 C 1.1126(6) 1.2317(5) 0.7999(3)
H13 H 1.0172 1.2468 0.8263
C17 C 1.3755(6) 0.3085(5) 0.5189(3)
H14 H 1.4120 0.4068 0.5318
C18 C 1.4906(6) 0.2044(5) 0.5191(3)
H15 H 1.6019 0.2315 0.5316
C19 C 1.4405(6) 0.0584(5) 0.5006(3)
C20 C 1.2746(6) 0.0306(5) 0.4820(3)
H16 H 1.2336 -0.0663 0.4680
C21 C 1.1701(7) 0.1415(5) 0.4836(3)
H17 H 1.0579 0.1184 0.4711
N5A N 1.7820(5) -0.2807(4) 0.4981(2)
C17A C 1.6245(6) -0.3085(5) 0.4811(3)
H14A H 1.5880 -0.4068 0.4682
C18A C 1.5094(6) -0.2044(5) 0.4809(3)
H15A H 1.3981 -0.2315 0.4684
C19A C 1.5595(6) -0.0584(5) 0.4994(3)
C20A C 1.7254(6) -0.0306(5) 0.5180(3)
H16A H 1.7664 0.0663 0.5320
C21A C 1.8299(7) -0.1415(5) 0.5164(3)
H17A H 1.9421 -0.1184 0.5289
Pb2A Pb 1.45523(2) 0.446905(17) 0.271567(10)
O1A O 1.3490(4) 0.4492(3) 0.1355(2)
O2A O 1.5824(4) 0.2940(3) 0.18020(19)
O3A O 0.7766(4) 0.4372(3) 0.3657(2)
O4A O 0.8352(5) 0.2584(4) 0.4355(2)
O5A O 0.6217(4) 0.2411(3) 0.3502(2)
O6A O 1.2169(5) 0.6440(4) 0.2870(2)
O7A O 1.2100(5) 0.5177(4) 0.3897(2)
O8A O 1.0630(5) 0.7043(4) 0.3819(2)
N1A N 1.4097(5) 0.3689(4) 0.0782(3)
N2A N 1.5276(5) 0.2944(4) 0.1037(2)
N3A N 1.2313(5) 0.2405(4) 0.2604(2)
N4A N 0.6320(5) -0.3272(4) 0.2321(3)
N6A N 0.7435(5) 0.3114(4) 0.3831(2)
N7A N 1.1618(5) 0.6230(4) 0.3529(2)
C1A C 1.6065(6) 0.2046(5) 0.0451(3)
C2A C 1.6206(7) 0.2487(5) -0.0318(3)
H1A H 1.5764 0.3362 -0.0470
C3A C 1.7009(7) 0.1613(6) -0.0851(3)
H2A H 1.7128 0.1895 -0.1378
C4A C 1.7647(7) 0.0327(6) -0.0630(3)
H3A H 1.8196 -0.0262 -0.1005
C5A C 1.7482(7) -0.0098(5) 0.0135(3)
H4A H 1.7926 -0.0972 0.0287
C6A C 1.6666(6) 0.0761(5) 0.0679(3)
H5A H 1.6522 0.0468 0.1201
C7A C 1.0765(6) 0.2679(5) 0.2447(3)
H6A H 1.0492 0.3644 0.2368
C8A C 0.9528(6) 0.1621(5) 0.2392(3)
H7A H 0.8435 0.1863 0.2283
C9A C 0.9911(6) 0.0205(4) 0.2498(3)
C10A C 1.1514(6) -0.0071(5) 0.2679(3)
H8A H 1.1817 -0.1024 0.2770
C11A C 1.2682(6) 0.1045(5) 0.2728(3)
H9A H 1.3782 0.0839 0.2853
C12A C 0.6091(6) -0.1978(5) 0.2719(3)
H10A H 0.5116 -0.1851 0.2968
C13A C 0.7216(6) -0.0819(5) 0.2783(3)
H11A H 0.7006 0.0079 0.3068
C14A C 0.8648(6) -0.0990(5) 0.2425(3)
C15A C 0.7693(6) -0.3416(5) 0.1968(3)
H12A H 0.7869 -0.4320 0.1679
C16A C 0.8874(6) -0.2317(5) 0.2001(3)
H13A H 0.9828 -0.2468 0.1737
Pb1_2 Pb 2.0000 -0.5000 0.5000
Pb2_2 Pb 1.54477(2) 0.553095(17) 0.728433(10)
Pb2_3 Pb 1.54477(2) 1.553095(17) 0.728433(10)
Pb2A_2 Pb 0.45523(2) -0.553095(17) 0.271567(10)
Pb2A_3 Pb 0.45523(2) 0.446905(17) 0.271567(10)
O5_2 O 0.3783(4) 0.7589(3) 0.6498(2)
O5A_2 O 1.6217(4) 0.2411(3) 0.3502(2)
N4_2 N 0.3680(5) 0.3272(4) 0.7679(3)
N4A_2 N 1.6320(5) 0.6728(4) 0.2321(3)
N5A_2 N 0.7820(5) 0.7193(4) 0.4981(2)
O9 O 0.9721(10) 0.4905(10) 0.9123(5)
H18 H 0.8741 0.5083 0.9032
C22 C 1.010(5) 0.478(3) 1.0009(8)
H19 H 0.9884 0.3780 1.0124
H20 H 0.9428 0.5427 1.0320
H21A H 0.8755 0.4946 0.9835
H21 H 1.1245 0.5054 1.0165
O9A O 1.0279(10) 0.5095(10) 1.0877(5)
H18A H 1.1259 0.4917 1.0968
C22A C 0.990(5) 0.522(3) 0.9991(8)
H19A H 1.0116 0.6220 0.9876
H20A H 1.0572 0.4573 0.9680
loop_
_geom_bond_atom_site_label_1
_geom_bond_atom_site_label_2
_geom_bond_site_symmetry_1
_geom_bond_site_symmetry_2
Pb1 O3 1_555 1_555
Pb2 O1 1_555 1_555
O1 N1 1_555 1_555
O2 Pb2 1_555 1_555
O3 N6 1_555 1_555
O4 Pb1 1_555 1_555
O5 N6 1_555 1_555
O6 Pb2 1_555 1_555
O7 Pb1 1_555 1_555
O8 Pb1 1_555 1_555
N1 N2 1_555 1_555
N2 O2 1_555 1_555
N3 Pb2 1_555 1_555
N4 C12 1_555 1_555
N5 Pb1 1_555 1_555
N6 O4 1_555 1_555
N7 O6 1_555 1_555
C1 N2 1_555 1_555
C2 C1 1_555 1_555
H1 C2 1_555 1_555
C3 C2 1_555 1_555
H2 C3 1_555 1_555
C4 C3 1_555 1_555
H3 C4 1_555 1_555
C5 C4 1_555 1_555
H4 C5 1_555 1_555
C6 C1 1_555 1_555
H5 C6 1_555 1_555
C7 N3 1_555 1_555
H6 C7 1_555 1_555
C8 C7 1_555 1_555
H7 C8 1_555 1_555
C9 C8 1_555 1_555
C10 C9 1_555 1_555
H8 C10 1_555 1_555
C11 N3 1_555 1_555
H9 C11 1_555 1_555
C12 H10 1_555 1_555
C13 C12 1_555 1_555
H11 C13 1_555 1_555
C14 C9 1_555 1_555
C15 N4 1_555 1_555
H12 C15 1_555 1_555
C16 C14 1_555 1_555
H13 C16 1_555 1_555
C17 N5 1_555 1_555
H14 C17 1_555 1_555
C18 C17 1_555 1_555
H15 C18 1_555 1_555
C19 C18 1_555 1_555
C20 C19 1_555 1_555
H16 C20 1_555 1_555
C21 N5 1_555 1_555
H17 C21 1_555 1_555
O9 H18 1_555 1_555
C22 O9 1_555 1_555
H19 C22 1_555 1_555
H20 C22 1_555 1_555
H21 C22A 1_555 1_555
N5A C17A 1_555 1_555
C17A H14A 1_555 1_555
C18A C17A 1_555 1_555
H15A C18A 1_555 1_555
C19A C19 1_555 1_555
C20A C19A 1_555 1_555
H16A C20A 1_555 1_555
C21A N5A 1_555 1_555
H17A C21A 1_555 1_555
Pb2A O1A 1_555 1_555
O1A N1A 1_555 1_555
O2A Pb2A 1_555 1_555
O3A Pb1 1_555 1_555
O4A Pb1 1_555 1_555
O5A N6A 1_555 1_555
O6A Pb2A 1_555 1_555
O7A Pb1 1_555 1_555
O8A Pb1 1_555 1_555
N1A N2A 1_555 1_555
N2A O2A 1_555 1_555
N3A Pb2A 1_555 1_555
N4A C12A 1_555 1_555
N6A O3A 1_555 1_555
N7A O6A 1_555 1_555
C1A N2A 1_555 1_555
C2A C1A 1_555 1_555
H1A C2A 1_555 1_555
C3A C2A 1_555 1_555
H2A C3A 1_555 1_555
C4A C3A 1_555 1_555
H3A C4A 1_555 1_555
C5A C4A 1_555 1_555
H4A C5A 1_555 1_555
C6A C1A 1_555 1_555
H5A C6A 1_555 1_555
C7A N3A 1_555 1_555
H6A C7A 1_555 1_555
C8A C7A 1_555 1_555
H7A C8A 1_555 1_555
C9A C8A 1_555 1_555
C10A C9A 1_555 1_555
H8A C10A 1_555 1_555
C11A N3A 1_555 1_555
H9A C11A 1_555 1_555
C12A H10A 1_555 1_555
C13A C12A 1_555 1_555
H11A C13A 1_555 1_555
C14A C9A 1_555 1_555
C15A N4A 1_555 1_555
H12A C15A 1_555 1_555
C16A C14A 1_555 1_555
H13A C16A 1_555 1_555
Pb1_2 N5A 1_555 1_555
Pb2_2 O5 1_555 1_555
Pb2_3 N4 1_555 1_555
Pb2A_2 N4A 1_555 1_555
Pb2A_3 O5A 1_555 1_555
O5_2 Pb2 1_555 1_555
O5A_2 Pb2A 1_555 1_555
N4_2 Pb2 1_555 1_555
N4A_2 Pb2A 1_555 1_555
N5A_2 Pb1 1_555 1_555
H21A C22 1_555 1_555
O9A H18A 1_555 1_555
C22A O9A 1_555 1_555
H19A C22A 1_555 1_555
H20A C22A 1_555 1_555
O7 N7 1_555 1_555
O8 N7 1_555 1_555
C5 C6 1_555 1_555
C10 C11 1_555 1_555
C13 C14 1_555 1_555
C15 C16 1_555 1_555
C20 C21 1_555 1_555
C18A C19A 1_555 1_555
C20A C21A 1_555 1_555
O4A N6A 1_555 1_555
O7A N7A 1_555 1_555
O8A N7A 1_555 1_555
C5A C6A 1_555 1_555
C10A C11A 1_555 1_555
C13A C14A 1_555 1_555
C15A C16A 1_555 1_555

#END
