
#######################################################################
#
#                 Cambridge Crystallographic Data Centre
#                                CCDC 
#
#######################################################################
#
# If this CIF has been generated from an entry in the Cambridge 
# Structural Database, then it will include bibliographic, chemical, 
# crystal, experimental, refinement or atomic coordinate data resulting 
# from the CCDC's data processing and validation procedures.
#
#######################################################################

data_MOWFOU
_symmetry_cell_setting           triclinic
_symmetry_space_group_name_H-M   'P -1'
_symmetry_Int_Tables_number      2
_space_group_name_Hall           '-P 1'
loop_
_symmetry_equiv_pos_site_id
_symmetry_equiv_pos_as_xyz
1 x,y,z
2 -x,-y,-z
_cell_length_a                   3.7705(1)
_cell_length_b                   10.4396(3)
_cell_length_c                   12.9752(4)
_cell_angle_alpha                90.8017(9)
_cell_angle_beta                 91.5785(9)
_cell_angle_gamma                93.7126(10)
_cell_volume                     509.408
loop_
_atom_site_label
_atom_site_type_symbol
_atom_site_fract_x
_atom_site_fract_y
_atom_site_fract_z
Hg1 Hg 0.09430(6) 0.00494(2) 0.745119(19)
Cl1 Cl -0.4762(4) 0.08878(18) 0.87326(14)
Cl2 Cl -0.3498(5) -0.08193(18) 0.62030(14)
N1 N 0.0028(17) 0.2302(6) 0.6759(5)
N2 N -0.2331(17) 0.3597(6) 0.5442(5)
N3 N 0.0199(17) 0.7793(6) 0.8262(5)
N4 N -0.2158(17) 0.6426(6) 0.9554(5)
C1 C -0.116(2) 0.2511(7) 0.5798(6)
H1 H -0.1155 0.1812 0.5321
C2 C -0.2281(18) 0.4571(7) 0.6124(5)
H2 H -0.3110 0.5365 0.5903
C3 C -0.1062(18) 0.4475(7) 0.7148(6)
C4 C 0.0082(18) 0.3282(7) 0.7431(6)
H3 H 0.0920 0.3165 0.8118
C5 C -0.096(2) 0.7557(8) 0.9207(6)
H4 H -0.0921 0.8265 0.9676
C6 C -0.2192(18) 0.5436(7) 0.8888(6)
H5 H -0.3042 0.4612 0.9109
C7 C -0.1038(19) 0.5566(7) 0.7888(6)
C8 C 0.0192(19) 0.6798(7) 0.7609(6)
H6 H 0.1046 0.6931 0.6934
Hg1_2 Hg -0.90570(6) 0.00494(2) 0.745119(19)
Hg1_3 Hg 0.09430(6) 1.00494(2) 0.745119(19)
Cl1_2 Cl 0.5238(4) 0.08878(18) 0.87326(14)
Cl2_2 Cl 0.6502(5) -0.08193(18) 0.62030(14)
N3_2 N 0.0199(17) -0.2207(6) 0.8262(5)
loop_
_geom_bond_atom_site_label_1
_geom_bond_atom_site_label_2
_geom_bond_site_symmetry_1
_geom_bond_site_symmetry_2
Hg1 Cl1 1_555 1_555
Cl1 Hg1_2 1_555 1_555
Cl2 Hg1 1_555 1_555
N1 Hg1 1_555 1_555
N2 C1 1_555 1_555
N3 C5 1_555 1_555
N4 C5 1_555 1_555
C1 N1 1_555 1_555
H1 C1 1_555 1_555
C2 N2 1_555 1_555
H2 C2 1_555 1_555
C3 C2 1_555 1_555
C4 N1 1_555 1_555
H3 C4 1_555 1_555
C5 H4 1_555 1_555
C6 N4 1_555 1_555
H5 C6 1_555 1_555
C7 C3 1_555 1_555
C8 N3 1_555 1_555
H6 C8 1_555 1_555
Hg1_2 Cl2 1_555 1_555
Hg1_3 N3 1_555 1_555
Cl1_2 Hg1 1_555 1_555
Cl2_2 Hg1 1_555 1_555
N3_2 Hg1 1_555 1_555
C3 C4 1_555 1_555
C6 C7 1_555 1_555
C7 C8 1_555 1_555

#END
