
#######################################################################
#
#                 Cambridge Crystallographic Data Centre
#                                CCDC 
#
#######################################################################
#
# If this CIF has been generated from an entry in the Cambridge 
# Structural Database, then it will include bibliographic, chemical, 
# crystal, experimental, refinement or atomic coordinate data resulting 
# from the CCDC's data processing and validation procedures.
#
#######################################################################

data_MOWGEL
_symmetry_cell_setting           monoclinic
_symmetry_space_group_name_H-M   'P 21/c'
_symmetry_Int_Tables_number      14
_space_group_name_Hall           '-P 2ybc'
loop_
_symmetry_equiv_pos_site_id
_symmetry_equiv_pos_as_xyz
1 x,y,z
2 -x,1/2+y,1/2-z
3 -x,-y,-z
4 x,1/2-y,1/2+z
_cell_length_a                   10.8936(8)
_cell_length_b                   4.0146(3)
_cell_length_c                   13.0313(10)
_cell_angle_alpha                90
_cell_angle_beta                 94.357(2)
_cell_angle_gamma                90
_cell_volume                     568.257
loop_
_atom_site_label
_atom_site_type_symbol
_atom_site_fract_x
_atom_site_fract_y
_atom_site_fract_z
Hg1 Hg 1.0000 0.0000 0.0000
Br1 Br 0.91318(6) -0.3726(2) -0.13765(5)
N1 N 1.4677(5) -0.2141(17) -0.1201(4)
N2 N 1.2286(5) -0.1096(17) -0.0643(5)
C1 C 1.4458(6) -0.0597(18) -0.0336(6)
C2 C 1.3268(7) -0.0071(16) -0.0062(6)
H1 H 1.3154 0.1039 0.0549
C3 C 1.2495(6) -0.2706(19) -0.1513(5)
H2 H 1.1834 -0.3508 -0.1935
C4 C 1.3691(6) -0.319(2) -0.1793(6)
H3 H 1.3809 -0.4279 -0.2408
Hg1_2 Hg 1.0000 -1.0000 0.0000
Hg1_3 Hg 2.0000 0.0000 0.0000
Hg1_4 Hg 1.0000 1.0000 0.0000
Br1_2 Br 0.91318(6) 0.6274(2) -0.13765(5)
Br1B Br 1.08682(6) -0.6274(2) 0.13765(5)
Br1B_2 Br 1.08682(6) 0.3726(2) 0.13765(5)
N1B N 1.5323(5) 0.2141(17) 0.1201(4)
N2B N 1.7714(5) 0.1096(17) 0.0643(5)
N2B_2 N 0.7714(5) 0.1096(17) 0.0643(5)
C1B C 1.5542(6) 0.0597(18) 0.0336(6)
C2B C 1.6732(7) 0.0071(16) 0.0062(6)
H1B H 1.6846 -0.1039 -0.0549
C3B C 1.7505(6) 0.2706(19) 0.1513(5)
H2B H 1.8166 0.3508 0.1935
C4B C 1.6309(6) 0.319(2) 0.1793(6)
H3B H 1.6191 0.4279 0.2408
loop_
_geom_bond_atom_site_label_1
_geom_bond_atom_site_label_2
_geom_bond_site_symmetry_1
_geom_bond_site_symmetry_2
Hg1 Br1 1_555 1_555
Br1 Hg1_2 1_555 1_555
N1 C1 1_555 1_555
N2 Hg1 1_555 1_555
C1 C2 1_555 1_555
C2 N2 1_555 1_555
H1 C2 1_555 1_555
C3 N2 1_555 1_555
H2 C3 1_555 1_555
C4 N1 1_555 1_555
H3 C4 1_555 1_555
Hg1_2 Br1B 1_555 1_555
Hg1_3 N2B 1_555 1_555
Hg1_4 Br1_2 1_555 1_555
Br1_2 Hg1 1_555 1_555
Br1B Hg1 1_555 1_555
Br1B_2 Hg1 1_555 1_555
N1B C1B 1_555 1_555
N2B C2B 1_555 1_555
N2B_2 Hg1 1_555 1_555
C1B C1 1_555 1_555
C2B C1B 1_555 1_555
H1B C2B 1_555 1_555
C3B N2B 1_555 1_555
H2B C3B 1_555 1_555
C4B N1B 1_555 1_555
H3B C4B 1_555 1_555
C3 C4 1_555 1_555
Hg1_4 Br1B_2 1_555 1_555
C3B C4B 1_555 1_555

#END
