
#######################################################################
#
#                 Cambridge Crystallographic Data Centre
#                                CCDC 
#
#######################################################################
#
# If this CIF has been generated from an entry in the Cambridge 
# Structural Database, then it will include bibliographic, chemical, 
# crystal, experimental, refinement or atomic coordinate data resulting 
# from the CCDC's data processing and validation procedures.
#
#######################################################################

data_MOWLIV
_symmetry_cell_setting           monoclinic
_symmetry_space_group_name_H-M   'C 2/m'
_symmetry_Int_Tables_number      12
_space_group_name_Hall           '-C 2y'
loop_
_symmetry_equiv_pos_site_id
_symmetry_equiv_pos_as_xyz
1 x,y,z
2 -x,y,-z
3 1/2+x,1/2+y,z
4 1/2-x,1/2+y,-z
5 -x,-y,-z
6 x,-y,z
7 1/2-x,1/2-y,-z
8 1/2+x,1/2-y,z
_cell_length_a                   13.902(3)
_cell_length_b                   20.768(4)
_cell_length_c                   10.274(2)
_cell_angle_alpha                90
_cell_angle_beta                 131.669(3)
_cell_angle_gamma                90
_cell_volume                     2215.8
loop_
_atom_site_label
_atom_site_type_symbol
_atom_site_fract_x
_atom_site_fract_y
_atom_site_fract_z
Co1 Co 0.10745(6) 0.0000 0.02305(9)
O1 O 0.1835(3) 0.06676(13) 0.2120(4)
O2 O 0.0025(3) 0.06708(13) 0.1667(4)
O3 O 0.3536(3) 0.2371(2) 0.8474(5)
N1 N 0.2508(4) 0.0000 0.0114(6)
C1 C 0.1175(4) 0.08373(17) 0.2503(5)
C2 C 0.1798(4) 0.12586(19) 0.4058(5)
C3 C 0.3081(4) 0.1412(2) 0.5156(6)
H1 H 0.3575 0.1269 0.4903
C4 C 0.3651(4) 0.1778(3) 0.6641(6)
H2 H 0.4524 0.1877 0.7387
C5 C 0.2917(4) 0.1994(2) 0.6997(6)
C6 C 0.1631(4) 0.1864(3) 0.5890(6)
H3 H 0.1130 0.2023 0.6118
C7 C 0.1077(4) 0.1491(2) 0.4424(6)
H4 H 0.0203 0.1397 0.3676
C8 C 0.2986(4) 0.2427(2) 0.9211(6)
C9 C 0.2762(5) 0.3032(2) 0.9484(6)
H5 H 0.2938 0.3391 0.9130
C10 C 0.2725(5) 0.1892(2) 0.9714(7)
H6 H 0.2876 0.1483 0.9518
C11 C 0.3748(6) 0.0000 0.1583(8)
H7 H 0.3949 0.0000 0.2646
C12 C 0.4744(6) 0.0000 0.1579(9)
H8 H 0.5595 0.0000 0.2627
C13 C 0.4469(5) 0.0000 0.0006(8)
C14 C 0.3220(6) 0.0000 -0.1424(9)
H9 H 0.2983 0.0000 -0.2510
C15 C 0.2264(6) 0.0000 -0.1340(8)
H10 H 0.1408 0.0000 -0.2378
O1F O 0.3165(3) 0.43324(13) 1.7880(4)
O2F O 0.4975(3) 0.43292(13) 1.8333(4)
O3F O 0.1464(3) 0.2629(2) 1.1526(5)
C1F C 0.3825(4) 0.41627(17) 1.7497(5)
C2F C 0.3202(4) 0.37414(19) 1.5942(5)
C3F C 0.1919(4) 0.3588(2) 1.4844(6)
H1F H 0.1425 0.3731 1.5097
C4F C 0.1349(4) 0.3222(3) 1.3359(6)
H2F H 0.0476 0.3123 1.2613
C5F C 0.2083(4) 0.3006(2) 1.3003(6)
C6F C 0.3369(4) 0.3136(3) 1.4110(6)
H3F H 0.3870 0.2977 1.3882
C7F C 0.3923(4) 0.3509(2) 1.5576(6)
H4F H 0.4797 0.3603 1.6324
C8F C 0.2014(4) 0.2573(2) 1.0789(6)
C9F C 0.2238(5) 0.1968(2) 1.0516(6)
H5F H 0.2062 0.1609 1.0870
C10F C 0.2275(5) 0.3108(2) 1.0286(7)
H6F H 0.2124 0.3517 1.0482
N1A N 0.7492(4) 0.0000 -0.0114(6)
C11A C 0.6252(6) 0.0000 -0.1583(8)
H7A H 0.6051 0.0000 -0.2646
C12A C 0.5256(6) 0.0000 -0.1579(9)
H8A H 0.4405 0.0000 -0.2627
C13A C 0.5531(5) 0.0000 -0.0006(8)
C14A C 0.6780(6) 0.0000 0.1424(9)
H9A H 0.7017 0.0000 0.2510
C15A C 0.7736(6) 0.0000 0.1340(8)
H10A H 0.8592 0.0000 0.2378
Co1A Co -0.10745(6) 0.0000 -0.02305(9)
O1A O -0.1835(3) 0.06676(13) -0.2120(4)
O2A O -0.0025(3) 0.06708(13) -0.1667(4)
O3A O -0.3536(3) 0.2371(2) -0.8474(5)
C1A C -0.1175(4) 0.08373(17) -0.2503(5)
C2A C -0.1798(4) 0.12586(19) -0.4058(5)
C3A C -0.3081(4) 0.1412(2) -0.5156(6)
H1A H -0.3575 0.1269 -0.4903
C4A C -0.3651(4) 0.1778(3) -0.6641(6)
H2A H -0.4524 0.1877 -0.7387
C5A C -0.2917(4) 0.1994(2) -0.6997(6)
C6A C -0.1631(4) 0.1864(3) -0.5890(6)
H3A H -0.1130 0.2023 -0.6118
C7A C -0.1077(4) 0.1491(2) -0.4424(6)
H4A H -0.0203 0.1397 -0.3676
C8A C -0.2986(4) 0.2427(2) -0.9211(6)
C9A C -0.2762(5) 0.3032(2) -0.9484(6)
H5A H -0.2938 0.3391 -0.9130
C10A C -0.2725(5) 0.1892(2) -0.9714(7)
H6A H -0.2876 0.1483 -0.9518
O1G O -0.3165(3) 0.43324(13) -1.7880(4)
O2G O -0.4975(3) 0.43292(13) -1.8333(4)
O3G O -0.1464(3) 0.2629(2) -1.1526(5)
C1G C -0.3825(4) 0.41627(17) -1.7497(5)
C2G C -0.3202(4) 0.37414(19) -1.5942(5)
C3G C -0.1919(4) 0.3588(2) -1.4844(6)
H1G H -0.1425 0.3731 -1.5097
C4G C -0.1349(4) 0.3222(3) -1.3359(6)
H2G H -0.0476 0.3123 -1.2613
C5G C -0.2083(4) 0.3006(2) -1.3003(6)
C6G C -0.3369(4) 0.3136(3) -1.4110(6)
H3G H -0.3870 0.2977 -1.3882
C7G C -0.3923(4) 0.3509(2) -1.5576(6)
H4G H -0.4797 0.3603 -1.6324
C8G C -0.2014(4) 0.2573(2) -1.0789(6)
C9G C -0.2238(5) 0.1968(2) -1.0516(6)
H5G H -0.2062 0.1609 -1.0870
C10G C -0.2275(5) 0.3108(2) -1.0286(7)
H6G H -0.2124 0.3517 -1.0482
Co1A_2 Co 0.89255(6) 0.0000 -0.02305(9)
Co1B Co -0.39255(6) 0.5000 -1.97695(9)
Co1B_2 Co 0.60745(6) 0.5000 2.02305(9)
Co1C Co -0.60745(6) 0.5000 -2.02305(9)
Co1C_2 Co 0.39255(6) 0.5000 1.97695(9)
O1D O -0.1835(3) -0.06676(13) -0.2120(4)
O1E O 0.1835(3) -0.06676(13) 0.2120(4)
O2D O -0.0025(3) -0.06708(13) -0.1667(4)
O2E O 0.0025(3) -0.06708(13) 0.1667(4)
N1A_2 N -0.2508(4) 0.0000 -0.0114(6)
loop_
_geom_bond_atom_site_label_1
_geom_bond_atom_site_label_2
_geom_bond_site_symmetry_1
_geom_bond_site_symmetry_2
Co1 O1 1_555 1_555
O1 C1 1_555 1_555
O2 C1 1_555 1_555
O3 C5 1_555 1_555
N1 Co1 1_555 1_555
C1 C2 1_555 1_555
C2 C3 1_555 1_555
C3 H1 1_555 1_555
C4 C3 1_555 1_555
H2 C4 1_555 1_555
C5 C4 1_555 1_555
C6 C5 1_555 1_555
H3 C6 1_555 1_555
C7 C2 1_555 1_555
H4 C7 1_555 1_555
C8 O3 1_555 1_555
C9 C8 1_555 1_555
H5 C9 1_555 1_555
C10 C8 1_555 1_555
H6 C10 1_555 1_555
C11 N1 1_555 1_555
H7 C11 1_555 1_555
C12 C11 1_555 1_555
H8 C12 1_555 1_555
C13 C12 1_555 1_555
C14 C13 1_555 1_555
H9 C14 1_555 1_555
C15 N1 1_555 1_555
H10 C15 1_555 1_555
O1F C1F 1_555 1_555
O2F C1F 1_555 1_555
O3F C5F 1_555 1_555
C1F C2F 1_555 1_555
C2F C3F 1_555 1_555
C3F H1F 1_555 1_555
C4F C3F 1_555 1_555
H2F C4F 1_555 1_555
C5F C4F 1_555 1_555
C6F C5F 1_555 1_555
H3F C6F 1_555 1_555
C7F C2F 1_555 1_555
H4F C7F 1_555 1_555
C8F O3F 1_555 1_555
C9F C10 1_555 1_555
H5F C9F 1_555 1_555
C10F C9 1_555 1_555
H6F C10F 1_555 1_555
N1A C11A 1_555 1_555
C11A H7A 1_555 1_555
C12A C11A 1_555 1_555
H8A C12A 1_555 1_555
C13A C13 1_555 1_555
C14A C13A 1_555 1_555
H9A C14A 1_555 1_555
C15A N1A 1_555 1_555
H10A C15A 1_555 1_555
Co1A Co1 1_555 1_555
O1A Co1A 1_555 1_555
O2A Co1 1_555 1_555
O3A C5A 1_555 1_555
C1A O1A 1_555 1_555
C2A C1A 1_555 1_555
C3A C2A 1_555 1_555
H1A C3A 1_555 1_555
C4A C3A 1_555 1_555
H2A C4A 1_555 1_555
C5A C4A 1_555 1_555
C6A C5A 1_555 1_555
H3A C6A 1_555 1_555
C7A C2A 1_555 1_555
H4A C7A 1_555 1_555
C8A O3A 1_555 1_555
C9A C8A 1_555 1_555
H5A C9A 1_555 1_555
C10A C8A 1_555 1_555
H6A C10A 1_555 1_555
O1G C1G 1_555 1_555
O2G C1G 1_555 1_555
O3G C5G 1_555 1_555
C1G C2G 1_555 1_555
C2G C3G 1_555 1_555
C3G H1G 1_555 1_555
C4G C3G 1_555 1_555
H2G C4G 1_555 1_555
C5G C4G 1_555 1_555
C6G C5G 1_555 1_555
H3G C6G 1_555 1_555
C7G C2G 1_555 1_555
H4G C7G 1_555 1_555
C8G O3G 1_555 1_555
C9G C10A 1_555 1_555
H5G C9G 1_555 1_555
C10G C9A 1_555 1_555
H6G C10G 1_555 1_555
Co1A_2 N1A 1_555 1_555
Co1B O1G 1_555 1_555
Co1B_2 O2F 1_555 1_555
Co1C O2G 1_555 1_555
Co1C_2 O1F 1_555 1_555
O1D Co1A 1_555 1_555
O1E Co1 1_555 1_555
O2D Co1 1_555 1_555
O2E Co1A 1_555 1_555
N1A_2 Co1A 1_555 1_555
O2 Co1A 1_555 1_555
C6 C7 1_555 1_555
C14 C15 1_555 1_555
C6F C7F 1_555 1_555
C8F C9F 1_555 1_555
C8F C10F 1_555 1_555
C12A C13A 1_555 1_555
C14A C15A 1_555 1_555
O2A C1A 1_555 1_555
C6A C7A 1_555 1_555
C6G C7G 1_555 1_555
C8G C9G 1_555 1_555
C8G C10G 1_555 1_555
Co1B Co1C 1_555 1_555
Co1B_2 Co1C_2 1_555 1_555

#END
