
#######################################################################
#
#                 Cambridge Crystallographic Data Centre
#                                CCDC 
#
#######################################################################
#
# If this CIF has been generated from an entry in the Cambridge 
# Structural Database, then it will include bibliographic, chemical, 
# crystal, experimental, refinement or atomic coordinate data resulting 
# from the CCDC's data processing and validation procedures.
#
#######################################################################

data_MOWLUH
_symmetry_cell_setting           monoclinic
_symmetry_space_group_name_H-M   'P 21/c'
_symmetry_Int_Tables_number      14
_space_group_name_Hall           '-P 2ybc'
loop_
_symmetry_equiv_pos_site_id
_symmetry_equiv_pos_as_xyz
1 x,y,z
2 -x,1/2+y,1/2-z
3 -x,-y,-z
4 x,1/2-y,1/2+z
_cell_length_a                   9.8440(12)
_cell_length_b                   29.904(4)
_cell_length_c                   9.0831(11)
_cell_angle_alpha                90
_cell_angle_beta                 111.852(2)
_cell_angle_gamma                90
_cell_volume                     2481.72
loop_
_atom_site_label
_atom_site_type_symbol
_atom_site_fract_x
_atom_site_fract_y
_atom_site_fract_z
C1 C 1.3541(4) 0.09575(12) 1.1450(5)
C2 C 1.2774(4) 0.14028(12) 1.1197(4)
C3 C 1.1895(5) 0.15452(12) 0.9706(5)
H1 H 1.1756 0.1359 0.8841
C4 C 1.1214(5) 0.19581(14) 0.9459(5)
H2 H 1.0601 0.2046 0.8448
C5 C 1.1461(5) 0.22354(13) 1.0740(5)
C6 C 1.2334(5) 0.21036(14) 1.2238(5)
H3 H 1.2482 0.2294 1.3094
C7 C 1.2993(4) 0.16905(14) 1.2479(5)
H4 H 1.3586 0.1602 1.3498
C8 C 0.9523(5) 0.27626(12) 0.9522(5)
C9 C 0.8370(5) 0.24776(12) 0.9265(5)
H5 H 0.8506 0.2201 0.9770
C10 C 0.7013(5) 0.26083(12) 0.8249(5)
C11 C 0.6772(5) 0.30198(13) 0.7536(5)
H6 H 0.5840 0.3105 0.6857
C12 C 0.7943(5) 0.33026(14) 0.7852(6)
H7 H 0.7793 0.3586 0.7395
C13 C 0.9322(5) 0.31799(13) 0.8821(6)
H8 H 1.0109 0.3373 0.9004
C14 C 0.5848(4) 0.18959(12) 0.7680(5)
C15 C 0.5086(4) 0.16098(13) 0.8289(5)
H9 H 0.4598 0.1720 0.8913
C16 C 0.5057(4) 0.11611(12) 0.7963(4)
H10 H 0.4565 0.0967 0.8391
C17 C 0.5757(3) 0.09926(11) 0.6996(4)
C18 C 0.6493(4) 0.12900(12) 0.6393(4)
H11 H 0.6956 0.1184 0.5738
C19 C 0.6557(4) 0.17363(13) 0.6735(5)
H12 H 0.7073 0.1930 0.6334
C20 C 0.5690(3) 0.05055(11) 0.6647(3)
C21 C 0.7326(4) 0.04493(11) 0.1385(4)
H13 H 0.6514 0.0400 0.0462
C22 C 0.9588(3) 0.05897(11) 0.2980(4)
C23 C 0.8714(3) 0.05239(10) 0.3854(4)
C24 C 0.9312(4) 0.05408(12) 0.5507(4)
H14 H 0.8742 0.0493 0.6110
C25 C 1.0782(4) 0.06322(13) 0.6203(4)
H15 H 1.1218 0.0649 0.7303
C26 C 1.1639(4) 0.07008(14) 0.5279(5)
H16 H 1.2632 0.0761 0.5788
C27 C 1.1067(4) 0.06825(13) 0.3682(5)
H17 H 1.1639 0.0730 0.3081
C28 C 0.9098(4) 0.05773(15) 0.0027(4)
H18 H 0.9981 0.0756 0.0306
H19 H 0.8330 0.0729 -0.0825
C29 C 0.9373(6) 0.0111(2) -0.0558(5)
H20 H 0.8515 -0.0075 -0.0753
H21 H 0.9511 0.0146 -0.1555
N1 N 0.7284(3) 0.04374(9) 0.2813(3)
N2 N 0.8674(3) 0.05411(10) 0.1399(3)
O1 O 1.4213(3) 0.08503(9) 1.2908(3)
O2 O 1.3499(4) 0.07222(10) 1.0343(4)
O3 O 1.0921(4) 0.26679(9) 1.0594(4)
O4 O 0.5795(4) 0.23427(9) 0.8027(5)
O5 O 0.5136(3) 0.02581(7) 0.7399(3)
O6 O 0.6212(3) 0.03539(7) 0.5681(3)
Zn1 Zn 0.54894(4) 0.034736(12) 0.33122(4)
C21B C 1.2674(4) -0.04493(11) -0.1385(4)
H13B H 1.3486 -0.0400 -0.0462
C22B C 1.0412(3) -0.05897(11) -0.2980(4)
C23B C 1.1286(3) -0.05239(10) -0.3854(4)
C24B C 1.0688(4) -0.05408(12) -0.5507(4)
H14B H 1.1258 -0.0493 -0.6110
C25B C 0.9218(4) -0.06322(13) -0.6203(4)
H15B H 0.8782 -0.0649 -0.7303
C26B C 0.8361(4) -0.07008(14) -0.5279(5)
H16B H 0.7368 -0.0761 -0.5788
C27B C 0.8933(4) -0.06825(13) -0.3682(5)
H17B H 0.8361 -0.0730 -0.3081
C28B C 1.0902(4) -0.05773(15) -0.0027(4)
H18B H 1.0019 -0.0756 -0.0306
H19B H 1.1670 -0.0729 0.0825
C29B C 1.0627(6) -0.0111(2) 0.0558(5)
H20B H 1.1485 0.0075 0.0753
H21B H 1.0489 -0.0146 0.1555
N1B N 1.2716(3) -0.04374(9) -0.2813(3)
N2B N 1.1326(3) -0.05411(10) -0.1399(3)
C1B C -0.3541(4) -0.09575(12) -0.1450(5)
C2B C -0.2774(4) -0.14028(12) -0.1197(4)
C3B C -0.1895(5) -0.15452(12) 0.0294(5)
H1B H -0.1756 -0.1359 0.1159
C4B C -0.1214(5) -0.19581(14) 0.0541(5)
H2B H -0.0601 -0.2046 0.1552
C5B C -0.1461(5) -0.22354(13) -0.0740(5)
C6B C -0.2334(5) -0.21036(14) -0.2238(5)
H3B H -0.2482 -0.2294 -0.3094
C7B C -0.2993(4) -0.16905(14) -0.2479(5)
H4B H -0.3586 -0.1602 -0.3498
C8B C 0.0477(5) -0.27626(12) 0.0478(5)
C9B C 0.1630(5) -0.24776(12) 0.0735(5)
H5B H 0.1494 -0.2201 0.0230
C10B C 0.2987(5) -0.26083(12) 0.1751(5)
C11B C 0.3228(5) -0.30198(13) 0.2464(5)
H6B H 0.4160 -0.3105 0.3143
C12B C 0.2057(5) -0.33026(14) 0.2148(6)
H7B H 0.2207 -0.3586 0.2605
C13B C 0.0678(5) -0.31799(13) 0.1179(6)
H8B H -0.0109 -0.3373 0.0996
C14B C 0.4152(4) -0.18959(12) 0.2320(5)
C15B C 0.4914(4) -0.16098(13) 0.1711(5)
H9B H 0.5402 -0.1720 0.1087
C16B C 0.4943(4) -0.11611(12) 0.2037(4)
H10B H 0.5435 -0.0967 0.1609
C17B C 0.4243(3) -0.09926(11) 0.3004(4)
C18B C 0.3507(4) -0.12900(12) 0.3607(4)
H11B H 0.3044 -0.1184 0.4262
C19B C 0.3443(4) -0.17363(13) 0.3265(5)
H12B H 0.2927 -0.1930 0.3666
C20B C 0.4310(3) -0.05055(11) 0.3353(3)
O1B O -0.4213(3) -0.08503(9) -0.2908(3)
O2B O -0.3499(4) -0.07222(10) -0.0343(4)
O3B O -0.0921(4) -0.26679(9) -0.0594(4)
O4B O 0.4205(4) -0.23427(9) 0.1973(5)
O5B O 0.4864(3) -0.02581(7) 0.2601(3)
O6B O 0.3788(3) -0.03539(7) 0.4319(3)
Zn1B Zn 0.45106(4) -0.034736(12) 0.66878(4)
N1B_2 N 0.2716(3) -0.04374(9) 0.7187(3)
O1_2 O 0.4213(3) 0.08503(9) 0.2908(3)
O1B_2 O 0.5787(3) -0.08503(9) 0.7092(3)
Zn1_2 Zn 1.54894(4) 0.034736(12) 1.33122(4)
Zn1B_2 Zn -0.54894(4) -0.034736(12) -0.33122(4)
Zn1B_3 Zn 1.45106(4) -0.034736(12) -0.33122(4)
loop_
_geom_bond_atom_site_label_1
_geom_bond_atom_site_label_2
_geom_bond_site_symmetry_1
_geom_bond_site_symmetry_2
C1 C2 1_555 1_555
C2 C3 1_555 1_555
C3 H1 1_555 1_555
C4 C3 1_555 1_555
H2 C4 1_555 1_555
C5 C4 1_555 1_555
C6 C5 1_555 1_555
H3 C6 1_555 1_555
C7 C2 1_555 1_555
H4 C7 1_555 1_555
C8 C9 1_555 1_555
C9 H5 1_555 1_555
C10 C9 1_555 1_555
C11 C10 1_555 1_555
H6 C11 1_555 1_555
C12 C11 1_555 1_555
H7 C12 1_555 1_555
C13 C8 1_555 1_555
H8 C13 1_555 1_555
C14 C15 1_555 1_555
C15 H9 1_555 1_555
C16 C15 1_555 1_555
H10 C16 1_555 1_555
C17 C16 1_555 1_555
C18 C17 1_555 1_555
H11 C18 1_555 1_555
C19 C14 1_555 1_555
H12 C19 1_555 1_555
C20 C17 1_555 1_555
C21 H13 1_555 1_555
C22 C23 1_555 1_555
C23 C24 1_555 1_555
C24 H14 1_555 1_555
C25 C24 1_555 1_555
H15 C25 1_555 1_555
C26 C25 1_555 1_555
H16 C26 1_555 1_555
C27 C22 1_555 1_555
H17 C27 1_555 1_555
C28 H18 1_555 1_555
H19 C28 1_555 1_555
C29 C28 1_555 1_555
H20 C29 1_555 1_555
H21 C29 1_555 1_555
N1 C21 1_555 1_555
N2 C21 1_555 1_555
O1 C1 1_555 1_555
O2 C1 1_555 1_555
O3 C5 1_555 1_555
O4 C10 1_555 1_555
O5 C20 1_555 1_555
O6 C20 1_555 1_555
Zn1 N1 1_555 1_555
C21B H13B 1_555 1_555
C22B C23B 1_555 1_555
C23B C24B 1_555 1_555
C24B H14B 1_555 1_555
C25B C24B 1_555 1_555
H15B C25B 1_555 1_555
C26B C25B 1_555 1_555
H16B C26B 1_555 1_555
C27B C22B 1_555 1_555
H17B C27B 1_555 1_555
C28B H18B 1_555 1_555
H19B C28B 1_555 1_555
C29B C29 1_555 1_555
H20B C29B 1_555 1_555
H21B C29B 1_555 1_555
N1B C21B 1_555 1_555
N2B C21B 1_555 1_555
C1B C2B 1_555 1_555
C2B C3B 1_555 1_555
C3B H1B 1_555 1_555
C4B C3B 1_555 1_555
H2B C4B 1_555 1_555
C5B C4B 1_555 1_555
C6B C5B 1_555 1_555
H3B C6B 1_555 1_555
C7B C2B 1_555 1_555
H4B C7B 1_555 1_555
C8B C9B 1_555 1_555
C9B H5B 1_555 1_555
C10B C9B 1_555 1_555
C11B C10B 1_555 1_555
H6B C11B 1_555 1_555
C12B C11B 1_555 1_555
H7B C12B 1_555 1_555
C13B C8B 1_555 1_555
H8B C13B 1_555 1_555
C14B C15B 1_555 1_555
C15B H9B 1_555 1_555
C16B C15B 1_555 1_555
H10B C16B 1_555 1_555
C17B C16B 1_555 1_555
C18B C17B 1_555 1_555
H11B C18B 1_555 1_555
C19B C14B 1_555 1_555
H12B C19B 1_555 1_555
C20B C17B 1_555 1_555
O1B C1B 1_555 1_555
O2B C1B 1_555 1_555
O3B C5B 1_555 1_555
O4B C10B 1_555 1_555
O5B Zn1 1_555 1_555
O6B C20B 1_555 1_555
Zn1B O5 1_555 1_555
N1B_2 Zn1B 1_555 1_555
O1_2 Zn1 1_555 1_555
O1B_2 Zn1B 1_555 1_555
Zn1_2 O1 1_555 1_555
Zn1B_2 O1B 1_555 1_555
Zn1B_3 N1B 1_555 1_555
C6 C7 1_555 1_555
C8 O3 1_555 1_555
C12 C13 1_555 1_555
C14 O4 1_555 1_555
C18 C19 1_555 1_555
C22 N2 1_555 1_555
C23 N1 1_555 1_555
C26 C27 1_555 1_555
C28 N2 1_555 1_555
O6 Zn1 1_555 1_555
C22B N2B 1_555 1_555
C23B N1B 1_555 1_555
C26B C27B 1_555 1_555
C28B C29B 1_555 1_555
C28B N2B 1_555 1_555
C6B C7B 1_555 1_555
C8B O3B 1_555 1_555
C12B C13B 1_555 1_555
C14B O4B 1_555 1_555
C18B C19B 1_555 1_555
C20B O5B 1_555 1_555
O6B Zn1B 1_555 1_555

#END
