
#######################################################################
#
#                 Cambridge Crystallographic Data Centre
#                                CCDC 
#
#######################################################################
#
# If this CIF has been generated from an entry in the Cambridge 
# Structural Database, then it will include bibliographic, chemical, 
# crystal, experimental, refinement or atomic coordinate data resulting 
# from the CCDC's data processing and validation procedures.
#
#######################################################################

data_MOWLER
_symmetry_cell_setting           monoclinic
_symmetry_space_group_name_H-M   'C 2/c'
_symmetry_Int_Tables_number      15
_space_group_name_Hall           '-C 2yn'
loop_
_symmetry_equiv_pos_site_id
_symmetry_equiv_pos_as_xyz
1 x,y,z
2 -x,y,1/2-z
3 1/2+x,1/2+y,z
4 1/2-x,1/2+y,1/2-z
5 -x,-y,-z
6 x,-y,1/2+z
7 1/2-x,1/2-y,-z
8 1/2+x,1/2-y,1/2+z
_cell_length_a                   30.783(2)
_cell_length_b                   10.7368(8)
_cell_length_c                   18.3525(14)
_cell_angle_alpha                90
_cell_angle_beta                 94.8500(10)
_cell_angle_gamma                90
_cell_volume                     6043.98
loop_
_atom_site_label
_atom_site_type_symbol
_atom_site_fract_x
_atom_site_fract_y
_atom_site_fract_z
C1 C 0.10166(10) 0.3138(3) 0.46506(18)
C2 C 0.13819(9) 0.2257(3) 0.48898(15)
C3 C 0.14812(10) 0.1297(3) 0.44430(16)
H1 H 0.1324 0.1206 0.3990
C4 C 0.18102(11) 0.0460(3) 0.46499(17)
H2 H 0.1876 -0.0185 0.4339
C5 C 0.20389(10) 0.0594(3) 0.53220(17)
C6 C 0.19446(11) 0.1547(3) 0.57792(17)
H3 H 0.2100 0.1632 0.6234
C7 C 0.16175(10) 0.2379(3) 0.55595(17)
H4 H 0.1555 0.3031 0.5867
C8 C 0.24264(12) -0.1341(3) 0.52641(17)
C9 C -0.03659(8) 0.3583(2) 0.43683(14)
C10 C -0.05534(7) 0.2625(2) 0.38509(13)
C11 C -0.04538(8) 0.2630(3) 0.31302(14)
H5 H -0.0260 0.3220 0.2976
C12 C -0.06377(8) 0.1773(3) 0.26383(16)
H6 H -0.0575 0.1791 0.2152
C13 C -0.09163(8) 0.0889(3) 0.28780(17)
C14 C -0.10193(9) 0.0858(3) 0.35925(17)
H7 H -0.1208 0.0253 0.3746
C15 C -0.08399(8) 0.1735(3) 0.40786(15)
H8 H -0.0911 0.1729 0.4561
C16 C -0.14934(8) -0.0410(3) 0.23431(16)
C17 C -0.15710(9) -0.1635(3) 0.21628(18)
H9 H -0.1339 -0.2166 0.2098
C18 C -0.19898(9) -0.2078(2) 0.20781(18)
H10 H -0.2042 -0.2906 0.1952
C19 C -0.23320(8) -0.1291(2) 0.21811(15)
C20 C -0.22552(8) -0.0059(2) 0.23505(16)
H11 H -0.2487 0.0475 0.2410
C21 C -0.18355(8) 0.0382(2) 0.24316(16)
H12 H -0.1783 0.1215 0.2546
C22 C -0.30967(8) -0.1128(2) 0.22955(18)
C23 C -0.33918(9) -0.0687(3) 0.17616(16)
H13 H -0.3344 -0.0790 0.1272
C24 C -0.42427(7) 0.0673(2) 0.28773(12)
C25 C -0.38352(7) 0.00590(19) 0.26847(12)
C26 C -0.35311(8) -0.0376(2) 0.32184(14)
H14 H -0.3575 -0.0264 0.3709
C27 C -0.31584(8) -0.0984(3) 0.30239(18)
H15 H -0.2954 -0.1288 0.3382
C28 C -0.37613(8) -0.0090(2) 0.19521(14)
H16 H -0.3963 0.0215 0.1589
C29 C 0.21050(13) -0.2219(4) 0.5257(2)
H17 H 0.1838 -0.2024 0.5432
C30 C 0.28233(12) -0.1606(4) 0.50105(19)
H18 H 0.3040 -0.1003 0.5019
O1 O -0.01149(6) 0.43932(19) 0.41289(10)
O2 O -0.04754(7) 0.35646(18) 0.50119(10)
O3 O -0.43392(7) 0.07364(19) 0.35163(10)
O4 O -0.44717(6) 0.11707(19) 0.23614(10)
O5 O 0.09792(8) 0.4106(2) 0.50210(12)
O6 O 0.07624(7) 0.2905(2) 0.41152(13)
O7 O -0.10649(6) 0.0000(2) 0.23677(14)
O8 O -0.27431(6) -0.18161(18) 0.20851(14)
O9 O 0.23800(8) -0.0168(2) 0.55775(14)
Zn1 Zn 0.048356(8) 0.49056(3) 0.439967(14)
C31 C -0.52617(10) 0.2914(3) 0.39227(15)
H19 H -0.5447 0.2231 0.3866
C32 C -0.52648(10) 0.3609(3) 0.45469(15)
H20 H -0.5450 0.3388 0.4900
C33 C -0.50009(7) 0.4619(2) 0.46604(12)
C34 C -0.47425(11) 0.4890(3) 0.41111(18)
H21 H -0.4559 0.5579 0.4151
C35 C -0.47538(11) 0.4151(3) 0.35032(18)
H22 H -0.4571 0.4354 0.3142
N1 N -0.50072(6) 0.31682(18) 0.33971(10)
Zn2 Zn -0.5000 0.20670(4) 0.2500
C1F C 0.39834(10) -0.8138(3) 0.53494(18)
C2F C 0.36181(9) -0.7257(3) 0.51102(15)
C3F C 0.35188(10) -0.6297(3) 0.55570(16)
H1F H 0.3676 -0.6206 0.6010
C4F C 0.31898(11) -0.5460(3) 0.53501(17)
H2F H 0.3124 -0.4815 0.5661
C5F C 0.29611(10) -0.5594(3) 0.46780(17)
C6F C 0.30554(11) -0.6547(3) 0.42208(17)
H3F H 0.2900 -0.6632 0.3766
C7F C 0.33825(10) -0.7379(3) 0.44405(17)
H4F H 0.3445 -0.8031 0.4133
C8F C 0.25736(12) -0.3659(3) 0.47359(17)
C29F C 0.28950(13) -0.2781(4) 0.4743(2)
H17F H 0.3162 -0.2976 0.4568
C30F C 0.21767(12) -0.3394(4) 0.49895(19)
H18F H 0.1960 -0.3997 0.4981
O5F O 0.40208(8) -0.9106(2) 0.49790(12)
O6F O 0.42376(7) -0.7905(2) 0.58848(13)
O9F O 0.26200(8) -0.4832(2) 0.44225(14)
C31D C -0.47383(10) 0.7086(3) 0.60773(15)
H19D H -0.4553 0.7769 0.6134
C32D C -0.47352(10) 0.6391(3) 0.54531(15)
H20D H -0.4550 0.6612 0.5100
C33D C -0.49991(7) 0.5381(2) 0.53396(12)
C34D C -0.52575(11) 0.5110(3) 0.58889(18)
H21D H -0.5441 0.4421 0.5849
C35D C -0.52462(11) 0.5849(3) 0.64968(18)
H22D H -0.5429 0.5646 0.6858
N1D N -0.49928(6) 0.68318(18) 0.66029(10)
C9A C -0.96341(8) 0.3583(2) 0.06317(14)
C10A C -0.94466(7) 0.2625(2) 0.11491(13)
C11A C -0.95462(8) 0.2630(3) 0.18698(14)
H5A H -0.9740 0.3220 0.2024
C12A C -0.93623(8) 0.1773(3) 0.23617(16)
H6A H -0.9425 0.1791 0.2848
C13A C -0.90837(8) 0.0889(3) 0.21220(17)
C14A C -0.89807(9) 0.0858(3) 0.14075(17)
H7A H -0.8792 0.0253 0.1254
C15A C -0.91601(8) 0.1735(3) 0.09214(15)
H8A H -0.9089 0.1729 0.0439
C16A C -0.85066(8) -0.0410(3) 0.26569(16)
C17A C -0.84290(9) -0.1635(3) 0.28372(18)
H9A H -0.8661 -0.2166 0.2902
C18A C -0.80102(9) -0.2078(2) 0.29219(18)
H10A H -0.7958 -0.2906 0.3048
C19A C -0.76680(8) -0.1291(2) 0.28189(15)
C20A C -0.77448(8) -0.0059(2) 0.26495(16)
H11A H -0.7513 0.0475 0.2590
C21A C -0.81645(8) 0.0382(2) 0.25684(16)
H12A H -0.8217 0.1215 0.2454
C22A C -0.69033(8) -0.1128(2) 0.27045(18)
C23A C -0.66082(9) -0.0687(3) 0.32384(16)
H13A H -0.6656 -0.0790 0.3728
C24A C -0.57573(7) 0.0673(2) 0.21227(12)
C25A C -0.61648(7) 0.00590(19) 0.23153(12)
C26A C -0.64689(8) -0.0376(2) 0.17816(14)
H14A H -0.6425 -0.0264 0.1291
C27A C -0.68416(8) -0.0984(3) 0.19761(18)
H15A H -0.7046 -0.1288 0.1618
C28A C -0.62387(8) -0.0090(2) 0.30479(14)
H16A H -0.6037 0.0215 0.3411
O1A O -0.98851(6) 0.43932(19) 0.08711(10)
O2A O -0.95246(7) 0.35646(18) -0.00119(10)
O3A O -0.56608(7) 0.07364(19) 0.14837(10)
O4A O -0.55283(6) 0.11707(19) 0.26386(10)
O7A O -0.89351(6) 0.0000(2) 0.26323(14)
O8A O -0.72569(6) -0.18161(18) 0.29149(14)
Zn1A Zn -1.048356(8) 0.49056(3) 0.060033(14)
O2D O 0.04754(7) 0.64354(18) 0.49881(10)
O2E O -1.04754(7) 0.64354(18) 0.00119(10)
O3B O 0.06608(7) 0.57364(19) 0.35163(10)
O3C O -1.06608(7) 0.57364(19) 0.14837(10)
O5A O -1.09792(8) 0.4106(2) -0.00210(12)
O6A O -1.07624(7) 0.2905(2) 0.08848(13)
Zn1B Zn -0.451644(8) -0.00944(3) 0.439967(14)
Zn1C Zn -0.548356(8) -0.00944(3) 0.060033(14)
Zn1D Zn -0.048356(8) 0.50944(3) 0.560033(14)
Zn1E Zn -0.951644(8) 0.50944(3) -0.060033(14)
Zn1F Zn 0.451644(8) -0.99056(3) 0.560033(14)
N1A N -0.49928(6) 0.31682(18) 0.16029(10)
Zn2D Zn -0.5000 0.79330(4) 0.7500
loop_
_geom_bond_atom_site_label_1
_geom_bond_atom_site_label_2
_geom_bond_site_symmetry_1
_geom_bond_site_symmetry_2
C1 C2 1_555 1_555
C2 C3 1_555 1_555
C3 H1 1_555 1_555
C4 C3 1_555 1_555
H2 C4 1_555 1_555
C5 C4 1_555 1_555
C6 C5 1_555 1_555
H3 C6 1_555 1_555
C7 C2 1_555 1_555
H4 C7 1_555 1_555
C8 C29 1_555 1_555
C9 C10 1_555 1_555
C10 C11 1_555 1_555
C11 H5 1_555 1_555
C12 C11 1_555 1_555
H6 C12 1_555 1_555
C13 C12 1_555 1_555
C14 C13 1_555 1_555
H7 C14 1_555 1_555
C15 C10 1_555 1_555
H8 C15 1_555 1_555
C16 C17 1_555 1_555
C17 H9 1_555 1_555
C18 C17 1_555 1_555
H10 C18 1_555 1_555
C19 C18 1_555 1_555
C20 C19 1_555 1_555
H11 C20 1_555 1_555
C21 C16 1_555 1_555
H12 C21 1_555 1_555
C22 C23 1_555 1_555
C23 H13 1_555 1_555
C24 C25 1_555 1_555
C25 C26 1_555 1_555
C26 H14 1_555 1_555
C27 C22 1_555 1_555
H15 C27 1_555 1_555
C28 C23 1_555 1_555
H16 C28 1_555 1_555
C29 H17 1_555 1_555
C30 C8 1_555 1_555
H18 C30 1_555 1_555
O1 C9 1_555 1_555
O2 C9 1_555 1_555
O3 C24 1_555 1_555
O4 C24 1_555 1_555
O5 C1 1_555 1_555
O6 C1 1_555 1_555
O7 C13 1_555 1_555
O8 C19 1_555 1_555
O9 C5 1_555 1_555
Zn1 O1 1_555 1_555
C31 H19 1_555 1_555
C32 C31 1_555 1_555
H20 C32 1_555 1_555
C33 C32 1_555 1_555
C34 C33 1_555 1_555
H21 C34 1_555 1_555
C35 C34 1_555 1_555
H22 C35 1_555 1_555
N1 C31 1_555 1_555
Zn2 O4 1_555 1_555
C1F C2F 1_555 1_555
C2F C3F 1_555 1_555
C3F H1F 1_555 1_555
C4F C3F 1_555 1_555
H2F C4F 1_555 1_555
C5F C4F 1_555 1_555
C6F C5F 1_555 1_555
H3F C6F 1_555 1_555
C7F C2F 1_555 1_555
H4F C7F 1_555 1_555
C8F C29F 1_555 1_555
C29F C30 1_555 1_555
H17F C29F 1_555 1_555
C30F C29 1_555 1_555
H18F C30F 1_555 1_555
O5F C1F 1_555 1_555
O6F C1F 1_555 1_555
O9F C5F 1_555 1_555
C31D H19D 1_555 1_555
C32D C31D 1_555 1_555
H20D C32D 1_555 1_555
C33D C33 1_555 1_555
C34D C33D 1_555 1_555
H21D C34D 1_555 1_555
C35D C34D 1_555 1_555
H22D C35D 1_555 1_555
N1D C31D 1_555 1_555
C9A C10A 1_555 1_555
C10A C11A 1_555 1_555
C11A H5A 1_555 1_555
C12A C11A 1_555 1_555
H6A C12A 1_555 1_555
C13A C12A 1_555 1_555
C14A C13A 1_555 1_555
H7A C14A 1_555 1_555
C15A C10A 1_555 1_555
H8A C15A 1_555 1_555
C16A C17A 1_555 1_555
C17A H9A 1_555 1_555
C18A C17A 1_555 1_555
H10A C18A 1_555 1_555
C19A C18A 1_555 1_555
C20A C19A 1_555 1_555
H11A C20A 1_555 1_555
C21A C16A 1_555 1_555
H12A C21A 1_555 1_555
C22A C23A 1_555 1_555
C23A H13A 1_555 1_555
C24A C25A 1_555 1_555
C25A C26A 1_555 1_555
C26A H14A 1_555 1_555
C27A C22A 1_555 1_555
H15A C27A 1_555 1_555
C28A C23A 1_555 1_555
H16A C28A 1_555 1_555
O1A C9A 1_555 1_555
O2A C9A 1_555 1_555
O3A C24A 1_555 1_555
O4A Zn2 1_555 1_555
O7A C13A 1_555 1_555
O8A C19A 1_555 1_555
Zn1A O1A 1_555 1_555
O2D Zn1 1_555 1_555
O2E Zn1A 1_555 1_555
O3B Zn1 1_555 1_555
O3C Zn1A 1_555 1_555
O5A Zn1A 1_555 1_555
O6A Zn1A 1_555 1_555
Zn1B O3 1_555 1_555
Zn1C O3A 1_555 1_555
Zn1D O2 1_555 1_555
Zn1E O2A 1_555 1_555
Zn1F O5F 1_555 1_555
N1A Zn2 1_555 1_555
Zn2D N1D 1_555 1_555
C6 C7 1_555 1_555
C8 O9 1_555 1_555
C14 C15 1_555 1_555
C16 O7 1_555 1_555
C20 C21 1_555 1_555
C22 O8 1_555 1_555
C25 C28 1_555 1_555
C26 C27 1_555 1_555
O5 Zn1 1_555 1_555
O6 Zn1 1_555 1_555
C35 N1 1_555 1_555
N1 Zn2 1_555 1_555
C6F C7F 1_555 1_555
C8F C30F 1_555 1_555
C8F O9F 1_555 1_555
O6F Zn1F 1_555 1_555
C32D C33D 1_555 1_555
C35D N1D 1_555 1_555
C14A C15A 1_555 1_555
C16A O7A 1_555 1_555
C20A C21A 1_555 1_555
C22A O8A 1_555 1_555
C24A O4A 1_555 1_555
C25A C28A 1_555 1_555
C26A C27A 1_555 1_555

#END
