
#######################################################################
#
#                 Cambridge Crystallographic Data Centre
#                                CCDC 
#
#######################################################################
#
# If this CIF has been generated from an entry in the Cambridge 
# Structural Database, then it will include bibliographic, chemical, 
# crystal, experimental, refinement or atomic coordinate data resulting 
# from the CCDC's data processing and validation procedures.
#
#######################################################################

data_MOWMUI
_symmetry_cell_setting           monoclinic
_symmetry_space_group_name_H-M   'P 21/c'
_symmetry_Int_Tables_number      14
_space_group_name_Hall           '-P 2ybc'
loop_
_symmetry_equiv_pos_site_id
_symmetry_equiv_pos_as_xyz
1 x,y,z
2 -x,1/2+y,1/2-z
3 -x,-y,-z
4 x,1/2-y,1/2+z
_cell_length_a                   8.808(8)
_cell_length_b                   10.112(9)
_cell_length_c                   29.94(3)
_cell_angle_alpha                90
_cell_angle_beta                 101.40(3)
_cell_angle_gamma                90
_cell_volume                     2614.04
loop_
_atom_site_label
_atom_site_type_symbol
_atom_site_fract_x
_atom_site_fract_y
_atom_site_fract_z
C1 C 0.3983(2) 0.11431(19) 0.44290(6)
C2 C 0.3735(2) 0.17269(18) 0.39594(6)
C3 C 0.3108(3) 0.29821(19) 0.38732(7)
H1 H 0.2871 0.3474 0.4113
C4 C 0.2826(3) 0.3520(2) 0.34388(7)
H2 H 0.2379 0.4353 0.3385
C5 C 0.3220(3) 0.2799(2) 0.30863(7)
C6 C 0.3865(3) 0.1555(2) 0.31659(7)
H3 H 0.4138 0.1079 0.2928
C7 C 0.4106(3) 0.1017(2) 0.35977(7)
H4 H 0.4520 0.0171 0.3647
C8 C 0.2567(3) 0.4543(2) 0.25395(7)
C9 C 0.3580(3) 0.5540(3) 0.26983(9)
H5 H 0.4537 0.5347 0.2880
C10 C 0.3174(4) 0.6836(3) 0.25869(10)
H6 H 0.3844 0.7522 0.2698
C11 C 0.1767(3) 0.7098(2) 0.23093(9)
C12 C 0.0772(3) 0.6104(3) 0.21457(9)
H7 H -0.0174 0.6295 0.1957
C13 C 0.1174(3) 0.4805(2) 0.22618(8)
H8 H 0.0501 0.4119 0.2151
C14 C 0.1930(3) 0.9165(2) 0.19277(8)
C15 C 0.2001(3) 1.0506(2) 0.20125(7)
H9 H 0.1658 1.0848 0.2263
C16 C 0.2587(3) 1.1336(2) 0.17212(7)
H10 H 0.2671 1.2238 0.1783
C17 C 0.3050(2) 1.08354(19) 0.13378(7)
C18 C 0.2956(3) 0.9485(2) 0.12575(7)
H11 H 0.3248 0.9144 0.0998
C19 C 0.2435(3) 0.8634(2) 0.15576(8)
H12 H 0.2425 0.7724 0.1511
C20 C 0.3580(3) 1.1772(2) 0.10127(7)
C21 C 0.3431(3) -0.3790(2) 0.47973(8)
H13 H 0.4208 -0.3902 0.5054
C22 C 0.2147(3) -0.4603(2) 0.47440(10)
H14 H 0.2068 -0.5250 0.4959
C23 C 0.0994(3) -0.4434(3) 0.43688(11)
H15 H 0.0105 -0.4952 0.4328
C24 C 0.1170(3) -0.3488(3) 0.40542(10)
H16 H 0.0410 -0.3371 0.3793
C25 C 0.2485(3) -0.2715(3) 0.41292(8)
H17 H 0.2593 -0.2074 0.3915
C26 C 0.7909(3) 0.0679(2) 0.47772(8)
H18 H 0.7312 0.0799 0.4998
C27 C 0.9050(3) 0.1592(3) 0.47534(11)
H19 H 0.9224 0.2298 0.4957
C28 C 0.9922(3) 0.1447(3) 0.44273(11)
H20 H 1.0693 0.2054 0.4401
C29 C 0.9631(4) 0.0389(3) 0.41420(10)
H21 H 1.0214 0.0257 0.3918
C30 C 0.8479(3) -0.0477(3) 0.41856(10)
H22 H 0.8287 -0.1185 0.3984
Co1 Co 0.56812(3) -0.16496(3) 0.455378(8)
N1 N 0.3612(2) -0.28524(17) 0.44982(6)
N2 N 0.7612(2) -0.03559(18) 0.45049(6)
O1 O 0.42717(18) -0.00672(13) 0.44709(5)
O2 O 0.38380(17) 0.18987(13) 0.47538(4)
O3 O 0.2964(2) 0.32256(15) 0.26386(5)
O4 O 0.1287(3) 0.84090(17) 0.22279(7)
O5 O 0.3197(2) 1.15570(15) 0.05908(5)
O6 O 0.43502(19) 1.27785(15) 0.11643(5)
Co1A Co 0.43188(3) 1.33504(3) 0.044622(8)
Co1B Co 0.43188(3) 0.16496(3) 0.544622(8)
O2B O 0.61620(17) -0.18987(13) 0.52462(4)
O5A O 0.6803(2) -0.34430(15) 0.44092(5)
O6A O 0.56498(19) -0.22215(15) 0.38357(5)
loop_
_geom_bond_atom_site_label_1
_geom_bond_atom_site_label_2
_geom_bond_site_symmetry_1
_geom_bond_site_symmetry_2
C1 C2 1_555 1_555
C2 C3 1_555 1_555
C3 H1 1_555 1_555
C4 C3 1_555 1_555
H2 C4 1_555 1_555
C5 C4 1_555 1_555
C6 C5 1_555 1_555
H3 C6 1_555 1_555
C7 C2 1_555 1_555
H4 C7 1_555 1_555
C8 C9 1_555 1_555
C9 H5 1_555 1_555
C10 C9 1_555 1_555
H6 C10 1_555 1_555
C11 C10 1_555 1_555
C12 C11 1_555 1_555
H7 C12 1_555 1_555
C13 C8 1_555 1_555
H8 C13 1_555 1_555
C14 C15 1_555 1_555
C15 H9 1_555 1_555
C16 C15 1_555 1_555
H10 C16 1_555 1_555
C17 C16 1_555 1_555
C18 C17 1_555 1_555
H11 C18 1_555 1_555
C19 C14 1_555 1_555
H12 C19 1_555 1_555
C20 C17 1_555 1_555
C21 H13 1_555 1_555
C22 C21 1_555 1_555
H14 C22 1_555 1_555
C23 C22 1_555 1_555
H15 C23 1_555 1_555
C24 C23 1_555 1_555
H16 C24 1_555 1_555
C25 C24 1_555 1_555
H17 C25 1_555 1_555
C26 H18 1_555 1_555
C27 C26 1_555 1_555
H19 C27 1_555 1_555
C28 C27 1_555 1_555
H20 C28 1_555 1_555
C29 C28 1_555 1_555
H21 C29 1_555 1_555
C30 C29 1_555 1_555
H22 C30 1_555 1_555
Co1 N1 1_555 1_555
N1 C21 1_555 1_555
N2 C26 1_555 1_555
O1 C1 1_555 1_555
O2 C1 1_555 1_555
O3 C5 1_555 1_555
O4 C11 1_555 1_555
O5 C20 1_555 1_555
O6 C20 1_555 1_555
Co1A O5 1_555 1_555
Co1B O2 1_555 1_555
O2B Co1 1_555 1_555
O5A Co1 1_555 1_555
O6A Co1 1_555 1_555
C6 C7 1_555 1_555
C8 O3 1_555 1_555
C12 C13 1_555 1_555
C14 O4 1_555 1_555
C18 C19 1_555 1_555
C25 N1 1_555 1_555
C30 N2 1_555 1_555
Co1 N2 1_555 1_555
Co1 O1 1_555 1_555
O6 Co1A 1_555 1_555

#END
