
#######################################################################
#
#                 Cambridge Crystallographic Data Centre
#                                CCDC 
#
#######################################################################
#
# If this CIF has been generated from an entry in the Cambridge 
# Structural Database, then it will include bibliographic, chemical, 
# crystal, experimental, refinement or atomic coordinate data resulting 
# from the CCDC's data processing and validation procedures.
#
#######################################################################

data_MOWNAP
_symmetry_cell_setting           monoclinic
_symmetry_space_group_name_H-M   'P 21/c'
_symmetry_Int_Tables_number      14
_space_group_name_Hall           '-P 2ybc'
loop_
_symmetry_equiv_pos_site_id
_symmetry_equiv_pos_as_xyz
1 x,y,z
2 -x,1/2+y,1/2-z
3 -x,-y,-z
4 x,1/2-y,1/2+z
_cell_length_a                   7.9790(7)
_cell_length_b                   32.739(3)
_cell_length_c                   8.5568(7)
_cell_angle_alpha                90
_cell_angle_beta                 103.2200(10)
_cell_angle_gamma                90
_cell_volume                     2176.01
loop_
_atom_site_label
_atom_site_type_symbol
_atom_site_fract_x
_atom_site_fract_y
_atom_site_fract_z
O1 O 0.0224(3) -0.04945(6) 0.4665(2)
Zn1 Zn 0.20485(4) 0.037163(9) 0.49546(4)
O2 O 0.2657(3) -0.01818(6) 0.5857(3)
O3 O 1.5971(3) -0.06480(6) 1.3636(3)
N1 N 0.1988(3) 0.03032(7) 0.2581(3)
O4 O 1.7364(3) -0.11032(7) 1.5343(3)
C1 C 0.1711(3) -0.04932(8) 0.5588(3)
C2 C 1.4808(3) -0.13204(8) 1.3510(3)
C3 C 0.4108(4) -0.08896(8) 0.7294(4)
H1 H 0.4750 -0.0650 0.7443
C4 C 0.2432(3) -0.08807(8) 0.6376(3)
C5 C 0.4840(4) -0.12441(9) 0.7987(4)
H2 H 0.5968 -0.1245 0.8593
C6 C 1.3702(4) -0.20027(9) 1.3507(4)
H3 H 1.3779 -0.2265 1.3937
O5 O 1.1240(3) -0.22133(6) 1.1633(3)
C7 C 0.1484(4) -0.12428(9) 0.6184(4)
H4 H 0.0361 -0.1244 0.5567
O6 O 0.4516(3) -0.19733(6) 0.8369(3)
C8 C 1.6146(4) -0.10111(9) 1.4227(4)
C9 C 0.9580(4) -0.21174(9) 1.0798(4)
C10 C 0.6242(4) -0.20046(8) 0.9184(4)
C11 C 1.3473(4) -0.12256(9) 1.2224(4)
H5 H 1.3395 -0.0964 1.1792
C12 C 0.3884(4) -0.15999(9) 0.7775(4)
C13 C 1.4917(4) -0.17119(9) 1.4141(4)
H6 H 1.5819 -0.1779 1.5000
C14 C 1.2374(4) -0.19016(8) 1.2234(4)
C15 C 0.2196(4) -0.15985(9) 0.6901(4)
H7 H 0.1544 -0.1837 0.6798
C16 C 1.2246(4) -0.15162(9) 1.1569(4)
H8 H 1.1353 -0.1452 1.0697
C17 C 0.2805(4) -0.00126(9) 0.2098(4)
H9 H 0.3318 -0.0208 0.2845
C18 C 0.7328(4) -0.22195(10) 0.8473(4)
H10 H 0.6935 -0.2327 0.7449
C19 C 0.9025(4) -0.22768(10) 0.9291(4)
H11 H 0.9780 -0.2422 0.8818
C20 C 0.8487(4) -0.18986(9) 1.1511(4)
H12 H 0.8882 -0.1789 1.2531
C21 C 0.6800(4) -0.18435(10) 1.0699(4)
H13 H 0.6044 -0.1698 1.1171
C22 C 0.1262(4) 0.05834(11) 0.1500(4)
H14 H 0.0705 0.0805 0.1834
C23 C 0.2905(6) -0.00562(13) 0.0526(5)
H15 H 0.3481 -0.0278 0.0215
C24 C 0.1314(6) 0.05533(14) -0.0086(4)
H16 H 0.0790 0.0750 -0.0820
C25 C 0.2149(7) 0.02292(16) -0.0576(5)
H17 H 0.2201 0.0204 -0.1646
O1B O -0.0224(3) 0.04945(6) 0.5335(2)
Zn1B Zn -0.20485(4) -0.037163(9) 0.50454(4)
Zn1B_2 Zn 1.79515(4) -0.037163(9) 1.50454(4)
O3B O 0.4029(3) 0.06480(6) 0.6364(3)
O4B O 0.2636(3) 0.11032(7) 0.4657(3)
loop_
_geom_bond_atom_site_label_1
_geom_bond_atom_site_label_2
_geom_bond_site_symmetry_1
_geom_bond_site_symmetry_2
O1 C1 1_555 1_555
Zn1 O2 1_555 1_555
O2 C1 1_555 1_555
O3 C8 1_555 1_555
N1 Zn1 1_555 1_555
O4 C8 1_555 1_555
C1 C4 1_555 1_555
C2 C8 1_555 1_555
C3 H1 1_555 1_555
C4 C3 1_555 1_555
C5 C3 1_555 1_555
H2 C5 1_555 1_555
C6 H3 1_555 1_555
O5 C9 1_555 1_555
C7 C4 1_555 1_555
H4 C7 1_555 1_555
O6 C10 1_555 1_555
C9 C19 1_555 1_555
C10 C18 1_555 1_555
C11 C2 1_555 1_555
H5 C11 1_555 1_555
C12 C5 1_555 1_555
C13 C2 1_555 1_555
H6 C13 1_555 1_555
C14 C6 1_555 1_555
C15 C7 1_555 1_555
H7 C15 1_555 1_555
C16 C11 1_555 1_555
H8 C16 1_555 1_555
C17 N1 1_555 1_555
H9 C17 1_555 1_555
C18 H10 1_555 1_555
C19 C18 1_555 1_555
H11 C19 1_555 1_555
C20 C9 1_555 1_555
H12 C20 1_555 1_555
C21 C10 1_555 1_555
H13 C21 1_555 1_555
C22 N1 1_555 1_555
H14 C22 1_555 1_555
C23 C17 1_555 1_555
H15 C23 1_555 1_555
C24 C22 1_555 1_555
H16 C24 1_555 1_555
C25 C23 1_555 1_555
H17 C25 1_555 1_555
O1B Zn1 1_555 1_555
Zn1B O1 1_555 1_555
Zn1B_2 O3 1_555 1_555
O3B Zn1 1_555 1_555
O4B Zn1 1_555 1_555
O4 Zn1B_2 1_555 1_555
C6 C13 1_555 1_555
O5 C14 1_555 1_555
O6 C12 1_555 1_555
C12 C15 1_555 1_555
C14 C16 1_555 1_555
C20 C21 1_555 1_555
C24 C25 1_555 1_555

#END
