
#######################################################################
#
#                 Cambridge Crystallographic Data Centre
#                                CCDC 
#
#######################################################################
#
# If this CIF has been generated from an entry in the Cambridge 
# Structural Database, then it will include bibliographic, chemical, 
# crystal, experimental, refinement or atomic coordinate data resulting 
# from the CCDC's data processing and validation procedures.
#
#######################################################################

data_MOWNUI
_symmetry_cell_setting           monoclinic
_symmetry_space_group_name_H-M   'C 2/c'
_symmetry_Int_Tables_number      15
_space_group_name_Hall           '-C 2yn'
loop_
_symmetry_equiv_pos_site_id
_symmetry_equiv_pos_as_xyz
1 x,y,z
2 -x,y,1/2-z
3 1/2+x,1/2+y,z
4 1/2-x,1/2+y,1/2-z
5 -x,-y,-z
6 x,-y,1/2+z
7 1/2-x,1/2-y,-z
8 1/2+x,1/2-y,1/2+z
_cell_length_a                   14.4293(6)
_cell_length_b                   10.8416(5)
_cell_length_c                   16.3967(8)
_cell_angle_alpha                90
_cell_angle_beta                 91.171(2)
_cell_angle_gamma                90
_cell_volume                     2564.51
loop_
_atom_site_label
_atom_site_type_symbol
_atom_site_fract_x
_atom_site_fract_y
_atom_site_fract_z
Ag1 Ag 0.0000 0.14609(9) 0.2500
C1 C 0.1005(4) 0.2135(5) 0.1191(3)
C2 C 0.1782(4) 0.2339(5) 0.0568(3)
C3 C 0.1620(3) 0.2063(5) -0.0260(3)
C4 C 0.0746(4) 0.1595(6) -0.0547(4)
H1 H 0.0265 0.1488 -0.0185
C5 C 0.0616(5) 0.1303(6) -0.1352(4)
H2 H 0.0044 0.1004 -0.1534
C6 C 0.1324(5) 0.1448(6) -0.1903(4)
H3 H 0.1218 0.1242 -0.2447
C7 C 0.2651(4) 0.2777(5) 0.0833(3)
C8 C 0.2164(5) 0.1881(6) -0.1667(3)
H4 H 0.2628 0.1959 -0.2049
O1 O 0.0333(3) 0.2806(5) 0.1148(3)
O2 O 0.1150(3) 0.1292(5) 0.1686(3)
Ag1F Ag 0.5000 0.35391(9) -0.2500
C1F C 0.3995(4) 0.2865(5) -0.1191(3)
C2F C 0.3218(4) 0.2661(5) -0.0568(3)
C3F C 0.3380(3) 0.2937(5) 0.0260(3)
C4F C 0.4254(4) 0.3405(6) 0.0547(4)
H1F H 0.4735 0.3512 0.0185
C5F C 0.4384(5) 0.3697(6) 0.1352(4)
H2F H 0.4956 0.3996 0.1534
C6F C 0.3676(5) 0.3552(6) 0.1903(4)
H3F H 0.3782 0.3758 0.2447
C7F C 0.2349(4) 0.2223(5) -0.0833(3)
C8F C 0.2836(5) 0.3119(6) 0.1667(3)
H4F H 0.2372 0.3041 0.2049
O1F O 0.4667(3) 0.2194(5) -0.1148(3)
O2F O 0.3850(3) 0.3708(5) -0.1686(3)
O2A O -0.1150(3) 0.1292(5) 0.3314(3)
Ag2 Ag 0.0000 0.5000 0.5000
C9 C -0.1667(4) 0.5877(5) 0.3966(4)
C10 C -0.2563(5) 0.6213(6) 0.3787(4)
H5 H -0.2734 0.6405 0.3252
C11 C -0.3206(4) 0.6269(6) 0.4381(5)
H6 H -0.3815 0.6492 0.4255
C12 C -0.2943(4) 0.5990(6) 0.5172(5)
H7 H -0.3370 0.6027 0.5589
C13 C -0.2024(4) 0.5651(5) 0.5339(4)
C14 C -0.1703(5) 0.5363(7) 0.6183(4)
H8 H -0.1058 0.5146 0.6182
H9 H -0.2056 0.4684 0.6390
H10 H -0.1789 0.6072 0.6524
C15 C -0.0937(5) 0.5788(7) 0.3325(4)
H11 H -0.0359 0.5538 0.3574
H12 H -0.0862 0.6578 0.3070
H13 H -0.1124 0.5191 0.2921
N1 N -0.1402(3) 0.5604(4) 0.4741(3)
C9D C 0.1667(4) 0.4123(5) 0.6034(4)
C10D C 0.2563(5) 0.3787(6) 0.6213(4)
H5D H 0.2734 0.3595 0.6748
C11D C 0.3206(4) 0.3731(6) 0.5619(5)
H6D H 0.3815 0.3508 0.5745
C12D C 0.2943(4) 0.4010(6) 0.4828(5)
H7D H 0.3370 0.3973 0.4411
C13D C 0.2024(4) 0.4349(5) 0.4661(4)
C14D C 0.1703(5) 0.4637(7) 0.3817(4)
H8D H 0.1058 0.4854 0.3818
H9D H 0.2056 0.5316 0.3610
H10D H 0.1789 0.3928 0.3476
C15D C 0.0937(5) 0.4212(7) 0.6675(4)
H11D H 0.0359 0.4462 0.6426
H12D H 0.0862 0.3422 0.6930
H13D H 0.1124 0.4809 0.7079
N1D N 0.1402(3) 0.4396(4) 0.5259(3)
loop_
_geom_bond_atom_site_label_1
_geom_bond_atom_site_label_2
_geom_bond_site_symmetry_1
_geom_bond_site_symmetry_2
Ag1 O2 1_555 1_555
Ag2 N1 1_555 1_555
C1 C2 1_555 1_555
C2 C3 1_555 1_555
C3 C4 1_555 1_555
C4 H1 1_555 1_555
C5 C4 1_555 1_555
H2 C5 1_555 1_555
C6 C5 1_555 1_555
H3 C6 1_555 1_555
C7 C2 1_555 1_555
C8 C6 1_555 1_555
H4 C8 1_555 1_555
C9 C10 1_555 1_555
C10 H5 1_555 1_555
C11 C10 1_555 1_555
H6 C11 1_555 1_555
C12 C11 1_555 1_555
H7 C12 1_555 1_555
C13 C12 1_555 1_555
C14 C13 1_555 1_555
H8 C14 1_555 1_555
H9 C14 1_555 1_555
H10 C14 1_555 1_555
C15 C9 1_555 1_555
H11 C15 1_555 1_555
H12 C15 1_555 1_555
H13 C15 1_555 1_555
N1 C9 1_555 1_555
O1 C1 1_555 1_555
O2 C1 1_555 1_555
Ag1F O2F 1_555 1_555
C1F C2F 1_555 1_555
C2F C3F 1_555 1_555
C3F C7 1_555 1_555
C4F C3F 1_555 1_555
H1F C4F 1_555 1_555
C5F C4F 1_555 1_555
H2F C5F 1_555 1_555
C6F C5F 1_555 1_555
H3F C6F 1_555 1_555
C7F C3 1_555 1_555
C8F C7 1_555 1_555
H4F C8F 1_555 1_555
C9D C10D 1_555 1_555
C10D H5D 1_555 1_555
C11D C10D 1_555 1_555
H6D C11D 1_555 1_555
C12D C11D 1_555 1_555
H7D C12D 1_555 1_555
C13D C12D 1_555 1_555
C14D C13D 1_555 1_555
H8D C14D 1_555 1_555
H9D C14D 1_555 1_555
H10D C14D 1_555 1_555
C15D C9D 1_555 1_555
H11D C15D 1_555 1_555
H12D C15D 1_555 1_555
H13D C15D 1_555 1_555
N1D Ag2 1_555 1_555
O1F C1F 1_555 1_555
O2F C1F 1_555 1_555
O2A Ag1 1_555 1_555
C8 C7F 1_555 1_555
C13 N1 1_555 1_555
C2F C7F 1_555 1_555
C6F C8F 1_555 1_555
C9D N1D 1_555 1_555
C13D N1D 1_555 1_555

#END
