
#######################################################################
#
#                 Cambridge Crystallographic Data Centre
#                                CCDC 
#
#######################################################################
#
# If this CIF has been generated from an entry in the Cambridge 
# Structural Database, then it will include bibliographic, chemical, 
# crystal, experimental, refinement or atomic coordinate data resulting 
# from the CCDC's data processing and validation procedures.
#
#######################################################################

data_MOWPAQ
_symmetry_cell_setting           monoclinic
_symmetry_space_group_name_H-M   'C 2/c'
_symmetry_Int_Tables_number      15
_space_group_name_Hall           '-C 2yn'
loop_
_symmetry_equiv_pos_site_id
_symmetry_equiv_pos_as_xyz
1 x,y,z
2 -x,y,1/2-z
3 1/2+x,1/2+y,z
4 1/2-x,1/2+y,1/2-z
5 -x,-y,-z
6 x,-y,1/2+z
7 1/2-x,1/2-y,-z
8 1/2+x,1/2-y,1/2+z
_cell_length_a                   17.8318(13)
_cell_length_b                   11.4222(13)
_cell_length_c                   14.6455(12)
_cell_angle_alpha                90
_cell_angle_beta                 93.114(8)
_cell_angle_gamma                90
_cell_volume                     2978.57
loop_
_atom_site_label
_atom_site_type_symbol
_atom_site_fract_x
_atom_site_fract_y
_atom_site_fract_z
Ag1 Ag 0.057486(15) 0.674432(19) 0.164751(18)
C1 C 0.1610(2) 0.7021(3) 0.3300(2)
C2 C 0.20588(16) 0.7272(3) 0.4188(2)
C3 C 0.22907(16) 0.8429(2) 0.4404(2)
C4 C 0.20823(18) 0.9392(3) 0.3829(2)
H1 H 0.1781 0.9263 0.3300
C5 C 0.23184(19) 1.0508(3) 0.4039(2)
H2 H 0.2180 1.1125 0.3652
C6 C 0.27701(18) 1.0720(3) 0.4839(3)
H3 H 0.2933 1.1477 0.4975
C7 C 0.29690(17) 0.9832(3) 0.5413(2)
H4 H 0.3260 0.9992 0.5944
C8 C 0.22593(16) 0.6354(3) 0.4779(2)
C9 C 0.12135(18) -0.0753(3) 0.1413(2)
H5 H 0.1666 -0.1157 0.1480
C10 C 0.12347(17) 0.0444(2) 0.1449(2)
H6 H 0.1692 0.0828 0.1549
C11 C 0.05747(16) 0.1086(3) 0.13356(19)
C12 C -0.00791(17) 0.0438(2) 0.1197(2)
H7 H -0.0540 0.0817 0.1117
C13 C -0.00451(19) -0.0763(3) 0.1178(2)
H8 H -0.0491 -0.1176 0.1081
C14 C 0.05733(15) 0.2380(2) 0.13837(18)
C15 C 0.11426(18) 0.3000(3) 0.1856(2)
H9 H 0.1542 0.2603 0.2151
C16 C 0.00141(18) 0.4238(3) 0.1025(2)
H10 H -0.0377 0.4657 0.0734
C17 C 0.00026(17) 0.3044(2) 0.0961(2)
H11 H -0.0390 0.2674 0.0631
C18 C 0.11130(18) 0.4202(3) 0.1886(2)
H12 H 0.1502 0.4598 0.2203
N1 N 0.05569(13) 0.4833(2) 0.14846(17)
N2 N 0.05906(15) -0.1366(2) 0.12897(19)
O1 O 0.09270(14) 0.6881(2) 0.33380(18)
O2 O 0.19704(15) 0.6962(2) 0.26019(17)
Ag1_2 Ag 0.057486(15) 1.674432(19) 0.164751(18)
Ag1A Ag -0.057486(15) 0.674432(19) 0.335249(18)
Ag1_3 Ag 0.057486(15) -0.325568(19) 0.164751(18)
Ag1F Ag 0.442514(15) 0.825568(19) 0.835249(18)
Ag1A_2 Ag -0.057486(15) 1.674432(19) 0.335249(18)
C1F C 0.3390(2) 0.7979(3) 0.6700(2)
C2F C 0.29412(16) 0.7728(3) 0.5812(2)
C3F C 0.27093(16) 0.6571(2) 0.5596(2)
C4F C 0.29177(18) 0.5608(3) 0.6171(2)
H1F H 0.3219 0.5737 0.6700
C5F C 0.26816(19) 0.4492(3) 0.5961(2)
H2F H 0.2820 0.3875 0.6348
C6F C 0.22299(18) 0.4280(3) 0.5161(3)
H3F H 0.2067 0.3523 0.5025
C7F C 0.20310(17) 0.5168(3) 0.4587(2)
H4F H 0.1740 0.5008 0.4056
C8F C 0.27407(16) 0.8646(3) 0.5221(2)
C9_2 C 0.12135(18) 0.9247(3) 0.1413(2)
H5_2 H 0.1666 0.8843 0.1480
C10_2 C 0.12347(17) 1.0444(2) 0.1449(2)
H6_2 H 0.1692 1.0828 0.1549
C11_2 C 0.05747(16) 1.1086(3) 0.13356(19)
C12_2 C -0.00791(17) 1.0438(2) 0.1197(2)
H7_2 H -0.0540 1.0817 0.1117
C13_2 C -0.00451(19) 0.9237(3) 0.1178(2)
H8_2 H -0.0491 0.8824 0.1081
C14_2 C 0.05733(15) 1.2380(2) 0.13837(18)
C15_2 C 0.11426(18) 1.3000(3) 0.1856(2)
H9_2 H 0.1542 1.2603 0.2151
C16_2 C 0.00141(18) 1.4238(3) 0.1025(2)
H10_2 H -0.0377 1.4657 0.0734
C17_2 C 0.00026(17) 1.3044(2) 0.0961(2)
H11_2 H -0.0390 1.2674 0.0631
C18_2 C 0.11130(18) 1.4202(3) 0.1886(2)
H12_2 H 0.1502 1.4598 0.2203
N1_2 N 0.05569(13) 1.4833(2) 0.14846(17)
N2_2 N 0.05906(15) 0.8634(2) 0.12897(19)
N2_3 N 0.05906(15) 1.8634(2) 0.12897(19)
O1F O 0.40730(14) 0.8119(2) 0.66620(18)
O1_2 O 0.09270(14) 1.6881(2) 0.33380(18)
O2F O 0.30296(15) 0.8038(2) 0.73981(17)
loop_
_geom_bond_atom_site_label_1
_geom_bond_atom_site_label_2
_geom_bond_site_symmetry_1
_geom_bond_site_symmetry_2
Ag1 N1 1_555 1_555
C1 C2 1_555 1_555
C2 C3 1_555 1_555
C3 C4 1_555 1_555
C4 H1 1_555 1_555
C5 C4 1_555 1_555
H2 C5 1_555 1_555
C6 C5 1_555 1_555
H3 C6 1_555 1_555
C7 C6 1_555 1_555
H4 C7 1_555 1_555
C8 C2 1_555 1_555
C9 H5 1_555 1_555
C10 C9 1_555 1_555
H6 C10 1_555 1_555
C11 C10 1_555 1_555
C12 C11 1_555 1_555
H7 C12 1_555 1_555
C13 C12 1_555 1_555
H8 C13 1_555 1_555
C14 C11 1_555 1_555
C15 C14 1_555 1_555
H9 C15 1_555 1_555
C16 H10 1_555 1_555
C17 C14 1_555 1_555
H11 C17 1_555 1_555
C18 C15 1_555 1_555
H12 C18 1_555 1_555
N1 C16 1_555 1_555
N2 C9 1_555 1_555
O1 Ag1 1_555 1_555
O2 C1 1_555 1_555
Ag1_2 Ag1A_2 1_555 1_555
Ag1A Ag1 1_555 1_555
Ag1_3 N2 1_555 1_555
Ag1F O1F 1_555 1_555
C1F C2F 1_555 1_555
C2F C3F 1_555 1_555
C3F C8 1_555 1_555
C4F C3F 1_555 1_555
H1F C4F 1_555 1_555
C5F C4F 1_555 1_555
H2F C5F 1_555 1_555
C6F C5F 1_555 1_555
H3F C6F 1_555 1_555
C7F C8 1_555 1_555
H4F C7F 1_555 1_555
C8F C3 1_555 1_555
C9_2 H5_2 1_555 1_555
C10_2 C9_2 1_555 1_555
H6_2 C10_2 1_555 1_555
C11_2 C10_2 1_555 1_555
C12_2 C11_2 1_555 1_555
H7_2 C12_2 1_555 1_555
C13_2 C12_2 1_555 1_555
H8_2 C13_2 1_555 1_555
C14_2 C11_2 1_555 1_555
C15_2 C14_2 1_555 1_555
H9_2 C15_2 1_555 1_555
C16_2 H10_2 1_555 1_555
C17_2 C14_2 1_555 1_555
H11_2 C17_2 1_555 1_555
C18_2 C15_2 1_555 1_555
H12_2 C18_2 1_555 1_555
N1_2 Ag1_2 1_555 1_555
N2_2 Ag1 1_555 1_555
N2_3 Ag1_2 1_555 1_555
O1F C1F 1_555 1_555
O1_2 Ag1_2 1_555 1_555
O2F C1F 1_555 1_555
C1 O1 1_555 1_555
C7 C8F 1_555 1_555
C13 N2 1_555 1_555
C16 C17 1_555 1_555
C18 N1 1_555 1_555
C2F C8F 1_555 1_555
C6F C7F 1_555 1_555
C9_2 N2_2 1_555 1_555
C13_2 N2_2 1_555 1_555
C16_2 C17_2 1_555 1_555
C16_2 N1_2 1_555 1_555
C18_2 N1_2 1_555 1_555

#END
