
#######################################################################
#
#                 Cambridge Crystallographic Data Centre
#                                CCDC 
#
#######################################################################
#
# If this CIF has been generated from an entry in the Cambridge 
# Structural Database, then it will include bibliographic, chemical, 
# crystal, experimental, refinement or atomic coordinate data resulting 
# from the CCDC's data processing and validation procedures.
#
#######################################################################

data_MOWPOE
_symmetry_cell_setting           monoclinic
_symmetry_space_group_name_H-M   'P 21/n'
_symmetry_Int_Tables_number      14
_space_group_name_Hall           '-P 2yn'
loop_
_symmetry_equiv_pos_site_id
_symmetry_equiv_pos_as_xyz
1 x,y,z
2 1/2-x,1/2+y,1/2-z
3 -x,-y,-z
4 1/2+x,1/2-y,1/2+z
_cell_length_a                   14.3019(16)
_cell_length_b                   12.4411(13)
_cell_length_c                   17.975(2)
_cell_angle_alpha                90
_cell_angle_beta                 106.871(1)
_cell_angle_gamma                90
_cell_volume                     3060.66
loop_
_atom_site_label
_atom_site_type_symbol
_atom_site_fract_x
_atom_site_fract_y
_atom_site_fract_z
Zn1 Zn 0.757015(19) 0.33566(2) 0.524683(15)
Cl1 Cl 0.79040(4) 0.42444(6) 0.63791(4)
Cl2 Cl 0.73073(8) 0.16244(7) 0.53915(5)
N1 N 0.86607(14) 0.35868(17) 0.47587(11)
N2 N 0.94479(13) 0.40541(16) 0.39160(11)
N3 N 0.97558(13) 0.02906(16) 0.09455(11)
N4 N 0.86001(13) -0.09342(16) 0.04960(11)
C1 C 0.96390(17) 0.33379(19) 0.50800(14)
C2 C 1.0113(2) 0.2868(3) 0.57880(16)
H1 H 0.9782 0.2660 0.6140
C3 C 1.1124(2) 0.2725(3) 0.5939(2)
H2 H 1.1477 0.2431 0.6413
C4 C 1.1612(2) 0.3006(3) 0.5412(2)
H3 H 1.2280 0.2879 0.5535
C5 C 1.11455(19) 0.3466(3) 0.47115(18)
H4 H 1.1479 0.3661 0.4359
C6 C 1.01467(18) 0.3628(2) 0.45557(14)
C7 C 0.85893(17) 0.4013(2) 0.40730(14)
H5 H 0.8006 0.4257 0.3735
C8 C 0.96036(19) 0.4452(2) 0.32039(14)
H6 H 1.0155 0.4942 0.3337
H7 H 0.9032 0.4858 0.2921
C9 C 0.97956(18) 0.3586(2) 0.26751(14)
C10 C 0.90874(18) 0.2854(3) 0.23343(16)
H8 H 0.8492 0.2871 0.2446
C11 C 0.92477(18) 0.2075(3) 0.18184(15)
H9 H 0.8766 0.1569 0.1605
C12 C 1.01071(17) 0.2056(2) 0.16281(14)
C13 C 1.08188(19) 0.2762(3) 0.19880(18)
H10 H 1.1417 0.2740 0.1881
C14 C 1.0672(2) 0.3512(2) 0.25104(19)
H11 H 1.1178 0.3975 0.2755
C15 C 1.02748(18) 0.1316(2) 0.10185(15)
H12 H 1.0075 0.1680 0.0520
H13 H 1.0969 0.1172 0.1140
C16 C 0.89069(16) 0.0038(2) 0.04104(13)
H14 H 0.8573 0.0506 0.0020
C17 C 0.92896(17) -0.1355(2) 0.11459(13)
C18 C 0.9349(2) -0.2349(2) 0.15094(16)
H15 H 0.8870 -0.2869 0.1327
C19 C 1.0129(2) -0.2540(3) 0.21412(18)
H16 H 1.0178 -0.3198 0.2395
C20 C 1.0859(2) -0.1767(3) 0.24171(18)
H17 H 1.1380 -0.1927 0.2851
C21 C 1.0831(2) -0.0775(3) 0.20667(16)
H18 H 1.1320 -0.0265 0.2245
C22 C 1.00203(17) -0.0592(2) 0.14277(14)
Zn1A Zn 0.742985(19) -0.16434(2) -0.024683(15)
N4A N 0.63999(13) 0.40658(16) 0.45040(11)
O1 O 0.71622(18) 0.4629(3) 0.25011(15)
N5 N 0.6010(2) 0.5335(3) 0.14934(16)
C23 C 0.6333(3) 0.4773(3) 0.2134(2)
H19 H 0.5862 0.4450 0.2324
C24 C 0.6697(4) 0.5789(6) 0.1170(3)
H20 H 0.6721 0.5380 0.0723
H21 H 0.7329 0.5783 0.1548
H22 H 0.6513 0.6517 0.1016
C25 C 0.4977(4) 0.5489(5) 0.1139(3)
H23 H 0.4744 0.4974 0.0729
H24 H 0.4861 0.6202 0.0929
H25 H 0.4637 0.5392 0.1523
O2 O 0.66715(16) -0.2893(3) 0.5484(2)
N6 N 0.64205(12) -0.1277(3) 0.5737(2)
C26 C 0.66300(13) -0.2257(3) 0.5980(3)
H26 H 0.6740 -0.2453 0.6498
C27 C 0.6238(3) -0.0900(4) 0.4943(2)
H27 H 0.6104 -0.0142 0.4922
H28 H 0.5686 -0.1274 0.4613
H29 H 0.6803 -0.1033 0.4771
C28 C 0.6355(3) -0.0442(4) 0.6320(3)
H30 H 0.6148 0.0228 0.6059
H31 H 0.6984 -0.0352 0.6693
H32 H 0.5890 -0.0667 0.6581
C29? C 0.6922(2) -0.2290(2) 0.57435(14)
C30? C 0.5768(3) -0.0796(3) 0.5594(3)
C31? C 0.7430(3) -0.0763(4) 0.6559(2)
H33? H 0.7523 -0.2609 0.5979
H34? H 0.5766 -0.0103 0.5828
H35? H 0.5248 -0.1225 0.5674
H36? H 0.5675 -0.0712 0.5046
H37? H 0.7167 -0.0083 0.6651
H38? H 0.8008 -0.0648 0.6400
H39? H 0.7591 -0.1182 0.7027
N7? N 0.67105(18) -0.1332(2) 0.59509(13)
O3? O 0.6320(2) -0.2736(3) 0.52461(15)
loop_
_geom_bond_atom_site_label_1
_geom_bond_atom_site_label_2
_geom_bond_site_symmetry_1
_geom_bond_site_symmetry_2
Zn1 Cl1 1_555 1_555
Cl2 Zn1 1_555 1_555
O1 C23 1_555 1_555
N1 Zn1 1_555 1_555
N2 C6 1_555 1_555
N3 C15 1_555 1_555
N4 C16 1_555 1_555
N5 C23 1_555 1_555
C1 N1 1_555 1_555
C2 C1 1_555 1_555
H1 C2 1_555 1_555
C3 C2 1_555 1_555
H2 C3 1_555 1_555
C4 C3 1_555 1_555
H3 C4 1_555 1_555
C5 C4 1_555 1_555
H4 C5 1_555 1_555
C6 C1 1_555 1_555
C7 N1 1_555 1_555
H5 C7 1_555 1_555
C8 N2 1_555 1_555
H6 C8 1_555 1_555
H7 C8 1_555 1_555
C9 C8 1_555 1_555
C10 C9 1_555 1_555
H8 C10 1_555 1_555
C11 C10 1_555 1_555
H9 C11 1_555 1_555
C12 C11 1_555 1_555
C13 C12 1_555 1_555
H10 C13 1_555 1_555
C14 C9 1_555 1_555
H11 C14 1_555 1_555
C15 C12 1_555 1_555
H12 C15 1_555 1_555
H13 C15 1_555 1_555
C16 N3 1_555 1_555
H14 C16 1_555 1_555
C17 N4 1_555 1_555
C18 C17 1_555 1_555
H15 C18 1_555 1_555
C19 C18 1_555 1_555
H16 C19 1_555 1_555
C20 C19 1_555 1_555
H17 C20 1_555 1_555
C21 C20 1_555 1_555
H18 C21 1_555 1_555
C22 N3 1_555 1_555
C23 H19 1_555 1_555
C24 N5 1_555 1_555
H20 C24 1_555 1_555
H21 C24 1_555 1_555
H22 C24 1_555 1_555
C25 N5 1_555 1_555
H23 C25 1_555 1_555
H24 C25 1_555 1_555
H25 C25 1_555 1_555
O2 C26 1_555 1_555
N6 C26 1_555 1_555
C26 H26 1_555 1_555
C27 N6 1_555 1_555
H27 C27 1_555 1_555
H28 C27 1_555 1_555
H29 C27 1_555 1_555
C28 N6 1_555 1_555
H30 C28 1_555 1_555
H31 C28 1_555 1_555
H32 C28 1_555 1_555
Zn1A N4 1_555 1_555
N4A Zn1 1_555 1_555
N2 C7 1_555 1_555
C5 C6 1_555 1_555
C13 C14 1_555 1_555
C17 C22 1_555 1_555
C21 C22 1_555 1_555

#END
