
#######################################################################
#
#                 Cambridge Crystallographic Data Centre
#                                CCDC 
#
#######################################################################
#
# If this CIF has been generated from an entry in the Cambridge 
# Structural Database, then it will include bibliographic, chemical, 
# crystal, experimental, refinement or atomic coordinate data resulting 
# from the CCDC's data processing and validation procedures.
#
#######################################################################

data_MOWQOF
_symmetry_cell_setting           tetragonal
_symmetry_space_group_name_H-M   'P 43 21 2'
_symmetry_Int_Tables_number      96
_space_group_name_Hall           'P 4nw 2abw'
loop_
_symmetry_equiv_pos_site_id
_symmetry_equiv_pos_as_xyz
1 x,y,z
2 -x,-y,1/2+z
3 1/2-y,1/2+x,3/4+z
4 1/2+y,1/2-x,1/4+z
5 1/2-x,1/2+y,3/4-z
6 1/2+x,1/2-y,1/4-z
7 y,x,-z
8 -y,-x,1/2-z
_cell_length_a                   8.052(4)
_cell_length_b                   8.052(4)
_cell_length_c                   16.510(12)
_cell_angle_alpha                90
_cell_angle_beta                 90
_cell_angle_gamma                90
_cell_volume                     1070.42
loop_
_atom_site_label
_atom_site_type_symbol
_atom_site_fract_x
_atom_site_fract_y
_atom_site_fract_z
Co1 Co 1.28834(6) 0.28834(6) 0.0000
N1 N 1.0956(3) 0.0956(3) 0.0000
N2 N 0.4763(4) -0.5237(4) 0.0000
N3 N 1.1594(5) 0.4196(5) 0.0910(2)
N4 N 1.0406(5) 0.3784(4) 0.12623(18)
N5 N 0.9196(5) 0.3466(5) 0.1607(2)
C1 C 0.9500(5) 0.1182(5) -0.0370(3)
H1 H 0.9318 0.2180 -0.0639
C2 C 0.8270(5) 0.0030(5) -0.0373(3)
H2 H 0.7265 0.0262 -0.0627
C3 C 0.8511(4) -0.1489(4) 0.0000
C4 C 0.7214(5) -0.2786(5) 0.0000
C5 C 0.7607(5) -0.4462(5) -0.0001(3)
H3 H 0.8713 -0.4796 0.0000
C6 C 0.6369(5) -0.5625(5) -0.0002(3)
H4 H 0.6664 -0.6742 -0.0005
Co1_2 Co 0.28834(6) -0.71166(6) 0.0000
Co1C Co 0.78834(6) 0.21166(6) 0.2500
Co1B Co 1.21166(6) -0.21166(6) -0.2500
N2_2 N 1.4763(4) 0.4763(4) 0.0000
N3F N 1.4196(5) 0.1594(5) -0.0910(2)
N4F N 1.3784(4) 0.0406(5) -0.12623(18)
N5F N 1.3466(5) -0.0804(5) -0.1607(2)
N5B N 1.1534(5) 0.4196(5) -0.0893(2)
N5E N 1.4196(5) 0.1534(5) 0.0893(2)
C1F C 1.1182(5) -0.0500(5) 0.0370(3)
H1F H 1.2180 -0.0682 0.0639
C2F C 1.0030(5) -0.1730(5) 0.0373(3)
H2F H 1.0262 -0.2735 0.0627
C5F C 0.5538(5) -0.2393(5) 0.0001(3)
H3F H 0.5204 -0.1287 0.0000
C6F C 0.4375(5) -0.3631(5) 0.0002(3)
H4F H 0.3258 -0.3336 0.0005
loop_
_geom_bond_atom_site_label_1
_geom_bond_atom_site_label_2
_geom_bond_site_symmetry_1
_geom_bond_site_symmetry_2
Co1 N1 1_555 1_555
N1 C1 1_555 1_555
N2 C6 1_555 1_555
N3 Co1 1_555 1_555
N4 N3 1_555 1_555
N5 N4 1_555 1_555
C1 H1 1_555 1_555
C2 C1 1_555 1_555
H2 C2 1_555 1_555
C3 C2 1_555 1_555
C4 C3 1_555 1_555
C5 C4 1_555 1_555
H3 C5 1_555 1_555
C6 C5 1_555 1_555
H4 C6 1_555 1_555
Co1_2 N2 1_555 1_555
Co1C N5 1_555 1_555
Co1B N5F 1_555 1_555
N2_2 Co1 1_555 1_555
N3F Co1 1_555 1_555
N4F N3F 1_555 1_555
N5F N4F 1_555 1_555
N5B Co1 1_555 1_555
N5E Co1 1_555 1_555
C1F N1 1_555 1_555
H1F C1F 1_555 1_555
C2F C3 1_555 1_555
H2F C2F 1_555 1_555
C5F C4 1_555 1_555
H3F C5F 1_555 1_555
C6F N2 1_555 1_555
H4F C6F 1_555 1_555
C1F C2F 1_555 1_555
C5F C6F 1_555 1_555

#END
