
#######################################################################
#
#                 Cambridge Crystallographic Data Centre
#                                CCDC 
#
#######################################################################
#
# If this CIF has been generated from an entry in the Cambridge 
# Structural Database, then it will include bibliographic, chemical, 
# crystal, experimental, refinement or atomic coordinate data resulting 
# from the CCDC's data processing and validation procedures.
#
#######################################################################

data_MOWSOI
_symmetry_cell_setting           monoclinic
_symmetry_space_group_name_H-M   'P 21/n'
_symmetry_Int_Tables_number      14
_space_group_name_Hall           '-P 2yn'
loop_
_symmetry_equiv_pos_site_id
_symmetry_equiv_pos_as_xyz
1 x,y,z
2 1/2-x,1/2+y,1/2-z
3 -x,-y,-z
4 1/2+x,1/2-y,1/2+z
_cell_length_a                   8.2894(4)
_cell_length_b                   12.3667(5)
_cell_length_c                   12.0728(4)
_cell_angle_alpha                90
_cell_angle_beta                 96.464(2)
_cell_angle_gamma                90
_cell_volume                     1229.75
loop_
_atom_site_label
_atom_site_type_symbol
_atom_site_fract_x
_atom_site_fract_y
_atom_site_fract_z
U1 U 0.13468(2) 0.597592(15) 0.698212(15)
O1 O 0.2073(5) 0.7078(3) 0.6247(3)
O2 O 0.0602(5) 0.4889(3) 0.7713(4)
O3 O 0.2355(5) 0.4762(4) 0.5731(4)
O4 O 0.0930(6) 0.4062(4) 0.4292(4)
O5 O 0.3138(5) 0.2001(3) 0.6240(3)
O6 O 0.5510(5) 0.2203(3) 0.7212(3)
O7 O 0.4035(5) 0.5616(3) 0.7768(4)
N1 N 0.6263(6) 0.5345(4) 0.8932(4)
C1 C 0.2217(7) 0.4167(4) 0.4899(4)
C2 C 0.3674(6) 0.3556(4) 0.4625(4)
H1 H 0.4185 0.3962 0.4072
H2 H 0.3317 0.2872 0.4289
C3 C 0.4935(7) 0.3330(4) 0.5604(5)
H3 H 0.5941 0.3126 0.5319
H4 H 0.5138 0.3993 0.6026
C4 C 0.4489(7) 0.2459(4) 0.6384(4)
C5 C 0.5527(8) 0.7204(4) 0.8435(5)
H5 H 0.6613 0.7351 0.8272
H6 H 0.5397 0.7457 0.9172
H7 H 0.4768 0.7570 0.7903
C6 C 0.5217(7) 0.6008(4) 0.8369(5)
C7 C 0.6074(9) 0.4169(4) 0.8806(6)
H8 H 0.4962 0.4002 0.8553
H9 H 0.6378 0.3824 0.9511
H10 H 0.6758 0.3912 0.8271
C8 C 0.7694(8) 0.5679(5) 0.9652(6)
H11 H 0.7578 0.6420 0.9866
H12 H 0.8635 0.5606 0.9261
H13 H 0.7818 0.5232 1.0307
U1A U 0.36532(2) 0.097592(15) 0.801788(15)
U1B U -0.13468(2) 0.402408(15) 0.301788(15)
O4B O -0.0930(6) 0.5938(4) 0.5708(4)
O5A O 0.1862(5) 0.7001(3) 0.8760(3)
O6A O -0.0510(5) 0.7203(3) 0.7788(3)
loop_
_geom_bond_atom_site_label_1
_geom_bond_atom_site_label_2
_geom_bond_site_symmetry_1
_geom_bond_site_symmetry_2
U1 O1 1_555 1_555
O2 U1 1_555 1_555
O3 U1 1_555 1_555
O4 C1 1_555 1_555
O5 C4 1_555 1_555
O6 C4 1_555 1_555
O7 U1 1_555 1_555
N1 C6 1_555 1_555
C1 O3 1_555 1_555
C2 C1 1_555 1_555
H1 C2 1_555 1_555
H2 C2 1_555 1_555
C3 C2 1_555 1_555
H3 C3 1_555 1_555
H4 C3 1_555 1_555
C4 C3 1_555 1_555
C5 H5 1_555 1_555
H6 C5 1_555 1_555
H7 C5 1_555 1_555
C6 O7 1_555 1_555
C7 N1 1_555 1_555
H8 C7 1_555 1_555
H9 C7 1_555 1_555
H10 C7 1_555 1_555
C8 N1 1_555 1_555
H11 C8 1_555 1_555
H12 C8 1_555 1_555
H13 C8 1_555 1_555
U1A O5 1_555 1_555
U1B O4 1_555 1_555
O4B U1 1_555 1_555
O5A U1 1_555 1_555
O6A U1 1_555 1_555
O6 U1A 1_555 1_555
C5 C6 1_555 1_555

#END
