
#######################################################################
#
#                 Cambridge Crystallographic Data Centre
#                                CCDC 
#
#######################################################################
#
# If this CIF has been generated from an entry in the Cambridge 
# Structural Database, then it will include bibliographic, chemical, 
# crystal, experimental, refinement or atomic coordinate data resulting 
# from the CCDC's data processing and validation procedures.
#
#######################################################################

data_MOXDEJ
_symmetry_cell_setting           monoclinic
_symmetry_space_group_name_H-M   'P 21/c'
_symmetry_Int_Tables_number      14
_space_group_name_Hall           '-P 2ybc'
loop_
_symmetry_equiv_pos_site_id
_symmetry_equiv_pos_as_xyz
1 x,y,z
2 -x,1/2+y,1/2-z
3 -x,-y,-z
4 x,1/2-y,1/2+z
_cell_length_a                   11.586(2)
_cell_length_b                   14.543(3)
_cell_length_c                   13.117(6)
_cell_angle_alpha                90
_cell_angle_beta                 119.57(2)
_cell_angle_gamma                90
_cell_volume                     1922.29
loop_
_atom_site_label
_atom_site_type_symbol
_atom_site_fract_x
_atom_site_fract_y
_atom_site_fract_z
C1 C -0.0909(2) 0.33652(13) 0.27216(19)
H1 H -0.0109 0.3348 0.2717
C2 C -0.1574(2) 0.47116(13) 0.13606(18)
C3 C -0.3024(2) 0.40696(13) 0.21169(19)
H2 H -0.3653 0.4517 0.1690
C4 C 0.4428(2) -0.09949(14) 0.8157(2)
H3 H 0.4935 -0.0988 0.7785
C5 C -0.2345(2) 0.27613(14) 0.33982(19)
H4 H -0.2518 0.2331 0.3830
C6 C -0.1846(2) 0.40338(12) 0.20815(18)
C7 C 0.3059(2) 0.02504(14) 0.68065(19)
C8 C -0.1164(2) 0.27209(13) 0.33699(18)
C11 C -0.3266(2) 0.34429(14) 0.2784(2)
H11 H -0.4046 0.3479 0.2820
C12 C 0.5774(2) -0.23303(15) 0.9346(2)
C13 C -0.0169(2) 0.19782(13) 0.40286(17)
C14 C 0.3373(2) -0.03859(14) 0.7800(2)
C15 C 0.4734(2) -0.16130(15) 0.9061(2)
C16 C 0.2945(3) -0.0989(2) 0.9276(3)
H12 H 0.2456 -0.0981 0.9664
C17 C 0.2624(3) -0.03955(18) 0.8356(2)
H13 H 0.1903 -0.0001 0.8109
C18 C 0.3997(3) -0.16002(19) 0.9627(3)
H14 H 0.4205 -0.2002 1.0246
Co1 Co 0.26245(3) 0.136074(17) 0.51884(2)
Co2 Co 0.0000 0.0000 0.5000
O1 O 0.10250(15) 0.21626(10) 0.43430(14)
O2 O -0.06026(15) 0.12532(9) 0.42216(14)
O3 O 0.19003(14) 0.05814(9) 0.62019(13)
O4 O 0.39445(16) 0.04817(12) 0.65792(16)
O5 O -0.06901(16) 0.45327(10) 0.11207(15)
O6 O -0.22684(17) 0.54374(10) 0.10759(15)
O7 O 0.62965(17) -0.24244(11) 0.87086(15)
O8 O 0.60975(17) -0.28639(11) 1.02025(16)
C1B C 0.0909(2) -0.33652(13) 0.72784(19)
H1B H 0.0109 -0.3348 0.7283
C2B C 0.1574(2) -0.47116(13) 0.86394(18)
C3B C 0.3024(2) -0.40696(13) 0.78831(19)
H2B H 0.3653 -0.4517 0.8310
C4B C -0.4428(2) 0.09949(14) 0.1843(2)
H3B H -0.4935 0.0988 0.2215
C5B C 0.2345(2) -0.27613(14) 0.66018(19)
H4B H 0.2518 -0.2331 0.6170
C6B C 0.1846(2) -0.40338(12) 0.79185(18)
C7B C -0.3059(2) -0.02504(14) 0.31935(19)
C8B C 0.1164(2) -0.27209(13) 0.66301(18)
C11B C 0.3266(2) -0.34429(14) 0.7216(2)
H11B H 0.4046 -0.3479 0.7180
C12B C -0.5774(2) 0.23303(15) 0.0654(2)
C13B C 0.0169(2) -0.19782(13) 0.59714(17)
C14B C -0.3373(2) 0.03859(14) 0.2200(2)
C15B C -0.4734(2) 0.16130(15) 0.0939(2)
C16B C -0.2945(3) 0.0989(2) 0.0724(3)
H12B H -0.2456 0.0981 0.0336
C17B C -0.2624(3) 0.03955(18) 0.1644(2)
H13B H -0.1903 0.0001 0.1891
C18B C -0.3997(3) 0.16002(19) 0.0373(3)
H14B H -0.4205 0.2002 -0.0246
Co1B Co -0.26245(3) -0.136074(17) 0.48116(2)
Co1A Co -0.26245(3) 0.636074(17) -0.01884(2)
Co1A_2 Co 0.73755(3) -0.363926(17) 0.98116(2)
Co1C Co 0.26245(3) -0.636074(17) 1.01884(2)
Co1C_2 Co -0.73755(3) 0.363926(17) 0.01884(2)
Co2A Co 0.0000 0.5000 0.0000
Co2A_2 Co 0.0000 -0.5000 1.0000
O1B O -0.10250(15) -0.21626(10) 0.56570(14)
O2B O 0.06026(15) -0.12532(9) 0.57784(14)
O3B O -0.19003(14) -0.05814(9) 0.37981(13)
O4B O -0.39445(16) -0.04817(12) 0.34208(16)
O5B O 0.06901(16) -0.45327(10) 0.88793(15)
O5A O 0.06901(16) -0.04673(10) 0.38793(15)
O5C O -0.06901(16) 0.04673(10) 0.61207(15)
O6B O 0.22684(17) -0.54374(10) 0.89241(15)
O6A O 0.22684(17) 0.04374(10) 0.39241(15)
O6C O -0.22684(17) -0.04374(10) 0.60759(15)
O7B O -0.62965(17) 0.24244(11) 0.12914(15)
O7A O 0.37035(17) 0.25756(11) 0.62914(15)
O7C O -0.37035(17) -0.25756(11) 0.37086(15)
O8B O -0.60975(17) 0.28639(11) -0.02025(16)
O8A O 0.39025(17) 0.21361(11) 0.47975(16)
O8C O -0.39025(17) -0.21361(11) 0.52025(16)
C9 C 0.8616(4) 0.7778(3) 0.7951(3)
H5 H 0.9381 0.8038 0.7957
H6 H 0.8122 0.7420 0.7252
H7 H 0.8895 0.7391 0.8625
C10 C 0.8448(5) 0.9124(2) 0.9010(3)
H8 H 0.8731 0.8769 0.9711
H9 H 0.7846 0.9595 0.8969
H10 H 0.9206 0.9403 0.9022
N1 N 0.7774(3) 0.85196(16) 0.7980(2)
H15 H 0.7486 0.8862 0.7328
H16 H 0.7059 0.8269 0.7970
O9 O 0.4856(8) 0.6142(5) 0.1041(6)
loop_
_geom_bond_atom_site_label_1
_geom_bond_atom_site_label_2
_geom_bond_site_symmetry_1
_geom_bond_site_symmetry_2
C1 H1 1_555 1_555
C2 C6 1_555 1_555
C3 H2 1_555 1_555
C4 H3 1_555 1_555
C5 H4 1_555 1_555
C6 C1 1_555 1_555
C7 C14 1_555 1_555
C8 C1 1_555 1_555
C9 H5 1_555 1_555
H6 C9 1_555 1_555
H7 C9 1_555 1_555
C10 H8 1_555 1_555
H9 C10 1_555 1_555
H10 C10 1_555 1_555
C11 C3 1_555 1_555
H11 C11 1_555 1_555
C12 C15 1_555 1_555
C13 C8 1_555 1_555
C14 C4 1_555 1_555
C15 C4 1_555 1_555
C16 H12 1_555 1_555
C17 C14 1_555 1_555
H13 C17 1_555 1_555
C18 C15 1_555 1_555
H14 C18 1_555 1_555
Co1 O1 1_555 1_555
Co2 O2 1_555 1_555
N1 C9 1_555 1_555
H15 N1 1_555 1_555
H16 N1 1_555 1_555
O1 C13 1_555 1_555
O2 C13 1_555 1_555
O3 C7 1_555 1_555
O4 C7 1_555 1_555
O5 C2 1_555 1_555
O6 C2 1_555 1_555
O7 C12 1_555 1_555
O8 C12 1_555 1_555
C1B H1B 1_555 1_555
C2B C6B 1_555 1_555
C3B H2B 1_555 1_555
C4B H3B 1_555 1_555
C5B H4B 1_555 1_555
C6B C1B 1_555 1_555
C7B C14B 1_555 1_555
C8B C1B 1_555 1_555
C11B C3B 1_555 1_555
H11B C11B 1_555 1_555
C12B C15B 1_555 1_555
C13B C8B 1_555 1_555
C14B C4B 1_555 1_555
C15B C4B 1_555 1_555
C16B H12B 1_555 1_555
C17B C14B 1_555 1_555
H13B C17B 1_555 1_555
C18B C15B 1_555 1_555
H14B C18B 1_555 1_555
Co1B O1B 1_555 1_555
Co1A O6 1_555 1_555
Co1A_2 O7 1_555 1_555
Co1C O6B 1_555 1_555
Co1C_2 O7B 1_555 1_555
Co2A O5 1_555 1_555
Co2A_2 O5B 1_555 1_555
O1B C13B 1_555 1_555
O2B Co2 1_555 1_555
O3B Co2 1_555 1_555
O4B C7B 1_555 1_555
O5B C2B 1_555 1_555
O5A Co2 1_555 1_555
O5C Co2 1_555 1_555
O6B C2B 1_555 1_555
O6A Co1 1_555 1_555
O6C Co1B 1_555 1_555
O7B C12B 1_555 1_555
O7A Co1 1_555 1_555
O7C Co1B 1_555 1_555
O8B C12B 1_555 1_555
O8A Co1 1_555 1_555
O8C Co1B 1_555 1_555
C3 C6 1_555 1_555
C5 C8 1_555 1_555
C5 C11 1_555 1_555
C10 N1 1_555 1_555
C16 C17 1_555 1_555
C16 C18 1_555 1_555
Co1 O3 1_555 1_555
Co1 O4 1_555 1_555
Co2 O3 1_555 1_555
O8 Co1A_2 1_555 1_555
C3B C6B 1_555 1_555
C5B C8B 1_555 1_555
C5B C11B 1_555 1_555
C7B O3B 1_555 1_555
C13B O2B 1_555 1_555
C16B C17B 1_555 1_555
C16B C18B 1_555 1_555
Co1B O3B 1_555 1_555
Co1B O4B 1_555 1_555
Co1C_2 O8B 1_555 1_555

#END
