
#######################################################################
#
#                 Cambridge Crystallographic Data Centre
#                                CCDC 
#
#######################################################################
#
# If this CIF has been generated from an entry in the Cambridge 
# Structural Database, then it will include bibliographic, chemical, 
# crystal, experimental, refinement or atomic coordinate data resulting 
# from the CCDC's data processing and validation procedures.
#
#######################################################################

data_MOXDOT
_symmetry_cell_setting           monoclinic
_symmetry_space_group_name_H-M   'P 2/c'
_symmetry_Int_Tables_number      13
_space_group_name_Hall           '-P 2yc'
loop_
_symmetry_equiv_pos_site_id
_symmetry_equiv_pos_as_xyz
1 x,y,z
2 -x,y,1/2-z
3 -x,-y,-z
4 x,-y,1/2+z
_cell_length_a                   22.550(10)
_cell_length_b                   14.187(7)
_cell_length_c                   25.681(12)
_cell_angle_alpha                90
_cell_angle_beta                 92.096(9)
_cell_angle_gamma                90
_cell_volume                     8210.29
loop_
_atom_site_label
_atom_site_type_symbol
_atom_site_fract_x
_atom_site_fract_y
_atom_site_fract_z
C57 C 0.464698(7) 0.305058(7) 0.122200(4)
H33 H 0.5005 0.2730 0.1135
H34 H 0.4347 0.2596 0.1299
H35 H 0.4724 0.3443 0.1521
C58 C 0.427387(9) 0.474773(5) 0.076332(9)
H36 H 0.4629 0.5110 0.0725
H37 H 0.4102 0.4900 0.1089
H38 H 0.3996 0.4893 0.0483
N1 N 0.442725(7) 0.367406(6) 0.075133(5)
H39 H 0.4704 0.3612 0.0510
H40 H 0.4099 0.3387 0.0619
O17 O 0.446209(16) 0.91686(3) 0.928141(13)
C59 C 0.392345(18) 0.94930(2) 0.968616(11)
H41 H 0.4085 0.9919 0.9945
H42 H 0.3770 0.8944 0.9854
H43 H 0.3609 0.9800 0.9489
C60 C 0.042538(8) 0.192967(5) 0.101005(9)
H44 H 0.0208 0.1863 0.1322
H45 H 0.0182 0.2241 0.0748
H46 H 0.0776 0.2297 0.1083
N2 N 0.060477(7) 0.093638(6) 0.080986(6)
H50 H 0.0914 0.1035 0.0605
H51 H 0.0302 0.0749 0.0596
C62 C 0.077615(10) 0.005487(6) 0.114746(7)
H52 H 0.0435 -0.0343 0.1179
H53 H 0.0914 0.0255 0.1488
H54 H 0.1085 -0.0290 0.0984
O18 O 0.888104(17) 0.44146(2) 0.035447(10)
C61 C 0.948275(13) 0.40665(2) 0.069787(10)
H47 H 0.9827 0.4149 0.0493
H48 H 0.9443 0.3413 0.0788
H49 H 0.9525 0.4437 0.1010
C1 C -0.027996(8) 0.704146(14) 0.061763(7)
C2 C -0.130949(2) 0.689241(4) 0.023231(3)
H1 H -0.1160 0.6647 -0.0072
C3 C -0.191597(2) 0.704139(4) 0.026728(3)
H2 H -0.2172 0.6896 -0.0014
C4 C -0.214013(2) 0.740755(5) 0.072197(3)
C5 C -0.175782(3) 0.762474(7) 0.114170(3)
H3 H -0.1908 0.7870 0.1446
C6 C -0.115134(3) 0.747576(7) 0.110674(3)
H4 H -0.0896 0.7621 0.1388
C7 C -0.092717(2) 0.710960(5) 0.065204(3)
C8 C -0.403721(3) 0.789912(8) 0.067334(5)
C9 C -0.370584(2) 0.808180(6) 0.023876(5)
H5 H -0.3891 0.8313 -0.0064
C10 C -0.309764(2) 0.791852(5) 0.025740(4)
H6 H -0.2876 0.8041 -0.0033
C11 C -0.282082(2) 0.757261(6) 0.071062(4)
C12 C -0.315219(3) 0.738994(8) 0.114522(4)
H7 H -0.2967 0.7158 0.1448
C13 C -0.376038(3) 0.755319(9) 0.112659(5)
H8 H -0.3982 0.7431 0.1417
C14 C -0.471837(4) 0.788161(16) 0.065865(10)
C15 C 0.154580(6) 1.174360(11) 0.516290(5)
C16 C 0.154910(2) 1.123420(4) 0.464080(2)
C17 C 0.202760(2) 1.066420(4) 0.452380(2)
H9 H 0.2348 1.0607 0.4760
C18 C 0.202710(3) 1.017910(4) 0.405350(2)
H10 H 0.2347 0.9798 0.3975
C19 C 0.154820(3) 1.026400(4) 0.370030(2)
C20 C 0.106970(3) 1.083400(5) 0.381730(2)
H11 H 0.0749 1.0891 0.3581
C21 C 0.107020(2) 1.131910(4) 0.428760(2)
H12 H 0.0750 1.1701 0.4366
C22 C 0.156090(4) 0.970750(5) 0.321630(2)
C23 C 0.209740(4) 0.961600(6) 0.293640(2)
H13 H 0.2440 0.9893 0.3079
C24 C 0.213750(5) 0.915770(7) 0.248230(3)
H14 H 0.2500 0.9099 0.2325
C25 C 0.159990(6) 0.875430(7) 0.224160(3)
C26 C 0.106390(5) 0.890250(7) 0.248280(3)
H15 H 0.0717 0.8672 0.2322
C27 C 0.102470(4) 0.939630(6) 0.296940(2)
H16 H 0.0660 0.9507 0.3116
C28 C 0.161090(6) 0.821410(11) 0.173270(6)
C29 C 0.350770(6) -0.071770(9) 0.104540(6)
C30 C 0.321820(2) 0.024920(3) 0.111730(2)
C31 C 0.355690(2) 0.104330(3) 0.123870(2)
H17 H 0.3964 0.0987 0.1299
C32 C 0.328640(2) 0.192090(3) 0.126930(2)
H18 H 0.3513 0.2452 0.1351
C33 C 0.267720(2) 0.200450(3) 0.117850(2)
C34 C 0.233850(2) 0.121050(3) 0.105710(3)
H19 H 0.1931 0.1266 0.0996
C35 C 0.260900(2) 0.033290(3) 0.102650(2)
H20 H 0.2382 -0.0198 0.0945
C36 C 0.240050(3) 0.298720(3) 0.116110(3)
C37 C 0.272300(3) 0.376030(3) 0.101840(3)
H21 H 0.3123 0.3685 0.0953
C38 C 0.246560(4) 0.467060(3) 0.096710(4)
H22 H 0.2687 0.5185 0.0862
C39 C 0.189020(4) 0.476220(4) 0.107650(4)
C40 C 0.158250(3) 0.397010(4) 0.122800(5)
H23 H 0.1185 0.4044 0.1303
C41 C 0.181960(3) 0.308940(4) 0.127480(4)
H24 H 0.1594 0.2580 0.1380
C42 C 0.157660(6) 0.569780(9) 0.101680(6)
C43 C 0.354670(6) -0.669850(10) -0.328760(5)
C44 C 0.354880(2) -0.616510(4) -0.276850(2)
C45 C 0.405470(2) -0.608800(4) -0.244550(2)
H25 H 0.4409 -0.6359 -0.2544
C46 C 0.403090(3) -0.560610(4) -0.197550(2)
H26 H 0.4369 -0.5554 -0.1759
C47 C 0.350120(3) -0.520120(4) -0.182840(2)
C48 C 0.299530(3) -0.527840(4) -0.215140(2)
H27 H 0.2641 -0.5008 -0.2053
C49 C 0.301910(2) -0.576030(4) -0.262140(2)
H28 H 0.2681 -0.5812 -0.2838
C50 C 0.348250(4) -0.465390(5) -0.132870(2)
C51 C 0.297650(4) -0.468800(6) -0.103240(2)
H29 H 0.2641 -0.5016 -0.1151
C52 C 0.298610(5) -0.422570(7) -0.056170(2)
H30 H 0.2653 -0.4269 -0.0359
C53 C 0.346000(5) -0.370290(7) -0.037350(2)
C54 C 0.391810(5) -0.364810(6) -0.068980(3)
H31 H 0.4240 -0.3278 -0.0583
C55 C 0.394610(4) -0.411140(5) -0.117290(2)
H32 H 0.4275 -0.4045 -0.1378
C56 C 0.342080(6) -0.315420(10) 0.013030(5)
Co1 Co 0.091617(1) 0.716760(1) 0.092755(1)
Co2 Co 0.414710(1) -0.217220(1) 0.095610(1)
Co3 Co 0.253030(1) -0.250130(1) 0.095270(1)
O1 O 0.320630(4) -0.143230(7) 0.097420(4)
O2 O 0.405730(4) -0.074630(7) 0.107570(4)
O3 O 0.185770(5) 0.640410(6) 0.091110(4)
O4 O 0.102960(5) 0.575890(7) 0.104280(5)
O5 O 0.208880(5) 0.803700(10) 0.157960(4)
O6 O 0.112130(4) 0.792070(8) 0.156620(4)
O7 O 0.198100(5) 1.163270(8) 0.546990(4)
O8 O 0.109300(4) 1.220510(7) 0.525490(3)
O9 O 0.004307(5) 0.733388(8) 0.097057(4)
O10 O -0.008388(7) 0.655960(13) 0.024123(7)
O11 O 0.399450(4) -0.711180(7) -0.338690(3)
O12 O 0.307860(5) -0.663860(8) -0.356600(4)
O13 O 0.391700(5) -0.279160(8) 0.027050(4)
O14 O 0.296270(5) -0.310910(10) 0.033300(4)
O15 O -0.499073(4) 0.765996(9) 0.097200(5)
O16 O -0.491951(8) 0.851496(17) 0.027680(9)
Co1C Co 0.091617(1) 1.283240(1) 0.592755(1)
Co2C Co 0.414710(1) -0.782780(1) -0.404390(1)
Co2_2 Co -0.585290(1) 0.782780(1) 0.095610(1)
Co3_2 Co 0.253030(1) 0.749870(1) 0.095270(1)
Co3C Co 0.253030(1) 1.250130(1) 0.595270(1)
Co3C_2 Co 0.253030(1) -0.749870(1) -0.404730(1)
O3_2 O 0.185770(5) -0.359590(6) 0.091110(4)
O5_2 O 0.208880(5) -0.196300(10) 0.157960(4)
O7C O 0.198100(5) -0.163270(8) 0.046990(4)
O8C O 0.109300(4) 0.779490(7) 0.025490(3)
O11C O 0.399450(4) -0.288820(7) 0.161310(3)
O12C O 0.307860(5) -0.336140(8) 0.143400(4)
O15_2 O 0.500927(4) -0.234004(9) 0.097200(5)
loop_
_geom_bond_atom_site_label_1
_geom_bond_atom_site_label_2
_geom_bond_site_symmetry_1
_geom_bond_site_symmetry_2
C1 C7 1_555 1_555
C2 H1 1_555 1_555
C3 C2 1_555 1_555
H2 C3 1_555 1_555
C4 C3 1_555 1_555
C5 C4 1_555 1_555
H3 C5 1_555 1_555
C6 C5 1_555 1_555
H4 C6 1_555 1_555
C7 C2 1_555 1_555
C8 C9 1_555 1_555
C9 H5 1_555 1_555
C10 C9 1_555 1_555
H6 C10 1_555 1_555
C11 C4 1_555 1_555
C12 C11 1_555 1_555
H7 C12 1_555 1_555
C13 C8 1_555 1_555
H8 C13 1_555 1_555
C14 C8 1_555 1_555
C15 C16 1_555 1_555
C16 C17 1_555 1_555
C17 H9 1_555 1_555
C18 C17 1_555 1_555
H10 C18 1_555 1_555
C19 C18 1_555 1_555
C20 C19 1_555 1_555
H11 C20 1_555 1_555
C21 C16 1_555 1_555
H12 C21 1_555 1_555
C22 C19 1_555 1_555
C23 C22 1_555 1_555
H13 C23 1_555 1_555
C24 C23 1_555 1_555
H14 C24 1_555 1_555
C25 C24 1_555 1_555
C26 C25 1_555 1_555
H15 C26 1_555 1_555
C27 C22 1_555 1_555
H16 C27 1_555 1_555
C28 C25 1_555 1_555
C29 C30 1_555 1_555
C30 C31 1_555 1_555
C31 H17 1_555 1_555
C32 C31 1_555 1_555
H18 C32 1_555 1_555
C33 C32 1_555 1_555
C34 C33 1_555 1_555
H19 C34 1_555 1_555
C35 C30 1_555 1_555
H20 C35 1_555 1_555
C36 C33 1_555 1_555
C37 C36 1_555 1_555
H21 C37 1_555 1_555
C38 C37 1_555 1_555
H22 C38 1_555 1_555
C39 C38 1_555 1_555
C40 C39 1_555 1_555
H23 C40 1_555 1_555
C41 C36 1_555 1_555
H24 C41 1_555 1_555
C42 C39 1_555 1_555
C43 C44 1_555 1_555
C44 C45 1_555 1_555
C45 H25 1_555 1_555
C46 C45 1_555 1_555
H26 C46 1_555 1_555
C47 C46 1_555 1_555
C48 C47 1_555 1_555
H27 C48 1_555 1_555
C49 C44 1_555 1_555
H28 C49 1_555 1_555
C50 C47 1_555 1_555
C51 C50 1_555 1_555
H29 C51 1_555 1_555
C52 C51 1_555 1_555
H30 C52 1_555 1_555
C53 C52 1_555 1_555
C54 C53 1_555 1_555
H31 C54 1_555 1_555
C55 C50 1_555 1_555
H32 C55 1_555 1_555
C56 C53 1_555 1_555
Co1 O4 1_555 1_555
Co2 O2 1_555 1_555
Co3 O1 1_555 1_555
O1 C29 1_555 1_555
O2 C29 1_555 1_555
O3 C42 1_555 1_555
O4 C42 1_555 1_555
O5 C28 1_555 1_555
O6 C28 1_555 1_555
O7 C15 1_555 1_555
O8 C15 1_555 1_555
O9 C1 1_555 1_555
O10 C1 1_555 1_555
O11 C43 1_555 1_555
O12 C43 1_555 1_555
O13 C56 1_555 1_555
O14 C56 1_555 1_555
O15 C14 1_555 1_555
O16 C14 1_555 1_555
C57 H33 1_555 1_555
H34 C57 1_555 1_555
H35 C57 1_555 1_555
C58 H36 1_555 1_555
H37 C58 1_555 1_555
H38 C58 1_555 1_555
N1 C57 1_555 1_555
H39 N1 1_555 1_555
H40 N1 1_555 1_555
O17 C59 1_555 1_555
C59 H41 1_555 1_555
H42 C59 1_555 1_555
H43 C59 1_555 1_555
C60 H44 1_555 1_555
H45 C60 1_555 1_555
H46 C60 1_555 1_555
O18 C61 1_555 1_555
C61 H47 1_555 1_555
H48 C61 1_555 1_555
H49 C61 1_555 1_555
N2 C60 1_555 1_555
H50 N2 1_555 1_555
H51 N2 1_555 1_555
C62 N2 1_555 1_555
H52 C62 1_555 1_555
H53 C62 1_555 1_555
H54 C62 1_555 1_555
Co1C O8 1_555 1_555
Co2C O11 1_555 1_555
Co2_2 O15 1_555 1_555
Co3_2 O3 1_555 1_555
Co3C O7 1_555 1_555
Co3C_2 O12 1_555 1_555
O3_2 Co3 1_555 1_555
O5_2 Co3 1_555 1_555
O7C Co3 1_555 1_555
O8C Co1 1_555 1_555
O11C Co2 1_555 1_555
O12C Co3 1_555 1_555
O15_2 Co2 1_555 1_555
C6 C7 1_555 1_555
C10 C11 1_555 1_555
C12 C13 1_555 1_555
C20 C21 1_555 1_555
C26 C27 1_555 1_555
C34 C35 1_555 1_555
C40 C41 1_555 1_555
C48 C49 1_555 1_555
C54 C55 1_555 1_555
Co1 O6 1_555 1_555
Co1 O9 1_555 1_555
Co2 O13 1_555 1_555
Co3 O14 1_555 1_555
O5 Co3_2 1_555 1_555
C58 N1 1_555 1_555

#END
