
#######################################################################
#
#                 Cambridge Crystallographic Data Centre
#                                CCDC 
#
#######################################################################
#
# If this CIF has been generated from an entry in the Cambridge 
# Structural Database, then it will include bibliographic, chemical, 
# crystal, experimental, refinement or atomic coordinate data resulting 
# from the CCDC's data processing and validation procedures.
#
#######################################################################

data_MOXFOV
_symmetry_cell_setting           orthorhombic
_symmetry_space_group_name_H-M   'P b c a'
_symmetry_Int_Tables_number      61
_space_group_name_Hall           '-P 2ac 2ab'
loop_
_symmetry_equiv_pos_site_id
_symmetry_equiv_pos_as_xyz
1 x,y,z
2 1/2-x,-y,1/2+z
3 -x,1/2+y,1/2-z
4 1/2+x,1/2-y,-z
5 -x,-y,-z
6 1/2+x,y,1/2-z
7 x,1/2-y,1/2+z
8 1/2-x,1/2+y,z
_cell_length_a                   13.4095(6)
_cell_length_b                   14.0204(7)
_cell_length_c                   16.6409(8)
_cell_angle_alpha                90
_cell_angle_beta                 90
_cell_angle_gamma                90
_cell_volume                     3128.6
loop_
_atom_site_label
_atom_site_type_symbol
_atom_site_fract_x
_atom_site_fract_y
_atom_site_fract_z
Zn1 Zn 0.09120(2) 0.17250(2) 0.603111(17)
O1 O -0.05388(17) 0.17479(16) 0.59141(12)
N1 N 0.11382(17) 0.07520(17) 0.69203(13)
O2 O -0.07745(15) 0.11575(17) 0.46907(12)
N2 N 0.11629(17) -0.01951(18) 0.67445(15)
C1 C 0.11272(19) -0.0120(2) 0.80526(15)
C2 C 0.1118(2) 0.0798(2) 0.77277(15)
C3 C -0.1062(2) 0.1488(2) 0.53270(18)
C4 C 0.1154(2) -0.0389(3) 0.89241(17)
O3 O 0.14442(18) 0.29111(17) 0.64412(13)
C5 C 0.1130(3) 0.1727(2) 0.8155(2)
H1 H 0.1101 0.2237 0.7771
H2 H 0.1732 0.1780 0.8464
H3 H 0.0565 0.1765 0.8507
C6 C 0.1156(2) -0.0734(2) 0.74080(16)
C7 C 0.1198(3) -0.1791(2) 0.7377(2)
H4 H 0.0822 -0.2014 0.6924
H5 H 0.0919 -0.2049 0.7862
H6 H 0.1879 -0.1993 0.7326
O4 O 0.1116(2) 0.3454(2) 0.52395(18)
C8 C 0.1451(3) 0.3540(3) 0.5897(2)
H7 H 0.119(2) -0.035(2) 0.628(2)
H8 H 0.071(2) -0.088(2) 0.9008(16)
H9 H 0.089(2) 0.015(2) 0.9239(18)
H10 H -0.179(2) 0.160(2) 0.5403(18)
H11 H 0.174(3) 0.417(3) 0.606(2)
N3 N 0.37558(18) -0.09180(18) 0.94220(13)
C9 C 0.3101(2) -0.0602(2) 0.88762(15)
N4 N 0.33125(17) -0.11666(17) 1.01181(12)
C10 C 0.2341(2) -0.10100(19) 1.00053(15)
C11 C 0.2168(2) -0.06474(19) 0.92390(15)
C12 C 0.3469(2) -0.0282(2) 0.80737(16)
H12 H 0.4184 -0.0236 0.8084
H13 H 0.3190 0.0331 0.7949
H14 H 0.3271 -0.0735 0.7672
C13 C 0.1595(2) -0.1228(2) 1.06493(17)
H15 H 0.1931 -0.1492 1.1107
H16 H 0.1117 -0.1679 1.0450
H17 H 0.1258 -0.0652 1.0803
H18 H 0.437(2) -0.095(2) 0.9387(18)
Zn1A Zn 0.40880(2) -0.17250(2) 1.103111(17)
N4A N 0.16875(17) 0.11666(17) 0.51181(12)
loop_
_geom_bond_atom_site_label_1
_geom_bond_atom_site_label_2
_geom_bond_site_symmetry_1
_geom_bond_site_symmetry_2
Zn1 O1 1_555 1_555
O1 C3 1_555 1_555
N1 Zn1 1_555 1_555
O2 C3 1_555 1_555
N2 N1 1_555 1_555
C1 C2 1_555 1_555
C2 N1 1_555 1_555
C3 H10 1_555 1_555
C4 C1 1_555 1_555
O3 Zn1 1_555 1_555
C5 C2 1_555 1_555
H1 C5 1_555 1_555
H2 C5 1_555 1_555
H3 C5 1_555 1_555
C6 N2 1_555 1_555
C7 C6 1_555 1_555
H4 C7 1_555 1_555
H5 C7 1_555 1_555
H6 C7 1_555 1_555
O4 C8 1_555 1_555
C8 O3 1_555 1_555
H7 N2 1_555 1_555
H8 C4 1_555 1_555
H9 C4 1_555 1_555
H11 C8 1_555 1_555
N3 C9 1_555 1_555
C9 C11 1_555 1_555
N4 N3 1_555 1_555
C10 N4 1_555 1_555
C11 C4 1_555 1_555
C12 C9 1_555 1_555
H12 C12 1_555 1_555
H13 C12 1_555 1_555
H14 C12 1_555 1_555
C13 C10 1_555 1_555
H15 C13 1_555 1_555
H16 C13 1_555 1_555
H17 C13 1_555 1_555
H18 N3 1_555 1_555
Zn1A N4 1_555 1_555
N4A Zn1 1_555 1_555
C1 C6 1_555 1_555
C10 C11 1_555 1_555

#END
