
#######################################################################
#
#                 Cambridge Crystallographic Data Centre
#                                CCDC 
#
#######################################################################
#
# If this CIF has been generated from an entry in the Cambridge 
# Structural Database, then it will include bibliographic, chemical, 
# crystal, experimental, refinement or atomic coordinate data resulting 
# from the CCDC's data processing and validation procedures.
#
#######################################################################

data_MOXFAH
_symmetry_cell_setting           monoclinic
_symmetry_space_group_name_H-M   'P 21/n'
_symmetry_Int_Tables_number      14
_space_group_name_Hall           '-P 2yn'
loop_
_symmetry_equiv_pos_site_id
_symmetry_equiv_pos_as_xyz
1 x,y,z
2 1/2-x,1/2+y,1/2-z
3 -x,-y,-z
4 1/2+x,1/2-y,1/2+z
_cell_length_a                   9.5574(2)
_cell_length_b                   8.7122(2)
_cell_length_c                   18.1866(3)
_cell_angle_alpha                90
_cell_angle_beta                 100.459(1)
_cell_angle_gamma                90
_cell_volume                     1489.16
loop_
_atom_site_label
_atom_site_type_symbol
_atom_site_fract_x
_atom_site_fract_y
_atom_site_fract_z
Zn1 Zn 0.359456(18) 0.803670(19) 0.146496(8)
Br1 Br 0.369249(17) 1.027029(18) 0.073018(9)
Br2 Br 0.132501(17) 0.71357(2) 0.159187(9)
N1 N 0.58067(14) 0.69256(14) 0.06122(7)
N2 N 0.48265(13) 0.65086(14) 0.10316(6)
C1 C 0.51428(16) 0.50554(16) 0.12407(7)
C2 C 0.63170(15) 0.45386(16) 0.09456(7)
C3 C 0.69904(16) 0.29811(17) 0.10275(8)
C4 C 0.67133(15) 0.57724(17) 0.05430(7)
C5 C 0.43273(19) 0.4230(2) 0.17460(9)
C6 C 0.78956(17) 0.5913(2) 0.01173(9)
H1 H 0.706(2) 0.257(3) 0.0540(11)
H2 H 0.633(2) 0.232(3) 0.1201(11)
H3 H 0.571(2) 0.783(2) 0.0380(11)
H4 H 0.773(3) 0.672(3) -0.0238(14)
H5 H 0.883(3) 0.613(4) 0.0476(15)
H6 H 0.803(3) 0.488(3) -0.0152(14)
H7 H 0.441(3) 0.318(3) 0.1704(15)
H8 H 0.333(3) 0.463(3) 0.1697(14)
H9 H 0.473(2) 0.440(3) 0.2250(13)
N3 N 1.02679(14) 0.31631(15) 0.24790(7)
N4 N 1.06844(14) 0.23418(16) 0.19257(7)
C7 C 0.96133(16) 0.21682(17) 0.13358(7)
C8 C 0.88998(16) 0.35158(18) 0.22329(8)
C9 C 0.84500(15) 0.29245(16) 0.15092(7)
C10 C 0.9770(2) 0.1262(3) 0.06617(9)
C11 C 0.8056(2) 0.4376(3) 0.27132(10)
H10 H 0.860(3) 0.462(3) 0.3202(16)
H11 H 1.067(3) 0.094(3) 0.0666(14)
H12 H 0.916(3) 0.046(3) 0.0571(15)
H13 H 1.160(2) 0.201(2) 0.1974(11)
H14 H 0.953(3) 0.185(3) 0.0267(16)
H15 H 0.773(4) 0.528(4) 0.2473(18)
H16 H 0.720(4) 0.361(4) 0.2773(18)
Zn1A Zn 1.140544(18) 0.303670(19) 0.353504(8)
N3A N 0.47321(14) 0.81631(15) 0.25210(7)
loop_
_geom_bond_atom_site_label_1
_geom_bond_atom_site_label_2
_geom_bond_site_symmetry_1
_geom_bond_site_symmetry_2
Zn1 Br1 1_555 1_555
Br2 Zn1 1_555 1_555
N1 N2 1_555 1_555
N2 Zn1 1_555 1_555
C1 N2 1_555 1_555
C2 C1 1_555 1_555
C3 C2 1_555 1_555
C4 N1 1_555 1_555
C5 C1 1_555 1_555
C6 C4 1_555 1_555
H1 C3 1_555 1_555
H2 C3 1_555 1_555
H3 N1 1_555 1_555
H4 C6 1_555 1_555
H5 C6 1_555 1_555
H6 C6 1_555 1_555
H7 C5 1_555 1_555
H8 C5 1_555 1_555
H9 C5 1_555 1_555
N3 N4 1_555 1_555
N4 C7 1_555 1_555
C7 C9 1_555 1_555
C8 N3 1_555 1_555
C9 C3 1_555 1_555
C10 C7 1_555 1_555
C11 C8 1_555 1_555
H10 C11 1_555 1_555
H11 C10 1_555 1_555
H12 C10 1_555 1_555
H13 N4 1_555 1_555
H14 C10 1_555 1_555
H15 C11 1_555 1_555
H16 C11 1_555 1_555
Zn1A N3 1_555 1_555
N3A Zn1 1_555 1_555
C2 C4 1_555 1_555
C8 C9 1_555 1_555

#END
