
#######################################################################
#
#                 Cambridge Crystallographic Data Centre
#                                CCDC 
#
#######################################################################
#
# If this CIF has been generated from an entry in the Cambridge 
# Structural Database, then it will include bibliographic, chemical, 
# crystal, experimental, refinement or atomic coordinate data resulting 
# from the CCDC's data processing and validation procedures.
#
#######################################################################

data_MOXFEL
_symmetry_cell_setting           monoclinic
_symmetry_space_group_name_H-M   'P 21/n'
_symmetry_Int_Tables_number      14
_space_group_name_Hall           '-P 2yn'
loop_
_symmetry_equiv_pos_site_id
_symmetry_equiv_pos_as_xyz
1 x,y,z
2 1/2-x,1/2+y,1/2-z
3 -x,-y,-z
4 1/2+x,1/2-y,1/2+z
_cell_length_a                   9.2787(4)
_cell_length_b                   8.7453(3)
_cell_length_c                   17.7348(7)
_cell_angle_alpha                90
_cell_angle_beta                 99.192(2)
_cell_angle_gamma                90
_cell_volume                     1420.61
loop_
_atom_site_label
_atom_site_type_symbol
_atom_site_fract_x
_atom_site_fract_y
_atom_site_fract_z
Zn1 Zn 0.855939(12) 0.319197(13) 0.144567(6)
Cl1 Cl 0.87061(3) 0.53059(3) 0.074909(15)
Cl2 Cl 0.63624(3) 0.23298(3) 0.158399(15)
N1 N 0.98078(10) 0.16411(9) 0.09955(5)
N2 N 1.08654(10) 0.20660(10) 0.05879(5)
C1 C 1.19987(12) -0.18949(11) 0.09904(6)
C2 C 1.00964(11) 0.01808(10) 0.11990(5)
C3 C 1.13294(11) -0.03298(11) 0.09072(5)
C4 C 1.17919(11) 0.09056(11) 0.05178(5)
C5 C 1.34656(11) -0.19788(10) 0.14945(5)
C6 C 1.30603(12) 0.10457(15) 0.01059(7)
C7 C 0.91986(14) -0.06696(13) 0.16876(6)
H1 H 1.316(2) 0.009(2) -0.0176(10)
H2 H 1.2090(17) -0.2279(18) 0.0511(9)
H3 H 1.1306(19) -0.260(2) 0.1156(10)
H4 H 1.395(2) 0.123(2) 0.0441(11)
H5 H 1.2918(19) 0.1863(19) -0.0245(10)
H6 H 0.963(2) -0.071(2) 0.2183(11)
H7 H 0.8220(18) -0.0234(19) 0.1672(9)
H8 H 1.0820(17) 0.2949(17) 0.0363(9)
H9 H 0.905(2) -0.173(2) 0.1525(10)
N3 N 1.53246(10) -0.16998(10) 0.24716(5)
N4 N 1.57083(9) -0.26727(11) 0.19450(5)
C8 C 1.46176(11) -0.28705(11) 0.13522(5)
C9 C 1.39481(12) -0.12770(13) 0.22039(6)
C10 C 1.47276(13) -0.39256(16) 0.07059(6)
C11 C 1.3149(2) -0.0226(2) 0.26527(10)
H10 H 1.446(2) -0.343(3) 0.0239(13)
H11 H 1.568(2) -0.425(2) 0.0699(10)
H12 H 1.660(2) -0.3046(19) 0.1999(10)
H13 H 1.414(3) -0.473(3) 0.0740(12)
H14 H 1.363(2) -0.007(3) 0.3182(12)
H15 H 1.280(3) 0.062(3) 0.2353(13)
H16 H 1.228(3) -0.060(3) 0.2712(15)
Zn1A Zn 1.644061(12) -0.180803(13) 0.355433(6)
N3A N 0.96754(10) 0.33002(10) 0.25284(5)
loop_
_geom_bond_atom_site_label_1
_geom_bond_atom_site_label_2
_geom_bond_site_symmetry_1
_geom_bond_site_symmetry_2
Zn1 Cl1 1_555 1_555
Cl2 Zn1 1_555 1_555
N1 Zn1 1_555 1_555
N2 N1 1_555 1_555
C1 C3 1_555 1_555
C2 N1 1_555 1_555
C3 C2 1_555 1_555
C4 N2 1_555 1_555
C5 C1 1_555 1_555
C6 C4 1_555 1_555
C7 C2 1_555 1_555
H1 C6 1_555 1_555
H2 C1 1_555 1_555
H3 C1 1_555 1_555
H4 C6 1_555 1_555
H5 C6 1_555 1_555
H6 C7 1_555 1_555
H7 C7 1_555 1_555
H8 N2 1_555 1_555
H9 C7 1_555 1_555
N3 N4 1_555 1_555
N4 C8 1_555 1_555
C8 C5 1_555 1_555
C9 C5 1_555 1_555
C10 C8 1_555 1_555
C11 C9 1_555 1_555
H10 C10 1_555 1_555
H11 C10 1_555 1_555
H12 N4 1_555 1_555
H13 C10 1_555 1_555
H14 C11 1_555 1_555
H15 C11 1_555 1_555
H16 C11 1_555 1_555
Zn1A N3 1_555 1_555
N3A Zn1 1_555 1_555
C3 C4 1_555 1_555
N3 C9 1_555 1_555

#END
