
#######################################################################
#
#                 Cambridge Crystallographic Data Centre
#                                CCDC 
#
#######################################################################
#
# If this CIF has been generated from an entry in the Cambridge 
# Structural Database, then it will include bibliographic, chemical, 
# crystal, experimental, refinement or atomic coordinate data resulting 
# from the CCDC's data processing and validation procedures.
#
#######################################################################

data_MOXGIQ
_symmetry_cell_setting           orthorhombic
_symmetry_space_group_name_H-M   'P n n a'
_symmetry_Int_Tables_number      52
_space_group_name_Hall           '-P 2a 2bc'
loop_
_symmetry_equiv_pos_site_id
_symmetry_equiv_pos_as_xyz
1 x,y,z
2 1/2-x,-y,z
3 1/2-x,1/2+y,1/2-z
4 x,1/2-y,1/2-z
5 -x,-y,-z
6 1/2+x,y,-z
7 1/2+x,1/2-y,1/2+z
8 -x,1/2+y,1/2+z
_cell_length_a                   22.833(4)
_cell_length_b                   14.036(2)
_cell_length_c                   8.6926(15)
_cell_angle_alpha                90
_cell_angle_beta                 90
_cell_angle_gamma                90
_cell_volume                     2785.84
loop_
_atom_site_label
_atom_site_type_symbol
_atom_site_fract_x
_atom_site_fract_y
_atom_site_fract_z
Zn1 Zn 0.44966(3) 0.2500 0.2500
Zn2 Zn 0.29502(3) 0.2500 -0.2500
S1 S 0.36035(4) 0.16026(7) 0.03355(11)
N1 N 0.74227(14) 0.1618(3) 0.5347(4)
O1 O 0.34592(12) 0.1653(2) -0.1346(3)
N2 N 0.74496(13) 0.1638(2) 0.3773(3)
O2 O 0.38848(12) 0.06909(19) 0.0649(3)
O3 O 0.30740(12) 0.1746(2) 0.1242(3)
O4 O 0.40313(12) 0.23885(19) 0.0635(3)
C1 C 0.62367(16) -0.0069(3) 0.4504(5)
C2 C 0.67469(15) 0.0612(3) 0.4555(4)
C3 C 0.70030(16) 0.1014(3) 0.5845(5)
C4 C 0.56904(15) 0.0345(3) 0.3777(4)
C5 C 0.70372(15) 0.1026(3) 0.3290(4)
C6 C 0.6930(2) 0.0852(3) 0.1618(5)
C7 C 0.6867(2) 0.0905(4) 0.7519(5)
H1 H 0.7164 0.1217 0.8117
H2 H 0.6493 0.1187 0.7736
H3 H 0.6857 0.0240 0.7779
H4 H 0.6157(15) -0.025(3) 0.546(5)
H5 H 0.6341(17) -0.061(3) 0.391(5)
H6 H 0.764(2) 0.201(3) 0.586(5)
H7 H 0.721(2) 0.111(4) 0.093(7)
H8 H 0.660(3) 0.112(5) 0.134(8)
H9 H 0.686(2) 0.014(5) 0.146(7)
N3 N 0.49996(13) 0.1373(2) 0.2970(4)
C8 C 0.5754(2) 0.2158(3) 0.4538(5)
N4 N 0.48734(14) 0.0483(2) 0.2443(4)
C9 C 0.54967(16) 0.1296(3) 0.3796(4)
C10 C 0.52202(18) -0.1184(3) 0.2537(5)
H10 H 0.4819 -0.1377 0.2656
H11 H 0.5341 -0.1289 0.1493
H12 H 0.5463 -0.1551 0.3216
C11 C 0.52775(16) -0.0152(3) 0.2918(4)
H13 H 0.456(2) 0.041(4) 0.186(7)
H14 H 0.545(2) 0.264(4) 0.450(6)
H15 H 0.586(2) 0.204(3) 0.550(6)
H16 H 0.608(3) 0.232(4) 0.409(7)
Zn2E Zn 0.79502(3) 0.2500 0.2500
Zn2_2 Zn 0.29502(3) 0.2500 0.7500
S1C S 0.36035(4) 0.33974(7) 0.46645(11)
N1C N 0.74227(14) 0.3382(3) -0.0347(4)
O1C O 0.34592(12) 0.3347(2) 0.6346(3)
O1C_2 O 0.34592(12) 0.3347(2) -0.3654(3)
N2C N 0.74496(13) 0.3362(2) 0.1227(3)
N2F N 0.24496(13) 0.3362(2) -0.1227(3)
N2E N 0.24496(13) 0.1638(2) -0.3773(3)
O2C O 0.38848(12) 0.43091(19) 0.4351(3)
O3C O 0.30740(12) 0.3254(2) 0.3758(3)
O4C O 0.40313(12) 0.26115(19) 0.4365(3)
C1C C 0.62367(16) 0.5069(3) 0.0496(5)
C2C C 0.67469(15) 0.4388(3) 0.0445(4)
C3C C 0.70030(16) 0.3986(3) -0.0845(5)
C4C C 0.56904(15) 0.4655(3) 0.1223(4)
C5C C 0.70372(15) 0.3974(3) 0.1710(4)
C6C C 0.6930(2) 0.4148(3) 0.3382(5)
C7C C 0.6867(2) 0.4095(4) -0.2519(5)
H1C H 0.7164 0.3783 -0.3117
H2C H 0.6493 0.3813 -0.2736
H3C H 0.6857 0.4760 -0.2779
H4C H 0.6157(15) 0.525(3) -0.046(5)
H5C H 0.6341(17) 0.561(3) 0.109(5)
H6C H 0.764(2) 0.299(3) -0.086(5)
H7C H 0.721(2) 0.389(4) 0.407(7)
H8C H 0.660(3) 0.388(5) 0.366(8)
H9C H 0.686(2) 0.486(5) 0.354(7)
N3C N 0.49996(13) 0.3627(2) 0.2030(4)
C8C C 0.5754(2) 0.2842(3) 0.0462(5)
N4C N 0.48734(14) 0.4517(2) 0.2557(4)
C9C C 0.54967(16) 0.3704(3) 0.1204(4)
C10C C 0.52202(18) 0.6184(3) 0.2463(5)
H10C H 0.4819 0.6377 0.2344
H11C H 0.5341 0.6289 0.3507
H12C H 0.5463 0.6551 0.1784
C11C C 0.52775(16) 0.5152(3) 0.2082(4)
H13C H 0.456(2) 0.459(4) 0.314(7)
H14C H 0.545(2) 0.236(4) 0.050(6)
H15C H 0.586(2) 0.296(3) -0.050(6)
H16C H 0.608(3) 0.268(4) 0.091(7)
loop_
_geom_bond_atom_site_label_1
_geom_bond_atom_site_label_2
_geom_bond_site_symmetry_1
_geom_bond_site_symmetry_2
Zn1 O4 1_555 1_555
Zn2 O1 1_555 1_555
S1 O1 1_555 1_555
N1 N2 1_555 1_555
N2 C5 1_555 1_555
O2 S1 1_555 1_555
O3 S1 1_555 1_555
O4 S1 1_555 1_555
C1 C2 1_555 1_555
C2 C3 1_555 1_555
C3 N1 1_555 1_555
C4 C1 1_555 1_555
C5 C2 1_555 1_555
C6 C5 1_555 1_555
C7 C3 1_555 1_555
H1 C7 1_555 1_555
H2 C7 1_555 1_555
H3 C7 1_555 1_555
H4 C1 1_555 1_555
H5 C1 1_555 1_555
H6 N1 1_555 1_555
H7 C6 1_555 1_555
H8 C6 1_555 1_555
H9 C6 1_555 1_555
N3 Zn1 1_555 1_555
C8 C9 1_555 1_555
N4 N3 1_555 1_555
C9 C4 1_555 1_555
C10 H10 1_555 1_555
H11 C10 1_555 1_555
H12 C10 1_555 1_555
C11 C4 1_555 1_555
H13 N4 1_555 1_555
H14 C8 1_555 1_555
H15 C8 1_555 1_555
H16 C8 1_555 1_555
Zn2E N2 1_555 1_555
Zn2_2 O1C 1_555 1_555
S1C O1C 1_555 1_555
N1C N2C 1_555 1_555
O1C_2 Zn2 1_555 1_555
N2C Zn2E 1_555 1_555
N2F Zn2 1_555 1_555
N2E Zn2 1_555 1_555
O2C S1C 1_555 1_555
O3C S1C 1_555 1_555
O4C Zn1 1_555 1_555
C1C C2C 1_555 1_555
C2C C3C 1_555 1_555
C3C N1C 1_555 1_555
C4C C1C 1_555 1_555
C5C N2C 1_555 1_555
C6C C5C 1_555 1_555
C7C C3C 1_555 1_555
H1C C7C 1_555 1_555
H2C C7C 1_555 1_555
H3C C7C 1_555 1_555
H4C C1C 1_555 1_555
H5C C1C 1_555 1_555
H6C N1C 1_555 1_555
H7C C6C 1_555 1_555
H8C C6C 1_555 1_555
H9C C6C 1_555 1_555
N3C Zn1 1_555 1_555
C8C C9C 1_555 1_555
N4C N3C 1_555 1_555
C9C C4C 1_555 1_555
C10C H10C 1_555 1_555
H11C C10C 1_555 1_555
H12C C10C 1_555 1_555
C11C C4C 1_555 1_555
H13C N4C 1_555 1_555
H14C C8C 1_555 1_555
H15C C8C 1_555 1_555
H16C C8C 1_555 1_555
N3 C9 1_555 1_555
N4 C11 1_555 1_555
C10 C11 1_555 1_555
S1C O4C 1_555 1_555
C2C C5C 1_555 1_555
N3C C9C 1_555 1_555
N4C C11C 1_555 1_555
C10C C11C 1_555 1_555

#END
