
#######################################################################
#
#                 Cambridge Crystallographic Data Centre
#                                CCDC 
#
#######################################################################
#
# If this CIF has been generated from an entry in the Cambridge 
# Structural Database, then it will include bibliographic, chemical, 
# crystal, experimental, refinement or atomic coordinate data resulting 
# from the CCDC's data processing and validation procedures.
#
#######################################################################

data_MOXGEL
_symmetry_cell_setting           monoclinic
_symmetry_space_group_name_H-M   'P 21/n'
_symmetry_Int_Tables_number      14
_space_group_name_Hall           '-P 2yn'
loop_
_symmetry_equiv_pos_site_id
_symmetry_equiv_pos_as_xyz
1 x,y,z
2 1/2-x,1/2+y,1/2-z
3 -x,-y,-z
4 1/2+x,1/2-y,1/2+z
_cell_length_a                   12.4871(3)
_cell_length_b                   18.5027(4)
_cell_length_c                   19.7472(3)
_cell_angle_alpha                90
_cell_angle_beta                 107.3960(10)
_cell_angle_gamma                90
_cell_volume                     4353.81
loop_
_atom_site_label
_atom_site_type_symbol
_atom_site_fract_x
_atom_site_fract_y
_atom_site_fract_z
Ag1 Ag 0.3806(1) 0.5958(1) 0.2239(1)
P1 P 0.5426(1) 0.5173(1) 0.2710(1)
P2 P 0.2248(1) 0.5463(1) 0.1251(1)
P3 P -0.2108(1) 0.8306(1) -0.2021(1)
C1 C -0.1267(3) 0.7515(2) -0.1632(1)
C2 C -0.0181(2) 0.7715(2) -0.1063(2)
C3 C 0.0486(3) 0.7049(2) -0.0730(2)
C4 C 0.1569(2) 0.7207(2) -0.0164(2)
C5 C 0.5315(2) 0.5149(1) 0.4102(1)
C6 C 0.5318(2) 0.4660(1) 0.3482(1)
C7 C 0.5018(2) 0.4751(1) 0.4699(1)
C8 C 0.2145(3) 0.6534(2) 0.0232(2)
C9 C 0.1427(2) 0.6127(1) 0.0611(1)
C10 C -0.2540(2) 0.8690(2) -0.1296(1)
C11 C -0.2716(3) 0.8269(2) -0.0751(2)
C12 C -0.3030(3) 0.8590(3) -0.0206(2)
C13 C -0.3200(3) 0.9324(3) -0.0203(2)
C14 C -0.3039(3) 0.9754(2) -0.0738(2)
C15 C -0.2704(3) 0.9430(2) -0.1279(2)
C16 C -0.3406(2) 0.7909(2) -0.2597(1)
C17 C -0.3334(3) 0.7399(2) -0.3104(2)
C18 C -0.4296(3) 0.7122(2) -0.3583(2)
C19 C -0.5334(3) 0.7358(2) -0.3565(2)
C20 C -0.5421(3) 0.7873(2) -0.3074(2)
C21 C -0.4458(3) 0.8145(2) -0.2595(2)
C22 C 0.6802(2) 0.5587(2) 0.3039(1)
C23 C 0.6886(3) 0.6337(2) 0.3018(2)
C24 C 0.7923(3) 0.6666(2) 0.3301(2)
C25 C 0.8866(3) 0.6254(3) 0.3601(2)
C26 C 0.8795(3) 0.5520(3) 0.3612(2)
C27 C 0.7763(3) 0.5178(2) 0.3329(2)
C28 C 0.5622(2) 0.4479(1) 0.2108(1)
C29 C 0.5051(3) 0.3827(2) 0.2021(2)
C30 C 0.5159(3) 0.3329(2) 0.1519(2)
C31 C 0.5840(3) 0.3478(2) 0.1101(2)
C32 C 0.6403(3) 0.4123(2) 0.1181(2)
C33 C 0.6285(3) 0.4629(2) 0.1673(2)
C34 C 0.1214(2) 0.5033(1) 0.1608(1)
C35 C 0.0109(3) 0.5251(2) 0.1432(2)
C36 C -0.0620(3) 0.4943(2) 0.1763(2)
C37 C -0.0256(3) 0.4413(2) 0.2262(2)
C38 C 0.0831(3) 0.4177(2) 0.2432(2)
C39 C 0.1569(3) 0.4487(2) 0.2115(2)
C40 C 0.2537(2) 0.4774(1) 0.0670(1)
C41 C 0.1812(2) 0.4198(2) 0.0413(1)
C42 C 0.2028(3) 0.3712(2) -0.0063(2)
C43 C 0.2959(3) 0.3797(2) -0.0289(2)
C44 C 0.3694(3) 0.4360(2) -0.0032(2)
C45 C 0.3490(2) 0.4846(2) 0.0447(1)
O1 O 0.4346(2) 0.7143(1) 0.1874(1)
O2 O 0.5185(2) 0.6496(1) 0.1224(1)
F1 F 0.5014(3) 0.7708(2) 0.0426(1)
C46 C 0.4874(3) 0.7052(2) 0.1443(2)
C47 C 0.5155(5) 0.7753(2) 0.1110(2)
F2 F 0.4630(6) 0.8308(2) 0.1178(3)
F3 F 0.6221(5) 0.7896(3) 0.1385(3)
H1 H -0.1082 0.7241 -0.2012
H2 H -0.1718 0.7196 -0.1420
H3 H -0.0361 0.8002 -0.0688
H4 H 0.0284 0.8019 -0.1277
H5 H 0.0011 0.6746 -0.0523
H6 H 0.0656 0.6764 -0.1110
H7 H 0.2089 0.7450 -0.0384
H8 H 0.1416 0.7547 0.0183
H9 H 0.4768 0.5544 0.3926
H10 H 0.6067 0.5371 0.4294
H11 H 0.4618 0.4371 0.3344
H12 H 0.5958 0.4320 0.3634
H13 H 0.4276 0.4517 0.4504
H14 H 0.5580 0.4367 0.4886
H15 H 0.2332 0.6204 -0.0111
H16 H 0.2857 0.6680 0.0585
H17 H 0.0812 0.5875 0.0254
H18 H 0.1084 0.6478 0.0863
H19 H -0.2619 0.7760 -0.0754
H20 H -0.3130 0.8302 0.0169
H21 H -0.3429 0.9538 0.0169
H22 H -0.3156 1.0261 -0.0737
H23 H -0.2584 0.9723 -0.1644
H24 H -0.2618 0.7241 -0.3121
H25 H -0.4240 0.6770 -0.3921
H26 H -0.5995 0.7167 -0.3892
H27 H -0.6138 0.8037 -0.3066
H28 H -0.4519 0.8500 -0.2261
H29 H 0.6237 0.6621 0.2812
H30 H 0.7984 0.7177 0.3287
H31 H 0.9570 0.6483 0.3803
H32 H 0.9452 0.5240 0.3812
H33 H 0.7717 0.4665 0.3334
H34 H 0.4581 0.3720 0.2307
H35 H 0.4762 0.2884 0.1464
H36 H 0.5919 0.3136 0.0760
H37 H 0.6879 0.4225 0.0897
H38 H 0.6661 0.5081 0.1713
H39 H -0.0156 0.5614 0.1082
H40 H -0.1376 0.5102 0.1642
H41 H -0.0756 0.4210 0.2489
H42 H 0.1079 0.3799 0.2768
H43 H 0.2326 0.4327 0.2243
H44 H 0.1164 0.4139 0.0565
H45 H 0.1532 0.3318 -0.0233
H46 H 0.3098 0.3468 -0.0623
H47 H 0.4343 0.4413 -0.0185
H48 H 0.4001 0.5231 0.0623
C7B C 0.4982(2) 0.5249(1) 0.5301(1)
C5B C 0.4685(2) 0.4851(1) 0.5898(1)
C6B C 0.4682(2) 0.5340(1) 0.6518(1)
P1B P 0.4574(1) 0.4827(1) 0.7290(1)
C22B C 0.3198(2) 0.4413(2) 0.6961(1)
C23B C 0.3114(3) 0.3663(2) 0.6982(2)
C24B C 0.2077(3) 0.3334(2) 0.6699(2)
C25B C 0.1134(3) 0.3746(3) 0.6399(2)
C26B C 0.1205(3) 0.4480(3) 0.6388(2)
C27B C 0.2237(3) 0.4822(2) 0.6671(2)
H33B H 0.2283 0.5335 0.6666
H32B H 0.0548 0.4760 0.6188
H31B H 0.0430 0.3517 0.6197
H30B H 0.2016 0.2823 0.6713
H29B H 0.3763 0.3379 0.7188
C28B C 0.4378(2) 0.5521(1) 0.7892(1)
C29B C 0.4949(3) 0.6173(2) 0.7979(2)
C30B C 0.4841(3) 0.6671(2) 0.8481(2)
C31B C 0.4160(3) 0.6522(2) 0.8899(2)
C32B C 0.3597(3) 0.5877(2) 0.8819(2)
C33B C 0.3715(3) 0.5371(2) 0.8327(2)
H38B H 0.3339 0.4919 0.8287
H37B H 0.3121 0.5775 0.9103
H36B H 0.4081 0.6864 0.9240
H35B H 0.5238 0.7116 0.8536
H34B H 0.5419 0.6280 0.7693
H11B H 0.5382 0.5629 0.6656
H12B H 0.4042 0.5680 0.6366
H9B H 0.5232 0.4456 0.6074
H10B H 0.3933 0.4629 0.5706
H13B H 0.5724 0.5483 0.5496
H14B H 0.4420 0.5633 0.5114
P2C P 0.7248(1) 0.9537(1) 0.6251(1)
P3C P 0.2892(1) 0.6694(1) 0.2979(1)
C1C C 0.3733(3) 0.7485(2) 0.3368(1)
C2C C 0.4819(2) 0.7285(2) 0.3937(2)
C3C C 0.5486(3) 0.7951(2) 0.4270(2)
C4C C 0.6569(2) 0.7793(2) 0.4836(2)
C8C C 0.7145(3) 0.8466(2) 0.5232(2)
C9C C 0.6427(2) 0.8873(1) 0.5611(1)
C10C C 0.2460(2) 0.6310(2) 0.3704(1)
C11C C 0.2284(3) 0.6731(2) 0.4249(2)
C12C C 0.1970(3) 0.6410(3) 0.4794(2)
C13C C 0.1800(3) 0.5676(3) 0.4797(2)
C14C C 0.1961(3) 0.5246(2) 0.4262(2)
C15C C 0.2296(3) 0.5570(2) 0.3721(2)
C16C C 0.1594(2) 0.7091(2) 0.2403(1)
C17C C 0.1666(3) 0.7601(2) 0.1896(2)
C18C C 0.0704(3) 0.7878(2) 0.1417(2)
C19C C -0.0334(3) 0.7642(2) 0.1435(2)
C20C C -0.0421(3) 0.7127(2) 0.1926(2)
C21C C 0.0542(3) 0.6855(2) 0.2405(2)
C34C C 0.6214(2) 0.9967(1) 0.6608(1)
C35C C 0.5109(3) 0.9749(2) 0.6432(2)
C36C C 0.4380(3) 1.0057(2) 0.6763(2)
C37C C 0.4744(3) 1.0587(2) 0.7262(2)
C38C C 0.5831(3) 1.0823(2) 0.7432(2)
C39C C 0.6569(3) 1.0513(2) 0.7115(2)
C40C C 0.7537(2) 1.0226(1) 0.5670(1)
C41C C 0.6812(2) 1.0802(2) 0.5413(1)
C42C C 0.7028(3) 1.1288(2) 0.4937(2)
C43C C 0.7959(3) 1.1203(2) 0.4711(2)
C44C C 0.8694(3) 1.0640(2) 0.4968(2)
C45C C 0.8490(2) 1.0154(2) 0.5447(1)
H1C H 0.3918 0.7759 0.2988
H2C H 0.3282 0.7804 0.3580
H3C H 0.4639 0.6998 0.4312
H4C H 0.5284 0.6981 0.3723
H5C H 0.5011 0.8254 0.4477
H6C H 0.5656 0.8236 0.3890
H7C H 0.7089 0.7550 0.4616
H8C H 0.6416 0.7453 0.5183
H15C H 0.7332 0.8796 0.4889
H16C H 0.7857 0.8320 0.5585
H17C H 0.5812 0.9125 0.5254
H18C H 0.6084 0.8522 0.5863
H19C H 0.2381 0.7240 0.4246
H20C H 0.1870 0.6698 0.5169
H21C H 0.1571 0.5462 0.5169
H22C H 0.1844 0.4739 0.4263
H23C H 0.2416 0.5277 0.3356
H24C H 0.2382 0.7759 0.1879
H25C H 0.0760 0.8230 0.1079
H26C H -0.0995 0.7833 0.1108
H27C H -0.1138 0.6963 0.1934
H28C H 0.0481 0.6500 0.2739
H39C H 0.4844 0.9386 0.6082
H40C H 0.3624 0.9898 0.6642
H41C H 0.4244 1.0790 0.7489
H42C H 0.6079 1.1201 0.7768
H43C H 0.7326 1.0673 0.7243
H44C H 0.6164 1.0861 0.5565
H45C H 0.6532 1.1682 0.4767
H46C H 0.8098 1.1532 0.4377
H47C H 0.9343 1.0587 0.4815
H48C H 0.9001 0.9769 0.5623
Ag1B Ag 0.6194(1) 0.4042(1) 0.7761(1)
O1B O 0.5654(2) 0.2857(1) 0.8126(1)
O2B O 0.4815(2) 0.3504(1) 0.8776(1)
F1B F 0.4986(3) 0.2292(2) 0.9574(1)
C46B C 0.5126(3) 0.2948(2) 0.8557(2)
C47B C 0.4845(5) 0.2247(2) 0.8890(2)
F2B F 0.5370(6) 0.1692(2) 0.8822(3)
F3B F 0.3779(5) 0.2104(3) 0.8615(3)
Ag1C Ag -0.1194(1) 0.9042(1) -0.2761(1)
Ag1C_2 Ag 0.8806(1) 0.9042(1) 0.7239(1)
P2B P 0.7752(1) 0.4537(1) 0.8749(1)
P3A P 0.7108(1) 0.3306(1) 0.7021(1)
loop_
_geom_bond_atom_site_label_1
_geom_bond_atom_site_label_2
_geom_bond_site_symmetry_1
_geom_bond_site_symmetry_2
Ag1 P1 1_555 1_555
P1 C6 1_555 1_555
P2 Ag1 1_555 1_555
P3 C1 1_555 1_555
C1 C2 1_555 1_555
C2 C3 1_555 1_555
C3 C4 1_555 1_555
C4 C8 1_555 1_555
C5 C6 1_555 1_555
C6 H11 1_555 1_555
C7 C5 1_555 1_555
C8 C9 1_555 1_555
C9 P2 1_555 1_555
C10 P3 1_555 1_555
C11 C10 1_555 1_555
C12 C11 1_555 1_555
C13 C12 1_555 1_555
C14 C13 1_555 1_555
C15 C10 1_555 1_555
C16 P3 1_555 1_555
C17 C16 1_555 1_555
C18 C17 1_555 1_555
C19 C18 1_555 1_555
C20 C19 1_555 1_555
C21 C16 1_555 1_555
C22 P1 1_555 1_555
C23 C22 1_555 1_555
C24 C23 1_555 1_555
C25 C24 1_555 1_555
C26 C25 1_555 1_555
C27 C22 1_555 1_555
C28 P1 1_555 1_555
C29 C28 1_555 1_555
C30 C29 1_555 1_555
C31 C30 1_555 1_555
C32 C31 1_555 1_555
C33 C28 1_555 1_555
C34 P2 1_555 1_555
C35 C34 1_555 1_555
C36 C35 1_555 1_555
C37 C36 1_555 1_555
C38 C37 1_555 1_555
C39 C34 1_555 1_555
C40 P2 1_555 1_555
C41 C40 1_555 1_555
C42 C41 1_555 1_555
C43 C42 1_555 1_555
C44 C43 1_555 1_555
C45 C40 1_555 1_555
O1 Ag1 1_555 1_555
O2 C46 1_555 1_555
F1 C47 1_555 1_555
C46 O1 1_555 1_555
C47 C46 1_555 1_555
F2 C47 1_555 1_555
F3 C47 1_555 1_555
H1 C1 1_555 1_555
H2 C1 1_555 1_555
H3 C2 1_555 1_555
H4 C2 1_555 1_555
H5 C3 1_555 1_555
H6 C3 1_555 1_555
H7 C4 1_555 1_555
H8 C4 1_555 1_555
H9 C5 1_555 1_555
H10 C5 1_555 1_555
H12 C6 1_555 1_555
H13 C7 1_555 1_555
H14 C7 1_555 1_555
H15 C8 1_555 1_555
H16 C8 1_555 1_555
H17 C9 1_555 1_555
H18 C9 1_555 1_555
H19 C11 1_555 1_555
H20 C12 1_555 1_555
H21 C13 1_555 1_555
H22 C14 1_555 1_555
H23 C15 1_555 1_555
H24 C17 1_555 1_555
H25 C18 1_555 1_555
H26 C19 1_555 1_555
H27 C20 1_555 1_555
H28 C21 1_555 1_555
H29 C23 1_555 1_555
H30 C24 1_555 1_555
H31 C25 1_555 1_555
H32 C26 1_555 1_555
H33 C27 1_555 1_555
H34 C29 1_555 1_555
H35 C30 1_555 1_555
H36 C31 1_555 1_555
H37 C32 1_555 1_555
H38 C33 1_555 1_555
H39 C35 1_555 1_555
H40 C36 1_555 1_555
H41 C37 1_555 1_555
H42 C38 1_555 1_555
H43 C39 1_555 1_555
H44 C41 1_555 1_555
H45 C42 1_555 1_555
H46 C43 1_555 1_555
H47 C44 1_555 1_555
H48 C45 1_555 1_555
C7B C7 1_555 1_555
C5B C7B 1_555 1_555
C6B C5B 1_555 1_555
P1B C6B 1_555 1_555
C22B P1B 1_555 1_555
C23B C22B 1_555 1_555
C24B C23B 1_555 1_555
C25B C24B 1_555 1_555
C26B C25B 1_555 1_555
C27B C22B 1_555 1_555
H33B C27B 1_555 1_555
H32B C26B 1_555 1_555
H31B C25B 1_555 1_555
H30B C24B 1_555 1_555
H29B C23B 1_555 1_555
C28B P1B 1_555 1_555
C29B C28B 1_555 1_555
C30B C29B 1_555 1_555
C31B C30B 1_555 1_555
C32B C31B 1_555 1_555
C33B C28B 1_555 1_555
H38B C33B 1_555 1_555
H37B C32B 1_555 1_555
H36B C31B 1_555 1_555
H35B C30B 1_555 1_555
H34B C29B 1_555 1_555
H11B C6B 1_555 1_555
H12B C6B 1_555 1_555
H9B C5B 1_555 1_555
H10B C5B 1_555 1_555
H13B C7B 1_555 1_555
H14B C7B 1_555 1_555
P2C C9C 1_555 1_555
P3C Ag1 1_555 1_555
C1C P3C 1_555 1_555
C2C C1C 1_555 1_555
C3C C2C 1_555 1_555
C4C C3C 1_555 1_555
C8C C4C 1_555 1_555
C9C C8C 1_555 1_555
C10C P3C 1_555 1_555
C11C C10C 1_555 1_555
C12C C11C 1_555 1_555
C13C C12C 1_555 1_555
C14C C13C 1_555 1_555
C15C C10C 1_555 1_555
C16C P3C 1_555 1_555
C17C C16C 1_555 1_555
C18C C17C 1_555 1_555
C19C C18C 1_555 1_555
C20C C19C 1_555 1_555
C21C C16C 1_555 1_555
C34C P2C 1_555 1_555
C35C C34C 1_555 1_555
C36C C35C 1_555 1_555
C37C C36C 1_555 1_555
C38C C37C 1_555 1_555
C39C C34C 1_555 1_555
C40C P2C 1_555 1_555
C41C C40C 1_555 1_555
C42C C41C 1_555 1_555
C43C C42C 1_555 1_555
C44C C43C 1_555 1_555
C45C C40C 1_555 1_555
H1C C1C 1_555 1_555
H2C C1C 1_555 1_555
H3C C2C 1_555 1_555
H4C C2C 1_555 1_555
H5C C3C 1_555 1_555
H6C C3C 1_555 1_555
H7C C4C 1_555 1_555
H8C C4C 1_555 1_555
H15C C8C 1_555 1_555
H16C C8C 1_555 1_555
H17C C9C 1_555 1_555
H18C C9C 1_555 1_555
H19C C11C 1_555 1_555
H20C C12C 1_555 1_555
H21C C13C 1_555 1_555
H22C C14C 1_555 1_555
H23C C15C 1_555 1_555
H24C C17C 1_555 1_555
H25C C18C 1_555 1_555
H26C C19C 1_555 1_555
H27C C20C 1_555 1_555
H28C C21C 1_555 1_555
H39C C35C 1_555 1_555
H40C C36C 1_555 1_555
H41C C37C 1_555 1_555
H42C C38C 1_555 1_555
H43C C39C 1_555 1_555
H44C C41C 1_555 1_555
H45C C42C 1_555 1_555
H46C C43C 1_555 1_555
H47C C44C 1_555 1_555
H48C C45C 1_555 1_555
Ag1B P1B 1_555 1_555
O1B Ag1B 1_555 1_555
O2B C46B 1_555 1_555
F1B C47B 1_555 1_555
C46B O1B 1_555 1_555
C47B C46B 1_555 1_555
F2B C47B 1_555 1_555
F3B C47B 1_555 1_555
Ag1C P3 1_555 1_555
Ag1C_2 P2C 1_555 1_555
P2B Ag1B 1_555 1_555
P3A Ag1B 1_555 1_555
C14 C15 1_555 1_555
C20 C21 1_555 1_555
C26 C27 1_555 1_555
C32 C33 1_555 1_555
C38 C39 1_555 1_555
C44 C45 1_555 1_555
C26B C27B 1_555 1_555
C32B C33B 1_555 1_555
C14C C15C 1_555 1_555
C20C C21C 1_555 1_555
C38C C39C 1_555 1_555
C44C C45C 1_555 1_555

#END
