
#######################################################################
#
#                 Cambridge Crystallographic Data Centre
#                                CCDC 
#
#######################################################################
#
# If this CIF has been generated from an entry in the Cambridge 
# Structural Database, then it will include bibliographic, chemical, 
# crystal, experimental, refinement or atomic coordinate data resulting 
# from the CCDC's data processing and validation procedures.
#
#######################################################################

data_MOXGOW
_symmetry_cell_setting           triclinic
_symmetry_space_group_name_H-M   'P -1'
_symmetry_Int_Tables_number      2
_space_group_name_Hall           '-P 1'
loop_
_symmetry_equiv_pos_site_id
_symmetry_equiv_pos_as_xyz
1 x,y,z
2 -x,-y,-z
_cell_length_a                   8.8415(1)
_cell_length_b                   10.0385(1)
_cell_length_c                   10.2123(1)
_cell_angle_alpha                77.676(1)
_cell_angle_beta                 67.268(1)
_cell_angle_gamma                64.660(1)
_cell_volume                     754.298
loop_
_atom_site_label
_atom_site_type_symbol
_atom_site_fract_x
_atom_site_fract_y
_atom_site_fract_z
Zn1 Zn 0.02817(2) 0.806547(18) 0.135763(17)
S1 S -0.10167(4) 0.92043(4) -0.12041(4)
O1 O -0.06982(14) 0.80300(12) -0.00500(11)
O2 O -0.25055(14) 0.92039(12) -0.15231(11)
O3 O -0.16057(13) 1.06570(11) -0.06081(11)
O4 O 0.05659(14) 0.89708(13) -0.24356(12)
N1 N 0.22492(16) 0.61673(14) 0.15946(13)
C1 C 0.21782(19) 0.48476(16) 0.21334(15)
C2 C 0.47610(19) 0.47648(16) 0.20508(15)
N2 N 0.38315(16) 0.60901(15) 0.15593(14)
C3 C 0.37340(18) 0.39181(16) 0.24486(15)
C4 C 0.42093(19) 0.23370(16) 0.30483(15)
C5 C 0.35123(19) 0.21445(16) 0.46524(15)
C6 C 0.6564(2) 0.4433(2) 0.2074(2)
C7 C 0.0582(2) 0.45645(19) 0.2301(2)
H1 H 0.382(2) 0.183(2) 0.2691(19)
H2 H 0.547(3) 0.184(2) 0.275(2)
H3 H 0.081(3) 0.353(3) 0.225(3)
H4 H 0.417(3) 0.675(2) 0.122(2)
H7 H 0.000(3) 0.517(3) 0.158(2)
H8 H 0.722(3) 0.338(3) 0.210(2)
H9 H 0.715(3) 0.488(3) 0.130(3)
H10 H 0.651(3) 0.480(3) 0.287(3)
H11 H -0.030(3) 0.486(3) 0.317(3)
N3 N 0.17912(16) 0.18060(14) 0.68914(13)
N4 N 0.32676(16) 0.18981(15) 0.69105(13)
C8 C 0.19286(19) 0.19547(16) 0.55147(15)
C9 C 0.43350(19) 0.20833(17) 0.55923(15)
C10 C 0.0493(2) 0.1889(2) 0.51323(18)
C11 C 0.6076(2) 0.2153(2) 0.53588(19)
H12 H 0.346(3) 0.190(2) 0.766(2)
H13 H -0.055(3) 0.285(3) 0.530(2)
H14 H 0.686(3) 0.186(2) 0.444(3)
H15 H 0.010(3) 0.113(3) 0.569(3)
H16 H 0.098(3) 0.168(3) 0.414(2)
H17 H 0.595(3) 0.314(3) 0.536(3)
H18 H 0.662(4) 0.151(3) 0.610(3)
Zn1A Zn -0.02817(2) 1.193453(18) -0.135763(17)
Zn1A_2 Zn -0.02817(2) 0.193453(18) 0.864237(17)
O3A O 0.16057(13) 0.93430(11) 0.06081(11)
N3A N -0.17912(16) 0.81940(14) 0.31086(13)
O5 O 0.53919(16) 0.81816(13) 0.09490(13)
H5 H 0.450(3) 0.897(3) 0.111(2)
H6 H 0.602(3) 0.829(3) 0.023(3)
loop_
_geom_bond_atom_site_label_1
_geom_bond_atom_site_label_2
_geom_bond_site_symmetry_1
_geom_bond_site_symmetry_2
Zn1 O1 1_555 1_555
S1 O1 1_555 1_555
O2 S1 1_555 1_555
O3 S1 1_555 1_555
O4 S1 1_555 1_555
N1 Zn1 1_555 1_555
C1 N1 1_555 1_555
C2 N2 1_555 1_555
N2 N1 1_555 1_555
C3 C1 1_555 1_555
C4 C3 1_555 1_555
C5 C4 1_555 1_555
C6 C2 1_555 1_555
C7 C1 1_555 1_555
O5 H5 1_555 1_555
H1 C4 1_555 1_555
H2 C4 1_555 1_555
H3 C7 1_555 1_555
H4 N2 1_555 1_555
H6 O5 1_555 1_555
H7 C7 1_555 1_555
H8 C6 1_555 1_555
H9 C6 1_555 1_555
H10 C6 1_555 1_555
H11 C7 1_555 1_555
N3 N4 1_555 1_555
N4 C9 1_555 1_555
C8 C5 1_555 1_555
C9 C5 1_555 1_555
C10 C8 1_555 1_555
C11 C9 1_555 1_555
H12 N4 1_555 1_555
H13 C10 1_555 1_555
H14 C11 1_555 1_555
H15 C10 1_555 1_555
H16 C10 1_555 1_555
H17 C11 1_555 1_555
H18 C11 1_555 1_555
Zn1A O3 1_555 1_555
Zn1A_2 N3 1_555 1_555
O3A Zn1 1_555 1_555
N3A Zn1 1_555 1_555
C2 C3 1_555 1_555
N3 C8 1_555 1_555

#END
