
#######################################################################
#
#                 Cambridge Crystallographic Data Centre
#                                CCDC 
#
#######################################################################
#
# If this CIF has been generated from an entry in the Cambridge 
# Structural Database, then it will include bibliographic, chemical, 
# crystal, experimental, refinement or atomic coordinate data resulting 
# from the CCDC's data processing and validation procedures.
#
#######################################################################

data_MOXGAH
_symmetry_cell_setting           triclinic
_symmetry_space_group_name_H-M   'P -1'
_symmetry_Int_Tables_number      2
_space_group_name_Hall           '-P 1'
loop_
_symmetry_equiv_pos_site_id
_symmetry_equiv_pos_as_xyz
1 x,y,z
2 -x,-y,-z
_cell_length_a                   10.5392(7)
_cell_length_b                   11.7291(7)
_cell_length_c                   12.1754(10)
_cell_angle_alpha                110.701(3)
_cell_angle_beta                 98.828(3)
_cell_angle_gamma                96.685(4)
_cell_volume                     1367.3
loop_
_atom_site_label
_atom_site_type_symbol
_atom_site_fract_x
_atom_site_fract_y
_atom_site_fract_z
N1 N 0.9181(3) 0.5984(3) 0.3491(3)
Ag1 Ag 0.8295(1) 0.5165(1) 0.5463(1)
O1 O 0.9556(3) 0.5362(3) 0.4111(3)
O2 O 0.9825(3) 0.6113(4) 0.2758(3)
O3 O 0.8203(4) 0.6433(4) 0.3655(4)
P1 P 0.6575(1) 0.3354(1) 0.5002(1)
P2 P 0.2286(1) 0.3060(1) 0.3022(1)
C1 C 0.5040(4) 0.3243(4) 0.4122(4)
C2 C 0.3960(4) 0.3182(3) 0.3594(4)
C4 C 0.1709(4) 0.1427(4) 0.2735(4)
C5 C 0.2169(4) 0.0910(4) 0.3534(4)
C6 C 0.1744(4) -0.0319(4) 0.3315(4)
C7 C 0.0826(4) -0.1045(4) 0.2294(4)
C8 C 0.0314(5) -0.0537(4) 0.1502(4)
C9 C 0.0753(4) 0.0701(4) 0.1715(4)
C10 C 0.2253(4) 0.3109(4) 0.1550(4)
C11 C 0.3052(4) 0.2505(4) 0.0806(4)
C12 C 0.3006(4) 0.2542(4) -0.0321(4)
C13 C 0.2129(4) 0.3183(4) -0.0723(4)
C14 C 0.1331(5) 0.3776(4) 0.0002(4)
C15 C 0.1380(4) 0.3750(4) 0.1142(4)
C16 C 0.6135(4) 0.3451(3) 0.6417(4)
C17 C 0.5043(4) 0.3883(4) 0.6774(4)
C18 C 0.4834(4) 0.4035(4) 0.7911(5)
C19 C 0.5718(5) 0.3755(4) 0.8696(4)
C20 C 0.6810(5) 0.3317(4) 0.8352(4)
C21 C 0.7032(4) 0.3177(4) 0.7226(4)
C22 C 0.6918(4) 0.1794(4) 0.4363(4)
C23 C 0.5973(4) 0.0740(4) 0.4029(4)
C24 C 0.6298(5) -0.0430(4) 0.3621(5)
C25 C 0.7577(6) -0.0538(5) 0.3533(5)
C26 C 0.8513(6) 0.0500(5) 0.3856(5)
C27 C 0.8206(5) 0.1682(4) 0.4273(5)
H3 H 0.2790 0.1410 0.4248
H4 H 0.2084 -0.0668 0.3868
H5 H 0.0545 -0.1898 0.2135
H6 H -0.0339 -0.1032 0.0812
H7 H 0.0405 0.1052 0.1168
H8 H 0.3640 0.2060 0.1080
H9 H 0.3563 0.2136 -0.0814
H10 H 0.2082 0.3213 -0.1498
H11 H 0.0737 0.4210 -0.0281
H12 H 0.0827 0.4164 0.1635
H13 H 0.4431 0.4076 0.6238
H14 H 0.4080 0.4333 0.8150
H15 H 0.5572 0.3865 0.9474
H16 H 0.7410 0.3112 0.8888
H17 H 0.7796 0.2893 0.6996
H18 H 0.5095 0.0818 0.4080
H19 H 0.5650 -0.1150 0.3405
H20 H 0.7805 -0.1335 0.3248
H21 H 0.9387 0.0413 0.3794
H22 H 0.8861 0.2397 0.4492
O1A O 1.0444(3) 0.4638(3) 0.5889(3)
P2A P 0.7714(1) 0.6940(1) 0.6978(1)
Ag1A Ag 1.1705(1) 0.4835(1) 0.4537(1)
Ag1A_2 Ag 0.1705(1) 0.4835(1) 0.4537(1)
C3 C 0.7058(12) 0.1253(9) 0.0970(12)
Cl1 Cl 0.6274(3) 0.0832(2) -0.0457(3)
Cl2 Cl 0.7623(6) 0.2846(4) 0.1747(4)
H1 H 0.7814 0.0826 0.0980
H2 H 0.6462 0.0960 0.1408
loop_
_geom_bond_atom_site_label_1
_geom_bond_atom_site_label_2
_geom_bond_site_symmetry_1
_geom_bond_site_symmetry_2
N1 O1 1_555 1_555
Ag1 O1 1_555 1_555
O1 Ag1A 1_555 1_555
O2 N1 1_555 1_555
O3 N1 1_555 1_555
P1 Ag1 1_555 1_555
P2 C2 1_555 1_555
C1 P1 1_555 1_555
C2 C1 1_555 1_555
C3 Cl1 1_555 1_555
C4 P2 1_555 1_555
C5 C4 1_555 1_555
C6 C5 1_555 1_555
C7 C6 1_555 1_555
C8 C7 1_555 1_555
C9 C4 1_555 1_555
C10 P2 1_555 1_555
C11 C10 1_555 1_555
C12 C11 1_555 1_555
C13 C12 1_555 1_555
C14 C13 1_555 1_555
C15 C10 1_555 1_555
C16 P1 1_555 1_555
C17 C16 1_555 1_555
C18 C17 1_555 1_555
C19 C18 1_555 1_555
C20 C19 1_555 1_555
C21 C16 1_555 1_555
C22 P1 1_555 1_555
C23 C22 1_555 1_555
C24 C23 1_555 1_555
C25 C24 1_555 1_555
C26 C25 1_555 1_555
C27 C22 1_555 1_555
Cl2 C3 1_555 1_555
H1 C3 1_555 1_555
H2 C3 1_555 1_555
H3 C5 1_555 1_555
H4 C6 1_555 1_555
H5 C7 1_555 1_555
H6 C8 1_555 1_555
H7 C9 1_555 1_555
H8 C11 1_555 1_555
H9 C12 1_555 1_555
H10 C13 1_555 1_555
H11 C14 1_555 1_555
H12 C15 1_555 1_555
H13 C17 1_555 1_555
H14 C18 1_555 1_555
H15 C19 1_555 1_555
H16 C20 1_555 1_555
H17 C21 1_555 1_555
H18 C23 1_555 1_555
H19 C24 1_555 1_555
H20 C25 1_555 1_555
H21 C26 1_555 1_555
H22 C27 1_555 1_555
O1A Ag1 1_555 1_555
P2A Ag1 1_555 1_555
Ag1A O1A 1_555 1_555
Ag1A_2 P2 1_555 1_555
C8 C9 1_555 1_555
C14 C15 1_555 1_555
C20 C21 1_555 1_555
C26 C27 1_555 1_555

#END
