
#######################################################################
#
#                 Cambridge Crystallographic Data Centre
#                                CCDC 
#
#######################################################################
#
# If this CIF has been generated from an entry in the Cambridge 
# Structural Database, then it will include bibliographic, chemical, 
# crystal, experimental, refinement or atomic coordinate data resulting 
# from the CCDC's data processing and validation procedures.
#
#######################################################################

data_MOXJEP04
_symmetry_cell_setting           tetragonal
_symmetry_space_group_name_H-M   'I 41 c d'
_symmetry_Int_Tables_number      110
_space_group_name_Hall           'I 4bw -2c'
loop_
_symmetry_equiv_pos_site_id
_symmetry_equiv_pos_as_xyz
1 x,y,z
2 1/2+x,1/2+y,1/2+z
3 -y,1/2+x,1/4+z
4 1/2-y,x,3/4+z
5 1/2-x,1/2-y,1/2+z
6 -x,-y,z
7 1/2+y,-x,3/4+z
8 y,1/2-x,1/4+z
9 -x,y,1/2+z
10 1/2-x,1/2+y,z
11 y,1/2+x,3/4+z
12 1/2+y,x,1/4+z
13 1/2+x,1/2-y,z
14 x,-y,1/2+z
15 1/2-y,-x,1/4+z
16 -y,1/2-x,3/4+z
_cell_length_a                   21.8235(12)
_cell_length_b                   21.8235(12)
_cell_length_c                   11.3122(6)
_cell_angle_alpha                90
_cell_angle_beta                 90
_cell_angle_gamma                90
_cell_volume                     5387.61
loop_
_atom_site_label
_atom_site_type_symbol
_atom_site_fract_x
_atom_site_fract_y
_atom_site_fract_z
Li1 Li 0.3932(3) 0.3547(3) 0.5792(5)
B1 B 0.39955(18) 0.14575(18) 0.2998(3)
N1 N 0.37026(15) 0.28012(16) 0.4920(3)
N2 N 0.37825(13) 0.19400(13) 0.3892(2)
N3 N 0.46782(13) 0.15411(13) 0.2698(2)
N4 N 0.56705(15) 0.13461(18) 0.2528(3)
N5 N 0.36348(14) 0.15070(14) 0.1844(2)
N6 N 0.34023(17) 0.14304(16) -0.0070(3)
N7 N 0.38934(13) 0.08261(13) 0.3556(2)
N8 N 0.36929(17) -0.01697(14) 0.3714(3)
C1 C 0.40259(17) 0.24907(17) 0.4140(3)
C2 C 0.32166(19) 0.24278(18) 0.5180(3)
C3 C 0.32556(17) 0.19091(18) 0.4564(3)
C4 C 0.51433(17) 0.11666(18) 0.2964(3)
C5 C 0.55356(18) 0.1872(2) 0.1927(3)
C6 C 0.49355(19) 0.20052(19) 0.2024(3)
C7 C 0.38349(18) 0.14355(17) 0.0727(3)
C8 C 0.2880(2) 0.15017(19) 0.0575(3)
C9 C 0.30085(18) 0.1553(2) 0.1727(4)
C10 C 0.36791(19) 0.03164(18) 0.3028(3)
C11 C 0.3931(2) 0.0040(2) 0.4750(4)
C12 C 0.4053(2) 0.06451(18) 0.4680(3)
H1 H 0.4387 0.2635 0.3804
H2 H 0.2906 0.2523 0.5712
H3 H 0.2979 0.1585 0.4582
H4 H 0.5097 0.0812 0.3410
H5 H 0.5820 0.2105 0.1511
H6 H 0.4734 0.2340 0.1697
H7 H 0.4247 0.1393 0.0535
H8 H 0.2487 0.1512 0.0259
H9 H 0.2728 0.1609 0.2336
H10 H 0.3534 0.0311 0.2255
H11 H 0.3998 -0.0201 0.5416
H12 H 0.4218 0.0892 0.5269
Li1G Li 0.3547(3) 0.1068(3) -0.1708(5)
Li1J Li 0.3547(3) -0.1068(3) 0.3292(5)
Li1O Li 0.6453(3) 0.1068(3) 0.3292(5)
N4N N 0.36539(18) 0.43295(15) 0.5028(3)
N6C N 0.35696(16) 0.34023(17) 0.7430(3)
N8K N 0.48303(14) 0.36929(17) 0.6214(3)
loop_
_geom_bond_atom_site_label_1
_geom_bond_atom_site_label_2
_geom_bond_site_symmetry_1
_geom_bond_site_symmetry_2
Li1 N1 1_555 1_555
B1 N2 1_555 1_555
N1 C1 1_555 1_555
N2 C1 1_555 1_555
N3 B1 1_555 1_555
N4 C4 1_555 1_555
N5 B1 1_555 1_555
N6 C7 1_555 1_555
N7 B1 1_555 1_555
N8 C10 1_555 1_555
C1 H1 1_555 1_555
C2 N1 1_555 1_555
C3 N2 1_555 1_555
C4 N3 1_555 1_555
C5 N4 1_555 1_555
C6 N3 1_555 1_555
C7 N5 1_555 1_555
C8 N6 1_555 1_555
C9 N5 1_555 1_555
C10 N7 1_555 1_555
C11 N8 1_555 1_555
C12 N7 1_555 1_555
H2 C2 1_555 1_555
H3 C3 1_555 1_555
H4 C4 1_555 1_555
H5 C5 1_555 1_555
H6 C6 1_555 1_555
H7 C7 1_555 1_555
H8 C8 1_555 1_555
H9 C9 1_555 1_555
H10 C10 1_555 1_555
H11 C11 1_555 1_555
H12 C12 1_555 1_555
Li1G N6 1_555 1_555
Li1J N8 1_555 1_555
Li1O N4 1_555 1_555
N4N Li1 1_555 1_555
N6C Li1 1_555 1_555
N8K Li1 1_555 1_555
C2 C3 1_555 1_555
C5 C6 1_555 1_555
C8 C9 1_555 1_555
C11 C12 1_555 1_555

#END
