
#######################################################################
#
#                 Cambridge Crystallographic Data Centre
#                                CCDC 
#
#######################################################################
#
# If this CIF has been generated from an entry in the Cambridge 
# Structural Database, then it will include bibliographic, chemical, 
# crystal, experimental, refinement or atomic coordinate data resulting 
# from the CCDC's data processing and validation procedures.
#
#######################################################################

data_MOXJEP06
_symmetry_cell_setting           tetragonal
_symmetry_space_group_name_H-M   'I 41 c d'
_symmetry_Int_Tables_number      110
_space_group_name_Hall           'I 4bw -2c'
loop_
_symmetry_equiv_pos_site_id
_symmetry_equiv_pos_as_xyz
1 x,y,z
2 1/2+x,1/2+y,1/2+z
3 -y,1/2+x,1/4+z
4 1/2-y,x,3/4+z
5 1/2-x,1/2-y,1/2+z
6 -x,-y,z
7 1/2+y,-x,3/4+z
8 y,1/2-x,1/4+z
9 -x,y,1/2+z
10 1/2-x,1/2+y,z
11 y,1/2+x,3/4+z
12 1/2+y,x,1/4+z
13 1/2+x,1/2-y,z
14 x,-y,1/2+z
15 1/2-y,-x,1/4+z
16 -y,1/2-x,3/4+z
_cell_length_a                   22.4721(6)
_cell_length_b                   22.4721(6)
_cell_length_c                   11.5072(4)
_cell_angle_alpha                90
_cell_angle_beta                 90
_cell_angle_gamma                90
_cell_volume                     5811.08
loop_
_atom_site_label
_atom_site_type_symbol
_atom_site_fract_x
_atom_site_fract_y
_atom_site_fract_z
Li1 Li 0.4014(2) 0.3556(2) 0.5811(4)
B1 B 0.40206(14) 0.14889(14) 0.2989(3)
N1 N 0.37947(12) 0.28134(11) 0.4889(2)
N2 N 0.38258(10) 0.19781(10) 0.3848(2)
N3 N 0.46910(10) 0.15391(10) 0.2717(2)
N4 N 0.56530(11) 0.13085(12) 0.2634(3)
N5 N 0.36786(10) 0.15354(10) 0.1831(2)
N6 N 0.34538(12) 0.13665(12) -0.0031(2)
N7 N 0.38886(10) 0.08842(10) 0.3547(2)
N8 N 0.36906(12) -0.00886(11) 0.3684(3)
C1 C 0.40979(14) 0.24899(12) 0.4133(3)
C2 C 0.32955(14) 0.24835(14) 0.5111(3)
C3 C 0.33083(13) 0.19805(14) 0.4487(3)
C4 C 0.51281(12) 0.11611(13) 0.3036(3)
C5 C 0.55540(14) 0.18133(15) 0.2017(3)
C6 C 0.49745(15) 0.19629(12) 0.2050(3)
C7 C 0.38702(14) 0.13883(13) 0.0758(3)
C8 C 0.29496(15) 0.15073(15) 0.0568(3)
C9 C 0.30753(14) 0.16089(15) 0.1694(3)
C10 C 0.36968(14) 0.03810(13) 0.3010(3)
C11 C 0.38956(18) 0.01212(15) 0.4730(3)
C12 C 0.40144(17) 0.07083(15) 0.4659(3)
H1 H 0.4463 0.2606 0.3828
H2 H 0.2993 0.2592 0.5620
H3 H 0.3018 0.1685 0.4485
H4 H 0.5063 0.0828 0.3497
H5 H 0.5846 0.2027 0.1625
H6 H 0.4799 0.2290 0.1692
H7 H 0.4267 0.1308 0.0593
H8 H 0.2571 0.1530 0.0244
H9 H 0.2804 0.1710 0.2272
H10 H 0.3581 0.0371 0.2235
H11 H 0.3946 -0.0109 0.5394
H12 H 0.4156 0.0949 0.5256
Li1G Li 0.3556(2) 0.0986(2) -0.1689(4)
Li1J Li 0.3556(2) -0.0986(2) 0.3311(4)
Li1O Li 0.6444(2) 0.0986(2) 0.3311(4)
N4N N 0.36915(12) 0.43470(11) 0.5134(3)
N6C N 0.36335(12) 0.34538(12) 0.7469(2)
N8K N 0.49114(11) 0.36906(12) 0.6184(3)
loop_
_geom_bond_atom_site_label_1
_geom_bond_atom_site_label_2
_geom_bond_site_symmetry_1
_geom_bond_site_symmetry_2
Li1 N1 1_555 1_555
B1 N2 1_555 1_555
N1 C1 1_555 1_555
N2 C1 1_555 1_555
N3 B1 1_555 1_555
N4 C4 1_555 1_555
N5 B1 1_555 1_555
N6 C7 1_555 1_555
N7 B1 1_555 1_555
N8 C10 1_555 1_555
C1 H1 1_555 1_555
C2 N1 1_555 1_555
C3 N2 1_555 1_555
C4 N3 1_555 1_555
C5 N4 1_555 1_555
C6 N3 1_555 1_555
C7 N5 1_555 1_555
C8 N6 1_555 1_555
C9 N5 1_555 1_555
C10 N7 1_555 1_555
C11 N8 1_555 1_555
C12 N7 1_555 1_555
H2 C2 1_555 1_555
H3 C3 1_555 1_555
H4 C4 1_555 1_555
H5 C5 1_555 1_555
H6 C6 1_555 1_555
H7 C7 1_555 1_555
H8 C8 1_555 1_555
H9 C9 1_555 1_555
H10 C10 1_555 1_555
H11 C11 1_555 1_555
H12 C12 1_555 1_555
Li1G N6 1_555 1_555
Li1J N8 1_555 1_555
Li1O N4 1_555 1_555
N4N Li1 1_555 1_555
N6C Li1 1_555 1_555
N8K Li1 1_555 1_555
C2 C3 1_555 1_555
C5 C6 1_555 1_555
C8 C9 1_555 1_555
C11 C12 1_555 1_555

#END
