
#######################################################################
#
#                 Cambridge Crystallographic Data Centre
#                                CCDC 
#
#######################################################################
#
# If this CIF has been generated from an entry in the Cambridge 
# Structural Database, then it will include bibliographic, chemical, 
# crystal, experimental, refinement or atomic coordinate data resulting 
# from the CCDC's data processing and validation procedures.
#
#######################################################################

data_MOXJIT
_symmetry_cell_setting           tetragonal
_symmetry_space_group_name_H-M   'I 41 c d'
_symmetry_Int_Tables_number      110
_space_group_name_Hall           'I 4bw -2c'
loop_
_symmetry_equiv_pos_site_id
_symmetry_equiv_pos_as_xyz
1 x,y,z
2 1/2-x,1/2-y,1/2+z
3 -y,1/2+x,1/4+z
4 1/2+y,-x,3/4+z
5 x,-y,1/2+z
6 1/2-x,1/2+y,z
7 -y,1/2-x,3/4+z
8 1/2+y,x,1/4+z
9 1/2+x,1/2+y,1/2+z
10 -x,-y,z
11 1/2-y,x,3/4+z
12 y,1/2-x,1/4+z
13 1/2+x,1/2-y,z
14 -x,y,1/2+z
15 1/2-y,-x,1/4+z
16 y,1/2+x,3/4+z
_cell_length_a                   22.3798(2)
_cell_length_b                   22.3798(2)
_cell_length_c                   11.4888(2)
_cell_angle_alpha                90
_cell_angle_beta                 90
_cell_angle_gamma                90
_cell_volume                     5754.23
loop_
_atom_site_label
_atom_site_type_symbol
_atom_site_fract_x
_atom_site_fract_y
_atom_site_fract_z
Cu1 Cu 0.600600(15) 0.354482(14) 0.96230(3)
B1 B 0.64786(14) 0.40062(14) 1.4347(3)
C1 C 0.69698(12) 0.49549(13) 1.3389(2)
H1 H 0.7292 0.4770 1.3026
C2 C 0.74542(13) 0.32634(13) 1.6505(2)
H2 H 0.7558 0.2959 1.7019
C3 C 0.69426(13) 0.32844(13) 1.5877(2)
H3 H 0.6637 0.3003 1.5884
C4 C 0.50844(13) 0.39012(14) 1.6082(2)
H4 H 0.4850 0.3954 1.6742
C5 C 0.68349(13) 0.55407(13) 1.3351(2)
H5 H 0.7050 0.5827 1.2942
C6 C 0.74825(12) 0.40702(13) 1.5496(2)
H6 H 0.7608 0.4431 1.5179
C7 C 0.56825(13) 0.40141(13) 1.6018(2)
H7 H 0.5925 0.4154 1.6616
C8 C 0.61695(12) 0.51275(11) 1.4413(2)
H8 H 0.5837 0.5069 1.4884
C9 C 0.63914(11) 0.38613(12) 1.2105(3)
H9 H 0.6317 0.4261 1.1937
C10 C 0.53582(12) 0.36919(12) 1.4350(2)
H10 H 0.5352 0.3570 1.3577
C11 C 0.65964(13) 0.30523(13) 1.3056(3)
H11 H 0.6690 0.2780 1.3641
C12 C 0.65042(12) 0.29233(12) 1.1923(3)
H12 H 0.6525 0.2543 1.1600
N1 N 0.63746(11) 0.34387(11) 1.1314(2)
N2 N 0.65275(11) 0.36613(10) 1.3191(2)
N3 N 0.48774(11) 0.36962(11) 1.50185(19)
N4 N 0.77981(10) 0.37608(10) 1.62694(19)
N5 N 0.65387(10) 0.46778(10) 1.40733(19)
N6 N 0.58591(10) 0.38809(10) 1.48948(19)
N7 N 0.63310(11) 0.56557(10) 1.4007(2)
N8 N 0.69599(10) 0.38042(10) 1.52215(19)
Cu1M Cu 0.399400(15) 0.354482(14) 1.46230(3)
Cu1C Cu 0.854482(14) 0.399400(15) 1.71230(3)
Cu1D Cu 0.600600(15) 0.645518(14) 1.46230(3)
N3M N 0.51226(11) 0.36962(11) 1.00185(19)
N4B N 0.62392(10) 0.27981(10) 0.87694(19)
N7D N 0.63310(11) 0.43443(10) 0.9007(2)
loop_
_geom_bond_atom_site_label_1
_geom_bond_atom_site_label_2
_geom_bond_site_symmetry_1
_geom_bond_site_symmetry_2
Cu1 N1 1_555 1_555
B1 N2 1_555 1_555
C1 H1 1_555 1_555
C2 H2 1_555 1_555
C3 C2 1_555 1_555
H3 C3 1_555 1_555
C4 H4 1_555 1_555
C5 C1 1_555 1_555
H5 C5 1_555 1_555
C6 H6 1_555 1_555
C7 C4 1_555 1_555
H7 C7 1_555 1_555
C8 H8 1_555 1_555
C9 H9 1_555 1_555
C10 H10 1_555 1_555
C11 H11 1_555 1_555
C12 C11 1_555 1_555
H12 C12 1_555 1_555
N1 C9 1_555 1_555
N2 C9 1_555 1_555
N3 C4 1_555 1_555
N4 C2 1_555 1_555
N5 B1 1_555 1_555
N6 B1 1_555 1_555
N7 C5 1_555 1_555
N8 B1 1_555 1_555
Cu1M N3 1_555 1_555
Cu1C N4 1_555 1_555
Cu1D N7 1_555 1_555
N3M Cu1 1_555 1_555
N4B Cu1 1_555 1_555
N7D Cu1 1_555 1_555
C1 N5 1_555 1_555
C3 N8 1_555 1_555
C6 N4 1_555 1_555
C6 N8 1_555 1_555
C7 N6 1_555 1_555
C8 N5 1_555 1_555
C8 N7 1_555 1_555
C10 N3 1_555 1_555
C10 N6 1_555 1_555
C11 N2 1_555 1_555
C12 N1 1_555 1_555

#END
