
#######################################################################
#
#                 Cambridge Crystallographic Data Centre
#                                CCDC 
#
#######################################################################
#
# If this CIF has been generated from an entry in the Cambridge 
# Structural Database, then it will include bibliographic, chemical, 
# crystal, experimental, refinement or atomic coordinate data resulting 
# from the CCDC's data processing and validation procedures.
#
#######################################################################

data_MOXJEP01
_symmetry_cell_setting           tetragonal
_symmetry_space_group_name_H-M   'I 41 c d'
_symmetry_Int_Tables_number      110
_space_group_name_Hall           'I 4bw -2c'
loop_
_symmetry_equiv_pos_site_id
_symmetry_equiv_pos_as_xyz
1 x,y,z
2 1/2+x,1/2+y,1/2+z
3 -y,1/2+x,1/4+z
4 1/2-y,x,3/4+z
5 1/2-x,1/2-y,1/2+z
6 -x,-y,z
7 1/2+y,-x,3/4+z
8 y,1/2-x,1/4+z
9 -x,y,1/2+z
10 1/2-x,1/2+y,z
11 y,1/2+x,3/4+z
12 1/2+y,x,1/4+z
13 1/2+x,1/2-y,z
14 x,-y,1/2+z
15 1/2-y,-x,1/4+z
16 -y,1/2-x,3/4+z
_cell_length_a                   22.2099(9)
_cell_length_b                   22.2099(9)
_cell_length_c                   11.4191(5)
_cell_angle_alpha                90
_cell_angle_beta                 90
_cell_angle_gamma                90
_cell_volume                     5632.81
loop_
_atom_site_label
_atom_site_type_symbol
_atom_site_fract_x
_atom_site_fract_y
_atom_site_fract_z
Li1 Li 0.3996(5) 0.3546(5) 0.5806(7)
B1 B 0.3998(4) 0.1478(4) 0.3001(5)
N1 N 0.3761(3) 0.2816(3) 0.4907(4)
N2 N 0.3805(2) 0.1965(3) 0.3869(4)
N3 N 0.4684(3) 0.1539(3) 0.2715(4)
N4 N 0.5658(3) 0.1320(3) 0.2597(5)
N5 N 0.3660(3) 0.1522(3) 0.1844(4)
N6 N 0.3431(3) 0.1391(3) -0.0044(4)
N7 N 0.3884(2) 0.0865(2) 0.3553(4)
N8 N 0.3691(3) -0.0122(3) 0.3694(5)
C1 C 0.4063(3) 0.2494(3) 0.4143(5)
C2 C 0.3273(4) 0.2467(4) 0.5144(5)
C3 C 0.3287(3) 0.1943(4) 0.4524(5)
C4 C 0.5134(4) 0.1173(3) 0.3015(5)
C5 C 0.5542(4) 0.1837(4) 0.1976(5)
C6 C 0.4948(3) 0.1973(3) 0.2041(5)
C7 C 0.3856(3) 0.1413(3) 0.0743(5)
C8 C 0.2928(4) 0.1500(3) 0.0576(5)
C9 C 0.3044(3) 0.1585(3) 0.1721(6)
C10 C 0.3688(4) 0.0359(3) 0.3022(5)
C11 C 0.3909(4) 0.0087(4) 0.4731(5)
C12 C 0.4020(4) 0.0686(4) 0.4672(5)
H1 H 0.4426 0.2621 0.3819
H2 H 0.2968 0.2573 0.5663
H3 H 0.3004 0.1634 0.4542
H4 H 0.5077 0.0836 0.3487
H5 H 0.5829 0.2061 0.1571
H6 H 0.4756 0.2300 0.1693
H7 H 0.4260 0.1358 0.0561
H8 H 0.2544 0.1514 0.0252
H9 H 0.2766 0.1669 0.2309
H10 H 0.3563 0.0351 0.2246
H11 H 0.3975 -0.0150 0.5390
H12 H 0.4160 0.0930 0.5276
Li1G Li 0.3546(5) 0.1004(5) -0.1694(7)
Li1J Li 0.3546(5) -0.1004(5) 0.3306(7)
Li1O Li 0.6454(5) 0.1004(5) 0.3306(7)
N4N N 0.3680(3) 0.4342(3) 0.5097(5)
N6C N 0.3609(3) 0.3431(3) 0.7456(4)
N8K N 0.4878(3) 0.3691(3) 0.6194(5)
loop_
_geom_bond_atom_site_label_1
_geom_bond_atom_site_label_2
_geom_bond_site_symmetry_1
_geom_bond_site_symmetry_2
Li1 N1 1_555 1_555
B1 N2 1_555 1_555
N1 C1 1_555 1_555
N2 C1 1_555 1_555
N3 B1 1_555 1_555
N4 C4 1_555 1_555
N5 B1 1_555 1_555
N6 C7 1_555 1_555
N7 B1 1_555 1_555
N8 C10 1_555 1_555
C1 H1 1_555 1_555
C2 N1 1_555 1_555
C3 N2 1_555 1_555
C4 N3 1_555 1_555
C5 N4 1_555 1_555
C6 N3 1_555 1_555
C7 N5 1_555 1_555
C8 N6 1_555 1_555
C9 N5 1_555 1_555
C10 N7 1_555 1_555
C11 N8 1_555 1_555
C12 N7 1_555 1_555
H2 C2 1_555 1_555
H3 C3 1_555 1_555
H4 C4 1_555 1_555
H5 C5 1_555 1_555
H6 C6 1_555 1_555
H7 C7 1_555 1_555
H8 C8 1_555 1_555
H9 C9 1_555 1_555
H10 C10 1_555 1_555
H11 C11 1_555 1_555
H12 C12 1_555 1_555
Li1G N6 1_555 1_555
Li1J N8 1_555 1_555
Li1O N4 1_555 1_555
N4N Li1 1_555 1_555
N6C Li1 1_555 1_555
N8K Li1 1_555 1_555
C2 C3 1_555 1_555
C5 C6 1_555 1_555
C8 C9 1_555 1_555
C11 C12 1_555 1_555

#END
