
#######################################################################
#
#                 Cambridge Crystallographic Data Centre
#                                CCDC 
#
#######################################################################
#
# If this CIF has been generated from an entry in the Cambridge 
# Structural Database, then it will include bibliographic, chemical, 
# crystal, experimental, refinement or atomic coordinate data resulting 
# from the CCDC's data processing and validation procedures.
#
#######################################################################

data_MOXJUF
_symmetry_cell_setting           triclinic
_symmetry_space_group_name_H-M   'P -1'
_symmetry_Int_Tables_number      2
_space_group_name_Hall           '-P 1'
loop_
_symmetry_equiv_pos_site_id
_symmetry_equiv_pos_as_xyz
1 x,y,z
2 -x,-y,-z
_cell_length_a                   13.548(3)
_cell_length_b                   14.627(3)
_cell_length_c                   15.318(3)
_cell_angle_alpha                73.728(4)
_cell_angle_beta                 73.792(4)
_cell_angle_gamma                68.946(4)
_cell_volume                     2664.89
loop_
_atom_site_label
_atom_site_type_symbol
_atom_site_fract_x
_atom_site_fract_y
_atom_site_fract_z
N18 N -0.0422(11) 0.0389(10) 0.5197(11)
C59 C -0.1128(17) 0.1180(16) 0.5780(15)
Cu1 Cu 0.07004(6) 0.61241(5) 0.23888(5)
Cu2 Cu -0.53756(6) 0.94253(5) 0.27259(5)
B1 B 0.3884(5) 0.7785(5) 0.0129(5)
B2 B -0.2564(5) 0.7498(5) 0.5290(5)
N1 N -0.2652(4) 0.8147(3) 0.5964(3)
N2 N 0.1563(4) 0.6764(3) 0.1228(3)
N3 N -0.3620(3) 0.7881(3) 0.4917(3)
N4 N -0.4786(4) 0.8711(3) 0.3929(3)
N5 N -0.2377(4) 0.6384(3) 0.5785(3)
N6 N 0.3738(4) 0.8787(3) -0.0560(3)
N7 N -0.0420(5) 0.5621(4) 0.2134(4)
N8 N -0.1605(3) 0.7564(3) 0.4472(3)
N9 N -0.1672(4) 0.4941(3) 0.6751(3)
N10 N 0.2853(4) 0.7462(3) 0.0366(3)
N11 N 0.4224(4) 0.9958(3) -0.1773(3)
N12 N -0.0326(4) 0.7088(3) 0.3246(3)
N13 N -0.3418(4) 0.9341(3) 0.6837(3)
N14 N 0.4880(4) 0.6990(3) -0.0292(3)
N15 N 0.4386(4) 0.8478(3) 0.2122(3)
N16 N 0.4109(4) 0.7859(3) 0.1040(3)
N17 N 0.5864(4) 0.5656(4) -0.0959(4)
C1 C -0.2205(6) 0.5535(7) 0.1843(6)
C2 C -0.1546(6) 1.0114(5) 0.3159(5)
H1 H -0.1858 1.0794 0.3157
C3 C -0.4631(5) 0.7767(4) 0.5390(4)
C4 C 0.2878(5) 0.9677(4) -0.0538(4)
C5 C 0.4448(5) 0.7049(4) 0.1754(4)
C6 C -0.2435(5) 0.5596(4) 0.5463(4)
C7 C -0.2001(5) 0.4715(4) 0.6064(4)
C8 C 0.5963(5) 0.6911(4) -0.0413(4)
C9 C -0.1412(5) 0.8440(4) 0.3870(4)
C10 C -0.3559(4) 0.8860(4) 0.6286(4)
H2 H -0.4221 0.8997 0.6132
C11 C 0.4890(5) 0.6813(4) 0.3240(4)
H3 H 0.5008 0.7059 0.3687
C12 C -0.2338(5) 0.8909(4) 0.6894(4)
C13 C 0.0877(5) 0.6691(4) -0.0103(4)
H4 H 0.0371 0.6371 0.0255
C14 C -0.3797(5) 0.8446(4) 0.4064(4)
H5 H -0.3249 0.8632 0.3607
C15 C 0.1529(5) 0.6926(4) 0.0305(4)
C16 C 0.4602(5) 0.7442(4) 0.2423(4)
C17 C 0.2347(5) 0.7084(4) 0.1224(4)
H6 H 0.2548 0.7056 0.1766
C18 C -0.1848(5) 0.8175(4) 0.6344(4)
C19 C 0.2427(5) 0.7626(4) -0.1203(4)
H7 H 0.2944 0.7927 -0.1570
C20 C 0.3186(5) 1.0392(4) -0.1291(4)
C21 C 0.2311(4) 0.7378(4) -0.0243(4)
C22 C 0.4097(4) 0.8669(4) 0.1322(4)
H8 H 0.3897 0.9313 0.0972
C23 C -0.5335(5) 0.8281(4) 0.4771(4)
C24 C 0.4479(5) 0.9033(4) -0.1312(4)
H9 H 0.5135 0.8567 -0.1490
C25 C -0.1924(4) 0.5923(4) 0.6543(4)
H10 H -0.1798 0.6280 0.6895
C26 C 0.4855(5) 0.5447(5) 0.2685(5)
H11 H 0.4946 0.4766 0.2787
C27 C -0.6406(5) 0.8279(4) 0.5017(4)
H12 H -0.6884 0.8625 0.4617
C28 C -0.4967(5) 0.7251(4) 0.6279(4)
H13 H -0.4504 0.6926 0.6694
C29 C -0.6720(5) 0.7740(5) 0.5878(4)
H14 H -0.7420 0.7698 0.6052
C30 C 0.1767(5) 0.7416(5) -0.1589(4)
H15 H 0.1824 0.7591 -0.2229
C31 C -0.0764(6) 0.9808(5) 0.2411(5)
H16 H -0.0560 1.0289 0.1920
C32 C -0.0621(5) 0.8121(4) 0.3116(4)
C33 C -0.1751(6) 0.9104(5) 0.7394(5)
H17 H -0.2070 0.9593 0.7752
C34 C -0.2810(5) 0.5583(5) 0.4710(4)
H18 H -0.3102 0.6170 0.4311
C35 C 0.6479(5) 0.7490(5) -0.0229(5)
H19 H 0.6088 0.8039 0.0048
C36 C 0.4901(5) 0.6205(4) -0.0632(4)
H20 H 0.4277 0.6075 -0.0630
C37 C -0.1929(5) 0.3781(4) 0.5939(5)
H21 H -0.1643 0.3192 0.6340
C38 C 0.1005(5) 0.6945(5) -0.1050(4)
H22 H 0.0575 0.6801 -0.1339
C39 C 0.6552(5) 0.6083(4) -0.0822(4)
C40 C 0.4587(5) 0.6040(4) 0.1864(5)
H23 H 0.4503 0.5782 0.1409
C41 C -0.1874(5) 0.9438(4) 0.3907(5)
H24 H -0.2388 0.9646 0.4417
C42 C -0.0278(5) 0.8813(5) 0.2370(5)
H25 H 0.0255 0.8613 0.1868
C43 C 0.4995(5) 0.5811(5) 0.3367(5)
H26 H 0.5163 0.5379 0.3916
C44 C -0.0758(5) 0.7647(5) 0.6273(4)
H27 H -0.0426 0.7175 0.5896
C45 C 0.1207(5) 1.0877(5) -0.0151(5)
H28 H 0.0533 1.1056 0.0234
C46 C -0.0924(5) 0.6813(4) 0.4035(4)
H29 H -0.0888 0.6147 0.4283
C47 C 0.1498(6) 1.1595(5) -0.0897(5)
H30 H 0.1015 1.2234 -0.1008
C48 C 0.1879(5) 0.9909(5) 0.0040(5)
H31 H 0.1667 0.9437 0.0537
C49 C -0.6022(5) 0.7253(4) 0.6502(4)
H32 H -0.6281 0.6920 0.7087
C50 C 0.2494(5) 1.1362(5) -0.1468(4)
H33 H 0.2701 1.1840 -0.1961
C51 C 0.7676(5) 0.5812(5) -0.1063(4)
H34 H 0.8071 0.5262 -0.1338
C52 C 0.8176(5) 0.6378(5) -0.0885(5)
H35 H 0.8925 0.6206 -0.1038
C53 C -0.2303(6) 0.3781(5) 0.5192(5)
H36 H -0.2274 0.3175 0.5088
C54 C 0.7588(6) 0.7218(5) -0.0474(5)
H37 H 0.7954 0.7593 -0.0367
C55 C -0.2727(6) 0.4664(5) 0.4584(5)
H38 H -0.2959 0.4627 0.4082
C56 C -0.0674(6) 0.8545(5) 0.7338(5)
H39 H -0.0268 0.8642 0.7685
C57 C -0.1200(7) 0.5585(5) 0.1998(5)
C58 C -0.0187(5) 0.7841(5) 0.6773(5)
H40 H 0.0544 0.7493 0.6735
Cu1A Cu -0.07004(6) 0.38759(5) 0.76112(5)
Cu2A Cu 0.53756(6) 1.05747(5) -0.27259(5)
Cu2A_2 Cu -0.46244(6) 1.05747(5) 0.72741(5)
Cu2_2 Cu 0.46244(6) 0.94253(5) 0.27259(5)
N9A N 0.1672(4) 0.5059(3) 0.3249(3)
N11A N -0.4224(4) 1.0042(3) 0.1773(3)
N13A N -0.6582(4) 1.0659(3) 0.3163(3)
N15_2 N -0.5614(4) 0.8478(3) 0.2122(3)
loop_
_geom_bond_atom_site_label_1
_geom_bond_atom_site_label_2
_geom_bond_site_symmetry_1
_geom_bond_site_symmetry_2
Cu1 N2 1_555 1_555
Cu2 N4 1_555 1_555
B1 N6 1_555 1_555
B2 N1 1_555 1_555
N1 C10 1_555 1_555
N2 C15 1_555 1_555
N3 B2 1_555 1_555
N4 C14 1_555 1_555
N5 B2 1_555 1_555
N6 C4 1_555 1_555
N7 Cu1 1_555 1_555
N8 B2 1_555 1_555
N9 C7 1_555 1_555
N10 B1 1_555 1_555
N11 C20 1_555 1_555
N12 Cu1 1_555 1_555
N13 C10 1_555 1_555
N14 B1 1_555 1_555
N15 C16 1_555 1_555
N16 B1 1_555 1_555
N17 C36 1_555 1_555
C1 C57 1_555 1_555
C2 H1 1_555 1_555
C3 N3 1_555 1_555
C4 C20 1_555 1_555
C5 N16 1_555 1_555
C6 N5 1_555 1_555
C7 C6 1_555 1_555
C8 N14 1_555 1_555
C9 N8 1_555 1_555
C10 H2 1_555 1_555
C11 H3 1_555 1_555
C12 N13 1_555 1_555
C13 H4 1_555 1_555
C14 N3 1_555 1_555
H5 C14 1_555 1_555
C15 C13 1_555 1_555
C16 C5 1_555 1_555
C17 N2 1_555 1_555
H6 C17 1_555 1_555
C18 N1 1_555 1_555
C19 H7 1_555 1_555
C20 C50 1_555 1_555
C21 N10 1_555 1_555
C22 N15 1_555 1_555
H8 C22 1_555 1_555
C23 N4 1_555 1_555
C24 N6 1_555 1_555
H9 C24 1_555 1_555
C25 N5 1_555 1_555
H10 C25 1_555 1_555
C26 H11 1_555 1_555
C27 C23 1_555 1_555
H12 C27 1_555 1_555
C28 C3 1_555 1_555
H13 C28 1_555 1_555
C29 C27 1_555 1_555
H14 C29 1_555 1_555
C30 C19 1_555 1_555
H15 C30 1_555 1_555
C31 C2 1_555 1_555
H16 C31 1_555 1_555
C32 N12 1_555 1_555
C33 C12 1_555 1_555
H17 C33 1_555 1_555
C34 C6 1_555 1_555
H18 C34 1_555 1_555
C35 C8 1_555 1_555
H19 C35 1_555 1_555
C36 N14 1_555 1_555
H20 C36 1_555 1_555
C37 C7 1_555 1_555
H21 C37 1_555 1_555
C38 C13 1_555 1_555
H22 C38 1_555 1_555
C39 N17 1_555 1_555
C40 C5 1_555 1_555
H23 C40 1_555 1_555
C41 C2 1_555 1_555
H24 C41 1_555 1_555
C42 C31 1_555 1_555
H25 C42 1_555 1_555
C43 C11 1_555 1_555
H26 C43 1_555 1_555
C44 C18 1_555 1_555
H27 C44 1_555 1_555
C45 H28 1_555 1_555
C46 N8 1_555 1_555
H29 C46 1_555 1_555
C47 C45 1_555 1_555
H30 C47 1_555 1_555
C48 C4 1_555 1_555
H31 C48 1_555 1_555
C49 C28 1_555 1_555
H32 C49 1_555 1_555
C50 C47 1_555 1_555
H33 C50 1_555 1_555
C51 C39 1_555 1_555
H34 C51 1_555 1_555
C52 C51 1_555 1_555
H35 C52 1_555 1_555
C53 C37 1_555 1_555
H36 C53 1_555 1_555
C54 C35 1_555 1_555
H37 C54 1_555 1_555
C55 C34 1_555 1_555
H38 C55 1_555 1_555
C56 C33 1_555 1_555
H39 C56 1_555 1_555
C57 N7 1_555 1_555
C58 C44 1_555 1_555
H40 C58 1_555 1_555
N18 C59 1_555 1_555
Cu1A N9 1_555 1_555
Cu2A N11 1_555 1_555
Cu2A_2 N13 1_555 1_555
Cu2_2 N15 1_555 1_555
N9A Cu1 1_555 1_555
N11A Cu2 1_555 1_555
N13A Cu2 1_555 1_555
N15_2 Cu2 1_555 1_555
N9 C25 1_555 1_555
N10 C17 1_555 1_555
N11 C24 1_555 1_555
N12 C46 1_555 1_555
N16 C22 1_555 1_555
C3 C23 1_555 1_555
C8 C39 1_555 1_555
C9 C32 1_555 1_555
C9 C41 1_555 1_555
C11 C16 1_555 1_555
C12 C18 1_555 1_555
C15 C21 1_555 1_555
C19 C21 1_555 1_555
C26 C40 1_555 1_555
C26 C43 1_555 1_555
C29 C49 1_555 1_555
C30 C38 1_555 1_555
C32 C42 1_555 1_555
C45 C48 1_555 1_555
C52 C54 1_555 1_555
C53 C55 1_555 1_555
C56 C58 1_555 1_555

#END
