
#######################################################################
#
#                 Cambridge Crystallographic Data Centre
#                                CCDC 
#
#######################################################################
#
# If this CIF has been generated from an entry in the Cambridge 
# Structural Database, then it will include bibliographic, chemical, 
# crystal, experimental, refinement or atomic coordinate data resulting 
# from the CCDC's data processing and validation procedures.
#
#######################################################################

data_MOXJEP03
_symmetry_cell_setting           tetragonal
_symmetry_space_group_name_H-M   'I 41 c d'
_symmetry_Int_Tables_number      110
_space_group_name_Hall           'I 4bw -2c'
loop_
_symmetry_equiv_pos_site_id
_symmetry_equiv_pos_as_xyz
1 x,y,z
2 1/2+x,1/2+y,1/2+z
3 -y,1/2+x,1/4+z
4 1/2-y,x,3/4+z
5 1/2-x,1/2-y,1/2+z
6 -x,-y,z
7 1/2+y,-x,3/4+z
8 y,1/2-x,1/4+z
9 -x,y,1/2+z
10 1/2-x,1/2+y,z
11 y,1/2+x,3/4+z
12 1/2+y,x,1/4+z
13 1/2+x,1/2-y,z
14 x,-y,1/2+z
15 1/2-y,-x,1/4+z
16 -y,1/2-x,3/4+z
_cell_length_a                   21.9742(10)
_cell_length_b                   21.9742(10)
_cell_length_c                   11.3460(5)
_cell_angle_alpha                90
_cell_angle_beta                 90
_cell_angle_gamma                90
_cell_volume                     5478.59
loop_
_atom_site_label
_atom_site_type_symbol
_atom_site_fract_x
_atom_site_fract_y
_atom_site_fract_z
Li1 Li 0.3961(7) 0.3547(7) 0.5795(12)
B1 B 0.4000(5) 0.1465(5) 0.3006(8)
N1 N 0.3731(4) 0.2804(4) 0.4917(6)
N2 N 0.3787(3) 0.1946(3) 0.3886(5)
N3 N 0.4678(3) 0.1540(4) 0.2701(6)
N4 N 0.5665(4) 0.1340(5) 0.2558(7)
N5 N 0.3645(4) 0.1512(4) 0.1842(6)
N6 N 0.3412(4) 0.1409(4) -0.0064(6)
N7 N 0.3889(3) 0.0842(4) 0.3558(5)
N8 N 0.3693(4) -0.0152(4) 0.3708(7)
C1 C 0.4035(4) 0.2489(4) 0.4140(6)
C2 C 0.3240(5) 0.2447(5) 0.5168(7)
C3 C 0.3269(5) 0.1917(5) 0.4554(8)
C4 C 0.5135(5) 0.1172(5) 0.2988(8)
C5 C 0.5537(5) 0.1861(6) 0.1945(7)
C6 C 0.4942(5) 0.1985(5) 0.2023(7)
C7 C 0.3842(5) 0.1426(4) 0.0732(7)
C8 C 0.2899(5) 0.1500(5) 0.0578(8)
C9 C 0.3020(4) 0.1564(5) 0.1737(8)
C10 C 0.3690(5) 0.0333(4) 0.3039(7)
C11 C 0.3923(6) 0.0061(5) 0.4738(8)
C12 C 0.4032(5) 0.0659(5) 0.4677(7)
H1 H 0.4396 0.2625 0.3802
H2 H 0.2929 0.2551 0.5688
H3 H 0.2992 0.1597 0.4579
H4 H 0.5085 0.0829 0.3458
H5 H 0.5819 0.2094 0.1532
H6 H 0.4744 0.2316 0.1685
H7 H 0.4252 0.1383 0.0547
H8 H 0.2510 0.1513 0.0260
H9 H 0.2742 0.1631 0.2340
H10 H 0.3561 0.0324 0.2258
H11 H 0.3994 -0.0176 0.5403
H12 H 0.4181 0.0904 0.5279
Li1G Li 0.3547(7) 0.1039(7) -0.1705(12)
Li1J Li 0.3547(7) -0.1039(7) 0.3295(12)
Li1O Li 0.6453(7) 0.1039(7) 0.3295(12)
N4N N 0.3660(5) 0.4335(4) 0.5058(7)
N6C N 0.3591(4) 0.3412(4) 0.7436(6)
N8K N 0.4848(4) 0.3693(4) 0.6208(7)
loop_
_geom_bond_atom_site_label_1
_geom_bond_atom_site_label_2
_geom_bond_site_symmetry_1
_geom_bond_site_symmetry_2
Li1 N1 1_555 1_555
B1 N2 1_555 1_555
N1 C1 1_555 1_555
N2 C1 1_555 1_555
N3 B1 1_555 1_555
N4 C4 1_555 1_555
N5 B1 1_555 1_555
N6 C7 1_555 1_555
N7 B1 1_555 1_555
N8 C10 1_555 1_555
C1 H1 1_555 1_555
C2 N1 1_555 1_555
C3 N2 1_555 1_555
C4 N3 1_555 1_555
C5 N4 1_555 1_555
C6 N3 1_555 1_555
C7 N5 1_555 1_555
C8 N6 1_555 1_555
C9 N5 1_555 1_555
C10 N7 1_555 1_555
C11 N8 1_555 1_555
C12 N7 1_555 1_555
H2 C2 1_555 1_555
H3 C3 1_555 1_555
H4 C4 1_555 1_555
H5 C5 1_555 1_555
H6 C6 1_555 1_555
H7 C7 1_555 1_555
H8 C8 1_555 1_555
H9 C9 1_555 1_555
H10 C10 1_555 1_555
H11 C11 1_555 1_555
H12 C12 1_555 1_555
Li1G N6 1_555 1_555
Li1J N8 1_555 1_555
Li1O N4 1_555 1_555
N4N Li1 1_555 1_555
N6C Li1 1_555 1_555
N8K Li1 1_555 1_555
C2 C3 1_555 1_555
C5 C6 1_555 1_555
C8 C9 1_555 1_555
C11 C12 1_555 1_555

#END
