
#######################################################################
#
#                 Cambridge Crystallographic Data Centre
#                                CCDC 
#
#######################################################################
#
# If this CIF has been generated from an entry in the Cambridge 
# Structural Database, then it will include bibliographic, chemical, 
# crystal, experimental, refinement or atomic coordinate data resulting 
# from the CCDC's data processing and validation procedures.
#
#######################################################################

data_MOXJEP
_symmetry_cell_setting           tetragonal
_symmetry_space_group_name_H-M   'I 41 c d'
_symmetry_Int_Tables_number      110
_space_group_name_Hall           'I 4bw -2c'
loop_
_symmetry_equiv_pos_site_id
_symmetry_equiv_pos_as_xyz
1 x,y,z
2 1/2-x,1/2-y,1/2+z
3 -y,1/2+x,1/4+z
4 1/2+y,-x,3/4+z
5 x,-y,1/2+z
6 1/2-x,1/2+y,z
7 -y,1/2-x,3/4+z
8 1/2+y,x,1/4+z
9 1/2+x,1/2+y,1/2+z
10 -x,-y,z
11 1/2-y,x,3/4+z
12 y,1/2-x,1/4+z
13 1/2+x,1/2-y,z
14 -x,y,1/2+z
15 1/2-y,-x,1/4+z
16 y,1/2+x,3/4+z
_cell_length_a                   22.5041(3)
_cell_length_b                   22.5041(3)
_cell_length_c                   11.5147(4)
_cell_angle_alpha                90
_cell_angle_beta                 90
_cell_angle_gamma                90
_cell_volume                     5831.44
loop_
_atom_site_label
_atom_site_type_symbol
_atom_site_fract_x
_atom_site_fract_y
_atom_site_fract_z
Li1 Li 0.4015(2) 0.3554(2) 0.5827(4)
B1 B 0.40220(14) 0.14888(14) 0.2987(3)
N1 N 0.37981(11) 0.28150(10) 0.48892(19)
N2 N 0.38258(9) 0.19757(10) 0.38493(19)
N3 N 0.46902(10) 0.15363(9) 0.27191(19)
N4 N 0.56577(10) 0.13070(11) 0.2637(2)
N5 N 0.36802(10) 0.15339(10) 0.1830(2)
N6 N 0.34558(11) 0.13686(10) -0.0036(2)
N7 N 0.38862(9) 0.08811(9) 0.35448(19)
N8 N 0.36899(11) -0.00901(11) 0.3681(2)
C1 C 0.40990(13) 0.24918(13) 0.4131(3)
H1 H 0.4463 0.2608 0.3821
C2 C 0.32950(13) 0.24860(13) 0.5108(3)
H2 H 0.2991 0.2598 0.5611
C3 C 0.33074(12) 0.19806(13) 0.4491(3)
H3 H 0.3018 0.1686 0.4494
C4 C 0.51300(13) 0.11590(12) 0.3034(3)
H4 H 0.5065 0.0825 0.3491
C5 C 0.55553(13) 0.18136(14) 0.2015(3)
H5 H 0.5846 0.2028 0.1621
C6 C 0.49745(13) 0.19600(12) 0.2049(3)
H6 H 0.4798 0.2285 0.1690
C7 C 0.38749(13) 0.13920(12) 0.0755(3)
H7 H 0.4272 0.1317 0.0589
C8 C 0.29505(14) 0.15098(13) 0.0563(3)
H8 H 0.2573 0.1534 0.0237
C9 C 0.30748(13) 0.16091(13) 0.1694(3)
H9 H 0.2804 0.1709 0.2272
C10 C 0.36977(13) 0.03827(12) 0.3013(3)
H10 H 0.3583 0.0374 0.2237
C11 C 0.38935(16) 0.01186(15) 0.4726(3)
H11 H 0.3943 -0.0113 0.5388
C12 C 0.40116(15) 0.07042(14) 0.4661(3)
H12 H 0.4152 0.0944 0.5260
Li1F Li 0.6446(2) 0.0985(2) 0.3327(4)
Li1K Li 0.3554(2) 0.0985(2) -0.1673(4)
Li1O Li 0.3554(2) -0.0985(2) 0.3327(4)
N4N N 0.36930(11) 0.43423(10) 0.5137(2)
N6J N 0.36314(10) 0.34558(11) 0.7464(2)
N8G N 0.49099(11) 0.36899(11) 0.6181(2)
loop_
_geom_bond_atom_site_label_1
_geom_bond_atom_site_label_2
_geom_bond_site_symmetry_1
_geom_bond_site_symmetry_2
Li1 N1 1_555 1_555
B1 N2 1_555 1_555
N1 C1 1_555 1_555
N2 C1 1_555 1_555
N3 B1 1_555 1_555
N4 C4 1_555 1_555
N5 B1 1_555 1_555
N6 C7 1_555 1_555
N7 B1 1_555 1_555
N8 C10 1_555 1_555
C1 H1 1_555 1_555
C2 N1 1_555 1_555
H2 C2 1_555 1_555
C3 N2 1_555 1_555
H3 C3 1_555 1_555
C4 N3 1_555 1_555
H4 C4 1_555 1_555
C5 N4 1_555 1_555
H5 C5 1_555 1_555
C6 N3 1_555 1_555
H6 C6 1_555 1_555
C7 N5 1_555 1_555
H7 C7 1_555 1_555
C8 N6 1_555 1_555
H8 C8 1_555 1_555
C9 N5 1_555 1_555
H9 C9 1_555 1_555
C10 N7 1_555 1_555
H10 C10 1_555 1_555
C11 N8 1_555 1_555
H11 C11 1_555 1_555
C12 N7 1_555 1_555
H12 C12 1_555 1_555
Li1F N4 1_555 1_555
Li1K N6 1_555 1_555
Li1O N8 1_555 1_555
N4N Li1 1_555 1_555
N6J Li1 1_555 1_555
N8G Li1 1_555 1_555
C2 C3 1_555 1_555
C5 C6 1_555 1_555
C8 C9 1_555 1_555
C11 C12 1_555 1_555

#END
