
#######################################################################
#
#                 Cambridge Crystallographic Data Centre
#                                CCDC 
#
#######################################################################
#
# If this CIF has been generated from an entry in the Cambridge 
# Structural Database, then it will include bibliographic, chemical, 
# crystal, experimental, refinement or atomic coordinate data resulting 
# from the CCDC's data processing and validation procedures.
#
#######################################################################

data_MOXKIT
_symmetry_cell_setting           monoclinic
_symmetry_space_group_name_H-M   'P 21/n'
_symmetry_Int_Tables_number      14
_space_group_name_Hall           '-P 2yn'
loop_
_symmetry_equiv_pos_site_id
_symmetry_equiv_pos_as_xyz
1 x,y,z
2 1/2-x,1/2+y,1/2-z
3 -x,-y,-z
4 1/2+x,1/2-y,1/2+z
_cell_length_a                   17.514(2)
_cell_length_b                   8.221(1)
_cell_length_c                   17.874(2)
_cell_angle_alpha                90
_cell_angle_beta                 112.17(1)
_cell_angle_gamma                90
_cell_volume                     2383.28
loop_
_atom_site_label
_atom_site_type_symbol
_atom_site_fract_x
_atom_site_fract_y
_atom_site_fract_z
Y1 Y 0.4585(1) -0.0839(1) 0.1695(1)
Cu1 Cu 0.7153(1) 0.3914(1) 0.3355(1)
O1 O 0.6206(3) 0.2555(5) 0.2797(2)
O2 O 0.5275(3) 0.0749(5) 0.2786(3)
O3 O 0.6501(3) 0.6231(5) 0.2798(3)
O4 O 0.5327(3) 0.7420(5) 0.2704(3)
O5 O 0.8185(2) 0.4703(5) 0.4162(2)
O6 O 0.8706(3) 0.5779(5) 0.5379(2)
O7 O 0.7651(4) 0.3636(7) 0.2552(3)
O12 O 0.3718(3) -0.0455(7) 0.2416(3)
O13 O 0.5128(4) -0.2740(7) 0.1029(3)
O14 O 0.4008(4) 0.1870(6) 0.1356(3)
O15 O 0.3686(3) -0.3143(6) 0.1520(3)
O16 O 0.5556(3) 0.0578(6) 0.1346(3)
N1 N 0.6647(3) 0.4563(5) 0.4161(3)
C1 C 0.5846(4) 0.1684(7) 0.3160(3)
C2 C 0.6098(4) 0.1777(7) 0.4054(3)
C3 C 0.5918(5) 0.0398(9) 0.4412(5)
C4 C 0.6165(6) 0.0277(11) 0.5241(5)
C5 C 0.6613(6) 0.1528(10) 0.5724(4)
C6 C 0.6770(5) 0.2934(9) 0.5374(4)
C7 C 0.6508(3) 0.3070(7) 0.4545(3)
C8 C 0.5857(4) 0.5415(8) 0.3707(4)
C9 C 0.5910(4) 0.6450(7) 0.3013(3)
C10 C 0.7246(4) 0.5719(8) 0.4711(4)
C11 C 0.8119(4) 0.5353(7) 0.4769(3)
O4_2 O 0.5327(3) -0.2580(5) 0.2704(3)
O6C O 0.3706(3) -0.0779(5) 0.0379(2)
Y1_2 Y 0.4585(1) 0.9161(1) 0.1695(1)
Y1C Y 0.9585(1) 0.5839(1) 0.6695(1)
Cl1 Cl 0.8397(1) 1.0100(2) 0.4511(1)
O8 O 0.7927(4) 1.0990(7) 0.3817(3)
O9 O 0.8990(5) 1.1182(10) 0.5035(4)
O10 O 0.7944(4) 0.9494(8) 0.4940(4)
O11 O 0.8850(5) 0.8888(8) 0.4323(4)
Cl2 Cl 0.3567(1) 0.3812(2) 0.3134(1)
O17 O 0.2986(5) 0.2913(20) 0.3116(9)
O18 O 0.3284(12) 0.5228(13) 0.2891(7)
O19 O 0.4112(6) 0.3813(19) 0.3884(7)
O20 O 0.3990(8) 0.3595(21) 0.2713(10)
loop_
_geom_bond_atom_site_label_1
_geom_bond_atom_site_label_2
_geom_bond_site_symmetry_1
_geom_bond_site_symmetry_2
Y1 O2 1_555 1_555
Cu1 O1 1_555 1_555
Cl1 O8 1_555 1_555
Cl2 O17 1_555 1_555
O1 C1 1_555 1_555
O2 C1 1_555 1_555
O3 Cu1 1_555 1_555
O4 C9 1_555 1_555
O5 Cu1 1_555 1_555
O6 C11 1_555 1_555
O7 Cu1 1_555 1_555
O9 Cl1 1_555 1_555
O10 Cl1 1_555 1_555
O11 Cl1 1_555 1_555
O12 Y1 1_555 1_555
O13 Y1 1_555 1_555
O14 Y1 1_555 1_555
O15 Y1 1_555 1_555
O16 Y1 1_555 1_555
O18 Cl2 1_555 1_555
O19 Cl2 1_555 1_555
O20 Cl2 1_555 1_555
N1 Cu1 1_555 1_555
C1 C2 1_555 1_555
C2 C3 1_555 1_555
C3 C4 1_555 1_555
C4 C5 1_555 1_555
C5 C6 1_555 1_555
C6 C7 1_555 1_555
C7 N1 1_555 1_555
C8 N1 1_555 1_555
C9 O3 1_555 1_555
C10 N1 1_555 1_555
C11 O5 1_555 1_555
O4_2 Y1 1_555 1_555
O6C Y1 1_555 1_555
Y1_2 O4 1_555 1_555
Y1C O6 1_555 1_555
C2 C7 1_555 1_555
C8 C9 1_555 1_555
C10 C11 1_555 1_555

#END
