
#######################################################################
#
#                 Cambridge Crystallographic Data Centre
#                                CCDC 
#
#######################################################################
#
# If this CIF has been generated from an entry in the Cambridge 
# Structural Database, then it will include bibliographic, chemical, 
# crystal, experimental, refinement or atomic coordinate data resulting 
# from the CCDC's data processing and validation procedures.
#
#######################################################################

data_MOXKIU
_symmetry_cell_setting           monoclinic
_symmetry_space_group_name_H-M   'C c'
_symmetry_Int_Tables_number      9
_space_group_name_Hall           'C -2yc'
loop_
_symmetry_equiv_pos_site_id
_symmetry_equiv_pos_as_xyz
1 x,y,z
2 x,-y,1/2+z
3 1/2+x,1/2+y,z
4 1/2+x,1/2-y,1/2+z
_cell_length_a                   13.3048(5)
_cell_length_b                   13.4544(5)
_cell_length_c                   18.2388(6)
_cell_angle_alpha                90
_cell_angle_beta                 111.373(2)
_cell_angle_gamma                90
_cell_volume                     3040.36
loop_
_atom_site_label
_atom_site_type_symbol
_atom_site_fract_x
_atom_site_fract_y
_atom_site_fract_z
Cu1 Cu 0.11808(12) 0.12653(17) 0.06371(9)
B1 B -0.0179(16) 0.1610(15) -0.2669(11)
C1 C 0.0585(10) 0.1600(8) -0.1070(9)
N1 N 0.0625(11) 0.0921(12) -0.0464(6)
C2 C 0.0167(12) 0.0009(9) -0.0824(8)
H1 H 0.0092 -0.0564 -0.0563
C3 C -0.0155(12) 0.0124(9) -0.1652(7)
H2 H -0.0479 -0.0360 -0.2028
N2 N 0.0103(12) 0.1107(11) -0.1804(7)
C4 C 0.085(2) 0.2577(15) -0.0954(14)
H3 H 0.1299 0.2683 -0.0414
H4 H 0.0201 0.2966 -0.1079
H5 H 0.1228 0.2774 -0.1288
C5 C -0.1727(10) 0.2610(11) -0.3565(8)
N3 N -0.1238(7) 0.1979(11) -0.2906(9)
C6 C -0.1954(10) 0.1892(10) -0.2493(7)
H6 H -0.1834 0.1522 -0.2038
C7 C -0.2886(8) 0.2469(10) -0.2895(7)
H7 H -0.3484 0.2544 -0.2750
N4 N -0.2746(9) 0.2913(8) -0.3558(6)
C8 C -0.1323(18) 0.2848(16) -0.4097(11)
H8 H -0.1749 0.3367 -0.4426
H9 H -0.1328 0.2276 -0.4413
H10 H -0.0594 0.3076 -0.3841
C9 C -0.0112(8) -0.0074(11) -0.3654(8)
N5 N 0.0015(8) 0.0545(9) -0.2996(9)
C10 C 0.1132(9) 0.0589(12) -0.2527(8)
H11 H 0.1440 0.0943 -0.2061
C11 C 0.1695(7) -0.0003(11) -0.2895(8)
H12 H 0.2438 -0.0105 -0.2713
N6 N 0.0927(11) -0.0413(9) -0.3592(7)
C12 C -0.1112(17) -0.030(2) -0.4043(13)
H13 H -0.1171 -0.0638 -0.4519
H14 H -0.1534 0.0303 -0.4172
H15 H -0.1375 -0.0716 -0.3727
Cu1C Cu -0.38192(12) 0.37347(17) -0.43629(9)
Cu1A Cu 0.11808(12) -0.12653(17) -0.43629(9)
N4C N 0.2254(9) 0.2087(8) 0.1442(6)
N6A N 0.0927(11) 0.0413(9) 0.1408(7)
Cu2 Cu 0.87859(12) 0.37619(17) 0.08406(9)
B2 B 1.072(2) 0.3897(15) 0.4092(10)
C13 C 0.9892(11) 0.4171(9) 0.2570(7)
N7 N 1.0161(11) 0.3653(11) 0.3294(5)
C14 C 0.9776(12) 0.2663(10) 0.3125(7)
H16 H 0.9845 0.2164 0.3493
C15 C 0.9269(12) 0.2569(9) 0.2295(7)
H17 H 0.8947 0.1997 0.2025
N8 N 0.9341(10) 0.3501(11) 0.1952(5)
C16 C 1.014(3) 0.5095(18) 0.243(2)
H18 H 0.9979 0.5178 0.1876
H19 H 1.0892 0.5214 0.2713
H20 H 0.9719 0.5559 0.2600
C17 C 0.9258(9) 0.4891(11) 0.4728(6)
N9 N 1.0126(11) 0.4370(10) 0.4626(7)
C18 C 1.1099(9) 0.4682(11) 0.5226(10)
H21 H 1.1789 0.4458 0.5297
C19 C 1.0832(10) 0.5395(10) 0.5700(8)
H22 H 1.1317 0.5720 0.6135
N10 N 0.9695(11) 0.5524(9) 0.5392(8)
C20 C 0.837(2) 0.4626(16) 0.4174(12)
H23 H 0.8466 0.4640 0.3677
H24 H 0.7803 0.5078 0.4158
H25 H 0.8180 0.3966 0.4275
C21 C 1.2219(8) 0.2645(9) 0.4718(6)
N11 N 1.1227(7) 0.3126(8) 0.4616(6)
C22 C 1.0891(9) 0.2816(10) 0.5234(9)
H26 H 1.0267 0.3019 0.5309
C23 C 1.1674(12) 0.2143(11) 0.5719(7)
H27 H 1.1654 0.1827 0.6167
N12 N 1.2495(8) 0.2037(8) 0.5399(7)
C24 C 1.278(2) 0.2841(19) 0.4301(13)
H28 H 1.3405 0.2424 0.4460
H29 H 1.2993 0.3526 0.4371
H30 H 1.2353 0.2721 0.3757
Cu2A Cu 0.87859(12) 0.62381(17) 0.58406(9)
Cu2C Cu 1.37859(12) 0.12381(17) 0.58406(9)
N10A N 0.9695(11) 0.4476(9) 0.0392(8)
N12C N 0.7495(8) 0.2963(8) 0.0399(7)
loop_
_geom_bond_atom_site_label_1
_geom_bond_atom_site_label_2
_geom_bond_site_symmetry_1
_geom_bond_site_symmetry_2
Cu1 N1 1_555 1_555
B1 N2 1_555 1_555
C1 N1 1_555 1_555
N1 C2 1_555 1_555
C2 H1 1_555 1_555
C3 C2 1_555 1_555
H2 C3 1_555 1_555
N2 C1 1_555 1_555
C4 C1 1_555 1_555
H3 C4 1_555 1_555
H4 C4 1_555 1_555
H5 C4 1_555 1_555
C5 N3 1_555 1_555
N3 B1 1_555 1_555
C6 N3 1_555 1_555
H6 C6 1_555 1_555
C7 C6 1_555 1_555
H7 C7 1_555 1_555
N4 C5 1_555 1_555
C8 C5 1_555 1_555
H8 C8 1_555 1_555
H9 C8 1_555 1_555
H10 C8 1_555 1_555
C9 N5 1_555 1_555
N5 B1 1_555 1_555
C10 N5 1_555 1_555
H11 C10 1_555 1_555
C11 C10 1_555 1_555
H12 C11 1_555 1_555
N6 C9 1_555 1_555
C12 C9 1_555 1_555
H13 C12 1_555 1_555
H14 C12 1_555 1_555
H15 C12 1_555 1_555
Cu2 N8 1_555 1_555
B2 N7 1_555 1_555
C13 N7 1_555 1_555
N7 C14 1_555 1_555
C14 H16 1_555 1_555
C15 C14 1_555 1_555
H17 C15 1_555 1_555
N8 C13 1_555 1_555
C16 C13 1_555 1_555
H18 C16 1_555 1_555
H19 C16 1_555 1_555
H20 C16 1_555 1_555
C17 N9 1_555 1_555
N9 B2 1_555 1_555
C18 N9 1_555 1_555
H21 C18 1_555 1_555
C19 C18 1_555 1_555
H22 C19 1_555 1_555
N10 C17 1_555 1_555
C20 C17 1_555 1_555
H23 C20 1_555 1_555
H24 C20 1_555 1_555
H25 C20 1_555 1_555
C21 N11 1_555 1_555
N11 B2 1_555 1_555
C22 N11 1_555 1_555
H26 C22 1_555 1_555
C23 C22 1_555 1_555
H27 C23 1_555 1_555
N12 C21 1_555 1_555
C24 C21 1_555 1_555
H28 C24 1_555 1_555
H29 C24 1_555 1_555
H30 C24 1_555 1_555
Cu1C N4 1_555 1_555
Cu1A N6 1_555 1_555
N4C Cu1 1_555 1_555
N6A Cu1 1_555 1_555
Cu2A N10 1_555 1_555
Cu2C N12 1_555 1_555
N10A Cu2 1_555 1_555
N12C Cu2 1_555 1_555
C3 N2 1_555 1_555
C7 N4 1_555 1_555
C11 N6 1_555 1_555
C15 N8 1_555 1_555
C19 N10 1_555 1_555
C23 N12 1_555 1_555

#END
