
#######################################################################
#
#                 Cambridge Crystallographic Data Centre
#                                CCDC 
#
#######################################################################
#
# If this CIF has been generated from an entry in the Cambridge 
# Structural Database, then it will include bibliographic, chemical, 
# crystal, experimental, refinement or atomic coordinate data resulting 
# from the CCDC's data processing and validation procedures.
#
#######################################################################

data_MOXKOA
_symmetry_cell_setting           cubic
_symmetry_space_group_name_H-M   'P a -3'
_symmetry_Int_Tables_number      205
_space_group_name_Hall           '-P 2ac 2ab 3'
loop_
_symmetry_equiv_pos_site_id
_symmetry_equiv_pos_as_xyz
1 x,y,z
2 z,x,y
3 y,z,x
4 1/2-x,-y,1/2+z
5 -x,1/2+y,1/2-z
6 1/2+x,1/2-y,-z
7 1/2+z,1/2-x,-y
8 1/2-z,-x,1/2+y
9 -z,1/2+x,1/2-y
10 -y,1/2+z,1/2-x
11 1/2+y,1/2-z,-x
12 1/2-y,-z,1/2+x
13 -x,-y,-z
14 -z,-x,-y
15 -y,-z,-x
16 1/2+x,y,1/2-z
17 x,1/2-y,1/2+z
18 1/2-x,1/2+y,z
19 1/2-z,1/2+x,y
20 1/2+z,x,1/2-y
21 z,1/2-x,1/2+y
22 y,1/2-z,1/2+x
23 1/2-y,1/2+z,x
24 1/2+y,z,1/2-x
_cell_length_a                   15.1296(6)
_cell_length_b                   15.1296(6)
_cell_length_c                   15.1296(6)
_cell_angle_alpha                90
_cell_angle_beta                 90
_cell_angle_gamma                90
_cell_volume                     3463.24
loop_
_atom_site_label
_atom_site_type_symbol
_atom_site_fract_x
_atom_site_fract_y
_atom_site_fract_z
Cu1 Cu 0.07000(3) 0.07000(3) 0.07000(3)
N1 N 0.0803(2) -0.0248(2) 0.1593(2)
C1 C 0.0607(3) 0.0673(3) 0.2947(3)
H1 H 0.0250 0.0544 0.3481
H2 H 0.0250 0.1060 0.2559
N2 N 0.0951(2) -0.0948(2) 0.2870(2)
C2 C 0.0982(3) -0.1116(3) 0.1433(3)
H3 H 0.1038 -0.1371 0.0862
C3 C 0.0784(2) -0.0168(3) 0.2475(3)
C4 C 0.1066(3) -0.1558(3) 0.2196(3)
H4 H 0.1182 -0.2172 0.2262
B1 B 0.1140(3) -0.1140(3) 0.3860(3)
C5 C 0.1417(4) 0.1161(3) 0.3220(4)
H5 H 0.1249 0.1707 0.3525
H6 H 0.1768 0.1307 0.2695
H7 H 0.1769 0.0790 0.3619
H8 H 0.069(2) -0.069(2) 0.431(2)
Cu1D Cu -0.07000(3) -0.43000(3) 0.43000(3)
Cu1C Cu 0.43000(3) -0.07000(3) 0.57000(3)
N1I N 0.0248(2) -0.3407(2) 0.4197(2)
N1G N 0.3407(2) -0.0803(2) 0.4752(2)
N1A N 0.1593(2) 0.0803(2) -0.0248(2)
N1B N -0.0248(2) 0.1593(2) 0.0803(2)
C1I C -0.0673(3) -0.2053(3) 0.4393(3)
C1G C 0.2053(3) -0.0607(3) 0.5673(3)
H1I H -0.0544 -0.1519 0.4750
H1G H 0.1519 -0.0250 0.5544
H2I H -0.1060 -0.2441 0.4750
H2G H 0.2441 -0.0250 0.6060
N2I N 0.0948(2) -0.2130(2) 0.4049(2)
N2G N 0.2130(2) -0.0951(2) 0.4052(2)
C2I C 0.1116(3) -0.3567(3) 0.4018(3)
C2G C 0.3567(3) -0.0982(3) 0.3884(3)
H3I H 0.1371 -0.4138 0.3962
H3G H 0.4138 -0.1038 0.3629
C3I C 0.0168(3) -0.2525(3) 0.4216(2)
C3G C 0.2525(3) -0.0784(2) 0.4832(3)
C4I C 0.1558(3) -0.2804(3) 0.3934(3)
C4G C 0.2804(3) -0.1066(3) 0.3442(3)
H4I H 0.2172 -0.2738 0.3818
H4G H 0.2738 -0.1182 0.2828
C5I C -0.1161(3) -0.1780(4) 0.3583(4)
C5G C 0.1780(4) -0.1417(4) 0.6161(3)
H5I H -0.1707 -0.1475 0.3751
H5G H 0.1475 -0.1249 0.6707
H6I H -0.1307 -0.2305 0.3232
H6G H 0.2305 -0.1768 0.6307
H7I H -0.0790 -0.1381 0.3231
H7G H 0.1381 -0.1769 0.5790
loop_
_geom_bond_atom_site_label_1
_geom_bond_atom_site_label_2
_geom_bond_site_symmetry_1
_geom_bond_site_symmetry_2
Cu1 N1 1_555 1_555
N1 C2 1_555 1_555
C1 H1 1_555 1_555
H2 C1 1_555 1_555
N2 C3 1_555 1_555
C2 H3 1_555 1_555
C3 N1 1_555 1_555
C4 N2 1_555 1_555
H4 C4 1_555 1_555
B1 N2 1_555 1_555
C5 C1 1_555 1_555
H5 C5 1_555 1_555
H6 C5 1_555 1_555
H7 C5 1_555 1_555
H8 B1 1_555 1_555
Cu1D N1I 1_555 1_555
Cu1C N1G 1_555 1_555
N1I C2I 1_555 1_555
N1G C2G 1_555 1_555
N1A Cu1 1_555 1_555
N1B Cu1 1_555 1_555
C1I H1I 1_555 1_555
C1G H1G 1_555 1_555
H2I C1I 1_555 1_555
H2G C1G 1_555 1_555
N2I B1 1_555 1_555
N2G B1 1_555 1_555
C2I H3I 1_555 1_555
C2G H3G 1_555 1_555
C3I N1I 1_555 1_555
C3G N1G 1_555 1_555
C4I N2I 1_555 1_555
C4G N2G 1_555 1_555
H4I C4I 1_555 1_555
H4G C4G 1_555 1_555
C5I C1I 1_555 1_555
C5G C1G 1_555 1_555
H5I C5I 1_555 1_555
H5G C5G 1_555 1_555
H6I C5I 1_555 1_555
H6G C5G 1_555 1_555
H7I C5I 1_555 1_555
H7G C5G 1_555 1_555
C1 C3 1_555 1_555
C2 C4 1_555 1_555
C1I C3I 1_555 1_555
C1G C3G 1_555 1_555
N2I C3I 1_555 1_555
N2G C3G 1_555 1_555
C2I C4I 1_555 1_555
C2G C4G 1_555 1_555

#END
