
#######################################################################
#
#                 Cambridge Crystallographic Data Centre
#                                CCDC 
#
#######################################################################
#
# If this CIF has been generated from an entry in the Cambridge 
# Structural Database, then it will include bibliographic, chemical, 
# crystal, experimental, refinement or atomic coordinate data resulting 
# from the CCDC's data processing and validation procedures.
#
#######################################################################

data_MOXKEQ01
_symmetry_cell_setting           triclinic
_symmetry_space_group_name_H-M   'P -1'
_symmetry_Int_Tables_number      2
_space_group_name_Hall           '-P 1'
loop_
_symmetry_equiv_pos_site_id
_symmetry_equiv_pos_as_xyz
1 x,y,z
2 -x,-y,-z
_cell_length_a                   9.0107(5)
_cell_length_b                   9.2903(6)
_cell_length_c                   15.7168(5)
_cell_angle_alpha                103.806(4)
_cell_angle_beta                 91.307(4)
_cell_angle_gamma                115.131(6)
_cell_volume                     1145.14
loop_
_atom_site_label
_atom_site_type_symbol
_atom_site_fract_x
_atom_site_fract_y
_atom_site_fract_z
Cu1 Cu 0.29887(5) -0.05808(5) -0.01822(2)
Cu2 Cu 0.86898(4) 0.75945(5) 0.42793(2)
N1 N 0.5058(2) 0.6132(2) 0.22243(12)
N2 N 1.0614(2) 0.7376(3) 0.46698(13)
N3 N 1.3543(2) 0.8200(2) 0.72013(12)
N4 N 0.2675(2) 0.8263(2) 0.07520(13)
N5 N 1.5638(2) 0.8330(3) 0.61452(13)
N6 N 0.2796(2) 0.3836(3) 0.10545(13)
N7 N 1.2805(2) 0.7857(2) 0.55755(12)
N8 N 0.7326(3) 0.7239(3) 0.32119(13)
N9 N 1.7598(3) 0.8066(3) 0.53759(14)
N10 N 0.2769(2) 0.6601(3) 0.15457(13)
N11 N 1.3012(3) 0.8401(3) 0.85868(13)
N12 N 0.2792(3) 0.1527(3) 0.02073(13)
C1 C 0.5684(3) 0.6464(3) 0.30718(15)
H1 H 0.5035 0.6182 0.3512
C2 C 1.3668(3) 0.9214(3) 0.79977(15)
H2 H 1.4160 1.0361 0.8122
C3 C 1.1642(3) 0.8339(3) 0.54053(15)
H3 H 1.1570 0.9253 0.5766
C4 C 1.1147(3) 0.6185(3) 0.43411(16)
H4 H 1.0671 0.5330 0.3822
C5 C 1.6353(3) 0.8473(3) 0.54070(17)
H5 H 1.6009 0.8820 0.4965
C6 C 0.1465(3) 0.1715(3) -0.01165(16)
H6 H 0.0697 0.0995 -0.0611
C7 C 0.3060(3) 0.7046(3) 0.07846(15)
H7 H 0.3483 0.6552 0.0333
C8 C 0.1452(3) 0.3111(3) 0.03979(17)
H8 H 0.0679 0.3503 0.0321
C9 C 0.3553(3) 0.2826(3) 0.09030(15)
H9 H 0.4506 0.3026 0.1251
C10 C 1.2743(3) 0.6623(3) 0.72885(16)
H10 H 1.2473 0.5647 0.6848
C11 C 0.6399(3) 0.6749(3) 0.17871(16)
H11 H 0.6366 0.6709 0.1190
C12 C 0.2105(3) 0.8621(3) 0.15451(16)
H12 H 0.1739 0.9430 0.1719
C13 C 1.2472(3) 0.6461(3) 0.48939(16)
H13 H 1.3053 0.5827 0.4827
C14 C 1.6492(3) 0.7778(3) 0.66186(16)
H14 H 1.6285 0.7547 0.7160
C15 C 0.2159(3) 0.7613(3) 0.20331(16)
H15 H 0.1842 0.7609 0.2592
C16 C 1.7691(3) 0.7632(3) 0.61483(17)
H16 H 1.8456 0.7292 0.6320
C17 C 1.2417(3) 0.6751(3) 0.81435(16)
H17 H 1.1882 0.5872 0.8384
C18 C 0.7773(3) 0.7426(3) 0.23919(17)
H18 H 0.8854 0.7938 0.2275
B1 B 1.4186(3) 0.8770(3) 0.63831(17)
H19 H 1.4568 0.9966 0.6507
B2 B 0.3189(3) 0.5343(4) 0.18643(18)
H20 H 0.2523 0.4986 0.2325
Cu1_2 Cu 0.29887(5) 0.94192(5) -0.01822(2)
Cu1_3 Cu 1.29887(5) 0.94192(5) 0.98178(2)
Cu2_2 Cu 1.86898(4) 0.75945(5) 0.42793(2)
N4_2 N 0.2675(2) -0.1737(2) 0.07520(13)
N9_2 N 0.7598(3) 0.8066(3) 0.53759(14)
N11_2 N 0.3012(3) -0.1599(3) -0.14132(13)
loop_
_geom_bond_atom_site_label_1
_geom_bond_atom_site_label_2
_geom_bond_site_symmetry_1
_geom_bond_site_symmetry_2
Cu1 N12 1_555 1_555
Cu2 N2 1_555 1_555
N1 C1 1_555 1_555
N2 C3 1_555 1_555
N3 C2 1_555 1_555
N4 C7 1_555 1_555
N5 C5 1_555 1_555
N6 C8 1_555 1_555
N7 C3 1_555 1_555
N8 Cu2 1_555 1_555
N9 C5 1_555 1_555
N10 C7 1_555 1_555
N11 C2 1_555 1_555
N12 C6 1_555 1_555
C1 N8 1_555 1_555
H1 C1 1_555 1_555
C2 H2 1_555 1_555
C3 H3 1_555 1_555
C4 N2 1_555 1_555
H4 C4 1_555 1_555
C5 H5 1_555 1_555
C6 H6 1_555 1_555
C7 H7 1_555 1_555
C8 C6 1_555 1_555
H8 C8 1_555 1_555
C9 N6 1_555 1_555
H9 C9 1_555 1_555
C10 N3 1_555 1_555
H10 C10 1_555 1_555
C11 N1 1_555 1_555
H11 C11 1_555 1_555
C12 N4 1_555 1_555
H12 C12 1_555 1_555
C13 N7 1_555 1_555
H13 C13 1_555 1_555
C14 N5 1_555 1_555
H14 C14 1_555 1_555
C15 N10 1_555 1_555
H15 C15 1_555 1_555
C16 N9 1_555 1_555
H16 C16 1_555 1_555
C17 N11 1_555 1_555
H17 C17 1_555 1_555
C18 N8 1_555 1_555
H18 C18 1_555 1_555
B1 N3 1_555 1_555
H19 B1 1_555 1_555
B2 N1 1_555 1_555
H20 B2 1_555 1_555
Cu1_2 N4 1_555 1_555
Cu1_3 N11 1_555 1_555
Cu2_2 N9 1_555 1_555
N4_2 Cu1 1_555 1_555
N9_2 Cu2 1_555 1_555
N11_2 Cu1 1_555 1_555
N5 B1 1_555 1_555
N6 B2 1_555 1_555
N7 B1 1_555 1_555
N10 B2 1_555 1_555
N12 C9 1_555 1_555
C4 C13 1_555 1_555
C10 C17 1_555 1_555
C11 C18 1_555 1_555
C12 C15 1_555 1_555
C14 C16 1_555 1_555

#END
