
#######################################################################
#
#                 Cambridge Crystallographic Data Centre
#                                CCDC 
#
#######################################################################
#
# If this CIF has been generated from an entry in the Cambridge 
# Structural Database, then it will include bibliographic, chemical, 
# crystal, experimental, refinement or atomic coordinate data resulting 
# from the CCDC's data processing and validation procedures.
#
#######################################################################

data_MOXKEQ
_symmetry_cell_setting           monoclinic
_symmetry_space_group_name_H-M   'P 21/c'
_symmetry_Int_Tables_number      14
_space_group_name_Hall           '-P 2ybc'
loop_
_symmetry_equiv_pos_site_id
_symmetry_equiv_pos_as_xyz
1 x,y,z
2 -x,1/2+y,1/2-z
3 -x,-y,-z
4 x,1/2-y,1/2+z
_cell_length_a                   8.0101(1)
_cell_length_b                   14.0853(3)
_cell_length_c                   10.0845(2)
_cell_angle_alpha                90
_cell_angle_beta                 94.248(1)
_cell_angle_gamma                90
_cell_volume                     1134.65
loop_
_atom_site_label
_atom_site_type_symbol
_atom_site_fract_x
_atom_site_fract_y
_atom_site_fract_z
Cu1 Cu 0.93841(4) 0.90614(3) 0.05067(4)
B1 B 0.4442(4) 0.8570(3) -0.3584(4)
H1 H 0.468(3) 0.8682(19) -0.460(2)
N1 N 0.6164(3) 0.85387(17) -0.2773(2)
N2 N 0.8237(3) 0.86993(19) -0.1190(3)
N3 N 0.3336(3) 0.93820(18) -0.3125(2)
N4 N 0.1733(3) 1.03055(19) -0.1950(2)
N5 N 0.3538(3) 0.76051(17) -0.3435(2)
N6 N 0.1572(3) 0.65075(17) -0.3846(2)
C1 C 0.6632(4) 0.8829(2) -0.1537(3)
H2 H 0.5893 0.9097 -0.0975
C2 C 0.7606(4) 0.8189(2) -0.3243(3)
H3 H 0.7708 0.7927 -0.4080
C3 C 0.8844(4) 0.8292(2) -0.2282(3)
H4 H 0.9952 0.8112 -0.2350
C4 C 0.2712(3) 0.9551(2) -0.1936(3)
H5 H 0.2949 0.9175 -0.1188
C5 C 0.2689(4) 1.0085(2) -0.3939(3)
H6 H 0.2886 1.0167 -0.4829
C6 C 0.1717(4) 1.0639(3) -0.3231(4)
H7 H 0.1124 1.1168 -0.3559
C7 C 0.2175(3) 0.7329(2) -0.4190(3)
H8 H 0.1701 0.7688 -0.4895
C8 C 0.2610(4) 0.6232(3) -0.2793(4)
H9 H 0.2509 0.5672 -0.2316
C9 C 0.3809(4) 0.6891(3) -0.2541(3)
H10 H 0.4672 0.6862 -0.1872
Cu1B Cu 0.06159(4) 1.09386(3) -0.05067(4)
Cu1C Cu -0.06159(4) 0.59386(3) -0.44933(4)
N4B N 0.8267(3) 0.96945(19) 0.1950(2)
N6C N 1.1572(3) 0.84925(17) 0.1154(2)
loop_
_geom_bond_atom_site_label_1
_geom_bond_atom_site_label_2
_geom_bond_site_symmetry_1
_geom_bond_site_symmetry_2
Cu1 N2 1_555 1_555
B1 H1 1_555 1_555
N1 B1 1_555 1_555
N2 C1 1_555 1_555
N3 B1 1_555 1_555
N4 C4 1_555 1_555
N5 B1 1_555 1_555
N6 C7 1_555 1_555
C1 N1 1_555 1_555
H2 C1 1_555 1_555
C2 N1 1_555 1_555
H3 C2 1_555 1_555
C3 N2 1_555 1_555
H4 C3 1_555 1_555
C4 N3 1_555 1_555
H5 C4 1_555 1_555
C5 N3 1_555 1_555
H6 C5 1_555 1_555
C6 N4 1_555 1_555
H7 C6 1_555 1_555
C7 N5 1_555 1_555
H8 C7 1_555 1_555
C8 N6 1_555 1_555
H9 C8 1_555 1_555
C9 N5 1_555 1_555
H10 C9 1_555 1_555
Cu1B N4 1_555 1_555
Cu1C N6 1_555 1_555
N4B Cu1 1_555 1_555
N6C Cu1 1_555 1_555
C2 C3 1_555 1_555
C5 C6 1_555 1_555
C8 C9 1_555 1_555

#END
