
#######################################################################
#
#                 Cambridge Crystallographic Data Centre
#                                CCDC 
#
#######################################################################
#
# If this CIF has been generated from an entry in the Cambridge 
# Structural Database, then it will include bibliographic, chemical, 
# crystal, experimental, refinement or atomic coordinate data resulting 
# from the CCDC's data processing and validation procedures.
#
#######################################################################

data_MOXLES
_symmetry_cell_setting           monoclinic
_symmetry_space_group_name_H-M   'P 21'
_symmetry_Int_Tables_number      4
_space_group_name_Hall           'P 2yb'
loop_
_symmetry_equiv_pos_site_id
_symmetry_equiv_pos_as_xyz
1 x,y,z
2 -x,1/2+y,-z
_cell_length_a                   6.415(3)
_cell_length_b                   14.456(6)
_cell_length_c                   11.653(5)
_cell_angle_alpha                90
_cell_angle_beta                 90.556(6)
_cell_angle_gamma                90
_cell_volume                     1080.59
loop_
_atom_site_label
_atom_site_type_symbol
_atom_site_fract_x
_atom_site_fract_y
_atom_site_fract_z
O1 O 0.801(2) 0.2734(18) 0.725(2)
Cl1 Cl 0.6265(4) 0.2179(2) 0.6924(2)
O2 O 0.6362(13) 0.1967(10) 0.5749(6)
O3 O 0.637(3) 0.1370(10) 0.7500(10)
O4 O 0.4417(14) 0.2661(8) 0.7168(10)
N1 N 0.0762(10) 0.7112(7) 0.7970(6)
C1 C 0.6055(16) 0.7800(8) 0.9726(9)
H1 H 0.6133 0.7915 1.0546
H2 H 0.4598 0.7806 0.9497
C2 C 0.7190(15) 0.8548(7) 0.9104(9)
H3 H 0.8653 0.8540 0.9322
H4 H 0.6619 0.9146 0.9308
C3 C 0.8671(13) 0.8897(7) 0.7175(8)
H5 H 0.8568 0.9557 0.7313
H6 H 1.0025 0.8692 0.7451
C4 C 0.4950(12) 0.8845(6) 0.7439(8)
H7 H 0.3793 0.8557 0.7832
H8 H 0.4969 0.9496 0.7643
C5 C 0.4626(13) 0.8753(7) 0.6168(8)
H9 H 0.3398 0.9100 0.5937
H10 H 0.4394 0.8109 0.5976
C6 C 0.6534(15) 0.9116(8) 0.5515(9)
H11 H 0.6399 0.8952 0.4710
H12 H 0.6580 0.9785 0.5568
C7 C 0.9073(15) 0.7824(7) 0.5556(9)
H13 H 1.0522 0.7716 0.5759
H14 H 0.8981 0.7842 0.4725
C8 C 0.8772(15) 0.6116(7) 0.5598(8)
H15 H 1.0236 0.6099 0.5846
C9 C 0.8674(17) 0.5905(9) 0.4333(10)
H16 H 0.9488 0.6351 0.3923
H17 H 0.7252 0.5933 0.4071
H18 H 0.9220 0.5297 0.4199
C10 C 0.7582(16) 0.5376(7) 0.6264(8)
H19 H 0.6124 0.5382 0.6035
H20 H 0.8146 0.4769 0.6091
C11 C 0.6301(15) 0.5000(8) 0.8213(9)
H21 H 0.4912 0.5069 0.7889
H22 H 0.6683 0.4353 0.8141
C12 C 0.5445(15) 0.6096(7) 0.9733(9)
H23 H 0.5160 0.6088 1.0549
H24 H 0.4136 0.6208 0.9332
C13 C 0.8124(15) 0.5001(8) 1.0117(9)
H25 H 0.8752 0.4437 0.9831
H26 H 0.7711 0.4893 1.0904
C14 C 0.9745(13) 0.5780(8) 1.0094(9)
H27 H 1.0782 0.5670 1.0689
H28 H 1.0448 0.5771 0.9361
C15 C 0.8788(14) 0.6723(8) 1.0272(7)
H29 H 0.9839 0.7194 1.0144
H30 H 0.8335 0.6776 1.1061
H31 H 0.657(17) 0.703(10) 0.554(8)
H32 H 0.899(10) 0.554(5) 0.769(5)
N2 N 0.6971(11) 0.8399(6) 0.7834(6)
N3 N 0.6949(9) 0.6899(8) 0.9478(5)
N4 N 0.7771(13) 0.5559(6) 0.7513(7)
N5 N 0.7861(10) 0.7033(7) 0.5951(5)
N6 N 0.6218(12) 0.5222(6) 0.9406(7)
N7 N 0.8501(12) 0.8725(6) 0.5985(7)
N8 N 0.4070(9) 0.6739(5) 0.7263(6)
N9 N 0.2414(9) 0.6919(8) 0.7619(4)
Ni1 Ni 0.74018(14) 0.69643(7) 0.76840(8)
N1_2 N 1.0762(10) 0.7112(7) 0.7970(6)
Ni1_2 Ni -0.25982(14) 0.69643(7) 0.76840(8)
O5 O 0.8864(14) 0.8975(8) 0.2217(9)
loop_
_geom_bond_atom_site_label_1
_geom_bond_atom_site_label_2
_geom_bond_site_symmetry_1
_geom_bond_site_symmetry_2
O1 Cl1 1_555 1_555
Cl1 O2 1_555 1_555
O3 Cl1 1_555 1_555
O4 Cl1 1_555 1_555
N1 N9 1_555 1_555
C1 H1 1_555 1_555
H2 C1 1_555 1_555
C2 C1 1_555 1_555
H3 C2 1_555 1_555
H4 C2 1_555 1_555
C3 H5 1_555 1_555
H6 C3 1_555 1_555
C4 H7 1_555 1_555
H8 C4 1_555 1_555
C5 C4 1_555 1_555
H9 C5 1_555 1_555
H10 C5 1_555 1_555
C6 C5 1_555 1_555
H11 C6 1_555 1_555
H12 C6 1_555 1_555
C7 H13 1_555 1_555
H14 C7 1_555 1_555
C8 H15 1_555 1_555
C9 C8 1_555 1_555
H16 C9 1_555 1_555
H17 C9 1_555 1_555
H18 C9 1_555 1_555
C10 C8 1_555 1_555
H19 C10 1_555 1_555
H20 C10 1_555 1_555
C11 H21 1_555 1_555
H22 C11 1_555 1_555
C12 H23 1_555 1_555
H24 C12 1_555 1_555
C13 H25 1_555 1_555
H26 C13 1_555 1_555
C14 C13 1_555 1_555
H27 C14 1_555 1_555
H28 C14 1_555 1_555
C15 C14 1_555 1_555
H29 C15 1_555 1_555
H30 C15 1_555 1_555
H31 N5 1_555 1_555
H32 N4 1_555 1_555
N2 C2 1_555 1_555
N3 C1 1_555 1_555
N4 C10 1_555 1_555
N5 C7 1_555 1_555
N6 C11 1_555 1_555
N7 C3 1_555 1_555
N8 N9 1_555 1_555
Ni1 N2 1_555 1_555
N1_2 Ni1 1_555 1_555
Ni1_2 N1 1_555 1_555
C3 N2 1_555 1_555
C4 N2 1_555 1_555
C6 N7 1_555 1_555
C7 N7 1_555 1_555
C8 N5 1_555 1_555
C11 N4 1_555 1_555
C12 N3 1_555 1_555
C12 N6 1_555 1_555
C13 N6 1_555 1_555
C15 N3 1_555 1_555
N3 Ni1 1_555 1_555
N4 Ni1 1_555 1_555
N5 Ni1 1_555 1_555
N8 Ni1 1_555 1_555

#END
