
#######################################################################
#
#                 Cambridge Crystallographic Data Centre
#                                CCDC 
#
#######################################################################
#
# If this CIF has been generated from an entry in the Cambridge 
# Structural Database, then it will include bibliographic, chemical, 
# crystal, experimental, refinement or atomic coordinate data resulting 
# from the CCDC's data processing and validation procedures.
#
#######################################################################

data_MOXLOA
_symmetry_cell_setting           monoclinic
_symmetry_space_group_name_H-M   'P 21/n'
_symmetry_Int_Tables_number      14
_space_group_name_Hall           '-P 2yn'
loop_
_symmetry_equiv_pos_site_id
_symmetry_equiv_pos_as_xyz
1 x,y,z
2 1/2-x,1/2+y,1/2-z
3 -x,-y,-z
4 1/2+x,1/2-y,1/2+z
_cell_length_a                   12.3540(10)
_cell_length_b                   15.306(2)
_cell_length_c                   14.3080(10)
_cell_angle_alpha                90
_cell_angle_beta                 91.000(10)
_cell_angle_gamma                90
_cell_volume                     2705.09
loop_
_atom_site_label
_atom_site_type_symbol
_atom_site_fract_x
_atom_site_fract_y
_atom_site_fract_z
Sn1 Sn 0.0081(1) 0.2226(1) 0.1603(1)
O1 O 0.1009(3) 0.2421(2) 0.0361(2)
O2 O 0.2119(3) 0.3336(2) 0.1120(2)
N1 N 0.3840(3) 0.2988(2) -0.1994(2)
C1 C -0.0955(3) 0.1358(3) 0.0850(3)
C2 C -0.1012(6) 0.1419(4) -0.0134(4)
C3 C -0.1625(7) 0.0831(6) -0.0646(5)
C4 C -0.2186(7) 0.0183(5) -0.0198(6)
C5 C -0.2170(6) 0.0125(5) 0.0701(6)
C6 C -0.1572(5) 0.0714(4) 0.1238(4)
C7 C -0.0330(4) 0.3569(3) 0.1757(3)
C8 C -0.0243(6) 0.3991(4) 0.2587(4)
C9 C -0.0501(7) 0.4859(5) 0.2665(6)
C10 C -0.0861(6) 0.5316(4) 0.1917(7)
C11 C -0.0956(5) 0.4915(4) 0.1088(6)
C12 C -0.0700(4) 0.4043(3) 0.1004(4)
C13 C 0.1300(3) 0.1596(3) 0.2430(3)
C14 C 0.2119(5) 0.2024(5) 0.2881(4)
C15 C 0.2914(6) 0.1546(6) 0.3395(4)
C16 C 0.2831(6) 0.0646(6) 0.3451(4)
C17 C 0.2026(5) 0.0242(4) 0.3022(4)
C18 C 0.1273(4) 0.0691(3) 0.2513(4)
C19 C 0.1845(3) 0.2914(3) 0.0434(3)
C20 C 0.2520(3) 0.2966(3) -0.0433(3)
C21 C 0.3450(3) 0.3440(3) -0.0437(3)
C22 C 0.4093(3) 0.3424(3) -0.1227(3)
C23 C 0.2900(4) 0.2561(3) -0.2010(3)
C24 C 0.2235(4) 0.2512(3) -0.1239(3)
N1C N -0.1160(3) 0.2012(2) 0.3006(2)
Sn1C Sn 0.5081(1) 0.2774(1) -0.3397(1)
C25 C 0.4976(16) 0.1615(10) 0.0552(13)
C26 C 0.5330 0.2280 0.0813
C27 C 0.4822(6) 0.2536(7) 0.1633(7)
C28 C 0.5118 0.3316 0.2071
C29 C 0.5920 0.3841 0.1690
C30 C 0.6428 0.3586 0.0870
C31 C 0.6133 0.2805 0.0432
loop_
_geom_bond_atom_site_label_1
_geom_bond_atom_site_label_2
_geom_bond_site_symmetry_1
_geom_bond_site_symmetry_2
Sn1 O1 1_555 1_555
O1 C19 1_555 1_555
O2 C19 1_555 1_555
N1 C22 1_555 1_555
C1 Sn1 1_555 1_555
C2 C1 1_555 1_555
C3 C2 1_555 1_555
C4 C3 1_555 1_555
C5 C4 1_555 1_555
C6 C1 1_555 1_555
C7 Sn1 1_555 1_555
C8 C7 1_555 1_555
C9 C8 1_555 1_555
C10 C9 1_555 1_555
C11 C10 1_555 1_555
C12 C7 1_555 1_555
C13 Sn1 1_555 1_555
C14 C13 1_555 1_555
C15 C14 1_555 1_555
C16 C15 1_555 1_555
C17 C16 1_555 1_555
C18 C13 1_555 1_555
C19 C20 1_555 1_555
C20 C21 1_555 1_555
C21 C22 1_555 1_555
C23 N1 1_555 1_555
C24 C20 1_555 1_555
C25 C26 1_555 1_555
C26 C27 1_555 1_555
C27 C28 1_555 1_555
C28 C29 1_555 1_555
C29 C30 1_555 1_555
C30 C31 1_555 1_555
C31 C26 1_555 1_555
N1C Sn1 1_555 1_555
Sn1C N1 1_555 1_555
C5 C6 1_555 1_555
C11 C12 1_555 1_555
C17 C18 1_555 1_555
C23 C24 1_555 1_555

#END
