
#######################################################################
#
#                 Cambridge Crystallographic Data Centre
#                                CCDC 
#
#######################################################################
#
# If this CIF has been generated from an entry in the Cambridge 
# Structural Database, then it will include bibliographic, chemical, 
# crystal, experimental, refinement or atomic coordinate data resulting 
# from the CCDC's data processing and validation procedures.
#
#######################################################################

data_MOXLIW
_symmetry_cell_setting           triclinic
_symmetry_space_group_name_H-M   'P -1'
_symmetry_Int_Tables_number      2
_space_group_name_Hall           '-P 1'
loop_
_symmetry_equiv_pos_site_id
_symmetry_equiv_pos_as_xyz
1 x,y,z
2 -x,-y,-z
_cell_length_a                   7.3640(5)
_cell_length_b                   8.5482(6)
_cell_length_c                   10.6487(7)
_cell_angle_alpha                106.6640(10)
_cell_angle_beta                 102.2210(10)
_cell_angle_gamma                94.4670(10)
_cell_volume                     620.707
loop_
_atom_site_label
_atom_site_type_symbol
_atom_site_fract_x
_atom_site_fract_y
_atom_site_fract_z
Er1 Er 0.25015(2) 0.244024(16) 0.415110(14)
O1 O 0.5065(4) 0.3132(3) 0.5975(2)
O2 O 0.5862(4) 0.5847(3) 0.6607(3)
O3 O 0.8385(5) 0.1740(4) 1.0052(3)
O4 O 0.1777(4) 0.4322(3) 0.5964(3)
O5 O -0.0326(4) 0.5894(3) 0.6607(2)
O6 O -0.0667(4) 0.1424(4) 0.4193(3)
O7 O -0.2376(4) -0.0219(3) 0.4940(3)
O8 O 0.1131(4) 0.1006(3) 0.1891(3)
H1 H 0.1969 0.0668 0.1499
H2 H 0.0567 0.1635 0.1519
O9 O 0.4707(4) 0.0827(4) 0.3383(3)
H3 H 0.5795 0.1310 0.3807
H4 H 0.4579 0.0682 0.2553
N1 N 0.8231(5) 0.4472(4) 1.0769(3)
H5 H 0.8747 0.4483 1.1596
C1 C 0.5803(5) 0.4479(4) 0.6819(4)
C2 C 0.6668(5) 0.4479(4) 0.8236(3)
C3 C 0.7021(5) 0.5946(4) 0.9319(4)
H6 H 0.6724 0.6926 0.9171
C4 C 0.7799(6) 0.5922(4) 1.0586(4)
C5 C 0.7923(6) 0.3012(5) 0.9769(4)
C6 C 0.7096(6) 0.3039(5) 0.8450(4)
H7 H 0.6842 0.2070 0.7725
C7 C 0.8201(7) 0.7414(5) 1.1799(4)
H8 H 0.7428 0.7267 1.2391
H9 H 0.7933 0.8364 1.1523
H10 H 0.9501 0.7574 1.2267
C8 C 0.0422(5) 0.5065(4) 0.5741(3)
C9 C -0.0870(5) 0.0353(4) 0.4750(4)
O4A O -0.1777(4) 0.5678(3) 0.4036(3)
O5A O 0.0326(4) 0.4106(3) 0.3393(2)
C8A C -0.0422(5) 0.4935(4) 0.4259(3)
O6A O 0.0667(4) -0.1424(4) 0.5807(3)
O7A O 0.2376(4) 0.0219(3) 0.5060(3)
C9A C 0.0870(5) -0.0353(4) 0.5250(4)
Er1A Er -0.25015(2) -0.244024(16) 0.584890(14)
O1A O -0.5065(4) -0.3132(3) 0.4025(2)
O2A O -0.5862(4) -0.5847(3) 0.3393(3)
O3A O -0.8385(5) -0.1740(4) -0.0052(3)
O8A O -0.1131(4) -0.1006(3) 0.8109(3)
H1A H -0.1969 -0.0668 0.8501
H2A H -0.0567 -0.1635 0.8481
O9A O -0.4707(4) -0.0827(4) 0.6617(3)
H3A H -0.5795 -0.1310 0.6193
H4A H -0.4579 -0.0682 0.7447
N1A N -0.8231(5) -0.4472(4) -0.0769(3)
H5A H -0.8747 -0.4483 -0.1596
C1A C -0.5803(5) -0.4479(4) 0.3181(4)
C2A C -0.6668(5) -0.4479(4) 0.1764(3)
C3A C -0.7021(5) -0.5946(4) 0.0681(4)
H6A H -0.6724 -0.6926 0.0829
C4A C -0.7799(6) -0.5922(4) -0.0586(4)
C5A C -0.7923(6) -0.3012(5) 0.0231(4)
C6A C -0.7096(6) -0.3039(5) 0.1550(4)
H7A H -0.6842 -0.2070 0.2275
C7A C -0.8201(7) -0.7414(5) -0.1799(4)
H8A H -0.7428 -0.7267 -0.2391
H9A H -0.7933 -0.8364 -0.1523
H10A H -0.9501 -0.7574 -0.2267
Er1_2 Er -0.74985(2) -0.755976(16) 0.415110(14)
Er1A_2 Er -0.25015(2) 0.755976(16) 0.584890(14)
Er1A_3 Er 0.74985(2) 0.755976(16) 0.584890(14)
O2_2 O -0.4138(4) -0.4153(3) 0.6607(3)
O2A_2 O 0.4138(4) 0.4153(3) 0.3393(3)
O4A_2 O -0.1777(4) -0.4322(3) 0.4036(3)
O5_2 O -0.0326(4) -0.4106(3) 0.6607(2)
O10 O 0.5274(13) 0.0408(12) 0.0858(8)
O11? O 0.636(3) 0.188(2) 0.1908(19)
loop_
_geom_bond_atom_site_label_1
_geom_bond_atom_site_label_2
_geom_bond_site_symmetry_1
_geom_bond_site_symmetry_2
Er1 O1 1_555 1_555
O1 C1 1_555 1_555
O2 C1 1_555 1_555
O3 C5 1_555 1_555
O4 Er1 1_555 1_555
O5 C8 1_555 1_555
O6 Er1 1_555 1_555
O7 C9 1_555 1_555
O8 Er1 1_555 1_555
H1 O8 1_555 1_555
H2 O8 1_555 1_555
O9 Er1 1_555 1_555
H3 O9 1_555 1_555
H4 O9 1_555 1_555
N1 H5 1_555 1_555
C1 C2 1_555 1_555
C2 C3 1_555 1_555
C3 H6 1_555 1_555
C4 N1 1_555 1_555
C5 N1 1_555 1_555
C6 C2 1_555 1_555
H7 C6 1_555 1_555
C7 C4 1_555 1_555
H8 C7 1_555 1_555
H9 C7 1_555 1_555
H10 C7 1_555 1_555
C8 O4 1_555 1_555
C9 O6 1_555 1_555
O4A C8A 1_555 1_555
O5A Er1 1_555 1_555
C8A C8 1_555 1_555
O6A C9A 1_555 1_555
O7A Er1 1_555 1_555
C9A C9 1_555 1_555
Er1A O7 1_555 1_555
O1A Er1A 1_555 1_555
O2A C1A 1_555 1_555
O3A C5A 1_555 1_555
O8A Er1A 1_555 1_555
H1A O8A 1_555 1_555
H2A O8A 1_555 1_555
O9A Er1A 1_555 1_555
H3A O9A 1_555 1_555
H4A O9A 1_555 1_555
N1A H5A 1_555 1_555
C1A O1A 1_555 1_555
C2A C1A 1_555 1_555
C3A C2A 1_555 1_555
H6A C3A 1_555 1_555
C4A N1A 1_555 1_555
C5A N1A 1_555 1_555
C6A C2A 1_555 1_555
H7A C6A 1_555 1_555
C7A C4A 1_555 1_555
H8A C7A 1_555 1_555
H9A C7A 1_555 1_555
H10A C7A 1_555 1_555
Er1_2 O2A 1_555 1_555
Er1A_2 O5 1_555 1_555
Er1A_3 O2 1_555 1_555
O2_2 Er1A 1_555 1_555
O2A_2 Er1 1_555 1_555
O4A_2 Er1A 1_555 1_555
O5_2 Er1A 1_555 1_555
C3 C4 1_555 1_555
C5 C6 1_555 1_555
O4A Er1A_2 1_555 1_555
O5A C8A 1_555 1_555
O6A Er1A 1_555 1_555
O7A C9A 1_555 1_555
C3A C4A 1_555 1_555
C5A C6A 1_555 1_555

#END
