
#######################################################################
#
#                 Cambridge Crystallographic Data Centre
#                                CCDC 
#
#######################################################################
#
# If this CIF has been generated from an entry in the Cambridge 
# Structural Database, then it will include bibliographic, chemical, 
# crystal, experimental, refinement or atomic coordinate data resulting 
# from the CCDC's data processing and validation procedures.
#
#######################################################################

data_MOXNUJ
_symmetry_cell_setting           tetragonal
_symmetry_space_group_name_H-M   'I 41/a'
_symmetry_Int_Tables_number      88
_space_group_name_Hall           '-I 4ad'
loop_
_symmetry_equiv_pos_site_id
_symmetry_equiv_pos_as_xyz
1 x,y,z
2 3/4-y,1/4+x,1/4+z
3 1/2-x,-y,1/2+z
4 3/4+y,3/4-x,3/4+z
5 1/2+x,1/2+y,1/2+z
6 1/4-y,3/4+x,3/4+z
7 -x,1/2-y,z
8 1/4+y,1/4-x,1/4+z
9 -x,-y,-z
10 1/4+y,3/4-x,3/4-z
11 1/2+x,y,1/2-z
12 1/4-y,1/4+x,1/4-z
13 1/2-x,1/2-y,1/2-z
14 3/4+y,1/4-x,1/4-z
15 x,1/2+y,-z
16 3/4-y,3/4+x,3/4-z
_cell_length_a                   22.782(3)
_cell_length_b                   22.782(3)
_cell_length_c                   9.804(4)
_cell_angle_alpha                90
_cell_angle_beta                 90
_cell_angle_gamma                90
_cell_volume                     5088.47
loop_
_atom_site_label
_atom_site_type_symbol
_atom_site_fract_x
_atom_site_fract_y
_atom_site_fract_z
Cu1 Cu -0.5000 0.0000 0.0000
N1 N -0.49491(5) 0.06631(4) -0.13578(11)
C1 C -0.53542(5) 0.07177(5) -0.23142(12)
H1 H -0.5678 0.0470 -0.2287
C2 C -0.53186(4) 0.11214(4) -0.33414(9)
H2 H -0.5615 0.1151 -0.3991
C3 C -0.48411(4) 0.14803(4) -0.33949(8)
C4 C -0.44242(5) 0.14394(5) -0.23852(10)
H3 H -0.4097 0.1684 -0.2383
C5 C -0.45042(6) 0.10294(7) -0.13852(14)
H4 H -0.4229 0.1009 -0.0687
O1 O -0.47399(3) 0.18890(3) -0.43690(7)
C6 C -0.51922(3) 0.19831(3) -0.53585(7)
H5 H -0.5561 0.2072 -0.4909
H6 H -0.5245 0.1634 -0.5912
C7 C -0.5000 0.2500 -0.6250
O2 O -0.41533(5) -0.01603(6) -0.02034(14)
C8 C -0.38849(8) -0.04184(8) -0.1065(2)
O3 O -0.41093(4) -0.06343(4) -0.21274(12)
C9 C -0.32200(8) -0.04836(9) -0.1028(2)
H7 H -0.3105 -0.0660 -0.0181
H8 H -0.3041 -0.0104 -0.1110
H9 H -0.3095 -0.0728 -0.1772
O4 O -0.52259(5) -0.07756(4) -0.18584(10)
H10 H -0.4883 -0.0894 -0.2017
H11 H -0.5450 -0.1075 -0.1767
Cu1F Cu -0.5000 0.5000 0.0000
Cu1C Cu -0.2500 0.2500 -1.2500
Cu1E Cu -0.7500 0.2500 -1.2500
N1F N -0.50509(5) 0.43369(4) -0.13578(11)
N1O N -0.31631(4) 0.25509(5) -1.11422(11)
N1I N -0.68369(4) 0.24491(5) -1.11422(11)
N1H N -0.50509(5) -0.06631(4) 0.13578(11)
N1N N -0.49491(5) 0.56631(4) 0.13578(11)
C1F C -0.46458(5) 0.42823(5) -0.23142(12)
C1O C -0.32177(5) 0.21458(5) -1.01858(12)
C1I C -0.67823(5) 0.28542(5) -1.01858(12)
H1F H -0.4322 0.4530 -0.2287
H1O H -0.2970 0.1822 -1.0213
H1I H -0.7030 0.3178 -1.0213
C2F C -0.46814(4) 0.38786(4) -0.33414(9)
C2O C -0.36214(4) 0.21814(4) -0.91586(9)
C2I C -0.63786(4) 0.28186(4) -0.91586(9)
H2F H -0.4385 0.3849 -0.3991
H2O H -0.3651 0.1885 -0.8509
H2I H -0.6349 0.3115 -0.8509
C3F C -0.51589(4) 0.35197(4) -0.33949(8)
C3O C -0.39803(4) 0.26589(4) -0.91051(8)
C3I C -0.60197(4) 0.23411(4) -0.91051(8)
C4F C -0.55758(5) 0.35606(5) -0.23852(10)
C4O C -0.39394(5) 0.30758(5) -1.01148(10)
C4I C -0.60606(5) 0.19242(5) -1.01148(10)
H3F H -0.5903 0.3316 -0.2383
H3O H -0.4184 0.3403 -1.0117
H3I H -0.5816 0.1597 -1.0117
C5F C -0.54958(6) 0.39706(7) -0.13852(14)
C5O C -0.35294(7) 0.29958(6) -1.11148(14)
C5I C -0.64706(7) 0.20042(6) -1.11148(14)
H4F H -0.5771 0.3991 -0.0687
H4O H -0.3509 0.3271 -1.1813
H4I H -0.6491 0.1729 -1.1813
O1F O -0.52601(3) 0.31110(3) -0.43690(7)
O1O O -0.43890(3) 0.27601(3) -0.81310(7)
O1I O -0.56110(3) 0.22399(3) -0.81310(7)
C6F C -0.48078(3) 0.30169(3) -0.53585(7)
C6O C -0.44831(3) 0.23078(3) -0.71415(7)
C6I C -0.55169(3) 0.26922(3) -0.71415(7)
H5F H -0.4439 0.2928 -0.4909
H5O H -0.4572 0.1939 -0.7591
H5I H -0.5428 0.3061 -0.7591
H6F H -0.4755 0.3366 -0.5912
H6O H -0.4134 0.2255 -0.6588
H6I H -0.5866 0.2745 -0.6588
O2H O -0.58467(5) 0.01603(6) 0.02034(14)
O2F O -0.58467(5) 0.51603(6) -0.02034(14)
O2N O -0.41533(5) 0.48397(6) 0.02034(14)
C8H C -0.61151(8) 0.04184(8) 0.1065(2)
C8F C -0.61151(8) 0.54184(8) -0.1065(2)
C8N C -0.38849(8) 0.45816(8) 0.1065(2)
O3H O -0.58907(4) 0.06343(4) 0.21274(12)
O3F O -0.58907(4) 0.56343(4) -0.21274(12)
O3N O -0.41093(4) 0.43657(4) 0.21274(12)
C9H C -0.67800(8) 0.04836(9) 0.1028(2)
C9F C -0.67800(8) 0.54836(9) -0.1028(2)
C9N C -0.32200(8) 0.45164(9) 0.1028(2)
H7H H -0.6895 0.0660 0.0181
H7F H -0.6895 0.5660 -0.0181
H7N H -0.3105 0.4340 0.0181
H8H H -0.6959 0.0104 0.1110
H8F H -0.6959 0.5104 -0.1110
H8N H -0.3041 0.4896 0.1110
H9H H -0.6905 0.0728 0.1772
H9F H -0.6905 0.5728 -0.1772
H9N H -0.3095 0.4272 0.1772
O4H O -0.47741(5) 0.07756(4) 0.18584(10)
O4F O -0.47741(5) 0.57756(4) -0.18584(10)
O4N O -0.52259(5) 0.42244(4) 0.18584(10)
H10H H -0.5117 0.0894 0.2017
H10F H -0.5117 0.5894 -0.2017
H10N H -0.4883 0.4106 0.2017
H11H H -0.4550 0.1075 0.1767
H11F H -0.4550 0.6075 -0.1767
H11N H -0.5450 0.3925 0.1767
O5 O -0.61282(4) -0.08951(5) -0.37016(13)
H12 H -0.6234 -0.1189 -0.4177
H13 H -0.5874 -0.0856 -0.3152
O6 O -0.56492(4) -0.00135(4) -0.52825(11)
H14 H -0.5738 0.0163 -0.6043
H15 H -0.5802 -0.0267 -0.4820
O7 O -0.67719(5) -0.05204(6) -0.15102(13)
H16 H -0.6589 -0.0621 -0.2168
H17 H -0.6534 -0.0330 -0.0963
loop_
_geom_bond_atom_site_label_1
_geom_bond_atom_site_label_2
_geom_bond_site_symmetry_1
_geom_bond_site_symmetry_2
Cu1 N1 1_555 1_555
N1 C1 1_555 1_555
C1 H1 1_555 1_555
C2 C1 1_555 1_555
H2 C2 1_555 1_555
C3 C2 1_555 1_555
C4 C3 1_555 1_555
H3 C4 1_555 1_555
C5 N1 1_555 1_555
H4 C5 1_555 1_555
O1 C3 1_555 1_555
C6 O1 1_555 1_555
H5 C6 1_555 1_555
H6 C6 1_555 1_555
C7 C6 1_555 1_555
O2 Cu1 1_555 1_555
C8 O2 1_555 1_555
O3 C8 1_555 1_555
C9 C8 1_555 1_555
H7 C9 1_555 1_555
H8 C9 1_555 1_555
H9 C9 1_555 1_555
O4 Cu1 1_555 1_555
H10 O4 1_555 1_555
H11 O4 1_555 1_555
O5 H12 1_555 1_555
H13 O5 1_555 1_555
O6 H14 1_555 1_555
H15 O6 1_555 1_555
O7 H16 1_555 1_555
H17 O7 1_555 1_555
Cu1F N1F 1_555 1_555
Cu1C N1O 1_555 1_555
Cu1E N1I 1_555 1_555
N1F C1F 1_555 1_555
N1O C1O 1_555 1_555
N1I C1I 1_555 1_555
N1H Cu1 1_555 1_555
N1N Cu1F 1_555 1_555
C1F H1F 1_555 1_555
C1O H1O 1_555 1_555
C1I H1I 1_555 1_555
C2F C1F 1_555 1_555
C2O C1O 1_555 1_555
C2I C1I 1_555 1_555
H2F C2F 1_555 1_555
H2O C2O 1_555 1_555
H2I C2I 1_555 1_555
C3F C2F 1_555 1_555
C3O C2O 1_555 1_555
C3I C2I 1_555 1_555
C4F C3F 1_555 1_555
C4O C3O 1_555 1_555
C4I C3I 1_555 1_555
H3F C4F 1_555 1_555
H3O C4O 1_555 1_555
H3I C4I 1_555 1_555
C5F N1F 1_555 1_555
C5O N1O 1_555 1_555
C5I N1I 1_555 1_555
H4F C5F 1_555 1_555
H4O C5O 1_555 1_555
H4I C5I 1_555 1_555
O1F C3F 1_555 1_555
O1O C3O 1_555 1_555
O1I C3I 1_555 1_555
C6F C7 1_555 1_555
C6O C7 1_555 1_555
C6I C7 1_555 1_555
H5F C6F 1_555 1_555
H5O C6O 1_555 1_555
H5I C6I 1_555 1_555
H6F C6F 1_555 1_555
H6O C6O 1_555 1_555
H6I C6I 1_555 1_555
O2H Cu1 1_555 1_555
O2F Cu1F 1_555 1_555
O2N Cu1F 1_555 1_555
C8H O2H 1_555 1_555
C8F O2F 1_555 1_555
C8N O2N 1_555 1_555
O3H C8H 1_555 1_555
O3F C8F 1_555 1_555
O3N C8N 1_555 1_555
C9H C8H 1_555 1_555
C9F C8F 1_555 1_555
C9N C8N 1_555 1_555
H7H C9H 1_555 1_555
H7F C9F 1_555 1_555
H7N C9N 1_555 1_555
H8H C9H 1_555 1_555
H8F C9F 1_555 1_555
H8N C9N 1_555 1_555
H9H C9H 1_555 1_555
H9F C9F 1_555 1_555
H9N C9N 1_555 1_555
O4H Cu1 1_555 1_555
O4F Cu1F 1_555 1_555
O4N Cu1F 1_555 1_555
H10H O4H 1_555 1_555
H10F O4F 1_555 1_555
H10N O4N 1_555 1_555
H11H O4H 1_555 1_555
H11F O4F 1_555 1_555
H11N O4N 1_555 1_555
C4 C5 1_555 1_555
C4F C5F 1_555 1_555
C4O C5O 1_555 1_555
C4I C5I 1_555 1_555
O1F C6F 1_555 1_555
O1O C6O 1_555 1_555
O1I C6I 1_555 1_555

#END
