
#######################################################################
#
#                 Cambridge Crystallographic Data Centre
#                                CCDC 
#
#######################################################################
#
# If this CIF has been generated from an entry in the Cambridge 
# Structural Database, then it will include bibliographic, chemical, 
# crystal, experimental, refinement or atomic coordinate data resulting 
# from the CCDC's data processing and validation procedures.
#
#######################################################################

data_MOXPEV
_symmetry_cell_setting           monoclinic
_symmetry_space_group_name_H-M   'C 2/c'
_symmetry_Int_Tables_number      15
_space_group_name_Hall           '-C 2yn'
loop_
_symmetry_equiv_pos_site_id
_symmetry_equiv_pos_as_xyz
1 x,y,z
2 -x,y,1/2-z
3 1/2+x,1/2+y,z
4 1/2-x,1/2+y,1/2-z
5 -x,-y,-z
6 x,-y,1/2+z
7 1/2-x,1/2-y,-z
8 1/2+x,1/2-y,1/2+z
_cell_length_a                   14.272(2)
_cell_length_b                   24.516(4)
_cell_length_c                   21.640(3)
_cell_angle_alpha                90
_cell_angle_beta                 97.075(4)
_cell_angle_gamma                90
_cell_volume                     7514.02
loop_
_atom_site_label
_atom_site_type_symbol
_atom_site_fract_x
_atom_site_fract_y
_atom_site_fract_z
Cu1 Cu -0.109038(8) 0.123830(5) -0.429597(6)
C1 C -0.15117(4) 0.31815(3) -0.11216(3)
C2 C -0.14344(4) 0.30073(2) -0.18051(2)
H1 H -0.1978 0.3145 -0.2082
H2 H -0.0858 0.3159 -0.1941
O1 O -0.14115(3) 0.24296(2) -0.18297(2)
C3 C -0.13215(4) 0.21731(3) -0.23844(3)
C4 C -0.12095(5) 0.24795(2) -0.28986(3)
H3 H -0.1191 0.2863 -0.2885
C5 C -0.11291(5) 0.22062(3) -0.34159(3)
H4 H -0.1087 0.2411 -0.3779
N1 N -0.11022(4) 0.16665(2) -0.34654(3)
C6 C -0.12215(5) 0.13768(3) -0.29591(3)
H5 H -0.1253 0.0995 -0.2989
C7 C -0.13016(5) 0.16237(3) -0.23851(3)
H6 H -0.1339 0.1419 -0.2022
C8 C -0.15619(5) 0.38060(2) -0.10742(3)
H7 H -0.1394 0.3923 -0.0642
H8 H -0.1123 0.3976 -0.1331
O2 O -0.25323(3) 0.39630(2) -0.129608(19)
C9 C -0.27684(5) 0.44526(2) -0.11483(3)
C10 C -0.37175(5) 0.45403(3) -0.12002(3)
H9 H -0.4147 0.4264 -0.1342
C11 C -0.40288(4) 0.50482(2) -0.10389(3)
H10 H -0.4685 0.5099 -0.1060
N2 N -0.34773(5) 0.54753(2) -0.08554(3)
C12 C -0.25167(5) 0.53665(4) -0.08140(3)
H11 H -0.2081 0.5640 -0.0672
C13 C -0.21873(8) 0.48594(4) -0.09792(7)
H12 H -0.1534 0.4805 -0.0970
C14 C -0.23471(4) 0.29119(2) -0.09072(3)
H13 H -0.2924 0.3003 -0.1182
H14 H -0.2270 0.2515 -0.0897
O3 O -0.23849(3) 0.31265(3) -0.02831(3)
C15 C -0.32142(5) 0.32714(4) -0.00949(4)
C16 C -0.40500(5) 0.31209(3) -0.04252(3)
H15 H -0.4070 0.2908 -0.0788
C17 C -0.48724(6) 0.32972(3) -0.02021(3)
H16 H -0.5449 0.3195 -0.0431
N3 N -0.49164(3) 0.36000(2) 0.03112(2)
C18 C -0.40679(5) 0.37366(3) 0.06080(4)
H17 H -0.4056 0.3946 0.0973
C19 C -0.32230(5) 0.35954(3) 0.04225(3)
H18 H -0.2655 0.3718 0.0645
C20 C -0.06148(5) 0.30011(4) -0.07293(4)
H19 H -0.0644 0.3086 -0.0290
H20 H -0.0524 0.2607 -0.0771
O4 O 0.01410(3) 0.32935(2) -0.09552(3)
C21 C 0.09873(4) 0.33180(2) -0.05781(3)
C22 C 0.16848(6) 0.36283(4) -0.08018(4)
H21 H 0.1567 0.3808 -0.1187
C23 C 0.25221(5) 0.36670(2) -0.04607(3)
H22 H 0.2994 0.3863 -0.0632
N4 N 0.27526(5) 0.34489(3) 0.01093(3)
C24 C 0.20961(5) 0.31567(3) 0.03321(4)
H23 H 0.2219 0.2997 0.0728
C25 C 0.12408(5) 0.30865(2) -0.00108(4)
H24 H 0.0796 0.2864 0.0154
Cu1C Cu -0.390962(8) -0.376170(5) -0.070403(6)
Cu1C_2 Cu -0.390962(8) 0.623830(5) -0.070403(6)
Cu1G Cu -0.609038(8) 0.376170(5) 0.070403(6)
Cu1G_2 Cu 0.390962(8) 0.376170(5) 0.070403(6)
Cu1D Cu 0.109038(8) -0.123830(5) -0.570403(6)
Cu1D_2 Cu -0.890962(8) -0.123830(5) -0.570403(6)
C1C C -0.34883(4) -0.18185(3) -0.38784(3)
C2C C -0.35656(4) -0.19927(2) -0.31949(2)
H1C H -0.3022 -0.1855 -0.2918
H2C H -0.4142 -0.1841 -0.3059
O1C O -0.35885(3) -0.25704(2) -0.31703(2)
C3C C -0.36785(4) -0.28269(3) -0.26156(3)
C4C C -0.37905(5) -0.25205(2) -0.21014(3)
H3C H -0.3809 -0.2137 -0.2115
C5C C -0.38709(5) -0.27938(3) -0.15841(3)
H4C H -0.3913 -0.2589 -0.1221
N1C N -0.38978(4) -0.33335(2) -0.15346(3)
C6C C -0.37785(5) -0.36232(3) -0.20409(3)
H5C H -0.3747 -0.4005 -0.2011
C7C C -0.36984(5) -0.33763(3) -0.26149(3)
H6C H -0.3661 -0.3581 -0.2978
C8C C -0.34381(5) -0.11940(2) -0.39258(3)
H7C H -0.3606 -0.1077 -0.4358
H8C H -0.3877 -0.1024 -0.3669
O2C O -0.24677(3) -0.10370(2) -0.370392(19)
C9C C -0.22316(5) -0.05474(2) -0.38517(3)
C10C C -0.12825(5) -0.04597(3) -0.37998(3)
H9C H -0.0853 -0.0736 -0.3658
C11C C -0.09712(4) 0.00482(2) -0.39611(3)
H10C H -0.0315 0.0099 -0.3940
N2C N -0.15227(5) 0.04753(2) -0.41446(3)
N2_2 N -0.34773(5) -0.45247(2) -0.08554(3)
C12C C -0.24833(5) 0.03665(4) -0.41860(3)
H11C H -0.2919 0.0640 -0.4328
C13C C -0.28127(8) -0.01406(4) -0.40208(7)
H12C H -0.3466 -0.0195 -0.4030
C14C C -0.26529(4) -0.20881(2) -0.40928(3)
H13C H -0.2076 -0.1997 -0.3818
H14C H -0.2730 -0.2485 -0.4103
O3C O -0.26151(3) -0.18735(3) -0.47169(3)
C15C C -0.17858(5) -0.17286(4) -0.49051(4)
C16C C -0.09500(5) -0.18791(3) -0.45748(3)
H15C H -0.0930 -0.2092 -0.4212
C17C C -0.01276(6) -0.17028(3) -0.47979(3)
H16C H 0.0449 -0.1805 -0.4569
N3C N -0.00836(3) -0.14000(2) -0.53112(2)
N3G N 0.00836(3) 0.14000(2) -0.46888(2)
N3D N -0.50836(3) -0.36000(2) -0.03112(2)
C18C C -0.09321(5) -0.12634(3) -0.56080(4)
H17C H -0.0944 -0.1054 -0.5973
C19C C -0.17770(5) -0.14046(3) -0.54225(3)
H18C H -0.2345 -0.1282 -0.5645
C20C C -0.43852(5) -0.19989(4) -0.42707(4)
H19C H -0.4356 -0.1914 -0.4710
H20C H -0.4476 -0.2393 -0.4229
O4C O -0.51410(3) -0.17065(2) -0.40448(3)
C21C C -0.59873(4) -0.16820(2) -0.44219(3)
C22C C -0.66848(6) -0.13717(4) -0.41982(4)
H21C H -0.6567 -0.1192 -0.3813
C23C C -0.75221(5) -0.13330(2) -0.45393(3)
H22C H -0.7994 -0.1137 -0.4368
N4C N -0.77526(5) -0.15511(3) -0.51093(3)
N4G N -0.22474(5) 0.15511(3) -0.48907(3)
N4D N -0.27526(5) -0.34489(3) -0.01093(3)
C24C C -0.70961(5) -0.18433(3) -0.53321(4)
H23C H -0.7219 -0.2003 -0.5728
C25C C -0.62408(5) -0.19135(2) -0.49892(4)
H24C H -0.5796 -0.2136 -0.5154
B1 B 0.0000 0.42787(9) -0.2500
F1 F -0.02713(9) 0.45965(5) -0.20390(6)
F2 F -0.07235(9) 0.39595(6) -0.27269(5)
F1A F 0.02713(9) 0.45965(5) -0.29610(6)
F2A F 0.07235(9) 0.39595(6) -0.22731(5)
B2 B -0.41740(15) 0.30599(8) -0.30690(11)
F3 F -0.50852(12) 0.30022(8) -0.30769(11)
F4 F -0.38703(13) 0.27263(7) -0.34716(8)
F5 F -0.37529(15) 0.29522(12) -0.25123(11)
F6 F -0.39808(15) 0.35619(7) -0.32125(9)
N5 N -0.49293(8) 0.07432(5) -0.03337(5)
C26 C -0.45119(15) 0.04366(8) -0.05811(9)
C27 C -0.39346(17) 0.00459(9) -0.08694(10)
H25 H -0.3467 -0.0109 -0.0555
H26 H -0.3618 0.0229 -0.1183
H27 H -0.4333 -0.0243 -0.1063
N6 N -0.35967(8) 0.56220(5) -0.33104(6)
C28 C -0.34020(13) 0.51868(6) -0.31715(11)
C29 C -0.31190(16) 0.46307(6) -0.30081(10)
H28 H -0.2534 0.4635 -0.2727
H29 H -0.3026 0.4431 -0.3383
H30 H -0.3608 0.4455 -0.2805
O5 O 0.10103(9) 0.35570(6) 0.18381(5)
H31 H 0.1006 0.3278 0.2071
H32 H 0.1136 0.3404 0.1506
O6 O 0.14650(10) 0.38622(5) 0.28196(7)
H33 H 0.1211 0.3755 0.3134
H34 H 0.1362 0.4035 0.2477
O7 O -0.05081(10) 0.34939(5) 0.12299(6)
H35 H 0.0066 0.3422 0.1359
H36 H -0.0501 0.3778 0.1005
loop_
_geom_bond_atom_site_label_1
_geom_bond_atom_site_label_2
_geom_bond_site_symmetry_1
_geom_bond_site_symmetry_2
Cu1 N1 1_555 1_555
C1 C2 1_555 1_555
C2 H1 1_555 1_555
H2 C2 1_555 1_555
O1 C2 1_555 1_555
C3 O1 1_555 1_555
C4 C3 1_555 1_555
H3 C4 1_555 1_555
C5 C4 1_555 1_555
H4 C5 1_555 1_555
N1 C5 1_555 1_555
C6 N1 1_555 1_555
H5 C6 1_555 1_555
C7 C3 1_555 1_555
H6 C7 1_555 1_555
C8 C1 1_555 1_555
H7 C8 1_555 1_555
H8 C8 1_555 1_555
O2 C8 1_555 1_555
C9 O2 1_555 1_555
C10 C9 1_555 1_555
H9 C10 1_555 1_555
C11 C10 1_555 1_555
H10 C11 1_555 1_555
N2 C11 1_555 1_555
C12 N2 1_555 1_555
H11 C12 1_555 1_555
C13 C9 1_555 1_555
H12 C13 1_555 1_555
C14 C1 1_555 1_555
H13 C14 1_555 1_555
H14 C14 1_555 1_555
O3 C14 1_555 1_555
C15 O3 1_555 1_555
C16 C15 1_555 1_555
H15 C16 1_555 1_555
C17 C16 1_555 1_555
H16 C17 1_555 1_555
N3 C17 1_555 1_555
C18 N3 1_555 1_555
H17 C18 1_555 1_555
C19 C15 1_555 1_555
H18 C19 1_555 1_555
C20 C1 1_555 1_555
H19 C20 1_555 1_555
H20 C20 1_555 1_555
O4 C20 1_555 1_555
C21 O4 1_555 1_555
C22 C21 1_555 1_555
H21 C22 1_555 1_555
C23 C22 1_555 1_555
H22 C23 1_555 1_555
N4 C23 1_555 1_555
C24 N4 1_555 1_555
H23 C24 1_555 1_555
C25 C21 1_555 1_555
H24 C25 1_555 1_555
B1 F1 1_555 1_555
F2 B1 1_555 1_555
B2 F3 1_555 1_555
F4 B2 1_555 1_555
F5 B2 1_555 1_555
F6 B2 1_555 1_555
N5 C26 1_555 1_555
C26 C27 1_555 1_555
C27 H25 1_555 1_555
H26 C27 1_555 1_555
H27 C27 1_555 1_555
N6 C28 1_555 1_555
C28 C29 1_555 1_555
C29 H28 1_555 1_555
H29 C29 1_555 1_555
H30 C29 1_555 1_555
O5 H31 1_555 1_555
H32 O5 1_555 1_555
O6 H33 1_555 1_555
H34 O6 1_555 1_555
O7 H35 1_555 1_555
H36 O7 1_555 1_555
Cu1C N1C 1_555 1_555
Cu1C_2 N2 1_555 1_555
Cu1G N3 1_555 1_555
Cu1G_2 N4 1_555 1_555
Cu1D N3C 1_555 1_555
Cu1D_2 N4C 1_555 1_555
C1C C2C 1_555 1_555
C2C H1C 1_555 1_555
H2C C2C 1_555 1_555
O1C C2C 1_555 1_555
C3C O1C 1_555 1_555
C4C C3C 1_555 1_555
H3C C4C 1_555 1_555
C5C C4C 1_555 1_555
H4C C5C 1_555 1_555
N1C C5C 1_555 1_555
C6C N1C 1_555 1_555
H5C C6C 1_555 1_555
C7C C3C 1_555 1_555
H6C C7C 1_555 1_555
C8C C1C 1_555 1_555
H7C C8C 1_555 1_555
H8C C8C 1_555 1_555
O2C C8C 1_555 1_555
C9C O2C 1_555 1_555
C10C C9C 1_555 1_555
H9C C10C 1_555 1_555
C11C C10C 1_555 1_555
H10C C11C 1_555 1_555
N2C Cu1 1_555 1_555
N2_2 Cu1C 1_555 1_555
C12C N2C 1_555 1_555
H11C C12C 1_555 1_555
C13C C9C 1_555 1_555
H12C C13C 1_555 1_555
C14C C1C 1_555 1_555
H13C C14C 1_555 1_555
H14C C14C 1_555 1_555
O3C C14C 1_555 1_555
C15C O3C 1_555 1_555
C16C C15C 1_555 1_555
H15C C16C 1_555 1_555
C17C C16C 1_555 1_555
H16C C17C 1_555 1_555
N3C C17C 1_555 1_555
N3G Cu1 1_555 1_555
N3D Cu1C 1_555 1_555
C18C N3C 1_555 1_555
H17C C18C 1_555 1_555
C19C C15C 1_555 1_555
H18C C19C 1_555 1_555
C20C C1C 1_555 1_555
H19C C20C 1_555 1_555
H20C C20C 1_555 1_555
O4C C20C 1_555 1_555
C21C O4C 1_555 1_555
C22C C21C 1_555 1_555
H21C C22C 1_555 1_555
C23C C22C 1_555 1_555
H22C C23C 1_555 1_555
N4C C23C 1_555 1_555
N4G Cu1 1_555 1_555
N4D Cu1C 1_555 1_555
C24C N4C 1_555 1_555
H23C C24C 1_555 1_555
C25C C21C 1_555 1_555
H24C C25C 1_555 1_555
F1A B1 1_555 1_555
F2A B1 1_555 1_555
C6 C7 1_555 1_555
C12 C13 1_555 1_555
C18 C19 1_555 1_555
C24 C25 1_555 1_555
C6C C7C 1_555 1_555
C11C N2C 1_555 1_555
C12C C13C 1_555 1_555
C18C C19C 1_555 1_555
C24C C25C 1_555 1_555

#END
