
#######################################################################
#
#                 Cambridge Crystallographic Data Centre
#                                CCDC 
#
#######################################################################
#
# If this CIF has been generated from an entry in the Cambridge 
# Structural Database, then it will include bibliographic, chemical, 
# crystal, experimental, refinement or atomic coordinate data resulting 
# from the CCDC's data processing and validation procedures.
#
#######################################################################

data_MOXPAR
_symmetry_cell_setting           orthorhombic
_symmetry_space_group_name_H-M   'C c c m'
_symmetry_Int_Tables_number      66
_space_group_name_Hall           '-C 2 2n'
loop_
_symmetry_equiv_pos_site_id
_symmetry_equiv_pos_as_xyz
1 x,y,z
2 -x,-y,z
3 x,-y,1/2-z
4 -x,y,1/2-z
5 1/2+x,1/2+y,z
6 1/2-x,1/2-y,z
7 1/2+x,1/2-y,1/2-z
8 1/2-x,1/2+y,1/2-z
9 -x,-y,-z
10 x,y,-z
11 -x,y,1/2+z
12 x,-y,1/2+z
13 1/2-x,1/2-y,-z
14 1/2+x,1/2+y,-z
15 1/2-x,1/2+y,1/2+z
16 1/2+x,1/2-y,1/2+z
_cell_length_a                   9.0229(3)
_cell_length_b                   21.6107(8)
_cell_length_c                   24.0491(9)
_cell_angle_alpha                90
_cell_angle_beta                 90
_cell_angle_gamma                90
_cell_volume                     4689.36
loop_
_atom_site_label
_atom_site_type_symbol
_atom_site_fract_x
_atom_site_fract_y
_atom_site_fract_z
O6 O -0.317(3) 0.0220(13) -0.1308(10)
H9 H -0.2969 0.0542 -0.1025
H10 H -0.3085 -0.0176 -0.1103
Cu1 Cu 0.2500 0.2500 0.0000
C1 C 0.0262(6) 0.1871(3) 0.0698(3)
H1 H -0.0403 0.2101 0.0479
N1 N 0.1679(4) 0.19374(13) 0.06053(11)
C2 C -0.0316(6) 0.1482(4) 0.1100(3)
H2 H -0.1344 0.1444 0.1153
C3 C 0.0671(5) 0.11512(18) 0.14197(15)
C4 C 0.2130(5) 0.1231(2) 0.1335(2)
H3 H 0.2822 0.1016 0.1555
C5 C 0.2601(4) 0.1625(3) 0.0931(2)
H4 H 0.3626 0.1679 0.0880
O1 O 0.0040(3) 0.07732(15) 0.18059(12)
C6 C 0.1013(4) 0.03983(15) 0.21340(12)
H5 H 0.1660 0.0658 0.2364
H6 H 0.1631 0.0137 0.1895
C7 C 0.0000 0.0000 0.2500
N2 N 0.6151(7) 0.1822(2) 0.02285(16)
O2 O 0.5004(7) 0.1878(3) 0.0000
O3 O 0.7255(7) 0.1964(5) 0.0000
O4 O 0.6193(8) 0.1624(4) 0.0685(2)
N1E N 0.3321(4) 0.30626(13) 0.06053(11)
N1I N 0.1679(4) 0.19374(13) -0.06053(11)
N1L N 0.3321(4) 0.30626(13) -0.06053(11)
C6A C -0.1013(4) -0.03983(15) 0.21340(12)
C6B C 0.1013(4) -0.03983(15) 0.28660(12)
C6C C -0.1013(4) 0.03983(15) 0.28660(12)
N2I N 0.6151(7) 0.1822(2) -0.02285(16)
O2E O -0.0004(7) 0.3122(3) 0.0000
O5? O 0.0000(8) 0.4513(4) 0.2500(2)
H7? H 0.0238 0.4890 0.2360
H8? H -0.0946 0.4641 0.2780
O7? O 0.553(2) 0.0029(15) 0.4554(10)
H11? H 0.5213 -0.0214 0.4882
H12? H 0.5154 -0.0207 0.4231
O8? O -0.085(2) -0.0167(9) 0.0400(10)
H13? H 0.0090 -0.0186 0.0192
H14? H -0.1161 0.0271 0.0375
O9? O -0.286(3) 0.2861(14) 0.2632(12)
H15? H -0.1948 0.3043 0.2475
H16? H -0.3640 0.3175 0.2559
O10? O 0.580(3) 0.0366(11) 0.0638(11)
H17? H 0.5811 0.0143 0.0998
H18? H 0.6670 0.0201 0.0398
O11? O 0.414(2) 0.1211(11) 0.2804(12)
H19? H 0.3740 0.1044 0.3158
H20? H 0.4866 0.0898 0.2680
O12? O -0.279(3) 0.1868(15) 0.2403(13)
H21? H -0.1948 0.1681 0.2198
H22? H -0.3553 0.1942 0.2115
O13? O 0.956(2) 0.5305(9) 0.3346(11)
H23? H 0.9660 0.5455 0.2959
H24? H 1.0528 0.5394 0.3521
O14? O 0.611(2) 0.4368(10) 0.0393(10)
H25? H 0.6380 0.4227 0.0772
H26? H 0.5291 0.4091 0.0279
loop_
_geom_bond_atom_site_label_1
_geom_bond_atom_site_label_2
_geom_bond_site_symmetry_1
_geom_bond_site_symmetry_2
Cu1 N1 1_555 1_555
C1 H1 1_555 1_555
N1 C1 1_555 1_555
C2 C1 1_555 1_555
H2 C2 1_555 1_555
C3 C2 1_555 1_555
C4 C3 1_555 1_555
H3 C4 1_555 1_555
C5 N1 1_555 1_555
H4 C5 1_555 1_555
O1 C3 1_555 1_555
C6 O1 1_555 1_555
H5 C6 1_555 1_555
H6 C6 1_555 1_555
C7 C6 1_555 1_555
N2 O2 1_555 1_555
O2 Cu1 1_555 1_555
O3 N2 1_555 1_555
O4 N2 1_555 1_555
O6 H9 1_555 1_555
H10 O6 1_555 1_555
N1E Cu1 1_555 1_555
N1I Cu1 1_555 1_555
N1L Cu1 1_555 1_555
C6A C7 1_555 1_555
C6B C7 1_555 1_555
C6C C7 1_555 1_555
N2I N2 1_555 1_555
O2E Cu1 1_555 1_555
C4 C5 1_555 1_555
O2 N2I 1_555 1_555
O3 N2I 1_555 1_555

#END
