
#######################################################################
#
#                 Cambridge Crystallographic Data Centre
#                                CCDC 
#
#######################################################################
#
# If this CIF has been generated from an entry in the Cambridge 
# Structural Database, then it will include bibliographic, chemical, 
# crystal, experimental, refinement or atomic coordinate data resulting 
# from the CCDC's data processing and validation procedures.
#
#######################################################################

data_MOXPOF
_symmetry_cell_setting           tetragonal
_symmetry_space_group_name_H-M   'P 4/n'
_symmetry_Int_Tables_number      85
_space_group_name_Hall           '-P 4a'
loop_
_symmetry_equiv_pos_site_id
_symmetry_equiv_pos_as_xyz
1 x,y,z
2 1/2-x,1/2-y,z
3 1/2-y,x,z
4 y,1/2-x,z
5 -x,-y,-z
6 1/2+x,1/2+y,-z
7 1/2+y,-x,-z
8 -y,1/2+x,-z
_cell_length_a                   15.2141(1)
_cell_length_b                   15.2141(1)
_cell_length_c                   13.2235(2)
_cell_angle_alpha                90
_cell_angle_beta                 90
_cell_angle_gamma                90
_cell_volume                     3060.83
loop_
_atom_site_label
_atom_site_type_symbol
_atom_site_fract_x
_atom_site_fract_y
_atom_site_fract_z
Cu1 Cu 0.2500 -0.2500 0.0000
O1 O 0.6555(6) 0.2052(5) 0.3647(7)
N1 N 0.3206(7) -0.1568(7) 0.0749(7)
C1 C 0.3371(11) -0.0793(9) 0.0316(12)
H1 H 0.3072 -0.0654 -0.0285
C2 C 0.3956(10) -0.0185(9) 0.0700(10)
H2 H 0.4046 0.0351 0.0362
C3 C 0.4410(8) -0.0366(7) 0.1584(8)
C4 C 0.4231(9) -0.1175(8) 0.2040(9)
H3 H 0.4518 -0.1331 0.2643
C5 C 0.3639(9) -0.1741(8) 0.1613(8)
H4 H 0.3529 -0.2278 0.1940
C6 C 0.5032(8) 0.0265(9) 0.2046(9)
C7 C 0.4875(9) 0.1166(9) 0.2009(9)
H5 H 0.4404 0.1380 0.1620
C8 C 0.5397(9) 0.1753(8) 0.2534(9)
H6 H 0.5278 0.2359 0.2508
C9 C 0.6103(8) 0.1440(7) 0.3103(8)
C10 C 0.6302(8) 0.0545(8) 0.3102(9)
H7 H 0.6798 0.0334 0.3452
C11 C 0.5762(8) -0.0028(8) 0.2582(9)
H8 H 0.5892 -0.0632 0.2590
C12 C 0.7197(7) 0.1730(7) 0.4347(8)
H9 H 0.7697 0.1479 0.3981
H10 H 0.6939 0.1270 0.4773
C13 C 0.7500 0.2500 0.5000
Cu1_2 Cu 1.2500 0.7500 0.0000
Cu1_3 Cu 1.2500 -0.2500 1.0000
Cu1_4 Cu 0.2500 0.7500 1.0000
O1A O 0.8445(6) 0.2948(5) 0.3647(7)
O1G O 0.7948(5) 0.1555(6) 0.6353(7)
O1F O 0.7052(5) 0.3445(6) 0.6353(7)
N1A N 1.1794(7) 0.6568(7) 0.0749(7)
N1G N 1.1568(7) -0.1794(7) 0.9251(7)
N1F N 0.3432(7) 0.6794(7) 0.9251(7)
N1A_2 N 0.1794(7) -0.3432(7) 0.0749(7)
N1F_2 N 0.3432(7) -0.3206(7) -0.0749(7)
N1G_2 N 0.1568(7) -0.1794(7) -0.0749(7)
C1A C 1.1629(11) 0.5793(9) 0.0316(12)
C1G C 1.0793(9) -0.1629(11) 0.9684(12)
C1F C 0.4207(9) 0.6629(11) 0.9684(12)
H1A H 1.1928 0.5654 -0.0285
H1G H 1.0654 -0.1928 1.0285
H1F H 0.4346 0.6928 1.0285
C2A C 1.1044(10) 0.5185(9) 0.0700(10)
C2G C 1.0185(9) -0.1044(10) 0.9300(10)
C2F C 0.4815(9) 0.6044(10) 0.9300(10)
H2A H 1.0954 0.4649 0.0362
H2G H 0.9649 -0.0954 0.9638
H2F H 0.5351 0.5954 0.9638
C3A C 1.0590(8) 0.5366(7) 0.1584(8)
C3G C 1.0366(7) -0.0590(8) 0.8416(8)
C3F C 0.4634(7) 0.5590(8) 0.8416(8)
C4A C 1.0769(9) 0.6175(8) 0.2040(9)
C4G C 1.1175(8) -0.0769(9) 0.7960(9)
C4F C 0.3825(8) 0.5769(9) 0.7960(9)
H3A H 1.0482 0.6331 0.2643
H3G H 1.1331 -0.0482 0.7357
H3F H 0.3669 0.5482 0.7357
C5A C 1.1361(9) 0.6741(8) 0.1613(8)
C5G C 1.1741(8) -0.1361(9) 0.8387(8)
C5F C 0.3259(8) 0.6361(9) 0.8387(8)
H4A H 1.1471 0.7278 0.1940
H4G H 1.2278 -0.1471 0.8060
H4F H 0.2722 0.6471 0.8060
C6A C 0.9968(8) 0.4735(9) 0.2046(9)
C6G C 0.9735(9) 0.0032(8) 0.7954(9)
C6F C 0.5265(9) 0.4968(8) 0.7954(9)
C7A C 1.0125(9) 0.3834(9) 0.2009(9)
C7G C 0.8834(9) -0.0125(9) 0.7991(9)
C7F C 0.6166(9) 0.5125(9) 0.7991(9)
H5A H 1.0596 0.3620 0.1620
H5G H 0.8620 -0.0596 0.8380
H5F H 0.6380 0.5596 0.8380
C8A C 0.9603(9) 0.3247(8) 0.2534(9)
C8G C 0.8247(8) 0.0397(9) 0.7466(9)
C8F C 0.6753(8) 0.4603(9) 0.7466(9)
H6A H 0.9722 0.2641 0.2508
H6G H 0.7641 0.0278 0.7492
H6F H 0.7359 0.4722 0.7492
C9A C 0.8897(8) 0.3560(7) 0.3103(8)
C9G C 0.8560(7) 0.1103(8) 0.6897(8)
C9F C 0.6440(7) 0.3897(8) 0.6897(8)
C10A C 0.8698(8) 0.4455(8) 0.3102(9)
C10G C 0.9455(8) 0.1302(8) 0.6898(9)
C10F C 0.5545(8) 0.3698(8) 0.6898(9)
H7A H 0.8202 0.4666 0.3452
H7G H 0.9666 0.1798 0.6548
H7F H 0.5334 0.3202 0.6548
C11A C 0.9238(8) 0.5028(8) 0.2582(9)
C11G C 1.0028(8) 0.0762(8) 0.7418(9)
C11F C 0.4972(8) 0.4238(8) 0.7418(9)
H8A H 0.9108 0.5632 0.2590
H8G H 1.0632 0.0892 0.7410
H8F H 0.4368 0.4108 0.7410
C12A C 0.7803(7) 0.3270(7) 0.4347(8)
C12G C 0.8270(7) 0.2197(7) 0.5653(8)
C12F C 0.6730(7) 0.2803(7) 0.5653(8)
H9A H 0.7303 0.3521 0.3981
H9G H 0.8521 0.2697 0.6019
H9F H 0.6479 0.2303 0.6019
H10A H 0.8061 0.3730 0.4773
H10G H 0.8730 0.1939 0.5227
H10F H 0.6270 0.3061 0.5227
B1 B 0.2500 0.2500 0.241(4)
F3 F 0.178(4) 0.218(3) 0.205(5)
F3A F 0.322(4) 0.282(3) 0.205(5)
F3B F 0.282(3) 0.178(4) 0.205(5)
F3C F 0.218(3) 0.322(4) 0.205(5)
N2 N 0.160(2) 0.021(2) 0.5466(18)
C14 C 0.120(2) 0.065(2) 0.4968(13)
C15 C 0.068(2) 0.1233(19) 0.4332(18)
H11 H 0.1030 0.1416 0.3754
H12 H 0.0508 0.1746 0.4719
H13 H 0.0163 0.0925 0.4099
O2 O 0.2148(14) 0.1160(18) 0.9172(18)
O3 O 0.2500 0.2500 0.952(3)
F1? F 0.2500 0.2500 0.339(3)
F2? F 0.232(3) 0.3467(10) 0.226(3)
H14? H 0.2539 0.1558 0.8952
H15? H 0.1768 0.1205 0.9688
H16? H 0.1915 0.2454 0.9455
H17? H 0.2727 0.2547 0.8902
O4? O 0.2447 0.1727 0.690(3)
H18? H 0.2500 0.2309 0.6992
H19? H 0.2435 0.1487 0.7516
loop_
_geom_bond_atom_site_label_1
_geom_bond_atom_site_label_2
_geom_bond_site_symmetry_1
_geom_bond_site_symmetry_2
Cu1 N1 1_555 1_555
O1 C9 1_555 1_555
N1 C1 1_555 1_555
C1 H1 1_555 1_555
C2 C1 1_555 1_555
H2 C2 1_555 1_555
C3 C2 1_555 1_555
C4 C3 1_555 1_555
H3 C4 1_555 1_555
C5 N1 1_555 1_555
H4 C5 1_555 1_555
C6 C3 1_555 1_555
C7 C6 1_555 1_555
H5 C7 1_555 1_555
C8 C7 1_555 1_555
H6 C8 1_555 1_555
C9 C8 1_555 1_555
C10 C9 1_555 1_555
H7 C10 1_555 1_555
C11 C6 1_555 1_555
H8 C11 1_555 1_555
C12 O1 1_555 1_555
H9 C12 1_555 1_555
H10 C12 1_555 1_555
C13 C12 1_555 1_555
B1 F3 1_555 1_555
N2 C14 1_555 1_555
C14 C15 1_555 1_555
C15 H11 1_555 1_555
H12 C15 1_555 1_555
H13 C15 1_555 1_555
Cu1_2 N1A 1_555 1_555
Cu1_3 N1G 1_555 1_555
Cu1_4 N1F 1_555 1_555
O1A C9A 1_555 1_555
O1G C9G 1_555 1_555
O1F C9F 1_555 1_555
N1A C1A 1_555 1_555
N1G C1G 1_555 1_555
N1F C1F 1_555 1_555
N1A_2 Cu1 1_555 1_555
N1F_2 Cu1 1_555 1_555
N1G_2 Cu1 1_555 1_555
C1A H1A 1_555 1_555
C1G H1G 1_555 1_555
C1F H1F 1_555 1_555
C2A C1A 1_555 1_555
C2G C1G 1_555 1_555
C2F C1F 1_555 1_555
H2A C2A 1_555 1_555
H2G C2G 1_555 1_555
H2F C2F 1_555 1_555
C3A C2A 1_555 1_555
C3G C2G 1_555 1_555
C3F C2F 1_555 1_555
C4A C3A 1_555 1_555
C4G C3G 1_555 1_555
C4F C3F 1_555 1_555
H3A C4A 1_555 1_555
H3G C4G 1_555 1_555
H3F C4F 1_555 1_555
C5A N1A 1_555 1_555
C5G N1G 1_555 1_555
C5F N1F 1_555 1_555
H4A C5A 1_555 1_555
H4G C5G 1_555 1_555
H4F C5F 1_555 1_555
C6A C3A 1_555 1_555
C6G C3G 1_555 1_555
C6F C3F 1_555 1_555
C7A C6A 1_555 1_555
C7G C6G 1_555 1_555
C7F C6F 1_555 1_555
H5A C7A 1_555 1_555
H5G C7G 1_555 1_555
H5F C7F 1_555 1_555
C8A C7A 1_555 1_555
C8G C7G 1_555 1_555
C8F C7F 1_555 1_555
H6A C8A 1_555 1_555
H6G C8G 1_555 1_555
H6F C8F 1_555 1_555
C9A C8A 1_555 1_555
C9G C8G 1_555 1_555
C9F C8F 1_555 1_555
C10A C9A 1_555 1_555
C10G C9G 1_555 1_555
C10F C9F 1_555 1_555
H7A C10A 1_555 1_555
H7G C10G 1_555 1_555
H7F C10F 1_555 1_555
C11A C6A 1_555 1_555
C11G C6G 1_555 1_555
C11F C6F 1_555 1_555
H8A C11A 1_555 1_555
H8G C11G 1_555 1_555
H8F C11F 1_555 1_555
C12A C13 1_555 1_555
C12G C13 1_555 1_555
C12F C13 1_555 1_555
H9A C12A 1_555 1_555
H9G C12G 1_555 1_555
H9F C12F 1_555 1_555
H10A C12A 1_555 1_555
H10G C12G 1_555 1_555
H10F C12F 1_555 1_555
F3A B1 1_555 1_555
F3B B1 1_555 1_555
F3C B1 1_555 1_555
C4 C5 1_555 1_555
C10 C11 1_555 1_555
O1A C12A 1_555 1_555
O1G C12G 1_555 1_555
O1F C12F 1_555 1_555
C4A C5A 1_555 1_555
C4G C5G 1_555 1_555
C4F C5F 1_555 1_555
C10A C11A 1_555 1_555
C10G C11G 1_555 1_555
C10F C11F 1_555 1_555

#END
