
#######################################################################
#
#                 Cambridge Crystallographic Data Centre
#                                CCDC 
#
#######################################################################
#
# If this CIF has been generated from an entry in the Cambridge 
# Structural Database, then it will include bibliographic, chemical, 
# crystal, experimental, refinement or atomic coordinate data resulting 
# from the CCDC's data processing and validation procedures.
#
#######################################################################

data_MOXPIZ
_symmetry_cell_setting           orthorhombic
_symmetry_space_group_name_H-M   'P b a n'
_symmetry_Int_Tables_number      50
_space_group_name_Hall           '-P 2ab 2b'
loop_
_symmetry_equiv_pos_site_id
_symmetry_equiv_pos_as_xyz
1 x,y,z
2 1/2-x,1/2-y,z
3 1/2-x,y,-z
4 x,1/2-y,-z
5 -x,-y,-z
6 1/2+x,1/2+y,-z
7 1/2+x,-y,z
8 -x,1/2+y,z
_cell_length_a                   39.952(5)
_cell_length_b                   15.031(2)
_cell_length_c                   16.253(2)
_cell_angle_alpha                90
_cell_angle_beta                 90
_cell_angle_gamma                90
_cell_volume                     9760.23
loop_
_atom_site_label
_atom_site_type_symbol
_atom_site_fract_x
_atom_site_fract_y
_atom_site_fract_z
Cu1 Cu 0.7500 1.2500 0.5000
C1 C 0.4943(4) 0.7500 0.5000
N1 N 0.2860(3) 0.7526(11) 0.9131(9)
O1 O 0.5397(2) 0.8411(7) 0.5427(6)
C2 C 0.4246(3) 0.7203(10) 0.6424(10)
Cu2 Cu 0.2500 0.7500 1.0000
O2 O 0.2500 0.9162(14) 1.0000
N2 N 0.7136(2) 1.1551(8) 0.4946(8)
O3 O 0.4510(2) 0.7054(6) 0.5921(7)
O4 O 0.7500 1.2500 0.3518(9)
C3 C 0.4020(4) 0.6525(11) 0.6495(12)
H1 H 0.4049 0.5995 0.6196
C4 C 0.3746(4) 0.6627(13) 0.7013(13)
H2 H 0.3595 0.6151 0.7062
C5 C 0.3685(4) 0.7376(11) 0.7451(9)
C6 C 0.3919(4) 0.8037(11) 0.7365(9)
H3 H 0.3887 0.8567 0.7663
C7 C 0.4198(3) 0.7974(11) 0.6873(10)
H4 H 0.4352 0.8445 0.6841
C8 C 0.3399(4) 0.7434(11) 0.8002(12)
C9 C 0.3129(4) 0.6857(12) 0.7970(11)
H5 H 0.3118 0.6416 0.7561
C10 C 0.4729(3) 0.7770(9) 0.5729(9)
H6 H 0.4872 0.7905 0.6204
H7 H 0.4599 0.8303 0.5594
C11 C 0.2875(4) 0.6936(14) 0.8547(14)
H8 H 0.2697 0.6526 0.8513
C12 C 0.3112(4) 0.8093(13) 0.9156(12)
H9 H 0.3109 0.8540 0.9560
C13 C 0.3384(4) 0.8061(13) 0.8608(13)
H10 H 0.3559 0.8477 0.8660
C14 C 0.5165(3) 0.8282(9) 0.4767(10)
H11 H 0.5285 0.8155 0.4254
H12 H 0.5030 0.8819 0.4687
C15 C 0.5676(3) 0.8901(10) 0.5266(10)
C16 C 0.5716(3) 0.9462(11) 0.4620(11)
H13 H 0.5543 0.9523 0.4232
C17 C 0.6008(4) 0.9948(10) 0.4521(10)
H14 H 0.6031 1.0325 0.4063
C18 C 0.6270(3) 0.9884(9) 0.5097(10)
C19 C 0.6219(3) 0.9321(10) 0.5757(10)
H15 H 0.6386 0.9267 0.6160
C20 C 0.5929(4) 0.8838(10) 0.5839(10)
H16 H 0.5903 0.8458 0.6294
C21 C 0.6573(3) 1.0453(9) 0.5017(10)
C22 C 0.6599(3) 1.1098(10) 0.4452(9)
H17 H 0.6424 1.1185 0.4074
C23 C 0.6881(3) 1.1645(10) 0.4413(10)
H18 H 0.6893 1.2088 0.4006
C24 C 0.7113(3) 1.0906(10) 0.5512(11)
H19 H 0.7290 1.0830 0.5885
C25 C 0.6841(3) 1.0353(10) 0.5570(10)
H20 H 0.6834 0.9909 0.5977
Cu1_2 Cu 0.7500 0.2500 0.5000
Cu1_3 Cu 0.7500 2.2500 0.5000
C1A C 1.0057(4) 1.7500 0.5000
N1C N 0.2860(3) 0.7474(11) 0.0869(9)
N1A N 1.2140(3) 1.7474(11) 0.9131(9)
N1B N 1.2140(3) 1.7526(11) 0.0869(9)
N1A_2 N 0.2140(3) 0.7474(11) 0.9131(9)
N1B_2 N 0.2140(3) 0.7526(11) 1.0869(9)
N1C_2 N 0.2860(3) 0.7474(11) 1.0869(9)
O1C O 0.5397(2) 0.6589(7) 0.4573(6)
O1A O 0.9603(2) 1.6589(7) 0.5427(6)
O1B O 0.9603(2) 1.8411(7) 0.4573(6)
C2C C 0.4246(3) 0.7797(10) 0.3576(10)
C2A C 1.0754(3) 1.7797(10) 0.6424(10)
C2B C 1.0754(3) 1.7203(10) 0.3576(10)
Cu2_2 Cu 0.2500 0.7500 0.0000
Cu2_3 Cu 1.2500 1.7500 1.0000
Cu2_4 Cu 1.2500 1.7500 0.0000
O2A O 0.2500 0.5838(14) 1.0000
N2C N 0.7136(2) 0.3449(8) 0.5054(8)
N2A N 0.7864(2) 1.3449(8) 0.4946(8)
N2B N 0.7864(2) 2.1551(8) 0.5054(8)
N2B_2 N 0.7864(2) 1.1551(8) 0.5054(8)
N2C_2 N 0.7136(2) 1.3449(8) 0.5054(8)
O3C O 0.4510(2) 0.7946(6) 0.4079(7)
O3A O 1.0490(2) 1.7946(6) 0.5921(7)
O3B O 1.0490(2) 1.7054(6) 0.4079(7)
O4B O 0.7500 1.2500 0.6482(9)
C3C C 0.4020(4) 0.8475(11) 0.3505(12)
C3A C 1.0980(4) 1.8475(11) 0.6495(12)
C3B C 1.0980(4) 1.6525(11) 0.3505(12)
H1C H 0.4049 0.9005 0.3804
H1A H 1.0951 1.9005 0.6196
H1B H 1.0951 1.5995 0.3804
C4C C 0.3746(4) 0.8373(13) 0.2987(13)
C4A C 1.1254(4) 1.8373(13) 0.7013(13)
C4B C 1.1254(4) 1.6627(13) 0.2987(13)
H2C H 0.3595 0.8849 0.2938
H2A H 1.1405 1.8849 0.7062
H2B H 1.1405 1.6151 0.2938
C5C C 0.3685(4) 0.7624(11) 0.2549(9)
C5A C 1.1315(4) 1.7624(11) 0.7451(9)
C5B C 1.1315(4) 1.7376(11) 0.2549(9)
C6C C 0.3919(4) 0.6963(11) 0.2635(9)
C6A C 1.1081(4) 1.6963(11) 0.7365(9)
C6B C 1.1081(4) 1.8037(11) 0.2635(9)
H3C H 0.3887 0.6433 0.2337
H3A H 1.1113 1.6433 0.7663
H3B H 1.1113 1.8567 0.2337
C7C C 0.4198(3) 0.7026(11) 0.3127(10)
C7A C 1.0802(3) 1.7026(11) 0.6873(10)
C7B C 1.0802(3) 1.7974(11) 0.3127(10)
H4C H 0.4352 0.6555 0.3159
H4A H 1.0648 1.6555 0.6841
H4B H 1.0648 1.8445 0.3159
C8C C 0.3399(4) 0.7566(11) 0.1998(12)
C8A C 1.1601(4) 1.7566(11) 0.8002(12)
C8B C 1.1601(4) 1.7434(11) 0.1998(12)
C9C C 0.3129(4) 0.8143(12) 0.2030(11)
C9A C 1.1871(4) 1.8143(12) 0.7970(11)
C9B C 1.1871(4) 1.6857(12) 0.2030(11)
H5C H 0.3118 0.8584 0.2439
H5A H 1.1882 1.8584 0.7561
H5B H 1.1882 1.6416 0.2439
C10C C 0.4729(3) 0.7230(9) 0.4271(9)
C10A C 1.0271(3) 1.7230(9) 0.5729(9)
C10B C 1.0271(3) 1.7770(9) 0.4271(9)
H6C H 0.4872 0.7095 0.3796
H6A H 1.0128 1.7095 0.6204
H6B H 1.0128 1.7905 0.3796
H7C H 0.4599 0.6697 0.4406
H7A H 1.0401 1.6697 0.5594
H7B H 1.0401 1.8303 0.4406
C11C C 0.2875(4) 0.8064(14) 0.1453(14)
C11A C 1.2125(4) 1.8064(14) 0.8547(14)
C11B C 1.2125(4) 1.6936(14) 0.1453(14)
H8C H 0.2697 0.8474 0.1487
H8A H 1.2303 1.8474 0.8513
H8B H 1.2303 1.6526 0.1487
C12C C 0.3112(4) 0.6907(13) 0.0844(12)
C12A C 1.1888(4) 1.6907(13) 0.9156(12)
C12B C 1.1888(4) 1.8093(13) 0.0844(12)
H9C H 0.3109 0.6460 0.0440
H9A H 1.1891 1.6460 0.9560
H9B H 1.1891 1.8540 0.0440
C13C C 0.3384(4) 0.6939(13) 0.1392(13)
C13A C 1.1616(4) 1.6939(13) 0.8608(13)
C13B C 1.1616(4) 1.8061(13) 0.1392(13)
H10C H 0.3559 0.6523 0.1340
H10A H 1.1441 1.6523 0.8660
H10B H 1.1441 1.8477 0.1340
C14C C 0.5165(3) 0.6718(9) 0.5233(10)
C14A C 0.9835(3) 1.6718(9) 0.4767(10)
C14B C 0.9835(3) 1.8282(9) 0.5233(10)
H11C H 0.5285 0.6845 0.5746
H11A H 0.9715 1.6845 0.4254
H11B H 0.9715 1.8155 0.5746
H12C H 0.5030 0.6181 0.5313
H12A H 0.9970 1.6181 0.4687
H12B H 0.9970 1.8819 0.5313
C15C C 0.5676(3) 0.6099(10) 0.4734(10)
C15A C 0.9324(3) 1.6099(10) 0.5266(10)
C15B C 0.9324(3) 1.8901(10) 0.4734(10)
C16C C 0.5716(3) 0.5538(11) 0.5380(11)
C16A C 0.9284(3) 1.5538(11) 0.4620(11)
C16B C 0.9284(3) 1.9462(11) 0.5380(11)
H13C H 0.5543 0.5477 0.5768
H13A H 0.9457 1.5477 0.4232
H13B H 0.9457 1.9523 0.5768
C17C C 0.6008(4) 0.5052(10) 0.5479(10)
C17A C 0.8992(4) 1.5052(10) 0.4521(10)
C17B C 0.8992(4) 1.9948(10) 0.5479(10)
H14C H 0.6031 0.4675 0.5937
H14A H 0.8969 1.4675 0.4063
H14B H 0.8969 2.0325 0.5937
C18C C 0.6270(3) 0.5116(9) 0.4903(10)
C18A C 0.8730(3) 1.5116(9) 0.5097(10)
C18B C 0.8730(3) 1.9884(9) 0.4903(10)
C19C C 0.6219(3) 0.5679(10) 0.4243(10)
C19A C 0.8781(3) 1.5679(10) 0.5757(10)
C19B C 0.8781(3) 1.9321(10) 0.4243(10)
H15C H 0.6386 0.5733 0.3840
H15A H 0.8614 1.5733 0.6160
H15B H 0.8614 1.9267 0.3840
C20C C 0.5929(4) 0.6162(10) 0.4161(10)
C20A C 0.9071(4) 1.6162(10) 0.5839(10)
C20B C 0.9071(4) 1.8838(10) 0.4161(10)
H16C H 0.5903 0.6542 0.3706
H16A H 0.9097 1.6542 0.6294
H16B H 0.9097 1.8458 0.3706
C21C C 0.6573(3) 0.4547(9) 0.4983(10)
C21A C 0.8427(3) 1.4547(9) 0.5017(10)
C21B C 0.8427(3) 2.0453(9) 0.4983(10)
C22C C 0.6599(3) 0.3902(10) 0.5548(9)
C22A C 0.8401(3) 1.3902(10) 0.4452(9)
C22B C 0.8401(3) 2.1098(10) 0.5548(9)
H17C H 0.6424 0.3815 0.5926
H17A H 0.8576 1.3815 0.4074
H17B H 0.8576 2.1185 0.5926
C23C C 0.6881(3) 0.3355(10) 0.5587(10)
C23A C 0.8119(3) 1.3355(10) 0.4413(10)
C23B C 0.8119(3) 2.1645(10) 0.5587(10)
H18C H 0.6893 0.2912 0.5994
H18A H 0.8107 1.2912 0.4006
H18B H 0.8107 2.2088 0.5994
C24C C 0.7113(3) 0.4094(10) 0.4488(11)
C24A C 0.7887(3) 1.4094(10) 0.5512(11)
C24B C 0.7887(3) 2.0906(10) 0.4488(11)
H19C H 0.7290 0.4170 0.4115
H19A H 0.7710 1.4170 0.5885
H19B H 0.7710 2.0830 0.4115
C25C C 0.6841(3) 0.4647(10) 0.4430(10)
C25A C 0.8159(3) 1.4647(10) 0.5570(10)
C25B C 0.8159(3) 2.0353(10) 0.4430(10)
H20C H 0.6834 0.5091 0.4023
H20A H 0.8166 1.5091 0.5977
H20B H 0.8166 1.9909 0.4023
N3 N 0.6954(7) 0.9167(16) 0.7320(14)
O5 O 0.7223(7) 0.962(2) 0.740(2)
O6 O 0.6958(12) 0.843(3) 0.693(3)
O7 O 0.6681(7) 0.945(3) 0.763(3)
N4 N 0.4856(6) 1.008(3) 0.2661(18)
O8 O 0.5099(9) 1.019(2) 0.321(2)
O9 O 0.4789(14) 0.926(3) 0.238(3)
O10 O 0.4681(13) 1.077(3) 0.240(4)
O11 O 0.7312(4) 1.0899(9) 0.2737(8)
H21 H 0.7404 1.1408 0.2738
H22 H 0.7461 1.0512 0.2660
O12 O 0.459(3) 1.243(6) 0.252(6)
H23 H 0.4479 1.2816 0.2316
H24 H 0.4761 1.2666 0.2776
O13 O 0.5531(14) 0.991(4) 0.242(4)
H25 H 0.5365 1.0025 0.2723
H26 H 0.5761 0.9653 0.2386
C26 C 0.6456(10) 0.863(3) 0.312(5)
H27 H 0.6450 0.8362 0.3661
H28 H 0.6491 0.8174 0.2707
H29 H 0.6246 0.8933 0.3013
C27 C 0.6671(8) 1.0032(19) 0.2569(18)
H30 H 0.6760 1.0557 0.2839
H31 H 0.6433 1.0107 0.2476
H32 H 0.6784 0.9948 0.2046
N5 N 0.6726(7) 0.927(2) 0.308(2)
C28 C 0.7016(11) 0.915(4) 0.351(3)
H33 H 0.7188 0.9573 0.3475
O14 O 0.7051(15) 0.851(5) 0.392(4)
C29 C 0.4191(8) 0.836(3) 1.002(7)
H34 H 0.4178 0.8003 1.0511
H35 H 0.4422 0.8521 0.9911
H36 H 0.4104 0.8025 0.9553
C30 C 0.4018(19) 0.980(4) 0.947(3)
H37 H 0.3849 0.9674 0.9055
H38 H 0.4238 0.9769 0.9217
H39 H 0.3982 1.0394 0.9687
N6 N 0.3995(8) 0.916(3) 1.012(3)
C31 C 0.3801(13) 0.930(5) 1.080(3)
H40 H 0.3790 0.8869 1.1219
O15 O 0.3645(16) 0.998(5) 1.084(4)
loop_
_geom_bond_atom_site_label_1
_geom_bond_atom_site_label_2
_geom_bond_site_symmetry_1
_geom_bond_site_symmetry_2
Cu1 N2 1_555 1_555
C1 C10 1_555 1_555
N1 Cu2 1_555 1_555
O1 C14 1_555 1_555
C2 O3 1_555 1_555
Cu2 O2 1_555 1_555
N2 C23 1_555 1_555
O3 C10 1_555 1_555
O4 Cu1 1_555 1_555
C3 C2 1_555 1_555
H1 C3 1_555 1_555
C4 C3 1_555 1_555
H2 C4 1_555 1_555
C5 C4 1_555 1_555
C6 C5 1_555 1_555
H3 C6 1_555 1_555
C7 C2 1_555 1_555
H4 C7 1_555 1_555
C8 C5 1_555 1_555
C9 C8 1_555 1_555
H5 C9 1_555 1_555
C10 H6 1_555 1_555
H7 C10 1_555 1_555
C11 N1 1_555 1_555
H8 C11 1_555 1_555
C12 N1 1_555 1_555
H9 C12 1_555 1_555
C13 C8 1_555 1_555
H10 C13 1_555 1_555
C14 C1 1_555 1_555
H11 C14 1_555 1_555
H12 C14 1_555 1_555
C15 O1 1_555 1_555
C16 C15 1_555 1_555
H13 C16 1_555 1_555
C17 C16 1_555 1_555
H14 C17 1_555 1_555
C18 C17 1_555 1_555
C19 C18 1_555 1_555
H15 C19 1_555 1_555
C20 C15 1_555 1_555
H16 C20 1_555 1_555
C21 C18 1_555 1_555
C22 C21 1_555 1_555
H17 C22 1_555 1_555
C23 C22 1_555 1_555
H18 C23 1_555 1_555
C24 N2 1_555 1_555
H19 C24 1_555 1_555
C25 C21 1_555 1_555
H20 C25 1_555 1_555
N3 O5 1_555 1_555
O6 N3 1_555 1_555
O7 N3 1_555 1_555
N4 O8 1_555 1_555
O9 N4 1_555 1_555
O10 N4 1_555 1_555
O11 H21 1_555 1_555
H22 O11 1_555 1_555
O12 H23 1_555 1_555
H24 O12 1_555 1_555
O13 H25 1_555 1_555
H26 O13 1_555 1_555
C26 H27 1_555 1_555
H28 C26 1_555 1_555
H29 C26 1_555 1_555
C27 H30 1_555 1_555
H31 C27 1_555 1_555
H32 C27 1_555 1_555
N5 C26 1_555 1_555
C28 N5 1_555 1_555
H33 C28 1_555 1_555
O14 C28 1_555 1_555
C29 H34 1_555 1_555
H35 C29 1_555 1_555
H36 C29 1_555 1_555
C30 H37 1_555 1_555
H38 C30 1_555 1_555
H39 C30 1_555 1_555
N6 C29 1_555 1_555
C31 N6 1_555 1_555
H40 C31 1_555 1_555
O15 C31 1_555 1_555
Cu1_2 N2C 1_555 1_555
Cu1_3 N2B 1_555 1_555
C1A C10A 1_555 1_555
N1C Cu2_2 1_555 1_555
N1A Cu2_3 1_555 1_555
N1B Cu2_4 1_555 1_555
N1A_2 Cu2 1_555 1_555
N1B_2 Cu2 1_555 1_555
N1C_2 Cu2 1_555 1_555
O1C C14C 1_555 1_555
O1A C14A 1_555 1_555
O1B C14B 1_555 1_555
C2C O3C 1_555 1_555
C2A O3A 1_555 1_555
C2B O3B 1_555 1_555
O2A Cu2 1_555 1_555
N2C C23C 1_555 1_555
N2A Cu1 1_555 1_555
N2B C23B 1_555 1_555
N2B_2 Cu1 1_555 1_555
N2C_2 Cu1 1_555 1_555
O3C C10C 1_555 1_555
O3A C10A 1_555 1_555
O3B C10B 1_555 1_555
O4B Cu1 1_555 1_555
C3C C2C 1_555 1_555
C3A C2A 1_555 1_555
C3B C2B 1_555 1_555
H1C C3C 1_555 1_555
H1A C3A 1_555 1_555
H1B C3B 1_555 1_555
C4C C3C 1_555 1_555
C4A C3A 1_555 1_555
C4B C3B 1_555 1_555
H2C C4C 1_555 1_555
H2A C4A 1_555 1_555
H2B C4B 1_555 1_555
C5C C4C 1_555 1_555
C5A C4A 1_555 1_555
C5B C4B 1_555 1_555
C6C C5C 1_555 1_555
C6A C5A 1_555 1_555
C6B C5B 1_555 1_555
H3C C6C 1_555 1_555
H3A C6A 1_555 1_555
H3B C6B 1_555 1_555
C7C C2C 1_555 1_555
C7A C2A 1_555 1_555
C7B C2B 1_555 1_555
H4C C7C 1_555 1_555
H4A C7A 1_555 1_555
H4B C7B 1_555 1_555
C8C C5C 1_555 1_555
C8A C5A 1_555 1_555
C8B C5B 1_555 1_555
C9C C8C 1_555 1_555
C9A C8A 1_555 1_555
C9B C8B 1_555 1_555
H5C C9C 1_555 1_555
H5A C9A 1_555 1_555
H5B C9B 1_555 1_555
C10C C1 1_555 1_555
C10A H6A 1_555 1_555
C10B C1A 1_555 1_555
H6C C10C 1_555 1_555
H6B C10B 1_555 1_555
H7C C10C 1_555 1_555
H7A C10A 1_555 1_555
H7B C10B 1_555 1_555
C11C N1C 1_555 1_555
C11A N1A 1_555 1_555
C11B N1B 1_555 1_555
H8C C11C 1_555 1_555
H8A C11A 1_555 1_555
H8B C11B 1_555 1_555
C12C N1C 1_555 1_555
C12A N1A 1_555 1_555
C12B N1B 1_555 1_555
H9C C12C 1_555 1_555
H9A C12A 1_555 1_555
H9B C12B 1_555 1_555
C13C C8C 1_555 1_555
C13A C8A 1_555 1_555
C13B C8B 1_555 1_555
H10C C13C 1_555 1_555
H10A C13A 1_555 1_555
H10B C13B 1_555 1_555
C14C C1 1_555 1_555
C14A C1A 1_555 1_555
C14B C1A 1_555 1_555
H11C C14C 1_555 1_555
H11A C14A 1_555 1_555
H11B C14B 1_555 1_555
H12C C14C 1_555 1_555
H12A C14A 1_555 1_555
H12B C14B 1_555 1_555
C15C O1C 1_555 1_555
C15A O1A 1_555 1_555
C15B O1B 1_555 1_555
C16C C15C 1_555 1_555
C16A C15A 1_555 1_555
C16B C15B 1_555 1_555
H13C C16C 1_555 1_555
H13A C16A 1_555 1_555
H13B C16B 1_555 1_555
C17C C16C 1_555 1_555
C17A C16A 1_555 1_555
C17B C16B 1_555 1_555
H14C C17C 1_555 1_555
H14A C17A 1_555 1_555
H14B C17B 1_555 1_555
C18C C17C 1_555 1_555
C18A C17A 1_555 1_555
C18B C17B 1_555 1_555
C19C C18C 1_555 1_555
C19A C18A 1_555 1_555
C19B C18B 1_555 1_555
H15C C19C 1_555 1_555
H15A C19A 1_555 1_555
H15B C19B 1_555 1_555
C20C C15C 1_555 1_555
C20A C15A 1_555 1_555
C20B C15B 1_555 1_555
H16C C20C 1_555 1_555
H16A C20A 1_555 1_555
H16B C20B 1_555 1_555
C21C C18C 1_555 1_555
C21A C18A 1_555 1_555
C21B C18B 1_555 1_555
C22C C21C 1_555 1_555
C22A C21A 1_555 1_555
C22B C21B 1_555 1_555
H17C C22C 1_555 1_555
H17A C22A 1_555 1_555
H17B C22B 1_555 1_555
C23C C22C 1_555 1_555
C23A N2A 1_555 1_555
C23B C22B 1_555 1_555
H18C C23C 1_555 1_555
H18A C23A 1_555 1_555
H18B C23B 1_555 1_555
C24C N2C 1_555 1_555
C24A N2A 1_555 1_555
C24B N2B 1_555 1_555
H19C C24C 1_555 1_555
H19A C24A 1_555 1_555
H19B C24B 1_555 1_555
C25C C21C 1_555 1_555
C25A C21A 1_555 1_555
C25B C21B 1_555 1_555
H20C C25C 1_555 1_555
H20A C25A 1_555 1_555
H20B C25B 1_555 1_555
C6 C7 1_555 1_555
C9 C11 1_555 1_555
C12 C13 1_555 1_555
C19 C20 1_555 1_555
C24 C25 1_555 1_555
C27 N5 1_555 1_555
C30 N6 1_555 1_555
C6C C7C 1_555 1_555
C6A C7A 1_555 1_555
C6B C7B 1_555 1_555
C9C C11C 1_555 1_555
C9A C11A 1_555 1_555
C9B C11B 1_555 1_555
C12C C13C 1_555 1_555
C12A C13A 1_555 1_555
C12B C13B 1_555 1_555
C19C C20C 1_555 1_555
C19A C20A 1_555 1_555
C19B C20B 1_555 1_555
C22A C23A 1_555 1_555
C24C C25C 1_555 1_555
C24A C25A 1_555 1_555
C24B C25B 1_555 1_555

#END
