
#######################################################################
#
#                 Cambridge Crystallographic Data Centre
#                                CCDC 
#
#######################################################################
#
# If this CIF has been generated from an entry in the Cambridge 
# Structural Database, then it will include bibliographic, chemical, 
# crystal, experimental, refinement or atomic coordinate data resulting 
# from the CCDC's data processing and validation procedures.
#
#######################################################################

data_MOXQIA
_symmetry_cell_setting           cubic
_symmetry_space_group_name_H-M   'F -4 3 c'
_symmetry_Int_Tables_number      219
_space_group_name_Hall           'F -4a 2 3'
loop_
_symmetry_equiv_pos_site_id
_symmetry_equiv_pos_as_xyz
1 x,y,z
2 -x,-y,z
3 -x,y,-z
4 x,-y,-z
5 z,x,y
6 z,-x,-y
7 -z,-x,y
8 -z,x,-y
9 y,z,x
10 -y,z,-x
11 y,-z,-x
12 -y,-z,x
13 1/2+y,1/2+x,1/2+z
14 1/2-y,1/2-x,1/2+z
15 1/2+y,1/2-x,1/2-z
16 1/2-y,1/2+x,1/2-z
17 1/2+x,1/2+z,1/2+y
18 1/2-x,1/2+z,1/2-y
19 1/2-x,1/2-z,1/2+y
20 1/2+x,1/2-z,1/2-y
21 1/2+z,1/2+y,1/2+x
22 1/2+z,1/2-y,1/2-x
23 1/2-z,1/2+y,1/2-x
24 1/2-z,1/2-y,1/2+x
25 x,1/2+y,1/2+z
26 -x,1/2-y,1/2+z
27 -x,1/2+y,1/2-z
28 x,1/2-y,1/2-z
29 z,1/2+x,1/2+y
30 z,1/2-x,1/2-y
31 -z,1/2-x,1/2+y
32 -z,1/2+x,1/2-y
33 y,1/2+z,1/2+x
34 -y,1/2+z,1/2-x
35 y,1/2-z,1/2-x
36 -y,1/2-z,1/2+x
37 1/2+y,x,z
38 1/2-y,-x,z
39 1/2+y,-x,-z
40 1/2-y,x,-z
41 1/2+x,z,y
42 1/2-x,z,-y
43 1/2-x,-z,y
44 1/2+x,-z,-y
45 1/2+z,y,x
46 1/2+z,-y,-x
47 1/2-z,y,-x
48 1/2-z,-y,x
49 1/2+x,y,1/2+z
50 1/2-x,-y,1/2+z
51 1/2-x,y,1/2-z
52 1/2+x,-y,1/2-z
53 1/2+z,x,1/2+y
54 1/2+z,-x,1/2-y
55 1/2-z,-x,1/2+y
56 1/2-z,x,1/2-y
57 1/2+y,z,1/2+x
58 1/2-y,z,1/2-x
59 1/2+y,-z,1/2-x
60 1/2-y,-z,1/2+x
61 y,1/2+x,z
62 -y,1/2-x,z
63 y,1/2-x,-z
64 -y,1/2+x,-z
65 x,1/2+z,y
66 -x,1/2+z,-y
67 -x,1/2-z,y
68 x,1/2-z,-y
69 z,1/2+y,x
70 z,1/2-y,-x
71 -z,1/2+y,-x
72 -z,1/2-y,x
73 1/2+x,1/2+y,z
74 1/2-x,1/2-y,z
75 1/2-x,1/2+y,-z
76 1/2+x,1/2-y,-z
77 1/2+z,1/2+x,y
78 1/2+z,1/2-x,-y
79 1/2-z,1/2-x,y
80 1/2-z,1/2+x,-y
81 1/2+y,1/2+z,x
82 1/2-y,1/2+z,-x
83 1/2+y,1/2-z,-x
84 1/2-y,1/2-z,x
85 y,x,1/2+z
86 -y,-x,1/2+z
87 y,-x,1/2-z
88 -y,x,1/2-z
89 x,z,1/2+y
90 -x,z,1/2-y
91 -x,-z,1/2+y
92 x,-z,1/2-y
93 z,y,1/2+x
94 z,-y,1/2-x
95 -z,y,1/2-x
96 -z,-y,1/2+x
_cell_length_a                   31.9148(8)
_cell_length_b                   31.9148(8)
_cell_length_c                   31.9148(8)
_cell_angle_alpha                90
_cell_angle_beta                 90
_cell_angle_gamma                90
_cell_volume                     32507
loop_
_atom_site_label
_atom_site_type_symbol
_atom_site_fract_x
_atom_site_fract_y
_atom_site_fract_z
P1 P 1.0000 1.0000 1.0000
F1 F 1.0000 0.95072(17) 1.0000
F1A F 1.0000 1.04928(17) 1.0000
F1D F 1.0000 1.0000 0.95072(17)
F1E F 1.0000 1.0000 1.04928(17)
F1H F 0.95072(17) 1.0000 1.0000
F1I F 1.04928(17) 1.0000 1.0000
P2 P 0.8676(5) 0.7500 0.2500
F2 F 0.8823(6) 0.7146(5) 0.2806(5)
F3 F 0.8513(6) 0.7729(6) 0.2901(4)
F4 F 0.8272(5) 0.7227(5) 0.2448(7)
F2AA F 0.8823(6) 0.7854(5) 0.2194(5)
F3AA F 0.8513(6) 0.7271(6) 0.2099(4)
F4AA F 0.8272(5) 0.7773(5) 0.2552(7)
Cu1 Cu 0.89155(2) 0.89155(2) 0.60845(2)
C1 C 1.0000 0.7500 0.2500
C2 C 0.97168(14) 0.76245(13) 0.28675(13)
H1 H 0.9520 0.7848 0.2780
H2 H 0.9552 0.7380 0.2963
O1 O 0.99792(11) 0.77703(10) 0.31963(10)
C3 C 0.97888(15) 0.78928(13) 0.35618(15)
C4 C 1.00493(16) 0.80783(14) 0.38515(15)
H3 H 1.0338 0.8117 0.3791
C5 C 0.98884(15) 0.82070(15) 0.42277(15)
H4 H 1.0069 0.8336 0.4426
C6 C 0.94640(15) 0.81538(15) 0.43289(15)
C7 C 0.92027(15) 0.79653(16) 0.40332(16)
C8 C 0.93706(14) 0.78406(15) 0.36535(14)
H5 H 0.9192 0.7716 0.3451
C9 C 0.93132(15) 0.83194(16) 0.47340(14)
C10 C 0.93548(16) 0.87408(15) 0.48233(16)
H6 H 0.9478 0.8925 0.4624
C11 C 0.92163(15) 0.88933(15) 0.52031(15)
H7 H 0.9241 0.9186 0.5253
N1 N 0.90503(12) 0.86576(12) 0.55034(12)
C12 C 0.90029(16) 0.82529(16) 0.54185(16)
H8 H 0.8876 0.8080 0.5624
C13 C 0.91290(17) 0.80703(16) 0.50457(19)
H9 H 0.9091 0.7778 0.5001
C14 C 0.87419(17) 0.7903(2) 0.41176(18)
H10 H 0.8591 0.7881 0.3851
H11 H 0.8634 0.8143 0.4276
H12 H 0.8701 0.7646 0.4280
N2 N 0.85411(17) 0.8541(2) 0.64589(18)
C15 C 0.81961(17) 0.8579(2) 0.65345(18)
C16 C 0.77493(17) 0.8422(2) 0.66514(18)
H13 H 0.7771 0.8156 0.6803
H14 H 0.7585 0.8381 0.6395
H15 H 0.7611 0.8630 0.6829
Cu1H Cu 0.89155(2) 0.60845(2) -0.10845(2)
Cu1SA Cu 1.10845(2) 1.10845(2) 0.10845(2)
Cu1T Cu 1.10845(2) 0.39155(2) 0.39155(2)
Cu1CA Cu 0.60845(2) 1.60845(2) 0.60845(2)
Cu1T_2 Cu 1.10845(2) 1.39155(2) 0.39155(2)
Cu1P Cu 0.39155(2) 1.10845(2) 0.39155(2)
Cu1D Cu 1.60845(2) 0.89155(2) 0.89155(2)
Cu1P_2 Cu 1.39155(2) 1.10845(2) 0.39155(2)
Cu1SA_2 Cu 1.10845(2) 1.10845(2) 1.10845(2)
C1T C 0.7500 1.2500 0.5000
C1D C 1.2500 1.0000 0.7500
C2AA C 0.97168(14) 0.73755(13) 0.21325(13)
C2MB C 1.02832(14) 0.78675(13) 0.23755(13)
C2LC C 1.02832(14) 0.71325(13) 0.26245(13)
C2HA C 0.76245(13) 1.21325(13) 0.52832(14)
C2EB C 0.73755(13) 1.28675(13) 0.52832(14)
C2T C 0.78675(13) 1.26245(13) 0.47168(14)
C2QC C 0.71325(13) 1.23755(13) 0.47168(14)
C2CB C 1.21325(13) 0.97168(14) 0.73755(13)
C2D C 1.28675(13) 0.97168(14) 0.76245(13)
C2LA C 1.26245(13) 1.02832(14) 0.71325(13)
C2GC C 1.23755(13) 1.02832(14) 0.78675(13)
H1AA H 0.9520 0.7152 0.2220
H1MB H 1.0480 0.7780 0.2152
H1LC H 1.0480 0.7220 0.2848
H1HA H 0.7848 1.2220 0.5480
H1EB H 0.7152 1.2780 0.5480
H1T H 0.7780 1.2848 0.4520
H1QC H 0.7220 1.2152 0.4520
H1CB H 1.2220 0.9520 0.7152
H1D H 1.2780 0.9520 0.7848
H1LA H 1.2848 1.0480 0.7220
H1GC H 1.2152 1.0480 0.7780
H2AA H 0.9552 0.7620 0.2037
H2MB H 1.0448 0.7963 0.2620
H2LC H 1.0448 0.7037 0.2380
H2HA H 0.7380 1.2037 0.5448
H2EB H 0.7620 1.2963 0.5448
H2T H 0.7963 1.2380 0.4552
H2QC H 0.7037 1.2620 0.4552
H2CB H 1.2037 0.9552 0.7620
H2D H 1.2963 0.9552 0.7380
H2LA H 1.2380 1.0448 0.7037
H2GC H 1.2620 1.0448 0.7963
O1AA O 0.99792(11) 0.72297(10) 0.18037(10)
O1MB O 1.00208(11) 0.81963(10) 0.22297(10)
O1LC O 1.00208(11) 0.68037(10) 0.27703(10)
O1HA O 0.77703(10) 1.18037(10) 0.50208(11)
O1EB O 0.72297(10) 1.31963(10) 0.50208(11)
O1T O 0.81963(10) 1.27703(10) 0.49792(11)
O1QC O 0.68037(10) 1.22297(10) 0.49792(11)
O1CB O 1.18037(10) 0.99792(11) 0.72297(10)
O1D O 1.31963(10) 0.99792(11) 0.77703(10)
O1LA O 1.27703(10) 1.00208(11) 0.68037(10)
O1GC O 1.22297(10) 1.00208(11) 0.81963(10)
C3AA C 0.97888(15) 0.71072(13) 0.14382(15)
C3MB C 1.02112(15) 0.85618(15) 0.21072(13)
C3LC C 1.02112(15) 0.64382(15) 0.28928(13)
C3HA C 0.78928(13) 1.14382(15) 0.52112(15)
C3EB C 0.71072(13) 1.35618(15) 0.52112(15)
C3T C 0.85618(15) 1.28928(13) 0.47888(15)
C3QC C 0.64382(15) 1.21072(13) 0.47888(15)
C3CB C 1.14382(15) 0.97888(15) 0.71072(13)
C3D C 1.35618(15) 0.97888(15) 0.78928(13)
C3LA C 1.28928(13) 1.02112(15) 0.64382(15)
C3GC C 1.21072(13) 1.02112(15) 0.85618(15)
C4AA C 1.00493(16) 0.69217(14) 0.11485(15)
C4MB C 0.99507(16) 0.88515(15) 0.19217(14)
C4LC C 0.99507(16) 0.61485(15) 0.30783(14)
C4HA C 0.80783(14) 1.11485(15) 0.49507(16)
C4EB C 0.69217(14) 1.38515(15) 0.49507(16)
C4T C 0.88515(15) 1.30783(14) 0.50493(16)
C4QC C 0.61485(15) 1.19217(14) 0.50493(16)
C4CB C 1.11485(15) 1.00493(16) 0.69217(14)
C4D C 1.38515(15) 1.00493(16) 0.80783(14)
C4LA C 1.30783(14) 0.99507(16) 0.61485(15)
C4GC C 1.19217(14) 0.99507(16) 0.88515(15)
H3AA H 1.0338 0.6883 0.1209
H3MB H 0.9662 0.8791 0.1883
H3LC H 0.9662 0.6209 0.3117
H3HA H 0.8117 1.1209 0.4662
H3EB H 0.6883 1.3791 0.4662
H3T H 0.8791 1.3117 0.5338
H3QC H 0.6209 1.1883 0.5338
H3CB H 1.1209 1.0338 0.6883
H3D H 1.3791 1.0338 0.8117
H3LA H 1.3117 0.9662 0.6209
H3GC H 1.1883 0.9662 0.8791
C5AA C 0.98884(15) 0.67930(15) 0.07723(15)
C5MB C 1.01116(15) 0.92277(15) 0.17930(15)
C5LC C 1.01116(15) 0.57723(15) 0.32070(15)
C5HA C 0.82070(15) 1.07723(15) 0.51116(15)
C5EB C 0.67930(15) 1.42277(15) 0.51116(15)
C5T C 0.92277(15) 1.32070(15) 0.48884(15)
C5QC C 0.57723(15) 1.17930(15) 0.48884(15)
C5CB C 1.07723(15) 0.98884(15) 0.67930(15)
C5D C 1.42277(15) 0.98884(15) 0.82070(15)
C5LA C 1.32070(15) 1.01116(15) 0.57723(15)
C5GC C 1.17930(15) 1.01116(15) 0.92277(15)
H4AA H 1.0069 0.6664 0.0574
H4MB H 0.9931 0.9426 0.1664
H4LC H 0.9931 0.5574 0.3336
H4HA H 0.8336 1.0574 0.4931
H4EB H 0.6664 1.4426 0.4931
H4T H 0.9426 1.3336 0.5069
H4QC H 0.5574 1.1664 0.5069
H4CB H 1.0574 1.0069 0.6664
H4D H 1.4426 1.0069 0.8336
H4LA H 1.3336 0.9931 0.5574
H4GC H 1.1664 0.9931 0.9426
C6AA C 0.94640(15) 0.68462(15) 0.06711(15)
C6MB C 1.05360(15) 0.93289(15) 0.18462(15)
C6LC C 1.05360(15) 0.56711(15) 0.31538(15)
C6HA C 0.81538(15) 1.06711(15) 0.55360(15)
C6EB C 0.68462(15) 1.43289(15) 0.55360(15)
C6T C 0.93289(15) 1.31538(15) 0.44640(15)
C6QC C 0.56711(15) 1.18462(15) 0.44640(15)
C6CB C 1.06711(15) 0.94640(15) 0.68462(15)
C6D C 1.43289(15) 0.94640(15) 0.81538(15)
C6LA C 1.31538(15) 1.05360(15) 0.56711(15)
C6GC C 1.18462(15) 1.05360(15) 0.93289(15)
C7AA C 0.92027(15) 0.70347(16) 0.09668(16)
C7MB C 1.07973(15) 0.90332(16) 0.20347(16)
C7LC C 1.07973(15) 0.59668(16) 0.29653(16)
C7HA C 0.79653(16) 1.09668(16) 0.57973(15)
C7EB C 0.70347(16) 1.40332(16) 0.57973(15)
C7T C 0.90332(16) 1.29653(16) 0.42027(15)
C7QC C 0.59668(16) 1.20347(16) 0.42027(15)
C7CB C 1.09668(16) 0.92027(15) 0.70347(16)
C7D C 1.40332(16) 0.92027(15) 0.79653(16)
C7LA C 1.29653(16) 1.07973(15) 0.59668(16)
C7GC C 1.20347(16) 1.07973(15) 0.90332(16)
C8AA C 0.93706(14) 0.71594(15) 0.13465(14)
C8MB C 1.06294(14) 0.86535(14) 0.21594(15)
C8LC C 1.06294(14) 0.63465(14) 0.28406(15)
C8HA C 0.78406(15) 1.13465(14) 0.56294(14)
C8EB C 0.71594(15) 1.36535(14) 0.56294(14)
C8T C 0.86535(14) 1.28406(15) 0.43706(14)
C8QC C 0.63465(14) 1.21594(15) 0.43706(14)
C8CB C 1.13465(14) 0.93706(14) 0.71594(15)
C8D C 1.36535(14) 0.93706(14) 0.78406(15)
C8LA C 1.28406(15) 1.06294(14) 0.63465(14)
C8GC C 1.21594(15) 1.06294(14) 0.86535(14)
H5AA H 0.9192 0.7284 0.1549
H5MB H 1.0808 0.8451 0.2284
H5LC H 1.0808 0.6549 0.2716
H5HA H 0.7716 1.1549 0.5808
H5EB H 0.7284 1.3451 0.5808
H5T H 0.8451 1.2716 0.4192
H5QC H 0.6549 1.2284 0.4192
H5CB H 1.1549 0.9192 0.7284
H5D H 1.3451 0.9192 0.7716
H5LA H 1.2716 1.0808 0.6549
H5GC H 1.2284 1.0808 0.8451
C9AA C 0.93132(15) 0.66806(16) 0.02660(14)
C9MB C 1.06868(15) 0.97340(14) 0.16806(16)
C9LC C 1.06868(15) 0.52660(14) 0.33194(16)
C9HA C 0.83194(16) 1.02660(14) 0.56868(15)
C9EB C 0.66806(16) 1.47340(14) 0.56868(15)
C9T C 0.97340(14) 1.33194(16) 0.43132(15)
C9QC C 0.52660(14) 1.16806(16) 0.43132(15)
C9CB C 1.02660(14) 0.93132(15) 0.66806(16)
C9D C 1.47340(14) 0.93132(15) 0.83194(16)
C9LA C 1.33194(16) 1.06868(15) 0.52660(14)
C9GC C 1.16806(16) 1.06868(15) 0.97340(14)
C10AA C 0.93548(16) 0.62592(15) 0.01767(16)
C10MB C 1.06452(16) 0.98233(16) 0.12592(15)
C10LC C 1.06452(16) 0.51767(16) 0.37408(15)
C10HA C 0.87408(15) 1.01767(16) 0.56452(16)
C10EB C 0.62592(15) 1.48233(16) 0.56452(16)
C10T C 0.98233(16) 1.37408(15) 0.43548(16)
C10QC C 0.51767(16) 1.12592(15) 0.43548(16)
C10CB C 1.01767(16) 0.93548(16) 0.62592(15)
C10D C 1.48233(16) 0.93548(16) 0.87408(15)
C10LA C 1.37408(15) 1.06452(16) 0.51767(16)
C10GC C 1.12592(15) 1.06452(16) 0.98233(16)
H6AA H 0.9478 0.6075 0.0376
H6MB H 1.0522 0.9624 0.1075
H6LC H 1.0522 0.5376 0.3925
H6HA H 0.8925 1.0376 0.5522
H6EB H 0.6075 1.4624 0.5522
H6T H 0.9624 1.3925 0.4478
H6QC H 0.5376 1.1075 0.4478
H6CB H 1.0376 0.9478 0.6075
H6D H 1.4624 0.9478 0.8925
H6LA H 1.3925 1.0522 0.5376
H6GC H 1.1075 1.0522 0.9624
C11AA C 0.92163(15) 0.61067(15) -0.02031(15)
C11MB C 1.07837(15) 1.02031(15) 0.11067(15)
C11LC C 1.07837(15) 0.47969(15) 0.38933(15)
C11HA C 0.88933(15) 0.97969(15) 0.57837(15)
C11EB C 0.61067(15) 1.52031(15) 0.57837(15)
C11T C 1.02031(15) 1.38933(15) 0.42163(15)
C11QC C 0.47969(15) 1.11067(15) 0.42163(15)
C11CB C 0.97969(15) 0.92163(15) 0.61067(15)
C11D C 1.52031(15) 0.92163(15) 0.88933(15)
C11LA C 1.38933(15) 1.07837(15) 0.47969(15)
C11GC C 1.11067(15) 1.07837(15) 1.02031(15)
H7AA H 0.9241 0.5814 -0.0253
H7MB H 1.0759 1.0253 0.0814
H7LC H 1.0759 0.4747 0.4186
H7HA H 0.9186 0.9747 0.5759
H7EB H 0.5814 1.5253 0.5759
H7T H 1.0253 1.4186 0.4241
H7QC H 0.4747 1.0814 0.4241
H7CB H 0.9747 0.9241 0.5814
H7D H 1.5253 0.9241 0.9186
H7LA H 1.4186 1.0759 0.4747
H7GC H 1.0814 1.0759 1.0253
N1AA N 0.90503(12) 0.63424(12) -0.05034(12)
N1MB N 1.09497(12) 1.05034(12) 0.13424(12)
N1LC N 1.09497(12) 0.44966(12) 0.36576(12)
N1HA N 0.86576(12) 0.94966(12) 0.59497(12)
N1EB N 0.63424(12) 1.55034(12) 0.59497(12)
N1T N 1.05034(12) 1.36576(12) 0.40503(12)
N1QC N 0.44966(12) 1.13424(12) 0.40503(12)
N1CB N 0.94966(12) 0.90503(12) 0.63424(12)
N1D N 1.55034(12) 0.90503(12) 0.86576(12)
N1LA N 1.36576(12) 1.09497(12) 0.44966(12)
N1GC N 1.13424(12) 1.09497(12) 1.05034(12)
N1H N 0.86576(12) 0.55034(12) -0.09497(12)
N1ZB N 0.94966(12) 0.59497(12) -0.13424(12)
N1GC_2 N 1.13424(12) 1.09497(12) 0.05034(12)
N1SA N 1.05034(12) 1.13424(12) 0.09497(12)
N1KB N 1.13424(12) 0.40503(12) 0.44966(12)
N1T_2 N 1.05034(12) 0.36576(12) 0.40503(12)
C12AA C 0.90029(16) 0.67471(16) -0.04185(16)
C12MB C 1.09971(16) 1.04185(16) 0.17471(16)
C12LC C 1.09971(16) 0.45815(16) 0.32529(16)
C12HA C 0.82529(16) 0.95815(16) 0.59971(16)
C12EB C 0.67471(16) 1.54185(16) 0.59971(16)
C12T C 1.04185(16) 1.32529(16) 0.40029(16)
C12QC C 0.45815(16) 1.17471(16) 0.40029(16)
C12CB C 0.95815(16) 0.90029(16) 0.67471(16)
C12D C 1.54185(16) 0.90029(16) 0.82529(16)
C12LA C 1.32529(16) 1.09971(16) 0.45815(16)
C12GC C 1.17471(16) 1.09971(16) 1.04185(16)
H8AA H 0.8876 0.6920 -0.0624
H8MB H 1.1124 1.0624 0.1920
H8LC H 1.1124 0.4376 0.3080
H8HA H 0.8080 0.9376 0.6124
H8EB H 0.6920 1.5624 0.6124
H8T H 1.0624 1.3080 0.3876
H8QC H 0.4376 1.1920 0.3876
H8CB H 0.9376 0.8876 0.6920
H8D H 1.5624 0.8876 0.8080
H8LA H 1.3080 1.1124 0.4376
H8GC H 1.1920 1.1124 1.0624
C13AA C 0.91290(17) 0.69297(16) -0.00457(19)
C13MB C 1.08710(17) 1.00457(19) 0.19297(16)
C13LC C 1.08710(17) 0.49543(19) 0.30703(16)
C13HA C 0.80703(16) 0.99543(19) 0.58710(17)
C13EB C 0.69297(16) 1.50457(19) 0.58710(17)
C13T C 1.00457(19) 1.30703(16) 0.41290(17)
C13QC C 0.49543(19) 1.19297(16) 0.41290(17)
C13CB C 0.99543(19) 0.91290(17) 0.69297(16)
C13D C 1.50457(19) 0.91290(17) 0.80703(16)
C13LA C 1.30703(16) 1.08710(17) 0.49543(19)
C13GC C 1.19297(16) 1.08710(17) 1.00457(19)
H9AA H 0.9091 0.7222 -0.0001
H9MB H 1.0909 1.0001 0.2222
H9LC H 1.0909 0.4999 0.2778
H9HA H 0.7778 0.9999 0.5909
H9EB H 0.7222 1.5001 0.5909
H9T H 1.0001 1.2778 0.4091
H9QC H 0.4999 1.2222 0.4091
H9CB H 0.9999 0.9091 0.7222
H9D H 1.5001 0.9091 0.7778
H9LA H 1.2778 1.0909 0.4999
H9GC H 1.2222 1.0909 1.0001
C14AA C 0.87419(17) 0.7097(2) 0.08824(18)
C14MB C 1.12581(17) 0.91176(18) 0.2097(2)
C14LC C 1.12581(17) 0.58824(18) 0.2903(2)
C14HA C 0.7903(2) 1.08824(18) 0.62581(17)
C14EB C 0.7097(2) 1.41176(18) 0.62581(17)
C14T C 0.91176(18) 1.2903(2) 0.37419(17)
C14QC C 0.58824(18) 1.2097(2) 0.37419(17)
C14CB C 1.08824(18) 0.87419(17) 0.7097(2)
C14D C 1.41176(18) 0.87419(17) 0.7903(2)
C14LA C 1.2903(2) 1.12581(17) 0.58824(18)
C14GC C 1.2097(2) 1.12581(17) 0.91176(18)
H10AA H 0.8591 0.7119 0.1149
H10MB H 1.1409 0.8851 0.2119
H10LC H 1.1409 0.6149 0.2881
H10HA H 0.7881 1.1149 0.6409
H10EB H 0.7119 1.3851 0.6409
H10T H 0.8851 1.2881 0.3591
H10QC H 0.6149 1.2119 0.3591
H10CB H 1.1149 0.8591 0.7119
H10D H 1.3851 0.8591 0.7881
H10LA H 1.2881 1.1409 0.6149
H10GC H 1.2119 1.1409 0.8851
H11AA H 0.8634 0.6857 0.0724
H11MB H 1.1366 0.9276 0.1857
H11LC H 1.1366 0.5724 0.3143
H11HA H 0.8143 1.0724 0.6366
H11EB H 0.6857 1.4276 0.6366
H11T H 0.9276 1.3143 0.3634
H11QC H 0.5724 1.1857 0.3634
H11CB H 1.0724 0.8634 0.6857
H11D H 1.4276 0.8634 0.8143
H11LA H 1.3143 1.1366 0.5724
H11GC H 1.1857 1.1366 0.9276
H12AA H 0.8701 0.7354 0.0720
H12MB H 1.1299 0.9280 0.2354
H12LC H 1.1299 0.5720 0.2646
H12HA H 0.7646 1.0720 0.6299
H12EB H 0.7354 1.4280 0.6299
H12T H 0.9280 1.2646 0.3701
H12QC H 0.5720 1.2354 0.3701
H12CB H 1.0720 0.8701 0.7354
H12D H 1.4280 0.8701 0.7646
H12LA H 1.2646 1.1299 0.5720
H12GC H 1.2354 1.1299 0.9280
N2AA N 0.85411(17) 0.6459(2) -0.14589(18)
N2MB N 1.14589(17) 1.14589(18) 0.1459(2)
N2LC N 1.14589(17) 0.35411(18) 0.3541(2)
C15CB C 0.84655(18) 0.81961(17) 0.6421(2)
C15HA C 0.8579(2) 0.84655(18) 0.68039(17)
C15AA C 0.81961(17) 0.6421(2) -0.15345(18)
C15ZB C 0.84655(18) 0.68039(17) -0.1421(2)
C15H C 0.8579(2) 0.65345(18) -0.18039(17)
C15MB C 1.18039(17) 1.15345(18) 0.1421(2)
C15SA C 1.15345(18) 1.1421(2) 0.18039(17)
C15GC C 1.1421(2) 1.18039(17) 0.15345(18)
C15LC C 1.18039(17) 0.34655(18) 0.3579(2)
C15T C 1.15345(18) 0.3579(2) 0.31961(17)
C15KB C 1.1421(2) 0.31961(17) 0.34655(18)
C16HA C 0.8422(2) 0.83486(18) 0.72507(17)
C16CB C 0.83486(18) 0.77493(17) 0.6578(2)
C16AA C 0.77493(17) 0.6578(2) -0.16514(18)
C16H C 0.8422(2) 0.66514(18) -0.22507(17)
C16ZB C 0.83486(18) 0.72507(17) -0.1578(2)
C16MB C 1.22507(17) 1.16514(18) 0.1578(2)
C16GC C 1.1578(2) 1.22507(17) 0.16514(18)
C16SA C 1.16514(18) 1.1578(2) 0.22507(17)
C16LC C 1.22507(17) 0.33486(18) 0.3422(2)
C16KB C 1.1578(2) 0.27493(17) 0.33486(18)
C16T C 1.16514(18) 0.3422(2) 0.27493(17)
H13HA H 0.8156 0.8197 0.7229
H13CB H 0.8197 0.7771 0.6844
H13AA H 0.7771 0.6844 -0.1803
H13H H 0.8156 0.6803 -0.2229
H13ZB H 0.8197 0.7229 -0.1844
H13MB H 1.2229 1.1803 0.1844
H13GC H 1.1844 1.2229 0.1803
H13SA H 1.1803 1.1844 0.2229
H13LC H 1.2229 0.3197 0.3156
H13KB H 1.1844 0.2771 0.3197
H13T H 1.1803 0.3156 0.2771
H14HA H 0.8381 0.8605 0.7415
H14CB H 0.8605 0.7585 0.6619
H14AA H 0.7585 0.6619 -0.1395
H14H H 0.8381 0.6395 -0.2415
H14ZB H 0.8605 0.7415 -0.1619
H14MB H 1.2415 1.1395 0.1619
H14GC H 1.1619 1.2415 0.1395
H14SA H 1.1395 1.1619 0.2415
H14LC H 1.2415 0.3605 0.3381
H14KB H 1.1619 0.2585 0.3605
H14T H 1.1395 0.3381 0.2585
H15HA H 0.8630 0.8171 0.7389
H15CB H 0.8171 0.7611 0.6370
H15AA H 0.7611 0.6370 -0.1829
H15H H 0.8630 0.6829 -0.2389
H15ZB H 0.8171 0.7389 -0.1370
H15MB H 1.2389 1.1829 0.1370
H15GC H 1.1370 1.2389 0.1829
H15SA H 1.1829 1.1370 0.2389
H15LC H 1.2389 0.3171 0.3630
H15KB H 1.1370 0.2611 0.3171
H15T H 1.1829 0.3630 0.2611
loop_
_geom_bond_atom_site_label_1
_geom_bond_atom_site_label_2
_geom_bond_site_symmetry_1
_geom_bond_site_symmetry_2
Cu1 N1 1_555 1_555
C1 C2 1_555 1_555
C2 H1 1_555 1_555
H2 C2 1_555 1_555
O1 C2 1_555 1_555
C3 O1 1_555 1_555
C4 C3 1_555 1_555
H3 C4 1_555 1_555
C5 C4 1_555 1_555
H4 C5 1_555 1_555
C6 C5 1_555 1_555
C7 C6 1_555 1_555
C8 C3 1_555 1_555
H5 C8 1_555 1_555
C9 C6 1_555 1_555
C10 C9 1_555 1_555
H6 C10 1_555 1_555
C11 C10 1_555 1_555
H7 C11 1_555 1_555
N1 C11 1_555 1_555
C12 N1 1_555 1_555
H8 C12 1_555 1_555
C13 C9 1_555 1_555
H9 C13 1_555 1_555
C14 C7 1_555 1_555
H10 C14 1_555 1_555
H11 C14 1_555 1_555
H12 C14 1_555 1_555
N2 Cu1 1_555 1_555
C15 N2 1_555 1_555
C16 C15 1_555 1_555
H13 C16 1_555 1_555
H14 C16 1_555 1_555
H15 C16 1_555 1_555
P1 F1 1_555 1_555
P2 F2 1_555 1_555
F3 P2 1_555 1_555
F4 P2 1_555 1_555
Cu1H N1AA 1_555 1_555
Cu1SA N1MB 1_555 1_555
Cu1T N1LC 1_555 1_555
Cu1CA N1EB 1_555 1_555
Cu1T_2 N1T 1_555 1_555
Cu1P N1QC 1_555 1_555
Cu1D N1D 1_555 1_555
Cu1P_2 N1LA 1_555 1_555
Cu1SA_2 N1GC 1_555 1_555
C1T C2HA 1_555 1_555
C1D C2CB 1_555 1_555
C2AA C1 1_555 1_555
C2MB C1 1_555 1_555
C2LC C1 1_555 1_555
C2HA H1HA 1_555 1_555
C2EB C1T 1_555 1_555
C2T C1T 1_555 1_555
C2QC C1T 1_555 1_555
C2CB H1CB 1_555 1_555
C2D C1D 1_555 1_555
C2LA C1D 1_555 1_555
C2GC C1D 1_555 1_555
H1AA C2AA 1_555 1_555
H1MB C2MB 1_555 1_555
H1LC C2LC 1_555 1_555
H1EB C2EB 1_555 1_555
H1T C2T 1_555 1_555
H1QC C2QC 1_555 1_555
H1D C2D 1_555 1_555
H1LA C2LA 1_555 1_555
H1GC C2GC 1_555 1_555
H2AA C2AA 1_555 1_555
H2MB C2MB 1_555 1_555
H2LC C2LC 1_555 1_555
H2HA C2HA 1_555 1_555
H2EB C2EB 1_555 1_555
H2T C2T 1_555 1_555
H2QC C2QC 1_555 1_555
H2CB C2CB 1_555 1_555
H2D C2D 1_555 1_555
H2LA C2LA 1_555 1_555
H2GC C2GC 1_555 1_555
O1AA C2AA 1_555 1_555
O1MB C2MB 1_555 1_555
O1LC C2LC 1_555 1_555
O1HA C2HA 1_555 1_555
O1EB C2EB 1_555 1_555
O1T C2T 1_555 1_555
O1QC C2QC 1_555 1_555
O1CB C2CB 1_555 1_555
O1D C2D 1_555 1_555
O1LA C2LA 1_555 1_555
O1GC C2GC 1_555 1_555
C3AA O1AA 1_555 1_555
C3MB O1MB 1_555 1_555
C3LC O1LC 1_555 1_555
C3HA O1HA 1_555 1_555
C3EB O1EB 1_555 1_555
C3T O1T 1_555 1_555
C3QC O1QC 1_555 1_555
C3CB O1CB 1_555 1_555
C3D O1D 1_555 1_555
C3LA O1LA 1_555 1_555
C3GC O1GC 1_555 1_555
C4AA C3AA 1_555 1_555
C4MB C3MB 1_555 1_555
C4LC C3LC 1_555 1_555
C4HA C3HA 1_555 1_555
C4EB C3EB 1_555 1_555
C4T C3T 1_555 1_555
C4QC C3QC 1_555 1_555
C4CB C3CB 1_555 1_555
C4D C3D 1_555 1_555
C4LA C3LA 1_555 1_555
C4GC C3GC 1_555 1_555
H3AA C4AA 1_555 1_555
H3MB C4MB 1_555 1_555
H3LC C4LC 1_555 1_555
H3HA C4HA 1_555 1_555
H3EB C4EB 1_555 1_555
H3T C4T 1_555 1_555
H3QC C4QC 1_555 1_555
H3CB C4CB 1_555 1_555
H3D C4D 1_555 1_555
H3LA C4LA 1_555 1_555
H3GC C4GC 1_555 1_555
C5AA C4AA 1_555 1_555
C5MB C4MB 1_555 1_555
C5LC C4LC 1_555 1_555
C5HA C4HA 1_555 1_555
C5EB C4EB 1_555 1_555
C5T C4T 1_555 1_555
C5QC C4QC 1_555 1_555
C5CB C4CB 1_555 1_555
C5D C4D 1_555 1_555
C5LA C4LA 1_555 1_555
C5GC C4GC 1_555 1_555
H4AA C5AA 1_555 1_555
H4MB C5MB 1_555 1_555
H4LC C5LC 1_555 1_555
H4HA C5HA 1_555 1_555
H4EB C5EB 1_555 1_555
H4T C5T 1_555 1_555
H4QC C5QC 1_555 1_555
H4CB C5CB 1_555 1_555
H4D C5D 1_555 1_555
H4LA C5LA 1_555 1_555
H4GC C5GC 1_555 1_555
C6AA C5AA 1_555 1_555
C6MB C5MB 1_555 1_555
C6LC C5LC 1_555 1_555
C6HA C5HA 1_555 1_555
C6EB C5EB 1_555 1_555
C6T C5T 1_555 1_555
C6QC C5QC 1_555 1_555
C6CB C5CB 1_555 1_555
C6D C5D 1_555 1_555
C6LA C5LA 1_555 1_555
C6GC C5GC 1_555 1_555
C7AA C6AA 1_555 1_555
C7MB C6MB 1_555 1_555
C7LC C6LC 1_555 1_555
C7HA C6HA 1_555 1_555
C7EB C6EB 1_555 1_555
C7T C6T 1_555 1_555
C7QC C6QC 1_555 1_555
C7CB C6CB 1_555 1_555
C7D C6D 1_555 1_555
C7LA C6LA 1_555 1_555
C7GC C6GC 1_555 1_555
C8AA C3AA 1_555 1_555
C8MB C3MB 1_555 1_555
C8LC C3LC 1_555 1_555
C8HA C3HA 1_555 1_555
C8EB C3EB 1_555 1_555
C8T C3T 1_555 1_555
C8QC C3QC 1_555 1_555
C8CB C3CB 1_555 1_555
C8D C3D 1_555 1_555
C8LA C3LA 1_555 1_555
C8GC C3GC 1_555 1_555
H5AA C8AA 1_555 1_555
H5MB C8MB 1_555 1_555
H5LC C8LC 1_555 1_555
H5HA C8HA 1_555 1_555
H5EB C8EB 1_555 1_555
H5T C8T 1_555 1_555
H5QC C8QC 1_555 1_555
H5CB C8CB 1_555 1_555
H5D C8D 1_555 1_555
H5LA C8LA 1_555 1_555
H5GC C8GC 1_555 1_555
C9AA C6AA 1_555 1_555
C9MB C6MB 1_555 1_555
C9LC C6LC 1_555 1_555
C9HA C6HA 1_555 1_555
C9EB C6EB 1_555 1_555
C9T C6T 1_555 1_555
C9QC C6QC 1_555 1_555
C9CB C6CB 1_555 1_555
C9D C6D 1_555 1_555
C9LA C6LA 1_555 1_555
C9GC C6GC 1_555 1_555
C10AA C9AA 1_555 1_555
C10MB C9MB 1_555 1_555
C10LC C9LC 1_555 1_555
C10HA C9HA 1_555 1_555
C10EB C9EB 1_555 1_555
C10T C9T 1_555 1_555
C10QC C9QC 1_555 1_555
C10CB C9CB 1_555 1_555
C10D C9D 1_555 1_555
C10LA C9LA 1_555 1_555
C10GC C9GC 1_555 1_555
H6AA C10AA 1_555 1_555
H6MB C10MB 1_555 1_555
H6LC C10LC 1_555 1_555
H6HA C10HA 1_555 1_555
H6EB C10EB 1_555 1_555
H6T C10T 1_555 1_555
H6QC C10QC 1_555 1_555
H6CB C10CB 1_555 1_555
H6D C10D 1_555 1_555
H6LA C10LA 1_555 1_555
H6GC C10GC 1_555 1_555
C11AA C10AA 1_555 1_555
C11MB C10MB 1_555 1_555
C11LC C10LC 1_555 1_555
C11HA C10HA 1_555 1_555
C11EB C10EB 1_555 1_555
C11T C10T 1_555 1_555
C11QC C10QC 1_555 1_555
C11CB C10CB 1_555 1_555
C11D C10D 1_555 1_555
C11LA C10LA 1_555 1_555
C11GC C10GC 1_555 1_555
H7AA C11AA 1_555 1_555
H7MB C11MB 1_555 1_555
H7LC C11LC 1_555 1_555
H7HA C11HA 1_555 1_555
H7EB C11EB 1_555 1_555
H7T C11T 1_555 1_555
H7QC C11QC 1_555 1_555
H7CB C11CB 1_555 1_555
H7D C11D 1_555 1_555
H7LA C11LA 1_555 1_555
H7GC C11GC 1_555 1_555
N1AA C11AA 1_555 1_555
N1MB C11MB 1_555 1_555
N1LC C11LC 1_555 1_555
N1HA Cu1 1_555 1_555
N1EB C11EB 1_555 1_555
N1T C11T 1_555 1_555
N1QC C11QC 1_555 1_555
N1CB Cu1 1_555 1_555
N1D C11D 1_555 1_555
N1LA C11LA 1_555 1_555
N1GC C11GC 1_555 1_555
N1H Cu1H 1_555 1_555
N1ZB Cu1H 1_555 1_555
N1GC_2 Cu1SA 1_555 1_555
N1SA Cu1SA 1_555 1_555
N1KB Cu1T 1_555 1_555
N1T_2 Cu1T 1_555 1_555
C12AA N1AA 1_555 1_555
C12MB N1MB 1_555 1_555
C12LC N1LC 1_555 1_555
C12HA N1HA 1_555 1_555
C12EB N1EB 1_555 1_555
C12T N1T 1_555 1_555
C12QC N1QC 1_555 1_555
C12CB N1CB 1_555 1_555
C12D N1D 1_555 1_555
C12LA N1LA 1_555 1_555
C12GC N1GC 1_555 1_555
H8AA C12AA 1_555 1_555
H8MB C12MB 1_555 1_555
H8LC C12LC 1_555 1_555
H8HA C12HA 1_555 1_555
H8EB C12EB 1_555 1_555
H8T C12T 1_555 1_555
H8QC C12QC 1_555 1_555
H8CB C12CB 1_555 1_555
H8D C12D 1_555 1_555
H8LA C12LA 1_555 1_555
H8GC C12GC 1_555 1_555
C13AA C9AA 1_555 1_555
C13MB C9MB 1_555 1_555
C13LC C9LC 1_555 1_555
C13HA C9HA 1_555 1_555
C13EB C9EB 1_555 1_555
C13T C9T 1_555 1_555
C13QC C9QC 1_555 1_555
C13CB C9CB 1_555 1_555
C13D C9D 1_555 1_555
C13LA C9LA 1_555 1_555
C13GC C9GC 1_555 1_555
H9AA C13AA 1_555 1_555
H9MB C13MB 1_555 1_555
H9LC C13LC 1_555 1_555
H9HA C13HA 1_555 1_555
H9EB C13EB 1_555 1_555
H9T C13T 1_555 1_555
H9QC C13QC 1_555 1_555
H9CB C13CB 1_555 1_555
H9D C13D 1_555 1_555
H9LA C13LA 1_555 1_555
H9GC C13GC 1_555 1_555
C14AA C7AA 1_555 1_555
C14MB C7MB 1_555 1_555
C14LC C7LC 1_555 1_555
C14HA C7HA 1_555 1_555
C14EB C7EB 1_555 1_555
C14T C7T 1_555 1_555
C14QC C7QC 1_555 1_555
C14CB C7CB 1_555 1_555
C14D C7D 1_555 1_555
C14LA C7LA 1_555 1_555
C14GC C7GC 1_555 1_555
H10AA C14AA 1_555 1_555
H10MB C14MB 1_555 1_555
H10LC C14LC 1_555 1_555
H10HA C14HA 1_555 1_555
H10EB C14EB 1_555 1_555
H10T C14T 1_555 1_555
H10QC C14QC 1_555 1_555
H10CB C14CB 1_555 1_555
H10D C14D 1_555 1_555
H10LA C14LA 1_555 1_555
H10GC C14GC 1_555 1_555
H11AA C14AA 1_555 1_555
H11MB C14MB 1_555 1_555
H11LC C14LC 1_555 1_555
H11HA C14HA 1_555 1_555
H11EB C14EB 1_555 1_555
H11T C14T 1_555 1_555
H11QC C14QC 1_555 1_555
H11CB C14CB 1_555 1_555
H11D C14D 1_555 1_555
H11LA C14LA 1_555 1_555
H11GC C14GC 1_555 1_555
H12AA C14AA 1_555 1_555
H12MB C14MB 1_555 1_555
H12LC C14LC 1_555 1_555
H12HA C14HA 1_555 1_555
H12EB C14EB 1_555 1_555
H12T C14T 1_555 1_555
H12QC C14QC 1_555 1_555
H12CB C14CB 1_555 1_555
H12D C14D 1_555 1_555
H12LA C14LA 1_555 1_555
H12GC C14GC 1_555 1_555
N2AA Cu1H 1_555 1_555
N2MB Cu1SA 1_555 1_555
N2LC Cu1T 1_555 1_555
C15CB N2 1_555 1_555
C15HA N2 1_555 1_555
C15AA N2AA 1_555 1_555
C15ZB N2AA 1_555 1_555
C15H N2AA 1_555 1_555
C15MB N2MB 1_555 1_555
C15SA N2MB 1_555 1_555
C15GC N2MB 1_555 1_555
C15LC N2LC 1_555 1_555
C15T N2LC 1_555 1_555
C15KB N2LC 1_555 1_555
C16HA C15HA 1_555 1_555
C16CB C15CB 1_555 1_555
C16AA C15AA 1_555 1_555
C16H C15H 1_555 1_555
C16ZB C15ZB 1_555 1_555
C16MB C15MB 1_555 1_555
C16GC C15GC 1_555 1_555
C16SA C15SA 1_555 1_555
C16LC C15LC 1_555 1_555
C16KB C15KB 1_555 1_555
C16T C15T 1_555 1_555
H13HA C16HA 1_555 1_555
H13CB C16CB 1_555 1_555
H13AA C16AA 1_555 1_555
H13H C16H 1_555 1_555
H13ZB C16ZB 1_555 1_555
H13MB C16MB 1_555 1_555
H13GC C16GC 1_555 1_555
H13SA C16SA 1_555 1_555
H13LC C16LC 1_555 1_555
H13KB C16KB 1_555 1_555
H13T C16T 1_555 1_555
H14HA C16HA 1_555 1_555
H14CB C16CB 1_555 1_555
H14AA C16AA 1_555 1_555
H14H C16H 1_555 1_555
H14ZB C16ZB 1_555 1_555
H14MB C16MB 1_555 1_555
H14GC C16GC 1_555 1_555
H14SA C16SA 1_555 1_555
H14LC C16LC 1_555 1_555
H14KB C16KB 1_555 1_555
H14T C16T 1_555 1_555
H15HA C16HA 1_555 1_555
H15CB C16CB 1_555 1_555
H15AA C16AA 1_555 1_555
H15H C16H 1_555 1_555
H15ZB C16ZB 1_555 1_555
H15MB C16MB 1_555 1_555
H15GC C16GC 1_555 1_555
H15SA C16SA 1_555 1_555
H15LC C16LC 1_555 1_555
H15KB C16KB 1_555 1_555
H15T C16T 1_555 1_555
F1A P1 1_555 1_555
F1D P1 1_555 1_555
F1E P1 1_555 1_555
F1H P1 1_555 1_555
F1I P1 1_555 1_555
F2AA P2 1_555 1_555
F3AA P2 1_555 1_555
F4AA P2 1_555 1_555
C7 C8 1_555 1_555
C12 C13 1_555 1_555
C15 C15CB 1_555 1_555
C15 C15HA 1_555 1_555
C7AA C8AA 1_555 1_555
C7MB C8MB 1_555 1_555
C7LC C8LC 1_555 1_555
C7HA C8HA 1_555 1_555
C7EB C8EB 1_555 1_555
C7T C8T 1_555 1_555
C7QC C8QC 1_555 1_555
C7CB C8CB 1_555 1_555
C7D C8D 1_555 1_555
C7LA C8LA 1_555 1_555
C7GC C8GC 1_555 1_555
C11HA N1HA 1_555 1_555
C11CB N1CB 1_555 1_555
C12AA C13AA 1_555 1_555
C12MB C13MB 1_555 1_555
C12LC C13LC 1_555 1_555
C12HA C13HA 1_555 1_555
C12EB C13EB 1_555 1_555
C12T C13T 1_555 1_555
C12QC C13QC 1_555 1_555
C12CB C13CB 1_555 1_555
C12D C13D 1_555 1_555
C12LA C13LA 1_555 1_555
C12GC C13GC 1_555 1_555
C15CB C15HA 1_555 1_555
C15AA C15ZB 1_555 1_555
C15AA C15H 1_555 1_555
C15ZB C15H 1_555 1_555
C15MB C15SA 1_555 1_555
C15MB C15GC 1_555 1_555
C15SA C15GC 1_555 1_555
C15LC C15T 1_555 1_555
C15LC C15KB 1_555 1_555
C15T C15KB 1_555 1_555

#END
