
#######################################################################
#
#                 Cambridge Crystallographic Data Centre
#                                CCDC 
#
#######################################################################
#
# If this CIF has been generated from an entry in the Cambridge 
# Structural Database, then it will include bibliographic, chemical, 
# crystal, experimental, refinement or atomic coordinate data resulting 
# from the CCDC's data processing and validation procedures.
#
#######################################################################

data_MOXQEW
_symmetry_cell_setting           cubic
_symmetry_space_group_name_H-M   'F -4 3 c'
_symmetry_Int_Tables_number      219
_space_group_name_Hall           'F -4a 2 3'
loop_
_symmetry_equiv_pos_site_id
_symmetry_equiv_pos_as_xyz
1 x,y,z
2 -x,-y,z
3 -x,y,-z
4 x,-y,-z
5 z,x,y
6 z,-x,-y
7 -z,-x,y
8 -z,x,-y
9 y,z,x
10 -y,z,-x
11 y,-z,-x
12 -y,-z,x
13 1/2+y,1/2+x,1/2+z
14 1/2-y,1/2-x,1/2+z
15 1/2+y,1/2-x,1/2-z
16 1/2-y,1/2+x,1/2-z
17 1/2+x,1/2+z,1/2+y
18 1/2-x,1/2+z,1/2-y
19 1/2-x,1/2-z,1/2+y
20 1/2+x,1/2-z,1/2-y
21 1/2+z,1/2+y,1/2+x
22 1/2+z,1/2-y,1/2-x
23 1/2-z,1/2+y,1/2-x
24 1/2-z,1/2-y,1/2+x
25 x,1/2+y,1/2+z
26 -x,1/2-y,1/2+z
27 -x,1/2+y,1/2-z
28 x,1/2-y,1/2-z
29 z,1/2+x,1/2+y
30 z,1/2-x,1/2-y
31 -z,1/2-x,1/2+y
32 -z,1/2+x,1/2-y
33 y,1/2+z,1/2+x
34 -y,1/2+z,1/2-x
35 y,1/2-z,1/2-x
36 -y,1/2-z,1/2+x
37 1/2+y,x,z
38 1/2-y,-x,z
39 1/2+y,-x,-z
40 1/2-y,x,-z
41 1/2+x,z,y
42 1/2-x,z,-y
43 1/2-x,-z,y
44 1/2+x,-z,-y
45 1/2+z,y,x
46 1/2+z,-y,-x
47 1/2-z,y,-x
48 1/2-z,-y,x
49 1/2+x,y,1/2+z
50 1/2-x,-y,1/2+z
51 1/2-x,y,1/2-z
52 1/2+x,-y,1/2-z
53 1/2+z,x,1/2+y
54 1/2+z,-x,1/2-y
55 1/2-z,-x,1/2+y
56 1/2-z,x,1/2-y
57 1/2+y,z,1/2+x
58 1/2-y,z,1/2-x
59 1/2+y,-z,1/2-x
60 1/2-y,-z,1/2+x
61 y,1/2+x,z
62 -y,1/2-x,z
63 y,1/2-x,-z
64 -y,1/2+x,-z
65 x,1/2+z,y
66 -x,1/2+z,-y
67 -x,1/2-z,y
68 x,1/2-z,-y
69 z,1/2+y,x
70 z,1/2-y,-x
71 -z,1/2+y,-x
72 -z,1/2-y,x
73 1/2+x,1/2+y,z
74 1/2-x,1/2-y,z
75 1/2-x,1/2+y,-z
76 1/2+x,1/2-y,-z
77 1/2+z,1/2+x,y
78 1/2+z,1/2-x,-y
79 1/2-z,1/2-x,y
80 1/2-z,1/2+x,-y
81 1/2+y,1/2+z,x
82 1/2-y,1/2+z,-x
83 1/2+y,1/2-z,-x
84 1/2-y,1/2-z,x
85 y,x,1/2+z
86 -y,-x,1/2+z
87 y,-x,1/2-z
88 -y,x,1/2-z
89 x,z,1/2+y
90 -x,z,1/2-y
91 -x,-z,1/2+y
92 x,-z,1/2-y
93 z,y,1/2+x
94 z,-y,1/2-x
95 -z,y,1/2-x
96 -z,-y,1/2+x
_cell_length_a                   32.049(9)
_cell_length_b                   32.049(9)
_cell_length_c                   32.049(9)
_cell_angle_alpha                90
_cell_angle_beta                 90
_cell_angle_gamma                90
_cell_volume                     32918.8
loop_
_atom_site_label
_atom_site_type_symbol
_atom_site_fract_x
_atom_site_fract_y
_atom_site_fract_z
B1 B 0.0000 1.0000 0.5000
F1 F 0.02335(16) 0.97665(16) 0.52335(16)
F1A F -0.02335(16) 1.02335(16) 0.52335(16)
F1B F -0.02335(16) 0.97665(16) 0.47665(16)
F1C F 0.02335(16) 1.02335(16) 0.47665(16)
B2 B 0.2500 0.8399(16) 0.7500
F2 F 0.2757(15) 0.8296(14) 0.7782(14)
F3 F 0.2598(12) 0.8703(9) 0.7731(12)
F2XA F 0.2243(15) 0.8296(14) 0.7218(14)
F3XA F 0.2402(12) 0.8703(9) 0.7269(12)
Cu1 Cu 0.105672(15) 0.894328(15) 0.394328(15)
N1 N 0.14194(15) 0.85806(15) 0.35806(15)
C1 C 0.1696(5) 0.8397(9) 0.3483(7)
C2 C 0.2121(6) 0.8250(9) 0.3318(9)
H1 H 0.2085 0.8002 0.3154
H2 H 0.2303 0.8191 0.3549
H3 H 0.2242 0.8465 0.3149
C3 C 0.0000 1.2500 0.2500
C4 C 0.02836(8) 1.21358(8) 0.26203(7)
H4 H 0.0449 1.2048 0.2382
H5 H 0.0471 1.2218 0.2843
O1 O 0.00191(7) 1.18026(6) 0.27561(6)
C5 C 0.02082(8) 1.14412(8) 0.28822(8)
C6 C -0.00543(10) 1.11478(9) 0.30638(9)
H6 H -0.0337 1.1204 0.3094
C7 C 0.01072(10) 1.07744(9) 0.31976(9)
H7 H -0.0069 1.0580 0.3321
C8 C 0.05290(9) 1.06794(9) 0.31527(9)
C9 C 0.07990(10) 1.09727(9) 0.29726(10)
C10 C 0.06322(9) 1.13535(9) 0.28380(8)
H8 H 0.0807 1.1551 0.2717
C11 C 0.06817(9) 1.02741(9) 0.33229(9)
C12 C 0.06249(10) 1.01877(11) 0.37447(9)
H9 H 0.0497 1.0383 0.3918
C13 C 0.07586(9) 0.98111(10) 0.39053(9)
H10 H 0.0722 0.9762 0.4189
N2 N 0.09391(8) 0.95114(8) 0.36714(7)
C14 C 0.09915(10) 0.95956(11) 0.32665(10)
H11 H 0.1113 0.9393 0.3098
C15 C 0.08734(10) 0.99699(12) 0.30842(12)
H12 H 0.0923 1.0016 0.2802
C16 C 0.12584(19) 1.08959(11) 0.29221(14)
H13 H 0.1385 1.1133 0.2791
H14 H 0.1301 1.0653 0.2752
H15 H 0.1383 1.0852 0.3191
Cu1T Cu -0.105672(15) 1.394328(15) 0.605672(15)
Cu1K Cu 0.105672(15) 1.605672(15) 0.105672(15)
Cu1SA Cu -0.105672(15) 1.105672(15) -0.105672(15)
Cu1S Cu -0.394328(15) 1.105672(15) 0.605672(15)
Cu1BA Cu -0.605672(15) 0.605672(15) 0.394328(15)
Cu1T_2 Cu -0.105672(15) 0.394328(15) 0.605672(15)
Cu1SA_2 Cu -0.105672(15) 1.105672(15) 0.894328(15)
Cu1E Cu 0.394328(15) 0.894328(15) 1.105672(15)
Cu1S_2 Cu 0.605672(15) 1.105672(15) 0.605672(15)
N1T N -0.14194(15) 1.35806(15) 0.64194(15)
N1K N 0.14194(15) 1.64194(15) 0.14194(15)
N1SA N -0.14194(15) 1.14194(15) -0.14194(15)
C1GA C 0.1603(9) 0.8483(7) 0.3304(5)
C1BB C 0.1517(7) 0.8304(5) 0.3397(9)
C1KC C -0.1696(5) 1.3483(7) 0.6603(9)
C1JB C -0.1603(9) 1.3304(5) 0.6517(7)
C1T C -0.1517(7) 1.3397(9) 0.6696(5)
C1AA C 0.1696(5) 1.6603(9) 0.1517(7)
C1K C 0.1603(9) 1.6517(7) 0.1696(5)
C1AC C 0.1517(7) 1.6696(5) 0.1603(9)
C1NB C -0.1696(5) 1.1517(7) -0.1603(9)
C1FC C -0.1603(9) 1.1696(5) -0.1517(7)
C1SA C -0.1517(7) 1.1603(9) -0.1696(5)
C2GA C 0.1750(9) 0.8318(9) 0.2879(6)
C2BB C 0.1682(9) 0.7879(6) 0.3250(9)
C2KC C -0.2121(6) 1.3318(9) 0.6750(9)
C2JB C -0.1750(9) 1.2879(6) 0.6682(9)
C2T C -0.1682(9) 1.3250(9) 0.7121(6)
C2AA C 0.2121(6) 1.6750(9) 0.1682(9)
C2K C 0.1750(9) 1.6682(9) 0.2121(6)
C2AC C 0.1682(9) 1.7121(6) 0.1750(9)
C2NB C -0.2121(6) 1.1682(9) -0.1750(9)
C2FC C -0.1750(9) 1.2121(6) -0.1682(9)
C2SA C -0.1682(9) 1.1750(9) -0.2121(6)
H1GA H 0.1998 0.8154 0.2915
H1BB H 0.1846 0.7915 0.3002
H1KC H -0.2085 1.3154 0.6998
H1JB H -0.1998 1.2915 0.6846
H1T H -0.1846 1.3002 0.7085
H1AA H 0.2085 1.6998 0.1846
H1K H 0.1998 1.6846 0.2085
H1AC H 0.1846 1.7085 0.1998
H1NB H -0.2085 1.1846 -0.1998
H1FC H -0.1998 1.2085 -0.1846
H1SA H -0.1846 1.1998 -0.2085
H2GA H 0.1809 0.8549 0.2697
H2BB H 0.1451 0.7697 0.3191
H2KC H -0.2303 1.3549 0.6809
H2JB H -0.1809 1.2697 0.6451
H2T H -0.1451 1.3191 0.7303
H2AA H 0.2303 1.6809 0.1451
H2K H 0.1809 1.6451 0.2303
H2AC H 0.1451 1.7303 0.1809
H2NB H -0.2303 1.1451 -0.1809
H2FC H -0.1809 1.2303 -0.1451
H2SA H -0.1451 1.1809 -0.2303
H3GA H 0.1535 0.8149 0.2758
H3BB H 0.1851 0.7758 0.3465
H3KC H -0.2242 1.3149 0.6535
H3JB H -0.1535 1.2758 0.6851
H3T H -0.1851 1.3465 0.7242
H3AA H 0.2242 1.6535 0.1851
H3K H 0.1535 1.6851 0.2242
H3AC H 0.1851 1.7242 0.1535
H3NB H -0.2242 1.1851 -0.1535
H3FC H -0.1535 1.2242 -0.1851
H3SA H -0.1851 1.1535 -0.2242
C3T C -0.2500 0.7500 0.5000
C3E C 0.2500 1.0000 0.7500
C4KC C -0.02836(8) 1.26203(7) 0.28642(8)
C4AA C 0.02836(8) 1.28642(8) 0.23797(7)
C4NB C -0.02836(8) 1.23797(7) 0.21358(8)
C4GA C -0.21358(8) 0.76203(7) 0.47164(8)
C4QC C -0.26203(7) 0.78642(8) 0.52836(8)
C4FB C -0.28642(8) 0.73797(7) 0.47164(8)
C4T C -0.23797(7) 0.71358(8) 0.52836(8)
C4BB C 0.23797(7) 0.97164(8) 0.71358(8)
C4FC C 0.21358(8) 1.02836(8) 0.76203(7)
C4E C 0.26203(7) 0.97164(8) 0.78642(8)
C4MA C 0.28642(8) 1.02836(8) 0.73797(7)
H4KC H -0.0449 1.2382 0.2952
H4AA H 0.0449 1.2952 0.2618
H4NB H -0.0449 1.2618 0.2048
H4GA H -0.2048 0.7382 0.4551
H4QC H -0.2382 0.7952 0.5449
H4FB H -0.2952 0.7618 0.4551
H4T H -0.2618 0.7048 0.5449
H4BB H 0.2618 0.9551 0.7048
H4FC H 0.2048 1.0449 0.7382
H4E H 0.2382 0.9551 0.7952
H4MA H 0.2952 1.0449 0.7618
H5KC H -0.0471 1.2843 0.2782
H5AA H 0.0471 1.2782 0.2157
H5NB H -0.0471 1.2157 0.2218
H5GA H -0.2218 0.7843 0.4529
H5QC H -0.2843 0.7782 0.5471
H5FB H -0.2782 0.7157 0.4529
H5T H -0.2157 0.7218 0.5471
H5BB H 0.2157 0.9529 0.7218
H5FC H 0.2218 1.0471 0.7843
H5E H 0.2843 0.9529 0.7782
H5MA H 0.2782 1.0471 0.7157
O1KC O -0.00191(7) 1.27561(6) 0.31974(6)
O1AA O 0.00191(7) 1.31974(6) 0.22439(6)
O1NB O -0.00191(7) 1.22439(6) 0.18026(6)
O1GA O -0.18026(6) 0.77561(6) 0.49809(7)
O1QC O -0.27561(6) 0.81974(6) 0.50191(7)
O1FB O -0.31974(6) 0.72439(6) 0.49809(7)
O1T O -0.22439(6) 0.68026(6) 0.50191(7)
O1BB O 0.22439(6) 0.99809(7) 0.68026(6)
O1FC O 0.18026(6) 1.00191(7) 0.77561(6)
O1E O 0.27561(6) 0.99809(7) 0.81974(6)
O1MA O 0.31974(6) 1.00191(7) 0.72439(6)
C5KC C -0.02082(8) 1.28822(8) 0.35588(8)
C5AA C 0.02082(8) 1.35588(8) 0.21178(8)
C5NB C -0.02082(8) 1.21178(8) 0.14412(8)
C5GA C -0.14412(8) 0.78822(8) 0.47918(8)
C5QC C -0.28822(8) 0.85588(8) 0.52082(8)
C5FB C -0.35588(8) 0.71178(8) 0.47918(8)
C5T C -0.21178(8) 0.64412(8) 0.52082(8)
C5BB C 0.21178(8) 0.97918(8) 0.64412(8)
C5FC C 0.14412(8) 1.02082(8) 0.78822(8)
C5E C 0.28822(8) 0.97918(8) 0.85588(8)
C5MA C 0.35588(8) 1.02082(8) 0.71178(8)
C6KC C 0.00543(10) 1.30638(9) 0.38522(9)
C6AA C -0.00543(10) 1.38522(9) 0.19362(9)
C6NB C 0.00543(10) 1.19362(9) 0.11478(9)
C6GA C -0.11478(9) 0.80638(9) 0.50543(10)
C6QC C -0.30638(9) 0.88522(9) 0.49457(10)
C6FB C -0.38522(9) 0.69362(9) 0.50543(10)
C6T C -0.19362(9) 0.61478(9) 0.49457(10)
C6BB C 0.19362(9) 1.00543(10) 0.61478(9)
C6FC C 0.11478(9) 0.99457(10) 0.80638(9)
C6E C 0.30638(9) 1.00543(10) 0.88522(9)
C6MA C 0.38522(9) 0.99457(10) 0.69362(9)
H6KC H 0.0337 1.3094 0.3796
H6AA H -0.0337 1.3796 0.1906
H6NB H 0.0337 1.1906 0.1204
H6GA H -0.1204 0.8094 0.5337
H6QC H -0.3094 0.8796 0.4663
H6FB H -0.3796 0.6906 0.5337
H6T H -0.1906 0.6204 0.4663
H6BB H 0.1906 1.0337 0.6204
H6FC H 0.1204 0.9663 0.8094
H6E H 0.3094 1.0337 0.8796
H6MA H 0.3796 0.9663 0.6906
C7KC C -0.01072(10) 1.31976(9) 0.42256(9)
C7AA C 0.01072(10) 1.42256(9) 0.18024(9)
C7NB C -0.01072(10) 1.18024(9) 0.07744(9)
C7GA C -0.07744(9) 0.81976(9) 0.48928(10)
C7QC C -0.31976(9) 0.92256(9) 0.51072(10)
C7FB C -0.42256(9) 0.68024(9) 0.48928(10)
C7T C -0.18024(9) 0.57744(9) 0.51072(10)
C7BB C 0.18024(9) 0.98928(10) 0.57744(9)
C7FC C 0.07744(9) 1.01072(10) 0.81976(9)
C7E C 0.31976(9) 0.98928(10) 0.92256(9)
C7MA C 0.42256(9) 1.01072(10) 0.68024(9)
H7KC H 0.0069 1.3321 0.4420
H7AA H -0.0069 1.4420 0.1679
H7NB H 0.0069 1.1679 0.0580
H7GA H -0.0580 0.8321 0.5069
H7QC H -0.3321 0.9420 0.4931
H7FB H -0.4420 0.6679 0.5069
H7T H -0.1679 0.5580 0.4931
H7BB H 0.1679 1.0069 0.5580
H7FC H 0.0580 0.9931 0.8321
H7E H 0.3321 1.0069 0.9420
H7MA H 0.4420 0.9931 0.6679
C8KC C -0.05290(9) 1.31527(9) 0.43206(9)
C8AA C 0.05290(9) 1.43206(9) 0.18473(9)
C8NB C -0.05290(9) 1.18473(9) 0.06794(9)
C8GA C -0.06794(9) 0.81527(9) 0.44710(9)
C8QC C -0.31527(9) 0.93206(9) 0.55290(9)
C8FB C -0.43206(9) 0.68473(9) 0.44710(9)
C8T C -0.18473(9) 0.56794(9) 0.55290(9)
C8BB C 0.18473(9) 0.94710(9) 0.56794(9)
C8FC C 0.06794(9) 1.05290(9) 0.81527(9)
C8E C 0.31527(9) 0.94710(9) 0.93206(9)
C8MA C 0.43206(9) 1.05290(9) 0.68473(9)
C9KC C -0.07990(10) 1.29726(10) 0.40273(9)
C9AA C 0.07990(10) 1.40273(9) 0.20274(10)
C9NB C -0.07990(10) 1.20274(10) 0.09727(9)
C9GA C -0.09727(9) 0.79726(10) 0.42010(10)
C9QC C -0.29726(10) 0.90273(9) 0.57990(10)
C9FB C -0.40273(9) 0.70274(10) 0.42010(10)
C9T C -0.20274(10) 0.59727(9) 0.57990(10)
C9BB C 0.20274(10) 0.92010(10) 0.59727(9)
C9FC C 0.09727(9) 1.07990(10) 0.79726(10)
C9E C 0.29726(10) 0.92010(10) 0.90273(9)
C9MA C 0.40273(9) 1.07990(10) 0.70274(10)
C10KC C -0.06322(9) 1.28380(8) 0.36465(9)
C10AA C 0.06322(9) 1.36465(9) 0.21620(8)
C10NB C -0.06322(9) 1.21620(8) 0.13535(9)
C10GA C -0.13535(9) 0.78380(8) 0.43678(9)
C10QC C -0.28380(8) 0.86465(9) 0.56322(9)
C10FB C -0.36465(9) 0.71620(8) 0.43678(9)
C10T C -0.21620(8) 0.63535(9) 0.56322(9)
C10BB C 0.21620(8) 0.93678(9) 0.63535(9)
C10FC C 0.13535(9) 1.06322(9) 0.78380(8)
C10E C 0.28380(8) 0.93678(9) 0.86465(9)
C10MA C 0.36465(9) 1.06322(9) 0.71620(8)
H8KC H -0.0807 1.2717 0.3449
H8AA H 0.0807 1.3449 0.2283
H8NB H -0.0807 1.2283 0.1551
H8GA H -0.1551 0.7717 0.4193
H8QC H -0.2717 0.8449 0.5807
H8FB H -0.3449 0.7283 0.4193
H8T H -0.2283 0.6551 0.5807
H8BB H 0.2283 0.9193 0.6551
H8FC H 0.1551 1.0807 0.7717
H8E H 0.2717 0.9193 0.8449
H8MA H 0.3449 1.0807 0.7283
C11KC C -0.06817(9) 1.33229(9) 0.47259(9)
C11AA C 0.06817(9) 1.47259(9) 0.16771(9)
C11NB C -0.06817(9) 1.16771(9) 0.02741(9)
C11GA C -0.02741(9) 0.83229(9) 0.43183(9)
C11QC C -0.33229(9) 0.97259(9) 0.56817(9)
C11FB C -0.47259(9) 0.66771(9) 0.43183(9)
C11T C -0.16771(9) 0.52741(9) 0.56817(9)
C11BB C 0.16771(9) 0.93183(9) 0.52741(9)
C11FC C 0.02741(9) 1.06817(9) 0.83229(9)
C11E C 0.33229(9) 0.93183(9) 0.97259(9)
C11MA C 0.47259(9) 1.06817(9) 0.66771(9)
C12KC C -0.06249(10) 1.37447(9) 0.48123(11)
C12AA C 0.06249(10) 1.48123(11) 0.12553(9)
C12NB C -0.06249(10) 1.12553(9) 0.01877(11)
C12GA C -0.01877(11) 0.87447(9) 0.43751(10)
C12QC C -0.37447(9) 0.98123(11) 0.56249(10)
C12FB C -0.48123(11) 0.62553(9) 0.43751(10)
C12T C -0.12553(9) 0.51877(11) 0.56249(10)
C12BB C 0.12553(9) 0.93751(10) 0.51877(11)
C12FC C 0.01877(11) 1.06249(10) 0.87447(9)
C12E C 0.37447(9) 0.93751(10) 0.98123(11)
C12MA C 0.48123(11) 1.06249(10) 0.62553(9)
H9KC H -0.0497 1.3918 0.4617
H9AA H 0.0497 1.4617 0.1082
H9NB H -0.0497 1.1082 0.0383
H9GA H -0.0383 0.8918 0.4503
H9QC H -0.3918 0.9617 0.5497
H9FB H -0.4617 0.6082 0.4503
H9T H -0.1082 0.5383 0.5497
H9BB H 0.1082 0.9503 0.5383
H9FC H 0.0383 1.0497 0.8918
H9E H 0.3918 0.9503 0.9617
H9MA H 0.4617 1.0497 0.6082
C13KC C -0.07586(9) 1.39053(9) 0.51889(10)
C13AA C 0.07586(9) 1.51889(10) 0.10947(9)
C13NB C -0.07586(9) 1.10947(9) -0.01889(10)
C13GA C 0.01889(10) 0.89053(9) 0.42414(9)
C13QC C -0.39053(9) 1.01889(10) 0.57586(9)
C13FB C -0.51889(10) 0.60947(9) 0.42414(9)
C13T C -0.10947(9) 0.48111(10) 0.57586(9)
C13BB C 0.10947(9) 0.92414(9) 0.48111(10)
C13FC C -0.01889(10) 1.07586(9) 0.89053(9)
C13E C 0.39053(9) 0.92414(9) 1.01889(10)
C13MA C 0.51889(10) 1.07586(9) 0.60947(9)
H10KC H -0.0722 1.4189 0.5238
H10AA H 0.0722 1.5238 0.0811
H10NB H -0.0722 1.0811 -0.0238
H10GA H 0.0238 0.9189 0.4278
H10QC H -0.4189 1.0238 0.5722
H10FB H -0.5238 0.5811 0.4278
H10T H -0.0811 0.4762 0.5722
H10BB H 0.0811 0.9278 0.4762
H10FC H -0.0238 1.0722 0.9189
H10E H 0.4189 0.9278 1.0238
H10MA H 0.5238 1.0722 0.5811
N2KC N -0.09391(8) 1.36714(7) 0.54886(8)
N2AA N 0.09391(8) 1.54886(8) 0.13286(7)
N2NB N -0.09391(8) 1.13286(7) -0.04886(8)
N2GA N 0.04886(8) 0.86714(7) 0.40609(8)
N2QC N -0.36714(7) 1.04886(8) 0.59391(8)
N2FB N -0.54886(8) 0.63286(7) 0.40609(8)
N2T N -0.13286(7) 0.45114(8) 0.59391(8)
N2BB N 0.13286(7) 0.90609(8) 0.45114(8)
N2FC N -0.04886(8) 1.09391(8) 0.86714(7)
N2E N 0.36714(7) 0.90609(8) 1.04886(8)
N2MA N 0.54886(8) 1.09391(8) 0.63286(7)
N2JB N -0.04886(8) 1.40609(8) 0.63286(7)
N2T_2 N -0.13286(7) 1.45114(8) 0.59391(8)
N2K N 0.04886(8) 1.63286(7) 0.09391(8)
N2AC N 0.13286(7) 1.59391(8) 0.04886(8)
N2FC_2 N -0.04886(8) 1.09391(8) -0.13286(7)
N2SA N -0.13286(7) 1.04886(8) -0.09391(8)
C14KC C -0.09915(10) 1.32665(10) 0.54044(11)
C14AA C 0.09915(10) 1.54044(11) 0.17335(10)
C14NB C -0.09915(10) 1.17335(10) -0.04044(11)
C14GA C 0.04044(11) 0.82665(10) 0.40085(10)
C14QC C -0.32665(10) 1.04044(11) 0.59915(10)
C14FB C -0.54044(11) 0.67335(10) 0.40085(10)
C14T C -0.17335(10) 0.45956(11) 0.59915(10)
C14BB C 0.17335(10) 0.90085(10) 0.45956(11)
C14FC C -0.04044(11) 1.09915(10) 0.82665(10)
C14E C 0.32665(10) 0.90085(10) 1.04044(11)
C14MA C 0.54044(11) 1.09915(10) 0.67335(10)
H11KC H -0.1113 1.3098 0.5607
H11AA H 0.1113 1.5607 0.1902
H11NB H -0.1113 1.1902 -0.0607
H11GA H 0.0607 0.8098 0.3887
H11QC H -0.3098 1.0607 0.6113
H11FB H -0.5607 0.6902 0.3887
H11T H -0.1902 0.4393 0.6113
H11BB H 0.1902 0.8887 0.4393
H11FC H -0.0607 1.1113 0.8098
H11E H 0.3098 0.8887 1.0607
H11MA H 0.5607 1.1113 0.6902
C15KC C -0.08734(10) 1.30842(12) 0.50301(12)
C15AA C 0.08734(10) 1.50301(12) 0.19158(12)
C15NB C -0.08734(10) 1.19158(12) -0.00301(12)
C15GA C 0.00301(12) 0.80842(12) 0.41266(10)
C15QC C -0.30842(12) 1.00301(12) 0.58734(10)
C15FB C -0.50301(12) 0.69158(12) 0.41266(10)
C15T C -0.19158(12) 0.49699(12) 0.58734(10)
C15BB C 0.19158(12) 0.91266(10) 0.49699(12)
C15FC C -0.00301(12) 1.08734(10) 0.80842(12)
C15E C 0.30842(12) 0.91266(10) 1.00301(12)
C15MA C 0.50301(12) 1.08734(10) 0.69158(12)
H12KC H -0.0923 1.2802 0.4984
H12AA H 0.0923 1.4984 0.2198
H12NB H -0.0923 1.2198 0.0016
H12GA H -0.0016 0.7802 0.4077
H12QC H -0.2802 0.9984 0.5923
H12FB H -0.4984 0.7198 0.4077
H12T H -0.2198 0.5016 0.5923
H12BB H 0.2198 0.9077 0.5016
H12FC H 0.0016 1.0923 0.7802
H12E H 0.2802 0.9077 0.9984
H12MA H 0.4984 1.0923 0.7198
C16KC C -0.12584(19) 1.29221(14) 0.41041(11)
C16AA C 0.12584(19) 1.41041(11) 0.20779(14)
C16NB C -0.12584(19) 1.20779(14) 0.08959(11)
C16GA C -0.08959(11) 0.79221(14) 0.37416(19)
C16QC C -0.29221(14) 0.91041(11) 0.62584(19)
C16FB C -0.41041(11) 0.70779(14) 0.37416(19)
C16T C -0.20779(14) 0.58959(11) 0.62584(19)
C16BB C 0.20779(14) 0.87416(19) 0.58959(11)
C16FC C 0.08959(11) 1.12584(19) 0.79221(14)
C16E C 0.29221(14) 0.87416(19) 0.91041(11)
C16MA C 0.41041(11) 1.12584(19) 0.70779(14)
H13KC H -0.1385 1.2791 0.3867
H13AA H 0.1385 1.3867 0.2209
H13NB H -0.1385 1.2209 0.1133
H13GA H -0.1133 0.7791 0.3615
H13QC H -0.2791 0.8867 0.6385
H13FB H -0.3867 0.7209 0.3615
H13T H -0.2209 0.6133 0.6385
H13BB H 0.2209 0.8615 0.6133
H13FC H 0.1133 1.1385 0.7791
H13E H 0.2791 0.8615 0.8867
H13MA H 0.3867 1.1385 0.7209
H14KC H -0.1301 1.2752 0.4347
H14AA H 0.1301 1.4347 0.2248
H14NB H -0.1301 1.2248 0.0653
H14GA H -0.0653 0.7752 0.3699
H14QC H -0.2752 0.9347 0.6301
H14FB H -0.4347 0.7248 0.3699
H14T H -0.2248 0.5653 0.6301
H14BB H 0.2248 0.8699 0.5653
H14FC H 0.0653 1.1301 0.7752
H14E H 0.2752 0.8699 0.9347
H14MA H 0.4347 1.1301 0.7248
H15KC H -0.1383 1.3191 0.4148
H15AA H 0.1383 1.4148 0.1809
H15NB H -0.1383 1.1809 0.0852
H15GA H -0.0852 0.8191 0.3617
H15QC H -0.3191 0.9148 0.6383
H15FB H -0.4148 0.6809 0.3617
H15T H -0.1809 0.5852 0.6383
H15BB H 0.1809 0.8617 0.5852
H15FC H 0.0852 1.1383 0.8191
H15E H 0.3191 0.8617 0.9148
H15MA H 0.4148 1.1383 0.6809
loop_
_geom_bond_atom_site_label_1
_geom_bond_atom_site_label_2
_geom_bond_site_symmetry_1
_geom_bond_site_symmetry_2
Cu1 N1 1_555 1_555
N1 C1 1_555 1_555
C1 C2 1_555 1_555
C2 H1 1_555 1_555
H2 C2 1_555 1_555
H3 C2 1_555 1_555
C3 C4 1_555 1_555
C4 H4 1_555 1_555
H5 C4 1_555 1_555
O1 C4 1_555 1_555
C5 O1 1_555 1_555
C6 C5 1_555 1_555
H6 C6 1_555 1_555
C7 C6 1_555 1_555
H7 C7 1_555 1_555
C8 C7 1_555 1_555
C9 C8 1_555 1_555
C10 C5 1_555 1_555
H8 C10 1_555 1_555
C11 C8 1_555 1_555
C12 C11 1_555 1_555
H9 C12 1_555 1_555
C13 C12 1_555 1_555
H10 C13 1_555 1_555
N2 Cu1 1_555 1_555
C14 N2 1_555 1_555
H11 C14 1_555 1_555
C15 C11 1_555 1_555
H12 C15 1_555 1_555
C16 C9 1_555 1_555
H13 C16 1_555 1_555
H14 C16 1_555 1_555
H15 C16 1_555 1_555
B1 F1 1_555 1_555
B2 F2 1_555 1_555
F3 B2 1_555 1_555
Cu1T N1T 1_555 1_555
Cu1K N1K 1_555 1_555
Cu1SA N1SA 1_555 1_555
Cu1S N2QC 1_555 1_555
Cu1BA N2FB 1_555 1_555
Cu1T_2 N2T 1_555 1_555
Cu1SA_2 N2FC 1_555 1_555
Cu1E N2E 1_555 1_555
Cu1S_2 N2MA 1_555 1_555
N1T C1KC 1_555 1_555
N1K C1AA 1_555 1_555
N1SA C1NB 1_555 1_555
C1GA N1 1_555 1_555
C1BB N1 1_555 1_555
C1KC C1JB 1_555 1_555
C1JB N1T 1_555 1_555
C1T N1T 1_555 1_555
C1AA C1K 1_555 1_555
C1K N1K 1_555 1_555
C1AC N1K 1_555 1_555
C1NB C1FC 1_555 1_555
C1FC N1SA 1_555 1_555
C1SA N1SA 1_555 1_555
C2GA C1GA 1_555 1_555
C2BB C1BB 1_555 1_555
C2KC C1KC 1_555 1_555
C2JB C1JB 1_555 1_555
C2T C1T 1_555 1_555
C2AA C1AA 1_555 1_555
C2K C1K 1_555 1_555
C2AC C1AC 1_555 1_555
C2NB C1NB 1_555 1_555
C2FC C1FC 1_555 1_555
C2SA C1SA 1_555 1_555
H1GA C2GA 1_555 1_555
H1BB C2BB 1_555 1_555
H1KC C2KC 1_555 1_555
H1JB C2JB 1_555 1_555
H1T C2T 1_555 1_555
H1AA C2AA 1_555 1_555
H1K C2K 1_555 1_555
H1AC C2AC 1_555 1_555
H1NB C2NB 1_555 1_555
H1FC C2FC 1_555 1_555
H1SA C2SA 1_555 1_555
H2GA C2GA 1_555 1_555
H2BB C2BB 1_555 1_555
H2KC C2KC 1_555 1_555
H2JB C2JB 1_555 1_555
H2T C2T 1_555 1_555
H2AA C2AA 1_555 1_555
H2K C2K 1_555 1_555
H2AC C2AC 1_555 1_555
H2NB C2NB 1_555 1_555
H2FC C2FC 1_555 1_555
H2SA C2SA 1_555 1_555
H3GA C2GA 1_555 1_555
H3BB C2BB 1_555 1_555
H3KC C2KC 1_555 1_555
H3JB C2JB 1_555 1_555
H3T C2T 1_555 1_555
H3AA C2AA 1_555 1_555
H3K C2K 1_555 1_555
H3AC C2AC 1_555 1_555
H3NB C2NB 1_555 1_555
H3FC C2FC 1_555 1_555
H3SA C2SA 1_555 1_555
C3T C4GA 1_555 1_555
C3E C4BB 1_555 1_555
C4KC C3 1_555 1_555
C4AA C3 1_555 1_555
C4NB C3 1_555 1_555
C4GA H4GA 1_555 1_555
C4QC C3T 1_555 1_555
C4FB C3T 1_555 1_555
C4T C3T 1_555 1_555
C4BB H4BB 1_555 1_555
C4FC C3E 1_555 1_555
C4E C3E 1_555 1_555
C4MA C3E 1_555 1_555
H4KC C4KC 1_555 1_555
H4AA C4AA 1_555 1_555
H4NB C4NB 1_555 1_555
H4QC C4QC 1_555 1_555
H4FB C4FB 1_555 1_555
H4T C4T 1_555 1_555
H4FC C4FC 1_555 1_555
H4E C4E 1_555 1_555
H4MA C4MA 1_555 1_555
H5KC C4KC 1_555 1_555
H5AA C4AA 1_555 1_555
H5NB C4NB 1_555 1_555
H5GA C4GA 1_555 1_555
H5QC C4QC 1_555 1_555
H5FB C4FB 1_555 1_555
H5T C4T 1_555 1_555
H5BB C4BB 1_555 1_555
H5FC C4FC 1_555 1_555
H5E C4E 1_555 1_555
H5MA C4MA 1_555 1_555
O1KC C4KC 1_555 1_555
O1AA C4AA 1_555 1_555
O1NB C4NB 1_555 1_555
O1GA C4GA 1_555 1_555
O1QC C4QC 1_555 1_555
O1FB C4FB 1_555 1_555
O1T C4T 1_555 1_555
O1BB C4BB 1_555 1_555
O1FC C4FC 1_555 1_555
O1E C4E 1_555 1_555
O1MA C4MA 1_555 1_555
C5KC O1KC 1_555 1_555
C5AA O1AA 1_555 1_555
C5NB O1NB 1_555 1_555
C5GA O1GA 1_555 1_555
C5QC O1QC 1_555 1_555
C5FB O1FB 1_555 1_555
C5T O1T 1_555 1_555
C5BB O1BB 1_555 1_555
C5FC O1FC 1_555 1_555
C5E O1E 1_555 1_555
C5MA O1MA 1_555 1_555
C6KC C5KC 1_555 1_555
C6AA C5AA 1_555 1_555
C6NB C5NB 1_555 1_555
C6GA C5GA 1_555 1_555
C6QC C5QC 1_555 1_555
C6FB C5FB 1_555 1_555
C6T C5T 1_555 1_555
C6BB C5BB 1_555 1_555
C6FC C5FC 1_555 1_555
C6E C5E 1_555 1_555
C6MA C5MA 1_555 1_555
H6KC C6KC 1_555 1_555
H6AA C6AA 1_555 1_555
H6NB C6NB 1_555 1_555
H6GA C6GA 1_555 1_555
H6QC C6QC 1_555 1_555
H6FB C6FB 1_555 1_555
H6T C6T 1_555 1_555
H6BB C6BB 1_555 1_555
H6FC C6FC 1_555 1_555
H6E C6E 1_555 1_555
H6MA C6MA 1_555 1_555
C7KC C6KC 1_555 1_555
C7AA C6AA 1_555 1_555
C7NB C6NB 1_555 1_555
C7GA C6GA 1_555 1_555
C7QC C6QC 1_555 1_555
C7FB C6FB 1_555 1_555
C7T C6T 1_555 1_555
C7BB C6BB 1_555 1_555
C7FC C6FC 1_555 1_555
C7E C6E 1_555 1_555
C7MA C6MA 1_555 1_555
H7KC C7KC 1_555 1_555
H7AA C7AA 1_555 1_555
H7NB C7NB 1_555 1_555
H7GA C7GA 1_555 1_555
H7QC C7QC 1_555 1_555
H7FB C7FB 1_555 1_555
H7T C7T 1_555 1_555
H7BB C7BB 1_555 1_555
H7FC C7FC 1_555 1_555
H7E C7E 1_555 1_555
H7MA C7MA 1_555 1_555
C8KC C7KC 1_555 1_555
C8AA C7AA 1_555 1_555
C8NB C7NB 1_555 1_555
C8GA C7GA 1_555 1_555
C8QC C7QC 1_555 1_555
C8FB C7FB 1_555 1_555
C8T C7T 1_555 1_555
C8BB C7BB 1_555 1_555
C8FC C7FC 1_555 1_555
C8E C7E 1_555 1_555
C8MA C7MA 1_555 1_555
C9KC C8KC 1_555 1_555
C9AA C8AA 1_555 1_555
C9NB C8NB 1_555 1_555
C9GA C8GA 1_555 1_555
C9QC C8QC 1_555 1_555
C9FB C8FB 1_555 1_555
C9T C8T 1_555 1_555
C9BB C8BB 1_555 1_555
C9FC C8FC 1_555 1_555
C9E C8E 1_555 1_555
C9MA C8MA 1_555 1_555
C10KC C5KC 1_555 1_555
C10AA C5AA 1_555 1_555
C10NB C5NB 1_555 1_555
C10GA C5GA 1_555 1_555
C10QC C5QC 1_555 1_555
C10FB C5FB 1_555 1_555
C10T C5T 1_555 1_555
C10BB C5BB 1_555 1_555
C10FC C5FC 1_555 1_555
C10E C5E 1_555 1_555
C10MA C5MA 1_555 1_555
H8KC C10KC 1_555 1_555
H8AA C10AA 1_555 1_555
H8NB C10NB 1_555 1_555
H8GA C10GA 1_555 1_555
H8QC C10QC 1_555 1_555
H8FB C10FB 1_555 1_555
H8T C10T 1_555 1_555
H8BB C10BB 1_555 1_555
H8FC C10FC 1_555 1_555
H8E C10E 1_555 1_555
H8MA C10MA 1_555 1_555
C11KC C8KC 1_555 1_555
C11AA C8AA 1_555 1_555
C11NB C8NB 1_555 1_555
C11GA C8GA 1_555 1_555
C11QC C8QC 1_555 1_555
C11FB C8FB 1_555 1_555
C11T C8T 1_555 1_555
C11BB C8BB 1_555 1_555
C11FC C8FC 1_555 1_555
C11E C8E 1_555 1_555
C11MA C8MA 1_555 1_555
C12KC C11KC 1_555 1_555
C12AA C11AA 1_555 1_555
C12NB C11NB 1_555 1_555
C12GA C11GA 1_555 1_555
C12QC C11QC 1_555 1_555
C12FB C11FB 1_555 1_555
C12T C11T 1_555 1_555
C12BB C11BB 1_555 1_555
C12FC C11FC 1_555 1_555
C12E C11E 1_555 1_555
C12MA C11MA 1_555 1_555
H9KC C12KC 1_555 1_555
H9AA C12AA 1_555 1_555
H9NB C12NB 1_555 1_555
H9GA C12GA 1_555 1_555
H9QC C12QC 1_555 1_555
H9FB C12FB 1_555 1_555
H9T C12T 1_555 1_555
H9BB C12BB 1_555 1_555
H9FC C12FC 1_555 1_555
H9E C12E 1_555 1_555
H9MA C12MA 1_555 1_555
C13KC C12KC 1_555 1_555
C13AA C12AA 1_555 1_555
C13NB C12NB 1_555 1_555
C13GA C12GA 1_555 1_555
C13QC C12QC 1_555 1_555
C13FB C12FB 1_555 1_555
C13T C12T 1_555 1_555
C13BB C12BB 1_555 1_555
C13FC C12FC 1_555 1_555
C13E C12E 1_555 1_555
C13MA C12MA 1_555 1_555
H10KC C13KC 1_555 1_555
H10AA C13AA 1_555 1_555
H10NB C13NB 1_555 1_555
H10GA C13GA 1_555 1_555
H10QC C13QC 1_555 1_555
H10FB C13FB 1_555 1_555
H10T C13T 1_555 1_555
H10BB C13BB 1_555 1_555
H10FC C13FC 1_555 1_555
H10E C13E 1_555 1_555
H10MA C13MA 1_555 1_555
N2KC Cu1T 1_555 1_555
N2AA Cu1K 1_555 1_555
N2NB Cu1SA 1_555 1_555
N2GA Cu1 1_555 1_555
N2QC C13QC 1_555 1_555
N2FB C13FB 1_555 1_555
N2T C13T 1_555 1_555
N2BB Cu1 1_555 1_555
N2FC C13FC 1_555 1_555
N2E C13E 1_555 1_555
N2MA C13MA 1_555 1_555
N2JB Cu1T 1_555 1_555
N2T_2 Cu1T 1_555 1_555
N2K Cu1K 1_555 1_555
N2AC Cu1K 1_555 1_555
N2FC_2 Cu1SA 1_555 1_555
N2SA Cu1SA 1_555 1_555
C14KC N2KC 1_555 1_555
C14AA N2AA 1_555 1_555
C14NB N2NB 1_555 1_555
C14GA N2GA 1_555 1_555
C14QC N2QC 1_555 1_555
C14FB N2FB 1_555 1_555
C14T N2T 1_555 1_555
C14BB N2BB 1_555 1_555
C14FC N2FC 1_555 1_555
C14E N2E 1_555 1_555
C14MA N2MA 1_555 1_555
H11KC C14KC 1_555 1_555
H11AA C14AA 1_555 1_555
H11NB C14NB 1_555 1_555
H11GA C14GA 1_555 1_555
H11QC C14QC 1_555 1_555
H11FB C14FB 1_555 1_555
H11T C14T 1_555 1_555
H11BB C14BB 1_555 1_555
H11FC C14FC 1_555 1_555
H11E C14E 1_555 1_555
H11MA C14MA 1_555 1_555
C15KC C11KC 1_555 1_555
C15AA C11AA 1_555 1_555
C15NB C11NB 1_555 1_555
C15GA C11GA 1_555 1_555
C15QC C11QC 1_555 1_555
C15FB C11FB 1_555 1_555
C15T C11T 1_555 1_555
C15BB C11BB 1_555 1_555
C15FC C11FC 1_555 1_555
C15E C11E 1_555 1_555
C15MA C11MA 1_555 1_555
H12KC C15KC 1_555 1_555
H12AA C15AA 1_555 1_555
H12NB C15NB 1_555 1_555
H12GA C15GA 1_555 1_555
H12QC C15QC 1_555 1_555
H12FB C15FB 1_555 1_555
H12T C15T 1_555 1_555
H12BB C15BB 1_555 1_555
H12FC C15FC 1_555 1_555
H12E C15E 1_555 1_555
H12MA C15MA 1_555 1_555
C16KC C9KC 1_555 1_555
C16AA C9AA 1_555 1_555
C16NB C9NB 1_555 1_555
C16GA C9GA 1_555 1_555
C16QC C9QC 1_555 1_555
C16FB C9FB 1_555 1_555
C16T C9T 1_555 1_555
C16BB C9BB 1_555 1_555
C16FC C9FC 1_555 1_555
C16E C9E 1_555 1_555
C16MA C9MA 1_555 1_555
H13KC C16KC 1_555 1_555
H13AA C16AA 1_555 1_555
H13NB C16NB 1_555 1_555
H13GA C16GA 1_555 1_555
H13QC C16QC 1_555 1_555
H13FB C16FB 1_555 1_555
H13T C16T 1_555 1_555
H13BB C16BB 1_555 1_555
H13FC C16FC 1_555 1_555
H13E C16E 1_555 1_555
H13MA C16MA 1_555 1_555
H14KC C16KC 1_555 1_555
H14AA C16AA 1_555 1_555
H14NB C16NB 1_555 1_555
H14GA C16GA 1_555 1_555
H14QC C16QC 1_555 1_555
H14FB C16FB 1_555 1_555
H14T C16T 1_555 1_555
H14BB C16BB 1_555 1_555
H14FC C16FC 1_555 1_555
H14E C16E 1_555 1_555
H14MA C16MA 1_555 1_555
H15KC C16KC 1_555 1_555
H15AA C16AA 1_555 1_555
H15NB C16NB 1_555 1_555
H15GA C16GA 1_555 1_555
H15QC C16QC 1_555 1_555
H15FB C16FB 1_555 1_555
H15T C16T 1_555 1_555
H15BB C16BB 1_555 1_555
H15FC C16FC 1_555 1_555
H15E C16E 1_555 1_555
H15MA C16MA 1_555 1_555
F1A B1 1_555 1_555
F1B B1 1_555 1_555
F1C B1 1_555 1_555
F2XA B2 1_555 1_555
F3XA B2 1_555 1_555
C1 C1GA 1_555 1_555
C1 C1BB 1_555 1_555
C9 C10 1_555 1_555
C13 N2 1_555 1_555
C14 C15 1_555 1_555
C1GA C1BB 1_555 1_555
C1KC C1T 1_555 1_555
C1JB C1T 1_555 1_555
C1AA C1AC 1_555 1_555
C1K C1AC 1_555 1_555
C1NB C1SA 1_555 1_555
C1FC C1SA 1_555 1_555
C9KC C10KC 1_555 1_555
C9AA C10AA 1_555 1_555
C9NB C10NB 1_555 1_555
C9GA C10GA 1_555 1_555
C9QC C10QC 1_555 1_555
C9FB C10FB 1_555 1_555
C9T C10T 1_555 1_555
C9BB C10BB 1_555 1_555
C9FC C10FC 1_555 1_555
C9E C10E 1_555 1_555
C9MA C10MA 1_555 1_555
C13KC N2KC 1_555 1_555
C13AA N2AA 1_555 1_555
C13NB N2NB 1_555 1_555
C13GA N2GA 1_555 1_555
C13BB N2BB 1_555 1_555
C14KC C15KC 1_555 1_555
C14AA C15AA 1_555 1_555
C14NB C15NB 1_555 1_555
C14GA C15GA 1_555 1_555
C14QC C15QC 1_555 1_555
C14FB C15FB 1_555 1_555
C14T C15T 1_555 1_555
C14BB C15BB 1_555 1_555
C14FC C15FC 1_555 1_555
C14E C15E 1_555 1_555
C14MA C15MA 1_555 1_555

#END
