
#######################################################################
#
#                 Cambridge Crystallographic Data Centre
#                                CCDC 
#
#######################################################################
#
# If this CIF has been generated from an entry in the Cambridge 
# Structural Database, then it will include bibliographic, chemical, 
# crystal, experimental, refinement or atomic coordinate data resulting 
# from the CCDC's data processing and validation procedures.
#
#######################################################################

data_MOXXIH
_symmetry_cell_setting           triclinic
_symmetry_space_group_name_H-M   'P -1'
_symmetry_Int_Tables_number      2
_space_group_name_Hall           '-P 1'
loop_
_symmetry_equiv_pos_site_id
_symmetry_equiv_pos_as_xyz
1 x,y,z
2 -x,-y,-z
_cell_length_a                   8.2899(17)
_cell_length_b                   8.6388(17)
_cell_length_c                   12.100(2)
_cell_angle_alpha                83.76(3)
_cell_angle_beta                 88.29(3)
_cell_angle_gamma                81.61(3)
_cell_volume                     852.1
loop_
_atom_site_label
_atom_site_type_symbol
_atom_site_fract_x
_atom_site_fract_y
_atom_site_fract_z
C1 C 0.7655(7) 1.3561(6) 0.2757(4)
H1 H 0.8170 1.4397 0.2915
C2 C 0.5941(7) 0.7210(6) 0.4461(4)
H2 H 0.5448 0.6396 0.4240
C3 C 0.6572(7) 0.7032(6) 0.5516(4)
H3 H 0.6494 0.6122 0.5989
C4 C 0.7311(7) 0.8203(6) 0.5861(4)
H4 H 0.7743 0.8105 0.6570
C5 C 0.9450(8) 1.1980(7) 0.6696(5)
H5 H 0.9889 1.1954 0.7397
C6 C 0.7652(6) 0.8177(6) 0.0563(4)
C7 C 0.9267(7) 0.7936(7) -0.0030(5)
H6 H 0.9178 0.7337 -0.0653
H7 H 1.0071 0.7329 0.0473
C8 C 0.9847(7) 0.9504(7) -0.0456(5)
H8 H 1.0847 0.9288 -0.0884
H9 H 0.9034 1.0106 -0.0952
N1 N 0.3286(6) 0.5638(6) 0.1813(4)
O1 O 0.7456(5) 0.7543(5) 0.1534(3)
O2 O 0.6477(5) 0.9043(5) 0.0072(3)
O3 O 0.3946(6) 0.6032(5) 0.2644(3)
O4 O 0.3480(8) 0.6395(6) 0.0892(4)
O5 O 0.2494(8) 0.4537(7) 0.1913(5)
C9 C 0.6184(7) 1.2338(6) 0.1536(4)
H10 H 0.5686 1.2376 0.0853
C10 C 0.6954(7) 1.3601(6) 0.1750(5)
H11 H 0.6990 1.4454 0.1214
C11 C 0.7604(6) 1.2271(6) 0.3556(4)
C12 C 0.6816(6) 1.1040(5) 0.3268(4)
C13 C 0.6735(6) 0.9660(5) 0.4064(4)
C14 C 0.7408(6) 0.9566(5) 0.5120(4)
C15 C 0.8169(6) 1.0870(6) 0.5427(4)
C16 C 0.8251(6) 1.2188(5) 0.4666(4)
C17 C 0.9524(8) 1.3299(7) 0.5938(5)
H12 H 1.0008 1.4124 0.6151
N2 N 0.5999(5) 0.8489(4) 0.3738(3)
N3 N 0.6130(5) 1.1081(5) 0.2269(3)
N4 N 0.8932(6) 1.3423(5) 0.4926(4)
N5 N 0.8783(6) 1.0771(5) 0.6459(4)
Pb1 Pb 0.47008(2) 0.88262(2) 0.176735(14)
C1A C 1.2345(7) 0.6439(6) -0.2757(4)
H1A H 1.1830 0.5603 -0.2915
C2A C 1.4059(7) 1.2790(6) -0.4461(4)
H2A H 1.4552 1.3604 -0.4240
C3A C 1.3428(7) 1.2968(6) -0.5516(4)
H3A H 1.3506 1.3878 -0.5989
C4A C 1.2689(7) 1.1797(6) -0.5861(4)
H4A H 1.2257 1.1895 -0.6570
C5A C 1.0550(8) 0.8020(7) -0.6696(5)
H5A H 1.0111 0.8046 -0.7397
C6A C 1.2348(6) 1.1823(6) -0.0563(4)
C7A C 1.0733(7) 1.2064(7) 0.0030(5)
H6A H 1.0822 1.2663 0.0653
H7A H 0.9929 1.2671 -0.0473
C8A C 1.0153(7) 1.0496(7) 0.0456(5)
H8A H 0.9153 1.0712 0.0884
H9A H 1.0966 0.9894 0.0952
N1A N 1.6714(6) 1.4362(6) -0.1813(4)
O1A O 1.2544(5) 1.2457(5) -0.1534(3)
O2A O 1.3523(5) 1.0957(5) -0.0072(3)
O2A_2 O 0.3523(5) 1.0957(5) -0.0072(3)
O2_2 O 1.6477(5) 0.9043(5) 0.0072(3)
O3A O 1.6054(6) 1.3968(5) -0.2644(3)
O4A O 1.6520(8) 1.3605(6) -0.0892(4)
O5A O 1.7506(8) 1.5463(7) -0.1913(5)
C9A C 1.3816(7) 0.7662(6) -0.1536(4)
H10A H 1.4314 0.7624 -0.0853
C10A C 1.3046(7) 0.6399(6) -0.1750(5)
H11A H 1.3010 0.5546 -0.1214
C11A C 1.2396(6) 0.7729(6) -0.3556(4)
C12A C 1.3184(6) 0.8960(5) -0.3268(4)
C13A C 1.3265(6) 1.0340(5) -0.4064(4)
C14A C 1.2592(6) 1.0434(5) -0.5120(4)
C15A C 1.1831(6) 0.9130(6) -0.5427(4)
C16A C 1.1749(6) 0.7812(5) -0.4666(4)
C17A C 1.0476(8) 0.6701(7) -0.5938(5)
H12A H 0.9992 0.5876 -0.6151
N2A N 1.4001(5) 1.1511(4) -0.3738(3)
N3A N 1.3870(5) 0.8919(5) -0.2269(3)
N4A N 1.1068(6) 0.6577(5) -0.4926(4)
N5A N 1.1217(6) 0.9229(5) -0.6459(4)
Pb1A Pb 1.52992(2) 1.11738(2) -0.176735(14)
Pb1A_2 Pb 0.52992(2) 1.11738(2) -0.176735(14)
Pb1_2 Pb 1.47008(2) 0.88262(2) 0.176735(14)
loop_
_geom_bond_atom_site_label_1
_geom_bond_atom_site_label_2
_geom_bond_site_symmetry_1
_geom_bond_site_symmetry_2
C1 H1 1_555 1_555
C2 H2 1_555 1_555
C3 C2 1_555 1_555
H3 C3 1_555 1_555
C4 C3 1_555 1_555
H4 C4 1_555 1_555
C5 H5 1_555 1_555
C6 C7 1_555 1_555
C7 H6 1_555 1_555
H7 C7 1_555 1_555
C8 C7 1_555 1_555
H8 C8 1_555 1_555
H9 C8 1_555 1_555
N1 O3 1_555 1_555
O1 C6 1_555 1_555
O2 C6 1_555 1_555
O3 Pb1 1_555 1_555
O4 N1 1_555 1_555
O5 N1 1_555 1_555
C9 H10 1_555 1_555
C10 C1 1_555 1_555
H11 C10 1_555 1_555
C11 C1 1_555 1_555
C12 C11 1_555 1_555
C13 C12 1_555 1_555
C14 C4 1_555 1_555
C15 C14 1_555 1_555
C16 C11 1_555 1_555
C17 C5 1_555 1_555
H12 C17 1_555 1_555
N2 C2 1_555 1_555
N3 C9 1_555 1_555
N4 C16 1_555 1_555
N5 C5 1_555 1_555
Pb1 O1 1_555 1_555
C1A H1A 1_555 1_555
C2A H2A 1_555 1_555
C3A C2A 1_555 1_555
H3A C3A 1_555 1_555
C4A C3A 1_555 1_555
H4A C4A 1_555 1_555
C5A H5A 1_555 1_555
C6A C7A 1_555 1_555
C7A H6A 1_555 1_555
H7A C7A 1_555 1_555
C8A C8 1_555 1_555
H8A C8A 1_555 1_555
H9A C8A 1_555 1_555
N1A O3A 1_555 1_555
O1A C6A 1_555 1_555
O2A C6A 1_555 1_555
O2A_2 Pb1 1_555 1_555
O2_2 Pb1A 1_555 1_555
O3A Pb1A 1_555 1_555
O4A N1A 1_555 1_555
O5A N1A 1_555 1_555
C9A H10A 1_555 1_555
C10A C1A 1_555 1_555
H11A C10A 1_555 1_555
C11A C1A 1_555 1_555
C12A C11A 1_555 1_555
C13A C12A 1_555 1_555
C14A C4A 1_555 1_555
C15A C14A 1_555 1_555
C16A C11A 1_555 1_555
C17A C5A 1_555 1_555
H12A C17A 1_555 1_555
N2A C2A 1_555 1_555
N3A C9A 1_555 1_555
N4A C16A 1_555 1_555
N5A C5A 1_555 1_555
Pb1A O1A 1_555 1_555
Pb1A_2 O2 1_555 1_555
Pb1_2 O2A 1_555 1_555
O2 Pb1 1_555 1_555
O4 Pb1 1_555 1_555
C9 C10 1_555 1_555
C12 N3 1_555 1_555
C13 C14 1_555 1_555
C13 N2 1_555 1_555
C15 C16 1_555 1_555
C15 N5 1_555 1_555
C17 N4 1_555 1_555
N2 Pb1 1_555 1_555
N3 Pb1 1_555 1_555
C7A C8A 1_555 1_555
O2A Pb1A 1_555 1_555
O2A_2 Pb1A_2 1_555 1_555
O2_2 Pb1_2 1_555 1_555
O4A Pb1A 1_555 1_555
C9A C10A 1_555 1_555
C12A N3A 1_555 1_555
C13A C14A 1_555 1_555
C13A N2A 1_555 1_555
C15A C16A 1_555 1_555
C15A N5A 1_555 1_555
C17A N4A 1_555 1_555
N2A Pb1A 1_555 1_555
N3A Pb1A 1_555 1_555

#END
