
#######################################################################
#
#                 Cambridge Crystallographic Data Centre
#                                CCDC 
#
#######################################################################
#
# If this CIF has been generated from an entry in the Cambridge 
# Structural Database, then it will include bibliographic, chemical, 
# crystal, experimental, refinement or atomic coordinate data resulting 
# from the CCDC's data processing and validation procedures.
#
#######################################################################

data_MOXXUT
_symmetry_cell_setting           triclinic
_symmetry_space_group_name_H-M   'P -1'
_symmetry_Int_Tables_number      2
_space_group_name_Hall           '-P 1'
loop_
_symmetry_equiv_pos_site_id
_symmetry_equiv_pos_as_xyz
1 x,y,z
2 -x,-y,-z
_cell_length_a                   8.8647(18)
_cell_length_b                   10.648(2)
_cell_length_c                   27.091(5)
_cell_angle_alpha                100.12(3)
_cell_angle_beta                 90.24(3)
_cell_angle_gamma                91.79(3)
_cell_volume                     2516.02
loop_
_atom_site_label
_atom_site_type_symbol
_atom_site_fract_x
_atom_site_fract_y
_atom_site_fract_z
C1 C 0.3983(11) 0.2163(9) 0.4769(3)
C2 C 0.5351(10) 0.2963(8) 0.4986(3)
H1 H 0.4978 0.3739 0.5192
C3 C 0.6239(10) 0.2262(9) 0.5335(3)
H2 H 0.5580 0.2068 0.5598
H3 H 0.6569 0.1459 0.5146
C4 C 0.7596(11) 0.3030(9) 0.5570(3)
H4 H 0.8168 0.2515 0.5761
H5 H 0.7261 0.3770 0.5799
C5 C 0.6390(11) 0.3382(9) 0.4595(3)
H6 H 0.5830 0.3885 0.4396
H7 H 0.6735 0.2633 0.4373
C6 C 0.7752(11) 0.4168(8) 0.4836(4)
H8 H 0.8418 0.4369 0.4576
H9 H 0.7415 0.4966 0.5027
C7 C 0.8610(11) 0.3466(9) 0.5178(3)
H10 H 0.9354 0.4079 0.5360
C8 C 0.9497(9) 0.2382(9) 0.4883(3)
C31 C -0.2410(11) -0.0156(9) 0.3970(3)
H29 H -0.2491 -0.0022 0.4317
C32 C -0.3677(11) -0.0558(10) 0.3682(4)
H30 H -0.4596 -0.0672 0.3834
C33 C -0.3577(10) -0.0788(9) 0.3171(4)
H31 H -0.4423 -0.1066 0.2974
C34 C -0.2197(10) -0.0600(7) 0.2950(3)
C35 C -0.0951(10) -0.0154(7) 0.3265(3)
C36 C 0.0488(10) 0.0111(7) 0.3050(3)
C37 C 0.2957(11) 0.0846(9) 0.3172(4)
H32 H 0.3740 0.1185 0.3389
C38 C 0.3236(12) 0.0615(10) 0.2661(4)
H33 H 0.4183 0.0791 0.2538
C39 C 0.2078(12) 0.0118(9) 0.2341(3)
H34 H 0.2242 -0.0055 0.1997
C40 C 0.0652(11) -0.0128(8) 0.2528(3)
C41 C -0.0588(11) -0.0618(8) 0.2202(3)
C42 C -0.2000(12) -0.0850(8) 0.2411(3)
C43 C -0.2955(16) -0.1530(10) 0.1629(4)
H35 H -0.3747 -0.1859 0.1414
C44 C -0.1579(15) -0.1286(10) 0.1419(4)
H36 H -0.1486 -0.1440 0.1072
N5 N 0.1601(8) 0.0603(7) 0.3369(3)
N6 N -0.1086(9) 0.0045(7) 0.3772(3)
N7 N -0.0383(12) -0.0833(8) 0.1704(3)
N8 N -0.3217(11) -0.1323(8) 0.2118(3)
O1 O 0.3727(8) 0.1973(7) 0.4301(2)
O2 O 0.3126(9) 0.1702(9) 0.5063(3)
O8 O 1.0212(7) 0.2554(6) 0.4499(2)
O9 O 0.9539(8) 0.1319(7) 0.5021(3)
Pb2 Pb 0.14091(4) 0.05349(3) 0.437004(11)
O8_2 O 0.0212(7) 0.2554(6) 0.4499(2)
O9_2 O -0.0461(8) 0.1319(7) 0.5021(3)
Pb2_2 Pb 1.14091(4) 0.05349(3) 0.437004(11)
C9 C -0.0525(10) 0.2380(9) -0.0138(3)
C10 C -0.1416(12) 0.2977(10) -0.0513(4)
H11 H -0.0673 0.3293 -0.0732
C11 C -0.2245(13) 0.4125(9) -0.0259(4)
H12 H -0.2605 0.4594 -0.0510
H13 H -0.1556 0.4685 -0.0036
C12 C -0.3577(11) 0.3733(8) 0.0040(4)
H14 H -0.3212 0.3320 0.0307
H15 H -0.4104 0.4488 0.0191
C13 C -0.4667(10) 0.2825(9) -0.0296(3)
H16 H -0.5056 0.3281 -0.0552
C14 C -0.6015(10) 0.2382(9) -0.0015(3)
C15 C -0.3843(11) 0.1667(9) -0.0566(3)
H17 H -0.3515 0.1164 -0.0323
H18 H -0.4536 0.1138 -0.0799
C16 C -0.2474(13) 0.2048(11) -0.0854(3)
H19 H -0.1933 0.1291 -0.0993
H20 H -0.2811 0.2444 -0.1130
C17 C -0.7029(12) 0.3342(10) 0.1615(4)
H21 H -0.6281 0.3450 0.1385
C18 C -0.6696(13) 0.3742(9) 0.2123(4)
H22 H -0.5743 0.4074 0.2229
C19 C -0.7807(13) 0.3632(9) 0.2456(4)
H23 H -0.7628 0.3904 0.2798
C20 C -0.9214(11) 0.3113(8) 0.2289(3)
C21 C -0.9437(11) 0.2719(8) 0.1774(3)
C22 C -1.0886(11) 0.2202(8) 0.1580(3)
C23 C -1.2385(12) 0.1344(9) 0.0898(3)
H24 H -1.2479 0.1020 0.0557
C24 C -1.3671(12) 0.1361(10) 0.1191(4)
H25 H -1.4613 0.1118 0.1047
C25 C -1.3506(11) 0.1744(9) 0.1691(4)
H26 H -1.4342 0.1733 0.1896
C26 C -1.2107(11) 0.2153(8) 0.1904(3)
C27 C -1.1887(12) 0.2520(8) 0.2439(3)
C28 C -1.0455(12) 0.2974(8) 0.2625(3)
C29 C -1.2755(16) 0.2742(10) 0.3232(4)
H27 H -1.3535 0.2687 0.3456
C30 C -1.1364(18) 0.3153(10) 0.3420(4)
H28 H -1.1233 0.3350 0.3766
N1 N -0.8346(10) 0.2816(7) 0.1438(3)
N2 N -1.1039(9) 0.1759(7) 0.1077(3)
N3 N -1.0178(12) 0.3285(8) 0.3127(3)
N4 N -1.3057(11) 0.2416(8) 0.2745(3)
O4 O -0.6157(9) 0.2797(7) 0.0440(3)
O5 O -0.6946(8) 0.1624(8) -0.0266(3)
O6 O 0.0184(8) 0.3081(6) 0.0213(2)
O7 O -0.0487(8) 0.1182(6) -0.0194(3)
Pb1 Pb -0.85376(4) 0.14343(3) 0.050240(12)
O6_2 O -0.9816(8) 0.3081(6) 0.0213(2)
O7_2 O -1.0487(8) 0.1182(6) -0.0194(3)
Pb1_2 Pb 0.14624(4) 0.14343(3) 0.050240(12)
C45 C 0.2914(13) -0.2969(11) 0.2493(5)
H37 H 0.3874 -0.2821 0.2374
C46 C 0.2647(13) -0.2721(11) 0.3008(5)
H38 H 0.3450 -0.2413 0.3222
C47 C -0.0568(13) -0.4433(9) 0.1515(4)
H39 H 0.0384 -0.4324 0.1382
C48 C 0.0202(12) -0.3357(8) 0.2879(3)
C49 C 0.0439(10) -0.3610(8) 0.2365(3)
C50 C -0.0771(12) -0.4124(8) 0.2020(3)
C51 C -0.2212(12) -0.4333(8) 0.2205(3)
C52 C -0.1544(14) -0.3406(10) 0.3592(4)
H40 H -0.0780 -0.3074 0.3818
C53 C -0.3117(15) -0.5031(10) 0.1409(4)
H41 H -0.3915 -0.5333 0.1192
C54 C -0.1733(16) -0.4898(10) 0.1203(4)
H42 H -0.1592 -0.5120 0.0859
C55 C -0.2477(11) -0.4093(8) 0.2752(3)
C56 C -0.1280(11) -0.3613(8) 0.3077(3)
C57 C -0.4062(14) -0.4168(11) 0.3412(4)
H43 H -0.5014 -0.4355 0.3529
C58 C -0.2947(16) -0.3700(11) 0.3760(4)
H44 H -0.3144 -0.3586 0.4101
N9 N 0.1330(10) -0.2896(8) 0.3207(3)
N10 N 0.1803(10) -0.3418(8) 0.2172(3)
N11 N -0.3420(11) -0.4757(8) 0.1903(3)
N12 N -0.3843(10) -0.4365(8) 0.2916(3)
O3 O 0.2880(14) 0.3901(9) 0.3742(3)
loop_
_geom_bond_atom_site_label_1
_geom_bond_atom_site_label_2
_geom_bond_site_symmetry_1
_geom_bond_site_symmetry_2
C1 C2 1_555 1_555
C2 H1 1_555 1_555
C3 C2 1_555 1_555
H2 C3 1_555 1_555
H3 C3 1_555 1_555
C4 C3 1_555 1_555
H4 C4 1_555 1_555
H5 C4 1_555 1_555
C5 C2 1_555 1_555
H6 C5 1_555 1_555
H7 C5 1_555 1_555
C6 C5 1_555 1_555
H8 C6 1_555 1_555
H9 C6 1_555 1_555
C7 C4 1_555 1_555
H10 C7 1_555 1_555
C8 C7 1_555 1_555
C9 C10 1_555 1_555
C10 H11 1_555 1_555
C11 C10 1_555 1_555
H12 C11 1_555 1_555
H13 C11 1_555 1_555
C12 C11 1_555 1_555
H14 C12 1_555 1_555
H15 C12 1_555 1_555
C13 C12 1_555 1_555
H16 C13 1_555 1_555
C14 C13 1_555 1_555
C15 C13 1_555 1_555
H17 C15 1_555 1_555
H18 C15 1_555 1_555
C16 C10 1_555 1_555
H19 C16 1_555 1_555
H20 C16 1_555 1_555
C17 H21 1_555 1_555
C18 C17 1_555 1_555
H22 C18 1_555 1_555
C19 C18 1_555 1_555
H23 C19 1_555 1_555
C20 C19 1_555 1_555
C21 C20 1_555 1_555
C22 C21 1_555 1_555
C23 H24 1_555 1_555
C24 C23 1_555 1_555
H25 C24 1_555 1_555
C25 C24 1_555 1_555
H26 C25 1_555 1_555
C26 C22 1_555 1_555
C27 C26 1_555 1_555
C28 C20 1_555 1_555
C29 H27 1_555 1_555
C30 C29 1_555 1_555
H28 C30 1_555 1_555
C31 H29 1_555 1_555
C32 C31 1_555 1_555
H30 C32 1_555 1_555
C33 C32 1_555 1_555
H31 C33 1_555 1_555
C34 C33 1_555 1_555
C35 C34 1_555 1_555
C36 C35 1_555 1_555
C37 H32 1_555 1_555
C38 C37 1_555 1_555
H33 C38 1_555 1_555
C39 C38 1_555 1_555
H34 C39 1_555 1_555
C40 C36 1_555 1_555
C41 C40 1_555 1_555
C42 C34 1_555 1_555
C43 H35 1_555 1_555
C44 C43 1_555 1_555
H36 C44 1_555 1_555
C45 H37 1_555 1_555
C46 C45 1_555 1_555
H38 C46 1_555 1_555
C47 H39 1_555 1_555
C48 C49 1_555 1_555
C49 C50 1_555 1_555
C50 C47 1_555 1_555
C51 C50 1_555 1_555
C52 H40 1_555 1_555
C53 H41 1_555 1_555
C54 C47 1_555 1_555
H42 C54 1_555 1_555
C55 C51 1_555 1_555
C56 C48 1_555 1_555
C57 H43 1_555 1_555
C58 C52 1_555 1_555
H44 C58 1_555 1_555
N1 C17 1_555 1_555
N2 C22 1_555 1_555
N3 C28 1_555 1_555
N4 C27 1_555 1_555
N5 C36 1_555 1_555
N6 C31 1_555 1_555
N7 C41 1_555 1_555
N8 C42 1_555 1_555
N9 C46 1_555 1_555
N10 C45 1_555 1_555
N11 C51 1_555 1_555
N12 C55 1_555 1_555
O1 C1 1_555 1_555
O2 C1 1_555 1_555
O4 C14 1_555 1_555
O5 C14 1_555 1_555
O6 C9 1_555 1_555
O7 C9 1_555 1_555
O8 C8 1_555 1_555
O9 C8 1_555 1_555
Pb1 N1 1_555 1_555
Pb2 N5 1_555 1_555
O6_2 Pb1 1_555 1_555
O7_2 Pb1 1_555 1_555
O8_2 Pb2 1_555 1_555
O9_2 Pb2 1_555 1_555
Pb1_2 O6 1_555 1_555
Pb2_2 O8 1_555 1_555
C6 C7 1_555 1_555
C15 C16 1_555 1_555
C21 N1 1_555 1_555
C23 N2 1_555 1_555
C25 C26 1_555 1_555
C27 C28 1_555 1_555
C29 N4 1_555 1_555
C30 N3 1_555 1_555
C35 N6 1_555 1_555
C37 N5 1_555 1_555
C39 C40 1_555 1_555
C41 C42 1_555 1_555
C43 N8 1_555 1_555
C44 N7 1_555 1_555
C48 N9 1_555 1_555
C49 N10 1_555 1_555
C52 C56 1_555 1_555
C53 C54 1_555 1_555
C53 N11 1_555 1_555
C55 C56 1_555 1_555
C57 C58 1_555 1_555
C57 N12 1_555 1_555
N2 Pb1 1_555 1_555
N6 Pb2 1_555 1_555
O1 Pb2 1_555 1_555
O2 Pb2 1_555 1_555
O4 Pb1 1_555 1_555
O5 Pb1 1_555 1_555
O7 Pb1_2 1_555 1_555
O9 Pb2_2 1_555 1_555

#END
