
#######################################################################
#
#                 Cambridge Crystallographic Data Centre
#                                CCDC 
#
#######################################################################
#
# If this CIF has been generated from an entry in the Cambridge 
# Structural Database, then it will include bibliographic, chemical, 
# crystal, experimental, refinement or atomic coordinate data resulting 
# from the CCDC's data processing and validation procedures.
#
#######################################################################

data_MOXYAA
_symmetry_cell_setting           triclinic
_symmetry_space_group_name_H-M   'P -1'
_symmetry_Int_Tables_number      2
_space_group_name_Hall           '-P 1'
loop_
_symmetry_equiv_pos_site_id
_symmetry_equiv_pos_as_xyz
1 x,y,z
2 -x,-y,-z
_cell_length_a                   9.3240(19)
_cell_length_b                   13.562(3)
_cell_length_c                   18.148(4)
_cell_angle_alpha                95.33(3)
_cell_angle_beta                 90.47(3)
_cell_angle_gamma                100.64(3)
_cell_volume                     2244.89
loop_
_atom_site_label
_atom_site_type_symbol
_atom_site_fract_x
_atom_site_fract_y
_atom_site_fract_z
C1 C 0.6690(6) 0.6145(4) 0.2198(3)
H1 H 0.6279 0.5603 0.1864
C2 C 0.8118(7) 0.6267(4) 0.2388(3)
H2 H 0.8683 0.5827 0.2170
C3 C 0.8756(6) 0.7055(4) 0.2913(3)
H3 H 0.9736 0.7132 0.3051
C4 C 0.7926(6) 0.7704(4) 0.3218(3)
H4 H 0.8357 0.8218 0.3570
C5 C 0.6143(6) 0.9233(4) 0.3857(3)
C6 C 0.2478(6) 1.2976(4) 0.4731(3)
H5 H 0.1656 1.3273 0.4721
C7 C 0.2512(7) 1.2088(5) 0.4306(3)
H6 H 0.1724 1.1789 0.3994
C8 C 0.3712(6) 1.1647(4) 0.4344(3)
H7 H 0.3695 1.1029 0.4072
O1 O 0.4053(4) 0.3727(3) -0.0126(2)
O2 O 0.5217(4) 0.9683(3) 0.41839(18)
O4 O 0.7461(5) 0.9521(3) 0.3965(3)
O5 O 0.3146(4) 0.5842(3) -0.0586(2)
C9 C 0.3484(6) 0.5887(4) 0.1728(3)
C10 C 0.4287(5) 0.6708(4) 0.2287(2)
C11 C 0.3485(5) 0.7381(4) 0.2605(3)
H8 H 0.2493 0.7295 0.2489
C12 C 0.4137(6) 0.8195(4) 0.3102(2)
H9 H 0.3579 0.8658 0.3289
C13 C 0.5559(5) 0.8324(3) 0.3316(2)
C14 C 0.6445(5) 0.7635(3) 0.3024(2)
C15 C 0.5801(5) 0.6813(3) 0.2491(2)
C16 C 0.1972(5) 0.5864(3) -0.0891(2)
C17 C 0.1893(5) 0.6584(3) -0.1472(2)
C18 C 0.0803(5) 0.6300(3) -0.2006(2)
H10 H 0.0096 0.5729 -0.1964
C19 C 0.0744(5) 0.6860(4) -0.2613(2)
H11 H -0.0003 0.6654 -0.2967
C20 C 0.1762(5) 0.7702(3) -0.2695(2)
C21 C 0.2822(5) 0.8085(3) -0.2121(2)
C22 C 0.2906(5) 0.7513(3) -0.1504(2)
C23 C 0.3945(5) 0.7918(4) -0.0925(3)
H12 H 0.4015 0.7561 -0.0517
C24 C 0.4830(6) 0.8817(4) -0.0965(3)
H13 H 0.5511 0.9066 -0.0584
C25 C 0.4751(7) 0.9382(4) -0.1559(3)
H14 H 0.5360 1.0007 -0.1568
C26 C 0.3780(6) 0.9021(4) -0.2130(3)
H15 H 0.3748 0.9397 -0.2531
C27 C 0.1836(6) 0.8124(4) -0.3431(3)
C28 C 0.2862(6) 0.3079(4) 0.1752(3)
H16 H 0.3557 0.3663 0.1858
C29 C 0.2765(7) 0.2333(5) 0.2225(3)
H17 H 0.3390 0.2413 0.2637
C30 C 0.1740(7) 0.1474(5) 0.2082(3)
H18 H 0.1652 0.0968 0.2401
C31 C 0.0826(6) 0.1362(4) 0.1457(2)
C32 C 0.1001(5) 0.2155(3) 0.0998(2)
C33 C 0.0075(5) 0.2076(3) 0.0336(2)
C34 C -0.0999(5) 0.1219(4) 0.0165(2)
C35 C -0.1181(6) 0.0404(4) 0.0633(3)
C36 C -0.0308(6) 0.0476(4) 0.1269(3)
C37 C -0.2342(7) -0.1142(4) 0.0878(4)
H19 H -0.3020 -0.1730 0.0756
C38 C -0.1514(8) -0.1058(4) 0.1517(4)
H20 H -0.1680 -0.1584 0.1818
C39 C -0.1865(6) 0.1185(4) -0.0476(3)
H21 H -0.2580 0.0623 -0.0616
C40 C -0.1645(7) 0.1985(4) -0.0890(3)
H22 H -0.2221 0.1976 -0.1312
C41 C -0.0571(6) 0.2802(4) -0.0682(3)
H23 H -0.0440 0.3343 -0.0970
C42 C 0.8691(6) 1.3489(4) 0.5772(3)
H24 H 0.9521 1.3210 0.5686
C43 C 0.8812(6) 1.4376(4) 0.6257(3)
H25 H 0.9695 1.4668 0.6497
C44 C 0.7596(6) 1.4795(4) 0.6365(3)
H26 H 0.7644 1.5379 0.6683
C45 C 0.6295(5) 1.4352(3) 0.6002(2)
C46 C 0.6250(5) 1.3454(3) 0.5549(2)
C47 C 0.4911(5) 1.2955(3) 0.5156(2)
C48 C 0.3692(5) 1.3427(4) 0.5177(2)
C49 C 0.3748(5) 1.4363(3) 0.5642(2)
C50 C 0.4998(5) 1.4790(4) 0.6060(2)
C51 C 0.3883(7) 1.6054(4) 0.6517(3)
H27 H 0.3875 1.6639 0.6826
C52 C 0.2654(6) 1.5647(4) 0.6082(3)
H28 H 0.1875 1.5987 0.6092
N1 N 0.7450(4) 1.3034(3) 0.5436(2)
N2 N 0.4912(4) 1.2061(3) 0.47532(19)
N3 N 0.5055(5) 1.5654(3) 0.6516(2)
N4 N 0.2544(5) 1.4798(3) 0.5654(2)
N5 N 0.2013(4) 0.3004(3) 0.1154(2)
N6 N 0.0288(5) 0.2856(3) -0.0089(2)
N7 N -0.0493(6) -0.0267(4) 0.1725(3)
N8 N -0.2213(5) -0.0421(3) 0.0434(3)
O6 O 0.2149(4) 0.5630(3) 0.1783(2)
O7 O 0.4180(4) 0.5487(3) 0.1232(2)
O8 O 0.0794(4) 0.5278(3) -0.07617(18)
O9 O 0.0743(6) 0.8098(4) -0.3804(3)
O10 O 0.3078(4) 0.8385(3) -0.3678(2)
Pb1 Pb 0.195679(18) 0.458021(12) 0.042651(9)
Pb2 Pb 0.70021(2) 1.109120(13) 0.483400(9)
O8A O -0.0794(4) 0.4722(3) 0.07617(18)
O10A O 0.6922(4) 1.1615(3) 0.3678(2)
Pb1A Pb -0.195679(18) 0.541979(12) -0.042651(9)
Pb2A Pb 0.29979(2) 0.890880(13) -0.483400(9)
O3 O 0.0879(12) -0.0303(8) 0.3372(6)
loop_
_geom_bond_atom_site_label_1
_geom_bond_atom_site_label_2
_geom_bond_site_symmetry_1
_geom_bond_site_symmetry_2
C1 H1 1_555 1_555
C2 C1 1_555 1_555
H2 C2 1_555 1_555
C3 C2 1_555 1_555
H3 C3 1_555 1_555
C4 C3 1_555 1_555
H4 C4 1_555 1_555
C5 O2 1_555 1_555
C6 H5 1_555 1_555
C7 C6 1_555 1_555
H6 C7 1_555 1_555
C8 C7 1_555 1_555
H7 C8 1_555 1_555
O1 Pb1 1_555 1_555
O2 Pb2 1_555 1_555
O4 C5 1_555 1_555
O5 C16 1_555 1_555
C9 C10 1_555 1_555
C10 C11 1_555 1_555
C11 H8 1_555 1_555
C12 C11 1_555 1_555
H9 C12 1_555 1_555
C13 C5 1_555 1_555
C14 C4 1_555 1_555
C15 C1 1_555 1_555
C16 C17 1_555 1_555
C17 C18 1_555 1_555
C18 H10 1_555 1_555
C19 C18 1_555 1_555
H11 C19 1_555 1_555
C20 C19 1_555 1_555
C21 C20 1_555 1_555
C22 C17 1_555 1_555
C23 C22 1_555 1_555
H12 C23 1_555 1_555
C24 C23 1_555 1_555
H13 C24 1_555 1_555
C25 C24 1_555 1_555
H14 C25 1_555 1_555
C26 C21 1_555 1_555
H15 C26 1_555 1_555
C27 C20 1_555 1_555
C28 H16 1_555 1_555
C29 C28 1_555 1_555
H17 C29 1_555 1_555
C30 C29 1_555 1_555
H18 C30 1_555 1_555
C31 C30 1_555 1_555
C32 C31 1_555 1_555
C33 C32 1_555 1_555
C34 C33 1_555 1_555
C35 C34 1_555 1_555
C36 C31 1_555 1_555
C37 H19 1_555 1_555
C38 C37 1_555 1_555
H20 C38 1_555 1_555
C39 C34 1_555 1_555
H21 C39 1_555 1_555
C40 C39 1_555 1_555
H22 C40 1_555 1_555
C41 C40 1_555 1_555
H23 C41 1_555 1_555
C42 H24 1_555 1_555
C43 C42 1_555 1_555
H25 C43 1_555 1_555
C44 C43 1_555 1_555
H26 C44 1_555 1_555
C45 C44 1_555 1_555
C46 C45 1_555 1_555
C47 C46 1_555 1_555
C48 C6 1_555 1_555
C49 C48 1_555 1_555
C50 C45 1_555 1_555
C51 H27 1_555 1_555
C52 C51 1_555 1_555
H28 C52 1_555 1_555
N1 C42 1_555 1_555
N2 C8 1_555 1_555
N3 C50 1_555 1_555
N4 C49 1_555 1_555
N5 C28 1_555 1_555
N6 C33 1_555 1_555
N7 C36 1_555 1_555
N8 C35 1_555 1_555
O6 C9 1_555 1_555
O7 C9 1_555 1_555
O8 C16 1_555 1_555
O9 C27 1_555 1_555
O10 C27 1_555 1_555
Pb1 O5 1_555 1_555
Pb2 O4 1_555 1_555
O8A Pb1 1_555 1_555
O10A Pb2 1_555 1_555
Pb1A O8 1_555 1_555
Pb2A O10 1_555 1_555
C10 C15 1_555 1_555
C12 C13 1_555 1_555
C13 C14 1_555 1_555
C14 C15 1_555 1_555
C21 C22 1_555 1_555
C25 C26 1_555 1_555
C32 N5 1_555 1_555
C35 C36 1_555 1_555
C37 N8 1_555 1_555
C38 N7 1_555 1_555
C41 N6 1_555 1_555
C46 N1 1_555 1_555
C47 C48 1_555 1_555
C47 N2 1_555 1_555
C49 C50 1_555 1_555
C51 N3 1_555 1_555
C52 N4 1_555 1_555
N1 Pb2 1_555 1_555
N2 Pb2 1_555 1_555
N5 Pb1 1_555 1_555
N6 Pb1 1_555 1_555
O6 Pb1 1_555 1_555
O7 Pb1 1_555 1_555
O8 Pb1 1_555 1_555
O8A Pb1A 1_555 1_555

#END
