
#######################################################################
#
#                 Cambridge Crystallographic Data Centre
#                                CCDC 
#
#######################################################################
#
# If this CIF has been generated from an entry in the Cambridge 
# Structural Database, then it will include bibliographic, chemical, 
# crystal, experimental, refinement or atomic coordinate data resulting 
# from the CCDC's data processing and validation procedures.
#
#######################################################################

data_MOXYEE
_symmetry_cell_setting           triclinic
_symmetry_space_group_name_H-M   'P -1'
_symmetry_Int_Tables_number      2
_space_group_name_Hall           '-P 1'
loop_
_symmetry_equiv_pos_site_id
_symmetry_equiv_pos_as_xyz
1 x,y,z
2 -x,-y,-z
_cell_length_a                   7.1636(14)
_cell_length_b                   9.2479(18)
_cell_length_c                   15.909(3)
_cell_angle_alpha                104.98(3)
_cell_angle_beta                 91.05(3)
_cell_angle_gamma                103.37(3)
_cell_volume                     987.107
loop_
_atom_site_label
_atom_site_type_symbol
_atom_site_fract_x
_atom_site_fract_y
_atom_site_fract_z
C1 C 1.2302(8) 0.7261(6) 0.6261(4)
C2 C 1.1664(8) 0.5535(6) 0.6015(4)
C3 C 1.2903(9) 0.4680(7) 0.5574(5)
H1 H 1.4133 0.5193 0.5488
C4 C 1.2340(10) 0.3109(8) 0.5270(5)
H2 H 1.3173 0.2557 0.4973
C5 C 1.0525(9) 0.2352(7) 0.5406(4)
H3 H 1.0117 0.1286 0.5181
C6 C 0.9299(8) 0.3153(6) 0.5873(4)
C7 C 0.7343(9) 0.2291(6) 0.6056(4)
C8 C 0.9860(8) 0.4743(6) 0.6173(4)
H4 H 0.9032 0.5286 0.6481
C9 C 0.7071(9) -0.0447(8) 0.7344(4)
H5 H 0.7206 -0.0913 0.6764
C10 C 0.8271(10) -0.0622(9) 0.7989(5)
H6 H 0.9158 -0.1219 0.7841
C11 C 0.8127(9) 0.0098(8) 0.8843(5)
H7 H 0.8944 0.0017 0.9281
C12 C 0.6754(9) 0.0952(7) 0.9056(4)
C13 C 0.5566(8) 0.1051(6) 0.8373(4)
C14 C 0.4070(8) 0.1944(7) 0.8577(4)
C15 C 0.1665(9) 0.2790(8) 0.8045(5)
H8 H 0.0931 0.2858 0.7575
C16 C 0.1292(11) 0.3520(9) 0.8876(5)
H9 H 0.0320 0.4045 0.8959
C17 C 0.2384(10) 0.3454(8) 0.9572(5)
H10 H 0.2174 0.3943 1.0138
C18 C 0.3819(9) 0.2642(7) 0.9422(4)
C19 C 0.5081(9) 0.2559(7) 1.0140(4)
C20 C 0.6530(9) 0.1737(8) 0.9944(4)
C21 C 0.7556(11) 0.2375(9) 1.1362(5)
H11 H 0.8415 0.2382 1.1809
C22 C 0.6057(12) 0.3172(10) 1.1578(5)
H12 H 0.5940 0.3636 1.2161
N1 N 0.5730(7) 0.0362(6) 0.7521(3)
N2 N 0.3009(7) 0.1995(6) 0.7874(3)
N3 N 0.7751(9) 0.1677(8) 1.0603(4)
N4 N 0.4833(9) 0.3267(7) 1.0969(3)
O1 O 1.3834(6) 0.7847(5) 0.5950(3)
O2 O 1.1311(6) 0.8039(5) 0.6722(3)
O4 O 0.6362(6) 0.3007(5) 0.6569(3)
O5 O 0.003(2) 0.0976(14) 0.6278(8)
O6 O 0.6830(6) 0.0836(5) 0.5686(3)
Pb1 Pb 0.36213(3) 0.04634(2) 0.627566(14)
O1_2 O 0.3834(6) -0.2153(5) 0.5950(3)
O2_2 O 0.1311(6) -0.1961(5) 0.6722(3)
Pb1_2 Pb 1.36213(3) 1.04634(2) 0.627566(14)
O3 O -0.2113(10) -0.5095(10) 0.8237(4)
H13 H -0.281(14) -0.444(10) 0.837(7)
H14 H -0.276(14) -0.568(11) 0.777(4)
loop_
_geom_bond_atom_site_label_1
_geom_bond_atom_site_label_2
_geom_bond_site_symmetry_1
_geom_bond_site_symmetry_2
C1 C2 1_555 1_555
C2 C3 1_555 1_555
C3 H1 1_555 1_555
C4 C3 1_555 1_555
H2 C4 1_555 1_555
C5 C4 1_555 1_555
H3 C5 1_555 1_555
C6 C5 1_555 1_555
C7 C6 1_555 1_555
C8 C2 1_555 1_555
H4 C8 1_555 1_555
C9 H5 1_555 1_555
C10 C9 1_555 1_555
H6 C10 1_555 1_555
C11 C10 1_555 1_555
H7 C11 1_555 1_555
C12 C11 1_555 1_555
C13 C12 1_555 1_555
C14 C13 1_555 1_555
C15 H8 1_555 1_555
C16 C15 1_555 1_555
H9 C16 1_555 1_555
C17 C16 1_555 1_555
H10 C17 1_555 1_555
C18 C14 1_555 1_555
C19 C18 1_555 1_555
C20 C12 1_555 1_555
C21 H11 1_555 1_555
C22 C21 1_555 1_555
H12 C22 1_555 1_555
N1 C9 1_555 1_555
N2 C14 1_555 1_555
N3 C20 1_555 1_555
N4 C19 1_555 1_555
O1 C1 1_555 1_555
O2 C1 1_555 1_555
O3 H13 1_555 1_555
H14 O3 1_555 1_555
O4 C7 1_555 1_555
O5 Pb1 1_555 1_555
O6 C7 1_555 1_555
Pb1 N1 1_555 1_555
O1_2 Pb1 1_555 1_555
O2_2 Pb1 1_555 1_555
Pb1_2 O1 1_555 1_555
C6 C8 1_555 1_555
C13 N1 1_555 1_555
C15 N2 1_555 1_555
C17 C18 1_555 1_555
C19 C20 1_555 1_555
C21 N3 1_555 1_555
C22 N4 1_555 1_555
N2 Pb1 1_555 1_555
O2 Pb1_2 1_555 1_555
O4 Pb1 1_555 1_555
O6 Pb1 1_555 1_555

#END
