
#######################################################################
#
#                 Cambridge Crystallographic Data Centre
#                                CCDC 
#
#######################################################################
#
# If this CIF has been generated from an entry in the Cambridge 
# Structural Database, then it will include bibliographic, chemical, 
# crystal, experimental, refinement or atomic coordinate data resulting 
# from the CCDC's data processing and validation procedures.
#
#######################################################################

data_MOXYUT
_symmetry_cell_setting           monoclinic
_symmetry_space_group_name_H-M   'P 21/c'
_symmetry_Int_Tables_number      14
_space_group_name_Hall           '-P 2ybc'
loop_
_symmetry_equiv_pos_site_id
_symmetry_equiv_pos_as_xyz
1 x,y,z
2 -x,1/2+y,1/2-z
3 -x,-y,-z
4 x,1/2-y,1/2+z
_cell_length_a                   15.659(3)
_cell_length_b                   10.487(2)
_cell_length_c                   9.372(2)
_cell_angle_alpha                90
_cell_angle_beta                 99.13(3)
_cell_angle_gamma                90
_cell_volume                     1519.53
loop_
_atom_site_label
_atom_site_type_symbol
_atom_site_fract_x
_atom_site_fract_y
_atom_site_fract_z
Mn1 Mn 0.87432(2) 0.32612(3) 0.47359(3)
O1 O 0.86232(11) 0.69826(17) 0.4115(2)
O2 O 0.86664(10) 0.49662(15) 0.34336(18)
C1 C 0.83469(13) 0.6079(2) 0.3314(2)
C2 C 0.76339(14) 0.6324(2) 0.2116(2)
C3 C 0.73055(14) 0.7608(2) 0.1612(2)
H1 H 0.7469 0.8401 0.2005
C4 C 0.6658(2) 0.7311(4) 0.0337(3)
H2 H 0.6358 0.7953 -0.0214
C5 C 0.6522(2) 0.6108(4) 0.0011(3)
H3 H 0.6123 0.5834 -0.0770
S1 S 0.71303(6) 0.51161(9) 0.11216(11)
O3 O 0.76940(10) 0.37185(17) 0.58072(15)
O4 O 0.80925(10) 0.26810(17) 0.78540(16)
C6 C 0.75450(12) 0.3262(2) 0.69881(19)
C7 C 0.66548(13) 0.3420(2) 0.7319(2)
C8 C 0.62947(15) 0.2801(3) 0.8368(3)
H4 H 0.6586 0.2220 0.9020
C9 C 0.54181(18) 0.3166(4) 0.8325(4)
H5 H 0.5068 0.2842 0.8953
C10 C 0.51445(17) 0.4017(3) 0.7298(3)
H6 H 0.4588 0.4353 0.7136
S2 S 0.59271(4) 0.44150(7) 0.63207(7)
O5 O 0.90637(11) 0.13329(15) 0.57478(16)
H7 H 0.8840(10) 0.1008(19) 0.6584(12)
H8 H 0.8829(13) 0.0860(15) 0.4886(12)
O6 O 0.96277(9) 0.41062(15) 0.66109(16)
H9 H 0.9344(9) 0.4656(14) 0.7221(16)
H10 H 1.0116(6) 0.4589(15) 0.638(2)
O7 O 0.99563(10) 0.29328(15) 0.38320(16)
H11 H 1.0519(6) 0.297(2) 0.4437(17)
H12 H 0.9986(15) 0.2200(10) 0.3211(15)
O4C O 0.80925(10) 0.23190(17) 0.28540(16)
Mn1C Mn 0.87432(2) 0.17388(3) 0.97359(3)
O8 O 0.91326(13) 0.93860(17) 0.3720(2)
H13 H 0.8509(5) 0.960(2) 0.354(3)
loop_
_geom_bond_atom_site_label_1
_geom_bond_atom_site_label_2
_geom_bond_site_symmetry_1
_geom_bond_site_symmetry_2
Mn1 O2 1_555 1_555
O1 C1 1_555 1_555
O2 C1 1_555 1_555
C1 C2 1_555 1_555
C2 C3 1_555 1_555
C3 H1 1_555 1_555
C4 C3 1_555 1_555
H2 C4 1_555 1_555
C5 C4 1_555 1_555
H3 C5 1_555 1_555
S1 C2 1_555 1_555
O3 Mn1 1_555 1_555
O4 C6 1_555 1_555
C6 O3 1_555 1_555
C7 C6 1_555 1_555
C8 C7 1_555 1_555
H4 C8 1_555 1_555
C9 C8 1_555 1_555
H5 C9 1_555 1_555
C10 C9 1_555 1_555
H6 C10 1_555 1_555
S2 C7 1_555 1_555
O5 Mn1 1_555 1_555
H7 O5 1_555 1_555
H8 O5 1_555 1_555
O6 Mn1 1_555 1_555
H9 O6 1_555 1_555
H10 O6 1_555 1_555
O7 Mn1 1_555 1_555
H11 O7 1_555 1_555
H12 O7 1_555 1_555
O8 H13 1_555 1_555
O4C Mn1 1_555 1_555
Mn1C O4 1_555 1_555
C5 S1 1_555 1_555
C10 S2 1_555 1_555

#END
