
#######################################################################
#
#                 Cambridge Crystallographic Data Centre
#                                CCDC 
#
#######################################################################
#
# If this CIF has been generated from an entry in the Cambridge 
# Structural Database, then it will include bibliographic, chemical, 
# crystal, experimental, refinement or atomic coordinate data resulting 
# from the CCDC's data processing and validation procedures.
#
#######################################################################

data_MOXZAA
_symmetry_cell_setting           triclinic
_symmetry_space_group_name_H-M   'P -1'
_symmetry_Int_Tables_number      2
_space_group_name_Hall           '-P 1'
loop_
_symmetry_equiv_pos_site_id
_symmetry_equiv_pos_as_xyz
1 x,y,z
2 -x,-y,-z
_cell_length_a                   7.780(2)
_cell_length_b                   10.640(2)
_cell_length_c                   15.670(3)
_cell_angle_alpha                110.98(3)
_cell_angle_beta                 106.90(3)
_cell_angle_gamma                90.08(3)
_cell_volume                     1150.75
loop_
_atom_site_label
_atom_site_type_symbol
_atom_site_fract_x
_atom_site_fract_y
_atom_site_fract_z
Mn1 Mn 0.17652(3) 0.07211(2) 0.486240(16)
Mn2 Mn 0.19181(3) 0.42768(2) 0.512724(16)
O1 O 0.41056(18) 0.20018(13) 0.58821(9)
O2 O 0.3699(2) 0.41823(16) 0.63937(10)
C1 C 0.4371(2) 0.31854(18) 0.65285(10)
C2 C 0.5586(3) 0.33754(19) 0.74773(13)
C3 C 0.5830(4) 0.4525(2) 0.83639(15)
H1 H 0.5264 0.5310 0.8447
C4 C 0.6997(6) 0.4228(3) 0.9012(2)
H2 H 0.7391 0.4792 0.9659
C5 C 0.6648(4) 0.2470(3) 0.77104(16)
H3 H 0.6709 0.1612 0.7283
O3 O 0.7607(3) 0.2993(3) 0.86543(14)
O4 O 0.2068(2) 0.08124(16) 0.35869(11)
O5 O 0.30859(18) 0.30007(14) 0.41119(9)
C6 C 0.2616(2) 0.18168(17) 0.34678(11)
C7 C 0.2741(3) 0.16454(18) 0.25157(12)
C8 C 0.2000(4) 0.0514(2) 0.16364(14)
H4 H 0.1338 -0.0276 0.1547
C9 C 0.2456(5) 0.0822(3) 0.09553(16)
H5 H 0.2178 0.0259 0.0311
C10 C 0.3537(4) 0.2570(3) 0.23011(16)
H6 H 0.4108 0.3418 0.2743
O6 O 0.3394(4) 0.2100(2) 0.13691(13)
O7 O -0.2567(2) 0.08552(17) 0.34202(10)
O8 O -0.08555(17) -0.05242(13) 0.39842(8)
C11 C -0.1866(2) -0.02245(18) 0.33057(12)
C12 C -0.2189(3) -0.1223(2) 0.23240(12)
C13 C -0.3319(4) -0.1155(3) 0.14537(14)
H7 H -0.3999 -0.0460 0.1383
C14 C -0.3200(5) -0.2306(3) 0.07524(17)
H8 H -0.3797 -0.2536 0.0100
C15 C -0.1479(4) -0.2412(2) 0.20937(14)
H9 H -0.0694 -0.2716 0.2532
O9 O -0.2076(4) -0.3090(2) 0.11343(14)
O10 O 0.0712(3) 0.58687(17) 0.34235(10)
O11 O -0.03306(17) 0.44788(13) 0.39882(8)
C16 C -0.0121(2) 0.47839(17) 0.32951(10)
C17 C -0.0886(3) 0.37849(19) 0.23371(12)
C18 C -0.0745(5) 0.3821(3) 0.14509(14)
H10 H -0.0141 0.4513 0.1379
C19 C -0.1634(6) 0.2687(3) 0.07628(17)
H11 H -0.1751 0.2451 0.0115
C20 C -0.1889(4) 0.2588(2) 0.20830(13)
H12 H -0.2202 0.2287 0.2513
O12 O -0.2368(4) 0.1894(2) 0.11276(13)
O13 O 0.01377(17) 0.24891(12) 0.49964(8)
H13 H -0.036(3) 0.310(2) 0.5476(13)
H14 H -0.086(2) 0.192(2) 0.4441(12)
O14 O 0.3346(2) 0.60405(15) 0.51517(11)
H15 H 0.4676(13) 0.610(3) 0.530(2)
H16 H 0.290(3) 0.648(3) 0.4688(18)
O15 O 0.3188(2) -0.10327(15) 0.48564(12)
H17 H 0.426(3) -0.118(3) 0.464(2)
H18 H 0.332(4) -0.145(3) 0.5338(18)
O8A O 0.08555(17) 0.05242(13) 0.60158(8)
O11A O 0.03306(17) 0.55212(13) 0.60118(8)
Mn1A Mn -0.17652(3) -0.07211(2) 0.513760(16)
Mn2A Mn -0.19181(3) 0.57232(2) 0.487276(16)
loop_
_geom_bond_atom_site_label_1
_geom_bond_atom_site_label_2
_geom_bond_site_symmetry_1
_geom_bond_site_symmetry_2
Mn1 O1 1_555 1_555
Mn2 O2 1_555 1_555
O1 C1 1_555 1_555
O2 C1 1_555 1_555
C1 C2 1_555 1_555
C2 C3 1_555 1_555
C3 H1 1_555 1_555
C4 C3 1_555 1_555
H2 C4 1_555 1_555
C5 C2 1_555 1_555
H3 C5 1_555 1_555
O3 C4 1_555 1_555
O4 Mn1 1_555 1_555
O5 Mn2 1_555 1_555
C6 O4 1_555 1_555
C7 C6 1_555 1_555
C8 C7 1_555 1_555
H4 C8 1_555 1_555
C9 C8 1_555 1_555
H5 C9 1_555 1_555
C10 C7 1_555 1_555
H6 C10 1_555 1_555
O6 C9 1_555 1_555
O7 C11 1_555 1_555
O8 Mn1 1_555 1_555
C11 O8 1_555 1_555
C12 C11 1_555 1_555
C13 C12 1_555 1_555
H7 C13 1_555 1_555
C14 C13 1_555 1_555
H8 C14 1_555 1_555
C15 C12 1_555 1_555
H9 C15 1_555 1_555
O9 C14 1_555 1_555
O10 C16 1_555 1_555
O11 Mn2 1_555 1_555
C16 O11 1_555 1_555
C17 C16 1_555 1_555
C18 C17 1_555 1_555
H10 C18 1_555 1_555
C19 C18 1_555 1_555
H11 C19 1_555 1_555
C20 C17 1_555 1_555
H12 C20 1_555 1_555
O12 C19 1_555 1_555
O13 Mn1 1_555 1_555
H13 O13 1_555 1_555
H14 O13 1_555 1_555
O14 Mn2 1_555 1_555
H15 O14 1_555 1_555
H16 O14 1_555 1_555
O15 Mn1 1_555 1_555
H17 O15 1_555 1_555
H18 O15 1_555 1_555
O8A Mn1 1_555 1_555
O11A Mn2 1_555 1_555
Mn1A O8 1_555 1_555
Mn2A O11 1_555 1_555
Mn2 O13 1_555 1_555
C5 O3 1_555 1_555
O5 C6 1_555 1_555
C10 O6 1_555 1_555
C15 O9 1_555 1_555
C20 O12 1_555 1_555
O8A Mn1A 1_555 1_555
O11A Mn2A 1_555 1_555

#END
