
#######################################################################
#
#                 Cambridge Crystallographic Data Centre
#                                CCDC 
#
#######################################################################
#
# If this CIF has been generated from an entry in the Cambridge 
# Structural Database, then it will include bibliographic, chemical, 
# crystal, experimental, refinement or atomic coordinate data resulting 
# from the CCDC's data processing and validation procedures.
#
#######################################################################

data_MOXZAB
_symmetry_cell_setting           triclinic
_symmetry_space_group_name_H-M   'P -1'
_symmetry_Int_Tables_number      2
_space_group_name_Hall           '-P 1'
loop_
_symmetry_equiv_pos_site_id
_symmetry_equiv_pos_as_xyz
1 x,y,z
2 -x,-y,-z
_cell_length_a                   9.1613(18)
_cell_length_b                   10.420(2)
_cell_length_c                   12.975(3)
_cell_angle_alpha                99.34(3)
_cell_angle_beta                 90.76(3)
_cell_angle_gamma                98.24(3)
_cell_volume                     1208.72
loop_
_atom_site_label
_atom_site_type_symbol
_atom_site_fract_x
_atom_site_fract_y
_atom_site_fract_z
C1 C 0.1285(6) 0.6764(6) 0.1623(5)
C2 C 0.0041(5) 0.7591(6) 0.1677(4)
H1 H 0.0504 0.8512 0.1769
C3 C -0.0962(5) 0.7463(6) 0.2588(4)
H2 H -0.0376 0.7632 0.3237
H3 H -0.1497 0.6577 0.2508
C4 C -0.2056(6) 0.8458(5) 0.2621(5)
H4 H -0.2700 0.8373 0.3201
H5 H -0.1513 0.9342 0.2739
C5 C -0.2989(6) 0.8249(5) 0.1612(5)
H6 H -0.3531 0.8999 0.1650
C6 C -0.4144(5) 0.7015(5) 0.1511(4)
C7 C -0.2022(6) 0.8269(7) 0.0655(5)
H7 H -0.2644 0.8022 0.0022
H8 H -0.1513 0.9153 0.0663
C8 C -0.0888(6) 0.7321(7) 0.0646(4)
H9 H -0.0240 0.7412 0.0069
H10 H -0.1397 0.6424 0.0539
C9 C 0.2447(6) 0.4820(5) 0.4076(4)
H11 H 0.1778 0.5333 0.3874
C10 C 0.2355(6) 0.4455(5) 0.5077(4)
H12 H 0.1634 0.4728 0.5524
C11 C 0.3325(5) 0.3701(5) 0.5388(4)
H13 H 0.3285 0.3468 0.6051
C12 C 0.4382(5) 0.3283(5) 0.4688(4)
C13 C 0.4422(5) 0.3692(5) 0.3693(4)
C14 C 0.5509(6) 0.3281(5) 0.2949(4)
C15 C 0.6484(7) 0.3376(8) 0.1325(5)
H14 H 0.6499 0.3704 0.0699
C16 C 0.7461(8) 0.2515(8) 0.1488(5)
H15 H 0.8098 0.2257 0.0968
C17 C 0.7485(7) 0.2047(7) 0.2410(5)
H16 H 0.8146 0.1483 0.2529
C18 C 0.6490(6) 0.2432(5) 0.3179(4)
C19 C 0.6402(6) 0.2009(5) 0.4178(4)
C20 C 0.5423(5) 0.2451(5) 0.4893(4)
C21 C 0.6727(5) 0.1124(5) 0.5512(4)
C22 C 0.7264(6) 0.0297(5) 0.6225(4)
C23 C 0.8360(6) -0.0452(6) 0.5907(5)
H17 H 0.8757 -0.0418 0.5254
C24 C 0.8876(7) -0.1246(6) 0.6538(6)
H18 H 0.9621 -0.1737 0.6321
C25 C 0.8266(7) -0.1298(6) 0.7493(6)
H19 H 0.8600 -0.1840 0.7919
C26 C 0.7169(7) -0.0567(7) 0.7840(6)
H20 H 0.6773 -0.0611 0.8492
C27 C 0.6671(7) 0.0238(6) 0.7192(5)
H21 H 0.5934 0.0737 0.7412
N1 N 0.5532(5) 0.3744(5) 0.2037(4)
N2 N 0.3466(5) 0.4452(4) 0.3412(4)
N3 N 0.7223(5) 0.1181(5) 0.4565(4)
N4 N 0.5650(5) 0.1877(4) 0.5752(4)
H22 H 0.5197 0.1976 0.6329
O1 O 0.1518(5) 0.6193(5) 0.2362(4)
O2 O 0.2075(5) 0.6730(5) 0.0845(4)
O3 O -0.4376(4) 0.6239(4) 0.0666(3)
O4 O -0.4921(4) 0.6845(4) 0.2292(3)
Pb1 Pb 0.340122(18) 0.497224(18) 0.149422(14)
O3_2 O 0.5624(4) 0.6239(4) 0.0666(3)
O4_2 O 0.5079(4) 0.6845(4) 0.2292(3)
Pb1_2 Pb -0.659878(18) 0.497224(18) 0.149422(14)
loop_
_geom_bond_atom_site_label_1
_geom_bond_atom_site_label_2
_geom_bond_site_symmetry_1
_geom_bond_site_symmetry_2
C1 C2 1_555 1_555
C2 H1 1_555 1_555
C3 C2 1_555 1_555
H2 C3 1_555 1_555
H3 C3 1_555 1_555
C4 C3 1_555 1_555
H4 C4 1_555 1_555
H5 C4 1_555 1_555
C5 C4 1_555 1_555
H6 C5 1_555 1_555
C6 C5 1_555 1_555
C7 C5 1_555 1_555
H7 C7 1_555 1_555
H8 C7 1_555 1_555
C8 C2 1_555 1_555
H9 C8 1_555 1_555
H10 C8 1_555 1_555
C9 H11 1_555 1_555
C10 C9 1_555 1_555
H12 C10 1_555 1_555
C11 C10 1_555 1_555
H13 C11 1_555 1_555
C12 C11 1_555 1_555
C13 C12 1_555 1_555
C14 C13 1_555 1_555
C15 H14 1_555 1_555
C16 C15 1_555 1_555
H15 C16 1_555 1_555
C17 C16 1_555 1_555
H16 C17 1_555 1_555
C18 C14 1_555 1_555
C19 C18 1_555 1_555
C20 C12 1_555 1_555
C21 C22 1_555 1_555
C22 C23 1_555 1_555
C23 H17 1_555 1_555
C24 C23 1_555 1_555
H18 C24 1_555 1_555
C25 C24 1_555 1_555
H19 C25 1_555 1_555
C26 C25 1_555 1_555
H20 C26 1_555 1_555
C27 C22 1_555 1_555
H21 C27 1_555 1_555
N1 C14 1_555 1_555
N2 C9 1_555 1_555
N3 C19 1_555 1_555
N4 C20 1_555 1_555
H22 N4 1_555 1_555
O1 C1 1_555 1_555
O2 C1 1_555 1_555
O3 C6 1_555 1_555
O4 C6 1_555 1_555
Pb1 N1 1_555 1_555
O3_2 Pb1 1_555 1_555
O4_2 Pb1 1_555 1_555
Pb1_2 O3 1_555 1_555
C7 C8 1_555 1_555
C13 N2 1_555 1_555
C15 N1 1_555 1_555
C17 C18 1_555 1_555
C19 C20 1_555 1_555
C21 N3 1_555 1_555
C21 N4 1_555 1_555
C26 C27 1_555 1_555
N2 Pb1 1_555 1_555
O1 Pb1 1_555 1_555
O2 Pb1 1_555 1_555
O4 Pb1_2 1_555 1_555

#END
