
#######################################################################
#
#                 Cambridge Crystallographic Data Centre
#                                CCDC 
#
#######################################################################
#
# If this CIF has been generated from an entry in the Cambridge 
# Structural Database, then it will include bibliographic, chemical, 
# crystal, experimental, refinement or atomic coordinate data resulting 
# from the CCDC's data processing and validation procedures.
#
#######################################################################

data_MOXZOP
_symmetry_cell_setting           triclinic
_symmetry_space_group_name_H-M   'P -1'
_symmetry_Int_Tables_number      2
_space_group_name_Hall           '-P 1'
loop_
_symmetry_equiv_pos_site_id
_symmetry_equiv_pos_as_xyz
1 x,y,z
2 -x,-y,-z
_cell_length_a                   9.4663(19)
_cell_length_b                   10.833(2)
_cell_length_c                   13.159(3)
_cell_angle_alpha                94.19(3)
_cell_angle_beta                 106.42(3)
_cell_angle_gamma                105.72(3)
_cell_volume                     1229.51
loop_
_atom_site_label
_atom_site_type_symbol
_atom_site_fract_x
_atom_site_fract_y
_atom_site_fract_z
C1 C 0.4022(6) -0.1248(6) 0.1859(4)
H1 H 0.4804 -0.1343 0.1591
C2 C 0.3086(7) -0.2337(6) 0.2079(5)
H2 H 0.3245 -0.3139 0.1962
C3 C 0.1928(6) -0.2239(6) 0.2469(5)
H3 H 0.1289 -0.2967 0.2624
C4 C 0.1717(5) -0.1006(5) 0.2633(4)
C5 C 0.2708(5) 0.0055(5) 0.2387(4)
C6 C 0.2513(5) 0.1346(5) 0.2517(4)
C7 C 0.3336(6) 0.3496(6) 0.2354(5)
H4 H 0.4008 0.4168 0.2161
C8 C 0.2186(7) 0.3768(6) 0.2718(6)
H5 H 0.2107 0.4606 0.2776
C9 C 0.1179(6) 0.2783(6) 0.2988(5)
H6 H 0.0411 0.2950 0.3238
C10 C 0.1302(5) 0.1532(5) 0.2889(4)
C11 C 0.0326(5) 0.0426(5) 0.3117(4)
C12 C 0.0503(5) -0.0785(5) 0.3006(4)
C13 C -0.1460(5) -0.1015(5) 0.3547(4)
C14 C -0.2748(6) -0.1605(6) 0.3953(4)
C15 C -0.3282(6) -0.2950(6) 0.3841(5)
H7 H -0.2886 -0.3456 0.3464
C16 C -0.4410(7) -0.3549(6) 0.4290(5)
H8 H -0.4749 -0.4449 0.4226
C17 C -0.5018(6) -0.2795(7) 0.4828(5)
H9 H -0.5776 -0.3190 0.5124
C18 C -0.4514(6) -0.1473(7) 0.4928(5)
H10 H -0.4932 -0.0973 0.5292
C19 C -0.3381(6) -0.0865(6) 0.4490(4)
H11 H -0.3049 0.0037 0.4558
C20 C 0.7829(5) 0.0953(6) 0.0757(4)
C21 C 0.8966(5) 0.0439(6) 0.0373(4)
C22 C 0.8893(5) -0.0846(6) 0.0325(4)
H12 H 0.8144 -0.1417 0.0539
C23 C 1.0075(5) 0.1304(6) 0.0041(4)
H13 H 1.0120 0.2174 0.0065
C24 C 0.7540(5) 0.3367(5) 0.3146(4)
C25 C 0.8812(5) 0.4204(5) 0.4112(4)
C26 C 0.9584(5) 0.5471(5) 0.4051(4)
H14 H 0.9312 0.5789 0.3410
C27 C 0.9245(5) 0.3729(5) 0.5068(4)
H15 H 0.8752 0.2878 0.5118
N1 N 0.3513(5) 0.2331(4) 0.2271(3)
N2 N 0.3877(4) -0.0069(4) 0.2005(3)
N3 N -0.0601(5) -0.1684(4) 0.3280(4)
N4 N -0.0946(4) 0.0266(4) 0.3471(3)
H16 H -0.1337 0.0861 0.3615
O1 O 0.6694(4) 0.0116(4) 0.0895(3)
O2 O 0.8021(4) 0.2132(4) 0.0908(4)
O4 O 0.6914(4) 0.3929(4) 0.2438(3)
O6 O 0.7174(4) 0.2143(4) 0.3086(3)
Pb1 Pb 0.532803(18) 0.176839(19) 0.121908(14)
C1A C 1.5978(6) 0.1248(6) -0.1859(4)
H1A H 1.5196 0.1343 -0.1591
C2A C 1.6914(7) 0.2337(6) -0.2079(5)
H2A H 1.6755 0.3139 -0.1962
C3A C 1.8072(6) 0.2239(6) -0.2469(5)
H3A H 1.8711 0.2967 -0.2624
C4A C 1.8283(5) 0.1006(5) -0.2633(4)
C5A C 1.7292(5) -0.0055(5) -0.2387(4)
C6A C 1.7487(5) -0.1346(5) -0.2517(4)
C7A C 1.6664(6) -0.3496(6) -0.2354(5)
H4A H 1.5992 -0.4168 -0.2161
C8A C 1.7814(7) -0.3768(6) -0.2718(6)
H5A H 1.7893 -0.4606 -0.2776
C9A C 1.8821(6) -0.2783(6) -0.2988(5)
H6A H 1.9589 -0.2950 -0.3238
C10A C 1.8698(5) -0.1532(5) -0.2889(4)
C11A C 1.9674(5) -0.0426(5) -0.3117(4)
C12A C 1.9497(5) 0.0785(5) -0.3006(4)
C13A C 2.1460(5) 0.1015(5) -0.3547(4)
C14A C 2.2748(6) 0.1605(6) -0.3953(4)
C15A C 2.3282(6) 0.2950(6) -0.3841(5)
H7A H 2.2886 0.3456 -0.3464
C16A C 2.4410(7) 0.3549(6) -0.4290(5)
H8A H 2.4749 0.4449 -0.4226
C17A C 2.5018(6) 0.2795(7) -0.4828(5)
H9A H 2.5776 0.3190 -0.5124
C18A C 2.4514(6) 0.1473(7) -0.4928(5)
H10A H 2.4932 0.0973 -0.5292
C19A C 2.3381(6) 0.0865(6) -0.4490(4)
H11A H 2.3049 -0.0037 -0.4558
C20A C 1.2171(5) -0.0953(6) -0.0757(4)
C21A C 1.1034(5) -0.0439(6) -0.0373(4)
C22A C 1.1107(5) 0.0846(6) -0.0325(4)
H12A H 1.1856 0.1417 -0.0539
C23A C 0.9925(5) -0.1304(6) -0.0041(4)
H13A H 0.9880 -0.2174 -0.0065
C24A C 1.2460(5) 0.6633(5) 0.6854(4)
C25A C 1.1188(5) 0.5796(5) 0.5888(4)
C26A C 1.0416(5) 0.4529(5) 0.5949(4)
H14A H 1.0688 0.4211 0.6590
C27A C 1.0755(5) 0.6271(5) 0.4932(4)
H15A H 1.1248 0.7122 0.4882
N1A N 1.6487(5) -0.2331(4) -0.2271(3)
N2A N 1.6123(4) 0.0069(4) -0.2005(3)
N3A N 2.0601(5) 0.1684(4) -0.3280(4)
N4A N 2.0946(4) -0.0266(4) -0.3471(3)
H16A H 2.1337 -0.0861 -0.3615
O1A O 1.3306(4) -0.0116(4) -0.0895(3)
O2A O 1.1979(4) -0.2132(4) -0.0908(4)
O4A O 1.3086(4) 0.6071(4) 0.7562(3)
O4A_2 O 1.3086(4) -0.3929(4) -0.2438(3)
O6A O 1.2826(4) 0.7857(4) 0.6914(3)
O6A_2 O 1.2826(4) -0.2143(4) -0.3086(3)
Pb1A Pb 1.467197(18) -0.176839(19) -0.121908(14)
Pb1A_2 Pb 1.467197(18) 0.823161(19) 0.878092(14)
O3 O 0.9331(17) 0.4723(12) 0.0819(13)
O5 O 0.757(2) 0.6126(17) 0.1252(18)
loop_
_geom_bond_atom_site_label_1
_geom_bond_atom_site_label_2
_geom_bond_site_symmetry_1
_geom_bond_site_symmetry_2
C1 H1 1_555 1_555
C2 C1 1_555 1_555
H2 C2 1_555 1_555
C3 C2 1_555 1_555
H3 C3 1_555 1_555
C4 C3 1_555 1_555
C5 C4 1_555 1_555
C6 C5 1_555 1_555
C7 H4 1_555 1_555
C8 C7 1_555 1_555
H5 C8 1_555 1_555
C9 C8 1_555 1_555
H6 C9 1_555 1_555
C10 C6 1_555 1_555
C11 C10 1_555 1_555
C12 C4 1_555 1_555
C13 C14 1_555 1_555
C14 C15 1_555 1_555
C15 H7 1_555 1_555
C16 C15 1_555 1_555
H8 C16 1_555 1_555
C17 C16 1_555 1_555
H9 C17 1_555 1_555
C18 C17 1_555 1_555
H10 C18 1_555 1_555
C19 C14 1_555 1_555
H11 C19 1_555 1_555
C20 C21 1_555 1_555
C21 C22 1_555 1_555
C22 H12 1_555 1_555
C23 C21 1_555 1_555
H13 C23 1_555 1_555
C24 C25 1_555 1_555
C25 C26 1_555 1_555
C26 H14 1_555 1_555
C27 C25 1_555 1_555
H15 C27 1_555 1_555
N1 C6 1_555 1_555
N2 C1 1_555 1_555
N3 C12 1_555 1_555
N4 C11 1_555 1_555
H16 N4 1_555 1_555
O1 C20 1_555 1_555
O2 C20 1_555 1_555
O4 C24 1_555 1_555
O6 C24 1_555 1_555
Pb1 N1 1_555 1_555
C1A H1A 1_555 1_555
C2A C1A 1_555 1_555
H2A C2A 1_555 1_555
C3A C2A 1_555 1_555
H3A C3A 1_555 1_555
C4A C3A 1_555 1_555
C5A C4A 1_555 1_555
C6A C5A 1_555 1_555
C7A H4A 1_555 1_555
C8A C7A 1_555 1_555
H5A C8A 1_555 1_555
C9A C8A 1_555 1_555
H6A C9A 1_555 1_555
C10A C6A 1_555 1_555
C11A C10A 1_555 1_555
C12A C4A 1_555 1_555
C13A C14A 1_555 1_555
C14A C15A 1_555 1_555
C15A H7A 1_555 1_555
C16A C15A 1_555 1_555
H8A C16A 1_555 1_555
C17A C16A 1_555 1_555
H9A C17A 1_555 1_555
C18A C17A 1_555 1_555
H10A C18A 1_555 1_555
C19A C14A 1_555 1_555
H11A C19A 1_555 1_555
C20A C21A 1_555 1_555
C21A C22A 1_555 1_555
C22A C23 1_555 1_555
H12A C22A 1_555 1_555
C23A C22 1_555 1_555
H13A C23A 1_555 1_555
C24A C25A 1_555 1_555
C25A C26A 1_555 1_555
C26A C27 1_555 1_555
H14A C26A 1_555 1_555
C27A C26 1_555 1_555
H15A C27A 1_555 1_555
N1A C6A 1_555 1_555
N2A C1A 1_555 1_555
N3A C12A 1_555 1_555
N4A C11A 1_555 1_555
H16A N4A 1_555 1_555
O1A C20A 1_555 1_555
O2A C20A 1_555 1_555
O4A C24A 1_555 1_555
O4A_2 Pb1A 1_555 1_555
O6A C24A 1_555 1_555
O6A_2 Pb1A 1_555 1_555
Pb1A N1A 1_555 1_555
Pb1A_2 O4A 1_555 1_555
C5 N2 1_555 1_555
C7 N1 1_555 1_555
C9 C10 1_555 1_555
C11 C12 1_555 1_555
C13 N3 1_555 1_555
C13 N4 1_555 1_555
C18 C19 1_555 1_555
N2 Pb1 1_555 1_555
O1 Pb1 1_555 1_555
O2 Pb1 1_555 1_555
O4 Pb1 1_555 1_555
O6 Pb1 1_555 1_555
C5A N2A 1_555 1_555
C7A N1A 1_555 1_555
C9A C10A 1_555 1_555
C11A C12A 1_555 1_555
C13A N3A 1_555 1_555
C13A N4A 1_555 1_555
C18A C19A 1_555 1_555
C21A C23A 1_555 1_555
C25A C27A 1_555 1_555
N2A Pb1A 1_555 1_555
O1A Pb1A 1_555 1_555
O2A Pb1A 1_555 1_555
O6A Pb1A_2 1_555 1_555

#END
