
#######################################################################
#
#                 Cambridge Crystallographic Data Centre
#                                CCDC 
#
#######################################################################
#
# If this CIF has been generated from an entry in the Cambridge 
# Structural Database, then it will include bibliographic, chemical, 
# crystal, experimental, refinement or atomic coordinate data resulting 
# from the CCDC's data processing and validation procedures.
#
#######################################################################

data_MOYBIL
_symmetry_cell_setting           monoclinic
_symmetry_space_group_name_H-M   'P 21/n'
_symmetry_Int_Tables_number      14
_space_group_name_Hall           '-P 2yn'
loop_
_symmetry_equiv_pos_site_id
_symmetry_equiv_pos_as_xyz
1 x,y,z
2 1/2-x,1/2+y,1/2-z
3 -x,-y,-z
4 1/2+x,1/2-y,1/2+z
_cell_length_a                   9.1292(10)
_cell_length_b                   8.4084(9)
_cell_length_c                   13.4528(14)
_cell_angle_alpha                90
_cell_angle_beta                 97.830(2)
_cell_angle_gamma                90
_cell_volume                     1023.04
loop_
_atom_site_label
_atom_site_type_symbol
_atom_site_fract_x
_atom_site_fract_y
_atom_site_fract_z
Mn1 Mn 0.2201(1) 0.0406(1) 0.7538(1)
P1 P 0.1258(1) -0.1992(1) 0.5563(1)
O1 O 0.1321(2) -0.0369(2) 0.6045(1)
O2 O -0.0355(2) -0.2336(2) 0.5038(1)
C1 C 0.2434(2) -0.1852(2) 0.4575(2)
N1 N 0.2756(2) -0.3427(2) 0.4118(1)
O3 O 0.1760(2) -0.3412(2) 0.6188(1)
P2 P 0.0422(1) -0.3253(1) 0.2439(1)
O4 O -0.0759(2) -0.4479(2) 0.2120(1)
O5 O 0.1598(2) -0.3228(2) 0.1690(1)
C2 C 0.1410(2) -0.4200(2) 0.3552(2)
O6 O -0.0124(2) -0.1616(2) 0.2615(1)
P3 P 0.5850(1) -0.2937(1) 0.4143(1)
O7 O 0.5844(2) -0.1144(2) 0.4449(1)
O8 O 0.6814(2) -0.3232(2) 0.3338(1)
C3 C 0.4004(2) -0.3343(3) 0.3491(2)
O9 O 0.6149(2) -0.3795(2) 0.5123(1)
H1 H -0.0696 -0.1532 0.4748
H2 H 0.1959 -0.1162 0.4049
H3 H 0.3363 -0.1360 0.4849
H4 H 0.3070 -0.4085 0.4641
H5 H 0.1351 -0.2576 0.1245
H6 H 0.0706 -0.4354 0.4022
H7 H 0.1703 -0.5250 0.3354
H8 H 0.5737 -0.0590 0.3942
H9 H 0.3764 -0.2524 0.2987
H10 H 0.4037 -0.4347 0.3140
O3A O 0.3240(2) 0.1588(2) 0.8812(1)
O4C O 0.4241(2) -0.0521(2) 0.7120(1)
O6B O 0.0124(2) 0.1616(2) 0.7385(1)
O8C O 0.1814(2) -0.1768(2) 0.8338(1)
Mn1A Mn 0.2799(1) -0.4594(1) 0.7462(1)
Mn1C Mn -0.2799(1) -0.5406(1) 0.2538(1)
Mn1B Mn -0.2201(1) -0.0406(1) 0.2462(1)
Mn1C_2 Mn 0.7201(1) -0.5406(1) 0.2538(1)
loop_
_geom_bond_atom_site_label_1
_geom_bond_atom_site_label_2
_geom_bond_site_symmetry_1
_geom_bond_site_symmetry_2
Mn1 O1 1_555 1_555
P1 O1 1_555 1_555
O2 P1 1_555 1_555
C1 P1 1_555 1_555
N1 C1 1_555 1_555
O3 P1 1_555 1_555
P2 O4 1_555 1_555
O4 Mn1C 1_555 1_555
O5 P2 1_555 1_555
C2 N1 1_555 1_555
O6 P2 1_555 1_555
P3 O7 1_555 1_555
O7 H8 1_555 1_555
O8 P3 1_555 1_555
C3 N1 1_555 1_555
O9 P3 1_555 1_555
H1 O2 1_555 1_555
H2 C1 1_555 1_555
H3 C1 1_555 1_555
H4 N1 1_555 1_555
H5 O5 1_555 1_555
H6 C2 1_555 1_555
H7 C2 1_555 1_555
H9 C3 1_555 1_555
H10 C3 1_555 1_555
O3A Mn1 1_555 1_555
O4C Mn1 1_555 1_555
O6B Mn1 1_555 1_555
O8C Mn1 1_555 1_555
Mn1A O3 1_555 1_555
Mn1B O6 1_555 1_555
Mn1C_2 O8 1_555 1_555
P2 C2 1_555 1_555
P3 C3 1_555 1_555

#END
