
#######################################################################
#
#                 Cambridge Crystallographic Data Centre
#                                CCDC 
#
#######################################################################
#
# If this CIF has been generated from an entry in the Cambridge 
# Structural Database, then it will include bibliographic, chemical, 
# crystal, experimental, refinement or atomic coordinate data resulting 
# from the CCDC's data processing and validation procedures.
#
#######################################################################

data_MOYFIR
_symmetry_cell_setting           triclinic
_symmetry_space_group_name_H-M   'P -1'
_symmetry_Int_Tables_number      2
_space_group_name_Hall           '-P 1'
loop_
_symmetry_equiv_pos_site_id
_symmetry_equiv_pos_as_xyz
1 x,y,z
2 -x,-y,-z
_cell_length_a                   6.8870(17)
_cell_length_b                   10.112(3)
_cell_length_c                   22.292(6)
_cell_angle_alpha                92.269(5)
_cell_angle_beta                 94.582(4)
_cell_angle_gamma                90.228(4)
_cell_volume                     1546.23
loop_
_atom_site_label
_atom_site_type_symbol
_atom_site_fract_x
_atom_site_fract_y
_atom_site_fract_z
Mo1 Mo 0.21240(19) 0.26864(13) 0.33239(6)
Cu1 Cu 0.8118(3) 0.9930(2) 0.17580(9)
Cr1 Cr 0.2840(6) 0.5275(4) 0.25384(19)
N1 N 0.7687(19) 0.9970(13) 0.0862(6)
O1 O 0.4356(15) 0.4004(10) 0.2968(5)
O2 O 0.9840(17) 1.1394(11) 0.1765(5)
C1 C 0.729(2) 1.1017(16) 0.0556(7)
H1 H 0.7112 1.1829 0.0754
Mo2 Mo 0.3760(2) 0.79350(14) 0.18359(6)
O3 O 0.0648(15) 0.4313(11) 0.2730(5)
C2 C 0.713(2) 1.0911(17) -0.0085(7)
H2 H 0.6802 1.1647 -0.0308
N2 N 0.814(2) 0.6268(15) 0.0007(7)
H3 H 0.7495 0.6352 0.0321
Mo3 Mo 0.08204(19) 0.81259(13) 0.29232(6)
O4 O 0.1466(15) 0.6608(10) 0.2131(5)
C3 C 0.745(3) 0.9715(18) -0.0371(8)
H4 H 0.7392 0.9642 -0.0789
Mo4 Mo 0.51322(19) 0.24850(13) 0.22401(6)
O5 O 0.3277(15) 0.4232(10) 0.1841(5)
C4 C 0.796(2) 0.8786(16) 0.0591(7)
H5 H 0.8208 0.8055 0.0825
C5 C 0.787(3) 0.8630(17) -0.0036(7)
Mo5 Mo 0.59943(19) 0.51423(14) 0.14877(6)
O6 O 0.2423(14) 0.6351(11) 0.3233(4)
O7 O 0.5129(15) 0.6239(10) 0.2356(5)
C6 C 0.831(2) 0.7317(17) -0.0311(7)
O8 O 0.1693(17) 0.4146(11) 0.3848(5)
C7 C 0.892(3) 0.5008(18) -0.0124(9)
H6 H 0.8826 0.4828 -0.0557
H7 H 0.8199 0.4328 0.0059
O9 O -0.1111(15) 0.6803(11) 0.3050(5)
O10 O 0.3292(15) 0.8555(11) 0.2628(4)
O11 O 0.4195(14) 0.6511(11) 0.1275(5)
O12 O 0.6919(15) 0.3869(10) 0.2058(5)
Mo6 Mo -0.01983(19) 0.54659(14) 0.36174(6)
O13 O 0.2702(16) 0.1985(11) 0.2532(5)
O14 O 0.3799(17) 0.1905(12) 0.3789(5)
O15 O 0.0026(18) 0.1843(13) 0.3352(6)
O16 O -0.2308(15) 0.4546(12) 0.3601(5)
O17 O -0.0036(17) 0.6407(11) 0.4268(5)
O18 O 0.1115(18) 0.8889(12) 0.3612(5)
O19 O -0.0652(16) 0.9158(11) 0.2481(5)
O20 O 0.1975(19) 0.8758(12) 0.1433(5)
O21 O 0.5913(18) 0.8801(12) 0.1783(5)
O22 O 0.8108(17) 0.6012(12) 0.1436(5)
O23 O 0.5724(19) 0.4201(13) 0.0847(5)
O24 O 0.488(2) 0.1632(12) 0.1564(6)
O25 O 0.6627(17) 0.1525(13) 0.2677(7)
O26 O 0.8885(18) 0.7235(12) -0.0826(5)
N1A N 1.2313(19) 0.0030(13) -0.0862(6)
C1A C 1.271(2) -0.1017(16) -0.0556(7)
H1A H 1.2888 -0.1829 -0.0754
C2A C 1.287(2) -0.0911(17) 0.0085(7)
H2A H 1.3198 -0.1647 0.0308
N2A N 1.186(2) 0.3732(15) -0.0007(7)
H3A H 1.2505 0.3648 -0.0321
C3A C 1.255(3) 0.0285(18) 0.0371(8)
H4A H 1.2608 0.0358 0.0789
C4A C 1.204(2) 0.1214(16) -0.0591(7)
H5A H 1.1792 0.1945 -0.0825
C5A C 1.213(3) 0.1370(17) 0.0036(7)
C6A C 1.169(2) 0.2683(17) 0.0311(7)
C7A C 1.108(3) 0.4992(18) 0.0124(9)
H6A H 1.1174 0.5172 0.0557
H7A H 1.1801 0.5672 -0.0059
O26A O 1.1115(18) 0.2765(12) 0.0826(5)
Mo1A Mo 1.78760(19) 0.73136(13) -0.33239(6)
Cu1A Cu 1.1882(3) 0.0070(2) -0.17580(9)
Cr1A Cr 1.7160(6) 0.4725(4) -0.25384(19)
O1A O 1.5644(15) 0.5996(10) -0.2968(5)
O2A O 1.0160(17) -0.1394(11) -0.1765(5)
Mo2A Mo 1.6240(2) 0.20650(14) -0.18359(6)
O3A O 1.9352(15) 0.5687(11) -0.2730(5)
Mo3A Mo 1.91796(19) 0.18741(13) -0.29232(6)
O4A O 1.8534(15) 0.3392(10) -0.2131(5)
Mo4A Mo 1.48678(19) 0.75150(13) -0.22401(6)
O5A O 1.6723(15) 0.5768(10) -0.1841(5)
Mo5A Mo 1.40057(19) 0.48577(14) -0.14877(6)
O6A O 1.7577(14) 0.3649(11) -0.3233(4)
O7A O 1.4871(15) 0.3761(10) -0.2356(5)
O8A O 1.8307(17) 0.5854(11) -0.3848(5)
O9A O 2.1111(15) 0.3197(11) -0.3050(5)
O10A O 1.6708(15) 0.1445(11) -0.2628(4)
O11A O 1.5805(14) 0.3489(11) -0.1275(5)
O12A O 1.3081(15) 0.6131(10) -0.2058(5)
Mo6A Mo 2.01983(19) 0.45341(14) -0.36174(6)
O13A O 1.7298(16) 0.8015(11) -0.2532(5)
O14A O 1.6201(17) 0.8095(12) -0.3789(5)
O15A O 1.9974(18) 0.8157(13) -0.3352(6)
O16A O 2.2308(15) 0.5454(12) -0.3601(5)
O17A O 2.0036(17) 0.3593(11) -0.4268(5)
O18A O 1.8885(18) 0.1111(12) -0.3612(5)
O19A O 2.0652(16) 0.0842(11) -0.2481(5)
O20A O 1.8025(19) 0.1242(12) -0.1433(5)
O21A O 1.4087(18) 0.1199(12) -0.1783(5)
O22A O 1.1892(17) 0.3988(12) -0.1436(5)
O23A O 1.4276(19) 0.5799(13) -0.0847(5)
O24A O 1.512(2) 0.8368(12) -0.1564(6)
O25A O 1.3373(17) 0.8475(13) -0.2677(7)
Cu1_2 Cu -0.1882(3) 0.9930(2) 0.17580(9)
Cu1A_2 Cu 2.1882(3) 0.0070(2) -0.17580(9)
O19_2 O 0.9348(16) 0.9158(11) 0.2481(5)
O19A_2 O 1.0652(16) 0.0842(11) -0.2481(5)
N3 N 0.787(3) 1.075(2) 0.4922(9)
H8 H 0.8232 1.1240 0.5235
N4 N 0.548(2) 0.6828(15) 0.5014(6)
H9 H 0.5919 0.7243 0.5340
C8 C 0.792(3) 1.1247(18) 0.4350(9)
H10 H 0.8376 1.2098 0.4297
C9 C 0.725(2) 0.9505(17) 0.4986(8)
H11 H 0.7258 0.9171 0.5369
C10 C 0.659(2) 0.8702(17) 0.4482(8)
C11 C 0.672(3) 0.924(2) 0.3928(8)
H12 H 0.6395 0.8719 0.3580
C12 C 0.729(2) 1.0463(16) 0.3884(7)
H13 H 0.7253 1.0805 0.3502
C13 C 0.582(3) 0.7341(19) 0.4489(9)
C14 C 0.439(3) 0.5592(19) 0.5061(9)
H14 H 0.3249 0.5579 0.4775
H15 H 0.3944 0.5554 0.5462
O27 O 0.5279(18) 0.6771(13) 0.4000(6)
N3A N 0.213(3) -0.075(2) 0.5078(9)
H8A H 0.1768 -0.1240 0.4765
N4A N 0.452(2) 0.3172(15) 0.4986(6)
H9A H 0.4081 0.2757 0.4660
C8A C 0.208(3) -0.1247(18) 0.5650(9)
H10A H 0.1624 -0.2098 0.5703
C9A C 0.275(2) 0.0495(17) 0.5014(8)
H11A H 0.2742 0.0829 0.4631
C10A C 0.341(2) 0.1298(17) 0.5518(8)
C11A C 0.328(3) 0.076(2) 0.6072(8)
H12A H 0.3605 0.1281 0.6420
C12A C 0.271(2) -0.0463(16) 0.6116(7)
H13A H 0.2747 -0.0805 0.6498
C13A C 0.418(3) 0.2659(19) 0.5511(9)
C14A C 0.561(3) 0.4408(19) 0.4939(9)
H14A H 0.6751 0.4421 0.5225
H15A H 0.6056 0.4446 0.4538
O27A O 0.4721(18) 0.3229(13) 0.6000(6)
loop_
_geom_bond_atom_site_label_1
_geom_bond_atom_site_label_2
_geom_bond_site_symmetry_1
_geom_bond_site_symmetry_2
Mo1 O1 1_555 1_555
Cu1 N1 1_555 1_555
Cr1 O1 1_555 1_555
N1 C1 1_555 1_555
O1 Mo4 1_555 1_555
O2 Cu1 1_555 1_555
C1 H1 1_555 1_555
Mo2 O4 1_555 1_555
O3 Mo1 1_555 1_555
C2 C1 1_555 1_555
H2 C2 1_555 1_555
N2 H3 1_555 1_555
Mo3 O4 1_555 1_555
O4 Cr1 1_555 1_555
C3 C2 1_555 1_555
H4 C3 1_555 1_555
Mo4 O5 1_555 1_555
O5 Cr1 1_555 1_555
C4 N1 1_555 1_555
H5 C4 1_555 1_555
C5 C3 1_555 1_555
Mo5 O5 1_555 1_555
O6 Cr1 1_555 1_555
O7 Cr1 1_555 1_555
C6 N2 1_555 1_555
O8 Mo1 1_555 1_555
C7 N2 1_555 1_555
H6 C7 1_555 1_555
H7 C7 1_555 1_555
O9 Mo3 1_555 1_555
O10 Mo2 1_555 1_555
O11 Mo2 1_555 1_555
O12 Mo4 1_555 1_555
Mo6 O3 1_555 1_555
O13 Mo1 1_555 1_555
O14 Mo1 1_555 1_555
O15 Mo1 1_555 1_555
O16 Mo6 1_555 1_555
O17 Mo6 1_555 1_555
O18 Mo3 1_555 1_555
O19 Mo3 1_555 1_555
O20 Mo2 1_555 1_555
O21 Cu1 1_555 1_555
O22 Mo5 1_555 1_555
O23 Mo5 1_555 1_555
O24 Mo4 1_555 1_555
O25 Mo4 1_555 1_555
O26 C6 1_555 1_555
N3 H8 1_555 1_555
N4 H9 1_555 1_555
C8 N3 1_555 1_555
H10 C8 1_555 1_555
C9 N3 1_555 1_555
H11 C9 1_555 1_555
C10 C9 1_555 1_555
C11 C10 1_555 1_555
H12 C11 1_555 1_555
C12 C8 1_555 1_555
H13 C12 1_555 1_555
C13 N4 1_555 1_555
C14 N4 1_555 1_555
H14 C14 1_555 1_555
H15 C14 1_555 1_555
O27 C13 1_555 1_555
N1A C1A 1_555 1_555
C1A H1A 1_555 1_555
C2A C1A 1_555 1_555
H2A C2A 1_555 1_555
N2A H3A 1_555 1_555
C3A C2A 1_555 1_555
H4A C3A 1_555 1_555
C4A N1A 1_555 1_555
H5A C4A 1_555 1_555
C5A C3A 1_555 1_555
C6A N2A 1_555 1_555
C7A C7 1_555 1_555
H6A C7A 1_555 1_555
H7A C7A 1_555 1_555
O26A C6A 1_555 1_555
Mo1A O1A 1_555 1_555
Cu1A N1A 1_555 1_555
Cr1A O1A 1_555 1_555
O1A Mo4A 1_555 1_555
O2A Cu1A 1_555 1_555
Mo2A O4A 1_555 1_555
O3A Mo1A 1_555 1_555
Mo3A O4A 1_555 1_555
O4A Cr1A 1_555 1_555
Mo4A O5A 1_555 1_555
O5A Cr1A 1_555 1_555
Mo5A O5A 1_555 1_555
O6A Cr1A 1_555 1_555
O7A Cr1A 1_555 1_555
O8A Mo1A 1_555 1_555
O9A Mo3A 1_555 1_555
O10A Mo2A 1_555 1_555
O11A Mo2A 1_555 1_555
O12A Mo4A 1_555 1_555
Mo6A O3A 1_555 1_555
O13A Mo1A 1_555 1_555
O14A Mo1A 1_555 1_555
O15A Mo1A 1_555 1_555
O16A Mo6A 1_555 1_555
O17A Mo6A 1_555 1_555
O18A Mo3A 1_555 1_555
O19A Mo3A 1_555 1_555
O20A Mo2A 1_555 1_555
O21A Cu1A 1_555 1_555
O22A Mo5A 1_555 1_555
O23A Mo5A 1_555 1_555
O24A Mo4A 1_555 1_555
O25A Mo4A 1_555 1_555
Cu1_2 O19 1_555 1_555
Cu1A_2 O19A 1_555 1_555
O19_2 Cu1 1_555 1_555
O19A_2 Cu1A 1_555 1_555
N3A H8A 1_555 1_555
N4A H9A 1_555 1_555
C8A N3A 1_555 1_555
H10A C8A 1_555 1_555
C9A N3A 1_555 1_555
H11A C9A 1_555 1_555
C10A C9A 1_555 1_555
C11A C10A 1_555 1_555
H12A C11A 1_555 1_555
C12A C8A 1_555 1_555
H13A C12A 1_555 1_555
C13A N4A 1_555 1_555
C14A C14 1_555 1_555
H14A C14A 1_555 1_555
H15A C14A 1_555 1_555
O27A C13A 1_555 1_555
Cr1 O3 1_555 1_555
Mo2 O7 1_555 1_555
Mo2 O21 1_555 1_555
Mo3 O6 1_555 1_555
Mo3 O10 1_555 1_555
Mo4 O13 1_555 1_555
C4 C5 1_555 1_555
C5 C6 1_555 1_555
Mo5 O7 1_555 1_555
Mo5 O11 1_555 1_555
Mo5 O12 1_555 1_555
O6 Mo6 1_555 1_555
O8 Mo6 1_555 1_555
O9 Mo6 1_555 1_555
C10 C13 1_555 1_555
C11 C12 1_555 1_555
N2A C7A 1_555 1_555
C4A C5A 1_555 1_555
C5A C6A 1_555 1_555
Cr1A O3A 1_555 1_555
Mo2A O7A 1_555 1_555
Mo2A O21A 1_555 1_555
Mo3A O6A 1_555 1_555
Mo3A O10A 1_555 1_555
Mo4A O13A 1_555 1_555
Mo5A O7A 1_555 1_555
Mo5A O11A 1_555 1_555
Mo5A O12A 1_555 1_555
O6A Mo6A 1_555 1_555
O8A Mo6A 1_555 1_555
O9A Mo6A 1_555 1_555
N4A C14A 1_555 1_555
C10A C13A 1_555 1_555
C11A C12A 1_555 1_555

#END
