
#######################################################################
#
#                 Cambridge Crystallographic Data Centre
#                                CCDC 
#
#######################################################################
#
# If this CIF has been generated from an entry in the Cambridge 
# Structural Database, then it will include bibliographic, chemical, 
# crystal, experimental, refinement or atomic coordinate data resulting 
# from the CCDC's data processing and validation procedures.
#
#######################################################################

data_MOYFOX
_symmetry_cell_setting           monoclinic
_symmetry_space_group_name_H-M   'C 2/c'
_symmetry_Int_Tables_number      15
_space_group_name_Hall           '-C 2yn'
loop_
_symmetry_equiv_pos_site_id
_symmetry_equiv_pos_as_xyz
1 x,y,z
2 -x,y,1/2-z
3 1/2+x,1/2+y,z
4 1/2-x,1/2+y,1/2-z
5 -x,-y,-z
6 x,-y,1/2+z
7 1/2-x,1/2-y,-z
8 1/2+x,1/2-y,1/2+z
_cell_length_a                   21.6870(13)
_cell_length_b                   22.2410(14)
_cell_length_c                   12.6300(8)
_cell_angle_alpha                90
_cell_angle_beta                 120.7550(10)
_cell_angle_gamma                90
_cell_volume                     5235.2
loop_
_atom_site_label
_atom_site_type_symbol
_atom_site_fract_x
_atom_site_fract_y
_atom_site_fract_z
Mo1 Mo -0.129444(15) -0.043781(13) 0.54477(3)
Cu1 Cu 0.0000 0.26191(3) 0.2500
N1 N 0.10177(14) 0.26911(13) 0.2857(3)
Cr1 Cr 0.0000 0.0000 0.5000
O1 O 0.01735(11) 0.07041(10) 0.6071(2)
C1 C 0.12654(19) 0.32548(17) 0.2941(4)
H1 H 0.0960 0.3575 0.2814
Mo2 Mo -0.101936(14) 0.098647(13) 0.53113(3)
Cu2 Cu 0.5000 -0.28906(3) 0.7500
N2 N 0.25370(16) 0.12599(14) 0.3614(3)
H2 H 0.2093 0.1174 0.3327
C2 C 0.1952(2) 0.33754(17) 0.3208(4)
H3 H 0.2105 0.3770 0.3254
O2 O -0.10221(11) 0.01642(10) 0.4391(2)
O3 O 0.03310(14) 0.32384(14) 0.4044(3)
Mo3 Mo 0.031602(15) 0.146737(13) 0.49733(3)
N3 N 0.42682(15) -0.22695(13) 0.6512(3)
O4 O -0.00923(11) -0.05878(10) 0.6081(2)
C3 C 0.24078(19) 0.29048(17) 0.3407(4)
H4 H 0.2874 0.2979 0.3591
O5 O -0.06993(12) 0.13798(10) 0.4340(2)
C4 C 0.14682(18) 0.22304(15) 0.3056(3)
H5 H 0.1303 0.1840 0.3006
N4 N 0.35907(17) -0.04712(14) 0.4041(3)
H6 H 0.3175 -0.0492 0.3971
O6 O -0.10002(12) 0.03241(10) 0.6346(2)
C5 C 0.21702(18) 0.23163(16) 0.3332(3)
O7 O -0.21960(12) -0.03434(11) 0.4577(2)
C6 C 0.27224(18) 0.18301(17) 0.3656(3)
O8 O -0.19109(12) 0.11039(11) 0.4433(2)
C7 C 0.3059(2) 0.07708(17) 0.4036(4)
H7 H 0.2896 0.0448 0.4350
H8 H 0.3514 0.0915 0.4710
C8 C 0.3177(2) 0.05245(18) 0.3040(4)
H9 H 0.3311 0.0852 0.2691
H10 H 0.2729 0.0357 0.2388
O9 O -0.11508(12) -0.08360(11) 0.6730(2)
C9 C 0.3757(2) 0.00385(19) 0.3505(4)
H11 H 0.3806 -0.0101 0.2825
H12 H 0.4212 0.0211 0.4120
O10 O 0.02609(13) 0.18962(11) 0.3795(2)
C10 C 0.4068(2) -0.09047(18) 0.4637(4)
O11 O -0.07111(12) 0.15104(10) 0.6512(2)
C11 C 0.3869(2) -0.13881(17) 0.5243(4)
O12 O 0.05141(13) 0.19622(11) 0.6143(2)
C12 C 0.43764(19) -0.18284(17) 0.5904(3)
H13 H 0.4811 -0.1816 0.5926
O13 O 0.12237(12) 0.10764(10) 0.5552(2)
C13 C 0.3640(2) -0.22982(19) 0.6466(4)
H14 H 0.3559 -0.2611 0.6867
O14 O 0.33410(14) 0.19823(14) 0.3981(3)
C14 C 0.3109(2) -0.1876(2) 0.5840(5)
H15 H 0.2679 -0.1899 0.5834
O15 O 0.46595(16) -0.09113(14) 0.4714(3)
C15 C 0.3224(2) -0.1421(2) 0.5229(4)
H16 H 0.2870 -0.1134 0.4804
Mo1A Mo 0.129444(15) -0.043781(13) -0.04477(3)
N1A N -0.10177(14) 0.26911(13) 0.2143(3)
O1A O -0.01735(11) 0.07041(10) -0.1071(2)
C1A C -0.12654(19) 0.32548(17) 0.2059(4)
H1A H -0.0960 0.3575 0.2186
Mo2A Mo 0.101936(14) 0.098647(13) -0.03113(3)
N2A N -0.25370(16) 0.12599(14) 0.1386(3)
H2A H -0.2093 0.1174 0.1673
C2A C -0.1952(2) 0.33754(17) 0.1792(4)
H3A H -0.2105 0.3770 0.1746
O2A O 0.10221(11) 0.01642(10) 0.0609(2)
O3A O -0.03310(14) 0.32384(14) 0.0956(3)
Mo3A Mo -0.031602(15) 0.146737(13) 0.00267(3)
N3A N -0.42682(15) -0.22695(13) -0.1512(3)
O4A O 0.00923(11) -0.05878(10) -0.1081(2)
C3A C -0.24078(19) 0.29048(17) 0.1593(4)
H4A H -0.2874 0.2979 0.1409
O5A O 0.06993(12) 0.13798(10) 0.0660(2)
C4A C -0.14682(18) 0.22304(15) 0.1944(3)
H5A H -0.1303 0.1840 0.1994
N4A N -0.35907(17) -0.04712(14) 0.0959(3)
H6A H -0.3175 -0.0492 0.1029
O6A O 0.10002(12) 0.03241(10) -0.1346(2)
C5A C -0.21702(18) 0.23163(16) 0.1668(3)
O7A O 0.21960(12) -0.03434(11) 0.0423(2)
C6A C -0.27224(18) 0.18301(17) 0.1344(3)
O8A O 0.19109(12) 0.11039(11) 0.0567(2)
C7A C -0.3059(2) 0.07708(17) 0.0964(4)
H7A H -0.2896 0.0448 0.0650
H8A H -0.3514 0.0915 0.0290
C8A C -0.3177(2) 0.05245(18) 0.1960(4)
H9A H -0.3311 0.0852 0.2309
H10A H -0.2729 0.0357 0.2612
O9A O 0.11508(12) -0.08360(11) -0.1730(2)
C9A C -0.3757(2) 0.00385(19) 0.1495(4)
H11A H -0.3806 -0.0101 0.2175
H12A H -0.4212 0.0211 0.0880
O10A O -0.02609(13) 0.18962(11) 0.1205(2)
C10A C -0.4068(2) -0.09047(18) 0.0363(4)
O11A O 0.07111(12) 0.15104(10) -0.1512(2)
C11A C -0.3869(2) -0.13881(17) -0.0243(4)
O12A O -0.05141(13) 0.19622(11) -0.1143(2)
C12A C -0.43764(19) -0.18284(17) -0.0904(3)
H13A H -0.4811 -0.1816 -0.0926
O13A O -0.12237(12) 0.10764(10) -0.0552(2)
C13A C -0.3640(2) -0.22982(19) -0.1466(4)
H14A H -0.3559 -0.2611 -0.1867
O14A O -0.33410(14) 0.19823(14) 0.1019(3)
C14A C -0.3109(2) -0.1876(2) -0.0840(5)
H15A H -0.2679 -0.1899 -0.0834
O15A O -0.46595(16) -0.09113(14) 0.0286(3)
C15A C -0.3224(2) -0.1421(2) -0.0229(4)
H16A H -0.2870 -0.1134 0.0196
Mo1D Mo 0.129444(15) 0.043781(13) 0.45523(3)
Mo1E Mo -0.129444(15) 0.043781(13) 0.04477(3)
Cr1A Cr 0.0000 0.0000 0.0000
O1D O -0.01735(11) -0.07041(10) 0.3929(2)
Cu2_2 Cu -0.5000 -0.28906(3) -0.2500
Cu2B Cu 0.0000 0.21094(3) -0.2500
Cu2B_2 Cu 0.0000 0.21094(3) 0.7500
O2D O 0.10221(11) -0.01642(10) 0.5609(2)
Mo3D Mo -0.031602(15) -0.146737(13) 0.50267(3)
Mo3E Mo 0.031602(15) -0.146737(13) -0.00267(3)
N3A_2 N 0.57318(15) -0.22695(13) 0.8488(3)
O4D O 0.00923(11) 0.05878(10) 0.3919(2)
O4E O -0.00923(11) 0.05878(10) 0.1081(2)
O11B O 0.42889(12) -0.34896(10) 0.6512(2)
O11C O 0.57111(12) -0.34896(10) 0.8488(2)
O12B O 0.55141(13) -0.30378(11) 0.6143(2)
O12C O 0.44859(13) -0.30378(11) 0.8857(2)
O13D O -0.12237(12) -0.10764(10) 0.4448(2)
O13E O 0.12237(12) -0.10764(10) 0.0552(2)
O16 O 0.20234(15) 0.05692(16) 0.7963(3)
loop_
_geom_bond_atom_site_label_1
_geom_bond_atom_site_label_2
_geom_bond_site_symmetry_1
_geom_bond_site_symmetry_2
Mo1 O2 1_555 1_555
Cu1 N1 1_555 1_555
N1 C1 1_555 1_555
Cr1 O1 1_555 1_555
O1 Mo2 1_555 1_555
C1 H1 1_555 1_555
Mo2 O2 1_555 1_555
Cu2 N3 1_555 1_555
N2 H2 1_555 1_555
C2 C1 1_555 1_555
H3 C2 1_555 1_555
O2 Cr1 1_555 1_555
O3 Cu1 1_555 1_555
Mo3 O1 1_555 1_555
N3 C12 1_555 1_555
O4 Mo1 1_555 1_555
C3 C2 1_555 1_555
H4 C3 1_555 1_555
O5 Mo2 1_555 1_555
C4 N1 1_555 1_555
H5 C4 1_555 1_555
N4 H6 1_555 1_555
O6 Mo1 1_555 1_555
C5 C3 1_555 1_555
O7 Mo1 1_555 1_555
C6 N2 1_555 1_555
O8 Mo2 1_555 1_555
C7 N2 1_555 1_555
H7 C7 1_555 1_555
H8 C7 1_555 1_555
C8 C7 1_555 1_555
H9 C8 1_555 1_555
H10 C8 1_555 1_555
O9 Mo1 1_555 1_555
C9 N4 1_555 1_555
H11 C9 1_555 1_555
H12 C9 1_555 1_555
O10 Cu1 1_555 1_555
C10 N4 1_555 1_555
O11 Mo2 1_555 1_555
C11 C10 1_555 1_555
O12 Mo3 1_555 1_555
C12 C11 1_555 1_555
H13 C12 1_555 1_555
O13 Mo3 1_555 1_555
C13 N3 1_555 1_555
H14 C13 1_555 1_555
O14 C6 1_555 1_555
C14 C13 1_555 1_555
H15 C14 1_555 1_555
O15 C10 1_555 1_555
C15 C11 1_555 1_555
H16 C15 1_555 1_555
Mo1A O2A 1_555 1_555
N1A Cu1 1_555 1_555
O1A Mo2A 1_555 1_555
C1A N1A 1_555 1_555
H1A C1A 1_555 1_555
Mo2A O2A 1_555 1_555
N2A H2A 1_555 1_555
C2A C1A 1_555 1_555
H3A C2A 1_555 1_555
O2A Cr1A 1_555 1_555
O3A Cu1 1_555 1_555
Mo3A O1A 1_555 1_555
N3A C12A 1_555 1_555
O4A Mo1A 1_555 1_555
C3A C2A 1_555 1_555
H4A C3A 1_555 1_555
O5A Mo2A 1_555 1_555
C4A N1A 1_555 1_555
H5A C4A 1_555 1_555
N4A H6A 1_555 1_555
O6A Mo1A 1_555 1_555
C5A C3A 1_555 1_555
O7A Mo1A 1_555 1_555
C6A N2A 1_555 1_555
O8A Mo2A 1_555 1_555
C7A N2A 1_555 1_555
H7A C7A 1_555 1_555
H8A C7A 1_555 1_555
C8A C7A 1_555 1_555
H9A C8A 1_555 1_555
H10A C8A 1_555 1_555
O9A Mo1A 1_555 1_555
C9A N4A 1_555 1_555
H11A C9A 1_555 1_555
H12A C9A 1_555 1_555
O10A Cu1 1_555 1_555
C10A N4A 1_555 1_555
O11A Mo2A 1_555 1_555
C11A C10A 1_555 1_555
O12A Mo3A 1_555 1_555
C12A C11A 1_555 1_555
H13A C12A 1_555 1_555
O13A Mo3A 1_555 1_555
C13A N3A 1_555 1_555
H14A C13A 1_555 1_555
O14A C6A 1_555 1_555
C14A C13A 1_555 1_555
H15A C14A 1_555 1_555
O15A C10A 1_555 1_555
C15A C11A 1_555 1_555
H16A C15A 1_555 1_555
Mo1D O13 1_555 1_555
Mo1E O13A 1_555 1_555
Cr1A O1A 1_555 1_555
O1D Cr1 1_555 1_555
Cu2_2 N3A 1_555 1_555
Cu2B O11A 1_555 1_555
Cu2B_2 O11 1_555 1_555
O2D Cr1 1_555 1_555
Mo3D O4 1_555 1_555
Mo3E O4A 1_555 1_555
N3A_2 Cu2 1_555 1_555
O4D Cr1 1_555 1_555
O4E Mo3A 1_555 1_555
O11B Cu2 1_555 1_555
O11C Cu2 1_555 1_555
O12B Cu2 1_555 1_555
O12C Cu2 1_555 1_555
O13D Mo1 1_555 1_555
O13E Mo1A 1_555 1_555
Cr1 O4 1_555 1_555
Mo2 O6 1_555 1_555
Mo3 O5 1_555 1_555
Mo3 O10 1_555 1_555
Mo3 O4D 1_555 1_555
C4 C5 1_555 1_555
C5 C6 1_555 1_555
C8 C9 1_555 1_555
O12 Cu2B_2 1_555 1_555
C14 C15 1_555 1_555
Mo2A O6A 1_555 1_555
Mo3A O5A 1_555 1_555
Mo3A O10A 1_555 1_555
O4A Cr1A 1_555 1_555
C4A C5A 1_555 1_555
C5A C6A 1_555 1_555
C8A C9A 1_555 1_555
O12A Cu2B 1_555 1_555
C14A C15A 1_555 1_555
Mo1D O2D 1_555 1_555
Mo1D O4D 1_555 1_555
Mo1E O4E 1_555 1_555
Cr1A O4E 1_555 1_555
O1D Mo3D 1_555 1_555
Mo3D O13D 1_555 1_555
Mo3E O13E 1_555 1_555

#END
