
#######################################################################
#
#                 Cambridge Crystallographic Data Centre
#                                CCDC 
#
#######################################################################
#
# If this CIF has been generated from an entry in the Cambridge 
# Structural Database, then it will include bibliographic, chemical, 
# crystal, experimental, refinement or atomic coordinate data resulting 
# from the CCDC's data processing and validation procedures.
#
#######################################################################

data_MOYGOX
_symmetry_cell_setting           triclinic
_symmetry_space_group_name_H-M   'P -1'
_symmetry_Int_Tables_number      2
_space_group_name_Hall           '-P 1'
loop_
_symmetry_equiv_pos_site_id
_symmetry_equiv_pos_as_xyz
1 x,y,z
2 -x,-y,-z
_cell_length_a                   9.583(3)
_cell_length_b                   11.389(4)
_cell_length_c                   11.396(4)
_cell_angle_alpha                96.730(7)
_cell_angle_beta                 110.626(6)
_cell_angle_gamma                108.107(6)
_cell_volume                     1069.87
loop_
_atom_site_label
_atom_site_type_symbol
_atom_site_fract_x
_atom_site_fract_y
_atom_site_fract_z
Zn1 Zn 0.5000 0.5000 1.0000
Zn2 Zn 0.63749(7) 0.56935(5) 0.77614(6)
N1 N 0.4937(5) 0.3094(3) 0.9877(4)
N2 N 0.7731(5) 0.5358(4) 0.6808(4)
O1 O 0.6949(4) 0.5465(3) 0.9490(3)
O2 O 0.6793(4) 0.5651(3) 1.2004(3)
O3 O 0.5563(4) 0.5874(3) 1.3321(3)
O4 O 0.5818(4) 0.7165(3) 0.7288(3)
O5 O 0.8390(4) 0.8085(3) 0.8650(4)
C1 C 0.6301(6) 0.2907(4) 1.0408(5)
H1 H 0.7282 0.3633 1.0754
C2 C 0.6391(6) 0.1737(4) 1.0491(5)
H2 H 0.7407 0.1675 1.0904
C3 C 0.4983(6) 0.0638(4) 0.9967(5)
C4 C 0.3547(6) 0.0826(4) 0.9381(5)
H3 H 0.2551 0.0113 0.9007
C5 C 0.3560(6) 0.2039(4) 0.9340(5)
H4 H 0.2567 0.2135 0.8920
C6 C 0.7044(6) 0.4529(4) 0.5640(5)
H5 H 0.5922 0.4033 0.5296
C7 C 0.7876(6) 0.4361(4) 0.4916(5)
H6 H 0.7328 0.3764 0.4091
C8 C 0.9534(6) 0.5068(4) 0.5388(5)
C9 C 1.0235(6) 0.5913(5) 0.6595(5)
H7 H 1.1359 0.6407 0.6971
C10 C 0.9323(6) 0.6039(5) 0.7246(5)
H8 H 0.9841 0.6647 0.8064
C11 C 0.6771(6) 0.6189(4) 1.3036(5)
C12 C 0.8272(5) 0.7252(4) 1.4010(5)
C13 C 0.9688(6) 0.7600(5) 1.3814(5)
H9 H 0.9684 0.7186 1.3038
C14 C 1.1107(6) 0.8545(5) 1.4744(5)
H10 H 1.2064 0.8772 1.4600
C15 C 1.1125(7) 0.9150(5) 1.5866(6)
H11 H 1.2092 0.9798 1.6498
C16 C 0.9716(7) 0.8809(5) 1.6077(5)
H12 H 0.9731 0.9217 1.6861
C17 C 0.8288(6) 0.7872(5) 1.5139(5)
H13 H 0.7326 0.7658 1.5274
C18 C 0.7120(6) 0.8155(5) 0.7935(5)
C19 C 0.7044(6) 0.9437(4) 0.7761(5)
C20 C 0.5674(7) 0.9530(5) 0.6897(5)
H14 H 0.4768 0.8775 0.6366
C21 C 0.5609(7) 1.0717(5) 0.6795(6)
H15 H 0.4657 1.0771 0.6203
C22 C 0.6942(7) 1.1834(5) 0.7564(6)
H16 H 0.6916 1.2649 0.7489
C23 C 0.8298(7) 1.1725(5) 0.8435(6)
H17 H 0.9199 1.2477 0.8982
C24 C 0.8367(6) 1.0541(4) 0.8525(5)
H18 H 0.9322 1.0485 0.9111
Zn1_2 Zn 0.5000 -0.5000 1.0000
Zn2A Zn 0.36251(7) 0.43065(5) 1.22386(6)
Zn2A_2 Zn 1.36251(7) 0.43065(5) 0.22386(6)
N1A N 0.5063(5) -0.3094(3) 1.0123(4)
N1A_2 N 0.5063(5) 0.6906(3) 1.0123(4)
N2A N 1.2269(5) 0.4642(4) 0.3192(4)
N2A_2 N 0.2269(5) 0.4642(4) 1.3192(4)
O1A O 0.3051(4) 0.4535(3) 1.0510(3)
O2A O 0.3207(4) 0.4349(3) 0.7996(3)
O3A O 0.4437(4) 0.4126(3) 0.6679(3)
O4A O 0.4182(4) 0.2835(3) 1.2712(3)
O5A O 0.1610(4) 0.1915(3) 1.1350(4)
C1A C 0.3699(6) -0.2907(4) 0.9592(5)
H1A H 0.2718 -0.3633 0.9246
C2A C 0.3609(6) -0.1737(4) 0.9509(5)
H2A H 0.2593 -0.1675 0.9096
C3A C 0.5017(6) -0.0638(4) 1.0033(5)
C4A C 0.6453(6) -0.0826(4) 1.0619(5)
H3A H 0.7449 -0.0113 1.0993
C5A C 0.6440(6) -0.2039(4) 1.0660(5)
H4A H 0.7433 -0.2135 1.1080
C6A C 1.2956(6) 0.5471(4) 0.4360(5)
H5A H 1.4078 0.5967 0.4704
C7A C 1.2124(6) 0.5639(4) 0.5084(5)
H6A H 1.2672 0.6236 0.5909
C8A C 1.0466(6) 0.4932(4) 0.4612(5)
C9A C 0.9765(6) 0.4087(5) 0.3405(5)
H7A H 0.8641 0.3593 0.3029
C10A C 1.0677(6) 0.3961(5) 0.2754(5)
H8A H 1.0159 0.3353 0.1936
C11A C 0.3229(6) 0.3811(4) 0.6964(5)
C12A C 0.1728(5) 0.2748(4) 0.5990(5)
C13A C 0.0312(6) 0.2400(5) 0.6186(5)
H9A H 0.0316 0.2814 0.6962
C14A C -0.1107(6) 0.1455(5) 0.5256(5)
H10A H -0.2064 0.1228 0.5400
C15A C -0.1125(7) 0.0850(5) 0.4134(6)
H11A H -0.2092 0.0202 0.3502
C16A C 0.0284(7) 0.1191(5) 0.3923(5)
H12A H 0.0269 0.0783 0.3139
C17A C 0.1712(6) 0.2128(5) 0.4861(5)
H13A H 0.2674 0.2342 0.4726
C18A C 0.2880(6) 0.1845(5) 1.2065(5)
C19A C 0.2956(6) 0.0563(4) 1.2239(5)
C20A C 0.4326(7) 0.0470(5) 1.3103(5)
H14A H 0.5232 0.1225 1.3634
C21A C 0.4391(7) -0.0717(5) 1.3205(6)
H15A H 0.5343 -0.0771 1.3797
C22A C 0.3058(7) -0.1834(5) 1.2436(6)
H16A H 0.3084 -0.2649 1.2511
C23A C 0.1702(7) -0.1725(5) 1.1565(6)
H17A H 0.0801 -0.2477 1.1018
C24A C 0.1633(6) -0.0541(4) 1.1475(5)
H18A H 0.0678 -0.0485 1.0889
loop_
_geom_bond_atom_site_label_1
_geom_bond_atom_site_label_2
_geom_bond_site_symmetry_1
_geom_bond_site_symmetry_2
Zn1 N1 1_555 1_555
Zn2 N2 1_555 1_555
N1 C1 1_555 1_555
N2 C6 1_555 1_555
O1 Zn1 1_555 1_555
O2 Zn1 1_555 1_555
O3 C11 1_555 1_555
O4 Zn2 1_555 1_555
O5 C18 1_555 1_555
C1 H1 1_555 1_555
C2 C1 1_555 1_555
H2 C2 1_555 1_555
C3 C2 1_555 1_555
C4 C3 1_555 1_555
H3 C4 1_555 1_555
C5 N1 1_555 1_555
H4 C5 1_555 1_555
C6 H5 1_555 1_555
C7 C6 1_555 1_555
H6 C7 1_555 1_555
C8 C7 1_555 1_555
C9 C8 1_555 1_555
H7 C9 1_555 1_555
C10 N2 1_555 1_555
H8 C10 1_555 1_555
C11 O2 1_555 1_555
C12 C11 1_555 1_555
C13 C12 1_555 1_555
H9 C13 1_555 1_555
C14 C13 1_555 1_555
H10 C14 1_555 1_555
C15 C14 1_555 1_555
H11 C15 1_555 1_555
C16 C15 1_555 1_555
H12 C16 1_555 1_555
C17 C12 1_555 1_555
H13 C17 1_555 1_555
C18 O4 1_555 1_555
C19 C18 1_555 1_555
C20 C19 1_555 1_555
H14 C20 1_555 1_555
C21 C20 1_555 1_555
H15 C21 1_555 1_555
C22 C21 1_555 1_555
H16 C22 1_555 1_555
C23 C22 1_555 1_555
H17 C23 1_555 1_555
C24 C19 1_555 1_555
H18 C24 1_555 1_555
Zn1_2 N1A 1_555 1_555
Zn2A O3 1_555 1_555
Zn2A_2 N2A 1_555 1_555
N1A C1A 1_555 1_555
N1A_2 Zn1 1_555 1_555
N2A C6A 1_555 1_555
N2A_2 Zn2A 1_555 1_555
O1A Zn1 1_555 1_555
O2A Zn1 1_555 1_555
O3A Zn2 1_555 1_555
O4A Zn2A 1_555 1_555
O5A C18A 1_555 1_555
C1A H1A 1_555 1_555
C2A C1A 1_555 1_555
H2A C2A 1_555 1_555
C3A C3 1_555 1_555
C4A C3A 1_555 1_555
H3A C4A 1_555 1_555
C5A N1A 1_555 1_555
H4A C5A 1_555 1_555
C6A H5A 1_555 1_555
C7A C6A 1_555 1_555
H6A C7A 1_555 1_555
C8A C8 1_555 1_555
C9A C8A 1_555 1_555
H7A C9A 1_555 1_555
C10A N2A 1_555 1_555
H8A C10A 1_555 1_555
C11A O2A 1_555 1_555
C12A C11A 1_555 1_555
C13A C12A 1_555 1_555
H9A C13A 1_555 1_555
C14A C13A 1_555 1_555
H10A C14A 1_555 1_555
C15A C14A 1_555 1_555
H11A C15A 1_555 1_555
C16A C15A 1_555 1_555
H12A C16A 1_555 1_555
C17A C12A 1_555 1_555
H13A C17A 1_555 1_555
C18A O4A 1_555 1_555
C19A C18A 1_555 1_555
C20A C19A 1_555 1_555
H14A C20A 1_555 1_555
C21A C20A 1_555 1_555
H15A C21A 1_555 1_555
C22A C21A 1_555 1_555
H16A C22A 1_555 1_555
C23A C22A 1_555 1_555
H17A C23A 1_555 1_555
C24A C19A 1_555 1_555
H18A C24A 1_555 1_555
Zn2 O1 1_555 1_555
C4 C5 1_555 1_555
C9 C10 1_555 1_555
C16 C17 1_555 1_555
C23 C24 1_555 1_555
Zn2A O1A 1_555 1_555
O3A C11A 1_555 1_555
C2A C3A 1_555 1_555
C4A C5A 1_555 1_555
C7A C8A 1_555 1_555
C9A C10A 1_555 1_555
C16A C17A 1_555 1_555
C23A C24A 1_555 1_555

#END
