
#######################################################################
#
#                 Cambridge Crystallographic Data Centre
#                                CCDC 
#
#######################################################################
#
# If this CIF has been generated from an entry in the Cambridge 
# Structural Database, then it will include bibliographic, chemical, 
# crystal, experimental, refinement or atomic coordinate data resulting 
# from the CCDC's data processing and validation procedures.
#
#######################################################################

data_MOYGIR
_symmetry_cell_setting           monoclinic
_symmetry_space_group_name_H-M   'P 21/c'
_symmetry_Int_Tables_number      14
_space_group_name_Hall           '-P 2ybc'
loop_
_symmetry_equiv_pos_site_id
_symmetry_equiv_pos_as_xyz
1 x,y,z
2 -x,1/2+y,1/2-z
3 -x,-y,-z
4 x,1/2-y,1/2+z
_cell_length_a                   7.5157(13)
_cell_length_b                   22.813(4)
_cell_length_c                   24.820(4)
_cell_angle_alpha                90
_cell_angle_beta                 95.732(3)
_cell_angle_gamma                90
_cell_volume                     4234.25
loop_
_atom_site_label
_atom_site_type_symbol
_atom_site_fract_x
_atom_site_fract_y
_atom_site_fract_z
Zn1 Zn 1.28921(10) 0.29791(4) 0.60301(3)
O1 O 1.4471(6) 0.32771(19) 0.66406(19)
O2 O 1.6175(6) 0.3632(2) 0.6044(2)
C1 C 1.5853(9) 0.3557(3) 0.6507(3)
C2 C 1.7067(9) 0.3787(3) 0.6976(3)
C3 C 1.8604(11) 0.4064(3) 0.6860(4)
H1 H 1.8862 0.4111 0.6496
C4 C 1.9769(15) 0.4274(4) 0.7281(6)
H2 H 2.0811 0.4481 0.7204
C5 C 1.9452(16) 0.4189(5) 0.7791(7)
H3 H 2.0311 0.4321 0.8072
C6 C 1.7889(15) 0.3913(4) 0.7932(4)
H4 H 1.7640 0.3868 0.8297
C7 C 1.6739(11) 0.3711(3) 0.7501(4)
H5 H 1.5681 0.3511 0.7574
O3 O 1.3687(12) 0.2210(8) 0.5691(9)
N1 N 1.1695(7) 0.3706(2) 0.5667(3)
C8 C 1.0721(9) 0.3679(3) 0.5179(3)
H6 H 1.0490 0.3309 0.5012
C9 C 1.0059(8) 0.4179(3) 0.4922(3)
H7 H 0.9383 0.4142 0.4580
C10 C 1.0338(8) 0.4739(3) 0.5143(3)
C11 C 1.1287(8) 0.4752(3) 0.5647(3)
H8 H 1.1498 0.5118 0.5824
C12 C 1.1941(9) 0.4244(3) 0.5901(3)
H9 H 1.2582 0.4271 0.6250
Zn2 Zn 0.18825(10) 0.15661(4) 0.84603(3)
O4 O 0.0349(6) 0.1188(2) 0.78977(19)
O5 O -0.1143(7) 0.0853(2) 0.8566(2)
C13 C -0.0978(9) 0.0910(3) 0.8077(4)
C14 C -0.2316(10) 0.0668(3) 0.7654(4)
C15 C -0.2076(12) 0.0676(4) 0.7127(4)
H10 H -0.1024 0.0847 0.7012
C16 C -0.3376(19) 0.0431(5) 0.6738(5)
H11 H -0.3187 0.0415 0.6366
C17 C -0.4984(14) 0.0208(4) 0.6927(7)
H12 H -0.5912 0.0058 0.6677
C18 C -0.5173(15) 0.0213(4) 0.7462(5)
H13 H -0.6241 0.0063 0.7585
C19 C -0.3915(10) 0.0419(3) 0.7818(4)
H14 H -0.4075 0.0401 0.8193
O6 O 0.0949(9) 0.2299(3) 0.8819(3)
N2 N 0.3149(7) 0.0998(3) 0.9004(2)
C20 C 0.4068(9) 0.1181(3) 0.9458(3)
H15 H 0.4218 0.1591 0.9507
C21 C 0.4823(8) 0.0816(3) 0.9864(3)
H16 H 0.5439 0.0972 1.0185
C22 C 0.4648(7) 0.0208(3) 0.9787(2)
C23 C 0.3723(8) 0.0023(3) 0.9306(3)
H17 H 0.3578 -0.0384 0.9233
C24 C 0.3020(8) 0.0423(4) 0.8937(3)
H18 H 0.2397 0.0280 0.8611
N3 N 1.0898(8) 0.2686(2) 0.6475(3)
N4 N 0.3914(7) 0.1794(2) 0.8011(3)
C25 C 0.9441(10) 0.2403(4) 0.6243(3)
H19 H 0.9351 0.2328 0.5864
C26 C 0.8069(10) 0.2219(4) 0.6538(3)
H20 H 0.7050 0.2028 0.6360
C27 C 0.8187(9) 0.2310(3) 0.7076(3)
C28 C 0.9709(8) 0.2600(3) 0.7330(3)
H21 H 0.9846 0.2665 0.7710
C29 C 1.0991(9) 0.2784(3) 0.7006(3)
H22 H 1.1997 0.2991 0.7171
C30 C 0.6739(9) 0.2130(3) 0.7415(3)
C31 C 0.6848(10) 0.2227(3) 0.7963(3)
H23 H 0.7855 0.2422 0.8143
C32 C 0.5463(10) 0.2036(3) 0.8251(3)
H24 H 0.5598 0.2076 0.8634
C33 C 0.3805(9) 0.1721(3) 0.7470(4)
H25 H 0.2745 0.1553 0.7293
C34 C 0.5123(9) 0.1874(3) 0.7165(3)
H26 H 0.4978 0.1812 0.6785
H27 H 1.420(8) 0.211(3) 0.5409(15)
H28 H 0.096(10) 0.2646(13) 0.868(3)
Zn1B Zn 0.71079(10) 0.70209(4) 0.39699(3)
O1B O 0.5529(6) 0.67229(19) 0.33594(19)
O2B O 0.3825(6) 0.6368(2) 0.3956(2)
C1B C 0.4147(9) 0.6443(3) 0.3493(3)
C2B C 0.2933(9) 0.6213(3) 0.3024(3)
C3B C 0.1396(11) 0.5936(3) 0.3140(4)
H1B H 0.1138 0.5889 0.3504
C4B C 0.0231(15) 0.5726(4) 0.2719(6)
H2B H -0.0811 0.5519 0.2796
C5B C 0.0548(16) 0.5811(5) 0.2209(7)
H3B H -0.0311 0.5679 0.1928
C6B C 0.2111(15) 0.6087(4) 0.2068(4)
H4B H 0.2360 0.6132 0.1703
C7B C 0.3261(11) 0.6289(3) 0.2499(4)
H5B H 0.4319 0.6489 0.2426
O3B O 0.6313(12) 0.7790(8) 0.4309(9)
N1B N 0.8305(7) 0.6294(2) 0.4333(3)
C8B C 0.9279(9) 0.6321(3) 0.4821(3)
H6B H 0.9510 0.6691 0.4988
C9B C 0.9941(8) 0.5821(3) 0.5078(3)
H7B H 1.0617 0.5858 0.5420
C10B C 0.9662(8) 0.5261(3) 0.4857(3)
C11B C 0.8713(8) 0.5248(3) 0.4353(3)
H8B H 0.8502 0.4882 0.4176
C12B C 0.8059(9) 0.5756(3) 0.4099(3)
H9B H 0.7418 0.5729 0.3750
Zn2B Zn 0.81175(10) -0.15661(4) 1.15397(3)
Zn2B_2 Zn 1.81175(10) 0.84339(4) 0.15397(3)
O4B O 0.9651(6) -0.1188(2) 1.21023(19)
O5B O 1.1143(7) -0.0853(2) 1.1434(2)
C13B C 1.0978(9) -0.0910(3) 1.1923(4)
C14B C 1.2316(10) -0.0668(3) 1.2346(4)
C15B C 1.2076(12) -0.0676(4) 1.2873(4)
H10B H 1.1024 -0.0847 1.2988
C16B C 1.3376(19) -0.0431(5) 1.3262(5)
H11B H 1.3187 -0.0415 1.3634
C17B C 1.4984(14) -0.0208(4) 1.3073(7)
H12B H 1.5912 -0.0058 1.3323
C18B C 1.5173(15) -0.0213(4) 1.2538(5)
H13B H 1.6241 -0.0063 1.2415
C19B C 1.3915(10) -0.0419(3) 1.2182(4)
H14B H 1.4075 -0.0401 1.1807
O6B O 0.9051(9) -0.2299(3) 1.1181(3)
N2B N 0.6851(7) -0.0998(3) 1.0996(2)
C20B C 0.5932(9) -0.1181(3) 1.0542(3)
H15B H 0.5782 -0.1591 1.0493
C21B C 0.5177(8) -0.0816(3) 1.0136(3)
H16B H 0.4561 -0.0972 0.9815
C22B C 0.5352(7) -0.0208(3) 1.0213(2)
C23B C 0.6277(8) -0.0023(3) 1.0694(3)
H17B H 0.6422 0.0384 1.0767
C24B C 0.6980(8) -0.0423(4) 1.1063(3)
H18B H 0.7603 -0.0280 1.1389
N3B N 0.9102(8) 0.7314(2) 0.3525(3)
N4B N 1.6086(7) 0.8206(2) 0.1989(3)
N4B_2 N 0.6086(7) -0.1794(2) 1.1989(3)
C25B C 1.0559(10) 0.7597(4) 0.3757(3)
H19B H 1.0649 0.7672 0.4136
C26B C 1.1931(10) 0.7781(4) 0.3462(3)
H20B H 1.2950 0.7972 0.3640
C27B C 1.1813(9) 0.7690(3) 0.2924(3)
C28B C 1.0291(8) 0.7400(3) 0.2670(3)
H21B H 1.0154 0.7335 0.2290
C29B C 0.9009(9) 0.7216(3) 0.2994(3)
H22B H 0.8003 0.7009 0.2829
C30B C 1.3261(9) 0.7870(3) 0.2585(3)
C31B C 1.3152(10) 0.7773(3) 0.2037(3)
H23B H 1.2145 0.7578 0.1857
C32B C 1.4537(10) 0.7964(3) 0.1749(3)
H24B H 1.4402 0.7924 0.1366
C33B C 1.6195(9) 0.8279(3) 0.2530(4)
H25B H 1.7255 0.8447 0.2707
C34B C 1.4877(9) 0.8126(3) 0.2835(3)
H26B H 1.5022 0.8188 0.3215
H27B H 0.580(8) 0.789(3) 0.4591(15)
H28B H 0.904(10) -0.2646(13) 1.132(3)
loop_
_geom_bond_atom_site_label_1
_geom_bond_atom_site_label_2
_geom_bond_site_symmetry_1
_geom_bond_site_symmetry_2
Zn1 O1 1_555 1_555
O1 C1 1_555 1_555
O2 C1 1_555 1_555
C1 C2 1_555 1_555
C2 C3 1_555 1_555
C3 H1 1_555 1_555
C4 C3 1_555 1_555
H2 C4 1_555 1_555
C5 C4 1_555 1_555
H3 C5 1_555 1_555
C6 C5 1_555 1_555
H4 C6 1_555 1_555
C7 C2 1_555 1_555
H5 C7 1_555 1_555
O3 Zn1 1_555 1_555
N1 Zn1 1_555 1_555
C8 N1 1_555 1_555
H6 C8 1_555 1_555
C9 C8 1_555 1_555
H7 C9 1_555 1_555
C10 C9 1_555 1_555
C11 C10 1_555 1_555
H8 C11 1_555 1_555
C12 N1 1_555 1_555
H9 C12 1_555 1_555
Zn2 O4 1_555 1_555
O4 C13 1_555 1_555
O5 C13 1_555 1_555
C13 C14 1_555 1_555
C14 C15 1_555 1_555
C15 H10 1_555 1_555
C16 C15 1_555 1_555
H11 C16 1_555 1_555
C17 C16 1_555 1_555
H12 C17 1_555 1_555
C18 C17 1_555 1_555
H13 C18 1_555 1_555
C19 C14 1_555 1_555
H14 C19 1_555 1_555
O6 Zn2 1_555 1_555
N2 Zn2 1_555 1_555
C20 N2 1_555 1_555
H15 C20 1_555 1_555
C21 C20 1_555 1_555
H16 C21 1_555 1_555
C22 C21 1_555 1_555
C23 C22 1_555 1_555
H17 C23 1_555 1_555
C24 N2 1_555 1_555
H18 C24 1_555 1_555
N3 Zn1 1_555 1_555
N4 Zn2 1_555 1_555
C25 N3 1_555 1_555
H19 C25 1_555 1_555
C26 C25 1_555 1_555
H20 C26 1_555 1_555
C27 C26 1_555 1_555
C28 C27 1_555 1_555
H21 C28 1_555 1_555
C29 N3 1_555 1_555
H22 C29 1_555 1_555
C30 C27 1_555 1_555
C31 C30 1_555 1_555
H23 C31 1_555 1_555
C32 N4 1_555 1_555
H24 C32 1_555 1_555
C33 N4 1_555 1_555
H25 C33 1_555 1_555
C34 C30 1_555 1_555
H26 C34 1_555 1_555
H27 O3 1_555 1_555
H28 O6 1_555 1_555
Zn1B O1B 1_555 1_555
O1B C1B 1_555 1_555
O2B C1B 1_555 1_555
C1B C2B 1_555 1_555
C2B C3B 1_555 1_555
C3B H1B 1_555 1_555
C4B C3B 1_555 1_555
H2B C4B 1_555 1_555
C5B C4B 1_555 1_555
H3B C5B 1_555 1_555
C6B C5B 1_555 1_555
H4B C6B 1_555 1_555
C7B C2B 1_555 1_555
H5B C7B 1_555 1_555
O3B Zn1B 1_555 1_555
N1B Zn1B 1_555 1_555
C8B N1B 1_555 1_555
H6B C8B 1_555 1_555
C9B C8B 1_555 1_555
H7B C9B 1_555 1_555
C10B C10 1_555 1_555
C11B C10B 1_555 1_555
H8B C11B 1_555 1_555
C12B N1B 1_555 1_555
H9B C12B 1_555 1_555
Zn2B O4B 1_555 1_555
Zn2B_2 N4B 1_555 1_555
O4B C13B 1_555 1_555
O5B C13B 1_555 1_555
C13B C14B 1_555 1_555
C14B C15B 1_555 1_555
C15B H10B 1_555 1_555
C16B C15B 1_555 1_555
H11B C16B 1_555 1_555
C17B C16B 1_555 1_555
H12B C17B 1_555 1_555
C18B C17B 1_555 1_555
H13B C18B 1_555 1_555
C19B C14B 1_555 1_555
H14B C19B 1_555 1_555
O6B Zn2B 1_555 1_555
N2B Zn2B 1_555 1_555
C20B N2B 1_555 1_555
H15B C20B 1_555 1_555
C21B C20B 1_555 1_555
H16B C21B 1_555 1_555
C22B C22 1_555 1_555
C23B C22B 1_555 1_555
H17B C23B 1_555 1_555
C24B N2B 1_555 1_555
H18B C24B 1_555 1_555
N3B Zn1B 1_555 1_555
N4B C32B 1_555 1_555
N4B_2 Zn2B 1_555 1_555
C25B N3B 1_555 1_555
H19B C25B 1_555 1_555
C26B C25B 1_555 1_555
H20B C26B 1_555 1_555
C27B C26B 1_555 1_555
C28B C27B 1_555 1_555
H21B C28B 1_555 1_555
C29B N3B 1_555 1_555
H22B C29B 1_555 1_555
C30B C27B 1_555 1_555
C31B C30B 1_555 1_555
H23B C31B 1_555 1_555
C32B C31B 1_555 1_555
H24B C32B 1_555 1_555
C33B N4B 1_555 1_555
H25B C33B 1_555 1_555
C34B C30B 1_555 1_555
H26B C34B 1_555 1_555
H27B O3B 1_555 1_555
H28B O6B 1_555 1_555
C6 C7 1_555 1_555
C11 C12 1_555 1_555
C18 C19 1_555 1_555
C23 C24 1_555 1_555
C28 C29 1_555 1_555
C31 C32 1_555 1_555
C33 C34 1_555 1_555
C6B C7B 1_555 1_555
C9B C10B 1_555 1_555
C11B C12B 1_555 1_555
C18B C19B 1_555 1_555
C21B C22B 1_555 1_555
C23B C24B 1_555 1_555
C28B C29B 1_555 1_555
C33B C34B 1_555 1_555

#END
