
#######################################################################
#
#                 Cambridge Crystallographic Data Centre
#                                CCDC 
#
#######################################################################
#
# If this CIF has been generated from an entry in the Cambridge 
# Structural Database, then it will include bibliographic, chemical, 
# crystal, experimental, refinement or atomic coordinate data resulting 
# from the CCDC's data processing and validation procedures.
#
#######################################################################

data_MOYJEQ
_symmetry_cell_setting           monoclinic
_symmetry_space_group_name_H-M   'C 2/c'
_symmetry_Int_Tables_number      15
_space_group_name_Hall           '-C 2yn'
loop_
_symmetry_equiv_pos_site_id
_symmetry_equiv_pos_as_xyz
1 x,y,z
2 -x,y,1/2-z
3 1/2+x,1/2+y,z
4 1/2-x,1/2+y,1/2-z
5 -x,-y,-z
6 x,-y,1/2+z
7 1/2-x,1/2-y,-z
8 1/2+x,1/2-y,1/2+z
_cell_length_a                   17.7670(9)
_cell_length_b                   10.5190(9)
_cell_length_c                   18.6400(16)
_cell_angle_alpha                90
_cell_angle_beta                 102.8840(13)
_cell_angle_gamma                90
_cell_volume                     3395.94
loop_
_atom_site_label
_atom_site_type_symbol
_atom_site_fract_x
_atom_site_fract_y
_atom_site_fract_z
Zn1 Zn 0.5000 0.71776(3) 0.2500
Cl1 Cl 0.24028(4) -0.10263(7) 0.03733(4)
O1 O 0.52416(8) 0.80772(13) 0.34353(8)
C1 C 0.48610(11) 0.94127(17) 0.43114(10)
O2 O 0.40989(9) 0.90124(16) 0.31189(8)
N1 N 0.40509(9) 0.60377(14) 0.23488(8)
N2 N 0.32441(9) 0.44330(15) 0.22918(10)
N3 N 0.45846(12) 0.30736(18) 0.31918(11)
C2 C 0.27987(12) 0.22155(19) 0.19379(12)
C3 C 0.47053(11) 0.88060(18) 0.35592(11)
C4 C 0.44894(12) 0.43259(19) 0.32564(11)
C5 C 0.39307(11) 0.49283(17) 0.26502(10)
C6 C 0.55339(12) 0.9169(2) 0.48292(11)
H1 H 0.5897 0.8608 0.4719
C7 C 0.25827(13) 0.0263(2) 0.09838(13)
C8 C 0.49118(14) 0.5034(2) 0.38200(12)
H2 H 0.4813 0.5896 0.3860
C9 C 0.33406(13) 0.1263(2) 0.20129(13)
H3 H 0.3777 0.1295 0.2396
C10 C 0.32422(13) 0.0261(2) 0.15232(13)
H4 H 0.3607 -0.0383 0.1559
C11 C 0.56695(12) 0.9754(2) 0.55106(12)
H5 H 0.6125 0.9584 0.5854
N4 N 0.20466(12) 0.1135(2) 0.08861(14)
C12 C 0.28468(12) 0.3284(2) 0.24856(13)
H6 H 0.2328 0.3516 0.2522
H7 H 0.3119 0.2984 0.2965
C13 C 0.34187(12) 0.6240(2) 0.17768(12)
H8 H 0.3344 0.6942 0.1466
C14 C 0.51505(17) 0.2534(3) 0.36927(18)
H9 H 0.5232 0.1667 0.3652
C15 C 0.21615(15) 0.2098(2) 0.13676(16)
H10 H 0.1786 0.2728 0.1313
C16 C 0.54934(17) 0.4432(3) 0.43317(15)
H11 H 0.5795 0.4888 0.4719
C17 C 0.29281(12) 0.5256(2) 0.17434(13)
H12 H 0.2459 0.5156 0.1407
C18 C 0.56132(18) 0.3168(4) 0.42551(18)
H13 H 0.6005 0.2746 0.4583
Zn1D Zn 0.5000 1.28224(3) 0.7500
Cl1A Cl 0.75972(4) -0.10263(7) 0.46267(4)
O1D O 0.47584(8) 1.19228(13) 0.65647(8)
O1A O 0.47584(8) 0.80772(13) 0.15647(8)
C1D C 0.51390(11) 1.05873(17) 0.56886(10)
O2D O 0.59011(9) 1.09876(16) 0.68811(8)
N1A N 0.59491(9) 0.60377(14) 0.26512(8)
N2A N 0.67559(9) 0.44330(15) 0.27082(10)
N3A N 0.54154(12) 0.30736(18) 0.18082(11)
C2A C 0.72013(12) 0.22155(19) 0.30621(12)
C3D C 0.52947(11) 1.11940(18) 0.64408(11)
C4A C 0.55106(12) 0.43259(19) 0.17436(11)
C5A C 0.60693(11) 0.49283(17) 0.23498(10)
C6D C 0.44661(12) 1.0831(2) 0.51708(11)
H1D H 0.4103 1.1392 0.5281
C7A C 0.74173(13) 0.0263(2) 0.40162(13)
C8A C 0.50882(14) 0.5034(2) 0.11800(12)
H2A H 0.5187 0.5896 0.1140
C9A C 0.66594(13) 0.1263(2) 0.29871(13)
H3A H 0.6223 0.1295 0.2604
C10A C 0.67578(13) 0.0261(2) 0.34768(13)
H4A H 0.6393 -0.0383 0.3441
C11D C 0.43305(12) 1.0246(2) 0.44894(12)
H5D H 0.3875 1.0416 0.4146
N4A N 0.79534(12) 0.1135(2) 0.41139(14)
C12A C 0.71532(12) 0.3284(2) 0.25144(13)
H6A H 0.7672 0.3516 0.2478
H7A H 0.6881 0.2984 0.2035
C13A C 0.65813(12) 0.6240(2) 0.32232(12)
H8A H 0.6656 0.6942 0.3534
C14A C 0.48495(17) 0.2534(3) 0.13073(18)
H9A H 0.4768 0.1667 0.1348
C15A C 0.78385(15) 0.2098(2) 0.36324(16)
H10A H 0.8214 0.2728 0.3687
C16A C 0.45066(17) 0.4432(3) 0.06683(15)
H11A H 0.4205 0.4888 0.0281
C17A C 0.70719(12) 0.5256(2) 0.32566(13)
H12A H 0.7541 0.5156 0.3593
C18A C 0.43868(18) 0.3168(4) 0.07449(18)
H13A H 0.3995 0.2746 0.0417
loop_
_geom_bond_atom_site_label_1
_geom_bond_atom_site_label_2
_geom_bond_site_symmetry_1
_geom_bond_site_symmetry_2
Zn1 O1 1_555 1_555
Cl1 C7 1_555 1_555
O1 C3 1_555 1_555
C1 C3 1_555 1_555
O2 C3 1_555 1_555
N1 Zn1 1_555 1_555
N2 C5 1_555 1_555
N3 C4 1_555 1_555
C2 C9 1_555 1_555
C4 C5 1_555 1_555
C5 N1 1_555 1_555
C6 C1 1_555 1_555
H1 C6 1_555 1_555
C7 C10 1_555 1_555
C8 C4 1_555 1_555
H2 C8 1_555 1_555
C9 H3 1_555 1_555
C10 C9 1_555 1_555
H4 C10 1_555 1_555
C11 C6 1_555 1_555
H5 C11 1_555 1_555
N4 C7 1_555 1_555
C12 N2 1_555 1_555
H6 C12 1_555 1_555
H7 C12 1_555 1_555
C13 N1 1_555 1_555
H8 C13 1_555 1_555
C14 N3 1_555 1_555
H9 C14 1_555 1_555
C15 C2 1_555 1_555
H10 C15 1_555 1_555
C16 C8 1_555 1_555
H11 C16 1_555 1_555
C17 N2 1_555 1_555
H12 C17 1_555 1_555
C18 C14 1_555 1_555
H13 C18 1_555 1_555
Zn1D O1D 1_555 1_555
Cl1A C7A 1_555 1_555
O1D C3D 1_555 1_555
O1A Zn1 1_555 1_555
C1D C11 1_555 1_555
O2D C3D 1_555 1_555
N1A Zn1 1_555 1_555
N2A C5A 1_555 1_555
N3A C4A 1_555 1_555
C2A C9A 1_555 1_555
C3D C1D 1_555 1_555
C4A C5A 1_555 1_555
C5A N1A 1_555 1_555
C6D C1D 1_555 1_555
H1D C6D 1_555 1_555
C7A C10A 1_555 1_555
C8A C4A 1_555 1_555
H2A C8A 1_555 1_555
C9A H3A 1_555 1_555
C10A C9A 1_555 1_555
H4A C10A 1_555 1_555
C11D C1 1_555 1_555
H5D C11D 1_555 1_555
N4A C7A 1_555 1_555
C12A N2A 1_555 1_555
H6A C12A 1_555 1_555
H7A C12A 1_555 1_555
C13A N1A 1_555 1_555
H8A C13A 1_555 1_555
C14A N3A 1_555 1_555
H9A C14A 1_555 1_555
C15A C2A 1_555 1_555
H10A C15A 1_555 1_555
C16A C8A 1_555 1_555
H11A C16A 1_555 1_555
C17A N2A 1_555 1_555
H12A C17A 1_555 1_555
C18A C14A 1_555 1_555
H13A C18A 1_555 1_555
C2 C12 1_555 1_555
N4 C15 1_555 1_555
C13 C17 1_555 1_555
C16 C18 1_555 1_555
C2A C12A 1_555 1_555
C6D C11D 1_555 1_555
N4A C15A 1_555 1_555
C13A C17A 1_555 1_555
C16A C18A 1_555 1_555

#END
