
#######################################################################
#
#                 Cambridge Crystallographic Data Centre
#                                CCDC 
#
#######################################################################
#
# If this CIF has been generated from an entry in the Cambridge 
# Structural Database, then it will include bibliographic, chemical, 
# crystal, experimental, refinement or atomic coordinate data resulting 
# from the CCDC's data processing and validation procedures.
#
#######################################################################

data_MOYJUG
_symmetry_cell_setting           monoclinic
_symmetry_space_group_name_H-M   'C 2/c'
_symmetry_Int_Tables_number      15
_space_group_name_Hall           '-C 2yn'
loop_
_symmetry_equiv_pos_site_id
_symmetry_equiv_pos_as_xyz
1 x,y,z
2 -x,y,1/2-z
3 1/2+x,1/2+y,z
4 1/2-x,1/2+y,1/2-z
5 -x,-y,-z
6 x,-y,1/2+z
7 1/2-x,1/2-y,-z
8 1/2+x,1/2-y,1/2+z
_cell_length_a                   16.7330(7)
_cell_length_b                   10.2410(8)
_cell_length_c                   25.708(2)
_cell_angle_alpha                90
_cell_angle_beta                 108.9500(10)
_cell_angle_gamma                90
_cell_volume                     4166.63
loop_
_atom_site_label
_atom_site_type_symbol
_atom_site_fract_x
_atom_site_fract_y
_atom_site_fract_z
Cd1 Cd 0.28148(3) 0.21066(4) 0.128672(17)
O1 O 0.1315(3) 0.2933(5) 0.11434(19)
O2 O 0.2092(3) 0.3610(5) 0.0654(2)
N1 N 0.3944(3) 0.2541(5) 0.0963(2)
O3 O 0.2248(3) 0.0415(5) 0.0742(2)
N2 N 0.6688(3) 0.1460(5) 0.2820(2)
C1 C 0.1405(4) 0.3571(6) 0.0748(3)
N3 N 0.6708(3) 0.3981(6) 0.3086(2)
C2 C 0.0669(3) 0.4335(6) 0.0369(2)
C3 C 0.5411(4) 0.2576(7) 0.1075(3)
C4 C 0.6487(4) 0.3736(7) 0.2541(3)
C5 C 0.3802(4) 0.3120(6) 0.0478(3)
H1 H 0.3246 0.3285 0.0265
C6 C 0.4432(4) 0.3484(7) 0.0278(3)
H2 H 0.4301 0.3893 -0.0063
C7 C 0.2589(4) -0.1558(6) 0.0409(3)
C8 C 0.6630(4) 0.0259(7) 0.2588(3)
H3 H 0.6683 -0.0529 0.2775
N4 N 0.6440(3) 0.1722(6) 0.1938(2)
C9 C 0.4754(4) 0.2238(7) 0.1251(3)
H4 H 0.4867 0.1784 0.1580
C10 C 0.6483(4) 0.0389(8) 0.2038(3)
H5 H 0.6424 -0.0277 0.1783
C11 C 0.0777(4) 0.4995(7) -0.0068(3)
H6 H 0.1303 0.4989 -0.0117
C12 C 0.6563(4) 0.2343(7) 0.2426(3)
C13 C -0.0119(4) 0.4331(6) 0.0435(3)
H7 H -0.0205 0.3876 0.0726
C14 C 0.2724(5) -0.0522(7) 0.0840(3)
C15 C 0.5239(4) 0.3245(8) 0.0576(3)
H8 H 0.5677 0.3520 0.0454
C16 C 0.3125(5) -0.2639(6) 0.0505(3)
H9 H 0.3547 -0.2738 0.0843
C17 C 0.1975(4) -0.1432(7) -0.0096(3)
H10 H 0.1618 -0.0710 -0.0164
O4 O 0.3348(5) -0.0607(7) 0.1263(2)
C18 C 0.6314(4) 0.2219(9) 0.1391(3)
H11 H 0.6503 0.1565 0.1184
H12 H 0.6665 0.2986 0.1419
C19 C 0.6660(5) 0.5232(8) 0.3231(4)
H13 H 0.6810 0.5422 0.3604
C20 C 0.6220(5) 0.4717(8) 0.2161(4)
H14 H 0.6057 0.4521 0.1788
C21 C 0.6192(6) 0.5960(10) 0.2324(5)
H15 H 0.6027 0.6626 0.2064
C22 C 0.6408(7) 0.6239(10) 0.2871(5)
H16 H 0.6383 0.7088 0.2994
Cd1D Cd -0.28148(3) 0.78934(4) -0.128672(17)
Cd1A Cd 0.71852(3) 0.21066(4) 0.371328(17)
Cd1F Cd 0.21852(3) -0.71066(4) -0.128672(17)
O1D O -0.1315(3) 0.7067(5) -0.11434(19)
O2D O -0.2092(3) 0.6390(5) -0.0654(2)
N1A N 0.6056(3) 0.2541(5) 0.4037(2)
N1D N -0.3944(3) 0.7459(5) -0.0963(2)
O3F O 0.2752(3) -0.5415(5) -0.0742(2)
O3D O -0.2248(3) 0.9585(5) -0.0742(2)
N2A N 0.3312(3) 0.1460(5) 0.2180(2)
N2E N -0.3312(3) 0.8540(5) -0.2180(2)
C1D C -0.1405(4) 0.6429(6) -0.0748(3)
N3A N 0.3292(3) 0.3981(6) 0.1914(2)
N3E N -0.3292(3) 0.6019(6) -0.1914(2)
C2D C -0.0669(3) 0.5665(6) -0.0369(2)
C3A C 0.4589(4) 0.2576(7) 0.3925(3)
C4A C 0.3513(4) 0.3736(7) 0.2459(3)
C5A C 0.6198(4) 0.3120(6) 0.4522(3)
H1A H 0.6754 0.3285 0.4735
C6A C 0.5568(4) 0.3484(7) 0.4722(3)
H2A H 0.5699 0.3893 0.5063
C7F C 0.2411(4) -0.3442(6) -0.0409(3)
C8A C 0.3370(4) 0.0259(7) 0.2412(3)
H3A H 0.3317 -0.0529 0.2225
N4A N 0.3560(3) 0.1722(6) 0.3062(2)
C9A C 0.5246(4) 0.2238(7) 0.3749(3)
H4A H 0.5133 0.1784 0.3420
C10A C 0.3517(4) 0.0389(8) 0.2962(3)
H5A H 0.3576 -0.0277 0.3217
C11D C -0.0777(4) 0.5005(7) 0.0068(3)
H6D H -0.1303 0.5011 0.0117
C12A C 0.3437(4) 0.2343(7) 0.2574(3)
C13D C 0.0119(4) 0.5669(6) -0.0435(3)
H7D H 0.0205 0.6124 -0.0726
C14F C 0.2276(5) -0.4478(7) -0.0840(3)
C15A C 0.4761(4) 0.3245(8) 0.4424(3)
H8A H 0.4323 0.3520 0.4546
C16F C 0.1875(5) -0.2361(6) -0.0505(3)
H9F H 0.1453 -0.2262 -0.0843
C17F C 0.3025(4) -0.3568(7) 0.0096(3)
H10F H 0.3382 -0.4290 0.0164
O4F O 0.1652(5) -0.4393(7) -0.1263(2)
C18A C 0.3686(4) 0.2219(9) 0.3609(3)
H11A H 0.3497 0.1565 0.3816
H12A H 0.3335 0.2986 0.3581
C19A C 0.3340(5) 0.5232(8) 0.1769(4)
H13A H 0.3190 0.5422 0.1396
C20A C 0.3780(5) 0.4717(8) 0.2839(4)
H14A H 0.3943 0.4521 0.3212
C21A C 0.3808(6) 0.5960(10) 0.2676(5)
H15A H 0.3973 0.6626 0.2936
C22A C 0.3592(7) 0.6239(10) 0.2129(5)
H16A H 0.3617 0.7088 0.2006
loop_
_geom_bond_atom_site_label_1
_geom_bond_atom_site_label_2
_geom_bond_site_symmetry_1
_geom_bond_site_symmetry_2
Cd1 O1 1_555 1_555
O1 C1 1_555 1_555
O2 Cd1 1_555 1_555
N1 Cd1 1_555 1_555
O3 Cd1 1_555 1_555
N2 C8 1_555 1_555
C1 O2 1_555 1_555
N3 C4 1_555 1_555
C2 C1 1_555 1_555
C3 C9 1_555 1_555
C4 C12 1_555 1_555
C5 N1 1_555 1_555
H1 C5 1_555 1_555
C6 C5 1_555 1_555
H2 C6 1_555 1_555
C7 C14 1_555 1_555
C8 H3 1_555 1_555
N4 C10 1_555 1_555
C9 N1 1_555 1_555
H4 C9 1_555 1_555
C10 C8 1_555 1_555
H5 C10 1_555 1_555
C11 C2 1_555 1_555
H6 C11 1_555 1_555
C12 N2 1_555 1_555
C13 C2 1_555 1_555
H7 C13 1_555 1_555
C14 O3 1_555 1_555
C15 C3 1_555 1_555
H8 C15 1_555 1_555
C16 C7 1_555 1_555
H9 C16 1_555 1_555
C17 C7 1_555 1_555
H10 C17 1_555 1_555
O4 C14 1_555 1_555
C18 C3 1_555 1_555
H11 C18 1_555 1_555
H12 C18 1_555 1_555
C19 N3 1_555 1_555
H13 C19 1_555 1_555
C20 C4 1_555 1_555
H14 C20 1_555 1_555
C21 C20 1_555 1_555
H15 C21 1_555 1_555
C22 C19 1_555 1_555
H16 C22 1_555 1_555
Cd1D O1D 1_555 1_555
Cd1A N2 1_555 1_555
Cd1F O3F 1_555 1_555
O1D C1D 1_555 1_555
O2D Cd1D 1_555 1_555
N1A Cd1A 1_555 1_555
N1D Cd1D 1_555 1_555
O3F C14F 1_555 1_555
O3D Cd1D 1_555 1_555
N2A Cd1 1_555 1_555
N2E Cd1D 1_555 1_555
C1D O2D 1_555 1_555
N3A Cd1 1_555 1_555
N3E Cd1D 1_555 1_555
C2D C1D 1_555 1_555
C3A C9A 1_555 1_555
C4A N3A 1_555 1_555
C5A N1A 1_555 1_555
H1A C5A 1_555 1_555
C6A C5A 1_555 1_555
H2A C6A 1_555 1_555
C7F C14F 1_555 1_555
C8A N2A 1_555 1_555
H3A C8A 1_555 1_555
N4A C10A 1_555 1_555
C9A N1A 1_555 1_555
H4A C9A 1_555 1_555
C10A C8A 1_555 1_555
H5A C10A 1_555 1_555
C11D C13 1_555 1_555
H6D C11D 1_555 1_555
C12A N2A 1_555 1_555
C13D C11 1_555 1_555
H7D C13D 1_555 1_555
C14F O4F 1_555 1_555
C15A C3A 1_555 1_555
H8A C15A 1_555 1_555
C16F C17 1_555 1_555
H9F C16F 1_555 1_555
C17F C16 1_555 1_555
H10F C17F 1_555 1_555
C18A C3A 1_555 1_555
H11A C18A 1_555 1_555
H12A C18A 1_555 1_555
C19A N3A 1_555 1_555
H13A C19A 1_555 1_555
C20A C4A 1_555 1_555
H14A C20A 1_555 1_555
C21A C20A 1_555 1_555
H15A C21A 1_555 1_555
C22A C19A 1_555 1_555
H16A C22A 1_555 1_555
N3 Cd1A 1_555 1_555
C6 C15 1_555 1_555
N4 C12 1_555 1_555
N4 C18 1_555 1_555
C21 C22 1_555 1_555
C2D C11D 1_555 1_555
C2D C13D 1_555 1_555
C4A C12A 1_555 1_555
C6A C15A 1_555 1_555
C7F C16F 1_555 1_555
C7F C17F 1_555 1_555
N4A C12A 1_555 1_555
N4A C18A 1_555 1_555
C21A C22A 1_555 1_555

#END
