
#######################################################################
#
#                 Cambridge Crystallographic Data Centre
#                                CCDC 
#
#######################################################################
#
# If this CIF has been generated from an entry in the Cambridge 
# Structural Database, then it will include bibliographic, chemical, 
# crystal, experimental, refinement or atomic coordinate data resulting 
# from the CCDC's data processing and validation procedures.
#
#######################################################################

data_MOYKAN
_symmetry_cell_setting           orthorhombic
_symmetry_space_group_name_H-M   'P b c a'
_symmetry_Int_Tables_number      61
_space_group_name_Hall           '-P 2ac 2ab'
loop_
_symmetry_equiv_pos_site_id
_symmetry_equiv_pos_as_xyz
1 x,y,z
2 1/2-x,-y,1/2+z
3 1/2+x,1/2-y,-z
4 -x,1/2+y,1/2-z
5 -x,-y,-z
6 1/2+x,y,1/2-z
7 1/2-x,1/2+y,z
8 x,1/2-y,1/2+z
_cell_length_a                   13.9320(5)
_cell_length_b                   18.4120(7)
_cell_length_c                   19.4820(7)
_cell_angle_alpha                90
_cell_angle_beta                 90
_cell_angle_gamma                90
_cell_volume                     4997.44
loop_
_atom_site_label
_atom_site_type_symbol
_atom_site_fract_x
_atom_site_fract_y
_atom_site_fract_z
Zn1 Zn 0.59708(3) 0.51851(2) 0.46195(2)
Zn2 Zn 0.63753(3) 0.39474(2) 0.572769(19)
C1 C 0.6180(3) 0.6711(2) 0.5461(2)
H1 H 0.6136 0.6539 0.5909
C2 C 0.6335(3) 0.7411(2) 0.5281(2)
H2 H 0.6417 0.7803 0.5577
C3 C 0.6206(2) 0.67364(19) 0.43545(19)
C4 C 0.6247(3) 0.6449(2) 0.36560(19)
C5 C 0.6264(3) 0.6855(2) 0.3063(2)
H3 H 0.6191 0.7357 0.3080
C6 C 0.6391(3) 0.6506(3) 0.2439(2)
H4 H 0.6406 0.6772 0.2034
C7 C 0.6493(3) 0.5768(2) 0.2423(2)
H5 H 0.6610 0.5525 0.2013
C8 C 0.6417(3) 0.5396(2) 0.3035(2)
H6 H 0.6453 0.4892 0.3023
C9 C 0.6478(3) 0.8095(2) 0.4191(2)
H7 H 0.6897 0.7995 0.3805
H8 H 0.6799 0.8448 0.4481
C10 C 0.5561(3) 0.8425(2) 0.3926(2)
C11 C 0.4659(3) 0.8232(3) 0.4173(2)
H9 H 0.4590 0.7865 0.4498
C12 C 0.3863(4) 0.8603(3) 0.3922(3)
H10 H 0.3265 0.8477 0.4097
N1 N 0.3894(4) 0.9126(3) 0.3449(3)
C13 C 0.5618(4) 0.8956(3) 0.3422(3)
H11 H 0.6208 0.9085 0.3234
C14 C 0.7990(3) 0.4695(2) 0.52165(19)
C15 C 0.9038(3) 0.4845(2) 0.51157(18)
C16 C 0.9313(3) 0.5352(2) 0.4630(2)
H12 H 0.8845 0.5596 0.4379
C17 C 0.9736(3) 0.4497(2) 0.5489(2)
H13 H 0.9564 0.4159 0.5822
C18 C 0.6151(3) 0.1384(2) 0.2121(2)
C19 C 0.6106(3) 0.1928(2) 0.27075(18)
C20 C 0.5933(5) 0.2637(2) 0.2585(2)
H14 H 0.5832 0.2793 0.2137
C21 C 0.5906(5) 0.3131(2) 0.3114(2)
H15 H 0.5779 0.3616 0.3016
C22 C 0.6060(3) 0.29292(19) 0.37789(18)
C23 C 0.6219(3) 0.2210(2) 0.3908(2)
H16 H 0.6315 0.2054 0.4357
C24 C 0.6236(3) 0.1710(2) 0.3371(2)
H17 H 0.6338 0.1221 0.3466
C25 C 0.6074(2) 0.3496(2) 0.43318(18)
N2 N 0.6349(2) 0.74304(17) 0.45796(17)
N3 N 0.6096(2) 0.62953(16) 0.48832(16)
N4 N 0.6295(2) 0.57155(17) 0.36391(15)
C26 C 0.4788(5) 0.9290(3) 0.3205(3)
H18 H 0.4838 0.9649 0.2871
O1 O 0.74203(18) 0.50297(16) 0.48384(15)
O2 O 0.77508(18) 0.42290(14) 0.56607(13)
O3 O 0.6231(2) 0.16517(15) 0.15294(13)
O4 O 0.6116(2) 0.07297(16) 0.22536(15)
O5 O 0.5943(2) 0.41422(13) 0.41544(13)
O6 O 0.62226(18) 0.32800(13) 0.49392(12)
O7 O 0.55366(17) 0.47808(12) 0.55754(11)
H19 H 0.565(3) 0.5092(16) 0.5875(15)
Zn1D Zn 1.40292(3) 0.48149(2) 0.53805(2)
Zn1D_2 Zn 0.40292(3) 0.48149(2) 0.53805(2)
Zn1G Zn 0.59708(3) -0.01851(2) 0.96195(2)
Zn1_2 Zn 1.59708(3) 0.51851(2) 0.46195(2)
Zn2D Zn 1.36247(3) 0.60526(2) 0.427231(19)
Zn2G Zn 0.63753(3) 0.10526(2) 0.072769(19)
Zn2G_2 Zn 0.63753(3) 0.10526(2) 1.072769(19)
C1D C 1.3820(3) 0.3289(2) 0.4539(2)
H1D H 1.3864 0.3461 0.4091
C2D C 1.3665(3) 0.2589(2) 0.4719(2)
H2D H 1.3583 0.2197 0.4423
C3D C 1.3794(2) 0.32636(19) 0.56455(19)
C4D C 1.3753(3) 0.3551(2) 0.63440(19)
C5D C 1.3736(3) 0.3145(2) 0.6937(2)
H3D H 1.3809 0.2643 0.6920
C6D C 1.3609(3) 0.3494(3) 0.7561(2)
H4D H 1.3594 0.3228 0.7966
C7D C 1.3507(3) 0.4232(2) 0.7577(2)
H5D H 1.3390 0.4475 0.7987
C8D C 1.3583(3) 0.4604(2) 0.6965(2)
H6D H 1.3547 0.5108 0.6977
C9D C 1.3522(3) 0.1905(2) 0.5809(2)
H7D H 1.3103 0.2005 0.6195
H8D H 1.3201 0.1552 0.5519
C10D C 1.4439(3) 0.1575(2) 0.6074(2)
C11D C 1.5341(3) 0.1768(3) 0.5827(2)
H9D H 1.5410 0.2135 0.5502
C12D C 1.6137(4) 0.1397(3) 0.6078(3)
H10D H 1.6735 0.1523 0.5903
N1D N 1.6106(4) 0.0874(3) 0.6551(3)
C13D C 1.4382(4) 0.1044(3) 0.6578(3)
H11D H 1.3792 0.0915 0.6766
C14D C 1.2010(3) 0.5305(2) 0.47835(19)
C15D C 1.0962(3) 0.5155(2) 0.48843(18)
C16D C 1.0687(3) 0.4648(2) 0.5370(2)
H12D H 1.1155 0.4404 0.5621
C17D C 1.0264(3) 0.5503(2) 0.4511(2)
H13D H 1.0436 0.5841 0.4178
C18G C 0.6151(3) 0.3616(2) 0.7121(2)
C19G C 0.6106(3) 0.3072(2) 0.77075(18)
C20G C 0.5933(5) 0.2363(2) 0.7585(2)
H14G H 0.5832 0.2207 0.7137
C21G C 0.5906(5) 0.1869(2) 0.8114(2)
H15G H 0.5779 0.1384 0.8016
C22G C 0.6060(3) 0.20708(19) 0.87789(18)
C23G C 0.6219(3) 0.2790(2) 0.8908(2)
H16G H 0.6315 0.2946 0.9357
C24G C 0.6236(3) 0.3290(2) 0.8371(2)
H17G H 0.6338 0.3779 0.8466
C25G C 0.6074(2) 0.1504(2) 0.93318(18)
N2D N 1.3651(2) 0.25696(17) 0.54204(17)
N3D N 1.3904(2) 0.37047(16) 0.51168(16)
N4D N 1.3705(2) 0.42845(17) 0.63609(15)
C26D C 1.5212(5) 0.0710(3) 0.6795(3)
H18D H 1.5162 0.0351 0.7129
O1D O 1.25797(18) 0.49703(16) 0.51616(15)
O2D O 1.22492(18) 0.57710(14) 0.43393(13)
O3G O 0.6231(2) 0.33483(15) 0.65294(13)
O3C O 1.3769(2) 0.66517(15) 0.34706(13)
O4G O 0.6116(2) 0.42703(16) 0.72536(15)
O5G O 0.5943(2) 0.08578(13) 0.91544(13)
O5D O 1.4057(2) 0.58578(13) 0.58456(13)
O6G O 0.62226(18) 0.17200(13) 0.99392(12)
O6D O 1.37774(18) 0.67200(13) 0.50608(12)
O7D O 0.44634(17) 0.52192(12) 0.44246(11)
O7D_2 O 1.44634(17) 0.52192(12) 0.44246(11)
O7_2 O 1.55366(17) 0.47808(12) 0.55754(11)
H19D H 0.435(3) 0.4908(16) 0.4125(15)
H19D_2 H 1.435(3) 0.4908(16) 0.4125(15)
H19_2 H 1.565(3) 0.5092(16) 0.5875(15)
O8 O 0.6687(4) 0.5577(2) 0.6728(2)
H20 H 0.651(5) 0.518(2) 0.693(3)
H21 H 0.700(5) 0.583(3) 0.703(3)
loop_
_geom_bond_atom_site_label_1
_geom_bond_atom_site_label_2
_geom_bond_site_symmetry_1
_geom_bond_site_symmetry_2
Zn1 N3 1_555 1_555
Zn2 O2 1_555 1_555
C1 H1 1_555 1_555
C2 C1 1_555 1_555
H2 C2 1_555 1_555
C3 C4 1_555 1_555
C4 C5 1_555 1_555
C5 H3 1_555 1_555
C6 C5 1_555 1_555
H4 C6 1_555 1_555
C7 C6 1_555 1_555
H5 C7 1_555 1_555
C8 C7 1_555 1_555
H6 C8 1_555 1_555
C9 H7 1_555 1_555
H8 C9 1_555 1_555
C10 C9 1_555 1_555
C11 C10 1_555 1_555
H9 C11 1_555 1_555
C12 C11 1_555 1_555
H10 C12 1_555 1_555
N1 C12 1_555 1_555
C13 C10 1_555 1_555
H11 C13 1_555 1_555
C14 C15 1_555 1_555
C15 C16 1_555 1_555
C16 H12 1_555 1_555
C17 C15 1_555 1_555
H13 C17 1_555 1_555
C18 C19 1_555 1_555
C19 C20 1_555 1_555
C20 H14 1_555 1_555
C21 C20 1_555 1_555
H15 C21 1_555 1_555
C22 C21 1_555 1_555
C23 C22 1_555 1_555
H16 C23 1_555 1_555
C24 C19 1_555 1_555
H17 C24 1_555 1_555
C25 C22 1_555 1_555
N2 C2 1_555 1_555
N3 C1 1_555 1_555
N4 Zn1 1_555 1_555
C26 N1 1_555 1_555
H18 C26 1_555 1_555
O1 Zn1 1_555 1_555
O2 C14 1_555 1_555
O3 C18 1_555 1_555
O4 C18 1_555 1_555
O5 Zn1 1_555 1_555
O6 Zn2 1_555 1_555
O7 Zn1 1_555 1_555
H19 O7 1_555 1_555
O8 H20 1_555 1_555
H21 O8 1_555 1_555
Zn1D N3D 1_555 1_555
Zn1D_2 O7 1_555 1_555
Zn1G O5G 1_555 1_555
Zn1_2 O7D_2 1_555 1_555
Zn2D O2D 1_555 1_555
Zn2G O3 1_555 1_555
Zn2G_2 O6G 1_555 1_555
C1D H1D 1_555 1_555
C2D C1D 1_555 1_555
H2D C2D 1_555 1_555
C3D C4D 1_555 1_555
C4D C5D 1_555 1_555
C5D H3D 1_555 1_555
C6D C5D 1_555 1_555
H4D C6D 1_555 1_555
C7D C6D 1_555 1_555
H5D C7D 1_555 1_555
C8D C7D 1_555 1_555
H6D C8D 1_555 1_555
C9D H7D 1_555 1_555
H8D C9D 1_555 1_555
C10D C9D 1_555 1_555
C11D C10D 1_555 1_555
H9D C11D 1_555 1_555
C12D C11D 1_555 1_555
H10D C12D 1_555 1_555
N1D C12D 1_555 1_555
C13D C10D 1_555 1_555
H11D C13D 1_555 1_555
C14D C15D 1_555 1_555
C15D C16D 1_555 1_555
C16D C17 1_555 1_555
H12D C16D 1_555 1_555
C17D C16 1_555 1_555
H13D C17D 1_555 1_555
C18G C19G 1_555 1_555
C19G C20G 1_555 1_555
C20G H14G 1_555 1_555
C21G C20G 1_555 1_555
H15G C21G 1_555 1_555
C22G C21G 1_555 1_555
C23G C22G 1_555 1_555
H16G C23G 1_555 1_555
C24G C19G 1_555 1_555
H17G C24G 1_555 1_555
C25G C22G 1_555 1_555
N2D C2D 1_555 1_555
N3D C1D 1_555 1_555
N4D Zn1D 1_555 1_555
C26D N1D 1_555 1_555
H18D C26D 1_555 1_555
O1D Zn1D 1_555 1_555
O2D C14D 1_555 1_555
O3G Zn2 1_555 1_555
O3C Zn2D 1_555 1_555
O4G C18G 1_555 1_555
O5G C25G 1_555 1_555
O5D Zn1D 1_555 1_555
O6G C25G 1_555 1_555
O6D Zn2D 1_555 1_555
O7D Zn1 1_555 1_555
O7D_2 Zn1D 1_555 1_555
O7_2 Zn1D 1_555 1_555
H19D O7D 1_555 1_555
H19D_2 O7D_2 1_555 1_555
H19_2 O7_2 1_555 1_555
Zn2 O7 1_555 1_555
C3 N2 1_555 1_555
C3 N3 1_555 1_555
C4 N4 1_555 1_555
C8 N4 1_555 1_555
C9 N2 1_555 1_555
C13 C26 1_555 1_555
C14 O1 1_555 1_555
C23 C24 1_555 1_555
C25 O5 1_555 1_555
C25 O6 1_555 1_555
Zn1D_2 O7D 1_555 1_555
Zn1_2 O7_2 1_555 1_555
Zn2D O7D_2 1_555 1_555
C3D N2D 1_555 1_555
C3D N3D 1_555 1_555
C4D N4D 1_555 1_555
C8D N4D 1_555 1_555
C9D N2D 1_555 1_555
C13D C26D 1_555 1_555
C14D O1D 1_555 1_555
C15D C17D 1_555 1_555
C18G O3G 1_555 1_555
C23G C24G 1_555 1_555

#END
