
#######################################################################
#
#                 Cambridge Crystallographic Data Centre
#                                CCDC 
#
#######################################################################
#
# If this CIF has been generated from an entry in the Cambridge 
# Structural Database, then it will include bibliographic, chemical, 
# crystal, experimental, refinement or atomic coordinate data resulting 
# from the CCDC's data processing and validation procedures.
#
#######################################################################

data_MOYKUH
_symmetry_cell_setting           monoclinic
_symmetry_space_group_name_H-M   'P 21/c'
_symmetry_Int_Tables_number      14
_space_group_name_Hall           '-P 2ybc'
loop_
_symmetry_equiv_pos_site_id
_symmetry_equiv_pos_as_xyz
1 x,y,z
2 -x,1/2+y,1/2-z
3 -x,-y,-z
4 x,1/2-y,1/2+z
_cell_length_a                   9.1910(18)
_cell_length_b                   15.689(3)
_cell_length_c                   8.8628(18)
_cell_angle_alpha                90
_cell_angle_beta                 98.31(3)
_cell_angle_gamma                90
_cell_volume                     1264.58
loop_
_atom_site_label
_atom_site_type_symbol
_atom_site_fract_x
_atom_site_fract_y
_atom_site_fract_z
Nd1 Nd 0.394990(11) 0.114484(6) -0.028058(12)
C1 C 0.5902(2) 0.07178(14) 0.2597(2)
C2 C 0.6701(3) 0.04308(16) 0.4115(3)
H1 H 0.6935 0.0920 0.4773
H2 H 0.7615 0.0154 0.3973
C3 C 0.5733(3) -0.01907(17) 0.4855(3)
H3 H 0.5538 -0.0686 0.4202
H4 H 0.6269 -0.0383 0.5819
C4 C -0.2676(2) 0.06427(14) -0.1421(2)
C5 C -0.1385(2) 0.11000(13) -0.1933(3)
C6 C -0.1577(2) 0.18721(16) -0.2701(3)
H5 H -0.2501 0.2125 -0.2888
C7 C 0.2372(2) 0.22774(14) -0.3277(2)
C8 C 0.0035(2) 0.07761(14) -0.1607(3)
H6 H 0.0166 0.0256 -0.1104
C9 C 0.0995(2) 0.18932(14) -0.2802(3)
C10 C -0.0370(3) 0.22612(16) -0.3186(3)
H7 H -0.0480 0.2760 -0.3758
O1 O 0.35671(16) 0.19352(10) -0.27108(18)
O2 O 0.52138(19) 0.25552(10) 0.00553(19)
H8 H 0.4873 0.2883 -0.0675
H9 H 0.5063 0.2775 0.0896
O3 O -0.38235(17) 0.10753(10) -0.1455(2)
O4 O 0.5156(2) 0.13888(10) 0.24843(19)
O5 O 0.59303(17) 0.02508(10) 0.14394(18)
O6 O -0.25035(16) -0.01248(10) -0.10207(19)
O7 O 0.22307(17) 0.28846(11) -0.4196(2)
N1 N 0.12199(19) 0.11731(11) -0.1979(2)
Nd1_2 Nd 1.394990(11) 0.114484(6) -0.028058(12)
Nd1_3 Nd -0.605010(11) 0.114484(6) -0.028058(12)
Nd1B Nd 0.605010(11) -0.114484(6) 0.028058(12)
Nd1B_2 Nd -0.394990(11) -0.114484(6) 0.028058(12)
Nd1C Nd 0.394990(11) 0.385516(6) -0.528058(12)
Nd1B_3 Nd 0.605010(11) -0.114484(6) 1.028058(12)
Nd1_4 Nd 0.394990(11) 0.114484(6) 0.971942(12)
Nd1C_2 Nd 1.394990(11) 0.385516(6) -0.528058(12)
C1B C 0.4098(2) -0.07178(14) 0.7403(2)
C2B C 0.3299(3) -0.04308(16) 0.5885(3)
H1B H 0.3065 -0.0920 0.5227
H2B H 0.2385 -0.0154 0.6027
C3B C 0.4267(3) 0.01907(17) 0.5145(3)
H3B H 0.4462 0.0686 0.5798
H4B H 0.3731 0.0383 0.4181
C4_2 C 0.7324(2) 0.06427(14) -0.1421(2)
C5_2 C 0.8615(2) 0.11000(13) -0.1933(3)
C6_2 C 0.8423(2) 0.18721(16) -0.2701(3)
H5_2 H 0.7499 0.2125 -0.2888
C7_2 C 1.2372(2) 0.22774(14) -0.3277(2)
C8_2 C 1.0035(2) 0.07761(14) -0.1607(3)
H6_2 H 1.0166 0.0256 -0.1104
C9_2 C 1.0995(2) 0.18932(14) -0.2802(3)
C10_2 C 0.9630(3) 0.22612(16) -0.3186(3)
H7_2 H 0.9520 0.2760 -0.3758
O1_2 O 1.35671(16) 0.19352(10) -0.27108(18)
O2_2 O 1.52138(19) 0.25552(10) 0.00553(19)
H8_2 H 1.4873 0.2883 -0.0675
H9_2 H 1.5063 0.2775 0.0896
O3_2 O 0.61765(17) 0.10753(10) -0.1455(2)
O3_3 O 1.61765(17) 0.10753(10) -0.1455(2)
O4B O 0.4844(2) -0.13888(10) 0.75157(19)
O4_2 O 1.5156(2) 0.13888(10) 0.24843(19)
O5B O 0.40697(17) -0.02508(10) 0.85606(18)
O5B_2 O 0.40697(17) -0.02508(10) -0.14394(18)
O5_2 O 1.59303(17) 0.02508(10) 0.14394(18)
O5B_3 O 1.40697(17) -0.02508(10) -0.14394(18)
O6_2 O 0.74965(16) -0.01248(10) -0.10207(19)
O6B O 0.25035(16) 0.01248(10) 0.10207(19)
O6B_2 O 1.25035(16) 0.01248(10) 0.10207(19)
O7_2 O 1.22307(17) 0.28846(11) -0.4196(2)
O7C O 0.22307(17) 0.21154(11) 0.0804(2)
O7C_2 O 1.22307(17) 0.21154(11) 0.0804(2)
N1_2 N 1.12199(19) 0.11731(11) -0.1979(2)
loop_
_geom_bond_atom_site_label_1
_geom_bond_atom_site_label_2
_geom_bond_site_symmetry_1
_geom_bond_site_symmetry_2
Nd1 O1 1_555 1_555
C1 C2 1_555 1_555
C2 H1 1_555 1_555
H2 C2 1_555 1_555
C3 C2 1_555 1_555
H3 C3 1_555 1_555
H4 C3 1_555 1_555
C4 C5 1_555 1_555
C5 C6 1_555 1_555
C6 H5 1_555 1_555
C7 C9 1_555 1_555
C8 C5 1_555 1_555
H6 C8 1_555 1_555
C9 C10 1_555 1_555
C10 C6 1_555 1_555
H7 C10 1_555 1_555
O1 C7 1_555 1_555
O2 Nd1 1_555 1_555
H8 O2 1_555 1_555
H9 O2 1_555 1_555
O3 C4 1_555 1_555
O4 Nd1 1_555 1_555
O5 Nd1 1_555 1_555
O6 C4 1_555 1_555
O7 C7 1_555 1_555
N1 Nd1 1_555 1_555
Nd1_2 O1_2 1_555 1_555
Nd1_3 O3 1_555 1_555
Nd1B O5 1_555 1_555
Nd1B_2 O6 1_555 1_555
Nd1C O7 1_555 1_555
Nd1B_3 O4B 1_555 1_555
Nd1_4 O5B 1_555 1_555
Nd1C_2 O7_2 1_555 1_555
C1B C2B 1_555 1_555
C2B H1B 1_555 1_555
H2B C2B 1_555 1_555
C3B C3 1_555 1_555
H3B C3B 1_555 1_555
H4B C3B 1_555 1_555
C4_2 C5_2 1_555 1_555
C5_2 C6_2 1_555 1_555
C6_2 H5_2 1_555 1_555
C7_2 C9_2 1_555 1_555
C8_2 C5_2 1_555 1_555
H6_2 C8_2 1_555 1_555
C9_2 C10_2 1_555 1_555
C10_2 C6_2 1_555 1_555
H7_2 C10_2 1_555 1_555
O1_2 C7_2 1_555 1_555
O2_2 Nd1_2 1_555 1_555
H8_2 O2_2 1_555 1_555
H9_2 O2_2 1_555 1_555
O3_2 Nd1 1_555 1_555
O3_3 Nd1_2 1_555 1_555
O4B C1B 1_555 1_555
O4_2 Nd1_2 1_555 1_555
O5B Nd1B_3 1_555 1_555
O5B_2 Nd1 1_555 1_555
O5_2 Nd1_2 1_555 1_555
O5B_3 Nd1_2 1_555 1_555
O6_2 Nd1B 1_555 1_555
O6B Nd1 1_555 1_555
O6B_2 Nd1_2 1_555 1_555
O7_2 C7_2 1_555 1_555
O7C Nd1 1_555 1_555
O7C_2 Nd1_2 1_555 1_555
N1_2 Nd1_2 1_555 1_555
C1 O4 1_555 1_555
C1 O5 1_555 1_555
C8 N1 1_555 1_555
C9 N1 1_555 1_555
Nd1B O5B_2 1_555 1_555
C1B O5B 1_555 1_555
C2B C3B 1_555 1_555
C4_2 O3_2 1_555 1_555
C4_2 O6_2 1_555 1_555
C8_2 N1_2 1_555 1_555
C9_2 N1_2 1_555 1_555

#END
