
#######################################################################
#
#                 Cambridge Crystallographic Data Centre
#                                CCDC 
#
#######################################################################
#
# If this CIF has been generated from an entry in the Cambridge 
# Structural Database, then it will include bibliographic, chemical, 
# crystal, experimental, refinement or atomic coordinate data resulting 
# from the CCDC's data processing and validation procedures.
#
#######################################################################

data_MOYKEQ
_symmetry_cell_setting           orthorhombic
_symmetry_space_group_name_H-M   'P c c n'
_symmetry_Int_Tables_number      56
_space_group_name_Hall           '-P 2ab 2ac'
loop_
_symmetry_equiv_pos_site_id
_symmetry_equiv_pos_as_xyz
1 x,y,z
2 1/2+x,1/2+y,-z
3 x,1/2-y,1/2+z
4 1/2-x,y,1/2+z
5 -x,-y,-z
6 1/2-x,1/2-y,z
7 -x,1/2+y,1/2-z
8 1/2+x,-y,1/2-z
_cell_length_a                   6.718(3)
_cell_length_b                   23.167(11)
_cell_length_c                   24.238(12)
_cell_angle_alpha                90
_cell_angle_beta                 90
_cell_angle_gamma                90
_cell_volume                     3772.3
loop_
_atom_site_label
_atom_site_type_symbol
_atom_site_fract_x
_atom_site_fract_y
_atom_site_fract_z
Ag1 Ag -0.58228(18) 0.32446(4) 0.16601(4)
C1 C -0.324(2) 0.2249(6) 0.2257(5)
C2 C -0.437(2) 0.1914(5) 0.2009(5)
C3 C -0.2500 0.2500 0.3349(8)
C4 C -0.2500 0.2500 0.2779(7)
N1 N -0.4863(17) 0.2490(5) 0.1170(4)
C5 C -0.474(2) 0.1938(6) 0.1391(6)
C6 C -0.501(2) 0.1448(7) 0.1020(6)
H1 H -0.5166 0.1070 0.1166
C7 C -0.505(3) 0.1534(7) 0.0468(7)
H2 H -0.5047 0.1212 0.0225
C8 C -0.510(2) 0.2078(6) 0.0260(5)
H3 H -0.5194 0.2140 -0.0127
C9 C -0.499(2) 0.2554(7) 0.0630(5)
H4 H -0.5021 0.2933 0.0482
N2 N -0.7220(19) 0.1254(5) 0.2208(5)
C10 C -0.508(3) 0.1400(5) 0.2266(6)
C11 C -0.408(3) 0.1059(6) 0.2661(6)
H5 H -0.2731 0.1153 0.2738
C12 C -0.490(3) 0.0597(7) 0.2947(7)
H6 H -0.4124 0.0376 0.3197
C13 C -0.689(3) 0.0468(6) 0.2855(7)
H7 H -0.7499 0.0152 0.3039
C14 C -0.799(2) 0.0807(6) 0.2493(7)
H8 H -0.9355 0.0718 0.2443
N3 N -0.578(3) 0.2022(7) 0.3443(7)
C15 C -0.387(3) 0.2111(6) 0.3650(5)
C16 C -0.307(3) 0.1835(6) 0.4115(5)
H9 H -0.1731 0.1905 0.4218
C17 C -0.422(4) 0.1463(8) 0.4423(8)
H10 H -0.3713 0.1273 0.4740
C18 C -0.615(5) 0.1382(8) 0.4250(9)
H11 H -0.6966 0.1128 0.4457
C19 C -0.701(4) 0.1657(8) 0.3772(10)
H12 H -0.8365 0.1596 0.3678
N4 N -0.405(2) 0.4296(5) 0.1056(5)
O1 O -0.3672(16) 0.4167(4) 0.1559(4)
O2 O -0.518(2) 0.3972(5) 0.0781(5)
O3 O -0.3244(19) 0.4731(5) 0.0852(5)
C1E C -0.176(2) 0.2751(6) 0.2257(5)
C2E C -0.063(2) 0.3086(5) 0.2009(5)
C5E C -0.026(2) 0.3062(6) 0.1391(6)
N1E N -0.0137(17) 0.2510(5) 0.1170(4)
C9E C -0.001(2) 0.2446(7) 0.0630(5)
C8E C 0.010(2) 0.2922(6) 0.0260(5)
C7E C 0.005(3) 0.3466(7) 0.0468(7)
C6E C 0.001(2) 0.3552(7) 0.1020(6)
H1E H 0.0166 0.3930 0.1166
H2E H 0.0047 0.3788 0.0225
H3E H 0.0194 0.2860 -0.0127
H4E H 0.0021 0.2067 0.0482
C10E C 0.008(3) 0.3600(5) 0.2266(6)
N2E N 0.2220(19) 0.3746(5) 0.2208(5)
C14E C 0.299(2) 0.4193(6) 0.2493(7)
C13E C 0.189(3) 0.4532(6) 0.2855(7)
C12E C -0.010(3) 0.4403(7) 0.2947(7)
C11E C -0.092(3) 0.3941(6) 0.2661(6)
H5E H -0.2269 0.3847 0.2738
H6E H -0.0876 0.4624 0.3197
H7E H 0.2499 0.4848 0.3039
H8E H 0.4355 0.4282 0.2443
C15E C -0.113(3) 0.2889(6) 0.3650(5)
N3E N 0.078(3) 0.2978(7) 0.3443(7)
C19E C 0.201(4) 0.3343(8) 0.3772(10)
C18E C 0.115(5) 0.3618(8) 0.4250(9)
C17E C -0.078(4) 0.3537(8) 0.4423(8)
C16E C -0.193(3) 0.3165(6) 0.4115(5)
H9E H -0.3269 0.3095 0.4218
H10E H -0.1287 0.3727 0.4740
H11E H 0.1966 0.3872 0.4457
H12E H 0.3365 0.3404 0.3678
Ag1E Ag 0.08228(18) 0.17554(4) 0.16601(4)
N4E N -0.095(2) 0.0704(5) 0.1056(5)
O1E O -0.1328(16) 0.0833(4) 0.1559(4)
O2E O 0.018(2) 0.1028(5) 0.0781(5)
O3E O -0.1756(19) 0.0269(5) 0.0852(5)
N2E_2 N -0.7780(19) 0.3746(5) 0.2208(5)
Ag1E_2 Ag -0.91772(18) 0.17554(4) 0.16601(4)
Ag1_2 Ag 0.41772(18) 0.32446(4) 0.16601(4)
N2_2 N 0.2780(19) 0.1254(5) 0.2208(5)
O4 O 0.091(4) 0.5350(15) 0.1135(14)
H13 H 0.0225 0.5071 0.1341
H14 H 0.0982 0.5732 0.1374
O5 O -0.232(4) 0.5046(12) -0.0302(11)
H15 H -0.2474 0.5201 -0.0183
H16 H -0.0949 0.5003 -0.0463
loop_
_geom_bond_atom_site_label_1
_geom_bond_atom_site_label_2
_geom_bond_site_symmetry_1
_geom_bond_site_symmetry_2
Ag1 N1 1_555 1_555
C1 C2 1_555 1_555
C2 C5 1_555 1_555
C3 C4 1_555 1_555
C4 C1 1_555 1_555
N1 C5 1_555 1_555
C5 C6 1_555 1_555
C6 H1 1_555 1_555
C7 C6 1_555 1_555
H2 C7 1_555 1_555
C8 C7 1_555 1_555
H3 C8 1_555 1_555
C9 N1 1_555 1_555
H4 C9 1_555 1_555
N2 C10 1_555 1_555
C10 C2 1_555 1_555
C11 C10 1_555 1_555
H5 C11 1_555 1_555
C12 C11 1_555 1_555
H6 C12 1_555 1_555
C13 C12 1_555 1_555
H7 C13 1_555 1_555
C14 N2 1_555 1_555
H8 C14 1_555 1_555
N3 C15 1_555 1_555
C15 C3 1_555 1_555
C16 C15 1_555 1_555
H9 C16 1_555 1_555
C17 C16 1_555 1_555
H10 C17 1_555 1_555
C18 C17 1_555 1_555
H11 C18 1_555 1_555
C19 N3 1_555 1_555
H12 C19 1_555 1_555
N4 O1 1_555 1_555
O1 Ag1 1_555 1_555
O2 N4 1_555 1_555
O3 N4 1_555 1_555
O4 H13 1_555 1_555
H14 O4 1_555 1_555
O5 H15 1_555 1_555
H16 O5 1_555 1_555
C1E C1 1_555 1_555
C2E C1E 1_555 1_555
C5E C2E 1_555 1_555
N1E C5E 1_555 1_555
C9E N1E 1_555 1_555
C8E C9E 1_555 1_555
C7E C8E 1_555 1_555
C6E C5E 1_555 1_555
H1E C6E 1_555 1_555
H2E C7E 1_555 1_555
H3E C8E 1_555 1_555
H4E C9E 1_555 1_555
C10E C2E 1_555 1_555
N2E C10E 1_555 1_555
C14E N2E 1_555 1_555
C13E C14E 1_555 1_555
C12E C13E 1_555 1_555
C11E C10E 1_555 1_555
H5E C11E 1_555 1_555
H6E C12E 1_555 1_555
H7E C13E 1_555 1_555
H8E C14E 1_555 1_555
C15E C3 1_555 1_555
N3E C15E 1_555 1_555
C19E N3E 1_555 1_555
C18E C19E 1_555 1_555
C17E C18E 1_555 1_555
C16E C15E 1_555 1_555
H9E C16E 1_555 1_555
H10E C17E 1_555 1_555
H11E C18E 1_555 1_555
H12E C19E 1_555 1_555
Ag1E N1E 1_555 1_555
N4E O1E 1_555 1_555
O1E Ag1E 1_555 1_555
O2E N4E 1_555 1_555
O3E N4E 1_555 1_555
N2E_2 Ag1 1_555 1_555
Ag1E_2 N2 1_555 1_555
Ag1_2 N2E 1_555 1_555
N2_2 Ag1E 1_555 1_555
C4 C1E 1_555 1_555
C8 C9 1_555 1_555
C13 C14 1_555 1_555
C18 C19 1_555 1_555
C7E C6E 1_555 1_555
C12E C11E 1_555 1_555
C17E C16E 1_555 1_555

#END
