
#######################################################################
#
#                 Cambridge Crystallographic Data Centre
#                                CCDC 
#
#######################################################################
#
# If this CIF has been generated from an entry in the Cambridge 
# Structural Database, then it will include bibliographic, chemical, 
# crystal, experimental, refinement or atomic coordinate data resulting 
# from the CCDC's data processing and validation procedures.
#
#######################################################################

data_MOYKIU
_symmetry_cell_setting           triclinic
_symmetry_space_group_name_H-M   'P -1'
_symmetry_Int_Tables_number      2
_space_group_name_Hall           '-P 1'
loop_
_symmetry_equiv_pos_site_id
_symmetry_equiv_pos_as_xyz
1 x,y,z
2 -x,-y,-z
_cell_length_a                   11.627(4)
_cell_length_b                   11.825(4)
_cell_length_c                   15.340(5)
_cell_angle_alpha                104.996(4)
_cell_angle_beta                 101.579(4)
_cell_angle_gamma                100.202(5)
_cell_volume                     1936.45
loop_
_atom_site_label
_atom_site_type_symbol
_atom_site_fract_x
_atom_site_fract_y
_atom_site_fract_z
Ag1 Ag 0.75364(3) 1.26571(3) 0.62962(2)
Ag2 Ag 0.5000 1.0000 0.5000
Ag3 Ag 0.5000 1.0000 1.0000
C1 C 0.4781(3) 1.0819(3) 0.6965(2)
C2 C 0.3937(3) 0.9652(3) 0.6561(2)
C3 C 0.4915(3) 0.9880(3) 0.7384(2)
C4 C 0.5188(3) 1.1946(3) 0.6960(2)
C5 C 0.2917(3) 0.8995(3) 0.5901(2)
C6 C 0.5581(3) 0.9567(3) 0.8074(2)
N1 N 0.7124(3) 1.3380(3) 0.7625(2)
C7 C 0.6101(3) 1.2854(3) 0.7784(2)
C8 C 0.5872(4) 1.3150(3) 0.8660(3)
H1 H 0.5150 1.2744 0.8758
C9 C 0.6725(4) 1.4058(4) 0.9393(3)
H2 H 0.6591 1.4285 0.9999
C10 C 0.7758(4) 1.4615(3) 0.9226(3)
H3 H 0.8343 1.5244 0.9713
C11 C 0.7945(4) 1.4258(3) 0.8345(3)
H4 H 0.8672 1.4640 0.8239
N2 N 0.4509(3) 1.1675(3) 0.5286(2)
C12 C 0.4740(3) 1.2408(3) 0.6173(2)
C13 C 0.4601(4) 1.3582(4) 0.6346(3)
H5 H 0.4791 1.4095 0.6971
C14 C 0.4188(4) 1.4006(4) 0.5617(3)
H6 H 0.4083 1.4805 0.5732
C15 C 0.3929(4) 1.3240(4) 0.4706(3)
H7 H 0.3640 1.3505 0.4187
C16 C 0.4100(4) 1.2104(4) 0.4574(3)
H8 H 0.3923 1.1585 0.3952
N3 N 0.1877(3) 0.9073(3) 0.4370(2)
C17 C 0.2244(3) 0.9617(3) 0.5308(2)
C18 C 0.1983(3) 1.0694(3) 0.5734(3)
H9 H 0.2249 1.1047 0.6393
C19 C 0.1327(4) 1.1250(4) 0.5182(3)
H10 H 0.1143 1.1991 0.5458
C20 C 0.0950(4) 1.0709(4) 0.4230(3)
H11 H 0.0499 1.1068 0.3836
C21 C 0.1240(4) 0.9625(4) 0.3853(3)
H12 H 0.0973 0.9255 0.3196
N4 N 0.2369(3) 0.6868(3) 0.5029(2)
C22 C 0.2369(3) 0.7719(3) 0.5805(2)
C23 C 0.1860(4) 0.7441(4) 0.6490(3)
H13 H 0.1846 0.8060 0.7021
C24 C 0.1374(4) 0.6241(4) 0.6383(3)
H14 H 0.1010 0.6023 0.6837
C25 C 0.1427(4) 0.5372(4) 0.5609(3)
H15 H 0.1130 0.4542 0.5536
C26 C 0.1906(4) 0.5704(4) 0.4947(3)
H16 H 0.1914 0.5094 0.4408
N5 N 0.4325(5) 0.7575(4) 0.7686(4)
C27 C 0.5342(3) 0.8362(3) 0.8205(2)
C28 C 0.6133(5) 0.8093(4) 0.8865(4)
H17 H 0.6867 0.8666 0.9221
C29 C 0.5860(5) 0.6985(4) 0.9008(4)
H18 H 0.6398 0.6794 0.9471
C30 C 0.4822(4) 0.6171(4) 0.8487(3)
H19 H 0.4607 0.5406 0.8580
C31 C 0.4105(6) 0.6485(5) 0.7832(5)
H20 H 0.3393 0.5900 0.7445
N6 N 0.6554(3) 1.0858(3) 0.9656(2)
C32 C 0.6621(3) 1.0520(3) 0.8764(2)
C33 C 0.7602(4) 1.1038(4) 0.8503(3)
H21 H 0.7636 1.0793 0.7870
C34 C 0.8533(4) 1.1917(4) 0.9169(4)
H22 H 0.9215 1.2280 0.8998
C35 C 0.8465(4) 1.2265(4) 1.0089(4)
H23 H 0.9096 1.2869 1.0558
C36 C 0.7472(4) 1.1721(4) 1.0302(3)
H24 H 0.7421 1.1957 1.0931
C1A C 0.5219(3) 0.9181(3) 0.3035(2)
C2A C 0.6063(3) 1.0348(3) 0.3439(2)
C3A C 0.5085(3) 1.0120(3) 0.2616(2)
C4A C 0.4812(3) 0.8054(3) 0.3040(2)
C5A C 0.7083(3) 1.1005(3) 0.4099(2)
C6A C 0.4419(3) 1.0433(3) 0.1926(2)
N1A N 0.2876(3) 0.6620(3) 0.2375(2)
C7A C 0.3899(3) 0.7146(3) 0.2216(2)
C8A C 0.4128(4) 0.6850(3) 0.1340(3)
H1A H 0.4850 0.7256 0.1242
C9A C 0.3275(4) 0.5942(4) 0.0607(3)
H2A H 0.3409 0.5715 0.0001
C10A C 0.2242(4) 0.5385(3) 0.0774(3)
H3A H 0.1657 0.4756 0.0287
C11A C 0.2055(4) 0.5742(3) 0.1655(3)
H4A H 0.1328 0.5360 0.1761
N2A N 0.5491(3) 0.8325(3) 0.4714(2)
C12A C 0.5260(3) 0.7592(3) 0.3827(2)
C13A C 0.5399(4) 0.6418(4) 0.3654(3)
H5A H 0.5209 0.5905 0.3029
C14A C 0.5812(4) 0.5994(4) 0.4383(3)
H6A H 0.5917 0.5195 0.4268
C15A C 0.6071(4) 0.6760(4) 0.5294(3)
H7A H 0.6360 0.6495 0.5813
C16A C 0.5900(4) 0.7896(4) 0.5426(3)
H8A H 0.6077 0.8415 0.6048
N3A N 0.8123(3) 1.0927(3) 0.5630(2)
C17A C 0.7756(3) 1.0383(3) 0.4692(2)
C18A C 0.8017(3) 0.9306(3) 0.4266(3)
H9A H 0.7751 0.8953 0.3607
C19A C 0.8673(4) 0.8750(4) 0.4818(3)
H10A H 0.8857 0.8009 0.4542
C20A C 0.9050(4) 0.9291(4) 0.5770(3)
H11A H 0.9501 0.8932 0.6164
C21A C 0.8760(4) 1.0375(4) 0.6147(3)
H12A H 0.9027 1.0745 0.6804
N4A N 0.7631(3) 1.3132(3) 0.4971(2)
C22A C 0.7631(3) 1.2281(3) 0.4195(2)
C23A C 0.8140(4) 1.2559(4) 0.3510(3)
H13A H 0.8154 1.1940 0.2979
C24A C 0.8626(4) 1.3759(4) 0.3617(3)
H14A H 0.8990 1.3977 0.3163
C25A C 0.8573(4) 1.4628(4) 0.4391(3)
H15A H 0.8870 1.5458 0.4464
C26A C 0.8094(4) 1.4296(4) 0.5053(3)
H16A H 0.8086 1.4906 0.5592
N5A N 0.5675(5) 1.2425(4) 0.2314(4)
C27A C 0.4658(3) 1.1638(3) 0.1795(2)
C28A C 0.3867(5) 1.1907(4) 0.1135(4)
H17A H 0.3133 1.1334 0.0779
C29A C 0.4140(5) 1.3015(4) 0.0992(4)
H18A H 0.3602 1.3206 0.0529
C30A C 0.5178(4) 1.3829(4) 0.1513(3)
H19A H 0.5393 1.4594 0.1420
C31A C 0.5895(6) 1.3515(5) 0.2168(5)
H20A H 0.6607 1.4100 0.2555
N6A N 0.3446(3) 0.9142(3) 0.0344(2)
C32A C 0.3379(3) 0.9480(3) 0.1236(2)
C33A C 0.2398(4) 0.8962(4) 0.1497(3)
H21A H 0.2364 0.9207 0.2130
C34A C 0.1467(4) 0.8083(4) 0.0831(4)
H22A H 0.0785 0.7720 0.1002
C35A C 0.1535(4) 0.7735(4) -0.0089(4)
H23A H 0.0904 0.7131 -0.0558
C36A C 0.2528(4) 0.8279(4) -0.0302(3)
H24A H 0.2579 0.8043 -0.0931
Ag1A Ag 0.24636(3) 0.73429(3) 0.37038(2)
N6A_2 N 0.3446(3) 0.9142(3) 1.0344(2)
Ag3_2 Ag 0.5000 1.0000 0.0000
P1 P 0.85636(10) 0.63745(10) 0.21237(8)
F1 F 0.8301(3) 0.4947(2) 0.1723(2)
F2 F 0.8811(3) 0.7802(2) 0.2517(2)
F3 F 0.9362(5) 0.6456(4) 0.1417(4)
F4 F 0.7413(5) 0.6343(4) 0.1346(3)
F5 F 0.7765(6) 0.6251(4) 0.2828(4)
F6 F 0.9719(5) 0.6374(5) 0.2887(4)
P2 P 1.12359(11) 0.26577(11) 0.23911(8)
F11 F 1.1243(3) 0.2997(2) 0.34697(18)
F12 F 1.2497(3) 0.3601(3) 0.2658(2)
F13 F 1.1926(4) 0.1638(3) 0.2523(2)
F14 F 0.9962(3) 0.1738(3) 0.2149(2)
F15 F 1.1209(3) 0.2323(5) 0.1320(2)
F16 F 1.0543(3) 0.3691(4) 0.2280(3)
N7 N 0.6878(6) 0.9419(7) 0.1414(4)
C37 C 0.7721(5) 0.9296(5) 0.1201(4)
C38 C 0.8793(6) 0.9122(6) 0.0889(5)
H25 H 0.8643 0.8290 0.0488
H26 H 0.9474 0.9279 0.1432
H27 H 0.8984 0.9680 0.0536
F7? F 0.996(2) 0.678(2) 0.218(5)
F8? F 0.853(6) 0.668(2) 0.1136(17)
F9? F 0.720(3) 0.638(4) 0.203(8)
F10? F 0.883(10) 0.637(4) 0.307(3)
loop_
_geom_bond_atom_site_label_1
_geom_bond_atom_site_label_2
_geom_bond_site_symmetry_1
_geom_bond_site_symmetry_2
Ag1 N1 1_555 1_555
Ag2 N2 1_555 1_555
Ag3 N6 1_555 1_555
C1 C2 1_555 1_555
C2 C3 1_555 1_555
C3 C1 1_555 1_555
C4 C1 1_555 1_555
C5 C2 1_555 1_555
C6 C3 1_555 1_555
N1 C7 1_555 1_555
C7 C4 1_555 1_555
C8 C7 1_555 1_555
H1 C8 1_555 1_555
C9 C8 1_555 1_555
H2 C9 1_555 1_555
C10 C9 1_555 1_555
H3 C10 1_555 1_555
C11 N1 1_555 1_555
H4 C11 1_555 1_555
N2 C12 1_555 1_555
C12 C4 1_555 1_555
C13 C12 1_555 1_555
H5 C13 1_555 1_555
C14 C13 1_555 1_555
H6 C14 1_555 1_555
C15 C14 1_555 1_555
H7 C15 1_555 1_555
C16 N2 1_555 1_555
H8 C16 1_555 1_555
N3 C17 1_555 1_555
C17 C5 1_555 1_555
C18 C17 1_555 1_555
H9 C18 1_555 1_555
C19 C18 1_555 1_555
H10 C19 1_555 1_555
C20 C19 1_555 1_555
H11 C20 1_555 1_555
C21 N3 1_555 1_555
H12 C21 1_555 1_555
N4 C22 1_555 1_555
C22 C5 1_555 1_555
C23 C22 1_555 1_555
H13 C23 1_555 1_555
C24 C23 1_555 1_555
H14 C24 1_555 1_555
C25 C24 1_555 1_555
H15 C25 1_555 1_555
C26 N4 1_555 1_555
H16 C26 1_555 1_555
N5 C27 1_555 1_555
C27 C6 1_555 1_555
C28 C27 1_555 1_555
H17 C28 1_555 1_555
C29 C28 1_555 1_555
H18 C29 1_555 1_555
C30 C29 1_555 1_555
H19 C30 1_555 1_555
C31 N5 1_555 1_555
H20 C31 1_555 1_555
N6 C32 1_555 1_555
C32 C6 1_555 1_555
C33 C32 1_555 1_555
H21 C33 1_555 1_555
C34 C33 1_555 1_555
H22 C34 1_555 1_555
C35 C34 1_555 1_555
H23 C35 1_555 1_555
C36 N6 1_555 1_555
H24 C36 1_555 1_555
P1 F1 1_555 1_555
F2 P1 1_555 1_555
F3 P1 1_555 1_555
F4 P1 1_555 1_555
F5 P1 1_555 1_555
F6 P1 1_555 1_555
P2 F11 1_555 1_555
F12 P2 1_555 1_555
F13 P2 1_555 1_555
F14 P2 1_555 1_555
F15 P2 1_555 1_555
F16 P2 1_555 1_555
N7 C37 1_555 1_555
C37 C38 1_555 1_555
C38 H25 1_555 1_555
H26 C38 1_555 1_555
H27 C38 1_555 1_555
C1A C2A 1_555 1_555
C2A C3A 1_555 1_555
C3A C1A 1_555 1_555
C4A C1A 1_555 1_555
C5A C2A 1_555 1_555
C6A C3A 1_555 1_555
N1A C7A 1_555 1_555
C7A C4A 1_555 1_555
C8A C7A 1_555 1_555
H1A C8A 1_555 1_555
C9A C8A 1_555 1_555
H2A C9A 1_555 1_555
C10A C9A 1_555 1_555
H3A C10A 1_555 1_555
C11A N1A 1_555 1_555
H4A C11A 1_555 1_555
N2A Ag2 1_555 1_555
C12A C4A 1_555 1_555
C13A C12A 1_555 1_555
H5A C13A 1_555 1_555
C14A C13A 1_555 1_555
H6A C14A 1_555 1_555
C15A C14A 1_555 1_555
H7A C15A 1_555 1_555
C16A N2A 1_555 1_555
H8A C16A 1_555 1_555
N3A Ag1 1_555 1_555
C17A C5A 1_555 1_555
C18A C17A 1_555 1_555
H9A C18A 1_555 1_555
C19A C18A 1_555 1_555
H10A C19A 1_555 1_555
C20A C19A 1_555 1_555
H11A C20A 1_555 1_555
C21A N3A 1_555 1_555
H12A C21A 1_555 1_555
N4A Ag1 1_555 1_555
C22A C5A 1_555 1_555
C23A C22A 1_555 1_555
H13A C23A 1_555 1_555
C24A C23A 1_555 1_555
H14A C24A 1_555 1_555
C25A C24A 1_555 1_555
H15A C25A 1_555 1_555
C26A N4A 1_555 1_555
H16A C26A 1_555 1_555
N5A C27A 1_555 1_555
C27A C6A 1_555 1_555
C28A C27A 1_555 1_555
H17A C28A 1_555 1_555
C29A C28A 1_555 1_555
H18A C29A 1_555 1_555
C30A C29A 1_555 1_555
H19A C30A 1_555 1_555
C31A N5A 1_555 1_555
H20A C31A 1_555 1_555
N6A C32A 1_555 1_555
C32A C6A 1_555 1_555
C33A C32A 1_555 1_555
H21A C33A 1_555 1_555
C34A C33A 1_555 1_555
H22A C34A 1_555 1_555
C35A C34A 1_555 1_555
H23A C35A 1_555 1_555
C36A N6A 1_555 1_555
H24A C36A 1_555 1_555
Ag1A N3 1_555 1_555
N6A_2 Ag3 1_555 1_555
Ag3_2 N6A 1_555 1_555
C10 C11 1_555 1_555
C15 C16 1_555 1_555
C20 C21 1_555 1_555
N4 Ag1A 1_555 1_555
C25 C26 1_555 1_555
C30 C31 1_555 1_555
C35 C36 1_555 1_555
N1A Ag1A 1_555 1_555
C10A C11A 1_555 1_555
N2A C12A 1_555 1_555
C15A C16A 1_555 1_555
N3A C17A 1_555 1_555
C20A C21A 1_555 1_555
N4A C22A 1_555 1_555
C25A C26A 1_555 1_555
C30A C31A 1_555 1_555
C35A C36A 1_555 1_555

#END
