
#######################################################################
#
#                 Cambridge Crystallographic Data Centre
#                                CCDC 
#
#######################################################################
#
# If this CIF has been generated from an entry in the Cambridge 
# Structural Database, then it will include bibliographic, chemical, 
# crystal, experimental, refinement or atomic coordinate data resulting 
# from the CCDC's data processing and validation procedures.
#
#######################################################################

data_MOYLAO
_symmetry_cell_setting           monoclinic
_symmetry_space_group_name_H-M   'P 21/c'
_symmetry_Int_Tables_number      14
_space_group_name_Hall           '-P 2ybc'
loop_
_symmetry_equiv_pos_site_id
_symmetry_equiv_pos_as_xyz
1 x,y,z
2 -x,1/2+y,1/2-z
3 -x,-y,-z
4 x,1/2-y,1/2+z
_cell_length_a                   9.1667(18)
_cell_length_b                   15.567(3)
_cell_length_c                   8.8560(18)
_cell_angle_alpha                90
_cell_angle_beta                 98.59(3)
_cell_angle_gamma                90
_cell_volume                     1249.56
loop_
_atom_site_label
_atom_site_type_symbol
_atom_site_fract_x
_atom_site_fract_y
_atom_site_fract_z
Sm1 Sm 0.89540(2) 0.114537(11) -0.02764(2)
C1 C 1.0901(5) 0.0713(2) 0.2586(4)
C2 C 1.1711(5) 0.0426(3) 0.4113(5)
H1 H 1.1952 0.0921 0.4769
H2 H 1.2624 0.0143 0.3975
C3 C 1.0730(6) -0.0198(3) 0.4860(5)
H3 H 1.0525 -0.0697 0.4207
H4 H 1.1267 -0.0391 0.5827
C4 C 0.2319(4) 0.0641(2) -0.1408(4)
C5 C 0.3615(4) 0.1100(2) -0.1915(4)
C6 C 0.3421(5) 0.1883(3) -0.2682(5)
H5 H 0.2496 0.2141 -0.2866
C7 C 0.7380(4) 0.2283(2) -0.3265(5)
C8 C 0.5028(4) 0.0769(3) -0.1609(4)
H6 H 0.5157 0.0240 -0.1120
C9 C 0.5996(4) 0.1899(2) -0.2793(4)
C10 C 0.4633(5) 0.2274(3) -0.3167(5)
H7 H 0.4523 0.2779 -0.3734
O1 O 0.8582(3) 0.19341(18) -0.2690(3)
O2 O 1.0212(3) 0.25493(18) 0.0069(3)
H8 H 0.9869 0.2881 -0.0661
H9 H 1.0063 0.2769 0.0911
O3 O 0.1172(3) 0.10833(18) -0.1431(4)
O4 O 1.0156(4) 0.13898(18) 0.2475(3)
O5 O 1.0935(3) 0.02405(17) 0.1431(3)
O6 O 0.2482(3) -0.01357(17) -0.1013(3)
O7 O 0.7243(3) 0.28922(19) -0.4194(4)
N1 N 0.6222(4) 0.1168(2) -0.1975(4)
Sm1_2 Sm 1.89540(2) 0.114537(11) -0.02764(2)
Sm1_3 Sm -0.10460(2) 0.114537(11) -0.02764(2)
Sm1B Sm 1.10460(2) -0.114537(11) 0.02764(2)
Sm1B_2 Sm 0.10460(2) -0.114537(11) 0.02764(2)
Sm1C Sm 0.89540(2) 0.385463(11) -0.52764(2)
Sm1B_3 Sm 1.10460(2) -0.114537(11) 1.02764(2)
Sm1_4 Sm 0.89540(2) 0.114537(11) 0.97236(2)
Sm1C_2 Sm 1.89540(2) 0.385463(11) -0.52764(2)
C1B C 0.9099(5) -0.0713(2) 0.7414(4)
C2B C 0.8289(5) -0.0426(3) 0.5887(5)
H1B H 0.8048 -0.0921 0.5231
H2B H 0.7376 -0.0143 0.6025
C3B C 0.9270(6) 0.0198(3) 0.5140(5)
H3B H 0.9475 0.0697 0.5793
H4B H 0.8733 0.0391 0.4173
C4_2 C 1.2319(4) 0.0641(2) -0.1408(4)
C5_2 C 1.3615(4) 0.1100(2) -0.1915(4)
C6_2 C 1.3421(5) 0.1883(3) -0.2682(5)
H5_2 H 1.2496 0.2141 -0.2866
C7_2 C 1.7380(4) 0.2283(2) -0.3265(5)
C8_2 C 1.5028(4) 0.0769(3) -0.1609(4)
H6_2 H 1.5157 0.0240 -0.1120
C9_2 C 1.5996(4) 0.1899(2) -0.2793(4)
C10_2 C 1.4633(5) 0.2274(3) -0.3167(5)
H7_2 H 1.4523 0.2779 -0.3734
O1_2 O 1.8582(3) 0.19341(18) -0.2690(3)
O2_2 O 2.0212(3) 0.25493(18) 0.0069(3)
H8_2 H 1.9869 0.2881 -0.0661
H9_2 H 2.0063 0.2769 0.0911
O3_2 O 1.1172(3) 0.10833(18) -0.1431(4)
O3_3 O 2.1172(3) 0.10833(18) -0.1431(4)
O4B O 0.9844(4) -0.13898(18) 0.7525(3)
O4_2 O 2.0156(4) 0.13898(18) 0.2475(3)
O5B O 0.9065(3) -0.02405(17) 0.8569(3)
O5B_2 O 0.9065(3) -0.02405(17) -0.1431(3)
O5_2 O 2.0935(3) 0.02405(17) 0.1431(3)
O5B_3 O 1.9065(3) -0.02405(17) -0.1431(3)
O6_2 O 1.2482(3) -0.01357(17) -0.1013(3)
O6B O 0.7518(3) 0.01357(17) 0.1013(3)
O6B_2 O 1.7518(3) 0.01357(17) 0.1013(3)
O7_2 O 1.7243(3) 0.28922(19) -0.4194(4)
O7C O 0.7243(3) 0.21078(19) 0.0806(4)
O7C_2 O 1.7243(3) 0.21078(19) 0.0806(4)
N1_2 N 1.6222(4) 0.1168(2) -0.1975(4)
loop_
_geom_bond_atom_site_label_1
_geom_bond_atom_site_label_2
_geom_bond_site_symmetry_1
_geom_bond_site_symmetry_2
Sm1 O1 1_555 1_555
C1 C2 1_555 1_555
C2 H1 1_555 1_555
H2 C2 1_555 1_555
C3 C2 1_555 1_555
H3 C3 1_555 1_555
H4 C3 1_555 1_555
C4 C5 1_555 1_555
C5 C6 1_555 1_555
C6 H5 1_555 1_555
C7 C9 1_555 1_555
C8 C5 1_555 1_555
H6 C8 1_555 1_555
C9 C10 1_555 1_555
C10 C6 1_555 1_555
H7 C10 1_555 1_555
O1 C7 1_555 1_555
O2 Sm1 1_555 1_555
H8 O2 1_555 1_555
H9 O2 1_555 1_555
O3 C4 1_555 1_555
O4 Sm1 1_555 1_555
O5 Sm1 1_555 1_555
O6 C4 1_555 1_555
O7 C7 1_555 1_555
N1 Sm1 1_555 1_555
Sm1_2 O1_2 1_555 1_555
Sm1_3 O3 1_555 1_555
Sm1B O5 1_555 1_555
Sm1B_2 O6 1_555 1_555
Sm1C O7 1_555 1_555
Sm1B_3 O4B 1_555 1_555
Sm1_4 O5B 1_555 1_555
Sm1C_2 O7_2 1_555 1_555
C1B C2B 1_555 1_555
C2B H1B 1_555 1_555
H2B C2B 1_555 1_555
C3B C3 1_555 1_555
H3B C3B 1_555 1_555
H4B C3B 1_555 1_555
C4_2 C5_2 1_555 1_555
C5_2 C6_2 1_555 1_555
C6_2 H5_2 1_555 1_555
C7_2 C9_2 1_555 1_555
C8_2 C5_2 1_555 1_555
H6_2 C8_2 1_555 1_555
C9_2 C10_2 1_555 1_555
C10_2 C6_2 1_555 1_555
H7_2 C10_2 1_555 1_555
O1_2 C7_2 1_555 1_555
O2_2 Sm1_2 1_555 1_555
H8_2 O2_2 1_555 1_555
H9_2 O2_2 1_555 1_555
O3_2 Sm1 1_555 1_555
O3_3 Sm1_2 1_555 1_555
O4B C1B 1_555 1_555
O4_2 Sm1_2 1_555 1_555
O5B Sm1B_3 1_555 1_555
O5B_2 Sm1 1_555 1_555
O5_2 Sm1_2 1_555 1_555
O5B_3 Sm1_2 1_555 1_555
O6_2 Sm1B 1_555 1_555
O6B Sm1 1_555 1_555
O6B_2 Sm1_2 1_555 1_555
O7_2 C7_2 1_555 1_555
O7C Sm1 1_555 1_555
O7C_2 Sm1_2 1_555 1_555
N1_2 Sm1_2 1_555 1_555
C1 O4 1_555 1_555
C1 O5 1_555 1_555
C8 N1 1_555 1_555
C9 N1 1_555 1_555
Sm1B O5B_2 1_555 1_555
C1B O5B 1_555 1_555
C2B C3B 1_555 1_555
C4_2 O3_2 1_555 1_555
C4_2 O6_2 1_555 1_555
C8_2 N1_2 1_555 1_555
C9_2 N1_2 1_555 1_555

#END
