
#######################################################################
#
#                 Cambridge Crystallographic Data Centre
#                                CCDC 
#
#######################################################################
#
# If this CIF has been generated from an entry in the Cambridge 
# Structural Database, then it will include bibliographic, chemical, 
# crystal, experimental, refinement or atomic coordinate data resulting 
# from the CCDC's data processing and validation procedures.
#
#######################################################################

data_MOYMOD
_symmetry_cell_setting           monoclinic
_symmetry_space_group_name_H-M   'P 21/n'
_symmetry_Int_Tables_number      14
_space_group_name_Hall           '-P 2yn'
loop_
_symmetry_equiv_pos_site_id
_symmetry_equiv_pos_as_xyz
1 x,y,z
2 1/2-x,1/2+y,1/2-z
3 -x,-y,-z
4 1/2+x,1/2-y,1/2+z
_cell_length_a                   7.387(3)
_cell_length_b                   17.862(7)
_cell_length_c                   18.070(7)
_cell_angle_alpha                90
_cell_angle_beta                 99.063(5)
_cell_angle_gamma                90
_cell_volume                     2354.51
loop_
_atom_site_label
_atom_site_type_symbol
_atom_site_fract_x
_atom_site_fract_y
_atom_site_fract_z
Co1 Co 0.82591(7) 0.27583(3) 0.14833(3)
O1 O 0.9971(4) 0.28202(15) 0.24309(15)
O2 O 1.1568(4) 0.35839(18) 0.18237(15)
O3 O 1.1523(4) 0.25569(18) 0.52131(16)
O4 O 1.4390(4) 0.27739(17) 0.57047(16)
N1 N 0.7102(4) 0.37961(17) 0.12546(17)
N2 N -0.1310(5) 0.71438(18) 0.30533(18)
C1 C 1.1309(5) 0.3275(2) 0.2406(2)
C2 C 1.2556(5) 0.3409(2) 0.3129(2)
C3 C 1.2213(5) 0.3079(2) 0.3792(2)
H3 H 1.1171 0.2787 0.3790
C4 C 1.3409(5) 0.3184(2) 0.4450(2)
C5 C 1.4975(5) 0.3625(2) 0.4456(2)
H4 H 1.5797 0.3679 0.4899
C6 C 1.5327(5) 0.3987(2) 0.3806(2)
C7 C 1.4098(5) 0.3866(2) 0.3150(2)
H5 H 1.4311 0.4097 0.2711
C8 C 1.3054(6) 0.2814(2) 0.5163(2)
C9 C 1.7003(6) 0.4500(2) 0.3837(2)
C10 C 1.6557(10) 0.5255(3) 0.4082(5)
H6 H 1.6223 0.5227 0.4573
H7 H 1.5551 0.5455 0.3737
H8 H 1.7606 0.5574 0.4094
C11 C 1.8605(8) 0.4202(4) 0.4378(5)
H9 H 1.9702 0.4460 0.4304
H10 H 1.8743 0.3676 0.4293
H11 H 1.8390 0.4281 0.4883
C12 C 1.7673(9) 0.4539(5) 0.3094(3)
H12 H 1.6809 0.4813 0.2744
H13 H 1.7797 0.4041 0.2908
H14 H 1.8841 0.4786 0.3156
C13 C 0.8008(6) 0.4417(2) 0.1111(3)
H15 H 0.9260 0.4382 0.1102
C14 C 0.7178(6) 0.5105(2) 0.0978(2)
H16 H 0.7871 0.5518 0.0881
C15 C 0.5322(5) 0.5186(2) 0.0988(2)
C16 C 0.4378(5) 0.4544(2) 0.1115(2)
H17 H 0.3119 0.4565 0.1112
C17 C 0.5288(5) 0.3869(2) 0.1246(2)
H18 H 0.4615 0.3447 0.1332
C18 C 0.4407(6) 0.5937(2) 0.0835(2)
H19 H 0.4166 0.6010 0.0296
H20 H 0.5269 0.6321 0.1041
C19 C 0.2617(6) 0.6063(2) 0.1140(2)
H21 H 0.2067 0.6528 0.0939
H22 H 0.1772 0.5660 0.0970
C20 C 0.2893(6) 0.6095(3) 0.1992(2)
H23 H 0.3099 0.5590 0.2182
H24 H 0.4000 0.6380 0.2161
C21 C 0.1349(6) 0.6435(2) 0.2339(2)
C22 C -0.0205(6) 0.6749(2) 0.1934(2)
H25 H -0.0395 0.6729 0.1413
C23 C -0.1483(6) 0.7094(2) 0.2307(2)
H26 H -0.2518 0.7304 0.2022
C24 C 0.0182(6) 0.6828(3) 0.3442(2)
H27 H 0.0323 0.6840 0.3963
C25 C 0.1522(7) 0.6487(3) 0.3113(3)
H28 H 0.2552 0.6289 0.3411
Co1A Co -0.32591(7) 0.77583(3) 0.35167(3)
Co1C Co 1.32591(7) 0.22417(3) 0.64833(3)
O4C O 0.9390(4) 0.22261(17) 0.07047(16)
N2A N 0.6310(5) 0.21438(18) 0.19467(18)
O5 O 0.7311(9) 0.1962(4) 0.4895(3)
H1 H 0.6519 0.2178 0.5115
H2 H 0.8415 0.2112 0.4982
loop_
_geom_bond_atom_site_label_1
_geom_bond_atom_site_label_2
_geom_bond_site_symmetry_1
_geom_bond_site_symmetry_2
Co1 O1 1_555 1_555
O1 C1 1_555 1_555
O2 C1 1_555 1_555
O3 C8 1_555 1_555
O4 C8 1_555 1_555
O5 H1 1_555 1_555
H2 O5 1_555 1_555
N1 Co1 1_555 1_555
N2 C23 1_555 1_555
C1 C2 1_555 1_555
C2 C3 1_555 1_555
C3 H3 1_555 1_555
C4 C3 1_555 1_555
C5 C4 1_555 1_555
H4 C5 1_555 1_555
C6 C5 1_555 1_555
C7 C2 1_555 1_555
H5 C7 1_555 1_555
C8 C4 1_555 1_555
C9 C6 1_555 1_555
C10 C9 1_555 1_555
H6 C10 1_555 1_555
H7 C10 1_555 1_555
H8 C10 1_555 1_555
C11 C9 1_555 1_555
H9 C11 1_555 1_555
H10 C11 1_555 1_555
H11 C11 1_555 1_555
C12 C9 1_555 1_555
H12 C12 1_555 1_555
H13 C12 1_555 1_555
H14 C12 1_555 1_555
C13 N1 1_555 1_555
H15 C13 1_555 1_555
C14 C13 1_555 1_555
H16 C14 1_555 1_555
C15 C14 1_555 1_555
C16 C15 1_555 1_555
H17 C16 1_555 1_555
C17 N1 1_555 1_555
H18 C17 1_555 1_555
C18 C15 1_555 1_555
H19 C18 1_555 1_555
H20 C18 1_555 1_555
C19 C18 1_555 1_555
H21 C19 1_555 1_555
H22 C19 1_555 1_555
C20 C19 1_555 1_555
H23 C20 1_555 1_555
H24 C20 1_555 1_555
C21 C20 1_555 1_555
C22 C21 1_555 1_555
H25 C22 1_555 1_555
C23 C22 1_555 1_555
H26 C23 1_555 1_555
C24 N2 1_555 1_555
H27 C24 1_555 1_555
C25 C21 1_555 1_555
H28 C25 1_555 1_555
Co1A N2 1_555 1_555
Co1C O4 1_555 1_555
O4C Co1 1_555 1_555
N2A Co1 1_555 1_555
C6 C7 1_555 1_555
C16 C17 1_555 1_555
C24 C25 1_555 1_555

#END
