
#######################################################################
#
#                 Cambridge Crystallographic Data Centre
#                                CCDC 
#
#######################################################################
#
# If this CIF has been generated from an entry in the Cambridge 
# Structural Database, then it will include bibliographic, chemical, 
# crystal, experimental, refinement or atomic coordinate data resulting 
# from the CCDC's data processing and validation procedures.
#
#######################################################################

data_MOYNUK
_symmetry_cell_setting           triclinic
_symmetry_space_group_name_H-M   'P -1'
_symmetry_Int_Tables_number      2
_space_group_name_Hall           '-P 1'
loop_
_symmetry_equiv_pos_site_id
_symmetry_equiv_pos_as_xyz
1 x,y,z
2 -x,-y,-z
_cell_length_a                   13.8420(19)
_cell_length_b                   13.928(2)
_cell_length_c                   22.838(3)
_cell_angle_alpha                87.372(3)
_cell_angle_beta                 87.465(3)
_cell_angle_gamma                72.708(3)
_cell_volume                     4197.38
loop_
_atom_site_label
_atom_site_type_symbol
_atom_site_fract_x
_atom_site_fract_y
_atom_site_fract_z
C1 C 0.7002(10) 1.1591(10) 0.2996(6)
H1 H 0.7217 1.0946 0.3166
C2 C 0.7635(10) 1.2208(9) 0.2997(6)
C3 C 0.7323(11) 1.3140(9) 0.2736(6)
H2 H 0.7743 1.3552 0.2726
C4 C 0.6381(10) 1.3485(11) 0.2483(7)
H3 H 0.6186 1.4123 0.2304
C5 C 0.4093(11) 1.3885(11) 0.2003(7)
H4 H 0.4310 1.4445 0.1906
C6 C 0.3134(10) 1.3877(11) 0.1849(7)
H5 H 0.2702 1.4430 0.1654
C7 C 0.2830(9) 1.3003(10) 0.1995(6)
C8 C 0.3483(11) 1.2188(10) 0.2284(7)
H6 H 0.3284 1.1615 0.2373
C9 C 0.5253(10) 1.1377(9) 0.2716(6)
C10 C 0.6083(10) 1.1915(9) 0.2754(6)
C11 C 0.5708(11) 1.2886(9) 0.2491(7)
C12 C 0.4708(10) 1.3085(10) 0.2291(7)
C13 C 0.4425(10) 1.2214(10) 0.2441(6)
C14 C 0.8643(10) 1.1846(10) 0.3269(6)
C15 C 0.1784(12) 1.3033(12) 0.1820(6)
C16 C 0.5617(11) 1.0444(10) 0.2331(8)
H7 H 0.6230 0.9996 0.2493
H8 H 0.5107 1.0092 0.2359
C17 C 0.5823(11) 1.0641(11) 0.1701(8)
H9 H 0.6292 1.1040 0.1666
H10 H 0.5198 1.1029 0.1522
C18 C 0.6266(14) 0.9678(15) 0.1375(11)
H11 H 0.6394 0.9838 0.0971
H12 H 0.5796 0.9290 0.1399
H13 H 0.6889 0.9296 0.1548
C19 C 0.4928(11) 1.1071(12) 0.3316(7)
H14 H 0.4335 1.0848 0.3272
H15 H 0.5462 1.0493 0.3456
C20 C 0.4684(12) 1.1828(13) 0.3779(7)
H16 H 0.4147 1.2410 0.3647
H17 H 0.5276 1.2045 0.3837
C21 C 0.4346(15) 1.1421(19) 0.4378(9)
H18 H 0.4207 1.1938 0.4661
H19 H 0.4876 1.0848 0.4514
H20 H 0.3745 1.1226 0.4327
C22 C -0.3078(9) 1.5974(9) 0.2335(6)
H21 H -0.2677 1.5674 0.2648
C23 C -0.2804(10) 1.5645(10) 0.1773(6)
C24 C -0.3412(12) 1.6130(13) 0.1285(7)
H22 H -0.3242 1.5903 0.0906
C25 C -0.4242(14) 1.6930(12) 0.1393(7)
H23 H -0.4615 1.7287 0.1082
C26 C -0.6210(13) 1.8679(10) 0.1892(7)
H24 H -0.6242 1.8666 0.1487
C27 C -0.6955(11) 1.9364(10) 0.2219(6)
H25 H -0.7495 1.9813 0.2029
C28 C -0.6907(9) 1.9388(9) 0.2820(6)
C29 C -0.6093(10) 1.8725(9) 0.3105(6)
H26 H -0.6042 1.8752 0.3508
C30 C -0.4434(9) 1.7212(9) 0.2999(6)
C31 C -0.3951(10) 1.6749(10) 0.2425(6)
C32 C -0.4534(11) 1.7215(11) 0.1962(7)
C33 C -0.5417(10) 1.8018(10) 0.2192(6)
C34 C -0.5354(9) 1.8018(9) 0.2785(6)
C35 C -0.1886(12) 1.4795(11) 0.1636(7)
C36 C -0.7715(10) 2.0122(9) 0.3169(6)
C37 C -0.3644(12) 1.7667(12) 0.3290(7)
H27 H -0.3036 1.7116 0.3361
H28 H -0.3463 1.8121 0.3001
C38 C -0.3940(13) 1.8222(13) 0.3850(8)
H29 H -0.4058 1.7773 0.4164
H30 H -0.4556 1.8774 0.3801
C39 C -0.3043(14) 1.8636(16) 0.4001(10)
H31 H -0.3207 1.8994 0.4359
H32 H -0.2935 1.9081 0.3689
H33 H -0.2438 1.8084 0.4049
C40 C -0.4702(11) 1.6453(11) 0.3399(6)
H34 H -0.5024 1.6776 0.3754
H35 H -0.4087 1.5937 0.3507
C41 C -0.5405(14) 1.5967(13) 0.3125(10)
H36 H -0.5093 1.5666 0.2762
H37 H -0.6028 1.6482 0.3028
C42 C -0.5666(19) 1.5128(19) 0.3542(14)
H38 H -0.6106 1.4837 0.3346
H39 H -0.5998 1.5426 0.3896
H40 H -0.5053 1.4613 0.3637
C43 C -0.0222(11) 0.8633(9) 0.2022(6)
C44 C 0.0654(13) 0.8307(11) 0.1669(8)
H41 H 0.1134 0.8654 0.1643
C45 C 0.0782(14) 0.7427(13) 0.1352(7)
H42 H 0.1357 0.7193 0.1112
C46 C 0.0059(15) 0.6899(10) 0.1390(6)
C47 C -0.0728(13) 0.7216(11) 0.1752(7)
H43 H -0.1199 0.6858 0.1794
C48 C -0.0872(11) 0.8083(10) 0.2075(6)
H44 H -0.1430 0.8282 0.2331
C49 C -0.0393(11) 0.9552(10) 0.2371(6)
H45 H 0.0213 0.9498 0.2584
H46 H -0.0939 0.9582 0.2657
C50 C 0.023(2) 0.5963(11) 0.1042(7)
H47 H -0.0066 0.5496 0.1257
H48 H 0.0949 0.5639 0.0989
C51 C -0.1466(14) 1.0832(12) 0.1672(8)
H49 H -0.1963 1.0518 0.1629
C52 C -0.1439(12) 1.1679(12) 0.1416(8)
H50 H -0.1899 1.2055 0.1146
C53 C -0.0139(11) 1.1168(9) 0.1970(6)
H51 H 0.0456 1.1118 0.2160
C54 C -0.1173(17) 0.631(2) 0.0309(9)
H52 H -0.1700 0.6256 0.0562
C55 C -0.1240(16) 0.6513(18) -0.0266(8)
H53 H -0.1814 0.6596 -0.0483
C56 C 0.0303(15) 0.6380(13) -0.0042(8)
H54 H 0.0981 0.6360 -0.0067
C57 C 1.0735(11) 1.6276(9) 0.3044(6)
C58 C 0.9952(11) 1.6625(10) 0.3452(6)
H55 H 0.9442 1.6317 0.3503
C59 C 0.9937(11) 1.7440(9) 0.3784(6)
H56 H 0.9441 1.7642 0.4078
C60 C 1.0651(10) 1.7962(9) 0.3686(6)
C61 C 1.1436(11) 1.7574(10) 0.3272(6)
H57 H 1.1946 1.7881 0.3214
C62 C 1.1471(11) 1.6760(9) 0.2954(6)
H58 H 1.1990 1.6530 0.2676
C63 C 1.0791(12) 1.5358(9) 0.2703(7)
H59 H 1.0139 1.5435 0.2536
H60 H 1.1287 1.5300 0.2383
C64 C 1.0628(11) 1.8869(9) 0.4017(6)
H61 H 1.0412 1.9459 0.3757
H62 H 1.1310 1.8810 0.4133
C65 C 1.1914(13) 1.3177(11) 0.3643(7)
H63 H 1.2411 1.2770 0.3882
C66 C 1.1899(11) 1.4122(12) 0.3410(7)
H64 H 1.2365 1.4466 0.3472
C67 C 1.0616(9) 1.3730(9) 0.3113(6)
H65 H 1.0031 1.3768 0.2916
C68 C 0.8609(9) 1.9366(8) 0.5129(5)
H66 H 0.7946 1.9615 0.5274
C69 C 0.8939(10) 1.9496(9) 0.4559(6)
H67 H 0.8551 1.9834 0.4249
C70 C 1.0216(10) 1.8622(8) 0.5074(6)
H68 H 1.0870 1.8254 0.5173
N1 N -0.0608(8) 1.1932(8) 0.1613(5)
N2 N -0.0641(10) 1.0482(8) 0.2016(5)
N3 N -0.0232(15) 0.6209(8) 0.0464(6)
N4 N -0.0334(9) 0.6576(8) -0.0484(5)
N5 N 1.1070(8) 1.4445(8) 0.3072(5)
N6 N 1.1083(8) 1.2940(8) 0.3467(5)
N7 N 0.9406(8) 1.8818(7) 0.5444(4)
N8 N 0.9951(9) 1.9027(8) 0.4548(5)
O1 O 0.1168(7) 1.3860(7) 0.1676(4)
O2 O 0.1559(8) 1.2225(8) 0.1823(5)
O3 O 0.9173(7) 1.2464(6) 0.3256(4)
O4 O 0.8996(7) 1.0983(7) 0.3472(4)
O5 O -0.1759(8) 1.4361(7) 0.1166(5)
O6 O -0.1208(7) 1.4547(7) 0.2017(5)
O7 O -0.8583(6) 2.0434(6) 0.2949(4)
O8 O -0.7527(7) 2.0397(7) 0.3637(4)
Cd1 Cd -0.01215(7) 1.32962(7) 0.14418(4)
Cd2 Cd 1.06280(7) 1.15567(6) 0.36050(4)
N4A N 0.0334(9) 1.3424(8) 0.0484(5)
N7A N 1.0594(8) 1.1182(7) 0.4556(4)
O7_2 O 1.1417(6) 1.0434(6) 0.2949(4)
Cd1A Cd 0.01215(7) 0.67038(7) -0.14418(4)
Cd2A Cd 0.93720(7) 1.84433(6) 0.63950(4)
Cd2_2 Cd -0.93720(7) 2.15567(6) 0.36050(4)
loop_
_geom_bond_atom_site_label_1
_geom_bond_atom_site_label_2
_geom_bond_site_symmetry_1
_geom_bond_site_symmetry_2
C1 H1 1_555 1_555
C2 C1 1_555 1_555
C3 C2 1_555 1_555
H2 C3 1_555 1_555
C4 C3 1_555 1_555
H3 C4 1_555 1_555
C5 H4 1_555 1_555
C6 C5 1_555 1_555
H5 C6 1_555 1_555
C7 C6 1_555 1_555
C8 C7 1_555 1_555
H6 C8 1_555 1_555
C9 C10 1_555 1_555
C10 C1 1_555 1_555
C11 C4 1_555 1_555
C12 C5 1_555 1_555
C13 C8 1_555 1_555
C14 C2 1_555 1_555
C15 C7 1_555 1_555
C16 C9 1_555 1_555
H7 C16 1_555 1_555
H8 C16 1_555 1_555
C17 C16 1_555 1_555
H9 C17 1_555 1_555
H10 C17 1_555 1_555
C18 C17 1_555 1_555
H11 C18 1_555 1_555
H12 C18 1_555 1_555
H13 C18 1_555 1_555
C19 C9 1_555 1_555
H14 C19 1_555 1_555
H15 C19 1_555 1_555
C20 C19 1_555 1_555
H16 C20 1_555 1_555
H17 C20 1_555 1_555
C21 C20 1_555 1_555
H18 C21 1_555 1_555
H19 C21 1_555 1_555
H20 C21 1_555 1_555
C22 H21 1_555 1_555
C23 C22 1_555 1_555
C24 C23 1_555 1_555
H22 C24 1_555 1_555
C25 C24 1_555 1_555
H23 C25 1_555 1_555
C26 H24 1_555 1_555
C27 C26 1_555 1_555
H25 C27 1_555 1_555
C28 C27 1_555 1_555
C29 C28 1_555 1_555
H26 C29 1_555 1_555
C30 C31 1_555 1_555
C31 C22 1_555 1_555
C32 C25 1_555 1_555
C33 C26 1_555 1_555
C34 C29 1_555 1_555
C35 C23 1_555 1_555
C36 C28 1_555 1_555
C37 C30 1_555 1_555
H27 C37 1_555 1_555
H28 C37 1_555 1_555
C38 C37 1_555 1_555
H29 C38 1_555 1_555
H30 C38 1_555 1_555
C39 C38 1_555 1_555
H31 C39 1_555 1_555
H32 C39 1_555 1_555
H33 C39 1_555 1_555
C40 C30 1_555 1_555
H34 C40 1_555 1_555
H35 C40 1_555 1_555
C41 C40 1_555 1_555
H36 C41 1_555 1_555
H37 C41 1_555 1_555
C42 C41 1_555 1_555
H38 C42 1_555 1_555
H39 C42 1_555 1_555
H40 C42 1_555 1_555
C43 C44 1_555 1_555
C44 H41 1_555 1_555
C45 C44 1_555 1_555
H42 C45 1_555 1_555
C46 C45 1_555 1_555
C47 C46 1_555 1_555
H43 C47 1_555 1_555
C48 C43 1_555 1_555
H44 C48 1_555 1_555
C49 C43 1_555 1_555
H45 C49 1_555 1_555
H46 C49 1_555 1_555
C50 C46 1_555 1_555
H47 C50 1_555 1_555
H48 C50 1_555 1_555
C51 H49 1_555 1_555
C52 C51 1_555 1_555
H50 C52 1_555 1_555
C53 H51 1_555 1_555
C54 H52 1_555 1_555
C55 C54 1_555 1_555
H53 C55 1_555 1_555
C56 H54 1_555 1_555
C57 C58 1_555 1_555
C58 H55 1_555 1_555
C59 C58 1_555 1_555
H56 C59 1_555 1_555
C60 C59 1_555 1_555
C61 C60 1_555 1_555
H57 C61 1_555 1_555
C62 C57 1_555 1_555
H58 C62 1_555 1_555
C63 C57 1_555 1_555
H59 C63 1_555 1_555
H60 C63 1_555 1_555
C64 C60 1_555 1_555
H61 C64 1_555 1_555
H62 C64 1_555 1_555
C65 H63 1_555 1_555
C66 C65 1_555 1_555
H64 C66 1_555 1_555
C67 H65 1_555 1_555
C68 H66 1_555 1_555
C69 C68 1_555 1_555
H67 C69 1_555 1_555
C70 H68 1_555 1_555
N1 C52 1_555 1_555
N2 C49 1_555 1_555
N3 C50 1_555 1_555
N4 C55 1_555 1_555
N5 C63 1_555 1_555
N6 C65 1_555 1_555
N7 C68 1_555 1_555
N8 C64 1_555 1_555
O1 C15 1_555 1_555
O2 C15 1_555 1_555
O3 C14 1_555 1_555
O4 C14 1_555 1_555
O5 C35 1_555 1_555
O6 C35 1_555 1_555
O7 C36 1_555 1_555
O8 C36 1_555 1_555
Cd1 N1 1_555 1_555
Cd2 N6 1_555 1_555
N4A Cd1 1_555 1_555
N7A Cd2 1_555 1_555
O7_2 Cd2 1_555 1_555
Cd1A N4 1_555 1_555
Cd2A N7 1_555 1_555
Cd2_2 O7 1_555 1_555
C9 C13 1_555 1_555
C10 C11 1_555 1_555
C11 C12 1_555 1_555
C12 C13 1_555 1_555
C30 C34 1_555 1_555
C31 C32 1_555 1_555
C32 C33 1_555 1_555
C33 C34 1_555 1_555
C47 C48 1_555 1_555
C51 N2 1_555 1_555
C53 N1 1_555 1_555
C53 N2 1_555 1_555
C54 N3 1_555 1_555
C56 N3 1_555 1_555
C56 N4 1_555 1_555
C61 C62 1_555 1_555
C66 N5 1_555 1_555
C67 N5 1_555 1_555
C67 N6 1_555 1_555
C69 N8 1_555 1_555
C70 N7 1_555 1_555
C70 N8 1_555 1_555
O1 Cd1 1_555 1_555
O3 Cd2 1_555 1_555
O6 Cd1 1_555 1_555

#END
