
#######################################################################
#
#                 Cambridge Crystallographic Data Centre
#                                CCDC 
#
#######################################################################
#
# If this CIF has been generated from an entry in the Cambridge 
# Structural Database, then it will include bibliographic, chemical, 
# crystal, experimental, refinement or atomic coordinate data resulting 
# from the CCDC's data processing and validation procedures.
#
#######################################################################

data_MOYNOE
_symmetry_cell_setting           triclinic
_symmetry_space_group_name_H-M   'P -1'
_symmetry_Int_Tables_number      2
_space_group_name_Hall           '-P 1'
loop_
_symmetry_equiv_pos_site_id
_symmetry_equiv_pos_as_xyz
1 x,y,z
2 -x,-y,-z
_cell_length_a                   13.7354(7)
_cell_length_b                   13.8485(8)
_cell_length_c                   22.4233(12)
_cell_angle_alpha                88.4380(10)
_cell_angle_beta                 85.2750(10)
_cell_angle_gamma                70.7740(10)
_cell_volume                     4013.67
loop_
_atom_site_label
_atom_site_type_symbol
_atom_site_fract_x
_atom_site_fract_y
_atom_site_fract_z
C1 C 0.0855(4) 0.7053(4) 0.2275(4)
H1 H 0.0518 0.7530 0.2571
C2 C 0.0592(4) 0.7223(5) 0.1678(4)
C3 C 0.1114(5) 0.6543(6) 0.1250(4)
H2 H 0.0935 0.6672 0.0857
C4 C 0.1913(5) 0.5654(6) 0.1374(3)
H3 H 0.2264 0.5194 0.1072
C5 C 0.3683(4) 0.3760(4) 0.1955(2)
H4 H 0.3715 0.3658 0.1544
C6 C 0.4353(3) 0.3054(3) 0.2309(2)
H5 H 0.4831 0.2467 0.2136
C7 C 0.4319(3) 0.3215(3) 0.2924(2)
C8 C 0.3585(3) 0.4074(3) 0.3193(2)
H6 H 0.3549 0.4170 0.3604
C9 C 0.2014(3) 0.5765(3) 0.3015(3)
C10 C 0.1637(4) 0.6148(3) 0.2413(3)
C11 C 0.2166(4) 0.5476(4) 0.1955(3)
C12 C 0.2961(3) 0.4624(3) 0.2223(2)
C13 C 0.2909(3) 0.4783(3) 0.2842(2)
C14 C -0.0262(5) 0.8187(8) 0.1542(6)
C15 C 0.5075(3) 0.2466(3) 0.33003(19)
C16 C 0.2391(4) 0.6587(4) 0.3296(3)
H7 H 0.2910 0.6715 0.3015
H8 H 0.1810 0.7218 0.3335
C17 C 0.2830(6) 0.6357(5) 0.3884(4)
H9 H 0.3438 0.5749 0.3851
H10 H 0.2327 0.6221 0.4173
C18 C 0.3133(7) 0.7273(6) 0.4103(5)
H11 H 0.3416 0.7110 0.4485
H12 H 0.2530 0.7872 0.4140
H13 H 0.3640 0.7399 0.3819
C19 C 0.1168(4) 0.5516(4) 0.3420(3)
H14 H 0.1443 0.5265 0.3800
H15 H 0.0595 0.6144 0.3498
C20 C 0.0756(4) 0.4736(4) 0.3169(3)
H16 H 0.0532 0.4955 0.2774
H17 H 0.1313 0.4087 0.3125
C21 C -0.0131(6) 0.4575(7) 0.3550(4)
H18 H -0.0354 0.4074 0.3366
H19 H -0.0694 0.5209 0.3589
H20 H 0.0088 0.4339 0.3939
C22 C 0.6969(4) -0.6335(3) 0.2252(2)
H21 H 0.6354 -0.6474 0.2335
C23 C 0.7830(3) -0.7061(3) 0.1965(2)
C24 C 0.8743(4) -0.6836(3) 0.1841(2)
H22 H 0.9318 -0.7327 0.1657
C25 C 0.8812(4) -0.5898(3) 0.1986(2)
H23 H 0.9422 -0.5751 0.1898
C26 C 0.8424(3) -0.3529(3) 0.2431(2)
H24 H 0.9082 -0.3774 0.2236
C27 C 0.8069(3) -0.2568(3) 0.2686(2)
H25 H 0.8500 -0.2171 0.2669
C28 C 0.7077(3) -0.2180(3) 0.29685(19)
C29 C 0.6412(3) -0.2762(3) 0.2982(2)
H26 H 0.5738 -0.2498 0.3153
C30 C 0.6194(3) -0.4503(3) 0.2716(2)
C31 C 0.7042(3) -0.5406(3) 0.2410(2)
C32 C 0.7946(3) -0.5178(3) 0.2268(2)
C33 C 0.7776(3) -0.4127(3) 0.2472(2)
C34 C 0.6770(3) -0.3737(3) 0.2736(2)
C35 C 0.7737(4) -0.8057(3) 0.1777(2)
C36 C 0.6687(3) -0.1144(3) 0.32515(18)
C37 C 0.5252(4) -0.4110(4) 0.2344(3)
H27 H 0.4894 -0.4610 0.2368
H28 H 0.4783 -0.3485 0.2526
C38 C 0.5466(5) -0.3896(5) 0.1687(3)
H29 H 0.5870 -0.3437 0.1656
H30 H 0.5880 -0.4532 0.1491
C39 C 0.4505(6) -0.3431(6) 0.1362(4)
H31 H 0.4695 -0.3315 0.0951
H32 H 0.4099 -0.2792 0.1546
H33 H 0.4109 -0.3888 0.1381
C40 C 0.5843(4) -0.4774(4) 0.3348(3)
H34 H 0.5299 -0.4179 0.3514
H35 H 0.5544 -0.5312 0.3314
C41 C 0.6673(6) -0.5121(5) 0.3788(3)
H36 H 0.7215 -0.5726 0.3633
H37 H 0.6978 -0.4588 0.3829
C42 C 0.6244(8) -0.5358(6) 0.4399(4)
H38 H 0.6790 -0.5572 0.4665
H39 H 0.5955 -0.5896 0.4363
H40 H 0.5715 -0.4757 0.4557
C43 C 1.2812(3) 0.0878(3) 0.38034(18)
C44 C 1.2528(4) 0.1617(4) 0.3364(2)
H41 H 1.2892 0.2074 0.3294
C45 C 1.1699(4) 0.1683(4) 0.3025(2)
H42 H 1.1519 0.2184 0.2732
C46 C 1.1147(3) 0.1022(4) 0.3118(2)
C47 C 1.1445(4) 0.0273(5) 0.3551(3)
H43 H 1.1087 -0.0189 0.3616
C48 C 1.2270(4) 0.0199(4) 0.3893(2)
H44 H 1.2456 -0.0310 0.4182
C49 C 1.0270(3) 0.1070(5) 0.2745(2)
H45 H 1.0410 0.0416 0.2550
H46 H 1.0216 0.1586 0.2436
C50 C 1.3730(3) 0.0833(3) 0.4153(2)
H47 H 1.3614 0.1499 0.4326
H48 H 1.4347 0.0677 0.3879
C51 C 0.7942(4) 0.2068(4) 0.3724(3)
H49 H 0.7483 0.2523 0.3997
C52 C 0.8860(4) 0.2121(4) 0.3509(3)
H50 H 0.9157 0.2605 0.3606
C53 C 0.8607(3) 0.0813(3) 0.31196(19)
H51 H 0.8709 0.0229 0.2894
C54 C 1.4320(3) -0.1389(3) 0.51088(19)
H52 H 1.4585 -0.2082 0.5197
C55 C 1.4400(3) -0.0971(3) 0.4564(2)
H53 H 1.4725 -0.1315 0.4215
C56 C 1.3544(3) 0.0238(3) 0.52025(18)
H54 H 1.3174 0.0879 0.5362
C57 C -0.8114(4) 1.0221(5) 0.1386(2)
C58 C -0.7784(4) 0.9435(5) 0.1781(2)
H55 H -0.8137 0.8967 0.1845
C59 C -0.6913(4) 0.9337(4) 0.2088(2)
H56 H -0.6694 0.8801 0.2357
C60 C -0.6372(3) 1.0010(4) 0.2003(2)
C61 C -0.6712(4) 1.0804(5) 0.1611(3)
H57 H -0.6358 1.1271 0.1552
C62 C -0.7584(4) 1.0923(5) 0.1298(3)
H58 H -0.7808 1.1466 0.1033
C63 C -0.9073(4) 1.0357(6) 0.1054(2)
H59 H -0.9527 1.0055 0.1286
H60 H -0.9444 1.1080 0.1008
C64 C -0.5446(4) 0.9898(4) 0.2354(2)
H61 H -0.5537 1.0541 0.2551
H62 H -0.5403 0.9382 0.2662
C65 C -0.4104(4) 0.8778(4) 0.1593(3)
H63 H -0.4441 0.8318 0.1513
C66 C -0.3146(4) 0.8756(4) 0.1360(2)
H64 H -0.2709 0.8271 0.1094
C67 C -0.3755(3) 1.0064(3) 0.19538(19)
H65 H -0.3819 1.0646 0.2173
C68 C -0.8331(5) 0.8760(4) -0.0259(2)
H66 H -0.8126 0.8146 -0.0468
C69 C -0.8517(5) 0.8853(5) 0.0338(3)
H67 H -0.8465 0.8327 0.0613
C70 C -0.8775(4) 1.0344(4) -0.0059(2)
H68 H -0.8943 1.1049 -0.0097
N1 N 0.7780(3) 0.1243(3) 0.34820(17)
N2 N 0.9277(3) 0.1322(3) 0.31188(18)
N3 N 1.3903(3) 0.0069(3) 0.46282(15)
N4 N 1.3784(3) -0.0627(2) 0.55156(15)
N5 N -0.2939(3) 0.9580(3) 0.15886(16)
N6 N -0.4471(3) 0.9604(3) 0.19650(17)
N7 N -0.8797(3) 0.9871(4) 0.04593(17)
N8 N -0.8489(3) 0.9708(3) -0.05131(16)
O1 O 0.5264(3) 0.2739(2) 0.37837(15)
O2 O 0.5501(2) 0.1553(2) 0.30906(13)
O4 O -0.0731(4) 0.8103(5) 0.1039(3)
O6 O -0.0513(3) 0.8915(4) 0.1813(4)
O8 O 0.6887(3) -0.8094(3) 0.16617(19)
O9 O 0.8570(2) -0.8823(2) 0.17240(14)
O10 O 0.5775(2) -0.0784(2) 0.34550(13)
O11 O 0.7335(2) -0.0653(2) 0.32738(14)
Zn1 Zn 0.65605(3) 0.07389(3) 0.36072(2)
Zn2 Zn -0.16662(3) 0.99647(3) 0.13939(2)
N4A N 0.6216(3) 0.0627(2) 0.44844(15)
N8A N -0.1511(3) 1.0292(3) 0.05131(16)
O9_2 O -0.1430(2) 1.1177(2) 0.17240(14)
Zn1A Zn 1.34395(3) -0.07389(3) 0.63928(2)
Zn2A Zn -0.83338(3) 1.00353(3) -0.13939(2)
Zn2_2 Zn 0.83338(3) -1.00353(3) 0.13939(2)
O3 O -0.0752(10) 0.8293(8) 0.3892(6)
O5 O -0.9586(14) 0.2890(12) 0.0482(6)
O7 O 0.7995(13) 0.7461(10) 0.4656(9)
loop_
_geom_bond_atom_site_label_1
_geom_bond_atom_site_label_2
_geom_bond_site_symmetry_1
_geom_bond_site_symmetry_2
C1 H1 1_555 1_555
C2 C1 1_555 1_555
C3 C2 1_555 1_555
H2 C3 1_555 1_555
C4 C3 1_555 1_555
H3 C4 1_555 1_555
C5 H4 1_555 1_555
C6 C5 1_555 1_555
H5 C6 1_555 1_555
C7 C6 1_555 1_555
C8 C7 1_555 1_555
H6 C8 1_555 1_555
C9 C10 1_555 1_555
C10 C1 1_555 1_555
C11 C4 1_555 1_555
C12 C5 1_555 1_555
C13 C8 1_555 1_555
C14 C2 1_555 1_555
C15 C7 1_555 1_555
C16 C9 1_555 1_555
H7 C16 1_555 1_555
H8 C16 1_555 1_555
C17 C16 1_555 1_555
H9 C17 1_555 1_555
H10 C17 1_555 1_555
C18 C17 1_555 1_555
H11 C18 1_555 1_555
H12 C18 1_555 1_555
H13 C18 1_555 1_555
C19 C9 1_555 1_555
H14 C19 1_555 1_555
H15 C19 1_555 1_555
C20 C19 1_555 1_555
H16 C20 1_555 1_555
H17 C20 1_555 1_555
C21 C20 1_555 1_555
H18 C21 1_555 1_555
H19 C21 1_555 1_555
H20 C21 1_555 1_555
C22 H21 1_555 1_555
C23 C22 1_555 1_555
C24 C23 1_555 1_555
H22 C24 1_555 1_555
C25 C24 1_555 1_555
H23 C25 1_555 1_555
C26 H24 1_555 1_555
C27 C26 1_555 1_555
H25 C27 1_555 1_555
C28 C27 1_555 1_555
C29 C28 1_555 1_555
H26 C29 1_555 1_555
C30 C31 1_555 1_555
C31 C22 1_555 1_555
C32 C25 1_555 1_555
C33 C26 1_555 1_555
C34 C29 1_555 1_555
C35 C23 1_555 1_555
C36 C28 1_555 1_555
C37 C30 1_555 1_555
H27 C37 1_555 1_555
H28 C37 1_555 1_555
C38 C37 1_555 1_555
H29 C38 1_555 1_555
H30 C38 1_555 1_555
C39 C38 1_555 1_555
H31 C39 1_555 1_555
H32 C39 1_555 1_555
H33 C39 1_555 1_555
C40 C30 1_555 1_555
H34 C40 1_555 1_555
H35 C40 1_555 1_555
C41 C40 1_555 1_555
H36 C41 1_555 1_555
H37 C41 1_555 1_555
C42 C41 1_555 1_555
H38 C42 1_555 1_555
H39 C42 1_555 1_555
H40 C42 1_555 1_555
C43 C44 1_555 1_555
C44 H41 1_555 1_555
C45 C44 1_555 1_555
H42 C45 1_555 1_555
C46 C45 1_555 1_555
C47 C46 1_555 1_555
H43 C47 1_555 1_555
C48 C43 1_555 1_555
H44 C48 1_555 1_555
C49 C46 1_555 1_555
H45 C49 1_555 1_555
H46 C49 1_555 1_555
C50 C43 1_555 1_555
H47 C50 1_555 1_555
H48 C50 1_555 1_555
C51 H49 1_555 1_555
C52 C51 1_555 1_555
H50 C52 1_555 1_555
C53 H51 1_555 1_555
C54 H52 1_555 1_555
C55 C54 1_555 1_555
H53 C55 1_555 1_555
C56 H54 1_555 1_555
C57 C58 1_555 1_555
C58 H55 1_555 1_555
C59 C58 1_555 1_555
H56 C59 1_555 1_555
C60 C59 1_555 1_555
C61 C60 1_555 1_555
H57 C61 1_555 1_555
C62 C57 1_555 1_555
H58 C62 1_555 1_555
C63 C57 1_555 1_555
H59 C63 1_555 1_555
H60 C63 1_555 1_555
C64 C60 1_555 1_555
H61 C64 1_555 1_555
H62 C64 1_555 1_555
C65 H63 1_555 1_555
C66 C65 1_555 1_555
H64 C66 1_555 1_555
C67 H65 1_555 1_555
C68 H66 1_555 1_555
C69 C68 1_555 1_555
H67 C69 1_555 1_555
C70 H68 1_555 1_555
N1 C51 1_555 1_555
N2 C49 1_555 1_555
N3 C50 1_555 1_555
N4 C54 1_555 1_555
N5 C66 1_555 1_555
N6 C64 1_555 1_555
N7 C63 1_555 1_555
N8 C68 1_555 1_555
O1 C15 1_555 1_555
O2 C15 1_555 1_555
O4 C14 1_555 1_555
O6 C14 1_555 1_555
O8 C35 1_555 1_555
O9 C35 1_555 1_555
O10 C36 1_555 1_555
O11 C36 1_555 1_555
Zn1 N1 1_555 1_555
Zn2 N5 1_555 1_555
N4A Zn1 1_555 1_555
N8A Zn2 1_555 1_555
O9_2 Zn2 1_555 1_555
Zn1A N4 1_555 1_555
Zn2A N8 1_555 1_555
Zn2_2 O9 1_555 1_555
C9 C13 1_555 1_555
C10 C11 1_555 1_555
C11 C12 1_555 1_555
C12 C13 1_555 1_555
C30 C34 1_555 1_555
C31 C32 1_555 1_555
C32 C33 1_555 1_555
C33 C34 1_555 1_555
C47 C48 1_555 1_555
C52 N2 1_555 1_555
C53 N1 1_555 1_555
C53 N2 1_555 1_555
C55 N3 1_555 1_555
C56 N3 1_555 1_555
C56 N4 1_555 1_555
C61 C62 1_555 1_555
C65 N6 1_555 1_555
C67 N5 1_555 1_555
C67 N6 1_555 1_555
C69 N7 1_555 1_555
C70 N7 1_555 1_555
C70 N8 1_555 1_555
O2 Zn1 1_555 1_555
O6 Zn2 1_555 1_555
O11 Zn1 1_555 1_555

#END
