
#######################################################################
#
#                 Cambridge Crystallographic Data Centre
#                                CCDC 
#
#######################################################################
#
# If this CIF has been generated from an entry in the Cambridge 
# Structural Database, then it will include bibliographic, chemical, 
# crystal, experimental, refinement or atomic coordinate data resulting 
# from the CCDC's data processing and validation procedures.
#
#######################################################################

data_MOYPOG
_symmetry_cell_setting           monoclinic
_symmetry_space_group_name_H-M   'P n'
_symmetry_Int_Tables_number      7
_space_group_name_Hall           'P -2yac'
loop_
_symmetry_equiv_pos_site_id
_symmetry_equiv_pos_as_xyz
1 x,y,z
2 1/2+x,-y,1/2+z
_cell_length_a                   11.6722(4)
_cell_length_b                   11.7171(5)
_cell_length_c                   23.2671(9)
_cell_angle_alpha                90
_cell_angle_beta                 96.062(3)
_cell_angle_gamma                90
_cell_volume                     3164.32
loop_
_atom_site_label
_atom_site_type_symbol
_atom_site_fract_x
_atom_site_fract_y
_atom_site_fract_z
Zn1 Zn 0.615098(9) 0.708590(13) 0.452485(7)
N1 N 0.74142(9) 0.62986(10) 0.50069(5)
N2 N 0.87449(9) 0.57651(11) 0.57089(5)
N3 N 0.68642(10) 0.82440(10) 0.40383(5)
N4 N 0.72378(10) 0.94316(11) 0.33453(5)
N5 N 0.52070(9) 1.58546(10) 0.41069(5)
N6 N 0.44388(9) 1.46347(11) 0.34552(5)
N7 N 1.50517(10) 0.79725(11) 0.49632(5)
N8 N 1.39807(9) 0.85612(11) 0.56361(5)
C1 C 0.81386(12) 0.54833(14) 0.47859(6)
C2 C 0.81661(15) 0.50482(18) 0.42388(8)
H7 H 0.7627 0.5278 0.3938
C3 C 0.9002(2) 0.4271(2) 0.41442(11)
H8 H 0.9036 0.3975 0.3775
C4 C 0.98073(19) 0.3918(2) 0.46009(12)
H9 H 1.0347 0.3363 0.4533
C5 C 0.98172(17) 0.43595(17) 0.51309(10)
H10 H 1.0372 0.4138 0.5426
C6 C 0.89758(12) 0.51624(14) 0.52310(7)
C7 C 0.78342(11) 0.64274(14) 0.55525(6)
H11 H 0.7525 0.6931 0.5804
C8 C 0.94440(14) 0.57835(18) 0.62692(7)
H12 H 0.9681 0.5012 0.6377
H13 H 0.8986 0.6075 0.6561
C9 C 1.05118(13) 0.65342(16) 0.62460(6)
C10 C 1.15846(14) 0.60500(17) 0.62507(7)
H14 H 1.1666 0.5261 0.6268
C11 C 1.25387(14) 0.67307(17) 0.62293(8)
H15 H 1.3261 0.6395 0.6230
C12 C 1.24419(13) 0.79072(14) 0.62067(6)
C13 C 1.13689(12) 0.83889(17) 0.62099(7)
H16 H 1.1286 0.9178 0.6190
C14 C 1.04223(14) 0.77138(16) 0.62417(8)
H17 H 0.9706 0.8052 0.6261
C15 C 0.76935(12) 0.90347(13) 0.42747(6)
C16 C 0.82343(14) 0.91273(17) 0.48149(8)
H18 H 0.8073 0.8629 0.5107
C17 C 0.90480(17) 1.0003(2) 0.49185(9)
H19 H 0.9426 1.0095 0.5288
C18 C 0.93007(17) 1.07356(18) 0.44825(10)
H20 H 0.9855 1.1300 0.4562
C19 C 0.87338(14) 1.06379(16) 0.39232(9)
H21 H 0.8887 1.1132 0.3628
C20 C 0.79275(11) 0.97599(14) 0.38319(6)
C21 C 0.66319(12) 0.85228(13) 0.34856(6)
H22 H 0.6110 0.8133 0.3227
C22 C 0.70903(15) 1.00346(15) 0.27793(6)
H23 H 0.6735 0.9524 0.2484
H24 H 0.7839 1.0256 0.2671
C23 C 0.63562(13) 1.10701(14) 0.28136(6)
C24 C 0.51838(15) 1.09735(16) 0.28249(7)
H25 H 0.4849 1.0253 0.2812
C25 C 0.44927(15) 1.19286(15) 0.28553(8)
H26 H 0.3703 1.1839 0.2864
C26 C 0.49509(14) 1.29851(14) 0.28717(6)
C27 C 0.61416(15) 1.31082(15) 0.28514(7)
H27 H 0.6467 1.3833 0.2859
C28 C 0.68375(15) 1.21534(15) 0.28206(8)
H28 H 0.7626 1.2240 0.2805
C29 C 0.45363(11) 1.50719(13) 0.43814(6)
C30 C 0.43312(14) 1.50039(16) 0.49561(7)
H29 H 0.4675 1.5504 0.5233
C31 C 0.35966(17) 1.41631(18) 0.50953(8)
H30 H 0.3432 1.4092 0.5476
C32 C 0.30951(16) 1.34209(19) 0.46859(9)
H31 H 0.2591 1.2870 0.4799
C33 C 0.33091(14) 1.34573(16) 0.41063(8)
H32 H 0.2987 1.2942 0.3831
C34 C 0.40365(11) 1.43197(13) 0.39780(7)
C35 C 0.51280(12) 1.55484(14) 0.35642(6)
H33 H 0.5505 1.5919 0.3285
C36 C 0.42024(15) 1.40404(15) 0.28961(7)
H34 H 0.4348 1.4555 0.2586
H35 H 0.3397 1.3821 0.2840
C37 C 1.42133(11) 0.87015(14) 0.47009(6)
C38 C 1.39828(15) 0.90532(19) 0.41336(8)
H36 H 1.4421 0.8791 0.3849
C39 C 1.30969(17) 0.9793(2) 0.40041(10)
H37 H 1.2926 1.0044 0.3626
C40 C 1.24465(16) 1.0178(2) 0.44283(10)
H38 H 1.1846 1.0682 0.4322
C41 C 1.26368(14) 0.98593(16) 0.49904(8)
H39 H 1.2195 1.0138 0.5270
C42 C 1.35329(12) 0.90901(13) 0.51232(7)
C43 C 1.48586(12) 0.79198(14) 0.55077(7)
H40 H 1.5296 0.7474 0.5779
C44 C 1.35026(13) 0.86370(16) 0.61915(7)
H41 H 1.3308 0.9425 0.6264
H42 H 1.4082 0.8397 0.6497
Zn1_2 Zn 0.615098(9) 1.708590(13) 0.452485(7)
Zn1_3 Zn 1.615098(9) 0.708590(13) 0.452485(7)
N5_2 N 0.52070(9) 0.58546(10) 0.41069(5)
N7_2 N 0.50517(10) 0.79725(11) 0.49632(5)
Cl1 Cl 0.57107(4) 0.78129(6) 0.78612(2)
O1 O 0.5414(2) 0.7380(2) 0.83462(9)
O2 O 0.64099(19) 0.7160(3) 0.75559(10)
O3 O 0.6538(2) 0.8573(3) 0.80701(16)
O4 O 0.48583(17) 0.8281(3) 0.75426(9)
Cl2 Cl 0.64989(5) 0.79492(4) 0.11799(2)
O5 O 0.6869(4) 0.8833(2) 0.15688(12)
O6 O 0.5804(3) 0.7192(3) 0.14908(15)
O7 O 0.7489(3) 0.7292(3) 0.10585(19)
O8 O 0.59435(19) 0.82970(19) 0.06598(8)
O9 O 0.73940(15) -0.13495(15) 0.61732(7)
N9 N 0.74029(18) 0.02040(16) 0.67203(7)
C45 C 0.6965(3) 0.0863(3) 0.71796(12)
H43 H 0.6280 0.0508 0.7290
H44 H 0.6788 0.1624 0.7045
H45 H 0.7537 0.0893 0.7507
C46 C 0.8423(3) 0.0692(3) 0.64840(16)
H46 H 0.8738 0.0139 0.6240
H47 H 0.8993 0.0890 0.6796
H48 H 0.8201 0.1363 0.6263
C47 C 0.7054(2) -0.0801(2) 0.65450(10)
H49 H 0.6471 -0.1126 0.6734
O10 O 0.6553(3) 0.3382(3) 0.60432(11)
N10 N 0.61638(19) 0.2264(2) 0.52312(12)
C48 C 0.5402(4) 0.1450(4) 0.5456(3)
H50 H 0.5067 0.1780 0.5777
H51 H 0.5828 0.0778 0.5582
H52 H 0.4801 0.1249 0.5159
C49 C 0.6310(5) 0.2131(5) 0.4637(2)
H53 H 0.6982 0.2543 0.4551
H54 H 0.5645 0.2424 0.4405
H55 H 0.6402 0.1336 0.4552
C50 C 0.6647(3) 0.3116(4) 0.55476(19)
H56 H 0.7132 0.3581 0.5358
O11 O 0.72219(12) 0.60774(18) 0.28978(7)
N11 N 0.87463(13) 0.6180(2) 0.24036(7)
C51 C 0.9187(3) 0.4995(4) 0.2583(2)
H57 H 0.8710 0.4429 0.2378
H58 H 0.9162 0.4899 0.2991
H59 H 0.9966 0.4911 0.2492
C52 C 0.9404(3) 0.6640(5) 0.19877(15)
H60 H 0.9219 0.7434 0.1932
H61 H 0.9233 0.6240 0.1629
H62 H 1.0208 0.6562 0.2118
C53 C 0.7823(2) 0.6447(4) 0.25910(11)
H63 H 0.7548 0.7140 0.2438
O12 O 0.58634(15) 0.59674(15) 0.63907(8)
H1 H 0.65174(10) 0.62680(8) 0.64629(19)
H2 H 0.57813(12) 0.53176(9) 0.65343(19)
O13 O 0.47071(19) 0.7526(2) 0.25760(9)
H3 H 0.46056(14) 0.70293(13) 0.23150(4)
H4 H 0.41719(15) 0.76091(16) 0.27861(5)
O14 O 0.1989(3) 0.6823(4) 0.30565(15)
N12 N 0.1222(2) 0.7102(2) 0.39208(12)
C54 C 0.1220(5) 0.6869(4) 0.4526(2)
H64 H 0.1948 0.7087 0.4726
H65 H 0.1096 0.6068 0.4581
H66 H 0.0615 0.7296 0.4675
C55 C 0.0366(4) 0.7869(4) 0.3690(3)
H67 H 0.0474 0.8032 0.3295
H68 H 0.0421 0.8564 0.3909
H69 H -0.0380 0.7535 0.3707
C56 C 0.1878(4) 0.6566(5) 0.35940(18)
H70 H 0.2301 0.5951 0.3755
O15 O 0.77217(19) 0.40822(19) 0.70321(10)
H5 H 0.77935(17) 0.35129(15) 0.72505(4)
H6 H 0.72468(19) 0.40154(18) 0.67339(5)
O16? O 0.6191(7) 0.8422(4) 0.1586(2)
O17? O 0.6779(3) 0.68639(19) 0.12063(16)
O18? O 0.7606(4) 0.8532(4) 0.1271(3)
loop_
_geom_bond_atom_site_label_1
_geom_bond_atom_site_label_2
_geom_bond_site_symmetry_1
_geom_bond_site_symmetry_2
Zn1 N1 1_555 1_555
Cl1 O1 1_555 1_555
Cl2 O5 1_555 1_555
O2 Cl1 1_555 1_555
O3 Cl1 1_555 1_555
O4 Cl1 1_555 1_555
O6 Cl2 1_555 1_555
O7 Cl2 1_555 1_555
O8 Cl2 1_555 1_555
O9 C47 1_555 1_555
O10 C50 1_555 1_555
O11 C53 1_555 1_555
O12 H1 1_555 1_555
H2 O12 1_555 1_555
O13 H3 1_555 1_555
H4 O13 1_555 1_555
O14 C56 1_555 1_555
O15 H5 1_555 1_555
H6 O15 1_555 1_555
N1 C1 1_555 1_555
N2 C6 1_555 1_555
N3 Zn1 1_555 1_555
N4 C20 1_555 1_555
N5 C29 1_555 1_555
N6 C34 1_555 1_555
N7 C37 1_555 1_555
N8 C42 1_555 1_555
N9 C45 1_555 1_555
N10 C48 1_555 1_555
N11 C51 1_555 1_555
N12 C54 1_555 1_555
C1 C2 1_555 1_555
C2 H7 1_555 1_555
C3 C2 1_555 1_555
H8 C3 1_555 1_555
C4 C3 1_555 1_555
H9 C4 1_555 1_555
C5 C4 1_555 1_555
H10 C5 1_555 1_555
C6 C1 1_555 1_555
C7 N1 1_555 1_555
H11 C7 1_555 1_555
C8 N2 1_555 1_555
H12 C8 1_555 1_555
H13 C8 1_555 1_555
C9 C8 1_555 1_555
C10 C9 1_555 1_555
H14 C10 1_555 1_555
C11 C10 1_555 1_555
H15 C11 1_555 1_555
C12 C11 1_555 1_555
C13 C12 1_555 1_555
H16 C13 1_555 1_555
C14 C9 1_555 1_555
H17 C14 1_555 1_555
C15 N3 1_555 1_555
C16 C15 1_555 1_555
H18 C16 1_555 1_555
C17 C16 1_555 1_555
H19 C17 1_555 1_555
C18 C17 1_555 1_555
H20 C18 1_555 1_555
C19 C18 1_555 1_555
H21 C19 1_555 1_555
C20 C15 1_555 1_555
C21 N3 1_555 1_555
H22 C21 1_555 1_555
C22 N4 1_555 1_555
H23 C22 1_555 1_555
H24 C22 1_555 1_555
C23 C22 1_555 1_555
C24 C23 1_555 1_555
H25 C24 1_555 1_555
C25 C24 1_555 1_555
H26 C25 1_555 1_555
C26 C25 1_555 1_555
C27 C26 1_555 1_555
H27 C27 1_555 1_555
C28 C23 1_555 1_555
H28 C28 1_555 1_555
C29 C30 1_555 1_555
C30 H29 1_555 1_555
C31 C30 1_555 1_555
H30 C31 1_555 1_555
C32 C31 1_555 1_555
H31 C32 1_555 1_555
C33 C32 1_555 1_555
H32 C33 1_555 1_555
C34 C29 1_555 1_555
C35 N5 1_555 1_555
H33 C35 1_555 1_555
C36 N6 1_555 1_555
H34 C36 1_555 1_555
H35 C36 1_555 1_555
C37 C38 1_555 1_555
C38 H36 1_555 1_555
C39 C38 1_555 1_555
H37 C39 1_555 1_555
C40 C39 1_555 1_555
H38 C40 1_555 1_555
C41 C40 1_555 1_555
H39 C41 1_555 1_555
C42 C37 1_555 1_555
C43 N7 1_555 1_555
H40 C43 1_555 1_555
C44 N8 1_555 1_555
H41 C44 1_555 1_555
H42 C44 1_555 1_555
C45 H43 1_555 1_555
H44 C45 1_555 1_555
H45 C45 1_555 1_555
C46 N9 1_555 1_555
H46 C46 1_555 1_555
H47 C46 1_555 1_555
H48 C46 1_555 1_555
C47 N9 1_555 1_555
H49 C47 1_555 1_555
C48 H50 1_555 1_555
H51 C48 1_555 1_555
H52 C48 1_555 1_555
C49 N10 1_555 1_555
H53 C49 1_555 1_555
H54 C49 1_555 1_555
H55 C49 1_555 1_555
C50 N10 1_555 1_555
H56 C50 1_555 1_555
C51 H57 1_555 1_555
H58 C51 1_555 1_555
H59 C51 1_555 1_555
C52 N11 1_555 1_555
H60 C52 1_555 1_555
H61 C52 1_555 1_555
H62 C52 1_555 1_555
C53 N11 1_555 1_555
H63 C53 1_555 1_555
C54 H64 1_555 1_555
H65 C54 1_555 1_555
H66 C54 1_555 1_555
C55 N12 1_555 1_555
H67 C55 1_555 1_555
H68 C55 1_555 1_555
H69 C55 1_555 1_555
C56 N12 1_555 1_555
H70 C56 1_555 1_555
Zn1_2 N5 1_555 1_555
Zn1_3 N7 1_555 1_555
N5_2 Zn1 1_555 1_555
N7_2 Zn1 1_555 1_555
N2 C7 1_555 1_555
N4 C21 1_555 1_555
N6 C35 1_555 1_555
N8 C43 1_555 1_555
C5 C6 1_555 1_555
C12 C44 1_555 1_555
C13 C14 1_555 1_555
C19 C20 1_555 1_555
C26 C36 1_555 1_555
C27 C28 1_555 1_555
C33 C34 1_555 1_555
C41 C42 1_555 1_555

#END
