
#######################################################################
#
#                 Cambridge Crystallographic Data Centre
#                                CCDC 
#
#######################################################################
#
# If this CIF has been generated from an entry in the Cambridge 
# Structural Database, then it will include bibliographic, chemical, 
# crystal, experimental, refinement or atomic coordinate data resulting 
# from the CCDC's data processing and validation procedures.
#
#######################################################################

data_MOYPIA
_symmetry_cell_setting           monoclinic
_symmetry_space_group_name_H-M   'C c'
_symmetry_Int_Tables_number      9
_space_group_name_Hall           'C -2yc'
loop_
_symmetry_equiv_pos_site_id
_symmetry_equiv_pos_as_xyz
1 x,y,z
2 x,-y,1/2+z
3 1/2+x,1/2+y,z
4 1/2+x,1/2-y,1/2+z
_cell_length_a                   27.347(5)
_cell_length_b                   8.637(5)
_cell_length_c                   10.972(5)
_cell_angle_alpha                90
_cell_angle_beta                 103.309(5)
_cell_angle_gamma                90
_cell_volume                     2521.94
loop_
_atom_site_label
_atom_site_type_symbol
_atom_site_fract_x
_atom_site_fract_y
_atom_site_fract_z
Zn1 Zn 0.34241(4) 0.37883(8) 0.16607(8)
O1 O 0.2627(3) 0.3988(7) -0.0324(7)
O2 O 0.2885(2) 0.5318(7) 0.1431(6)
O3 O -0.0914(2) 0.9659(7) -0.3610(6)
O4 O -0.1013(2) 1.0626(8) -0.1838(6)
N1 N 0.3078(3) 0.1986(9) 0.2440(8)
N2 N 0.3667(3) 0.1848(10) 0.0859(8)
C1 C 0.1724(3) 0.5765(9) -0.0906(8)
H1 H 0.1797 0.5178 -0.1553
C2 C 0.2065(3) 0.5833(11) 0.0266(9)
C3 C 0.1956(3) 0.6665(9) 0.1250(8)
H2 H 0.2188 0.6717 0.2016
C4 C 0.1494(3) 0.7425(8) 0.1075(7)
H3 H 0.1406 0.7932 0.1741
C5 C 0.0374(3) 0.8958(9) 0.0122(8)
H4 H 0.0487 0.9148 0.0974
C6 C -0.0091(3) 0.9505(9) -0.0508(8)
H5 H -0.0286 1.0081 -0.0081
C7 C -0.0266(4) 0.9205(13) -0.1757(10)
C8 C 0.0022(3) 0.8333(11) -0.2448(8)
H6 H -0.0098 0.8135 -0.3297
C9 C 0.0852(4) 0.6737(17) -0.2253(11)
C10 C 0.1275(3) 0.6597(11) -0.1081(8)
C11 C 0.1166(3) 0.7418(9) -0.0098(8)
C12 C 0.0666(3) 0.8145(10) -0.0496(9)
C13 C 0.0495(3) 0.7781(9) -0.1792(8)
C14 C 0.2559(3) 0.4965(11) 0.0435(10)
C15 C -0.0762(3) 0.9874(11) -0.2467(9)
C16 C 0.1045(4) 0.7619(17) -0.3326(10)
H7 H 0.0764 0.7601 -0.4050
H8 H 0.1083 0.8691 -0.3056
C17 C 0.1433(4) 0.7321(17) -0.3756(11)
H9 H 0.1387 0.6306 -0.4144
H10 H 0.1721 0.7253 -0.3051
C18 C 0.1564(4) 0.8442(18) -0.4696(11)
H11 H 0.1868 0.8113 -0.4913
H12 H 0.1610 0.9459 -0.4335
H13 H 0.1296 0.8463 -0.5435
C19 C 0.0607(4) 0.5179(13) -0.2686(11)
H14 H 0.0857 0.4497 -0.2898
H15 H 0.0345 0.5336 -0.3438
C20 C 0.0379(5) 0.4391(13) -0.1685(11)
H16 H 0.0652 0.4080 -0.0997
H17 H 0.0181 0.5155 -0.1362
C21 C 0.0066(5) 0.3063(13) -0.2081(11)
H18 H -0.0057 0.2674 -0.1389
H19 H 0.0259 0.2273 -0.2370
H20 H -0.0212 0.3353 -0.2748
C22 C 0.2769(4) 0.2181(11) 0.3232(10)
H21 H 0.2694 0.3182 0.3445
C23 C 0.2566(4) 0.0986(12) 0.3721(10)
H22 H 0.2361 0.1163 0.4277
C24 C 0.2663(4) -0.0532(12) 0.3389(11)
H23 H 0.2522 -0.1372 0.3714
C25 C 0.2971(3) -0.0753(10) 0.2574(10)
H24 H 0.3040 -0.1749 0.2338
C26 C 0.3178(3) 0.0522(12) 0.2106(9)
C27 C 0.3530(3) 0.0503(11) 0.1241(9)
C28 C 0.3691(4) -0.0918(13) 0.0860(10)
H25 H 0.3595 -0.1860 0.1143
C29 C 0.4012(4) -0.0823(17) 0.0014(12)
H26 H 0.4136 -0.1727 -0.0265
C30 C 0.4141(4) 0.0562(17) -0.0390(12)
H27 H 0.4344 0.0613 -0.0963
C31 C 0.3967(4) 0.1907(14) 0.0056(10)
H28 H 0.4060 0.2863 -0.0209
Zn1C Zn -0.15759(4) 1.12117(8) -0.33393(8)
O3C O 0.4086(2) 0.5341(7) 0.1390(6)
O4C O 0.3987(2) 0.4374(8) 0.3162(6)
loop_
_geom_bond_atom_site_label_1
_geom_bond_atom_site_label_2
_geom_bond_site_symmetry_1
_geom_bond_site_symmetry_2
Zn1 O2 1_555 1_555
O1 C14 1_555 1_555
O2 C14 1_555 1_555
O3 C15 1_555 1_555
O4 C15 1_555 1_555
N1 Zn1 1_555 1_555
N2 Zn1 1_555 1_555
C1 H1 1_555 1_555
C2 C1 1_555 1_555
C3 C2 1_555 1_555
H2 C3 1_555 1_555
C4 C3 1_555 1_555
H3 C4 1_555 1_555
C5 H4 1_555 1_555
C6 C5 1_555 1_555
H5 C6 1_555 1_555
C7 C6 1_555 1_555
C8 C7 1_555 1_555
H6 C8 1_555 1_555
C9 C10 1_555 1_555
C10 C1 1_555 1_555
C11 C4 1_555 1_555
C12 C5 1_555 1_555
C13 C8 1_555 1_555
C14 C2 1_555 1_555
C15 C7 1_555 1_555
C16 C9 1_555 1_555
H7 C16 1_555 1_555
H8 C16 1_555 1_555
C17 C16 1_555 1_555
H9 C17 1_555 1_555
H10 C17 1_555 1_555
C18 C17 1_555 1_555
H11 C18 1_555 1_555
H12 C18 1_555 1_555
H13 C18 1_555 1_555
C19 C9 1_555 1_555
H14 C19 1_555 1_555
H15 C19 1_555 1_555
C20 C19 1_555 1_555
H16 C20 1_555 1_555
H17 C20 1_555 1_555
C21 C20 1_555 1_555
H18 C21 1_555 1_555
H19 C21 1_555 1_555
H20 C21 1_555 1_555
C22 N1 1_555 1_555
H21 C22 1_555 1_555
C23 C22 1_555 1_555
H22 C23 1_555 1_555
C24 C23 1_555 1_555
H23 C24 1_555 1_555
C25 C24 1_555 1_555
H24 C25 1_555 1_555
C26 N1 1_555 1_555
C27 N2 1_555 1_555
C28 C27 1_555 1_555
H25 C28 1_555 1_555
C29 C28 1_555 1_555
H26 C29 1_555 1_555
C30 C29 1_555 1_555
H27 C30 1_555 1_555
C31 N2 1_555 1_555
H28 C31 1_555 1_555
Zn1C O3 1_555 1_555
O3C Zn1 1_555 1_555
O4C Zn1 1_555 1_555
O4 Zn1C 1_555 1_555
C9 C13 1_555 1_555
C10 C11 1_555 1_555
C11 C12 1_555 1_555
C12 C13 1_555 1_555
C25 C26 1_555 1_555
C26 C27 1_555 1_555
C30 C31 1_555 1_555

#END
