
#######################################################################
#
#                 Cambridge Crystallographic Data Centre
#                                CCDC 
#
#######################################################################
#
# If this CIF has been generated from an entry in the Cambridge 
# Structural Database, then it will include bibliographic, chemical, 
# crystal, experimental, refinement or atomic coordinate data resulting 
# from the CCDC's data processing and validation procedures.
#
#######################################################################

data_MOYPUM
_symmetry_cell_setting           monoclinic
_symmetry_space_group_name_H-M   'P 21/n'
_symmetry_Int_Tables_number      14
_space_group_name_Hall           '-P 2yn'
loop_
_symmetry_equiv_pos_site_id
_symmetry_equiv_pos_as_xyz
1 x,y,z
2 1/2-x,1/2+y,1/2-z
3 -x,-y,-z
4 1/2+x,1/2-y,1/2+z
_cell_length_a                   13.0189(2)
_cell_length_b                   8.74500(10)
_cell_length_c                   14.8254(2)
_cell_angle_alpha                90
_cell_angle_beta                 106.7470(10)
_cell_angle_gamma                90
_cell_volume                     1616.29
loop_
_atom_site_label
_atom_site_type_symbol
_atom_site_fract_x
_atom_site_fract_y
_atom_site_fract_z
Zn1 Zn 0.5000 0.5000 0.0000
O1 O 0.6388(2) 0.3956(3) 0.09628(18)
H1 H 0.623(3) 0.343(4) 0.137(2)
H2 H 0.690(3) 0.457(4) 0.114(2)
O2 O 0.5866(2) 0.7034(3) 0.02130(19)
N1 N 0.4470(2) 0.5570(4) 0.1187(2)
N2 N 0.4611(3) 0.6613(4) 0.2588(2)
N3 N 0.6420(3) 0.9321(4) -0.0137(2)
C1 C 0.3453(3) 0.5698(4) 0.1298(2)
C2 C 0.2445(3) 0.5334(5) 0.0689(3)
H3 H 0.2373 0.4877 0.0108
C3 C 0.1567(3) 0.5678(6) 0.0984(3)
H4 H 0.0888 0.5438 0.0593
C4 C 0.1655(4) 0.6379(7) 0.1851(4)
H5 H 0.1035 0.6614 0.2015
C5 C 0.2634(4) 0.6725(6) 0.2464(3)
H6 H 0.2697 0.7179 0.3045
C6 C 0.3525(3) 0.6364(5) 0.2175(3)
C7 C 0.5116(3) 0.6128(5) 0.1968(2)
H7 H 0.5856 0.6183 0.2081
C8 C 0.5102(4) 0.7187(5) 0.3541(3)
H8 H 0.4746 0.8126 0.3630
H9 H 0.5850 0.7424 0.3616
C9 C 0.5030(3) 0.6036(5) 0.4289(3)
C10 C 0.5365(4) 0.4548(5) 0.4261(3)
H10 H 0.5610 0.4228 0.3761
C11 C 0.4658(4) 0.6478(5) 0.5035(3)
H11 H 0.4421 0.7475 0.5064
C12 C 0.5999(3) 0.7965(5) -0.0362(3)
H12 H 0.5788 0.7691 -0.0995
C13 C 0.6740(5) 0.9808(6) 0.0833(4)
H13 H 0.6793 0.8933 0.1235
H14 H 0.6216 1.0505 0.0937
H15 H 0.7424 1.0309 0.0973
C14 C 0.6510(6) 1.0426(6) -0.0845(4)
H16 H 0.6170 1.0024 -0.1462
H17 H 0.7253 1.0619 -0.0781
H18 H 0.6165 1.1363 -0.0760
Zn1_2 Zn 0.5000 0.5000 1.0000
O1B O 0.3612(2) 0.6044(3) -0.09628(18)
H1B H 0.377(3) 0.657(4) -0.137(2)
H2B H 0.310(3) 0.543(4) -0.114(2)
O2B O 0.4134(2) 0.2966(3) -0.02130(19)
N1B N 0.5530(2) 0.4430(4) 0.8813(2)
N1B_2 N 0.5530(2) 0.4430(4) -0.1187(2)
N2B N 0.5389(3) 0.3387(4) 0.7412(2)
N3B N 0.3580(3) 0.0679(4) 0.0137(2)
C1B C 0.6547(3) 0.4302(4) 0.8702(2)
C2B C 0.7555(3) 0.4666(5) 0.9311(3)
H3B H 0.7627 0.5123 0.9892
C3B C 0.8433(3) 0.4322(6) 0.9016(3)
H4B H 0.9112 0.4562 0.9407
C4B C 0.8345(4) 0.3621(7) 0.8149(4)
H5B H 0.8965 0.3386 0.7985
C5B C 0.7366(4) 0.3275(6) 0.7536(3)
H6B H 0.7303 0.2821 0.6955
C6B C 0.6475(3) 0.3636(5) 0.7825(3)
C7B C 0.4884(3) 0.3872(5) 0.8032(2)
H7B H 0.4144 0.3817 0.7919
C8B C 0.4898(4) 0.2813(5) 0.6459(3)
H8B H 0.5254 0.1874 0.6370
H9B H 0.4150 0.2576 0.6384
C9B C 0.4970(3) 0.3964(5) 0.5711(3)
C10B C 0.4635(4) 0.5452(5) 0.5739(3)
H10B H 0.4390 0.5772 0.6239
C11B C 0.5342(4) 0.3522(5) 0.4965(3)
H11B H 0.5579 0.2525 0.4936
C12B C 0.4001(3) 0.2035(5) 0.0362(3)
H12B H 0.4212 0.2309 0.0995
C13B C 0.3260(5) 0.0192(6) -0.0833(4)
H13B H 0.3207 0.1067 -0.1235
H14B H 0.3784 -0.0505 -0.0937
H15B H 0.2576 -0.0309 -0.0973
C14B C 0.3490(6) -0.0426(6) 0.0845(4)
H16B H 0.3830 -0.0024 0.1462
H17B H 0.2747 -0.0619 0.0781
H18B H 0.3835 -0.1363 0.0760
O3 O 0.7298(3) 0.1333(6) 0.2792(3)
O4 O 0.5779(3) 0.2353(5) 0.2408(2)
O5 O 0.6182(5) 0.0644(7) 0.3457(4)
N4 N 0.6417(3) 0.1430(4) 0.2882(2)
loop_
_geom_bond_atom_site_label_1
_geom_bond_atom_site_label_2
_geom_bond_site_symmetry_1
_geom_bond_site_symmetry_2
Zn1 O1 1_555 1_555
O1 H1 1_555 1_555
H2 O1 1_555 1_555
O2 Zn1 1_555 1_555
O3 N4 1_555 1_555
O4 N4 1_555 1_555
O5 N4 1_555 1_555
N1 Zn1 1_555 1_555
N2 C6 1_555 1_555
N3 C12 1_555 1_555
C1 N1 1_555 1_555
C2 C1 1_555 1_555
H3 C2 1_555 1_555
C3 C2 1_555 1_555
H4 C3 1_555 1_555
C4 C3 1_555 1_555
H5 C4 1_555 1_555
C5 C4 1_555 1_555
H6 C5 1_555 1_555
C6 C1 1_555 1_555
C7 N1 1_555 1_555
H7 C7 1_555 1_555
C8 N2 1_555 1_555
H8 C8 1_555 1_555
H9 C8 1_555 1_555
C9 C8 1_555 1_555
C10 C9 1_555 1_555
H10 C10 1_555 1_555
C11 C9 1_555 1_555
H11 C11 1_555 1_555
C12 O2 1_555 1_555
H12 C12 1_555 1_555
C13 N3 1_555 1_555
H13 C13 1_555 1_555
H14 C13 1_555 1_555
H15 C13 1_555 1_555
C14 N3 1_555 1_555
H16 C14 1_555 1_555
H17 C14 1_555 1_555
H18 C14 1_555 1_555
Zn1_2 N1B 1_555 1_555
O1B Zn1 1_555 1_555
H1B O1B 1_555 1_555
H2B O1B 1_555 1_555
O2B Zn1 1_555 1_555
N1B C1B 1_555 1_555
N1B_2 Zn1 1_555 1_555
N2B C6B 1_555 1_555
N3B C12B 1_555 1_555
C1B C2B 1_555 1_555
C2B H3B 1_555 1_555
C3B C2B 1_555 1_555
H4B C3B 1_555 1_555
C4B C3B 1_555 1_555
H5B C4B 1_555 1_555
C5B C4B 1_555 1_555
H6B C5B 1_555 1_555
C6B C1B 1_555 1_555
C7B N1B 1_555 1_555
H7B C7B 1_555 1_555
C8B N2B 1_555 1_555
H8B C8B 1_555 1_555
H9B C8B 1_555 1_555
C9B C8B 1_555 1_555
C10B C11 1_555 1_555
H10B C10B 1_555 1_555
C11B C10 1_555 1_555
H11B C11B 1_555 1_555
C12B O2B 1_555 1_555
H12B C12B 1_555 1_555
C13B N3B 1_555 1_555
H13B C13B 1_555 1_555
H14B C13B 1_555 1_555
H15B C13B 1_555 1_555
C14B N3B 1_555 1_555
H16B C14B 1_555 1_555
H17B C14B 1_555 1_555
H18B C14B 1_555 1_555
N2 C7 1_555 1_555
C5 C6 1_555 1_555
N2B C7B 1_555 1_555
C5B C6B 1_555 1_555
C9B C10B 1_555 1_555
C9B C11B 1_555 1_555

#END
