
#######################################################################
#
#                 Cambridge Crystallographic Data Centre
#                                CCDC 
#
#######################################################################
#
# If this CIF has been generated from an entry in the Cambridge 
# Structural Database, then it will include bibliographic, chemical, 
# crystal, experimental, refinement or atomic coordinate data resulting 
# from the CCDC's data processing and validation procedures.
#
#######################################################################

data_MOYPAS
_symmetry_cell_setting           orthorhombic
_symmetry_space_group_name_H-M   'P b c m'
_symmetry_Int_Tables_number      57
_space_group_name_Hall           '-P 2c 2b'
loop_
_symmetry_equiv_pos_site_id
_symmetry_equiv_pos_as_xyz
1 x,y,z
2 -x,-y,1/2+z
3 x,1/2-y,-z
4 -x,1/2+y,1/2-z
5 -x,-y,-z
6 x,y,1/2-z
7 -x,1/2+y,z
8 x,1/2-y,1/2+z
_cell_length_a                   8.783(2)
_cell_length_b                   24.640(6)
_cell_length_c                   14.613(4)
_cell_angle_alpha                90
_cell_angle_beta                 90
_cell_angle_gamma                90
_cell_volume                     3162.44
loop_
_atom_site_label
_atom_site_type_symbol
_atom_site_fract_x
_atom_site_fract_y
_atom_site_fract_z
C1 C 0.7781(10) -0.1321(3) 0.2500
H1 H 0.8314 -0.0995 0.2500
C2 C 0.6180(10) -0.1321(4) 0.2500
C3 C 0.5429(11) -0.1814(4) 0.2500
H2 H 0.4370 -0.1813 0.2500
C4 C 0.6177(10) -0.2313(4) 0.2500
H3 H 0.5639 -0.2638 0.2500
C5 C 0.8712(11) -0.3313(3) 0.2500
H4 H 0.7752 -0.3472 0.2500
C6 C 1.0001(10) -0.3626(3) 0.2500
H5 H 0.9900 -0.4001 0.2500
C7 C 1.1436(11) -0.3405(3) 0.2500
C8 C 1.1610(10) -0.2849(3) 0.2500
H6 H 1.2579 -0.2696 0.2500
C9 C 1.0267(10) -0.1898(3) 0.2500
C10 C 0.8560(9) -0.1808(3) 0.2500
C11 C 0.7744(11) -0.2305(4) 0.2500
C12 C 0.8875(10) -0.2742(3) 0.2500
C13 C 1.0341(10) -0.2519(3) 0.2500
C14 C 0.5321(11) -0.0785(3) 0.2500
C15 C 1.2832(11) -0.3757(4) 0.2500
C16 C 1.1026(7) -0.1655(2) 0.3358(4)
H7 H 1.2099 -0.1749 0.3350
H8 H 1.0952 -0.1263 0.3325
C17 C 1.0355(10) -0.1840(3) 0.4259(4)
H9 H 0.9318 -0.1708 0.4305
H10 H 1.0318 -0.2234 0.4267
C18 C 1.1237(14) -0.1648(4) 0.5074(6)
H11 H 1.0755 -0.1775 0.5623
H12 H 1.1265 -0.1259 0.5077
H13 H 1.2257 -0.1787 0.5044
C19 C 0.3351(8) 0.0800(3) 0.0004(4)
H14 H 0.3120 0.1032 -0.0479
C20 C 0.4144(8) 0.0924(3) 0.0768(5)
H15 H 0.4567 0.1261 0.0899
C21 C 0.3506(7) 0.0085(2) 0.0885(4)
H16 H 0.3395 -0.0267 0.1105
C22 C 0.2025(8) -0.0046(3) -0.0570(4)
H17 H 0.2211 -0.0431 -0.0487
H18 H 0.2339 0.0049 -0.1186
C23 C 0.0320(8) 0.0063(3) -0.0470(4)
H19 H 0.0127 0.0442 -0.0608
H20 H -0.0223 -0.0153 -0.0920
N1 N 0.4227(6) 0.0473(2) 0.1322(3)
N2 N 0.2950(6) 0.0258(2) 0.0085(4)
O1 O 0.6167(7) -0.0358(2) 0.2500
O2 O 0.3924(7) -0.0784(2) 0.2500
O3 O 1.2637(7) -0.4267(2) 0.2500
O4 O 1.4122(8) -0.3550(3) 0.2500
Zn1 Zn 0.53557(11) 0.03802(4) 0.2500
C16E C 1.1026(7) -0.1655(2) 0.1642(4)
H7E H 1.2099 -0.1749 0.1650
H8E H 1.0952 -0.1263 0.1675
C17E C 1.0355(10) -0.1840(3) 0.0741(4)
H9E H 0.9318 -0.1708 0.0695
H10E H 1.0318 -0.2234 0.0733
C18E C 1.1237(14) -0.1648(4) -0.0074(6)
H11E H 1.0755 -0.1775 -0.0623
H12E H 1.1265 -0.1259 -0.0077
H13E H 1.2257 -0.1787 -0.0044
C19D C -0.3351(8) -0.0800(3) -0.0004(4)
H14D H -0.3120 -0.1032 0.0479
C20D C -0.4144(8) -0.0924(3) -0.0768(5)
H15D H -0.4567 -0.1261 -0.0899
C21D C -0.3506(7) -0.0085(2) -0.0885(4)
H16D H -0.3395 0.0267 -0.1105
C22D C -0.2025(8) 0.0046(3) 0.0570(4)
H17D H -0.2211 0.0431 0.0487
H18D H -0.2339 -0.0049 0.1186
C23D C -0.0320(8) -0.0063(3) 0.0470(4)
H19D H -0.0127 -0.0442 0.0608
H20D H 0.0223 0.0153 0.0920
N1D N -0.4227(6) -0.0473(2) -0.1322(3)
N1E N 0.4227(6) 0.0473(2) 0.3678(3)
N2D N -0.2950(6) -0.0258(2) -0.0085(4)
O3C O 0.7363(7) 0.0733(2) 0.2500
Zn1C Zn 1.46443(11) -0.46198(4) 0.2500
Zn1A Zn -0.53557(11) -0.03802(4) -0.2500
loop_
_geom_bond_atom_site_label_1
_geom_bond_atom_site_label_2
_geom_bond_site_symmetry_1
_geom_bond_site_symmetry_2
C1 H1 1_555 1_555
C2 C1 1_555 1_555
C3 C2 1_555 1_555
H2 C3 1_555 1_555
C4 C3 1_555 1_555
H3 C4 1_555 1_555
C5 H4 1_555 1_555
C6 C5 1_555 1_555
H5 C6 1_555 1_555
C7 C6 1_555 1_555
C8 C7 1_555 1_555
H6 C8 1_555 1_555
C9 C10 1_555 1_555
C10 C1 1_555 1_555
C11 C4 1_555 1_555
C12 C5 1_555 1_555
C13 C8 1_555 1_555
C14 C2 1_555 1_555
C15 C7 1_555 1_555
C16 C9 1_555 1_555
H7 C16 1_555 1_555
H8 C16 1_555 1_555
C17 C16 1_555 1_555
H9 C17 1_555 1_555
H10 C17 1_555 1_555
C18 C17 1_555 1_555
H11 C18 1_555 1_555
H12 C18 1_555 1_555
H13 C18 1_555 1_555
C19 H14 1_555 1_555
C20 C19 1_555 1_555
H15 C20 1_555 1_555
C21 H16 1_555 1_555
C22 H17 1_555 1_555
H18 C22 1_555 1_555
C23 C22 1_555 1_555
H19 C23 1_555 1_555
H20 C23 1_555 1_555
N1 C20 1_555 1_555
N2 C19 1_555 1_555
O1 C14 1_555 1_555
O2 C14 1_555 1_555
O3 C15 1_555 1_555
O4 C15 1_555 1_555
Zn1 N1 1_555 1_555
C16E C9 1_555 1_555
H7E C16E 1_555 1_555
H8E C16E 1_555 1_555
C17E C16E 1_555 1_555
H9E C17E 1_555 1_555
H10E C17E 1_555 1_555
C18E C17E 1_555 1_555
H11E C18E 1_555 1_555
H12E C18E 1_555 1_555
H13E C18E 1_555 1_555
C19D H14D 1_555 1_555
C20D C19D 1_555 1_555
H15D C20D 1_555 1_555
C21D H16D 1_555 1_555
C22D H17D 1_555 1_555
H18D C22D 1_555 1_555
C23D C23 1_555 1_555
H19D C23D 1_555 1_555
H20D C23D 1_555 1_555
N1D C20D 1_555 1_555
N1E Zn1 1_555 1_555
N2D C19D 1_555 1_555
O3C Zn1 1_555 1_555
Zn1C O3 1_555 1_555
Zn1A N1D 1_555 1_555
C9 C13 1_555 1_555
C10 C11 1_555 1_555
C11 C12 1_555 1_555
C12 C13 1_555 1_555
C21 N1 1_555 1_555
C21 N2 1_555 1_555
C22 N2 1_555 1_555
O1 Zn1 1_555 1_555
C21D N1D 1_555 1_555
C21D N2D 1_555 1_555
C22D C23D 1_555 1_555
C22D N2D 1_555 1_555

#END
