
#######################################################################
#
#                 Cambridge Crystallographic Data Centre
#                                CCDC 
#
#######################################################################
#
# If this CIF has been generated from an entry in the Cambridge 
# Structural Database, then it will include bibliographic, chemical, 
# crystal, experimental, refinement or atomic coordinate data resulting 
# from the CCDC's data processing and validation procedures.
#
#######################################################################

data_MOYPEW
_symmetry_cell_setting           monoclinic
_symmetry_space_group_name_H-M   'P 21/c'
_symmetry_Int_Tables_number      14
_space_group_name_Hall           '-P 2ybc'
loop_
_symmetry_equiv_pos_site_id
_symmetry_equiv_pos_as_xyz
1 x,y,z
2 -x,1/2+y,1/2-z
3 -x,-y,-z
4 x,1/2-y,1/2+z
_cell_length_a                   13.1771(9)
_cell_length_b                   11.5147(8)
_cell_length_c                   22.2995(15)
_cell_angle_alpha                90
_cell_angle_beta                 95.6420(10)
_cell_angle_gamma                90
_cell_volume                     3367.12
loop_
_atom_site_label
_atom_site_type_symbol
_atom_site_fract_x
_atom_site_fract_y
_atom_site_fract_z
C1 C 0.7692(4) 0.8907(4) 0.8827(2)
H1 H 0.8369 0.9076 0.8777
C2 C 0.6905(4) 0.9518(4) 0.8502(2)
C3 C 0.5886(4) 0.9230(4) 0.8560(2)
H2 H 0.5367 0.9614 0.8326
C4 C 0.5642(4) 0.8385(5) 0.8961(2)
H3 H 0.4965 0.8200 0.9001
C5 C 0.5576(4) 0.6512(5) 1.0058(2)
H4 H 0.4914 0.6744 0.9929
C6 C 0.5756(4) 0.5723(5) 1.0523(2)
H5 H 0.5211 0.5421 1.0707
C7 C 0.6740(4) 0.5377(4) 1.0717(2)
C8 C 0.7574(4) 0.5838(4) 1.0445(2)
H6 H 0.8236 0.5614 1.0576
C9 C 0.7392(4) 0.6624(4) 0.9983(2)
C10 C 0.6390(4) 0.6952(4) 0.9787(2)
C11 C 0.6422(4) 0.7819(4) 0.9303(2)
C12 C 0.7455(4) 0.8044(4) 0.9226(2)
C13 C 0.8151(4) 0.7221(4) 0.9595(3)
C14 C 0.6921(5) 0.4491(4) 1.1212(2)
C15 C 0.7144(4) 1.0484(4) 0.8075(2)
C16 C 0.9040(5) 0.7828(6) 0.9976(3)
H7 H 0.9509 0.8125 0.9704
H8 H 0.9403 0.7246 1.0228
C17 C 0.8767(5) 0.8788(6) 1.0365(3)
H9 H 0.8451 0.9408 1.0119
H10 H 0.8279 0.8517 1.0632
C18 C 0.9729(6) 0.9256(8) 1.0743(3)
H11 H 0.9540 0.9883 1.0994
H12 H 1.0034 0.8645 1.0992
H13 H 1.0208 0.9532 1.0479
C19 C 0.8573(7) 0.6336(6) 0.9163(4)
H14 H 0.9026 0.6789 0.8937
H15 H 0.7992 0.6146 0.8878
C20 C 0.9086(19) 0.5267(10) 0.9267(8)
H16 H 0.9781 0.5413 0.9437
H17 H 0.8748 0.4818 0.9558
C21 C 0.9101(12) 0.4574(9) 0.8689(5)
H18 H 0.8733 0.3862 0.8723
H19 H 0.8786 0.5019 0.8357
H20 H 0.9794 0.4404 0.8621
C22 C 0.6066(4) 1.3864(5) 0.7949(3)
H21 H 0.5947 1.3286 0.8225
C23 C 0.5802(4) 1.4981(5) 0.7996(3)
H22 H 0.5459 1.5311 0.8299
C24 C 0.6565(4) 1.4725(4) 0.7188(2)
H23 H 0.6849 1.4877 0.6830
C25 C 0.5934(4) 1.6767(4) 0.7354(3)
H24 H 0.5277 1.6823 0.7118
H25 H 0.5894 1.7209 0.7721
C26 C 0.6738(4) 1.7307(5) 0.7000(3)
H26 H 0.6777 1.6864 0.6633
H27 H 0.6527 1.8089 0.6885
C27 C 0.7796(4) 1.7358(4) 0.7342(2)
H28 H 0.8025 1.6574 0.7441
H29 H 0.7757 1.7776 0.7717
C28 C 0.8565(4) 1.7945(5) 0.6986(2)
H30 H 0.8303 1.8698 0.6850
H31 H 0.8658 1.7482 0.6632
C29 C 1.0764(4) 1.8780(5) 0.7971(3)
H32 H 1.1128 1.9247 0.8256
C30 C 0.9793(4) 1.8963(5) 0.7739(3)
H33 H 0.9370 1.9566 0.7836
C31 C 1.0370(4) 1.7418(4) 0.7342(2)
H34 H 1.0399 1.6754 0.7107
N1 N 0.6132(3) 1.5538(4) 0.7514(2)
N2 N 0.6539(3) 1.3698(3) 0.74338(19)
N3 N 1.1131(3) 1.7792(3) 0.7718(2)
N4 N 0.9551(3) 1.8101(3) 0.73367(19)
O1 O 0.6188(3) 0.3906(3) 1.13643(17)
O2 O 0.7814(3) 0.4357(3) 1.14587(17)
O3 O 0.8045(3) 1.0698(3) 0.80070(19)
O4 O 0.6414(3) 1.1024(3) 0.78057(18)
Cd1 Cd 0.72882(3) 1.20379(3) 0.713370(16)
N3A N 0.8869(3) 1.2792(3) 0.7282(2)
O1C O 0.6188(3) 1.1094(3) 0.63643(17)
O2C O 0.7814(3) 1.0643(3) 0.64587(17)
Cd1A Cd 1.27118(3) 1.70379(3) 0.786630(16)
Cd1C Cd 0.72882(3) 0.29621(3) 1.213370(16)
C32 C 0.7491(6) 0.2000(6) 0.0654(3)
H35 H 0.7979 0.2585 0.0707
C33 C 0.6374(5) 0.0840(7) -0.0015(3)
H36 H 0.6189 0.0767 -0.0441
H37 H 0.6653 0.0118 0.0140
H38 H 0.5781 0.1031 0.0182
C34 C 0.7405(9) 0.2370(9) -0.0420(4)
H39 H 0.7054 0.2045 -0.0779
H40 H 0.7220 0.3172 -0.0387
H41 H 0.8128 0.2309 -0.0439
N5 N 0.7127(5) 0.1748(5) 0.0094(2)
O5 O 0.7242(4) 0.1531(4) 0.1106(2)
loop_
_geom_bond_atom_site_label_1
_geom_bond_atom_site_label_2
_geom_bond_site_symmetry_1
_geom_bond_site_symmetry_2
C1 H1 1_555 1_555
C2 C1 1_555 1_555
C3 C2 1_555 1_555
H2 C3 1_555 1_555
C4 C3 1_555 1_555
H3 C4 1_555 1_555
C5 H4 1_555 1_555
C6 C5 1_555 1_555
H5 C6 1_555 1_555
C7 C6 1_555 1_555
C8 C7 1_555 1_555
H6 C8 1_555 1_555
C9 C8 1_555 1_555
C10 C5 1_555 1_555
C11 C4 1_555 1_555
C12 C1 1_555 1_555
C13 C9 1_555 1_555
C14 C7 1_555 1_555
C15 C2 1_555 1_555
C16 C13 1_555 1_555
H7 C16 1_555 1_555
H8 C16 1_555 1_555
C17 C16 1_555 1_555
H9 C17 1_555 1_555
H10 C17 1_555 1_555
C18 C17 1_555 1_555
H11 C18 1_555 1_555
H12 C18 1_555 1_555
H13 C18 1_555 1_555
C19 C13 1_555 1_555
H14 C19 1_555 1_555
H15 C19 1_555 1_555
C20 C19 1_555 1_555
H16 C20 1_555 1_555
H17 C20 1_555 1_555
C21 C20 1_555 1_555
H18 C21 1_555 1_555
H19 C21 1_555 1_555
H20 C21 1_555 1_555
C22 H21 1_555 1_555
C23 C22 1_555 1_555
H22 C23 1_555 1_555
C24 H23 1_555 1_555
C25 H24 1_555 1_555
H25 C25 1_555 1_555
C26 C25 1_555 1_555
H26 C26 1_555 1_555
H27 C26 1_555 1_555
C27 C26 1_555 1_555
H28 C27 1_555 1_555
H29 C27 1_555 1_555
C28 C27 1_555 1_555
H30 C28 1_555 1_555
H31 C28 1_555 1_555
C29 H32 1_555 1_555
C30 C29 1_555 1_555
H33 C30 1_555 1_555
C31 H34 1_555 1_555
C32 H35 1_555 1_555
C33 H36 1_555 1_555
H37 C33 1_555 1_555
H38 C33 1_555 1_555
C34 H39 1_555 1_555
H40 C34 1_555 1_555
H41 C34 1_555 1_555
N1 C23 1_555 1_555
N2 C22 1_555 1_555
N3 C29 1_555 1_555
N4 C28 1_555 1_555
N5 C32 1_555 1_555
O1 C14 1_555 1_555
O2 C14 1_555 1_555
O3 C15 1_555 1_555
O4 C15 1_555 1_555
O5 C32 1_555 1_555
Cd1 N2 1_555 1_555
N3A Cd1 1_555 1_555
O1C Cd1 1_555 1_555
O2C Cd1 1_555 1_555
Cd1A N3 1_555 1_555
Cd1C O1 1_555 1_555
C9 C10 1_555 1_555
C10 C11 1_555 1_555
C11 C12 1_555 1_555
C12 C13 1_555 1_555
C24 N1 1_555 1_555
C24 N2 1_555 1_555
C25 N1 1_555 1_555
C30 N4 1_555 1_555
C31 N3 1_555 1_555
C31 N4 1_555 1_555
C33 N5 1_555 1_555
C34 N5 1_555 1_555
O2 Cd1C 1_555 1_555
O4 Cd1 1_555 1_555

#END
