
#######################################################################
#
#                 Cambridge Crystallographic Data Centre
#                                CCDC 
#
#######################################################################
#
# If this CIF has been generated from an entry in the Cambridge 
# Structural Database, then it will include bibliographic, chemical, 
# crystal, experimental, refinement or atomic coordinate data resulting 
# from the CCDC's data processing and validation procedures.
#
#######################################################################

data_MOYQEX
_symmetry_cell_setting           monoclinic
_symmetry_space_group_name_H-M   'P 21/n'
_symmetry_Int_Tables_number      14
_space_group_name_Hall           '-P 2yn'
loop_
_symmetry_equiv_pos_site_id
_symmetry_equiv_pos_as_xyz
1 x,y,z
2 1/2-x,1/2+y,1/2-z
3 -x,-y,-z
4 1/2+x,1/2-y,1/2+z
_cell_length_a                   14.2359(17)
_cell_length_b                   12.5159(15)
_cell_length_c                   18.101(2)
_cell_angle_alpha                90
_cell_angle_beta                 107.098(3)
_cell_angle_gamma                90
_cell_volume                     3082.61
loop_
_atom_site_label
_atom_site_type_symbol
_atom_site_fract_x
_atom_site_fract_y
_atom_site_fract_z
Co1 Co 0.25736(4) 0.66534(5) 1.02313(3)
Cl1 Cl 0.22959(12) 0.83776(12) 1.03711(8)
Cl2 Cl 0.29081(9) 0.57582(11) 1.13541(6)
N1 N 0.3664(2) 0.6428(3) 0.97560(19)
N2 N 0.4462(2) 0.5972(3) 0.89166(17)
N3 N 0.4763(2) 0.9735(3) 0.59734(18)
N4 N 0.3600(2) 1.0969(3) 0.55235(18)
C1 C 0.4661(3) 0.6673(4) 1.0069(2)
C2 C 0.5143(4) 0.7132(4) 1.0756(3)
H3 H 0.4801 0.7342 1.1098
C3 C 0.6151(4) 0.7284(5) 1.0942(3)
H4 H 0.6496 0.7555 1.1424
C4 C 0.6651(4) 0.7026(5) 1.0397(3)
H5 H 0.7316 0.7185 1.0511
C5 C 0.6181(3) 0.6548(4) 0.9703(3)
H6 H 0.6516 0.6339 0.9357
C6 C 0.5189(3) 0.6397(4) 0.9553(2)
C7 C 0.3594(3) 0.6006(4) 0.9070(2)
H7 H 0.3008 0.5760 0.8732
C8 C 0.4627(3) 0.5572(4) 0.8207(2)
H8 H 0.4057 0.5164 0.7921
H9 H 0.5186 0.5091 0.8343
C9 C 0.4819(3) 0.6454(4) 0.7682(2)
C10 C 0.4094(3) 0.7180(4) 0.7324(3)
H10 H 0.3488 0.7150 0.7420
C11 C 0.4254(3) 0.7946(4) 0.6828(3)
H11 H 0.3765 0.8440 0.6608
C12 C 0.5127(3) 0.7983(4) 0.6659(2)
C13 C 0.5862(3) 0.7280(4) 0.7023(3)
H12 H 0.6473 0.7317 0.6935
C14 C 0.5690(3) 0.6530(4) 0.7514(3)
H13 H 0.6187 0.6048 0.7744
C15 C 0.5298(3) 0.8726(4) 0.6047(2)
H14 H 0.5995 0.8878 0.6172
H15 H 0.5102 0.8362 0.5552
C16 C 0.5040(3) 1.0610(4) 0.6454(2)
C17 C 0.5857(4) 1.0802(5) 0.7105(3)
H16 H 0.6351 1.0299 0.7288
C18 C 0.5871(4) 1.1779(5) 0.7448(3)
H17 H 0.6390 1.1937 0.7884
C19 C 0.5150(4) 1.2540(4) 0.7174(3)
H18 H 0.5208 1.3192 0.7430
C20 C 0.4338(4) 1.2373(4) 0.6530(2)
H19 H 0.3849 1.2885 0.6356
C21 C 0.4310(3) 1.1377(4) 0.6165(2)
C22 C 0.3919(3) 0.9993(4) 0.5431(2)
H20 H 0.3592 0.9536 0.5034
Co1A Co 0.24264(4) 1.16534(5) 0.47687(3)
N4A N 0.1400(2) 0.5969(3) 0.94765(18)
O1 O 0.2842(3) 1.0383(5) 0.7504(2)
N5 N 0.3956(3) 0.9650(4) 0.8498(3)
C23 C 0.3642(4) 1.0212(5) 0.7840(3)
H21 H 0.4121 1.0489 0.7639
C24 C 0.3246(6) 0.9182(8) 0.8822(4)
H22 H 0.2689 0.8945 0.8412
H23 H 0.3040 0.9704 0.9130
H24 H 0.3536 0.8584 0.9139
C25 C 0.5045(5) 0.9472(6) 0.8844(3)
H25 H 0.5306 0.9146 0.8466
H26 H 0.5157 0.9010 0.9285
H27 H 0.5365 1.0145 0.9001
O2 O 0.8647(7) 0.8648(7) 0.9222(5)
C26 C 0.8903(5) 0.9534(11) 0.8753(4)
O3 O 0.8495(3) 0.7239(4) 0.9525(2)
H1 H 0.8165(10) 0.7379(18) 0.9063(4)
H2 H 0.8988(5) 0.7649(8) 0.9683(12)
O4? O 0.8184(8) 0.8899(8) 0.8816(6)
loop_
_geom_bond_atom_site_label_1
_geom_bond_atom_site_label_2
_geom_bond_site_symmetry_1
_geom_bond_site_symmetry_2
Co1 Cl1 1_555 1_555
Cl2 Co1 1_555 1_555
O1 C23 1_555 1_555
O2 C26 1_555 1_555
O3 H1 1_555 1_555
H2 O3 1_555 1_555
N1 Co1 1_555 1_555
N2 C6 1_555 1_555
N3 C15 1_555 1_555
N4 C21 1_555 1_555
N5 C23 1_555 1_555
C1 N1 1_555 1_555
C2 C1 1_555 1_555
H3 C2 1_555 1_555
C3 C2 1_555 1_555
H4 C3 1_555 1_555
C4 C3 1_555 1_555
H5 C4 1_555 1_555
C5 C4 1_555 1_555
H6 C5 1_555 1_555
C6 C1 1_555 1_555
C7 N1 1_555 1_555
H7 C7 1_555 1_555
C8 N2 1_555 1_555
H8 C8 1_555 1_555
H9 C8 1_555 1_555
C9 C8 1_555 1_555
C10 C9 1_555 1_555
H10 C10 1_555 1_555
C11 C10 1_555 1_555
H11 C11 1_555 1_555
C12 C11 1_555 1_555
C13 C12 1_555 1_555
H12 C13 1_555 1_555
C14 C9 1_555 1_555
H13 C14 1_555 1_555
C15 C12 1_555 1_555
H14 C15 1_555 1_555
H15 C15 1_555 1_555
C16 N3 1_555 1_555
C17 C16 1_555 1_555
H16 C17 1_555 1_555
C18 C17 1_555 1_555
H17 C18 1_555 1_555
C19 C18 1_555 1_555
H18 C19 1_555 1_555
C20 C19 1_555 1_555
H19 C20 1_555 1_555
C21 C16 1_555 1_555
C22 N3 1_555 1_555
H20 C22 1_555 1_555
C23 H21 1_555 1_555
C24 N5 1_555 1_555
H22 C24 1_555 1_555
H23 C24 1_555 1_555
H24 C24 1_555 1_555
C25 N5 1_555 1_555
H25 C25 1_555 1_555
H26 C25 1_555 1_555
H27 C25 1_555 1_555
Co1A N4 1_555 1_555
N4A Co1 1_555 1_555
N2 C7 1_555 1_555
N4 C22 1_555 1_555
C5 C6 1_555 1_555
C13 C14 1_555 1_555
C20 C21 1_555 1_555

#END
