
#######################################################################
#
#                 Cambridge Crystallographic Data Centre
#                                CCDC 
#
#######################################################################
#
# If this CIF has been generated from an entry in the Cambridge 
# Structural Database, then it will include bibliographic, chemical, 
# crystal, experimental, refinement or atomic coordinate data resulting 
# from the CCDC's data processing and validation procedures.
#
#######################################################################

data_MOYQAT
_symmetry_cell_setting           monoclinic
_symmetry_space_group_name_H-M   'P 21/n'
_symmetry_Int_Tables_number      14
_space_group_name_Hall           '-P 2yn'
loop_
_symmetry_equiv_pos_site_id
_symmetry_equiv_pos_as_xyz
1 x,y,z
2 1/2-x,1/2+y,1/2-z
3 -x,-y,-z
4 1/2+x,1/2-y,1/2+z
_cell_length_a                   13.0172(2)
_cell_length_b                   8.82010(10)
_cell_length_c                   14.7925(2)
_cell_angle_alpha                90
_cell_angle_beta                 106.8030(10)
_cell_angle_gamma                90
_cell_volume                     1625.86
loop_
_atom_site_label
_atom_site_type_symbol
_atom_site_fract_x
_atom_site_fract_y
_atom_site_fract_z
Co1 Co 0.5000 0.5000 0.0000
O1 O 0.63891(14) 0.3953(2) 0.09626(12)
H1 H 0.624(2) 0.343(3) 0.1390(14)
H2 H 0.6895(18) 0.458(3) 0.1157(17)
O2 O 0.58630(15) 0.7033(2) 0.02130(12)
N1 N 0.44740(16) 0.5571(2) 0.11867(13)
N2 N 0.46128(16) 0.6612(3) 0.25890(13)
N3 N 0.64221(19) 0.9320(3) -0.01377(16)
C1 C 0.3449(2) 0.5700(3) 0.12997(16)
C2 C 0.2446(2) 0.5336(3) 0.06905(19)
H3 H 0.2375 0.4881 0.0108
C3 C 0.1566(2) 0.5680(4) 0.0987(2)
H4 H 0.0886 0.5439 0.0597
C4 C 0.1654(2) 0.6376(4) 0.1851(2)
H5 H 0.1034 0.6609 0.2015
C5 C 0.2635(2) 0.6724(4) 0.2465(2)
H6 H 0.2699 0.7179 0.3046
C6 C 0.3523(2) 0.6363(3) 0.21735(17)
C7 C 0.51183(19) 0.6128(3) 0.19684(16)
H7 H 0.5858 0.6183 0.2083
C8 C 0.5101(2) 0.7186(3) 0.35418(17)
H8 H 0.4741 0.8114 0.3630
H9 H 0.5849 0.7426 0.3618
C9 C 0.5029(2) 0.6038(3) 0.42883(16)
C10 C 0.5365(3) 0.4549(3) 0.42611(19)
H10 H 0.5610 0.4233 0.3760
C11 C 0.4657(2) 0.6477(3) 0.50342(18)
H11 H 0.4421 0.7466 0.5064
C12 C 0.5998(2) 0.7967(3) -0.03630(19)
H12 H 0.5787 0.7697 -0.0998
C13 C 0.6741(3) 0.9809(4) 0.0836(2)
H13 H 0.6803 0.8942 0.1241
H14 H 0.6212 1.0490 0.0939
H15 H 0.7421 1.0317 0.0974
C14 C 0.6516(4) 1.0427(4) -0.0843(3)
H16 H 0.6173 1.0039 -0.1464
H17 H 0.7260 1.0614 -0.0778
H18 H 0.6175 1.1357 -0.0752
Co1_2 Co 0.5000 0.5000 1.0000
O1B O 0.36109(14) 0.6047(2) -0.09626(12)
H1B H 0.376(2) 0.657(3) -0.1390(14)
H2B H 0.3105(18) 0.542(3) -0.1157(17)
O2B O 0.41370(15) 0.2967(2) -0.02130(12)
N1B N 0.55260(16) 0.4429(2) 0.88133(13)
N1B_2 N 0.55260(16) 0.4429(2) -0.11867(13)
N2B N 0.53872(16) 0.3388(3) 0.74110(13)
N3B N 0.35779(19) 0.0680(3) 0.01377(16)
C1B C 0.6551(2) 0.4300(3) 0.87003(16)
C2B C 0.7554(2) 0.4664(3) 0.93095(19)
H3B H 0.7625 0.5119 0.9892
C3B C 0.8434(2) 0.4320(4) 0.9013(2)
H4B H 0.9114 0.4561 0.9403
C4B C 0.8346(2) 0.3624(4) 0.8149(2)
H5B H 0.8966 0.3391 0.7985
C5B C 0.7365(2) 0.3276(4) 0.7535(2)
H6B H 0.7301 0.2821 0.6954
C6B C 0.6477(2) 0.3637(3) 0.78265(17)
C7B C 0.48817(19) 0.3872(3) 0.80316(16)
H7B H 0.4142 0.3817 0.7917
C8B C 0.4899(2) 0.2814(3) 0.64582(17)
H8B H 0.5259 0.1886 0.6370
H9B H 0.4151 0.2574 0.6382
C9B C 0.4971(2) 0.3962(3) 0.57117(16)
C10B C 0.4635(3) 0.5451(3) 0.57389(19)
H10B H 0.4390 0.5767 0.6240
C11B C 0.5343(2) 0.3523(3) 0.49658(18)
H11B H 0.5579 0.2534 0.4936
C12B C 0.4002(2) 0.2033(3) 0.03630(19)
H12B H 0.4213 0.2303 0.0998
C13B C 0.3259(3) 0.0191(4) -0.0836(2)
H13B H 0.3197 0.1058 -0.1241
H14B H 0.3788 -0.0490 -0.0939
H15B H 0.2579 -0.0317 -0.0974
C14B C 0.3484(4) -0.0427(4) 0.0843(3)
H16B H 0.3827 -0.0039 0.1464
H17B H 0.2740 -0.0614 0.0778
H18B H 0.3825 -0.1357 0.0752
O3 O 0.7301(2) 0.1333(4) 0.2793(2)
O4 O 0.57770(18) 0.2354(3) 0.24090(15)
O5 O 0.6176(3) 0.0647(5) 0.3460(2)
N4 N 0.6417(2) 0.1430(3) 0.28822(16)
loop_
_geom_bond_atom_site_label_1
_geom_bond_atom_site_label_2
_geom_bond_site_symmetry_1
_geom_bond_site_symmetry_2
Co1 O1 1_555 1_555
O1 H1 1_555 1_555
H2 O1 1_555 1_555
O2 Co1 1_555 1_555
O3 N4 1_555 1_555
O4 N4 1_555 1_555
O5 N4 1_555 1_555
N1 Co1 1_555 1_555
N2 C6 1_555 1_555
N3 C12 1_555 1_555
C1 N1 1_555 1_555
C2 C1 1_555 1_555
H3 C2 1_555 1_555
C3 C2 1_555 1_555
H4 C3 1_555 1_555
C4 C3 1_555 1_555
H5 C4 1_555 1_555
C5 C4 1_555 1_555
H6 C5 1_555 1_555
C6 C1 1_555 1_555
C7 N1 1_555 1_555
H7 C7 1_555 1_555
C8 N2 1_555 1_555
H8 C8 1_555 1_555
H9 C8 1_555 1_555
C9 C8 1_555 1_555
C10 C9 1_555 1_555
H10 C10 1_555 1_555
C11 C9 1_555 1_555
H11 C11 1_555 1_555
C12 O2 1_555 1_555
H12 C12 1_555 1_555
C13 N3 1_555 1_555
H13 C13 1_555 1_555
H14 C13 1_555 1_555
H15 C13 1_555 1_555
C14 N3 1_555 1_555
H16 C14 1_555 1_555
H17 C14 1_555 1_555
H18 C14 1_555 1_555
Co1_2 N1B 1_555 1_555
O1B Co1 1_555 1_555
H1B O1B 1_555 1_555
H2B O1B 1_555 1_555
O2B Co1 1_555 1_555
N1B C1B 1_555 1_555
N1B_2 Co1 1_555 1_555
N2B C6B 1_555 1_555
N3B C12B 1_555 1_555
C1B C2B 1_555 1_555
C2B H3B 1_555 1_555
C3B C2B 1_555 1_555
H4B C3B 1_555 1_555
C4B C3B 1_555 1_555
H5B C4B 1_555 1_555
C5B C4B 1_555 1_555
H6B C5B 1_555 1_555
C6B C1B 1_555 1_555
C7B N1B 1_555 1_555
H7B C7B 1_555 1_555
C8B N2B 1_555 1_555
H8B C8B 1_555 1_555
H9B C8B 1_555 1_555
C9B C8B 1_555 1_555
C10B C11 1_555 1_555
H10B C10B 1_555 1_555
C11B C10 1_555 1_555
H11B C11B 1_555 1_555
C12B O2B 1_555 1_555
H12B C12B 1_555 1_555
C13B N3B 1_555 1_555
H13B C13B 1_555 1_555
H14B C13B 1_555 1_555
H15B C13B 1_555 1_555
C14B N3B 1_555 1_555
H16B C14B 1_555 1_555
H17B C14B 1_555 1_555
H18B C14B 1_555 1_555
N2 C7 1_555 1_555
C5 C6 1_555 1_555
N2B C7B 1_555 1_555
C5B C6B 1_555 1_555
C9B C10B 1_555 1_555
C9B C11B 1_555 1_555

#END
