
#######################################################################
#
#                 Cambridge Crystallographic Data Centre
#                                CCDC 
#
#######################################################################
#
# If this CIF has been generated from an entry in the Cambridge 
# Structural Database, then it will include bibliographic, chemical, 
# crystal, experimental, refinement or atomic coordinate data resulting 
# from the CCDC's data processing and validation procedures.
#
#######################################################################

data_MOYSEA
_symmetry_cell_setting           monoclinic
_symmetry_space_group_name_H-M   'P 21/n'
_symmetry_Int_Tables_number      14
_space_group_name_Hall           '-P 2yn'
loop_
_symmetry_equiv_pos_site_id
_symmetry_equiv_pos_as_xyz
1 x,y,z
2 1/2-x,1/2+y,1/2-z
3 -x,-y,-z
4 1/2+x,1/2-y,1/2+z
_cell_length_a                   11.5880(4)
_cell_length_b                   17.2321(4)
_cell_length_c                   13.8060(4)
_cell_angle_alpha                90
_cell_angle_beta                 110.340(4)
_cell_angle_gamma                90
_cell_volume                     2584.96
loop_
_atom_site_label
_atom_site_type_symbol
_atom_site_fract_x
_atom_site_fract_y
_atom_site_fract_z
Ni1 Ni 1.0000 0.5000 0.5000
Ni2 Ni 1.0000 0.0000 1.0000
Br1 Br 1.12805(5) 0.25533(3) 1.01296(3)
Br2 Br 1.14884(6) 0.40304(3) 0.86370(4)
Br3 Br 0.95888(5) 0.21276(3) 0.51269(3)
Br4 Br 0.91259(7) 0.07122(3) 0.65965(4)
C1 C 1.0103(3) 0.1088(2) 0.8917(3)
C2 C 1.0207(3) 0.1753(2) 0.8241(3)
C3 C 1.0721(4) 0.2454(2) 0.8672(3)
C4 C 1.0839(4) 0.3060(2) 0.8054(3)
C5 C 1.0495(3) 0.2969(2) 0.6997(3)
C6 C 0.9988(4) 0.2265(2) 0.6563(3)
C7 C 0.9827(4) 0.1666(2) 0.7182(3)
C8 C 1.0765(4) 0.3608(2) 0.6338(3)
C9 C 1.0073(4) 0.1047(2) 1.1733(3)
H1 H 0.9223 0.0988 1.1458
C10 C 1.0568(4) 0.1509(3) 1.2594(3)
H2 H 1.0052 0.1748 1.2891
C11 C 1.1825(4) 0.1618(3) 1.3017(3)
C12 C 1.2539(4) 0.1240(3) 1.2543(3)
H3 H 1.3390 0.1293 1.2803
C13 C 1.1984(4) 0.0783(3) 1.1680(3)
H4 H 1.2480 0.0538 1.1370
C14 C 1.2412(5) 0.2095(3) 1.3973(3)
H5 H 1.1819 0.2469 1.4042
H6 H 1.3102 0.2380 1.3906
C15 C 1.2860(5) 0.1593(3) 1.4938(3)
H7 H 1.3459 0.1222 1.4874
H8 H 1.2172 0.1305 1.5005
C16 C 1.3450(5) 0.2092(3) 1.5909(3)
H9 H 1.4160 0.2360 1.5853
H10 H 1.2863 0.2481 1.5949
C17 C 1.3846(4) 0.1618(2) 1.6884(3)
C18 C 1.4828(5) 0.1122(3) 1.7144(4)
H11 H 1.5293 0.1078 1.6717
C19 C 1.5134(5) 0.0684(3) 1.8040(3)
H12 H 1.5802 0.0348 1.8191
C20 C 1.3590(4) 0.1216(3) 1.8456(3)
H13 H 1.3158 0.1261 1.8909
C21 C 1.3227(4) 0.1667(3) 1.7583(3)
H14 H 1.2566 0.2006 1.7459
N1 N 1.0770(3) 0.06784(17) 1.1275(2)
N2 N 1.4524(3) 0.07168(18) 1.8693(2)
O1 O 0.9160(2) 0.10107(15) 0.91406(19)
O2 O 1.0991(2) 0.06196(15) 0.92295(18)
O3 O 0.9904(2) 0.40651(14) 0.59130(19)
O4 O 1.1813(3) 0.35920(19) 0.6296(3)
O5 O 0.8164(2) 0.52130(15) 0.4824(2)
Br1B Br 0.87195(5) -0.25533(3) 0.98704(3)
Br2B Br 0.85116(6) -0.40304(3) 1.13630(4)
Br3B Br 1.04112(5) -0.21276(3) 1.48731(3)
Br4B Br 1.08741(7) -0.07122(3) 1.34035(4)
C1B C 0.9897(3) -0.1088(2) 1.1083(3)
C2B C 0.9793(3) -0.1753(2) 1.1759(3)
C3B C 0.9279(4) -0.2454(2) 1.1328(3)
C4B C 0.9161(4) -0.3060(2) 1.1946(3)
C5B C 0.9505(3) -0.2969(2) 1.3003(3)
C6B C 1.0012(4) -0.2265(2) 1.3437(3)
C7B C 1.0173(4) -0.1666(2) 1.2818(3)
C8B C 0.9235(4) -0.3608(2) 1.3662(3)
C9B C 0.9927(4) -0.1047(2) 0.8267(3)
H1B H 1.0777 -0.0988 0.8542
C10B C 0.9432(4) -0.1509(3) 0.7406(3)
H2B H 0.9948 -0.1748 0.7109
C11B C 0.8175(4) -0.1618(3) 0.6983(3)
C12B C 0.7461(4) -0.1240(3) 0.7457(3)
H3B H 0.6610 -0.1293 0.7197
C13B C 0.8016(4) -0.0783(3) 0.8320(3)
H4B H 0.7520 -0.0538 0.8630
C14B C 0.7588(5) -0.2095(3) 0.6027(3)
H5B H 0.8181 -0.2469 0.5958
H6B H 0.6898 -0.2380 0.6094
C15B C 0.7140(5) -0.1593(3) 0.5062(3)
H7B H 0.6541 -0.1222 0.5126
H8B H 0.7828 -0.1305 0.4995
C16B C 0.6550(5) -0.2092(3) 0.4091(3)
H9B H 0.5840 -0.2360 0.4147
H10B H 0.7137 -0.2481 0.4051
C17B C 0.6154(4) -0.1618(2) 0.3116(3)
C18B C 0.5172(5) -0.1122(3) 0.2856(4)
H11B H 0.4707 -0.1078 0.3283
C19B C 0.4866(5) -0.0684(3) 0.1960(3)
H12B H 0.4198 -0.0348 0.1809
C20B C 0.6410(4) -0.1216(3) 0.1544(3)
H13B H 0.6842 -0.1261 0.1091
C21B C 0.6773(4) -0.1667(3) 0.2417(3)
H14B H 0.7434 -0.2006 0.2541
N1B N 0.9230(3) -0.06784(17) 0.8725(2)
N2B N 0.5476(3) -0.07168(18) 0.1307(2)
O1B O 1.0840(2) -0.10107(15) 1.08594(19)
O2B O 0.9009(2) -0.06196(15) 1.07705(18)
O3B O 1.0096(2) -0.40651(14) 1.40870(19)
O4B O 0.8187(3) -0.35920(19) 1.3704(3)
O5B O 1.1836(2) 0.47870(15) 0.5176(2)
Ni1_2 Ni 1.0000 -0.5000 1.5000
Ni1A Ni 0.5000 0.0000 0.0000
Ni1A_2 Ni 1.5000 0.0000 2.0000
N2A N 1.0476(3) 0.57168(18) 0.6307(2)
N2C N 0.9524(3) 0.42832(18) 0.3693(2)
O3B_2 O 1.0096(2) 0.59349(14) 0.40870(19)
loop_
_geom_bond_atom_site_label_1
_geom_bond_atom_site_label_2
_geom_bond_site_symmetry_1
_geom_bond_site_symmetry_2
Ni1 O3 1_555 1_555
Ni2 N1 1_555 1_555
Br1 C3 1_555 1_555
Br2 C4 1_555 1_555
Br3 C6 1_555 1_555
Br4 C7 1_555 1_555
C1 C2 1_555 1_555
C2 C3 1_555 1_555
C3 C4 1_555 1_555
C4 C5 1_555 1_555
C5 C6 1_555 1_555
C6 C7 1_555 1_555
C7 C2 1_555 1_555
C8 C5 1_555 1_555
C9 H1 1_555 1_555
C10 C9 1_555 1_555
H2 C10 1_555 1_555
C11 C10 1_555 1_555
C12 C11 1_555 1_555
H3 C12 1_555 1_555
C13 C12 1_555 1_555
H4 C13 1_555 1_555
C14 C11 1_555 1_555
H5 C14 1_555 1_555
H6 C14 1_555 1_555
C15 C14 1_555 1_555
H7 C15 1_555 1_555
H8 C15 1_555 1_555
C16 C15 1_555 1_555
H9 C16 1_555 1_555
H10 C16 1_555 1_555
C17 C16 1_555 1_555
C18 C17 1_555 1_555
H11 C18 1_555 1_555
C19 C18 1_555 1_555
H12 C19 1_555 1_555
C20 H13 1_555 1_555
C21 C17 1_555 1_555
H14 C21 1_555 1_555
N1 C9 1_555 1_555
N2 C19 1_555 1_555
O1 Ni2 1_555 1_555
O2 Ni2 1_555 1_555
O3 C8 1_555 1_555
O4 C8 1_555 1_555
O5 Ni1 1_555 1_555
Br1B C3B 1_555 1_555
Br2B C4B 1_555 1_555
Br3B C6B 1_555 1_555
Br4B C7B 1_555 1_555
C1B C2B 1_555 1_555
C2B C3B 1_555 1_555
C3B C4B 1_555 1_555
C4B C5B 1_555 1_555
C5B C6B 1_555 1_555
C6B C7B 1_555 1_555
C7B C2B 1_555 1_555
C8B C5B 1_555 1_555
C9B H1B 1_555 1_555
C10B C9B 1_555 1_555
H2B C10B 1_555 1_555
C11B C10B 1_555 1_555
C12B C11B 1_555 1_555
H3B C12B 1_555 1_555
C13B C12B 1_555 1_555
H4B C13B 1_555 1_555
C14B C11B 1_555 1_555
H5B C14B 1_555 1_555
H6B C14B 1_555 1_555
C15B C14B 1_555 1_555
H7B C15B 1_555 1_555
H8B C15B 1_555 1_555
C16B C15B 1_555 1_555
H9B C16B 1_555 1_555
H10B C16B 1_555 1_555
C17B C16B 1_555 1_555
C18B C17B 1_555 1_555
H11B C18B 1_555 1_555
C19B C18B 1_555 1_555
H12B C19B 1_555 1_555
C20B H13B 1_555 1_555
C21B C17B 1_555 1_555
H14B C21B 1_555 1_555
N1B Ni2 1_555 1_555
N2B C19B 1_555 1_555
O1B Ni2 1_555 1_555
O2B Ni2 1_555 1_555
O3B C8B 1_555 1_555
O4B C8B 1_555 1_555
O5B Ni1 1_555 1_555
Ni1_2 O3B 1_555 1_555
Ni1A N2B 1_555 1_555
Ni1A_2 N2 1_555 1_555
N2A Ni1 1_555 1_555
N2C Ni1 1_555 1_555
O3B_2 Ni1 1_555 1_555
C1 O1 1_555 1_555
C1 O2 1_555 1_555
C13 N1 1_555 1_555
C20 C21 1_555 1_555
C20 N2 1_555 1_555
C1B O1B 1_555 1_555
C1B O2B 1_555 1_555
C9B N1B 1_555 1_555
C13B N1B 1_555 1_555
C20B C21B 1_555 1_555
C20B N2B 1_555 1_555

#END
