
#######################################################################
#
#                 Cambridge Crystallographic Data Centre
#                                CCDC 
#
#######################################################################
#
# If this CIF has been generated from an entry in the Cambridge 
# Structural Database, then it will include bibliographic, chemical, 
# crystal, experimental, refinement or atomic coordinate data resulting 
# from the CCDC's data processing and validation procedures.
#
#######################################################################

data_MOYSUO
_symmetry_cell_setting           monoclinic
_symmetry_space_group_name_H-M   'C 2/c'
_symmetry_Int_Tables_number      15
_space_group_name_Hall           '-C 2yn'
loop_
_symmetry_equiv_pos_site_id
_symmetry_equiv_pos_as_xyz
1 x,y,z
2 x,-y,1/2+z
3 1/2+x,1/2+y,z
4 1/2+x,1/2-y,1/2+z
5 -x,-y,-z
6 -x,y,1/2-z
7 1/2-x,1/2-y,-z
8 1/2-x,1/2+y,1/2-z
_cell_length_a                   5.2976(7)
_cell_length_b                   13.178(2)
_cell_length_c                   13.3738(18)
_cell_angle_alpha                90
_cell_angle_beta                 94.789(16)
_cell_angle_gamma                90
_cell_volume                     930.389
loop_
_atom_site_label
_atom_site_type_symbol
_atom_site_fract_x
_atom_site_fract_y
_atom_site_fract_z
Mg1 Mg 0.0000 0.48222(4) 0.2500
C1 C 0.0942(3) 0.63607(9) 0.42668(9)
C2 C 0.2822(3) 0.71101(10) 0.47281(10)
O1 O 0.15869(19) 0.59097(7) 0.34869(6)
O2 O -0.11030(19) 0.62192(7) 0.46433(7)
O3 O -0.2950(2) 0.47669(8) 0.34015(7)
O4 O 0.2039(2) 0.37246(7) 0.33893(7)
H1 H 0.447(4) 0.7026(12) 0.4579(12)
H2 H -0.428(4) 0.4490(16) 0.3403(14)
H3 H -0.268(4) 0.5203(16) 0.3889(16)
H4 H 0.169(3) 0.3151(15) 0.3167(14)
H5 H 0.169(4) 0.3714(13) 0.3992(16)
C2F C 0.2178(3) 0.78899(10) 0.52719(10)
C1F C 0.4058(3) 0.86393(9) 0.57332(9)
O1F O 0.34131(19) 0.90903(7) 0.65131(6)
O2F O 0.61030(19) 0.87808(7) 0.53567(7)
H1F H 0.053(4) 0.7974(12) 0.5421(12)
O3E O 0.2950(2) 0.47669(8) 0.15985(7)
H2E H 0.428(4) 0.4490(16) 0.1597(14)
H3E H 0.268(4) 0.5203(16) 0.1111(16)
O4E O -0.2039(2) 0.37246(7) 0.16107(7)
H4E H -0.169(3) 0.3151(15) 0.1833(14)
H5E H -0.169(4) 0.3714(13) 0.1008(16)
O1E O -0.15869(19) 0.59097(7) 0.15131(6)
Mg1C Mg 0.5000 1.01778(4) 0.7500
O5 O 0.0000 0.20139(11) 0.2500
H6 H -0.093(4) 0.1662(16) 0.2795(15)
H6E H 0.093(4) 0.1662(16) 0.2205(15)
loop_
_geom_bond_atom_site_label_1
_geom_bond_atom_site_label_2
_geom_bond_site_symmetry_1
_geom_bond_site_symmetry_2
Mg1 O1 1_555 1_555
C1 C2 1_555 1_555
C2 H1 1_555 1_555
O1 C1 1_555 1_555
O2 C1 1_555 1_555
O3 Mg1 1_555 1_555
O4 Mg1 1_555 1_555
O5 H6 1_555 1_555
H2 O3 1_555 1_555
H3 O3 1_555 1_555
H4 O4 1_555 1_555
H5 O4 1_555 1_555
C2F C2 1_555 1_555
C1F C2F 1_555 1_555
O1F C1F 1_555 1_555
O2F C1F 1_555 1_555
H1F C2F 1_555 1_555
H6E O5 1_555 1_555
O3E Mg1 1_555 1_555
H2E O3E 1_555 1_555
H3E O3E 1_555 1_555
O4E Mg1 1_555 1_555
H4E O4E 1_555 1_555
H5E O4E 1_555 1_555
O1E Mg1 1_555 1_555
Mg1C O1F 1_555 1_555

#END
