
#######################################################################
#
#                 Cambridge Crystallographic Data Centre
#                                CCDC 
#
#######################################################################
#
# If this CIF has been generated from an entry in the Cambridge 
# Structural Database, then it will include bibliographic, chemical, 
# crystal, experimental, refinement or atomic coordinate data resulting 
# from the CCDC's data processing and validation procedures.
#
#######################################################################

data_MOYTUQ
_symmetry_cell_setting           monoclinic
_symmetry_space_group_name_H-M   'P 21/c'
_symmetry_Int_Tables_number      14
_space_group_name_Hall           '-P 2ybc'
loop_
_symmetry_equiv_pos_site_id
_symmetry_equiv_pos_as_xyz
1 x,y,z
2 -x,1/2+y,1/2-z
3 -x,-y,-z
4 x,1/2-y,1/2+z
_cell_length_a                   13.061(2)
_cell_length_b                   7.4870(11)
_cell_length_c                   26.345(4)
_cell_angle_alpha                90
_cell_angle_beta                 108.057(10)
_cell_angle_gamma                90
_cell_volume                     2449.33
loop_
_atom_site_label
_atom_site_type_symbol
_atom_site_fract_x
_atom_site_fract_y
_atom_site_fract_z
Pb1 Pb 0.92733(2) -0.10105(3) 0.772219(9)
O1 O 0.8331(4) 0.1819(7) 0.77858(19)
O2 O 0.7328(4) -0.0101(7) 0.7206(2)
O3 O 0.4352(6) 0.8129(10) 0.6685(3)
O4 O 0.3388(7) 0.6077(10) 0.6206(4)
O5 O 1.0511(4) -0.0393(7) 0.8704(2)
O6 O 1.0941(4) 0.1110(7) 0.80739(19)
O7 O 1.5307(6) 0.2431(12) 1.0521(4)
O8 O 1.5791(6) 0.3476(14) 0.9877(4)
O9 O 0.8017(4) -0.2315(8) 0.82660(19)
O10 O 0.9549(5) -0.5869(7) 1.19658(19)
N1 N 0.4185(7) 0.6585(12) 0.6551(4)
N2 N 1.5148(7) 0.2749(12) 1.0055(4)
N3 N 0.8181(5) -0.2753(8) 0.8767(2)
N4 N 0.9307(5) -0.5338(8) 1.1459(2)
C1 C 0.7487(6) 0.1401(9) 0.7425(3)
C2 C 0.6594(6) 0.2758(9) 0.7219(3)
C3 C 0.6779(7) 0.4567(10) 0.7359(3)
H1 H 0.7441 0.4922 0.7591
C4 C 0.5988(6) 0.5814(10) 0.7156(3)
H2 H 0.6104 0.7011 0.7250
C5 C 0.5014(6) 0.5251(11) 0.6806(3)
C6 C 0.4820(7) 0.3508(12) 0.6670(4)
H3 H 0.4155 0.3158 0.6440
C7 C 0.5614(7) 0.2266(11) 0.6874(4)
H4 H 0.5485 0.1073 0.6777
C8 C 1.1162(6) 0.0554(9) 0.8548(3)
C9 C 1.2204(5) 0.1095(9) 0.8947(2)
C10 C 1.2906(6) 0.2179(10) 0.8791(3)
H5 H 1.2728 0.2556 0.8438
C11 C 1.3879(6) 0.2716(11) 0.9156(3)
H6 H 1.4354 0.3444 0.9050
C12 C 1.4116(6) 0.2150(12) 0.9669(4)
C13 C 1.3439(7) 0.1081(11) 0.9846(3)
H7 H 1.3619 0.0739 1.0202
C14 C 1.2471(6) 0.0521(10) 0.9474(3)
H8 H 1.2008 -0.0232 0.9579
C15 C 0.8861(7) -0.1809(12) 0.9162(3)
H9 H 0.9193 -0.0802 0.9077
C16 C 0.9082(6) -0.2288(11) 0.9688(3)
H10 H 0.9560 -0.1604 0.9951
C17 C 0.8605(5) -0.3771(9) 0.9834(3)
C18 C 0.7883(5) -0.4691(10) 0.9413(3)
H11 H 0.7515 -0.5667 0.9489
C19 C 0.7700(6) -0.4201(10) 0.8890(3)
H12 H 0.7238 -0.4878 0.8619
C20 C 0.8391(6) -0.5925(10) 1.1089(3)
H13 H 0.7917 -0.6660 1.1193
C21 C 0.8165(5) -0.5438(10) 1.0566(3)
H14 H 0.7542 -0.5859 1.0315
C22 C 0.8855(6) -0.4318(9) 1.0403(3)
C23 C 0.9763(6) -0.3734(9) 1.0793(3)
H15 H 1.0243 -0.2984 1.0699
C24 C 0.9975(6) -0.4239(10) 1.1320(3)
H16 H 1.0585 -0.3810 1.1578
Pb1B Pb 1.07267(2) -0.89895(3) 1.227781(9)
Pb1C Pb 0.92733(2) -0.39895(3) 1.272219(9)
O10B O 1.0451(5) -0.4131(7) 0.80342(19)
O10C O 0.9549(5) 0.0869(7) 0.69658(19)
loop_
_geom_bond_atom_site_label_1
_geom_bond_atom_site_label_2
_geom_bond_site_symmetry_1
_geom_bond_site_symmetry_2
Pb1 O1 1_555 1_555
O1 C1 1_555 1_555
O2 Pb1 1_555 1_555
O3 N1 1_555 1_555
O4 N1 1_555 1_555
O5 Pb1 1_555 1_555
O6 Pb1 1_555 1_555
O7 N2 1_555 1_555
O8 N2 1_555 1_555
O9 Pb1 1_555 1_555
O10 N4 1_555 1_555
N1 C5 1_555 1_555
N2 C12 1_555 1_555
N3 O9 1_555 1_555
N4 C20 1_555 1_555
C1 O2 1_555 1_555
C2 C1 1_555 1_555
C3 C2 1_555 1_555
H1 C3 1_555 1_555
C4 C3 1_555 1_555
H2 C4 1_555 1_555
C5 C4 1_555 1_555
C6 C5 1_555 1_555
H3 C6 1_555 1_555
C7 C2 1_555 1_555
H4 C7 1_555 1_555
C8 O5 1_555 1_555
C9 C8 1_555 1_555
C10 C9 1_555 1_555
H5 C10 1_555 1_555
C11 C10 1_555 1_555
H6 C11 1_555 1_555
C12 C11 1_555 1_555
C13 C12 1_555 1_555
H7 C13 1_555 1_555
C14 C9 1_555 1_555
H8 C14 1_555 1_555
C15 N3 1_555 1_555
H9 C15 1_555 1_555
C16 C15 1_555 1_555
H10 C16 1_555 1_555
C17 C16 1_555 1_555
C18 C17 1_555 1_555
H11 C18 1_555 1_555
C19 N3 1_555 1_555
H12 C19 1_555 1_555
C20 H13 1_555 1_555
C21 C20 1_555 1_555
H14 C21 1_555 1_555
C22 C17 1_555 1_555
C23 C22 1_555 1_555
H15 C23 1_555 1_555
C24 N4 1_555 1_555
H16 C24 1_555 1_555
Pb1B O10 1_555 1_555
Pb1C O10 1_555 1_555
O10B Pb1 1_555 1_555
O10C Pb1 1_555 1_555
O6 C8 1_555 1_555
C6 C7 1_555 1_555
C13 C14 1_555 1_555
C18 C19 1_555 1_555
C21 C22 1_555 1_555
C23 C24 1_555 1_555

#END
