
#######################################################################
#
#                 Cambridge Crystallographic Data Centre
#                                CCDC 
#
#######################################################################
#
# If this CIF has been generated from an entry in the Cambridge 
# Structural Database, then it will include bibliographic, chemical, 
# crystal, experimental, refinement or atomic coordinate data resulting 
# from the CCDC's data processing and validation procedures.
#
#######################################################################

data_MOYTAW
_symmetry_cell_setting           monoclinic
_symmetry_space_group_name_H-M   'P 21/c'
_symmetry_Int_Tables_number      14
_space_group_name_Hall           '-P 2ybc'
loop_
_symmetry_equiv_pos_site_id
_symmetry_equiv_pos_as_xyz
1 x,y,z
2 -x,1/2+y,1/2-z
3 -x,-y,-z
4 x,1/2-y,1/2+z
_cell_length_a                   12.1032(5)
_cell_length_b                   7.5460(3)
_cell_length_c                   21.6511(8)
_cell_angle_alpha                90
_cell_angle_beta                 94.402(2)
_cell_angle_gamma                90
_cell_volume                     1971.58
loop_
_atom_site_label
_atom_site_type_symbol
_atom_site_fract_x
_atom_site_fract_y
_atom_site_fract_z
Pb1 Pb 0.552416(8) 0.441592(14) 0.212255(5)
O1 O 0.67551(19) 0.5632(3) 0.13016(11)
O2 O 0.41868(18) 0.5111(3) 0.12372(10)
O3 O 0.37448(18) 0.2524(3) 0.23278(11)
O4 O 0.7840(2) 0.4467(4) 0.20215(12)
N1 N 0.5086(2) 0.1724(3) 0.09593(11)
C1 C 0.4128(3) 0.0810(4) 0.09391(14)
H1 H 0.3939 0.0181 0.1285
C2 C 0.3719(3) 0.1726(5) -0.01052(14)
H2 H 0.3250 0.1739 -0.0466
C3 C 0.4710(3) 0.2619(4) -0.00738(14)
H3 H 0.4920 0.3235 -0.0418
C4 C 0.3435(3) 0.0809(4) 0.04098(15)
H4 H 0.2770 0.0189 0.0397
N2 N 0.7710(2) 0.5096(4) 0.14902(14)
O5 O 0.8472(3) 0.5223(6) 0.11571(17)
O6 O 0.57342(18) 0.1768(3) 0.14882(10)
O7 O 0.38845(18) 0.6903(3) 0.20088(10)
C5 C 0.5392(3) 0.2607(4) 0.04624(15)
H5 H 0.6065 0.3208 0.0481
C6 C 0.2529(2) 0.6788(4) 0.11624(12)
C7 C 0.3610(2) 0.6247(4) 0.14902(13)
C8 C 0.1827(2) 0.7919(4) 0.14491(14)
H6 H 0.2036 0.8352 0.1843
C9 C 0.2210(3) 0.6137(4) 0.05764(14)
H7 H 0.2678 0.5371 0.0383
C10 C 0.0819(3) 0.8410(5) 0.11565(16)
H8 H 0.0348 0.9177 0.1346
C11 C 0.0532(3) 0.7735(5) 0.05789(16)
C12 C 0.2493(3) 0.4273(5) 0.28128(16)
H9 H 0.3034 0.4528 0.3129
C13 C 0.1957(3) 0.2849(5) 0.18800(15)
H10 H 0.2134 0.2130 0.1553
C14 C 0.0655(3) 0.4611(5) 0.2363(2)
H11 H -0.0056 0.5074 0.2372
C15 C 0.0921(3) 0.3533(5) 0.18854(18)
H12 H 0.0390 0.3272 0.1565
N3 N -0.0540(2) 0.8277(5) 0.02609(17)
N4 N 0.27306(19) 0.3204(3) 0.23444(12)
O8 O -0.1094(2) 0.9346(4) 0.05237(18)
O9 O -0.0804(2) 0.7652(5) -0.02464(15)
C16 C 0.1454(3) 0.4989(5) 0.28252(19)
H13 H 0.1292 0.5733 0.3149
C17 C 0.1208(3) 0.6612(5) 0.02771(15)
H14 H 0.0994 0.6187 -0.0117
Pb1A Pb 0.447584(8) -0.058408(14) 0.287745(5)
Pb1A_2 Pb 0.447584(8) 0.941592(14) 0.287745(5)
O3A O 0.62552(18) 0.7524(3) 0.26722(11)
O7A O 0.61155(18) 0.1903(3) 0.29912(10)
loop_
_geom_bond_atom_site_label_1
_geom_bond_atom_site_label_2
_geom_bond_site_symmetry_1
_geom_bond_site_symmetry_2
Pb1 O1 1_555 1_555
O1 N2 1_555 1_555
O2 Pb1 1_555 1_555
O3 Pb1 1_555 1_555
O4 Pb1 1_555 1_555
N1 C1 1_555 1_555
C1 H1 1_555 1_555
C2 H2 1_555 1_555
C3 C2 1_555 1_555
H3 C3 1_555 1_555
C4 C1 1_555 1_555
H4 C4 1_555 1_555
N2 O4 1_555 1_555
O5 N2 1_555 1_555
O6 Pb1 1_555 1_555
O7 Pb1 1_555 1_555
C5 N1 1_555 1_555
H5 C5 1_555 1_555
C6 C7 1_555 1_555
C7 O2 1_555 1_555
C8 C6 1_555 1_555
H6 C8 1_555 1_555
C9 C6 1_555 1_555
H7 C9 1_555 1_555
C10 C8 1_555 1_555
H8 C10 1_555 1_555
C11 C10 1_555 1_555
C12 H9 1_555 1_555
C13 H10 1_555 1_555
C14 H11 1_555 1_555
C15 C13 1_555 1_555
H12 C15 1_555 1_555
N3 C11 1_555 1_555
N4 O3 1_555 1_555
O8 N3 1_555 1_555
O9 N3 1_555 1_555
C16 C12 1_555 1_555
H13 C16 1_555 1_555
C17 C9 1_555 1_555
H14 C17 1_555 1_555
Pb1A O3 1_555 1_555
Pb1A_2 O7 1_555 1_555
O3A Pb1 1_555 1_555
O7A Pb1 1_555 1_555
N1 O6 1_555 1_555
C2 C4 1_555 1_555
C3 C5 1_555 1_555
O7 C7 1_555 1_555
C11 C17 1_555 1_555
C12 N4 1_555 1_555
C13 N4 1_555 1_555
C14 C15 1_555 1_555
C14 C16 1_555 1_555
Pb1A O7A 1_555 1_555
Pb1A_2 O3A 1_555 1_555

#END
