
#######################################################################
#
#                 Cambridge Crystallographic Data Centre
#                                CCDC 
#
#######################################################################
#
# If this CIF has been generated from an entry in the Cambridge 
# Structural Database, then it will include bibliographic, chemical, 
# crystal, experimental, refinement or atomic coordinate data resulting 
# from the CCDC's data processing and validation procedures.
#
#######################################################################

data_MOYVUS
_symmetry_cell_setting           monoclinic
_symmetry_space_group_name_H-M   'C 2/c'
_symmetry_Int_Tables_number      15
_space_group_name_Hall           '-C 2yn'
loop_
_symmetry_equiv_pos_site_id
_symmetry_equiv_pos_as_xyz
1 x,y,z
2 -x,y,1/2-z
3 1/2+x,1/2+y,z
4 1/2-x,1/2+y,1/2-z
5 -x,-y,-z
6 x,-y,1/2+z
7 1/2-x,1/2-y,-z
8 1/2+x,1/2-y,1/2+z
_cell_length_a                   17.237(3)
_cell_length_b                   16.440(3)
_cell_length_c                   8.1579(16)
_cell_angle_alpha                90
_cell_angle_beta                 90.72(3)
_cell_angle_gamma                90
_cell_volume                     2311.57
loop_
_atom_site_label
_atom_site_type_symbol
_atom_site_fract_x
_atom_site_fract_y
_atom_site_fract_z
Ca1 Ca -0.5000 0.50989(4) 0.2500
O1 O -0.38218(9) 0.43774(10) 0.16532(19)
O2 O -0.31821(10) 0.40416(12) 0.3950(2)
O3 O -0.53328(10) 0.58233(11) 0.5138(2)
H1 H -0.5148(16) 0.6236(18) 0.531(3)
H2 H -0.583(2) 0.586(2) 0.534(5)
O4 O -0.60516(11) 0.59608(11) 0.1641(2)
H3 H -0.647(2) 0.5914(19) 0.203(4)
H4 H -0.6140(18) 0.5889(19) 0.057(4)
N1 N 0.06384(12) 0.37484(14) 0.5775(3)
N2 N 0.12051(12) 0.33130(14) 0.6497(3)
N3 N 0.10509(13) 0.25278(14) 0.6393(3)
N4 N 0.03746(11) 0.24286(13) 0.5599(3)
N5 N -0.18493(11) 0.37262(13) 0.2378(2)
C1 C 0.01374(13) 0.31825(15) 0.5241(3)
C2 C -0.05670(13) 0.33702(15) 0.4299(3)
C3 C -0.07764(15) 0.41660(16) 0.3959(4)
H7 H -0.0483 0.4592 0.4389
C4 C -0.14117(15) 0.43308(16) 0.2995(4)
H8 H -0.1542 0.4868 0.2764
C5 C -0.16687(16) 0.29541(16) 0.2708(4)
H9 H -0.1979 0.2540 0.2285
C6 C -0.10368(16) 0.27612(16) 0.3657(4)
H10 H -0.0921 0.2219 0.3874
C7 C -0.25435(13) 0.39238(17) 0.1388(3)
H11 H -0.2672 0.3463 0.0693
H12 H -0.2429 0.4383 0.0684
C8 C -0.32412(13) 0.41310(14) 0.2442(3)
Ca1D Ca -0.5000 0.49011(4) 0.7500
O1A O -0.61782(9) 0.43774(10) 0.33468(19)
O2A O -0.68179(10) 0.40416(12) 0.1050(2)
O3A O -0.46672(10) 0.58233(11) -0.0138(2)
O3E O -0.53328(10) 0.41767(11) 0.0138(2)
O3D O -0.46672(10) 0.41767(11) 0.4862(2)
H1A H -0.4852(16) 0.6236(18) -0.031(3)
H1E H -0.5148(16) 0.3764(18) 0.031(3)
H1D H -0.4852(16) 0.3764(18) 0.469(3)
H2A H -0.417(2) 0.586(2) -0.034(5)
H2E H -0.583(2) 0.414(2) 0.034(5)
H2D H -0.417(2) 0.414(2) 0.466(5)
O4A O -0.39484(11) 0.59608(11) 0.3359(2)
H3A H -0.353(2) 0.5914(19) 0.297(4)
H4A H -0.3860(18) 0.5889(19) 0.443(4)
N1A N -1.06384(12) 0.37484(14) -0.0775(3)
N2A N -1.12051(12) 0.33130(14) -0.1497(3)
N3A N -1.10509(13) 0.25278(14) -0.1393(3)
N4A N -1.03746(11) 0.24286(13) -0.0599(3)
N5A N -0.81507(11) 0.37262(13) 0.2622(2)
C1A C -1.01374(13) 0.31825(15) -0.0241(3)
C2A C -0.94330(13) 0.33702(15) 0.0701(3)
C3A C -0.92236(15) 0.41660(16) 0.1041(4)
H7A H -0.9517 0.4592 0.0611
C4A C -0.85883(15) 0.43308(16) 0.2005(4)
H8A H -0.8458 0.4868 0.2236
C5A C -0.83313(16) 0.29541(16) 0.2292(4)
H9A H -0.8021 0.2540 0.2715
C6A C -0.89632(16) 0.27612(16) 0.1343(4)
H10A H -0.9079 0.2219 0.1126
C7A C -0.74565(13) 0.39238(17) 0.3612(3)
H11A H -0.7328 0.3463 0.4307
H12A H -0.7571 0.4383 0.4316
C8A C -0.67588(13) 0.41310(14) 0.2558(3)
O5 O -0.74807(12) 0.09525(15) 0.1979(3)
H5 H -0.760(2) 0.104(2) 0.100(5)
H6 H -0.714(2) 0.120(2) 0.232(4)
loop_
_geom_bond_atom_site_label_1
_geom_bond_atom_site_label_2
_geom_bond_site_symmetry_1
_geom_bond_site_symmetry_2
Ca1 O1 1_555 1_555
O1 C8 1_555 1_555
O2 C8 1_555 1_555
O3 Ca1 1_555 1_555
H1 O3 1_555 1_555
H2 O3 1_555 1_555
O4 Ca1 1_555 1_555
H3 O4 1_555 1_555
H4 O4 1_555 1_555
O5 H5 1_555 1_555
H6 O5 1_555 1_555
N1 N2 1_555 1_555
N2 N3 1_555 1_555
N3 N4 1_555 1_555
N4 C1 1_555 1_555
N5 C4 1_555 1_555
C1 N1 1_555 1_555
C2 C1 1_555 1_555
C3 C2 1_555 1_555
H7 C3 1_555 1_555
C4 C3 1_555 1_555
H8 C4 1_555 1_555
C5 N5 1_555 1_555
H9 C5 1_555 1_555
C6 C2 1_555 1_555
H10 C6 1_555 1_555
C7 N5 1_555 1_555
H11 C7 1_555 1_555
H12 C7 1_555 1_555
C8 C7 1_555 1_555
Ca1D O3 1_555 1_555
O1A Ca1 1_555 1_555
O2A C8A 1_555 1_555
O3A Ca1 1_555 1_555
O3E Ca1 1_555 1_555
O3D Ca1 1_555 1_555
H1A O3A 1_555 1_555
H1E O3E 1_555 1_555
H1D O3D 1_555 1_555
H2A O3A 1_555 1_555
H2E O3E 1_555 1_555
H2D O3D 1_555 1_555
O4A Ca1 1_555 1_555
H3A O4A 1_555 1_555
H4A O4A 1_555 1_555
N1A N2A 1_555 1_555
N2A N3A 1_555 1_555
N3A N4A 1_555 1_555
N4A C1A 1_555 1_555
N5A C4A 1_555 1_555
C1A N1A 1_555 1_555
C2A C1A 1_555 1_555
C3A C2A 1_555 1_555
H7A C3A 1_555 1_555
C4A C3A 1_555 1_555
H8A C4A 1_555 1_555
C5A N5A 1_555 1_555
H9A C5A 1_555 1_555
C6A C2A 1_555 1_555
H10A C6A 1_555 1_555
C7A N5A 1_555 1_555
H11A C7A 1_555 1_555
H12A C7A 1_555 1_555
C8A O1A 1_555 1_555
C5 C6 1_555 1_555
Ca1D O3D 1_555 1_555
C5A C6A 1_555 1_555
C7A C8A 1_555 1_555

#END
