
#######################################################################
#
#                 Cambridge Crystallographic Data Centre
#                                CCDC 
#
#######################################################################
#
# If this CIF has been generated from an entry in the Cambridge 
# Structural Database, then it will include bibliographic, chemical, 
# crystal, experimental, refinement or atomic coordinate data resulting 
# from the CCDC's data processing and validation procedures.
#
#######################################################################

data_MOYVEC
_symmetry_cell_setting           orthorhombic
_symmetry_space_group_name_H-M   'P b c a'
_symmetry_Int_Tables_number      61
_space_group_name_Hall           '-P 2ac 2ab'
loop_
_symmetry_equiv_pos_site_id
_symmetry_equiv_pos_as_xyz
1 x,y,z
2 1/2-x,-y,1/2+z
3 -x,1/2+y,1/2-z
4 1/2+x,1/2-y,-z
5 -x,-y,-z
6 1/2+x,y,1/2-z
7 x,1/2-y,1/2+z
8 1/2-x,1/2+y,z
_cell_length_a                   7.5768(9)
_cell_length_b                   14.0936(17)
_cell_length_c                   21.419(3)
_cell_angle_alpha                90
_cell_angle_beta                 90
_cell_angle_gamma                90
_cell_volume                     2287.21
loop_
_atom_site_label
_atom_site_type_symbol
_atom_site_fract_x
_atom_site_fract_y
_atom_site_fract_z
Tl1 Tl 0.81901(10) 0.41271(5) 0.19883(3)
Tl2 Tl 0.44866(9) 0.88274(4) -0.05903(3)
Tl3 Tl -0.10740(8) 0.89124(4) 0.02040(3)
O1 O 0.5206(17) 0.5110(9) 0.2016(6)
O2 O 0.6375(16) 0.5556(8) 0.1118(6)
O3 O 0.7527(15) 0.7646(7) 0.1196(5)
O4 O 0.6172(14) 0.7396(7) 0.0295(5)
O5 O 0.5118(15) 0.9301(8) 0.0871(7)
O6 O 0.2334(17) 0.9417(8) 0.0614(6)
C1 C 0.530(2) 0.5656(11) 0.1551(8)
C2 C 0.4092(19) 0.6513(10) 0.1550(7)
C3 C 0.4444(19) 0.7341(10) 0.1215(7)
C4 C 0.3212(18) 0.8077(10) 0.1213(7)
C5 C 0.1620(19) 0.7983(11) 0.1536(7)
H1 H 0.0790 0.8468 0.1528
C6 C 0.129(2) 0.7147(13) 0.1874(8)
H2 H 0.0237 0.7083 0.2094
C7 C 0.249(2) 0.6431(10) 0.1879(7)
H3 H 0.2252 0.5881 0.2103
C8 C 0.6191(19) 0.7491(9) 0.0876(7)
C9 C 0.352(2) 0.9014(10) 0.0878(7)
Tl1E Tl 0.31901(10) 0.41271(5) 0.30117(3)
Tl1G Tl 0.68099(10) 0.91271(5) 0.19883(3)
Tl2C Tl 0.94866(9) 0.61726(4) 0.05903(3)
Tl2D Tl 0.55134(9) 1.11726(4) 0.05903(3)
Tl3G Tl 0.60740(8) 0.39124(4) 0.02040(3)
Tl3_2 Tl 0.89260(8) 0.89124(4) 0.02040(3)
Tl3C Tl 0.39260(8) 0.60876(4) -0.02040(3)
Tl3D Tl 0.10740(8) 1.10876(4) -0.02040(3)
O1E O 1.0206(17) 0.5110(9) 0.2984(6)
O2C O 0.1375(16) 0.9444(8) -0.1118(6)
O2G O -0.1375(16) 1.0556(8) 0.1118(6)
O3G O 0.7473(15) 0.2646(7) 0.1196(5)
O3C O 0.2527(15) 0.7354(7) -0.1196(5)
O3_2 O -0.2473(15) 0.7646(7) 0.1196(5)
O4_2 O -0.3828(14) 0.7396(7) 0.0295(5)
O4C O 0.1172(14) 0.7604(7) -0.0295(5)
O5G O 0.9882(15) 0.4301(8) 0.0871(7)
O5D O 0.4882(15) 1.0699(8) -0.0871(7)
O6D O -0.2334(17) 1.0583(8) -0.0614(6)
loop_
_geom_bond_atom_site_label_1
_geom_bond_atom_site_label_2
_geom_bond_site_symmetry_1
_geom_bond_site_symmetry_2
Tl1 O1 1_555 1_555
Tl2 O4 1_555 1_555
Tl3 O6 1_555 1_555
O1 C1 1_555 1_555
O2 Tl1 1_555 1_555
O3 C8 1_555 1_555
O4 C8 1_555 1_555
O5 C9 1_555 1_555
O6 C9 1_555 1_555
C1 O2 1_555 1_555
C2 C1 1_555 1_555
C3 C2 1_555 1_555
C4 C3 1_555 1_555
C5 C4 1_555 1_555
H1 C5 1_555 1_555
C6 C5 1_555 1_555
H2 C6 1_555 1_555
C7 C2 1_555 1_555
H3 C7 1_555 1_555
C8 C3 1_555 1_555
C9 C4 1_555 1_555
Tl1E O1 1_555 1_555
Tl1G O3 1_555 1_555
Tl2C O2 1_555 1_555
Tl2D O5 1_555 1_555
Tl3G O2 1_555 1_555
Tl3_2 O3 1_555 1_555
Tl3C O4 1_555 1_555
Tl3D O6 1_555 1_555
O1E Tl1 1_555 1_555
O2C Tl2 1_555 1_555
O2G Tl3 1_555 1_555
O3G Tl1 1_555 1_555
O3C Tl2 1_555 1_555
O3_2 Tl3 1_555 1_555
O4_2 Tl3 1_555 1_555
O4C Tl3 1_555 1_555
O5G Tl1 1_555 1_555
O5D Tl2 1_555 1_555
O6D Tl3 1_555 1_555
O3 Tl2C 1_555 1_555
O4 Tl3_2 1_555 1_555
O5 Tl1G 1_555 1_555
C6 C7 1_555 1_555
Tl2C O5G 1_555 1_555
Tl3G O3G 1_555 1_555
Tl3C O3C 1_555 1_555
Tl3C O4C 1_555 1_555
Tl3D O2C 1_555 1_555
Tl3D O6D 1_555 1_555

#END
