
#######################################################################
#
#                 Cambridge Crystallographic Data Centre
#                                CCDC 
#
#######################################################################
#
# If this CIF has been generated from an entry in the Cambridge 
# Structural Database, then it will include bibliographic, chemical, 
# crystal, experimental, refinement or atomic coordinate data resulting 
# from the CCDC's data processing and validation procedures.
#
#######################################################################

data_MOYWUT
_symmetry_cell_setting           orthorhombic
_symmetry_space_group_name_H-M   'P b c a'
_symmetry_Int_Tables_number      61
_space_group_name_Hall           '-P 2ac 2ab'
loop_
_symmetry_equiv_pos_site_id
_symmetry_equiv_pos_as_xyz
1 x,y,z
2 1/2-x,-y,1/2+z
3 -x,1/2+y,1/2-z
4 1/2+x,1/2-y,-z
5 -x,-y,-z
6 1/2+x,y,1/2-z
7 x,1/2-y,1/2+z
8 1/2-x,1/2+y,z
_cell_length_a                   18.0702(13)
_cell_length_b                   10.5176(8)
_cell_length_c                   29.665(2)
_cell_angle_alpha                90
_cell_angle_beta                 90
_cell_angle_gamma                90
_cell_volume                     5637.99
loop_
_atom_site_label
_atom_site_type_symbol
_atom_site_fract_x
_atom_site_fract_y
_atom_site_fract_z
Co1 Co 0.80882(4) 0.94672(6) 0.11886(2)
S1 S 0.72196(9) 0.99079(14) 0.36653(4)
N1 N 0.8957(2) 0.8192(4) 0.12169(12)
N2 N 0.8049(2) 0.9746(4) 0.19093(13)
N3 N 0.8049(2) 1.1759(4) 0.34595(13)
N4 N 0.7936(3) 1.1866(5) 0.39121(14)
N5 N 0.7069(2) 1.0644(4) 0.54724(13)
O1 O 0.7870(2) 0.5468(3) 0.12061(12)
O2 O 0.75807(19) 0.7523(4) 0.12544(11)
O3 O 0.9054(2) 1.0616(3) 0.11229(11)
O4 O 1.0287(2) 1.0568(4) 0.10883(17)
C1 C 0.8027(3) 0.6622(5) 0.12398(14)
C2 C 0.8831(3) 0.6958(5) 0.12657(16)
C3 C 0.9410(3) 0.6119(6) 0.1328(2)
H1 H 0.9321 0.5252 0.1359
C4 C 1.0123(3) 0.6587(7) 0.1342(3)
H2 H 1.0519 0.6043 0.1395
C5 C 1.0240(3) 0.7864(6) 0.1279(2)
H3 H 1.0719 0.8189 0.1281
C6 C 0.9649(3) 0.8658(5) 0.12134(17)
C7 C 0.9678(3) 1.0066(5) 0.11344(17)
C8 C 0.8415(3) 1.0693(6) 0.21057(18)
H4 H 0.8759 1.1137 0.1933
C9 C 0.8320(3) 1.1060(6) 0.25454(18)
H5 H 0.8594 1.1728 0.2665
C10 C 0.7812(3) 1.0423(5) 0.28067(16)
C11 C 0.7434(4) 0.9455(6) 0.26139(18)
H6 H 0.7090 0.8995 0.2781
C12 C 0.7562(4) 0.9156(6) 0.21671(18)
H7 H 0.7288 0.8499 0.2040
C13 C 0.7721(3) 1.0784(5) 0.32863(15)
C14 C 0.7523(3) 1.0957(5) 0.40670(15)
C15 C 0.7350(3) 1.0837(5) 0.45521(16)
C16 C 0.6780(3) 1.0106(6) 0.47136(18)
H8 H 0.6475 0.9662 0.4516
C17 C 0.6665(4) 1.0038(6) 0.51694(18)
H9 H 0.6277 0.9534 0.5272
C18 C 0.7625(3) 1.1346(7) 0.53153(18)
H10 H 0.7919 1.1778 0.5522
C19 C 0.7791(3) 1.1470(6) 0.48635(18)
H11 H 0.8189 1.1965 0.4769
Co1A Co 0.69118(4) 1.05328(6) 0.61886(2)
Co1G Co 0.69118(4) 0.44672(6) 0.11886(2)
N5A N 0.7931(2) 0.9356(4) 0.04724(13)
O1G O 0.7130(2) 1.0468(3) 0.12061(12)
Cl1 Cl 0.5366(2) 0.8836(4) 0.05229(14)
Cl2 Cl 0.49703(18) 0.7014(4) -0.01120(10)
Cl3 Cl 0.38534(16) 0.8534(3) 0.02917(16)
C20 C 0.4690(4) 0.7796(8) 0.0379(3)
H12 H 0.4635 0.7170 0.0621
Cl4 Cl 0.11326(15) 0.3116(3) 0.16080(10)
Cl5 Cl 0.0711(3) 0.1313(5) 0.22706(17)
Cl6 Cl -0.0079(3) 0.3554(4) 0.2192(2)
C21 C 0.0436(5) 0.2463(8) 0.1930(3)
H13 H 0.0102 0.2053 0.1714
O5 O 0.8980(10) 0.3035(17) 0.1408(6)
loop_
_geom_bond_atom_site_label_1
_geom_bond_atom_site_label_2
_geom_bond_site_symmetry_1
_geom_bond_site_symmetry_2
Co1 N1 1_555 1_555
S1 C13 1_555 1_555
Cl1 C20 1_555 1_555
Cl2 C20 1_555 1_555
Cl3 C20 1_555 1_555
Cl4 C21 1_555 1_555
Cl5 C21 1_555 1_555
Cl6 C21 1_555 1_555
N1 C2 1_555 1_555
N2 Co1 1_555 1_555
N3 N4 1_555 1_555
N4 C14 1_555 1_555
N5 C17 1_555 1_555
O1 C1 1_555 1_555
O2 Co1 1_555 1_555
O3 Co1 1_555 1_555
O4 C7 1_555 1_555
C1 O2 1_555 1_555
C2 C1 1_555 1_555
C3 C2 1_555 1_555
H1 C3 1_555 1_555
C4 C3 1_555 1_555
H2 C4 1_555 1_555
C5 C4 1_555 1_555
H3 C5 1_555 1_555
C6 N1 1_555 1_555
C7 O3 1_555 1_555
C8 N2 1_555 1_555
H4 C8 1_555 1_555
C9 C8 1_555 1_555
H5 C9 1_555 1_555
C10 C9 1_555 1_555
C11 C10 1_555 1_555
H6 C11 1_555 1_555
C12 N2 1_555 1_555
H7 C12 1_555 1_555
C13 N3 1_555 1_555
C14 S1 1_555 1_555
C15 C14 1_555 1_555
C16 C15 1_555 1_555
H8 C16 1_555 1_555
C17 C16 1_555 1_555
H9 C17 1_555 1_555
C18 N5 1_555 1_555
H10 C18 1_555 1_555
C19 C15 1_555 1_555
H11 C19 1_555 1_555
C20 H12 1_555 1_555
C21 H13 1_555 1_555
Co1A N5 1_555 1_555
Co1G O1 1_555 1_555
N5A Co1 1_555 1_555
O1G Co1 1_555 1_555
C5 C6 1_555 1_555
C6 C7 1_555 1_555
C10 C13 1_555 1_555
C11 C12 1_555 1_555
C18 C19 1_555 1_555

#END
