
#######################################################################
#
#                 Cambridge Crystallographic Data Centre
#                                CCDC 
#
#######################################################################
#
# If this CIF has been generated from an entry in the Cambridge 
# Structural Database, then it will include bibliographic, chemical, 
# crystal, experimental, refinement or atomic coordinate data resulting 
# from the CCDC's data processing and validation procedures.
#
#######################################################################

data_MOYWAZ
_symmetry_cell_setting           monoclinic
_symmetry_space_group_name_H-M   'C 2/c'
_symmetry_Int_Tables_number      15
_space_group_name_Hall           '-C 2yn'
loop_
_symmetry_equiv_pos_site_id
_symmetry_equiv_pos_as_xyz
1 x,y,z
2 -x,y,1/2-z
3 1/2+x,1/2+y,z
4 1/2-x,1/2+y,1/2-z
5 -x,-y,-z
6 x,-y,1/2+z
7 1/2-x,1/2-y,-z
8 1/2+x,1/2-y,1/2+z
_cell_length_a                   17.316(3)
_cell_length_b                   16.583(2)
_cell_length_c                   8.3663(14)
_cell_angle_alpha                90
_cell_angle_beta                 90.166(12)
_cell_angle_gamma                90
_cell_volume                     2402.38
loop_
_atom_site_label
_atom_site_type_symbol
_atom_site_fract_x
_atom_site_fract_y
_atom_site_fract_z
C1 C 0.81998(14) 0.08954(15) 0.2579(3)
C2 C 0.74914(15) 0.11009(19) 0.3580(3)
H1 H 0.7372 0.0648 0.4271
H2 H 0.7609 0.1561 0.4255
C3 C 0.63873(17) 0.06857(18) 0.1981(4)
H3 H 0.6524 0.0155 0.2199
C4 C 0.57583(17) 0.08398(18) 0.1039(4)
H4 H 0.5470 0.0412 0.0633
C5 C 0.55441(14) 0.16240(16) 0.0682(3)
C6 C 0.59955(19) 0.22319(19) 0.1341(4)
H5 H 0.5870 0.2769 0.1148
C7 C 0.66189(19) 0.20506(19) 0.2266(4)
H6 H 0.6919 0.2467 0.2677
C8 C 0.48483(14) 0.18052(16) -0.0260(3)
N1 N 0.46176(13) 0.25540(14) -0.0628(3)
N2 N 0.38003(15) 0.16628(16) -0.1532(3)
N3 N 0.39550(15) 0.24410(17) -0.1428(3)
H7 H 0.369(2) 0.284(2) -0.182(5)
N4 N 0.43598(14) 0.12422(15) -0.0793(3)
N5 N 0.68109(12) 0.12888(14) 0.2597(3)
O1 O 0.87689(10) 0.06458(12) 0.3364(2)
O2 O 0.81679(11) 0.09940(15) 0.1099(2)
O3 O 0.96604(11) -0.09043(11) 0.5154(2)
H8 H 0.986(2) -0.067(2) 0.584(4)
H9 H 0.915(2) -0.090(2) 0.533(4)
O4 O 0.88651(12) -0.10081(13) 0.1600(3)
H10 H 0.878(2) -0.088(2) 0.059(5)
H11 H 0.848(3) -0.091(2) 0.217(5)
Sr1 Sr 1.0000 -0.012505(19) 0.2500
C1A C 1.18002(14) 0.08954(15) 0.2421(3)
C2A C 1.25086(15) 0.11009(19) 0.1420(3)
H1A H 1.2628 0.0648 0.0729
H2A H 1.2391 0.1561 0.0745
C3A C 1.36127(17) 0.06857(18) 0.3019(4)
H3A H 1.3476 0.0155 0.2801
C4A C 1.42417(17) 0.08398(18) 0.3961(4)
H4A H 1.4530 0.0412 0.4367
C5A C 1.44559(14) 0.16240(16) 0.4318(3)
C6A C 1.40045(19) 0.22319(19) 0.3659(4)
H5A H 1.4130 0.2769 0.3852
C7A C 1.33811(19) 0.20506(19) 0.2734(4)
H6A H 1.3081 0.2467 0.2323
C8A C 1.51517(14) 0.18052(16) 0.5260(3)
N1A N 1.53824(13) 0.25540(14) 0.5628(3)
N2A N 1.61997(15) 0.16628(16) 0.6532(3)
N3A N 1.60450(15) 0.24410(17) 0.6428(3)
H7A H 1.631(2) 0.284(2) 0.682(5)
N4A N 1.56402(14) 0.12422(15) 0.5793(3)
N5A N 1.31891(12) 0.12888(14) 0.2403(3)
O1A O 1.12311(10) 0.06458(12) 0.1636(2)
O2A O 1.18321(11) 0.09940(15) 0.3901(2)
O3D O 1.03396(11) 0.09043(11) 0.4846(2)
O3A O 1.03396(11) -0.09043(11) -0.0154(2)
O3E O 0.96604(11) 0.09043(11) 0.0154(2)
H8D H 1.014(2) 0.067(2) 0.416(4)
H8A H 1.014(2) -0.067(2) -0.084(4)
H8E H 0.986(2) 0.067(2) 0.084(4)
H9D H 1.085(2) 0.090(2) 0.467(4)
H9A H 1.085(2) -0.090(2) -0.033(4)
H9E H 0.915(2) 0.090(2) 0.033(4)
O4A O 1.11349(12) -0.10081(13) 0.3400(3)
H10A H 1.122(2) -0.088(2) 0.441(5)
H11A H 1.152(3) -0.091(2) 0.283(5)
Sr1D Sr 1.0000 0.012505(19) 0.7500
O5 O 0.74445(14) 0.90812(17) 0.3118(3)
H12 H 0.720(3) 0.876(3) 0.269(6)
H13 H 0.755(3) 0.899(3) 0.409(7)
loop_
_geom_bond_atom_site_label_1
_geom_bond_atom_site_label_2
_geom_bond_site_symmetry_1
_geom_bond_site_symmetry_2
C1 C2 1_555 1_555
C2 H1 1_555 1_555
H2 C2 1_555 1_555
C3 H3 1_555 1_555
C4 C3 1_555 1_555
H4 C4 1_555 1_555
C5 C4 1_555 1_555
C6 C5 1_555 1_555
H5 C6 1_555 1_555
C7 C6 1_555 1_555
H6 C7 1_555 1_555
C8 C5 1_555 1_555
N1 C8 1_555 1_555
N2 N3 1_555 1_555
N3 N1 1_555 1_555
H7 N3 1_555 1_555
N4 C8 1_555 1_555
N5 C2 1_555 1_555
O1 C1 1_555 1_555
O2 C1 1_555 1_555
O3 H8 1_555 1_555
H9 O3 1_555 1_555
O4 H10 1_555 1_555
H11 O4 1_555 1_555
O5 H12 1_555 1_555
H13 O5 1_555 1_555
Sr1 O1 1_555 1_555
C1A C2A 1_555 1_555
C2A H1A 1_555 1_555
H2A C2A 1_555 1_555
C3A H3A 1_555 1_555
C4A C3A 1_555 1_555
H4A C4A 1_555 1_555
C5A C4A 1_555 1_555
C6A C5A 1_555 1_555
H5A C6A 1_555 1_555
C7A C6A 1_555 1_555
H6A C7A 1_555 1_555
C8A C5A 1_555 1_555
N1A C8A 1_555 1_555
N2A N3A 1_555 1_555
N3A N1A 1_555 1_555
H7A N3A 1_555 1_555
N4A C8A 1_555 1_555
N5A C2A 1_555 1_555
O1A Sr1 1_555 1_555
O2A C1A 1_555 1_555
O3D Sr1 1_555 1_555
O3A Sr1 1_555 1_555
O3E Sr1 1_555 1_555
H8D O3D 1_555 1_555
H8A O3A 1_555 1_555
H8E O3E 1_555 1_555
H9D O3D 1_555 1_555
H9A O3A 1_555 1_555
H9E O3E 1_555 1_555
O4A Sr1 1_555 1_555
H10A O4A 1_555 1_555
H11A O4A 1_555 1_555
Sr1D O3 1_555 1_555
C3 N5 1_555 1_555
C7 N5 1_555 1_555
N2 N4 1_555 1_555
O3 Sr1 1_555 1_555
O4 Sr1 1_555 1_555
C1A O1A 1_555 1_555
C3A N5A 1_555 1_555
C7A N5A 1_555 1_555
N2A N4A 1_555 1_555
O3D Sr1D 1_555 1_555

#END
