
#######################################################################
#
#                 Cambridge Crystallographic Data Centre
#                                CCDC 
#
#######################################################################
#
# If this CIF has been generated from an entry in the Cambridge 
# Structural Database, then it will include bibliographic, chemical, 
# crystal, experimental, refinement or atomic coordinate data resulting 
# from the CCDC's data processing and validation procedures.
#
#######################################################################

data_MOYWIH
_symmetry_cell_setting           triclinic
_symmetry_space_group_name_H-M   'P -1'
_symmetry_Int_Tables_number      2
_space_group_name_Hall           '-P 1'
loop_
_symmetry_equiv_pos_site_id
_symmetry_equiv_pos_as_xyz
1 x,y,z
2 -x,-y,-z
_cell_length_a                   8.807(4)
_cell_length_b                   11.139(6)
_cell_length_c                   11.291(5)
_cell_angle_alpha                75.337(7)
_cell_angle_beta                 73.584(5)
_cell_angle_gamma                66.795(5)
_cell_volume                     963.841
loop_
_atom_site_label
_atom_site_type_symbol
_atom_site_fract_x
_atom_site_fract_y
_atom_site_fract_z
Co1 Co 0.5000 0.5000 0.0000
Co2 Co 0.5000 1.0000 0.0000
S1 S 0.9996(2) 0.27890(17) 0.49720(17)
O1 O 0.3323(5) 0.6890(3) 0.0201(4)
O2 O 0.4708(5) 0.8297(4) -0.0231(4)
O3 O 0.3046(5) 1.0129(5) 0.1582(4)
O4 O 0.0873(6) 0.9877(5) 0.3032(4)
O5 O 0.3126(5) 0.4329(5) 0.1285(4)
H1 H 0.2747 0.4733 0.1880
H2 H 0.3570 0.3522 0.1502
N1 N 0.6202(6) 0.4980(5) 0.1461(4)
N2 N 0.7722(6) 0.4961(6) 0.5525(5)
N3 N 0.8606(6) 0.4463(6) 0.6483(5)
N4 N 1.3359(6) 0.1272(5) 0.8711(5)
C1 C 0.5404(7) 0.5703(6) 0.2391(5)
H9 H 0.4372 0.6374 0.2325
C2 C 0.6054(7) 0.5493(6) 0.3454(5)
H10 H 0.5461 0.6005 0.4085
C3 C 0.7604(7) 0.4504(6) 0.3542(5)
C4 C 0.8477(8) 0.3812(6) 0.2556(6)
H11 H 0.9543 0.3173 0.2573
C5 C 0.7730(7) 0.4088(6) 0.1535(6)
H12 H 0.8330 0.3625 0.0870
C6 C 0.8313(8) 0.4204(6) 0.4678(6)
C7 C 0.9838(8) 0.3330(6) 0.6300(6)
C8 C 1.1058(8) 0.2617(6) 0.7140(6)
C9 C 1.0818(8) 0.3012(7) 0.8287(6)
H13 H 0.9878 0.3726 0.8544
C10 C 1.2005(7) 0.2319(6) 0.9028(6)
H14 H 1.1853 0.2595 0.9778
C11 C 1.2500(9) 0.1551(7) 0.6803(6)
H15 H 1.2719 0.1280 0.6038
C12 C 1.3599(8) 0.0900(7) 0.7598(6)
H16 H 1.4543 0.0177 0.7367
C13 C 0.3394(6) 0.8036(5) -0.0009(5)
C14 C 0.1661(6) 0.9119(5) 0.0003(5)
C15 C 0.0822(6) 0.9914(5) 0.0939(5)
C16 C 0.1648(7) 0.9951(6) 0.1944(5)
C17 C 0.0830(6) 0.9232(5) -0.0930(5)
H17 H 0.1399 0.8721 -0.1563
Co1_2 Co -0.5000 1.5000 0.0000
Co2_2 Co 1.5000 0.0000 1.0000
Co2_3 Co -0.5000 1.0000 0.0000
Co2_4 Co -0.5000 1.0000 -1.0000
S1A S 0.0004(2) 0.72110(17) -0.49720(17)
O1A O -0.3323(5) 1.3110(3) -0.0201(4)
O1A_2 O 0.6677(5) 0.3110(3) -0.0201(4)
O2A O -0.4708(5) 1.1703(4) 0.0231(4)
O2A_2 O 0.5292(5) 1.1703(4) 0.0231(4)
O3A O -0.3046(5) 0.9871(5) -0.1582(4)
O3A_2 O 0.6954(5) 0.9871(5) -0.1582(4)
O4A O -0.0873(6) 1.0123(5) -0.3032(4)
O5A O 0.6874(5) 0.5671(5) -0.1285(4)
H1A H 0.7253 0.5267 -0.1880
H2A H 0.6430 0.6478 -0.1502
N1A N 0.3798(6) 0.5020(5) -0.1461(4)
N2A N 0.2278(6) 0.5039(6) -0.5525(5)
N3A N 0.1394(6) 0.5537(6) -0.6483(5)
N4A N -0.3359(6) 0.8728(5) -0.8711(5)
N4_2 N 0.3359(6) 1.1272(5) -0.1289(5)
N4A_2 N 0.6641(6) 0.8728(5) 0.1289(5)
C1A C 0.4596(7) 0.4297(6) -0.2391(5)
H9A H 0.5628 0.3626 -0.2325
C2A C 0.3946(7) 0.4507(6) -0.3454(5)
H10A H 0.4539 0.3995 -0.4085
C3A C 0.2396(7) 0.5496(6) -0.3542(5)
C4A C 0.1523(8) 0.6188(6) -0.2556(6)
H11A H 0.0457 0.6827 -0.2573
C5A C 0.2270(7) 0.5912(6) -0.1535(6)
H12A H 0.1670 0.6375 -0.0870
C6A C 0.1687(8) 0.5796(6) -0.4678(6)
C7A C 0.0162(8) 0.6670(6) -0.6300(6)
C8A C -0.1058(8) 0.7383(6) -0.7140(6)
C9A C -0.0818(8) 0.6988(7) -0.8287(6)
H13A H 0.0122 0.6274 -0.8544
C10A C -0.2005(7) 0.7681(6) -0.9028(6)
H14A H -0.1853 0.7405 -0.9778
C11A C -0.2500(9) 0.8449(7) -0.6803(6)
H15A H -0.2719 0.8720 -0.6038
C12A C -0.3599(8) 0.9100(7) -0.7598(6)
H16A H -0.4543 0.9823 -0.7367
C13A C -0.3394(6) 1.1964(5) 0.0009(5)
C14A C -0.1661(6) 1.0881(5) -0.0003(5)
C15A C -0.0822(6) 1.0086(5) -0.0939(5)
C16A C -0.1648(7) 1.0049(6) -0.1944(5)
C17A C -0.0830(6) 1.0768(5) 0.0930(5)
H17A H -0.1399 1.1279 0.1563
O6 O 0.7719(7) 0.0768(6) 0.4775(5)
H3 H 0.7783 0.1045 0.5370
H4 H 0.8602 0.0627 0.4230
O7 O 0.2667(11) 0.2166(8) 0.2663(8)
H5 H 0.2303 0.1822 0.2192
H6 H 0.3584 0.2251 0.2232
O8 O 0.5123(9) 0.7696(7) 0.6204(7)
H7 H 0.5819 0.7736 0.6570
H8 H 0.4540 0.8460 0.5934
loop_
_geom_bond_atom_site_label_1
_geom_bond_atom_site_label_2
_geom_bond_site_symmetry_1
_geom_bond_site_symmetry_2
Co1 O1 1_555 1_555
Co2 O2 1_555 1_555
S1 C6 1_555 1_555
O1 C13 1_555 1_555
O2 C13 1_555 1_555
O3 Co2 1_555 1_555
O4 C16 1_555 1_555
O5 Co1 1_555 1_555
H1 O5 1_555 1_555
H2 O5 1_555 1_555
O6 H3 1_555 1_555
H4 O6 1_555 1_555
O7 H5 1_555 1_555
H6 O7 1_555 1_555
O8 H7 1_555 1_555
H8 O8 1_555 1_555
N1 Co1 1_555 1_555
N2 N3 1_555 1_555
N3 C7 1_555 1_555
N4 C10 1_555 1_555
C1 N1 1_555 1_555
H9 C1 1_555 1_555
C2 C1 1_555 1_555
H10 C2 1_555 1_555
C3 C2 1_555 1_555
C4 C3 1_555 1_555
H11 C4 1_555 1_555
C5 N1 1_555 1_555
H12 C5 1_555 1_555
C6 N2 1_555 1_555
C7 S1 1_555 1_555
C8 C7 1_555 1_555
C9 C8 1_555 1_555
H13 C9 1_555 1_555
C10 C9 1_555 1_555
H14 C10 1_555 1_555
C11 C8 1_555 1_555
H15 C11 1_555 1_555
C12 N4 1_555 1_555
H16 C12 1_555 1_555
C13 C14 1_555 1_555
C14 C15 1_555 1_555
C15 C16 1_555 1_555
C16 O3 1_555 1_555
C17 C14 1_555 1_555
H17 C17 1_555 1_555
Co1_2 O1A 1_555 1_555
Co2_2 N4 1_555 1_555
Co2_3 O2A 1_555 1_555
Co2_4 N4A 1_555 1_555
S1A C6A 1_555 1_555
O1A C13A 1_555 1_555
O1A_2 Co1 1_555 1_555
O2A C13A 1_555 1_555
O2A_2 Co2 1_555 1_555
O3A Co2_3 1_555 1_555
O3A_2 Co2 1_555 1_555
O4A C16A 1_555 1_555
O5A Co1 1_555 1_555
H1A O5A 1_555 1_555
H2A O5A 1_555 1_555
N1A Co1 1_555 1_555
N2A N3A 1_555 1_555
N3A C7A 1_555 1_555
N4A C10A 1_555 1_555
N4_2 Co2 1_555 1_555
N4A_2 Co2 1_555 1_555
C1A N1A 1_555 1_555
H9A C1A 1_555 1_555
C2A C1A 1_555 1_555
H10A C2A 1_555 1_555
C3A C2A 1_555 1_555
C4A C3A 1_555 1_555
H11A C4A 1_555 1_555
C5A N1A 1_555 1_555
H12A C5A 1_555 1_555
C6A N2A 1_555 1_555
C7A S1A 1_555 1_555
C8A C7A 1_555 1_555
C9A C8A 1_555 1_555
H13A C9A 1_555 1_555
C10A C9A 1_555 1_555
H14A C10A 1_555 1_555
C11A C8A 1_555 1_555
H15A C11A 1_555 1_555
C12A N4A 1_555 1_555
H16A C12A 1_555 1_555
C13A C14A 1_555 1_555
C14A C15A 1_555 1_555
C15A C17 1_555 1_555
C16A O3A 1_555 1_555
C17A C15 1_555 1_555
H17A C17A 1_555 1_555
C3 C6 1_555 1_555
C4 C5 1_555 1_555
C11 C12 1_555 1_555
C3A C6A 1_555 1_555
C4A C5A 1_555 1_555
C11A C12A 1_555 1_555
C14A C17A 1_555 1_555
C15A C16A 1_555 1_555

#END
