
#######################################################################
#
#                 Cambridge Crystallographic Data Centre
#                                CCDC 
#
#######################################################################
#
# If this CIF has been generated from an entry in the Cambridge 
# Structural Database, then it will include bibliographic, chemical, 
# crystal, experimental, refinement or atomic coordinate data resulting 
# from the CCDC's data processing and validation procedures.
#
#######################################################################

data_MOYXAA
_symmetry_cell_setting           triclinic
_symmetry_space_group_name_H-M   'P -1'
_symmetry_Int_Tables_number      2
_space_group_name_Hall           '-P 1'
loop_
_symmetry_equiv_pos_site_id
_symmetry_equiv_pos_as_xyz
1 x,y,z
2 -x,-y,-z
_cell_length_a                   8.2998(12)
_cell_length_b                   10.0819(15)
_cell_length_c                   17.318(3)
_cell_angle_alpha                96.652(2)
_cell_angle_beta                 100.629(2)
_cell_angle_gamma                108.077(2)
_cell_volume                     1330.53
loop_
_atom_site_label
_atom_site_type_symbol
_atom_site_fract_x
_atom_site_fract_y
_atom_site_fract_z
Cu1 Cu 0.69955(7) 1.19000(6) 0.87738(3)
Cu2 Cu 0.85661(8) 1.36762(8) 0.60834(4)
S1 S -0.22313(16) 0.77422(15) 0.74914(8)
O1 O 0.8982(5) 1.1719(4) 0.6830(2)
O2 O 0.7109(4) 1.1266(4) 0.7629(2)
O3 O 0.7751(4) 1.2552(4) 0.99709(19)
O4 O 1.0134(4) 1.3772(4) 1.0941(2)
O5 O 0.9189(5) 1.2960(4) 0.5083(2)
O6 O 0.8015(6) 1.1542(5) 0.3892(3)
O7 O 0.7150(5) 1.4040(4) 0.6855(2)
O8 O 0.4482(5) 1.3198(4) 0.7064(2)
O9 O 0.6630(4) 1.4006(4) 0.8577(2)
H1 H 0.7582 1.4659 0.8704
H2 H 0.6181 1.3884 0.8091
O10 O 0.8035(7) 1.5899(5) 0.5636(3)
H3 H 0.7966 1.6335 0.6072
H4 H 0.8902 1.6359 0.5463
N1 N 0.9443(5) 1.2625(4) 0.8885(2)
N2 N 0.6303(5) 1.2513(4) 0.5473(3)
N3 N 0.4517(5) 1.0889(4) 0.8665(2)
N4 N -0.1782(5) 0.9038(5) 0.8903(2)
N5 N -0.3527(5) 0.8301(5) 0.8650(3)
N6 N -0.9127(5) 0.4964(4) 0.6684(2)
C1 C 0.8622(6) 1.1792(5) 0.7490(3)
C2 C 1.0072(6) 1.2550(5) 0.8231(3)
C3 C 1.1823(6) 1.3119(5) 0.8285(3)
H5 H 1.2271 1.3082 0.7832
C4 C 1.2906(6) 1.3748(6) 0.9028(3)
H6 H 1.4104 1.4126 0.9081
C5 C 1.2228(6) 1.3823(5) 0.9695(3)
H7 H 1.2957 1.4260 1.0196
C6 C 1.0455(6) 1.3241(5) 0.9608(3)
C7 C 0.9393(6) 1.3218(5) 1.0239(3)
C8 C 0.7879(8) 1.2105(6) 0.4529(3)
C9 C 0.6140(7) 1.1851(6) 0.4739(3)
C10 C 0.4517(8) 1.1024(6) 0.4268(3)
H8 H 0.4385 1.0549 0.3755
C11 C 0.3093(8) 1.0940(6) 0.4600(4)
H9 H 0.1979 1.0415 0.4296
C12 C 0.3291(7) 1.1622(6) 0.5379(4)
H10 H 0.2335 1.1541 0.5602
C13 C 0.4959(7) 1.2418(6) 0.5804(3)
C14 C 0.5518(7) 1.3256(6) 0.6640(3)
C15 C 0.3474(6) 1.0277(5) 0.7935(3)
H11 H 0.3969 1.0315 0.7494
C16 C 0.1714(6) 0.9601(5) 0.7813(3)
H12 H 0.1035 0.9191 0.7300
C17 C 0.0956(6) 0.9536(5) 0.8466(3)
C18 C 0.2028(6) 1.0147(5) 0.9219(3)
H13 H 0.1567 1.0111 0.9670
C19 C 0.3777(6) 1.0805(5) 0.9291(3)
H14 H 0.4485 1.1214 0.9799
C20 C -0.0924(6) 0.8850(5) 0.8354(3)
C21 C -0.3973(6) 0.7565(5) 0.7931(3)
C22 C -0.7762(7) 0.5118(6) 0.6344(3)
H15 H -0.7955 0.4641 0.5825
C23 C -0.6104(7) 0.5948(6) 0.6735(3)
H16 H -0.5195 0.6017 0.6481
C24 C -0.5759(6) 0.6687(5) 0.7505(3)
C25 C -0.7164(6) 0.6548(5) 0.7860(3)
H17 H -0.7005 0.7014 0.8378
C26 C -0.8810(6) 0.5695(5) 0.7417(3)
H18 H -0.9751 0.5631 0.7648
Cu2_2 Cu -1.14339(8) 0.36762(8) 0.60834(4)
N6_2 N 1.0873(5) 1.4964(4) 0.6684(2)
loop_
_geom_bond_atom_site_label_1
_geom_bond_atom_site_label_2
_geom_bond_site_symmetry_1
_geom_bond_site_symmetry_2
Cu1 O2 1_555 1_555
Cu2 O1 1_555 1_555
S1 C20 1_555 1_555
O1 C1 1_555 1_555
O2 C1 1_555 1_555
O3 Cu1 1_555 1_555
O4 C7 1_555 1_555
O5 Cu2 1_555 1_555
O6 C8 1_555 1_555
O7 Cu2 1_555 1_555
O8 C14 1_555 1_555
O9 Cu1 1_555 1_555
H1 O9 1_555 1_555
H2 O9 1_555 1_555
O10 Cu2 1_555 1_555
H3 O10 1_555 1_555
H4 O10 1_555 1_555
N1 Cu1 1_555 1_555
N2 Cu2 1_555 1_555
N3 Cu1 1_555 1_555
N4 N5 1_555 1_555
N5 C21 1_555 1_555
N6 C22 1_555 1_555
C1 C2 1_555 1_555
C2 N1 1_555 1_555
C3 C2 1_555 1_555
H5 C3 1_555 1_555
C4 C3 1_555 1_555
H6 C4 1_555 1_555
C5 C4 1_555 1_555
H7 C5 1_555 1_555
C6 N1 1_555 1_555
C7 O3 1_555 1_555
C8 O5 1_555 1_555
C9 N2 1_555 1_555
C10 C9 1_555 1_555
H8 C10 1_555 1_555
C11 C10 1_555 1_555
H9 C11 1_555 1_555
C12 C11 1_555 1_555
H10 C12 1_555 1_555
C13 N2 1_555 1_555
C14 O7 1_555 1_555
C15 N3 1_555 1_555
H11 C15 1_555 1_555
C16 C15 1_555 1_555
H12 C16 1_555 1_555
C17 C16 1_555 1_555
C18 C17 1_555 1_555
H13 C18 1_555 1_555
C19 N3 1_555 1_555
H14 C19 1_555 1_555
C20 N4 1_555 1_555
C21 S1 1_555 1_555
C22 H15 1_555 1_555
C23 C22 1_555 1_555
H16 C23 1_555 1_555
C24 C21 1_555 1_555
C25 C24 1_555 1_555
H17 C25 1_555 1_555
C26 N6 1_555 1_555
H18 C26 1_555 1_555
Cu2_2 N6 1_555 1_555
N6_2 Cu2 1_555 1_555
C5 C6 1_555 1_555
C6 C7 1_555 1_555
C8 C9 1_555 1_555
C12 C13 1_555 1_555
C13 C14 1_555 1_555
C17 C20 1_555 1_555
C18 C19 1_555 1_555
C23 C24 1_555 1_555
C25 C26 1_555 1_555

#END
