
#######################################################################
#
#                 Cambridge Crystallographic Data Centre
#                                CCDC 
#
#######################################################################
#
# If this CIF has been generated from an entry in the Cambridge 
# Structural Database, then it will include bibliographic, chemical, 
# crystal, experimental, refinement or atomic coordinate data resulting 
# from the CCDC's data processing and validation procedures.
#
#######################################################################

data_MOYXEE
_symmetry_cell_setting           triclinic
_symmetry_space_group_name_H-M   'P -1'
_symmetry_Int_Tables_number      2
_space_group_name_Hall           '-P 1'
loop_
_symmetry_equiv_pos_site_id
_symmetry_equiv_pos_as_xyz
1 x,y,z
2 -x,-y,-z
_cell_length_a                   8.6574(15)
_cell_length_b                   12.592(2)
_cell_length_c                   14.496(2)
_cell_angle_alpha                101.046(3)
_cell_angle_beta                 102.874(2)
_cell_angle_gamma                102.479(3)
_cell_volume                     1455.65
loop_
_atom_site_label
_atom_site_type_symbol
_atom_site_fract_x
_atom_site_fract_y
_atom_site_fract_z
Cu1 Cu -1.22397(12) -1.30328(8) 1.55756(7)
Cu2 Cu -0.25952(11) -0.69305(8) 1.00642(6)
S1 S -0.7622(3) -1.01457(17) 1.26531(14)
O1 O -1.0282(7) -1.1667(4) 1.8429(4)
O2 O -1.0918(7) -1.2287(5) 1.6850(4)
O3 O -1.3861(6) -1.3836(4) 1.6070(4)
O4 O -1.6216(6) -1.6221(5) 1.5690(4)
O5 O -1.7534(9) -1.4921(6) 1.5985(6)
O6 O -0.4551(6) -0.7598(5) 0.8989(4)
O7 O -0.5783(7) -0.8596(5) 0.7472(4)
O8 O -0.1569(6) -0.6158(4) 0.9245(3)
O9 O 0.0745(6) -0.4095(4) 0.8861(3)
O10 O 0.1884(7) -0.5521(5) 0.8875(4)
O11 O -1.0199(16) -1.4188(10) 1.5614(9)
H1 H -0.9585 -1.4146 1.5131
H2 H -1.0611 -1.4946 1.5501
O14 O -0.1497(6) -0.8396(4) 0.9708(4)
H7 H -0.1102 -0.8556 1.0215
H8 H -0.0801 -0.8248 0.9404
N1 N -1.3740(7) -1.3940(5) 1.6984(4)
N2 N -1.0726(7) -1.2029(5) 1.5028(4)
N3 N -0.6194(8) -0.9156(5) 1.4442(4)
N4 N -0.5265(8) -0.8621(5) 1.3930(5)
N5 N -0.3633(8) -0.7633(5) 1.0984(4)
N6 N -0.1967(7) -0.6435(5) 0.8273(4)
C1 C -1.6354(11) -1.5311(8) 1.6165(6)
C2 C -1.4983(9) -1.4725(6) 1.7077(5)
C3 C -1.4968(10) -1.4908(6) 1.7976(6)
H9 H -1.5815 -1.5463 1.8037
C4 C -1.3734(10) -1.4290(6) 1.8790(6)
H10 H -1.3714 -1.4425 1.9401
C5 C -1.2511(9) -1.3456(6) 1.8673(5)
H11 H -1.1692 -1.3002 1.9224
C6 C -1.2461(9) -1.3273(6) 1.7772(5)
C7 C -1.1141(9) -1.2352(7) 1.7671(6)
C8 C -0.9272(10) -1.1370(7) 1.5578(6)
H12 H -0.8968 -1.1377 1.6233
C9 C -0.8176(9) -1.0673(6) 1.5243(5)
H13 H -0.7180 -1.0213 1.5663
C10 C -0.8610(9) -1.0682(6) 1.4265(5)
C11 C -1.0094(9) -1.1353(6) 1.3692(6)
H14 H -1.0416 -1.1368 1.3032
C12 C -1.1126(10) -1.2012(7) 1.4086(6)
H15 H -1.2140 -1.2462 1.3681
C13 C -0.7477(9) -0.9976(6) 1.3869(5)
C14 C -0.5874(9) -0.9051(6) 1.2969(6)
C15 C -0.5100(9) -0.8612(6) 1.2263(5)
C16 C -0.5708(9) -0.9026(6) 1.1286(6)
H16 H -0.6624 -0.9645 1.1029
C17 C -0.4968(10) -0.8528(6) 1.0671(6)
H17 H -0.5415 -0.8826 1.0001
C18 C -0.3040(9) -0.7243(6) 1.1959(5)
H18 H -0.2108 -0.6634 1.2205
C19 C -0.3730(9) -0.7692(6) 1.2615(6)
H19 H -0.3283 -0.7383 1.3284
C20 C -0.4653(10) -0.7854(7) 0.8089(6)
C21 C -0.3372(9) -0.7206(6) 0.7690(6)
C22 C -0.3641(9) -0.7362(6) 0.6687(5)
H20 H -0.4582 -0.7894 0.6273
C23 C -0.2573(10) -0.6763(6) 0.6282(6)
H21 H -0.2802 -0.6858 0.5609
C24 C -0.1150(10) -0.6016(7) 0.6904(6)
H22 H -0.0387 -0.5613 0.6650
C25 C -0.0855(9) -0.5865(6) 0.7895(5)
C26 C 0.0739(10) -0.5117(7) 0.8622(5)
Cu1A Cu -1.77603(12) -1.69672(8) 1.44244(7)
Cu2A Cu 0.25952(11) -0.30695(8) 0.99358(6)
O4A O -1.3784(6) -1.3779(5) 1.4310(4)
O9A O -0.0745(6) -0.5905(4) 1.1139(3)
O12 O 0.7863(8) 0.9657(5) 0.1527(5)
H3 H 0.8369 1.0333 0.1661
H4 H 0.7246 0.9552 0.1890
O13 O 0.9120(8) 0.7812(5) 0.1182(4)
H5 H 0.8485 0.7173 0.1057
H6 H 0.8604 0.8298 0.1189
loop_
_geom_bond_atom_site_label_1
_geom_bond_atom_site_label_2
_geom_bond_site_symmetry_1
_geom_bond_site_symmetry_2
Cu1 O2 1_555 1_555
Cu2 O6 1_555 1_555
S1 C13 1_555 1_555
O1 C7 1_555 1_555
O2 C7 1_555 1_555
O3 Cu1 1_555 1_555
O4 C1 1_555 1_555
O5 C1 1_555 1_555
O6 C20 1_555 1_555
O7 C20 1_555 1_555
O8 Cu2 1_555 1_555
O9 C26 1_555 1_555
O10 C26 1_555 1_555
O11 Cu1 1_555 1_555
H1 O11 1_555 1_555
H2 O11 1_555 1_555
O12 H3 1_555 1_555
H4 O12 1_555 1_555
O13 H5 1_555 1_555
H6 O13 1_555 1_555
O14 Cu2 1_555 1_555
H7 O14 1_555 1_555
H8 O14 1_555 1_555
N1 O3 1_555 1_555
N2 Cu1 1_555 1_555
N3 N4 1_555 1_555
N4 C14 1_555 1_555
N5 Cu2 1_555 1_555
N6 O8 1_555 1_555
C1 C2 1_555 1_555
C2 N1 1_555 1_555
C3 C2 1_555 1_555
H9 C3 1_555 1_555
C4 C3 1_555 1_555
H10 C4 1_555 1_555
C5 C4 1_555 1_555
H11 C5 1_555 1_555
C6 N1 1_555 1_555
C7 C6 1_555 1_555
C8 N2 1_555 1_555
H12 C8 1_555 1_555
C9 C8 1_555 1_555
H13 C9 1_555 1_555
C10 C9 1_555 1_555
C11 C10 1_555 1_555
H14 C11 1_555 1_555
C12 N2 1_555 1_555
H15 C12 1_555 1_555
C13 N3 1_555 1_555
C14 S1 1_555 1_555
C15 C14 1_555 1_555
C16 C15 1_555 1_555
H16 C16 1_555 1_555
C17 N5 1_555 1_555
H17 C17 1_555 1_555
C18 N5 1_555 1_555
H18 C18 1_555 1_555
C19 C15 1_555 1_555
H19 C19 1_555 1_555
C20 C21 1_555 1_555
C21 N6 1_555 1_555
C22 C21 1_555 1_555
H20 C22 1_555 1_555
C23 C22 1_555 1_555
H21 C23 1_555 1_555
C24 C23 1_555 1_555
H22 C24 1_555 1_555
C25 N6 1_555 1_555
C26 C25 1_555 1_555
Cu1A O4 1_555 1_555
Cu2A O9 1_555 1_555
O4A Cu1 1_555 1_555
O9A Cu2 1_555 1_555
C5 C6 1_555 1_555
C10 C13 1_555 1_555
C11 C12 1_555 1_555
C16 C17 1_555 1_555
C18 C19 1_555 1_555
C24 C25 1_555 1_555

#END
