
#######################################################################
#
#                 Cambridge Crystallographic Data Centre
#                                CCDC 
#
#######################################################################
#
# If this CIF has been generated from an entry in the Cambridge 
# Structural Database, then it will include bibliographic, chemical, 
# crystal, experimental, refinement or atomic coordinate data resulting 
# from the CCDC's data processing and validation procedures.
#
#######################################################################

data_MOYYAB
_symmetry_cell_setting           monoclinic
_symmetry_space_group_name_H-M   'C 2/c'
_symmetry_Int_Tables_number      15
_space_group_name_Hall           '-C 2yn'
loop_
_symmetry_equiv_pos_site_id
_symmetry_equiv_pos_as_xyz
1 x,y,z
2 -x,y,1/2-z
3 1/2+x,1/2+y,z
4 1/2-x,1/2+y,1/2-z
5 -x,-y,-z
6 x,-y,1/2+z
7 1/2-x,1/2-y,-z
8 1/2+x,1/2-y,1/2+z
_cell_length_a                   23.462(2)
_cell_length_b                   8.9571(7)
_cell_length_c                   17.2966(15)
_cell_angle_alpha                90
_cell_angle_beta                 108.7720(10)
_cell_angle_gamma                90
_cell_volume                     3441.55
loop_
_atom_site_label
_atom_site_type_symbol
_atom_site_fract_x
_atom_site_fract_y
_atom_site_fract_z
Co1 Co 0.346885(18) 0.61760(4) 0.57142(2)
N1 N 0.36351(12) 0.8262(3) 0.63499(16)
C1 C 0.39968(16) 0.8270(4) 0.7121(2)
H1 H 0.4153 0.7340 0.7361
C2 C 0.41593(17) 0.9530(4) 0.7593(2)
H2 H 0.4416 0.9464 0.8143
C3 C 0.39428(14) 1.0901(3) 0.7252(2)
C4 C 0.35453(14) 1.0919(4) 0.6455(2)
H3 H 0.3377 1.1831 0.6204
C5 C 0.34015(14) 0.9579(4) 0.6038(2)
H4 H 0.3122 0.9596 0.5500
N2 N 0.41127(12) 1.2261(3) 0.76651(16)
H5 H 0.3862 1.3020 0.7524
C6 C 0.46497(15) 1.2468(4) 0.8278(2)
O1 O 0.50092(12) 1.1466(3) 0.8563(2)
C7 C 0.47957(14) 1.4033(3) 0.85752(19)
C8 C 0.53997(14) 1.4420(4) 0.87973(18)
H6 H 0.5679 1.3691 0.8744
N3 N 0.56068(12) 1.5763(3) 0.90816(15)
C9 C 0.52150(15) 1.6750(4) 0.92029(19)
H7 H 0.5360 1.7701 0.9423
C10 C 0.46078(15) 1.6440(4) 0.9021(2)
H8 H 0.4344 1.7159 0.9126
C11 C 0.43887(14) 1.5064(4) 0.86828(19)
H9 H 0.3971 1.4838 0.8530
O2 O 0.26394(10) 0.6131(2) 0.59363(14)
C12 C 0.28353(14) 0.5284(4) 0.65552(18)
O3 O 0.33855(10) 0.4903(2) 0.67978(13)
C13 C 0.23996(16) 0.4699(4) 0.6959(2)
H10 H 0.2022 0.5284 0.6772
H11 H 0.2574 0.4820 0.7558
C14 C 0.22615(16) 0.3056(4) 0.6754(2)
H12 H 0.1960 0.2710 0.7004
H13 H 0.2633 0.2462 0.6993
C15 C 0.20206(15) 0.2784(4) 0.58334(19)
H14 H 0.2327 0.3125 0.5591
H15 H 0.1657 0.3406 0.5600
C16 C 0.18632(14) 0.1194(4) 0.55847(19)
O4 O 0.17459(10) 0.0891(2) 0.48394(13)
O5 O 0.18654(11) 0.0264(3) 0.61287(14)
O6 O 0.33636(12) 0.7265(3) 0.46171(15)
H16 H 0.3306 0.6633 0.4241
H17 H 0.310(2) 0.773(6) 0.449(3)
Co1A Co 0.653115(18) 1.61760(4) 0.92858(2)
Co1F Co 0.153115(18) -0.11760(4) 0.42858(2)
N3A N 0.43932(12) 0.5763(3) 0.59184(15)
O4F O 0.32541(10) 0.4109(2) 0.51606(13)
O7 O 0.4373(3) 0.0262(7) 0.4878(3)
loop_
_geom_bond_atom_site_label_1
_geom_bond_atom_site_label_2
_geom_bond_site_symmetry_1
_geom_bond_site_symmetry_2
Co1 N1 1_555 1_555
N1 C1 1_555 1_555
C1 H1 1_555 1_555
C2 C1 1_555 1_555
H2 C2 1_555 1_555
C3 C2 1_555 1_555
C4 C3 1_555 1_555
H3 C4 1_555 1_555
C5 N1 1_555 1_555
H4 C5 1_555 1_555
N2 C3 1_555 1_555
H5 N2 1_555 1_555
C6 N2 1_555 1_555
O1 C6 1_555 1_555
C7 C6 1_555 1_555
C8 C7 1_555 1_555
H6 C8 1_555 1_555
N3 C8 1_555 1_555
C9 N3 1_555 1_555
H7 C9 1_555 1_555
C10 C9 1_555 1_555
H8 C10 1_555 1_555
C11 C7 1_555 1_555
H9 C11 1_555 1_555
O2 Co1 1_555 1_555
C12 O2 1_555 1_555
O3 Co1 1_555 1_555
C13 C12 1_555 1_555
H10 C13 1_555 1_555
H11 C13 1_555 1_555
C14 C13 1_555 1_555
H12 C14 1_555 1_555
H13 C14 1_555 1_555
C15 C14 1_555 1_555
H14 C15 1_555 1_555
H15 C15 1_555 1_555
C16 C15 1_555 1_555
O4 C16 1_555 1_555
O5 C16 1_555 1_555
O6 Co1 1_555 1_555
H16 O6 1_555 1_555
H17 O6 1_555 1_555
Co1A N3 1_555 1_555
Co1F O4 1_555 1_555
N3A Co1 1_555 1_555
O4F Co1 1_555 1_555
C4 C5 1_555 1_555
C10 C11 1_555 1_555
C12 O3 1_555 1_555

#END
