
#######################################################################
#
#                 Cambridge Crystallographic Data Centre
#                                CCDC 
#
#######################################################################
#
# If this CIF has been generated from an entry in the Cambridge 
# Structural Database, then it will include bibliographic, chemical, 
# crystal, experimental, refinement or atomic coordinate data resulting 
# from the CCDC's data processing and validation procedures.
#
#######################################################################

data_MOZCIP
_symmetry_cell_setting           triclinic
_symmetry_space_group_name_H-M   'P -1'
_symmetry_Int_Tables_number      2
_space_group_name_Hall           '-P 1'
loop_
_symmetry_equiv_pos_site_id
_symmetry_equiv_pos_as_xyz
1 x,y,z
2 -x,-y,-z
_cell_length_a                   9.406(4)
_cell_length_b                   9.512(3)
_cell_length_c                   11.655(4)
_cell_angle_alpha                75.580(6)
_cell_angle_beta                 80.947(6)
_cell_angle_gamma                66.329(6)
_cell_volume                     923.015
loop_
_atom_site_label
_atom_site_type_symbol
_atom_site_fract_x
_atom_site_fract_y
_atom_site_fract_z
Ni1 Ni 0.90323(10) 0.97375(11) 0.59469(7)
N1 N 0.7553(8) 0.9802(9) 0.7423(7)
O1 O 0.8839(8) 0.8000(8) 0.5384(6)
O2 O 0.9564(8) 1.1523(8) 0.6146(6)
O3 O 1.1008(6) 0.8268(7) 0.6713(5)
O4 O 0.7415(7) 1.1232(8) 0.4820(5)
C1 C 0.6055(12) 1.0642(14) 0.7386(9)
C2 C 0.8034(14) 0.900(2) 0.8429(11)
C3 C 0.9491(10) 0.7846(10) 0.4402(8)
H1 H 0.5663 1.1179 0.6649
C4 C 0.5037(14) 1.0777(15) 0.8363(10)
C5 C 0.7087(14) 0.906(2) 0.9482(11)
H2 H 0.9076 0.8333 0.8469
C6 C 0.9133(9) 0.6878(9) 0.3726(7)
H3 H 0.3999 1.1443 0.8283
C7 C 0.5533(10) 0.9946(10) 0.9448(7)
H4 H 0.7515 0.8504 1.0204
C8 C 0.9805(11) 0.6651(11) 0.2629(8)
C9 C 0.8000(11) 0.6241(11) 0.4201(7)
H5 H 1.0552 0.7073 0.2305
C10 C 0.9453(10) 0.5852(10) 0.1981(8)
C11 C 0.7556(11) 0.5467(11) 0.3567(7)
H6 H 0.7545 0.6346 0.4960
H7 H 0.9961 0.5713 0.1242
C12 C 0.8314(9) 0.5240(9) 0.2443(6)
H8 H 0.6767 0.5097 0.3872
C13 C 0.7838(9) 0.4445(10) 0.1712(7)
C14 C 0.6413(10) 0.4072(10) 0.2088(6)
O5 O 0.8519(8) 0.4215(10) 0.0742(6)
C15 C 0.5118(11) 0.4939(12) 0.1422(8)
C16 C 0.6304(10) 0.2844(10) 0.3066(7)
H9 H 0.5171 0.5728 0.0779
C17 C 0.3747(11) 0.4659(14) 0.1688(8)
C18 C 0.4901(11) 0.2609(12) 0.3317(8)
C19 C 0.7672(10) 0.1847(10) 0.3782(7)
H10 H 0.2899 0.5261 0.1229
C20 C 0.3643(11) 0.3468(12) 0.2650(8)
H11 H 0.4821 0.1836 0.3964
H12 H 0.2735 0.3267 0.2829
O2A O 1.0436(8) 0.8477(8) 0.3854(6)
Ni1A Ni 1.09677(10) 1.02625(11) 0.40531(7)
C7A C 0.4467(10) 1.0054(10) 1.0552(7)
C4A C 0.4963(14) 0.9223(15) 1.1637(10)
C5A C 0.2913(14) 1.094(2) 1.0518(11)
C1A C 0.3945(12) 0.9358(14) 1.2614(9)
H3A H 0.6001 0.8557 1.1717
H4A H 0.2485 1.1496 0.9796
C2A C 0.1966(14) 1.100(2) 1.1571(11)
H1A H 0.4337 0.8821 1.3351
N1A N 0.2447(8) 1.0198(9) 1.2577(7)
H2A H 0.0924 1.1667 1.1531
Ni1A_2 Ni 0.09677(10) 1.02625(11) 1.40531(7)
O1A O 0.1161(8) 1.2000(8) 1.4616(6)
O2A_2 O 0.0436(8) 0.8477(8) 1.3854(6)
O3A O -0.1008(6) 1.1732(7) 1.3287(5)
O4A O 0.2585(7) 0.8768(8) 1.5180(5)
C3A C 0.0509(10) 1.2154(10) 1.5598(8)
O3A_2 O 0.8992(6) 0.1732(7) 0.3287(5)
O4_2 O 0.7415(7) 0.1232(8) 0.4820(5)
C6A C 0.0867(9) 1.3122(9) 1.6274(7)
O2_2 O -0.0436(8) 1.1523(8) 1.6146(6)
Ni1A_3 Ni 1.09677(10) 0.02625(11) 0.40531(7)
Ni1_2 Ni 0.90323(10) -0.02625(11) 0.59469(7)
C8A C 0.0195(11) 1.3349(11) 1.7371(8)
C9A C 0.2000(11) 1.3759(11) 1.5799(7)
Ni1_3 Ni -0.09677(10) 0.97375(11) 1.59469(7)
H5A H -0.0552 1.2927 1.7695
C10A C 0.0547(10) 1.4148(10) 1.8019(8)
C11A C 0.2444(11) 1.4533(11) 1.6433(7)
H6A H 0.2455 1.3654 1.5040
H7A H 0.0039 1.4287 1.8758
C12A C 0.1686(9) 1.4760(9) 1.7557(6)
H8A H 0.3233 1.4903 1.6128
C13A C 0.2162(9) 1.5555(10) 1.8288(7)
C14A C 0.3587(10) 1.5928(10) 1.7912(6)
O5A O 0.1481(8) 1.5785(10) 1.9258(6)
C15A C 0.4882(11) 1.5061(12) 1.8578(8)
C16A C 0.3696(10) 1.7156(10) 1.6934(7)
H9A H 0.4829 1.4272 1.9221
C17A C 0.6253(11) 1.5341(14) 1.8312(8)
C18A C 0.5099(11) 1.7391(12) 1.6683(8)
C19A C 0.2328(10) 1.8153(10) 1.6218(7)
H10A H 0.7101 1.4739 1.8771
C20A C 0.6357(11) 1.6532(12) 1.7350(8)
H11A H 0.5179 1.8164 1.6036
O3_2 O 0.1008(6) 1.8268(7) 1.6713(5)
O4A_2 O 0.2585(7) 1.8768(8) 1.5180(5)
H12A H 0.7265 1.6733 1.7171
Ni1_4 Ni -0.09677(10) 1.97375(11) 1.59469(7)
Ni1A_4 Ni 0.09677(10) 2.02625(11) 1.40531(7)
loop_
_geom_bond_atom_site_label_1
_geom_bond_atom_site_label_2
_geom_bond_site_symmetry_1
_geom_bond_site_symmetry_2
Ni1 N1 1_555 1_555
N1 C1 1_555 1_555
O1 Ni1 1_555 1_555
O2 Ni1 1_555 1_555
O3 Ni1 1_555 1_555
O4 Ni1 1_555 1_555
C1 H1 1_555 1_555
C2 N1 1_555 1_555
C3 O1 1_555 1_555
C4 C1 1_555 1_555
C5 C2 1_555 1_555
H2 C2 1_555 1_555
C6 C3 1_555 1_555
H3 C4 1_555 1_555
C7 C4 1_555 1_555
H4 C5 1_555 1_555
C8 C6 1_555 1_555
C9 C6 1_555 1_555
H5 C8 1_555 1_555
C10 C8 1_555 1_555
C11 C9 1_555 1_555
H6 C9 1_555 1_555
H7 C10 1_555 1_555
C12 C10 1_555 1_555
H8 C11 1_555 1_555
C13 C12 1_555 1_555
C14 C13 1_555 1_555
O5 C13 1_555 1_555
C15 C14 1_555 1_555
C16 C14 1_555 1_555
H9 C15 1_555 1_555
C17 C15 1_555 1_555
C18 C16 1_555 1_555
C19 C16 1_555 1_555
H10 C17 1_555 1_555
C20 C17 1_555 1_555
H11 C18 1_555 1_555
H12 C20 1_555 1_555
O2A C3 1_555 1_555
Ni1A O2A 1_555 1_555
C7A C7 1_555 1_555
C4A C7A 1_555 1_555
C5A C7A 1_555 1_555
C1A C4A 1_555 1_555
H3A C4A 1_555 1_555
H4A C5A 1_555 1_555
C2A C5A 1_555 1_555
H1A C1A 1_555 1_555
N1A C1A 1_555 1_555
H2A C2A 1_555 1_555
Ni1A_2 N1A 1_555 1_555
O1A Ni1A_2 1_555 1_555
O2A_2 Ni1A_2 1_555 1_555
O3A Ni1A_2 1_555 1_555
O4A Ni1A_2 1_555 1_555
C3A O1A 1_555 1_555
O3A_2 C19 1_555 1_555
O4_2 C19 1_555 1_555
C6A C3A 1_555 1_555
O2_2 C3A 1_555 1_555
Ni1A_3 O3A_2 1_555 1_555
Ni1_2 O4_2 1_555 1_555
C8A C6A 1_555 1_555
C9A C6A 1_555 1_555
Ni1_3 O2_2 1_555 1_555
H5A C8A 1_555 1_555
C10A C8A 1_555 1_555
C11A C9A 1_555 1_555
H6A C9A 1_555 1_555
H7A C10A 1_555 1_555
C12A C10A 1_555 1_555
H8A C11A 1_555 1_555
C13A C12A 1_555 1_555
C14A C13A 1_555 1_555
O5A C13A 1_555 1_555
C15A C14A 1_555 1_555
C16A C14A 1_555 1_555
H9A C15A 1_555 1_555
C17A C15A 1_555 1_555
C18A C16A 1_555 1_555
C19A C16A 1_555 1_555
H10A C17A 1_555 1_555
C20A C17A 1_555 1_555
H11A C18A 1_555 1_555
O3_2 C19A 1_555 1_555
O4A_2 C19A 1_555 1_555
H12A C20A 1_555 1_555
Ni1_4 O3_2 1_555 1_555
Ni1A_4 O4A_2 1_555 1_555
C5 C7 1_555 1_555
C11 C12 1_555 1_555
C18 C20 1_555 1_555
C2A N1A 1_555 1_555
C11A C12A 1_555 1_555
C18A C20A 1_555 1_555

#END
