
#######################################################################
#
#                 Cambridge Crystallographic Data Centre
#                                CCDC 
#
#######################################################################
#
# If this CIF has been generated from an entry in the Cambridge 
# Structural Database, then it will include bibliographic, chemical, 
# crystal, experimental, refinement or atomic coordinate data resulting 
# from the CCDC's data processing and validation procedures.
#
#######################################################################

data_MOZCAH
_symmetry_cell_setting           monoclinic
_symmetry_space_group_name_H-M   'C 2/c'
_symmetry_Int_Tables_number      15
_space_group_name_Hall           '-C 2yn'
loop_
_symmetry_equiv_pos_site_id
_symmetry_equiv_pos_as_xyz
1 x,y,z
2 -x,y,1/2-z
3 1/2+x,1/2+y,z
4 1/2-x,1/2+y,1/2-z
5 -x,-y,-z
6 x,-y,1/2+z
7 1/2-x,1/2-y,-z
8 1/2+x,1/2-y,1/2+z
_cell_length_a                   15.331(3)
_cell_length_b                   33.859(7)
_cell_length_c                   10.827(2)
_cell_angle_alpha                90
_cell_angle_beta                 104.229(3)
_cell_angle_gamma                90
_cell_volume                     5447.79
loop_
_atom_site_label
_atom_site_type_symbol
_atom_site_fract_x
_atom_site_fract_y
_atom_site_fract_z
C1 C 0.4911(2) 0.26673(11) 0.4631(4)
C2 C 0.4720(3) 0.29377(14) 0.5474(5)
H1 H 0.4160 0.2936 0.5663
O1 O 1.1695(2) 0.32897(10) 1.0243(4)
O2 O 1.21294(18) 0.37986(8) 0.9212(3)
C3 C 1.1623(3) 0.36343(12) 0.9816(4)
C4 C 1.0830(2) 0.38853(12) 0.9964(4)
C5 C 1.0612(3) 0.42313(13) 0.9277(4)
H2 H 1.0972 0.4320 0.8757
C6 C 0.9852(3) 0.44489(14) 0.9358(5)
H3 H 0.9715 0.4684 0.8905
C7 C 0.9305(3) 0.43135(12) 1.0116(4)
C8 C 0.8450(3) 0.45344(13) 1.0128(4)
Ni1 Ni 0.70663(3) 0.363918(12) 0.68984(4)
C9 C 0.4243(2) 0.23738(11) 0.3998(4)
O3 O 0.76822(17) 0.40079(8) 0.8446(3)
C10 C 0.7144(3) 0.38875(13) 0.9073(4)
C11 C 0.7244(3) 0.40372(17) 1.0405(5)
C12 C 0.6727(4) 0.3871(3) 1.1180(6)
H4 H 0.6332 0.3666 1.0869
C13 C 0.7840(3) 0.43446(15) 1.0887(4)
C14 C 0.7369(5) 0.4326(3) 1.2838(6)
H5 H 0.7410 0.4428 1.3648
C15 C 0.7878(3) 0.44903(18) 1.2075(5)
H6 H 0.8252 0.4704 1.2377
C16 C 0.6802(5) 0.4011(3) 1.2409(7)
H7 H 0.6476 0.3896 1.2933
O4 O 0.6529(2) 0.36390(8) 0.8585(3)
C17 C 1.0288(3) 0.37601(13) 1.0754(4)
H8 H 1.0434 0.3530 1.1226
N1 N 0.29675(19) 0.18093(9) 0.2773(3)
C18 C 0.3849(2) 0.17206(11) 0.3158(4)
H9 H 0.4030 0.1466 0.3022
C19 C 0.4499(2) 0.19894(11) 0.3745(4)
H10 H 0.5102 0.1916 0.3972
C20 C 0.2727(3) 0.21725(12) 0.3025(4)
H11 H 0.2120 0.2238 0.2774
C21 C 0.5762(3) 0.26864(13) 0.4406(4)
H12 H 0.5927 0.2507 0.3853
C22 C 0.3324(3) 0.24585(12) 0.3638(4)
H13 H 0.3114 0.2705 0.3808
N2 N 0.6176(2) 0.32344(9) 0.5824(3)
N3 N 0.6244(2) 0.41379(9) 0.6153(4)
C23 C 0.5359(3) 0.32101(14) 0.6038(5)
H14 H 0.5211 0.3389 0.6606
C24 C 0.9540(3) 0.39730(14) 1.0842(4)
H15 H 0.9193 0.3889 1.1387
C25 C 0.6378(3) 0.29756(13) 0.5013(4)
H16 H 0.6943 0.2986 0.4841
O5 O 0.8282(2) 0.48541(11) 0.9629(5)
C26 C 0.5273(3) 0.48198(12) 0.5253(5)
C27 C 0.6607(4) 0.44644(19) 0.5920(8)
H17 H 0.7230 0.4467 0.6055
C28 C 0.6165(4) 0.48027(18) 0.5497(9)
H18 H 0.6489 0.5026 0.5375
C29 C 0.4915(7) 0.4461(3) 0.4973(16)
H19 H 0.4334 0.4433 0.4463
C30 C 0.5415(7) 0.4133(3) 0.5446(16)
H20 H 0.5144 0.3888 0.5248
N3D N 0.3756(2) 0.58621(9) 0.3847(4)
C26D C 0.4727(3) 0.51802(12) 0.4747(5)
C27D C 0.3393(4) 0.55356(19) 0.4080(8)
H17D H 0.2770 0.5533 0.3945
C28D C 0.3835(4) 0.51973(18) 0.4503(9)
H18D H 0.3511 0.4974 0.4625
C29D C 0.5085(7) 0.5539(3) 0.5027(16)
H19D H 0.5666 0.5567 0.5537
C30D C 0.4585(7) 0.5867(3) 0.4554(16)
H20D H 0.4856 0.6112 0.4752
C1A C 1.5089(2) 0.26673(11) 1.0369(4)
C2A C 1.5280(3) 0.29377(14) 0.9526(5)
H1A H 1.5840 0.2936 0.9337
O1A O 0.8305(2) 0.32897(10) 0.4757(4)
O2A O 0.78706(18) 0.37986(8) 0.5788(3)
C3A C 0.8377(3) 0.36343(12) 0.5184(4)
C4A C 0.9170(2) 0.38853(12) 0.5036(4)
C5A C 0.9388(3) 0.42313(13) 0.5723(4)
H2A H 0.9028 0.4320 0.6243
C6A C 1.0148(3) 0.44489(14) 0.5642(5)
H3A H 1.0285 0.4684 0.6095
C7A C 1.0695(3) 0.43135(12) 0.4884(4)
C8A C 1.1550(3) 0.45344(13) 0.4872(4)
Ni1A Ni 1.29337(3) 0.363918(12) 0.81016(4)
C9A C 1.5757(2) 0.23738(11) 1.1002(4)
O3A O 1.23178(17) 0.40079(8) 0.6554(3)
C10A C 1.2856(3) 0.38875(13) 0.5927(4)
C11A C 1.2756(3) 0.40372(17) 0.4595(5)
C12A C 1.3273(4) 0.3871(3) 0.3820(6)
H4A H 1.3668 0.3666 0.4131
C13A C 1.2160(3) 0.43446(15) 0.4113(4)
C14A C 1.2631(5) 0.4326(3) 0.2162(6)
H5A H 1.2590 0.4428 0.1352
C15A C 1.2122(3) 0.44903(18) 0.2925(5)
H6A H 1.1748 0.4704 0.2623
C16A C 1.3198(5) 0.4011(3) 0.2591(7)
H7A H 1.3524 0.3896 0.2067
O4A O 1.3471(2) 0.36390(8) 0.6415(3)
C17A C 0.9712(3) 0.37601(13) 0.4246(4)
H8A H 0.9566 0.3530 0.3774
N1A N 1.70325(19) 0.18093(9) 1.2227(3)
C18A C 1.6151(2) 0.17206(11) 1.1842(4)
H9A H 1.5970 0.1466 1.1978
C19A C 1.5501(2) 0.19894(11) 1.1255(4)
H10A H 1.4898 0.1916 1.1028
C20A C 1.7273(3) 0.21725(12) 1.1975(4)
H11A H 1.7880 0.2238 1.2226
C21A C 1.4238(3) 0.26864(13) 1.0594(4)
H12A H 1.4073 0.2507 1.1147
C22A C 1.6676(3) 0.24585(12) 1.1362(4)
H13A H 1.6886 0.2705 1.1192
N2A N 1.3824(2) 0.32344(9) 0.9176(3)
C23A C 1.4641(3) 0.32101(14) 0.8962(5)
H14A H 1.4789 0.3389 0.8394
C24A C 1.0460(3) 0.39730(14) 0.4158(4)
H15A H 1.0807 0.3889 0.3613
C25A C 1.3622(3) 0.29756(13) 0.9987(4)
H16A H 1.3057 0.2986 1.0159
O5A O 1.1718(2) 0.48541(11) 0.5371(5)
Ni1D Ni 0.29337(3) 0.636082(12) 0.31016(4)
Ni1F Ni 1.79337(3) 0.136082(12) 1.31016(4)
Ni1G Ni 0.20663(3) 0.136082(12) 0.18984(4)
N1F N 1.20325(19) 0.31907(9) 0.7227(3)
N1G N 0.79675(19) 0.31907(9) 0.7773(3)
N3A N 1.3756(2) 0.41379(9) 0.8847(4)
O6 O 0.1421(10) 0.2972(4) 0.2598(9)
C31? C 0.4981(8) 0.4561(4) 0.6164(14)
H21? H 0.4469 0.4618 0.6445
C32? C 0.5494(9) 0.4228(4) 0.6590(16)
H22? H 0.5330 0.4062 0.7180
loop_
_geom_bond_atom_site_label_1
_geom_bond_atom_site_label_2
_geom_bond_site_symmetry_1
_geom_bond_site_symmetry_2
C1 C2 1_555 1_555
C2 H1 1_555 1_555
O1 C3 1_555 1_555
O2 C3 1_555 1_555
C3 C4 1_555 1_555
C4 C5 1_555 1_555
C5 H2 1_555 1_555
C6 C5 1_555 1_555
H3 C6 1_555 1_555
C7 C6 1_555 1_555
C8 C7 1_555 1_555
Ni1 O3 1_555 1_555
C9 C1 1_555 1_555
O3 C10 1_555 1_555
C10 C11 1_555 1_555
C11 C12 1_555 1_555
C12 H4 1_555 1_555
C13 C8 1_555 1_555
C14 H5 1_555 1_555
C15 C13 1_555 1_555
H6 C15 1_555 1_555
C16 C12 1_555 1_555
H7 C16 1_555 1_555
O4 Ni1 1_555 1_555
C17 C4 1_555 1_555
H8 C17 1_555 1_555
N1 C18 1_555 1_555
C18 H9 1_555 1_555
C19 C9 1_555 1_555
H10 C19 1_555 1_555
C20 N1 1_555 1_555
H11 C20 1_555 1_555
C21 C1 1_555 1_555
H12 C21 1_555 1_555
C22 C9 1_555 1_555
H13 C22 1_555 1_555
N2 Ni1 1_555 1_555
N3 Ni1 1_555 1_555
C23 C2 1_555 1_555
H14 C23 1_555 1_555
C24 C7 1_555 1_555
H15 C24 1_555 1_555
C25 C21 1_555 1_555
H16 C25 1_555 1_555
O5 C8 1_555 1_555
C26 C28 1_555 1_555
C27 N3 1_555 1_555
H17 C27 1_555 1_555
C28 C27 1_555 1_555
H18 C28 1_555 1_555
C29 C26 1_555 1_555
H19 C29 1_555 1_555
C30 N3 1_555 1_555
H20 C30 1_555 1_555
N3D C27D 1_555 1_555
C26D C26 1_555 1_555
C27D H17D 1_555 1_555
C28D C26D 1_555 1_555
H18D C28D 1_555 1_555
C29D C26D 1_555 1_555
H19D C29D 1_555 1_555
C30D N3D 1_555 1_555
H20D C30D 1_555 1_555
C1A C2A 1_555 1_555
C2A H1A 1_555 1_555
O1A C3A 1_555 1_555
O2A Ni1 1_555 1_555
C3A O2A 1_555 1_555
C4A C3A 1_555 1_555
C5A C4A 1_555 1_555
H2A C5A 1_555 1_555
C6A C5A 1_555 1_555
H3A C6A 1_555 1_555
C7A C6A 1_555 1_555
C8A C7A 1_555 1_555
Ni1A O2 1_555 1_555
C9A C1A 1_555 1_555
O3A Ni1A 1_555 1_555
C10A O3A 1_555 1_555
C11A C10A 1_555 1_555
C12A C11A 1_555 1_555
H4A C12A 1_555 1_555
C13A C8A 1_555 1_555
C14A H5A 1_555 1_555
C15A C13A 1_555 1_555
H6A C15A 1_555 1_555
C16A C12A 1_555 1_555
H7A C16A 1_555 1_555
O4A Ni1A 1_555 1_555
C17A C4A 1_555 1_555
H8A C17A 1_555 1_555
N1A C18A 1_555 1_555
C18A H9A 1_555 1_555
C19A C9A 1_555 1_555
H10A C19A 1_555 1_555
C20A N1A 1_555 1_555
H11A C20A 1_555 1_555
C21A C1A 1_555 1_555
H12A C21A 1_555 1_555
C22A C9A 1_555 1_555
H13A C22A 1_555 1_555
N2A Ni1A 1_555 1_555
C23A C2A 1_555 1_555
H14A C23A 1_555 1_555
C24A C7A 1_555 1_555
H15A C24A 1_555 1_555
C25A C21A 1_555 1_555
H16A C25A 1_555 1_555
O5A C8A 1_555 1_555
Ni1D N3D 1_555 1_555
Ni1F N1A 1_555 1_555
Ni1G N1 1_555 1_555
N1F Ni1A 1_555 1_555
N1G Ni1 1_555 1_555
N3A Ni1A 1_555 1_555
C10 O4 1_555 1_555
C11 C13 1_555 1_555
C14 C15 1_555 1_555
C14 C16 1_555 1_555
C17 C24 1_555 1_555
C18 C19 1_555 1_555
C20 C22 1_555 1_555
N2 C23 1_555 1_555
N2 C25 1_555 1_555
C29 C30 1_555 1_555
C27D C28D 1_555 1_555
C29D C30D 1_555 1_555
C10A O4A 1_555 1_555
C11A C13A 1_555 1_555
C14A C15A 1_555 1_555
C14A C16A 1_555 1_555
C17A C24A 1_555 1_555
C18A C19A 1_555 1_555
C20A C22A 1_555 1_555
N2A C23A 1_555 1_555
N2A C25A 1_555 1_555

#END
