
#######################################################################
#
#                 Cambridge Crystallographic Data Centre
#                                CCDC 
#
#######################################################################
#
# If this CIF has been generated from an entry in the Cambridge 
# Structural Database, then it will include bibliographic, chemical, 
# crystal, experimental, refinement or atomic coordinate data resulting 
# from the CCDC's data processing and validation procedures.
#
#######################################################################

data_MOZCEL
_symmetry_cell_setting           monoclinic
_symmetry_space_group_name_H-M   'C c'
_symmetry_Int_Tables_number      9
_space_group_name_Hall           'C -2yc'
loop_
_symmetry_equiv_pos_site_id
_symmetry_equiv_pos_as_xyz
1 x,y,z
2 x,-y,1/2+z
3 1/2+x,1/2+y,z
4 1/2+x,1/2-y,1/2+z
_cell_length_a                   9.765
_cell_length_b                   17.154
_cell_length_c                   14.568
_cell_angle_alpha                90
_cell_angle_beta                 103.06
_cell_angle_gamma                90
_cell_volume                     2377.15
loop_
_atom_site_label
_atom_site_type_symbol
_atom_site_fract_x
_atom_site_fract_y
_atom_site_fract_z
C1 C 0.8053(6) 1.0956(3) 0.2292(4)
H1 H 0.8540 1.0562 0.2066
C2 C 0.7359(6) 1.1502(4) 0.1666(4)
H2 H 0.7383 1.1466 0.1032
C3 C 0.6634(6) 1.2099(4) 0.1962(4)
C4 C 0.6604(8) 1.2108(5) 0.2936(4)
H3 H 0.6108 1.2491 0.3176
C5 C 0.7318(8) 1.1542(4) 0.3508(4)
H4 H 0.7295 1.1553 0.4142
C6 C 0.5976(6) 1.2738(3) 0.1326(4)
C7 C 0.6260(7) 1.2825(4) 0.0451(5)
H5 H 0.6839 1.2467 0.0244
C8 C 0.5694(7) 1.3442(4) -0.0132(4)
H6 H 0.5907 1.3484 -0.0721
C9 C 0.4551(6) 1.3890(4) 0.0966(4)
H7 H 0.3954 1.4251 0.1148
C10 C 0.5068(7) 1.3299(4) 0.1578(5)
H8 H 0.4822 1.3267 0.2157
C11 C 0.6181(6) 0.9704(4) 0.4302(4)
C12 C 0.5077(6) 0.9642(4) 0.4871(4)
C13 C 0.4211(6) 0.8983(3) 0.4767(4)
H9 H 0.4262 0.8613 0.4309
C14 C 0.3287(6) 0.8880(4) 0.5342(4)
H10 H 0.2758 0.8424 0.5293
C15 C 0.3130(6) 0.9438(3) 0.5987(4)
C16 C 0.3962(9) 1.0117(4) 0.6080(6)
H11 H 0.3841 1.0510 0.6495
C17 C 0.4943(8) 1.0192(4) 0.5558(6)
H12 H 0.5544 1.0619 0.5659
C18 C 0.2135(6) 0.9361(4) 0.6621(4)
C19 C 0.1557(5) 0.8561(3) 0.6759(4)
C20 C 0.2063(7) 0.8195(4) 0.7612(4)
H13 H 0.2721 0.8447 0.8079
C21 C 0.1600(9) 0.7457(4) 0.7780(5)
H14 H 0.1923 0.7220 0.8363
C22 C 0.0648(8) 0.7073(4) 0.7069(6)
H15 H 0.0336 0.6577 0.7176
C23 C 0.0168(7) 0.7422(4) 0.6211(5)
H16 H -0.0443 0.7151 0.5736
C24 C 0.0580(6) 0.8179(3) 0.6035(4)
C25 C -0.0062(6) 0.8588(3) 0.5126(4)
N1 N 0.8062(5) 1.0964(3) 0.3209(3)
N2 N 0.4855(5) 1.3978(3) 0.0122(4)
Ni1 Ni 0.90509(4) 1.01272(3) 0.41698(3)
O1 O 0.7281(6) 1.0061(3) 0.4692(4)
O2 O 0.5907(5) 0.9401(4) 0.3504(3)
O3 O 0.1924(6) 0.9905(3) 0.7128(4)
O4 O 0.0013(4) 0.9319(3) 0.5153(3)
O5 O -0.0614(9) 0.8190(3) 0.4446(5)
O6 O 1.1014(6) 1.0136(3) 0.3762(4)
H17 H 1.1503 0.9747 0.4005
H18 H 1.0868 1.0110 0.3165
O7 O 0.8417(5) 0.9286(3) 0.3146(3)
H19 H 0.8733 0.8846 0.3363
H20 H 0.7524 0.9273 0.3002
N2C N 0.9855(5) 1.1022(3) 0.5122(4)
Ni1_2 Ni -0.09491(4) 1.01272(3) 0.41698(3)
Ni1C Ni 0.40509(4) 1.48728(3) -0.08302(3)
O4_2 O 1.0013(4) 0.9319(3) 0.5153(3)
loop_
_geom_bond_atom_site_label_1
_geom_bond_atom_site_label_2
_geom_bond_site_symmetry_1
_geom_bond_site_symmetry_2
C1 H1 1_555 1_555
C2 C1 1_555 1_555
H2 C2 1_555 1_555
C3 C2 1_555 1_555
C4 C3 1_555 1_555
H3 C4 1_555 1_555
C5 C4 1_555 1_555
H4 C5 1_555 1_555
C6 C3 1_555 1_555
C7 C6 1_555 1_555
H5 C7 1_555 1_555
C8 C7 1_555 1_555
H6 C8 1_555 1_555
C9 H7 1_555 1_555
C10 C6 1_555 1_555
H8 C10 1_555 1_555
C11 C12 1_555 1_555
C12 C13 1_555 1_555
C13 H9 1_555 1_555
C14 C13 1_555 1_555
H10 C14 1_555 1_555
C15 C14 1_555 1_555
C16 C15 1_555 1_555
H11 C16 1_555 1_555
C17 C12 1_555 1_555
H12 C17 1_555 1_555
C18 C15 1_555 1_555
C19 C18 1_555 1_555
C20 C19 1_555 1_555
H13 C20 1_555 1_555
C21 C20 1_555 1_555
H14 C21 1_555 1_555
C22 C21 1_555 1_555
H15 C22 1_555 1_555
C23 C22 1_555 1_555
H16 C23 1_555 1_555
C24 C19 1_555 1_555
C25 C24 1_555 1_555
N1 C1 1_555 1_555
N2 C8 1_555 1_555
Ni1 N1 1_555 1_555
O1 C11 1_555 1_555
O2 C11 1_555 1_555
O3 C18 1_555 1_555
O4 C25 1_555 1_555
O5 C25 1_555 1_555
O6 Ni1 1_555 1_555
H17 O6 1_555 1_555
H18 O6 1_555 1_555
O7 Ni1 1_555 1_555
H19 O7 1_555 1_555
H20 O7 1_555 1_555
N2C Ni1 1_555 1_555
Ni1_2 O4 1_555 1_555
Ni1C N2 1_555 1_555
O4_2 Ni1 1_555 1_555
C5 N1 1_555 1_555
C9 C10 1_555 1_555
C9 N2 1_555 1_555
C16 C17 1_555 1_555
C23 C24 1_555 1_555
Ni1 O1 1_555 1_555

#END
