
#######################################################################
#
#                 Cambridge Crystallographic Data Centre
#                                CCDC 
#
#######################################################################
#
# If this CIF has been generated from an entry in the Cambridge 
# Structural Database, then it will include bibliographic, chemical, 
# crystal, experimental, refinement or atomic coordinate data resulting 
# from the CCDC's data processing and validation procedures.
#
#######################################################################

data_MOZCUB
_symmetry_cell_setting           monoclinic
_symmetry_space_group_name_H-M   'C 2/c'
_symmetry_Int_Tables_number      15
_space_group_name_Hall           '-C 2yn'
loop_
_symmetry_equiv_pos_site_id
_symmetry_equiv_pos_as_xyz
1 x,y,z
2 -x,y,1/2-z
3 1/2+x,1/2+y,z
4 1/2-x,1/2+y,1/2-z
5 -x,-y,-z
6 x,-y,1/2+z
7 1/2-x,1/2-y,-z
8 1/2+x,1/2-y,1/2+z
_cell_length_a                   25.434(7)
_cell_length_b                   13.976(4)
_cell_length_c                   17.825(5)
_cell_angle_alpha                90
_cell_angle_beta                 99.875(5)
_cell_angle_gamma                90
_cell_volume                     6242.3
loop_
_atom_site_label
_atom_site_type_symbol
_atom_site_fract_x
_atom_site_fract_y
_atom_site_fract_z
Zn1 Zn 0.295871(9) 0.739652(15) 0.204165(12)
O1 O 0.22407(6) 0.78379(12) 0.21163(8)
N1 N 0.34858(6) 0.81340(12) 0.15119(9)
C1 C 0.19709(8) 0.79501(15) 0.14451(12)
N2 N 0.28824(7) 0.61088(11) 0.14698(9)
C2 C 0.26884(8) 0.43623(14) 0.07059(11)
C3 C -0.05970(10) 0.8264(3) 0.05905(13)
O2 O 0.21708(6) 0.78945(14) 0.08631(10)
O3 O 0.21443(8) 0.41209(11) -0.08211(9)
O4 O -0.17079(7) 0.81405(14) -0.19730(9)
C4 C 0.25864(9) 0.34196(14) 0.03242(11)
C5 C 0.29028(9) 0.60313(15) 0.07274(11)
H1 H 0.2982 0.6573 0.0465
O5 O -0.15876(8) 0.66218(15) -0.17055(11)
C6 C 0.28113(9) 0.51789(14) 0.03337(11)
H2 H 0.2832 0.5155 -0.0182
C7 C 0.13827(8) 0.81263(16) 0.13937(12)
C8 C 0.42462(9) 0.90696(15) 0.08077(12)
C9 C 0.33441(9) 0.86113(16) 0.08644(12)
H3 H 0.2985 0.8628 0.0645
C10 C 0.37061(9) 0.90822(17) 0.05040(13)
H4 H 0.3588 0.9411 0.0053
C11 C 0.23243(9) 0.33086(14) -0.04258(12)
C12 C 0.27581(10) 0.25928(14) 0.07389(12)
H5 H 0.2933 0.2653 0.1240
O6 O 0.51452(8) 1.00964(15) 0.15668(9)
C13 C 0.26687(11) 0.44450(15) 0.14799(12)
H6 H 0.2583 0.3918 0.1753
C14 C 0.46429(9) 0.95495(16) 0.04089(12)
C15 C 0.50897(10) 1.00415(17) 0.07911(12)
C16 C -0.15370(10) 0.7471(2) -0.15273(14)
C17 C -0.12362(9) 0.77654(19) -0.07525(12)
C18 C 0.10541(9) 0.81466(18) 0.06871(12)
H7 H 0.1202 0.8079 0.0248
C19 C 0.27766(10) 0.53121(16) 0.18347(12)
H8 H 0.2776 0.5349 0.2356
C20 C 0.45611(9) 0.95252(17) -0.03809(12)
H9 H 0.4263 0.9209 -0.0642
O7 O -0.02518(7) 0.85132(18) 0.12621(9)
C21 C 0.05067(9) 0.8267(2) 0.06273(13)
H10 H 0.0290 0.8278 0.0151
C22 C -0.06907(12) 0.7327(3) 0.04243(16)
H11 H -0.0539 0.6859 0.0765
C23 C 0.02893(9) 0.8370(2) 0.12687(13)
C24 C 0.11556(9) 0.8238(2) 0.20310(13)
H12 H 0.1371 0.8224 0.2509
C25 C -0.10130(11) 0.7065(2) -0.02540(15)
H13 H -0.1078 0.6422 -0.0371
C26 C 0.40061(9) 0.81287(19) 0.18128(14)
H14 H 0.4113 0.7803 0.2268
C27 C 0.43894(10) 0.85778(19) 0.14854(14)
H15 H 0.4745 0.8552 0.1719
C28 C -0.08334(11) 0.8966(2) 0.01226(15)
H16 H -0.0780 0.9607 0.0254
C29 C 0.56376(14) 1.0469(3) 0.19777(15)
H17 H 0.5932 1.0133 0.1828
H18 H 0.5646 1.0387 0.2514
H19 H 0.5664 1.1138 0.1866
C30 C 0.06142(10) 0.8371(3) 0.19777(13)
H20 H 0.0467 0.8460 0.2415
C31 C 0.18765(14) 0.4027(2) -0.15733(14)
H21 H 0.2100 0.3693 -0.1868
H22 H 0.1794 0.4651 -0.1788
H23 H 0.1552 0.3675 -0.1579
C32 C -0.11552(10) 0.8705(2) -0.05543(14)
H24 H -0.1319 0.9179 -0.0880
N1D N 0.65142(6) 1.18660(12) -0.15119(9)
C8D C 0.57538(9) 1.09304(15) -0.08077(12)
C9D C 0.66559(9) 1.13887(16) -0.08644(12)
H3D H 0.7015 1.1372 -0.0645
C10D C 0.62939(9) 1.09178(17) -0.05040(13)
H4D H 0.6412 1.0589 -0.0053
O6D O 0.48548(8) 0.99036(15) -0.15668(9)
C14D C 0.53571(9) 1.04505(16) -0.04089(12)
C15D C 0.49103(10) 0.99585(17) -0.07911(12)
C20D C 0.54389(9) 1.04748(17) 0.03809(12)
H9D H 0.5737 1.0791 0.0642
C26D C 0.59939(9) 1.18713(19) -0.18128(14)
H14D H 0.5887 1.2197 -0.2268
C27D C 0.56106(10) 1.14222(19) -0.14854(14)
H15D H 0.5255 1.1448 -0.1719
C29D C 0.43624(14) 0.9531(3) -0.19777(15)
H17D H 0.4068 0.9867 -0.1828
H18D H 0.4354 0.9613 -0.2514
H19D H 0.4336 0.8862 -0.1866
N2F N 0.21176(7) -0.11088(11) -0.14698(9)
C2F C 0.23116(8) 0.06377(14) -0.07059(11)
O3F O 0.28557(8) 0.08791(11) 0.08211(9)
C4F C 0.24136(9) 0.15804(14) -0.03242(11)
C5F C 0.20972(9) -0.10313(15) -0.07274(11)
H1F H 0.2018 -0.1573 -0.0465
C6F C 0.21887(9) -0.01789(14) -0.03337(11)
H2F H 0.2168 -0.0155 0.0182
C11F C 0.26757(9) 0.16914(14) 0.04258(12)
C12F C 0.22419(10) 0.24072(14) -0.07389(12)
H5F H 0.2067 0.2347 -0.1240
C13F C 0.23313(11) 0.05550(15) -0.14799(12)
H6F H 0.2417 0.1082 -0.1753
C19F C 0.22234(10) -0.03121(16) -0.18347(12)
H8F H 0.2224 -0.0349 -0.2356
C31F C 0.31235(14) 0.0973(2) 0.15733(14)
H21F H 0.2900 0.1307 0.1868
H22F H 0.3206 0.0349 0.1788
H23F H 0.3448 0.1325 0.1579
Zn1D Zn 0.704129(9) 1.260348(15) -0.204165(12)
O1D O 0.77593(6) 1.21621(12) -0.21163(8)
C1D C 0.80291(8) 1.20499(15) -0.14451(12)
C3D C 1.05970(10) 1.1736(3) -0.05905(13)
O2D O 0.78292(6) 1.21055(14) -0.08631(10)
O4D O 1.17079(7) 1.18595(14) 0.19730(9)
O5D O 1.15876(8) 1.33782(15) 0.17055(11)
C7D C 0.86173(8) 1.18737(16) -0.13937(12)
C16D C 1.15370(10) 1.2529(2) 0.15273(14)
C17D C 1.12362(9) 1.22346(19) 0.07525(12)
C18D C 0.89459(9) 1.18534(18) -0.06871(12)
H7D H 0.8798 1.1921 -0.0248
O7D O 1.02518(7) 1.14868(18) -0.12621(9)
C21D C 0.94933(9) 1.1733(2) -0.06273(13)
H10D H 0.9710 1.1722 -0.0151
C22D C 1.06907(12) 1.2673(3) -0.04243(16)
H11D H 1.0539 1.3141 -0.0765
C23D C 0.97107(9) 1.1630(2) -0.12687(13)
C24D C 0.88444(9) 1.1762(2) -0.20310(13)
H12D H 0.8629 1.1776 -0.2509
C25D C 1.10130(11) 1.2935(2) 0.02540(15)
H13D H 1.1078 1.3578 0.0371
C28D C 1.08334(11) 1.1034(2) -0.01226(15)
H16D H 1.0780 1.0393 -0.0254
C30D C 0.93858(10) 1.1629(3) -0.19777(13)
H20D H 0.9533 1.1540 -0.2415
C32D C 1.11552(10) 1.1295(2) 0.05543(14)
H24D H 1.1319 1.0821 0.0880
Zn1C Zn 1.204129(9) 1.239652(15) 0.295835(12)
Zn1F Zn 0.204129(9) -0.239652(15) -0.204165(12)
Zn1G Zn -0.204129(9) 0.760348(15) -0.295835(12)
N2D N 0.71176(7) 1.38912(11) -0.14698(9)
O4C O 0.67079(7) 1.31405(14) -0.30270(9)
O4G O 0.32921(7) 0.68595(14) 0.30270(9)
loop_
_geom_bond_atom_site_label_1
_geom_bond_atom_site_label_2
_geom_bond_site_symmetry_1
_geom_bond_site_symmetry_2
Zn1 O1 1_555 1_555
O1 C1 1_555 1_555
N1 Zn1 1_555 1_555
C1 O2 1_555 1_555
N2 Zn1 1_555 1_555
C2 C4 1_555 1_555
C3 O7 1_555 1_555
O3 C11 1_555 1_555
O4 C16 1_555 1_555
C4 C11 1_555 1_555
C5 N2 1_555 1_555
H1 C5 1_555 1_555
O5 C16 1_555 1_555
C6 C2 1_555 1_555
H2 C6 1_555 1_555
C7 C1 1_555 1_555
C8 C10 1_555 1_555
C9 N1 1_555 1_555
H3 C9 1_555 1_555
C10 C9 1_555 1_555
H4 C10 1_555 1_555
C11 C12F 1_555 1_555
C12 C4 1_555 1_555
H5 C12 1_555 1_555
O6 C15 1_555 1_555
C13 C2 1_555 1_555
H6 C13 1_555 1_555
C14 C8 1_555 1_555
C15 C14 1_555 1_555
C16 C17 1_555 1_555
C17 C25 1_555 1_555
C18 C7 1_555 1_555
H7 C18 1_555 1_555
C19 N2 1_555 1_555
H8 C19 1_555 1_555
C20 C14 1_555 1_555
H9 C20 1_555 1_555
O7 C23 1_555 1_555
C21 C18 1_555 1_555
H10 C21 1_555 1_555
C22 C3 1_555 1_555
H11 C22 1_555 1_555
C23 C21 1_555 1_555
C24 C7 1_555 1_555
H12 C24 1_555 1_555
C25 C22 1_555 1_555
H13 C25 1_555 1_555
C26 N1 1_555 1_555
H14 C26 1_555 1_555
C27 C8 1_555 1_555
H15 C27 1_555 1_555
C28 C3 1_555 1_555
H16 C28 1_555 1_555
C29 O6 1_555 1_555
H17 C29 1_555 1_555
H18 C29 1_555 1_555
H19 C29 1_555 1_555
C30 C23 1_555 1_555
H20 C30 1_555 1_555
C31 O3 1_555 1_555
H21 C31 1_555 1_555
H22 C31 1_555 1_555
H23 C31 1_555 1_555
C32 C17 1_555 1_555
H24 C32 1_555 1_555
N1D C9D 1_555 1_555
C8D C10D 1_555 1_555
C9D H3D 1_555 1_555
C10D C9D 1_555 1_555
H4D C10D 1_555 1_555
O6D C15D 1_555 1_555
C14D C8D 1_555 1_555
C15D C20 1_555 1_555
C20D C15 1_555 1_555
H9D C20D 1_555 1_555
C26D N1D 1_555 1_555
H14D C26D 1_555 1_555
C27D C8D 1_555 1_555
H15D C27D 1_555 1_555
C29D O6D 1_555 1_555
H17D C29D 1_555 1_555
H18D C29D 1_555 1_555
H19D C29D 1_555 1_555
N2F C5F 1_555 1_555
C2F C4F 1_555 1_555
O3F C11F 1_555 1_555
C4F C11F 1_555 1_555
C5F H1F 1_555 1_555
C6F C2F 1_555 1_555
H2F C6F 1_555 1_555
C11F C12 1_555 1_555
C12F C4F 1_555 1_555
H5F C12F 1_555 1_555
C13F C2F 1_555 1_555
H6F C13F 1_555 1_555
C19F N2F 1_555 1_555
H8F C19F 1_555 1_555
C31F O3F 1_555 1_555
H21F C31F 1_555 1_555
H22F C31F 1_555 1_555
H23F C31F 1_555 1_555
Zn1D N1D 1_555 1_555
O1D Zn1D 1_555 1_555
C1D O1D 1_555 1_555
C3D O7D 1_555 1_555
O2D C1D 1_555 1_555
O4D C16D 1_555 1_555
O5D C16D 1_555 1_555
C7D C1D 1_555 1_555
C16D C17D 1_555 1_555
C17D C25D 1_555 1_555
C18D C7D 1_555 1_555
H7D C18D 1_555 1_555
O7D C23D 1_555 1_555
C21D C18D 1_555 1_555
H10D C21D 1_555 1_555
C22D C3D 1_555 1_555
H11D C22D 1_555 1_555
C23D C21D 1_555 1_555
C24D C7D 1_555 1_555
H12D C24D 1_555 1_555
C25D C22D 1_555 1_555
H13D C25D 1_555 1_555
C28D C3D 1_555 1_555
H16D C28D 1_555 1_555
C30D C23D 1_555 1_555
H20D C30D 1_555 1_555
C32D C17D 1_555 1_555
H24D C32D 1_555 1_555
Zn1C O4D 1_555 1_555
Zn1F N2F 1_555 1_555
Zn1G O4 1_555 1_555
N2D Zn1D 1_555 1_555
O4C Zn1D 1_555 1_555
O4G Zn1 1_555 1_555
C5 C6 1_555 1_555
C13 C19 1_555 1_555
C24 C30 1_555 1_555
C26 C27 1_555 1_555
C28 C32 1_555 1_555
C14D C15D 1_555 1_555
C14D C20D 1_555 1_555
C26D C27D 1_555 1_555
C5F C6F 1_555 1_555
C13F C19F 1_555 1_555
C24D C30D 1_555 1_555
C28D C32D 1_555 1_555

#END
