
#######################################################################
#
#                 Cambridge Crystallographic Data Centre
#                                CCDC 
#
#######################################################################
#
# If this CIF has been generated from an entry in the Cambridge 
# Structural Database, then it will include bibliographic, chemical, 
# crystal, experimental, refinement or atomic coordinate data resulting 
# from the CCDC's data processing and validation procedures.
#
#######################################################################

data_MOZDIQ
_symmetry_cell_setting           triclinic
_symmetry_space_group_name_H-M   'P -1'
_symmetry_Int_Tables_number      2
_space_group_name_Hall           '-P 1'
loop_
_symmetry_equiv_pos_site_id
_symmetry_equiv_pos_as_xyz
1 x,y,z
2 -x,-y,-z
_cell_length_a                   11.5007(11)
_cell_length_b                   11.7623(11)
_cell_length_c                   13.8198(13)
_cell_angle_alpha                70.8350(10)
_cell_angle_beta                 65.6940(10)
_cell_angle_gamma                76.9930(10)
_cell_volume                     1600.52
loop_
_atom_site_label
_atom_site_type_symbol
_atom_site_fract_x
_atom_site_fract_y
_atom_site_fract_z
Ni1 Ni 0.33845(3) 0.36300(3) 0.45094(3)
O1 O 0.36694(19) 0.19241(18) 0.40268(17)
O2 O 0.24997(18) 0.35949(18) 0.35047(17)
O3 O 0.20083(17) 0.28403(17) -0.39661(16)
O4 O 0.39428(18) 0.30363(19) -0.41441(16)
O5 O 0.1804(2) 0.90262(18) 0.59724(19)
O6 O 0.1529(2) 0.0476(2) 0.10091(18)
O7 O 0.81059(19) 0.4360(2) -0.04121(18)
N1 N 0.2643(2) 0.5341(2) 0.4671(2)
N2 N 0.5091(2) 0.4100(2) 0.33041(19)
C1 C 0.2514(3) 0.2114(3) -0.2347(2)
C2 C 0.2846(2) 0.2688(2) -0.3546(2)
C3 C 0.1374(2) 0.7645(2) 0.4864(2)
C4 C 0.2939(3) 0.2497(3) 0.3508(2)
C5 C 0.1310(3) 0.1723(3) -0.1705(2)
H1 H 0.0724 0.1799 -0.2033
C6 C 0.2568(3) 0.1923(3) 0.2872(2)
C7 C 0.6159(3) 0.3413(3) 0.3395(2)
H2 H 0.6083 0.2758 0.4011
C8 C -0.0243(2) 0.9323(2) 0.4468(2)
H3 H -0.0414 0.8865 0.4115
C9 C 0.9696(3) 0.5143(3) 0.1034(2)
H4 H 0.9490 0.5250 0.1726
C10 C 0.3056(3) 0.1469(3) -0.0723(3)
H5 H 0.3638 0.1390 -0.0390
C11 C 0.0678(3) 0.8861(2) 0.4942(2)
C12 C 0.2699(3) 0.7410(2) 0.4545(2)
H6 H 0.3189 0.8024 0.4386
C13 C 0.0914(3) 0.9542(3) 0.5490(2)
C14 C 0.8774(3) 0.4816(3) 0.0801(2)
C15 C 0.5215(3) 0.5042(3) 0.2408(2)
H7 H 0.4482 0.5536 0.2342
C16 C 0.3391(3) 0.1982(3) -0.1854(2)
H8 H 0.4203 0.2237 -0.2280
C17 C 0.3293(2) 0.6261(3) 0.4465(2)
H9 H 0.4180 0.6123 0.4258
C18 C 0.1352(3) 0.5566(3) 0.5005(3)
H10 H 0.0879 0.4931 0.5185
C19 C 0.6383(3) 0.5303(3) 0.1585(2)
H11 H 0.6431 0.5957 0.0972
C20 C 0.3036(3) 0.0758(3) 0.2788(2)
H12 H 0.3577 0.0297 0.3154
C21 C 0.7370(3) 0.3633(3) 0.2612(2)
H13 H 0.8092 0.3149 0.2715
C22 C 0.1862(3) 0.1080(3) -0.0104(2)
C23 C 0.7494(3) 0.4583(3) 0.1674(2)
C24 C 0.0972(3) 0.1221(3) -0.0581(3)
H14 H 0.0156 0.0981 -0.0150
C25 C 0.2701(3) 0.0266(3) 0.2154(3)
H15 H 0.3017 -0.0518 0.2094
C26 C 0.1897(3) 0.0966(3) 0.1621(2)
C27 C 0.1723(3) 0.2594(3) 0.2343(3)
H16 H 0.1377 0.3368 0.2422
C28 C 0.0705(3) 0.6677(3) 0.5091(3)
H17 H -0.0183 0.6788 0.5302
C29 C 0.8421(3) 0.4007(3) -0.1398(3)
H18 H 0.8696 0.4683 -0.2027
H19 H 0.7679 0.3745 -0.1382
H20 H 0.9100 0.3355 -0.1445
C30 C 0.9074(3) 0.4685(3) -0.0250(2)
C31 C 0.2004(3) 0.9696(3) 0.6573(3)
H21 H 0.2289 1.0461 0.6089
H22 H 0.2643 0.9249 0.6872
H23 H 0.1214 0.9828 0.7161
C32 C 0.1398(3) 0.2124(3) 0.1708(3)
H24 H 0.0853 0.2581 0.1344
O5A O -0.1804(2) 1.09738(18) 0.40276(19)
N1A N -0.2643(2) 1.4659(2) 0.5329(2)
C3A C -0.1374(2) 1.2355(2) 0.5136(2)
C8A C 0.0243(2) 1.0677(2) 0.5532(2)
H3A H 0.0414 1.1135 0.5885
C11A C -0.0678(3) 1.1139(2) 0.5058(2)
C12A C -0.2699(3) 1.2590(2) 0.5455(2)
H6A H -0.3189 1.1976 0.5614
C13A C -0.0914(3) 1.0458(3) 0.4510(2)
C17A C -0.3293(2) 1.3739(3) 0.5535(2)
H9A H -0.4180 1.3877 0.5742
C18A C -0.1352(3) 1.4434(3) 0.4995(3)
H10A H -0.0879 1.5069 0.4815
C28A C -0.0705(3) 1.3323(3) 0.4909(3)
H17A H 0.0183 1.3212 0.4698
C31A C -0.2004(3) 1.0304(3) 0.3427(3)
H21A H -0.2289 0.9539 0.3911
H22A H -0.2643 1.0751 0.3128
H23A H -0.1214 1.0172 0.2839
O7A O 1.18941(19) 0.5640(2) 0.04121(18)
N2A N 1.4909(2) 0.5900(2) -0.33041(19)
C7A C 1.3841(3) 0.6587(3) -0.3395(2)
H2A H 1.3917 0.7242 -0.4011
C9A C 1.0304(3) 0.4857(3) -0.1034(2)
H4A H 1.0510 0.4750 -0.1726
C14A C 1.1226(3) 0.5184(3) -0.0801(2)
C15A C 1.4785(3) 0.4958(3) -0.2408(2)
H7A H 1.5518 0.4464 -0.2342
C19A C 1.3617(3) 0.4697(3) -0.1585(2)
H11A H 1.3569 0.4043 -0.0972
C21A C 1.2630(3) 0.6367(3) -0.2612(2)
H13A H 1.1908 0.6851 -0.2715
C23A C 1.2506(3) 0.5417(3) -0.1674(2)
C29A C 1.1579(3) 0.5993(3) 0.1398(3)
H18A H 1.1304 0.5317 0.2027
H19A H 1.2321 0.6255 0.1382
H20A H 1.0900 0.6645 0.1445
C30A C 1.0926(3) 0.5315(3) 0.0250(2)
Ni1A Ni -0.33845(3) 1.63700(3) 0.54906(3)
O1A O -0.36694(19) 1.80759(18) 0.59732(17)
O2A O -0.24997(18) 1.64051(18) 0.64953(17)
O3A O -0.20083(17) 1.71597(17) 1.39661(16)
O4A O -0.39428(18) 1.69637(19) 1.41441(16)
O6A O -0.1529(2) 1.9524(2) 0.89909(18)
C1A C -0.2514(3) 1.7886(3) 1.2347(2)
C2A C -0.2846(2) 1.7312(2) 1.3546(2)
C4A C -0.2939(3) 1.7503(3) 0.6492(2)
C5A C -0.1310(3) 1.8277(3) 1.1705(2)
H1A H -0.0724 1.8201 1.2033
C6A C -0.2568(3) 1.8077(3) 0.7128(2)
C10A C -0.3056(3) 1.8531(3) 1.0723(3)
H5A H -0.3638 1.8610 1.0390
C16A C -0.3391(3) 1.8018(3) 1.1854(2)
H8A H -0.4203 1.7763 1.2280
C20A C -0.3036(3) 1.9242(3) 0.7212(2)
H12A H -0.3577 1.9703 0.6846
C22A C -0.1862(3) 1.8920(3) 1.0104(2)
C24A C -0.0972(3) 1.8779(3) 1.0581(3)
H14A H -0.0156 1.9019 1.0150
C25A C -0.2701(3) 1.9734(3) 0.7846(3)
H15A H -0.3017 2.0518 0.7906
C26A C -0.1897(3) 1.9034(3) 0.8379(2)
C27A C -0.1723(3) 1.7406(3) 0.7657(3)
H16A H -0.1377 1.6632 0.7578
C32A C -0.1398(3) 1.7876(3) 0.8292(3)
H24A H -0.0853 1.7419 0.8656
Ni1_2 Ni 0.33845(3) 0.36300(3) -0.54906(3)
Ni1A_2 Ni -0.33845(3) 1.63700(3) 1.54906(3)
Ni1A_3 Ni 1.66155(3) 0.63700(3) -0.45094(3)
O3_2 O 0.20083(17) 0.28403(17) 0.60339(16)
O3A_2 O -0.20083(17) 1.71597(17) 0.39661(16)
O4_2 O 0.39428(18) 0.30363(19) 0.58559(16)
O4A_2 O -0.39428(18) 1.69637(19) 0.41441(16)
N2A_2 N -0.5091(2) 1.5900(2) 0.66959(19)
O8 O 0.5738(2) 0.2341(2) -0.1062(2)
N3 N 0.5890(3) 0.2254(2) 0.0550(2)
C33 C 0.6102(3) 0.1841(3) -0.0297(3)
H25 H 0.6579 0.1091 -0.0309
C34 C 0.5164(3) 0.3435(3) 0.0620(3)
H26 H 0.5740 0.4013 0.0443
H27 H 0.4546 0.3374 0.1355
H28 H 0.4729 0.3692 0.0110
C35 C 0.6430(4) 0.1621(3) 0.1401(3)
H29 H 0.6902 0.0871 0.1259
H30 H 0.5748 0.1459 0.2109
H31 H 0.6994 0.2116 0.1395
O9 O 0.5152(6) 0.0521(5) 0.5503(6)
loop_
_geom_bond_atom_site_label_1
_geom_bond_atom_site_label_2
_geom_bond_site_symmetry_1
_geom_bond_site_symmetry_2
Ni1 O1 1_555 1_555
O1 C4 1_555 1_555
O2 Ni1 1_555 1_555
O3 C2 1_555 1_555
O4 C2 1_555 1_555
O5 C13 1_555 1_555
O6 C22 1_555 1_555
O7 C29 1_555 1_555
N1 Ni1 1_555 1_555
N2 Ni1 1_555 1_555
C1 C2 1_555 1_555
C3 C11 1_555 1_555
C4 O2 1_555 1_555
C5 C1 1_555 1_555
H1 C5 1_555 1_555
C6 C4 1_555 1_555
C7 N2 1_555 1_555
H2 C7 1_555 1_555
C8 H3 1_555 1_555
C9 H4 1_555 1_555
C10 H5 1_555 1_555
C11 C8 1_555 1_555
C12 C3 1_555 1_555
H6 C12 1_555 1_555
C13 C11 1_555 1_555
C14 C9 1_555 1_555
C15 N2 1_555 1_555
H7 C15 1_555 1_555
C16 C1 1_555 1_555
H8 C16 1_555 1_555
C17 N1 1_555 1_555
H9 C17 1_555 1_555
C18 N1 1_555 1_555
H10 C18 1_555 1_555
C19 C15 1_555 1_555
H11 C19 1_555 1_555
C20 C6 1_555 1_555
H12 C20 1_555 1_555
C21 C7 1_555 1_555
H13 C21 1_555 1_555
C22 C10 1_555 1_555
C23 C14 1_555 1_555
C24 C5 1_555 1_555
H14 C24 1_555 1_555
C25 C20 1_555 1_555
H15 C25 1_555 1_555
C26 O6 1_555 1_555
C27 C6 1_555 1_555
H16 C27 1_555 1_555
C28 C3 1_555 1_555
H17 C28 1_555 1_555
C29 H18 1_555 1_555
H19 C29 1_555 1_555
H20 C29 1_555 1_555
C30 O7 1_555 1_555
C31 O5 1_555 1_555
H21 C31 1_555 1_555
H22 C31 1_555 1_555
H23 C31 1_555 1_555
C32 C26 1_555 1_555
H24 C32 1_555 1_555
O8 C33 1_555 1_555
N3 C33 1_555 1_555
C33 H25 1_555 1_555
C34 N3 1_555 1_555
H26 C34 1_555 1_555
H27 C34 1_555 1_555
H28 C34 1_555 1_555
C35 N3 1_555 1_555
H29 C35 1_555 1_555
H30 C35 1_555 1_555
H31 C35 1_555 1_555
O5A C13A 1_555 1_555
N1A C17A 1_555 1_555
C3A C11A 1_555 1_555
C8A C13 1_555 1_555
H3A C8A 1_555 1_555
C11A C8A 1_555 1_555
C12A C3A 1_555 1_555
H6A C12A 1_555 1_555
C13A C8 1_555 1_555
C17A C12A 1_555 1_555
H9A C17A 1_555 1_555
C18A N1A 1_555 1_555
H10A C18A 1_555 1_555
C28A C3A 1_555 1_555
H17A C28A 1_555 1_555
C31A O5A 1_555 1_555
H21A C31A 1_555 1_555
H22A C31A 1_555 1_555
H23A C31A 1_555 1_555
O7A C29A 1_555 1_555
N2A C7A 1_555 1_555
C7A H2A 1_555 1_555
C9A C30 1_555 1_555
H4A C9A 1_555 1_555
C14A C9A 1_555 1_555
C15A N2A 1_555 1_555
H7A C15A 1_555 1_555
C19A C15A 1_555 1_555
H11A C19A 1_555 1_555
C21A C7A 1_555 1_555
H13A C21A 1_555 1_555
C23A C14A 1_555 1_555
C29A H18A 1_555 1_555
H19A C29A 1_555 1_555
H20A C29A 1_555 1_555
C30A C9 1_555 1_555
Ni1A N1A 1_555 1_555
O1A Ni1A 1_555 1_555
O2A Ni1A 1_555 1_555
O3A C2A 1_555 1_555
O4A C2A 1_555 1_555
O6A C22A 1_555 1_555
C1A C2A 1_555 1_555
C4A O1A 1_555 1_555
C5A C1A 1_555 1_555
H1A C5A 1_555 1_555
C6A C4A 1_555 1_555
C10A H5A 1_555 1_555
C16A C1A 1_555 1_555
H8A C16A 1_555 1_555
C20A C6A 1_555 1_555
H12A C20A 1_555 1_555
C22A C10A 1_555 1_555
C24A C5A 1_555 1_555
H14A C24A 1_555 1_555
C25A C20A 1_555 1_555
H15A C25A 1_555 1_555
C26A O6A 1_555 1_555
C27A C6A 1_555 1_555
H16A C27A 1_555 1_555
C32A C26A 1_555 1_555
H24A C32A 1_555 1_555
Ni1_2 O3 1_555 1_555
Ni1A_2 O3A 1_555 1_555
Ni1A_3 N2A 1_555 1_555
O3_2 Ni1 1_555 1_555
O3A_2 Ni1A 1_555 1_555
O4_2 Ni1 1_555 1_555
O4A_2 Ni1A 1_555 1_555
N2A_2 Ni1A 1_555 1_555
O4 Ni1_2 1_555 1_555
C10 C16 1_555 1_555
C12 C17 1_555 1_555
C14 C30 1_555 1_555
C18 C28 1_555 1_555
C19 C23 1_555 1_555
C21 C23 1_555 1_555
C22 C24 1_555 1_555
C25 C26 1_555 1_555
C27 C32 1_555 1_555
C11A C13A 1_555 1_555
C18A C28A 1_555 1_555
O7A C30A 1_555 1_555
C14A C30A 1_555 1_555
C19A C23A 1_555 1_555
C21A C23A 1_555 1_555
O2A C4A 1_555 1_555
O4A Ni1A_2 1_555 1_555
C10A C16A 1_555 1_555
C22A C24A 1_555 1_555
C25A C26A 1_555 1_555
C27A C32A 1_555 1_555

#END
