
#######################################################################
#
#                 Cambridge Crystallographic Data Centre
#                                CCDC 
#
#######################################################################
#
# If this CIF has been generated from an entry in the Cambridge 
# Structural Database, then it will include bibliographic, chemical, 
# crystal, experimental, refinement or atomic coordinate data resulting 
# from the CCDC's data processing and validation procedures.
#
#######################################################################

data_MOZDOV
_symmetry_cell_setting           monoclinic
_symmetry_space_group_name_H-M   'P 21/c'
_symmetry_Int_Tables_number      14
_space_group_name_Hall           '-P 2ybc'
loop_
_symmetry_equiv_pos_site_id
_symmetry_equiv_pos_as_xyz
1 x,y,z
2 -x,1/2+y,1/2-z
3 -x,-y,-z
4 x,1/2-y,1/2+z
_cell_length_a                   9.221(6)
_cell_length_b                   7.804(5)
_cell_length_c                   24.941(17)
_cell_angle_alpha                90
_cell_angle_beta                 96.848(12)
_cell_angle_gamma                90
_cell_volume                     1781.97
loop_
_atom_site_label
_atom_site_type_symbol
_atom_site_fract_x
_atom_site_fract_y
_atom_site_fract_z
Cu1 Cu 0.77745(8) -0.21720(10) 0.20709(3)
N1 N 0.7518(6) 0.1860(7) -0.0460(2)
N2 N 0.7498(6) 0.4231(7) 0.0022(2)
N3 N 0.7930(6) -0.0568(7) 0.1464(2)
O1 O 0.7674(8) 0.0318(7) -0.0598(2)
O2 O 0.7589(5) 0.5275(6) 0.04163(18)
O3 O 0.6020(5) -0.1167(6) 0.23078(19)
O4 O 0.4700(5) -0.1254(6) 0.2999(2)
O5 O 0.9327(5) -0.3690(6) 0.18834(17)
O6 O 1.0794(5) -0.5735(7) 0.2247(2)
C1 C 0.6850(7) 0.3170(8) -0.0861(3)
C2 C 0.7275(7) 0.4845(8) -0.0553(2)
C3 C 0.5209(7) 0.2823(11) -0.0923(3)
H1 H 0.5008 0.1767 -0.1116
H2 H 0.4704 0.3744 -0.1121
H3 H 0.4882 0.2739 -0.0573
C4 C 0.7418(8) 0.2947(10) -0.1399(3)
H4 H 0.7097 0.1863 -0.1552
H5 H 0.8466 0.2981 -0.1349
H6 H 0.7052 0.3853 -0.1638
C5 C 0.6154(8) 0.6267(9) -0.0612(3)
H7 H 0.6525 0.7243 -0.0405
H8 H 0.5270 0.5879 -0.0484
H9 H 0.5954 0.6583 -0.0986
C6 C 0.8773(8) 0.5553(9) -0.0664(3)
H10 H 0.8975 0.6595 -0.0464
H11 H 0.8758 0.5778 -0.1043
H12 H 0.9519 0.4725 -0.0552
C7 C 0.7685(6) 0.2516(7) 0.0052(2)
C8 C 0.7862(7) 0.1487(8) 0.0546(2)
C9 C 0.7491(7) 0.2139(10) 0.1034(3)
H13 H 0.7236 0.3285 0.1064
C10 C 0.7512(7) 0.1055(9) 0.1467(3)
H14 H 0.7213 0.1487 0.1783
C11 C 0.8348(8) -0.0200(9) 0.0548(3)
H15 H 0.8663 -0.0661 0.0238
C12 C 0.8365(7) -0.1177(8) 0.0999(3)
H16 H 0.8687 -0.2305 0.0989
C13 C 0.5689(6) -0.1776(8) 0.2756(3)
C14 C 0.6637(7) -0.3282(8) 0.2986(2)
H17 H 0.7356 -0.2879 0.3274
H18 H 0.6030 -0.4132 0.3135
N4 N 0.7374(5) -0.4051(7) 0.2559(2)
H19 H 0.6741 -0.4791 0.2371
C15 C 0.8757(7) -0.4954(10) 0.2708(3)
H20 H 0.8565 -0.6151 0.2779
H21 H 0.9262 -0.4457 0.3035
C16 C 0.9712(7) -0.4815(9) 0.2250(3)
Cu1A Cu 1.22255(8) -0.71720(10) 0.29291(3)
O6A O 0.9206(5) -0.0735(7) 0.2753(2)
loop_
_geom_bond_atom_site_label_1
_geom_bond_atom_site_label_2
_geom_bond_site_symmetry_1
_geom_bond_site_symmetry_2
Cu1 N3 1_555 1_555
N1 O1 1_555 1_555
N2 O2 1_555 1_555
N3 C10 1_555 1_555
O3 Cu1 1_555 1_555
O4 C13 1_555 1_555
O5 Cu1 1_555 1_555
O6 C16 1_555 1_555
C1 N1 1_555 1_555
C2 N2 1_555 1_555
C3 C1 1_555 1_555
H1 C3 1_555 1_555
H2 C3 1_555 1_555
H3 C3 1_555 1_555
C4 C1 1_555 1_555
H4 C4 1_555 1_555
H5 C4 1_555 1_555
H6 C4 1_555 1_555
C5 C2 1_555 1_555
H7 C5 1_555 1_555
H8 C5 1_555 1_555
H9 C5 1_555 1_555
C6 C2 1_555 1_555
H10 C6 1_555 1_555
H11 C6 1_555 1_555
H12 C6 1_555 1_555
C7 N1 1_555 1_555
C8 C7 1_555 1_555
C9 C8 1_555 1_555
H13 C9 1_555 1_555
C10 C9 1_555 1_555
H14 C10 1_555 1_555
C11 C8 1_555 1_555
H15 C11 1_555 1_555
C12 N3 1_555 1_555
H16 C12 1_555 1_555
C13 O3 1_555 1_555
C14 C13 1_555 1_555
H17 C14 1_555 1_555
H18 C14 1_555 1_555
N4 Cu1 1_555 1_555
H19 N4 1_555 1_555
C15 N4 1_555 1_555
H20 C15 1_555 1_555
H21 C15 1_555 1_555
C16 O5 1_555 1_555
Cu1A O6 1_555 1_555
O6A Cu1 1_555 1_555
N2 C7 1_555 1_555
C1 C2 1_555 1_555
C11 C12 1_555 1_555
C14 N4 1_555 1_555
C15 C16 1_555 1_555

#END
