
#######################################################################
#
#                 Cambridge Crystallographic Data Centre
#                                CCDC 
#
#######################################################################
#
# If this CIF has been generated from an entry in the Cambridge 
# Structural Database, then it will include bibliographic, chemical, 
# crystal, experimental, refinement or atomic coordinate data resulting 
# from the CCDC's data processing and validation procedures.
#
#######################################################################

data_MOZDEM
_symmetry_cell_setting           triclinic
_symmetry_space_group_name_H-M   'P -1'
_symmetry_Int_Tables_number      2
_space_group_name_Hall           '-P 1'
loop_
_symmetry_equiv_pos_site_id
_symmetry_equiv_pos_as_xyz
1 x,y,z
2 -x,-y,-z
_cell_length_a                   9.317(3)
_cell_length_b                   12.722(4)
_cell_length_c                   15.451(4)
_cell_angle_alpha                108.632(4)
_cell_angle_beta                 97.755(4)
_cell_angle_gamma                91.789(4)
_cell_volume                     1714.17
loop_
_atom_site_label
_atom_site_type_symbol
_atom_site_fract_x
_atom_site_fract_y
_atom_site_fract_z
Cd1 Cd 1.14157(5) 0.52590(3) 0.39962(3)
O1 O 1.4626(7) 0.6682(8) -0.0317(4)
O2 O 1.3062(6) 0.6157(5) 0.3372(4)
O3 O 1.1526(6) 0.4832(5) 0.2380(4)
O4 O 1.2461(5) 0.5944(4) -0.4535(4)
O5 O 1.0325(5) 0.6000(4) -0.4029(4)
O6 O 0.3241(5) 0.9943(4) 0.3888(4)
O7 O 0.8945(7) 1.0021(6) 0.3278(7)
N1 N 0.2821(6) 1.3726(4) 0.3882(4)
N2 N 0.9705(6) 0.6533(5) 0.3830(5)
C1 C 0.7886(7) 0.8196(5) 0.3684(6)
C2 C 0.8406(12) 0.7495(8) 0.2915(7)
H1 H 0.8151 0.7578 0.2338
C3 C 0.8297(13) 0.8013(9) 0.4462(7)
H2 H 0.7993 0.8460 0.5000
C4 C 0.9295(11) 0.6683(7) 0.3007(7)
H3 H 0.9625 0.6221 0.2486
C5 C 1.1673(7) 0.6034(5) -0.3906(5)
C6 C 0.5540(7) 0.9064(5) 0.3773(5)
H4 H 0.5159 0.8448 0.3891
C7 C 1.2516(8) 0.5591(6) 0.2562(5)
C8 C 0.4679(7) 0.9933(5) 0.3770(5)
C9 C 0.6959(7) 0.9102(5) 0.3602(6)
C10 C 0.4637(8) 1.2767(6) 0.4503(6)
H5 H 0.5342 1.2776 0.4993
C11 C 1.4210(10) 0.6637(9) 0.1939(6)
H6 H 1.4655 0.7003 0.2543
C12 C 0.5260(8) 1.0873(6) 0.3626(6)
C13 C 0.4398(7) 1.1862(5) 0.3707(6)
C14 C 1.3938(8) 0.6107(7) -0.2780(6)
H7 H 1.4466 0.5931 -0.3270
C15 C 1.2432(11) 0.5290(8) 0.0879(6)
H8 H 1.1678 0.4743 0.0754
C16 C 1.2454(7) 0.6231(6) -0.2950(5)
C17 C 1.3072(8) 0.5851(7) 0.1773(5)
C18 C 0.2588(8) 1.2842(6) 0.3108(6)
H9 H 0.1898 1.2863 0.2620
C19 C 0.3804(8) 1.3665(6) 0.4561(6)
H10 H 0.3948 1.4260 0.5111
C20 C 0.3334(8) 1.1907(6) 0.3009(6)
H11 H 0.3120 1.1301 0.2470
C21 C 1.4697(11) 0.6887(10) 0.1228(6)
H12 H 1.5479 0.7413 0.1351
C22 C 1.4642(9) 0.6241(8) -0.1901(6)
H13 H 1.5631 0.6151 -0.1801
C23 C 1.2946(12) 0.5565(10) 0.0157(7)
H14 H 1.2528 0.5189 -0.0451
C24 C 1.2379(10) 0.6691(10) -0.1334(6)
H15 H 1.1859 0.6910 -0.0841
C25 C 1.1724(8) 0.6547(7) -0.2201(5)
H16 H 1.0744 0.6665 -0.2297
C26 C 0.6667(8) 1.0913(6) 0.3456(8)
H17 H 0.7060 1.1544 0.3365
C27 C 0.9494(12) 1.0834(10) 0.2969(12)
H18 H 0.8772 1.0967 0.2519
H19 H 1.0341 1.0591 0.2692
H20 H 0.9752 1.1508 0.3480
C28 C 1.4041(9) 0.6368(9) 0.0329(6)
C29 C 0.7514(8) 1.0020(6) 0.3418(7)
C30 C 1.3866(9) 0.6506(9) -0.1183(6)
C31 C 0.2563(9) 0.8985(8) 0.3942(8)
H21 H 0.2580 0.8384 0.3379
H22 H 0.1574 0.9108 0.4032
H23 H 0.3066 0.8802 0.4453
C32 C 0.9166(14) 0.7175(10) 0.4502(8)
H24 H 0.9382 0.7065 0.5071
Cd1_2 Cd 0.14157(5) 1.52590(3) 0.39962(3)
Cd1_3 Cd 1.14157(5) 0.52590(3) -0.60038(3)
Cd1A Cd 0.85843(5) 0.47410(3) -0.39962(3)
O4_2 O 1.2461(5) 0.5944(4) 0.5465(4)
O5A O 0.9675(5) 0.4000(4) 0.4029(4)
N1_2 N 1.2821(6) 0.3726(4) 0.3882(4)
loop_
_geom_bond_atom_site_label_1
_geom_bond_atom_site_label_2
_geom_bond_site_symmetry_1
_geom_bond_site_symmetry_2
Cd1 O2 1_555 1_555
O1 C28 1_555 1_555
O2 C7 1_555 1_555
O3 Cd1 1_555 1_555
O4 C5 1_555 1_555
O5 C5 1_555 1_555
O6 C8 1_555 1_555
O7 C27 1_555 1_555
N1 C18 1_555 1_555
N2 Cd1 1_555 1_555
C1 C2 1_555 1_555
C2 H1 1_555 1_555
C3 C1 1_555 1_555
H2 C3 1_555 1_555
C4 N2 1_555 1_555
H3 C4 1_555 1_555
C5 C16 1_555 1_555
C6 H4 1_555 1_555
C7 O3 1_555 1_555
C8 C6 1_555 1_555
C9 C1 1_555 1_555
C10 H5 1_555 1_555
C11 H6 1_555 1_555
C12 C8 1_555 1_555
C13 C10 1_555 1_555
C14 H7 1_555 1_555
C15 H8 1_555 1_555
C16 C14 1_555 1_555
C17 C7 1_555 1_555
C18 H9 1_555 1_555
C19 N1 1_555 1_555
H10 C19 1_555 1_555
C20 C13 1_555 1_555
H11 C20 1_555 1_555
C21 C11 1_555 1_555
H12 C21 1_555 1_555
C22 C14 1_555 1_555
H13 C22 1_555 1_555
C23 C15 1_555 1_555
H14 C23 1_555 1_555
C24 H15 1_555 1_555
C25 C16 1_555 1_555
H16 C25 1_555 1_555
C26 C12 1_555 1_555
H17 C26 1_555 1_555
C27 H18 1_555 1_555
H19 C27 1_555 1_555
H20 C27 1_555 1_555
C28 C21 1_555 1_555
C29 O7 1_555 1_555
C30 O1 1_555 1_555
C31 O6 1_555 1_555
H21 C31 1_555 1_555
H22 C31 1_555 1_555
H23 C31 1_555 1_555
C32 N2 1_555 1_555
H24 C32 1_555 1_555
Cd1_2 N1 1_555 1_555
Cd1_3 O4 1_555 1_555
Cd1A O5 1_555 1_555
O4_2 Cd1 1_555 1_555
O5A Cd1 1_555 1_555
N1_2 Cd1 1_555 1_555
C2 C4 1_555 1_555
C3 C32 1_555 1_555
C6 C9 1_555 1_555
C9 C29 1_555 1_555
C10 C19 1_555 1_555
C11 C17 1_555 1_555
C12 C13 1_555 1_555
C15 C17 1_555 1_555
C18 C20 1_555 1_555
C22 C30 1_555 1_555
C23 C28 1_555 1_555
C24 C25 1_555 1_555
C24 C30 1_555 1_555
C26 C29 1_555 1_555

#END
