
#######################################################################
#
#                 Cambridge Crystallographic Data Centre
#                                CCDC 
#
#######################################################################
#
# If this CIF has been generated from an entry in the Cambridge 
# Structural Database, then it will include bibliographic, chemical, 
# crystal, experimental, refinement or atomic coordinate data resulting 
# from the CCDC's data processing and validation procedures.
#
#######################################################################

data_MOZDOV01
_symmetry_cell_setting           monoclinic
_symmetry_space_group_name_H-M   'P 21/c'
_symmetry_Int_Tables_number      14
_space_group_name_Hall           '-P 2ybc'
loop_
_symmetry_equiv_pos_site_id
_symmetry_equiv_pos_as_xyz
1 x,y,z
2 -x,1/2+y,1/2-z
3 -x,-y,-z
4 x,1/2-y,1/2+z
_cell_length_a                   9.2109(10)
_cell_length_b                   7.8009(9)
_cell_length_c                   24.863(3)
_cell_angle_alpha                90
_cell_angle_beta                 96.826(2)
_cell_angle_gamma                90
_cell_volume                     1773.83
loop_
_atom_site_label
_atom_site_type_symbol
_atom_site_fract_x
_atom_site_fract_y
_atom_site_fract_z
Cu1 Cu 0.22239(3) 1.21719(3) 0.292812(10)
O1 O 0.2326(3) 0.9676(2) 0.55953(8)
O2 O 0.24098(19) 0.4715(2) 0.45850(6)
O3 O 0.06825(17) 1.3698(2) 0.31196(6)
O4 O -0.07911(19) 1.5738(2) 0.27547(7)
O5 O 0.39858(17) 1.1153(2) 0.26919(6)
O6 O 0.52953(18) 1.1261(2) 0.19972(7)
N1 N 0.2481(2) 0.8119(3) 0.54588(8)
N2 N 0.25129(19) 0.5768(2) 0.49776(7)
N3 N 0.20652(19) 1.0577(2) 0.35386(7)
N4 N 0.26180(19) 1.4037(2) 0.24385(7)
H1 H 0.3228 1.4693 0.2629
C1 C 0.3152(2) 0.6815(3) 0.58595(9)
C2 C 0.2714(2) 0.5138(3) 0.55535(8)
C3 C 0.2322(2) 0.7473(3) 0.49477(9)
C4 C 0.4794(3) 0.7179(4) 0.59251(11)
H2 H 0.5168 0.6998 0.5585
H3 H 0.5279 0.6421 0.6193
H4 H 0.4965 0.8345 0.6038
C5 C 0.2563(3) 0.7040(4) 0.63972(10)
H5 H 0.2882 0.8122 0.6552
H6 H 0.2920 0.6131 0.6638
H7 H 0.1514 0.7008 0.6343
C6 C 0.1229(3) 0.4433(4) 0.56665(10)
H8 H 0.0500 0.5311 0.5599
H9 H 0.1286 0.4076 0.6038
H10 H 0.0970 0.3471 0.5434
C7 C 0.3864(3) 0.3741(3) 0.56104(10)
H11 H 0.3501 0.2752 0.5408
H12 H 0.4085 0.3439 0.5985
H13 H 0.4734 0.4148 0.5474
C8 C 0.2121(2) 0.8497(3) 0.44536(8)
C9 C 0.2515(3) 0.7865(3) 0.39652(9)
H14 H 0.2790 0.6725 0.3937
C10 C 0.2491(3) 0.8938(3) 0.35291(9)
H15 H 0.2786 0.8508 0.3210
C11 C 0.1630(3) 1.1167(3) 0.39987(9)
H16 H 0.1298 1.2291 0.4007
C12 C 0.0291(2) 1.4803(3) 0.27570(9)
C13 C 0.1231(2) 1.4937(3) 0.22925(10)
H17 H 0.0717 1.4435 0.1967
H18 H 0.1419 1.6133 0.2219
C14 C 0.3360(2) 1.3269(3) 0.20085(9)
H19 H 0.3969 1.4118 0.1859
H20 H 0.2645 1.2857 0.1720
C15 C 0.4302(2) 1.1781(3) 0.22484(9)
C16 C 0.1651(3) 1.0190(3) 0.44580(9)
H21 H 0.1351 1.0657 0.4771
Cu1A Cu -0.22239(3) 1.71719(3) 0.207188(10)
O4A O 0.07911(19) 1.0738(2) 0.22453(7)
loop_
_geom_bond_atom_site_label_1
_geom_bond_atom_site_label_2
_geom_bond_site_symmetry_1
_geom_bond_site_symmetry_2
Cu1 O3 1_555 1_555
O1 N1 1_555 1_555
O2 N2 1_555 1_555
O3 C12 1_555 1_555
O4 C12 1_555 1_555
O5 Cu1 1_555 1_555
O6 C15 1_555 1_555
N1 C1 1_555 1_555
N2 C2 1_555 1_555
N3 Cu1 1_555 1_555
N4 Cu1 1_555 1_555
H1 N4 1_555 1_555
C1 C2 1_555 1_555
C2 C6 1_555 1_555
C3 N1 1_555 1_555
C4 C1 1_555 1_555
H2 C4 1_555 1_555
H3 C4 1_555 1_555
H4 C4 1_555 1_555
C5 C1 1_555 1_555
H5 C5 1_555 1_555
H6 C5 1_555 1_555
H7 C5 1_555 1_555
C6 H8 1_555 1_555
H9 C6 1_555 1_555
H10 C6 1_555 1_555
C7 C2 1_555 1_555
H11 C7 1_555 1_555
H12 C7 1_555 1_555
H13 C7 1_555 1_555
C8 C3 1_555 1_555
C9 C8 1_555 1_555
H14 C9 1_555 1_555
C10 N3 1_555 1_555
H15 C10 1_555 1_555
C11 N3 1_555 1_555
H16 C11 1_555 1_555
C12 C13 1_555 1_555
C13 N4 1_555 1_555
H17 C13 1_555 1_555
H18 C13 1_555 1_555
C14 N4 1_555 1_555
H19 C14 1_555 1_555
H20 C14 1_555 1_555
C15 O5 1_555 1_555
C16 C8 1_555 1_555
H21 C16 1_555 1_555
Cu1A O4 1_555 1_555
O4A Cu1 1_555 1_555
N2 C3 1_555 1_555
C9 C10 1_555 1_555
C11 C16 1_555 1_555
C14 C15 1_555 1_555

#END
