
#######################################################################
#
#                 Cambridge Crystallographic Data Centre
#                                CCDC 
#
#######################################################################
#
# If this CIF has been generated from an entry in the Cambridge 
# Structural Database, then it will include bibliographic, chemical, 
# crystal, experimental, refinement or atomic coordinate data resulting 
# from the CCDC's data processing and validation procedures.
#
#######################################################################

data_MOZFUD
_symmetry_cell_setting           monoclinic
_symmetry_space_group_name_H-M   'P 21/c'
_symmetry_Int_Tables_number      14
_space_group_name_Hall           '-P 2ybc'
loop_
_symmetry_equiv_pos_site_id
_symmetry_equiv_pos_as_xyz
1 x,y,z
2 -x,1/2+y,1/2-z
3 -x,-y,-z
4 x,1/2-y,1/2+z
_cell_length_a                   12.077(3)
_cell_length_b                   13.803(3)
_cell_length_c                   10.245(3)
_cell_angle_alpha                90
_cell_angle_beta                 93.609(4)
_cell_angle_gamma                90
_cell_volume                     1704.44
loop_
_atom_site_label
_atom_site_type_symbol
_atom_site_fract_x
_atom_site_fract_y
_atom_site_fract_z
Co1 Co 0.32297(7) -0.06692(6) 0.50990(8)
O1 O 0.4144(4) -0.4191(3) 0.8488(4)
O2 O 0.5605(4) -0.5194(4) 0.8523(4)
O3 O 0.2816(5) 0.0807(4) 0.4566(6)
N1 N 0.3711(4) -0.2132(4) 0.5573(5)
N2 N 0.3354(6) -0.2877(4) 0.4812(6)
N3 N 0.3896(6) -0.3656(4) 0.5157(6)
N4 N 0.4598(4) -0.3411(4) 0.6156(5)
N5 N 0.1952(5) -0.0711(4) 0.6450(6)
N6 N 0.1777(4) -0.1096(4) 0.3926(6)
C1 C 0.4481(5) -0.2470(5) 0.6404(6)
H1 H 0.4876 -0.2118 0.7051
C2 C 0.5363(6) -0.4127(5) 0.6774(7)
H2 H 0.6085 -0.3827 0.6937
H3 H 0.5448 -0.4658 0.6168
C3 C 0.4990(5) -0.4534(4) 0.8053(6)
C4 C 0.2088(6) -0.0529(5) 0.7733(7)
H4 H 0.2797 -0.0376 0.8078
C5 C 0.1256(7) -0.0553(6) 0.8563(8)
H5 H 0.1397 -0.0399 0.9442
C6 C 0.0205(7) -0.0805(6) 0.8094(9)
H6 H -0.0376 -0.0849 0.8646
C7 C 0.0045(6) -0.0993(6) 0.6767(8)
H7 H -0.0661 -0.1148 0.6413
C8 C 0.0912(5) -0.0954(5) 0.5971(7)
C9 C 0.0834(5) -0.1169(5) 0.4541(7)
C10 C -0.0154(6) -0.1478(6) 0.3911(9)
H8 H -0.0792 -0.1551 0.4364
C11 C -0.0156(7) -0.1674(6) 0.2581(8)
H9 H -0.0808 -0.1868 0.2124
C12 C 0.0800(7) -0.1584(6) 0.1942(8)
H10 H 0.0805 -0.1716 0.1052
C13 C 0.1755(6) -0.1296(6) 0.2637(7)
H11 H 0.2406 -0.1237 0.2204
H12 H 0.292(7) 0.093(5) 0.377(2)
H13 H 0.304(8) 0.123(5) 0.512(5)
Co1C Co 0.32297(7) -0.43308(6) 1.00990(8)
Co1A Co 0.67703(7) -0.56692(6) 0.99010(8)
O1C O 0.4144(4) -0.0809(3) 0.3488(4)
O2A O 0.4395(4) -0.0194(4) 0.6477(4)
Cl1 Cl 0.29350(15) -0.82374(13) 0.11010(17)
O4 O 0.3518(11) -0.9118(7) 0.1359(14)
O5 O 0.2119(10) -0.8312(9) 0.0046(10)
O6 O 0.2430(10) -0.7956(10) 0.2259(9)
O7 O 0.3728(7) -0.7501(6) 0.0805(10)
O8? O 0.4063(11) -0.8617(18) 0.121(2)
O9? O 0.259(2) -0.8288(19) -0.0253(11)
O10? O 0.2287(19) -0.8823(18) 0.192(2)
O11? O 0.297(2) -0.7264(9) 0.159(3)
loop_
_geom_bond_atom_site_label_1
_geom_bond_atom_site_label_2
_geom_bond_site_symmetry_1
_geom_bond_site_symmetry_2
Co1 O3 1_555 1_555
O1 C3 1_555 1_555
O2 C3 1_555 1_555
O3 H12 1_555 1_555
N1 Co1 1_555 1_555
N2 N1 1_555 1_555
N3 N2 1_555 1_555
N4 N3 1_555 1_555
N5 Co1 1_555 1_555
N6 Co1 1_555 1_555
C1 N1 1_555 1_555
H1 C1 1_555 1_555
C2 N4 1_555 1_555
H2 C2 1_555 1_555
H3 C2 1_555 1_555
C3 C2 1_555 1_555
C4 N5 1_555 1_555
H4 C4 1_555 1_555
C5 C4 1_555 1_555
H5 C5 1_555 1_555
C6 C5 1_555 1_555
H6 C6 1_555 1_555
C7 C6 1_555 1_555
H7 C7 1_555 1_555
C8 N5 1_555 1_555
C9 N6 1_555 1_555
C10 C9 1_555 1_555
H8 C10 1_555 1_555
C11 C10 1_555 1_555
H9 C11 1_555 1_555
C12 C11 1_555 1_555
H10 C12 1_555 1_555
C13 N6 1_555 1_555
H11 C13 1_555 1_555
Cl1 O4 1_555 1_555
O5 Cl1 1_555 1_555
O6 Cl1 1_555 1_555
O7 Cl1 1_555 1_555
H13 O3 1_555 1_555
Co1C O1 1_555 1_555
Co1A O2 1_555 1_555
O1C Co1 1_555 1_555
O2A Co1 1_555 1_555
N4 C1 1_555 1_555
C7 C8 1_555 1_555
C8 C9 1_555 1_555
C12 C13 1_555 1_555

#END
