
#######################################################################
#
#                 Cambridge Crystallographic Data Centre
#                                CCDC 
#
#######################################################################
#
# If this CIF has been generated from an entry in the Cambridge 
# Structural Database, then it will include bibliographic, chemical, 
# crystal, experimental, refinement or atomic coordinate data resulting 
# from the CCDC's data processing and validation procedures.
#
#######################################################################

data_MOZGAK
_symmetry_cell_setting           monoclinic
_symmetry_space_group_name_H-M   'P 21/c'
_symmetry_Int_Tables_number      14
_space_group_name_Hall           '-P 2ybc'
loop_
_symmetry_equiv_pos_site_id
_symmetry_equiv_pos_as_xyz
1 x,y,z
2 -x,1/2+y,1/2-z
3 -x,-y,-z
4 x,1/2-y,1/2+z
_cell_length_a                   11.9478(15)
_cell_length_b                   13.8416(17)
_cell_length_c                   11.2453(14)
_cell_angle_alpha                90
_cell_angle_beta                 99.140(2)
_cell_angle_gamma                90
_cell_volume                     1836.1
loop_
_atom_site_label
_atom_site_type_symbol
_atom_site_fract_x
_atom_site_fract_y
_atom_site_fract_z
Cd1 Cd 0.167290(18) 0.073122(15) 0.523096(18)
C1 C 0.0317(3) 0.2647(2) 0.3791(3)
H1 H -0.0112 0.2288 0.3184
C2 C -0.0471(3) 0.4302(3) 0.3239(3)
H2 H -0.0483 0.4882 0.3722
H3 H -0.1238 0.4052 0.3076
C3 C -0.0096(3) 0.4569(2) 0.2052(3)
C4 C 0.3063(4) 0.1167(3) 0.3014(4)
H4 H 0.2346 0.1084 0.2566
C5 C 0.3944(4) 0.1417(3) 0.2427(4)
H5 H 0.3825 0.1512 0.1598
C6 C 0.4990(4) 0.1521(3) 0.3083(5)
H6 H 0.5604 0.1672 0.2703
C7 C 0.5143(4) 0.1403(3) 0.4312(4)
H7 H 0.5858 0.1479 0.4766
C8 C 0.4225(3) 0.1172(2) 0.4868(3)
C9 C 0.4306(3) 0.1068(2) 0.6189(3)
C10 C 0.5342(4) 0.1109(3) 0.6961(5)
H8 H 0.6014 0.1198 0.6657
C11 C 0.5349(5) 0.1015(4) 0.8189(5)
H9 H 0.6032 0.1040 0.8716
C12 C 0.4376(5) 0.0886(4) 0.8620(4)
H10 H 0.4375 0.0823 0.9443
C13 C 0.3375(4) 0.0850(3) 0.7815(4)
H11 H 0.2699 0.0758 0.8112
N1 N 0.1078(2) 0.22963(19) 0.4644(2)
N2 N 0.1508(3) 0.3060(3) 0.5309(3)
N3 N 0.1005(3) 0.3840(2) 0.4889(3)
N4 N 0.0254(2) 0.35901(19) 0.3928(2)
N5 N 0.3198(2) 0.1038(2) 0.4211(3)
N6 N 0.3341(3) 0.0941(2) 0.6631(3)
O1 O 0.0705(2) 0.41163(18) 0.1757(2)
O2 O -0.0657(2) 0.5232(2) 0.1501(2)
O7 O 0.1964(4) -0.0904(2) 0.5705(4)
H12 H 0.194(4) -0.127(4) 0.520(5)
H13 H 0.170(7) -0.102(6) 0.632(8)
Cd1A Cd -0.167290(18) 0.573122(15) -0.023096(18)
Cd1C Cd 0.167290(18) 0.426878(15) 0.023096(18)
O1C O 0.0705(2) 0.08837(18) 0.6757(2)
O2A O 0.0657(2) 0.0232(2) 0.3499(2)
Cl1 Cl 0.78484(8) 0.31526(7) 0.60609(8)
O3 O 0.7963(6) 0.3200(6) 0.4868(4)
O4 O 0.6703(5) 0.3398(5) 0.6033(6)
O5 O 0.7996(7) 0.2185(4) 0.6404(6)
O6 O 0.8540(5) 0.3741(4) 0.6827(5)
loop_
_geom_bond_atom_site_label_1
_geom_bond_atom_site_label_2
_geom_bond_site_symmetry_1
_geom_bond_site_symmetry_2
Cd1 N1 1_555 1_555
Cl1 O3 1_555 1_555
C1 H1 1_555 1_555
C2 H2 1_555 1_555
H3 C2 1_555 1_555
C3 C2 1_555 1_555
C4 H4 1_555 1_555
C5 C4 1_555 1_555
H5 C5 1_555 1_555
C6 C5 1_555 1_555
H6 C6 1_555 1_555
C7 C6 1_555 1_555
H7 C7 1_555 1_555
C8 C7 1_555 1_555
C9 C8 1_555 1_555
C10 C9 1_555 1_555
H8 C10 1_555 1_555
C11 C10 1_555 1_555
H9 C11 1_555 1_555
C12 C11 1_555 1_555
H10 C12 1_555 1_555
C13 C12 1_555 1_555
H11 C13 1_555 1_555
N1 C1 1_555 1_555
N2 N1 1_555 1_555
N3 N2 1_555 1_555
N4 C1 1_555 1_555
N5 Cd1 1_555 1_555
N6 Cd1 1_555 1_555
O1 C3 1_555 1_555
O2 C3 1_555 1_555
O4 Cl1 1_555 1_555
O5 Cl1 1_555 1_555
O6 Cl1 1_555 1_555
O7 Cd1 1_555 1_555
H12 O7 1_555 1_555
H13 O7 1_555 1_555
Cd1A O2 1_555 1_555
Cd1C O1 1_555 1_555
O1C Cd1 1_555 1_555
O2A Cd1 1_555 1_555
C2 N4 1_555 1_555
C4 N5 1_555 1_555
C8 N5 1_555 1_555
C9 N6 1_555 1_555
C13 N6 1_555 1_555
N3 N4 1_555 1_555

#END
