
#######################################################################
#
#                 Cambridge Crystallographic Data Centre
#                                CCDC 
#
#######################################################################
#
# If this CIF has been generated from an entry in the Cambridge 
# Structural Database, then it will include bibliographic, chemical, 
# crystal, experimental, refinement or atomic coordinate data resulting 
# from the CCDC's data processing and validation procedures.
#
#######################################################################

data_MOZJOB
_symmetry_cell_setting           monoclinic
_symmetry_space_group_name_H-M   'P 21/c'
_symmetry_Int_Tables_number      14
_space_group_name_Hall           '-P 2ybc'
loop_
_symmetry_equiv_pos_site_id
_symmetry_equiv_pos_as_xyz
1 x,y,z
2 -x,1/2+y,1/2-z
3 -x,-y,-z
4 x,1/2-y,1/2+z
_cell_length_a                   11.6694(15)
_cell_length_b                   10.5785(11)
_cell_length_c                   11.9934(16)
_cell_angle_alpha                90
_cell_angle_beta                 108.192(10)
_cell_angle_gamma                90
_cell_volume                     1406.52
loop_
_atom_site_label
_atom_site_type_symbol
_atom_site_fract_x
_atom_site_fract_y
_atom_site_fract_z
Sn1 Sn 0.029376(17) 0.141252(15) 0.806675(14)
O1 O -0.06409(19) -0.05365(18) 0.73906(17)
O2 O -0.14825(18) -0.20280(18) 0.60935(16)
O3 O -0.3721(2) 0.2362(2) 0.5404(2)
O4 O -0.5362(3) 0.3534(2) 0.4361(3)
C1 C -0.1416(3) -0.0896(3) 0.6459(2)
C2 C -0.2318(3) 0.0011(2) 0.5761(2)
H1 H -0.2268 0.0867 0.6010
C3 C -0.3191(3) -0.0316(3) 0.4804(2)
H2 H -0.3178 -0.1160 0.4536
C4 C -0.4171(3) 0.0486(3) 0.4120(2)
C5 C -0.5033(3) 0.0029(3) 0.3091(2)
H3 H -0.4942 -0.0800 0.2827
C6 C -0.6004(3) 0.0750(4) 0.2455(3)
H4 H -0.6557 0.0407 0.1763
C7 C -0.6191(3) 0.1964(4) 0.2803(3)
H5 H -0.6854 0.2465 0.2364
C8 C -0.5371(3) 0.2397(3) 0.3808(3)
C9 C -0.4386(3) 0.1691(3) 0.4447(3)
C10 C -0.4365(4) 0.3493(3) 0.5390(5)
H6 H -0.4646 0.3530 0.6088
H7 H -0.3834 0.4228 0.5414
C11 C 0.0663(3) 0.1519(3) 0.6451(3)
H8 H -0.0097 0.1502 0.5802
H9 H 0.1162 0.0796 0.6381
H10 H 0.1095 0.2306 0.6420
C12 C -0.1298(3) 0.2255(3) 0.8219(3)
H11 H -0.1586 0.1769 0.8774
H12 H -0.1921 0.2261 0.7449
H13 H -0.1125 0.3125 0.8503
C13 C 0.1394(3) 0.0311(3) 0.9462(3)
H14 H 0.1986 0.0857 1.0010
H15 H 0.1815 -0.0332 0.9149
H16 H 0.0890 -0.0103 0.9873
Sn1A Sn -0.029376(17) -0.358748(15) 0.693325(14)
O2A O 0.14825(18) 0.29720(18) 0.89065(16)
loop_
_geom_bond_atom_site_label_1
_geom_bond_atom_site_label_2
_geom_bond_site_symmetry_1
_geom_bond_site_symmetry_2
Sn1 O1 1_555 1_555
O1 C1 1_555 1_555
O2 C1 1_555 1_555
O3 C9 1_555 1_555
O4 C8 1_555 1_555
C1 C2 1_555 1_555
C2 H1 1_555 1_555
C3 C2 1_555 1_555
H2 C3 1_555 1_555
C4 C3 1_555 1_555
C5 C4 1_555 1_555
H3 C5 1_555 1_555
C6 C5 1_555 1_555
H4 C6 1_555 1_555
C7 C6 1_555 1_555
H5 C7 1_555 1_555
C8 C7 1_555 1_555
C9 C4 1_555 1_555
C10 O3 1_555 1_555
H6 C10 1_555 1_555
H7 C10 1_555 1_555
C11 Sn1 1_555 1_555
H8 C11 1_555 1_555
H9 C11 1_555 1_555
H10 C11 1_555 1_555
C12 Sn1 1_555 1_555
H11 C12 1_555 1_555
H12 C12 1_555 1_555
H13 C12 1_555 1_555
C13 Sn1 1_555 1_555
H14 C13 1_555 1_555
H15 C13 1_555 1_555
H16 C13 1_555 1_555
Sn1A O2 1_555 1_555
O2A Sn1 1_555 1_555
O4 C10 1_555 1_555
C8 C9 1_555 1_555

#END
