
#######################################################################
#
#                 Cambridge Crystallographic Data Centre
#                                CCDC 
#
#######################################################################
#
# If this CIF has been generated from an entry in the Cambridge 
# Structural Database, then it will include bibliographic, chemical, 
# crystal, experimental, refinement or atomic coordinate data resulting 
# from the CCDC's data processing and validation procedures.
#
#######################################################################

data_MOZTUR
_symmetry_cell_setting           monoclinic
_symmetry_space_group_name_H-M   'P 21/c'
_symmetry_Int_Tables_number      14
_space_group_name_Hall           '-P 2ybc'
loop_
_symmetry_equiv_pos_site_id
_symmetry_equiv_pos_as_xyz
1 x,y,z
2 -x,1/2+y,1/2-z
3 -x,-y,-z
4 x,1/2-y,1/2+z
_cell_length_a                   11.6620(12)
_cell_length_b                   11.2726(13)
_cell_length_c                   11.6238(13)
_cell_angle_alpha                90
_cell_angle_beta                 96.520(9)
_cell_angle_gamma                90
_cell_volume                     1518.19
loop_
_atom_site_label
_atom_site_type_symbol
_atom_site_fract_x
_atom_site_fract_y
_atom_site_fract_z
Mn1 Mn 1.0000 0.5000 -0.5000
C1 C 1.24961(19) 0.5744(2) -0.5720(2)
H1 H 1.2060 0.6305 -0.6164
C2 C 1.36718(19) 0.5795(2) -0.5695(2)
H2 H 1.4008 0.6376 -0.6116
C3 C 1.43615(18) 0.4985(2) -0.50437(18)
C4 C 1.3781(2) 0.4144(3) -0.4478(3)
H3 H 1.4193 0.3561 -0.4042
C5 C 1.2599(2) 0.4158(3) -0.4553(3)
H4 H 1.2239 0.3575 -0.4156
N1 N 1.19366(15) 0.49461(16) -0.51532(16)
O2 O 1.02880(17) 0.43379(17) -0.32434(13)
H11 H 1.049(3) 0.3672(17) -0.298(3)
H12 H 1.004(3) 0.472(2) -0.272(2)
O4 O 0.98772(18) 0.31913(16) -0.56349(17)
H13 H 0.955(3) 0.260(2) -0.542(3)
H14 H 1.022(3) 0.300(3) -0.620(2)
Mn1_2 Mn 2.0000 0.5000 -0.5000
C1B C 1.75039(19) 0.4256(2) -0.4280(2)
H1B H 1.7940 0.3695 -0.3836
C2B C 1.63282(19) 0.4205(2) -0.4305(2)
H2B H 1.5992 0.3624 -0.3884
C3B C 1.56385(18) 0.5015(2) -0.49563(18)
C4B C 1.6219(2) 0.5856(3) -0.5522(3)
H3B H 1.5807 0.6439 -0.5958
C5B C 1.7401(2) 0.5842(3) -0.5447(3)
H4B H 1.7761 0.6425 -0.5844
N1B N 1.80634(15) 0.50539(16) -0.48468(16)
N1B_2 N 0.80634(15) 0.50539(16) -0.48468(16)
O2B O 0.97120(17) 0.56621(17) -0.67566(13)
H11B H 0.951(3) 0.6328(17) -0.702(3)
H12B H 0.996(3) 0.528(2) -0.728(2)
O4B O 1.01228(18) 0.68087(16) -0.43651(17)
H13B H 1.045(3) 0.740(2) -0.458(3)
H14B H 0.978(3) 0.700(3) -0.380(2)
C6 C 0.3636(2) 0.6015(2) -0.1614(2)
C7 C 0.2912(2) 0.6654(3) -0.2419(2)
H5 H 0.2115 0.6598 -0.2423
C8 C 0.3368(2) 0.7364(3) -0.3205(2)
H6 H 0.2881 0.7802 -0.3734
C9 C 0.4546(2) 0.7436(2) -0.3218(2)
H7 H 0.4849 0.7928 -0.3751
C10 C 0.5288(2) 0.6779(2) -0.2439(2)
C11 C 0.4815(2) 0.6072(2) -0.1637(2)
H8 H 0.5299 0.5630 -0.1108
C12 C 0.6538(2) 0.6860(2) -0.2478(2)
H9 H 0.6795 0.7441 -0.2956
C13 C 0.7334(2) 0.6189(2) -0.1900(2)
H10 H 0.7098 0.5621 -0.1397
C14 C 0.8572(2) 0.6292(2) -0.20085(19)
O1 O 0.89468(15) 0.71680(16) -0.25223(15)
O3 O 0.92237(14) 0.54517(16) -0.15829(14)
O5 O 0.32335(17) 0.5320(2) -0.0786(2)
H15 H 0.2485(18) 0.551(3) -0.074(3)
O6 O 0.11487(15) 0.61016(17) -0.01468(16)
H16 H 0.110(2) 0.566(2) 0.0420(18)
H17 H 0.058(2) 0.593(3) -0.0630(19)
loop_
_geom_bond_atom_site_label_1
_geom_bond_atom_site_label_2
_geom_bond_site_symmetry_1
_geom_bond_site_symmetry_2
Mn1 N1 1_555 1_555
C1 H1 1_555 1_555
C2 C1 1_555 1_555
H2 C2 1_555 1_555
C3 C2 1_555 1_555
C4 C3 1_555 1_555
H3 C4 1_555 1_555
C5 C4 1_555 1_555
H4 C5 1_555 1_555
C6 C7 1_555 1_555
C7 H5 1_555 1_555
C8 C7 1_555 1_555
H6 C8 1_555 1_555
C9 C8 1_555 1_555
H7 C9 1_555 1_555
C10 C9 1_555 1_555
C11 C6 1_555 1_555
H8 C11 1_555 1_555
C12 C10 1_555 1_555
H9 C12 1_555 1_555
C13 C12 1_555 1_555
H10 C13 1_555 1_555
C14 C13 1_555 1_555
N1 C1 1_555 1_555
O1 C14 1_555 1_555
O2 Mn1 1_555 1_555
H11 O2 1_555 1_555
H12 O2 1_555 1_555
O3 C14 1_555 1_555
O4 Mn1 1_555 1_555
H13 O4 1_555 1_555
H14 O4 1_555 1_555
O5 C6 1_555 1_555
H15 O5 1_555 1_555
O6 H16 1_555 1_555
H17 O6 1_555 1_555
Mn1_2 N1B 1_555 1_555
C1B H1B 1_555 1_555
C2B C1B 1_555 1_555
H2B C2B 1_555 1_555
C3B C3 1_555 1_555
C4B C3B 1_555 1_555
H3B C4B 1_555 1_555
C5B C4B 1_555 1_555
H4B C5B 1_555 1_555
N1B C1B 1_555 1_555
N1B_2 Mn1 1_555 1_555
O2B Mn1 1_555 1_555
H11B O2B 1_555 1_555
H12B O2B 1_555 1_555
O4B Mn1 1_555 1_555
H13B O4B 1_555 1_555
H14B O4B 1_555 1_555
C5 N1 1_555 1_555
C10 C11 1_555 1_555
C2B C3B 1_555 1_555
C5B N1B 1_555 1_555

#END
