
#######################################################################
#
#                 Cambridge Crystallographic Data Centre
#                                CCDC 
#
#######################################################################
#
# If this CIF has been generated from an entry in the Cambridge 
# Structural Database, then it will include bibliographic, chemical, 
# crystal, experimental, refinement or atomic coordinate data resulting 
# from the CCDC's data processing and validation procedures.
#
#######################################################################

data_MPHLPC
_symmetry_cell_setting           orthorhombic
_symmetry_space_group_name_H-M   'P b c a'
_symmetry_Int_Tables_number      61
_space_group_name_Hall           '-P 2ac 2ab'
loop_
_symmetry_equiv_pos_site_id
_symmetry_equiv_pos_as_xyz
1 x,y,z
2 1/2-x,-y,1/2+z
3 1/2+x,1/2-y,-z
4 -x,1/2+y,1/2-z
5 -x,-y,-z
6 1/2+x,y,1/2-z
7 1/2-x,1/2+y,z
8 x,1/2-y,1/2+z
_cell_length_a                   13.396(2)
_cell_length_b                   21.900(3)
_cell_length_c                   7.348(1)
_cell_angle_alpha                90
_cell_angle_beta                 90
_cell_angle_gamma                90
_cell_volume                     2155.7
loop_
_atom_site_label
_atom_site_type_symbol
_atom_site_fract_x
_atom_site_fract_y
_atom_site_fract_z
Pb1 Pb 0.42320 0.79110 0.82190
S1 S 0.29160 0.73930 0.60230
C1 C 0.21040 0.80290 0.55150
C2 C 0.26660 0.86280 0.53560
N1 N 0.31210 0.88240 0.71840
C3 C 0.37960 0.93480 0.67140
C4 C 0.42090 0.96070 0.84620
O1 O 0.35000 0.97840 0.97180
C5 C 0.29020 0.92690 1.01760
C6 C 0.24110 0.90220 0.85220
H1 H 0.16200 0.80650 0.64760
H2 H 0.17370 0.79440 0.44510
H3 H 0.22290 0.89370 0.49030
H4 H 0.31920 0.85780 0.44590
H5 H 0.34090 0.96580 0.60680
H6 H 0.43290 0.92070 0.59340
H7 H 0.46480 0.99370 0.82220
H8 H 0.46450 0.93170 0.90020
H9 H 0.24120 0.93820 1.10750
H10 H 0.33120 0.89540 1.07300
H11 H 0.19750 0.93300 0.80500
H12 H 0.19880 0.86810 0.88790
S1G S 0.29160 0.76070 1.10230
Pb1G Pb 0.42320 0.70890 0.32190
S1G_2 S 0.29160 0.76070 0.10230
N1G N 0.31210 0.61760 0.21840
C2G C 0.26660 0.63720 0.03560
C3G C 0.37960 0.56520 0.17140
C6G C 0.24110 0.59780 0.35220
C4G C 0.42090 0.53930 0.34620
H5G H 0.34090 0.53420 0.10680
H6G H 0.43290 0.57930 0.09340
C5G C 0.29020 0.57310 0.51760
H11G H 0.19750 0.56700 0.30500
H12G H 0.19880 0.63190 0.38790
O1G O 0.35000 0.52160 0.47180
H7G H 0.46480 0.50630 0.32220
H8G H 0.46450 0.56830 0.40020
H9G H 0.24120 0.56180 0.60750
H10G H 0.33120 0.60460 0.57300
Pb1_2 Pb 0.42320 0.79110 -0.17810
C1G C 0.21040 0.69710 0.05150
H3G H 0.22290 0.60630 -0.00970
H4G H 0.31920 0.64220 -0.05410
H1G H 0.16200 0.69350 0.14760
H2G H 0.17370 0.70560 -0.05490
N2 N 0.52860 0.65690 0.84040
O2 O 0.49330 0.68280 0.70620
O3 O 0.52700 0.68410 0.98710
O4 O 0.56500 0.60750 0.82260
loop_
_geom_bond_atom_site_label_1
_geom_bond_atom_site_label_2
_geom_bond_site_symmetry_1
_geom_bond_site_symmetry_2
Pb1 S1 1_555 1_555
S1 C1 1_555 1_555
C1 C2 1_555 1_555
C2 N1 1_555 1_555
N1 Pb1 1_555 1_555
C3 N1 1_555 1_555
C4 C3 1_555 1_555
O1 C4 1_555 1_555
C5 O1 1_555 1_555
C6 N1 1_555 1_555
H1 C1 1_555 1_555
H2 C1 1_555 1_555
H3 C2 1_555 1_555
H4 C2 1_555 1_555
H5 C3 1_555 1_555
H6 C3 1_555 1_555
H7 C4 1_555 1_555
H8 C4 1_555 1_555
H9 C5 1_555 1_555
H10 C5 1_555 1_555
H11 C6 1_555 1_555
H12 C6 1_555 1_555
N2 O2 1_555 1_555
O3 N2 1_555 1_555
O4 N2 1_555 1_555
S1G Pb1 1_555 1_555
Pb1G S1 1_555 1_555
S1G_2 Pb1G 1_555 1_555
N1G Pb1G 1_555 1_555
C2G N1G 1_555 1_555
C3G N1G 1_555 1_555
C6G N1G 1_555 1_555
C4G C3G 1_555 1_555
H5G C3G 1_555 1_555
H6G C3G 1_555 1_555
C5G C6G 1_555 1_555
H11G C6G 1_555 1_555
H12G C6G 1_555 1_555
O1G C4G 1_555 1_555
H7G C4G 1_555 1_555
H8G C4G 1_555 1_555
H9G C5G 1_555 1_555
H10G C5G 1_555 1_555
Pb1_2 S1G_2 1_555 1_555
C1G S1G_2 1_555 1_555
H3G C2G 1_555 1_555
H4G C2G 1_555 1_555
H1G C1G 1_555 1_555
H2G C1G 1_555 1_555
C5 C6 1_555 1_555
C2G C1G 1_555 1_555
C5G O1G 1_555 1_555

#END
