
#######################################################################
#
#                 Cambridge Crystallographic Data Centre
#                                CCDC 
#
#######################################################################
#
# If this CIF has been generated from an entry in the Cambridge 
# Structural Database, then it will include bibliographic, chemical, 
# crystal, experimental, refinement or atomic coordinate data resulting 
# from the CCDC's data processing and validation procedures.
#
#######################################################################

data_MPITCD
_symmetry_cell_setting           tetragonal
_symmetry_space_group_name_H-M   'I -4'
_symmetry_Int_Tables_number      82
_space_group_name_Hall           'I -4'
loop_
_symmetry_equiv_pos_site_id
_symmetry_equiv_pos_as_xyz
1 x,y,z
2 1/2+x,1/2+y,1/2+z
3 y,-x,-z
4 1/2+y,1/2-x,1/2-z
5 -x,-y,z
6 1/2-x,1/2-y,1/2+z
7 -y,x,-z
8 1/2-y,1/2+x,1/2-z
_cell_length_a                   18.76(2)
_cell_length_b                   18.76(2)
_cell_length_c                   6.66(1)
_cell_angle_alpha                90
_cell_angle_beta                 90
_cell_angle_gamma                90
_cell_volume                     2343.9
loop_
_atom_site_label
_atom_site_type_symbol
_atom_site_fract_x
_atom_site_fract_y
_atom_site_fract_z
Cd1 Cd 1.00000 1.00000 1.00000
Cd2 Cd 1.00000 1.00000 0.50000
S1 S 1.10230 1.00920 0.75050
C1 C 1.13880 0.91750 0.75300
C2 C 1.18480 0.90980 0.93310
C3 C 1.25150 0.94760 0.94530
C4 C 1.25230 0.95750 0.57130
C5 C 1.18450 0.90030 0.56230
C6 C 1.36570 0.97650 0.76700
N1 N 1.29490 0.93490 0.74000
S1B S 1.00920 0.89770 1.24950
C1B C 0.91750 0.86120 1.24700
C2B C 0.90980 0.81520 1.06690
C3B C 0.94760 0.74850 1.05470
C4B C 0.95750 0.74770 1.42870
C5B C 0.90030 0.81550 1.43770
C6B C 0.97650 0.63430 1.23300
N1B N 0.93490 0.70510 1.26000
S1D S 0.89770 0.99080 0.75050
C1D C 0.86120 1.08250 0.75300
C2D C 0.81520 1.09020 0.93310
C3D C 0.74850 1.05240 0.94530
C4D C 0.74770 1.04250 0.57130
C5D C 0.81550 1.09970 0.56230
C6D C 0.63430 1.02350 0.76700
N1D N 0.70510 1.06510 0.74000
S1F S 0.99080 1.10230 1.24950
C1F C 1.08250 1.13880 1.24700
C2F C 1.09020 1.18480 1.06690
C3F C 1.05240 1.25150 1.05470
C4F C 1.04250 1.25230 1.42870
C5F C 1.09970 1.18450 1.43770
C6F C 1.02350 1.36570 1.23300
N1F N 1.06510 1.29490 1.26000
S1B_2 S 1.00920 0.89770 0.24950
S1F_2 S 0.99080 1.10230 0.24950
Cd2_2 Cd 1.00000 1.00000 1.50000
Cl1 Cl 0.63160 0.19260 0.28100
O1 O 0.58590 0.24830 0.26880
O2 O 0.69830 0.20340 0.29440
O3 O 0.63840 0.18750 0.49660
O4 O 0.60620 0.12840 0.26130
O5 O 0.66000 0.20380 0.81700
loop_
_geom_bond_atom_site_label_1
_geom_bond_atom_site_label_2
_geom_bond_site_symmetry_1
_geom_bond_site_symmetry_2
Cd1 S1 1_555 1_555
Cd2 S1 1_555 1_555
S1 C1 1_555 1_555
C1 C2 1_555 1_555
C2 C3 1_555 1_555
C3 N1 1_555 1_555
C4 C5 1_555 1_555
C5 C1 1_555 1_555
C6 N1 1_555 1_555
N1 C4 1_555 1_555
Cl1 O1 1_555 1_555
O2 Cl1 1_555 1_555
O3 Cl1 1_555 1_555
O4 Cl1 1_555 1_555
S1B Cd1 1_555 1_555
C1B S1B 1_555 1_555
C2B C1B 1_555 1_555
C3B C2B 1_555 1_555
C4B C5B 1_555 1_555
C5B C1B 1_555 1_555
C6B N1B 1_555 1_555
N1B C3B 1_555 1_555
S1D Cd1 1_555 1_555
C1D S1D 1_555 1_555
C2D C1D 1_555 1_555
C3D C2D 1_555 1_555
C4D C5D 1_555 1_555
C5D C1D 1_555 1_555
C6D N1D 1_555 1_555
N1D C3D 1_555 1_555
S1F Cd1 1_555 1_555
C1F S1F 1_555 1_555
C2F C1F 1_555 1_555
C3F C2F 1_555 1_555
C4F C5F 1_555 1_555
C5F C1F 1_555 1_555
C6F N1F 1_555 1_555
N1F C3F 1_555 1_555
S1B_2 Cd2 1_555 1_555
S1F_2 Cd2 1_555 1_555
Cd2_2 S1B 1_555 1_555
Cd2 S1D 1_555 1_555
C4B N1B 1_555 1_555
C4D N1D 1_555 1_555
S1F Cd2_2 1_555 1_555
C4F N1F 1_555 1_555

#END
