
#######################################################################
#
#                 Cambridge Crystallographic Data Centre
#                                CCDC 
#
#######################################################################
#
# If this CIF has been generated from an entry in the Cambridge 
# Structural Database, then it will include bibliographic, chemical, 
# crystal, experimental, refinement or atomic coordinate data resulting 
# from the CCDC's data processing and validation procedures.
#
#######################################################################

data_MPOALA10
_symmetry_cell_setting           monoclinic
_symmetry_space_group_name_H-M   'P 21/m'
_symmetry_Int_Tables_number      11
_space_group_name_Hall           '-P 2yb'
loop_
_symmetry_equiv_pos_site_id
_symmetry_equiv_pos_as_xyz
1 x,y,z
2 -x,1/2+y,-z
3 -x,-y,-z
4 x,1/2-y,z
_cell_length_a                   7.255(5)
_cell_length_b                   9.152(5)
_cell_length_c                   9.781(6)
_cell_angle_alpha                90
_cell_angle_beta                 103.82(3)
_cell_angle_gamma                90
_cell_volume                     630.636
loop_
_atom_site_label
_atom_site_type_symbol
_atom_site_fract_x
_atom_site_fract_y
_atom_site_fract_z
La1 La 0.0854(2) 0.2500 0.0125(2)
Cl1 Cl 0.1349(11) 0.2500 0.2973(6)
Cl2 Cl -0.2313(4) 0.0483(4) -0.0229(4)
O1 O 0.0043(26) 0.2500 -0.2331(15)
O2 O -0.3266(19) 0.2500 -0.6271(16)
O3 O 0.4250(20) 0.2500 -0.0027(24)
C1 C -0.1095(27) 0.2500 -0.3590(21)
C2 C -0.1665(20) 0.1158(20) -0.4281(16)
C3 C -0.2745(19) 0.1222(21) -0.5614(16)
C4 C -0.3491(26) -0.0085(26) -0.6508(21)
Cl2B Cl 0.2313(4) -0.0483(4) 0.0229(4)
Cl2A Cl 0.2313(4) 0.5483(4) 0.0229(4)
Cl2C Cl -0.2313(4) 0.4517(4) -0.0229(4)
La1A La -0.0854(2) -0.2500 -0.0125(2)
C2C C -0.1665(20) 0.3842(20) -0.4281(16)
C3C C -0.2745(19) 0.3778(21) -0.5614(16)
La1A_2 La -0.0854(2) 0.7500 -0.0125(2)
Cl1A Cl -0.1349(11) -0.2500 -0.2973(6)
Cl2A_2 Cl 0.2313(4) -0.4517(4) 0.0229(4)
Cl2C_2 Cl -0.2313(4) -0.5483(4) -0.0229(4)
O1A O -0.0043(26) -0.2500 0.2331(15)
O3A O -0.4250(20) -0.2500 0.0027(24)
C4C C -0.3491(26) 0.5085(26) -0.6508(21)
C1A C 0.1095(27) -0.2500 0.3590(21)
C2B C 0.1665(20) -0.1158(20) 0.4281(16)
C2A C 0.1665(20) -0.3842(20) 0.4281(16)
C3B C 0.2745(19) -0.1222(21) 0.5614(16)
C3A C 0.2745(19) -0.3778(21) 0.5614(16)
O2A O 0.3266(19) -0.2500 0.6271(16)
C4B C 0.3491(26) 0.0085(26) 0.6508(21)
C4A C 0.3491(26) -0.5085(26) 0.6508(21)
loop_
_geom_bond_atom_site_label_1
_geom_bond_atom_site_label_2
_geom_bond_site_symmetry_1
_geom_bond_site_symmetry_2
La1 Cl1 1_555 1_555
Cl2 La1 1_555 1_555
O1 La1 1_555 1_555
O2 C3 1_555 1_555
O3 La1 1_555 1_555
C1 O1 1_555 1_555
C2 C1 1_555 1_555
C3 C2 1_555 1_555
C4 C3 1_555 1_555
Cl2B La1 1_555 1_555
Cl2A La1 1_555 1_555
Cl2C La1 1_555 1_555
La1A Cl2 1_555 1_555
C2C C1 1_555 1_555
C3C O2 1_555 1_555
La1A_2 Cl2A 1_555 1_555
Cl1A La1A 1_555 1_555
Cl2A_2 La1A 1_555 1_555
Cl2C_2 La1A 1_555 1_555
O1A La1A 1_555 1_555
O3A La1A 1_555 1_555
C4C C3C 1_555 1_555
C1A O1A 1_555 1_555
C2B C1A 1_555 1_555
C2A C1A 1_555 1_555
C3B C2B 1_555 1_555
C3A C2A 1_555 1_555
O2A C3B 1_555 1_555
C4B C3B 1_555 1_555
C4A C3A 1_555 1_555
Cl2B La1A 1_555 1_555
Cl2C La1A_2 1_555 1_555
C2C C3C 1_555 1_555
C3A O2A 1_555 1_555

#END
