
#######################################################################
#
#                 Cambridge Crystallographic Data Centre
#                                CCDC 
#
#######################################################################
#
# If this CIF has been generated from an entry in the Cambridge 
# Structural Database, then it will include bibliographic, chemical, 
# crystal, experimental, refinement or atomic coordinate data resulting 
# from the CCDC's data processing and validation procedures.
#
#######################################################################

data_MSNGYT
_symmetry_cell_setting           orthorhombic
_symmetry_space_group_name_H-M   'P n a m'
_symmetry_Int_Tables_number      62
_space_group_name_Hall           '-P 2c 2n'
loop_
_symmetry_equiv_pos_site_id
_symmetry_equiv_pos_as_xyz
1 x,y,z
2 -x,-y,1/2+z
3 1/2+x,1/2-y,1/2-z
4 1/2-x,1/2+y,-z
5 -x,-y,-z
6 x,y,1/2-z
7 1/2-x,1/2+y,1/2+z
8 1/2+x,1/2-y,z
_cell_length_a                   17.644(9)
_cell_length_b                   6.565(4)
_cell_length_c                   7.684(3)
_cell_angle_alpha                90
_cell_angle_beta                 90
_cell_angle_gamma                90
_cell_volume                     890.06
loop_
_atom_site_label
_atom_site_type_symbol
_atom_site_fract_x
_atom_site_fract_y
_atom_site_fract_z
Sn1 Sn 0.13640 0.20840 0.25000
N1 N 0.26320 0.10560 0.25000
C1 C 0.32480 0.07180 0.25000
N2 N 0.39360 0.00630 0.25000
C2 C 0.45380 0.10320 0.25000
N3 N 0.51130 0.17620 0.25000
C3 C 0.67300 -0.01740 0.25000
C4 C 0.61860 0.45130 0.01210
Sn1B Sn 0.63640 0.29160 0.25000
C4E C 0.61860 0.45130 0.48790
N1B N 0.76320 0.39440 0.25000
loop_
_geom_bond_atom_site_label_1
_geom_bond_atom_site_label_2
_geom_bond_site_symmetry_1
_geom_bond_site_symmetry_2
Sn1 N1 1_555 1_555
N1 C1 1_555 1_555
C1 N2 1_555 1_555
N2 C2 1_555 1_555
C2 N3 1_555 1_555
N3 Sn1B 1_555 1_555
C3 Sn1B 1_555 1_555
C4 Sn1B 1_555 1_555
Sn1B C4E 1_555 1_555
N1B Sn1B 1_555 1_555

#END
