
#######################################################################
#
#                 Cambridge Crystallographic Data Centre
#                                CCDC 
#
#######################################################################
#
# If this CIF has been generated from an entry in the Cambridge 
# Structural Database, then it will include bibliographic, chemical, 
# crystal, experimental, refinement or atomic coordinate data resulting 
# from the CCDC's data processing and validation procedures.
#
#######################################################################

data_MTACHH
_symmetry_cell_setting           monoclinic
_symmetry_space_group_name_H-M   'P 21/a'
_symmetry_Int_Tables_number      14
_space_group_name_Hall           '-P 2yab'
loop_
_symmetry_equiv_pos_site_id
_symmetry_equiv_pos_as_xyz
1 x,y,z
2 1/2-x,1/2+y,-z
3 -x,-y,-z
4 1/2+x,1/2-y,z
_cell_length_a                   16.617(9)
_cell_length_b                   7.271(3)
_cell_length_c                   20.476(2)
_cell_angle_alpha                90
_cell_angle_beta                 113.31(5)
_cell_angle_gamma                90
_cell_volume                     2272.02
loop_
_atom_site_label
_atom_site_type_symbol
_atom_site_fract_x
_atom_site_fract_y
_atom_site_fract_z
Hg1 Hg 0.28452 0.02060 0.04004
S1 S 0.19460 0.29320 0.03780
C1 C 0.08200 0.20200 -0.01600
O1 O 0.42700 0.03300 0.13900
O2 O 0.41700 0.24700 0.05800
C2 C 0.45600 0.16500 0.11400
C3 C 0.55500 0.23500 0.16200
N1 N 0.23700 -0.10500 0.13200
C4 C 0.27400 -0.03100 0.19400
C5 C 0.24200 -0.06300 0.24700
C6 C 0.16600 -0.16300 0.23200
C7 C 0.12900 -0.19100 0.28900
C8 C 0.12700 -0.23100 0.16500
C9 C 0.16600 -0.20300 0.11700
S1A S 0.30540 -0.20680 -0.03780
Hg1A Hg 0.21548 0.52060 -0.04004
Hg1A_2 Hg 0.21548 -0.47940 -0.04004
C1A C 0.41800 -0.29800 0.01600
S1A_2 S 0.30540 0.79320 -0.03780
O1A O 0.07300 0.53300 -0.13900
O2A O 0.08300 0.74700 -0.05800
N1A N 0.26300 0.39500 -0.13200
C2A C 0.04400 0.66500 -0.11400
C4A C 0.22600 0.46900 -0.19400
C9A C 0.33400 0.29700 -0.11700
C3A C -0.05500 0.73500 -0.16200
C5A C 0.25800 0.43700 -0.24700
C8A C 0.37300 0.26900 -0.16500
C6A C 0.33400 0.33700 -0.23200
C7A C 0.37100 0.30900 -0.28900
Hg2 Hg 0.20746 0.02320 0.50786
S2 S 0.34080 0.20660 0.53320
C10 C 0.37300 0.11800 0.46300
O3 O 0.08000 0.20400 0.45500
O4 O 0.13800 0.19700 0.37500
C11 C 0.08200 0.24400 0.39700
C12 C 0.00300 0.36600 0.34700
N2 N 0.17500 0.02600 0.61300
C13 C 0.10300 0.11100 0.61300
C14 C 0.07900 0.10900 0.67000
C15 C 0.13200 0.02700 0.73200
C16 C 0.11100 0.03600 0.79800
C17 C 0.20900 -0.05100 0.73400
C18 C 0.22500 -0.05600 0.67300
S2A S 0.15920 -0.29340 0.46680
Hg2A Hg 0.29254 0.52320 0.49214
Hg2A_2 Hg 0.29254 -0.47680 0.49214
C10A C 0.12700 -0.38200 0.53700
S2A_2 S 0.15920 0.70660 0.46680
O3A O 0.42000 0.70400 0.54500
O4A O 0.36200 0.69700 0.62500
N2A N 0.32500 0.52600 0.38700
C11A C 0.41800 0.74400 0.60300
C13A C 0.39700 0.61100 0.38700
C18A C 0.27500 0.44400 0.32700
C12A C 0.49700 0.86600 0.65300
C14A C 0.42100 0.60900 0.33000
C17A C 0.29100 0.44900 0.26600
C15A C 0.36800 0.52700 0.26800
C16A C 0.38900 0.53600 0.20200
loop_
_geom_bond_atom_site_label_1
_geom_bond_atom_site_label_2
_geom_bond_site_symmetry_1
_geom_bond_site_symmetry_2
Hg1 S1 1_555 1_555
S1 C1 1_555 1_555
O1 Hg1 1_555 1_555
O2 Hg1 1_555 1_555
C2 O1 1_555 1_555
C3 C2 1_555 1_555
N1 Hg1 1_555 1_555
C4 N1 1_555 1_555
C5 C4 1_555 1_555
C6 C5 1_555 1_555
C7 C6 1_555 1_555
C8 C6 1_555 1_555
C9 N1 1_555 1_555
Hg2 S2 1_555 1_555
S2 C10 1_555 1_555
O3 Hg2 1_555 1_555
O4 Hg2 1_555 1_555
C11 O3 1_555 1_555
C12 C11 1_555 1_555
N2 Hg2 1_555 1_555
C13 N2 1_555 1_555
C14 C13 1_555 1_555
C15 C14 1_555 1_555
C16 C15 1_555 1_555
C17 C15 1_555 1_555
C18 N2 1_555 1_555
S1A Hg1 1_555 1_555
Hg1A S1 1_555 1_555
Hg1A_2 S1A 1_555 1_555
C1A S1A 1_555 1_555
S1A_2 Hg1A 1_555 1_555
O1A Hg1A 1_555 1_555
O2A Hg1A 1_555 1_555
N1A Hg1A 1_555 1_555
C2A O1A 1_555 1_555
C4A N1A 1_555 1_555
C9A N1A 1_555 1_555
C3A C2A 1_555 1_555
C5A C4A 1_555 1_555
C8A C9A 1_555 1_555
C6A C5A 1_555 1_555
C7A C6A 1_555 1_555
S2A Hg2 1_555 1_555
Hg2A S2 1_555 1_555
Hg2A_2 S2A 1_555 1_555
C10A S2A 1_555 1_555
S2A_2 Hg2A 1_555 1_555
O3A Hg2A 1_555 1_555
O4A Hg2A 1_555 1_555
N2A Hg2A 1_555 1_555
C11A O3A 1_555 1_555
C13A N2A 1_555 1_555
C18A N2A 1_555 1_555
C12A C11A 1_555 1_555
C14A C13A 1_555 1_555
C17A C18A 1_555 1_555
C15A C14A 1_555 1_555
C16A C15A 1_555 1_555
O2 C2 1_555 1_555
C8 C9 1_555 1_555
O4 C11 1_555 1_555
C17 C18 1_555 1_555
O2A C2A 1_555 1_555
C8A C6A 1_555 1_555
O4A C11A 1_555 1_555
C17A C15A 1_555 1_555

#END
