
#######################################################################
#
#                 Cambridge Crystallographic Data Centre
#                                CCDC 
#
#######################################################################
#
# If this CIF has been generated from an entry in the Cambridge 
# Structural Database, then it will include bibliographic, chemical, 
# crystal, experimental, refinement or atomic coordinate data resulting 
# from the CCDC's data processing and validation procedures.
#
#######################################################################

data_MTLPAL
_symmetry_cell_setting           triclinic
_symmetry_space_group_name_H-M   'P 1'
_symmetry_Int_Tables_number      1
_space_group_name_Hall           'P 1'
loop_
_symmetry_equiv_pos_site_id
_symmetry_equiv_pos_as_xyz
1 x,y,z
_cell_length_a                   11.278(2)
_cell_length_b                   9.354(3)
_cell_length_c                   6.231(2)
_cell_angle_alpha                105.53(4)
_cell_angle_beta                 78.75(3)
_cell_angle_gamma                103.66(2)
_cell_volume                     609.288
loop_
_atom_site_label
_atom_site_type_symbol
_atom_site_fract_x
_atom_site_fract_y
_atom_site_fract_z
C1 C -0.52540 -0.83980 -0.36320
Tl1 Tl -0.02566 -0.16260 -0.30334
O1 O -0.04870 -0.17860 0.12210
O2 O -0.09440 -0.35380 0.32840
N1 N -0.11390 -0.42440 -0.23890
C2 C -0.09950 -0.30460 0.16080
C3 C -0.18420 -0.40580 -0.00990
C4 C -0.24800 -0.55650 0.04180
C5 C -0.34900 -0.65140 -0.10190
C6 C -0.38730 -0.59970 -0.26240
C7 C -0.47540 -0.69390 -0.39310
C8 C -0.48710 -0.89150 -0.20280
C9 C -0.39890 -0.79730 -0.07210
C10 C 0.15900 -0.16610 -0.33720
C11 C -0.20230 -0.09790 -0.24570
O2_2 O -0.09440 -0.35380 -0.67160
Tl1_2 Tl -0.02566 -0.16260 0.69666
Tl2 Tl 0.02583 0.16249 0.30402
O3 O 0.03360 0.18850 -0.11420
O4 O 0.05450 0.35410 -0.32550
N2 N 0.09320 0.42940 0.24600
C12 C 0.07250 0.31580 -0.15630
C13 C 0.13890 0.44720 0.01360
C14 C 0.27430 0.44390 -0.05900
C15 C 0.36250 0.56940 0.08240
C16 C 0.40850 0.53690 0.25250
C17 C 0.49000 0.64850 0.37910
C18 C 0.52550 0.79250 0.33580
C19 C 0.47940 0.82500 0.16570
C20 C 0.39790 0.71340 0.03910
C21 C -0.17020 0.16670 0.37290
C22 C 0.19810 0.10690 0.28240
O4_2 O 0.05450 0.35410 0.67450
Tl2_2 Tl 0.02583 0.16249 -0.69598
loop_
_geom_bond_atom_site_label_1
_geom_bond_atom_site_label_2
_geom_bond_site_symmetry_1
_geom_bond_site_symmetry_2
C1 C7 1_555 1_555
Tl1 O1 1_555 1_555
O1 C2 1_555 1_555
O2 C2 1_555 1_555
N1 Tl1 1_555 1_555
C2 C3 1_555 1_555
C3 N1 1_555 1_555
C4 C3 1_555 1_555
C5 C4 1_555 1_555
C6 C5 1_555 1_555
C7 C6 1_555 1_555
C8 C1 1_555 1_555
C9 C5 1_555 1_555
C10 Tl1 1_555 1_555
C11 Tl1 1_555 1_555
Tl2 O3 1_555 1_555
O3 C12 1_555 1_555
O4 C12 1_555 1_555
N2 Tl2 1_555 1_555
C12 C13 1_555 1_555
C13 N2 1_555 1_555
C14 C13 1_555 1_555
C15 C14 1_555 1_555
C16 C15 1_555 1_555
C17 C16 1_555 1_555
C18 C17 1_555 1_555
C19 C18 1_555 1_555
C20 C15 1_555 1_555
C21 Tl2 1_555 1_555
C22 Tl2 1_555 1_555
O2_2 Tl1 1_555 1_555
Tl1_2 O2 1_555 1_555
O4_2 Tl2 1_555 1_555
Tl2_2 O4 1_555 1_555
C8 C9 1_555 1_555
C19 C20 1_555 1_555

#END
