
#######################################################################
#
#                 Cambridge Crystallographic Data Centre
#                                CCDC 
#
#######################################################################
#
# If this CIF has been generated from an entry in the Cambridge 
# Structural Database, then it will include bibliographic, chemical, 
# crystal, experimental, refinement or atomic coordinate data resulting 
# from the CCDC's data processing and validation procedures.
#
#######################################################################

data_MUBJUO01
_symmetry_cell_setting           monoclinic
_symmetry_space_group_name_H-M   'C 2/m'
_symmetry_Int_Tables_number      12
_space_group_name_Hall           '-C 2y'
loop_
_symmetry_equiv_pos_site_id
_symmetry_equiv_pos_as_xyz
1 x,y,z
2 1/2+x,1/2+y,z
3 x,-y,z
4 1/2+x,1/2-y,z
5 -x,-y,-z
6 1/2-x,1/2-y,-z
7 -x,y,-z
8 1/2-x,1/2+y,-z
_cell_length_a                   6.1913(17)
_cell_length_b                   17.544(5)
_cell_length_c                   4.6009(13)
_cell_angle_alpha                90
_cell_angle_beta                 115.61(2)
_cell_angle_gamma                90
_cell_volume                     450.654
loop_
_atom_site_label
_atom_site_type_symbol
_atom_site_fract_x
_atom_site_fract_y
_atom_site_fract_z
Fe1 Fe 0.0000 0.20911(6) 0.5000
O1 O 0.2395(5) 0.30117(18) 0.7116(7)
O2 O 0.2922(5) 0.3667(2) 1.1511(7)
C1 C 0.2115(7) 0.3598(3) 0.8525(10)
C2 C 0.0874(7) 0.4303(3) 0.6587(10)
C3 C 0.1753(11) 0.5000 0.8146(14)
H1 H 0.2901 0.5000 1.0147
C2F C -0.0874(7) 0.4303(3) 0.3413(10)
C1F C -0.2115(7) 0.3598(3) 0.1475(10)
O1F O -0.2395(5) 0.30117(18) 0.2884(7)
O2F O -0.2922(5) 0.3667(2) -0.1511(7)
C3F C -0.1753(11) 0.5000 0.1854(14)
C2D C -0.0874(7) 0.5697(3) 0.3413(10)
C1D C -0.2115(7) 0.6402(3) 0.1475(10)
O1D O -0.2395(5) 0.69883(18) 0.2884(7)
O2D O -0.2922(5) 0.6333(2) -0.1511(7)
C2B C 0.0874(7) 0.5697(3) 0.6587(10)
C1B C 0.2115(7) 0.6402(3) 0.8525(10)
O1B O 0.2395(5) 0.69883(18) 0.7116(7)
O2B O 0.2922(5) 0.6333(2) 1.1511(7)
H1F H -0.2901 0.5000 -0.0147
Fe1D Fe 0.0000 0.79089(6) 0.5000
O1C O -0.2605(5) 0.19883(18) 0.7116(7)
O1E O 0.2605(5) 0.19883(18) 0.2884(7)
O2C O -0.2078(5) 0.1333(2) 0.1511(7)
O2E O 0.2078(5) 0.1333(2) 0.8489(7)
Fe1C Fe 0.5000 0.29089(6) 0.5000
Fe1C_2 Fe 0.5000 0.29089(6) 1.5000
Fe1C_3 Fe -0.5000 0.29089(6) 0.5000
Fe1C_4 Fe -0.5000 0.29089(6) -0.5000
Fe1A Fe -0.5000 0.70911(6) 0.5000
Fe1A_2 Fe -0.5000 0.70911(6) -0.5000
Fe1A_3 Fe 0.5000 0.70911(6) 0.5000
Fe1A_4 Fe 0.5000 0.70911(6) 1.5000
O1A O -0.2605(5) 0.80117(18) 0.7116(7)
O1G O 0.2605(5) 0.80117(18) 0.2884(7)
O2A O -0.2078(5) 0.8667(2) 0.1511(7)
O2G O 0.2078(5) 0.8667(2) 0.8489(7)
loop_
_geom_bond_atom_site_label_1
_geom_bond_atom_site_label_2
_geom_bond_site_symmetry_1
_geom_bond_site_symmetry_2
Fe1 O1 1_555 1_555
O1 C1 1_555 1_555
O2 C1 1_555 1_555
C1 C2 1_555 1_555
C2 C3 1_555 1_555
C3 H1 1_555 1_555
C2F C2 1_555 1_555
C1F C2F 1_555 1_555
O1F Fe1 1_555 1_555
O2F C1F 1_555 1_555
C3F C2F 1_555 1_555
C2D C3F 1_555 1_555
C1D C2D 1_555 1_555
O1D C1D 1_555 1_555
O2D C1D 1_555 1_555
C2B C3 1_555 1_555
C1B C2B 1_555 1_555
O1B C1B 1_555 1_555
O2B C1B 1_555 1_555
H1F C3F 1_555 1_555
Fe1D O1D 1_555 1_555
O1C Fe1 1_555 1_555
O1E Fe1 1_555 1_555
O2C Fe1 1_555 1_555
O2E Fe1 1_555 1_555
Fe1C O1 1_555 1_555
Fe1C_2 O2 1_555 1_555
Fe1C_3 O1F 1_555 1_555
Fe1C_4 O2F 1_555 1_555
Fe1A O1D 1_555 1_555
Fe1A_2 O2D 1_555 1_555
Fe1A_3 O1B 1_555 1_555
Fe1A_4 O2B 1_555 1_555
O1A Fe1D 1_555 1_555
O1G Fe1D 1_555 1_555
O2A Fe1D 1_555 1_555
O2G Fe1D 1_555 1_555
C1F O1F 1_555 1_555
C2D C2B 1_555 1_555
O1B Fe1D 1_555 1_555
O1C Fe1C_3 1_555 1_555
O1E Fe1C 1_555 1_555
Fe1A O1A 1_555 1_555
Fe1A_3 O1G 1_555 1_555

#END
