
#######################################################################
#
#                 Cambridge Crystallographic Data Centre
#                                CCDC 
#
#######################################################################
#
# If this CIF has been generated from an entry in the Cambridge 
# Structural Database, then it will include bibliographic, chemical, 
# crystal, experimental, refinement or atomic coordinate data resulting 
# from the CCDC's data processing and validation procedures.
#
#######################################################################

data_MUBKEZ
_symmetry_cell_setting           triclinic
_symmetry_space_group_name_H-M   'P -1'
_symmetry_Int_Tables_number      2
_space_group_name_Hall           '-P 1'
loop_
_symmetry_equiv_pos_site_id
_symmetry_equiv_pos_as_xyz
1 x,y,z
2 -x,-y,-z
_cell_length_a                   10.0919(7)
_cell_length_b                   11.3865(8)
_cell_length_c                   12.1526(8)
_cell_angle_alpha                88.1820(10)
_cell_angle_beta                 68.5700(10)
_cell_angle_gamma                69.2390(10)
_cell_volume                     1207.82
loop_
_atom_site_label
_atom_site_type_symbol
_atom_site_fract_x
_atom_site_fract_y
_atom_site_fract_z
Zn1 Zn 0.59808(3) 0.11789(2) 0.24992(2)
N1 N 0.2841(2) 0.2092(2) 0.4047(2)
O1 O 0.8024(2) 0.05756(17) 0.07174(15)
O2 O 0.57200(19) 0.12978(17) 0.07507(15)
O3 O 0.7651(2) 0.0634(2) -0.09370(16)
N2 N 0.7148(2) 0.08297(19) 0.01473(17)
O4 O 0.4125(2) 0.17680(19) 0.41566(17)
O5 O 0.2851(3) 0.1933(3) 0.3052(2)
O6 O 0.1665(2) 0.2505(3) 0.4944(2)
N3 N 0.5983(2) -0.06916(18) 0.23989(16)
N4 N 0.5922(2) -0.69120(19) 0.23785(18)
N5 N 0.7503(2) 0.07439(18) 0.34301(17)
C1 C 0.6742(3) -0.1607(2) 0.2919(2)
H1 H 0.7291 -0.1401 0.3323
C2 C 0.6766(3) -0.2817(2) 0.2899(2)
H2 H 0.7310 -0.3419 0.3292
C3 C 0.5998(3) -0.3166(2) 0.2304(2)
C4 C 0.5236(3) -0.2231(2) 0.1739(2)
H3 H 0.4705 -0.2423 0.1309
C5 C 0.5254(3) -0.1034(2) 0.1807(2)
H4 H 0.4725 -0.0416 0.1416
C6 C 0.5944(8) -0.6336(5) 0.3322(5)
H5 H 0.5919 -0.6764 0.4009
C7 C 0.6002(8) -0.5143(5) 0.3318(5)
H6 H 0.6063 -0.4775 0.3980
C8 C 0.5970(3) -0.4456(2) 0.2303(2)
C9 C 0.5851(8) -0.5074(5) 0.1425(5)
H7 H 0.5791 -0.4666 0.0741
C10 C 0.5815(8) -0.6265(6) 0.1494(5)
H8 H 0.5706 -0.6639 0.0861
C15 C 0.8965(10) 0.0643(13) 0.2900(7)
H13 H 0.9333 0.0759 0.2081
C16 C 0.9967(8) 0.0380(15) 0.3486(6)
H14 H 1.0982 0.0350 0.3080
C17 C 0.797(2) 0.0333(13) 0.5234(16)
H15 H 0.7581 0.0242 0.6058
C18 C 0.705(2) 0.0629(15) 0.4640(17)
H16 H 0.5996 0.0772 0.5074
C23 C 0.9475(2) 0.0159(2) 0.46718(19)
C23A C 1.0525(2) -0.0159(2) 0.53282(19)
C16A C 1.0033(8) -0.0380(15) 0.6514(6)
C15A C 1.1035(10) -0.0643(13) 0.7100(7)
N5A N 1.2497(2) -0.07439(18) 0.65699(17)
C18A C 1.295(2) -0.0629(15) 0.5360(17)
C17A C 1.203(2) -0.0333(13) 0.4766(16)
H15A H 1.2419 -0.0242 0.3942
H16A H 1.4004 -0.0772 0.4926
H13A H 1.0667 -0.0759 0.7919
H14A H 0.9018 -0.0350 0.6920
N3_2 N 0.5983(2) 0.93084(18) 0.23989(16)
N4_2 N 0.5922(2) 0.30880(19) 0.23785(18)
C1_2 C 0.6742(3) 0.8393(2) 0.2919(2)
H1_2 H 0.7291 0.8599 0.3323
C2_2 C 0.6766(3) 0.7183(2) 0.2899(2)
H2_2 H 0.7310 0.6581 0.3292
C3_2 C 0.5998(3) 0.6834(2) 0.2304(2)
C4_2 C 0.5236(3) 0.7769(2) 0.1739(2)
H3_2 H 0.4705 0.7577 0.1309
C5_2 C 0.5254(3) 0.8966(2) 0.1807(2)
H4_2 H 0.4725 0.9584 0.1416
C6_2 C 0.5944(8) 0.3664(5) 0.3322(5)
H5_2 H 0.5919 0.3236 0.4009
C7_2 C 0.6002(8) 0.4857(5) 0.3318(5)
H6_2 H 0.6063 0.5225 0.3980
C8_2 C 0.5970(3) 0.5544(2) 0.2303(2)
C9_2 C 0.5851(8) 0.4926(5) 0.1425(5)
H7_2 H 0.5791 0.5334 0.0741
C10_2 C 0.5815(8) 0.3735(6) 0.1494(5)
H8_2 H 0.5706 0.3361 0.0861
Zn1_2 Zn 0.59808(3) 1.11789(2) 0.24992(2)
O1_2 O 0.8024(2) 1.05756(17) 0.07174(15)
O2_2 O 0.57200(19) 1.12978(17) 0.07507(15)
O3_2 O 0.7651(2) 1.0634(2) -0.09370(16)
N2_2 N 0.7148(2) 1.08297(19) 0.01473(17)
N1_2 N 0.2841(2) 1.2092(2) 0.4047(2)
O4_2 O 0.4125(2) 1.17680(19) 0.41566(17)
O5_2 O 0.2851(3) 1.1933(3) 0.3052(2)
O6_2 O 0.1665(2) 1.2505(3) 0.4944(2)
Zn1_3 Zn 0.59808(3) -0.88211(2) 0.24992(2)
Zn1A Zn 1.40192(3) -0.11789(2) 0.75008(2)
N4_3 N 0.5922(2) 1.30880(19) 0.23785(18)
N5_2 N 0.7503(2) 1.07439(18) 0.34301(17)
C24 C 0.8168(16) 0.5307(12) 0.8415(10)
H21 H 0.7663 0.5892 0.7988
C25 C 0.969(2) 0.3621(19) 0.965(2)
C26 C 0.965(3) 0.4913(12) 0.967(2)
C27 C 1.046(3) 0.2673(19) 1.0248(16)
H22 H 1.0457 0.1843 1.0220
C28 C 0.8818(13) 0.5710(12) 0.9091(10)
C29 C 0.8785(14) 0.7009(11) 0.9142(14)
H23 H 0.8248 0.7624 0.8754
C30 C 0.901(2) 0.3228(14) 0.8956(12)
H24 H 0.9088 0.2375 0.8900
C31 C 0.8240(18) 0.4118(14) 0.8355(10)
H25 H 0.7766 0.3871 0.7906
C29A C 1.1215(14) 0.2991(11) 1.0858(14)
C28A C 1.1182(13) 0.4290(12) 1.0909(10)
C24A C 1.1832(16) 0.4693(12) 1.1585(10)
H21A H 1.2337 0.4108 1.2012
C31A C 1.1760(18) 0.5882(14) 1.1645(10)
C30A C 1.099(2) 0.6772(14) 1.1044(12)
C25A C 1.031(2) 0.6379(19) 1.035(2)
C26A C 1.035(3) 0.5087(12) 1.033(2)
C27A C 0.954(3) 0.7327(19) 0.9752(16)
H22A H 0.9543 0.8157 0.9780
H24A H 1.0912 0.7625 1.1100
H25A H 1.2234 0.6129 1.2094
H23A H 1.1752 0.2376 1.1246
O7 O 0.9128(12) 0.3313(11) 0.4020(13)
C40 C 0.824(3) 0.390(3) 0.493(2)
H31 H 0.7980 0.4808 0.4850
H32 H 0.8677 0.3688 0.5543
H33 H 0.7304 0.3710 0.5169
C11? C 0.7083(8) 0.3397(6) 0.2491(7)
H9? H 0.7907 0.2738 0.2598
C12? C 0.7121(8) 0.4574(6) 0.2457(7)
H10? H 0.7951 0.4721 0.2540
C13? C 0.4913(11) 0.5253(7) 0.1992(9)
H11? H 0.4187 0.5880 0.1753
C14? C 0.4950(11) 0.4025(7) 0.2042(9)
H12? H 0.4232 0.3833 0.1820
C19? C 0.9017(11) 0.0118(12) 0.2857(8)
H17? H 0.9410 -0.0106 0.2022
C20? C 1.0010(9) -0.0207(12) 0.3437(7)
H18? H 1.1065 -0.0681 0.3007
C21? C 0.788(2) 0.0739(16) 0.5250(19)
H19? H 0.7435 0.0955 0.6087
C22? C 0.694(3) 0.100(2) 0.4565(19)
H20? H 0.5862 0.1380 0.4965
C32? C 0.9556(14) 0.2718(14) 0.9115(14)
H26? H 0.9580 0.1886 0.9253
C33? C 1.0849(16) 0.3467(15) 1.1371(12)
H27? H 1.1205 0.3052 1.1955
C34? C 0.9072(16) 0.3288(18) 0.8271(15)
H28? H 0.8774 0.2839 0.7818
C35? C 0.9323(13) 0.5271(13) 0.8727(11)
C36? C 0.8991(16) 0.452(2) 0.8037(11)
H29? H 0.8707 0.4859 0.7397
C37? C 0.999(2) 0.3302(19) 0.975(2)
C38? C 1.053(3) 0.283(2) 1.068(2)
H30? H 1.0676 0.1975 1.0807
C39? C 0.981(3) 0.4547(13) 0.964(2)
C41? C 0.8427(15) 0.4548(14) 0.5151(16)
H34? H 0.7373 0.5143 0.5348
H35? H 0.9018 0.4510 0.4301
H36? H 0.8895 0.4832 0.5615
O8? O 0.8417(14) 0.3350(13) 0.5423(18)
loop_
_geom_bond_atom_site_label_1
_geom_bond_atom_site_label_2
_geom_bond_site_symmetry_1
_geom_bond_site_symmetry_2
Zn1 O1 1_555 1_555
N1 O4 1_555 1_555
O1 N2 1_555 1_555
O2 Zn1 1_555 1_555
O3 N2 1_555 1_555
N2 O2 1_555 1_555
O4 Zn1 1_555 1_555
O5 N1 1_555 1_555
O6 N1 1_555 1_555
N3 Zn1 1_555 1_555
N4 C6 1_555 1_555
N5 Zn1 1_555 1_555
C1 N3 1_555 1_555
H1 C1 1_555 1_555
C2 C1 1_555 1_555
H2 C2 1_555 1_555
C3 C2 1_555 1_555
C4 C3 1_555 1_555
H3 C4 1_555 1_555
C5 N3 1_555 1_555
H4 C5 1_555 1_555
C6 H5 1_555 1_555
C7 C6 1_555 1_555
H6 C7 1_555 1_555
C8 C3 1_555 1_555
C9 C8 1_555 1_555
H7 C9 1_555 1_555
C10 N4 1_555 1_555
H8 C10 1_555 1_555
C15 N5 1_555 1_555
H13 C15 1_555 1_555
C16 C15 1_555 1_555
H14 C16 1_555 1_555
C17 H15 1_555 1_555
C18 N5 1_555 1_555
H16 C18 1_555 1_555
C23 C16 1_555 1_555
C24 H21 1_555 1_555
C25 C26 1_555 1_555
C26 C28 1_555 1_555
C27 C25 1_555 1_555
H22 C27 1_555 1_555
C28 C24 1_555 1_555
C29 C28 1_555 1_555
H23 C29 1_555 1_555
C30 C25 1_555 1_555
H24 C30 1_555 1_555
C31 C24 1_555 1_555
H25 C31 1_555 1_555
O7 C40 1_555 1_555
C40 H31 1_555 1_555
H32 C40 1_555 1_555
H33 C40 1_555 1_555
C23A C23 1_555 1_555
C16A C23A 1_555 1_555
C15A C16A 1_555 1_555
N5A C15A 1_555 1_555
C18A N5A 1_555 1_555
C17A C23A 1_555 1_555
H15A C17A 1_555 1_555
H16A C18A 1_555 1_555
H13A C15A 1_555 1_555
H14A C16A 1_555 1_555
C29A C27 1_555 1_555
C28A C29A 1_555 1_555
C24A C28A 1_555 1_555
H21A C24A 1_555 1_555
C31A C24A 1_555 1_555
C30A C31A 1_555 1_555
C25A C30A 1_555 1_555
C26A C26 1_555 1_555
C27A C29 1_555 1_555
H22A C27A 1_555 1_555
H24A C30A 1_555 1_555
H25A C31A 1_555 1_555
H23A C29A 1_555 1_555
N3_2 C1_2 1_555 1_555
N4_2 Zn1 1_555 1_555
C1_2 H1_2 1_555 1_555
C2_2 C1_2 1_555 1_555
H2_2 C2_2 1_555 1_555
C3_2 C2_2 1_555 1_555
C4_2 C3_2 1_555 1_555
H3_2 C4_2 1_555 1_555
C5_2 N3_2 1_555 1_555
H4_2 C5_2 1_555 1_555
C6_2 N4_2 1_555 1_555
H5_2 C6_2 1_555 1_555
C7_2 C6_2 1_555 1_555
H6_2 C7_2 1_555 1_555
C8_2 C3_2 1_555 1_555
C9_2 C8_2 1_555 1_555
H7_2 C9_2 1_555 1_555
C10_2 N4_2 1_555 1_555
H8_2 C10_2 1_555 1_555
Zn1_2 N3_2 1_555 1_555
O1_2 Zn1_2 1_555 1_555
O2_2 Zn1_2 1_555 1_555
O3_2 N2_2 1_555 1_555
N2_2 O1_2 1_555 1_555
N1_2 O4_2 1_555 1_555
O4_2 Zn1_2 1_555 1_555
O5_2 N1_2 1_555 1_555
O6_2 N1_2 1_555 1_555
Zn1_3 N4 1_555 1_555
Zn1A N5A 1_555 1_555
N4_3 Zn1_2 1_555 1_555
N5_2 Zn1_2 1_555 1_555
C4 C5 1_555 1_555
C7 C8 1_555 1_555
C9 C10 1_555 1_555
C17 C23 1_555 1_555
C17 C18 1_555 1_555
C30 C31 1_555 1_555
C18A C17A 1_555 1_555
C28A C26A 1_555 1_555
C25A C26A 1_555 1_555
C25A C27A 1_555 1_555
C4_2 C5_2 1_555 1_555
C7_2 C8_2 1_555 1_555
C9_2 C10_2 1_555 1_555
O2_2 N2_2 1_555 1_555

#END
