
#######################################################################
#
#                 Cambridge Crystallographic Data Centre
#                                CCDC 
#
#######################################################################
#
# If this CIF has been generated from an entry in the Cambridge 
# Structural Database, then it will include bibliographic, chemical, 
# crystal, experimental, refinement or atomic coordinate data resulting 
# from the CCDC's data processing and validation procedures.
#
#######################################################################

data_MUBRIM
_symmetry_cell_setting           monoclinic
_symmetry_space_group_name_H-M   'P 21/n'
_symmetry_Int_Tables_number      14
_space_group_name_Hall           '-P 2yn'
loop_
_symmetry_equiv_pos_site_id
_symmetry_equiv_pos_as_xyz
1 x,y,z
2 1/2-x,1/2+y,1/2-z
3 -x,-y,-z
4 1/2+x,1/2-y,1/2+z
_cell_length_a                   14.0167(19)
_cell_length_b                   6.0416(8)
_cell_length_c                   19.452(3)
_cell_angle_alpha                90
_cell_angle_beta                 93.811(2)
_cell_angle_gamma                90
_cell_volume                     1643.62
loop_
_atom_site_label
_atom_site_type_symbol
_atom_site_fract_x
_atom_site_fract_y
_atom_site_fract_z
Zn1 Zn 0.5000 0.5000 0.5000
Zn2 Zn 0.60137(5) 0.98580(13) 0.52000(4)
S1 S 0.96625(11) 0.4026(3) 0.23113(8)
O1 O 0.5996(3) 0.5829(8) 0.4299(2)
O2 O 0.6974(3) 0.8609(8) 0.4650(2)
O3 O 0.9613(3) 0.1658(8) 0.2251(2)
O4 O 0.9516(3) 0.5389(8) 0.1703(2)
O5 O 1.3797(3) 0.5245(8) 0.4243(2)
O6 O 1.3359(3) 0.8744(8) 0.4011(2)
O7 O 0.4865(3) 0.8123(7) 0.5366(2)
C1 C 0.6744(5) 0.6893(11) 0.4282(3)
C2 C 0.7484(5) 0.6211(11) 0.3797(3)
C3 C 0.7412(5) 0.4103(12) 0.3485(3)
H1 H 0.6907 0.3169 0.3571
C4 C 0.8095(5) 0.3439(12) 0.3052(3)
H2 H 0.8068 0.2025 0.2863
C5 C 0.8823(5) 0.4871(12) 0.2896(3)
C6 C 0.8871(5) 0.6974(12) 0.3189(3)
H3 H 0.9352 0.7946 0.3078
C7 C 0.8212(5) 0.7621(12) 0.3640(3)
H4 H 0.8256 0.9018 0.3841
C8 C 1.0769(4) 0.4735(11) 0.2729(3)
C9 C 1.1201(5) 0.3254(11) 0.3197(3)
H5 H 1.0928 0.1870 0.3258
C10 C 1.2034(4) 0.3830(12) 0.3571(3)
H6 H 1.2332 0.2826 0.3878
C11 C 1.2425(4) 0.5918(11) 0.3487(3)
C12 C 1.2002(5) 0.7396(12) 0.3007(3)
H7 H 1.2270 0.8788 0.2950
C13 C 1.1187(4) 0.6790(11) 0.2618(3)
H8 H 1.0917 0.7742 0.2283
C14 C 1.3271(5) 0.6654(11) 0.3952(3)
H9 H 0.479(7) 0.789(17) 0.572(5)
Zn2B Zn 0.39863(5) 0.01420(13) 0.48000(4)
S1B S 0.03375(11) 0.5974(3) 0.76887(8)
O1B O 0.4004(3) 0.4171(8) 0.5701(2)
O2B O 0.3026(3) 0.1391(8) 0.5350(2)
O3B O 0.0387(3) 0.8342(8) 0.7749(2)
O4B O 0.0484(3) 0.4611(8) 0.8297(2)
O5B O -0.3797(3) 0.4755(8) 0.5757(2)
O6B O -0.3359(3) 0.1256(8) 0.5989(2)
O7B O 0.5135(3) 0.1877(7) 0.4634(2)
C1B C 0.3256(5) 0.3107(11) 0.5718(3)
C2B C 0.2516(5) 0.3789(11) 0.6203(3)
C3B C 0.2588(5) 0.5897(12) 0.6515(3)
H1B H 0.3093 0.6831 0.6429
C4B C 0.1905(5) 0.6561(12) 0.6948(3)
H2B H 0.1932 0.7975 0.7137
C5B C 0.1177(5) 0.5129(12) 0.7104(3)
C6B C 0.1129(5) 0.3026(12) 0.6811(3)
H3B H 0.0648 0.2054 0.6922
C7B C 0.1788(5) 0.2379(12) 0.6360(3)
H4B H 0.1744 0.0982 0.6159
C8B C -0.0769(4) 0.5265(11) 0.7271(3)
C9B C -0.1201(5) 0.6746(11) 0.6803(3)
H5B H -0.0928 0.8130 0.6742
C10B C -0.2034(4) 0.6170(12) 0.6429(3)
H6B H -0.2332 0.7174 0.6122
C11B C -0.2425(4) 0.4082(11) 0.6513(3)
C12B C -0.2002(5) 0.2604(12) 0.6993(3)
H7B H -0.2270 0.1212 0.7050
C13B C -0.1187(4) 0.3210(11) 0.7382(3)
H8B H -0.0917 0.2258 0.7717
C14B C -0.3271(5) 0.3346(11) 0.6048(3)
H9B H 0.521(7) 0.211(17) 0.428(5)
Zn1_2 Zn -0.5000 0.5000 0.5000
Zn1_3 Zn 1.5000 0.5000 0.5000
Zn2_2 Zn -0.39863(5) -0.01420(13) 0.52000(4)
Zn2_3 Zn 0.60137(5) -0.01420(13) 0.52000(4)
Zn2B_2 Zn 0.39863(5) 1.01420(13) 0.48000(4)
Zn2B_3 Zn 1.39863(5) 1.01420(13) 0.48000(4)
O5_2 O 0.3797(3) 0.5245(8) 0.4243(2)
O5B_2 O 0.6203(3) 0.4755(8) 0.5757(2)
O6_2 O 0.3359(3) -0.1256(8) 0.4011(2)
O6B_2 O 0.6641(3) 1.1256(8) 0.5989(2)
O7_2 O 0.4865(3) -0.1877(7) 0.5366(2)
O7B_2 O 0.5135(3) 1.1877(7) 0.4634(2)
N1 N 0.9950(9) 0.179(2) 0.4727(6)
H10 H 1.0092 0.3154 0.4667
C15 C 0.9418(10) 0.106(4) 0.5295(6)
H11 H 0.9214 0.2369 0.5533
H12 H 0.8844 0.0330 0.5102
C16 C 1.0215(11) 0.014(3) 0.4287(7)
H13 H 0.9667 -0.0538 0.4038
H14 H 1.0661 0.0668 0.3963
N1B N 1.0050(9) -0.179(2) 0.5273(6)
H10B H 0.9908 -0.3154 0.5333
C15B C 1.0582(10) -0.106(4) 0.4705(6)
H11B H 1.0786 -0.2369 0.4467
H12B H 1.1156 -0.0330 0.4898
C16B C 0.9785(11) -0.014(3) 0.5713(7)
H13B H 1.0333 0.0538 0.5962
H14B H 0.9339 -0.0668 0.6037
loop_
_geom_bond_atom_site_label_1
_geom_bond_atom_site_label_2
_geom_bond_site_symmetry_1
_geom_bond_site_symmetry_2
Zn1 O1 1_555 1_555
Zn2 O2 1_555 1_555
S1 O3 1_555 1_555
O1 C1 1_555 1_555
O2 C1 1_555 1_555
O4 S1 1_555 1_555
O5 C14 1_555 1_555
O6 C14 1_555 1_555
O7 Zn1 1_555 1_555
C1 C2 1_555 1_555
C2 C3 1_555 1_555
C3 H1 1_555 1_555
C4 C3 1_555 1_555
H2 C4 1_555 1_555
C5 S1 1_555 1_555
C6 C5 1_555 1_555
H3 C6 1_555 1_555
C7 C2 1_555 1_555
H4 C7 1_555 1_555
C8 S1 1_555 1_555
C9 C8 1_555 1_555
H5 C9 1_555 1_555
C10 C9 1_555 1_555
H6 C10 1_555 1_555
C11 C10 1_555 1_555
C12 C11 1_555 1_555
H7 C12 1_555 1_555
C13 C8 1_555 1_555
H8 C13 1_555 1_555
C14 C11 1_555 1_555
H9 O7 1_555 1_555
N1 H10 1_555 1_555
C15 N1 1_555 1_555
H11 C15 1_555 1_555
H12 C15 1_555 1_555
C16 N1 1_555 1_555
H13 C16 1_555 1_555
H14 C16 1_555 1_555
Zn2B O2B 1_555 1_555
S1B O3B 1_555 1_555
O1B Zn1 1_555 1_555
O2B C1B 1_555 1_555
O4B S1B 1_555 1_555
O5B C14B 1_555 1_555
O6B C14B 1_555 1_555
O7B Zn1 1_555 1_555
C1B O1B 1_555 1_555
C2B C1B 1_555 1_555
C3B C2B 1_555 1_555
H1B C3B 1_555 1_555
C4B C3B 1_555 1_555
H2B C4B 1_555 1_555
C5B S1B 1_555 1_555
C6B C5B 1_555 1_555
H3B C6B 1_555 1_555
C7B C2B 1_555 1_555
H4B C7B 1_555 1_555
C8B S1B 1_555 1_555
C9B C8B 1_555 1_555
H5B C9B 1_555 1_555
C10B C9B 1_555 1_555
H6B C10B 1_555 1_555
C11B C10B 1_555 1_555
C12B C11B 1_555 1_555
H7B C12B 1_555 1_555
C13B C8B 1_555 1_555
H8B C13B 1_555 1_555
C14B C11B 1_555 1_555
H9B O7B 1_555 1_555
Zn1_2 O5B 1_555 1_555
Zn1_3 O5 1_555 1_555
Zn2_2 O6B 1_555 1_555
Zn2_3 O7B 1_555 1_555
Zn2B_2 O7 1_555 1_555
Zn2B_3 O6 1_555 1_555
O5_2 Zn1 1_555 1_555
O5B_2 Zn1 1_555 1_555
O6_2 Zn2B 1_555 1_555
O6B_2 Zn2 1_555 1_555
O7_2 Zn2B 1_555 1_555
O7B_2 Zn2 1_555 1_555
N1B H10B 1_555 1_555
C15B C16 1_555 1_555
H11B C15B 1_555 1_555
H12B C15B 1_555 1_555
C16B C15 1_555 1_555
H13B C16B 1_555 1_555
H14B C16B 1_555 1_555
Zn2 O7 1_555 1_555
C4 C5 1_555 1_555
C6 C7 1_555 1_555
C12 C13 1_555 1_555
Zn2B O7B 1_555 1_555
C4B C5B 1_555 1_555
C6B C7B 1_555 1_555
C12B C13B 1_555 1_555
Zn2_3 O7_2 1_555 1_555
Zn2B_2 O7B_2 1_555 1_555
N1B C15B 1_555 1_555
N1B C16B 1_555 1_555

#END
