
#######################################################################
#
#                 Cambridge Crystallographic Data Centre
#                                CCDC 
#
#######################################################################
#
# If this CIF has been generated from an entry in the Cambridge 
# Structural Database, then it will include bibliographic, chemical, 
# crystal, experimental, refinement or atomic coordinate data resulting 
# from the CCDC's data processing and validation procedures.
#
#######################################################################

data_MUBXUD
_symmetry_cell_setting           orthorhombic
_symmetry_space_group_name_H-M   'F d d 2'
_symmetry_Int_Tables_number      43
_space_group_name_Hall           'F 2 -2d'
loop_
_symmetry_equiv_pos_site_id
_symmetry_equiv_pos_as_xyz
1 x,y,z
2 -x,-y,z
3 1/4-x,1/4+y,1/4+z
4 1/4+x,1/4-y,1/4+z
5 x,1/2+y,1/2+z
6 -x,1/2-y,1/2+z
7 1/4-x,3/4+y,3/4+z
8 1/4+x,3/4-y,3/4+z
9 1/2+x,y,1/2+z
10 1/2-x,-y,1/2+z
11 3/4-x,1/4+y,3/4+z
12 3/4+x,1/4-y,3/4+z
13 1/2+x,1/2+y,z
14 1/2-x,1/2-y,z
15 3/4-x,3/4+y,1/4+z
16 3/4+x,3/4-y,1/4+z
_cell_length_a                   32.441(4)
_cell_length_b                   34.138(4)
_cell_length_c                   10.1972(12)
_cell_angle_alpha                90
_cell_angle_beta                 90
_cell_angle_gamma                90
_cell_volume                     11293.1
loop_
_atom_site_label
_atom_site_type_symbol
_atom_site_fract_x
_atom_site_fract_y
_atom_site_fract_z
C1 C 0.52950(14) 0.07179(14) -0.0860(5)
H1 H 0.5231 0.0517 -0.0276
C2 C 0.55879(14) 0.06426(13) -0.1810(5)
H2 H 0.5719 0.0401 -0.1847
C3 C 0.56831(13) 0.09346(13) -0.2709(5)
C4 C 0.54745(14) 0.12918(13) -0.2581(5)
H3 H 0.5529 0.1498 -0.3153
C5 C 0.51897(13) 0.13334(13) -0.1603(6)
H4 H 0.5050 0.1571 -0.1548
C6 C 0.51064(14) 0.08224(13) -0.6723(5)
H5 H 0.4900 0.0634 -0.6721
C7 C 0.53796(13) 0.08165(13) -0.5740(5)
H6 H 0.5355 0.0632 -0.5073
C8 C 0.57026(13) 0.10881(12) -0.5718(4)
C9 C 0.57199(12) 0.13488(13) -0.6783(5)
H7 H 0.5932 0.1531 -0.6849
C10 C 0.54305(13) 0.13299(13) -0.7684(4)
H8 H 0.5449 0.1507 -0.8375
C11 C 0.31961(14) -0.08043(14) 0.2669(4)
C12 C 0.34504(7) -0.04386(7) 0.2397(3)
C13 C 0.33510(7) -0.00786(8) 0.2950(3)
H9 H 0.3123 -0.0056 0.3496
C14 C 0.35930(9) 0.02481(6) 0.2687(3)
H10 H 0.3527 0.0489 0.3057
C15 C 0.39343(8) 0.02148(7) 0.1870(3)
C16 C 0.40337(7) -0.01452(8) 0.1317(3)
H11 H 0.4262 -0.0167 0.0771
C17 C 0.37917(8) -0.04719(6) 0.1581(3)
H12 H 0.3858 -0.0713 0.1211
C18 C 0.42046(13) 0.05541(13) 0.1612(4)
N1 N 0.50968(12) 0.10580(11) -0.0720(4)
N2 N 0.59730(11) 0.08629(11) -0.3697(4)
N3 N 0.59939(11) 0.11042(11) -0.4701(4)
N4 N 0.51102(12) 0.10792(11) -0.7703(4)
O1 O 0.33046(9) -0.11241(9) 0.2192(3)
O2 O 0.28946(10) -0.07711(9) 0.3412(3)
Co1 Co 0.467820(19) 0.110280(18) 0.08164(6)
O3 O 0.44949(9) 0.05257(8) 0.0775(3)
O4 O 0.41528(10) 0.08757(9) 0.2213(3)
N4_2 N 0.51102(12) 0.10792(11) 0.2297(4)
O1J O 0.41954(9) 0.13759(9) -0.0308(3)
O2J O 0.46054(10) 0.17289(9) 0.0912(3)
Co1_2 Co 0.467820(19) 0.110280(18) -0.91836(6)
Co1N Co 0.282180(19) -0.139720(18) 0.33164(6)
C19 C 0.34469(15) 0.31385(14) -0.4608(4)
H13 H 0.3659 0.2965 -0.4300
H14 H 0.3189 0.3068 -0.4210
H15 H 0.3516 0.3403 -0.4377
C20 C 0.32794(13) 0.34669(13) -0.6730(5)
H16 H 0.3427 0.3492 -0.7541
H17 H 0.3336 0.3689 -0.6182
H18 H 0.2989 0.3454 -0.6906
C21 C 0.35209(14) 0.27414(13) -0.6697(5)
H19 H 0.3777 0.2632 -0.6513
N5 N 0.34115(11) 0.31054(11) -0.6052(4)
O5 O 0.32930(9) 0.25672(9) -0.7477(3)
C22 C 0.46065(14) 0.18349(13) -0.5146(5)
H20 H 0.4494 0.1745 -0.5963
H21 H 0.4432 0.1753 -0.4439
H22 H 0.4877 0.1726 -0.5029
C23 C 0.44909(13) 0.24827(14) -0.3977(4)
H23 H 0.4725 0.2557 -0.3457
H24 H 0.4313 0.2317 -0.3469
H25 H 0.4343 0.2713 -0.4243
C24 C 0.47026(13) 0.24724(14) -0.6400(4)
H26 H 0.4547 0.2687 -0.6664
N6 N 0.46332(12) 0.22667(11) -0.5158(4)
O6 O 0.49957(10) 0.23314(9) -0.7088(3)
O7 O 0.49198(17) 0.02737(16) -0.3751(6)
H27 H 0.4779 0.0440 -0.3323
H28 H 0.5147 0.0233 -0.3357
loop_
_geom_bond_atom_site_label_1
_geom_bond_atom_site_label_2
_geom_bond_site_symmetry_1
_geom_bond_site_symmetry_2
C1 H1 1_555 1_555
C2 C1 1_555 1_555
H2 C2 1_555 1_555
C3 C2 1_555 1_555
C4 C3 1_555 1_555
H3 C4 1_555 1_555
C5 C4 1_555 1_555
H4 C5 1_555 1_555
C6 H5 1_555 1_555
C7 C6 1_555 1_555
H6 C7 1_555 1_555
C8 C7 1_555 1_555
C9 C8 1_555 1_555
H7 C9 1_555 1_555
C10 C9 1_555 1_555
H8 C10 1_555 1_555
C11 C12 1_555 1_555
C12 C13 1_555 1_555
C13 H9 1_555 1_555
C14 C13 1_555 1_555
H10 C14 1_555 1_555
C15 C14 1_555 1_555
C16 C15 1_555 1_555
H11 C16 1_555 1_555
C17 C12 1_555 1_555
H12 C17 1_555 1_555
C18 C15 1_555 1_555
C19 H13 1_555 1_555
H14 C19 1_555 1_555
H15 C19 1_555 1_555
C20 H16 1_555 1_555
H17 C20 1_555 1_555
H18 C20 1_555 1_555
C21 H19 1_555 1_555
C22 H20 1_555 1_555
H21 C22 1_555 1_555
H22 C22 1_555 1_555
C23 H23 1_555 1_555
H24 C23 1_555 1_555
H25 C23 1_555 1_555
C24 H26 1_555 1_555
N1 C1 1_555 1_555
N2 C3 1_555 1_555
N3 C8 1_555 1_555
N4 C6 1_555 1_555
N5 C19 1_555 1_555
N6 C22 1_555 1_555
O1 C11 1_555 1_555
O2 C11 1_555 1_555
Co1 N1 1_555 1_555
O3 C18 1_555 1_555
O4 C18 1_555 1_555
O5 C21 1_555 1_555
O6 C24 1_555 1_555
O7 H27 1_555 1_555
H28 O7 1_555 1_555
N4_2 Co1 1_555 1_555
O1J Co1 1_555 1_555
O2J Co1 1_555 1_555
Co1_2 N4 1_555 1_555
Co1N O1 1_555 1_555
C5 N1 1_555 1_555
C10 N4 1_555 1_555
C16 C17 1_555 1_555
C20 N5 1_555 1_555
C21 N5 1_555 1_555
C23 N6 1_555 1_555
C24 N6 1_555 1_555
N2 N3 1_555 1_555
O2 Co1N 1_555 1_555
Co1 O3 1_555 1_555
Co1 O4 1_555 1_555

#END
