
#######################################################################
#
#                 Cambridge Crystallographic Data Centre
#                                CCDC 
#
#######################################################################
#
# If this CIF has been generated from an entry in the Cambridge 
# Structural Database, then it will include bibliographic, chemical, 
# crystal, experimental, refinement or atomic coordinate data resulting 
# from the CCDC's data processing and validation procedures.
#
#######################################################################

data_MUBYUF
_symmetry_cell_setting           orthorhombic
_symmetry_space_group_name_H-M   'P c c n'
_symmetry_Int_Tables_number      56
_space_group_name_Hall           '-P 2ab 2ac'
loop_
_symmetry_equiv_pos_site_id
_symmetry_equiv_pos_as_xyz
1 x,y,z
2 1/2-x,1/2-y,z
3 1/2+x,-y,1/2-z
4 -x,1/2+y,1/2-z
5 -x,-y,-z
6 1/2+x,1/2+y,-z
7 1/2-x,y,1/2+z
8 x,1/2-y,1/2+z
_cell_length_a                   14.5062(10)
_cell_length_b                   20.7297(13)
_cell_length_c                   22.0330(15)
_cell_angle_alpha                90
_cell_angle_beta                 90
_cell_angle_gamma                90
_cell_volume                     6625.53
loop_
_atom_site_label
_atom_site_type_symbol
_atom_site_fract_x
_atom_site_fract_y
_atom_site_fract_z
Zn1 Zn 0.2500 0.2500 0.25509(2)
Zn2 Zn 0.49462(3) 0.49118(2) 0.31619(2)
O1 O 0.43571(18) 0.28518(13) 0.28018(12)
O2 O 0.35355(16) 0.26721(12) 0.19676(11)
O3 O 0.61153(19) 0.37713(14) 0.30285(12)
O4 O 0.50448(18) 0.42896(12) 0.24883(12)
O5 O 0.72347(18) 0.39242(13) 0.18399(12)
O6 O 0.8875(2) 0.45163(15) 0.18872(15)
O7 O 0.9340(3) 0.3916(2) 0.26445(19)
N1 N 0.2776(2) 0.16684(16) 0.29775(13)
N2 N 0.3541(2) 0.08742(17) 0.33929(14)
N3 N 0.2587(2) 0.05129(16) 0.64691(13)
N4 N 0.1135(2) 0.03671(14) 0.67008(14)
N5 N 0.4559(2) 0.44744(17) 0.39311(14)
N6 N 0.4306(3) 0.3722(2) 0.46058(17)
C1 C 0.4278(2) 0.28230(16) 0.22419(17)
C2 C 0.5646(3) 0.38472(17) 0.25682(17)
C3 C 0.5105(2) 0.29603(18) 0.18489(15)
C4 C 0.5228(3) 0.2615(2) 0.13219(17)
H1 H 0.4783 0.2319 0.1202
C5 C 0.6007(3) 0.2703(2) 0.09682(18)
H2 H 0.6082 0.2465 0.0614
C6 C 0.6665(3) 0.3139(2) 0.11390(18)
H3 H 0.7184 0.3204 0.0898
C7 C 0.6556(2) 0.34824(18) 0.16712(17)
C8 C 0.5773(2) 0.34103(17) 0.20284(16)
C9 C 0.7960(3) 0.3624(2) 0.2180(2)
H4 H 0.8147 0.3230 0.1977
H5 H 0.7730 0.3508 0.2579
C10 C 0.8789(3) 0.4061(2) 0.2251(2)
C11 C 0.3564(3) 0.1494(2) 0.32259(17)
H6 H 0.4069 0.1765 0.3278
C12 C 0.2229(3) 0.1131(2) 0.29909(17)
H7 H 0.1628 0.1110 0.2845
C13 C 0.2689(3) 0.0636(2) 0.32465(18)
H8 H 0.2473 0.0219 0.3310
C14 C 0.4262(3) 0.0521(2) 0.37241(19)
H9 H 0.4850 0.0733 0.3661
H10 H 0.4308 0.0087 0.3563
C15 C 0.4062(3) 0.0488(2) 0.43935(18)
C16 C 0.3698(4) -0.0058(2) 0.4645(2)
H11 H 0.3561 -0.0409 0.4399
C17 C 0.3529(4) -0.0092(2) 0.5265(2)
H12 H 0.3280 -0.0467 0.5427
C18 C 0.3722(3) 0.0415(2) 0.56410(19)
C19 C 0.4086(4) 0.0961(2) 0.5391(2)
H13 H 0.4221 0.1314 0.5636
C20 C 0.4256(4) 0.0992(2) 0.4766(2)
H14 H 0.4509 0.1365 0.4602
C21 C 0.3549(3) 0.0365(3) 0.63162(19)
H15 H 0.3695 -0.0068 0.6452
H16 H 0.3952 0.0662 0.6528
C22 C 0.1926(3) 0.00850(19) 0.65808(18)
H17 H 0.2013 -0.0359 0.6575
C23 C 0.1306(3) 0.10132(19) 0.66667(17)
H18 H 0.0875 0.1338 0.6734
C24 C 0.2199(3) 0.1107(2) 0.65192(18)
H19 H 0.2492 0.1502 0.6463
C25 C 0.4698(3) 0.3874(2) 0.4079(2)
H20 H 0.5032 0.3585 0.3843
C26 C 0.4032(4) 0.4728(3) 0.4385(2)
H21 H 0.3817 0.5150 0.4407
C27 C 0.3876(5) 0.4260(3) 0.4796(3)
H22 H 0.3531 0.4302 0.5149
C28 C 0.4307(4) 0.3084(3) 0.4888(2)
H23 H 0.4523 0.3123 0.5303
H24 H 0.4734 0.2807 0.4672
C29 C 0.3369(4) 0.2775(2) 0.4888(2)
C30 C 0.2929(4) 0.2635(3) 0.4348(2)
H25 H 0.3220 0.2726 0.3982
C31 C 0.2938(3) 0.2638(2) 0.54221(18)
H26 H 0.3230 0.2728 0.5788
N5A N 0.0441(2) 0.05256(17) 0.39311(14)
N6A N 0.0694(3) 0.1278(2) 0.46058(17)
C25A C 0.0302(3) 0.1126(2) 0.4079(2)
H20A H -0.0032 0.1415 0.3843
C26A C 0.0968(4) 0.0272(3) 0.4385(2)
H21A H 0.1183 -0.0150 0.4407
C27A C 0.1124(5) 0.0740(3) 0.4796(3)
H22A H 0.1469 0.0698 0.5149
C28A C 0.0693(4) 0.1916(3) 0.4888(2)
H23A H 0.0477 0.1877 0.5303
H24A H 0.0266 0.2193 0.4672
C29A C 0.1631(4) 0.2225(2) 0.4888(2)
C30A C 0.2071(4) 0.2365(3) 0.4348(2)
H25A H 0.1780 0.2274 0.3982
C31A C 0.2062(3) 0.2362(2) 0.54221(18)
H26A H 0.1770 0.2272 0.5788
Zn2A Zn 0.00538(3) 0.00882(2) 0.31619(2)
O1A O 0.06429(18) 0.21482(13) 0.28018(12)
O2A O 0.14645(16) 0.23279(12) 0.19676(11)
O3A O -0.11153(19) 0.12287(14) 0.30285(12)
O4A O -0.00448(18) 0.07104(12) 0.24883(12)
O5A O -0.22347(18) 0.10758(13) 0.18399(12)
O6A O -0.3875(2) 0.04837(15) 0.18872(15)
O7A O -0.4340(3) 0.1084(2) 0.26445(19)
N1A N 0.2224(2) 0.33316(16) 0.29775(13)
N2A N 0.1459(2) 0.41258(17) 0.33929(14)
N3A N 0.2413(2) 0.44871(16) 0.64691(13)
N4A N 0.3865(2) 0.46329(14) 0.67008(14)
C1A C 0.0722(2) 0.21770(16) 0.22419(17)
C2A C -0.0646(3) 0.11528(17) 0.25682(17)
C3A C -0.0105(2) 0.20397(18) 0.18489(15)
C4A C -0.0228(3) 0.2385(2) 0.13219(17)
H1A H 0.0217 0.2681 0.1202
C5A C -0.1007(3) 0.2297(2) 0.09682(18)
H2A H -0.1082 0.2535 0.0614
C6A C -0.1665(3) 0.1861(2) 0.11390(18)
H3A H -0.2184 0.1796 0.0898
C7A C -0.1556(2) 0.15176(18) 0.16712(17)
C8A C -0.0773(2) 0.15897(17) 0.20284(16)
C9A C -0.2960(3) 0.1376(2) 0.2180(2)
H4A H -0.3147 0.1770 0.1977
H5A H -0.2730 0.1492 0.2579
C10A C -0.3789(3) 0.0939(2) 0.2251(2)
C11A C 0.1436(3) 0.3506(2) 0.32259(17)
H6A H 0.0931 0.3235 0.3278
C12A C 0.2771(3) 0.3869(2) 0.29909(17)
H7A H 0.3372 0.3890 0.2845
C13A C 0.2311(3) 0.4364(2) 0.32465(18)
H8A H 0.2527 0.4781 0.3310
C14A C 0.0738(3) 0.4479(2) 0.37241(19)
H9A H 0.0150 0.4267 0.3661
H10A H 0.0692 0.4913 0.3563
C15A C 0.0938(3) 0.4512(2) 0.43935(18)
C16A C 0.1302(4) 0.5058(2) 0.4645(2)
H11A H 0.1439 0.5409 0.4399
C17A C 0.1471(4) 0.5092(2) 0.5265(2)
H12A H 0.1720 0.5467 0.5427
C18A C 0.1278(3) 0.4585(2) 0.56410(19)
C19A C 0.0914(4) 0.4039(2) 0.5391(2)
H13A H 0.0779 0.3686 0.5636
C20A C 0.0744(4) 0.4008(2) 0.4766(2)
H14A H 0.0491 0.3635 0.4602
C21A C 0.1451(3) 0.4635(3) 0.63162(19)
H15A H 0.1305 0.5068 0.6452
H16A H 0.1048 0.4338 0.6528
C22A C 0.3074(3) 0.49150(19) 0.65808(18)
H17A H 0.2987 0.5359 0.6575
C23A C 0.3694(3) 0.39868(19) 0.66667(17)
H18A H 0.4125 0.3662 0.6734
C24A C 0.2801(3) 0.3893(2) 0.65192(18)
H19A H 0.2508 0.3498 0.6463
Zn2B Zn 0.99462(3) 0.50882(2) 0.18381(2)
Zn2C Zn -0.49462(3) -0.00882(2) 0.18381(2)
Zn2D Zn 0.50538(3) 0.50882(2) 0.68381(2)
Zn2E Zn -0.00538(3) -0.00882(2) 0.68381(2)
O6B O 0.3875(2) 0.54837(15) 0.31128(15)
O6C O 0.1125(2) -0.04837(15) 0.31128(15)
N4D N -0.1135(2) -0.03671(14) 0.32992(14)
N4E N 0.6135(2) 0.53671(14) 0.32992(14)
O8 O 0.9182(4) 0.2852(3) 0.3453(3)
H27 H 0.9228 0.3172 0.3214
H28 H 0.9465 0.2573 0.3241
O9 O 0.7525(7) 0.3496(5) 0.3895(5)
H29 H 0.7105 0.3580 0.3638
H30 H 0.8000 0.3305 0.3768
O11 O 0.6875(14) 0.3466(13) 0.4679(11)
H33 H 0.7265 0.3384 0.4956
H34 H 0.6471 0.3169 0.4668
O10? O 0.8316(19) 0.2560(17) 0.4513(16)
H31? H 0.8591 0.2392 0.4211
H32? H 0.8064 0.2857 0.4311
loop_
_geom_bond_atom_site_label_1
_geom_bond_atom_site_label_2
_geom_bond_site_symmetry_1
_geom_bond_site_symmetry_2
Zn1 O2 1_555 1_555
Zn2 O4 1_555 1_555
O1 C1 1_555 1_555
O2 C1 1_555 1_555
O3 C2 1_555 1_555
O4 C2 1_555 1_555
O5 C7 1_555 1_555
O6 C10 1_555 1_555
O7 C10 1_555 1_555
N1 Zn1 1_555 1_555
N2 C11 1_555 1_555
N3 C21 1_555 1_555
N4 C22 1_555 1_555
N5 Zn2 1_555 1_555
N6 C25 1_555 1_555
C1 C3 1_555 1_555
C2 C8 1_555 1_555
C3 C4 1_555 1_555
C4 H1 1_555 1_555
C5 C4 1_555 1_555
H2 C5 1_555 1_555
C6 C5 1_555 1_555
H3 C6 1_555 1_555
C7 C6 1_555 1_555
C8 C3 1_555 1_555
C9 O5 1_555 1_555
H4 C9 1_555 1_555
H5 C9 1_555 1_555
C10 C9 1_555 1_555
C11 N1 1_555 1_555
H6 C11 1_555 1_555
C12 N1 1_555 1_555
H7 C12 1_555 1_555
C13 N2 1_555 1_555
H8 C13 1_555 1_555
C14 N2 1_555 1_555
H9 C14 1_555 1_555
H10 C14 1_555 1_555
C15 C14 1_555 1_555
C16 C15 1_555 1_555
H11 C16 1_555 1_555
C17 C16 1_555 1_555
H12 C17 1_555 1_555
C18 C17 1_555 1_555
C19 C18 1_555 1_555
H13 C19 1_555 1_555
C20 C15 1_555 1_555
H14 C20 1_555 1_555
C21 C18 1_555 1_555
H15 C21 1_555 1_555
H16 C21 1_555 1_555
C22 N3 1_555 1_555
H17 C22 1_555 1_555
C23 N4 1_555 1_555
H18 C23 1_555 1_555
C24 N3 1_555 1_555
H19 C24 1_555 1_555
C25 N5 1_555 1_555
H20 C25 1_555 1_555
C26 N5 1_555 1_555
H21 C26 1_555 1_555
C27 N6 1_555 1_555
H22 C27 1_555 1_555
C28 N6 1_555 1_555
H23 C28 1_555 1_555
H24 C28 1_555 1_555
C29 C28 1_555 1_555
C30 C29 1_555 1_555
H25 C30 1_555 1_555
C31 C29 1_555 1_555
H26 C31 1_555 1_555
O8 H27 1_555 1_555
H28 O8 1_555 1_555
O9 H29 1_555 1_555
H30 O9 1_555 1_555
O11 H33 1_555 1_555
H34 O11 1_555 1_555
N5A C25A 1_555 1_555
N6A C25A 1_555 1_555
C25A H20A 1_555 1_555
C26A N5A 1_555 1_555
H21A C26A 1_555 1_555
C27A N6A 1_555 1_555
H22A C27A 1_555 1_555
C28A N6A 1_555 1_555
H23A C28A 1_555 1_555
H24A C28A 1_555 1_555
C29A C28A 1_555 1_555
C30A C30 1_555 1_555
H25A C30A 1_555 1_555
C31A C31 1_555 1_555
H26A C31A 1_555 1_555
Zn2A N5A 1_555 1_555
O1A C1A 1_555 1_555
O2A Zn1 1_555 1_555
O3A C2A 1_555 1_555
O4A Zn2A 1_555 1_555
O5A C7A 1_555 1_555
O6A C10A 1_555 1_555
O7A C10A 1_555 1_555
N1A Zn1 1_555 1_555
N2A C11A 1_555 1_555
N3A C21A 1_555 1_555
N4A C22A 1_555 1_555
C1A O2A 1_555 1_555
C2A O4A 1_555 1_555
C3A C1A 1_555 1_555
C4A C3A 1_555 1_555
H1A C4A 1_555 1_555
C5A C4A 1_555 1_555
H2A C5A 1_555 1_555
C6A C5A 1_555 1_555
H3A C6A 1_555 1_555
C7A C6A 1_555 1_555
C8A C2A 1_555 1_555
C9A O5A 1_555 1_555
H4A C9A 1_555 1_555
H5A C9A 1_555 1_555
C10A C9A 1_555 1_555
C11A N1A 1_555 1_555
H6A C11A 1_555 1_555
C12A N1A 1_555 1_555
H7A C12A 1_555 1_555
C13A N2A 1_555 1_555
H8A C13A 1_555 1_555
C14A N2A 1_555 1_555
H9A C14A 1_555 1_555
H10A C14A 1_555 1_555
C15A C14A 1_555 1_555
C16A C15A 1_555 1_555
H11A C16A 1_555 1_555
C17A C16A 1_555 1_555
H12A C17A 1_555 1_555
C18A C17A 1_555 1_555
C19A C18A 1_555 1_555
H13A C19A 1_555 1_555
C20A C15A 1_555 1_555
H14A C20A 1_555 1_555
C21A C18A 1_555 1_555
H15A C21A 1_555 1_555
H16A C21A 1_555 1_555
C22A N3A 1_555 1_555
H17A C22A 1_555 1_555
C23A N4A 1_555 1_555
H18A C23A 1_555 1_555
C24A N3A 1_555 1_555
H19A C24A 1_555 1_555
Zn2B O6 1_555 1_555
Zn2C O6A 1_555 1_555
Zn2D N4A 1_555 1_555
Zn2E N4 1_555 1_555
O6B Zn2 1_555 1_555
O6C Zn2A 1_555 1_555
N4D Zn2A 1_555 1_555
N4E Zn2 1_555 1_555
C7 C8 1_555 1_555
C12 C13 1_555 1_555
C19 C20 1_555 1_555
C23 C24 1_555 1_555
C26 C27 1_555 1_555
C26A C27A 1_555 1_555
C29A C30A 1_555 1_555
C29A C31A 1_555 1_555
C3A C8A 1_555 1_555
C7A C8A 1_555 1_555
C12A C13A 1_555 1_555
C19A C20A 1_555 1_555
C23A C24A 1_555 1_555

#END
