
#######################################################################
#
#                 Cambridge Crystallographic Data Centre
#                                CCDC 
#
#######################################################################
#
# If this CIF has been generated from an entry in the Cambridge 
# Structural Database, then it will include bibliographic, chemical, 
# crystal, experimental, refinement or atomic coordinate data resulting 
# from the CCDC's data processing and validation procedures.
#
#######################################################################

data_MUBZAM
_symmetry_cell_setting           monoclinic
_symmetry_space_group_name_H-M   'P 21/c'
_symmetry_Int_Tables_number      14
_space_group_name_Hall           '-P 2ybc'
loop_
_symmetry_equiv_pos_site_id
_symmetry_equiv_pos_as_xyz
1 x,y,z
2 -x,1/2+y,1/2-z
3 -x,-y,-z
4 x,1/2-y,1/2+z
_cell_length_a                   9.3450(19)
_cell_length_b                   18.113(4)
_cell_length_c                   13.524(3)
_cell_angle_alpha                90
_cell_angle_beta                 108.10(3)
_cell_angle_gamma                90
_cell_volume                     2175.88
loop_
_atom_site_label
_atom_site_type_symbol
_atom_site_fract_x
_atom_site_fract_y
_atom_site_fract_z
Co1 Co 0.39689(6) 0.06583(3) 0.43652(4)
Co2 Co 0.42640(6) 0.06621(3) 0.67861(4)
N1 N 0.2086(4) 0.06855(19) 0.2965(3)
N2 N -0.4051(4) 0.0738(2) -0.1728(3)
O1 O 0.6341(4) 0.03647(17) 0.2875(2)
O2 O 0.5455(4) 0.11830(17) 0.3770(3)
O3 O 0.8592(5) 0.0861(2) 0.5002(3)
O4 O 1.0585(4) 0.1566(2) 0.5349(3)
O5 O 0.3693(3) 0.32245(15) -0.0238(2)
O6 O 0.4637(3) 0.32108(16) 0.1503(2)
O7 O 0.5331(3) 0.17505(16) 0.1519(2)
O8 O 0.2513(3) 0.04593(16) 0.5292(2)
H1 H 0.2130 -0.0042 0.5227
H2 H 0.1689 0.0809 0.5154
O9 O 0.5590(3) 0.04318(16) 0.5853(2)
H3 H 0.6405 0.0732 0.5955
O10 O 0.2460(4) 0.10827(18) 0.7285(3)
H4 H 0.2807 0.1226 0.7913
H5 H 0.2052 0.1445 0.6902
C1 C 0.6296(5) 0.0985(2) 0.3262(3)
C2 C 0.9367(5) 0.1352(3) 0.4755(4)
C3 C 0.7331(5) 0.1556(2) 0.3034(3)
C4 C 0.6809(5) 0.1913(2) 0.2073(3)
C5 C 0.7738(6) 0.2389(3) 0.1742(4)
H6 H 0.7391 0.2621 0.1098
C6 C 0.9178(6) 0.2509(3) 0.2386(4)
H7 H 0.9815 0.2814 0.2161
C7 C 0.9705(5) 0.2189(3) 0.3360(4)
H8 H 1.0675 0.2289 0.3790
C8 C 0.8766(5) 0.1712(2) 0.3698(3)
C9 C 0.4675(6) 0.2098(2) 0.0549(3)
H9 H 0.3755 0.1838 0.0183
H10 H 0.5358 0.2050 0.0140
C10 C 0.4303(4) 0.2918(2) 0.0612(3)
C11 C 0.0827(6) 0.0309(3) 0.2866(4)
H11 H 0.0786 0.0022 0.3426
C12 C -0.0420(6) 0.0315(3) 0.1994(4)
H12 H -0.1270 0.0042 0.1977
C13 C -0.0394(5) 0.0732(2) 0.1141(3)
C14 C 0.0902(6) 0.1125(3) 0.1242(4)
H13 H 0.0972 0.1419 0.0695
C15 C 0.2092(6) 0.1090(3) 0.2140(4)
H14 H 0.2950 0.1363 0.2177
C16 C -0.1685(5) 0.0742(2) 0.0165(3)
C17 C -0.2809(6) 0.0235(4) -0.0054(4)
H15 H -0.2814 -0.0121 0.0440
C18 C -0.3935(7) 0.0235(3) -0.0986(4)
H16 H -0.4659 -0.0136 -0.1109
C19 C -0.3003(7) 0.1244(3) -0.1497(4)
H17 H -0.3054 0.1611 -0.1988
C20 C -0.1826(7) 0.1273(3) -0.0580(4)
H18 H -0.1127 0.1655 -0.0467
Co1B Co 0.60311(6) -0.06583(3) 0.56348(4)
Co1C Co 0.39689(6) 0.43417(3) -0.06348(4)
Co2_2 Co -0.57360(6) 0.06621(3) -0.32139(4)
Co2B Co 0.57360(6) -0.06621(3) 0.32139(4)
Co2C Co 0.42640(6) 0.43379(3) 0.17861(4)
N2_2 N 0.5949(4) 0.0738(2) 0.8272(3)
O1B O 0.3659(4) -0.03647(17) 0.7125(2)
O5C O 0.3693(3) 0.17755(15) 0.4762(2)
O6C O 0.4637(3) 0.17892(16) 0.6503(2)
O9B O 0.4410(3) -0.04318(16) 0.4147(2)
O11 O 0.3709(6) 0.2330(2) 0.8136(3)
H19 H 0.3792 0.2409 0.7536
H20 H 0.4107 0.2685 0.8539
loop_
_geom_bond_atom_site_label_1
_geom_bond_atom_site_label_2
_geom_bond_site_symmetry_1
_geom_bond_site_symmetry_2
Co1 N1 1_555 1_555
Co2 O8 1_555 1_555
N1 C11 1_555 1_555
N2 C18 1_555 1_555
O1 C1 1_555 1_555
O2 Co1 1_555 1_555
O3 C2 1_555 1_555
O4 C2 1_555 1_555
O5 C10 1_555 1_555
O6 C10 1_555 1_555
O7 C4 1_555 1_555
O8 Co1 1_555 1_555
H1 O8 1_555 1_555
H2 O8 1_555 1_555
O9 Co1 1_555 1_555
H3 O9 1_555 1_555
O10 Co2 1_555 1_555
H4 O10 1_555 1_555
H5 O10 1_555 1_555
C1 O2 1_555 1_555
C2 C8 1_555 1_555
C3 C1 1_555 1_555
C4 C3 1_555 1_555
C5 C4 1_555 1_555
H6 C5 1_555 1_555
C6 C5 1_555 1_555
H7 C6 1_555 1_555
C7 C6 1_555 1_555
H8 C7 1_555 1_555
C8 C3 1_555 1_555
C9 O7 1_555 1_555
H9 C9 1_555 1_555
H10 C9 1_555 1_555
C10 C9 1_555 1_555
C11 H11 1_555 1_555
C12 C11 1_555 1_555
H12 C12 1_555 1_555
C13 C12 1_555 1_555
C14 C13 1_555 1_555
H13 C14 1_555 1_555
C15 N1 1_555 1_555
H14 C15 1_555 1_555
C16 C13 1_555 1_555
C17 C16 1_555 1_555
H15 C17 1_555 1_555
C18 C17 1_555 1_555
H16 C18 1_555 1_555
C19 N2 1_555 1_555
H17 C19 1_555 1_555
C20 C16 1_555 1_555
H18 C20 1_555 1_555
O11 H19 1_555 1_555
H20 O11 1_555 1_555
Co1B O9 1_555 1_555
Co1C O5 1_555 1_555
Co2_2 N2 1_555 1_555
Co2B O1 1_555 1_555
Co2C O6 1_555 1_555
N2_2 Co2 1_555 1_555
O1B Co2 1_555 1_555
O5C Co1 1_555 1_555
O6C Co2 1_555 1_555
O9B Co1 1_555 1_555
Co2 O9 1_555 1_555
C7 C8 1_555 1_555
C14 C15 1_555 1_555
C19 C20 1_555 1_555
Co1B O9B 1_555 1_555
Co2B O9B 1_555 1_555

#END
