
#######################################################################
#
#                 Cambridge Crystallographic Data Centre
#                                CCDC 
#
#######################################################################
#
# If this CIF has been generated from an entry in the Cambridge 
# Structural Database, then it will include bibliographic, chemical, 
# crystal, experimental, refinement or atomic coordinate data resulting 
# from the CCDC's data processing and validation procedures.
#
#######################################################################

data_MUBZEP
_symmetry_cell_setting           hexagonal
_symmetry_space_group_name_H-M   'P 61 2 2'
_symmetry_Int_Tables_number      178
_space_group_name_Hall           "P 61 2' (0,0,5)"
loop_
_symmetry_equiv_pos_site_id
_symmetry_equiv_pos_as_xyz
1 x,y,z
2 -y,x-y,1/3+z
3 -x+y,-x,2/3+z
4 -x,-y,1/2+z
5 y,-x+y,5/6+z
6 x-y,x,1/6+z
7 y,x,1/3-z
8 x-y,-y,-z
9 -x,-x+y,2/3-z
10 -y,-x,5/6-z
11 -x+y,y,1/2-z
12 x,x-y,1/6-z
_cell_length_a                   11.1360(6)
_cell_length_b                   11.1360(6)
_cell_length_c                   33.110(3)
_cell_angle_alpha                90
_cell_angle_beta                 90
_cell_angle_gamma                120
_cell_volume                     3555.89
loop_
_atom_site_label
_atom_site_type_symbol
_atom_site_fract_x
_atom_site_fract_y
_atom_site_fract_z
Zn1 Zn 0.73603(4) 0.86802(2) 0.0833
O1 O 0.76202(18) 0.84579(18) 0.02239(5)
O2 O 0.89644(18) 0.82448(18) -0.02384(5)
O3 O 0.89365(17) 0.81243(17) 0.08319(5)
H1 H 0.9568 0.8433 0.1013
N1 N 0.5928(2) 0.9386(2) 0.07376(7)
C1 C 0.8619(3) 0.8302(2) 0.01183(8)
C2 C 0.9540(3) 0.8194(3) 0.04470(8)
H2 H 1.0448 0.9043 0.0438
C3 C 0.9761(3) 0.6975(3) 0.03869(8)
C4 C 1.1078(3) 0.7159(3) 0.03588(9)
H3 H 1.1839 0.8052 0.0368
C5 C 1.1293(4) 0.6038(4) 0.03167(10)
H4 H 1.2189 0.6185 0.0295
C6 C 1.0181(4) 0.4716(4) 0.03078(10)
H5 H 1.0316 0.3960 0.0283
C7 C 0.8862(4) 0.4520(3) 0.03359(9)
H6 H 0.8105 0.3624 0.0328
C8 C 0.8639(3) 0.5636(3) 0.03754(8)
H7 H 0.7741 0.5486 0.0394
C9 C 0.6235(3) 1.0429(3) 0.04786(9)
H8 H 0.7018 1.0742 0.0317
C10 C 0.5445(3) 1.1057(3) 0.04412(10)
H9 H 0.5682 1.1757 0.0252
C11 C 0.4294(3) 1.0642(3) 0.06862(10)
C12 C 0.4001(3) 0.9599(3) 0.09618(9)
H10 H 0.3251 0.9299 0.1136
C13 C 0.4832(3) 0.9009(3) 0.09751(8)
H11 H 0.4613 0.8304 0.1161
C14 C 0.3364(3) 1.1263(3) 0.06523(12)
H12 H 0.2422 1.0517 0.0607
H13 H 0.3641 1.1857 0.0416
Zn1_2 Zn 0.73603(4) 1.86802(2) 0.0833
O1K O 0.76202(18) 0.91623(25) 0.14428(5)
O2K O 0.89644(18) 1.07196(25) 0.19051(5)
O3K O 0.89365(17) 1.08122(24) 0.08348(5)
H1K H 0.9568 1.1135 0.0654
N1K N 0.5928(2) 1.6542(3) 0.09291(7)
N1K_2 N 0.5928(2) 0.6542(3) 0.09291(7)
C1K C 0.8619(3) 1.0317(4) 0.15484(8)
C2K C 0.9540(3) 1.1346(4) 0.12197(8)
H2K H 1.0448 1.1405 0.1229
C3K C 0.9761(3) 1.2786(4) 0.12798(8)
C4K C 1.1078(3) 1.3919(4) 0.13079(9)
H3K H 1.1839 1.3787 0.1299
C5K C 1.1293(4) 1.5255(6) 0.13500(10)
H4K H 1.2189 1.6004 0.1372
C6K C 1.0181(4) 1.5465(6) 0.13589(10)
H5K H 1.0316 1.6356 0.1384
C7K C 0.8862(4) 1.4342(5) 0.13308(9)
H6K H 0.8105 1.4481 0.1339
C8K C 0.8639(3) 1.3003(4) 0.12913(8)
H7K H 0.7741 1.2255 0.1273
C9K C 0.6235(3) 1.5806(4) 0.11881(9)
H8K H 0.7018 1.6276 0.1350
C10K C 0.5445(3) 1.4388(4) 0.12255(10)
H9K H 0.5682 1.3925 0.1415
C11K C 0.4294(3) 1.3652(4) 0.09805(10)
C12K C 0.4001(3) 1.4402(4) 0.07049(9)
H10K H 0.3251 1.3952 0.0531
C13K C 0.4832(3) 1.5823(4) 0.06916(8)
H11K H 0.4613 1.6309 0.0506
C14K C 0.3364(3) 1.2101(4) 0.10144(12)
H12K H 0.2422 1.1905 0.1060
H13K H 0.3641 1.1784 0.1251
loop_
_geom_bond_atom_site_label_1
_geom_bond_atom_site_label_2
_geom_bond_site_symmetry_1
_geom_bond_site_symmetry_2
Zn1 O1 1_555 1_555
O1 C1 1_555 1_555
O2 C1 1_555 1_555
O3 Zn1 1_555 1_555
H1 O3 1_555 1_555
N1 Zn1 1_555 1_555
C1 C2 1_555 1_555
C2 O3 1_555 1_555
H2 C2 1_555 1_555
C3 C2 1_555 1_555
C4 C3 1_555 1_555
H3 C4 1_555 1_555
C5 C4 1_555 1_555
H4 C5 1_555 1_555
C6 C5 1_555 1_555
H5 C6 1_555 1_555
C7 C6 1_555 1_555
H6 C7 1_555 1_555
C8 C3 1_555 1_555
H7 C8 1_555 1_555
C9 N1 1_555 1_555
H8 C9 1_555 1_555
C10 C9 1_555 1_555
H9 C10 1_555 1_555
C11 C10 1_555 1_555
C12 C11 1_555 1_555
H10 C12 1_555 1_555
C13 N1 1_555 1_555
H11 C13 1_555 1_555
C14 C11 1_555 1_555
H12 C14 1_555 1_555
H13 C14 1_555 1_555
Zn1_2 N1K 1_555 1_555
O1K Zn1 1_555 1_555
O2K C1K 1_555 1_555
O3K Zn1 1_555 1_555
H1K O3K 1_555 1_555
N1K C9K 1_555 1_555
N1K_2 Zn1 1_555 1_555
C1K O1K 1_555 1_555
C2K O3K 1_555 1_555
H2K C2K 1_555 1_555
C3K C2K 1_555 1_555
C4K C3K 1_555 1_555
H3K C4K 1_555 1_555
C5K C4K 1_555 1_555
H4K C5K 1_555 1_555
C6K C5K 1_555 1_555
H5K C6K 1_555 1_555
C7K C6K 1_555 1_555
H6K C7K 1_555 1_555
C8K C3K 1_555 1_555
H7K C8K 1_555 1_555
C9K H8K 1_555 1_555
C10K C9K 1_555 1_555
H9K C10K 1_555 1_555
C11K C10K 1_555 1_555
C12K C11K 1_555 1_555
H10K C12K 1_555 1_555
C13K N1K 1_555 1_555
H11K C13K 1_555 1_555
C14K C14 1_555 1_555
H12K C14K 1_555 1_555
H13K C14K 1_555 1_555
C7 C8 1_555 1_555
C12 C13 1_555 1_555
C1K C2K 1_555 1_555
C7K C8K 1_555 1_555
C11K C14K 1_555 1_555
C12K C13K 1_555 1_555

#END
