
#######################################################################
#
#                 Cambridge Crystallographic Data Centre
#                                CCDC 
#
#######################################################################
#
# If this CIF has been generated from an entry in the Cambridge 
# Structural Database, then it will include bibliographic, chemical, 
# crystal, experimental, refinement or atomic coordinate data resulting 
# from the CCDC's data processing and validation procedures.
#
#######################################################################

data_MUBZAL
_symmetry_cell_setting           monoclinic
_symmetry_space_group_name_H-M   'C 2/c'
_symmetry_Int_Tables_number      15
_space_group_name_Hall           '-C 2yn'
loop_
_symmetry_equiv_pos_site_id
_symmetry_equiv_pos_as_xyz
1 x,y,z
2 -x,y,1/2-z
3 1/2+x,1/2+y,z
4 1/2-x,1/2+y,1/2-z
5 -x,-y,-z
6 x,-y,1/2+z
7 1/2-x,1/2-y,-z
8 1/2+x,1/2-y,1/2+z
_cell_length_a                   16.097(3)
_cell_length_b                   10.163(2)
_cell_length_c                   12.920(3)
_cell_angle_alpha                90
_cell_angle_beta                 123.10(3)
_cell_angle_gamma                90
_cell_volume                     1770.63
loop_
_atom_site_label
_atom_site_type_symbol
_atom_site_fract_x
_atom_site_fract_y
_atom_site_fract_z
Cu1 Cu -0.2500 -0.7500 0.5000
N1 N -0.6920(2) -0.5686(3) 0.0637(3)
N2 N 0.1117(3) -0.6949(5) 1.0129(5)
N3 N -0.0582(3) -0.6285(6) 0.8894(4)
N4 N -0.1782(3) -0.6822(4) 0.6764(4)
C1 C -0.5000 -0.1347(7) 0.2500
H1 H -0.4883 -0.0760 0.2001
C2 C 0.0327(3) -0.6659(4) 0.9500(4)
C3 C -0.1190(3) -0.6618(4) 0.7776(4)
C4 C -0.6701(4) -0.3784(5) 0.1826(5)
H2 H -0.6797 -0.3376 0.2398
C5 C -0.7029(3) -0.5037(5) 0.1450(4)
H3 H -0.7347 -0.5461 0.1778
C6 C -0.6455(3) -0.5047(5) 0.0197(4)
H4 H -0.6361 -0.5480 -0.0365
C7 C -0.6230(3) -0.3124(5) 0.1364(5)
C8 C -0.5932(4) -0.1702(5) 0.1660(6)
H5 H -0.6116 -0.1277 0.0891
H6 H -0.6345 -0.1319 0.1915
C9 C -0.6109(4) -0.3790(5) 0.0527(5)
H7 H -0.5793 -0.3385 0.0187
Cu1A Cu -0.7500 -0.7500 0.0000
Cu1A_2 Cu 0.2500 -0.7500 1.0000
N1A N -0.3080(2) -0.5686(3) 0.4363(3)
N1G N -0.1920(2) -0.9314(3) 0.5637(3)
N2A N -0.1117(3) -0.6949(5) 0.4871(5)
N2G N -0.3883(3) -0.8051(5) 0.5129(5)
N3A N 0.0582(3) -0.6285(6) 0.6106(4)
N4A N 0.1782(3) -0.6822(4) 0.8236(4)
N4F N -0.3218(3) -0.8178(4) 0.3236(4)
H1A H -0.5117 -0.0760 0.2999
C2A C -0.0327(3) -0.6659(4) 0.5500(4)
C3A C 0.1190(3) -0.6618(4) 0.7224(4)
C4A C -0.3299(4) -0.3784(5) 0.3174(5)
H2A H -0.3203 -0.3376 0.2602
C5A C -0.2971(3) -0.5037(5) 0.3550(4)
H3A H -0.2653 -0.5461 0.3222
C6A C -0.3545(3) -0.5047(5) 0.4803(4)
H4A H -0.3639 -0.5480 0.5365
C7A C -0.3770(3) -0.3124(5) 0.3636(5)
C8A C -0.4068(4) -0.1702(5) 0.3340(6)
H5A H -0.3884 -0.1277 0.4109
H6A H -0.3655 -0.1319 0.3085
C9A C -0.3891(4) -0.3790(5) 0.4473(5)
H7A H -0.4207 -0.3385 0.4813
loop_
_geom_bond_atom_site_label_1
_geom_bond_atom_site_label_2
_geom_bond_site_symmetry_1
_geom_bond_site_symmetry_2
Cu1 N4 1_555 1_555
N1 C5 1_555 1_555
N2 C2 1_555 1_555
N3 C2 1_555 1_555
N4 C3 1_555 1_555
C1 H1 1_555 1_555
C3 N3 1_555 1_555
C4 H2 1_555 1_555
C5 C4 1_555 1_555
H3 C5 1_555 1_555
C6 N1 1_555 1_555
H4 C6 1_555 1_555
C7 C4 1_555 1_555
C8 C1 1_555 1_555
H5 C8 1_555 1_555
H6 C8 1_555 1_555
C9 C6 1_555 1_555
H7 C9 1_555 1_555
Cu1A N1 1_555 1_555
Cu1A_2 N2 1_555 1_555
N1A Cu1 1_555 1_555
N1G Cu1 1_555 1_555
N2A Cu1 1_555 1_555
N2G Cu1 1_555 1_555
N3A C2A 1_555 1_555
N4A Cu1A_2 1_555 1_555
N4F Cu1 1_555 1_555
H1A C1 1_555 1_555
C2A N2A 1_555 1_555
C3A N3A 1_555 1_555
C4A H2A 1_555 1_555
C5A N1A 1_555 1_555
H3A C5A 1_555 1_555
C6A N1A 1_555 1_555
H4A C6A 1_555 1_555
C7A C4A 1_555 1_555
C8A C1 1_555 1_555
H5A C8A 1_555 1_555
H6A C8A 1_555 1_555
C9A C6A 1_555 1_555
H7A C9A 1_555 1_555
C7 C8 1_555 1_555
C7 C9 1_555 1_555
N4A C3A 1_555 1_555
C4A C5A 1_555 1_555
C7A C8A 1_555 1_555
C7A C9A 1_555 1_555

#END
