
#######################################################################
#
#                 Cambridge Crystallographic Data Centre
#                                CCDC 
#
#######################################################################
#
# If this CIF has been generated from an entry in the Cambridge 
# Structural Database, then it will include bibliographic, chemical, 
# crystal, experimental, refinement or atomic coordinate data resulting 
# from the CCDC's data processing and validation procedures.
#
#######################################################################

data_MUCFEX
_symmetry_cell_setting           monoclinic
_symmetry_space_group_name_H-M   'P 21/c'
_symmetry_Int_Tables_number      14
_space_group_name_Hall           '-P 2ybc'
loop_
_symmetry_equiv_pos_site_id
_symmetry_equiv_pos_as_xyz
1 x,y,z
2 -x,1/2+y,1/2-z
3 -x,-y,-z
4 x,1/2-y,1/2+z
_cell_length_a                   7.1881(3)
_cell_length_b                   16.2767(6)
_cell_length_c                   8.3375(3)
_cell_angle_alpha                90
_cell_angle_beta                 102.981(2)
_cell_angle_gamma                90
_cell_volume                     950.547
loop_
_atom_site_label
_atom_site_type_symbol
_atom_site_fract_x
_atom_site_fract_y
_atom_site_fract_z
Cu1 Cu 0.0000 0.5000 0.0000
S1 S 0.13350(2) 0.59191(2) 0.30254(2)
O1 O 0.00084(8) 0.52378(4) 0.22993(7)
O2 O 0.18695(9) 0.63931(4) 0.17304(8)
O3 O 0.05756(9) 0.63665(4) 0.42283(8)
O4 O 0.23765(8) 0.44108(4) 0.05942(7)
N1 N 0.45209(9) 0.35146(4) 0.20482(8)
C1 C 0.34095(10) 0.54054(4) 0.41206(8)
C2 C 0.32292(11) 0.48789(5) 0.53971(9)
H1 H 0.203(2) 0.4800(9) 0.5641(18)
C3 C 0.51616(10) 0.55265(5) 0.37116(9)
H2 H 0.527(2) 0.5872(8) 0.2829(17)
C4 C 0.27713(10) 0.38121(5) 0.15782(9)
C5 C 0.14048(11) 0.33244(5) 0.23231(10)
H3 H 0.066(2) 0.3708(9) 0.2820(17)
H4 H 0.058(2) 0.3040(10) 0.148(2)
C6 C 0.26834(14) 0.27374(6) 0.35294(12)
H5 H 0.276(2) 0.2914(11) 0.470(2)
H6 H 0.225(2) 0.2186(11) 0.342(2)
C7 C 0.46694(13) 0.28072(5) 0.31462(11)
H7 H 0.569(2) 0.2909(9) 0.4081(18)
H8 H 0.505(2) 0.2339(10) 0.2590(17)
C8 C 0.61553(12) 0.37972(6) 0.14465(11)
H9 H 0.7248 0.3873 0.2377
H10 H 0.5845 0.4321 0.0868
H11 H 0.6476 0.3388 0.0689
S1B S 0.86650(2) 0.40809(2) 0.69746(2)
O1B O 0.99916(8) 0.47622(4) 0.77007(7)
O2B O 0.81305(9) 0.36069(4) 0.82696(8)
O3B O 0.94244(9) 0.36335(4) 0.57717(8)
C1B C 0.65905(10) 0.45946(4) 0.58794(8)
C2B C 0.67708(11) 0.51211(5) 0.46029(9)
H1B H 0.797(2) 0.5200(9) 0.4359(18)
C3B C 0.48384(10) 0.44735(5) 0.62884(9)
H2B H 0.473(2) 0.4128(8) 0.7171(17)
O4B O -0.23765(8) 0.55892(4) -0.05942(7)
N1B N -0.45209(9) 0.64854(4) -0.20482(8)
C4B C -0.27713(10) 0.61879(5) -0.15782(9)
C5B C -0.14048(11) 0.66756(5) -0.23231(10)
H3B H -0.066(2) 0.6292(9) -0.2820(17)
H4B H -0.058(2) 0.6960(10) -0.148(2)
C6B C -0.26834(14) 0.72626(6) -0.35294(12)
H5B H -0.276(2) 0.7086(11) -0.470(2)
H6B H -0.225(2) 0.7814(11) -0.342(2)
C7B C -0.46694(13) 0.71928(5) -0.31462(11)
H7B H -0.569(2) 0.7091(9) -0.4081(18)
H8B H -0.505(2) 0.7661(10) -0.2590(17)
C8B C -0.61553(12) 0.62028(6) -0.14465(11)
H9B H -0.7248 0.6127 -0.2377
H10B H -0.5845 0.5679 -0.0868
H11B H -0.6476 0.6612 -0.0689
Cu1_2 Cu 1.0000 0.5000 1.0000
O1B_2 O -0.00084(8) 0.47622(4) -0.22993(7)
loop_
_geom_bond_atom_site_label_1
_geom_bond_atom_site_label_2
_geom_bond_site_symmetry_1
_geom_bond_site_symmetry_2
Cu1 O1 1_555 1_555
S1 O1 1_555 1_555
O2 S1 1_555 1_555
O3 S1 1_555 1_555
O4 Cu1 1_555 1_555
N1 C4 1_555 1_555
C1 S1 1_555 1_555
C2 C1 1_555 1_555
H1 C2 1_555 1_555
C3 C1 1_555 1_555
H2 C3 1_555 1_555
C4 O4 1_555 1_555
C5 C4 1_555 1_555
H3 C5 1_555 1_555
H4 C5 1_555 1_555
C6 C5 1_555 1_555
H5 C6 1_555 1_555
H6 C6 1_555 1_555
C7 N1 1_555 1_555
H7 C7 1_555 1_555
H8 C7 1_555 1_555
C8 N1 1_555 1_555
H9 C8 1_555 1_555
H10 C8 1_555 1_555
H11 C8 1_555 1_555
S1B O1B 1_555 1_555
O1B Cu1_2 1_555 1_555
O2B S1B 1_555 1_555
O3B S1B 1_555 1_555
C1B S1B 1_555 1_555
C2B C3 1_555 1_555
H1B C2B 1_555 1_555
C3B C2 1_555 1_555
H2B C3B 1_555 1_555
O4B Cu1 1_555 1_555
N1B C4B 1_555 1_555
C4B O4B 1_555 1_555
C5B C4B 1_555 1_555
H3B C5B 1_555 1_555
H4B C5B 1_555 1_555
C6B C5B 1_555 1_555
H5B C6B 1_555 1_555
H6B C6B 1_555 1_555
C7B N1B 1_555 1_555
H7B C7B 1_555 1_555
H8B C7B 1_555 1_555
C8B N1B 1_555 1_555
H9B C8B 1_555 1_555
H10B C8B 1_555 1_555
H11B C8B 1_555 1_555
O1B_2 Cu1 1_555 1_555
C6 C7 1_555 1_555
C1B C2B 1_555 1_555
C1B C3B 1_555 1_555
C6B C7B 1_555 1_555

#END
