
#######################################################################
#
#                 Cambridge Crystallographic Data Centre
#                                CCDC 
#
#######################################################################
#
# If this CIF has been generated from an entry in the Cambridge 
# Structural Database, then it will include bibliographic, chemical, 
# crystal, experimental, refinement or atomic coordinate data resulting 
# from the CCDC's data processing and validation procedures.
#
#######################################################################

data_MUCKUQ
_symmetry_cell_setting           monoclinic
_symmetry_space_group_name_H-M   'P 21/n'
_symmetry_Int_Tables_number      14
_space_group_name_Hall           '-P 2yn'
loop_
_symmetry_equiv_pos_site_id
_symmetry_equiv_pos_as_xyz
1 x,y,z
2 1/2-x,1/2+y,1/2-z
3 -x,-y,-z
4 1/2+x,1/2-y,1/2+z
_cell_length_a                   20.394(3)
_cell_length_b                   8.513(1)
_cell_length_c                   20.708(3)
_cell_angle_alpha                90
_cell_angle_beta                 107.70(1)
_cell_angle_gamma                90
_cell_volume                     3425.01
loop_
_atom_site_label
_atom_site_type_symbol
_atom_site_fract_x
_atom_site_fract_y
_atom_site_fract_z
Lu1 Lu 0.4319(1) 0.3093(1) 0.4640(1)
O1 O 0.4869(4) -0.0272(8) 0.7072(3)
O2 O 0.4404(3) 0.0795(7) 0.5345(3)
O3 O 0.5071(3) -0.1125(7) 0.5915(3)
O4 O 0.6170(3) 0.5187(9) 0.3212(3)
O5 O 0.4719(3) 0.4380(7) 0.3743(3)
O6 O 0.5660(3) 0.5821(7) 0.4210(3)
O7 O 0.2873(3) 0.8263(8) 0.3973(3)
O8 O 0.3479(3) 0.5356(6) 0.4184(3)
O9 O 0.4477(3) 0.6381(8) 0.4767(3)
N1 N 0.3359(4) 0.1919(8) 0.3535(3)
N2 N 0.2989(4) 0.2659(8) 0.4662(4)
C1 C 0.4281(6) 0.1208(16) 0.7725(5)
C2 C 0.4197(9) 0.1490(20) 0.8347(7)
C3 C 0.4580(8) 0.0620(20) 0.8924(6)
C4 C 0.5037(7) -0.0391(18) 0.8848(5)
C5 C 0.5139(6) -0.0672(14) 0.8237(5)
C6 C 0.4739(5) 0.0103(12) 0.7666(4)
C7 C 0.4497(6) 0.0556(12) 0.6480(4)
C8 C 0.4693(5) -0.0012(10) 0.5871(4)
C9 C 0.6156(7) 0.3930(15) 0.2162(6)
C10 C 0.6499(9) 0.3706(18) 0.1668(7)
C11 C 0.7078(9) 0.4418(18) 0.1716(8)
C12 C 0.7383(8) 0.5349(18) 0.2257(8)
C13 C 0.7047(6) 0.5576(17) 0.2741(6)
C14 C 0.6447(6) 0.4855(13) 0.2694(5)
C15 C 0.5524(5) 0.4486(12) 0.3170(4)
C16 C 0.5292(5) 0.4957(9) 0.3765(4)
C17 C 0.1841(9) 0.8319(18) 0.4245(11)
C18 C 0.1466(15) 0.8210(30) 0.4680(20)
C19 C 0.1900(20) 0.7790(30) 0.5415(19)
C20 C 0.2563(17) 0.7630(20) 0.5604(12)
C21 C 0.2927(9) 0.7828(15) 0.5140(8)
C22 C 0.2575(6) 0.8109(12) 0.4460(7)
C23 C 0.3581(5) 0.8157(11) 0.4180(5)
C24 C 0.3844(5) 0.6497(11) 0.4384(4)
C25 C 0.3534(6) 0.1487(12) 0.3005(5)
C26 C 0.3057(8) 0.0949(15) 0.2400(5)
C27 C 0.2384(9) 0.0911(15) 0.2358(5)
C28 C 0.2168(6) 0.1406(13) 0.2879(5)
C29 C 0.1497(9) 0.1479(19) 0.2847(7)
C30 C 0.1273(7) 0.1950(20) 0.3354(10)
C31 C 0.1783(6) 0.2420(15) 0.4040(6)
C32 C 0.1619(6) 0.2845(18) 0.4593(8)
C33 C 0.2126(6) 0.3231(16) 0.5195(8)
C34 C 0.2806(5) 0.3108(13) 0.5194(5)
C35 C 0.2487(5) 0.2312(10) 0.4078(5)
C36 C 0.2710(5) 0.1862(10) 0.3496(4)
O3B O 0.4929(3) 0.1125(7) 0.4085(3)
O6B O 0.4340(3) 0.4179(7) 0.5790(3)
O9B O 0.5523(3) 0.3619(8) 0.5233(3)
Lu1B Lu 0.5681(1) -0.3093(1) 0.5360(1)
Lu1B_2 Lu 0.5681(1) 0.6907(1) 0.5360(1)
loop_
_geom_bond_atom_site_label_1
_geom_bond_atom_site_label_2
_geom_bond_site_symmetry_1
_geom_bond_site_symmetry_2
Lu1 O2 1_555 1_555
O1 C6 1_555 1_555
O2 C8 1_555 1_555
O3 C8 1_555 1_555
O4 C14 1_555 1_555
O5 Lu1 1_555 1_555
O6 C16 1_555 1_555
O7 C22 1_555 1_555
O8 Lu1 1_555 1_555
O9 Lu1 1_555 1_555
N1 Lu1 1_555 1_555
N2 Lu1 1_555 1_555
C1 C2 1_555 1_555
C2 C3 1_555 1_555
C3 C4 1_555 1_555
C4 C5 1_555 1_555
C5 C6 1_555 1_555
C6 C1 1_555 1_555
C7 O1 1_555 1_555
C8 C7 1_555 1_555
C9 C10 1_555 1_555
C10 C11 1_555 1_555
C11 C12 1_555 1_555
C12 C13 1_555 1_555
C13 C14 1_555 1_555
C14 C9 1_555 1_555
C15 O4 1_555 1_555
C16 O5 1_555 1_555
C17 C18 1_555 1_555
C18 C19 1_555 1_555
C19 C20 1_555 1_555
C20 C21 1_555 1_555
C21 C22 1_555 1_555
C22 C17 1_555 1_555
C23 O7 1_555 1_555
C24 O8 1_555 1_555
C25 N1 1_555 1_555
C26 C25 1_555 1_555
C27 C26 1_555 1_555
C28 C27 1_555 1_555
C29 C28 1_555 1_555
C30 C29 1_555 1_555
C31 C30 1_555 1_555
C32 C31 1_555 1_555
C33 C32 1_555 1_555
C34 N2 1_555 1_555
C35 N2 1_555 1_555
C36 N1 1_555 1_555
O3B Lu1 1_555 1_555
O6B Lu1 1_555 1_555
O9B Lu1 1_555 1_555
Lu1B O3 1_555 1_555
Lu1B_2 O6 1_555 1_555
O9 C24 1_555 1_555
O9 Lu1B_2 1_555 1_555
C15 C16 1_555 1_555
C23 C24 1_555 1_555
C28 C36 1_555 1_555
C31 C35 1_555 1_555
C33 C34 1_555 1_555
C35 C36 1_555 1_555
O9B Lu1B_2 1_555 1_555

#END
