
#######################################################################
#
#                 Cambridge Crystallographic Data Centre
#                                CCDC 
#
#######################################################################
#
# If this CIF has been generated from an entry in the Cambridge 
# Structural Database, then it will include bibliographic, chemical, 
# crystal, experimental, refinement or atomic coordinate data resulting 
# from the CCDC's data processing and validation procedures.
#
#######################################################################

data_MUCLIG
_symmetry_cell_setting           tetragonal
_symmetry_space_group_name_H-M   'I -4'
_symmetry_Int_Tables_number      82
_space_group_name_Hall           'I -4'
loop_
_symmetry_equiv_pos_site_id
_symmetry_equiv_pos_as_xyz
1 x,y,z
2 -x,-y,z
3 y,-x,-z
4 -y,x,-z
5 1/2+x,1/2+y,1/2+z
6 1/2-x,1/2-y,1/2+z
7 1/2+y,1/2-x,1/2-z
8 1/2-y,1/2+x,1/2-z
_cell_length_a                   7.6593(2)
_cell_length_b                   7.6593(2)
_cell_length_c                   16.4028(4)
_cell_angle_alpha                90
_cell_angle_beta                 90
_cell_angle_gamma                90
_cell_volume                     962.268
loop_
_atom_site_label
_atom_site_type_symbol
_atom_site_fract_x
_atom_site_fract_y
_atom_site_fract_z
Cu1 Cu 0.5000 0.0000 0.2500
N1 N 0.3232(2) 0.0864(2) 0.16485(10)
B1 B 0.0000 0.0000 0.0000
N2 N 0.14881(19) 0.06656(19) 0.05583(9)
C1 C 0.2132(2) -0.0148(2) 0.12378(10)
C2 C 0.3304(3) 0.2403(3) 0.12176(12)
H1 H 0.3975 0.3368 0.1360
C3 C 0.2246(3) 0.2305(2) 0.05515(12)
H2 H 0.2068 0.3176 0.0165
C4 C 0.1663(3) -0.1949(3) 0.15177(13)
H3 H 0.2285 -0.2213 0.2011
H4 H 0.1975 -0.2779 0.1104
H5 H 0.0430 -0.2010 0.1618
Cu1_2 Cu -0.5000 0.0000 0.2500
Cu1B Cu 0.0000 -0.5000 -0.2500
Cu1B_2 Cu 0.0000 0.5000 -0.2500
N1A N -0.3232(2) -0.0864(2) 0.16485(10)
N1B N 0.0864(2) -0.3232(2) -0.16485(10)
N1C N -0.0864(2) 0.3232(2) -0.16485(10)
N1A_2 N 0.6768(2) -0.0864(2) 0.16485(10)
N1F N 0.5864(2) 0.1768(2) 0.33515(10)
N1G N 0.4136(2) -0.1768(2) 0.33515(10)
N2A N -0.14881(19) -0.06656(19) 0.05583(9)
N2B N 0.06656(19) -0.14881(19) -0.05583(9)
N2C N -0.06656(19) 0.14881(19) -0.05583(9)
C1A C -0.2132(2) 0.0148(2) 0.12378(10)
C1B C -0.0148(2) -0.2132(2) -0.12378(10)
C1C C 0.0148(2) 0.2132(2) -0.12378(10)
C2A C -0.3304(3) -0.2403(3) 0.12176(12)
C2B C 0.2403(3) -0.3304(3) -0.12176(12)
C2C C -0.2403(3) 0.3304(3) -0.12176(12)
H1A H -0.3975 -0.3368 0.1360
H1B H 0.3368 -0.3975 -0.1360
H1C H -0.3368 0.3975 -0.1360
C3A C -0.2246(3) -0.2305(2) 0.05515(12)
C3B C 0.2305(2) -0.2246(3) -0.05515(12)
C3C C -0.2305(2) 0.2246(3) -0.05515(12)
H2A H -0.2068 -0.3176 0.0165
H2B H 0.3176 -0.2068 -0.0165
H2C H -0.3176 0.2068 -0.0165
C4A C -0.1663(3) 0.1949(3) 0.15177(13)
C4B C -0.1949(3) -0.1663(3) -0.15177(13)
C4C C 0.1949(3) 0.1663(3) -0.15177(13)
H3A H -0.2285 0.2213 0.2011
H3B H -0.2213 -0.2285 -0.2011
H3C H 0.2213 0.2285 -0.2011
H4A H -0.1975 0.2779 0.1104
H4B H -0.2779 -0.1975 -0.1104
H4C H 0.2779 0.1975 -0.1104
H5A H -0.0430 0.2010 0.1618
H5B H -0.2010 -0.0430 -0.1618
H5C H 0.2010 0.0430 -0.1618
loop_
_geom_bond_atom_site_label_1
_geom_bond_atom_site_label_2
_geom_bond_site_symmetry_1
_geom_bond_site_symmetry_2
Cu1 N1 1_555 1_555
N1 C1 1_555 1_555
B1 N2 1_555 1_555
N2 C1 1_555 1_555
C1 C4 1_555 1_555
C2 N1 1_555 1_555
H1 C2 1_555 1_555
C3 N2 1_555 1_555
H2 C3 1_555 1_555
C4 H3 1_555 1_555
H4 C4 1_555 1_555
H5 C4 1_555 1_555
Cu1_2 N1A 1_555 1_555
Cu1B N1B 1_555 1_555
Cu1B_2 N1C 1_555 1_555
N1A C1A 1_555 1_555
N1B C1B 1_555 1_555
N1C C1C 1_555 1_555
N1A_2 Cu1 1_555 1_555
N1F Cu1 1_555 1_555
N1G Cu1 1_555 1_555
N2A B1 1_555 1_555
N2B B1 1_555 1_555
N2C B1 1_555 1_555
C1A N2A 1_555 1_555
C1B N2B 1_555 1_555
C1C N2C 1_555 1_555
C2A N1A 1_555 1_555
C2B N1B 1_555 1_555
C2C N1C 1_555 1_555
H1A C2A 1_555 1_555
H1B C2B 1_555 1_555
H1C C2C 1_555 1_555
C3A N2A 1_555 1_555
C3B N2B 1_555 1_555
C3C N2C 1_555 1_555
H2A C3A 1_555 1_555
H2B C3B 1_555 1_555
H2C C3C 1_555 1_555
C4A C1A 1_555 1_555
C4B C1B 1_555 1_555
C4C C1C 1_555 1_555
H3A C4A 1_555 1_555
H3B C4B 1_555 1_555
H3C C4C 1_555 1_555
H4A C4A 1_555 1_555
H4B C4B 1_555 1_555
H4C C4C 1_555 1_555
H5A C4A 1_555 1_555
H5B C4B 1_555 1_555
H5C C4C 1_555 1_555
C2 C3 1_555 1_555
C2A C3A 1_555 1_555
C2B C3B 1_555 1_555
C2C C3C 1_555 1_555

#END
