
#######################################################################
#
#                 Cambridge Crystallographic Data Centre
#                                CCDC 
#
#######################################################################
#
# If this CIF has been generated from an entry in the Cambridge 
# Structural Database, then it will include bibliographic, chemical, 
# crystal, experimental, refinement or atomic coordinate data resulting 
# from the CCDC's data processing and validation procedures.
#
#######################################################################

data_MUCMON
_symmetry_cell_setting           monoclinic
_symmetry_space_group_name_H-M   'P 21/n'
_symmetry_Int_Tables_number      14
_space_group_name_Hall           '-P 2yn'
loop_
_symmetry_equiv_pos_site_id
_symmetry_equiv_pos_as_xyz
1 x,y,z
2 1/2-x,1/2+y,1/2-z
3 -x,-y,-z
4 1/2+x,1/2-y,1/2+z
_cell_length_a                   14.2056(9)
_cell_length_b                   12.3352(8)
_cell_length_c                   17.8585(11)
_cell_angle_alpha                90
_cell_angle_beta                 106.890(7)
_cell_angle_gamma                90
_cell_volume                     2994.34
loop_
_atom_site_label
_atom_site_type_symbol
_atom_site_fract_x
_atom_site_fract_y
_atom_site_fract_z
Zn1 Zn 0.75767(3) 1.16937(3) 1.02478(2)
Cl1 Cl 0.73141(9) 1.34337(9) 1.03981(7)
Cl2 Cl 0.79100(5) 1.08057(8) 1.13902(4)
N1 N 0.64058(18) 1.0954(2) 0.95038(14)
N2 N 0.52427(18) 0.9717(2) 0.90615(14)
N3 N 0.55518(18) 0.5928(2) 0.60822(14)
N4 N 0.63341(18) 0.6452(2) 0.52356(14)
C1 C 0.5701(2) 1.1369(3) 0.88439(17)
C2 C 0.5651(3) 1.2371(3) 0.8474(2)
H1 H 0.6133 1.2897 0.8652
C3 C 0.4846(3) 1.2541(4) 0.7828(2)
H2 H 0.4795 1.3193 0.7558
C4 C 0.4108(3) 1.1763(4) 0.7570(2)
H3 H 0.3573 1.1919 0.7141
C5 C 0.4149(2) 1.0783(3) 0.79291(19)
H4 H 0.3655 1.0268 0.7758
C6 C 0.4971(2) 1.0592(3) 0.85666(17)
C7 C 0.6096(2) 0.9970(3) 0.96042(17)
H5 H 0.6428 0.9504 1.0003
C8 C 0.4718(2) 0.8692(3) 0.89978(19)
H6 H 0.4019 0.8838 0.8877
H7 H 0.4922 0.8325 0.9500
C9 C 0.4893(2) 0.7943(3) 0.83763(18)
C10 C 0.4172(3) 0.7225(4) 0.8015(2)
H8 H 0.3565 0.7258 0.8114
C11 C 0.4328(3) 0.6447(4) 0.7501(2)
H9 H 0.3829 0.5958 0.7271
C12 C 0.5207(2) 0.6389(3) 0.73280(18)
C13 C 0.5913(2) 0.7156(3) 0.7667(2)
H10 H 0.6510 0.7154 0.7550
C14 C 0.5745(2) 0.7923(3) 0.81759(19)
H11 H 0.6227 0.8438 0.8387
C15 C 0.5396(2) 0.5507(3) 0.67985(17)
H12 H 0.5971 0.5096 0.7082
H13 H 0.4839 0.5015 0.6663
C16 C 0.4845(2) 0.6369(3) 0.54474(18)
C17 C 0.3828(2) 0.6504(3) 0.5295(2)
H14 H 0.3501 0.6291 0.5652
C18 C 0.3344(3) 0.6965(4) 0.4595(2)
H15 H 0.2667 0.7065 0.4471
C19 C 0.3836(3) 0.7293(4) 0.4055(2)
H16 H 0.3481 0.7606 0.3584
C20 C 0.4835(2) 0.7157(3) 0.4215(2)
H17 H 0.5165 0.7372 0.3860
C21 C 0.5330(2) 0.6690(3) 0.49201(18)
C22 C 0.6417(2) 0.6002(3) 0.59189(17)
H18 H 0.7011 0.5761 0.6254
Zn1A Zn 0.74233(3) 0.66937(3) 0.47522(2)
N4A N 0.86659(18) 1.1452(2) 0.97644(14)
O1 O 0.7135(2) 1.0411(3) 0.74892(17)
N5 N 0.5962(3) 0.9651(3) 0.65025(19)
C23 C 0.6283(3) 1.0252(3) 0.7115(2)
H19 H 0.5808 1.0604 0.7291
C24 C 0.4926(4) 0.9487(6) 0.6131(4)
H20 H 0.4553 0.9924 0.6386
H21 H 0.4767 0.8736 0.6169
H22 H 0.4770 0.9690 0.5590
C25 C 0.6659(5) 0.9123(6) 0.6189(4)
H23 H 0.6736 0.9532 0.5753
H24 H 0.6429 0.8408 0.6018
H25 H 0.7281 0.9075 0.6586
O2 O 0.6603(4) 0.7846(4) 0.0503(3)
C26 C 0.6835(4) 0.6561(4) 0.0482(3)
C27 C 0.7172(7) 0.6116(9) 0.1422(6)
C28? C 0.6322(5) 0.7698(6) 0.0351(4)
O3? O 0.6351(6) 0.6250(8) 0.0947(5)
loop_
_geom_bond_atom_site_label_1
_geom_bond_atom_site_label_2
_geom_bond_site_symmetry_1
_geom_bond_site_symmetry_2
Zn1 Cl1 1_555 1_555
Cl2 Zn1 1_555 1_555
O1 C23 1_555 1_555
O2 C26 1_555 1_555
N1 Zn1 1_555 1_555
N2 C6 1_555 1_555
N3 C15 1_555 1_555
N4 C21 1_555 1_555
N5 C23 1_555 1_555
C1 N1 1_555 1_555
C2 C1 1_555 1_555
H1 C2 1_555 1_555
C3 C2 1_555 1_555
H2 C3 1_555 1_555
C4 C3 1_555 1_555
H3 C4 1_555 1_555
C5 C4 1_555 1_555
H4 C5 1_555 1_555
C6 C1 1_555 1_555
C7 N1 1_555 1_555
H5 C7 1_555 1_555
C8 N2 1_555 1_555
H6 C8 1_555 1_555
H7 C8 1_555 1_555
C9 C8 1_555 1_555
C10 C9 1_555 1_555
H8 C10 1_555 1_555
C11 C10 1_555 1_555
H9 C11 1_555 1_555
C12 C11 1_555 1_555
C13 C12 1_555 1_555
H10 C13 1_555 1_555
C14 C9 1_555 1_555
H11 C14 1_555 1_555
C15 C12 1_555 1_555
H12 C15 1_555 1_555
H13 C15 1_555 1_555
C16 N3 1_555 1_555
C17 C16 1_555 1_555
H14 C17 1_555 1_555
C18 C17 1_555 1_555
H15 C18 1_555 1_555
C19 C18 1_555 1_555
H16 C19 1_555 1_555
C20 C19 1_555 1_555
H17 C20 1_555 1_555
C21 C16 1_555 1_555
C22 N3 1_555 1_555
H18 C22 1_555 1_555
C23 H19 1_555 1_555
C24 N5 1_555 1_555
H20 C24 1_555 1_555
H21 C24 1_555 1_555
H22 C24 1_555 1_555
C25 N5 1_555 1_555
H23 C25 1_555 1_555
H24 C25 1_555 1_555
H25 C25 1_555 1_555
C26 C27 1_555 1_555
Zn1A N4 1_555 1_555
N4A Zn1 1_555 1_555
N2 C7 1_555 1_555
N4 C22 1_555 1_555
C5 C6 1_555 1_555
C13 C14 1_555 1_555
C20 C21 1_555 1_555

#END
