
#######################################################################
#
#                 Cambridge Crystallographic Data Centre
#                                CCDC 
#
#######################################################################
#
# If this CIF has been generated from an entry in the Cambridge 
# Structural Database, then it will include bibliographic, chemical, 
# crystal, experimental, refinement or atomic coordinate data resulting 
# from the CCDC's data processing and validation procedures.
#
#######################################################################

data_MUCNOO
_symmetry_cell_setting           triclinic
_symmetry_space_group_name_H-M   'P -1'
_symmetry_Int_Tables_number      2
_space_group_name_Hall           '-P 1'
loop_
_symmetry_equiv_pos_site_id
_symmetry_equiv_pos_as_xyz
1 x,y,z
2 -x,-y,-z
_cell_length_a                   6.241(2)
_cell_length_b                   8.214(3)
_cell_length_c                   10.411(5)
_cell_angle_alpha                94.92(4)
_cell_angle_beta                 106.00(5)
_cell_angle_gamma                107.55(3)
_cell_volume                     480.775
loop_
_atom_site_label
_atom_site_type_symbol
_atom_site_fract_x
_atom_site_fract_y
_atom_site_fract_z
Ca1 Ca 0.34040(16) 0.19006(12) 0.27379(10)
O1 O 0.3163(6) -0.0233(4) 0.0927(3)
O2 O 1.1726(6) -0.0267(5) 0.3928(4)
O3 O 0.9111(6) 0.0269(4) 0.1676(3)
O4 O 0.6207(6) 0.0217(4) 0.3327(3)
O5 O 0.9267(7) -0.2925(5) 0.3736(4)
O6 O 0.2977(6) -0.2968(5) 0.0343(4)
C1 C 0.9834(8) -0.1508(6) 0.3352(5)
C2 C 0.3817(8) -0.1506(6) 0.1127(5)
C3 C 0.8071(8) -0.1289(6) 0.2081(4)
C4 C 0.5809(8) -0.1332(6) 0.2429(5)
O7 O 0.6007(6) 0.3134(5) 0.5045(4)
O8 O 0.1417(6) 0.3464(5) 0.3836(4)
O9 O 0.6889(7) 0.3761(5) 0.2295(4)
O10 O 0.1896(7) 0.3524(5) 0.1016(4)
H1 H 0.686(12) 0.424(4) 0.540(8)
H2 H 0.683(12) 0.244(8) 0.498(9)
H3 H 0.118(13) 0.307(11) 0.458(5)
H4 H 0.006(9) 0.327(11) 0.317(5)
H5 H 0.679(15) 0.347(9) 0.143(4)
H6 H 0.758(13) 0.494(4) 0.255(7)
H7 H 0.033(5) 0.332(10) 0.068(8)
H8 H 0.268(11) 0.462(5) 0.095(9)
H9 H 0.781(8) -0.210(5) 0.135(4)
H10 H 0.534(8) -0.210(5) 0.293(4)
H11 H 0.669(8) -0.003(6) 0.414(3)
H12 H 0.822(7) 0.015(6) 0.084(3)
Ca1_2 Ca 1.34040(16) 0.19006(12) 0.27379(10)
O2_2 O 0.1726(6) -0.0267(5) 0.3928(4)
O3_2 O -0.0889(6) 0.0269(4) 0.1676(3)
H12_2 H -0.178(7) 0.015(6) 0.084(3)
loop_
_geom_bond_atom_site_label_1
_geom_bond_atom_site_label_2
_geom_bond_site_symmetry_1
_geom_bond_site_symmetry_2
Ca1 O1 1_555 1_555
O1 C2 1_555 1_555
O2 C1 1_555 1_555
O3 C3 1_555 1_555
O4 Ca1 1_555 1_555
O5 C1 1_555 1_555
O6 C2 1_555 1_555
C1 C3 1_555 1_555
C2 C4 1_555 1_555
C3 C4 1_555 1_555
C4 O4 1_555 1_555
O7 Ca1 1_555 1_555
O8 Ca1 1_555 1_555
O9 Ca1 1_555 1_555
O10 Ca1 1_555 1_555
H1 O7 1_555 1_555
H2 O7 1_555 1_555
H3 O8 1_555 1_555
H4 O8 1_555 1_555
H5 O9 1_555 1_555
H6 O9 1_555 1_555
H7 O10 1_555 1_555
H8 O10 1_555 1_555
H9 C3 1_555 1_555
H10 C4 1_555 1_555
H11 O4 1_555 1_555
H12 O3 1_555 1_555
Ca1_2 O2 1_555 1_555
O2_2 Ca1 1_555 1_555
O3_2 Ca1 1_555 1_555
H12_2 O3_2 1_555 1_555
O3 Ca1_2 1_555 1_555

#END
