
#######################################################################
#
#                 Cambridge Crystallographic Data Centre
#                                CCDC 
#
#######################################################################
#
# If this CIF has been generated from an entry in the Cambridge 
# Structural Database, then it will include bibliographic, chemical, 
# crystal, experimental, refinement or atomic coordinate data resulting 
# from the CCDC's data processing and validation procedures.
#
#######################################################################

data_MUCNAA
_symmetry_cell_setting           monoclinic
_symmetry_space_group_name_H-M   'P 21/c'
_symmetry_Int_Tables_number      14
_space_group_name_Hall           '-P 2ybc'
loop_
_symmetry_equiv_pos_site_id
_symmetry_equiv_pos_as_xyz
1 x,y,z
2 -x,1/2+y,1/2-z
3 -x,-y,-z
4 x,1/2-y,1/2+z
_cell_length_a                   7.392(3)
_cell_length_b                   6.210(3)
_cell_length_c                   15.508(5)
_cell_angle_alpha                90
_cell_angle_beta                 108.114(16)
_cell_angle_gamma                90
_cell_volume                     676.603
loop_
_atom_site_label
_atom_site_type_symbol
_atom_site_fract_x
_atom_site_fract_y
_atom_site_fract_z
Tl1 Tl 0.74085(8) 0.53400(11) 0.59864(4)
O1 O 0.7241(13) 0.5338(17) 0.7593(6)
O2 O 0.9929(13) 0.7147(17) 0.7798(6)
O3 O 0.5279(13) 0.7300(18) 0.8867(7)
O4 O 0.4935(13) 0.376(2) 0.8871(7)
C1 C 0.8847(17) 0.608(2) 0.8085(8)
C2 C 0.9402(17) 0.554(2) 0.9086(9)
C3 C 0.8096(17) 0.515(2) 0.9524(8)
C4 C 0.5906(18) 0.540(2) 0.9045(9)
C5 C 1.1351(18) 0.532(2) 0.9562(8)
H1 H 1.2256 0.5497 0.9264
Tl2 Tl 0.31095(7) 0.59094(10) 0.71238(4)
Tl1B Tl 1.25915(8) 0.46600(11) 1.40136(4)
Tl1A Tl 1.25915(8) 1.03400(11) 0.90136(4)
Tl1A_2 Tl 0.25915(8) 1.03400(11) 0.90136(4)
Tl1A_3 Tl 0.25915(8) 0.03400(11) 0.90136(4)
Tl1C Tl 0.74085(8) -0.03400(11) 1.09864(4)
Tl1C_2 Tl 1.74085(8) -0.03400(11) 1.09864(4)
Tl1C_3 Tl 1.74085(8) 0.96600(11) 1.09864(4)
O1B O 1.2759(13) 0.4662(17) 1.2407(6)
O1A O 0.2759(13) 1.0338(17) 0.7407(6)
O1C O 1.7241(13) -0.0338(17) 1.2593(6)
O2B O 1.0071(13) 0.2853(17) 1.2202(6)
O2A O 1.0071(13) 0.2147(17) 0.7202(6)
O2_2 O -0.0071(13) 0.7147(17) 0.7798(6)
O2C O 0.9929(13) 0.7853(17) 1.2798(6)
O2B_2 O 2.0071(13) 0.2853(17) 1.2202(6)
O3B O 1.4721(13) 0.2700(18) 1.1133(7)
O3A O 0.4721(13) 0.2300(18) 0.6133(7)
O3C O 1.5279(13) 0.7700(18) 1.3867(7)
O4B O 1.5065(13) 0.624(2) 1.1129(7)
O4A O 0.5065(13) 0.876(2) 0.6129(7)
O4C O 1.4935(13) 0.124(2) 1.3871(7)
C1B C 1.1153(17) 0.392(2) 1.1915(8)
C2B C 1.0598(17) 0.446(2) 1.0914(9)
C3B C 1.1904(17) 0.485(2) 1.0476(8)
C4B C 1.4094(18) 0.460(2) 1.0955(9)
C5B C 0.8649(18) 0.468(2) 1.0438(8)
H1B H 0.7744 0.4503 1.0736
Tl2B Tl 1.68905(7) 0.40906(10) 1.28762(4)
Tl2A Tl 0.68905(7) 0.09094(10) 0.78762(4)
Tl2_2 Tl 1.31095(7) 0.59094(10) 0.71238(4)
Tl2C Tl 1.31095(7) 0.90906(10) 1.21238(4)
Tl2B_2 Tl 0.68905(7) 0.40906(10) 1.28762(4)
loop_
_geom_bond_atom_site_label_1
_geom_bond_atom_site_label_2
_geom_bond_site_symmetry_1
_geom_bond_site_symmetry_2
Tl1 O1 1_555 1_555
O1 C1 1_555 1_555
O2 Tl1 1_555 1_555
O3 C4 1_555 1_555
O4 C4 1_555 1_555
C1 O2 1_555 1_555
C2 C1 1_555 1_555
C3 C2 1_555 1_555
C4 C3 1_555 1_555
C5 C2 1_555 1_555
H1 C5 1_555 1_555
Tl2 O1 1_555 1_555
Tl1B O1B 1_555 1_555
Tl1A O2 1_555 1_555
Tl1A_2 O3 1_555 1_555
Tl1A_3 O4 1_555 1_555
Tl1C O2B 1_555 1_555
Tl1C_2 O1C 1_555 1_555
Tl1C_3 O4B 1_555 1_555
O1B C1B 1_555 1_555
O1A Tl2 1_555 1_555
O1C Tl2B 1_555 1_555
O2B Tl1B 1_555 1_555
O2A Tl1 1_555 1_555
O2_2 Tl2 1_555 1_555
O2C Tl1B 1_555 1_555
O2B_2 Tl1C_2 1_555 1_555
O3B Tl1C_2 1_555 1_555
O3A Tl1 1_555 1_555
O3C Tl1B 1_555 1_555
O4B C4B 1_555 1_555
O4A Tl1 1_555 1_555
O4C Tl1B 1_555 1_555
C1B O2B 1_555 1_555
C2B C1B 1_555 1_555
C3B C5 1_555 1_555
C4B O3B 1_555 1_555
C5B C3 1_555 1_555
H1B C5B 1_555 1_555
Tl2B O1B 1_555 1_555
Tl2A O1 1_555 1_555
Tl2_2 O2 1_555 1_555
Tl2C O1B 1_555 1_555
Tl2B_2 O2B 1_555 1_555
O3 Tl2 1_555 1_555
O4 Tl2 1_555 1_555
O4 Tl2A 1_555 1_555
Tl2 O4A 1_555 1_555
Tl1A_2 O1A 1_555 1_555
Tl1A_2 O2_2 1_555 1_555
O2A Tl2A 1_555 1_555
O2C Tl2C 1_555 1_555
O2B_2 Tl2B 1_555 1_555
O3B Tl2B 1_555 1_555
O3A Tl2A 1_555 1_555
O3C Tl2C 1_555 1_555
O4B Tl2B 1_555 1_555
O4B Tl2C 1_555 1_555
O4C Tl2B 1_555 1_555
C2B C3B 1_555 1_555
C2B C5B 1_555 1_555
C3B C4B 1_555 1_555

#END
