
#######################################################################
#
#                 Cambridge Crystallographic Data Centre
#                                CCDC 
#
#######################################################################
#
# If this CIF has been generated from an entry in the Cambridge 
# Structural Database, then it will include bibliographic, chemical, 
# crystal, experimental, refinement or atomic coordinate data resulting 
# from the CCDC's data processing and validation procedures.
#
#######################################################################

data_MUCNOO01
_symmetry_cell_setting           triclinic
_symmetry_space_group_name_H-M   'P -1'
_symmetry_Int_Tables_number      2
_space_group_name_Hall           '-P 1'
loop_
_symmetry_equiv_pos_site_id
_symmetry_equiv_pos_as_xyz
1 x,y,z
2 -x,-y,-z
_cell_length_a                   6.2584(15)
_cell_length_b                   8.251(2)
_cell_length_c                   10.448(3)
_cell_angle_alpha                94.887(6)
_cell_angle_beta                 105.914(6)
_cell_angle_gamma                107.662(5)
_cell_volume                     485.963
loop_
_atom_site_label
_atom_site_type_symbol
_atom_site_fract_x
_atom_site_fract_y
_atom_site_fract_z
Ca1 Ca 0.34098(13) 0.69009(9) 0.27353(7)
C1 C 0.3833(6) 0.3490(4) 0.1130(3)
C2 C 0.5815(6) 0.3666(4) 0.2430(4)
H1 H 0.530(6) 0.277(5) 0.285(4)
C3 C 0.8058(6) 0.3700(4) 0.2076(4)
H2 H 0.770(6) 0.276(5) 0.140(4)
C4 C 0.9842(6) 0.3502(4) 0.3349(3)
O1 O 0.3172(4) 0.4771(3) 0.0923(2)
O2 O 0.2964(4) 0.2036(3) 0.0347(2)
O3 O 0.6216(5) 0.5214(3) 0.3328(3)
H3 H 0.669(7) 0.513(5) 0.418(4)
O4 O 0.9110(4) 0.5269(3) 0.1671(2)
H4 H 0.849(6) 0.524(5) 0.081(2)
O5 O 0.9258(5) 0.2073(3) 0.3731(3)
O6 O 1.1726(4) 0.4732(3) 0.3925(3)
O7 O 0.6022(5) 0.8127(3) 0.5026(3)
H5 H 0.711(6) 0.774(5) 0.529(4)
H6 H 0.676(7) 0.916(3) 0.537(4)
O8 O 0.6903(5) 0.8757(3) 0.2288(3)
H7 H 0.763(7) 0.977(3) 0.263(4)
H8 H 0.688(8) 0.866(6) 0.149(2)
O9 O 0.1893(5) 0.8525(4) 0.1023(3)
H9 H 0.049(4) 0.828(6) 0.057(4)
H10 H 0.251(8) 0.949(3) 0.087(5)
O10 O 0.1414(5) 0.8454(3) 0.3835(3)
H11 H 0.004(4) 0.827(5) 0.337(4)
H12 H 0.116(8) 0.805(5) 0.450(3)
Ca1_2 Ca 1.34098(13) 0.69009(9) 0.27353(7)
O4_2 O -0.0890(4) 0.5269(3) 0.1671(2)
O6_2 O 0.1726(4) 0.4732(3) 0.3925(3)
loop_
_geom_bond_atom_site_label_1
_geom_bond_atom_site_label_2
_geom_bond_site_symmetry_1
_geom_bond_site_symmetry_2
Ca1 O1 1_555 1_555
C1 C2 1_555 1_555
C2 H1 1_555 1_555
C3 C2 1_555 1_555
H2 C3 1_555 1_555
C4 C3 1_555 1_555
O1 C1 1_555 1_555
O2 C1 1_555 1_555
O3 Ca1 1_555 1_555
H3 O3 1_555 1_555
O4 C3 1_555 1_555
H4 O4 1_555 1_555
O5 C4 1_555 1_555
O6 C4 1_555 1_555
O7 Ca1 1_555 1_555
H5 O7 1_555 1_555
H6 O7 1_555 1_555
O8 Ca1 1_555 1_555
H7 O8 1_555 1_555
H8 O8 1_555 1_555
O9 Ca1 1_555 1_555
H9 O9 1_555 1_555
H10 O9 1_555 1_555
O10 Ca1 1_555 1_555
H11 O10 1_555 1_555
H12 O10 1_555 1_555
Ca1_2 O4 1_555 1_555
O4_2 Ca1 1_555 1_555
O6_2 Ca1 1_555 1_555
C2 O3 1_555 1_555
O6 Ca1_2 1_555 1_555

#END
