
#######################################################################
#
#                 Cambridge Crystallographic Data Centre
#                                CCDC 
#
#######################################################################
#
# If this CIF has been generated from an entry in the Cambridge 
# Structural Database, then it will include bibliographic, chemical, 
# crystal, experimental, refinement or atomic coordinate data resulting 
# from the CCDC's data processing and validation procedures.
#
#######################################################################

data_MUCWOY
_symmetry_cell_setting           orthorhombic
_symmetry_space_group_name_H-M   'P 21 21 21'
_symmetry_Int_Tables_number      19
_space_group_name_Hall           'P 2ac 2ab'
loop_
_symmetry_equiv_pos_site_id
_symmetry_equiv_pos_as_xyz
1 x,y,z
2 1/2-x,-y,1/2+z
3 -x,1/2+y,1/2-z
4 1/2+x,1/2-y,-z
_cell_length_a                   16.4315(12)
_cell_length_b                   18.8700(14)
_cell_length_c                   30.286(2)
_cell_angle_alpha                90
_cell_angle_beta                 90
_cell_angle_gamma                90
_cell_volume                     9390.55
loop_
_atom_site_label
_atom_site_type_symbol
_atom_site_fract_x
_atom_site_fract_y
_atom_site_fract_z
Cu1 Cu 0.93776(4) 1.11524(3) 1.01124(2)
Cu2 Cu 1.09475(3) 1.10202(3) 0.94914(2)
Cu3 Cu 1.11695(3) 0.91175(3) 0.94926(2)
Cu4 Cu 0.93025(4) 0.93207(3) 1.04765(2)
O1 O 1.0305(2) 0.81707(16) 0.96024(11)
H1 H 1.018(3) 0.784(2) 0.9431(15)
H2 H 0.9865(17) 0.837(2) 0.9661(18)
O2 O 1.0246(2) 0.84125(16) 1.05622(11)
H3 H 1.017(3) 0.811(2) 1.0366(13)
H4 H 1.068(2) 0.861(2) 1.0480(16)
O3 O 1.02019(18) 1.16345(15) 0.97782(10)
H5 H 1.005(3) 1.1951(19) 0.9625(14)
Cl1 Cl 0.85326(7) 1.28752(6) 0.95987(4)
O4 O 0.8343(2) 1.2198(2) 0.97936(16)
O5 O 0.9349(2) 1.28547(19) 0.94191(14)
O6 O 0.7974(3) 1.3013(3) 0.92554(16)
O7 O 0.8480(4) 1.3422(3) 0.99206(15)
N1 N 0.8431(2) 1.08757(18) 1.04813(12)
N2 N 0.9738(2) 1.15583(18) 1.06918(12)
C1 C 0.7753(3) 1.0555(2) 1.03328(15)
H6 H 0.7691 1.0480 1.0024
C2 C 0.7147(3) 1.0333(2) 1.06134(16)
H7 H 0.6673 1.0107 1.0502
C3 C 0.7240(3) 1.0444(3) 1.10601(16)
H8 H 0.6835 1.0284 1.1260
C4 C 0.7921(3) 1.0786(2) 1.12160(15)
H9 H 0.7983 1.0876 1.1523
C5 C 0.8513(3) 1.0998(2) 1.09198(14)
C6 C 0.9278(3) 1.1361(2) 1.10391(14)
C7 C 0.9530(3) 1.1480(2) 1.14711(15)
H10 H 0.9197 1.1346 1.1713
C8 C 1.0283(3) 1.1802(2) 1.15405(15)
H11 H 1.0473 1.1884 1.1832
C9 C 1.0751(3) 1.2003(2) 1.11821(15)
H12 H 1.1263 1.2228 1.1223
C10 C 1.0457(3) 1.1870(2) 1.07614(15)
H13 H 1.0777 1.2005 1.0514
N3 N 1.1933(2) 1.06525(17) 0.91907(11)
N4 N 1.0592(2) 1.11630(18) 0.88695(11)
C11 C 1.2611(3) 1.0424(2) 0.93926(15)
H14 H 1.2643 1.0451 0.9705
C12 C 1.3264(3) 1.0149(2) 0.91608(16)
H15 H 1.3737 0.9986 0.9310
C13 C 1.3210(3) 1.0118(2) 0.87024(16)
H16 H 1.3646 0.9928 0.8534
C14 C 1.2519(3) 1.0364(2) 0.84928(16)
H17 H 1.2480 1.0351 0.8180
C15 C 1.1886(3) 1.0632(2) 0.87434(14)
C16 C 1.1104(3) 1.0893(2) 0.85648(13)
C17 C 1.0880(3) 1.0845(2) 0.81236(14)
H18 H 1.1243 1.0651 0.7912
C18 C 1.0122(3) 1.1087(3) 0.79992(15)
H19 H 0.9959 1.1057 0.7699
C19 C 0.9605(3) 1.1368(3) 0.83059(15)
H20 H 0.9087 1.1545 0.8221
C20 C 0.9853(3) 1.1392(2) 0.87450(15)
H21 H 0.9491 1.1574 0.8962
N5 N 1.2247(2) 0.86339(17) 0.95151(12)
N6 N 1.1322(2) 0.89366(17) 0.88460(11)
C21 C 1.2689(3) 0.8531(2) 0.98787(16)
H22 H 1.2461 0.8650 1.0157
C22 C 1.3470(3) 0.8257(3) 0.98641(18)
H23 H 1.3773 0.8188 1.0128
C23 C 1.3798(3) 0.8086(3) 0.94632(18)
H24 H 1.4333 0.7898 0.9446
C24 C 1.3344(3) 0.8187(2) 0.90828(17)
H25 H 1.3564 0.8070 0.8802
C25 C 1.2563(3) 0.8463(2) 0.91180(15)
C26 C 1.2030(3) 0.8614(2) 0.87392(14)
C27 C 1.2221(3) 0.8459(3) 0.83026(16)
H26 H 1.2713 0.8221 0.8232
C28 C 1.1685(3) 0.8657(3) 0.79734(16)
H27 H 1.1812 0.8566 0.7673
C29 C 1.0966(3) 0.8989(3) 0.80843(15)
H28 H 1.0589 0.9126 0.7862
C30 C 1.0802(3) 0.9120(2) 0.85271(14)
H29 H 1.0306 0.9346 0.8605
N7 N 0.8281(2) 0.87691(18) 1.05730(11)
N8 N 0.9233(2) 0.94072(17) 1.11338(11)
C31 C 0.7804(3) 0.8500(2) 1.02551(15)
H30 H 0.7980 0.8520 0.9957
C32 C 0.7058(3) 0.8192(2) 1.03525(16)
H31 H 0.6730 0.8001 1.0123
C33 C 0.6798(3) 0.8165(3) 1.07831(17)
H32 H 0.6288 0.7958 1.0854
C34 C 0.7291(3) 0.8444(2) 1.11144(16)
H33 H 0.7120 0.8436 1.1414
C35 C 0.8033(3) 0.8733(2) 1.09990(14)
C36 C 0.8606(3) 0.9052(2) 1.13191(14)
C37 C 0.8513(3) 0.9000(3) 1.17751(15)
H34 H 0.8076 0.8738 1.1900
C38 C 0.9078(3) 0.9341(3) 1.20435(15)
H35 H 0.9029 0.9317 1.2356
C39 C 0.9715(3) 0.9715(2) 1.18521(15)
H36 H 1.0104 0.9954 1.2030
C40 C 0.9769(3) 0.9732(2) 1.13946(14)
H37 H 1.0206 0.9985 1.1262
N9 N 1.1939(2) 0.91142(18) 1.19044(11)
C41 C 1.2034(3) 0.8685(2) 1.22658(13)
O8 O 1.25055(18) 0.88462(15) 1.25749(9)
N10 N 1.1629(2) 0.80602(17) 1.22849(11)
C42 C 1.1145(2) 0.7840(2) 1.19584(14)
N11 N 1.0776(2) 0.7226(2) 1.19899(12)
H38 H 1.087(3) 0.6946(17) 1.2172(14)
H39 H 1.053(3) 0.707(2) 1.1785(12)
C43 C 1.1030(3) 0.8285(2) 1.15810(15)
H40 H 1.0677 0.8149 1.1347
C44 C 1.1438(3) 0.8902(2) 1.15684(14)
H41 H 1.1377 0.9200 1.1318
C45 C 1.2391(3) 0.9797(2) 1.18886(14)
H42 H 1.2438 0.9994 1.2194
O9 O 1.19374(17) 1.02702(14) 1.16240(9)
C46 C 1.3240(3) 0.9735(2) 1.16841(14)
H43 H 1.3255 0.9330 1.1471
O10 O 1.38248(19) 0.96328(16) 1.20182(10)
H44 H 1.4249 0.9459 1.1908
C47 C 1.3312(3) 1.0442(2) 1.14334(14)
H45 H 1.3711 1.0416 1.1184
O11 O 1.34888(19) 1.10059(16) 1.17317(11)
H46 H 1.3955 1.0947 1.1840
C48 C 1.2444(3) 1.0543(2) 1.12732(13)
H47 H 1.2334 1.1061 1.1234
C49 C 1.2279(3) 1.0157(2) 1.08403(13)
H48 H 1.2514 1.0423 1.0589
H49 H 1.2526 0.9678 1.0846
P1 P 1.10062(6) 1.00609(5) 1.03171(3)
O12 O 1.13058(17) 1.06946(15) 1.00637(9)
O13 O 1.12619(17) 0.93524(14) 1.01165(9)
O14 O 1.01024(17) 1.00887(14) 1.04217(9)
O15 O 1.14162(17) 1.01057(15) 1.07946(9)
N12 N 0.7966(2) 0.90281(17) 0.79263(10)
C50 C 0.7546(2) 0.8586(2) 0.76441(13)
O16 O 0.68847(17) 0.87582(15) 0.74817(9)
N13 N 0.7873(2) 0.79318(17) 0.75538(11)
C51 C 0.8577(3) 0.7723(2) 0.77394(13)
N14 N 0.8838(2) 0.7070(2) 0.76660(14)
H50 H 0.856(3) 0.6805(17) 0.7530(16)
H51 H 0.926(2) 0.695(2) 0.7781(16)
C52 C 0.9031(3) 0.8200(2) 0.80044(14)
H52 H 0.9547 0.8071 0.8121
C53 C 0.8708(2) 0.8841(2) 0.80846(13)
H53 H 0.9006 0.9172 0.8257
C54 C 0.7614(2) 0.9747(2) 0.80141(14)
H54 H 0.7527 1.0000 0.7728
O17 O 0.81710(17) 1.01295(15) 0.82759(9)
C55 C 0.6799(3) 0.9714(2) 0.82730(14)
H55 H 0.6709 0.9223 0.8386
O18 O 0.61246(18) 0.99312(15) 0.80252(10)
H56 H 0.5989 0.9606 0.7851
C56 C 0.6945(3) 1.0222(2) 0.86636(14)
H57 H 0.6650 1.0063 0.8935
O19 O 0.67127(18) 1.09221(16) 0.85369(10)
H58 H 0.6720 1.1188 0.8759
C57 C 0.7863(3) 1.0183(2) 0.87233(13)
H59 H 0.8058 1.0637 0.8856
C58 C 0.8133(2) 0.9575(2) 0.90130(13)
H60 H 0.7887 0.9624 0.9310
H61 H 0.7948 0.9121 0.8884
P2 P 0.94101(6) 0.98157(5) 0.95049(3)
O20 O 0.90724(17) 1.05381(14) 0.96182(9)
O21 O 1.03167(17) 0.98312(14) 0.93981(8)
O22 O 0.91937(17) 0.92400(15) 0.98410(9)
O23 O 0.90082(17) 0.95750(15) 0.90498(9)
Cu5 Cu 0.71301(4) 0.73665(3) 0.71736(2)
N15 N 0.6308(2) 0.69456(18) 0.67654(11)
N16 N 0.7704(2) 0.75331(18) 0.66001(11)
C59 C 0.5638(3) 0.6593(2) 0.68876(15)
H62 H 0.5521 0.6548 0.7194
C60 C 0.5112(3) 0.6293(3) 0.65868(17)
H63 H 0.4650 0.6032 0.6683
C61 C 0.5272(3) 0.6382(3) 0.61392(17)
H64 H 0.4910 0.6194 0.5924
C62 C 0.5963(3) 0.6745(2) 0.60105(15)
H65 H 0.6082 0.6811 0.5706
C63 C 0.6483(3) 0.7014(2) 0.63339(14)
C64 C 0.7275(3) 0.7352(2) 0.62395(14)
C65 C 0.7574(3) 0.7460(2) 0.58138(15)
H66 H 0.7258 0.7338 0.5562
C66 C 0.8344(3) 0.7753(2) 0.57672(16)
H67 H 0.8562 0.7838 0.5482
C67 C 0.8792(3) 0.7920(2) 0.61394(16)
H68 H 0.9325 0.8111 0.6112
C68 C 0.8455(3) 0.7807(2) 0.65527(15)
H69 H 0.8761 0.7925 0.6808
O8C O 0.75055(18) 0.61538(15) 0.74251(9)
N10C N 0.6629(2) 0.69398(17) 0.77151(11)
Cu5C Cu 1.21301(4) 0.76335(3) 1.28264(2)
Cl2 Cl 1.56422(7) 1.05343(6) 1.20024(3)
O24 O 1.5435(2) 1.0155(2) 1.16069(12)
O25 O 1.64778(19) 1.07473(18) 1.19844(11)
O26 O 1.5132(2) 1.11523(19) 1.20375(12)
O27 O 1.5527(2) 1.00910(19) 1.23819(11)
Cl3 Cl 1.05402(8) 0.55319(7) 1.02535(4)
O28 O 1.0415(2) 0.6225(2) 1.00711(14)
O29 O 1.1394(3) 0.5390(3) 1.02817(14)
O30 O 1.0188(3) 0.5480(3) 1.06859(13)
O31 O 1.0153(3) 0.5024(2) 0.99647(16)
Cl4 Cl 1.26728(7) 0.74958(6) 1.09836(4)
O32 O 1.3357(2) 0.71261(18) 1.07921(12)
O33 O 1.2006(3) 0.7456(3) 1.06771(13)
O34 O 1.2425(3) 0.7160(2) 1.13768(13)
O35 O 1.2887(3) 0.8217(2) 1.1033(2)
Cl5 Cl 0.92555(6) 0.59807(6) 1.22450(3)
O36 O 0.8738(3) 0.6532(3) 1.24237(14)
O37 O 0.8891(3) 0.5300(2) 1.23069(13)
O38 O 1.00273(18) 0.60089(17) 1.24720(10)
O39 O 0.9373(2) 0.61163(18) 1.17850(10)
O40 O 1.6562(2) 0.8837(2) 1.21902(13)
H70 H 1.637(4) 0.9226(19) 1.2271(18)
H71 H 1.684(4) 0.869(3) 1.2403(14)
O41 O 1.1828(2) 0.3406(2) 1.06692(13)
H72 H 1.147(3) 0.341(4) 1.0474(16)
H73 H 1.220(3) 0.315(3) 1.0567(19)
O42 O 0.7679(3) 0.70292(19) 1.30686(13)
H74 H 0.728(3) 0.677(3) 1.314(2)
H75 H 0.796(3) 0.678(3) 1.2899(18)
O43 O 1.0556(3) 0.3553(2) 1.00639(14)
H76 H 1.016(3) 0.331(3) 0.997(2)
H77 H 1.041(4) 0.3976(11) 1.002(2)
O44 O 0.9820(2) 0.7064(3) 0.90303(13)
H78 H 0.9328(16) 0.719(4) 0.9021(19)
H79 H 0.995(4) 0.701(4) 0.8761(8)
O45 O 1.0498(3) 0.6884(3) 1.10735(14)
H80 H 1.0976(19) 0.697(3) 1.100(3)
H81 H 1.041(4) 0.6465(16) 1.100(3)
O46 O 0.9721(3) 0.5638(3) 0.91295(15)
H82 H 0.985(5) 0.551(3) 0.9390(11)
H83 H 0.973(5) 0.6087(8) 0.914(2)
O47 O 1.5103(3) 0.8442(3) 1.18275(17)
H84 H 1.548(4) 0.871(3) 1.192(3)
H85 H 1.535(4) 0.804(2) 1.182(3)
O48 O 1.7656(4) 0.8399(2) 1.27819(15)
H86 H 1.754(5) 0.7988(18) 1.287(2)
H87 H 1.772(6) 0.863(3) 1.3020(13)
loop_
_geom_bond_atom_site_label_1
_geom_bond_atom_site_label_2
_geom_bond_site_symmetry_1
_geom_bond_site_symmetry_2
Cu1 O3 1_555 1_555
Cu2 O3 1_555 1_555
Cu3 O1 1_555 1_555
Cu4 O2 1_555 1_555
O1 H1 1_555 1_555
H2 O1 1_555 1_555
O2 H3 1_555 1_555
H4 O2 1_555 1_555
O3 H5 1_555 1_555
Cl1 O4 1_555 1_555
O4 Cu1 1_555 1_555
O5 Cl1 1_555 1_555
O6 Cl1 1_555 1_555
O7 Cl1 1_555 1_555
N1 Cu1 1_555 1_555
N2 Cu1 1_555 1_555
C1 N1 1_555 1_555
H6 C1 1_555 1_555
C2 C1 1_555 1_555
H7 C2 1_555 1_555
C3 C2 1_555 1_555
H8 C3 1_555 1_555
C4 C3 1_555 1_555
H9 C4 1_555 1_555
C5 N1 1_555 1_555
C6 N2 1_555 1_555
C7 C6 1_555 1_555
H10 C7 1_555 1_555
C8 C7 1_555 1_555
H11 C8 1_555 1_555
C9 C8 1_555 1_555
H12 C9 1_555 1_555
C10 N2 1_555 1_555
H13 C10 1_555 1_555
N3 Cu2 1_555 1_555
N4 Cu2 1_555 1_555
C11 N3 1_555 1_555
H14 C11 1_555 1_555
C12 C11 1_555 1_555
H15 C12 1_555 1_555
C13 C12 1_555 1_555
H16 C13 1_555 1_555
C14 C13 1_555 1_555
H17 C14 1_555 1_555
C15 N3 1_555 1_555
C16 N4 1_555 1_555
C17 C16 1_555 1_555
H18 C17 1_555 1_555
C18 C17 1_555 1_555
H19 C18 1_555 1_555
C19 C18 1_555 1_555
H20 C19 1_555 1_555
C20 N4 1_555 1_555
H21 C20 1_555 1_555
N5 Cu3 1_555 1_555
N6 Cu3 1_555 1_555
C21 N5 1_555 1_555
H22 C21 1_555 1_555
C22 C21 1_555 1_555
H23 C22 1_555 1_555
C23 C22 1_555 1_555
H24 C23 1_555 1_555
C24 C23 1_555 1_555
H25 C24 1_555 1_555
C25 N5 1_555 1_555
C26 N6 1_555 1_555
C27 C26 1_555 1_555
H26 C27 1_555 1_555
C28 C27 1_555 1_555
H27 C28 1_555 1_555
C29 C28 1_555 1_555
H28 C29 1_555 1_555
C30 N6 1_555 1_555
H29 C30 1_555 1_555
N7 Cu4 1_555 1_555
N8 Cu4 1_555 1_555
C31 N7 1_555 1_555
H30 C31 1_555 1_555
C32 C31 1_555 1_555
H31 C32 1_555 1_555
C33 C32 1_555 1_555
H32 C33 1_555 1_555
C34 C33 1_555 1_555
H33 C34 1_555 1_555
C35 N7 1_555 1_555
C36 N8 1_555 1_555
C37 C36 1_555 1_555
H34 C37 1_555 1_555
C38 C37 1_555 1_555
H35 C38 1_555 1_555
C39 C38 1_555 1_555
H36 C39 1_555 1_555
C40 N8 1_555 1_555
H37 C40 1_555 1_555
N9 C41 1_555 1_555
C41 O8 1_555 1_555
O8 Cu5C 1_555 1_555
N10 C41 1_555 1_555
C42 N10 1_555 1_555
N11 C42 1_555 1_555
H38 N11 1_555 1_555
H39 N11 1_555 1_555
C43 C42 1_555 1_555
H40 C43 1_555 1_555
C44 N9 1_555 1_555
H41 C44 1_555 1_555
C45 N9 1_555 1_555
H42 C45 1_555 1_555
O9 C45 1_555 1_555
C46 C45 1_555 1_555
H43 C46 1_555 1_555
O10 C46 1_555 1_555
H44 O10 1_555 1_555
C47 C46 1_555 1_555
H45 C47 1_555 1_555
O11 C47 1_555 1_555
H46 O11 1_555 1_555
C48 O9 1_555 1_555
H47 C48 1_555 1_555
C49 C48 1_555 1_555
H48 C49 1_555 1_555
H49 C49 1_555 1_555
P1 O12 1_555 1_555
O12 Cu2 1_555 1_555
O13 Cu3 1_555 1_555
O14 Cu1 1_555 1_555
O15 C49 1_555 1_555
N12 C50 1_555 1_555
C50 O16 1_555 1_555
N13 C50 1_555 1_555
C51 N13 1_555 1_555
N14 C51 1_555 1_555
H50 N14 1_555 1_555
H51 N14 1_555 1_555
C52 C51 1_555 1_555
H52 C52 1_555 1_555
C53 N12 1_555 1_555
H53 C53 1_555 1_555
C54 N12 1_555 1_555
H54 C54 1_555 1_555
O17 C54 1_555 1_555
C55 C54 1_555 1_555
H55 C55 1_555 1_555
O18 C55 1_555 1_555
H56 O18 1_555 1_555
C56 C55 1_555 1_555
H57 C56 1_555 1_555
O19 C56 1_555 1_555
H58 O19 1_555 1_555
C57 O17 1_555 1_555
H59 C57 1_555 1_555
C58 C57 1_555 1_555
H60 C58 1_555 1_555
H61 C58 1_555 1_555
P2 O20 1_555 1_555
O20 Cu1 1_555 1_555
O21 Cu2 1_555 1_555
O22 Cu4 1_555 1_555
O23 C58 1_555 1_555
Cu5 N13 1_555 1_555
N15 Cu5 1_555 1_555
N16 Cu5 1_555 1_555
C59 N15 1_555 1_555
H62 C59 1_555 1_555
C60 C59 1_555 1_555
H63 C60 1_555 1_555
C61 C60 1_555 1_555
H64 C61 1_555 1_555
C62 C61 1_555 1_555
H65 C62 1_555 1_555
C63 N15 1_555 1_555
C64 N16 1_555 1_555
C65 C64 1_555 1_555
H66 C65 1_555 1_555
C66 C65 1_555 1_555
H67 C66 1_555 1_555
C67 C66 1_555 1_555
H68 C67 1_555 1_555
C68 N16 1_555 1_555
H69 C68 1_555 1_555
Cl2 O24 1_555 1_555
O25 Cl2 1_555 1_555
O26 Cl2 1_555 1_555
O27 Cl2 1_555 1_555
Cl3 O28 1_555 1_555
O29 Cl3 1_555 1_555
O30 Cl3 1_555 1_555
O31 Cl3 1_555 1_555
Cl4 O32 1_555 1_555
O33 Cl4 1_555 1_555
O34 Cl4 1_555 1_555
O35 Cl4 1_555 1_555
Cl5 O36 1_555 1_555
O37 Cl5 1_555 1_555
O38 Cl5 1_555 1_555
O39 Cl5 1_555 1_555
O40 H70 1_555 1_555
H71 O40 1_555 1_555
O41 H72 1_555 1_555
H73 O41 1_555 1_555
O42 H74 1_555 1_555
H75 O42 1_555 1_555
O43 H76 1_555 1_555
H77 O43 1_555 1_555
O44 H78 1_555 1_555
H79 O44 1_555 1_555
O45 H80 1_555 1_555
H81 O45 1_555 1_555
O46 H82 1_555 1_555
H83 O46 1_555 1_555
O47 H84 1_555 1_555
H85 O47 1_555 1_555
O48 H86 1_555 1_555
H87 O48 1_555 1_555
O8C Cu5 1_555 1_555
N10C Cu5 1_555 1_555
Cu5C N10 1_555 1_555
Cu3 O21 1_555 1_555
Cu4 O14 1_555 1_555
C4 C5 1_555 1_555
C5 C6 1_555 1_555
C9 C10 1_555 1_555
C14 C15 1_555 1_555
C15 C16 1_555 1_555
C19 C20 1_555 1_555
C24 C25 1_555 1_555
C25 C26 1_555 1_555
C29 C30 1_555 1_555
C34 C35 1_555 1_555
C35 C36 1_555 1_555
C39 C40 1_555 1_555
C43 C44 1_555 1_555
C47 C48 1_555 1_555
P1 O13 1_555 1_555
P1 O14 1_555 1_555
P1 O15 1_555 1_555
C52 C53 1_555 1_555
C56 C57 1_555 1_555
P2 O21 1_555 1_555
P2 O22 1_555 1_555
P2 O23 1_555 1_555
C62 C63 1_555 1_555
C63 C64 1_555 1_555
C67 C68 1_555 1_555

#END
