
#######################################################################
#
#                 Cambridge Crystallographic Data Centre
#                                CCDC 
#
#######################################################################
#
# If this CIF has been generated from an entry in the Cambridge 
# Structural Database, then it will include bibliographic, chemical, 
# crystal, experimental, refinement or atomic coordinate data resulting 
# from the CCDC's data processing and validation procedures.
#
#######################################################################

data_MUDBIY
_symmetry_cell_setting           monoclinic
_symmetry_space_group_name_H-M   'P 21/c'
_symmetry_Int_Tables_number      14
_space_group_name_Hall           '-P 2ybc'
loop_
_symmetry_equiv_pos_site_id
_symmetry_equiv_pos_as_xyz
1 x,y,z
2 -x,1/2+y,1/2-z
3 -x,-y,-z
4 x,1/2-y,1/2+z
_cell_length_a                   11.8410(11)
_cell_length_b                   16.6210(16)
_cell_length_c                   7.5163(7)
_cell_angle_alpha                90
_cell_angle_beta                 94.576(2)
_cell_angle_gamma                90
_cell_volume                     1474.56
loop_
_atom_site_label
_atom_site_type_symbol
_atom_site_fract_x
_atom_site_fract_y
_atom_site_fract_z
O1 O -0.0791(3) 0.2774(3) -0.1537(6)
N1 N 0.2826(4) 0.3530(3) 0.1832(6)
O2 O 0.2672(4) 0.2849(2) 0.2602(5)
O3 O 0.3234(4) 0.3522(3) 0.0396(6)
O4 O 0.2554(4) 0.4133(2) 0.2601(6)
Cd1 Cd 0.21642(3) 0.18587(2) 0.05087(6)
S1 S 0.51415(11) 0.01117(8) 0.25913(17)
N2 N 0.3910(3) 0.1260(2) 0.1187(5)
N3 N 0.0104(4) 0.2520(3) -0.0866(6)
O5 O 0.0251(4) 0.1787(3) -0.0519(7)
C1 C 0.5826(4) 0.0897(3) 0.1603(6)
C2 C 0.3854(4) 0.0578(3) 0.2022(6)
C3 C 0.6973(4) 0.1009(3) 0.1421(7)
H1 H 0.7508 0.0644 0.1906
C4 C 0.5021(4) 0.1458(3) 0.0916(6)
C5 C 0.0835(5) 0.0365(4) 0.2263(8)
H2 H 0.0194 0.0665 0.1909
C6 C 0.5363(5) 0.2136(3) -0.0017(7)
H3 H 0.4838 0.2510 -0.0490
C7 C 0.2766(4) 0.0220(3) 0.2456(6)
C8 C 0.2705(5) -0.0507(3) 0.3303(8)
H4 H 0.3362 -0.0794 0.3641
C9 C 0.7294(5) 0.1675(4) 0.0503(7)
H5 H 0.8057 0.1758 0.0351
N4 N 0.1844(4) 0.0648(3) 0.1942(6)
C10 C 0.6494(5) 0.2226(4) -0.0205(7)
H6 H 0.6738 0.2670 -0.0824
C11 C 0.0704(6) -0.0365(4) 0.3110(9)
H7 H -0.0015 -0.0552 0.3311
O6 O 0.0894(5) 0.2956(3) -0.0432(12)
C12 C 0.1648(6) -0.0813(4) 0.3654(9)
H8 H 0.1584 -0.1303 0.4236
O2C O 0.2672(4) 0.2151(2) -0.2398(5)
O4C O 0.2554(4) 0.0867(2) -0.2399(6)
Cd1C Cd 0.21642(3) 0.31413(2) 0.55087(6)
loop_
_geom_bond_atom_site_label_1
_geom_bond_atom_site_label_2
_geom_bond_site_symmetry_1
_geom_bond_site_symmetry_2
O1 N3 1_555 1_555
N1 O2 1_555 1_555
O2 Cd1 1_555 1_555
O3 N1 1_555 1_555
O4 N1 1_555 1_555
Cd1 N2 1_555 1_555
S1 C1 1_555 1_555
N2 C2 1_555 1_555
N3 O5 1_555 1_555
O5 Cd1 1_555 1_555
C1 C3 1_555 1_555
C2 S1 1_555 1_555
C3 H1 1_555 1_555
C4 N2 1_555 1_555
C5 H2 1_555 1_555
C6 C4 1_555 1_555
H3 C6 1_555 1_555
C7 C2 1_555 1_555
C8 C7 1_555 1_555
H4 C8 1_555 1_555
C9 C3 1_555 1_555
H5 C9 1_555 1_555
N4 Cd1 1_555 1_555
C10 C6 1_555 1_555
H6 C10 1_555 1_555
C11 C5 1_555 1_555
H7 C11 1_555 1_555
O6 Cd1 1_555 1_555
C12 C8 1_555 1_555
H8 C12 1_555 1_555
O2C Cd1 1_555 1_555
O4C Cd1 1_555 1_555
Cd1C O2 1_555 1_555
O4 Cd1C 1_555 1_555
N3 O6 1_555 1_555
C1 C4 1_555 1_555
C5 N4 1_555 1_555
C7 N4 1_555 1_555
C9 C10 1_555 1_555
C11 C12 1_555 1_555

#END
