
#######################################################################
#
#                 Cambridge Crystallographic Data Centre
#                                CCDC 
#
#######################################################################
#
# If this CIF has been generated from an entry in the Cambridge 
# Structural Database, then it will include bibliographic, chemical, 
# crystal, experimental, refinement or atomic coordinate data resulting 
# from the CCDC's data processing and validation procedures.
#
#######################################################################

data_MUDCOD
_symmetry_cell_setting           monoclinic
_symmetry_space_group_name_H-M   'P 21/a'
_symmetry_Int_Tables_number      14
_space_group_name_Hall           '-P 2yab'
loop_
_symmetry_equiv_pos_site_id
_symmetry_equiv_pos_as_xyz
1 x,y,z
2 1/2-x,1/2+y,-z
3 -x,-y,-z
4 1/2+x,1/2-y,z
_cell_length_a                   12.3467(7)
_cell_length_b                   14.8671(8)
_cell_length_c                   8.6676(6)
_cell_angle_alpha                90
_cell_angle_beta                 112.788(5)
_cell_angle_gamma                90
_cell_volume                     1466.83
loop_
_atom_site_label
_atom_site_type_symbol
_atom_site_fract_x
_atom_site_fract_y
_atom_site_fract_z
Ni1 Ni 0.7334(7) 0.2475(5) 0.3578(9)
N1 N 0.5797(16) 0.3058(23) 0.3593(38)
N2 N 0.3998(16) 0.2877(23) 0.3576(34)
C1 C 0.4924(30) 0.2435(8) 0.3391(33)
C2 C 0.5367(30) 0.3897(13) 0.3740(41)
C3 C 0.4248(28) 0.3787(18) 0.3709(41)
N3 N 0.6697(22) 0.1173(9) 0.3185(52)
N4 N 0.6309(23) -0.0146(18) 0.4091(42)
C4 C 0.6693(27) 0.0720(25) 0.4572(25)
C5 C 0.6137(23) -0.0242(16) 0.2427(43)
C6 C 0.6289(26) 0.0592(27) 0.1838(22)
N5 N 0.8052(38) 0.2402(18) 0.6211(13)
N6 N 0.9416(22) 0.2269(15) 0.8800(39)
C7 C 0.9245(30) 0.2331(19) 0.7132(55)
C8 C 0.7498(14) 0.2469(23) 0.7318(59)
C9 C 0.8342(42) 0.2390(23) 0.8919(34)
O1 O 0.6744(19) 0.2978(9) 0.0968(16)
O2 O 0.7734(16) 0.3882(9) 0.3127(17)
C10 C 0.7167(18) 0.3790(8) 0.1490(16)
C11 C 0.7014(26) 0.4569(11) 0.0282(25)
N2C N 0.8998(16) 0.2123(23) 0.3576(34)
Ni1C Ni 0.2334(7) 0.2525(5) 0.3578(9)
loop_
_geom_bond_atom_site_label_1
_geom_bond_atom_site_label_2
_geom_bond_site_symmetry_1
_geom_bond_site_symmetry_2
Ni1 N1 1_555 1_555
N1 C1 1_555 1_555
N2 C1 1_555 1_555
C2 N1 1_555 1_555
C3 N2 1_555 1_555
N3 Ni1 1_555 1_555
N4 C4 1_555 1_555
C4 N3 1_555 1_555
C5 N4 1_555 1_555
C6 N3 1_555 1_555
N5 Ni1 1_555 1_555
N6 C7 1_555 1_555
C7 N5 1_555 1_555
C8 N5 1_555 1_555
C9 N6 1_555 1_555
O1 Ni1 1_555 1_555
O2 Ni1 1_555 1_555
C10 O1 1_555 1_555
C11 C10 1_555 1_555
N2C Ni1 1_555 1_555
Ni1C N2 1_555 1_555
C2 C3 1_555 1_555
C5 C6 1_555 1_555
C8 C9 1_555 1_555
O2 C10 1_555 1_555

#END
