
#######################################################################
#
#                 Cambridge Crystallographic Data Centre
#                                CCDC 
#
#######################################################################
#
# If this CIF has been generated from an entry in the Cambridge 
# Structural Database, then it will include bibliographic, chemical, 
# crystal, experimental, refinement or atomic coordinate data resulting 
# from the CCDC's data processing and validation procedures.
#
#######################################################################

data_MUDGUP
_symmetry_cell_setting           orthorhombic
_symmetry_space_group_name_H-M   'P b c a'
_symmetry_Int_Tables_number      61
_space_group_name_Hall           '-P 2ac 2ab'
loop_
_symmetry_equiv_pos_site_id
_symmetry_equiv_pos_as_xyz
1 x,y,z
2 1/2-x,-y,1/2+z
3 -x,1/2+y,1/2-z
4 1/2+x,1/2-y,-z
5 -x,-y,-z
6 1/2+x,y,1/2-z
7 x,1/2-y,1/2+z
8 1/2-x,1/2+y,z
_cell_length_a                   13.2211(13)
_cell_length_b                   17.8484(18)
_cell_length_c                   18.2134(19)
_cell_angle_alpha                90
_cell_angle_beta                 90
_cell_angle_gamma                90
_cell_volume                     4297.92
loop_
_atom_site_label
_atom_site_type_symbol
_atom_site_fract_x
_atom_site_fract_y
_atom_site_fract_z
Cd1 Cd 0.289141(14) -0.023977(11) 0.730983(12)
N1 N 0.12183(17) -0.05644(13) 0.73045(12)
C1 C 0.0358(2) -0.02071(15) 0.71234(15)
O1 O 0.26742(15) -0.13153(12) 0.80923(12)
N2 N 0.23148(19) 0.06529(15) 0.81741(14)
O2 O 0.15245(16) -0.17892(13) 0.88578(13)
C2 C 0.1781(2) -0.13883(16) 0.83064(17)
C3 C 0.0856(2) 0.02224(16) 0.58793(16)
H1 H 0.1285 -0.0187 0.5825
C4 C 0.0287(2) 0.03316(15) 0.65195(15)
C5 C 0.0975(2) -0.09793(15) 0.79113(15)
O3 O 0.0124(2) 0.17732(13) 0.47780(13)
O4 O 0.1214(2) 0.07620(13) 0.46673(13)
C6 C -0.0450(3) 0.14730(18) 0.60253(18)
H2 H -0.0882 0.1882 0.6068
C7 C -0.0335(2) 0.09524(16) 0.65910(16)
H3 H -0.0686 0.1024 0.7028
C8 C 0.0103(2) 0.13497(17) 0.54096(17)
C9 C 0.0749(2) 0.07461(18) 0.53385(16)
C10 C 0.0867(3) 0.1433(2) 0.43226(19)
H4 H 0.1430 0.1774 0.4250
H5 H 0.0578 0.1316 0.3847
N3 N 0.28308(18) 0.09443(14) 0.67659(14)
O5 O -0.02737(17) -0.15820(14) 0.91571(12)
H6 H 0.0311 -0.1676 0.9038
C11 C -0.0029(2) -0.08651(15) 0.80762(15)
C12 C -0.0670(2) -0.11340(16) 0.86832(15)
C13 C 0.2035(2) 0.13148(19) 0.79036(19)
C14 C 0.2391(3) 0.15009(18) 0.71475(18)
C15 C 0.2073(3) 0.0477(2) 0.8871(2)
H7 H 0.2288 0.0019 0.9057
C16 C 0.1529(4) 0.0938(2) 0.9313(2)
H8 H 0.1391 0.0807 0.9797
C17 C 0.1463(3) 0.1804(2) 0.8325(2)
H9 H 0.1266 0.2265 0.8136
O6 O -0.15622(15) -0.09203(12) 0.87314(11)
C18 C 0.3184(3) 0.1093(2) 0.6097(2)
H10 H 0.3489 0.0707 0.5836
C19 C 0.2313(3) 0.2209(2) 0.6858(2)
H11 H 0.2011 0.2591 0.7128
C20 C 0.2684(4) 0.2351(2) 0.6167(3)
H12 H 0.2637 0.2830 0.5969
C21 C 0.3120(3) 0.1789(2) 0.5772(2)
H13 H 0.3367 0.1872 0.5301
C22 C 0.1190(4) 0.1600(2) 0.9028(2)
H14 H 0.0777 0.1911 0.9307
N4 N -0.04201(16) -0.03765(14) 0.75732(12)
Cd1E Cd -0.210859(14) -0.023977(11) 0.769017(12)
O6E O 0.34378(15) -0.09203(12) 0.62686(11)
N4E N 0.45799(16) -0.03765(14) 0.74268(12)
loop_
_geom_bond_atom_site_label_1
_geom_bond_atom_site_label_2
_geom_bond_site_symmetry_1
_geom_bond_site_symmetry_2
Cd1 N1 1_555 1_555
N1 C1 1_555 1_555
C1 C4 1_555 1_555
O1 Cd1 1_555 1_555
N2 Cd1 1_555 1_555
O2 C2 1_555 1_555
C2 O1 1_555 1_555
C3 H1 1_555 1_555
C4 C3 1_555 1_555
C5 N1 1_555 1_555
O3 C8 1_555 1_555
O4 C9 1_555 1_555
C6 H2 1_555 1_555
C7 C4 1_555 1_555
H3 C7 1_555 1_555
C8 C6 1_555 1_555
C9 C3 1_555 1_555
C10 O3 1_555 1_555
H4 C10 1_555 1_555
H5 C10 1_555 1_555
N3 Cd1 1_555 1_555
O5 H6 1_555 1_555
C11 C5 1_555 1_555
C12 O5 1_555 1_555
C13 N2 1_555 1_555
C14 N3 1_555 1_555
C15 N2 1_555 1_555
H7 C15 1_555 1_555
C16 C15 1_555 1_555
H8 C16 1_555 1_555
C17 C13 1_555 1_555
H9 C17 1_555 1_555
O6 C12 1_555 1_555
C18 N3 1_555 1_555
H10 C18 1_555 1_555
C19 C14 1_555 1_555
H11 C19 1_555 1_555
C20 C19 1_555 1_555
H12 C20 1_555 1_555
C21 C18 1_555 1_555
H13 C21 1_555 1_555
C22 C16 1_555 1_555
H14 C22 1_555 1_555
N4 C1 1_555 1_555
Cd1E O6 1_555 1_555
O6E Cd1 1_555 1_555
N4E Cd1 1_555 1_555
C2 C5 1_555 1_555
O4 C10 1_555 1_555
C6 C7 1_555 1_555
C8 C9 1_555 1_555
C11 C12 1_555 1_555
C11 N4 1_555 1_555
C13 C14 1_555 1_555
C17 C22 1_555 1_555
C20 C21 1_555 1_555
N4 Cd1E 1_555 1_555

#END
