
#######################################################################
#
#                 Cambridge Crystallographic Data Centre
#                                CCDC 
#
#######################################################################
#
# If this CIF has been generated from an entry in the Cambridge 
# Structural Database, then it will include bibliographic, chemical, 
# crystal, experimental, refinement or atomic coordinate data resulting 
# from the CCDC's data processing and validation procedures.
#
#######################################################################

data_MUDHOK
_symmetry_cell_setting           monoclinic
_symmetry_space_group_name_H-M   'C 2/c'
_symmetry_Int_Tables_number      15
_space_group_name_Hall           '-C 2yn'
loop_
_symmetry_equiv_pos_site_id
_symmetry_equiv_pos_as_xyz
1 x,y,z
2 -x,y,1/2-z
3 1/2+x,1/2+y,z
4 1/2-x,1/2+y,1/2-z
5 -x,-y,-z
6 x,-y,1/2+z
7 1/2-x,1/2-y,-z
8 1/2+x,1/2-y,1/2+z
_cell_length_a                   25.903(5)
_cell_length_b                   10.316(5)
_cell_length_c                   19.680(5)
_cell_angle_alpha                90
_cell_angle_beta                 128.191(5)
_cell_angle_gamma                90
_cell_volume                     4133.17
loop_
_atom_site_label
_atom_site_type_symbol
_atom_site_fract_x
_atom_site_fract_y
_atom_site_fract_z
Co1 Co 0.260467(12) 0.10591(3) 0.179337(15)
O1 O 0.20714(7) 0.06307(15) 0.59473(9)
O2 O 0.27760(7) -0.05058(14) 0.59211(9)
O3 O 0.30985(8) 0.05740(17) 0.37575(9)
N1 N 0.09574(8) 0.34194(16) 0.01733(11)
O4 O 0.22505(8) 0.13327(17) 0.24749(9)
C1 C 0.21642(10) 0.12687(19) 0.36061(12)
N2 N 0.41254(9) 0.37208(18) 0.34074(11)
O5 O 0.32737(9) -0.03098(17) 0.26851(10)
H1 H 0.3365 -0.0158 0.3173
H2 H 0.3104 -0.1061 0.2512
C2 C 0.05957(9) 0.28662(19) 0.29502(12)
C3 C 0.24150(10) 0.07707(19) 0.44160(13)
C4 C 0.0000 0.2209(3) 0.2500
C5 C 0.23288(9) 0.03428(19) 0.55943(12)
N3 N 0.33152(9) 0.24612(18) 0.24082(11)
N4 N 0.18403(8) 0.21968(16) 0.08438(10)
C6 C 0.14892(10) 0.1636(2) 0.42723(13)
C7 C 0.04601(10) 0.4212(2) 0.00696(13)
C8 C 0.13872(10) 0.26862(19) 0.08731(13)
H3 H 0.1366 0.2544 0.1322
C9 C 0.20755(10) 0.09498(19) 0.47444(12)
C10 C 0.15725(10) 0.1939(2) 0.31341(13)
C11 C 0.12313(9) 0.21373(19) 0.34601(12)
C12 C 0.45683(10) 0.4382(2) 0.42133(13)
C13 C -0.03501(11) 0.4551(2) 0.02746(15)
H4 H -0.0585 0.4254 0.0457
C14 C 0.01137(11) 0.3765(2) 0.03431(15)
H5 H 0.0192 0.2936 0.0573
C15 C 0.0000 0.4874(3) 0.2500
H6 H 0.0000 0.5775 0.2500
C16 C 0.36114(11) 0.2984(2) 0.31743(14)
H7 H 0.3481 0.2859 0.3516
C17 C 0.56439(11) 0.5255(2) 0.53201(14)
C18 C 0.11538(12) 0.3394(2) -0.03317(14)
H8 H 0.0954 0.3815 -0.0857
C19 C 0.52066(11) 0.4632(2) 0.45263(15)
C20 C 0.25369(10) 0.1038(2) 0.32597(12)
C21 C 0.05886(10) 0.4213(2) 0.29230(13)
H9 H 0.0979 0.4670 0.3189
C22 C 0.16932(11) 0.2640(2) 0.00830(14)
H10 H 0.1930 0.2448 -0.0115
C23 C 0.36541(14) 0.2900(3) 0.21307(17)
H11 H 0.3558 0.2690 0.1604
C24 C 0.41469(15) 0.3679(3) 0.27296(17)
H12 H 0.4444 0.4106 0.2691
H13 H 0.1393(12) 0.226(2) 0.2551(15)
H14 H 0.2815(10) 0.026(2) 0.4725(13)
H15 H 0.1259(10) 0.182(2) 0.4507(13)
H16 H 0.0000 0.125(3) 0.2500
H17 H 0.5364(13) 0.439(3) 0.4192(17)
O1A O -0.20714(7) 0.06307(15) -0.09473(9)
O2A O -0.27760(7) -0.05058(14) -0.09211(9)
O3A O -0.30985(8) 0.05740(17) 0.12425(9)
O4A O -0.22505(8) 0.13327(17) 0.25251(9)
C1A C -0.21642(10) 0.12687(19) 0.13939(12)
C2A C -0.05957(9) 0.28662(19) 0.20498(12)
C3A C -0.24150(10) 0.07707(19) 0.05840(13)
C5A C -0.23288(9) 0.03428(19) -0.05943(12)
C6A C -0.14892(10) 0.1636(2) 0.07277(13)
C9A C -0.20755(10) 0.09498(19) 0.02556(12)
C10A C -0.15725(10) 0.1939(2) 0.18659(13)
C11A C -0.12313(9) 0.21373(19) 0.15399(12)
C20A C -0.25369(10) 0.1038(2) 0.17403(12)
C21A C -0.05886(10) 0.4213(2) 0.20770(13)
H9A H -0.0979 0.4670 0.1811
H13A H -0.1393(12) 0.226(2) 0.2449(15)
H14A H -0.2815(10) 0.026(2) 0.0275(13)
H15A H -0.1259(10) 0.182(2) 0.0493(13)
N1D N -0.09574(8) 0.65806(16) -0.01733(11)
N4D N -0.18403(8) 0.78032(16) -0.08438(10)
C7D C -0.04601(10) 0.5788(2) -0.00696(13)
C8D C -0.13872(10) 0.73138(19) -0.08731(13)
H3D H -0.1366 0.7456 -0.1322
C13D C 0.03501(11) 0.5449(2) -0.02746(15)
H4D H 0.0585 0.5746 -0.0457
C14D C -0.01137(11) 0.6235(2) -0.03431(15)
H5D H -0.0192 0.7064 -0.0573
C18D C -0.11538(12) 0.6606(2) 0.03317(14)
H8D H -0.0954 0.6185 0.0857
C22D C -0.16932(11) 0.7360(2) -0.00830(14)
H10D H -0.1930 0.7552 0.0115
N2D N 0.58746(9) 0.62792(18) 0.65926(11)
N3D N 0.66848(9) 0.75388(18) 0.75918(11)
C12D C 0.54317(10) 0.5618(2) 0.57867(13)
C16D C 0.63886(11) 0.7016(2) 0.68257(14)
H7D H 0.6519 0.7141 0.6484
C17D C 0.43561(11) 0.4745(2) 0.46799(14)
C19D C 0.47934(11) 0.5368(2) 0.54737(15)
C23D C 0.63459(14) 0.7100(3) 0.78693(17)
H11D H 0.6442 0.7310 0.8396
C24D C 0.58531(15) 0.6321(3) 0.72704(17)
H12D H 0.5556 0.5894 0.7309
H17D H 0.4636(13) 0.561(3) 0.5808(17)
Co1A Co -0.260467(12) 0.10591(3) 0.320663(15)
O5A O -0.32737(9) -0.03098(17) 0.23149(10)
H1A H -0.3365 -0.0158 0.1827
H2A H -0.3104 -0.1061 0.2488
Co1D Co -0.260467(12) -0.10591(3) -0.179337(15)
Co1D_2 Co -0.260467(12) 0.89409(3) -0.179337(15)
Co1D_3 Co 0.739533(12) 0.89409(3) 0.820663(15)
Co1E Co 0.260467(12) -0.10591(3) 0.679337(15)
O1D O -0.20714(7) -0.06307(15) 0.40527(9)
O1E O 0.20714(7) -0.06307(15) 0.09473(9)
O2D O -0.27760(7) 0.05058(14) 0.40789(9)
O2E O 0.27760(7) 0.05058(14) 0.09211(9)
N3A N -0.33152(9) 0.24612(18) 0.25918(11)
N4A N -0.18403(8) 0.21968(16) 0.41562(10)
loop_
_geom_bond_atom_site_label_1
_geom_bond_atom_site_label_2
_geom_bond_site_symmetry_1
_geom_bond_site_symmetry_2
Co1 O4 1_555 1_555
O1 C5 1_555 1_555
O2 C5 1_555 1_555
O3 C20 1_555 1_555
N1 C7 1_555 1_555
O4 C20 1_555 1_555
C1 C3 1_555 1_555
N2 C12 1_555 1_555
O5 Co1 1_555 1_555
H1 O5 1_555 1_555
H2 O5 1_555 1_555
C2 C4 1_555 1_555
C3 C9 1_555 1_555
C4 H16 1_555 1_555
C5 C9 1_555 1_555
N3 Co1 1_555 1_555
N4 Co1 1_555 1_555
C6 C9 1_555 1_555
C7 C14 1_555 1_555
C8 N1 1_555 1_555
H3 C8 1_555 1_555
C10 C1 1_555 1_555
C11 C2 1_555 1_555
C12 C19 1_555 1_555
C13 H4 1_555 1_555
C14 C13 1_555 1_555
H5 C14 1_555 1_555
C15 H6 1_555 1_555
C16 N2 1_555 1_555
H7 C16 1_555 1_555
C17 C19 1_555 1_555
C18 N1 1_555 1_555
H8 C18 1_555 1_555
C19 H17 1_555 1_555
C20 C1 1_555 1_555
C21 C2 1_555 1_555
H9 C21 1_555 1_555
C22 N4 1_555 1_555
H10 C22 1_555 1_555
C23 N3 1_555 1_555
H11 C23 1_555 1_555
C24 N2 1_555 1_555
H12 C24 1_555 1_555
H13 C10 1_555 1_555
H14 C3 1_555 1_555
H15 C6 1_555 1_555
O1A C5A 1_555 1_555
O2A C5A 1_555 1_555
O3A C20A 1_555 1_555
O4A C20A 1_555 1_555
C1A C3A 1_555 1_555
C2A C4 1_555 1_555
C3A C9A 1_555 1_555
C5A C9A 1_555 1_555
C6A C9A 1_555 1_555
C10A C1A 1_555 1_555
C11A C2A 1_555 1_555
C20A C1A 1_555 1_555
C21A C15 1_555 1_555
H9A C21A 1_555 1_555
H13A C10A 1_555 1_555
H14A C3A 1_555 1_555
H15A C6A 1_555 1_555
N1D C7D 1_555 1_555
N4D C8D 1_555 1_555
C7D C13 1_555 1_555
C8D N1D 1_555 1_555
H3D C8D 1_555 1_555
C13D C7 1_555 1_555
H4D C13D 1_555 1_555
C14D C7D 1_555 1_555
H5D C14D 1_555 1_555
C18D N1D 1_555 1_555
H8D C18D 1_555 1_555
C22D N4D 1_555 1_555
H10D C22D 1_555 1_555
N2D C12D 1_555 1_555
N3D C16D 1_555 1_555
C12D C17 1_555 1_555
C16D N2D 1_555 1_555
H7D C16D 1_555 1_555
C17D C12 1_555 1_555
C19D C12D 1_555 1_555
C23D N3D 1_555 1_555
H11D C23D 1_555 1_555
C24D N2D 1_555 1_555
H12D C24D 1_555 1_555
H17D C19D 1_555 1_555
Co1A O4A 1_555 1_555
O5A Co1A 1_555 1_555
H1A O5A 1_555 1_555
H2A O5A 1_555 1_555
Co1D O1A 1_555 1_555
Co1D_2 N4D 1_555 1_555
Co1D_3 N3D 1_555 1_555
Co1E O1 1_555 1_555
O1D Co1A 1_555 1_555
O1E Co1 1_555 1_555
O2D Co1A 1_555 1_555
O2E Co1 1_555 1_555
N3A Co1A 1_555 1_555
N4A Co1A 1_555 1_555
O2 Co1E 1_555 1_555
N3 C16 1_555 1_555
N4 C8 1_555 1_555
C6 C11 1_555 1_555
C10 C11 1_555 1_555
C15 C21 1_555 1_555
C18 C22 1_555 1_555
C23 C24 1_555 1_555
O2A Co1D 1_555 1_555
C2A C21A 1_555 1_555
C6A C11A 1_555 1_555
C10A C11A 1_555 1_555
C13D C14D 1_555 1_555
C18D C22D 1_555 1_555
C17D C19D 1_555 1_555
C23D C24D 1_555 1_555

#END
