
#######################################################################
#
#                 Cambridge Crystallographic Data Centre
#                                CCDC 
#
#######################################################################
#
# If this CIF has been generated from an entry in the Cambridge 
# Structural Database, then it will include bibliographic, chemical, 
# crystal, experimental, refinement or atomic coordinate data resulting 
# from the CCDC's data processing and validation procedures.
#
#######################################################################

data_MUDJUR
_symmetry_cell_setting           hexagonal
_symmetry_space_group_name_H-M   'P 61 2 2'
_symmetry_Int_Tables_number      178
_space_group_name_Hall           "P 61 2' (0,0,5)"
loop_
_symmetry_equiv_pos_site_id
_symmetry_equiv_pos_as_xyz
1 x,y,z
2 -y,x-y,1/3+z
3 -x+y,-x,2/3+z
4 -x,-y,1/2+z
5 y,-x+y,5/6+z
6 x-y,x,1/6+z
7 y,x,1/3-z
8 x-y,-y,-z
9 -x,-x+y,2/3-z
10 -y,-x,5/6-z
11 -x+y,y,1/2-z
12 x,x-y,1/6-z
_cell_length_a                   11.1347(3)
_cell_length_b                   11.1347(3)
_cell_length_c                   60.938(3)
_cell_angle_alpha                90
_cell_angle_beta                 90
_cell_angle_gamma                120
_cell_volume                     6542.98
loop_
_atom_site_label
_atom_site_type_symbol
_atom_site_fract_x
_atom_site_fract_y
_atom_site_fract_z
Cu1 Cu -0.19466(6) 0.0000 0.0000
C1 C 0.1223(5) 0.9754(5) 0.06169(7)
C2 C 0.2549(5) 1.0978(5) 0.05572(7)
C3 C 0.3798(5) 1.1006(5) 0.06048(7)
C4 C 0.3817(5) 0.9920(6) 0.07150(7)
C5 C 0.2502(5) 0.8676(5) 0.07799(7)
C6 C 0.2553(5) 1.2072(5) 0.04510(7)
H1 H 0.1703 1.2047 0.0421
C7 C 0.3805(6) 1.3216(5) 0.03874(9)
H2 H 0.3796 1.3964 0.0314
C8 C 0.5029(6) 1.3287(6) 0.04278(8)
H3 H 0.5866 1.4081 0.0382
C9 C 0.5082(6) 1.2193(5) 0.05370(8)
C10 C 0.6313(6) 1.2200(6) 0.05855(9)
H4 H 0.7174 1.2975 0.0543
C11 C 0.6304(6) 1.1126(7) 0.06914(10)
H5 H 0.7160 1.1164 0.0721
C12 C 0.5055(5) 0.9951(7) 0.07587(9)
H6 H 0.5063 0.9202 0.0832
C13 C -0.0029(5) 0.7347(5) 0.07563(7)
H7 H -0.0802 0.7543 0.0768
H8 H 0.0021 0.6920 0.0896
C14 C -0.0301(5) 0.6364(5) 0.05720(7)
C15 C 0.0402(5) 0.5704(5) 0.05087(6)
H9 H 0.1130 0.5673 0.0585
C16 C 0.0211(6) 0.4334(5) 0.01614(7)
H10 H 0.0011 0.4515 0.0009
C17 C 0.1748(6) 0.4806(6) 0.01785(10)
H11 H 0.2294 0.5805 0.0150
H12 H 0.1985 0.4306 0.0070
H13 H 0.1953 0.4612 0.0326
C18 C -0.0623(5) 0.2771(5) 0.02044(7)
C19 C -0.0034(4) -0.1066(5) 0.00829(6)
H14 H -0.0844 -0.1829 0.0143
C20 C 0.1180(4) -0.1103(4) 0.00851(6)
H15 H 0.1194 -0.1885 0.0145
C21 C 0.2392(4) 0.0000 0.0000
C22 C 0.3724(5) 0.0000 0.0000
C23 C 0.3969(4) -0.0825(5) 0.01424(7)
H16 H 0.3272 -0.1408 0.0244
C24 C 0.5222(4) -0.0805(5) 0.01378(7)
H17 H 0.5357 -0.1387 0.0237
N1 N 0.1285(4) 0.8656(4) 0.07206(5)
N2 N -0.1261(4) 0.6130(4) 0.04163(6)
N3 N -0.1171(4) 0.5360(4) 0.02598(6)
N4 N -0.0159(4) 0.5107(4) 0.03145(6)
N5 N -0.0124(4) 0.0000 0.0000
N6 N 0.6254(4) 0.0000 0.0000
O1 O 0.0099(4) 0.9649(3) 0.05785(5)
O2 O 0.2441(3) 0.7698(4) 0.08790(6)
O3 O -0.0937(3) 0.2045(3) 0.00313(5)
O4 O -0.0883(4) 0.2346(3) 0.03944(5)
O5 O -0.2267(3) -0.0468(4) 0.03923(5)
H18 H -0.1871 0.0370 0.0430
H19 H -0.1753 -0.0706 0.0457
Cu1_2 Cu 0.80534(6) 0.0000 0.0000
C1G C -0.8531(7) -0.9754(5) -0.06169(7)
C2G C -0.8429(7) -1.0978(5) -0.05572(7)
C3G C -0.7208(7) -1.1006(5) -0.06048(7)
C4G C -0.6103(8) -0.9920(6) -0.07150(7)
C5G C -0.6174(7) -0.8676(5) -0.07799(7)
C6G C -0.9519(7) -1.2072(5) -0.04510(7)
H1G H -1.0344 -1.2047 -0.0421
C7G C -0.9411(8) -1.3216(5) -0.03874(9)
H2G H -1.0168 -1.3964 -0.0314
C8G C -0.8258(8) -1.3287(6) -0.04278(8)
H3G H -0.8215 -1.4081 -0.0382
C9G C -0.7111(8) -1.2193(5) -0.05370(8)
C10G C -0.5887(8) -1.2200(6) -0.05855(9)
H4G H -0.5801 -1.2975 -0.0543
C11G C -0.4822(9) -1.1126(7) -0.06914(10)
H5G H -0.4004 -1.1164 -0.0721
C12G C -0.4896(9) -0.9951(7) -0.07587(9)
H6G H -0.4139 -0.9202 -0.0832
C13G C -0.7376(7) -0.7347(5) -0.07563(7)
H7G H -0.8345 -0.7543 -0.0768
H8G H -0.6899 -0.6920 -0.0896
C14G C -0.6665(7) -0.6364(5) -0.05720(7)
C15G C -0.5302(7) -0.5704(5) -0.05087(6)
H9G H -0.4543 -0.5673 -0.0585
C16G C -0.4123(8) -0.4334(5) -0.01614(7)
H10G H -0.4504 -0.4515 -0.0009
C17G C -0.3058(8) -0.4806(6) -0.01785(10)
H11G H -0.3511 -0.5805 -0.0150
H12G H -0.2321 -0.4306 -0.0070
H13G H -0.2659 -0.4612 -0.0326
C18G C -0.3394(7) -0.2771(5) -0.02044(7)
C19G C 0.1032(6) 0.1066(5) -0.00829(6)
H14G H 0.0985 0.1829 -0.0143
C20G C 0.2283(6) 0.1103(4) -0.00851(6)
H15G H 0.3079 0.1885 -0.0145
C23G C 0.4794(6) 0.0825(5) -0.01424(7)
H16G H 0.4680 0.1408 -0.0244
C24G C 0.6027(6) 0.0805(5) -0.01378(7)
H17G H 0.6744 0.1387 -0.0237
N1G N -0.7371(6) -0.8656(4) -0.07206(5)
N2G N -0.7391(6) -0.6130(4) -0.04163(6)
N3G N -0.6531(6) -0.5360(4) -0.02598(6)
N4G N -0.5266(6) -0.5107(4) -0.03145(6)
N6_2 N -0.3746(4) 0.0000 0.0000
O1G O -0.9550(5) -0.9649(3) -0.05785(5)
O2G O -0.5257(5) -0.7698(4) -0.08790(6)
O3G O -0.2982(4) -0.2045(3) -0.00313(5)
O4G O -0.3229(5) -0.2346(3) -0.03944(5)
O5G O -0.1799(5) 0.0468(4) -0.03923(5)
H18G H -0.2241 -0.0370 -0.0430
H19G H -0.1047 0.0706 -0.0457
loop_
_geom_bond_atom_site_label_1
_geom_bond_atom_site_label_2
_geom_bond_site_symmetry_1
_geom_bond_site_symmetry_2
Cu1 N5 1_555 1_555
C1 C2 1_555 1_555
C2 C3 1_555 1_555
C3 C4 1_555 1_555
C4 C5 1_555 1_555
C5 N1 1_555 1_555
C6 C2 1_555 1_555
H1 C6 1_555 1_555
C7 C6 1_555 1_555
H2 C7 1_555 1_555
C8 C7 1_555 1_555
H3 C8 1_555 1_555
C9 C3 1_555 1_555
C10 C9 1_555 1_555
H4 C10 1_555 1_555
C11 C10 1_555 1_555
H5 C11 1_555 1_555
C12 C4 1_555 1_555
H6 C12 1_555 1_555
C13 H7 1_555 1_555
H8 C13 1_555 1_555
C14 C13 1_555 1_555
C15 C14 1_555 1_555
H9 C15 1_555 1_555
C16 H10 1_555 1_555
C17 C16 1_555 1_555
H11 C17 1_555 1_555
H12 C17 1_555 1_555
H13 C17 1_555 1_555
C18 C16 1_555 1_555
C19 H14 1_555 1_555
C20 C19 1_555 1_555
H15 C20 1_555 1_555
C21 C20 1_555 1_555
C22 C21 1_555 1_555
C23 C22 1_555 1_555
H16 C23 1_555 1_555
C24 C23 1_555 1_555
H17 C24 1_555 1_555
N1 C1 1_555 1_555
N2 C14 1_555 1_555
N3 N2 1_555 1_555
N4 C15 1_555 1_555
N5 C19 1_555 1_555
N6 C24 1_555 1_555
O1 C1 1_555 1_555
O2 C5 1_555 1_555
O3 Cu1 1_555 1_555
O4 C18 1_555 1_555
O5 Cu1 1_555 1_555
H18 O5 1_555 1_555
H19 O5 1_555 1_555
Cu1_2 N6 1_555 1_555
C1G C2G 1_555 1_555
C2G C3G 1_555 1_555
C3G C4G 1_555 1_555
C4G C5G 1_555 1_555
C5G N1G 1_555 1_555
C6G C2G 1_555 1_555
H1G C6G 1_555 1_555
C7G C6G 1_555 1_555
H2G C7G 1_555 1_555
C8G C7G 1_555 1_555
H3G C8G 1_555 1_555
C9G C3G 1_555 1_555
C10G C9G 1_555 1_555
H4G C10G 1_555 1_555
C11G C10G 1_555 1_555
H5G C11G 1_555 1_555
C12G C4G 1_555 1_555
H6G C12G 1_555 1_555
C13G H7G 1_555 1_555
H8G C13G 1_555 1_555
C14G C13G 1_555 1_555
C15G C14G 1_555 1_555
H9G C15G 1_555 1_555
C16G H10G 1_555 1_555
C17G C16G 1_555 1_555
H11G C17G 1_555 1_555
H12G C17G 1_555 1_555
H13G C17G 1_555 1_555
C18G C16G 1_555 1_555
C19G N5 1_555 1_555
H14G C19G 1_555 1_555
C20G C21 1_555 1_555
H15G C20G 1_555 1_555
C23G C22 1_555 1_555
H16G C23G 1_555 1_555
C24G N6 1_555 1_555
H17G C24G 1_555 1_555
N1G C1G 1_555 1_555
N2G C14G 1_555 1_555
N3G N2G 1_555 1_555
N4G C15G 1_555 1_555
N6_2 Cu1 1_555 1_555
O1G C1G 1_555 1_555
O2G C5G 1_555 1_555
O3G Cu1 1_555 1_555
O4G C18G 1_555 1_555
O5G Cu1 1_555 1_555
H18G O5G 1_555 1_555
H19G O5G 1_555 1_555
C8 C9 1_555 1_555
C11 C12 1_555 1_555
C13 N1 1_555 1_555
C16 N4 1_555 1_555
C18 O3 1_555 1_555
N3 N4 1_555 1_555
C8G C9G 1_555 1_555
C11G C12G 1_555 1_555
C13G N1G 1_555 1_555
C16G N4G 1_555 1_555
C18G O3G 1_555 1_555
C19G C20G 1_555 1_555
C23G C24G 1_555 1_555
N3G N4G 1_555 1_555

#END
