
#######################################################################
#
#                 Cambridge Crystallographic Data Centre
#                                CCDC 
#
#######################################################################
#
# If this CIF has been generated from an entry in the Cambridge 
# Structural Database, then it will include bibliographic, chemical, 
# crystal, experimental, refinement or atomic coordinate data resulting 
# from the CCDC's data processing and validation procedures.
#
#######################################################################

data_MUDJUS
_symmetry_cell_setting           triclinic
_symmetry_space_group_name_H-M   'P 1'
_symmetry_Int_Tables_number      1
_space_group_name_Hall           'P 1'
loop_
_symmetry_equiv_pos_site_id
_symmetry_equiv_pos_as_xyz
1 x,y,z
_cell_length_a                   6.783(3)
_cell_length_b                   8.810(2)
_cell_length_c                   9.363(7)
_cell_angle_alpha                65.79(9)
_cell_angle_beta                 87.94(12)
_cell_angle_gamma                85.27(9)
_cell_volume                     508.567
loop_
_atom_site_label
_atom_site_type_symbol
_atom_site_fract_x
_atom_site_fract_y
_atom_site_fract_z
V1 V 1.0748(3) 1.5834(3) 0.4540(3)
V2 V 0.4913(3) 0.3291(3) 0.9538(3)
O1 O 1.0590(16) 1.6313(18) 0.6054(17)
O2 O 0.491(2) 0.2781(16) 0.8096(14)
O3 O 0.9640(18) 1.3618(15) 0.5207(16)
O4 O 1.001(2) 1.2652(16) 0.7891(17)
O5 O 0.554(2) 0.6433(17) 0.6227(15)
O6 O 0.599(2) 0.5497(18) 0.8765(18)
O7 O 0.4614(18) 0.3325(15) 1.1691(15)
O8 O 0.375(2) 0.1890(15) 1.4355(17)
O9 O 0.1911(19) -0.2818(17) 0.9765(15)
O10 O 0.1055(17) -0.4172(16) 1.2173(14)
O11 O 0.7942(19) 1.6933(16) 0.3684(16)
O12 O 1.3533(19) 1.4687(16) 0.4898(17)
O13 O 0.2072(18) 0.4490(15) 0.9221(15)
O14 O 0.7657(19) 0.2221(16) 1.0330(16)
N1 N 0.822(3) 1.0783(19) 0.5501(18)
N2 N 0.729(3) 0.844(2) 0.842(2)
N3 N 0.360(3) 0.1061(18) 1.0922(18)
N4 N 0.194(2) -0.1783(16) 1.2999(17)
C1 C 0.952(3) 1.2455(16) 0.6695(14)
C2 C 0.857(3) 1.0902(17) 0.685(2)
C3 C 0.811(3) 0.972(3) 0.842(3)
C4 C 0.746(3) 0.932(3) 0.580(2)
C5 C 0.7000(19) 0.809(3) 0.7190(17)
C6 C 0.607(3) 0.643(3) 0.750(3)
C7 C 0.386(3) 0.206(3) 1.296(3)
C8 C 0.334(3) 0.076(2) 1.2505(19)
C9 C 0.257(3) -0.066(2) 1.349(3)
C10 C 0.316(3) -0.016(2) 1.044(3)
C11 C 0.226(3) -0.155(2) 1.157(2)
C12 C 0.165(3) -0.2969(18) 1.1112(17)
H1 H 0.8379 0.9870 0.9322
H2 H 0.7215 0.9119 0.4925
H3 H 0.2463 -0.0879 1.4552
H4 H 0.3437 -0.0069 0.9434
V1_2 V 0.0748(3) -0.4166(3) 1.4540(3)
O10_2 O 1.1055(17) 1.5828(16) 0.2173(14)
N4_2 N 1.194(2) 1.8217(16) 0.2999(17)
O15 O 0.945(2) 0.285(2) 1.246(2)
O16 O 0.6206(19) 1.6298(15) 0.1676(15)
loop_
_geom_bond_atom_site_label_1
_geom_bond_atom_site_label_2
_geom_bond_site_symmetry_1
_geom_bond_site_symmetry_2
V1 O1 1_555 1_555
V2 O2 1_555 1_555
O3 V1 1_555 1_555
O4 C1 1_555 1_555
O5 C6 1_555 1_555
O6 V2 1_555 1_555
O7 V2 1_555 1_555
O8 C7 1_555 1_555
O9 C12 1_555 1_555
O10 C12 1_555 1_555
O11 V1 1_555 1_555
O12 V1 1_555 1_555
O13 V2 1_555 1_555
O14 V2 1_555 1_555
N1 C2 1_555 1_555
N2 C3 1_555 1_555
N3 V2 1_555 1_555
N4 C9 1_555 1_555
C1 O3 1_555 1_555
C2 C1 1_555 1_555
C3 C2 1_555 1_555
C4 N1 1_555 1_555
C5 N2 1_555 1_555
C6 O6 1_555 1_555
C7 O7 1_555 1_555
C8 N3 1_555 1_555
C9 C8 1_555 1_555
C10 N3 1_555 1_555
C11 N4 1_555 1_555
C12 C11 1_555 1_555
H1 C3 1_555 1_555
H2 C4 1_555 1_555
H3 C9 1_555 1_555
H4 C10 1_555 1_555
V1_2 O10 1_555 1_555
O10_2 V1 1_555 1_555
N4_2 V1 1_555 1_555
N4 V1_2 1_555 1_555
C4 C5 1_555 1_555
C5 C6 1_555 1_555
C7 C8 1_555 1_555
C10 C11 1_555 1_555

#END
