
#######################################################################
#
#                 Cambridge Crystallographic Data Centre
#                                CCDC 
#
#######################################################################
#
# If this CIF has been generated from an entry in the Cambridge 
# Structural Database, then it will include bibliographic, chemical, 
# crystal, experimental, refinement or atomic coordinate data resulting 
# from the CCDC's data processing and validation procedures.
#
#######################################################################

data_MUDJOL
_symmetry_cell_setting           hexagonal
_symmetry_space_group_name_H-M   'P 61 2 2'
_symmetry_Int_Tables_number      178
_space_group_name_Hall           "P 61 2' (0,0,5)"
loop_
_symmetry_equiv_pos_site_id
_symmetry_equiv_pos_as_xyz
1 x,y,z
2 -y,x-y,1/3+z
3 -x+y,-x,2/3+z
4 -x,-y,1/2+z
5 y,-x+y,5/6+z
6 x-y,x,1/6+z
7 y,x,1/3-z
8 x-y,-y,-z
9 -x,-x+y,2/3-z
10 -y,-x,5/6-z
11 -x+y,y,1/2-z
12 x,x-y,1/6-z
_cell_length_a                   11.2004(3)
_cell_length_b                   11.2004(3)
_cell_length_c                   62.448(3)
_cell_angle_alpha                90
_cell_angle_beta                 90
_cell_angle_gamma                120
_cell_volume                     6784.47
loop_
_atom_site_label
_atom_site_type_symbol
_atom_site_fract_x
_atom_site_fract_y
_atom_site_fract_z
Cu1 Cu -0.21240(4) 0.0000 0.0000
C1 C 0.0757(4) 0.9484(3) 0.06262(5)
C2 C 0.2036(4) 1.0738(3) 0.05647(5)
C3 C 0.3320(4) 1.0825(4) 0.06018(5)
C4 C 0.3403(3) 0.9747(4) 0.07016(5)
C5 C 0.2146(4) 0.8501(3) 0.07686(5)
C6 C 0.1976(4) 1.1809(3) 0.04654(5)
H1 H 0.1110 1.1741 0.0438
C7 C 0.3197(5) 1.2997(4) 0.04049(6)
H2 H 0.3155 1.3741 0.0339
C8 C 0.4445(5) 1.3095(4) 0.04394(6)
H3 H 0.5260 1.3910 0.0397
C9 C 0.4556(4) 1.2027(4) 0.05347(6)
C10 C 0.5820(4) 1.2076(5) 0.05752(6)
H4 H 0.6656 1.2873 0.0534
C11 C 0.5873(4) 1.1023(5) 0.06703(6)
H5 H 0.6739 1.1081 0.0693
C12 C 0.4664(4) 0.9846(4) 0.07352(6)
H6 H 0.4712 0.9111 0.0803
C13 C -0.0378(3) 0.7127(3) 0.07702(5)
H7 H -0.1151 0.7295 0.0799
H8 H -0.0244 0.6686 0.0898
C14 C -0.0703(3) 0.6202(3) 0.05797(5)
C15 C -0.0012(4) 0.5611(3) 0.04937(5)
H9 H 0.0761 0.5595 0.0553
C16 C -0.0333(4) 0.4324(4) 0.01426(6)
H10 H -0.0743 0.4408 0.0005
C17 C 0.1197(5) 0.4990(5) 0.01111(10)
H11 H 0.1593 0.5988 0.0095
H12 H 0.1387 0.4615 -0.0018
H13 H 0.1610 0.4802 0.0236
C18 C -0.0961(3) 0.2798(3) 0.01923(5)
C19 C -0.0205(3) -0.1064(3) 0.00776(4)
H14 H -0.1016 -0.1832 0.0133
C20 C 0.1016(3) -0.1102(3) 0.00815(5)
H15 H 0.1027 -0.1880 0.0140
C21 C 0.2222(4) 0.0000 0.0000
C22 C 0.3557(3) 0.0000 0.0000
C23 C 0.3797(3) -0.0818(3) 0.01409(5)
H16 H 0.3105 -0.1395 0.0240
C24 C 0.5036(3) -0.0791(3) 0.01362(5)
H17 H 0.5176 -0.1359 0.0234
N1 N 0.0890(3) 0.8442(3) 0.07256(4)
N2 N -0.1743(3) 0.5974(3) 0.04445(5)
N3 N -0.1715(3) 0.5261(3) 0.02801(5)
N4 N -0.0648(3) 0.5053(3) 0.03079(4)
N5 N -0.0294(3) 0.0000 0.0000
N6 N 0.6060(3) 0.0000 0.0000
O1 O -0.0386(2) 0.9313(2) 0.05906(4)
O2 O 0.2127(3) 0.7519(3) 0.08550(4)
O3 O -0.1111(2) 0.2067(2) 0.00283(3)
O4 O -0.1253(3) 0.2410(2) 0.03791(4)
O5 O -0.2342(2) -0.0331(2) 0.03709(3)
H18 H -0.2020 0.0510 0.0398
H19 H -0.1759 -0.0464 0.0435
Cu1_2 Cu 0.78760(4) 0.0000 0.0000
C1G C -0.8727(5) -0.9484(3) -0.06262(5)
C2G C -0.8702(5) -1.0738(3) -0.05647(5)
C3G C -0.7505(6) -1.0825(4) -0.06018(5)
C4G C -0.6344(5) -0.9747(4) -0.07016(5)
C5G C -0.6355(5) -0.8501(3) -0.07686(5)
C6G C -0.9833(5) -1.1809(3) -0.04654(5)
H1G H -1.0631 -1.1741 -0.0438
C7G C -0.9800(6) -1.2997(4) -0.04049(6)
H2G H -1.0586 -1.3741 -0.0339
C8G C -0.8650(6) -1.3095(4) -0.04394(6)
H3G H -0.8650 -1.3910 -0.0397
C9G C -0.7471(6) -1.2027(4) -0.05347(6)
C10G C -0.6256(6) -1.2076(5) -0.05752(6)
H4G H -0.6217 -1.2873 -0.0534
C11G C -0.5150(6) -1.1023(5) -0.06703(6)
H5G H -0.4342 -1.1081 -0.0693
C12G C -0.5182(6) -0.9846(4) -0.07352(6)
H6G H -0.4399 -0.9111 -0.0803
C13G C -0.7505(4) -0.7127(3) -0.07702(5)
H7G H -0.8446 -0.7295 -0.0799
H8G H -0.6930 -0.6686 -0.0898
C14G C -0.6905(4) -0.6202(3) -0.05797(5)
C15G C -0.5623(5) -0.5611(3) -0.04937(5)
H9G H -0.4834 -0.5595 -0.0553
C16G C -0.4657(6) -0.4324(4) -0.01426(6)
H10G H -0.5151 -0.4408 -0.0005
C17G C -0.3793(7) -0.4990(5) -0.01111(10)
H11G H -0.4395 -0.5988 -0.0095
H12G H -0.3228 -0.4615 0.0018
H13G H -0.3192 -0.4802 -0.0236
C18G C -0.3759(4) -0.2798(3) -0.01923(5)
C19G C 0.0859(4) 0.1064(3) -0.00776(4)
H14G H 0.0816 0.1832 -0.0133
C20G C 0.2118(4) 0.1102(3) -0.00815(5)
H15G H 0.2907 0.1880 -0.0140
C23G C 0.4615(4) 0.0818(3) -0.01409(5)
H16G H 0.4500 0.1395 -0.0240
C24G C 0.5827(4) 0.0791(3) -0.01362(5)
H17G H 0.6535 0.1359 -0.0234
N1G N -0.7552(4) -0.8442(3) -0.07256(4)
N2G N -0.7717(4) -0.5974(3) -0.04445(5)
N3G N -0.6976(4) -0.5261(3) -0.02801(5)
N4G N -0.5701(4) -0.5053(3) -0.03079(4)
N6_2 N -0.3940(3) 0.0000 0.0000
O1G O -0.9699(3) -0.9313(2) -0.05906(4)
O2G O -0.5392(4) -0.7519(3) -0.08550(4)
O3G O -0.3178(3) -0.2067(2) -0.00283(3)
O4G O -0.3663(4) -0.2410(2) -0.03791(4)
O5G O -0.2011(3) 0.0331(2) -0.03709(3)
H18G H -0.2530 -0.0510 -0.0398
H19G H -0.1295 0.0464 -0.0435
O6 O 0.3657(4) 0.6974(3) 0.11744(6)
H20 H 0.3291 0.7142 0.1070
H21 H 0.4357 0.7720 0.1209
O7 O 0.6005(3) 0.9466(3) 0.12682(7)
H22 H 0.6448 0.9277 0.1357
H23 H 0.6309 0.9345 0.1152
O8 O 0.672(2) 0.8358(10) 0.0833
loop_
_geom_bond_atom_site_label_1
_geom_bond_atom_site_label_2
_geom_bond_site_symmetry_1
_geom_bond_site_symmetry_2
Cu1 N5 1_555 1_555
C1 C2 1_555 1_555
C2 C3 1_555 1_555
C3 C4 1_555 1_555
C4 C5 1_555 1_555
C5 N1 1_555 1_555
C6 C2 1_555 1_555
H1 C6 1_555 1_555
C7 C6 1_555 1_555
H2 C7 1_555 1_555
C8 C7 1_555 1_555
H3 C8 1_555 1_555
C9 C3 1_555 1_555
C10 C9 1_555 1_555
H4 C10 1_555 1_555
C11 C10 1_555 1_555
H5 C11 1_555 1_555
C12 C4 1_555 1_555
H6 C12 1_555 1_555
C13 H7 1_555 1_555
H8 C13 1_555 1_555
C14 C13 1_555 1_555
C15 C14 1_555 1_555
H9 C15 1_555 1_555
C16 H10 1_555 1_555
C17 C16 1_555 1_555
H11 C17 1_555 1_555
H12 C17 1_555 1_555
H13 C17 1_555 1_555
C18 C16 1_555 1_555
C19 H14 1_555 1_555
C20 C19 1_555 1_555
H15 C20 1_555 1_555
C21 C20 1_555 1_555
C22 C21 1_555 1_555
C23 C22 1_555 1_555
H16 C23 1_555 1_555
C24 C23 1_555 1_555
H17 C24 1_555 1_555
N1 C1 1_555 1_555
N2 C14 1_555 1_555
N3 N2 1_555 1_555
N4 C15 1_555 1_555
N5 C19 1_555 1_555
N6 C24 1_555 1_555
O1 C1 1_555 1_555
O2 C5 1_555 1_555
O3 Cu1 1_555 1_555
O4 C18 1_555 1_555
O5 Cu1 1_555 1_555
H18 O5 1_555 1_555
H19 O5 1_555 1_555
O6 H20 1_555 1_555
H21 O6 1_555 1_555
O7 H22 1_555 1_555
H23 O7 1_555 1_555
Cu1_2 N6 1_555 1_555
C1G C2G 1_555 1_555
C2G C3G 1_555 1_555
C3G C4G 1_555 1_555
C4G C5G 1_555 1_555
C5G N1G 1_555 1_555
C6G C2G 1_555 1_555
H1G C6G 1_555 1_555
C7G C6G 1_555 1_555
H2G C7G 1_555 1_555
C8G C7G 1_555 1_555
H3G C8G 1_555 1_555
C9G C3G 1_555 1_555
C10G C9G 1_555 1_555
H4G C10G 1_555 1_555
C11G C10G 1_555 1_555
H5G C11G 1_555 1_555
C12G C4G 1_555 1_555
H6G C12G 1_555 1_555
C13G H7G 1_555 1_555
H8G C13G 1_555 1_555
C14G C13G 1_555 1_555
C15G C14G 1_555 1_555
H9G C15G 1_555 1_555
C16G H10G 1_555 1_555
C17G C16G 1_555 1_555
H11G C17G 1_555 1_555
H12G C17G 1_555 1_555
H13G C17G 1_555 1_555
C18G C16G 1_555 1_555
C19G N5 1_555 1_555
H14G C19G 1_555 1_555
C20G C21 1_555 1_555
H15G C20G 1_555 1_555
C23G C22 1_555 1_555
H16G C23G 1_555 1_555
C24G N6 1_555 1_555
H17G C24G 1_555 1_555
N1G C1G 1_555 1_555
N2G C14G 1_555 1_555
N3G N2G 1_555 1_555
N4G C15G 1_555 1_555
N6_2 Cu1 1_555 1_555
O1G C1G 1_555 1_555
O2G C5G 1_555 1_555
O3G Cu1 1_555 1_555
O4G C18G 1_555 1_555
O5G Cu1 1_555 1_555
H18G O5G 1_555 1_555
H19G O5G 1_555 1_555
C8 C9 1_555 1_555
C11 C12 1_555 1_555
C13 N1 1_555 1_555
C16 N4 1_555 1_555
C18 O3 1_555 1_555
N3 N4 1_555 1_555
C8G C9G 1_555 1_555
C11G C12G 1_555 1_555
C13G N1G 1_555 1_555
C16G N4G 1_555 1_555
C18G O3G 1_555 1_555
C19G C20G 1_555 1_555
C23G C24G 1_555 1_555
N3G N4G 1_555 1_555

#END
