
#######################################################################
#
#                 Cambridge Crystallographic Data Centre
#                                CCDC 
#
#######################################################################
#
# If this CIF has been generated from an entry in the Cambridge 
# Structural Database, then it will include bibliographic, chemical, 
# crystal, experimental, refinement or atomic coordinate data resulting 
# from the CCDC's data processing and validation procedures.
#
#######################################################################

data_MUDLAZ
_symmetry_cell_setting           trigonal
_symmetry_space_group_name_H-M   'P 32'
_symmetry_Int_Tables_number      145
_space_group_name_Hall           'P 32'
loop_
_symmetry_equiv_pos_site_id
_symmetry_equiv_pos_as_xyz
1 x,y,z
2 -y,x-y,2/3+z
3 -x+y,-x,1/3+z
_cell_length_a                   20.444(2)
_cell_length_b                   20.444(2)
_cell_length_c                   16.064(3)
_cell_angle_alpha                90
_cell_angle_beta                 90
_cell_angle_gamma                120
_cell_volume                     5814.55
loop_
_atom_site_label
_atom_site_type_symbol
_atom_site_fract_x
_atom_site_fract_y
_atom_site_fract_z
Cd1 Cd 0.68260(3) 0.84546(3) 0.19989(5)
S1 S 0.38651(11) 0.51068(14) 0.37987(17)
S2 S 0.46886(13) 0.60325(12) 0.31910(17)
C1 C 0.3153(4) 0.3895(4) 0.5193(6)
C2 C 0.6042(4) 0.6948(4) 0.2016(7)
C3 C 0.4976(5) 0.5635(4) 0.2366(6)
C4 C 0.4828(7) 0.4574(6) 0.1629(11)
H1 H 0.4568 0.4053 0.1557
C5 C 0.4403(5) 0.4187(5) 0.5749(7)
H2 H 0.4152 0.3835 0.6168
C6 C 0.3987(4) 0.4315(4) 0.5147(6)
N1 N 1.1136(4) 0.8857(4) 0.7593(5)
N2 N 0.7672(3) 0.8879(3) 0.3072(5)
C7 C 0.5609(4) 0.6105(4) 0.1902(6)
O1 O 0.2837(4) 0.3447(5) 0.5780(8)
O2 O 0.6683(4) 0.7303(3) 0.1711(7)
C8 C 0.4601(6) 0.4869(5) 0.2223(7)
H3 H 0.4183 0.4552 0.2546
O3 O 0.5770(4) 0.7268(4) 0.2406(7)
C9 C 1.1371(8) 0.9791(6) 0.6587(8)
H4 H 1.1736 1.0218 0.6309
C10 C 1.1596(6) 0.9483(5) 0.7180(9)
H5 H 1.2107 0.9724 0.7310
C11 C 0.4384(4) 0.4880(4) 0.4532(5)
O4 O 0.2766(3) 0.4012(5) 0.4679(5)
C12 C 0.8043(6) 0.8552(5) 0.3291(6)
H6 H 0.7930 0.8098 0.3038
C13 C 0.5439(6) 0.5015(5) 0.1109(7)
H7 H 0.5579 0.4806 0.0678
C14 C 0.5165(5) 0.5234(5) 0.4526(6)
H8 H 0.5431 0.5594 0.4119
C15 C 0.8795(7) 0.9517(5) 0.4273(7)
C16 C 0.5831(5) 0.5793(5) 0.1278(7)
H9 H 0.6253 0.6108 0.0961
C17 C 0.5179(5) 0.4577(6) 0.5731(7)
H10 H 0.5454 0.4505 0.6146
C18 C 1.0667(9) 0.9518(6) 0.6384(9)
C19 C 1.0438(6) 0.8552(7) 0.7370(10)
H11 H 1.0088 0.8110 0.7636
C20 C 0.8601(7) 0.8850(6) 0.3886(8)
H12 H 0.8851 0.8591 0.4028
C21 C 1.0183(9) 0.8843(7) 0.6761(10)
H13 H 0.9678 0.8580 0.6604
C22 C 0.5545(5) 0.5075(5) 0.5087(7)
H14 H 0.6067 0.5304 0.5044
C23 C 0.7826(6) 0.9510(6) 0.3498(8)
H15 H 0.7536 0.9736 0.3397
C24 C 0.8390(7) 0.9825(6) 0.4067(8)
H16 H 0.8493 1.0275 0.4321
C25 C 0.9726(8) 0.9457(6) 0.5305(9)
H17 H 0.9343 0.9032 0.5618
H18 H 0.9900 0.9259 0.4861
C26 C 0.9384(9) 0.9904(6) 0.4931(9)
H19 H 0.9163 1.0047 0.5379
H20 H 0.9791 1.0366 0.4695
C27 C 1.0344(9) 0.9918(7) 0.5841(9)
H21 H 1.0186 1.0189 0.6209
H22 H 1.0752 1.0292 0.5500
Cd1A Cd 1.15454(3) 0.83714(4) 0.86656(5)
Cd1B Cd 0.16286(4) 0.31740(3) 0.53322(5)
N1B N 0.7721(6) 0.8864(4) 0.0926(5)
O1A O 0.6553(5) 0.9390(6) 0.2447(8)
O4A O 0.5988(5) 0.8754(6) 0.1346(5)
Cd2 Cd 0.49115(3) 0.50708(3) 0.86711(5)
O5 O 0.4803(4) 0.0880(4) 0.5780(5)
N3 N 0.1105(4) 0.5551(4) 0.2997(6)
C28 C 0.4126(5) 0.3566(4) 0.8594(6)
C29 C 0.4196(4) 0.0619(4) 0.5412(6)
C30 C 0.3779(4) 0.1065(4) 0.5338(5)
N4 N 0.4570(3) 0.5522(3) 0.7506(5)
O6 O 0.3978(4) 0.3894(4) 0.9144(6)
S3 S 0.46433(12) 0.19253(15) 0.66530(14)
C31 C 0.4881(4) 0.6510(5) 0.6501(7)
H23 H 0.5248 0.6964 0.6270
C32 C 0.3266(6) 0.0868(5) 0.4719(7)
H24 H 0.3161 0.0461 0.4375
C33 C 0.3933(5) 0.1657(5) 0.5874(6)
C34 C 0.5052(5) 0.6188(5) 0.7172(8)
H25 H 0.5534 0.6457 0.7400
S4 S 0.46084(12) 0.27845(11) 0.72833(14)
C35 C 0.1259(5) 0.6146(6) 0.3453(8)
H26 H 0.0941 0.6348 0.3418
C36 C 0.3708(4) 0.2719(4) 0.8591(5)
C37 C 0.3875(5) 0.2306(4) 0.8028(5)
O7 O 0.4600(5) 0.3918(3) 0.8068(5)
C38 C 0.3435(6) 0.1514(5) 0.8050(7)
H27 H 0.3488 0.1223 0.7640
C39 C 0.4148(4) 0.6137(4) 0.6186(6)
C40 C 0.3652(4) 0.5453(4) 0.6521(6)
H28 H 0.3161 0.5183 0.6317
C41 C 0.3978(5) 0.6519(5) 0.5501(6)
H29 H 0.4316 0.6593 0.5041
H30 H 0.4094 0.7015 0.5695
C42 C 0.1878(6) 0.6487(5) 0.3985(8)
H31 H 0.1955 0.6896 0.4310
O8 O 0.3895(4) -0.0021(4) 0.5125(7)
C43 C 0.3187(4) 0.6122(5) 0.5177(6)
H32 H 0.2837 0.6014 0.5633
H33 H 0.3077 0.5646 0.4926
C44 C 0.3150(5) 0.2341(5) 0.9192(6)
H34 H 0.3048 0.2624 0.9568
C45 C 0.3080(6) 0.6617(6) 0.4520(10)
H35 H 0.3099 0.7046 0.4803
H36 H 0.3502 0.6813 0.4135
C46 C 0.2365(6) 0.6227(5) 0.4031(9)
C47 C 0.2931(6) 0.1182(5) 0.8680(8)
H37 H 0.2695 0.0660 0.8731
C48 C 0.2748(6) 0.1567(6) 0.9247(7)
H38 H 0.2373 0.1319 0.9645
C49 C 0.3875(4) 0.5162(4) 0.7154(6)
H39 H 0.3527 0.4687 0.7357
C50 C 0.1569(6) 0.5289(6) 0.3050(10)
H40 H 0.1474 0.4873 0.2726
C51 C 0.3562(7) 0.2046(7) 0.5785(9)
H41 H 0.3672 0.2450 0.6136
C52 C 0.2200(6) 0.5602(6) 0.3568(10)
H42 H 0.2507 0.5387 0.3599
C53 C 0.2892(8) 0.1279(7) 0.4594(11)
H43 H 0.2573 0.1177 0.4139
C54 C 0.3003(8) 0.1836(9) 0.5153(12)
H44 H 0.2716 0.2073 0.5119
Cd2A Cd 0.49292(3) -0.01593(4) 0.53378(5)
Cd2B Cd 0.01593(4) 0.50885(3) 0.20044(5)
O5B O 0.6077(6) 0.5197(4) 0.9113(5)
N3A N 0.4449(4) 0.5554(6) 0.9664(6)
O8B O 0.6084(6) 0.6105(4) 0.8458(7)
Cd3 Cd 0.82128(3) 0.65065(3) 0.49700(3)
S5 S 0.80192(11) 0.93423(10) 0.71234(15)
C55 C 0.7401(4) 0.7204(3) 0.5100(5)
C56 C 0.7577(4) 1.0260(4) 0.8279(5)
N5 N 0.7872(4) 0.5692(4) 0.6095(4)
O9 O 0.7298(4) 0.6785(4) 0.4501(5)
C57 C 0.7195(4) 0.9431(4) 0.8422(6)
C58 C 0.7344(4) 0.8955(4) 0.7960(6)
O10 O 0.7260(4) 1.0619(3) 0.8548(6)
O11 O 0.8199(3) 1.0604(3) 0.7940(4)
C59 C 0.6972(4) 0.7628(4) 0.5166(5)
N6 N 0.4405(3) 0.2168(3) 1.0607(5)
C60 C 0.4556(5) 0.1725(5) 1.0145(6)
H45 H 0.4237 0.1205 1.0176
O12 O 0.7853(4) 0.7277(4) 0.5671(4)
C61 C 0.5170(6) 0.2006(6) 0.9619(7)
H46 H 0.5245 0.1677 0.9287
C62 C 0.7143(4) 0.8186(4) 0.5780(5)
S6 S 0.78968(11) 0.84063(11) 0.65028(15)
C63 C 0.6430(4) 0.7491(4) 0.4581(6)
H47 H 0.6332 0.7135 0.4169
C64 C 0.6024(5) 0.7867(5) 0.4586(7)
H48 H 0.5660 0.7773 0.4184
C65 C 0.6955(6) 0.8198(5) 0.8138(7)
H49 H 0.7029 0.7868 0.7805
C66 C 0.7219(5) 0.5398(5) 0.6483(7)
H50 H 0.6877 0.5543 0.6306
C67 C 0.8186(5) 0.5011(5) 0.7080(7)
H51 H 0.8550 0.4903 0.7276
C68 C 0.8347(5) 0.5501(5) 0.6422(6)
H52 H 0.8828 0.5714 0.6190
C69 C 0.6730(4) 0.8556(4) 0.5787(6)
H53 H 0.6831 0.8921 0.6189
C70 C 0.7489(4) 0.4684(4) 0.7443(6)
C71 C 0.6666(4) 0.9122(5) 0.9075(6)
H54 H 0.6561 0.9437 0.9395
C72 C 0.6999(5) 0.4880(5) 0.7148(7)
H55 H 0.6519 0.4677 0.7378
C73 C 0.6397(6) 0.3118(6) 0.9095(9)
H56 H 0.6424 0.2717 0.8803
H57 H 0.6814 0.3339 0.9487
C74 C 0.6513(4) 0.3720(5) 0.8464(7)
H58 H 0.6171 0.3488 0.7999
H59 H 0.6401 0.4083 0.8720
C75 C 0.7316(5) 0.4121(6) 0.8153(7)
H60 H 0.7439 0.3744 0.7968
H61 H 0.7646 0.4388 0.8617
C76 C 0.6307(6) 0.8368(6) 0.9243(8)
H62 H 0.5955 0.8167 0.9672
C77 C 0.5674(5) 0.2773(6) 0.9579(8)
C78 C 0.6469(6) 0.7917(5) 0.8785(9)
H63 H 0.6243 0.7406 0.8913
C79 C 0.5490(6) 0.3224(6) 1.0034(9)
H64 H 0.5794 0.3746 1.0004
C80 C 0.6185(5) 0.8393(5) 0.5221(6)
H65 H 0.5907 0.8639 0.5253
C81 C 0.4857(6) 0.2912(5) 1.0540(10)
H66 H 0.4743 0.3231 1.0841
Cd3A Cd 0.34935(3) 0.17063(4) 1.16367(3)
Cd3B Cd 0.82937(4) 1.17872(3) 0.83033(3)
O10A O 0.9381(3) 0.6641(5) 0.5215(6)
O11A O 0.9396(3) 0.7595(4) 0.4607(4)
N6B N 0.7763(4) 0.5595(3) 0.3940(5)
loop_
_geom_bond_atom_site_label_1
_geom_bond_atom_site_label_2
_geom_bond_site_symmetry_1
_geom_bond_site_symmetry_2
Cd1 N2 1_555 1_555
S1 S2 1_555 1_555
S2 C3 1_555 1_555
C1 C6 1_555 1_555
C2 C7 1_555 1_555
C3 C7 1_555 1_555
C4 H1 1_555 1_555
C5 H2 1_555 1_555
C6 C5 1_555 1_555
N1 C10 1_555 1_555
N2 C12 1_555 1_555
C7 C16 1_555 1_555
O1 C1 1_555 1_555
O2 Cd1 1_555 1_555
C8 C3 1_555 1_555
H3 C8 1_555 1_555
O3 Cd1 1_555 1_555
C9 H4 1_555 1_555
C10 C9 1_555 1_555
H5 C10 1_555 1_555
C11 S1 1_555 1_555
O4 C1 1_555 1_555
C12 H6 1_555 1_555
C13 C4 1_555 1_555
H7 C13 1_555 1_555
C14 C11 1_555 1_555
H8 C14 1_555 1_555
C15 C20 1_555 1_555
C16 C13 1_555 1_555
H9 C16 1_555 1_555
C17 C5 1_555 1_555
H10 C17 1_555 1_555
C18 C9 1_555 1_555
C19 N1 1_555 1_555
H11 C19 1_555 1_555
C20 C12 1_555 1_555
H12 C20 1_555 1_555
C21 C18 1_555 1_555
H13 C21 1_555 1_555
C22 C14 1_555 1_555
H14 C22 1_555 1_555
C23 N2 1_555 1_555
H15 C23 1_555 1_555
C24 C15 1_555 1_555
H16 C24 1_555 1_555
C25 H17 1_555 1_555
H18 C25 1_555 1_555
C26 C15 1_555 1_555
H19 C26 1_555 1_555
H20 C26 1_555 1_555
C27 C18 1_555 1_555
H21 C27 1_555 1_555
H22 C27 1_555 1_555
Cd2 N4 1_555 1_555
O5 C29 1_555 1_555
N3 C35 1_555 1_555
C28 O6 1_555 1_555
C29 C30 1_555 1_555
C30 C32 1_555 1_555
N4 C34 1_555 1_555
O6 Cd2 1_555 1_555
S3 C33 1_555 1_555
C31 H23 1_555 1_555
C32 H24 1_555 1_555
C33 C30 1_555 1_555
C34 C31 1_555 1_555
H25 C34 1_555 1_555
S4 S3 1_555 1_555
C35 H26 1_555 1_555
C36 C28 1_555 1_555
C37 S4 1_555 1_555
O7 Cd2 1_555 1_555
C38 C37 1_555 1_555
H27 C38 1_555 1_555
C39 C31 1_555 1_555
C40 C39 1_555 1_555
H28 C40 1_555 1_555
C41 C39 1_555 1_555
H29 C41 1_555 1_555
H30 C41 1_555 1_555
C42 C35 1_555 1_555
H31 C42 1_555 1_555
O8 C29 1_555 1_555
C43 C41 1_555 1_555
H32 C43 1_555 1_555
H33 C43 1_555 1_555
C44 C36 1_555 1_555
H34 C44 1_555 1_555
C45 C43 1_555 1_555
H35 C45 1_555 1_555
H36 C45 1_555 1_555
C46 C42 1_555 1_555
C47 C38 1_555 1_555
H37 C47 1_555 1_555
C48 C44 1_555 1_555
H38 C48 1_555 1_555
C49 N4 1_555 1_555
H39 C49 1_555 1_555
C50 N3 1_555 1_555
H40 C50 1_555 1_555
C51 C33 1_555 1_555
H41 C51 1_555 1_555
C52 C46 1_555 1_555
H42 C52 1_555 1_555
C53 C32 1_555 1_555
H43 C53 1_555 1_555
C54 C51 1_555 1_555
H44 C54 1_555 1_555
Cd3 N5 1_555 1_555
S5 C58 1_555 1_555
C55 O9 1_555 1_555
C56 C57 1_555 1_555
N5 C66 1_555 1_555
O9 Cd3 1_555 1_555
C57 C58 1_555 1_555
C58 C65 1_555 1_555
O10 C56 1_555 1_555
O11 C56 1_555 1_555
C59 C55 1_555 1_555
N6 C60 1_555 1_555
C60 H45 1_555 1_555
O12 Cd3 1_555 1_555
C61 C60 1_555 1_555
H46 C61 1_555 1_555
C62 C59 1_555 1_555
S6 S5 1_555 1_555
C63 C59 1_555 1_555
H47 C63 1_555 1_555
C64 C63 1_555 1_555
H48 C64 1_555 1_555
C65 H49 1_555 1_555
C66 H50 1_555 1_555
C67 H51 1_555 1_555
C68 N5 1_555 1_555
H52 C68 1_555 1_555
C69 C62 1_555 1_555
H53 C69 1_555 1_555
C70 C67 1_555 1_555
C71 C57 1_555 1_555
H54 C71 1_555 1_555
C72 C66 1_555 1_555
H55 C72 1_555 1_555
C73 H56 1_555 1_555
H57 C73 1_555 1_555
C74 C73 1_555 1_555
H58 C74 1_555 1_555
H59 C74 1_555 1_555
C75 C70 1_555 1_555
H60 C75 1_555 1_555
H61 C75 1_555 1_555
C76 C71 1_555 1_555
H62 C76 1_555 1_555
C77 C61 1_555 1_555
C78 C65 1_555 1_555
H63 C78 1_555 1_555
C79 C77 1_555 1_555
H64 C79 1_555 1_555
C80 C64 1_555 1_555
H65 C80 1_555 1_555
C81 N6 1_555 1_555
H66 C81 1_555 1_555
Cd1A N1 1_555 1_555
Cd1B O1 1_555 1_555
N1B Cd1 1_555 1_555
O1A Cd1 1_555 1_555
O4A Cd1 1_555 1_555
Cd2A O5 1_555 1_555
Cd2B N3 1_555 1_555
O5B Cd2 1_555 1_555
N3A Cd2 1_555 1_555
O8B Cd2 1_555 1_555
Cd3A N6 1_555 1_555
Cd3B O10 1_555 1_555
O10A Cd3 1_555 1_555
O11A Cd3 1_555 1_555
N6B Cd3 1_555 1_555
C2 O2 1_555 1_555
C2 O3 1_555 1_555
C4 C8 1_555 1_555
C6 C11 1_555 1_555
O4 Cd1B 1_555 1_555
C17 C22 1_555 1_555
C19 C21 1_555 1_555
C23 C24 1_555 1_555
C25 C26 1_555 1_555
C25 C27 1_555 1_555
C28 O7 1_555 1_555
C36 C37 1_555 1_555
C40 C49 1_555 1_555
O8 Cd2A 1_555 1_555
C45 C46 1_555 1_555
C47 C48 1_555 1_555
C50 C52 1_555 1_555
C53 C54 1_555 1_555
C55 O12 1_555 1_555
O11 Cd3B 1_555 1_555
C62 S6 1_555 1_555
C67 C68 1_555 1_555
C69 C80 1_555 1_555
C70 C72 1_555 1_555
C73 C77 1_555 1_555
C74 C75 1_555 1_555
C76 C78 1_555 1_555
C79 C81 1_555 1_555

#END
