
#######################################################################
#
#                 Cambridge Crystallographic Data Centre
#                                CCDC 
#
#######################################################################
#
# If this CIF has been generated from an entry in the Cambridge 
# Structural Database, then it will include bibliographic, chemical, 
# crystal, experimental, refinement or atomic coordinate data resulting 
# from the CCDC's data processing and validation procedures.
#
#######################################################################

data_MUDMAB
_symmetry_cell_setting           orthorhombic
_symmetry_space_group_name_H-M   'P b c n'
_symmetry_Int_Tables_number      60
_space_group_name_Hall           '-P 2n 2ab'
loop_
_symmetry_equiv_pos_site_id
_symmetry_equiv_pos_as_xyz
1 x,y,z
2 1/2-x,1/2-y,1/2+z
3 -x,y,1/2-z
4 1/2+x,1/2-y,-z
5 -x,-y,-z
6 1/2+x,1/2+y,1/2-z
7 x,-y,1/2+z
8 1/2-x,1/2+y,z
_cell_length_a                   16.8252(15)
_cell_length_b                   13.0269(12)
_cell_length_c                   18.0405(16)
_cell_angle_alpha                90
_cell_angle_beta                 90
_cell_angle_gamma                90
_cell_volume                     3954.12
loop_
_atom_site_label
_atom_site_type_symbol
_atom_site_fract_x
_atom_site_fract_y
_atom_site_fract_z
Zn1 Zn 0.0000 -0.23945(2) 0.2500
N1 N 0.07484(9) -0.11711(11) 0.20866(8)
N2 N 0.07319(9) 0.63593(11) 0.20544(8)
N3 N 0.43522(11) -0.36268(14) 0.42533(11)
H1 H 0.4443 -0.4274 0.4291
H2 H 0.4742 -0.3203 0.4214
O1 O 0.06928(8) -0.24079(9) 0.35167(7)
O2 O 0.10111(7) -0.10730(10) 0.43981(8)
O3 O 0.06032(8) -0.27641(11) 0.48214(8)
S1 S 0.10040(3) -0.21684(3) 0.42573(2)
C1 C 0.08659(11) -0.09674(14) 0.13686(10)
H3 H 0.0702 -0.1451 0.1022
C2 C 0.12177(11) -0.00784(14) 0.11141(10)
H4 H 0.1279 0.0028 0.0608
C3 C 0.14803(11) 0.06562(13) 0.16125(10)
C4 C 0.13635(14) 0.04410(15) 0.23592(11)
H5 H 0.1530 0.0907 0.2718
C5 C 0.10019(13) -0.04600(15) 0.25676(11)
H6 H 0.0929 -0.0583 0.3071
C6 C 0.18811(12) 0.16322(14) 0.13667(11)
H7 H 0.1908 0.1638 0.0830
H8 H 0.2422 0.1636 0.1554
C7 C 0.14634(12) 0.26036(13) 0.16262(12)
H9 H 0.0936 0.2633 0.1410
H10 H 0.1406 0.2585 0.2161
C8 C 0.19251(12) 0.35578(14) 0.14066(12)
H11 H 0.2445 0.3537 0.1639
H12 H 0.2003 0.3556 0.0874
C9 C 0.15125(11) 0.45394(13) 0.16267(11)
C10 C 0.10278(13) 0.50741(17) 0.11487(12)
H13 H 0.0952 0.4835 0.0668
C11 C 0.06540(13) 0.59626(16) 0.13769(11)
H14 H 0.0330 0.6303 0.1040
C12 C 0.12069(14) 0.58408(16) 0.25141(11)
H15 H 0.1279 0.6098 0.2990
C13 C 0.15953(14) 0.49522(17) 0.23259(12)
H16 H 0.1917 0.4626 0.2673
C14 C 0.20030(10) -0.25835(13) 0.42499(9)
C15 C 0.26311(11) -0.18981(14) 0.41692(10)
H17 H 0.2519 -0.1203 0.4112
C16 C 0.34160(11) -0.22136(15) 0.41713(11)
C17 C 0.35800(11) -0.32673(15) 0.42546(10)
C18 C 0.29504(12) -0.39548(14) 0.43177(11)
H18 H 0.3056 -0.4653 0.4360
C19 C 0.21704(11) -0.36208(14) 0.43188(10)
H19 H 0.1758 -0.4092 0.4366
C20 C 0.40891(12) -0.14565(18) 0.40767(16)
H20 H 0.4421 -0.1468 0.4510
H21 H 0.3876 -0.0779 0.4011
H22 H 0.4398 -0.1641 0.3650
N1B N -0.07484(9) -0.11711(11) 0.29134(8)
N2B N -0.07319(9) 0.63593(11) 0.29456(8)
N3B N -0.43522(11) -0.36268(14) 0.07467(11)
H1B H -0.4443 -0.4274 0.0709
H2B H -0.4742 -0.3203 0.0786
O1B O -0.06928(8) -0.24079(9) 0.14833(7)
O2B O -0.10111(7) -0.10730(10) 0.06019(8)
O3B O -0.06032(8) -0.27641(11) 0.01786(8)
S1B S -0.10040(3) -0.21684(3) 0.07427(2)
C1B C -0.08659(11) -0.09674(14) 0.36314(10)
H3B H -0.0702 -0.1451 0.3978
C2B C -0.12177(11) -0.00784(14) 0.38859(10)
H4B H -0.1279 0.0028 0.4392
C3B C -0.14803(11) 0.06562(13) 0.33875(10)
C4B C -0.13635(14) 0.04410(15) 0.26408(11)
H5B H -0.1530 0.0907 0.2282
C5B C -0.10019(13) -0.04600(15) 0.24324(11)
H6B H -0.0929 -0.0583 0.1929
C6B C -0.18811(12) 0.16322(14) 0.36333(11)
H7B H -0.1908 0.1638 0.4170
H8B H -0.2422 0.1636 0.3446
C7B C -0.14634(12) 0.26036(13) 0.33738(12)
H9B H -0.0936 0.2633 0.3590
H10B H -0.1406 0.2585 0.2839
C8B C -0.19251(12) 0.35578(14) 0.35934(12)
H11B H -0.2445 0.3537 0.3361
H12B H -0.2003 0.3556 0.4126
C9B C -0.15125(11) 0.45394(13) 0.33733(11)
C10B C -0.10278(13) 0.50741(17) 0.38513(12)
H13B H -0.0952 0.4835 0.4332
C11B C -0.06540(13) 0.59626(16) 0.36231(11)
H14B H -0.0330 0.6303 0.3960
C12B C -0.12069(14) 0.58408(16) 0.24859(11)
H15B H -0.1279 0.6098 0.2010
C13B C -0.15953(14) 0.49522(17) 0.26741(12)
H16B H -0.1917 0.4626 0.2327
C14B C -0.20030(10) -0.25835(13) 0.07501(9)
C15B C -0.26311(11) -0.18981(14) 0.08308(10)
H17B H -0.2519 -0.1203 0.0888
C16B C -0.34160(11) -0.22136(15) 0.08287(11)
C17B C -0.35800(11) -0.32673(15) 0.07454(10)
C18B C -0.29504(12) -0.39548(14) 0.06823(11)
H18B H -0.3056 -0.4653 0.0640
C19B C -0.21704(11) -0.36208(14) 0.06812(10)
H19B H -0.1758 -0.4092 0.0634
C20B C -0.40891(12) -0.14565(18) 0.09233(16)
H20B H -0.4421 -0.1468 0.0490
H21B H -0.3876 -0.0779 0.0989
H22B H -0.4398 -0.1641 0.1350
Zn1_2 Zn 0.0000 0.76055(2) 0.2500
N2_2 N 0.07319(9) -0.36407(11) 0.20544(8)
N2B_2 N -0.07319(9) -0.36407(11) 0.29456(8)
loop_
_geom_bond_atom_site_label_1
_geom_bond_atom_site_label_2
_geom_bond_site_symmetry_1
_geom_bond_site_symmetry_2
Zn1 N1 1_555 1_555
N1 C1 1_555 1_555
N2 C11 1_555 1_555
N3 H1 1_555 1_555
H2 N3 1_555 1_555
O1 Zn1 1_555 1_555
O2 S1 1_555 1_555
O3 S1 1_555 1_555
S1 O1 1_555 1_555
C1 H3 1_555 1_555
C2 C1 1_555 1_555
H4 C2 1_555 1_555
C3 C2 1_555 1_555
C4 C3 1_555 1_555
H5 C4 1_555 1_555
C5 N1 1_555 1_555
H6 C5 1_555 1_555
C6 C3 1_555 1_555
H7 C6 1_555 1_555
H8 C6 1_555 1_555
C7 C6 1_555 1_555
H9 C7 1_555 1_555
H10 C7 1_555 1_555
C8 C7 1_555 1_555
H11 C8 1_555 1_555
H12 C8 1_555 1_555
C9 C8 1_555 1_555
C10 C9 1_555 1_555
H13 C10 1_555 1_555
C11 C10 1_555 1_555
H14 C11 1_555 1_555
C12 N2 1_555 1_555
H15 C12 1_555 1_555
C13 C9 1_555 1_555
H16 C13 1_555 1_555
C14 S1 1_555 1_555
C15 C14 1_555 1_555
H17 C15 1_555 1_555
C16 C15 1_555 1_555
C17 N3 1_555 1_555
C18 C17 1_555 1_555
H18 C18 1_555 1_555
C19 C14 1_555 1_555
H19 C19 1_555 1_555
C20 C16 1_555 1_555
H20 C20 1_555 1_555
H21 C20 1_555 1_555
H22 C20 1_555 1_555
N1B Zn1 1_555 1_555
N2B C11B 1_555 1_555
N3B H1B 1_555 1_555
H2B N3B 1_555 1_555
O1B Zn1 1_555 1_555
O2B S1B 1_555 1_555
O3B S1B 1_555 1_555
S1B O1B 1_555 1_555
C1B N1B 1_555 1_555
H3B C1B 1_555 1_555
C2B C1B 1_555 1_555
H4B C2B 1_555 1_555
C3B C2B 1_555 1_555
C4B C3B 1_555 1_555
H5B C4B 1_555 1_555
C5B N1B 1_555 1_555
H6B C5B 1_555 1_555
C6B C3B 1_555 1_555
H7B C6B 1_555 1_555
H8B C6B 1_555 1_555
C7B C6B 1_555 1_555
H9B C7B 1_555 1_555
H10B C7B 1_555 1_555
C8B C7B 1_555 1_555
H11B C8B 1_555 1_555
H12B C8B 1_555 1_555
C9B C8B 1_555 1_555
C10B C9B 1_555 1_555
H13B C10B 1_555 1_555
C11B C10B 1_555 1_555
H14B C11B 1_555 1_555
C12B N2B 1_555 1_555
H15B C12B 1_555 1_555
C13B C9B 1_555 1_555
H16B C13B 1_555 1_555
C14B S1B 1_555 1_555
C15B C14B 1_555 1_555
H17B C15B 1_555 1_555
C16B C15B 1_555 1_555
C17B N3B 1_555 1_555
C18B C17B 1_555 1_555
H18B C18B 1_555 1_555
C19B C14B 1_555 1_555
H19B C19B 1_555 1_555
C20B C16B 1_555 1_555
H20B C20B 1_555 1_555
H21B C20B 1_555 1_555
H22B C20B 1_555 1_555
Zn1_2 N2 1_555 1_555
N2_2 Zn1 1_555 1_555
N2B_2 Zn1 1_555 1_555
C4 C5 1_555 1_555
C12 C13 1_555 1_555
C16 C17 1_555 1_555
C18 C19 1_555 1_555
N2B Zn1_2 1_555 1_555
C4B C5B 1_555 1_555
C12B C13B 1_555 1_555
C16B C17B 1_555 1_555
C18B C19B 1_555 1_555

#END
