
#######################################################################
#
#                 Cambridge Crystallographic Data Centre
#                                CCDC 
#
#######################################################################
#
# If this CIF has been generated from an entry in the Cambridge 
# Structural Database, then it will include bibliographic, chemical, 
# crystal, experimental, refinement or atomic coordinate data resulting 
# from the CCDC's data processing and validation procedures.
#
#######################################################################

data_MUDSUZ
_symmetry_cell_setting           monoclinic
_symmetry_space_group_name_H-M   'P 2/n'
_symmetry_Int_Tables_number      13
_space_group_name_Hall           '-P 2yac'
loop_
_symmetry_equiv_pos_site_id
_symmetry_equiv_pos_as_xyz
1 x,y,z
2 1/2+x,-y,1/2+z
3 -x,-y,-z
4 1/2-x,y,1/2-z
_cell_length_a                   16.0701(12)
_cell_length_b                   8.5562(3)
_cell_length_c                   19.9827(14)
_cell_angle_alpha                90
_cell_angle_beta                 105.700(2)
_cell_angle_gamma                90
_cell_volume                     2645.09
loop_
_atom_site_label
_atom_site_type_symbol
_atom_site_fract_x
_atom_site_fract_y
_atom_site_fract_z
Au1 Au 0.13336(3) -0.66336(4) 0.14863(2)
P1 P -0.1206(2) -0.3578(3) -0.03369(14)
S1 S 0.1443(2) -0.6886(3) 0.2653(2)
O1 O 0.0359(6) -0.3700(10) 0.2814(4)
O2 O 0.0056(6) -0.1178(10) 0.3603(5)
C1 C -0.2768(7) -0.5231(12) -0.0644(6)
H1 H -0.2760(7) -0.5154(12) -0.1117(6)
C2 C -0.1087(7) -0.1692(10) 0.0110(5)
C3 C 0.0068(8) -0.4922(18) 0.2400(6)
C4 C -0.2119(7) -0.4571(11) -0.0128(6)
C5 C -0.0268(6) -0.4697(11) 0.0135(5)
H2 H -0.0181(6) -0.4830(11) 0.0621(5)
C6 C -0.2164(8) -0.4719(14) 0.0560(6)
H3 H -0.1719(8) -0.4284(14) 0.0926(6)
O3 O 0.0386(7) 0.4717(13) 0.8190(5)
C7 C -0.0097(7) -0.0503(11) 0.4705(6)
C8 C 0.0307(8) -0.0206(13) 0.4167(6)
C9 C -0.0358(8) -0.1311(11) 0.0621(6)
H4 H 0.0092(8) -0.2059(11) 0.0763(6)
C10 C -0.0762(11) -0.1698(15) 0.4606(9)
H5 H -0.0950(11) -0.2273(15) 0.4185(9)
C11 C -0.3431(8) -0.6008(14) -0.0468(7)
H6 H -0.3881(8) -0.6460(14) -0.0825(7)
C12 C 0.0383(9) -0.6393(15) 0.2728(8)
H7 H -0.0401(9) 0.6339(15) 0.6774(8)
H8 H 0.0025(9) 0.7233(15) 0.7487(8)
C13 C 0.0121(11) -0.2141(16) 0.2519(7)
H9 H -0.0516(11) -0.2028(16) 0.2371(7)
H10 H 0.0344(11) -0.1981(16) 0.2109(7)
C14 C -0.0913(10) 0.1195(14) 0.0717(7)
H11 H -0.0865(10) 0.2191(14) 0.0935(7)
C15 C -0.0266(8) 0.0143(13) 0.0933(7)
H12 H 0.0239(8) 0.0399(13) 0.1290(7)
C16 C -0.2842(9) -0.5485(16) 0.0711(7)
H13 H -0.2877(9) -0.5551(16) 0.1177(7)
C17 C -0.1117(11) -0.1955(17) 0.5183(9)
H14 H -0.1505(11) -0.2803(17) 0.5161(9)
C18 C -0.3454(8) -0.6139(16) 0.0194(8)
H15 H -0.3912(8) -0.6704(16) 0.0299(8)
C19 C -0.1720(8) -0.0610(14) -0.0128(7)
H16 H -0.2210(8) -0.0843(14) -0.0503(7)
C20 C -0.0921(9) -0.1035(15) 0.5758(7)
H17 H -0.1196(9) -0.1219(15) 0.6115(7)
C21 C 0.0497(11) -0.0998(17) 0.3054(7)
H18 H -0.1124(11) 0.1187(17) 0.6758(7)
H19 H -0.0411(11) -0.0072(17) 0.7141(7)
C22 C -0.1628(11) 0.0854(15) 0.0197(9)
H20 H -0.2070(11) 0.1616(15) 0.0052(9)
C5B C 0.0268(6) -0.5303(11) -0.0135(5)
P1B P 0.1206(2) -0.6422(3) 0.03369(14)
Au1B Au -0.13336(3) -0.33664(4) -0.14863(2)
C7B C 0.0097(7) 0.0503(11) 0.5295(6)
C8B C -0.0307(8) 0.0206(13) 0.5833(6)
O2B O -0.0056(6) 0.1178(10) 0.6397(5)
C21B C -0.0497(11) 0.0998(17) 0.6946(7)
C13B C -0.0121(11) 0.2141(16) 0.7481(7)
O1B O -0.0359(6) 0.3700(10) 0.7186(4)
C3B C -0.0068(8) 0.4922(18) 0.7600(6)
C12B C -0.0383(9) 0.6393(15) 0.7272(8)
S1B S -0.1443(2) 0.6886(3) 0.7347(2)
Au1B_2 Au -0.13336(3) 0.66336(4) 0.85137(2)
P1_2 P -0.1206(2) 0.6422(3) 0.96631(14)
H9B H 0.0516(11) 0.2028(16) 0.7629(7)
H10B H -0.0344(11) 0.1981(16) 0.7891(7)
C10B C 0.0762(11) 0.1698(15) 0.5394(9)
H5B H 0.0950(11) 0.2273(15) 0.5815(9)
C17B C 0.1117(11) 0.1955(17) 0.4817(9)
H14B H 0.1505(11) 0.2803(17) 0.4839(9)
C20B C 0.0921(9) 0.1035(15) 0.4242(7)
H17B H 0.1196(9) 0.1219(15) 0.3885(7)
H18B H 0.1124(11) -0.1187(17) 0.3242(7)
H19B H 0.0411(11) 0.0072(17) 0.2859(7)
O3B O -0.0386(7) -0.4717(13) 0.1810(5)
H7B H 0.0401(9) -0.6339(15) 0.3226(8)
H8B H -0.0025(9) -0.7233(15) 0.2513(8)
C2B C 0.1087(7) -0.8308(10) -0.0110(5)
C9B C 0.0358(8) -0.8689(11) -0.0621(6)
H4B H -0.0092(8) -0.7941(11) -0.0763(6)
C15B C 0.0266(8) -1.0143(13) -0.0933(7)
C14B C 0.0913(10) -1.1195(14) -0.0717(7)
H11B H 0.0865(10) -1.2191(14) -0.0935(7)
C22B C 0.1628(11) -1.0854(15) -0.0197(9)
C19B C 0.1720(8) -0.9390(14) 0.0128(7)
H16B H 0.2210(8) -0.9157(14) 0.0503(7)
H20B H 0.2070(11) -1.1616(15) -0.0052(9)
H12B H -0.0239(8) -1.0399(13) -0.1290(7)
C4B C 0.2119(7) -0.5429(11) 0.0128(6)
C1B C 0.2768(7) -0.4769(12) 0.0644(6)
H1B H 0.2760(7) -0.4846(12) 0.1117(6)
C11B C 0.3431(8) -0.3992(14) 0.0468(7)
H6B H 0.3881(8) -0.3540(14) 0.0825(7)
C18B C 0.3454(8) -0.3861(16) -0.0194(8)
C16B C 0.2842(9) -0.4515(16) -0.0711(7)
C6B C 0.2164(8) -0.5281(14) -0.0560(6)
H3B H 0.1719(8) -0.5716(14) -0.0926(6)
H13B H 0.2877(9) -0.4449(16) -0.1177(7)
H15B H 0.3912(8) -0.3296(16) -0.0299(8)
H2B H 0.0181(6) -0.5170(11) -0.0621(5)
Cl1 Cl -0.2028(3) 0.1774(5) -0.1771(3)
C23 C -0.2500 0.2909(21) -0.2500
H21 H -0.2947 0.3590(21) -0.2395
H22 H -0.2053 0.3590(21) -0.2605
Cl1C Cl -0.2972(3) 0.1774(5) -0.3229(3)
loop_
_geom_bond_atom_site_label_1
_geom_bond_atom_site_label_2
_geom_bond_site_symmetry_1
_geom_bond_site_symmetry_2
Au1 S1 1_555 1_555
P1 C2 1_555 1_555
S1 C12 1_555 1_555
O1 C3 1_555 1_555
O2 C8 1_555 1_555
C1 H1 1_555 1_555
C2 C9 1_555 1_555
C3 C12 1_555 1_555
C4 P1 1_555 1_555
C5 P1 1_555 1_555
H2 C5 1_555 1_555
C6 C4 1_555 1_555
H3 C6 1_555 1_555
O3 C3B 1_555 1_555
C7 C8 1_555 1_555
C8 C20B 1_555 1_555
C9 H4 1_555 1_555
C10 C7 1_555 1_555
H5 C10 1_555 1_555
C11 C1 1_555 1_555
H6 C11 1_555 1_555
C12 H7B 1_555 1_555
H7 C12B 1_555 1_555
H8 C12B 1_555 1_555
C13 O1 1_555 1_555
H9 C13 1_555 1_555
H10 C13 1_555 1_555
C14 H11 1_555 1_555
C15 C9 1_555 1_555
H12 C15 1_555 1_555
C16 C6 1_555 1_555
H13 C16 1_555 1_555
C17 C10 1_555 1_555
H14 C17 1_555 1_555
C18 C11 1_555 1_555
H15 C18 1_555 1_555
C19 C2 1_555 1_555
H16 C19 1_555 1_555
C20 C17 1_555 1_555
H17 C20 1_555 1_555
C21 O2 1_555 1_555
H18 C21B 1_555 1_555
H19 C21B 1_555 1_555
C22 C14 1_555 1_555
H20 C22 1_555 1_555
Cl1 C23 1_555 1_555
C23 H21 1_555 1_555
H22 C23 1_555 1_555
C5B C5 1_555 1_555
P1B Au1 1_555 1_555
Au1B P1 1_555 1_555
C7B C7 1_555 1_555
C8B C20 1_555 1_555
O2B C8B 1_555 1_555
C21B O2B 1_555 1_555
C13B C21B 1_555 1_555
O1B C13B 1_555 1_555
C3B O1B 1_555 1_555
C12B C3B 1_555 1_555
S1B C12B 1_555 1_555
Au1B_2 S1B 1_555 1_555
P1_2 Au1B_2 1_555 1_555
H9B C13B 1_555 1_555
H10B C13B 1_555 1_555
C10B C7B 1_555 1_555
H5B C10B 1_555 1_555
C17B C10B 1_555 1_555
H14B C17B 1_555 1_555
C20B C17B 1_555 1_555
H17B C20B 1_555 1_555
H18B C21 1_555 1_555
H19B C21 1_555 1_555
O3B C3 1_555 1_555
H8B C12 1_555 1_555
C2B P1B 1_555 1_555
C9B C2B 1_555 1_555
H4B C9B 1_555 1_555
C15B C9B 1_555 1_555
C14B C15B 1_555 1_555
H11B C14B 1_555 1_555
C22B C14B 1_555 1_555
C19B C2B 1_555 1_555
H16B C19B 1_555 1_555
H20B C22B 1_555 1_555
H12B C15B 1_555 1_555
C4B P1B 1_555 1_555
C1B C4B 1_555 1_555
H1B C1B 1_555 1_555
C11B C1B 1_555 1_555
H6B C11B 1_555 1_555
C18B C11B 1_555 1_555
C16B C18B 1_555 1_555
C6B C4B 1_555 1_555
H3B C6B 1_555 1_555
H13B C16B 1_555 1_555
H15B C18B 1_555 1_555
H2B C5B 1_555 1_555
Cl1C C23 1_555 1_555
C1 C4 1_555 1_555
C13 C21 1_555 1_555
C14 C15 1_555 1_555
C16 C18 1_555 1_555
C19 C22 1_555 1_555
C5B P1B 1_555 1_555
C7B C8B 1_555 1_555
C22B C19B 1_555 1_555
C16B C6B 1_555 1_555

#END
