
#######################################################################
#
#                 Cambridge Crystallographic Data Centre
#                                CCDC 
#
#######################################################################
#
# If this CIF has been generated from an entry in the Cambridge 
# Structural Database, then it will include bibliographic, chemical, 
# crystal, experimental, refinement or atomic coordinate data resulting 
# from the CCDC's data processing and validation procedures.
#
#######################################################################

data_MUDTAH
_symmetry_cell_setting           cubic
_symmetry_space_group_name_H-M   'F m -3 m'
_symmetry_Int_Tables_number      225
_space_group_name_Hall           '-F 4 2 3'
loop_
_symmetry_equiv_pos_site_id
_symmetry_equiv_pos_as_xyz
1 x,y,z
2 -x,-y,z
3 -x,y,-z
4 x,-y,-z
5 z,x,y
6 z,-x,-y
7 -z,-x,y
8 -z,x,-y
9 y,z,x
10 -y,z,-x
11 y,-z,-x
12 -y,-z,x
13 y,x,-z
14 -y,-x,-z
15 y,-x,z
16 -y,x,z
17 x,z,-y
18 -x,z,y
19 -x,-z,-y
20 x,-z,y
21 z,y,-x
22 z,-y,x
23 -z,y,x
24 -z,-y,-x
25 x,1/2+y,1/2+z
26 -x,1/2-y,1/2+z
27 -x,1/2+y,1/2-z
28 x,1/2-y,1/2-z
29 z,1/2+x,1/2+y
30 z,1/2-x,1/2-y
31 -z,1/2-x,1/2+y
32 -z,1/2+x,1/2-y
33 y,1/2+z,1/2+x
34 -y,1/2+z,1/2-x
35 y,1/2-z,1/2-x
36 -y,1/2-z,1/2+x
37 y,1/2+x,1/2-z
38 -y,1/2-x,1/2-z
39 y,1/2-x,1/2+z
40 -y,1/2+x,1/2+z
41 x,1/2+z,1/2-y
42 -x,1/2+z,1/2+y
43 -x,1/2-z,1/2-y
44 x,1/2-z,1/2+y
45 z,1/2+y,1/2-x
46 z,1/2-y,1/2+x
47 -z,1/2+y,1/2+x
48 -z,1/2-y,1/2-x
49 1/2+x,y,1/2+z
50 1/2-x,-y,1/2+z
51 1/2-x,y,1/2-z
52 1/2+x,-y,1/2-z
53 1/2+z,x,1/2+y
54 1/2+z,-x,1/2-y
55 1/2-z,-x,1/2+y
56 1/2-z,x,1/2-y
57 1/2+y,z,1/2+x
58 1/2-y,z,1/2-x
59 1/2+y,-z,1/2-x
60 1/2-y,-z,1/2+x
61 1/2+y,x,1/2-z
62 1/2-y,-x,1/2-z
63 1/2+y,-x,1/2+z
64 1/2-y,x,1/2+z
65 1/2+x,z,1/2-y
66 1/2-x,z,1/2+y
67 1/2-x,-z,1/2-y
68 1/2+x,-z,1/2+y
69 1/2+z,y,1/2-x
70 1/2+z,-y,1/2+x
71 1/2-z,y,1/2+x
72 1/2-z,-y,1/2-x
73 1/2+x,1/2+y,z
74 1/2-x,1/2-y,z
75 1/2-x,1/2+y,-z
76 1/2+x,1/2-y,-z
77 1/2+z,1/2+x,y
78 1/2+z,1/2-x,-y
79 1/2-z,1/2-x,y
80 1/2-z,1/2+x,-y
81 1/2+y,1/2+z,x
82 1/2-y,1/2+z,-x
83 1/2+y,1/2-z,-x
84 1/2-y,1/2-z,x
85 1/2+y,1/2+x,-z
86 1/2-y,1/2-x,-z
87 1/2+y,1/2-x,z
88 1/2-y,1/2+x,z
89 1/2+x,1/2+z,-y
90 1/2-x,1/2+z,y
91 1/2-x,1/2-z,-y
92 1/2+x,1/2-z,y
93 1/2+z,1/2+y,-x
94 1/2+z,1/2-y,x
95 1/2-z,1/2+y,x
96 1/2-z,1/2-y,-x
97 -x,-y,-z
98 x,y,-z
99 x,-y,z
100 -x,y,z
101 -z,-x,-y
102 -z,x,y
103 z,x,-y
104 z,-x,y
105 -y,-z,-x
106 y,-z,x
107 -y,z,x
108 y,z,-x
109 -y,-x,z
110 y,x,z
111 -y,x,-z
112 y,-x,-z
113 -x,-z,y
114 x,-z,-y
115 x,z,y
116 -x,z,-y
117 -z,-y,x
118 -z,y,-x
119 z,-y,-x
120 z,y,x
121 -x,1/2-y,1/2-z
122 x,1/2+y,1/2-z
123 x,1/2-y,1/2+z
124 -x,1/2+y,1/2+z
125 -z,1/2-x,1/2-y
126 -z,1/2+x,1/2+y
127 z,1/2+x,1/2-y
128 z,1/2-x,1/2+y
129 -y,1/2-z,1/2-x
130 y,1/2-z,1/2+x
131 -y,1/2+z,1/2+x
132 y,1/2+z,1/2-x
133 -y,1/2-x,1/2+z
134 y,1/2+x,1/2+z
135 -y,1/2+x,1/2-z
136 y,1/2-x,1/2-z
137 -x,1/2-z,1/2+y
138 x,1/2-z,1/2-y
139 x,1/2+z,1/2+y
140 -x,1/2+z,1/2-y
141 -z,1/2-y,1/2+x
142 -z,1/2+y,1/2-x
143 z,1/2-y,1/2-x
144 z,1/2+y,1/2+x
145 1/2-x,-y,1/2-z
146 1/2+x,y,1/2-z
147 1/2+x,-y,1/2+z
148 1/2-x,y,1/2+z
149 1/2-z,-x,1/2-y
150 1/2-z,x,1/2+y
151 1/2+z,x,1/2-y
152 1/2+z,-x,1/2+y
153 1/2-y,-z,1/2-x
154 1/2+y,-z,1/2+x
155 1/2-y,z,1/2+x
156 1/2+y,z,1/2-x
157 1/2-y,-x,1/2+z
158 1/2+y,x,1/2+z
159 1/2-y,x,1/2-z
160 1/2+y,-x,1/2-z
161 1/2-x,-z,1/2+y
162 1/2+x,-z,1/2-y
163 1/2+x,z,1/2+y
164 1/2-x,z,1/2-y
165 1/2-z,-y,1/2+x
166 1/2-z,y,1/2-x
167 1/2+z,-y,1/2-x
168 1/2+z,y,1/2+x
169 1/2-x,1/2-y,-z
170 1/2+x,1/2+y,-z
171 1/2+x,1/2-y,z
172 1/2-x,1/2+y,z
173 1/2-z,1/2-x,-y
174 1/2-z,1/2+x,y
175 1/2+z,1/2+x,-y
176 1/2+z,1/2-x,y
177 1/2-y,1/2-z,-x
178 1/2+y,1/2-z,x
179 1/2-y,1/2+z,x
180 1/2+y,1/2+z,-x
181 1/2-y,1/2-x,z
182 1/2+y,1/2+x,z
183 1/2-y,1/2+x,-z
184 1/2+y,1/2-x,-z
185 1/2-x,1/2-z,y
186 1/2+x,1/2-z,-y
187 1/2+x,1/2+z,y
188 1/2-x,1/2+z,-y
189 1/2-z,1/2-y,x
190 1/2-z,1/2+y,-x
191 1/2+z,1/2-y,-x
192 1/2+z,1/2+y,x
_cell_length_a                   42.854(5)
_cell_length_b                   42.854(5)
_cell_length_c                   42.854(5)
_cell_angle_alpha                90
_cell_angle_beta                 90
_cell_angle_gamma                90
_cell_volume                     78699.9
loop_
_atom_site_label
_atom_site_type_symbol
_atom_site_fract_x
_atom_site_fract_y
_atom_site_fract_z
Zn1 Zn 0.0000 0.871098(8) 0.371098(8)
Zn2 Zn 0.0000 0.821355(8) 0.321355(8)
O1 O 0.0000 0.90408(8) 0.40408(8)
O2 O 0.0000 0.78863(7) 0.28863(7)
O3 O 0.03258(6) 0.84197(6) 0.38774(7)
O4 O 0.03265(6) 0.80531(7) 0.35079(6)
C1 C 0.04216(8) 0.81728(9) 0.37565(9)
C2 C 0.06824(9) 0.80116(9) 0.39227(9)
C3 C 0.08249(8) 0.81536(12) 0.41751(8)
H1 H 0.0750 0.8348 0.4250
C4 C 0.07824(10) 0.77210(11) 0.38198(11)
H2 H 0.0677 0.7618 0.3655
C5 C 0.10382(13) 0.75846(16) 0.39618(13)
C6 C 0.1137(2) 0.7279(2) 0.3863(2)
C7 C 0.1218(2) 0.7023(3) 0.3782(2)
C8 C 0.1358(2) 0.6754(2) 0.3642(2)
C9 C 0.1232(2) 0.6620(2) 0.3380(2)
H3 H 0.1052 0.6711 0.3289
Zn1GA Zn 0.128902(8) 0.871098(8) 0.5000
Zn1KA Zn 0.128902(8) 0.5000 0.128902(8)
Zn1R Zn 0.0000 0.628902(8) 0.128902(8)
Zn1SA Zn 0.371098(8) 0.628902(8) 0.5000
Zn1BA Zn 0.371098(8) 0.5000 0.371098(8)
Zn2GA Zn 0.178645(8) 0.821355(8) 0.5000
Zn2KA Zn 0.178645(8) 0.5000 0.178645(8)
Zn2R Zn 0.0000 0.678645(8) 0.178645(8)
Zn2SA Zn 0.321355(8) 0.678645(8) 0.5000
Zn2BA Zn 0.321355(8) 0.5000 0.321355(8)
O1GA O 0.09592(8) 0.90408(8) 0.5000
O3OA O -0.03258(6) 0.88774(7) 0.34197(6)
O3UC O -0.03258(6) 0.84197(6) 0.38774(7)
O3HE O 0.03258(6) 0.88774(7) 0.34197(6)
O3IF O 0.11226(7) 0.84197(6) 0.46742(6)
O3AC O 0.11226(7) 0.53258(6) 0.15803(6)
O3ID O 0.03258(6) 0.61226(7) 0.15803(6)
O3FB O 0.34197(6) 0.61226(7) 0.46742(6)
O3YF O 0.34197(6) 0.53258(6) 0.38774(7)
O3GA O 0.15803(6) 0.88774(7) 0.46742(6)
O3RB O 0.11226(7) 0.84197(6) 0.53258(6)
O3ZD O 0.15803(6) 0.88774(7) 0.53258(6)
O4OA O -0.03265(6) 0.85079(6) 0.30531(7)
O4UC O -0.03265(6) 0.80531(7) 0.35079(6)
O4HE O 0.03265(6) 0.85079(6) 0.30531(7)
O4IF O 0.14921(6) 0.80531(7) 0.46735(6)
O4AC O 0.14921(6) 0.53265(6) 0.19469(7)
O4ID O 0.03265(6) 0.64921(6) 0.19469(7)
O4FB O 0.30531(7) 0.64921(6) 0.46735(6)
O4YF O 0.30531(7) 0.53265(6) 0.35079(6)
C1IF C 0.12435(9) 0.81728(9) 0.45784(8)
C1AC C 0.12435(9) 0.54216(8) 0.18272(9)
C1ID C 0.04216(8) 0.62435(9) 0.18272(9)
C1FB C 0.31728(9) 0.62435(9) 0.45784(8)
C1YF C 0.31728(9) 0.54216(8) 0.37565(9)
C2IF C 0.10773(9) 0.80116(9) 0.43176(9)
C2AC C 0.10773(9) 0.56824(9) 0.19884(9)
C2ID C 0.06824(9) 0.60773(9) 0.19884(9)
C2FB C 0.30116(9) 0.60773(9) 0.43176(9)
C2YF C 0.30116(9) 0.56824(9) 0.39227(9)
C3AC C 0.08249(8) 0.58249(8) 0.18464(12)
C3FB C 0.31536(12) 0.58249(8) 0.41751(8)
H1AC H 0.0750 0.5750 0.1652
H1FB H 0.3348 0.5750 0.4250
C4IF C 0.11802(11) 0.77210(11) 0.42176(10)
C4AC C 0.11802(11) 0.57824(10) 0.22790(11)
C4ID C 0.07824(10) 0.61802(11) 0.22790(11)
C4FB C 0.27210(11) 0.61802(11) 0.42176(10)
C4YF C 0.27210(11) 0.57824(10) 0.38198(11)
H2IF H 0.1345 0.7618 0.4323
H2AC H 0.1345 0.5677 0.2382
H2ID H 0.0677 0.6345 0.2382
H2FB H 0.2618 0.6345 0.4323
H2YF H 0.2618 0.5677 0.3655
C5AC C 0.10382(13) 0.60382(13) 0.24154(16)
C5FB C 0.25846(16) 0.60382(13) 0.39618(13)
C6AC C 0.1137(2) 0.6137(2) 0.2721(2)
C6FB C 0.2279(2) 0.6137(2) 0.3863(2)
C7AC C 0.1218(2) 0.6218(2) 0.2977(3)
C7FB C 0.2023(3) 0.6218(2) 0.3782(2)
C8AC C 0.1358(2) 0.6358(2) 0.3246(2)
C8FB C 0.1754(2) 0.6358(2) 0.3642(2)
C9FB C 0.1620(2) 0.6620(2) 0.3768(2)
C9AC C 0.1620(2) 0.6232(2) 0.3380(2)
H3FB H 0.1711 0.6711 0.3948
H3AC H 0.1711 0.6052 0.3289
loop_
_geom_bond_atom_site_label_1
_geom_bond_atom_site_label_2
_geom_bond_site_symmetry_1
_geom_bond_site_symmetry_2
Zn1 O1 1_555 1_555
Zn2 O2 1_555 1_555
O3 Zn1 1_555 1_555
O4 Zn2 1_555 1_555
C1 O3 1_555 1_555
C2 C1 1_555 1_555
C3 C2 1_555 1_555
H1 C3 1_555 1_555
C4 C2 1_555 1_555
H2 C4 1_555 1_555
C5 C4 1_555 1_555
C6 C5 1_555 1_555
C7 C6 1_555 1_555
C8 C7 1_555 1_555
C9 C8 1_555 1_555
H3 C9 1_555 1_555
Zn1GA O1GA 1_555 1_555
Zn1KA O3AC 1_555 1_555
Zn1R O3ID 1_555 1_555
Zn1SA O3FB 1_555 1_555
Zn1BA O3YF 1_555 1_555
Zn2GA O4IF 1_555 1_555
Zn2KA O4AC 1_555 1_555
Zn2R O4ID 1_555 1_555
Zn2SA O4FB 1_555 1_555
Zn2BA O4YF 1_555 1_555
O3OA Zn1 1_555 1_555
O3UC Zn1 1_555 1_555
O3HE Zn1 1_555 1_555
O3IF Zn1GA 1_555 1_555
O3AC C1AC 1_555 1_555
O3ID C1ID 1_555 1_555
O3FB C1FB 1_555 1_555
O3YF C1YF 1_555 1_555
O3GA Zn1GA 1_555 1_555
O3RB Zn1GA 1_555 1_555
O3ZD Zn1GA 1_555 1_555
O4OA Zn2 1_555 1_555
O4UC Zn2 1_555 1_555
O4HE Zn2 1_555 1_555
O4IF C1IF 1_555 1_555
O4AC C1AC 1_555 1_555
O4ID C1ID 1_555 1_555
O4FB C1FB 1_555 1_555
O4YF C1YF 1_555 1_555
C1IF O3IF 1_555 1_555
C1AC C2AC 1_555 1_555
C1ID C2ID 1_555 1_555
C1FB C2FB 1_555 1_555
C1YF C2YF 1_555 1_555
C2IF C3 1_555 1_555
C2AC C3AC 1_555 1_555
C2ID C3AC 1_555 1_555
C2FB C3FB 1_555 1_555
C2YF C3FB 1_555 1_555
C3AC H1AC 1_555 1_555
C3FB H1FB 1_555 1_555
C4IF C5 1_555 1_555
C4AC C2AC 1_555 1_555
C4ID C2ID 1_555 1_555
C4FB C2FB 1_555 1_555
C4YF C2YF 1_555 1_555
H2IF C4IF 1_555 1_555
H2AC C4AC 1_555 1_555
H2ID C4ID 1_555 1_555
H2FB C4FB 1_555 1_555
H2YF C4YF 1_555 1_555
C5AC C4AC 1_555 1_555
C5FB C4FB 1_555 1_555
C6AC C5AC 1_555 1_555
C6FB C5FB 1_555 1_555
C7AC C6AC 1_555 1_555
C7FB C6FB 1_555 1_555
C8AC C9 1_555 1_555
C8FB C7FB 1_555 1_555
C9FB C8 1_555 1_555
C9AC C8AC 1_555 1_555
H3FB C9FB 1_555 1_555
H3AC C9AC 1_555 1_555
O4 C1 1_555 1_555
C1IF C2IF 1_555 1_555
C2IF C4IF 1_555 1_555
C4ID C5AC 1_555 1_555
C4YF C5FB 1_555 1_555
C7AC C8AC 1_555 1_555
C8FB C9FB 1_555 1_555
C8FB C9AC 1_555 1_555

#END
