
#######################################################################
#
#                 Cambridge Crystallographic Data Centre
#                                CCDC 
#
#######################################################################
#
# If this CIF has been generated from an entry in the Cambridge 
# Structural Database, then it will include bibliographic, chemical, 
# crystal, experimental, refinement or atomic coordinate data resulting 
# from the CCDC's data processing and validation procedures.
#
#######################################################################

data_MUDTOV
_symmetry_cell_setting           monoclinic
_symmetry_space_group_name_H-M   'C 2/c'
_symmetry_Int_Tables_number      15
_space_group_name_Hall           '-C 2yn'
loop_
_symmetry_equiv_pos_site_id
_symmetry_equiv_pos_as_xyz
1 x,y,z
2 -x,y,1/2-z
3 1/2+x,1/2+y,z
4 1/2-x,1/2+y,1/2-z
5 -x,-y,-z
6 x,-y,1/2+z
7 1/2-x,1/2-y,-z
8 1/2+x,1/2-y,1/2+z
_cell_length_a                   19.8996(12)
_cell_length_b                   27.0362(17)
_cell_length_c                   12.2604(8)
_cell_angle_alpha                90
_cell_angle_beta                 110.8960(10)
_cell_angle_gamma                90
_cell_volume                     6162.38
loop_
_atom_site_label
_atom_site_type_symbol
_atom_site_fract_x
_atom_site_fract_y
_atom_site_fract_z
C1 C 0.1307(2) 0.78392(18) 0.7971(4)
C2 C 0.1921(2) 0.76730(19) 0.9063(4)
C3 C 0.2550(2) 0.79560(18) 0.9474(4)
C4 C 0.1858(2) 0.72200(19) 0.9571(4)
C5 C 0.3021(3) 0.8328(3) 0.7793(5)
H1 H 0.3470 0.8156 0.8235
H2 H 0.3129 0.8617 0.7401
H3 H 0.2704 0.8103 0.7208
C6 C 0.1244(3) 0.6368(2) 0.8273(5)
H4 H 0.1382 0.6491 0.7631
H5 H 0.0822 0.6154 0.7961
H6 H 0.1644 0.6180 0.8818
C7 C -0.0130(2) 0.89321(19) 0.4984(4)
C8 C -0.0074(2) 0.94900(18) 0.4959(4)
C9 C 0.0509(2) 0.97085(18) 0.4741(4)
C10 C -0.0582(2) 0.97773(19) 0.5211(4)
C11 C 0.1741(3) 0.9113(2) 0.5680(4)
H7 H 0.1976 0.9398 0.6160
H8 H 0.2104 0.8906 0.5533
H9 H 0.1490 0.8919 0.6091
C12 C -0.1082(3) 0.9498(3) 0.6953(5)
H10 H -0.0983 0.9840 0.7222
H11 H -0.1474 0.9366 0.7173
H12 H -0.0649 0.9297 0.7315
C13 C 0.1057(2) 0.78411(18) 0.3782(4)
C14 C 0.1803(2) 0.76500(18) 0.4418(4)
C15 C 0.2369(2) 0.79284(18) 0.4294(4)
C16 C 0.1918(2) 0.72275(19) 0.5103(4)
C17 C 0.2093(3) 0.8227(2) 0.2035(4)
H13 H 0.2538 0.8054 0.2099
H14 H 0.2008 0.8496 0.1466
H15 H 0.1689 0.7994 0.1778
C18 C 0.0905(4) 0.6524(3) 0.3967(7)
H16 H 0.1271 0.6269 0.4060
H17 H 0.0443 0.6366 0.3865
H18 H 0.0856 0.6726 0.3280
O1 O 0.07514(17) 0.80295(14) 0.8037(3)
O2 O 0.13880(17) 0.77530(15) 0.7012(3)
O3 O 0.02522(17) 0.87294(13) 0.5959(3)
O4 O -0.05240(17) 0.86965(13) 0.4119(3)
O5 O 0.07467(16) 0.80810(13) 0.4358(3)
O6 O 0.07919(18) 0.77868(14) 0.2702(3)
Pb1 Pb 0.014083(8) 0.789414(7) 0.579695(14)
Pb2 Pb 0.0000 0.851443(10) 0.2500
S1 S 0.25815(6) 0.85262(5) 0.87778(11)
S2 S 0.10322(6) 0.68849(5) 0.90304(11)
S3 S 0.11014(6) 0.93291(5) 0.43048(10)
S4 S -0.13367(6) 0.94776(5) 0.53828(10)
S5 S 0.21743(7) 0.84796(5) 0.34438(11)
S6 S 0.11670(6) 0.69080(5) 0.52358(11)
C1F C 0.3693(2) 0.71608(18) 1.2029(4)
C2F C 0.3079(2) 0.73270(19) 1.0937(4)
C3F C 0.2450(2) 0.70440(18) 1.0526(4)
C4F C 0.3142(2) 0.77800(19) 1.0429(4)
C5F C 0.1979(3) 0.6672(3) 1.2207(5)
H1F H 0.1530 0.6844 1.1765
H2F H 0.1871 0.6383 1.2599
H3F H 0.2296 0.6897 1.2792
C6F C 0.3756(3) 0.8632(2) 1.1727(5)
H4F H 0.3618 0.8509 1.2369
H5F H 0.4178 0.8846 1.2039
H6F H 0.3356 0.8820 1.1182
C7D C 0.0130(2) 1.10679(19) 0.5016(4)
C8D C 0.0074(2) 1.05100(18) 0.5041(4)
C9D C -0.0509(2) 1.02915(18) 0.5259(4)
C10D C 0.0582(2) 1.02227(19) 0.4789(4)
C11D C -0.1741(3) 1.0887(2) 0.4320(4)
H7D H -0.1976 1.0602 0.3840
H8D H -0.2104 1.1094 0.4467
H9D H -0.1490 1.1081 0.3909
C12D C 0.1082(3) 1.0502(3) 0.3047(5)
H10D H 0.0983 1.0160 0.2778
H11D H 0.1474 1.0634 0.2827
H12D H 0.0649 1.0703 0.2685
C13F C 0.3943(2) 0.71589(18) 0.6218(4)
C14F C 0.3197(2) 0.73500(18) 0.5582(4)
C15F C 0.2631(2) 0.70716(18) 0.5706(4)
C16F C 0.3082(2) 0.77725(19) 0.4897(4)
C17F C 0.2907(3) 0.6773(2) 0.7965(4)
H13F H 0.2462 0.6946 0.7901
H14F H 0.2992 0.6504 0.8534
H15F H 0.3311 0.7006 0.8222
C18F C 0.4095(4) 0.8476(3) 0.6033(7)
H16F H 0.3729 0.8731 0.5940
H17F H 0.4557 0.8634 0.6135
H18F H 0.4144 0.8274 0.6720
O1F O 0.42486(17) 0.69705(14) 1.1963(3)
O1A O -0.07514(17) 0.80295(14) 0.6963(3)
O1D O -0.07514(17) 1.19705(14) 0.1963(3)
O1E O 0.07514(17) 1.19705(14) 0.3037(3)
O2F O 0.36120(17) 0.72470(15) 1.2988(3)
O2D O -0.13880(17) 1.22470(15) 0.2988(3)
O3D O -0.02522(17) 1.12706(13) 0.4041(3)
O4D O 0.05240(17) 1.13035(13) 0.5881(3)
O4A O 0.05240(17) 0.86965(13) 0.0881(3)
O5F O 0.42533(16) 0.69190(13) 0.5642(3)
O5A O -0.07467(16) 0.80810(13) 0.0642(3)
O5D O -0.07467(16) 1.19190(13) 0.5642(3)
O6F O 0.42081(18) 0.72132(14) 0.7298(3)
O6A O -0.07919(18) 0.77868(14) 0.2298(3)
Pb1D Pb -0.014083(8) 1.210586(7) 0.420305(14)
Pb1A Pb -0.014083(8) 0.789414(7) 0.920305(14)
Pb1F Pb 0.485917(8) 0.710586(7) 1.420305(14)
Pb1G Pb 0.514083(8) 0.710586(7) 1.079695(14)
Pb1F_2 Pb 0.485917(8) 0.710586(7) 0.420305(14)
Pb2D Pb 0.0000 1.148557(10) 0.7500
Pb2F Pb 0.5000 0.648557(10) 0.7500
S1F S 0.24185(6) 0.64738(5) 1.12222(11)
S2F S 0.39678(6) 0.81151(5) 1.09696(11)
S3D S -0.11014(6) 1.06709(5) 0.56952(10)
S4D S 0.13367(6) 1.05224(5) 0.46172(10)
S5F S 0.28257(7) 0.65204(5) 0.65562(11)
S6F S 0.38330(6) 0.80920(5) 0.47642(11)
C19 C 0.0747(5) 0.4399(4) 0.5559(9)
H19 H 0.0957 0.4095 0.5389
H20 H 0.0601 0.4614 0.4871
H21 H 0.0325 0.4317 0.5760
C20 C 0.1309(6) 0.4669(4) 0.6598(10)
C21 C 0.2249(4) 0.5273(3) 0.7330(7)
H22 H 0.2091 0.5618 0.7214
H23 H 0.2736 0.5247 0.7310
H24 H 0.2250 0.5157 0.8087
C22 C 0.1773(6) 0.5056(5) 0.5222(8)
H25 H 0.1575 0.4766 0.4731
H26 H 0.2270 0.5110 0.5272
H27 H 0.1482 0.5348 0.4879
N1 N 0.1759(4) 0.4970(3) 0.6404(6)
O7 O 0.1303(5) 0.4624(3) 0.7588(6)
O8 O 0.0000 0.5225(7) 0.7500
H28 H 0.034(6) 0.510(5) 0.730(9)
H28A H -0.034(6) 0.510(5) 0.770(9)
loop_
_geom_bond_atom_site_label_1
_geom_bond_atom_site_label_2
_geom_bond_site_symmetry_1
_geom_bond_site_symmetry_2
C1 C2 1_555 1_555
C2 C3 1_555 1_555
C3 S1 1_555 1_555
C4 C2 1_555 1_555
C5 H1 1_555 1_555
H2 C5 1_555 1_555
H3 C5 1_555 1_555
C6 H4 1_555 1_555
H5 C6 1_555 1_555
H6 C6 1_555 1_555
C7 C8 1_555 1_555
C8 C9 1_555 1_555
C9 S3 1_555 1_555
C10 C8 1_555 1_555
C11 H7 1_555 1_555
H8 C11 1_555 1_555
H9 C11 1_555 1_555
C12 H10 1_555 1_555
H11 C12 1_555 1_555
H12 C12 1_555 1_555
C13 C14 1_555 1_555
C14 C15 1_555 1_555
C15 S5 1_555 1_555
C16 C14 1_555 1_555
C17 H13 1_555 1_555
H14 C17 1_555 1_555
H15 C17 1_555 1_555
C18 H16 1_555 1_555
H17 C18 1_555 1_555
H18 C18 1_555 1_555
O1 C1 1_555 1_555
O2 C1 1_555 1_555
O3 C7 1_555 1_555
O4 C7 1_555 1_555
O5 C13 1_555 1_555
O6 C13 1_555 1_555
Pb1 O1 1_555 1_555
Pb2 O4 1_555 1_555
S1 C5 1_555 1_555
S2 C4 1_555 1_555
S3 C11 1_555 1_555
S4 C10 1_555 1_555
S5 C17 1_555 1_555
S6 C16 1_555 1_555
C19 H19 1_555 1_555
H20 C19 1_555 1_555
H21 C19 1_555 1_555
C20 C19 1_555 1_555
C21 H22 1_555 1_555
H23 C21 1_555 1_555
H24 C21 1_555 1_555
C22 H25 1_555 1_555
H26 C22 1_555 1_555
H27 C22 1_555 1_555
N1 C20 1_555 1_555
O7 C20 1_555 1_555
O8 H28 1_555 1_555
C1F C2F 1_555 1_555
C2F C3F 1_555 1_555
C3F C4 1_555 1_555
C4F C3 1_555 1_555
C5F H1F 1_555 1_555
H2F C5F 1_555 1_555
H3F C5F 1_555 1_555
C6F H4F 1_555 1_555
H5F C6F 1_555 1_555
H6F C6F 1_555 1_555
C7D C8D 1_555 1_555
C8D C9D 1_555 1_555
C9D C10 1_555 1_555
C10D C9 1_555 1_555
C11D H7D 1_555 1_555
H8D C11D 1_555 1_555
H9D C11D 1_555 1_555
C12D H10D 1_555 1_555
H11D C12D 1_555 1_555
H12D C12D 1_555 1_555
C13F C14F 1_555 1_555
C14F C15F 1_555 1_555
C15F C16 1_555 1_555
C16F C15 1_555 1_555
C17F H13F 1_555 1_555
H14F C17F 1_555 1_555
H15F C17F 1_555 1_555
C18F H16F 1_555 1_555
H17F C18F 1_555 1_555
H18F C18F 1_555 1_555
O1F C1F 1_555 1_555
O1A Pb1 1_555 1_555
O1D Pb1D 1_555 1_555
O1E Pb1D 1_555 1_555
O2F C1F 1_555 1_555
O2D Pb1D 1_555 1_555
O3D C7D 1_555 1_555
O4D C7D 1_555 1_555
O4A Pb2 1_555 1_555
O5F C13F 1_555 1_555
O5A Pb2 1_555 1_555
O5D Pb1D 1_555 1_555
O6F C13F 1_555 1_555
O6A Pb2 1_555 1_555
Pb1D O3D 1_555 1_555
Pb1A O1 1_555 1_555
Pb1F O1F 1_555 1_555
Pb1G O1F 1_555 1_555
Pb1F_2 O5F 1_555 1_555
Pb2D O4D 1_555 1_555
Pb2F O5F 1_555 1_555
S1F C3F 1_555 1_555
S2F C4F 1_555 1_555
S3D C9D 1_555 1_555
S4D C10D 1_555 1_555
S5F C15F 1_555 1_555
S6F C16F 1_555 1_555
H28A O8 1_555 1_555
C6 S2 1_555 1_555
C12 S4 1_555 1_555
C18 S6 1_555 1_555
O2 Pb1 1_555 1_555
O3 Pb1 1_555 1_555
O4 Pb1 1_555 1_555
O5 Pb1 1_555 1_555
O5 Pb2 1_555 1_555
O6 Pb2 1_555 1_555
C21 N1 1_555 1_555
C22 N1 1_555 1_555
C2F C4F 1_555 1_555
C5F S1F 1_555 1_555
C6F S2F 1_555 1_555
C8D C10D 1_555 1_555
C11D S3D 1_555 1_555
C12D S4D 1_555 1_555
C14F C16F 1_555 1_555
C17F S5F 1_555 1_555
C18F S6F 1_555 1_555
O1A Pb1A 1_555 1_555
O2F Pb1F 1_555 1_555
O4D Pb1D 1_555 1_555
O5D Pb2D 1_555 1_555
O6F Pb2F 1_555 1_555

#END
