
#######################################################################
#
#                 Cambridge Crystallographic Data Centre
#                                CCDC 
#
#######################################################################
#
# If this CIF has been generated from an entry in the Cambridge 
# Structural Database, then it will include bibliographic, chemical, 
# crystal, experimental, refinement or atomic coordinate data resulting 
# from the CCDC's data processing and validation procedures.
#
#######################################################################

data_MUDTOW
_symmetry_cell_setting           orthorhombic
_symmetry_space_group_name_H-M   'P b c a'
_symmetry_Int_Tables_number      61
_space_group_name_Hall           '-P 2ac 2ab'
loop_
_symmetry_equiv_pos_site_id
_symmetry_equiv_pos_as_xyz
1 x,y,z
2 1/2+x,1/2-y,-z
3 -x,1/2+y,1/2-z
4 1/2-x,-y,1/2+z
5 -x,-y,-z
6 1/2-x,1/2+y,z
7 x,1/2-y,1/2+z
8 1/2+x,y,1/2-z
_cell_length_a                   10.2403(3)
_cell_length_b                   11.4552(3)
_cell_length_c                   14.8043(4)
_cell_angle_alpha                90
_cell_angle_beta                 90
_cell_angle_gamma                90
_cell_volume                     1736.61
loop_
_atom_site_label
_atom_site_type_symbol
_atom_site_fract_x
_atom_site_fract_y
_atom_site_fract_z
Se1 Se 0.783241(15) 1.148171(13) 0.584734(11)
Cu1 Cu 1.0000 1.0000 0.5000
Cl1 Cl 1.12987(4) 1.13754(3) 0.56670(2)
N1 N 0.93652(12) 0.95448(10) 0.62104(8)
C1 C 0.83821(15) 1.01715(13) 0.65602(9)
C2 C 0.98822(17) 0.86584(13) 0.66853(10)
H1 H 1.0596 0.8237 0.6437
C3 C 0.94053(19) 0.83413(16) 0.75247(11)
H2 H 0.9781 0.7710 0.7850
C4 C 0.8372(2) 0.89640(19) 0.78765(11)
H3 H 0.8012 0.8751 0.8444
C5 C 0.78600(18) 0.98996(17) 0.74038(11)
H4 H 0.7165 1.0348 0.7649
C6 C 0.59764(16) 1.10839(14) 0.57272(12)
H5 H 0.5608 1.0959 0.6338
H6 H 0.5514 1.1756 0.5454
C7 C 0.57100(15) 1.00086(13) 0.51600(11)
H7 H 0.5890 0.9300 0.5521
H8 H 0.6299 1.0004 0.4630
Se1D Se 0.216759(15) 0.851829(13) 0.415266(11)
N1D N 0.06348(12) 1.04552(10) 0.37896(8)
C1D C 0.16179(15) 0.98285(13) 0.34398(9)
C2D C 0.01178(17) 1.13416(13) 0.33147(10)
H1D H -0.0596 1.1763 0.3563
C3D C 0.05947(19) 1.16587(16) 0.24753(11)
H2D H 0.0219 1.2290 0.2150
C4D C 0.1628(2) 1.10360(19) 0.21235(11)
H3D H 0.1988 1.1249 0.1556
C5D C 0.21400(18) 1.01004(17) 0.25962(11)
H4D H 0.2835 0.9652 0.2351
C6D C 0.40236(16) 0.89161(14) 0.42728(12)
H5D H 0.4392 0.9041 0.3662
H6D H 0.4486 0.8244 0.4546
C7D C 0.42900(15) 0.99914(13) 0.48400(11)
H7D H 0.4110 1.0700 0.4479
H8D H 0.3701 0.9996 0.5370
Cl1D Cl 0.87013(4) 0.86246(3) 0.43330(2)
Se1D_2 Se 1.216759(15) 0.851829(13) 0.415266(11)
Cu1_2 Cu 0.0000 1.0000 0.5000
N1D_2 N 1.06348(12) 1.04552(10) 0.37896(8)
loop_
_geom_bond_atom_site_label_1
_geom_bond_atom_site_label_2
_geom_bond_site_symmetry_1
_geom_bond_site_symmetry_2
Se1 Cu1 1_555 1_555
Cu1 Cl1 1_555 1_555
N1 Cu1 1_555 1_555
C1 Se1 1_555 1_555
C2 N1 1_555 1_555
H1 C2 1_555 1_555
C3 C2 1_555 1_555
H2 C3 1_555 1_555
C4 C3 1_555 1_555
H3 C4 1_555 1_555
C5 C1 1_555 1_555
H4 C5 1_555 1_555
C6 Se1 1_555 1_555
H5 C6 1_555 1_555
H6 C6 1_555 1_555
C7 C6 1_555 1_555
H7 C7 1_555 1_555
H8 C7 1_555 1_555
Se1D C1D 1_555 1_555
N1D C1D 1_555 1_555
C1D C5D 1_555 1_555
C2D N1D 1_555 1_555
H1D C2D 1_555 1_555
C3D C2D 1_555 1_555
H2D C3D 1_555 1_555
C4D C3D 1_555 1_555
H3D C4D 1_555 1_555
C5D C4D 1_555 1_555
H4D C5D 1_555 1_555
C6D Se1D 1_555 1_555
H5D C6D 1_555 1_555
H6D C6D 1_555 1_555
C7D C7 1_555 1_555
H7D C7D 1_555 1_555
H8D C7D 1_555 1_555
Cl1D Cu1 1_555 1_555
Se1D_2 Cu1 1_555 1_555
Cu1_2 Se1D 1_555 1_555
N1D_2 Cu1 1_555 1_555
N1 C1 1_555 1_555
C4 C5 1_555 1_555
N1D Cu1_2 1_555 1_555
C6D C7D 1_555 1_555

#END
