
#######################################################################
#
#                 Cambridge Crystallographic Data Centre
#                                CCDC 
#
#######################################################################
#
# If this CIF has been generated from an entry in the Cambridge 
# Structural Database, then it will include bibliographic, chemical, 
# crystal, experimental, refinement or atomic coordinate data resulting 
# from the CCDC's data processing and validation procedures.
#
#######################################################################

data_MUDTIP
_symmetry_cell_setting           monoclinic
_symmetry_space_group_name_H-M   'C 2/m'
_symmetry_Int_Tables_number      12
_space_group_name_Hall           '-C 2y'
loop_
_symmetry_equiv_pos_site_id
_symmetry_equiv_pos_as_xyz
1 x,y,z
2 -x,y,-z
3 1/2+x,1/2+y,z
4 1/2-x,1/2+y,-z
5 -x,-y,-z
6 x,-y,z
7 1/2-x,1/2-y,-z
8 1/2+x,1/2-y,z
_cell_length_a                   19.0345(19)
_cell_length_b                   27.688(3)
_cell_length_c                   12.1273(12)
_cell_angle_alpha                90
_cell_angle_beta                 105.293(2)
_cell_angle_gamma                90
_cell_volume                     6165.1
loop_
_atom_site_label
_atom_site_type_symbol
_atom_site_fract_x
_atom_site_fract_y
_atom_site_fract_z
C1 C -0.1264(8) 0.2136(5) -0.0766(13)
C2 C -0.1841(7) 0.2756(4) 0.0304(9)
C3 C -0.1916(7) 0.2312(4) -0.0339(8)
C4 C -0.2563(7) 0.2060(4) -0.0604(8)
C5 C -0.1147(12) 0.3564(8) -0.025(2)
H1 H -0.1598 0.3513 -0.0849
H2 H -0.0741 0.3612 -0.0592
H3 H -0.1199 0.3851 0.0201
C6 C -0.2925(15) 0.1715(8) -0.2805(14)
H4 H -0.3371 0.1905 -0.2895
H5 H -0.3026 0.1437 -0.3324
H6 H -0.2548 0.1916 -0.2988
C7 C 0.0174(7) 0.1050(4) -0.2349(9)
C8 C 0.0720(6) 0.0243(4) -0.1599(8)
C9 C 0.0189(7) 0.0497(4) -0.2379(9)
C10 C -0.0368(6) 0.0249(4) -0.3181(9)
C11 C 0.1062(14) 0.0697(10) 0.0470(17)
H7 H 0.0754 0.0987 0.0336
H8 H 0.1459 0.0741 0.1165
H9 H 0.0768 0.0417 0.0562
C12 C -0.1674(10) 0.0797(8) -0.3532(18)
H10 H -0.1979 0.0525 -0.3423
H11 H -0.1982 0.1046 -0.3997
H12 H -0.1423 0.0933 -0.2786
C13 C -0.1090(7) 0.2111(4) -0.4809(9)
C14 C -0.1899(7) 0.2748(4) -0.4339(9)
C15 C -0.1821(7) 0.2317(4) -0.4908(10)
C16 C -0.2418(7) 0.2065(4) -0.5563(9)
C17 C -0.0781(17) 0.3360(13) -0.445(2)
H13 H -0.1096 0.3641 -0.4705
H14 H -0.0790 0.3154 -0.5114
H15 H -0.0282 0.3469 -0.4109
C18 C -0.2219(10) 0.1751(6) -0.7581(11)
H16 H -0.2672 0.1921 -0.7951
H17 H -0.2145 0.1485 -0.8070
H18 H -0.1809 0.1977 -0.7461
O1 O -0.0767(6) 0.1916(4) -0.0120(9)
O2 O 0.0556(4) 0.1279(3) -0.2848(6)
O3 O -0.0225(5) 0.1227(3) -0.1780(7)
O4 O -0.0813(5) 0.2149(4) -0.5636(7)
O5 O -0.0788(5) 0.1858(3) -0.3899(6)
O6 O -0.1320(6) 0.2214(4) -0.1787(9)
Pb1 Pb 0.0000 0.14418(2) -0.5000
Pb2 Pb -0.01020(3) 0.206480(15) -0.18998(3)
S1 S -0.0969(2) 0.30473(13) 0.0670(4)
S2 S -0.2608(2) 0.15018(13) -0.1325(3)
S3 S 0.1417(2) 0.06061(11) -0.0666(3)
S4 S -0.1014(2) 0.05904(12) -0.4246(3)
S5 S -0.1101(2) 0.30284(12) -0.3433(3)
S6 S -0.2277(2) 0.15144(11) -0.6217(3)
C1F C -0.3736(8) 0.2864(5) 0.0766(13)
C2F C -0.3159(7) 0.2244(4) -0.0304(9)
C3F C -0.3084(7) 0.2688(4) 0.0339(8)
C4F C -0.2437(7) 0.2940(4) 0.0604(8)
C5F C -0.3853(12) 0.1436(8) 0.025(2)
H1F H -0.3402 0.1487 0.0849
H2F H -0.4259 0.1388 0.0592
H3F H -0.3801 0.1149 -0.0201
C6F C -0.2075(15) 0.3285(8) 0.2805(14)
H4F H -0.1629 0.3095 0.2895
H5F H -0.1974 0.3563 0.3324
H6F H -0.2452 0.3084 0.2988
C7E C 0.0174(7) -0.1050(4) -0.2349(9)
C8E C 0.0720(6) -0.0243(4) -0.1599(8)
C9E C 0.0189(7) -0.0497(4) -0.2379(9)
C10E C -0.0368(6) -0.0249(4) -0.3181(9)
C11E C 0.1062(14) -0.0697(10) 0.0470(17)
H7E H 0.0754 -0.0987 0.0336
H8E H 0.1459 -0.0741 0.1165
H9E H 0.0768 -0.0417 0.0562
C12E C -0.1674(10) -0.0797(8) -0.3532(18)
H10E H -0.1979 -0.0525 -0.3423
H11E H -0.1982 -0.1046 -0.3997
H12E H -0.1423 -0.0933 -0.2786
C13F C -0.3910(7) 0.2889(4) -0.5191(9)
C14F C -0.3101(7) 0.2252(4) -0.5661(9)
C15F C -0.3179(7) 0.2683(4) -0.5092(10)
C16F C -0.2582(7) 0.2935(4) -0.4437(9)
C17F C -0.4219(17) 0.1640(13) -0.555(2)
H13F H -0.3904 0.1359 -0.5295
H14F H -0.4210 0.1846 -0.4886
H15F H -0.4718 0.1531 -0.5891
C18F C -0.2781(10) 0.3249(6) -0.2419(11)
H16F H -0.2328 0.3079 -0.2049
H17F H -0.2855 0.3515 -0.1930
H18F H -0.3191 0.3023 -0.2539
O1F O -0.4233(6) 0.3084(4) 0.0120(9)
O1A O 0.0767(6) 0.1916(4) 0.0120(9)
O1E O -0.0767(6) -0.1916(4) -0.0120(9)
O1D O 0.0767(6) -0.1916(4) 0.0120(9)
O2E O 0.0556(4) -0.1279(3) -0.2848(6)
O2A O -0.0556(4) 0.1279(3) -0.7152(6)
O3E O -0.0225(5) -0.1227(3) -0.1780(7)
O4A O 0.0813(5) 0.2149(4) -0.4364(7)
O4F O -0.4187(5) 0.2851(4) -0.4364(7)
O5E O -0.0788(5) -0.1858(3) -0.3899(6)
O5A O 0.0788(5) 0.1858(3) -0.6101(6)
O5F O -0.4212(5) 0.3142(3) -0.6101(6)
O6F O -0.3680(6) 0.2786(4) 0.1787(9)
O6E O -0.1320(6) -0.2214(4) -0.1787(9)
Pb1F Pb -0.5000 0.35582(2) -0.5000
Pb1D Pb 0.0000 -0.14418(2) -0.5000
Pb2A Pb 0.01020(3) 0.206480(15) 0.18998(3)
Pb2G Pb -0.51020(3) 0.293520(15) -0.18998(3)
Pb2F Pb -0.48980(3) 0.293520(15) 0.18998(3)
Pb2E Pb -0.01020(3) -0.206480(15) -0.18998(3)
Pb2F_2 Pb -0.48980(3) 0.293520(15) -0.81002(3)
S1F S -0.4031(2) 0.19527(13) -0.0670(4)
S2F S -0.2392(2) 0.34982(13) 0.1325(3)
S3E S 0.1417(2) -0.06061(11) -0.0666(3)
S4E S -0.1014(2) -0.05904(12) -0.4246(3)
S5F S -0.3899(2) 0.19716(12) -0.6567(3)
S6F S -0.2723(2) 0.34856(11) -0.3783(3)
loop_
_geom_bond_atom_site_label_1
_geom_bond_atom_site_label_2
_geom_bond_site_symmetry_1
_geom_bond_site_symmetry_2
C1 C3 1_555 1_555
C2 C3 1_555 1_555
C3 C4 1_555 1_555
C4 S2 1_555 1_555
C5 H1 1_555 1_555
H2 C5 1_555 1_555
H3 C5 1_555 1_555
C6 H4 1_555 1_555
H5 C6 1_555 1_555
H6 C6 1_555 1_555
C7 C9 1_555 1_555
C8 C9 1_555 1_555
C9 C10 1_555 1_555
C10 S4 1_555 1_555
C11 H7 1_555 1_555
H8 C11 1_555 1_555
H9 C11 1_555 1_555
C12 H10 1_555 1_555
H11 C12 1_555 1_555
H12 C12 1_555 1_555
C13 C15 1_555 1_555
C14 C15 1_555 1_555
C15 C16 1_555 1_555
C16 S6 1_555 1_555
C17 H13 1_555 1_555
H14 C17 1_555 1_555
H15 C17 1_555 1_555
C18 H16 1_555 1_555
H17 C18 1_555 1_555
H18 C18 1_555 1_555
O1 C1 1_555 1_555
O2 C7 1_555 1_555
O3 C7 1_555 1_555
O4 C13 1_555 1_555
O5 C13 1_555 1_555
O6 C1 1_555 1_555
Pb1 O2 1_555 1_555
Pb2 O1 1_555 1_555
S1 C2 1_555 1_555
S2 C6 1_555 1_555
S3 C8 1_555 1_555
S4 C12 1_555 1_555
S5 C14 1_555 1_555
S6 C18 1_555 1_555
C1F C3F 1_555 1_555
C2F C4 1_555 1_555
C3F C2F 1_555 1_555
C4F C2 1_555 1_555
C5F H1F 1_555 1_555
H2F C5F 1_555 1_555
H3F C5F 1_555 1_555
C6F H4F 1_555 1_555
H5F C6F 1_555 1_555
H6F C6F 1_555 1_555
C7E C9E 1_555 1_555
C8E C8 1_555 1_555
C9E C8E 1_555 1_555
C10E C10 1_555 1_555
C11E H7E 1_555 1_555
H8E C11E 1_555 1_555
H9E C11E 1_555 1_555
C12E H10E 1_555 1_555
H11E C12E 1_555 1_555
H12E C12E 1_555 1_555
C13F C15F 1_555 1_555
C14F C16 1_555 1_555
C15F C14F 1_555 1_555
C16F C14 1_555 1_555
C17F H13F 1_555 1_555
H14F C17F 1_555 1_555
H15F C17F 1_555 1_555
C18F H16F 1_555 1_555
H17F C18F 1_555 1_555
H18F C18F 1_555 1_555
O1F C1F 1_555 1_555
O1A Pb2 1_555 1_555
O1E Pb2E 1_555 1_555
O1D Pb2E 1_555 1_555
O2E C7E 1_555 1_555
O2A Pb1 1_555 1_555
O3E C7E 1_555 1_555
O4A Pb1 1_555 1_555
O4F C13F 1_555 1_555
O5E Pb1D 1_555 1_555
O5A Pb1 1_555 1_555
O5F C13F 1_555 1_555
O6F C1F 1_555 1_555
O6E Pb2E 1_555 1_555
Pb1F O4F 1_555 1_555
Pb1D O2E 1_555 1_555
Pb2A O1 1_555 1_555
Pb2G O1F 1_555 1_555
Pb2F O1F 1_555 1_555
Pb2E O2E 1_555 1_555
Pb2F_2 O5F 1_555 1_555
S1F C2F 1_555 1_555
S2F C4F 1_555 1_555
S3E C8E 1_555 1_555
S4E C10E 1_555 1_555
S5F C14F 1_555 1_555
S6F C16F 1_555 1_555
C5 S1 1_555 1_555
C11 S3 1_555 1_555
C17 S5 1_555 1_555
O2 Pb2 1_555 1_555
O3 Pb2 1_555 1_555
O4 Pb1 1_555 1_555
O5 Pb1 1_555 1_555
O5 Pb2 1_555 1_555
O6 Pb2 1_555 1_555
C3F C4F 1_555 1_555
C5F S1F 1_555 1_555
C6F S2F 1_555 1_555
C9E C10E 1_555 1_555
C11E S3E 1_555 1_555
C12E S4E 1_555 1_555
C15F C16F 1_555 1_555
C17F S5F 1_555 1_555
C18F S6F 1_555 1_555
O1A Pb2A 1_555 1_555
O3E Pb2E 1_555 1_555
O5E Pb2E 1_555 1_555
O5F Pb1F 1_555 1_555
O6F Pb2F 1_555 1_555

#END
