
#######################################################################
#
#                 Cambridge Crystallographic Data Centre
#                                CCDC 
#
#######################################################################
#
# If this CIF has been generated from an entry in the Cambridge 
# Structural Database, then it will include bibliographic, chemical, 
# crystal, experimental, refinement or atomic coordinate data resulting 
# from the CCDC's data processing and validation procedures.
#
#######################################################################

data_MUDTEM
_symmetry_cell_setting           monoclinic
_symmetry_space_group_name_H-M   'P 21/n'
_symmetry_Int_Tables_number      14
_space_group_name_Hall           '-P 2yn'
loop_
_symmetry_equiv_pos_site_id
_symmetry_equiv_pos_as_xyz
1 x,y,z
2 1/2-x,1/2+y,1/2-z
3 -x,-y,-z
4 1/2+x,1/2-y,1/2+z
_cell_length_a                   20.476(2)
_cell_length_b                   8.5749(6)
_cell_length_c                   21.202(2)
_cell_angle_alpha                90
_cell_angle_beta                 115.735(8)
_cell_angle_gamma                90
_cell_volume                     3353.4
loop_
_atom_site_label
_atom_site_type_symbol
_atom_site_fract_x
_atom_site_fract_y
_atom_site_fract_z
C1 C 0.0986(3) 0.1953(10) 0.5575(4)
H1 H 0.1214 0.2781 0.5430
H2 H 0.0512 0.2317 0.5507
C2 C 0.1446(4) 0.1620(10) 0.6357(4)
H3 H 0.1200 0.0860 0.6518
H4 H 0.1910 0.1186 0.6427
N1 N 0.3478(3) 0.2130(8) 0.8633(3)
C3 C 0.3275(3) 0.2743(11) 0.7461(4)
H5 H 0.2950 0.3017 0.7009
C4 C 0.3030(3) 0.2514(9) 0.7966(4)
C5 C 0.4198(4) 0.1948(11) 0.8787(4)
H6 H 0.4515 0.1657 0.9241
C6 C 0.4470(4) 0.2164(10) 0.8323(4)
H7 H 0.4965 0.2051 0.8456
C7 C 0.3993(4) 0.2569(11) 0.7623(5)
H8 H 0.4164 0.2712 0.7287
C8 C 0.1565(4) 0.3098(11) 0.6776(4)
H9 H 0.1100 0.3601 0.6650
H10 H 0.1862 0.3800 0.6651
Se1 Se 0.08680(4) 0.01309(12) 0.49829(5)
Se2 Se 0.20362(4) 0.27599(14) 0.77940(5)
Co1 Co 0.17984(5) -0.32192(14) 0.55555(6)
Cl1 Cl 0.26670(10) -0.5043(3) 0.58315(11)
Cl2 Cl 0.08182(11) -0.4132(3) 0.46300(12)
C9 C 0.2150(4) 0.1387(10) 0.4943(5)
H11 H 0.1873 0.2281 0.4769
N2 N 0.2230(3) -0.1238(8) 0.5345(3)
C10 C 0.1849(3) 0.0076(11) 0.5087(4)
C11 C 0.2874(4) 0.1360(12) 0.5059(5)
H12 H 0.3085 0.2227 0.4958
C12 C 0.2934(4) -0.1230(11) 0.5444(4)
H13 H 0.3200 -0.2143 0.5603
C13 C 0.3273(4) 0.0026(12) 0.5328(4)
H14 H 0.3761 -0.0017 0.5426
N1A N 0.1522(3) -0.2870(8) 0.6367(3)
Co1A Co 0.32016(5) 0.17808(14) 0.94445(6)
N3 N 0.4774(3) -0.5782(8) 0.2906(3)
C14 C 0.5097(4) -0.8450(10) 0.2927(4)
H15 H 0.5243 -0.9379 0.3176
C15 C 0.4429(4) -0.9009(10) 0.4069(4)
H16 H 0.4597 -0.9861 0.3876
H17 H 0.4486 -0.9325 0.4529
C16 C 0.4972(3) -0.7168(11) 0.3231(4)
C17 C 0.3629(4) -0.8724(10) 0.3601(5)
H18 H 0.3448 -0.7930 0.3810
H19 H 0.3572 -0.8343 0.3149
C18 C 0.4730(4) -0.5712(11) 0.2246(5)
H20 H 0.4618 -0.4755 0.2017
C19 C 0.3188(3) -1.0209(11) 0.3498(4)
H21 H 0.3276 -1.0625 0.3954
H22 H 0.3353 -1.0977 0.3264
C20 C 0.4840(4) -0.6941(13) 0.1903(5)
H23 H 0.4805 -0.6829 0.1453
C21 C 0.5003(5) -0.8363(12) 0.2239(5)
H24 H 0.5050 -0.9249 0.2009
Se3 Se 0.50329(4) -0.71888(11) 0.41664(4)
Se4 Se 0.21490(4) -0.98897(15) 0.29523(4)
Co2 Co 0.44994(5) -0.39056(13) 0.33242(6)
Cl3 Cl 0.43003(9) -0.2021(3) 0.25259(11)
Cl4 Cl 0.53655(9) -0.3023(3) 0.43440(11)
C22 C 0.2664(4) -0.9918(13) 0.1877(4)
H25 H 0.3124 -1.0110 0.2232
C23 C 0.2090(3) -0.9706(10) 0.2033(4)
N4 N 0.1421(3) -0.9372(7) 0.1532(3)
C24 C 0.1881(4) -0.9525(10) 0.0671(4)
H26 H 0.1800 -0.9444 0.0205
C25 C 0.1320(4) -0.9325(10) 0.0866(4)
H27 H 0.0854 -0.9150 0.0518
C26 C 0.2556(4) -0.9844(12) 0.1186(5)
H28 H 0.2941 -1.0011 0.1073
Co2A Co 0.05006(5) -0.89056(13) 0.16758(6)
N4A N 0.3579(3) -0.4372(7) 0.3468(3)
loop_
_geom_bond_atom_site_label_1
_geom_bond_atom_site_label_2
_geom_bond_site_symmetry_1
_geom_bond_site_symmetry_2
C1 H1 1_555 1_555
H2 C1 1_555 1_555
C2 C1 1_555 1_555
H3 C2 1_555 1_555
H4 C2 1_555 1_555
N1 C4 1_555 1_555
C3 H5 1_555 1_555
C4 C3 1_555 1_555
C5 N1 1_555 1_555
H6 C5 1_555 1_555
C6 C5 1_555 1_555
H7 C6 1_555 1_555
C7 C3 1_555 1_555
H8 C7 1_555 1_555
C8 C2 1_555 1_555
H9 C8 1_555 1_555
H10 C8 1_555 1_555
Se1 C1 1_555 1_555
Se2 C4 1_555 1_555
Co1 Cl1 1_555 1_555
Cl2 Co1 1_555 1_555
C9 H11 1_555 1_555
N2 Co1 1_555 1_555
C10 Se1 1_555 1_555
C11 C9 1_555 1_555
H12 C11 1_555 1_555
C12 N2 1_555 1_555
H13 C12 1_555 1_555
C13 C11 1_555 1_555
H14 C13 1_555 1_555
N3 C16 1_555 1_555
C14 H15 1_555 1_555
C15 H16 1_555 1_555
H17 C15 1_555 1_555
C16 C14 1_555 1_555
C17 C15 1_555 1_555
H18 C17 1_555 1_555
H19 C17 1_555 1_555
C18 N3 1_555 1_555
H20 C18 1_555 1_555
C19 C17 1_555 1_555
H21 C19 1_555 1_555
H22 C19 1_555 1_555
C20 C18 1_555 1_555
H23 C20 1_555 1_555
C21 C14 1_555 1_555
H24 C21 1_555 1_555
Se3 C15 1_555 1_555
Se4 C19 1_555 1_555
Co2 N3 1_555 1_555
Cl3 Co2 1_555 1_555
Cl4 Co2 1_555 1_555
C22 H25 1_555 1_555
C23 Se4 1_555 1_555
N4 C23 1_555 1_555
C24 H26 1_555 1_555
C25 N4 1_555 1_555
H27 C25 1_555 1_555
C26 C22 1_555 1_555
H28 C26 1_555 1_555
N1A Co1 1_555 1_555
Co1A N1 1_555 1_555
Co2A N4 1_555 1_555
N4A Co2 1_555 1_555
C6 C7 1_555 1_555
C8 Se2 1_555 1_555
C9 C10 1_555 1_555
N2 C10 1_555 1_555
C12 C13 1_555 1_555
C16 Se3 1_555 1_555
C20 C21 1_555 1_555
C22 C23 1_555 1_555
C24 C25 1_555 1_555
C24 C26 1_555 1_555

#END
