
#######################################################################
#
#                 Cambridge Crystallographic Data Centre
#                                CCDC 
#
#######################################################################
#
# If this CIF has been generated from an entry in the Cambridge 
# Structural Database, then it will include bibliographic, chemical, 
# crystal, experimental, refinement or atomic coordinate data resulting 
# from the CCDC's data processing and validation procedures.
#
#######################################################################

data_MUDYAM
_symmetry_cell_setting           triclinic
_symmetry_space_group_name_H-M   'P -1'
_symmetry_Int_Tables_number      2
_space_group_name_Hall           '-P 1'
loop_
_symmetry_equiv_pos_site_id
_symmetry_equiv_pos_as_xyz
1 x,y,z
2 -x,-y,-z
_cell_length_a                   10.860(2)
_cell_length_b                   11.219(2)
_cell_length_c                   15.377(3)
_cell_angle_alpha                105.62(3)
_cell_angle_beta                 98.15(3)
_cell_angle_gamma                109.04(3)
_cell_volume                     1650.47
loop_
_atom_site_label
_atom_site_type_symbol
_atom_site_fract_x
_atom_site_fract_y
_atom_site_fract_z
Mo1 Mo 0.70156(6) 0.52613(6) 0.36085(4)
Mo2 Mo 0.81632(6) 0.72235(6) 0.58255(4)
Mo3 Mo 0.61034(6) 0.69759(6) 0.72185(4)
Al1 Al 0.5000 0.5000 0.5000
O1 O 0.5929(5) 0.6848(4) 0.5690(3)
H1 H 0.555(6) 0.736(6) 0.557(5)
O2 O 0.4995(5) 0.5200(5) 0.3814(3)
H2 H 0.482(7) 0.582(5) 0.367(5)
O3 O 0.6750(5) 0.4995(4) 0.4994(3)
H3 H 0.690(7) 0.436(5) 0.512(5)
O4 O 0.8456(5) 0.4928(5) 0.3683(3)
O5 O 0.9574(5) 0.6853(5) 0.5865(3)
O6 O 0.5787(5) 0.3394(5) 0.3107(3)
O7 O 0.6264(5) 0.6509(5) 0.8190(3)
O8 O 0.6660(5) 0.8674(5) 0.7610(3)
O9 O 0.8723(5) 0.8925(5) 0.6264(3)
O10 O 0.7665(5) 0.6717(5) 0.6866(3)
O11 O 0.6822(5) 0.5711(5) 0.2643(3)
O12 O 0.7680(5) 0.7031(4) 0.4529(3)
Na1 Na 1.0000 0.5000 0.5000
O13 O 0.8327(6) 0.3702(6) 0.5574(4)
H4 H 0.848(8) 0.403(6) 0.6166(11)
H5 H 0.823(9) 0.288(3) 0.541(4)
Mo1A Mo 0.29844(6) 0.47387(6) 0.63915(4)
Mo2A Mo 0.18368(6) 0.27765(6) 0.41745(4)
Mo3A Mo 0.38966(6) 0.30241(6) 0.27815(4)
O1A O 0.4071(5) 0.3152(4) 0.4310(3)
H1A H 0.445(6) 0.264(6) 0.443(5)
O2A O 0.5005(5) 0.4800(5) 0.6186(3)
H2A H 0.518(7) 0.418(5) 0.633(5)
O3A O 0.3250(5) 0.5005(4) 0.5006(3)
H3A H 0.310(7) 0.564(5) 0.488(5)
O4A O 0.1544(5) 0.5072(5) 0.6317(3)
O4A_2 O 1.1544(5) 0.5072(5) 0.6317(3)
O5A O 0.0426(5) 0.3147(5) 0.4135(3)
O5A_2 O 1.0426(5) 0.3147(5) 0.4135(3)
O6A O 0.4213(5) 0.6606(5) 0.6893(3)
O7A O 0.3736(5) 0.3491(5) 0.1810(3)
O8A O 0.3340(5) 0.1326(5) 0.2390(3)
O9A O 0.1277(5) 0.1075(5) 0.3736(3)
O10A O 0.2335(5) 0.3283(5) 0.3134(3)
O11A O 0.3178(5) 0.4289(5) 0.7357(3)
O12A O 0.2320(5) 0.2969(4) 0.5471(3)
Na1_2 Na 0.0000 0.5000 0.5000
O13A O 1.1673(6) 0.6298(6) 0.4426(4)
H4A H 1.152(8) 0.597(6) 0.3834(11)
H5A H 1.177(9) 0.712(3) 0.459(4)
Mn1 Mn 0.93307(10) 0.61446(10) 1.01953(7)
O14 O 0.7305(5) 0.6147(6) 0.9859(4)
H6 H 0.682(6) 0.629(8) 1.023(3)
H7 H 0.696(6) 0.612(8) 0.932(2)
O15 O 0.8674(4) 0.4247(4) 0.9553(3)
O16 O 0.9709(5) 0.6648(4) 0.9170(3)
N1 N 0.9153(6) 0.5820(6) 1.1374(4)
N2 N 1.0175(6) 0.8019(6) 1.1052(4)
C1 C 0.7605(7) 0.3405(7) 0.9726(5)
C2 C 0.6704(7) 0.2271(7) 0.9005(5)
H8 H 0.6836 0.2105 0.8393
C3 C 0.5622(8) 0.1385(8) 0.9171(6)
H9 H 0.5001 0.0627 0.8667
C4 C 0.5420(7) 0.1578(8) 1.0061(6)
H10 H 0.4660 0.0968 1.0165
C5 C 0.6338(7) 0.2668(8) 1.0792(5)
H11 H 0.6230 0.2788 1.1408
C6 C 0.7423(7) 0.3596(7) 1.0638(5)
C7 C 0.8345(7) 0.4717(7) 1.1438(5)
H12 H 0.8362 0.4643 1.2041
C8 C 1.0018(8) 0.6953(7) 1.2210(5)
H13 H 1.0951 0.6986 1.2327
H14 H 0.9674 0.6885 1.2765
C9 C 0.9970(8) 0.8190(7) 1.1998(5)
H15 H 0.9088 0.8258 1.2020
H16 H 1.0687 0.9012 1.2457
C10 C 1.0820(7) 0.9047(7) 1.0844(5)
H17 H 1.1199 0.9890 1.1332
C11 C 1.1013(7) 0.9026(7) 0.9935(5)
C12 C 1.1800(7) 1.0242(7) 0.9843(5)
H18 H 1.2190 1.1027 1.0379
C13 C 1.2014(7) 1.0318(8) 0.9007(6)
H19 H 1.2558 1.1141 0.8957
C14 C 1.1414(7) 0.9153(8) 0.8221(6)
H20 H 1.1528 0.9204 0.7629
C15 C 1.0668(7) 0.7945(7) 0.8279(5)
H21 H 1.0298 0.7167 0.7737
C16 C 1.0452(6) 0.7859(7) 0.9141(5)
Mn1A Mn 1.06693(10) 0.38554(10) 0.98047(7)
O14A O 1.2695(5) 0.3853(6) 1.0141(4)
H6A H 1.318(6) 0.371(8) 0.977(3)
H7A H 1.304(6) 0.388(8) 1.068(2)
O15A O 1.1326(4) 0.5753(4) 1.0447(3)
O16A O 1.0291(5) 0.3352(4) 1.0830(3)
N1A N 1.0847(6) 0.4180(6) 0.8626(4)
N2A N 0.9825(6) 0.1981(6) 0.8948(4)
C1A C 1.2395(7) 0.6595(7) 1.0274(5)
C2A C 1.3296(7) 0.7729(7) 1.0995(5)
H8A H 1.3164 0.7895 1.1607
C3A C 1.4378(8) 0.8615(8) 1.0829(6)
H9A H 1.4999 0.9373 1.1333
C4A C 1.4580(7) 0.8422(8) 0.9939(6)
H10A H 1.5340 0.9032 0.9835
C5A C 1.3662(7) 0.7332(8) 0.9208(5)
H11A H 1.3770 0.7212 0.8592
C6A C 1.2577(7) 0.6404(7) 0.9362(5)
C7A C 1.1655(7) 0.5283(7) 0.8562(5)
H12A H 1.1638 0.5357 0.7959
C8A C 0.9982(8) 0.3047(7) 0.7790(5)
H13A H 0.9049 0.3014 0.7673
H14A H 1.0326 0.3115 0.7235
C9A C 1.0030(8) 0.1810(7) 0.8002(5)
H15A H 1.0912 0.1742 0.7980
H16A H 0.9313 0.0988 0.7543
C10A C 0.9180(7) 0.0953(7) 0.9156(5)
H17A H 0.8801 0.0110 0.8668
C11A C 0.8987(7) 0.0974(7) 1.0065(5)
C12A C 0.8200(7) -0.0242(7) 1.0157(5)
H18A H 0.7810 -0.1027 0.9621
C13A C 0.7986(7) -0.0318(8) 1.0993(6)
H19A H 0.7442 -0.1141 1.1043
C14A C 0.8586(7) 0.0847(8) 1.1779(6)
H20A H 0.8472 0.0796 1.2371
C15A C 0.9332(7) 0.2055(7) 1.1721(5)
H21A H 0.9702 0.2833 1.2263
C16A C 0.9548(6) 0.2141(7) 1.0859(5)
O17 O 0.8681(5) 0.9270(6) 0.3998(4)
H22 H 0.857(6) 0.873(7) 0.430(5)
H23 H 0.946(4) 0.949(8) 0.390(6)
O18 O 0.8172(5) 0.4759(5) 0.7416(3)
H24 H 0.865(6) 0.515(5) 0.797(2)
H25 H 0.791(7) 0.528(5) 0.721(4)
O19 O 0.5784(7) 0.6290(7) 1.1105(4)
H26 H 0.595(9) 0.590(8) 1.148(4)
H27 H 0.544(9) 0.684(7) 1.133(5)
O20 O 0.6282(6) 0.8752(6) 0.2765(4)
H28 H 0.701(5) 0.880(7) 0.309(5)
H29 H 0.614(7) 0.946(5) 0.298(5)
O21 O 0.5620(5) 0.2840(6) 0.6574(4)
H30 H 0.502(4) 0.243(7) 0.680(4)
H31 H 0.637(3) 0.329(7) 0.698(3)
O22 O 0.5322(8) 0.1559(8) 0.4751(6)
O23 O 0.7035(9) 0.1725(9) 0.3520(6)
O24 O 0.8621(10) 1.1325(11) 0.5534(7)
O25 O 0.6815(8) 1.0629(7) 0.6649(6)
H32 H 0.733(9) 1.086(10) 0.630(7)
H33 H 0.691(10) 0.997(8) 0.679(8)
O26? O 0.802(3) 1.113(3) 0.549(3)
loop_
_geom_bond_atom_site_label_1
_geom_bond_atom_site_label_2
_geom_bond_site_symmetry_1
_geom_bond_site_symmetry_2
Mo1 O2 1_555 1_555
Mo2 O1 1_555 1_555
Mo3 O1 1_555 1_555
Al1 O1 1_555 1_555
O1 H1 1_555 1_555
O2 Al1 1_555 1_555
H2 O2 1_555 1_555
O3 Mo1 1_555 1_555
H3 O3 1_555 1_555
O4 Mo1 1_555 1_555
O5 Mo2 1_555 1_555
O6 Mo1 1_555 1_555
O7 Mo3 1_555 1_555
O8 Mo3 1_555 1_555
O9 Mo2 1_555 1_555
O10 Mo2 1_555 1_555
O11 Mo1 1_555 1_555
O12 Mo1 1_555 1_555
Na1 O4 1_555 1_555
O13 Na1 1_555 1_555
H4 O13 1_555 1_555
H5 O13 1_555 1_555
Mn1 O14 1_555 1_555
O14 H6 1_555 1_555
H7 O14 1_555 1_555
O15 Mn1 1_555 1_555
O16 Mn1 1_555 1_555
N1 Mn1 1_555 1_555
N2 Mn1 1_555 1_555
C1 O15 1_555 1_555
C2 C1 1_555 1_555
H8 C2 1_555 1_555
C3 C2 1_555 1_555
H9 C3 1_555 1_555
C4 C3 1_555 1_555
H10 C4 1_555 1_555
C5 C4 1_555 1_555
H11 C5 1_555 1_555
C6 C1 1_555 1_555
C7 N1 1_555 1_555
H12 C7 1_555 1_555
C8 N1 1_555 1_555
H13 C8 1_555 1_555
H14 C8 1_555 1_555
C9 N2 1_555 1_555
H15 C9 1_555 1_555
H16 C9 1_555 1_555
C10 N2 1_555 1_555
H17 C10 1_555 1_555
C11 C10 1_555 1_555
C12 C11 1_555 1_555
H18 C12 1_555 1_555
C13 C12 1_555 1_555
H19 C13 1_555 1_555
C14 C13 1_555 1_555
H20 C14 1_555 1_555
C15 C14 1_555 1_555
H21 C15 1_555 1_555
C16 O16 1_555 1_555
O17 H22 1_555 1_555
H23 O17 1_555 1_555
O18 H24 1_555 1_555
H25 O18 1_555 1_555
O19 H26 1_555 1_555
H27 O19 1_555 1_555
O20 H28 1_555 1_555
H29 O20 1_555 1_555
O21 H30 1_555 1_555
H31 O21 1_555 1_555
O25 H32 1_555 1_555
H33 O25 1_555 1_555
Mo1A O2A 1_555 1_555
Mo2A O1A 1_555 1_555
Mo3A O2 1_555 1_555
O1A Al1 1_555 1_555
H1A O1A 1_555 1_555
O2A Mo3 1_555 1_555
H2A O2A 1_555 1_555
O3A Al1 1_555 1_555
H3A O3A 1_555 1_555
O4A Mo1A 1_555 1_555
O4A_2 Na1 1_555 1_555
O5A Mo2A 1_555 1_555
O5A_2 Na1 1_555 1_555
O6A Mo3 1_555 1_555
O7A Mo3A 1_555 1_555
O8A Mo3A 1_555 1_555
O9A Mo2A 1_555 1_555
O10A Mo2A 1_555 1_555
O11A Mo1A 1_555 1_555
O12A Mo1A 1_555 1_555
Na1_2 O4A 1_555 1_555
O13A Na1 1_555 1_555
H4A O13A 1_555 1_555
H5A O13A 1_555 1_555
Mn1A O15 1_555 1_555
O14A Mn1A 1_555 1_555
H6A O14A 1_555 1_555
H7A O14A 1_555 1_555
O15A Mn1 1_555 1_555
O16A Mn1A 1_555 1_555
N1A Mn1A 1_555 1_555
N2A Mn1A 1_555 1_555
C1A O15A 1_555 1_555
C2A C1A 1_555 1_555
H8A C2A 1_555 1_555
C3A C2A 1_555 1_555
H9A C3A 1_555 1_555
C4A C3A 1_555 1_555
H10A C4A 1_555 1_555
C5A C4A 1_555 1_555
H11A C5A 1_555 1_555
C6A C1A 1_555 1_555
C7A N1A 1_555 1_555
H12A C7A 1_555 1_555
C8A N1A 1_555 1_555
H13A C8A 1_555 1_555
H14A C8A 1_555 1_555
C9A N2A 1_555 1_555
H15A C9A 1_555 1_555
H16A C9A 1_555 1_555
C10A N2A 1_555 1_555
H17A C10A 1_555 1_555
C11A C10A 1_555 1_555
C12A C11A 1_555 1_555
H18A C12A 1_555 1_555
C13A C12A 1_555 1_555
H19A C13A 1_555 1_555
C14A C13A 1_555 1_555
H20A C14A 1_555 1_555
C15A C14A 1_555 1_555
H21A C15A 1_555 1_555
C16A O16A 1_555 1_555
Mo2 O3 1_555 1_555
Mo2 O12 1_555 1_555
Mo3 O10 1_555 1_555
Al1 O3 1_555 1_555
Al1 O2A 1_555 1_555
O5 Na1 1_555 1_555
O6 Mo3A 1_555 1_555
C5 C6 1_555 1_555
C6 C7 1_555 1_555
C8 C9 1_555 1_555
C11 C16 1_555 1_555
C15 C16 1_555 1_555
Mo1A O3A 1_555 1_555
Mo1A O6A 1_555 1_555
Mo2A O3A 1_555 1_555
Mo2A O12A 1_555 1_555
Mo3A O1A 1_555 1_555
Mo3A O10A 1_555 1_555
O5A Na1_2 1_555 1_555
Mn1A O15A 1_555 1_555
C5A C6A 1_555 1_555
C6A C7A 1_555 1_555
C8A C9A 1_555 1_555
C11A C16A 1_555 1_555
C15A C16A 1_555 1_555

#END
