
#######################################################################
#
#                 Cambridge Crystallographic Data Centre
#                                CCDC 
#
#######################################################################
#
# If this CIF has been generated from an entry in the Cambridge 
# Structural Database, then it will include bibliographic, chemical, 
# crystal, experimental, refinement or atomic coordinate data resulting 
# from the CCDC's data processing and validation procedures.
#
#######################################################################

data_MUFBAQ
_symmetry_cell_setting           monoclinic
_symmetry_space_group_name_H-M   'P 21/n'
_symmetry_Int_Tables_number      14
_space_group_name_Hall           '-P 2yn'
loop_
_symmetry_equiv_pos_site_id
_symmetry_equiv_pos_as_xyz
1 x,y,z
2 1/2+x,1/2-y,1/2+z
3 -x,-y,-z
4 1/2-x,1/2+y,1/2-z
_cell_length_a                   17.4876(2)
_cell_length_b                   17.1889(2)
_cell_length_c                   36.6744(4)
_cell_angle_alpha                90
_cell_angle_beta                 90.723(1)
_cell_angle_gamma                90
_cell_volume                     11023.2
loop_
_atom_site_label
_atom_site_type_symbol
_atom_site_fract_x
_atom_site_fract_y
_atom_site_fract_z
Ag1 Ag 0.55036(2) -0.18320(2) 0.243680(11)
N1 N 0.5257(2) -0.3354(3) 0.33406(11)
C1 C 0.5997(3) -0.3083(3) 0.32001(14)
H1 H 0.6413 -0.3245 0.3369
H2 H 0.5998 -0.2508 0.3186
C2 C 0.6135(3) -0.3421(3) 0.28258(14)
H3 H 0.6630 -0.3229 0.2734
H4 H 0.6163 -0.3995 0.2843
N2 N 0.5515(2) -0.3199(3) 0.25678(12)
C3 C 0.4767(3) -0.3453(3) 0.27134(15)
H5 H 0.4756 -0.4027 0.2733
H6 H 0.4350 -0.3289 0.2545
C4 C 0.4649(3) -0.3093(3) 0.30872(15)
H7 H 0.4658 -0.2519 0.3067
H8 H 0.4144 -0.3250 0.3182
C5 C 0.5141(3) -0.3034(3) 0.37101(15)
H9 H 0.4609 -0.3133 0.3787
H10 H 0.5224 -0.2464 0.3707
C6 C 0.5692(3) -0.3407(3) 0.39781(14)
N3 N 0.5740(3) -0.4194(3) 0.39728(12)
C7 C 0.6230(3) -0.4560(3) 0.42024(15)
H11 H 0.6267 -0.5111 0.4197
C8 C 0.6679(3) -0.4137(3) 0.44456(14)
C9 C 0.6643(3) -0.3334(3) 0.44573(15)
H12 H 0.6953 -0.3045 0.4623
C10 C 0.6138(3) -0.2965(3) 0.42192(14)
H13 H 0.6096 -0.2414 0.4220
O1 O 0.7223(2) -0.4537(2) 0.46620(10)
S1 S 0.70304(8) -0.47043(9) 0.50835(4)
O2 O 0.7757(2) -0.4818(3) 0.52515(12)
O3 O 0.6529(2) -0.4111(2) 0.52092(11)
C11 C 0.6534(3) -0.5597(3) 0.50666(15)
C12 C 0.5768(3) -0.5615(4) 0.51572(18)
H14 H 0.5503 -0.5150 0.5217
C13 C 0.5398(4) -0.6322(4) 0.5159(2)
H15 H 0.4875 -0.6350 0.5224
C14 C 0.5786(5) -0.6990(4) 0.5066(2)
H16 H 0.5523 -0.7474 0.5065
C15 C 0.6550(4) -0.6969(4) 0.4974(2)
H17 H 0.6809 -0.7435 0.4911
C16 C 0.6933(4) -0.6266(4) 0.49751(19)
H18 H 0.7459 -0.6241 0.4914
C17 C 0.5662(3) -0.3550(3) 0.22080(15)
H19 H 0.5211 -0.3474 0.2046
H20 H 0.5747 -0.4116 0.2237
C18 C 0.6360(3) -0.3182(3) 0.20355(14)
N4 N 0.6385(2) -0.2400(3) 0.20292(12)
C19 C 0.6979(3) -0.2047(3) 0.18739(14)
H21 H 0.6996 -0.1494 0.1868
C20 C 0.7570(3) -0.2467(3) 0.17220(14)
C21 C 0.7567(3) -0.3265(3) 0.17331(16)
H22 H 0.7979 -0.3560 0.1638
C22 C 0.6941(4) -0.3626(3) 0.18892(16)
H23 H 0.6911 -0.4178 0.1895
O4 O 0.8185(2) -0.2038(2) 0.15760(10)
S2 S 0.83852(8) -0.21494(8) 0.11513(4)
O5 O 0.8607(3) -0.2937(3) 0.10911(13)
O6 O 0.8917(2) -0.1536(3) 0.10844(11)
C23 C 0.7510(3) -0.1966(4) 0.09345(15)
C24 C 0.7137(4) -0.2560(6) 0.0753(2)
H24 H 0.7346 -0.3070 0.0744
C25 C 0.6439(5) -0.2382(10) 0.0582(2)
H25 H 0.6174 -0.2773 0.0449
C26 C 0.6139(5) -0.1663(11) 0.0606(2)
H26 H 0.5660 -0.1562 0.0491
C27 C 0.6502(5) -0.1074(7) 0.0790(3)
H27 H 0.6280 -0.0570 0.0801
C28 C 0.7208(4) -0.1223(4) 0.09635(19)
H28 H 0.7470 -0.0828 0.1096
Ag2 Ag 0.52518(3) -0.47330(2) 0.342520(12)
N5 N 0.4050(2) -0.5582(3) 0.34980(12)
C29 C 0.3702(3) -0.5447(3) 0.38588(14)
H29 H 0.4108 -0.5440 0.4050
H30 H 0.3346 -0.5878 0.3914
C30 C 0.3275(3) -0.4685(3) 0.38617(14)
H31 H 0.3052 -0.4600 0.4105
H32 H 0.3633 -0.4253 0.3812
N6 N 0.2657(2) -0.4695(3) 0.35799(11)
C31 C 0.3012(3) -0.4803(3) 0.32214(14)
H33 H 0.3364 -0.4365 0.3173
H34 H 0.2610 -0.4805 0.3029
C32 C 0.3449(3) -0.5557(3) 0.32102(15)
H35 H 0.3091 -0.5997 0.3244
H36 H 0.3687 -0.5616 0.2968
C33 C 0.4431(3) -0.6346(3) 0.34947(16)
H37 H 0.4038 -0.6759 0.3482
H38 H 0.4723 -0.6413 0.3726
C34 C 0.4971(3) -0.6440(3) 0.31767(15)
N7 N 0.5454(2) -0.5847(3) 0.31125(12)
C35 C 0.5991(3) -0.5935(3) 0.28561(14)
H39 H 0.6337 -0.5522 0.2810
C36 C 0.6046(3) -0.6616(3) 0.26583(14)
C37 C 0.5545(3) -0.7224(3) 0.27137(15)
H40 H 0.5576 -0.7690 0.2575
C38 C 0.4995(3) -0.7129(3) 0.29799(16)
H41 H 0.4638 -0.7532 0.3027
O7 O 0.6653(2) -0.6715(2) 0.24105(11)
S3 S 0.65889(9) -0.62968(9) 0.20182(4)
O8 O 0.7277(3) -0.6534(4) 0.18476(13)
O9 O 0.6423(4) -0.5498(3) 0.20740(14)
C39 C 0.5804(4) -0.6757(4) 0.18117(16)
C40 C 0.5866(5) -0.7538(5) 0.1733(2)
H42 H 0.6320 -0.7821 0.1789
C41 C 0.5238(9) -0.7894(8) 0.1569(3)
H43 H 0.5259 -0.8434 0.1515
C42 C 0.4608(11) -0.7495(16) 0.1487(4)
H44 H 0.4187 -0.7754 0.1374
C43 C 0.4557(8) -0.6731(13) 0.1560(5)
H45 H 0.4110 -0.6452 0.1491
C44 C 0.5158(5) -0.6346(7) 0.1736(3)
H46 H 0.5117 -0.5813 0.1802
C45 C 0.2219(3) -0.3952(3) 0.35853(16)
H47 H 0.1871 -0.3931 0.3371
H48 H 0.2578 -0.3509 0.3569
C46 C 0.1755(3) -0.3877(3) 0.39315(15)
N8 N 0.1315(3) -0.4495(3) 0.40125(13)
C47 C 0.0881(3) -0.4471(3) 0.43086(15)
H49 H 0.0582 -0.4912 0.4371
C48 C 0.0861(3) -0.3816(3) 0.45259(14)
C49 C 0.1301(3) -0.3177(4) 0.44463(17)
H50 H 0.1283 -0.2724 0.4594
C50 C 0.1774(3) -0.3210(4) 0.41428(17)
H51 H 0.2100 -0.2787 0.4083
O10 O 0.0437(2) -0.3790(2) 0.48491(10)
S4 S -0.04735(8) -0.39396(8) 0.48485(4)
O11 O -0.0649(2) -0.3822(2) 0.52236(11)
O12 O -0.0643(2) -0.4658(2) 0.46740(12)
C51 C -0.0827(3) -0.3166(4) 0.45810(16)
C52 C -0.0595(4) -0.2417(4) 0.46684(19)
H52 H -0.0238 -0.2330 0.4861
C53 C -0.0888(5) -0.1799(4) 0.4472(2)
H53 H -0.0739 -0.1281 0.4529
C54 C -0.1405(5) -0.1947(5) 0.4191(2)
H54 H -0.1611 -0.1523 0.4056
C55 C -0.1631(4) -0.2701(6) 0.4103(2)
H55 H -0.1987 -0.2787 0.3910
C56 C -0.1336(3) -0.3330(4) 0.42980(18)
H56 H -0.1476 -0.3849 0.4240
Ag3 Ag 0.32297(2) -0.06566(2) 0.126370(11)
N9 N 0.4285(2) -0.1352(3) 0.15289(12)
C57 C 0.4021(3) -0.1923(3) 0.18038(15)
H57 H 0.4446 -0.2280 0.1868
H58 H 0.3598 -0.2237 0.1699
C58 C 0.3750(3) -0.1516(3) 0.21433(15)
H59 H 0.3306 -0.1180 0.2082
H60 H 0.3584 -0.1906 0.2324
N10 N 0.4372(2) -0.1040(3) 0.22996(12)
C59 C 0.4585(3) -0.0438(3) 0.20290(14)
H61 H 0.4987 -0.0096 0.2133
H62 H 0.4134 -0.0113 0.1968
C60 C 0.4874(3) -0.0827(3) 0.16894(14)
H63 H 0.5013 -0.0426 0.1508
H64 H 0.5340 -0.1131 0.1750
C61 C 0.4619(3) -0.1757(4) 0.12155(15)
H65 H 0.4973 -0.2163 0.1308
H66 H 0.4924 -0.1379 0.1075
C62 C 0.4045(3) -0.2131(3) 0.09622(14)
N11 N 0.3384(2) -0.1750(3) 0.08993(11)
C63 C 0.2917(3) -0.2001(3) 0.06307(14)
H67 H 0.2445 -0.1741 0.0588
C64 C 0.3112(3) -0.2630(3) 0.04152(14)
C65 C 0.3765(3) -0.3060(3) 0.04864(16)
H68 H 0.3888 -0.3509 0.0348
C66 C 0.4233(3) -0.2801(3) 0.07693(16)
H69 H 0.4683 -0.3082 0.0832
O13 O 0.2641(2) -0.2778(2) 0.01037(9)
S5 S 0.21302(8) -0.35588(8) 0.00962(4)
O14 O 0.2609(2) -0.4214(2) 0.01615(12)
O15 O 0.1713(3) -0.3483(2) -0.02388(11)
C67 C 0.1527(4) -0.3403(3) 0.04698(16)
C68 C 0.0935(4) -0.2878(4) 0.0428(2)
H70 H 0.0855 -0.2616 0.0202
C69 C 0.0461(5) -0.2738(5) 0.0718(2)
H71 H 0.0044 -0.2386 0.0691
C70 C 0.0590(5) -0.3105(5) 0.1042(3)
H72 H 0.0258 -0.3007 0.1240
C71 C 0.1194(5) -0.3617(5) 0.1090(2)
H73 H 0.1281 -0.3854 0.1321
C72 C 0.1685(5) -0.3788(4) 0.07945(19)
H74 H 0.2097 -0.4146 0.0818
C73 C 0.4148(3) -0.0679(3) 0.26474(15)
H75 H 0.3852 -0.1060 0.2791
H76 H 0.3813 -0.0227 0.2596
C74 C 0.4835(3) -0.0413(3) 0.28722(15)
N12 N 0.5456(2) -0.0879(3) 0.28714(12)
C75 C 0.6053(3) -0.0699(3) 0.30926(14)
H77 H 0.6494 -0.1023 0.3092
C76 C 0.6042(3) -0.0063(3) 0.33187(14)
C77 C 0.5424(4) 0.0434(3) 0.33178(16)
H78 H 0.5414 0.0881 0.3470
C78 C 0.4812(3) 0.0257(3) 0.30844(15)
H79 H 0.4381 0.0592 0.3071
O16 O 0.6681(2) 0.0104(2) 0.35390(10)
S6 S 0.68623(8) -0.04428(8) 0.38920(4)
O17 O 0.6540(3) -0.1191(2) 0.38244(11)
O18 O 0.7659(2) -0.0339(3) 0.39498(13)
C79 C 0.6357(4) 0.0025(3) 0.42410(15)
C80 C 0.5574(4) -0.0056(5) 0.42536(18)
H80 H 0.5314 -0.0361 0.4075
C81 C 0.5169(6) 0.0303(7) 0.4524(2)
H81 H 0.4628 0.0263 0.4533
C82 C 0.5574(8) 0.0725(6) 0.4784(3)
H82 H 0.5302 0.0973 0.4974
C83 C 0.6353(8) 0.0798(4) 0.4776(2)
H83 H 0.6612 0.1092 0.4958
C84 C 0.6765(5) 0.0443(4) 0.45003(18)
H84 H 0.7306 0.0486 0.4491
Ag3C Ag 0.17703(2) -0.56566(2) 0.373630(11)
N6C N 0.2343(2) 0.0305(3) 0.14201(11)
N8C N 0.3685(3) 0.0505(3) 0.09875(13)
S7 S 0.70935(10) 0.04430(10) 0.17117(5)
O19 O 0.7299(3) 0.1247(3) 0.16709(17)
O20 O 0.7740(3) -0.0063(3) 0.16926(15)
O21 O 0.6429(3) 0.0217(4) 0.15110(16)
C85 C 0.6809(3) 0.0368(4) 0.21794(19)
F1 F 0.6211(3) 0.0827(3) 0.22641(15)
F2 F 0.6593(3) -0.0364(3) 0.22587(14)
F3 F 0.7369(3) 0.0538(3) 0.24190(13)
S8 S 0.29031(12) -0.83827(14) 0.27027(9)
O22 O 0.3454(3) -0.8310(4) 0.29910(15)
O23 O 0.2127(3) -0.8225(4) 0.2797(3)
O24 O 0.3022(5) -0.9056(4) 0.2472(3)
C86 C 0.3132(5) -0.7608(5) 0.2394(2)
F4 F 0.3084(4) -0.6907(3) 0.25545(17)
F5 F 0.3851(4) -0.7665(6) 0.22781(18)
F6 F 0.2674(5) -0.7576(5) 0.21072(19)
S9 S 0.3583(2) -0.1856(2) 0.41487(10)
O25 O 0.4313(5) -0.1687(7) 0.4295(3)
O26 O 0.2939(6) -0.1638(7) 0.4373(3)
O27 O 0.3492(5) -0.2605(5) 0.3982(3)
C87 C 0.3497(6) -0.1215(6) 0.3769(3)
F7 F 0.2824(6) -0.1324(7) 0.3591(3)
F8 F 0.3542(6) -0.0462(5) 0.3850(3)
F9 F 0.4068(6) -0.1346(6) 0.3528(3)
O31 O -0.1423(9) -0.9029(10) 0.5294(4)
H85 H -0.1696 -0.9358 0.5402
C89 C -0.0958(11) -0.9429(11) 0.5012(5)
H86 H -0.0637 -0.9831 0.5132
H87 H -0.1308 -0.9697 0.4838
C90 C -0.0472(7) -0.8919(7) 0.4810(3)
H88 H -0.0192 -0.9220 0.4628
H89 H -0.0107 -0.8668 0.4978
H90 H -0.0783 -0.8522 0.4688
O32 O 0.0158(9) -0.9633(9) 0.4289(4)
H91 H 0.0571 -0.9577 0.4178
C91 C -0.0463(10) -0.9875(9) 0.4022(4)
H92 H -0.0318 -1.0378 0.3911
H93 H -0.0943 -0.9958 0.4157
C92 C -0.0601(8) -0.9335(8) 0.3744(4)
H94 H -0.1018 -0.9522 0.3586
H95 H -0.0137 -0.9271 0.3599
H96 H -0.0743 -0.8834 0.3851
O33 O 0.1339(10) -0.9266(11) 0.3250(5)
H97 H 0.1495 -0.9464 0.3446
C93 C 0.1254(17) -0.9894(19) 0.2965(9)
H98 H 0.0869 -1.0275 0.3048
H99 H 0.1060 -0.9657 0.2736
C94 C 0.1930(16) -1.0282(16) 0.2895(8)
H100 H 0.1839 -1.0677 0.2707
H101 H 0.2117 -1.0534 0.3118
H102 H 0.2313 -0.9910 0.2809
O34 O 0.1560(10) -0.9880(10) 0.3881(5)
S10? S 0.3155(2) -0.1570(2) 0.37007(11)
O28? O 0.2362(5) -0.1375(6) 0.3756(3)
O29? O 0.3290(6) -0.2390(5) 0.3672(3)
O30? O 0.3552(8) -0.1096(7) 0.3456(3)
C88? C 0.3568(6) -0.1352(7) 0.4139(3)
F10? F 0.3517(6) -0.0606(5) 0.4233(3)
F11? F 0.4313(5) -0.1517(7) 0.4164(3)
F12? F 0.3217(7) -0.1746(6) 0.4415(3)
loop_
_geom_bond_atom_site_label_1
_geom_bond_atom_site_label_2
_geom_bond_site_symmetry_1
_geom_bond_site_symmetry_2
Ag1 N2 1_555 1_555
N1 C1 1_555 1_555
C1 H1 1_555 1_555
H2 C1 1_555 1_555
C2 C1 1_555 1_555
H3 C2 1_555 1_555
H4 C2 1_555 1_555
N2 C2 1_555 1_555
C3 N2 1_555 1_555
H5 C3 1_555 1_555
H6 C3 1_555 1_555
C4 N1 1_555 1_555
H7 C4 1_555 1_555
H8 C4 1_555 1_555
C5 N1 1_555 1_555
H9 C5 1_555 1_555
H10 C5 1_555 1_555
C6 C5 1_555 1_555
N3 C6 1_555 1_555
C7 N3 1_555 1_555
H11 C7 1_555 1_555
C8 C7 1_555 1_555
C9 C8 1_555 1_555
H12 C9 1_555 1_555
C10 C6 1_555 1_555
H13 C10 1_555 1_555
O1 C8 1_555 1_555
S1 O1 1_555 1_555
O2 S1 1_555 1_555
O3 S1 1_555 1_555
C11 S1 1_555 1_555
C12 C11 1_555 1_555
H14 C12 1_555 1_555
C13 C12 1_555 1_555
H15 C13 1_555 1_555
C14 C13 1_555 1_555
H16 C14 1_555 1_555
C15 C14 1_555 1_555
H17 C15 1_555 1_555
C16 C11 1_555 1_555
H18 C16 1_555 1_555
C17 N2 1_555 1_555
H19 C17 1_555 1_555
H20 C17 1_555 1_555
C18 C17 1_555 1_555
N4 Ag1 1_555 1_555
C19 N4 1_555 1_555
H21 C19 1_555 1_555
C20 C19 1_555 1_555
C21 C20 1_555 1_555
H22 C21 1_555 1_555
C22 C18 1_555 1_555
H23 C22 1_555 1_555
O4 C20 1_555 1_555
S2 O4 1_555 1_555
O5 S2 1_555 1_555
O6 S2 1_555 1_555
C23 S2 1_555 1_555
C24 C23 1_555 1_555
H24 C24 1_555 1_555
C25 C24 1_555 1_555
H25 C25 1_555 1_555
C26 C25 1_555 1_555
H26 C26 1_555 1_555
C27 C26 1_555 1_555
H27 C27 1_555 1_555
C28 C23 1_555 1_555
H28 C28 1_555 1_555
Ag2 N1 1_555 1_555
N5 Ag2 1_555 1_555
C29 N5 1_555 1_555
H29 C29 1_555 1_555
H30 C29 1_555 1_555
C30 C29 1_555 1_555
H31 C30 1_555 1_555
H32 C30 1_555 1_555
N6 C30 1_555 1_555
C31 N6 1_555 1_555
H33 C31 1_555 1_555
H34 C31 1_555 1_555
C32 N5 1_555 1_555
H35 C32 1_555 1_555
H36 C32 1_555 1_555
C33 N5 1_555 1_555
H37 C33 1_555 1_555
H38 C33 1_555 1_555
C34 C33 1_555 1_555
N7 Ag2 1_555 1_555
C35 N7 1_555 1_555
H39 C35 1_555 1_555
C36 C35 1_555 1_555
C37 C36 1_555 1_555
H40 C37 1_555 1_555
C38 C34 1_555 1_555
H41 C38 1_555 1_555
O7 C36 1_555 1_555
S3 O7 1_555 1_555
O8 S3 1_555 1_555
O9 S3 1_555 1_555
C39 S3 1_555 1_555
C40 C39 1_555 1_555
H42 C40 1_555 1_555
C41 C40 1_555 1_555
H43 C41 1_555 1_555
C42 C41 1_555 1_555
H44 C42 1_555 1_555
C43 C42 1_555 1_555
H45 C43 1_555 1_555
C44 C39 1_555 1_555
H46 C44 1_555 1_555
C45 N6 1_555 1_555
H47 C45 1_555 1_555
H48 C45 1_555 1_555
C46 C45 1_555 1_555
N8 C46 1_555 1_555
C47 N8 1_555 1_555
H49 C47 1_555 1_555
C48 C47 1_555 1_555
C49 C48 1_555 1_555
H50 C49 1_555 1_555
C50 C46 1_555 1_555
H51 C50 1_555 1_555
O10 C48 1_555 1_555
S4 O10 1_555 1_555
O11 S4 1_555 1_555
O12 S4 1_555 1_555
C51 S4 1_555 1_555
C52 C51 1_555 1_555
H52 C52 1_555 1_555
C53 C52 1_555 1_555
H53 C53 1_555 1_555
C54 C53 1_555 1_555
H54 C54 1_555 1_555
C55 C54 1_555 1_555
H55 C55 1_555 1_555
C56 C51 1_555 1_555
H56 C56 1_555 1_555
Ag3 N9 1_555 1_555
N9 C57 1_555 1_555
C57 H57 1_555 1_555
H58 C57 1_555 1_555
C58 C57 1_555 1_555
H59 C58 1_555 1_555
H60 C58 1_555 1_555
N10 Ag1 1_555 1_555
C59 N10 1_555 1_555
H61 C59 1_555 1_555
H62 C59 1_555 1_555
C60 N9 1_555 1_555
H63 C60 1_555 1_555
H64 C60 1_555 1_555
C61 N9 1_555 1_555
H65 C61 1_555 1_555
H66 C61 1_555 1_555
C62 C61 1_555 1_555
N11 Ag3 1_555 1_555
C63 N11 1_555 1_555
H67 C63 1_555 1_555
C64 C63 1_555 1_555
C65 C64 1_555 1_555
H68 C65 1_555 1_555
C66 C62 1_555 1_555
H69 C66 1_555 1_555
O13 C64 1_555 1_555
S5 O13 1_555 1_555
O14 S5 1_555 1_555
O15 S5 1_555 1_555
C67 S5 1_555 1_555
C68 C67 1_555 1_555
H70 C68 1_555 1_555
C69 C68 1_555 1_555
H71 C69 1_555 1_555
C70 C69 1_555 1_555
H72 C70 1_555 1_555
C71 C70 1_555 1_555
H73 C71 1_555 1_555
C72 C67 1_555 1_555
H74 C72 1_555 1_555
C73 N10 1_555 1_555
H75 C73 1_555 1_555
H76 C73 1_555 1_555
C74 C73 1_555 1_555
N12 Ag1 1_555 1_555
C75 N12 1_555 1_555
H77 C75 1_555 1_555
C76 C75 1_555 1_555
C77 C76 1_555 1_555
H78 C77 1_555 1_555
C78 C74 1_555 1_555
H79 C78 1_555 1_555
O16 C76 1_555 1_555
S6 O16 1_555 1_555
O17 S6 1_555 1_555
O18 S6 1_555 1_555
C79 S6 1_555 1_555
C80 C79 1_555 1_555
H80 C80 1_555 1_555
C81 C80 1_555 1_555
H81 C81 1_555 1_555
C82 C81 1_555 1_555
H82 C82 1_555 1_555
C83 C82 1_555 1_555
H83 C83 1_555 1_555
C84 C79 1_555 1_555
H84 C84 1_555 1_555
S7 O19 1_555 1_555
O20 S7 1_555 1_555
O21 S7 1_555 1_555
C85 S7 1_555 1_555
F1 C85 1_555 1_555
F2 C85 1_555 1_555
F3 C85 1_555 1_555
S8 O22 1_555 1_555
O23 S8 1_555 1_555
O24 S8 1_555 1_555
C86 S8 1_555 1_555
F4 C86 1_555 1_555
F5 C86 1_555 1_555
F6 C86 1_555 1_555
S9 O25 1_555 1_555
O26 S9 1_555 1_555
O27 S9 1_555 1_555
C87 S9 1_555 1_555
F7 C87 1_555 1_555
F8 C87 1_555 1_555
F9 C87 1_555 1_555
O31 H85 1_555 1_555
C89 O31 1_555 1_555
H86 C89 1_555 1_555
H87 C89 1_555 1_555
C90 C89 1_555 1_555
H88 C90 1_555 1_555
H89 C90 1_555 1_555
H90 C90 1_555 1_555
O32 H91 1_555 1_555
C91 O32 1_555 1_555
H92 C91 1_555 1_555
H93 C91 1_555 1_555
C92 C91 1_555 1_555
H94 C92 1_555 1_555
H95 C92 1_555 1_555
H96 C92 1_555 1_555
O33 H97 1_555 1_555
C93 O33 1_555 1_555
H98 C93 1_555 1_555
H99 C93 1_555 1_555
C94 C93 1_555 1_555
H100 C94 1_555 1_555
H101 C94 1_555 1_555
H102 C94 1_555 1_555
Ag3C N6 1_555 1_555
N6C Ag3 1_555 1_555
N8C Ag3 1_555 1_555
C3 C4 1_555 1_555
N3 Ag2 1_555 1_555
C9 C10 1_555 1_555
C15 C16 1_555 1_555
C18 N4 1_555 1_555
C21 C22 1_555 1_555
C27 C28 1_555 1_555
C31 C32 1_555 1_555
C34 N7 1_555 1_555
C37 C38 1_555 1_555
C43 C44 1_555 1_555
N8 Ag3C 1_555 1_555
C49 C50 1_555 1_555
C55 C56 1_555 1_555
C58 N10 1_555 1_555
C59 C60 1_555 1_555
C62 N11 1_555 1_555
C65 C66 1_555 1_555
C71 C72 1_555 1_555
C74 N12 1_555 1_555
C77 C78 1_555 1_555
C83 C84 1_555 1_555

#END
