
#######################################################################
#
#                 Cambridge Crystallographic Data Centre
#                                CCDC 
#
#######################################################################
#
# If this CIF has been generated from an entry in the Cambridge 
# Structural Database, then it will include bibliographic, chemical, 
# crystal, experimental, refinement or atomic coordinate data resulting 
# from the CCDC's data processing and validation procedures.
#
#######################################################################

data_MUFGUQ
_symmetry_cell_setting           monoclinic
_symmetry_space_group_name_H-M   'P 21/c'
_symmetry_Int_Tables_number      14
_space_group_name_Hall           '-P 2ybc'
loop_
_symmetry_equiv_pos_site_id
_symmetry_equiv_pos_as_xyz
1 x,y,z
2 -x,1/2+y,1/2-z
3 -x,-y,-z
4 x,1/2-y,1/2+z
_cell_length_a                   9.9840(1)
_cell_length_b                   21.611(3)
_cell_length_c                   10.887(2)
_cell_angle_alpha                90
_cell_angle_beta                 111.706(5)
_cell_angle_gamma                90
_cell_volume                     2182.46
loop_
_atom_site_label
_atom_site_type_symbol
_atom_site_fract_x
_atom_site_fract_y
_atom_site_fract_z
Zn1 Zn 0.77373(5) 1.129692(19) 0.54202(4)
C1 C 0.4328(5) 0.70134(18) -0.0736(4)
C2 C 0.5064(4) 0.76039(16) -0.0814(4)
C3 C 0.4808(4) 0.81382(17) -0.0221(4)
H1 H 0.4119 0.8140 0.0166
C4 C 0.5587(5) 0.86643(18) -0.0216(4)
C5 C 0.6584(5) 0.86723(19) -0.0811(4)
H2 H 0.7111 0.9030 -0.0791
C6 C 0.6801(5) 0.8147(2) -0.1438(4)
C7 C 0.6063(4) 0.76086(17) -0.1422(4)
H3 H 0.6236 0.7251 -0.1818
C8 C 0.4701(5) 0.92339(18) 0.1238(4)
H4 H 0.4769 0.8839 0.1680
H5 H 0.3691 0.9326 0.0755
C9 C 0.5380(5) 0.97321(17) 0.2227(4)
C10 C 0.4638(5) 1.00313(19) 0.2899(4)
H6 H 0.3685 0.9927 0.2741
C11 C 0.5313(5) 1.04841(17) 0.3805(4)
H7 H 0.4785 1.0691 0.4225
C12 C 0.7408(5) 1.0326(2) 0.3498(4)
H8 H 0.8382 1.0414 0.3723
C13 C 0.6797(5) 0.9883(2) 0.2561(4)
H9 H 0.7348 0.9684 0.2152
C14 C 0.8095(5) 0.77032(18) -0.2666(4)
H10 H 0.7215 0.7527 -0.3294
H11 H 0.8587 0.7388 -0.2023
C15 C 0.9050(5) 0.79264(19) -0.3371(4)
C16 C 0.8680(5) 0.84421(18) -0.4167(4)
H12 H 0.7830 0.8653 -0.4281
C17 C 0.9560(4) 0.86423(18) -0.4787(4)
H13 H 0.9283 0.8990 -0.5327
C18 C 1.1127(5) 0.7858(2) -0.3920(5)
H14 H 1.1964 0.7646 -0.3843
C19 C 1.0288(5) 0.7632(2) -0.3262(5)
H15 H 1.0571 0.7278 -0.2744
C20 C 0.9290(5) 1.0543(2) 0.7404(4)
C21 C 0.9681(4) 1.02656(19) 0.8767(4)
C22 C 0.9550(5) 1.06049(18) 0.9790(4)
H16 H 0.9238 1.1013 0.9648
C23 C 1.0120(5) 0.96578(19) 0.8977(4)
H17 H 1.0194 0.9424 0.8287
N1 N 0.6678(4) 1.06392(14) 0.4105(3)
N2 N 1.0793(3) 0.83670(14) -0.4660(3)
O1 O 0.3286(3) 0.70646(11) -0.0320(3)
O2 O 0.4715(4) 0.65200(12) -0.1043(3)
O3 O 0.5456(4) 0.92120(12) 0.0364(3)
O4 O 0.7779(4) 0.82104(13) -0.2039(3)
O5 O 0.8652(3) 1.10677(13) 0.7241(3)
O6 O 0.9545(4) 1.02667(14) 0.6538(3)
Zn1B Zn 1.22627(5) 0.870308(19) -0.54202(4)
Zn1A Zn 0.22627(5) 0.629692(19) -0.04202(4)
Zn1B_2 Zn 1.22627(5) 0.870308(19) 1.45798(4)
Zn1C Zn 1.77373(5) 1.370308(19) 0.04202(4)
C1B C 1.5672(5) 1.29866(18) 0.0736(4)
C2B C 1.4936(4) 1.23961(16) 0.0814(4)
C3B C 1.5192(4) 1.18618(17) 0.0221(4)
H1B H 1.5881 1.1860 -0.0166
C4B C 1.4413(5) 1.13357(18) 0.0216(4)
C5B C 1.3416(5) 1.13277(19) 0.0811(4)
H2B H 1.2889 1.0970 0.0791
C6B C 1.3199(5) 1.1853(2) 0.1438(4)
C7B C 1.3937(4) 1.23914(17) 0.1422(4)
H3B H 1.3764 1.2749 0.1818
C8B C 1.5299(5) 1.07661(18) -0.1238(4)
H4B H 1.5231 1.1161 -0.1680
H5B H 1.6309 1.0674 -0.0755
C9B C 1.4620(5) 1.02679(17) -0.2227(4)
C10B C 1.5362(5) 0.99687(19) -0.2899(4)
H6B H 1.6315 1.0073 -0.2741
C11B C 1.4687(5) 0.95159(17) -0.3805(4)
H7B H 1.5215 0.9309 -0.4225
C12B C 1.2592(5) 0.9674(2) -0.3498(4)
H8B H 1.1618 0.9586 -0.3723
C13B C 1.3203(5) 1.0117(2) -0.2561(4)
H9B H 1.2652 1.0316 -0.2152
C14B C 1.1905(5) 1.22968(18) 0.2666(4)
H10B H 1.2785 1.2473 0.3294
H11B H 1.1413 1.2612 0.2023
C15B C 1.0950(5) 1.20736(19) 0.3371(4)
C16B C 1.1320(5) 1.15579(18) 0.4167(4)
H12B H 1.2170 1.1347 0.4281
C17B C 1.0440(4) 1.13577(18) 0.4787(4)
H13B H 1.0717 1.1010 0.5327
C18B C 0.8873(5) 1.2142(2) 0.3920(5)
H14B H 0.8036 1.2354 0.3843
C19B C 0.9712(5) 1.2368(2) 0.3262(5)
H15B H 0.9429 1.2722 0.2744
C20B C 1.0710(5) 0.9457(2) 1.2596(4)
C21B C 1.0319(4) 0.97344(19) 1.1233(4)
C22B C 1.0450(5) 0.93951(18) 1.0210(4)
H16B H 1.0762 0.8987 1.0352
C23B C 0.9880(5) 1.03422(19) 1.1023(4)
H17B H 0.9806 1.0576 1.1713
N1B N 1.3322(4) 0.93608(14) -0.4105(3)
N2B N 0.9207(3) 1.16330(14) 0.4660(3)
O1B O 1.6714(3) 1.29354(11) 0.0320(3)
O1A O 0.6714(3) 1.20646(11) 0.5320(3)
O1C O 1.3286(3) 0.79354(11) -0.5320(3)
O2B O 1.5285(4) 1.34800(12) 0.1043(3)
O3B O 1.4544(4) 1.07880(12) -0.0364(3)
O4B O 1.2221(4) 1.17896(13) 0.2039(3)
O5B O 1.1348(3) 0.89323(13) 1.2759(3)
O5B_2 O 1.1348(3) 0.89323(13) -0.7241(3)
O6B O 1.0455(4) 0.97333(14) 1.3462(3)
loop_
_geom_bond_atom_site_label_1
_geom_bond_atom_site_label_2
_geom_bond_site_symmetry_1
_geom_bond_site_symmetry_2
Zn1 N1 1_555 1_555
C1 C2 1_555 1_555
C2 C3 1_555 1_555
C3 H1 1_555 1_555
C4 C3 1_555 1_555
C5 C4 1_555 1_555
H2 C5 1_555 1_555
C6 C5 1_555 1_555
C7 C2 1_555 1_555
H3 C7 1_555 1_555
C8 H4 1_555 1_555
H5 C8 1_555 1_555
C9 C8 1_555 1_555
C10 C9 1_555 1_555
H6 C10 1_555 1_555
C11 C10 1_555 1_555
H7 C11 1_555 1_555
C12 H8 1_555 1_555
C13 C9 1_555 1_555
H9 C13 1_555 1_555
C14 H10 1_555 1_555
H11 C14 1_555 1_555
C15 C14 1_555 1_555
C16 C15 1_555 1_555
H12 C16 1_555 1_555
C17 C16 1_555 1_555
H13 C17 1_555 1_555
C18 H14 1_555 1_555
C19 C15 1_555 1_555
H15 C19 1_555 1_555
C20 C21 1_555 1_555
C21 C22 1_555 1_555
C22 H16 1_555 1_555
C23 C21 1_555 1_555
H17 C23 1_555 1_555
N1 C11 1_555 1_555
N2 C17 1_555 1_555
O1 C1 1_555 1_555
O2 C1 1_555 1_555
O3 C4 1_555 1_555
O4 C6 1_555 1_555
O5 Zn1 1_555 1_555
O6 C20 1_555 1_555
Zn1B N2 1_555 1_555
Zn1A O1 1_555 1_555
Zn1B_2 O5B 1_555 1_555
Zn1C O1B 1_555 1_555
C1B C2B 1_555 1_555
C2B C3B 1_555 1_555
C3B H1B 1_555 1_555
C4B C3B 1_555 1_555
C5B C4B 1_555 1_555
H2B C5B 1_555 1_555
C6B C5B 1_555 1_555
C7B C2B 1_555 1_555
H3B C7B 1_555 1_555
C8B H4B 1_555 1_555
H5B C8B 1_555 1_555
C9B C8B 1_555 1_555
C10B C9B 1_555 1_555
H6B C10B 1_555 1_555
C11B C10B 1_555 1_555
H7B C11B 1_555 1_555
C12B H8B 1_555 1_555
C13B C9B 1_555 1_555
H9B C13B 1_555 1_555
C14B H10B 1_555 1_555
H11B C14B 1_555 1_555
C15B C14B 1_555 1_555
C16B C15B 1_555 1_555
H12B C16B 1_555 1_555
C17B C16B 1_555 1_555
H13B C17B 1_555 1_555
C18B H14B 1_555 1_555
C19B C15B 1_555 1_555
H15B C19B 1_555 1_555
C20B C21B 1_555 1_555
C21B C22B 1_555 1_555
C22B C23 1_555 1_555
H16B C22B 1_555 1_555
C23B C22 1_555 1_555
H17B C23B 1_555 1_555
N1B Zn1B 1_555 1_555
N2B Zn1 1_555 1_555
O1B C1B 1_555 1_555
O1A Zn1 1_555 1_555
O1C Zn1B 1_555 1_555
O2B C1B 1_555 1_555
O3B C4B 1_555 1_555
O4B C6B 1_555 1_555
O5B C20B 1_555 1_555
O5B_2 Zn1B 1_555 1_555
O6B C20B 1_555 1_555
C6 C7 1_555 1_555
C8 O3 1_555 1_555
C12 C13 1_555 1_555
C12 N1 1_555 1_555
C14 O4 1_555 1_555
C18 C19 1_555 1_555
C18 N2 1_555 1_555
C20 O5 1_555 1_555
C6B C7B 1_555 1_555
C8B O3B 1_555 1_555
C11B N1B 1_555 1_555
C12B C13B 1_555 1_555
C12B N1B 1_555 1_555
C14B O4B 1_555 1_555
C17B N2B 1_555 1_555
C18B C19B 1_555 1_555
C18B N2B 1_555 1_555
C21B C23B 1_555 1_555

#END
