
#######################################################################
#
#                 Cambridge Crystallographic Data Centre
#                                CCDC 
#
#######################################################################
#
# If this CIF has been generated from an entry in the Cambridge 
# Structural Database, then it will include bibliographic, chemical, 
# crystal, experimental, refinement or atomic coordinate data resulting 
# from the CCDC's data processing and validation procedures.
#
#######################################################################

data_MUFGIE
_symmetry_cell_setting           triclinic
_symmetry_space_group_name_H-M   'P -1'
_symmetry_Int_Tables_number      2
_space_group_name_Hall           '-P 1'
loop_
_symmetry_equiv_pos_site_id
_symmetry_equiv_pos_as_xyz
1 x,y,z
2 -x,-y,-z
_cell_length_a                   10.1611(19)
_cell_length_b                   10.868(2)
_cell_length_c                   12.8264(17)
_cell_angle_alpha                90.714(14)
_cell_angle_beta                 109.446(14)
_cell_angle_gamma                108.498(15)
_cell_volume                     1255.53
loop_
_atom_site_label
_atom_site_type_symbol
_atom_site_fract_x
_atom_site_fract_y
_atom_site_fract_z
Co1 Co 0.23837(5) 0.41011(5) 0.27719(4)
Co2 Co 0.50621(6) 0.36273(5) 0.47272(4)
C1 C 0.2454(4) 0.1415(4) 0.3186(3)
C2 C 0.1971(4) 0.0029(4) 0.2653(3)
C3 C 0.0866(5) -0.0379(4) 0.1611(4)
H1 H 0.0411 0.0197 0.1254
C4 C 0.0435(5) -0.1652(4) 0.1096(3)
C5 C 0.1127(5) -0.2503(4) 0.1622(3)
H2 H 0.0838 -0.3354 0.1282
C6 C 0.2255(4) -0.2080(4) 0.2661(3)
C7 C 0.2660(4) -0.0821(4) 0.3182(3)
H3 H 0.3395 -0.0549 0.3887
C8 C 0.3047(4) -0.2977(4) 0.3210(3)
C9 C -0.0234(4) 0.4043(4) 0.1872(3)
C10 C -0.1829(4) 0.3952(4) 0.1389(3)
C11 C -0.2560(5) 0.3770(4) 0.0249(4)
H4 H -0.2044 0.3776 -0.0230
C12 C -0.4066(4) 0.3578(4) -0.0182(3)
C13 C -0.4827(5) 0.3619(4) 0.0533(3)
H5 H -0.5835 0.3500 0.0244
C14 C -0.4086(4) 0.3838(4) 0.1669(3)
C15 C -0.2590(5) 0.3996(4) 0.2100(3)
H6 H -0.2094 0.4132 0.2868
C16 C -0.4881(4) 0.3919(4) 0.2459(3)
O1 O 0.3660(4) 0.1801(3) 0.3988(3)
O2 O 0.1634(3) 0.2066(2) 0.2800(2)
O3 O -0.0678(5) -0.2006(4) 0.0089(3)
H15 H -0.0572 -0.2566 -0.0277
O4 O 0.3096(3) -0.3868(3) 0.2602(2)
O5 O 0.3636(4) -0.2767(3) 0.4254(2)
O6 O 0.0445(3) 0.3904(3) 0.1240(3)
O7 O 0.0400(3) 0.4234(3) 0.2911(2)
O8 O -0.4837(3) 0.3349(4) -0.1303(2)
H16 H -0.4253 0.3523 -0.1637
O9 O -0.4146(4) 0.4034(4) 0.3483(3)
O10 O -0.6191(3) 0.3870(3) 0.2054(2)
O11 O 0.3532(3) 0.4491(3) 0.4444(2)
H17 H 0.2857 0.4098 0.4839
Co1_2 Co 0.23837(5) -0.58989(5) 0.27719(4)
Co1_3 Co -0.76163(5) 0.41011(5) 0.27719(4)
Co2A Co 0.49379(6) -0.36273(5) 0.52728(4)
Co2_2 Co -0.49379(6) 0.36273(5) 0.47272(4)
Co2A_2 Co 0.49379(6) 0.63727(5) 0.52728(4)
O4_2 O 0.3096(3) 0.6132(3) 0.2602(2)
O5A O 0.6364(4) 0.2767(3) 0.5746(2)
O9_2 O 0.5854(4) 0.4034(4) 0.3483(3)
O10_2 O 0.3809(3) 0.3870(3) 0.2054(2)
O11A O 0.6468(3) 0.5509(3) 0.5556(2)
H17A H 0.7143 0.5902 0.5161
C17 C 0.269(2) 1.0377(15) 0.8535(18)
H7 H 0.3536 1.1183 0.8724
H8 H 0.1796 1.0603 0.8285
C18 C 0.3854(10) 0.9658(9) 0.7304(10)
H9 H 0.4835 1.0198 0.7660
C19 C 0.3341(8) 0.8832(7) 0.6365(8)
H10 H 0.3894 0.8679 0.5959
C20 C 0.1503(9) 0.8715(7) 0.6928(9)
H11 H 0.0556 0.8457 0.6964
C21 C 0.0875(11) 0.7242(12) 0.5189(8)
H12 H 0.1406 0.7098 0.4732
H13 H 0.0068 0.7510 0.4751
H14 H 0.0492 0.6446 0.5473
N1 N 0.2703(9) 0.9580(7) 0.7656(9)
N2 N 0.1880(7) 0.8266(6) 0.6121(6)
C22 C 0.275(2) 0.980(2) 0.9406(16)
H18 H 0.2686 1.0353 0.9966
H19 H 0.3664 0.9632 0.9686
H20 H 0.1930 0.8991 0.9217
loop_
_geom_bond_atom_site_label_1
_geom_bond_atom_site_label_2
_geom_bond_site_symmetry_1
_geom_bond_site_symmetry_2
Co1 O2 1_555 1_555
Co2 O1 1_555 1_555
C1 C2 1_555 1_555
C2 C3 1_555 1_555
C3 H1 1_555 1_555
C4 C3 1_555 1_555
C5 C4 1_555 1_555
H2 C5 1_555 1_555
C6 C5 1_555 1_555
C7 C2 1_555 1_555
H3 C7 1_555 1_555
C8 C6 1_555 1_555
C9 C10 1_555 1_555
C10 C11 1_555 1_555
C11 H4 1_555 1_555
C12 C11 1_555 1_555
C13 C12 1_555 1_555
H5 C13 1_555 1_555
C14 C13 1_555 1_555
C15 C10 1_555 1_555
H6 C15 1_555 1_555
C16 C14 1_555 1_555
C17 H7 1_555 1_555
H8 C17 1_555 1_555
C18 H9 1_555 1_555
C19 C18 1_555 1_555
H10 C19 1_555 1_555
C20 H11 1_555 1_555
C21 H12 1_555 1_555
H13 C21 1_555 1_555
H14 C21 1_555 1_555
N1 C17 1_555 1_555
N2 C19 1_555 1_555
O1 C1 1_555 1_555
O2 C1 1_555 1_555
O3 C4 1_555 1_555
H15 O3 1_555 1_555
O4 C8 1_555 1_555
O5 C8 1_555 1_555
O6 Co1 1_555 1_555
O7 Co1 1_555 1_555
O8 C12 1_555 1_555
H16 O8 1_555 1_555
O9 C16 1_555 1_555
O10 C16 1_555 1_555
O11 Co1 1_555 1_555
H17 O11 1_555 1_555
C22 C17 1_555 1_555
H18 C22 1_555 1_555
H19 C22 1_555 1_555
H20 C22 1_555 1_555
Co1_2 O4 1_555 1_555
Co1_3 O10 1_555 1_555
Co2A O5 1_555 1_555
Co2_2 O9 1_555 1_555
Co2A_2 O11 1_555 1_555
O4_2 Co1 1_555 1_555
O5A Co2 1_555 1_555
O9_2 Co2 1_555 1_555
O10_2 Co1 1_555 1_555
O11A Co2 1_555 1_555
H17A O11A 1_555 1_555
Co2 O11 1_555 1_555
C6 C7 1_555 1_555
C9 O6 1_555 1_555
C9 O7 1_555 1_555
C14 C15 1_555 1_555
C18 N1 1_555 1_555
C20 N1 1_555 1_555
C20 N2 1_555 1_555
C21 N2 1_555 1_555
Co2A_2 O11A 1_555 1_555

#END
