
#######################################################################
#
#                 Cambridge Crystallographic Data Centre
#                                CCDC 
#
#######################################################################
#
# If this CIF has been generated from an entry in the Cambridge 
# Structural Database, then it will include bibliographic, chemical, 
# crystal, experimental, refinement or atomic coordinate data resulting 
# from the CCDC's data processing and validation procedures.
#
#######################################################################

data_MUFHEB
_symmetry_cell_setting           monoclinic
_symmetry_space_group_name_H-M   'P 21/c'
_symmetry_Int_Tables_number      14
_space_group_name_Hall           '-P 2ybc'
loop_
_symmetry_equiv_pos_site_id
_symmetry_equiv_pos_as_xyz
1 x,y,z
2 -x,1/2+y,1/2-z
3 -x,-y,-z
4 x,1/2-y,1/2+z
_cell_length_a                   9.426(3)
_cell_length_b                   11.405(4)
_cell_length_c                   11.710(4)
_cell_angle_alpha                90
_cell_angle_beta                 95.322(5)
_cell_angle_gamma                90
_cell_volume                     1253.44
loop_
_atom_site_label
_atom_site_type_symbol
_atom_site_fract_x
_atom_site_fract_y
_atom_site_fract_z
Cu1 Cu 0.0000 0.0000 0.0000
C1 C -0.2700(6) -0.3182(5) -0.1383(5)
H1 H -0.2476 -0.3736 -0.1945
C2 C -0.2176(6) -0.2075(6) -0.1403(5)
H2 H -0.1603 -0.1869 -0.1998
N1 N -0.6041(5) -0.1180(4) 0.1410(4)
H3 H -0.6731 -0.0827 0.1734
H4 H -0.5610 -0.0819 0.0876
N2 N -0.2423(6) -0.1261(5) -0.0630(5)
N3 N -0.5628(4) -0.2318(3) 0.1747(3)
C3 C -0.3286(6) -0.1551(5) 0.0165(5)
H5 H -0.3504 -0.0972 0.0705
N4 N -0.4709(4) -0.4079(4) 0.1595(4)
C4 C -0.3876(5) -0.2651(5) 0.0238(4)
N5 N -0.5620(4) -0.4092(4) 0.2456(4)
C5 C -0.3564(5) -0.3502(5) -0.0539(5)
H6 H -0.3927 -0.4276 -0.0497
N6 N -0.8876(4) -0.3570(4) 0.4534(3)
C6 C -0.4744(5) -0.3007(5) 0.1175(4)
N7 N -0.0213(5) 0.0632(4) -0.1587(4)
C7 C -0.6141(5) -0.3038(4) 0.2548(4)
N8 N -0.0209(5) 0.0059(4) -0.2444(4)
C8 C -0.7146(5) -0.2744(4) 0.3385(4)
N9 N -0.0184(6) -0.0471(5) -0.3267(4)
C9 C -0.7336(5) -0.1652(4) 0.3868(4)
H7 H -0.6825 -0.0990 0.3633
C10 C -0.8289(5) -0.1539(5) 0.4701(4)
H8 H -0.8427 -0.0800 0.5049
C11 C -0.9025(5) -0.2507(4) 0.5016(4)
H9 H -0.9662 -0.2426 0.5593
C12 C -0.7949(5) -0.3665(4) 0.3745(4)
H10 H -0.7832 -0.4413 0.3410
Cu1A Cu -1.0000 -0.5000 0.5000
Cu1A_2 Cu 1.0000 0.5000 -0.5000
C1B C 0.2700(6) 0.3182(5) 0.1383(5)
H1B H 0.2476 0.3736 0.1945
C2B C 0.2176(6) 0.2075(6) 0.1403(5)
H2B H 0.1603 0.1869 0.1998
N1B N 0.6041(5) 0.1180(4) -0.1410(4)
H3B H 0.6731 0.0827 -0.1734
H4B H 0.5610 0.0819 -0.0876
N2B N 0.2423(6) 0.1261(5) 0.0630(5)
N3B N 0.5628(4) 0.2318(3) -0.1747(3)
C3B C 0.3286(6) 0.1551(5) -0.0165(5)
H5B H 0.3504 0.0972 -0.0705
N4B N 0.4709(4) 0.4079(4) -0.1595(4)
C4B C 0.3876(5) 0.2651(5) -0.0238(4)
N5B N 0.5620(4) 0.4092(4) -0.2456(4)
C5B C 0.3564(5) 0.3502(5) 0.0539(5)
H6B H 0.3927 0.4276 0.0497
N6B N 0.8876(4) 0.3570(4) -0.4534(3)
N6A N -0.1124(4) 0.1430(4) 0.0466(3)
N6C N 0.1124(4) -0.1430(4) -0.0466(3)
C6B C 0.4744(5) 0.3007(5) -0.1175(4)
N7B N 0.0213(5) -0.0632(4) 0.1587(4)
C7B C 0.6141(5) 0.3038(4) -0.2548(4)
N8B N 0.0209(5) -0.0059(4) 0.2444(4)
C8B C 0.7146(5) 0.2744(4) -0.3385(4)
N9B N 0.0184(6) 0.0471(5) 0.3267(4)
C9B C 0.7336(5) 0.1652(4) -0.3868(4)
H7B H 0.6825 0.0990 -0.3633
C10B C 0.8289(5) 0.1539(5) -0.4701(4)
H8B H 0.8427 0.0800 -0.5049
C11B C 0.9025(5) 0.2507(4) -0.5016(4)
H9B H 0.9662 0.2426 -0.5593
C12B C 0.7949(5) 0.3665(4) -0.3745(4)
H10B H 0.7832 0.4413 -0.3410
loop_
_geom_bond_atom_site_label_1
_geom_bond_atom_site_label_2
_geom_bond_site_symmetry_1
_geom_bond_site_symmetry_2
Cu1 N2 1_555 1_555
C1 H1 1_555 1_555
C2 C1 1_555 1_555
H2 C2 1_555 1_555
N1 H3 1_555 1_555
H4 N1 1_555 1_555
N2 C2 1_555 1_555
N3 N1 1_555 1_555
C3 N2 1_555 1_555
H5 C3 1_555 1_555
N4 N5 1_555 1_555
C4 C3 1_555 1_555
N5 C7 1_555 1_555
C5 C1 1_555 1_555
H6 C5 1_555 1_555
N6 C11 1_555 1_555
C6 N3 1_555 1_555
N7 Cu1 1_555 1_555
C7 N3 1_555 1_555
N8 N7 1_555 1_555
C8 C7 1_555 1_555
N9 N8 1_555 1_555
C9 C8 1_555 1_555
H7 C9 1_555 1_555
C10 C9 1_555 1_555
H8 C10 1_555 1_555
C11 C10 1_555 1_555
H9 C11 1_555 1_555
C12 N6 1_555 1_555
H10 C12 1_555 1_555
Cu1A N6 1_555 1_555
Cu1A_2 N6B 1_555 1_555
C1B H1B 1_555 1_555
C2B C1B 1_555 1_555
H2B C2B 1_555 1_555
N1B H3B 1_555 1_555
H4B N1B 1_555 1_555
N2B Cu1 1_555 1_555
N3B N1B 1_555 1_555
C3B N2B 1_555 1_555
H5B C3B 1_555 1_555
N4B N5B 1_555 1_555
C4B C3B 1_555 1_555
N5B C7B 1_555 1_555
C5B C1B 1_555 1_555
H6B C5B 1_555 1_555
N6B C11B 1_555 1_555
N6A Cu1 1_555 1_555
N6C Cu1 1_555 1_555
C6B N3B 1_555 1_555
N7B Cu1 1_555 1_555
C7B N3B 1_555 1_555
N8B N7B 1_555 1_555
C8B C7B 1_555 1_555
N9B N8B 1_555 1_555
C9B C8B 1_555 1_555
H7B C9B 1_555 1_555
C10B C9B 1_555 1_555
H8B C10B 1_555 1_555
C11B C10B 1_555 1_555
H9B C11B 1_555 1_555
C12B N6B 1_555 1_555
H10B C12B 1_555 1_555
N4 C6 1_555 1_555
C4 C5 1_555 1_555
C4 C6 1_555 1_555
C8 C12 1_555 1_555
C2B N2B 1_555 1_555
N4B C6B 1_555 1_555
C4B C5B 1_555 1_555
C4B C6B 1_555 1_555
C8B C12B 1_555 1_555

#END
