
#######################################################################
#
#                 Cambridge Crystallographic Data Centre
#                                CCDC 
#
#######################################################################
#
# If this CIF has been generated from an entry in the Cambridge 
# Structural Database, then it will include bibliographic, chemical, 
# crystal, experimental, refinement or atomic coordinate data resulting 
# from the CCDC's data processing and validation procedures.
#
#######################################################################

data_MUFHAX
_symmetry_cell_setting           orthorhombic
_symmetry_space_group_name_H-M   'C m c 21'
_symmetry_Int_Tables_number      36
_space_group_name_Hall           'C 2n -2'
loop_
_symmetry_equiv_pos_site_id
_symmetry_equiv_pos_as_xyz
1 x,y,z
2 -x,-y,1/2+z
3 -x,y,z
4 x,-y,1/2+z
5 1/2+x,1/2+y,z
6 1/2-x,1/2-y,1/2+z
7 1/2-x,1/2+y,z
8 1/2+x,1/2-y,1/2+z
_cell_length_a                   15.4679(12)
_cell_length_b                   8.2380(7)
_cell_length_c                   15.7166(12)
_cell_angle_alpha                90
_cell_angle_beta                 90
_cell_angle_gamma                90
_cell_volume                     2002.68
loop_
_atom_site_label
_atom_site_type_symbol
_atom_site_fract_x
_atom_site_fract_y
_atom_site_fract_z
Cd1 Cd 0.388480(10) 0.62792(2) 0.94250(5)
N1 N 0.3430(2) 0.8601(3) 1.0159(2)
N2 N 0.27396(19) 0.9155(3) 1.0124(2)
N3 N 0.2046(2) 0.9680(5) 1.0138(3)
N4 N 0.5000 0.5697(5) 1.0398(3)
N5 N 0.5000 0.4501(6) 1.0836(3)
N6 N 0.5000 0.3345(10) 1.1266(5)
N7 N 0.5000 0.7792(5) 0.8838(3)
N8 N 0.5000 0.9242(5) 0.8910(4)
N9 N 0.5000 1.0606(6) 0.8993(5)
N10 N 0.20330(16) 0.2026(3) 0.82872(18)
C1 C 0.42990(18) 0.3307(3) 0.7923(2)
N11 N 0.45523(14) 0.4250(3) 0.85426(17)
N12 N 0.5000 0.1553(6) 0.6845(3)
H1 H 0.5501 0.1176 0.6638
C2 C 0.16740(18) 0.2421(4) 0.7540(2)
H2 H 0.1069 0.2270 0.7474
C3 C 0.2131(2) 0.3028(5) 0.6866(2)
H3 H 0.1851 0.3260 0.6342
C4 C 0.3011(2) 0.3298(4) 0.6963(2)
H4 H 0.3346 0.3722 0.6508
C5 C 0.33874(18) 0.2935(4) 0.7737(2)
C6 C 0.28840(18) 0.2279(3) 0.8380(2)
H5 H 0.3151 0.2000 0.8905
N13 N 0.5000 0.2726(5) 0.7491(3)
Cd1F Cd 0.111520(10) 0.12792(2) 0.94250(5)
Cd1F_2 Cd 0.111520(10) 1.12792(2) 0.94250(5)
Cd1B Cd 0.611520(10) 0.62792(2) 0.94250(5)
Cd1D Cd 0.888480(10) 0.12792(2) 0.94250(5)
N1F N 0.1570(2) 0.3601(3) 1.0159(2)
N2F N 0.22604(19) 0.4155(3) 1.0124(2)
N3F N 0.2954(2) 0.4680(5) 1.0138(3)
N3_2 N 0.2046(2) -0.0320(5) 1.0138(3)
N4D N 0.0000 0.0697(5) 1.0398(3)
N7D N 0.0000 0.2792(5) 0.8838(3)
N10B N 0.79670(16) 0.2026(3) 0.82872(18)
N10F N 0.29670(16) 0.7026(3) 0.82872(18)
C1B C 0.57010(18) 0.3307(3) 0.7923(2)
N11B N 0.54477(14) 0.4250(3) 0.85426(17)
N11F N 0.04477(14) -0.0750(3) 0.85426(17)
H1B H 0.4499 0.1176 0.6638
C2B C 0.83260(18) 0.2421(4) 0.7540(2)
H2B H 0.8931 0.2270 0.7474
C3B C 0.7869(2) 0.3028(5) 0.6866(2)
H3B H 0.8149 0.3260 0.6342
C4B C 0.6989(2) 0.3298(4) 0.6963(2)
H4B H 0.6654 0.3722 0.6508
C5B C 0.66126(18) 0.2935(4) 0.7737(2)
C6B C 0.71160(18) 0.2279(3) 0.8380(2)
H5B H 0.6849 0.2000 0.8905
loop_
_geom_bond_atom_site_label_1
_geom_bond_atom_site_label_2
_geom_bond_site_symmetry_1
_geom_bond_site_symmetry_2
Cd1 N1 1_555 1_555
N1 N2 1_555 1_555
N2 N3 1_555 1_555
N3 Cd1F_2 1_555 1_555
N4 Cd1 1_555 1_555
N5 N4 1_555 1_555
N6 N5 1_555 1_555
N7 Cd1 1_555 1_555
N8 N7 1_555 1_555
N9 N8 1_555 1_555
N10 C2 1_555 1_555
C1 N11 1_555 1_555
N11 Cd1 1_555 1_555
N12 H1 1_555 1_555
C2 H2 1_555 1_555
C3 C2 1_555 1_555
H3 C3 1_555 1_555
C4 C3 1_555 1_555
H4 C4 1_555 1_555
C5 C1 1_555 1_555
C6 N10 1_555 1_555
H5 C6 1_555 1_555
N13 C1 1_555 1_555
Cd1F N10 1_555 1_555
Cd1B N4 1_555 1_555
Cd1D N10B 1_555 1_555
N1F Cd1F 1_555 1_555
N2F N1F 1_555 1_555
N3F Cd1 1_555 1_555
N3_2 Cd1F 1_555 1_555
N4D Cd1F 1_555 1_555
N7D Cd1F 1_555 1_555
N10B C2B 1_555 1_555
N10F Cd1 1_555 1_555
C1B N13 1_555 1_555
N11B N11 1_555 1_555
N11F Cd1F 1_555 1_555
H1B N12 1_555 1_555
C2B H2B 1_555 1_555
C3B C2B 1_555 1_555
H3B C3B 1_555 1_555
C4B C3B 1_555 1_555
H4B C4B 1_555 1_555
C5B C1B 1_555 1_555
C6B N10B 1_555 1_555
H5B C6B 1_555 1_555
N7 Cd1B 1_555 1_555
N12 N13 1_555 1_555
C4 C5 1_555 1_555
C5 C6 1_555 1_555
Cd1B N11B 1_555 1_555
N2F N3F 1_555 1_555
C1B N11B 1_555 1_555
C4B C5B 1_555 1_555
C5B C6B 1_555 1_555

#END
