
#######################################################################
#
#                 Cambridge Crystallographic Data Centre
#                                CCDC 
#
#######################################################################
#
# If this CIF has been generated from an entry in the Cambridge 
# Structural Database, then it will include bibliographic, chemical, 
# crystal, experimental, refinement or atomic coordinate data resulting 
# from the CCDC's data processing and validation procedures.
#
#######################################################################

data_MUFHOL
_symmetry_cell_setting           monoclinic
_symmetry_space_group_name_H-M   'P 21/c'
_symmetry_Int_Tables_number      14
_space_group_name_Hall           '-P 2ybc'
loop_
_symmetry_equiv_pos_site_id
_symmetry_equiv_pos_as_xyz
1 x,y,z
2 -x,1/2+y,1/2-z
3 -x,-y,-z
4 x,1/2-y,1/2+z
_cell_length_a                   11.454(2)
_cell_length_b                   19.430(3)
_cell_length_c                   8.5404(15)
_cell_angle_alpha                90
_cell_angle_beta                 101.669(2)
_cell_angle_gamma                90
_cell_volume                     1861.39
loop_
_atom_site_label
_atom_site_type_symbol
_atom_site_fract_x
_atom_site_fract_y
_atom_site_fract_z
Co1 Co 0.41551(2) 0.938042(12) 0.81311(3)
C1 C -0.47262(15) 0.91389(10) 0.1788(2)
C2 C -0.47065(18) 0.84670(11) 0.2670(3)
H1 H -0.5373 0.8461 0.3212
H2 H -0.4827 0.8096 0.1893
C3 C -0.35719(19) 0.83227(12) 0.3891(3)
H3 H -0.3693 0.7920 0.4509
H4 H -0.3407 0.8709 0.4620
C4 C -0.25020(19) 0.82023(12) 0.3128(3)
H5 H -0.2621 0.7776 0.2527
H6 H -0.2461 0.8572 0.2378
C5 C -0.13196(19) 0.81634(13) 0.4308(3)
H7 H -0.1212 0.8583 0.4937
H8 H -0.1348 0.7783 0.5035
C6 C -0.02531(19) 0.80684(13) 0.3532(3)
H9 H -0.0226 0.8449 0.2805
H10 H -0.0362 0.7649 0.2902
C7 C 0.09327(18) 0.80286(12) 0.4703(2)
H11 H 0.0900 0.7654 0.5443
H12 H 0.1048 0.8452 0.5319
C8 C 0.20000(18) 0.79201(11) 0.3930(2)
H13 H 0.2096 0.8322 0.3293
H14 H 0.1848 0.7528 0.3215
C9 C 0.31508(17) 0.77981(10) 0.5139(2)
H15 H 0.3039 0.7410 0.5809
H16 H 0.3773 0.7676 0.4570
C10 C 0.35611(16) 0.84104(10) 0.6196(2)
C11 C -0.34965(17) 0.98083(10) 0.7077(2)
H17 H -0.3992 1.0122 0.6440
C12 C -0.22878(16) 0.98494(10) 0.7134(2)
H18 H -0.1989 1.0188 0.6553
C13 C -0.15130(16) 0.93873(10) 0.8054(2)
C14 C -0.20404(17) 0.88854(11) 0.8852(3)
H19 H -0.1571 0.8552 0.9461
C15 C -0.32604(17) 0.88838(11) 0.8735(3)
H20 H -0.3588 0.8543 0.9278
C16 C -0.01979(16) 0.94169(10) 0.8170(2)
C17 C 0.05891(17) 0.90119(12) 0.9223(3)
H21 H 0.0302 0.8716 0.9914
C18 C 0.18007(17) 0.90427(11) 0.9256(3)
H22 H 0.2305 0.8765 0.9983
C19 C 0.03135(17) 0.98488(11) 0.7205(3)
H23 H -0.0166 1.0141 0.6486
C20 C 0.15311(17) 0.98472(11) 0.7308(3)
H24 H 0.1845 1.0143 0.6643
O1 O -0.40470(11) 0.96093(7) 0.24375(17)
O2 O -0.54637(12) 0.91964(8) 0.05021(16)
O3 O 0.34506(12) 0.90128(7) 0.56470(16)
O4 O 0.40198(12) 0.83086(7) 0.76476(15)
N1 N -0.39963(13) 0.93420(8) 0.78886(19)
N2 N 0.22827(13) 0.94478(8) 0.83019(19)
Co1B Co -0.41551(2) 1.061958(12) 0.18689(3)
Co1_2 Co -0.58449(2) 0.938042(12) -0.18689(3)
Co1_3 Co -0.58449(2) 0.938042(12) 0.81311(3)
O1B O 0.40470(11) 1.03907(7) 0.75625(17)
O2_2 O 0.45363(12) 0.91964(8) 1.05021(16)
N1_2 N 0.60037(13) 0.93420(8) 0.78886(19)
loop_
_geom_bond_atom_site_label_1
_geom_bond_atom_site_label_2
_geom_bond_site_symmetry_1
_geom_bond_site_symmetry_2
Co1 O3 1_555 1_555
C1 C2 1_555 1_555
C2 H1 1_555 1_555
H2 C2 1_555 1_555
C3 C2 1_555 1_555
H3 C3 1_555 1_555
H4 C3 1_555 1_555
C4 C3 1_555 1_555
H5 C4 1_555 1_555
H6 C4 1_555 1_555
C5 C4 1_555 1_555
H7 C5 1_555 1_555
H8 C5 1_555 1_555
C6 C5 1_555 1_555
H9 C6 1_555 1_555
H10 C6 1_555 1_555
C7 C6 1_555 1_555
H11 C7 1_555 1_555
H12 C7 1_555 1_555
C8 C7 1_555 1_555
H13 C8 1_555 1_555
H14 C8 1_555 1_555
C9 C8 1_555 1_555
H15 C9 1_555 1_555
H16 C9 1_555 1_555
C10 C9 1_555 1_555
C11 H17 1_555 1_555
C12 C11 1_555 1_555
H18 C12 1_555 1_555
C13 C12 1_555 1_555
C14 C13 1_555 1_555
H19 C14 1_555 1_555
C15 C14 1_555 1_555
H20 C15 1_555 1_555
C16 C13 1_555 1_555
C17 C16 1_555 1_555
H21 C17 1_555 1_555
C18 C17 1_555 1_555
H22 C18 1_555 1_555
C19 C16 1_555 1_555
H23 C19 1_555 1_555
C20 C19 1_555 1_555
H24 C20 1_555 1_555
O1 C1 1_555 1_555
O2 C1 1_555 1_555
O3 C10 1_555 1_555
O4 Co1 1_555 1_555
N1 C11 1_555 1_555
N2 Co1 1_555 1_555
Co1B O1 1_555 1_555
Co1_2 O2 1_555 1_555
Co1_3 N1 1_555 1_555
O1B Co1 1_555 1_555
O2_2 Co1 1_555 1_555
N1_2 Co1 1_555 1_555
C10 O4 1_555 1_555
C15 N1 1_555 1_555
C18 N2 1_555 1_555
C20 N2 1_555 1_555

#END
