
#######################################################################
#
#                 Cambridge Crystallographic Data Centre
#                                CCDC 
#
#######################################################################
#
# If this CIF has been generated from an entry in the Cambridge 
# Structural Database, then it will include bibliographic, chemical, 
# crystal, experimental, refinement or atomic coordinate data resulting 
# from the CCDC's data processing and validation procedures.
#
#######################################################################

data_MUFHAY
_symmetry_cell_setting           monoclinic
_symmetry_space_group_name_H-M   'P 21/m'
_symmetry_Int_Tables_number      11
_space_group_name_Hall           '-P 2yb'
loop_
_symmetry_equiv_pos_site_id
_symmetry_equiv_pos_as_xyz
1 x,y,z
2 -x,1/2+y,-z
3 -x,-y,-z
4 x,1/2-y,z
_cell_length_a                   10.1690(10)
_cell_length_b                   6.5816(6)
_cell_length_c                   11.7392(11)
_cell_angle_alpha                90
_cell_angle_beta                 112.6540(10)
_cell_angle_gamma                90
_cell_volume                     725.067
loop_
_atom_site_label
_atom_site_type_symbol
_atom_site_fract_x
_atom_site_fract_y
_atom_site_fract_z
Mn1 Mn 0.32108(6) 0.2500 0.37909(5)
N1 N 0.4174(4) 0.2500 -0.1681(3)
N2 N 0.1797(4) 0.2500 -0.2421(3)
N3 N 0.4592(3) 0.2500 0.2659(3)
N4 N 0.1709(3) 0.2500 0.1747(3)
O1 O 0.4765(3) 0.2500 0.5653(2)
O2 O 0.6980(2) 0.0730(3) 0.6133(2)
O3 O 0.6494(3) 0.2500 0.7723(2)
O4 O 0.1291(4) 0.2500 0.4270(3)
S1 S 0.62863(9) 0.2500 0.64246(8)
C1 C 0.0295(4) 0.2500 0.1312(3)
H1 H -0.0146 0.2500 0.1875
C2 C -0.0565(4) 0.2500 0.0056(3)
H2 H -0.1552 0.2500 -0.0205
C3 C 0.0055(4) 0.2500 -0.0782(3)
H3 H -0.0502 0.2500 -0.1623
C4 C 0.1546(4) 0.2500 -0.0360(3)
C5 C 0.2331(4) 0.2500 -0.1148(3)
C6 C 0.2960(5) 0.2500 -0.2681(4)
H4 H 0.2931 0.2500 -0.3483
C7 C 0.3800(4) 0.2500 -0.0672(3)
C8 C 0.4643(4) 0.2500 0.0616(3)
C9 C 0.6136(4) 0.2500 0.1145(4)
H5 H 0.6658 0.2500 0.0645
C10 C 0.6816(4) 0.2500 0.2399(4)
H6 H 0.7806 0.2500 0.2765
C11 C 0.6006(4) 0.2500 0.3124(4)
H7 H 0.6481 0.2500 0.3978
C12 C 0.3902(4) 0.2500 0.1418(3)
C13 C 0.2346(4) 0.2500 0.0922(3)
H8 H 0.496(5) 0.2500 -0.164(4)
H9 H 0.082(5) 0.172(8) 0.445(4)
O2C O 0.6980(2) 0.4270(3) 0.6133(2)
H9C H 0.082(5) 0.328(8) 0.445(4)
Mn1A Mn 0.67892(6) -0.2500 0.62091(5)
Mn1A_2 Mn 0.67892(6) 0.7500 0.62091(5)
O2A O 0.3020(2) 0.5730(3) 0.3867(2)
O2B O 0.3020(2) -0.0730(3) 0.3867(2)
O5 O 0.0647(5) 0.7500 0.4464(4)
H10? H 0.002(6) 0.839(9) 0.392(5)
H11? H 0.140(5) 0.7500 0.434(6)
loop_
_geom_bond_atom_site_label_1
_geom_bond_atom_site_label_2
_geom_bond_site_symmetry_1
_geom_bond_site_symmetry_2
Mn1 N3 1_555 1_555
N1 C6 1_555 1_555
N2 C5 1_555 1_555
N3 C11 1_555 1_555
N4 Mn1 1_555 1_555
O1 Mn1 1_555 1_555
O2 S1 1_555 1_555
O3 S1 1_555 1_555
O4 Mn1 1_555 1_555
S1 O1 1_555 1_555
C1 N4 1_555 1_555
H1 C1 1_555 1_555
C2 C1 1_555 1_555
H2 C2 1_555 1_555
C3 C2 1_555 1_555
H3 C3 1_555 1_555
C4 C3 1_555 1_555
C5 C4 1_555 1_555
C6 N2 1_555 1_555
H4 C6 1_555 1_555
C7 N1 1_555 1_555
C8 C7 1_555 1_555
C9 C8 1_555 1_555
H5 C9 1_555 1_555
C10 C9 1_555 1_555
H6 C10 1_555 1_555
C11 C10 1_555 1_555
H7 C11 1_555 1_555
C12 N3 1_555 1_555
C13 N4 1_555 1_555
H8 N1 1_555 1_555
H9 O4 1_555 1_555
O2C S1 1_555 1_555
H9C O4 1_555 1_555
Mn1A O2 1_555 1_555
Mn1A_2 O2C 1_555 1_555
O2A Mn1 1_555 1_555
O2B Mn1 1_555 1_555
C4 C13 1_555 1_555
C5 C7 1_555 1_555
C8 C12 1_555 1_555
C12 C13 1_555 1_555

#END
