
#######################################################################
#
#                 Cambridge Crystallographic Data Centre
#                                CCDC 
#
#######################################################################
#
# If this CIF has been generated from an entry in the Cambridge 
# Structural Database, then it will include bibliographic, chemical, 
# crystal, experimental, refinement or atomic coordinate data resulting 
# from the CCDC's data processing and validation procedures.
#
#######################################################################

data_MUFJAZ
_symmetry_cell_setting           monoclinic
_symmetry_space_group_name_H-M   'P 21/c'
_symmetry_Int_Tables_number      14
_space_group_name_Hall           '-P 2ybc'
loop_
_symmetry_equiv_pos_site_id
_symmetry_equiv_pos_as_xyz
1 x,y,z
2 -x,1/2+y,1/2-z
3 -x,-y,-z
4 x,1/2-y,1/2+z
_cell_length_a                   8.3210(7)
_cell_length_b                   17.4809(15)
_cell_length_c                   7.9204(7)
_cell_angle_alpha                90
_cell_angle_beta                 109.0690(10)
_cell_angle_gamma                90
_cell_volume                     1088.87
loop_
_atom_site_label
_atom_site_type_symbol
_atom_site_fract_x
_atom_site_fract_y
_atom_site_fract_z
Eu1 Eu 0.28001(12) 0.47780(5) 0.25576(11)
C1 C 0.061(2) 0.6288(10) -0.021(2)
C2 C 0.124(2) 0.7091(11) -0.013(2)
C3 C 0.278(2) 0.7382(10) 0.085(2)
H1 H 0.3679 0.7107 0.1613
C4 C 0.276(2) 0.8150(11) 0.052(2)
C5 C 0.408(2) 0.8773(10) 0.095(2)
C6 C 0.565(3) 0.5249(10) 0.072(3)
N1 N 0.031(2) 0.7655(9) -0.107(2)
H2 H -0.0736 0.7613 -0.1746
N2 N 0.122(2) 0.8297(9) -0.083(2)
O1 O 0.1525(18) 0.5814(8) 0.075(2)
O2 O -0.0825(18) 0.6174(7) -0.1256(19)
O3 O 0.5304(19) 0.8708(8) 0.2335(19)
O4 O 0.382(2) 0.9361(9) 0.000(2)
O5 O 0.520(2) 0.5425(9) 0.2042(17)
O6 O 0.7016(18) 0.5433(9) 0.0487(18)
O7 O 0.2572(19) 0.3983(8) 0.4983(16)
H3 H 0.2620 0.3499 0.4908
H4 H 0.2445 0.4187 0.5905
O8 O 0.017(2) 0.5183(8) 0.328(2)
H5 H -0.0343 0.4864 0.3735
H6 H -0.0203 0.5638 0.3061
Eu1B Eu -0.28001(12) 0.52220(5) -0.25576(11)
Eu1A Eu 0.71999(12) 0.97780(5) 0.24424(11)
Eu1C Eu 0.28001(12) 1.02220(5) -0.24424(11)
Eu1B_2 Eu 0.71999(12) 0.52220(5) -0.25576(11)
Eu1B_3 Eu 0.71999(12) 0.52220(5) 0.74424(11)
Eu1A_2 Eu 0.71999(12) -0.02220(5) 0.24424(11)
Eu1C_2 Eu 1.28001(12) 0.02220(5) 0.75576(11)
C1A C 0.939(2) 0.1288(10) 0.521(2)
C2A C 0.876(2) 0.2091(11) 0.513(2)
C3A C 0.722(2) 0.2382(10) 0.415(2)
H1A H 0.6321 0.2107 0.3387
C4A C 0.724(2) 0.3150(11) 0.448(2)
C5A C 0.592(2) 0.3773(10) 0.405(2)
C6B C 0.435(3) 0.4751(10) -0.072(3)
N1A N 0.969(2) 0.2655(9) 0.607(2)
H2A H 1.0736 0.2613 0.6746
N2A N 0.878(2) 0.3297(9) 0.583(2)
O1B O 0.8475(18) 0.4186(8) -0.075(2)
O1A O 0.8475(18) 0.0814(8) 0.425(2)
O2B O 0.0825(18) 0.3826(7) 0.1256(19)
O2_2 O 0.9175(18) 0.6174(7) -0.1256(19)
O2A O 1.0825(18) 0.1174(7) 0.6256(19)
O3A O 0.4696(19) 0.3708(8) 0.2665(19)
O3C O 0.5304(19) 0.6292(8) -0.2665(19)
O4A O 0.618(2) 0.4361(9) 0.500(2)
O4C O 0.382(2) 0.5639(9) 0.500(2)
O4A_2 O 0.618(2) 0.4361(9) -0.500(2)
O4C_2 O 0.382(2) 0.5639(9) -0.500(2)
O5B O 0.480(2) 0.4575(9) -0.2042(17)
O6B O 0.2984(18) 0.4567(9) -0.0487(18)
O7B O 0.7428(19) 0.6017(8) -0.4983(16)
H3B H 0.7380 0.6501 -0.4908
H4B H 0.7555 0.5813 -0.5905
O8B O 0.983(2) 0.4817(8) -0.328(2)
H5B H 1.0343 0.5136 -0.3735
H6B H 1.0203 0.4362 -0.3061
O9 O 0.2871(18) 0.2381(11) 0.448(2)
H7 H 0.3593 0.2059 0.4364
H8 H 0.2142 0.2246 0.4966
loop_
_geom_bond_atom_site_label_1
_geom_bond_atom_site_label_2
_geom_bond_site_symmetry_1
_geom_bond_site_symmetry_2
Eu1 O1 1_555 1_555
C1 C2 1_555 1_555
C2 C3 1_555 1_555
C3 H1 1_555 1_555
C4 C3 1_555 1_555
C5 C4 1_555 1_555
C6 O5 1_555 1_555
N1 C2 1_555 1_555
H2 N1 1_555 1_555
N2 C4 1_555 1_555
O1 C1 1_555 1_555
O2 C1 1_555 1_555
O3 C5 1_555 1_555
O4 C5 1_555 1_555
O5 Eu1 1_555 1_555
O6 C6 1_555 1_555
O7 Eu1 1_555 1_555
H3 O7 1_555 1_555
H4 O7 1_555 1_555
O8 Eu1 1_555 1_555
H5 O8 1_555 1_555
H6 O8 1_555 1_555
O9 H7 1_555 1_555
H8 O9 1_555 1_555
Eu1B O2 1_555 1_555
Eu1A O3 1_555 1_555
Eu1C O4 1_555 1_555
Eu1B_2 O6 1_555 1_555
Eu1B_3 O4A 1_555 1_555
Eu1A_2 O1A 1_555 1_555
Eu1C_2 O2A 1_555 1_555
C1A C2A 1_555 1_555
C2A C3A 1_555 1_555
C3A H1A 1_555 1_555
C4A C3A 1_555 1_555
C5A C4A 1_555 1_555
C6B C6 1_555 1_555
N1A C2A 1_555 1_555
H2A N1A 1_555 1_555
N2A C4A 1_555 1_555
O1B Eu1B_2 1_555 1_555
O1A C1A 1_555 1_555
O2B Eu1 1_555 1_555
O2_2 Eu1B_2 1_555 1_555
O2A C1A 1_555 1_555
O3A Eu1 1_555 1_555
O3C Eu1B_2 1_555 1_555
O4A Eu1 1_555 1_555
O4C Eu1 1_555 1_555
O4A_2 Eu1B_2 1_555 1_555
O4C_2 Eu1B_2 1_555 1_555
O5B Eu1B_2 1_555 1_555
O6B Eu1 1_555 1_555
O7B Eu1B_2 1_555 1_555
H3B O7B 1_555 1_555
H4B O7B 1_555 1_555
O8B Eu1B_2 1_555 1_555
H5B O8B 1_555 1_555
H6B O8B 1_555 1_555
N1 N2 1_555 1_555
O4 Eu1A 1_555 1_555
Eu1B_3 O4C 1_555 1_555
C5A O3A 1_555 1_555
C5A O4A 1_555 1_555
C6B O5B 1_555 1_555
C6B O6B 1_555 1_555
N1A N2A 1_555 1_555

#END
