
#######################################################################
#
#                 Cambridge Crystallographic Data Centre
#                                CCDC 
#
#######################################################################
#
# If this CIF has been generated from an entry in the Cambridge 
# Structural Database, then it will include bibliographic, chemical, 
# crystal, experimental, refinement or atomic coordinate data resulting 
# from the CCDC's data processing and validation procedures.
#
#######################################################################

data_MUFJIH
_symmetry_cell_setting           monoclinic
_symmetry_space_group_name_H-M   'C 2/c'
_symmetry_Int_Tables_number      15
_space_group_name_Hall           '-C 2yn'
loop_
_symmetry_equiv_pos_site_id
_symmetry_equiv_pos_as_xyz
1 x,y,z
2 -x,y,1/2-z
3 1/2+x,1/2+y,z
4 1/2-x,1/2+y,1/2-z
5 -x,-y,-z
6 x,-y,1/2+z
7 1/2-x,1/2-y,-z
8 1/2+x,1/2-y,1/2+z
_cell_length_a                   38.021(9)
_cell_length_b                   9.576(2)
_cell_length_c                   17.863(4)
_cell_angle_alpha                90
_cell_angle_beta                 110.853(8)
_cell_angle_gamma                90
_cell_volume                     6077.71
loop_
_atom_site_label
_atom_site_type_symbol
_atom_site_fract_x
_atom_site_fract_y
_atom_site_fract_z
Zn1 Zn 0.681737(11) 0.51865(5) 0.60927(3)
C1 C 0.70602(10) 0.4977(4) 0.4560(2)
C2 C 0.71861(10) 0.5750(4) 0.4064(2)
H1 H 0.7018 0.6014 0.3564
C3 C 0.75604(10) 0.6150(4) 0.4293(2)
C4 C 0.78015(10) 0.5660(4) 0.5008(2)
H2 H 0.8055 0.5889 0.5168
C5 C 0.76806(10) 0.4836(4) 0.5497(2)
C6 C 0.66426(11) 0.4698(4) 0.4346(3)
C7 C 0.76828(11) 0.7165(5) 0.3788(3)
C8 C 0.79258(11) 0.4247(6) 0.6286(3)
H3 H 0.7856 0.4647 0.6707
H4 H 0.8184 0.4463 0.6376
H5 H 0.7894 0.3252 0.6282
C9 C 0.49868(10) 1.0112(4) 0.6410(2)
C10 C 0.51950(10) 0.9017(4) 0.6305(2)
C11 C 0.55704(10) 0.9431(4) 0.6389(2)
C12 C 0.56331(10) 1.0831(4) 0.6537(2)
C13 C 0.45900(10) 1.0148(4) 0.6366(2)
C14 C 0.43840(11) 1.1376(5) 0.6191(2)
H6 H 0.4496 1.2207 0.6127
C15 C 0.40092(12) 1.1347(5) 0.6112(3)
H7 H 0.3876 1.2183 0.5996
C16 C 0.40269(13) 0.9055(5) 0.6377(3)
H8 H 0.3907 0.8245 0.6445
C17 C 0.44044(11) 0.8967(5) 0.6478(2)
H9 H 0.4532 0.8123 0.6619
C18 C 0.50549(9) 0.7585(4) 0.6106(2)
C19 C 0.47711(10) 0.7294(5) 0.5383(2)
H10 H 0.4673 0.7995 0.5006
C20 C 0.46376(12) 0.5944(5) 0.5232(3)
H11 H 0.4450 0.5761 0.4741
C21 C 0.50340(12) 0.5185(4) 0.6420(3)
H12 H 0.5130 0.4461 0.6782
C22 C 0.51888(10) 0.6487(4) 0.6626(2)
H13 H 0.5383 0.6626 0.7114
C23 C 0.58592(10) 0.8441(4) 0.6327(2)
C24 C 0.57829(10) 0.7495(4) 0.5706(2)
H14 H 0.5543 0.7450 0.5316
C25 C 0.60596(10) 0.6628(4) 0.5668(2)
H15 H 0.6004 0.6022 0.5234
C26 C 0.64767(10) 0.7500(4) 0.6811(2)
H16 H 0.6718 0.7510 0.7197
C27 C 0.62153(10) 0.8426(4) 0.6893(2)
H17 H 0.6280 0.9034 0.7327
C28 C 0.59526(10) 1.1702(4) 0.6534(2)
C29 C 0.61247(10) 1.1463(4) 0.5974(2)
H18 H 0.6059 1.0687 0.5640
C30 C 0.63922(10) 1.2385(4) 0.5921(2)
H19 H 0.6501 1.2217 0.5539
C31 C 0.63462(10) 1.3697(4) 0.6939(2)
H20 H 0.6424 1.4456 0.7283
C32 C 0.60744(10) 1.2831(4) 0.7028(2)
H21 H 0.5974 1.3013 0.7423
N1 N 0.73052(8) 0.4540(3) 0.5274(2)
N2 N 0.38259(10) 1.0214(5) 0.6191(2)
N3 N 0.47584(11) 0.4890(4) 0.5740(2)
N4 N 0.64051(8) 0.6601(3) 0.62169(18)
N5 N 0.65038(8) 1.3509(3) 0.63890(19)
O1 O 0.71845(7) 0.3862(3) 0.57815(16)
O2 O 0.65005(7) 0.4910(3) 0.48713(15)
O3 O 0.64730(8) 0.4349(4) 0.36450(18)
O4 O 0.75212(9) 0.7130(4) 0.30491(19)
O5 O 0.79307(7) 0.7999(3) 0.41709(16)
O6 O 0.71703(7) 0.5276(3) 0.72855(16)
H22 H 0.7360 0.4755 0.7356
H23 H 0.7243 0.6115 0.7402
S1 S 0.52440(3) 1.16300(11) 0.66133(7)
Zn1_2 Zn 0.681737(11) 1.51865(5) 0.60927(3)
Zn1F Zn 0.818263(11) 0.98135(5) 0.39073(3)
N5_2 N 0.65038(8) 0.3509(3) 0.63890(19)
O5F O 0.70693(7) 0.7001(3) 0.58291(16)
O7 O 0.57415(8) 0.5044(4) 0.3196(2)
H24 H 0.5914 0.5066 0.3656
H25 H 0.5538 0.4763 0.3240
loop_
_geom_bond_atom_site_label_1
_geom_bond_atom_site_label_2
_geom_bond_site_symmetry_1
_geom_bond_site_symmetry_2
Zn1 N4 1_555 1_555
C1 C2 1_555 1_555
C2 H1 1_555 1_555
C3 C2 1_555 1_555
C4 C3 1_555 1_555
H2 C4 1_555 1_555
C5 C4 1_555 1_555
C6 C1 1_555 1_555
C7 C3 1_555 1_555
C8 C5 1_555 1_555
H3 C8 1_555 1_555
H4 C8 1_555 1_555
H5 C8 1_555 1_555
C9 C10 1_555 1_555
C10 C11 1_555 1_555
C11 C12 1_555 1_555
C12 C28 1_555 1_555
C13 C9 1_555 1_555
C14 C13 1_555 1_555
H6 C14 1_555 1_555
C15 C14 1_555 1_555
H7 C15 1_555 1_555
C16 H8 1_555 1_555
C17 C13 1_555 1_555
H9 C17 1_555 1_555
C18 C10 1_555 1_555
C19 C18 1_555 1_555
H10 C19 1_555 1_555
C20 C19 1_555 1_555
H11 C20 1_555 1_555
C21 H12 1_555 1_555
C22 C18 1_555 1_555
H13 C22 1_555 1_555
C23 C11 1_555 1_555
C24 C23 1_555 1_555
H14 C24 1_555 1_555
C25 C24 1_555 1_555
H15 C25 1_555 1_555
C26 H16 1_555 1_555
C27 C23 1_555 1_555
H17 C27 1_555 1_555
C28 C29 1_555 1_555
C29 H18 1_555 1_555
C30 C29 1_555 1_555
H19 C30 1_555 1_555
C31 H20 1_555 1_555
C32 C28 1_555 1_555
H21 C32 1_555 1_555
N1 C1 1_555 1_555
N2 C15 1_555 1_555
N3 C20 1_555 1_555
N4 C25 1_555 1_555
N5 C30 1_555 1_555
O1 Zn1 1_555 1_555
O2 Zn1 1_555 1_555
O3 C6 1_555 1_555
O4 C7 1_555 1_555
O5 C7 1_555 1_555
O6 Zn1 1_555 1_555
H22 O6 1_555 1_555
H23 O6 1_555 1_555
O7 H24 1_555 1_555
H25 O7 1_555 1_555
S1 C9 1_555 1_555
Zn1_2 N5 1_555 1_555
Zn1F O5 1_555 1_555
N5_2 Zn1 1_555 1_555
O5F Zn1 1_555 1_555
C5 N1 1_555 1_555
C6 O2 1_555 1_555
C12 S1 1_555 1_555
C16 C17 1_555 1_555
C16 N2 1_555 1_555
C21 C22 1_555 1_555
C21 N3 1_555 1_555
C26 C27 1_555 1_555
C26 N4 1_555 1_555
C31 C32 1_555 1_555
C31 N5 1_555 1_555
N1 O1 1_555 1_555

#END
