
#######################################################################
#
#                 Cambridge Crystallographic Data Centre
#                                CCDC 
#
#######################################################################
#
# If this CIF has been generated from an entry in the Cambridge 
# Structural Database, then it will include bibliographic, chemical, 
# crystal, experimental, refinement or atomic coordinate data resulting 
# from the CCDC's data processing and validation procedures.
#
#######################################################################

data_MUFJAZ01
_symmetry_cell_setting           monoclinic
_symmetry_space_group_name_H-M   'P 21/c'
_symmetry_Int_Tables_number      14
_space_group_name_Hall           '-P 2ybc'
loop_
_symmetry_equiv_pos_site_id
_symmetry_equiv_pos_as_xyz
1 x,y,z
2 -x,1/2+y,1/2-z
3 -x,-y,-z
4 x,1/2-y,1/2+z
_cell_length_a                   8.3194(3)
_cell_length_b                   17.4760(5)
_cell_length_c                   7.9219(3)
_cell_angle_alpha                90
_cell_angle_beta                 109.008(2)
_cell_angle_gamma                90
_cell_volume                     1088.96
loop_
_atom_site_label
_atom_site_type_symbol
_atom_site_fract_x
_atom_site_fract_y
_atom_site_fract_z
Eu1 Eu 0.71970(8) 0.02222(3) 0.24418(8)
O1 O 0.3827(12) 0.0637(5) 0.0008(12)
O2 O 0.5303(12) 0.1308(6) 0.2350(13)
O3 O -0.0857(12) 0.3817(5) -0.1242(13)
O4 O 0.1526(13) 0.4191(6) 0.0771(15)
O5 O 0.7423(13) 0.1019(5) 0.0013(12)
H1 H 0.76(2) 0.148(2) 0.011(18)
H2 H 0.688(19) 0.097(7) -0.105(6)
N1 N 0.1224(15) 0.1709(6) -0.0784(17)
N2 N 0.0299(15) 0.2350(6) -0.1103(15)
C1 C 0.4056(16) 0.1230(7) 0.0978(17)
C2 C 0.2774(15) 0.1848(7) 0.0457(16)
C3 C 0.2838(15) 0.2611(7) 0.0889(17)
H3 H 0.3746 0.2873 0.1681
C4 C 0.1261(16) 0.2913(7) -0.0103(16)
C5 C 0.0595(15) 0.3700(7) -0.0192(17)
O6 O 0.7005(11) 0.0436(6) 0.5482(12)
C6 C 0.5634(15) 0.0255(8) 0.5708(15)
O7 O 0.9827(12) -0.0186(6) 0.1702(14)
H4 H 1.068(11) 0.006(8) 0.17(2)
H5 H 1.016(17) -0.045(8) 0.261(14)
O9 O 0.5200(12) 0.0426(5) 0.7046(12)
H8 H 0.07(3) 0.131(14) -0.11(3)
Eu1B Eu 0.28030(8) -0.02222(3) -0.24418(8)
Eu1C Eu -0.28030(8) 0.47778(3) -0.25582(8)
Eu1A Eu 0.28030(8) 0.52222(3) 0.25582(8)
Eu1B_2 Eu 0.28030(8) -0.02222(3) 0.75582(8)
Eu1A_2 Eu 1.28030(8) -0.47778(3) 0.25582(8)
Eu1C_2 Eu 0.71970(8) -0.52222(3) -0.25582(8)
O1B O 0.6173(12) -0.0637(5) -0.0008(12)
O2B O 0.4697(12) -0.1308(6) -0.2350(13)
O3B O 1.0857(12) -0.3817(5) 0.1242(13)
O3C O 0.9143(12) 0.1183(5) 0.3758(13)
O3A O 0.0857(12) -0.1183(5) -0.3758(13)
O4B O 0.8474(13) -0.4191(6) -0.0771(15)
O4A O 0.8474(13) -0.0809(6) 0.4229(15)
O4C O 0.1526(13) 0.0809(6) -0.4229(15)
O5B O 0.2577(13) -0.1019(5) -0.0013(12)
H1B H 0.24(2) -0.148(2) -0.011(18)
H2B H 0.312(19) -0.097(7) 0.105(6)
N1B N 0.8776(15) -0.1709(6) 0.0784(17)
N2B N 0.9701(15) -0.2350(6) 0.1103(15)
C1B C 0.5944(16) -0.1230(7) -0.0978(17)
C2B C 0.7226(15) -0.1848(7) -0.0457(16)
C3B C 0.7162(15) -0.2611(7) -0.0889(17)
H3B H 0.6254 -0.2873 -0.1681
C4B C 0.8739(16) -0.2913(7) 0.0103(16)
C5B C 0.9405(15) -0.3700(7) 0.0192(17)
O6B O 0.2995(11) -0.0436(6) 0.4518(12)
O6B_2 O 0.2995(11) -0.0436(6) -0.5482(12)
C6B C 0.4366(15) -0.0255(8) 0.4292(15)
O7B O 0.0173(12) 0.0186(6) -0.1702(14)
H4B H -0.068(11) -0.006(8) -0.17(2)
H5B H -0.016(17) 0.045(8) -0.261(14)
O9B O 0.4800(12) -0.0426(5) 0.2954(12)
O9_2 O 0.5200(12) 0.0426(5) -0.2954(12)
H8B H 0.93(3) -0.131(14) 0.11(3)
O8 O 0.7247(18) 0.2611(8) 0.052(2)
H6 H 0.66(2) 0.241(10) 0.10(3)
H7 H 0.70(3) 0.309(3) 0.04(3)
loop_
_geom_bond_atom_site_label_1
_geom_bond_atom_site_label_2
_geom_bond_site_symmetry_1
_geom_bond_site_symmetry_2
Eu1 O1 1_555 1_555
O1 C1 1_555 1_555
O2 Eu1 1_555 1_555
O3 C5 1_555 1_555
O4 C5 1_555 1_555
O5 Eu1 1_555 1_555
H1 O5 1_555 1_555
H2 O5 1_555 1_555
N1 N2 1_555 1_555
N2 C4 1_555 1_555
C1 O2 1_555 1_555
C2 N1 1_555 1_555
C3 C2 1_555 1_555
H3 C3 1_555 1_555
C4 C3 1_555 1_555
C5 C4 1_555 1_555
O6 Eu1 1_555 1_555
C6 O6 1_555 1_555
O7 Eu1 1_555 1_555
H4 O7 1_555 1_555
H5 O7 1_555 1_555
O8 H6 1_555 1_555
H7 O8 1_555 1_555
O9 C6 1_555 1_555
H8 N1 1_555 1_555
Eu1B O1 1_555 1_555
Eu1C O3 1_555 1_555
Eu1A O4 1_555 1_555
Eu1B_2 O9 1_555 1_555
Eu1A_2 O3B 1_555 1_555
Eu1C_2 O4B 1_555 1_555
O1B Eu1 1_555 1_555
O2B Eu1B 1_555 1_555
O3B C5B 1_555 1_555
O3C Eu1 1_555 1_555
O3A Eu1B 1_555 1_555
O4B C5B 1_555 1_555
O4A Eu1 1_555 1_555
O4C Eu1B 1_555 1_555
O5B Eu1B 1_555 1_555
H1B O5B 1_555 1_555
H2B O5B 1_555 1_555
N1B N2B 1_555 1_555
N2B C4B 1_555 1_555
C1B O1B 1_555 1_555
C2B N1B 1_555 1_555
C3B C2B 1_555 1_555
H3B C3B 1_555 1_555
C4B C3B 1_555 1_555
C5B C4B 1_555 1_555
O6B Eu1B_2 1_555 1_555
O6B_2 Eu1B 1_555 1_555
C6B C6 1_555 1_555
O7B Eu1B 1_555 1_555
H4B O7B 1_555 1_555
H5B O7B 1_555 1_555
O9B Eu1 1_555 1_555
O9_2 Eu1B 1_555 1_555
H8B N1B 1_555 1_555
C1 C2 1_555 1_555
Eu1B O1B 1_555 1_555
O2B C1B 1_555 1_555
C1B C2B 1_555 1_555
O6B C6B 1_555 1_555
C6B O9B 1_555 1_555

#END
