
#######################################################################
#
#                 Cambridge Crystallographic Data Centre
#                                CCDC 
#
#######################################################################
#
# If this CIF has been generated from an entry in the Cambridge 
# Structural Database, then it will include bibliographic, chemical, 
# crystal, experimental, refinement or atomic coordinate data resulting 
# from the CCDC's data processing and validation procedures.
#
#######################################################################

data_MUFKII
_symmetry_cell_setting           monoclinic
_symmetry_space_group_name_H-M   'C 2/c'
_symmetry_Int_Tables_number      15
_space_group_name_Hall           '-C 2yn'
loop_
_symmetry_equiv_pos_site_id
_symmetry_equiv_pos_as_xyz
1 x,y,z
2 -x,y,1/2-z
3 1/2+x,1/2+y,z
4 1/2-x,1/2+y,1/2-z
5 -x,-y,-z
6 x,-y,1/2+z
7 1/2-x,1/2-y,-z
8 1/2+x,1/2-y,1/2+z
_cell_length_a                   15.127(4)
_cell_length_b                   7.1128(13)
_cell_length_c                   18.984(3)
_cell_angle_alpha                90
_cell_angle_beta                 106.042(16)
_cell_angle_gamma                90
_cell_volume                     1963.05
loop_
_atom_site_label
_atom_site_type_symbol
_atom_site_fract_x
_atom_site_fract_y
_atom_site_fract_z
Zn1 Zn 0.5000 0.85535(6) 0.2500
N1 N 0.57814(18) 0.6917(4) 0.32724(14)
N2 N 0.6221(2) 0.7725(4) 0.39050(16)
N3 N 0.6685(3) 0.6461(5) 0.43397(19)
N4 N 0.6574(2) 0.4799(5) 0.40140(19)
C1 C 0.6020(3) 0.5119(5) 0.3356(2)
H1 H 0.5822 0.4204 0.2998
N5 N 0.57760(16) 1.0303(3) 0.20983(13)
N6 N 0.66240(19) 1.0851(4) 0.24564(15)
N7 N 0.6854(3) 1.2002(6) 0.1989(2)
N8 N 0.6189(2) 1.2162(5) 0.13625(19)
C2 C 0.5515(2) 1.1082(5) 0.14527(17)
H2 H 0.4948 1.0908 0.1111
Cu1 Cu 0.7500 0.2500 0.5000
N9 N 0.63187(18) 0.1140(4) 0.49674(14)
H3 H 0.6004 0.0897 0.4500
H4 H 0.6442 0.0042 0.5210
C3 C 0.5772(2) 0.2362(5) 0.5314(2)
H5 H 0.5298 0.1635 0.5445
H6 H 0.5477 0.3349 0.4978
N10 N 0.71885(18) 0.4101(4) 0.57799(14)
H7 H 0.7682 0.4197 0.6173
H8 H 0.7026 0.5264 0.5605
C4 C 0.6419(2) 0.3206(5) 0.59922(19)
H9 H 0.6098 0.4134 0.6204
H10 H 0.6651 0.2234 0.6354
N1A N 0.42186(18) 0.6917(4) 0.17276(14)
N2A N 0.3779(2) 0.7725(4) 0.10950(16)
N3A N 0.3315(3) 0.6461(5) 0.06603(19)
N4A N 0.3426(2) 0.4799(5) 0.09860(19)
N4F N 0.8426(2) 0.0201(5) 0.59860(19)
C1A C 0.3980(3) 0.5119(5) 0.1644(2)
H1A H 0.4178 0.4204 0.2002
N5A N 0.42240(16) 1.0303(3) 0.29017(13)
N6A N 0.33760(19) 1.0851(4) 0.25436(15)
N7A N 0.3146(3) 1.2002(6) 0.3011(2)
N8A N 0.3811(2) 1.2162(5) 0.36375(19)
C2A C 0.4485(2) 1.1082(5) 0.35473(17)
H2A H 0.5052 1.0908 0.3889
Cu1A Cu 0.2500 0.2500 0.0000
N9F N 0.86813(18) 0.3860(4) 0.50326(14)
H3F H 0.8996 0.4103 0.5500
H4F H 0.8558 0.4958 0.4790
C3F C 0.9228(2) 0.2638(5) 0.4686(2)
H5F H 0.9702 0.3365 0.4555
H6F H 0.9523 0.1651 0.5022
N10F N 0.78115(18) 0.0899(4) 0.42201(14)
H7F H 0.7318 0.0803 0.3827
H8F H 0.7974 -0.0264 0.4395
C4F C 0.8581(2) 0.1794(5) 0.40078(19)
H9F H 0.8902 0.0866 0.3796
H10F H 0.8349 0.2766 0.3646
loop_
_geom_bond_atom_site_label_1
_geom_bond_atom_site_label_2
_geom_bond_site_symmetry_1
_geom_bond_site_symmetry_2
Zn1 N1 1_555 1_555
N1 N2 1_555 1_555
N2 N3 1_555 1_555
N3 N4 1_555 1_555
N4 C1 1_555 1_555
C1 N1 1_555 1_555
H1 C1 1_555 1_555
N5 Zn1 1_555 1_555
N6 N5 1_555 1_555
N7 N6 1_555 1_555
N8 N7 1_555 1_555
C2 N5 1_555 1_555
H2 C2 1_555 1_555
Cu1 N4 1_555 1_555
N9 Cu1 1_555 1_555
H3 N9 1_555 1_555
H4 N9 1_555 1_555
C3 N9 1_555 1_555
H5 C3 1_555 1_555
H6 C3 1_555 1_555
N10 Cu1 1_555 1_555
H7 N10 1_555 1_555
H8 N10 1_555 1_555
C4 C3 1_555 1_555
H9 C4 1_555 1_555
H10 C4 1_555 1_555
N1A Zn1 1_555 1_555
N2A N1A 1_555 1_555
N3A N2A 1_555 1_555
N4A N3A 1_555 1_555
N4F Cu1 1_555 1_555
C1A N1A 1_555 1_555
H1A C1A 1_555 1_555
N5A Zn1 1_555 1_555
N6A N5A 1_555 1_555
N7A N6A 1_555 1_555
N8A N7A 1_555 1_555
C2A N5A 1_555 1_555
H2A C2A 1_555 1_555
Cu1A N4A 1_555 1_555
N9F Cu1 1_555 1_555
H3F N9F 1_555 1_555
H4F N9F 1_555 1_555
C3F N9F 1_555 1_555
H5F C3F 1_555 1_555
H6F C3F 1_555 1_555
N10F Cu1 1_555 1_555
H7F N10F 1_555 1_555
H8F N10F 1_555 1_555
C4F C3F 1_555 1_555
H9F C4F 1_555 1_555
H10F C4F 1_555 1_555
N8 C2 1_555 1_555
N10 C4 1_555 1_555
N4A C1A 1_555 1_555
N8A C2A 1_555 1_555
N10F C4F 1_555 1_555

#END
