
#######################################################################
#
#                 Cambridge Crystallographic Data Centre
#                                CCDC 
#
#######################################################################
#
# If this CIF has been generated from an entry in the Cambridge 
# Structural Database, then it will include bibliographic, chemical, 
# crystal, experimental, refinement or atomic coordinate data resulting 
# from the CCDC's data processing and validation procedures.
#
#######################################################################

data_MUFKAA
_symmetry_cell_setting           triclinic
_symmetry_space_group_name_H-M   'P -1'
_symmetry_Int_Tables_number      2
_space_group_name_Hall           '-P 1'
loop_
_symmetry_equiv_pos_site_id
_symmetry_equiv_pos_as_xyz
1 x,y,z
2 -x,-y,-z
_cell_length_a                   4.4009(9)
_cell_length_b                   8.4456(17)
_cell_length_c                   15.580(3)
_cell_angle_alpha                95.18(3)
_cell_angle_beta                 92.20(3)
_cell_angle_gamma                99.49(3)
_cell_volume                     567.986
loop_
_atom_site_label
_atom_site_type_symbol
_atom_site_fract_x
_atom_site_fract_y
_atom_site_fract_z
O1 O -0.3011(6) 0.3938(3) 0.40957(17)
N1 N -0.5520(8) 0.2772(4) 0.2403(2)
N2 N -0.7041(7) 0.4000(4) 0.2524(2)
N3 N -0.4332(9) 0.2626(5) 0.1624(2)
C1 C -0.6777(9) 0.4633(5) 0.1774(3)
N4 N -0.9148(8) 0.6852(4) 0.2260(2)
N5 N -0.5152(9) 0.3805(5) 0.1221(2)
C2 C -0.2982(9) 0.2506(5) 0.3844(3)
C3 C -0.8012(9) 0.6088(5) 0.1584(3)
O2 O -0.1447(8) 0.1574(4) 0.4185(2)
C4 C -0.5063(10) 0.1705(5) 0.3067(3)
H1 H -0.7061 0.1269 0.3267
H2 H -0.4183 0.0807 0.2808
C5 C -0.7957(11) 0.6580(6) 0.0760(3)
H3 H -0.7164 0.6006 0.0308
C6 C -1.0322(10) 0.8190(6) 0.2110(3)
H4 H -1.1143 0.8736 0.2567
C7 C -1.0366(12) 0.8789(6) 0.1312(4)
H5 H -1.1198 0.9713 0.1235
C8 C -0.9160(13) 0.7992(7) 0.0639(3)
H6 H -0.9134 0.8384 0.0100
K1 K -0.2454(2) 0.39347(10) 0.59537(5)
O3 O 0.2135(6) 0.1757(3) 0.56928(19)
H7 H 0.2492 0.0977 0.5758
H8 H 0.1792 0.1600 0.5190
O1A O 0.3011(6) 0.6062(3) 0.59043(17)
O1A_2 O -0.6989(6) 0.6062(3) 0.59043(17)
N2A N -0.2959(7) 0.6000(4) 0.7476(2)
N4A N -0.0852(8) 0.3148(4) 0.7740(2)
K1A K 0.2454(2) 0.60653(10) 0.40463(5)
K1A_2 K -0.7546(2) 0.60653(10) 0.40463(5)
K1_2 K 0.7546(2) 0.39347(10) 0.59537(5)
O3_2 O -0.7865(6) 0.1757(3) 0.56928(19)
H7_2 H -0.7508 0.0977 0.5758
H8_2 H -0.8208 0.1600 0.5190
loop_
_geom_bond_atom_site_label_1
_geom_bond_atom_site_label_2
_geom_bond_site_symmetry_1
_geom_bond_site_symmetry_2
O1 C2 1_555 1_555
N1 N2 1_555 1_555
N2 C1 1_555 1_555
N3 N1 1_555 1_555
C1 N5 1_555 1_555
N4 C3 1_555 1_555
N5 N3 1_555 1_555
C2 O2 1_555 1_555
C3 C1 1_555 1_555
O2 K1 1_555 1_555
C4 N1 1_555 1_555
H1 C4 1_555 1_555
H2 C4 1_555 1_555
C5 C3 1_555 1_555
H3 C5 1_555 1_555
C6 N4 1_555 1_555
H4 C6 1_555 1_555
C7 C6 1_555 1_555
H5 C7 1_555 1_555
C8 C5 1_555 1_555
H6 C8 1_555 1_555
K1 O1 1_555 1_555
O3 K1 1_555 1_555
H7 O3 1_555 1_555
H8 O3 1_555 1_555
O1A K1 1_555 1_555
O1A_2 K1 1_555 1_555
N2A K1 1_555 1_555
N4A K1 1_555 1_555
K1A O1 1_555 1_555
K1A_2 O1 1_555 1_555
K1_2 O3 1_555 1_555
O3_2 K1 1_555 1_555
H7_2 O3_2 1_555 1_555
H8_2 O3_2 1_555 1_555
N2 K1A_2 1_555 1_555
N4 K1A_2 1_555 1_555
C2 C4 1_555 1_555
C7 C8 1_555 1_555
O1A K1A 1_555 1_555
O1A K1_2 1_555 1_555
O1A_2 K1A_2 1_555 1_555

#END
