
#######################################################################
#
#                 Cambridge Crystallographic Data Centre
#                                CCDC 
#
#######################################################################
#
# If this CIF has been generated from an entry in the Cambridge 
# Structural Database, then it will include bibliographic, chemical, 
# crystal, experimental, refinement or atomic coordinate data resulting 
# from the CCDC's data processing and validation procedures.
#
#######################################################################

data_MUFLAB
_symmetry_cell_setting           triclinic
_symmetry_space_group_name_H-M   'P -1'
_symmetry_Int_Tables_number      2
_space_group_name_Hall           '-P 1'
loop_
_symmetry_equiv_pos_site_id
_symmetry_equiv_pos_as_xyz
1 x,y,z
2 -x,-y,-z
_cell_length_a                   9.0283(3)
_cell_length_b                   10.4902(4)
_cell_length_c                   13.4896(6)
_cell_angle_alpha                103.4813(11)
_cell_angle_beta                 100.3055(12)
_cell_angle_gamma                99.4864(10)
_cell_volume                     1193.52
loop_
_atom_site_label
_atom_site_type_symbol
_atom_site_fract_x
_atom_site_fract_y
_atom_site_fract_z
Co1 Co 0.0000 1.0000 1.0000
S1 S 0.10489(8) 1.10386(6) 0.68068(5)
N1 N 0.1928(2) 0.90739(17) 1.02727(14)
N2 N 0.3913(2) 0.8085(2) 1.00579(17)
N3 N 0.3684(2) 0.82181(17) 1.10378(14)
N4 N 0.3530(2) 0.34156(17) 1.17679(16)
N5 N 0.2565(2) 0.35853(19) 1.24360(16)
N6 N 0.1483(2) 0.18167(16) 1.10353(14)
N13 N 0.0723(2) 1.04375(19) 0.86747(16)
C1 C 0.2509(2) 0.8805(2) 1.11484(18)
C2 C 0.2829(2) 0.8623(2) 0.9627(2)
C3 C 0.4622(2) 0.7721(2) 1.17945(19)
C4 C 0.4462(2) 0.6202(2) 1.14382(18)
C5 C 0.5194(2) 0.5702(2) 1.23329(19)
C6 C 0.5105(2) 0.4201(2) 1.2061(2)
C7 C 0.1361(2) 0.2610(2) 1.19587(19)
C8 C 0.2876(2) 0.2355(2) 1.09586(19)
C17 C 0.0861(2) 1.0664(2) 0.78968(19)
H1 H 0.2146 0.9000 1.1758
H2 H 0.2697 0.8686 0.8941
H3 H 0.0490 0.2471 1.2231
H4 H 0.3335 0.2035 1.0413
H9 H 0.4304 0.7945 1.2452
H10 H 0.5694 0.8154 1.1896
H11 H 0.3378 0.5768 1.1205
H12 H 0.4971 0.5985 1.0865
H13 H 0.4678 0.5933 1.2901
H14 H 0.6273 0.6156 1.2563
H15 H 0.5592 0.3960 1.1479
H16 H 0.5656 0.3984 1.2664
Co1_2 Co 0.0000 0.0000 1.0000
Co1_3 Co 0.0000 2.0000 1.0000
S1A S -0.10489(8) 0.89614(6) 1.31932(5)
N1_2 N 0.1928(2) 1.90739(17) 1.02727(14)
N1A N -0.1928(2) 1.09261(17) 0.97273(14)
N2_2 N 0.3913(2) 1.8085(2) 1.00579(17)
N3_2 N 0.3684(2) 1.82181(17) 1.10378(14)
N4_2 N 0.3530(2) 1.34156(17) 1.17679(16)
N5_2 N 0.2565(2) 1.35853(19) 1.24360(16)
N6_2 N 0.1483(2) 1.18167(16) 1.10353(14)
N6A N -0.1483(2) 0.81833(16) 0.89647(14)
N13A N -0.0723(2) 0.95625(19) 1.13253(16)
C1_2 C 0.2509(2) 1.8805(2) 1.11484(18)
C2_2 C 0.2829(2) 1.8623(2) 0.9627(2)
C3_2 C 0.4622(2) 1.7721(2) 1.17945(19)
C4_2 C 0.4462(2) 1.6202(2) 1.14382(18)
C5_2 C 0.5194(2) 1.5702(2) 1.23329(19)
C6_2 C 0.5105(2) 1.4201(2) 1.2061(2)
C7_2 C 0.1361(2) 1.2610(2) 1.19587(19)
C8_2 C 0.2876(2) 1.2355(2) 1.09586(19)
C17A C -0.0861(2) 0.9336(2) 1.21032(19)
H1_2 H 0.2146 1.9000 1.1758
H2_2 H 0.2697 1.8686 0.8941
H3_2 H 0.0490 1.2471 1.2231
H4_2 H 0.3335 1.2035 1.0413
H9_2 H 0.4304 1.7945 1.2452
H10_2 H 0.5694 1.8154 1.1896
H11_2 H 0.3378 1.5768 1.1205
H12_2 H 0.4971 1.5985 1.0865
H13_2 H 0.4678 1.5933 1.2901
H14_2 H 0.6273 1.6156 1.2563
H15_2 H 0.5592 1.3960 1.1479
H16_2 H 0.5656 1.3984 1.2664
Co2 Co 0.0000 0.5000 0.5000
S2 S -0.40686(8) 0.12651(6) 0.27291(5)
N7 N -0.0346(2) 0.45143(17) 0.64244(14)
N8 N -0.1240(2) 0.3457(2) 0.75472(16)
N9 N 0.0199(2) 0.42303(18) 0.79880(13)
N10 N 0.2930(2) 0.21011(17) 0.47282(14)
N11 N 0.4045(2) 0.32322(18) 0.49334(16)
N12 N 0.1708(2) 0.37393(17) 0.49156(13)
N14 N -0.1749(2) 0.33284(18) 0.41224(16)
C9 C 0.0702(2) 0.4832(2) 0.73096(18)
C10 C -0.1502(2) 0.3668(2) 0.66163(19)
C11 C 0.1083(2) 0.4151(2) 0.89934(18)
C12 C 0.0199(2) 0.4318(2) 0.98537(18)
C13 C 0.4777(2) 0.0680(2) 0.51714(19)
C14 C 0.3313(2) 0.0753(2) 0.44668(19)
C15 C 0.1564(2) 0.2405(2) 0.47152(18)
C16 C 0.3242(2) 0.4184(2) 0.50408(19)
C18 C -0.2703(2) 0.2450(2) 0.35532(18)
H5 H 0.1663 0.5401 0.7441
H6 H -0.2419 0.3265 0.6121
H7 H 0.0641 0.1785 0.4586
H8 H 0.3698 0.5090 0.5191
H17 H 0.2013 0.4852 0.9214
H18 H 0.1357 0.3281 0.8890
H19 H -0.0753 0.3640 0.9620
H20 H 0.0822 0.4186 1.0471
H21 H 0.4629 0.0813 0.5880
H22 H 0.5606 0.1386 0.5154
H23 H 0.3433 0.0540 0.3750
H24 H 0.2470 0.0096 0.4532
Co2_2 Co 0.0000 0.5000 1.5000
Co2_3 Co 1.0000 -0.5000 0.5000
S2A S 0.40686(8) 0.87349(6) 0.72709(5)
N7A N 0.0346(2) 0.54857(17) 1.35756(14)
N7A_2 N 0.0346(2) 0.54857(17) 0.35756(14)
N8A N 0.1240(2) 0.6543(2) 1.24528(16)
N9A N -0.0199(2) 0.57697(18) 1.20120(13)
N10A N 0.7070(2) -0.21011(17) 0.52718(14)
N11A N 0.5955(2) -0.32322(18) 0.50666(16)
N12A N 0.8292(2) -0.37393(17) 0.50844(13)
N12A_2 N -0.1708(2) 0.62607(17) 0.50844(13)
N14A N 0.1749(2) 0.66716(18) 0.58776(16)
C9A C -0.0702(2) 0.5168(2) 1.26904(18)
C10A C 0.1502(2) 0.6332(2) 1.33837(19)
C11A C -0.1083(2) 0.5849(2) 1.10066(18)
C12A C -0.0199(2) 0.5682(2) 1.01463(18)
C13A C 0.5223(2) -0.0680(2) 0.48286(19)
C14A C 0.6687(2) -0.0753(2) 0.55332(19)
C15A C 0.8436(2) -0.2405(2) 0.52848(18)
C16A C 0.6758(2) -0.4184(2) 0.49592(19)
C18A C 0.2703(2) 0.7550(2) 0.64468(18)
H5A H -0.1663 0.4599 1.2559
H6A H 0.2419 0.6735 1.3879
H7A H 0.9359 -0.1785 0.5414
H8A H 0.6302 -0.5090 0.4809
H17A H -0.2013 0.5148 1.0786
H18A H -0.1357 0.6719 1.1110
H19A H 0.0753 0.6360 1.0380
H20A H -0.0822 0.5814 0.9529
H21A H 0.5371 -0.0813 0.4120
H22A H 0.4394 -0.1386 0.4846
H23A H 0.6567 -0.0540 0.6250
H24A H 0.7530 -0.0096 0.5468
loop_
_geom_bond_atom_site_label_1
_geom_bond_atom_site_label_2
_geom_bond_site_symmetry_1
_geom_bond_site_symmetry_2
Co1 N1 1_555 1_555
Co2 N7 1_555 1_555
S1 C17 1_555 1_555
S2 C18 1_555 1_555
N1 C1 1_555 1_555
N2 N3 1_555 1_555
N3 C1 1_555 1_555
N4 N5 1_555 1_555
N5 C7 1_555 1_555
N6 C7 1_555 1_555
N7 C9 1_555 1_555
N8 N9 1_555 1_555
N9 C9 1_555 1_555
N10 N11 1_555 1_555
N11 C16 1_555 1_555
N12 Co2 1_555 1_555
N13 Co1 1_555 1_555
N14 Co2 1_555 1_555
C1 H1 1_555 1_555
C2 N1 1_555 1_555
C3 N3 1_555 1_555
C4 C3 1_555 1_555
C5 C4 1_555 1_555
C6 N4 1_555 1_555
C7 H3 1_555 1_555
C8 N4 1_555 1_555
C9 H5 1_555 1_555
C10 N7 1_555 1_555
C11 N9 1_555 1_555
C12 C11 1_555 1_555
C13 C14 1_555 1_555
C14 N10 1_555 1_555
C15 N10 1_555 1_555
C16 N12 1_555 1_555
C17 N13 1_555 1_555
C18 N14 1_555 1_555
H2 C2 1_555 1_555
H4 C8 1_555 1_555
H6 C10 1_555 1_555
H7 C15 1_555 1_555
H8 C16 1_555 1_555
H9 C3 1_555 1_555
H10 C3 1_555 1_555
H11 C4 1_555 1_555
H12 C4 1_555 1_555
H13 C5 1_555 1_555
H14 C5 1_555 1_555
H15 C6 1_555 1_555
H16 C6 1_555 1_555
H17 C11 1_555 1_555
H18 C11 1_555 1_555
H19 C12 1_555 1_555
H20 C12 1_555 1_555
H21 C13 1_555 1_555
H22 C13 1_555 1_555
H23 C14 1_555 1_555
H24 C14 1_555 1_555
Co1_2 N6 1_555 1_555
Co1_3 N1_2 1_555 1_555
Co2_2 N7A 1_555 1_555
Co2_3 N12A 1_555 1_555
S1A C17A 1_555 1_555
S2A C18A 1_555 1_555
N1_2 C1_2 1_555 1_555
N1A Co1 1_555 1_555
N2_2 N3_2 1_555 1_555
N3_2 C1_2 1_555 1_555
N4_2 N5_2 1_555 1_555
N5_2 C7_2 1_555 1_555
N6_2 Co1 1_555 1_555
N6A Co1 1_555 1_555
N7A C9A 1_555 1_555
N7A_2 Co2 1_555 1_555
N8A N9A 1_555 1_555
N9A C9A 1_555 1_555
N10A N11A 1_555 1_555
N11A C16A 1_555 1_555
N12A C15A 1_555 1_555
N12A_2 Co2 1_555 1_555
N13A Co1 1_555 1_555
N14A Co2 1_555 1_555
C1_2 H1_2 1_555 1_555
C2_2 N1_2 1_555 1_555
C3_2 N3_2 1_555 1_555
C4_2 C3_2 1_555 1_555
C5_2 C4_2 1_555 1_555
C6_2 N4_2 1_555 1_555
C7_2 N6_2 1_555 1_555
C8_2 N4_2 1_555 1_555
C9A H5A 1_555 1_555
C10A N7A 1_555 1_555
C11A N9A 1_555 1_555
C12A C12 1_555 1_555
C13A C13 1_555 1_555
C14A N10A 1_555 1_555
C15A N10A 1_555 1_555
C16A N12A 1_555 1_555
C17A N13A 1_555 1_555
C18A N14A 1_555 1_555
H2_2 C2_2 1_555 1_555
H3_2 C7_2 1_555 1_555
H4_2 C8_2 1_555 1_555
H6A C10A 1_555 1_555
H7A C15A 1_555 1_555
H8A C16A 1_555 1_555
H9_2 C3_2 1_555 1_555
H10_2 C3_2 1_555 1_555
H11_2 C4_2 1_555 1_555
H12_2 C4_2 1_555 1_555
H13_2 C5_2 1_555 1_555
H14_2 C5_2 1_555 1_555
H15_2 C6_2 1_555 1_555
H16_2 C6_2 1_555 1_555
H17A C11A 1_555 1_555
H18A C11A 1_555 1_555
H19A C12A 1_555 1_555
H20A C12A 1_555 1_555
H21A C13A 1_555 1_555
H22A C13A 1_555 1_555
H23A C14A 1_555 1_555
H24A C14A 1_555 1_555
N2 C2 1_555 1_555
N6 C8 1_555 1_555
N8 C10 1_555 1_555
N12 C15 1_555 1_555
C5 C6 1_555 1_555
N2_2 C2_2 1_555 1_555
N6_2 C8_2 1_555 1_555
N8A C10A 1_555 1_555
C5_2 C6_2 1_555 1_555
C11A C12A 1_555 1_555
C13A C14A 1_555 1_555

#END
