
#######################################################################
#
#                 Cambridge Crystallographic Data Centre
#                                CCDC 
#
#######################################################################
#
# If this CIF has been generated from an entry in the Cambridge 
# Structural Database, then it will include bibliographic, chemical, 
# crystal, experimental, refinement or atomic coordinate data resulting 
# from the CCDC's data processing and validation procedures.
#
#######################################################################

data_MUFLIJ
_symmetry_cell_setting           monoclinic
_symmetry_space_group_name_H-M   'P 21/n'
_symmetry_Int_Tables_number      14
_space_group_name_Hall           '-P 2yn'
loop_
_symmetry_equiv_pos_site_id
_symmetry_equiv_pos_as_xyz
1 x,y,z
2 1/2-x,1/2+y,1/2-z
3 -x,-y,-z
4 1/2+x,1/2-y,1/2+z
_cell_length_a                   11.443(3)
_cell_length_b                   21.664(6)
_cell_length_c                   13.078(3)
_cell_angle_alpha                90
_cell_angle_beta                 106.928(5)
_cell_angle_gamma                90
_cell_volume                     3101.58
loop_
_atom_site_label
_atom_site_type_symbol
_atom_site_fract_x
_atom_site_fract_y
_atom_site_fract_z
Cd1 Cd 1.10319(4) 0.069290(18) -0.06249(3)
N1 N 1.2707(4) 0.0263(2) 0.0608(3)
N2 N 1.6120(4) -0.0340(2) 0.2488(3)
H1 H 1.6435 -0.0600 0.2148
N3 N 1.6443(4) 0.0187(2) 0.4099(4)
N4 N 0.9436(4) 0.1207(2) -0.1820(3)
N5 N 0.6664(4) 0.2165(2) -0.4080(3)
H2 H 0.6865 0.2536 -0.4194
N6 N 0.5186(5) 0.1381(2) -0.4542(4)
O1 O 0.9925(4) 0.0721(2) 0.0526(3)
O2 O 0.9415(4) 0.01231(18) 0.1699(3)
O3 O 0.7506(3) 0.39038(17) 0.3575(3)
O4 O 0.7237(4) 0.32744(17) 0.4809(3)
C1 C 0.9791(5) 0.0626(3) 0.1429(4)
C2 C 1.0065(5) 0.1148(2) 0.2235(4)
H3 H 1.0630 0.1432 0.2056
H4 H 1.0464 0.0980 0.2938
C3 C 0.8920(5) 0.1507(2) 0.2282(4)
C4 C 0.9345(5) 0.2066(2) 0.3064(4)
H5 H 0.9784 0.1912 0.3767
H6 H 0.9901 0.2322 0.2813
C5 C 0.8258(5) 0.2458(2) 0.3143(4)
C6 C 0.7376(5) 0.2054(2) 0.3492(4)
H7 H 0.6673 0.2298 0.3514
H8 H 0.7766 0.1903 0.4209
C7 C 0.6940(5) 0.1496(3) 0.2732(4)
H9 H 0.6378 0.1237 0.2985
C8 C 0.8035(5) 0.1127(2) 0.2677(4)
H10 H 0.7764 0.0778 0.2203
H11 H 0.8451 0.0968 0.3382
C9 C 0.8257(5) 0.1777(3) 0.1184(4)
H12 H 0.7976 0.1444 0.0676
H13 H 0.8822 0.2028 0.0935
C10 C 0.7158(5) 0.2175(3) 0.1230(4)
H14 H 0.6738 0.2340 0.0520
C11 C 0.6295(5) 0.1760(3) 0.1624(5)
H15 H 0.6013 0.1424 0.1122
H16 H 0.5588 0.1997 0.1657
C12 C 0.7620(5) 0.2692(2) 0.2009(4)
H17 H 0.6940 0.2954 0.2028
H18 H 0.8191 0.2941 0.1763
C13 C 0.8735(5) 0.2981(2) 0.3946(4)
H19 H 0.9319 0.3221 0.3704
H20 H 0.9171 0.2799 0.4628
C14 C 0.7758(5) 0.3423(3) 0.4125(4)
C15 C 1.3359(5) -0.0144(3) 0.0294(4)
H21 H 1.3057 -0.0297 -0.0398
C16 C 1.4457(5) -0.0364(3) 0.0908(4)
H22 H 1.4858 -0.0671 0.0643
C17 C 1.4973(5) -0.0129(2) 0.1927(4)
C18 C 1.4293(5) 0.0284(3) 0.2277(4)
H23 H 1.4569 0.0435 0.2971
C19 C 1.3195(5) 0.0481(3) 0.1608(5)
H24 H 1.2764 0.0781 0.1858
C20 C 1.6851(5) -0.0199(3) 0.3518(4)
C21 C 1.7989(6) -0.0496(3) 0.3868(5)
H25 H 1.8255 -0.0769 0.3435
C22 C 1.8691(6) -0.0357(3) 0.4896(5)
H26 H 1.9454 -0.0541 0.5160
C23 C 1.8306(7) 0.0034(3) 0.5523(5)
H27 H 1.8776 0.0126 0.6215
C24 C 1.7181(7) 0.0289(3) 0.5082(5)
H28 H 1.6900 0.0560 0.5509
C25 C 0.9639(5) 0.1624(3) -0.2490(4)
H29 H 1.0450 0.1705 -0.2448
C26 C 0.8761(5) 0.1949(3) -0.3240(4)
H30 H 0.8978 0.2244 -0.3668
C27 C 0.7541(5) 0.1823(3) -0.3341(4)
C28 C 0.7293(5) 0.1372(3) -0.2668(4)
H31 H 0.6493 0.1260 -0.2718
C29 C 0.8261(5) 0.1098(2) -0.1930(4)
H32 H 0.8080 0.0811 -0.1468
C30 C 0.5496(5) 0.1976(3) -0.4657(4)
C31 C 0.4756(5) 0.2380(3) -0.5359(4)
H33 H 0.5025 0.2779 -0.5433
C32 C 0.3622(6) 0.2193(3) -0.5950(5)
H34 H 0.3085 0.2466 -0.6403
C33 C 0.3291(6) 0.1579(4) -0.5854(5)
H35 H 0.2546 0.1426 -0.6272
C34 C 0.4084(7) 0.1214(3) -0.5137(6)
H36 H 0.3835 0.0813 -0.5056
Cd1B Cd 0.89681(4) -0.069290(18) 0.06249(3)
Cd1C Cd 0.60319(4) 0.430710(18) 0.43751(3)
O2B O 1.0585(4) -0.01231(18) -0.1699(3)
O3C O 1.2506(3) 0.10962(17) -0.1425(3)
O4C O 1.2237(4) 0.17256(17) -0.0191(3)
loop_
_geom_bond_atom_site_label_1
_geom_bond_atom_site_label_2
_geom_bond_site_symmetry_1
_geom_bond_site_symmetry_2
Cd1 N1 1_555 1_555
N1 C15 1_555 1_555
N2 H1 1_555 1_555
N3 C20 1_555 1_555
N4 Cd1 1_555 1_555
N5 H2 1_555 1_555
N6 C30 1_555 1_555
O1 Cd1 1_555 1_555
O2 C1 1_555 1_555
O3 C14 1_555 1_555
O4 C14 1_555 1_555
C1 O1 1_555 1_555
C2 C1 1_555 1_555
H3 C2 1_555 1_555
H4 C2 1_555 1_555
C3 C2 1_555 1_555
C4 C3 1_555 1_555
H5 C4 1_555 1_555
H6 C4 1_555 1_555
C5 C4 1_555 1_555
C6 C5 1_555 1_555
H7 C6 1_555 1_555
H8 C6 1_555 1_555
C7 C6 1_555 1_555
H9 C7 1_555 1_555
C8 C3 1_555 1_555
H10 C8 1_555 1_555
H11 C8 1_555 1_555
C9 C3 1_555 1_555
H12 C9 1_555 1_555
H13 C9 1_555 1_555
C10 C9 1_555 1_555
H14 C10 1_555 1_555
C11 C7 1_555 1_555
H15 C11 1_555 1_555
H16 C11 1_555 1_555
C12 C5 1_555 1_555
H17 C12 1_555 1_555
H18 C12 1_555 1_555
C13 C5 1_555 1_555
H19 C13 1_555 1_555
H20 C13 1_555 1_555
C14 C13 1_555 1_555
C15 H21 1_555 1_555
C16 C15 1_555 1_555
H22 C16 1_555 1_555
C17 N2 1_555 1_555
C18 C17 1_555 1_555
H23 C18 1_555 1_555
C19 N1 1_555 1_555
H24 C19 1_555 1_555
C20 N2 1_555 1_555
C21 C20 1_555 1_555
H25 C21 1_555 1_555
C22 C21 1_555 1_555
H26 C22 1_555 1_555
C23 C22 1_555 1_555
H27 C23 1_555 1_555
C24 N3 1_555 1_555
H28 C24 1_555 1_555
C25 N4 1_555 1_555
H29 C25 1_555 1_555
C26 C25 1_555 1_555
H30 C26 1_555 1_555
C27 N5 1_555 1_555
C28 C27 1_555 1_555
H31 C28 1_555 1_555
C29 N4 1_555 1_555
H32 C29 1_555 1_555
C30 N5 1_555 1_555
C31 C30 1_555 1_555
H33 C31 1_555 1_555
C32 C31 1_555 1_555
H34 C32 1_555 1_555
C33 C32 1_555 1_555
H35 C33 1_555 1_555
C34 N6 1_555 1_555
H36 C34 1_555 1_555
Cd1B O2 1_555 1_555
Cd1C O3 1_555 1_555
O2B Cd1 1_555 1_555
O3C Cd1 1_555 1_555
O4C Cd1 1_555 1_555
O4 Cd1C 1_555 1_555
C7 C8 1_555 1_555
C10 C11 1_555 1_555
C10 C12 1_555 1_555
C16 C17 1_555 1_555
C18 C19 1_555 1_555
C23 C24 1_555 1_555
C26 C27 1_555 1_555
C28 C29 1_555 1_555
C33 C34 1_555 1_555

#END
