
#######################################################################
#
#                 Cambridge Crystallographic Data Centre
#                                CCDC 
#
#######################################################################
#
# If this CIF has been generated from an entry in the Cambridge 
# Structural Database, then it will include bibliographic, chemical, 
# crystal, experimental, refinement or atomic coordinate data resulting 
# from the CCDC's data processing and validation procedures.
#
#######################################################################

data_MUFNOS
_symmetry_cell_setting           orthorhombic
_symmetry_space_group_name_H-M   'P 21 21 21'
_symmetry_Int_Tables_number      19
_space_group_name_Hall           'P 2ac 2ab'
loop_
_symmetry_equiv_pos_site_id
_symmetry_equiv_pos_as_xyz
1 x,y,z
2 1/2-x,-y,1/2+z
3 -x,1/2+y,1/2-z
4 1/2+x,1/2-y,-z
_cell_length_a                   18.333(4)
_cell_length_b                   24.500(5)
_cell_length_c                   25.269(5)
_cell_angle_alpha                90
_cell_angle_beta                 90
_cell_angle_gamma                90
_cell_volume                     11349.8
loop_
_atom_site_label
_atom_site_type_symbol
_atom_site_fract_x
_atom_site_fract_y
_atom_site_fract_z
Na1 Na 0.484(3) 0.445(3) 0.942(2)
Na2 Na 0.464(3) 0.449(3) 1.073(2)
Na3 Na 0.967(4) 0.284(4) 0.814(3)
Na4 Na 0.876(4) 0.154(3) 0.922(3)
Na5 Na 0.627(4) 0.153(3) 0.835(2)
W1 W 0.74603(13) 0.24669(11) 1.00812(8)
W2 W 0.74301(14) 0.34955(11) 1.09311(8)
W3 W 0.60329(14) 0.33486(11) 1.01240(9)
W4 W 0.77296(15) 0.38970(11) 0.81333(9)
W5 W 0.45182(15) 0.06790(11) 1.13054(9)
W6 W 0.76230(14) 0.26646(11) 0.86605(9)
W7 W 0.67801(15) 0.47590(11) 1.02921(9)
W8 W 0.42742(14) 0.09322(11) 0.93087(8)
W9 W 0.61885(14) 0.35452(12) 0.86911(9)
W10 W 0.70097(16) 0.04924(13) 0.93607(11)
W11 W 0.68927(15) 0.49353(11) 0.89973(9)
W12 W 0.71886(16) 0.03295(14) 1.07874(11)
W13 W 0.56093(18) -0.00198(13) 0.86787(11)
W14 W 0.59934(18) -0.03530(14) 1.15293(11)
W15 W 0.47812(19) -0.11724(14) 0.93965(13)
W16 W 0.49398(19) -0.13117(14) 1.07053(14)
W17 W 0.6771(2) -0.08698(14) 0.92239(13)
W18 W 0.69508(19) -0.10364(14) 1.06606(15)
Sb1 Sb 0.7973(2) 0.37639(17) 0.95568(13)
Sb2 Sb 0.5532(2) 0.00453(19) 1.01456(15)
Pr1 Pr 0.58858(19) 0.16150(15) 1.02790(12)
Pr2 Pr 0.8493(2) 0.53891(17) 0.97837(13)
O1 O 0.5349(17) 0.0267(14) 1.1410(11)
O2 O 0.4952(17) 0.1158(14) 1.0930(11)
O3 O 0.4056(17) 0.0229(14) 1.0838(10)
O4 O 0.661(2) -0.093(2) 1.1403(17)
O5 O 0.533(2) 0.0060(19) 0.8046(13)
O6 O 0.743(2) 0.0343(19) 1.0020(15)
O7 O 0.498(2) -0.054(2) 0.8923(15)
O8 O 0.592(2) -0.040(2) 1.2187(16)
O9 O 0.7122(19) -0.0978(16) 0.9885(13)
O10 O 0.757(2) -0.042(2) 1.0838(15)
O11 O 0.748(2) 0.3541(17) 1.1590(13)
O12 O 0.402(2) -0.1124(18) 1.0790(14)
O13 O 0.383(2) -0.101(2) 0.9490(16)
O14 O 0.796(2) 0.0629(19) 1.1010(15)
O15 O 0.4932(17) -0.0614(14) 1.0114(12)
O16 O 0.737(2) -0.0239(19) 0.9147(14)
O17 O 0.786(2) 0.3129(17) 0.8032(13)
O18 O 0.493(2) -0.189(2) 1.1087(16)
O19 O 0.4894(19) -0.1620(16) 1.0004(14)
O20 O 0.5131(18) 0.0526(15) 0.9023(11)
O21 O 0.680(2) 0.0120(17) 1.1492(13)
O22 O 0.617(2) 0.4101(18) 1.0121(14)
O23 O 0.761(2) 0.2077(17) 0.8355(13)
O24 O 0.610(2) -0.0109(19) 0.9457(14)
O25 O 0.6287(19) 0.5262(16) 0.8591(11)
O26 O 0.654(2) 0.0875(19) 1.0734(16)
O27 O 0.631(2) -0.0614(18) 0.8566(15)
O28 O 0.611(2) -0.1308(18) 1.0560(14)
O29 O 0.849(2) 0.2754(19) 0.8836(15)
O30 O 0.6277(17) -0.0274(14) 1.0649(12)
O31 O 0.6423(19) 0.0438(16) 0.8715(13)
O32 O 0.3920(19) 0.0372(16) 0.9682(12)
O33 O 0.6282(17) 0.4249(14) 0.8942(10)
O34 O 0.524(2) -0.0809(19) 1.1195(15)
O35 O 0.7927(19) 0.4108(15) 0.7532(12)
O36 O 0.7476(16) 0.4565(13) 0.8488(10)
O37 O 0.6561(18) 0.2840(15) 0.8510(11)
O38 O 0.770(2) 0.0869(18) 0.9112(13)
O39 O 0.5126(17) 0.3273(14) 1.0275(12)
O40 O 0.6136(17) 0.5001(15) 1.0713(12)
O41 O 0.7520(16) 0.4484(14) 0.9629(9)
O42 O 0.5339(17) 0.3534(15) 0.8413(11)
O43 O 0.670(2) 0.3776(17) 0.8066(13)
O44 O 0.3446(18) 0.1381(15) 0.9308(13)
O45 O 0.7274(16) 0.1783(13) 1.0258(11)
O46 O 0.724(2) 0.4288(17) 1.0720(13)
O47 O 0.762(2) 0.5426(19) 0.9070(14)
O48 O 0.4771(17) 0.1298(14) 0.9759(11)
O49 O 0.6284(19) 0.2619(16) 1.0175(13)
O50 O 0.743(2) 0.5300(18) 1.0367(13)
O51 O 0.636(2) 0.5056(16) 0.9676(13)
O52 O 0.5963(16) 0.3289(13) 0.9370(10)
O53 O 0.7268(16) 0.3374(13) 1.0027(10)
O54 O 0.8411(18) 0.2490(14) 1.0062(11)
O55 O 0.7268(19) 0.2449(15) 0.9306(13)
O56 O 0.7605(17) 0.2725(13) 1.0841(10)
O57 O 0.738(2) 0.3534(17) 0.8897(12)
O58 O 0.6398(18) 0.3382(15) 1.0876(11)
O59 O 0.3661(17) 0.1035(14) 1.1522(11)
O60 O 0.463(3) -0.167(2) 0.8974(17)
O61 O 0.6434(19) 0.0971(16) 0.9615(13)
O62 O 0.724(2) -0.1338(18) 0.8879(13)
O63 O 0.751(2) -0.157(2) 1.0833(16)
O64 O 0.589(2) -0.1218(19) 0.9375(15)
O65 O 0.616(2) 0.200(2) 1.1151(15)
O66 O 0.5789(19) 0.2059(16) 0.9322(14)
O67 O 0.4811(18) 0.2241(15) 1.0502(12)
O68 O 0.771(3) 0.639(2) 0.9777(17)
O69 O 0.486(2) 0.1010(16) 1.2056(12)
O70 O 0.538(3) 0.088(3) 1.282(2)
N1 N 0.4158(17) 0.0137(13) 1.2031(10)
C1 C 0.4377(18) 0.0284(12) 1.2540(13)
C2 C 0.419(2) -0.0042(15) 1.2971(9)
H1 H 0.4331 0.0055 1.3310
C3 C 0.377(2) -0.0515(14) 1.2892(11)
H2 H 0.3647 -0.0732 1.3180
C4 C 0.3556(18) -0.0662(12) 1.2383(13)
H3 H 0.3282 -0.0977 1.2331
C5 C 0.3747(17) -0.0336(14) 1.1952(9)
H4 H 0.3602 -0.0434 1.1612
C6 C 0.478(3) 0.0773(18) 1.2531(15)
O71 O 0.458(2) 0.1428(18) 0.8688(14)
O72 O 0.458(2) 0.160(2) 0.7767(14)
N2 N 0.3778(19) 0.0545(16) 0.8589(11)
C7 C 0.395(2) 0.0846(13) 0.8137(15)
C8 C 0.370(2) 0.0676(16) 0.7643(12)
H5 H 0.3810 0.0876 0.7342
C9 C 0.327(2) 0.0206(17) 0.7602(11)
H6 H 0.3100 0.0093 0.7273
C10 C 0.310(2) -0.0094(14) 0.8054(15)
H7 H 0.2813 -0.0407 0.8027
C11 C 0.335(2) 0.0075(15) 0.8548(11)
H8 H 0.3237 -0.0125 0.8850
C12 C 0.431(4) 0.135(2) 0.8198(15)
W2C W 0.24301(14) 0.15045(11) 0.90689(8)
W4C W 0.27296(15) 0.11030(11) 1.18667(9)
Pr2C Pr 0.3493(2) -0.03891(17) 1.02163(13)
O3C O 0.9056(17) 0.4771(14) 0.9162(10)
O12C O 0.902(2) 0.6124(18) 0.9210(14)
O13C O 0.883(2) 0.601(2) 1.0510(16)
O15C O 0.9932(17) 0.5614(14) 0.9886(12)
O32C O 0.8920(19) 0.4628(16) 1.0318(12)
O44C O 0.8446(18) 0.3619(15) 1.0692(13)
O59C O 0.8661(17) 0.3965(14) 0.8478(11)
O73? O 0.484(4) 0.098(3) 1.302(2)
loop_
_geom_bond_atom_site_label_1
_geom_bond_atom_site_label_2
_geom_bond_site_symmetry_1
_geom_bond_site_symmetry_2
W1 O45 1_555 1_555
W2 O11 1_555 1_555
W3 O22 1_555 1_555
W4 O17 1_555 1_555
W5 O1 1_555 1_555
W6 O17 1_555 1_555
W7 O22 1_555 1_555
W8 O20 1_555 1_555
W9 O33 1_555 1_555
W10 O6 1_555 1_555
W11 O25 1_555 1_555
W12 O6 1_555 1_555
W13 O5 1_555 1_555
W14 O1 1_555 1_555
W15 O7 1_555 1_555
W16 O12 1_555 1_555
W17 O9 1_555 1_555
W18 O4 1_555 1_555
Sb1 O41 1_555 1_555
Sb2 O15 1_555 1_555
Pr1 O2 1_555 1_555
Pr2 O41 1_555 1_555
O2 W5 1_555 1_555
O3 W5 1_555 1_555
O4 W14 1_555 1_555
O7 W13 1_555 1_555
O8 W14 1_555 1_555
O9 W18 1_555 1_555
O10 W12 1_555 1_555
O12 Pr2C 1_555 1_555
O13 W15 1_555 1_555
O14 W12 1_555 1_555
O15 W15 1_555 1_555
O16 W10 1_555 1_555
O18 W16 1_555 1_555
O19 W15 1_555 1_555
O20 W13 1_555 1_555
O21 W12 1_555 1_555
O23 W6 1_555 1_555
O24 W10 1_555 1_555
O26 W12 1_555 1_555
O27 W13 1_555 1_555
O28 W16 1_555 1_555
O29 W6 1_555 1_555
O30 W12 1_555 1_555
O31 W10 1_555 1_555
O32 W8 1_555 1_555
O33 W11 1_555 1_555
O34 W14 1_555 1_555
O35 W4 1_555 1_555
O36 W4 1_555 1_555
O37 W6 1_555 1_555
O38 W10 1_555 1_555
O39 W3 1_555 1_555
O40 W7 1_555 1_555
O41 W7 1_555 1_555
O42 W9 1_555 1_555
O43 W4 1_555 1_555
O44 W8 1_555 1_555
O45 Pr1 1_555 1_555
O46 W2 1_555 1_555
O47 W11 1_555 1_555
O48 W8 1_555 1_555
O49 W1 1_555 1_555
O50 W7 1_555 1_555
O51 W7 1_555 1_555
O52 W3 1_555 1_555
O53 W1 1_555 1_555
O54 W1 1_555 1_555
O55 W1 1_555 1_555
O56 W1 1_555 1_555
O57 W4 1_555 1_555
O58 W2 1_555 1_555
O59 W5 1_555 1_555
O60 W15 1_555 1_555
O61 W10 1_555 1_555
O62 W17 1_555 1_555
O63 W18 1_555 1_555
O64 W15 1_555 1_555
O65 Pr1 1_555 1_555
O66 Pr1 1_555 1_555
O67 Pr1 1_555 1_555
O68 Pr2 1_555 1_555
O69 W5 1_555 1_555
O70 C6 1_555 1_555
N1 W5 1_555 1_555
C1 N1 1_555 1_555
C2 C1 1_555 1_555
H1 C2 1_555 1_555
C3 C2 1_555 1_555
H2 C3 1_555 1_555
C4 C3 1_555 1_555
H3 C4 1_555 1_555
C5 N1 1_555 1_555
H4 C5 1_555 1_555
C6 O69 1_555 1_555
O71 W8 1_555 1_555
O72 C12 1_555 1_555
N2 W8 1_555 1_555
C7 N2 1_555 1_555
C8 C7 1_555 1_555
H5 C8 1_555 1_555
C9 C8 1_555 1_555
H6 C9 1_555 1_555
C10 C9 1_555 1_555
H7 C10 1_555 1_555
C11 N2 1_555 1_555
H8 C11 1_555 1_555
C12 O71 1_555 1_555
W2C O44 1_555 1_555
W4C O59 1_555 1_555
Pr2C O3 1_555 1_555
O3C Pr2 1_555 1_555
O12C Pr2 1_555 1_555
O13C Pr2 1_555 1_555
O15C Pr2 1_555 1_555
O32C Pr2 1_555 1_555
O44C W2 1_555 1_555
O59C W4 1_555 1_555
W2 O53 1_555 1_555
W2 O56 1_555 1_555
W3 O49 1_555 1_555
W3 O53 1_555 1_555
W3 O58 1_555 1_555
W6 O55 1_555 1_555
W6 O57 1_555 1_555
W7 O46 1_555 1_555
W9 O37 1_555 1_555
W9 O43 1_555 1_555
W9 O52 1_555 1_555
W9 O57 1_555 1_555
W11 O36 1_555 1_555
W11 O41 1_555 1_555
W11 O51 1_555 1_555
W13 O24 1_555 1_555
W13 O31 1_555 1_555
W14 O21 1_555 1_555
W14 O30 1_555 1_555
W16 O15 1_555 1_555
W16 O19 1_555 1_555
W16 O34 1_555 1_555
W17 O16 1_555 1_555
W17 O24 1_555 1_555
W17 O27 1_555 1_555
W17 O64 1_555 1_555
W18 O10 1_555 1_555
W18 O28 1_555 1_555
W18 O30 1_555 1_555
Sb1 O53 1_555 1_555
Sb1 O57 1_555 1_555
Sb2 O24 1_555 1_555
Sb2 O30 1_555 1_555
Pr1 O26 1_555 1_555
Pr1 O48 1_555 1_555
Pr1 O49 1_555 1_555
Pr1 O61 1_555 1_555
Pr2 O47 1_555 1_555
Pr2 O50 1_555 1_555
O13 Pr2C 1_555 1_555
O15 Pr2C 1_555 1_555
O32 Pr2C 1_555 1_555
C1 C6 1_555 1_555
C4 C5 1_555 1_555
C7 C12 1_555 1_555
C10 C11 1_555 1_555

#END
