
#######################################################################
#
#                 Cambridge Crystallographic Data Centre
#                                CCDC 
#
#######################################################################
#
# If this CIF has been generated from an entry in the Cambridge 
# Structural Database, then it will include bibliographic, chemical, 
# crystal, experimental, refinement or atomic coordinate data resulting 
# from the CCDC's data processing and validation procedures.
#
#######################################################################

data_MUFNUY
_symmetry_cell_setting           orthorhombic
_symmetry_space_group_name_H-M   'P 21 21 21'
_symmetry_Int_Tables_number      19
_space_group_name_Hall           'P 2ac 2ab'
loop_
_symmetry_equiv_pos_site_id
_symmetry_equiv_pos_as_xyz
1 x,y,z
2 1/2-x,-y,1/2+z
3 -x,1/2+y,1/2-z
4 1/2+x,1/2-y,-z
_cell_length_a                   18.6089(17)
_cell_length_b                   24.713(2)
_cell_length_c                   25.418(2)
_cell_angle_alpha                90
_cell_angle_beta                 90
_cell_angle_gamma                90
_cell_volume                     11689.3
loop_
_atom_site_label
_atom_site_type_symbol
_atom_site_fract_x
_atom_site_fract_y
_atom_site_fract_z
Na1 Na 0.465(2) 0.2217(17) 1.1816(16)
Na2 Na 0.884(2) 0.1553(19) 0.8997(17)
Na3 Na 0.483(2) 0.4479(17) 0.9383(16)
Na4 Na 0.6128(18) 0.1506(14) 0.8373(13)
Na5 Na 0.505(3) 0.483(2) 0.7934(18)
Na6 Na 0.646(2) 0.1281(19) 1.2004(16)
Na7 Na 0.469(2) 0.4445(18) 1.0725(17)
O73 O 0.819(2) 0.1127(18) 0.8292(17)
O74 O 0.565(3) 0.237(2) 0.772(2)
O75 O 0.773(3) 0.187(2) 1.1516(19)
O76 O 0.393(3) 0.411(3) 0.816(2)
O77 O 0.860(2) 0.1252(17) 1.0102(16)
O78 O 0.370(3) 0.511(2) 1.007(2)
O79 O 0.415(4) 0.275(3) 0.795(2)
O80 O 0.536(2) 0.3351(19) 1.1604(17)
O81 O 0.784(3) 0.304(2) 1.246(2)
O82 O 0.521(4) 0.575(3) 0.960(3)
O83 O 0.580(3) 0.379(2) 0.717(2)
O84 O 0.819(4) 0.156(3) 0.731(3)
O85 O 0.556(4) 0.641(3) 0.840(3)
W1 W 0.73737(7) 0.24867(6) 1.00844(6)
W2 W 0.73511(8) 0.35329(6) 1.09052(5)
W3 W 0.59787(8) 0.33793(6) 1.00990(6)
W4 W 0.76794(8) 0.38545(7) 0.81147(6)
W5 W 0.44496(8) 0.07256(7) 1.13359(6)
W6 W 0.75501(8) 0.26437(6) 0.86686(6)
W7 W 0.67349(8) 0.47761(6) 1.02391(6)
W8 W 0.41922(8) 0.09251(6) 0.93392(6)
W9 W 0.61488(8) 0.35293(7) 0.86666(6)
W10 W 0.69086(9) 0.05207(7) 0.93974(7)
W11 W 0.68551(9) 0.49187(6) 0.89418(6)
W12 W 0.70808(9) 0.03959(8) 1.08245(7)
W13 W 0.55387(10) -0.00253(8) 0.87416(7)
W14 W 0.59186(10) -0.02793(8) 1.15721(7)
W15 W 0.47504(11) -0.11664(8) 0.94741(8)
W16 W 0.49120(11) -0.12710(8) 1.07786(8)
W17 W 0.67021(11) -0.08409(8) 0.92947(8)
W18 W 0.68897(11) -0.09673(8) 1.07300(9)
Sb1 Sb 0.79025(12) 0.37609(10) 0.95342(9)
Sb2 Sb 0.54555(14) 0.00714(11) 1.01902(10)
La1 La 0.57840(11) 0.16576(9) 1.02853(8)
La2 La 0.84396(13) 0.53872(10) 0.97220(9)
O1 O 0.5260(12) 0.0316(9) 1.1428(8)
O2 O 0.4831(12) 0.1203(9) 1.0980(8)
O3 O 0.4028(11) 0.0295(9) 1.0896(8)
O4 O 0.6542(14) -0.0855(11) 1.1460(10)
O5 O 0.5238(12) 0.0029(10) 0.8098(8)
O6 O 0.7257(13) 0.0366(9) 1.0076(10)
O7 O 0.4938(13) -0.0559(10) 0.9027(9)
O8 O 0.5789(14) -0.0350(11) 1.2215(11)
O9 O 0.7040(13) -0.0910(9) 0.9986(11)
O10 O 0.7453(13) -0.0368(11) 1.0860(10)
O11 O 0.7438(12) 0.3596(9) 1.1571(8)
O12 O 0.3954(14) -0.1126(10) 1.0814(10)
O13 O 0.3821(13) -0.1053(11) 0.9577(11)
O14 O 0.7859(12) 0.0753(12) 1.1038(10)
O15 O 0.4878(12) -0.0610(8) 1.0163(9)
O16 O 0.7257(14) -0.0248(11) 0.9184(11)
O17 O 0.7800(13) 0.3112(10) 0.8037(9)
O18 O 0.4925(14) -0.1865(11) 1.1157(11)
O19 O 0.4875(13) -0.1613(11) 1.0116(11)
O20 O 0.4960(12) 0.0499(10) 0.9098(9)
O21 O 0.6665(12) 0.0205(11) 1.1527(9)
O22 O 0.6126(10) 0.4102(8) 1.0057(8)
O23 O 0.7505(15) 0.2020(9) 0.8365(9)
O24 O 0.6087(14) -0.0090(10) 0.9555(9)
O25 O 0.6298(12) 0.5276(9) 0.8545(8)
O26 O 0.6432(11) 0.0887(9) 1.0760(9)
O27 O 0.6204(13) -0.0633(10) 0.8652(9)
O28 O 0.5988(13) -0.1291(10) 1.0640(10)
O29 O 0.8416(12) 0.2715(10) 0.8906(9)
O30 O 0.6197(11) -0.0211(9) 1.0702(9)
O31 O 0.6331(13) 0.0478(9) 0.8732(8)
O32 O 0.3815(12) 0.0394(9) 0.9739(8)
O33 O 0.6219(12) 0.4207(9) 0.8920(8)
O34 O 0.5203(11) -0.0742(9) 1.1285(9)
O35 O 0.7908(11) 0.4042(9) 0.7486(8)
O36 O 0.7455(11) 0.4526(8) 0.8455(8)
O37 O 0.6494(10) 0.2833(8) 0.8498(8)
O38 O 0.7574(14) 0.0909(11) 0.9121(10)
O39 O 0.5057(12) 0.3339(10) 1.0268(10)
O40 O 0.6078(11) 0.5028(9) 1.0648(8)
O41 O 0.7433(11) 0.4439(8) 0.9601(8)
O42 O 0.5304(11) 0.3492(10) 0.8373(9)
O43 O 0.6695(11) 0.3764(11) 0.8005(8)
O44 O 0.3364(11) 0.1361(8) 0.9337(8)
O45 O 0.7188(10) 0.1832(8) 1.0287(8)
O46 O 0.7214(11) 0.4282(8) 1.0692(8)
O47 O 0.7501(12) 0.5427(8) 0.9043(8)
O48 O 0.4662(12) 0.1316(9) 0.9777(8)
O49 O 0.6271(9) 0.2633(8) 1.0184(8)
O50 O 0.7361(12) 0.5280(9) 1.0301(8)
O51 O 0.6346(12) 0.5050(9) 0.9576(9)
O52 O 0.5922(10) 0.3284(8) 0.9378(7)
O53 O 0.7223(10) 0.3377(8) 1.0015(7)
O54 O 0.8302(10) 0.2515(9) 1.0016(8)
O55 O 0.7188(11) 0.2473(9) 0.9378(9)
O56 O 0.7475(11) 0.2788(9) 1.0823(7)
O57 O 0.7362(11) 0.3492(9) 0.8913(8)
O58 O 0.6339(10) 0.3464(8) 1.0824(8)
O59 O 0.3606(10) 0.1095(8) 1.1543(7)
O60 O 0.4675(14) -0.1683(10) 0.9005(11)
O61 O 0.6319(12) 0.1032(9) 0.9672(8)
O62 O 0.7212(14) -0.1347(11) 0.8986(11)
O63 O 0.7461(14) -0.1486(10) 1.0911(11)
O64 O 0.5869(14) -0.1206(10) 0.9442(12)
O65 O 0.6075(13) 0.2090(11) 1.1200(9)
O66 O 0.5694(11) 0.2077(9) 0.9322(8)
O67 O 0.4724(11) 0.2297(9) 1.0450(8)
O68 O 0.7647(16) 0.6348(11) 0.9766(11)
O69 O 0.4823(14) 0.1072(11) 1.2058(10)
O70 O 0.4903(16) 0.1041(11) 1.2914(10)
N1 N 0.4138(11) 0.0150(9) 1.2004(8)
C1 C 0.4334(12) 0.0338(8) 1.2488(9)
C2 C 0.4158(14) 0.0053(11) 1.2929(8)
H1 H 0.4291 0.0182 1.3259
C3 C 0.3785(14) -0.0421(12) 1.2887(9)
H2 H 0.3665 -0.0615 1.3188
C4 C 0.3589(12) -0.0610(10) 1.2403(11)
H3 H 0.3336 -0.0933 1.2374
C5 C 0.3765(12) -0.0325(9) 1.1962(8)
H4 H 0.3632 -0.0453 1.1632
C6 C 0.470(2) 0.0822(11) 1.2484(11)
O71 O 0.4481(11) 0.1405(9) 0.8626(8)
O72 O 0.467(2) 0.137(2) 0.7781(15)
N2 N 0.3725(10) 0.0512(8) 0.8579(7)
C7 C 0.3880(11) 0.0770(8) 0.8140(8)
C8 C 0.3614(12) 0.0599(9) 0.7689(8)
H5 H 0.3724 0.0781 0.7379
C9 C 0.3193(12) 0.0171(10) 0.7678(8)
H6 H 0.3006 0.0050 0.7360
C10 C 0.3038(12) -0.0087(9) 0.8117(9)
H7 H 0.2741 -0.0389 0.8109
C11 C 0.3304(11) 0.0084(9) 0.8568(7)
H8 H 0.3194 -0.0098 0.8878
C12 C 0.4267(17) 0.1263(14) 0.8169(9)
W2C W 0.23511(8) 0.14671(6) 0.90948(5)
W4C W 0.26794(8) 0.11455(7) 1.18853(6)
La2C La 0.34396(13) -0.03872(10) 1.02780(9)
O3C O 0.9028(11) 0.4705(9) 0.9104(8)
O12C O 0.8954(14) 0.6126(10) 0.9186(10)
O13C O 0.8821(13) 0.6053(11) 1.0423(11)
O15C O 0.9878(12) 0.5610(8) 0.9837(9)
O32C O 0.8815(12) 0.4606(9) 1.0261(8)
O44C O 0.8364(11) 0.3639(8) 1.0663(8)
O59C O 0.8606(10) 0.3905(8) 0.8457(7)
O86? O 0.437(3) 0.1613(16) 0.7814(16)
loop_
_geom_bond_atom_site_label_1
_geom_bond_atom_site_label_2
_geom_bond_site_symmetry_1
_geom_bond_site_symmetry_2
W1 O45 1_555 1_555
W2 O11 1_555 1_555
W3 O22 1_555 1_555
W4 O17 1_555 1_555
W5 O1 1_555 1_555
W6 O17 1_555 1_555
W7 O22 1_555 1_555
W8 O20 1_555 1_555
W9 O33 1_555 1_555
W10 O6 1_555 1_555
W11 O25 1_555 1_555
W12 O6 1_555 1_555
W13 O5 1_555 1_555
W14 O1 1_555 1_555
W15 O7 1_555 1_555
W16 O12 1_555 1_555
W17 O9 1_555 1_555
W18 O4 1_555 1_555
Sb1 O41 1_555 1_555
Sb2 O15 1_555 1_555
La1 O2 1_555 1_555
La2 O47 1_555 1_555
O2 W5 1_555 1_555
O3 W5 1_555 1_555
O4 W14 1_555 1_555
O7 W13 1_555 1_555
O8 W14 1_555 1_555
O9 W18 1_555 1_555
O10 W12 1_555 1_555
O12 La2C 1_555 1_555
O13 W15 1_555 1_555
O14 W12 1_555 1_555
O15 W15 1_555 1_555
O16 W10 1_555 1_555
O18 W16 1_555 1_555
O19 W15 1_555 1_555
O20 W13 1_555 1_555
O21 W12 1_555 1_555
O23 W6 1_555 1_555
O24 W10 1_555 1_555
O26 W12 1_555 1_555
O27 W13 1_555 1_555
O28 W16 1_555 1_555
O29 W6 1_555 1_555
O30 W12 1_555 1_555
O31 W10 1_555 1_555
O32 W8 1_555 1_555
O33 W11 1_555 1_555
O34 W14 1_555 1_555
O35 W4 1_555 1_555
O36 W4 1_555 1_555
O37 W6 1_555 1_555
O38 W10 1_555 1_555
O39 W3 1_555 1_555
O40 W7 1_555 1_555
O41 W7 1_555 1_555
O42 W9 1_555 1_555
O43 W4 1_555 1_555
O44 W8 1_555 1_555
O45 La1 1_555 1_555
O46 W2 1_555 1_555
O47 W11 1_555 1_555
O48 W8 1_555 1_555
O49 W1 1_555 1_555
O50 W7 1_555 1_555
O51 W7 1_555 1_555
O52 W3 1_555 1_555
O53 W1 1_555 1_555
O54 W1 1_555 1_555
O55 W1 1_555 1_555
O56 W1 1_555 1_555
O57 W4 1_555 1_555
O58 W2 1_555 1_555
O59 W5 1_555 1_555
O60 W15 1_555 1_555
O61 W10 1_555 1_555
O62 W17 1_555 1_555
O63 W18 1_555 1_555
O64 W15 1_555 1_555
O65 La1 1_555 1_555
O66 La1 1_555 1_555
O67 La1 1_555 1_555
O68 La2 1_555 1_555
O69 W5 1_555 1_555
O70 C6 1_555 1_555
N1 W5 1_555 1_555
C1 N1 1_555 1_555
C2 C1 1_555 1_555
H1 C2 1_555 1_555
C3 C2 1_555 1_555
H2 C3 1_555 1_555
C4 C3 1_555 1_555
H3 C4 1_555 1_555
C5 N1 1_555 1_555
H4 C5 1_555 1_555
C6 O69 1_555 1_555
O71 W8 1_555 1_555
O72 C12 1_555 1_555
N2 W8 1_555 1_555
C7 N2 1_555 1_555
C8 C7 1_555 1_555
H5 C8 1_555 1_555
C9 C8 1_555 1_555
H6 C9 1_555 1_555
C10 C9 1_555 1_555
H7 C10 1_555 1_555
C11 N2 1_555 1_555
H8 C11 1_555 1_555
C12 O71 1_555 1_555
W2C O44 1_555 1_555
W4C O59 1_555 1_555
La2C O3 1_555 1_555
O3C La2 1_555 1_555
O12C La2 1_555 1_555
O13C La2 1_555 1_555
O15C La2 1_555 1_555
O32C La2 1_555 1_555
O44C W2 1_555 1_555
O59C W4 1_555 1_555
W2 O53 1_555 1_555
W2 O56 1_555 1_555
W3 O49 1_555 1_555
W3 O53 1_555 1_555
W3 O58 1_555 1_555
W6 O55 1_555 1_555
W6 O57 1_555 1_555
W7 O46 1_555 1_555
W9 O37 1_555 1_555
W9 O43 1_555 1_555
W9 O52 1_555 1_555
W9 O57 1_555 1_555
W11 O36 1_555 1_555
W11 O41 1_555 1_555
W11 O51 1_555 1_555
W13 O24 1_555 1_555
W13 O31 1_555 1_555
W14 O21 1_555 1_555
W14 O30 1_555 1_555
W16 O15 1_555 1_555
W16 O19 1_555 1_555
W16 O34 1_555 1_555
W17 O16 1_555 1_555
W17 O24 1_555 1_555
W17 O27 1_555 1_555
W17 O64 1_555 1_555
W18 O10 1_555 1_555
W18 O28 1_555 1_555
W18 O30 1_555 1_555
Sb1 O53 1_555 1_555
Sb1 O57 1_555 1_555
Sb2 O24 1_555 1_555
Sb2 O30 1_555 1_555
La1 O26 1_555 1_555
La1 O48 1_555 1_555
La1 O49 1_555 1_555
La1 O61 1_555 1_555
La2 O50 1_555 1_555
O13 La2C 1_555 1_555
O15 La2C 1_555 1_555
O32 La2C 1_555 1_555
C1 C6 1_555 1_555
C4 C5 1_555 1_555
C7 C12 1_555 1_555
C10 C11 1_555 1_555

#END
