
#######################################################################
#
#                 Cambridge Crystallographic Data Centre
#                                CCDC 
#
#######################################################################
#
# If this CIF has been generated from an entry in the Cambridge 
# Structural Database, then it will include bibliographic, chemical, 
# crystal, experimental, refinement or atomic coordinate data resulting 
# from the CCDC's data processing and validation procedures.
#
#######################################################################

data_MUFRUC
_symmetry_cell_setting           orthorhombic
_symmetry_space_group_name_H-M   'P n a 21'
_symmetry_Int_Tables_number      33
_space_group_name_Hall           'P 2c -2n'
loop_
_symmetry_equiv_pos_site_id
_symmetry_equiv_pos_as_xyz
1 x,y,z
2 -x,-y,1/2+z
3 1/2+x,1/2-y,z
4 1/2-x,1/2+y,1/2+z
_cell_length_a                   7.3287(15)
_cell_length_b                   11.069(2)
_cell_length_c                   33.355(7)
_cell_angle_alpha                90
_cell_angle_beta                 90
_cell_angle_gamma                90
_cell_volume                     2705.8
loop_
_atom_site_label
_atom_site_type_symbol
_atom_site_fract_x
_atom_site_fract_y
_atom_site_fract_z
Ag1 Ag 0.46299(4) 0.57235(2) 0.490076(10)
Ag2 Ag 0.35920(4) 0.83490(2) 0.496775(10)
Cl1 Cl 0.68830(18) 0.48026(8) 0.32482(4)
Cl2 Cl 0.91461(16) 0.71975(10) 0.19377(3)
Cl3 Cl -0.1750(2) 0.66238(11) 0.78869(4)
Cl4 Cl -0.01392(15) 0.96914(8) 0.66870(3)
O1 O 0.2228(4) 0.6009(2) 0.53586(9)
O2 O 0.2215(4) 0.7961(2) 0.55190(9)
O3 O 0.5320(5) 0.6830(2) 0.43321(9)
O4 O 0.5127(5) 0.8806(2) 0.44442(9)
O5 O 0.0558(4) 0.7521(2) 0.62212(8)
O6 O 0.6626(4) 0.7130(2) 0.36100(9)
N1 N 0.4972(5) 0.3887(3) 0.45301(11)
N2 N 0.5908(5) 0.4136(3) 0.53113(11)
C1 C -0.0308(6) 0.6092(3) 0.67468(13)
H1 H -0.0118 0.5432 0.6579
C2 C -0.0850(6) 0.5904(4) 0.71343(13)
H2 H -0.1045 0.5121 0.7226
C3 C -0.1110(6) 0.6867(4) 0.73900(13)
C4 C -0.0860(6) 0.8041(4) 0.72524(13)
H3 H -0.1030 0.8696 0.7423
C5 C -0.0356(5) 0.8217(3) 0.68581(12)
C6 C -0.0035(5) 0.7259(3) 0.65989(12)
C7 C 0.1011(6) 0.6496(3) 0.59760(12)
H4 H -0.0091 0.6043 0.5918
H5 H 0.1832 0.5970 0.6123
C8 C 0.1906(5) 0.6871(3) 0.55856(12)
C9 C 0.5519(6) 0.7905(3) 0.42387(13)
C10 C 0.6304(6) 0.8211(3) 0.38305(12)
H6 H 0.5458 0.8722 0.3685
H7 H 0.7440 0.8650 0.3863
C11 C 0.7234(5) 0.7228(3) 0.32282(12)
C12 C 0.7667(5) 0.8299(3) 0.30316(12)
H8 H 0.7544 0.9031 0.3166
C13 C 0.8276(5) 0.8292(3) 0.26402(13)
H9 H 0.8590 0.9014 0.2515
C14 C 0.8419(5) 0.7224(4) 0.24350(12)
C15 C 0.7991(6) 0.6139(3) 0.26224(12)
H10 H 0.8091 0.5412 0.2485
C16 C 0.7418(5) 0.6158(3) 0.30150(12)
C17 C 0.4523(7) 0.3813(4) 0.41471(15)
H11 H 0.4338 0.4528 0.4006
C18 C 0.4312(7) 0.2726(4) 0.39420(16)
H12 H 0.4012 0.2707 0.3671
C19 C 0.4567(7) 0.1689(4) 0.41575(17)
H13 H 0.4386 0.0941 0.4037
C20 C 0.5088(7) 0.1751(4) 0.45508(16)
H14 H 0.5300 0.1046 0.4695
C21 C 0.5302(5) 0.2880(3) 0.47355(13)
C22 C 0.5880(5) 0.3001(3) 0.51603(14)
C23 C 0.6386(6) 0.2016(3) 0.53974(15)
H15 H 0.6371 0.1241 0.5290
C24 C 0.6907(6) 0.2192(4) 0.57883(16)
H16 H 0.7242 0.1539 0.5947
C25 C 0.6926(7) 0.3344(4) 0.59422(14)
H17 H 0.7275 0.3490 0.6206
C26 C 0.6408(7) 0.4281(4) 0.56911(14)
H18 H 0.6410 0.5060 0.5795
Ag1B Ag -0.03701(4) 0.92765(2) 0.490076(10)
Ag2B Ag 0.85920(4) 0.66510(2) 0.496775(10)
loop_
_geom_bond_atom_site_label_1
_geom_bond_atom_site_label_2
_geom_bond_site_symmetry_1
_geom_bond_site_symmetry_2
Ag1 Ag2 1_555 1_555
Ag2 O2 1_555 1_555
Cl1 C16 1_555 1_555
Cl2 C14 1_555 1_555
Cl3 C3 1_555 1_555
Cl4 C5 1_555 1_555
O1 Ag1 1_555 1_555
O2 C8 1_555 1_555
O3 Ag1 1_555 1_555
O4 Ag2 1_555 1_555
O5 C6 1_555 1_555
O6 C10 1_555 1_555
N1 Ag1 1_555 1_555
N2 Ag1 1_555 1_555
C1 H1 1_555 1_555
C2 C1 1_555 1_555
H2 C2 1_555 1_555
C3 C2 1_555 1_555
C4 C3 1_555 1_555
H3 C4 1_555 1_555
C5 C4 1_555 1_555
C6 C1 1_555 1_555
C7 O5 1_555 1_555
H4 C7 1_555 1_555
H5 C7 1_555 1_555
C8 O1 1_555 1_555
C9 O3 1_555 1_555
C10 C9 1_555 1_555
H6 C10 1_555 1_555
H7 C10 1_555 1_555
C11 O6 1_555 1_555
C12 C11 1_555 1_555
H8 C12 1_555 1_555
C13 C12 1_555 1_555
H9 C13 1_555 1_555
C14 C13 1_555 1_555
C15 C14 1_555 1_555
H10 C15 1_555 1_555
C16 C11 1_555 1_555
C17 N1 1_555 1_555
H11 C17 1_555 1_555
C18 C17 1_555 1_555
H12 C18 1_555 1_555
C19 C18 1_555 1_555
H13 C19 1_555 1_555
C20 C19 1_555 1_555
H14 C20 1_555 1_555
C21 N1 1_555 1_555
C22 N2 1_555 1_555
C23 C22 1_555 1_555
H15 C23 1_555 1_555
C24 C23 1_555 1_555
H16 C24 1_555 1_555
C25 C24 1_555 1_555
H17 C25 1_555 1_555
C26 N2 1_555 1_555
H18 C26 1_555 1_555
Ag1B Ag2 1_555 1_555
Ag2B Ag1 1_555 1_555
O4 C9 1_555 1_555
C5 C6 1_555 1_555
C7 C8 1_555 1_555
C15 C16 1_555 1_555
C20 C21 1_555 1_555
C21 C22 1_555 1_555
C25 C26 1_555 1_555

#END
