
#######################################################################
#
#                 Cambridge Crystallographic Data Centre
#                                CCDC 
#
#######################################################################
#
# If this CIF has been generated from an entry in the Cambridge 
# Structural Database, then it will include bibliographic, chemical, 
# crystal, experimental, refinement or atomic coordinate data resulting 
# from the CCDC's data processing and validation procedures.
#
#######################################################################

data_MUFROW
_symmetry_cell_setting           monoclinic
_symmetry_space_group_name_H-M   'C c'
_symmetry_Int_Tables_number      9
_space_group_name_Hall           'C -2yc'
loop_
_symmetry_equiv_pos_site_id
_symmetry_equiv_pos_as_xyz
1 x,y,z
2 x,-y,1/2+z
3 1/2+x,1/2+y,z
4 1/2+x,1/2-y,1/2+z
_cell_length_a                   10.482(3)
_cell_length_b                   18.056(5)
_cell_length_c                   16.674(4)
_cell_angle_alpha                90
_cell_angle_beta                 106.768(4)
_cell_angle_gamma                90
_cell_volume                     3021.59
loop_
_atom_site_label
_atom_site_type_symbol
_atom_site_fract_x
_atom_site_fract_y
_atom_site_fract_z
Ag1 Ag 0.59416(2) 0.479798(19) 0.658886(18)
N1 N 0.3961(5) 0.4941(2) 0.5732(3)
N2 N -0.2206(5) 0.51805(17) 0.2593(3)
C1 C -0.0316(4) 0.4489(2) 0.3367(2)
H1 H 0.0133 0.4039 0.3453
C2 C -0.1494(4) 0.4558(3) 0.2745(3)
H2 H -0.1814 0.4148 0.2410
C3 C -0.1695(4) 0.5769(2) 0.3074(2)
H3 H -0.2160 0.6214 0.2972
C4 C -0.0527(4) 0.5744(2) 0.3702(2)
H4 H -0.0222 0.6166 0.4020
C5 C 0.0206(5) 0.5098(2) 0.3870(3)
C6 C 0.1479(5) 0.5049(2) 0.4519(3)
C7 C 0.1912(4) 0.4396(2) 0.4963(3)
H5 H 0.1372 0.3978 0.4858
C8 C 0.3116(4) 0.4371(2) 0.5546(3)
H6 H 0.3370 0.3930 0.5835
C9 C 0.3545(4) 0.5580(3) 0.5324(3)
H7 H 0.4100 0.5992 0.5452
C10 C 0.2347(4) 0.5648(2) 0.4734(3)
H8 H 0.2103 0.6102 0.4471
Ag1A Ag -0.40584(2) 0.520202(19) 0.158886(18)
N2A N 0.7794(5) 0.48195(17) 0.7593(3)
Ag2 Ag 0.76030(3) 0.496552(16) 0.51433(2)
Cl1 Cl 0.79287(15) 0.72857(8) 0.96563(7)
Cl2 Cl 0.37928(10) 0.73855(6) 0.68809(7)
O1 O 0.5774(3) 0.74553(16) 0.60189(16)
O2 O 0.7720(2) 0.64088(13) 0.49825(16)
O3 O 0.6655(3) 0.60676(13) 0.58930(17)
N3 N 1.5785(5) 0.5089(2) 0.9134(3)
N4 N 0.9556(6) 0.4916(2) 0.6035(3)
C11 C 0.7025(3) 0.65295(18) 0.54697(19)
C12 C 0.6579(4) 0.7331(2) 0.5483(2)
H9 H 0.7362 0.7644 0.5659
H10 H 0.6086 0.7476 0.4918
C13 C 0.6351(4) 0.74015(19) 0.6859(2)
C14 C 0.7711(4) 0.7399(2) 0.7242(2)
H11 H 0.8299 0.7419 0.6918
C15 C 0.8202(4) 0.7368(2) 0.8110(3)
H12 H 0.9115 0.7366 0.8371
C16 C 0.7323(4) 0.7341(2) 0.8572(2)
C17 C 0.5969(4) 0.7356(2) 0.8208(3)
H13 H 0.5384 0.7352 0.8535
C18 C 0.5502(4) 0.73772(19) 0.7353(2)
C19 C 1.1303(4) 0.4346(2) 0.7091(3)
H14 H 1.1634 0.3920 0.7391
C20 C 1.0105(4) 0.4331(2) 0.6498(3)
H15 H 0.9637 0.3886 0.6409
C21 C 1.0255(4) 0.5550(2) 0.6194(3)
H16 H 0.9894 0.5971 0.5892
C22 C 1.1475(4) 0.5606(2) 0.6780(2)
H17 H 1.1923 0.6057 0.6861
C23 C 1.2041(5) 0.5000(2) 0.7251(3)
C24 C 1.3339(5) 0.50382(19) 0.7882(3)
C25 C 1.4202(4) 0.4444(2) 0.8053(2)
H18 H 1.3971 0.4007 0.7751
C26 C 1.5393(4) 0.4491(2) 0.8661(2)
H19 H 1.5960 0.4084 0.8749
C27 C 1.4953(4) 0.5676(2) 0.8968(2)
H20 H 1.5212 0.6106 0.9279
C28 C 1.3753(4) 0.5670(2) 0.8369(2)
H21 H 1.3210 0.6087 0.8284
Ag2A Ag 1.76030(3) 0.503448(16) 1.01433(2)
N3A N 0.5785(5) 0.4911(2) 0.4134(3)
O4 O 0.6491(3) 0.2062(2) 0.8407(2)
H22 H 0.627(5) 0.234(3) 0.799(2)
H23 H 0.726(2) 0.213(3) 0.870(3)
O5 O 0.9041(4) 0.7483(2) 0.44489(19)
H24 H 0.864(5) 0.713(2) 0.460(3)
H25 H 0.966(4) 0.765(3) 0.484(2)
O6 O 0.5508(4) 0.23360(19) 0.6367(3)
O7 O 0.5843(4) 0.3391(2) 0.5879(2)
O8 O 0.5674(3) 0.3300(2) 0.7114(2)
N5 N 0.5672(3) 0.30111(18) 0.6456(2)
loop_
_geom_bond_atom_site_label_1
_geom_bond_atom_site_label_2
_geom_bond_site_symmetry_1
_geom_bond_site_symmetry_2
Ag1 N1 1_555 1_555
N1 C8 1_555 1_555
N2 C2 1_555 1_555
C1 H1 1_555 1_555
C2 C1 1_555 1_555
H2 C2 1_555 1_555
C3 N2 1_555 1_555
H3 C3 1_555 1_555
C4 C3 1_555 1_555
H4 C4 1_555 1_555
C5 C1 1_555 1_555
C6 C5 1_555 1_555
C7 C6 1_555 1_555
H5 C7 1_555 1_555
C8 C7 1_555 1_555
H6 C8 1_555 1_555
C9 N1 1_555 1_555
H7 C9 1_555 1_555
C10 C6 1_555 1_555
H8 C10 1_555 1_555
Ag2 O2 1_555 1_555
Cl1 C16 1_555 1_555
Cl2 C18 1_555 1_555
O1 C12 1_555 1_555
O2 C11 1_555 1_555
O3 Ag2 1_555 1_555
N3 C26 1_555 1_555
N4 Ag2 1_555 1_555
C11 O3 1_555 1_555
C12 C11 1_555 1_555
H9 C12 1_555 1_555
H10 C12 1_555 1_555
C13 O1 1_555 1_555
C14 C13 1_555 1_555
H11 C14 1_555 1_555
C15 C14 1_555 1_555
H12 C15 1_555 1_555
C16 C15 1_555 1_555
C17 C16 1_555 1_555
H13 C17 1_555 1_555
C18 C13 1_555 1_555
C19 H14 1_555 1_555
C20 N4 1_555 1_555
H15 C20 1_555 1_555
C21 N4 1_555 1_555
H16 C21 1_555 1_555
C22 C21 1_555 1_555
H17 C22 1_555 1_555
C23 C19 1_555 1_555
C24 C23 1_555 1_555
C25 C24 1_555 1_555
H18 C25 1_555 1_555
C26 C25 1_555 1_555
H19 C26 1_555 1_555
C27 N3 1_555 1_555
H20 C27 1_555 1_555
C28 C24 1_555 1_555
H21 C28 1_555 1_555
O4 H22 1_555 1_555
H23 O4 1_555 1_555
O5 H24 1_555 1_555
H25 O5 1_555 1_555
O6 N5 1_555 1_555
O7 N5 1_555 1_555
O8 N5 1_555 1_555
Ag1A N2 1_555 1_555
N2A Ag1 1_555 1_555
Ag2A N3 1_555 1_555
N3A Ag2 1_555 1_555
C4 C5 1_555 1_555
C9 C10 1_555 1_555
C17 C18 1_555 1_555
C19 C20 1_555 1_555
C22 C23 1_555 1_555
C27 C28 1_555 1_555

#END
