
#######################################################################
#
#                 Cambridge Crystallographic Data Centre
#                                CCDC 
#
#######################################################################
#
# If this CIF has been generated from an entry in the Cambridge 
# Structural Database, then it will include bibliographic, chemical, 
# crystal, experimental, refinement or atomic coordinate data resulting 
# from the CCDC's data processing and validation procedures.
#
#######################################################################

data_MUFSUD
_symmetry_cell_setting           monoclinic
_symmetry_space_group_name_H-M   'P 21/c'
_symmetry_Int_Tables_number      14
_space_group_name_Hall           '-P 2ybc'
loop_
_symmetry_equiv_pos_site_id
_symmetry_equiv_pos_as_xyz
1 x,y,z
2 -x,1/2+y,1/2-z
3 -x,-y,-z
4 x,1/2-y,1/2+z
_cell_length_a                   14.804(2)
_cell_length_b                   7.9658(12)
_cell_length_c                   20.024(3)
_cell_angle_alpha                90
_cell_angle_beta                 101.441(2)
_cell_angle_gamma                90
_cell_volume                     2314.42
loop_
_atom_site_label
_atom_site_type_symbol
_atom_site_fract_x
_atom_site_fract_y
_atom_site_fract_z
C1 C 0.5632(6) 0.6860(11) 0.3797(4)
C2 C 0.5107(6) 0.7045(12) 0.4375(4)
C3 C 0.8837(5) 0.6555(11) 0.6789(4)
H1 H 0.8213 0.6827 0.6704
C4 C 0.9342(6) 0.6774(11) 0.6285(4)
C5 C 0.8711(6) 0.8597(11) 0.4659(4)
H2 H 0.8809 0.8887 0.4229
N1 N 0.1296(6) 0.6462(12) 0.4803(4)
C6 C 0.9254(5) 0.5934(11) 0.7418(4)
C7 C 0.8735(5) 0.5821(11) 0.7986(4)
C8 C 0.5632(5) 0.7877(11) 0.6279(4)
C9 C 1.0264(6) 0.6246(12) 0.6393(4)
H3 H 1.0594 0.6324 0.6044
C10 C 1.0677(5) 0.5610(11) 0.7018(4)
C11 C 1.0184(5) 0.5474(11) 0.7538(4)
H4 H 1.0470 0.5078 0.7964
C12 C 1.1661(5) 0.5049(10) 0.7135(4)
C13 C 0.4156(6) 0.6916(12) 0.4242(4)
H5 H 0.3833 0.6699 0.3803
C14 C 0.4145(5) 0.7469(12) 0.5421(4)
H6 H 0.3820 0.7647 0.5768
C15 C 0.8087(7) 0.8359(14) 0.5543(5)
H7 H 0.7683 0.8446 0.5842
C16 C 0.5585(5) 0.7337(12) 0.5033(4)
H8 H 0.6225 0.7384 0.5121
C17 C 0.2170(6) 0.6317(12) 0.5049(5)
H9 H 0.2411 0.5822 0.5467
C18 C 0.3689(6) 0.7116(11) 0.4774(4)
N2 N 0.7962(7) 0.8983(16) 0.4912(5)
C19 C 0.2103(6) 0.7582(14) 0.4058(5)
H10 H 0.2255 0.8108 0.3681
C20 C 0.1244(7) 0.7240(16) 0.4176(6)
H11 H 0.0697 0.7495 0.3876
C21 C 0.9280(7) 0.7744(16) 0.5120(5)
H12 H 0.9849 0.7327 0.5069
N3 N 0.8922(5) 0.7570(9) 0.5664(4)
N4 N 0.2695(5) 0.6968(10) 0.4628(4)
O1 O 1.2071(4) 0.4722(8) 0.7730(3)
O2 O 0.7888(4) 0.6216(8) 0.7873(3)
C22 C 0.5121(5) 0.7558(11) 0.5558(4)
O3 O 0.6459(4) 0.7486(10) 0.6426(3)
O4 O 0.5223(4) 0.8501(8) 0.6703(3)
O5 O 0.5176(5) 0.6517(9) 0.3213(3)
O6 O 0.6455(4) 0.7120(11) 0.3897(3)
O7 O 0.9167(4) 0.5312(10) 0.8547(3)
O8 O 0.6203(5) 1.1274(9) 0.7621(5)
O9 O 0.5921(4) 0.5456(8) 0.7668(3)
O10 O 1.2048(4) 0.4901(9) 0.6632(3)
Pr1 Pr 0.66439(3) 0.82731(5) 0.76786(2)
H13 H 0.575(6) 0.497(11) 0.729(3)
H14 H 0.583(7) 0.495(12) 0.802(3)
H15 H 0.582(6) 1.171(12) 0.730(4)
H16 H 0.592(11) 1.046(15) 0.775(9)
H17 H 0.743(7) 0.949(11) 0.471(5)
O1A O 0.7929(4) 0.9722(8) 0.7270(3)
O5C O 0.5176(5) 0.8483(9) 0.8213(3)
O6C O 0.6455(4) 0.7880(11) 0.8897(3)
O10A O 0.7952(4) 0.9901(9) 0.8368(3)
Pr1A Pr 1.33561(3) 0.32731(5) 0.73214(2)
Pr1C Pr 0.66439(3) 0.67269(5) 0.26786(2)
O11 O 0.2699(6) 0.8376(9) 0.6475(4)
H18 H 0.232(7) 0.883(16) 0.668(6)
H19 H 0.217(4) 0.797(15) 0.633(7)
loop_
_geom_bond_atom_site_label_1
_geom_bond_atom_site_label_2
_geom_bond_site_symmetry_1
_geom_bond_site_symmetry_2
C1 C2 1_555 1_555
C2 C13 1_555 1_555
C3 H1 1_555 1_555
C4 C3 1_555 1_555
C5 H2 1_555 1_555
N1 C17 1_555 1_555
C6 C3 1_555 1_555
C7 C6 1_555 1_555
C8 C22 1_555 1_555
C9 C4 1_555 1_555
H3 C9 1_555 1_555
C10 C9 1_555 1_555
C11 C6 1_555 1_555
H4 C11 1_555 1_555
C12 C10 1_555 1_555
C13 H5 1_555 1_555
C14 H6 1_555 1_555
C15 H7 1_555 1_555
C16 C2 1_555 1_555
H8 C16 1_555 1_555
C17 H9 1_555 1_555
C18 C13 1_555 1_555
N2 C5 1_555 1_555
C19 H10 1_555 1_555
C20 N1 1_555 1_555
H11 C20 1_555 1_555
C21 C5 1_555 1_555
H12 C21 1_555 1_555
N3 C4 1_555 1_555
N4 C17 1_555 1_555
O1 C12 1_555 1_555
O2 C7 1_555 1_555
C22 C14 1_555 1_555
O3 C8 1_555 1_555
O4 C8 1_555 1_555
O5 C1 1_555 1_555
O6 C1 1_555 1_555
O7 C7 1_555 1_555
O8 Pr1 1_555 1_555
O9 Pr1 1_555 1_555
O10 C12 1_555 1_555
Pr1 O2 1_555 1_555
H13 O9 1_555 1_555
H14 O9 1_555 1_555
H15 O8 1_555 1_555
H16 O8 1_555 1_555
H17 N2 1_555 1_555
O11 H18 1_555 1_555
H19 O11 1_555 1_555
O1A Pr1 1_555 1_555
O5C Pr1 1_555 1_555
O6C Pr1 1_555 1_555
O10A Pr1 1_555 1_555
Pr1A O1 1_555 1_555
Pr1C O5 1_555 1_555
C10 C11 1_555 1_555
C14 C18 1_555 1_555
C15 N2 1_555 1_555
C15 N3 1_555 1_555
C16 C22 1_555 1_555
C18 N4 1_555 1_555
C19 C20 1_555 1_555
C19 N4 1_555 1_555
C21 N3 1_555 1_555
O3 Pr1 1_555 1_555
O4 Pr1 1_555 1_555
O6 Pr1C 1_555 1_555
O10 Pr1A 1_555 1_555

#END
