
#######################################################################
#
#                 Cambridge Crystallographic Data Centre
#                                CCDC 
#
#######################################################################
#
# If this CIF has been generated from an entry in the Cambridge 
# Structural Database, then it will include bibliographic, chemical, 
# crystal, experimental, refinement or atomic coordinate data resulting 
# from the CCDC's data processing and validation procedures.
#
#######################################################################

data_MUFTUD
_symmetry_cell_setting           monoclinic
_symmetry_space_group_name_H-M   'C 2/c'
_symmetry_Int_Tables_number      15
_space_group_name_Hall           '-C 2yn'
loop_
_symmetry_equiv_pos_site_id
_symmetry_equiv_pos_as_xyz
1 x,y,z
2 -x,y,1/2-z
3 1/2+x,1/2+y,z
4 1/2-x,1/2+y,1/2-z
5 -x,-y,-z
6 x,-y,1/2+z
7 1/2-x,1/2-y,-z
8 1/2+x,1/2-y,1/2+z
_cell_length_a                   31.9666(19)
_cell_length_b                   28.474(3)
_cell_length_c                   14.3397(17)
_cell_angle_alpha                90
_cell_angle_beta                 114.194(2)
_cell_angle_gamma                90
_cell_volume                     11905.8
loop_
_atom_site_label
_atom_site_type_symbol
_atom_site_fract_x
_atom_site_fract_y
_atom_site_fract_z
C1 C 0.31048(9) 1.09183(10) 0.39497(19)
C2 C 0.34655(9) 1.08042(10) 0.3719(2)
H1 H 0.3513 1.0490 0.3612
C3 C 0.37603(9) 1.11316(11) 0.3639(2)
H2 H 0.3986 1.1033 0.3432
C4 C 0.37395(10) 1.16045(11) 0.3852(2)
C5 C 0.33678(10) 1.17457(9) 0.4143(2)
H3 H 0.3345 1.2051 0.4349
C6 C 0.30443(10) 1.13930(9) 0.40927(19)
H4 H 0.2778 1.1484 0.4159
C7 C 0.40806(9) 1.19567(9) 0.38280(19)
H5 H 0.4385 1.1834 0.4185
H6 H 0.4049 1.2241 0.4152
H7 H 0.4027 1.2021 0.3131
C8 C 0.20536(9) 1.10424(10) 0.12209(19)
C9 C 0.23155(10) 1.14272(11) 0.1579(2)
H8 H 0.2622 1.1419 0.1679
C10 C 0.21329(11) 1.18501(12) 0.1812(2)
H9 H 0.2322 1.2097 0.2168
C11 C 0.16816(11) 1.18705(11) 0.1492(2)
C12 C 0.14012(10) 1.14832(12) 0.1149(2)
H10 H 0.1090 1.1496 0.1009
C13 C 0.15931(9) 1.11029(10) 0.1032(2)
H11 H 0.1405 1.0841 0.0798
C14 C 0.14986(11) 1.23302(11) 0.1712(2)
H12 H 0.1748 1.2512 0.2185
H13 H 0.1282 1.2266 0.2003
H14 H 0.1350 1.2503 0.1087
C15 C 0.20339(11) 0.94546(11) 0.3356(2)
H15 H 0.2246 0.9573 0.3973
C16 C 0.17670(11) 0.91110(11) 0.3397(3)
H16 H 0.1809 0.8983 0.4026
C17 C 0.14178(9) 0.89351(10) 0.24958(19)
C18 C 0.13827(9) 0.91354(12) 0.15849(19)
H17 H 0.1154 0.9038 0.0968
C19 C 0.16939(9) 0.94865(11) 0.15937(19)
H18 H 0.1674 0.9610 0.0977
C20 C 0.10937(10) 0.85574(11) 0.2519(2)
C21 C 0.11123(10) 0.83724(11) 0.3411(2)
H19 H 0.1335 0.8473 0.4033
C22 C 0.08127(9) 0.80498(13) 0.3386(2)
H20 H 0.0822 0.7939 0.4004
C23 C 0.04706(10) 0.80406(10) 0.1669(2)
H21 H 0.0255 0.7909 0.1072
C24 C 0.07415(10) 0.84009(11) 0.15841(18)
H22 H 0.0697 0.8533 0.0957
C25 C 0.0530(2) 0.6540(3) 0.3844(5)
C26 C 0.1001(2) 0.6530(2) 0.4313(5)
H23 H 0.1159 0.6788 0.4694
C27 C 0.1243(2) 0.6145(3) 0.4229(5)
H24 H 0.1561 0.6139 0.4575
C28 C 0.1019(2) 0.5770(2) 0.3639(4)
C29 C 0.0547(2) 0.5765(3) 0.3164(4)
H25 H 0.0393 0.5510 0.2764
C30 C 0.0301(2) 0.6154(2) 0.3295(4)
H26 H -0.0018 0.6149 0.3007
C31 C 0.1287(2) 0.5357(2) 0.3581(5)
H27 H 0.1082 0.5106 0.3237
H28 H 0.1486 0.5259 0.4260
H29 H 0.1468 0.5438 0.3210
C32 C 0.29595(9) 0.94532(9) 0.16805(19)
H30 H 0.2723 0.9558 0.1082
C33 C 0.32576(8) 0.91044(10) 0.16119(18)
H31 H 0.3228 0.8990 0.0980
C34 C 0.35992(8) 0.89343(9) 0.25186(16)
C35 C 0.36260(9) 0.91474(10) 0.34151(19)
H32 H 0.3860 0.9063 0.4037
C36 C 0.33176(10) 0.94733(10) 0.3394(2)
H33 H 0.3330 0.9588 0.4012
C37 C 0.39066(8) 0.85618(8) 0.24870(18)
C38 C 0.38815(10) 0.83467(11) 0.1595(2)
H34 H 0.3649 0.8438 0.0977
C39 C 0.41920(8) 0.79962(10) 0.15810(19)
H35 H 0.4171 0.7872 0.0963
C40 C 0.45540(9) 0.80488(10) 0.33546(18)
H36 H 0.4794 0.7961 0.3964
C41 C 0.42492(9) 0.83783(10) 0.3374(2)
H37 H 0.4270 0.8486 0.4004
C42 C 0.44609(8) 0.65156(8) 0.11316(18)
C43 C 0.46091(9) 0.60473(9) 0.1181(2)
H38 H 0.4888 0.5979 0.1152
C44 C 0.43377(8) 0.56894(8) 0.12736(19)
H39 H 0.4451 0.5385 0.1326
C45 C 0.39249(9) 0.57418(10) 0.1294(2)
C46 C 0.37949(9) 0.61968(10) 0.1297(2)
H40 H 0.3526 0.6255 0.1380
C47 C 0.40364(9) 0.65765(10) 0.1184(2)
H41 H 0.3916 0.6877 0.1142
C48 C 0.36443(10) 0.53374(11) 0.1435(2)
H42 H 0.3524 0.5151 0.0824
H43 H 0.3395 0.5460 0.1571
H44 H 0.3836 0.5146 0.1999
N1 N 0.20235(8) 0.96490(8) 0.24829(16)
N2 N 0.05022(9) 0.78772(10) 0.25363(19)
N3 N 0.30016(8) 0.96354(8) 0.25463(16)
N4 N 0.45167(6) 0.78445(7) 0.24624(13)
S1 S 0.27295(2) 1.04991(3) 0.40326(5)
S2 S 0.22913(3) 1.05043(3) 0.09745(5)
S3 S 0.02124(3) 0.70098(3) 0.40302(5)
S4 S 0.47790(2) 0.69881(2) 0.09677(5)
Zn1 Zn 0.250780(10) 1.014646(11) 0.25006(2)
Zn2 Zn 0.0000 0.736486(18) 0.2500
Zn3 Zn 0.5000 0.734618(15) 0.2500
C1A C -0.31048(9) 1.09183(10) 0.10503(19)
C2A C -0.34655(9) 1.08042(10) 0.1281(2)
H1A H -0.3513 1.0490 0.1388
C3A C -0.37603(9) 1.11316(11) 0.1361(2)
H2A H -0.3986 1.1033 0.1568
C4A C -0.37395(10) 1.16045(11) 0.1148(2)
C5A C -0.33678(10) 1.17457(9) 0.0857(2)
H3A H -0.3345 1.2051 0.0651
C6A C -0.30443(10) 1.13930(9) 0.09073(19)
H4A H -0.2778 1.1484 0.0841
C7A C -0.40806(9) 1.19567(9) 0.11720(19)
H5A H -0.4385 1.1834 0.0815
H6A H -0.4049 1.2241 0.0848
H7A H -0.4027 1.2021 0.1869
C8A C -0.20536(9) 1.10424(10) 0.37791(19)
C9A C -0.23155(10) 1.14272(11) 0.3421(2)
H8A H -0.2622 1.1419 0.3321
C10A C -0.21329(11) 1.18501(12) 0.3188(2)
H9A H -0.2322 1.2097 0.2832
C11A C -0.16816(11) 1.18705(11) 0.3508(2)
C12A C -0.14012(10) 1.14832(12) 0.3851(2)
H10A H -0.1090 1.1496 0.3991
C13A C -0.15931(9) 1.11029(10) 0.3968(2)
H11A H -0.1405 1.0841 0.4202
C14A C -0.14986(11) 1.23302(11) 0.3288(2)
H12A H -0.1748 1.2512 0.2815
H13A H -0.1282 1.2266 0.2997
H14A H -0.1350 1.2503 0.3913
C15A C -0.20339(11) 0.94546(11) 0.1644(2)
H15A H -0.2246 0.9573 0.1027
C16A C -0.17670(11) 0.91110(11) 0.1603(3)
H16A H -0.1809 0.8983 0.0974
C17A C -0.14178(9) 0.89351(10) 0.25042(19)
C18A C -0.13827(9) 0.91354(12) 0.34151(19)
H17A H -0.1154 0.9038 0.4032
C19A C -0.16939(9) 0.94865(11) 0.34063(19)
H18A H -0.1674 0.9610 0.4023
C20A C -0.10937(10) 0.85574(11) 0.2481(2)
C21A C -0.11123(10) 0.83724(11) 0.1589(2)
H19A H -0.1335 0.8473 0.0967
C22A C -0.08127(9) 0.80498(13) 0.1614(2)
H20A H -0.0822 0.7939 0.0996
C23A C -0.04706(10) 0.80406(10) 0.3331(2)
H21A H -0.0255 0.7909 0.3928
C24A C -0.07415(10) 0.84009(11) 0.34159(18)
H22A H -0.0697 0.8533 0.4043
C25A C -0.0530(2) 0.6540(3) 0.1156(5)
C26A C -0.1001(2) 0.6530(2) 0.0687(5)
H23A H -0.1159 0.6788 0.0306
C27A C -0.1243(2) 0.6145(3) 0.0771(5)
H24A H -0.1561 0.6139 0.0425
C28A C -0.1019(2) 0.5770(2) 0.1361(4)
C29A C -0.0547(2) 0.5765(3) 0.1836(4)
H25A H -0.0393 0.5510 0.2236
C30A C -0.0301(2) 0.6154(2) 0.1705(4)
H26A H 0.0018 0.6149 0.1993
C31A C -0.1287(2) 0.5357(2) 0.1419(5)
H27A H -0.1082 0.5106 0.1763
H28A H -0.1486 0.5259 0.0740
H29A H -0.1468 0.5438 0.1790
C32A C -0.29595(9) 0.94532(9) 0.33195(19)
H30A H -0.2723 0.9558 0.3918
C33A C -0.32576(8) 0.91044(10) 0.33881(18)
H31A H -0.3228 0.8990 0.4020
C34A C -0.35992(8) 0.89343(9) 0.24814(16)
C35A C -0.36260(9) 0.91474(10) 0.15849(19)
H32A H -0.3860 0.9063 0.0963
C36A C -0.33176(10) 0.94733(10) 0.1606(2)
H33A H -0.3330 0.9588 0.0988
C37A C -0.39066(8) 0.85618(8) 0.25130(18)
C38A C -0.38815(10) 0.83467(11) 0.3405(2)
H34A H -0.3649 0.8438 0.4023
C39A C -0.41920(8) 0.79962(10) 0.34190(19)
H35A H -0.4171 0.7872 0.4037
C40A C -0.45540(9) 0.80488(10) 0.16454(18)
H36A H -0.4794 0.7961 0.1036
C41A C -0.42492(9) 0.83783(10) 0.1626(2)
H37A H -0.4270 0.8486 0.0996
C42A C 0.55391(8) 0.65156(8) 0.38684(18)
C43A C 0.53909(9) 0.60473(9) 0.3819(2)
H38A H 0.5112 0.5979 0.3848
C44A C 0.56623(8) 0.56894(8) 0.37264(19)
H39A H 0.5549 0.5385 0.3674
C45A C 0.60751(9) 0.57418(10) 0.3706(2)
C46A C 0.62051(9) 0.61968(10) 0.3703(2)
H40A H 0.6474 0.6255 0.3620
C47A C 0.59636(9) 0.65765(10) 0.3816(2)
H41A H 0.6084 0.6877 0.3858
C48A C 0.63557(10) 0.53374(11) 0.3565(2)
H42A H 0.6476 0.5151 0.4176
H43A H 0.6605 0.5460 0.3429
H44A H 0.6164 0.5146 0.3001
N1A N -0.20235(8) 0.96490(8) 0.25171(16)
N2A N -0.05022(9) 0.78772(10) 0.24637(19)
N3A N -0.30016(8) 0.96354(8) 0.24537(16)
N4A N -0.45167(6) 0.78445(7) 0.25376(13)
N4A_2 N 0.54833(6) 0.78445(7) 0.25376(13)
S1A S -0.27295(2) 1.04991(3) 0.09674(5)
S2A S -0.22913(3) 1.05043(3) 0.40255(5)
S3A S -0.02124(3) 0.70098(3) 0.09698(5)
S4A S 0.52210(2) 0.69881(2) 0.40323(5)
Zn1A Zn -0.250780(10) 1.014646(11) 0.24994(2)
Zn3_2 Zn -0.5000 0.734618(15) 0.2500
C49 C 0.4805(2) 0.9605(2) 0.0522(5)
H45 H 0.4952 0.9404 0.0210
H46 H 0.5026 0.9820 0.0978
H47 H 0.4565 0.9778 0.0001
O6 O 0.46087(11) 0.93182(14) 0.1100(3)
H61 H 0.4693 0.8996 0.1072
C50 C 0.01778(18) 0.96272(18) 0.4517(4)
H48 H -0.0107 0.9535 0.4537
H49 H 0.0131 0.9904 0.4104
H50 H 0.0398 0.9692 0.5199
O7 O 0.03529(13) 0.92349(15) 0.4064(3)
H62 H 0.0493 0.9367 0.3647
O1 O 0.21705(13) 0.82970(14) 0.1155(3)
H51 H 0.2280 0.8085 0.1607
H52 H 0.1879 0.8284 0.0899
O2 O 0.20997(16) 0.77118(16) 0.9428(4)
H53 H 0.2117 0.7879 0.9934
H54 H 0.2367 0.7670 0.9451
O3 O 0.29454(16) 0.8249(2) 0.4016(4)
H55 H 0.3160 0.8058 0.4344
H56 H 0.3052 0.8527 0.4092
O4 O 0.0000 0.89893(11) 0.2500
O5 O 0.22300(15) 0.75706(15) 0.4080(3)
H59 H 0.2037 0.7479 0.4308
H60 H 0.2436 0.7362 0.4199
H57? H 0.0246 0.8832 0.2676
H58? H -0.0227 0.8818 0.2142
C51? C -0.0526(2) 0.6537(3) 0.1151(4)
C52? C -0.0951(2) 0.6610(2) 0.1200(4)
C53? C -0.11881(18) 0.6240(2) 0.1332(4)
C54? C -0.1014(2) 0.5770(2) 0.1365(4)
C55? C -0.0634(2) 0.5724(3) 0.1188(4)
C56? C -0.03626(14) 0.60832(16) 0.1117(3)
C57? C -0.12894(14) 0.53595(16) 0.1419(3)
H63? H -0.1070 0.6912 0.1142
H64? H -0.1462 0.6289 0.1402
H65? H -0.0547 0.5421 0.1107
H66? H -0.0089 0.6029 0.1050
H67? H -0.1128 0.5075 0.1418
H68? H -0.1580 0.5362 0.0838
H69? H -0.1339 0.5376 0.2035
loop_
_geom_bond_atom_site_label_1
_geom_bond_atom_site_label_2
_geom_bond_site_symmetry_1
_geom_bond_site_symmetry_2
C1 C2 1_555 1_555
C2 H1 1_555 1_555
C3 C2 1_555 1_555
H2 C3 1_555 1_555
C4 C3 1_555 1_555
C5 C4 1_555 1_555
H3 C5 1_555 1_555
C6 C1 1_555 1_555
H4 C6 1_555 1_555
C7 C4 1_555 1_555
H5 C7 1_555 1_555
H6 C7 1_555 1_555
H7 C7 1_555 1_555
C8 C9 1_555 1_555
C9 H8 1_555 1_555
C10 C9 1_555 1_555
H9 C10 1_555 1_555
C11 C10 1_555 1_555
C12 C11 1_555 1_555
H10 C12 1_555 1_555
C13 C8 1_555 1_555
H11 C13 1_555 1_555
C14 C11 1_555 1_555
H12 C14 1_555 1_555
H13 C14 1_555 1_555
H14 C14 1_555 1_555
C15 H15 1_555 1_555
C16 C15 1_555 1_555
H16 C16 1_555 1_555
C17 C16 1_555 1_555
C18 C17 1_555 1_555
H17 C18 1_555 1_555
C19 C18 1_555 1_555
H18 C19 1_555 1_555
C20 C17 1_555 1_555
C21 C20 1_555 1_555
H19 C21 1_555 1_555
C22 C21 1_555 1_555
H20 C22 1_555 1_555
C23 H21 1_555 1_555
C24 C20 1_555 1_555
H22 C24 1_555 1_555
C25 C26 1_555 1_555
C26 H23 1_555 1_555
C27 C26 1_555 1_555
H24 C27 1_555 1_555
C28 C27 1_555 1_555
C29 C28 1_555 1_555
H25 C29 1_555 1_555
C30 C25 1_555 1_555
H26 C30 1_555 1_555
C31 C28 1_555 1_555
H27 C31 1_555 1_555
H28 C31 1_555 1_555
H29 C31 1_555 1_555
C32 H30 1_555 1_555
C33 C32 1_555 1_555
H31 C33 1_555 1_555
C34 C33 1_555 1_555
C35 C34 1_555 1_555
H32 C35 1_555 1_555
C36 C35 1_555 1_555
H33 C36 1_555 1_555
C37 C34 1_555 1_555
C38 C37 1_555 1_555
H34 C38 1_555 1_555
C39 C38 1_555 1_555
H35 C39 1_555 1_555
C40 H36 1_555 1_555
C41 C37 1_555 1_555
H37 C41 1_555 1_555
C42 C43 1_555 1_555
C43 H38 1_555 1_555
C44 C43 1_555 1_555
H39 C44 1_555 1_555
C45 C44 1_555 1_555
C46 C45 1_555 1_555
H40 C46 1_555 1_555
C47 C42 1_555 1_555
H41 C47 1_555 1_555
C48 C45 1_555 1_555
H42 C48 1_555 1_555
H43 C48 1_555 1_555
H44 C48 1_555 1_555
C49 H45 1_555 1_555
H46 C49 1_555 1_555
H47 C49 1_555 1_555
C50 H48 1_555 1_555
H49 C50 1_555 1_555
H50 C50 1_555 1_555
N1 C15 1_555 1_555
N2 C22 1_555 1_555
N3 C32 1_555 1_555
N4 C39 1_555 1_555
O1 H51 1_555 1_555
H52 O1 1_555 1_555
O2 H53 1_555 1_555
H54 O2 1_555 1_555
O3 H55 1_555 1_555
H56 O3 1_555 1_555
O5 H59 1_555 1_555
H60 O5 1_555 1_555
O6 C49 1_555 1_555
H61 O6 1_555 1_555
O7 C50 1_555 1_555
H62 O7 1_555 1_555
S1 C1 1_555 1_555
S2 C8 1_555 1_555
S3 C25 1_555 1_555
S4 C42 1_555 1_555
Zn1 N1 1_555 1_555
Zn2 N2 1_555 1_555
Zn3 N4 1_555 1_555
C1A C2A 1_555 1_555
C2A H1A 1_555 1_555
C3A C2A 1_555 1_555
H2A C3A 1_555 1_555
C4A C3A 1_555 1_555
C5A C4A 1_555 1_555
H3A C5A 1_555 1_555
C6A C1A 1_555 1_555
H4A C6A 1_555 1_555
C7A C4A 1_555 1_555
H5A C7A 1_555 1_555
H6A C7A 1_555 1_555
H7A C7A 1_555 1_555
C8A C9A 1_555 1_555
C9A H8A 1_555 1_555
C10A C9A 1_555 1_555
H9A C10A 1_555 1_555
C11A C10A 1_555 1_555
C12A C11A 1_555 1_555
H10A C12A 1_555 1_555
C13A C8A 1_555 1_555
H11A C13A 1_555 1_555
C14A C11A 1_555 1_555
H12A C14A 1_555 1_555
H13A C14A 1_555 1_555
H14A C14A 1_555 1_555
C15A H15A 1_555 1_555
C16A C15A 1_555 1_555
H16A C16A 1_555 1_555
C17A C16A 1_555 1_555
C18A C17A 1_555 1_555
H17A C18A 1_555 1_555
C19A C18A 1_555 1_555
H18A C19A 1_555 1_555
C20A C17A 1_555 1_555
C21A C20A 1_555 1_555
H19A C21A 1_555 1_555
C22A C21A 1_555 1_555
H20A C22A 1_555 1_555
C23A H21A 1_555 1_555
C24A C20A 1_555 1_555
H22A C24A 1_555 1_555
C25A C26A 1_555 1_555
C26A H23A 1_555 1_555
C27A C26A 1_555 1_555
H24A C27A 1_555 1_555
C28A C27A 1_555 1_555
C29A C28A 1_555 1_555
H25A C29A 1_555 1_555
C30A C25A 1_555 1_555
H26A C30A 1_555 1_555
C31A C28A 1_555 1_555
H27A C31A 1_555 1_555
H28A C31A 1_555 1_555
H29A C31A 1_555 1_555
C32A H30A 1_555 1_555
C33A C32A 1_555 1_555
H31A C33A 1_555 1_555
C34A C33A 1_555 1_555
C35A C34A 1_555 1_555
H32A C35A 1_555 1_555
C36A C35A 1_555 1_555
H33A C36A 1_555 1_555
C37A C34A 1_555 1_555
C38A C37A 1_555 1_555
H34A C38A 1_555 1_555
C39A C38A 1_555 1_555
H35A C39A 1_555 1_555
C40A H36A 1_555 1_555
C41A C37A 1_555 1_555
H37A C41A 1_555 1_555
C42A C43A 1_555 1_555
C43A H38A 1_555 1_555
C44A C43A 1_555 1_555
H39A C44A 1_555 1_555
C45A C44A 1_555 1_555
C46A C45A 1_555 1_555
H40A C46A 1_555 1_555
C47A C42A 1_555 1_555
H41A C47A 1_555 1_555
C48A C45A 1_555 1_555
H42A C48A 1_555 1_555
H43A C48A 1_555 1_555
H44A C48A 1_555 1_555
N1A C15A 1_555 1_555
N2A Zn2 1_555 1_555
N3A C32A 1_555 1_555
N4A C39A 1_555 1_555
N4A_2 Zn3 1_555 1_555
S1A C1A 1_555 1_555
S2A C8A 1_555 1_555
S3A Zn2 1_555 1_555
S4A Zn3 1_555 1_555
Zn1A N1A 1_555 1_555
Zn3_2 N4A 1_555 1_555
C5 C6 1_555 1_555
C12 C13 1_555 1_555
C19 N1 1_555 1_555
C23 C24 1_555 1_555
C23 N2 1_555 1_555
C29 C30 1_555 1_555
C36 N3 1_555 1_555
C40 C41 1_555 1_555
C40 N4 1_555 1_555
C46 C47 1_555 1_555
N3 Zn1 1_555 1_555
S1 Zn1 1_555 1_555
S2 Zn1 1_555 1_555
S3 Zn2 1_555 1_555
S4 Zn3 1_555 1_555
C5A C6A 1_555 1_555
C12A C13A 1_555 1_555
C19A N1A 1_555 1_555
C22A N2A 1_555 1_555
C23A C24A 1_555 1_555
C23A N2A 1_555 1_555
C25A S3A 1_555 1_555
C29A C30A 1_555 1_555
C36A N3A 1_555 1_555
C40A C41A 1_555 1_555
C40A N4A 1_555 1_555
C42A S4A 1_555 1_555
C46A C47A 1_555 1_555
N3A Zn1A 1_555 1_555
S1A Zn1A 1_555 1_555
S2A Zn1A 1_555 1_555

#END
