
#######################################################################
#
#                 Cambridge Crystallographic Data Centre
#                                CCDC 
#
#######################################################################
#
# If this CIF has been generated from an entry in the Cambridge 
# Structural Database, then it will include bibliographic, chemical, 
# crystal, experimental, refinement or atomic coordinate data resulting 
# from the CCDC's data processing and validation procedures.
#
#######################################################################

data_MUFVUF
_symmetry_cell_setting           monoclinic
_symmetry_space_group_name_H-M   'P 21/n'
_symmetry_Int_Tables_number      14
_space_group_name_Hall           '-P 2yn'
loop_
_symmetry_equiv_pos_site_id
_symmetry_equiv_pos_as_xyz
1 x,y,z
2 1/2-x,1/2+y,1/2-z
3 -x,-y,-z
4 1/2+x,1/2-y,1/2+z
_cell_length_a                   9.128(2)
_cell_length_b                   11.961(3)
_cell_length_c                   20.561(5)
_cell_angle_alpha                90
_cell_angle_beta                 98.476(4)
_cell_angle_gamma                90
_cell_volume                     2220.33
loop_
_atom_site_label
_atom_site_type_symbol
_atom_site_fract_x
_atom_site_fract_y
_atom_site_fract_z
Cu1 Cu 0.96788(5) 0.35717(5) 0.05206(2)
O1 O 1.0702(3) 0.3417(2) 0.14297(13)
O2 O 0.9882(4) 0.1679(3) 0.13329(16)
O3 O 1.3298(4) 0.2052(4) 0.47272(16)
O4 O 1.4029(4) 0.0441(4) 0.4382(2)
N1 N 0.6729(4) 0.5471(3) 0.13489(18)
N2 N 0.5723(4) 0.4894(4) 0.0931(2)
N3 N 0.7998(4) 0.4322(3) 0.08360(16)
N4 N 0.7352(4) 0.7832(3) 0.05392(17)
N5 N 0.6378(4) 0.7193(4) 0.0148(2)
N6 N 0.8613(4) 0.7038(3) -0.01425(16)
C1 C 0.7458(5) 0.7111(4) 0.2054(2)
C2 C 0.7783(5) 0.8100(4) 0.1741(2)
C3 C 0.8940(6) 0.8773(4) 0.2040(3)
H1 H 0.9168 0.9444 0.1839
C4 C 0.9751(6) 0.8451(5) 0.2633(3)
H2 H 1.0545 0.8900 0.2824
C5 C 0.9426(7) 0.7506(5) 0.2945(3)
H3 H 0.9972 0.7311 0.3353
C6 C 0.8290(6) 0.6835(5) 0.2656(3)
H4 H 0.8069 0.6175 0.2870
C7 C 0.6236(5) 0.6337(4) 0.1777(3)
H5 H 0.5833 0.5975 0.2140
H6 H 0.5439 0.6773 0.1525
C8 C 0.6920(6) 0.8463(4) 0.1100(2)
H7 H 0.5861 0.8353 0.1113
H8 H 0.7086 0.9263 0.1036
C9 C 0.6524(5) 0.4216(4) 0.0632(2)
H9 H 0.6119 0.3705 0.0307
C10 C 0.8079(5) 0.5127(4) 0.1284(2)
H10 H 0.8962 0.5410 0.1519
C11 C 0.7187(5) 0.6725(5) -0.0252(2)
H11 H 0.6806 0.6218 -0.0583
C12 C 0.8672(5) 0.7725(4) 0.0362(2)
H12 H 0.9533 0.8087 0.0566
C13 C 1.1416(4) 0.2199(3) 0.23224(18)
C14 C 1.1558(5) 0.3020(4) 0.27982(19)
H13 H 1.1222 0.3750 0.2693
C15 C 1.2206(5) 0.2758(4) 0.3440(2)
H14 H 1.2297 0.3311 0.3768
C16 C 1.2715(4) 0.1681(4) 0.35895(19)
C17 C 1.2637(5) 0.0880(4) 0.3106(2)
H15 H 1.3037 0.0165 0.3205
C18 C 1.1968(5) 0.1130(4) 0.2474(2)
H16 H 1.1886 0.0576 0.2146
C19 C 1.0606(5) 0.2441(4) 0.16436(18)
C20 C 1.3395(5) 0.1341(5) 0.4279(2)
Cu1C Cu 1.46788(5) 0.14283(5) 0.55206(2)
Cu1A Cu 1.53212(5) -0.14283(5) 0.44794(2)
Cu1B Cu 1.03212(5) 0.64283(5) -0.05206(2)
O3C O 0.8298(4) 0.2948(4) -0.02728(16)
O4A O 1.0971(4) 0.5441(4) 0.0618(2)
O4C O 0.9029(4) 0.4559(4) -0.0618(2)
N6B N 1.1387(4) 0.2962(3) 0.01425(16)
O5 O 1.0908(6) -0.0013(4) 0.0615(3)
O6 O 0.6919(8) 0.1286(6) 0.0601(4)
O7 O 0.6037(10) -0.0160(9) -0.0600(7)
loop_
_geom_bond_atom_site_label_1
_geom_bond_atom_site_label_2
_geom_bond_site_symmetry_1
_geom_bond_site_symmetry_2
Cu1 O1 1_555 1_555
O1 C19 1_555 1_555
O2 C19 1_555 1_555
O3 C20 1_555 1_555
O4 C20 1_555 1_555
N1 N2 1_555 1_555
N2 C9 1_555 1_555
N3 Cu1 1_555 1_555
N4 N5 1_555 1_555
N5 C11 1_555 1_555
N6 C11 1_555 1_555
C1 C2 1_555 1_555
C2 C3 1_555 1_555
C3 H1 1_555 1_555
C4 C3 1_555 1_555
H2 C4 1_555 1_555
C5 C4 1_555 1_555
H3 C5 1_555 1_555
C6 C1 1_555 1_555
H4 C6 1_555 1_555
C7 N1 1_555 1_555
H5 C7 1_555 1_555
H6 C7 1_555 1_555
C8 N4 1_555 1_555
H7 C8 1_555 1_555
H8 C8 1_555 1_555
C9 N3 1_555 1_555
H9 C9 1_555 1_555
C10 N1 1_555 1_555
H10 C10 1_555 1_555
C11 H11 1_555 1_555
C12 N4 1_555 1_555
H12 C12 1_555 1_555
C13 C14 1_555 1_555
C14 H13 1_555 1_555
C15 C14 1_555 1_555
H14 C15 1_555 1_555
C16 C15 1_555 1_555
C17 C16 1_555 1_555
H15 C17 1_555 1_555
C18 C13 1_555 1_555
H16 C18 1_555 1_555
C19 C13 1_555 1_555
C20 C16 1_555 1_555
Cu1C O3 1_555 1_555
Cu1A O4 1_555 1_555
Cu1B N6 1_555 1_555
O3C Cu1 1_555 1_555
O4A Cu1 1_555 1_555
O4C Cu1 1_555 1_555
N6B Cu1 1_555 1_555
O4 Cu1C 1_555 1_555
N3 C10 1_555 1_555
N6 C12 1_555 1_555
C1 C7 1_555 1_555
C2 C8 1_555 1_555
C5 C6 1_555 1_555
C17 C18 1_555 1_555
Cu1B O4A 1_555 1_555
Cu1B O4C 1_555 1_555

#END
