
#######################################################################
#
#                 Cambridge Crystallographic Data Centre
#                                CCDC 
#
#######################################################################
#
# If this CIF has been generated from an entry in the Cambridge 
# Structural Database, then it will include bibliographic, chemical, 
# crystal, experimental, refinement or atomic coordinate data resulting 
# from the CCDC's data processing and validation procedures.
#
#######################################################################

data_MUFVOZ
_symmetry_cell_setting           monoclinic
_symmetry_space_group_name_H-M   'P 21/n'
_symmetry_Int_Tables_number      14
_space_group_name_Hall           '-P 2yn'
loop_
_symmetry_equiv_pos_site_id
_symmetry_equiv_pos_as_xyz
1 x,y,z
2 1/2-x,1/2+y,1/2-z
3 -x,-y,-z
4 1/2+x,1/2-y,1/2+z
_cell_length_a                   11.2631(18)
_cell_length_b                   10.9751(17)
_cell_length_c                   15.581(3)
_cell_angle_alpha                90
_cell_angle_beta                 95.302(4)
_cell_angle_gamma                90
_cell_volume                     1917.78
loop_
_atom_site_label
_atom_site_type_symbol
_atom_site_fract_x
_atom_site_fract_y
_atom_site_fract_z
Cu1 Cu 0.60416(4) 0.61257(4) 0.42183(3)
O1 O 0.6843(2) 0.5694(2) 0.31904(17)
O2 O 0.7614(3) 0.7530(3) 0.34574(19)
O3 O 0.9863(3) 0.9183(3) 0.0986(2)
O4 O 1.0628(2) 0.7821(2) 0.01436(17)
N1 N 0.2835(3) 0.7502(3) 0.3150(2)
N2 N 0.3166(4) 0.6963(4) 0.2432(3)
N3 N 0.4573(3) 0.6719(3) 0.3519(2)
N4 N 0.1213(3) 0.5866(3) 0.4569(3)
N5 N 0.1286(4) 0.5036(4) 0.3935(3)
N6 N 0.2619(3) 0.4615(3) 0.5032(2)
C1 C 0.1538(4) 0.8702(4) 0.4006(3)
C2 C 0.0950(3) 0.8104(4) 0.4636(3)
C3 C 0.0914(4) 0.8670(5) 0.5433(3)
H1 H 0.0536 0.8275 0.5861
C4 C 0.1415(5) 0.9782(6) 0.5606(4)
H2 H 0.1368 1.0145 0.6141
C5 C 0.1986(5) 1.0359(5) 0.4989(4)
H3 H 0.2343 1.1113 0.5107
C6 C 0.2038(4) 0.9834(5) 0.4196(4)
H4 H 0.2416 1.0247 0.3776
C7 C 0.1687(4) 0.8137(6) 0.3149(3)
H5 H 0.1044 0.7563 0.3006
H6 H 0.1638 0.8767 0.2710
C8 C 0.0354(4) 0.6881(5) 0.4492(4)
H7 H -0.0224 0.6772 0.4911
H8 H -0.0073 0.6867 0.3922
C9 C 0.4209(4) 0.6499(5) 0.2690(3)
H9 H 0.4659 0.6055 0.2328
C10 C 0.3686(3) 0.7357(4) 0.3788(3)
H10 H 0.3662 0.7661 0.4343
C11 C 0.2135(4) 0.4307(5) 0.4239(3)
H11 H 0.2384 0.3637 0.3938
C12 C 0.2019(4) 0.5598(4) 0.5215(3)
H12 H 0.2143 0.6040 0.5725
C13 C 0.8377(3) 0.6338(3) 0.2359(2)
C14 C 0.8859(3) 0.7305(3) 0.1937(2)
H13 H 0.8695 0.8101 0.2093
C15 C 0.9594(3) 0.7086(3) 0.1274(2)
C16 C 0.9855(3) 0.5895(3) 0.1070(3)
H14 H 1.0346 0.5742 0.0634
C17 C 0.9401(4) 0.4935(4) 0.1500(3)
H15 H 0.9599 0.4140 0.1363
C18 C 0.8652(3) 0.5149(3) 0.2135(3)
H16 H 0.8329 0.4497 0.2416
C19 C 0.7554(3) 0.6564(3) 0.3049(2)
C20 C 1.0056(3) 0.8129(4) 0.0777(2)
Cu1A Cu 0.89584(4) 1.11257(4) 0.07817(3)
Cu1C Cu 1.10416(4) 0.88743(4) -0.07817(3)
Cu1B Cu 0.39584(4) 0.38743(4) 0.57817(3)
O3A O 0.5137(3) 0.4183(3) 0.4014(2)
O4C O 0.5628(2) 0.7179(2) 0.51436(17)
N6B N 0.7381(3) 0.5385(3) 0.4968(2)
loop_
_geom_bond_atom_site_label_1
_geom_bond_atom_site_label_2
_geom_bond_site_symmetry_1
_geom_bond_site_symmetry_2
Cu1 O1 1_555 1_555
O1 C19 1_555 1_555
O2 Cu1 1_555 1_555
O3 C20 1_555 1_555
O4 C20 1_555 1_555
N1 N2 1_555 1_555
N2 C9 1_555 1_555
N3 Cu1 1_555 1_555
N4 N5 1_555 1_555
N5 C11 1_555 1_555
N6 C11 1_555 1_555
C1 C2 1_555 1_555
C2 C3 1_555 1_555
C3 H1 1_555 1_555
C4 C3 1_555 1_555
H2 C4 1_555 1_555
C5 C4 1_555 1_555
H3 C5 1_555 1_555
C6 C1 1_555 1_555
H4 C6 1_555 1_555
C7 N1 1_555 1_555
H5 C7 1_555 1_555
H6 C7 1_555 1_555
C8 N4 1_555 1_555
H7 C8 1_555 1_555
H8 C8 1_555 1_555
C9 N3 1_555 1_555
H9 C9 1_555 1_555
C10 N1 1_555 1_555
H10 C10 1_555 1_555
C11 H11 1_555 1_555
C12 N4 1_555 1_555
H12 C12 1_555 1_555
C13 C14 1_555 1_555
C14 H13 1_555 1_555
C15 C14 1_555 1_555
C16 C15 1_555 1_555
H14 C16 1_555 1_555
C17 C16 1_555 1_555
H15 C17 1_555 1_555
C18 C13 1_555 1_555
H16 C18 1_555 1_555
C19 O2 1_555 1_555
C20 C15 1_555 1_555
Cu1A O3 1_555 1_555
Cu1C O4 1_555 1_555
Cu1B N6 1_555 1_555
O3A Cu1 1_555 1_555
O4C Cu1 1_555 1_555
N6B Cu1 1_555 1_555
N3 C10 1_555 1_555
N6 C12 1_555 1_555
C1 C7 1_555 1_555
C2 C8 1_555 1_555
C5 C6 1_555 1_555
C13 C19 1_555 1_555
C17 C18 1_555 1_555

#END
