
#######################################################################
#
#                 Cambridge Crystallographic Data Centre
#                                CCDC 
#
#######################################################################
#
# If this CIF has been generated from an entry in the Cambridge 
# Structural Database, then it will include bibliographic, chemical, 
# crystal, experimental, refinement or atomic coordinate data resulting 
# from the CCDC's data processing and validation procedures.
#
#######################################################################

data_MUFWUG
_symmetry_cell_setting           monoclinic
_symmetry_space_group_name_H-M   'P 21/n'
_symmetry_Int_Tables_number      14
_space_group_name_Hall           '-P 2yn'
loop_
_symmetry_equiv_pos_site_id
_symmetry_equiv_pos_as_xyz
1 x,y,z
2 1/2-x,1/2+y,1/2-z
3 -x,-y,-z
4 1/2+x,1/2-y,1/2+z
_cell_length_a                   10.8498(17)
_cell_length_b                   17.578(2)
_cell_length_c                   10.9966(18)
_cell_angle_alpha                90
_cell_angle_beta                 104.999(3)
_cell_angle_gamma                90
_cell_volume                     2025.79
loop_
_atom_site_label
_atom_site_type_symbol
_atom_site_fract_x
_atom_site_fract_y
_atom_site_fract_z
Zn1 Zn 0.24430(5) 0.71243(3) 1.12337(4)
Cl1 Cl 0.25567(12) 0.58725(6) 1.14209(10)
N1 N -0.1033(3) 0.76619(16) 0.8860(3)
N2 N -0.1642(3) 0.72774(17) 0.7767(3)
N3 N 0.3877(3) 0.75667(19) 0.8107(3)
N4 N 0.4680(3) 0.71306(19) 0.7620(3)
H1 H 0.4951 0.7246 0.6974
O1 O 0.0659(2) 0.74929(13) 1.0621(2)
O2 O 0.3042(3) 0.75229(14) 0.9826(2)
C1 C 0.0003(4) 0.7262(2) 0.9531(3)
C2 C 0.0087(4) 0.6622(2) 0.8794(3)
H2 H 0.0711 0.6246 0.8976
C3 C -0.0931(4) 0.6659(2) 0.7752(3)
C4 C -0.1301(4) 0.6081(2) 0.6712(3)
H3 H -0.1424 0.5595 0.7061
H4 H -0.0635 0.6042 0.6285
H5 H -0.2079 0.6236 0.6125
C5 C -0.1695(4) 0.8213(2) 0.9404(3)
C6 C -0.1250(5) 0.8940(3) 0.9632(4)
H6 H -0.0517 0.9088 0.9406
C7 C -0.1886(6) 0.9455(3) 1.0196(5)
H7 H -0.1577 0.9949 1.0354
C8 C -0.2946(6) 0.9247(4) 1.0516(5)
H8 H -0.3383 0.9602 1.0873
C9 C -0.3393(5) 0.8520(4) 1.0324(5)
H9 H -0.4113 0.8377 1.0580
C10 C -0.2776(4) 0.7992(3) 0.9747(4)
H10 H -0.3087 0.7498 0.9594
C11 C 0.3709(4) 0.7208(2) 0.9166(3)
C12 C 0.4405(4) 0.6533(2) 0.9280(3)
H11 H 0.4471 0.6170 0.9909
C13 C 0.4976(4) 0.6497(2) 0.8307(3)
C14 C 0.5852(4) 0.5920(2) 0.7997(3)
H12 H 0.5835 0.5959 0.7122
H13 H 0.5582 0.5420 0.8168
H14 H 0.6704 0.6009 0.8502
C15 C 0.3405(4) 0.8278(2) 0.7578(3)
C16 C 0.4152(5) 0.8747(3) 0.7063(4)
H15 H 0.4990 0.8611 0.7103
C17 C 0.3660(7) 0.9420(3) 0.6486(5)
H16 H 0.4148 0.9721 0.6094
C18 C 0.2447(7) 0.9643(3) 0.6493(5)
H17 H 0.2127 1.0106 0.6138
C19 C 0.1711(5) 0.9183(3) 0.7023(4)
H18 H 0.0889 0.9332 0.7021
C20 C 0.2187(5) 0.8498(3) 0.7561(4)
H19 H 0.1680 0.8185 0.7913
Zn1C Zn -0.25570(5) 0.78757(3) 0.62337(4)
N2C N 0.3358(3) 0.77226(17) 1.2767(3)
loop_
_geom_bond_atom_site_label_1
_geom_bond_atom_site_label_2
_geom_bond_site_symmetry_1
_geom_bond_site_symmetry_2
Zn1 Cl1 1_555 1_555
N1 N2 1_555 1_555
N2 C3 1_555 1_555
N3 N4 1_555 1_555
N4 H1 1_555 1_555
O1 Zn1 1_555 1_555
O2 Zn1 1_555 1_555
C1 N1 1_555 1_555
C2 C1 1_555 1_555
H2 C2 1_555 1_555
C3 C2 1_555 1_555
C4 C3 1_555 1_555
H3 C4 1_555 1_555
H4 C4 1_555 1_555
H5 C4 1_555 1_555
C5 N1 1_555 1_555
C6 C5 1_555 1_555
H6 C6 1_555 1_555
C7 C6 1_555 1_555
H7 C7 1_555 1_555
C8 C7 1_555 1_555
H8 C8 1_555 1_555
C9 C8 1_555 1_555
H9 C9 1_555 1_555
C10 C5 1_555 1_555
H10 C10 1_555 1_555
C11 N3 1_555 1_555
C12 C11 1_555 1_555
H11 C12 1_555 1_555
C13 N4 1_555 1_555
C14 C13 1_555 1_555
H12 C14 1_555 1_555
H13 C14 1_555 1_555
H14 C14 1_555 1_555
C15 N3 1_555 1_555
C16 C15 1_555 1_555
H15 C16 1_555 1_555
C17 C16 1_555 1_555
H16 C17 1_555 1_555
C18 C17 1_555 1_555
H17 C18 1_555 1_555
C19 C18 1_555 1_555
H18 C19 1_555 1_555
C20 C15 1_555 1_555
H19 C20 1_555 1_555
Zn1C N2 1_555 1_555
N2C Zn1 1_555 1_555
O1 C1 1_555 1_555
O2 C11 1_555 1_555
C9 C10 1_555 1_555
C12 C13 1_555 1_555
C19 C20 1_555 1_555

#END
