
#######################################################################
#
#                 Cambridge Crystallographic Data Centre
#                                CCDC 
#
#######################################################################
#
# If this CIF has been generated from an entry in the Cambridge 
# Structural Database, then it will include bibliographic, chemical, 
# crystal, experimental, refinement or atomic coordinate data resulting 
# from the CCDC's data processing and validation procedures.
#
#######################################################################

data_MUFYUI
_symmetry_cell_setting           triclinic
_symmetry_space_group_name_H-M   'P -1'
_symmetry_Int_Tables_number      2
_space_group_name_Hall           '-P 1'
loop_
_symmetry_equiv_pos_site_id
_symmetry_equiv_pos_as_xyz
1 x,y,z
2 -x,-y,-z
_cell_length_a                   11.1567(9)
_cell_length_b                   15.4314(13)
_cell_length_c                   20.8618(17)
_cell_angle_alpha                91.765(2)
_cell_angle_beta                 92.646(2)
_cell_angle_gamma                91.871(2)
_cell_volume                     3584.02
loop_
_atom_site_label
_atom_site_type_symbol
_atom_site_fract_x
_atom_site_fract_y
_atom_site_fract_z
Fe1 Fe 0.86903(4) 0.72365(3) 0.199703(18)
Fe2 Fe 0.81651(3) 0.77408(3) 0.696035(18)
Mn1 Mn 0.84241(4) 0.71674(3) -0.04905(2)
Mn2 Mn 0.83633(4) 0.78502(3) 0.44740(2)
Br1 Br 1.47619(3) 0.85675(3) 0.550290(19)
Br2 Br 0.20009(3) 0.80705(3) 0.333940(18)
Br3 Br 0.20487(4) 0.73865(3) -0.16259(2)
Br4 Br 1.46517(4) 0.61113(3) 0.05048(2)
N1 N 0.9047(2) 0.74931(19) 0.34777(12)
N2 N 0.8094(3) 0.68076(18) 0.05527(12)
N3 N 0.7659(2) 0.80270(19) 0.55042(12)
N4 N 0.8685(3) 0.76000(17) -0.15580(12)
N5 N 0.6984(2) 0.69404(17) 0.21719(11)
N6 N 0.8068(2) 0.83602(16) 0.19153(11)
N7 N 1.0151(2) 0.78022(16) 0.18172(11)
N8 N 0.9708(2) 0.61894(16) 0.19755(10)
N9 N 0.6623(2) 0.82424(16) 0.71982(11)
N10 N 0.7215(2) 0.67065(15) 0.69084(11)
N11 N 0.9417(2) 0.70023(15) 0.67469(11)
N12 N 0.9441(2) 0.86610(16) 0.68754(10)
N13 N 0.9393(2) 0.69513(17) 0.48538(11)
N14 N 0.7242(2) 0.68306(17) 0.43110(12)
N15 N 0.7377(3) 0.81653(17) -0.03309(12)
N16 N 0.9676(2) 0.80147(17) -0.01142(11)
C1 C 0.8961(3) 0.73760(19) 0.29302(14)
C2 C 0.8286(3) 0.69390(19) 0.10887(14)
C3 C 0.7778(2) 0.79559(19) 0.60464(14)
C4 C 0.8538(3) 0.76650(18) -0.21019(14)
C5 C 0.9410(3) 0.5354(2) 0.20369(15)
H1 H 0.8645 0.5206 0.2166
C6 C 1.0192(3) 0.4696(2) 0.19159(16)
H2 H 0.9951 0.4120 0.1962
C7 C 1.1317(3) 0.4899(2) 0.17290(16)
H3 H 1.1850 0.4466 0.1638
C8 C 1.1645(3) 0.5755(2) 0.16786(15)
H4 H 1.2414 0.5910 0.1560
C9 C 1.0837(3) 0.6385(2) 0.18035(13)
C10 C 1.1130(3) 0.7331(2) 0.17400(14)
C11 C 1.0092(3) 0.8695(2) 0.17440(13)
C12 C 1.1052(3) 0.9268(2) 0.16393(14)
H5 H 1.1827 0.9069 0.1620
C13 C 1.0831(3) 1.0140(2) 0.15638(15)
H6 H 1.1468 1.0526 0.1500
C14 C 0.9685(3) 1.0442(2) 0.15826(16)
H7 H 0.9557 1.1026 0.1517
C15 C 0.8725(3) 0.9891(2) 0.16972(15)
H8 H 0.7956 1.0102 0.1716
C16 C 0.8919(3) 0.90118(19) 0.17852(13)
C17 C 0.6885(3) 0.8460(2) 0.19530(15)
C18 C 0.6267(3) 0.7629(2) 0.21039(14)
C19 C 0.5044(3) 0.7551(3) 0.21712(16)
H9 H 0.4566 0.8027 0.2112
C20 C 0.4538(3) 0.6767(3) 0.23262(17)
H10 H 0.3714 0.6704 0.2370
C21 C 0.5263(3) 0.6080(3) 0.24154(17)
H11 H 0.4939 0.5548 0.2531
C22 C 0.6481(3) 0.6183(2) 0.23319(16)
H12 H 0.6967 0.5711 0.2389
C23 C 0.6396(3) 0.9045(2) 0.74013(15)
H13 H 0.7031 0.9452 0.7450
C24 C 0.5257(3) 0.9303(2) 0.75439(16)
H14 H 0.5129 0.9869 0.7684
C25 C 0.4323(3) 0.8701(3) 0.74728(17)
H15 H 0.3546 0.8857 0.7559
C26 C 0.4545(3) 0.7867(2) 0.72737(16)
H16 H 0.3920 0.7453 0.7223
C27 C 0.5699(3) 0.7651(2) 0.71504(14)
C28 C 0.6028(3) 0.6747(2) 0.69805(15)
C29 C 0.7829(3) 0.5961(2) 0.67361(14)
C30 C 0.7357(3) 0.5123(2) 0.66578(18)
H17 H 0.6547 0.5006 0.6714
C31 C 0.8101(4) 0.4462(2) 0.6495(2)
H18 H 0.7782 0.3899 0.6442
C32 C 0.9301(3) 0.4617(2) 0.64094(17)
H19 H 0.9784 0.4161 0.6301
C33 C 0.9792(3) 0.5447(2) 0.64844(15)
H20 H 1.0603 0.5552 0.6422
C34 C 0.9065(3) 0.61327(19) 0.66556(13)
C35 C 1.0527(3) 0.7353(2) 0.66970(13)
C36 C 1.0511(3) 0.8319(2) 0.67505(13)
C37 C 1.1495(3) 0.8834(2) 0.66184(15)
H21 H 1.2226 0.8585 0.6545
C38 C 1.1387(3) 0.9725(2) 0.65963(17)
H22 H 1.2044 1.0082 0.6510
C39 C 1.0289(3) 1.0075(2) 0.67046(15)
H23 H 1.0189 1.0669 0.6684
C40 C 0.9347(3) 0.9528(2) 0.68437(14)
H24 H 0.8610 0.9766 0.6920
C41 C 1.0694(3) 0.8649(2) 0.48231(14)
C42 C 1.1443(3) 0.9398(2) 0.48365(15)
H25 H 1.1130 0.9920 0.4707
C43 C 1.2627(3) 0.9373(3) 0.50369(15)
H26 H 1.3109 0.9877 0.5045
C44 C 1.3112(3) 0.8605(3) 0.52265(16)
C45 C 1.2415(3) 0.7859(3) 0.52256(16)
H27 H 1.2748 0.7344 0.5356
C46 C 1.1190(3) 0.7872(2) 0.50266(14)
C47 C 1.0511(3) 0.7069(2) 0.50429(15)
H28 H 1.0904 0.6593 0.5202
C48 C 0.8753(3) 0.6118(2) 0.49259(17)
H29 H 0.8372 0.6115 0.5334
H30 H 0.9314 0.5651 0.4916
C49 C 0.7825(3) 0.5990(2) 0.43870(19)
H31 H 0.8198 0.5817 0.3994
H32 H 0.7238 0.5543 0.4487
C50 C 0.6145(3) 0.6848(2) 0.41085(16)
H33 H 0.5715 0.6322 0.4060
C51 C 0.5528(3) 0.7620(2) 0.39502(14)
C52 C 0.4295(3) 0.7522(2) 0.37734(15)
H34 H 0.3918 0.6976 0.3777
C53 C 0.3648(3) 0.8220(2) 0.35973(15)
C54 C 0.4204(3) 0.9037(2) 0.35937(17)
H35 H 0.3760 0.9512 0.3479
C55 C 0.5407(3) 0.9147(2) 0.37590(16)
H36 H 0.5769 0.9697 0.3746
C56 C 0.6105(3) 0.8447(2) 0.39470(13)
C57 C 0.6012(3) 0.6725(2) -0.10057(14)
C58 C 0.5221(3) 0.6105(2) -0.13238(17)
H37 H 0.5488 0.5553 -0.1419
C59 C 0.4060(3) 0.6304(3) -0.14963(17)
H38 H 0.3549 0.5884 -0.1702
C60 C 0.3649(3) 0.7120(3) -0.13661(17)
C61 C 0.4385(3) 0.7745(2) -0.10682(16)
H39 H 0.4101 0.8295 -0.0986
C62 C 0.5582(3) 0.7558(2) -0.08833(15)
C63 C 0.6272(3) 0.8222(2) -0.05314(16)
H40 H 0.5896 0.8737 -0.0439
C64 C 0.7937(3) 0.8839(2) 0.01110(17)
H41 H 0.7822 0.8687 0.0552
H42 H 0.7574 0.9392 0.0037
C65 C 0.9254(3) 0.8900(2) -0.00115(16)
H43 H 0.9385 0.9238 -0.0388
H44 H 0.9694 0.9182 0.0353
C66 C 1.0749(3) 0.7827(2) 0.00709(15)
H45 H 1.1227 0.8272 0.0270
C67 C 1.1276(3) 0.7004(2) 0.00003(15)
C68 C 1.2478(3) 0.6932(2) 0.02328(16)
H46 H 1.2893 0.7414 0.0421
C69 C 1.3029(3) 0.6166(3) 0.01823(16)
C70 C 1.2424(3) 0.5432(2) -0.01005(16)
H47 H 1.2806 0.4907 -0.0128
C71 C 1.1264(3) 0.5493(2) -0.03367(16)
H48 H 1.0868 0.5002 -0.0524
C72 C 1.0657(3) 0.6272(2) -0.03050(14)
O1 O 0.6319(2) 0.91330(17) 0.18823(14)
O2 O 1.2151(2) 0.75911(15) 0.16207(12)
O3 O 0.5269(2) 0.61480(17) 0.69191(15)
O4 O 1.14608(19) 0.69778(15) 0.65940(12)
O5 O 0.9557(2) 0.63000(14) -0.05549(10)
O6 O 0.7101(2) 0.64802(14) -0.08333(10)
O7 O 0.72374(18) 0.86019(14) 0.41101(10)
O8 O 0.95600(19) 0.87156(14) 0.46300(10)
Fe2_2 Fe 0.81651(3) 0.77408(3) -0.303965(18)
C4_2 C 0.8538(3) 0.76650(18) 0.78981(14)
C73 C 0.4155(6) 0.9204(5) 0.0690(4)
O9 O 0.5202(5) 0.9735(3) 0.0775(2)
C74 C 0.4172(18) 0.5939(8) 0.5193(9)
O10 O 0.4720(12) 0.5610(9) 0.5596(5)
O11 O 0.2864(2) 0.55910(19) 0.69890(16)
loop_
_geom_bond_atom_site_label_1
_geom_bond_atom_site_label_2
_geom_bond_site_symmetry_1
_geom_bond_site_symmetry_2
Fe1 N5 1_555 1_555
Fe2 N9 1_555 1_555
Mn1 N2 1_555 1_555
Mn2 N1 1_555 1_555
Br1 C44 1_555 1_555
Br2 C53 1_555 1_555
Br3 C60 1_555 1_555
Br4 C69 1_555 1_555
N1 C1 1_555 1_555
N2 C2 1_555 1_555
N3 Mn2 1_555 1_555
N4 Mn1 1_555 1_555
N5 C18 1_555 1_555
N6 Fe1 1_555 1_555
N7 Fe1 1_555 1_555
N8 Fe1 1_555 1_555
N9 C23 1_555 1_555
N10 Fe2 1_555 1_555
N11 Fe2 1_555 1_555
N12 Fe2 1_555 1_555
N13 Mn2 1_555 1_555
N14 Mn2 1_555 1_555
N15 Mn1 1_555 1_555
N16 Mn1 1_555 1_555
C1 Fe1 1_555 1_555
C2 Fe1 1_555 1_555
C3 Fe2 1_555 1_555
C4 N4 1_555 1_555
C5 N8 1_555 1_555
H1 C5 1_555 1_555
C6 C5 1_555 1_555
H2 C6 1_555 1_555
C7 C6 1_555 1_555
H3 C7 1_555 1_555
C8 C7 1_555 1_555
H4 C8 1_555 1_555
C9 N8 1_555 1_555
C10 N7 1_555 1_555
C11 N7 1_555 1_555
C12 C11 1_555 1_555
H5 C12 1_555 1_555
C13 C12 1_555 1_555
H6 C13 1_555 1_555
C14 C13 1_555 1_555
H7 C14 1_555 1_555
C15 C14 1_555 1_555
H8 C15 1_555 1_555
C16 N6 1_555 1_555
C17 N6 1_555 1_555
C18 C17 1_555 1_555
C19 C18 1_555 1_555
H9 C19 1_555 1_555
C20 C19 1_555 1_555
H10 C20 1_555 1_555
C21 C20 1_555 1_555
H11 C21 1_555 1_555
C22 N5 1_555 1_555
H12 C22 1_555 1_555
C23 H13 1_555 1_555
C24 C23 1_555 1_555
H14 C24 1_555 1_555
C25 C24 1_555 1_555
H15 C25 1_555 1_555
C26 C25 1_555 1_555
H16 C26 1_555 1_555
C27 N9 1_555 1_555
C28 N10 1_555 1_555
C29 N10 1_555 1_555
C30 C29 1_555 1_555
H17 C30 1_555 1_555
C31 C30 1_555 1_555
H18 C31 1_555 1_555
C32 C31 1_555 1_555
H19 C32 1_555 1_555
C33 C32 1_555 1_555
H20 C33 1_555 1_555
C34 N11 1_555 1_555
C35 N11 1_555 1_555
C36 N12 1_555 1_555
C37 C36 1_555 1_555
H21 C37 1_555 1_555
C38 C37 1_555 1_555
H22 C38 1_555 1_555
C39 C38 1_555 1_555
H23 C39 1_555 1_555
C40 N12 1_555 1_555
H24 C40 1_555 1_555
C41 C42 1_555 1_555
C42 H25 1_555 1_555
C43 C42 1_555 1_555
H26 C43 1_555 1_555
C44 C43 1_555 1_555
C45 C44 1_555 1_555
H27 C45 1_555 1_555
C46 C41 1_555 1_555
C47 N13 1_555 1_555
H28 C47 1_555 1_555
C48 N13 1_555 1_555
H29 C48 1_555 1_555
H30 C48 1_555 1_555
C49 N14 1_555 1_555
H31 C49 1_555 1_555
H32 C49 1_555 1_555
C50 N14 1_555 1_555
H33 C50 1_555 1_555
C51 C50 1_555 1_555
C52 C51 1_555 1_555
H34 C52 1_555 1_555
C53 C52 1_555 1_555
C54 C53 1_555 1_555
H35 C54 1_555 1_555
C55 C54 1_555 1_555
H36 C55 1_555 1_555
C56 C51 1_555 1_555
C57 C58 1_555 1_555
C58 H37 1_555 1_555
C59 C58 1_555 1_555
H38 C59 1_555 1_555
C60 C59 1_555 1_555
C61 C60 1_555 1_555
H39 C61 1_555 1_555
C62 C57 1_555 1_555
C63 N15 1_555 1_555
H40 C63 1_555 1_555
C64 N15 1_555 1_555
H41 C64 1_555 1_555
H42 C64 1_555 1_555
C65 N16 1_555 1_555
H43 C65 1_555 1_555
H44 C65 1_555 1_555
C66 N16 1_555 1_555
H45 C66 1_555 1_555
C67 C66 1_555 1_555
C68 C67 1_555 1_555
H46 C68 1_555 1_555
C69 C68 1_555 1_555
C70 C69 1_555 1_555
H47 C70 1_555 1_555
C71 C70 1_555 1_555
H48 C71 1_555 1_555
C72 C67 1_555 1_555
C73 O9 1_555 1_555
C74 O10 1_555 1_555
O1 C17 1_555 1_555
O2 C10 1_555 1_555
O3 C28 1_555 1_555
O4 C35 1_555 1_555
O5 Mn1 1_555 1_555
O6 Mn1 1_555 1_555
O7 Mn2 1_555 1_555
O8 Mn2 1_555 1_555
Fe2_2 C4 1_555 1_555
C4_2 Fe2 1_555 1_555
N3 C3 1_555 1_555
C8 C9 1_555 1_555
C9 C10 1_555 1_555
C11 C16 1_555 1_555
C15 C16 1_555 1_555
C21 C22 1_555 1_555
C26 C27 1_555 1_555
C27 C28 1_555 1_555
C29 C34 1_555 1_555
C33 C34 1_555 1_555
C35 C36 1_555 1_555
C39 C40 1_555 1_555
C41 O8 1_555 1_555
C45 C46 1_555 1_555
C46 C47 1_555 1_555
C48 C49 1_555 1_555
C55 C56 1_555 1_555
C56 O7 1_555 1_555
C57 O6 1_555 1_555
C61 C62 1_555 1_555
C62 C63 1_555 1_555
C64 C65 1_555 1_555
C71 C72 1_555 1_555
C72 O5 1_555 1_555

#END
