
#######################################################################
#
#                 Cambridge Crystallographic Data Centre
#                                CCDC 
#
#######################################################################
#
# If this CIF has been generated from an entry in the Cambridge 
# Structural Database, then it will include bibliographic, chemical, 
# crystal, experimental, refinement or atomic coordinate data resulting 
# from the CCDC's data processing and validation procedures.
#
#######################################################################

data_MUFYOC
_symmetry_cell_setting           triclinic
_symmetry_space_group_name_H-M   'P -1'
_symmetry_Int_Tables_number      2
_space_group_name_Hall           '-P 1'
loop_
_symmetry_equiv_pos_site_id
_symmetry_equiv_pos_as_xyz
1 x,y,z
2 -x,-y,-z
_cell_length_a                   11.013(2)
_cell_length_b                   15.613(3)
_cell_length_c                   20.586(4)
_cell_angle_alpha                91.74(3)
_cell_angle_beta                 92.56(3)
_cell_angle_gamma                90.89(3)
_cell_volume                     3534.01
loop_
_atom_site_label
_atom_site_type_symbol
_atom_site_fract_x
_atom_site_fract_y
_atom_site_fract_z
Fe1 Fe 0.87055(10) 0.72507(6) 0.20016(5)
Fe2 Fe 0.81234(9) 0.77223(6) 0.69543(5)
Mn1 Mn 0.84137(12) 0.71675(8) -0.04926(6)
Mn2 Mn 0.83380(11) 0.78540(7) 0.44742(5)
Cl1 Cl 1.4628(2) 0.8560(2) 0.54785(15)
Cl2 Cl 0.2085(2) 0.81069(19) 0.33578(14)
Cl3 Cl 0.2127(3) 0.7371(2) -0.15971(15)
Cl4 Cl 1.4508(3) 0.6057(2) 0.04817(16)
N1 N 0.9059(7) 0.7515(5) 0.3484(4)
N2 N 0.8103(8) 0.6815(5) 0.0555(3)
N3 N 0.7602(7) 0.8020(5) 0.5495(4)
N4 N 0.8654(7) 0.7590(4) -0.1561(3)
N5 N 0.7006(6) 0.6943(4) 0.2178(3)
N6 N 0.8075(6) 0.8370(4) 0.1928(3)
N7 N 1.0168(6) 0.7811(4) 0.1823(3)
N8 N 0.9722(6) 0.6196(4) 0.1985(3)
N9 N 0.6575(6) 0.8221(4) 0.7190(3)
N10 N 0.7205(6) 0.6681(4) 0.6902(3)
N11 N 0.9397(5) 0.6999(4) 0.6735(3)
N12 N 0.9386(6) 0.8665(4) 0.6869(3)
N13 N 0.9362(7) 0.6945(4) 0.4856(3)
N14 N 0.7218(6) 0.6829(4) 0.4289(3)
N15 N 0.7380(8) 0.8179(4) -0.0337(3)
N16 N 0.9684(7) 0.8015(4) -0.0126(3)
C1 C 0.8977(6) 0.7389(5) 0.2937(4)
C2 C 0.8297(7) 0.6944(5) 0.1097(4)
C3 C 0.7722(7) 0.7935(5) 0.6040(3)
C4 C 0.8491(7) 0.7651(5) -0.2110(4)
C5 C 0.9419(8) 0.5362(5) 0.2036(4)
H1 H 0.8634 0.5226 0.2153
C6 C 1.0207(9) 0.4690(5) 0.1926(4)
H2 H 0.9970 0.4124 0.1982
C7 C 1.1324(8) 0.4891(6) 0.1736(4)
H3 H 1.1861 0.4458 0.1636
C8 C 1.1683(9) 0.5754(6) 0.1687(5)
H4 H 1.2465 0.5897 0.1569
C9 C 1.0844(7) 0.6391(5) 0.1818(3)
C10 C 1.1163(7) 0.7350(5) 0.1739(4)
C11 C 1.0112(8) 0.8709(5) 0.1755(4)
C12 C 1.1051(8) 0.9271(5) 0.1659(4)
H5 H 1.1838 0.9065 0.1651
C13 C 1.0854(9) 1.0167(6) 0.1571(5)
H6 H 1.1498 1.0540 0.1499
C14 C 0.9664(9) 1.0464(6) 0.1597(4)
H7 H 0.9508 1.1042 0.1540
C15 C 0.8730(9) 0.9908(6) 0.1705(4)
H8 H 0.7942 1.0112 0.1720
C16 C 0.8937(7) 0.9044(5) 0.1794(3)
C17 C 0.6885(8) 0.8470(5) 0.1965(4)
C18 C 0.6275(8) 0.7644(6) 0.2105(4)
C19 C 0.5059(8) 0.7569(6) 0.2160(4)
H9 H 0.4572 0.8042 0.2092
C20 C 0.4520(8) 0.6780(7) 0.2321(4)
H10 H 0.3687 0.6736 0.2372
C21 C 0.5254(8) 0.6071(6) 0.2402(4)
H11 H 0.4930 0.5540 0.2501
C22 C 0.6477(8) 0.6190(6) 0.2328(5)
H12 H 0.6977 0.5721 0.2385
C23 C 0.6339(8) 0.9015(6) 0.7398(4)
H13 H 0.6973 0.9416 0.7449
C24 C 0.5173(9) 0.9260(6) 0.7541(4)
H14 H 0.5023 0.9816 0.7688
C25 C 0.4245(9) 0.8665(7) 0.7460(5)
H15 H 0.3450 0.8824 0.7532
C26 C 0.4489(9) 0.7806(7) 0.7269(5)
H16 H 0.3876 0.7389 0.7232
C27 C 0.5677(7) 0.7617(6) 0.7139(4)
C28 C 0.6009(8) 0.6702(6) 0.6976(4)
C29 C 0.7841(7) 0.5936(5) 0.6722(4)
C30 C 0.7356(9) 0.5085(6) 0.6659(5)
H17 H 0.6541 0.4973 0.6727
C31 C 0.8131(9) 0.4422(6) 0.6491(6)
H18 H 0.7829 0.3863 0.6441
C32 C 0.9306(8) 0.4586(5) 0.6402(5)
H19 H 0.9811 0.4137 0.6292
C33 C 0.9802(8) 0.5440(5) 0.6471(4)
H20 H 1.0620 0.5540 0.6401
C34 C 0.9065(7) 0.6120(5) 0.6643(4)
C35 C 1.0484(7) 0.7340(5) 0.6705(4)
C36 C 1.0493(7) 0.8339(5) 0.6726(4)
C37 C 1.1441(8) 0.8854(6) 0.6600(4)
H21 H 1.2189 0.8611 0.6523
C38 C 1.1328(8) 0.9734(6) 0.6583(4)
H22 H 1.1991 1.0081 0.6495
C39 C 1.0217(9) 1.0090(6) 0.6699(4)
H23 H 1.0095 1.0677 0.6684
C40 C 0.9297(8) 0.9527(5) 0.6839(4)
H24 H 0.8545 0.9760 0.6920
C41 C 1.0686(8) 0.8649(6) 0.4819(4)
C42 C 1.1423(8) 0.9393(6) 0.4846(4)
H25 H 1.1092 0.9915 0.4732
C43 C 1.2622(8) 0.9356(6) 0.5039(4)
H26 H 1.3109 0.9849 0.5050
C44 C 1.3105(8) 0.8592(7) 0.5216(4)
C45 C 1.2426(9) 0.7852(7) 0.5210(5)
H27 H 1.2787 0.7343 0.5331
C46 C 1.1189(7) 0.7858(6) 0.5023(4)
C47 C 1.0503(8) 0.7062(6) 0.5032(4)
H28 H 1.0919 0.6586 0.5180
C48 C 0.8722(9) 0.6113(6) 0.4931(5)
H29 H 0.8319 0.6114 0.5340
H30 H 0.9298 0.5649 0.4928
C49 C 0.7807(10) 0.5994(5) 0.4373(5)
H31 H 0.8204 0.5820 0.3981
H32 H 0.7209 0.5558 0.4468
C50 C 0.6115(8) 0.6848(5) 0.4095(4)
H33 H 0.5689 0.6330 0.4040
C51 C 0.5472(8) 0.7629(5) 0.3953(4)
C52 C 0.4250(9) 0.7541(6) 0.3770(4)
H34 H 0.3869 0.7004 0.3765
C53 C 0.3605(8) 0.8249(5) 0.3595(4)
C54 C 0.4184(9) 0.9069(7) 0.3591(4)
H35 H 0.3737 0.9542 0.3466
C55 C 0.5370(8) 0.9168(6) 0.3765(5)
H36 H 0.5732 0.9710 0.3760
C56 C 0.6073(7) 0.8468(5) 0.3954(4)
C57 C 0.5977(9) 0.6720(6) -0.0989(4)
C58 C 0.5140(10) 0.6090(6) -0.1301(5)
H37 H 0.5399 0.5535 -0.1384
C59 C 0.4016(9) 0.6300(7) -0.1468(5)
H38 H 0.3487 0.5889 -0.1664
C60 C 0.3611(9) 0.7134(8) -0.1353(5)
C61 C 0.4320(11) 0.7742(7) -0.1067(5)
H39 H 0.4007 0.8282 -0.0984
C62 C 0.5577(9) 0.7576(6) -0.0882(4)
C63 C 0.6280(10) 0.8241(7) -0.0532(5)
H40 H 0.5896 0.8755 -0.0442
C64 C 0.7922(9) 0.8846(6) 0.0105(4)
H41 H 0.7808 0.8700 0.0553
H42 H 0.7538 0.9391 0.0027
C65 C 0.9256(11) 0.8911(6) -0.0018(4)
H43 H 0.9386 0.9247 -0.0398
H44 H 0.9696 0.9183 0.0353
C66 C 1.0763(9) 0.7819(6) 0.0067(4)
H45 H 1.1247 0.8251 0.0271
C67 C 1.1286(9) 0.6989(6) -0.0005(4)
C68 C 1.2477(9) 0.6910(7) 0.0238(4)
H46 H 1.2901 0.7378 0.0433
C69 C 1.3010(10) 0.6123(7) 0.0182(4)
C70 C 1.2430(11) 0.5411(7) -0.0096(5)
H47 H 1.2827 0.4891 -0.0117
C71 C 1.1254(10) 0.5474(6) -0.0344(4)
H48 H 1.0850 0.4994 -0.0532
C72 C 1.0660(8) 0.6273(6) -0.0313(4)
O1 O 0.6329(6) 0.9152(4) 0.1877(4)
O2 O 1.2159(6) 0.7593(4) 0.1644(4)
O3 O 0.5253(6) 0.6079(4) 0.6943(4)
O4 O 1.1451(5) 0.6986(4) 0.6598(3)
O5 O 0.9537(6) 0.6298(4) -0.0564(3)
O6 O 0.7072(6) 0.6478(4) -0.0822(3)
O7 O 0.7221(5) 0.8608(3) 0.4111(3)
O8 O 0.9542(5) 0.8715(4) 0.4648(3)
Fe2_2 Fe 0.81234(9) 0.77223(6) -0.30457(5)
C4_2 C 0.8491(7) 0.7651(5) 0.7890(4)
C73 C 0.4193(15) 0.9202(13) 0.0725(10)
O9 O 0.5228(14) 0.9758(9) 0.0769(6)
C74 C 0.389(5) 0.585(3) 0.518(3)
O10 O 0.483(3) 0.571(3) 0.5565(12)
O11 O 0.2823(7) 0.5570(4) 0.7004(4)
loop_
_geom_bond_atom_site_label_1
_geom_bond_atom_site_label_2
_geom_bond_site_symmetry_1
_geom_bond_site_symmetry_2
Fe1 N5 1_555 1_555
Fe2 N9 1_555 1_555
Mn1 N2 1_555 1_555
Mn2 N1 1_555 1_555
Cl1 C44 1_555 1_555
Cl2 C53 1_555 1_555
Cl3 C60 1_555 1_555
Cl4 C69 1_555 1_555
N1 C1 1_555 1_555
N2 C2 1_555 1_555
N3 Mn2 1_555 1_555
N4 Mn1 1_555 1_555
N5 C18 1_555 1_555
N6 Fe1 1_555 1_555
N7 Fe1 1_555 1_555
N8 Fe1 1_555 1_555
N9 C23 1_555 1_555
N10 Fe2 1_555 1_555
N11 Fe2 1_555 1_555
N12 Fe2 1_555 1_555
N13 Mn2 1_555 1_555
N14 Mn2 1_555 1_555
N15 Mn1 1_555 1_555
N16 Mn1 1_555 1_555
C1 Fe1 1_555 1_555
C2 Fe1 1_555 1_555
C3 Fe2 1_555 1_555
C4 N4 1_555 1_555
C5 N8 1_555 1_555
H1 C5 1_555 1_555
C6 C5 1_555 1_555
H2 C6 1_555 1_555
C7 C6 1_555 1_555
H3 C7 1_555 1_555
C8 C7 1_555 1_555
H4 C8 1_555 1_555
C9 N8 1_555 1_555
C10 N7 1_555 1_555
C11 N7 1_555 1_555
C12 C11 1_555 1_555
H5 C12 1_555 1_555
C13 C12 1_555 1_555
H6 C13 1_555 1_555
C14 C13 1_555 1_555
H7 C14 1_555 1_555
C15 C14 1_555 1_555
H8 C15 1_555 1_555
C16 N6 1_555 1_555
C17 N6 1_555 1_555
C18 C17 1_555 1_555
C19 C18 1_555 1_555
H9 C19 1_555 1_555
C20 C19 1_555 1_555
H10 C20 1_555 1_555
C21 C20 1_555 1_555
H11 C21 1_555 1_555
C22 N5 1_555 1_555
H12 C22 1_555 1_555
C23 H13 1_555 1_555
C24 C23 1_555 1_555
H14 C24 1_555 1_555
C25 C24 1_555 1_555
H15 C25 1_555 1_555
C26 C25 1_555 1_555
H16 C26 1_555 1_555
C27 N9 1_555 1_555
C28 N10 1_555 1_555
C29 N10 1_555 1_555
C30 C29 1_555 1_555
H17 C30 1_555 1_555
C31 C30 1_555 1_555
H18 C31 1_555 1_555
C32 C31 1_555 1_555
H19 C32 1_555 1_555
C33 C32 1_555 1_555
H20 C33 1_555 1_555
C34 N11 1_555 1_555
C35 N11 1_555 1_555
C36 N12 1_555 1_555
C37 C36 1_555 1_555
H21 C37 1_555 1_555
C38 C37 1_555 1_555
H22 C38 1_555 1_555
C39 C38 1_555 1_555
H23 C39 1_555 1_555
C40 N12 1_555 1_555
H24 C40 1_555 1_555
C41 C42 1_555 1_555
C42 H25 1_555 1_555
C43 C42 1_555 1_555
H26 C43 1_555 1_555
C44 C43 1_555 1_555
C45 C44 1_555 1_555
H27 C45 1_555 1_555
C46 C41 1_555 1_555
C47 N13 1_555 1_555
H28 C47 1_555 1_555
C48 N13 1_555 1_555
H29 C48 1_555 1_555
H30 C48 1_555 1_555
C49 N14 1_555 1_555
H31 C49 1_555 1_555
H32 C49 1_555 1_555
C50 N14 1_555 1_555
H33 C50 1_555 1_555
C51 C50 1_555 1_555
C52 C51 1_555 1_555
H34 C52 1_555 1_555
C53 C52 1_555 1_555
C54 C53 1_555 1_555
H35 C54 1_555 1_555
C55 C54 1_555 1_555
H36 C55 1_555 1_555
C56 C51 1_555 1_555
C57 C58 1_555 1_555
C58 H37 1_555 1_555
C59 C58 1_555 1_555
H38 C59 1_555 1_555
C60 C59 1_555 1_555
C61 C60 1_555 1_555
H39 C61 1_555 1_555
C62 C57 1_555 1_555
C63 N15 1_555 1_555
H40 C63 1_555 1_555
C64 N15 1_555 1_555
H41 C64 1_555 1_555
H42 C64 1_555 1_555
C65 N16 1_555 1_555
H43 C65 1_555 1_555
H44 C65 1_555 1_555
C66 N16 1_555 1_555
H45 C66 1_555 1_555
C67 C66 1_555 1_555
C68 C67 1_555 1_555
H46 C68 1_555 1_555
C69 C68 1_555 1_555
C70 C69 1_555 1_555
H47 C70 1_555 1_555
C71 C70 1_555 1_555
H48 C71 1_555 1_555
C72 C67 1_555 1_555
C73 O9 1_555 1_555
C74 O10 1_555 1_555
O1 C17 1_555 1_555
O2 C10 1_555 1_555
O3 C28 1_555 1_555
O4 C35 1_555 1_555
O5 Mn1 1_555 1_555
O6 Mn1 1_555 1_555
O7 Mn2 1_555 1_555
O8 Mn2 1_555 1_555
Fe2_2 C4 1_555 1_555
C4_2 Fe2 1_555 1_555
N3 C3 1_555 1_555
C8 C9 1_555 1_555
C9 C10 1_555 1_555
C11 C16 1_555 1_555
C15 C16 1_555 1_555
C21 C22 1_555 1_555
C26 C27 1_555 1_555
C27 C28 1_555 1_555
C29 C34 1_555 1_555
C33 C34 1_555 1_555
C35 C36 1_555 1_555
C39 C40 1_555 1_555
C41 O8 1_555 1_555
C45 C46 1_555 1_555
C46 C47 1_555 1_555
C48 C49 1_555 1_555
C55 C56 1_555 1_555
C56 O7 1_555 1_555
C57 O6 1_555 1_555
C61 C62 1_555 1_555
C62 C63 1_555 1_555
C64 C65 1_555 1_555
C71 C72 1_555 1_555
C72 O5 1_555 1_555

#END
