
#######################################################################
#
#                 Cambridge Crystallographic Data Centre
#                                CCDC 
#
#######################################################################
#
# If this CIF has been generated from an entry in the Cambridge 
# Structural Database, then it will include bibliographic, chemical, 
# crystal, experimental, refinement or atomic coordinate data resulting 
# from the CCDC's data processing and validation procedures.
#
#######################################################################

data_MUFZAP
_symmetry_cell_setting           triclinic
_symmetry_space_group_name_H-M   'P -1'
_symmetry_Int_Tables_number      2
_space_group_name_Hall           '-P 1'
loop_
_symmetry_equiv_pos_site_id
_symmetry_equiv_pos_as_xyz
1 x,y,z
2 -x,-y,-z
_cell_length_a                   11.2920(13)
_cell_length_b                   15.4950(17)
_cell_length_c                   20.801(3)
_cell_angle_alpha                92.693(7)
_cell_angle_beta                 93.138(6)
_cell_angle_gamma                92.0650(13)
_cell_volume                     3627.35
loop_
_atom_site_label
_atom_site_type_symbol
_atom_site_fract_x
_atom_site_fract_y
_atom_site_fract_z
Fe1 Fe 0.87935(4) 0.72381(3) 0.201446(19)
Fe2 Fe 0.80131(4) 0.77179(3) 0.693694(19)
Mn1 Mn 0.83470(5) 0.71763(3) -0.04935(2)
Mn2 Mn 0.84010(4) 0.78415(3) 0.44748(2)
N1 N 0.9242(3) 0.74988(19) 0.35121(13)
N2 N 0.8088(3) 0.68133(19) 0.05546(13)
N3 N 0.7535(3) 0.79908(19) 0.54592(13)
N4 N 0.8561(3) 0.76021(18) -0.15649(14)
N5 N 0.7104(2) 0.69500(17) 0.21956(12)
N6 N 0.8193(2) 0.83818(17) 0.19414(12)
N7 N 1.0243(2) 0.77926(17) 0.18300(12)
N8 N 0.9778(2) 0.61691(17) 0.19912(12)
N9 N 0.6483(2) 0.82143(17) 0.71717(12)
N10 N 0.7079(2) 0.66614(17) 0.68650(13)
N11 N 0.9271(2) 0.69868(16) 0.67307(12)
N12 N 0.9256(2) 0.86646(17) 0.68630(12)
N13 N 0.9382(3) 0.69127(18) 0.48738(13)
N14 N 0.7294(2) 0.68099(17) 0.42443(13)
N15 N 0.7313(3) 0.81929(19) -0.03166(14)
N16 N 0.9607(3) 0.80326(18) -0.01085(13)
C1 C 0.9117(3) 0.73836(19) 0.29601(15)
C2 C 0.8334(3) 0.6935(2) 0.10971(15)
C3 C 0.7627(3) 0.7922(2) 0.60103(15)
C4 C 0.8389(3) 0.76579(19) -0.21149(15)
C5 C 0.9471(3) 0.5319(2) 0.20499(15)
H1 H 0.8706 0.5178 0.2165
C6 C 1.0244(3) 0.4646(2) 0.19461(16)
H2 H 0.9998 0.4075 0.1995
C7 C 1.1379(3) 0.4847(2) 0.17699(17)
H3 H 1.1908 0.4414 0.1690
C8 C 1.1713(3) 0.5717(2) 0.17141(16)
H4 H 1.2473 0.5868 0.1597
C9 C 1.0906(3) 0.6360(2) 0.18338(14)
C10 C 1.1220(3) 0.7316(2) 0.17772(15)
C11 C 1.0194(3) 0.8705(2) 0.17605(14)
C12 C 1.1148(3) 0.9274(2) 0.16447(15)
H5 H 1.1909 0.9069 0.1617
C13 C 1.0944(3) 1.0160(2) 0.15711(16)
H6 H 1.1577 1.0537 0.1500
C14 C 0.9802(3) 1.0476(2) 0.16044(16)
H7 H 0.9680 1.1059 0.1548
C15 C 0.8845(3) 0.9920(2) 0.17219(15)
H8 H 0.8086 1.0130 0.1744
C16 C 0.9043(3) 0.9030(2) 0.18081(14)
C17 C 0.7013(3) 0.8488(2) 0.19672(15)
C18 C 0.6396(3) 0.7645(2) 0.21135(15)
C19 C 0.5181(3) 0.7580(2) 0.21653(17)
H9 H 0.4718 0.8057 0.2104
C20 C 0.4661(3) 0.6791(3) 0.23103(18)
H10 H 0.3842 0.6732 0.2337
C21 C 0.5384(3) 0.6075(2) 0.24175(18)
H11 H 0.5053 0.5545 0.2523
C22 C 0.6605(3) 0.6190(2) 0.23598(16)
H12 H 0.7091 0.5729 0.2437
C23 C 0.6261(3) 0.9024(2) 0.73996(15)
H13 H 0.6894 0.9423 0.7472
C24 C 0.5128(3) 0.9282(2) 0.75298(17)
H14 H 0.5000 0.9846 0.7675
C25 C 0.4191(3) 0.8673(2) 0.74366(18)
H15 H 0.3423 0.8825 0.7519
C26 C 0.4418(3) 0.7820(2) 0.72159(18)
H16 H 0.3801 0.7406 0.7149
C27 C 0.5567(3) 0.7613(2) 0.71012(15)
C28 C 0.5905(3) 0.6694(2) 0.69112(16)
C29 C 0.7714(3) 0.5916(2) 0.66887(15)
C30 C 0.7241(3) 0.5062(2) 0.6572(2)
H17 H 0.6435 0.4940 0.6607
C31 C 0.7997(4) 0.4401(2) 0.6402(2)
H18 H 0.7685 0.3840 0.6323
C32 C 0.9195(3) 0.4570(2) 0.63492(19)
H19 H 0.9685 0.4121 0.6244
C33 C 0.9678(3) 0.5416(2) 0.64545(15)
H20 H 1.0484 0.5530 0.6412
C34 C 0.8932(3) 0.60951(19) 0.66249(14)
C35 C 1.0373(3) 0.7352(2) 0.67069(15)
C36 C 1.0330(3) 0.8333(2) 0.67433(14)
C37 C 1.1297(3) 0.8856(2) 0.66007(16)
H21 H 1.2023 0.8614 0.6528
C38 C 1.1170(3) 0.9750(2) 0.65666(17)
H22 H 1.1809 1.0108 0.6471
C39 C 1.0071(3) 1.0095(2) 0.66773(16)
H23 H 0.9959 1.0685 0.6652
C40 C 0.9147(3) 0.9534(2) 0.68275(15)
H24 H 0.8418 0.9764 0.6908
C41 C 1.0715(3) 0.8611(2) 0.48743(15)
C42 C 1.1490(3) 0.9363(3) 0.48955(17)
H25 H 1.1195 0.9894 0.4791
C43 C 1.2682(3) 0.9295(3) 0.50720(18)
H26 H 1.3177 0.9789 0.5078
C44 C 1.3180(3) 0.8502(3) 0.52446(18)
C45 C 1.2429(3) 0.7770(3) 0.52349(18)
H27 H 1.2735 0.7248 0.5353
C46 C 1.1197(3) 0.7804(3) 0.50468(16)
C47 C 1.0495(3) 0.7007(2) 0.50596(16)
H28 H 1.0870 0.6526 0.5212
C48 C 0.8726(3) 0.6075(2) 0.49202(17)
H29 H 0.8295 0.6076 0.5311
H30 H 0.9272 0.5606 0.4928
C49 C 0.7861(3) 0.5962(2) 0.43251(17)
H31 H 0.8283 0.5802 0.3946
H32 H 0.7264 0.5513 0.4386
C50 C 0.6199(3) 0.6845(2) 0.40485(17)
H33 H 0.5759 0.6326 0.3984
C51 C 0.5594(3) 0.7644(2) 0.39188(15)
C52 C 0.4361(3) 0.7567(2) 0.37482(18)
H34 H 0.3979 0.7025 0.3745
C53 C 0.3700(3) 0.8276(2) 0.35846(16)
C54 C 0.4306(3) 0.9094(3) 0.35913(18)
H35 H 0.3880 0.9578 0.3492
C55 C 0.5514(3) 0.9194(2) 0.37411(18)
H36 H 0.5889 0.9737 0.3728
C56 C 0.6191(3) 0.8469(2) 0.39159(14)
C57 C 0.5945(3) 0.6735(2) -0.10263(16)
C58 C 0.5154(4) 0.6118(3) -0.13629(18)
H37 H 0.5416 0.5570 -0.1470
C59 C 0.3993(4) 0.6319(3) -0.15360(19)
H38 H 0.3494 0.5900 -0.1755
C60 C 0.3545(4) 0.7153(3) -0.13874(18)
C61 C 0.4319(4) 0.7765(3) -0.10698(18)
H39 H 0.4051 0.8314 -0.0973
C62 C 0.5518(3) 0.7580(2) -0.08856(17)
C63 C 0.6216(4) 0.8252(2) -0.05118(17)
H40 H 0.5846 0.8762 -0.0406
C64 C 0.7894(4) 0.8866(2) 0.01406(17)
H41 H 0.7801 0.8709 0.0581
H42 H 0.7536 0.9418 0.0081
C65 C 0.9201(4) 0.8929(2) 0.00052(17)
H43 H 0.9314 0.9262 -0.0372
H44 H 0.9653 0.9214 0.0370
C66 C 1.0675(3) 0.7843(2) 0.00763(16)
H45 H 1.1154 0.8285 0.0282
C67 C 1.1196(3) 0.7007(2) -0.00065(16)
C68 C 1.2388(4) 0.6924(3) 0.02294(17)
H46 H 1.2794 0.7406 0.0429
C69 C 1.2975(4) 0.6150(3) 0.01735(18)
C70 C 1.2325(4) 0.5418(3) -0.01280(18)
H47 H 1.2689 0.4890 -0.0165
C71 C 1.1161(4) 0.5478(2) -0.03669(18)
H48 H 1.0762 0.4991 -0.0563
C72 C 1.0566(3) 0.6269(2) -0.03187(15)
C75 C 1.4517(3) 0.8465(3) 0.5444(2)
H49 H 1.4699 0.7885 0.5544
H50 H 1.4703 0.8846 0.5817
H51 H 1.4977 0.8643 0.5096
C76 C 0.2364(3) 0.8182(3) 0.3395(2)
H52 H 0.2101 0.7589 0.3416
H53 H 0.2222 0.8365 0.2964
H54 H 0.1936 0.8536 0.3687
C77 C 0.2254(4) 0.7363(3) -0.1586(2)
H55 H 0.2110 0.7947 -0.1447
H56 H 0.1718 0.6974 -0.1388
H57 H 0.2131 0.7297 -0.2046
C78 C 1.4278(4) 0.6073(3) 0.0431(2)
H58 H 1.4575 0.6623 0.0617
H59 H 1.4753 0.5899 0.0083
H60 H 1.4312 0.5650 0.0754
O1 O 0.6461(2) 0.91718(17) 0.18909(14)
O2 O 1.2242(2) 0.75741(16) 0.16942(13)
O3 O 0.5145(2) 0.60897(18) 0.68228(17)
O4 O 1.1318(2) 0.69764(16) 0.66322(13)
O5 O 0.9461(2) 0.63001(16) -0.05738(11)
O6 O 0.7023(2) 0.64792(16) -0.08470(11)
O7 O 0.7340(2) 0.86072(15) 0.40670(11)
O8 O 0.9580(2) 0.87071(16) 0.47084(12)
Fe2_2 Fe 0.80131(4) 0.77179(3) -0.306306(19)
C4_2 C 0.8389(3) 0.76579(19) 0.78851(15)
C73 C 0.4260(6) 0.9264(5) 0.0733(3)
O9 O 0.5336(4) 0.9747(3) 0.07669(18)
C74 C 0.417(3) 0.5946(16) 0.5242(17)
O10 O 0.4770(19) 0.5344(13) 0.5494(13)
O11 O 0.2742(2) 0.55753(18) 0.69561(16)
loop_
_geom_bond_atom_site_label_1
_geom_bond_atom_site_label_2
_geom_bond_site_symmetry_1
_geom_bond_site_symmetry_2
Fe1 N5 1_555 1_555
Fe2 N9 1_555 1_555
Mn1 N2 1_555 1_555
Mn2 N1 1_555 1_555
N1 C1 1_555 1_555
N2 C2 1_555 1_555
N3 Mn2 1_555 1_555
N4 Mn1 1_555 1_555
N5 C18 1_555 1_555
N6 Fe1 1_555 1_555
N7 Fe1 1_555 1_555
N8 Fe1 1_555 1_555
N9 C23 1_555 1_555
N10 Fe2 1_555 1_555
N11 Fe2 1_555 1_555
N12 Fe2 1_555 1_555
N13 Mn2 1_555 1_555
N14 Mn2 1_555 1_555
N15 Mn1 1_555 1_555
N16 Mn1 1_555 1_555
C1 Fe1 1_555 1_555
C2 Fe1 1_555 1_555
C3 Fe2 1_555 1_555
C4 N4 1_555 1_555
C5 N8 1_555 1_555
H1 C5 1_555 1_555
C6 C5 1_555 1_555
H2 C6 1_555 1_555
C7 C6 1_555 1_555
H3 C7 1_555 1_555
C8 C7 1_555 1_555
H4 C8 1_555 1_555
C9 N8 1_555 1_555
C10 N7 1_555 1_555
C11 N7 1_555 1_555
C12 C11 1_555 1_555
H5 C12 1_555 1_555
C13 C12 1_555 1_555
H6 C13 1_555 1_555
C14 C13 1_555 1_555
H7 C14 1_555 1_555
C15 C14 1_555 1_555
H8 C15 1_555 1_555
C16 N6 1_555 1_555
C17 N6 1_555 1_555
C18 C17 1_555 1_555
C19 C18 1_555 1_555
H9 C19 1_555 1_555
C20 C19 1_555 1_555
H10 C20 1_555 1_555
C21 C20 1_555 1_555
H11 C21 1_555 1_555
C22 N5 1_555 1_555
H12 C22 1_555 1_555
C23 H13 1_555 1_555
C24 C23 1_555 1_555
H14 C24 1_555 1_555
C25 C24 1_555 1_555
H15 C25 1_555 1_555
C26 C25 1_555 1_555
H16 C26 1_555 1_555
C27 N9 1_555 1_555
C28 N10 1_555 1_555
C29 N10 1_555 1_555
C30 C29 1_555 1_555
H17 C30 1_555 1_555
C31 C30 1_555 1_555
H18 C31 1_555 1_555
C32 C31 1_555 1_555
H19 C32 1_555 1_555
C33 C32 1_555 1_555
H20 C33 1_555 1_555
C34 N11 1_555 1_555
C35 N11 1_555 1_555
C36 N12 1_555 1_555
C37 C36 1_555 1_555
H21 C37 1_555 1_555
C38 C37 1_555 1_555
H22 C38 1_555 1_555
C39 C38 1_555 1_555
H23 C39 1_555 1_555
C40 N12 1_555 1_555
H24 C40 1_555 1_555
C41 C42 1_555 1_555
C42 H25 1_555 1_555
C43 C42 1_555 1_555
H26 C43 1_555 1_555
C44 C43 1_555 1_555
C45 C44 1_555 1_555
H27 C45 1_555 1_555
C46 C41 1_555 1_555
C47 N13 1_555 1_555
H28 C47 1_555 1_555
C48 N13 1_555 1_555
H29 C48 1_555 1_555
H30 C48 1_555 1_555
C49 N14 1_555 1_555
H31 C49 1_555 1_555
H32 C49 1_555 1_555
C50 N14 1_555 1_555
H33 C50 1_555 1_555
C51 C50 1_555 1_555
C52 C51 1_555 1_555
H34 C52 1_555 1_555
C53 C52 1_555 1_555
C54 C53 1_555 1_555
H35 C54 1_555 1_555
C55 C54 1_555 1_555
H36 C55 1_555 1_555
C56 C51 1_555 1_555
C57 C58 1_555 1_555
C58 H37 1_555 1_555
C59 C58 1_555 1_555
H38 C59 1_555 1_555
C60 C59 1_555 1_555
C61 C60 1_555 1_555
H39 C61 1_555 1_555
C62 C57 1_555 1_555
C63 N15 1_555 1_555
H40 C63 1_555 1_555
C64 N15 1_555 1_555
H41 C64 1_555 1_555
H42 C64 1_555 1_555
C65 N16 1_555 1_555
H43 C65 1_555 1_555
H44 C65 1_555 1_555
C66 N16 1_555 1_555
H45 C66 1_555 1_555
C67 C66 1_555 1_555
C68 C67 1_555 1_555
H46 C68 1_555 1_555
C69 C68 1_555 1_555
C70 C69 1_555 1_555
H47 C70 1_555 1_555
C71 C70 1_555 1_555
H48 C71 1_555 1_555
C72 C67 1_555 1_555
C73 O9 1_555 1_555
C74 O10 1_555 1_555
C75 C44 1_555 1_555
H49 C75 1_555 1_555
H50 C75 1_555 1_555
H51 C75 1_555 1_555
C76 C53 1_555 1_555
H52 C76 1_555 1_555
H53 C76 1_555 1_555
H54 C76 1_555 1_555
C77 C60 1_555 1_555
H55 C77 1_555 1_555
H56 C77 1_555 1_555
H57 C77 1_555 1_555
C78 C69 1_555 1_555
H58 C78 1_555 1_555
H59 C78 1_555 1_555
H60 C78 1_555 1_555
O1 C17 1_555 1_555
O2 C10 1_555 1_555
O3 C28 1_555 1_555
O4 C35 1_555 1_555
O5 Mn1 1_555 1_555
O6 Mn1 1_555 1_555
O7 Mn2 1_555 1_555
O8 Mn2 1_555 1_555
Fe2_2 C4 1_555 1_555
C4_2 Fe2 1_555 1_555
N3 C3 1_555 1_555
C8 C9 1_555 1_555
C9 C10 1_555 1_555
C11 C16 1_555 1_555
C15 C16 1_555 1_555
C21 C22 1_555 1_555
C26 C27 1_555 1_555
C27 C28 1_555 1_555
C29 C34 1_555 1_555
C33 C34 1_555 1_555
C35 C36 1_555 1_555
C39 C40 1_555 1_555
C41 O8 1_555 1_555
C45 C46 1_555 1_555
C46 C47 1_555 1_555
C48 C49 1_555 1_555
C55 C56 1_555 1_555
C56 O7 1_555 1_555
C57 O6 1_555 1_555
C61 C62 1_555 1_555
C62 C63 1_555 1_555
C64 C65 1_555 1_555
C71 C72 1_555 1_555
C72 O5 1_555 1_555

#END
