
#######################################################################
#
#                 Cambridge Crystallographic Data Centre
#                                CCDC 
#
#######################################################################
#
# If this CIF has been generated from an entry in the Cambridge 
# Structural Database, then it will include bibliographic, chemical, 
# crystal, experimental, refinement or atomic coordinate data resulting 
# from the CCDC's data processing and validation procedures.
#
#######################################################################

data_MUGGIF
_symmetry_cell_setting           monoclinic
_symmetry_space_group_name_H-M   'P 21/n'
_symmetry_Int_Tables_number      14
_space_group_name_Hall           '-P 2yn'
loop_
_symmetry_equiv_pos_site_id
_symmetry_equiv_pos_as_xyz
1 x,y,z
2 1/2-x,1/2+y,1/2-z
3 -x,-y,-z
4 1/2+x,1/2-y,1/2+z
_cell_length_a                   8.965(5)
_cell_length_b                   10.299(5)
_cell_length_c                   20.643(5)
_cell_angle_alpha                90
_cell_angle_beta                 95.010(5)
_cell_angle_gamma                90
_cell_volume                     1898.7
loop_
_atom_site_label
_atom_site_type_symbol
_atom_site_fract_x
_atom_site_fract_y
_atom_site_fract_z
Mn1 Mn 0.39905(2) 0.17298(2) 1.048685(10)
O1 O 0.31331(13) 0.39697(12) 1.04023(5)
O2 O 0.55916(13) -0.00540(10) 0.89239(5)
O3 O 0.53045(12) 0.14020(11) 0.96929(5)
O4 O 0.28952(15) 0.27377(12) 1.12528(6)
N1 N 0.11727(14) 0.24142(13) 0.59429(6)
N2 N -0.19555(14) 0.87763(13) 1.02075(6)
C1 C 0.30073(17) 0.21501(15) 0.68520(7)
C2 C 0.00306(17) 0.80792(15) 1.09899(7)
C3 C 0.35843(16) 0.25390(15) 0.75185(7)
C4 C 0.14565(16) 0.59741(15) 1.09959(7)
H1 H 0.1370 0.5981 1.0544
C5 C 0.27706(17) 0.38163(16) 1.09677(7)
C6 C 0.41442(16) 0.16336(14) 0.79766(7)
H2 H 0.4185 0.0762 0.7862
C7 C 0.17183(17) 0.26996(15) 0.65496(7)
H3 H 0.1204 0.3301 0.6782
C8 C 0.46443(16) 0.20194(14) 0.86038(7)
C9 C 0.52106(15) 0.10494(14) 0.91084(6)
C10 C -0.11105(17) 0.78419(16) 1.05073(7)
H4 H -0.1302 0.6985 1.0384
C11 C 0.1918(2) 0.15514(17) 0.56139(7)
H5 H 0.1555 0.1347 0.5190
C12 C 0.46227(18) 0.33240(15) 0.87626(7)
H6 H 0.4931 0.3589 0.9184
C13 C 0.21731(16) 0.49459(15) 1.13247(7)
C14 C 0.08646(17) 0.69953(15) 1.13302(7)
C15 C 0.1777(2) 0.59790(18) 1.23391(8)
H7 H 0.1907 0.5992 1.2791
C16 C 0.03132(19) 0.93695(17) 1.11555(8)
H8 H 0.1076 0.9578 1.1473
C17 C 0.10441(19) 0.69825(17) 1.20084(8)
H9 H 0.0662 0.7663 1.2240
C18 C -0.0535(2) 1.03352(17) 1.08503(9)
H10 H -0.0349 1.1201 1.0957
C19 C 0.37462(19) 0.12444(18) 0.65019(8)
H11 H 0.4604 0.0836 0.6689
C20 C 0.3199(2) 0.09525(19) 0.58743(8)
H12 H 0.3693 0.0357 0.5630
C21 C 0.4147(2) 0.42303(16) 0.83000(8)
H13 H 0.4192 0.5109 0.8403
C22 C -0.16680(19) 1.00048(16) 1.03836(8)
H14 H -0.2253 1.0662 1.0184
C23 C 0.36068(18) 0.38440(16) 0.76855(8)
H15 H 0.3255 0.4461 0.7381
C24 C 0.23200(19) 0.49528(17) 1.20007(8)
H16 H 0.2787 0.4261 1.2226
Mn1B Mn 0.60095(2) -0.17298(2) 0.951315(10)
Mn1C Mn -0.10095(2) 0.32702(2) 0.548685(10)
Mn1B_2 Mn -0.39905(2) 0.82702(2) 0.951315(10)
O2B O 0.44084(13) 0.00540(10) 1.10761(5)
N1C N 0.61727(14) 0.25858(13) 1.09429(6)
N2B N 0.19555(14) 0.12237(13) 0.97925(6)
loop_
_geom_bond_atom_site_label_1
_geom_bond_atom_site_label_2
_geom_bond_site_symmetry_1
_geom_bond_site_symmetry_2
Mn1 O1 1_555 1_555
O1 C5 1_555 1_555
O2 C9 1_555 1_555
O3 Mn1 1_555 1_555
O4 Mn1 1_555 1_555
N1 C7 1_555 1_555
N2 C10 1_555 1_555
C1 C3 1_555 1_555
C2 C10 1_555 1_555
C3 C6 1_555 1_555
C4 H1 1_555 1_555
C5 O4 1_555 1_555
C6 H2 1_555 1_555
C7 C1 1_555 1_555
H3 C7 1_555 1_555
C8 C6 1_555 1_555
C9 O3 1_555 1_555
C10 H4 1_555 1_555
C11 N1 1_555 1_555
H5 C11 1_555 1_555
C12 C8 1_555 1_555
H6 C12 1_555 1_555
C13 C4 1_555 1_555
C14 C2 1_555 1_555
C15 H7 1_555 1_555
C16 C2 1_555 1_555
H8 C16 1_555 1_555
C17 C14 1_555 1_555
H9 C17 1_555 1_555
C18 C16 1_555 1_555
H10 C18 1_555 1_555
C19 C1 1_555 1_555
H11 C19 1_555 1_555
C20 C11 1_555 1_555
H12 C20 1_555 1_555
C21 C12 1_555 1_555
H13 C21 1_555 1_555
C22 N2 1_555 1_555
H14 C22 1_555 1_555
C23 C3 1_555 1_555
H15 C23 1_555 1_555
C24 C13 1_555 1_555
H16 C24 1_555 1_555
Mn1B O2 1_555 1_555
Mn1C N1 1_555 1_555
Mn1B_2 N2 1_555 1_555
O2B Mn1 1_555 1_555
N1C Mn1 1_555 1_555
N2B Mn1 1_555 1_555
C4 C14 1_555 1_555
C5 C13 1_555 1_555
C8 C9 1_555 1_555
C15 C17 1_555 1_555
C15 C24 1_555 1_555
C18 C22 1_555 1_555
C19 C20 1_555 1_555
C21 C23 1_555 1_555

#END
