
#######################################################################
#
#                 Cambridge Crystallographic Data Centre
#                                CCDC 
#
#######################################################################
#
# If this CIF has been generated from an entry in the Cambridge 
# Structural Database, then it will include bibliographic, chemical, 
# crystal, experimental, refinement or atomic coordinate data resulting 
# from the CCDC's data processing and validation procedures.
#
#######################################################################

data_MUGGEB
_symmetry_cell_setting           monoclinic
_symmetry_space_group_name_H-M   'P 21/c'
_symmetry_Int_Tables_number      14
_space_group_name_Hall           '-P 2ybc'
loop_
_symmetry_equiv_pos_site_id
_symmetry_equiv_pos_as_xyz
1 x,y,z
2 -x,1/2+y,1/2-z
3 -x,-y,-z
4 x,1/2-y,1/2+z
_cell_length_a                   9.581(5)
_cell_length_b                   9.457(5)
_cell_length_c                   11.848(5)
_cell_angle_alpha                90
_cell_angle_beta                 97.961(5)
_cell_angle_gamma                90
_cell_volume                     1063.17
loop_
_atom_site_label
_atom_site_type_symbol
_atom_site_fract_x
_atom_site_fract_y
_atom_site_fract_z
Mn1 Mn 0.0000 0.0000 -0.5000
N1 N -0.85883(15) -0.19439(16) -0.50268(13)
O1 O 0.10381(13) 0.19737(15) -0.26925(12)
O2 O 0.17924(12) 0.12515(14) -0.42908(10)
O3 O 0.03838(17) 0.04818(19) -0.67424(12)
C1 C 0.33580(17) 0.25824(18) -0.29869(15)
C2 C 0.19546(17) 0.18930(18) -0.33501(15)
C3 C -0.8182(3) -0.4371(3) -0.4619(3)
C4 C 0.56911(17) 0.31991(19) -0.33817(16)
C5 C 0.43896(17) 0.25674(19) -0.37032(15)
C6 C 0.67979(17) 0.3202(2) -0.41490(17)
C7 C 0.36394(19) 0.3234(2) -0.19305(16)
C8 C -0.75624(18) -0.2001(2) -0.56863(16)
C9 C 0.5953(2) 0.3849(2) -0.23250(17)
C10 C 0.4936(2) 0.3867(2) -0.16086(17)
C11 C -0.8869(2) -0.3123(3) -0.4494(2)
C12 C 0.7141(3) 0.4416(3) -0.4684(3)
H1 H 0.003(3) -0.008(3) -0.711(2)
H2 H 0.052(3) 0.127(3) -0.709(2)
H3 H 0.4173(19) 0.213(2) -0.4420(17)
H4 H 0.297(2) 0.322(2) -0.1447(17)
H5 H -0.738(2) -0.113(2) -0.6060(18)
H6 H 0.685(2) 0.424(2) -0.2097(19)
H7 H 0.513(2) 0.434(3) -0.084(2)
H8 H -0.962(3) -0.304(3) -0.404(2)
H9 H 0.662(3) 0.531(3) -0.464(3)
H10 H -0.849(4) -0.521(4) -0.430(3)
Mn1_2 Mn -1.0000 0.0000 -0.5000
Mn1_3 Mn 1.0000 0.0000 -0.5000
N1B N -0.14117(15) 0.19439(16) -0.49732(13)
N1_2 N 0.14117(15) -0.19439(16) -0.50268(13)
N1B_2 N 0.85883(15) 0.19439(16) -0.49732(13)
O1B O -0.10381(13) -0.19737(15) -0.73075(12)
O2B O -0.17924(12) -0.12515(14) -0.57092(10)
O3B O -0.03838(17) -0.04818(19) -0.32576(12)
C1B C -0.33580(17) -0.25824(18) -0.70131(15)
C2B C -0.19546(17) -0.18930(18) -0.66499(15)
C3B C 0.8182(3) 0.4371(3) -0.5381(3)
C4B C -0.56911(17) -0.31991(19) -0.66183(16)
C5B C -0.43896(17) -0.25674(19) -0.62968(15)
C6B C -0.67979(17) -0.3202(2) -0.58510(17)
C7B C -0.36394(19) -0.3234(2) -0.80695(16)
C8B C 0.75624(18) 0.2001(2) -0.43137(16)
C9B C -0.5953(2) -0.3849(2) -0.76750(17)
C10B C -0.4936(2) -0.3867(2) -0.83914(17)
C11B C 0.8869(2) 0.3123(3) -0.5506(2)
C12B C -0.7141(3) -0.4416(3) -0.5316(3)
H1B H -0.003(3) 0.008(3) -0.289(2)
H2B H -0.052(3) -0.127(3) -0.291(2)
H3B H -0.4173(19) -0.213(2) -0.5580(17)
H4B H -0.297(2) -0.322(2) -0.8553(17)
H5B H 0.738(2) 0.113(2) -0.3940(18)
H6B H -0.685(2) -0.424(2) -0.7903(19)
H7B H -0.513(2) -0.434(3) -0.916(2)
H8B H 0.962(3) 0.304(3) -0.596(2)
H9B H -0.662(3) -0.531(3) -0.536(3)
H10B H 0.849(4) 0.521(4) -0.570(3)
loop_
_geom_bond_atom_site_label_1
_geom_bond_atom_site_label_2
_geom_bond_site_symmetry_1
_geom_bond_site_symmetry_2
Mn1 O2 1_555 1_555
N1 C8 1_555 1_555
O1 C2 1_555 1_555
O2 C2 1_555 1_555
O3 Mn1 1_555 1_555
C1 C2 1_555 1_555
C3 C11 1_555 1_555
C4 C5 1_555 1_555
C5 C1 1_555 1_555
C6 C4 1_555 1_555
C7 C1 1_555 1_555
C8 H5 1_555 1_555
C9 C4 1_555 1_555
C10 C7 1_555 1_555
C11 N1 1_555 1_555
C12 C6 1_555 1_555
H1 O3 1_555 1_555
H2 O3 1_555 1_555
H3 C5 1_555 1_555
H4 C7 1_555 1_555
H6 C9 1_555 1_555
H7 C10 1_555 1_555
H8 C11 1_555 1_555
H9 C12 1_555 1_555
H10 C3 1_555 1_555
Mn1_2 N1 1_555 1_555
Mn1_3 N1B_2 1_555 1_555
N1B Mn1 1_555 1_555
N1_2 Mn1 1_555 1_555
N1B_2 C8B 1_555 1_555
O1B C2B 1_555 1_555
O2B Mn1 1_555 1_555
O3B Mn1 1_555 1_555
C1B C2B 1_555 1_555
C2B O2B 1_555 1_555
C3B C12 1_555 1_555
C4B C5B 1_555 1_555
C5B C1B 1_555 1_555
C6B C8 1_555 1_555
C7B C1B 1_555 1_555
C8B C6 1_555 1_555
C9B C4B 1_555 1_555
C10B C7B 1_555 1_555
C11B N1B_2 1_555 1_555
C12B C3 1_555 1_555
H1B O3B 1_555 1_555
H2B O3B 1_555 1_555
H3B C5B 1_555 1_555
H4B C7B 1_555 1_555
H5B C8B 1_555 1_555
H6B C9B 1_555 1_555
H7B C10B 1_555 1_555
H8B C11B 1_555 1_555
H9B C12B 1_555 1_555
H10B C3B 1_555 1_555
C9 C10 1_555 1_555
C3B C11B 1_555 1_555
C4B C6B 1_555 1_555
C6B C12B 1_555 1_555
C9B C10B 1_555 1_555

#END
