
#######################################################################
#
#                 Cambridge Crystallographic Data Centre
#                                CCDC 
#
#######################################################################
#
# If this CIF has been generated from an entry in the Cambridge 
# Structural Database, then it will include bibliographic, chemical, 
# crystal, experimental, refinement or atomic coordinate data resulting 
# from the CCDC's data processing and validation procedures.
#
#######################################################################

data_MUGHED
_symmetry_cell_setting           monoclinic
_symmetry_space_group_name_H-M   'C 2/c'
_symmetry_Int_Tables_number      15
_space_group_name_Hall           '-C 2yn'
loop_
_symmetry_equiv_pos_site_id
_symmetry_equiv_pos_as_xyz
1 x,y,z
2 -x,y,1/2-z
3 1/2+x,1/2+y,z
4 1/2-x,1/2+y,1/2-z
5 -x,-y,-z
6 x,-y,1/2+z
7 1/2-x,1/2-y,-z
8 1/2+x,1/2-y,1/2+z
_cell_length_a                   17.927(4)
_cell_length_b                   12.869(3)
_cell_length_c                   11.055(2)
_cell_angle_alpha                90
_cell_angle_beta                 93.14(3)
_cell_angle_gamma                90
_cell_volume                     2546.59
loop_
_atom_site_label
_atom_site_type_symbol
_atom_site_fract_x
_atom_site_fract_y
_atom_site_fract_z
Zn1 Zn 0.41923(2) 0.05185(4) -0.00106(4)
Zn2 Zn 0.5000 0.10186(5) -0.2500
C1 C 0.3651(2) 0.2256(3) -0.1703(3)
C2 C 0.3012(2) 0.2930(3) -0.2210(3)
C3 C 0.2472(2) 0.3292(3) -0.1478(3)
H1 H 0.2491 0.3154 -0.0652
C4 C 0.1889(2) 0.3884(3) -0.2047(3)
C5 C 0.1875(2) 0.4101(3) -0.3285(3)
C6 C 0.2431(2) 0.3747(4) -0.4010(4)
H2 H 0.2421 0.3900 -0.4833
C7 C 0.2988(2) 0.3169(4) -0.3470(4)
H3 H 0.3366 0.2922 -0.3936
H4 H 0.538(3) 0.140(4) -0.033(5)
N1 N 0.12728(18) 0.4352(3) -0.1611(3)
N2 N 0.09047(17) 0.4824(3) -0.2539(3)
N3 N 0.12593(17) 0.4687(3) -0.3556(3)
O1 O 0.35978(15) 0.1870(2) -0.0669(2)
O2 O 0.41789(15) 0.2123(2) -0.2390(3)
O3 O 0.51720(14) 0.0854(2) -0.0651(2)
Zn1A Zn 0.58077(2) 0.05185(4) -0.49894(4)
C1A C 0.6349(2) 0.2256(3) -0.3297(3)
C2A C 0.6988(2) 0.2930(3) -0.2790(3)
C3A C 0.7528(2) 0.3292(3) -0.3522(3)
H1A H 0.7509 0.3154 -0.4348
C4A C 0.8111(2) 0.3884(3) -0.2953(3)
C5A C 0.8125(2) 0.4101(3) -0.1715(3)
C6A C 0.7569(2) 0.3747(4) -0.0990(4)
H2A H 0.7579 0.3900 -0.0167
C7A C 0.7012(2) 0.3169(4) -0.1530(4)
H3A H 0.6634 0.2922 -0.1064
H4A H 0.462(3) 0.140(4) -0.467(5)
N1A N 0.87272(18) 0.4352(3) -0.3389(3)
N2A N 0.90953(17) 0.4824(3) -0.2461(3)
N3A N 0.87407(17) 0.4687(3) -0.1444(3)
O1A O 0.64022(15) 0.1870(2) -0.4331(2)
O2A O 0.58211(15) 0.2123(2) -0.2610(3)
O3A O 0.48280(14) 0.0854(2) -0.4349(2)
Zn1B Zn 0.91923(2) 0.55185(4) -0.00106(4)
Zn1C Zn 0.08077(2) 0.55185(4) -0.49894(4)
Zn1D Zn 0.58077(2) -0.05185(4) 0.00106(4)
Zn1E Zn 0.41923(2) -0.05185(4) -0.50106(4)
Zn1F Zn 0.08077(2) 0.44815(4) 0.00106(4)
Zn1G Zn 0.91923(2) 0.44815(4) -0.50106(4)
Zn2B Zn 0.0000 0.60186(5) -0.2500
Zn2B_2 Zn 1.0000 0.60186(5) -0.2500
N1F N 0.37272(18) 0.0648(3) 0.1611(3)
N1G N 0.62728(18) 0.0648(3) -0.6611(3)
N2B N 0.59047(17) -0.0176(3) -0.2539(3)
N2C N 0.40953(17) -0.0176(3) -0.2461(3)
N3B N 0.62593(17) -0.0313(3) -0.3556(3)
N3C N 0.37407(17) -0.0313(3) -0.1444(3)
O3D O 0.48280(14) -0.0854(2) 0.0651(2)
O3E O 0.51720(14) -0.0854(2) -0.5651(2)
C8 C 0.3836(9) 0.3799(12) -0.8481(14)
H5 H 0.4069 0.4430 -0.8731
H6 H 0.3312 0.3822 -0.8708
H7 H 0.4059 0.3217 -0.8868
C9 C 0.4341(9) 0.2823(12) -0.6447(15)
H8 H 0.4548 0.2299 -0.6900
O4 O 0.4420(6) 0.2721(8) -0.5528(10)
N4 N 0.3936(7) 0.3694(10) -0.7235(12)
C10 C 0.3732(10) 0.4419(11) -0.6507(15)
H9 H 0.4164 0.4699 -0.6072
H10 H 0.3399 0.4132 -0.5944
H11 H 0.3482 0.4961 -0.6967
loop_
_geom_bond_atom_site_label_1
_geom_bond_atom_site_label_2
_geom_bond_site_symmetry_1
_geom_bond_site_symmetry_2
Zn1 O1 1_555 1_555
Zn2 O2 1_555 1_555
C1 C2 1_555 1_555
C2 C3 1_555 1_555
C3 H1 1_555 1_555
C4 C3 1_555 1_555
C5 C4 1_555 1_555
C6 C5 1_555 1_555
H2 C6 1_555 1_555
C7 C2 1_555 1_555
H3 C7 1_555 1_555
H4 O3 1_555 1_555
N1 C4 1_555 1_555
N2 N1 1_555 1_555
N3 C5 1_555 1_555
O1 C1 1_555 1_555
O2 C1 1_555 1_555
O3 Zn1 1_555 1_555
C8 H5 1_555 1_555
H6 C8 1_555 1_555
H7 C8 1_555 1_555
C9 H8 1_555 1_555
O4 C9 1_555 1_555
N4 C8 1_555 1_555
C10 N4 1_555 1_555
H9 C10 1_555 1_555
H10 C10 1_555 1_555
H11 C10 1_555 1_555
Zn1A O1A 1_555 1_555
C1A C2A 1_555 1_555
C2A C3A 1_555 1_555
C3A H1A 1_555 1_555
C4A C3A 1_555 1_555
C5A C4A 1_555 1_555
C6A C5A 1_555 1_555
H2A C6A 1_555 1_555
C7A C2A 1_555 1_555
H3A C7A 1_555 1_555
H4A O3A 1_555 1_555
N1A C4A 1_555 1_555
N2A N1A 1_555 1_555
N3A C5A 1_555 1_555
O1A C1A 1_555 1_555
O2A Zn2 1_555 1_555
O3A Zn2 1_555 1_555
Zn1B N3A 1_555 1_555
Zn1C N3 1_555 1_555
Zn1D O3 1_555 1_555
Zn1E O3A 1_555 1_555
Zn1F N1 1_555 1_555
Zn1G N1A 1_555 1_555
Zn2B N2 1_555 1_555
Zn2B_2 N2A 1_555 1_555
N1F Zn1 1_555 1_555
N1G Zn1A 1_555 1_555
N2B Zn2 1_555 1_555
N2C Zn2 1_555 1_555
N3B Zn1A 1_555 1_555
N3C Zn1 1_555 1_555
O3D Zn1 1_555 1_555
O3E Zn1A 1_555 1_555
Zn2 O3 1_555 1_555
C6 C7 1_555 1_555
N2 N3 1_555 1_555
C9 N4 1_555 1_555
Zn1A O3A 1_555 1_555
C1A O2A 1_555 1_555
C6A C7A 1_555 1_555
N2A N3A 1_555 1_555
Zn1D O3D 1_555 1_555
Zn1E O3E 1_555 1_555
N2B N3B 1_555 1_555
N2C N3C 1_555 1_555

#END
