
#######################################################################
#
#                 Cambridge Crystallographic Data Centre
#                                CCDC 
#
#######################################################################
#
# If this CIF has been generated from an entry in the Cambridge 
# Structural Database, then it will include bibliographic, chemical, 
# crystal, experimental, refinement or atomic coordinate data resulting 
# from the CCDC's data processing and validation procedures.
#
#######################################################################

data_MUGJED01
_symmetry_cell_setting           monoclinic
_symmetry_space_group_name_H-M   'P 21/n'
_symmetry_Int_Tables_number      14
_space_group_name_Hall           '-P 2yn'
loop_
_symmetry_equiv_pos_site_id
_symmetry_equiv_pos_as_xyz
1 x,y,z
2 1/2+x,1/2-y,1/2+z
3 -x,-y,-z
4 1/2-x,1/2+y,1/2-z
_cell_length_a                   6.9080(10)
_cell_length_b                   7.9460(10)
_cell_length_c                   16.3900(10)
_cell_angle_alpha                90
_cell_angle_beta                 100.210(10)
_cell_angle_gamma                90
_cell_volume                     885.417
loop_
_atom_site_label
_atom_site_type_symbol
_atom_site_fract_x
_atom_site_fract_y
_atom_site_fract_z
Cd1 Cd 0.18943(4) 0.00426(3) 0.869010(14)
O1 O 0.3341(4) 0.2740(3) 0.86927(16)
O2 O 0.3385(4) 0.1668(3) 0.99258(15)
O3 O 0.1515(4) -0.1758(3) 0.97203(16)
O4 O 0.0170(5) -0.2963(4) 0.85557(17)
C1 C 0.3752(5) 0.2823(4) 0.9466(2)
C2 C 0.4654(5) 0.4357(5) 0.9837(2)
C3 C 0.0168(5) -0.4410(5) 0.9797(2)
C4 C 0.0638(5) -0.2960(4) 0.9318(2)
O5 O 0.0893(5) 0.0220(4) 0.72971(18)
O6 O 0.4616(4) -0.1481(3) 0.84927(17)
O7 O -0.1112(5) 0.1226(4) 0.86863(19)
H1 H 0.088(7) 0.102(6) 0.707(3)
H2 H 0.117(11) -0.064(10) 0.683(5)
H3 H 0.546(7) -0.146(6) 0.902(3)
H4 H 0.519(8) -0.100(7) 0.812(3)
H5 H -0.120(7) 0.134(6) 0.915(3)
H6 H -0.124(6) 0.196(5) 0.847(3)
C2B C 0.5346(5) 0.5643(5) 1.0163(2)
C1B C 0.6248(5) 0.7177(4) 1.0534(2)
O1B O 0.6659(4) 0.7260(3) 1.13073(16)
O2B O 0.6615(4) 0.8332(3) 1.00742(15)
C3B C -0.0168(5) -0.5590(5) 1.0203(2)
C4B C -0.0638(5) -0.7040(4) 1.0682(2)
O3B O -0.1515(4) -0.8242(3) 1.02797(16)
O4B O -0.0170(5) -0.7037(4) 1.14443(17)
Cd1B Cd 0.81057(4) 0.99574(3) 1.130990(14)
O5B O 0.9107(5) 0.9780(4) 1.27029(18)
H1B H 0.912(7) 0.898(6) 1.293(3)
H2B H 0.883(11) 1.064(10) 1.317(5)
O6B O 0.5384(4) 1.1481(3) 1.15073(17)
H3B H 0.454(7) 1.146(6) 1.098(3)
H4B H 0.481(8) 1.100(7) 1.188(3)
O7B O 1.1112(5) 0.8774(4) 1.13137(19)
H5B H 1.120(7) 0.866(6) 1.085(3)
H6B H 1.124(6) 0.804(5) 1.153(3)
Cd1B_2 Cd -0.18943(4) -1.00426(3) 1.130990(14)
O3B_2 O 0.8485(4) 1.1758(3) 1.02797(16)
O4B_2 O 0.9830(5) 1.2963(4) 1.14443(17)
O8 O -0.1525(5) -0.5787(4) 0.77839(19)
H7 H -0.088(10) -0.481(6) 0.807(4)
H8 H -0.257(8) -0.564(7) 0.762(3)
loop_
_geom_bond_atom_site_label_1
_geom_bond_atom_site_label_2
_geom_bond_site_symmetry_1
_geom_bond_site_symmetry_2
Cd1 O1 1_555 1_555
O1 C1 1_555 1_555
O2 Cd1 1_555 1_555
O3 Cd1 1_555 1_555
O4 Cd1 1_555 1_555
C1 O2 1_555 1_555
C2 C1 1_555 1_555
C3 C4 1_555 1_555
C4 O3 1_555 1_555
O5 Cd1 1_555 1_555
O6 Cd1 1_555 1_555
O7 Cd1 1_555 1_555
O8 H7 1_555 1_555
H1 O5 1_555 1_555
H2 O5 1_555 1_555
H3 O6 1_555 1_555
H4 O6 1_555 1_555
H5 O7 1_555 1_555
H6 O7 1_555 1_555
H8 O8 1_555 1_555
C2B C2 1_555 1_555
C1B C2B 1_555 1_555
O1B C1B 1_555 1_555
O2B C1B 1_555 1_555
C3B C3 1_555 1_555
C4B C3B 1_555 1_555
O3B C4B 1_555 1_555
O4B C4B 1_555 1_555
Cd1B O1B 1_555 1_555
O5B Cd1B 1_555 1_555
H1B O5B 1_555 1_555
H2B O5B 1_555 1_555
O6B Cd1B 1_555 1_555
H3B O6B 1_555 1_555
H4B O6B 1_555 1_555
O7B Cd1B 1_555 1_555
H5B O7B 1_555 1_555
H6B O7B 1_555 1_555
Cd1B_2 O3B 1_555 1_555
O3B_2 Cd1B 1_555 1_555
O4B_2 Cd1B 1_555 1_555
O4 C4 1_555 1_555
O2B Cd1B 1_555 1_555
O4B Cd1B_2 1_555 1_555

#END
