
#######################################################################
#
#                 Cambridge Crystallographic Data Centre
#                                CCDC 
#
#######################################################################
#
# If this CIF has been generated from an entry in the Cambridge 
# Structural Database, then it will include bibliographic, chemical, 
# crystal, experimental, refinement or atomic coordinate data resulting 
# from the CCDC's data processing and validation procedures.
#
#######################################################################

data_MUGJED
_symmetry_cell_setting           monoclinic
_symmetry_space_group_name_H-M   'P 21/n'
_symmetry_Int_Tables_number      14
_space_group_name_Hall           '-P 2yn'
loop_
_symmetry_equiv_pos_site_id
_symmetry_equiv_pos_as_xyz
1 x,y,z
2 1/2+x,1/2-y,1/2+z
3 -x,-y,-z
4 1/2-x,1/2+y,1/2-z
_cell_length_a                   6.8195(7)
_cell_length_b                   7.9530(10)
_cell_length_c                   16.387(2)
_cell_angle_alpha                90
_cell_angle_beta                 99.811(8)
_cell_angle_gamma                90
_cell_volume                     875.759
loop_
_atom_site_label
_atom_site_type_symbol
_atom_site_fract_x
_atom_site_fract_y
_atom_site_fract_z
Cd1 Cd 0.69040(2) 0.00390(2) 0.367930(10)
C1 C 0.9654(4) 0.4366(3) 0.4840(2)
C2 C 0.8755(4) 0.2815(3) 0.4472(2)
O1 O 0.8372(3) 0.2717(2) 0.36923(11)
O2 O 0.8368(3) 0.1659(2) 0.49343(11)
C3 C 0.5167(4) -0.4423(3) 0.4791(2)
C4 C 0.5639(4) -0.2972(3) 0.4307(2)
O3 O 0.5180(3) -0.2977(3) 0.35428(12)
O4 O 0.6546(3) -0.1760(2) 0.47104(11)
O5 O 0.3880(3) 0.1224(3) 0.3695(2)
H1 H 0.371(5) 0.199(5) 0.343(2)
H2 H 0.371(6) 0.143(5) 0.411(3)
O6 O 0.9636(3) -0.1499(3) 0.34812(14)
H3 H 1.038(5) -0.159(4) 0.390(2)
H4 H 1.029(7) -0.121(6) 0.316(3)
O7 O 0.5837(3) 0.0220(3) 0.22886(12)
H5 H 0.585(5) 0.108(6) 0.206(2)
H6 H 0.625(5) -0.053(5) 0.198(2)
C1B C 1.0346(4) 0.5634(3) 0.5160(2)
C2B C 1.1245(4) 0.7185(3) 0.5528(2)
O1B O 1.1628(3) 0.7283(2) 0.63077(11)
O2B O 1.1632(3) 0.8341(2) 0.50657(11)
C3B C 0.4833(4) -0.5577(3) 0.5209(2)
C4B C 0.4361(4) -0.7028(3) 0.5693(2)
O3B O 0.4820(3) -0.7023(3) 0.64572(12)
O4B O 0.3454(3) -0.8240(2) 0.52896(11)
Cd1B Cd 1.30960(2) 0.99610(2) 0.632070(10)
O5B O 1.6120(3) 0.8776(3) 0.6305(2)
H1B H 1.629(5) 0.801(5) 0.657(2)
H2B H 1.629(6) 0.857(5) 0.589(3)
O6B O 1.0364(3) 1.1499(3) 0.65188(14)
H3B H 0.962(5) 1.159(4) 0.610(2)
H4B H 0.971(7) 1.121(6) 0.684(3)
O7B O 1.4163(3) 0.9780(3) 0.77114(12)
H5B H 1.415(5) 0.892(6) 0.794(2)
H6B H 1.375(5) 1.053(5) 0.802(2)
Cd1B_2 Cd 0.30960(2) -1.00390(2) 0.632070(10)
O3B_2 O 1.4820(3) 1.2977(3) 0.64572(12)
O4B_2 O 1.3454(3) 1.1760(2) 0.52896(11)
O8 O 1.1559(4) -0.0807(3) 0.22012(13)
H7 H 1.092(6) 0.012(5) 0.196(3)
H8 H 1.256(7) -0.052(6) 0.236(3)
loop_
_geom_bond_atom_site_label_1
_geom_bond_atom_site_label_2
_geom_bond_site_symmetry_1
_geom_bond_site_symmetry_2
Cd1 O1 1_555 1_555
C1 C2 1_555 1_555
C2 O1 1_555 1_555
O2 Cd1 1_555 1_555
C3 C4 1_555 1_555
C4 O3 1_555 1_555
O3 Cd1 1_555 1_555
O4 Cd1 1_555 1_555
O5 Cd1 1_555 1_555
H1 O5 1_555 1_555
H2 O5 1_555 1_555
O6 Cd1 1_555 1_555
H3 O6 1_555 1_555
H4 O6 1_555 1_555
O7 Cd1 1_555 1_555
H5 O7 1_555 1_555
H6 O7 1_555 1_555
O8 H7 1_555 1_555
H8 O8 1_555 1_555
C1B C1 1_555 1_555
C2B C1B 1_555 1_555
O1B C2B 1_555 1_555
O2B C2B 1_555 1_555
C3B C3 1_555 1_555
C4B C3B 1_555 1_555
O3B C4B 1_555 1_555
O4B C4B 1_555 1_555
Cd1B O1B 1_555 1_555
O5B Cd1B 1_555 1_555
H1B O5B 1_555 1_555
H2B O5B 1_555 1_555
O6B Cd1B 1_555 1_555
H3B O6B 1_555 1_555
H4B O6B 1_555 1_555
O7B Cd1B 1_555 1_555
H5B O7B 1_555 1_555
H6B O7B 1_555 1_555
Cd1B_2 O3B 1_555 1_555
O3B_2 Cd1B 1_555 1_555
O4B_2 Cd1B 1_555 1_555
C2 O2 1_555 1_555
C4 O4 1_555 1_555
O2B Cd1B 1_555 1_555
O4B Cd1B_2 1_555 1_555

#END
