
#######################################################################
#
#                 Cambridge Crystallographic Data Centre
#                                CCDC 
#
#######################################################################
#
# If this CIF has been generated from an entry in the Cambridge 
# Structural Database, then it will include bibliographic, chemical, 
# crystal, experimental, refinement or atomic coordinate data resulting 
# from the CCDC's data processing and validation procedures.
#
#######################################################################

data_MUGQEM
_symmetry_cell_setting           tetragonal
_symmetry_space_group_name_H-M   'I 41/a c d'
_symmetry_Int_Tables_number      142
_space_group_name_Hall           '-I 4bd 2c'
loop_
_symmetry_equiv_pos_site_id
_symmetry_equiv_pos_as_xyz
1 x,y,z
2 1/4-y,3/4+x,1/4+z
3 -x,1/2-y,z
4 1/4+y,1/4-x,3/4+z
5 x,-y,1/2-z
6 1/2-x,y,-z
7 3/4+y,1/4+x,1/4-z
8 1/4-y,1/4-x,1/4-z
9 1/2+x,1/2+y,1/2+z
10 3/4-y,1/4+x,3/4+z
11 1/2-x,-y,1/2+z
12 3/4+y,3/4-x,1/4+z
13 1/2+x,1/2-y,-z
14 -x,1/2+y,1/2-z
15 1/4+y,3/4+x,3/4-z
16 3/4-y,3/4-x,3/4-z
17 -x,-y,-z
18 3/4+y,1/4-x,3/4-z
19 x,1/2+y,-z
20 3/4-y,3/4+x,1/4-z
21 -x,y,1/2+z
22 1/2+x,-y,z
23 1/4-y,3/4-x,3/4+z
24 3/4+y,3/4+x,3/4+z
25 1/2-x,1/2-y,1/2-z
26 1/4+y,3/4-x,1/4-z
27 1/2+x,y,1/2-z
28 1/4-y,1/4+x,3/4-z
29 1/2-x,1/2+y,z
30 x,1/2-y,1/2+z
31 3/4-y,1/4-x,1/4+z
32 1/4+y,1/4+x,1/4+z
_cell_length_a                   19.1314(3)
_cell_length_b                   19.1314(3)
_cell_length_c                   20.6667(3)
_cell_angle_alpha                90
_cell_angle_beta                 90
_cell_angle_gamma                90
_cell_volume                     7564.23
loop_
_atom_site_label
_atom_site_type_symbol
_atom_site_fract_x
_atom_site_fract_y
_atom_site_fract_z
Mn1 Mn 0.2500 0.10902(3) 0.0000
O1 O 0.16612(11) 0.18328(11) 0.00805(9)
H1 H 0.1649 0.1995 0.0464
H2 H 0.1276 0.1630 -0.0003
N1 N 0.26803(10) 0.11308(11) 0.10997(9)
N2 N 0.30129(11) 0.15158(11) 0.15683(9)
N3 N 0.22762(10) 0.07744(10) 0.20661(8)
N4 N 0.33009(16) 0.22924(14) 0.39028(11)
C1 C 0.22576(11) 0.07080(11) 0.14196(10)
C2 C 0.27579(13) 0.12931(12) 0.21280(11)
C3 C 0.29593(13) 0.16179(13) 0.27475(11)
C4 C 0.2629(2) 0.1466(2) 0.33120(14)
H3 H 0.2277 0.1130 0.3321
C5 C 0.2819(2) 0.1813(2) 0.38742(15)
H4 H 0.2587 0.1697 0.4255
C6 C 0.3610(2) 0.2453(2) 0.33518(16)
H5 H 0.3947 0.2803 0.3356
C7 C 0.34633(19) 0.21319(19) 0.27685(15)
H6 H 0.3701 0.2261 0.2395
N1G N 0.13692(11) -0.01803(10) 0.14003(9)
N2G N 0.09842(11) -0.05129(11) 0.09317(9)
N3G N 0.17256(10) 0.02238(10) 0.04339(8)
N4G N 0.02076(14) -0.08009(16) -0.14028(11)
C1G C 0.17920(11) 0.02424(11) 0.10804(10)
C2G C 0.12069(12) -0.02579(13) 0.03720(11)
C3G C 0.08821(13) -0.04593(13) -0.02475(11)
C4G C 0.1034(2) -0.0129(2) -0.08120(14)
H3G H 0.1370 0.0223 -0.0821
C5G C 0.0687(2) -0.0319(2) -0.13742(15)
H4G H 0.0803 -0.0087 -0.1755
C6G C 0.0047(2) -0.1110(2) -0.08518(16)
H5G H -0.0303 -0.1447 -0.0856
C7G C 0.03681(19) -0.09633(19) -0.02685(15)
H6G H 0.0239 -0.1201 0.0105
O1E O 0.33388(11) 0.18328(11) -0.00805(9)
H1E H 0.3351 0.1995 -0.0464
H2E H 0.3724 0.1630 0.0003
Mn1A Mn 0.14098(3) 0.0000 0.2500
N1E N 0.23197(10) 0.11308(11) -0.10997(9)
N3C N 0.32744(10) 0.02238(10) -0.04339(8)
O2 O 0.41143(10) 0.21647(11) 0.10057(9)
H7 H 0.3783 0.1990 0.1227
H8 H 0.4001 0.2573 0.0881
loop_
_geom_bond_atom_site_label_1
_geom_bond_atom_site_label_2
_geom_bond_site_symmetry_1
_geom_bond_site_symmetry_2
Mn1 O1 1_555 1_555
O1 H1 1_555 1_555
H2 O1 1_555 1_555
N1 Mn1 1_555 1_555
N2 N1 1_555 1_555
N3 C1 1_555 1_555
N4 C5 1_555 1_555
C1 N1 1_555 1_555
C2 N2 1_555 1_555
C3 C2 1_555 1_555
C4 C3 1_555 1_555
H3 C4 1_555 1_555
C5 C4 1_555 1_555
H4 C5 1_555 1_555
C6 N4 1_555 1_555
H5 C6 1_555 1_555
C7 C3 1_555 1_555
H6 C7 1_555 1_555
O2 H7 1_555 1_555
H8 O2 1_555 1_555
N1G N2G 1_555 1_555
N2G C2G 1_555 1_555
N3G Mn1 1_555 1_555
N4G C5G 1_555 1_555
C1G C1 1_555 1_555
C2G N3G 1_555 1_555
C3G C2G 1_555 1_555
C4G C3G 1_555 1_555
H3G C4G 1_555 1_555
C5G C4G 1_555 1_555
H4G C5G 1_555 1_555
C6G N4G 1_555 1_555
H5G C6G 1_555 1_555
C7G C3G 1_555 1_555
H6G C7G 1_555 1_555
O1E Mn1 1_555 1_555
H1E O1E 1_555 1_555
H2E O1E 1_555 1_555
Mn1A N3 1_555 1_555
N1E Mn1 1_555 1_555
N3C Mn1 1_555 1_555
N3 C2 1_555 1_555
C6 C7 1_555 1_555
N1G C1G 1_555 1_555
N1G Mn1A 1_555 1_555
N3G C1G 1_555 1_555
C6G C7G 1_555 1_555

#END
