
#######################################################################
#
#                 Cambridge Crystallographic Data Centre
#                                CCDC 
#
#######################################################################
#
# If this CIF has been generated from an entry in the Cambridge 
# Structural Database, then it will include bibliographic, chemical, 
# crystal, experimental, refinement or atomic coordinate data resulting 
# from the CCDC's data processing and validation procedures.
#
#######################################################################

data_MUGSOY
_symmetry_cell_setting           rhombohedral
_symmetry_space_group_name_H-M   'R -3'
_symmetry_Int_Tables_number      148
_space_group_name_Hall           '-R 3'
loop_
_symmetry_equiv_pos_site_id
_symmetry_equiv_pos_as_xyz
1 x,y,z
2 -y,x-y,z
3 -x+y,-x,z
4 2/3+x,1/3+y,1/3+z
5 2/3-y,1/3+x-y,1/3+z
6 2/3-x+y,1/3-x,1/3+z
7 1/3+x,2/3+y,2/3+z
8 1/3-y,2/3+x-y,2/3+z
9 1/3-x+y,2/3-x,2/3+z
10 -x,-y,-z
11 y,-x+y,-z
12 x-y,x,-z
13 1/3-x,2/3-y,2/3-z
14 1/3+y,2/3-x+y,2/3-z
15 1/3+x-y,2/3+x,2/3-z
16 2/3-x,1/3-y,1/3-z
17 2/3+y,1/3-x+y,1/3-z
18 2/3+x-y,1/3+x,1/3-z
_cell_length_a                   29.4783(15)
_cell_length_b                   29.4783(15)
_cell_length_c                   14.1301(8)
_cell_angle_alpha                90
_cell_angle_beta                 90
_cell_angle_gamma                120
_cell_volume                     10633.6
loop_
_atom_site_label
_atom_site_type_symbol
_atom_site_fract_x
_atom_site_fract_y
_atom_site_fract_z
O11 O 0.6463(5) 0.8073(4) 0.5159(6)
H15 H 0.6575 0.7971 0.5620
H16 H 0.6137 0.7865 0.5073
O12 O 0.7063(7) 0.8666(8) 0.3885(19)
H17 H 0.6851 0.8501 0.4333
H18 H 0.7366 0.8714 0.4012
Tb1 Tb 0.674549(12) 0.675725(11) 0.57376(2)
O1 O 0.58623(14) 0.63491(14) 0.6366(2)
O2 O 0.60065(14) 0.68509(15) 0.5133(3)
O3 O 0.63093(14) 0.61366(15) 0.4581(3)
O4 O 0.71530(16) 0.74415(14) 0.4720(3)
O5 O 0.75752(15) 0.71934(16) 0.6565(3)
O6 O 0.73598(16) 0.65514(17) 0.4861(3)
O7 O 0.67696(22) 0.74694(15) 0.6586(3)
O8 O 0.66921(21) 0.60545(15) 0.6552(3)
C1 C 0.5690(2) 0.6525(2) 0.5728(4)
C2 C 0.5903(2) 0.5866(2) 0.4099(4)
C3 C 0.7389(2) 0.7584(2) 0.3950(4)
H1 H 0.7799 0.7150 0.6259
H2 H 0.7536 0.7061 0.7115
H3 H 0.7660 0.6713 0.5119
H4 H 0.7383 0.6650 0.4289
C4 C 0.5125(2) 0.6341(2) 0.5660(4)
C5 C 0.5436(2) 0.54150(19) 0.4570(4)
C6 C 0.78346(19) 0.81343(19) 0.3883(4)
C7 C 0.4920(2) 0.6404(2) 0.4825(4)
C8 C 0.4795(2) 0.6109(2) 0.6429(4)
C9 C 0.4939(2) 0.5206(2) 0.4164(4)
C10 C 0.5489(2) 0.5203(2) 0.5401(4)
C11 C 0.8025(2) 0.8437(2) 0.4705(4)
C12 C 0.8054(2) 0.8363(2) 0.3033(4)
H5 H 0.5137 0.6553 0.4303
C13 C 0.4398(2) 0.6249(2) 0.4762(4)
C14 C 0.4276(2) 0.5968(2) 0.6375(4)
H6 H 0.4926 0.6050 0.6984
H7 H 0.4896 0.5343 0.3599
H8 H 0.5819 0.5337 0.5673
H9 H 0.7881 0.8290 0.5289
C15 C 0.8422(2) 0.8948(2) 0.4658(4)
C16 C 0.8447(2) 0.8879(2) 0.2977(4)
H10 H 0.7935 0.8166 0.2482
H11 H 0.4256 0.6278 0.4193
C17 C 0.4090(2) 0.6051(2) 0.5547(4)
H12 H 0.4055 0.5819 0.6892
H13 H 0.8550 0.9148 0.5205
C18 C 0.86250(19) 0.91606(19) 0.3793(4)
H14 H 0.8587 0.9032 0.2395
O9 O 0.35586(14) 0.59163(14) 0.5505(3)
O10 O 0.90057(13) 0.96960(13) 0.3747(3)
C19 C 0.3456(2) 0.6312(2) 0.5492(4)
C20 C 0.95120(19) 0.98357(19) 0.3748(4)
N1 N 0.38522(16) 0.67991(16) 0.5485(3)
N2 N 0.98246(15) 1.03520(15) 0.3743(3)
O7G O 0.58639(15) 0.59669(27) 0.3253(3)
O8G O 0.72788(15) 0.73043(26) 0.3219(3)
Tb1G Tb 0.657608(11) 0.665491(16) 0.24043(2)
C10I C 0.4511(2) 0.4797(2) 0.4599(4)
C9I C 0.5061(2) 0.4794(2) 0.5836(4)
H8I H 0.4181 0.4663 0.4327
C5I C 0.4564(2) 0.45850(19) 0.5430(4)
H7I H 0.5104 0.4657 0.6401
C2I C 0.4097(2) 0.4134(2) 0.5901(4)
O3I O 0.36907(14) 0.38634(15) 0.5419(3)
O7P O 0.41361(15) 0.40331(27) 0.6747(3)
N1B N 0.29469(23) 0.61478(16) 0.5485(3)
Tb1I Tb 0.325451(12) 0.324275(11) 0.42624(2)
Tb1P Tb 0.342392(11) 0.334509(16) 0.75957(2)
N2A N 0.96480(15) 0.94726(21) 0.3743(3)
C19A C 0.3688(2) 0.7144(3) 0.5492(4)
C19B C 0.2856(3) 0.6544(2) 0.5492(4)
O1I O 0.41377(14) 0.36509(14) 0.3634(2)
O2I O 0.39935(14) 0.31491(15) 0.4867(3)
O4I O 0.28470(16) 0.25585(14) 0.5280(3)
O5I O 0.24248(15) 0.28066(16) 0.3435(3)
O6I O 0.26402(16) 0.34486(17) 0.5139(3)
O7I O 0.32304(22) 0.25306(15) 0.3414(3)
O8I O 0.33079(21) 0.39455(15) 0.3448(3)
O8P O 0.27212(15) 0.26957(26) 0.6781(3)
C20B C 1.03237(27) 1.04880(19) 0.3748(4)
C20A C 1.01643(19) 0.96763(27) 0.3748(4)
N1A N 0.32009(16) 0.70531(23) 0.5485(3)
O9A O 0.40837(14) 0.76423(20) 0.5505(3)
O9B O 0.23577(20) 0.64414(14) 0.5505(3)
C1I C 0.4310(2) 0.3475(2) 0.4272(4)
C3I C 0.2611(2) 0.2416(2) 0.6050(4)
H1I H 0.2201 0.2850 0.3741
H2I H 0.2464 0.2939 0.2885
H3I H 0.2340 0.3287 0.4881
H4I H 0.2617 0.3350 0.5711
N2B N 1.05274(21) 1.01754(15) 0.3743(3)
O10B O 1.06903(18) 1.09943(13) 0.3747(3)
O10A O 1.03040(13) 0.93097(18) 0.3747(3)
C17A C 0.3949(2) 0.8039(3) 0.5547(4)
C17B C 0.1961(3) 0.5910(2) 0.5547(4)
C4I C 0.4875(2) 0.3659(2) 0.4340(4)
C6I C 0.21654(19) 0.18657(19) 0.6117(4)
C18B C 1.05356(27) 1.13750(19) 0.3793(4)
C18A C 1.08394(19) 0.94644(27) 0.3793(4)
C13A C 0.3751(2) 0.8149(3) 0.4762(4)
C14A C 0.4032(2) 0.8308(3) 0.6375(4)
C13B C 0.1851(3) 0.5602(2) 0.4762(4)
C14B C 0.1692(3) 0.5724(2) 0.6375(4)
C7I C 0.5080(2) 0.3596(2) 0.5175(4)
C8I C 0.5205(2) 0.3891(2) 0.3571(4)
C11I C 0.1975(2) 0.1563(2) 0.5295(4)
C12I C 0.1946(2) 0.1637(2) 0.6967(4)
C15B C 1.0526(3) 1.1578(2) 0.4658(4)
C16B C 1.0432(3) 1.1553(2) 0.2977(4)
C15A C 1.1052(2) 0.9474(3) 0.4658(4)
C16A C 1.1121(2) 0.9568(3) 0.2977(4)
C7A C 0.3596(2) 0.8516(3) 0.4825(4)
H11A H 0.3722 0.7978 0.4193
H12A H 0.4181 0.8236 0.6892
C8A C 0.3891(2) 0.8686(3) 0.6429(4)
C7B C 0.1484(3) 0.5080(2) 0.4825(4)
H11B H 0.2022 0.5744 0.4193
H12B H 0.1764 0.5945 0.6892
C8B C 0.1314(3) 0.5205(2) 0.6429(4)
H5I H 0.4863 0.3447 0.5697
C13I C 0.5602(2) 0.3751(2) 0.5238(4)
C14I C 0.5724(2) 0.4032(2) 0.3625(4)
H6I H 0.5074 0.3950 0.3016
H9I H 0.2119 0.1710 0.4711
C15I C 0.1578(2) 0.1052(2) 0.5342(4)
C16I C 0.1553(2) 0.1121(2) 0.7023(4)
H10I H 0.2065 0.1834 0.7518
C11B C 1.0412(3) 1.1975(2) 0.4705(4)
H13B H 1.0598 1.1450 0.5205
H14B H 1.0445 1.1413 0.2395
C12B C 1.0309(3) 1.1946(2) 0.3033(4)
C11A C 1.1563(2) 0.9588(3) 0.4705(4)
H13A H 1.0852 0.9402 0.5205
H14A H 1.0968 0.9555 0.2395
C12A C 1.1637(2) 0.9691(3) 0.3033(4)
C4A C 0.3659(2) 0.8784(3) 0.5660(4)
H5A H 0.3447 0.8584 0.4303
H6A H 0.3950 0.8876 0.6984
C4B C 0.1216(3) 0.4875(2) 0.5660(4)
H5B H 0.1416 0.4863 0.4303
H6B H 0.1124 0.5074 0.6984
H11I H 0.5744 0.3722 0.5807
C17I C 0.5910(2) 0.3949(2) 0.4453(4)
H12I H 0.5945 0.4181 0.3108
H13I H 0.1450 0.0852 0.4795
C18I C 0.13750(19) 0.08394(19) 0.6207(4)
H14I H 0.1413 0.0968 0.7605
C6B C 1.02997(27) 1.21654(19) 0.3883(4)
H9B H 1.0409 1.2119 0.5289
H10B H 1.0231 1.2065 0.2482
C6A C 1.18657(19) 0.97003(27) 0.3883(4)
H9A H 1.1710 0.9591 0.5289
H10A H 1.1834 0.9769 0.2482
C1A C 0.3475(2) 0.9165(3) 0.5728(4)
C1B C 0.0835(3) 0.4310(2) 0.5728(4)
O9I O 0.64414(14) 0.40837(14) 0.4495(3)
O10I O 0.09943(13) 0.03040(13) 0.6253(3)
C3B C 1.0195(3) 1.2611(2) 0.3950(4)
C3A C 1.2416(2) 0.9805(3) 0.3950(4)
O1A O 0.36509(14) 0.95132(20) 0.6366(2)
O2A O 0.31491(15) 0.91556(21) 0.5133(3)
O1B O 0.04868(20) 0.41377(14) 0.6366(2)
O2B O 0.08444(21) 0.39935(14) 0.5133(3)
C19I C 0.6544(2) 0.3688(2) 0.4508(4)
C20I C 0.04880(19) 0.01643(19) 0.6252(4)
O4B O 1.02885(21) 1.28470(16) 0.4720(3)
O8F O 1.00254(21) 1.27212(15) 0.3219(3)
O4A O 1.25585(14) 0.97115(21) 0.4720(3)
O8H O 1.26957(26) 0.99746(21) 0.3219(3)
Tb1A Tb 0.324275(11) 0.998824(16) 0.57376(2)
Tb1B Tb 0.001176(16) 0.325451(12) 0.57376(2)
N1I N 0.61478(16) 0.32009(16) 0.4515(3)
N1K N 0.70531(23) 0.38522(16) 0.4515(3)
N2I N 0.01754(15) -0.03520(15) 0.6257(3)
N2J N 0.03520(15) 0.05274(21) 0.6257(3)
Tb1B_2 Tb 1.001176(16) 1.325451(12) 0.57376(2)
Tb1F Tb 1.007882(12) 1.342392(11) 0.24043(2)
Tb1A_2 Tb 1.324275(11) 0.998824(16) 0.57376(2)
Tb1H Tb 1.334509(16) 0.992118(12) 0.24043(2)
O3A O 0.38634(15) 1.01727(21) 0.4581(3)
O5A O 0.28066(16) 1.03818(22) 0.6565(3)
O6A O 0.34486(17) 1.08084(23) 0.4861(3)
O7A O 0.25306(15) 0.93002(27) 0.6586(3)
O4A_2 O 0.25585(14) 0.97115(21) 0.4720(3)
O8A O 0.39455(15) 1.06376(26) 0.6552(3)
O3B O -0.01727(21) 0.36907(14) 0.4581(3)
O5B O -0.03818(22) 0.24248(15) 0.6565(3)
O6B O -0.08084(23) 0.26402(16) 0.4861(3)
O7B O 0.06998(27) 0.32304(22) 0.6586(3)
O4B_2 O 0.02885(21) 0.28470(16) 0.4720(3)
O8B O -0.06376(26) 0.33079(21) 0.6552(3)
C19J C 0.6312(2) 0.2856(3) 0.4508(4)
C19K C 0.7144(3) 0.3456(2) 0.4508(4)
C20K C -0.03237(27) -0.04880(19) 0.6252(4)
C20J C -0.01643(19) 0.03237(27) 0.6252(4)
C2A C 0.4134(2) 1.0037(3) 0.4099(4)
H1A H 0.2850 1.0649 0.6259
H2A H 0.2939 1.0475 0.7115
H3A H 0.3287 1.0947 0.5119
H4A H 0.3350 1.0733 0.4289
C2B C -0.0037(3) 0.4097(2) 0.4099(4)
H1B H -0.0649 0.2201 0.6259
H2B H -0.0475 0.2464 0.7115
H3B H -0.0947 0.2340 0.5119
H4B H -0.0733 0.2617 0.4289
N1J N 0.67991(16) 0.29469(23) 0.4515(3)
O9J O 0.59163(14) 0.23577(20) 0.4495(3)
O9K O 0.76423(20) 0.35586(14) 0.4495(3)
N2K N -0.05274(21) -0.01754(15) 0.6257(3)
O10K O -0.06903(18) -0.09943(13) 0.6253(3)
O10J O -0.03040(13) 0.06903(18) 0.6253(3)
O7H O 0.40331(27) 0.98971(22) 0.3253(3)
C5A C 0.45850(19) 1.00210(28) 0.4570(4)
O7F O 0.01029(22) 0.41361(15) 0.3253(3)
C5B C -0.00210(28) 0.4564(2) 0.4570(4)
C17J C 0.6051(2) 0.1961(3) 0.4453(4)
C17K C 0.8039(3) 0.4090(2) 0.4453(4)
C18K C -0.05356(27) -0.13750(19) 0.6207(4)
C18J C -0.08394(19) 0.05356(27) 0.6207(4)
Tb1H_2 Tb 0.334509(16) 0.992118(12) 0.24043(2)
C9A C 0.4794(2) 0.9733(3) 0.4164(4)
C10A C 0.4797(2) 1.0286(3) 0.5401(4)
Tb1F_2 Tb 0.007882(12) 0.342392(11) 0.24043(2)
C9B C 0.0267(3) 0.5061(2) 0.4164(4)
C10B C -0.0286(3) 0.4511(2) 0.5401(4)
C13J C 0.6249(2) 0.1851(3) 0.5238(4)
C14J C 0.5968(2) 0.1692(3) 0.3625(4)
C13K C 0.8149(3) 0.4398(2) 0.5238(4)
C14K C 0.8308(3) 0.4276(2) 0.3625(4)
C15K C -0.0526(3) -0.1578(2) 0.5342(4)
C16K C -0.0432(3) -0.1553(2) 0.7023(4)
C15J C -0.1052(2) 0.0526(3) 0.5342(4)
C16J C -0.1121(2) 0.0432(3) 0.7023(4)
H7A H 0.4657 0.9553 0.3599
C10J C 0.5203(2) 0.9714(3) 0.4599(4)
C9J C 0.5206(2) 1.0267(3) 0.5836(4)
H8A H 0.4663 1.0482 0.5673
H7B H 0.0447 0.5104 0.3599
C10K C 0.0286(3) 0.5489(2) 0.4599(4)
C9K C -0.0267(3) 0.4939(2) 0.5836(4)
H8B H -0.0482 0.4181 0.5673
C7J C 0.6404(2) 0.1484(3) 0.5175(4)
H11J H 0.6278 0.2022 0.5807
H12J H 0.5819 0.1764 0.3108
C8J C 0.6109(2) 0.1314(3) 0.3571(4)
C7K C 0.8516(3) 0.4920(2) 0.5175(4)
H11K H 0.7978 0.4256 0.5807
H12K H 0.8236 0.4055 0.3108
C8K C 0.8686(3) 0.4795(2) 0.3571(4)
C11K C -0.0412(3) -0.1975(2) 0.5295(4)
H13K H -0.0598 -0.1450 0.4795
H14K H -0.0445 -0.1413 0.7605
C12K C -0.0309(3) -0.1946(2) 0.6967(4)
C11J C -0.1563(2) 0.0412(3) 0.5295(4)
H13J H -0.0852 0.0598 0.4795
H14J H -0.0968 0.0445 0.7605
C12J C -0.1637(2) 0.0309(3) 0.6967(4)
H8J H 0.5337 0.9518 0.4327
C5J C 0.54150(19) 0.99790(28) 0.5430(4)
H7J H 0.5343 1.0447 0.6401
H8K H 0.0482 0.5819 0.4327
C5K C 0.00210(28) 0.5436(2) 0.5430(4)
H7K H -0.0447 0.4896 0.6401
C4J C 0.6341(2) 0.1216(3) 0.4340(4)
H5J H 0.6553 0.1416 0.5697
H6J H 0.6050 0.1124 0.3016
C4K C 0.8784(3) 0.5125(2) 0.4340(4)
H5K H 0.8584 0.5137 0.5697
H6K H 0.8876 0.4926 0.3016
C6K C -0.02997(27) -0.21654(19) 0.6117(4)
H9K H -0.0409 -0.2119 0.4711
H10K H -0.0231 -0.2065 0.7518
C6J C -0.18657(19) 0.02997(27) 0.6117(4)
H9J H -0.1710 0.0409 0.4711
H10J H -0.1834 0.0231 0.7518
C2J C 0.5866(2) 0.9963(3) 0.5901(4)
C2K C 0.0037(3) 0.5903(2) 0.5901(4)
C1J C 0.6525(2) 0.0835(3) 0.4272(4)
C1K C 0.9165(3) 0.5690(2) 0.4272(4)
C3K C -0.0195(3) -0.2611(2) 0.6050(4)
C3J C -0.2416(2) 0.0195(3) 0.6050(4)
O3J O 0.61366(15) 0.98273(21) 0.5419(3)
O7Q O 0.59669(27) 1.01029(22) 0.6747(3)
O3K O 0.01727(21) 0.63093(14) 0.5419(3)
O7O O -0.01029(22) 0.58639(15) 0.6747(3)
O1J O 0.63491(14) 0.04868(20) 0.3634(2)
O2J O 0.68509(15) 0.08444(21) 0.4867(3)
O1K O 0.95132(20) 0.58623(14) 0.3634(2)
O2K O 0.91556(21) 0.60065(14) 0.4867(3)
O4K O -0.02885(21) -0.28470(16) 0.5280(3)
O8O O -0.00254(21) -0.27212(15) 0.6781(3)
O4J O -0.25585(14) 0.02885(21) 0.5280(3)
O8Q O -0.26957(26) 0.00254(21) 0.6781(3)
Tb1J Tb 0.675725(11) 1.001176(16) 0.42624(2)
Tb1Q Tb 0.665491(16) 1.007882(12) 0.75957(2)
Tb1K Tb -0.001176(16) 0.674549(12) 0.42624(2)
Tb1O Tb -0.007882(12) 0.657608(11) 0.75957(2)
Tb1J_2 Tb 0.675725(11) 0.001176(16) 0.42624(2)
Tb1K_2 Tb 0.998824(16) 0.674549(12) 0.42624(2)
Tb1K_3 Tb -0.001176(16) -0.325451(12) 0.42624(2)
Tb1O_2 Tb -0.007882(12) -0.342392(11) 0.75957(2)
Tb1J_3 Tb -0.324275(11) 0.001176(16) 0.42624(2)
Tb1Q_2 Tb -0.334509(16) 0.007882(12) 0.75957(2)
O5K O 0.03818(22) -0.24248(15) 0.3435(3)
O6K O 0.08084(23) -0.26402(16) 0.5139(3)
O1K_2 O -0.04868(20) -0.41377(14) 0.3634(2)
O2K_2 O -0.08444(21) -0.39935(14) 0.4867(3)
O3K_2 O 0.01727(21) -0.36907(14) 0.5419(3)
O7K O -0.06998(27) -0.32304(22) 0.3414(3)
O8K O 0.06376(26) -0.33079(21) 0.3448(3)
O5J O -0.28066(16) -0.03818(22) 0.3435(3)
O6J O -0.34486(17) -0.08084(23) 0.5139(3)
O1J_2 O -0.36509(14) 0.04868(20) 0.3634(2)
O2J_2 O -0.31491(15) 0.08444(21) 0.4867(3)
O3J_2 O -0.38634(15) -0.01727(21) 0.5419(3)
O7J O -0.25306(15) 0.06998(27) 0.3414(3)
O8J O -0.39455(15) -0.06376(26) 0.3448(3)
H1K H 0.0649 -0.2201 0.3741
H2K H 0.0475 -0.2464 0.2885
H3K H 0.0947 -0.2340 0.4881
H4K H 0.0733 -0.2617 0.5711
H1J H -0.2850 -0.0649 0.3741
H2J H -0.2939 -0.0475 0.2885
H3J H -0.3287 -0.0947 0.4881
H4J H -0.3350 -0.0733 0.5711
loop_
_geom_bond_atom_site_label_1
_geom_bond_atom_site_label_2
_geom_bond_site_symmetry_1
_geom_bond_site_symmetry_2
Tb1 O1 1_555 1_555
O1 C1 1_555 1_555
O2 Tb1 1_555 1_555
O3 Tb1 1_555 1_555
O4 Tb1 1_555 1_555
O5 Tb1 1_555 1_555
O6 Tb1 1_555 1_555
O7 Tb1 1_555 1_555
O8 Tb1 1_555 1_555
C1 O2 1_555 1_555
C2 O3 1_555 1_555
C3 O4 1_555 1_555
H1 O5 1_555 1_555
H2 O5 1_555 1_555
H3 O6 1_555 1_555
H4 O6 1_555 1_555
C4 C1 1_555 1_555
C5 C2 1_555 1_555
C6 C3 1_555 1_555
C7 C4 1_555 1_555
C8 C4 1_555 1_555
C9 C5 1_555 1_555
C10 C5 1_555 1_555
C11 C6 1_555 1_555
C12 C6 1_555 1_555
H5 C7 1_555 1_555
C13 C7 1_555 1_555
C14 C8 1_555 1_555
H6 C8 1_555 1_555
H7 C9 1_555 1_555
H8 C10 1_555 1_555
H9 C11 1_555 1_555
C15 C11 1_555 1_555
C16 C12 1_555 1_555
H10 C12 1_555 1_555
H11 C13 1_555 1_555
C17 C13 1_555 1_555
H12 C14 1_555 1_555
H13 C15 1_555 1_555
C18 C15 1_555 1_555
H14 C16 1_555 1_555
O9 C17 1_555 1_555
O10 C18 1_555 1_555
C19 O9 1_555 1_555
C20 O10 1_555 1_555
N1 C19 1_555 1_555
N2 C20 1_555 1_555
O11 H15 1_555 1_555
H16 O11 1_555 1_555
O12 H17 1_555 1_555
H18 O12 1_555 1_555
O7G C2 1_555 1_555
O8G C3 1_555 1_555
Tb1G O7G 1_555 1_555
C10I C9 1_555 1_555
C9I C10 1_555 1_555
H8I C10I 1_555 1_555
C5I C10I 1_555 1_555
H7I C9I 1_555 1_555
C2I C5I 1_555 1_555
O3I C2I 1_555 1_555
O7P C2I 1_555 1_555
N1B C19 1_555 1_555
Tb1I O3I 1_555 1_555
Tb1P O7P 1_555 1_555
N2A C20 1_555 1_555
C19A N1 1_555 1_555
C19B N1B 1_555 1_555
O1I Tb1I 1_555 1_555
O2I Tb1I 1_555 1_555
O4I Tb1I 1_555 1_555
O5I Tb1I 1_555 1_555
O6I Tb1I 1_555 1_555
O7I Tb1I 1_555 1_555
O8I Tb1I 1_555 1_555
O8P Tb1P 1_555 1_555
C20B N2 1_555 1_555
C20A N2A 1_555 1_555
N1A C19A 1_555 1_555
O9A C19A 1_555 1_555
O9B C19B 1_555 1_555
C1I O1I 1_555 1_555
C3I O4I 1_555 1_555
H1I O5I 1_555 1_555
H2I O5I 1_555 1_555
H3I O6I 1_555 1_555
H4I O6I 1_555 1_555
N2B C20B 1_555 1_555
O10B C20B 1_555 1_555
O10A C20A 1_555 1_555
C17A O9A 1_555 1_555
C17B O9B 1_555 1_555
C4I C1I 1_555 1_555
C6I C3I 1_555 1_555
C18B O10B 1_555 1_555
C18A O10A 1_555 1_555
C13A C17A 1_555 1_555
C14A C17A 1_555 1_555
C13B C17B 1_555 1_555
C14B C17B 1_555 1_555
C7I C4I 1_555 1_555
C8I C4I 1_555 1_555
C11I C6I 1_555 1_555
C12I C6I 1_555 1_555
C15B C18B 1_555 1_555
C16B C18B 1_555 1_555
C15A C18A 1_555 1_555
C16A C18A 1_555 1_555
C7A C13A 1_555 1_555
H11A C13A 1_555 1_555
H12A C14A 1_555 1_555
C8A C14A 1_555 1_555
C7B C13B 1_555 1_555
H11B C13B 1_555 1_555
H12B C14B 1_555 1_555
C8B C14B 1_555 1_555
H5I C7I 1_555 1_555
C13I C7I 1_555 1_555
C14I C8I 1_555 1_555
H6I C8I 1_555 1_555
H9I C11I 1_555 1_555
C15I C11I 1_555 1_555
C16I C12I 1_555 1_555
H10I C12I 1_555 1_555
C11B C15B 1_555 1_555
H13B C15B 1_555 1_555
H14B C16B 1_555 1_555
C12B C16B 1_555 1_555
C11A C15A 1_555 1_555
H13A C15A 1_555 1_555
H14A C16A 1_555 1_555
C12A C16A 1_555 1_555
C4A C7A 1_555 1_555
H5A C7A 1_555 1_555
H6A C8A 1_555 1_555
C4B C7B 1_555 1_555
H5B C7B 1_555 1_555
H6B C8B 1_555 1_555
H11I C13I 1_555 1_555
C17I C13I 1_555 1_555
H12I C14I 1_555 1_555
H13I C15I 1_555 1_555
C18I C15I 1_555 1_555
H14I C16I 1_555 1_555
C6B C11B 1_555 1_555
H9B C11B 1_555 1_555
H10B C12B 1_555 1_555
C6A C11A 1_555 1_555
H9A C11A 1_555 1_555
H10A C12A 1_555 1_555
C1A C4A 1_555 1_555
C1B C4B 1_555 1_555
O9I C17I 1_555 1_555
O10I C18I 1_555 1_555
C3B C6B 1_555 1_555
C3A C6A 1_555 1_555
O1A C1A 1_555 1_555
O2A C1A 1_555 1_555
O1B C1B 1_555 1_555
O2B C1B 1_555 1_555
C19I O9I 1_555 1_555
C20I O10I 1_555 1_555
O4B C3B 1_555 1_555
O8F C3B 1_555 1_555
O4A C3A 1_555 1_555
O8H C3A 1_555 1_555
Tb1A O1A 1_555 1_555
Tb1B O1B 1_555 1_555
N1I C19I 1_555 1_555
N1K C19I 1_555 1_555
N2I C20I 1_555 1_555
N2J C20I 1_555 1_555
Tb1B_2 O4B 1_555 1_555
Tb1F O8F 1_555 1_555
Tb1A_2 O4A 1_555 1_555
Tb1H O8H 1_555 1_555
O3A Tb1A 1_555 1_555
O5A Tb1A 1_555 1_555
O6A Tb1A 1_555 1_555
O7A Tb1A 1_555 1_555
O4A_2 Tb1A 1_555 1_555
O8A Tb1A 1_555 1_555
O3B Tb1B 1_555 1_555
O5B Tb1B 1_555 1_555
O6B Tb1B 1_555 1_555
O7B Tb1B 1_555 1_555
O4B_2 Tb1B 1_555 1_555
O8B Tb1B 1_555 1_555
C19J N1I 1_555 1_555
C19K N1K 1_555 1_555
C20K N2I 1_555 1_555
C20J N2J 1_555 1_555
C2A O3A 1_555 1_555
H1A O5A 1_555 1_555
H2A O5A 1_555 1_555
H3A O6A 1_555 1_555
H4A O6A 1_555 1_555
C2B O3B 1_555 1_555
H1B O5B 1_555 1_555
H2B O5B 1_555 1_555
H3B O6B 1_555 1_555
H4B O6B 1_555 1_555
N1J C19J 1_555 1_555
O9J C19J 1_555 1_555
O9K C19K 1_555 1_555
N2K C20K 1_555 1_555
O10K C20K 1_555 1_555
O10J C20J 1_555 1_555
O7H C2A 1_555 1_555
C5A C2A 1_555 1_555
O7F C2B 1_555 1_555
C5B C2B 1_555 1_555
C17J O9J 1_555 1_555
C17K O9K 1_555 1_555
C18K O10K 1_555 1_555
C18J O10J 1_555 1_555
Tb1H_2 O7H 1_555 1_555
C9A C5A 1_555 1_555
C10A C5A 1_555 1_555
Tb1F_2 O7F 1_555 1_555
C9B C5B 1_555 1_555
C10B C5B 1_555 1_555
C13J C17J 1_555 1_555
C14J C17J 1_555 1_555
C13K C17K 1_555 1_555
C14K C17K 1_555 1_555
C15K C18K 1_555 1_555
C16K C18K 1_555 1_555
C15J C18J 1_555 1_555
C16J C18J 1_555 1_555
H7A C9A 1_555 1_555
C10J C9A 1_555 1_555
C9J C10A 1_555 1_555
H8A C10A 1_555 1_555
H7B C9B 1_555 1_555
C10K C9B 1_555 1_555
C9K C10B 1_555 1_555
H8B C10B 1_555 1_555
C7J C13J 1_555 1_555
H11J C13J 1_555 1_555
H12J C14J 1_555 1_555
C8J C14J 1_555 1_555
C7K C13K 1_555 1_555
H11K C13K 1_555 1_555
H12K C14K 1_555 1_555
C8K C14K 1_555 1_555
C11K C15K 1_555 1_555
H13K C15K 1_555 1_555
H14K C16K 1_555 1_555
C12K C16K 1_555 1_555
C11J C15J 1_555 1_555
H13J C15J 1_555 1_555
H14J C16J 1_555 1_555
C12J C16J 1_555 1_555
H8J C10J 1_555 1_555
C5J C10J 1_555 1_555
H7J C9J 1_555 1_555
H8K C10K 1_555 1_555
C5K C10K 1_555 1_555
H7K C9K 1_555 1_555
C4J C7J 1_555 1_555
H5J C7J 1_555 1_555
H6J C8J 1_555 1_555
C4K C7K 1_555 1_555
H5K C7K 1_555 1_555
H6K C8K 1_555 1_555
C6K C11K 1_555 1_555
H9K C11K 1_555 1_555
H10K C12K 1_555 1_555
C6J C11J 1_555 1_555
H9J C11J 1_555 1_555
H10J C12J 1_555 1_555
C2J C5J 1_555 1_555
C2K C5K 1_555 1_555
C1J C4J 1_555 1_555
C1K C4K 1_555 1_555
C3K C6K 1_555 1_555
C3J C6J 1_555 1_555
O3J C2J 1_555 1_555
O7Q C2J 1_555 1_555
O3K C2K 1_555 1_555
O7O C2K 1_555 1_555
O1J C1J 1_555 1_555
O2J C1J 1_555 1_555
O1K C1K 1_555 1_555
O2K C1K 1_555 1_555
O4K C3K 1_555 1_555
O8O C3K 1_555 1_555
O4J C3J 1_555 1_555
O8Q C3J 1_555 1_555
Tb1J O3J 1_555 1_555
Tb1Q O7Q 1_555 1_555
Tb1K O3K 1_555 1_555
Tb1O O7O 1_555 1_555
Tb1J_2 O1J 1_555 1_555
Tb1K_2 O1K 1_555 1_555
Tb1K_3 O4K 1_555 1_555
Tb1O_2 O8O 1_555 1_555
Tb1J_3 O4J 1_555 1_555
Tb1Q_2 O8Q 1_555 1_555
O5K Tb1K_3 1_555 1_555
O6K Tb1K_3 1_555 1_555
O1K_2 Tb1K_3 1_555 1_555
O2K_2 Tb1K_3 1_555 1_555
O3K_2 Tb1K_3 1_555 1_555
O7K Tb1K_3 1_555 1_555
O8K Tb1K_3 1_555 1_555
O5J Tb1J_3 1_555 1_555
O6J Tb1J_3 1_555 1_555
O1J_2 Tb1J_3 1_555 1_555
O2J_2 Tb1J_3 1_555 1_555
O3J_2 Tb1J_3 1_555 1_555
O7J Tb1J_3 1_555 1_555
O8J Tb1J_3 1_555 1_555
H1K O5K 1_555 1_555
H2K O5K 1_555 1_555
H3K O6K 1_555 1_555
H4K O6K 1_555 1_555
H1J O5J 1_555 1_555
H2J O5J 1_555 1_555
H3J O6J 1_555 1_555
H4J O6J 1_555 1_555
C14 C17 1_555 1_555
C16 C18 1_555 1_555
O8G Tb1G 1_555 1_555
C9I C5I 1_555 1_555
C19B N1A 1_555 1_555
O2I C1I 1_555 1_555
O8P C3I 1_555 1_555
C20A N2B 1_555 1_555
C8A C4A 1_555 1_555
C8B C4B 1_555 1_555
C14I C17I 1_555 1_555
C16I C18I 1_555 1_555
C12B C6B 1_555 1_555
C12A C6A 1_555 1_555
O2A Tb1A 1_555 1_555
O2B Tb1B 1_555 1_555
C19K N1J 1_555 1_555
C20J N2K 1_555 1_555
C9J C5J 1_555 1_555
C9K C5K 1_555 1_555
C8J C4J 1_555 1_555
C8K C4K 1_555 1_555
C12K C6K 1_555 1_555
C12J C6J 1_555 1_555
O2J Tb1J_2 1_555 1_555
O2K Tb1K_2 1_555 1_555

#END
