
#######################################################################
#
#                 Cambridge Crystallographic Data Centre
#                                CCDC 
#
#######################################################################
#
# If this CIF has been generated from an entry in the Cambridge 
# Structural Database, then it will include bibliographic, chemical, 
# crystal, experimental, refinement or atomic coordinate data resulting 
# from the CCDC's data processing and validation procedures.
#
#######################################################################

data_MUHBAT
_symmetry_cell_setting           monoclinic
_symmetry_space_group_name_H-M   'C 2/c'
_symmetry_Int_Tables_number      15
_space_group_name_Hall           '-C 2yn'
loop_
_symmetry_equiv_pos_site_id
_symmetry_equiv_pos_as_xyz
1 x,y,z
2 -x,y,1/2-z
3 1/2+x,1/2+y,z
4 1/2-x,1/2+y,1/2-z
5 -x,-y,-z
6 x,-y,1/2+z
7 1/2-x,1/2-y,-z
8 1/2+x,1/2-y,1/2+z
_cell_length_a                   26.6151(11)
_cell_length_b                   11.8583(5)
_cell_length_c                   7.2206(3)
_cell_angle_alpha                90
_cell_angle_beta                 94.008(3)
_cell_angle_gamma                90
_cell_volume                     2273.32
loop_
_atom_site_label
_atom_site_type_symbol
_atom_site_fract_x
_atom_site_fract_y
_atom_site_fract_z
Mn1 Mn 0.50000 0.11648(5) 0.25000
O1 O 0.43779(7) 0.01884(15) 0.3102(3)
C1 C 0.43088(11) -0.0788(2) 0.3777(4)
O2 O 0.46293(7) -0.13686(14) 0.4700(3)
C2 C 0.37862(10) -0.1266(2) 0.3373(4)
C3 C 0.34418(10) -0.0730(2) 0.2133(4)
H1 H 0.3534 -0.0062 0.1513
C4 C 0.29663(10) -0.1175(2) 0.1813(4)
C5 C 0.28201(11) -0.2147(2) 0.2695(4)
H2 H 0.2491 -0.2444 0.2452
C6 C 0.31622(11) -0.2676(2) 0.3934(4)
H3 H 0.3067 -0.3338 0.456
C7 C 0.36428(11) -0.2247(2) 0.4266(4)
H4 H 0.3877 -0.2622 0.5107
Cl1 Cl 0.25337(3) -0.04868(7) 0.02661(12)
N1 N 0.54488(9) 0.27356(18) 0.1747(3)
C8 C 0.58973(11) 0.2724(2) 0.1044(4)
H5 H 0.6039 0.2017 0.0748
C9 C 0.61700(11) 0.3697(2) 0.0721(4)
H6 H 0.6492 0.3651 0.0238
C10 C 0.59649(11) 0.4725(2) 0.1111(4)
H7 H 0.6149 0.5397 0.092
C11 C 0.54861(11) 0.4787(2) 0.1789(4)
C12 C 0.52450(10) 0.3751(2) 0.2125(4)
C13 C 0.52317(11) 0.5825(2) 0.2171(4)
H8 H 0.5393 0.6523 0.1957
Mn1D Mn 0.50000 -0.11648(5) 0.75000
Mn1D_2 Mn 0.50000 -0.11648(5) -0.25000
O1A O 0.56221(7) 0.01884(15) 0.1898(3)
C1A C 0.56912(11) -0.0788(2) 0.1223(4)
O2D O 0.53707(7) 0.13686(14) 0.5300(3)
O2A O 0.53707(7) -0.13686(14) 0.0300(3)
O2E O 0.46293(7) 0.13686(14) -0.0300(3)
C2A C 0.62138(10) -0.1266(2) 0.1627(4)
C3A C 0.65582(10) -0.0730(2) 0.2867(4)
H1A H 0.6466 -0.0062 0.3487
C4A C 0.70337(10) -0.1175(2) 0.3187(4)
C5A C 0.71799(11) -0.2147(2) 0.2305(4)
H2A H 0.7509 -0.2444 0.2548
C6A C 0.68378(11) -0.2676(2) 0.1066(4)
H3A H 0.6933 -0.3338 0.044
C7A C 0.63572(11) -0.2247(2) 0.0734(4)
H4A H 0.6123 -0.2622 -0.0107
Cl1A Cl 0.74663(3) -0.04868(7) 0.47339(12)
N1A N 0.45512(9) 0.27356(18) 0.3253(3)
C8A C 0.41027(11) 0.2724(2) 0.3956(4)
H5A H 0.3961 0.2017 0.4252
C9A C 0.38300(11) 0.3697(2) 0.4279(4)
H6A H 0.3508 0.3651 0.4762
C10A C 0.40351(11) 0.4725(2) 0.3889(4)
H7A H 0.3851 0.5397 0.408
C11A C 0.45139(11) 0.4787(2) 0.3211(4)
C12A C 0.47550(10) 0.3751(2) 0.2875(4)
C13A C 0.47683(11) 0.5825(2) 0.2829(4)
H8A H 0.4607 0.6523 0.3043
loop_
_geom_bond_atom_site_label_1
_geom_bond_atom_site_label_2
_geom_bond_site_symmetry_1
_geom_bond_site_symmetry_2
Mn1 O1 1_555 1_555
O1 C1 1_555 1_555
C1 O2 1_555 1_555
O2 Mn1D 1_555 1_555
C2 C1 1_555 1_555
C3 C2 1_555 1_555
H1 C3 1_555 1_555
C4 C3 1_555 1_555
C5 C4 1_555 1_555
H2 C5 1_555 1_555
C6 C5 1_555 1_555
H3 C6 1_555 1_555
C7 C2 1_555 1_555
H4 C7 1_555 1_555
Cl1 C4 1_555 1_555
N1 Mn1 1_555 1_555
C8 N1 1_555 1_555
H5 C8 1_555 1_555
C9 C8 1_555 1_555
H6 C9 1_555 1_555
C10 C9 1_555 1_555
H7 C10 1_555 1_555
C11 C10 1_555 1_555
C12 N1 1_555 1_555
C13 C11 1_555 1_555
H8 C13 1_555 1_555
Mn1D_2 O2A 1_555 1_555
O1A Mn1 1_555 1_555
C1A O1A 1_555 1_555
O2D Mn1 1_555 1_555
O2A C1A 1_555 1_555
O2E Mn1 1_555 1_555
C2A C1A 1_555 1_555
C3A C2A 1_555 1_555
H1A C3A 1_555 1_555
C4A C3A 1_555 1_555
C5A C4A 1_555 1_555
H2A C5A 1_555 1_555
C6A C5A 1_555 1_555
H3A C6A 1_555 1_555
C7A C2A 1_555 1_555
H4A C7A 1_555 1_555
Cl1A C4A 1_555 1_555
N1A Mn1 1_555 1_555
C8A N1A 1_555 1_555
H5A C8A 1_555 1_555
C9A C8A 1_555 1_555
H6A C9A 1_555 1_555
C10A C9A 1_555 1_555
H7A C10A 1_555 1_555
C11A C10A 1_555 1_555
C12A C12 1_555 1_555
C13A C13 1_555 1_555
H8A C13A 1_555 1_555
C6 C7 1_555 1_555
C11 C12 1_555 1_555
C6A C7A 1_555 1_555
N1A C12A 1_555 1_555
C11A C12A 1_555 1_555
C11A C13A 1_555 1_555

#END
