
#######################################################################
#
#                 Cambridge Crystallographic Data Centre
#                                CCDC 
#
#######################################################################
#
# If this CIF has been generated from an entry in the Cambridge 
# Structural Database, then it will include bibliographic, chemical, 
# crystal, experimental, refinement or atomic coordinate data resulting 
# from the CCDC's data processing and validation procedures.
#
#######################################################################

data_MUHJUU
_symmetry_cell_setting           tetragonal
_symmetry_space_group_name_H-M   'P 41'
_symmetry_Int_Tables_number      76
_space_group_name_Hall           'P 4w'
loop_
_symmetry_equiv_pos_site_id
_symmetry_equiv_pos_as_xyz
1 x,y,z
2 -x,-y,1/2+z
3 -y,x,1/4+z
4 y,-x,3/4+z
_cell_length_a                   22.3171(4)
_cell_length_b                   22.3171(4)
_cell_length_c                   13.2602(1)
_cell_angle_alpha                90
_cell_angle_beta                 90
_cell_angle_gamma                90
_cell_volume                     6604.28
loop_
_atom_site_label
_atom_site_type_symbol
_atom_site_fract_x
_atom_site_fract_y
_atom_site_fract_z
Fe1 Fe 0.14213(7) 0.15338(7) -0.0033
Fe2 Fe 0.35957(8) 0.34394(8) 0.01849(12)
Fe3 Fe 0.14001(8) 0.34489(8) 0.51681(18)
Fe4 Fe 0.36091(7) 0.15587(7) 0.49777(19)
O1 O 0.1930(3) 0.2364(3) -0.0357(4)
O2 O 0.3068(3) 0.2633(3) 0.0417(5)
O3 O 0.1923(3) 0.2645(3) 0.5414(5)
O4 O 0.3072(3) 0.2361(3) 0.4664(5)
N1 N 0.0931(4) 0.1983(3) 0.1150(5)
N2 N 0.0439(4) 0.2606(3) 0.2449(5)
N3 N 0.0921(4) 0.3048(4) 0.3934(6)
N4 N 0.2002(4) 0.1160(4) 0.1062(6)
N5 N 0.2625(4) 0.0663(4) 0.2306(6)
N6 N 0.3120(4) 0.1112(4) 0.3774(5)
N7 N 0.0812(4) 0.1876(4) -0.1188(6)
N8 N 0.0267(3) 0.2473(4) -0.2486(6)
N9 N 0.0795(4) 0.3073(4) -0.3734(6)
N10 N 0.1918(4) 0.1089(4) -0.1203(5)
N11 N 0.2335(4) 0.0669(3) -0.2758(5)
N12 N 0.3002(4) 0.1165(4) -0.3960(5)
N13 N 0.3107(4) 0.3875(4) 0.1336(5)
N14 N 0.2461(3) 0.4350(3) 0.2615(5)
N15 N 0.1988(4) 0.3860(4) 0.4074(6)
N16 N 0.4180(4) 0.3077(4) 0.1332(6)
N17 N 0.4732(4) 0.2406(4) 0.2483(6)
N18 N 0.4221(3) 0.1923(3) 0.3918(5)
N19 N 0.3039(4) 0.3828(3) -0.0922(5)
N20 N 0.2462(4) 0.4346(4) -0.2269(6)
N21 N 0.1903(4) 0.3886(4) -0.3643(5)
N22 N 0.4106(4) 0.2994(4) -0.1000(6)
N23 N 0.4601(3) 0.2426(4) -0.2368(6)
N24 N 0.4076(4) 0.1993(4) -0.3817(6)
N25 N 0.0786(3) 0.0791(3) 0.0089(7)
N26 N -0.1274(4) -0.1644(4) 0.0000(8)
N27 N 0.4262(3) 0.4173(3) 0.0097(7)
N28 N 0.6300(4) 0.6621(4) 0.0042(8)
N29 N 0.0782(4) 0.4206(3) 0.5081(7)
N30 N -0.1273(4) 0.6633(4) 0.5030(8)
N31 N 0.4229(3) 0.0811(3) 0.5086(7)
N32 N 0.6318(4) -0.1596(4) 0.5089(9)
C1 C 0.0710(4) 0.2282(4) 0.1765(6)
C2 C 0.0734(5) 0.2797(4) 0.3248(6)
C3 C 0.2301(4) 0.0941(4) 0.1664(6)
C4 C 0.2872(4) 0.0930(4) 0.3083(5)
C5 C 0.0580(4) 0.2145(3) -0.1825(5)
C6 C 0.0586(4) 0.2780(4) -0.3129(5)
C7 C 0.2135(4) 0.0917(4) -0.1926(5)
C8 C 0.2714(4) 0.0963(4) -0.3332(6)
C9 C 0.2798(4) 0.4078(4) 0.1960(6)
C10 C 0.2220(4) 0.4061(4) 0.3375(6)
C11 C 0.4433(5) 0.2769(4) 0.1898(7)
C12 C 0.4452(5) 0.2197(5) 0.3293(7)
C13 C 0.2755(4) 0.4039(4) -0.1565(6)
C14 C 0.2180(4) 0.4060(4) -0.2981(6)
C15 C 0.4315(4) 0.2754(3) -0.1697(5)
C16 C 0.4282(5) 0.2203(4) -0.3114(6)
C17 C 0.0977(4) 0.0224(4) 0.0078(7)
H1 H 0.1396 0.0148 0.0081
C18 C 0.0583(4) -0.0264(4) 0.0064(6)
H2 H 0.0734 -0.0662 0.0050
C19 C -0.0028(3) -0.0162(3) 0.0070(6)
C20 C -0.0463(4) -0.0686(4) 0.0074(8)
C21 C -0.0265(4) -0.1267(4) 0.0098(6)
H3 H 0.0152 -0.1352 0.0128
C22 C -0.0685(4) -0.1730(4) 0.0079(8)
H4 H -0.0543 -0.2131 0.0126
C23 C -0.1477(4) -0.1079(4) -0.0025(8)
H5 H -0.1894 -0.1006 -0.0101
C24 C -0.1077(4) -0.0594(4) 0.0060(8)
H6 H -0.1231 -0.0197 0.0108
C25 C -0.0225(4) 0.0425(4) 0.0082(6)
H7 H -0.0642 0.0511 0.0086
C26 C 0.0194(3) 0.0891(3) 0.0089(7)
H8 H 0.0053 0.1293 0.0094
C27 C 0.4069(4) 0.4744(4) 0.0110(7)
H9 H 0.3651 0.4820 0.0128
C28 C 0.4469(4) 0.5232(3) 0.0099(6)
H10 H 0.4318 0.5629 0.0103
C29 C 0.5073(4) 0.5135(3) 0.0082(7)
C30 C 0.5513(4) 0.5640(4) 0.0101(7)
C31 C 0.5301(4) 0.6227(4) 0.0108(7)
H11 H 0.4883 0.6305 0.0126
C32 C 0.5707(4) 0.6699(4) 0.0086(8)
H12 H 0.5556 0.7096 0.0104
C33 C 0.6498(4) 0.6054(4) 0.0058(7)
H13 H 0.6916 0.5984 -0.0002
C34 C 0.6121(4) 0.5565(4) 0.0157(7)
H14 H 0.6284 0.5177 0.0263
C35 C 0.5275(4) 0.4545(4) 0.0079(7)
H15 H 0.5693 0.4461 0.0081
C36 C 0.4856(3) 0.4075(3) 0.0073(7)
H16 H 0.4997 0.3673 0.0052
C37 C 0.0969(4) 0.4778(4) 0.5132(7)
H17 H 0.1387 0.4852 0.5164
C38 C 0.0593(4) 0.5257(4) 0.5140(6)
H18 H 0.0750 0.5652 0.5179
C39 C -0.0035(4) 0.5164(4) 0.5090(7)
C40 C -0.0459(3) 0.5669(3) 0.5073(6)
C41 C -0.0272(4) 0.6256(4) 0.4995(6)
H19 H 0.0144 0.6342 0.4954
C42 C -0.0675(4) 0.6714(4) 0.4976(7)
H20 H -0.0526 0.7112 0.4921
C43 C -0.1455(4) 0.6073(4) 0.5121(7)
H21 H -0.1873 0.6004 0.5193
C44 C -0.1082(4) 0.5581(4) 0.5119(7)
H22 H -0.1244 0.5188 0.5150
C45 C -0.0220(4) 0.4568(4) 0.5055(7)
H23 H -0.0636 0.4477 0.5028
C46 C 0.0185(4) 0.4114(4) 0.5059(8)
H24 H 0.0042 0.3713 0.5046
C47 C 0.4826(4) 0.0921(4) 0.5152(8)
H25 H 0.4959 0.1325 0.5197
C48 C 0.5239(4) 0.0477(4) 0.5158(6)
H26 H 0.5650 0.0580 0.5212
C49 C 0.5082(4) -0.0124(4) 0.5086(7)
C50 C 0.5501(3) -0.0629(4) 0.5084(7)
C51 C 0.6116(3) -0.0551(3) 0.4915(6)
H27 H 0.6270 -0.0161 0.4788
C52 C 0.6493(4) -0.1028(4) 0.4931(7)
H28 H 0.6908 -0.0956 0.4824
C53 C 0.5730(4) -0.1684(4) 0.5221(7)
H29 H 0.5588 -0.2084 0.5280
C54 C 0.5324(4) -0.1225(4) 0.5275(8)
H30 H 0.4918 -0.1309 0.5443
C55 C 0.4445(4) -0.0224(4) 0.5043(7)
H31 H 0.4295 -0.0623 0.5021
C56 C 0.4064(4) 0.0235(4) 0.5034(7)
H32 H 0.3648 0.0148 0.4987
N9_2 N 0.0795(4) 0.3073(4) 0.6266(6)
N12_2 N 0.3002(4) 0.1165(4) 0.6040(5)
Fe3_2 Fe 0.14001(8) 0.34489(8) -0.48319(18)
Fe4_2 Fe 0.36091(7) 0.15587(7) -0.50223(19)
N24_2 N 0.4076(4) 0.1993(4) 0.6183(6)
N21_2 N 0.1903(4) 0.3886(4) 0.6357(5)
O5 O 0.2834(4) 0.2446(4) 0.2569(9)
C57 C 0.2210(4) 0.2529(6) 0.2507(12)
H33 H 0.2103 0.2916 0.2807
H34 H 0.2007 0.2207 0.2874
H35 H 0.2086 0.2523 0.1798
O6 O 0.2172(3) 0.2614(3) -0.2375(5)
C58 C 0.2790(5) 0.2557(7) -0.2433(13)
H36 H 0.2980 0.2902 -0.2106
H37 H 0.2913 0.2541 -0.3142
H38 H 0.2915 0.2188 -0.2092
loop_
_geom_bond_atom_site_label_1
_geom_bond_atom_site_label_2
_geom_bond_site_symmetry_1
_geom_bond_site_symmetry_2
Fe1 O1 1_555 1_555
Fe2 O2 1_555 1_555
Fe3 O3 1_555 1_555
Fe4 O4 1_555 1_555
O5 C57 1_555 1_555
O6 C58 1_555 1_555
N1 Fe1 1_555 1_555
N2 C1 1_555 1_555
N3 Fe3 1_555 1_555
N4 Fe1 1_555 1_555
N5 C3 1_555 1_555
N6 Fe4 1_555 1_555
N7 Fe1 1_555 1_555
N8 C5 1_555 1_555
N9 C6 1_555 1_555
N10 Fe1 1_555 1_555
N11 C7 1_555 1_555
N12 C8 1_555 1_555
N13 Fe2 1_555 1_555
N14 C9 1_555 1_555
N15 Fe3 1_555 1_555
N16 Fe2 1_555 1_555
N17 C11 1_555 1_555
N18 Fe4 1_555 1_555
N19 Fe2 1_555 1_555
N20 C13 1_555 1_555
N21 C14 1_555 1_555
N22 Fe2 1_555 1_555
N23 C15 1_555 1_555
N24 C16 1_555 1_555
N25 Fe1 1_555 1_555
N26 C22 1_555 1_555
N27 Fe2 1_555 1_555
N28 C32 1_555 1_555
N29 Fe3 1_555 1_555
N30 C42 1_555 1_555
N31 Fe4 1_555 1_555
N32 C52 1_555 1_555
C1 N1 1_555 1_555
C2 N2 1_555 1_555
C3 N4 1_555 1_555
C4 N5 1_555 1_555
C5 N7 1_555 1_555
C6 N8 1_555 1_555
C7 N10 1_555 1_555
C8 N11 1_555 1_555
C9 N13 1_555 1_555
C10 N14 1_555 1_555
C11 N16 1_555 1_555
C12 N17 1_555 1_555
C13 N19 1_555 1_555
C14 N20 1_555 1_555
C15 N22 1_555 1_555
C16 N23 1_555 1_555
C17 N25 1_555 1_555
H1 C17 1_555 1_555
C18 C17 1_555 1_555
H2 C18 1_555 1_555
C19 C18 1_555 1_555
C20 C19 1_555 1_555
C21 C20 1_555 1_555
H3 C21 1_555 1_555
C22 C21 1_555 1_555
H4 C22 1_555 1_555
C23 N26 1_555 1_555
H5 C23 1_555 1_555
C24 C20 1_555 1_555
H6 C24 1_555 1_555
C25 C19 1_555 1_555
H7 C25 1_555 1_555
C26 N25 1_555 1_555
H8 C26 1_555 1_555
C27 N27 1_555 1_555
H9 C27 1_555 1_555
C28 C27 1_555 1_555
H10 C28 1_555 1_555
C29 C28 1_555 1_555
C30 C29 1_555 1_555
C31 C30 1_555 1_555
H11 C31 1_555 1_555
C32 C31 1_555 1_555
H12 C32 1_555 1_555
C33 N28 1_555 1_555
H13 C33 1_555 1_555
C34 C30 1_555 1_555
H14 C34 1_555 1_555
C35 C29 1_555 1_555
H15 C35 1_555 1_555
C36 N27 1_555 1_555
H16 C36 1_555 1_555
C37 N29 1_555 1_555
H17 C37 1_555 1_555
C38 C37 1_555 1_555
H18 C38 1_555 1_555
C39 C38 1_555 1_555
C40 C39 1_555 1_555
C41 C40 1_555 1_555
H19 C41 1_555 1_555
C42 C41 1_555 1_555
H20 C42 1_555 1_555
C43 N30 1_555 1_555
H21 C43 1_555 1_555
C44 C40 1_555 1_555
H22 C44 1_555 1_555
C45 C39 1_555 1_555
H23 C45 1_555 1_555
C46 N29 1_555 1_555
H24 C46 1_555 1_555
C47 N31 1_555 1_555
H25 C47 1_555 1_555
C48 C47 1_555 1_555
H26 C48 1_555 1_555
C49 C48 1_555 1_555
C50 C49 1_555 1_555
C51 C50 1_555 1_555
H27 C51 1_555 1_555
C52 C51 1_555 1_555
H28 C52 1_555 1_555
C53 N32 1_555 1_555
H29 C53 1_555 1_555
C54 C50 1_555 1_555
H30 C54 1_555 1_555
C55 C49 1_555 1_555
H31 C55 1_555 1_555
C56 N31 1_555 1_555
H32 C56 1_555 1_555
C57 H33 1_555 1_555
H34 C57 1_555 1_555
H35 C57 1_555 1_555
C58 H36 1_555 1_555
H37 C58 1_555 1_555
H38 C58 1_555 1_555
N9_2 Fe3 1_555 1_555
N12_2 Fe4 1_555 1_555
Fe3_2 N9 1_555 1_555
Fe4_2 N12 1_555 1_555
N24_2 Fe4 1_555 1_555
N21_2 Fe3 1_555 1_555
N3 C2 1_555 1_555
N6 C4 1_555 1_555
N15 C10 1_555 1_555
N18 C12 1_555 1_555
N21 Fe3_2 1_555 1_555
N24 Fe4_2 1_555 1_555
C23 C24 1_555 1_555
C25 C26 1_555 1_555
C33 C34 1_555 1_555
C35 C36 1_555 1_555
C43 C44 1_555 1_555
C45 C46 1_555 1_555
C53 C54 1_555 1_555
C55 C56 1_555 1_555

#END
