
#######################################################################
#
#                 Cambridge Crystallographic Data Centre
#                                CCDC 
#
#######################################################################
#
# If this CIF has been generated from an entry in the Cambridge 
# Structural Database, then it will include bibliographic, chemical, 
# crystal, experimental, refinement or atomic coordinate data resulting 
# from the CCDC's data processing and validation procedures.
#
#######################################################################

data_MUHJEE01
_symmetry_cell_setting           monoclinic
_symmetry_space_group_name_H-M   'P n'
_symmetry_Int_Tables_number      7
_space_group_name_Hall           'P -2yac'
loop_
_symmetry_equiv_pos_site_id
_symmetry_equiv_pos_as_xyz
1 x,y,z
2 1/2+x,-y,1/2+z
_cell_length_a                   8.6367(2)
_cell_length_b                   16.8457(4)
_cell_length_c                   11.5033(2)
_cell_angle_alpha                90
_cell_angle_beta                 90.010(2)
_cell_angle_gamma                90
_cell_volume                     1673.63
loop_
_atom_site_label
_atom_site_type_symbol
_atom_site_fract_x
_atom_site_fract_y
_atom_site_fract_z
Fe1 Fe 0.5000 0.11215(3) 0.5000
Fe2 Fe 0.67420(4) 0.61050(3) 0.49969(13)
N1 N 0.5550(4) 0.23632(17) 0.4915(4)
N2 N 0.7281(7) 0.3465(3) 0.4422(6)
N3 N 0.7069(4) 0.48566(15) 0.4949(4)
N4 N 0.4692(4) -0.01336(16) 0.4995(4)
N5 N 0.4518(5) -0.1545(2) 0.4546(4)
N6 N 0.6317(4) -0.26341(17) 0.4949(4)
N7 N 0.2561(4) 0.1313(2) 0.5031(6)
N8 N 0.0033(5) 0.1248(4) 0.5966(4)
N9 N -0.2530(4) 0.0976(2) 0.5122(5)
N10 N 0.4272(4) 0.5954(2) 0.5032(5)
N11 N 0.1860(4) 0.6662(2) 0.5497(4)
N12 N -0.0820(4) 0.6330(2) 0.5036(5)
N13 N 0.4968(7) 0.1116(2) 0.3104(4)
N14 N 0.4930(7) 0.1148(2) -0.3069(4)
N15 N 0.6685(7) 0.6118(2) 0.3110(4)
N16 N 0.6712(7) 0.6105(2) -0.3102(4)
C1 C 0.6321(6) 0.2899(2) 0.4720(4)
C2 C 0.7089(5) 0.4190(3) 0.4724(4)
C3 C 0.4698(5) -0.0794(2) 0.4809(5)
C4 C 0.5557(6) -0.2089(2) 0.4783(5)
C5 C 0.1332(6) 0.1294(3) 0.5410(4)
C6 C -0.1299(7) 0.1118(3) 0.5438(5)
C7 C 0.3090(7) 0.6244(3) 0.5244(5)
C8 C 0.0456(4) 0.6435(3) 0.5205(5)
C9 C 0.6134(5) 0.1412(3) 0.2468(4)
H1 H 0.7016 0.1612 0.2863
C10 C 0.6119(5) 0.1440(3) 0.1267(4)
H2 H 0.6987 0.1654 0.0867
C11 C 0.4867(9) 0.1164(3) 0.0636(5)
C12 C 0.4823(10) 0.1164(3) -0.0659(5)
C13 C 0.5852(6) 0.1661(3) -0.1270(4)
H3 H 0.6532 0.2009 -0.0867
C14 C 0.5847(5) 0.1629(3) -0.2466(4)
H4 H 0.6532 0.1968 -0.2880
C15 C 0.3930(6) 0.0686(3) -0.2494(4)
H5 H 0.3258 0.0348 -0.2921
C16 C 0.3850(6) 0.0687(3) -0.1297(4)
H6 H 0.3120 0.0357 -0.0912
C17 C 0.3661(6) 0.0844(3) 0.1290(4)
H7 H 0.2782 0.0625 0.0911
C18 C 0.3742(5) 0.0844(3) 0.2485(4)
H8 H 0.2882 0.0641 0.2905
C19 C 0.7535(5) 0.6618(3) 0.2475(4)
H9 H 0.8187 0.6980 0.2876
C20 C 0.7533(6) 0.6644(3) 0.1275(4)
H10 H 0.8163 0.7020 0.0880
C21 C 0.6607(9) 0.6120(3) 0.0641(5)
C22 C 0.6619(9) 0.6133(3) -0.0651(5)
C23 C 0.7282(6) 0.6738(3) -0.1300(4)
H11 H 0.7728 0.7180 -0.0912
C24 C 0.7306(6) 0.6708(3) -0.2476(4)
H12 H 0.7768 0.7137 -0.2884
C25 C 0.6036(6) 0.5514(2) -0.2494(4)
H13 H 0.5588 0.5084 -0.2910
C26 C 0.5966(6) 0.5505(3) -0.1294(4)
H14 H 0.5479 0.5076 -0.0903
C27 C 0.5699(6) 0.5612(3) 0.1283(4)
H15 H 0.5021 0.5252 0.0904
C28 C 0.5780(5) 0.5630(2) 0.2477(4)
H16 H 0.5144 0.5267 0.2891
N9_2 N 0.7470(4) 0.0976(2) 0.5122(5)
N14_2 N 0.4930(7) 0.1148(2) 0.6931(4)
N6_2 N 0.6317(4) 0.73659(17) 0.4949(4)
N12_2 N 0.9180(4) 0.6330(2) 0.5036(5)
N16_2 N 0.6712(7) 0.6105(2) 0.6898(4)
Fe2_2 Fe 0.67420(4) -0.38950(3) 0.49969(13)
Fe1_2 Fe -0.5000 0.11215(3) 0.5000
Fe2_3 Fe -0.32580(4) 0.61050(3) 0.49969(13)
Fe1_3 Fe 0.5000 0.11215(3) -0.5000
Fe2_4 Fe 0.67420(4) 0.61050(3) -0.50031(13)
loop_
_geom_bond_atom_site_label_1
_geom_bond_atom_site_label_2
_geom_bond_site_symmetry_1
_geom_bond_site_symmetry_2
Fe1 N1 1_555 1_555
Fe2 N3 1_555 1_555
N1 C1 1_555 1_555
N2 C1 1_555 1_555
N3 C2 1_555 1_555
N4 Fe1 1_555 1_555
N5 C3 1_555 1_555
N6 C4 1_555 1_555
N7 Fe1 1_555 1_555
N8 C5 1_555 1_555
N9 C6 1_555 1_555
N10 Fe2 1_555 1_555
N11 C7 1_555 1_555
N12 C8 1_555 1_555
N13 Fe1 1_555 1_555
N14 C14 1_555 1_555
N15 Fe2 1_555 1_555
N16 C24 1_555 1_555
C2 N2 1_555 1_555
C3 N4 1_555 1_555
C4 N5 1_555 1_555
C5 N7 1_555 1_555
C6 N8 1_555 1_555
C7 N10 1_555 1_555
C8 N11 1_555 1_555
C9 N13 1_555 1_555
H1 C9 1_555 1_555
C10 C9 1_555 1_555
H2 C10 1_555 1_555
C11 C10 1_555 1_555
C12 C11 1_555 1_555
C13 C12 1_555 1_555
H3 C13 1_555 1_555
C14 C13 1_555 1_555
H4 C14 1_555 1_555
C15 N14 1_555 1_555
H5 C15 1_555 1_555
C16 C12 1_555 1_555
H6 C16 1_555 1_555
C17 C11 1_555 1_555
H7 C17 1_555 1_555
C18 N13 1_555 1_555
H8 C18 1_555 1_555
C19 N15 1_555 1_555
H9 C19 1_555 1_555
C20 C19 1_555 1_555
H10 C20 1_555 1_555
C21 C20 1_555 1_555
C22 C21 1_555 1_555
C23 C22 1_555 1_555
H11 C23 1_555 1_555
C24 C23 1_555 1_555
H12 C24 1_555 1_555
C25 N16 1_555 1_555
H13 C25 1_555 1_555
C26 C22 1_555 1_555
H14 C26 1_555 1_555
C27 C21 1_555 1_555
H15 C27 1_555 1_555
C28 N15 1_555 1_555
H16 C28 1_555 1_555
N9_2 Fe1 1_555 1_555
N14_2 Fe1 1_555 1_555
N6_2 Fe2 1_555 1_555
N12_2 Fe2 1_555 1_555
N16_2 Fe2 1_555 1_555
Fe2_2 N6 1_555 1_555
Fe1_2 N9 1_555 1_555
Fe2_3 N12 1_555 1_555
Fe1_3 N14 1_555 1_555
Fe2_4 N16 1_555 1_555
C15 C16 1_555 1_555
C17 C18 1_555 1_555
C25 C26 1_555 1_555
C27 C28 1_555 1_555

#END
