
#######################################################################
#
#                 Cambridge Crystallographic Data Centre
#                                CCDC 
#
#######################################################################
#
# If this CIF has been generated from an entry in the Cambridge 
# Structural Database, then it will include bibliographic, chemical, 
# crystal, experimental, refinement or atomic coordinate data resulting 
# from the CCDC's data processing and validation procedures.
#
#######################################################################

data_MUHJOO
_symmetry_cell_setting           tetragonal
_symmetry_space_group_name_H-M   'P 41'
_symmetry_Int_Tables_number      76
_space_group_name_Hall           'P 4w'
loop_
_symmetry_equiv_pos_site_id
_symmetry_equiv_pos_as_xyz
1 x,y,z
2 -x,-y,1/2+z
3 -y,x,1/4+z
4 y,-x,3/4+z
_cell_length_a                   22.5468(3)
_cell_length_b                   22.5468(3)
_cell_length_c                   13.4343(1)
_cell_angle_alpha                90
_cell_angle_beta                 90
_cell_angle_gamma                90
_cell_volume                     6829.44
loop_
_atom_site_label
_atom_site_type_symbol
_atom_site_fract_x
_atom_site_fract_y
_atom_site_fract_z
Mn1 Mn 0.14063(7) 0.15384(6) -0.0033
Mn2 Mn 0.35982(7) 0.34488(6) 0.01474(9)
Mn3 Mn 0.14104(7) 0.34629(6) 0.51383(14)
Mn4 Mn 0.36017(7) 0.15473(6) 0.49718(16)
O1 O 0.1926(2) 0.2377(2) -0.0373(4)
O2 O 0.3079(2) 0.26228(19) 0.0342(5)
O3 O 0.1940(2) 0.26357(19) 0.5350(5)
O4 O 0.3095(2) 0.23869(18) 0.4643(4)
N1 N 0.0907(3) 0.1989(3) 0.1170(4)
N2 N 0.0427(3) 0.2569(5) 0.2478(7)
N3 N 0.0890(3) 0.3053(3) 0.3914(5)
N4 N 0.1997(3) 0.1135(3) 0.1091(5)
N5 N 0.2593(4) 0.0647(4) 0.2358(7)
N6 N 0.3089(3) 0.1110(3) 0.3775(5)
N7 N 0.0784(3) 0.1875(3) -0.1189(5)
N8 N 0.0282(3) 0.2468(4) -0.2472(7)
N9 N 0.0826(4) 0.3061(3) -0.3717(5)
N10 N 0.1911(3) 0.1071(4) -0.1220(5)
N11 N 0.2476(4) 0.0657(4) -0.2565(6)
N12 N 0.2999(4) 0.1133(4) -0.3917(5)
N13 N 0.3083(3) 0.3891(3) 0.1320(5)
N14 N 0.2433(5) 0.4307(5) 0.2572(7)
N15 N 0.1980(3) 0.3873(4) 0.4023(5)
N16 N 0.4174(4) 0.3057(3) 0.1319(5)
N17 N 0.4682(3) 0.2465(5) 0.2541(8)
N18 N 0.4245(3) 0.1908(3) 0.3880(5)
N19 N 0.3051(3) 0.3876(4) -0.0967(5)
N20 N 0.2442(5) 0.4317(4) -0.2270(7)
N21 N 0.1927(3) 0.3899(4) -0.3684(5)
N22 N 0.4123(3) 0.3023(4) -0.1067(5)
N23 N 0.4562(4) 0.2413(5) -0.2356(8)
N24 N 0.4077(4) 0.1988(3) -0.3796(5)
N25 N 0.0759(2) 0.0763(3) 0.0099(5)
N26 N -0.1266(3) -0.1648(3) 0.0080(7)
N27 N 0.4264(3) 0.4203(3) 0.0110(5)
N28 N 0.6321(3) 0.6576(3) 0.0071(7)
N29 N 0.0753(3) 0.4217(3) 0.5087(5)
N30 N -0.1277(3) 0.6627(3) 0.5023(7)
N31 N 0.4255(3) 0.0792(3) 0.5086(5)
N32 N 0.6300(3) -0.1610(3) 0.5071(7)
C1 C 0.0709(4) 0.2248(4) 0.1825(6)
C2 C 0.0694(4) 0.2795(4) 0.3244(6)
C3 C 0.2254(4) 0.0948(4) 0.1745(6)
C4 C 0.2817(4) 0.0933(4) 0.3132(6)
C5 C 0.0600(4) 0.2156(4) -0.1835(6)
C6 C 0.0603(4) 0.2756(4) -0.3150(6)
C7 C 0.2163(4) 0.0921(4) -0.1897(6)
C8 C 0.2721(4) 0.0946(4) -0.3299(6)
C9 C 0.2792(4) 0.4069(4) 0.1956(6)
C10 C 0.2242(4) 0.4052(4) 0.3377(6)
C11 C 0.4411(4) 0.2803(4) 0.1929(6)
C12 C 0.4430(3) 0.2188(4) 0.3244(6)
C13 C 0.2787(4) 0.4069(4) -0.1633(6)
C14 C 0.2192(4) 0.4079(4) -0.3020(6)
C15 C 0.4304(4) 0.2764(4) -0.1721(7)
C16 C 0.4280(4) 0.2231(4) -0.3132(6)
C17 C 0.0944(3) 0.0212(3) 0.0082(6)
H1 H 0.1351 0.0141 0.0067
C18 C 0.0561(3) -0.0268(3) 0.0084(5)
H2 H 0.0710 -0.0652 0.0087
C19 C -0.0049(3) -0.0173(3) 0.0083(5)
C20 C -0.0478(3) -0.0676(3) 0.0102(6)
C21 C -0.0296(3) -0.1237(4) 0.0108(6)
H3 H 0.0109 -0.1311 0.0138
C22 C -0.0684(3) -0.1722(2) 0.0073(6)
H4 H -0.0529 -0.2104 0.0044
C23 C -0.1452(3) -0.1079(4) 0.0018(9)
H5 H -0.1857 -0.1011 -0.0048
C24 C -0.1080(3) -0.0589(3) 0.0045(7)
H6 H -0.1236 -0.0208 0.0026
C25 C -0.0248(3) 0.0422(3) 0.0093(5)
H7 H -0.0649 0.0516 0.0101
C26 C 0.0189(3) 0.0862(3) 0.0090(6)
H8 H 0.0064 0.1255 0.0080
C27 C 0.4081(3) 0.4764(3) 0.0124(6)
H9 H 0.3676 0.4843 0.0139
C28 C 0.4483(3) 0.5241(3) 0.0116(5)
H10 H 0.4341 0.5629 0.0122
C29 C 0.5083(3) 0.5139(3) 0.0100(5)
C30 C 0.5503(3) 0.5633(3) 0.0134(6)
C31 C 0.5311(3) 0.6225(3) 0.0108(6)
H11 H 0.4909 0.6318 0.0123
C32 C 0.5739(4) 0.6665(3) 0.0059(7)
H12 H 0.5608 0.7055 0.0013
C33 C 0.6498(4) 0.6024(4) 0.0086(9)
H13 H 0.6903 0.5949 0.0078
C34 C 0.6110(3) 0.5539(3) 0.0112(7)
H14 H 0.6259 0.5154 0.0115
C35 C 0.5267(3) 0.4555(3) 0.0095(5)
H15 H 0.5669 0.4465 0.0103
C36 C 0.4854(3) 0.4108(3) 0.0078(6)
H16 H 0.4989 0.3719 0.0043
C37 C 0.0939(3) 0.4799(3) 0.5125(6)
H17 H 0.1344 0.4878 0.5153
C38 C 0.0553(3) 0.5264(3) 0.5124(5)
H18 H 0.0700 0.5650 0.5122
C39 C -0.0055(3) 0.5173(2) 0.5127(5)
C40 C -0.0480(3) 0.5684(3) 0.5085(5)
C41 C -0.0279(3) 0.6263(3) 0.5025(6)
H19 H 0.0123 0.6350 0.4998
C42 C -0.0692(4) 0.6695(3) 0.5007(7)
H20 H -0.0552 0.7083 0.4981
C43 C -0.1474(3) 0.6078(3) 0.5135(7)
H21 H -0.1879 0.6010 0.5191
C44 C -0.1088(4) 0.5604(3) 0.5172(7)
H22 H -0.1239 0.5223 0.5256
C45 C -0.0235(3) 0.4588(3) 0.5095(6)
H23 H -0.0638 0.4502 0.5068
C46 C 0.0169(3) 0.4128(3) 0.5103(6)
H24 H 0.0027 0.3741 0.5120
C47 C 0.4852(3) 0.0892(3) 0.5142(5)
H25 H 0.4987 0.1281 0.5173
C48 C 0.5259(3) 0.0442(3) 0.5155(5)
H26 H 0.5662 0.0529 0.5190
C49 C 0.5072(3) -0.0147(3) 0.5116(5)
C50 C 0.5508(3) -0.0647(3) 0.5101(5)
C51 C 0.6116(3) -0.0577(3) 0.5017(6)
H27 H 0.6273 -0.0198 0.4955
C52 C 0.6481(3) -0.1045(3) 0.5024(7)
H28 H 0.6887 -0.0973 0.4994
C53 C 0.5718(4) -0.1691(3) 0.5200(8)
H29 H 0.5576 -0.2075 0.5283
C54 C 0.5327(3) -0.1235(3) 0.5214(6)
H30 H 0.4926 -0.1316 0.5302
C55 C 0.4452(3) -0.0241(3) 0.5064(5)
H31 H 0.4301 -0.0624 0.5031
C56 C 0.4087(3) 0.0225(3) 0.5063(6)
H32 H 0.3682 0.0148 0.5045
N21_2 N 0.1927(3) 0.3899(4) 0.6316(5)
Mn3_2 Mn 0.14104(7) 0.34629(6) -0.48617(14)
N24_2 N 0.4077(4) 0.1988(3) 0.6204(5)
Mn4_2 Mn 0.36017(7) 0.15473(6) -0.50282(16)
N12_2 N 0.2999(4) 0.1133(4) 0.6083(5)
N9_2 N 0.0826(4) 0.3061(3) 0.6283(5)
O5 O 0.2821(2) 0.2531(3) 0.2614(6)
C57 C 0.2216(2) 0.2509(4) 0.2516(9)
H33 H 0.2047 0.2318 0.3088
H34 H 0.2115 0.2289 0.1928
H35 H 0.2062 0.2905 0.2463
O6 O 0.2129(3) 0.2551(5) -0.2398(8)
C58 C 0.2734(4) 0.2482(5) -0.2564(9)
H36 H 0.2902 0.2854 -0.2768
H37 H 0.2795 0.2192 -0.3078
H38 H 0.2923 0.2351 -0.1962
loop_
_geom_bond_atom_site_label_1
_geom_bond_atom_site_label_2
_geom_bond_site_symmetry_1
_geom_bond_site_symmetry_2
Mn1 O1 1_555 1_555
Mn2 O2 1_555 1_555
Mn3 O3 1_555 1_555
Mn4 O4 1_555 1_555
O5 C57 1_555 1_555
O6 C58 1_555 1_555
N1 Mn1 1_555 1_555
N2 C1 1_555 1_555
N3 Mn3 1_555 1_555
N4 Mn1 1_555 1_555
N5 C3 1_555 1_555
N6 Mn4 1_555 1_555
N7 Mn1 1_555 1_555
N8 C5 1_555 1_555
N9 C6 1_555 1_555
N10 Mn1 1_555 1_555
N11 C7 1_555 1_555
N12 C8 1_555 1_555
N13 Mn2 1_555 1_555
N14 C9 1_555 1_555
N15 Mn3 1_555 1_555
N16 Mn2 1_555 1_555
N17 C11 1_555 1_555
N18 Mn4 1_555 1_555
N19 Mn2 1_555 1_555
N20 C13 1_555 1_555
N21 C14 1_555 1_555
N22 Mn2 1_555 1_555
N23 C15 1_555 1_555
N24 C16 1_555 1_555
N25 Mn1 1_555 1_555
N26 C22 1_555 1_555
N27 Mn2 1_555 1_555
N28 C32 1_555 1_555
N29 Mn3 1_555 1_555
N30 C42 1_555 1_555
N31 Mn4 1_555 1_555
N32 C52 1_555 1_555
C1 N1 1_555 1_555
C2 N2 1_555 1_555
C3 N4 1_555 1_555
C4 N5 1_555 1_555
C5 N7 1_555 1_555
C6 N8 1_555 1_555
C7 N10 1_555 1_555
C8 N11 1_555 1_555
C9 N13 1_555 1_555
C10 N14 1_555 1_555
C11 N16 1_555 1_555
C12 N17 1_555 1_555
C13 N19 1_555 1_555
C14 N20 1_555 1_555
C15 N22 1_555 1_555
C16 N23 1_555 1_555
C17 N25 1_555 1_555
H1 C17 1_555 1_555
C18 C17 1_555 1_555
H2 C18 1_555 1_555
C19 C18 1_555 1_555
C20 C19 1_555 1_555
C21 C20 1_555 1_555
H3 C21 1_555 1_555
C22 C21 1_555 1_555
H4 C22 1_555 1_555
C23 N26 1_555 1_555
H5 C23 1_555 1_555
C24 C20 1_555 1_555
H6 C24 1_555 1_555
C25 C19 1_555 1_555
H7 C25 1_555 1_555
C26 N25 1_555 1_555
H8 C26 1_555 1_555
C27 N27 1_555 1_555
H9 C27 1_555 1_555
C28 C27 1_555 1_555
H10 C28 1_555 1_555
C29 C28 1_555 1_555
C30 C29 1_555 1_555
C31 C30 1_555 1_555
H11 C31 1_555 1_555
C32 C31 1_555 1_555
H12 C32 1_555 1_555
C33 N28 1_555 1_555
H13 C33 1_555 1_555
C34 C30 1_555 1_555
H14 C34 1_555 1_555
C35 C29 1_555 1_555
H15 C35 1_555 1_555
C36 N27 1_555 1_555
H16 C36 1_555 1_555
C37 N29 1_555 1_555
H17 C37 1_555 1_555
C38 C37 1_555 1_555
H18 C38 1_555 1_555
C39 C38 1_555 1_555
C40 C39 1_555 1_555
C41 C40 1_555 1_555
H19 C41 1_555 1_555
C42 C41 1_555 1_555
H20 C42 1_555 1_555
C43 N30 1_555 1_555
H21 C43 1_555 1_555
C44 C40 1_555 1_555
H22 C44 1_555 1_555
C45 C39 1_555 1_555
H23 C45 1_555 1_555
C46 N29 1_555 1_555
H24 C46 1_555 1_555
C47 N31 1_555 1_555
H25 C47 1_555 1_555
C48 C47 1_555 1_555
H26 C48 1_555 1_555
C49 C48 1_555 1_555
C50 C49 1_555 1_555
C51 C50 1_555 1_555
H27 C51 1_555 1_555
C52 C51 1_555 1_555
H28 C52 1_555 1_555
C53 N32 1_555 1_555
H29 C53 1_555 1_555
C54 C50 1_555 1_555
H30 C54 1_555 1_555
C55 C49 1_555 1_555
H31 C55 1_555 1_555
C56 N31 1_555 1_555
H32 C56 1_555 1_555
C57 H33 1_555 1_555
H34 C57 1_555 1_555
H35 C57 1_555 1_555
C58 H36 1_555 1_555
H37 C58 1_555 1_555
H38 C58 1_555 1_555
N21_2 Mn3 1_555 1_555
Mn3_2 N9 1_555 1_555
N24_2 Mn4 1_555 1_555
Mn4_2 N12 1_555 1_555
N12_2 Mn4 1_555 1_555
N9_2 Mn3 1_555 1_555
N3 C2 1_555 1_555
N6 C4 1_555 1_555
N15 C10 1_555 1_555
N18 C12 1_555 1_555
N21 Mn3_2 1_555 1_555
N24 Mn4_2 1_555 1_555
C23 C24 1_555 1_555
C25 C26 1_555 1_555
C33 C34 1_555 1_555
C35 C36 1_555 1_555
C43 C44 1_555 1_555
C45 C46 1_555 1_555
C53 C54 1_555 1_555
C55 C56 1_555 1_555

#END
