
#######################################################################
#
#                 Cambridge Crystallographic Data Centre
#                                CCDC 
#
#######################################################################
#
# If this CIF has been generated from an entry in the Cambridge 
# Structural Database, then it will include bibliographic, chemical, 
# crystal, experimental, refinement or atomic coordinate data resulting 
# from the CCDC's data processing and validation procedures.
#
#######################################################################

data_MUHKAB
_symmetry_cell_setting           tetragonal
_symmetry_space_group_name_H-M   'P 41'
_symmetry_Int_Tables_number      76
_space_group_name_Hall           'P 4w'
loop_
_symmetry_equiv_pos_site_id
_symmetry_equiv_pos_as_xyz
1 x,y,z
2 -x,-y,1/2+z
3 -y,x,1/4+z
4 y,-x,3/4+z
_cell_length_a                   22.2246(2)
_cell_length_b                   22.2246(2)
_cell_length_c                   13.1576(1)
_cell_angle_alpha                90
_cell_angle_beta                 90
_cell_angle_gamma                90
_cell_volume                     6498.97
loop_
_atom_site_label
_atom_site_type_symbol
_atom_site_fract_x
_atom_site_fract_y
_atom_site_fract_z
Co1 Co 0.14147(3) 0.15397(4) -0.0033
Co2 Co 0.36075(3) 0.34355(4) 0.02006(6)
Co3 Co 0.13994(4) 0.34541(4) 0.51829(8)
Co4 Co 0.36076(4) 0.15533(4) 0.49838(9)
O1 O 0.19326(12) 0.23302(12) -0.0303(2)
O2 O 0.30735(11) 0.26280(11) 0.0470(2)
O3 O 0.19248(12) 0.26359(11) 0.5442(2)
O4 O 0.30765(12) 0.23428(12) 0.4716(2)
N1 N 0.0920(2) 0.1970(2) 0.1123(3)
N2 N 0.0453(2) 0.2596(2) 0.2461(4)
N3 N 0.09419(19) 0.3031(2) 0.3957(3)
N4 N 0.19997(18) 0.11800(19) 0.1049(3)
N5 N 0.2631(2) 0.0674(2) 0.2322(4)
N6 N 0.31324(18) 0.11132(18) 0.3801(3)
N7 N 0.08388(19) 0.1893(2) -0.1173(3)
N8 N 0.0284(2) 0.2437(3) -0.2504(4)
N9 N 0.0797(2) 0.3076(2) -0.3744(3)
N10 N 0.1910(2) 0.10931(19) -0.1195(3)
N11 N 0.2369(2) 0.0659(2) -0.2728(4)
N12 N 0.30066(19) 0.11697(19) -0.3964(3)
N13 N 0.31160(19) 0.38522(19) 0.1362(3)
N14 N 0.2452(2) 0.4320(3) 0.2633(4)
N15 N 0.19787(19) 0.38542(19) 0.4118(3)
N16 N 0.4202(2) 0.30847(19) 0.1281(3)
N17 N 0.4746(2) 0.2476(3) 0.2566(5)
N18 N 0.41977(19) 0.1937(2) 0.3914(3)
N19 N 0.30295(18) 0.38168(18) -0.0886(3)
N20 N 0.2498(2) 0.4325(3) -0.2285(4)
N21 N 0.18953(18) 0.38656(17) -0.3633(3)
N22 N 0.40665(18) 0.2996(2) -0.0986(3)
N23 N 0.4582(2) 0.2495(3) -0.2416(4)
N24 N 0.4083(2) 0.1978(2) -0.3805(3)
N25 N 0.07974(19) 0.07997(18) 0.0054(3)
N26 N -0.1276(2) -0.1639(2) -0.0023(4)
N27 N 0.4241(2) 0.41660(19) 0.0076(3)
N28 N 0.6298(2) 0.6609(2) 0.0028(4)
N29 N 0.07989(18) 0.41962(19) 0.5079(3)
N30 N -0.1251(2) 0.6649(2) 0.5017(4)
N31 N 0.42231(18) 0.08274(19) 0.5074(3)
N32 N 0.6307(2) -0.1605(3) 0.5055(5)
C1 C 0.0715(2) 0.2270(2) 0.1785(3)
C2 C 0.0741(2) 0.2810(2) 0.3249(4)
C3 C 0.2298(2) 0.0958(2) 0.1671(3)
C4 C 0.2882(2) 0.0934(2) 0.3091(3)
C5 C 0.0593(2) 0.2154(2) -0.1815(4)
C6 C 0.0589(3) 0.2782(3) -0.3145(4)
C7 C 0.2139(2) 0.0927(2) -0.1917(3)
C8 C 0.2708(2) 0.0967(2) -0.3366(3)
C9 C 0.2792(2) 0.4053(2) 0.1977(3)
C10 C 0.2217(2) 0.4050(2) 0.3407(3)
C11 C 0.4437(2) 0.2783(2) 0.1890(3)
C12 C 0.4437(2) 0.2204(2) 0.3274(4)
C13 C 0.2772(2) 0.4024(2) -0.1562(3)
C14 C 0.2177(2) 0.4043(2) -0.2979(4)
C15 C 0.4284(2) 0.2758(2) -0.1675(4)
C16 C 0.4285(2) 0.2227(3) -0.3129(4)
C17 C 0.0987(2) 0.0218(2) 0.0045(4)
H1 H 0.1407 0.0140 0.0035
C18 C 0.0596(3) -0.0260(2) 0.0048(4)
H2 H 0.0750 -0.0659 0.0048
C19 C -0.0025(2) -0.0167(2) 0.0053(4)
C20 C -0.0456(2) -0.0677(2) 0.0033(4)
C21 C -0.0260(2) -0.1267(2) 0.0075(4)
H3 H 0.0157 -0.1354 0.0121
C22 C -0.0678(2) -0.1734(2) 0.0048(4)
H4 H -0.0536 -0.2137 0.0081
C23 C -0.1462(2) -0.1073(3) -0.0047(5)
H5 H -0.1883 -0.0997 -0.0085
C24 C -0.1069(3) -0.0578(2) -0.0018(5)
H6 H -0.1222 -0.0179 -0.0034
C25 C -0.0219(2) 0.0442(2) 0.0063(4)
H7 H -0.0635 0.0538 0.0068
C26 C 0.0213(2) 0.0896(2) 0.0065(4)
H8 H 0.0077 0.1301 0.0076
C27 C 0.4058(2) 0.4736(2) 0.0086(4)
H9 H 0.3638 0.4816 0.0101
C28 C 0.4455(2) 0.5218(2) 0.0073(4)
H10 H 0.4303 0.5618 0.0071
C29 C 0.5070(2) 0.5124(2) 0.0065(4)
C30 C 0.5498(2) 0.5639(2) 0.0057(4)
C31 C 0.5298(2) 0.6233(2) 0.0079(4)
H11 H 0.4878 0.6315 0.0099
C32 C 0.5704(2) 0.6699(2) 0.0070(4)
H12 H 0.5557 0.7100 0.0096
C33 C 0.6500(2) 0.6041(3) 0.0050(5)
H13 H 0.6922 0.5974 0.0059
C34 C 0.6115(2) 0.5540(2) 0.0060(5)
H14 H 0.6273 0.5143 0.0069
C35 C 0.5260(2) 0.4518(2) 0.0051(4)
H15 H 0.5675 0.4418 0.0041
C36 C 0.4822(2) 0.4072(2) 0.0052(4)
H16 H 0.4956 0.3666 0.0033
C37 C 0.0992(2) 0.4761(2) 0.5126(4)
H17 H 0.1412 0.4833 0.5171
C38 C 0.0604(2) 0.5249(2) 0.5112(3)
H18 H 0.0761 0.5647 0.5133
C39 C -0.0016(2) 0.51573(19) 0.5067(4)
C40 C -0.0445(2) 0.5670(2) 0.5060(4)
C41 C -0.0251(2) 0.6252(2) 0.4974(4)
H19 H 0.0168 0.6334 0.4939
C42 C -0.0653(2) 0.6720(2) 0.4937(4)
H20 H -0.0500 0.7116 0.4850
C43 C -0.1448(2) 0.6082(2) 0.5082(4)
H21 H -0.1871 0.6016 0.5090
C44 C -0.1078(2) 0.5590(2) 0.5138(5)
H22 H -0.1242 0.5200 0.5229
C45 C -0.0212(2) 0.4569(2) 0.5003(4)
H23 H -0.0631 0.4488 0.4957
C46 C 0.0190(2) 0.4099(2) 0.5006(4)
H24 H 0.0044 0.3698 0.4957
C47 C 0.4835(2) 0.0930(2) 0.5105(4)
H25 H 0.4978 0.1332 0.5127
C48 C 0.5240(2) 0.0466(2) 0.5106(4)
H26 H 0.5659 0.0553 0.5131
C49 C 0.5052(2) -0.0122(2) 0.5073(4)
C50 C 0.5490(2) -0.0626(2) 0.5072(4)
C51 C 0.6111(2) -0.0552(2) 0.4914(4)
H27 H 0.6270 -0.0159 0.4815
C52 C 0.6490(2) -0.1036(2) 0.4900(4)
H28 H 0.6905 -0.0967 0.4774
C53 C 0.5708(2) -0.1680(2) 0.5174(4)
H29 H 0.5560 -0.2080 0.5235
C54 C 0.5302(2) -0.1221(2) 0.5214(4)
H30 H 0.4889 -0.1305 0.5338
C55 C 0.4428(2) -0.0231(2) 0.5026(4)
H31 H 0.4277 -0.0630 0.4985
C56 C 0.4041(2) 0.0253(2) 0.5040(4)
H32 H 0.3621 0.0175 0.5024
N9_2 N 0.0797(2) 0.3076(2) 0.6256(3)
N21_2 N 0.18953(18) 0.38656(17) 0.6367(3)
N24_2 N 0.4083(2) 0.1978(2) 0.6195(3)
N12_2 N 0.30066(19) 0.11697(19) 0.6036(3)
Co3_2 Co 0.13994(4) 0.34541(4) -0.48171(8)
Co4_2 Co 0.36076(4) 0.15533(4) -0.50162(9)
O5 O 0.28461(17) 0.2382(2) 0.2496(3)
C57 C 0.2217(2) 0.2432(3) 0.2681(6)
H33 H 0.2135 0.2808 0.3043
H34 H 0.2084 0.2090 0.3096
H35 H 0.2000 0.2431 0.2033
O6 O 0.21621(18) 0.2393(2) -0.2546(4)
C58 C 0.2782(3) 0.2439(3) -0.2357(5)
H36 H 0.2853 0.2738 -0.1823
H37 H 0.2989 0.2563 -0.2980
H38 H 0.2937 0.2047 -0.2135
loop_
_geom_bond_atom_site_label_1
_geom_bond_atom_site_label_2
_geom_bond_site_symmetry_1
_geom_bond_site_symmetry_2
Co1 O1 1_555 1_555
Co2 O2 1_555 1_555
Co3 O3 1_555 1_555
Co4 O4 1_555 1_555
O5 C57 1_555 1_555
O6 C58 1_555 1_555
N1 Co1 1_555 1_555
N2 C1 1_555 1_555
N3 Co3 1_555 1_555
N4 Co1 1_555 1_555
N5 C3 1_555 1_555
N6 Co4 1_555 1_555
N7 Co1 1_555 1_555
N8 C5 1_555 1_555
N9 C6 1_555 1_555
N10 Co1 1_555 1_555
N11 C7 1_555 1_555
N12 C8 1_555 1_555
N13 Co2 1_555 1_555
N14 C9 1_555 1_555
N15 Co3 1_555 1_555
N16 Co2 1_555 1_555
N17 C11 1_555 1_555
N18 Co4 1_555 1_555
N19 Co2 1_555 1_555
N20 C13 1_555 1_555
N21 C14 1_555 1_555
N22 Co2 1_555 1_555
N23 C15 1_555 1_555
N24 C16 1_555 1_555
N25 Co1 1_555 1_555
N26 C22 1_555 1_555
N27 Co2 1_555 1_555
N28 C32 1_555 1_555
N29 Co3 1_555 1_555
N30 C42 1_555 1_555
N31 Co4 1_555 1_555
N32 C52 1_555 1_555
C1 N1 1_555 1_555
C2 N2 1_555 1_555
C3 N4 1_555 1_555
C4 N5 1_555 1_555
C5 N7 1_555 1_555
C6 N8 1_555 1_555
C7 N10 1_555 1_555
C8 N11 1_555 1_555
C9 N13 1_555 1_555
C10 N14 1_555 1_555
C11 N16 1_555 1_555
C12 N17 1_555 1_555
C13 N19 1_555 1_555
C14 N20 1_555 1_555
C15 N22 1_555 1_555
C16 N23 1_555 1_555
C17 N25 1_555 1_555
H1 C17 1_555 1_555
C18 C17 1_555 1_555
H2 C18 1_555 1_555
C19 C18 1_555 1_555
C20 C19 1_555 1_555
C21 C20 1_555 1_555
H3 C21 1_555 1_555
C22 C21 1_555 1_555
H4 C22 1_555 1_555
C23 N26 1_555 1_555
H5 C23 1_555 1_555
C24 C20 1_555 1_555
H6 C24 1_555 1_555
C25 C19 1_555 1_555
H7 C25 1_555 1_555
C26 N25 1_555 1_555
H8 C26 1_555 1_555
C27 N27 1_555 1_555
H9 C27 1_555 1_555
C28 C27 1_555 1_555
H10 C28 1_555 1_555
C29 C28 1_555 1_555
C30 C29 1_555 1_555
C31 C30 1_555 1_555
H11 C31 1_555 1_555
C32 C31 1_555 1_555
H12 C32 1_555 1_555
C33 N28 1_555 1_555
H13 C33 1_555 1_555
C34 C30 1_555 1_555
H14 C34 1_555 1_555
C35 C29 1_555 1_555
H15 C35 1_555 1_555
C36 N27 1_555 1_555
H16 C36 1_555 1_555
C37 N29 1_555 1_555
H17 C37 1_555 1_555
C38 C37 1_555 1_555
H18 C38 1_555 1_555
C39 C38 1_555 1_555
C40 C39 1_555 1_555
C41 C40 1_555 1_555
H19 C41 1_555 1_555
C42 C41 1_555 1_555
H20 C42 1_555 1_555
C43 N30 1_555 1_555
H21 C43 1_555 1_555
C44 C40 1_555 1_555
H22 C44 1_555 1_555
C45 C39 1_555 1_555
H23 C45 1_555 1_555
C46 N29 1_555 1_555
H24 C46 1_555 1_555
C47 N31 1_555 1_555
H25 C47 1_555 1_555
C48 C47 1_555 1_555
H26 C48 1_555 1_555
C49 C48 1_555 1_555
C50 C49 1_555 1_555
C51 C50 1_555 1_555
H27 C51 1_555 1_555
C52 C51 1_555 1_555
H28 C52 1_555 1_555
C53 N32 1_555 1_555
H29 C53 1_555 1_555
C54 C50 1_555 1_555
H30 C54 1_555 1_555
C55 C49 1_555 1_555
H31 C55 1_555 1_555
C56 N31 1_555 1_555
H32 C56 1_555 1_555
C57 H33 1_555 1_555
H34 C57 1_555 1_555
H35 C57 1_555 1_555
C58 H36 1_555 1_555
H37 C58 1_555 1_555
H38 C58 1_555 1_555
N9_2 Co3 1_555 1_555
N21_2 Co3 1_555 1_555
N24_2 Co4 1_555 1_555
N12_2 Co4 1_555 1_555
Co3_2 N9 1_555 1_555
Co4_2 N12 1_555 1_555
N3 C2 1_555 1_555
N6 C4 1_555 1_555
N15 C10 1_555 1_555
N18 C12 1_555 1_555
N21 Co3_2 1_555 1_555
N24 Co4_2 1_555 1_555
C23 C24 1_555 1_555
C25 C26 1_555 1_555
C33 C34 1_555 1_555
C35 C36 1_555 1_555
C43 C44 1_555 1_555
C45 C46 1_555 1_555
C53 C54 1_555 1_555
C55 C56 1_555 1_555

#END
