
#######################################################################
#
#                 Cambridge Crystallographic Data Centre
#                                CCDC 
#
#######################################################################
#
# If this CIF has been generated from an entry in the Cambridge 
# Structural Database, then it will include bibliographic, chemical, 
# crystal, experimental, refinement or atomic coordinate data resulting 
# from the CCDC's data processing and validation procedures.
#
#######################################################################

data_MUHKIJ
_symmetry_cell_setting           orthorhombic
_symmetry_space_group_name_H-M   'P n a 21'
_symmetry_Int_Tables_number      33
_space_group_name_Hall           'P 2c -2n'
loop_
_symmetry_equiv_pos_site_id
_symmetry_equiv_pos_as_xyz
1 x,y,z
2 -x,-y,1/2+z
3 1/2+x,1/2-y,z
4 1/2-x,1/2+y,1/2+z
_cell_length_a                   7.3887(4)
_cell_length_b                   11.9610(6)
_cell_length_c                   18.7679(10)
_cell_angle_alpha                90
_cell_angle_beta                 90
_cell_angle_gamma                90
_cell_volume                     1658.64
loop_
_atom_site_label
_atom_site_type_symbol
_atom_site_fract_x
_atom_site_fract_y
_atom_site_fract_z
Cu1 Cu 0.25939(5) 0.03927(3) 0.0000
N1 N 0.0737(5) -0.0684(3) 0.03484(18)
N2 N -0.2202(6) -0.1467(5) 0.0662(4)
N3 N -0.5049(5) -0.0458(3) 0.05002(19)
N4 N 0.3799(5) 0.1687(3) -0.04583(18)
N5 N 0.4449(6) 0.3659(3) -0.0660(2)
N6 N 0.2517(6) 0.5038(5) -0.1262(3)
N7 N 0.2180(4) 0.1325(3) 0.09025(17)
N8 N 0.2211(4) 0.4517(2) 0.40798(17)
C1 C -0.0679(5) -0.1004(3) 0.0483(2)
C2 C -0.3689(6) -0.0882(3) 0.0559(2)
C3 C 0.4014(5) 0.2610(3) -0.0590(2)
C4 C 0.3374(7) 0.4349(4) -0.0997(3)
C5 C 0.2370(4) 0.0830(3) 0.1538(2)
H1 H 0.2550 0.0044 0.1553
C6 C 0.2314(4) 0.1418(3) 0.2180(2)
H2 H 0.2478 0.1041 0.2621
C7 C 0.2011(5) 0.2576(3) 0.21635(19)
C8 C 0.2033(5) 0.3248(3) 0.2835(2)
C9 C 0.1772(5) 0.2763(3) 0.3492(2)
H3 H 0.1520 0.1987 0.3527
C10 C 0.1880(6) 0.3416(3) 0.4104(2)
H4 H 0.1714 0.3069 0.4554
C11 C 0.2448(5) 0.4993(4) 0.3450(2)
H5 H 0.2672 0.5774 0.3428
C12 C 0.2377(5) 0.4384(4) 0.2819(2)
H6 H 0.2567 0.4749 0.2376
C13 C 0.1751(5) 0.3071(3) 0.1502(2)
H7 H 0.1521 0.3851 0.1470
C14 C 0.1825(5) 0.2433(3) 0.0892(2)
H8 H 0.1617 0.2786 0.0446
N3_2 N 0.4951(5) -0.0458(3) 0.05002(19)
N8C N 0.2789(4) -0.0483(2) -0.09202(17)
Cu1_2 Cu -0.74061(5) 0.03927(3) 0.0000
Cu1C Cu 0.24061(5) 0.53927(3) 0.5000
O1 O 0.3854(5) -0.2093(3) 0.2390(2)
O2? O 0.2596(5) -0.2109(3) 0.2007(2)
O3? O 0.4571(5) -0.3070(3) 0.2539(2)
O4? O 0.4937(5) -0.2391(3) 0.2248(2)
O5? O 0.2874(5) -0.2837(3) 0.2319(2)
O6? O 0.4089(5) -0.3277(3) 0.2292(2)
loop_
_geom_bond_atom_site_label_1
_geom_bond_atom_site_label_2
_geom_bond_site_symmetry_1
_geom_bond_site_symmetry_2
Cu1 N1 1_555 1_555
N1 C1 1_555 1_555
N2 C1 1_555 1_555
N3 C2 1_555 1_555
N4 Cu1 1_555 1_555
N5 C3 1_555 1_555
N6 C4 1_555 1_555
N7 Cu1 1_555 1_555
N8 C10 1_555 1_555
C2 N2 1_555 1_555
C3 N4 1_555 1_555
C4 N5 1_555 1_555
C5 N7 1_555 1_555
H1 C5 1_555 1_555
C6 C5 1_555 1_555
H2 C6 1_555 1_555
C7 C6 1_555 1_555
C8 C7 1_555 1_555
C9 C8 1_555 1_555
H3 C9 1_555 1_555
C10 C9 1_555 1_555
H4 C10 1_555 1_555
C11 N8 1_555 1_555
H5 C11 1_555 1_555
C12 C8 1_555 1_555
H6 C12 1_555 1_555
C13 C7 1_555 1_555
H7 C13 1_555 1_555
C14 N7 1_555 1_555
H8 C14 1_555 1_555
N3_2 Cu1 1_555 1_555
N8C Cu1 1_555 1_555
Cu1_2 N3 1_555 1_555
Cu1C N8 1_555 1_555
C11 C12 1_555 1_555
C13 C14 1_555 1_555

#END
