
#######################################################################
#
#                 Cambridge Crystallographic Data Centre
#                                CCDC 
#
#######################################################################
#
# If this CIF has been generated from an entry in the Cambridge 
# Structural Database, then it will include bibliographic, chemical, 
# crystal, experimental, refinement or atomic coordinate data resulting 
# from the CCDC's data processing and validation procedures.
#
#######################################################################

data_MUHKUV
_symmetry_cell_setting           monoclinic
_symmetry_space_group_name_H-M   'P 21/c'
_symmetry_Int_Tables_number      14
_space_group_name_Hall           '-P 2ybc'
loop_
_symmetry_equiv_pos_site_id
_symmetry_equiv_pos_as_xyz
1 x,y,z
2 x,1/2-y,1/2+z
3 -x,-y,-z
4 -x,1/2+y,1/2-z
_cell_length_a                   8.3713(5)
_cell_length_b                   13.0693(6)
_cell_length_c                   15.0030(9)
_cell_angle_alpha                90
_cell_angle_beta                 92.033(3)
_cell_angle_gamma                90
_cell_volume                     1640.4
loop_
_atom_site_label
_atom_site_type_symbol
_atom_site_fract_x
_atom_site_fract_y
_atom_site_fract_z
Cu1 Cu 0.16215(4) 0.20777(3) 0.09232(2)
N1 N 0.0453(3) 0.30175(19) 0.16889(16)
N2 N -0.1121(3) 0.4457(2) 0.22156(18)
N3 N -0.0553(3) 0.5640(2) 0.34629(17)
N4 N 0.2838(3) 0.1341(2) 0.00357(16)
N5 N 0.3819(3) 0.0159(2) -0.10882(16)
N6 N 0.3279(4) 0.0293(2) -0.27066(19)
N7 N 0.3496(3) 0.20591(16) 0.18185(14)
N8 N 0.9852(3) 0.27129(17) 0.49891(15)
C1 C -0.0210(3) 0.3714(2) 0.19717(19)
C2 C -0.0741(3) 0.5060(2) 0.2891(2)
C3 C 0.3246(3) 0.0803(2) -0.05224(19)
C4 C 0.3503(4) 0.0271(2) -0.1949(2)
C5 C 0.3252(3) 0.2050(2) 0.27000(18)
H1 H 0.2190 0.1978 0.2894
C6 C 0.4481(3) 0.2142(2) 0.33362(19)
H2 H 0.4258 0.2137 0.3953
C7 C 0.6047(3) 0.2243(2) 0.30646(18)
C8 C 0.7373(3) 0.2405(2) 0.37191(18)
C9 C 0.7359(4) 0.3214(2) 0.4312(2)
H3 H 0.6489 0.3681 0.4297
C10 C 0.8602(3) 0.3345(2) 0.4924(2)
H4 H 0.8570 0.3913 0.5319
C11 C 0.9883(3) 0.1921(2) 0.4419(2)
H5 H 1.0761 0.1462 0.4460
C12 C 0.8694(3) 0.1747(2) 0.3775(2)
H6 H 0.8770 0.1187 0.3375
C13 C 0.6297(3) 0.2219(2) 0.21501(19)
H7 H 0.7351 0.2262 0.1938
C14 C 0.5004(3) 0.2132(2) 0.15537(18)
H8 H 0.5193 0.2124 0.0933
N3C N 0.0553(3) 0.0640(2) 0.15371(17)
N8A N -0.0148(3) 0.22871(17) -0.00109(15)
Cu1C Cu -0.16215(4) 0.70777(3) 0.40768(2)
Cu1A Cu 1.16215(4) 0.29223(3) 0.59232(2)
O1 O 0.3279(3) 0.10262(18) -0.45108(15)
O2 O 0.3342(3) -0.0669(2) -0.56223(18)
loop_
_geom_bond_atom_site_label_1
_geom_bond_atom_site_label_2
_geom_bond_site_symmetry_1
_geom_bond_site_symmetry_2
Cu1 N1 1_555 1_555
N1 C1 1_555 1_555
N2 C1 1_555 1_555
N3 C2 1_555 1_555
N4 Cu1 1_555 1_555
N5 C3 1_555 1_555
N6 C4 1_555 1_555
N7 Cu1 1_555 1_555
N8 C10 1_555 1_555
C2 N2 1_555 1_555
C3 N4 1_555 1_555
C4 N5 1_555 1_555
C5 N7 1_555 1_555
H1 C5 1_555 1_555
C6 C5 1_555 1_555
H2 C6 1_555 1_555
C7 C6 1_555 1_555
C8 C7 1_555 1_555
C9 C8 1_555 1_555
H3 C9 1_555 1_555
C10 C9 1_555 1_555
H4 C10 1_555 1_555
C11 N8 1_555 1_555
H5 C11 1_555 1_555
C12 C8 1_555 1_555
H6 C12 1_555 1_555
C13 C7 1_555 1_555
H7 C13 1_555 1_555
C14 N7 1_555 1_555
H8 C14 1_555 1_555
N3C Cu1 1_555 1_555
N8A Cu1 1_555 1_555
Cu1C N3 1_555 1_555
Cu1A N8 1_555 1_555
C11 C12 1_555 1_555
C13 C14 1_555 1_555

#END
