
#######################################################################
#
#                 Cambridge Crystallographic Data Centre
#                                CCDC 
#
#######################################################################
#
# If this CIF has been generated from an entry in the Cambridge 
# Structural Database, then it will include bibliographic, chemical, 
# crystal, experimental, refinement or atomic coordinate data resulting 
# from the CCDC's data processing and validation procedures.
#
#######################################################################

data_MUHLUW
_symmetry_cell_setting           triclinic
_symmetry_space_group_name_H-M   'P -1'
_symmetry_Int_Tables_number      2
_space_group_name_Hall           '-P 1'
loop_
_symmetry_equiv_pos_site_id
_symmetry_equiv_pos_as_xyz
1 x,y,z
2 -x,-y,-z
_cell_length_a                   6.966(5)
_cell_length_b                   10.812(5)
_cell_length_c                   11.699(5)
_cell_angle_alpha                99.044(5)
_cell_angle_beta                 90.794(5)
_cell_angle_gamma                105.502(5)
_cell_volume                     837.07
loop_
_atom_site_label
_atom_site_type_symbol
_atom_site_fract_x
_atom_site_fract_y
_atom_site_fract_z
Ni1 Ni 0.0000 0.5000 0.0000
Ni2 Ni 0.0000 1.0000 -0.5000
N1 N 0.2308(6) 0.3920(3) -0.3484(3)
N2 N 0.1499(6) 0.4698(3) -0.1499(3)
N3 N 0.2053(6) 0.6834(3) -0.3764(3)
N4 N 0.1210(7) 0.8803(4) -0.4249(3)
N5 N 0.0772(5) 0.6968(3) -0.0042(3)
N6 N 0.1629(7) 0.8841(4) -0.0661(4)
O1 O 0.2922(5) 0.3254(3) -0.6191(3)
O2 O 0.2576(5) 0.6115(3) -0.6604(2)
C1 C 0.2438(6) 0.4599(4) -0.4351(4)
C2 C 0.2705(7) 0.4250(4) -0.5569(3)
C3 C 0.2551(6) 0.5543(4) -0.5762(4)
C4 C 0.2309(7) 0.5855(4) -0.4509(3)
C5 C 0.1886(6) 0.4422(4) -0.2445(4)
C6 C 0.1650(8) 0.7853(5) -0.4090(4)
C7 C 0.0862(8) 0.7562(4) -0.0954(4)
H1 H 0.0442 0.7137 -0.1706
C8 C 0.2048(8) 0.9118(5) 0.0504(4)
H2 H 0.2586 0.9934 0.0950
C9 C 0.1519(7) 0.7959(4) 0.0878(4)
H3 H 0.1641 0.7847 0.1646
O3 O 0.2628(5) 0.5230(3) 0.1018(2)
O4 O 0.0240(5) 1.1269(3) -0.3473(2)
O5 O -0.2853(5) 0.9046(3) -0.4591(3)
H4 H 0.197(9) 0.938(6) -0.116(5)
H5 H 0.266(9) 0.543(5) 0.1814(16)
H6 H 0.365(7) 0.590(4) 0.084(5)
H7 H 0.101(7) 1.109(6) -0.291(4)
H8 H 0.093(8) 1.212(3) -0.351(5)
H9 H -0.280(9) 0.826(3) -0.440(5)
H10 H -0.377(7) 0.893(6) -0.520(4)
N1A N -0.2308(6) 0.6080(3) 0.3484(3)
N2A N -0.1499(6) 0.5302(3) 0.1499(3)
N3A N -0.2053(6) 0.3166(3) 0.3764(3)
N4A N -0.1210(7) 0.1197(4) 0.4249(3)
O1A O -0.2922(5) 0.6746(3) 0.6191(3)
O2A O -0.2576(5) 0.3885(3) 0.6604(2)
C1A C -0.2438(6) 0.5401(4) 0.4351(4)
C2A C -0.2705(7) 0.5750(4) 0.5569(3)
C3A C -0.2551(6) 0.4457(4) 0.5762(4)
C4A C -0.2309(7) 0.4145(4) 0.4509(3)
C5A C -0.1886(6) 0.5578(4) 0.2445(4)
C6A C -0.1650(8) 0.2147(5) 0.4090(4)
N5A N -0.0772(5) 0.3032(3) 0.0042(3)
N6A N -0.1629(7) 0.1159(4) 0.0661(4)
C7A C -0.0862(8) 0.2438(4) 0.0954(4)
H1A H -0.0442 0.2863 0.1706
C8A C -0.2048(8) 0.0882(5) -0.0504(4)
H2A H -0.2586 0.0066 -0.0950
C9A C -0.1519(7) 0.2041(4) -0.0878(4)
H3A H -0.1641 0.2153 -0.1646
H4A H -0.197(9) 0.062(6) 0.116(5)
O3A O -0.2628(5) 0.4770(3) -0.1018(2)
H5A H -0.266(9) 0.457(5) -0.1814(16)
H6A H -0.365(7) 0.410(4) -0.084(5)
O4A O -0.0240(5) 0.8731(3) -0.6527(2)
H7A H -0.101(7) 0.891(6) -0.709(4)
H8A H -0.093(8) 0.788(3) -0.649(5)
O5A O 0.2853(5) 1.0954(3) -0.5409(3)
H9A H 0.280(9) 1.174(3) -0.560(5)
H10A H 0.377(7) 1.107(6) -0.480(4)
N4A_2 N -0.1210(7) 1.1197(4) -0.5751(3)
Ni2_2 Ni 0.0000 0.0000 0.5000
O6 O 0.5872(5) 0.6878(3) 0.0245(3)
H11 H 0.663(8) 0.638(5) -0.013(5)
H12 H 0.565(9) 0.702(6) -0.050(3)
O7 O 0.2847(5) 0.0943(3) 0.8114(3)
H13 H 0.298(10) 0.167(4) 0.867(4)
H14 H 0.392(6) 0.100(6) 0.765(5)
O8 O 0.5630(5) 0.1232(3) 0.6401(3)
H15 H 0.644(8) 0.207(3) 0.646(5)
H16 H 0.632(8) 0.062(4) 0.641(5)
O9 O 0.5426(7) 0.7645(4) 0.8162(3)
H17 H 0.418(5) 0.738(6) 0.778(5)
H18 H 0.610(8) 0.725(5) 0.759(4)
loop_
_geom_bond_atom_site_label_1
_geom_bond_atom_site_label_2
_geom_bond_site_symmetry_1
_geom_bond_site_symmetry_2
Ni1 N2 1_555 1_555
Ni2 N4 1_555 1_555
N1 C1 1_555 1_555
N2 C5 1_555 1_555
N3 C4 1_555 1_555
N4 C6 1_555 1_555
N5 Ni1 1_555 1_555
N6 C7 1_555 1_555
O1 C2 1_555 1_555
O2 C3 1_555 1_555
C1 C2 1_555 1_555
C2 C3 1_555 1_555
C3 C4 1_555 1_555
C4 C1 1_555 1_555
C5 N1 1_555 1_555
C6 N3 1_555 1_555
C7 N5 1_555 1_555
H1 C7 1_555 1_555
C8 N6 1_555 1_555
H2 C8 1_555 1_555
C9 N5 1_555 1_555
H3 C9 1_555 1_555
O3 Ni1 1_555 1_555
O4 Ni2 1_555 1_555
O5 Ni2 1_555 1_555
O6 H11 1_555 1_555
O7 H13 1_555 1_555
O8 H15 1_555 1_555
O9 H17 1_555 1_555
H4 N6 1_555 1_555
H5 O3 1_555 1_555
H6 O3 1_555 1_555
H7 O4 1_555 1_555
H8 O4 1_555 1_555
H9 O5 1_555 1_555
H10 O5 1_555 1_555
H12 O6 1_555 1_555
H14 O7 1_555 1_555
H16 O8 1_555 1_555
H18 O9 1_555 1_555
N1A C1A 1_555 1_555
N2A Ni1 1_555 1_555
N3A C4A 1_555 1_555
N4A C6A 1_555 1_555
O1A C2A 1_555 1_555
O2A C3A 1_555 1_555
C1A C2A 1_555 1_555
C2A C3A 1_555 1_555
C3A C4A 1_555 1_555
C4A C1A 1_555 1_555
C5A N1A 1_555 1_555
C6A N3A 1_555 1_555
N5A Ni1 1_555 1_555
N6A C7A 1_555 1_555
C7A N5A 1_555 1_555
H1A C7A 1_555 1_555
C8A N6A 1_555 1_555
H2A C8A 1_555 1_555
C9A N5A 1_555 1_555
H3A C9A 1_555 1_555
H4A N6A 1_555 1_555
O3A Ni1 1_555 1_555
H5A O3A 1_555 1_555
H6A O3A 1_555 1_555
O4A Ni2 1_555 1_555
H7A O4A 1_555 1_555
H8A O4A 1_555 1_555
O5A Ni2 1_555 1_555
H9A O5A 1_555 1_555
H10A O5A 1_555 1_555
N4A_2 Ni2 1_555 1_555
Ni2_2 N4A 1_555 1_555
C8 C9 1_555 1_555
N2A C5A 1_555 1_555
C8A C9A 1_555 1_555

#END
