
#######################################################################
#
#                 Cambridge Crystallographic Data Centre
#                                CCDC 
#
#######################################################################
#
# If this CIF has been generated from an entry in the Cambridge 
# Structural Database, then it will include bibliographic, chemical, 
# crystal, experimental, refinement or atomic coordinate data resulting 
# from the CCDC's data processing and validation procedures.
#
#######################################################################

data_MUHLAC
_symmetry_cell_setting           triclinic
_symmetry_space_group_name_H-M   'P -1'
_symmetry_Int_Tables_number      2
_space_group_name_Hall           '-P 1'
loop_
_symmetry_equiv_pos_site_id
_symmetry_equiv_pos_as_xyz
1 x,y,z
2 -x,-y,-z
_cell_length_a                   8.1365(1)
_cell_length_b                   8.6926(1)
_cell_length_c                   9.7297(2)
_cell_angle_alpha                102.531(1)
_cell_angle_beta                 107.798(1)
_cell_angle_gamma                97.420(1)
_cell_volume                     625.31
loop_
_atom_site_label
_atom_site_type_symbol
_atom_site_fract_x
_atom_site_fract_y
_atom_site_fract_z
Fe1 Fe 0.0000 0.0000 0.0000
O1 O 0.02851(16) 0.19169(13) -0.09292(12)
H1 H -0.061(3) 0.223(3) -0.142(3)
H2 H 0.116(3) 0.219(3) -0.119(3)
N1 N -0.28023(16) -0.03536(15) -0.10634(14)
N2 N -0.56981(19) 0.0095(2) -0.24231(18)
N3 N -0.6930(2) 0.2510(2) -0.1954(2)
N4 N -0.02369(16) 0.17398(14) 0.19520(13)
C1 C -0.41422(19) -0.00530(17) -0.16369(16)
C2 C -0.6278(2) 0.1411(2) -0.21071(19)
C3 C -0.1128(2) 0.29124(17) 0.17417(16)
H3 H -0.1835 0.2856 0.0747
C4 C -0.1079(2) 0.41995(17) 0.28863(16)
H4 H -0.1725 0.5004 0.2668
C5 C -0.00719(19) 0.43070(16) 0.43637(15)
C6 C 0.0798(2) 0.30515(18) 0.45902(16)
H5 H 0.1464 0.3043 0.5578
C7 C 0.0688(2) 0.18207(17) 0.33754(16)
H6 H 0.1302 0.0987 0.3560
C5A C 0.00719(19) 0.56930(16) 0.56363(15)
C4A C 0.1079(2) 0.58005(17) 0.71137(16)
C3A C 0.1128(2) 0.70876(17) 0.82583(16)
N4A N 0.02369(16) 0.82602(14) 0.80480(13)
C7A C -0.0688(2) 0.81793(17) 0.66246(16)
C6A C -0.0798(2) 0.69485(18) 0.54098(16)
H5A H -0.1464 0.6957 0.4422
H6A H -0.1302 0.9013 0.6440
H3A H 0.1835 0.7144 0.9253
H4A H 0.1725 0.4996 0.7332
O1A O -0.02851(16) -0.19169(13) 0.09292(12)
H1A H 0.061(3) -0.223(3) 0.142(3)
H2A H -0.116(3) -0.219(3) 0.119(3)
N1A N 0.28023(16) 0.03536(15) 0.10634(14)
N2A N 0.56981(19) -0.0095(2) 0.24231(18)
N3A N 0.6930(2) -0.2510(2) 0.1954(2)
C1A C 0.41422(19) 0.00530(17) 0.16369(16)
C2A C 0.6278(2) -0.1411(2) 0.21071(19)
N4A_2 N 0.02369(16) -0.17398(14) -0.19520(13)
Fe1_2 Fe 0.0000 1.0000 1.0000
N5 N -0.23988(18) 0.30979(16) -0.24970(16)
C8 C -0.3095(3) 0.2410(2) -0.3963(2)
H7 H -0.2881 0.1380 -0.4340
C9 C -0.4115(3) 0.3108(2) -0.4973(2)
H8 H -0.4569 0.2565 -0.6013
C10 C -0.44744(19) 0.45975(17) -0.44683(17)
C11 C -0.3777(2) 0.53063(19) -0.29347(18)
H9 H -0.3997 0.6321 -0.2523
C12 C -0.2756(2) 0.4523(2) -0.20057(19)
H10 H -0.2284 0.5034 -0.0959
C10A C -0.55256(19) 0.54025(17) -0.55317(17)
C9A C -0.5885(3) 0.6892(2) -0.5027(2)
C8A C -0.6905(3) 0.7590(2) -0.6037(2)
N5A N -0.76012(18) 0.69021(16) -0.75030(16)
C12A C -0.7244(2) 0.5477(2) -0.79943(19)
C11A C -0.6223(2) 0.46937(19) -0.70653(18)
H9A H -0.6003 0.3679 -0.7477
H10A H -0.7716 0.4966 -0.9041
H7A H -0.7119 0.8620 -0.5660
H8A H -0.5431 0.7435 -0.3987
loop_
_geom_bond_atom_site_label_1
_geom_bond_atom_site_label_2
_geom_bond_site_symmetry_1
_geom_bond_site_symmetry_2
Fe1 O1 1_555 1_555
O1 H1 1_555 1_555
H2 O1 1_555 1_555
N1 Fe1 1_555 1_555
N2 C1 1_555 1_555
N3 C2 1_555 1_555
N4 Fe1 1_555 1_555
N5 C8 1_555 1_555
C1 N1 1_555 1_555
C2 N2 1_555 1_555
C3 N4 1_555 1_555
H3 C3 1_555 1_555
C4 C3 1_555 1_555
H4 C4 1_555 1_555
C5 C4 1_555 1_555
C6 C5 1_555 1_555
H5 C6 1_555 1_555
C7 N4 1_555 1_555
H6 C7 1_555 1_555
C8 H7 1_555 1_555
C9 C8 1_555 1_555
H8 C9 1_555 1_555
C10 C9 1_555 1_555
C11 C10 1_555 1_555
H9 C11 1_555 1_555
C12 N5 1_555 1_555
H10 C12 1_555 1_555
C5A C5 1_555 1_555
C4A C5A 1_555 1_555
C3A C4A 1_555 1_555
N4A C3A 1_555 1_555
C7A N4A 1_555 1_555
C6A C5A 1_555 1_555
H5A C6A 1_555 1_555
H6A C7A 1_555 1_555
H3A C3A 1_555 1_555
H4A C4A 1_555 1_555
C10A C10 1_555 1_555
C9A C10A 1_555 1_555
C8A C9A 1_555 1_555
N5A C8A 1_555 1_555
C12A N5A 1_555 1_555
C11A C10A 1_555 1_555
H9A C11A 1_555 1_555
H10A C12A 1_555 1_555
H7A C8A 1_555 1_555
H8A C9A 1_555 1_555
O1A Fe1 1_555 1_555
H1A O1A 1_555 1_555
H2A O1A 1_555 1_555
N1A Fe1 1_555 1_555
N2A C1A 1_555 1_555
N3A C2A 1_555 1_555
C1A N1A 1_555 1_555
C2A N2A 1_555 1_555
N4A_2 Fe1 1_555 1_555
Fe1_2 N4A 1_555 1_555
C6 C7 1_555 1_555
C11 C12 1_555 1_555
C7A C6A 1_555 1_555
C12A C11A 1_555 1_555

#END
