
#######################################################################
#
#                 Cambridge Crystallographic Data Centre
#                                CCDC 
#
#######################################################################
#
# If this CIF has been generated from an entry in the Cambridge 
# Structural Database, then it will include bibliographic, chemical, 
# crystal, experimental, refinement or atomic coordinate data resulting 
# from the CCDC's data processing and validation procedures.
#
#######################################################################

data_MUHMUZ
_symmetry_cell_setting           triclinic
_symmetry_space_group_name_H-M   'P -1'
_symmetry_Int_Tables_number      2
_space_group_name_Hall           '-P 1'
loop_
_symmetry_equiv_pos_site_id
_symmetry_equiv_pos_as_xyz
1 x,y,z
2 -x,-y,-z
_cell_length_a                   11.5936(6)
_cell_length_b                   11.9201(7)
_cell_length_c                   12.1223(6)
_cell_angle_alpha                63.593(5)
_cell_angle_beta                 88.025(4)
_cell_angle_gamma                67.331(5)
_cell_volume                     1365.41
loop_
_atom_site_label
_atom_site_type_symbol
_atom_site_fract_x
_atom_site_fract_y
_atom_site_fract_z
Co1 Co 0.79802(7) 0.18642(9) 0.83959(7)
Co2 Co 0.75840(7) 0.45878(9) 0.30276(7)
Co3 Co 0.5000 0.5000 0.5000
Cl1 Cl 0.7580(2) 0.5951(2) 0.10559(15)
Cl2 Cl 0.92818(16) 0.2609(2) 0.40573(18)
Cl3 Cl 0.63834(16) 0.25759(18) 0.69018(14)
Cl4 Cl 0.86950(17) -0.04090(18) 0.94548(17)
N1 N 0.7253(4) 0.2628(5) -0.0411(4)
N2 N 0.4700(4) 0.3223(5) 0.2935(4)
N3 N 0.6106(4) 0.4058(5) 0.3069(4)
N4 N 0.5321(4) 0.4167(5) 0.3899(4)
N5 N 0.3613(4) 0.4430(5) 0.5226(4)
N6 N 0.2727(4) 0.4366(5) 0.5972(4)
N7 N 0.2742(4) 0.3158(5) 0.4972(4)
N8 N -0.0674(4) 0.2483(5) 0.7598(4)
C1 C 0.8005(6) 0.2514(7) 0.0479(6)
H1 H 0.8869 0.2237 0.0452
C2 C 0.7545(5) 0.2794(7) 0.1441(6)
H2 H 0.8094 0.2716 0.2039
C3 C 0.6276(5) 0.3187(6) 0.1510(5)
C4 C 0.5500(5) 0.3304(6) 0.0586(5)
H3 H 0.4633 0.3582 0.0591
C5 C 0.6023(5) 0.3006(6) -0.0338(5)
H4 H 0.5492 0.3072 -0.0942
C6 C 0.5702(5) 0.3482(6) 0.2510(5)
C7 C 0.4520(5) 0.3648(6) 0.3803(5)
C8 C 0.3590(5) 0.3705(6) 0.4641(5)
C9 C 0.2215(5) 0.3607(6) 0.5791(5)
C10 C 0.1208(5) 0.3256(6) 0.6431(5)
C11 C 0.1177(6) 0.2021(7) 0.6658(6)
H5 H 0.1789 0.1425 0.6424
C12 C 0.0220(7) 0.1689(7) 0.7238(6)
H6 H 0.0208 0.0860 0.7381
C13 C -0.0637(5) 0.3668(7) 0.7377(6)
H7 H -0.1262 0.4248 0.7616
C14 C 0.0281(6) 0.4068(7) 0.6812(6)
H8 H 0.0273 0.4900 0.6686
Co1A Co 0.20198(7) 0.81358(9) 0.16041(7)
Co2A Co 0.24160(7) 0.54122(9) 0.69724(7)
Cl1A Cl 0.2420(2) 0.4049(2) 0.89441(15)
Cl2A Cl 0.07182(16) 0.7391(2) 0.59427(18)
Cl3A Cl 0.36166(16) 0.74241(18) 0.30982(14)
Cl4A Cl 0.13050(17) 1.04090(18) 0.05452(17)
N1A N 0.2747(4) 0.7372(5) 1.0411(4)
N2A N 0.5300(4) 0.6777(5) 0.7065(4)
N3A N 0.3894(4) 0.5942(5) 0.6931(4)
N4A N 0.4679(4) 0.5833(5) 0.6101(4)
N5A N 0.6387(4) 0.5570(5) 0.4774(4)
N6A N 0.7273(4) 0.5634(5) 0.4028(4)
N7A N 0.7258(4) 0.6842(5) 0.5028(4)
N8A N 1.0674(4) 0.7517(5) 0.2402(4)
C1A C 0.1995(6) 0.7486(7) 0.9521(6)
H1A H 0.1131 0.7763 0.9548
C2A C 0.2455(5) 0.7206(7) 0.8559(6)
H2A H 0.1906 0.7284 0.7961
C3A C 0.3724(5) 0.6813(6) 0.8490(5)
C4A C 0.4500(5) 0.6696(6) 0.9414(5)
H3A H 0.5367 0.6418 0.9409
C5A C 0.3977(5) 0.6994(6) 1.0338(5)
H4A H 0.4508 0.6928 1.0942
C6A C 0.4298(5) 0.6518(6) 0.7490(5)
C7A C 0.5480(5) 0.6352(6) 0.6197(5)
C8A C 0.6410(5) 0.6295(6) 0.5359(5)
C9A C 0.7785(5) 0.6393(6) 0.4209(5)
C10A C 0.8792(5) 0.6744(6) 0.3569(5)
C11A C 0.8823(6) 0.7979(7) 0.3342(6)
H5A H 0.8211 0.8575 0.3576
C12A C 0.9780(7) 0.8311(7) 0.2762(6)
H6A H 0.9792 0.9140 0.2619
C13A C 1.0637(5) 0.6332(7) 0.2623(6)
H7A H 1.1262 0.5752 0.2384
C14A C 0.9719(6) 0.5932(7) 0.3188(6)
H8A H 0.9727 0.5100 0.3314
Co1_2 Co -0.20198(7) 0.18642(9) 0.83959(7)
Co1_3 Co 0.79802(7) 0.18642(9) -0.16041(7)
Co1A_2 Co 0.20198(7) 0.81358(9) 1.16041(7)
Co1A_3 Co 1.20198(7) 0.81358(9) 0.16041(7)
N1_2 N 0.7253(4) 0.2628(5) 0.9589(4)
N1A_2 N 0.2747(4) 0.7372(5) 0.0411(4)
N8_2 N 0.9326(4) 0.2483(5) 0.7598(4)
N8A_2 N 0.0674(4) 0.7517(5) 0.2402(4)
N9 N 0.7021(8) 0.9249(8) 0.7388(7)
C15 C 0.6597(13) 0.9769(13) 0.6037(12)
H9 H 0.6485 0.9059 0.5924
H10 H 0.5786 1.0559 0.5756
C16 C 0.7510(11) 1.0161(11) 0.5292(11)
H11 H 0.7080 1.1057 0.4592
H12 H 0.7937 0.9505 0.4997
H13 H 0.8119 1.0181 0.5792
C17 C 0.8216(11) 0.7923(12) 0.7958(10)
H14 H 0.8907 0.8133 0.7582
H15 H 0.8391 0.7653 0.8838
C18 C 0.8267(11) 0.6811(11) 0.7878(10)
H16 H 0.8310 0.6964 0.7033
H17 H 0.7521 0.6660 0.8123
H18 H 0.9005 0.6018 0.8422
C19 C 0.5943(13) 0.9054(14) 0.8068(13)
H19 H 0.5625 0.8586 0.7760
H20 H 0.6309 0.8421 0.8940
C20 C 0.4920(12) 1.0127(12) 0.8043(13)
H21 H 0.4546 1.0798 0.7191
H22 H 0.5180 1.0539 0.8453
H23 H 0.4309 0.9803 0.8465
loop_
_geom_bond_atom_site_label_1
_geom_bond_atom_site_label_2
_geom_bond_site_symmetry_1
_geom_bond_site_symmetry_2
Co1 Cl3 1_555 1_555
Co2 Cl1 1_555 1_555
Co3 Cl3 1_555 1_555
Cl2 Co2 1_555 1_555
Cl4 Co1 1_555 1_555
N1 C1 1_555 1_555
N2 C6 1_555 1_555
N3 Co2 1_555 1_555
N4 Co3 1_555 1_555
N5 Co3 1_555 1_555
N6 N5 1_555 1_555
N7 C8 1_555 1_555
N8 C12 1_555 1_555
C1 H1 1_555 1_555
C2 C1 1_555 1_555
H2 C2 1_555 1_555
C3 C2 1_555 1_555
C4 C3 1_555 1_555
H3 C4 1_555 1_555
C5 N1 1_555 1_555
H4 C5 1_555 1_555
C6 N3 1_555 1_555
C7 N2 1_555 1_555
C8 N5 1_555 1_555
C9 N6 1_555 1_555
C10 C9 1_555 1_555
C11 C10 1_555 1_555
H5 C11 1_555 1_555
C12 C11 1_555 1_555
H6 C12 1_555 1_555
C13 N8 1_555 1_555
H7 C13 1_555 1_555
C14 C10 1_555 1_555
H8 C14 1_555 1_555
N9 C15 1_555 1_555
C15 H9 1_555 1_555
H10 C15 1_555 1_555
C16 C15 1_555 1_555
H11 C16 1_555 1_555
H12 C16 1_555 1_555
H13 C16 1_555 1_555
C17 N9 1_555 1_555
H14 C17 1_555 1_555
H15 C17 1_555 1_555
C18 C17 1_555 1_555
H16 C18 1_555 1_555
H17 C18 1_555 1_555
H18 C18 1_555 1_555
C19 N9 1_555 1_555
H19 C19 1_555 1_555
H20 C19 1_555 1_555
C20 C19 1_555 1_555
H21 C20 1_555 1_555
H22 C20 1_555 1_555
H23 C20 1_555 1_555
Co1A Cl3A 1_555 1_555
Co2A N6 1_555 1_555
Cl1A Co2A 1_555 1_555
Cl2A Co2A 1_555 1_555
Cl3A Co3 1_555 1_555
Cl4A Co1A 1_555 1_555
N1A C1A 1_555 1_555
N2A C6A 1_555 1_555
N3A Co2A 1_555 1_555
N4A Co3 1_555 1_555
N5A Co3 1_555 1_555
N6A Co2 1_555 1_555
N7A C8A 1_555 1_555
N8A C12A 1_555 1_555
C1A H1A 1_555 1_555
C2A C1A 1_555 1_555
H2A C2A 1_555 1_555
C3A C2A 1_555 1_555
C4A C3A 1_555 1_555
H3A C4A 1_555 1_555
C5A N1A 1_555 1_555
H4A C5A 1_555 1_555
C6A N3A 1_555 1_555
C7A N2A 1_555 1_555
C8A N5A 1_555 1_555
C9A N6A 1_555 1_555
C10A C9A 1_555 1_555
C11A C10A 1_555 1_555
H5A C11A 1_555 1_555
C12A C11A 1_555 1_555
H6A C12A 1_555 1_555
C13A N8A 1_555 1_555
H7A C13A 1_555 1_555
C14A C10A 1_555 1_555
H8A C14A 1_555 1_555
Co1_2 N8 1_555 1_555
Co1_3 N1 1_555 1_555
Co1A_2 N1A 1_555 1_555
Co1A_3 N8A 1_555 1_555
N1_2 Co1 1_555 1_555
N1A_2 Co1A 1_555 1_555
N8_2 Co1 1_555 1_555
N8A_2 Co1A 1_555 1_555
N3 N4 1_555 1_555
N4 C7 1_555 1_555
N7 C9 1_555 1_555
C3 C6 1_555 1_555
C4 C5 1_555 1_555
C7 C8 1_555 1_555
C13 C14 1_555 1_555
N3A N4A 1_555 1_555
N4A C7A 1_555 1_555
N5A N6A 1_555 1_555
N7A C9A 1_555 1_555
C3A C6A 1_555 1_555
C4A C5A 1_555 1_555
C7A C8A 1_555 1_555
C13A C14A 1_555 1_555

#END
