
#######################################################################
#
#                 Cambridge Crystallographic Data Centre
#                                CCDC 
#
#######################################################################
#
# If this CIF has been generated from an entry in the Cambridge 
# Structural Database, then it will include bibliographic, chemical, 
# crystal, experimental, refinement or atomic coordinate data resulting 
# from the CCDC's data processing and validation procedures.
#
#######################################################################

data_MUHMEI
_symmetry_cell_setting           orthorhombic
_symmetry_space_group_name_H-M   'P n c 2'
_symmetry_Int_Tables_number      30
_space_group_name_Hall           'P 2 -2bc'
loop_
_symmetry_equiv_pos_site_id
_symmetry_equiv_pos_as_xyz
1 x,y,z
2 -x,-y,z
3 -x,1/2+y,1/2+z
4 x,1/2-y,1/2+z
_cell_length_a                   7.4050(7)
_cell_length_b                   15.8920(7)
_cell_length_c                   7.4070(14)
_cell_angle_alpha                90
_cell_angle_beta                 90
_cell_angle_gamma                90
_cell_volume                     871.658
loop_
_atom_site_label
_atom_site_type_symbol
_atom_site_fract_x
_atom_site_fract_y
_atom_site_fract_z
Fe1 Fe 0.5000 0.0000 0.5110(19)
Pt1 Pt 1.0000 0.0000 0.0093(3)
N1 N 0.453(3) 0.1384(11) 0.516(5)
N2 N 0.676(4) 0.020(2) 0.283(3)
N3 N 0.285(4) -0.0164(18) 0.697(4)
C1 C 0.285(3) 0.1682(14) 0.568(5)
C2 C 0.256(3) 0.2542(16) 0.587(4)
C3 C 0.396(4) 0.3104(11) 0.554(5)
C4 C 0.565(3) 0.2805(13) 0.502(5)
C5 C 0.593(3) 0.1945(15) 0.483(4)
Br1 Br 0.0284(7) 0.2838(3) 0.6552(8)
C6 C 0.805(5) 0.015(2) 0.191(5)
C7 C 0.178(7) -0.011(3) 0.794(7)
Pt1_2 Pt 0.0000 0.0000 1.0093(3)
Pt1_3 Pt 0.0000 0.0000 0.0093(3)
Pt1_4 Pt 1.0000 0.0000 1.0093(3)
N1A N 0.547(3) -0.1384(11) 0.516(5)
N2A N 0.324(4) -0.020(2) 0.283(3)
N3A N 0.715(4) 0.0164(18) 0.697(4)
C1A C 0.715(3) -0.1682(14) 0.568(5)
C2A C 0.744(3) -0.2542(16) 0.587(4)
C3A C 0.604(4) -0.3104(11) 0.554(5)
C4A C 0.435(3) -0.2805(13) 0.502(5)
C5A C 0.407(3) -0.1945(15) 0.483(4)
Br1A Br 0.9716(7) -0.2838(3) 0.6552(8)
C6A C 0.195(5) -0.015(2) 0.191(5)
C6A_2 C 1.195(5) -0.015(2) 0.191(5)
C7A C 0.822(7) 0.011(3) 0.794(7)
C7_2 C 1.178(7) -0.011(3) -0.206(7)
C7A_2 C 0.822(7) 0.011(3) -0.206(7)
loop_
_geom_bond_atom_site_label_1
_geom_bond_atom_site_label_2
_geom_bond_site_symmetry_1
_geom_bond_site_symmetry_2
Fe1 N1 1_555 1_555
Pt1 C6 1_555 1_555
N1 C1 1_555 1_555
N2 Fe1 1_555 1_555
N3 Fe1 1_555 1_555
C1 C2 1_555 1_555
C2 C3 1_555 1_555
C3 C4 1_555 1_555
C4 C5 1_555 1_555
C5 N1 1_555 1_555
Br1 C2 1_555 1_555
C6 N2 1_555 1_555
C7 N3 1_555 1_555
Pt1_2 C7 1_555 1_555
Pt1_3 C6A 1_555 1_555
Pt1_4 C7A 1_555 1_555
N1A Fe1 1_555 1_555
N2A Fe1 1_555 1_555
N3A Fe1 1_555 1_555
C1A N1A 1_555 1_555
C2A C1A 1_555 1_555
C3A C2A 1_555 1_555
C4A C3A 1_555 1_555
C5A N1A 1_555 1_555
Br1A C2A 1_555 1_555
C6A N2A 1_555 1_555
C6A_2 Pt1 1_555 1_555
C7A N3A 1_555 1_555
C7_2 Pt1 1_555 1_555
C7A_2 Pt1 1_555 1_555
C4A C5A 1_555 1_555

#END
