
#######################################################################
#
#                 Cambridge Crystallographic Data Centre
#                                CCDC 
#
#######################################################################
#
# If this CIF has been generated from an entry in the Cambridge 
# Structural Database, then it will include bibliographic, chemical, 
# crystal, experimental, refinement or atomic coordinate data resulting 
# from the CCDC's data processing and validation procedures.
#
#######################################################################

data_MUHMIM02
_symmetry_cell_setting           orthorhombic
_symmetry_space_group_name_H-M   'P n c 2'
_symmetry_Int_Tables_number      30
_space_group_name_Hall           'P 2 -2bc'
loop_
_symmetry_equiv_pos_site_id
_symmetry_equiv_pos_as_xyz
1 x,y,z
2 -x,-y,z
3 -x,1/2+y,1/2+z
4 x,1/2-y,1/2+z
_cell_length_a                   7.4290(5)
_cell_length_b                   15.7760(5)
_cell_length_c                   7.3990(7)
_cell_angle_alpha                90
_cell_angle_beta                 90
_cell_angle_gamma                90
_cell_volume                     867.162
loop_
_atom_site_label
_atom_site_type_symbol
_atom_site_fract_x
_atom_site_fract_y
_atom_site_fract_z
Fe1 Fe 0.5000 0.0000 0.5055(9)
Pd1 Pd 0.0000 0.0000 1.00685(4)
Cl1 Cl 0.9595(6) 0.2871(3) 0.3883(10)
N1 N 0.5477(8) 0.1386(3) 0.4951(16)
N2 N 0.2875(18) 0.0203(9) 0.6949(19)
N3 N 0.3079(19) 0.0133(8) 0.2933(19)
C1 C 0.7198(7) 0.1699(4) 0.4635(16)
C2 C 0.7498(8) 0.2568(5) 0.4615(17)
C3 C 0.6079(11) 0.3125(3) 0.491(2)
C4 C 0.4358(10) 0.2812(4) 0.523(2)
C5 C 0.4057(7) 0.1943(4) 0.5248(18)
C6 C 0.180(2) 0.0127(10) 0.802(2)
C7 C 0.195(2) 0.0081(9) 0.187(2)
Pd1_2 Pd 0.0000 0.0000 0.00685(4)
Pd1_3 Pd 1.0000 0.0000 1.00685(4)
Pd1_4 Pd 1.0000 0.0000 0.00685(4)
Cl1A Cl 0.0405(6) -0.2871(3) 0.3883(10)
N1A N 0.4523(8) -0.1386(3) 0.4951(16)
N2A N 0.7125(18) -0.0203(9) 0.6949(19)
N3A N 0.6921(19) -0.0133(8) 0.2933(19)
C1A C 0.2802(7) -0.1699(4) 0.4635(16)
C2A C 0.2502(8) -0.2568(5) 0.4615(17)
C3A C 0.3921(11) -0.3125(3) 0.491(2)
C4A C 0.5642(10) -0.2812(4) 0.523(2)
C5A C 0.5943(7) -0.1943(4) 0.5248(18)
C6A C 0.820(2) -0.0127(10) 0.802(2)
C6A_2 C -0.180(2) -0.0127(10) 0.802(2)
C7A C 0.805(2) -0.0081(9) 0.187(2)
C7_2 C 0.195(2) 0.0081(9) 1.187(2)
C7A_2 C -0.195(2) -0.0081(9) 1.187(2)
loop_
_geom_bond_atom_site_label_1
_geom_bond_atom_site_label_2
_geom_bond_site_symmetry_1
_geom_bond_site_symmetry_2
Fe1 N1 1_555 1_555
Pd1 C6 1_555 1_555
Cl1 C2 1_555 1_555
N1 C1 1_555 1_555
N2 Fe1 1_555 1_555
N3 Fe1 1_555 1_555
C1 C2 1_555 1_555
C2 C3 1_555 1_555
C3 C4 1_555 1_555
C4 C5 1_555 1_555
C5 N1 1_555 1_555
C6 N2 1_555 1_555
C7 N3 1_555 1_555
Pd1_2 C7 1_555 1_555
Pd1_3 C6A 1_555 1_555
Pd1_4 C7A 1_555 1_555
Cl1A C2A 1_555 1_555
N1A Fe1 1_555 1_555
N2A Fe1 1_555 1_555
N3A Fe1 1_555 1_555
C1A N1A 1_555 1_555
C2A C1A 1_555 1_555
C3A C2A 1_555 1_555
C4A C3A 1_555 1_555
C5A N1A 1_555 1_555
C6A N2A 1_555 1_555
C6A_2 Pd1 1_555 1_555
C7A N3A 1_555 1_555
C7_2 Pd1 1_555 1_555
C7A_2 Pd1 1_555 1_555
C4A C5A 1_555 1_555

#END
