
#######################################################################
#
#                 Cambridge Crystallographic Data Centre
#                                CCDC 
#
#######################################################################
#
# If this CIF has been generated from an entry in the Cambridge 
# Structural Database, then it will include bibliographic, chemical, 
# crystal, experimental, refinement or atomic coordinate data resulting 
# from the CCDC's data processing and validation procedures.
#
#######################################################################

data_MUHMEJ
_symmetry_cell_setting           orthorhombic
_symmetry_space_group_name_H-M   'P 21 21 21'
_symmetry_Int_Tables_number      19
_space_group_name_Hall           'P 2ac 2ab'
loop_
_symmetry_equiv_pos_site_id
_symmetry_equiv_pos_as_xyz
1 x,y,z
2 1/2-x,-y,1/2+z
3 -x,1/2+y,1/2-z
4 1/2+x,1/2-y,-z
_cell_length_a                   8.5927(15)
_cell_length_b                   10.561(2)
_cell_length_c                   30.457(6)
_cell_angle_alpha                90
_cell_angle_beta                 90
_cell_angle_gamma                90
_cell_volume                     2763.9
loop_
_atom_site_label
_atom_site_type_symbol
_atom_site_fract_x
_atom_site_fract_y
_atom_site_fract_z
Re1 Re 1.1806(2) 0.9373(2) 0.72130(7)
Re2 Re 0.7625(3) 1.03904(19) 0.54812(7)
Cu1 Cu 0.8541(11) 0.6766(7) 0.5896(3)
Cl1 Cl 1.080(2) 1.1226(14) 0.6904(5)
Cl2 Cl 1.267(2) 0.7390(16) 0.7430(6)
Cl3 Cl 1.4312(19) 1.0209(14) 0.7240(7)
Cl4 Cl 1.106(2) 0.9911(19) 0.7916(5)
Cl5 Cl 0.799(2) 1.0714(16) 0.4721(4)
Cl6 Cl 1.0333(17) 1.0186(14) 0.5567(5)
Cl7 Cl 0.7179(16) 1.0251(13) 0.6243(4)
Cl8 Cl 0.4962(16) 1.0738(13) 0.5392(5)
Cl9 Cl 0.7305(18) 0.8151(13) 0.5399(4)
N1 N 0.961(5) 0.857(4) 0.7090(11)
N2 N 0.819(6) 0.743(5) 0.6519(13)
N3 N 1.210(4) 0.870(3) 0.6563(8)
C1 C 1.080(3) 0.803(3) 0.6420(9)
C2 C 0.827(8) 0.858(7) 0.7329(18)
H1 H 0.8268 0.9042 0.7588
C3 C 0.701(8) 0.800(7) 0.723(2)
H2 H 0.6170 0.7969 0.7424
C4 C 0.695(7) 0.739(6) 0.6789(15)
H3 H 0.6045 0.6970 0.6700
C5 C 0.947(6) 0.802(5) 0.6697(15)
N4 N 1.083(4) 0.740(3) 0.6021(10)
C6 C 1.217(4) 0.743(4) 0.5764(9)
H4 H 1.2191 0.7003 0.5497
C7 C 1.347(4) 0.809(4) 0.5907(11)
H5 H 1.4363 0.8113 0.5735
C8 C 1.343(3) 0.873(4) 0.6306(11)
H6 H 1.4303 0.9174 0.6402
N5 N 0.789(4) 1.246(2) 0.5568(9)
C9 C 0.895(4) 1.285(3) 0.5885(9)
H7 H 0.9529 1.2258 0.6039
C10 C 0.914(4) 1.414(3) 0.5970(10)
H8 H 0.9847 1.4401 0.6182
N6 N 0.827(4) 1.502(2) 0.5739(10)
C11 C 0.721(4) 1.463(3) 0.5423(10)
H9 H 0.6629 1.5224 0.5268
C12 C 0.702(4) 1.335(3) 0.5337(9)
H10 H 0.6311 1.3082 0.5125
Cu1_2 Cu 0.8541(11) 1.6766(7) 0.5896(3)
N6_2 N 0.827(4) 0.502(2) 0.5739(10)
O1 O 1.334(15) 1.116(14) 0.626(3)
O2 O 0.45(2) 1.326(18) 0.642(5)
N7 N 0.416(12) 1.450(12) 0.648(3)
O3 O 0.485(11) 1.543(12) 0.625(3)
C13 C 0.281(13) 1.491(11) 0.654(3)
H11 H 0.2204 1.4281 0.6688
H12 H 0.2340 1.5097 0.6260
H13 H 0.2851 1.5667 0.6712
loop_
_geom_bond_atom_site_label_1
_geom_bond_atom_site_label_2
_geom_bond_site_symmetry_1
_geom_bond_site_symmetry_2
Re1 Cl1 1_555 1_555
Re2 Cl5 1_555 1_555
Cu1 Cl9 1_555 1_555
Cl2 Re1 1_555 1_555
Cl3 Re1 1_555 1_555
Cl4 Re1 1_555 1_555
Cl6 Re2 1_555 1_555
Cl7 Re2 1_555 1_555
Cl8 Re2 1_555 1_555
Cl9 Re2 1_555 1_555
N1 Re1 1_555 1_555
N2 Cu1 1_555 1_555
N3 Re1 1_555 1_555
C1 N3 1_555 1_555
C2 N1 1_555 1_555
H1 C2 1_555 1_555
C3 C2 1_555 1_555
H2 C3 1_555 1_555
C4 N2 1_555 1_555
H3 C4 1_555 1_555
C5 N1 1_555 1_555
N4 Cu1 1_555 1_555
C6 N4 1_555 1_555
H4 C6 1_555 1_555
C7 C6 1_555 1_555
H5 C7 1_555 1_555
C8 N3 1_555 1_555
H6 C8 1_555 1_555
N5 Re2 1_555 1_555
C9 N5 1_555 1_555
H7 C9 1_555 1_555
C10 C9 1_555 1_555
H8 C10 1_555 1_555
N6 C10 1_555 1_555
C11 N6 1_555 1_555
H9 C11 1_555 1_555
C12 N5 1_555 1_555
H10 C12 1_555 1_555
O2 N7 1_555 1_555
N7 O3 1_555 1_555
C13 N7 1_555 1_555
H11 C13 1_555 1_555
H12 C13 1_555 1_555
H13 C13 1_555 1_555
Cu1_2 N6 1_555 1_555
N6_2 Cu1 1_555 1_555
N2 C5 1_555 1_555
C1 C5 1_555 1_555
C1 N4 1_555 1_555
C3 C4 1_555 1_555
C7 C8 1_555 1_555
C11 C12 1_555 1_555

#END
