
#######################################################################
#
#                 Cambridge Crystallographic Data Centre
#                                CCDC 
#
#######################################################################
#
# If this CIF has been generated from an entry in the Cambridge 
# Structural Database, then it will include bibliographic, chemical, 
# crystal, experimental, refinement or atomic coordinate data resulting 
# from the CCDC's data processing and validation procedures.
#
#######################################################################

data_MUHNIO
_symmetry_cell_setting           monoclinic
_symmetry_space_group_name_H-M   'P 21/n'
_symmetry_Int_Tables_number      14
_space_group_name_Hall           '-P 2yn'
loop_
_symmetry_equiv_pos_site_id
_symmetry_equiv_pos_as_xyz
1 x,y,z
2 1/2-x,1/2+y,1/2-z
3 -x,-y,-z
4 1/2+x,1/2-y,1/2+z
_cell_length_a                   9.1787(10)
_cell_length_b                   15.2181(11)
_cell_length_c                   10.3355(8)
_cell_angle_alpha                90
_cell_angle_beta                 96.657(8)
_cell_angle_gamma                90
_cell_volume                     1433.95
loop_
_atom_site_label
_atom_site_type_symbol
_atom_site_fract_x
_atom_site_fract_y
_atom_site_fract_z
Ni1 Ni 0.5000 0.0000 1.0000
N1 N 0.0858(3) -0.40378(17) 1.3774(2)
N2 N 0.3646(3) -0.15957(17) 1.1580(2)
N3 N 0.3612(3) -0.09515(16) 1.0655(2)
N4 N 0.1447(3) -0.16777(18) 1.0322(3)
N5 N 0.3020(3) 0.01406(16) 0.8623(2)
N6 N 0.2345(3) 0.06431(17) 0.7637(2)
H1 H 0.2754 0.1059 0.7247
N7 N 0.0646(3) -0.02791(18) 0.8150(3)
N8 N -0.2187(4) 0.1444(3) 0.4398(3)
C1 C 0.2265(4) -0.3803(2) 1.3846(4)
H2 H 0.2926 -0.4088 1.4455
C2 C 0.2816(4) -0.3164(2) 1.3079(4)
H3 H 0.3813 -0.3035 1.3182
C3 C 0.1883(4) -0.2723(2) 1.2166(3)
C4 C 0.0422(4) -0.2967(3) 1.2052(3)
H4 H -0.0256 -0.2698 1.1438
C5 C -0.0017(4) -0.3610(3) 1.2855(3)
H5 H -0.1006 -0.3762 1.2751
C6 C 0.2346(4) -0.2006(2) 1.1352(3)
C7 C 0.2293(4) -0.1031(2) 0.9949(3)
C8 C 0.1943(4) -0.0406(2) 0.8890(3)
C9 C 0.0933(4) 0.0385(2) 0.7367(3)
C10 C -0.0124(4) 0.0765(2) 0.6346(3)
C11 C -0.1552(4) 0.0473(3) 0.6216(4)
H6 H -0.1850 0.0047 0.6774
C12 C -0.2534(5) 0.0826(3) 0.5236(4)
H7 H -0.3496 0.0623 0.5154
C13 C -0.0814(5) 0.1723(3) 0.4554(4)
H8 H -0.0548 0.2157 0.3993
C14 C 0.0257(4) 0.1409(3) 0.5501(4)
H9 H 0.1209 0.1628 0.5566
N1B N 0.9142(3) 0.40378(17) 0.6226(2)
N2B N 0.6354(3) 0.15957(17) 0.8420(2)
N3B N 0.6388(3) 0.09515(16) 0.9345(2)
N4B N 0.8553(3) 0.16777(18) 0.9678(3)
N5B N 0.6980(3) -0.01406(16) 1.1377(2)
N6B N 0.7655(3) -0.06431(17) 1.2363(2)
H1B H 0.7246 -0.1059 1.2753
N7B N 0.9354(3) 0.02791(18) 1.1850(3)
N8B N 1.2187(4) -0.1444(3) 1.5602(3)
C1B C 0.7735(4) 0.3803(2) 0.6154(4)
H2B H 0.7074 0.4088 0.5545
C2B C 0.7184(4) 0.3164(2) 0.6921(4)
H3B H 0.6187 0.3035 0.6818
C3B C 0.8117(4) 0.2723(2) 0.7834(3)
C4B C 0.9578(4) 0.2967(3) 0.7948(3)
H4B H 1.0256 0.2698 0.8562
C5B C 1.0017(4) 0.3610(3) 0.7145(3)
H5B H 1.1006 0.3762 0.7249
C6B C 0.7654(4) 0.2006(2) 0.8648(3)
C7B C 0.7707(4) 0.1031(2) 1.0051(3)
C8B C 0.8057(4) 0.0406(2) 1.1110(3)
C9B C 0.9067(4) -0.0385(2) 1.2633(3)
C10B C 1.0124(4) -0.0765(2) 1.3654(3)
C11B C 1.1552(4) -0.0473(3) 1.3784(4)
H6B H 1.1850 -0.0047 1.3226
C12B C 1.2534(5) -0.0826(3) 1.4764(4)
H7B H 1.3496 -0.0623 1.4846
C13B C 1.0814(5) -0.1723(3) 1.5446(4)
H8B H 1.0548 -0.2157 1.6007
C14B C 0.9743(4) -0.1409(3) 1.4499(4)
H9B H 0.8791 -0.1628 1.4434
Ni1A Ni 0.0000 -0.5000 1.5000
Ni1A_2 Ni 1.0000 0.5000 0.5000
N1A N 0.4142(3) 0.09622(17) 1.1226(2)
N1C N 0.5858(3) -0.09622(17) 0.8774(2)
O1 O 0.4039(3) 0.1736(2) 0.6454(3)
H10 H 0.478(4) 0.178(3) 0.704(3)
H11 H 0.398(5) 0.2187(19) 0.597(4)
loop_
_geom_bond_atom_site_label_1
_geom_bond_atom_site_label_2
_geom_bond_site_symmetry_1
_geom_bond_site_symmetry_2
Ni1 N3 1_555 1_555
N1 C1 1_555 1_555
N2 N3 1_555 1_555
N3 C7 1_555 1_555
N4 C6 1_555 1_555
N5 Ni1 1_555 1_555
N6 N5 1_555 1_555
H1 N6 1_555 1_555
N7 C8 1_555 1_555
N8 C12 1_555 1_555
C1 H2 1_555 1_555
C2 C1 1_555 1_555
H3 C2 1_555 1_555
C3 C2 1_555 1_555
C4 C3 1_555 1_555
H4 C4 1_555 1_555
C5 N1 1_555 1_555
H5 C5 1_555 1_555
C6 N2 1_555 1_555
C7 N4 1_555 1_555
C8 N5 1_555 1_555
C9 N6 1_555 1_555
C10 C9 1_555 1_555
C11 C10 1_555 1_555
H6 C11 1_555 1_555
C12 C11 1_555 1_555
H7 C12 1_555 1_555
C13 N8 1_555 1_555
H8 C13 1_555 1_555
C14 C10 1_555 1_555
H9 C14 1_555 1_555
O1 H10 1_555 1_555
H11 O1 1_555 1_555
N1B C1B 1_555 1_555
N2B N3B 1_555 1_555
N3B Ni1 1_555 1_555
N4B C6B 1_555 1_555
N5B Ni1 1_555 1_555
N6B N5B 1_555 1_555
H1B N6B 1_555 1_555
N7B C8B 1_555 1_555
N8B C12B 1_555 1_555
C1B H2B 1_555 1_555
C2B C1B 1_555 1_555
H3B C2B 1_555 1_555
C3B C2B 1_555 1_555
C4B C3B 1_555 1_555
H4B C4B 1_555 1_555
C5B N1B 1_555 1_555
H5B C5B 1_555 1_555
C6B N2B 1_555 1_555
C7B N3B 1_555 1_555
C8B N5B 1_555 1_555
C9B N6B 1_555 1_555
C10B C9B 1_555 1_555
C11B C10B 1_555 1_555
H6B C11B 1_555 1_555
C12B C11B 1_555 1_555
H7B C12B 1_555 1_555
C13B N8B 1_555 1_555
H8B C13B 1_555 1_555
C14B C10B 1_555 1_555
H9B C14B 1_555 1_555
Ni1A N1 1_555 1_555
Ni1A_2 N1B 1_555 1_555
N1A Ni1 1_555 1_555
N1C Ni1 1_555 1_555
N7 C9 1_555 1_555
C3 C6 1_555 1_555
C4 C5 1_555 1_555
C7 C8 1_555 1_555
C13 C14 1_555 1_555
N4B C7B 1_555 1_555
N7B C9B 1_555 1_555
C3B C6B 1_555 1_555
C4B C5B 1_555 1_555
C7B C8B 1_555 1_555
C13B C14B 1_555 1_555

#END
