
#######################################################################
#
#                 Cambridge Crystallographic Data Centre
#                                CCDC 
#
#######################################################################
#
# If this CIF has been generated from an entry in the Cambridge 
# Structural Database, then it will include bibliographic, chemical, 
# crystal, experimental, refinement or atomic coordinate data resulting 
# from the CCDC's data processing and validation procedures.
#
#######################################################################

data_MUHNAF
_symmetry_cell_setting           monoclinic
_symmetry_space_group_name_H-M   'C 2/m'
_symmetry_Int_Tables_number      12
_space_group_name_Hall           '-C 2y'
loop_
_symmetry_equiv_pos_site_id
_symmetry_equiv_pos_as_xyz
1 x,y,z
2 -x,y,-z
3 1/2+x,1/2+y,z
4 1/2-x,1/2+y,-z
5 -x,-y,-z
6 x,-y,z
7 1/2-x,1/2-y,-z
8 1/2+x,1/2-y,z
_cell_length_a                   15.660(3)
_cell_length_b                   6.9900(18)
_cell_length_c                   7.3670(19)
_cell_angle_alpha                90
_cell_angle_beta                 99.722(16)
_cell_angle_gamma                90
_cell_volume                     794.836
loop_
_atom_site_label
_atom_site_type_symbol
_atom_site_fract_x
_atom_site_fract_y
_atom_site_fract_z
Fe1 Fe 0.0000 -0.5000 -0.5000
Pt1 Pt 0.0000 0.0000 0.0000
Cl1 Cl -0.2815(3) -0.5000 -0.1342(7)
N1 N -0.1269(10) -0.5000 -0.505(2)
N2 N 0.0092(7) -0.3058(16) -0.3130(14)
C1 C -0.1617(13) -0.5000 -0.354(3)
H1 H -0.1240 -0.5000 -0.2416
C2 C -0.2466(14) -0.5000 -0.348(3)
C3 C -0.3066(13) -0.5000 -0.509(3)
H2 H -0.3660 -0.5000 -0.5085
C4 C -0.2734(14) -0.5000 -0.669(3)
H3 H -0.3105 -0.5000 -0.7817
C5 C -0.1866(13) -0.5000 -0.664(3)
H4 H -0.1661 -0.5000 -0.7751
C6 C 0.0070(7) -0.1970(19) -0.1947(16)
Pt1_2 Pt 0.0000 0.0000 -1.0000
Pt1_3 Pt 0.0000 -1.0000 -1.0000
Pt1_4 Pt 0.0000 -1.0000 0.0000
Cl1A Cl 0.2815(3) -0.5000 -0.8658(7)
N1A N 0.1269(10) -0.5000 -0.495(2)
N2A N -0.0092(7) -0.3058(16) -0.6870(14)
N2D N -0.0092(7) -0.6942(16) -0.6870(14)
N2E N 0.0092(7) -0.6942(16) -0.3130(14)
C1A C 0.1617(13) -0.5000 -0.646(3)
H1A H 0.1240 -0.5000 -0.7584
C2A C 0.2466(14) -0.5000 -0.652(3)
C3A C 0.3066(13) -0.5000 -0.491(3)
H2A H 0.3660 -0.5000 -0.4915
C4A C 0.2734(14) -0.5000 -0.331(3)
H3A H 0.3105 -0.5000 -0.2183
C5A C 0.1866(13) -0.5000 -0.336(3)
H4A H 0.1661 -0.5000 -0.2249
C6A C -0.0070(7) -0.1970(19) -0.8053(16)
C6D C -0.0070(7) -0.8030(19) -0.8053(16)
C6E C 0.0070(7) -0.8030(19) -0.1947(16)
C6A_2 C -0.0070(7) -0.1970(19) 0.1947(16)
C6D_2 C -0.0070(7) 0.1970(19) 0.1947(16)
C6E_2 C 0.0070(7) 0.1970(19) -0.1947(16)
loop_
_geom_bond_atom_site_label_1
_geom_bond_atom_site_label_2
_geom_bond_site_symmetry_1
_geom_bond_site_symmetry_2
Fe1 N1 1_555 1_555
Pt1 C6 1_555 1_555
Cl1 C2 1_555 1_555
N1 C1 1_555 1_555
N2 Fe1 1_555 1_555
C1 H1 1_555 1_555
C2 C1 1_555 1_555
C3 C2 1_555 1_555
H2 C3 1_555 1_555
C4 C3 1_555 1_555
H3 C4 1_555 1_555
C5 N1 1_555 1_555
H4 C5 1_555 1_555
C6 N2 1_555 1_555
Pt1_2 C6A 1_555 1_555
Pt1_3 C6D 1_555 1_555
Pt1_4 C6E 1_555 1_555
Cl1A C2A 1_555 1_555
N1A Fe1 1_555 1_555
N2A Fe1 1_555 1_555
N2D Fe1 1_555 1_555
N2E Fe1 1_555 1_555
C1A N1A 1_555 1_555
H1A C1A 1_555 1_555
C2A C1A 1_555 1_555
C3A C2A 1_555 1_555
H2A C3A 1_555 1_555
C4A C3A 1_555 1_555
H3A C4A 1_555 1_555
C5A N1A 1_555 1_555
H4A C5A 1_555 1_555
C6A N2A 1_555 1_555
C6D N2D 1_555 1_555
C6E N2E 1_555 1_555
C6A_2 Pt1 1_555 1_555
C6D_2 Pt1 1_555 1_555
C6E_2 Pt1 1_555 1_555
C4 C5 1_555 1_555
C4A C5A 1_555 1_555

#END
