
#######################################################################
#
#                 Cambridge Crystallographic Data Centre
#                                CCDC 
#
#######################################################################
#
# If this CIF has been generated from an entry in the Cambridge 
# Structural Database, then it will include bibliographic, chemical, 
# crystal, experimental, refinement or atomic coordinate data resulting 
# from the CCDC's data processing and validation procedures.
#
#######################################################################

data_MUHNAF01
_symmetry_cell_setting           monoclinic
_symmetry_space_group_name_H-M   'C 2/m'
_symmetry_Int_Tables_number      12
_space_group_name_Hall           '-C 2y'
loop_
_symmetry_equiv_pos_site_id
_symmetry_equiv_pos_as_xyz
1 x,y,z
2 -x,y,-z
3 1/2+x,1/2+y,z
4 1/2-x,1/2+y,-z
5 -x,-y,-z
6 x,-y,z
7 1/2-x,1/2-y,-z
8 1/2+x,1/2-y,z
_cell_length_a                   16.0370(12)
_cell_length_b                   7.3120(7)
_cell_length_c                   7.5590(8)
_cell_angle_alpha                90
_cell_angle_beta                 101.006(5)
_cell_angle_gamma                90
_cell_volume                     870.084
loop_
_atom_site_label
_atom_site_type_symbol
_atom_site_fract_x
_atom_site_fract_y
_atom_site_fract_z
Fe1 Fe 0.0000 0.5000 0.5000
Pt1 Pt 0.0000 0.0000 0.0000
Cl1 Cl 0.2818(2) 0.5000 0.1338(5)
N1 N 0.1378(6) 0.5000 0.5020(13)
N2 N -0.0133(4) 0.2943(9) 0.2928(8)
C1 C 0.1677(7) 0.5000 0.3457(14)
H1 H 0.1287 0.5000 0.2374
C2 C 0.2512(7) 0.5000 0.3400(15)
C3 C 0.3111(8) 0.5000 0.4985(17)
H2 H 0.3689 0.5000 0.4967
C4 C 0.2820(8) 0.5000 0.6601(17)
H3 H 0.3203 0.5000 0.7693
C5 C 0.1962(8) 0.5000 0.6567(15)
H4 H 0.1774 0.5000 0.7658
C6 C -0.0090(4) 0.1887(10) 0.1837(9)
Pt1_2 Pt 0.0000 0.0000 1.0000
Pt1_3 Pt 0.0000 1.0000 1.0000
Pt1_4 Pt 0.0000 1.0000 0.0000
Cl1A Cl -0.2818(2) 0.5000 0.8662(5)
N1A N -0.1378(6) 0.5000 0.4980(13)
N2A N 0.0133(4) 0.2943(9) 0.7072(8)
N2D N 0.0133(4) 0.7057(9) 0.7072(8)
N2E N -0.0133(4) 0.7057(9) 0.2928(8)
C1A C -0.1677(7) 0.5000 0.6543(14)
H1A H -0.1287 0.5000 0.7626
C2A C -0.2512(7) 0.5000 0.6600(15)
C3A C -0.3111(8) 0.5000 0.5015(17)
H2A H -0.3689 0.5000 0.5033
C4A C -0.2820(8) 0.5000 0.3399(17)
H3A H -0.3203 0.5000 0.2307
C5A C -0.1962(8) 0.5000 0.3433(15)
H4A H -0.1774 0.5000 0.2342
C6A C 0.0090(4) 0.1887(10) 0.8163(9)
C6D C 0.0090(4) 0.8113(10) 0.8163(9)
C6E C -0.0090(4) 0.8113(10) 0.1837(9)
C6A_2 C 0.0090(4) 0.1887(10) -0.1837(9)
C6D_2 C 0.0090(4) -0.1887(10) -0.1837(9)
C6E_2 C -0.0090(4) -0.1887(10) 0.1837(9)
loop_
_geom_bond_atom_site_label_1
_geom_bond_atom_site_label_2
_geom_bond_site_symmetry_1
_geom_bond_site_symmetry_2
Fe1 N1 1_555 1_555
Pt1 C6 1_555 1_555
Cl1 C2 1_555 1_555
N1 C1 1_555 1_555
N2 Fe1 1_555 1_555
C1 H1 1_555 1_555
C2 C1 1_555 1_555
C3 C2 1_555 1_555
H2 C3 1_555 1_555
C4 C3 1_555 1_555
H3 C4 1_555 1_555
C5 N1 1_555 1_555
H4 C5 1_555 1_555
C6 N2 1_555 1_555
Pt1_2 C6A 1_555 1_555
Pt1_3 C6D 1_555 1_555
Pt1_4 C6E 1_555 1_555
Cl1A C2A 1_555 1_555
N1A Fe1 1_555 1_555
N2A Fe1 1_555 1_555
N2D Fe1 1_555 1_555
N2E Fe1 1_555 1_555
C1A N1A 1_555 1_555
H1A C1A 1_555 1_555
C2A C1A 1_555 1_555
C3A C2A 1_555 1_555
H2A C3A 1_555 1_555
C4A C3A 1_555 1_555
H3A C4A 1_555 1_555
C5A N1A 1_555 1_555
H4A C5A 1_555 1_555
C6A N2A 1_555 1_555
C6D N2D 1_555 1_555
C6E N2E 1_555 1_555
C6A_2 Pt1 1_555 1_555
C6D_2 Pt1 1_555 1_555
C6E_2 Pt1 1_555 1_555
C4 C5 1_555 1_555
C4A C5A 1_555 1_555

#END
