
#######################################################################
#
#                 Cambridge Crystallographic Data Centre
#                                CCDC 
#
#######################################################################
#
# If this CIF has been generated from an entry in the Cambridge 
# Structural Database, then it will include bibliographic, chemical, 
# crystal, experimental, refinement or atomic coordinate data resulting 
# from the CCDC's data processing and validation procedures.
#
#######################################################################

data_MUHNOT01
_symmetry_cell_setting           monoclinic
_symmetry_space_group_name_H-M   'C 2/m'
_symmetry_Int_Tables_number      12
_space_group_name_Hall           '-C 2y'
loop_
_symmetry_equiv_pos_site_id
_symmetry_equiv_pos_as_xyz
1 x,y,z
2 -x,y,-z
3 1/2+x,1/2+y,z
4 1/2-x,1/2+y,-z
5 -x,-y,-z
6 x,-y,z
7 1/2-x,1/2-y,-z
8 1/2+x,1/2-y,z
_cell_length_a                   15.657(2)
_cell_length_b                   7.520(1)
_cell_length_c                   7.2930(5)
_cell_angle_alpha                90
_cell_angle_beta                 100.148(7)
_cell_angle_gamma                90
_cell_volume                     845.249
loop_
_atom_site_label
_atom_site_type_symbol
_atom_site_fract_x
_atom_site_fract_y
_atom_site_fract_z
Fe1 Fe 0.0000 0.0000 0.0000
Pd1 Pd 0.0000 0.5000 0.5000
F1 F 0.2782(4) 0.0000 -0.3545(8)
N1 N 0.1400(4) 0.0000 -0.0143(7)
N2 N 0.0187(3) 0.2027(5) 0.2107(4)
C1 C 0.1687(5) 0.0000 -0.1736(10)
H1 H 0.1281 0.0000 -0.2833
C2 C 0.2552(6) 0.0000 -0.1871(13)
C3 C 0.3154(6) 0.0000 -0.0273(14)
H2 H 0.3744 0.0000 -0.0317
C4 C 0.2874(6) 0.0000 0.1364(12)
H3 H 0.3270 0.0000 0.2476
C5 C 0.1996(5) 0.0000 0.1390(10)
H4 H 0.1813 0.0000 0.2537
C6 C 0.0141(3) 0.3111(5) 0.3157(5)
Pd1_2 Pd 0.0000 0.5000 -0.5000
Pd1_3 Pd 0.0000 -0.5000 -0.5000
Pd1_4 Pd 0.0000 -0.5000 0.5000
F1A F -0.2782(4) 0.0000 0.3545(8)
N1A N -0.1400(4) 0.0000 0.0143(7)
N2A N -0.0187(3) 0.2027(5) -0.2107(4)
N2D N -0.0187(3) -0.2027(5) -0.2107(4)
N2E N 0.0187(3) -0.2027(5) 0.2107(4)
C1A C -0.1687(5) 0.0000 0.1736(10)
H1A H -0.1281 0.0000 0.2833
C2A C -0.2552(6) 0.0000 0.1871(13)
C3A C -0.3154(6) 0.0000 0.0273(14)
H2A H -0.3744 0.0000 0.0317
C4A C -0.2874(6) 0.0000 -0.1364(12)
H3A H -0.3270 0.0000 -0.2476
C5A C -0.1996(5) 0.0000 -0.1390(10)
H4A H -0.1813 0.0000 -0.2537
C6A C -0.0141(3) 0.3111(5) -0.3157(5)
C6D C -0.0141(3) -0.3111(5) -0.3157(5)
C6E C 0.0141(3) -0.3111(5) 0.3157(5)
C6A_2 C -0.0141(3) 0.3111(5) 0.6843(5)
C6D_2 C -0.0141(3) 0.6889(5) 0.6843(5)
C6E_2 C 0.0141(3) 0.6889(5) 0.3157(5)
loop_
_geom_bond_atom_site_label_1
_geom_bond_atom_site_label_2
_geom_bond_site_symmetry_1
_geom_bond_site_symmetry_2
Fe1 N1 1_555 1_555
Pd1 C6 1_555 1_555
F1 C2 1_555 1_555
N1 C1 1_555 1_555
N2 Fe1 1_555 1_555
C1 H1 1_555 1_555
C2 C1 1_555 1_555
C3 C2 1_555 1_555
H2 C3 1_555 1_555
C4 C3 1_555 1_555
H3 C4 1_555 1_555
C5 N1 1_555 1_555
H4 C5 1_555 1_555
C6 N2 1_555 1_555
Pd1_2 C6A 1_555 1_555
Pd1_3 C6D 1_555 1_555
Pd1_4 C6E 1_555 1_555
F1A C2A 1_555 1_555
N1A Fe1 1_555 1_555
N2A Fe1 1_555 1_555
N2D Fe1 1_555 1_555
N2E Fe1 1_555 1_555
C1A N1A 1_555 1_555
H1A C1A 1_555 1_555
C2A C1A 1_555 1_555
C3A C2A 1_555 1_555
H2A C3A 1_555 1_555
C4A C3A 1_555 1_555
H3A C4A 1_555 1_555
C5A N1A 1_555 1_555
H4A C5A 1_555 1_555
C6A N2A 1_555 1_555
C6D N2D 1_555 1_555
C6E N2E 1_555 1_555
C6A_2 Pd1 1_555 1_555
C6D_2 Pd1 1_555 1_555
C6E_2 Pd1 1_555 1_555
C4 C5 1_555 1_555
C4A C5A 1_555 1_555

#END
