
#######################################################################
#
#                 Cambridge Crystallographic Data Centre
#                                CCDC 
#
#######################################################################
#
# If this CIF has been generated from an entry in the Cambridge 
# Structural Database, then it will include bibliographic, chemical, 
# crystal, experimental, refinement or atomic coordinate data resulting 
# from the CCDC's data processing and validation procedures.
#
#######################################################################

data_MUHPUB
_symmetry_cell_setting           monoclinic
_symmetry_space_group_name_H-M   'P 21/c'
_symmetry_Int_Tables_number      14
_space_group_name_Hall           '-P 2ybc'
loop_
_symmetry_equiv_pos_site_id
_symmetry_equiv_pos_as_xyz
1 x,y,z
2 -x,1/2+y,1/2-z
3 -x,-y,-z
4 x,1/2-y,1/2+z
_cell_length_a                   18.195(4)
_cell_length_b                   9.998(5)
_cell_length_c                   16.397(2)
_cell_angle_alpha                90
_cell_angle_beta                 100.678(3)
_cell_angle_gamma                90
_cell_volume                     2931.19
loop_
_atom_site_label
_atom_site_type_symbol
_atom_site_fract_x
_atom_site_fract_y
_atom_site_fract_z
Cd1 Cd 0.81528(2) 0.22844(3) 0.73832(2)
Cd2 Cd 0.07957(2) -0.04688(3) 0.60885(2)
C1 C 0.2697(3) -0.0938(5) 0.6780(3)
C2 C 0.3250(3) -0.0180(5) 0.6378(3)
C3 C 0.3017(3) 0.0835(5) 0.5818(4)
H1 H 0.2513 0.1048 0.5666
C4 C 0.3561(3) 0.1539(5) 0.5483(4)
C5 C 0.4307(3) 0.1204(6) 0.5701(4)
H2 H 0.4662 0.1670 0.5472
C6 C 0.4528(3) 0.0184(6) 0.6255(4)
C7 C 0.4011(3) -0.0519(5) 0.6603(4)
H3 H 0.4163 -0.1205 0.6980
C8 C 0.5548(3) -0.1085(7) 0.6984(5)
H4 H 0.5371 -0.1936 0.6740
H5 H 0.5366 -0.0978 0.7500
C9 C 0.6394(3) -0.1050(6) 0.7149(4)
C10 C 0.6802(4) -0.2172(6) 0.7411(4)
H6 H 0.6559 -0.2974 0.7471
C11 C 0.7580(3) -0.2115(6) 0.7588(4)
H7 H 0.7866 -0.2863 0.7774
C12 C 0.7906(3) -0.0912(5) 0.7476(4)
H8 H 0.8426 -0.0866 0.7579
C13 C 0.6781(3) 0.0125(5) 0.7072(4)
H9 H 0.6507 0.0894 0.6903
C14 C 0.2673(4) 0.3111(6) 0.4722(5)
H10 H 0.2388 0.2897 0.5150
H11 H 0.2423 0.2718 0.4204
C15 C 0.2730(3) 0.4599(6) 0.4632(4)
C16 C 0.3011(4) 0.5359(8) 0.5323(4)
H12 H 0.3191 0.4952 0.5831
C17 C 0.3019(5) 0.6714(8) 0.5248(4)
H13 H 0.3225 0.7241 0.5701
C18 C 0.2718(4) 0.7307(6) 0.4494(4)
H14 H 0.2712 0.8236 0.4458
C19 C 0.2461(3) 0.5269(5) 0.3902(4)
H15 H 0.2281 0.4762 0.3431
C20 C 0.9244(3) 0.8236(5) 0.5069(3)
C21 C 0.9239(3) 0.6799(5) 0.5336(3)
C22 C 0.9382(3) 0.6446(5) 0.6168(3)
H16 H 0.9505 0.7108 0.6569
C23 C 0.9344(3) 0.5127(5) 0.6413(3)
C24 C 0.9201(3) 0.4138(5) 0.5809(3)
H17 H 0.9201 0.3246 0.5970
C25 C 0.9058(2) 0.4454(4) 0.4969(3)
C26 C 0.9064(3) 0.5786(5) 0.4736(3)
H18 H 0.8952 0.6012 0.4176
C27 C 0.9393(3) 0.4796(5) 0.7306(3)
C28 C 0.8898(3) 0.3365(5) 0.4334(3)
N1 N 0.7520(2) 0.0209(4) 0.7226(3)
N2 N 0.2443(2) 0.6609(4) 0.3828(3)
O1 O 0.2075(2) -0.0399(4) 0.6799(3)
O2 O 0.2883(2) -0.2048(4) 0.7084(3)
O3 O 0.5281(2) -0.0039(5) 0.6437(3)
O4 O 0.3420(2) 0.2594(4) 0.4944(3)
O5 O 0.9540(2) 0.9112(3) 0.5583(2)
O6 O 0.8927(2) 0.8491(3) 0.4337(2)
O7 O 0.9551(2) 0.5714(3) 0.7830(2)
O8 O 0.92310(19) 0.3630(3) 0.7522(2)
O9 O 0.8933(2) 0.2181(3) 0.4610(2)
O10 O 0.8745(2) 0.3691(3) 0.3583(2)
O11 O 0.8931(2) 0.1081(4) 0.6626(3)
H19 H 0.9400 0.0950 0.6699
H20 H 0.8730 0.0642 0.6199
Cd1B Cd 0.18472(2) 0.77156(3) 0.26168(2)
Cd1A Cd 0.18472(2) -0.27156(3) 0.76168(2)
Cd1C Cd 0.81528(2) 0.27156(3) 0.23832(2)
Cd2_2 Cd 1.07957(2) 0.95312(3) 0.60885(2)
Cd2B Cd 0.92043(2) 1.04688(3) 0.39115(2)
Cd2A Cd 0.92043(2) 0.45312(3) 0.89115(2)
Cd2B_2 Cd 0.92043(2) 0.04688(3) 0.39115(2)
N2B N 0.7557(2) 0.3391(4) 0.6172(3)
O2A O 0.7117(2) 0.2952(4) 0.7916(3)
O5_2 O -0.0460(2) -0.0888(3) 0.5583(2)
O6B O 0.1073(2) 0.1509(3) 0.5663(2)
O7A O 0.0449(2) 0.0714(3) 0.7170(2)
O8A O 0.07690(19) -0.1370(3) 0.7478(2)
O9B O 0.1067(2) -0.2181(3) 0.5390(2)
O10C O 0.8745(2) 0.1309(3) 0.8583(2)
loop_
_geom_bond_atom_site_label_1
_geom_bond_atom_site_label_2
_geom_bond_site_symmetry_1
_geom_bond_site_symmetry_2
Cd1 N1 1_555 1_555
Cd2 O1 1_555 1_555
C1 C2 1_555 1_555
C2 C3 1_555 1_555
C3 H1 1_555 1_555
C4 C3 1_555 1_555
C5 C4 1_555 1_555
H2 C5 1_555 1_555
C6 C5 1_555 1_555
C7 C2 1_555 1_555
H3 C7 1_555 1_555
C8 H4 1_555 1_555
H5 C8 1_555 1_555
C9 C8 1_555 1_555
C10 C9 1_555 1_555
H6 C10 1_555 1_555
C11 C10 1_555 1_555
H7 C11 1_555 1_555
C12 C11 1_555 1_555
H8 C12 1_555 1_555
C13 C9 1_555 1_555
H9 C13 1_555 1_555
C14 H10 1_555 1_555
H11 C14 1_555 1_555
C15 C14 1_555 1_555
C16 C15 1_555 1_555
H12 C16 1_555 1_555
C17 C16 1_555 1_555
H13 C17 1_555 1_555
C18 C17 1_555 1_555
H14 C18 1_555 1_555
C19 C15 1_555 1_555
H15 C19 1_555 1_555
C20 C21 1_555 1_555
C21 C22 1_555 1_555
C22 H16 1_555 1_555
C23 C22 1_555 1_555
C24 C23 1_555 1_555
H17 C24 1_555 1_555
C25 C24 1_555 1_555
C26 C21 1_555 1_555
H18 C26 1_555 1_555
C27 C23 1_555 1_555
C28 C25 1_555 1_555
N1 C12 1_555 1_555
N2 C18 1_555 1_555
O1 C1 1_555 1_555
O2 C1 1_555 1_555
O3 C6 1_555 1_555
O4 C4 1_555 1_555
O5 C20 1_555 1_555
O6 C20 1_555 1_555
O7 C27 1_555 1_555
O8 Cd1 1_555 1_555
O9 C28 1_555 1_555
O10 C28 1_555 1_555
O11 Cd1 1_555 1_555
H19 O11 1_555 1_555
H20 O11 1_555 1_555
Cd1B N2 1_555 1_555
Cd1A O2 1_555 1_555
Cd1C O10 1_555 1_555
Cd2_2 O5 1_555 1_555
Cd2B O6 1_555 1_555
Cd2A O7 1_555 1_555
Cd2B_2 O9 1_555 1_555
N2B Cd1 1_555 1_555
O2A Cd1 1_555 1_555
O5_2 Cd2 1_555 1_555
O6B Cd2 1_555 1_555
O7A Cd2 1_555 1_555
O8A Cd2 1_555 1_555
O9B Cd2 1_555 1_555
O10C Cd1 1_555 1_555
C6 C7 1_555 1_555
C8 O3 1_555 1_555
C13 N1 1_555 1_555
C14 O4 1_555 1_555
C19 N2 1_555 1_555
C25 C26 1_555 1_555
C27 O8 1_555 1_555
O8 Cd2A 1_555 1_555
Cd1A O8A 1_555 1_555

#END
