
#######################################################################
#
#                 Cambridge Crystallographic Data Centre
#                                CCDC 
#
#######################################################################
#
# If this CIF has been generated from an entry in the Cambridge 
# Structural Database, then it will include bibliographic, chemical, 
# crystal, experimental, refinement or atomic coordinate data resulting 
# from the CCDC's data processing and validation procedures.
#
#######################################################################

data_MUHPAH01
_symmetry_cell_setting           monoclinic
_symmetry_space_group_name_H-M   'C 2/m'
_symmetry_Int_Tables_number      12
_space_group_name_Hall           '-C 2y'
loop_
_symmetry_equiv_pos_site_id
_symmetry_equiv_pos_as_xyz
1 x,y,z
2 -x,y,-z
3 1/2+x,1/2+y,z
4 1/2-x,1/2+y,-z
5 -x,-y,-z
6 x,-y,z
7 1/2-x,1/2-y,-z
8 1/2+x,1/2-y,z
_cell_length_a                   15.6840(14)
_cell_length_b                   7.5060(8)
_cell_length_c                   7.2880(9)
_cell_angle_alpha                90
_cell_angle_beta                 100.462(6)
_cell_angle_gamma                90
_cell_volume                     843.71
loop_
_atom_site_label
_atom_site_type_symbol
_atom_site_fract_x
_atom_site_fract_y
_atom_site_fract_z
Fe1 Fe 0.0000 0.0000 0.5000
Pt1 Pt 0.0000 0.5000 0.0000
F1 F 0.2768(7) 0.0000 0.1448(17)
N1 N 0.1401(6) 0.0000 0.4872(14)
N2 N -0.0194(4) 0.2010(9) 0.2894(9)
C1 C 0.1677(9) 0.0000 0.3275(19)
H1 H 0.1274 0.0000 0.2168
C2 C 0.2558(9) 0.0000 0.320(3)
C3 C 0.3159(10) 0.0000 0.477(3)
H2 H 0.3749 0.0000 0.4741
C4 C 0.2866(10) 0.0000 0.635(3)
H3 H 0.3262 0.0000 0.7472
C5 C 0.1974(8) 0.0000 0.6412(19)
H4 H 0.1792 0.0000 0.7557
C6 C -0.0146(5) 0.3131(11) 0.1841(11)
Pt1_2 Pt 0.0000 0.5000 1.0000
Pt1_3 Pt 0.0000 -0.5000 1.0000
Pt1_4 Pt 0.0000 -0.5000 0.0000
F1A F -0.2768(7) 0.0000 0.8552(17)
N1A N -0.1401(6) 0.0000 0.5128(14)
N2A N 0.0194(4) 0.2010(9) 0.7106(9)
N2D N 0.0194(4) -0.2010(9) 0.7106(9)
N2E N -0.0194(4) -0.2010(9) 0.2894(9)
C1A C -0.1677(9) 0.0000 0.6725(19)
H1A H -0.1274 0.0000 0.7832
C2A C -0.2558(9) 0.0000 0.680(3)
C3A C -0.3159(10) 0.0000 0.523(3)
H2A H -0.3749 0.0000 0.5259
C4A C -0.2866(10) 0.0000 0.365(3)
H3A H -0.3262 0.0000 0.2528
C5A C -0.1974(8) 0.0000 0.3588(19)
H4A H -0.1792 0.0000 0.2443
C6A C 0.0146(5) 0.3131(11) 0.8159(11)
C6D C 0.0146(5) -0.3131(11) 0.8159(11)
C6E C -0.0146(5) -0.3131(11) 0.1841(11)
C6A_2 C 0.0146(5) 0.3131(11) -0.1841(11)
C6D_2 C 0.0146(5) 0.6869(11) -0.1841(11)
C6E_2 C -0.0146(5) 0.6869(11) 0.1841(11)
loop_
_geom_bond_atom_site_label_1
_geom_bond_atom_site_label_2
_geom_bond_site_symmetry_1
_geom_bond_site_symmetry_2
Fe1 N1 1_555 1_555
Pt1 C6 1_555 1_555
F1 C2 1_555 1_555
N1 C1 1_555 1_555
N2 Fe1 1_555 1_555
C1 H1 1_555 1_555
C2 C1 1_555 1_555
C3 C2 1_555 1_555
H2 C3 1_555 1_555
C4 C3 1_555 1_555
H3 C4 1_555 1_555
C5 N1 1_555 1_555
H4 C5 1_555 1_555
C6 N2 1_555 1_555
Pt1_2 C6A 1_555 1_555
Pt1_3 C6D 1_555 1_555
Pt1_4 C6E 1_555 1_555
F1A C2A 1_555 1_555
N1A Fe1 1_555 1_555
N2A Fe1 1_555 1_555
N2D Fe1 1_555 1_555
N2E Fe1 1_555 1_555
C1A N1A 1_555 1_555
H1A C1A 1_555 1_555
C2A C1A 1_555 1_555
C3A C2A 1_555 1_555
H2A C3A 1_555 1_555
C4A C3A 1_555 1_555
H3A C4A 1_555 1_555
C5A N1A 1_555 1_555
H4A C5A 1_555 1_555
C6A N2A 1_555 1_555
C6D N2D 1_555 1_555
C6E N2E 1_555 1_555
C6A_2 Pt1 1_555 1_555
C6D_2 Pt1 1_555 1_555
C6E_2 Pt1 1_555 1_555
C4 C5 1_555 1_555
C4A C5A 1_555 1_555

#END
