
#######################################################################
#
#                 Cambridge Crystallographic Data Centre
#                                CCDC 
#
#######################################################################
#
# If this CIF has been generated from an entry in the Cambridge 
# Structural Database, then it will include bibliographic, chemical, 
# crystal, experimental, refinement or atomic coordinate data resulting 
# from the CCDC's data processing and validation procedures.
#
#######################################################################

data_MUHQOV
_symmetry_cell_setting           triclinic
_symmetry_space_group_name_H-M   'P -1'
_symmetry_Int_Tables_number      2
_space_group_name_Hall           '-P 1'
loop_
_symmetry_equiv_pos_site_id
_symmetry_equiv_pos_as_xyz
1 x,y,z
2 -x,-y,-z
_cell_length_a                   4.2937(9)
_cell_length_b                   8.1813(16)
_cell_length_c                   8.2151(17)
_cell_angle_alpha                110.870(10)
_cell_angle_beta                 102.170(10)
_cell_angle_gamma                94.540(10)
_cell_volume                     259.801
loop_
_atom_site_label
_atom_site_type_symbol
_atom_site_fract_x
_atom_site_fract_y
_atom_site_fract_z
I1 I 0.70356(5) 0.68493(3) 0.91380(3)
Cu1 Cu 0.74455(13) 0.35951(7) 0.90670(6)
N1 N 0.6023(7) 0.1492(4) 0.6615(4)
C1 C 0.6906(8) 0.1469(4) 0.5121(4)
C2 C 0.4162(9) 0.0036(5) 0.6466(5)
H1 H 0.3539 0.0025 0.7480
C3 C 0.8977(10) 0.3049(5) 0.5212(5)
H2 H 0.7741 0.3990 0.5293
H3 H 0.9755 0.2757 0.4147
H4 H 1.0777 0.3426 0.6255
C2A C 0.5838(9) -0.0036(5) 0.3534(5)
N1A N 0.3977(7) -0.1492(4) 0.3385(4)
C1A C 0.3094(8) -0.1469(4) 0.4879(4)
C3A C 0.1023(10) -0.3049(5) 0.4788(5)
H2A H 0.2259 -0.3990 0.4707
H3A H 0.0245 -0.2757 0.5853
H4A H -0.0777 -0.3426 0.3745
H1A H 0.6461 -0.0025 0.2520
I1A I 0.29644(5) 0.31507(3) 1.08620(3)
Cu1A Cu 0.25545(13) 0.64049(7) 1.09330(6)
Cu1A_2 Cu 1.25545(13) 0.64049(7) 1.09330(6)
I1A_2 I 1.29644(5) 0.31507(3) 1.08620(3)
Cu1A_3 Cu 0.25545(13) -0.35951(7) 0.09330(6)
Cu1_2 Cu -0.25545(13) 0.35951(7) 0.90670(6)
I1_2 I -0.29644(5) 0.68493(3) 0.91380(3)
N1A_2 N 0.3977(7) 0.8508(4) 1.3385(4)
loop_
_geom_bond_atom_site_label_1
_geom_bond_atom_site_label_2
_geom_bond_site_symmetry_1
_geom_bond_site_symmetry_2
I1 Cu1 1_555 1_555
Cu1 N1 1_555 1_555
N1 C1 1_555 1_555
C1 C3 1_555 1_555
C2 N1 1_555 1_555
H1 C2 1_555 1_555
C3 H2 1_555 1_555
H3 C3 1_555 1_555
H4 C3 1_555 1_555
C2A C1 1_555 1_555
N1A C2A 1_555 1_555
C1A C2 1_555 1_555
C3A C1A 1_555 1_555
H2A C3A 1_555 1_555
H3A C3A 1_555 1_555
H4A C3A 1_555 1_555
H1A C2A 1_555 1_555
I1A Cu1 1_555 1_555
Cu1A I1 1_555 1_555
Cu1A_2 I1 1_555 1_555
I1A_2 Cu1 1_555 1_555
Cu1A_3 N1A 1_555 1_555
Cu1_2 I1A 1_555 1_555
I1_2 Cu1A 1_555 1_555
N1A_2 Cu1A 1_555 1_555
N1A C1A 1_555 1_555
I1A Cu1A 1_555 1_555
Cu1A_2 I1A_2 1_555 1_555
Cu1_2 I1_2 1_555 1_555

#END
