
#######################################################################
#
#                 Cambridge Crystallographic Data Centre
#                                CCDC 
#
#######################################################################
#
# If this CIF has been generated from an entry in the Cambridge 
# Structural Database, then it will include bibliographic, chemical, 
# crystal, experimental, refinement or atomic coordinate data resulting 
# from the CCDC's data processing and validation procedures.
#
#######################################################################

data_MUHQOV01
_symmetry_cell_setting           triclinic
_symmetry_space_group_name_H-M   'P -1'
_symmetry_Int_Tables_number      2
_space_group_name_Hall           '-P 1'
loop_
_symmetry_equiv_pos_site_id
_symmetry_equiv_pos_as_xyz
1 x,y,z
2 -x,-y,-z
_cell_length_a                   4.2971(12)
_cell_length_b                   8.220(3)
_cell_length_c                   8.247(3)
_cell_angle_alpha                110.85(3)
_cell_angle_beta                 102.04(3)
_cell_angle_gamma                94.82(3)
_cell_volume                     262.215
loop_
_atom_site_label
_atom_site_type_symbol
_atom_site_fract_x
_atom_site_fract_y
_atom_site_fract_z
I1 I 0.20736(12) 0.18526(8) -0.08512(6)
Cu1 Cu 0.7589(3) 0.14030(18) 0.09383(15)
N1 N 0.9009(18) 0.3498(11) 0.3395(9)
C1 C 0.810(2) 0.3538(13) 0.4889(10)
C2 C 1.086(3) 0.4986(13) 0.3538(11)
C3 C 0.603(3) 0.1921(14) 0.4793(13)
H1 H 1.1457 0.5016 0.2526
H2 H 0.7156 0.0938 0.4496
H3 H 0.5576 0.2136 0.5936
H4 H 0.4038 0.1657 0.3890
N1A N 1.0991(18) 0.6502(11) 0.6605(9)
C1A C 1.190(2) 0.6462(13) 0.5111(10)
C2A C 0.914(3) 0.5014(13) 0.6462(11)
C3A C 1.397(3) 0.8079(14) 0.5207(13)
H1A H 0.8543 0.4984 0.7474
H2A H 1.2844 0.9062 0.5504
H3A H 1.4424 0.7864 0.4064
H4A H 1.5962 0.8343 0.6110
I1A I 0.79264(12) -0.18526(8) 0.08512(6)
Cu1A Cu 0.2411(3) -0.14030(18) -0.09383(15)
I1_2 I 1.20736(12) 0.18526(8) -0.08512(6)
I1A_2 I -0.20736(12) -0.18526(8) 0.08512(6)
Cu1_2 Cu -0.2411(3) 0.14030(18) 0.09383(15)
Cu1A_2 Cu 1.2411(3) -0.14030(18) -0.09383(15)
Cu1A_3 Cu 1.2411(3) 0.85970(18) 0.90617(15)
N1A_2 N 0.0991(18) -0.3498(11) -0.3395(9)
loop_
_geom_bond_atom_site_label_1
_geom_bond_atom_site_label_2
_geom_bond_site_symmetry_1
_geom_bond_site_symmetry_2
I1 Cu1 1_555 1_555
Cu1 N1 1_555 1_555
N1 C1 1_555 1_555
C1 C3 1_555 1_555
C2 N1 1_555 1_555
C3 H2 1_555 1_555
H1 C2 1_555 1_555
H3 C3 1_555 1_555
H4 C3 1_555 1_555
N1A C1A 1_555 1_555
C1A C2 1_555 1_555
C2A C1 1_555 1_555
C3A C1A 1_555 1_555
H1A C2A 1_555 1_555
H2A C3A 1_555 1_555
H3A C3A 1_555 1_555
H4A C3A 1_555 1_555
I1A Cu1 1_555 1_555
Cu1A I1 1_555 1_555
I1_2 Cu1 1_555 1_555
I1A_2 Cu1A 1_555 1_555
Cu1_2 I1 1_555 1_555
Cu1A_2 I1A 1_555 1_555
Cu1A_3 N1A 1_555 1_555
N1A_2 Cu1A 1_555 1_555
N1A C2A 1_555 1_555
I1A Cu1A 1_555 1_555
I1_2 Cu1A_2 1_555 1_555
I1A_2 Cu1_2 1_555 1_555

#END
