
#######################################################################
#
#                 Cambridge Crystallographic Data Centre
#                                CCDC 
#
#######################################################################
#
# If this CIF has been generated from an entry in the Cambridge 
# Structural Database, then it will include bibliographic, chemical, 
# crystal, experimental, refinement or atomic coordinate data resulting 
# from the CCDC's data processing and validation procedures.
#
#######################################################################

data_MUHQUB
_symmetry_cell_setting           orthorhombic
_symmetry_space_group_name_H-M   'P b c a'
_symmetry_Int_Tables_number      61
_space_group_name_Hall           '-P 2ac 2ab'
loop_
_symmetry_equiv_pos_site_id
_symmetry_equiv_pos_as_xyz
1 x,y,z
2 1/2+x,y,1/2-z
3 x,1/2-y,1/2+z
4 1/2-x,1/2+y,z
5 -x,-y,-z
6 1/2-x,-y,1/2+z
7 -x,1/2+y,1/2-z
8 1/2+x,1/2-y,-z
_cell_length_a                   12.9991(9)
_cell_length_b                   7.7977(5)
_cell_length_c                   27.7847(17)
_cell_angle_alpha                90
_cell_angle_beta                 90
_cell_angle_gamma                90
_cell_volume                     2816.34
loop_
_atom_site_label
_atom_site_type_symbol
_atom_site_fract_x
_atom_site_fract_y
_atom_site_fract_z
Ag1 Ag 0.36941(4) 0.06966(5) 0.632926(11)
Co1 Co 0.37882(5) 0.26369(7) 0.383529(19)
C1 C 0.3796(4) 0.3046(5) 0.48736(14)
C2 C 0.3800(4) 0.2759(5) 0.53637(15)
H1 H 0.3822 0.3694 0.5571
C3 C 0.3725(4) -0.0124(6) 0.52362(14)
H2 H 0.3691 -0.1242 0.5351
C4 C 0.3728(4) 0.0159(5) 0.47468(14)
H3 H 0.3702 -0.0776 0.4539
C5 C 0.3807(4) 0.4837(5) 0.46619(16)
C6 C 0.3762(4) 0.2858(5) 0.77989(14)
C7 C 0.3726(4) 0.2593(5) 0.73070(16)
H4 H 0.3689 0.3536 0.7103
C8 C 0.3792(4) -0.0298(6) 0.74234(14)
H5 H 0.3801 -0.1412 0.7304
C9 C 0.3831(4) -0.0041(6) 0.79103(15)
H6 H 0.3863 -0.0989 0.8113
C10 C 0.3750(4) 0.4640(5) 0.80202(15)
N1 N 0.3765(3) 0.1734(4) 0.45635(11)
N2 N 0.3771(3) 0.1176(5) 0.55488(12)
N3 N 0.3824(3) 0.1527(4) 0.81045(11)
N4 N 0.3743(3) 0.1015(5) 0.71168(12)
O1 O 0.3801(3) 0.4904(4) 0.42027(10)
O2 O 0.3797(3) 0.6068(4) 0.49337(11)
O3 O 0.3805(3) 0.4673(4) 0.84764(10)
O4 O 0.3704(3) 0.5868(4) 0.77480(11)
O5 O 0.2196(3) 0.2585(5) 0.38209(13)
H7 H 0.187(4) 0.342(5) 0.375(2)
H8 H 0.177(3) 0.194(5) 0.3914(17)
N5 N 0.3880(4) -0.3292(6) 0.63007(13)
O6 O 0.4588(3) -0.2352(4) 0.61410(13)
O7 O 0.4042(4) -0.4840(5) 0.63674(13)
O8 O 0.3049(4) -0.2591(6) 0.6384(2)
O8C O 0.1951(4) 0.2409(6) 0.6384(2)
N3B N 0.3824(3) 0.3473(4) 0.31045(11)
O3B O 0.3805(3) 0.0327(4) 0.34764(10)
O6D O 0.5412(3) 0.2352(4) 0.38590(13)
Co1B Co 0.37882(5) 0.23631(7) 0.883529(19)
Co1D Co 0.62118(5) -0.26369(7) 0.616471(19)
Ag1C Ag 0.13059(4) -0.43034(5) 0.632926(11)
loop_
_geom_bond_atom_site_label_1
_geom_bond_atom_site_label_2
_geom_bond_site_symmetry_1
_geom_bond_site_symmetry_2
Ag1 N2 1_555 1_555
Co1 N1 1_555 1_555
C1 C2 1_555 1_555
C2 H1 1_555 1_555
C3 H2 1_555 1_555
C4 C3 1_555 1_555
H3 C4 1_555 1_555
C5 C1 1_555 1_555
C6 C7 1_555 1_555
C7 H4 1_555 1_555
C8 H5 1_555 1_555
C9 C8 1_555 1_555
H6 C9 1_555 1_555
C10 C6 1_555 1_555
N1 C1 1_555 1_555
N2 C2 1_555 1_555
N3 C6 1_555 1_555
N4 Ag1 1_555 1_555
O1 Co1 1_555 1_555
O2 C5 1_555 1_555
O3 C10 1_555 1_555
O4 C10 1_555 1_555
O5 Co1 1_555 1_555
H7 O5 1_555 1_555
H8 O5 1_555 1_555
N5 O6 1_555 1_555
O6 Ag1 1_555 1_555
O7 N5 1_555 1_555
O8 Ag1 1_555 1_555
O8C Ag1 1_555 1_555
N3B Co1 1_555 1_555
O3B Co1 1_555 1_555
O6D Co1 1_555 1_555
Co1B N3 1_555 1_555
Co1D O6 1_555 1_555
Ag1C O8 1_555 1_555
C3 N2 1_555 1_555
C4 N1 1_555 1_555
C5 O1 1_555 1_555
C7 N4 1_555 1_555
C8 N4 1_555 1_555
C9 N3 1_555 1_555
O3 Co1B 1_555 1_555
N5 O8 1_555 1_555

#END
