
#######################################################################
#
#                 Cambridge Crystallographic Data Centre
#                                CCDC 
#
#######################################################################
#
# If this CIF has been generated from an entry in the Cambridge 
# Structural Database, then it will include bibliographic, chemical, 
# crystal, experimental, refinement or atomic coordinate data resulting 
# from the CCDC's data processing and validation procedures.
#
#######################################################################

data_MUHQEM
_symmetry_cell_setting           triclinic
_symmetry_space_group_name_H-M   'P -1'
_symmetry_Int_Tables_number      2
_space_group_name_Hall           '-P 1'
loop_
_symmetry_equiv_pos_site_id
_symmetry_equiv_pos_as_xyz
1 x,y,z
2 -x,-y,-z
_cell_length_a                   8.4994(17)
_cell_length_b                   13.175(3)
_cell_length_c                   13.383(3)
_cell_angle_alpha                67.52(3)
_cell_angle_beta                 82.70(3)
_cell_angle_gamma                84.15(3)
_cell_volume                     1371.19
loop_
_atom_site_label
_atom_site_type_symbol
_atom_site_fract_x
_atom_site_fract_y
_atom_site_fract_z
N1 N -0.3908(4) 0.3686(2) -0.0027(2)
C1 C -0.6751(5) 0.3613(3) -0.1467(3)
Cu1 Cu -0.49074(5) 0.11229(4) 0.01643(4)
P1 P -0.49028(12) 0.27423(8) -0.12937(7)
I1 I -0.24784(3) -0.01194(2) -0.03087(2)
C2 C -0.7922(4) 0.3387(3) -0.0600(3)
H1 H -0.7781 0.2768 0.0027
P2 P -0.42684(11) 0.16123(8) 0.15167(7)
C3 C -0.9290(5) 0.4059(3) -0.0645(3)
H2 H -1.0055 0.3902 -0.0053
C4 C -0.9506(5) 0.4969(3) -0.1582(4)
H3 H -1.0417 0.5432 -0.1620
C5 C -0.8380(5) 0.5191(3) -0.2455(3)
H4 H -0.8544 0.5799 -0.3087
C6 C -0.7010(5) 0.4527(3) -0.2409(3)
H5 H -0.6256 0.4688 -0.3008
C7 C -0.4239(5) 0.2745(3) -0.2650(3)
C8 C -0.3357(5) 0.3559(4) -0.3440(3)
H6 H -0.3087 0.4152 -0.3296
C9 C -0.2871(6) 0.3491(4) -0.4450(3)
H7 H -0.2278 0.4036 -0.4979
C10 C -0.3284(7) 0.2597(4) -0.4661(4)
H8 H -0.2945 0.2539 -0.5327
C11 C -0.4183(7) 0.1809(4) -0.3893(4)
H9 H -0.4479 0.1228 -0.4048
C12 C -0.4662(6) 0.1866(4) -0.2877(3)
H10 H -0.5260 0.1320 -0.2354
C13 C -0.5838(4) 0.2150(3) 0.2281(3)
C14 C -0.7384(5) 0.1851(3) 0.2363(3)
H11 H -0.7611 0.1405 0.2010
C15 C -0.8587(5) 0.2213(3) 0.2967(3)
H12 H -0.9621 0.2018 0.3008
C16 C -0.8266(5) 0.2858(3) 0.3509(3)
H13 H -0.9079 0.3094 0.3919
C17 C -0.6733(5) 0.3156(3) 0.3443(3)
H14 H -0.6513 0.3591 0.3810
C18 C -0.5532(5) 0.2809(3) 0.2834(3)
H15 H -0.4504 0.3016 0.2789
C19 C -0.2946(4) 0.0785(3) 0.2549(3)
C20 C -0.3372(5) 0.0493(3) 0.3662(3)
H16 H -0.4364 0.0724 0.3906
C21 C -0.2319(5) -0.0140(4) 0.4405(3)
H17 H -0.2626 -0.0348 0.5145
C22 C -0.0823(5) -0.0466(4) 0.4060(3)
H18 H -0.0120 -0.0881 0.4564
C23 C -0.0384(5) -0.0173(3) 0.2972(3)
H19 H 0.0623 -0.0388 0.2734
C24 C -0.1439(5) 0.0448(3) 0.2217(3)
H20 H -0.1128 0.0639 0.1479
C25 C -0.3025(4) 0.2822(3) 0.0788(3)
C26 C -0.3560(5) 0.3698(3) -0.1136(3)
C27 C -0.4137(4) 0.4769(3) 0.0056(3)
H21 H -0.3447 0.5274 -0.0509
H22 H -0.3837 0.4710 0.0752
N1A N -0.6092(4) 0.6314(2) 0.0027(2)
C1A C -0.3249(5) 0.6387(3) 0.1467(3)
Cu1A Cu -0.50926(5) 0.88771(4) -0.01643(4)
Cu1A_2 Cu -0.50926(5) -0.11229(4) -0.01643(4)
P1A P -0.50972(12) 0.72577(8) 0.12937(7)
P1A_2 P -0.50972(12) -0.27423(8) 0.12937(7)
I1A I -0.75216(3) 0.01194(2) 0.03087(2)
C2A C -0.2078(4) 0.6613(3) 0.0600(3)
H1A H -0.2219 0.7232 -0.0027
P2A P -0.57316(11) 0.83877(8) -0.15167(7)
P2A_2 P -0.57316(11) -0.16123(8) -0.15167(7)
C3A C -0.0710(5) 0.5941(3) 0.0645(3)
H2A H 0.0055 0.6098 0.0053
C4A C -0.0494(5) 0.5031(3) 0.1582(4)
H3A H 0.0417 0.4568 0.1620
C5A C -0.1620(5) 0.4809(3) 0.2455(3)
H4A H -0.1456 0.4201 0.3087
C6A C -0.2990(5) 0.5473(3) 0.2409(3)
H5A H -0.3744 0.5312 0.3008
C7A C -0.5761(5) 0.7255(3) 0.2650(3)
C8A C -0.6643(5) 0.6441(4) 0.3440(3)
H6A H -0.6913 0.5848 0.3296
C9A C -0.7129(6) 0.6509(4) 0.4450(3)
H7A H -0.7722 0.5964 0.4979
C10A C -0.6716(7) 0.7403(4) 0.4661(4)
H8A H -0.7055 0.7461 0.5327
C11A C -0.5817(7) 0.8191(4) 0.3893(4)
H9A H -0.5521 0.8772 0.4048
C12A C -0.5338(6) 0.8134(4) 0.2877(3)
H10A H -0.4740 0.8680 0.2354
C13A C -0.4162(4) 0.7850(3) -0.2281(3)
C14A C -0.2616(5) 0.8149(3) -0.2363(3)
H11A H -0.2389 0.8595 -0.2010
C15A C -0.1413(5) 0.7787(3) -0.2967(3)
H12A H -0.0379 0.7982 -0.3008
C16A C -0.1734(5) 0.7142(3) -0.3509(3)
H13A H -0.0921 0.6906 -0.3919
C17A C -0.3267(5) 0.6844(3) -0.3443(3)
H14A H -0.3487 0.6409 -0.3810
C18A C -0.4468(5) 0.7191(3) -0.2834(3)
H15A H -0.5496 0.6984 -0.2789
C19A C -0.7054(4) 0.9215(3) -0.2549(3)
C20A C -0.6628(5) 0.9507(3) -0.3662(3)
H16A H -0.5636 0.9276 -0.3906
C21A C -0.7681(5) 1.0140(4) -0.4405(3)
H17A H -0.7374 1.0348 -0.5145
C22A C -0.9177(5) 1.0466(4) -0.4060(3)
H18A H -0.9880 1.0881 -0.4564
C23A C -0.9616(5) 1.0173(3) -0.2972(3)
H19A H -1.0623 1.0388 -0.2734
C24A C -0.8561(5) 0.9552(3) -0.2217(3)
H20A H -0.8872 0.9361 -0.1479
C25A C -0.6975(4) 0.7178(3) -0.0788(3)
C26A C -0.6440(5) 0.6302(3) 0.1136(3)
C27A C -0.5863(4) 0.5231(3) -0.0056(3)
H21A H -0.6553 0.4726 0.0509
H22A H -0.6163 0.5290 -0.0752
N2 N -0.8446(10) 0.3823(7) -0.4514(5)
C28 C -0.8867(9) 0.3274(6) -0.3681(7)
C29 C -0.9410(8) 0.2542(5) -0.2575(5)
H23 H -0.8620 0.1954 -0.2310
H24 H -1.0389 0.2243 -0.2586
H25 H -0.9576 0.2951 -0.2108
loop_
_geom_bond_atom_site_label_1
_geom_bond_atom_site_label_2
_geom_bond_site_symmetry_1
_geom_bond_site_symmetry_2
N1 C25 1_555 1_555
C1 P1 1_555 1_555
Cu1 P1 1_555 1_555
P1 C7 1_555 1_555
I1 Cu1 1_555 1_555
C2 C1 1_555 1_555
H1 C2 1_555 1_555
P2 Cu1 1_555 1_555
N2 C28 1_555 1_555
C3 C2 1_555 1_555
H2 C3 1_555 1_555
C4 C3 1_555 1_555
H3 C4 1_555 1_555
C5 C4 1_555 1_555
H4 C5 1_555 1_555
C6 C1 1_555 1_555
H5 C6 1_555 1_555
C7 C8 1_555 1_555
C8 H6 1_555 1_555
C9 C8 1_555 1_555
H7 C9 1_555 1_555
C10 C9 1_555 1_555
H8 C10 1_555 1_555
C11 C10 1_555 1_555
H9 C11 1_555 1_555
C12 C7 1_555 1_555
H10 C12 1_555 1_555
C13 P2 1_555 1_555
C14 C13 1_555 1_555
H11 C14 1_555 1_555
C15 C14 1_555 1_555
H12 C15 1_555 1_555
C16 C15 1_555 1_555
H13 C16 1_555 1_555
C17 C16 1_555 1_555
H14 C17 1_555 1_555
C18 C13 1_555 1_555
H15 C18 1_555 1_555
C19 P2 1_555 1_555
C20 C19 1_555 1_555
H16 C20 1_555 1_555
C21 C20 1_555 1_555
H17 C21 1_555 1_555
C22 C21 1_555 1_555
H18 C22 1_555 1_555
C23 C22 1_555 1_555
H19 C23 1_555 1_555
C24 C19 1_555 1_555
H20 C24 1_555 1_555
C25 P2 1_555 1_555
C26 N1 1_555 1_555
C27 N1 1_555 1_555
H21 C27 1_555 1_555
H22 C27 1_555 1_555
C28 C29 1_555 1_555
C29 H23 1_555 1_555
H24 C29 1_555 1_555
H25 C29 1_555 1_555
N1A C25A 1_555 1_555
C1A P1A 1_555 1_555
Cu1A P1A 1_555 1_555
Cu1A_2 I1 1_555 1_555
P1A C7A 1_555 1_555
P1A_2 Cu1A_2 1_555 1_555
I1A Cu1 1_555 1_555
C2A C1A 1_555 1_555
H1A C2A 1_555 1_555
P2A Cu1A 1_555 1_555
P2A_2 Cu1A_2 1_555 1_555
C3A C2A 1_555 1_555
H2A C3A 1_555 1_555
C4A C3A 1_555 1_555
H3A C4A 1_555 1_555
C5A C4A 1_555 1_555
H4A C5A 1_555 1_555
C6A C1A 1_555 1_555
H5A C6A 1_555 1_555
C7A C8A 1_555 1_555
C8A H6A 1_555 1_555
C9A C8A 1_555 1_555
H7A C9A 1_555 1_555
C10A C9A 1_555 1_555
H8A C10A 1_555 1_555
C11A C10A 1_555 1_555
H9A C11A 1_555 1_555
C12A C7A 1_555 1_555
H10A C12A 1_555 1_555
C13A P2A 1_555 1_555
C14A C13A 1_555 1_555
H11A C14A 1_555 1_555
C15A C14A 1_555 1_555
H12A C15A 1_555 1_555
C16A C15A 1_555 1_555
H13A C16A 1_555 1_555
C17A C16A 1_555 1_555
H14A C17A 1_555 1_555
C18A C13A 1_555 1_555
H15A C18A 1_555 1_555
C19A P2A 1_555 1_555
C20A C19A 1_555 1_555
H16A C20A 1_555 1_555
C21A C20A 1_555 1_555
H17A C21A 1_555 1_555
C22A C21A 1_555 1_555
H18A C22A 1_555 1_555
C23A C22A 1_555 1_555
H19A C23A 1_555 1_555
C24A C19A 1_555 1_555
H20A C24A 1_555 1_555
C25A P2A 1_555 1_555
C26A N1A 1_555 1_555
C27A C27 1_555 1_555
H21A C27A 1_555 1_555
H22A C27A 1_555 1_555
P1 C26 1_555 1_555
C5 C6 1_555 1_555
C11 C12 1_555 1_555
C17 C18 1_555 1_555
C23 C24 1_555 1_555
N1A C27A 1_555 1_555
Cu1A_2 I1A 1_555 1_555
P1A C26A 1_555 1_555
C5A C6A 1_555 1_555
C11A C12A 1_555 1_555
C17A C18A 1_555 1_555
C23A C24A 1_555 1_555

#END
