
#######################################################################
#
#                 Cambridge Crystallographic Data Centre
#                                CCDC 
#
#######################################################################
#
# If this CIF has been generated from an entry in the Cambridge 
# Structural Database, then it will include bibliographic, chemical, 
# crystal, experimental, refinement or atomic coordinate data resulting 
# from the CCDC's data processing and validation procedures.
#
#######################################################################

data_MUHSEN03
_symmetry_cell_setting           monoclinic
_symmetry_space_group_name_H-M   'P 21/m'
_symmetry_Int_Tables_number      11
_space_group_name_Hall           '-P 2yb'
loop_
_symmetry_equiv_pos_site_id
_symmetry_equiv_pos_as_xyz
1 x,y,z
2 -x,1/2+y,-z
3 -x,-y,-z
4 x,1/2-y,z
_cell_length_a                   9.8024(7)
_cell_length_b                   6.5184(4)
_cell_length_c                   19.8144(13)
_cell_angle_alpha                90
_cell_angle_beta                 100.650(2)
_cell_angle_gamma                90
_cell_volume                     1244.25
loop_
_atom_site_label
_atom_site_type_symbol
_atom_site_fract_x
_atom_site_fract_y
_atom_site_fract_z
V1 V 0.54868(4) 0.2500 0.36814(2)
O1 O 0.4115(2) 0.2500 0.40075(12)
N1 N 0.6806(2) 0.2500 0.46998(11)
C1 C 0.8207(3) 0.2500 0.47340(13)
V2 V 0.37288(4) 0.2500 0.19748(2)
O2 O 0.4930(2) 0.2500 0.27640(10)
N2 N 0.7754(2) 0.2500 0.35150(11)
C2 C 0.9152(3) 0.2500 0.53598(14)
V3 V 0.43421(4) 0.7500 0.15829(2)
O3 O 0.58259(14) 0.5347(2) 0.37348(7)
N3 N 0.1972(2) 0.7500 0.15286(11)
C3 C 0.8595(3) 0.2500 0.59677(15)
H1 H 0.9194 0.2500 0.6403
V4 V 0.60000(4) 0.7500 0.32423(2)
O4 O 0.2165(2) 0.2500 0.21176(12)
N4 N 0.3372(2) 0.7500 0.04937(11)
C4 C 0.7191(4) 0.2500 0.59265(16)
H2 H 0.6806 0.2500 0.6333
O5 O 0.40120(14) 0.4650(2) 0.15021(7)
C5 C 0.6326(3) 0.2500 0.52838(15)
H3 H 0.5350 0.2500 0.5263
O6 O 0.5838(2) 0.7500 0.13736(12)
C6 C 0.8713(3) 0.2500 0.40999(13)
O7 O 0.4631(2) 0.7500 0.25048(10)
C7 C 1.0156(3) 0.2500 0.41117(15)
O8 O 0.7481(2) 0.7500 0.30000(11)
C8 C 1.1095(3) 0.2500 0.47576(16)
H4 H 1.2068 0.2500 0.4768
C9 C 1.0607(3) 0.2500 0.53535(15)
H5 H 1.1246 0.2500 0.5777
C10 C 0.8201(3) 0.2500 0.29229(15)
H6 H 0.7536 0.2500 0.2508
C11 C 0.9611(3) 0.2500 0.28844(16)
H7 H 0.9889 0.2500 0.2450
C12 C 1.0582(3) 0.2500 0.34702(17)
H8 H 1.1542 0.2500 0.3448
C13 C 0.1304(3) 0.7500 0.20516(16)
H9 H 0.1831 0.7500 0.2505
C14 C -0.0147(3) 0.7500 0.19643(19)
H10 H -0.0591 0.7500 0.2352
C15 C -0.0912(3) 0.7500 0.1317(2)
H11 H -0.1897 0.7500 0.1250
C16 C -0.0242(3) 0.7500 0.07469(17)
C17 C 0.1217(3) 0.7500 0.08863(14)
C18 C -0.0949(3) 0.7500 0.00422(19)
H12 H -0.1935 0.7500 -0.0056
C19 C -0.0250(3) 0.7500 -0.04805(18)
H13 H -0.0749 0.7500 -0.0940
C20 C 0.1246(3) 0.7500 -0.03545(15)
C21 C 0.1964(3) 0.7500 0.03284(14)
C22 C 0.2039(4) 0.7500 -0.08722(17)
H14 H 0.1593 0.7500 -0.1341
C23 C 0.3459(4) 0.7500 -0.07066(17)
H15 H 0.4003 0.7500 -0.1057
C24 C 0.4092(3) 0.7500 -0.00165(16)
H16 H 0.5077 0.7500 0.0096
V3_2 V 0.43421(4) -0.2500 0.15829(2)
O3C O 0.58259(14) -0.0347(2) 0.37348(7)
O3C_2 O 0.58259(14) 0.9653(2) 0.37348(7)
V4_2 V 0.60000(4) -0.2500 0.32423(2)
O5C O 0.40120(14) 0.0350(2) 0.15021(7)
O5C_2 O 0.40120(14) 1.0350(2) 0.15021(7)
loop_
_geom_bond_atom_site_label_1
_geom_bond_atom_site_label_2
_geom_bond_site_symmetry_1
_geom_bond_site_symmetry_2
V1 O1 1_555 1_555
N1 V1 1_555 1_555
C1 N1 1_555 1_555
V2 O2 1_555 1_555
O2 V1 1_555 1_555
N2 V1 1_555 1_555
C2 C1 1_555 1_555
V3 N3 1_555 1_555
O3 V1 1_555 1_555
N3 C13 1_555 1_555
C3 C2 1_555 1_555
H1 C3 1_555 1_555
V4 O3 1_555 1_555
O4 V2 1_555 1_555
N4 V3 1_555 1_555
C4 C3 1_555 1_555
H2 C4 1_555 1_555
O5 V2 1_555 1_555
C5 N1 1_555 1_555
H3 C5 1_555 1_555
O6 V3 1_555 1_555
C6 C1 1_555 1_555
O7 V3 1_555 1_555
C7 C6 1_555 1_555
O8 V4 1_555 1_555
C8 C7 1_555 1_555
H4 C8 1_555 1_555
C9 C2 1_555 1_555
H5 C9 1_555 1_555
C10 N2 1_555 1_555
H6 C10 1_555 1_555
C11 C10 1_555 1_555
H7 C11 1_555 1_555
C12 C7 1_555 1_555
H8 C12 1_555 1_555
C13 H9 1_555 1_555
C14 C13 1_555 1_555
H10 C14 1_555 1_555
C15 C14 1_555 1_555
H11 C15 1_555 1_555
C16 C15 1_555 1_555
C17 N3 1_555 1_555
C18 C16 1_555 1_555
H12 C18 1_555 1_555
C19 C18 1_555 1_555
H13 C19 1_555 1_555
C20 C19 1_555 1_555
C21 N4 1_555 1_555
C22 C20 1_555 1_555
H14 C22 1_555 1_555
C23 C22 1_555 1_555
H15 C23 1_555 1_555
C24 N4 1_555 1_555
H16 C24 1_555 1_555
V3_2 O5C 1_555 1_555
O3C V1 1_555 1_555
O3C_2 V4 1_555 1_555
V4_2 O3C 1_555 1_555
O5C V2 1_555 1_555
O5C_2 V3 1_555 1_555
N2 C6 1_555 1_555
V3 O5 1_555 1_555
V4 O7 1_555 1_555
C4 C5 1_555 1_555
C8 C9 1_555 1_555
C11 C12 1_555 1_555
C16 C17 1_555 1_555
C17 C21 1_555 1_555
C20 C21 1_555 1_555
C23 C24 1_555 1_555

#END
