
#######################################################################
#
#                 Cambridge Crystallographic Data Centre
#                                CCDC 
#
#######################################################################
#
# If this CIF has been generated from an entry in the Cambridge 
# Structural Database, then it will include bibliographic, chemical, 
# crystal, experimental, refinement or atomic coordinate data resulting 
# from the CCDC's data processing and validation procedures.
#
#######################################################################

data_MUHSOY
_symmetry_cell_setting           monoclinic
_symmetry_space_group_name_H-M   'P 21'
_symmetry_Int_Tables_number      4
_space_group_name_Hall           'P 2yb'
loop_
_symmetry_equiv_pos_site_id
_symmetry_equiv_pos_as_xyz
1 x,y,z
2 -x,1/2+y,-z
_cell_length_a                   10.9026(13)
_cell_length_b                   8.6234(10)
_cell_length_c                   15.3722(18)
_cell_angle_alpha                90
_cell_angle_beta                 99.968(2)
_cell_angle_gamma                90
_cell_volume                     1423.44
loop_
_atom_site_label
_atom_site_type_symbol
_atom_site_fract_x
_atom_site_fract_y
_atom_site_fract_z
Ag1 Ag 0.90101(3) 0.94206(4) 0.88814(2)
Co1 Co 0.82114(5) 0.55693(6) 0.69588(4)
P1 P 0.70709(9) 0.86320(11) 0.80168(6)
N1 N 0.9044(5) 1.2310(6) 1.0050(3)
O1 O 1.0132(4) 1.0110(6) 0.7602(3)
O2 O 0.8103(7) 1.1602(11) 0.9798(6)
O3 O 0.9968(6) 1.1868(9) 0.9818(3)
O4 O 0.9039(4) 1.3407(7) 1.0534(4)
C1 C 0.8099(5) 0.7754(5) 0.6487(3)
H1 H 0.8736 0.8486 0.6577
C2 C 0.7853(6) 0.6666(7) 0.5774(3)
H2 H 0.8297 0.6575 0.5312
C3 C 0.6820(5) 0.5758(7) 0.5893(3)
H3 H 0.6472 0.4958 0.5526
C4 C 0.6409(4) 0.6266(5) 0.6661(3)
H4 H 0.5738 0.5859 0.6886
C5 C 0.7183(4) 0.7505(4) 0.7038(2)
C6 C 0.9985(5) 0.5075(9) 0.7436(6)
H5 H 1.0664 0.5712 0.7402
C7 C 0.9498(7) 0.3973(8) 0.6824(5)
H6 H 0.9782 0.3755 0.6300
C8 C 0.8548(7) 0.3266(7) 0.7109(5)
H7 H 0.8070 0.2469 0.6817
C9 C 0.8390(6) 0.3908(7) 0.7904(4)
H8 H 0.7793 0.3612 0.8236
C10 C 0.9274(7) 0.5073(7) 0.8128(4)
H9 H 0.9377 0.5710 0.8624
C11 C 0.6094(4) 1.0244(4) 0.7559(3)
C12 C 0.5797(5) 1.1319(6) 0.8139(4)
H10 H 0.6090 1.1204 0.8741
C13 C 0.5050(5) 1.2602(6) 0.7831(5)
H11 H 0.4839 1.3325 0.8229
C14 C 0.4634(5) 1.2783(6) 0.6944(5)
H12 H 0.4127 1.3620 0.6739
C15 C 0.4960(6) 1.1751(8) 0.6371(5)
H13 H 0.4694 1.1899 0.5769
C16 C 0.5699(5) 1.0443(6) 0.6664(3)
H14 H 0.5915 0.9731 0.6262
C17 C 0.6051(4) 0.7459(5) 0.8577(3)
C18 C 0.6582(6) 0.6543(7) 0.9287(3)
H15 H 0.7438 0.6557 0.9483
C19 C 0.5819(7) 0.5604(10) 0.9704(3)
H16 H 0.6177 0.4976 1.0171
C20 C 0.4572(6) 0.5588(8) 0.9443(4)
H17 H 0.4077 0.4951 0.9726
C21 C 0.4032(5) 0.6536(8) 0.8744(5)
H18 H 0.3171 0.6551 0.8574
C22 C 0.4764(5) 0.7450(6) 0.8303(4)
H19 H 0.4400 0.8056 0.7827
C23 C 1.1876(8) 1.1482(17) 0.8240(6)
H20 H 1.1341 1.1983 0.8589
H21 H 1.2376 1.2247 0.8012
H22 H 1.2407 1.0759 0.8601
C24 C 1.1103(5) 1.0639(8) 0.7491(4)
C25 C 1.1486(8) 1.0671(12) 0.6623(5)
H23 H 1.2036 0.9817 0.6577
H24 H 1.1909 1.1629 0.6555
H25 H 1.0764 1.0589 0.6169
Ag1A Ag 1.09899(3) 1.44206(4) 1.11186(2)
O4A O 1.0961(4) 0.8407(7) 0.9466(4)
P2 P 0.77094(15) 0.12616(19) 0.44568(10)
F1 F 0.8037(8) 0.1022(9) 0.5489(4)
F2 F 0.7309(9) 0.1401(13) 0.3472(3)
F3 F 0.7294(9) 0.2904(7) 0.4653(6)
F4 F 0.8159(7) -0.0411(7) 0.4293(6)
F5 F 0.6418(6) 0.0502(11) 0.4536(5)
F6 F 0.9008(6) 0.1917(8) 0.4417(6)
loop_
_geom_bond_atom_site_label_1
_geom_bond_atom_site_label_2
_geom_bond_site_symmetry_1
_geom_bond_site_symmetry_2
Ag1 P1 1_555 1_555
Co1 C1 1_555 1_555
P1 C5 1_555 1_555
N1 O2 1_555 1_555
O1 Ag1 1_555 1_555
O2 Ag1 1_555 1_555
O3 Ag1 1_555 1_555
O4 N1 1_555 1_555
C1 H1 1_555 1_555
C2 Co1 1_555 1_555
H2 C2 1_555 1_555
C3 Co1 1_555 1_555
H3 C3 1_555 1_555
C4 Co1 1_555 1_555
H4 C4 1_555 1_555
C5 Co1 1_555 1_555
C6 Co1 1_555 1_555
H5 C6 1_555 1_555
C7 Co1 1_555 1_555
H6 C7 1_555 1_555
C8 Co1 1_555 1_555
H7 C8 1_555 1_555
C9 Co1 1_555 1_555
H8 C9 1_555 1_555
C10 Co1 1_555 1_555
H9 C10 1_555 1_555
C11 P1 1_555 1_555
C12 C11 1_555 1_555
H10 C12 1_555 1_555
C13 C12 1_555 1_555
H11 C13 1_555 1_555
C14 C13 1_555 1_555
H12 C14 1_555 1_555
C15 C14 1_555 1_555
H13 C15 1_555 1_555
C16 C11 1_555 1_555
H14 C16 1_555 1_555
C17 P1 1_555 1_555
C18 C17 1_555 1_555
H15 C18 1_555 1_555
C19 C18 1_555 1_555
H16 C19 1_555 1_555
C20 C19 1_555 1_555
H17 C20 1_555 1_555
C21 C20 1_555 1_555
H18 C21 1_555 1_555
C22 C17 1_555 1_555
H19 C22 1_555 1_555
C23 H20 1_555 1_555
H21 C23 1_555 1_555
H22 C23 1_555 1_555
C24 O1 1_555 1_555
C25 C24 1_555 1_555
H23 C25 1_555 1_555
H24 C25 1_555 1_555
H25 C25 1_555 1_555
P2 F1 1_555 1_555
F2 P2 1_555 1_555
F3 P2 1_555 1_555
F4 P2 1_555 1_555
F5 P2 1_555 1_555
F6 P2 1_555 1_555
Ag1A O4 1_555 1_555
O4A Ag1 1_555 1_555
N1 O3 1_555 1_555
C1 C2 1_555 1_555
C1 C5 1_555 1_555
C2 C3 1_555 1_555
C3 C4 1_555 1_555
C4 C5 1_555 1_555
C6 C7 1_555 1_555
C6 C10 1_555 1_555
C7 C8 1_555 1_555
C8 C9 1_555 1_555
C9 C10 1_555 1_555
C15 C16 1_555 1_555
C21 C22 1_555 1_555
C23 C24 1_555 1_555

#END
