
#######################################################################
#
#                 Cambridge Crystallographic Data Centre
#                                CCDC 
#
#######################################################################
#
# If this CIF has been generated from an entry in the Cambridge 
# Structural Database, then it will include bibliographic, chemical, 
# crystal, experimental, refinement or atomic coordinate data resulting 
# from the CCDC's data processing and validation procedures.
#
#######################################################################

data_MUHSEN02
_symmetry_cell_setting           monoclinic
_symmetry_space_group_name_H-M   'P 21/m'
_symmetry_Int_Tables_number      11
_space_group_name_Hall           '-P 2yb'
loop_
_symmetry_equiv_pos_site_id
_symmetry_equiv_pos_as_xyz
1 x,y,z
2 -x,1/2+y,-z
3 -x,-y,-z
4 x,1/2-y,z
_cell_length_a                   9.782
_cell_length_b                   6.512
_cell_length_c                   19.765
_cell_angle_alpha                90
_cell_angle_beta                 100.66
_cell_angle_gamma                90
_cell_volume                     1237.31
loop_
_atom_site_label
_atom_site_type_symbol
_atom_site_fract_x
_atom_site_fract_y
_atom_site_fract_z
V1 V 0.5487 0.7500 0.3681
V2 V 0.3729 0.7500 0.1973
O1 O 0.2167 0.7500 0.2118
O2 O 0.4926 0.7500 0.2763
O3 O 0.4116 0.7500 0.4006
O4 O 0.5825 0.4649 0.3734
N1 N 0.6806 0.7500 0.4697
N2 N 0.7752 0.7500 0.3515
C1 C 0.8210 0.7500 0.4735
C2 C 0.6319 0.7500 0.5283
C3 C 0.7198 0.7500 0.5922
C4 C 0.8591 0.7500 0.5964
C5 C 0.9153 0.7500 0.5360
C6 C 1.0606 0.7500 0.5355
C7 C 1.1089 0.7500 0.4757
C8 C 1.0152 0.7500 0.4110
C9 C 1.0582 0.7500 0.3467
C10 C 0.9609 0.7500 0.2882
C11 C 0.8197 0.7500 0.2925
C12 C 0.8716 0.7500 0.4100
V3 V 0.4341 0.2500 0.1582
V4 V 0.5999 0.2500 0.3241
O5 O 0.7481 0.2500 0.3001
O6 O 0.4632 0.2500 0.2506
O7 O 0.5834 0.2500 0.1374
O8 O 0.4013 0.5351 0.1502
N3 N 0.3368 0.2500 0.0492
N4 N 0.1975 0.2500 0.1530
C13 C 0.1962 0.2500 0.0329
C14 C 0.4086 0.2500 -0.0016
C15 C 0.3448 0.2500 -0.0707
C16 C 0.2030 0.2500 -0.0871
C17 C 0.1250 0.2500 -0.0356
C18 C -0.0241 0.2500 -0.0475
C19 C -0.0946 0.2500 0.0045
C20 C -0.0245 0.2500 0.0748
C21 C -0.0909 0.2500 0.1313
C22 C -0.0145 0.2500 0.1965
C23 C 0.1305 0.2500 0.2050
C24 C 0.1218 0.2500 0.0886
O4C O 0.5825 1.0351 0.3734
O8C O 0.4013 0.9649 0.1502
O8C_2 O 0.4013 -0.0351 0.1502
O4C_2 O 0.5825 0.0351 0.3734
V4_2 V 0.5999 1.2500 0.3241
V3_2 V 0.4341 1.2500 0.1582
loop_
_geom_bond_atom_site_label_1
_geom_bond_atom_site_label_2
_geom_bond_site_symmetry_1
_geom_bond_site_symmetry_2
V1 O2 1_555 1_555
V2 O1 1_555 1_555
O2 V2 1_555 1_555
O3 V1 1_555 1_555
O4 V1 1_555 1_555
N1 V1 1_555 1_555
N2 V1 1_555 1_555
C1 N1 1_555 1_555
C2 N1 1_555 1_555
C3 C2 1_555 1_555
C4 C3 1_555 1_555
C5 C1 1_555 1_555
C6 C5 1_555 1_555
C7 C6 1_555 1_555
C8 C7 1_555 1_555
C9 C8 1_555 1_555
C10 C9 1_555 1_555
C11 N2 1_555 1_555
C12 N2 1_555 1_555
V3 O6 1_555 1_555
V4 O4 1_555 1_555
O5 V4 1_555 1_555
O6 V4 1_555 1_555
O7 V3 1_555 1_555
O8 V2 1_555 1_555
N3 V3 1_555 1_555
N4 V3 1_555 1_555
C13 N3 1_555 1_555
C14 N3 1_555 1_555
C15 C14 1_555 1_555
C16 C15 1_555 1_555
C17 C13 1_555 1_555
C18 C17 1_555 1_555
C19 C18 1_555 1_555
C20 C19 1_555 1_555
C21 C20 1_555 1_555
C22 C21 1_555 1_555
C23 N4 1_555 1_555
C24 N4 1_555 1_555
O4C V1 1_555 1_555
O8C V2 1_555 1_555
O8C_2 V3 1_555 1_555
O4C_2 V4 1_555 1_555
V4_2 O4C 1_555 1_555
V3_2 O8C 1_555 1_555
C1 C12 1_555 1_555
C4 C5 1_555 1_555
C8 C12 1_555 1_555
C10 C11 1_555 1_555
V3 O8 1_555 1_555
C13 C24 1_555 1_555
C16 C17 1_555 1_555
C20 C24 1_555 1_555
C22 C23 1_555 1_555

#END
