
#######################################################################
#
#                 Cambridge Crystallographic Data Centre
#                                CCDC 
#
#######################################################################
#
# If this CIF has been generated from an entry in the Cambridge 
# Structural Database, then it will include bibliographic, chemical, 
# crystal, experimental, refinement or atomic coordinate data resulting 
# from the CCDC's data processing and validation procedures.
#
#######################################################################

data_MUHVOB01
_symmetry_cell_setting           monoclinic
_symmetry_space_group_name_H-M   'P 21/c'
_symmetry_Int_Tables_number      14
_space_group_name_Hall           '-P 2ybc'
loop_
_symmetry_equiv_pos_site_id
_symmetry_equiv_pos_as_xyz
1 x,y,z
2 -x,1/2+y,1/2-z
3 -x,-y,-z
4 x,1/2-y,1/2+z
_cell_length_a                   12.263(16)
_cell_length_b                   24.96(3)
_cell_length_c                   6.987(9)
_cell_angle_alpha                90
_cell_angle_beta                 96.676(19)
_cell_angle_gamma                90
_cell_volume                     2124.11
loop_
_atom_site_label
_atom_site_type_symbol
_atom_site_fract_x
_atom_site_fract_y
_atom_site_fract_z
Pb1 Pb 1.21123(2) 0.304857(10) 0.64456(4)
N1 N 1.1271(5) 0.3889(3) 0.8003(9)
O1 O 1.0864(4) 0.24222(19) 0.4280(7)
O2 O 1.0470(4) 0.32792(19) 0.4436(7)
O3 O 0.6853(5) -0.2080(2) -0.8529(8)
O4 O 0.7212(4) -0.1253(2) -0.9295(8)
O5 O 0.6283(5) -0.0164(2) -0.3766(8)
O6 O 0.7429(6) 0.0589(3) -0.0951(11)
O7 O 0.7333(4) 0.1537(2) 0.1436(7)
C1 C 1.0204(6) 0.2802(3) 0.3896(10)
C2 C 0.9093(5) 0.2693(3) 0.2889(9)
C3 C 0.8359(6) 0.3107(3) 0.2327(10)
H1 H 0.8568 0.3463 0.2529
C4 C 0.7323(6) 0.2982(3) 0.1469(10)
H2 H 0.6834 0.3256 0.1076
C5 C 0.7002(6) 0.2460(3) 0.1187(10)
H3 H 0.6296 0.2381 0.0621
C6 C 0.7724(6) 0.2052(3) 0.1739(10)
C7 C 0.8766(5) 0.2161(3) 0.2607(9)
H4 H 0.9246 0.1883 0.3000
C8 C 0.8094(6) 0.1108(3) 0.1856(12)
H5 H 0.8299 0.1081 0.3236
H6 H 0.8753 0.1172 0.1244
C9 C 0.7544(8) 0.0597(4) 0.1095(16)
H7 H 0.7978 0.0292 0.1589
H8 H 0.6826 0.0569 0.1540
C10 C 0.6812(6) -0.1589(3) -0.8222(11)
C11 C 0.6301(6) -0.1394(3) -0.6508(11)
C12 C 0.5736(6) -0.1743(3) -0.5453(12)
H9 H 0.5652 -0.2100 -0.5828
C13 C 0.5291(6) -0.1562(3) -0.3828(12)
H10 H 0.4885 -0.1794 -0.3146
C14 C 0.5450(6) -0.1042(3) -0.3231(11)
H11 H 0.5153 -0.0924 -0.2141
H12 H 0.6812 -0.0641 -0.6638
C15 C 0.6049(6) -0.0692(3) -0.4236(12)
C16 C 0.6442(6) -0.0879(3) -0.5913(11)
C17 C 0.5885(8) 0.0050(4) -0.2104(13)
H13 H 0.6107 -0.0175 -0.0997
H14 H 0.5089 0.0066 -0.2291
C18 C 0.6342(9) 0.0594(4) -0.1773(14)
H15 H 0.6292 0.0783 -0.2992
H16 H 0.5904 0.0788 -0.0932
C19 C 1.0910(6) 0.3860(3) 0.9717(11)
H17 H 1.0997 0.3538 1.0390
C20 C 1.0411(6) 0.4282(3) 1.0557(11)
H18 H 1.0164 0.4240 1.1757
C21 C 1.0680(7) 0.4793(3) 0.7828(13)
H19 H 1.0612 0.5111 0.7130
C22 C 1.1173(7) 0.4362(3) 0.7086(12)
H20 H 1.1449 0.4398 0.5907
C23 C 1.0282(6) 0.4768(3) 0.9593(11)
Pb1B Pb 0.78877(2) 0.695143(10) 1.35544(4)
Pb1A Pb 0.78877(2) -0.195143(10) -1.14456(4)
Pb1A_2 Pb 0.78877(2) 0.804857(10) -1.14456(4)
N1B N 0.8729(5) 0.6111(3) 1.1997(9)
O1A O 0.9136(4) 0.74222(19) -0.9280(7)
O1B O 0.9136(4) 0.75778(19) 1.5720(7)
O2A O 0.9530(4) 0.82792(19) -0.9436(7)
O2B O 0.9530(4) 0.67208(19) 1.5564(7)
O3A O 1.3147(5) 0.2920(2) 0.3529(8)
O3C O 0.6853(5) 0.7080(2) 1.6471(8)
O4A O 1.2788(4) 0.3747(2) 0.4295(8)
O4C O 0.7212(4) 0.6253(2) 1.5705(8)
O5A O 1.3717(5) 0.4836(2) -0.1234(8)
O6A O 1.2571(6) 0.5589(3) -0.4049(11)
O7A O 1.2667(4) 0.6537(2) -0.6436(7)
C1A C 0.9796(6) 0.7802(3) -0.8896(10)
C2A C 1.0907(5) 0.7693(3) -0.7889(9)
C3A C 1.1641(6) 0.8107(3) -0.7327(10)
H1A H 1.1432 0.8463 -0.7529
C4A C 1.2677(6) 0.7982(3) -0.6469(10)
H2A H 1.3166 0.8256 -0.6076
C5A C 1.2998(6) 0.7460(3) -0.6187(10)
H3A H 1.3704 0.7381 -0.5621
C6A C 1.2276(6) 0.7052(3) -0.6739(10)
C7A C 1.1234(5) 0.7161(3) -0.7607(9)
H4A H 1.0754 0.6883 -0.8000
C8A C 1.1906(6) 0.6108(3) -0.6856(12)
H5A H 1.1701 0.6081 -0.8236
H6A H 1.1247 0.6172 -0.6244
C9A C 1.2456(8) 0.5597(4) -0.6095(16)
H7A H 1.2022 0.5292 -0.6589
H8A H 1.3174 0.5569 -0.6540
C10A C 1.3188(6) 0.3411(3) 0.3222(11)
C11A C 1.3699(6) 0.3606(3) 0.1508(11)
C12A C 1.4264(6) 0.3257(3) 0.0453(12)
H9A H 1.4348 0.2900 0.0828
C13A C 1.4709(6) 0.3438(3) -0.1172(12)
H10A H 1.5115 0.3206 -0.1854
C14A C 1.4550(6) 0.3958(3) -0.1769(11)
H11A H 1.4847 0.4076 -0.2859
H12A H 1.3188 0.4359 0.1638
C15A C 1.3951(6) 0.4308(3) -0.0764(12)
C16A C 1.3558(6) 0.4121(3) 0.0913(11)
C17A C 1.4115(8) 0.5050(4) -0.2896(13)
H13A H 1.3893 0.4825 -0.4003
H14A H 1.4911 0.5066 -0.2709
C18A C 1.3658(9) 0.5594(4) -0.3227(14)
H15A H 1.3708 0.5783 -0.2008
H16A H 1.4096 0.5788 -0.4068
C19B C 0.9090(6) 0.6140(3) 1.0283(11)
H17B H 0.9003 0.6462 0.9610
C20B C 0.9589(6) 0.5718(3) 0.9443(11)
H18B H 0.9836 0.5760 0.8243
C21B C 0.9320(7) 0.5207(3) 1.2172(13)
H19B H 0.9388 0.4889 1.2870
C22B C 0.8827(7) 0.5638(3) 1.2914(12)
H20B H 0.8551 0.5602 1.4093
C23B C 0.9718(6) 0.5232(3) 1.0407(11)
loop_
_geom_bond_atom_site_label_1
_geom_bond_atom_site_label_2
_geom_bond_site_symmetry_1
_geom_bond_site_symmetry_2
Pb1 N1 1_555 1_555
N1 C19 1_555 1_555
O1 Pb1 1_555 1_555
O2 Pb1 1_555 1_555
O3 C10 1_555 1_555
O4 C10 1_555 1_555
O5 C15 1_555 1_555
O6 C9 1_555 1_555
O7 C6 1_555 1_555
C1 O1 1_555 1_555
C2 C1 1_555 1_555
C3 C2 1_555 1_555
H1 C3 1_555 1_555
C4 C3 1_555 1_555
H2 C4 1_555 1_555
C5 C4 1_555 1_555
H3 C5 1_555 1_555
C6 C5 1_555 1_555
C7 C2 1_555 1_555
H4 C7 1_555 1_555
C8 O7 1_555 1_555
H5 C8 1_555 1_555
H6 C8 1_555 1_555
C9 C8 1_555 1_555
H7 C9 1_555 1_555
H8 C9 1_555 1_555
C10 C11 1_555 1_555
C11 C12 1_555 1_555
C12 H9 1_555 1_555
C13 C12 1_555 1_555
H10 C13 1_555 1_555
C14 C13 1_555 1_555
H11 C14 1_555 1_555
H12 C16 1_555 1_555
C15 C14 1_555 1_555
C16 C11 1_555 1_555
C17 O5 1_555 1_555
H13 C17 1_555 1_555
H14 C17 1_555 1_555
C18 O6 1_555 1_555
H15 C18 1_555 1_555
H16 C18 1_555 1_555
C19 H17 1_555 1_555
C20 C19 1_555 1_555
H18 C20 1_555 1_555
C21 H19 1_555 1_555
C22 N1 1_555 1_555
H20 C22 1_555 1_555
C23 C20 1_555 1_555
Pb1B N1B 1_555 1_555
Pb1A O3 1_555 1_555
Pb1A_2 O1A 1_555 1_555
N1B C19B 1_555 1_555
O1A C1A 1_555 1_555
O1B Pb1B 1_555 1_555
O2A Pb1A_2 1_555 1_555
O2B Pb1B 1_555 1_555
O3A Pb1 1_555 1_555
O3C Pb1B 1_555 1_555
O4A Pb1 1_555 1_555
O4C Pb1B 1_555 1_555
O5A C15A 1_555 1_555
O6A C9A 1_555 1_555
O7A C6A 1_555 1_555
C1A O2A 1_555 1_555
C2A C1A 1_555 1_555
C3A C2A 1_555 1_555
H1A C3A 1_555 1_555
C4A C3A 1_555 1_555
H2A C4A 1_555 1_555
C5A C4A 1_555 1_555
H3A C5A 1_555 1_555
C6A C5A 1_555 1_555
C7A C2A 1_555 1_555
H4A C7A 1_555 1_555
C8A O7A 1_555 1_555
H5A C8A 1_555 1_555
H6A C8A 1_555 1_555
C9A C8A 1_555 1_555
H7A C9A 1_555 1_555
H8A C9A 1_555 1_555
C10A O3A 1_555 1_555
C11A C10A 1_555 1_555
C12A C11A 1_555 1_555
H9A C12A 1_555 1_555
C13A C12A 1_555 1_555
H10A C13A 1_555 1_555
C14A C13A 1_555 1_555
H11A C14A 1_555 1_555
H12A C16A 1_555 1_555
C15A C14A 1_555 1_555
C16A C11A 1_555 1_555
C17A O5A 1_555 1_555
H13A C17A 1_555 1_555
H14A C17A 1_555 1_555
C18A O6A 1_555 1_555
H15A C18A 1_555 1_555
H16A C18A 1_555 1_555
C19B H17B 1_555 1_555
C20B C19B 1_555 1_555
H18B C20B 1_555 1_555
C21B H19B 1_555 1_555
C22B N1B 1_555 1_555
H20B C22B 1_555 1_555
C23B C23 1_555 1_555
O2 C1 1_555 1_555
O4 Pb1A 1_555 1_555
C6 C7 1_555 1_555
C15 C16 1_555 1_555
C17 C18 1_555 1_555
C21 C22 1_555 1_555
C21 C23 1_555 1_555
O4A C10A 1_555 1_555
C6A C7A 1_555 1_555
C15A C16A 1_555 1_555
C17A C18A 1_555 1_555
C20B C23B 1_555 1_555
C21B C22B 1_555 1_555
C21B C23B 1_555 1_555

#END
