
#######################################################################
#
#                 Cambridge Crystallographic Data Centre
#                                CCDC 
#
#######################################################################
#
# If this CIF has been generated from an entry in the Cambridge 
# Structural Database, then it will include bibliographic, chemical, 
# crystal, experimental, refinement or atomic coordinate data resulting 
# from the CCDC's data processing and validation procedures.
#
#######################################################################

data_MUHVIW
_symmetry_cell_setting           monoclinic
_symmetry_space_group_name_H-M   'P 21/c'
_symmetry_Int_Tables_number      14
_space_group_name_Hall           '-P 2ybc'
loop_
_symmetry_equiv_pos_site_id
_symmetry_equiv_pos_as_xyz
1 x,y,z
2 -x,1/2+y,1/2-z
3 -x,-y,-z
4 x,1/2-y,1/2+z
_cell_length_a                   16.9914(4)
_cell_length_b                   7.1576(2)
_cell_length_c                   7.4801(2)
_cell_angle_alpha                90
_cell_angle_beta                 99.0140(10)
_cell_angle_gamma                90
_cell_volume                     898.477
loop_
_atom_site_label
_atom_site_type_symbol
_atom_site_fract_x
_atom_site_fract_y
_atom_site_fract_z
Zn1 Zn 0.434222(10) 0.73134(2) 0.35020(2)
Cl1 Cl 0.06107(3) 0.20664(9) 0.37552(10)
Cl2 Cl 0.11340(3) 0.63114(8) 0.43285(11)
C1 C 0.29541(8) 0.1700(2) 0.52641(19)
C2 C 0.31939(8) 0.3563(2) 0.54608(19)
C3 C 0.26210(9) 0.4965(2) 0.5182(2)
C4 C 0.18240(9) 0.4531(2) 0.4675(2)
C5 C 0.15894(9) 0.2673(2) 0.4448(3)
C6 C 0.21547(9) 0.1267(2) 0.4756(2)
C7 C 0.40572(8) 0.4062(2) 0.59470(19)
O1 O 0.42791(6) 0.57470(15) 0.58571(14)
O2 O 0.45212(7) 0.27281(15) 0.64352(17)
O3 O 0.35747(7) -0.07078(17) 0.70704(15)
O4 O 0.38477(8) -0.04297(17) 0.42544(15)
H1 H 0.1960(14) 0.002(4) 0.454(3)
C8 C 0.35225(8) 0.0075(2) 0.55669(19)
H2 H 0.2789(11) 0.625(3) 0.534(3)
Zn1_2 Zn 0.434222(10) -0.26866(2) 0.35020(2)
Zn1B Zn 0.565778(10) 0.26866(2) 0.64980(2)
Zn1C Zn 0.434222(10) -0.23134(2) 0.85020(2)
Zn1C_2 Zn 0.434222(10) 0.76866(2) 0.85020(2)
O1C O 0.42791(6) 0.92530(15) 0.08571(14)
O2B O 0.54788(7) 0.72719(15) 0.35648(17)
O3C O 0.35747(7) 0.57078(17) 0.20704(15)
O4_2 O 0.38477(8) 0.95703(17) 0.42544(15)
loop_
_geom_bond_atom_site_label_1
_geom_bond_atom_site_label_2
_geom_bond_site_symmetry_1
_geom_bond_site_symmetry_2
Zn1 O1 1_555 1_555
Cl1 C5 1_555 1_555
Cl2 C4 1_555 1_555
C1 C2 1_555 1_555
C2 C3 1_555 1_555
C3 C4 1_555 1_555
C4 C5 1_555 1_555
C5 C6 1_555 1_555
C6 C1 1_555 1_555
C7 C2 1_555 1_555
O1 C7 1_555 1_555
O2 C7 1_555 1_555
O3 C8 1_555 1_555
O4 C8 1_555 1_555
H1 C6 1_555 1_555
C8 C1 1_555 1_555
H2 C3 1_555 1_555
Zn1_2 O4 1_555 1_555
Zn1B O2 1_555 1_555
Zn1C O3 1_555 1_555
Zn1C_2 O1 1_555 1_555
O1C Zn1 1_555 1_555
O2B Zn1 1_555 1_555
O3C Zn1 1_555 1_555
O4_2 Zn1 1_555 1_555

#END
