
#######################################################################
#
#                 Cambridge Crystallographic Data Centre
#                                CCDC 
#
#######################################################################
#
# If this CIF has been generated from an entry in the Cambridge 
# Structural Database, then it will include bibliographic, chemical, 
# crystal, experimental, refinement or atomic coordinate data resulting 
# from the CCDC's data processing and validation procedures.
#
#######################################################################

data_MUHVOB
_symmetry_cell_setting           monoclinic
_symmetry_space_group_name_H-M   'P 21/c'
_symmetry_Int_Tables_number      14
_space_group_name_Hall           '-P 2ybc'
loop_
_symmetry_equiv_pos_site_id
_symmetry_equiv_pos_as_xyz
1 x,y,z
2 -x,1/2+y,1/2-z
3 -x,-y,-z
4 x,1/2-y,1/2+z
_cell_length_a                   12.2792(3)
_cell_length_b                   24.8799(5)
_cell_length_c                   6.9753(2)
_cell_angle_alpha                90
_cell_angle_beta                 96.5080(10)
_cell_angle_gamma                90
_cell_volume                     2117.26
loop_
_atom_site_label
_atom_site_type_symbol
_atom_site_fract_x
_atom_site_fract_y
_atom_site_fract_z
Pb1 Pb -0.210653(19) 0.304885(9) -0.14386(3)
N1 N -0.1277(5) 0.3890(2) -0.2996(9)
C1 C -0.0196(5) 0.2801(3) 0.1105(9)
C2 C 0.0913(5) 0.2695(2) 0.2109(8)
C3 C 0.1645(6) 0.3109(3) 0.2693(9)
H1 H 0.1432 0.3466 0.2523
C4 C 0.2686(6) 0.2984(3) 0.3524(10)
H2 H 0.3183 0.3258 0.3883
C5 C 0.2995(5) 0.2461(3) 0.3824(9)
H3 H 0.3695 0.2382 0.4411
C6 C 0.2278(5) 0.2048(3) 0.3262(9)
C7 C 0.1226(5) 0.2158(3) 0.2385(8)
H4 H 0.0743 0.1881 0.1992
C8 C 0.1921(6) 0.1108(3) 0.3153(12)
H5 H 0.1720 0.1084 0.1770
H6 H 0.1262 0.1173 0.3762
C9 C 0.2449(8) 0.0591(4) 0.3894(15)
H7 H 0.1994 0.0290 0.3421
H8 H 0.3157 0.0553 0.3418
C10 C 0.3182(6) -0.1589(3) 1.3232(10)
C11 C 0.3682(5) -0.1392(2) 1.1505(9)
C12 C 0.4259(6) -0.1741(3) 1.0443(12)
H9 H 0.4344 -0.2098 1.0825
C13 C 0.4709(6) -0.1567(3) 0.8828(11)
H10 H 0.5118 -0.1799 0.8150
C14 C 0.4539(6) -0.1036(3) 0.8231(10)
H11 H 0.4826 -0.0917 0.7129
C15 C 0.3962(6) -0.0689(3) 0.9228(11)
C16 C 0.3542(5) -0.0870(3) 1.0907(10)
H12 H 0.3165 -0.0632 1.1620
C17 C 0.4123(7) 0.0052(4) 0.7106(12)
H13 H 0.3915 -0.0174 0.5991
H14 H 0.4917 0.0070 0.7315
C18 C 0.3660(8) 0.0593(4) 0.6777(14)
H15 H 0.3699 0.0781 0.8000
H16 H 0.4101 0.0791 0.5946
C19 C -0.0899(6) 0.3861(3) -0.4700(11)
H17 H -0.0968 0.3535 -0.5356
C20 C -0.0414(6) 0.4278(3) -0.5557(10)
H18 H -0.0178 0.4235 -0.6769
C21 C -0.0677(7) 0.4794(3) -0.2834(12)
H19 H -0.0609 0.5113 -0.2134
C22 C -0.1171(7) 0.4361(3) -0.2090(12)
H20 H -0.1444 0.4397 -0.0906
C23 C -0.0278(5) 0.4769(2) -0.4587(10)
O1 O -0.0857(3) 0.24206(18) 0.0726(7)
O2 O -0.0456(4) 0.32785(18) 0.0583(7)
O3 O 0.3153(5) -0.2081(2) 1.3557(8)
O4 O 0.2786(4) -0.1254(2) 1.4300(8)
O5 O 0.3709(5) -0.0164(2) 0.8749(8)
O6 O 0.2588(5) 0.0586(3) 0.5944(11)
O7 O 0.2671(4) 0.1535(2) 0.3574(7)
Pb1B Pb 0.210653(19) 0.695115(9) -0.85614(3)
Pb1A Pb 0.210653(19) -0.195115(9) 1.64386(3)
Pb1A_2 Pb 0.210653(19) 0.804885(9) 1.64386(3)
N1B N 0.1277(5) 0.6110(2) -0.7004(9)
C1A C 0.0196(5) 0.7801(3) 1.3895(9)
C2A C -0.0913(5) 0.7695(2) 1.2891(8)
C3A C -0.1645(6) 0.8109(3) 1.2307(9)
H1A H -0.1432 0.8466 1.2477
C4A C -0.2686(6) 0.7984(3) 1.1476(10)
H2A H -0.3183 0.8258 1.1117
C5A C -0.2995(5) 0.7461(3) 1.1176(9)
H3A H -0.3695 0.7382 1.0589
C6A C -0.2278(5) 0.7048(3) 1.1738(9)
C7A C -0.1226(5) 0.7158(3) 1.2615(8)
H4A H -0.0743 0.6881 1.3008
C8A C -0.1921(6) 0.6108(3) 1.1847(12)
H5A H -0.1720 0.6084 1.3230
H6A H -0.1262 0.6173 1.1238
C9A C -0.2449(8) 0.5591(4) 1.1106(15)
H7A H -0.1994 0.5290 1.1579
H8A H -0.3157 0.5553 1.1582
C10A C -0.3182(6) 0.3411(3) 0.1768(10)
C11A C -0.3682(5) 0.3608(2) 0.3495(9)
C12A C -0.4259(6) 0.3259(3) 0.4557(12)
H9A H -0.4344 0.2902 0.4175
C13A C -0.4709(6) 0.3433(3) 0.6172(11)
H10A H -0.5118 0.3201 0.6850
C14A C -0.4539(6) 0.3964(3) 0.6769(10)
H11A H -0.4826 0.4083 0.7871
C15A C -0.3962(6) 0.4311(3) 0.5772(11)
C16A C -0.3542(5) 0.4130(3) 0.4093(10)
H12A H -0.3165 0.4368 0.3380
C17A C -0.4123(7) 0.5052(4) 0.7894(12)
H13A H -0.3915 0.4826 0.9009
H14A H -0.4917 0.5070 0.7685
C18A C -0.3660(8) 0.5593(4) 0.8223(14)
H15A H -0.3699 0.5781 0.7000
H16A H -0.4101 0.5791 0.9054
C19B C 0.0899(6) 0.6139(3) -0.5300(11)
H17B H 0.0968 0.6465 -0.4644
C20B C 0.0414(6) 0.5722(3) -0.4443(10)
H18B H 0.0178 0.5765 -0.3231
C21B C 0.0677(7) 0.5206(3) -0.7166(12)
H19B H 0.0609 0.4887 -0.7866
C22B C 0.1171(7) 0.5639(3) -0.7910(12)
H20B H 0.1444 0.5603 -0.9094
C23B C 0.0278(5) 0.5231(2) -0.5413(10)
O1A O 0.0857(3) 0.74206(18) 1.4274(7)
O1B O 0.0857(3) 0.75794(18) -1.0726(7)
O2A O 0.0456(4) 0.82785(18) 1.4417(7)
O2B O 0.0456(4) 0.67215(18) -1.0583(7)
O3A O -0.3153(5) 0.2919(2) 0.1443(8)
O3C O 0.3153(5) 0.7081(2) -1.1443(8)
O4A O -0.2786(4) 0.3746(2) 0.0700(8)
O4C O 0.2786(4) 0.6254(2) -1.0700(8)
O5A O -0.3709(5) 0.4836(2) 0.6251(8)
O6A O -0.2588(5) 0.5586(3) 0.9056(11)
O7A O -0.2671(4) 0.6535(2) 1.1426(7)
loop_
_geom_bond_atom_site_label_1
_geom_bond_atom_site_label_2
_geom_bond_site_symmetry_1
_geom_bond_site_symmetry_2
Pb1 N1 1_555 1_555
N1 C19 1_555 1_555
C1 C2 1_555 1_555
C2 C3 1_555 1_555
C3 H1 1_555 1_555
C4 C3 1_555 1_555
H2 C4 1_555 1_555
C5 C4 1_555 1_555
H3 C5 1_555 1_555
C6 C5 1_555 1_555
C7 C2 1_555 1_555
H4 C7 1_555 1_555
C8 H5 1_555 1_555
H6 C8 1_555 1_555
C9 C8 1_555 1_555
H7 C9 1_555 1_555
H8 C9 1_555 1_555
C10 C11 1_555 1_555
C11 C12 1_555 1_555
C12 H9 1_555 1_555
C13 C12 1_555 1_555
H10 C13 1_555 1_555
C14 C13 1_555 1_555
H11 C14 1_555 1_555
C15 C14 1_555 1_555
C16 C11 1_555 1_555
H12 C16 1_555 1_555
C17 H13 1_555 1_555
H14 C17 1_555 1_555
C18 C17 1_555 1_555
H15 C18 1_555 1_555
H16 C18 1_555 1_555
C19 H17 1_555 1_555
C20 C19 1_555 1_555
H18 C20 1_555 1_555
C21 H19 1_555 1_555
C22 N1 1_555 1_555
H20 C22 1_555 1_555
C23 C20 1_555 1_555
O1 Pb1 1_555 1_555
O2 Pb1 1_555 1_555
O3 C10 1_555 1_555
O4 C10 1_555 1_555
O5 C15 1_555 1_555
O6 C9 1_555 1_555
O7 C6 1_555 1_555
Pb1B N1B 1_555 1_555
Pb1A O3 1_555 1_555
Pb1A_2 O1A 1_555 1_555
N1B C19B 1_555 1_555
C1A C2A 1_555 1_555
C2A C3A 1_555 1_555
C3A H1A 1_555 1_555
C4A C3A 1_555 1_555
H2A C4A 1_555 1_555
C5A C4A 1_555 1_555
H3A C5A 1_555 1_555
C6A C5A 1_555 1_555
C7A C2A 1_555 1_555
H4A C7A 1_555 1_555
C8A H5A 1_555 1_555
H6A C8A 1_555 1_555
C9A C8A 1_555 1_555
H7A C9A 1_555 1_555
H8A C9A 1_555 1_555
C10A C11A 1_555 1_555
C11A C12A 1_555 1_555
C12A H9A 1_555 1_555
C13A C12A 1_555 1_555
H10A C13A 1_555 1_555
C14A C13A 1_555 1_555
H11A C14A 1_555 1_555
C15A C14A 1_555 1_555
C16A C11A 1_555 1_555
H12A C16A 1_555 1_555
C17A H13A 1_555 1_555
H14A C17A 1_555 1_555
C18A C17A 1_555 1_555
H15A C18A 1_555 1_555
H16A C18A 1_555 1_555
C19B H17B 1_555 1_555
C20B C19B 1_555 1_555
H18B C20B 1_555 1_555
C21B H19B 1_555 1_555
C22B N1B 1_555 1_555
H20B C22B 1_555 1_555
C23B C23 1_555 1_555
O1A C1A 1_555 1_555
O1B Pb1B 1_555 1_555
O2A Pb1A_2 1_555 1_555
O2B Pb1B 1_555 1_555
O3A Pb1 1_555 1_555
O3C Pb1B 1_555 1_555
O4A Pb1 1_555 1_555
O4C Pb1B 1_555 1_555
O5A C15A 1_555 1_555
O6A C9A 1_555 1_555
O7A C6A 1_555 1_555
C1 O1 1_555 1_555
C1 O2 1_555 1_555
C6 C7 1_555 1_555
C8 O7 1_555 1_555
C15 C16 1_555 1_555
C17 O5 1_555 1_555
C18 O6 1_555 1_555
C21 C22 1_555 1_555
C21 C23 1_555 1_555
O4 Pb1A 1_555 1_555
C1A O2A 1_555 1_555
C6A C7A 1_555 1_555
C8A O7A 1_555 1_555
C10A O3A 1_555 1_555
C10A O4A 1_555 1_555
C15A C16A 1_555 1_555
C17A O5A 1_555 1_555
C18A O6A 1_555 1_555
C20B C23B 1_555 1_555
C21B C22B 1_555 1_555
C21B C23B 1_555 1_555

#END
