
#######################################################################
#
#                 Cambridge Crystallographic Data Centre
#                                CCDC 
#
#######################################################################
#
# If this CIF has been generated from an entry in the Cambridge 
# Structural Database, then it will include bibliographic, chemical, 
# crystal, experimental, refinement or atomic coordinate data resulting 
# from the CCDC's data processing and validation procedures.
#
#######################################################################

data_MUHXUK
_symmetry_cell_setting           triclinic
_symmetry_space_group_name_H-M   'P -1'
_symmetry_Int_Tables_number      2
_space_group_name_Hall           '-P 1'
loop_
_symmetry_equiv_pos_site_id
_symmetry_equiv_pos_as_xyz
1 x,y,z
2 -x,-y,-z
_cell_length_a                   10.1490(5)
_cell_length_b                   10.2936(5)
_cell_length_c                   13.6107(7)
_cell_angle_alpha                104.922(4)
_cell_angle_beta                 109.154(5)
_cell_angle_gamma                95.153(4)
_cell_volume                     1274.01
loop_
_atom_site_label
_atom_site_type_symbol
_atom_site_fract_x
_atom_site_fract_y
_atom_site_fract_z
Cd1 Cd 0.85253(3) 0.58322(3) 0.401141(19)
O1 O 0.9101(3) 0.8206(2) 0.40203(18)
O2 O 1.0570(3) 0.6783(2) 0.38540(18)
C1 C 1.0246(4) 0.7963(4) 0.3929(3)
C2 C 1.1286(4) 0.9097(4) 0.3911(3)
H1 H 1.2108 0.8752 0.3838
H2 H 1.1568 0.9835 0.4580
H3 H 1.0843 0.9423 0.3306
O3 O 1.0069(3) 0.3614(3) 0.41303(18)
O4 O 0.7754(3) 0.3597(2) 0.36396(18)
C3 C 0.8796(4) 0.2991(4) 0.3782(2)
C4 C 0.8471(4) 0.1454(4) 0.3470(3)
H4 H 0.7463 0.1143 0.3222
H5 H 0.8937 0.1167 0.4093
H6 H 0.8805 0.1071 0.2895
N1 N 0.6665(3) 0.6357(3) 0.4543(2)
N2 N 0.2741(3) 0.5450(3) 0.3461(2)
H7 H 0.2099 0.5800 0.3666
C5 C 0.4156(4) 0.6043(3) 0.4138(3)
C6 C 0.5332(4) 0.5736(3) 0.3883(3)
H8 H 0.5189 0.5072 0.3229
C7 C 0.6879(4) 0.7312(4) 0.5495(3)
H9 H 0.7804 0.7741 0.5955
C8 C 0.5764(4) 0.7676(4) 0.5812(3)
H10 H 0.5936 0.8341 0.6472
C9 C 0.4392(4) 0.7033(3) 0.5131(3)
H11 H 0.3630 0.7258 0.5331
O5 O 0.3059(3) 0.3756(2) 0.21536(17)
C10 C 0.2266(4) 0.4390(4) 0.2524(3)
C11 C 0.0666(4) 0.4056(3) 0.1924(3)
H12 H 0.0328 0.3076 0.1706
H13 H 0.0205 0.4504 0.2404
C12 C 0.0300(4) 0.4543(3) 0.0926(3)
C13 C -0.0172(4) 0.3609(3) -0.0122(3)
H14 H -0.0289 0.2674 -0.0210
C14 C 0.0467(4) 0.5939(3) 0.1034(3)
H15 H 0.0781 0.6574 0.1726
N3 N 0.7302(3) 0.5333(3) 0.2035(2)
N4 N 0.6950(3) 0.7177(3) -0.0009(2)
H16 H 0.7103 0.6984 -0.0611
C15 C 0.6919(4) 0.6102(4) 0.0462(3)
C16 C 0.7290(4) 0.6353(4) 0.1584(3)
H17 H 0.7537 0.7255 0.2035
C17 C 0.6928(4) 0.4030(4) 0.1368(3)
H18 H 0.6908 0.3319 0.1671
C18 C 0.6572(4) 0.3713(4) 0.0253(3)
H19 H 0.6338 0.2805 -0.0183
C19 C 0.6568(4) 0.4758(4) -0.0205(3)
H20 H 0.6333 0.4565 -0.0955
O6 O 0.6471(3) 0.8877(2) 0.11998(19)
C20 C 0.6767(4) 0.8473(4) 0.0379(3)
C21 C 0.7006(4) 0.9415(4) -0.0269(3)
H21 H 0.6437 0.8986 -0.1036
H22 H 0.6698 1.0265 -0.0025
C22 C 0.8551(4) 0.9725(3) -0.0130(3)
C23 C 0.8963(4) 0.9666(4) -0.1020(3)
H23 H 0.8268 0.9438 -0.1715
C24 C 0.9626(4) 1.0063(4) 0.0896(3)
H24 H 0.9388 1.0106 0.1506
N1A N -0.6665(3) 0.3643(3) -0.4543(2)
N2A N -0.2741(3) 0.4550(3) -0.3461(2)
H7A H -0.2099 0.4200 -0.3666
C5A C -0.4156(4) 0.3957(3) -0.4138(3)
C6A C -0.5332(4) 0.4264(3) -0.3883(3)
H8A H -0.5189 0.4928 -0.3229
C7A C -0.6879(4) 0.2688(4) -0.5495(3)
H9A H -0.7804 0.2259 -0.5955
C8A C -0.5764(4) 0.2324(4) -0.5812(3)
H10A H -0.5936 0.1659 -0.6472
C9A C -0.4392(4) 0.2967(3) -0.5131(3)
H11A H -0.3630 0.2742 -0.5331
O5A O -0.3059(3) 0.6244(2) -0.21536(17)
C10A C -0.2266(4) 0.5610(4) -0.2524(3)
C11A C -0.0666(4) 0.5944(3) -0.1924(3)
H12A H -0.0328 0.6924 -0.1706
H13A H -0.0205 0.5496 -0.2404
C12A C -0.0300(4) 0.5457(3) -0.0926(3)
C13A C 0.0172(4) 0.6391(3) 0.0122(3)
H14A H 0.0289 0.7326 0.0210
C14A C -0.0467(4) 0.4061(3) -0.1034(3)
H15A H -0.0781 0.3426 -0.1726
N3A N 1.2698(3) 1.4667(3) -0.2035(2)
N4A N 1.3050(3) 1.2823(3) 0.0009(2)
H16A H 1.2897 1.3016 0.0611
C15A C 1.3081(4) 1.3898(4) -0.0462(3)
C16A C 1.2710(4) 1.3647(4) -0.1584(3)
H17A H 1.2463 1.2745 -0.2035
C17A C 1.3072(4) 1.5970(4) -0.1368(3)
H18A H 1.3092 1.6681 -0.1671
C18A C 1.3428(4) 1.6287(4) -0.0253(3)
H19A H 1.3662 1.7195 0.0183
C19A C 1.3432(4) 1.5242(4) 0.0205(3)
H20A H 1.3667 1.5435 0.0955
O6A O 1.3529(3) 1.1123(2) -0.11998(19)
C20A C 1.3233(4) 1.1527(4) -0.0379(3)
C21A C 1.2994(4) 1.0585(4) 0.0269(3)
H21A H 1.3563 1.1014 0.1036
H22A H 1.3302 0.9735 0.0025
C22A C 1.1449(4) 1.0275(3) 0.0130(3)
C23A C 1.1037(4) 1.0334(4) 0.1020(3)
H23A H 1.1732 1.0562 0.1715
C24A C 1.0374(4) 0.9937(4) -0.0896(3)
H24A H 1.0612 0.9894 -0.1506
Cd1A Cd -0.85253(3) 0.41678(3) -0.401141(19)
O1A O -0.9101(3) 0.1794(2) -0.40203(18)
O2A O -1.0570(3) 0.3217(2) -0.38540(18)
C1A C -1.0246(4) 0.2037(4) -0.3929(3)
C2A C -1.1286(4) 0.0903(4) -0.3911(3)
H1A H -1.2108 0.1248 -0.3838
H2A H -1.1568 0.0165 -0.4580
H3A H -1.0843 0.0577 -0.3306
O3A O -1.0069(3) 0.6386(3) -0.41303(18)
O4A O -0.7754(3) 0.6403(2) -0.36396(18)
C3A C -0.8796(4) 0.7009(4) -0.3782(2)
C4A C -0.8471(4) 0.8546(4) -0.3470(3)
H4A H -0.7463 0.8857 -0.3222
H5A H -0.8937 0.8833 -0.4093
H6A H -0.8805 0.8929 -0.2895
Cd1_2 Cd -1.14747(3) 0.58322(3) -0.598859(19)
Cd1A_2 Cd 1.14747(3) 0.41678(3) 0.598859(19)
Cd1A_3 Cd 1.14747(3) 1.41678(3) -0.401141(19)
O3_2 O -0.9931(3) 0.3614(3) -0.58697(18)
O3A_2 O 0.9931(3) 0.6386(3) 0.58697(18)
N3A_2 N -0.7302(3) 0.4667(3) -0.2035(2)
O7 O 0.5299(3) 0.0423(3) 0.7624(2)
C25 C 0.5044(6) 0.1325(5) 0.6966(4)
loop_
_geom_bond_atom_site_label_1
_geom_bond_atom_site_label_2
_geom_bond_site_symmetry_1
_geom_bond_site_symmetry_2
Cd1 O1 1_555 1_555
O1 C1 1_555 1_555
O2 Cd1 1_555 1_555
C1 O2 1_555 1_555
C2 C1 1_555 1_555
H1 C2 1_555 1_555
H2 C2 1_555 1_555
H3 C2 1_555 1_555
O3 C3 1_555 1_555
O4 Cd1 1_555 1_555
C3 O4 1_555 1_555
C4 C3 1_555 1_555
H4 C4 1_555 1_555
H5 C4 1_555 1_555
H6 C4 1_555 1_555
N1 Cd1 1_555 1_555
N2 H7 1_555 1_555
C5 N2 1_555 1_555
C6 N1 1_555 1_555
H8 C6 1_555 1_555
C7 N1 1_555 1_555
H9 C7 1_555 1_555
C8 C7 1_555 1_555
H10 C8 1_555 1_555
C9 C5 1_555 1_555
H11 C9 1_555 1_555
O5 C10 1_555 1_555
C10 N2 1_555 1_555
C11 C10 1_555 1_555
H12 C11 1_555 1_555
H13 C11 1_555 1_555
C12 C11 1_555 1_555
C13 C12 1_555 1_555
H14 C13 1_555 1_555
C14 C12 1_555 1_555
H15 C14 1_555 1_555
N3 Cd1 1_555 1_555
N4 H16 1_555 1_555
C15 N4 1_555 1_555
C16 N3 1_555 1_555
H17 C16 1_555 1_555
C17 N3 1_555 1_555
H18 C17 1_555 1_555
C18 C17 1_555 1_555
H19 C18 1_555 1_555
C19 C15 1_555 1_555
H20 C19 1_555 1_555
O6 C20 1_555 1_555
C20 N4 1_555 1_555
C21 C20 1_555 1_555
H21 C21 1_555 1_555
H22 C21 1_555 1_555
C22 C21 1_555 1_555
C23 C22 1_555 1_555
H23 C23 1_555 1_555
C24 C22 1_555 1_555
H24 C24 1_555 1_555
O7 C25 1_555 1_555
N1A C6A 1_555 1_555
N2A H7A 1_555 1_555
C5A N2A 1_555 1_555
C6A C5A 1_555 1_555
H8A C6A 1_555 1_555
C7A N1A 1_555 1_555
H9A C7A 1_555 1_555
C8A C7A 1_555 1_555
H10A C8A 1_555 1_555
C9A C5A 1_555 1_555
H11A C9A 1_555 1_555
O5A C10A 1_555 1_555
C10A N2A 1_555 1_555
C11A C10A 1_555 1_555
H12A C11A 1_555 1_555
H13A C11A 1_555 1_555
C12A C11A 1_555 1_555
C13A C14 1_555 1_555
H14A C13A 1_555 1_555
C14A C13 1_555 1_555
H15A C14A 1_555 1_555
N3A C16A 1_555 1_555
N4A H16A 1_555 1_555
C15A N4A 1_555 1_555
C16A C15A 1_555 1_555
H17A C16A 1_555 1_555
C17A N3A 1_555 1_555
H18A C17A 1_555 1_555
C18A C17A 1_555 1_555
H19A C18A 1_555 1_555
C19A C15A 1_555 1_555
H20A C19A 1_555 1_555
O6A C20A 1_555 1_555
C20A N4A 1_555 1_555
C21A C20A 1_555 1_555
H21A C21A 1_555 1_555
H22A C21A 1_555 1_555
C22A C21A 1_555 1_555
C23A C24 1_555 1_555
H23A C23A 1_555 1_555
C24A C23 1_555 1_555
H24A C24A 1_555 1_555
Cd1A N1A 1_555 1_555
O1A Cd1A 1_555 1_555
O2A Cd1A 1_555 1_555
C1A O1A 1_555 1_555
C2A C1A 1_555 1_555
H1A C2A 1_555 1_555
H2A C2A 1_555 1_555
H3A C2A 1_555 1_555
O3A C3A 1_555 1_555
O4A Cd1A 1_555 1_555
C3A O4A 1_555 1_555
C4A C3A 1_555 1_555
H4A C4A 1_555 1_555
H5A C4A 1_555 1_555
H6A C4A 1_555 1_555
Cd1_2 O3A 1_555 1_555
Cd1A_2 O3 1_555 1_555
Cd1A_3 N3A 1_555 1_555
O3_2 Cd1A 1_555 1_555
O3A_2 Cd1 1_555 1_555
N3A_2 Cd1A 1_555 1_555
C5 C6 1_555 1_555
C8 C9 1_555 1_555
C15 C16 1_555 1_555
C18 C19 1_555 1_555
C8A C9A 1_555 1_555
C12A C13A 1_555 1_555
C12A C14A 1_555 1_555
C18A C19A 1_555 1_555
C22A C23A 1_555 1_555
C22A C24A 1_555 1_555
O2A C1A 1_555 1_555

#END
