
#######################################################################
#
#                 Cambridge Crystallographic Data Centre
#                                CCDC 
#
#######################################################################
#
# If this CIF has been generated from an entry in the Cambridge 
# Structural Database, then it will include bibliographic, chemical, 
# crystal, experimental, refinement or atomic coordinate data resulting 
# from the CCDC's data processing and validation procedures.
#
#######################################################################

data_MUJDAY
_symmetry_cell_setting           monoclinic
_symmetry_space_group_name_H-M   'P 21/n'
_symmetry_Int_Tables_number      14
_space_group_name_Hall           '-P 2yn'
loop_
_symmetry_equiv_pos_site_id
_symmetry_equiv_pos_as_xyz
1 x,y,z
2 1/2-x,1/2+y,1/2-z
3 -x,-y,-z
4 1/2+x,1/2-y,1/2+z
_cell_length_a                   16.7216(4)
_cell_length_b                   38.6606(8)
_cell_length_c                   14.2231(3)
_cell_angle_alpha                90
_cell_angle_beta                 90.286(2)
_cell_angle_gamma                90
_cell_volume                     9194.65
loop_
_atom_site_label
_atom_site_type_symbol
_atom_site_fract_x
_atom_site_fract_y
_atom_site_fract_z
C1 C 0.42107(13) 0.30953(6) 0.81618(17)
C2 C 0.37251(14) 0.28702(6) 0.88544(16)
C3 C 0.49721(14) 0.29157(7) 0.7820(2)
H1 H 0.4845 0.2679 0.7626
H2 H 0.5367 0.2910 0.8331
H3 H 0.5192 0.3043 0.7285
C4 C 0.44203(15) 0.34569(6) 0.85142(19)
H4 H 0.4687 0.3586 0.8013
H5 H 0.4778 0.3439 0.9060
H6 H 0.3930 0.3578 0.8696
C5 C 0.42244(17) 0.26710(6) 0.95665(18)
H7 H 0.3872 0.2530 0.9961
H8 H 0.4522 0.2834 0.9963
H9 H 0.4601 0.2520 0.9235
C6 C 0.30916(16) 0.30789(6) 0.93752(17)
H10 H 0.2769 0.3209 0.8921
H11 H 0.3354 0.3240 0.9811
H12 H 0.2746 0.2921 0.9729
C7 C 0.09658(13) 0.32068(6) 0.71814(18)
C8 C 0.08339(13) 0.28388(6) 0.67784(17)
C9 C 0.06247(16) 0.34975(6) 0.6595(2)
H13 H 0.0758 0.3720 0.6887
H14 H 0.0042 0.3473 0.6555
H15 H 0.0852 0.3488 0.5961
C10 C 0.07230(17) 0.32417(8) 0.8210(2)
H16 H 0.0958 0.3052 0.8575
H17 H 0.0139 0.3233 0.8258
H18 H 0.0916 0.3463 0.8458
C11 C 0.08026(16) 0.28275(7) 0.57122(18)
H19 H 0.1251 0.2960 0.5456
H20 H 0.0298 0.2928 0.5492
H21 H 0.0838 0.2587 0.5500
C12 C 0.01323(14) 0.26417(7) 0.7187(2)
H22 H 0.0103 0.2412 0.6899
H23 H -0.0364 0.2768 0.7056
H24 H 0.0205 0.2618 0.7868
C13 C 0.32284(12) 0.25974(5) 0.56965(15)
C14 C 0.31879(13) 0.23108(6) 0.51054(16)
H25 H 0.3307 0.2088 0.5350
C15 C 0.29767(14) 0.23446(6) 0.41660(17)
H26 H 0.2963 0.2144 0.3780
C16 C 0.27832(13) 0.26642(6) 0.37718(16)
C17 C 0.28289(13) 0.29475(6) 0.43684(16)
H27 H 0.2698 0.3169 0.4124
C18 C 0.30573(13) 0.29215(6) 0.53074(15)
H28 H 0.3097 0.3124 0.5684
C19 C 0.25405(15) 0.27132(7) 0.27414(17)
C20 C 0.31454(18) 0.29519(8) 0.22579(19)
H29 H 0.3152 0.3177 0.2576
H30 H 0.2991 0.2984 0.1598
H31 H 0.3679 0.2848 0.2292
C21 C 0.17121(17) 0.28796(9) 0.2701(2)
H32 H 0.1323 0.2727 0.3005
H33 H 0.1556 0.2916 0.2043
H34 H 0.1726 0.3103 0.3029
C22 C 0.2518(2) 0.23713(8) 0.2200(2)
H35 H 0.3045 0.2261 0.2234
H36 H 0.2379 0.2416 0.1541
H37 H 0.2117 0.2218 0.2478
C23 C 0.38928(17) 0.37686(6) 0.45996(19)
H38 H 0.3649 0.3634 0.4119
C24 C 0.4952(2) 0.41450(14) 0.5050(3)
H39 H 0.4659 0.4141 0.5645
H40 H 0.4979 0.4383 0.4814
H41 H 0.5495 0.4057 0.5153
C25 C 0.48827(17) 0.39084(9) 0.34418(19)
H42 H 0.5410 0.3799 0.3477
H43 H 0.4936 0.4141 0.3176
H44 H 0.4530 0.3770 0.3040
C26 C 0.13475(13) 0.14113(6) 0.59937(15)
C27 C 0.18955(13) 0.11515(6) 0.54585(15)
C28 C 0.05162(13) 0.12647(6) 0.61838(16)
H45 H 0.0567 0.1036 0.6473
H46 H 0.0220 0.1245 0.5590
H47 H 0.0229 0.1419 0.6611
C29 C 0.12629(14) 0.17643(6) 0.55242(17)
H48 H 0.0919 0.1913 0.5908
H49 H 0.1023 0.1736 0.4899
H50 H 0.1792 0.1871 0.5464
C30 C 0.14647(15) 0.09336(6) 0.47235(16)
H51 H 0.1847 0.0777 0.4423
H52 H 0.1226 0.1085 0.4247
H53 H 0.1044 0.0798 0.5026
C31 C 0.26201(14) 0.13301(6) 0.50116(16)
H54 H 0.2897 0.1470 0.5487
H55 H 0.2439 0.1480 0.4497
H56 H 0.2987 0.1155 0.4766
C32 C 0.43472(13) 0.15361(6) 0.77477(17)
C33 C 0.44361(13) 0.11566(6) 0.80967(15)
C34 C 0.45687(15) 0.18124(6) 0.8455(2)
H57 H 0.4459 0.2041 0.8186
H58 H 0.5139 0.1794 0.8610
H59 H 0.4252 0.1781 0.9026
C35 C 0.47504(15) 0.16058(7) 0.68109(18)
H60 H 0.4597 0.1426 0.6359
H61 H 0.5332 0.1604 0.6897
H62 H 0.4582 0.1832 0.6573
C36 C 0.43077(14) 0.11175(6) 0.91466(16)
H63 H 0.3809 0.1233 0.9324
H64 H 0.4756 0.1223 0.9487
H65 H 0.4275 0.0871 0.9306
C37 C 0.52017(13) 0.09773(6) 0.77999(17)
H66 H 0.5197 0.0738 0.8023
H67 H 0.5662 0.1099 0.8072
H68 H 0.5241 0.0980 0.7113
C38 C 0.19647(12) 0.09493(5) 0.87153(14)
C39 C 0.20774(13) 0.06706(5) 0.93174(15)
H69 H 0.2047 0.0442 0.9076
C40 C 0.22343(13) 0.07207(6) 1.02679(15)
H70 H 0.2312 0.0525 1.0661
C41 C 0.22814(13) 0.10504(6) 1.06608(15)
C42 C 0.21443(13) 0.13275(6) 1.00516(15)
H71 H 0.2160 0.1556 1.0296
C43 C 0.19863(13) 0.12807(5) 0.91060(15)
H72 H 0.1891 0.1476 0.8717
C44 C 0.24789(15) 0.11189(7) 1.16955(16)
C45 C 0.17966(16) 0.13270(7) 1.21447(17)
H73 H 0.1738 0.1549 1.1817
H74 H 0.1921 0.1369 1.2809
H75 H 0.1297 0.1196 1.2094
C46 C 0.32576(17) 0.13272(8) 1.17616(19)
H76 H 0.3694 0.1194 1.1480
H77 H 0.3383 0.1374 1.2423
H78 H 0.3193 0.1546 1.1424
C47 C 0.25928(18) 0.07833(7) 1.22563(17)
H79 H 0.2104 0.0644 1.2217
H80 H 0.2706 0.0839 1.2916
H81 H 0.3041 0.0652 1.1995
C48 C 0.13492(16) 0.23269(7) 0.95691(19)
H82 H 0.1658 0.2530 0.9665
C49 C 0.0112(2) 0.20293(9) 0.9785(3)
H83 H -0.0322 0.2092 0.9352
H84 H -0.0113 0.1958 1.0390
H85 H 0.0422 0.1838 0.9519
C50 C 0.03054(18) 0.26233(8) 1.0409(2)
H86 H 0.0730 0.2795 1.0502
H87 H 0.0095 0.2552 1.1022
H88 H -0.0126 0.2725 1.0031
C51 C 0.08872(13) -0.00717(6) 0.70781(16)
C52 C 0.06885(12) -0.04533(5) 0.68204(15)
C53 C 0.05541(15) 0.00430(7) 0.80206(18)
H89 H 0.0705 -0.0125 0.8506
H90 H -0.0030 0.0058 0.7979
H91 H 0.0773 0.0270 0.8185
C54 C 0.06848(15) 0.01921(6) 0.6322(2)
H92 H 0.0838 0.0424 0.6539
H93 H 0.0109 0.0187 0.6193
H94 H 0.0977 0.0136 0.5746
C55 C -0.00999(13) -0.05832(6) 0.71992(17)
H95 H -0.0178 -0.0825 0.7010
H96 H -0.0537 -0.0442 0.6946
H97 H -0.0096 -0.0568 0.7887
C56 C 0.07472(14) -0.05297(6) 0.57745(16)
H98 H 0.1260 -0.0444 0.5537
H99 H 0.0308 -0.0414 0.5441
H100 H 0.0712 -0.0780 0.5672
C57 C 0.38776(13) -0.02790(6) 0.87216(15)
C58 C 0.32846(13) -0.05115(6) 0.92777(15)
C59 C 0.40183(14) 0.00769(6) 0.91532(17)
H101 H 0.4396 0.0207 0.8764
H102 H 0.4239 0.0050 0.9789
H103 H 0.3510 0.0203 0.9184
C60 C 0.46798(13) -0.04567(6) 0.85612(17)
H104 H 0.4590 -0.0686 0.8287
H105 H 0.4962 -0.0481 0.9163
H106 H 0.5003 -0.0317 0.8131
C61 C 0.25767(14) -0.03087(6) 0.96683(16)
H107 H 0.2344 -0.0165 0.9170
H108 H 0.2760 -0.0161 1.0186
H109 H 0.2172 -0.0470 0.9900
C62 C 0.36628(15) -0.07253(6) 1.00619(16)
H110 H 0.3249 -0.0862 1.0374
H111 H 0.3917 -0.0571 1.0520
H112 H 0.4066 -0.0881 0.9796
C63 C 0.30896(12) -0.07460(6) 0.60344(15)
C64 C 0.28726(15) -0.10213(6) 0.54660(17)
H113 H 0.2861 -0.1248 0.5722
C65 C 0.26714(15) -0.09717(7) 0.45283(17)
H114 H 0.2528 -0.1166 0.4155
C66 C 0.26748(14) -0.06441(7) 0.41196(16)
C67 C 0.29144(14) -0.03728(6) 0.46924(16)
H115 H 0.2932 -0.0146 0.4435
C68 C 0.31289(14) -0.04195(6) 0.56239(16)
H116 H 0.3305 -0.0227 0.5987
C69 C 0.23976(16) -0.05768(8) 0.31043(18)
C70 C 0.29960(19) -0.03382(9) 0.26010(19)
H117 H 0.2845 -0.0317 0.1937
H118 H 0.3535 -0.0437 0.2650
H119 H 0.2989 -0.0109 0.2896
C71 C 0.15824(19) -0.04077(12) 0.3129(2)
H120 H 0.1204 -0.0561 0.3449
H121 H 0.1396 -0.0365 0.2485
H122 H 0.1618 -0.0188 0.3468
C72 C 0.2354(2) -0.09095(9) 0.2527(2)
H123 H 0.1951 -0.1064 0.2796
H124 H 0.2877 -0.1024 0.2537
H125 H 0.2207 -0.0854 0.1876
C73 C 0.42548(18) 0.06141(7) 0.5316(2)
H126 H 0.4243 0.0830 0.5637
C74 C 0.47936(18) 0.09224(8) 0.3980(2)
H127 H 0.4421 0.0973 0.3463
H128 H 0.5332 0.0889 0.3727
H129 H 0.4798 0.1116 0.4424
C75 C 0.4588(2) 0.02930(9) 0.3926(2)
H130 H 0.4476 0.0098 0.4344
H131 H 0.5125 0.0267 0.3662
H132 H 0.4192 0.0297 0.3416
B1 B 0.31714(15) 0.28125(6) 0.73450(18)
B2 B 0.21663(15) 0.29078(6) 0.71683(17)
B3 B 0.22187(14) 0.11359(6) 0.70715(17)
B4 B 0.31815(14) 0.12312(6) 0.74455(16)
B5 B 0.19918(15) -0.04174(6) 0.73559(16)
B6 B 0.29554(15) -0.05430(6) 0.76775(17)
K1 K 0.29279(3) 0.375486(11) 0.70249(3)
K2 K 0.24330(3) 0.207492(12) 0.75254(4)
K3 K 0.29415(3) 0.038850(12) 0.71095(3)
N1 N 0.45465(13) 0.39313(6) 0.43747(15)
N2 N 0.06283(12) 0.23239(5) 0.99259(16)
N3 N 0.45438(13) 0.06132(6) 0.44547(15)
O1 O 0.36664(8) 0.31295(3) 0.73870(10)
O2 O 0.33322(9) 0.26317(4) 0.82425(10)
O3 O 0.18379(8) 0.32364(4) 0.71719(11)
O4 O 0.15735(8) 0.26618(4) 0.70576(11)
O5 O 0.34423(8) 0.25522(4) 0.66050(10)
O6 O 0.35588(13) 0.37704(5) 0.53650(14)
O7 O 0.17613(8) 0.14545(4) 0.68692(10)
O8 O 0.21755(9) 0.09311(4) 0.61938(10)
O9 O 0.34877(8) 0.15592(4) 0.75696(11)
O10 O 0.37631(8) 0.09856(3) 0.76338(10)
O11 O 0.18337(8) 0.08922(3) 0.77886(9)
O12 O 0.16609(13) 0.20952(5) 0.91278(15)
O13 O 0.17565(8) -0.00814(4) 0.71855(11)
O14 O 0.13452(8) -0.06411(3) 0.72735(10)
O15 O 0.34786(9) -0.02374(4) 0.78358(10)
O16 O 0.29982(9) -0.07387(4) 0.85659(10)
O17 O 0.32600(9) -0.08015(4) 0.69540(10)
O18 O 0.40010(13) 0.03619(5) 0.57385(15)
K1A K 0.20721(3) -0.124514(11) 0.79751(3)
O14A O 0.36548(8) 0.43589(3) 0.77265(10)
O16A O 0.20018(9) 0.42613(4) 0.64341(10)
O17A O 0.17400(9) 0.41985(4) 0.80460(10)
loop_
_geom_bond_atom_site_label_1
_geom_bond_atom_site_label_2
_geom_bond_site_symmetry_1
_geom_bond_site_symmetry_2
C1 C2 1_555 1_555
C2 C5 1_555 1_555
C3 C1 1_555 1_555
H1 C3 1_555 1_555
H2 C3 1_555 1_555
H3 C3 1_555 1_555
C4 C1 1_555 1_555
H4 C4 1_555 1_555
H5 C4 1_555 1_555
H6 C4 1_555 1_555
C5 H7 1_555 1_555
H8 C5 1_555 1_555
H9 C5 1_555 1_555
C6 C2 1_555 1_555
H10 C6 1_555 1_555
H11 C6 1_555 1_555
H12 C6 1_555 1_555
C7 C8 1_555 1_555
C8 C11 1_555 1_555
C9 C7 1_555 1_555
H13 C9 1_555 1_555
H14 C9 1_555 1_555
H15 C9 1_555 1_555
C10 C7 1_555 1_555
H16 C10 1_555 1_555
H17 C10 1_555 1_555
H18 C10 1_555 1_555
C11 H19 1_555 1_555
H20 C11 1_555 1_555
H21 C11 1_555 1_555
C12 C8 1_555 1_555
H22 C12 1_555 1_555
H23 C12 1_555 1_555
H24 C12 1_555 1_555
C13 C14 1_555 1_555
C14 H25 1_555 1_555
C15 C14 1_555 1_555
H26 C15 1_555 1_555
C16 C15 1_555 1_555
C17 C16 1_555 1_555
H27 C17 1_555 1_555
C18 C13 1_555 1_555
H28 C18 1_555 1_555
C19 C16 1_555 1_555
C20 C19 1_555 1_555
H29 C20 1_555 1_555
H30 C20 1_555 1_555
H31 C20 1_555 1_555
C21 C19 1_555 1_555
H32 C21 1_555 1_555
H33 C21 1_555 1_555
H34 C21 1_555 1_555
C22 C19 1_555 1_555
H35 C22 1_555 1_555
H36 C22 1_555 1_555
H37 C22 1_555 1_555
C23 H38 1_555 1_555
C24 H39 1_555 1_555
H40 C24 1_555 1_555
H41 C24 1_555 1_555
C25 H42 1_555 1_555
H43 C25 1_555 1_555
H44 C25 1_555 1_555
C26 C27 1_555 1_555
C27 C30 1_555 1_555
C28 C26 1_555 1_555
H45 C28 1_555 1_555
H46 C28 1_555 1_555
H47 C28 1_555 1_555
C29 C26 1_555 1_555
H48 C29 1_555 1_555
H49 C29 1_555 1_555
H50 C29 1_555 1_555
C30 H51 1_555 1_555
H52 C30 1_555 1_555
H53 C30 1_555 1_555
C31 C27 1_555 1_555
H54 C31 1_555 1_555
H55 C31 1_555 1_555
H56 C31 1_555 1_555
C32 C33 1_555 1_555
C33 C36 1_555 1_555
C34 C32 1_555 1_555
H57 C34 1_555 1_555
H58 C34 1_555 1_555
H59 C34 1_555 1_555
C35 C32 1_555 1_555
H60 C35 1_555 1_555
H61 C35 1_555 1_555
H62 C35 1_555 1_555
C36 H63 1_555 1_555
H64 C36 1_555 1_555
H65 C36 1_555 1_555
C37 C33 1_555 1_555
H66 C37 1_555 1_555
H67 C37 1_555 1_555
H68 C37 1_555 1_555
C38 C39 1_555 1_555
C39 H69 1_555 1_555
C40 C39 1_555 1_555
H70 C40 1_555 1_555
C41 C40 1_555 1_555
C42 C41 1_555 1_555
H71 C42 1_555 1_555
C43 C38 1_555 1_555
H72 C43 1_555 1_555
C44 C41 1_555 1_555
C45 C44 1_555 1_555
H73 C45 1_555 1_555
H74 C45 1_555 1_555
H75 C45 1_555 1_555
C46 C44 1_555 1_555
H76 C46 1_555 1_555
H77 C46 1_555 1_555
H78 C46 1_555 1_555
C47 C44 1_555 1_555
H79 C47 1_555 1_555
H80 C47 1_555 1_555
H81 C47 1_555 1_555
C48 H82 1_555 1_555
C49 H83 1_555 1_555
H84 C49 1_555 1_555
H85 C49 1_555 1_555
C50 H86 1_555 1_555
H87 C50 1_555 1_555
H88 C50 1_555 1_555
C51 C52 1_555 1_555
C52 C55 1_555 1_555
C53 C51 1_555 1_555
H89 C53 1_555 1_555
H90 C53 1_555 1_555
H91 C53 1_555 1_555
C54 C51 1_555 1_555
H92 C54 1_555 1_555
H93 C54 1_555 1_555
H94 C54 1_555 1_555
C55 H95 1_555 1_555
H96 C55 1_555 1_555
H97 C55 1_555 1_555
C56 C52 1_555 1_555
H98 C56 1_555 1_555
H99 C56 1_555 1_555
H100 C56 1_555 1_555
C57 C58 1_555 1_555
C58 C61 1_555 1_555
C59 C57 1_555 1_555
H101 C59 1_555 1_555
H102 C59 1_555 1_555
H103 C59 1_555 1_555
C60 C57 1_555 1_555
H104 C60 1_555 1_555
H105 C60 1_555 1_555
H106 C60 1_555 1_555
C61 H107 1_555 1_555
H108 C61 1_555 1_555
H109 C61 1_555 1_555
C62 C58 1_555 1_555
H110 C62 1_555 1_555
H111 C62 1_555 1_555
H112 C62 1_555 1_555
C63 C64 1_555 1_555
C64 H113 1_555 1_555
C65 C64 1_555 1_555
H114 C65 1_555 1_555
C66 C65 1_555 1_555
C67 C66 1_555 1_555
H115 C67 1_555 1_555
C68 C63 1_555 1_555
H116 C68 1_555 1_555
C69 C66 1_555 1_555
C70 C69 1_555 1_555
H117 C70 1_555 1_555
H118 C70 1_555 1_555
H119 C70 1_555 1_555
C71 C69 1_555 1_555
H120 C71 1_555 1_555
H121 C71 1_555 1_555
H122 C71 1_555 1_555
C72 C69 1_555 1_555
H123 C72 1_555 1_555
H124 C72 1_555 1_555
H125 C72 1_555 1_555
C73 H126 1_555 1_555
C74 H127 1_555 1_555
H128 C74 1_555 1_555
H129 C74 1_555 1_555
C75 H130 1_555 1_555
H131 C75 1_555 1_555
H132 C75 1_555 1_555
B1 B2 1_555 1_555
B2 O3 1_555 1_555
B3 B4 1_555 1_555
B4 O9 1_555 1_555
B5 B6 1_555 1_555
B6 O15 1_555 1_555
K1 O1 1_555 1_555
K2 O2 1_555 1_555
K3 O8 1_555 1_555
N1 C23 1_555 1_555
N2 C48 1_555 1_555
N3 C73 1_555 1_555
O1 C1 1_555 1_555
O2 C2 1_555 1_555
O3 C7 1_555 1_555
O4 C8 1_555 1_555
O5 C13 1_555 1_555
O6 C23 1_555 1_555
O7 C26 1_555 1_555
O8 C27 1_555 1_555
O9 C32 1_555 1_555
O10 C33 1_555 1_555
O11 C38 1_555 1_555
O12 C48 1_555 1_555
O13 C51 1_555 1_555
O14 C52 1_555 1_555
O15 C57 1_555 1_555
O16 C58 1_555 1_555
O17 C63 1_555 1_555
O18 C73 1_555 1_555
K1A O14 1_555 1_555
O14A K1 1_555 1_555
O16A K1 1_555 1_555
O17A K1 1_555 1_555
C17 C18 1_555 1_555
C24 N1 1_555 1_555
C25 N1 1_555 1_555
C42 C43 1_555 1_555
C49 N2 1_555 1_555
C50 N2 1_555 1_555
C67 C68 1_555 1_555
C74 N3 1_555 1_555
C75 N3 1_555 1_555
B1 O1 1_555 1_555
B1 O2 1_555 1_555
B1 O5 1_555 1_555
B2 O4 1_555 1_555
B3 O7 1_555 1_555
B3 O8 1_555 1_555
B3 O11 1_555 1_555
B4 O10 1_555 1_555
B5 O13 1_555 1_555
B5 O14 1_555 1_555
B6 O16 1_555 1_555
B6 O17 1_555 1_555
K1 O3 1_555 1_555
K1 O6 1_555 1_555
K2 O4 1_555 1_555
K2 O5 1_555 1_555
K2 O7 1_555 1_555
K2 O9 1_555 1_555
K2 O12 1_555 1_555
K3 O10 1_555 1_555
K3 O11 1_555 1_555
K3 O13 1_555 1_555
K3 O15 1_555 1_555
K3 O18 1_555 1_555
O16 K1A 1_555 1_555
O17 K1A 1_555 1_555

#END
