
#######################################################################
#
#                 Cambridge Crystallographic Data Centre
#                                CCDC 
#
#######################################################################
#
# If this CIF has been generated from an entry in the Cambridge 
# Structural Database, then it will include bibliographic, chemical, 
# crystal, experimental, refinement or atomic coordinate data resulting 
# from the CCDC's data processing and validation procedures.
#
#######################################################################

data_MUJGII
_symmetry_cell_setting           tetragonal
_symmetry_space_group_name_H-M   'P -4 21 c'
_symmetry_Int_Tables_number      114
_space_group_name_Hall           'P -4 2n'
loop_
_symmetry_equiv_pos_site_id
_symmetry_equiv_pos_as_xyz
1 x,y,z
2 -x,-y,z
3 -y,x,-z
4 y,-x,-z
5 1/2-x,1/2+y,1/2-z
6 1/2+x,1/2-y,1/2-z
7 1/2+y,1/2+x,1/2+z
8 1/2-y,1/2-x,1/2+z
_cell_length_a                   10.9623(3)
_cell_length_b                   10.9623(3)
_cell_length_c                   6.3231(4)
_cell_angle_alpha                90
_cell_angle_beta                 90
_cell_angle_gamma                90
_cell_volume                     759.86
loop_
_atom_site_label
_atom_site_type_symbol
_atom_site_fract_x
_atom_site_fract_y
_atom_site_fract_z
Zn1 Zn 0.0000 1.0000 1.0000
Cu1 Cu 0.0000 0.5000 0.66766(6)
N1 N 0.03154(16) 0.85484(15) 0.8183(3)
C1 C -0.02245(19) 0.74603(17) 0.8189(4)
H1 H -0.084(3) 0.726(3) 0.889(5)
N2 N 0.02600(16) 0.66811(15) 0.6800(3)
C2 C 0.1180(2) 0.7325(2) 0.5822(4)
H2 H 0.171(3) 0.700(3) 0.470(6)
C3 C 0.1203(2) 0.8468(2) 0.6659(4)
H3 H 0.173(3) 0.908(3) 0.639(5)
Zn1_2 Zn 0.0000 0.0000 1.0000
Cu1B Cu -0.5000 1.0000 1.33234(6)
Cu1B_2 Cu 0.5000 1.0000 1.33234(6)
N1A N -0.03154(16) 0.14516(15) 0.8183(3)
N1B N 0.14516(15) 1.03154(16) 1.1817(3)
N1C N -0.14516(15) 0.96846(16) 1.1817(3)
N1A_2 N -0.03154(16) 1.14516(15) 0.8183(3)
C1A C 0.02245(19) 0.25397(17) 0.8189(4)
C1B C 0.25397(17) 0.97755(19) 1.1811(4)
C1C C -0.25397(17) 1.02245(19) 1.1811(4)
H1A H 0.084(3) 0.274(3) 0.889(5)
H1B H 0.274(3) 0.916(3) 1.111(5)
H1C H -0.274(3) 1.084(3) 1.111(5)
N2A N -0.02600(16) 0.33189(15) 0.6800(3)
N2B N 0.33189(15) 1.02600(16) 1.3200(3)
N2C N -0.33189(15) 0.97400(16) 1.3200(3)
N2B_2 N -0.66811(15) 1.02600(16) 1.3200(3)
C2A C -0.1180(2) 0.2675(2) 0.5822(4)
C2B C 0.2675(2) 1.1180(2) 1.4178(4)
C2C C -0.2675(2) 0.8820(2) 1.4178(4)
H2A H -0.171(3) 0.300(3) 0.470(6)
H2B H 0.300(3) 1.171(3) 1.530(6)
H2C H -0.300(3) 0.829(3) 1.530(6)
C3A C -0.1203(2) 0.1532(2) 0.6659(4)
C3B C 0.1532(2) 1.1203(2) 1.3341(4)
C3C C -0.1532(2) 0.8797(2) 1.3341(4)
H3A H -0.173(3) 0.092(3) 0.639(5)
H3B H 0.092(3) 1.173(3) 1.361(5)
H3C H -0.092(3) 0.827(3) 1.361(5)
loop_
_geom_bond_atom_site_label_1
_geom_bond_atom_site_label_2
_geom_bond_site_symmetry_1
_geom_bond_site_symmetry_2
Zn1 N1 1_555 1_555
Cu1 N2 1_555 1_555
N1 C1 1_555 1_555
C1 H1 1_555 1_555
N2 C1 1_555 1_555
C2 N2 1_555 1_555
H2 C2 1_555 1_555
C3 N1 1_555 1_555
H3 C3 1_555 1_555
Zn1_2 N1A 1_555 1_555
Cu1B N2C 1_555 1_555
Cu1B_2 N2B 1_555 1_555
N1A C1A 1_555 1_555
N1B Zn1 1_555 1_555
N1C Zn1 1_555 1_555
N1A_2 Zn1 1_555 1_555
C1A H1A 1_555 1_555
C1B N1B 1_555 1_555
C1C N1C 1_555 1_555
H1B C1B 1_555 1_555
H1C C1C 1_555 1_555
N2A Cu1 1_555 1_555
N2B C1B 1_555 1_555
N2C C1C 1_555 1_555
N2B_2 Cu1B 1_555 1_555
C2A N2A 1_555 1_555
C2B N2B 1_555 1_555
C2C N2C 1_555 1_555
H2A C2A 1_555 1_555
H2B C2B 1_555 1_555
H2C C2C 1_555 1_555
C3A N1A 1_555 1_555
C3B N1B 1_555 1_555
C3C N1C 1_555 1_555
H3A C3A 1_555 1_555
H3B C3B 1_555 1_555
H3C C3C 1_555 1_555
C2 C3 1_555 1_555
C1A N2A 1_555 1_555
C2A C3A 1_555 1_555
C2B C3B 1_555 1_555
C2C C3C 1_555 1_555

#END
