
#######################################################################
#
#                 Cambridge Crystallographic Data Centre
#                                CCDC 
#
#######################################################################
#
# If this CIF has been generated from an entry in the Cambridge 
# Structural Database, then it will include bibliographic, chemical, 
# crystal, experimental, refinement or atomic coordinate data resulting 
# from the CCDC's data processing and validation procedures.
#
#######################################################################

data_MUJRUF
_symmetry_cell_setting           monoclinic
_symmetry_space_group_name_H-M   'P 21/n'
_symmetry_Int_Tables_number      14
_space_group_name_Hall           '-P 2yn'
loop_
_symmetry_equiv_pos_site_id
_symmetry_equiv_pos_as_xyz
1 x,y,z
2 1/2-x,1/2+y,1/2-z
3 -x,-y,-z
4 1/2+x,1/2-y,1/2+z
_cell_length_a                   10.701(8)
_cell_length_b                   14.170(11)
_cell_length_c                   22.205(17)
_cell_angle_alpha                90
_cell_angle_beta                 98.117(13)
_cell_angle_gamma                90
_cell_volume                     3333.28
loop_
_atom_site_label
_atom_site_type_symbol
_atom_site_fract_x
_atom_site_fract_y
_atom_site_fract_z
Cd1 Cd 0.65195(7) 0.35279(5) 0.22034(4)
Cd2 Cd 1.05937(6) 0.59545(5) 0.29843(3)
O1 O 0.8128(8) 0.4601(6) 0.2443(4)
O2 O 0.8962(7) 0.5986(5) 0.2243(4)
O3 O 0.7441(8) 0.7726(5) 0.2031(4)
O4 O 0.8453(10) 0.7567(7) 0.1227(4)
O5 O 0.4705(6) 0.2623(5) 0.1946(3)
O6 O 0.4249(8) 0.3910(6) 0.2444(4)
O7 O 0.1454(7) 0.4543(5) 0.3018(4)
O8 O 0.1416(9) 0.4645(6) 0.2015(4)
O9 O 1.1683(9) -0.1196(5) 0.0468(4)
O10 O 1.162(2) -0.3279(10) 0.0524(6)
H1 H 1.1792 -0.3811 0.0656
O11 O 1.1562(8) 0.2693(6) 0.0681(4)
O12 O 1.2204(10) 0.4744(7) 0.0868(5)
H2 H 1.1831 0.4626 0.1157
N1 N 0.6185(8) 0.4857(6) 0.1545(4)
N2 N 0.5801(13) 0.6565(10) 0.0944(6)
N3 N 0.2710(7) 0.1701(6) 0.2295(4)
N4 N 0.0677(10) 0.2628(8) 0.2668(6)
N5 N 0.7597(9) 0.2625(7) 0.1568(5)
N6 N 1.4664(8) -0.0648(6) -0.1159(4)
C1 C 0.7034(9) 0.5569(7) 0.1666(5)
C2 C 0.6875(10) 0.6478(7) 0.1400(5)
C3 C 0.4954(13) 0.5840(10) 0.0807(6)
H3 H 0.4245 0.5912 0.0516
C4 C 0.5198(12) 0.4999(10) 0.1119(7)
H4 H 0.4636 0.4503 0.1025
C5 C 0.8163(9) 0.5363(7) 0.2152(5)
C6 C 0.7717(10) 0.7306(7) 0.1565(5)
C7 C 0.2710(9) 0.2648(7) 0.2326(5)
C8 C 0.1683(9) 0.3147(7) 0.2499(5)
C9 C 0.0711(10) 0.1644(8) 0.2647(6)
H5 H 0.0062 0.1286 0.2769
C10 C 0.1724(9) 0.1213(8) 0.2443(6)
H6 H 0.1725 0.0559 0.2406
C11 C 0.3947(8) 0.3100(7) 0.2226(5)
C12 C 0.1524(9) 0.4210(8) 0.2501(6)
C13 C 0.7945(10) 0.1749(8) 0.1728(5)
H7 H 0.7557 0.1453 0.2027
C14 C 0.8876(10) 0.1246(9) 0.1469(5)
H8 H 0.9065 0.0624 0.1580
C15 C 0.9497(10) 0.1691(8) 0.1049(5)
C16 C 0.9063(12) 0.2559(9) 0.0850(6)
H9 H 0.9393 0.2847 0.0530
C17 C 0.8155(12) 0.3005(9) 0.1113(6)
H10 H 0.7902 0.3604 0.0973
C18 C 1.0578(10) 0.1229(8) 0.0800(5)
C19 C 1.0654(10) 0.0235(8) 0.0779(5)
H11 H 1.0084 -0.0122 0.0962
C20 C 1.1570(10) -0.0232(8) 0.0488(5)
C21 C 1.2382(9) 0.0309(8) 0.0172(5)
C22 C 1.2354(10) 0.1299(8) 0.0246(5)
H12 H 1.2940 0.1660 0.0076
C23 C 1.1508(11) 0.1758(8) 0.0556(5)
C24 C 1.3177(10) -0.0051(7) -0.0272(4)
C25 C 1.3723(11) -0.0958(9) -0.0237(5)
H13 H 1.3623 -0.1367 0.0080
C26 C 1.4431(10) -0.1225(8) -0.0705(5)
H14 H 1.4754 -0.1835 -0.0697
C27 C 1.4132(11) 0.0212(8) -0.1175(5)
H15 H 1.4287 0.0634 -0.1477
C28 C 1.3374(10) 0.0488(8) -0.0764(5)
H16 H 1.2970 0.1069 -0.0819
C29 C 1.1135(15) -0.1724(9) 0.0906(7)
H17 H 1.0229 -0.1761 0.0783
H18 H 1.1282 -0.1399 0.1294
C30 C 1.1654(19) -0.2685(11) 0.0981(7)
H19 H 1.2533 -0.2621 0.1155
H20 H 1.1231 -0.2992 0.1287
C31 C 1.2089(16) 0.3296(10) 0.0277(6)
H21 H 1.1851 0.3083 -0.0139
H22 H 1.3002 0.3287 0.0368
C32 C 1.1607(17) 0.4277(10) 0.0349(7)
H23 H 1.1724 0.4643 -0.0008
H24 H 1.0708 0.4248 0.0369
Cd1A Cd 0.84805(7) 0.85279(5) 0.27966(4)
Cd2A Cd 0.44063(6) 0.09545(5) 0.20157(3)
Cd2_2 Cd 0.05937(6) 0.59545(5) 0.29843(3)
Cd2C Cd 1.55937(6) -0.09545(5) -0.20157(3)
O3A O 0.7559(8) 0.2726(5) 0.2969(4)
O5A O 1.0295(6) 0.7623(5) 0.3054(3)
O7_2 O 1.1454(7) 0.4543(5) 0.3018(4)
N3A N 1.2290(7) 0.6701(6) 0.2705(4)
N6C N 0.9664(8) 0.5648(6) 0.3841(4)
loop_
_geom_bond_atom_site_label_1
_geom_bond_atom_site_label_2
_geom_bond_site_symmetry_1
_geom_bond_site_symmetry_2
Cd1 O1 1_555 1_555
Cd2 O2 1_555 1_555
O1 C5 1_555 1_555
O2 C5 1_555 1_555
O3 C6 1_555 1_555
O4 C6 1_555 1_555
O5 Cd1 1_555 1_555
O6 Cd1 1_555 1_555
O7 C12 1_555 1_555
O8 C12 1_555 1_555
O9 C20 1_555 1_555
O10 H1 1_555 1_555
O11 C23 1_555 1_555
O12 H2 1_555 1_555
N1 Cd1 1_555 1_555
N2 C2 1_555 1_555
N3 C7 1_555 1_555
N4 C8 1_555 1_555
N5 Cd1 1_555 1_555
N6 C26 1_555 1_555
C1 N1 1_555 1_555
C2 C1 1_555 1_555
C3 N2 1_555 1_555
H3 C3 1_555 1_555
C4 N1 1_555 1_555
H4 C4 1_555 1_555
C5 C1 1_555 1_555
C6 C2 1_555 1_555
C7 C8 1_555 1_555
C8 C12 1_555 1_555
C9 N4 1_555 1_555
H5 C9 1_555 1_555
C10 N3 1_555 1_555
H6 C10 1_555 1_555
C11 O5 1_555 1_555
C13 N5 1_555 1_555
H7 C13 1_555 1_555
C14 C13 1_555 1_555
H8 C14 1_555 1_555
C15 C14 1_555 1_555
C16 C15 1_555 1_555
H9 C16 1_555 1_555
C17 N5 1_555 1_555
H10 C17 1_555 1_555
C18 C15 1_555 1_555
C19 C18 1_555 1_555
H11 C19 1_555 1_555
C20 C19 1_555 1_555
C21 C20 1_555 1_555
C22 C21 1_555 1_555
H12 C22 1_555 1_555
C23 C18 1_555 1_555
C24 C21 1_555 1_555
C25 C24 1_555 1_555
H13 C25 1_555 1_555
C26 C25 1_555 1_555
H14 C26 1_555 1_555
C27 N6 1_555 1_555
H15 C27 1_555 1_555
C28 C24 1_555 1_555
H16 C28 1_555 1_555
C29 O9 1_555 1_555
H17 C29 1_555 1_555
H18 C29 1_555 1_555
C30 O10 1_555 1_555
H19 C30 1_555 1_555
H20 C30 1_555 1_555
C31 O11 1_555 1_555
H21 C31 1_555 1_555
H22 C31 1_555 1_555
C32 O12 1_555 1_555
H23 C32 1_555 1_555
H24 C32 1_555 1_555
Cd1A O3 1_555 1_555
Cd2A O5 1_555 1_555
Cd2_2 O7 1_555 1_555
Cd2C N6 1_555 1_555
O3A Cd1 1_555 1_555
O5A Cd2 1_555 1_555
O7_2 Cd2 1_555 1_555
N3A Cd2 1_555 1_555
N6C Cd2 1_555 1_555
O6 C11 1_555 1_555
N3 Cd2A 1_555 1_555
C3 C4 1_555 1_555
C7 C11 1_555 1_555
C9 C10 1_555 1_555
C16 C17 1_555 1_555
C22 C23 1_555 1_555
C27 C28 1_555 1_555
C29 C30 1_555 1_555
C31 C32 1_555 1_555
Cd1A O5A 1_555 1_555

#END
