
#######################################################################
#
#                 Cambridge Crystallographic Data Centre
#                                CCDC 
#
#######################################################################
#
# If this CIF has been generated from an entry in the Cambridge 
# Structural Database, then it will include bibliographic, chemical, 
# crystal, experimental, refinement or atomic coordinate data resulting 
# from the CCDC's data processing and validation procedures.
#
#######################################################################

data_MUJSAL
_symmetry_cell_setting           triclinic
_symmetry_space_group_name_H-M   'P -1'
_symmetry_Int_Tables_number      2
_space_group_name_Hall           '-P 1'
loop_
_symmetry_equiv_pos_site_id
_symmetry_equiv_pos_as_xyz
1 x,y,z
2 -x,-y,-z
_cell_length_a                   7.4515(5)
_cell_length_b                   7.4727(5)
_cell_length_c                   7.6274(5)
_cell_angle_alpha                88.7750(10)
_cell_angle_beta                 62.9570(10)
_cell_angle_gamma                65.4040(10)
_cell_volume                     336.487
loop_
_atom_site_label
_atom_site_type_symbol
_atom_site_fract_x
_atom_site_fract_y
_atom_site_fract_z
Cu1 Cu 0.2735(1) 0.3759(1) 0.3914(1)
V1 V 0.0416(1) 0.7691(1) 0.2276(1)
V2 V 0.8718(1) 0.2541(1) 0.2516(1)
O1 O 0.6125(5) 0.2873(4) 0.3673(4)
O2 O 0.2630(4) 0.5835(4) 0.2294(4)
O3 O 0.2022(5) 0.1997(4) 0.5791(4)
O4 O 0.0941(4) 0.5889(4) 0.6264(4)
O5 O 0.0602(4) 0.9988(4) 0.2345(4)
O6 O 0.0475(5) 0.7080(4) -0.0003(4)
C1 C 0.5026(6) -0.0371(5) 0.1718(5)
C2 C 0.5860(6) -0.1941(5) 0.0163(5)
N1 N 0.4183(5) 0.1546(5) 0.1552(5)
H1 H 0.498(10) -0.0590(80) 0.2910(90)
H2 H 0.6480(80) -0.3280(70) 0.0270(80)
N1A N 0.5817(5) -0.1546(5) -0.1552(5)
C1A C 0.4974(6) 0.0371(5) -0.1718(5)
C2A C 0.4140(6) 0.1941(5) -0.0163(5)
H2A H 0.3520(80) 0.3280(70) -0.0270(80)
H1A H 0.502(10) 0.0590(80) -0.2910(90)
Cu1A Cu 0.7265(1) -0.3759(1) -0.3914(1)
V1A V -0.0416(1) 0.2309(1) 0.7724(1)
V2A V 0.1282(1) 0.7459(1) 0.7484(1)
O3A O -0.2022(5) 0.8003(4) 0.4209(4)
O4A O 0.9059(4) 0.4111(4) 0.3736(4)
O5_2 O 1.0602(4) -0.0012(4) 0.2345(4)
O6A O 0.9525(5) 0.2920(4) 0.0003(4)
O1A O 0.3875(5) -0.2873(4) -0.3673(4)
O2A O 0.7370(4) -0.5835(4) -0.2294(4)
Cu1A_2 Cu -0.2735(1) 0.6241(1) 0.6086(1)
V2_2 V -0.1282(1) 1.2541(1) 0.2516(1)
V2A_2 V 0.1282(1) 0.7459(1) -0.2516(1)
Cu1_2 Cu 1.2735(1) -0.6241(1) -0.6086(1)
O3A_2 O 0.7978(5) -0.1997(4) -0.5791(4)
O4A_2 O 0.9059(4) -0.5889(4) -0.6264(4)
O2A_2 O -0.2630(4) 0.4165(4) 0.7706(4)
O5A O -0.0602(4) 0.0012(4) 0.7655(4)
O6A_2 O -0.0475(5) 0.2920(4) 1.0003(4)
O1A_2 O 0.3875(5) 0.7127(4) 0.6327(4)
O5A_2 O -0.0602(4) 1.0012(4) 0.7655(4)
O6_2 O 0.0475(5) 0.7080(4) 0.9997(4)
Cu1A_3 Cu 0.7265(1) 0.6241(1) 0.6086(1)
V1_2 V 1.0416(1) -0.2309(1) 0.2276(1)
V1A_2 V 0.9584(1) 0.2309(1) -0.2276(1)
loop_
_geom_bond_atom_site_label_1
_geom_bond_atom_site_label_2
_geom_bond_site_symmetry_1
_geom_bond_site_symmetry_2
Cu1 O1 1_555 1_555
V1 O2 1_555 1_555
V2 O1 1_555 1_555
O2 Cu1 1_555 1_555
O3 Cu1 1_555 1_555
O4 Cu1 1_555 1_555
O5 V1 1_555 1_555
O6 V1 1_555 1_555
C1 C2 1_555 1_555
C2 H2 1_555 1_555
N1 Cu1 1_555 1_555
H1 C1 1_555 1_555
N1A C2 1_555 1_555
C1A N1A 1_555 1_555
C2A N1 1_555 1_555
H2A C2A 1_555 1_555
H1A C1A 1_555 1_555
Cu1A N1A 1_555 1_555
V1A O3 1_555 1_555
V2A O4 1_555 1_555
O3A V1 1_555 1_555
O4A V2 1_555 1_555
O5_2 V2 1_555 1_555
O6A V2 1_555 1_555
O1A Cu1A 1_555 1_555
O2A Cu1A 1_555 1_555
Cu1A_2 Cu1 1_555 1_555
V2_2 O5 1_555 1_555
V2A_2 O6 1_555 1_555
Cu1_2 Cu1A 1_555 1_555
O3A_2 Cu1A 1_555 1_555
O4A_2 Cu1A 1_555 1_555
O2A_2 V1A 1_555 1_555
O5A V1A 1_555 1_555
O6A_2 V1A 1_555 1_555
O1A_2 V2A 1_555 1_555
O5A_2 V2A 1_555 1_555
O6_2 V2A 1_555 1_555
Cu1A_3 O4A 1_555 1_555
V1_2 O5_2 1_555 1_555
V1A_2 O6A 1_555 1_555
C1 N1 1_555 1_555
C1A C2A 1_555 1_555
O3A Cu1A_2 1_555 1_555
Cu1A_2 O2A_2 1_555 1_555
O1A_2 Cu1A_3 1_555 1_555

#END
