
#######################################################################
#
#                 Cambridge Crystallographic Data Centre
#                                CCDC 
#
#######################################################################
#
# If this CIF has been generated from an entry in the Cambridge 
# Structural Database, then it will include bibliographic, chemical, 
# crystal, experimental, refinement or atomic coordinate data resulting 
# from the CCDC's data processing and validation procedures.
#
#######################################################################

data_MUJSIT
_symmetry_cell_setting           triclinic
_symmetry_space_group_name_H-M   'P -1'
_symmetry_Int_Tables_number      2
_space_group_name_Hall           '-P 1'
loop_
_symmetry_equiv_pos_site_id
_symmetry_equiv_pos_as_xyz
1 x,y,z
2 -x,-y,-z
_cell_length_a                   7.5692(19)
_cell_length_b                   7.817(2)
_cell_length_c                   8.422(2)
_cell_angle_alpha                62.998(4)
_cell_angle_beta                 64.744(4)
_cell_angle_gamma                66.963(5)
_cell_volume                     389.293
loop_
_atom_site_label
_atom_site_type_symbol
_atom_site_fract_x
_atom_site_fract_y
_atom_site_fract_z
Cu1 Cu 0.5000 0.5000 1.0000
Cu2 Cu 0.3183(1) 0.6424(1) 0.6767(1)
V1 V 0.3949(1) 0.9777(1) 0.7723(1)
V2 V 0.1868(1) 0.1760(1) 1.1175(1)
O1 O 0.3797(4) 0.7419(4) 0.8201(4)
O2 O 0.6429(5) 0.9733(4) 0.7447(4)
O3 O 0.3352(5) 1.1317(5) 0.5874(4)
O4 O 0.2235(5) 1.0612(4) 0.9608(4)
O5 O 0.0488(4) 0.8014(4) 0.7403(4)
O6 O 0.2400(5) 0.3921(4) 0.9971(4)
C1 C 0.1350(6) 0.6785(6) 1.2669(6)
C2 C 0.0973(7) 0.7002(6) 1.4324(6)
N1 N 0.3275(5) 0.5794(5) 1.2175(5)
N2 N 0.4085(5) 0.5374(5) 1.3477(5)
N3 N 0.2683(5) 0.6112(5) 1.4808(5)
H1 H 0.0510(80) 0.7230(80) 1.1850(70)
H2 H -0.0140(80) 0.7740(70) 1.4900(70)
O1A O 0.6203(4) 0.2581(4) 1.1799(4)
O6A O 0.7600(5) 0.6079(4) 1.0029(4)
C1A C 0.8650(6) 0.3215(6) 0.7331(6)
C2A C 0.9027(7) 0.2998(6) 0.5676(6)
N1A N 0.6725(5) 0.4206(5) 0.7825(5)
N2A N 0.5915(5) 0.4626(5) 0.6523(5)
N3A N 0.7317(5) 0.3888(5) 0.5192(5)
H1A H 0.9490(80) 0.2770(80) 0.8150(70)
H2A H 1.0140(80) 0.2260(70) 0.5100(70)
Cu2A Cu 0.6817(1) 0.3576(1) 1.3233(1)
V1A V 0.6051(1) 0.0223(1) 1.2277(1)
V2A V 0.8132(1) 0.8240(1) 0.8825(1)
O2A O 0.3571(5) 0.0267(4) 1.2553(4)
O4_2 O 0.2235(5) 0.0612(4) 0.9608(4)
O5A O -0.0488(4) 0.1986(4) 1.2597(4)
O3A O 0.6648(5) -0.1317(5) 1.4126(4)
N3_2 N 0.2683(5) 0.6112(5) 0.4808(5)
V2_2 V 0.1868(1) 1.1760(1) 1.1175(1)
V2A_2 V -0.1868(1) 0.8240(1) 0.8825(1)
Cu2_2 Cu 0.3183(1) 0.6424(1) 1.6767(1)
Cu2A_2 Cu 0.6817(1) 0.3576(1) 0.3233(1)
O5A_2 O 0.9512(4) 0.1986(4) 1.2597(4)
N3A_2 N 0.7317(5) 0.3888(5) 1.5192(5)
O4A O 0.7765(5) -0.0612(4) 1.0392(4)
O4A_2 O 0.7765(5) 0.9388(4) 1.0392(4)
O5_2 O 1.0488(4) 0.8014(4) 0.7403(4)
V1_2 V 0.3949(1) -0.0223(1) 0.7723(1)
Cu2A_3 Cu -0.3183(1) 0.3576(1) 1.3233(1)
loop_
_geom_bond_atom_site_label_1
_geom_bond_atom_site_label_2
_geom_bond_site_symmetry_1
_geom_bond_site_symmetry_2
Cu1 O1 1_555 1_555
Cu2 O1 1_555 1_555
V1 O1 1_555 1_555
V2 O6 1_555 1_555
O2 V1 1_555 1_555
O3 V1 1_555 1_555
O4 V1 1_555 1_555
O5 Cu2 1_555 1_555
O6 Cu1 1_555 1_555
C1 C2 1_555 1_555
C2 N3 1_555 1_555
N1 Cu1 1_555 1_555
N2 N1 1_555 1_555
N3 N2 1_555 1_555
H1 C1 1_555 1_555
H2 C2 1_555 1_555
O1A Cu1 1_555 1_555
O6A Cu1 1_555 1_555
C1A C2A 1_555 1_555
C2A N3A 1_555 1_555
N1A Cu1 1_555 1_555
N2A Cu2 1_555 1_555
N3A N2A 1_555 1_555
H1A C1A 1_555 1_555
H2A C2A 1_555 1_555
Cu2A N2 1_555 1_555
V1A O1A 1_555 1_555
V2A O2 1_555 1_555
O2A V2 1_555 1_555
O4_2 V2 1_555 1_555
O5A V2 1_555 1_555
O3A V1A 1_555 1_555
N3_2 Cu2 1_555 1_555
V2_2 O4 1_555 1_555
V2A_2 O5 1_555 1_555
Cu2_2 N3 1_555 1_555
Cu2A_2 N3A 1_555 1_555
O5A_2 Cu2A 1_555 1_555
N3A_2 Cu2A 1_555 1_555
O4A V1A 1_555 1_555
O4A_2 V2A 1_555 1_555
O5_2 V2A 1_555 1_555
V1_2 O4_2 1_555 1_555
Cu2A_3 O5A 1_555 1_555
Cu2 O6 1_555 1_555
C1 N1 1_555 1_555
O1A Cu2A 1_555 1_555
O6A V2A 1_555 1_555
O6A Cu2A 1_555 1_555
C1A N1A 1_555 1_555
N1A N2A 1_555 1_555
V1A O2A 1_555 1_555

#END
