
#######################################################################
#
#                 Cambridge Crystallographic Data Centre
#                                CCDC 
#
#######################################################################
#
# If this CIF has been generated from an entry in the Cambridge 
# Structural Database, then it will include bibliographic, chemical, 
# crystal, experimental, refinement or atomic coordinate data resulting 
# from the CCDC's data processing and validation procedures.
#
#######################################################################

data_MUJYEX
_symmetry_cell_setting           monoclinic
_symmetry_space_group_name_H-M   'P 21'
_symmetry_Int_Tables_number      4
_space_group_name_Hall           'P 2yb'
loop_
_symmetry_equiv_pos_site_id
_symmetry_equiv_pos_as_xyz
1 x,y,z
2 -x,1/2+y,-z
_cell_length_a                   5.658(5)
_cell_length_b                   8.337(5)
_cell_length_c                   11.319(5)
_cell_angle_alpha                90
_cell_angle_beta                 96.25(2)
_cell_angle_gamma                90
_cell_volume                     530.752
loop_
_atom_site_label
_atom_site_type_symbol
_atom_site_fract_x
_atom_site_fract_y
_atom_site_fract_z
Co1 Co 0.2587(2) 0.1931(2) 0.75940(8)
O1 O 0.1251(13) 0.2372(8) 0.5892(5)
O2 O 0.3446(11) 0.1499(8) 0.9450(5)
O3 O 0.4467(12) -0.1571(9) 1.2324(6)
O4 O 0.7749(11) -0.0349(10) 1.2017(6)
O5 O 0.5953(13) 0.4755(9) 1.2883(5)
N1 N 0.1918(14) 0.0976(10) 1.1162(6)
H1 H 0.0658 0.0748 1.1490
N2 N -0.0689(14) 0.1127(12) 0.8095(7)
H2 H -0.1843 0.1984 0.7948
H3 H -0.1231 0.0235 0.7586
C1 C 0.1749(17) 0.1069(12) 0.9981(7)
C2 C 0.4128(17) 0.1243(12) 1.1930(7)
H4 H 0.5069 0.2059 1.1569
O6 O 0.8750(16) 0.4269(10) 1.4385(7)
C3 C 0.3524(15) 0.1859(19) 1.3155(6)
H5 H 0.2483 0.2782 1.3032
H6 H 0.2663 0.1028 1.3529
C4 C 0.5697(18) 0.2328(13) 1.3990(7)
H7 H 0.6862 0.1475 1.3983
H8 H 0.5235 0.2387 1.4790
C5 C 0.5562(16) -0.0295(13) 1.2080(7)
C6 C 0.6886(19) 0.3886(13) 1.3727(8)
C7 C -0.0665(19) 0.0626(17) 0.9309(9)
H9 H 0.1897 0.1863 0.5180
H10 H 0.1350 0.3135 0.5421
Co1A Co 0.7413(2) -0.3069(2) 1.24060(8)
Co1A_2 Co 0.7413(2) 0.6931(2) 1.24060(8)
O3A O 0.5533(12) 0.3429(9) 0.7676(6)
O4A O 0.2251(11) 0.4651(10) 0.7983(6)
O5A O 0.4047(13) -0.0245(9) 0.7117(5)
loop_
_geom_bond_atom_site_label_1
_geom_bond_atom_site_label_2
_geom_bond_site_symmetry_1
_geom_bond_site_symmetry_2
Co1 O1 1_555 1_555
O1 H9 1_555 1_555
O2 Co1 1_555 1_555
O3 C5 1_555 1_555
O4 C5 1_555 1_555
O5 C6 1_555 1_555
N1 H1 1_555 1_555
N2 Co1 1_555 1_555
H2 N2 1_555 1_555
H3 N2 1_555 1_555
C1 O2 1_555 1_555
C2 N1 1_555 1_555
H4 C2 1_555 1_555
O6 C6 1_555 1_555
C3 C2 1_555 1_555
H5 C3 1_555 1_555
H6 C3 1_555 1_555
C4 C3 1_555 1_555
H7 C4 1_555 1_555
H8 C4 1_555 1_555
C5 C2 1_555 1_555
C6 C4 1_555 1_555
C7 N2 1_555 1_555
H10 O1 1_555 1_555
Co1A O3 1_555 1_555
Co1A_2 O5 1_555 1_555
O3A Co1 1_555 1_555
O4A Co1 1_555 1_555
O5A Co1 1_555 1_555
O4 Co1A 1_555 1_555
N1 C1 1_555 1_555
C1 C7 1_555 1_555

#END
