
#######################################################################
#
#                 Cambridge Crystallographic Data Centre
#                                CCDC 
#
#######################################################################
#
# If this CIF has been generated from an entry in the Cambridge 
# Structural Database, then it will include bibliographic, chemical, 
# crystal, experimental, refinement or atomic coordinate data resulting 
# from the CCDC's data processing and validation procedures.
#
#######################################################################

data_MUJYUN
_symmetry_cell_setting           triclinic
_symmetry_space_group_name_H-M   'P 1'
_symmetry_Int_Tables_number      1
_space_group_name_Hall           'P 1'
loop_
_symmetry_equiv_pos_site_id
_symmetry_equiv_pos_as_xyz
1 x,y,z
_cell_length_a                   5.471(6)
_cell_length_b                   9.501(6)
_cell_length_c                   18.045(6)
_cell_angle_alpha                77.39(3)
_cell_angle_beta                 83.99(3)
_cell_angle_gamma                89.86(3)
_cell_volume                     910.121
loop_
_atom_site_label
_atom_site_type_symbol
_atom_site_fract_x
_atom_site_fract_y
_atom_site_fract_z
Co1 Co 0.8790(3) 0.9373(2) 0.64830(15)
Co2 Co 0.5804(3) 0.5641(2) 0.34496(15)
O1 O 0.622(3) 0.4823(15) 0.4675(8)
O2 O 0.828(2) 0.9604(15) 0.5262(8)
O3 O 0.639(3) 0.7691(15) 0.6736(8)
N1 N 0.428(3) 0.3564(16) 0.5792(9)
H1 H 0.2876 0.3229 0.6021
O4 O 0.606(2) 0.0921(13) 0.6483(7)
O5 O 0.811(3) 1.4200(15) 0.3194(8)
N2 N 1.030(3) 0.9299(18) 0.4143(9)
H2 H 1.1717 0.9176 0.3916
O6 O 0.851(2) 0.7158(13) 0.3495(7)
O7 O 0.977(2) 0.1855(16) 0.6327(8)
O8 O 0.478(2) 0.7986(15) 0.3626(8)
C1 C 1.012(3) 0.921(2) 0.4889(11)
C2 C 0.549(4) 0.371(2) 0.7053(11)
H3 H 0.4006 0.3133 0.7245
H4 H 0.6723 0.3394 0.7398
C3 C 0.820(3) 0.959(2) 0.3672(12)
H5 H 0.6952 1.0120 0.3925
O9 O 0.918(3) 0.599(2) 0.6829(17)
N3 N 0.228(3) 0.4970(17) 0.3908(9)
H6 H 0.1340 0.5808 0.3977
H7 H 0.1514 0.4544 0.3546
C4 C 0.448(3) 0.415(2) 0.5033(10)
O10 O 0.546(3) 1.255(2) 0.3062(17)
C5 C 0.642(3) 0.349(2) 0.6241(10)
H8 H 0.7650 0.4237 0.5988
C6 C 0.896(4) 1.045(2) 0.2898(12)
H9 H 0.7630 1.0436 0.2583
H10 H 1.0367 1.0004 0.2675
C7 C 0.756(4) 1.298(3) 0.3084(15)
C8 C 0.213(4) 0.391(2) 0.4648(12)
C9 C 0.965(4) 1.208(2) 0.2894(15)
H11 H 1.0844 1.2074 0.3256
H12 H 1.0444 1.2524 0.2391
C10 C 0.690(4) 0.635(3) 0.6865(14)
C11 C 1.232(4) 0.861(2) 0.5299(11)
H13 H 1.2262 0.7562 0.5404
H14 H 1.3838 0.8940 0.4978
C12 C 0.709(3) 0.818(2) 0.3603(11)
N4 N 1.313(5) 0.761(3) 1.0053(19)
N5 N 1.226(3) 0.9099(18) 0.6015(8)
H15 H 1.3170 1.0006 0.5921
H16 H 1.3077 0.8400 0.6379
N6 N 1.166(8) 0.825(4) 0.9886(16)
C13 C 0.753(3) 0.2023(19) 0.6316(9)
C14 C 1.598(3) 0.654(3) 1.0959(8)
H17 H 1.7060 0.6377 1.0556
C15 C 1.374(4) 0.719(3) 1.0818(7)
C16 C 1.212(3) 0.744(3) 1.1421(9)
H18 H 1.0623 0.7868 1.1326
C17 C 1.274(3) 0.704(2) 1.2165(8)
H19 H 1.1654 0.7202 1.2568
N7 N 1.497(2) 0.6391(19) 1.2306(6)
C18 C 1.659(3) 0.614(3) 1.1703(9)
H20 H 1.8090 0.5712 1.1797
C19 C 0.494(4) 0.530(2) 0.7032(12)
H21 H 0.3785 0.5604 0.6659
H22 H 0.4098 0.5353 0.7526
C20 C 1.060(6) 1.0253(19) 0.7916(12)
H23 H 1.0496 1.1202 0.7649
C21 C 1.151(7) 0.996(3) 0.8624(14)
H24 H 1.2010 1.0713 0.8831
C22 C 1.168(8) 0.854(3) 0.9022(13)
C23 C 1.093(8) 0.742(2) 0.8713(15)
H25 H 1.1041 0.6466 0.8980
C24 C 1.002(6) 0.7708(19) 0.8005(13)
H26 H 0.9526 0.6955 0.7799
N8 N 0.986(3) 0.913(2) 0.7607(8)
Co1_2 Co 0.8790(3) -0.0627(2) 0.64830(15)
Co2_2 Co 0.5804(3) 1.5641(2) 0.34496(15)
Co2_3 Co 1.5804(3) 0.5641(2) 1.34496(15)
O4_2 O 0.606(2) 1.0921(13) 0.6483(7)
O5_2 O 0.811(3) 0.4200(15) 0.3194(8)
O7_2 O 0.977(2) 1.1855(16) 0.6327(8)
N7_2 N 0.497(2) 0.6391(19) 0.2306(6)
O11 O 0.983(8) 0.377(5) 0.842(3)
O12 O 0.467(8) 0.204(10) 0.155(2)
loop_
_geom_bond_atom_site_label_1
_geom_bond_atom_site_label_2
_geom_bond_site_symmetry_1
_geom_bond_site_symmetry_2
Co1 O2 1_555 1_555
Co2 O1 1_555 1_555
O1 C4 1_555 1_555
O2 C1 1_555 1_555
O3 Co1 1_555 1_555
N1 H1 1_555 1_555
O4 C13 1_555 1_555
O5 C7 1_555 1_555
N2 H2 1_555 1_555
O6 Co2 1_555 1_555
O7 C13 1_555 1_555
O8 Co2 1_555 1_555
C1 N2 1_555 1_555
C2 H3 1_555 1_555
H4 C2 1_555 1_555
C3 N2 1_555 1_555
H5 C3 1_555 1_555
O9 C10 1_555 1_555
N3 Co2 1_555 1_555
H6 N3 1_555 1_555
H7 N3 1_555 1_555
C4 N1 1_555 1_555
O10 C7 1_555 1_555
C5 N1 1_555 1_555
H8 C5 1_555 1_555
C6 C3 1_555 1_555
H9 C6 1_555 1_555
H10 C6 1_555 1_555
C7 C9 1_555 1_555
C8 N3 1_555 1_555
C9 C6 1_555 1_555
H11 C9 1_555 1_555
H12 C9 1_555 1_555
C10 O3 1_555 1_555
C11 C1 1_555 1_555
H13 C11 1_555 1_555
H14 C11 1_555 1_555
C12 O6 1_555 1_555
N4 N6 1_555 1_555
N5 Co1 1_555 1_555
H15 N5 1_555 1_555
H16 N5 1_555 1_555
N6 C22 1_555 1_555
C13 C5 1_555 1_555
C14 H17 1_555 1_555
C15 N4 1_555 1_555
C16 C15 1_555 1_555
H18 C16 1_555 1_555
C17 C16 1_555 1_555
H19 C17 1_555 1_555
N7 C17 1_555 1_555
C18 C14 1_555 1_555
H20 C18 1_555 1_555
C19 C2 1_555 1_555
H21 C19 1_555 1_555
H22 C19 1_555 1_555
C20 H23 1_555 1_555
C21 C20 1_555 1_555
H24 C21 1_555 1_555
C22 C21 1_555 1_555
C23 C22 1_555 1_555
H25 C23 1_555 1_555
C24 C23 1_555 1_555
H26 C24 1_555 1_555
N8 Co1 1_555 1_555
Co1_2 O4 1_555 1_555
Co2_2 O5 1_555 1_555
Co2_3 N7 1_555 1_555
O4_2 Co1 1_555 1_555
O5_2 Co2 1_555 1_555
O7_2 Co1 1_555 1_555
N7_2 Co2 1_555 1_555
O7 Co1_2 1_555 1_555
O8 C12 1_555 1_555
C2 C5 1_555 1_555
C3 C12 1_555 1_555
C4 C8 1_555 1_555
C10 C19 1_555 1_555
C11 N5 1_555 1_555
C14 C15 1_555 1_555
N7 C18 1_555 1_555
C20 N8 1_555 1_555
C24 N8 1_555 1_555

#END
