
#######################################################################
#
#                 Cambridge Crystallographic Data Centre
#                                CCDC 
#
#######################################################################
#
# If this CIF has been generated from an entry in the Cambridge 
# Structural Database, then it will include bibliographic, chemical, 
# crystal, experimental, refinement or atomic coordinate data resulting 
# from the CCDC's data processing and validation procedures.
#
#######################################################################

data_MUJZAU
_symmetry_cell_setting           triclinic
_symmetry_space_group_name_H-M   'P 1'
_symmetry_Int_Tables_number      1
_space_group_name_Hall           'P 1'
loop_
_symmetry_equiv_pos_site_id
_symmetry_equiv_pos_as_xyz
1 x,y,z
_cell_length_a                   5.430(5)
_cell_length_b                   9.490(5)
_cell_length_c                   17.100(5)
_cell_angle_alpha                101.78(3)
_cell_angle_beta                 95.90(3)
_cell_angle_gamma                91.40(3)
_cell_volume                     857.113
loop_
_atom_site_label
_atom_site_type_symbol
_atom_site_fract_x
_atom_site_fract_y
_atom_site_fract_z
Co1 Co 0.28925(18) 0.75932(12) 0.48589(8)
Co2 Co -0.01666(16) 1.37898(11) 0.81188(7)
O1 O 0.2335(14) 0.8443(8) 0.6142(5)
O2 O 0.3881(12) 0.5289(8) 0.5148(4)
O3 O -0.1078(12) 1.1348(7) 0.7861(4)
O4 O 0.0343(14) 0.3572(8) 0.6827(4)
O5 O 0.0170(14) 0.6035(8) 0.4918(5)
O6 O 0.2683(13) 1.2315(7) 0.8105(4)
N1 N 0.6444(16) 0.8309(9) 0.5380(5)
H1 H 0.7358 0.7494 0.5492
H2 H 0.7294 0.8725 0.5002
N2 N 0.4380(15) 0.9698(9) 0.7315(5)
H3 H 0.5801 1.0058 0.7549
O7 O 0.0596(14) -0.0946(8) 0.4568(5)
N3 N 1.8454(17) 0.3905(10) -0.0755(5)
O8 O 0.2120(14) 0.5527(8) 0.8349(5)
N4 N 0.4211(19) 0.6915(11) 0.3716(6)
N5 N -0.3680(15) 0.4151(10) 0.7611(5)
C1 C 0.2312(17) 0.9762(10) 0.7805(6)
H4 H 0.1026 0.9030 0.7537
O9 O 0.3320(17) 0.0815(10) 0.4554(9)
C2 C 0.0462(19) 0.3667(10) 0.5183(6)
H5 H 0.1715 0.3165 0.5463
N6 N -0.1637(15) 0.3932(10) 0.5647(5)
H6 H -0.3043 0.4087 0.5407
C3 C 0.1229(19) 1.1233(11) 0.7911(6)
C4 C 0.643(2) 0.9370(12) 0.6116(6)
H7 H 0.6408 1.0326 0.5997
H8 H 0.7926 0.9317 0.6469
C5 C -0.105(2) 0.1230(13) 0.4306(8)
C6 C 0.381(2) 0.7922(11) 0.8623(7)
H9 H 0.4915 0.7616 0.8216
H10 H 0.4710 0.7894 0.9140
C7 C -0.1467(19) 0.3946(11) 0.6437(6)
C8 C 0.4209(19) 0.9118(10) 0.6529(6)
C9 C 0.167(2) 0.6856(11) 0.8478(7)
C10 C 1.793(2) 0.2787(12) -0.0413(7)
H11 H 1.8703 0.1931 -0.0580
N7 N 1.212(2) 0.5269(17) 0.1194(6)
C11 C 0.112(2) 0.0327(12) 0.4511(7)
C12 C 0.1573(19) 0.5123(11) 0.5093(6)
C13 C 0.321(2) 0.9469(12) 0.8619(6)
H12 H 0.4680 1.0080 0.8836
H13 H 0.1944 0.9743 0.8976
C14 C 0.746(2) 0.6449(14) 0.2534(6)
C15 C 1.633(2) 0.2821(14) 0.0167(7)
H14 H 1.6055 0.2018 0.0385
N8 N 1.049(2) 0.5154(17) 0.1775(6)
C16 C 1.746(3) 0.5142(15) -0.0475(8)
H15 H 1.7901 0.5958 -0.0660
C17 C -0.377(2) 0.4546(17) 0.6837(7)
H16 H -0.3747 0.5586 0.6903
H17 H -0.5274 0.4142 0.6504
C18 C 1.570(3) 0.5252(15) 0.0115(8)
H18 H 1.4955 0.6118 0.0286
C19 C 1.514(2) 0.4082(16) 0.0414(8)
C20 C 0.545(3) 0.5702(15) 0.3521(8)
H19 H 0.5204 0.4989 0.3809
C21 C 0.466(3) 0.7905(13) 0.3283(9)
H20 H 0.3863 0.8770 0.3378
C22 C -0.034(2) 0.2772(12) 0.4350(6)
H21 H -0.1744 0.3216 0.4114
H22 H 0.1000 0.2812 0.4021
C23 C 0.696(3) 0.5428(18) 0.2967(8)
H23 H 0.7699 0.4545 0.2867
C24 C 0.627(3) 0.7679(15) 0.2705(8)
H24 H 0.6542 0.8399 0.2424
C25 C 0.932(3) 0.6306(17) 0.1944(7)
H25 H 0.9642 0.7068 0.1698
C26 C 1.334(3) 0.4144(17) 0.0990(8)
H26 H 1.3064 0.3347 0.1215
O10 O -0.0494(17) 0.7308(10) 0.8475(8)
Co1_2 Co 0.28925(18) -0.24068(12) 0.48589(8)
Co2_2 Co -0.01666(16) 0.37898(11) 0.81188(7)
Co2_3 Co 1.98334(16) 0.37898(11) -0.18812(7)
O4_2 O 0.0343(14) 1.3572(8) 0.6827(4)
O7_2 O 0.0596(14) 0.9054(8) 0.4568(5)
N3_2 N -0.1546(17) 1.3905(10) 0.9245(5)
O8_2 O 0.2120(14) 1.5527(8) 0.8349(5)
N5_2 N -0.3680(15) 1.4151(10) 0.7611(5)
O11 O -0.106(4) 0.931(3) 0.9933(14)
O12 O 0.406(6) 1.162(4) 0.298(2)
O13 O 0.979(5) 0.216(3) 0.2140(16)
loop_
_geom_bond_atom_site_label_1
_geom_bond_atom_site_label_2
_geom_bond_site_symmetry_1
_geom_bond_site_symmetry_2
Co1 O1 1_555 1_555
Co2 O3 1_555 1_555
O1 C8 1_555 1_555
O2 Co1 1_555 1_555
O3 C3 1_555 1_555
O4 C7 1_555 1_555
O5 Co1 1_555 1_555
O6 Co2 1_555 1_555
N1 Co1 1_555 1_555
H1 N1 1_555 1_555
H2 N1 1_555 1_555
N2 H3 1_555 1_555
O7 C11 1_555 1_555
N3 C10 1_555 1_555
O8 C9 1_555 1_555
N4 Co1 1_555 1_555
N5 C17 1_555 1_555
C1 N2 1_555 1_555
H4 C1 1_555 1_555
O9 C11 1_555 1_555
C2 H5 1_555 1_555
N6 C2 1_555 1_555
H6 N6 1_555 1_555
C3 O6 1_555 1_555
C4 N1 1_555 1_555
H7 C4 1_555 1_555
H8 C4 1_555 1_555
C5 C11 1_555 1_555
C6 H9 1_555 1_555
H10 C6 1_555 1_555
C7 N6 1_555 1_555
C8 N2 1_555 1_555
C9 C6 1_555 1_555
C10 H11 1_555 1_555
N7 N8 1_555 1_555
C12 O2 1_555 1_555
C13 C1 1_555 1_555
H12 C13 1_555 1_555
H13 C13 1_555 1_555
C14 C23 1_555 1_555
C15 C10 1_555 1_555
H14 C15 1_555 1_555
N8 C25 1_555 1_555
C16 N3 1_555 1_555
H15 C16 1_555 1_555
C17 C7 1_555 1_555
H16 C17 1_555 1_555
H17 C17 1_555 1_555
C18 C16 1_555 1_555
H18 C18 1_555 1_555
C19 C15 1_555 1_555
C20 N4 1_555 1_555
H19 C20 1_555 1_555
C21 N4 1_555 1_555
H20 C21 1_555 1_555
C22 C2 1_555 1_555
H21 C22 1_555 1_555
H22 C22 1_555 1_555
C23 C20 1_555 1_555
H23 C23 1_555 1_555
C24 C14 1_555 1_555
H24 C24 1_555 1_555
C25 C14 1_555 1_555
H25 C25 1_555 1_555
C26 N7 1_555 1_555
H26 C26 1_555 1_555
O10 C9 1_555 1_555
Co1_2 O7 1_555 1_555
Co2_2 O4 1_555 1_555
Co2_3 N3 1_555 1_555
O4_2 Co2 1_555 1_555
O7_2 Co1 1_555 1_555
N3_2 Co2 1_555 1_555
O8_2 Co2 1_555 1_555
N5_2 Co2 1_555 1_555
O5 C12 1_555 1_555
O8 Co2_2 1_555 1_555
N5 Co2_2 1_555 1_555
C1 C3 1_555 1_555
C2 C12 1_555 1_555
C4 C8 1_555 1_555
C5 C22 1_555 1_555
C6 C13 1_555 1_555
C18 C19 1_555 1_555
C19 C26 1_555 1_555
C21 C24 1_555 1_555

#END
