
#######################################################################
#
#                 Cambridge Crystallographic Data Centre
#                                CCDC 
#
#######################################################################
#
# If this CIF has been generated from an entry in the Cambridge 
# Structural Database, then it will include bibliographic, chemical, 
# crystal, experimental, refinement or atomic coordinate data resulting 
# from the CCDC's data processing and validation procedures.
#
#######################################################################

data_MUKFAB
_symmetry_cell_setting           monoclinic
_symmetry_space_group_name_H-M   'P 21/c'
_symmetry_Int_Tables_number      14
_space_group_name_Hall           '-P 2ybc'
loop_
_symmetry_equiv_pos_site_id
_symmetry_equiv_pos_as_xyz
1 x,y,z
2 -x,1/2+y,1/2-z
3 -x,-y,-z
4 x,1/2-y,1/2+z
_cell_length_a                   6.603(3)
_cell_length_b                   8.575(3)
_cell_length_c                   14.794(5)
_cell_angle_alpha                90
_cell_angle_beta                 112.346(15)
_cell_angle_gamma                90
_cell_volume                     774.744
loop_
_atom_site_label
_atom_site_type_symbol
_atom_site_fract_x
_atom_site_fract_y
_atom_site_fract_z
Eu1 Eu -0.16645(5) -0.23923(3) -0.41317(2)
K1 K -0.4701(3) -0.1538(2) -0.70062(13)
S1 S -0.7570(2) -0.16300(17) -0.52218(12)
O1 O -0.3209(8) -0.4068(6) -0.5544(4)
H1 H -0.4544 -0.4491 -0.5691
H2 H -0.2450 -0.4266 -0.5924
O2 O -0.2816(7) -0.4477(5) -0.3287(3)
O3 O -0.1558(7) -0.6090(5) -0.2010(3)
O4 O 0.1041(7) -0.4462(5) -0.3440(3)
O5 O 0.2276(7) -0.6264(5) -0.2267(3)
O6 O -0.7889(9) -0.1856(7) -0.6245(4)
O7 O -0.5499(8) -0.2357(5) -0.4586(4)
O8 O -0.7465(8) 0.0052(5) -0.4991(4)
O9 O -0.9373(8) -0.2369(5) -0.5021(4)
C1 C 0.0840(10) -0.5374(7) -0.2812(5)
C2 C -0.1368(10) -0.5333(7) -0.2691(5)
Eu1_2 Eu -1.16645(5) -0.23923(3) -0.41317(2)
Eu1A Eu 0.16645(5) -0.73923(3) -0.08683(2)
Eu1B Eu -0.83355(5) 0.23923(3) -0.58683(2)
K1B K -0.5299(3) -0.8462(2) -0.29938(13)
K1B_2 K -0.5299(3) 0.1538(2) -0.29938(13)
K1B_3 K 0.4701(3) -0.8462(2) -0.29938(13)
K1C K -0.4701(3) -0.3462(2) -0.20062(13)
K1C_2 K 0.5299(3) -0.3462(2) -0.20062(13)
O2C O -0.2816(7) -0.0523(5) -0.8287(3)
O3A O 0.1558(7) -0.1090(5) -0.2990(3)
O3B O -0.8442(7) -0.3910(5) -0.7990(3)
O3C O -0.1558(7) 0.1090(5) -0.7010(3)
O4C O -0.8959(7) -0.0538(5) -0.8440(3)
O5A O -0.2276(7) -0.1264(5) -0.2733(3)
O5B O -0.2276(7) -0.3736(5) -0.7733(3)
O5C O -0.7724(7) 0.1264(5) -0.7267(3)
O8B O -0.2535(8) -0.0052(5) -0.5009(4)
O9_2 O 0.0627(8) -0.2369(5) -0.5021(4)
loop_
_geom_bond_atom_site_label_1
_geom_bond_atom_site_label_2
_geom_bond_site_symmetry_1
_geom_bond_site_symmetry_2
Eu1 O1 1_555 1_555
K1 O1 1_555 1_555
S1 O6 1_555 1_555
O1 H1 1_555 1_555
H2 O1 1_555 1_555
O2 Eu1 1_555 1_555
O3 C2 1_555 1_555
O4 Eu1 1_555 1_555
O5 C1 1_555 1_555
O6 K1 1_555 1_555
O7 Eu1 1_555 1_555
O8 S1 1_555 1_555
O9 S1 1_555 1_555
C1 O4 1_555 1_555
C2 O2 1_555 1_555
Eu1_2 O9 1_555 1_555
Eu1A O3 1_555 1_555
Eu1B O8 1_555 1_555
K1B O3 1_555 1_555
K1B_2 O8 1_555 1_555
K1B_3 O5 1_555 1_555
K1C O2 1_555 1_555
K1C_2 O4 1_555 1_555
O2C K1 1_555 1_555
O3A Eu1 1_555 1_555
O3B K1 1_555 1_555
O3C K1 1_555 1_555
O4C K1 1_555 1_555
O5A Eu1 1_555 1_555
O5B K1 1_555 1_555
O5C K1 1_555 1_555
O8B Eu1 1_555 1_555
O9_2 Eu1 1_555 1_555
K1 O8B 1_555 1_555
S1 O7 1_555 1_555
O3 K1C 1_555 1_555
O5 Eu1A 1_555 1_555
O5 K1C_2 1_555 1_555
C1 C2 1_555 1_555
Eu1B O5C 1_555 1_555
K1B_2 O5A 1_555 1_555
K1C O5A 1_555 1_555
K1C_2 O3A 1_555 1_555

#END
