
#######################################################################
#
#                 Cambridge Crystallographic Data Centre
#                                CCDC 
#
#######################################################################
#
# If this CIF has been generated from an entry in the Cambridge 
# Structural Database, then it will include bibliographic, chemical, 
# crystal, experimental, refinement or atomic coordinate data resulting 
# from the CCDC's data processing and validation procedures.
#
#######################################################################

data_MUKJAE
_symmetry_cell_setting           monoclinic
_symmetry_space_group_name_H-M   'C 2/c'
_symmetry_Int_Tables_number      15
_space_group_name_Hall           '-C 2yn'
loop_
_symmetry_equiv_pos_site_id
_symmetry_equiv_pos_as_xyz
1 x,y,z
2 -x,y,1/2-z
3 1/2+x,1/2+y,z
4 1/2-x,1/2+y,1/2-z
5 -x,-y,-z
6 x,-y,1/2+z
7 1/2-x,1/2-y,-z
8 1/2+x,1/2-y,1/2+z
_cell_length_a                   27.157(4)
_cell_length_b                   26.899(7)
_cell_length_c                   19.952(3)
_cell_angle_alpha                90
_cell_angle_beta                 125.494(9)
_cell_angle_gamma                90
_cell_volume                     11866.5
loop_
_atom_site_label
_atom_site_type_symbol
_atom_site_fract_x
_atom_site_fract_y
_atom_site_fract_z
Cu1 Cu 0.10322(4) 0.05113(3) 0.76698(5)
Cu2 Cu 0.18445(4) 0.14297(4) 0.84907(6)
Na1 Na 0.0000 -0.02827(14) 0.7500
O1 O 0.0172(2) 0.04401(19) 0.6862(3)
O2 O 0.0990(2) 0.12527(19) 0.7544(3)
O3 O 0.1657(3) 0.21375(19) 0.8431(3)
O4 O 0.2383(2) 0.3483(2) 1.0426(3)
O5 O 0.3113(2) 0.43133(19) 1.1369(3)
O6 O 0.3928(2) 0.51420(17) 1.1884(3)
C1 C -0.0230(4) 0.0807(3) 0.6412(4)
C2 C -0.0841(4) 0.0651(3) 0.5770(5)
H1 H -0.0928 0.0305 0.5698
C3 C -0.1314(4) 0.0983(3) 0.5250(5)
H2 H -0.1704 0.0862 0.4826
C4 C -0.1197(4) 0.1507(3) 0.5370(5)
H3 H -0.1518 0.1735 0.5042
C5 C -0.0611(3) 0.1686(3) 0.5970(4)
H4 H -0.0543 0.2034 0.6029
C6 C -0.0103(4) 0.1350(3) 0.6505(4)
C7 C 0.0510(4) 0.1558(3) 0.7127(5)
C8 C 0.0582(4) 0.2087(3) 0.7310(5)
H5 H 0.0231 0.2287 0.6980
C9 C 0.1127(4) 0.2341(3) 0.7935(5)
C10 C 0.1107(4) 0.2895(3) 0.8059(5)
C11 C 0.0667(5) 0.3220(3) 0.7445(6)
H6 H 0.0351 0.3090 0.6923
C12 C 0.0690(5) 0.3736(4) 0.7599(7)
H7 H 0.0397 0.3948 0.7169
C13 C 0.1133(4) 0.3944(3) 0.8363(7)
H8 H 0.1131 0.4290 0.8456
C14 C 0.1582(3) 0.3633(3) 0.8996(5)
C15 C 0.1571(3) 0.3117(3) 0.8838(5)
H9 H 0.1880 0.2910 0.9260
C16 C 0.2093(3) 0.3824(3) 0.9839(5)
C17 C 0.2238(3) 0.4345(3) 0.9944(5)
H10 H 0.1985 0.4552 0.9479
C18 C 0.2731(3) 0.4588(3) 1.0688(4)
C19 C 0.2834(3) 0.5133(3) 1.0710(4)
C20 C 0.2328(4) 0.5445(3) 1.0095(5)
H11 H 0.1944 0.5295 0.9731
C21 C 0.2384(5) 0.5957(3) 1.0016(6)
H12 H 0.2045 0.6151 0.9617
C22 C 0.2978(5) 0.6179(3) 1.0567(6)
H13 H 0.3033 0.6522 1.0512
C23 C 0.3465(4) 0.5902(3) 1.1170(5)
H14 H 0.3845 0.6061 1.1528
C24 C 0.3413(4) 0.5372(3) 1.1273(5)
N1 N 0.1364(2) 0.0343(2) 0.6844(3)
C25 C 0.1140(2) 0.0632(2) 0.6145(3)
H15 H 0.0825 0.0864 0.5979
C26 C 0.1377(3) 0.0582(2) 0.5691(3)
H16 H 0.1224 0.0780 0.5213
C27 C 0.1838(3) 0.0242(3) 0.5934(3)
H17 H 0.2000 0.0208 0.5624
C28 C 0.2062(2) -0.0047(2) 0.6633(4)
H18 H 0.2378 -0.0279 0.6799
C29 C 0.1826(3) 0.0003(2) 0.7087(3)
H19 H 0.1979 -0.0194 0.7564
N2 N 0.2166(3) 0.1489(3) 0.7650(4)
C30 C 0.1891(4) 0.1830(3) 0.7006(5)
H20 H 0.1561 0.2025 0.6901
C31 C 0.2098(5) 0.1885(3) 0.6516(4)
H21 H 0.1909 0.2118 0.6076
C32 C 0.2580(5) 0.1600(4) 0.6670(5)
H22 H 0.2721 0.1638 0.6335
C33 C 0.2855(4) 0.1260(4) 0.7313(6)
H23 H 0.3185 0.1065 0.7418
C34 C 0.2649(4) 0.1204(3) 0.7803(5)
H24 H 0.2837 0.0971 0.8243
N3 N 0.0002(2) -0.09393(18) 0.6527(3)
C35 C -0.0180(3) -0.14340(19) 0.6377(3)
H25 H -0.0369 -0.1574 0.6611
C36 C -0.0085(3) -0.17234(17) 0.5884(4)
H26 H -0.0209 -0.2061 0.5781
C37 C 0.0191(3) -0.1518(2) 0.5541(3)
H27 H 0.0256 -0.1716 0.5204
C38 C 0.0373(3) -0.1023(2) 0.5691(3)
H28 H 0.0562 -0.0883 0.5457
C39 C 0.0278(3) -0.07340(18) 0.6184(3)
H29 H 0.0402 -0.0396 0.6286
Cu1G Cu -0.39678(4) 0.44887(3) 0.26698(5)
Cu1F Cu 0.39678(4) 0.44887(3) 1.23302(5)
Cu1A Cu -0.10322(4) 0.05113(3) 0.73302(5)
Cu2G Cu -0.31555(4) 0.35703(4) 0.34907(6)
Cu2F Cu 0.31555(4) 0.35703(4) 1.15093(6)
Cu2A Cu -0.18445(4) 0.14297(4) 0.65093(6)
Na1F Na 0.5000 0.52827(14) 1.2500
Na1F_2 Na -0.5000 0.52827(14) 0.2500
O1G O -0.4828(2) 0.45599(19) 0.1862(3)
O1A O -0.0172(2) 0.04401(19) 0.8138(3)
O2G O -0.4010(2) 0.37473(19) 0.2544(3)
O3G O -0.3343(3) 0.28625(19) 0.3431(3)
O4G O -0.2617(2) 0.1517(2) 0.5426(3)
O4F O 0.2617(2) 0.1517(2) 0.9574(3)
O4A O -0.2383(2) 0.3483(2) 0.4574(3)
O5G O -0.1887(2) 0.06867(19) 0.6369(3)
O5F O 0.1887(2) 0.06867(19) 0.8631(3)
O5A O -0.3113(2) 0.43133(19) 0.3631(3)
O6G O -0.1072(2) -0.01420(17) 0.6884(3)
O6F O 0.1072(2) -0.01420(17) 0.8116(3)
O6A O -0.3928(2) 0.51420(17) 0.3116(3)
C1G C -0.5230(4) 0.4193(3) 0.1412(4)
C2G C -0.5841(4) 0.4349(3) 0.0770(5)
H1G H -0.5928 0.4695 0.0698
C3G C -0.6314(4) 0.4017(3) 0.0250(5)
H2G H -0.6704 0.4138 -0.0174
C4G C -0.6197(4) 0.3493(3) 0.0370(5)
H3G H -0.6518 0.3265 0.0042
C5G C -0.5611(3) 0.3314(3) 0.0970(4)
H4G H -0.5543 0.2966 0.1029
C6G C -0.5103(4) 0.3650(3) 0.1505(4)
C7G C -0.4490(4) 0.3442(3) 0.2127(5)
C8G C -0.4418(4) 0.2913(3) 0.2310(5)
H5G H -0.4769 0.2713 0.1980
C9G C -0.3873(4) 0.2659(3) 0.2935(5)
C10G C -0.3893(4) 0.2105(3) 0.3059(5)
C11G C -0.4333(5) 0.1780(3) 0.2445(6)
H6G H -0.4649 0.1910 0.1923
C12G C -0.4310(5) 0.1264(4) 0.2599(7)
H7G H -0.4603 0.1052 0.2169
C13G C -0.3867(4) 0.1056(3) 0.3363(7)
H8G H -0.3869 0.0710 0.3456
C14G C -0.3418(3) 0.1367(3) 0.3996(5)
C15G C -0.3429(3) 0.1883(3) 0.3838(5)
H9G H -0.3120 0.2090 0.4260
C16G C -0.2907(3) 0.1176(3) 0.4839(5)
C17G C -0.2762(3) 0.0655(3) 0.4944(5)
H10G H -0.3015 0.0448 0.4479
C18G C -0.2269(3) 0.0412(3) 0.5688(4)
C19G C -0.2166(3) -0.0133(3) 0.5710(4)
C20G C -0.2672(4) -0.0445(3) 0.5095(5)
H11G H -0.3056 -0.0295 0.4731
C21G C -0.2616(5) -0.0957(3) 0.5016(6)
H12G H -0.2955 -0.1151 0.4617
C22G C -0.2022(5) -0.1179(3) 0.5567(6)
H13G H -0.1967 -0.1522 0.5512
C23G C -0.1535(4) -0.0902(3) 0.6170(5)
H14G H -0.1155 -0.1061 0.6528
C24G C -0.1587(4) -0.0372(3) 0.6273(5)
N1G N -0.3636(2) 0.4657(2) 0.1844(3)
C25G C -0.3860(2) 0.4368(2) 0.1145(3)
H15G H -0.4175 0.4136 0.0979
C26G C -0.3623(3) 0.4418(2) 0.0691(3)
H16G H -0.3776 0.4220 0.0213
C27G C -0.3162(3) 0.4758(3) 0.0934(3)
H17G H -0.3000 0.4792 0.0624
C28G C -0.2938(2) 0.5047(2) 0.1633(4)
H18G H -0.2622 0.5279 0.1799
C29G C -0.3174(3) 0.4997(2) 0.2087(3)
H19G H -0.3021 0.5194 0.2564
N2G N -0.2834(3) 0.3511(3) 0.2650(4)
C30G C -0.3109(4) 0.3170(3) 0.2006(5)
H20G H -0.3439 0.2975 0.1901
C31G C -0.2902(5) 0.3115(3) 0.1516(4)
H21G H -0.3091 0.2882 0.1076
C32G C -0.2420(5) 0.3400(4) 0.1670(5)
H22G H -0.2279 0.3362 0.1335
C33G C -0.2145(4) 0.3740(4) 0.2313(6)
H23G H -0.1815 0.3935 0.2418
C34G C -0.2351(4) 0.3796(3) 0.2803(5)
H24G H -0.2163 0.4029 0.3243
N3A N -0.0002(2) -0.09393(18) 0.8473(3)
C35A C 0.0180(3) -0.14340(19) 0.8623(3)
H25A H 0.0369 -0.1574 0.8389
C36A C 0.0085(3) -0.17234(17) 0.9116(4)
H26A H 0.0209 -0.2061 0.9219
C37A C -0.0191(3) -0.1518(2) 0.9459(3)
H27A H -0.0256 -0.1716 0.9796
C38A C -0.0373(3) -0.1023(2) 0.9309(3)
H28A H -0.0562 -0.0883 0.9543
C39A C -0.0278(3) -0.07340(18) 0.8816(3)
H29A H -0.0402 -0.0396 0.8714
N4 N -0.0551(9) 0.2997(5) 0.5327(7)
C40 C -0.1151(7) 0.2921(5) 0.4673(11)
H30 H -0.1454 0.2896 0.4771
C41 C -0.1310(6) 0.2881(6) 0.3876(9)
H31 H -0.1720 0.2829 0.3429
C42 C -0.0868(9) 0.2916(6) 0.3732(8)
H32 H -0.0976 0.2889 0.3187
C43 C -0.0267(8) 0.2992(5) 0.4386(12)
H33 H 0.0035 0.3017 0.4288
C44 C -0.0109(6) 0.3032(5) 0.5183(10)
H34 H 0.0302 0.3084 0.5630
N5 N 0.1995(7) -0.1543(8) 0.7568(9)
C45 C 0.1973(6) -0.1650(8) 0.6869(7)
H35 H 0.1596 -0.1651 0.6343
C46 C 0.2503(8) -0.1754(8) 0.6941(8)
H36 H 0.2488 -0.1826 0.6464
C47 C 0.3055(6) -0.1751(8) 0.7711(11)
H37 H 0.3417 -0.1822 0.7760
C48 C 0.3076(6) -0.1645(9) 0.8409(8)
H38 H 0.3454 -0.1643 0.8935
C49 C 0.2546(8) -0.1541(8) 0.8338(7)
H39 H 0.2561 -0.1468 0.8815
Cl1 Cl -0.1279(3) -0.2701(3) 0.6064(5)
O7 O -0.1037(7) -0.2355(6) 0.6673(10)
O8 O -0.1881(6) -0.2657(6) 0.5522(11)
O9 O -0.1159(8) -0.3152(5) 0.6470(11)
O10 O -0.0989(9) -0.2748(9) 0.5701(12)
loop_
_geom_bond_atom_site_label_1
_geom_bond_atom_site_label_2
_geom_bond_site_symmetry_1
_geom_bond_site_symmetry_2
Cu1 O1 1_555 1_555
Cu2 O2 1_555 1_555
Na1 O1 1_555 1_555
O1 C1 1_555 1_555
O2 Cu1 1_555 1_555
O3 Cu2 1_555 1_555
O4 C16 1_555 1_555
O5 C18 1_555 1_555
O6 C24 1_555 1_555
C1 C2 1_555 1_555
C2 H1 1_555 1_555
C3 C2 1_555 1_555
H2 C3 1_555 1_555
C4 C3 1_555 1_555
H3 C4 1_555 1_555
C5 C4 1_555 1_555
H4 C5 1_555 1_555
C6 C1 1_555 1_555
C7 O2 1_555 1_555
C8 C7 1_555 1_555
H5 C8 1_555 1_555
C9 O3 1_555 1_555
C10 C9 1_555 1_555
C11 C10 1_555 1_555
H6 C11 1_555 1_555
C12 C11 1_555 1_555
H7 C12 1_555 1_555
C13 C12 1_555 1_555
H8 C13 1_555 1_555
C14 C13 1_555 1_555
C15 C10 1_555 1_555
H9 C15 1_555 1_555
C16 C14 1_555 1_555
C17 C16 1_555 1_555
H10 C17 1_555 1_555
C18 C17 1_555 1_555
C19 C18 1_555 1_555
C20 C19 1_555 1_555
H11 C20 1_555 1_555
C21 C20 1_555 1_555
H12 C21 1_555 1_555
C22 C21 1_555 1_555
H13 C22 1_555 1_555
C23 C22 1_555 1_555
H14 C23 1_555 1_555
C24 C19 1_555 1_555
N1 Cu1 1_555 1_555
C25 N1 1_555 1_555
H15 C25 1_555 1_555
C26 C25 1_555 1_555
H16 C26 1_555 1_555
C27 C26 1_555 1_555
H17 C27 1_555 1_555
C28 C27 1_555 1_555
H18 C28 1_555 1_555
C29 N1 1_555 1_555
H19 C29 1_555 1_555
N2 Cu2 1_555 1_555
C30 N2 1_555 1_555
H20 C30 1_555 1_555
C31 C30 1_555 1_555
H21 C31 1_555 1_555
C32 C31 1_555 1_555
H22 C32 1_555 1_555
C33 C32 1_555 1_555
H23 C33 1_555 1_555
C34 N2 1_555 1_555
H24 C34 1_555 1_555
N3 Na1 1_555 1_555
C35 N3 1_555 1_555
H25 C35 1_555 1_555
C36 C35 1_555 1_555
H26 C36 1_555 1_555
C37 C36 1_555 1_555
H27 C37 1_555 1_555
C38 C37 1_555 1_555
H28 C38 1_555 1_555
C39 N3 1_555 1_555
H29 C39 1_555 1_555
N4 C40 1_555 1_555
C40 H30 1_555 1_555
C41 C40 1_555 1_555
H31 C41 1_555 1_555
C42 C41 1_555 1_555
H32 C42 1_555 1_555
C43 C42 1_555 1_555
H33 C43 1_555 1_555
C44 N4 1_555 1_555
H34 C44 1_555 1_555
N5 C45 1_555 1_555
C45 H35 1_555 1_555
C46 C45 1_555 1_555
H36 C46 1_555 1_555
C47 C46 1_555 1_555
H37 C47 1_555 1_555
C48 C47 1_555 1_555
H38 C48 1_555 1_555
C49 N5 1_555 1_555
H39 C49 1_555 1_555
Cl1 O7 1_555 1_555
O8 Cl1 1_555 1_555
O9 Cl1 1_555 1_555
O10 Cl1 1_555 1_555
Cu1G O1G 1_555 1_555
Cu1F O5 1_555 1_555
Cu1A O1A 1_555 1_555
Cu2G O2G 1_555 1_555
Cu2F O4 1_555 1_555
Cu2A O4G 1_555 1_555
Na1F O6 1_555 1_555
Na1F_2 O1G 1_555 1_555
O1G C1G 1_555 1_555
O1A Na1 1_555 1_555
O2G Cu1G 1_555 1_555
O3G Cu2G 1_555 1_555
O4G C16G 1_555 1_555
O4F Cu2 1_555 1_555
O4A Cu2G 1_555 1_555
O5G Cu1A 1_555 1_555
O5F Cu1 1_555 1_555
O5A Cu1G 1_555 1_555
O6G Na1 1_555 1_555
O6F Cu1 1_555 1_555
O6A Cu1G 1_555 1_555
C1G C2G 1_555 1_555
C2G H1G 1_555 1_555
C3G C2G 1_555 1_555
H2G C3G 1_555 1_555
C4G C3G 1_555 1_555
H3G C4G 1_555 1_555
C5G C4G 1_555 1_555
H4G C5G 1_555 1_555
C6G C1G 1_555 1_555
C7G O2G 1_555 1_555
C8G C7G 1_555 1_555
H5G C8G 1_555 1_555
C9G O3G 1_555 1_555
C10G C9G 1_555 1_555
C11G C10G 1_555 1_555
H6G C11G 1_555 1_555
C12G C11G 1_555 1_555
H7G C12G 1_555 1_555
C13G C12G 1_555 1_555
H8G C13G 1_555 1_555
C14G C13G 1_555 1_555
C15G C10G 1_555 1_555
H9G C15G 1_555 1_555
C16G C14G 1_555 1_555
C17G C16G 1_555 1_555
H10G C17G 1_555 1_555
C18G O5G 1_555 1_555
C19G C18G 1_555 1_555
C20G C19G 1_555 1_555
H11G C20G 1_555 1_555
C21G C20G 1_555 1_555
H12G C21G 1_555 1_555
C22G C21G 1_555 1_555
H13G C22G 1_555 1_555
C23G C22G 1_555 1_555
H14G C23G 1_555 1_555
C24G O6G 1_555 1_555
N1G Cu1G 1_555 1_555
C25G N1G 1_555 1_555
H15G C25G 1_555 1_555
C26G C25G 1_555 1_555
H16G C26G 1_555 1_555
C27G C26G 1_555 1_555
H17G C27G 1_555 1_555
C28G C27G 1_555 1_555
H18G C28G 1_555 1_555
C29G N1G 1_555 1_555
H19G C29G 1_555 1_555
N2G Cu2G 1_555 1_555
C30G N2G 1_555 1_555
H20G C30G 1_555 1_555
C31G C30G 1_555 1_555
H21G C31G 1_555 1_555
C32G C31G 1_555 1_555
H22G C32G 1_555 1_555
C33G C32G 1_555 1_555
H23G C33G 1_555 1_555
C34G N2G 1_555 1_555
H24G C34G 1_555 1_555
N3A Na1 1_555 1_555
C35A N3A 1_555 1_555
H25A C35A 1_555 1_555
C36A C35A 1_555 1_555
H26A C36A 1_555 1_555
C37A C36A 1_555 1_555
H27A C37A 1_555 1_555
C38A C37A 1_555 1_555
H28A C38A 1_555 1_555
C39A N3A 1_555 1_555
H29A C39A 1_555 1_555
Cu2 O5F 1_555 1_555
Na1 O6F 1_555 1_555
O5 Cu2F 1_555 1_555
O6 Cu1F 1_555 1_555
C5 C6 1_555 1_555
C6 C7 1_555 1_555
C8 C9 1_555 1_555
C14 C15 1_555 1_555
C23 C24 1_555 1_555
C28 C29 1_555 1_555
C33 C34 1_555 1_555
C38 C39 1_555 1_555
C43 C44 1_555 1_555
C48 C49 1_555 1_555
Cu1A O6G 1_555 1_555
Cu2G O5A 1_555 1_555
Cu2A O5G 1_555 1_555
Na1F_2 O6A 1_555 1_555
C5G C6G 1_555 1_555
C6G C7G 1_555 1_555
C8G C9G 1_555 1_555
C14G C15G 1_555 1_555
C17G C18G 1_555 1_555
C19G C24G 1_555 1_555
C23G C24G 1_555 1_555
C28G C29G 1_555 1_555
C33G C34G 1_555 1_555
C38A C39A 1_555 1_555

#END
