
#######################################################################
#
#                 Cambridge Crystallographic Data Centre
#                                CCDC 
#
#######################################################################
#
# If this CIF has been generated from an entry in the Cambridge 
# Structural Database, then it will include bibliographic, chemical, 
# crystal, experimental, refinement or atomic coordinate data resulting 
# from the CCDC's data processing and validation procedures.
#
#######################################################################

data_MUKTUJ
_symmetry_cell_setting           trigonal
_symmetry_space_group_name_H-M   'P 31'
_symmetry_Int_Tables_number      144
_space_group_name_Hall           'P 31'
loop_
_symmetry_equiv_pos_site_id
_symmetry_equiv_pos_as_xyz
1 x,y,z
2 -y,x-y,1/3+z
3 -x+y,-x,2/3+z
_cell_length_a                   11.6535(3)
_cell_length_b                   11.6535(3)
_cell_length_c                   18.1418(8)
_cell_angle_alpha                90
_cell_angle_beta                 90
_cell_angle_gamma                120
_cell_volume                     2133.65
loop_
_atom_site_label
_atom_site_type_symbol
_atom_site_fract_x
_atom_site_fract_y
_atom_site_fract_z
Ag1 Ag 0.51468(3) 0.46365(3) 0.288149(14)
C1 C -0.0140(4) 0.2531(4) 0.4197(2)
H1 H -0.0560 0.2139 0.3744
C2 C 0.0183(5) 0.3184(4) 0.5360(2)
H2 H 0.0012 0.3314 0.5856
C3 C 0.1362(5) 0.3587(4) 0.5060(3)
H3 H 0.2196 0.4073 0.5298
C4 C -0.2181(4) 0.1917(4) 0.4930(3)
H4 H -0.2439 0.1307 0.5356
H5 H -0.2648 0.1387 0.4489
C5 C 0.2209(4) 0.3383(4) 0.3811(2)
H6 H 0.2919 0.4323 0.3839
H7 H 0.1856 0.3208 0.3302
C6 C 0.2785(4) 0.2505(4) 0.3979(2)
C7 C 0.2108(4) 0.1330(4) 0.4369(2)
H8 H 0.1254 0.1061 0.4566
C8 C 0.2679(5) 0.0555(4) 0.4471(3)
H9 H 0.2219 -0.0256 0.4735
C9 C 0.3909(5) 0.0957(4) 0.4190(2)
H10 H 0.4321 0.0436 0.4256
C10 C 0.4545(4) 0.2148(4) 0.3805(3)
H11 H 0.5404 0.2433 0.3611
C11 C -0.2612(4) 0.2933(6) 0.5070(2)
C12 C -0.2019(5) 0.4151(6) 0.4718(3)
H12 H -0.1317 0.4383 0.4378
C13 C -0.2469(5) 0.5029(7) 0.4872(3)
H13 H -0.2059 0.5882 0.4651
C14 C -0.3505(5) 0.4646(6) 0.5344(3)
H14 H -0.3839 0.5223 0.5451
C15 C -0.4067(4) 0.3405(6) 0.5667(2)
H15 H -0.4797 0.3141 0.5991
C16 C 0.3191(5) 0.5055(5) 0.1665(3)
C17 C 0.2206(6) 0.5052(6) 0.1165(4)
H16 H 0.2656 0.5634 0.0744
H17 H 0.1685 0.5373 0.1427
H18 H 0.1616 0.4149 0.0988
C18 C 0.8059(4) 0.7358(4) 0.3236(2)
C19 C 0.9439(5) 0.8445(5) 0.3292(3)
H19 H 0.9507 0.9261 0.3097
H20 H 1.0014 0.8221 0.3006
H21 H 0.9716 0.8576 0.3810
N1 N -0.0747(3) 0.2542(3) 0.4815(2)
N2 N 0.1149(3) 0.3159(3) 0.43232(18)
N3 N 0.4004(3) 0.2911(3) 0.36961(18)
N4 N -0.3620(3) 0.2551(4) 0.55404(19)
N5 N 0.3951(4) 0.5056(4) 0.2051(2)
N6 N 0.7013(4) 0.6546(3) 0.3191(2)
Ag1A Ag -0.46365(3) 0.05103(4) 0.621482(14)
N4B N 0.6171(5) 0.3620(3) 0.22071(19)
C20 C 0.6092(6) 0.9769(6) 0.2915(3)
C21 C 0.5739(8) 0.8696(7) 0.2404(4)
H22 H 0.4827 0.8358 0.2233
H23 H 0.5806 0.7983 0.2649
H24 H 0.6342 0.9018 0.1981
N7 N 0.6341(9) 1.0597(7) 0.3313(3)
Cl1 Cl 0.85347(10) 0.89705(9) 0.53063(7)
O1 O 0.7417(4) 0.7776(4) 0.5578(3)
O2 O 0.8251(5) 0.9330(4) 0.4596(2)
O3 O 0.9671(4) 0.8814(4) 0.5216(3)
O4 O 0.8797(4) 1.0045(3) 0.5801(2)
F1 F 0.5185(6) 0.5542(7) 0.6773(4)
F2 F 0.3866(7) 0.5743(5) 0.7439(3)
F3 F 0.3449(7) 0.3770(5) 0.7228(4)
F4 F 0.2101(3) 0.4349(5) 0.6738(3)
F5 F 0.3642(6) 0.4164(7) 0.6081(3)
F6 F 0.3801(6) 0.6134(6) 0.6259(3)
P1 P 0.35844(11) 0.50129(12) 0.67494(6)
loop_
_geom_bond_atom_site_label_1
_geom_bond_atom_site_label_2
_geom_bond_site_symmetry_1
_geom_bond_site_symmetry_2
Ag1 N3 1_555 1_555
C1 H1 1_555 1_555
C2 H2 1_555 1_555
C3 C2 1_555 1_555
H3 C3 1_555 1_555
C4 H4 1_555 1_555
H5 C4 1_555 1_555
C5 H6 1_555 1_555
H7 C5 1_555 1_555
C6 C5 1_555 1_555
C7 C6 1_555 1_555
H8 C7 1_555 1_555
C8 C7 1_555 1_555
H9 C8 1_555 1_555
C9 C8 1_555 1_555
H10 C9 1_555 1_555
C10 C9 1_555 1_555
H11 C10 1_555 1_555
C11 C4 1_555 1_555
C12 C11 1_555 1_555
H12 C12 1_555 1_555
C13 C12 1_555 1_555
H13 C13 1_555 1_555
C14 C13 1_555 1_555
H14 C14 1_555 1_555
C15 C14 1_555 1_555
H15 C15 1_555 1_555
C16 C17 1_555 1_555
C17 H16 1_555 1_555
H17 C17 1_555 1_555
H18 C17 1_555 1_555
C18 C19 1_555 1_555
C19 H19 1_555 1_555
H20 C19 1_555 1_555
H21 C19 1_555 1_555
N1 C1 1_555 1_555
N2 C1 1_555 1_555
N3 C6 1_555 1_555
N4 C11 1_555 1_555
N5 Ag1 1_555 1_555
N6 Ag1 1_555 1_555
C20 C21 1_555 1_555
C21 H22 1_555 1_555
H23 C21 1_555 1_555
H24 C21 1_555 1_555
N7 C20 1_555 1_555
Cl1 O1 1_555 1_555
O2 Cl1 1_555 1_555
O3 Cl1 1_555 1_555
O4 Cl1 1_555 1_555
F1 P1 1_555 1_555
F2 P1 1_555 1_555
F3 P1 1_555 1_555
F4 P1 1_555 1_555
F5 P1 1_555 1_555
F6 P1 1_555 1_555
Ag1A N4 1_555 1_555
N4B Ag1 1_555 1_555
C2 N1 1_555 1_555
C3 N2 1_555 1_555
C4 N1 1_555 1_555
C5 N2 1_555 1_555
C10 N3 1_555 1_555
C15 N4 1_555 1_555
C16 N5 1_555 1_555
C18 N6 1_555 1_555

#END
