
#######################################################################
#
#                 Cambridge Crystallographic Data Centre
#                                CCDC 
#
#######################################################################
#
# If this CIF has been generated from an entry in the Cambridge 
# Structural Database, then it will include bibliographic, chemical, 
# crystal, experimental, refinement or atomic coordinate data resulting 
# from the CCDC's data processing and validation procedures.
#
#######################################################################

data_MUKTAP
_symmetry_cell_setting           orthorhombic
_symmetry_space_group_name_H-M   'P 21 21 2'
_symmetry_Int_Tables_number      18
_space_group_name_Hall           'P 2 2ab'
loop_
_symmetry_equiv_pos_site_id
_symmetry_equiv_pos_as_xyz
1 x,y,z
2 -x,-y,z
3 1/2-x,1/2+y,-z
4 1/2+x,1/2-y,-z
_cell_length_a                   15.7748(13)
_cell_length_b                   24.0291(19)
_cell_length_c                   9.8167(8)
_cell_angle_alpha                90
_cell_angle_beta                 90
_cell_angle_gamma                90
_cell_volume                     3721.06
loop_
_atom_site_label
_atom_site_type_symbol
_atom_site_fract_x
_atom_site_fract_y
_atom_site_fract_z
O1 O 0.2953(11) 0.0307(8) 0.1459(16)
N1 N 0.2461(7) 0.0067(7) 0.1831(12)
O2 O 0.2211(9) -0.0327(6) 0.089(2)
O3 O 0.2004(9) 0.0011(10) 0.2814(11)
Ag1 Ag 0.38542(8) 1.19371(5) 0.31873(18)
Ag2 Ag 0.14825(8) 0.83489(5) 0.94146(14)
N2 N 0.4896(8) 1.0444(4) 0.0951(10)
O4 O 0.1383(8) 0.6687(5) 1.087(2)
N3 N 0.2602(8) 0.9760(5) 0.7015(12)
C1 C 0.1915(9) 1.2040(6) 0.3435(15)
H1 H 0.2032 1.2339 0.2830
N4 N 0.5187(7) 1.1693(5) 0.2919(13)
N5 N 0.0141(8) 0.8472(5) 0.9770(11)
N6 N 0.2544(8) 1.1734(5) 0.3774(15)
C2 C 0.4927(10) 1.0270(7) -0.0470(14)
H2 H 0.4855 1.0501 -0.1246
N7 N 0.2799(8) 0.8459(5) 0.8751(12)
C3 C 0.2353(10) 1.1267(6) 0.454(2)
C4 C 0.1091(10) 1.1982(6) 0.3851(15)
H3 H 0.0666 1.2236 0.3560
O5 O 0.1873(9) 0.7509(5) 1.1142(14)
N8 N 0.0176(7) 0.9568(5) 1.2264(11)
C5 C 0.4207(10) 0.8088(7) 0.8688(16)
H4 H 0.4611 0.7828 0.9020
C6 C 0.6866(9) 1.1395(7) 0.2658(16)
H5 H 0.7442 1.1284 0.2592
C7 C 0.6257(7) 1.1110(5) 0.1963(15)
H6 H 0.6398 1.0804 0.1396
C8 C 0.5416(8) 1.1285(6) 0.2112(17)
C9 C 0.3424(10) 0.8108(5) 0.9181(14)
H7 H 0.3287 0.7856 0.9895
N9 N 0.2939(10) 1.0499(5) 0.5922(15)
O6 O 0.1195(17) 0.7267(6) 0.936(2)
C10 C -0.1596(12) 0.8618(8) 1.0012(18)
H8 H -0.2190 0.8676 1.0080
C11 C -0.0193(9) 0.8784(6) 1.0771(13)
C12 C 0.1565(11) 1.1171(7) 0.502(2)
H9 H 0.1461 1.0852 0.5563
C13 C 0.6643(10) 1.1847(7) 0.346(2)
H10 H 0.7061 1.2057 0.3933
C14 C 0.0126(10) 0.9726(7) 1.3596(13)
H11 H 0.0242 0.9501 1.4371
C15 C 0.0463(9) 0.9013(7) 1.1777(15)
H12 H 0.0524 0.8756 1.2558
H13 H 0.1021 0.9048 1.1323
C16 C -0.1050(9) 0.8856(7) 1.0954(16)
H14 H -0.1263 0.9062 1.1705
C17 C 0.5000 1.0000 0.168(2)
H15 H 0.5000 1.0000 0.2652
C18 C -0.0400(14) 0.8222(8) 0.8913(16)
H16 H -0.0182 0.7982 0.8230
C19 C 0.3807(12) 0.8809(7) 0.7173(19)
H17 H 0.3929 0.9045 0.6421
C20 C 0.4407(11) 0.8458(7) 0.7683(17)
H18 H 0.4968 0.8470 0.7335
C21 C 0.3010(10) 0.8814(6) 0.7785(18)
C22 C 0.2776(11) 1.0181(8) 0.8024(14)
H19 H 0.2739 1.0164 0.8989
C23 C -0.1272(11) 0.8304(7) 0.899(2)
H20 H -0.1637 0.8140 0.8336
C24 C 0.0000 1.0000 1.1480(17)
H21 H 0.0000 1.0000 1.0512
C25 C 0.0895(10) 1.1539(6) 0.4717(16)
H22 H 0.0342 1.1488 0.5081
C26 C 0.3017(11) 1.0626(6) 0.716(2)
H23 H 0.3213 1.0977 0.7475
C27 C 0.2674(12) 0.9994(7) 0.577(2)
H24 H 0.2551 0.9817 0.4929
C28 C 0.5812(10) 1.1978(7) 0.3558(18)
H25 H 0.5657 1.2289 0.4103
C29 C 0.4674(10) 1.1000(7) 0.135(2)
H26 H 0.4171 1.0988 0.1957
H27 H 0.4525 1.1221 0.0538
C30 C 0.2267(13) 0.9191(7) 0.733(3)
H28 H 0.1991 0.9031 0.6517
H29 H 0.1840 0.9214 0.8070
C31 C 0.3100(13) 1.0870(7) 0.4716(17)
H30 H 0.3170 1.0642 0.3884
H31 H 0.3628 1.1085 0.4860
N10 N 0.1514(9) 0.7151(5) 1.0466(18)
N11 N 0.3778(7) 1.3081(6) 0.4579(16)
O7 O 0.3721(7) 1.3528(5) 0.5278(15)
O8 O 0.4264(10) 1.2700(6) 0.508(3)
O9 O 0.3496(12) 1.3003(5) 0.3485(14)
N2A N 0.5104(8) 0.9556(4) 0.0951(10)
N4A N 0.4813(7) 0.8307(5) 0.2919(13)
C2A C 0.5073(10) 0.9730(7) -0.0470(14)
H2A H 0.5145 0.9499 -0.1246
C6A C 0.3134(9) 0.8605(7) 0.2658(16)
H5A H 0.2558 0.8716 0.2592
C7A C 0.3743(7) 0.8890(5) 0.1963(15)
H6A H 0.3602 0.9196 0.1396
C8A C 0.4584(8) 0.8715(6) 0.2112(17)
C13A C 0.3357(10) 0.8153(7) 0.346(2)
H10A H 0.2939 0.7943 0.3933
C28A C 0.4188(10) 0.8022(7) 0.3558(18)
H25A H 0.4343 0.7711 0.4103
C29A C 0.5326(10) 0.9000(7) 0.135(2)
H26A H 0.5829 0.9012 0.1957
H27A H 0.5475 0.8779 0.0538
N5A N -0.0141(8) 1.1528(5) 0.9770(11)
N8A N -0.0176(7) 1.0432(5) 1.2264(11)
C10A C 0.1596(12) 1.1382(8) 1.0012(18)
H8A H 0.2190 1.1324 1.0080
C11A C 0.0193(9) 1.1216(6) 1.0771(13)
C14A C -0.0126(10) 1.0274(7) 1.3596(13)
H11A H -0.0242 1.0499 1.4371
C15A C -0.0463(9) 1.0987(7) 1.1777(15)
H12A H -0.0524 1.1244 1.2558
H13A H -0.1021 1.0952 1.1323
C16A C 0.1050(9) 1.1144(7) 1.0954(16)
H14A H 0.1263 1.0938 1.1705
C18A C 0.0400(14) 1.1778(8) 0.8913(16)
H16A H 0.0182 1.2018 0.8230
C23A C 0.1272(11) 1.1696(7) 0.899(2)
H20A H 0.1637 1.1860 0.8336
Ag1A Ag -0.38542(8) 0.80629(5) 0.31873(18)
Ag2A Ag -0.14825(8) 1.16511(5) 0.94146(14)
O4A O -0.1383(8) 1.3313(5) 1.087(2)
N3A N -0.2602(8) 1.0240(5) 0.7015(12)
C1A C -0.1915(9) 0.7960(6) 0.3435(15)
H1A H -0.2032 0.7661 0.2830
N6A N -0.2544(8) 0.8266(5) 0.3774(15)
N7A N -0.2799(8) 1.1541(5) 0.8751(12)
C3A C -0.2353(10) 0.8733(6) 0.454(2)
C4A C -0.1091(10) 0.8018(6) 0.3851(15)
H3A H -0.0666 0.7764 0.3560
O5A O -0.1873(9) 1.2491(5) 1.1142(14)
C5A C -0.4207(10) 1.1912(7) 0.8688(16)
H4A H -0.4611 1.2172 0.9020
C9A C -0.3424(10) 1.1892(5) 0.9181(14)
H7A H -0.3287 1.2144 0.9895
N9A N -0.2939(10) 0.9501(5) 0.5922(15)
O6A O -0.1195(17) 1.2733(6) 0.936(2)
C12A C -0.1565(11) 0.8829(7) 0.502(2)
H9A H -0.1461 0.9148 0.5563
C19A C -0.3807(12) 1.1191(7) 0.7173(19)
H17A H -0.3929 1.0955 0.6421
C20A C -0.4407(11) 1.1542(7) 0.7683(17)
H18A H -0.4968 1.1530 0.7335
C21A C -0.3010(10) 1.1186(6) 0.7785(18)
C22A C -0.2776(11) 0.9819(8) 0.8024(14)
H19A H -0.2739 0.9836 0.8989
C25A C -0.0895(10) 0.8461(6) 0.4717(16)
H22A H -0.0342 0.8512 0.5081
C26A C -0.3017(11) 0.9374(6) 0.716(2)
H23A H -0.3213 0.9023 0.7475
C27A C -0.2674(12) 1.0006(7) 0.577(2)
H24A H -0.2551 1.0183 0.4929
C30A C -0.2267(13) 1.0809(7) 0.733(3)
H28A H -0.1991 1.0969 0.6517
H29A H -0.1840 1.0786 0.8070
C31A C -0.3100(13) 0.9130(7) 0.4716(17)
H30A H -0.3170 0.9358 0.3884
H31A H -0.3628 0.8915 0.4860
N10A N -0.1514(9) 1.2849(5) 1.0466(18)
N11A N -0.3778(7) 0.6919(6) 0.4579(16)
O7A O -0.3721(7) 0.6472(5) 0.5278(15)
O8A O -0.4264(10) 0.7300(6) 0.508(3)
O9A O -0.3496(12) 0.6997(5) 0.3485(14)
Ag1A_2 Ag 0.61458(8) 0.80629(5) 0.31873(18)
Ag1B Ag 0.11458(8) 0.69371(5) 0.68127(18)
Ag1C Ag -0.11458(8) 1.30629(5) 0.68127(18)
N4A_2 N -0.5187(7) 0.8307(5) 0.2919(13)
O6B O 0.3805(17) 1.2267(6) 0.064(2)
O6C O -0.3805(17) 0.7733(6) 0.064(2)
Cl1 Cl 1.0000 1.0000 0.7526(5)
Cl2 Cl 1.0000 0.5000 0.4547(9)
loop_
_geom_bond_atom_site_label_1
_geom_bond_atom_site_label_2
_geom_bond_site_symmetry_1
_geom_bond_site_symmetry_2
O1 N1 1_555 1_555
N1 O2 1_555 1_555
O3 N1 1_555 1_555
Ag1 N4 1_555 1_555
Ag2 N5 1_555 1_555
N2 C2 1_555 1_555
O4 N10 1_555 1_555
N3 C22 1_555 1_555
C1 H1 1_555 1_555
N4 C8 1_555 1_555
N5 C11 1_555 1_555
N6 Ag1 1_555 1_555
C2 H2 1_555 1_555
N7 Ag2 1_555 1_555
C3 N6 1_555 1_555
C4 C1 1_555 1_555
H3 C4 1_555 1_555
O5 Ag2 1_555 1_555
N8 C14 1_555 1_555
C5 H4 1_555 1_555
C6 H5 1_555 1_555
C7 C6 1_555 1_555
H6 C7 1_555 1_555
C8 C7 1_555 1_555
C9 N7 1_555 1_555
H7 C9 1_555 1_555
N9 C26 1_555 1_555
O6 Ag2 1_555 1_555
C10 H8 1_555 1_555
C11 C15 1_555 1_555
C12 C3 1_555 1_555
H9 C12 1_555 1_555
C13 C6 1_555 1_555
H10 C13 1_555 1_555
C14 H11 1_555 1_555
C15 N8 1_555 1_555
H12 C15 1_555 1_555
H13 C15 1_555 1_555
C16 C10 1_555 1_555
H14 C16 1_555 1_555
C17 N2 1_555 1_555
H15 C17 1_555 1_555
C18 N5 1_555 1_555
H16 C18 1_555 1_555
C19 H17 1_555 1_555
C20 C5 1_555 1_555
H18 C20 1_555 1_555
C21 N7 1_555 1_555
C22 H19 1_555 1_555
C23 C10 1_555 1_555
H20 C23 1_555 1_555
C24 N8 1_555 1_555
H21 C24 1_555 1_555
C25 C4 1_555 1_555
H22 C25 1_555 1_555
C26 C22 1_555 1_555
H23 C26 1_555 1_555
C27 N3 1_555 1_555
H24 C27 1_555 1_555
C28 N4 1_555 1_555
H25 C28 1_555 1_555
C29 N2 1_555 1_555
H26 C29 1_555 1_555
H27 C29 1_555 1_555
C30 N3 1_555 1_555
H28 C30 1_555 1_555
H29 C30 1_555 1_555
C31 C3 1_555 1_555
H30 C31 1_555 1_555
H31 C31 1_555 1_555
N10 O5 1_555 1_555
N11 O7 1_555 1_555
O8 Ag1 1_555 1_555
O9 Ag1 1_555 1_555
N2A C17 1_555 1_555
N4A C8A 1_555 1_555
C2A C2 1_555 1_555
H2A C2A 1_555 1_555
C6A H5A 1_555 1_555
C7A C6A 1_555 1_555
H6A C7A 1_555 1_555
C8A C7A 1_555 1_555
C13A C6A 1_555 1_555
H10A C13A 1_555 1_555
C28A N4A 1_555 1_555
H25A C28A 1_555 1_555
C29A N2A 1_555 1_555
H26A C29A 1_555 1_555
H27A C29A 1_555 1_555
N5A C11A 1_555 1_555
N8A C24 1_555 1_555
C10A H8A 1_555 1_555
C11A C15A 1_555 1_555
C14A C14 1_555 1_555
H11A C14A 1_555 1_555
C15A N8A 1_555 1_555
H12A C15A 1_555 1_555
H13A C15A 1_555 1_555
C16A C10A 1_555 1_555
H14A C16A 1_555 1_555
C18A N5A 1_555 1_555
H16A C18A 1_555 1_555
C23A C10A 1_555 1_555
H20A C23A 1_555 1_555
Ag1A N6A 1_555 1_555
Ag2A N5A 1_555 1_555
O4A N10A 1_555 1_555
N3A C22A 1_555 1_555
C1A H1A 1_555 1_555
N6A C1A 1_555 1_555
N7A Ag2A 1_555 1_555
C3A N6A 1_555 1_555
C4A C1A 1_555 1_555
H3A C4A 1_555 1_555
O5A Ag2A 1_555 1_555
C5A H4A 1_555 1_555
C9A N7A 1_555 1_555
H7A C9A 1_555 1_555
N9A C26A 1_555 1_555
O6A Ag2A 1_555 1_555
C12A C3A 1_555 1_555
H9A C12A 1_555 1_555
C19A H17A 1_555 1_555
C20A C5A 1_555 1_555
H18A C20A 1_555 1_555
C21A N7A 1_555 1_555
C22A H19A 1_555 1_555
C25A C4A 1_555 1_555
H22A C25A 1_555 1_555
C26A C22A 1_555 1_555
H23A C26A 1_555 1_555
C27A N3A 1_555 1_555
H24A C27A 1_555 1_555
C30A N3A 1_555 1_555
H28A C30A 1_555 1_555
H29A C30A 1_555 1_555
C31A C3A 1_555 1_555
H30A C31A 1_555 1_555
H31A C31A 1_555 1_555
N10A O5A 1_555 1_555
N11A O7A 1_555 1_555
O8A Ag1A 1_555 1_555
O9A Ag1A 1_555 1_555
Ag1A_2 N4A 1_555 1_555
Ag1B O6 1_555 1_555
Ag1C O6A 1_555 1_555
N4A_2 Ag1A 1_555 1_555
O6B Ag1 1_555 1_555
O6C Ag1A 1_555 1_555
C1 N6 1_555 1_555
C5 C9 1_555 1_555
C8 C29 1_555 1_555
N9 C27 1_555 1_555
N9 C31 1_555 1_555
O6 N10 1_555 1_555
C11 C16 1_555 1_555
C12 C25 1_555 1_555
C13 C28 1_555 1_555
C18 C23 1_555 1_555
C19 C20 1_555 1_555
C19 C21 1_555 1_555
C21 C30 1_555 1_555
N11 O8 1_555 1_555
N11 O9 1_555 1_555
N2A C2A 1_555 1_555
C8A C29A 1_555 1_555
C13A C28A 1_555 1_555
N8A C14A 1_555 1_555
C11A C16A 1_555 1_555
C18A C23A 1_555 1_555
C5A C9A 1_555 1_555
N9A C27A 1_555 1_555
N9A C31A 1_555 1_555
O6A N10A 1_555 1_555
C12A C25A 1_555 1_555
C19A C20A 1_555 1_555
C19A C21A 1_555 1_555
C21A C30A 1_555 1_555
N11A O8A 1_555 1_555
N11A O9A 1_555 1_555

#END
