
#######################################################################
#
#                 Cambridge Crystallographic Data Centre
#                                CCDC 
#
#######################################################################
#
# If this CIF has been generated from an entry in the Cambridge 
# Structural Database, then it will include bibliographic, chemical, 
# crystal, experimental, refinement or atomic coordinate data resulting 
# from the CCDC's data processing and validation procedures.
#
#######################################################################

data_MUKTIX
_symmetry_cell_setting           monoclinic
_symmetry_space_group_name_H-M   'P 21/n'
_symmetry_Int_Tables_number      14
_space_group_name_Hall           '-P 2yn'
loop_
_symmetry_equiv_pos_site_id
_symmetry_equiv_pos_as_xyz
1 x,y,z
2 1/2-x,1/2+y,1/2-z
3 -x,-y,-z
4 1/2+x,1/2-y,1/2+z
_cell_length_a                   10.3152(7)
_cell_length_b                   14.3867(11)
_cell_length_c                   13.0772(10)
_cell_angle_alpha                90
_cell_angle_beta                 98.340(2)
_cell_angle_gamma                90
_cell_volume                     1920.16
loop_
_atom_site_label
_atom_site_type_symbol
_atom_site_fract_x
_atom_site_fract_y
_atom_site_fract_z
Ag1 Ag 1.176176(14) 0.567675(10) 0.248649(10)
C1 C 1.39303(19) 0.60285(14) 0.42720(15)
H1 H 1.4409 0.5900 0.3720
C2 C 1.46163(19) 0.61926(14) 0.52374(16)
H2 H 1.5547 0.6181 0.5346
C3 C 1.3929(2) 0.63738(15) 0.60441(15)
H3 H 1.4378 0.6496 0.6718
C4 C 1.2575(2) 0.63744(14) 0.58556(14)
H4 H 1.2080 0.6488 0.6402
C5 C 1.19481(17) 0.62084(11) 0.48644(13)
C6 C 1.04724(18) 0.62316(12) 0.46227(15)
H5 H 1.0189 0.5919 0.3953
H6 H 1.0089 0.5891 0.5164
C7 C 1.02919(16) 0.78734(12) 0.38919(13)
H7 H 1.0830 0.7801 0.3366
C8 C 0.96693(16) 0.86542(12) 0.41155(13)
H8 H 0.9682 0.9237 0.3775
C9 C 0.92262(15) 0.75604(12) 0.51969(14)
H9 H 0.8889 0.7241 0.5737
C10 C 0.81852(18) 0.90762(14) 0.54404(17)
H10 H 0.8352 0.9723 0.5238
H11 H 0.8427 0.9027 0.6199
C11 C 0.67373(16) 0.88619(11) 0.51544(13)
C12 C 0.62295(17) 0.85227(13) 0.41891(14)
H12 H 0.6789 0.8397 0.3689
C13 C 0.48932(17) 0.83690(13) 0.39622(14)
H13 H 0.4526 0.8116 0.3313
C14 C 0.41041(17) 0.85879(13) 0.46923(15)
H14 H 0.3181 0.8509 0.4547
C15 C 0.46799(17) 0.89232(12) 0.56381(14)
H15 H 0.4133 0.9073 0.6140
N1 N 1.26135(15) 0.60412(10) 0.40730(11)
N2 N 0.99979(13) 0.71994(10) 0.45721(11)
N3 N 0.90065(13) 0.84456(10) 0.49364(11)
N4 N 0.59804(14) 0.90483(10) 0.58823(11)
N5 N 1.24816(13) 0.36817(10) 0.29415(11)
O1 O 1.15345(13) 0.40263(9) 0.33223(10)
O2 O 1.31512(12) 0.41920(9) 0.24427(10)
O3 O 1.27423(14) 0.28408(9) 0.30582(12)
Ag1C Ag 0.676176(14) 0.932325(10) 0.748649(10)
N4C N 1.09804(14) 0.59517(10) 0.08823(11)
F1 F 0.69781(12) 0.61959(10) 0.36704(9)
F2 F 0.56929(13) 0.54304(10) 0.23944(12)
F3 F 0.80536(13) 0.68760(11) 0.24788(10)
F4 F 0.58464(13) 0.69876(9) 0.23342(10)
F5 F 0.67681(11) 0.61086(10) 0.12039(9)
F6 F 0.79089(14) 0.53202(11) 0.25310(11)
P1 P 0.68784(4) 0.61517(3) 0.24432(3)
loop_
_geom_bond_atom_site_label_1
_geom_bond_atom_site_label_2
_geom_bond_site_symmetry_1
_geom_bond_site_symmetry_2
Ag1 N1 1_555 1_555
C1 H1 1_555 1_555
C2 C1 1_555 1_555
H2 C2 1_555 1_555
C3 C2 1_555 1_555
H3 C3 1_555 1_555
C4 C3 1_555 1_555
H4 C4 1_555 1_555
C5 C4 1_555 1_555
C6 C5 1_555 1_555
H5 C6 1_555 1_555
H6 C6 1_555 1_555
C7 H7 1_555 1_555
C8 C7 1_555 1_555
H8 C8 1_555 1_555
C9 H9 1_555 1_555
C10 H10 1_555 1_555
H11 C10 1_555 1_555
C11 C10 1_555 1_555
C12 C11 1_555 1_555
H12 C12 1_555 1_555
C13 C12 1_555 1_555
H13 C13 1_555 1_555
C14 C13 1_555 1_555
H14 C14 1_555 1_555
C15 C14 1_555 1_555
H15 C15 1_555 1_555
N1 C1 1_555 1_555
N2 C6 1_555 1_555
N3 C8 1_555 1_555
N4 C11 1_555 1_555
N5 O1 1_555 1_555
O1 Ag1 1_555 1_555
O2 Ag1 1_555 1_555
O3 N5 1_555 1_555
F1 P1 1_555 1_555
F2 P1 1_555 1_555
F3 P1 1_555 1_555
F4 P1 1_555 1_555
F5 P1 1_555 1_555
F6 P1 1_555 1_555
Ag1C N4 1_555 1_555
N4C Ag1 1_555 1_555
C5 N1 1_555 1_555
C7 N2 1_555 1_555
C9 N2 1_555 1_555
C9 N3 1_555 1_555
C10 N3 1_555 1_555
C15 N4 1_555 1_555
N5 O2 1_555 1_555

#END
