
#######################################################################
#
#                 Cambridge Crystallographic Data Centre
#                                CCDC 
#
#######################################################################
#
# If this CIF has been generated from an entry in the Cambridge 
# Structural Database, then it will include bibliographic, chemical, 
# crystal, experimental, refinement or atomic coordinate data resulting 
# from the CCDC's data processing and validation procedures.
#
#######################################################################

data_MUKTOD
_symmetry_cell_setting           monoclinic
_symmetry_space_group_name_H-M   'P 21/n'
_symmetry_Int_Tables_number      14
_space_group_name_Hall           '-P 2yn'
loop_
_symmetry_equiv_pos_site_id
_symmetry_equiv_pos_as_xyz
1 x,y,z
2 1/2-x,1/2+y,1/2-z
3 -x,-y,-z
4 1/2+x,1/2-y,1/2+z
_cell_length_a                   6.8168(2)
_cell_length_b                   13.2052(5)
_cell_length_c                   21.0596(8)
_cell_angle_alpha                90
_cell_angle_beta                 92.1790(10)
_cell_angle_gamma                90
_cell_volume                     1894.36
loop_
_atom_site_label
_atom_site_type_symbol
_atom_site_fract_x
_atom_site_fract_y
_atom_site_fract_z
Ag1 Ag 0.794159(19) 1.018822(10) 0.039717(6)
C1 C 0.6892(2) 0.81714(14) -0.02367(8)
H1 H 0.6822 0.8605 -0.0597
C2 C 0.6468(3) 0.71570(14) -0.03208(9)
H2 H 0.6132 0.6895 -0.0731
C3 C 0.6541(3) 0.65312(14) 0.02055(9)
H3 H 0.6231 0.5833 0.0163
C4 C 0.7071(3) 0.69298(14) 0.07964(9)
H4 H 0.7137 0.6508 0.1162
C5 C 0.7504(2) 0.79537(13) 0.08449(8)
C6 C 0.8151(3) 0.84723(13) 0.14576(8)
H5 H 0.9493 0.8743 0.1414
H6 H 0.7267 0.9052 0.1532
C7 C 0.9652(3) 0.71617(15) 0.21998(9)
H7 H 1.0885 0.7093 0.2008
C8 C 0.9044(3) 0.66576(15) 0.27129(9)
H8 H 0.9768 0.6163 0.2951
C9 C 0.6653(3) 0.76799(13) 0.23891(8)
H9 H 0.5432 0.8026 0.2356
C10 C 0.5972(3) 0.66552(15) 0.33492(8)
H10 H 0.6298 0.5942 0.3453
H11 H 0.4570 0.6683 0.3210
C11 C 0.6290(3) 0.72979(13) 0.39397(8)
C12 C 0.6126(3) 0.83437(14) 0.39079(9)
H12 H 0.5901 0.8669 0.3509
C13 C 0.6292(3) 0.89085(14) 0.44590(9)
H13 H 0.6169 0.9625 0.4445
C14 C 0.6638(3) 0.84163(14) 0.50302(9)
H14 H 0.6762 0.8787 0.5416
C15 C 0.6803(3) 0.73732(14) 0.50303(8)
H15 H 0.7039 0.7036 0.5424
N1 N 0.7403(2) 0.85723(11) 0.03349(6)
N2 N 0.8141(2) 0.77955(11) 0.20067(7)
N3 N 0.7176(2) 0.69936(11) 0.28267(7)
N4 N 0.6642(2) 0.68125(11) 0.44953(7)
N5 N 0.6686(2) 1.05316(12) -0.12031(6)
O1 O 0.5292(2) 0.99237(10) -0.12642(7)
O2 O 0.8199(2) 1.02809(11) -0.08737(6)
O3 O 0.6603(2) 1.13904(10) -0.14508(6)
Ag1A Ag 0.705841(19) 0.518822(10) 0.460283(6)
N4A N 0.8358(2) 1.18125(11) 0.05047(7)
F1 F 0.3943(2) 0.61520(10) 0.18696(7)
F2 F 0.3373(3) 0.37567(11) 0.18601(7)
F3 F 0.4595(7) 0.4878(2) 0.11844(17)
F4 F 0.5717(6) 0.4830(2) 0.2209(2)
F5 F 0.2693(6) 0.5150(2) 0.25236(13)
F6 F 0.1579(4) 0.5177(2) 0.15104(19)
P1 P 0.36717(9) 0.49489(4) 0.18699(2)
F7? F 0.5880(11) 0.4911(5) 0.1689(5)
F8? F 0.4388(11) 0.4774(3) 0.2608(2)
F9? F 0.1522(8) 0.4860(4) 0.2100(5)
F10? F 0.292(2) 0.4958(4) 0.1179(3)
loop_
_geom_bond_atom_site_label_1
_geom_bond_atom_site_label_2
_geom_bond_site_symmetry_1
_geom_bond_site_symmetry_2
Ag1 N1 1_555 1_555
C1 H1 1_555 1_555
C2 C1 1_555 1_555
H2 C2 1_555 1_555
C3 C2 1_555 1_555
H3 C3 1_555 1_555
C4 C3 1_555 1_555
H4 C4 1_555 1_555
C5 C4 1_555 1_555
C6 C5 1_555 1_555
H5 C6 1_555 1_555
H6 C6 1_555 1_555
C7 H7 1_555 1_555
C8 C7 1_555 1_555
H8 C8 1_555 1_555
C9 H9 1_555 1_555
C10 H10 1_555 1_555
H11 C10 1_555 1_555
C11 C10 1_555 1_555
C12 C11 1_555 1_555
H12 C12 1_555 1_555
C13 C12 1_555 1_555
H13 C13 1_555 1_555
C14 C13 1_555 1_555
H14 C14 1_555 1_555
C15 C14 1_555 1_555
H15 C15 1_555 1_555
N1 C1 1_555 1_555
N2 C6 1_555 1_555
N3 C8 1_555 1_555
N4 C11 1_555 1_555
N5 O1 1_555 1_555
O2 Ag1 1_555 1_555
O3 N5 1_555 1_555
F1 P1 1_555 1_555
F2 P1 1_555 1_555
F3 P1 1_555 1_555
F4 P1 1_555 1_555
F5 P1 1_555 1_555
F6 P1 1_555 1_555
Ag1A N4 1_555 1_555
N4A Ag1 1_555 1_555
C5 N1 1_555 1_555
C7 N2 1_555 1_555
C9 N2 1_555 1_555
C9 N3 1_555 1_555
C10 N3 1_555 1_555
C15 N4 1_555 1_555
N5 O2 1_555 1_555

#END
