
#######################################################################
#
#                 Cambridge Crystallographic Data Centre
#                                CCDC 
#
#######################################################################
#
# If this CIF has been generated from an entry in the Cambridge 
# Structural Database, then it will include bibliographic, chemical, 
# crystal, experimental, refinement or atomic coordinate data resulting 
# from the CCDC's data processing and validation procedures.
#
#######################################################################

data_MUKVAR
_symmetry_cell_setting           orthorhombic
_symmetry_space_group_name_H-M   'P b c a'
_symmetry_Int_Tables_number      61
_space_group_name_Hall           '-P 2ac 2ab'
loop_
_symmetry_equiv_pos_site_id
_symmetry_equiv_pos_as_xyz
1 x,y,z
2 1/2-x,-y,1/2+z
3 -x,1/2+y,1/2-z
4 1/2+x,1/2-y,-z
5 -x,-y,-z
6 1/2+x,y,1/2-z
7 x,1/2-y,1/2+z
8 1/2-x,1/2+y,z
_cell_length_a                   14.7114(5)
_cell_length_b                   14.1913(6)
_cell_length_c                   21.3607(8)
_cell_angle_alpha                90
_cell_angle_beta                 90
_cell_angle_gamma                90
_cell_volume                     4459.56
loop_
_atom_site_label
_atom_site_type_symbol
_atom_site_fract_x
_atom_site_fract_y
_atom_site_fract_z
Ag1 Ag 0.64573(2) 0.87621(3) 0.042899(16)
C1 C 0.9979(3) 0.9172(3) 0.33988(17)
H1 H 1.0082 0.9850 0.3315
H2 H 1.0580 0.8861 0.3431
C2 C 0.9048(2) 0.9231(3) 0.24266(17)
H3 H 0.9071 0.9894 0.2365
C3 C 0.9279(3) 0.7810(3) 0.2807(2)
H4 H 0.9495 0.7312 0.3064
C4 C 0.8735(3) 0.7724(3) 0.2305(2)
H5 H 0.8494 0.7155 0.2140
C5 C 0.8014(3) 0.8865(3) 0.15411(18)
H6 H 0.7786 0.9515 0.1597
H7 H 0.7481 0.8438 0.1538
C6 C 0.8491(3) 0.8797(3) 0.0917(2)
C7 C 0.9420(3) 0.8746(3) 0.0863(2)
H8 H 0.9789 0.8704 0.1226
C8 C 0.9814(3) 0.8755(4) 0.0276(2)
H9 H 1.0456 0.8716 0.0230
C9 C 0.9260(3) 0.8821(4) -0.0241(2)
H10 H 0.9511 0.8839 -0.0651
C10 C 0.8336(3) 0.8861(4) -0.0152(2)
H11 H 0.7955 0.8906 -0.0510
C11 C 0.9471(3) 0.9059(3) 0.40098(19)
C12 C 0.8535(3) 0.9125(6) 0.4034(3)
H12 H 0.8195 0.9230 0.3662
C13 C 0.8098(4) 0.9035(6) 0.4605(3)
H13 H 0.7455 0.9083 0.4631
C14 C 0.8605(3) 0.8876(4) 0.5133(2)
H14 H 0.8321 0.8809 0.5530
C15 C 0.9531(3) 0.8815(4) 0.5073(2)
H15 H 0.9882 0.8707 0.5440
N1 N 0.9464(2) 0.8756(2) 0.28804(15)
N2 N 0.8594(2) 0.8622(2) 0.20744(16)
N3 N 0.7945(3) 0.8837(3) 0.04174(16)
N4 N 0.9972(2) 0.8901(2) 0.45216(15)
Ag1E Ag 1.14573(2) 0.87621(3) 0.457101(16)
N4E N 0.4972(2) 0.8901(2) 0.04784(15)
Cl1 Cl 0.65190(6) 0.65422(7) 0.12650(5)
O1 O 0.6264(3) 0.7433(3) 0.1530(3)
O2 O 0.5866(3) 0.5882(3) 0.1474(2)
O3 O 0.7408(2) 0.6308(3) 0.14889(16)
O4 O 0.6538(3) 0.6658(5) 0.06140(19)
Cl2 Cl 0.14842(6) 0.00803(8) 0.20231(5)
O5 O 0.0849(3) 0.0578(3) 0.2401(2)
O6 O 0.1172(5) -0.0381(6) 0.1504(4)
O7 O 0.1715(7) 0.0918(7) 0.1631(4)
O8 O 0.2248(7) -0.0226(9) 0.2285(4)
C16 C 0.6428(3) 0.6954(5) 0.3727(3)
N5 N 0.6411(5) 0.6907(10) 0.4232(3)
C17 C 0.6257(12) 0.6925(14) 0.3043(7)
H16 H 0.5679 0.6604 0.2962
H17 H 0.6751 0.6582 0.2836
H18 H 0.6228 0.7569 0.2879
O9? O 0.2368(7) 0.0439(10) 0.2067(7)
O10? O 0.1533(8) -0.0844(7) 0.2378(5)
N6? N 0.6211(9) 0.6212(13) 0.4137(6)
C18? C 0.6532(17) 0.7303(15) 0.3051(11)
H19? H 0.6030 0.7058 0.2796
H20? H 0.7111 0.7080 0.2880
H21? H 0.6520 0.7993 0.3044
loop_
_geom_bond_atom_site_label_1
_geom_bond_atom_site_label_2
_geom_bond_site_symmetry_1
_geom_bond_site_symmetry_2
Ag1 N3 1_555 1_555
C1 H1 1_555 1_555
H2 C1 1_555 1_555
C2 H3 1_555 1_555
C3 H4 1_555 1_555
C4 C3 1_555 1_555
H5 C4 1_555 1_555
C5 H6 1_555 1_555
H7 C5 1_555 1_555
C6 C5 1_555 1_555
C7 C6 1_555 1_555
H8 C7 1_555 1_555
C8 C7 1_555 1_555
H9 C8 1_555 1_555
C9 C8 1_555 1_555
H10 C9 1_555 1_555
C10 C9 1_555 1_555
H11 C10 1_555 1_555
C11 C1 1_555 1_555
C12 C11 1_555 1_555
H12 C12 1_555 1_555
C13 C12 1_555 1_555
H13 C13 1_555 1_555
C14 C13 1_555 1_555
H14 C14 1_555 1_555
C15 C14 1_555 1_555
H15 C15 1_555 1_555
N1 C1 1_555 1_555
N2 C2 1_555 1_555
N3 C6 1_555 1_555
N4 C11 1_555 1_555
Cl1 O1 1_555 1_555
O2 Cl1 1_555 1_555
O3 Cl1 1_555 1_555
O4 Cl1 1_555 1_555
Cl2 O5 1_555 1_555
O6 Cl2 1_555 1_555
O7 Cl2 1_555 1_555
O8 Cl2 1_555 1_555
C16 N5 1_555 1_555
C17 C16 1_555 1_555
H16 C17 1_555 1_555
H17 C17 1_555 1_555
H18 C17 1_555 1_555
Ag1E N4 1_555 1_555
N4E Ag1 1_555 1_555
C2 N1 1_555 1_555
C3 N1 1_555 1_555
C4 N2 1_555 1_555
C5 N2 1_555 1_555
C10 N3 1_555 1_555
C15 N4 1_555 1_555

#END
