
#######################################################################
#
#                 Cambridge Crystallographic Data Centre
#                                CCDC 
#
#######################################################################
#
# If this CIF has been generated from an entry in the Cambridge 
# Structural Database, then it will include bibliographic, chemical, 
# crystal, experimental, refinement or atomic coordinate data resulting 
# from the CCDC's data processing and validation procedures.
#
#######################################################################

data_MUKXAT
_symmetry_cell_setting           orthorhombic
_symmetry_space_group_name_H-M   'P c c n'
_symmetry_Int_Tables_number      56
_space_group_name_Hall           '-P 2ab 2ac'
loop_
_symmetry_equiv_pos_site_id
_symmetry_equiv_pos_as_xyz
1 x,y,z
2 1/2+x,-y,1/2-z
3 -x,1/2+y,1/2-z
4 1/2-x,1/2-y,z
5 -x,-y,-z
6 1/2-x,y,1/2+z
7 x,1/2-y,1/2+z
8 1/2+x,1/2+y,-z
_cell_length_a                   21.4421(7)
_cell_length_b                   19.9504(7)
_cell_length_c                   7.5497(2)
_cell_angle_alpha                90
_cell_angle_beta                 90
_cell_angle_gamma                90
_cell_volume                     3229.6
loop_
_atom_site_label
_atom_site_type_symbol
_atom_site_fract_x
_atom_site_fract_y
_atom_site_fract_z
C1 C -0.103(2) 0.070(3) 0.810(7)
C2 C -0.002(5) 0.126(6) 0.848(6)
C3 C 0.099(5) 0.065(2) 0.869(16)
C4 C 0.167(5) 0.078(3) 0.867(14)
C5 C 0.201(8) 0.130(5) 0.800(2)
C6 C 0.264(9) 0.110(6) 0.800(3)
C7 C 0.264(7) 0.060(4) 0.930(19)
C8 C -0.131(3) 0.106(6) 0.650(11)
C9 C -0.094(9) 0.135(10) 0.521(14)
C10 C -0.121(5) 0.160(5) 0.370(8)
C11 C -0.185(4) 0.160(4) 0.350(6)
C12 C -0.222(4) 0.130(4) 0.480(6)
C13 C -0.195(7) 0.105(9) 0.627(12)
O1 O 0.079(3) 0.010(2) 0.900(2)
O2 O 0.205(10) 0.030(6) 0.900(3)
N1 N -0.035(3) 0.071(3) 0.817(18)
N2 N 0.062(4) 0.119(6) 0.830(5)
S1 S -0.032(3) 0.200(11) 0.900(11)
H1 H -0.0157 0.0331 0.7991
H2 H -0.1196 0.0928 0.9190
H3 H -0.1179 0.0236 0.8119
H4 H 0.0815 0.1552 0.7881
H5 H 0.1854 0.1671 0.7365
H6 H 0.2992 0.1405 0.8094
H7 H 0.3004 0.0346 0.9728
H8 H -0.0498 0.1365 0.5352
H9 H -0.0949 0.1831 0.2838
H10 H -0.2028 0.1800 0.2435
H11 H -0.2654 0.1310 0.4602
H12 H -0.2210 0.0857 0.7148
Hg1 Hg 0.050(2) 0.286(8) 0.850(8)
Cl1 Cl 0.060(6) 0.417(11) 0.800(5)
Cl2 Cl 0.110(12) 0.240(14) 0.700(5)
Hg1F Hg 0.050(2) 0.214(8) 0.350(8)
Cl2F Cl 0.110(12) 0.260(14) 1.200(5)
loop_
_geom_bond_atom_site_label_1
_geom_bond_atom_site_label_2
_geom_bond_site_symmetry_1
_geom_bond_site_symmetry_2
C1 C8 1_555 1_555
C2 N1 1_555 1_555
C3 C4 1_555 1_555
C4 C5 1_555 1_555
C5 C6 1_555 1_555
C6 C7 1_555 1_555
C7 O2 1_555 1_555
C8 C9 1_555 1_555
C9 C10 1_555 1_555
C10 C11 1_555 1_555
C11 C12 1_555 1_555
C12 C13 1_555 1_555
C13 C8 1_555 1_555
O1 C3 1_555 1_555
O2 C4 1_555 1_555
N1 C1 1_555 1_555
N2 C2 1_555 1_555
S1 C2 1_555 1_555
H1 N1 1_555 1_555
H2 C1 1_555 1_555
H3 C1 1_555 1_555
H4 N2 1_555 1_555
H5 C5 1_555 1_555
H6 C6 1_555 1_555
H7 C7 1_555 1_555
H8 C9 1_555 1_555
H9 C10 1_555 1_555
H10 C11 1_555 1_555
H11 C12 1_555 1_555
H12 C13 1_555 1_555
Hg1 S1 1_555 1_555
Cl1 Hg1 1_555 1_555
Cl2 Hg1 1_555 1_555
Hg1F Cl2 1_555 1_555
Cl2F Hg1 1_555 1_555
C3 N2 1_555 1_555

#END
