
#######################################################################
#
#                 Cambridge Crystallographic Data Centre
#                                CCDC 
#
#######################################################################
#
# If this CIF has been generated from an entry in the Cambridge 
# Structural Database, then it will include bibliographic, chemical, 
# crystal, experimental, refinement or atomic coordinate data resulting 
# from the CCDC's data processing and validation procedures.
#
#######################################################################

data_MUKZOH
_symmetry_cell_setting           triclinic
_symmetry_space_group_name_H-M   'P -1'
_symmetry_Int_Tables_number      2
_space_group_name_Hall           '-P 1'
loop_
_symmetry_equiv_pos_site_id
_symmetry_equiv_pos_as_xyz
1 x,y,z
2 -x,-y,-z
_cell_length_a                   7.002(4)
_cell_length_b                   7.102(4)
_cell_length_c                   8.434(8)
_cell_angle_alpha                114.68(5)
_cell_angle_beta                 106.81(5)
_cell_angle_gamma                90.55(5)
_cell_volume                     360.692
loop_
_atom_site_label
_atom_site_type_symbol
_atom_site_fract_x
_atom_site_fract_y
_atom_site_fract_z
Ni1 Ni 0.5000 0.0000 0.0000
O1 O 0.4404(3) -0.3037(3) -0.1957(4)
O2 O 0.4172(4) 0.1017(3) -0.1997(3)
N1 N 0.8014(3) 0.0011(3) -0.0005(3)
C1 C 0.9568(4) 0.0974(4) 0.1532(4)
C2 C 0.8483(4) -0.0969(4) -0.1542(4)
H1 H 0.9300(33) 0.1672(34) 0.2644(34)
H2 H 0.7466(39) -0.1628(36) -0.2616(37)
H3 H 0.3586(43) 0.2031(48) -0.1732(37)
H4 H 0.4812(47) 0.1212(45) -0.2469(41)
H5 H 0.3826(48) -0.3799(50) -0.1755(41)
H7 H 0.4023(46) -0.3241(46) -0.2913(44)
C2A C 1.1517(4) 0.0969(4) 0.1542(4)
N1A N 1.1986(3) -0.0011(3) 0.0005(3)
C1A C 1.0432(4) -0.0974(4) -0.1532(4)
H1A H 1.0700(33) -0.1672(34) -0.2644(34)
H2A H 1.2534(39) 0.1628(36) 0.2616(37)
O1A O 0.5596(3) 0.3037(3) 0.1957(4)
H5A H 0.6174(48) 0.3799(50) 0.1755(41)
H7A H 0.5977(46) 0.3241(46) 0.2913(44)
O2A O 0.5828(4) -0.1017(3) 0.1997(3)
H3A H 0.6414(43) -0.2031(48) 0.1732(37)
H4A H 0.5188(47) -0.1212(45) 0.2469(41)
N1A_2 N 0.1986(3) -0.0011(3) 0.0005(3)
Ni1_2 Ni 1.5000 0.0000 0.0000
O3 O 0.8158(4) 0.3841(4) -0.4395(3)
O4 O 0.7915(4) 0.3042(4) -0.2281(3)
N2 N 0.7134(4) 0.3153(3) -0.3749(3)
O5 O 0.5328(4) 0.2550(4) -0.4537(3)
O6 O 0.2220(4) -0.5605(4) -0.1231(4)
H6 H 0.2360(61) -0.4921(61) -0.0044(58)
H8 H 0.1259(51) -0.5874(53) -0.1754(48)
loop_
_geom_bond_atom_site_label_1
_geom_bond_atom_site_label_2
_geom_bond_site_symmetry_1
_geom_bond_site_symmetry_2
Ni1 O1 1_555 1_555
O1 H5 1_555 1_555
O2 Ni1 1_555 1_555
O3 N2 1_555 1_555
N1 Ni1 1_555 1_555
O4 N2 1_555 1_555
N2 O5 1_555 1_555
C1 N1 1_555 1_555
C2 N1 1_555 1_555
O6 H6 1_555 1_555
H1 C1 1_555 1_555
H2 C2 1_555 1_555
H3 O2 1_555 1_555
H4 O2 1_555 1_555
H7 O1 1_555 1_555
H8 O6 1_555 1_555
C2A C1 1_555 1_555
N1A C2A 1_555 1_555
C1A C2 1_555 1_555
H1A C1A 1_555 1_555
H2A C2A 1_555 1_555
O1A Ni1 1_555 1_555
H5A O1A 1_555 1_555
H7A O1A 1_555 1_555
O2A Ni1 1_555 1_555
H3A O2A 1_555 1_555
H4A O2A 1_555 1_555
N1A_2 Ni1 1_555 1_555
Ni1_2 N1A 1_555 1_555
N1A C1A 1_555 1_555

#END
