
#######################################################################
#
#                 Cambridge Crystallographic Data Centre
#                                CCDC 
#
#######################################################################
#
# If this CIF has been generated from an entry in the Cambridge 
# Structural Database, then it will include bibliographic, chemical, 
# crystal, experimental, refinement or atomic coordinate data resulting 
# from the CCDC's data processing and validation procedures.
#
#######################################################################

data_MUKZAT
_symmetry_cell_setting           monoclinic
_symmetry_space_group_name_H-M   'P 21/c'
_symmetry_Int_Tables_number      14
_space_group_name_Hall           '-P 2ybc'
loop_
_symmetry_equiv_pos_site_id
_symmetry_equiv_pos_as_xyz
1 x,y,z
2 x,1/2-y,1/2+z
3 -x,-y,-z
4 -x,1/2+y,1/2-z
_cell_length_a                   6.5090(10)
_cell_length_b                   8.311(2)
_cell_length_c                   18.923(4)
_cell_angle_alpha                90
_cell_angle_beta                 94.98(3)
_cell_angle_gamma                90
_cell_volume                     1019.8
loop_
_atom_site_label
_atom_site_type_symbol
_atom_site_fract_x
_atom_site_fract_y
_atom_site_fract_z
Cu1 Cu 0.27594(9) 0.30610(7) 0.20482(3)
Cl1 Cl 0.54944(19) 0.39453(16) 0.27447(6)
O1 O 0.0599(5) 0.1677(3) 0.14352(13)
O2 O 0.1614(5) 0.1942(3) 0.28021(15)
O3 O -0.0433(5) -0.0033(3) 0.30749(14)
O4 O 0.5675(6) 0.4603(6) 0.11613(18)
H1 H 0.6021 0.4637 0.1574
N1 N 0.3836(6) 0.3748(5) 0.11573(18)
C1 C -0.0156(7) 0.1893(4) 0.0741(2)
C2 C 0.1059(7) 0.2827(5) 0.0309(2)
C3 C 0.0316(8) 0.3029(5) -0.0405(2)
H2 H 0.1124 0.3636 -0.0713
C4 C -0.1553(8) 0.2398(6) -0.0673(2)
H3 H -0.1743 0.2202 -0.1101
C5 C -0.2676(8) 0.1485(7) -0.0248(3)
H4 H -0.3980 0.1052 -0.0434
C6 C -0.1978(8) 0.1232(6) 0.0459(2)
H5 H -0.2759 0.0559 0.0750
C7 C 0.2975(8) 0.3588(6) 0.0519(2)
H6 H 0.3730 0.4007 0.0146
C8 C -0.0670(7) 0.0763(5) 0.18863(19)
H7 H -0.0745 -0.0342 0.1739
H8 H -0.2041 0.1198 0.1848
C9 C 0.0234(6) 0.0884(5) 0.26439(19)
O3C O 0.0433(5) 0.4967(3) 0.19251(14)
Cu1C Cu -0.27594(9) -0.19390(7) 0.29518(3)
loop_
_geom_bond_atom_site_label_1
_geom_bond_atom_site_label_2
_geom_bond_site_symmetry_1
_geom_bond_site_symmetry_2
Cu1 Cl1 1_555 1_555
O1 Cu1 1_555 1_555
O2 Cu1 1_555 1_555
O3 C9 1_555 1_555
O4 H1 1_555 1_555
N1 Cu1 1_555 1_555
C1 O1 1_555 1_555
C2 C1 1_555 1_555
C3 C2 1_555 1_555
H2 C3 1_555 1_555
C4 C3 1_555 1_555
H3 C4 1_555 1_555
C5 C4 1_555 1_555
H4 C5 1_555 1_555
C6 C1 1_555 1_555
H5 C6 1_555 1_555
C7 N1 1_555 1_555
H6 C7 1_555 1_555
C8 O1 1_555 1_555
H7 C8 1_555 1_555
H8 C8 1_555 1_555
C9 O2 1_555 1_555
O3C Cu1 1_555 1_555
Cu1C O3 1_555 1_555
O4 N1 1_555 1_555
C2 C7 1_555 1_555
C5 C6 1_555 1_555
C8 C9 1_555 1_555

#END
