
#######################################################################
#
#                 Cambridge Crystallographic Data Centre
#                                CCDC 
#
#######################################################################
#
# If this CIF has been generated from an entry in the Cambridge 
# Structural Database, then it will include bibliographic, chemical, 
# crystal, experimental, refinement or atomic coordinate data resulting 
# from the CCDC's data processing and validation procedures.
#
#######################################################################

data_MULDUU
_symmetry_cell_setting           monoclinic
_symmetry_space_group_name_H-M   'P 21/c'
_symmetry_Int_Tables_number      14
_space_group_name_Hall           '-P 2ybc'
loop_
_symmetry_equiv_pos_site_id
_symmetry_equiv_pos_as_xyz
1 x,y,z
2 -x,1/2+y,1/2-z
3 -x,-y,-z
4 x,1/2-y,1/2+z
_cell_length_a                   14.4539(14)
_cell_length_b                   26.451(3)
_cell_length_c                   14.8180(15)
_cell_angle_alpha                90
_cell_angle_beta                 113.730(2)
_cell_angle_gamma                90
_cell_volume                     5186.24
loop_
_atom_site_label
_atom_site_type_symbol
_atom_site_fract_x
_atom_site_fract_y
_atom_site_fract_z
Gd1 Gd 0.26762(4) 0.401420(19) 0.00384(4)
Gd2 Gd 0.30128(4) 0.65261(2) 0.43239(4)
Na1 Na 0.4785(3) 0.62703(15) 0.0896(3)
Na2 Na 0.1275(4) 0.42210(19) 0.3617(3)
N1 N 0.4433(6) 0.4253(3) 0.1162(6)
N2 N 0.3815(6) 0.3326(3) 0.1050(6)
N3 N 0.0882(6) 0.4273(3) -0.0392(6)
N4 N 0.1609(6) 0.4156(3) -0.1749(6)
N5 N 0.1973(6) 0.6699(3) 0.2537(6)
N6 N 0.1216(6) 0.6790(3) 0.3862(6)
N7 N 0.4145(6) 0.5825(3) 0.5329(6)
N8 N 0.4779(6) 0.6763(3) 0.5480(5)
O1 O 0.4075(6) 0.5526(3) 0.0351(6)
O2 O 0.3026(5) 0.4869(3) -0.0041(5)
O3 O 0.1959(5) 0.3209(3) -0.0289(5)
O4 O 0.1944(6) 0.2393(3) 0.0009(7)
O5 O 0.1148(6) 0.4224(4) 0.2048(6)
O6 O 0.2271(6) 0.4127(3) 0.1395(5)
O7 O 0.3510(5) 0.3836(3) -0.1000(5)
O8 O 0.3552(6) 0.3780(4) -0.2480(6)
O9 O 0.3939(6) 0.6406(3) 0.1838(6)
O10 O 0.3840(6) 0.6367(3) 0.3288(6)
O11 O 0.2580(5) 0.6626(3) 0.5679(5)
O12 O 0.1414(6) 0.6655(3) 0.6301(6)
O13 O 0.2268(6) 0.4899(3) 0.4308(7)
O14 O 0.2282(5) 0.5723(3) 0.4002(5)
O15 O 0.3358(5) 0.7388(3) 0.4328(5)
O16 O 0.4358(7) 0.8062(3) 0.4905(6)
C1 C 0.3872(8) 0.5082(4) 0.0422(7)
C2 C 0.4688(8) 0.4744(4) 0.1128(8)
C3 C 0.5649(8) 0.4915(5) 0.1714(8)
H1 H 0.5816 0.5254 0.1701
C4 C 0.6370(8) 0.4572(5) 0.2327(9)
H2 H 0.7021 0.4680 0.2721
C5 C 0.6098(8) 0.4075(5) 0.2337(9)
H3 H 0.6569 0.3843 0.2734
C6 C 0.5123(7) 0.3920(4) 0.1756(7)
C7 C 0.4764(8) 0.3404(4) 0.1705(8)
C8 C 0.5351(8) 0.3013(4) 0.2276(8)
H4 H 0.6014 0.3070 0.2719
C9 C 0.4928(10) 0.2541(5) 0.2168(9)
H5 H 0.5298 0.2275 0.2556
C10 C 0.3956(10) 0.2460(5) 0.1486(9)
H6 H 0.3675 0.2138 0.1392
C11 C 0.3405(8) 0.2866(4) 0.0943(8)
C12 C 0.2342(9) 0.2819(4) 0.0159(8)
C13 C 0.1392(9) 0.4205(4) 0.1348(8)
C14 C 0.0569(8) 0.4293(4) 0.0335(8)
C15 C -0.0440(8) 0.4390(4) 0.0156(8)
H7 H -0.0652 0.4394 0.0671
C16 C -0.1112(8) 0.4479(4) -0.0795(9)
H8 H -0.1784 0.4552 -0.0931
C17 C -0.0786(8) 0.4460(4) -0.1535(9)
H9 H -0.1244 0.4511 -0.2182
C18 C 0.0225(7) 0.4363(4) -0.1343(8)
C19 C 0.0649(7) 0.4323(4) -0.2086(7)
C20 C 0.0141(8) 0.4457(4) -0.3069(8)
H10 H -0.0516 0.4581 -0.3292
C21 C 0.0599(9) 0.4408(5) -0.3711(8)
H11 H 0.0259 0.4500 -0.4369
C22 C 0.1585(9) 0.4220(5) -0.3368(9)
H12 H 0.1914 0.4179 -0.3788
C23 C 0.2052(8) 0.4097(4) -0.2375(7)
C24 C 0.3125(8) 0.3886(4) -0.1920(9)
C25 C 0.3479(9) 0.6458(4) 0.2372(9)
C26 C 0.2421(8) 0.6652(4) 0.1913(8)
C27 C 0.1917(10) 0.6770(5) 0.0919(9)
H13 H 0.2239 0.6734 0.0490
C28 C 0.0939(10) 0.6939(5) 0.0579(9)
H14 H 0.0593 0.7023 -0.0082
C29 C 0.0478(9) 0.6984(4) 0.1217(8)
H15 H -0.0188 0.7095 0.0993
C30 C 0.1012(8) 0.6864(4) 0.2202(7)
C31 C 0.0550(8) 0.6900(4) 0.2945(8)
C32 C -0.0453(8) 0.7011(4) 0.2717(8)
H16 H -0.0897 0.7076 0.2071
C33 C -0.0781(9) 0.7023(5) 0.3469(10)
H17 H -0.1450 0.7101 0.3339
C34 C -0.0100(9) 0.6917(4) 0.4431(10)
H18 H -0.0307 0.6926 0.4949
C35 C 0.0890(8) 0.6800(4) 0.4599(8)
C36 C 0.1671(8) 0.6677(4) 0.5612(8)
C37 C 0.2674(9) 0.5322(5) 0.4456(8)
C38 C 0.3752(8) 0.5364(4) 0.5224(8)
C39 C 0.4312(8) 0.4956(4) 0.5778(8)
H19 H 0.4023 0.4636 0.5704
C40 C 0.5289(9) 0.5033(5) 0.6428(8)
H20 H 0.5674 0.4764 0.6792
C41 C 0.5706(8) 0.5515(5) 0.6544(8)
H21 H 0.6365 0.5574 0.6993
C42 C 0.5114(7) 0.5909(4) 0.5971(7)
C43 C 0.5469(8) 0.6441(5) 0.6019(7)
C44 C 0.6457(8) 0.6595(5) 0.6588(8)
H22 H 0.6928 0.6363 0.6985
C45 C 0.6728(8) 0.7080(5) 0.6564(8)
H23 H 0.7394 0.7180 0.6915
C46 C 0.6004(8) 0.7431(5) 0.6010(8)
H24 H 0.6163 0.7771 0.6001
C47 C 0.5029(8) 0.7252(4) 0.5469(7)
C48 C 0.4180(8) 0.7608(4) 0.4851(7)
O17 O 0.2151(7) 0.3635(3) 0.4727(7)
O18 O -0.0391(6) 0.4238(4) 0.3442(7)
Na1B Na 0.5215(3) 0.37297(15) -0.0896(3)
Na1C Na 0.4785(3) 0.87297(15) 0.5896(3)
O7B O 0.6490(5) 0.6164(3) 0.1000(5)
O8B O 0.6448(6) 0.6220(4) 0.2480(6)
O16C O 0.4358(7) 0.6938(3) -0.0095(6)
O19 O 0.4089(7) 0.3767(3) 0.5992(6)
O20 O 0.1845(6) 0.5646(5) 0.8524(7)
O21 O 0.2021(10) 0.6744(6) 0.8324(8)
O22 O 0.007(2) 0.3239(11) 0.202(2)
loop_
_geom_bond_atom_site_label_1
_geom_bond_atom_site_label_2
_geom_bond_site_symmetry_1
_geom_bond_site_symmetry_2
Gd1 N1 1_555 1_555
Gd2 N5 1_555 1_555
Na1 O1 1_555 1_555
Na2 O5 1_555 1_555
N1 C2 1_555 1_555
N2 Gd1 1_555 1_555
N3 Gd1 1_555 1_555
N4 Gd1 1_555 1_555
N5 C26 1_555 1_555
N6 Gd2 1_555 1_555
N7 Gd2 1_555 1_555
N8 Gd2 1_555 1_555
O1 C1 1_555 1_555
O2 Gd1 1_555 1_555
O3 Gd1 1_555 1_555
O4 C12 1_555 1_555
O5 C13 1_555 1_555
O6 Gd1 1_555 1_555
O7 Gd1 1_555 1_555
O8 C24 1_555 1_555
O9 Na1 1_555 1_555
O10 Gd2 1_555 1_555
O11 Gd2 1_555 1_555
O12 C36 1_555 1_555
O13 Na2 1_555 1_555
O14 Gd2 1_555 1_555
O15 Gd2 1_555 1_555
O16 C48 1_555 1_555
C1 O2 1_555 1_555
C2 C1 1_555 1_555
C3 C2 1_555 1_555
H1 C3 1_555 1_555
C4 C3 1_555 1_555
H2 C4 1_555 1_555
C5 C4 1_555 1_555
H3 C5 1_555 1_555
C6 N1 1_555 1_555
C7 N2 1_555 1_555
C8 C7 1_555 1_555
H4 C8 1_555 1_555
C9 C8 1_555 1_555
H5 C9 1_555 1_555
C10 C9 1_555 1_555
H6 C10 1_555 1_555
C11 N2 1_555 1_555
C12 O3 1_555 1_555
C13 O6 1_555 1_555
C14 N3 1_555 1_555
C15 C14 1_555 1_555
H7 C15 1_555 1_555
C16 C15 1_555 1_555
H8 C16 1_555 1_555
C17 C16 1_555 1_555
H9 C17 1_555 1_555
C18 N3 1_555 1_555
C19 N4 1_555 1_555
C20 C19 1_555 1_555
H10 C20 1_555 1_555
C21 C20 1_555 1_555
H11 C21 1_555 1_555
C22 C21 1_555 1_555
H12 C22 1_555 1_555
C23 N4 1_555 1_555
C24 O7 1_555 1_555
C25 O9 1_555 1_555
C26 C25 1_555 1_555
C27 C26 1_555 1_555
H13 C27 1_555 1_555
C28 C27 1_555 1_555
H14 C28 1_555 1_555
C29 C28 1_555 1_555
H15 C29 1_555 1_555
C30 N5 1_555 1_555
C31 N6 1_555 1_555
C32 C31 1_555 1_555
H16 C32 1_555 1_555
C33 C32 1_555 1_555
H17 C33 1_555 1_555
C34 C33 1_555 1_555
H18 C34 1_555 1_555
C35 N6 1_555 1_555
C36 O11 1_555 1_555
C37 O13 1_555 1_555
C38 N7 1_555 1_555
C39 C38 1_555 1_555
H19 C39 1_555 1_555
C40 C39 1_555 1_555
H20 C40 1_555 1_555
C41 C40 1_555 1_555
H21 C41 1_555 1_555
C42 N7 1_555 1_555
C43 N8 1_555 1_555
C44 C43 1_555 1_555
H22 C44 1_555 1_555
C45 C44 1_555 1_555
H23 C45 1_555 1_555
C46 C45 1_555 1_555
H24 C46 1_555 1_555
C47 N8 1_555 1_555
C48 O15 1_555 1_555
O17 Na2 1_555 1_555
O18 Na2 1_555 1_555
Na1B O7 1_555 1_555
Na1C O16 1_555 1_555
O7B Na1 1_555 1_555
O8B Na1 1_555 1_555
O16C Na1 1_555 1_555
O8 Na1B 1_555 1_555
O10 C25 1_555 1_555
O14 C37 1_555 1_555
C5 C6 1_555 1_555
C6 C7 1_555 1_555
C10 C11 1_555 1_555
C11 C12 1_555 1_555
C13 C14 1_555 1_555
C17 C18 1_555 1_555
C18 C19 1_555 1_555
C22 C23 1_555 1_555
C23 C24 1_555 1_555
C29 C30 1_555 1_555
C30 C31 1_555 1_555
C34 C35 1_555 1_555
C35 C36 1_555 1_555
C37 C38 1_555 1_555
C41 C42 1_555 1_555
C42 C43 1_555 1_555
C46 C47 1_555 1_555
C47 C48 1_555 1_555

#END
