
#######################################################################
#
#                 Cambridge Crystallographic Data Centre
#                                CCDC 
#
#######################################################################
#
# If this CIF has been generated from an entry in the Cambridge 
# Structural Database, then it will include bibliographic, chemical, 
# crystal, experimental, refinement or atomic coordinate data resulting 
# from the CCDC's data processing and validation procedures.
#
#######################################################################

data_MULFAA
_symmetry_cell_setting           monoclinic
_symmetry_space_group_name_H-M   'C 2/c'
_symmetry_Int_Tables_number      15
_space_group_name_Hall           '-C 2yn'
loop_
_symmetry_equiv_pos_site_id
_symmetry_equiv_pos_as_xyz
1 x,y,z
2 1/2+x,1/2+y,z
3 x,-y,1/2+z
4 1/2+x,1/2-y,1/2+z
5 -x,-y,-z
6 1/2-x,1/2-y,-z
7 -x,y,1/2-z
8 1/2-x,1/2+y,1/2-z
_cell_length_a                   19.439(4)
_cell_length_b                   7.1280(14)
_cell_length_c                   21.489(4)
_cell_angle_alpha                90
_cell_angle_beta                 112.76(3)
_cell_angle_gamma                90
_cell_volume                     2745.69
loop_
_atom_site_label
_atom_site_type_symbol
_atom_site_fract_x
_atom_site_fract_y
_atom_site_fract_z
Mn1 Mn 0.0000 0.0000 0.0000
N1 N 0.06785(10) -0.2502(2) 0.03831(8)
N2 N 0.12930(10) -0.2906(2) 0.07375(8)
N3 N 0.18892(12) -0.3353(4) 0.11046(13)
N4 N 0.05119(9) 0.1511(2) 0.10473(7)
N5 N 0.08879(8) 0.8758(2) 0.46593(7)
C1 C 0.09305(14) 0.0604(3) 0.16066(9)
H1 H 0.1040 -0.0651 0.1569
C2 C 0.12128(14) 0.1414(3) 0.22385(10)
H2 H 0.1503 0.0703 0.2610
C3 C 0.10689(11) 0.3258(3) 0.23233(9)
C4 C 0.06495(13) 0.4211(3) 0.17431(10)
H3 H 0.0543 0.5474 0.1767
C5 C 0.03858(12) 0.3308(3) 0.11258(9)
H4 H 0.0105 0.3998 0.0745
C6 C 0.13770(13) 0.4185(3) 0.30101(9)
H5 H 0.0968 0.4742 0.3098
H6 H 0.1602 0.3233 0.3351
C7 C 0.19501(13) 0.5683(3) 0.30756(10)
H7 H 0.2294(10) 0.529(3) 0.2892(8)
H8 H 0.1679(12) 0.681(3) 0.2760(10)
C8 C 0.23802(12) 0.6352(4) 0.38100(10)
H9 H 0.2640(12) 0.513(3) 0.4081(10)
H10 H 0.2737(11) 0.726(3) 0.3813(9)
C9 C 0.10701(11) 0.6941(3) 0.47282(9)
H11 H 0.0861 0.6184 0.4961
C10 C 0.15509(11) 0.6117(3) 0.44744(9)
H12 H 0.1660 0.4845 0.4542
C11 C 0.18708(11) 0.7193(3) 0.41175(9)
C12 C 0.17023(12) 0.9082(3) 0.40630(10)
H13 H 0.1913 0.9876 0.3842
C13 C 0.12218(11) 0.9790(3) 0.43361(9)
H14 H 0.1123 1.1071 0.4293
N1D N -0.06785(10) 0.2502(2) -0.03831(8)
N2D N -0.12930(10) 0.2906(2) -0.07375(8)
N3D N -0.18892(12) 0.3353(4) -0.11046(13)
N4D N -0.05119(9) -0.1511(2) -0.10473(7)
N5D N -0.08879(8) -0.8758(2) -0.46593(7)
C1D C -0.09305(14) -0.0604(3) -0.16066(9)
H1D H -0.1040 0.0651 -0.1569
C2D C -0.12128(14) -0.1414(3) -0.22385(10)
H2D H -0.1503 -0.0703 -0.2610
C3D C -0.10689(11) -0.3258(3) -0.23233(9)
C4D C -0.06495(13) -0.4211(3) -0.17431(10)
H3D H -0.0543 -0.5474 -0.1767
C5D C -0.03858(12) -0.3308(3) -0.11258(9)
H4D H -0.0105 -0.3998 -0.0745
C6D C -0.13770(13) -0.4185(3) -0.30101(9)
H5D H -0.0968 -0.4742 -0.3098
H6D H -0.1602 -0.3233 -0.3351
C7D C -0.19501(13) -0.5683(3) -0.30756(10)
H7D H -0.2294(10) -0.529(3) -0.2892(8)
H8D H -0.1679(12) -0.681(3) -0.2760(10)
C8D C -0.23802(12) -0.6352(4) -0.38100(10)
H9D H -0.2640(12) -0.513(3) -0.4081(10)
H10D H -0.2737(11) -0.726(3) -0.3813(9)
C9D C -0.10701(11) -0.6941(3) -0.47282(9)
H11D H -0.0861 -0.6184 -0.4961
C10D C -0.15509(11) -0.6117(3) -0.44744(9)
H12D H -0.1660 -0.4845 -0.4542
C11D C -0.18708(11) -0.7193(3) -0.41175(9)
C12D C -0.17023(12) -0.9082(3) -0.40630(10)
H13D H -0.1913 -0.9876 -0.3842
C13D C -0.12218(11) -0.9790(3) -0.43361(9)
H14D H -0.1123 -1.1071 -0.4293
N5B N 0.08879(8) 0.1242(2) -0.03407(7)
N5F N -0.08879(8) -0.1242(2) 0.03407(7)
Mn1B Mn 0.0000 1.0000 0.5000
Mn1B_2 Mn 0.0000 -1.0000 -0.5000
loop_
_geom_bond_atom_site_label_1
_geom_bond_atom_site_label_2
_geom_bond_site_symmetry_1
_geom_bond_site_symmetry_2
Mn1 N1 1_555 1_555
N1 N2 1_555 1_555
N2 N3 1_555 1_555
N4 Mn1 1_555 1_555
N5 C9 1_555 1_555
C1 N4 1_555 1_555
H1 C1 1_555 1_555
C2 C1 1_555 1_555
H2 C2 1_555 1_555
C3 C2 1_555 1_555
C4 C3 1_555 1_555
H3 C4 1_555 1_555
C5 N4 1_555 1_555
H4 C5 1_555 1_555
C6 C3 1_555 1_555
H5 C6 1_555 1_555
H6 C6 1_555 1_555
C7 C6 1_555 1_555
H7 C7 1_555 1_555
H8 C7 1_555 1_555
C8 C7 1_555 1_555
H9 C8 1_555 1_555
H10 C8 1_555 1_555
C9 H11 1_555 1_555
C10 C9 1_555 1_555
H12 C10 1_555 1_555
C11 C8 1_555 1_555
C12 C11 1_555 1_555
H13 C12 1_555 1_555
C13 N5 1_555 1_555
H14 C13 1_555 1_555
N1D Mn1 1_555 1_555
N2D N1D 1_555 1_555
N3D N2D 1_555 1_555
N4D Mn1 1_555 1_555
N5D C9D 1_555 1_555
C1D N4D 1_555 1_555
H1D C1D 1_555 1_555
C2D C1D 1_555 1_555
H2D C2D 1_555 1_555
C3D C2D 1_555 1_555
C4D C3D 1_555 1_555
H3D C4D 1_555 1_555
C5D N4D 1_555 1_555
H4D C5D 1_555 1_555
C6D C3D 1_555 1_555
H5D C6D 1_555 1_555
H6D C6D 1_555 1_555
C7D C6D 1_555 1_555
H7D C7D 1_555 1_555
H8D C7D 1_555 1_555
C8D C7D 1_555 1_555
H9D C8D 1_555 1_555
H10D C8D 1_555 1_555
C9D H11D 1_555 1_555
C10D C9D 1_555 1_555
H12D C10D 1_555 1_555
C11D C8D 1_555 1_555
C12D C11D 1_555 1_555
H13D C12D 1_555 1_555
C13D N5D 1_555 1_555
H14D C13D 1_555 1_555
N5B Mn1 1_555 1_555
N5F Mn1 1_555 1_555
Mn1B N5 1_555 1_555
Mn1B_2 N5D 1_555 1_555
C4 C5 1_555 1_555
C10 C11 1_555 1_555
C12 C13 1_555 1_555
C4D C5D 1_555 1_555
C10D C11D 1_555 1_555
C12D C13D 1_555 1_555

#END
