
#######################################################################
#
#                 Cambridge Crystallographic Data Centre
#                                CCDC 
#
#######################################################################
#
# If this CIF has been generated from an entry in the Cambridge 
# Structural Database, then it will include bibliographic, chemical, 
# crystal, experimental, refinement or atomic coordinate data resulting 
# from the CCDC's data processing and validation procedures.
#
#######################################################################

data_MULHOS
_symmetry_cell_setting           monoclinic
_symmetry_space_group_name_H-M   'P n'
_symmetry_Int_Tables_number      7
_space_group_name_Hall           'P -2yac'
loop_
_symmetry_equiv_pos_site_id
_symmetry_equiv_pos_as_xyz
1 x,y,z
2 1/2+x,-y,1/2+z
_cell_length_a                   9.4581(9)
_cell_length_b                   15.6156(13)
_cell_length_c                   24.960(2)
_cell_angle_alpha                90
_cell_angle_beta                 100.253(3)
_cell_angle_gamma                90
_cell_volume                     3627.57
loop_
_atom_site_label
_atom_site_type_symbol
_atom_site_fract_x
_atom_site_fract_y
_atom_site_fract_z
Ag1 Ag -0.25233(5) 0.12960(3) 0.26145(2)
Ag2 Ag -0.24989(6) -0.13384(4) 0.63718(2)
Ag3 Ag 0.55014(6) 0.37614(4) 0.62209(3)
Ag4 Ag 0.26500(7) -0.34249(4) 0.29705(3)
C1 C -0.4157(9) -0.0364(5) 0.5284(3)
H1 H -0.3608 -0.0900 0.5265
H2 H -0.4934 -0.0490 0.5491
C2 C -0.4087(8) 0.0008(5) 0.4328(3)
H3 H -0.3082 -0.0067 0.4351
C3 C -0.6247(8) 0.0054(5) 0.4536(3)
H4 H -0.7004 0.0024 0.4740
C4 C -0.6375(8) 0.0267(5) 0.4017(3)
H5 H -0.7240 0.0403 0.3776
C5 C -0.4622(8) 0.0521(5) 0.3385(3)
H6 H -0.3857 0.0960 0.3458
H7 H -0.5471 0.0790 0.3157
C6 C -0.4101(7) -0.0214(4) 0.3065(3)
C7 C -0.4490(9) -0.1060(5) 0.3149(3)
H8 H -0.5063 -0.1201 0.3413
C8 C -0.3999(10) -0.1692(5) 0.2827(4)
H9 H -0.4207 -0.2278 0.2880
C9 C -0.3231(10) -0.1467(5) 0.2442(4)
H10 H -0.2908 -0.1893 0.2220
C10 C -0.2908(9) -0.0592(5) 0.2369(3)
H11 H -0.2392 -0.0430 0.2092
C11 C -0.2527(9) 0.3206(5) 0.2376(3)
H12 H -0.3145 0.3006 0.2058
C12 C -0.2240(9) 0.4071(5) 0.2426(3)
H13 H -0.2665 0.4461 0.2152
C13 C -0.1316(8) 0.4357(5) 0.2886(3)
H14 H -0.1088 0.4948 0.2929
C14 C -0.0732(8) 0.3775(5) 0.3281(3)
H15 H -0.0097 0.3960 0.3599
C15 C -0.1081(7) 0.2928(5) 0.3208(3)
C16 C -0.0449(7) 0.2240(5) 0.3600(3)
H16 H -0.1221 0.1840 0.3656
H17 H 0.0266 0.1912 0.3438
C17 C 0.1639(7) 0.2601(5) 0.4322(3)
H18 H 0.2371 0.2406 0.4136
C18 C -0.0467(8) 0.2935(5) 0.4511(3)
H19 H -0.1475 0.3017 0.4476
C19 C 0.0555(9) 0.3141(6) 0.4947(3)
H20 H 0.0396 0.3385 0.5280
C20 C 0.3229(7) 0.3040(5) 0.5179(3)
H21 H 0.3236 0.3591 0.5376
H22 H 0.4000 0.3060 0.4958
C21 C 0.3533(7) 0.2320(5) 0.5587(3)
C22 C 0.2812(8) 0.1537(5) 0.5523(3)
H23 H 0.2057 0.1441 0.5223
C23 C 0.3223(9) 0.0902(5) 0.5907(3)
H24 H 0.2742 0.0366 0.5878
C24 C 0.4334(9) 0.1057(5) 0.6332(3)
H25 H 0.4648 0.0627 0.6596
C25 C 0.4987(8) 0.1858(5) 0.6367(3)
H26 H 0.5745 0.1970 0.6663
C26 C 0.4825(9) 0.5691(6) 0.6283(4)
H27 H 0.4394 0.5488 0.6574
C27 C 0.4728(9) 0.6552(5) 0.6151(5)
H28 H 0.4271 0.6935 0.6361
C28 C 0.5287(9) 0.6855(5) 0.5719(3)
H29 H 0.5192 0.7442 0.5620
C29 C 0.5999(9) 0.6287(5) 0.5425(3)
H30 H 0.6405 0.6480 0.5124
C30 C 0.6099(8) 0.5434(4) 0.5582(3)
C31 C 0.6831(10) 0.4772(5) 0.5292(3)
H31 H 0.7765 0.4626 0.5522
H32 H 0.6236 0.4246 0.5250
C32 C 0.6034(8) 0.5144(4) 0.4336(3)
H33 H 0.5041 0.5045 0.4334
C33 C 0.8373(8) 0.5255(5) 0.4611(3)
H34 H 0.9293 0.5245 0.4838
C34 C 0.2330(8) 0.4669(6) 0.2811(3)
H35 H 0.1397 0.4867 0.2656
C35 C 0.2573(9) 0.3796(5) 0.2850(4)
H36 H 0.1815 0.3404 0.2730
C36 C 0.3919(9) 0.3504(5) 0.3063(3)
H37 H 0.4106 0.2907 0.3096
C37 C 0.5001(8) 0.4089(5) 0.3228(3)
H38 H 0.5951 0.3900 0.3366
C38 C 0.4683(7) 0.4967(5) 0.3191(3)
C39 C 0.5799(8) 0.5639(5) 0.3384(3)
H39 H 0.6463 0.5690 0.3120
H40 H 0.5325 0.6200 0.3405
C40 C 0.8072(8) 0.5482(5) 0.4083(3)
H41 H 0.8745 0.5659 0.3864
C41 C 0.2043(9) -0.1525(5) 0.2701(4)
H42 H 0.2601 -0.1659 0.2431
C42 C 0.1495(9) -0.0712(5) 0.2715(3)
H43 H 0.1725 -0.0284 0.2473
C43 C 0.0622(9) -0.0521(5) 0.3076(4)
H44 H 0.0185 0.0027 0.3073
C44 C 0.0377(11) -0.1135(6) 0.3450(4)
H45 H -0.0197 -0.1009 0.3716
C45 C 0.0999(10) -0.1950(5) 0.3425(3)
C46 C 0.0683(14) -0.2639(6) 0.3805(3)
H46 H -0.0337 -0.2811 0.3704
H47 H 0.1284 -0.3146 0.3766
C47 C -0.0034(10) -0.2241(5) 0.4674(3)
H48 H -0.1038 -0.2318 0.4556
C48 C 0.2271(10) -0.2183(6) 0.4688(4)
H49 H 0.3175 -0.2217 0.4574
C49 C 0.2054(9) -0.1960(6) 0.5184(3)
H50 H 0.2764 -0.1805 0.5487
C50 C -0.0159(9) -0.1840(5) 0.5623(3)
H51 H -0.1108 -0.1583 0.5481
H52 H 0.0399 -0.1423 0.5874
C51 C -0.0371(8) -0.2643(5) 0.5933(3)
C52 C 0.0318(10) -0.3421(5) 0.5860(4)
H53 H 0.0948 -0.3465 0.5604
C53 C 0.0056(11) -0.4124(6) 0.6170(4)
H54 H 0.0504 -0.4660 0.6132
C54 C -0.0856(11) -0.4028(6) 0.6529(4)
H55 H -0.1043 -0.4499 0.6747
C55 C -0.1514(10) -0.3250(6) 0.6580(4)
H56 H -0.2139 -0.3196 0.6837
C56 C -0.3162(8) 0.0297(5) 0.5597(3)
C57 C -0.3081(9) 0.1145(5) 0.5417(3)
H57 H -0.3676 0.1339 0.5092
C58 C -0.2108(11) 0.1686(5) 0.5726(3)
H58 H -0.1996 0.2256 0.5608
C59 C -0.1306(10) 0.1401(6) 0.6204(4)
H59 H -0.0647 0.1767 0.6427
C60 C -0.1492(9) 0.0557(6) 0.6349(3)
H60 H -0.0940 0.0359 0.6682
N1 N -0.4814(7) -0.0116(4) 0.4729(2)
N2 N -0.5000(7) 0.0256(4) 0.3892(2)
N3 N -0.3338(7) 0.0018(4) 0.2697(2)
N4 N -0.1963(6) 0.2629(4) 0.2761(2)
N5 N 0.0249(6) 0.2586(4) 0.4131(3)
N6 N 0.1841(6) 0.2935(4) 0.4818(3)
N7 N 0.4590(6) 0.2475(4) 0.6001(3)
N8 N 0.5525(7) 0.5126(4) 0.6004(3)
N9 N 0.7084(7) 0.5040(4) 0.4757(2)
N10 N 0.3359(6) 0.5248(4) 0.2985(3)
N11 N 0.6605(6) 0.5410(4) 0.3917(2)
N12 N 0.1816(8) -0.2146(4) 0.3061(3)
N13 N 0.0963(8) -0.2353(5) 0.4374(3)
N14 N 0.0596(7) -0.2001(4) 0.5166(3)
N15 N -0.1290(7) -0.2557(4) 0.6271(2)
N16 N -0.2388(7) 0.0005(4) 0.6058(2)
N17 N 0.8675(8) 0.3482(4) 0.6808(3)
N18 N -0.2794(7) -0.1544(4) 0.7529(3)
N19 N 0.4138(8) 0.3580(4) 0.7365(3)
O1 O 0.7556(7) 0.3197(4) 0.6928(3)
O2 O 0.8604(9) 0.3737(5) 0.6316(3)
O3 O 0.9810(8) 0.3484(6) 0.7123(3)
O4 O -0.1979(7) -0.1050(4) 0.7344(2)
O5 O -0.3492(7) -0.2092(4) 0.7218(3)
O6 O -0.2902(7) -0.1531(4) 0.8013(3)
O7 O 0.4149(14) 0.3584(6) 0.7858(4)
O8 O 0.3506(12) 0.3041(6) 0.7063(4)
O9 O 0.4775(13) 0.4126(6) 0.7156(4)
N20 N -0.1137(7) 0.1196(4) 0.1593(3)
O10 O -0.0668(6) 0.0754(3) 0.2009(2)
O11 O -0.2287(6) 0.1594(4) 0.1568(2)
O12 O -0.0442(6) 0.1256(3) 0.1211(2)
Ag4_2 Ag 0.26500(7) 0.65751(4) 0.29705(3)
Ag4A Ag 0.76500(7) 0.34249(4) 0.79705(3)
N10_2 N 0.3359(6) -0.4752(4) 0.2985(3)
O1A O 0.2556(7) -0.3197(4) 0.1928(3)
N21 N 0.0981(8) 0.2415(4) 0.9218(3)
O13 O 0.1220(14) 0.2064(5) 0.9658(3)
O14 O -0.0241(8) 0.2519(6) 0.8979(4)
O15 O 0.1999(7) 0.2683(5) 0.9012(4)
N22 N 0.5790(6) 0.2527(4) 0.4218(3)
O16 O 0.6165(7) 0.3112(4) 0.4568(3)
O17 O 0.4761(6) 0.2070(4) 0.4257(3)
O18 O 0.6485(5) 0.2422(4) 0.3843(2)
N23 N 0.7366(16) 0.4684(11) 0.9408(8)
O19 O 0.8070(10) 0.5284(7) 0.9538(6)
O20 O 0.657(3) 0.4394(18) 0.9739(11)
O21 O 0.6290(17) 0.4716(12) 0.9031(7)
N24 N 0.9815(14) 0.0159(9) 0.4569(7)
O22 O 0.9093(12) -0.0374(8) 0.4673(5)
O23 O 1.064(2) 0.0004(12) 0.5059(8)
O24 O 1.0528(16) 0.0658(7) 0.4405(5)
O25 O 0.1623(10) 0.3857(6) 0.6195(3)
loop_
_geom_bond_atom_site_label_1
_geom_bond_atom_site_label_2
_geom_bond_site_symmetry_1
_geom_bond_site_symmetry_2
Ag1 N3 1_555 1_555
Ag2 N15 1_555 1_555
Ag3 N7 1_555 1_555
Ag4 N12 1_555 1_555
C1 H1 1_555 1_555
H2 C1 1_555 1_555
C2 H3 1_555 1_555
C3 H4 1_555 1_555
C4 C3 1_555 1_555
H5 C4 1_555 1_555
C5 H6 1_555 1_555
H7 C5 1_555 1_555
C6 C5 1_555 1_555
C7 C6 1_555 1_555
H8 C7 1_555 1_555
C8 C7 1_555 1_555
H9 C8 1_555 1_555
C9 C8 1_555 1_555
H10 C9 1_555 1_555
C10 C9 1_555 1_555
H11 C10 1_555 1_555
C11 H12 1_555 1_555
C12 C11 1_555 1_555
H13 C12 1_555 1_555
C13 C12 1_555 1_555
H14 C13 1_555 1_555
C14 C13 1_555 1_555
H15 C14 1_555 1_555
C15 C14 1_555 1_555
C16 C15 1_555 1_555
H16 C16 1_555 1_555
H17 C16 1_555 1_555
C17 H18 1_555 1_555
C18 H19 1_555 1_555
C19 C18 1_555 1_555
H20 C19 1_555 1_555
C20 H21 1_555 1_555
H22 C20 1_555 1_555
C21 C20 1_555 1_555
C22 C21 1_555 1_555
H23 C22 1_555 1_555
C23 C22 1_555 1_555
H24 C23 1_555 1_555
C24 C23 1_555 1_555
H25 C24 1_555 1_555
C25 C24 1_555 1_555
H26 C25 1_555 1_555
C26 H27 1_555 1_555
C27 C26 1_555 1_555
H28 C27 1_555 1_555
C28 C27 1_555 1_555
H29 C28 1_555 1_555
C29 C28 1_555 1_555
H30 C29 1_555 1_555
C30 C29 1_555 1_555
C31 C30 1_555 1_555
H31 C31 1_555 1_555
H32 C31 1_555 1_555
C32 H33 1_555 1_555
C33 H34 1_555 1_555
C34 H35 1_555 1_555
C35 C34 1_555 1_555
H36 C35 1_555 1_555
C36 C35 1_555 1_555
H37 C36 1_555 1_555
C37 C36 1_555 1_555
H38 C37 1_555 1_555
C38 C37 1_555 1_555
C39 C38 1_555 1_555
H39 C39 1_555 1_555
H40 C39 1_555 1_555
C40 C33 1_555 1_555
H41 C40 1_555 1_555
C41 H42 1_555 1_555
C42 C41 1_555 1_555
H43 C42 1_555 1_555
C43 C42 1_555 1_555
H44 C43 1_555 1_555
C44 C43 1_555 1_555
H45 C44 1_555 1_555
C45 C44 1_555 1_555
C46 C45 1_555 1_555
H46 C46 1_555 1_555
H47 C46 1_555 1_555
C47 H48 1_555 1_555
C48 H49 1_555 1_555
C49 C48 1_555 1_555
H50 C49 1_555 1_555
C50 H51 1_555 1_555
H52 C50 1_555 1_555
C51 C50 1_555 1_555
C52 C51 1_555 1_555
H53 C52 1_555 1_555
C53 C52 1_555 1_555
H54 C53 1_555 1_555
C54 C53 1_555 1_555
H55 C54 1_555 1_555
C55 C54 1_555 1_555
H56 C55 1_555 1_555
C56 C1 1_555 1_555
C57 C56 1_555 1_555
H57 C57 1_555 1_555
C58 C57 1_555 1_555
H58 C58 1_555 1_555
C59 C58 1_555 1_555
H59 C59 1_555 1_555
C60 C59 1_555 1_555
H60 C60 1_555 1_555
N1 C1 1_555 1_555
N2 C2 1_555 1_555
N3 C6 1_555 1_555
N4 Ag1 1_555 1_555
N5 C16 1_555 1_555
N6 C17 1_555 1_555
N7 C21 1_555 1_555
N8 Ag3 1_555 1_555
N9 C31 1_555 1_555
N10 C34 1_555 1_555
N11 C32 1_555 1_555
N12 C41 1_555 1_555
N13 C46 1_555 1_555
N14 C47 1_555 1_555
N15 C51 1_555 1_555
N16 Ag2 1_555 1_555
N17 O1 1_555 1_555
N18 O4 1_555 1_555
N19 O7 1_555 1_555
O1 Ag3 1_555 1_555
O2 N17 1_555 1_555
O3 N17 1_555 1_555
O4 Ag2 1_555 1_555
O5 N18 1_555 1_555
O6 N18 1_555 1_555
O8 N19 1_555 1_555
O9 Ag3 1_555 1_555
N20 O10 1_555 1_555
O10 Ag1 1_555 1_555
O11 Ag1 1_555 1_555
O12 N20 1_555 1_555
N21 O13 1_555 1_555
O14 N21 1_555 1_555
O15 N21 1_555 1_555
N22 O16 1_555 1_555
O17 N22 1_555 1_555
O18 N22 1_555 1_555
N23 O19 1_555 1_555
O20 N23 1_555 1_555
O21 N23 1_555 1_555
N24 O22 1_555 1_555
O23 N24 1_555 1_555
O24 N24 1_555 1_555
Ag4_2 N10 1_555 1_555
Ag4A O1 1_555 1_555
N10_2 Ag4 1_555 1_555
O1A Ag4 1_555 1_555
C2 N1 1_555 1_555
C3 N1 1_555 1_555
C4 N2 1_555 1_555
C5 N2 1_555 1_555
C10 N3 1_555 1_555
C11 N4 1_555 1_555
C15 N4 1_555 1_555
C17 N5 1_555 1_555
C18 N5 1_555 1_555
C19 N6 1_555 1_555
C20 N6 1_555 1_555
C25 N7 1_555 1_555
C26 N8 1_555 1_555
C30 N8 1_555 1_555
C32 N9 1_555 1_555
C33 N9 1_555 1_555
C38 N10 1_555 1_555
C39 N11 1_555 1_555
C40 N11 1_555 1_555
C45 N12 1_555 1_555
C47 N13 1_555 1_555
C48 N13 1_555 1_555
C49 N14 1_555 1_555
C50 N14 1_555 1_555
C55 N15 1_555 1_555
C56 N16 1_555 1_555
C60 N16 1_555 1_555
N19 O9 1_555 1_555
N20 O11 1_555 1_555

#END
