
#######################################################################
#
#                 Cambridge Crystallographic Data Centre
#                                CCDC 
#
#######################################################################
#
# If this CIF has been generated from an entry in the Cambridge 
# Structural Database, then it will include bibliographic, chemical, 
# crystal, experimental, refinement or atomic coordinate data resulting 
# from the CCDC's data processing and validation procedures.
#
#######################################################################

data_MULLUC
_symmetry_cell_setting           monoclinic
_symmetry_space_group_name_H-M   'P 21/c'
_symmetry_Int_Tables_number      14
_space_group_name_Hall           '-P 2ybc'
loop_
_symmetry_equiv_pos_site_id
_symmetry_equiv_pos_as_xyz
1 x,y,z
2 -x,1/2+y,1/2-z
3 -x,-y,-z
4 x,1/2-y,1/2+z
_cell_length_a                   11.0845(8)
_cell_length_b                   36.9893(17)
_cell_length_c                   12.4059(9)
_cell_angle_alpha                90
_cell_angle_beta                 107.352(8)
_cell_angle_gamma                90
_cell_volume                     4855.03
loop_
_atom_site_label
_atom_site_type_symbol
_atom_site_fract_x
_atom_site_fract_y
_atom_site_fract_z
Pr1 Pr 1.13454(3) -0.12317(2) -0.19089(2)
C1 C 1.0471(5) -0.03237(13) -0.2834(4)
O1 O 1.0278(3) -0.06448(9) -0.2501(3)
C2 C 1.1176(5) -0.02650(14) -0.3603(4)
H1 H 1.1499 -0.0462 -0.3891
C3 C 1.1387(5) 0.00754(15) -0.3925(4)
H2 H 1.1840 0.0103 -0.4442
C4 C 1.0947(5) 0.03888(14) -0.3509(4)
C5 C 1.1256(7) 0.07592(15) -0.3875(5)
H3 H 1.0837 0.0941 -0.3565
H4 H 1.0975 0.0774 -0.4684
H5 H 1.2153 0.0797 -0.3607
C6 C 1.0260(5) 0.03406(14) -0.2786(4)
H6 H 0.9954 0.0543 -0.2507
C7 C 0.9990(5) -0.00080(13) -0.2438(4)
C8 C 0.9229(5) -0.00366(14) -0.1712(4)
H7 H 0.8935 0.0176 -0.1480
N1 N 0.8910(4) -0.03390(10) -0.1347(3)
H8 H 0.9203 -0.0532 -0.1564
C9 C 0.8140(5) -0.03909(14) -0.0635(4)
C10 C 0.7706(5) -0.01034(13) -0.0131(4)
H9 H 0.7918 0.0133 -0.0253
C11 C 0.6953(5) -0.01751(13) 0.0557(4)
C12 C 0.6630(5) -0.05279(14) 0.0746(4)
H10 H 0.6121 -0.0575 0.1205
C13 C 0.7078(6) -0.08052(15) 0.0242(5)
H11 H 0.6869 -0.1042 0.0366
C14 C 0.7830(5) -0.07429(14) -0.0446(5)
H12 H 0.8126 -0.0935 -0.0779
N2 N 0.6564(4) 0.01249(11) 0.1090(3)
H13 H 0.6864 0.0333 0.0992
C15 C 0.5803(5) 0.01177(14) 0.1712(4)
H14 H 0.5451 -0.0104 0.1805
C16 C 0.5473(5) 0.04195(14) 0.2252(4)
C17 C 0.5982(5) 0.07666(14) 0.2153(4)
O2 O 0.6845(3) 0.08128(9) 0.1646(3)
C18 C 0.5509(6) 0.10576(16) 0.2651(5)
H15 H 0.5770 0.1292 0.2571
C19 C 0.4678(5) 0.09966(17) 0.3242(5)
H16 H 0.4395 0.1194 0.3564
C20 C 0.4218(5) 0.06502(16) 0.3396(5)
C21 C 0.3328(6) 0.05956(18) 0.4104(5)
H17 H 0.2479 0.0652 0.3660
H18 H 0.3572 0.0752 0.4751
H19 H 0.3368 0.0349 0.4350
C22 C 0.4605(5) 0.03730(15) 0.2879(4)
H20 H 0.4292 0.0143 0.2936
C23 C 1.4135(5) -0.15712(14) 0.0222(4)
O3 O 1.3245(3) -0.15544(9) -0.0746(3)
C24 C 1.4427(6) -0.12685(14) 0.0961(5)
H21 H 1.4022 -0.1048 0.0742
C25 C 1.5309(6) -0.13031(15) 0.1997(5)
H22 H 1.5486 -0.1101 0.2463
C26 C 1.5956(6) -0.16204(18) 0.2399(5)
C27 C 1.6872(7) -0.16474(18) 0.3580(5)
H23 H 1.6487 -0.1549 0.4113
H24 H 1.7626 -0.1514 0.3615
H25 H 1.7084 -0.1896 0.3758
C28 C 1.5720(6) -0.19087(17) 0.1683(5)
H26 H 1.6164 -0.2122 0.1914
C29 C 1.4821(5) -0.18935(14) 0.0599(4)
C30 C 1.4584(5) -0.22088(15) -0.0055(5)
H27 H 1.5051 -0.2414 0.0242
N3 N 1.3756(4) -0.22355(11) -0.1047(3)
H28 H 1.3394 -0.2039 -0.1347
C31 C 1.3395(5) -0.25573(14) -0.1682(4)
C32 C 1.2749(5) -0.25191(14) -0.2822(4)
H29 H 1.2606 -0.2292 -0.3156
C33 C 1.2328(5) -0.28251(13) -0.3445(4)
C34 C 1.2555(5) -0.31642(14) -0.2953(4)
H30 H 1.2266 -0.3370 -0.3382
C35 C 1.3211(6) -0.31948(15) -0.1825(5)
H31 H 1.3371 -0.3423 -0.1500
C36 C 1.3634(5) -0.28945(15) -0.1169(5)
H32 H 1.4068 -0.2916 -0.0405
N4 N 1.1634(4) -0.28034(11) -0.4603(3)
H33 H 1.1508 -0.3004 -0.4972
C37 C 1.1164(5) -0.25132(14) -0.5177(4)
H34 H 1.1293 -0.2295 -0.4788
C38 C 1.0480(5) -0.25019(13) -0.6330(4)
C39 C 1.0288(5) -0.28253(14) -0.7011(4)
O4 O 1.0728(3) -0.31331(9) -0.6579(3)
C40 C 0.9591(5) -0.27804(14) -0.8164(5)
H35 H 0.9413 -0.2980 -0.8643
C41 C 0.9179(5) -0.24418(15) -0.8576(5)
H36 H 0.8723 -0.2423 -0.9336
C42 C 0.9400(5) -0.21231(15) -0.7927(5)
C43 C 0.9016(6) -0.17578(15) -0.8459(5)
H37 H 0.8110 -0.1741 -0.8714
H38 H 0.9341 -0.1728 -0.9090
H39 H 0.9352 -0.1572 -0.7912
C44 C 1.0050(5) -0.21631(14) -0.6816(5)
H40 H 1.0219 -0.1959 -0.6359
N5 N 0.8622(4) -0.13624(12) -0.3114(4)
O5 O 0.7551(4) -0.14830(14) -0.3585(4)
O6 O 0.9439(4) -0.13624(10) -0.3620(3)
O7 O 0.8934(4) -0.12610(10) -0.2108(3)
N6 N 1.1217(4) -0.09942(13) 0.0428(4)
O8 O 1.1146(5) -0.09137(12) 0.1361(3)
O9 O 1.1583(4) -0.07743(10) -0.0169(3)
O10 O 1.0932(4) -0.13031(10) 0.0023(3)
N7 N 1.1881(5) -0.14495(13) -0.4060(4)
O11 O 1.1975(5) -0.15594(12) -0.4961(4)
O12 O 1.1686(4) -0.11260(9) -0.3901(3)
O13 O 1.2007(4) -0.16642(9) -0.3238(3)
Pr1B Pr 0.86546(3) 0.12317(2) 0.19089(2)
Pr1C Pr 1.13454(3) -0.37683(2) -0.69089(2)
O2B O 1.3155(3) -0.08128(9) -0.1646(3)
O4C O 1.0728(3) -0.18669(9) -0.1579(3)
C45 C 0.3031(9) 0.1876(3) 0.1475(7)
H41 H 0.3451 0.1830 0.0914
H42 H 0.2391 0.2057 0.1201
H43 H 0.2648 0.1657 0.1629
C46 C 0.3919(10) 0.2001(2) 0.2478(8)
N8 N 0.4649(9) 0.2080(2) 0.3259(7)
C47 C 0.7170(8) 0.0719(2) 0.5843(7)
H44 H 0.8021 0.0633 0.6148
H45 H 0.7176 0.0977 0.5768
H46 H 0.6795 0.0612 0.5114
C48 C 0.6458(9) 0.0625(2) 0.6574(8)
N9 N 0.5889(9) 0.0539(2) 0.7148(8)
loop_
_geom_bond_atom_site_label_1
_geom_bond_atom_site_label_2
_geom_bond_site_symmetry_1
_geom_bond_site_symmetry_2
Pr1 O1 1_555 1_555
C1 O1 1_555 1_555
C2 C1 1_555 1_555
H1 C2 1_555 1_555
C3 C2 1_555 1_555
H2 C3 1_555 1_555
C4 C3 1_555 1_555
C5 C4 1_555 1_555
H3 C5 1_555 1_555
H4 C5 1_555 1_555
H5 C5 1_555 1_555
C6 C4 1_555 1_555
H6 C6 1_555 1_555
C7 C1 1_555 1_555
C8 C7 1_555 1_555
H7 C8 1_555 1_555
N1 C8 1_555 1_555
H8 N1 1_555 1_555
C9 N1 1_555 1_555
C10 C9 1_555 1_555
H9 C10 1_555 1_555
C11 C10 1_555 1_555
C12 C11 1_555 1_555
H10 C12 1_555 1_555
C13 C12 1_555 1_555
H11 C13 1_555 1_555
C14 C9 1_555 1_555
H12 C14 1_555 1_555
N2 C11 1_555 1_555
H13 N2 1_555 1_555
C15 N2 1_555 1_555
H14 C15 1_555 1_555
C16 C15 1_555 1_555
C17 C16 1_555 1_555
O2 C17 1_555 1_555
C18 C17 1_555 1_555
H15 C18 1_555 1_555
C19 C18 1_555 1_555
H16 C19 1_555 1_555
C20 C19 1_555 1_555
C21 C20 1_555 1_555
H17 C21 1_555 1_555
H18 C21 1_555 1_555
H19 C21 1_555 1_555
C22 C16 1_555 1_555
H20 C22 1_555 1_555
C23 O3 1_555 1_555
O3 Pr1 1_555 1_555
C24 C23 1_555 1_555
H21 C24 1_555 1_555
C25 C24 1_555 1_555
H22 C25 1_555 1_555
C26 C25 1_555 1_555
C27 C26 1_555 1_555
H23 C27 1_555 1_555
H24 C27 1_555 1_555
H25 C27 1_555 1_555
C28 C26 1_555 1_555
H26 C28 1_555 1_555
C29 C23 1_555 1_555
C30 C29 1_555 1_555
H27 C30 1_555 1_555
N3 C30 1_555 1_555
H28 N3 1_555 1_555
C31 N3 1_555 1_555
C32 C31 1_555 1_555
H29 C32 1_555 1_555
C33 C32 1_555 1_555
C34 C33 1_555 1_555
H30 C34 1_555 1_555
C35 C34 1_555 1_555
H31 C35 1_555 1_555
C36 C31 1_555 1_555
H32 C36 1_555 1_555
N4 C33 1_555 1_555
H33 N4 1_555 1_555
C37 N4 1_555 1_555
H34 C37 1_555 1_555
C38 C37 1_555 1_555
C39 C38 1_555 1_555
O4 C39 1_555 1_555
C40 C39 1_555 1_555
H35 C40 1_555 1_555
C41 C40 1_555 1_555
H36 C41 1_555 1_555
C42 C41 1_555 1_555
C43 C42 1_555 1_555
H37 C43 1_555 1_555
H38 C43 1_555 1_555
H39 C43 1_555 1_555
C44 C38 1_555 1_555
H40 C44 1_555 1_555
N5 O5 1_555 1_555
O6 Pr1 1_555 1_555
O7 Pr1 1_555 1_555
N6 O8 1_555 1_555
O9 Pr1 1_555 1_555
O10 Pr1 1_555 1_555
N7 O11 1_555 1_555
O12 Pr1 1_555 1_555
O13 Pr1 1_555 1_555
C45 H41 1_555 1_555
H42 C45 1_555 1_555
H43 C45 1_555 1_555
C46 C45 1_555 1_555
N8 C46 1_555 1_555
C47 H44 1_555 1_555
H45 C47 1_555 1_555
H46 C47 1_555 1_555
C48 C47 1_555 1_555
N9 C48 1_555 1_555
Pr1B O2 1_555 1_555
Pr1C O4 1_555 1_555
O2B Pr1 1_555 1_555
O4C Pr1 1_555 1_555
C6 C7 1_555 1_555
C13 C14 1_555 1_555
C20 C22 1_555 1_555
C28 C29 1_555 1_555
C35 C36 1_555 1_555
C42 C44 1_555 1_555
N5 O6 1_555 1_555
N5 O7 1_555 1_555
N6 O9 1_555 1_555
N6 O10 1_555 1_555
N7 O12 1_555 1_555
N7 O13 1_555 1_555

#END
