
#######################################################################
#
#                 Cambridge Crystallographic Data Centre
#                                CCDC 
#
#######################################################################
#
# If this CIF has been generated from an entry in the Cambridge 
# Structural Database, then it will include bibliographic, chemical, 
# crystal, experimental, refinement or atomic coordinate data resulting 
# from the CCDC's data processing and validation procedures.
#
#######################################################################

data_MULMOX
_symmetry_cell_setting           triclinic
_symmetry_space_group_name_H-M   'P -1'
_symmetry_Int_Tables_number      2
_space_group_name_Hall           '-P 1'
loop_
_symmetry_equiv_pos_site_id
_symmetry_equiv_pos_as_xyz
1 x,y,z
2 -x,-y,-z
_cell_length_a                   9.3640(4)
_cell_length_b                   10.0220(4)
_cell_length_c                   14.5735(7)
_cell_angle_alpha                88.255(4)
_cell_angle_beta                 77.797(4)
_cell_angle_gamma                88.269(4)
_cell_volume                     1335.75
loop_
_atom_site_label
_atom_site_type_symbol
_atom_site_fract_x
_atom_site_fract_y
_atom_site_fract_z
Zn1 Zn 0.35638(4) 0.17376(4) 0.11306(3)
Zn2 Zn 0.25056(4) -0.04624(4) 0.28626(3)
O1 O 0.2904(3) 0.2725(2) 0.23003(18)
O2 O 0.1312(3) 0.1254(2) 0.31169(19)
O3 O 0.2150(3) 0.7566(2) 0.27829(17)
O4 O 0.0039(3) 0.8334(2) 0.36337(19)
O5 O 0.1029(3) 0.1763(2) 0.08781(19)
O6 O 0.2359(3) 0.0056(2) 0.12900(18)
O7 O -0.5302(3) -0.0616(2) 0.23205(17)
O8 O -0.4480(3) 0.0946(2) 0.12083(19)
C1 C 0.1723(4) 0.2429(3) 0.2883(3)
C2 C 0.0794(4) 0.3574(3) 0.3325(3)
C3 C -0.0539(4) 0.3344(4) 0.3947(3)
H1 H -0.0849 0.2455 0.4099
C4 C -0.1406(4) 0.4406(4) 0.4342(3)
H2 H -0.2313 0.4247 0.4761
C5 C -0.0949(4) 0.5716(4) 0.4127(3)
H3 H -0.1548 0.6441 0.4402
C6 C 0.0384(4) 0.5967(3) 0.3507(3)
C7 C 0.1251(4) 0.4884(3) 0.3114(3)
H4 H 0.2161 0.504 0.2698
C8 C 0.0853(4) 0.7388(4) 0.3306(3)
C9 C 0.1135(4) 0.0564(4) 0.1113(3)
C10 C -0.0145(4) -0.0348(4) 0.1264(3)
C11 C 0.0067(4) -0.1726(4) 0.1375(3)
H5 H 0.1027 -0.2109 0.1261
C12 C -0.1149(4) -0.2539(3) 0.1657(3)
H6 H -0.1015 -0.3476 0.1737
C13 C -0.2548(4) -0.1975(4) 0.1819(3)
H7 H -0.3364 -0.2518 0.2058
C14 C -0.2771(4) -0.0619(3) 0.1633(3)
C15 C -0.1563(4) 0.0197(4) 0.1338(3)
H8 H -0.1702 0.1115 0.1188
C16 C -0.4302(4) -0.0051(3) 0.1727(3)
N1 N 0.4271(3) 0.2936(3) 0.0029(2)
N2 N 0.5690(3) 0.3483(3) -0.1347(2)
H9 H 0.641(4) 0.338(5) -0.182(2)
C17 C 0.5488(4) 0.2644(4) -0.0597(3)
H10 H 0.6139 0.1924 -0.0522
C18 C 0.4509(4) 0.4386(4) -0.1224(3)
C19 C 0.4100(4) 0.5404(4) -0.1806(3)
H11 H 0.4698 0.5629 -0.2399
C20 C 0.2781(4) 0.6064(4) -0.1471(3)
H12 H 0.2457 0.6749 -0.185
C21 C 0.1899(4) 0.5744(4) -0.0580(3)
H13 H 0.1012 0.6234 -0.0369
C22 C 0.2300(4) 0.4738(4) -0.0010(3)
H14 H 0.1703 0.4525 0.0585
C23 C 0.3622(4) 0.4042(3) -0.0344(3)
N3 N 0.2604(4) -0.0092(3) 0.5745(3)
H15 H 0.223(5) 0.031(5) 0.624(2)
N4 N 0.2807(3) -0.0541(3) 0.4238(2)
C24 C 0.2168(4) 0.0226(4) 0.4936(3)
H16 H 0.1481 0.0923 0.4876
C25 C 0.3605(4) -0.1155(4) 0.5575(3)
C26 C 0.4399(5) -0.1894(4) 0.6135(3)
H17 H 0.4338 -0.169 0.6775
C27 C 0.5281(5) -0.2940(4) 0.5715(3)
H18 H 0.5842 -0.3459 0.6074
C28 C 0.5364(4) -0.3251(4) 0.4766(3)
H19 H 0.5951 -0.3992 0.4505
C29 C 0.4601(4) -0.2490(4) 0.4207(3)
H20 H 0.4682 -0.2681 0.3563
C30 C 0.3708(4) -0.1434(3) 0.4624(3)
Zn1_2 Zn -0.64362(4) 0.17376(4) 0.11306(3)
Zn2_2 Zn -0.74944(4) -0.04624(4) 0.28626(3)
Zn2_3 Zn 0.25056(4) 0.95376(4) 0.28626(3)
O3_2 O 0.2150(3) -0.2434(2) 0.27829(17)
O7_2 O 0.4698(3) -0.0616(2) 0.23205(17)
O8_2 O 0.5520(3) 0.0946(2) 0.12083(19)
loop_
_geom_bond_atom_site_label_1
_geom_bond_atom_site_label_2
_geom_bond_site_symmetry_1
_geom_bond_site_symmetry_2
Zn1 O1 1_555 1_555
Zn2 O2 1_555 1_555
O1 C1 1_555 1_555
O2 C1 1_555 1_555
O3 C8 1_555 1_555
O4 C8 1_555 1_555
O5 Zn1 1_555 1_555
O6 Zn1 1_555 1_555
O7 C16 1_555 1_555
O8 C16 1_555 1_555
C1 C2 1_555 1_555
C2 C3 1_555 1_555
C3 H1 1_555 1_555
C4 C3 1_555 1_555
H2 C4 1_555 1_555
C5 C4 1_555 1_555
H3 C5 1_555 1_555
C6 C5 1_555 1_555
C7 C2 1_555 1_555
H4 C7 1_555 1_555
C8 C6 1_555 1_555
C9 O5 1_555 1_555
C10 C9 1_555 1_555
C11 C10 1_555 1_555
H5 C11 1_555 1_555
C12 C11 1_555 1_555
H6 C12 1_555 1_555
C13 C12 1_555 1_555
H7 C13 1_555 1_555
C14 C13 1_555 1_555
C15 C10 1_555 1_555
H8 C15 1_555 1_555
C16 C14 1_555 1_555
N1 Zn1 1_555 1_555
N2 H9 1_555 1_555
C17 N1 1_555 1_555
H10 C17 1_555 1_555
C18 N2 1_555 1_555
C19 C18 1_555 1_555
H11 C19 1_555 1_555
C20 C19 1_555 1_555
H12 C20 1_555 1_555
C21 C20 1_555 1_555
H13 C21 1_555 1_555
C22 C21 1_555 1_555
H14 C22 1_555 1_555
C23 N1 1_555 1_555
N3 H15 1_555 1_555
N4 Zn2 1_555 1_555
C24 N3 1_555 1_555
H16 C24 1_555 1_555
C25 N3 1_555 1_555
C26 C25 1_555 1_555
H17 C26 1_555 1_555
C27 C26 1_555 1_555
H18 C27 1_555 1_555
C28 C27 1_555 1_555
H19 C28 1_555 1_555
C29 C28 1_555 1_555
H20 C29 1_555 1_555
C30 N4 1_555 1_555
Zn1_2 O8 1_555 1_555
Zn2_2 O7 1_555 1_555
Zn2_3 O3 1_555 1_555
O3_2 Zn2 1_555 1_555
O7_2 Zn2 1_555 1_555
O8_2 Zn1 1_555 1_555
Zn2 O6 1_555 1_555
O6 C9 1_555 1_555
C6 C7 1_555 1_555
C14 C15 1_555 1_555
N2 C17 1_555 1_555
C18 C23 1_555 1_555
C22 C23 1_555 1_555
N4 C24 1_555 1_555
C25 C30 1_555 1_555
C29 C30 1_555 1_555

#END
