
#######################################################################
#
#                 Cambridge Crystallographic Data Centre
#                                CCDC 
#
#######################################################################
#
# If this CIF has been generated from an entry in the Cambridge 
# Structural Database, then it will include bibliographic, chemical, 
# crystal, experimental, refinement or atomic coordinate data resulting 
# from the CCDC's data processing and validation procedures.
#
#######################################################################

data_MULXUN
_symmetry_cell_setting           triclinic
_symmetry_space_group_name_H-M   'P -1'
_symmetry_Int_Tables_number      2
_space_group_name_Hall           '-P 1'
loop_
_symmetry_equiv_pos_site_id
_symmetry_equiv_pos_as_xyz
1 x,y,z
2 -x,-y,-z
_cell_length_a                   10.808(3)
_cell_length_b                   12.394(4)
_cell_length_c                   14.998(5)
_cell_angle_alpha                77.012(5)
_cell_angle_beta                 86.247(5)
_cell_angle_gamma                88.601(6)
_cell_volume                     1953.35
loop_
_atom_site_label
_atom_site_type_symbol
_atom_site_fract_x
_atom_site_fract_y
_atom_site_fract_z
C1 C 0.4407(5) 0.4411(5) 0.3352(4)
C2 C 0.4045(5) 0.4084(5) 0.2490(4)
H1 H 0.317(6) 0.386(5) 0.260(4)
C3 C 0.4784(5) 0.3072(5) 0.2319(4)
H2 H 0.4782 0.2508 0.2884
H3 H 0.4384 0.2768 0.1870
C4 C 0.6108(5) 0.3359(5) 0.1977(4)
H4 H 0.6521 0.2712 0.1830
H5 H 0.6541 0.3563 0.2460
C5 C 0.6183(5) 0.4310(5) 0.1130(4)
H6 H 0.576(5) 0.406(5) 0.066(4)
C6 C 0.7518(5) 0.4567(5) 0.0735(4)
C7 C 0.5465(5) 0.5334(5) 0.1297(4)
H7 H 0.5472 0.5897 0.0732
H8 H 0.5867 0.5633 0.1748
C8 C 0.4121(5) 0.5038(5) 0.1641(4)
H9 H 0.3705 0.5684 0.1788
H10 H 0.3693 0.4833 0.1157
C9 C 0.9484(5) 0.4975(5) -0.1720(4)
C10 C 0.9503(5) 0.4170(5) -0.2369(4)
H11 H 0.883(6) 0.365(5) -0.214(4)
C11 C 0.9255(5) 0.4726(6) -0.3362(4)
H12 H 0.8543 0.5219 -0.3363
H13 H 0.9050 0.4162 -0.3682
C12 C 1.0356(5) 0.5386(5) -0.3879(4)
H14 H 1.0492 0.6016 -0.3614
H15 H 1.0171 0.5666 -0.4514
C13 C 1.1527(5) 0.4675(5) -0.3837(4)
H16 H 1.136(5) 0.405(5) -0.411(4)
C14 C 1.2634(5) 0.5267(5) -0.4377(4)
C15 C 1.1812(5) 0.4190(5) -0.2839(4)
H17 H 1.2555 0.3732 -0.2820
H18 H 1.1960 0.4785 -0.2537
C16 C 1.0711(6) 0.3486(5) -0.2334(5)
H19 H 1.0893 0.3196 -0.1699
H20 H 1.0604 0.2864 -0.2613
C17 C 0.3610(7) 0.1410(7) 0.4700(6)
H21 H 0.4149 0.0941 0.4455
C18 C 0.2199(9) 0.1272(9) 0.3569(7)
H22 H 0.2834 0.0786 0.3403
H23 H 0.2091 0.1887 0.3061
H24 H 0.1435 0.0877 0.3727
C19 C 0.1727(10) 0.2416(9) 0.4701(9)
H25 H 0.2046 0.2569 0.5241
H26 H 0.0926 0.2082 0.4852
H27 H 0.1653 0.3094 0.4248
C20 C 0.3820(6) 0.1664(5) 0.7779(5)
H28 H 0.3291 0.1988 0.8160
C21 C 0.4732(8) -0.0009(6) 0.7450(6)
H29 H 0.5085 0.0500 0.6921
H30 H 0.4260 -0.0553 0.7259
H31 H 0.5385 -0.0369 0.7816
C22 C 0.3273(8) -0.0087(6) 0.8799(5)
H32 H 0.3864 -0.0477 0.9208
H33 H 0.2759 -0.0610 0.8616
H34 H 0.2765 0.0383 0.9104
C23 C 0.9144(6) 0.1865(6) 0.2524(5)
H35 H 0.8984 0.2579 0.2604
C24 C 0.8882(7) -0.0104(6) 0.3092(6)
H36 H 0.9280 -0.0127 0.2505
H37 H 0.8103 -0.0480 0.3166
H38 H 0.9404 -0.0461 0.3568
C25 C 0.7938(9) 0.1244(8) 0.3949(6)
H39 H 0.7860 0.2028 0.3901
H40 H 0.8345 0.0911 0.4495
H41 H 0.7129 0.0931 0.3976
C26 C 0.8231(7) 0.2113(6) -0.0407(5)
H42 H 0.7681 0.2603 -0.0197
C27 C 0.8604(9) 0.0763(8) -0.1298(7)
H43 H 0.8873 0.1112 -0.1916
H44 H 0.8168 0.0096 -0.1296
H45 H 0.9312 0.0585 -0.0936
C28 C 0.6516(7) 0.1589(8) -0.1170(6)
H46 H 0.6062 0.2046 -0.0821
H47 H 0.6155 0.0866 -0.1038
H48 H 0.6485 0.1916 -0.1812
N1 N 0.2556(5) 0.1674(5) 0.4344(4)
N2 N 0.3929(5) 0.0589(4) 0.7987(4)
N3 N 0.7523(6) 0.1840(5) 0.6172(5)
N4 N 0.7803(6) 0.1494(5) -0.0923(4)
N5 N 0.8671(5) 0.1034(5) 0.3147(4)
N6 N 1.2830(5) 0.1964(5) 0.0419(5)
O1 O 0.8295(4) 0.3795(4) 0.0911(3)
O2 O 0.4778(4) 0.3660(4) 0.3997(3)
O3 O 0.9217(4) 0.5974(4) -0.2009(3)
O4 O 0.9733(4) 0.4591(3) -0.0903(3)
O5 O 1.2650(4) 0.6297(4) -0.4622(4)
O6 O 1.3572(4) 0.4688(4) -0.4573(3)
O7 O 0.4307(4) 0.5426(4) 0.3390(3)
O8 O 0.4361(4) 0.2293(4) 0.7114(3)
O9 O 0.3925(6) 0.1775(6) 0.5374(4)
O10 O 0.6680(4) 0.1529(4) 0.5736(3)
O11 O 0.8545(5) 0.1383(6) 0.6213(5)
O12 O 0.7277(5) 0.2619(5) 0.6560(4)
O13 O 0.7730(4) 0.5511(4) 0.0245(3)
O14 O 0.9308(4) 0.2088(4) -0.0182(3)
O15 O 0.9794(4) 0.1754(4) 0.1832(3)
O16 O 1.2074(4) 0.2078(4) -0.0195(4)
O17 O 1.2496(4) 0.2279(5) 0.1134(4)
O18 O 1.3855(5) 0.1537(6) 0.0323(5)
La1 La 1.04885(3) 0.33782(3) 0.05199(2)
La2 La 0.53101(3) 0.33504(3) 0.55999(2)
O3A O 1.0783(4) 0.4026(4) 0.2009(3)
O4A O 1.0267(4) 0.5409(3) 0.0903(3)
O5A O 0.7350(4) 0.3703(4) 0.4622(4)
O6_2 O 0.3572(4) 0.4688(4) 0.5427(3)
O6A O 0.6428(4) 0.5312(4) 0.4573(3)
O7A O 0.5693(4) 0.4574(4) 0.6610(3)
O13A O 1.2270(4) 0.4489(4) -0.0245(3)
La1A La 0.95115(3) 0.66218(3) -0.05199(2)
La2A La 1.46899(3) 0.66496(3) -0.55999(2)
La2_2 La 1.53101(3) 0.33504(3) -0.44001(2)
La2A_2 La 0.46899(3) 0.66496(3) 0.44001(2)
loop_
_geom_bond_atom_site_label_1
_geom_bond_atom_site_label_2
_geom_bond_site_symmetry_1
_geom_bond_site_symmetry_2
C1 C2 1_555 1_555
C2 H1 1_555 1_555
C3 C2 1_555 1_555
H2 C3 1_555 1_555
H3 C3 1_555 1_555
C4 C3 1_555 1_555
H4 C4 1_555 1_555
H5 C4 1_555 1_555
C5 C4 1_555 1_555
H6 C5 1_555 1_555
C6 C5 1_555 1_555
C7 C5 1_555 1_555
H7 C7 1_555 1_555
H8 C7 1_555 1_555
C8 C2 1_555 1_555
H9 C8 1_555 1_555
H10 C8 1_555 1_555
C9 C10 1_555 1_555
C10 H11 1_555 1_555
C11 C10 1_555 1_555
H12 C11 1_555 1_555
H13 C11 1_555 1_555
C12 C11 1_555 1_555
H14 C12 1_555 1_555
H15 C12 1_555 1_555
C13 C12 1_555 1_555
H16 C13 1_555 1_555
C14 C13 1_555 1_555
C15 C13 1_555 1_555
H17 C15 1_555 1_555
H18 C15 1_555 1_555
C16 C10 1_555 1_555
H19 C16 1_555 1_555
H20 C16 1_555 1_555
C17 H21 1_555 1_555
C18 H22 1_555 1_555
H23 C18 1_555 1_555
H24 C18 1_555 1_555
C19 H25 1_555 1_555
H26 C19 1_555 1_555
H27 C19 1_555 1_555
C20 H28 1_555 1_555
C21 H29 1_555 1_555
H30 C21 1_555 1_555
H31 C21 1_555 1_555
C22 H32 1_555 1_555
H33 C22 1_555 1_555
H34 C22 1_555 1_555
C23 H35 1_555 1_555
C24 H36 1_555 1_555
H37 C24 1_555 1_555
H38 C24 1_555 1_555
C25 H39 1_555 1_555
H40 C25 1_555 1_555
H41 C25 1_555 1_555
C26 H42 1_555 1_555
C27 H43 1_555 1_555
H44 C27 1_555 1_555
H45 C27 1_555 1_555
C28 H46 1_555 1_555
H47 C28 1_555 1_555
H48 C28 1_555 1_555
N1 C17 1_555 1_555
N2 C20 1_555 1_555
N3 O10 1_555 1_555
N4 C26 1_555 1_555
N5 C23 1_555 1_555
N6 O16 1_555 1_555
O1 C6 1_555 1_555
O2 C1 1_555 1_555
O3 C9 1_555 1_555
O4 C9 1_555 1_555
O5 C14 1_555 1_555
O6 C14 1_555 1_555
O7 C1 1_555 1_555
O8 C20 1_555 1_555
O9 C17 1_555 1_555
O10 La2 1_555 1_555
O11 N3 1_555 1_555
O12 N3 1_555 1_555
O13 C6 1_555 1_555
O14 C26 1_555 1_555
O15 C23 1_555 1_555
O16 La1 1_555 1_555
O17 N6 1_555 1_555
O18 N6 1_555 1_555
La1 O1 1_555 1_555
La2 O2 1_555 1_555
O3A La1 1_555 1_555
O4A La1 1_555 1_555
O5A La2 1_555 1_555
O6_2 La2 1_555 1_555
O6A La2 1_555 1_555
O7A La2 1_555 1_555
O13A La1 1_555 1_555
La1A O3 1_555 1_555
La2A O5 1_555 1_555
La2_2 O6 1_555 1_555
La2A_2 O7 1_555 1_555
C7 C8 1_555 1_555
C15 C16 1_555 1_555
C18 N1 1_555 1_555
C19 N1 1_555 1_555
C21 N2 1_555 1_555
C22 N2 1_555 1_555
C24 N5 1_555 1_555
C25 N5 1_555 1_555
C27 N4 1_555 1_555
C28 N4 1_555 1_555
O4 La1 1_555 1_555
O4 La1A 1_555 1_555
O6 La2A 1_555 1_555
O8 La2 1_555 1_555
O9 La2 1_555 1_555
O12 La2 1_555 1_555
O13 La1A 1_555 1_555
O14 La1 1_555 1_555
O15 La1 1_555 1_555
O17 La1 1_555 1_555
O4A La1A 1_555 1_555
O6_2 La2A_2 1_555 1_555
O6A La2A_2 1_555 1_555

#END
