
#######################################################################
#
#                 Cambridge Crystallographic Data Centre
#                                CCDC 
#
#######################################################################
#
# If this CIF has been generated from an entry in the Cambridge 
# Structural Database, then it will include bibliographic, chemical, 
# crystal, experimental, refinement or atomic coordinate data resulting 
# from the CCDC's data processing and validation procedures.
#
#######################################################################

data_MULXAS
_symmetry_cell_setting           monoclinic
_symmetry_space_group_name_H-M   'P 21'
_symmetry_Int_Tables_number      4
_space_group_name_Hall           'P 2yb'
loop_
_symmetry_equiv_pos_site_id
_symmetry_equiv_pos_as_xyz
1 x,y,z
2 -x,1/2+y,-z
_cell_length_a                   7.9690(5)
_cell_length_b                   13.8284(9)
_cell_length_c                   8.1547(5)
_cell_angle_alpha                90
_cell_angle_beta                 110.5790(10)
_cell_angle_gamma                90
_cell_volume                     841.293
loop_
_atom_site_label
_atom_site_type_symbol
_atom_site_fract_x
_atom_site_fract_y
_atom_site_fract_z
Co1 Co 0.14569(3) 0.276834(16) 0.09569(3)
N1 N 0.1288(2) 0.34159(13) 0.3275(2)
N2 N -0.0215(3) 0.35089(14) 0.5093(3)
H1 H -0.1027 0.3392 0.5572
N3 N -0.0833(2) 0.20253(13) 0.1188(2)
N4 N -0.2650(2) 0.18848(13) 0.2700(2)
H2 H -0.3129 0.1986 0.3507
N5 N 0.1622(2) 0.20577(13) -0.1309(2)
N6 N 0.3192(2) 0.18662(14) -0.3053(2)
H3 H 0.4027 0.1950 -0.3516
N7 N 0.3768(2) 0.34481(13) 0.0731(2)
N8 N 0.5654(2) 0.35056(14) -0.0704(2)
H4 H 0.6148 0.3378 -0.1490
N9 N 0.3130(2) 0.15797(14) 0.2429(2)
N10 N 0.2065(3) -0.00319(16) 0.2874(3)
N11 N 0.0144(2) -0.11154(14) 0.0587(2)
C1 C 0.2075(3) 0.40961(16) 0.4536(3)
H5 H 0.3104 0.4465 0.4607
C2 C 0.1171(3) 0.41652(19) 0.5669(3)
H6 H 0.1440 0.4581 0.6655
C3 C -0.0089(3) 0.30809(15) 0.3660(3)
C4 C -0.1211(3) 0.23340(15) 0.2556(3)
C5 C -0.3224(3) 0.12349(19) 0.1338(4)
H7 H -0.4215 0.0806 0.1084
C6 C -0.2094(3) 0.13285(16) 0.0428(3)
H8 H -0.2167 0.0966 -0.0584
C7 C 0.0849(3) 0.13420(16) -0.2513(3)
H9 H -0.0194 0.0987 -0.2582
C8 C 0.1811(3) 0.12205(18) -0.3592(3)
H10 H 0.1566 0.0774 -0.4533
C9 C 0.3038(3) 0.23511(16) -0.1677(3)
C10 C 0.4169(3) 0.30996(15) -0.0594(3)
C11 C 0.6258(3) 0.41624(18) 0.0650(3)
H11 H 0.7287 0.4564 0.0922
C12 C 0.5081(3) 0.41180(15) 0.1517(3)
H12 H 0.5155 0.4493 0.2515
C13 C 0.2599(3) 0.08113(17) 0.2554(3)
C14 C 0.1042(3) -0.05716(15) 0.1590(3)
N11A N -0.0144(2) 0.38846(14) -0.0587(2)
Co1A Co -0.14569(3) -0.223166(16) -0.09569(3)
Cl1 Cl -0.34378(7) 0.25488(5) -0.39172(7)
loop_
_geom_bond_atom_site_label_1
_geom_bond_atom_site_label_2
_geom_bond_site_symmetry_1
_geom_bond_site_symmetry_2
Co1 N1 1_555 1_555
N1 C1 1_555 1_555
N2 H1 1_555 1_555
N3 Co1 1_555 1_555
N4 H2 1_555 1_555
N5 Co1 1_555 1_555
N6 H3 1_555 1_555
N7 Co1 1_555 1_555
N8 H4 1_555 1_555
N9 Co1 1_555 1_555
N10 C13 1_555 1_555
N11 C14 1_555 1_555
C1 H5 1_555 1_555
C2 N2 1_555 1_555
H6 C2 1_555 1_555
C3 N1 1_555 1_555
C4 N3 1_555 1_555
C5 N4 1_555 1_555
H7 C5 1_555 1_555
C6 N3 1_555 1_555
H8 C6 1_555 1_555
C7 N5 1_555 1_555
H9 C7 1_555 1_555
C8 N6 1_555 1_555
H10 C8 1_555 1_555
C9 N5 1_555 1_555
C10 N7 1_555 1_555
C11 N8 1_555 1_555
H11 C11 1_555 1_555
C12 N7 1_555 1_555
H12 C12 1_555 1_555
C13 N9 1_555 1_555
C14 N10 1_555 1_555
N11A Co1 1_555 1_555
Co1A N11 1_555 1_555
N2 C3 1_555 1_555
N4 C4 1_555 1_555
N6 C9 1_555 1_555
N8 C10 1_555 1_555
C1 C2 1_555 1_555
C3 C4 1_555 1_555
C5 C6 1_555 1_555
C7 C8 1_555 1_555
C9 C10 1_555 1_555
C11 C12 1_555 1_555

#END
