
#######################################################################
#
#                 Cambridge Crystallographic Data Centre
#                                CCDC 
#
#######################################################################
#
# If this CIF has been generated from an entry in the Cambridge 
# Structural Database, then it will include bibliographic, chemical, 
# crystal, experimental, refinement or atomic coordinate data resulting 
# from the CCDC's data processing and validation procedures.
#
#######################################################################

data_MULYEX01
_symmetry_cell_setting           orthorhombic
_symmetry_space_group_name_H-M   'P b c a'
_symmetry_Int_Tables_number      61
_space_group_name_Hall           '-P 2ac 2ab'
loop_
_symmetry_equiv_pos_site_id
_symmetry_equiv_pos_as_xyz
1 x,y,z
2 1/2+x,y,1/2-z
3 x,1/2-y,1/2+z
4 1/2-x,1/2+y,z
5 -x,-y,-z
6 1/2-x,-y,1/2+z
7 -x,1/2+y,1/2-z
8 1/2+x,1/2-y,-z
_cell_length_a                   11.3538(2)
_cell_length_b                   16.4929(2)
_cell_length_c                   17.7377(4)
_cell_angle_alpha                90
_cell_angle_beta                 90
_cell_angle_gamma                90
_cell_volume                     3321.51
loop_
_atom_site_label
_atom_site_type_symbol
_atom_site_fract_x
_atom_site_fract_y
_atom_site_fract_z
Fe1 Fe 0.20352(3) 0.14813(2) 0.39267(2)
O1 O 0.09516(17) 0.11622(11) 0.46820(10)
C1 C 0.1043(2) 0.10798(15) 0.54240(15)
C2 C 0.0153(3) 0.06650(17) 0.58136(16)
H1 H -0.045(3) 0.0461(19) 0.5556(18)
C3 C 0.0203(3) 0.05644(19) 0.65830(18)
H2 H -0.038(3) 0.027(2) 0.682(2)
C4 C 0.1136(3) 0.0884(2) 0.69974(18)
H3 H 0.118(3) 0.082(2) 0.750(2)
C5 C 0.2020(3) 0.12905(19) 0.66321(18)
H4 H 0.268(3) 0.1497(19) 0.6893(19)
C6 C 0.2011(3) 0.13923(16) 0.58423(15)
C7 C 0.3020(3) 0.17763(18) 0.54979(17)
H5 H 0.358(3) 0.1985(18) 0.5803(18)
N1 N 0.3199(2) 0.18571(16) 0.47886(14)
C8 C 0.4372(3) 0.2130(2) 0.4503(2)
H6 H 0.4691 0.2556 0.4840
H7 H 0.4928 0.1668 0.4506
C9 C 0.4268(3) 0.2448(2) 0.3745(2)
H8 H 0.5052 0.2457 0.3501
H9 H 0.3964 0.3010 0.3762
N2 N 0.3470(2) 0.19423(14) 0.33099(14)
C10 C 0.3675(3) 0.18119(16) 0.26096(17)
H10 H 0.440(3) 0.2015(19) 0.2376(19)
C11 C 0.2906(2) 0.13692(16) 0.21048(16)
C12 C 0.3302(3) 0.12368(19) 0.13646(18)
H11 H 0.402(3) 0.143(2) 0.1254(19)
C13 C 0.2630(3) 0.0826(2) 0.08453(17)
H12 H 0.290(3) 0.076(2) 0.035(2)
C14 C 0.1533(3) 0.05279(19) 0.10575(17)
H13 H 0.100(3) 0.023(2) 0.070(2)
C15 C 0.1114(3) 0.06552(17) 0.17811(16)
H14 H 0.037(3) 0.0465(18) 0.1918(17)
C16 C 0.1779(2) 0.10771(15) 0.23193(15)
O2 O 0.13247(17) 0.11885(12) 0.29999(10)
N3 N 0.1332(2) 0.26929(14) 0.38990(14)
C17 C 0.1164(2) 0.33726(16) 0.39939(15)
N4 N 0.0829(2) 0.41158(14) 0.41206(14)
C18 C 0.1522(3) 0.47367(17) 0.40346(15)
N5 N 0.2044(2) 0.53311(14) 0.39748(16)
N5C N 0.2956(2) 0.03311(14) 0.39748(16)
Fe1C Fe 0.29648(3) 0.64813(2) 0.39267(2)
loop_
_geom_bond_atom_site_label_1
_geom_bond_atom_site_label_2
_geom_bond_site_symmetry_1
_geom_bond_site_symmetry_2
Fe1 O1 1_555 1_555
O1 C1 1_555 1_555
C1 C2 1_555 1_555
C2 H1 1_555 1_555
C3 C2 1_555 1_555
H2 C3 1_555 1_555
C4 C3 1_555 1_555
H3 C4 1_555 1_555
C5 C4 1_555 1_555
H4 C5 1_555 1_555
C6 C1 1_555 1_555
C7 C6 1_555 1_555
H5 C7 1_555 1_555
N1 Fe1 1_555 1_555
C8 N1 1_555 1_555
H6 C8 1_555 1_555
H7 C8 1_555 1_555
C9 C8 1_555 1_555
H8 C9 1_555 1_555
H9 C9 1_555 1_555
N2 Fe1 1_555 1_555
C10 N2 1_555 1_555
H10 C10 1_555 1_555
C11 C10 1_555 1_555
C12 C11 1_555 1_555
H11 C12 1_555 1_555
C13 C12 1_555 1_555
H12 C13 1_555 1_555
C14 C13 1_555 1_555
H13 C14 1_555 1_555
C15 C14 1_555 1_555
H14 C15 1_555 1_555
C16 C11 1_555 1_555
O2 Fe1 1_555 1_555
N3 Fe1 1_555 1_555
C17 N3 1_555 1_555
N4 C17 1_555 1_555
C18 N4 1_555 1_555
N5 C18 1_555 1_555
N5C Fe1 1_555 1_555
Fe1C N5 1_555 1_555
C5 C6 1_555 1_555
C7 N1 1_555 1_555
C9 N2 1_555 1_555
C15 C16 1_555 1_555
C16 O2 1_555 1_555

#END
