
#######################################################################
#
#                 Cambridge Crystallographic Data Centre
#                                CCDC 
#
#######################################################################
#
# If this CIF has been generated from an entry in the Cambridge 
# Structural Database, then it will include bibliographic, chemical, 
# crystal, experimental, refinement or atomic coordinate data resulting 
# from the CCDC's data processing and validation procedures.
#
#######################################################################

data_MUMBIH
_symmetry_cell_setting           triclinic
_symmetry_space_group_name_H-M   'P -1'
_symmetry_Int_Tables_number      2
_space_group_name_Hall           '-P 1'
loop_
_symmetry_equiv_pos_site_id
_symmetry_equiv_pos_as_xyz
1 x,y,z
2 -x,-y,-z
_cell_length_a                   6.027(5)
_cell_length_b                   9.530(7)
_cell_length_c                   11.970(9)
_cell_angle_alpha                68.17(3)
_cell_angle_beta                 78.89(3)
_cell_angle_gamma                76.50(3)
_cell_volume                     616.304
loop_
_atom_site_label
_atom_site_type_symbol
_atom_site_fract_x
_atom_site_fract_y
_atom_site_fract_z
Mn1 Mn -0.5000 1.5000 0.5000
O1 O 0.0071(4) 0.3874(3) 1.2887(2)
N1 N 0.0374(4) 0.9632(3) 0.7880(2)
C1 C -0.1427(6) 0.5085(4) 1.2567(3)
Mn2 Mn 0.00425(8) 0.84526(5) 0.63756(4)
O2 O -0.3250(4) 0.5403(3) 1.3190(2)
C2 C -0.0952(6) 0.6241(3) 1.1327(3)
O3 O 0.6472(4) 0.8976(3) 0.6903(2)
C3 C 0.1210(6) 0.6183(4) 1.0670(3)
H1 H 0.2410 0.5361 1.0990
O4 O 0.3649(4) 0.8219(3) 0.6462(2)
C4 C 0.1662(6) 0.7304(4) 0.9549(3)
H2 H 0.3162 0.7243 0.9121
O5 O -0.0315(4) 1.1042(2) 0.55344(18)
C5 C -0.0074(5) 0.8513(3) 0.9052(2)
O6 O -0.2166(5) 1.3225(3) 0.5798(2)
C6 C -0.2243(6) 0.8543(4) 0.9702(3)
H3 H -0.3466 0.9342 0.9376
O7 O -0.3255(4) 1.6631(3) 0.5210(2)
C7 C -0.2657(6) 0.7428(4) 1.0820(3)
H4 H -0.4158 0.7484 1.1247
C8 C 0.2740(5) 0.9965(4) 0.7567(3)
H5 H 0.3335 0.9839 0.8320
H6 H 0.2680 1.1052 0.7038
C9 C 0.4421(6) 0.8961(3) 0.6932(3)
C10 C -0.1294(6) 1.1098(3) 0.7552(3)
H7 H -0.0921 1.1803 0.7895
H8 H -0.2859 1.0894 0.7913
C11 C -0.1258(5) 1.1874(3) 0.6175(3)
H9 H -0.4025 1.7233 0.5638
H10 H -0.2014 1.6140 0.5619
O1A O -1.0071(4) 1.6126(3) 0.7113(2)
N1A N -1.0374(4) 1.0368(3) 1.2120(2)
C1A C -0.8573(6) 1.4915(4) 0.7433(3)
Mn2A Mn -1.00425(8) 1.15474(5) 1.36244(4)
O2A O -0.6750(4) 1.4597(3) 0.6810(2)
C2A C -0.9048(6) 1.3759(3) 0.8673(3)
O3A O -1.6472(4) 1.1024(3) 1.3097(2)
C3A C -1.1210(6) 1.3817(4) 0.9330(3)
H1A H -1.2410 1.4639 0.9010
O4A O -1.3649(4) 1.1781(3) 1.3538(2)
C4A C -1.1662(6) 1.2696(4) 1.0451(3)
H2A H -1.3162 1.2757 1.0879
O5A O -0.9685(4) 0.8958(2) 1.44656(18)
C5A C -0.9926(5) 1.1487(3) 1.0948(2)
O6A O -0.7834(5) 0.6775(3) 1.4202(2)
C6A C -0.7757(6) 1.1457(4) 1.0298(3)
H3A H -0.6534 1.0658 1.0624
C7A C -0.7343(6) 1.2572(4) 0.9180(3)
H4A H -0.5842 1.2516 0.8753
C8A C -1.2740(5) 1.0035(4) 1.2433(3)
H5A H -1.3335 1.0161 1.1680
H6A H -1.2680 0.8948 1.2962
C9A C -1.4421(6) 1.1039(3) 1.3068(3)
C10A C -0.8706(6) 0.8902(3) 1.2448(3)
H7A H -0.9079 0.8197 1.2105
H8A H -0.7141 0.9106 1.2087
C11A C -0.8742(5) 0.8126(3) 1.3825(3)
O7A O -0.6745(4) 1.3369(3) 0.4790(2)
H9A H -0.5975 1.2767 0.4362
H10A H -0.7986 1.3860 0.4381
Mn1_2 Mn -0.5000 0.5000 1.5000
O1_2 O -0.9929(4) 1.3874(3) 1.2887(2)
O1A_2 O -0.0071(4) 0.6126(3) 0.7113(2)
Mn2_2 Mn -0.99575(8) 0.84526(5) 1.63756(4)
Mn2_3 Mn -0.99575(8) 1.84526(5) 0.63756(4)
Mn2_4 Mn 1.00425(8) 0.84526(5) 0.63756(4)
Mn2A_2 Mn -2.00425(8) 1.15474(5) 1.36244(4)
Mn2A_3 Mn -0.00425(8) 0.15474(5) 1.36244(4)
Mn2A_4 Mn -0.00425(8) 1.15474(5) 0.36244(4)
O2_2 O -0.3250(4) 1.5403(3) 0.3190(2)
O3_2 O -0.3528(4) 0.8976(3) 0.6903(2)
O3A_2 O -0.6472(4) 1.1024(3) 1.3097(2)
O5_2 O -1.0315(4) 1.1042(2) 1.55344(18)
O5A_2 O 0.0315(4) 0.8958(2) 0.44656(18)
O6A_2 O -0.7834(5) 1.6775(3) 0.4202(2)
loop_
_geom_bond_atom_site_label_1
_geom_bond_atom_site_label_2
_geom_bond_site_symmetry_1
_geom_bond_site_symmetry_2
Mn1 O6 1_555 1_555
O1 C1 1_555 1_555
N1 C5 1_555 1_555
C1 O2 1_555 1_555
Mn2 O4 1_555 1_555
O2 Mn1_2 1_555 1_555
C2 C1 1_555 1_555
O3 C9 1_555 1_555
C3 C2 1_555 1_555
H1 C3 1_555 1_555
O4 C9 1_555 1_555
C4 C3 1_555 1_555
H2 C4 1_555 1_555
O5 Mn2 1_555 1_555
C5 C4 1_555 1_555
O6 C11 1_555 1_555
C6 C5 1_555 1_555
H3 C6 1_555 1_555
O7 Mn1 1_555 1_555
C7 C2 1_555 1_555
H4 C7 1_555 1_555
C8 N1 1_555 1_555
H5 C8 1_555 1_555
H6 C8 1_555 1_555
C9 C8 1_555 1_555
C10 N1 1_555 1_555
H7 C10 1_555 1_555
H8 C10 1_555 1_555
C11 O5 1_555 1_555
H9 O7 1_555 1_555
H10 O7 1_555 1_555
O1A C1A 1_555 1_555
N1A C5A 1_555 1_555
C1A O2A 1_555 1_555
Mn2A O4A 1_555 1_555
O2A Mn1 1_555 1_555
C2A C1A 1_555 1_555
O3A C9A 1_555 1_555
C3A C2A 1_555 1_555
H1A C3A 1_555 1_555
O4A C9A 1_555 1_555
C4A C3A 1_555 1_555
H2A C4A 1_555 1_555
O5A Mn2A 1_555 1_555
C5A C4A 1_555 1_555
O6A C11A 1_555 1_555
C6A C5A 1_555 1_555
H3A C6A 1_555 1_555
C7A C2A 1_555 1_555
H4A C7A 1_555 1_555
C8A N1A 1_555 1_555
H5A C8A 1_555 1_555
H6A C8A 1_555 1_555
C9A C8A 1_555 1_555
C10A N1A 1_555 1_555
H7A C10A 1_555 1_555
H8A C10A 1_555 1_555
C11A O5A 1_555 1_555
O7A Mn1 1_555 1_555
H9A O7A 1_555 1_555
H10A O7A 1_555 1_555
Mn1_2 O6A 1_555 1_555
O1_2 Mn2A 1_555 1_555
O1A_2 Mn2 1_555 1_555
Mn2_2 O5A 1_555 1_555
Mn2_3 O1A 1_555 1_555
Mn2_4 O3 1_555 1_555
Mn2A_2 O3A 1_555 1_555
Mn2A_3 O1 1_555 1_555
Mn2A_4 O5 1_555 1_555
O2_2 Mn1 1_555 1_555
O3_2 Mn2 1_555 1_555
O3A_2 Mn2A 1_555 1_555
O5_2 Mn2A 1_555 1_555
O5A_2 Mn2 1_555 1_555
O6A_2 Mn1 1_555 1_555
C6 C7 1_555 1_555
C10 C11 1_555 1_555
C6A C7A 1_555 1_555
C10A C11A 1_555 1_555
Mn2_2 O5_2 1_555 1_555
Mn2A_4 O5A_2 1_555 1_555

#END
