
#######################################################################
#
#                 Cambridge Crystallographic Data Centre
#                                CCDC 
#
#######################################################################
#
# If this CIF has been generated from an entry in the Cambridge 
# Structural Database, then it will include bibliographic, chemical, 
# crystal, experimental, refinement or atomic coordinate data resulting 
# from the CCDC's data processing and validation procedures.
#
#######################################################################

data_MUMBON
_symmetry_cell_setting           triclinic
_symmetry_space_group_name_H-M   'P -1'
_symmetry_Int_Tables_number      2
_space_group_name_Hall           '-P 1'
loop_
_symmetry_equiv_pos_site_id
_symmetry_equiv_pos_as_xyz
1 x,y,z
2 -x,-y,-z
_cell_length_a                   7.011(5)
_cell_length_b                   7.257(5)
_cell_length_c                   13.575(9)
_cell_angle_alpha                78.82(2)
_cell_angle_beta                 77.681(19)
_cell_angle_gamma                82.00(2)
_cell_volume                     658.516
loop_
_atom_site_label
_atom_site_type_symbol
_atom_site_fract_x
_atom_site_fract_y
_atom_site_fract_z
Mn1 Mn 0.03882(5) 0.32748(4) 0.42231(2)
O1 O 0.0545(3) 0.4660(3) 0.15707(13)
N1 N -0.3845(2) 0.7916(2) 0.32518(12)
C1 C -0.0792(3) 0.5452(3) 0.21400(17)
O2 O -0.0824(2) 0.5468(2) 0.30843(11)
C2 C -0.2548(3) 0.6473(3) 0.17039(15)
O3 O -0.1249(3) 1.1318(3) 0.39333(14)
C3 C -0.2739(3) 0.6226(3) 0.07347(17)
H1 H -0.1727 0.5501 0.0346
O4 O -0.2031(3) 0.8462(2) 0.47284(12)
C4 C -0.4383(3) 0.7025(3) 0.03333(17)
H2 H -0.4489 0.6848 -0.0328
O5 O -0.5271(2) 0.4604(2) 0.37540(13)
C5 C -0.5868(3) 0.8077(3) 0.08919(16)
O6 O -0.8206(2) 0.5687(2) 0.45436(11)
C6 C -0.5690(3) 0.8404(3) 0.18498(16)
H3 H -0.6679 0.9171 0.2225
O7 O -0.9037(3) 0.9756(3) 0.10450(13)
C7 C -0.4051(3) 0.7590(3) 0.22364(15)
O8 O -0.7774(3) 0.8594(3) -0.03906(13)
C8 C -0.7700(3) 0.8881(3) 0.05099(17)
O9 O 0.2714(2) 0.2597(2) 0.28986(13)
C9 C -0.2990(3) 0.9751(3) 0.31405(16)
H4 H -0.4049 1.0803 0.3101
H5 H -0.2019 0.9931 0.2492
C10 C -0.1995(3) 0.9829(3) 0.40247(16)
C11 C -0.5682(3) 0.7754(3) 0.40439(15)
H6 H -0.6692 0.8784 0.3858
H7 H -0.5415 0.7873 0.4715
C12 C -0.6428(3) 0.5856(3) 0.41172(15)
H8 H -0.2887 0.6977 0.3384
H9 H -0.9003 0.9116 -0.0591
H10 H 0.2218 0.3357 0.2370
H11 H 0.3491 0.3502 0.3013
Mn1_2 Mn -0.96118(5) 0.32748(4) 0.42231(2)
Mn1_3 Mn 0.03882(5) 1.32748(4) 0.42231(2)
Mn1A Mn -1.03882(5) 0.67252(4) 0.57769(2)
Mn1A_2 Mn -0.03882(5) 0.67252(4) 0.57769(2)
O3_2 O -0.1249(3) 0.1318(3) 0.39333(14)
O4A O 0.2031(3) 0.1538(2) 0.52716(12)
O6_2 O 0.1794(2) 0.5687(2) 0.45436(11)
O6A O -0.1794(2) 0.4313(2) 0.54564(11)
loop_
_geom_bond_atom_site_label_1
_geom_bond_atom_site_label_2
_geom_bond_site_symmetry_1
_geom_bond_site_symmetry_2
Mn1 O2 1_555 1_555
O1 C1 1_555 1_555
N1 C7 1_555 1_555
C1 O2 1_555 1_555
C2 C1 1_555 1_555
O3 C10 1_555 1_555
C3 C2 1_555 1_555
H1 C3 1_555 1_555
O4 C10 1_555 1_555
C4 C3 1_555 1_555
H2 C4 1_555 1_555
O5 C12 1_555 1_555
C5 C4 1_555 1_555
O6 C12 1_555 1_555
C6 C5 1_555 1_555
H3 C6 1_555 1_555
O7 C8 1_555 1_555
C7 C2 1_555 1_555
O8 C8 1_555 1_555
C8 C5 1_555 1_555
O9 Mn1 1_555 1_555
C9 N1 1_555 1_555
H4 C9 1_555 1_555
H5 C9 1_555 1_555
C10 C9 1_555 1_555
C11 N1 1_555 1_555
H6 C11 1_555 1_555
H7 C11 1_555 1_555
C12 C11 1_555 1_555
H8 N1 1_555 1_555
H9 O8 1_555 1_555
H10 O9 1_555 1_555
H11 O9 1_555 1_555
Mn1_2 O6 1_555 1_555
Mn1_3 O3 1_555 1_555
Mn1A O6 1_555 1_555
Mn1A_2 O4 1_555 1_555
O3_2 Mn1 1_555 1_555
O4A Mn1 1_555 1_555
O6_2 Mn1 1_555 1_555
O6A Mn1 1_555 1_555
C6 C7 1_555 1_555
Mn1A_2 O6_2 1_555 1_555
Mn1A_2 O6A 1_555 1_555

#END
