
#######################################################################
#
#                 Cambridge Crystallographic Data Centre
#                                CCDC 
#
#######################################################################
#
# If this CIF has been generated from an entry in the Cambridge 
# Structural Database, then it will include bibliographic, chemical, 
# crystal, experimental, refinement or atomic coordinate data resulting 
# from the CCDC's data processing and validation procedures.
#
#######################################################################

data_MUMGUX
_symmetry_cell_setting           monoclinic
_symmetry_space_group_name_H-M   'P 21/c'
_symmetry_Int_Tables_number      14
_space_group_name_Hall           '-P 2ybc'
loop_
_symmetry_equiv_pos_site_id
_symmetry_equiv_pos_as_xyz
1 x,y,z
2 -x,1/2+y,1/2-z
3 -x,-y,-z
4 x,1/2-y,1/2+z
_cell_length_a                   13.0276(4)
_cell_length_b                   29.0931(8)
_cell_length_c                   12.4038(4)
_cell_angle_alpha                90
_cell_angle_beta                 100.201(1)
_cell_angle_gamma                90
_cell_volume                     4626.89
loop_
_atom_site_label
_atom_site_type_symbol
_atom_site_fract_x
_atom_site_fract_y
_atom_site_fract_z
Zn1 Zn 0.18757(3) 0.336990(11) 0.21317(3)
O1 O 0.24388(17) 0.21215(7) 0.60654(18)
N1 N 0.09264(20) 0.36948(8) 0.0870(2)
N2 N 0.26267(19) 0.31595(8) 0.36489(20)
N3 N 0.29191(19) 0.39067(8) 0.2175(2)
N4 N 0.06287(20) 0.29237(8) 0.2301(2)
C1 C -0.0026(3) 0.35408(11) 0.0370(3)
C2 C -0.0375(3) 0.38132(12) -0.0611(3)
C3 C 0.0371(3) 0.41236(12) -0.0683(3)
C4 C 0.1194(3) 0.40556(11) 0.0251(3)
C5 C 0.2093(3) 0.43160(10) 0.0494(3)
C6 C 0.2897(2) 0.42474(10) 0.1416(3)
C7 C 0.3787(3) 0.45408(10) 0.1724(3)
C8 C 0.4340(3) 0.43758(10) 0.2665(3)
C9 C 0.3791(2) 0.39835(9) 0.2965(3)
C10 C 0.4088(2) 0.37264(10) 0.3929(3)
C11 C 0.3554(2) 0.33416(10) 0.4237(2)
C12 C 0.3871(2) 0.30792(10) 0.5184(3)
C13 C 0.3152(2) 0.27329(10) 0.5208(3)
C14 C 0.3155(3) 0.23896(11) 0.6067(3)
C15 C 0.4079(3) 0.23648(16) 0.6973(4)
C16 C 0.2376(2) 0.27933(10) 0.4228(3)
C17 C 0.1477(3) 0.25227(11) 0.3930(3)
C18 C 0.0688(3) 0.25846(10) 0.3063(3)
C19 C -0.0268(3) 0.22784(13) 0.2828(3)
C20 C -0.1011(3) 0.25373(12) 0.1965(3)
C21 C -0.0309(3) 0.29008(10) 0.1616(3)
C22 C -0.0597(2) 0.31833(11) 0.0729(3)
C23 C -0.1855(4) 0.27741(18) 0.2486(5)
C24 C -0.1554(4) 0.22377(16) 0.1043(4)
C25 C 0.2222(3) 0.47001(11) -0.0268(3)
C26 C 0.1588(3) 0.50782(12) -0.0355(3)
C27 C 0.1688(4) 0.54281(13) -0.1096(4)
C28 C 0.2426(4) 0.54106(14) -0.1755(4)
C29 C 0.3074(4) 0.50432(16) -0.1640(4)
C30 C 0.2990(3) 0.46937(14) -0.0904(4)
C31 C 0.2520(5) 0.57843(17) -0.2578(4)
C32 C 0.5048(3) 0.38845(10) 0.4685(3)
C33 C 0.6021(3) 0.36939(11) 0.4642(3)
C34 C 0.6900(3) 0.38792(14) 0.5330(4)
C35 C 0.6831(4) 0.42360(15) 0.6026(4)
C36 C 0.5878(4) 0.44032(14) 0.6063(3)
C37 C 0.4960(3) 0.42440(11) 0.5416(3)
C38 C 0.6136(3) 0.33043(13) 0.3886(4)
C39 C 0.7819(4) 0.44307(19) 0.6748(5)
C40 C 0.3940(3) 0.44588(14) 0.5498(4)
H1 H -0.100 0.378 -0.110
H2 H 0.036 0.434 -0.123
H3 H 0.395 0.480 0.134
H4 H 0.496 0.449 0.305
H5 H 0.446 0.313 0.571
H6 H 0.398 0.212 0.747
H7 H 0.469 0.230 0.666
H8 H 0.416 0.265 0.736
H9 H 0.141 0.227 0.438
H10 H -0.009 0.198 0.255
H11 H -0.057 0.223 0.348
H12 H -0.126 0.313 0.032
H13 H -0.230 0.255 0.271
H14 H -0.153 0.295 0.311
H15 H -0.226 0.298 0.196
H16 H -0.197 0.201 0.133
H17 H -0.199 0.243 0.051
H18 H -0.104 0.208 0.070
H19 H 0.109 0.510 0.009
H20 H 0.125 0.568 -0.114
H21 H 0.359 0.503 -0.206
H22 H 0.346 0.445 -0.083
H23 H 0.199 0.601 -0.256
H24 H 0.320 0.593 -0.240
H25 H 0.244 0.565 -0.330
H26 H 0.755 0.375 0.531
H27 H 0.582 0.464 0.655
H28 H 0.686 0.321 0.398
H29 H 0.573 0.305 0.405
H30 H 0.590 0.340 0.314
H31 H 0.842 0.427 0.660
H32 H 0.789 0.475 0.659
H33 H 0.777 0.439 0.751
H34 H 0.405 0.470 0.605
H35 H 0.365 0.459 0.480
H36 H 0.347 0.423 0.570
Zn1C Zn 0.18757(3) 0.163010(11) 0.71317(3)
O1C O 0.24388(17) 0.28785(7) 0.10654(18)
loop_
_geom_bond_atom_site_label_1
_geom_bond_atom_site_label_2
_geom_bond_site_symmetry_1
_geom_bond_site_symmetry_2
Zn1 N1 1_555 1_555
O1 C14 1_555 1_555
N1 C1 1_555 1_555
N2 Zn1 1_555 1_555
N3 Zn1 1_555 1_555
N4 Zn1 1_555 1_555
C1 C2 1_555 1_555
C2 C3 1_555 1_555
C3 C4 1_555 1_555
C4 N1 1_555 1_555
C5 C4 1_555 1_555
C6 N3 1_555 1_555
C7 C6 1_555 1_555
C8 C7 1_555 1_555
C9 N3 1_555 1_555
C10 C9 1_555 1_555
C11 N2 1_555 1_555
C12 C11 1_555 1_555
C13 C12 1_555 1_555
C14 C13 1_555 1_555
C15 C14 1_555 1_555
C16 N2 1_555 1_555
C17 C16 1_555 1_555
C18 N4 1_555 1_555
C19 C18 1_555 1_555
C20 C19 1_555 1_555
C21 N4 1_555 1_555
C22 C1 1_555 1_555
C23 C20 1_555 1_555
C24 C20 1_555 1_555
C25 C5 1_555 1_555
C26 C25 1_555 1_555
C27 C26 1_555 1_555
C28 C27 1_555 1_555
C29 C28 1_555 1_555
C30 C25 1_555 1_555
C31 C28 1_555 1_555
C32 C10 1_555 1_555
C33 C32 1_555 1_555
C34 C33 1_555 1_555
C35 C34 1_555 1_555
C36 C35 1_555 1_555
C37 C32 1_555 1_555
C38 C33 1_555 1_555
C39 C35 1_555 1_555
C40 C37 1_555 1_555
H1 C2 1_555 1_555
H2 C3 1_555 1_555
H3 C7 1_555 1_555
H4 C8 1_555 1_555
H5 C12 1_555 1_555
H6 C15 1_555 1_555
H7 C15 1_555 1_555
H8 C15 1_555 1_555
H9 C17 1_555 1_555
H10 C19 1_555 1_555
H11 C19 1_555 1_555
H12 C22 1_555 1_555
H13 C23 1_555 1_555
H14 C23 1_555 1_555
H15 C23 1_555 1_555
H16 C24 1_555 1_555
H17 C24 1_555 1_555
H18 C24 1_555 1_555
H19 C26 1_555 1_555
H20 C27 1_555 1_555
H21 C29 1_555 1_555
H22 C30 1_555 1_555
H23 C31 1_555 1_555
H24 C31 1_555 1_555
H25 C31 1_555 1_555
H26 C34 1_555 1_555
H27 C36 1_555 1_555
H28 C38 1_555 1_555
H29 C38 1_555 1_555
H30 C38 1_555 1_555
H31 C39 1_555 1_555
H32 C39 1_555 1_555
H33 C39 1_555 1_555
H34 C40 1_555 1_555
H35 C40 1_555 1_555
H36 C40 1_555 1_555
Zn1C O1 1_555 1_555
O1C Zn1 1_555 1_555
C5 C6 1_555 1_555
C8 C9 1_555 1_555
C10 C11 1_555 1_555
C13 C16 1_555 1_555
C17 C18 1_555 1_555
C20 C21 1_555 1_555
C21 C22 1_555 1_555
C29 C30 1_555 1_555
C36 C37 1_555 1_555

#END
