
#######################################################################
#
#                 Cambridge Crystallographic Data Centre
#                                CCDC 
#
#######################################################################
#
# If this CIF has been generated from an entry in the Cambridge 
# Structural Database, then it will include bibliographic, chemical, 
# crystal, experimental, refinement or atomic coordinate data resulting 
# from the CCDC's data processing and validation procedures.
#
#######################################################################

data_MUMJUZ
_symmetry_cell_setting           monoclinic
_symmetry_space_group_name_H-M   'C 2/c'
_symmetry_Int_Tables_number      15
_space_group_name_Hall           '-C 2yn'
loop_
_symmetry_equiv_pos_site_id
_symmetry_equiv_pos_as_xyz
1 x,y,z
2 1/2+x,1/2+y,z
3 x,-y,1/2+z
4 1/2+x,1/2-y,1/2+z
5 -x,-y,-z
6 1/2-x,1/2-y,-z
7 -x,y,1/2-z
8 1/2-x,1/2+y,1/2-z
_cell_length_a                   20.068(3)
_cell_length_b                   8.8105(12)
_cell_length_c                   12.466(2)
_cell_angle_alpha                90
_cell_angle_beta                 120.073(5)
_cell_angle_gamma                90
_cell_volume                     1907.4
loop_
_atom_site_label
_atom_site_type_symbol
_atom_site_fract_x
_atom_site_fract_y
_atom_site_fract_z
Mo1 Mo 0.468083(15) 0.76279(3) 0.13167(2)
Cl1 Cl 0.33894(4) 0.81674(9) -0.04551(7)
O1 O 0.46336(12) 0.5756(2) 0.10314(19)
O2 O 0.42670(13) 0.8014(3) 0.23833(19)
O3 O 0.47259(12) 1.0227(2) 0.11077(18)
O4 O 0.49107(13) 1.1964(2) -0.0025(2)
C1 C 0.48961(16) 1.0627(3) 0.0316(3)
C1D C 0.51039(16) 0.9373(3) -0.0316(3)
O3D O 0.52741(12) 0.9773(2) -0.11077(18)
O4D O 0.50893(13) 0.8036(2) 0.0025(2)
O2F O 0.57330(13) 0.8014(3) 0.26167(19)
Mo1F Mo 0.531917(15) 0.76279(3) 0.36833(2)
Cl1F Cl 0.66106(4) 0.81674(9) 0.54551(7)
O1F O 0.53664(12) 0.5756(2) 0.39686(19)
Mo1D Mo 0.531917(15) 1.23721(3) -0.13167(2)
O3F O 0.52741(12) 1.0227(2) 0.38923(18)
O4B O 0.49107(13) 0.8036(2) 0.4975(2)
N1 N 0.17266(17) 0.2314(3) -0.1821(2)
C2 C 0.1612(2) 0.3828(4) -0.1781(3)
H1 H 0.116(2) 0.395(4) -0.192(3)
C3 C 0.2215(2) 0.4808(4) -0.1377(3)
H2 H 0.209(2) 0.581(5) -0.133(3)
C4 C 0.2932(2) 0.4267(4) -0.1041(3)
H3 H 0.332(2) 0.486(5) -0.080(4)
C5 C 0.3044(2) 0.2744(5) -0.1097(3)
H4 H 0.348(3) 0.236(5) -0.084(5)
C6 C 0.2433(2) 0.1780(4) -0.1486(3)
H5 H 0.248(2) 0.099(5) -0.150(3)
C7 C 0.1062(3) 0.1272(5) -0.2290(4)
H6 H 0.075(3) 0.130(5) -0.328(4)
H7 H 0.130(3) 0.027(7) -0.179(5)
H8 H 0.075(3) 0.164(6) -0.188(4)
loop_
_geom_bond_atom_site_label_1
_geom_bond_atom_site_label_2
_geom_bond_site_symmetry_1
_geom_bond_site_symmetry_2
Mo1 Cl1 1_555 1_555
O1 Mo1 1_555 1_555
O2 Mo1 1_555 1_555
O3 Mo1 1_555 1_555
O4 C1 1_555 1_555
C1 O3 1_555 1_555
N1 C2 1_555 1_555
C2 H1 1_555 1_555
C3 C2 1_555 1_555
H2 C3 1_555 1_555
C4 C3 1_555 1_555
H3 C4 1_555 1_555
C5 C4 1_555 1_555
H4 C5 1_555 1_555
C6 N1 1_555 1_555
H5 C6 1_555 1_555
C7 N1 1_555 1_555
H6 C7 1_555 1_555
H7 C7 1_555 1_555
H8 C7 1_555 1_555
C1D C1 1_555 1_555
O3D C1D 1_555 1_555
O4D Mo1 1_555 1_555
O2F Mo1 1_555 1_555
Mo1F Mo1 1_555 1_555
Cl1F Mo1F 1_555 1_555
O1F Mo1F 1_555 1_555
Mo1D O4 1_555 1_555
O3F Mo1F 1_555 1_555
O4B Mo1F 1_555 1_555
O2 Mo1F 1_555 1_555
C5 C6 1_555 1_555
C1D O4D 1_555 1_555
O3D Mo1D 1_555 1_555
O2F Mo1F 1_555 1_555

#END
