
#######################################################################
#
#                 Cambridge Crystallographic Data Centre
#                                CCDC 
#
#######################################################################
#
# If this CIF has been generated from an entry in the Cambridge 
# Structural Database, then it will include bibliographic, chemical, 
# crystal, experimental, refinement or atomic coordinate data resulting 
# from the CCDC's data processing and validation procedures.
#
#######################################################################

data_MUMKUC
_symmetry_cell_setting           monoclinic
_symmetry_space_group_name_H-M   'C 2/c'
_symmetry_Int_Tables_number      15
_space_group_name_Hall           '-C 2yn'
loop_
_symmetry_equiv_pos_site_id
_symmetry_equiv_pos_as_xyz
1 x,y,z
2 -x,y,1/2-z
3 1/2+x,1/2+y,z
4 1/2-x,1/2+y,1/2-z
5 -x,-y,-z
6 x,-y,1/2+z
7 1/2-x,1/2-y,-z
8 1/2+x,1/2-y,1/2+z
_cell_length_a                   14.2177(3)
_cell_length_b                   22.9278(5)
_cell_length_c                   14.5428(4)
_cell_angle_alpha                90
_cell_angle_beta                 105.118(2)
_cell_angle_gamma                90
_cell_volume                     4576.6
loop_
_atom_site_label
_atom_site_type_symbol
_atom_site_fract_x
_atom_site_fract_y
_atom_site_fract_z
C1 C 0.0145(2) 0.24131(14) 0.2033(2)
C2 C 0.0241(2) 0.29243(14) 0.1581(2)
C3 C 0.0106(2) 0.34606(14) 0.2007(2)
C4 C -0.1916(2) 0.08792(13) 0.2040(2)
C5 C -0.2890(2) 0.07946(15) 0.1610(2)
C6 C -0.3441(2) 0.04294(14) 0.2047(2)
C7 C -0.1425(2) 0.05799(13) 0.2971(2)
C8 C -0.1961(2) 0.02412(14) 0.3437(2)
C9 C -0.2948(2) 0.01349(14) 0.3005(2)
O1 O 0.02875(16) 0.19015(9) 0.17294(16)
O2 O 0.01499(16) 0.39482(10) 0.16447(16)
O3 O -0.13525(16) 0.12033(10) 0.17067(16)
O4 O -0.43309(16) 0.03178(10) 0.17150(17)
O5 O -0.05041(15) 0.06804(9) 0.32685(16)
O6 O -0.34935(16) -0.01821(10) 0.33412(16)
Cl1 Cl 0.05134(7) 0.29161(4) 0.04941(6)
Cl2 Cl -0.34425(6) 0.11325(4) 0.05523(7)
Cl3 Cl -0.14201(6) -0.00688(4) 0.45288(6)
Cr1 Cr 0.0000 0.12515(3) 0.2500
Mn1 Mn 0.0000 0.47096(3) 0.2500
C1A C -0.0145(2) 0.24131(14) 0.2967(2)
C2A C -0.0241(2) 0.29243(14) 0.3419(2)
C3A C -0.0106(2) 0.34606(14) 0.2993(2)
O1A O -0.02875(16) 0.19015(9) 0.32706(16)
O2A O -0.01499(16) 0.39482(10) 0.33553(16)
Cl1A Cl -0.05134(7) 0.29161(4) 0.45059(6)
C4A C 0.1916(2) 0.08792(13) 0.2960(2)
C5A C 0.2890(2) 0.07946(15) 0.3390(2)
C6A C 0.3441(2) 0.04294(14) 0.2953(2)
C7A C 0.1425(2) 0.05799(13) 0.2029(2)
C8A C 0.1961(2) 0.02412(14) 0.1563(2)
C9A C 0.2948(2) 0.01349(14) 0.1995(2)
O3A O 0.13525(16) 0.12033(10) 0.32933(16)
O4A O 0.43309(16) 0.03178(10) 0.32850(17)
O5A O 0.05041(15) 0.06804(9) 0.17315(16)
O6A O 0.34935(16) -0.01821(10) 0.16588(16)
Cl2A Cl 0.34425(6) 0.11325(4) 0.44477(7)
Cl3A Cl 0.14201(6) -0.00688(4) 0.04712(6)
O4B O 0.06691(16) 0.53178(10) 0.17150(17)
O4C O -0.06691(16) 0.53178(10) 0.32850(17)
O6B O 0.15065(16) 0.48179(10) 0.33412(16)
O6C O -0.15065(16) 0.48179(10) 0.16588(16)
Mn1B Mn -0.5000 -0.02904(3) 0.2500
Mn1B_2 Mn 0.5000 -0.02904(3) 0.2500
C10 C 0.7813(3) 0.3195(2) 0.5985(3)
H1 H 0.8227 0.3242 0.5546
H2 H 0.7745 0.3572 0.6280
H3 H 0.7170 0.3054 0.5633
C11 C 0.8270(3) 0.27639(16) 0.6744(3)
C12 C 0.7829(3) 0.26275(19) 0.7437(3)
H4 H 0.7211 0.2801 0.7391
C13 C 0.8196(3) 0.22526(19) 0.8221(3)
C14 C 0.7540(3) 0.2140(3) 0.8873(4)
H5 H 0.7868 0.1875 0.9386
H6 H 0.6930 0.1962 0.8508
H7 H 0.7398 0.2509 0.9148
C15 C 0.9343(3) 0.16268(17) 0.9242(3)
H8 H 0.8913 0.1281 0.9174
H9 H 0.9287 0.1848 0.9810
C16 C 1.0391(3) 0.14347(17) 0.9365(3)
H10 H 1.0840 0.1753 0.9659
H11 H 1.0534 0.1091 0.9790
C17 C 1.0046(3) 0.07422(15) 0.8023(3)
H12 H 0.9393 0.0721 0.8144
H13 H 1.0429 0.0400 0.8324
N1 N 0.9041(2) 0.19959(12) 0.8388(2)
N2 N 1.0543(2) 0.12859(13) 0.8429(2)
H14 H 1.1257 0.1243 0.8495
O7 O 0.90923(18) 0.25490(11) 0.6676(2)
Fe1 Fe 1.0000 0.20210(3) 0.7500
C10A C 1.2187(3) 0.3195(2) 0.9015(3)
H1A H 1.1773 0.3242 0.9454
H2A H 1.2255 0.3572 0.8720
H3A H 1.2830 0.3054 0.9367
C11A C 1.1730(3) 0.27639(16) 0.8256(3)
C12A C 1.2171(3) 0.26275(19) 0.7563(3)
H4A H 1.2789 0.2801 0.7609
C13A C 1.1804(3) 0.22526(19) 0.6779(3)
C14A C 1.2460(3) 0.2140(3) 0.6127(4)
H5A H 1.2132 0.1875 0.5614
H6A H 1.3070 0.1962 0.6492
H7A H 1.2602 0.2509 0.5852
C15A C 1.0657(3) 0.16268(17) 0.5758(3)
H8A H 1.1087 0.1281 0.5826
H9A H 1.0713 0.1848 0.5190
C16A C 0.9609(3) 0.14347(17) 0.5635(3)
H10A H 0.9160 0.1753 0.5341
H11A H 0.9466 0.1091 0.5210
C17A C 0.9954(3) 0.07422(15) 0.6977(3)
H12A H 1.0607 0.0721 0.6856
H13A H 0.9571 0.0400 0.6676
N1A N 1.0959(2) 0.19959(12) 0.6612(2)
N2A N 0.9457(2) 0.12859(13) 0.6571(2)
H14A H 0.8743 0.1243 0.6505
O7A O 1.09077(18) 0.25490(11) 0.8324(2)
N3 N 1.2530(3) 0.08418(18) 0.8430(3)
C18 C 1.3128(3) 0.07138(18) 0.9075(3)
C19 C 1.3919(3) 0.05475(18) 0.9909(3)
H15 H 1.4453 0.0370 0.9695
H16 H 1.3672 0.0266 1.0297
H17 H 1.4159 0.0895 1.0290
loop_
_geom_bond_atom_site_label_1
_geom_bond_atom_site_label_2
_geom_bond_site_symmetry_1
_geom_bond_site_symmetry_2
C1 C2 1_555 1_555
C2 C3 1_555 1_555
C3 O2 1_555 1_555
C4 C5 1_555 1_555
C5 C6 1_555 1_555
C6 C9 1_555 1_555
C7 C4 1_555 1_555
C8 C7 1_555 1_555
C9 C8 1_555 1_555
O1 C1 1_555 1_555
O2 Mn1 1_555 1_555
O3 C4 1_555 1_555
O4 C6 1_555 1_555
O5 C7 1_555 1_555
O6 C9 1_555 1_555
Cl1 C2 1_555 1_555
Cl2 C5 1_555 1_555
Cl3 C8 1_555 1_555
Cr1 O1 1_555 1_555
Mn1 O2A 1_555 1_555
C10 H1 1_555 1_555
H2 C10 1_555 1_555
H3 C10 1_555 1_555
C11 C10 1_555 1_555
C12 C11 1_555 1_555
H4 C12 1_555 1_555
C13 C12 1_555 1_555
C14 C13 1_555 1_555
H5 C14 1_555 1_555
H6 C14 1_555 1_555
H7 C14 1_555 1_555
C15 H8 1_555 1_555
H9 C15 1_555 1_555
C16 C15 1_555 1_555
H10 C16 1_555 1_555
H11 C16 1_555 1_555
C17 H12 1_555 1_555
H13 C17 1_555 1_555
N1 C13 1_555 1_555
N2 C16 1_555 1_555
H14 N2 1_555 1_555
O7 C11 1_555 1_555
Fe1 N1 1_555 1_555
N3 C18 1_555 1_555
C18 C19 1_555 1_555
C19 H15 1_555 1_555
H16 C19 1_555 1_555
H17 C19 1_555 1_555
C1A C1 1_555 1_555
C2A C1A 1_555 1_555
C3A C3 1_555 1_555
O1A Cr1 1_555 1_555
O2A C3A 1_555 1_555
Cl1A C2A 1_555 1_555
C4A C5A 1_555 1_555
C5A C6A 1_555 1_555
C6A C9A 1_555 1_555
C7A C4A 1_555 1_555
C8A C7A 1_555 1_555
C9A C8A 1_555 1_555
O3A Cr1 1_555 1_555
O4A C6A 1_555 1_555
O5A Cr1 1_555 1_555
O6A C9A 1_555 1_555
Cl2A C5A 1_555 1_555
Cl3A C8A 1_555 1_555
O4B Mn1 1_555 1_555
O4C Mn1 1_555 1_555
O6B Mn1 1_555 1_555
O6C Mn1 1_555 1_555
Mn1B O4 1_555 1_555
Mn1B_2 O4A 1_555 1_555
C10A H1A 1_555 1_555
H2A C10A 1_555 1_555
H3A C10A 1_555 1_555
C11A C10A 1_555 1_555
C12A C11A 1_555 1_555
H4A C12A 1_555 1_555
C13A C12A 1_555 1_555
C14A C13A 1_555 1_555
H5A C14A 1_555 1_555
H6A C14A 1_555 1_555
H7A C14A 1_555 1_555
C15A H8A 1_555 1_555
H9A C15A 1_555 1_555
C16A C15A 1_555 1_555
H10A C16A 1_555 1_555
H11A C16A 1_555 1_555
C17A C17 1_555 1_555
H12A C17A 1_555 1_555
H13A C17A 1_555 1_555
N1A Fe1 1_555 1_555
N2A Fe1 1_555 1_555
H14A N2A 1_555 1_555
O7A Fe1 1_555 1_555
O3 Cr1 1_555 1_555
O5 Cr1 1_555 1_555
O6 Mn1B 1_555 1_555
C15 N1 1_555 1_555
C17 N2 1_555 1_555
N2 Fe1 1_555 1_555
O7 Fe1 1_555 1_555
C1A O1A 1_555 1_555
C2A C3A 1_555 1_555
C4A O3A 1_555 1_555
C7A O5A 1_555 1_555
O6A Mn1B_2 1_555 1_555
C11A O7A 1_555 1_555
C13A N1A 1_555 1_555
C15A N1A 1_555 1_555
C16A N2A 1_555 1_555
C17A N2A 1_555 1_555

#END
