
#######################################################################
#
#                 Cambridge Crystallographic Data Centre
#                                CCDC 
#
#######################################################################
#
# If this CIF has been generated from an entry in the Cambridge 
# Structural Database, then it will include bibliographic, chemical, 
# crystal, experimental, refinement or atomic coordinate data resulting 
# from the CCDC's data processing and validation procedures.
#
#######################################################################

data_MUMKUA
_symmetry_cell_setting           triclinic
_symmetry_space_group_name_H-M   'P -1'
_symmetry_Int_Tables_number      2
_space_group_name_Hall           '-P 1'
loop_
_symmetry_equiv_pos_site_id
_symmetry_equiv_pos_as_xyz
1 x,y,z
2 -x,-y,-z
_cell_length_a                   8.847(2)
_cell_length_b                   8.985(2)
_cell_length_c                   10.3302(17)
_cell_angle_alpha                67.817(12)
_cell_angle_beta                 82.839(17)
_cell_angle_gamma                75.60(2)
_cell_volume                     736.049
loop_
_atom_site_label
_atom_site_type_symbol
_atom_site_fract_x
_atom_site_fract_y
_atom_site_fract_z
Cu1 Cu 0.0000 0.5000 0.0000
Cu2 Cu 0.5000 0.5000 -0.5000
O1 O 0.1794(2) 0.3135(2) 0.05839(18)
O2 O 0.1480(2) 0.3112(2) -0.15034(19)
O3 O 0.4564(2) 0.3859(2) -0.29919(17)
O4 O 0.4355(3) 0.1923(2) -0.37727(19)
N1 N 0.1459(3) 0.6516(3) -0.0867(3)
N2 N 0.3520(3) 0.7417(3) -0.1978(3)
N3 N 0.2765(3) 0.5997(3) -0.5330(2)
N4 N 0.0280(3) 0.6862(3) -0.4911(3)
C1 C 0.2923(3) 0.6111(3) -0.1252(3)
H1 H 0.3482 0.5029 -0.1041
C2 C 0.5084(4) 0.7396(5) -0.2645(4)
H2 H 0.5556 0.6306 -0.2631
H3 H 0.5714 0.7715 -0.2146
H4 H 0.5005 0.8154 -0.3596
C3 C 0.2377(4) 0.8757(5) -0.2067(6)
H5 H 0.2447 0.9852 -0.2511
C4 C 0.1118(4) 0.8203(5) -0.1390(6)
H6 H 0.0154 0.8867 -0.1290
C5 C 0.2202(3) 0.2596(3) -0.0420(2)
C6 C 0.3669(3) 0.1274(3) -0.0218(2)
C7 C 0.4679(3) 0.1163(3) -0.1345(2)
C8 C 0.4007(3) 0.0109(3) 0.1110(2)
H7 H 0.3335 0.0185 0.1861
C9 C 0.4468(3) 0.2397(3) -0.2823(2)
C10 C 0.1672(3) 0.6096(4) -0.4361(3)
H8 H 0.1849 0.5681 -0.3408
C11 C -0.1182(4) 0.7225(6) -0.4155(4)
H9 H -0.1095 0.6520 -0.3188
H10 H -0.2013 0.7041 -0.4550
H11 H -0.1402 0.8355 -0.4227
C12 C 0.0479(4) 0.7273(4) -0.6331(3)
H12 H -0.0287 0.7808 -0.6994
C13 C 0.2006(4) 0.6745(4) -0.6569(3)
H13 H 0.2481 0.6868 -0.7447
C8A C 0.5993(3) -0.0109(3) -0.1110(2)
C6A C 0.6331(3) -0.1274(3) 0.0218(2)
C5A C 0.7798(3) -0.2596(3) 0.0420(2)
O1A O 0.8206(2) -0.3135(2) -0.05839(18)
O2A O 0.8520(2) -0.3112(2) 0.15034(19)
C7A C 0.5321(3) -0.1163(3) 0.1345(2)
C9A C 0.5532(3) -0.2397(3) 0.2823(2)
O3A O 0.5436(2) -0.3859(2) 0.29919(17)
O4A O 0.5645(3) -0.1923(2) 0.37727(19)
H7A H 0.6665 -0.0185 -0.1861
N1A N -0.1459(3) 0.3484(3) 0.0867(3)
N2A N -0.3520(3) 0.2583(3) 0.1978(3)
C1A C -0.2923(3) 0.3889(3) 0.1252(3)
H1A H -0.3482 0.4971 0.1041
C2A C -0.5084(4) 0.2604(5) 0.2645(4)
H2A H -0.5556 0.3694 0.2631
H3A H -0.5714 0.2285 0.2146
H4A H -0.5005 0.1846 0.3596
C3A C -0.2377(4) 0.1243(5) 0.2067(6)
H5A H -0.2447 0.0148 0.2511
C4A C -0.1118(4) 0.1797(5) 0.1390(6)
H6A H -0.0154 0.1133 0.1290
N3A N 0.7235(3) 0.4003(3) -0.4670(2)
N4A N 0.9720(3) 0.3138(3) -0.5089(3)
C10A C 0.8328(3) 0.3904(4) -0.5639(3)
H8A H 0.8151 0.4319 -0.6592
C11A C 1.1182(4) 0.2775(6) -0.5845(4)
H9A H 1.1095 0.3480 -0.6812
H10A H 1.2013 0.2959 -0.5450
H11A H 1.1402 0.1645 -0.5773
C12A C 0.9521(4) 0.2727(4) -0.3669(3)
H12A H 1.0287 0.2192 -0.3006
C13A C 0.7994(4) 0.3255(4) -0.3431(3)
H13A H 0.7519 0.3132 -0.2553
O1A_2 O -0.1794(2) 0.6865(2) -0.05839(18)
O3A_2 O 0.5436(2) 0.6141(2) -0.70081(17)
Cu1_2 Cu 1.0000 -0.5000 0.0000
Cu2_2 Cu 0.5000 -0.5000 0.5000
loop_
_geom_bond_atom_site_label_1
_geom_bond_atom_site_label_2
_geom_bond_site_symmetry_1
_geom_bond_site_symmetry_2
Cu1 O1 1_555 1_555
Cu2 O3 1_555 1_555
O1 C5 1_555 1_555
O2 C5 1_555 1_555
O3 C9 1_555 1_555
O4 C9 1_555 1_555
N1 Cu1 1_555 1_555
N2 C1 1_555 1_555
N3 Cu2 1_555 1_555
N4 C10 1_555 1_555
C1 N1 1_555 1_555
H1 C1 1_555 1_555
C2 N2 1_555 1_555
H2 C2 1_555 1_555
H3 C2 1_555 1_555
H4 C2 1_555 1_555
C3 N2 1_555 1_555
H5 C3 1_555 1_555
C4 N1 1_555 1_555
H6 C4 1_555 1_555
C5 C6 1_555 1_555
C6 C7 1_555 1_555
C7 C9 1_555 1_555
C8 C6 1_555 1_555
H7 C8 1_555 1_555
C10 N3 1_555 1_555
H8 C10 1_555 1_555
C11 N4 1_555 1_555
H9 C11 1_555 1_555
H10 C11 1_555 1_555
H11 C11 1_555 1_555
C12 N4 1_555 1_555
H12 C12 1_555 1_555
C13 N3 1_555 1_555
H13 C13 1_555 1_555
C8A C7 1_555 1_555
C6A C8A 1_555 1_555
C5A C6A 1_555 1_555
O1A C5A 1_555 1_555
O2A C5A 1_555 1_555
C7A C8 1_555 1_555
C9A C7A 1_555 1_555
O3A C9A 1_555 1_555
O4A C9A 1_555 1_555
H7A C8A 1_555 1_555
N1A Cu1 1_555 1_555
N2A C1A 1_555 1_555
C1A N1A 1_555 1_555
H1A C1A 1_555 1_555
C2A N2A 1_555 1_555
H2A C2A 1_555 1_555
H3A C2A 1_555 1_555
H4A C2A 1_555 1_555
C3A N2A 1_555 1_555
H5A C3A 1_555 1_555
C4A N1A 1_555 1_555
H6A C4A 1_555 1_555
N3A Cu2 1_555 1_555
N4A C10A 1_555 1_555
C10A N3A 1_555 1_555
H8A C10A 1_555 1_555
C11A N4A 1_555 1_555
H9A C11A 1_555 1_555
H10A C11A 1_555 1_555
H11A C11A 1_555 1_555
C12A N4A 1_555 1_555
H12A C12A 1_555 1_555
C13A N3A 1_555 1_555
H13A C13A 1_555 1_555
O1A_2 Cu1 1_555 1_555
O3A_2 Cu2 1_555 1_555
Cu1_2 O1A 1_555 1_555
Cu2_2 O3A 1_555 1_555
C3 C4 1_555 1_555
C12 C13 1_555 1_555
C6A C7A 1_555 1_555
C3A C4A 1_555 1_555
C12A C13A 1_555 1_555

#END
