
#######################################################################
#
#                 Cambridge Crystallographic Data Centre
#                                CCDC 
#
#######################################################################
#
# If this CIF has been generated from an entry in the Cambridge 
# Structural Database, then it will include bibliographic, chemical, 
# crystal, experimental, refinement or atomic coordinate data resulting 
# from the CCDC's data processing and validation procedures.
#
#######################################################################

data_MUMLEN
_symmetry_cell_setting           monoclinic
_symmetry_space_group_name_H-M   'C 2/c'
_symmetry_Int_Tables_number      15
_space_group_name_Hall           '-C 2yn'
loop_
_symmetry_equiv_pos_site_id
_symmetry_equiv_pos_as_xyz
1 x,y,z
2 -x,y,1/2-z
3 1/2+x,1/2+y,z
4 1/2-x,1/2+y,1/2-z
5 -x,-y,-z
6 x,-y,1/2+z
7 1/2-x,1/2-y,-z
8 1/2+x,1/2-y,1/2+z
_cell_length_a                   14.1613(4)
_cell_length_b                   23.0839(6)
_cell_length_c                   14.8676(5)
_cell_angle_alpha                90
_cell_angle_beta                 104.296(3)
_cell_angle_gamma                90
_cell_volume                     4709.68
loop_
_atom_site_label
_atom_site_type_symbol
_atom_site_fract_x
_atom_site_fract_y
_atom_site_fract_z
Br1 Br 0.15247(5) 0.38452(3) 0.55185(5)
C1 C 0.2109(5) 0.4216(3) 0.6641(4)
C2 C 0.1556(5) 0.4584(3) 0.7058(5)
C3 C 0.3088(5) 0.4128(3) 0.7052(5)
C4 C 0.2039(5) 0.4873(3) 0.8006(5)
O1 O 0.0668(3) 0.46993(19) 0.6731(3)
C5 C 0.3573(5) 0.4424(3) 0.7973(4)
O2 O 0.3652(3) 0.38024(19) 0.6730(3)
C6 C 0.3028(4) 0.4763(3) 0.8419(4)
O3 O 0.1490(3) 0.51861(19) 0.8326(3)
Mn1 Mn 0.0000 0.53113(6) 0.7500
O4 O 0.4489(3) 0.43246(18) 0.8258(3)
Cr1 Cr 0.5000 0.37540(6) 0.7500
Br2 Br 0.35926(5) 0.50926(3) 0.95839(5)
O5 O 0.0159(3) 0.60695(19) 0.6672(3)
O6 O 0.5302(3) 0.31075(18) 0.6748(3)
C7 C 0.5159(5) 0.2600(3) 0.7044(5)
C8 C 0.5278(5) 0.2086(3) 0.6620(4)
Br3 Br 0.55966(6) 0.20964(3) 0.54628(5)
C9 C 0.5111(5) 0.1552(3) 0.7015(5)
O5A O -0.0159(3) 0.60695(19) 0.8328(3)
O1A O -0.0668(3) 0.46993(19) 0.8269(3)
O3A O -0.1490(3) 0.51861(19) 0.6674(3)
O2A O 0.6348(3) 0.38024(19) 0.8270(3)
O4A O 0.5511(3) 0.43246(18) 0.6742(3)
O6A O 0.4698(3) 0.31075(18) 0.8252(3)
C3A C 0.6912(5) 0.4128(3) 0.7948(5)
C5A C 0.6427(5) 0.4424(3) 0.7027(4)
C7A C 0.4841(5) 0.2600(3) 0.7956(5)
C1A C 0.7891(5) 0.4216(3) 0.8359(4)
C6A C 0.6972(4) 0.4763(3) 0.6581(4)
C8A C 0.4722(5) 0.2086(3) 0.8380(4)
C2A C 0.8444(5) 0.4584(3) 0.7942(5)
Br1A Br 0.84753(5) 0.38452(3) 0.94815(5)
C4A C 0.7961(5) 0.4873(3) 0.6994(5)
Br2A Br 0.64074(5) 0.50926(3) 0.54161(5)
C9A C 0.4889(5) 0.1552(3) 0.7985(5)
Br3A Br 0.44034(6) 0.20964(3) 0.95372(5)
O1A_2 O 0.9332(3) 0.46993(19) 0.8269(3)
O3A_2 O 0.8510(3) 0.51861(19) 0.6674(3)
O5B O 0.5159(3) 0.10695(19) 0.6672(3)
O5C O 0.4841(3) 0.10695(19) 0.8328(3)
Mn1_2 Mn 1.0000 0.53113(6) 0.7500
Mn1B Mn 0.5000 0.03113(6) 0.7500
C10 C -0.1678(5) 0.7237(3) 0.1810(5)
C11 C -0.2108(6) 0.7380(3) 0.2491(5)
H1 H -0.2727 0.7211 0.2458
C12 C -0.1744(5) 0.7749(3) 0.3240(5)
C13 C -0.0558(5) 0.8362(3) 0.4223(5)
H2 H -0.0595 0.8136 0.4779
H3 H -0.0977 0.8709 0.4189
C14 C 0.0481(6) 0.8543(3) 0.4291(5)
H4 H 0.0645 0.8880 0.4711
H5 H 0.0926 0.8221 0.4557
C15 C 0.0104(6) 0.9237(3) 0.3005(5)
H6 H -0.0512 0.9268 0.3203
H7 H 0.0516 0.9575 0.3255
C16 C -0.2149(6) 0.6808(4) 0.1087(6)
H8 H -0.1746 0.6757 0.0644
H9 H -0.2795 0.6949 0.0759
H10 H -0.2216 0.6436 0.1383
C17 C -0.2367(6) 0.7853(4) 0.3926(6)
H11 H -0.2026 0.8118 0.4414
H12 H -0.2485 0.7484 0.4206
H13 H -0.2991 0.8025 0.3600
N1 N -0.0896(4) 0.8007(2) 0.3385(4)
N2 N 0.0617(4) 0.8694(2) 0.3376(4)
H14 H 0.1328 0.8729 0.3404
O7 O -0.0858(3) 0.7433(2) 0.1699(3)
Ga1 Ga 0.0000 0.79845(4) 0.2500
C10A C 0.1678(5) 0.7237(3) 0.3190(5)
C11A C 0.2108(6) 0.7380(3) 0.2509(5)
H1A H 0.2727 0.7211 0.2542
C12A C 0.1744(5) 0.7749(3) 0.1760(5)
C13A C 0.0558(5) 0.8362(3) 0.0777(5)
H2A H 0.0595 0.8136 0.0221
H3A H 0.0977 0.8709 0.0811
C14A C -0.0481(6) 0.8543(3) 0.0709(5)
H4A H -0.0645 0.8880 0.0289
H5A H -0.0926 0.8221 0.0443
C15A C -0.0104(6) 0.9237(3) 0.1995(5)
H6A H 0.0512 0.9268 0.1797
H7A H -0.0516 0.9575 0.1745
C16A C 0.2149(6) 0.6808(4) 0.3913(6)
H8A H 0.1746 0.6757 0.4356
H9A H 0.2795 0.6949 0.4241
H10A H 0.2216 0.6436 0.3617
C17A C 0.2367(6) 0.7853(4) 0.1074(6)
H11A H 0.2026 0.8118 0.0586
H12A H 0.2485 0.7484 0.0794
H13A H 0.2991 0.8025 0.1400
N1A N 0.0896(4) 0.8007(2) 0.1615(4)
N2A N -0.0617(4) 0.8694(2) 0.1624(4)
H14A H -0.1328 0.8729 0.1596
O7A O 0.0858(3) 0.7433(2) 0.3301(3)
C18 C 0.3895(6) 0.9476(3) 0.4898(5)
H15 H 0.4490 0.9257 0.4911
H16 H 0.3677 0.9395 0.5462
H17 H 0.4027 0.9892 0.4866
C19 C 0.3140(6) 0.9308(3) 0.4092(6)
N3 N 0.2551(5) 0.9186(3) 0.3442(5)
loop_
_geom_bond_atom_site_label_1
_geom_bond_atom_site_label_2
_geom_bond_site_symmetry_1
_geom_bond_site_symmetry_2
Br1 C1 1_555 1_555
C1 C2 1_555 1_555
C2 C4 1_555 1_555
C3 C1 1_555 1_555
C4 C6 1_555 1_555
O1 C2 1_555 1_555
C5 C3 1_555 1_555
O2 C3 1_555 1_555
C6 C5 1_555 1_555
O3 C4 1_555 1_555
Mn1 O1 1_555 1_555
O4 C5 1_555 1_555
Cr1 O2 1_555 1_555
Br2 C6 1_555 1_555
O5 Mn1 1_555 1_555
O6 Cr1 1_555 1_555
C7 O6 1_555 1_555
C8 C7 1_555 1_555
Br3 C8 1_555 1_555
C9 C8 1_555 1_555
C10 C11 1_555 1_555
C11 H1 1_555 1_555
C12 C11 1_555 1_555
C13 H2 1_555 1_555
H3 C13 1_555 1_555
C14 C13 1_555 1_555
H4 C14 1_555 1_555
H5 C14 1_555 1_555
C15 H6 1_555 1_555
H7 C15 1_555 1_555
C16 C10 1_555 1_555
H8 C16 1_555 1_555
H9 C16 1_555 1_555
H10 C16 1_555 1_555
C17 C12 1_555 1_555
H11 C17 1_555 1_555
H12 C17 1_555 1_555
H13 C17 1_555 1_555
N1 C12 1_555 1_555
N2 C14 1_555 1_555
H14 N2 1_555 1_555
O7 C10 1_555 1_555
Ga1 N1 1_555 1_555
C18 H15 1_555 1_555
H16 C18 1_555 1_555
H17 C18 1_555 1_555
C19 C18 1_555 1_555
N3 C19 1_555 1_555
O5A Mn1 1_555 1_555
O1A Mn1 1_555 1_555
O3A Mn1 1_555 1_555
O2A Cr1 1_555 1_555
O4A Cr1 1_555 1_555
O6A Cr1 1_555 1_555
C3A O2A 1_555 1_555
C5A O4A 1_555 1_555
C7A C7 1_555 1_555
C1A C3A 1_555 1_555
C6A C5A 1_555 1_555
C8A C7A 1_555 1_555
C2A C1A 1_555 1_555
Br1A C1A 1_555 1_555
C4A C6A 1_555 1_555
Br2A C6A 1_555 1_555
C9A C9 1_555 1_555
Br3A C8A 1_555 1_555
O1A_2 C2A 1_555 1_555
O3A_2 C4A 1_555 1_555
O5B C9 1_555 1_555
O5C C9A 1_555 1_555
Mn1_2 O1A_2 1_555 1_555
Mn1B O5B 1_555 1_555
C10A C11A 1_555 1_555
C11A H1A 1_555 1_555
C12A C11A 1_555 1_555
C13A H2A 1_555 1_555
H3A C13A 1_555 1_555
C14A C13A 1_555 1_555
H4A C14A 1_555 1_555
H5A C14A 1_555 1_555
C15A C15 1_555 1_555
H6A C15A 1_555 1_555
H7A C15A 1_555 1_555
C16A C10A 1_555 1_555
H8A C16A 1_555 1_555
H9A C16A 1_555 1_555
H10A C16A 1_555 1_555
C17A C12A 1_555 1_555
H11A C17A 1_555 1_555
H12A C17A 1_555 1_555
H13A C17A 1_555 1_555
N1A Ga1 1_555 1_555
N2A Ga1 1_555 1_555
H14A N2A 1_555 1_555
O7A Ga1 1_555 1_555
O3 Mn1 1_555 1_555
O4 Cr1 1_555 1_555
C13 N1 1_555 1_555
C15 N2 1_555 1_555
N2 Ga1 1_555 1_555
O7 Ga1 1_555 1_555
O6A C7A 1_555 1_555
C3A C5A 1_555 1_555
C8A C9A 1_555 1_555
C2A C4A 1_555 1_555
O3A_2 Mn1_2 1_555 1_555
O5C Mn1B 1_555 1_555
C10A O7A 1_555 1_555
C12A N1A 1_555 1_555
C13A N1A 1_555 1_555
C14A N2A 1_555 1_555
C15A N2A 1_555 1_555

#END
