
#######################################################################
#
#                 Cambridge Crystallographic Data Centre
#                                CCDC 
#
#######################################################################
#
# If this CIF has been generated from an entry in the Cambridge 
# Structural Database, then it will include bibliographic, chemical, 
# crystal, experimental, refinement or atomic coordinate data resulting 
# from the CCDC's data processing and validation procedures.
#
#######################################################################

data_MUMLAJ
_symmetry_cell_setting           monoclinic
_symmetry_space_group_name_H-M   'C 2/c'
_symmetry_Int_Tables_number      15
_space_group_name_Hall           '-C 2yn'
loop_
_symmetry_equiv_pos_site_id
_symmetry_equiv_pos_as_xyz
1 x,y,z
2 -x,y,1/2-z
3 1/2+x,1/2+y,z
4 1/2-x,1/2+y,1/2-z
5 -x,-y,-z
6 x,-y,1/2+z
7 1/2-x,1/2-y,-z
8 1/2+x,1/2-y,1/2+z
_cell_length_a                   14.1914(5)
_cell_length_b                   23.0061(7)
_cell_length_c                   14.7880(5)
_cell_angle_alpha                90
_cell_angle_beta                 104.703(3)
_cell_angle_gamma                90
_cell_volume                     4670.02
loop_
_atom_site_label
_atom_site_type_symbol
_atom_site_fract_x
_atom_site_fract_y
_atom_site_fract_z
Br1 Br 0.84821(7) 0.61510(4) 0.44814(7)
C1 C 0.7893(5) 0.5783(3) 0.3361(5)
C2 C 0.6918(5) 0.5873(3) 0.2955(4)
C3 C 0.8447(5) 0.5418(3) 0.2948(5)
C4 C 0.6431(5) 0.5577(3) 0.2028(5)
O1 O 0.6351(3) 0.6194(2) 0.3278(3)
C5 C 0.7963(5) 0.5131(3) 0.1994(5)
O2 O 0.9338(3) 0.5305(2) 0.3272(3)
C6 C 0.6978(5) 0.5238(3) 0.1578(4)
O3 O 0.5513(3) 0.5674(2) 0.1739(3)
Cr1 Cr 0.5000 0.62446(6) 0.2500
O4 O 0.8508(3) 0.4810(2) 0.1669(3)
Mn1 Mn 1.0000 0.46963(6) 0.2500
Br2 Br 0.64101(6) 0.49094(4) 0.04123(6)
O5 O 0.5293(3) 0.6899(2) 0.1741(3)
O6 O 1.0162(3) 0.3940(2) 0.1670(3)
C7 C 0.5157(4) 0.7407(3) 0.2044(5)
C8 C 0.5273(5) 0.7920(3) 0.1609(4)
C9 C 0.5118(5) 0.8454(3) 0.2015(4)
Br3 Br 0.55784(7) 0.79079(4) 0.04628(6)
O3A O 0.4487(3) 0.5674(2) 0.3261(3)
O1A O 0.3649(3) 0.6194(2) 0.1722(3)
O5A O 0.4707(3) 0.6899(2) 0.3259(3)
O6A O 0.9838(3) 0.3940(2) 0.3330(3)
O2A O 1.0662(3) 0.5305(2) 0.1728(3)
O4A O 1.1492(3) 0.4810(2) 0.3331(3)
C4A C 0.3569(5) 0.5577(3) 0.2972(5)
C2A C 0.3082(5) 0.5873(3) 0.2045(4)
C7A C 0.4843(4) 0.7407(3) 0.2956(5)
C6A C 0.3022(5) 0.5238(3) 0.3422(4)
C1A C 0.2107(5) 0.5783(3) 0.1639(5)
C8A C 0.4727(5) 0.7920(3) 0.3391(4)
C5A C 0.2037(5) 0.5131(3) 0.3006(5)
Br2A Br 0.35899(6) 0.49094(4) 0.45877(6)
C3A C 0.1553(5) 0.5418(3) 0.2052(5)
Br1A Br 0.15179(7) 0.61510(4) 0.05186(7)
Br3A Br 0.44216(7) 0.79079(4) 0.45372(6)
C9A C 0.4882(5) 0.8454(3) 0.2985(4)
O4A_2 O 0.1492(3) 0.4810(2) 0.3331(3)
O2A_2 O 0.0662(3) 0.5305(2) 0.1728(3)
O6B O 0.5162(3) 0.8940(2) 0.1670(3)
O6C O 0.4838(3) 0.8940(2) 0.3330(3)
Mn1_2 Mn 0.0000 0.46963(6) 0.2500
Mn1B Mn 0.5000 0.96963(6) 0.2500
C10 C 0.8259(5) 0.7224(3) 0.1773(5)
C11 C 0.7801(6) 0.6793(4) 0.1031(6)
H1 H 0.8205 0.6753 0.0587
H2 H 0.7150 0.6928 0.0701
H3 H 0.7749 0.6415 0.1321
C12 C 0.7841(6) 0.7353(4) 0.2461(6)
H4 H 0.7235 0.7169 0.2432
C13 C 0.8195(5) 0.7734(4) 0.3235(5)
C14 C 0.7551(7) 0.7833(6) 0.3896(7)
H5 H 0.7875 0.8101 0.4393
H6 H 0.7431 0.7462 0.4172
H7 H 0.6929 0.8001 0.3550
C15 C 0.9343(6) 0.8361(3) 0.4223(6)
H8 H 0.9291 0.8141 0.4783
H9 H 0.8910 0.8704 0.4156
C16 C 1.0394(6) 0.8559(3) 0.4337(5)
H10 H 1.0531 0.8903 0.4752
H11 H 1.0847 0.8244 0.4626
C17 C 1.0048(6) 0.9242(3) 0.3021(5)
H12 H 1.0430 0.9584 0.3313
H13 H 0.9396 0.9262 0.3146
N1 N 0.9042(4) 0.7989(3) 0.3385(4)
N2 N 1.0542(5) 0.8706(3) 0.3411(4)
H14 H 1.1256 0.8750 0.3469
O7 O 0.9079(4) 0.7441(2) 0.1691(4)
Fe1 Fe 1.0000 0.79652(6) 0.2500
C10A C 1.1741(5) 0.7224(3) 0.3227(5)
C11A C 1.2199(6) 0.6793(4) 0.3969(6)
H1A H 1.1795 0.6753 0.4413
H2A H 1.2850 0.6928 0.4299
H3A H 1.2251 0.6415 0.3679
C12A C 1.2159(6) 0.7353(4) 0.2539(6)
H4A H 1.2765 0.7169 0.2568
C13A C 1.1805(5) 0.7734(4) 0.1765(5)
C14A C 1.2449(7) 0.7833(6) 0.1104(7)
H5A H 1.2125 0.8101 0.0607
H6A H 1.2569 0.7462 0.0828
H7A H 1.3071 0.8001 0.1450
C15A C 1.0657(6) 0.8361(3) 0.0777(6)
H8A H 1.0709 0.8141 0.0217
H9A H 1.1090 0.8704 0.0844
C16A C 0.9606(6) 0.8559(3) 0.0663(5)
H10A H 0.9469 0.8903 0.0248
H11A H 0.9153 0.8244 0.0374
C17A C 0.9952(6) 0.9242(3) 0.1979(5)
H12A H 0.9570 0.9584 0.1687
H13A H 1.0604 0.9262 0.1854
N1A N 1.0958(4) 0.7989(3) 0.1615(4)
N2A N 0.9458(5) 0.8706(3) 0.1589(4)
H14A H 0.8744 0.8750 0.1531
O7A O 1.0921(4) 0.7441(2) 0.3309(4)
C18 C 0.6889(5) 0.9302(4) 0.0924(6)
C19 C 0.6110(6) 0.9473(4) 0.0101(5)
H15 H 0.5988 0.9155 -0.0355
H16 H 0.6311 0.9821 -0.0183
H17 H 0.5513 0.9556 0.0296
N3 N 0.7470(5) 0.9174(3) 0.1548(6)
loop_
_geom_bond_atom_site_label_1
_geom_bond_atom_site_label_2
_geom_bond_site_symmetry_1
_geom_bond_site_symmetry_2
Br1 C1 1_555 1_555
C1 C2 1_555 1_555
C2 C4 1_555 1_555
C3 C1 1_555 1_555
C4 C6 1_555 1_555
O1 C2 1_555 1_555
C5 C3 1_555 1_555
O2 C3 1_555 1_555
C6 C5 1_555 1_555
O3 C4 1_555 1_555
Cr1 O1 1_555 1_555
O4 C5 1_555 1_555
Mn1 O2 1_555 1_555
Br2 C6 1_555 1_555
O5 Cr1 1_555 1_555
O6 Mn1 1_555 1_555
C7 O5 1_555 1_555
C8 C7 1_555 1_555
C9 C8 1_555 1_555
Br3 C8 1_555 1_555
C10 C11 1_555 1_555
C11 H1 1_555 1_555
H2 C11 1_555 1_555
H3 C11 1_555 1_555
C12 C10 1_555 1_555
H4 C12 1_555 1_555
C13 C12 1_555 1_555
C14 C13 1_555 1_555
H5 C14 1_555 1_555
H6 C14 1_555 1_555
H7 C14 1_555 1_555
C15 H8 1_555 1_555
H9 C15 1_555 1_555
C16 C15 1_555 1_555
H10 C16 1_555 1_555
H11 C16 1_555 1_555
C17 H12 1_555 1_555
H13 C17 1_555 1_555
N1 C13 1_555 1_555
N2 C16 1_555 1_555
H14 N2 1_555 1_555
O7 C10 1_555 1_555
Fe1 N1 1_555 1_555
C18 C19 1_555 1_555
C19 H15 1_555 1_555
H16 C19 1_555 1_555
H17 C19 1_555 1_555
N3 C18 1_555 1_555
O3A Cr1 1_555 1_555
O1A Cr1 1_555 1_555
O5A Cr1 1_555 1_555
O6A Mn1 1_555 1_555
O2A Mn1 1_555 1_555
O4A Mn1 1_555 1_555
C4A O3A 1_555 1_555
C2A O1A 1_555 1_555
C7A C7 1_555 1_555
C6A C4A 1_555 1_555
C1A C2A 1_555 1_555
C8A C7A 1_555 1_555
C5A C6A 1_555 1_555
Br2A C6A 1_555 1_555
C3A C1A 1_555 1_555
Br1A C1A 1_555 1_555
Br3A C8A 1_555 1_555
C9A C9 1_555 1_555
O4A_2 C5A 1_555 1_555
O2A_2 C3A 1_555 1_555
O6B C9 1_555 1_555
O6C C9A 1_555 1_555
Mn1_2 O4A_2 1_555 1_555
Mn1B O6B 1_555 1_555
C10A C11A 1_555 1_555
C11A H1A 1_555 1_555
H2A C11A 1_555 1_555
H3A C11A 1_555 1_555
C12A C10A 1_555 1_555
H4A C12A 1_555 1_555
C13A C12A 1_555 1_555
C14A C13A 1_555 1_555
H5A C14A 1_555 1_555
H6A C14A 1_555 1_555
H7A C14A 1_555 1_555
C15A H8A 1_555 1_555
H9A C15A 1_555 1_555
C16A C15A 1_555 1_555
H10A C16A 1_555 1_555
H11A C16A 1_555 1_555
C17A C17 1_555 1_555
H12A C17A 1_555 1_555
H13A C17A 1_555 1_555
N1A Fe1 1_555 1_555
N2A Fe1 1_555 1_555
H14A N2A 1_555 1_555
O7A Fe1 1_555 1_555
O3 Cr1 1_555 1_555
O4 Mn1 1_555 1_555
C15 N1 1_555 1_555
C17 N2 1_555 1_555
N2 Fe1 1_555 1_555
O7 Fe1 1_555 1_555
O5A C7A 1_555 1_555
C4A C2A 1_555 1_555
C8A C9A 1_555 1_555
C5A C3A 1_555 1_555
O2A_2 Mn1_2 1_555 1_555
O6C Mn1B 1_555 1_555
C10A O7A 1_555 1_555
C13A N1A 1_555 1_555
C15A N1A 1_555 1_555
C16A N2A 1_555 1_555
C17A N2A 1_555 1_555

#END
