
#######################################################################
#
#                 Cambridge Crystallographic Data Centre
#                                CCDC 
#
#######################################################################
#
# If this CIF has been generated from an entry in the Cambridge 
# Structural Database, then it will include bibliographic, chemical, 
# crystal, experimental, refinement or atomic coordinate data resulting 
# from the CCDC's data processing and validation procedures.
#
#######################################################################

data_MUMNEN
_symmetry_cell_setting           triclinic
_symmetry_space_group_name_H-M   'P -1'
_symmetry_Int_Tables_number      2
_space_group_name_Hall           '-P 1'
loop_
_symmetry_equiv_pos_site_id
_symmetry_equiv_pos_as_xyz
1 x,y,z
2 -x,-y,-z
_cell_length_a                   5.2250(1)
_cell_length_b                   9.1650(2)
_cell_length_c                   15.2200(5)
_cell_angle_alpha                75.638(1)
_cell_angle_beta                 87.278(1)
_cell_angle_gamma                84.999(2)
_cell_volume                     703.124
loop_
_atom_site_label
_atom_site_type_symbol
_atom_site_fract_x
_atom_site_fract_y
_atom_site_fract_z
O1 O 0.09962(19) -0.18076(11) 0.41149(6)
O2 O 0.3601(2) 0.11310(11) 0.42376(6)
O3 O -0.3152(2) -0.17100(13) 0.38462(7)
O4 O 0.7305(2) 0.21521(13) 0.40621(7)
N1 N 0.3703(2) -0.35981(13) 0.30417(8)
C1 C 0.1930(3) -0.27849(15) 0.23959(9)
N2 N 0.8089(3) 0.41960(15) 0.24064(10)
C2 C -0.0832(3) -0.18051(14) 0.35977(9)
C3 C 0.0487(3) -0.21625(18) 0.08429(9)
H1 H 0.0741 -0.2246 0.0235
C4 C -0.0242(3) -0.19346(15) 0.26383(8)
C5 C 0.3088(3) 0.15702(16) 0.23871(10)
H2 H 0.2052 0.0898 0.2801
C6 C 0.5331(3) 0.18484(15) 0.37303(9)
C7 C 0.4957(3) 0.22931(15) 0.27296(9)
C8 C -0.2001(3) -0.12126(16) 0.19731(9)
H3 H -0.3478 -0.0648 0.2138
C9 C 0.2235(3) -0.28985(16) 0.14936(9)
H4 H 0.3669 -0.3492 0.1326
C10 C 0.4240(3) 0.28166(18) 0.08716(10)
H5 H 0.4027 0.2985 0.0237
C11 C -0.1644(3) -0.13004(17) 0.10783(10)
H6 H -0.2834 -0.0780 0.0632
C12 C 0.6035(3) 0.35686(17) 0.11795(10)
H7 H 0.7024 0.4255 0.0756
C13 C 0.6429(3) 0.33324(16) 0.21198(10)
C14 C 0.2728(3) 0.18145(18) 0.14678(10)
H8 H 0.1478 0.1311 0.1247
Li1 Li 0.4036(5) -0.1100(3) 0.45459(16)
Li2 Li -0.0525(5) -0.2197(3) 0.53699(16)
H9 H 0.510(4) -0.400(2) 0.2792(13)
H10 H 0.426(4) -0.303(2) 0.3406(14)
O5 O -0.1287(4) -0.42814(15) 0.56435(11)
H11 H 0.874(4) 0.381(3) 0.2984(16)
H12 H 0.930(5) 0.461(3) 0.1942(16)
H13 H -0.206(5) -0.494(3) 0.6113(14)
H14 H -0.10(2) -0.451(14) 0.509(4)
O4A O 0.2695(2) -0.21521(13) 0.59379(7)
Li1A Li 0.5964(5) 0.1100(3) 0.54541(16)
Li2A Li 1.0525(5) 0.2197(3) 0.46301(16)
O2A O 0.6399(2) -0.11310(11) 0.57624(6)
Li2A_2 Li 0.0525(5) 0.2197(3) 0.46301(16)
O3_2 O 0.6848(2) -0.17100(13) 0.38462(7)
O2A_2 O -0.3601(2) -0.11310(11) 0.57624(6)
Li1_2 Li -0.5964(5) -0.1100(3) 0.45459(16)
loop_
_geom_bond_atom_site_label_1
_geom_bond_atom_site_label_2
_geom_bond_site_symmetry_1
_geom_bond_site_symmetry_2
O1 C2 1_555 1_555
O2 C6 1_555 1_555
O3 C2 1_555 1_555
O4 C6 1_555 1_555
N1 C1 1_555 1_555
C1 C4 1_555 1_555
N2 C13 1_555 1_555
C2 C4 1_555 1_555
C3 H1 1_555 1_555
C4 C8 1_555 1_555
C5 H2 1_555 1_555
C6 C7 1_555 1_555
C7 C5 1_555 1_555
C8 H3 1_555 1_555
C9 C1 1_555 1_555
H4 C9 1_555 1_555
C10 H5 1_555 1_555
C11 C3 1_555 1_555
H6 C11 1_555 1_555
C12 C10 1_555 1_555
H7 C12 1_555 1_555
C13 C7 1_555 1_555
C14 C5 1_555 1_555
H8 C14 1_555 1_555
Li1 O1 1_555 1_555
Li2 O1 1_555 1_555
H9 N1 1_555 1_555
H10 N1 1_555 1_555
O5 Li2 1_555 1_555
H11 N2 1_555 1_555
H12 N2 1_555 1_555
H13 O5 1_555 1_555
H14 O5 1_555 1_555
O4A Li1 1_555 1_555
Li1A O2 1_555 1_555
Li2A O4 1_555 1_555
O2A Li1 1_555 1_555
Li2A_2 O2 1_555 1_555
O3_2 Li1 1_555 1_555
O2A_2 Li2 1_555 1_555
Li1_2 O3 1_555 1_555
O2 Li1 1_555 1_555
O3 Li2 1_555 1_555
O4 Li1A 1_555 1_555
C3 C9 1_555 1_555
C8 C11 1_555 1_555
C10 C14 1_555 1_555
C12 C13 1_555 1_555
Li2 O4A 1_555 1_555
Li1A O2A 1_555 1_555
O2A_2 Li1_2 1_555 1_555

#END
