
#######################################################################
#
#                 Cambridge Crystallographic Data Centre
#                                CCDC 
#
#######################################################################
#
# If this CIF has been generated from an entry in the Cambridge 
# Structural Database, then it will include bibliographic, chemical, 
# crystal, experimental, refinement or atomic coordinate data resulting 
# from the CCDC's data processing and validation procedures.
#
#######################################################################

data_MUMNIR
_symmetry_cell_setting           monoclinic
_symmetry_space_group_name_H-M   'P c'
_symmetry_Int_Tables_number      7
_space_group_name_Hall           'P -2yc'
loop_
_symmetry_equiv_pos_site_id
_symmetry_equiv_pos_as_xyz
1 x,y,z
2 x,-y,1/2+z
_cell_length_a                   15.4990(3)
_cell_length_b                   5.7220(1)
_cell_length_c                   8.1530(1)
_cell_angle_alpha                90
_cell_angle_beta                 104.340(1)
_cell_angle_gamma                90
_cell_volume                     700.523
loop_
_atom_site_label
_atom_site_type_symbol
_atom_site_fract_x
_atom_site_fract_y
_atom_site_fract_z
Na1 Na -0.42548(4) -0.10496(9) -0.34385(7)
Na2 Na -0.30531(4) -0.35206(10) 0.06472(7)
O1 O -0.28465(7) -0.30009(16) -0.25070(14)
O2 O -0.44994(6) -0.20521(17) -0.06464(13)
N1 N -0.16127(8) -0.5485(2) -0.03184(17)
C1 C -0.10240(9) -0.3814(2) -0.06422(17)
C2 C -0.63508(9) -0.1353(2) -0.24080(17)
O3 O -0.24075(7) -0.00894(17) -0.39197(13)
C3 C -0.60126(8) -0.3339(2) -0.14168(17)
C4 C -0.13060(8) -0.1903(2) -0.17376(18)
C5 C -0.66129(9) -0.4983(2) -0.10673(19)
C6 C -0.72752(10) -0.1133(3) -0.3034(2)
C7 C -0.01160(9) -0.4007(2) 0.02060(19)
C8 C -0.78556(10) -0.2766(3) -0.2660(2)
C9 C -0.22463(9) -0.1637(2) -0.27732(17)
C10 C -0.06682(10) -0.0252(2) -0.19475(19)
C11 C -0.75288(10) -0.4713(3) -0.1662(2)
C12 C 0.02216(10) -0.0453(3) -0.1104(2)
C13 C 0.04939(10) -0.2354(3) -0.0030(2)
O4 O -0.47714(7) -0.58113(17) -0.02699(14)
C14 C -0.50312(9) -0.3748(2) -0.07268(17)
N2 N -0.57955(8) 0.0334(2) -0.28610(18)
O5 O -0.35095(8) -0.21787(17) 0.32420(14)
H1 H -0.0876(15) 0.108(4) -0.273(3)
H2 H -0.2108(15) -0.568(4) -0.120(3)
H3 H 0.1179(17) -0.260(4) 0.065(3)
H4 H 0.0670(18) 0.079(4) -0.126(4)
H5 H 0.0071(18) -0.539(4) 0.102(3)
H6 H -0.319(2) -0.145(5) 0.400(5)
H7 H -0.7538(18) 0.023(4) -0.379(4)
H8 H -0.8477(16) -0.246(4) -0.312(3)
H9 H -0.5361(18) 0.076(4) -0.196(3)
H10 H -0.1416(18) -0.676(5) 0.005(4)
H11 H -0.3882(18) -0.291(5) 0.359(4)
H12 H -0.7974(17) -0.583(4) -0.138(3)
H13 H -0.6102(16) 0.144(4) -0.342(3)
H14 H -0.6363(16) -0.627(4) -0.032(3)
Na2A Na -0.30531(4) 0.35206(10) -0.43528(7)
O2A O -0.44994(6) 0.20521(17) -0.56464(13)
O4A O -0.47714(7) -0.41887(17) -0.52699(14)
Na1A Na -0.42548(4) 0.10496(9) 0.15615(7)
O1A O -0.28465(7) -0.69991(16) 0.24930(14)
O3A O -0.24075(7) 0.00894(17) 0.10803(13)
O5A O -0.35095(8) 0.21787(17) -0.17580(14)
Na2A_2 Na -0.30531(4) -0.64794(10) -0.43528(7)
Na1A_2 Na -0.42548(4) -0.89504(9) 0.15615(7)
H6A H -0.319(2) 0.145(5) -0.100(5)
H11A H -0.3882(18) 0.291(5) -0.141(4)
loop_
_geom_bond_atom_site_label_1
_geom_bond_atom_site_label_2
_geom_bond_site_symmetry_1
_geom_bond_site_symmetry_2
Na1 O1 1_555 1_555
Na2 O1 1_555 1_555
O1 C9 1_555 1_555
O2 Na1 1_555 1_555
N1 Na2 1_555 1_555
C1 N1 1_555 1_555
C2 C3 1_555 1_555
O3 C9 1_555 1_555
C3 C5 1_555 1_555
C4 C1 1_555 1_555
C5 C11 1_555 1_555
C6 C2 1_555 1_555
C7 C1 1_555 1_555
C8 C6 1_555 1_555
C9 C4 1_555 1_555
C10 C4 1_555 1_555
C11 C8 1_555 1_555
C12 C10 1_555 1_555
C13 C7 1_555 1_555
O4 Na2 1_555 1_555
C14 O2 1_555 1_555
N2 Na1 1_555 1_555
O5 Na2 1_555 1_555
H1 C10 1_555 1_555
H2 N1 1_555 1_555
H3 C13 1_555 1_555
H4 C12 1_555 1_555
H5 C7 1_555 1_555
H6 O5 1_555 1_555
H7 C6 1_555 1_555
H8 C8 1_555 1_555
H9 N2 1_555 1_555
H10 N1 1_555 1_555
H11 O5 1_555 1_555
H12 C11 1_555 1_555
H13 N2 1_555 1_555
H14 C5 1_555 1_555
Na2A O3 1_555 1_555
O2A Na1 1_555 1_555
O4A Na1 1_555 1_555
Na1A O2 1_555 1_555
O1A Na2 1_555 1_555
O3A Na2 1_555 1_555
O5A Na1 1_555 1_555
Na2A_2 O1 1_555 1_555
Na1A_2 O4 1_555 1_555
H6A O5A 1_555 1_555
H11A O5A 1_555 1_555
Na2 O2 1_555 1_555
C2 N2 1_555 1_555
C3 C14 1_555 1_555
C12 C13 1_555 1_555
O4 C14 1_555 1_555
O5 Na1A 1_555 1_555
Na2A O5A 1_555 1_555
Na2A O2A 1_555 1_555
O4A Na2A_2 1_555 1_555
O1A Na1A_2 1_555 1_555

#END
