
#######################################################################
#
#                 Cambridge Crystallographic Data Centre
#                                CCDC 
#
#######################################################################
#
# If this CIF has been generated from an entry in the Cambridge 
# Structural Database, then it will include bibliographic, chemical, 
# crystal, experimental, refinement or atomic coordinate data resulting 
# from the CCDC's data processing and validation procedures.
#
#######################################################################

data_MUMNOX01
_symmetry_cell_setting           monoclinic
_symmetry_space_group_name_H-M   'P 21/c'
_symmetry_Int_Tables_number      14
_space_group_name_Hall           '-P 2ybc'
loop_
_symmetry_equiv_pos_site_id
_symmetry_equiv_pos_as_xyz
1 x,y,z
2 -x,1/2+y,1/2-z
3 -x,-y,-z
4 x,1/2-y,1/2+z
_cell_length_a                   14.684(3)
_cell_length_b                   7.618(2)
_cell_length_c                   7.512(2)
_cell_angle_alpha                90
_cell_angle_beta                 96.95(3)
_cell_angle_gamma                90
_cell_volume                     834.138
loop_
_atom_site_label
_atom_site_type_symbol
_atom_site_fract_x
_atom_site_fract_y
_atom_site_fract_z
K1 K -0.01946(2) 0.24974(4) -0.06580(4)
O1 O 0.11539(8) 0.2801(1) 0.2103(2)
O2 O 0.10619(7) 0.5294(2) 0.3565(2)
O3 O -0.12654(10) 0.4394(2) 0.1732(2)
N1 N 0.26695(12) 0.6788(2) 0.4978(2)
C1 C 0.25086(9) 0.4493(2) 0.2691(2)
C2 C 0.30382(10) 0.5723(2) 0.3750(2)
C3 C 0.39650(11) 0.5916(2) 0.3519(3)
C4 C 0.43507(11) 0.4953(3) 0.2262(3)
C5 C 0.38355(13) 0.3748(3) 0.1210(3)
C6 C 0.29254(11) 0.3519(2) 0.1445(2)
C7 C 0.15044(9) 0.4181(2) 0.2807(2)
K1B K 0.01946(2) -0.24974(4) 0.06580(4)
K1B_2 K 0.01946(2) 0.75026(4) 0.06580(4)
K1C K -0.01946(2) 0.25026(4) -0.56580(4)
K1C_2 K -0.01946(2) 0.25026(4) 0.43420(4)
K1A K 0.01946(2) 0.74974(4) 0.56580(4)
K1A_2 K 0.01946(2) -0.25026(4) -0.43420(4)
O1C O 0.11539(8) 0.2199(1) -0.2897(2)
O2A O -0.10619(7) 0.0294(2) 0.1435(2)
O2B O -0.10619(7) 0.4706(2) -0.3565(2)
O2C O 0.10619(7) -0.0294(2) -0.1435(2)
O3B O 0.12654(10) 0.5606(2) -0.1732(2)
O3C O -0.12654(10) 0.0606(2) -0.3268(2)
loop_
_geom_bond_atom_site_label_1
_geom_bond_atom_site_label_2
_geom_bond_site_symmetry_1
_geom_bond_site_symmetry_2
K1 O1 1_555 1_555
O1 C7 1_555 1_555
O2 C7 1_555 1_555
O3 K1 1_555 1_555
N1 C2 1_555 1_555
C1 C2 1_555 1_555
C2 C3 1_555 1_555
C3 C4 1_555 1_555
C4 C5 1_555 1_555
C5 C6 1_555 1_555
C6 C1 1_555 1_555
C7 C1 1_555 1_555
K1B O2A 1_555 1_555
K1B_2 O2 1_555 1_555
K1C O1C 1_555 1_555
K1C_2 O1 1_555 1_555
K1A O2 1_555 1_555
K1A_2 O2C 1_555 1_555
O1C K1 1_555 1_555
O2A K1 1_555 1_555
O2B K1 1_555 1_555
O2C K1 1_555 1_555
O3B K1 1_555 1_555
O3C K1 1_555 1_555
O2 K1C_2 1_555 1_555
O3 K1B_2 1_555 1_555
O3 K1C_2 1_555 1_555
K1B O2C 1_555 1_555
K1B_2 O3B 1_555 1_555
K1C O2B 1_555 1_555
K1C O3C 1_555 1_555
K1C_2 O2A 1_555 1_555
K1A_2 O3C 1_555 1_555

#END
