
#######################################################################
#
#                 Cambridge Crystallographic Data Centre
#                                CCDC 
#
#######################################################################
#
# If this CIF has been generated from an entry in the Cambridge 
# Structural Database, then it will include bibliographic, chemical, 
# crystal, experimental, refinement or atomic coordinate data resulting 
# from the CCDC's data processing and validation procedures.
#
#######################################################################

data_MUMQIU
_symmetry_cell_setting           monoclinic
_symmetry_space_group_name_H-M   'C c'
_symmetry_Int_Tables_number      9
_space_group_name_Hall           'C -2yc'
loop_
_symmetry_equiv_pos_site_id
_symmetry_equiv_pos_as_xyz
1 x,y,z
2 x,-y,1/2+z
3 1/2+x,1/2+y,z
4 1/2+x,1/2-y,1/2+z
_cell_length_a                   13.984(3)
_cell_length_b                   16.164(3)
_cell_length_c                   16.894(3)
_cell_angle_alpha                90.00
_cell_angle_beta                 107.457(3)
_cell_angle_gamma                90.00
_cell_volume                     3642.8
loop_
_atom_site_label
_atom_site_type_symbol
_atom_site_fract_x
_atom_site_fract_y
_atom_site_fract_z
Sn1 Sn 0.07188(3) -0.06828(3) -0.22120(3)
Sn2 Sn -0.23078(3) 0.16537(3) -0.30871(3)
O1 O 0.0432(4) 0.0226(3) -0.1365(3)
O2 O -0.0902(4) 0.0770(3) -0.2274(3)
C1 C -0.0327(5) 0.0707(4) -0.1549(5)
C2 C -0.0542(6) 0.1180(5) -0.0852(5)
C3 C 0.0423(6) 0.1424(5) -0.0154(5)
C4 C 0.0906(10) 0.0126(6) -0.3167(8)
C5 C 0.1214(15) 0.0878(13) -0.2952(11)
C6 C 0.1561(18) 0.1353(14) -0.3778(13)
C7 C 0.0714(19) 0.1423(11) -0.4443(16)
C8 C 0.1972(8) -0.1141(6) -0.1236(6)
C9 C 0.2905(9) -0.0797(8) -0.1259(9)
C10 C 0.3809(11) -0.1241(9) -0.0499(11)
C11 C 0.4764(13) -0.1011(12) -0.0623(13)
C12 C -0.0634(8) -0.1370(7) -0.2419(7)
C13 C -0.1124(12) -0.1362(10) -0.1748(10)
C14 C -0.2074(14) -0.1879(11) -0.1944(14)
C15 C -0.278(2) -0.1719(15) -0.1515(18)
C16 C -0.1237(7) 0.2646(6) -0.2772(7)
C17 C -0.130(2) 0.3220(15) -0.349(2)
C18 C -0.126(3) 0.3181(18) -0.4210(19)
C19 C -0.130(2) 0.3942(17) -0.4722(19)
C20 C -0.2252(7) 0.0858(5) -0.4083(5)
C21 C -0.2748(8) 0.0009(6) -0.4079(6)
C22 C -0.2603(9) -0.0556(7) -0.4779(7)
C23 C -0.3019(14) -0.1405(8) -0.4753(10)
C24 C -0.3074(7) 0.1265(6) -0.2254(6)
C25 C -0.4197(8) 0.1107(9) -0.2677(9)
C26 C -0.4800(12) 0.0830(13) -0.2067(11)
C27 C -0.5866(16) 0.0735(17) -0.250(2)
O3 O 0.1472(4) 0.2686(3) 0.1067(3)
C28 C 0.0090(5) 0.1740(4) 0.0586(4)
C29 C 0.1015(6) 0.2073(5) 0.1275(5)
O4 O 0.1247(5) 0.1778(3) 0.1987(3)
O3C O -0.3528(4) 0.2314(3) -0.3933(3)
O4A O 0.1247(5) -0.1778(3) -0.3013(3)
Sn2C Sn 0.26922(3) 0.33463(3) 0.19129(3)
Sn1A Sn 0.07188(3) 0.06828(3) 0.27880(3)
loop_
_geom_bond_atom_site_label_1
_geom_bond_atom_site_label_2
_geom_bond_site_symmetry_1
_geom_bond_site_symmetry_2
Sn1 O1 1_555 1_555
Sn2 O2 1_555 1_555
O1 C1 1_555 1_555
O2 C1 1_555 1_555
C1 C2 1_555 1_555
C2 C3 1_555 1_555
C3 C28 1_555 1_555
C4 Sn1 1_555 1_555
C5 C4 1_555 1_555
C6 C5 1_555 1_555
C7 C6 1_555 1_555
C8 Sn1 1_555 1_555
C9 C8 1_555 1_555
C10 C9 1_555 1_555
C11 C10 1_555 1_555
C12 Sn1 1_555 1_555
C13 C12 1_555 1_555
C14 C13 1_555 1_555
C15 C14 1_555 1_555
C16 Sn2 1_555 1_555
C17 C16 1_555 1_555
C18 C17 1_555 1_555
C19 C18 1_555 1_555
C20 Sn2 1_555 1_555
C21 C20 1_555 1_555
C22 C21 1_555 1_555
C23 C22 1_555 1_555
C24 Sn2 1_555 1_555
C25 C24 1_555 1_555
C26 C25 1_555 1_555
C27 C26 1_555 1_555
O3 C29 1_555 1_555
C28 C29 1_555 1_555
C29 O4 1_555 1_555
O4 Sn1A 1_555 1_555
O3C Sn2 1_555 1_555
O4A Sn1 1_555 1_555
Sn2C O3 1_555 1_555

#END
