
#######################################################################
#
#                 Cambridge Crystallographic Data Centre
#                                CCDC 
#
#######################################################################
#
# If this CIF has been generated from an entry in the Cambridge 
# Structural Database, then it will include bibliographic, chemical, 
# crystal, experimental, refinement or atomic coordinate data resulting 
# from the CCDC's data processing and validation procedures.
#
#######################################################################

data_MUMVIB
_symmetry_cell_setting           monoclinic
_symmetry_space_group_name_H-M   'P 21/c'
_symmetry_Int_Tables_number      14
_space_group_name_Hall           '-P 2ybc'
loop_
_symmetry_equiv_pos_site_id
_symmetry_equiv_pos_as_xyz
1 x,y,z
2 -x,1/2+y,1/2-z
3 -x,-y,-z
4 x,1/2-y,1/2+z
_cell_length_a                   9.360(5)
_cell_length_b                   20.213(5)
_cell_length_c                   11.452(5)
_cell_angle_alpha                90
_cell_angle_beta                 113.741(5)
_cell_angle_gamma                90
_cell_volume                     1983.29
loop_
_atom_site_label
_atom_site_type_symbol
_atom_site_fract_x
_atom_site_fract_y
_atom_site_fract_z
Cu1 Cu 0.26099(7) 0.90030(3) 0.14248(5)
Co1 Co 0.0000 1.0000 0.0000
N1 N 0.4892(5) 0.9100(2) 0.2441(4)
O1 O 0.0505(4) 0.89670(14) 0.0042(3)
O2 O 0.2413(4) 0.99351(14) 0.0943(3)
O3 O -0.0116(4) 0.99330(15) 0.1781(3)
O4 O 0.1643(4) 0.91860(16) 0.2943(3)
N2 N 0.2683(5) 0.8025(2) 0.1478(4)
C1 C 0.0403(6) 0.9361(2) 0.4861(4)
H1 H 0.0686 0.8928 0.4783
C2 C 0.3129(6) 1.0915(2) 0.0185(5)
H2 H 0.2085 1.1030 -0.0248
C3 C -0.0087(6) 1.0463(2) 0.4097(4)
H3 H -0.0140 1.0782 0.3496
C4 C 0.0305(5) 0.9819(2) 0.3937(4)
C5 C 0.5131(6) 1.0155(2) 0.1489(5)
C6 C -0.1265(6) 0.8629(2) -0.2019(5)
H4 H -0.1806 0.9026 -0.2137
C7 C 0.0014(6) 0.8508(2) -0.0859(5)
C8 C 0.0643(6) 0.9628(2) 0.2799(4)
C9 C 0.5446(8) 0.7896(3) 0.2895(6)
H5 H 0.6155 0.7600 0.3532
H6 H 0.5638 0.7851 0.2127
C10 C 0.5829(7) 1.1168(3) 0.0734(5)
H7 H 0.6588 1.1449 0.0683
C11 C 0.0728(6) 0.7877(2) -0.0668(5)
C12 C 0.3520(6) 1.0319(2) 0.0869(4)
C13 C 0.1904(7) 0.7669(2) 0.0507(5)
H8 H 0.2138 0.7220 0.0580
C14 C 0.5669(6) 0.9576(3) 0.2267(5)
H9 H 0.6746 0.9545 0.2710
C15 C 0.3787(7) 0.7686(3) 0.2605(5)
H10 H 0.3691 0.7212 0.2464
H11 H 0.3539 0.7786 0.3331
C16 C 0.0204(7) 0.7421(3) -0.1689(6)
H12 H 0.0674 0.7007 -0.1572
C17 C 0.6240(6) 1.0587(3) 0.1393(5)
H13 H 0.7291 1.0476 0.1789
C18 C -0.1729(7) 0.8166(3) -0.2986(5)
H14 H -0.2568 0.8257 -0.3751
C19 C -0.0953(7) 0.7563(3) -0.2826(6)
H15 H -0.1230 0.7263 -0.3496
C20 C 0.4272(6) 1.1331(2) 0.0147(5)
H16 H 0.3988 1.1732 -0.0285
C21 C 0.5802(7) 0.8594(3) 0.3372(6)
H17 H 0.5601 0.8638 0.4135
H18 H 0.6904 0.8677 0.3608
O3B O 0.0116(4) 1.00670(15) 0.8219(3)
O4B O -0.1643(4) 1.08140(16) 0.7057(3)
C1B C -0.0403(6) 1.0639(2) 0.5139(4)
H1B H -0.0686 1.1072 0.5217
C3B C 0.0087(6) 0.9537(2) 0.5903(4)
H3B H 0.0140 0.9218 0.6504
C4B C -0.0305(5) 1.0181(2) 0.6063(4)
C8B C -0.0643(6) 1.0372(2) 0.7201(4)
Cu1B Cu -0.26099(7) 1.09970(3) -0.14248(5)
N1B N -0.4892(5) 1.0900(2) -0.2441(4)
O1B O -0.0505(4) 1.10330(14) -0.0042(3)
O2B O -0.2413(4) 1.00649(14) -0.0943(3)
N2B N -0.2683(5) 1.1975(2) -0.1478(4)
C2B C -0.3129(6) 0.9085(2) -0.0185(5)
H2B H -0.2085 0.8970 0.0248
C5B C -0.5131(6) 0.9845(2) -0.1489(5)
C6B C 0.1265(6) 1.1371(2) 0.2019(5)
H4B H 0.1806 1.0974 0.2137
C7B C -0.0014(6) 1.1492(2) 0.0859(5)
C9B C -0.5446(8) 1.2104(3) -0.2895(6)
H5B H -0.6155 1.2400 -0.3532
H6B H -0.5638 1.2149 -0.2127
C10B C -0.5829(7) 0.8832(3) -0.0734(5)
H7B H -0.6588 0.8551 -0.0683
C11B C -0.0728(6) 1.2123(2) 0.0668(5)
C12B C -0.3520(6) 0.9681(2) -0.0869(4)
C13B C -0.1904(7) 1.2331(2) -0.0507(5)
H8B H -0.2138 1.2780 -0.0580
C14B C -0.5669(6) 1.0424(3) -0.2267(5)
H9B H -0.6746 1.0455 -0.2710
C15B C -0.3787(7) 1.2314(3) -0.2605(5)
H10B H -0.3691 1.2788 -0.2464
H11B H -0.3539 1.2214 -0.3331
C16B C -0.0204(7) 1.2579(3) 0.1689(6)
H12B H -0.0674 1.2993 0.1572
C17B C -0.6240(6) 0.9413(3) -0.1393(5)
H13B H -0.7291 0.9524 -0.1789
C18B C 0.1729(7) 1.1834(3) 0.2986(5)
H14B H 0.2568 1.1743 0.3751
C19B C 0.0953(7) 1.2437(3) 0.2826(6)
H15B H 0.1230 1.2737 0.3496
C20B C -0.4272(6) 0.8669(2) -0.0147(5)
H16B H -0.3988 0.8268 0.0285
C21B C -0.5802(7) 1.1406(3) -0.3372(6)
H17B H -0.5601 1.1362 -0.4135
H18B H -0.6904 1.1323 -0.3608
Cu1B_2 Cu -0.26099(7) 1.09970(3) 0.85752(5)
Co1_2 Co 0.0000 1.0000 1.0000
O3B_2 O 0.0116(4) 1.00670(15) -0.1781(3)
O4B_2 O -0.1643(4) 1.08140(16) -0.2943(3)
O5 O 0.3882(7) 0.8707(4) 0.5210(7)
H19 H 0.3128 0.8824 0.4572
C22 C 0.4624(19) 0.9219(10) 0.5813(16)
H20 H 0.4030 0.9610 0.5443
H21 H 0.5618 0.9243 0.5756
H22 H 0.4780 0.9188 0.6693
loop_
_geom_bond_atom_site_label_1
_geom_bond_atom_site_label_2
_geom_bond_site_symmetry_1
_geom_bond_site_symmetry_2
Cu1 N1 1_555 1_555
Co1 O1 1_555 1_555
N1 C14 1_555 1_555
O1 Cu1 1_555 1_555
O2 Cu1 1_555 1_555
O3 Co1 1_555 1_555
O4 Cu1 1_555 1_555
N2 Cu1 1_555 1_555
C1 H1 1_555 1_555
C2 H2 1_555 1_555
C3 H3 1_555 1_555
C4 C1 1_555 1_555
C5 C12 1_555 1_555
C6 H4 1_555 1_555
C7 O1 1_555 1_555
C8 O3 1_555 1_555
C9 H5 1_555 1_555
H6 C9 1_555 1_555
C10 H7 1_555 1_555
C11 C7 1_555 1_555
C12 O2 1_555 1_555
C13 N2 1_555 1_555
H8 C13 1_555 1_555
C14 C5 1_555 1_555
H9 C14 1_555 1_555
C15 N2 1_555 1_555
H10 C15 1_555 1_555
H11 C15 1_555 1_555
C16 C11 1_555 1_555
H12 C16 1_555 1_555
C17 C5 1_555 1_555
H13 C17 1_555 1_555
C18 C6 1_555 1_555
H14 C18 1_555 1_555
C19 C16 1_555 1_555
H15 C19 1_555 1_555
C20 C2 1_555 1_555
H16 C20 1_555 1_555
C21 N1 1_555 1_555
H17 C21 1_555 1_555
H18 C21 1_555 1_555
O5 H19 1_555 1_555
C22 O5 1_555 1_555
H20 C22 1_555 1_555
H21 C22 1_555 1_555
H22 C22 1_555 1_555
O3B C8B 1_555 1_555
O4B C8B 1_555 1_555
C1B C3 1_555 1_555
H1B C1B 1_555 1_555
C3B C1 1_555 1_555
H3B C3B 1_555 1_555
C4B C1B 1_555 1_555
C8B C4B 1_555 1_555
Cu1B N1B 1_555 1_555
N1B C14B 1_555 1_555
O1B Co1 1_555 1_555
O2B Co1 1_555 1_555
N2B Cu1B 1_555 1_555
C2B H2B 1_555 1_555
C5B C12B 1_555 1_555
C6B H4B 1_555 1_555
C7B O1B 1_555 1_555
C9B H5B 1_555 1_555
H6B C9B 1_555 1_555
C10B H7B 1_555 1_555
C11B C7B 1_555 1_555
C12B O2B 1_555 1_555
C13B N2B 1_555 1_555
H8B C13B 1_555 1_555
C14B C5B 1_555 1_555
H9B C14B 1_555 1_555
C15B N2B 1_555 1_555
H10B C15B 1_555 1_555
H11B C15B 1_555 1_555
C16B C11B 1_555 1_555
H12B C16B 1_555 1_555
C17B C5B 1_555 1_555
H13B C17B 1_555 1_555
C18B C6B 1_555 1_555
H14B C18B 1_555 1_555
C19B C16B 1_555 1_555
H15B C19B 1_555 1_555
C20B C2B 1_555 1_555
H16B C20B 1_555 1_555
C21B N1B 1_555 1_555
H17B C21B 1_555 1_555
H18B C21B 1_555 1_555
Cu1B_2 O4B 1_555 1_555
Co1_2 O3B 1_555 1_555
O3B_2 Co1 1_555 1_555
O4B_2 Cu1B 1_555 1_555
Co1 O2 1_555 1_555
O4 C8 1_555 1_555
C2 C12 1_555 1_555
C3 C4 1_555 1_555
C4 C8 1_555 1_555
C6 C7 1_555 1_555
C9 C15 1_555 1_555
C9 C21 1_555 1_555
C10 C17 1_555 1_555
C10 C20 1_555 1_555
C11 C13 1_555 1_555
C18 C19 1_555 1_555
C3B C4B 1_555 1_555
Cu1B O1B 1_555 1_555
Cu1B O2B 1_555 1_555
C2B C12B 1_555 1_555
C6B C7B 1_555 1_555
C9B C15B 1_555 1_555
C9B C21B 1_555 1_555
C10B C17B 1_555 1_555
C10B C20B 1_555 1_555
C11B C13B 1_555 1_555
C18B C19B 1_555 1_555

#END
