
#######################################################################
#
#                 Cambridge Crystallographic Data Centre
#                                CCDC 
#
#######################################################################
#
# If this CIF has been generated from an entry in the Cambridge 
# Structural Database, then it will include bibliographic, chemical, 
# crystal, experimental, refinement or atomic coordinate data resulting 
# from the CCDC's data processing and validation procedures.
#
#######################################################################

data_MUMVEX
_symmetry_cell_setting           monoclinic
_symmetry_space_group_name_H-M   'P 21/n'
_symmetry_Int_Tables_number      14
_space_group_name_Hall           '-P 2yn'
loop_
_symmetry_equiv_pos_site_id
_symmetry_equiv_pos_as_xyz
1 x,y,z
2 1/2-x,1/2+y,1/2-z
3 -x,-y,-z
4 1/2+x,1/2-y,1/2+z
_cell_length_a                   10.387(5)
_cell_length_b                   18.200(5)
_cell_length_c                   21.465(5)
_cell_angle_alpha                90
_cell_angle_beta                 96.833(5)
_cell_angle_gamma                90
_cell_volume                     4028.99
loop_
_atom_site_label
_atom_site_type_symbol
_atom_site_fract_x
_atom_site_fract_y
_atom_site_fract_z
Cu1 Cu 0.79772(10) -0.10095(6) 0.92594(5)
N1 N 0.6064(7) -0.1089(4) 0.9227(3)
N2 N 0.8175(8) -0.1801(5) 0.8636(4)
O1 O 0.8041(6) -0.0364(3) 0.9993(3)
O2 O 0.9851(6) -0.0997(4) 0.9488(3)
O3 O 0.8004(7) -0.0116(4) 0.8573(3)
C1 C 0.5447(10) -0.0931(6) 0.9684(5)
C2 C 0.5293(10) -0.1324(6) 0.8636(5)
C3 C 0.7045(11) -0.1950(8) 0.8142(6)
C4 C 0.9206(12) -0.2170(6) 0.8610(5)
C5 C 0.7248(8) -0.0385(5) 1.0430(4)
Co1 Co 1.0000 0.0000 1.0000
C6 C 1.0701(8) -0.1542(5) 0.9433(4)
C7 C 0.8917(9) 0.0353(5) 0.8648(4)
C8 C 0.5973(9) -0.0685(5) 1.0298(4)
H1 H 0.4551 -0.0980 0.9614
H2 H 0.4400 -0.1401 0.8712
H3 H 0.5302 -0.0937 0.8326
C9 C 0.5796(12) -0.1994(8) 0.8394(7)
H4 H 0.7001 -0.1563 0.7830
H5 H 0.7197 -0.2409 0.7934
H6 H 0.9176 -0.2516 0.8289
C10 C 1.0390(10) -0.2122(5) 0.9003(4)
C11 C 0.7620(9) -0.0134(5) 1.1037(4)
O4 O 0.9496(6) 0.0557(3) 0.9172(3)
C12 C 1.1898(8) -0.1547(5) 0.9797(4)
C13 C 0.9382(8) 0.0658(4) 0.8071(4)
C14 C 0.5172(9) -0.0700(5) 1.0772(5)
H7 H 0.5158 -0.2178 0.8065
H8 H 0.5876 -0.2355 0.8729
C15 C 1.1347(11) -0.2662(6) 0.8940(5)
H9 H 0.8431 0.0081 1.1134
C16 C 0.6806(11) -0.0200(6) 1.1500(5)
C17 C 1.2767(10) -0.2108(6) 0.9725(5)
H10 H 1.2115 -0.1176 1.0088
C18 C 0.9070(8) 0.0341(5) 0.7498(4)
C19 C 1.0257(8) 0.1255(5) 0.8117(4)
C20 C 0.5542(11) -0.0488(6) 1.1362(5)
H11 H 0.4327 -0.0868 1.0672
H12 H 1.1170 -0.3031 0.8643
C21 C 1.2481(10) -0.2657(5) 0.9290(6)
H13 H 0.7096 -0.0052 1.1908
H14 H 1.3560 -0.2115 0.9977
H15 H 0.8476 -0.0043 0.7462
C22 C 0.9605(8) 0.0567(4) 0.6967(4)
C23 C 1.0756(10) 0.1505(5) 0.7584(4)
H16 H 1.0497 0.1479 0.8503
H17 H 0.4987 -0.0528 1.1670
H18 H 1.3086 -0.3023 0.9242
C24 C 1.0453(9) 0.1167(5) 0.7021(4)
C25 C 0.9337(9) 0.0160(5) 0.6364(4)
H19 H 1.1306 0.1910 0.7612
H20 H 1.0811 0.1335 0.6670
O5 O 0.9796(6) 0.0394(3) 0.5892(3)
O6 O 0.8687(8) -0.0430(4) 0.6381(3)
Co2 Co 1.0000 0.0000 0.5000
Cu2 Cu 0.83907(10) -0.11653(6) 0.55735(5)
O7 O 0.9869(6) 0.1097(3) 1.4656(3)
O8 O 0.8098(5) -0.0391(3) 1.4930(3)
N3 N 1.1104(8) 0.2027(5) 1.3874(4)
N4 N 1.3480(8) 0.1247(4) 1.4387(4)
C26 C 0.8981(8) 0.1616(5) 1.4650(4)
C27 C 0.7102(9) -0.0350(5) 1.4496(4)
C28 C 0.9948(10) 0.2345(5) 1.3846(4)
C29 C 1.1932(11) 0.2249(7) 1.3400(6)
C30 C 1.3945(11) 0.1564(6) 1.3828(5)
C31 C 1.4344(10) 0.0989(5) 1.4811(5)
C32 C 0.7997(9) 0.1570(5) 1.5045(4)
C33 C 0.8976(9) 0.2224(5) 1.4239(4)
C34 C 0.7149(9) -0.0009(6) 1.3920(4)
C35 C 0.5855(8) -0.0655(5) 1.4607(5)
H21 H 0.9757 0.2691 1.3529
C36 C 1.3318(10) 0.2279(6) 1.3645(5)
H22 H 1.1659 0.2730 1.3239
H23 H 1.1816 0.1904 1.3053
H24 H 1.4876 0.1634 1.3907
H25 H 1.3775 0.1221 1.3481
H26 H 1.5200 0.1026 1.4728
C37 C 0.7040(9) 0.2104(5) 1.5013(5)
H27 H 0.7988 0.1183 1.5327
C38 C 0.7948(8) 0.2728(5) 1.4203(5)
C39 C 0.6114(12) 0.0025(7) 1.3465(5)
H28 H 0.7925 0.0207 1.3840
C40 C 0.4788(9) -0.0572(6) 1.4138(5)
H29 H 1.3415 0.2599 1.4010
H30 H 1.3784 0.2504 1.3329
C41 C 0.6973(9) 0.2677(5) 1.4596(5)
H31 H 0.6414 0.2071 1.5287
H32 H 0.7916 0.3107 1.3911
C42 C 0.4909(11) -0.0267(7) 1.3579(5)
H33 H 0.6204 0.0241 1.3080
H34 H 0.3975 -0.0733 1.4219
H35 H 0.6303 0.3018 1.4576
H36 H 0.4203 -0.0250 1.3269
O1B O 1.1959(6) 0.0364(3) 1.0007(3)
O2B O 1.0149(6) 0.0997(4) 1.0512(3)
O4B O 1.0504(6) -0.0557(3) 1.0828(3)
C5B C 1.2752(8) 0.0385(5) 0.9570(4)
Cu1B Cu 1.20228(10) 0.10095(6) 1.07406(5)
C6B C 0.9299(8) 0.1542(5) 1.0567(4)
C7B C 1.1083(9) -0.0353(5) 1.1352(4)
C8B C 1.4027(9) 0.0685(5) 0.9702(4)
C11B C 1.2380(9) 0.0134(5) 0.8963(4)
N1B N 1.3936(7) 0.1089(4) 1.0773(3)
N2B N 1.1825(8) 0.1801(5) 1.1364(4)
O3B O 1.1996(7) 0.0116(4) 1.1427(3)
C12B C 0.8102(8) 0.1547(5) 1.0203(4)
C10B C 0.9610(10) 0.2122(5) 1.0997(4)
C13B C 1.0618(8) -0.0658(4) 1.1929(4)
C1B C 1.4553(10) 0.0931(6) 1.0316(5)
C14B C 1.4828(9) 0.0700(5) 0.9228(5)
H9B H 1.1569 -0.0081 0.8866
C16B C 1.3194(11) 0.0200(6) 0.8500(5)
C2B C 1.4707(10) 0.1324(6) 1.1364(5)
C3B C 1.2955(11) 0.1950(8) 1.1858(6)
C4B C 1.0794(12) 0.2170(6) 1.1390(5)
C17B C 0.7233(10) 0.2108(6) 1.0275(5)
H10B H 0.7885 0.1176 0.9912
C15B C 0.8653(11) 0.2662(6) 1.1060(5)
C19B C 0.9743(8) -0.1255(5) 1.1883(4)
C18B C 1.0930(8) -0.0341(5) 1.2502(4)
H1B H 1.5449 0.0980 1.0386
C20B C 1.4458(11) 0.0488(6) 0.8638(5)
H11B H 1.5673 0.0868 0.9328
H13B H 1.2904 0.0052 0.8092
H2B H 1.5600 0.1401 1.1288
C9B C 1.4204(12) 0.1994(8) 1.1606(7)
H3B H 1.4698 0.0937 1.1674
H5B H 1.2803 0.2409 1.2066
H4B H 1.2999 0.1563 1.2170
H6B H 1.0824 0.2516 1.1711
C21B C 0.7519(10) 0.2657(5) 1.0710(6)
H14B H 0.6440 0.2115 1.0023
H12B H 0.8830 0.3031 1.1357
H16B H 0.9503 -0.1479 1.1497
C23B C 0.9244(10) -0.1505(5) 1.2416(4)
C22B C 1.0395(8) -0.0567(4) 1.3033(4)
H15B H 1.1524 0.0043 1.2538
H17B H 1.5013 0.0528 0.8330
H7B H 1.4842 0.2178 1.1935
H8B H 1.4124 0.2355 1.1271
H18B H 0.6914 0.3023 1.0758
C24B C 0.9547(9) -0.1167(5) 1.2979(4)
H19B H 0.8694 -0.1910 1.2388
C25B C 1.0663(9) -0.0160(5) 1.3636(4)
H20B H 0.9189 -0.1335 1.3330
O5B O 1.0204(6) -0.0394(3) 1.4108(3)
O6B O 1.1313(8) 0.0430(4) 1.3619(3)
Co2_2 Co 1.0000 0.0000 1.5000
Cu2B Cu 1.16093(10) 0.11653(6) 1.44265(5)
O7B O 1.0131(6) -0.1097(3) 1.5344(3)
O5_2 O 0.9796(6) 0.0394(3) 1.5892(3)
O8B O 1.1902(5) 0.0391(3) 1.5070(3)
C26B C 1.1019(8) -0.1616(5) 1.5350(4)
Cu2_2 Cu 0.83907(10) -0.11653(6) 1.55735(5)
C27B C 1.2898(9) 0.0350(5) 1.5504(4)
C32B C 1.2003(9) -0.1570(5) 1.4955(4)
C33B C 1.1024(9) -0.2224(5) 1.5761(4)
N3B N 0.8896(8) -0.2027(5) 1.6126(4)
N4B N 0.6520(8) -0.1247(4) 1.5613(4)
O6_2 O 0.8687(8) -0.0430(4) 1.6381(3)
C35B C 1.4145(8) 0.0655(5) 1.5393(5)
C34B C 1.2851(9) 0.0009(6) 1.6080(4)
C37B C 1.2960(9) -0.2104(5) 1.4987(5)
H27B H 1.2012 -0.1183 1.4673
C28B C 1.0052(10) -0.2345(5) 1.6154(4)
C38B C 1.2052(8) -0.2728(5) 1.5797(5)
C29B C 0.8068(11) -0.2249(7) 1.6600(6)
C31B C 0.5656(10) -0.0989(5) 1.5189(5)
C30B C 0.6055(11) -0.1564(6) 1.6172(5)
C40B C 1.5212(9) 0.0572(6) 1.5862(5)
C39B C 1.3886(12) -0.0025(7) 1.6535(5)
H28B H 1.2075 -0.0207 1.6160
C41B C 1.3027(9) -0.2677(5) 1.5404(5)
H31B H 1.3586 -0.2071 1.4713
H21B H 1.0243 -0.2691 1.6471
H32B H 1.2084 -0.3107 1.6089
C36B C 0.6682(10) -0.2279(6) 1.6355(5)
H23B H 0.8184 -0.1904 1.6947
H22B H 0.8341 -0.2730 1.6761
H26B H 0.4800 -0.1026 1.5272
H25B H 0.6225 -0.1221 1.6519
H24B H 0.5124 -0.1634 1.6093
C42B C 1.5091(11) 0.0267(7) 1.6421(5)
H34B H 1.6025 0.0733 1.5781
H33B H 1.3796 -0.0241 1.6920
H35B H 1.3697 -0.3018 1.5424
H30B H 0.6216 -0.2504 1.6671
H29B H 0.6585 -0.2599 1.5990
H36B H 1.5797 0.0250 1.6731
C43 C 1.190(3) -0.155(3) 0.7485(19)
H37 H 1.2133 -0.1628 0.7071
H38 H 1.2058 -0.1983 0.7732
H39 H 1.2405 -0.1149 0.7680
O9 O 1.056(3) -0.1364(15) 0.7443(13)
H40 H 1.0208 -0.1630 0.7679
loop_
_geom_bond_atom_site_label_1
_geom_bond_atom_site_label_2
_geom_bond_site_symmetry_1
_geom_bond_site_symmetry_2
Cu1 N1 1_555 1_555
N1 C1 1_555 1_555
N2 Cu1 1_555 1_555
O1 Cu1 1_555 1_555
O2 Cu1 1_555 1_555
O3 Cu1 1_555 1_555
C1 C8 1_555 1_555
C2 N1 1_555 1_555
C3 N2 1_555 1_555
C4 N2 1_555 1_555
C5 O1 1_555 1_555
Co1 O1 1_555 1_555
C6 O2 1_555 1_555
C7 O3 1_555 1_555
C8 C5 1_555 1_555
H1 C1 1_555 1_555
H2 C2 1_555 1_555
H3 C2 1_555 1_555
C9 C2 1_555 1_555
H4 C3 1_555 1_555
H5 C3 1_555 1_555
H6 C4 1_555 1_555
C10 C4 1_555 1_555
C11 C5 1_555 1_555
O4 Co1 1_555 1_555
C12 C6 1_555 1_555
C13 C7 1_555 1_555
C14 C8 1_555 1_555
H7 C9 1_555 1_555
H8 C9 1_555 1_555
C15 C10 1_555 1_555
H9 C11 1_555 1_555
C16 C11 1_555 1_555
C17 C12 1_555 1_555
H10 C12 1_555 1_555
C18 C13 1_555 1_555
C19 C13 1_555 1_555
C20 C14 1_555 1_555
H11 C14 1_555 1_555
H12 C15 1_555 1_555
C21 C15 1_555 1_555
H13 C16 1_555 1_555
H14 C17 1_555 1_555
H15 C18 1_555 1_555
C22 C18 1_555 1_555
C23 C19 1_555 1_555
H16 C19 1_555 1_555
H17 C20 1_555 1_555
H18 C21 1_555 1_555
C24 C22 1_555 1_555
C25 C22 1_555 1_555
H19 C23 1_555 1_555
H20 C24 1_555 1_555
O5 C25 1_555 1_555
O6 C25 1_555 1_555
Co2 O5 1_555 1_555
Cu2 O6 1_555 1_555
O7 C26 1_555 1_555
O8 C27 1_555 1_555
N3 C28 1_555 1_555
N4 C30 1_555 1_555
C26 C32 1_555 1_555
C27 C34 1_555 1_555
C28 C33 1_555 1_555
C29 N3 1_555 1_555
C30 C36 1_555 1_555
C31 N4 1_555 1_555
C32 C37 1_555 1_555
C33 C26 1_555 1_555
C34 C39 1_555 1_555
C35 C27 1_555 1_555
H21 C28 1_555 1_555
C36 C29 1_555 1_555
H22 C29 1_555 1_555
H23 C29 1_555 1_555
H24 C30 1_555 1_555
H25 C30 1_555 1_555
H26 C31 1_555 1_555
C37 C41 1_555 1_555
H27 C32 1_555 1_555
C38 C33 1_555 1_555
C39 C42 1_555 1_555
H28 C34 1_555 1_555
C40 C35 1_555 1_555
H29 C36 1_555 1_555
H30 C36 1_555 1_555
C41 C38 1_555 1_555
H31 C37 1_555 1_555
H32 C38 1_555 1_555
C42 C40 1_555 1_555
H33 C39 1_555 1_555
H34 C40 1_555 1_555
H35 C41 1_555 1_555
H36 C42 1_555 1_555
C43 H37 1_555 1_555
H38 C43 1_555 1_555
H39 C43 1_555 1_555
O9 C43 1_555 1_555
H40 O9 1_555 1_555
O1B Co1 1_555 1_555
O2B Co1 1_555 1_555
O4B Co1 1_555 1_555
C5B O1B 1_555 1_555
Cu1B O1B 1_555 1_555
C6B O2B 1_555 1_555
C7B O4B 1_555 1_555
C8B C5B 1_555 1_555
C11B C5B 1_555 1_555
N1B Cu1B 1_555 1_555
N2B Cu1B 1_555 1_555
O3B Cu1B 1_555 1_555
C12B C6B 1_555 1_555
C10B C6B 1_555 1_555
C13B C7B 1_555 1_555
C1B C8B 1_555 1_555
C14B C8B 1_555 1_555
H9B C11B 1_555 1_555
C16B C11B 1_555 1_555
C2B N1B 1_555 1_555
C3B N2B 1_555 1_555
C4B N2B 1_555 1_555
C17B C12B 1_555 1_555
H10B C12B 1_555 1_555
C15B C10B 1_555 1_555
C19B C13B 1_555 1_555
C18B C13B 1_555 1_555
H1B C1B 1_555 1_555
C20B C14B 1_555 1_555
H11B C14B 1_555 1_555
H13B C16B 1_555 1_555
H2B C2B 1_555 1_555
C9B C2B 1_555 1_555
H3B C2B 1_555 1_555
H5B C3B 1_555 1_555
H4B C3B 1_555 1_555
H6B C4B 1_555 1_555
C21B C17B 1_555 1_555
H14B C17B 1_555 1_555
H12B C15B 1_555 1_555
H16B C19B 1_555 1_555
C23B C19B 1_555 1_555
C22B C18B 1_555 1_555
H15B C18B 1_555 1_555
H17B C20B 1_555 1_555
H7B C9B 1_555 1_555
H8B C9B 1_555 1_555
H18B C21B 1_555 1_555
C24B C23B 1_555 1_555
H19B C23B 1_555 1_555
C25B C22B 1_555 1_555
H20B C24B 1_555 1_555
O5B C25B 1_555 1_555
O6B C25B 1_555 1_555
Co2_2 O7 1_555 1_555
Cu2B O7 1_555 1_555
O7B Co2_2 1_555 1_555
O5_2 Co2_2 1_555 1_555
O8B Co2_2 1_555 1_555
C26B O7B 1_555 1_555
Cu2_2 O8 1_555 1_555
C27B O8B 1_555 1_555
C32B C26B 1_555 1_555
C33B C26B 1_555 1_555
N3B Cu2_2 1_555 1_555
N4B Cu2_2 1_555 1_555
O6_2 Cu2_2 1_555 1_555
C35B C31 1_555 1_555
C34B C27B 1_555 1_555
C37B C32B 1_555 1_555
H27B C32B 1_555 1_555
C28B C33B 1_555 1_555
C38B C33B 1_555 1_555
C29B N3B 1_555 1_555
C31B C35 1_555 1_555
C30B N4B 1_555 1_555
C40B C35B 1_555 1_555
C39B C34B 1_555 1_555
H28B C34B 1_555 1_555
C41B C37B 1_555 1_555
H31B C37B 1_555 1_555
H21B C28B 1_555 1_555
H32B C38B 1_555 1_555
C36B C29B 1_555 1_555
H23B C29B 1_555 1_555
H22B C29B 1_555 1_555
H26B C31B 1_555 1_555
H25B C30B 1_555 1_555
H24B C30B 1_555 1_555
C42B C40B 1_555 1_555
H34B C40B 1_555 1_555
H33B C39B 1_555 1_555
H35B C41B 1_555 1_555
H30B C36B 1_555 1_555
H29B C36B 1_555 1_555
H36B C42B 1_555 1_555
O2 Co1 1_555 1_555
C3 C9 1_555 1_555
C6 C10 1_555 1_555
C7 O4 1_555 1_555
C16 C20 1_555 1_555
C17 C21 1_555 1_555
C23 C24 1_555 1_555
O8 Co2_2 1_555 1_555
N3 Cu2B 1_555 1_555
N4 Cu2B 1_555 1_555
O2B Cu1B 1_555 1_555
C7B O3B 1_555 1_555
N1B C1B 1_555 1_555
C10B C4B 1_555 1_555
C16B C20B 1_555 1_555
C3B C9B 1_555 1_555
C15B C21B 1_555 1_555
C22B C24B 1_555 1_555
O5B Co2_2 1_555 1_555
O6B Cu2B 1_555 1_555
Cu2B O8B 1_555 1_555
O7B Cu2_2 1_555 1_555
C27B C35B 1_555 1_555
N3B C28B 1_555 1_555
N4B C31B 1_555 1_555
C38B C41B 1_555 1_555
C30B C36B 1_555 1_555
C39B C42B 1_555 1_555

#END
