
#######################################################################
#
#                 Cambridge Crystallographic Data Centre
#                                CCDC 
#
#######################################################################
#
# If this CIF has been generated from an entry in the Cambridge 
# Structural Database, then it will include bibliographic, chemical, 
# crystal, experimental, refinement or atomic coordinate data resulting 
# from the CCDC's data processing and validation procedures.
#
#######################################################################

data_MUMZOL
_symmetry_cell_setting           monoclinic
_symmetry_space_group_name_H-M   'I 2/c'
_symmetry_Int_Tables_number      15
_space_group_name_Hall           '-I 2yc'
loop_
_symmetry_equiv_pos_site_id
_symmetry_equiv_pos_as_xyz
1 x,y,z
2 -x,y,1/2-z
3 1/2+x,1/2+y,1/2+z
4 1/2-x,1/2+y,-z
5 -x,-y,-z
6 x,-y,1/2+z
7 1/2-x,1/2-y,1/2-z
8 1/2+x,1/2-y,z
_cell_length_a                   17.405(3)
_cell_length_b                   22.058(3)
_cell_length_c                   23.7777(18)
_cell_angle_alpha                90
_cell_angle_beta                 109.126(15)
_cell_angle_gamma                90
_cell_volume                     8624.82
loop_
_atom_site_label
_atom_site_type_symbol
_atom_site_fract_x
_atom_site_fract_y
_atom_site_fract_z
C12 C -0.0654(6) 0.3865(5) 0.6324(4)
C13 C -0.1922(6) 0.4391(5) 0.5764(4)
H13 H -0.2437 0.4196 0.5560
H14 H -0.1632 0.4435 0.5481
C14 C -0.1824(6) 0.5501(5) 0.5744(4)
C15 C -0.2128(6) 0.6601(5) 0.5729(4)
H15 H -0.2661 0.6789 0.5595
H16 H -0.1924 0.6597 0.5395
C16 C -0.0783(7) 0.7066(5) 0.6284(4)
C17 C 0.0330(6) 0.7735(5) 0.6881(4)
H17 H 0.0500 0.7693 0.6533
H18 H 0.0266 0.8164 0.6942
C18 C -0.1077(7) 0.7664(5) 0.7003(4)
H19 H -0.1157 0.8102 0.6944
C19 C -0.1848(6) 0.7306(4) 0.6643(4)
H20 H -0.2304 0.7577 0.6449
C20 C -0.2818(6) 0.5805(4) 0.6151(4)
H21 H -0.3359 0.5942 0.5904
C21 C -0.2761(6) 0.5104(4) 0.6162(4)
H22 H -0.3263 0.4918 0.5901
C22 C -0.1802(6) 0.3627(4) 0.6601(4)
H23 H -0.2256 0.3379 0.6357
C23 C -0.1071(6) 0.3236(4) 0.6972(4)
H24 H -0.1186 0.2802 0.6907
C24 C -0.0365(6) 0.3132(5) 0.8093(5)
H25 H -0.0562 0.3152 0.8430
H26 H -0.0305 0.2707 0.8009
C25 C -0.1539(6) 0.3807(4) 0.7616(5)
C26 C -0.2728(6) 0.4339(4) 0.6957(4)
H27 H -0.3178 0.4153 0.6649
H28 H -0.2870 0.4355 0.7318
C27 C -0.2588(6) 0.5455(4) 0.7123(4)
C28 C -0.2737(6) 0.6559(4) 0.6981(5)
H29 H -0.2871 0.6527 0.7345
H30 H -0.3186 0.6762 0.6688
C29 C -0.1537(6) 0.7077(5) 0.7655(5)
N2 N -0.0425(5) 0.3425(4) 0.6749(4)
N3 N -0.1455(5) 0.4001(4) 0.6243(4)
N4 N -0.2082(5) 0.4991(4) 0.5951(3)
N5 N -0.2209(5) 0.5989(4) 0.5902(3)
N6 N -0.1583(5) 0.6969(4) 0.6207(4)
N7 N -0.0449(5) 0.7439(4) 0.6765(3)
N8 N -0.0961(5) 0.7495(4) 0.7606(3)
N9 N -0.2014(5) 0.6926(4) 0.7095(3)
N10 N -0.2661(5) 0.5957(4) 0.6770(3)
N11 N -0.2617(4) 0.4950(3) 0.6777(3)
N12 N -0.2008(5) 0.3963(4) 0.7061(4)
N13 N -0.0966(5) 0.3408(3) 0.7577(3)
O14 O -0.0242(4) 0.4091(3) 0.6059(3)
O15 O -0.1355(5) 0.5525(4) 0.5461(3)
O16 O -0.0413(4) 0.6860(3) 0.5973(3)
O17 O -0.1607(4) 0.6886(3) 0.8116(3)
O18 O -0.2539(4) 0.5451(3) 0.7647(3)
O19 O -0.1614(4) 0.3999(3) 0.8076(3)
C12A C 0.0654(6) 0.3865(5) 0.8676(4)
C13A C 0.1922(6) 0.4391(5) 0.9236(4)
H13A H 0.2437 0.4196 0.9440
H14A H 0.1632 0.4435 0.9519
C14A C 0.1824(6) 0.5501(5) 0.9256(4)
C15A C 0.2128(6) 0.6601(5) 0.9271(4)
H15A H 0.2661 0.6789 0.9405
H16A H 0.1924 0.6597 0.9605
C16A C 0.0783(7) 0.7066(5) 0.8716(4)
C17A C -0.0330(6) 0.7735(5) 0.8119(4)
H17A H -0.0500 0.7693 0.8467
H18A H -0.0266 0.8164 0.8058
C18A C 0.1077(7) 0.7664(5) 0.7997(4)
H19A H 0.1157 0.8102 0.8056
C19A C 0.1848(6) 0.7306(4) 0.8357(4)
H20A H 0.2304 0.7577 0.8551
C20A C 0.2818(6) 0.5805(4) 0.8849(4)
H21A H 0.3359 0.5942 0.9096
C21A C 0.2761(6) 0.5104(4) 0.8838(4)
H22A H 0.3263 0.4918 0.9099
C22A C 0.1802(6) 0.3627(4) 0.8399(4)
H23A H 0.2256 0.3379 0.8643
C23A C 0.1071(6) 0.3236(4) 0.8028(4)
H24A H 0.1186 0.2802 0.8093
C24A C 0.0365(6) 0.3132(5) 0.6907(5)
H25A H 0.0562 0.3152 0.6570
H26A H 0.0305 0.2707 0.6991
C25A C 0.1539(6) 0.3807(4) 0.7384(5)
C26A C 0.2728(6) 0.4339(4) 0.8043(4)
H27A H 0.3178 0.4153 0.8351
H28A H 0.2870 0.4355 0.7682
C27A C 0.2588(6) 0.5455(4) 0.7877(4)
C28A C 0.2737(6) 0.6559(4) 0.8019(5)
H29A H 0.2871 0.6527 0.7655
H30A H 0.3186 0.6762 0.8312
C29A C 0.1537(6) 0.7077(5) 0.7345(5)
N2A N 0.0425(5) 0.3425(4) 0.8251(4)
N3A N 0.1455(5) 0.4001(4) 0.8757(4)
N4A N 0.2082(5) 0.4991(4) 0.9049(3)
N5A N 0.2209(5) 0.5989(4) 0.9098(3)
N6A N 0.1583(5) 0.6969(4) 0.8793(4)
N7A N 0.0449(5) 0.7439(4) 0.8235(3)
N8A N 0.0961(5) 0.7495(4) 0.7394(3)
N9A N 0.2014(5) 0.6926(4) 0.7905(3)
N10A N 0.2661(5) 0.5957(4) 0.8230(3)
N11A N 0.2617(4) 0.4950(3) 0.8223(3)
N12A N 0.2008(5) 0.3963(4) 0.7939(4)
N13A N 0.0966(5) 0.3408(3) 0.7423(3)
O14A O 0.0242(4) 0.4091(3) 0.8941(3)
O15A O 0.1355(5) 0.5525(4) 0.9539(3)
O16A O 0.0413(4) 0.6860(3) 0.9027(3)
O17A O 0.1607(4) 0.6886(3) 0.6884(3)
O18A O 0.2539(4) 0.5451(3) 0.7353(3)
O19A O 0.1614(4) 0.3999(3) 0.6924(3)
O20 O -0.4136(9) 0.5798(6) 0.7716(7)
H31 H -0.4319 0.5641 0.7913
H32 H -0.3826 0.5769 0.7506
O21 O -0.3078(9) 0.1952(8) 0.6045(6)
H33 H -0.2597 0.2092 0.6334
H34 H -0.3165 0.2225 0.5726
O22 O -0.3844(15) 0.3353(10) 0.7383(10)
H35 H -0.3349 0.3309 0.7669
H36 H -0.4292 0.3240 0.7239
O23 O -0.2851(13) 0.2655(9) 0.7027(8)
H37 H -0.3140 0.2930 0.7044
H38 H -0.3198 0.2543 0.6674
O24 O -0.2525(17) 0.5586(16) 0.3749(12)
H39 H -0.2870 0.5565 0.3932
H40 H -0.2805 0.5898 0.3603
U1 U -0.45631(2) 0.506891(17) 0.438736(16)
O1 O -0.4063(5) 0.4162(4) 0.4052(4)
O2 O -0.5517(4) 0.4995(4) 0.3824(4)
O3 O -0.4037(6) 0.5282(4) 0.3536(4)
O4 O -0.3564(4) 0.5142(3) 0.4885(3)
O5 O -0.4881(4) 0.4385(3) 0.4995(3)
O6 O -0.5510(6) 0.3848(3) 0.5754(4)
U2 U -0.47601(2) 0.338484(17) 0.514363(17)
O7 O -0.4029(9) 0.3293(4) 0.4481(6)
O8 O -0.5283(6) 0.2799(3) 0.5827(4)
O9 O -0.3829(5) 0.3505(4) 0.5720(4)
O10 O -0.5666(4) 0.3219(3) 0.4561(3)
O11 O -0.4369(5) 0.2310(3) 0.5137(3)
S1 S -0.5736(4) 0.32730(16) 0.6035(2)
O12 O -0.6660(8) 0.3201(7) 0.5785(7)
O13 O -0.5552(10) 0.3311(5) 0.6608(6)
C1 C -0.3668(9) 0.3699(6) 0.4308(5)
C2 C -0.2782(5) 0.3672(5) 0.4399(4)
C3 C -0.2275(7) 0.3206(4) 0.4699(4)
C4 C -0.2454(6) 0.4184(4) 0.4223(3)
H1 H -0.2495 0.2864 0.4816
C5 C -0.1439(6) 0.3252(4) 0.4823(4)
C6 C -0.1618(7) 0.4230(4) 0.4347(4)
H2 H -0.2793 0.4495 0.4022
H3 H -0.1100 0.2940 0.5024
C7 C -0.1111(5) 0.3764(5) 0.4647(4)
C8 C -0.1184(11) 0.4850(8) 0.4248(6)
H4 H -0.0552 0.3794 0.4730
H5 H -0.0663 0.4884 0.4552
H6 H -0.1511 0.5187 0.4288
N1 N -0.1068(9) 0.4886(6) 0.3646(5)
C9 C -0.0541(8) 0.4468(8) 0.3584(5)
H7 H -0.1319 0.5183 0.3394
H8 H -0.0094 0.4614 0.3889
C10 C -0.0455(9) 0.4539(10) 0.2971(5)
H9 H -0.0989 0.4623 0.2700
H10 H -0.0304 0.4147 0.2866
C11 C 0.0105(18) 0.4990(12) 0.2833(13)
H11 H 0.0021 0.5386 0.2970
H12 H 0.0663 0.4876 0.3025
O1A O 0.4063(5) 0.4162(4) 0.0948(4)
O7A O 0.4029(9) 0.3293(4) 0.0519(6)
C1A C 0.3668(9) 0.3699(6) 0.0692(5)
C2A C 0.2782(5) 0.3672(5) 0.0601(4)
C3A C 0.2275(7) 0.3206(4) 0.0301(4)
C4A C 0.2454(6) 0.4184(4) 0.0777(3)
H1A H 0.2495 0.2864 0.0184
C5A C 0.1439(6) 0.3252(4) 0.0177(4)
C6A C 0.1618(7) 0.4230(4) 0.0653(4)
H2A H 0.2793 0.4495 0.0978
H3A H 0.1100 0.2940 -0.0024
C7A C 0.1111(5) 0.3764(5) 0.0353(4)
C8A C 0.1184(11) 0.4850(8) 0.0752(6)
H4A H 0.0552 0.3794 0.0270
H5A H 0.0663 0.4884 0.0448
H6A H 0.1511 0.5187 0.0712
N1A N 0.1068(9) 0.4886(6) 0.1354(5)
C9A C 0.0541(8) 0.4468(8) 0.1416(5)
H7A H 0.1319 0.5183 0.1606
H8A H 0.0094 0.4614 0.1111
C10A C 0.0455(9) 0.4539(10) 0.2029(5)
H9A H 0.0989 0.4623 0.2300
H10A H 0.0304 0.4147 0.2134
C11A C -0.0105(18) 0.4990(12) 0.2167(13)
H11A H -0.0021 0.5386 0.2030
H12A H -0.0663 0.4876 0.1975
U1A U 0.45631(2) 0.506891(17) 0.061264(16)
O2A O 0.5517(4) 0.4995(4) 0.1176(4)
O3A O 0.4037(6) 0.5282(4) 0.1464(4)
O4A O 0.3564(4) 0.5142(3) 0.0115(3)
O5A O 0.4881(4) 0.4385(3) 0.0005(3)
O6A O 0.5510(6) 0.3848(3) -0.0754(4)
U2A U 0.47601(2) 0.338484(17) -0.014363(17)
O8A O 0.5283(6) 0.2799(3) -0.0827(4)
O9A O 0.3829(5) 0.3505(4) -0.0720(4)
O10A O 0.5666(4) 0.3219(3) 0.0439(3)
O11A O 0.4369(5) 0.2310(3) -0.0137(3)
S1A S 0.5736(4) 0.32730(16) -0.1035(2)
O12A O 0.6660(8) 0.3201(7) -0.0785(7)
O13A O 0.5552(10) 0.3311(5) -0.1608(6)
U1D U -0.54369(2) 0.493109(17) 0.561264(16)
U1E U 0.54369(2) 0.493109(17) -0.061264(16)
O5D O -0.5119(4) 0.5615(3) 0.5005(3)
O5E O 0.5119(4) 0.5615(3) -0.0005(3)
O6D O -0.4490(6) 0.6152(3) 0.4246(4)
O6E O 0.4490(6) 0.6152(3) 0.0754(4)
C30? C 0.0085(16) 0.4068(10) 0.2835(10)
H41? H 0.0626 0.4228 0.2992
H42? H 0.0071 0.3669 0.2991
N14? N -0.106(3) 0.4324(13) 0.386(2)
H43? H -0.1351 0.3982 0.3754
loop_
_geom_bond_atom_site_label_1
_geom_bond_atom_site_label_2
_geom_bond_site_symmetry_1
_geom_bond_site_symmetry_2
U1 O1 1_555 1_555
O1 C1 1_555 1_555
O2 U1 1_555 1_555
O3 U1 1_555 1_555
O4 U1 1_555 1_555
O5 U1 1_555 1_555
O6 U2 1_555 1_555
U2 O5 1_555 1_555
O7 U2 1_555 1_555
O8 U2 1_555 1_555
O9 U2 1_555 1_555
O10 U2 1_555 1_555
O11 U2 1_555 1_555
S1 O6 1_555 1_555
O12 S1 1_555 1_555
O13 S1 1_555 1_555
C1 O7 1_555 1_555
C2 C1 1_555 1_555
C3 C2 1_555 1_555
C4 C2 1_555 1_555
H1 C3 1_555 1_555
C5 C3 1_555 1_555
C6 C4 1_555 1_555
H2 C4 1_555 1_555
H3 C5 1_555 1_555
C7 C5 1_555 1_555
C8 C6 1_555 1_555
H4 C7 1_555 1_555
H5 C8 1_555 1_555
H6 C8 1_555 1_555
N1 C8 1_555 1_555
C9 N1 1_555 1_555
H7 N1 1_555 1_555
H8 C9 1_555 1_555
C10 C9 1_555 1_555
H9 C10 1_555 1_555
H10 C10 1_555 1_555
C11 C10 1_555 1_555
H11 C11 1_555 1_555
H12 C11 1_555 1_555
C12 N2 1_555 1_555
C13 H13 1_555 1_555
H14 C13 1_555 1_555
C14 N4 1_555 1_555
C15 H15 1_555 1_555
H16 C15 1_555 1_555
C16 N6 1_555 1_555
C17 H17 1_555 1_555
H18 C17 1_555 1_555
C18 H19 1_555 1_555
C19 C18 1_555 1_555
H20 C19 1_555 1_555
C20 H21 1_555 1_555
C21 C20 1_555 1_555
H22 C21 1_555 1_555
C22 H23 1_555 1_555
C23 C22 1_555 1_555
H24 C23 1_555 1_555
C24 H25 1_555 1_555
H26 C24 1_555 1_555
C25 N12 1_555 1_555
C26 H27 1_555 1_555
H28 C26 1_555 1_555
C27 N10 1_555 1_555
C28 H29 1_555 1_555
H30 C28 1_555 1_555
C29 N8 1_555 1_555
N2 C23 1_555 1_555
N3 C12 1_555 1_555
N4 C13 1_555 1_555
N5 C14 1_555 1_555
N6 C15 1_555 1_555
N7 C16 1_555 1_555
N8 C18 1_555 1_555
N9 C19 1_555 1_555
N10 C20 1_555 1_555
N11 C21 1_555 1_555
N12 C22 1_555 1_555
N13 C23 1_555 1_555
O14 C12 1_555 1_555
O15 C14 1_555 1_555
O16 C16 1_555 1_555
O17 C29 1_555 1_555
O18 C27 1_555 1_555
O19 C25 1_555 1_555
O20 H31 1_555 1_555
H32 O20 1_555 1_555
O21 H33 1_555 1_555
H34 O21 1_555 1_555
O22 H35 1_555 1_555
H36 O22 1_555 1_555
O23 H37 1_555 1_555
H38 O23 1_555 1_555
O24 H39 1_555 1_555
H40 O24 1_555 1_555
O1A C1A 1_555 1_555
O7A C1A 1_555 1_555
C1A C2A 1_555 1_555
C2A C3A 1_555 1_555
C3A H1A 1_555 1_555
C4A C2A 1_555 1_555
C5A C3A 1_555 1_555
C6A C4A 1_555 1_555
H2A C4A 1_555 1_555
H3A C5A 1_555 1_555
C7A C5A 1_555 1_555
C8A C6A 1_555 1_555
H4A C7A 1_555 1_555
H5A C8A 1_555 1_555
H6A C8A 1_555 1_555
N1A C8A 1_555 1_555
C9A N1A 1_555 1_555
H7A N1A 1_555 1_555
H8A C9A 1_555 1_555
C10A C9A 1_555 1_555
H9A C10A 1_555 1_555
H10A C10A 1_555 1_555
C11A C11 1_555 1_555
H11A C11A 1_555 1_555
H12A C11A 1_555 1_555
U1A O1A 1_555 1_555
O2A U1A 1_555 1_555
O3A U1A 1_555 1_555
O4A U1A 1_555 1_555
O5A U1A 1_555 1_555
O6A U2A 1_555 1_555
U2A O7A 1_555 1_555
O8A U2A 1_555 1_555
O9A U2A 1_555 1_555
O10A U2A 1_555 1_555
O11A U2A 1_555 1_555
S1A O6A 1_555 1_555
O12A S1A 1_555 1_555
O13A S1A 1_555 1_555
U1D O5 1_555 1_555
U1E O5A 1_555 1_555
O5D U1 1_555 1_555
O5E U1A 1_555 1_555
O6D U1 1_555 1_555
O6E U1A 1_555 1_555
C12A N2A 1_555 1_555
C13A H13A 1_555 1_555
H14A C13A 1_555 1_555
C14A N4A 1_555 1_555
C15A H15A 1_555 1_555
H16A C15A 1_555 1_555
C16A N6A 1_555 1_555
C17A N8 1_555 1_555
H17A C17A 1_555 1_555
H18A C17A 1_555 1_555
C18A H19A 1_555 1_555
C19A C18A 1_555 1_555
H20A C19A 1_555 1_555
C20A H21A 1_555 1_555
C21A C20A 1_555 1_555
H22A C21A 1_555 1_555
C22A H23A 1_555 1_555
C23A C22A 1_555 1_555
H24A C23A 1_555 1_555
C24A N2 1_555 1_555
H25A C24A 1_555 1_555
H26A C24A 1_555 1_555
C25A N12A 1_555 1_555
C26A H27A 1_555 1_555
H28A C26A 1_555 1_555
C27A N10A 1_555 1_555
C28A H29A 1_555 1_555
H30A C28A 1_555 1_555
C29A N8A 1_555 1_555
N2A C24 1_555 1_555
N3A C12A 1_555 1_555
N4A C13A 1_555 1_555
N5A C14A 1_555 1_555
N6A C15A 1_555 1_555
N7A C16A 1_555 1_555
N8A C17 1_555 1_555
N9A C19A 1_555 1_555
N10A C20A 1_555 1_555
N11A C21A 1_555 1_555
N12A C22A 1_555 1_555
N13A C23A 1_555 1_555
O14A C12A 1_555 1_555
O15A C14A 1_555 1_555
O16A C16A 1_555 1_555
O17A C29A 1_555 1_555
O18A C27A 1_555 1_555
O19A C25A 1_555 1_555
O6 U1D 1_555 1_555
O8 S1 1_555 1_555
C6 C7 1_555 1_555
C13 N3 1_555 1_555
C15 N5 1_555 1_555
C17 N7 1_555 1_555
C18 N7 1_555 1_555
C19 N6 1_555 1_555
C20 N5 1_555 1_555
C21 N4 1_555 1_555
C22 N3 1_555 1_555
C24 N13 1_555 1_555
C25 N13 1_555 1_555
C26 N11 1_555 1_555
C26 N12 1_555 1_555
C27 N11 1_555 1_555
C28 N9 1_555 1_555
C28 N10 1_555 1_555
C29 N9 1_555 1_555
C6A C7A 1_555 1_555
C10A C11A 1_555 1_555
O5A U2A 1_555 1_555
O6A U1E 1_555 1_555
O8A S1A 1_555 1_555
U1D O5D 1_555 1_555
U1E O5E 1_555 1_555
C13A N3A 1_555 1_555
C15A N5A 1_555 1_555
C17A N7A 1_555 1_555
C18A N7A 1_555 1_555
C18A N8A 1_555 1_555
C19A N6A 1_555 1_555
C20A N5A 1_555 1_555
C21A N4A 1_555 1_555
C22A N3A 1_555 1_555
C23A N2A 1_555 1_555
C24A N13A 1_555 1_555
C25A N13A 1_555 1_555
C26A N11A 1_555 1_555
C26A N12A 1_555 1_555
C27A N11A 1_555 1_555
C28A N9A 1_555 1_555
C28A N10A 1_555 1_555
C29A N9A 1_555 1_555

#END
