
#######################################################################
#
#                 Cambridge Crystallographic Data Centre
#                                CCDC 
#
#######################################################################
#
# If this CIF has been generated from an entry in the Cambridge 
# Structural Database, then it will include bibliographic, chemical, 
# crystal, experimental, refinement or atomic coordinate data resulting 
# from the CCDC's data processing and validation procedures.
#
#######################################################################

data_MUNJEK
_symmetry_cell_setting           triclinic
_symmetry_space_group_name_H-M   'P -1'
_symmetry_Int_Tables_number      2
_space_group_name_Hall           '-P 1'
loop_
_symmetry_equiv_pos_site_id
_symmetry_equiv_pos_as_xyz
1 x,y,z
2 -x,-y,-z
_cell_length_a                   7.6001(14)
_cell_length_b                   7.9401(15)
_cell_length_c                   8.5505(16)
_cell_angle_alpha                89.175(3)
_cell_angle_beta                 64.549(3)
_cell_angle_gamma                81.432(3)
_cell_volume                     459.998
loop_
_atom_site_label
_atom_site_type_symbol
_atom_site_fract_x
_atom_site_fract_y
_atom_site_fract_z
Zn1 Zn -0.41896(5) -0.23037(4) -0.63507(4)
P1 P -0.48815(12) -0.13963(10) -0.25118(10)
P2 P -0.03215(11) -0.60937(10) -0.22099(10)
N1 N -0.1035(4) -0.2573(3) -0.2815(3)
H1 H -0.0895 -0.2915 -0.3879
C1 C 0.0159(5) -0.3907(4) -0.2248(4)
H2 H 0.1543 -0.3907 -0.3009
H3 H -0.0048 -0.3561 -0.1091
C2 C -0.3209(4) -0.2298(4) -0.1587(4)
H4 H -0.3565 -0.3385 -0.1130
H5 H -0.3417 -0.1547 -0.0617
C3 C -0.0229(5) -0.0930(4) -0.2976(4)
H6 H 0.1150 -0.1116 -0.3758
H7 H -0.0922 -0.0091 -0.3416
H8 H -0.0400 -0.0533 -0.1857
O1 O -0.5646(4) -0.4008(3) -0.6692(3)
H9 H -0.5075 -0.5127 -0.6545
H10 H -0.7002 -0.3771 -0.5854
O2 O -0.6900(3) -0.1240(3) -0.1000(3)
O3 O -0.4557(3) -0.2700(3) -0.3961(3)
O4 O -0.4328(3) 0.0299(3) -0.3275(3)
O5 O -0.0660(3) -0.6501(3) -0.3772(3)
O6 O 0.1445(3) -0.7177(3) -0.2099(3)
O7 O -0.2187(3) -0.6121(3) -0.0498(3)
H11 H -0.2245 -0.7104 -0.0195
O6A O -0.1445(3) -0.2823(3) -0.7901(3)
Zn1A Zn 0.41896(5) -0.76963(4) -0.36493(4)
O4A O -0.5672(3) -0.0299(3) -0.6725(3)
Zn1A_2 Zn -0.58104(5) 0.23037(4) -0.36493(4)
loop_
_geom_bond_atom_site_label_1
_geom_bond_atom_site_label_2
_geom_bond_site_symmetry_1
_geom_bond_site_symmetry_2
Zn1 O1 1_555 1_555
P1 C2 1_555 1_555
P2 C1 1_555 1_555
N1 H1 1_555 1_555
C1 N1 1_555 1_555
H2 C1 1_555 1_555
H3 C1 1_555 1_555
C2 N1 1_555 1_555
H4 C2 1_555 1_555
H5 C2 1_555 1_555
C3 N1 1_555 1_555
H6 C3 1_555 1_555
H7 C3 1_555 1_555
H8 C3 1_555 1_555
O1 H9 1_555 1_555
H10 O1 1_555 1_555
O2 P1 1_555 1_555
O3 Zn1 1_555 1_555
O4 P1 1_555 1_555
O5 P2 1_555 1_555
O6 P2 1_555 1_555
O7 P2 1_555 1_555
H11 O7 1_555 1_555
O6A Zn1 1_555 1_555
Zn1A O6 1_555 1_555
O4A Zn1 1_555 1_555
Zn1A_2 O4 1_555 1_555
P1 O3 1_555 1_555

#END
