
#######################################################################
#
#                 Cambridge Crystallographic Data Centre
#                                CCDC 
#
#######################################################################
#
# If this CIF has been generated from an entry in the Cambridge 
# Structural Database, then it will include bibliographic, chemical, 
# crystal, experimental, refinement or atomic coordinate data resulting 
# from the CCDC's data processing and validation procedures.
#
#######################################################################

data_MUNKEN
_symmetry_cell_setting           monoclinic
_symmetry_space_group_name_H-M   'C 2/c'
_symmetry_Int_Tables_number      15
_space_group_name_Hall           '-C 2yn'
loop_
_symmetry_equiv_pos_site_id
_symmetry_equiv_pos_as_xyz
1 x,y,z
2 -x,y,1/2-z
3 1/2+x,1/2+y,z
4 1/2-x,1/2+y,1/2-z
5 -x,-y,-z
6 x,-y,1/2+z
7 1/2-x,1/2-y,-z
8 1/2+x,1/2-y,1/2+z
_cell_length_a                   22.496(4)
_cell_length_b                   13.003(2)
_cell_length_c                   35.389(6)
_cell_angle_alpha                90
_cell_angle_beta                 93.992(2)
_cell_angle_gamma                90
_cell_volume                     10326.7
loop_
_atom_site_label
_atom_site_type_symbol
_atom_site_fract_x
_atom_site_fract_y
_atom_site_fract_z
Lu1 Lu 0.227792(10) 0.659411(18) 0.046192(7)
Lu2 Lu 0.214701(12) 0.58807(2) 0.192815(7)
S1 S 0.10648(6) 1.28398(11) 0.10431(4)
S2 S -0.13239(8) 0.59563(13) 0.06158(6)
C1 C 0.1402(3) 1.1770(5) 0.08481(18)
C2 C 0.2127(3) 0.9095(5) 0.0350(2)
C3 C 0.1882(3) 1.0035(5) 0.05250(19)
C4 C 0.1918(3) 1.0990(5) 0.0346(2)
H1 H 0.2099 1.1042 0.0119
C5 C 0.1686(3) 1.1854(5) 0.0506(2)
H2 H 0.1716 1.2490 0.0389
C6 C 0.1384(4) 1.0834(5) 0.1024(2)
H3 H 0.1205 1.0779 0.1252
C7 C 0.1627(4) 0.9974(6) 0.0869(2)
H4 H 0.1620 0.9348 0.0996
O1 O 0.1033(2) 1.2653(4) 0.14397(13)
O2 O 0.1370(2) 1.3751(3) 0.09305(15)
C8 C -0.0393(3) 1.3504(5) 0.03660(18)
H5 H -0.0498 1.3944 0.0165
C9 C -0.0818(3) 1.2831(5) 0.04931(18)
C10 C 0.0177(3) 1.3532(5) 0.05310(19)
H6 H 0.0456 1.3989 0.0445
C11 C 0.0332(2) 1.2870(4) 0.08274(18)
C12 C -0.1431(3) 1.2783(5) 0.03025(19)
C13 C -0.0660(3) 1.2169(6) 0.0789(2)
H7 H -0.0937 1.1707 0.0873
C14 C -0.0082(3) 1.2197(6) 0.0961(2)
H8 H 0.0025 1.1766 0.1164
O3 O 0.2109(3) 0.8269(4) 0.05291(18)
O4 O 0.1410(2) 0.6047(5) 0.14797(15)
O5 O 0.1635(2) 0.6659(4) 0.09242(14)
C15 C 0.0425(3) 0.6564(5) 0.06557(19)
H9 H 0.0684 0.6906 0.0505
C16 C 0.1274(3) 0.6282(6) 0.11448(18)
C17 C -0.0556(3) 0.5984(5) 0.0768(2)
C18 C 0.0245(3) 0.5645(6) 0.1229(2)
H10 H 0.0387 0.5369 0.1460
C19 C -0.0171(3) 0.6464(6) 0.0538(2)
H11 H -0.0312 0.6721 0.0303
C20 C 0.0633(3) 0.6150(5) 0.10013(18)
C21 C -0.0362(3) 0.5553(6) 0.1108(2)
H12 H -0.0625 0.5209 0.1256
O6 O -0.1367(2) 0.6001(4) 0.02055(16)
O7 O -0.1607(2) 0.5126(4) 0.08045(18)
C22 C -0.1597(3) 0.7152(5) 0.07764(19)
O8 O -0.1524(2) 1.3199(5) -0.00122(15)
C23 C -0.1469(3) 0.8040(6) 0.0587(2)
H13 H -0.1247 0.8015 0.0375
O9 O 0.2321(3) 0.9191(4) 0.00248(15)
C24 C -0.1669(4) 0.8944(6) 0.0713(2)
H14 H -0.1583 0.9542 0.0583
C25 C -0.1916(3) 0.7177(5) 0.1094(2)
H15 H -0.1998 0.6575 0.1223
O10 O 0.2005(2) 0.7150(4) 0.23754(16)
O11 O 0.1306(3) 0.6013(4) 0.23023(17)
C26 C 0.1514(3) 0.6812(6) 0.24588(19)
C27 C 0.1386(3) 0.8280(5) 0.2896(2)
H16 H 0.1755 0.8523 0.2833
C28 C 0.0644(4) 0.6971(6) 0.2858(3)
H17 H 0.0511 0.6338 0.2765
C29 C 0.0520(3) 0.8437(5) 0.32429(19)
C30 C 0.1054(3) 0.8838(6) 0.3138(2)
H18 H 0.1187 0.9474 0.3229
S3 S 0.00969(9) 0.91645(15) 0.35530(5)
O12 O -0.0137(3) 0.8490(5) 0.38245(15)
O13 O 0.0450(3) 1.0042(4) 0.36830(16)
C31 C -0.0507(3) 0.9596(5) 0.32456(19)
C32 C -0.1038(4) 0.9087(6) 0.3232(2)
H19 H -0.1086 0.8529 0.3391
C33 C -0.0429(4) 1.0442(7) 0.3022(2)
H20 H -0.0072 1.0805 0.3042
C34 C 0.0304(4) 0.7513(6) 0.3110(2)
H21 H -0.0056 0.7253 0.3183
C35 C -0.0891(4) 1.0751(6) 0.2764(2)
H22 H -0.0840 1.1303 0.2602
C36 C -0.1502(4) 0.9390(6) 0.2985(2)
H23 H -0.1862 0.9035 0.2977
O14 O -0.1819(2) 1.2317(4) 0.04740(16)
C37 C -0.1994(3) 0.9013(5) 0.10251(18)
C38 C -0.2200(3) 1.0039(5) 0.11629(18)
C39 C -0.2115(3) 0.8131(5) 0.12173(19)
H24 H -0.2331 0.8167 0.1432
O15 O -0.2215(2) 1.0782(3) 0.09415(14)
O16 O -0.2342(2) 1.0081(4) 0.14996(13)
C40 C 0.1169(3) 0.7363(5) 0.27492(18)
C41 C -0.1437(3) 1.0210(6) 0.2751(2)
C42 C -0.1932(3) 1.0496(6) 0.2453(2)
O17 O -0.1851(2) 1.1159(4) 0.22015(15)
O18 O -0.2424(3) 1.0031(4) 0.24621(16)
O19 O 0.1728(3) 0.4265(5) 0.19058(16)
H25 H 0.1808 0.3963 0.2116
H26 H 0.1527 0.3841 0.1762
O20 O 0.1859(4) 0.4973(4) 0.04148(17)
H27 H 0.1712 0.4640 0.0593
H28 H 0.1764 0.4659 0.0209
O21 O 0.2405(3) 0.7351(5) 0.16136(19)
H29 H 0.2201 0.7399 0.1403
H30 H 0.2517 0.7956 0.1679
Lu1B Lu -0.272208(10) 1.159411(18) 0.046192(7)
Lu1D Lu -0.227792(10) 1.340589(18) -0.046192(7)
Lu1F Lu 0.272208(10) 0.840589(18) -0.046192(7)
Lu2B Lu -0.285299(12) 1.08807(2) 0.192815(7)
O8D O 0.1524(2) 0.6801(5) 0.00122(15)
O9F O 0.2679(3) 0.5809(4) -0.00248(15)
O14B O 0.3181(2) 0.7317(4) 0.04740(16)
O15B O 0.2785(2) 0.5782(3) 0.09415(14)
O16B O 0.2658(2) 0.5081(4) 0.14996(13)
O17B O 0.3149(2) 0.6159(4) 0.22015(15)
O18B O 0.2576(3) 0.5031(4) 0.24621(16)
O22 O 0.1720(10) 0.3347(12) 0.2647(6)
O23 O 0.0970(7) 0.1964(16) 0.3242(5)
O24 O 0.3233(9) 0.8479(13) 0.1364(5)
O25 O 0.0360(10) 0.4566(19) 0.2216(10)
loop_
_geom_bond_atom_site_label_1
_geom_bond_atom_site_label_2
_geom_bond_site_symmetry_1
_geom_bond_site_symmetry_2
Lu1 O3 1_555 1_555
Lu2 O4 1_555 1_555
S1 C1 1_555 1_555
S2 C17 1_555 1_555
C1 C5 1_555 1_555
C2 C3 1_555 1_555
C3 C4 1_555 1_555
C4 H1 1_555 1_555
C5 C4 1_555 1_555
H2 C5 1_555 1_555
C6 C1 1_555 1_555
H3 C6 1_555 1_555
C7 C3 1_555 1_555
H4 C7 1_555 1_555
O1 S1 1_555 1_555
O2 S1 1_555 1_555
C8 H5 1_555 1_555
C9 C8 1_555 1_555
C10 C8 1_555 1_555
H6 C10 1_555 1_555
C11 S1 1_555 1_555
C12 C9 1_555 1_555
C13 C9 1_555 1_555
H7 C13 1_555 1_555
C14 C11 1_555 1_555
H8 C14 1_555 1_555
O3 C2 1_555 1_555
O4 C16 1_555 1_555
O5 Lu1 1_555 1_555
C15 H9 1_555 1_555
C16 O5 1_555 1_555
C17 C19 1_555 1_555
C18 H10 1_555 1_555
C19 C15 1_555 1_555
H11 C19 1_555 1_555
C20 C15 1_555 1_555
C21 C17 1_555 1_555
H12 C21 1_555 1_555
O6 S2 1_555 1_555
O7 S2 1_555 1_555
C22 S2 1_555 1_555
O8 C12 1_555 1_555
C23 C22 1_555 1_555
H13 C23 1_555 1_555
O9 C2 1_555 1_555
C24 C23 1_555 1_555
H14 C24 1_555 1_555
C25 C22 1_555 1_555
H15 C25 1_555 1_555
O10 Lu2 1_555 1_555
O11 Lu2 1_555 1_555
C26 O10 1_555 1_555
C27 H16 1_555 1_555
C28 H17 1_555 1_555
C29 C30 1_555 1_555
C30 C27 1_555 1_555
H18 C30 1_555 1_555
S3 C29 1_555 1_555
O12 S3 1_555 1_555
O13 S3 1_555 1_555
C31 S3 1_555 1_555
C32 C31 1_555 1_555
H19 C32 1_555 1_555
C33 C31 1_555 1_555
H20 C33 1_555 1_555
C34 C28 1_555 1_555
H21 C34 1_555 1_555
C35 C33 1_555 1_555
H22 C35 1_555 1_555
C36 C32 1_555 1_555
H23 C36 1_555 1_555
O14 C12 1_555 1_555
C37 C24 1_555 1_555
C38 C37 1_555 1_555
C39 C25 1_555 1_555
H24 C39 1_555 1_555
O15 C38 1_555 1_555
O16 C38 1_555 1_555
C40 C26 1_555 1_555
C41 C35 1_555 1_555
C42 C41 1_555 1_555
O17 C42 1_555 1_555
O18 C42 1_555 1_555
O19 Lu2 1_555 1_555
H25 O19 1_555 1_555
H26 O19 1_555 1_555
O20 Lu1 1_555 1_555
H27 O20 1_555 1_555
H28 O20 1_555 1_555
O21 Lu2 1_555 1_555
H29 O21 1_555 1_555
H30 O21 1_555 1_555
Lu1B O14 1_555 1_555
Lu1D O8 1_555 1_555
Lu1F O9 1_555 1_555
Lu2B O16 1_555 1_555
O8D Lu1 1_555 1_555
O9F Lu1 1_555 1_555
O14B Lu1 1_555 1_555
O15B Lu1 1_555 1_555
O16B Lu2 1_555 1_555
O17B Lu2 1_555 1_555
O18B Lu2 1_555 1_555
C6 C7 1_555 1_555
C10 C11 1_555 1_555
C13 C14 1_555 1_555
C16 C20 1_555 1_555
C18 C20 1_555 1_555
C18 C21 1_555 1_555
O11 C26 1_555 1_555
C27 C40 1_555 1_555
C28 C40 1_555 1_555
C29 C34 1_555 1_555
C36 C41 1_555 1_555
C37 C39 1_555 1_555
O15 Lu1B 1_555 1_555
O17 Lu2B 1_555 1_555
O18 Lu2B 1_555 1_555

#END
