
#######################################################################
#
#                 Cambridge Crystallographic Data Centre
#                                CCDC 
#
#######################################################################
#
# If this CIF has been generated from an entry in the Cambridge 
# Structural Database, then it will include bibliographic, chemical, 
# crystal, experimental, refinement or atomic coordinate data resulting 
# from the CCDC's data processing and validation procedures.
#
#######################################################################

data_MUNKUD
_symmetry_cell_setting           monoclinic
_symmetry_space_group_name_H-M   'C 2/c'
_symmetry_Int_Tables_number      15
_space_group_name_Hall           '-C 2yn'
loop_
_symmetry_equiv_pos_site_id
_symmetry_equiv_pos_as_xyz
1 x,y,z
2 -x,y,1/2-z
3 1/2+x,1/2+y,z
4 1/2-x,1/2+y,1/2-z
5 -x,-y,-z
6 x,-y,1/2+z
7 1/2-x,1/2-y,-z
8 1/2+x,1/2-y,1/2+z
_cell_length_a                   40.850(3)
_cell_length_b                   3.7200(3)
_cell_length_c                   25.760(2)
_cell_angle_alpha                90
_cell_angle_beta                 111.052(2)
_cell_angle_gamma                90
_cell_volume                     3653.26
loop_
_atom_site_label
_atom_site_type_symbol
_atom_site_fract_x
_atom_site_fract_y
_atom_site_fract_z
Cd1 Cd 0.0000 0.9026(4) 0.2500
N1 N 0.1781(2) 0.570(3) 0.3824(4)
N2 N 0.2076(2) 0.501(2) 0.4156(4)
O1 O 0.05407(16) 0.894(2) 0.3053(3)
O2 O 0.04291(19) 1.159(2) 0.3728(3)
O3 O 0.0878(2) 1.169(2) 0.4680(3)
H1 H 0.0685 1.2051 0.4439
O4 O -0.01149(16) 0.415(2) 0.2967(3)
H2 H -0.0327 0.4165 0.2947
H3 H 0.0019 0.4165 0.3307
C1 C 0.0620(3) 0.990(2) 0.3535(4)
C2 C 0.0981(2) 0.915(3) 0.3915(4)
C3 C 0.1084(3) 1.005(2) 0.4456(5)
C4 C 0.1423(3) 0.953(3) 0.4810(5)
H4 H 0.1492 1.0195 0.5182
C5 C 0.1648(3) 0.807(3) 0.4615(5)
H5 H 0.1876 0.7664 0.4858
C6 C 0.1559(3) 0.712(3) 0.4063(5)
C7 C 0.1219(3) 0.772(3) 0.3730(5)
H6 H 0.1149 0.7108 0.3356
C8 C 0.2297(3) 0.375(3) 0.3895(5)
C9 C 0.2613(3) 0.244(3) 0.4229(5)
H7 H 0.2665 0.2294 0.4611
C10 C 0.2847(3) 0.136(4) 0.4018(6)
H8 H 0.3060 0.0425 0.4252
C11 C 0.2783(3) 0.159(3) 0.3471(6)
H9 H 0.2951 0.0880 0.3327
C12 C 0.2468(4) 0.289(4) 0.3128(6)
H10 H 0.2416 0.2971 0.2746
C13 C 0.2234(3) 0.404(4) 0.3338(5)
H11 H 0.2025 0.5058 0.3104
N1A N -0.1781(2) 0.570(3) 0.1176(4)
N2A N -0.2076(2) 0.501(2) 0.0844(4)
O1A O -0.05407(16) 0.894(2) 0.1947(3)
O2A O -0.04291(19) 1.159(2) 0.1272(3)
O3A O -0.0878(2) 1.169(2) 0.0320(3)
H1A H -0.0685 1.2051 0.0561
O4A O 0.01149(16) 0.415(2) 0.2033(3)
H2A H 0.0327 0.4165 0.2053
H3A H -0.0019 0.4165 0.1693
C1A C -0.0620(3) 0.990(2) 0.1465(4)
C2A C -0.0981(2) 0.915(3) 0.1085(4)
C3A C -0.1084(3) 1.005(2) 0.0544(5)
C4A C -0.1423(3) 0.953(3) 0.0190(5)
H4A H -0.1492 1.0195 -0.0182
C5A C -0.1648(3) 0.807(3) 0.0385(5)
H5A H -0.1876 0.7664 0.0142
C6A C -0.1559(3) 0.712(3) 0.0937(5)
C7A C -0.1219(3) 0.772(3) 0.1270(5)
H6A H -0.1149 0.7108 0.1644
C8A C -0.2297(3) 0.375(3) 0.1105(5)
C9A C -0.2613(3) 0.244(3) 0.0771(5)
H7A H -0.2665 0.2294 0.0389
C10A C -0.2847(3) 0.136(4) 0.0982(6)
H8A H -0.3060 0.0425 0.0748
C11A C -0.2783(3) 0.159(3) 0.1529(6)
H9A H -0.2951 0.0880 0.1673
C12A C -0.2468(4) 0.289(4) 0.1872(6)
H10A H -0.2416 0.2971 0.2254
C13A C -0.2234(3) 0.404(4) 0.1662(5)
H11A H -0.2025 0.5058 0.1896
Cd1_2 Cd 0.0000 -0.0974(4) 0.2500
O4_2 O -0.01149(16) 1.415(2) 0.2967(3)
O4A_2 O 0.01149(16) 1.415(2) 0.2033(3)
N3 N 0.0572(2) 0.454(3) 0.1517(4)
C14 C 0.0440(3) 0.544(3) 0.0997(5)
C15 C 0.0636(3) 0.526(3) 0.0659(5)
H12 H 0.0537 0.6028 0.0292
C16 C 0.0959(3) 0.404(4) 0.0845(5)
H13 H 0.1092 0.3974 0.0617
C17 C 0.1097(3) 0.286(3) 0.1390(5)
C18 C 0.0897(3) 0.316(3) 0.1710(5)
C19 C 0.1040(3) 0.213(3) 0.2265(6)
H14 H 0.0908 0.2357 0.2492
C20 C 0.1367(3) 0.082(4) 0.2477(6)
H15 H 0.1460 0.0151 0.2850
C21 C 0.1561(4) 0.045(4) 0.2159(6)
H16 H 0.1785 -0.0539 0.2308
C22 C 0.1436(3) 0.151(3) 0.1627(6)
H17 H 0.1577 0.1341 0.1414
C23 C 0.0087(3) 0.693(3) 0.0786(5)
H18 H -0.0081 0.5007 0.0708
H19 H 0.0053 0.8248 0.0450
H20 H 0.0055 0.8503 0.1059
loop_
_geom_bond_atom_site_label_1
_geom_bond_atom_site_label_2
_geom_bond_site_symmetry_1
_geom_bond_site_symmetry_2
Cd1 O1 1_555 1_555
N1 N2 1_555 1_555
N2 C8 1_555 1_555
O1 C1 1_555 1_555
O2 C1 1_555 1_555
O3 H1 1_555 1_555
O4 Cd1 1_555 1_555
H2 O4 1_555 1_555
H3 O4 1_555 1_555
C1 C2 1_555 1_555
C2 C3 1_555 1_555
C3 O3 1_555 1_555
C4 C3 1_555 1_555
H4 C4 1_555 1_555
C5 C4 1_555 1_555
H5 C5 1_555 1_555
C6 N1 1_555 1_555
C7 C2 1_555 1_555
H6 C7 1_555 1_555
C8 C9 1_555 1_555
C9 H7 1_555 1_555
C10 C9 1_555 1_555
H8 C10 1_555 1_555
C11 C10 1_555 1_555
H9 C11 1_555 1_555
C12 C11 1_555 1_555
H10 C12 1_555 1_555
C13 C8 1_555 1_555
H11 C13 1_555 1_555
N3 C14 1_555 1_555
C14 C15 1_555 1_555
C15 H12 1_555 1_555
C16 C15 1_555 1_555
H13 C16 1_555 1_555
C17 C16 1_555 1_555
C18 N3 1_555 1_555
C19 C18 1_555 1_555
H14 C19 1_555 1_555
C20 C19 1_555 1_555
H15 C20 1_555 1_555
C21 C20 1_555 1_555
H16 C21 1_555 1_555
C22 C17 1_555 1_555
H17 C22 1_555 1_555
C23 C14 1_555 1_555
H18 C23 1_555 1_555
H19 C23 1_555 1_555
H20 C23 1_555 1_555
N1A N2A 1_555 1_555
N2A C8A 1_555 1_555
O1A Cd1 1_555 1_555
O2A C1A 1_555 1_555
O3A H1A 1_555 1_555
O4A Cd1 1_555 1_555
H2A O4A 1_555 1_555
H3A O4A 1_555 1_555
C1A O1A 1_555 1_555
C2A C1A 1_555 1_555
C3A O3A 1_555 1_555
C4A C3A 1_555 1_555
H4A C4A 1_555 1_555
C5A C4A 1_555 1_555
H5A C5A 1_555 1_555
C6A N1A 1_555 1_555
C7A C2A 1_555 1_555
H6A C7A 1_555 1_555
C8A C9A 1_555 1_555
C9A H7A 1_555 1_555
C10A C9A 1_555 1_555
H8A C10A 1_555 1_555
C11A C10A 1_555 1_555
H9A C11A 1_555 1_555
C12A C11A 1_555 1_555
H10A C12A 1_555 1_555
C13A C8A 1_555 1_555
H11A C13A 1_555 1_555
Cd1_2 O4 1_555 1_555
O4_2 Cd1 1_555 1_555
O4A_2 Cd1 1_555 1_555
C5 C6 1_555 1_555
C6 C7 1_555 1_555
C12 C13 1_555 1_555
C17 C18 1_555 1_555
C21 C22 1_555 1_555
O4A Cd1_2 1_555 1_555
C2A C3A 1_555 1_555
C5A C6A 1_555 1_555
C6A C7A 1_555 1_555
C12A C13A 1_555 1_555

#END
