
#######################################################################
#
#                 Cambridge Crystallographic Data Centre
#                                CCDC 
#
#######################################################################
#
# If this CIF has been generated from an entry in the Cambridge 
# Structural Database, then it will include bibliographic, chemical, 
# crystal, experimental, refinement or atomic coordinate data resulting 
# from the CCDC's data processing and validation procedures.
#
#######################################################################

data_MUNLAJ
_symmetry_cell_setting           monoclinic
_symmetry_space_group_name_H-M   'P 21/n'
_symmetry_Int_Tables_number      14
_space_group_name_Hall           '-P 2yn'
loop_
_symmetry_equiv_pos_site_id
_symmetry_equiv_pos_as_xyz
1 x,y,z
2 1/2-x,1/2+y,1/2-z
3 -x,-y,-z
4 1/2+x,1/2-y,1/2+z
_cell_length_a                   5.5480(11)
_cell_length_b                   23.450(5)
_cell_length_c                   10.320(2)
_cell_angle_alpha                90
_cell_angle_beta                 96.47(3)
_cell_angle_gamma                90
_cell_volume                     1334.09
loop_
_atom_site_label
_atom_site_type_symbol
_atom_site_fract_x
_atom_site_fract_y
_atom_site_fract_z
S1 S 0.2789(2) 0.15678(5) 0.79711(12)
O1 O 0.6546(5) 0.42377(13) 0.9512(3)
O2 O 0.2884(5) 0.42450(13) 1.0188(3)
O3 O 0.4766(5) -0.00816(14) 1.3263(3)
O4 O 0.4176(6) 0.14294(14) 0.6908(3)
O5 O 0.8509(5) -0.00499(14) 1.2695(3)
O6 O 0.0203(5) 0.15096(14) 0.7787(3)
C1 C 0.6332(8) 0.0098(2) 1.2563(5)
C2 C 0.5503(8) 0.0492(2) 1.1459(4)
C3 C 0.3316(9) 0.0779(2) 1.1416(5)
H1 H 0.2377 0.0748 1.2104
C4 C 0.6929(8) 0.0562(2) 1.0447(5)
H2 H 0.8428 0.0381 1.0488
C5 C 0.2533(9) 0.1112(2) 1.0349(5)
H3 H 0.1054 0.1301 1.0316
C6 C 0.6144(8) 0.0897(2) 0.9379(5)
H4 H 0.7096 0.0941 0.8700
C7 C 0.3914(8) 0.11649(19) 0.9342(4)
C8 C 0.3422(8) 0.2276(2) 0.8442(4)
C9 C 0.5366(9) 0.2574(2) 0.8088(5)
H5 H 0.6428 0.2402 0.7571
C10 C 0.1855(10) 0.2538(2) 0.9208(6)
H6 H 0.0535 0.2339 0.9459
C11 C 0.2252(9) 0.3092(2) 0.9595(5)
H7 H 0.1172 0.3267 1.0096
C12 C 0.5742(8) 0.3127(2) 0.8497(5)
H8 H 0.7066 0.3327 0.8251
C13 C 0.4204(8) 0.3392(2) 0.9262(4)
C14 C 0.4560(8) 0.3997(2) 0.9690(4)
Li1 Li 0.9561(14) 0.4254(4) 1.0664(8)
Li2 Li 1.1472(15) -0.0043(4) 1.3763(8)
O1C O 1.1546(5) 0.07623(13) 1.4512(3)
O2_2 O 1.2884(5) 0.42450(13) 1.0188(3)
O2A O 1.2116(5) -0.07550(13) 1.4812(3)
O3_2 O 1.4766(5) -0.00816(14) 1.3263(3)
O3A O 1.0234(5) 0.49184(14) 1.1737(3)
O4C O 0.9176(6) 0.35706(14) 1.1908(3)
Li1_2 Li -0.0439(14) 0.4254(4) 1.0664(8)
Li1A Li 0.5439(14) -0.0746(4) 1.4336(8)
Li1C Li 0.4561(14) 0.0746(4) 0.5664(8)
Li2_2 Li 0.1472(15) -0.0043(4) 1.3763(8)
Li2A Li 0.3528(15) 0.4957(4) 1.1237(8)
Li2C Li 0.6472(15) 0.5043(4) 0.8763(8)
loop_
_geom_bond_atom_site_label_1
_geom_bond_atom_site_label_2
_geom_bond_site_symmetry_1
_geom_bond_site_symmetry_2
S1 O4 1_555 1_555
O1 C14 1_555 1_555
O2 C14 1_555 1_555
O3 C1 1_555 1_555
O4 Li1C 1_555 1_555
O5 C1 1_555 1_555
O6 S1 1_555 1_555
C1 C2 1_555 1_555
C2 C3 1_555 1_555
C3 H1 1_555 1_555
C4 C2 1_555 1_555
H2 C4 1_555 1_555
C5 C3 1_555 1_555
H3 C5 1_555 1_555
C6 C4 1_555 1_555
H4 C6 1_555 1_555
C7 S1 1_555 1_555
C8 S1 1_555 1_555
C9 C8 1_555 1_555
H5 C9 1_555 1_555
C10 C8 1_555 1_555
H6 C10 1_555 1_555
C11 C10 1_555 1_555
H7 C11 1_555 1_555
C12 C9 1_555 1_555
H8 C12 1_555 1_555
C13 C11 1_555 1_555
C14 C13 1_555 1_555
Li1 O1 1_555 1_555
Li2 O5 1_555 1_555
O1C Li2 1_555 1_555
O2_2 Li1 1_555 1_555
O2A Li2 1_555 1_555
O3_2 Li2 1_555 1_555
O3A Li1 1_555 1_555
O4C Li1 1_555 1_555
Li1_2 O2 1_555 1_555
Li1A O3 1_555 1_555
Li2_2 O3 1_555 1_555
Li2A O2 1_555 1_555
Li2C O1 1_555 1_555
C5 C7 1_555 1_555
C6 C7 1_555 1_555
C12 C13 1_555 1_555

#END
