
#######################################################################
#
#                 Cambridge Crystallographic Data Centre
#                                CCDC 
#
#######################################################################
#
# If this CIF has been generated from an entry in the Cambridge 
# Structural Database, then it will include bibliographic, chemical, 
# crystal, experimental, refinement or atomic coordinate data resulting 
# from the CCDC's data processing and validation procedures.
#
#######################################################################

data_MUNNEP01
_symmetry_cell_setting           tetragonal
_symmetry_space_group_name_H-M   'I 41/a'
_symmetry_Int_Tables_number      88
_space_group_name_Hall           'I -4 -1bw'
loop_
_symmetry_equiv_pos_site_id
_symmetry_equiv_pos_as_xyz
1 x,y,z
2 -y,1/2+x,1/4+z
3 -x,-y,z
4 y,1/2-x,1/4+z
5 -x,1/2-y,1/4-z
6 y,-x,-z
7 x,1/2+y,1/4-z
8 -y,x,-z
9 1/2+x,1/2+y,1/2+z
10 1/2-y,x,3/4+z
11 1/2-x,1/2-y,1/2+z
12 1/2+y,-x,3/4+z
13 1/2-x,-y,3/4-z
14 1/2+y,1/2-x,1/2-z
15 1/2+x,y,3/4-z
16 1/2-y,1/2+x,1/2-z
_cell_length_a                   15.65430(10)
_cell_length_b                   15.65430(10)
_cell_length_c                   13.5978(2)
_cell_angle_alpha                90
_cell_angle_beta                 90
_cell_angle_gamma                90
_cell_volume                     3332.24
loop_
_atom_site_label
_atom_site_type_symbol
_atom_site_fract_x
_atom_site_fract_y
_atom_site_fract_z
I1 I 0.609656(12) 0.193243(12) 0.061491(14)
I2 I 0.50000 0.00000 -0.094510(19)
Cu1 Cu 0.52826(9) 0.33525(7) 0.04165(11)
Cu2 Cu 0.5195(2) 0.0378(2) 0.08729(17)
S1 S 0.61107(5) 0.44882(5) 0.08539(6)
C1 C 0.68306(18) 0.42684(19) 0.1789(2)
C2 C 0.7582(2) 0.4758(2) 0.1874(3)
C3 C 0.8143(2) 0.4608(3) 0.2631(3)
N1 N 0.79864(19) 0.3991(2) 0.3284(2)
C4 C 0.7275(2) 0.3489(2) 0.3230(3)
C5 C 0.6688(2) 0.3621(2) 0.2499(2)
H1 H 0.867222 0.496255 0.269314
H2 H 0.770616 0.521677 0.138234
H3 H 0.718205 0.302543 0.372436
H4 H 0.616086 0.326208 0.246666
I1D I 0.390344(12) 0.306757(12) 0.188509(14)
I2D I 0.50000 0.50000 0.344510(19)
Cu1D Cu 0.47174(9) 0.16475(7) 0.20835(11)
Cu1G Cu 0.66475(7) 0.52826(9) -0.04165(11)
Cu1E Cu 0.33525(7) 0.47174(9) -0.04165(11)
Cu2D Cu 0.4805(2) 0.4622(2) 0.16271(17)
Cu2B Cu 0.4805(2) -0.0378(2) 0.08729(17)
Cu2F Cu 0.5195(2) 0.5378(2) 0.16271(17)
Cu2K Cu 0.5378(2) 0.4805(2) -0.16271(17)
Cu2I Cu 0.4622(2) 0.5195(2) -0.16271(17)
S1E S 0.44882(5) 0.38893(5) -0.08539(6)
S1F S 0.61107(5) -0.05118(5) 0.16461(6)
S1D S 0.38893(5) 0.05118(5) 0.16461(6)
S1A S 0.55118(5) 0.11107(5) 0.33539(6)
S1B S 0.38893(5) 0.55118(5) 0.08539(6)
C1E C 0.42684(19) 0.31694(18) -0.1789(2)
C2E C 0.4758(2) 0.2418(2) -0.1874(3)
C3E C 0.4608(3) 0.1857(2) -0.2631(3)
N1E N 0.3991(2) 0.20136(19) -0.3284(2)
C4E C 0.3489(2) 0.2725(2) -0.3230(3)
C5E C 0.3621(2) 0.3312(2) -0.2499(2)
H1E H 0.496255 0.132778 -0.269314
H2E H 0.521677 0.229384 -0.138234
H3E H 0.302543 0.281795 -0.372436
H4E H 0.326208 0.383914 -0.246666
loop_
_geom_bond_atom_site_label_1
_geom_bond_atom_site_label_2
_geom_bond_site_symmetry_1
_geom_bond_site_symmetry_2
I1 Cu1 1_555 1_555
I2 Cu2 1_555 1_555
Cu1 S1 1_555 1_555
Cu2 I1 1_555 1_555
S1 C1 1_555 1_555
C1 C2 1_555 1_555
C2 C3 1_555 1_555
C3 N1 1_555 1_555
N1 C4 1_555 1_555
C4 C5 1_555 1_555
C5 C1 1_555 1_555
H1 C3 1_555 1_555
H2 C2 1_555 1_555
H3 C4 1_555 1_555
H4 C5 1_555 1_555
I1D Cu1 1_555 1_555
I2D Cu2D 1_555 1_555
Cu1D I1 1_555 1_555
Cu1G S1 1_555 1_555
Cu1E S1E 1_555 1_555
Cu2D S1 1_555 1_555
Cu2B I2 1_555 1_555
Cu2F S1 1_555 1_555
Cu2K Cu2I 1_555 1_555
Cu2I S1E 1_555 1_555
S1E Cu1 1_555 1_555
S1F Cu2 1_555 1_555
S1D Cu2 1_555 1_555
S1A Cu1D 1_555 1_555
S1B Cu1E 1_555 1_555
C1E S1E 1_555 1_555
C2E C1E 1_555 1_555
C3E C2E 1_555 1_555
N1E C3E 1_555 1_555
C4E N1E 1_555 1_555
C5E C1E 1_555 1_555
H1E C3E 1_555 1_555
H2E C2E 1_555 1_555
H3E C4E 1_555 1_555
H4E C5E 1_555 1_555
Cu2 Cu2B 1_555 1_555
I1D Cu1D 1_555 1_555
I1D Cu2D 1_555 1_555
I2D Cu2F 1_555 1_555
Cu1D S1D 1_555 1_555
Cu2D Cu2F 1_555 1_555
Cu2D S1B 1_555 1_555
Cu2B S1F 1_555 1_555
Cu2B S1D 1_555 1_555
Cu2F S1B 1_555 1_555
Cu2K S1E 1_555 1_555
C4E C5E 1_555 1_555

#END
