
#######################################################################
#
#                 Cambridge Crystallographic Data Centre
#                                CCDC 
#
#######################################################################
#
# If this CIF has been generated from an entry in the Cambridge 
# Structural Database, then it will include bibliographic, chemical, 
# crystal, experimental, refinement or atomic coordinate data resulting 
# from the CCDC's data processing and validation procedures.
#
#######################################################################

data_MUNPOB
_symmetry_cell_setting           triclinic
_symmetry_space_group_name_H-M   'P -1'
_symmetry_Int_Tables_number      2
_space_group_name_Hall           '-P 1'
loop_
_symmetry_equiv_pos_site_id
_symmetry_equiv_pos_as_xyz
1 x,y,z
2 -x,-y,-z
_cell_length_a                   9.6164(19)
_cell_length_b                   11.627(2)
_cell_length_c                   17.788(4)
_cell_angle_alpha                99.10(3)
_cell_angle_beta                 95.66(3)
_cell_angle_gamma                101.70(3)
_cell_volume                     1905.39
loop_
_atom_site_label
_atom_site_type_symbol
_atom_site_fract_x
_atom_site_fract_y
_atom_site_fract_z
C1 C 0.0123(5) -0.2342(5) 0.2982(3)
C2 C 0.0180(5) -0.3142(4) 0.3580(3)
C3 C 0.0515(7) -0.2685(5) 0.4339(3)
H1 H 0.0791 -0.1861 0.4495
C4 C 0.0464(7) -0.3400(5) 0.4891(3)
H2 H 0.0705 -0.3042 0.5406
C5 C 0.0070(6) -0.4617(5) 0.4703(3)
C6 C -0.0253(9) -0.5081(5) 0.3932(3)
H3 H -0.0525 -0.5905 0.3773
C7 C -0.0183(9) -0.4353(5) 0.3384(3)
H4 H -0.0391 -0.4704 0.2867
C8 C -0.0079(4) 0.1417(4) 0.1289(3)
C9 C 0.0028(4) 0.2501(4) 0.0932(2)
C10 C 0.0153(5) 0.3630(4) 0.1353(3)
H5 H 0.0255 0.3742 0.1887
C11 C 0.0127(5) 0.4585(4) 0.0997(3)
H6 H 0.0180 0.5328 0.1296
C12 C 0.0025(5) 0.4487(4) 0.0200(3)
C13 C -0.0038(5) 0.3350(4) -0.0222(3)
H7 H -0.0076 0.3246 -0.0753
C14 C -0.0046(5) 0.2383(4) 0.0138(3)
H8 H -0.0101 0.1635 -0.0156
C15 C -0.2236(5) 0.0054(5) 0.3638(3)
H9 H -0.2032 -0.0614 0.3814
C16 C -0.2195(6) 0.1492(5) 0.3031(3)
H10 H -0.1945 0.2022 0.2701
C17 C -0.3250(6) 0.1521(5) 0.3489(3)
H11 H -0.3842 0.2062 0.3529
C18 C -0.4159(5) 0.0294(5) 0.4451(3)
C19 C -0.4317(7) 0.1170(6) 0.5027(4)
H12 H -0.3870 0.1963 0.5041
C20 C -0.4848(6) -0.0865(6) 0.4412(3)
H13 H -0.4758 -0.1450 0.4010
C21 C 0.2477(5) 0.2349(5) 0.3688(3)
H14 H 0.2754 0.2687 0.3271
C22 C 0.1509(6) 0.1152(5) 0.4367(3)
H15 H 0.0959 0.0484 0.4508
C23 C 0.2353(6) 0.2083(5) 0.4864(3)
H16 H 0.2492 0.2178 0.5397
C24 C 0.3982(5) 0.3961(4) 0.4714(3)
C25 C 0.5021(7) 0.4365(6) 0.4290(3)
H17 H 0.5043 0.3937 0.3805
C26 C 0.3950(7) 0.4587(6) 0.5423(3)
H18 H 0.3245 0.4317 0.5716
C27 C 0.2457(5) -0.0026(4) 0.1469(3)
H19 H 0.1843 0.0177 0.1100
C28 C 0.3321(6) -0.0477(5) 0.2505(3)
H20 H 0.3417 -0.0647 0.2999
C29 C 0.4341(6) -0.0493(6) 0.2018(3)
H21 H 0.5237 -0.0665 0.2116
C30 C 0.4397(4) -0.0102(4) 0.0664(3)
C31 C 0.3567(5) -0.0060(5) 0.0008(3)
H22 H 0.2592 -0.0098 0.0011
C32 C 0.5839(5) -0.0040(5) 0.0667(3)
H23 H 0.6411 -0.0066 0.1115
Co1 Co 0.02871(6) 0.01661(6) 0.26529(3)
N1 N -0.1558(4) 0.0566(4) 0.3131(2)
N2 N -0.3261(4) 0.0603(4) 0.3874(2)
N3 N 0.1576(4) 0.1325(3) 0.3625(2)
N4 N 0.2962(4) 0.2861(4) 0.4426(2)
N5 N 0.2134(4) -0.0170(4) 0.2158(2)
N6 N 0.3768(4) -0.0205(4) 0.1359(2)
O1 O 0.0245(4) -0.1253(3) 0.32488(18)
O2 O -0.0083(5) -0.2830(3) 0.2288(2)
O3 O 0.0232(3) 0.1559(3) 0.20170(17)
O4 O -0.0444(3) 0.0419(3) 0.08485(18)
O5 O -0.1134(4) -0.1114(3) 0.1757(2)
H34 H -0.076(6) -0.168(4) 0.188(4)
H35 H -0.105(9) -0.069(6) 0.141(4)
C1A C -0.0123(5) -0.7658(5) 0.7018(3)
C2A C -0.0180(5) -0.6858(4) 0.6420(3)
C3A C -0.0515(7) -0.7315(5) 0.5661(3)
H1A H -0.0791 -0.8139 0.5505
C4A C -0.0464(7) -0.6600(5) 0.5109(3)
H2A H -0.0705 -0.6958 0.4594
C5A C -0.0070(6) -0.5383(5) 0.5297(3)
C6A C 0.0253(9) -0.4919(5) 0.6068(3)
H3A H 0.0525 -0.4095 0.6227
C7A C 0.0183(9) -0.5647(5) 0.6616(3)
H4A H 0.0391 -0.5296 0.7133
C8A C 0.0079(4) 0.8583(4) -0.1289(3)
C9A C -0.0028(4) 0.7499(4) -0.0932(2)
C10A C -0.0153(5) 0.6370(4) -0.1353(3)
H5A H -0.0255 0.6258 -0.1887
C11A C -0.0127(5) 0.5415(4) -0.0997(3)
H6A H -0.0180 0.4672 -0.1296
C12A C -0.0025(5) 0.5513(4) -0.0200(3)
C13A C 0.0038(5) 0.6650(4) 0.0222(3)
H7A H 0.0076 0.6754 0.0753
C14A C 0.0046(5) 0.7617(4) -0.0138(3)
H8A H 0.0101 0.8365 0.0156
C15A C -0.7764(5) -0.0054(5) 0.6362(3)
H9A H -0.7968 0.0614 0.6186
C16A C -0.7805(6) -0.1492(5) 0.6969(3)
H10A H -0.8055 -0.2022 0.7299
C17A C -0.6750(6) -0.1521(5) 0.6511(3)
H11A H -0.6158 -0.2062 0.6471
C18A C -0.5841(5) -0.0294(5) 0.5549(3)
C19A C -0.5683(7) -0.1170(6) 0.4973(4)
H12A H -0.6130 -0.1963 0.4959
C20A C -0.5152(6) 0.0865(6) 0.5588(3)
H13A H -0.5242 0.1450 0.5990
C21A C 0.7523(5) 0.7651(5) 0.6312(3)
H14A H 0.7246 0.7313 0.6729
C22A C 0.8491(6) 0.8848(5) 0.5633(3)
H15A H 0.9041 0.9516 0.5492
C23A C 0.7647(6) 0.7917(5) 0.5136(3)
H16A H 0.7508 0.7822 0.4603
C24A C 0.6018(5) 0.6039(4) 0.5286(3)
C25A C 0.4979(7) 0.5635(6) 0.5710(3)
H17A H 0.4957 0.6063 0.6195
C26A C 0.6050(7) 0.5413(6) 0.4577(3)
H18A H 0.6755 0.5683 0.4284
C27A C 0.7543(5) 0.0026(4) -0.1469(3)
H19A H 0.8157 -0.0177 -0.1100
C28A C 0.6679(6) 0.0477(5) -0.2505(3)
H20A H 0.6583 0.0647 -0.2999
C29A C 0.5659(6) 0.0493(6) -0.2018(3)
H21A H 0.4763 0.0665 -0.2116
C30A C 0.5603(4) 0.0102(4) -0.0664(3)
C31A C 0.6433(5) 0.0060(5) -0.0008(3)
H22A H 0.7408 0.0098 -0.0011
C32A C 0.4161(5) 0.0040(5) -0.0667(3)
H23A H 0.3589 0.0066 -0.1115
Co1A Co -1.02871(6) -0.01661(6) 0.73471(3)
Co1A_2 Co -0.02871(6) -1.01661(6) 0.73471(3)
Co1A_3 Co -0.02871(6) 0.98339(6) -0.26529(3)
Co1A_4 Co 0.97129(6) -0.01661(6) -0.26529(3)
Co1A_5 Co 0.97129(6) 0.98339(6) 0.73471(3)
N1A N -0.8442(4) -0.0566(4) 0.6869(2)
N2A N -0.6739(4) -0.0603(4) 0.6126(2)
N3A N 0.8424(4) 0.8675(3) 0.6375(2)
N3A_2 N -1.1576(4) -0.1325(3) 0.6375(2)
N4A N 0.7038(4) 0.7139(4) 0.5574(2)
N5A N 0.7866(4) 0.0170(4) -0.2158(2)
N5A_2 N -1.2134(4) 0.0170(4) 0.7842(2)
N6A N 0.6232(4) 0.0205(4) -0.1359(2)
O1A O -0.0245(4) -0.8747(3) 0.67512(18)
O1A_2 O -1.0245(4) 0.1253(3) 0.67512(18)
O2A O 0.0083(5) -0.7170(3) 0.7712(2)
O3A O -0.0232(3) 0.8441(3) -0.20170(17)
O3A_2 O -1.0232(3) -0.1559(3) 0.79830(17)
O4A O 0.0444(3) 0.9581(3) -0.08485(18)
O5A O -0.8866(4) 0.1114(3) 0.8243(2)
H34A H -0.924(6) 0.168(4) 0.812(4)
H35A H -0.895(9) 0.069(6) 0.859(4)
C33 C 0.5756(7) 0.6988(6) -0.1650(4)
H24 H 0.6687 0.7379 -0.1438
C34 C 0.3901(8) 0.6204(7) -0.2447(4)
H25 H 0.3278 0.5939 -0.2904
C35 C 0.3557(7) 0.6057(7) -0.1752(4)
H26 H 0.2672 0.5681 -0.1641
C36 C 0.4867(6) 0.6631(5) -0.0428(3)
C37 C 0.6119(6) 0.6508(6) -0.0027(4)
H27 H 0.6902 0.6412 -0.0278
C38 C 0.6181(6) 0.6532(5) 0.0759(4)
H28 H 0.7027 0.6479 0.1040
C39 C 0.5018(6) 0.6634(5) 0.1125(3)
C40 C 0.3778(6) 0.6760(6) 0.0709(4)
H29 H 0.2989 0.6845 0.0958
C41 C 0.3699(6) 0.6760(5) -0.0063(4)
H30 H 0.2864 0.6848 -0.0338
C42 C 0.3931(8) 0.6195(6) 0.2291(4)
H31 H 0.2998 0.5830 0.2068
C43 C 0.6184(7) 0.7080(6) 0.2470(4)
H32 H 0.7088 0.7436 0.2371
C44 C 0.5884(6) 0.6977(5) 0.3146(3)
H33 H 0.6506 0.7232 0.3604
N7 N 0.5066(5) 0.6624(4) 0.1921(3)
N8 N 0.4765(5) 0.6571(4) -0.1233(3)
N9 N 0.5301(7) 0.6797(6) -0.2390(3)
N10 N 0.4464(9) 0.6416(7) 0.3060(5)
loop_
_geom_bond_atom_site_label_1
_geom_bond_atom_site_label_2
_geom_bond_site_symmetry_1
_geom_bond_site_symmetry_2
C1 C2 1_555 1_555
C2 C3 1_555 1_555
C3 H1 1_555 1_555
C4 C3 1_555 1_555
H2 C4 1_555 1_555
C5 C4 1_555 1_555
C6 C5 1_555 1_555
H3 C6 1_555 1_555
C7 C2 1_555 1_555
H4 C7 1_555 1_555
C8 C9 1_555 1_555
C9 C10 1_555 1_555
C10 H5 1_555 1_555
C11 C10 1_555 1_555
H6 C11 1_555 1_555
C12 C11 1_555 1_555
C13 C12 1_555 1_555
H7 C13 1_555 1_555
C14 C9 1_555 1_555
H8 C14 1_555 1_555
C15 H9 1_555 1_555
C16 H10 1_555 1_555
C17 C16 1_555 1_555
H11 C17 1_555 1_555
C18 C19 1_555 1_555
C19 H12 1_555 1_555
C20 C18 1_555 1_555
H13 C20 1_555 1_555
C21 H14 1_555 1_555
C22 H15 1_555 1_555
C23 C22 1_555 1_555
H16 C23 1_555 1_555
C24 C25 1_555 1_555
C25 H17 1_555 1_555
C26 C24 1_555 1_555
H18 C26 1_555 1_555
C27 H19 1_555 1_555
C28 H20 1_555 1_555
C29 C28 1_555 1_555
H21 C29 1_555 1_555
C30 C31 1_555 1_555
C31 H22 1_555 1_555
C32 C30 1_555 1_555
H23 C32 1_555 1_555
C33 H24 1_555 1_555
C34 H25 1_555 1_555
C35 C34 1_555 1_555
H26 C35 1_555 1_555
C36 C37 1_555 1_555
C37 H27 1_555 1_555
C38 C37 1_555 1_555
H28 C38 1_555 1_555
C39 C38 1_555 1_555
C40 C39 1_555 1_555
H29 C40 1_555 1_555
C41 C36 1_555 1_555
H30 C41 1_555 1_555
C42 H31 1_555 1_555
C43 H32 1_555 1_555
C44 C43 1_555 1_555
H33 C44 1_555 1_555
Co1 N1 1_555 1_555
N1 C15 1_555 1_555
N2 C15 1_555 1_555
N3 C21 1_555 1_555
N4 C21 1_555 1_555
N5 C27 1_555 1_555
N6 C27 1_555 1_555
N7 C39 1_555 1_555
N8 C33 1_555 1_555
N9 C33 1_555 1_555
N10 C42 1_555 1_555
O1 C1 1_555 1_555
O2 C1 1_555 1_555
O3 C8 1_555 1_555
O4 C8 1_555 1_555
O5 Co1 1_555 1_555
H34 O5 1_555 1_555
H35 O5 1_555 1_555
C1A C2A 1_555 1_555
C2A C3A 1_555 1_555
C3A H1A 1_555 1_555
C4A C3A 1_555 1_555
H2A C4A 1_555 1_555
C5A C5 1_555 1_555
C6A C5A 1_555 1_555
H3A C6A 1_555 1_555
C7A C2A 1_555 1_555
H4A C7A 1_555 1_555
C8A C9A 1_555 1_555
C9A C10A 1_555 1_555
C10A H5A 1_555 1_555
C11A C10A 1_555 1_555
H6A C11A 1_555 1_555
C12A C12 1_555 1_555
C13A C12A 1_555 1_555
H7A C13A 1_555 1_555
C14A C9A 1_555 1_555
H8A C14A 1_555 1_555
C15A H9A 1_555 1_555
C16A H10A 1_555 1_555
C17A C16A 1_555 1_555
H11A C17A 1_555 1_555
C18A C19A 1_555 1_555
C19A C20 1_555 1_555
H12A C19A 1_555 1_555
C20A C19 1_555 1_555
H13A C20A 1_555 1_555
C21A H14A 1_555 1_555
C22A H15A 1_555 1_555
C23A C22A 1_555 1_555
H16A C23A 1_555 1_555
C24A C25A 1_555 1_555
C25A C26 1_555 1_555
H17A C25A 1_555 1_555
C26A C25 1_555 1_555
H18A C26A 1_555 1_555
C27A H19A 1_555 1_555
C28A H20A 1_555 1_555
C29A C28A 1_555 1_555
H21A C29A 1_555 1_555
C30A C31A 1_555 1_555
C31A C32 1_555 1_555
H22A C31A 1_555 1_555
C32A C31 1_555 1_555
H23A C32A 1_555 1_555
Co1A N1A 1_555 1_555
Co1A_2 O1A 1_555 1_555
Co1A_3 O3A 1_555 1_555
Co1A_4 N5A 1_555 1_555
Co1A_5 N3A 1_555 1_555
N1A C15A 1_555 1_555
N2A C15A 1_555 1_555
N3A C21A 1_555 1_555
N3A_2 Co1A 1_555 1_555
N4A C21A 1_555 1_555
N5A C27A 1_555 1_555
N5A_2 Co1A 1_555 1_555
N6A C27A 1_555 1_555
O1A C1A 1_555 1_555
O1A_2 Co1A 1_555 1_555
O2A C1A 1_555 1_555
O3A C8A 1_555 1_555
O3A_2 Co1A 1_555 1_555
O4A C8A 1_555 1_555
O5A Co1A 1_555 1_555
H34A O5A 1_555 1_555
H35A O5A 1_555 1_555
C6 C7 1_555 1_555
C13 C14 1_555 1_555
C16 N1 1_555 1_555
C17 N2 1_555 1_555
C18 N2 1_555 1_555
C22 N3 1_555 1_555
C23 N4 1_555 1_555
C24 N4 1_555 1_555
C28 N5 1_555 1_555
C29 N6 1_555 1_555
C30 N6 1_555 1_555
C34 N9 1_555 1_555
C35 N8 1_555 1_555
C36 N8 1_555 1_555
C40 C41 1_555 1_555
C42 N7 1_555 1_555
C43 N7 1_555 1_555
C44 N10 1_555 1_555
Co1 N3 1_555 1_555
Co1 N5 1_555 1_555
Co1 O1 1_555 1_555
Co1 O3 1_555 1_555
C4A C5A 1_555 1_555
C6A C7A 1_555 1_555
C11A C12A 1_555 1_555
C13A C14A 1_555 1_555
C16A N1A 1_555 1_555
C17A N2A 1_555 1_555
C18A C20A 1_555 1_555
C18A N2A 1_555 1_555
C22A N3A 1_555 1_555
C23A N4A 1_555 1_555
C24A C26A 1_555 1_555
C24A N4A 1_555 1_555
C28A N5A 1_555 1_555
C29A N6A 1_555 1_555
C30A C32A 1_555 1_555
C30A N6A 1_555 1_555

#END
