
#######################################################################
#
#                 Cambridge Crystallographic Data Centre
#                                CCDC 
#
#######################################################################
#
# If this CIF has been generated from an entry in the Cambridge 
# Structural Database, then it will include bibliographic, chemical, 
# crystal, experimental, refinement or atomic coordinate data resulting 
# from the CCDC's data processing and validation procedures.
#
#######################################################################

data_MUNQIX
_symmetry_cell_setting           monoclinic
_symmetry_space_group_name_H-M   'C 2/c'
_symmetry_Int_Tables_number      15
_space_group_name_Hall           '-C 2yn'
loop_
_symmetry_equiv_pos_site_id
_symmetry_equiv_pos_as_xyz
1 x,y,z
2 -x,y,1/2-z
3 1/2+x,1/2+y,z
4 1/2-x,1/2+y,1/2-z
5 -x,-y,-z
6 x,-y,1/2+z
7 1/2-x,1/2-y,-z
8 1/2+x,1/2-y,1/2+z
_cell_length_a                   17.6549(9)
_cell_length_b                   16.6017(7)
_cell_length_c                   19.0614(9)
_cell_angle_alpha                90
_cell_angle_beta                 112.771(2)
_cell_angle_gamma                90
_cell_volume                     5151.47
loop_
_atom_site_label
_atom_site_type_symbol
_atom_site_fract_x
_atom_site_fract_y
_atom_site_fract_z
C1 C 0.36021(19) 1.38977(17) 0.43336(16)
H1 H 0.3290 1.3775 0.3827
C2 C 0.39458(18) 1.46113(17) 0.46116(16)
H2 H 0.3910 1.5070 0.4320
C3 C 0.42543(17) 1.38318(16) 0.55581(15)
H3 H 0.4470 1.3632 0.6053
C4 C 0.35661(15) 1.25634(15) 0.49347(14)
C5 C 0.36070(19) 1.21956(17) 0.55944(14)
H4 H 0.3804 1.2481 0.6050
C6 C 0.33589(18) 1.14072(17) 0.55869(14)
H5 H 0.3394 1.1160 0.6036
C7 C 0.30593(14) 1.09860(14) 0.49121(13)
C8 C 0.30282(17) 1.13549(16) 0.42534(14)
H6 H 0.2834 1.1070 0.3798
C9 C 0.32816(18) 1.21390(16) 0.42626(14)
H7 H 0.3261 1.2382 0.3816
C10 C 0.21948(15) 0.98267(14) 0.42827(13)
H8 H 0.1904 1.0092 0.3828
C11 C 0.30483(16) 0.95943(16) 0.54428(14)
H9 H 0.3449 0.9651 0.5931
C12 C 0.26130(15) 0.89267(15) 0.51412(15)
H10 H 0.2668 0.8437 0.5394
C13 C 0.0864(2) 0.78277(17) 0.50479(16)
H11 H 0.1035 0.8323 0.5285
C14 C 0.0666(2) 0.71880(17) 0.53709(16)
H12 H 0.0673 0.7159 0.5861
C15 C 0.05280(15) 0.69036(14) 0.42179(14)
H13 H 0.0414 0.6621 0.3767
C16 C 0.02232(15) 0.57802(14) 0.49235(14)
C17 C -0.03229(16) 0.53770(16) 0.42984(14)
H14 H -0.0539 0.5632 0.3828
C18 C 0.05491(16) 0.54060(15) 0.56276(14)
H15 H 0.0917 0.5679 0.6047
C19 C 0.30432(13) 0.43471(13) 0.24526(13)
C20 C 0.16960(14) 0.68573(14) 0.28798(14)
C21 C 0.24170(13) 0.64461(13) 0.28064(12)
C22 C 0.24156(13) 0.56208(13) 0.26953(12)
H16 H 0.1972 0.5313 0.2687
C23 C 0.30745(13) 0.52523(13) 0.25965(12)
C24 C 0.37174(13) 0.57246(13) 0.25799(12)
H17 H 0.4156 0.5480 0.2509
C25 C 0.37180(13) 0.65624(13) 0.26679(12)
C26 C 0.30652(13) 0.69103(13) 0.27990(12)
H18 H 0.3066 0.7462 0.2883
C27 C 0.43845(13) 0.70636(13) 0.25896(11)
C28 C 0.43658(14) 0.79059(13) 0.25919(13)
H19 H 0.3937 0.8180 0.2654
C29 C 0.5000 0.83206(19) 0.2500
H20 H 0.5000 0.8881 0.2500
Mn1 Mn 0.11080(2) 0.83830(2) 0.34874(2)
N1 N 0.43540(14) 1.45697(13) 0.53810(13)
N2 N 0.38017(13) 1.33850(12) 0.49434(11)
N3 N 0.27840(12) 1.01769(12) 0.48856(11)
N4 N 0.20762(12) 0.90699(11) 0.44080(11)
N5 N 0.07793(13) 0.76503(11) 0.43209(11)
N6 N 0.04518(12) 0.65874(11) 0.48407(11)
N7 N 0.5000 0.66590(15) 0.2500
O1 O 0.24169(11) 0.39795(10) 0.23946(12)
O2 O 0.36817(9) 0.40435(9) 0.23987(9)
O3 O 0.09972(11) 0.66370(13) 0.24278(14)
O4 O 0.18336(10) 0.74007(10) 0.33632(9)
O5 O 0.0000 0.78080(12) 0.2500
H21 H 0.0304 0.7508 0.2387
O6 O 0.02372(10) 0.92988(10) 0.34663(10)
H22 H 0.0312 0.9593 0.3833
H23 H -0.0246 0.9239 0.3183
C13D C -0.0864(2) 0.21723(17) 0.49521(16)
H11D H -0.1035 0.1677 0.4715
C14D C -0.0666(2) 0.28120(17) 0.46291(16)
H12D H -0.0673 0.2841 0.4139
C15D C -0.05280(15) 0.30964(14) 0.57821(14)
H13D H -0.0414 0.3379 0.6233
C16D C -0.02232(15) 0.42198(14) 0.50765(14)
C17D C 0.03229(16) 0.46230(16) 0.57016(14)
H14D H 0.0539 0.4368 0.6172
C18D C -0.05491(16) 0.45940(15) 0.43724(14)
H15D H -0.0917 0.4321 0.3953
N5D N -0.07793(13) 0.23497(11) 0.56791(11)
N6D N -0.04518(12) 0.34126(11) 0.51593(11)
C19A C 0.69568(13) 0.43471(13) 0.25474(13)
C20A C 0.83040(14) 0.68573(14) 0.21202(14)
C21A C 0.75830(13) 0.64461(13) 0.21936(12)
C22A C 0.75844(13) 0.56208(13) 0.23047(12)
H16A H 0.8028 0.5313 0.2313
C23A C 0.69255(13) 0.52523(13) 0.24035(12)
C24A C 0.62826(13) 0.57246(13) 0.24201(12)
H17A H 0.5844 0.5480 0.2491
C25A C 0.62820(13) 0.65624(13) 0.23321(12)
C26A C 0.69348(13) 0.69103(13) 0.22010(12)
H18A H 0.6934 0.7462 0.2117
C27A C 0.56155(13) 0.70636(13) 0.24104(11)
C28A C 0.56342(14) 0.79059(13) 0.24081(13)
H19A H 0.6063 0.8180 0.2346
O1A O 0.75831(11) 0.39795(10) 0.26054(12)
O2A O 0.63183(9) 0.40435(9) 0.26013(9)
O3A O 0.90028(11) 0.66370(13) 0.25722(14)
O4A O 0.81664(10) 0.74007(10) 0.16368(9)
H21A H -0.0304 0.7508 0.2613
C1A C -0.36021(19) 1.38977(17) 0.06664(16)
H1A H -0.3290 1.3775 0.1173
C2A C -0.39458(18) 1.46113(17) 0.03884(16)
H2A H -0.3910 1.5070 0.0680
C3A C -0.42543(17) 1.38318(16) -0.05581(15)
H3A H -0.4470 1.3632 -0.1053
C4A C -0.35661(15) 1.25634(15) 0.00653(14)
C5A C -0.36070(19) 1.21956(17) -0.05944(14)
H4A H -0.3804 1.2481 -0.1050
C6A C -0.33589(18) 1.14072(17) -0.05869(14)
H5A H -0.3394 1.1160 -0.1036
C7A C -0.30593(14) 1.09860(14) 0.00879(13)
C8A C -0.30282(17) 1.13549(16) 0.07466(14)
H6A H -0.2834 1.1070 0.1202
C9A C -0.32816(18) 1.21390(16) 0.07374(14)
H7A H -0.3261 1.2382 0.1184
C10A C -0.21948(15) 0.98267(14) 0.07173(13)
H8A H -0.1904 1.0092 0.1172
C11A C -0.30483(16) 0.95943(16) -0.04428(14)
H9A H -0.3449 0.9651 -0.0931
C12A C -0.26130(15) 0.89267(15) -0.01412(15)
H10A H -0.2668 0.8437 -0.0394
Mn1A Mn -0.11080(2) 0.83830(2) 0.15126(2)
N1A N -0.43540(14) 1.45697(13) -0.03810(13)
N2A N -0.38017(13) 1.33850(12) 0.00566(11)
N3A N -0.27840(12) 1.01769(12) 0.01144(11)
N4A N -0.20762(12) 0.90699(11) 0.05920(11)
O6A O -0.02372(10) 0.92988(10) 0.15337(10)
H22A H -0.0312 0.9593 0.1167
H23A H 0.0246 0.9239 0.1817
Mn1A_2 Mn 0.88920(2) 0.83830(2) 0.15126(2)
Mn1B Mn 0.61080(2) 0.33830(2) 0.34874(2)
Mn1C Mn 0.38920(2) 0.33830(2) 0.15126(2)
Mn1D Mn -0.11080(2) 0.16170(2) 0.65126(2)
N5A N -0.07793(13) 0.76503(11) 0.06791(11)
O2B O -0.13183(9) 0.90435(9) 0.23987(9)
O2C O 0.13183(9) 0.90435(9) 0.26013(9)
O4A_2 O -0.18336(10) 0.74007(10) 0.16368(9)
O7 O 0.0000 0.5350(2) 0.2500
H24 H 0.0407 0.5518 0.2865
H24A H -0.0407 0.5518 0.2135
loop_
_geom_bond_atom_site_label_1
_geom_bond_atom_site_label_2
_geom_bond_site_symmetry_1
_geom_bond_site_symmetry_2
C1 H1 1_555 1_555
C2 C1 1_555 1_555
H2 C2 1_555 1_555
C3 H3 1_555 1_555
C4 C5 1_555 1_555
C5 H4 1_555 1_555
C6 C5 1_555 1_555
H5 C6 1_555 1_555
C7 C6 1_555 1_555
C8 C7 1_555 1_555
H6 C8 1_555 1_555
C9 C4 1_555 1_555
H7 C9 1_555 1_555
C10 H8 1_555 1_555
C11 H9 1_555 1_555
C12 C11 1_555 1_555
H10 C12 1_555 1_555
C13 H11 1_555 1_555
C14 C13 1_555 1_555
H12 C14 1_555 1_555
C15 H13 1_555 1_555
C16 C17 1_555 1_555
C17 H14 1_555 1_555
C18 C16 1_555 1_555
H15 C18 1_555 1_555
C19 C23 1_555 1_555
C20 C21 1_555 1_555
C21 C22 1_555 1_555
C22 H16 1_555 1_555
C23 C22 1_555 1_555
C24 C23 1_555 1_555
H17 C24 1_555 1_555
C25 C24 1_555 1_555
C26 C21 1_555 1_555
H18 C26 1_555 1_555
C27 C25 1_555 1_555
C28 C27 1_555 1_555
H19 C28 1_555 1_555
C29 C28 1_555 1_555
H20 C29 1_555 1_555
Mn1 N4 1_555 1_555
N1 C2 1_555 1_555
N2 C1 1_555 1_555
N3 C7 1_555 1_555
N4 C10 1_555 1_555
N5 C13 1_555 1_555
N6 C14 1_555 1_555
N7 C27 1_555 1_555
O1 C19 1_555 1_555
O2 C19 1_555 1_555
O3 C20 1_555 1_555
O4 C20 1_555 1_555
O5 Mn1 1_555 1_555
H21 O5 1_555 1_555
O6 Mn1 1_555 1_555
H22 O6 1_555 1_555
H23 O6 1_555 1_555
O7 H24 1_555 1_555
C13D H11D 1_555 1_555
C14D C13D 1_555 1_555
H12D C14D 1_555 1_555
C15D H13D 1_555 1_555
C16D C17D 1_555 1_555
C17D C18 1_555 1_555
H14D C17D 1_555 1_555
C18D C17 1_555 1_555
H15D C18D 1_555 1_555
N5D C13D 1_555 1_555
N6D C14D 1_555 1_555
C19A C23A 1_555 1_555
C20A C21A 1_555 1_555
C21A C22A 1_555 1_555
C22A H16A 1_555 1_555
C23A C22A 1_555 1_555
C24A C23A 1_555 1_555
H17A C24A 1_555 1_555
C25A C24A 1_555 1_555
C26A C21A 1_555 1_555
H18A C26A 1_555 1_555
C27A N7 1_555 1_555
C28A C29 1_555 1_555
H19A C28A 1_555 1_555
O1A C19A 1_555 1_555
O2A C19A 1_555 1_555
O3A C20A 1_555 1_555
O4A C20A 1_555 1_555
H21A O5 1_555 1_555
C1A H1A 1_555 1_555
C2A C1A 1_555 1_555
H2A C2A 1_555 1_555
C3A H3A 1_555 1_555
C4A C5A 1_555 1_555
C5A H4A 1_555 1_555
C6A C5A 1_555 1_555
H5A C6A 1_555 1_555
C7A C6A 1_555 1_555
C8A C7A 1_555 1_555
H6A C8A 1_555 1_555
C9A C4A 1_555 1_555
H7A C9A 1_555 1_555
C10A H8A 1_555 1_555
C11A H9A 1_555 1_555
C12A C11A 1_555 1_555
H10A C12A 1_555 1_555
Mn1A O5 1_555 1_555
N1A C2A 1_555 1_555
N2A C1A 1_555 1_555
N3A C7A 1_555 1_555
N4A C10A 1_555 1_555
O6A Mn1A 1_555 1_555
H22A O6A 1_555 1_555
H23A O6A 1_555 1_555
Mn1A_2 O4A 1_555 1_555
Mn1B O2A 1_555 1_555
Mn1C O2 1_555 1_555
Mn1D N5D 1_555 1_555
N5A Mn1A 1_555 1_555
O2B Mn1A 1_555 1_555
O2C Mn1 1_555 1_555
O4A_2 Mn1A 1_555 1_555
H24A O7 1_555 1_555
C3 N1 1_555 1_555
C3 N2 1_555 1_555
C4 N2 1_555 1_555
C8 C9 1_555 1_555
C10 N3 1_555 1_555
C11 N3 1_555 1_555
C12 N4 1_555 1_555
C15 N5 1_555 1_555
C15 N6 1_555 1_555
C16 N6 1_555 1_555
C25 C26 1_555 1_555
Mn1 N5 1_555 1_555
Mn1 O4 1_555 1_555
C15D N5D 1_555 1_555
C15D N6D 1_555 1_555
C16D C18D 1_555 1_555
C16D N6D 1_555 1_555
C25A C26A 1_555 1_555
C25A C27A 1_555 1_555
C27A C28A 1_555 1_555
C3A N1A 1_555 1_555
C3A N2A 1_555 1_555
C4A N2A 1_555 1_555
C8A C9A 1_555 1_555
C10A N3A 1_555 1_555
C11A N3A 1_555 1_555
C12A N4A 1_555 1_555
Mn1A N4A 1_555 1_555

#END
