
#######################################################################
#
#                 Cambridge Crystallographic Data Centre
#                                CCDC 
#
#######################################################################
#
# If this CIF has been generated from an entry in the Cambridge 
# Structural Database, then it will include bibliographic, chemical, 
# crystal, experimental, refinement or atomic coordinate data resulting 
# from the CCDC's data processing and validation procedures.
#
#######################################################################

data_MUNQOD
_symmetry_cell_setting           triclinic
_symmetry_space_group_name_H-M   'P -1'
_symmetry_Int_Tables_number      2
_space_group_name_Hall           '-P 1'
loop_
_symmetry_equiv_pos_site_id
_symmetry_equiv_pos_as_xyz
1 x,y,z
2 -x,-y,-z
_cell_length_a                   9.6476(6)
_cell_length_b                   10.2117(7)
_cell_length_c                   16.4488(11)
_cell_angle_alpha                107.3660(10)
_cell_angle_beta                 95.2210(10)
_cell_angle_gamma                99.9140(10)
_cell_volume                     1505.97
loop_
_atom_site_label
_atom_site_type_symbol
_atom_site_fract_x
_atom_site_fract_y
_atom_site_fract_z
C1 C 0.8732(2) 0.7596(2) 0.74848(15)
C2 C 0.9899(2) 0.6789(2) 0.73849(14)
C3 C 1.1294(2) 0.7507(2) 0.77022(15)
H1 H 1.1499 0.8481 0.7924
C4 C 1.2385(2) 0.6779(2) 0.76910(15)
C5 C 1.3898(2) 0.7546(3) 0.80114(16)
C6 C 1.2065(2) 0.5314(2) 0.73713(15)
H2 H 1.2795 0.4825 0.7367
C7 C 1.0668(2) 0.4576(2) 0.70591(15)
C8 C 0.9587(2) 0.5326(2) 0.70597(15)
H3 H 0.8653 0.4847 0.6842
C9 C 1.0327(2) 0.3013(2) 0.67452(15)
C10 C 1.1125(3) 0.2241(3) 0.70879(16)
H4 H 1.1908 0.2688 0.7514
C11 C 1.0734(3) 0.0797(3) 0.67831(17)
H5 H 1.1246 0.0256 0.7005
C12 C 0.9575(3) 0.0164(3) 0.61462(17)
H6 H 0.9292 -0.0808 0.5938
C13 C 0.8834(2) 0.0992(2) 0.58177(15)
C14 C 0.7612(2) 0.0374(2) 0.50972(15)
C15 C 0.6933(2) 0.1236(2) 0.47508(15)
H7 H 0.7241 0.2205 0.4975
C16 C 0.5805(2) 0.0664(2) 0.40764(15)
C17 C 0.5334(3) -0.0789(2) 0.37419(15)
H8 H 0.4580 -0.1177 0.3290
C18 C 0.5992(3) -0.1660(2) 0.40827(15)
C19 C 0.7121(2) -0.1073(2) 0.47579(15)
H9 H 0.7556 -0.1657 0.4987
C20 C 0.5479(3) -0.3224(2) 0.37504(16)
C21 C 0.5064(2) 0.1573(2) 0.36893(15)
C22 C 0.8021(3) 0.7248(3) 0.91944(17)
H10 H 0.7893 0.6519 0.8677
C23 C 0.7921(4) 0.9149(4) 1.0135(2)
H11 H 0.7704 1.0015 1.0397
C24 C 0.8696(4) 0.8489(4) 1.0540(2)
H12 H 0.9103 0.8802 1.1117
C25 C 0.9433(3) 0.6138(3) 0.99903(16)
C26 C 0.9119(3) 0.5487(3) 1.05951(17)
H13 H 0.8531 0.5817 1.0993
C27 C 0.9691(3) 0.4335(3) 1.06011(17)
H14 H 0.9486 0.3882 1.1003
C28 C 0.7185(3) 1.3015(3) 0.84436(17)
H15 H 0.7417 1.3772 0.8242
C29 C 0.7613(3) 1.1793(3) 0.81895(17)
H16 H 0.8208 1.1562 0.7778
C30 C 0.6273(3) 1.1646(3) 0.91457(17)
H17 H 0.5757 1.1312 0.9520
C31 C 0.5648(3) 1.3978(2) 0.95364(17)
C32 C 0.5151(3) 1.4877(3) 0.91480(17)
H18 H 0.5250 1.4792 0.8578
C33 C 0.5491(3) 1.4103(3) 1.03835(17)
H19 H 0.5822 1.3493 1.0637
Fe1 Fe 0.66423(3) 0.87299(3) 0.81218(2)
Fe2 Fe 0.55310(4) 0.58221(3) 0.65468(2)
N1 N 0.7496(2) 0.8371(2) 0.92844(14)
N2 N 0.8764(2) 0.7259(2) 0.99262(14)
N3 N 0.6332(2) 1.2929(2) 0.90624(14)
N4 N 0.7035(2) 1.0932(2) 0.86316(14)
N5 N 0.9210(2) 0.24049(19) 0.61152(13)
O1 O 0.74473(16) 0.68887(18) 0.73344(11)
O2 O 0.89901(19) 0.88899(18) 0.77888(12)
O3 O 1.4183(2) 0.8766(2) 0.85031(16)
O4 O 1.48816(17) 0.68961(19) 0.77694(11)
O5 O 0.5425(2) 0.28962(17) 0.40167(11)
O6 O 0.4122(2) 0.09632(18) 0.30521(12)
O7 O 0.4448(3) -0.37878(19) 0.31596(14)
O8 O 0.6106(2) -0.39757(17) 0.40851(12)
O9 O 0.6706(2) 0.5108(3) 0.55258(14)
H20 H 0.7228 0.5943 0.5598
H21 H 0.6265 0.4358 0.5103
C22A C 1.1979(3) 0.2752(3) 1.08056(17)
H10A H 1.2107 0.3481 1.1323
C23A C 1.2079(4) 0.0851(4) 0.9865(2)
H11A H 1.2296 -0.0015 0.9603
C24A C 1.1304(4) 0.1511(4) 0.9460(2)
H12A H 1.0897 0.1198 0.8883
C25A C 1.0567(3) 0.3862(3) 1.00097(16)
C26A C 1.0881(3) 0.4513(3) 0.94049(17)
H13A H 1.1469 0.4183 0.9007
C27A C 1.0309(3) 0.5665(3) 0.93989(17)
H14A H 1.0514 0.6118 0.8997
N1A N 1.2504(2) 0.1629(2) 1.07156(14)
N2A N 1.1236(2) 0.2741(2) 1.00738(14)
C28A C 0.2815(3) 1.6985(3) 1.15564(17)
H15A H 0.2583 1.6228 1.1758
C29A C 0.2387(3) 1.8207(3) 1.18105(17)
H16A H 0.1792 1.8438 1.2222
C30A C 0.3727(3) 1.8354(3) 1.08543(17)
H17A H 0.4243 1.8688 1.0480
C31A C 0.4352(3) 1.6022(2) 1.04636(17)
C32A C 0.4849(3) 1.5123(3) 1.08520(17)
H18A H 0.4750 1.5208 1.1422
C33A C 0.4509(3) 1.5897(3) 0.96165(17)
H19A H 0.4178 1.6507 0.9363
N3A N 0.3668(2) 1.7071(2) 1.09376(14)
N4A N 0.2965(2) 1.9068(2) 1.13684(14)
C1A C 0.1268(2) -0.7596(2) 0.25152(15)
C2A C 0.0101(2) -0.6789(2) 0.26151(14)
C3A C -0.1294(2) -0.7507(2) 0.22978(15)
H1A H -0.1499 -0.8481 0.2076
C4A C -0.2385(2) -0.6779(2) 0.23090(15)
C5A C -0.3898(2) -0.7546(3) 0.19886(16)
C6A C -0.2065(2) -0.5314(2) 0.26287(15)
H2A H -0.2795 -0.4825 0.2633
C7A C -0.0668(2) -0.4576(2) 0.29409(15)
C8A C 0.0413(2) -0.5326(2) 0.29403(15)
H3A H 0.1347 -0.4847 0.3158
C9A C -0.0327(2) -0.3013(2) 0.32548(15)
C10A C -0.1125(3) -0.2241(3) 0.29121(16)
H4A H -0.1908 -0.2688 0.2486
C11A C -0.0734(3) -0.0797(3) 0.32169(17)
H5A H -0.1246 -0.0256 0.2995
C12A C 0.0425(3) -0.0164(3) 0.38538(17)
H6A H 0.0708 0.0808 0.4062
C13A C 0.1166(2) -0.0992(2) 0.41823(15)
C14A C 0.2388(2) -0.0374(2) 0.49028(15)
C15A C 0.3067(2) -0.1236(2) 0.52492(15)
H7A H 0.2759 -0.2205 0.5025
C16A C 0.4195(2) -0.0664(2) 0.59236(15)
C17A C 0.4666(3) 0.0789(2) 0.62581(15)
H8A H 0.5420 0.1177 0.6710
C18A C 0.4008(3) 0.1660(2) 0.59173(15)
C19A C 0.2879(2) 0.1073(2) 0.52421(15)
H9A H 0.2444 0.1657 0.5013
C20A C 0.4521(3) 0.3224(2) 0.62496(16)
C21A C 0.4936(2) -0.1573(2) 0.63107(15)
Fe1A Fe 0.33577(3) -0.87299(3) 0.18782(2)
Fe2A Fe 0.44690(4) -0.58221(3) 0.34532(2)
N5A N 0.0790(2) -0.24049(19) 0.38848(13)
O1A O 0.25527(16) -0.68887(18) 0.26656(11)
O2A O 0.10099(19) -0.88899(18) 0.22112(12)
O3A O -0.4183(2) -0.8766(2) 0.14969(16)
O4A O -0.48816(17) -0.68961(19) 0.22306(11)
O5A O 0.4575(2) -0.28962(17) 0.59833(11)
O6A O 0.5878(2) -0.09632(18) 0.69479(12)
O7A O 0.5552(3) 0.37878(19) 0.68404(14)
O8A O 0.3894(2) 0.39757(17) 0.59149(12)
O9A O 0.3294(2) -0.5108(3) 0.44742(14)
H20A H 0.2772 -0.5943 0.4402
H21A H 0.3735 -0.4358 0.4897
Fe1_2 Fe 0.66423(3) -0.12701(3) 0.81218(2)
Fe1_3 Fe 1.66423(3) 0.87299(3) 0.81218(2)
Fe1A_2 Fe -0.66423(3) -0.87299(3) 0.18782(2)
Fe1A_3 Fe 0.33577(3) 0.12701(3) 0.18782(2)
Fe1A_4 Fe 0.33577(3) 2.12701(3) 1.18782(2)
Fe1A_5 Fe 1.33577(3) 0.12701(3) 1.18782(2)
Fe2_2 Fe 0.55310(4) -0.41779(3) 0.65468(2)
Fe2_3 Fe 1.55310(4) 0.58221(3) 0.65468(2)
Fe2A_2 Fe -0.55310(4) -0.58221(3) 0.34532(2)
Fe2A_3 Fe 0.44690(4) 0.41779(3) 0.34532(2)
N1A_2 N 0.2504(2) -0.8371(2) 0.07156(14)
N4A_2 N 0.2965(2) -1.0932(2) 0.13684(14)
O4_2 O 0.48816(17) 0.68961(19) 0.77694(11)
O4A_2 O 0.51184(17) -0.68961(19) 0.22306(11)
O5_2 O 0.5425(2) -0.71038(17) 0.40167(11)
O5A_2 O 0.4575(2) 0.71038(17) 0.59833(11)
O6_2 O 0.4122(2) -0.90368(18) 0.30521(12)
O6A_2 O 0.5878(2) 0.90368(18) 0.69479(12)
O10 O 0.8969(12) 0.6337(11) 0.5114(7)
O11? O 0.9888(14) 0.6245(12) 0.5275(8)
loop_
_geom_bond_atom_site_label_1
_geom_bond_atom_site_label_2
_geom_bond_site_symmetry_1
_geom_bond_site_symmetry_2
C1 C2 1_555 1_555
C2 C3 1_555 1_555
C3 H1 1_555 1_555
C4 C3 1_555 1_555
C5 C4 1_555 1_555
C6 C4 1_555 1_555
H2 C6 1_555 1_555
C7 C6 1_555 1_555
C8 C2 1_555 1_555
H3 C8 1_555 1_555
C9 C7 1_555 1_555
C10 C9 1_555 1_555
H4 C10 1_555 1_555
C11 C10 1_555 1_555
H5 C11 1_555 1_555
C12 C11 1_555 1_555
H6 C12 1_555 1_555
C13 C12 1_555 1_555
C14 C13 1_555 1_555
C15 C14 1_555 1_555
H7 C15 1_555 1_555
C16 C15 1_555 1_555
C17 C16 1_555 1_555
H8 C17 1_555 1_555
C18 C17 1_555 1_555
C19 C14 1_555 1_555
H9 C19 1_555 1_555
C20 C18 1_555 1_555
C21 C16 1_555 1_555
C22 H10 1_555 1_555
C23 H11 1_555 1_555
C24 C23 1_555 1_555
H12 C24 1_555 1_555
C25 C26 1_555 1_555
C26 H13 1_555 1_555
C27 C26 1_555 1_555
H14 C27 1_555 1_555
C28 H15 1_555 1_555
C29 C28 1_555 1_555
H16 C29 1_555 1_555
C30 H17 1_555 1_555
C31 C32 1_555 1_555
C32 H18 1_555 1_555
C33 C31 1_555 1_555
H19 C33 1_555 1_555
Fe1 N1 1_555 1_555
Fe2 O1 1_555 1_555
N1 C22 1_555 1_555
N2 C22 1_555 1_555
N3 C28 1_555 1_555
N4 C29 1_555 1_555
N5 C9 1_555 1_555
O1 C1 1_555 1_555
O2 C1 1_555 1_555
O3 C5 1_555 1_555
O4 C5 1_555 1_555
O5 C21 1_555 1_555
O6 C21 1_555 1_555
O7 C20 1_555 1_555
O8 C20 1_555 1_555
O9 Fe2 1_555 1_555
H20 O9 1_555 1_555
H21 O9 1_555 1_555
C22A H10A 1_555 1_555
C23A H11A 1_555 1_555
C24A C23A 1_555 1_555
H12A C24A 1_555 1_555
C25A C27 1_555 1_555
C26A C25A 1_555 1_555
H13A C26A 1_555 1_555
C27A C25 1_555 1_555
H14A C27A 1_555 1_555
N1A C22A 1_555 1_555
N2A C22A 1_555 1_555
C28A H15A 1_555 1_555
C29A C28A 1_555 1_555
H16A C29A 1_555 1_555
C30A H17A 1_555 1_555
C31A C32A 1_555 1_555
C32A C33 1_555 1_555
H18A C32A 1_555 1_555
C33A C32 1_555 1_555
H19A C33A 1_555 1_555
N3A C28A 1_555 1_555
N4A C29A 1_555 1_555
C1A C2A 1_555 1_555
C2A C3A 1_555 1_555
C3A H1A 1_555 1_555
C4A C3A 1_555 1_555
C5A C4A 1_555 1_555
C6A C4A 1_555 1_555
H2A C6A 1_555 1_555
C7A C6A 1_555 1_555
C8A C2A 1_555 1_555
H3A C8A 1_555 1_555
C9A C7A 1_555 1_555
C10A C9A 1_555 1_555
H4A C10A 1_555 1_555
C11A C10A 1_555 1_555
H5A C11A 1_555 1_555
C12A C11A 1_555 1_555
H6A C12A 1_555 1_555
C13A C12A 1_555 1_555
C14A C13A 1_555 1_555
C15A C14A 1_555 1_555
H7A C15A 1_555 1_555
C16A C15A 1_555 1_555
C17A C16A 1_555 1_555
H8A C17A 1_555 1_555
C18A C17A 1_555 1_555
C19A C14A 1_555 1_555
H9A C19A 1_555 1_555
C20A C18A 1_555 1_555
C21A C16A 1_555 1_555
Fe1A O1A 1_555 1_555
Fe2A O7 1_555 1_555
N5A C9A 1_555 1_555
O1A C1A 1_555 1_555
O2A C1A 1_555 1_555
O3A C5A 1_555 1_555
O4A C5A 1_555 1_555
O5A C21A 1_555 1_555
O6A C21A 1_555 1_555
O7A Fe2 1_555 1_555
O8A Fe2 1_555 1_555
O9A Fe2A 1_555 1_555
H20A O9A 1_555 1_555
H21A O9A 1_555 1_555
Fe1_2 O6A 1_555 1_555
Fe1_3 O4 1_555 1_555
Fe1A_2 O4A 1_555 1_555
Fe1A_3 O6 1_555 1_555
Fe1A_4 N4A 1_555 1_555
Fe1A_5 N1A 1_555 1_555
Fe2_2 O5A 1_555 1_555
Fe2_3 O4 1_555 1_555
Fe2A_2 O4A 1_555 1_555
Fe2A_3 O5 1_555 1_555
N1A_2 Fe1A 1_555 1_555
N4A_2 Fe1A 1_555 1_555
O4_2 Fe1 1_555 1_555
O4A_2 Fe1A 1_555 1_555
O5_2 Fe2A 1_555 1_555
O5A_2 Fe2 1_555 1_555
O6_2 Fe1A 1_555 1_555
O6A_2 Fe1 1_555 1_555
C7 C8 1_555 1_555
C13 N5 1_555 1_555
C18 C19 1_555 1_555
C23 N1 1_555 1_555
C24 N2 1_555 1_555
C25 N2 1_555 1_555
C30 N3 1_555 1_555
C30 N4 1_555 1_555
C31 N3 1_555 1_555
Fe1 N4 1_555 1_555
Fe1 O1 1_555 1_555
Fe1 O2 1_555 1_555
Fe2 O4_2 1_555 1_555
O8 Fe2A 1_555 1_555
C23A N1A 1_555 1_555
C24A N2A 1_555 1_555
C25A N2A 1_555 1_555
C26A C27A 1_555 1_555
C30A N3A 1_555 1_555
C30A N4A 1_555 1_555
C31A C33A 1_555 1_555
C31A N3A 1_555 1_555
C7A C8A 1_555 1_555
C13A N5A 1_555 1_555
C18A C19A 1_555 1_555
C20A O7A 1_555 1_555
C20A O8A 1_555 1_555
Fe1A O2A 1_555 1_555
Fe2A O1A 1_555 1_555
Fe2A O4A_2 1_555 1_555

#END
