
#######################################################################
#
#                 Cambridge Crystallographic Data Centre
#                                CCDC 
#
#######################################################################
#
# If this CIF has been generated from an entry in the Cambridge 
# Structural Database, then it will include bibliographic, chemical, 
# crystal, experimental, refinement or atomic coordinate data resulting 
# from the CCDC's data processing and validation procedures.
#
#######################################################################

data_MUNQAP
_symmetry_cell_setting           monoclinic
_symmetry_space_group_name_H-M   'C 2/c'
_symmetry_Int_Tables_number      15
_space_group_name_Hall           '-C 2yn'
loop_
_symmetry_equiv_pos_site_id
_symmetry_equiv_pos_as_xyz
1 x,y,z
2 -x,y,1/2-z
3 1/2+x,1/2+y,z
4 1/2-x,1/2+y,1/2-z
5 -x,-y,-z
6 x,-y,1/2+z
7 1/2-x,1/2-y,-z
8 1/2+x,1/2-y,1/2+z
_cell_length_a                   24.5299(12)
_cell_length_b                   12.3443(6)
_cell_length_c                   31.5597(15)
_cell_angle_alpha                90
_cell_angle_beta                 100.3370(10)
_cell_angle_gamma                90
_cell_volume                     9401.31
loop_
_atom_site_label
_atom_site_type_symbol
_atom_site_fract_x
_atom_site_fract_y
_atom_site_fract_z
C1 C 0.23915(16) 0.7838(3) 0.41013(11)
C2 C 0.19380(17) 0.8519(4) 0.40631(13)
H1 H 0.1656 0.8484 0.3824
C3 C 0.1914(2) 0.9259(4) 0.43915(15)
H2 H 0.1613 0.9725 0.4375
C4 C 0.23356(19) 0.9299(4) 0.47394(14)
H3 H 0.2324 0.9793 0.4960
C5 C 0.27819(16) 0.8594(3) 0.47603(12)
C6 C 0.32588(16) 0.8573(3) 0.51232(12)
C7 C 0.33109(17) 0.9293(3) 0.54691(13)
H4 H 0.3042 0.9821 0.5474
C8 C 0.3757(2) 0.9230(4) 0.58046(14)
C9 C 0.41656(18) 0.8447(3) 0.58001(14)
H5 H 0.4461 0.8395 0.6030
C10 C 0.41319(16) 0.7749(3) 0.54547(12)
C11 C 0.36777(16) 0.7805(3) 0.51234(12)
H6 H 0.3651 0.7319 0.4895
C12 C 0.45781(15) 0.6914(3) 0.54443(12)
C13 C 0.3774(3) 0.9987(5) 0.61722(17)
C14 C 0.24555(15) 0.7024(3) 0.37684(11)
C15 C 0.22007(16) 0.7165(3) 0.33402(12)
H7 H 0.1990 0.7784 0.3262
C16 C 0.22547(15) 0.6404(3) 0.30290(11)
C17 C 0.20010(15) 0.6618(3) 0.25699(11)
C18 C 0.25799(15) 0.5481(3) 0.31428(11)
H8 H 0.2614 0.4963 0.2935
C19 C 0.28511(14) 0.5336(3) 0.35651(11)
C20 C 0.27858(15) 0.6113(3) 0.38749(11)
H9 H 0.2967 0.6018 0.4158
C21 C 0.32174(13) 0.4360(3) 0.36838(11)
C22 C 0.21574(14) 0.0943(3) 0.31676(12)
H10 H 0.2303 0.0296 0.3086
C23 C 0.20767(16) 0.2590(3) 0.33506(14)
H11 H 0.2162 0.3310 0.3420
C24 C 0.15771(17) 0.2137(3) 0.33349(15)
H12 H 0.1259 0.2474 0.3393
C25 C 0.12107(14) 0.0261(3) 0.31897(12)
C26 C 0.08345(16) 0.0335(4) 0.34687(14)
H13 H 0.0856 0.0906 0.3663
C27 C 0.11892(14) -0.0595(3) 0.29081(12)
H14 H 0.1448 -0.0651 0.2727
C28 C 0.40224(15) 0.1227(3) 0.40541(11)
H15 H 0.4243 0.1845 0.4084
C29 C 0.3385(2) 0.0086(4) 0.38217(18)
H16 H 0.3074 -0.0233 0.3657
C30 C 0.3717(2) -0.0386(4) 0.41602(17)
H17 H 0.3677 -0.1075 0.4270
C31 C 0.45732(16) 0.0170(3) 0.46618(12)
C32 C 0.4822(2) -0.0817(4) 0.47166(14)
H18 H 0.4702 -0.1376 0.4525
C33 C 0.4745(2) 0.0991(4) 0.49429(14)
H19 H 0.4573 0.1664 0.4906
C34 C 0.38878(15) 0.3800(3) 0.50148(12)
H20 H 0.3725 0.4146 0.4762
C35 C 0.44698(16) 0.3295(4) 0.55643(13)
H21 H 0.4795 0.3233 0.5765
C36 C 0.39969(17) 0.2756(4) 0.55840(13)
H22 H 0.3936 0.2264 0.5794
C37 C 0.30497(15) 0.2775(3) 0.51101(13)
C38 C 0.28035(17) 0.2741(4) 0.46851(13)
H23 H 0.3008 0.2906 0.4472
C39 C 0.27477(17) 0.2537(4) 0.54279(13)
H24 H 0.2915 0.2564 0.5716
C40 C -0.05582(14) -0.1859(3) 0.32215(12)
H25 H -0.0677 -0.1191 0.3306
C41 C -0.05382(17) -0.3521(4) 0.30464(15)
H26 H -0.0649 -0.4233 0.2987
C42 C -0.00282(17) -0.3131(4) 0.30345(15)
H27 H 0.0270 -0.3512 0.2964
C43 C 0.03930(14) -0.1289(3) 0.31670(12)
C44 C 0.07789(14) -0.1376(3) 0.28961(12)
H28 H 0.0763 -0.1957 0.2707
C45 C 0.04269(16) -0.0445(4) 0.34558(14)
H29 H 0.0175 -0.0399 0.3643
Co1 Co 0.32951(2) 0.21203(4) 0.32262(2)
Co2 Co 0.5000 0.5000 0.5000
N1 N 0.28040(13) 0.7882(2) 0.44448(9)
N2 N 0.24441(12) 0.1840(3) 0.32505(10)
N3 N 0.16288(12) 0.1074(3) 0.32157(10)
N4 N 0.35751(12) 0.1101(3) 0.37576(10)
N5 N 0.41210(13) 0.0351(3) 0.43082(10)
N6 N -0.00389(12) -0.2057(3) 0.31475(10)
N7 N 0.44050(12) 0.3950(3) 0.52063(10)
N8 N 0.36225(12) 0.3086(3) 0.52286(10)
O1 O 0.32385(11) 0.3694(2) 0.33868(8)
O2 O 0.34734(12) 0.4278(2) 0.40592(9)
O3 O 0.19407(12) 0.7589(2) 0.24471(8)
O4 O 0.18654(11) 0.5848(2) 0.23078(8)
O5 O 0.45221(10) 0.6310(2) 0.51204(8)
O6 O 0.49719(12) 0.6881(3) 0.57593(9)
O7 O 0.4096(4) 0.9669(7) 0.6523(2)
H30 H 0.4041 1.0045 0.6726
O8 O 0.35207(17) 1.0785(3) 0.61641(11)
O9 O 0.54362(12) 0.5032(3) 0.56628(9)
H31 H 0.5299(18) 0.574(4) 0.5728(14)
H32 H 0.573(2) 0.514(4) 0.5733(16)
N9 N -0.08695(12) -0.2716(2) 0.31591(10)
C28D C 0.59776(15) -0.1227(3) 0.59459(11)
H15D H 0.5757 -0.1845 0.5916
C29D C 0.6615(2) -0.0086(4) 0.61783(18)
H16D H 0.6926 0.0233 0.6343
C30D C 0.6283(2) 0.0386(4) 0.58398(17)
H17D H 0.6323 0.1075 0.5730
C31D C 0.54268(16) -0.0170(3) 0.53382(12)
C32D C 0.5178(2) 0.0817(4) 0.52834(14)
H18D H 0.5298 0.1376 0.5475
C33D C 0.5255(2) -0.0991(4) 0.50571(14)
H19D H 0.5427 -0.1664 0.5094
N4D N 0.64249(12) -0.1101(3) 0.62424(10)
N5D N 0.58790(13) -0.0351(3) 0.56918(10)
C34F C 0.11122(15) 0.1200(3) 0.49852(12)
H20F H 0.1275 0.0854 0.5238
C35F C 0.05302(16) 0.1705(4) 0.44357(13)
H21F H 0.0205 0.1767 0.4235
C36F C 0.10031(17) 0.2244(4) 0.44160(13)
H22F H 0.1064 0.2736 0.4206
C37F C 0.19503(15) 0.2225(3) 0.48899(13)
C38F C 0.21965(17) 0.2259(4) 0.53149(13)
H23F H 0.1992 0.2094 0.5528
C39F C 0.22523(17) 0.2463(4) 0.45721(13)
H24F H 0.2085 0.2436 0.4284
N7F N 0.05950(12) 0.1050(3) 0.47937(10)
N8F N 0.13775(12) 0.1914(3) 0.47714(10)
C1D C 0.76085(16) -0.7838(3) 0.58987(11)
C2D C 0.80620(17) -0.8519(4) 0.59369(13)
H1D H 0.8344 -0.8484 0.6176
C3D C 0.8086(2) -0.9259(4) 0.56085(15)
H2D H 0.8387 -0.9725 0.5625
C4D C 0.76644(19) -0.9299(4) 0.52606(14)
H3D H 0.7676 -0.9793 0.5040
C5D C 0.72181(16) -0.8594(3) 0.52397(12)
C6D C 0.67412(16) -0.8573(3) 0.48768(12)
C7D C 0.66891(17) -0.9293(3) 0.45309(13)
H4D H 0.6958 -0.9821 0.4526
C8D C 0.6243(2) -0.9230(4) 0.41954(14)
C9D C 0.58344(18) -0.8447(3) 0.41999(14)
H5D H 0.5539 -0.8395 0.3970
C10D C 0.58681(16) -0.7749(3) 0.45453(12)
C11D C 0.63223(16) -0.7805(3) 0.48766(12)
H6D H 0.6349 -0.7319 0.5105
C12D C 0.54219(15) -0.6914(3) 0.45557(12)
C13D C 0.6226(3) -0.9987(5) 0.38278(17)
C14D C 0.75445(15) -0.7024(3) 0.62316(11)
C15D C 0.77993(16) -0.7165(3) 0.66598(12)
H7D H 0.8010 -0.7784 0.6738
C16D C 0.77453(15) -0.6404(3) 0.69710(11)
C17D C 0.79990(15) -0.6618(3) 0.74301(11)
C18D C 0.74201(15) -0.5481(3) 0.68572(11)
H8D H 0.7386 -0.4963 0.7065
C19D C 0.71489(14) -0.5336(3) 0.64349(11)
C20D C 0.72142(15) -0.6113(3) 0.61251(11)
H9D H 0.7033 -0.6018 0.5842
C21D C 0.67826(13) -0.4360(3) 0.63162(11)
C22D C 0.78426(14) -0.0943(3) 0.68324(12)
H10D H 0.7697 -0.0296 0.6914
C23D C 0.79233(16) -0.2590(3) 0.66494(14)
H11D H 0.7838 -0.3310 0.6580
C24D C 0.84229(17) -0.2137(3) 0.66651(15)
H12D H 0.8741 -0.2474 0.6607
C25D C 0.87893(14) -0.0261(3) 0.68103(12)
C26D C 0.91655(16) -0.0335(4) 0.65313(14)
H13D H 0.9144 -0.0906 0.6337
C27D C 0.88108(14) 0.0595(3) 0.70919(12)
H14D H 0.8552 0.0651 0.7273
C40D C 1.05582(14) 0.1859(3) 0.67785(12)
H25D H 1.0677 0.1191 0.6694
C41D C 1.05382(17) 0.3521(4) 0.69536(15)
H26D H 1.0649 0.4233 0.7013
C42D C 1.00282(17) 0.3131(4) 0.69655(15)
H27D H 0.9730 0.3512 0.7036
C43D C 0.96070(14) 0.1289(3) 0.68330(12)
C44D C 0.92211(14) 0.1376(3) 0.71039(12)
H28D H 0.9237 0.1957 0.7293
C45D C 0.95731(16) 0.0445(4) 0.65442(14)
H29D H 0.9825 0.0399 0.6357
Co1D Co 0.67049(2) -0.21203(4) 0.67738(2)
N1D N 0.71960(13) -0.7882(2) 0.55552(9)
N2D N 0.75559(12) -0.1840(3) 0.67495(10)
N3D N 0.83712(12) -0.1074(3) 0.67843(10)
N6D N 1.00389(12) 0.2057(3) 0.68525(10)
O1D O 0.67615(11) -0.3694(2) 0.66132(8)
O2D O 0.65266(12) -0.4278(2) 0.59408(9)
O3D O 0.80593(12) -0.7589(2) 0.75529(8)
O4D O 0.81346(11) -0.5848(2) 0.76922(8)
O5D O 0.54779(10) -0.6310(2) 0.48796(8)
O6D O 0.50281(12) -0.6881(3) 0.42407(9)
O7D O 0.5904(4) -0.9669(7) 0.3477(2)
H30D H 0.5959 -1.0045 0.3274
O8D O 0.64793(17) -1.0785(3) 0.38359(11)
N9D N 1.08695(12) 0.2716(2) 0.68409(10)
O9D O 0.45638(12) 0.4968(3) 0.43372(9)
H31D H 0.4701(18) 0.426(4) 0.4272(14)
H32D H 0.427(2) 0.486(4) 0.4267(16)
Co1B Co -0.17049(2) -0.28797(4) 0.32262(2)
Co1C Co 0.17049(2) 0.71203(4) 0.17738(2)
Co1F Co 1.17049(2) 0.28797(4) 0.67738(2)
Co1G Co 0.82951(2) -0.71203(4) 0.82262(2)
Co2_2 Co 0.5000 -0.5000 0.5000
Co2B Co 0.0000 0.0000 0.5000
N7D N 0.55950(12) 0.6050(3) 0.47937(10)
O3C O 0.30593(12) 0.2589(2) 0.25529(8)
O3G O 0.69407(12) -0.2589(2) 0.74471(8)
O4C O 0.31346(11) 0.0848(2) 0.26922(8)
O4G O 0.68654(11) -0.0848(2) 0.73078(8)
O5D_2 O 0.54779(10) 0.3690(2) 0.48796(8)
N9B N 0.41305(12) 0.2284(2) 0.31591(10)
N9F N 0.58695(12) -0.2284(2) 0.68409(10)
O10 O 0.4116(4) 1.0760(7) 0.7247(2)
O11 O 0.1791(6) 0.3637(10) 0.2358(4)
O12 O 0.0636(6) 0.2207(11) 0.1825(5)
O13 O -0.0206(6) 0.2927(13) 0.1708(5)
O14? O 0.2121(6) 0.3764(10) 0.2158(4)
O15? O -0.0131(13) 0.255(3) 0.1987(12)
loop_
_geom_bond_atom_site_label_1
_geom_bond_atom_site_label_2
_geom_bond_site_symmetry_1
_geom_bond_site_symmetry_2
C1 C2 1_555 1_555
C2 H1 1_555 1_555
C3 C2 1_555 1_555
H2 C3 1_555 1_555
C4 C3 1_555 1_555
H3 C4 1_555 1_555
C5 C4 1_555 1_555
C6 C5 1_555 1_555
C7 C6 1_555 1_555
H4 C7 1_555 1_555
C8 C7 1_555 1_555
C9 C8 1_555 1_555
H5 C9 1_555 1_555
C10 C9 1_555 1_555
C11 C6 1_555 1_555
H6 C11 1_555 1_555
C12 C10 1_555 1_555
C13 C8 1_555 1_555
C14 C1 1_555 1_555
C15 C14 1_555 1_555
H7 C15 1_555 1_555
C16 C15 1_555 1_555
C17 C16 1_555 1_555
C18 C16 1_555 1_555
H8 C18 1_555 1_555
C19 C18 1_555 1_555
C20 C14 1_555 1_555
H9 C20 1_555 1_555
C21 C19 1_555 1_555
C22 H10 1_555 1_555
C23 H11 1_555 1_555
C24 C23 1_555 1_555
H12 C24 1_555 1_555
C25 C26 1_555 1_555
C26 H13 1_555 1_555
C27 C25 1_555 1_555
H14 C27 1_555 1_555
C28 H15 1_555 1_555
C29 H16 1_555 1_555
C30 C29 1_555 1_555
H17 C30 1_555 1_555
C31 C32 1_555 1_555
C32 H18 1_555 1_555
C33 C31 1_555 1_555
H19 C33 1_555 1_555
C34 H20 1_555 1_555
C35 H21 1_555 1_555
C36 C35 1_555 1_555
H22 C36 1_555 1_555
C37 C38 1_555 1_555
C38 H23 1_555 1_555
C39 C37 1_555 1_555
H24 C39 1_555 1_555
C40 H25 1_555 1_555
C41 H26 1_555 1_555
C42 C41 1_555 1_555
H27 C42 1_555 1_555
C43 C44 1_555 1_555
C44 C27 1_555 1_555
H28 C44 1_555 1_555
C45 C26 1_555 1_555
H29 C45 1_555 1_555
Co1 N2 1_555 1_555
Co2 N7 1_555 1_555
N1 C1 1_555 1_555
N2 C22 1_555 1_555
N3 C22 1_555 1_555
N4 C28 1_555 1_555
N5 C28 1_555 1_555
N6 C40 1_555 1_555
N7 C34 1_555 1_555
N8 C34 1_555 1_555
O1 C21 1_555 1_555
O2 C21 1_555 1_555
O3 C17 1_555 1_555
O4 C17 1_555 1_555
O5 C12 1_555 1_555
O6 C12 1_555 1_555
O7 C13 1_555 1_555
H30 O7 1_555 1_555
O8 C13 1_555 1_555
O9 Co2 1_555 1_555
H31 O9 1_555 1_555
H32 O9 1_555 1_555
N9 C40 1_555 1_555
C28D H15D 1_555 1_555
C29D H16D 1_555 1_555
C30D C29D 1_555 1_555
H17D C30D 1_555 1_555
C31D C32D 1_555 1_555
C32D C33 1_555 1_555
H18D C32D 1_555 1_555
C33D C32 1_555 1_555
H19D C33D 1_555 1_555
N4D C28D 1_555 1_555
N5D C28D 1_555 1_555
C34F H20F 1_555 1_555
C35F H21F 1_555 1_555
C36F C35F 1_555 1_555
H22F C36F 1_555 1_555
C37F C38F 1_555 1_555
C38F C39 1_555 1_555
H23F C38F 1_555 1_555
C39F C38 1_555 1_555
H24F C39F 1_555 1_555
N7F C34F 1_555 1_555
N8F C34F 1_555 1_555
C1D C2D 1_555 1_555
C2D H1D 1_555 1_555
C3D C2D 1_555 1_555
H2D C3D 1_555 1_555
C4D C3D 1_555 1_555
H3D C4D 1_555 1_555
C5D C4D 1_555 1_555
C6D C5D 1_555 1_555
C7D C6D 1_555 1_555
H4D C7D 1_555 1_555
C8D C7D 1_555 1_555
C9D C8D 1_555 1_555
H5D C9D 1_555 1_555
C10D C9D 1_555 1_555
C11D C6D 1_555 1_555
H6D C11D 1_555 1_555
C12D C10D 1_555 1_555
C13D C8D 1_555 1_555
C14D C1D 1_555 1_555
C15D C14D 1_555 1_555
H7D C15D 1_555 1_555
C16D C15D 1_555 1_555
C17D C16D 1_555 1_555
C18D C16D 1_555 1_555
H8D C18D 1_555 1_555
C19D C18D 1_555 1_555
C20D C14D 1_555 1_555
H9D C20D 1_555 1_555
C21D C19D 1_555 1_555
C22D H10D 1_555 1_555
C23D H11D 1_555 1_555
C24D C23D 1_555 1_555
H12D C24D 1_555 1_555
C25D C26D 1_555 1_555
C26D H13D 1_555 1_555
C27D C25D 1_555 1_555
H14D C27D 1_555 1_555
C40D H25D 1_555 1_555
C41D H26D 1_555 1_555
C42D C41D 1_555 1_555
H27D C42D 1_555 1_555
C43D C44D 1_555 1_555
C44D C27D 1_555 1_555
H28D C44D 1_555 1_555
C45D C26D 1_555 1_555
H29D C45D 1_555 1_555
Co1D N4D 1_555 1_555
N1D C1D 1_555 1_555
N2D C22D 1_555 1_555
N3D C22D 1_555 1_555
N6D C40D 1_555 1_555
O1D C21D 1_555 1_555
O2D C21D 1_555 1_555
O3D C17D 1_555 1_555
O4D C17D 1_555 1_555
O5D C12D 1_555 1_555
O6D C12D 1_555 1_555
O7D C13D 1_555 1_555
H30D O7D 1_555 1_555
O8D C13D 1_555 1_555
N9D C40D 1_555 1_555
O9D Co2 1_555 1_555
H31D O9D 1_555 1_555
H32D O9D 1_555 1_555
Co1B N9 1_555 1_555
Co1C O3 1_555 1_555
Co1F N9D 1_555 1_555
Co1G O3D 1_555 1_555
Co2_2 O5D 1_555 1_555
Co2B N7F 1_555 1_555
N7D Co2 1_555 1_555
O3C Co1 1_555 1_555
O3G Co1D 1_555 1_555
O4C Co1 1_555 1_555
O4G Co1D 1_555 1_555
O5D_2 Co2 1_555 1_555
N9B Co1 1_555 1_555
N9F Co1D 1_555 1_555
C5 N1 1_555 1_555
C10 C11 1_555 1_555
C19 C20 1_555 1_555
C23 N2 1_555 1_555
C24 N3 1_555 1_555
C25 N3 1_555 1_555
C29 N4 1_555 1_555
C30 N5 1_555 1_555
C31 N5 1_555 1_555
C35 N7 1_555 1_555
C36 N8 1_555 1_555
C37 N8 1_555 1_555
C41 N9 1_555 1_555
C42 N6 1_555 1_555
C43 C45 1_555 1_555
C43 N6 1_555 1_555
Co1 N4 1_555 1_555
Co1 O1 1_555 1_555
Co2 O5 1_555 1_555
O4 Co1C 1_555 1_555
C29D N4D 1_555 1_555
C30D N5D 1_555 1_555
C31D C33D 1_555 1_555
C31D N5D 1_555 1_555
C35F N7F 1_555 1_555
C36F N8F 1_555 1_555
C37F C39F 1_555 1_555
C37F N8F 1_555 1_555
C5D N1D 1_555 1_555
C10D C11D 1_555 1_555
C19D C20D 1_555 1_555
C23D N2D 1_555 1_555
C24D N3D 1_555 1_555
C25D N3D 1_555 1_555
C41D N9D 1_555 1_555
C42D N6D 1_555 1_555
C43D C45D 1_555 1_555
C43D N6D 1_555 1_555
Co1D N2D 1_555 1_555
Co1D O1D 1_555 1_555
O4D Co1G 1_555 1_555

#END
