
#######################################################################
#
#                 Cambridge Crystallographic Data Centre
#                                CCDC 
#
#######################################################################
#
# If this CIF has been generated from an entry in the Cambridge 
# Structural Database, then it will include bibliographic, chemical, 
# crystal, experimental, refinement or atomic coordinate data resulting 
# from the CCDC's data processing and validation procedures.
#
#######################################################################

data_MUNQET
_symmetry_cell_setting           monoclinic
_symmetry_space_group_name_H-M   'P 21/n'
_symmetry_Int_Tables_number      14
_space_group_name_Hall           '-P 2yn'
loop_
_symmetry_equiv_pos_site_id
_symmetry_equiv_pos_as_xyz
1 x,y,z
2 1/2-x,1/2+y,1/2-z
3 -x,-y,-z
4 1/2+x,1/2-y,1/2+z
_cell_length_a                   10.898(2)
_cell_length_b                   12.605(3)
_cell_length_c                   28.807(6)
_cell_angle_alpha                90
_cell_angle_beta                 96.326(4)
_cell_angle_gamma                90
_cell_volume                     3933.1
loop_
_atom_site_label
_atom_site_type_symbol
_atom_site_fract_x
_atom_site_fract_y
_atom_site_fract_z
C1 C 0.1433(3) 1.3991(3) 0.53218(12)
C2 C 0.1252(3) 1.4270(3) 0.48477(12)
H1 H 0.1582 1.4895 0.4742
C3 C 0.0579(4) 1.3603(3) 0.45443(13)
H2 H 0.0442 1.3779 0.4229
C4 C 0.0102(3) 1.2676(3) 0.46986(12)
H3 H -0.0357 1.2221 0.4493
C5 C 0.0322(3) 1.2439(3) 0.51673(12)
C6 C 0.2148(3) 1.4633(3) 0.56854(12)
C7 C 0.2557(3) 1.5662(3) 0.56163(12)
H4 H 0.2330 1.5996 0.5332
C8 C 0.3295(3) 1.6201(3) 0.59621(12)
C9 C 0.3590(3) 1.5730(3) 0.63938(12)
H5 H 0.4074 1.6092 0.6628
C10 C 0.3163(3) 1.4715(3) 0.64777(12)
C11 C 0.2468(3) 1.4173(3) 0.61232(12)
H6 H 0.2208 1.3486 0.6178
C12 C 0.3447(3) 1.4156(3) 0.69403(12)
C13 C 0.3812(4) 1.7256(3) 0.58359(12)
C14 C -0.0129(3) 1.1451(3) 0.53790(11)
C15 C 0.0494(3) 1.1081(3) 0.58020(12)
H7 H 0.1193 1.1438 0.5935
C16 C 0.0083(3) 1.0189(3) 0.60238(11)
C17 C -0.0993(3) 0.9688(3) 0.58240(12)
H8 H -0.1278 0.9089 0.5967
C18 C -0.1642(3) 1.0066(3) 0.54178(11)
C19 C -0.1183(3) 1.0931(3) 0.51921(11)
H9 H -0.1594 1.1163 0.4910
C20 C -0.2920(3) 0.9653(3) 0.52510(12)
C21 C 0.0755(3) 0.9820(3) 0.64770(12)
C22 C 0.3916(3) 0.7614(3) 0.74731(12)
H10 H 0.3689 0.7253 0.7732
C23 C 0.3846(4) 0.8544(3) 0.68504(13)
H11 H 0.3546 0.8959 0.6596
C24 C 0.5023(4) 0.8242(3) 0.69443(13)
H12 H 0.5676 0.8399 0.6773
C25 C 0.6146(3) 0.7187(3) 0.76064(12)
C26 C 0.7235(3) 0.7753(3) 0.76757(13)
H13 H 0.7292 0.8417 0.7539
C27 C 0.6073(4) 0.6187(3) 0.77909(14)
H14 H 0.5350 0.5794 0.7733
C28 C 0.1107(4) 0.6094(3) 0.74025(14)
H15 H 0.1772 0.6075 0.7635
C29 C 0.0498(4) 0.5240(3) 0.72086(14)
H16 H 0.0670 0.4532 0.7279
C30 C -0.0325(3) 0.6677(3) 0.68982(13)
H17 H -0.0846 0.7125 0.6711
C31 C -0.1287(3) 0.4990(3) 0.66027(12)
C32 C -0.2514(4) 0.5251(3) 0.65776(17)
H18 H -0.2776 0.5785 0.6766
C33 C -0.3362(4) 0.4709(4) 0.62673(16)
H19 H -0.4192 0.4899 0.6239
C34 C -0.2976(3) 0.3894(3) 0.60029(12)
C35 C -0.1761(3) 0.3600(3) 0.60540(13)
H20 H -0.1505 0.3029 0.5884
C36 C -0.0904(3) 0.4150(3) 0.63590(13)
H21 H -0.0079 0.3945 0.6396
C37 C -0.3728(4) 0.2471(3) 0.54409(14)
H22 H -0.3036 0.2037 0.5493
C38 C -0.4970(4) 0.3789(4) 0.54847(18)
H23 H -0.5323 0.4428 0.5562
C39 C -0.5442(4) 0.3079(4) 0.51714(18)
H24 H -0.6208 0.3143 0.4996
C40 C 0.9051(3) 0.5132(3) 0.87684(12)
H25 H 0.8341 0.4726 0.8776
C41 C 1.0323(4) 0.6349(3) 0.85716(15)
H26 H 1.0668 0.6918 0.8427
C42 C 0.8147(3) 0.6363(3) 0.81519(12)
C43 C 0.7080(4) 0.5768(3) 0.80634(13)
H27 H 0.7040 0.5089 0.8187
C44 C 0.8230(3) 0.7339(3) 0.79455(13)
H28 H 0.8965 0.7719 0.7990
Co1 Co -0.52606(4) 0.88208(4) 0.54222(2)
Co2 Co 0.13160(4) 0.84940(3) 0.72331(2)
N1 N 0.0976(2) 1.3087(2) 0.54732(9)
N2 N 0.3143(3) 0.8165(2) 0.71782(10)
N3 N 0.5069(3) 0.7641(2) 0.73508(10)
N4 N 0.0579(3) 0.6996(2) 0.71982(10)
N5 N -0.0408(3) 0.5613(2) 0.68944(10)
N6 N -0.3849(3) 0.3382(2) 0.56708(11)
N7 N -0.4660(3) 0.2252(2) 0.51412(10)
N8 N 1.0079(3) 0.4972(2) 0.90426(10)
N9 N 0.9144(3) 0.5954(2) 0.84742(10)
O1 O 0.0369(2) 0.89637(19) 0.66440(8)
O2 O 0.1612(2) 1.0351(2) 0.66691(9)
O3 O -0.3318(2) 0.88629(19) 0.54524(8)
O4 O -0.3559(2) 1.0153(2) 0.49407(9)
O5 O 0.3127(3) 1.32181(19) 0.69771(8)
O6 O 0.3966(2) 1.4654(2) 0.72847(8)
O7 O 0.4956(3) 1.7393(2) 0.59023(10)
O8 O 0.3125(3) 1.7943(2) 0.56382(10)
C45 C 1.0881(3) 0.5737(3) 0.89233(14)
H29 H 1.1687 0.5825 0.9062
Co1_2 Co 0.47394(4) 1.88208(4) 0.54222(2)
Co1A Co 1.02606(4) 0.38208(4) 0.95778(2)
Co1B Co -0.47394(4) 0.11792(4) 0.45778(2)
Co1B_2 Co -0.47394(4) 1.11792(4) 0.45778(2)
Co2A Co 0.36840(4) 1.34940(3) 0.77669(2)
N7B N -0.5340(3) 0.7748(2) 0.48588(10)
N8A N -0.5079(3) 0.9972(2) 0.59574(10)
O4B O -0.6441(2) 0.9847(2) 0.50593(9)
O5A O 0.1873(3) 0.82181(19) 0.80229(8)
O6A O 0.1034(2) 0.9654(2) 0.77153(8)
O7_2 O -0.5044(3) 0.7393(2) 0.59023(10)
O8_2 O -0.6875(3) 0.7943(2) 0.56382(10)
O9 O 0.2630(3) 0.2421(3) 0.37633(15)
H30 H 0.3320 0.2687 0.3778
H31 H 0.2527 0.2018 0.3979
loop_
_geom_bond_atom_site_label_1
_geom_bond_atom_site_label_2
_geom_bond_site_symmetry_1
_geom_bond_site_symmetry_2
C1 C2 1_555 1_555
C2 H1 1_555 1_555
C3 C2 1_555 1_555
H2 C3 1_555 1_555
C4 C3 1_555 1_555
H3 C4 1_555 1_555
C5 C4 1_555 1_555
C6 C1 1_555 1_555
C7 C6 1_555 1_555
H4 C7 1_555 1_555
C8 C7 1_555 1_555
C9 C8 1_555 1_555
H5 C9 1_555 1_555
C10 C9 1_555 1_555
C11 C6 1_555 1_555
H6 C11 1_555 1_555
C12 C10 1_555 1_555
C13 C8 1_555 1_555
C14 C5 1_555 1_555
C15 C14 1_555 1_555
H7 C15 1_555 1_555
C16 C15 1_555 1_555
C17 C16 1_555 1_555
H8 C17 1_555 1_555
C18 C17 1_555 1_555
C19 C14 1_555 1_555
H9 C19 1_555 1_555
C20 C18 1_555 1_555
C21 C16 1_555 1_555
C22 H10 1_555 1_555
C23 H11 1_555 1_555
C24 C23 1_555 1_555
H12 C24 1_555 1_555
C25 C26 1_555 1_555
C26 H13 1_555 1_555
C27 C25 1_555 1_555
H14 C27 1_555 1_555
C28 H15 1_555 1_555
C29 C28 1_555 1_555
H16 C29 1_555 1_555
C30 H17 1_555 1_555
C31 C32 1_555 1_555
C32 H18 1_555 1_555
C33 C32 1_555 1_555
H19 C33 1_555 1_555
C34 C33 1_555 1_555
C35 C34 1_555 1_555
H20 C35 1_555 1_555
C36 C31 1_555 1_555
H21 C36 1_555 1_555
C37 H22 1_555 1_555
C38 H23 1_555 1_555
C39 C38 1_555 1_555
H24 C39 1_555 1_555
C40 H25 1_555 1_555
C41 H26 1_555 1_555
C42 C43 1_555 1_555
C43 C27 1_555 1_555
H27 C43 1_555 1_555
C44 C26 1_555 1_555
H28 C44 1_555 1_555
Co1 O3 1_555 1_555
Co2 N2 1_555 1_555
N1 C1 1_555 1_555
N2 C22 1_555 1_555
N3 C22 1_555 1_555
N4 C28 1_555 1_555
N5 C29 1_555 1_555
N6 C34 1_555 1_555
N7 C37 1_555 1_555
N8 C40 1_555 1_555
N9 C40 1_555 1_555
O1 C21 1_555 1_555
O2 C21 1_555 1_555
O3 C20 1_555 1_555
O4 C20 1_555 1_555
O5 C12 1_555 1_555
O6 C12 1_555 1_555
O7 C13 1_555 1_555
O8 C13 1_555 1_555
C45 C41 1_555 1_555
H29 C45 1_555 1_555
O9 H30 1_555 1_555
H31 O9 1_555 1_555
Co1_2 O7 1_555 1_555
Co1A N8 1_555 1_555
Co1B N7 1_555 1_555
Co1B_2 O4 1_555 1_555
Co2A O5 1_555 1_555
N7B Co1 1_555 1_555
N8A Co1 1_555 1_555
O4B Co1 1_555 1_555
O5A Co2 1_555 1_555
O6A Co2 1_555 1_555
O7_2 Co1 1_555 1_555
O8_2 Co1 1_555 1_555
C5 N1 1_555 1_555
C10 C11 1_555 1_555
C18 C19 1_555 1_555
C23 N2 1_555 1_555
C24 N3 1_555 1_555
C25 N3 1_555 1_555
C30 N4 1_555 1_555
C30 N5 1_555 1_555
C31 N5 1_555 1_555
C35 C36 1_555 1_555
C37 N6 1_555 1_555
C38 N6 1_555 1_555
C39 N7 1_555 1_555
C41 N9 1_555 1_555
C42 C44 1_555 1_555
C42 N9 1_555 1_555
Co2 N4 1_555 1_555
Co2 O1 1_555 1_555
N8 C45 1_555 1_555
O6 Co2A 1_555 1_555
O8 Co1_2 1_555 1_555

#END
