
#######################################################################
#
#                 Cambridge Crystallographic Data Centre
#                                CCDC 
#
#######################################################################
#
# If this CIF has been generated from an entry in the Cambridge 
# Structural Database, then it will include bibliographic, chemical, 
# crystal, experimental, refinement or atomic coordinate data resulting 
# from the CCDC's data processing and validation procedures.
#
#######################################################################

data_MUNSAR
_symmetry_cell_setting           monoclinic
_symmetry_space_group_name_H-M   'P 2/c'
_symmetry_Int_Tables_number      13
_space_group_name_Hall           '-P 2yc'
loop_
_symmetry_equiv_pos_site_id
_symmetry_equiv_pos_as_xyz
1 x,y,z
2 -x,y,1/2-z
3 -x,-y,-z
4 x,-y,1/2+z
_cell_length_a                   10.0026(12)
_cell_length_b                   10.6089(9)
_cell_length_c                   22.829(3)
_cell_angle_alpha                90
_cell_angle_beta                 99.3320(10)
_cell_angle_gamma                90
_cell_volume                     2390.47
loop_
_atom_site_label
_atom_site_type_symbol
_atom_site_fract_x
_atom_site_fract_y
_atom_site_fract_z
Cu1 Cu 0.25318(10) 0.63766(8) 0.25184(4)
Cl1 Cl 0.2246(3) 0.9065(3) 0.04513(12)
Cl2 Cl 0.3026(3) 0.3670(3) 0.45505(12)
N1 N 0.2399(7) 0.5555(6) 0.1711(3)
N2 N 0.2642(6) 0.7172(6) 0.3325(3)
N3 N 0.0962(9) 1.1076(8) 0.0692(4)
N4 N 0.4153(8) 0.1598(8) 0.4275(4)
O1 O 0.1897(5) 0.7990(5) 0.2147(2)
O2 O 0.3701(6) 0.8447(5) 0.1711(3)
O3 O 0.3134(5) 0.4741(4) 0.2886(2)
O4 O 0.1332(7) 0.4284(6) 0.3307(3)
O5 O 0.0000 0.5892(6) 0.2500
H1 H 0.0099 0.5396 0.2796
O6 O 0.5000 0.6827(6) 0.2500
H2 H 0.5121 0.7323 0.2796
C1 C 0.1371(9) 0.5813(8) 0.1280(4)
H3 H 0.0717 0.6384 0.1358
C2 C 0.1229(10) 0.5282(9) 0.0728(4)
H4 H 0.0509 0.5514 0.0438
C3 C 0.2149(10) 0.4404(9) 0.0604(4)
H5 H 0.2063 0.4021 0.0233
C4 C 0.3202(10) 0.4115(9) 0.1046(4)
H6 H 0.3837 0.3516 0.0977
C5 C 0.3335(9) 0.4705(8) 0.1598(4)
H7 H 0.4068 0.4514 0.1890
C6 C 0.1653(8) 0.7937(7) 0.3460(4)
H8 H 0.0926 0.8140 0.3168
C7 C 0.1704(10) 0.8417(9) 0.4020(4)
H9 H 0.0978 0.8886 0.4109
C8 C 0.2812(11) 0.8216(9) 0.4451(4)
H10 H 0.2873 0.8582 0.4825
C9 C 0.3826(9) 0.7456(8) 0.4312(4)
H11 H 0.4586 0.7283 0.4593
C10 C 0.3703(8) 0.6954(7) 0.3750(4)
H12 H 0.4393 0.6436 0.3661
C11 C 0.2536(9) 0.8648(7) 0.1813(4)
C12 C 0.1776(8) 0.9777(7) 0.1538(4)
C13 C 0.1621(9) 1.0057(9) 0.0942(4)
C14 C 0.0403(10) 1.1826(10) 0.1059(6)
H13 H -0.0073 1.2529 0.0894
C15 C 0.0476(10) 1.1640(9) 0.1643(6)
H14 H 0.0080 1.2206 0.1875
C16 C 0.1158(10) 1.0584(8) 0.1895(5)
H15 H 0.1201 1.0415 0.2297
C17 C 0.2479(9) 0.4070(8) 0.3195(4)
C18 C 0.3222(9) 0.2883(7) 0.3443(4)
C19 C 0.3494(9) 0.2597(8) 0.4035(4)
C20 C 0.4549(10) 0.0778(9) 0.3885(5)
H16 H 0.4996 0.0050 0.4035
C21 C 0.4338(10) 0.0944(9) 0.3290(5)
H17 H 0.4631 0.0352 0.3038
C22 C 0.3671(10) 0.2030(8) 0.3069(5)
H18 H 0.3525 0.2181 0.2662
H1A H -0.0099 0.5396 0.2204
H2A H 0.4879 0.7323 0.2204
Cu1A Cu -0.25318(10) 0.63766(8) 0.24816(4)
Cl1A Cl -0.2246(3) 0.9065(3) 0.45487(12)
Cl2A Cl -0.3026(3) 0.3670(3) 0.04495(12)
N1A N -0.2399(7) 0.5555(6) 0.3289(3)
N2A N -0.2642(6) 0.7172(6) 0.1675(3)
N3A N -0.0962(9) 1.1076(8) 0.4308(4)
N4A N -0.4153(8) 0.1598(8) 0.0725(4)
O1A O -0.1897(5) 0.7990(5) 0.2853(2)
O2A O -0.3701(6) 0.8447(5) 0.3289(3)
O3A O -0.3134(5) 0.4741(4) 0.2114(2)
O4A O -0.1332(7) 0.4284(6) 0.1693(3)
C1A C -0.1371(9) 0.5813(8) 0.3720(4)
H3A H -0.0717 0.6384 0.3642
C2A C -0.1229(10) 0.5282(9) 0.4272(4)
H4A H -0.0509 0.5514 0.4562
C3A C -0.2149(10) 0.4404(9) 0.4396(4)
H5A H -0.2063 0.4021 0.4767
C4A C -0.3202(10) 0.4115(9) 0.3954(4)
H6A H -0.3837 0.3516 0.4023
C5A C -0.3335(9) 0.4705(8) 0.3402(4)
H7A H -0.4068 0.4514 0.3110
C6A C -0.1653(8) 0.7937(7) 0.1540(4)
H8A H -0.0926 0.8140 0.1832
C7A C -0.1704(10) 0.8417(9) 0.0980(4)
H9A H -0.0978 0.8886 0.0891
C8A C -0.2812(11) 0.8216(9) 0.0549(4)
H10A H -0.2873 0.8582 0.0175
C9A C -0.3826(9) 0.7456(8) 0.0688(4)
H11A H -0.4586 0.7283 0.0407
C10A C -0.3703(8) 0.6954(7) 0.1250(4)
H12A H -0.4393 0.6436 0.1339
C11A C -0.2536(9) 0.8648(7) 0.3187(4)
C12A C -0.1776(8) 0.9777(7) 0.3462(4)
C13A C -0.1621(9) 1.0057(9) 0.4058(4)
C14A C -0.0403(10) 1.1826(10) 0.3941(6)
H13A H 0.0073 1.2529 0.4106
C15A C -0.0476(10) 1.1640(9) 0.3357(6)
H14A H -0.0080 1.2206 0.3125
C16A C -0.1158(10) 1.0584(8) 0.3105(5)
H15A H -0.1201 1.0415 0.2703
C17A C -0.2479(9) 0.4070(8) 0.1805(4)
C18A C -0.3222(9) 0.2883(7) 0.1557(4)
C19A C -0.3494(9) 0.2597(8) 0.0965(4)
C20A C -0.4549(10) 0.0778(9) 0.1115(5)
H16A H -0.4996 0.0050 0.0965
C21A C -0.4338(10) 0.0944(9) 0.1710(5)
H17A H -0.4631 0.0352 0.1962
C22A C -0.3671(10) 0.2030(8) 0.1931(5)
H18A H -0.3525 0.2181 0.2338
Cu1A_2 Cu 0.74682(10) 0.63766(8) 0.24816(4)
O6_2 O -0.5000 0.6827(6) 0.2500
loop_
_geom_bond_atom_site_label_1
_geom_bond_atom_site_label_2
_geom_bond_site_symmetry_1
_geom_bond_site_symmetry_2
Cu1 N1 1_555 1_555
Cl1 C13 1_555 1_555
Cl2 C19 1_555 1_555
N1 C1 1_555 1_555
N2 Cu1 1_555 1_555
N3 C13 1_555 1_555
N4 C19 1_555 1_555
O1 Cu1 1_555 1_555
O2 C11 1_555 1_555
O3 Cu1 1_555 1_555
O4 C17 1_555 1_555
O5 Cu1 1_555 1_555
H1 O5 1_555 1_555
O6 Cu1 1_555 1_555
H2 O6 1_555 1_555
C1 H3 1_555 1_555
C2 C1 1_555 1_555
H4 C2 1_555 1_555
C3 C2 1_555 1_555
H5 C3 1_555 1_555
C4 C3 1_555 1_555
H6 C4 1_555 1_555
C5 N1 1_555 1_555
H7 C5 1_555 1_555
C6 N2 1_555 1_555
H8 C6 1_555 1_555
C7 C6 1_555 1_555
H9 C7 1_555 1_555
C8 C7 1_555 1_555
H10 C8 1_555 1_555
C9 C8 1_555 1_555
H11 C9 1_555 1_555
C10 N2 1_555 1_555
H12 C10 1_555 1_555
C11 O1 1_555 1_555
C12 C11 1_555 1_555
C13 C12 1_555 1_555
C14 N3 1_555 1_555
H13 C14 1_555 1_555
C15 C14 1_555 1_555
H14 C15 1_555 1_555
C16 C12 1_555 1_555
H15 C16 1_555 1_555
C17 O3 1_555 1_555
C18 C17 1_555 1_555
C19 C18 1_555 1_555
C20 N4 1_555 1_555
H16 C20 1_555 1_555
C21 C20 1_555 1_555
H17 C21 1_555 1_555
C22 C18 1_555 1_555
H18 C22 1_555 1_555
H1A O5 1_555 1_555
H2A O6 1_555 1_555
Cu1A O5 1_555 1_555
Cl1A C13A 1_555 1_555
Cl2A C19A 1_555 1_555
N1A Cu1A 1_555 1_555
N2A Cu1A 1_555 1_555
N3A C13A 1_555 1_555
N4A C19A 1_555 1_555
O1A Cu1A 1_555 1_555
O2A C11A 1_555 1_555
O3A Cu1A 1_555 1_555
O4A C17A 1_555 1_555
C1A N1A 1_555 1_555
H3A C1A 1_555 1_555
C2A C1A 1_555 1_555
H4A C2A 1_555 1_555
C3A C2A 1_555 1_555
H5A C3A 1_555 1_555
C4A C3A 1_555 1_555
H6A C4A 1_555 1_555
C5A N1A 1_555 1_555
H7A C5A 1_555 1_555
C6A N2A 1_555 1_555
H8A C6A 1_555 1_555
C7A C6A 1_555 1_555
H9A C7A 1_555 1_555
C8A C7A 1_555 1_555
H10A C8A 1_555 1_555
C9A C8A 1_555 1_555
H11A C9A 1_555 1_555
C10A N2A 1_555 1_555
H12A C10A 1_555 1_555
C11A O1A 1_555 1_555
C12A C11A 1_555 1_555
C13A C12A 1_555 1_555
C14A N3A 1_555 1_555
H13A C14A 1_555 1_555
C15A C14A 1_555 1_555
H14A C15A 1_555 1_555
C16A C12A 1_555 1_555
H15A C16A 1_555 1_555
C17A O3A 1_555 1_555
C18A C17A 1_555 1_555
C19A C18A 1_555 1_555
C20A N4A 1_555 1_555
H16A C20A 1_555 1_555
C21A C20A 1_555 1_555
H17A C21A 1_555 1_555
C22A C18A 1_555 1_555
H18A C22A 1_555 1_555
Cu1A_2 O6 1_555 1_555
O6_2 Cu1A 1_555 1_555
C4 C5 1_555 1_555
C9 C10 1_555 1_555
C15 C16 1_555 1_555
C21 C22 1_555 1_555
C4A C5A 1_555 1_555
C9A C10A 1_555 1_555
C15A C16A 1_555 1_555
C21A C22A 1_555 1_555

#END
