
#######################################################################
#
#                 Cambridge Crystallographic Data Centre
#                                CCDC 
#
#######################################################################
#
# If this CIF has been generated from an entry in the Cambridge 
# Structural Database, then it will include bibliographic, chemical, 
# crystal, experimental, refinement or atomic coordinate data resulting 
# from the CCDC's data processing and validation procedures.
#
#######################################################################

data_MUNSEV
_symmetry_cell_setting           triclinic
_symmetry_space_group_name_H-M   'P -1'
_symmetry_Int_Tables_number      2
_space_group_name_Hall           '-P 1'
loop_
_symmetry_equiv_pos_site_id
_symmetry_equiv_pos_as_xyz
1 x,y,z
2 -x,-y,-z
_cell_length_a                   6.2697(8)
_cell_length_b                   7.8710(9)
_cell_length_c                   10.3291(12)
_cell_angle_alpha                104.422(10)
_cell_angle_beta                 100.544(10)
_cell_angle_gamma                105.079(10)
_cell_volume                     459.63
loop_
_atom_site_label
_atom_site_type_symbol
_atom_site_fract_x
_atom_site_fract_y
_atom_site_fract_z
Zn1 Zn 0.53989(7) 0.58809(5) 0.14946(4)
N1 N 0.5185(5) 0.6881(4) 0.3474(3)
O1 O 0.7221(4) 0.4124(3) 0.1699(3)
O2 O 0.6434(4) 0.2727(3) -0.0582(3)
O3 O 1.1675(4) 0.2209(3) -0.1478(3)
O4 O 1.2510(4) 0.3578(3) 0.0809(3)
C1 C 0.7018(7) 0.8004(6) 0.4471(4)
H1 H 0.8399 0.8339 0.4239
C2 C 0.7009(8) 0.8705(7) 0.5820(5)
H2 H 0.8333 0.9522 0.6481
C3 C 0.4980(8) 0.8162(7) 0.6169(5)
H3 H 0.4911 0.8593 0.7079
C4 C 0.3077(9) 0.6990(7) 0.5168(5)
H4 H 0.1695 0.6599 0.5388
C5 C 0.3214(7) 0.6382(6) 0.3816(5)
H5 H 0.1899 0.5605 0.3128
C6 C 0.7275(6) 0.2913(5) 0.0671(4)
C7 C 0.8337(6) 0.1476(5) 0.0944(4)
H6 H 0.7157 0.0447 0.1008
H7 H 0.9475 0.2016 0.1833
C8 C 0.9471(5) 0.0734(4) -0.0161(4)
H8 H 0.8306 0.0159 -0.1052
C9 C 1.1353(6) 0.2320(5) -0.0292(4)
O1A O 1.2779(4) -0.4124(3) -0.1699(3)
O2A O 1.3566(4) -0.2727(3) 0.0582(3)
C6A C 1.2725(6) -0.2913(5) -0.0671(4)
C7A C 1.1663(6) -0.1476(5) -0.0944(4)
H6A H 1.2843 -0.0447 -0.1008
H7A H 1.0525 -0.2016 -0.1833
C8A C 1.0529(5) -0.0734(4) 0.0161(4)
H8A H 1.1694 -0.0159 0.1052
O3A O 0.8325(4) -0.2209(3) 0.1478(3)
O4A O 0.7490(4) -0.3578(3) -0.0809(3)
C9A C 0.8647(6) -0.2320(5) 0.0292(4)
Zn1A Zn 0.46011(7) -0.58809(5) -0.14946(4)
N1A N 0.4815(5) -0.6881(4) -0.3474(3)
C1A C 0.2982(7) -0.8004(6) -0.4471(4)
H1A H 0.1601 -0.8339 -0.4239
C2A C 0.2991(8) -0.8705(7) -0.5820(5)
H2A H 0.1667 -0.9522 -0.6481
C3A C 0.5020(8) -0.8162(7) -0.6169(5)
H3A H 0.5089 -0.8593 -0.7079
C4A C 0.6923(9) -0.6990(7) -0.5168(5)
H4A H 0.8305 -0.6599 -0.5388
C5A C 0.6786(7) -0.6382(6) -0.3816(5)
H5A H 0.8101 -0.5605 -0.3128
Zn1_2 Zn 0.53989(7) -0.41191(5) 0.14946(4)
Zn1_3 Zn 1.53989(7) -0.41191(5) 0.14946(4)
Zn1_4 Zn 1.53989(7) 0.58809(5) 0.14946(4)
Zn1A_2 Zn 0.46011(7) 0.41191(5) -0.14946(4)
Zn1A_3 Zn 1.46011(7) -0.58809(5) -0.14946(4)
Zn1A_4 Zn 1.46011(7) 0.41191(5) -0.14946(4)
O1A_2 O 0.2779(4) -0.4124(3) -0.1699(3)
O2_2 O 0.6434(4) -0.7273(3) -0.0582(3)
O2A_2 O 0.3566(4) 0.7273(3) 0.0582(3)
O3_2 O 0.1675(4) -0.7791(3) -0.1478(3)
O3A_2 O 0.8325(4) 0.7791(3) 0.1478(3)
O4_2 O 0.2510(4) 0.3578(3) 0.0809(3)
loop_
_geom_bond_atom_site_label_1
_geom_bond_atom_site_label_2
_geom_bond_site_symmetry_1
_geom_bond_site_symmetry_2
Zn1 N1 1_555 1_555
N1 C1 1_555 1_555
O1 Zn1 1_555 1_555
O2 C6 1_555 1_555
O3 C9 1_555 1_555
O4 C9 1_555 1_555
C1 H1 1_555 1_555
C2 C1 1_555 1_555
H2 C2 1_555 1_555
C3 C2 1_555 1_555
H3 C3 1_555 1_555
C4 C3 1_555 1_555
H4 C4 1_555 1_555
C5 N1 1_555 1_555
H5 C5 1_555 1_555
C6 O1 1_555 1_555
C7 C6 1_555 1_555
H6 C7 1_555 1_555
H7 C7 1_555 1_555
C8 C7 1_555 1_555
H8 C8 1_555 1_555
C9 C8 1_555 1_555
O1A C6A 1_555 1_555
O2A C6A 1_555 1_555
C6A C7A 1_555 1_555
C7A H6A 1_555 1_555
H7A C7A 1_555 1_555
C8A C8 1_555 1_555
H8A C8A 1_555 1_555
O3A C9A 1_555 1_555
O4A C9A 1_555 1_555
C9A C8A 1_555 1_555
Zn1A O4A 1_555 1_555
N1A Zn1A 1_555 1_555
C1A N1A 1_555 1_555
H1A C1A 1_555 1_555
C2A C1A 1_555 1_555
H2A C2A 1_555 1_555
C3A C2A 1_555 1_555
H3A C3A 1_555 1_555
C4A C3A 1_555 1_555
H4A C4A 1_555 1_555
C5A N1A 1_555 1_555
H5A C5A 1_555 1_555
Zn1_2 O3A 1_555 1_555
Zn1_3 O2A 1_555 1_555
Zn1_4 O4 1_555 1_555
Zn1A_2 O2 1_555 1_555
Zn1A_3 O1A 1_555 1_555
Zn1A_4 O3 1_555 1_555
O1A_2 Zn1A 1_555 1_555
O2_2 Zn1A 1_555 1_555
O2A_2 Zn1 1_555 1_555
O3_2 Zn1A 1_555 1_555
O3A_2 Zn1 1_555 1_555
O4_2 Zn1 1_555 1_555
C4 C5 1_555 1_555
C7A C8A 1_555 1_555
C4A C5A 1_555 1_555

#END
