
#######################################################################
#
#                 Cambridge Crystallographic Data Centre
#                                CCDC 
#
#######################################################################
#
# If this CIF has been generated from an entry in the Cambridge 
# Structural Database, then it will include bibliographic, chemical, 
# crystal, experimental, refinement or atomic coordinate data resulting 
# from the CCDC's data processing and validation procedures.
#
#######################################################################

data_MUNVEY
_symmetry_cell_setting           monoclinic
_symmetry_space_group_name_H-M   'P 21/n'
_symmetry_Int_Tables_number      14
_space_group_name_Hall           '-P 2yn'
loop_
_symmetry_equiv_pos_site_id
_symmetry_equiv_pos_as_xyz
1 x,y,z
2 1/2-x,1/2+y,1/2-z
3 -x,-y,-z
4 1/2+x,1/2-y,1/2+z
_cell_length_a                   17.868(5)
_cell_length_b                   12.848(4)
_cell_length_c                   20.456(6)
_cell_angle_alpha                90
_cell_angle_beta                 109.646(3)
_cell_angle_gamma                90
_cell_volume                     4422.68
loop_
_atom_site_label
_atom_site_type_symbol
_atom_site_fract_x
_atom_site_fract_y
_atom_site_fract_z
Eu1 Eu 0.939614(11) 0.479094(14) 0.107860(9)
Eu2 Eu 0.791168(10) 0.520328(14) 0.226289(9)
C1 C 0.6104(2) 0.4629(3) 0.3238(2)
S1 S 1.11580(6) -0.01374(7) 0.43092(5)
O1 O 0.8634(2) 0.4575(3) -0.02216(17)
O2 O 1.0919(2) -0.0222(2) 0.49089(17)
C2 C 1.0771(2) -0.1217(3) 0.3756(2)
C3 C 1.0669(2) 0.0954(3) 0.3812(2)
C4 C 1.0014(3) -0.1579(4) 0.3679(3)
H1 H 0.9717 -0.1268 0.3922
C5 C 1.1217(2) -0.1671(4) 0.3394(2)
H2 H 1.1725 -0.1430 0.3449
C6 C 0.9554(3) 0.2092(4) 0.3443(2)
H3 H 0.9070 0.2317 0.3470
C7 C 0.9946(3) 0.1274(4) 0.3851(2)
H4 H 0.9727 0.0941 0.4148
C8 C 0.9873(2) 0.2584(3) 0.29927(19)
C9 C 1.1004(3) 0.1440(4) 0.3378(3)
H5 H 1.1491 0.1220 0.3358
C10 C 1.0602(3) 0.2265(4) 0.2969(3)
H6 H 1.0825 0.2605 0.2678
C11 C 0.9426(2) 0.3448(3) 0.2521(2)
O3 O 0.97224(17) 0.3803(2) 0.20907(14)
O4 O 0.87810(17) 0.3738(2) 0.25824(16)
C12 C 0.7848(2) 0.6505(3) 0.0793(2)
O5 O 0.75640(18) 0.6141(2) 0.12293(15)
O6 O 0.84896(17) 0.6225(2) 0.07203(16)
C13 C 0.6671(3) 0.7685(4) 0.0388(3)
H7 H 0.6461 0.7327 0.0682
C14 C 0.7392(2) 0.7376(3) 0.0343(2)
C15 C 0.7686(3) 0.7903(4) -0.0119(2)
H8 H 0.8165 0.7696 -0.0164
O7 O 0.8604(2) 0.5306(3) 0.35340(17)
H9 H 0.8323 0.4909 0.3689
H10 H 0.9019 0.5466 0.3878
O8 O 0.72061(19) 0.4026(2) 0.29232(18)
O9 O 0.6758(2) 0.5572(3) 0.2592(2)
O10 O 1.19897(18) -0.0062(2) 0.44008(19)
O11 O 0.9556(2) 0.2989(3) 0.0713(2)
O12 O 0.7757(3) 0.7055(3) 0.2547(2)
O13 O 0.9880(3) 0.6090(3) 0.0407(2)
C16 C 0.6558(2) 0.9038(3) -0.0435(2)
C17 C 0.7273(3) 0.8724(4) -0.0506(2)
H11 H 0.7470 0.9068 -0.0814
C18 C 0.6728(2) 0.4742(3) 0.2899(2)
C19 C 0.4918(2) 0.4408(3) 0.3807(2)
C20 C 0.5954(3) 0.3667(3) 0.3466(2)
H12 H 0.6257 0.3095 0.3430
C21 C 0.5354(3) 0.3545(3) 0.3750(3)
H13 H 0.5248 0.2895 0.3898
S2 S 0.41234(6) 0.42576(10) 0.41286(6)
O14 O 0.4019(2) 0.5203(3) 0.44590(19)
O15 O 0.4227(2) 0.3276(3) 0.44984(18)
C22 C 0.2891(3) 0.4962(4) 0.3002(3)
H14 H 0.3075 0.5627 0.3152
C23 C 0.3282(2) 0.4099(4) 0.3366(2)
S3 S 0.60463(7) 1.01236(8) -0.09093(6)
O16 O 0.6227(3) 1.0209(3) -0.15351(17)
O17 O 0.5228(2) 1.0049(2) -0.0943(2)
C24 C 0.6465(2) 1.1200(3) -0.0367(2)
C25 C 0.6255(3) 0.8510(4) 0.0008(3)
H15 H 0.5773 0.8710 0.0049
C26 C 0.1962(2) 0.3839(4) 0.2182(2)
C27 C 0.2223(3) 0.4833(4) 0.2414(3)
H16 H 0.1952 0.5412 0.2177
C28 C 0.2362(3) 0.2989(4) 0.2550(3)
H17 H 0.2185 0.2323 0.2395
C29 C 0.3017(3) 0.3101(4) 0.3143(3)
H18 H 0.3276 0.2521 0.3387
C30 C 0.5067(3) 0.5378(4) 0.3593(3)
H19 H 0.4770 0.5950 0.3638
C31 C 0.6421(3) 1.2459(4) 0.0462(3)
H20 H 0.6146 1.2763 0.0726
C32 C 0.6079(3) 1.1645(4) 0.0022(3)
H21 H 0.5579 1.1405 -0.0006
C33 C 0.7183(4) 1.1576(5) -0.0353(4)
H22 H 0.7440 1.1288 -0.0638
C34 C 0.7529(3) 1.2393(5) 0.0092(4)
H23 H 0.8019 1.2652 0.0102
C35 C 0.5664(3) 0.5490(4) 0.3309(3)
H24 H 0.5772 0.6143 0.3166
C36 C 1.0136(2) -0.2853(3) 0.2860(2)
C37 C 0.9708(3) -0.2405(4) 0.3240(3)
H25 H 0.9207 -0.2663 0.3198
C38 C 1.0891(2) -0.2495(3) 0.2946(2)
H26 H 1.1186 -0.2807 0.2701
C39 C 0.7156(2) 1.2824(3) 0.0515(2)
C40 C 0.7525(2) 1.3688(3) 0.1022(2)
O18 O 0.7182(2) 1.3958(3) 0.14368(16)
O19 O 0.81758(18) 1.4074(2) 0.10196(18)
C41 C 0.1231(2) 0.3654(4) 0.1550(2)
O20 O 0.1076(2) 0.2737(3) 0.1358(2)
C42 C 0.9778(2) -0.3692(3) 0.2332(2)
O21 O 1.01190(18) -0.3923(2) 0.19089(15)
O22 O 0.08177(17) 0.4452(3) 0.12642(17)
O23 O 0.91274(17) -0.4098(2) 0.23081(17)
H27 H 1.006(4) 0.281(5) 0.090(3)
H28 H 0.938(4) 0.262(5) 0.043(3)
H29 H 0.816(4) 0.460(5) -0.033(3)
H30 H 0.878(5) 0.486(6) -0.058(4)
H31 H 0.749(4) 0.709(6) 0.269(4)
H32 H 0.778(4) 0.758(6) 0.235(3)
H33 H 0.975(9) 0.633(13) 0.008(8)
H34 H 1.024(6) 0.634(8) 0.057(6)
Eu1_2 Eu -0.060386(11) 0.479094(14) 0.107860(9)
Eu1_3 Eu 0.939614(11) -0.520906(14) 0.107860(9)
Eu1_4 Eu 0.939614(11) 1.479094(14) 0.107860(9)
Eu2_2 Eu 0.791168(10) -0.479672(14) 0.226289(9)
Eu2_3 Eu 0.791168(10) 1.520328(14) 0.226289(9)
O18_2 O 0.7182(2) 0.3958(3) 0.14368(16)
O19_2 O 0.81758(18) 0.4074(2) 0.10196(18)
O21_2 O 1.01190(18) 0.6077(2) 0.19089(15)
O22_2 O 1.08177(17) 0.4452(3) 0.12642(17)
O23_2 O 0.91274(17) 0.5902(2) 0.23081(17)
loop_
_geom_bond_atom_site_label_1
_geom_bond_atom_site_label_2
_geom_bond_site_symmetry_1
_geom_bond_site_symmetry_2
Eu1 O1 1_555 1_555
Eu2 O4 1_555 1_555
C1 C18 1_555 1_555
S1 O2 1_555 1_555
O1 H29 1_555 1_555
C2 S1 1_555 1_555
C3 S1 1_555 1_555
C4 C2 1_555 1_555
H1 C4 1_555 1_555
C5 C2 1_555 1_555
H2 C5 1_555 1_555
C6 H3 1_555 1_555
C7 C3 1_555 1_555
H4 C7 1_555 1_555
C8 C6 1_555 1_555
C9 C3 1_555 1_555
H5 C9 1_555 1_555
C10 C8 1_555 1_555
H6 C10 1_555 1_555
C11 C8 1_555 1_555
O3 Eu1 1_555 1_555
O4 C11 1_555 1_555
C12 O5 1_555 1_555
O5 Eu2 1_555 1_555
O6 Eu1 1_555 1_555
C13 H7 1_555 1_555
C14 C12 1_555 1_555
C15 C14 1_555 1_555
H8 C15 1_555 1_555
O7 Eu2 1_555 1_555
H9 O7 1_555 1_555
H10 O7 1_555 1_555
O8 Eu2 1_555 1_555
O9 Eu2 1_555 1_555
O10 S1 1_555 1_555
O11 Eu1 1_555 1_555
O12 Eu2 1_555 1_555
O13 Eu1 1_555 1_555
C16 C17 1_555 1_555
C17 C15 1_555 1_555
H11 C17 1_555 1_555
C18 O8 1_555 1_555
C19 C21 1_555 1_555
C20 C1 1_555 1_555
H12 C20 1_555 1_555
C21 C20 1_555 1_555
H13 C21 1_555 1_555
S2 C19 1_555 1_555
O14 S2 1_555 1_555
O15 S2 1_555 1_555
C22 H14 1_555 1_555
C23 S2 1_555 1_555
S3 C16 1_555 1_555
O16 S3 1_555 1_555
O17 S3 1_555 1_555
C24 S3 1_555 1_555
C25 C13 1_555 1_555
H15 C25 1_555 1_555
C26 C27 1_555 1_555
C27 C22 1_555 1_555
H16 C27 1_555 1_555
C28 C26 1_555 1_555
H17 C28 1_555 1_555
C29 C23 1_555 1_555
H18 C29 1_555 1_555
C30 C19 1_555 1_555
H19 C30 1_555 1_555
C31 H20 1_555 1_555
C32 C24 1_555 1_555
H21 C32 1_555 1_555
C33 C24 1_555 1_555
H22 C33 1_555 1_555
C34 C33 1_555 1_555
H23 C34 1_555 1_555
C35 C1 1_555 1_555
H24 C35 1_555 1_555
C36 C37 1_555 1_555
C37 C4 1_555 1_555
H25 C37 1_555 1_555
C38 C5 1_555 1_555
H26 C38 1_555 1_555
C39 C31 1_555 1_555
C40 C39 1_555 1_555
O18 C40 1_555 1_555
O19 C40 1_555 1_555
C41 C26 1_555 1_555
O20 C41 1_555 1_555
C42 C36 1_555 1_555
O21 C42 1_555 1_555
O22 C41 1_555 1_555
O23 C42 1_555 1_555
H27 O11 1_555 1_555
H28 O11 1_555 1_555
H30 O1 1_555 1_555
H31 O12 1_555 1_555
H32 O12 1_555 1_555
H33 O13 1_555 1_555
H34 O13 1_555 1_555
Eu1_2 O22 1_555 1_555
Eu1_3 O21 1_555 1_555
Eu1_4 O19 1_555 1_555
Eu2_2 O23 1_555 1_555
Eu2_3 O18 1_555 1_555
O18_2 Eu2 1_555 1_555
O19_2 Eu1 1_555 1_555
O21_2 Eu1 1_555 1_555
O22_2 Eu1 1_555 1_555
O23_2 Eu2 1_555 1_555
C6 C7 1_555 1_555
C9 C10 1_555 1_555
C11 O3 1_555 1_555
C12 O6 1_555 1_555
C13 C14 1_555 1_555
O9 C18 1_555 1_555
C16 C25 1_555 1_555
C22 C23 1_555 1_555
C28 C29 1_555 1_555
C30 C35 1_555 1_555
C31 C32 1_555 1_555
C34 C39 1_555 1_555
C36 C38 1_555 1_555

#END
