
#######################################################################
#
#                 Cambridge Crystallographic Data Centre
#                                CCDC 
#
#######################################################################
#
# If this CIF has been generated from an entry in the Cambridge 
# Structural Database, then it will include bibliographic, chemical, 
# crystal, experimental, refinement or atomic coordinate data resulting 
# from the CCDC's data processing and validation procedures.
#
#######################################################################

data_MUNVIC
_symmetry_cell_setting           monoclinic
_symmetry_space_group_name_H-M   'P 21/n'
_symmetry_Int_Tables_number      14
_space_group_name_Hall           '-P 2yn'
loop_
_symmetry_equiv_pos_site_id
_symmetry_equiv_pos_as_xyz
1 x,y,z
2 1/2-x,1/2+y,1/2-z
3 -x,-y,-z
4 1/2+x,1/2-y,1/2+z
_cell_length_a                   17.8594(13)
_cell_length_b                   12.7942(9)
_cell_length_c                   20.4258(14)
_cell_angle_alpha                90
_cell_angle_beta                 109.6700(10)
_cell_angle_gamma                90
_cell_volume                     4394.88
loop_
_atom_site_label
_atom_site_type_symbol
_atom_site_fract_x
_atom_site_fract_y
_atom_site_fract_z
Gd1 Gd 0.440117(14) 0.020939(18) 0.107772(12)
Gd2 Gd 0.291354(14) -0.019735(17) 0.226495(12)
S1 S 0.61665(8) 0.51311(9) 0.43109(7)
O1 O 0.4725(2) 0.1192(3) 0.20880(19)
O2 O 0.3782(2) 0.1265(3) 0.2579(2)
C1 C 0.5681(3) 0.4040(4) 0.3812(3)
C2 C 0.4429(3) 0.1546(4) 0.2513(3)
C3 C 0.4560(4) 0.2900(5) 0.3441(3)
H1 H 0.4072 0.2680 0.3461
C4 C 0.4884(3) 0.2407(4) 0.2994(3)
C5 C 0.4957(4) 0.3715(4) 0.3857(3)
H2 H 0.4744 0.4042 0.4161
C6 C 0.6011(4) 0.3544(5) 0.3381(3)
H3 H 0.6505 0.3750 0.3366
O3 O 0.5931(3) 0.5212(3) 0.4911(2)
O4 O 0.7000(3) 0.5060(3) 0.4397(2)
C7 C 0.5782(3) 0.6216(4) 0.3753(3)
C8 C 0.6212(4) 0.6665(4) 0.3393(3)
H4 H 0.6720 0.6424 0.3445
C9 C 0.5024(4) 0.6572(5) 0.3692(3)
H5 H 0.4734 0.6262 0.3943
O5 O 0.2571(2) -0.1132(3) 0.12354(19)
O6 O 0.3494(2) -0.1222(3) 0.07273(18)
C10 C 0.2859(3) -0.1500(4) 0.0800(3)
C11 C 0.2393(3) -0.2371(4) 0.0345(3)
C12 C 0.2686(4) -0.2890(4) -0.0110(3)
H6 H 0.3168 -0.2684 -0.0151
C13 C 0.4712(4) 0.7400(5) 0.3248(3)
H7 H 0.4211 0.7656 0.3207
C14 C 0.4770(3) 0.8690(4) 0.2338(3)
C15 C 0.5131(3) 0.7856(4) 0.2865(3)
O7 O 0.4121(2) 0.9092(3) 0.2326(2)
O8 O 0.5108(2) 0.8928(3) 0.19136(19)
C16 C 0.1677(4) -0.2679(5) 0.0403(3)
H8 H 0.1475 -0.2323 0.0703
O9 O 0.2202(2) 0.0990(3) 0.2913(2)
O10 O 0.1749(3) -0.0551(4) 0.2568(3)
C17 C 0.1719(3) 0.0272(4) 0.2880(3)
C18 C 0.5885(4) 0.7487(5) 0.2945(3)
H9 H 0.6177 0.7794 0.2695
C19 C 0.5598(3) 0.2730(5) 0.2965(3)
H10 H 0.5812 0.2401 0.2662
C20 C 0.1558(3) -0.4029(4) -0.0428(3)
C21 C 0.2267(4) -0.3719(5) -0.0508(3)
H11 H 0.2459 -0.4059 -0.0821
C22 C 0.1254(4) -0.3510(4) 0.0020(3)
H12 H 0.0774 -0.3716 0.0063
C23 C 0.1108(4) 0.0380(4) 0.3232(3)
C24 C 0.0949(3) 0.1337(4) 0.3466(3)
H13 H 0.1248 0.1917 0.3431
S2 S 0.10387(9) -0.51130(9) -0.09050(7)
O11 O 0.0218(3) -0.5042(3) -0.0928(3)
O12 O 0.1212(3) -0.5191(3) -0.1536(2)
C25 C 0.1464(3) -0.6194(4) -0.0369(3)
C26 C -0.0081(3) 0.0586(5) 0.3807(3)
C27 C 0.0357(3) 0.1448(5) 0.3747(3)
H14 H 0.0251 0.2100 0.3898
C28 C 0.0074(4) -0.0387(5) 0.3587(4)
H15 H -0.0214 -0.0968 0.3638
S3 S -0.08740(8) 0.07257(12) 0.41323(7)
C29 C 0.0666(4) -0.0489(5) 0.3288(4)
H16 H 0.0765 -0.1135 0.3126
C30 C -0.2111(4) 0.0015(5) 0.3009(3)
H17 H -0.1929 -0.0654 0.3159
C31 C -0.1717(3) 0.0887(5) 0.3372(3)
C32 C -0.1983(3) 0.1886(5) 0.3147(3)
H18 H -0.1727 0.2469 0.3395
O13 O -0.0971(3) -0.0224(4) 0.4457(2)
O14 O -0.0768(2) 0.1698(4) 0.4507(2)
C33 C 0.2162(3) -0.7818(4) 0.0512(3)
C34 C 0.1436(4) -0.7445(5) 0.0473(4)
H19 H 0.1171 -0.7745 0.0747
C35 C 0.1085(4) -0.6634(5) 0.0035(3)
H20 H 0.0588 -0.6389 0.0016
C36 C 0.2178(5) -0.6574(6) -0.0352(5)
H21 H 0.2436 -0.6279 -0.0634
C37 C 0.2523(4) -0.7395(6) 0.0081(4)
H22 H 0.3007 -0.7663 0.0081
C38 C 0.2545(3) -0.8675(4) 0.1024(3)
O15 O 0.2207(2) -0.8953(3) 0.1439(2)
C39 C -0.3036(3) 0.1146(4) 0.2189(3)
C40 C -0.2777(4) 0.0152(5) 0.2422(3)
H23 H -0.3051 -0.0428 0.2184
C41 C -0.2634(3) 0.2000(5) 0.2550(3)
H24 H -0.2805 0.2668 0.2389
C42 C -0.3760(3) 0.1324(5) 0.1559(3)
O16 O -0.4180(2) 0.0535(3) 0.12706(19)
O17 O -0.3917(3) 0.2246(4) 0.1354(3)
O18 O 0.3187(2) -0.9064(3) 0.1008(2)
O19 O 0.3641(2) 0.0417(3) -0.02162(19)
H25 H 0.3159 0.0240 -0.0302
H26 H 0.3824 0.0069 -0.0482
O20 O 0.2760(2) -0.2042(3) 0.25589(19)
H27 H 0.2548 -0.2431 0.2208
H28 H 0.2435 -0.1990 0.2780
O21 O 0.3608(3) -0.0290(3) 0.3531(3)
H29 H 0.353(5) 0.018(5) 0.361(4)
H30 H 0.337(3) -0.064(4) 0.379(2)
O22 O 0.4569(2) 0.1990(3) 0.06972(19)
H31 H 0.4278 0.2499 0.0732
H32 H 0.5052 0.2193 0.0865
O23 O 0.4886(2) -0.1097(3) 0.04242(19)
H33 H 0.4720 -0.1514 0.0081
H34 H 0.5362 -0.0934 0.0471
Gd1_2 Gd -0.559883(14) 0.020939(18) 0.107772(12)
Gd1_3 Gd 0.440117(14) -0.979061(18) 0.107772(12)
Gd1_4 Gd 0.440117(14) 1.020939(18) 0.107772(12)
Gd2_2 Gd 0.291354(14) -1.019735(17) 0.226495(12)
Gd2_3 Gd 0.291354(14) 0.980265(17) 0.226495(12)
O7_2 O 0.4121(2) -0.0908(3) 0.2326(2)
O8_2 O 0.5108(2) -0.1072(3) 0.19136(19)
O15_2 O 0.2207(2) 0.1047(3) 0.1439(2)
O16_2 O 0.5820(2) 0.0535(3) 0.12706(19)
O18_2 O 0.3187(2) 0.0936(3) 0.1008(2)
loop_
_geom_bond_atom_site_label_1
_geom_bond_atom_site_label_2
_geom_bond_site_symmetry_1
_geom_bond_site_symmetry_2
Gd1 O1 1_555 1_555
Gd2 O2 1_555 1_555
S1 C1 1_555 1_555
O1 C2 1_555 1_555
O2 C2 1_555 1_555
C1 C5 1_555 1_555
C2 C4 1_555 1_555
C3 H1 1_555 1_555
C4 C3 1_555 1_555
C5 C3 1_555 1_555
H2 C5 1_555 1_555
C6 C1 1_555 1_555
H3 C6 1_555 1_555
O3 S1 1_555 1_555
O4 S1 1_555 1_555
C7 S1 1_555 1_555
C8 C7 1_555 1_555
H4 C8 1_555 1_555
C9 C7 1_555 1_555
H5 C9 1_555 1_555
O5 Gd2 1_555 1_555
O6 Gd1 1_555 1_555
C10 O5 1_555 1_555
C11 C10 1_555 1_555
C12 C11 1_555 1_555
H6 C12 1_555 1_555
C13 C9 1_555 1_555
H7 C13 1_555 1_555
C14 C15 1_555 1_555
C15 C13 1_555 1_555
O7 C14 1_555 1_555
O8 C14 1_555 1_555
C16 C11 1_555 1_555
H8 C16 1_555 1_555
O9 Gd2 1_555 1_555
O10 Gd2 1_555 1_555
C17 O9 1_555 1_555
C18 C8 1_555 1_555
H9 C18 1_555 1_555
C19 C4 1_555 1_555
H10 C19 1_555 1_555
C20 C21 1_555 1_555
C21 C12 1_555 1_555
H11 C21 1_555 1_555
C22 C16 1_555 1_555
H12 C22 1_555 1_555
C23 C17 1_555 1_555
C24 C23 1_555 1_555
H13 C24 1_555 1_555
S2 C20 1_555 1_555
O11 S2 1_555 1_555
O12 S2 1_555 1_555
C25 S2 1_555 1_555
C26 C27 1_555 1_555
C27 C24 1_555 1_555
H14 C27 1_555 1_555
C28 C26 1_555 1_555
H15 C28 1_555 1_555
S3 C26 1_555 1_555
C29 C23 1_555 1_555
H16 C29 1_555 1_555
C30 H17 1_555 1_555
C31 S3 1_555 1_555
C32 C31 1_555 1_555
H18 C32 1_555 1_555
O13 S3 1_555 1_555
O14 S3 1_555 1_555
C33 C34 1_555 1_555
C34 H19 1_555 1_555
C35 C25 1_555 1_555
H20 C35 1_555 1_555
C36 C25 1_555 1_555
H21 C36 1_555 1_555
C37 C33 1_555 1_555
H22 C37 1_555 1_555
C38 C33 1_555 1_555
O15 C38 1_555 1_555
C39 C40 1_555 1_555
C40 C30 1_555 1_555
H23 C40 1_555 1_555
C41 C32 1_555 1_555
H24 C41 1_555 1_555
C42 C39 1_555 1_555
O16 C42 1_555 1_555
O17 C42 1_555 1_555
O18 C38 1_555 1_555
O19 Gd1 1_555 1_555
H25 O19 1_555 1_555
H26 O19 1_555 1_555
O20 Gd2 1_555 1_555
H27 O20 1_555 1_555
H28 O20 1_555 1_555
O21 Gd2 1_555 1_555
H29 O21 1_555 1_555
H30 O21 1_555 1_555
O22 Gd1 1_555 1_555
H31 O22 1_555 1_555
H32 O22 1_555 1_555
O23 Gd1 1_555 1_555
H33 O23 1_555 1_555
H34 O23 1_555 1_555
Gd1_2 O16 1_555 1_555
Gd1_3 O18 1_555 1_555
Gd1_4 O8 1_555 1_555
Gd2_2 O15 1_555 1_555
Gd2_3 O7 1_555 1_555
O7_2 Gd2 1_555 1_555
O8_2 Gd1 1_555 1_555
O15_2 Gd2 1_555 1_555
O16_2 Gd1 1_555 1_555
O18_2 Gd1 1_555 1_555
C6 C19 1_555 1_555
O6 C10 1_555 1_555
C15 C18 1_555 1_555
O10 C17 1_555 1_555
C20 C22 1_555 1_555
C28 C29 1_555 1_555
C30 C31 1_555 1_555
C34 C35 1_555 1_555
C36 C37 1_555 1_555
C39 C41 1_555 1_555

#END
