
#######################################################################
#
#                 Cambridge Crystallographic Data Centre
#                                CCDC 
#
#######################################################################
#
# If this CIF has been generated from an entry in the Cambridge 
# Structural Database, then it will include bibliographic, chemical, 
# crystal, experimental, refinement or atomic coordinate data resulting 
# from the CCDC's data processing and validation procedures.
#
#######################################################################

data_MUNVOI
_symmetry_cell_setting           monoclinic
_symmetry_space_group_name_H-M   'P 21/n'
_symmetry_Int_Tables_number      14
_space_group_name_Hall           '-P 2yn'
loop_
_symmetry_equiv_pos_site_id
_symmetry_equiv_pos_as_xyz
1 x,y,z
2 1/2-x,1/2+y,1/2-z
3 -x,-y,-z
4 1/2+x,1/2-y,1/2+z
_cell_length_a                   17.855(5)
_cell_length_b                   12.782(4)
_cell_length_c                   20.417(6)
_cell_angle_alpha                90
_cell_angle_beta                 109.538(3)
_cell_angle_gamma                90
_cell_volume                     4391.32
loop_
_atom_site_label
_atom_site_type_symbol
_atom_site_fract_x
_atom_site_fract_y
_atom_site_fract_z
Tb1 Tb 0.440749(15) 1.02058(2) 0.107706(13)
Tb2 Tb 0.291797(15) 0.98109(2) 0.226668(13)
S1 S 0.61757(9) 0.51225(11) 0.43149(8)
C1 C 0.5780(4) 0.6207(5) 0.3761(3)
O1 O 0.4118(2) 0.9094(4) 0.2347(2)
C2 C 0.4722(5) 0.7413(6) 0.3268(4)
H1 H 0.4234 0.7690 0.3250
O2 O 0.5093(3) 0.8931(3) 0.1914(2)
C3 C 0.5884(4) 0.7476(5) 0.2942(4)
H2 H 0.6175 0.7790 0.2693
C4 C 0.5128(3) 0.7841(5) 0.2864(3)
C5 C 0.4760(3) 0.8690(5) 0.2343(3)
C6 C 0.6210(4) 0.6651(5) 0.3384(4)
H3 H 0.6713 0.6399 0.3427
C7 C 0.5039(4) 0.6578(6) 0.3696(4)
H4 H 0.4747 0.6263 0.3944
C8 C 0.5689(3) 0.4032(4) 0.3816(3)
C9 C 0.6019(4) 0.3537(5) 0.3375(4)
H5 H 0.6508 0.3752 0.3355
C10 C 0.4972(4) 0.3707(6) 0.3860(4)
H6 H 0.4760 0.4030 0.4167
O3 O 0.5934(3) 0.5199(3) 0.4912(2)
O4 O 0.7011(3) 0.5057(4) 0.4398(3)
C11 C 0.4568(4) 0.2886(5) 0.3438(3)
H7 H 0.4078 0.2670 0.3459
O5 O 0.2214(3) 1.1005(4) 0.2918(3)
O6 O 0.1736(3) 0.9476(5) 0.2534(3)
C12 C 0.1713(4) 1.0286(5) 0.2870(4)
C13 C 0.4888(3) 0.2389(5) 0.2989(3)
C14 C 0.4428(3) 0.1543(4) 0.2511(3)
O7 O 0.4730(2) 0.1187(3) 0.2085(2)
O8 O 0.3785(2) 0.1261(3) 0.2571(2)
O9 O 0.2236(3) 1.1049(4) 0.1444(2)
O10 O 0.3201(3) 1.0947(4) 0.0997(2)
C15 C 0.2558(3) 1.1333(5) 0.1015(3)
C16 C 0.2167(4) 1.2186(5) 0.0517(3)
C17 C 0.1451(4) 1.2567(6) 0.0489(4)
H8 H 0.1195 1.2269 0.0772
C18 C 0.5615(4) 0.2720(5) 0.2965(4)
H9 H 0.5836 0.2387 0.2667
C19 C 0.1461(4) 1.3805(5) -0.0365(3)
C20 C 0.2164(5) 1.3420(7) -0.0379(5)
H10 H 0.2402 1.3700 -0.0681
C21 C 0.1084(4) 1.3381(6) 0.0055(4)
H11 H 0.0593 1.3633 0.0049
S2 S -0.08692(9) 1.07003(15) 0.41351(8)
C22 C 0.0951(4) 1.1333(5) 0.3464(3)
H12 H 0.1256 1.1912 0.3439
C23 C -0.0073(4) 1.0567(5) 0.3806(3)
C24 C 0.0357(4) 1.1438(6) 0.3755(4)
H13 H 0.0251 1.2085 0.3913
O11 O -0.0964(3) 0.9741(5) 0.4459(3)
O12 O -0.0766(3) 1.1677(5) 0.4516(2)
C25 C -0.2108(5) 0.9992(7) 0.3013(4)
H14 H -0.1920 0.9325 0.3162
C26 C -0.1718(4) 1.0874(6) 0.3374(3)
C27 C -0.1977(4) 1.1874(6) 0.3156(4)
H15 H -0.1720 1.2456 0.3404
C28 C 0.1098(4) 1.0380(6) 0.3212(4)
S3 S 0.10277(10) 1.48990(12) -0.08967(8)
O13 O 0.0211(3) 1.4974(4) -0.0913(3)
O14 O 0.1189(4) 1.4826(4) -0.1533(2)
C29 C 0.1557(4) 1.5990(5) -0.0417(3)
C30 C 0.2395(4) 1.7635(5) 0.0355(3)
C31 C 0.1676(4) 1.7343(6) 0.0410(4)
H16 H 0.1471 1.7709 0.0706
C32 C 0.2684(4) 1.7107(6) -0.0112(4)
H17 H 0.3164 1.7308 -0.0158
C33 C 0.1256(4) 1.6508(6) 0.0030(4)
H18 H 0.0777 1.6300 0.0076
C34 C 0.2261(4) 1.6299(5) -0.0499(3)
H19 H 0.2447 1.5957 -0.0817
C35 C -0.3034(4) 1.1126(5) 0.2197(3)
C36 C -0.2779(4) 1.0122(6) 0.2432(4)
H20 H -0.3057 0.9541 0.2200
C37 C -0.2626(4) 1.1984(6) 0.2565(3)
H21 H -0.2797 1.2653 0.2406
C38 C -0.3765(4) 1.1324(6) 0.1559(3)
O15 O -0.4178(3) 1.0521(4) 0.1274(2)
O16 O -0.3906(3) 1.2245(4) 0.1363(3)
C39 C 0.2863(3) 1.8509(5) 0.0809(3)
O17 O 0.3506(3) 1.8780(3) 0.0733(2)
O18 O 0.2582(3) 1.8880(3) 0.1243(2)
O19 O 0.3643(3) 1.0400(4) -0.0215(2)
H22 H 0.3725 0.9879 -0.0441
H23 H 0.3906 1.0914 -0.0289
O20 O 0.3570(3) 0.9751(4) 0.3528(2)
H24 H 0.3643 0.9695 0.3961
H25 H 0.4022 0.9774 0.3479
O21 O 0.2763(3) 0.7976(3) 0.2570(2)
H26 H 0.2561 0.7559 0.2229
H27 H 0.2434 0.8029 0.2787
O22 O 0.4590(3) 1.1975(4) 0.0691(2)
H28 H 0.5004 1.2303 0.0692
H29 H 0.4299 1.2399 0.0819
O23 O 0.4891(3) 0.8909(4) 0.0431(2)
H30 H 0.4856 0.8295 0.0579
H31 H 0.5016 0.8851 0.0066
C40 C 0.0074(4) 0.9597(6) 0.3583(5)
H32 H -0.0211 0.9012 0.3636
C41 C 0.2526(5) 1.2599(7) 0.0066(5)
H33 H 0.3007 1.2328 0.0061
C42 C 0.0668(5) 0.9515(7) 0.3273(5)
H34 H 0.0769 0.8872 0.3108
Tb1_2 Tb -0.559251(15) 1.02058(2) 0.107706(13)
Tb1_3 Tb 0.440749(15) 0.02058(2) 0.107706(13)
Tb1_4 Tb 0.440749(15) 2.02058(2) 0.107706(13)
Tb2_2 Tb 0.291797(15) -0.01891(2) 0.226668(13)
Tb2_3 Tb 0.291797(15) 1.98109(2) 0.226668(13)
O7_2 O 0.4730(2) 1.1187(3) 0.2085(2)
O8_2 O 0.3785(2) 1.1261(3) 0.2571(2)
O15_2 O 0.5822(3) 1.0521(4) 0.1274(2)
O17_2 O 0.3506(3) 0.8780(3) 0.0733(2)
O18_2 O 0.2582(3) 0.8880(3) 0.1243(2)
loop_
_geom_bond_atom_site_label_1
_geom_bond_atom_site_label_2
_geom_bond_site_symmetry_1
_geom_bond_site_symmetry_2
Tb1 O2 1_555 1_555
Tb2 O1 1_555 1_555
S1 C1 1_555 1_555
C1 C6 1_555 1_555
O1 C5 1_555 1_555
C2 H1 1_555 1_555
O2 C5 1_555 1_555
C3 H2 1_555 1_555
C4 C2 1_555 1_555
C5 C4 1_555 1_555
C6 C3 1_555 1_555
H3 C6 1_555 1_555
C7 C1 1_555 1_555
H4 C7 1_555 1_555
C8 S1 1_555 1_555
C9 C8 1_555 1_555
H5 C9 1_555 1_555
C10 C8 1_555 1_555
H6 C10 1_555 1_555
O3 S1 1_555 1_555
O4 S1 1_555 1_555
C11 C10 1_555 1_555
H7 C11 1_555 1_555
O5 Tb2 1_555 1_555
O6 Tb2 1_555 1_555
C12 O5 1_555 1_555
C13 C11 1_555 1_555
C14 C13 1_555 1_555
O7 C14 1_555 1_555
O8 C14 1_555 1_555
O9 Tb2 1_555 1_555
O10 Tb1 1_555 1_555
C15 O9 1_555 1_555
C16 C15 1_555 1_555
C17 C16 1_555 1_555
H8 C17 1_555 1_555
C18 C9 1_555 1_555
H9 C18 1_555 1_555
C19 C20 1_555 1_555
C20 H10 1_555 1_555
C21 C17 1_555 1_555
H11 C21 1_555 1_555
S2 C23 1_555 1_555
C22 H12 1_555 1_555
C23 C24 1_555 1_555
C24 C22 1_555 1_555
H13 C24 1_555 1_555
O11 S2 1_555 1_555
O12 S2 1_555 1_555
C25 H14 1_555 1_555
C26 S2 1_555 1_555
C27 C26 1_555 1_555
H15 C27 1_555 1_555
C28 C12 1_555 1_555
S3 C19 1_555 1_555
O13 S3 1_555 1_555
O14 S3 1_555 1_555
C29 S3 1_555 1_555
C30 C31 1_555 1_555
C31 H16 1_555 1_555
C32 C30 1_555 1_555
H17 C32 1_555 1_555
C33 C29 1_555 1_555
H18 C33 1_555 1_555
C34 C29 1_555 1_555
H19 C34 1_555 1_555
C35 C36 1_555 1_555
C36 C25 1_555 1_555
H20 C36 1_555 1_555
C37 C27 1_555 1_555
H21 C37 1_555 1_555
C38 C35 1_555 1_555
O15 C38 1_555 1_555
O16 C38 1_555 1_555
C39 C30 1_555 1_555
O17 C39 1_555 1_555
O18 C39 1_555 1_555
O19 Tb1 1_555 1_555
H22 O19 1_555 1_555
H23 O19 1_555 1_555
O20 Tb2 1_555 1_555
H24 O20 1_555 1_555
H25 O20 1_555 1_555
O21 Tb2 1_555 1_555
H26 O21 1_555 1_555
H27 O21 1_555 1_555
O22 Tb1 1_555 1_555
H28 O22 1_555 1_555
H29 O22 1_555 1_555
O23 Tb1 1_555 1_555
H30 O23 1_555 1_555
H31 O23 1_555 1_555
C40 C23 1_555 1_555
H32 C40 1_555 1_555
C41 C16 1_555 1_555
H33 C41 1_555 1_555
C42 C28 1_555 1_555
H34 C42 1_555 1_555
Tb1_2 O15 1_555 1_555
Tb1_3 O7 1_555 1_555
Tb1_4 O17 1_555 1_555
Tb2_2 O8 1_555 1_555
Tb2_3 O18 1_555 1_555
O7_2 Tb1 1_555 1_555
O8_2 Tb2 1_555 1_555
O15_2 Tb1 1_555 1_555
O17_2 Tb1 1_555 1_555
O18_2 Tb2 1_555 1_555
C2 C7 1_555 1_555
C3 C4 1_555 1_555
O6 C12 1_555 1_555
C13 C18 1_555 1_555
O10 C15 1_555 1_555
C19 C21 1_555 1_555
C20 C41 1_555 1_555
C22 C28 1_555 1_555
C25 C26 1_555 1_555
C31 C33 1_555 1_555
C32 C34 1_555 1_555
C35 C37 1_555 1_555
C40 C42 1_555 1_555

#END
