
#######################################################################
#
#                 Cambridge Crystallographic Data Centre
#                                CCDC 
#
#######################################################################
#
# If this CIF has been generated from an entry in the Cambridge 
# Structural Database, then it will include bibliographic, chemical, 
# crystal, experimental, refinement or atomic coordinate data resulting 
# from the CCDC's data processing and validation procedures.
#
#######################################################################

data_MUNWOJ
_symmetry_cell_setting           orthorhombic
_symmetry_space_group_name_H-M   'P b c a'
_symmetry_Int_Tables_number      61
_space_group_name_Hall           '-P 2ac 2ab'
loop_
_symmetry_equiv_pos_site_id
_symmetry_equiv_pos_as_xyz
1 x,y,z
2 1/2-x,-y,1/2+z
3 -x,1/2+y,1/2-z
4 1/2+x,1/2-y,-z
5 -x,-y,-z
6 1/2+x,y,1/2-z
7 x,1/2-y,1/2+z
8 1/2-x,1/2+y,z
_cell_length_a                   12.4720(18)
_cell_length_b                   22.711(3)
_cell_length_c                   31.095(4)
_cell_angle_alpha                90
_cell_angle_beta                 90
_cell_angle_gamma                90
_cell_volume                     8807.71
loop_
_atom_site_label
_atom_site_type_symbol
_atom_site_fract_x
_atom_site_fract_y
_atom_site_fract_z
Tm1 Tm 0.523714(19) 0.051772(11) 0.085462(8)
Tm2 Tm 0.484753(18) 0.034983(11) 0.216002(7)
S1 S 0.01849(10) -0.21567(7) 0.15794(5)
O1 O 0.4047(3) -0.02815(18) 0.08987(13)
C1 C 0.2622(4) -0.1018(3) 0.17643(18)
H1 H 0.2968 -0.0844 0.1997
O2 O 0.4163(3) -0.01535(19) 0.16002(13)
C2 C 0.1809(4) -0.1421(3) 0.18382(18)
H2 H 0.1610 -0.1518 0.2118
C3 C 0.1297(4) -0.1678(2) 0.14904(18)
C4 C 0.2416(5) -0.1142(3) 0.10025(19)
H3 H 0.2618 -0.1048 0.0723
C5 C 0.1607(5) -0.1551(3) 0.10747(19)
H4 H 0.1277 -0.1738 0.0844
C6 C 0.3770(4) -0.0409(2) 0.12812(18)
C7 C 0.2925(4) -0.0871(2) 0.13510(17)
O3 O 0.0256(3) -0.2389(2) 0.20037(16)
O4 O 0.0103(3) -0.2544(2) 0.12176(18)
C8 C -0.1464(5) -0.1518(3) 0.19330(19)
H5 H -0.1296 -0.1705 0.2191
C9 C -0.2272(4) -0.1101(2) 0.19165(17)
H6 H -0.2652 -0.1010 0.2165
C10 C -0.0914(4) -0.1653(2) 0.15643(17)
O5 O 0.3820(3) 0.10374(18) 0.11027(12)
O6 O 0.3887(3) 0.10437(19) 0.18230(14)
C11 C 0.3531(4) 0.1218(2) 0.14643(18)
C12 C 0.2650(4) 0.1676(2) 0.14796(17)
C13 C 0.2270(5) 0.1954(3) 0.1121(2)
H7 H 0.2568 0.1866 0.0854
O7 O 0.5978(3) 0.0250(2) 0.28279(12)
C14 C 0.5281(4) 0.0531(3) 0.3039(2)
O8 O 0.4505(4) 0.0761(2) 0.28484(13)
C15 C 0.5363(4) 0.0577(3) 0.35156(17)
C16 C 0.6279(5) 0.0391(3) 0.37275(18)
H8 H 0.6837 0.0225 0.3570
C17 C 0.6381(5) 0.0449(3) 0.41725(17)
H9 H 0.7006 0.0332 0.4311
S2 S 0.56491(13) 0.07861(6) 0.49639(4)
O9 O 0.6626(4) 0.05082(17) 0.51097(13)
C18 C 0.5831(4) 0.1556(2) 0.50157(17)
C19 C 0.5532(4) 0.0683(2) 0.44032(17)
C20 C 0.4600(5) 0.0863(4) 0.4194(2)
H10 H 0.4026 0.1013 0.4350
C21 C 0.4538(5) 0.0816(4) 0.3755(2)
H11 H 0.3925 0.0949 0.3614
C22 C 0.1027(4) 0.2501(2) 0.15451(18)
C23 C 0.1451(5) 0.2363(3) 0.11451(19)
H12 H 0.1189 0.2543 0.0898
C24 C 0.1407(7) 0.2228(4) 0.1906(2)
H13 H 0.1133 0.2326 0.2175
C25 C 0.2194(7) 0.1810(4) 0.1869(2)
H14 H 0.2425 0.1612 0.2114
C26 C -0.2522(4) -0.0818(2) 0.15401(17)
C27 C -0.1983(5) -0.0977(3) 0.1170(2)
H15 H -0.2165 -0.0801 0.0910
C28 C -0.1178(6) -0.1395(4) 0.1180(2)
H16 H -0.0820 -0.1499 0.0929
C29 C 0.6870(5) 0.1788(2) 0.50295(19)
H17 H 0.7460 0.1542 0.4995
C30 C 0.4940(5) 0.1920(3) 0.5072(2)
H18 H 0.4248 0.1769 0.5055
C31 C 0.6142(5) 0.2747(2) 0.51648(16)
C32 C 0.5117(5) 0.2514(3) 0.5155(2)
H19 H 0.4533 0.2760 0.5204
O10 O 0.4646(4) 0.0647(2) 0.51625(14)
S3 S -0.00449(11) 0.30039(7) 0.15928(6)
O11 O 0.0068(3) 0.3306(2) 0.20037(18)
O12 O -0.0105(3) 0.3347(2) 0.12096(19)
C33 C -0.1176(4) 0.2535(2) 0.16278(18)
C34 C 0.7013(5) 0.2379(3) 0.5094(2)
H20 H 0.7702 0.2536 0.5091
C35 C 0.6308(5) 0.3393(2) 0.52657(18)
O13 O 0.7183(4) 0.36143(19) 0.51606(16)
C36 C -0.1750(5) 0.2392(3) 0.1261(2)
H21 H -0.1588 0.2567 0.0998
C37 C -0.2559(5) 0.1987(3) 0.1291(2)
H22 H -0.2957 0.1893 0.1048
C38 C -0.2226(6) 0.1880(4) 0.2037(2)
H23 H -0.2401 0.1710 0.2299
C39 C -0.1421(6) 0.2281(4) 0.2020(2)
H24 H -0.1042 0.2383 0.2266
O14 O 0.5574(3) 0.36462(17) 0.54679(13)
C40 C -0.2791(4) 0.1719(2) 0.16744(18)
C41 C -0.3616(5) 0.1240(3) 0.1716(2)
C42 C -0.3381(4) -0.0353(2) 0.15236(16)
O15 O -0.3730(3) -0.02086(18) 0.11604(12)
O16 O -0.3666(3) -0.01329(18) 0.18779(12)
O17 O -0.3949(3) 0.10083(18) 0.13702(14)
O18 O -0.3918(4) 0.10938(19) 0.20851(14)
O19 O 0.4843(3) -0.0629(2) 0.24480(15)
H25 H 0.4897 -0.0923 0.2616
H26 H 0.4914 -0.0755 0.2192
O20 O 0.4248(4) 0.04519(18) 0.02342(13)
H27 H 0.4293 0.0774 0.0084
H28 H 0.3619 0.0424 0.0323
O21 O 0.3041(3) 0.01746(19) 0.23949(13)
H29 H 0.2427 0.0324 0.2350
H30 H 0.3087 0.0100 0.2664
O22 O 0.6733(3) 0.03287(18) 0.03798(13)
H31 H 0.7532 0.0478 0.0412
H32 H 0.6922 0.0079 0.0539
Tm1_2 Tm -0.476286(19) 0.051772(11) 0.085462(8)
Tm1F Tm 0.523714(19) 0.448228(11) 0.585462(8)
Tm2_2 Tm -0.515247(18) 0.034983(11) 0.216002(7)
O14F O 0.5574(3) 0.13538(17) 0.04679(13)
O15_2 O 0.6270(3) -0.02086(18) 0.11604(12)
O16_2 O 0.6334(3) -0.01329(18) 0.18779(12)
O17_2 O 0.6051(3) 0.10083(18) 0.13702(14)
O18_2 O 0.6082(4) 0.10938(19) 0.20851(14)
O23 O 0.4205(6) 0.1128(3) 0.9551(2)
H33 H 0.4559 0.0936 0.9364
H34 H 0.4031 0.1456 0.9439
loop_
_geom_bond_atom_site_label_1
_geom_bond_atom_site_label_2
_geom_bond_site_symmetry_1
_geom_bond_site_symmetry_2
Tm1 O1 1_555 1_555
Tm2 O2 1_555 1_555
S1 C3 1_555 1_555
O1 C6 1_555 1_555
C1 H1 1_555 1_555
O2 C6 1_555 1_555
C2 C1 1_555 1_555
H2 C2 1_555 1_555
C3 C2 1_555 1_555
C4 H3 1_555 1_555
C5 C3 1_555 1_555
H4 C5 1_555 1_555
C6 C7 1_555 1_555
C7 C1 1_555 1_555
O3 S1 1_555 1_555
O4 S1 1_555 1_555
C8 H5 1_555 1_555
C9 C8 1_555 1_555
H6 C9 1_555 1_555
C10 S1 1_555 1_555
O5 Tm1 1_555 1_555
O6 Tm2 1_555 1_555
C11 O5 1_555 1_555
C12 C11 1_555 1_555
C13 C12 1_555 1_555
H7 C13 1_555 1_555
O7 Tm2 1_555 1_555
C14 O7 1_555 1_555
O8 Tm2 1_555 1_555
C15 C14 1_555 1_555
C16 C15 1_555 1_555
H8 C16 1_555 1_555
C17 C16 1_555 1_555
H9 C17 1_555 1_555
S2 O9 1_555 1_555
C18 S2 1_555 1_555
C19 C17 1_555 1_555
C20 C19 1_555 1_555
H10 C20 1_555 1_555
C21 C15 1_555 1_555
H11 C21 1_555 1_555
C22 C23 1_555 1_555
C23 C13 1_555 1_555
H12 C23 1_555 1_555
C24 C22 1_555 1_555
H13 C24 1_555 1_555
C25 C12 1_555 1_555
H14 C25 1_555 1_555
C26 C9 1_555 1_555
C27 C26 1_555 1_555
H15 C27 1_555 1_555
C28 C10 1_555 1_555
H16 C28 1_555 1_555
C29 C18 1_555 1_555
H17 C29 1_555 1_555
C30 C18 1_555 1_555
H18 C30 1_555 1_555
C31 C32 1_555 1_555
C32 C30 1_555 1_555
H19 C32 1_555 1_555
O10 S2 1_555 1_555
S3 C22 1_555 1_555
O11 S3 1_555 1_555
O12 S3 1_555 1_555
C33 S3 1_555 1_555
C34 C29 1_555 1_555
H20 C34 1_555 1_555
C35 C31 1_555 1_555
O13 C35 1_555 1_555
C36 C33 1_555 1_555
H21 C36 1_555 1_555
C37 C36 1_555 1_555
H22 C37 1_555 1_555
C38 H23 1_555 1_555
C39 C33 1_555 1_555
H24 C39 1_555 1_555
O14 C35 1_555 1_555
C40 C37 1_555 1_555
C41 C40 1_555 1_555
C42 C26 1_555 1_555
O15 C42 1_555 1_555
O16 C42 1_555 1_555
O17 C41 1_555 1_555
O18 C41 1_555 1_555
O19 Tm2 1_555 1_555
H25 O19 1_555 1_555
H26 O19 1_555 1_555
O20 Tm1 1_555 1_555
H27 O20 1_555 1_555
H28 O20 1_555 1_555
O21 Tm2 1_555 1_555
H29 O21 1_555 1_555
H30 O21 1_555 1_555
O22 Tm1 1_555 1_555
H31 O22 1_555 1_555
H32 O22 1_555 1_555
O23 H33 1_555 1_555
H34 O23 1_555 1_555
Tm1_2 O15 1_555 1_555
Tm1F O14 1_555 1_555
Tm2_2 O16 1_555 1_555
O14F Tm1 1_555 1_555
O15_2 Tm1 1_555 1_555
O16_2 Tm2 1_555 1_555
O17_2 Tm1 1_555 1_555
O18_2 Tm2 1_555 1_555
C4 C5 1_555 1_555
C4 C7 1_555 1_555
C8 C10 1_555 1_555
O6 C11 1_555 1_555
C14 O8 1_555 1_555
S2 C19 1_555 1_555
C20 C21 1_555 1_555
C24 C25 1_555 1_555
C27 C28 1_555 1_555
C31 C34 1_555 1_555
C38 C39 1_555 1_555
C38 C40 1_555 1_555
O17 Tm1_2 1_555 1_555
O18 Tm2_2 1_555 1_555

#END
