
#######################################################################
#
#                 Cambridge Crystallographic Data Centre
#                                CCDC 
#
#######################################################################
#
# If this CIF has been generated from an entry in the Cambridge 
# Structural Database, then it will include bibliographic, chemical, 
# crystal, experimental, refinement or atomic coordinate data resulting 
# from the CCDC's data processing and validation procedures.
#
#######################################################################

data_MUNWID
_symmetry_cell_setting           orthorhombic
_symmetry_space_group_name_H-M   'P b c a'
_symmetry_Int_Tables_number      61
_space_group_name_Hall           '-P 2ac 2ab'
loop_
_symmetry_equiv_pos_site_id
_symmetry_equiv_pos_as_xyz
1 x,y,z
2 1/2-x,-y,1/2+z
3 -x,1/2+y,1/2-z
4 1/2+x,1/2-y,-z
5 -x,-y,-z
6 1/2+x,y,1/2-z
7 x,1/2-y,1/2+z
8 1/2-x,1/2+y,z
_cell_length_a                   12.4755(19)
_cell_length_b                   22.719(4)
_cell_length_c                   31.116(5)
_cell_angle_alpha                90
_cell_angle_beta                 90
_cell_angle_gamma                90
_cell_volume                     8819.24
loop_
_atom_site_label
_atom_site_type_symbol
_atom_site_fract_x
_atom_site_fract_y
_atom_site_fract_z
O1 O 0.4422(3) 0.36440(14) 0.54690(12)
C1 C 0.3680(4) 0.3387(2) 0.52685(16)
Er1 Er 1.476042(16) 0.051789(8) 0.085564(6)
O2 O 1.3716(3) -0.02118(15) 0.11607(10)
O3 O 1.3660(3) -0.01320(15) 0.18771(10)
C2 C 1.2799(4) 0.1722(2) 0.16826(16)
C3 C 1.2230(6) 0.1880(3) 0.20381(18)
H1 H 1.2397 0.1708 0.2301
C4 C 1.1417(6) 0.2285(3) 0.20169(19)
H2 H 1.1031 0.2387 0.2262
Er2 Er 0.515602(15) 0.034803(8) 0.216074(6)
O4 O 0.6968(3) 0.01692(19) 0.23895(12)
H3 H 0.7169 0.0476 0.2527
H4 H 0.7158 -0.0127 0.2545
S1 S 0.98075(9) -0.21567(5) 0.15797(4)
C5 C 0.7369(4) -0.1018(2) 0.17635(15)
H5 H 0.7018 -0.0846 0.1995
C6 C 0.8694(4) -0.16788(19) 0.14908(15)
O5 O 0.5955(3) -0.02873(15) 0.08948(11)
C7 C 0.8189(4) -0.1420(2) 0.18372(16)
H6 H 0.8394 -0.1513 0.2116
C8 C 0.7573(4) -0.1143(2) 0.10014(16)
H7 H 0.7367 -0.1053 0.0722
C9 C 0.8385(4) -0.1552(2) 0.10767(16)
H8 H 0.8719 -0.1738 0.0847
C10 C 0.7069(4) -0.08711(18) 0.13485(15)
O6 O 0.9737(3) -0.23892(17) 0.20081(14)
O7 O 0.9890(3) -0.25471(17) 0.12199(14)
C11 C 0.6223(4) -0.04126(18) 0.12711(15)
O8 O 0.5827(3) -0.01509(16) 0.15931(12)
O9 O 1.3260(3) 0.03279(15) 0.03828(13)
H9 H 1.2991 -0.0007 0.0438
H10 H 1.3042 0.0431 0.0135
O10 O 0.4028(3) 0.02480(17) 0.28331(11)
O11 O 0.5153(3) -0.06427(15) 0.24462(14)
H11 H 0.5035 -0.0957 0.2586
H12 H 0.5362 -0.0740 0.2196
O12 O 1.5760(3) 0.04570(18) 0.02360(12)
H13 H 1.6047 0.0144 0.0136
H14 H 1.5956 0.0740 0.0074
O13 O 0.6121(3) 0.10466(16) 0.18185(11)
O14 O 0.5521(3) 0.0746(2) 0.28551(11)
C12 C 0.4732(4) 0.0522(2) 0.30432(15)
C13 C 1.0903(4) -0.1653(2) 0.15664(15)
C14 C 0.4639(4) 0.0574(2) 0.35241(14)
C15 C 0.7362(4) 0.1679(2) 0.14799(15)
C16 C 0.4465(4) 0.06800(19) 0.44038(14)
C17 C 0.3626(4) 0.0450(2) 0.41748(15)
H15 H 0.3000 0.0336 0.4314
C18 C 0.3721(4) 0.0390(2) 0.37342(16)
H16 H 0.3163 0.0224 0.3578
S2 S 0.43496(11) 0.07868(5) 0.49653(4)
O15 O 0.5351(3) 0.06467(16) 0.51649(12)
O16 O 0.3376(3) 0.05070(15) 0.51099(11)
C19 C 0.5049(4) 0.1920(2) 0.50742(17)
H17 H 0.5739 0.1767 0.5053
C20 C 0.4154(4) 0.15559(18) 0.50185(14)
C21 C 0.3129(4) 0.1781(2) 0.50295(17)
H18 H 0.2540 0.1535 0.4992
C22 C 1.1456(4) -0.1519(2) 0.19329(15)
H19 H 1.1292 -0.1708 0.2190
C23 C 1.2262(4) -0.1100(2) 0.19194(15)
H20 H 1.2638 -0.1008 0.2169
C24 C 0.8976(4) 0.2500(2) 0.15436(16)
C25 C 0.8552(4) 0.2361(3) 0.11493(17)
H21 H 0.8814 0.2540 0.0902
C26 C 0.7735(4) 0.1952(2) 0.11207(17)
H22 H 0.7437 0.1864 0.0854
C27 C 1.2512(4) -0.08190(19) 0.15383(14)
C28 C 1.1958(5) -0.0967(3) 0.11743(17)
H23 H 1.2121 -0.0779 0.0917
C29 C 0.3855(4) 0.27389(19) 0.51666(15)
C30 C 0.2988(4) 0.2380(2) 0.50970(18)
H24 H 0.2301 0.2539 0.5095
S3 S 1.00549(9) 0.30032(5) 0.15927(5)
O17 O 0.9942(3) 0.33081(17) 0.19992(15)
O18 O 1.0122(3) 0.33439(18) 0.12080(16)
C31 C 1.1186(4) 0.2538(2) 0.16271(16)
C32 C 1.1763(4) 0.2397(2) 0.12655(17)
H25 H 1.1606 0.2575 0.1004
O19 O 0.2814(3) 0.36112(16) 0.51606(15)
C33 C 0.8622(7) 0.2220(4) 0.19070(19)
H26 H 0.8917 0.2306 0.2174
C34 C 0.7820(7) 0.1808(4) 0.18666(19)
H27 H 0.7582 0.1612 0.2111
C35 C 1.1157(5) -0.1392(3) 0.11818(18)
H28 H 1.0800 -0.1497 0.0931
C36 C 0.5391(4) 0.0865(3) 0.42006(17)
H29 H 0.5951 0.1027 0.4358
C37 C 0.5474(5) 0.0806(3) 0.37590(18)
H30 H 0.6098 0.0923 0.3620
C38 C 0.4887(4) 0.2508(2) 0.51612(18)
H31 H 0.5471 0.2751 0.5216
O20 O 0.6188(3) 0.10396(15) 0.11030(11)
C39 C 0.6481(4) 0.1219(2) 0.14632(15)
C40 C 1.3630(4) 0.1243(2) 0.17217(17)
O21 O 1.3927(3) 0.10954(16) 0.20918(12)
O22 O 1.3956(3) 0.10070(16) 0.13795(13)
C41 C 1.3363(4) -0.0353(2) 0.15258(15)
C42 C 1.2582(4) 0.1987(2) 0.12949(18)
H32 H 1.2984 0.1890 0.1053
O1F O 1.4422(3) 0.13560(14) 0.04690(12)
Er1_2 Er 0.476042(16) 0.051789(8) 0.085564(6)
Er1F Er 0.476042(16) 0.448211(8) 0.585564(6)
O3_2 O 0.3660(3) -0.01320(15) 0.18771(10)
Er2_2 Er 1.515602(15) 0.034803(8) 0.216074(6)
O5_2 O 1.5955(3) -0.02873(15) 0.08948(11)
O20_2 O 1.6188(3) 0.10396(15) 0.11030(11)
O21_2 O 0.3927(3) 0.10954(16) 0.20918(12)
O23 O 0.5819(5) 0.1133(3) 0.9543(2)
H33 H 0.5884 0.0897 0.9332
H34 H 0.5607 0.1462 0.9444
loop_
_geom_bond_atom_site_label_1
_geom_bond_atom_site_label_2
_geom_bond_site_symmetry_1
_geom_bond_site_symmetry_2
O1 C1 1_555 1_555
C1 C29 1_555 1_555
Er1 O2 1_555 1_555
O2 C41 1_555 1_555
O3 C41 1_555 1_555
C2 C3 1_555 1_555
C3 H1 1_555 1_555
C4 C3 1_555 1_555
H2 C4 1_555 1_555
Er2 O4 1_555 1_555
O4 H3 1_555 1_555
H4 O4 1_555 1_555
S1 C6 1_555 1_555
C5 H5 1_555 1_555
C6 C7 1_555 1_555
O5 C11 1_555 1_555
C7 C5 1_555 1_555
H6 C7 1_555 1_555
C8 H7 1_555 1_555
C9 C6 1_555 1_555
H8 C9 1_555 1_555
C10 C5 1_555 1_555
O6 S1 1_555 1_555
O7 S1 1_555 1_555
C11 C10 1_555 1_555
O8 Er2 1_555 1_555
O9 Er1 1_555 1_555
H9 O9 1_555 1_555
H10 O9 1_555 1_555
O10 Er2 1_555 1_555
O11 Er2 1_555 1_555
H11 O11 1_555 1_555
H12 O11 1_555 1_555
O12 Er1 1_555 1_555
H13 O12 1_555 1_555
H14 O12 1_555 1_555
O13 Er2 1_555 1_555
O14 Er2 1_555 1_555
C12 O10 1_555 1_555
C13 S1 1_555 1_555
C14 C12 1_555 1_555
C15 C26 1_555 1_555
C16 C17 1_555 1_555
C17 H15 1_555 1_555
C18 C14 1_555 1_555
H16 C18 1_555 1_555
S2 C16 1_555 1_555
O15 S2 1_555 1_555
O16 S2 1_555 1_555
C19 H17 1_555 1_555
C20 S2 1_555 1_555
C21 C20 1_555 1_555
H18 C21 1_555 1_555
C22 C13 1_555 1_555
H19 C22 1_555 1_555
C23 C22 1_555 1_555
H20 C23 1_555 1_555
C24 C25 1_555 1_555
C25 H21 1_555 1_555
C26 C25 1_555 1_555
H22 C26 1_555 1_555
C27 C23 1_555 1_555
C28 C27 1_555 1_555
H23 C28 1_555 1_555
C29 C30 1_555 1_555
C30 C21 1_555 1_555
H24 C30 1_555 1_555
S3 C24 1_555 1_555
O17 S3 1_555 1_555
O18 S3 1_555 1_555
C31 C4 1_555 1_555
C32 C31 1_555 1_555
H25 C32 1_555 1_555
O19 C1 1_555 1_555
C33 C24 1_555 1_555
H26 C33 1_555 1_555
C34 C15 1_555 1_555
H27 C34 1_555 1_555
C35 C13 1_555 1_555
H28 C35 1_555 1_555
C36 C16 1_555 1_555
H29 C36 1_555 1_555
C37 C14 1_555 1_555
H30 C37 1_555 1_555
C38 C19 1_555 1_555
H31 C38 1_555 1_555
O20 C39 1_555 1_555
C39 O13 1_555 1_555
C40 C2 1_555 1_555
O21 C40 1_555 1_555
O22 Er1 1_555 1_555
C41 C27 1_555 1_555
C42 C2 1_555 1_555
H32 C42 1_555 1_555
O23 H33 1_555 1_555
H34 O23 1_555 1_555
O1F Er1 1_555 1_555
Er1_2 O5 1_555 1_555
Er1F O1 1_555 1_555
O3_2 Er2 1_555 1_555
Er2_2 O3 1_555 1_555
O5_2 Er1 1_555 1_555
O20_2 Er1 1_555 1_555
O21_2 Er2 1_555 1_555
C8 C9 1_555 1_555
C8 C10 1_555 1_555
C11 O8 1_555 1_555
O14 C12 1_555 1_555
C15 C39 1_555 1_555
C17 C18 1_555 1_555
C19 C20 1_555 1_555
C28 C35 1_555 1_555
C29 C38 1_555 1_555
S3 C31 1_555 1_555
C32 C42 1_555 1_555
C33 C34 1_555 1_555
C36 C37 1_555 1_555
O20 Er1_2 1_555 1_555
C40 O22 1_555 1_555
O21 Er2_2 1_555 1_555

#END
