
#######################################################################
#
#                 Cambridge Crystallographic Data Centre
#                                CCDC 
#
#######################################################################
#
# If this CIF has been generated from an entry in the Cambridge 
# Structural Database, then it will include bibliographic, chemical, 
# crystal, experimental, refinement or atomic coordinate data resulting 
# from the CCDC's data processing and validation procedures.
#
#######################################################################

data_MUNXIC
_symmetry_cell_setting           monoclinic
_symmetry_space_group_name_H-M   'P 21/c'
_symmetry_Int_Tables_number      14
_space_group_name_Hall           '-P 2ybc'
loop_
_symmetry_equiv_pos_site_id
_symmetry_equiv_pos_as_xyz
1 x,y,z
2 x,1/2-y,1/2+z
3 -x,-y,-z
4 -x,1/2+y,1/2-z
_cell_length_a                   15.0833(14)
_cell_length_b                   8.2887(4)
_cell_length_c                   23.2228(15)
_cell_angle_alpha                90
_cell_angle_beta                 95.186(3)
_cell_angle_gamma                90
_cell_volume                     2891.45
loop_
_atom_site_label
_atom_site_type_symbol
_atom_site_fract_x
_atom_site_fract_y
_atom_site_fract_z
Mn1 Mn 0.27146(4) 0.20550(6) 0.987717(19)
O7 O 0.2226(2) 0.4484(3) 0.99286(11)
O8 O 0.13299(19) 0.1171(3) 0.98075(11)
O9 O 0.3178(2) -0.0397(3) 0.97976(12)
O10 O 0.4102(2) 0.2768(4) 1.00318(12)
N1 N 0.2628(2) 0.2437(3) 0.89011(11)
N2 N 0.2653(2) 0.3020(4) 0.58570(11)
C1 C 0.2583(2) 0.2814(4) 0.76944(13)
C2 C 0.3187(3) 0.3644(5) 0.80710(13)
H5 H 0.3592 0.4351 0.7927
C3 C 0.3185(3) 0.3416(5) 0.86613(14)
H6 H 0.3598 0.3983 0.8904
C4 C 0.2029(3) 0.1687(5) 0.85381(14)
H7 H 0.1615 0.1025 0.8695
C5 C 0.1985(3) 0.1834(5) 0.79459(14)
H8 H 0.1553 0.1273 0.7715
C6 C 0.2590(2) 0.2946(4) 0.70553(13)
C7 C 0.1915(3) 0.2287(5) 0.66841(14)
H9 H 0.1427 0.1803 0.6831
C8 C 0.1970(3) 0.2350(5) 0.61004(15)
H10 H 0.1508 0.1904 0.5859
C9 C 0.3294(3) 0.3662(5) 0.62173(14)
H11 H 0.3775 0.4143 0.6061
C10 C 0.3283(3) 0.3653(5) 0.68079(14)
H12 H 0.3747 0.4126 0.7040
N2A N 0.2653(2) 0.1980(4) 1.08570(11)
Mn1A Mn 0.27146(4) 0.29450(6) 0.487717(19)
S1 S 0.14617(7) -0.26034(11) 0.88366(4)
O1 O 0.1303(2) -0.4283(4) 0.89564(13)
O2 O 0.2401(2) -0.2221(4) 0.89143(13)
O3 O 0.0931(2) -0.1554(4) 0.91708(13)
N3 N 0.0260(4) -0.1543(8) 0.63799(18)
H1 H -0.0204 -0.0966 0.6285
H2 H 0.0547 -0.1975 0.6116
C11 C 0.1102(3) -0.2262(4) 0.81055(16)
C12 C 0.0352(3) -0.1328(5) 0.79493(17)
H13 H 0.0035 -0.0868 0.8233
C13 C 0.0082(3) -0.1087(5) 0.73764(19)
H14 H -0.0416 -0.0452 0.7274
C14 C 0.0538(3) -0.1774(6) 0.69473(19)
C15 C 0.1288(3) -0.2721(6) 0.71063(18)
H15 H 0.1601 -0.3195 0.6824
C16 C 0.1560(3) -0.2949(5) 0.76806(18)
H16 H 0.2061 -0.3576 0.7784
S2 S 0.40480(7) -0.16592(11) 0.58950(4)
O4 O 0.3100(2) -0.1514(4) 0.57013(13)
O5 O 0.4534(2) -0.0166(3) 0.58288(11)
O6 O 0.4461(2) -0.3008(4) 0.56222(12)
N4 N 0.4325(3) -0.2644(5) 0.84323(14)
H3 H 0.4739 -0.3240 0.8599
H4 H 0.3957 -0.2159 0.8635
C17 C 0.4105(2) -0.2052(4) 0.66450(14)
C18 C 0.4760(3) -0.3027(5) 0.69122(15)
H17 H 0.5155 -0.3551 0.6690
C19 C 0.4838(3) -0.3236(5) 0.75010(17)
H18 H 0.5284 -0.3895 0.7674
C20 C 0.4252(3) -0.2466(4) 0.78398(16)
C21 C 0.3585(3) -0.1510(5) 0.75622(16)
H19 H 0.3179 -0.0999 0.7780
C22 C 0.3515(3) -0.1307(5) 0.69766(16)
H20 H 0.3065 -0.0661 0.6801
O11 O -0.0028(3) 0.3244(5) 0.99986(16)
O12 O 0.1523(4) -0.3315(8) 0.5679(2)
loop_
_geom_bond_atom_site_label_1
_geom_bond_atom_site_label_2
_geom_bond_site_symmetry_1
_geom_bond_site_symmetry_2
Mn1 O7 1_555 1_555
S1 O1 1_555 1_555
S2 O4 1_555 1_555
O2 S1 1_555 1_555
O3 S1 1_555 1_555
O5 S2 1_555 1_555
O6 S2 1_555 1_555
O8 Mn1 1_555 1_555
O9 Mn1 1_555 1_555
O10 Mn1 1_555 1_555
N1 Mn1 1_555 1_555
N2 C8 1_555 1_555
N3 H1 1_555 1_555
H2 N3 1_555 1_555
N4 H3 1_555 1_555
H4 N4 1_555 1_555
C1 C2 1_555 1_555
C2 H5 1_555 1_555
C3 N1 1_555 1_555
H6 C3 1_555 1_555
C4 N1 1_555 1_555
H7 C4 1_555 1_555
C5 C1 1_555 1_555
H8 C5 1_555 1_555
C6 C1 1_555 1_555
C7 C6 1_555 1_555
H9 C7 1_555 1_555
C8 C7 1_555 1_555
H10 C8 1_555 1_555
C9 N2 1_555 1_555
H11 C9 1_555 1_555
C10 C6 1_555 1_555
H12 C10 1_555 1_555
C11 S1 1_555 1_555
C12 C11 1_555 1_555
H13 C12 1_555 1_555
C13 C12 1_555 1_555
H14 C13 1_555 1_555
C14 N3 1_555 1_555
C15 C14 1_555 1_555
H15 C15 1_555 1_555
C16 C11 1_555 1_555
H16 C16 1_555 1_555
C17 S2 1_555 1_555
C18 C17 1_555 1_555
H17 C18 1_555 1_555
C19 C18 1_555 1_555
H18 C19 1_555 1_555
C20 N4 1_555 1_555
C21 C20 1_555 1_555
H19 C21 1_555 1_555
C22 C17 1_555 1_555
H20 C22 1_555 1_555
N2A Mn1 1_555 1_555
Mn1A N2 1_555 1_555
C2 C3 1_555 1_555
C4 C5 1_555 1_555
C9 C10 1_555 1_555
C13 C14 1_555 1_555
C15 C16 1_555 1_555
C19 C20 1_555 1_555
C21 C22 1_555 1_555

#END
