
#######################################################################
#
#                 Cambridge Crystallographic Data Centre
#                                CCDC 
#
#######################################################################
#
# If this CIF has been generated from an entry in the Cambridge 
# Structural Database, then it will include bibliographic, chemical, 
# crystal, experimental, refinement or atomic coordinate data resulting 
# from the CCDC's data processing and validation procedures.
#
#######################################################################

data_MUPBUW
_symmetry_cell_setting           triclinic
_symmetry_space_group_name_H-M   'P -1'
_symmetry_Int_Tables_number      2
_space_group_name_Hall           '-P 1'
loop_
_symmetry_equiv_pos_site_id
_symmetry_equiv_pos_as_xyz
1 x,y,z
2 -x,-y,-z
_cell_length_a                   8.8714(19)
_cell_length_b                   11.003(2)
_cell_length_c                   12.610(3)
_cell_angle_alpha                98.843(2)
_cell_angle_beta                 105.784(2)
_cell_angle_gamma                94.626(2)
_cell_volume                     1160.65
loop_
_atom_site_label
_atom_site_type_symbol
_atom_site_fract_x
_atom_site_fract_y
_atom_site_fract_z
Nd1 Nd 0.253820(16) 0.537627(13) 0.969387(12)
O1 O 0.5106(2) 0.51684(18) 0.89891(15)
O2 O 0.3031(2) 0.56156(18) 0.77949(16)
O3 O 0.0479(2) 0.38057(17) 0.81013(17)
O4 O 0.2703(2) 0.31474(19) 0.89145(18)
O5 O -0.3115(3) 0.0918(3) 0.4759(2)
O6 O -0.2906(3) -0.1012(2) 0.4531(2)
O7 O 0.1517(3) -0.2591(2) 0.68735(18)
H1 H 0.2003 -0.3129 0.7139
O8 O 0.3049(3) -0.1344(2) 0.84417(19)
O9 O 0.8871(3) 0.57479(19) 0.93385(18)
O10 O 0.2321(2) 0.6729(2) 1.14270(18)
H2 H 0.1643 0.6406 1.1744
H3 H 0.3000 0.7181 1.1888
O11 O 0.4290(2) 0.74232(18) 1.01794(17)
H4 H 0.4003 0.7853 0.9594
H5 H 0.5341 0.7349 1.0395
O12 O 1.0791(2) 0.6827(2) 0.89700(19)
C1 C 0.4396(3) 0.5315(2) 0.8010(2)
C2 C 0.5212(3) 0.5021(3) 0.7125(2)
C3 C 0.4781(4) 0.3846(3) 0.6449(3)
H6 H 0.3919 0.3333 0.6488
C4 C 0.5628(4) 0.3441(3) 0.5725(3)
H7 H 0.5342 0.2655 0.5281
C5 C 0.6887(4) 0.4196(3) 0.5659(3)
H8 H 0.7464 0.3916 0.5177
C6 C 0.7314(4) 0.5383(3) 0.6309(3)
H9 H 0.8165 0.5892 0.6249
C7 C 0.6471(3) 0.5813(3) 0.7049(2)
C8 C 0.6865(3) 0.7120(3) 0.7677(2)
C9 C 0.5870(3) 0.7998(3) 0.7348(3)
H10 H 0.4934 0.7747 0.6773
C10 C 0.6243(4) 0.9228(3) 0.7856(3)
H11 H 0.5557 0.9796 0.7626
C11 C 0.7622(4) 0.9616(3) 0.8698(4)
H12 H 0.7869 1.0445 0.9048
C12 C 0.8647(4) 0.8764(3) 0.9026(3)
H13 H 0.9596 0.9033 0.9584
C13 C 0.8278(3) 0.7524(3) 0.8535(2)
C14 C 0.9380(3) 0.6631(3) 0.8967(2)
C15 C 0.1345(3) 0.2956(3) 0.8226(2)
C16 C 0.0754(3) 0.1672(3) 0.7549(2)
C17 C -0.0597(3) 0.1461(3) 0.6637(2)
H14 H -0.1160 0.2108 0.6435
C18 C -0.1082(3) 0.0264(3) 0.6039(2)
C19 C -0.0297(3) -0.0729(3) 0.6313(2)
H15 H -0.0658 -0.1524 0.5898
C20 C 0.1045(3) -0.0506(3) 0.7225(2)
C21 C 0.1566(3) 0.0686(3) 0.7834(2)
H16 H 0.2472 0.0827 0.8441
C22 C 0.1975(4) -0.1521(3) 0.7589(3)
N1 N -0.2490(3) 0.0033(3) 0.5047(2)
Nd1_2 Nd 1.253820(16) 0.537627(13) 0.969387(12)
Nd1A Nd 0.746180(16) 0.462373(13) 1.030613(12)
O1A O 0.4894(2) 0.48316(18) 1.10109(15)
O9A O 0.1129(3) 0.42521(19) 1.06615(18)
O12_2 O 0.0791(2) 0.6827(2) 0.89700(19)
O13 O 0.0689(19) 0.3971(19) 0.5635(12)
H17 H 0.1342 0.4372 0.6237
H18 H 0.0271 0.4490 0.5249
loop_
_geom_bond_atom_site_label_1
_geom_bond_atom_site_label_2
_geom_bond_site_symmetry_1
_geom_bond_site_symmetry_2
Nd1 O1 1_555 1_555
O1 C1 1_555 1_555
O2 Nd1 1_555 1_555
O3 Nd1 1_555 1_555
O4 Nd1 1_555 1_555
O5 N1 1_555 1_555
O6 N1 1_555 1_555
O7 H1 1_555 1_555
O8 C22 1_555 1_555
O9 C14 1_555 1_555
O10 Nd1 1_555 1_555
H2 O10 1_555 1_555
H3 O10 1_555 1_555
O11 Nd1 1_555 1_555
H4 O11 1_555 1_555
H5 O11 1_555 1_555
O12 C14 1_555 1_555
C1 O2 1_555 1_555
C2 C1 1_555 1_555
C3 C2 1_555 1_555
H6 C3 1_555 1_555
C4 C3 1_555 1_555
H7 C4 1_555 1_555
C5 C4 1_555 1_555
H8 C5 1_555 1_555
C6 C5 1_555 1_555
H9 C6 1_555 1_555
C7 C2 1_555 1_555
C8 C7 1_555 1_555
C9 C8 1_555 1_555
H10 C9 1_555 1_555
C10 C9 1_555 1_555
H11 C10 1_555 1_555
C11 C10 1_555 1_555
H12 C11 1_555 1_555
C12 C11 1_555 1_555
H13 C12 1_555 1_555
C13 C8 1_555 1_555
C14 C13 1_555 1_555
C15 O3 1_555 1_555
C16 C15 1_555 1_555
C17 C16 1_555 1_555
H14 C17 1_555 1_555
C18 C17 1_555 1_555
C19 C18 1_555 1_555
H15 C19 1_555 1_555
C20 C19 1_555 1_555
C21 C16 1_555 1_555
H16 C21 1_555 1_555
C22 O7 1_555 1_555
N1 C18 1_555 1_555
O13 H17 1_555 1_555
H18 O13 1_555 1_555
Nd1_2 O12 1_555 1_555
Nd1A O1 1_555 1_555
O1A Nd1 1_555 1_555
O9A Nd1 1_555 1_555
O12_2 Nd1 1_555 1_555
O4 C15 1_555 1_555
O9 Nd1A 1_555 1_555
C6 C7 1_555 1_555
C12 C13 1_555 1_555
C20 C21 1_555 1_555
C20 C22 1_555 1_555
Nd1A O1A 1_555 1_555

#END
