
#######################################################################
#
#                 Cambridge Crystallographic Data Centre
#                                CCDC 
#
#######################################################################
#
# If this CIF has been generated from an entry in the Cambridge 
# Structural Database, then it will include bibliographic, chemical, 
# crystal, experimental, refinement or atomic coordinate data resulting 
# from the CCDC's data processing and validation procedures.
#
#######################################################################

data_MUPCUW
_symmetry_cell_setting           triclinic
_symmetry_space_group_name_H-M   'P -1'
_symmetry_Int_Tables_number      2
_space_group_name_Hall           '-P 1'
loop_
_symmetry_equiv_pos_site_id
_symmetry_equiv_pos_as_xyz
1 x,y,z
2 -x,-y,-z
_cell_length_a                   10.6710(6)
_cell_length_b                   14.2402(2)
_cell_length_c                   14.37150(10)
_cell_angle_alpha                61.139(5)
_cell_angle_beta                 85.416(8)
_cell_angle_gamma                85.602(9)
_cell_volume                     1904.67
loop_
_atom_site_label
_atom_site_type_symbol
_atom_site_fract_x
_atom_site_fract_y
_atom_site_fract_z
O7 O 0.970(3) 0.153(2) 0.479(2)
H20 H 0.9574 0.1139 0.5461
H21 H 0.9188 0.2075 0.4572
H22 H 1.0449 0.1729 0.4652
W1 W 0.95422(11) -0.21565(9) 0.26252(9)
W2 W 0.98091(11) 0.04938(9) 0.22024(9)
W3 W 1.24713(10) -0.09131(9) 0.17899(10)
W4 W 0.71113(10) -0.13212(9) 0.07767(9)
W5 W 0.72609(9) 0.12799(8) 0.05011(9)
W6 W 0.99010(11) -0.26614(8) 0.04319(9)
P1 P 1.0000 0.0000 0.0000
P2 P 0.6665(6) 0.0046(5) 0.4943(5)
Cu1 Cu 0.5292(3) 0.1524(2) 0.2814(3)
Cu2 Cu 0.5171(3) -0.1902(2) 0.5130(3)
N1 N 0.6408(19) -0.3218(16) 0.5832(16)
N2 N 0.403(2) -0.3030(16) 0.5291(16)
N3 N 0.628(2) 0.2816(16) 0.2395(17)
N4 N 0.3935(19) 0.2656(18) 0.2025(18)
C1 C 0.756(3) -0.328(3) 0.603(2)
H1 H 0.7910 -0.2645 0.5898
C2 C 0.213(3) -0.377(3) 0.520(2)
H2 H 0.1315 -0.3649 0.4961
C3 C 0.228(3) 0.440(3) 0.104(2)
H3 H 0.1731 0.4983 0.0678
C4 C 0.521(3) 0.571(3) 0.095(3)
H4 H 0.5503 0.6393 0.0714
C5 C 0.261(3) -0.478(2) 0.572(2)
H5 H 0.2126 -0.5353 0.5873
C6 C 0.805(3) 0.387(3) 0.221(3)
H6 H 0.8886 0.3905 0.2319
C7 C 0.406(3) 0.562(3) 0.077(3)
H7 H 0.3563 0.6237 0.0379
C8 C 0.453(4) -0.598(2) 0.660(2)
H8 H 0.4120 -0.6606 0.6802
C9 C 0.190(3) 0.339(3) 0.142(3)
H9 H 0.1076 0.3265 0.1360
C10 C 0.751(3) 0.284(3) 0.257(3)
H10 H 0.7993 0.2201 0.2919
C11 C 0.561(3) 0.374(2) 0.1898(19)
C12 C 0.432(3) 0.364(2) 0.1695(19)
C13 C 0.732(3) 0.478(3) 0.170(4)
H11 H 0.7662 0.5439 0.1460
C14 C 0.580(2) -0.4114(19) 0.6051(19)
C15 C 0.283(3) -0.292(2) 0.500(2)
H12 H 0.2460 -0.2227 0.4659
C16 C 0.575(3) -0.604(3) 0.682(3)
H13 H 0.6152 -0.6717 0.7144
C17 C 0.455(2) -0.4010(19) 0.5787(19)
C18 C 0.642(3) -0.518(2) 0.660(2)
C19 C 0.352(3) 0.455(2) 0.119(2)
C20 C 0.832(4) -0.415(3) 0.641(3)
H14 H 0.9185 -0.4128 0.6455
C21 C 0.770(4) -0.516(3) 0.676(2)
H15 H 0.8169 -0.5803 0.7100
C22 C 0.608(2) 0.475(2) 0.152(3)
C23 C 0.386(3) -0.496(2) 0.605(2)
C24 C 0.281(3) 0.251(3) 0.192(3)
H16 H 0.2567 0.1809 0.2180
O1 O 0.9685(17) 0.074(2) 0.3240(16)
O2 O 0.837(2) 0.248(2) -0.0213(18)
O3 O 0.4479(19) 0.0489(14) 0.2571(17)
O4 O 1.364(2) -0.1336(18) 0.2595(18)
O5 O 0.632(2) -0.1363(18) 0.3580(17)
H19 H 0.6756 -0.1190 0.3002
O6 O 1.024(2) 0.182(2) 0.1077(19)
O8 O 1.310(3) 0.0394(17) 0.0657(15)
O9 O 0.789(3) -0.193(2) 0.217(2)
O10 O 1.296(3) -0.1547(17) 0.0900(15)
O11 O 0.9843(18) -0.3897(15) 0.0618(19)
O12 O 0.578(2) -0.1958(19) 0.1165(18)
O13 O 0.813(2) 0.084(2) 0.1744(19)
O14 O 0.816(3) -0.233(2) 0.051(2)
O15 O 0.9333(18) -0.3155(17) 0.3850(15)
O16 O 0.598(2) 0.185(2) 0.0761(19)
O17 O 0.672(2) -0.011(2) 0.098(2)
O18 O 1.146(3) -0.001(3) 0.231(2)
O19 O 0.994(3) -0.290(3) 0.183(3)
O20 O 0.935(2) -0.0947(19) 0.286(3)
O21 O 1.131(3) -0.199(2) 0.254(2)
O22 O 0.939(3) -0.109(3) 0.062(2)
O23 O 0.858(3) 0.013(3) -0.007(3)
O24 O 1.035(2) -0.040(2) 0.122(2)
O25 O 0.946(3) 0.074(2) 0.044(2)
O26 O 0.8081(17) -0.0169(17) 0.5198(17)
H23 H 0.8214 -0.0632 0.4984
O27 O 0.6552(17) 0.0512(13) 0.3750(14)
O28 O 0.6081(16) -0.1054(14) 0.5578(14)
O29 O 0.6169(16) 0.0806(15) 0.5377(15)
W1A W 1.04578(11) 0.21565(9) -0.26252(9)
W2A W 1.01909(11) -0.04938(9) -0.22024(9)
W3A W 0.75287(10) 0.09131(9) -0.17899(10)
W4A W 1.28887(10) 0.13212(9) -0.07767(9)
W5A W 1.27391(9) -0.12799(8) -0.05011(9)
W6A W 1.00990(11) 0.26614(8) -0.04319(9)
P2A P 0.3335(6) -0.0046(5) 0.5057(5)
Cu1A Cu 1.4708(3) -0.1524(2) -0.2814(3)
Cu1A_2 Cu 0.4708(3) -0.1524(2) 0.7186(3)
Cu2A Cu 0.4829(3) 0.1902(2) 0.4870(3)
N1A N 0.3592(19) 0.3218(16) 0.4168(16)
N2A N 0.597(2) 0.3030(16) 0.4709(16)
N3A N 0.372(2) -0.2816(16) 0.7605(17)
N4A N 0.6065(19) -0.2656(18) 0.7975(18)
C1A C 0.244(3) 0.328(3) 0.397(2)
H1A H 0.2090 0.2645 0.4102
C2A C 0.787(3) 0.377(3) 0.480(2)
H2A H 0.8685 0.3649 0.5039
C3A C 0.772(3) -0.440(3) 0.896(2)
H3A H 0.8269 -0.4983 0.9322
C4A C 0.479(3) -0.571(3) 0.905(3)
H4A H 0.4497 -0.6393 0.9286
C5A C 0.739(3) 0.478(2) 0.428(2)
H5A H 0.7874 0.5353 0.4127
C6A C 0.195(3) -0.387(3) 0.779(3)
H6A H 0.1114 -0.3905 0.7681
C7A C 0.594(3) -0.562(3) 0.923(3)
H7A H 0.6437 -0.6237 0.9621
C8A C 0.547(4) 0.598(2) 0.340(2)
H8A H 0.5880 0.6606 0.3198
C9A C 0.810(3) -0.339(3) 0.858(3)
H9A H 0.8924 -0.3265 0.8640
C10A C 0.249(3) -0.284(3) 0.743(3)
H10A H 0.2007 -0.2201 0.7081
C11A C 0.439(3) -0.374(2) 0.8102(19)
C12A C 0.568(3) -0.364(2) 0.8305(19)
C13A C 0.268(3) -0.478(3) 0.830(4)
H11A H 0.2338 -0.5439 0.8540
C14A C 0.420(2) 0.4114(19) 0.3949(19)
C15A C 0.717(3) 0.292(2) 0.500(2)
H12A H 0.7540 0.2227 0.5341
C16A C 0.425(3) 0.604(3) 0.318(3)
H13A H 0.3848 0.6717 0.2856
C17A C 0.545(2) 0.4010(19) 0.4213(19)
C18A C 0.358(3) 0.518(2) 0.340(2)
C19A C 0.648(3) -0.455(2) 0.881(2)
C20A C 0.168(4) 0.415(3) 0.359(3)
H14A H 0.0815 0.4128 0.3545
C21A C 0.230(4) 0.516(3) 0.324(2)
H15A H 0.1831 0.5803 0.2900
C22A C 0.392(2) -0.475(2) 0.848(3)
C23A C 0.614(3) 0.496(2) 0.395(2)
C24A C 0.719(3) -0.251(3) 0.808(3)
H16A H 0.7433 -0.1809 0.7820
O1A O 1.0315(17) -0.074(2) -0.3240(16)
O2A O 1.163(2) -0.248(2) 0.0213(18)
O3A O 0.5521(19) -0.0489(14) 0.7429(17)
O4A O 0.636(2) 0.1336(18) -0.2595(18)
O5A O 0.368(2) 0.1363(18) 0.6420(17)
H19A H 0.3244 0.1190 0.6998
O6A O 0.976(2) -0.182(2) -0.1077(19)
O8A O 0.690(3) -0.0394(17) -0.0657(15)
O9A O 1.211(3) 0.193(2) -0.217(2)
O10A O 0.704(3) 0.1547(17) -0.0900(15)
O11A O 1.0157(18) 0.3897(15) -0.0618(19)
O12A O 1.422(2) 0.1958(19) -0.1165(18)
O13A O 1.187(2) -0.084(2) -0.1744(19)
O14A O 1.184(3) 0.233(2) -0.051(2)
O15A O 1.0667(18) 0.3155(17) -0.3850(15)
O16A O 1.402(2) -0.185(2) -0.0761(19)
O16A_2 O 0.402(2) -0.185(2) 0.9239(19)
O17A O 1.328(2) 0.011(2) -0.098(2)
O18A O 0.854(3) 0.001(3) -0.231(2)
O19A O 1.006(3) 0.290(3) -0.183(3)
O20A O 1.065(2) 0.0947(19) -0.286(3)
O21A O 0.869(3) 0.199(2) -0.254(2)
O22A O 1.061(3) 0.109(3) -0.062(2)
O23A O 1.142(3) -0.013(3) 0.007(3)
O24A O 0.965(2) 0.040(2) -0.122(2)
O25A O 1.054(3) -0.074(2) -0.044(2)
O26A O 0.1919(17) 0.0169(17) 0.4802(17)
H23A H 0.1786 0.0632 0.5016
O27A O 0.3448(17) -0.0512(13) 0.6250(14)
O28A O 0.3919(16) 0.1054(14) 0.4422(14)
O29A O 0.3831(16) -0.0806(15) 0.4623(15)
V1? V 0.95422(11) -0.21565(9) 0.26252(9)
V2? V 0.98091(11) 0.04938(9) 0.22024(9)
V3? V 1.24713(10) -0.09131(9) 0.17899(10)
V4? V 1.28887(10) 0.13212(9) -0.07767(9)
V5? V 0.72609(9) 0.12799(8) 0.05011(9)
V6? V 1.00990(11) 0.26614(8) -0.04319(9)
H17? H 0.4658 0.0819 0.2900
H18? H 0.4288 0.1734 0.6383
loop_
_geom_bond_atom_site_label_1
_geom_bond_atom_site_label_2
_geom_bond_site_symmetry_1
_geom_bond_site_symmetry_2
W1 O9 1_555 1_555
W2 O1 1_555 1_555
W3 O4 1_555 1_555
W4 O9 1_555 1_555
W5 O2 1_555 1_555
W6 O11 1_555 1_555
P1 O22 1_555 1_555
P2 O26 1_555 1_555
Cu1 N3 1_555 1_555
Cu2 N1 1_555 1_555
N1 C1 1_555 1_555
N2 Cu2 1_555 1_555
N3 C10 1_555 1_555
N4 Cu1 1_555 1_555
C1 H1 1_555 1_555
C2 H2 1_555 1_555
C3 H3 1_555 1_555
C4 H4 1_555 1_555
C5 C2 1_555 1_555
H5 C5 1_555 1_555
C6 H6 1_555 1_555
C7 C4 1_555 1_555
H7 C7 1_555 1_555
C8 H8 1_555 1_555
C9 C3 1_555 1_555
H9 C9 1_555 1_555
C10 C6 1_555 1_555
H10 C10 1_555 1_555
C11 N3 1_555 1_555
C12 N4 1_555 1_555
C13 C6 1_555 1_555
H11 C13 1_555 1_555
C14 N1 1_555 1_555
C15 N2 1_555 1_555
H12 C15 1_555 1_555
C16 C8 1_555 1_555
H13 C16 1_555 1_555
C17 N2 1_555 1_555
C18 C14 1_555 1_555
C19 C3 1_555 1_555
C20 C1 1_555 1_555
H14 C20 1_555 1_555
C21 C18 1_555 1_555
H15 C21 1_555 1_555
C22 C4 1_555 1_555
C23 C5 1_555 1_555
C24 N4 1_555 1_555
H16 C24 1_555 1_555
O2 W6A 1_555 1_555
O3 Cu1 1_555 1_555
O5 Cu2 1_555 1_555
H19 O5 1_555 1_555
O6 W2 1_555 1_555
O7 H20 1_555 1_555
H21 O7 1_555 1_555
H22 O7 1_555 1_555
O8 W3 1_555 1_555
O10 W3 1_555 1_555
O12 W4 1_555 1_555
O13 W2 1_555 1_555
O14 W4 1_555 1_555
O15 W1 1_555 1_555
O16 W5 1_555 1_555
O17 W4 1_555 1_555
O18 W2 1_555 1_555
O19 W1 1_555 1_555
O20 W1 1_555 1_555
O21 W1 1_555 1_555
O22 W1 1_555 1_555
O23 W4 1_555 1_555
O24 W1 1_555 1_555
O25 W2 1_555 1_555
O26 H23 1_555 1_555
O27 P2 1_555 1_555
O28 P2 1_555 1_555
O29 P2 1_555 1_555
W1A O9A 1_555 1_555
W2A O1A 1_555 1_555
W3A O23 1_555 1_555
W4A O8 1_555 1_555
W5A O10 1_555 1_555
W6A O6 1_555 1_555
P2A O26A 1_555 1_555
Cu1A O16A 1_555 1_555
Cu1A_2 O28 1_555 1_555
Cu2A O29 1_555 1_555
N1A Cu2A 1_555 1_555
N2A Cu2A 1_555 1_555
N3A Cu1A_2 1_555 1_555
N4A Cu1A_2 1_555 1_555
C1A N1A 1_555 1_555
H1A C1A 1_555 1_555
C2A H2A 1_555 1_555
C3A H3A 1_555 1_555
C4A H4A 1_555 1_555
C5A C2A 1_555 1_555
H5A C5A 1_555 1_555
C6A H6A 1_555 1_555
C7A C4A 1_555 1_555
H7A C7A 1_555 1_555
C8A H8A 1_555 1_555
C9A C3A 1_555 1_555
H9A C9A 1_555 1_555
C10A N3A 1_555 1_555
H10A C10A 1_555 1_555
C11A N3A 1_555 1_555
C12A N4A 1_555 1_555
C13A C6A 1_555 1_555
H11A C13A 1_555 1_555
C14A N1A 1_555 1_555
C15A N2A 1_555 1_555
H12A C15A 1_555 1_555
C16A C8A 1_555 1_555
H13A C16A 1_555 1_555
C17A N2A 1_555 1_555
C18A C14A 1_555 1_555
C19A C3A 1_555 1_555
C20A C1A 1_555 1_555
H14A C20A 1_555 1_555
C21A C18A 1_555 1_555
H15A C21A 1_555 1_555
C22A C4A 1_555 1_555
C23A C5A 1_555 1_555
C24A N4A 1_555 1_555
H16A C24A 1_555 1_555
O2A W6 1_555 1_555
O3A Cu1A_2 1_555 1_555
O4A W3A 1_555 1_555
O5A Cu2A 1_555 1_555
H19A O5A 1_555 1_555
O6A W6 1_555 1_555
O8A W4 1_555 1_555
O9A W4A 1_555 1_555
O10A W5 1_555 1_555
O11A W6A 1_555 1_555
O12A W4A 1_555 1_555
O13A W2A 1_555 1_555
O14A W4A 1_555 1_555
O15A W1A 1_555 1_555
O16A W5A 1_555 1_555
O16A_2 Cu1A_2 1_555 1_555
O17A W4A 1_555 1_555
O18A W2A 1_555 1_555
O19A W1A 1_555 1_555
O20A W1A 1_555 1_555
O21A W1A 1_555 1_555
O22A P1 1_555 1_555
O23A W3 1_555 1_555
O24A P1 1_555 1_555
O25A W6 1_555 1_555
O26A H23A 1_555 1_555
O27A P2A 1_555 1_555
O28A Cu1 1_555 1_555
O29A Cu2 1_555 1_555
W2 O20 1_555 1_555
W2 O24 1_555 1_555
W3 O18 1_555 1_555
W3 O21 1_555 1_555
W3 O24 1_555 1_555
W4 O22 1_555 1_555
W5 O13 1_555 1_555
W5 O17 1_555 1_555
W5 O23 1_555 1_555
W5 O25 1_555 1_555
W6 O14 1_555 1_555
W6 O19 1_555 1_555
W6 O22 1_555 1_555
P1 O23 1_555 1_555
P1 O24 1_555 1_555
P1 O25 1_555 1_555
P1 O23A 1_555 1_555
P1 O25A 1_555 1_555
Cu1 O16 1_555 1_555
Cu1 O27 1_555 1_555
Cu2 O28 1_555 1_555
C2 C15 1_555 1_555
C7 C19 1_555 1_555
C8 C23 1_555 1_555
C9 C24 1_555 1_555
C11 C12 1_555 1_555
C11 C22 1_555 1_555
C12 C19 1_555 1_555
C13 C22 1_555 1_555
C14 C17 1_555 1_555
C16 C18 1_555 1_555
C17 C23 1_555 1_555
C20 C21 1_555 1_555
O22 O23 1_555 1_555
O22 O24 1_555 1_555
O22 O25A 1_555 1_555
O23 O25 1_555 1_555
O23 O24A 1_555 1_555
O24 O25 1_555 1_555
O24 O23A 1_555 1_555
O25 W6A 1_555 1_555
O25 O22A 1_555 1_555
W1A O22A 1_555 1_555
W1A O24A 1_555 1_555
W2A O6A 1_555 1_555
W2A O20A 1_555 1_555
W2A O24A 1_555 1_555
W2A O25A 1_555 1_555
W3A O8A 1_555 1_555
W3A O10A 1_555 1_555
W3A O18A 1_555 1_555
W3A O21A 1_555 1_555
W3A O24A 1_555 1_555
W4A O22A 1_555 1_555
W4A O23A 1_555 1_555
W5A O2A 1_555 1_555
W5A O13A 1_555 1_555
W5A O17A 1_555 1_555
W5A O23A 1_555 1_555
W5A O25A 1_555 1_555
W6A O14A 1_555 1_555
W6A O19A 1_555 1_555
W6A O22A 1_555 1_555
P2A O28A 1_555 1_555
P2A O29A 1_555 1_555
Cu1A_2 O27A 1_555 1_555
Cu2A O28A 1_555 1_555
C2A C15A 1_555 1_555
C6A C10A 1_555 1_555
C7A C19A 1_555 1_555
C8A C23A 1_555 1_555
C9A C24A 1_555 1_555
C11A C12A 1_555 1_555
C11A C22A 1_555 1_555
C12A C19A 1_555 1_555
C13A C22A 1_555 1_555
C14A C17A 1_555 1_555
C16A C18A 1_555 1_555
C17A C23A 1_555 1_555
C20A C21A 1_555 1_555
O22A O23A 1_555 1_555
O22A O24A 1_555 1_555
O23A O25A 1_555 1_555
O24A O25A 1_555 1_555

#END
