
#######################################################################
#
#                 Cambridge Crystallographic Data Centre
#                                CCDC 
#
#######################################################################
#
# If this CIF has been generated from an entry in the Cambridge 
# Structural Database, then it will include bibliographic, chemical, 
# crystal, experimental, refinement or atomic coordinate data resulting 
# from the CCDC's data processing and validation procedures.
#
#######################################################################

data_MUPCOR
_symmetry_cell_setting           triclinic
_symmetry_space_group_name_H-M   'P -1'
_symmetry_Int_Tables_number      2
_space_group_name_Hall           '-P 1'
loop_
_symmetry_equiv_pos_site_id
_symmetry_equiv_pos_as_xyz
1 x,y,z
2 -x,-y,-z
_cell_length_a                   8.935(11)
_cell_length_b                   11.077(13)
_cell_length_c                   12.747(15)
_cell_angle_alpha                98.982(14)
_cell_angle_beta                 105.895(12)
_cell_angle_gamma                94.471(14)
_cell_volume                     1188.78
loop_
_atom_site_label
_atom_site_type_symbol
_atom_site_fract_x
_atom_site_fract_y
_atom_site_fract_z
Sm1 Sm 0.74391(7) -0.03747(7) 0.03002(6)
N1 N 1.2460(16) 0.4919(16) 0.4955(12)
O1 O 0.7645(12) -0.1730(11) -0.1434(8)
H1 H 0.7939 -0.2402 -0.1260
H2 H 0.8367 -0.1378 -0.1639
O2 O 0.1201(12) -0.0723(10) 0.0662(9)
O3 O -0.0781(11) -0.1789(10) 0.1007(9)
O4 O 0.5750(10) -0.2394(9) -0.0159(8)
H3 H 0.4785 -0.2297 -0.0328
H4 H 0.5958 -0.2772 0.0385
O5 O 0.4899(10) -0.0155(9) 0.0994(7)
O6 O 0.6981(10) -0.0595(9) 0.2170(8)
O7 O 0.7272(10) 0.1829(10) 0.1077(9)
O8 O 0.9510(11) 0.1170(10) 0.1868(8)
O9 O 0.6966(12) 0.6342(11) 0.1542(10)
O10 O 0.8509(14) 0.7615(11) 0.3114(9)
O11 O 1.2878(16) 0.5978(13) 0.5474(12)
O12 O 1.3079(17) 0.4054(14) 0.5248(12)
C1 C 0.5618(15) -0.0311(12) 0.1979(10)
C2 C 0.4814(17) -0.0026(14) 0.2861(11)
C3 C 0.5269(18) 0.1170(16) 0.3521(13)
H5 H 0.6105 0.1678 0.3456
C4 C 0.442(2) 0.1591(18) 0.4293(14)
H6 H 0.4717 0.2366 0.4745
C5 C 0.314(2) 0.080(2) 0.4348(15)
H7 H 0.2568 0.1071 0.4828
C6 C 0.2718(18) -0.0384(16) 0.3682(13)
H8 H 0.1870 -0.0889 0.3735
C7 C 0.3532(15) -0.0810(14) 0.2957(11)
C8 C 0.3150(15) -0.2108(14) 0.2333(12)
C9 C 0.1735(15) -0.2541(15) 0.1461(13)
C10 C 0.1331(18) -0.3759(15) 0.0979(15)
H9 H 0.0374 -0.4019 0.0439
C11 C 0.235(2) -0.4607(16) 0.1298(18)
H10 H 0.2094 -0.5429 0.0948
C12 C 0.3780(18) -0.4236(16) 0.2146(16)
H11 H 0.4466 -0.4801 0.2363
C13 C 0.4136(16) -0.2981(16) 0.2654(13)
H12 H 0.5064 -0.2727 0.3225
C14 C 0.0615(15) -0.1606(13) 0.1013(10)
C15 C 0.8662(16) 0.2018(15) 0.1763(12)
C16 C 0.9271(15) 0.3315(14) 0.2446(12)
C17 C 0.8450(15) 0.4289(14) 0.2151(12)
H13 H 0.7545 0.4141 0.1552
C18 C 0.8992(18) 0.5516(14) 0.2766(12)
C19 C 1.0299(17) 0.5750(16) 0.3692(12)
H14 H 1.0640 0.6538 0.4113
C20 C 1.1104(16) 0.4709(15) 0.3968(13)
C21 C 1.0553(16) 0.3512(14) 0.3343(12)
H15 H 1.1074 0.2853 0.3549
C22 C 0.8085(19) 0.6533(16) 0.2420(14)
Sm1_2 Sm -0.25609(7) -0.03747(7) 0.03002(6)
Sm1A Sm 0.25609(7) 0.03747(7) -0.03002(6)
O2A O 0.8799(12) 0.0723(10) -0.0662(9)
O3_2 O 0.9219(11) -0.1789(10) 0.1007(9)
O5A O 0.5101(10) 0.0155(9) -0.0994(7)
loop_
_geom_bond_atom_site_label_1
_geom_bond_atom_site_label_2
_geom_bond_site_symmetry_1
_geom_bond_site_symmetry_2
Sm1 O1 1_555 1_555
N1 O11 1_555 1_555
O1 H1 1_555 1_555
H2 O1 1_555 1_555
O2 C14 1_555 1_555
O3 C14 1_555 1_555
O4 Sm1 1_555 1_555
H3 O4 1_555 1_555
H4 O4 1_555 1_555
O5 Sm1 1_555 1_555
O6 Sm1 1_555 1_555
O7 Sm1 1_555 1_555
O8 Sm1 1_555 1_555
O9 C22 1_555 1_555
O10 C22 1_555 1_555
O12 N1 1_555 1_555
C1 O5 1_555 1_555
C2 C1 1_555 1_555
C3 C2 1_555 1_555
H5 C3 1_555 1_555
C4 C3 1_555 1_555
H6 C4 1_555 1_555
C5 C4 1_555 1_555
H7 C5 1_555 1_555
C6 C5 1_555 1_555
H8 C6 1_555 1_555
C7 C2 1_555 1_555
C8 C7 1_555 1_555
C9 C8 1_555 1_555
C10 C9 1_555 1_555
H9 C10 1_555 1_555
C11 C10 1_555 1_555
H10 C11 1_555 1_555
C12 C11 1_555 1_555
H11 C12 1_555 1_555
C13 C8 1_555 1_555
H12 C13 1_555 1_555
C14 C9 1_555 1_555
C15 O7 1_555 1_555
C16 C15 1_555 1_555
C17 C16 1_555 1_555
H13 C17 1_555 1_555
C18 C17 1_555 1_555
C19 C18 1_555 1_555
H14 C19 1_555 1_555
C20 N1 1_555 1_555
C21 C16 1_555 1_555
H15 C21 1_555 1_555
C22 C18 1_555 1_555
Sm1_2 O3 1_555 1_555
Sm1A O2 1_555 1_555
O2A Sm1 1_555 1_555
O3_2 Sm1 1_555 1_555
O5A Sm1 1_555 1_555
O5 Sm1A 1_555 1_555
O6 C1 1_555 1_555
O8 C15 1_555 1_555
C6 C7 1_555 1_555
C12 C13 1_555 1_555
C19 C20 1_555 1_555
C20 C21 1_555 1_555
Sm1A O5A 1_555 1_555

#END
