
#######################################################################
#
#                 Cambridge Crystallographic Data Centre
#                                CCDC 
#
#######################################################################
#
# If this CIF has been generated from an entry in the Cambridge 
# Structural Database, then it will include bibliographic, chemical, 
# crystal, experimental, refinement or atomic coordinate data resulting 
# from the CCDC's data processing and validation procedures.
#
#######################################################################

data_MUPFIO
_symmetry_cell_setting           orthorhombic
_symmetry_space_group_name_H-M   'P 21 21 21'
_symmetry_Int_Tables_number      19
_space_group_name_Hall           'P 2ac 2ab'
loop_
_symmetry_equiv_pos_site_id
_symmetry_equiv_pos_as_xyz
1 x,y,z
2 1/2-x,-y,1/2+z
3 -x,1/2+y,1/2-z
4 1/2+x,1/2-y,-z
_cell_length_a                   7.1983(7)
_cell_length_b                   13.5912(13)
_cell_length_c                   15.5938(14)
_cell_angle_alpha                90
_cell_angle_beta                 90
_cell_angle_gamma                90
_cell_volume                     1525.6
loop_
_atom_site_label
_atom_site_type_symbol
_atom_site_fract_x
_atom_site_fract_y
_atom_site_fract_z
Eu1 Eu -0.11172(3) -0.71446(2) 0.00227(2)
O1 O -0.1109(5) -0.5353(3) -0.0123(3)
O2 O -0.4113(4) -0.6533(2) -0.0018(3)
O3 O -0.5569(6) -0.8561(4) -0.1515(2)
O4 O -0.3082(6) -0.8354(3) -0.0715(2)
O5 O -0.5725(8) -0.8138(3) 0.1517(3)
O6 O -0.2876(8) -0.8144(3) 0.1022(2)
N1 N -0.1951(13) -0.8258(6) 0.4217(4)
N2 N -0.0372(8) -0.9449(4) -0.3518(3)
C1 C -0.4405(8) -0.5534(4) -0.0257(4)
H1 H -0.5584 -0.5306 -0.0030
H2 H -0.4446 -0.5479 -0.0877
C2 C -0.2853(7) -0.4911(4) 0.0090(5)
H3 H -0.2921 -0.4256 -0.0154
H4 H -0.2968 -0.4856 0.0708
C3 C -0.0898(12) -0.8467(7) 0.3556(5)
H5 H 0.0323 -0.8650 0.3666
C4 C -0.1455(10) -0.8436(5) 0.2711(4)
H6 H -0.0614 -0.8558 0.2271
C5 C -0.3273(9) -0.8222(4) 0.2535(3)
C6 C -0.4464(10) -0.8045(4) 0.3218(4)
H7 H -0.5720 -0.7922 0.3126
C7 C -0.3728(13) -0.8057(5) 0.4046(4)
H8 H -0.4516 -0.7918 0.4502
C8 C -0.4026(11) -0.8168(4) 0.1629(3)
C9 C -0.2142(10) -0.9166(5) -0.3644(4)
H9 H -0.2595 -0.9148 -0.4202
C10 C -0.3321(9) -0.8900(4) -0.2983(4)
H10 H -0.4550 -0.8733 -0.3095
C11 C -0.2641(8) -0.8887(4) -0.2157(4)
C12 C -0.0817(8) -0.9145(4) -0.2027(4)
H11 H -0.0307 -0.9124 -0.1479
C13 C 0.0257(9) -0.9436(5) -0.2723(4)
H12 H 0.1476 -0.9632 -0.2623
C14 C -0.3854(9) -0.8583(4) -0.1426(3)
H13 H -0.075(8) -0.512(4) -0.058(4)
Eu1C Eu -0.61172(3) -0.78554(2) -0.00227(2)
O2C O 0.0887(4) -0.8467(2) 0.0018(3)
O3C O -0.0569(6) -0.6439(4) 0.1515(2)
O4C O 0.1918(6) -0.6646(3) 0.0715(2)
O5C O -0.0725(8) -0.6862(3) -0.1517(3)
O6C O 0.2124(8) -0.6856(3) -0.1022(2)
loop_
_geom_bond_atom_site_label_1
_geom_bond_atom_site_label_2
_geom_bond_site_symmetry_1
_geom_bond_site_symmetry_2
Eu1 O1 1_555 1_555
O1 C2 1_555 1_555
O2 Eu1 1_555 1_555
O3 C14 1_555 1_555
O4 Eu1 1_555 1_555
O5 C8 1_555 1_555
O6 Eu1 1_555 1_555
N1 C3 1_555 1_555
N2 C9 1_555 1_555
C1 O2 1_555 1_555
H1 C1 1_555 1_555
H2 C1 1_555 1_555
C2 C1 1_555 1_555
H3 C2 1_555 1_555
H4 C2 1_555 1_555
C3 H5 1_555 1_555
C4 C3 1_555 1_555
H6 C4 1_555 1_555
C5 C4 1_555 1_555
C6 C5 1_555 1_555
H7 C6 1_555 1_555
C7 N1 1_555 1_555
H8 C7 1_555 1_555
C8 O6 1_555 1_555
C9 H9 1_555 1_555
C10 C9 1_555 1_555
H10 C10 1_555 1_555
C11 C10 1_555 1_555
C12 C11 1_555 1_555
H11 C12 1_555 1_555
C13 N2 1_555 1_555
H12 C13 1_555 1_555
C14 O4 1_555 1_555
H13 O1 1_555 1_555
Eu1C O2 1_555 1_555
O2C Eu1 1_555 1_555
O3C Eu1 1_555 1_555
O4C Eu1 1_555 1_555
O5C Eu1 1_555 1_555
O6C Eu1 1_555 1_555
O3 Eu1C 1_555 1_555
O4 Eu1C 1_555 1_555
O5 Eu1C 1_555 1_555
O6 Eu1C 1_555 1_555
C5 C8 1_555 1_555
C6 C7 1_555 1_555
C11 C14 1_555 1_555
C12 C13 1_555 1_555

#END
