
#######################################################################
#
#                 Cambridge Crystallographic Data Centre
#                                CCDC 
#
#######################################################################
#
# If this CIF has been generated from an entry in the Cambridge 
# Structural Database, then it will include bibliographic, chemical, 
# crystal, experimental, refinement or atomic coordinate data resulting 
# from the CCDC's data processing and validation procedures.
#
#######################################################################

data_MUPFOU
_symmetry_cell_setting           orthorhombic
_symmetry_space_group_name_H-M   'P 21 21 21'
_symmetry_Int_Tables_number      19
_space_group_name_Hall           'P 2ac 2ab'
loop_
_symmetry_equiv_pos_site_id
_symmetry_equiv_pos_as_xyz
1 x,y,z
2 1/2-x,-y,1/2+z
3 -x,1/2+y,1/2-z
4 1/2+x,1/2-y,-z
_cell_length_a                   7.2088(13)
_cell_length_b                   13.542(3)
_cell_length_c                   15.616(3)
_cell_angle_alpha                90
_cell_angle_beta                 90
_cell_angle_gamma                90
_cell_volume                     1524.46
loop_
_atom_site_label
_atom_site_type_symbol
_atom_site_fract_x
_atom_site_fract_y
_atom_site_fract_z
Tb1 Tb 0.11125(3) 0.71522(2) -0.00323(2)
O1 O 0.1087(6) 0.5381(3) 0.0143(3)
H1 H 0.081(10) 0.516(5) 0.062(3)
O2 O 0.4079(4) 0.6552(3) 0.0001(3)
O3 O 0.5551(7) 0.8596(4) 0.1483(3)
O4 O 0.3071(6) 0.8352(3) 0.0692(3)
O5 O 0.5550(9) 0.8097(4) -0.1459(3)
O6 O 0.2633(10) 0.8150(4) -0.1059(3)
N1 N 0.2214(16) 0.8236(8) -0.4267(5)
N2 N 0.0375(9) 0.9474(5) 0.3489(4)
C1 C 0.4378(9) 0.5556(5) 0.0252(4)
H2 H 0.4454 0.5515 0.0871
H3 H 0.5541 0.5321 0.0015
C2 C 0.2811(8) 0.4922(4) -0.0064(6)
H4 H 0.2908 0.4836 -0.0679
H5 H 0.2876 0.4275 0.0202
C3 C 0.1046(16) 0.8428(9) -0.3642(7)
H6 H -0.0163 0.8593 -0.3792
C4 C 0.1476(11) 0.8405(6) -0.2776(5)
H7 H 0.0574 0.8519 -0.2362
C5 C 0.3279(10) 0.8207(5) -0.2554(4)
C6 C 0.4547(11) 0.8035(5) -0.3193(4)
H8 H 0.5787 0.7919 -0.3063
C7 C 0.3937(16) 0.8037(7) -0.4036(5)
H9 H 0.4792 0.7889 -0.4463
C8 C 0.3868(13) 0.8147(5) -0.1620(4)
C9 C 0.2142(11) 0.9208(6) 0.3607(4)
H10 H 0.2600 0.9204 0.4164
C10 C 0.3325(10) 0.8939(5) 0.2956(4)
H11 H 0.4556 0.8779 0.3067
C11 C 0.2624(9) 0.8914(5) 0.2123(4)
C12 C 0.0778(9) 0.9155(5) 0.1999(4)
H12 H 0.0255 0.9119 0.1455
C13 C -0.0277(11) 0.9448(6) 0.2692(5)
H13 H -0.1500 0.9636 0.2597
C14 C 0.3838(9) 0.8603(5) 0.1397(3)
Tb1C Tb 0.61125(3) 0.78478(2) 0.00323(2)
O2C O -0.0921(4) 0.8448(3) -0.0001(3)
O3C O 0.0551(7) 0.6404(4) -0.1483(3)
O4C O -0.1929(6) 0.6648(3) -0.0692(3)
O5C O 0.0550(9) 0.6903(4) 0.1459(3)
loop_
_geom_bond_atom_site_label_1
_geom_bond_atom_site_label_2
_geom_bond_site_symmetry_1
_geom_bond_site_symmetry_2
Tb1 O1 1_555 1_555
O1 H1 1_555 1_555
O2 Tb1 1_555 1_555
O3 C14 1_555 1_555
O4 Tb1 1_555 1_555
O5 C8 1_555 1_555
O6 Tb1 1_555 1_555
N1 C3 1_555 1_555
N2 C9 1_555 1_555
C1 O2 1_555 1_555
H2 C1 1_555 1_555
H3 C1 1_555 1_555
C2 O1 1_555 1_555
H4 C2 1_555 1_555
H5 C2 1_555 1_555
C3 H6 1_555 1_555
C4 C3 1_555 1_555
H7 C4 1_555 1_555
C5 C4 1_555 1_555
C6 C5 1_555 1_555
H8 C6 1_555 1_555
C7 N1 1_555 1_555
H9 C7 1_555 1_555
C8 O6 1_555 1_555
C9 H10 1_555 1_555
C10 C9 1_555 1_555
H11 C10 1_555 1_555
C11 C10 1_555 1_555
C12 C11 1_555 1_555
H12 C12 1_555 1_555
C13 N2 1_555 1_555
H13 C13 1_555 1_555
C14 O4 1_555 1_555
Tb1C O2 1_555 1_555
O2C Tb1 1_555 1_555
O3C Tb1 1_555 1_555
O4C Tb1 1_555 1_555
O5C Tb1 1_555 1_555
O3 Tb1C 1_555 1_555
O4 Tb1C 1_555 1_555
O5 Tb1C 1_555 1_555
C1 C2 1_555 1_555
C5 C8 1_555 1_555
C6 C7 1_555 1_555
C11 C14 1_555 1_555
C12 C13 1_555 1_555

#END
