
#######################################################################
#
#                 Cambridge Crystallographic Data Centre
#                                CCDC 
#
#######################################################################
#
# If this CIF has been generated from an entry in the Cambridge 
# Structural Database, then it will include bibliographic, chemical, 
# crystal, experimental, refinement or atomic coordinate data resulting 
# from the CCDC's data processing and validation procedures.
#
#######################################################################

data_MUPGIP
_symmetry_cell_setting           orthorhombic
_symmetry_space_group_name_H-M   'P 21 21 21'
_symmetry_Int_Tables_number      19
_space_group_name_Hall           'P 2ac 2ab'
loop_
_symmetry_equiv_pos_site_id
_symmetry_equiv_pos_as_xyz
1 x,y,z
2 1/2-x,-y,1/2+z
3 -x,1/2+y,1/2-z
4 1/2+x,1/2-y,-z
_cell_length_a                   7.215(4)
_cell_length_b                   13.570(8)
_cell_length_c                   15.616(9)
_cell_angle_alpha                90
_cell_angle_beta                 90
_cell_angle_gamma                90
_cell_volume                     1528.92
loop_
_atom_site_label
_atom_site_type_symbol
_atom_site_fract_x
_atom_site_fract_y
_atom_site_fract_z
Gd1 Gd 0.11186(4) 0.71470(2) -0.00273(2)
O1 O 0.1091(7) 0.5367(3) 0.0129(3)
H1 H 0.073(10) 0.510(5) 0.056(3)
O2 O 0.4100(5) 0.6538(3) 0.0006(4)
O3 O 0.5574(8) 0.8576(5) 0.1505(3)
O4 O 0.3081(8) 0.8349(4) 0.0704(3)
O5 O 0.5625(11) 0.8119(5) -0.1491(4)
O6 O 0.2761(11) 0.8147(4) -0.1032(3)
N1 N 0.2095(18) 0.8250(8) -0.4244(5)
N2 N 0.0374(11) 0.9460(5) 0.3507(4)
C1 C 0.4386(10) 0.5540(5) 0.0254(5)
H2 H 0.4437 0.5494 0.0874
H3 H 0.5555 0.5305 0.0025
C2 C 0.2830(9) 0.4917(5) -0.0078(7)
H4 H 0.2940 0.4847 -0.0694
H5 H 0.2893 0.4265 0.0176
C3 C 0.0971(17) 0.8444(9) -0.3595(7)
H6 H -0.0251 0.8606 -0.3723
C4 C 0.1479(13) 0.8425(7) -0.2739(6)
H7 H 0.0614 0.8552 -0.2312
C5 C 0.3282(12) 0.8214(5) -0.2539(4)
C6 C 0.4481(13) 0.8037(6) -0.3202(5)
H8 H 0.5726 0.7912 -0.3090
C7 C 0.3840(17) 0.8042(7) -0.4042(5)
H9 H 0.4667 0.7894 -0.4480
C8 C 0.3958(17) 0.8155(6) -0.1623(5)
C9 C 0.2136(13) 0.9200(7) 0.3620(5)
H10 H 0.2607 0.9207 0.4174
C10 C 0.3303(12) 0.8923(6) 0.2967(5)
H11 H 0.4527 0.8753 0.3082
C11 C 0.2642(10) 0.8898(5) 0.2141(4)
C12 C 0.0802(11) 0.9148(6) 0.2011(5)
H12 H 0.0283 0.9120 0.1466
C13 C -0.0252(12) 0.9442(6) 0.2711(5)
H13 H -0.1469 0.9636 0.2614
C14 C 0.3860(13) 0.8588(6) 0.1406(4)
Gd1C Gd 0.61186(4) 0.78530(2) 0.00273(2)
O2C O -0.0900(5) 0.8462(3) -0.0006(4)
O3C O 0.0574(8) 0.6424(5) -0.1505(3)
O4C O -0.1919(8) 0.6651(4) -0.0704(3)
O5C O 0.0625(11) 0.6881(5) 0.1491(4)
loop_
_geom_bond_atom_site_label_1
_geom_bond_atom_site_label_2
_geom_bond_site_symmetry_1
_geom_bond_site_symmetry_2
Gd1 O1 1_555 1_555
O1 H1 1_555 1_555
O2 Gd1 1_555 1_555
O3 C14 1_555 1_555
O4 Gd1 1_555 1_555
O5 C8 1_555 1_555
O6 Gd1 1_555 1_555
N1 C3 1_555 1_555
N2 C9 1_555 1_555
C1 O2 1_555 1_555
H2 C1 1_555 1_555
H3 C1 1_555 1_555
C2 O1 1_555 1_555
H4 C2 1_555 1_555
H5 C2 1_555 1_555
C3 H6 1_555 1_555
C4 C3 1_555 1_555
H7 C4 1_555 1_555
C5 C4 1_555 1_555
C6 C5 1_555 1_555
H8 C6 1_555 1_555
C7 N1 1_555 1_555
H9 C7 1_555 1_555
C8 O6 1_555 1_555
C9 H10 1_555 1_555
C10 C9 1_555 1_555
H11 C10 1_555 1_555
C11 C10 1_555 1_555
C12 C11 1_555 1_555
H12 C12 1_555 1_555
C13 N2 1_555 1_555
H13 C13 1_555 1_555
C14 O4 1_555 1_555
Gd1C O2 1_555 1_555
O2C Gd1 1_555 1_555
O3C Gd1 1_555 1_555
O4C Gd1 1_555 1_555
O5C Gd1 1_555 1_555
O3 Gd1C 1_555 1_555
O4 Gd1C 1_555 1_555
O5 Gd1C 1_555 1_555
C1 C2 1_555 1_555
C5 C8 1_555 1_555
C6 C7 1_555 1_555
C11 C14 1_555 1_555
C12 C13 1_555 1_555

#END
