
#######################################################################
#
#                 Cambridge Crystallographic Data Centre
#                                CCDC 
#
#######################################################################
#
# If this CIF has been generated from an entry in the Cambridge 
# Structural Database, then it will include bibliographic, chemical, 
# crystal, experimental, refinement or atomic coordinate data resulting 
# from the CCDC's data processing and validation procedures.
#
#######################################################################

data_MUPGOV
_symmetry_cell_setting           monoclinic
_symmetry_space_group_name_H-M   'C 2/c'
_symmetry_Int_Tables_number      15
_space_group_name_Hall           '-C 2yn'
loop_
_symmetry_equiv_pos_site_id
_symmetry_equiv_pos_as_xyz
1 x,y,z
2 -x,y,1/2-z
3 1/2+x,1/2+y,z
4 1/2-x,1/2+y,1/2-z
5 -x,-y,-z
6 x,-y,1/2+z
7 1/2-x,1/2-y,-z
8 1/2+x,1/2-y,1/2+z
_cell_length_a                   21.491(5)
_cell_length_b                   7.4138(16)
_cell_length_c                   20.282(4)
_cell_angle_alpha                90
_cell_angle_beta                 99.144(2)
_cell_angle_gamma                90
_cell_volume                     3190.46
loop_
_atom_site_label
_atom_site_type_symbol
_atom_site_fract_x
_atom_site_fract_y
_atom_site_fract_z
La1 La 0.23550(2) 0.14039(2) 0.22507(2)
O1 O 0.36835(13) 0.6215(3) 0.22671(13)
O2 O 0.19742(11) 0.4436(3) 0.20213(11)
O3 O 0.14772(13) 0.1684(3) 0.12297(12)
H1 H 0.1465(19) 0.106(4) 0.0890(14)
O4 O 0.32924(12) 0.3505(3) 0.23406(13)
O5 O 0.24664(12) -0.1767(3) 0.16526(11)
O6 O 0.29023(12) 0.0550(3) 0.12190(12)
N1 N 0.5123(2) 0.2441(7) 0.1120(2)
N2 N 0.35309(16) -0.4665(5) -0.01082(15)
C1 C 0.13801(19) 0.4647(5) 0.1632(2)
H2 H 0.1331 0.5893 0.1487
H3 H 0.1059 0.4394 0.1906
C2 C 0.1279(2) 0.3479(5) 0.1047(2)
H4 H 0.0836 0.3477 0.0856
H5 H 0.1516 0.3932 0.0713
C3 C 0.5048(3) 0.4192(8) 0.1201(3)
H6 H 0.5306 0.4978 0.1011
C4 C 0.4604(2) 0.4931(6) 0.1556(2)
H7 H 0.4574 0.6174 0.1603
C5 C 0.42162(17) 0.3807(5) 0.18324(18)
C6 C 0.4298(2) 0.1979(6) 0.1764(2)
H8 H 0.4050 0.1162 0.1955
C7 C 0.4758(2) 0.1375(7) 0.1404(3)
H9 H 0.4809 0.0137 0.1364
C8 C 0.37047(16) 0.4554(5) 0.21744(16)
C9 C 0.31352(19) -0.5238(5) 0.02912(18)
H10 H 0.3010 -0.6440 0.0260
C10 C 0.29012(18) -0.4155(5) 0.07478(17)
H11 H 0.2635 -0.4625 0.1025
C11 C 0.30706(16) -0.2357(5) 0.07845(15)
C12 C 0.34887(18) -0.1740(5) 0.03861(17)
H12 H 0.3622 -0.0545 0.0409
C13 C 0.37080(19) -0.2952(6) -0.00525(18)
H13 H 0.3992 -0.2535 -0.0319
C14 C 0.28025(17) -0.1091(5) 0.12477(16)
La1C La 0.26450(2) -0.35961(2) 0.27493(2)
La1C_2 La 0.26450(2) 0.64039(2) 0.27493(2)
O1C O 0.13165(13) 0.1215(3) 0.27329(13)
O2C O 0.30258(11) -0.0564(3) 0.29787(11)
O4C O 0.17076(12) -0.1495(3) 0.26594(13)
O5C O 0.25336(12) 0.3233(3) 0.33474(11)
loop_
_geom_bond_atom_site_label_1
_geom_bond_atom_site_label_2
_geom_bond_site_symmetry_1
_geom_bond_site_symmetry_2
La1 O2 1_555 1_555
O1 C8 1_555 1_555
O2 C1 1_555 1_555
O3 La1 1_555 1_555
H1 O3 1_555 1_555
O4 La1 1_555 1_555
O5 La1 1_555 1_555
O6 La1 1_555 1_555
N1 C3 1_555 1_555
N2 C9 1_555 1_555
C1 H2 1_555 1_555
H3 C1 1_555 1_555
C2 O3 1_555 1_555
H4 C2 1_555 1_555
H5 C2 1_555 1_555
C3 H6 1_555 1_555
C4 C3 1_555 1_555
H7 C4 1_555 1_555
C5 C4 1_555 1_555
C6 C5 1_555 1_555
H8 C6 1_555 1_555
C7 N1 1_555 1_555
H9 C7 1_555 1_555
C8 O4 1_555 1_555
C9 H10 1_555 1_555
C10 C9 1_555 1_555
H11 C10 1_555 1_555
C11 C10 1_555 1_555
C12 C11 1_555 1_555
H12 C12 1_555 1_555
C13 N2 1_555 1_555
H13 C13 1_555 1_555
C14 O5 1_555 1_555
La1C O5 1_555 1_555
La1C_2 O1 1_555 1_555
O1C La1 1_555 1_555
O2C La1 1_555 1_555
O4C La1 1_555 1_555
O5C La1 1_555 1_555
O2 La1C_2 1_555 1_555
O4 La1C_2 1_555 1_555
O6 C14 1_555 1_555
C1 C2 1_555 1_555
C5 C8 1_555 1_555
C6 C7 1_555 1_555
C11 C14 1_555 1_555
C12 C13 1_555 1_555
La1C O2C 1_555 1_555
La1C O4C 1_555 1_555
La1C_2 O5C 1_555 1_555

#END
