
#######################################################################
#
#                 Cambridge Crystallographic Data Centre
#                                CCDC 
#
#######################################################################
#
# If this CIF has been generated from an entry in the Cambridge 
# Structural Database, then it will include bibliographic, chemical, 
# crystal, experimental, refinement or atomic coordinate data resulting 
# from the CCDC's data processing and validation procedures.
#
#######################################################################

data_MUPGEL
_symmetry_cell_setting           orthorhombic
_symmetry_space_group_name_H-M   'P 21 21 21'
_symmetry_Int_Tables_number      19
_space_group_name_Hall           'P 2ac 2ab'
loop_
_symmetry_equiv_pos_site_id
_symmetry_equiv_pos_as_xyz
1 x,y,z
2 1/2-x,-y,1/2+z
3 -x,1/2+y,1/2-z
4 1/2+x,1/2-y,-z
_cell_length_a                   7.2037(13)
_cell_length_b                   13.510(2)
_cell_length_c                   15.604(3)
_cell_angle_alpha                90
_cell_angle_beta                 90
_cell_angle_gamma                90
_cell_volume                     1518.61
loop_
_atom_site_label
_atom_site_type_symbol
_atom_site_fract_x
_atom_site_fract_y
_atom_site_fract_z
Ho1 Ho -0.11125(5) -0.71610(3) 0.00428(2)
O1 O -0.1064(9) -0.5401(5) -0.0157(4)
H1 H -0.064(14) -0.518(7) -0.062(4)
O2 O -0.4045(7) -0.6568(4) 0.0007(4)
O3 O -0.5546(10) -0.8619(6) -0.1463(4)
O4 O -0.3071(10) -0.8353(5) -0.0664(4)
O5 O -0.5429(12) -0.8073(6) 0.1418(5)
O6 O -0.2460(14) -0.8154(6) 0.1086(5)
N1 N -0.244(3) -0.8219(12) 0.4304(7)
N2 N -0.0367(14) -0.9498(7) -0.3466(6)
C1 C -0.4340(14) -0.5567(7) -0.0249(7)
H2 H -0.5492 -0.5325 -0.0005
H3 H -0.4437 -0.5531 -0.0868
C2 C -0.2772(12) -0.4945(7) 0.0048(8)
H4 H -0.2839 -0.4300 -0.0223
H5 H -0.2857 -0.4851 0.0663
C3 C -0.116(2) -0.8386(13) 0.3719(10)
H6 H 0.0046 -0.8511 0.3906
C4 C -0.1499(17) -0.8387(10) 0.2821(8)
H7 H -0.0556 -0.8507 0.2428
C5 C -0.3300(16) -0.8201(7) 0.2562(6)
C6 C -0.4632(18) -0.8038(8) 0.3168(7)
H8 H -0.5863 -0.7939 0.3011
C7 C -0.410(2) -0.8024(10) 0.4037(7)
H9 H -0.4997 -0.7865 0.4443
C8 C -0.3774(19) -0.8135(7) 0.1613(6)
C9 C -0.2134(18) -0.9249(9) -0.3592(7)
H10 H -0.2600 -0.9259 -0.4148
C10 C -0.3326(16) -0.8973(8) -0.2920(7)
H11 H -0.4564 -0.8818 -0.3023
C11 C -0.2590(15) -0.8941(7) -0.2100(6)
C12 C -0.0749(14) -0.9161(8) -0.1979(6)
H12 H -0.0215 -0.9102 -0.1439
C13 C 0.0301(18) -0.9470(8) -0.2670(8)
H13 H 0.1521 -0.9666 -0.2576
C14 C -0.3822(14) -0.8610(7) -0.1374(6)
Ho1C Ho -0.61125(5) -0.78390(3) -0.00428(2)
O2C O 0.0955(7) -0.8432(4) -0.0007(4)
O3C O -0.0546(10) -0.6381(6) 0.1463(4)
O4C O 0.1929(10) -0.6647(5) 0.0664(4)
O5C O -0.0429(12) -0.6927(6) -0.1418(5)
loop_
_geom_bond_atom_site_label_1
_geom_bond_atom_site_label_2
_geom_bond_site_symmetry_1
_geom_bond_site_symmetry_2
Ho1 O1 1_555 1_555
O1 H1 1_555 1_555
O2 Ho1 1_555 1_555
O3 C14 1_555 1_555
O4 Ho1 1_555 1_555
O5 C8 1_555 1_555
O6 Ho1 1_555 1_555
N1 C3 1_555 1_555
N2 C9 1_555 1_555
C1 O2 1_555 1_555
H2 C1 1_555 1_555
H3 C1 1_555 1_555
C2 O1 1_555 1_555
H4 C2 1_555 1_555
H5 C2 1_555 1_555
C3 H6 1_555 1_555
C4 C3 1_555 1_555
H7 C4 1_555 1_555
C5 C4 1_555 1_555
C6 C5 1_555 1_555
H8 C6 1_555 1_555
C7 N1 1_555 1_555
H9 C7 1_555 1_555
C8 O6 1_555 1_555
C9 H10 1_555 1_555
C10 C9 1_555 1_555
H11 C10 1_555 1_555
C11 C10 1_555 1_555
C12 C11 1_555 1_555
H12 C12 1_555 1_555
C13 N2 1_555 1_555
H13 C13 1_555 1_555
C14 O4 1_555 1_555
Ho1C O2 1_555 1_555
O2C Ho1 1_555 1_555
O3C Ho1 1_555 1_555
O4C Ho1 1_555 1_555
O5C Ho1 1_555 1_555
O3 Ho1C 1_555 1_555
O4 Ho1C 1_555 1_555
O5 Ho1C 1_555 1_555
C1 C2 1_555 1_555
C5 C8 1_555 1_555
C6 C7 1_555 1_555
C11 C14 1_555 1_555
C12 C13 1_555 1_555

#END
