
#######################################################################
#
#                 Cambridge Crystallographic Data Centre
#                                CCDC 
#
#######################################################################
#
# If this CIF has been generated from an entry in the Cambridge 
# Structural Database, then it will include bibliographic, chemical, 
# crystal, experimental, refinement or atomic coordinate data resulting 
# from the CCDC's data processing and validation procedures.
#
#######################################################################

data_MUPGAH
_symmetry_cell_setting           orthorhombic
_symmetry_space_group_name_H-M   'P 21 21 21'
_symmetry_Int_Tables_number      19
_space_group_name_Hall           'P 2ac 2ab'
loop_
_symmetry_equiv_pos_site_id
_symmetry_equiv_pos_as_xyz
1 x,y,z
2 1/2-x,-y,1/2+z
3 -x,1/2+y,1/2-z
4 1/2+x,1/2-y,-z
_cell_length_a                   7.1976(6)
_cell_length_b                   13.5132(11)
_cell_length_c                   15.6057(12)
_cell_angle_alpha                90
_cell_angle_beta                 90
_cell_angle_gamma                90
_cell_volume                     1517.85
loop_
_atom_site_label
_atom_site_type_symbol
_atom_site_fract_x
_atom_site_fract_y
_atom_site_fract_z
Dy1 Dy 0.11107(2) 0.28424(2) 0.49641(2)
O1 O 0.4063(3) 0.34365(19) 0.49945(18)
O2 O 0.1072(4) 0.4611(2) 0.51508(18)
H1 H 0.077(6) 0.483(3) 0.5640(19)
O3 O 0.0549(4) 0.3608(3) 0.35251(18)
O4 O -0.1926(4) 0.3351(2) 0.43180(17)
O5 O -0.2468(6) 0.3153(3) 0.6074(2)
O6 O 0.0485(6) 0.3085(3) 0.64382(19)
N1 N -0.4630(6) 0.4486(3) 0.1523(2)
N2 N -0.2687(11) 0.3226(5) 0.9285(3)
C1 C -0.2858(8) 0.4223(4) 0.1402(3)
H2 H -0.2395 0.4223 0.0846
C2 C -0.1679(7) 0.3953(4) 0.2059(3)
H3 H -0.0444 0.3794 0.1950
C3 C -0.2383(6) 0.3923(3) 0.2882(3)
C4 C -0.4233(6) 0.4158(3) 0.3013(3)
H4 H -0.4760 0.4118 0.3556
C5 C -0.5277(7) 0.4454(4) 0.2314(3)
H5 H -0.6504 0.4640 0.2406
C6 C -0.1157(7) 0.3608(3) 0.3614(2)
C7 C -0.3900(10) 0.3414(6) 0.8673(4)
H6 H -0.5106 0.3572 0.8837
C8 C -0.3514(8) 0.3392(4) 0.7804(3)
H7 H -0.4442 0.3503 0.7401
C9 C -0.1717(7) 0.3201(3) 0.7554(2)
C10 C -0.0408(8) 0.3027(4) 0.8181(3)
H8 H 0.0826 0.2905 0.8039
C11 C -0.0980(10) 0.3039(5) 0.9030(3)
H9 H -0.0095 0.2904 0.9448
C12 C -0.1196(8) 0.3142(3) 0.6620(3)
C13 C 0.4362(6) 0.4438(3) 0.5253(3)
H10 H 0.5531 0.4675 0.5022
H11 H 0.4426 0.4476 0.5873
C14 C 0.2801(5) 0.5071(3) 0.4933(3)
H12 H 0.2871 0.5723 0.5193
H13 H 0.2893 0.5148 0.4317
Dy1C Dy -0.38893(2) 0.21576(2) 0.50359(2)
Dy1C_2 Dy 0.61107(2) 0.21576(2) 0.50359(2)
O1C O -0.0937(3) 0.15635(19) 0.50055(18)
O4C O 0.3074(4) 0.1649(2) 0.56820(17)
O5C O 0.2532(6) 0.1847(3) 0.3926(2)
loop_
_geom_bond_atom_site_label_1
_geom_bond_atom_site_label_2
_geom_bond_site_symmetry_1
_geom_bond_site_symmetry_2
Dy1 O1 1_555 1_555
O1 C13 1_555 1_555
O2 Dy1 1_555 1_555
H1 O2 1_555 1_555
O3 Dy1 1_555 1_555
O4 Dy1 1_555 1_555
O5 C12 1_555 1_555
O6 Dy1 1_555 1_555
N1 C1 1_555 1_555
N2 C7 1_555 1_555
C1 H2 1_555 1_555
C2 C1 1_555 1_555
H3 C2 1_555 1_555
C3 C2 1_555 1_555
C4 C3 1_555 1_555
H4 C4 1_555 1_555
C5 N1 1_555 1_555
H5 C5 1_555 1_555
C6 O3 1_555 1_555
C7 H6 1_555 1_555
C8 C7 1_555 1_555
H7 C8 1_555 1_555
C9 C8 1_555 1_555
C10 C9 1_555 1_555
H8 C10 1_555 1_555
C11 N2 1_555 1_555
H9 C11 1_555 1_555
C12 O6 1_555 1_555
C13 H10 1_555 1_555
H11 C13 1_555 1_555
C14 O2 1_555 1_555
H12 C14 1_555 1_555
H13 C14 1_555 1_555
Dy1C O4 1_555 1_555
Dy1C_2 O1 1_555 1_555
O1C Dy1 1_555 1_555
O4C Dy1 1_555 1_555
O5C Dy1 1_555 1_555
O4 C6 1_555 1_555
O5 Dy1C 1_555 1_555
C3 C6 1_555 1_555
C4 C5 1_555 1_555
C9 C12 1_555 1_555
C10 C11 1_555 1_555
C13 C14 1_555 1_555
Dy1C O1C 1_555 1_555
Dy1C_2 O4C 1_555 1_555

#END
