
#######################################################################
#
#                 Cambridge Crystallographic Data Centre
#                                CCDC 
#
#######################################################################
#
# If this CIF has been generated from an entry in the Cambridge 
# Structural Database, then it will include bibliographic, chemical, 
# crystal, experimental, refinement or atomic coordinate data resulting 
# from the CCDC's data processing and validation procedures.
#
#######################################################################

data_MUPKOY
_symmetry_cell_setting           monoclinic
_symmetry_space_group_name_H-M   'P 21/c'
_symmetry_Int_Tables_number      14
_space_group_name_Hall           '-P 2ybc'
loop_
_symmetry_equiv_pos_site_id
_symmetry_equiv_pos_as_xyz
1 x,y,z
2 -x,1/2+y,1/2-z
3 -x,-y,-z
4 x,1/2-y,1/2+z
_cell_length_a                   7.4292(15)
_cell_length_b                   14.559(3)
_cell_length_c                   17.925(5)
_cell_angle_alpha                90
_cell_angle_beta                 108.21(3)
_cell_angle_gamma                90
_cell_volume                     1841.7
loop_
_atom_site_label
_atom_site_type_symbol
_atom_site_fract_x
_atom_site_fract_y
_atom_site_fract_z
Cu1 Cu 0.7150(3) -0.18426(14) -0.12606(10)
Cu2 Cu 0.5002(2) -0.10504(10) -0.30176(9)
I1 I 0.87037(13) -0.11783(6) -0.22307(6)
I2 I 0.38389(14) 0.05401(6) -0.27602(6)
N1 N 0.4493(14) -0.2209(6) -0.1755(5)
N2 N 0.3739(13) -0.2070(6) -0.2557(5)
N3 N 0.1999(13) -0.3086(6) -0.2199(6)
N4 N 0.0493(16) -0.3642(9) -0.2170(8)
N5 N 0.4522(14) -0.3641(7) 0.0838(5)
N6 N -0.1143(15) -0.2947(9) -0.5181(6)
C1 C 0.3413(15) -0.2816(7) -0.1542(6)
C2 C 0.2263(16) -0.2609(8) -0.2801(7)
C3 C 0.3656(19) -0.4224(9) 0.0240(7)
C4 C 0.3260(18) -0.3994(8) -0.0545(8)
C5 C 0.3710(17) -0.3100(8) -0.0718(7)
C6 C 0.4482(19) -0.2501(8) -0.0122(7)
C7 C 0.489(2) -0.2797(9) 0.0642(7)
C8 C -0.0746(19) -0.2098(11) -0.4872(8)
C9 C 0.036(2) -0.1966(10) -0.4093(9)
C10 C 0.1065(17) -0.2718(9) -0.3613(7)
C11 C 0.068(2) -0.3588(9) -0.3942(8)
C12 C -0.042(2) -0.3665(11) -0.4716(8)
H1 H 0.08(3) -0.151(13) -0.385(11)
H2 H 0.45(2) -0.185(12) -0.033(10)
H3 H -0.13(3) -0.158(12) -0.526(11)
H4 H 0.29(2) -0.460(12) -0.096(10)
H5 H 0.11(3) -0.409(12) -0.365(11)
H6 H -0.09(2) -0.427(12) -0.502(10)
H7 H 0.56(2) -0.230(12) 0.113(10)
H8 H 0.32(2) -0.490(12) 0.041(10)
H9 H 0.03(2) -0.412(7) -0.246(8)
H10 H -0.048(13) -0.330(9) -0.228(9)
Cu1C Cu -0.2850(3) -0.31574(14) -0.62606(10)
Cu2C Cu 0.5002(2) -0.39496(10) 0.19824(9)
N5C N 0.4522(14) -0.1359(7) -0.4162(5)
N6C N 0.8857(15) -0.2053(9) -0.0181(6)
I3 I 0.53157(15) -0.48869(6) -0.41870(6)
I3B I 0.46843(15) -0.51131(6) -0.58130(6)
loop_
_geom_bond_atom_site_label_1
_geom_bond_atom_site_label_2
_geom_bond_site_symmetry_1
_geom_bond_site_symmetry_2
Cu1 I1 1_555 1_555
Cu2 I1 1_555 1_555
I2 Cu2 1_555 1_555
I3 I3B 1_555 1_555
N1 Cu1 1_555 1_555
N2 Cu2 1_555 1_555
N3 N4 1_555 1_555
N4 H9 1_555 1_555
N5 C3 1_555 1_555
N6 C8 1_555 1_555
C1 N1 1_555 1_555
C2 N2 1_555 1_555
C3 C4 1_555 1_555
C4 C5 1_555 1_555
C5 C1 1_555 1_555
C6 C5 1_555 1_555
C7 N5 1_555 1_555
C8 C9 1_555 1_555
C9 C10 1_555 1_555
C10 C2 1_555 1_555
C11 C10 1_555 1_555
C12 N6 1_555 1_555
H1 C9 1_555 1_555
H2 C6 1_555 1_555
H3 C8 1_555 1_555
H4 C4 1_555 1_555
H5 C11 1_555 1_555
H6 C12 1_555 1_555
H7 C7 1_555 1_555
H8 C3 1_555 1_555
H10 N4 1_555 1_555
Cu1C N6 1_555 1_555
Cu2C N5 1_555 1_555
N5C Cu2 1_555 1_555
N6C Cu1 1_555 1_555
N1 N2 1_555 1_555
N3 C1 1_555 1_555
N3 C2 1_555 1_555
C6 C7 1_555 1_555
C11 C12 1_555 1_555

#END
