
#######################################################################
#
#                 Cambridge Crystallographic Data Centre
#                                CCDC 
#
#######################################################################
#
# If this CIF has been generated from an entry in the Cambridge 
# Structural Database, then it will include bibliographic, chemical, 
# crystal, experimental, refinement or atomic coordinate data resulting 
# from the CCDC's data processing and validation procedures.
#
#######################################################################

data_MUPKIS
_symmetry_cell_setting           triclinic
_symmetry_space_group_name_H-M   'P -1'
_symmetry_Int_Tables_number      2
_space_group_name_Hall           '-P 1'
loop_
_symmetry_equiv_pos_site_id
_symmetry_equiv_pos_as_xyz
1 x,y,z
2 -x,-y,-z
_cell_length_a                   7.7997(16)
_cell_length_b                   13.514(3)
_cell_length_c                   16.373(3)
_cell_angle_alpha                103.66(3)
_cell_angle_beta                 100.20(3)
_cell_angle_gamma                103.09(3)
_cell_volume                     1584.2
loop_
_atom_site_label
_atom_site_type_symbol
_atom_site_fract_x
_atom_site_fract_y
_atom_site_fract_z
Cu1 Cu 1.5409(3) -0.68046(14) -0.17469(11)
Cu2 Cu 1.4814(2) -0.40683(13) -0.02008(10)
Cu3 Cu 1.5913(2) -0.86803(13) -0.14008(9)
Cu4 Cu 1.5296(3) -0.90833(14) -0.30715(10)
I1 I 1.81625(12) -0.76052(7) -0.21889(5)
I2 I 1.73512(12) -0.49397(6) -0.06167(5)
I3 I 1.34003(13) -0.78211(6) -0.09268(5)
I4 I 1.42514(14) -1.06170(7) -0.24861(5)
N1 N 2.2214(16) -0.7253(8) 0.2553(6)
N2 N 2.3117(16) -0.7282(9) 0.3359(6)
N3 N 2.1179(14) -0.8843(7) 0.2678(6)
N4 N 2.0327(17) -0.9932(8) 0.2535(7)
H1 H 1.9356 -0.9745 0.2514
H2 H 2.0098 -1.0563 0.2214
N5 N 2.4392(15) -0.8918(8) 0.5780(6)
N6 N 1.7687(15) -0.8658(8) -0.0323(6)
N7 N 1.1638(15) -0.4644(8) -0.5875(6)
N8 N 1.2531(15) -0.4693(8) -0.5104(6)
N9 N 1.0413(14) -0.6175(7) -0.5704(6)
N10 N 0.9284(17) -0.7183(8) -0.5831(6)
H3 H 0.8753 -0.7175 -0.5420
H4 H 0.8527 -0.7512 -0.6313
N11 N 0.6848(15) -0.5951(8) -0.8703(6)
N12 N 1.4123(15) -0.6467(8) -0.2784(6)
C1 C 2.2406(18) -0.8213(10) 0.3426(8)
C2 C 2.1125(17) -0.8184(10) 0.2148(7)
C3 C 2.5206(17) -0.8039(10) 0.5583(7)
H5 H 2.6218 -0.7554 0.5985
C4 C 2.4612(18) -0.7827(9) 0.4815(7)
H6 H 2.5225 -0.7218 0.4703
C5 C 2.3089(17) -0.8532(9) 0.4213(7)
C6 C 2.222(2) -0.9427(12) 0.4391(8)
H7 H 2.1196 -0.9912 0.3994
C7 C 2.290(2) -0.9600(10) 0.5180(8)
H8 H 2.2296 -1.0207 0.5301
C8 C 1.763(2) -0.9474(10) -0.0008(8)
H9 H 1.6819 -1.0126 -0.0329
C9 C 1.874(2) -0.9403(10) 0.0789(8)
H10 H 1.8686 -0.9998 0.0987
C10 C 1.9929(16) -0.8427(9) 0.1276(7)
C11 C 1.996(2) -0.7584(10) 0.0939(8)
H11 H 2.0716 -0.6911 0.1248
C12 C 1.885(2) -0.7753(11) 0.0140(10)
H12 H 1.8925 -0.7182 -0.0090
C13 C 1.0324(16) -0.5522(9) -0.6225(7)
C14 C 1.1866(17) -0.5631(9) -0.5020(7)
C15 C 0.6335(18) -0.6527(9) -0.8188(7)
H13 H 0.5188 -0.7010 -0.8376
C16 C 0.738(2) -0.6457(12) -0.7396(8)
H14 H 0.6948 -0.6892 -0.7071
C17 C 0.9075(17) -0.5744(9) -0.7087(7)
C18 C 0.9584(18) -0.5093(10) -0.7599(8)
H15 H 1.0682 -0.4564 -0.7406
C19 C 0.8488(17) -0.5232(10) -0.8368(8)
H16 H 0.8889 -0.4797 -0.8699
C20 C 1.4911(18) -0.5632(10) -0.3037(7)
H17 H 1.6023 -0.5188 -0.2689
C21 C 1.421(2) -0.5385(10) -0.3761(7)
H18 H 1.4878 -0.4829 -0.3918
C22 C 1.2506(17) -0.5966(10) -0.4258(7)
C23 C 1.1623(17) -0.6813(9) -0.4005(8)
H19 H 1.0476 -0.7236 -0.4329
C24 C 1.2443(19) -0.7033(10) -0.3272(8)
H20 H 1.1809 -0.7594 -0.3108
Cu2A Cu 1.5186(2) -0.59317(13) 0.02008(10)
Cu2A_2 Cu 0.5186(2) -0.59317(13) -0.97992(10)
Cu4_2 Cu 2.5296(3) -0.90833(14) 0.69285(10)
I2A I 1.26488(12) -0.50603(6) 0.06167(5)
I3A I 1.65997(13) -0.21789(6) 0.09268(5)
N5_2 N 1.4392(15) -0.8918(8) -0.4220(6)
N11A N 1.3152(15) -0.4049(8) -0.1297(6)
loop_
_geom_bond_atom_site_label_1
_geom_bond_atom_site_label_2
_geom_bond_site_symmetry_1
_geom_bond_site_symmetry_2
Cu1 I1 1_555 1_555
Cu2 I2 1_555 1_555
Cu3 I1 1_555 1_555
Cu4 I1 1_555 1_555
I2 Cu1 1_555 1_555
I3 Cu1 1_555 1_555
I4 Cu3 1_555 1_555
N1 N2 1_555 1_555
N2 C1 1_555 1_555
N3 N4 1_555 1_555
N4 H1 1_555 1_555
H2 N4 1_555 1_555
N5 C3 1_555 1_555
N6 Cu3 1_555 1_555
N7 N8 1_555 1_555
N8 C14 1_555 1_555
N9 N10 1_555 1_555
N10 H3 1_555 1_555
H4 N10 1_555 1_555
N11 C15 1_555 1_555
N12 Cu1 1_555 1_555
C1 N3 1_555 1_555
C2 N1 1_555 1_555
C3 H5 1_555 1_555
C4 C3 1_555 1_555
H6 C4 1_555 1_555
C5 C1 1_555 1_555
C6 C5 1_555 1_555
H7 C6 1_555 1_555
C7 N5 1_555 1_555
H8 C7 1_555 1_555
C8 N6 1_555 1_555
H9 C8 1_555 1_555
C9 C8 1_555 1_555
H10 C9 1_555 1_555
C10 C2 1_555 1_555
C11 C10 1_555 1_555
H11 C11 1_555 1_555
C12 N6 1_555 1_555
H12 C12 1_555 1_555
C13 N7 1_555 1_555
C14 N9 1_555 1_555
C15 H13 1_555 1_555
C16 C15 1_555 1_555
H14 C16 1_555 1_555
C17 C13 1_555 1_555
C18 C17 1_555 1_555
H15 C18 1_555 1_555
C19 N11 1_555 1_555
H16 C19 1_555 1_555
C20 N12 1_555 1_555
H17 C20 1_555 1_555
C21 C20 1_555 1_555
H18 C21 1_555 1_555
C22 C14 1_555 1_555
C23 C22 1_555 1_555
H19 C23 1_555 1_555
C24 N12 1_555 1_555
H20 C24 1_555 1_555
Cu2A I2 1_555 1_555
Cu2A_2 N11 1_555 1_555
Cu4_2 N5 1_555 1_555
I2A Cu2 1_555 1_555
I3A Cu2 1_555 1_555
N5_2 Cu4 1_555 1_555
N11A Cu2 1_555 1_555
Cu3 I3 1_555 1_555
Cu4 I4 1_555 1_555
I3 Cu2A 1_555 1_555
N3 C2 1_555 1_555
N9 C13 1_555 1_555
C4 C5 1_555 1_555
C6 C7 1_555 1_555
C9 C10 1_555 1_555
C11 C12 1_555 1_555
C16 C17 1_555 1_555
C18 C19 1_555 1_555
C21 C22 1_555 1_555
C23 C24 1_555 1_555
Cu2A I2A 1_555 1_555

#END
