
#######################################################################
#
#                 Cambridge Crystallographic Data Centre
#                                CCDC 
#
#######################################################################
#
# If this CIF has been generated from an entry in the Cambridge 
# Structural Database, then it will include bibliographic, chemical, 
# crystal, experimental, refinement or atomic coordinate data resulting 
# from the CCDC's data processing and validation procedures.
#
#######################################################################

data_MUPKUE
_symmetry_cell_setting           orthorhombic
_symmetry_space_group_name_H-M   'P n m a'
_symmetry_Int_Tables_number      62
_space_group_name_Hall           '-P 2ac 2n'
loop_
_symmetry_equiv_pos_site_id
_symmetry_equiv_pos_as_xyz
1 x,y,z
2 1/2-x,-y,1/2+z
3 -x,1/2+y,-z
4 1/2+x,1/2-y,1/2-z
5 -x,-y,-z
6 1/2+x,y,1/2-z
7 x,1/2-y,z
8 1/2-x,1/2+y,1/2+z
_cell_length_a                   15.340(3)
_cell_length_b                   17.579(4)
_cell_length_c                   6.9970(14)
_cell_angle_alpha                90
_cell_angle_beta                 90
_cell_angle_gamma                90
_cell_volume                     1886.82
loop_
_atom_site_label
_atom_site_type_symbol
_atom_site_fract_x
_atom_site_fract_y
_atom_site_fract_z
Cu1 Cu 0.00822(13) 0.7500 -0.2604(3)
Cu2 Cu 0.13283(8) 0.64968(6) -0.21148(19)
I1 I 0.09448(7) 0.7500 0.07104(12)
I2 I -0.02241(4) 0.62361(4) -0.41058(11)
N1 N 0.2110(5) 0.7107(4) -0.3901(10)
N2 N 0.3005(8) 0.7500 -0.6137(14)
N3 N 0.3435(12) 0.7500 -0.784(2)
N4 N 0.3330(5) 0.4574(4) -0.6361(12)
C1 C 0.2652(6) 0.6883(5) -0.5261(12)
C2 C 0.2489(6) 0.4770(6) -0.6151(16)
H1 H 0.2062 0.4396 -0.6217
C3 C 0.2243(6) 0.5521(5) -0.5837(14)
H2 H 0.1657 0.5644 -0.5712
C4 C 0.2867(6) 0.6084(5) -0.5709(12)
C5 C 0.3731(6) 0.5876(6) -0.5936(15)
H3 H 0.4172 0.6238 -0.5866
C6 C 0.3928(6) 0.5111(5) -0.6271(15)
H4 H 0.4509 0.4975 -0.6438
H5 H 0.372(5) 0.7104(14) -0.81(2)
Cu2F Cu 0.13283(8) 0.85032(6) -0.21148(19)
Cu2A Cu 0.36717(8) 0.35032(6) -0.71148(19)
Cu2G Cu 0.36717(8) 1.14968(6) -0.71148(19)
I2F I -0.02241(4) 0.87639(4) -0.41058(11)
N1F N 0.2110(5) 0.7893(4) -0.3901(10)
N4F N 0.3330(5) 1.0426(4) -0.6361(12)
N4A N 0.1670(5) 0.5426(4) -0.1361(12)
N4G N 0.1670(5) 0.9574(4) -0.1361(12)
C1F C 0.2652(6) 0.8117(5) -0.5261(12)
C2F C 0.2489(6) 1.0230(6) -0.6151(16)
H1F H 0.2062 1.0604 -0.6217
C3F C 0.2243(6) 0.9479(5) -0.5837(14)
H2F H 0.1657 0.9356 -0.5712
C4F C 0.2867(6) 0.8916(5) -0.5709(12)
C5F C 0.3731(6) 0.9124(6) -0.5936(15)
H3F H 0.4172 0.8762 -0.5866
C6F C 0.3928(6) 0.9889(5) -0.6271(15)
H4F H 0.4509 1.0025 -0.6438
H5F H 0.372(5) 0.7896(14) -0.81(2)
loop_
_geom_bond_atom_site_label_1
_geom_bond_atom_site_label_2
_geom_bond_site_symmetry_1
_geom_bond_site_symmetry_2
Cu1 I1 1_555 1_555
Cu2 I1 1_555 1_555
I1 Cu2F 1_555 1_555
I2 Cu1 1_555 1_555
N1 Cu2 1_555 1_555
N2 N3 1_555 1_555
N3 H5 1_555 1_555
N4 C2 1_555 1_555
C1 N1 1_555 1_555
C2 H1 1_555 1_555
C3 C2 1_555 1_555
H2 C3 1_555 1_555
C4 C1 1_555 1_555
C5 C4 1_555 1_555
H3 C5 1_555 1_555
C6 N4 1_555 1_555
H4 C6 1_555 1_555
Cu2F I2F 1_555 1_555
Cu2A N4 1_555 1_555
Cu2G N4F 1_555 1_555
I2F Cu1 1_555 1_555
N1F N1 1_555 1_555
N4F C2F 1_555 1_555
N4A Cu2 1_555 1_555
N4G Cu2F 1_555 1_555
C1F N2 1_555 1_555
C2F H1F 1_555 1_555
C3F C2F 1_555 1_555
H2F C3F 1_555 1_555
C4F C1F 1_555 1_555
C5F C4F 1_555 1_555
H3F C5F 1_555 1_555
C6F N4F 1_555 1_555
H4F C6F 1_555 1_555
H5F N3 1_555 1_555
Cu2 I2 1_555 1_555
N2 C1 1_555 1_555
C3 C4 1_555 1_555
C5 C6 1_555 1_555
Cu2F N1F 1_555 1_555
N1F C1F 1_555 1_555
C3F C4F 1_555 1_555
C5F C6F 1_555 1_555

#END
