
#######################################################################
#
#                 Cambridge Crystallographic Data Centre
#                                CCDC 
#
#######################################################################
#
# If this CIF has been generated from an entry in the Cambridge 
# Structural Database, then it will include bibliographic, chemical, 
# crystal, experimental, refinement or atomic coordinate data resulting 
# from the CCDC's data processing and validation procedures.
#
#######################################################################

data_MUPKEO
_symmetry_cell_setting           monoclinic
_symmetry_space_group_name_H-M   'P 21/n'
_symmetry_Int_Tables_number      14
_space_group_name_Hall           '-P 2yn'
loop_
_symmetry_equiv_pos_site_id
_symmetry_equiv_pos_as_xyz
1 x,y,z
2 1/2-x,1/2+y,1/2-z
3 -x,-y,-z
4 1/2+x,1/2-y,1/2+z
_cell_length_a                   13.177(9)
_cell_length_b                   6.571(3)
_cell_length_c                   14.444(7)
_cell_angle_alpha                90
_cell_angle_beta                 100.54(4)
_cell_angle_gamma                90
_cell_volume                     1229.55
loop_
_atom_site_label
_atom_site_type_symbol
_atom_site_fract_x
_atom_site_fract_y
_atom_site_fract_z
Cu1 Cu 0.14498(8) 0.21356(17) 0.73268(6)
Cl1 Cl 0.34299(16) 0.0849(3) 0.76668(13)
N1 N 0.1226(5) 0.1557(11) 0.5938(5)
N2 N 0.1210(5) 0.1541(11) -0.1376(5)
N3 N 0.1599(6) -0.1556(11) 0.2833(5)
N4 N 0.1617(6) -0.1543(11) 0.1884(4)
N5 N 0.1120(5) 0.1423(10) 0.2262(4)
N6 N 0.0769(9) 0.3486(12) 0.2156(5)
H1 H 0.022(6) 0.363(12) 0.242(6)
H2 H 0.124(9) 0.384(19) 0.230(7)
C1 C 0.1296(6) 0.0266(12) 0.3057(5)
C2 C 0.1336(6) 0.0271(12) 0.1546(5)
C3 C 0.1044(6) 0.3071(12) 0.5306(5)
H3 H 0.0938 0.4379 0.5516
C4 C 0.1007(7) 0.2749(14) 0.4335(6)
H4 H 0.0830 0.3813 0.3912
C5 C 0.1222(6) 0.0954(16) 0.4029(5)
C6 C 0.1424(7) -0.0675(13) 0.4719(5)
H5 H 0.1544 -0.1996 0.4533
C7 C 0.1436(6) -0.0228(12) 0.5650(5)
H6 H 0.1602 -0.1258 0.6093
C8 C 0.1019(7) 0.3062(12) -0.0796(6)
H7 H 0.0884 0.4366 -0.1037
C9 C 0.1023(7) 0.2697(13) 0.0164(6)
H8 H 0.0851 0.3756 0.0533
C10 C 0.1253(6) 0.0970(16) 0.0546(5)
C11 C 0.1451(6) -0.0720(13) -0.0059(5)
H9 H 0.1575 -0.2035 0.0172
C12 C 0.1442(6) -0.0246(11) -0.0997(5)
H10 H 0.1614 -0.1273 -0.1384
Cu1A Cu 0.35502(8) -0.28644(17) 0.76732(6)
Cu1_2 Cu 0.14498(8) 0.21356(17) -0.26732(6)
Cl1A Cl 0.15701(16) 0.5849(3) 0.73332(13)
N2_2 N 0.1210(5) 0.1541(11) 0.8624(5)
loop_
_geom_bond_atom_site_label_1
_geom_bond_atom_site_label_2
_geom_bond_site_symmetry_1
_geom_bond_site_symmetry_2
Cu1 Cl1 1_555 1_555
Cl1 Cu1A 1_555 1_555
N1 Cu1 1_555 1_555
N2 C8 1_555 1_555
N3 N4 1_555 1_555
N4 C2 1_555 1_555
N5 N6 1_555 1_555
N6 H1 1_555 1_555
H2 N6 1_555 1_555
C1 N3 1_555 1_555
C2 N5 1_555 1_555
C3 N1 1_555 1_555
H3 C3 1_555 1_555
C4 C3 1_555 1_555
H4 C4 1_555 1_555
C5 C1 1_555 1_555
C6 C5 1_555 1_555
H5 C6 1_555 1_555
C7 N1 1_555 1_555
H6 C7 1_555 1_555
C8 H7 1_555 1_555
C9 C8 1_555 1_555
H8 C9 1_555 1_555
C10 C2 1_555 1_555
C11 C10 1_555 1_555
H9 C11 1_555 1_555
C12 N2 1_555 1_555
H10 C12 1_555 1_555
Cu1_2 N2 1_555 1_555
Cl1A Cu1 1_555 1_555
N2_2 Cu1 1_555 1_555
N5 C1 1_555 1_555
C4 C5 1_555 1_555
C6 C7 1_555 1_555
C9 C10 1_555 1_555
C11 C12 1_555 1_555

#END
