
#######################################################################
#
#                 Cambridge Crystallographic Data Centre
#                                CCDC 
#
#######################################################################
#
# If this CIF has been generated from an entry in the Cambridge 
# Structural Database, then it will include bibliographic, chemical, 
# crystal, experimental, refinement or atomic coordinate data resulting 
# from the CCDC's data processing and validation procedures.
#
#######################################################################

data_MUPLIT
_symmetry_cell_setting           orthorhombic
_symmetry_space_group_name_H-M   'P b c a'
_symmetry_Int_Tables_number      61
_space_group_name_Hall           '-P 2ac 2ab'
loop_
_symmetry_equiv_pos_site_id
_symmetry_equiv_pos_as_xyz
1 x,y,z
2 1/2-x,-y,1/2+z
3 -x,1/2+y,1/2-z
4 1/2+x,1/2-y,-z
5 -x,-y,-z
6 1/2+x,y,1/2-z
7 x,1/2-y,1/2+z
8 1/2-x,1/2+y,z
_cell_length_a                   7.1260(5)
_cell_length_b                   12.5407(10)
_cell_length_c                   30.918(3)
_cell_angle_alpha                90
_cell_angle_beta                 90
_cell_angle_gamma                90
_cell_volume                     2762.99
loop_
_atom_site_label
_atom_site_type_symbol
_atom_site_fract_x
_atom_site_fract_y
_atom_site_fract_z
Cu1 Cu -0.19278(8) 0.10700(4) 0.358970(17)
Cu2 Cu -0.39002(9) 0.28944(5) 0.417700(19)
Cl1 Cl -0.49205(15) 0.20058(9) 0.36121(4)
Cl2 Cl -0.20180(17) -0.03019(8) 0.41037(3)
N1 N -0.1348(4) -0.1169(2) 0.14002(11)
N2 N -0.0146(5) -0.2343(3) 0.18380(11)
N3 N -0.0004(5) -0.2728(3) 0.14238(11)
N4 N -0.2274(6) -0.0286(3) 0.12192(14)
H1 H -0.345(7) -0.028(4) 0.1322(16)
H2 H -0.161(7) 0.021(4) 0.1262(17)
N5 N -0.1828(5) 0.0299(3) 0.30027(11)
N6 N -0.1193(5) -0.2580(3) -0.01973(11)
C1 C -0.0949(5) -0.1405(3) 0.18203(13)
C2 C -0.0755(5) -0.2018(3) 0.11576(13)
C3 C -0.2071(6) 0.0779(4) 0.26195(14)
H3 H -0.251(7) 0.144(4) 0.2651(15)
C4 C -0.1847(7) 0.0292(3) 0.22246(14)
H4 H -0.208(7) 0.066(4) 0.2023(15)
C5 C -0.1302(5) -0.0770(3) 0.22127(13)
C6 C -0.1025(6) -0.1275(3) 0.26067(14)
H5 H -0.061(7) -0.192(4) 0.2626(16)
C7 C -0.1313(6) -0.0730(3) 0.29839(14)
H6 H -0.118(7) -0.102(4) 0.3204(16)
C8 C -0.1181(7) -0.1583(4) -0.00440(15)
H7 H -0.123(6) -0.098(4) -0.0254(15)
C9 C -0.1046(7) -0.1359(4) 0.03902(15)
H8 H -0.099(7) -0.069(4) 0.0460(15)
C10 C -0.0961(6) -0.2169(3) 0.06900(13)
C11 C -0.1013(7) -0.3203(4) 0.05255(15)
H9 H -0.087(7) -0.373(4) 0.0686(16)
C12 C -0.1119(7) -0.3367(4) 0.00931(14)
H10 H -0.114(6) -0.407(4) -0.0018(16)
Cu1B Cu 0.19278(8) -0.39300(4) 0.141030(17)
Cu2A Cu -0.10998(9) -0.28944(5) -0.082300(19)
Cu2G Cu -0.10998(9) -0.21056(5) 0.417700(19)
Cl2G Cl -0.29820(17) 0.46981(8) 0.41037(3)
N3B N 0.0004(5) 0.2272(3) 0.35762(11)
N6A N -0.3807(5) 0.2580(3) 0.48027(11)
loop_
_geom_bond_atom_site_label_1
_geom_bond_atom_site_label_2
_geom_bond_site_symmetry_1
_geom_bond_site_symmetry_2
Cu1 Cl1 1_555 1_555
Cu2 Cl1 1_555 1_555
Cl2 Cu1 1_555 1_555
N1 N4 1_555 1_555
N2 N3 1_555 1_555
N3 C2 1_555 1_555
N4 H1 1_555 1_555
H2 N4 1_555 1_555
N5 Cu1 1_555 1_555
N6 C8 1_555 1_555
C1 N1 1_555 1_555
C2 N1 1_555 1_555
C3 N5 1_555 1_555
H3 C3 1_555 1_555
C4 C3 1_555 1_555
H4 C4 1_555 1_555
C5 C1 1_555 1_555
C6 C5 1_555 1_555
H5 C6 1_555 1_555
C7 N5 1_555 1_555
H6 C7 1_555 1_555
C8 H7 1_555 1_555
C9 C8 1_555 1_555
H8 C9 1_555 1_555
C10 C2 1_555 1_555
C11 C10 1_555 1_555
H9 C11 1_555 1_555
C12 N6 1_555 1_555
H10 C12 1_555 1_555
Cu1B N3 1_555 1_555
Cu2A N6 1_555 1_555
Cu2G Cl2 1_555 1_555
Cl2G Cu2 1_555 1_555
N3B Cu1 1_555 1_555
N6A Cu2 1_555 1_555
N2 C1 1_555 1_555
C4 C5 1_555 1_555
C6 C7 1_555 1_555
C9 C10 1_555 1_555
C11 C12 1_555 1_555

#END
