
#######################################################################
#
#                 Cambridge Crystallographic Data Centre
#                                CCDC 
#
#######################################################################
#
# If this CIF has been generated from an entry in the Cambridge 
# Structural Database, then it will include bibliographic, chemical, 
# crystal, experimental, refinement or atomic coordinate data resulting 
# from the CCDC's data processing and validation procedures.
#
#######################################################################

data_MUPLUF
_symmetry_cell_setting           triclinic
_symmetry_space_group_name_H-M   'P -1'
_symmetry_Int_Tables_number      2
_space_group_name_Hall           '-P 1'
loop_
_symmetry_equiv_pos_site_id
_symmetry_equiv_pos_as_xyz
1 x,y,z
2 -x,-y,-z
_cell_length_a                   7.4676(15)
_cell_length_b                   9.1796(18)
_cell_length_c                   10.032(2)
_cell_angle_alpha                100.09(3)
_cell_angle_beta                 102.75(3)
_cell_angle_gamma                92.02(3)
_cell_volume                     658.4
loop_
_atom_site_label
_atom_site_type_symbol
_atom_site_fract_x
_atom_site_fract_y
_atom_site_fract_z
Cu1 Cu 0.34110(6) 0.18295(5) -0.31861(4)
Br1 Br 0.15274(5) 0.21670(4) -0.54621(4)
N1 N 0.4355(4) 0.6720(3) 0.2752(3)
N2 N 0.3855(4) 0.5702(3) 0.1516(3)
N3 N 0.1866(4) 0.5425(3) 0.2776(3)
N4 N 0.0196(4) 0.5011(3) 0.3098(3)
N5 N 0.3613(4) 0.9580(3) 0.6537(3)
N6 N 0.1849(4) 0.2215(3) -0.1711(3)
C1 C 0.3181(4) 0.6517(3) 0.3509(3)
C2 C 0.2361(4) 0.4933(3) 0.1553(3)
C3 C 0.3361(5) 0.8798(4) 0.5242(3)
C4 C 0.3305(4) 0.7267(3) 0.4949(3)
C5 C 0.3470(5) 0.6490(4) 0.6019(4)
C6 C 0.3737(5) 0.7283(4) 0.7362(4)
C7 C 0.3804(5) 0.8807(4) 0.7562(4)
C8 C 0.2402(5) 0.3355(4) -0.0634(3)
C9 C 0.1517(4) 0.3681(3) 0.0445(3)
C10 C -0.0029(5) 0.2792(4) 0.0395(4)
C11 C -0.0638(6) 0.1628(4) -0.0728(4)
C12 C 0.0329(5) 0.1376(4) -0.1743(4)
H1 H 0.000(4) 0.060(4) -0.252(4)
H2 H 0.386(5) 0.933(4) 0.845(4)
H3 H 0.323(5) 0.936(4) 0.454(4)
H4 H 0.337(6) 0.394(5) -0.062(4)
H5 H -0.056(6) 0.294(4) 0.110(4)
H6 H 0.362(6) 0.552(5) 0.586(4)
H7 H 0.384(6) 0.679(5) 0.811(5)
H8 H -0.172(7) 0.107(6) -0.078(5)
H9 H -0.021(4) 0.577(2) 0.352(3)
H10 H 0.051(5) 0.441(3) 0.366(3)
Cu1A Cu 0.65890(6) 0.81705(5) 0.31861(4)
Cu1_2 Cu 0.34110(6) 1.18295(5) 0.68139(4)
N1A N 0.5645(4) 0.3280(3) -0.2752(3)
N5_2 N 0.3613(4) -0.0420(3) -0.3463(3)
loop_
_geom_bond_atom_site_label_1
_geom_bond_atom_site_label_2
_geom_bond_site_symmetry_1
_geom_bond_site_symmetry_2
Cu1 Br1 1_555 1_555
N1 N2 1_555 1_555
N2 C2 1_555 1_555
N3 N4 1_555 1_555
N4 H9 1_555 1_555
N5 C3 1_555 1_555
N6 Cu1 1_555 1_555
C1 N1 1_555 1_555
C2 N3 1_555 1_555
C3 C4 1_555 1_555
C4 C1 1_555 1_555
C5 C4 1_555 1_555
C6 C5 1_555 1_555
C7 N5 1_555 1_555
C8 N6 1_555 1_555
C9 C2 1_555 1_555
C10 C9 1_555 1_555
C11 C10 1_555 1_555
C12 N6 1_555 1_555
H1 C12 1_555 1_555
H2 C7 1_555 1_555
H3 C3 1_555 1_555
H4 C8 1_555 1_555
H5 C10 1_555 1_555
H6 C5 1_555 1_555
H7 C6 1_555 1_555
H8 C11 1_555 1_555
H10 N4 1_555 1_555
Cu1A N1 1_555 1_555
Cu1_2 N5 1_555 1_555
N1A Cu1 1_555 1_555
N5_2 Cu1 1_555 1_555
N3 C1 1_555 1_555
C6 C7 1_555 1_555
C8 C9 1_555 1_555
C11 C12 1_555 1_555

#END
