
#######################################################################
#
#                 Cambridge Crystallographic Data Centre
#                                CCDC 
#
#######################################################################
#
# If this CIF has been generated from an entry in the Cambridge 
# Structural Database, then it will include bibliographic, chemical, 
# crystal, experimental, refinement or atomic coordinate data resulting 
# from the CCDC's data processing and validation procedures.
#
#######################################################################

data_MUPLEP
_symmetry_cell_setting           monoclinic
_symmetry_space_group_name_H-M   'P 21/c'
_symmetry_Int_Tables_number      14
_space_group_name_Hall           '-P 2ybc'
loop_
_symmetry_equiv_pos_site_id
_symmetry_equiv_pos_as_xyz
1 x,y,z
2 -x,1/2+y,1/2-z
3 -x,-y,-z
4 x,1/2-y,1/2+z
_cell_length_a                   7.7045(2)
_cell_length_b                   13.3663(4)
_cell_length_c                   14.6717(4)
_cell_angle_alpha                90
_cell_angle_beta                 120.289(2)
_cell_angle_gamma                90
_cell_volume                     1304.65
loop_
_atom_site_label
_atom_site_type_symbol
_atom_site_fract_x
_atom_site_fract_y
_atom_site_fract_z
N1 N -0.2179(3) -0.3675(2) 0.33568(19)
N2 N -0.0275(3) -0.4091(2) 0.3840(2)
N3 N 0.0036(3) -0.24969(19) 0.42293(16)
N4 N 0.1038(3) -0.1588(2) 0.4686(2)
H1 H 0.0648 -0.1168 0.4182
H2 H 0.0523 -0.1435 0.5063
C1 C -0.1983(4) -0.2720(2) 0.3598(2)
C2 C 0.1012(3) -0.3373(2) 0.43622(19)
C3 C -0.3755(4) -0.2072(2) 0.3257(2)
C4 C -0.5613(4) -0.2508(2) 0.2556(2)
H3 H -0.5676 -0.3147 0.2290
C5 C 0.3196(3) -0.3556(2) 0.5057(2)
C6 C 0.4701(4) -0.2938(2) 0.5125(2)
H4 H 0.4390 -0.2340 0.4752
C7 C -0.7342(4) -0.1976(3) 0.2268(2)
H5 H -0.8566 -0.2279 0.1811
N5 N -0.7371(3) -0.1049(2) 0.26053(18)
C8 C -0.5578(4) -0.0635(2) 0.3278(2)
H6 H -0.5557 0.0005 0.3532
C9 C -0.3764(4) -0.1115(3) 0.3610(2)
H7 H -0.2560 -0.0796 0.4067
C10 C 0.3754(4) -0.4430(2) 0.5660(2)
H8 H 0.2780 -0.4852 0.5645
C11 C 0.5769(4) -0.4662(2) 0.6280(2)
N6 N 0.7241(3) -0.40837(19) 0.63260(18)
C12 C 0.6685(4) -0.3235(2) 0.5765(2)
H9 H 0.7689 -0.2819 0.5807
Cu1 Cu -0.99958(5) -0.03035(3) 0.20015(3)
Br1 Br -0.96778(5) 0.07355(3) 0.35447(2)
H10 H 0.621(4) -0.527(3) 0.672(3)
N2A N -0.9725(3) 0.0909(2) 0.1160(2)
N6C N -1.2759(3) -0.09163(19) 0.13260(18)
Cu1A Cu -0.00042(5) -0.53035(3) 0.29985(3)
Cu1C Cu 1.00042(5) -0.46965(3) 0.70015(3)
loop_
_geom_bond_atom_site_label_1
_geom_bond_atom_site_label_2
_geom_bond_site_symmetry_1
_geom_bond_site_symmetry_2
N1 N2 1_555 1_555
N2 C2 1_555 1_555
N3 N4 1_555 1_555
N4 H1 1_555 1_555
H2 N4 1_555 1_555
C1 N1 1_555 1_555
C2 N3 1_555 1_555
C3 C1 1_555 1_555
C4 C3 1_555 1_555
H3 C4 1_555 1_555
C5 C2 1_555 1_555
C6 C5 1_555 1_555
H4 C6 1_555 1_555
C7 C4 1_555 1_555
H5 C7 1_555 1_555
N5 C7 1_555 1_555
C8 N5 1_555 1_555
H6 C8 1_555 1_555
C9 C3 1_555 1_555
H7 C9 1_555 1_555
C10 C5 1_555 1_555
H8 C10 1_555 1_555
C11 C10 1_555 1_555
N6 C11 1_555 1_555
C12 C6 1_555 1_555
H9 C12 1_555 1_555
Cu1 N5 1_555 1_555
Br1 Cu1 1_555 1_555
H10 C11 1_555 1_555
N2A Cu1 1_555 1_555
N6C Cu1 1_555 1_555
Cu1A N2 1_555 1_555
Cu1C N6 1_555 1_555
N3 C1 1_555 1_555
C8 C9 1_555 1_555
N6 C12 1_555 1_555

#END
