
#######################################################################
#
#                 Cambridge Crystallographic Data Centre
#                                CCDC 
#
#######################################################################
#
# If this CIF has been generated from an entry in the Cambridge 
# Structural Database, then it will include bibliographic, chemical, 
# crystal, experimental, refinement or atomic coordinate data resulting 
# from the CCDC's data processing and validation procedures.
#
#######################################################################

data_MUPMAM01
_symmetry_cell_setting           monoclinic
_symmetry_space_group_name_H-M   'P 21/c'
_symmetry_Int_Tables_number      14
_space_group_name_Hall           '-P 2ybc'
loop_
_symmetry_equiv_pos_site_id
_symmetry_equiv_pos_as_xyz
1 x,y,z
2 -x,1/2+y,1/2-z
3 -x,-y,-z
4 x,1/2-y,1/2+z
_cell_length_a                   9.447(3)
_cell_length_b                   10.227(3)
_cell_length_c                   14.195(5)
_cell_angle_alpha                90
_cell_angle_beta                 90.047(4)
_cell_angle_gamma                90
_cell_volume                     1371.44
loop_
_atom_site_label
_atom_site_type_symbol
_atom_site_fract_x
_atom_site_fract_y
_atom_site_fract_z
I1 I 0.44965(2) 0.01041(2) 0.158208(12)
Cu1 Cu 0.43364(4) 0.11853(4) -0.01413(3)
N1 N 0.5508(2) 0.2885(2) -0.00961(16)
N2 N 0.9211(3) 0.5429(3) 0.14018(18)
N3 N 1.0005(3) 0.5362(3) 0.22252(18)
N4 N 0.8578(2) 0.3677(2) 0.21902(14)
N5 N 0.7903(2) 0.2491(2) 0.24034(16)
H1 H 0.8134 0.2060 0.2917
H2 H 0.7249 0.2180 0.2023
N6 N 1.2212(2) 0.3645(2) 0.45969(16)
C1 C 0.5586(3) 0.3663(3) -0.08555(19)
H3 H 0.4954 0.3509 -0.1365
C2 C 0.6538(4) 0.4671(3) -0.0929(2)
H4 H 0.6563 0.5202 -0.1478
C3 C 0.7467(3) 0.4903(3) -0.0187(2)
H5 H 0.8154 0.5578 -0.0230
C4 C 0.7376(3) 0.4139(2) 0.06156(17)
C5 C 0.6371(3) 0.3143(3) 0.06292(18)
H6 H 0.6294 0.2622 0.1180
C6 C 0.8361(3) 0.4412(3) 0.13917(18)
C7 C 0.9607(3) 0.4314(3) 0.26839(18)
C8 C 1.0172(3) 0.3884(2) 0.36033(18)
C9 C 0.9290(3) 0.3533(3) 0.4342(2)
H7 H 0.8293 0.3493 0.4257
C10 C 0.9890(3) 0.3242(3) 0.5204(2)
H8 H 0.9312 0.3000 0.5723
C11 C 1.1345(3) 0.3307(3) 0.53018(19)
H9 H 1.1748 0.3101 0.5897
C12 C 1.1624(3) 0.3928(3) 0.37586(19)
H10 H 1.2226 0.4168 0.3251
I1B I 0.55035(2) -0.01041(2) -0.158208(12)
Cu1B Cu 0.56636(4) -0.11853(4) 0.01413(3)
Cu1C Cu 1.43364(4) 0.38147(4) 0.48587(3)
N6C N 0.2212(2) 0.1355(2) -0.04031(16)
loop_
_geom_bond_atom_site_label_1
_geom_bond_atom_site_label_2
_geom_bond_site_symmetry_1
_geom_bond_site_symmetry_2
I1 Cu1 1_555 1_555
Cu1 N1 1_555 1_555
N1 C1 1_555 1_555
N2 N3 1_555 1_555
N3 C7 1_555 1_555
N4 N5 1_555 1_555
N5 H1 1_555 1_555
H2 N5 1_555 1_555
N6 C11 1_555 1_555
C1 H3 1_555 1_555
C2 C1 1_555 1_555
H4 C2 1_555 1_555
C3 C2 1_555 1_555
H5 C3 1_555 1_555
C4 C3 1_555 1_555
C5 N1 1_555 1_555
H6 C5 1_555 1_555
C6 N2 1_555 1_555
C7 N4 1_555 1_555
C8 C7 1_555 1_555
C9 C8 1_555 1_555
H7 C9 1_555 1_555
C10 C9 1_555 1_555
H8 C10 1_555 1_555
C11 C10 1_555 1_555
H9 C11 1_555 1_555
C12 N6 1_555 1_555
H10 C12 1_555 1_555
I1B Cu1 1_555 1_555
Cu1B I1 1_555 1_555
Cu1C N6 1_555 1_555
N6C Cu1 1_555 1_555
N4 C6 1_555 1_555
C4 C5 1_555 1_555
C4 C6 1_555 1_555
C8 C12 1_555 1_555
I1B Cu1B 1_555 1_555

#END
