
#######################################################################
#
#                 Cambridge Crystallographic Data Centre
#                                CCDC 
#
#######################################################################
#
# If this CIF has been generated from an entry in the Cambridge 
# Structural Database, then it will include bibliographic, chemical, 
# crystal, experimental, refinement or atomic coordinate data resulting 
# from the CCDC's data processing and validation procedures.
#
#######################################################################

data_MUPMEQ
_symmetry_cell_setting           triclinic
_symmetry_space_group_name_H-M   'P -1'
_symmetry_Int_Tables_number      2
_space_group_name_Hall           '-P 1'
loop_
_symmetry_equiv_pos_site_id
_symmetry_equiv_pos_as_xyz
1 x,y,z
2 -x,-y,-z
_cell_length_a                   7.5308(10)
_cell_length_b                   7.8333(9)
_cell_length_c                   16.040(2)
_cell_angle_alpha                80.271(8)
_cell_angle_beta                 89.865(8)
_cell_angle_gamma                89.413(8)
_cell_volume                     932.558
loop_
_atom_site_label
_atom_site_type_symbol
_atom_site_fract_x
_atom_site_fract_y
_atom_site_fract_z
Cu1 Cu 0.19601(8) 0.43586(8) 0.87212(4)
Cu2 Cu 0.16489(8) 0.27337(8) 0.67279(4)
Cu3 Cu 0.26947(10) -0.01446(9) 0.77093(5)
I1 I 0.43210(4) 0.27234(4) 0.784015(19)
I2 I 0.34130(4) 0.73702(4) 0.88788(2)
I3 I 0.09247(5) -0.03013(4) 0.63638(2)
N1 N -0.0115(5) 0.4905(5) 0.7925(2)
N2 N -0.0267(5) 0.4258(5) 0.7177(2)
N3 N -0.2202(5) 0.6344(4) 0.7165(2)
N4 N -0.3619(7) 0.7474(6) 0.6877(3)
H1 H -0.322(9) 0.850(4) 0.673(5)
H2 H -0.442(10) 0.747(9) 0.721(5)
N5 N -0.1884(5) 0.7021(5) 1.0099(2)
N6 N -0.2390(5) 0.5745(5) 0.4401(2)
C1 C -0.1538(6) 0.5133(6) 0.6728(3)
C2 C -0.1288(6) 0.6155(5) 0.7915(3)
C3 C -0.2143(6) 0.4822(6) 0.5899(3)
C4 C -0.1915(6) 0.6043(6) 0.5169(3)
H3 H -0.129(6) 0.714(6) 0.523(3)
C5 C -0.3124(7) 0.4204(6) 0.4349(3)
C6 C -0.3399(7) 0.2933(7) 0.5044(3)
H4 H -0.381(6) 0.185(6) 0.503(3)
C7 C -0.2884(7) 0.3220(6) 0.5836(3)
H5 H -0.286(11) 0.223(10) 0.640(5)
C8 C -0.1584(6) 0.7152(6) 0.8599(3)
C9 C -0.1760(6) 0.8960(6) 0.8471(3)
H6 H -0.166(8) 0.954(7) 0.791(4)
C10 C -0.2002(7) 0.9738(7) 0.9162(3)
H7 H -0.200(8) 1.073(8) 0.912(4)
C11 C -0.2043(7) 0.8756(6) 0.9960(3)
H8 H -0.208(7) 0.921(6) 1.050(3)
C12 C -0.1667(6) 0.6238(6) 0.9423(3)
H9 H -0.149(7) 0.496(7) 0.957(3)
H10 H -0.349(8) 0.405(7) 0.377(4)
Cu1A Cu -0.19601(8) 0.56414(8) 1.12788(4)
Cu2A Cu -0.16489(8) 0.72663(8) 0.32721(4)
Cu3_2 Cu 0.26947(10) 0.98554(9) 0.77093(5)
I2_2 I 0.34130(4) -0.26298(4) 0.88788(2)
N5A N 0.1884(5) 0.2979(5) 0.9901(2)
N6A N 0.2390(5) 0.4255(5) 0.5599(2)
loop_
_geom_bond_atom_site_label_1
_geom_bond_atom_site_label_2
_geom_bond_site_symmetry_1
_geom_bond_site_symmetry_2
Cu1 I1 1_555 1_555
Cu2 I1 1_555 1_555
Cu3 I1 1_555 1_555
I2 Cu1 1_555 1_555
I3 Cu2 1_555 1_555
N1 Cu1 1_555 1_555
N2 Cu2 1_555 1_555
N3 N4 1_555 1_555
N4 H1 1_555 1_555
H2 N4 1_555 1_555
N5 C11 1_555 1_555
N6 C4 1_555 1_555
C1 N2 1_555 1_555
C2 N1 1_555 1_555
C3 C1 1_555 1_555
C4 C3 1_555 1_555
H3 C4 1_555 1_555
C5 N6 1_555 1_555
C6 C5 1_555 1_555
H4 C6 1_555 1_555
C7 C3 1_555 1_555
H5 C7 1_555 1_555
C8 C2 1_555 1_555
C9 C8 1_555 1_555
H6 C9 1_555 1_555
C10 C9 1_555 1_555
H7 C10 1_555 1_555
C11 C10 1_555 1_555
H8 C11 1_555 1_555
C12 N5 1_555 1_555
H9 C12 1_555 1_555
H10 C5 1_555 1_555
Cu1A N5 1_555 1_555
Cu2A N6 1_555 1_555
Cu3_2 I2 1_555 1_555
I2_2 Cu3 1_555 1_555
N5A Cu1 1_555 1_555
N6A Cu2 1_555 1_555
Cu3 I3 1_555 1_555
N1 N2 1_555 1_555
N3 C1 1_555 1_555
N3 C2 1_555 1_555
C6 C7 1_555 1_555
C8 C12 1_555 1_555

#END
