
#######################################################################
#
#                 Cambridge Crystallographic Data Centre
#                                CCDC 
#
#######################################################################
#
# If this CIF has been generated from an entry in the Cambridge 
# Structural Database, then it will include bibliographic, chemical, 
# crystal, experimental, refinement or atomic coordinate data resulting 
# from the CCDC's data processing and validation procedures.
#
#######################################################################

data_MUPMAM
_symmetry_cell_setting           monoclinic
_symmetry_space_group_name_H-M   'P 21/c'
_symmetry_Int_Tables_number      14
_space_group_name_Hall           '-P 2ybc'
loop_
_symmetry_equiv_pos_site_id
_symmetry_equiv_pos_as_xyz
1 x,y,z
2 -x,1/2+y,1/2-z
3 -x,-y,-z
4 x,1/2-y,1/2+z
_cell_length_a                   9.4591(6)
_cell_length_b                   10.2141(6)
_cell_length_c                   14.1803(10)
_cell_angle_alpha                90
_cell_angle_beta                 90.052(4)
_cell_angle_gamma                90
_cell_volume                     1370.05
loop_
_atom_site_label
_atom_site_type_symbol
_atom_site_fract_x
_atom_site_fract_y
_atom_site_fract_z
Cu1 Cu 0.43344(4) 0.11903(4) 0.51429(3)
I1 I 0.44965(2) 0.010369(19) 0.341826(13)
N1 N 0.0007(3) -0.0359(2) 0.77798(19)
N2 N -0.0785(3) -0.0432(2) 0.85965(19)
N3 N -0.1421(2) 0.1322(2) 0.78116(15)
N4 N -0.2103(3) 0.2513(2) 0.76022(18)
N5 N 0.2214(2) 0.1356(2) 0.54041(16)
N6 N -0.4495(2) 0.2112(2) 1.00965(16)
C1 C -0.0393(3) 0.0697(3) 0.73134(19)
C2 C -0.1640(3) 0.0593(3) 0.86053(19)
C3 C 0.0173(3) 0.1113(2) 0.63968(19)
C4 C 0.1619(3) 0.1082(3) 0.62422(19)
H1 H 0.2207 0.0862 0.6743
C5 C 0.1344(3) 0.1694(3) 0.4699(2)
H2 H 0.1737 0.1894 0.4116
C6 C -0.0108(3) 0.1759(3) 0.4793(2)
H3 H -0.0672 0.1996 0.4284
C7 C -0.0709(3) 0.1468(3) 0.5656(2)
H4 H -0.1683 0.1509 0.5739
C8 C -0.2624(3) 0.0862(2) 0.93859(18)
C9 C -0.3631(3) 0.1857(3) 0.93697(19)
H5 H -0.3708 0.2368 0.8829
C10 C -0.4416(3) 0.1332(3) 1.08560(19)
H6 H -0.5035 0.1478 1.1354
C11 C -0.3455(4) 0.0326(3) 1.0928(2)
H7 H -0.3426 -0.0193 1.1466
C12 C -0.2535(3) 0.0095(3) 1.0190(2)
H8 H -0.1864 -0.0568 1.0232
H9 H -0.148(3) 0.305(3) 0.746(2)
H10 H -0.279(3) 0.234(3) 0.718(2)
Cu1B Cu 0.56656(4) -0.11903(4) 0.48571(3)
Cu1C Cu -0.56656(4) 0.38097(4) 1.01429(3)
I1B I 0.55035(2) -0.010369(19) 0.658174(13)
N6C N 0.5505(2) 0.2888(2) 0.50965(16)
loop_
_geom_bond_atom_site_label_1
_geom_bond_atom_site_label_2
_geom_bond_site_symmetry_1
_geom_bond_site_symmetry_2
Cu1 I1 1_555 1_555
I1 Cu1B 1_555 1_555
N1 N2 1_555 1_555
N2 C2 1_555 1_555
N3 N4 1_555 1_555
N4 H9 1_555 1_555
N5 Cu1 1_555 1_555
N6 C9 1_555 1_555
C1 N1 1_555 1_555
C2 N3 1_555 1_555
C3 C1 1_555 1_555
C4 N5 1_555 1_555
H1 C4 1_555 1_555
C5 N5 1_555 1_555
H2 C5 1_555 1_555
C6 C5 1_555 1_555
H3 C6 1_555 1_555
C7 C3 1_555 1_555
H4 C7 1_555 1_555
C8 C2 1_555 1_555
C9 C8 1_555 1_555
H5 C9 1_555 1_555
C10 N6 1_555 1_555
H6 C10 1_555 1_555
C11 C10 1_555 1_555
H7 C11 1_555 1_555
C12 C8 1_555 1_555
H8 C12 1_555 1_555
H10 N4 1_555 1_555
Cu1B I1B 1_555 1_555
Cu1C N6 1_555 1_555
I1B Cu1 1_555 1_555
N6C Cu1 1_555 1_555
N3 C1 1_555 1_555
C3 C4 1_555 1_555
C6 C7 1_555 1_555
C11 C12 1_555 1_555

#END
