
#######################################################################
#
#                 Cambridge Crystallographic Data Centre
#                                CCDC 
#
#######################################################################
#
# If this CIF has been generated from an entry in the Cambridge 
# Structural Database, then it will include bibliographic, chemical, 
# crystal, experimental, refinement or atomic coordinate data resulting 
# from the CCDC's data processing and validation procedures.
#
#######################################################################

data_MUPMEQ01
_symmetry_cell_setting           triclinic
_symmetry_space_group_name_H-M   'P -1'
_symmetry_Int_Tables_number      2
_space_group_name_Hall           '-P 1'
loop_
_symmetry_equiv_pos_site_id
_symmetry_equiv_pos_as_xyz
1 x,y,z
2 -x,-y,-z
_cell_length_a                   7.5060(5)
_cell_length_b                   7.7960(3)
_cell_length_c                   16.0364(6)
_cell_angle_alpha                80.231(6)
_cell_angle_beta                 89.714(5)
_cell_angle_gamma                89.512(7)
_cell_volume                     924.752
loop_
_atom_site_label
_atom_site_type_symbol
_atom_site_fract_x
_atom_site_fract_y
_atom_site_fract_z
I1 I 0.93207(5) 0.27123(5) 0.28368(2)
Cu1 Cu 0.69565(11) 0.43548(10) 0.37190(5)
Cu2 Cu 0.66447(11) 0.27262(10) 0.17254(5)
Cu3 Cu 0.76786(12) -0.01634(11) 0.27067(6)
N1 N 0.6906(7) 0.2975(6) 0.4898(3)
N2 N 0.5119(6) 0.5109(6) 0.7073(3)
N3 N 0.5265(6) 0.5750(6) 0.7818(3)
N4 N 0.7204(6) 0.3671(6) 0.7833(3)
N5 N 0.8632(7) 0.2521(7) 0.8121(3)
H1 H 0.9137 0.2564 0.8611
H2 H 0.9013 0.1764 0.7810
N6 N 0.7389(6) 0.4264(6) 1.0587(3)
C1 C 0.7061(9) 0.1260(8) 0.5036(4)
H3 H 0.7229 0.0692 0.4562
C2 C 0.6994(9) 0.0252(8) 0.5829(4)
H4 H 0.7100 -0.0979 0.5891
C3 C 0.6773(8) 0.1028(7) 0.6527(4)
H5 H 0.6744 0.0361 0.7080
C4 C 0.6590(7) 0.2858(7) 0.6392(3)
C5 C 0.6677(8) 0.3761(7) 0.5576(4)
H6 H 0.6571 0.4993 0.5488
C6 C 0.6302(7) 0.3848(7) 0.7085(3)
C7 C 0.6539(7) 0.4867(7) 0.8269(3)
C8 C 0.7142(7) 0.5182(7) 0.9102(3)
C9 C 0.7888(8) 0.6780(7) 0.9175(4)
H7 H 0.8037 0.7653 0.8690
C10 C 0.8397(9) 0.7069(8) 0.9950(4)
H8 H 0.8940 0.8137 1.0012
C11 C 0.8117(8) 0.5783(8) 1.0652(4)
H9 H 0.8456 0.5998 1.1195
C12 C 0.6918(7) 0.3961(7) 0.9827(3)
H10 H 0.6410 0.2869 0.9781
I2 I 0.59130(7) -0.03159(6) 0.13644(3)
I3 I 0.84013(6) 0.73655(5) 0.38744(3)
Cu1A Cu 0.30435(11) 0.56452(10) 0.62810(5)
Cu2A Cu 0.33553(11) 0.72738(10) 0.82746(5)
Cu2_2 Cu 0.66447(11) 0.27262(10) 1.17254(5)
Cu3_2 Cu 0.76786(12) 0.98366(11) 0.27067(6)
N2A N 0.4881(6) 0.4891(6) 0.2927(3)
N3A N 0.4735(6) 0.4250(6) 0.2182(3)
N6_2 N 0.7389(6) 0.4264(6) 0.0587(3)
I3_2 I 0.84013(6) -0.26345(5) 0.38744(3)
loop_
_geom_bond_atom_site_label_1
_geom_bond_atom_site_label_2
_geom_bond_site_symmetry_1
_geom_bond_site_symmetry_2
I1 Cu1 1_555 1_555
Cu1 N1 1_555 1_555
Cu2 I1 1_555 1_555
Cu3 I1 1_555 1_555
N1 C1 1_555 1_555
N2 N3 1_555 1_555
N3 C7 1_555 1_555
N4 N5 1_555 1_555
N5 H1 1_555 1_555
H2 N5 1_555 1_555
N6 C11 1_555 1_555
C1 H3 1_555 1_555
C2 C1 1_555 1_555
H4 C2 1_555 1_555
C3 C2 1_555 1_555
H5 C3 1_555 1_555
C4 C3 1_555 1_555
C5 N1 1_555 1_555
H6 C5 1_555 1_555
C6 N2 1_555 1_555
C7 N4 1_555 1_555
C8 C7 1_555 1_555
C9 C8 1_555 1_555
H7 C9 1_555 1_555
C10 C9 1_555 1_555
H8 C10 1_555 1_555
C11 C10 1_555 1_555
H9 C11 1_555 1_555
C12 N6 1_555 1_555
H10 C12 1_555 1_555
I2 Cu2 1_555 1_555
I3 Cu1 1_555 1_555
Cu1A N2 1_555 1_555
Cu2A N3 1_555 1_555
Cu2_2 N6 1_555 1_555
Cu3_2 I3 1_555 1_555
N2A Cu1 1_555 1_555
N3A Cu2 1_555 1_555
N6_2 Cu2 1_555 1_555
I3_2 Cu3 1_555 1_555
Cu3 I2 1_555 1_555
N4 C6 1_555 1_555
C4 C5 1_555 1_555
C4 C6 1_555 1_555
C8 C12 1_555 1_555
N2A N3A 1_555 1_555

#END
