
#######################################################################
#
#                 Cambridge Crystallographic Data Centre
#                                CCDC 
#
#######################################################################
#
# If this CIF has been generated from an entry in the Cambridge 
# Structural Database, then it will include bibliographic, chemical, 
# crystal, experimental, refinement or atomic coordinate data resulting 
# from the CCDC's data processing and validation procedures.
#
#######################################################################

data_MUPPUJ
_symmetry_cell_setting           monoclinic
_symmetry_space_group_name_H-M   'P 21/c'
_symmetry_Int_Tables_number      14
_space_group_name_Hall           '-P 2ybc'
loop_
_symmetry_equiv_pos_site_id
_symmetry_equiv_pos_as_xyz
1 x,y,z
2 -x,1/2+y,1/2-z
3 -x,-y,-z
4 x,1/2-y,1/2+z
_cell_length_a                   10.5475(11)
_cell_length_b                   18.2950(18)
_cell_length_c                   12.9152(13)
_cell_angle_alpha                90
_cell_angle_beta                 90.402(2)
_cell_angle_gamma                90
_cell_volume                     2492.14
loop_
_atom_site_label
_atom_site_type_symbol
_atom_site_fract_x
_atom_site_fract_y
_atom_site_fract_z
Mo1 Mo -0.45241(4) 0.01886(3) 0.21470(3)
Mo2 Mo -0.25608(5) 0.12579(3) 0.09387(4)
Mo3 Mo -0.74042(4) -0.00782(3) 0.09447(3)
Mo4 Mo -0.45367(5) -0.09449(2) 0.02529(3)
Cu1 Cu -0.5000 0.0000 0.5000
Cu2 Cu -0.77276(6) 0.03996(3) 0.36251(5)
O1 O -0.5446(4) 0.0278(2) 0.3236(3)
O2 O -0.3234(4) -0.0296(2) 0.2562(3)
O3 O -0.3804(4) 0.1127(2) 0.2010(3)
O4 O -0.2086(5) 0.2141(2) 0.1048(3)
O5 O -0.1347(4) 0.0768(3) 0.1475(3)
O6 O -0.2213(4) 0.1024(2) -0.0494(3)
O7 O -0.5449(4) -0.0621(2) 0.1471(3)
O8 O -0.7858(4) -0.0107(2) 0.2247(3)
O9 O -0.8529(4) 0.0425(2) 0.0345(3)
O10 O -0.6090(4) 0.0696(2) 0.1118(3)
O11 O -0.3289(4) -0.1409(2) 0.0764(3)
O12 O -0.4373(4) 0.1608(2) 0.0131(3)
O13 O -0.3829(4) 0.0159(2) 0.0449(3)
O14 O -0.9773(4) 0.0415(2) 0.3860(3)
N1 N -0.3522(4) 0.0665(2) 0.5051(3)
N2 N -0.3401(4) 0.1249(2) 0.4447(4)
N3 N -0.2466(4) 0.0548(2) 0.5573(4)
N4 N -0.1600(4) 0.1049(2) 0.5321(4)
N5 N -0.0557(5) 0.3228(3) 0.3056(4)
H1 H -0.0217 0.3606 0.2740
N6 N -0.6121(4) 0.0851(2) 0.5353(3)
N7 N -0.5895(5) 0.1375(2) 0.6032(4)
N8 N -0.7264(4) 0.0916(2) 0.4954(4)
N9 N -0.7839(5) 0.1495(2) 0.5355(4)
N10 N -0.7591(4) 0.3639(2) 0.7897(3)
C1 C -0.2222(5) 0.1467(3) 0.4624(4)
C2 C -0.1627(5) 0.2080(3) 0.4062(4)
C3 C -0.2334(6) 0.2477(3) 0.3349(4)
H2 H -0.3195 0.2357 0.3213
C4 C -0.1760(6) 0.3052(3) 0.2840(4)
H3 H -0.2222 0.3323 0.2335
C5 C 0.0153(6) 0.2848(3) 0.3742(5)
H4 H 0.1007 0.2987 0.3874
C6 C -0.0359(6) 0.2261(3) 0.4247(4)
H5 H 0.0141 0.1981 0.4716
C7 C -0.6984(5) 0.1763(3) 0.6024(4)
C8 C -0.7204(5) 0.2405(3) 0.6680(4)
C9 C -0.6317(5) 0.2606(3) 0.7423(4)
H6 H -0.5571 0.2323 0.7528
C10 C -0.6537(5) 0.3228(3) 0.8011(4)
H7 H -0.5922 0.3370 0.8513
C11 C -0.8454(6) 0.3430(3) 0.7187(4)
H8 H -0.9203 0.3713 0.7104
C12 C -0.8295(5) 0.2822(3) 0.6574(4)
H9 H -0.8927 0.2689 0.6082
Mo1B Mo -0.54759(4) -0.01886(3) -0.21470(3)
Mo2B Mo -0.74392(5) -0.12579(3) -0.09387(4)
Mo3B Mo -0.25958(4) 0.00782(3) -0.09447(3)
Mo4B Mo -0.54633(5) 0.09449(2) -0.02529(3)
Cu1_2 Cu -0.5000 0.0000 -0.5000
Cu2B Cu -0.22724(6) -0.03996(3) 0.63749(5)
Cu2C Cu -0.77276(6) 0.46004(3) 0.86251(5)
Cu2A Cu -0.22724(6) -0.46004(3) 0.13749(5)
Cu2B_2 Cu -0.22724(6) -0.03996(3) -0.36251(5)
O1B O -0.4554(4) -0.0278(2) 0.6764(3)
O1B_2 O -0.4554(4) -0.0278(2) -0.3236(3)
O2B O -0.6766(4) 0.0296(2) -0.2562(3)
O3B O -0.6196(4) -0.1127(2) -0.2010(3)
O4B O -0.7914(5) -0.2141(2) -0.1048(3)
O5B O -0.8653(4) -0.0768(3) -0.1475(3)
O6B O -0.7787(4) -0.1024(2) 0.0494(3)
O7B O -0.4551(4) 0.0621(2) -0.1471(3)
O8B O -0.2142(4) 0.0107(2) -0.2247(3)
O9B O -0.1471(4) -0.0425(2) -0.0345(3)
O10B O -0.3910(4) -0.0696(2) -0.1118(3)
O11B O -0.6711(4) 0.1409(2) -0.0764(3)
O12B O -0.5627(4) -0.1608(2) -0.0131(3)
O13B O -0.6171(4) -0.0159(2) -0.0449(3)
O14B O -0.0227(4) -0.0415(2) -0.3860(3)
N1B N -0.6478(4) -0.0665(2) 0.4949(3)
N2B N -0.6599(4) -0.1249(2) 0.5553(4)
N3B N -0.7534(4) -0.0548(2) 0.4427(4)
N3_2 N -0.2466(4) 0.0548(2) -0.4427(4)
N4B N -0.8400(4) -0.1049(2) 0.4679(4)
N5B N -0.9443(5) -0.3228(3) 0.6944(4)
H1B H -0.9783 -0.3606 0.7260
N6B N -0.3879(4) -0.0851(2) 0.4647(3)
N7B N -0.4105(5) -0.1375(2) 0.3968(4)
N8B N -0.2736(4) -0.0916(2) 0.5046(4)
N8B_2 N -0.2736(4) -0.0916(2) -0.4954(4)
N9B N -0.2161(5) -0.1495(2) 0.4645(4)
N10B N -0.2409(4) -0.3639(2) 0.2103(3)
N10C N -0.7591(4) 0.1361(2) 0.2897(3)
N10A N -0.2409(4) -0.1361(2) -0.2897(3)
C1B C -0.7778(5) -0.1467(3) 0.5376(4)
C2B C -0.8373(5) -0.2080(3) 0.5938(4)
C3B C -0.7666(6) -0.2477(3) 0.6651(4)
H2B H -0.6805 -0.2357 0.6787
C4B C -0.8240(6) -0.3052(3) 0.7160(4)
H3B H -0.7778 -0.3323 0.7665
C5B C -1.0153(6) -0.2848(3) 0.6258(5)
H4B H -1.1007 -0.2987 0.6126
C6B C -0.9641(6) -0.2261(3) 0.5753(4)
H5B H -1.0141 -0.1981 0.5284
C7B C -0.3016(5) -0.1763(3) 0.3976(4)
C8B C -0.2796(5) -0.2405(3) 0.3320(4)
C9B C -0.3683(5) -0.2606(3) 0.2577(4)
H6B H -0.4429 -0.2323 0.2472
C10B C -0.3463(5) -0.3228(3) 0.1989(4)
H7B H -0.4078 -0.3370 0.1487
C11B C -0.1546(6) -0.3430(3) 0.2813(4)
H8B H -0.0797 -0.3713 0.2896
C12B C -0.1705(5) -0.2822(3) 0.3426(4)
H9B H -0.1073 -0.2689 0.3918
O15 O -0.0749(4) 0.9456(2) 0.2413(4)
loop_
_geom_bond_atom_site_label_1
_geom_bond_atom_site_label_2
_geom_bond_site_symmetry_1
_geom_bond_site_symmetry_2
Mo1 O1 1_555 1_555
Mo2 O3 1_555 1_555
Mo3 O7 1_555 1_555
Mo4 O7 1_555 1_555
Cu1 O1 1_555 1_555
Cu2 O8 1_555 1_555
O2 Mo1 1_555 1_555
O3 Mo1 1_555 1_555
O4 Mo2 1_555 1_555
O5 Mo2 1_555 1_555
O6 Mo2 1_555 1_555
O7 Mo1 1_555 1_555
O8 Mo3 1_555 1_555
O9 Mo3 1_555 1_555
O10 Mo1 1_555 1_555
O11 Mo4 1_555 1_555
O12 Mo2 1_555 1_555
O13 Mo1 1_555 1_555
O14 Cu2 1_555 1_555
N1 Cu1 1_555 1_555
N2 N1 1_555 1_555
N3 N1 1_555 1_555
N4 N3 1_555 1_555
N5 H1 1_555 1_555
N6 Cu1 1_555 1_555
N7 N6 1_555 1_555
N8 Cu2 1_555 1_555
N9 N8 1_555 1_555
N10 C10 1_555 1_555
C1 N2 1_555 1_555
C2 C1 1_555 1_555
C3 C2 1_555 1_555
H2 C3 1_555 1_555
C4 N5 1_555 1_555
H3 C4 1_555 1_555
C5 N5 1_555 1_555
H4 C5 1_555 1_555
C6 C2 1_555 1_555
H5 C6 1_555 1_555
C7 N7 1_555 1_555
C8 C7 1_555 1_555
C9 C8 1_555 1_555
H6 C9 1_555 1_555
C10 C9 1_555 1_555
H7 C10 1_555 1_555
C11 N10 1_555 1_555
H8 C11 1_555 1_555
C12 C8 1_555 1_555
H9 C12 1_555 1_555
Mo1B O1B_2 1_555 1_555
Mo2B O3B 1_555 1_555
Mo3B O6 1_555 1_555
Mo4B O10 1_555 1_555
Cu1_2 O1B_2 1_555 1_555
Cu2B N3 1_555 1_555
Cu2C N10 1_555 1_555
Cu2A N10B 1_555 1_555
Cu2B_2 O8B 1_555 1_555
O1B Cu1 1_555 1_555
O2B Mo1B 1_555 1_555
O3B Mo1B 1_555 1_555
O4B Mo2B 1_555 1_555
O5B Mo2B 1_555 1_555
O6B Mo3 1_555 1_555
O7B Mo1B 1_555 1_555
O8B Mo3B 1_555 1_555
O9B Mo3B 1_555 1_555
O10B Mo4 1_555 1_555
O11B Mo4B 1_555 1_555
O12B Mo4 1_555 1_555
O13B Mo3 1_555 1_555
O14B Cu2B_2 1_555 1_555
N1B Cu1 1_555 1_555
N2B N1B 1_555 1_555
N3B Cu2 1_555 1_555
N3_2 Cu2B_2 1_555 1_555
N4B N3B 1_555 1_555
N5B H1B 1_555 1_555
N6B Cu1 1_555 1_555
N7B N6B 1_555 1_555
N8B Cu2B 1_555 1_555
N8B_2 Cu2B_2 1_555 1_555
N9B N8B 1_555 1_555
N10B C10B 1_555 1_555
N10C Cu2 1_555 1_555
N10A Cu2B_2 1_555 1_555
C1B N2B 1_555 1_555
C2B C1B 1_555 1_555
C3B C2B 1_555 1_555
H2B C3B 1_555 1_555
C4B N5B 1_555 1_555
H3B C4B 1_555 1_555
C5B N5B 1_555 1_555
H4B C5B 1_555 1_555
C6B C2B 1_555 1_555
H5B C6B 1_555 1_555
C7B N7B 1_555 1_555
C8B C7B 1_555 1_555
C9B C8B 1_555 1_555
H6B C9B 1_555 1_555
C10B C9B 1_555 1_555
H7B C10B 1_555 1_555
C11B N10B 1_555 1_555
H8B C11B 1_555 1_555
C12B C8B 1_555 1_555
H9B C12B 1_555 1_555
Mo2 O13 1_555 1_555
Mo3 O10 1_555 1_555
Mo4 O13 1_555 1_555
Mo4 O13B 1_555 1_555
O12 Mo4B 1_555 1_555
O13 Mo3B 1_555 1_555
O13 Mo4B 1_555 1_555
N4 C1 1_555 1_555
N6 N8 1_555 1_555
N9 C7 1_555 1_555
C3 C4 1_555 1_555
C5 C6 1_555 1_555
C11 C12 1_555 1_555
Mo1B O10B 1_555 1_555
Mo1B O13B 1_555 1_555
Mo2B O6B 1_555 1_555
Mo2B O12B 1_555 1_555
Mo2B O13B 1_555 1_555
Mo3B O7B 1_555 1_555
Mo3B O10B 1_555 1_555
Mo4B O7B 1_555 1_555
Mo4B O13B 1_555 1_555
N1B N3B 1_555 1_555
N4B C1B 1_555 1_555
N6B N8B 1_555 1_555
N9B C7B 1_555 1_555
C3B C4B 1_555 1_555
C5B C6B 1_555 1_555
C11B C12B 1_555 1_555

#END
