
#######################################################################
#
#                 Cambridge Crystallographic Data Centre
#                                CCDC 
#
#######################################################################
#
# If this CIF has been generated from an entry in the Cambridge 
# Structural Database, then it will include bibliographic, chemical, 
# crystal, experimental, refinement or atomic coordinate data resulting 
# from the CCDC's data processing and validation procedures.
#
#######################################################################

data_MUPQUK
_symmetry_cell_setting           triclinic
_symmetry_space_group_name_H-M   'P -1'
_symmetry_Int_Tables_number      2
_space_group_name_Hall           '-P 1'
loop_
_symmetry_equiv_pos_site_id
_symmetry_equiv_pos_as_xyz
1 x,y,z
2 -x,-y,-z
_cell_length_a                   7.5267(15)
_cell_length_b                   10.534(2)
_cell_length_c                   14.459(3)
_cell_angle_alpha                74.63(3)
_cell_angle_beta                 88.98(3)
_cell_angle_gamma                69.22(3)
_cell_volume                     1029.79
loop_
_atom_site_label
_atom_site_type_symbol
_atom_site_fract_x
_atom_site_fract_y
_atom_site_fract_z
Pb1 Pb 1.40589(6) 0.24186(6) 0.04740(3)
Pb2 Pb 1.0000 0.0000 0.0000
Cu1 Cu 0.8247(2) 0.38646(16) 0.27966(8)
Cu2 Cu 0.8965(2) 0.28119(17) 0.12916(10)
I1 I 1.18512(9) 0.25822(7) 0.24204(4)
I2 I 1.42928(9) 0.51330(7) -0.13521(4)
I3 I 1.40055(9) -0.09009(7) 0.11742(4)
I4 I 1.00650(9) -0.32087(7) 0.05233(4)
I5 I 0.80329(10) 0.05083(8) 0.18680(5)
N1 N 0.7771(13) 0.2652(10) 0.4098(5)
N2 N 0.7942(11) 0.5258(9) 0.3611(5)
C1 C 0.767(2) 0.1378(13) 0.4336(9)
H1 H 0.7722 0.0928 0.3857
C2 C 0.750(2) 0.0690(14) 0.5274(9)
H2 H 0.7497 -0.0223 0.5412
C3 C 0.7340(17) 0.1313(12) 0.5992(8)
H3 H 0.7211 0.0847 0.6618
C4 C 0.7372(13) 0.2682(11) 0.5767(6)
C5 C 0.7171(16) 0.3457(13) 0.6452(7)
H4 H 0.7021 0.3045 0.7087
C6 C 0.7192(15) 0.4782(12) 0.6203(7)
H5 H 0.7028 0.5270 0.6668
C7 C 0.7459(14) 0.5447(12) 0.5245(7)
C8 C 0.7489(16) 0.6798(12) 0.4954(7)
H6 H 0.7349 0.7324 0.5394
C9 C 0.7729(17) 0.7359(13) 0.4005(8)
H7 H 0.7723 0.8276 0.3796
C10 C 0.7978(14) 0.6556(11) 0.3371(7)
H8 H 0.8183 0.6940 0.2739
C11 C 0.7599(13) 0.3299(11) 0.4803(6)
C12 C 0.7669(13) 0.4718(11) 0.4543(6)
Pb1A Pb 0.59411(6) -0.24186(6) -0.04740(3)
Pb1A_2 Pb 1.59411(6) -0.24186(6) -0.04740(3)
Pb1_2 Pb 0.40589(6) 0.24186(6) 0.04740(3)
Pb1A_3 Pb 0.59411(6) 0.75814(6) -0.04740(3)
Cu1A Cu 1.1753(2) -0.38646(16) -0.27966(8)
Cu1A_2 Cu 1.1753(2) 0.61354(16) -0.27966(8)
Cu2A Cu 1.1035(2) -0.28119(17) -0.12916(10)
Cu2A_2 Cu 1.1035(2) 0.71881(17) -0.12916(10)
I1A I 0.81488(9) -0.25822(7) -0.24204(4)
I2A I 0.57072(9) 0.48670(7) 0.13521(4)
I2A_2 I 0.57072(9) -0.51330(7) 0.13521(4)
I2_2 I 1.42928(9) -0.48670(7) -0.13521(4)
I3A I 0.59945(9) 0.09009(7) -0.11742(4)
I3A_2 I 1.59945(9) 0.09009(7) -0.11742(4)
I3_2 I 0.40055(9) -0.09009(7) 0.11742(4)
I4A I 0.99350(9) 0.32087(7) -0.05233(4)
I5A I 1.19671(10) -0.05083(8) -0.18680(5)
I5_2 I 1.80329(10) 0.05083(8) 0.18680(5)
I5A_2 I 0.19671(10) -0.05083(8) -0.18680(5)
N1A N 1.2229(13) -0.2652(10) -0.4098(5)
N2A N 1.2058(11) -0.5258(9) -0.3611(5)
C1A C 1.233(2) -0.1378(13) -0.4336(9)
H1A H 1.2278 -0.0928 -0.3857
C2A C 1.250(2) -0.0690(14) -0.5274(9)
H2A H 1.2503 0.0223 -0.5412
C3A C 1.2660(17) -0.1313(12) -0.5992(8)
H3A H 1.2789 -0.0847 -0.6618
C4A C 1.2628(13) -0.2682(11) -0.5767(6)
C5A C 1.2829(16) -0.3457(13) -0.6452(7)
H4A H 1.2979 -0.3045 -0.7087
C6A C 1.2808(15) -0.4782(12) -0.6203(7)
H5A H 1.2972 -0.5270 -0.6668
C7A C 1.2541(14) -0.5447(12) -0.5245(7)
C8A C 1.2511(16) -0.6798(12) -0.4954(7)
H6A H 1.2651 -0.7324 -0.5394
C9A C 1.2271(17) -0.7359(13) -0.4005(8)
H7A H 1.2277 -0.8276 -0.3796
C10A C 1.2022(14) -0.6556(11) -0.3371(7)
H8A H 1.1817 -0.6940 -0.2739
C11A C 1.2401(13) -0.3299(11) -0.4803(6)
C12A C 1.2331(13) -0.4718(11) -0.4543(6)
loop_
_geom_bond_atom_site_label_1
_geom_bond_atom_site_label_2
_geom_bond_site_symmetry_1
_geom_bond_site_symmetry_2
Pb1 I1 1_555 1_555
Pb2 I3 1_555 1_555
Cu1 I1 1_555 1_555
Cu2 I1 1_555 1_555
I2 Pb1 1_555 1_555
I3 Pb1 1_555 1_555
I4 Pb2 1_555 1_555
I5 Pb2 1_555 1_555
N1 Cu1 1_555 1_555
N2 Cu1 1_555 1_555
C1 N1 1_555 1_555
H1 C1 1_555 1_555
C2 C1 1_555 1_555
H2 C2 1_555 1_555
C3 C2 1_555 1_555
H3 C3 1_555 1_555
C4 C3 1_555 1_555
C5 C4 1_555 1_555
H4 C5 1_555 1_555
C6 C5 1_555 1_555
H5 C6 1_555 1_555
C7 C6 1_555 1_555
C8 C7 1_555 1_555
H6 C8 1_555 1_555
C9 C8 1_555 1_555
H7 C9 1_555 1_555
C10 N2 1_555 1_555
H8 C10 1_555 1_555
C11 N1 1_555 1_555
C12 N2 1_555 1_555
Pb1A I4 1_555 1_555
Pb1A_2 I3 1_555 1_555
Pb1_2 I5 1_555 1_555
Pb1A_3 I2A 1_555 1_555
Cu1A I1A 1_555 1_555
Cu1A_2 I2 1_555 1_555
Cu2A I4 1_555 1_555
Cu2A_2 I2 1_555 1_555
I1A Pb1A 1_555 1_555
I2A Cu1 1_555 1_555
I2A_2 Pb1A 1_555 1_555
I2_2 Cu1A 1_555 1_555
I3A Pb2 1_555 1_555
I3A_2 Pb1 1_555 1_555
I3_2 Pb1A 1_555 1_555
I4A Pb1 1_555 1_555
I5A Pb2 1_555 1_555
I5_2 Pb1 1_555 1_555
I5A_2 Pb1A 1_555 1_555
N1A Cu1A 1_555 1_555
N2A Cu1A 1_555 1_555
C1A N1A 1_555 1_555
H1A C1A 1_555 1_555
C2A C1A 1_555 1_555
H2A C2A 1_555 1_555
C3A C2A 1_555 1_555
H3A C3A 1_555 1_555
C4A C3A 1_555 1_555
C5A C4A 1_555 1_555
H4A C5A 1_555 1_555
C6A C5A 1_555 1_555
H5A C6A 1_555 1_555
C7A C6A 1_555 1_555
C8A C7A 1_555 1_555
H6A C8A 1_555 1_555
C9A C8A 1_555 1_555
H7A C9A 1_555 1_555
C10A N2A 1_555 1_555
H8A C10A 1_555 1_555
C11A N1A 1_555 1_555
C12A N2A 1_555 1_555
Pb2 I4A 1_555 1_555
Cu2 I5 1_555 1_555
Cu2 I2A 1_555 1_555
Cu2 I4A 1_555 1_555
C4 C11 1_555 1_555
C7 C12 1_555 1_555
C9 C10 1_555 1_555
C11 C12 1_555 1_555
Pb1A I3A 1_555 1_555
Pb1A_2 I3A_2 1_555 1_555
Pb1A_2 I5A 1_555 1_555
Pb1_2 I3A 1_555 1_555
Pb1_2 I3_2 1_555 1_555
Cu2A I1A 1_555 1_555
Cu2A I2_2 1_555 1_555
Cu2A I5A 1_555 1_555
C4A C11A 1_555 1_555
C7A C12A 1_555 1_555
C9A C10A 1_555 1_555
C11A C12A 1_555 1_555

#END
