
#######################################################################
#
#                 Cambridge Crystallographic Data Centre
#                                CCDC 
#
#######################################################################
#
# If this CIF has been generated from an entry in the Cambridge 
# Structural Database, then it will include bibliographic, chemical, 
# crystal, experimental, refinement or atomic coordinate data resulting 
# from the CCDC's data processing and validation procedures.
#
#######################################################################

data_MUPQAQ
_symmetry_cell_setting           triclinic
_symmetry_space_group_name_H-M   'P -1'
_symmetry_Int_Tables_number      2
_space_group_name_Hall           '-P 1'
loop_
_symmetry_equiv_pos_site_id
_symmetry_equiv_pos_as_xyz
1 x,y,z
2 -x,-y,-z
_cell_length_a                   11.0227(7)
_cell_length_b                   11.6049(7)
_cell_length_c                   15.8019(10)
_cell_angle_alpha                97.2190(10)
_cell_angle_beta                 102.5180(10)
_cell_angle_gamma                102.9640(10)
_cell_volume                     1890.44
loop_
_atom_site_label
_atom_site_type_symbol
_atom_site_fract_x
_atom_site_fract_y
_atom_site_fract_z
Mo1 Mo 0.75021(3) 0.77800(3) 0.33083(2)
Mo2 Mo 0.74081(3) 0.93968(3) 0.51246(2)
Mo3 Mo 0.98813(3) 0.99470(3) 0.31814(2)
Mo4 Mo 1.02468(3) 0.85172(3) 0.50217(2)
O1 O 0.8906(3) 0.8298(3) 0.2790(2)
O2 O 0.6838(3) 0.6317(3) 0.2802(2)
O3 O 0.6492(3) 0.8554(3) 0.2789(2)
O4 O 0.6993(3) 0.7849(3) 0.43915(19)
O5 O 0.6438(3) 1.0102(3) 0.4509(2)
O6 O 0.6679(3) 0.8980(3) 0.5933(2)
O7 O 0.8800(3) 1.0818(3) 0.57922(19)
O8 O 1.1304(3) 0.7859(3) 0.5596(2)
O9 O 0.9132(3) 0.7340(3) 0.4237(2)
O10 O 0.9165(3) 0.8720(3) 0.58176(19)
O11 O 1.0962(3) 1.0028(3) 0.2552(2)
O12 O 0.8787(3) 1.0650(3) 0.2694(2)
O13 O 0.8905(3) 0.9639(3) 0.43088(19)
Mo1A Mo 1.24979(3) 1.22200(3) 0.66917(2)
Mo2A Mo 1.25919(3) 1.06032(3) 0.48754(2)
Mo3A Mo 1.01187(3) 1.00530(3) 0.68186(2)
Mo4A Mo 0.97532(3) 1.14828(3) 0.49783(2)
O1A O 1.1094(3) 1.1702(3) 0.7210(2)
O2A O 1.3162(3) 1.3683(3) 0.7198(2)
O3A O 1.3508(3) 1.1446(3) 0.7211(2)
O4A O 1.3007(3) 1.2151(3) 0.56085(19)
O5A O 1.3562(3) 0.9898(3) 0.5491(2)
O6A O 1.3321(3) 1.1020(3) 0.4067(2)
O7A O 1.1200(3) 0.9182(3) 0.42078(19)
O8A O 0.8696(3) 1.2141(3) 0.4404(2)
O9A O 1.0868(3) 1.2660(3) 0.5763(2)
O10A O 1.0835(3) 1.1280(3) 0.41824(19)
O11A O 0.9038(3) 0.9972(3) 0.7448(2)
O12A O 1.1213(3) 0.9350(3) 0.7306(2)
O13A O 1.1095(3) 1.0361(3) 0.56912(19)
Cu1 Cu 0.84526(5) 0.71395(5) 0.13692(3)
Cu2 Cu 0.57486(5) 0.49321(5) 0.12662(3)
Cu3 Cu 1.00606(5) 1.32601(4) 0.03643(3)
Cu4 Cu 0.28943(5) 0.58841(4) 0.05084(3)
Cu5 Cu 1.62827(5) 0.63318(5) 0.51495(4)
N1 N 0.6799(3) 0.7351(3) 0.0935(2)
N2 N 0.5722(3) 0.6526(3) 0.0936(2)
N3 N 0.4720(3) 0.6953(3) 0.0660(2)
N4 N 0.5113(3) 0.8050(3) 0.0470(2)
N5 N 0.8947(3) 1.1462(3) 0.0296(2)
N6 N 0.4033(3) 0.3849(3) 0.1130(2)
N7 N 0.2976(3) 0.4190(3) 0.0768(2)
N8 N 0.1943(3) 0.3341(3) 0.0773(2)
N9 N 0.2297(3) 0.2442(3) 0.1131(2)
N10 N 0.5769(5) 0.0629(4) 0.2566(3)
H1 H 0.6231 0.0230 0.2854
N11 N 1.0665(3) 0.6584(3) 0.0905(2)
N12 N 1.0098(3) 0.6879(3) 0.1530(2)
N13 N 1.0847(3) 0.6949(3) 0.2329(2)
N14 N 1.1817(3) 0.6438(3) 0.1296(2)
N15 N 1.4723(3) 0.6298(3) 0.4341(2)
N16 N 0.9090(3) 0.3998(3) 0.1169(2)
N17 N 0.7984(3) 0.4257(3) 0.0794(2)
N18 N 0.7437(3) 0.4568(3) 0.1423(2)
N19 N 0.8153(3) 0.4526(3) 0.2215(2)
N20 N 1.2246(3) 0.3803(3) 0.4030(2)
C1 C 0.3581(4) 0.2769(4) 0.1339(3)
C2 C 0.4356(4) 0.2019(4) 0.1768(3)
C3 C 0.5604(5) 0.2100(4) 0.1683(3)
H2 H 0.5965 0.2630 0.1355
C4 C 0.6297(5) 0.1383(5) 0.2092(3)
H3 H 0.7129 0.1423 0.2039
C5 C 0.4568(6) 0.0481(5) 0.2603(4)
H4 H 0.4220 -0.0090 0.2908
C6 C 0.3817(5) 0.1151(4) 0.2202(3)
H5 H 0.2960 0.1026 0.2221
C7 C 1.1896(4) 0.6668(4) 0.2168(3)
C8 C 1.2932(4) 0.6591(4) 0.2902(3)
C9 C 1.3127(4) 0.7273(4) 0.3742(3)
H6 H 1.2654 0.7828 0.3830
C10 C 1.4027(4) 0.7105(4) 0.4428(3)
H7 H 1.4165 0.7569 0.4982
C11 C 1.4532(4) 0.5644(4) 0.3538(3)
H8 H 1.5003 0.5082 0.3473
C12 C 1.3665(4) 0.5771(4) 0.2805(3)
H9 H 1.3571 0.5317 0.2255
C13 C 0.9159(4) 0.4176(3) 0.2037(3)
C14 C 1.0207(4) 0.4024(4) 0.2733(3)
C15 C 1.0873(4) 0.3171(4) 0.2579(3)
H10 H 1.0639 0.2656 0.2036
C16 C 1.1880(4) 0.3092(4) 0.3231(3)
H11 H 1.2327 0.2524 0.3117
C17 C 1.1570(4) 0.4593(4) 0.4196(3)
H12 H 1.1797 0.5066 0.4755
C18 C 1.0548(4) 0.4733(4) 0.3570(3)
H13 H 1.0097 0.5290 0.3706
C19 C 0.6398(4) 0.8274(3) 0.0647(3)
C20 C 0.7275(4) 0.9363(3) 0.0519(3)
C21 C 0.6806(4) 1.0198(4) 0.0069(3)
H14 H 0.5927 1.0071 -0.0169
H15 H 0.8963 0.9031 0.1077
H16 H 1.0272 1.0764 0.0900
C22 C 0.7668(4) 1.1215(4) -0.0017(3)
H17 H 0.7338 1.1766 -0.0313
C23 C 0.9384(4) 1.0629(4) 0.0691(3)
C24 C 0.8598(4) 0.9586(4) 0.0807(3)
Cu3_2 Cu 0.00606(5) 0.32601(4) 0.03643(3)
Cu3A Cu 0.99394(5) 0.67399(4) -0.03643(3)
Cu3_3 Cu 1.00606(5) 0.32601(4) 0.03643(3)
Cu4_2 Cu 1.28943(5) 0.58841(4) 0.05084(3)
Cu4A Cu 0.71057(5) 0.41159(4) -0.05084(3)
Cu5A Cu 1.37173(5) 0.36682(5) 0.48505(4)
N8_2 N 1.1943(3) 1.3341(3) 0.0773(2)
N11A N 0.9335(3) 1.3416(3) -0.0905(2)
N14_2 N 0.1817(3) 0.6438(3) 0.1296(2)
N16_2 N 0.9090(3) 1.3998(3) 0.1169(2)
N17A N 0.2016(3) 0.5743(3) -0.0794(2)
N20A N 1.7754(3) 0.6197(3) 0.5970(2)
O14 O 0.7034(4) 0.3869(4) 0.3749(3)
loop_
_geom_bond_atom_site_label_1
_geom_bond_atom_site_label_2
_geom_bond_site_symmetry_1
_geom_bond_site_symmetry_2
Mo1 O1 1_555 1_555
Mo2 O4 1_555 1_555
Mo3 O1 1_555 1_555
Mo4 O8 1_555 1_555
Cu1 N1 1_555 1_555
Cu2 N2 1_555 1_555
Cu3 N5 1_555 1_555
Cu4 N3 1_555 1_555
Cu5 N15 1_555 1_555
O2 Mo1 1_555 1_555
O3 Mo1 1_555 1_555
O4 Mo1 1_555 1_555
O5 Mo2 1_555 1_555
O6 Mo2 1_555 1_555
O7 Mo2 1_555 1_555
O9 Mo1 1_555 1_555
O10 Mo2 1_555 1_555
O11 Mo3 1_555 1_555
O12 Mo3 1_555 1_555
O13 Mo1 1_555 1_555
N1 N2 1_555 1_555
N2 N3 1_555 1_555
N3 N4 1_555 1_555
N4 C19 1_555 1_555
N5 C22 1_555 1_555
N6 Cu2 1_555 1_555
N7 Cu4 1_555 1_555
N8 N7 1_555 1_555
N9 N8 1_555 1_555
N10 H1 1_555 1_555
N11 N12 1_555 1_555
N12 Cu1 1_555 1_555
N13 N12 1_555 1_555
N14 N11 1_555 1_555
N15 C10 1_555 1_555
N16 N17 1_555 1_555
N17 N18 1_555 1_555
N18 Cu2 1_555 1_555
N19 N18 1_555 1_555
N20 C16 1_555 1_555
C1 N6 1_555 1_555
C2 C1 1_555 1_555
C3 C2 1_555 1_555
H2 C3 1_555 1_555
C4 N10 1_555 1_555
H3 C4 1_555 1_555
C5 N10 1_555 1_555
H4 C5 1_555 1_555
C6 C2 1_555 1_555
H5 C6 1_555 1_555
C7 N13 1_555 1_555
C8 C7 1_555 1_555
C9 C8 1_555 1_555
H6 C9 1_555 1_555
C10 C9 1_555 1_555
H7 C10 1_555 1_555
C11 N15 1_555 1_555
H8 C11 1_555 1_555
C12 C8 1_555 1_555
H9 C12 1_555 1_555
C13 N16 1_555 1_555
C14 C13 1_555 1_555
C15 C14 1_555 1_555
H10 C15 1_555 1_555
C16 C15 1_555 1_555
H11 C16 1_555 1_555
C17 N20 1_555 1_555
H12 C17 1_555 1_555
C18 C14 1_555 1_555
H13 C18 1_555 1_555
C19 N1 1_555 1_555
C20 C19 1_555 1_555
C21 C20 1_555 1_555
H14 C21 1_555 1_555
H15 C24 1_555 1_555
H16 C23 1_555 1_555
C22 C21 1_555 1_555
H17 C22 1_555 1_555
C23 N5 1_555 1_555
C24 C20 1_555 1_555
Mo1A O1A 1_555 1_555
Mo2A O4A 1_555 1_555
Mo3A O7 1_555 1_555
Mo4A O7 1_555 1_555
Cu3_2 N8 1_555 1_555
Cu3A N11 1_555 1_555
Cu3_3 N16 1_555 1_555
Cu4_2 N14 1_555 1_555
Cu4A N17 1_555 1_555
Cu5A N20 1_555 1_555
O1A Mo3A 1_555 1_555
O2A Mo1A 1_555 1_555
O3A Mo1A 1_555 1_555
O4A Mo1A 1_555 1_555
O5A Mo2A 1_555 1_555
O6A Mo2A 1_555 1_555
O7A Mo3 1_555 1_555
O8A Mo4A 1_555 1_555
O9A Mo1A 1_555 1_555
O10A Mo3 1_555 1_555
O11A Mo3A 1_555 1_555
O12A Mo3A 1_555 1_555
O13A Mo4 1_555 1_555
N8_2 Cu3 1_555 1_555
N11A Cu3 1_555 1_555
N14_2 Cu4 1_555 1_555
N16_2 Cu3 1_555 1_555
N17A Cu4 1_555 1_555
N20A Cu5 1_555 1_555
Mo2 O13 1_555 1_555
Mo3 O13 1_555 1_555
Mo4 O9 1_555 1_555
Mo4 O10 1_555 1_555
Mo4 O13 1_555 1_555
Mo4 O7A 1_555 1_555
O10 Mo3A 1_555 1_555
O13 Mo4A 1_555 1_555
N6 N7 1_555 1_555
N9 C1 1_555 1_555
N14 C7 1_555 1_555
N19 C13 1_555 1_555
C3 C4 1_555 1_555
C5 C6 1_555 1_555
C11 C12 1_555 1_555
C17 C18 1_555 1_555
C23 C24 1_555 1_555
Mo1A O13A 1_555 1_555
Mo2A O7A 1_555 1_555
Mo2A O10A 1_555 1_555
Mo2A O13A 1_555 1_555
Mo3A O13A 1_555 1_555
Mo4A O9A 1_555 1_555
Mo4A O10A 1_555 1_555
Mo4A O13A 1_555 1_555

#END
