
#######################################################################
#
#                 Cambridge Crystallographic Data Centre
#                                CCDC 
#
#######################################################################
#
# If this CIF has been generated from an entry in the Cambridge 
# Structural Database, then it will include bibliographic, chemical, 
# crystal, experimental, refinement or atomic coordinate data resulting 
# from the CCDC's data processing and validation procedures.
#
#######################################################################

data_MUPQEU
_symmetry_cell_setting           monoclinic
_symmetry_space_group_name_H-M   'P 21/m'
_symmetry_Int_Tables_number      11
_space_group_name_Hall           '-P 2yb'
loop_
_symmetry_equiv_pos_site_id
_symmetry_equiv_pos_as_xyz
1 x,y,z
2 -x,1/2+y,-z
3 -x,-y,-z
4 x,1/2-y,z
_cell_length_a                   6.4179(11)
_cell_length_b                   20.503(3)
_cell_length_c                   7.2522(11)
_cell_angle_alpha                90
_cell_angle_beta                 100.191(7)
_cell_angle_gamma                90
_cell_volume                     939.234
loop_
_atom_site_label
_atom_site_type_symbol
_atom_site_fract_x
_atom_site_fract_y
_atom_site_fract_z
Br1 Br -0.36037(19) 0.2500 0.19849(19)
Br2 Br 0.77167(13) -0.00056(5) 0.22012(12)
Cu1 Cu 1.0000 0.0000 0.5000
Cu2 Cu 0.36966(16) 0.00141(5) 0.30645(14)
Cu3 Cu -0.0144(2) 0.2500 0.49679(19)
Cu4 Cu -0.0275(2) 0.2500 0.00897(19)
C1 C 0.2375(13) -0.1254(4) 0.1417(11)
H1 H 0.2586 -0.1124 0.0235
C2 C 0.2374(12) -0.1272(4) 0.4318(11)
H2 H 0.2581 -0.1157 0.5578
C3 C 0.2362(11) 0.1293(4) 0.4348(11)
H3 H 0.2656 0.1186 0.5613
C4 C 0.2200(13) 0.1269(4) 0.1419(11)
H4 H 0.2354 0.1141 0.0220
N1 N 0.1421(10) -0.1802(3) 0.1740(8)
N2 N 0.1429(10) -0.1815(3) 0.3643(9)
N3 N 0.3008(10) -0.0902(3) 0.2981(9)
N4 N 0.1320(10) 0.1818(3) 0.3680(8)
N5 N 0.1226(10) 0.1802(3) 0.1782(9)
N6 N 0.2956(9) 0.0927(3) 0.2979(9)
Br2B Br 1.22833(13) 0.00056(5) 0.77988(12)
Cu2B Cu 1.63034(16) -0.00141(5) 0.69355(14)
Cu3A Cu 0.0144(2) -0.2500 0.50321(19)
Cu3_2 Cu 1.9856(2) 0.2500 0.49679(19)
Cu3A_2 Cu 2.0144(2) -0.2500 0.50321(19)
Cu4A Cu 0.0275(2) -0.2500 -0.00897(19)
Cu4_2 Cu 1.9725(2) 0.2500 1.00897(19)
Cu4A_2 Cu 2.0275(2) -0.2500 0.99103(19)
C1B C 1.7625(13) 0.1254(4) 0.8583(11)
H1B H 1.7414 0.1124 0.9765
C2B C 1.7626(12) 0.1272(4) 0.5682(11)
H2B H 1.7419 0.1157 0.4422
C3B C 1.7638(11) -0.1293(4) 0.5652(11)
H3B H 1.7344 -0.1186 0.4387
C4B C 1.7800(13) -0.1269(4) 0.8581(11)
H4B H 1.7646 -0.1141 0.9780
N1B N 1.8579(10) 0.1802(3) 0.8260(8)
N1A N -0.1421(10) 0.3198(3) -0.1740(8)
N1B_2 N -0.1421(10) 0.1802(3) -0.1740(8)
N2B N 1.8571(10) 0.1815(3) 0.6357(9)
N2A N -0.1429(10) 0.3185(3) 0.6357(9)
N2B_2 N -0.1429(10) 0.1815(3) 0.6357(9)
N3B N 1.6992(10) 0.0902(3) 0.7019(9)
N4B N 1.8680(10) -0.1818(3) 0.6320(8)
N4C N 0.1320(10) 0.3182(3) 0.3680(8)
N5B N 1.8774(10) -0.1802(3) 0.8218(9)
N5C N 0.1226(10) 0.3198(3) 0.1782(9)
N6B N 1.7044(9) -0.0927(3) 0.7021(9)
O1 O -0.3445(10) -0.2500 -0.7883(10)
loop_
_geom_bond_atom_site_label_1
_geom_bond_atom_site_label_2
_geom_bond_site_symmetry_1
_geom_bond_site_symmetry_2
Br1 Cu3 1_555 1_555
Br2 Cu1 1_555 1_555
Cu1 Br2B 1_555 1_555
Cu2 Br2 1_555 1_555
Cu3 N4 1_555 1_555
Cu4 Br1 1_555 1_555
C1 H1 1_555 1_555
C2 H2 1_555 1_555
C3 H3 1_555 1_555
C4 H4 1_555 1_555
N1 C1 1_555 1_555
N2 C2 1_555 1_555
N3 Cu2 1_555 1_555
N4 C3 1_555 1_555
N5 Cu4 1_555 1_555
N6 Cu2 1_555 1_555
Br2B Cu2B 1_555 1_555
Cu2B N3B 1_555 1_555
Cu3A N2 1_555 1_555
Cu3_2 N2B 1_555 1_555
Cu3A_2 N4B 1_555 1_555
Cu4A N1 1_555 1_555
Cu4_2 N1B 1_555 1_555
Cu4A_2 N5B 1_555 1_555
C1B H1B 1_555 1_555
C2B H2B 1_555 1_555
C3B H3B 1_555 1_555
C4B H4B 1_555 1_555
N1B C1B 1_555 1_555
N1A Cu4 1_555 1_555
N1B_2 Cu4 1_555 1_555
N2B C2B 1_555 1_555
N2A Cu3 1_555 1_555
N2B_2 Cu3 1_555 1_555
N3B C1B 1_555 1_555
N4B C3B 1_555 1_555
N4C Cu3 1_555 1_555
N5B C4B 1_555 1_555
N5C Cu4 1_555 1_555
N6B Cu2B 1_555 1_555
C1 N3 1_555 1_555
C2 N3 1_555 1_555
C3 N6 1_555 1_555
C4 N5 1_555 1_555
C4 N6 1_555 1_555
N1 N2 1_555 1_555
N4 N5 1_555 1_555
C2B N3B 1_555 1_555
C3B N6B 1_555 1_555
C4B N6B 1_555 1_555
N1B N2B 1_555 1_555
N4B N5B 1_555 1_555
N4C N5C 1_555 1_555

#END
