
#######################################################################
#
#                 Cambridge Crystallographic Data Centre
#                                CCDC 
#
#######################################################################
#
# If this CIF has been generated from an entry in the Cambridge 
# Structural Database, then it will include bibliographic, chemical, 
# crystal, experimental, refinement or atomic coordinate data resulting 
# from the CCDC's data processing and validation procedures.
#
#######################################################################

data_MUPROF
_symmetry_cell_setting           monoclinic
_symmetry_space_group_name_H-M   'C 2/c'
_symmetry_Int_Tables_number      15
_space_group_name_Hall           '-C 2yn'
loop_
_symmetry_equiv_pos_site_id
_symmetry_equiv_pos_as_xyz
1 x,y,z
2 -x,y,1/2-z
3 1/2+x,1/2+y,z
4 1/2-x,1/2+y,1/2-z
5 -x,-y,-z
6 x,-y,1/2+z
7 1/2-x,1/2-y,-z
8 1/2+x,1/2-y,1/2+z
_cell_length_a                   42.802(9)
_cell_length_b                   10.031(2)
_cell_length_c                   9.2957(19)
_cell_angle_alpha                90
_cell_angle_beta                 94.57(3)
_cell_angle_gamma                90
_cell_volume                     3978.39
loop_
_atom_site_label
_atom_site_type_symbol
_atom_site_fract_x
_atom_site_fract_y
_atom_site_fract_z
Pb1 Pb 0.0000 0.91564(3) 0.7500
Fe1 Fe 0.19669(2) 0.75459(9) 0.17294(10)
Cl1 Cl 0.10588(4) 0.70201(18) 0.70461(18)
O1 O 0.04666(11) 0.8323(5) 0.6324(5)
O2 O 0.03926(11) 0.9871(6) 0.4704(7)
N1 N 0.02234(11) 0.7096(5) 0.8647(5)
C1 C 0.1864(4) 0.5609(10) 0.1297(14)
H1 H 0.1866 0.4894 0.2017
C2 C 0.2109(3) 0.5966(9) 0.0563(13)
H2 H 0.2317 0.5558 0.0655
C3 C 0.1703(3) 0.7283(12) -0.0146(14)
H3 H 0.1576 0.7969 -0.0666
C4 C 0.1601(3) 0.6426(17) 0.0869(17)
H4 H 0.1390 0.6369 0.1203
C5 C 0.20640(17) 0.7724(9) 0.3898(9)
H5 H 0.2051 0.7003 0.4602
C6 C 0.23285(17) 0.8038(10) 0.3165(9)
H6 H 0.2532 0.7586 0.3282
C7 C 0.2251(2) 0.9120(8) 0.2229(12)
H7 H 0.2391 0.9543 0.1582
C8 C 0.19361(19) 0.9471(8) 0.2361(10)
H8 H 0.1820 1.0180 0.1827
C9 C 0.18135(16) 0.8601(8) 0.3423(8)
C10 C 0.14925(14) 0.8620(7) 0.3865(7)
C11 C 0.14087(15) 0.7896(6) 0.5048(7)
H9 H 0.1558 0.7356 0.5542
C12 C 0.12602(19) 0.9394(8) 0.3170(9)
H10 H 0.1304 0.9874 0.2354
C13 C 0.09651(17) 0.9472(7) 0.3656(8)
H11 H 0.0817 1.0022 0.3165
C14 C 0.11087(14) 0.7953(6) 0.5519(6)
C15 C 0.08788(14) 0.8772(6) 0.4839(6)
C16 C 0.05544(14) 0.9003(5) 0.5323(6)
C17 C 0.2016(3) 0.6991(13) -0.0339(11)
H12 H 0.2147 0.7440 -0.1011
C18 C 0.04529(16) 0.7092(7) 0.9676(7)
H13 H 0.0528 0.7903 1.0043
C19 C 0.0588(2) 0.5910(7) 1.0241(9)
H14 H 0.0751 0.5939 1.0966
C20 C 0.04780(18) 0.4726(9) 0.9716(8)
H15 H 0.0562 0.3936 1.0099
C21 C 0.02415(17) 0.4683(7) 0.8617(7)
C22 C 0.01128(18) 0.3466(7) 0.8018(8)
H16 H 0.0191 0.2657 0.8376
C23 C 0.01198(16) 0.5916(5) 0.8079(6)
Pb1D Pb 0.0000 1.08436(3) 0.2500
Fe1D Fe -0.19669(2) 1.24541(9) 0.82706(10)
Cl1D Cl -0.10588(4) 1.29799(18) 0.29539(18)
O1D O -0.04666(11) 1.1677(5) 0.3676(5)
O1A O -0.04666(11) 0.8323(5) 0.8676(5)
O2D O -0.03926(11) 1.0129(6) 0.5296(7)
O2E O 0.03926(11) 1.0129(6) 0.9704(7)
N1A N -0.02234(11) 0.7096(5) 0.6353(5)
C1D C -0.1864(4) 1.4391(10) 0.8703(14)
H1D H -0.1866 1.5106 0.7983
C2D C -0.2109(3) 1.4034(9) 0.9437(13)
H2D H -0.2317 1.4442 0.9345
C3D C -0.1703(3) 1.2717(12) 1.0146(14)
H3D H -0.1576 1.2031 1.0666
C4D C -0.1601(3) 1.3574(17) 0.9131(17)
H4D H -0.1390 1.3631 0.8797
C5D C -0.20640(17) 1.2276(9) 0.6102(9)
H5D H -0.2051 1.2997 0.5398
C6D C -0.23285(17) 1.1962(10) 0.6835(9)
H6D H -0.2532 1.2414 0.6718
C7D C -0.2251(2) 1.0880(8) 0.7771(12)
H7D H -0.2391 1.0457 0.8418
C8D C -0.19361(19) 1.0529(8) 0.7639(10)
H8D H -0.1820 0.9820 0.8173
C9D C -0.18135(16) 1.1399(8) 0.6577(8)
C10D C -0.14925(14) 1.1380(7) 0.6135(7)
C11D C -0.14087(15) 1.2104(6) 0.4952(7)
H9D H -0.1558 1.2644 0.4458
C12D C -0.12602(19) 1.0606(8) 0.6830(9)
H10D H -0.1304 1.0126 0.7646
C13D C -0.09651(17) 1.0528(7) 0.6344(8)
H11D H -0.0817 0.9978 0.6835
C14D C -0.11087(14) 1.2047(6) 0.4481(6)
C15D C -0.08788(14) 1.1228(6) 0.5161(6)
C16D C -0.05544(14) 1.0997(5) 0.4677(6)
C17D C -0.2016(3) 1.3009(13) 1.0339(11)
H12D H -0.2147 1.2560 1.1011
C18A C -0.04529(16) 0.7092(7) 0.5324(7)
H13A H -0.0528 0.7903 0.4957
C19A C -0.0588(2) 0.5910(7) 0.4759(9)
H14A H -0.0751 0.5939 0.4034
C20A C -0.04780(18) 0.4726(9) 0.5284(8)
H15A H -0.0562 0.3936 0.4901
C21A C -0.02415(17) 0.4683(7) 0.6383(7)
C22A C -0.01128(18) 0.3466(7) 0.6982(8)
H16A H -0.0191 0.2657 0.6624
C23A C -0.01198(16) 0.5916(5) 0.6921(6)
loop_
_geom_bond_atom_site_label_1
_geom_bond_atom_site_label_2
_geom_bond_site_symmetry_1
_geom_bond_site_symmetry_2
Pb1 O1 1_555 1_555
Fe1 C1 1_555 1_555
Cl1 C14 1_555 1_555
O1 C16 1_555 1_555
O2 C16 1_555 1_555
N1 Pb1 1_555 1_555
C1 H1 1_555 1_555
C2 Fe1 1_555 1_555
H2 C2 1_555 1_555
C3 Fe1 1_555 1_555
H3 C3 1_555 1_555
C4 Fe1 1_555 1_555
H4 C4 1_555 1_555
C5 Fe1 1_555 1_555
H5 C5 1_555 1_555
C6 Fe1 1_555 1_555
H6 C6 1_555 1_555
C7 Fe1 1_555 1_555
H7 C7 1_555 1_555
C8 Fe1 1_555 1_555
H8 C8 1_555 1_555
C9 Fe1 1_555 1_555
C10 C9 1_555 1_555
C11 C10 1_555 1_555
H9 C11 1_555 1_555
C12 C10 1_555 1_555
H10 C12 1_555 1_555
C13 C12 1_555 1_555
H11 C13 1_555 1_555
C14 C11 1_555 1_555
C15 C13 1_555 1_555
C16 C15 1_555 1_555
C17 Fe1 1_555 1_555
H12 C17 1_555 1_555
C18 N1 1_555 1_555
H13 C18 1_555 1_555
C19 C18 1_555 1_555
H14 C19 1_555 1_555
C20 C19 1_555 1_555
H15 C20 1_555 1_555
C21 C20 1_555 1_555
C22 C21 1_555 1_555
H16 C22 1_555 1_555
C23 N1 1_555 1_555
Pb1D O2 1_555 1_555
Fe1D C1D 1_555 1_555
Cl1D C14D 1_555 1_555
O1D Pb1D 1_555 1_555
O1A Pb1 1_555 1_555
O2D Pb1 1_555 1_555
O2E Pb1 1_555 1_555
N1A Pb1 1_555 1_555
C1D H1D 1_555 1_555
C2D Fe1D 1_555 1_555
H2D C2D 1_555 1_555
C3D Fe1D 1_555 1_555
H3D C3D 1_555 1_555
C4D Fe1D 1_555 1_555
H4D C4D 1_555 1_555
C5D Fe1D 1_555 1_555
H5D C5D 1_555 1_555
C6D Fe1D 1_555 1_555
H6D C6D 1_555 1_555
C7D Fe1D 1_555 1_555
H7D C7D 1_555 1_555
C8D Fe1D 1_555 1_555
H8D C8D 1_555 1_555
C9D Fe1D 1_555 1_555
C10D C9D 1_555 1_555
C11D C10D 1_555 1_555
H9D C11D 1_555 1_555
C12D C10D 1_555 1_555
H10D C12D 1_555 1_555
C13D C12D 1_555 1_555
H11D C13D 1_555 1_555
C14D C11D 1_555 1_555
C15D C13D 1_555 1_555
C16D O1D 1_555 1_555
C17D Fe1D 1_555 1_555
H12D C17D 1_555 1_555
C18A N1A 1_555 1_555
H13A C18A 1_555 1_555
C19A C18A 1_555 1_555
H14A C19A 1_555 1_555
C20A C19A 1_555 1_555
H15A C20A 1_555 1_555
C21A C20A 1_555 1_555
C22A C22 1_555 1_555
H16A C22A 1_555 1_555
C23A C23 1_555 1_555
C1 C2 1_555 1_555
C1 C4 1_555 1_555
C2 C17 1_555 1_555
C3 C4 1_555 1_555
C3 C17 1_555 1_555
C5 C6 1_555 1_555
C5 C9 1_555 1_555
C6 C7 1_555 1_555
C7 C8 1_555 1_555
C8 C9 1_555 1_555
C14 C15 1_555 1_555
C21 C23 1_555 1_555
O2D C16D 1_555 1_555
N1A C23A 1_555 1_555
C1D C2D 1_555 1_555
C1D C4D 1_555 1_555
C2D C17D 1_555 1_555
C3D C4D 1_555 1_555
C3D C17D 1_555 1_555
C5D C6D 1_555 1_555
C5D C9D 1_555 1_555
C6D C7D 1_555 1_555
C7D C8D 1_555 1_555
C8D C9D 1_555 1_555
C14D C15D 1_555 1_555
C15D C16D 1_555 1_555
C21A C22A 1_555 1_555
C21A C23A 1_555 1_555

#END
