
#######################################################################
#
#                 Cambridge Crystallographic Data Centre
#                                CCDC 
#
#######################################################################
#
# If this CIF has been generated from an entry in the Cambridge 
# Structural Database, then it will include bibliographic, chemical, 
# crystal, experimental, refinement or atomic coordinate data resulting 
# from the CCDC's data processing and validation procedures.
#
#######################################################################

data_MUPRUL
_symmetry_cell_setting           orthorhombic
_symmetry_space_group_name_H-M   'P 21 21 21'
_symmetry_Int_Tables_number      19
_space_group_name_Hall           'P 2ac 2ab'
loop_
_symmetry_equiv_pos_site_id
_symmetry_equiv_pos_as_xyz
1 x,y,z
2 1/2-x,-y,1/2+z
3 1/2+x,1/2-y,-z
4 -x,1/2+y,1/2-z
_cell_length_a                   34.5029(7)
_cell_length_b                   8.0796(2)
_cell_length_c                   7.9535(2)
_cell_angle_alpha                90
_cell_angle_beta                 90
_cell_angle_gamma                90
_cell_volume                     2217.19
loop_
_atom_site_label
_atom_site_type_symbol
_atom_site_fract_x
_atom_site_fract_y
_atom_site_fract_z
Mn1 Mn 0.223870(12) 0.24881(5) 0.45953(6)
O1 O 0.46080(6) 0.1738(2) 0.3497(3)
O2 O 0.22921(7) 0.4416(3) 0.6359(4)
H1 H 0.2146(7) 0.518(3) 0.639(5)
H2 H 0.2495(6) 0.475(4) 0.679(5)
C1 C 0.42731(8) 0.1200(4) 0.3232(4)
Mn2 Mn 0.471730(12) 0.37442(6) 0.52422(6)
O3 O 0.41876(6) 0.0031(3) 0.2282(3)
O4 O 0.46812(7) 0.5438(3) 0.3116(3)
H3 H 0.4769(10) 0.632(3) 0.341(5)
H4 H 0.4831(9) 0.502(4) 0.246(4)
C2 C 0.39372(8) 0.2088(4) 0.4121(4)
H5 H 0.3775 0.1274 0.4704
O5 O 0.40984(6) 0.3200(3) 0.5311(3)
H6 H 0.3918(7) 0.362(4) 0.577(4)
C3 C 0.36881(8) 0.3053(4) 0.2834(4)
H9 H 0.3562 0.3970 0.3428
O7 O 0.39267(7) 0.3737(3) 0.1559(3)
H10 H 0.4011(10) 0.452(3) 0.202(5)
C4 C 0.33736(8) 0.2002(4) 0.2039(4)
H13 H 0.3495 0.1046 0.1491
O9 O 0.31761(7) 0.2955(3) 0.0802(3)
H14 H 0.3202(10) 0.256(4) -0.009(3)
C5 C 0.30719(8) 0.1375(4) 0.3318(4)
H17 H 0.3203 0.0664 0.4138
O11 O 0.28832(6) 0.2694(3) 0.4197(3)
H18 H 0.3015(9) 0.329(4) 0.458(4)
C6 C 0.27582(9) 0.0367(4) 0.2430(4)
O13 O 0.24081(6) 0.0684(3) 0.2768(3)
C7 C 0.17135(8) 0.4578(4) 0.2420(4)
O14 O 0.28737(6) -0.0725(3) 0.1462(3)
C8 C 0.14051(8) 0.3597(4) 0.3361(4)
H21 H 0.1233 0.4359 0.3960
O15 O 0.20601(6) 0.4270(3) 0.2714(3)
C9 C 0.11668(7) 0.2534(4) 0.2123(3)
H22 H 0.1033 0.3282 0.1346
O16 O 0.15967(6) 0.5657(3) 0.1393(3)
C10 C 0.08605(8) 0.1474(4) 0.3007(4)
H23 H 0.0995 0.0665 0.3718
O17 O 0.15969(5) 0.2547(3) 0.4541(3)
H24 H 0.1490(8) 0.250(4) 0.541(3)
C11 C 0.05667(7) 0.2414(4) 0.4107(4)
H25 H 0.0705 0.3139 0.4890
O18 O 0.14238(6) 0.1534(3) 0.1173(3)
H26 H 0.1485(9) 0.086(3) 0.187(3)
C12 C 0.02929(8) 0.3454(3) 0.3014(4)
O19 O 0.06569(6) 0.0595(3) 0.1729(3)
H27 H 0.0514(8) 0.001(4) 0.218(4)
O20 O 0.03414(5) 0.1255(3) 0.5026(2)
H28 H 0.0484(8) 0.089(4) 0.575(3)
O21 O -0.00602(5) 0.3089(2) 0.2984(3)
O22 O 0.04492(6) 0.4604(3) 0.2203(3)
Mn1A Mn 0.276130(12) -0.24881(5) -0.04047(6)
Mn2A Mn 0.028270(12) 0.62558(6) 0.02422(6)
Mn2B Mn -0.028270(12) 0.12558(6) 0.47578(6)
O14A O 0.21263(6) 0.0725(3) 0.6462(3)
O20B O 0.53414(5) 0.3745(3) 0.4974(2)
O21B O 0.49398(5) 0.1911(2) 0.7016(3)
O22A O 0.45508(6) 0.5396(3) 0.7203(3)
O6 O 0.00263(9) 0.1581(4) -0.0571(3)
H7 H 0.0214(7) 0.128(5) 0.009(4)
H8 H -0.0130(8) 0.199(5) 0.010(4)
O8 O 0.12709(8) 0.2684(3) 0.7598(3)
H11 H 0.1434(8) 0.277(4) 0.835(4)
H12 H 0.1155(9) 0.184(3) 0.778(5)
O10 O 0.17683(7) -0.1222(3) 0.2825(3)
H15 H 0.1986(6) -0.082(4) 0.269(5)
H16 H 0.1735(10) -0.188(4) 0.207(4)
O12 O 0.0703(3) 0.7573(12) 0.4086(10)
H19 H 0.083(3) 0.744(17) 0.497(7)
H20 H 0.086(3) 0.721(17) 0.337(9)
loop_
_geom_bond_atom_site_label_1
_geom_bond_atom_site_label_2
_geom_bond_site_symmetry_1
_geom_bond_site_symmetry_2
Mn1 O2 1_555 1_555
O1 C1 1_555 1_555
O2 H1 1_555 1_555
H2 O2 1_555 1_555
C1 O3 1_555 1_555
Mn2 O1 1_555 1_555
O4 Mn2 1_555 1_555
H3 O4 1_555 1_555
H4 O4 1_555 1_555
C2 C1 1_555 1_555
H5 C2 1_555 1_555
O5 Mn2 1_555 1_555
H6 O5 1_555 1_555
O6 H7 1_555 1_555
H8 O6 1_555 1_555
C3 C2 1_555 1_555
H9 C3 1_555 1_555
O7 C3 1_555 1_555
H10 O7 1_555 1_555
O8 H11 1_555 1_555
H12 O8 1_555 1_555
C4 C3 1_555 1_555
H13 C4 1_555 1_555
O9 C4 1_555 1_555
H14 O9 1_555 1_555
O10 H15 1_555 1_555
H16 O10 1_555 1_555
C5 C4 1_555 1_555
H17 C5 1_555 1_555
O11 Mn1 1_555 1_555
H18 O11 1_555 1_555
O12 H19 1_555 1_555
H20 O12 1_555 1_555
C6 C5 1_555 1_555
O13 Mn1 1_555 1_555
C7 C8 1_555 1_555
O14 C6 1_555 1_555
C8 H21 1_555 1_555
O15 Mn1 1_555 1_555
C9 C8 1_555 1_555
H22 C9 1_555 1_555
O16 C7 1_555 1_555
C10 C9 1_555 1_555
H23 C10 1_555 1_555
O17 Mn1 1_555 1_555
H24 O17 1_555 1_555
C11 C10 1_555 1_555
H25 C11 1_555 1_555
O18 C9 1_555 1_555
H26 O18 1_555 1_555
C12 C11 1_555 1_555
O19 C10 1_555 1_555
H27 O19 1_555 1_555
O20 C11 1_555 1_555
H28 O20 1_555 1_555
O21 C12 1_555 1_555
O22 C12 1_555 1_555
Mn1A O14 1_555 1_555
Mn2A O22 1_555 1_555
Mn2B O20 1_555 1_555
O14A Mn1 1_555 1_555
O20B Mn2 1_555 1_555
O21B Mn2 1_555 1_555
O22A Mn2 1_555 1_555
C2 O5 1_555 1_555
C5 O11 1_555 1_555
C6 O13 1_555 1_555
C7 O15 1_555 1_555
C8 O17 1_555 1_555
O21 Mn2B 1_555 1_555

#END
