
#######################################################################
#
#                 Cambridge Crystallographic Data Centre
#                                CCDC 
#
#######################################################################
#
# If this CIF has been generated from an entry in the Cambridge 
# Structural Database, then it will include bibliographic, chemical, 
# crystal, experimental, refinement or atomic coordinate data resulting 
# from the CCDC's data processing and validation procedures.
#
#######################################################################

data_MUPSOG
_symmetry_cell_setting           monoclinic
_symmetry_space_group_name_H-M   'P 21/c'
_symmetry_Int_Tables_number      14
_space_group_name_Hall           '-P 2ybc'
loop_
_symmetry_equiv_pos_site_id
_symmetry_equiv_pos_as_xyz
1 x,y,z
2 -x,1/2+y,1/2-z
3 -x,-y,-z
4 x,1/2-y,1/2+z
_cell_length_a                   10.4310(4)
_cell_length_b                   10.1097(4)
_cell_length_c                   19.6781(7)
_cell_angle_alpha                90
_cell_angle_beta                 103.105(2)
_cell_angle_gamma                90
_cell_volume                     2021.1
loop_
_atom_site_label
_atom_site_type_symbol
_atom_site_fract_x
_atom_site_fract_y
_atom_site_fract_z
C1 C -0.0385(5) -0.9886(6) 0.2540(3)
H1 H -0.1225 -0.9917 0.2626
C2 C 0.1627(5) -1.0387(5) 0.2552(2)
C3 C 0.1285(5) -0.9260(5) 0.2147(3)
C4 C 0.1986(5) -0.8427(5) 0.1743(3)
C5 C 0.2846(5) -1.1192(5) 0.2789(2)
C6 C 0.5039(6) -1.0750(5) -0.0072(3)
C7 C 0.1301(6) -0.4713(6) -0.0470(3)
H2 H 0.1023 -0.5390 -0.0790
C8 C 0.2056(5) -0.3688(5) 0.0490(3)
C9 C 0.1769(5) -0.2760(5) -0.0041(3)
C10 C 0.2614(6) -0.3621(5) 0.1247(3)
C11 C 0.1894(5) -0.1303(5) -0.0096(3)
Eu1 Eu 0.42007(3) -1.06851(3) 0.142730(12)
N1 N 0.0003(4) -0.8954(4) 0.2148(2)
N2 N 0.0552(4) -1.0766(4) 0.2793(2)
N3 N 0.1752(5) -0.4919(4) 0.0207(2)
N4 N 0.1286(5) -0.3440(4) -0.0649(2)
O1 O 0.1426(4) -0.7349(4) 0.15124(19)
O2 O 0.3063(4) -0.8774(4) 0.16248(19)
O3 O 0.3911(4) -1.0847(4) 0.26360(18)
O4 O 0.2747(4) -1.2183(4) 0.31616(18)
O5 O 0.4963(4) -1.1523(4) 0.0412(2)
O6 O 0.4819(4) -0.8952(4) 0.06700(19)
O7 O 0.2732(4) -0.4711(4) 0.15704(18)
O8 O 0.2934(5) -0.2533(4) 0.1539(2)
O9 O 0.2342(4) -0.0609(4) 0.0450(2)
O10 O 0.1562(5) -0.0839(4) -0.0697(2)
O11 O 0.5978(4) -0.9437(4) 0.2082(2)
H3 H 0.6323 -0.9577 0.2493
H4 H 0.6290 -0.8725 0.2002
O12 O 0.5794(6) -1.2399(5) 0.1911(3)
H5 H 0.6408 -1.2488 0.1719
H6 H 0.5190 -1.2808 0.1658
O13 O 0.1956(5) -0.7890(4) 0.0134(2)
H7 H 0.2071 -0.8683 0.0211
H8 H 0.1662 -0.7853 -0.0289
O14 O 0.4346(4) -0.6480(4) 0.1033(2)
H9 H 0.4749 -0.6373 0.1438
H10 H 0.4648 -0.7172 0.0917
Zn1 Zn 0.23493(7) -0.64134(6) 0.08644(3)
Zn2 Zn 0.08524(6) -0.25827(6) -0.15811(3)
C1B C 0.0385(5) -0.0114(6) -0.2540(3)
H1B H 0.1225 -0.0083 -0.2626
C2B C -0.1627(5) 0.0387(5) -0.2552(2)
C3B C -0.1285(5) -0.0740(5) -0.2147(3)
C4B C -0.1986(5) -0.1573(5) -0.1743(3)
C5B C -0.2846(5) 0.1192(5) -0.2789(2)
C6B C 0.4961(6) -0.9250(5) 0.0072(3)
C7B C -0.1301(6) -0.5287(6) 0.0470(3)
H2B H -0.1023 -0.4610 0.0790
C8B C -0.2056(5) -0.6312(5) -0.0490(3)
C9B C -0.1769(5) -0.7240(5) 0.0041(3)
C10B C -0.2614(6) -0.6379(5) -0.1247(3)
C11B C -0.1894(5) -0.8697(5) 0.0096(3)
Eu1_2 Eu 0.42007(3) -0.06851(3) 0.142730(12)
Eu1B Eu -0.42007(3) 0.06851(3) -0.142730(12)
Eu1B_2 Eu -0.42007(3) -0.93149(3) -0.142730(12)
Eu1B_3 Eu 0.57993(3) -0.93149(3) -0.142730(12)
N1B N -0.0003(4) -0.1046(4) -0.2148(2)
N2C N 0.0552(4) -0.4234(4) -0.2207(2)
N2A N -0.0552(4) -0.5766(4) 0.2207(2)
N2B N -0.0552(4) 0.0766(4) -0.2793(2)
N3B N -0.1752(5) -0.5081(4) -0.0207(2)
N4B N -0.1286(5) -0.6560(4) 0.0649(2)
O1B O -0.1426(4) -0.2651(4) -0.15124(19)
O2B O -0.3063(4) -0.1226(4) -0.16248(19)
O3B O -0.3911(4) 0.0847(4) -0.26360(18)
O4C O 0.2747(4) -0.2817(4) -0.18384(18)
O4A O -0.2747(4) -0.7183(4) 0.18384(18)
O4B O -0.2747(4) 0.2183(4) -0.31616(18)
O5B O -0.4963(4) 0.1523(4) -0.0412(2)
O5B_2 O 0.5037(4) -0.8477(4) -0.0412(2)
O6B O -0.4819(4) -0.1048(4) -0.06700(19)
O6B_2 O 0.5181(4) -1.1048(4) -0.06700(19)
O7B O -0.2732(4) -0.5289(4) -0.15704(18)
O8B O -0.2934(5) 0.2533(4) -0.1539(2)
O8_2 O 0.2934(5) -1.2533(4) 0.1539(2)
O8B_2 O -0.2934(5) -0.7467(4) -0.1539(2)
O9B O -0.2342(4) 0.0609(4) -0.0450(2)
O9_2 O 0.2342(4) -1.0609(4) 0.0450(2)
O9B_2 O -0.2342(4) -0.9391(4) -0.0450(2)
O10B O -0.1562(5) -0.9161(4) 0.0697(2)
O11B O -0.5978(4) -0.0563(4) -0.2082(2)
H3B H -0.6323 -0.0423 -0.2493
H4B H -0.6290 -0.1275 -0.2002
O12B O -0.5794(6) 0.2399(5) -0.1911(3)
H5B H -0.6408 0.2488 -0.1719
H6B H -0.5190 0.2808 -0.1658
O13B O -0.1956(5) -0.2110(4) -0.0134(2)
H7B H -0.2071 -0.1317 -0.0211
H8B H -0.1662 -0.2147 0.0289
O14B O -0.4346(4) -0.3520(4) -0.1033(2)
H9B H -0.4749 -0.3627 -0.1438
H10B H -0.4648 -0.2828 -0.0917
Zn1B Zn -0.23493(7) -0.35866(6) -0.08644(3)
Zn2B Zn -0.08524(6) -0.74173(6) 0.15811(3)
Zn2C Zn 0.08524(6) -1.24173(6) 0.34189(3)
Zn2A Zn -0.08524(6) 0.24173(6) -0.34189(3)
O15 O 0.5921(10) 0.5853(7) 0.0813(5)
H11 H 0.5559 0.5657 0.0283
H12 H 0.5658 0.6473 0.0534
O16 O 0.826(2) 0.798(3) 0.1308(7)
H13 H 0.9292 0.7404 0.1358
H14? H 0.8771 0.8594 0.1048
O17? O 0.9738(12) 0.8333(11) 0.1078(5)
loop_
_geom_bond_atom_site_label_1
_geom_bond_atom_site_label_2
_geom_bond_site_symmetry_1
_geom_bond_site_symmetry_2
C1 H1 1_555 1_555
C2 C3 1_555 1_555
C3 C4 1_555 1_555
C4 O1 1_555 1_555
C5 C2 1_555 1_555
C6 O5 1_555 1_555
C7 H2 1_555 1_555
C8 C9 1_555 1_555
C9 C11 1_555 1_555
C10 C8 1_555 1_555
C11 O9 1_555 1_555
Eu1 O2 1_555 1_555
N1 C1 1_555 1_555
N2 C1 1_555 1_555
N3 C7 1_555 1_555
N4 C7 1_555 1_555
O1 Zn1 1_555 1_555
O2 C4 1_555 1_555
O3 C5 1_555 1_555
O4 C5 1_555 1_555
O5 Eu1 1_555 1_555
O6 Eu1 1_555 1_555
O7 C10 1_555 1_555
O8 C10 1_555 1_555
O9 Eu1_2 1_555 1_555
O10 C11 1_555 1_555
O11 Eu1 1_555 1_555
H3 O11 1_555 1_555
H4 O11 1_555 1_555
O12 Eu1 1_555 1_555
H5 O12 1_555 1_555
H6 O12 1_555 1_555
O13 H7 1_555 1_555
H8 O13 1_555 1_555
O14 H9 1_555 1_555
H10 O14 1_555 1_555
O15 H11 1_555 1_555
H12 O15 1_555 1_555
Zn1 N3 1_555 1_555
Zn2 N4 1_555 1_555
O16 H13 1_555 1_555
C1B H1B 1_555 1_555
C2B C3B 1_555 1_555
C3B C4B 1_555 1_555
C4B O1B 1_555 1_555
C5B C2B 1_555 1_555
C6B C6 1_555 1_555
C7B H2B 1_555 1_555
C8B C9B 1_555 1_555
C9B C11B 1_555 1_555
C10B C8B 1_555 1_555
C11B O9B_2 1_555 1_555
Eu1_2 O8 1_555 1_555
Eu1B O2B 1_555 1_555
Eu1B_2 O8B_2 1_555 1_555
Eu1B_3 O5B_2 1_555 1_555
N1B Zn2 1_555 1_555
N2C Zn2 1_555 1_555
N2A Zn2B 1_555 1_555
N2B C1B 1_555 1_555
N3B C7B 1_555 1_555
N4B C7B 1_555 1_555
O1B Zn2 1_555 1_555
O2B C4B 1_555 1_555
O3B C5B 1_555 1_555
O4C Zn2 1_555 1_555
O4A Zn2B 1_555 1_555
O4B C5B 1_555 1_555
O5B Eu1B 1_555 1_555
O5B_2 C6B 1_555 1_555
O6B Eu1B 1_555 1_555
O6B_2 C6 1_555 1_555
O7B C10B 1_555 1_555
O8B Eu1B 1_555 1_555
O8_2 Eu1 1_555 1_555
O8B_2 C10B 1_555 1_555
O9B Eu1B 1_555 1_555
O9_2 Eu1 1_555 1_555
O9B_2 Eu1B_2 1_555 1_555
O10B C11B 1_555 1_555
O11B Eu1B 1_555 1_555
H3B O11B 1_555 1_555
H4B O11B 1_555 1_555
O12B Eu1B 1_555 1_555
H5B O12B 1_555 1_555
H6B O12B 1_555 1_555
O13B H7B 1_555 1_555
H8B O13B 1_555 1_555
O14B H9B 1_555 1_555
H10B O14B 1_555 1_555
Zn1B N3B 1_555 1_555
Zn2B N1 1_555 1_555
Zn2C N2 1_555 1_555
Zn2A N2B 1_555 1_555
C2 N2 1_555 1_555
C3 N1 1_555 1_555
C8 N3 1_555 1_555
C9 N4 1_555 1_555
Eu1 O3 1_555 1_555
O1 Zn2B 1_555 1_555
O4 Zn2C 1_555 1_555
O6 C6B 1_555 1_555
O7 Zn1 1_555 1_555
O10 Zn2 1_555 1_555
O13 Zn1 1_555 1_555
O14 Zn1 1_555 1_555
C1B N1B 1_555 1_555
C2B N2B 1_555 1_555
C3B N1B 1_555 1_555
C8B N3B 1_555 1_555
C9B N4B 1_555 1_555
Eu1B O3B 1_555 1_555
Eu1B_3 O6B_2 1_555 1_555
N4B Zn2B 1_555 1_555
O1B Zn1B 1_555 1_555
O4B Zn2A 1_555 1_555
O7B Zn1B 1_555 1_555
O10B Zn2B 1_555 1_555
O13B Zn1B 1_555 1_555
O14B Zn1B 1_555 1_555

#END
