
#######################################################################
#
#                 Cambridge Crystallographic Data Centre
#                                CCDC 
#
#######################################################################
#
# If this CIF has been generated from an entry in the Cambridge 
# Structural Database, then it will include bibliographic, chemical, 
# crystal, experimental, refinement or atomic coordinate data resulting 
# from the CCDC's data processing and validation procedures.
#
#######################################################################

data_MUPYEC
_symmetry_cell_setting           triclinic
_symmetry_space_group_name_H-M   'P -1'
_symmetry_Int_Tables_number      2
_space_group_name_Hall           '-P 1'
loop_
_symmetry_equiv_pos_site_id
_symmetry_equiv_pos_as_xyz
1 x,y,z
2 -x,-y,-z
_cell_length_a                   5.1572(8)
_cell_length_b                   7.8010(11)
_cell_length_c                   15.051(2)
_cell_angle_alpha                88.404(3)
_cell_angle_beta                 87.843(2)
_cell_angle_gamma                85.791(3)
_cell_volume                     603.269
loop_
_atom_site_label
_atom_site_type_symbol
_atom_site_fract_x
_atom_site_fract_y
_atom_site_fract_z
Zn1 Zn -0.5000 1.5000 1.0000
Zn2 Zn 0.18502(10) 1.09916(6) 0.73523(3)
Zn3 Zn 0.5000 1.0000 0.5000
S1 S 0.0313(2) 1.32803(13) 0.89655(7)
S2 S 0.0012(2) 0.85029(14) 0.62516(7)
C1 C 0.5711(9) 0.9793(6) 0.8665(3)
H1 H 0.6610 1.0774 0.8565
C2 C 0.3045(9) 0.7878(6) 0.8581(3)
H2 H 0.1673 0.7277 0.8400
C3 C 0.3072(10) 0.6609(6) 0.4316(3)
H3 H 0.1996 0.6492 0.4820
C4 C 0.4969(10) 0.6146(6) 0.3061(3)
H4 H 0.5476 0.5663 0.2518
N1 N 0.4595(7) 0.7339(5) 0.9221(2)
N2 N 0.6268(7) 0.8604(5) 0.9261(3)
H5 H 0.7507 0.8614 0.9627
N3 N 0.3668(7) 0.9402(5) 0.8218(2)
N4 N 0.4618(7) 0.7825(5) 0.4181(2)
N5 N 0.5874(7) 0.7520(5) 0.3374(3)
N6 N 0.3219(8) 0.5541(5) 0.3634(3)
H6 H 0.2360 0.4648 0.3579
O1 O -0.1566(6) 1.4693(4) 0.9193(2)
O2 O 0.2981(6) 1.3832(4) 0.9003(2)
O3 O -0.0001(6) 1.1771(4) 0.9547(2)
O4 O -0.0117(6) 1.2825(4) 0.8034(2)
O5 O -0.0973(6) 0.9835(5) 0.6893(2)
O6 O 0.0045(8) 0.6820(5) 0.6688(3)
O7 O -0.1633(6) 0.8575(5) 0.5481(2)
O8 O 0.2699(6) 0.8885(5) 0.6006(2)
Zn1_2 Zn -1.5000 1.5000 1.0000
Zn1_3 Zn -1.5000 2.5000 1.0000
Zn1_4 Zn 0.5000 0.5000 1.0000
Zn1_5 Zn 0.5000 1.5000 1.0000
Zn2A Zn -1.18502(10) 1.90084(6) 1.26477(3)
Zn2A_2 Zn 0.81498(10) 0.90084(6) 0.26477(3)
Zn3_2 Zn -1.5000 2.0000 1.5000
Zn3_3 Zn -0.5000 1.0000 0.5000
Zn3_4 Zn -0.5000 2.0000 1.5000
S1A S -1.0313(2) 1.67197(13) 1.10345(7)
S2A S -1.0012(2) 2.14971(14) 1.37484(7)
C1A C -1.5711(9) 2.0207(6) 1.1335(3)
H1A H -1.6610 1.9226 1.1435
C2A C -1.3045(9) 2.2122(6) 1.1419(3)
H2A H -1.1673 2.2723 1.1600
C3A C 0.6928(10) 1.3391(6) 0.5684(3)
H3A H 0.8004 1.3508 0.5180
C4A C 0.5031(10) 1.3854(6) 0.6939(3)
H4A H 0.4524 1.4337 0.7482
N1A N -1.4595(7) 2.2661(5) 1.0779(2)
N1_2 N -0.5405(7) 1.7339(5) 0.9221(2)
N1A_2 N -0.4595(7) 1.2661(5) 1.0779(2)
N2A N -1.6268(7) 2.1396(5) 1.0739(3)
H5A H -1.7507 2.1386 1.0373
N3A N -1.3668(7) 2.0598(5) 1.1782(2)
N4A N 0.5382(7) 1.2175(5) 0.5819(2)
N5A N 0.4126(7) 1.2480(5) 0.6626(3)
N5_2 N -1.4126(7) 1.7520(5) 1.3374(3)
N6A N 0.6781(8) 1.4459(5) 0.6366(3)
H6A H 0.7640 1.5352 0.6421
O1A O -0.8434(6) 1.5307(4) 1.0807(2)
O2A O -1.2981(6) 1.6168(4) 1.0997(2)
O2_2 O -0.7019(6) 1.3832(4) 0.9003(2)
O2A_2 O -0.2981(6) 1.6168(4) 1.0997(2)
O3A O -0.9999(6) 1.8229(4) 1.0453(2)
O4A O -0.9883(6) 1.7175(4) 1.1966(2)
O5A O -0.9027(6) 2.0165(5) 1.3107(2)
O6A O -1.0045(8) 2.3180(5) 1.3312(3)
O7A O -0.8367(6) 2.1425(5) 1.4519(2)
O7_2 O 0.8367(6) 0.8575(5) 0.5481(2)
O7A_2 O 0.1633(6) 1.1425(5) 0.4519(2)
O8A O -1.2699(6) 2.1115(5) 1.3994(2)
O8A_2 O 0.7301(6) 1.1115(5) 0.3994(2)
loop_
_geom_bond_atom_site_label_1
_geom_bond_atom_site_label_2
_geom_bond_site_symmetry_1
_geom_bond_site_symmetry_2
Zn1 O1 1_555 1_555
Zn2 N3 1_555 1_555
Zn3 N4 1_555 1_555
S1 O1 1_555 1_555
S2 O5 1_555 1_555
C1 H1 1_555 1_555
C2 H2 1_555 1_555
C3 H3 1_555 1_555
C4 H4 1_555 1_555
N1 C2 1_555 1_555
N2 C1 1_555 1_555
H5 N2 1_555 1_555
N3 C1 1_555 1_555
N4 C3 1_555 1_555
N5 C4 1_555 1_555
N6 C3 1_555 1_555
H6 N6 1_555 1_555
O2 S1 1_555 1_555
O3 S1 1_555 1_555
O4 Zn2 1_555 1_555
O5 Zn2 1_555 1_555
O6 S2 1_555 1_555
O7 S2 1_555 1_555
O8 Zn3 1_555 1_555
Zn1_2 O2A 1_555 1_555
Zn1_3 N1A 1_555 1_555
Zn1_4 N1 1_555 1_555
Zn1_5 O2 1_555 1_555
Zn2A N3A 1_555 1_555
Zn2A_2 N5 1_555 1_555
Zn3_2 O8A 1_555 1_555
Zn3_3 O7 1_555 1_555
Zn3_4 O7A 1_555 1_555
S1A O1A 1_555 1_555
S2A O5A 1_555 1_555
C1A H1A 1_555 1_555
C2A H2A 1_555 1_555
C3A H3A 1_555 1_555
C4A H4A 1_555 1_555
N1A C2A 1_555 1_555
N1_2 Zn1 1_555 1_555
N1A_2 Zn1 1_555 1_555
N2A C1A 1_555 1_555
H5A N2A 1_555 1_555
N3A C1A 1_555 1_555
N4A Zn3 1_555 1_555
N5A Zn2 1_555 1_555
N5_2 Zn2A 1_555 1_555
N6A C3A 1_555 1_555
H6A N6A 1_555 1_555
O1A Zn1 1_555 1_555
O2A S1A 1_555 1_555
O2_2 Zn1 1_555 1_555
O2A_2 Zn1 1_555 1_555
O3A S1A 1_555 1_555
O4A Zn2A 1_555 1_555
O5A Zn2A 1_555 1_555
O6A S2A 1_555 1_555
O7A S2A 1_555 1_555
O7_2 Zn3 1_555 1_555
O7A_2 Zn3 1_555 1_555
O8A S2A 1_555 1_555
O8A_2 Zn3 1_555 1_555
S1 O4 1_555 1_555
S2 O8 1_555 1_555
C2 N3 1_555 1_555
C4 N6 1_555 1_555
N1 N2 1_555 1_555
N4 N5 1_555 1_555
S1A O4A 1_555 1_555
C2A N3A 1_555 1_555
C3A N4A 1_555 1_555
C4A N5A 1_555 1_555
C4A N6A 1_555 1_555
N1A N2A 1_555 1_555
N4A N5A 1_555 1_555

#END
