
#######################################################################
#
#                 Cambridge Crystallographic Data Centre
#                                CCDC 
#
#######################################################################
#
# If this CIF has been generated from an entry in the Cambridge 
# Structural Database, then it will include bibliographic, chemical, 
# crystal, experimental, refinement or atomic coordinate data resulting 
# from the CCDC's data processing and validation procedures.
#
#######################################################################

data_MUPYAY
_symmetry_cell_setting           triclinic
_symmetry_space_group_name_H-M   'P -1'
_symmetry_Int_Tables_number      2
_space_group_name_Hall           '-P 1'
loop_
_symmetry_equiv_pos_site_id
_symmetry_equiv_pos_as_xyz
1 x,y,z
2 -x,-y,-z
_cell_length_a                   8.0316(12)
_cell_length_b                   9.0376(13)
_cell_length_c                   9.7530(15)
_cell_angle_alpha                77.170(3)
_cell_angle_beta                 68.834(2)
_cell_angle_gamma                66.673(2)
_cell_volume                     603.623
loop_
_atom_site_label
_atom_site_type_symbol
_atom_site_fract_x
_atom_site_fract_y
_atom_site_fract_z
Zn1 Zn 0.17392(5) 0.98919(4) 0.08238(4)
Zn2 Zn 0.60086(5) 0.63255(4) 0.52802(4)
C1 C 0.2005(4) 0.8334(4) -0.2863(3)
H1 H 0.1447 0.8286 -0.3530
C2 C 0.4003(4) 0.8006(4) -0.1820(3)
H2 H 0.5138 0.7676 -0.1599
C3 C 0.2882(4) 0.6692(4) 0.2607(3)
H3 H 0.2305 0.6253 0.2211
C4 C 0.3885(4) 0.8298(3) 0.3047(3)
H4 H 0.4159 0.9211 0.3030
N1 N 0.3872(3) 0.7631(3) -0.3021(3)
N2 N 0.1057(3) 0.9093(3) -0.1669(3)
N3 N 0.2362(4) 0.8886(3) -0.0993(3)
N4 N 0.2956(4) 0.8196(3) 0.2205(3)
N5 N 0.3713(4) 0.5923(3) 0.3616(3)
N6 N 0.4371(3) 0.6964(3) 0.3902(3)
N7 N 0.2297(4) 1.2789(4) -0.0067(4)
N8 N 0.8205(4) 0.7901(3) 0.5173(3)
O1 O 0.2837(4) 1.1532(3) 0.0797(3)
O2 O 0.1431(4) 1.2716(4) -0.0852(3)
O3 O 0.2682(5) 1.3969(4) -0.0096(4)
O4 O 0.8196(3) 0.6566(3) 0.5965(3)
O5 O 0.7069(4) 0.8459(3) 0.4429(3)
O6 O 0.9248(4) 0.8570(3) 0.5168(3)
O7 O 0.8314(3) 0.5093(3) 0.3449(2)
H5 H 0.8463 0.5699 0.2646
H6 H 0.9376 0.4336 0.3412
Zn1A Zn -0.17392(5) 1.01081(4) -0.08238(4)
Zn2A Zn -0.60086(5) 1.36745(4) -0.52802(4)
Zn2_2 Zn -0.39914(5) 1.63255(4) -0.47198(4)
Zn2_3 Zn 0.60086(5) 0.63255(4) -0.47198(4)
Zn2A_2 Zn -0.60086(5) 1.36745(4) 0.47198(4)
Zn2A_3 Zn 0.39914(5) 0.36745(4) 0.47198(4)
C1A C -0.2005(4) 1.1666(4) 0.2863(3)
H1A H -0.1447 1.1714 0.3530
C2A C -0.4003(4) 1.1994(4) 0.1820(3)
H2A H -0.5138 1.2324 0.1599
C3A C -0.2882(4) 1.3308(4) -0.2607(3)
H3A H -0.2305 1.3747 -0.2211
C4A C -0.3885(4) 1.1702(3) -0.3047(3)
H4A H -0.4159 1.0789 -0.3030
N1A N -0.3872(3) 1.2369(3) 0.3021(3)
N1_2 N 0.3872(3) 0.7631(3) 0.6979(3)
N1A_2 N -0.3872(3) 1.2369(3) -0.6979(3)
N2A N -0.1057(3) 1.0907(3) 0.1669(3)
N3A N -0.2362(4) 1.1114(3) 0.0993(3)
N4A N -0.2956(4) 1.1804(3) -0.2205(3)
N5A N -0.3713(4) 1.4077(3) -0.3616(3)
N5_2 N -0.6287(4) 1.5923(3) -0.6384(3)
N5A_2 N 0.6287(4) 0.4077(3) 0.6384(3)
N6A N -0.4371(3) 1.3036(3) -0.3902(3)
N7A N -0.2297(4) 0.7211(4) 0.0067(4)
N8A N -0.8205(4) 1.2099(3) -0.5173(3)
O1A O -0.2837(4) 0.8468(3) -0.0797(3)
O2A O -0.1431(4) 0.7284(4) 0.0852(3)
O3A O -0.2682(5) 0.6031(4) 0.0096(4)
O4A O -0.8196(3) 1.3434(3) -0.5965(3)
O5A O -0.7069(4) 1.1541(3) -0.4429(3)
O6A O -0.9248(4) 1.1430(3) -0.5168(3)
O7A O -0.8314(3) 1.4907(3) -0.3449(2)
H5A H -0.8463 1.4301 -0.2646
H6A H -0.9376 1.5664 -0.3412
loop_
_geom_bond_atom_site_label_1
_geom_bond_atom_site_label_2
_geom_bond_site_symmetry_1
_geom_bond_site_symmetry_2
Zn1 N3 1_555 1_555
Zn2 N6 1_555 1_555
C1 H1 1_555 1_555
C2 H2 1_555 1_555
C3 H3 1_555 1_555
C4 H4 1_555 1_555
N1 C1 1_555 1_555
N2 C1 1_555 1_555
N3 C2 1_555 1_555
N4 Zn1 1_555 1_555
N5 C3 1_555 1_555
N6 C4 1_555 1_555
N7 O1 1_555 1_555
N8 O4 1_555 1_555
O1 Zn1 1_555 1_555
O2 N7 1_555 1_555
O3 N7 1_555 1_555
O4 Zn2 1_555 1_555
O5 Zn2 1_555 1_555
O6 N8 1_555 1_555
O7 Zn2 1_555 1_555
H5 O7 1_555 1_555
H6 O7 1_555 1_555
Zn1A N2 1_555 1_555
Zn2A N1A_2 1_555 1_555
Zn2_2 N5A 1_555 1_555
Zn2_3 N1 1_555 1_555
Zn2A_2 N1A 1_555 1_555
Zn2A_3 N5 1_555 1_555
C1A H1A 1_555 1_555
C2A H2A 1_555 1_555
C3A H3A 1_555 1_555
C4A H4A 1_555 1_555
N1A C1A 1_555 1_555
N1_2 Zn2 1_555 1_555
N2A Zn1 1_555 1_555
N3A Zn1A 1_555 1_555
N4A Zn1A 1_555 1_555
N5A C3A 1_555 1_555
N5_2 Zn2A 1_555 1_555
N5A_2 Zn2 1_555 1_555
N6A Zn2A 1_555 1_555
N7A O1A 1_555 1_555
N8A O4A 1_555 1_555
O1A Zn1A 1_555 1_555
O2A N7A 1_555 1_555
O3A N7A 1_555 1_555
O4A Zn2A 1_555 1_555
O5A Zn2A 1_555 1_555
O6A N8A 1_555 1_555
O7A Zn2A 1_555 1_555
H5A O7A 1_555 1_555
H6A O7A 1_555 1_555
C2 N1 1_555 1_555
C3 N4 1_555 1_555
C4 N4 1_555 1_555
N2 N3 1_555 1_555
N5 N6 1_555 1_555
N8 O5 1_555 1_555
C1A N2A 1_555 1_555
C2A N1A 1_555 1_555
C2A N3A 1_555 1_555
C3A N4A 1_555 1_555
C4A N4A 1_555 1_555
C4A N6A 1_555 1_555
N2A N3A 1_555 1_555
N5A N6A 1_555 1_555
N8A O5A 1_555 1_555

#END
