
#######################################################################
#
#                 Cambridge Crystallographic Data Centre
#                                CCDC 
#
#######################################################################
#
# If this CIF has been generated from an entry in the Cambridge 
# Structural Database, then it will include bibliographic, chemical, 
# crystal, experimental, refinement or atomic coordinate data resulting 
# from the CCDC's data processing and validation procedures.
#
#######################################################################

data_MUPYIG
_symmetry_cell_setting           triclinic
_symmetry_space_group_name_H-M   'P -1'
_symmetry_Int_Tables_number      2
_space_group_name_Hall           '-P 1'
loop_
_symmetry_equiv_pos_site_id
_symmetry_equiv_pos_as_xyz
1 x,y,z
2 -x,-y,-z
_cell_length_a                   5.5144(10)
_cell_length_b                   8.0021(15)
_cell_length_c                   9.2467(17)
_cell_angle_alpha                78.487(3)
_cell_angle_beta                 72.869(3)
_cell_angle_gamma                87.200(3)
_cell_volume                     382.057
loop_
_atom_site_label
_atom_site_type_symbol
_atom_site_fract_x
_atom_site_fract_y
_atom_site_fract_z
Cd1 Cd 0.0000 1.0000 1.0000
Cd2 Cd 0.5000 0.5000 0.5000
C1 C 0.2900(7) 0.7408(5) 0.7627(4)
H1 H 0.4441 0.7992 0.7322
C2 C 0.0089(8) 0.5677(5) 0.7759(5)
H2 H -0.0788 0.4803 0.7594
N1 N 0.2479(6) 0.6113(4) 0.7003(3)
N2 N 0.0910(6) 0.7766(4) 0.8715(4)
N3 N -0.0865(6) 0.6642(4) 0.8768(4)
H3 H -0.2392 0.6571 0.9374
O1 O 0.2174(5) 0.2770(3) 0.5368(3)
H4 H 0.0570 0.2662 0.5621
H5 H 0.2755 0.1864 0.5795
O2 O 0.3052(4) 0.6918(3) 0.3497(3)
O3 O 0.6653(5) 0.8634(3) 0.1910(3)
O4 O 0.2486(5) 0.9314(3) 0.1639(3)
O5 O 0.4620(5) 0.6818(4) 0.0804(3)
S1 S 0.42056(16) 0.79238(12) 0.19269(10)
Cd1_2 Cd -1.0000 1.0000 1.0000
Cd1_3 Cd 0.0000 1.0000 0.0000
Cd1_4 Cd 1.0000 1.0000 0.0000
Cd2_2 Cd -0.5000 1.5000 0.5000
Cd2_3 Cd -0.5000 1.5000 1.5000
C1A C -0.2900(7) 1.2592(5) 1.2373(4)
H1A H -0.4441 1.2008 1.2678
C2A C -0.0089(8) 1.4323(5) 1.2241(5)
H2A H 0.0788 1.5197 1.2406
N1A N -0.2479(6) 1.3887(4) 1.2997(3)
N1A_2 N 0.7521(6) 0.3887(4) 0.2997(3)
N2A N -0.0910(6) 1.2234(4) 1.1285(4)
N3A N 0.0865(6) 1.3358(4) 1.1232(4)
H3A H 0.2392 1.3429 1.0626
O1A O 0.7826(5) 0.7230(3) 0.4632(3)
H4A H 0.9430 0.7338 0.4379
H5A H 0.7245 0.8136 0.4205
O2A O -0.3052(4) 1.3082(3) 0.6503(3)
O2A_2 O 0.6948(4) 0.3082(3) 0.6503(3)
O3A O -0.6653(5) 1.1366(3) 0.8090(3)
O3_2 O -0.3347(5) 0.8634(3) 1.1910(3)
O3A_2 O 0.3347(5) 1.1366(3) 0.8090(3)
O4A O -0.2486(5) 1.0686(3) 0.8361(3)
O4_2 O 0.2486(5) 0.9314(3) 1.1639(3)
O5A O -0.4620(5) 1.3182(4) 0.9196(3)
S1A S -0.42056(16) 1.20762(12) 0.80731(10)
loop_
_geom_bond_atom_site_label_1
_geom_bond_atom_site_label_2
_geom_bond_site_symmetry_1
_geom_bond_site_symmetry_2
Cd1 N2 1_555 1_555
Cd2 N1 1_555 1_555
C1 H1 1_555 1_555
C2 H2 1_555 1_555
N1 C1 1_555 1_555
N2 C1 1_555 1_555
N3 C2 1_555 1_555
H3 N3 1_555 1_555
O1 Cd2 1_555 1_555
H4 O1 1_555 1_555
H5 O1 1_555 1_555
O2 Cd2 1_555 1_555
O3 S1 1_555 1_555
O4 S1 1_555 1_555
O5 S1 1_555 1_555
S1 O2 1_555 1_555
Cd1_2 O3A 1_555 1_555
Cd1_3 O4 1_555 1_555
Cd1_4 O3 1_555 1_555
Cd2_2 O2A 1_555 1_555
Cd2_3 N1A 1_555 1_555
C1A H1A 1_555 1_555
C2A H2A 1_555 1_555
N1A C1A 1_555 1_555
N1A_2 Cd2 1_555 1_555
N2A Cd1 1_555 1_555
N3A C2A 1_555 1_555
H3A N3A 1_555 1_555
O1A Cd2 1_555 1_555
H4A O1A 1_555 1_555
H5A O1A 1_555 1_555
O2A S1A 1_555 1_555
O2A_2 Cd2 1_555 1_555
O3A S1A 1_555 1_555
O3_2 Cd1 1_555 1_555
O3A_2 Cd1 1_555 1_555
O4A Cd1 1_555 1_555
O4_2 Cd1 1_555 1_555
O5A S1A 1_555 1_555
S1A O4A 1_555 1_555
C2 N1 1_555 1_555
N2 N3 1_555 1_555
C1A N2A 1_555 1_555
C2A N1A 1_555 1_555
N2A N3A 1_555 1_555

#END
