
#######################################################################
#
#                 Cambridge Crystallographic Data Centre
#                                CCDC 
#
#######################################################################
#
# If this CIF has been generated from an entry in the Cambridge 
# Structural Database, then it will include bibliographic, chemical, 
# crystal, experimental, refinement or atomic coordinate data resulting 
# from the CCDC's data processing and validation procedures.
#
#######################################################################

data_MUPZON
_symmetry_cell_setting           monoclinic
_symmetry_space_group_name_H-M   'P 21/m'
_symmetry_Int_Tables_number      11
_space_group_name_Hall           '-P 2yb'
loop_
_symmetry_equiv_pos_site_id
_symmetry_equiv_pos_as_xyz
1 x,y,z
2 -x,1/2+y,-z
3 -x,-y,-z
4 x,1/2-y,z
_cell_length_a                   10.1103(9)
_cell_length_b                   26.854(3)
_cell_length_c                   13.3316(12)
_cell_angle_alpha                90
_cell_angle_beta                 107.234(2)
_cell_angle_gamma                90
_cell_volume                     3457.05
loop_
_atom_site_label
_atom_site_type_symbol
_atom_site_fract_x
_atom_site_fract_y
_atom_site_fract_z
Ni1 Ni -0.03963(11) 0.10166(4) 0.61312(9)
C6 C -0.6361(10) 0.0059(4) 0.6457(7)
H4 H -0.7174 -0.0070 0.6543
C8 C -0.1018(10) 0.0908(4) 1.2382(7)
C9 C -0.0270(9) 0.0567(3) 1.3062(7)
H6 H 0.0149 0.0307 1.2810
C10 C -0.1645(11) 0.1286(4) 1.2785(7)
H7 H -0.2197 0.1524 1.2349
C11 C -0.0121(9) 0.0598(3) 1.4099(7)
H8 H 0.0397 0.0353 1.4537
C12 C -0.1416(11) 0.1295(4) 1.3875(7)
H9 H -0.1807 0.1553 1.4156
C13 C -0.1124(11) 0.0913(4) 1.1242(8)
H10 H -0.1927 0.1107 1.0866
H11 H -0.1259 0.0576 1.0973
C14 C 0.0152(11) 0.1131(4) 1.1034(7)
H12 H 0.0962 0.0947 1.1436
H13 H 0.0261 0.1474 1.1269
C15 C -0.1021(10) 0.1361(3) 0.8089(7)
H14 H -0.1714 0.1542 0.7615
C16 C 0.0783(11) 0.0813(5) 0.8443(8)
H15 H 0.1362 0.0604 0.8207
C17 C -0.0902(11) 0.1379(4) 0.9132(8)
H16 H -0.1502 0.1585 0.9352
C18 C 0.0929(12) 0.0826(5) 0.9499(8)
H17 H 0.1625 0.0641 0.9962
C19 C 0.0060(10) 0.1110(4) 0.9875(7)
C20 C -0.5043(9) 0.0744(4) 0.6172(6)
H18 H -0.4970 0.1083 0.6057
C21 C -0.3948(8) 0.0442(4) 0.6199(6)
C22 C -0.4045(9) -0.0064(4) 0.6371(7)
H19 H -0.3292 -0.0270 0.6413
C23 C -0.2635(9) 0.0646(4) 0.6063(7)
C24 C -0.6261(8) 0.0561(4) 0.6309(7)
C25 C -0.5260(10) -0.0265(4) 0.6483(8)
H20 H -0.5342 -0.0606 0.6572
C26 C -0.7451(10) 0.0899(4) 0.6283(8)
N1 N -0.0670(7) 0.0956(3) 1.4530(5)
N2 N -0.0149(7) 0.1084(3) 0.7740(6)
O3 O -0.2569(6) 0.1109(2) 0.5868(5)
O4 O -0.1601(6) 0.0371(2) 0.6176(5)
O5 O -0.8513(6) 0.0697(2) 0.6415(4)
O6 O -0.7331(7) 0.1355(3) 0.6120(7)
O9 O 0.0217(7) 0.1742(2) 0.6030(5)
H21 H 0.046(13) 0.1789(19) 0.672(2)
H22 H 0.109(4) 0.1656(11) 0.608(11)
Ni1_2 Ni -0.03963(11) 0.10166(4) 1.61312(9)
Ni1_3 Ni -1.03963(11) 0.10166(4) 0.61312(9)
N1_2 N -0.0670(7) 0.0956(3) 0.4530(5)
O5_2 O 0.1487(6) 0.0697(2) 0.6415(4)
Ni2 Ni -0.50070(15) 0.2500 -0.01039(13)
C1 C 0.1921(14) 0.2500 0.1962(12)
H1 H 0.2879 0.2500 0.2249
C2 C 0.1327(13) 0.2500 0.0891(10)
C3 C 0.2224(13) 0.2500 0.0180(12)
C4 C -0.0093(12) 0.2500 0.0490(11)
H2 H -0.0496 0.2500 -0.0234
C5 C -0.0327(13) 0.2500 0.2205(11)
H3 H -0.0896 0.2500 0.2641
C7 C 0.1032(16) 0.2500 0.2639(12)
H5 H 0.1410 0.2500 0.3365
C27 C -0.2486(12) 0.2500 0.0654(12)
C28 C -0.0928(13) 0.2500 0.1139(11)
O1 O 0.3505(8) 0.2500 0.0609(7)
O2 O 0.1667(10) 0.2500 -0.0780(8)
O7 O -0.3241(8) 0.2500 0.1259(7)
O8 O -0.3014(8) 0.2500 -0.0311(7)
O10 O -0.6285(9) 0.2500 -0.1620(7)
H23 H -0.7067(19) 0.2500 -0.143(2)
H24 H -0.689(6) 0.2500 -0.227(2)
N3 N -0.504(4) 0.3262(13) -0.017(2)
C29 C -0.508(2) 0.3558(9) -0.089(2)
H30 H -0.4965 0.3416 -0.1498
C30 C -0.526(3) 0.3521(12) 0.070(3)
H31 H -0.5309 0.3337 0.1283
C31 C -0.541(2) 0.4023(8) 0.0727(18)
H32 H -0.5492 0.4171 0.1337
C32 C -0.527(3) 0.4064(9) -0.093(2)
H33 H -0.5273 0.4240 -0.1533
C33 C -0.544(3) 0.4308(9) -0.0082(18)
C34 C -0.564(3) 0.4851(11) -0.007(2)
H34 H -0.6032 0.4933 0.0490
H35 H -0.6308 0.4949 -0.0729
Ni2A Ni -0.49930(15) 0.7500 0.01039(13)
Ni2_2 Ni 0.49930(15) 0.2500 -0.01039(13)
O1_2 O -0.6495(8) 0.2500 0.0609(7)
N3B N -0.496(4) 0.6738(13) 0.017(2)
N3C N -0.504(4) 0.1738(13) -0.017(2)
C29B C -0.492(2) 0.6442(9) 0.089(2)
H30B H -0.5035 0.6584 0.1498
C30B C -0.474(3) 0.6479(12) -0.070(3)
H31B H -0.4691 0.6663 -0.1283
C31B C -0.459(2) 0.5977(8) -0.0727(18)
H32B H -0.4508 0.5829 -0.1337
C32B C -0.473(3) 0.5936(9) 0.093(2)
H33B H -0.4727 0.5760 0.1533
C33B C -0.456(3) 0.5692(9) 0.0082(18)
C34B C -0.436(3) 0.5149(11) 0.007(2)
H34B H -0.3968 0.5067 -0.0490
H35B H -0.3692 0.5051 0.0729
O11 O -1.0283(10) 0.2500 -0.2689(7)
H25 H -0.990(8) 0.2279(7) -0.219(3)
H25C H -0.990(8) 0.2721(7) -0.219(3)
O12 O -1.2865(15) 0.2500 -0.2397(10)
H26 H -1.282(12) 0.2274(8) -0.189(3)
H26C H -1.282(12) 0.2726(8) -0.189(3)
O13 O -1.3433(18) 0.2500 0.3442(13)
H27 H -1.402(7) 0.2281(8) 0.305(7)
H27C H -1.402(7) 0.2719(8) 0.305(7)
O14 O -1.4567(10) 0.1665(3) 0.4181(7)
H28 H -1.409(11) 0.195(2) 0.444(6)
H29 H -1.463(12) 0.168(3) 0.349(3)
C35? C -0.467(2) 0.3520(9) -0.090(2)
C36? C -0.495(3) 0.3516(13) 0.084(3)
C37? C -0.473(3) 0.4041(9) 0.092(2)
C38? C -0.460(2) 0.4058(8) -0.0890(18)
C39? C -0.463(3) 0.4301(9) -0.0002(19)
C40? C -0.441(3) 0.4861(12) 0.018(2)
H36? H -0.4539 0.3337 -0.1456
H37? H -0.5100 0.3346 0.1402
H38? H -0.4647 0.4209 0.1547
H39? H -0.4528 0.4233 -0.1474
H40? H -0.4014 0.4921 0.0923
H41? H -0.3751 0.4973 -0.0172
N4? N -0.496(4) 0.3269(13) 0.000(2)
loop_
_geom_bond_atom_site_label_1
_geom_bond_atom_site_label_2
_geom_bond_site_symmetry_1
_geom_bond_site_symmetry_2
Ni1 N2 1_555 1_555
Ni2 O7 1_555 1_555
C1 H1 1_555 1_555
C2 C1 1_555 1_555
C3 C2 1_555 1_555
C4 C2 1_555 1_555
H2 C4 1_555 1_555
C5 H3 1_555 1_555
C6 H4 1_555 1_555
C7 C1 1_555 1_555
H5 C7 1_555 1_555
C8 C9 1_555 1_555
C9 H6 1_555 1_555
C10 C8 1_555 1_555
H7 C10 1_555 1_555
C11 C9 1_555 1_555
H8 C11 1_555 1_555
C12 C10 1_555 1_555
H9 C12 1_555 1_555
C13 C8 1_555 1_555
H10 C13 1_555 1_555
H11 C13 1_555 1_555
C14 C13 1_555 1_555
H12 C14 1_555 1_555
H13 C14 1_555 1_555
C15 H14 1_555 1_555
C16 H15 1_555 1_555
C17 C15 1_555 1_555
H16 C17 1_555 1_555
C18 C16 1_555 1_555
H17 C18 1_555 1_555
C19 C14 1_555 1_555
C20 H18 1_555 1_555
C21 C20 1_555 1_555
C22 C21 1_555 1_555
H19 C22 1_555 1_555
C23 C21 1_555 1_555
C24 C6 1_555 1_555
C25 C6 1_555 1_555
H20 C25 1_555 1_555
C26 C24 1_555 1_555
C27 C28 1_555 1_555
C28 C4 1_555 1_555
N1 C11 1_555 1_555
N2 C15 1_555 1_555
O1 C3 1_555 1_555
O2 C3 1_555 1_555
O3 Ni1 1_555 1_555
O4 Ni1 1_555 1_555
O5 C26 1_555 1_555
O6 C26 1_555 1_555
O7 C27 1_555 1_555
O8 Ni2 1_555 1_555
O9 Ni1 1_555 1_555
O10 Ni2 1_555 1_555
H21 O9 1_555 1_555
H22 O9 1_555 1_555
H23 O10 1_555 1_555
H24 O10 1_555 1_555
O11 H25 1_555 1_555
O12 H26 1_555 1_555
O13 H27 1_555 1_555
O14 H28 1_555 1_555
H29 O14 1_555 1_555
N3 Ni2 1_555 1_555
C29 N3 1_555 1_555
H30 C29 1_555 1_555
C30 N3 1_555 1_555
H31 C30 1_555 1_555
C31 C30 1_555 1_555
H32 C31 1_555 1_555
C32 C29 1_555 1_555
H33 C32 1_555 1_555
C33 C31 1_555 1_555
C34 C33 1_555 1_555
H34 C34 1_555 1_555
H35 C34 1_555 1_555
Ni1_2 N1 1_555 1_555
Ni1_3 O5 1_555 1_555
Ni2A N3B 1_555 1_555
Ni2_2 O1 1_555 1_555
N1_2 Ni1 1_555 1_555
O1_2 Ni2 1_555 1_555
O5_2 Ni1 1_555 1_555
H25C O11 1_555 1_555
H26C O12 1_555 1_555
H27C O13 1_555 1_555
N3B C29B 1_555 1_555
N3C Ni2 1_555 1_555
C29B H30B 1_555 1_555
C30B N3B 1_555 1_555
H31B C30B 1_555 1_555
C31B C30B 1_555 1_555
H32B C31B 1_555 1_555
C32B C29B 1_555 1_555
H33B C32B 1_555 1_555
C33B C31B 1_555 1_555
C34B C34 1_555 1_555
H34B C34B 1_555 1_555
H35B C34B 1_555 1_555
C5 C7 1_555 1_555
C5 C28 1_555 1_555
C12 N1 1_555 1_555
C16 N2 1_555 1_555
C17 C19 1_555 1_555
C18 C19 1_555 1_555
C20 C24 1_555 1_555
C22 C25 1_555 1_555
C23 O3 1_555 1_555
C23 O4 1_555 1_555
C27 O8 1_555 1_555
C32 C33 1_555 1_555
C32B C33B 1_555 1_555
C33B C34B 1_555 1_555

#END
