
#######################################################################
#
#                 Cambridge Crystallographic Data Centre
#                                CCDC 
#
#######################################################################
#
# If this CIF has been generated from an entry in the Cambridge 
# Structural Database, then it will include bibliographic, chemical, 
# crystal, experimental, refinement or atomic coordinate data resulting 
# from the CCDC's data processing and validation procedures.
#
#######################################################################

data_MUPZED
_symmetry_cell_setting           triclinic
_symmetry_space_group_name_H-M   'P -1'
_symmetry_Int_Tables_number      2
_space_group_name_Hall           '-P 1'
loop_
_symmetry_equiv_pos_site_id
_symmetry_equiv_pos_as_xyz
1 x,y,z
2 -x,-y,-z
_cell_length_a                   10.0719(14)
_cell_length_b                   10.0962(16)
_cell_length_c                   10.0938(14)
_cell_angle_alpha                78.760(4)
_cell_angle_beta                 69.287(4)
_cell_angle_gamma                85.352(4)
_cell_volume                     941.577
loop_
_atom_site_label
_atom_site_type_symbol
_atom_site_fract_x
_atom_site_fract_y
_atom_site_fract_z
Co1 Co 0.46014(9) 0.37368(8) 0.35846(8)
N1 N 0.6405(5) 0.2363(5) 0.3471(5)
N2 N 1.2861(5) -0.4818(5) 0.3576(5)
O1 O 0.6503(5) 0.7771(4) -0.3036(4)
O2 O 0.4985(4) 0.6352(4) -0.1352(4)
O3 O 0.5917(5) 0.5247(4) 0.3303(4)
O4 O 0.6203(4) 0.6978(4) 0.4243(4)
C1 C 0.6674(7) 0.8788(6) 0.1620(7)
H1 H 0.6822 0.9117 0.2355
C2 C 0.6821(7) 0.9629(6) 0.0307(7)
H2 H 0.7096 1.0520 0.0145
C3 C 0.6549(7) 0.9116(6) -0.0775(6)
H3 H 0.6632 0.9683 -0.1645
C4 C 0.6165(7) 0.7804(6) -0.0569(6)
C5 C 0.6038(6) 0.6978(6) 0.0736(6)
H4 H 0.5767 0.6086 0.0886
C6 C 0.6298(6) 0.7432(6) 0.1814(6)
C7 C 0.6104(6) 0.6483(6) 0.3231(6)
C8 C 0.5861(7) 0.7298(6) -0.1706(6)
C9 C 0.7614(7) 0.2528(7) 0.2354(7)
H5 H 0.7697 0.3273 0.1625
C10 C 0.8754(7) 0.1634(7) 0.2232(7)
H6 H 0.9577 0.1789 0.1430
C11 C 0.8679(6) 0.0518(6) 0.3290(7)
C12 C 0.7427(7) 0.0371(6) 0.4472(7)
H7 H 0.7318 -0.0355 0.5225
C13 C 0.6349(7) 0.1312(6) 0.4518(7)
H8 H 0.5530 0.1207 0.5330
C14 C 0.9900(7) -0.0496(6) 0.3181(8)
H9 H 1.0558 -0.0350 0.2197
H10 H 1.0401 -0.0323 0.3790
C15 C 0.9473(8) -0.1917(7) 0.3592(11)
H11 H 0.9009 -0.2099 0.2954
H12 H 0.8781 -0.2052 0.4560
C16 C 1.0669(7) -0.2926(7) 0.3549(9)
C17 C 1.1540(8) -0.3357(7) 0.2331(9)
H13 H 1.1418 -0.3015 0.1457
C18 C 1.2592(7) -0.4287(7) 0.2381(8)
H14 H 1.3155 -0.4566 0.1528
C19 C 1.2046(7) -0.4364(7) 0.4748(8)
H15 H 1.2196 -0.4703 0.5610
C20 C 1.0969(8) -0.3401(7) 0.4752(9)
H16 H 1.0454 -0.3085 0.5597
Co1_2 Co 1.46014(9) -0.62632(8) 0.35846(8)
Co1A Co 0.53986(9) 0.62632(8) -0.35846(8)
Co1A_2 Co 0.53986(9) 0.62632(8) 0.64154(8)
N2_2 N 0.2861(5) 0.5182(5) 0.3576(5)
O1A O 0.3497(5) 0.2229(4) 0.3036(4)
O2A O 0.5015(4) 0.3648(4) 0.1352(4)
O4A O 0.3797(4) 0.3022(4) 0.5757(4)
loop_
_geom_bond_atom_site_label_1
_geom_bond_atom_site_label_2
_geom_bond_site_symmetry_1
_geom_bond_site_symmetry_2
Co1 N1 1_555 1_555
N1 C9 1_555 1_555
N2 C18 1_555 1_555
O1 C8 1_555 1_555
O2 C8 1_555 1_555
O3 Co1 1_555 1_555
O4 C7 1_555 1_555
C1 H1 1_555 1_555
C2 C1 1_555 1_555
H2 C2 1_555 1_555
C3 C2 1_555 1_555
H3 C3 1_555 1_555
C4 C3 1_555 1_555
C5 C4 1_555 1_555
H4 C5 1_555 1_555
C6 C1 1_555 1_555
C7 O3 1_555 1_555
C8 C4 1_555 1_555
C9 H5 1_555 1_555
C10 C9 1_555 1_555
H6 C10 1_555 1_555
C11 C10 1_555 1_555
C12 C11 1_555 1_555
H7 C12 1_555 1_555
C13 N1 1_555 1_555
H8 C13 1_555 1_555
C14 C11 1_555 1_555
H9 C14 1_555 1_555
H10 C14 1_555 1_555
C15 C14 1_555 1_555
H11 C15 1_555 1_555
H12 C15 1_555 1_555
C16 C15 1_555 1_555
C17 C16 1_555 1_555
H13 C17 1_555 1_555
C18 C17 1_555 1_555
H14 C18 1_555 1_555
C19 N2 1_555 1_555
H15 C19 1_555 1_555
C20 C16 1_555 1_555
H16 C20 1_555 1_555
Co1_2 N2 1_555 1_555
Co1A O1 1_555 1_555
Co1A_2 O4 1_555 1_555
N2_2 Co1 1_555 1_555
O1A Co1 1_555 1_555
O2A Co1 1_555 1_555
O4A Co1 1_555 1_555
O2 Co1A 1_555 1_555
C5 C6 1_555 1_555
C6 C7 1_555 1_555
C12 C13 1_555 1_555
C19 C20 1_555 1_555

#END
