
#######################################################################
#
#                 Cambridge Crystallographic Data Centre
#                                CCDC 
#
#######################################################################
#
# If this CIF has been generated from an entry in the Cambridge 
# Structural Database, then it will include bibliographic, chemical, 
# crystal, experimental, refinement or atomic coordinate data resulting 
# from the CCDC's data processing and validation procedures.
#
#######################################################################

data_MUPZUT
_symmetry_cell_setting           triclinic
_symmetry_space_group_name_H-M   'P -1'
_symmetry_Int_Tables_number      2
_space_group_name_Hall           '-P 1'
loop_
_symmetry_equiv_pos_site_id
_symmetry_equiv_pos_as_xyz
1 x,y,z
2 -x,-y,-z
_cell_length_a                   9.4552(17)
_cell_length_b                   10.0780(18)
_cell_length_c                   11.923(2)
_cell_angle_alpha                81.037(3)
_cell_angle_beta                 71.100(3)
_cell_angle_gamma                65.366(3)
_cell_volume                     976.771
loop_
_atom_site_label
_atom_site_type_symbol
_atom_site_fract_x
_atom_site_fract_y
_atom_site_fract_z
O1 O 0.2465(3) -0.4179(3) 0.2669(2)
C1 C 0.2940(4) -0.3161(4) 0.2195(3)
N1 N -0.4018(3) 0.3142(3) 1.1788(3)
C2 C -0.3158(4) 0.2149(4) 1.0943(3)
H1 H -0.3679 0.1650 1.0749
C3 C -0.3220(5) 0.3779(4) 1.2084(3)
H2 H -0.3781 0.4447 1.2691
C4 C -0.1598(4) 0.3501(4) 1.1538(3)
H3 H -0.1092 0.3976 1.1781
C5 C -0.1550(4) 0.1822(4) 1.0345(4)
H4 H -0.1014 0.1137 0.9750
C6 C -0.0731(4) 0.2521(4) 1.0634(3)
Ni1 Ni 0.35158(6) 0.36658(5) 0.24038(4)
N2 N 0.3486(3) 0.3303(3) 0.4169(3)
C7 C 0.2035(5) 0.3913(4) 0.6191(4)
H5 H 0.1141 0.4558 0.6725
C8 C 0.2259(4) 0.4168(4) 0.4997(3)
H6 H 0.1501 0.5003 0.4749
C9 C 0.3143(4) 0.2691(4) 0.6605(4)
C10 C 0.4430(5) 0.1800(4) 0.5746(4)
H7 H 0.5220 0.0971 0.5968
C11 C 0.4549(5) 0.2132(4) 0.4563(4)
H8 H 0.5424 0.1501 0.4008
C12 C 0.2948(4) 0.2345(4) 0.7905(3)
H9 H 0.3340 0.2927 0.8205
H10 H 0.3622 0.1325 0.8005
C13 C 0.1206(4) 0.2629(5) 0.8642(3)
H11 H 0.0806 0.2062 0.8333
H12 H 0.0535 0.3653 0.8557
C14 C 0.1023(4) 0.2246(4) 0.9958(3)
H13 H 0.1701 0.1227 1.0052
H14 H 0.1387 0.2832 1.0281
C15 C 0.1502(4) 0.0818(4) 0.2875(3)
C16 C 0.2210(4) 0.1944(4) 0.2653(3)
C17 C -0.0090(4) 0.1121(4) 0.3558(3)
H15 H -0.0754 0.2056 0.3842
C18 C 0.2450(4) -0.0575(4) 0.2433(3)
H16 H 0.3506 -0.0776 0.1951
C19 C -0.0694(4) 0.0044(4) 0.3819(3)
H17 H -0.1763 0.0257 0.4280
C20 C 0.1865(4) -0.1676(4) 0.2690(3)
C21 C 0.0273(4) -0.1350(4) 0.3401(3)
H18 H -0.0141 -0.2073 0.3596
O2 O 0.3748(3) 0.1545(2) 0.2261(2)
O3 O 0.1305(3) 0.3258(3) 0.2878(2)
O4 O 0.4202(3) -0.3321(3) 0.1386(3)
O5 O 0.3318(4) 0.4205(3) 0.0648(3)
H19 H 0.404(5) 0.378(5) 0.007(4)
H20 H 0.310(6) 0.493(5) 0.054(4)
O1_2 O 0.2465(3) 0.5821(3) 0.2669(2)
N1_2 N 0.5982(3) 0.3142(3) 0.1788(3)
Ni1_2 Ni 0.35158(6) -0.63342(5) 0.24038(4)
Ni1_3 Ni -0.64842(6) 0.36658(5) 1.24038(4)
loop_
_geom_bond_atom_site_label_1
_geom_bond_atom_site_label_2
_geom_bond_site_symmetry_1
_geom_bond_site_symmetry_2
O1 C1 1_555 1_555
C1 C20 1_555 1_555
N1 C2 1_555 1_555
C2 H1 1_555 1_555
C3 N1 1_555 1_555
H2 C3 1_555 1_555
C4 C3 1_555 1_555
H3 C4 1_555 1_555
C5 C2 1_555 1_555
H4 C5 1_555 1_555
C6 C4 1_555 1_555
Ni1 N2 1_555 1_555
N2 C8 1_555 1_555
C7 H5 1_555 1_555
C8 C7 1_555 1_555
H6 C8 1_555 1_555
C9 C7 1_555 1_555
C10 C9 1_555 1_555
H7 C10 1_555 1_555
C11 N2 1_555 1_555
H8 C11 1_555 1_555
C12 C9 1_555 1_555
H9 C12 1_555 1_555
H10 C12 1_555 1_555
C13 C12 1_555 1_555
H11 C13 1_555 1_555
H12 C13 1_555 1_555
C14 C6 1_555 1_555
H13 C14 1_555 1_555
H14 C14 1_555 1_555
C15 C16 1_555 1_555
C16 O2 1_555 1_555
C17 C15 1_555 1_555
H15 C17 1_555 1_555
C18 C15 1_555 1_555
H16 C18 1_555 1_555
C19 C17 1_555 1_555
H17 C19 1_555 1_555
C20 C18 1_555 1_555
C21 C19 1_555 1_555
H18 C21 1_555 1_555
O2 Ni1 1_555 1_555
O3 Ni1 1_555 1_555
O4 C1 1_555 1_555
O5 Ni1 1_555 1_555
H19 O5 1_555 1_555
H20 O5 1_555 1_555
O1_2 Ni1 1_555 1_555
N1_2 Ni1 1_555 1_555
Ni1_2 O1 1_555 1_555
Ni1_3 N1 1_555 1_555
C5 C6 1_555 1_555
C10 C11 1_555 1_555
C13 C14 1_555 1_555
C16 O3 1_555 1_555
C20 C21 1_555 1_555

#END
