
#######################################################################
#
#                 Cambridge Crystallographic Data Centre
#                                CCDC 
#
#######################################################################
#
# If this CIF has been generated from an entry in the Cambridge 
# Structural Database, then it will include bibliographic, chemical, 
# crystal, experimental, refinement or atomic coordinate data resulting 
# from the CCDC's data processing and validation procedures.
#
#######################################################################

data_MUQBEG
_symmetry_cell_setting           triclinic
_symmetry_space_group_name_H-M   'P -1'
_symmetry_Int_Tables_number      2
_space_group_name_Hall           '-P 1'
loop_
_symmetry_equiv_pos_site_id
_symmetry_equiv_pos_as_xyz
1 x,y,z
2 -x,-y,-z
_cell_length_a                   7.165(2)
_cell_length_b                   7.332(2)
_cell_length_c                   10.218(3)
_cell_angle_alpha                74.640(4)
_cell_angle_beta                 75.171(4)
_cell_angle_gamma                85.179(4)
_cell_volume                     500.301
loop_
_atom_site_label
_atom_site_type_symbol
_atom_site_fract_x
_atom_site_fract_y
_atom_site_fract_z
Zn1 Zn 0.09722(18) 0.65696(17) 0.32542(13)
Cl1 Cl -0.1044(4) 0.6199(4) 0.2028(3)
O1 O -0.0524(11) 0.7152(11) 0.5032(9)
O2 O -0.2988(11) 0.5323(11) 0.6383(9)
N1 N 0.2540(13) 0.8928(13) 0.2252(10)
C1 C -0.5696(16) 0.8167(16) 0.5574(11)
H1 H -0.6160 0.6914 0.5959
C2 C -0.3718(17) 0.8500(16) 0.5261(12)
C3 C -0.3029(16) 1.0344(15) 0.4674(11)
H2 H -0.1683 1.0566 0.4448
C4 C -0.2335(17) 0.6880(15) 0.5554(12)
C5 C 0.1600(17) 1.0563(16) 0.1827(12)
H3 H 0.0241 1.0524 0.1964
C6 C 0.2456(17) 1.2246(16) 0.1224(12)
H4 H 0.1707 1.3351 0.0959
C7 C 0.4477(16) 1.2356(16) 0.0988(12)
C8 C 0.5461(16) 1.0666(15) 0.1429(11)
H5 H 0.6823 1.0667 0.1295
C9 C 0.4484(16) 0.9009(16) 0.2051(11)
H6 H 0.5185 0.7884 0.2352
C10 C 0.5567(17) 1.4172(16) 0.0356(12)
H7 H 0.6745 1.3941 -0.0341
H8 H 0.5984 1.4536 0.1102
Zn1A Zn -1.09722(18) 1.34304(17) 0.67458(13)
Zn1_2 Zn -0.90278(18) 1.65696(17) 0.32542(13)
Zn1A_2 Zn -0.09722(18) 0.34304(17) 0.67458(13)
Zn1A_3 Zn 0.90278(18) 2.34304(17) -0.32542(13)
Cl1A Cl -0.8956(4) 1.3801(4) 0.7972(3)
O1A O -0.9476(11) 1.2848(11) 0.4968(9)
O2A O -0.7012(11) 1.4677(11) 0.3617(9)
O2_2 O -1.2988(11) 1.5323(11) 0.6383(9)
O2A_2 O 0.2988(11) 0.4677(11) 0.3617(9)
N1A N 0.7460(13) 2.1072(13) -0.2252(10)
N1A_2 N -1.2540(13) 1.1072(13) 0.7748(10)
C1A C -0.4304(16) 1.1833(16) 0.4426(11)
H1A H -0.3840 1.3086 0.4041
C2A C -0.6282(17) 1.1500(16) 0.4739(12)
C3A C -0.6971(16) 0.9656(15) 0.5326(11)
H2A H -0.8317 0.9434 0.5552
C4A C -0.7665(17) 1.3120(15) 0.4446(12)
C5A C 0.8400(17) 1.9437(16) -0.1827(12)
H3A H 0.9759 1.9476 -0.1964
C6A C 0.7544(17) 1.7754(16) -0.1224(12)
H4A H 0.8293 1.6649 -0.0959
C7A C 0.5523(16) 1.7644(16) -0.0988(12)
C8A C 0.4539(16) 1.9334(15) -0.1429(11)
H5A H 0.3177 1.9333 -0.1295
C9A C 0.5516(16) 2.0991(16) -0.2051(11)
H6A H 0.4815 2.2116 -0.2352
C10A C 0.4433(17) 1.5828(16) -0.0356(12)
H7A H 0.3255 1.6059 0.0341
H8A H 0.4016 1.5464 -0.1102
loop_
_geom_bond_atom_site_label_1
_geom_bond_atom_site_label_2
_geom_bond_site_symmetry_1
_geom_bond_site_symmetry_2
Zn1 Cl1 1_555 1_555
O1 Zn1 1_555 1_555
O2 C4 1_555 1_555
N1 Zn1 1_555 1_555
C1 H1 1_555 1_555
C2 C1 1_555 1_555
C3 C2 1_555 1_555
H2 C3 1_555 1_555
C4 O1 1_555 1_555
C5 N1 1_555 1_555
H3 C5 1_555 1_555
C6 C5 1_555 1_555
H4 C6 1_555 1_555
C7 C6 1_555 1_555
C8 C7 1_555 1_555
H5 C8 1_555 1_555
C9 N1 1_555 1_555
H6 C9 1_555 1_555
C10 C7 1_555 1_555
H7 C10 1_555 1_555
H8 C10 1_555 1_555
Zn1A Cl1A 1_555 1_555
Zn1_2 O2A 1_555 1_555
Zn1A_2 O2 1_555 1_555
Zn1A_3 N1A 1_555 1_555
O1A Zn1A 1_555 1_555
O2A C4A 1_555 1_555
O2_2 Zn1A 1_555 1_555
O2A_2 Zn1 1_555 1_555
N1A C5A 1_555 1_555
N1A_2 Zn1A 1_555 1_555
C1A C3 1_555 1_555
H1A C1A 1_555 1_555
C2A C1A 1_555 1_555
C3A C1 1_555 1_555
H2A C3A 1_555 1_555
C4A O1A 1_555 1_555
C5A H3A 1_555 1_555
C6A C5A 1_555 1_555
H4A C6A 1_555 1_555
C7A C6A 1_555 1_555
C8A C7A 1_555 1_555
H5A C8A 1_555 1_555
C9A N1A 1_555 1_555
H6A C9A 1_555 1_555
C10A C10 1_555 1_555
H7A C10A 1_555 1_555
H8A C10A 1_555 1_555
C2 C4 1_555 1_555
C8 C9 1_555 1_555
C2A C3A 1_555 1_555
C2A C4A 1_555 1_555
C7A C10A 1_555 1_555
C8A C9A 1_555 1_555

#END
