
#######################################################################
#
#                 Cambridge Crystallographic Data Centre
#                                CCDC 
#
#######################################################################
#
# If this CIF has been generated from an entry in the Cambridge 
# Structural Database, then it will include bibliographic, chemical, 
# crystal, experimental, refinement or atomic coordinate data resulting 
# from the CCDC's data processing and validation procedures.
#
#######################################################################

data_MUQBIK
_symmetry_cell_setting           triclinic
_symmetry_space_group_name_H-M   'P -1'
_symmetry_Int_Tables_number      2
_space_group_name_Hall           '-P 1'
loop_
_symmetry_equiv_pos_site_id
_symmetry_equiv_pos_as_xyz
1 x,y,z
2 -x,-y,-z
_cell_length_a                   8.5191(17)
_cell_length_b                   9.6341(19)
_cell_length_c                   11.562(2)
_cell_angle_alpha                66.500(3)
_cell_angle_beta                 76.143(3)
_cell_angle_gamma                89.152(3)
_cell_volume                     841.429
loop_
_atom_site_label
_atom_site_type_symbol
_atom_site_fract_x
_atom_site_fract_y
_atom_site_fract_z
C1 C 0.8255(5) 0.6645(4) 0.1412(4)
H1 H 0.7754 0.6789 0.0746
C2 C 0.8609(5) 0.5199(4) 0.2146(4)
C3 C 0.9358(5) 0.5004(4) 0.3142(4)
H2 H 0.9578 0.4038 0.3661
C4 C 0.9769(5) 0.6228(5) 0.3357(4)
H3 H 1.0286 0.6090 0.4013
C5 C 0.9427(5) 0.7666(4) 0.2616(4)
H4 H 0.9733 0.8489 0.2766
C6 C 0.8637(4) 0.7893(4) 0.1656(4)
C7 C 0.8072(5) 0.9419(4) 0.0963(4)
C8 C 0.8148(5) 0.3837(4) 0.1939(4)
C9 C 0.3629(5) 0.1728(5) 0.1523(4)
H5 H 0.3745 0.2363 0.0650
C10 C 0.2076(5) 0.1206(5) 0.2301(4)
H6 H 0.1181 0.1485 0.1959
C11 C 0.1880(5) 0.0254(4) 0.3608(4)
C12 C 0.3274(5) -0.0137(5) 0.4045(4)
H7 H 0.3194 -0.0795 0.4907
C13 C 0.4774(5) 0.0454(4) 0.3197(4)
H8 H 0.5693 0.0197 0.3512
C14 C 0.0210(5) -0.0341(5) 0.4505(4)
H9 H 0.0162 -0.1438 0.4953
H10 H -0.0584 -0.0107 0.3992
C15 C 0.6709(5) 0.4743(4) -0.1679(4)
H11 H 0.7020 0.5321 -0.1277
C16 C 0.6281(6) 0.5487(4) -0.2831(4)
H12 H 0.6318 0.6542 -0.3190
C17 C 0.5797(5) 0.4684(4) -0.3462(4)
C18 C 0.5799(5) 0.3118(4) -0.2863(4)
H13 H 0.5492 0.2516 -0.3245
C19 C 0.6253(5) 0.2439(4) -0.1704(4)
H14 H 0.6244 0.1387 -0.1331
C20 C 0.5292(5) 0.5503(4) -0.4715(4)
H15 H 0.6208 0.6181 -0.5361
H16 H 0.4431 0.6126 -0.4559
N1 N 0.6701(4) 0.3228(4) -0.1103(3)
N2 N 0.4972(4) 0.1386(3) 0.1935(3)
O1 O 0.7872(3) 0.4082(3) 0.0834(3)
O2 O 0.8022(4) 0.2561(3) 0.2819(3)
O3 O 0.7136(4) 0.9533(3) 0.0276(3)
O4 O 0.8538(3) 1.0506(3) 0.1193(3)
Zn1 Zn 0.72499(6) 0.22240(5) 0.06807(4)
C1A C -0.8255(5) -0.6645(4) 0.8588(4)
H1A H -0.7754 -0.6789 0.9254
C2A C -0.8609(5) -0.5199(4) 0.7854(4)
C3A C -0.9358(5) -0.5004(4) 0.6858(4)
H2A H -0.9578 -0.4038 0.6339
C4A C -0.9769(5) -0.6228(5) 0.6643(4)
H3A H -1.0286 -0.6090 0.5987
C5A C -0.9427(5) -0.7666(4) 0.7384(4)
H4A H -0.9733 -0.8489 0.7234
C6A C -0.8637(4) -0.7893(4) 0.8344(4)
C7A C -0.8072(5) -0.9419(4) 0.9037(4)
C8A C -0.8148(5) -0.3837(4) 0.8061(4)
C9A C -0.3629(5) -0.1728(5) 0.8477(4)
H5A H -0.3745 -0.2363 0.9350
C10A C -0.2076(5) -0.1206(5) 0.7699(4)
H6A H -0.1181 -0.1485 0.8041
C11A C -0.1880(5) -0.0254(4) 0.6392(4)
C12A C -0.3274(5) 0.0137(5) 0.5955(4)
H7A H -0.3194 0.0795 0.5093
C13A C -0.4774(5) -0.0454(4) 0.6803(4)
H8A H -0.5693 -0.0197 0.6488
C14A C -0.0210(5) 0.0341(5) 0.5495(4)
H9A H -0.0162 0.1438 0.5047
H10A H 0.0584 0.0107 0.6008
C15A C 0.3291(5) 0.5257(4) -0.8321(4)
H11A H 0.2980 0.4679 -0.8723
C16A C 0.3719(6) 0.4513(4) -0.7169(4)
H12A H 0.3682 0.3458 -0.6810
C17A C 0.4203(5) 0.5316(4) -0.6538(4)
C18A C 0.4201(5) 0.6882(4) -0.7137(4)
H13A H 0.4508 0.7484 -0.6755
C19A C 0.3747(5) 0.7561(4) -0.8296(4)
H14A H 0.3756 0.8613 -0.8669
C20A C 0.4708(5) 0.4497(4) -0.5285(4)
H15A H 0.3792 0.3819 -0.4639
H16A H 0.5569 0.3874 -0.5441
N1A N 0.3299(4) 0.6772(4) -0.8897(3)
N1A_2 N -0.6701(4) -0.3228(4) 1.1103(3)
N2A N -0.4972(4) -0.1386(3) 0.8065(3)
O1A O -0.7872(3) -0.4082(3) 0.9166(3)
O2A O -0.8022(4) -0.2561(3) 0.7181(3)
O3A O -0.7136(4) -0.9533(3) 0.9724(3)
O4A O -0.8538(3) -1.0506(3) 0.8807(3)
O4_2 O 0.8538(3) 0.0506(3) 0.1193(3)
O4A_2 O -0.8538(3) -0.0506(3) 0.8807(3)
Zn1A Zn -0.72499(6) -0.22240(5) 0.93193(4)
Zn1_2 Zn 0.72499(6) 1.22240(5) 0.06807(4)
Zn1A_2 Zn -0.72499(6) -1.22240(5) 0.93193(4)
Zn1A_3 Zn 0.27501(6) 0.77760(5) -1.06807(4)
loop_
_geom_bond_atom_site_label_1
_geom_bond_atom_site_label_2
_geom_bond_site_symmetry_1
_geom_bond_site_symmetry_2
C1 H1 1_555 1_555
C2 C1 1_555 1_555
C3 C2 1_555 1_555
H2 C3 1_555 1_555
C4 C3 1_555 1_555
H3 C4 1_555 1_555
C5 C4 1_555 1_555
H4 C5 1_555 1_555
C6 C1 1_555 1_555
C7 C6 1_555 1_555
C8 C2 1_555 1_555
C9 H5 1_555 1_555
C10 C9 1_555 1_555
H6 C10 1_555 1_555
C11 C10 1_555 1_555
C12 C11 1_555 1_555
H7 C12 1_555 1_555
C13 C12 1_555 1_555
H8 C13 1_555 1_555
C14 C11 1_555 1_555
H9 C14 1_555 1_555
H10 C14 1_555 1_555
C15 H11 1_555 1_555
C16 C15 1_555 1_555
H12 C16 1_555 1_555
C17 C16 1_555 1_555
C18 C17 1_555 1_555
H13 C18 1_555 1_555
C19 C18 1_555 1_555
H14 C19 1_555 1_555
C20 C17 1_555 1_555
H15 C20 1_555 1_555
H16 C20 1_555 1_555
N1 C15 1_555 1_555
N2 C9 1_555 1_555
O1 C8 1_555 1_555
O2 C8 1_555 1_555
O3 C7 1_555 1_555
O4 C7 1_555 1_555
Zn1 N1 1_555 1_555
C1A H1A 1_555 1_555
C2A C1A 1_555 1_555
C3A C2A 1_555 1_555
H2A C3A 1_555 1_555
C4A C3A 1_555 1_555
H3A C4A 1_555 1_555
C5A C4A 1_555 1_555
H4A C5A 1_555 1_555
C6A C1A 1_555 1_555
C7A C6A 1_555 1_555
C8A C2A 1_555 1_555
C9A H5A 1_555 1_555
C10A C9A 1_555 1_555
H6A C10A 1_555 1_555
C11A C10A 1_555 1_555
C12A C11A 1_555 1_555
H7A C12A 1_555 1_555
C13A C12A 1_555 1_555
H8A C13A 1_555 1_555
C14A C14 1_555 1_555
H9A C14A 1_555 1_555
H10A C14A 1_555 1_555
C15A H11A 1_555 1_555
C16A C15A 1_555 1_555
H12A C16A 1_555 1_555
C17A C16A 1_555 1_555
C18A C17A 1_555 1_555
H13A C18A 1_555 1_555
C19A C18A 1_555 1_555
H14A C19A 1_555 1_555
C20A C20 1_555 1_555
H15A C20A 1_555 1_555
H16A C20A 1_555 1_555
N1A C15A 1_555 1_555
N1A_2 Zn1A 1_555 1_555
N2A C9A 1_555 1_555
O1A C8A 1_555 1_555
O2A C8A 1_555 1_555
O3A C7A 1_555 1_555
O4A C7A 1_555 1_555
O4_2 Zn1 1_555 1_555
O4A_2 Zn1A 1_555 1_555
Zn1A N2A 1_555 1_555
Zn1_2 O4 1_555 1_555
Zn1A_2 O4A 1_555 1_555
Zn1A_3 N1A 1_555 1_555
C5 C6 1_555 1_555
C13 N2 1_555 1_555
C19 N1 1_555 1_555
N2 Zn1 1_555 1_555
O1 Zn1 1_555 1_555
C5A C6A 1_555 1_555
C11A C14A 1_555 1_555
C13A N2A 1_555 1_555
C17A C20A 1_555 1_555
C19A N1A 1_555 1_555
O1A Zn1A 1_555 1_555

#END
