
#######################################################################
#
#                 Cambridge Crystallographic Data Centre
#                                CCDC 
#
#######################################################################
#
# If this CIF has been generated from an entry in the Cambridge 
# Structural Database, then it will include bibliographic, chemical, 
# crystal, experimental, refinement or atomic coordinate data resulting 
# from the CCDC's data processing and validation procedures.
#
#######################################################################

data_MUQCEH
_symmetry_cell_setting           triclinic
_symmetry_space_group_name_H-M   'P -1'
_symmetry_Int_Tables_number      2
_space_group_name_Hall           '-P 1'
loop_
_symmetry_equiv_pos_site_id
_symmetry_equiv_pos_as_xyz
1 x,y,z
2 -x,-y,-z
_cell_length_a                   7.509(5)
_cell_length_b                   8.497(6)
_cell_length_c                   11.853(8)
_cell_angle_alpha                98.693(10)
_cell_angle_beta                 102.646(10)
_cell_angle_gamma                106.529(11)
_cell_volume                     688.769
loop_
_atom_site_label
_atom_site_type_symbol
_atom_site_fract_x
_atom_site_fract_y
_atom_site_fract_z
Cu1 Cu 0.66449(9) 0.64416(7) 0.95439(5)
C1 C 0.8491(8) 0.5198(5) 1.1216(4)
C2 C 0.8784(7) 0.3927(5) 1.1941(4)
C3 C 1.0019(7) 0.4424(6) 1.3087(4)
C4 C 1.0275(7) 0.3285(6) 1.3749(4)
C5 C 0.9314(7) 0.1591(6) 1.3267(4)
C6 C 0.8118(7) 0.1001(5) 1.2114(4)
C7 C 0.7894(7) 0.2218(6) 1.1498(4)
C8 C 0.7119(7) -0.0874(6) 1.1586(4)
C9 C 0.7346(8) 0.9176(6) 0.8265(4)
H1 H 0.8136 0.9830 0.9003
C10 C 0.5260(8) 0.6644(6) 0.7092(4)
H2 H 0.4584 0.5511 0.7008
C11 C 0.7216(8) 0.9919(6) 0.7315(4)
H3 H 0.7899 1.1056 0.7422
C12 C 0.5059(8) 0.7304(6) 0.6107(4)
H4 H 0.4249 0.6631 0.5379
C13 C 0.6076(7) 0.8992(6) 0.6199(4)
C14 C 0.5905(8) 0.9734(7) 0.5130(4)
H5 H 0.5846 0.8911 0.4448
H6 H 0.7043 1.0708 0.5259
N1 N 0.6388(6) 0.7549(5) 0.8180(3)
F1 F 1.0965(5) 0.6060(3) 1.3575(2)
F2 F 1.1456(5) 0.3802(4) 1.4857(2)
F3 F 0.9609(4) 0.0509(4) 1.3937(2)
F4 F 0.6743(4) 0.1694(3) 1.0377(2)
O1 O 0.6748(5) 0.5127(4) 1.0785(3)
O2 O 0.9909(5) 0.6191(4) 1.1053(3)
O3 O 0.7438(5) -0.1384(4) 1.0619(3)
O4 O 0.6124(6) -0.1672(4) 1.2128(3)
O5 O 0.6733(5) 0.4485(4) 0.8450(3)
H7 H 0.580(4) 0.357(3) 0.830(4)
H8 H 0.772(4) 0.418(5) 0.862(4)
Cu1A Cu 0.33551(9) 1.35584(7) 0.04561(5)
Cu1A_2 Cu 0.33551(9) 0.35584(7) 1.04561(5)
Cu1_2 Cu 0.66449(9) -0.35584(7) 0.95439(5)
Cu1A_3 Cu 0.33551(9) 1.35584(7) 1.04561(5)
C1A C 0.1509(8) 0.4802(5) 0.8784(4)
C2A C 0.1216(7) 0.6073(5) 0.8059(4)
C3A C -0.0019(7) 0.5576(6) 0.6913(4)
C4A C -0.0275(7) 0.6715(6) 0.6251(4)
C5A C 0.0686(7) 0.8409(6) 0.6733(4)
C6A C 0.1882(7) 0.8999(5) 0.7886(4)
C7A C 0.2106(7) 0.7782(6) 0.8502(4)
C8A C 0.2881(7) 1.0874(6) 0.8414(4)
C9A C 0.2654(8) 1.0824(6) 0.1735(4)
H1A H 0.1864 1.0170 0.0997
C10A C 0.4740(8) 1.3356(6) 0.2908(4)
H2A H 0.5416 1.4489 0.2992
C11A C 0.2784(8) 1.0081(6) 0.2685(4)
H3A H 0.2101 0.8944 0.2578
C12A C 0.4941(8) 1.2696(6) 0.3893(4)
H4A H 0.5751 1.3369 0.4621
C13A C 0.3924(7) 1.1008(6) 0.3801(4)
C14A C 0.4095(8) 1.0266(7) 0.4870(4)
H5A H 0.4154 1.1089 0.5552
H6A H 0.2957 0.9292 0.4741
N1A N 0.3612(6) 1.2451(5) 0.1820(3)
F1A F -0.0965(5) 0.3940(3) 0.6425(2)
F2A F -0.1456(5) 0.6198(4) 0.5143(2)
F3A F 0.0391(4) 0.9491(4) 0.6063(2)
F4A F 0.3257(4) 0.8306(3) 0.9623(2)
O1A O 0.3252(5) 0.4873(4) 0.9215(3)
O1A_2 O 0.3252(5) 1.4873(4) -0.0785(3)
O1_2 O 0.6748(5) 1.5127(4) 0.0785(3)
O2A O 0.0091(5) 0.3809(4) 0.8947(3)
O3A O 0.2562(5) 1.1384(4) 0.9381(3)
O3_2 O 0.7438(5) 0.8616(4) 1.0619(3)
O3A_2 O 0.2562(5) 1.1384(4) -0.0619(3)
O4A O 0.3876(6) 1.1672(4) 0.7872(3)
O5A O 0.3267(5) 1.5515(4) 0.1550(3)
H7A H 0.420(4) 1.643(3) 0.170(4)
H8A H 0.228(4) 1.582(5) 0.138(4)
loop_
_geom_bond_atom_site_label_1
_geom_bond_atom_site_label_2
_geom_bond_site_symmetry_1
_geom_bond_site_symmetry_2
Cu1 N1 1_555 1_555
C1 C2 1_555 1_555
C2 C3 1_555 1_555
C3 C4 1_555 1_555
C4 C5 1_555 1_555
C5 C6 1_555 1_555
C6 C7 1_555 1_555
C7 C2 1_555 1_555
C8 C6 1_555 1_555
C9 H1 1_555 1_555
C10 H2 1_555 1_555
C11 C9 1_555 1_555
H3 C11 1_555 1_555
C12 C10 1_555 1_555
H4 C12 1_555 1_555
C13 C11 1_555 1_555
C14 C13 1_555 1_555
H5 C14 1_555 1_555
H6 C14 1_555 1_555
N1 C9 1_555 1_555
F1 C3 1_555 1_555
F2 C4 1_555 1_555
F3 C5 1_555 1_555
F4 C7 1_555 1_555
O1 Cu1 1_555 1_555
O2 C1 1_555 1_555
O3 C8 1_555 1_555
O4 C8 1_555 1_555
O5 Cu1 1_555 1_555
H7 O5 1_555 1_555
H8 O5 1_555 1_555
Cu1A N1A 1_555 1_555
Cu1A_2 O1 1_555 1_555
Cu1_2 O3 1_555 1_555
Cu1A_3 O3A 1_555 1_555
C1A C2A 1_555 1_555
C2A C3A 1_555 1_555
C3A C4A 1_555 1_555
C4A C5A 1_555 1_555
C5A C6A 1_555 1_555
C6A C7A 1_555 1_555
C7A C2A 1_555 1_555
C8A C6A 1_555 1_555
C9A H1A 1_555 1_555
C10A H2A 1_555 1_555
C11A C9A 1_555 1_555
H3A C11A 1_555 1_555
C12A C10A 1_555 1_555
H4A C12A 1_555 1_555
C13A C11A 1_555 1_555
C14A C14 1_555 1_555
H5A C14A 1_555 1_555
H6A C14A 1_555 1_555
N1A C9A 1_555 1_555
F1A C3A 1_555 1_555
F2A C4A 1_555 1_555
F3A C5A 1_555 1_555
F4A C7A 1_555 1_555
O1A Cu1 1_555 1_555
O1A_2 Cu1A 1_555 1_555
O1_2 Cu1A 1_555 1_555
O2A C1A 1_555 1_555
O3A C8A 1_555 1_555
O3_2 Cu1 1_555 1_555
O3A_2 Cu1A 1_555 1_555
O4A C8A 1_555 1_555
O5A Cu1A 1_555 1_555
H7A O5A 1_555 1_555
H8A O5A 1_555 1_555
C1 O1 1_555 1_555
C10 N1 1_555 1_555
C12 C13 1_555 1_555
Cu1A_2 O1A 1_555 1_555
C1A O1A 1_555 1_555
C10A N1A 1_555 1_555
C12A C13A 1_555 1_555
C13A C14A 1_555 1_555

#END
