
#######################################################################
#
#                 Cambridge Crystallographic Data Centre
#                                CCDC 
#
#######################################################################
#
# If this CIF has been generated from an entry in the Cambridge 
# Structural Database, then it will include bibliographic, chemical, 
# crystal, experimental, refinement or atomic coordinate data resulting 
# from the CCDC's data processing and validation procedures.
#
#######################################################################

data_MUQCAD
_symmetry_cell_setting           triclinic
_symmetry_space_group_name_H-M   'P -1'
_symmetry_Int_Tables_number      2
_space_group_name_Hall           '-P 1'
loop_
_symmetry_equiv_pos_site_id
_symmetry_equiv_pos_as_xyz
1 x,y,z
2 -x,-y,-z
_cell_length_a                   11.286(6)
_cell_length_b                   11.300(5)
_cell_length_c                   17.338(8)
_cell_angle_alpha                79.946(8)
_cell_angle_beta                 74.484(8)
_cell_angle_gamma                89.864(8)
_cell_volume                     2095.55
loop_
_atom_site_label
_atom_site_type_symbol
_atom_site_fract_x
_atom_site_fract_y
_atom_site_fract_z
Co1 Co 0.38828(14) 0.57664(15) 0.32614(10)
C1 C 0.6130(10) 0.4957(12) 0.3839(8)
C2 C 0.7433(10) 0.5276(12) 0.3814(7)
C3 C 0.7796(11) 0.6449(11) 0.3837(8)
C4 C 0.8353(11) 0.4466(10) 0.3787(8)
C5 C 0.8970(11) 0.6768(11) 0.3847(8)
C6 C 0.9520(10) 0.4798(12) 0.3775(8)
C7 C 0.9878(10) 0.5928(11) 0.3801(7)
C8 C 1.1141(10) 0.6243(10) 0.3868(8)
C9 C 0.5063(10) 0.4903(10) 0.1685(8)
H1 H 0.5690 0.5439 0.1682
C10 C 0.3204(11) 0.4016(11) 0.2289(8)
H2 H 0.2487 0.3909 0.2716
C11 C 0.5246(11) 0.4287(11) 0.1033(8)
H3 H 0.5974 0.4403 0.0616
C12 C 0.3279(11) 0.3373(12) 0.1698(8)
H4 H 0.2635 0.2835 0.1735
C13 C 0.4316(11) 0.3501(11) 0.1027(7)
C14 C 0.4422(13) 0.2830(11) 0.0347(8)
H5 H 0.5225 0.3025 -0.0037
H6 H 0.3808 0.3106 0.0065
C15 C 0.4257(11) 0.1461(10) 0.0605(8)
H7 H 0.4254 0.1105 0.0136
H8 H 0.3467 0.1259 0.1004
C16 C 0.5277(13) 0.0926(11) 0.0970(9)
H9 H 0.6019 0.0919 0.0532
H10 H 0.5449 0.1446 0.1320
C17 C 0.4981(11) -0.0331(10) 0.1454(7)
C18 C 0.5634(11) -0.0747(12) 0.1992(8)
H11 H 0.6275 -0.0270 0.2036
C19 C 0.4047(11) -0.1079(11) 0.1397(7)
H12 H 0.3582 -0.0823 0.1035
C20 C 0.5354(11) -0.1872(13) 0.2471(8)
H13 H 0.5813 -0.2136 0.2836
C21 C 0.3811(11) -0.2212(10) 0.1886(8)
H14 H 0.3198 -0.2713 0.1831
N1 N 0.4052(8) 0.4781(9) 0.2315(6)
N2 N 0.4430(8) -0.2609(8) 0.2431(6)
O1 O 0.5722(6) 0.5528(7) 0.3289(5)
O2 O 0.5580(7) 0.4120(8) 0.4382(5)
O3 O 1.2026(7) 0.5988(7) 0.3298(5)
O4 O 1.1209(8) 0.6664(9) 0.4465(6)
O5 O 0.3652(7) 0.6701(8) 0.4238(5)
H29 H 0.288(4) 0.671(12) 0.459(6)
H30 H 0.395(13) 0.749(5) 0.414(3)
O6 O 0.3341(8) 0.4103(8) 0.4117(6)
H31 H 0.391(4) 0.381(6) 0.438(5)
H32 H 0.264(5) 0.413(4) 0.453(4)
F1 F 0.6941(6) 0.7303(6) 0.3896(5)
F2 F 0.8052(6) 0.3309(6) 0.3793(5)
F3 F 0.9200(7) 0.7894(7) 0.3918(5)
F4 F 1.0346(6) 0.3916(6) 0.3764(5)
Co1_2 Co 0.38828(14) -0.42336(15) 0.32614(10)
Co1_3 Co 1.38828(14) 0.57664(15) 0.32614(10)
N2_2 N 0.4430(8) 0.7391(8) 0.2431(6)
O3_2 O 0.2026(7) 0.5988(7) 0.3298(5)
Co2 Co -0.03987(14) 0.13521(14) 0.17369(10)
C22 C 0.0395(12) 0.3946(11) 0.1148(9)
C23 C 0.0071(10) 0.5280(10) 0.1194(7)
C24 C 0.0933(11) 0.6199(11) 0.1151(8)
C25 C -0.1132(10) 0.5642(11) 0.1226(7)
C26 C 0.0591(10) 0.7351(11) 0.1158(7)
C27 C -0.1408(10) 0.6841(11) 0.1214(8)
C28 C -0.0577(10) 0.7716(10) 0.1185(6)
C29 C -0.0889(11) 0.9031(10) 0.1156(8)
C30 C 0.1245(11) -0.0084(12) 0.2635(8)
H15 H 0.1397 -0.0488 0.2197
C31 C 0.0342(11) 0.1411(11) 0.3290(8)
H16 H -0.0173 0.2054 0.3309
C32 C 0.1774(11) -0.0472(11) 0.3281(8)
H17 H 0.2269 -0.1132 0.3262
C33 C 0.0861(10) 0.1088(12) 0.3909(8)
H18 H 0.0734 0.1538 0.4322
C34 C 0.1578(10) 0.0100(12) 0.3936(7)
C35 C 0.2138(11) -0.0340(13) 0.4615(8)
H19 H 0.1845 -0.1164 0.4852
H20 H 0.1874 0.0145 0.5035
C36 C 0.3587(11) -0.0281(11) 0.4319(8)
H21 H 0.3910 -0.0658 0.4762
H22 H 0.3851 -0.0726 0.3877
C37 C 0.4101(11) 0.0999(11) 0.4033(8)
H23 H 0.3621 0.1431 0.3696
H24 H 0.4010 0.1382 0.4503
C38 C 0.5432(11) 0.1103(12) 0.3557(8)
C39 C 0.5879(11) 0.2104(12) 0.3008(8)
H25 H 0.5374 0.2746 0.2950
C40 C 0.6265(12) 0.0226(12) 0.3641(8)
H26 H 0.5999 -0.0469 0.4027
C41 C 0.7093(11) 0.2187(12) 0.2527(8)
H27 H 0.7361 0.2880 0.2138
C42 C 0.7439(11) 0.0332(12) 0.3193(8)
H28 H 0.7962 -0.0281 0.3287
N3 N 0.0534(8) 0.0848(9) 0.2645(6)
N4 N 0.7898(8) 0.1322(9) 0.2593(6)
O7 O -0.0189(8) 0.3186(8) 0.1728(5)
O8 O 0.1214(9) 0.3828(7) 0.0529(6)
O9 O -0.0628(8) 0.9528(7) 0.1684(5)
O10 O -0.1320(8) 0.9492(7) 0.0596(5)
O11 O -0.1410(8) 0.1796(8) 0.0824(5)
H33 H -0.110(5) 0.248(4) 0.046(3)
H34 H -0.139(7) 0.122(3) 0.051(3)
O12 O 0.1244(7) 0.1433(8) 0.0791(5)
H35 H 0.158(7) 0.2182(19) 0.051(5)
H36 H 0.127(5) 0.100(9) 0.038(4)
F5 F 0.2093(7) 0.5903(7) 0.1093(6)
F6 F -0.1997(6) 0.4830(6) 0.1258(5)
F7 F 0.1495(6) 0.8169(6) 0.1104(5)
F8 F -0.2572(6) 0.7118(6) 0.1212(5)
Co2_2 Co -0.03987(14) 1.13521(14) 0.17369(10)
Co2_3 Co 0.96013(14) 0.13521(14) 0.17369(10)
N4_2 N -0.2102(8) 0.1322(9) 0.2593(6)
O9_2 O -0.0628(8) -0.0472(7) 0.1684(5)
loop_
_geom_bond_atom_site_label_1
_geom_bond_atom_site_label_2
_geom_bond_site_symmetry_1
_geom_bond_site_symmetry_2
Co1 N1 1_555 1_555
Co2 N3 1_555 1_555
C1 C2 1_555 1_555
C2 C3 1_555 1_555
C3 C5 1_555 1_555
C4 C2 1_555 1_555
C5 C7 1_555 1_555
C6 C4 1_555 1_555
C7 C6 1_555 1_555
C8 C7 1_555 1_555
C9 H1 1_555 1_555
C10 H2 1_555 1_555
C11 C9 1_555 1_555
H3 C11 1_555 1_555
C12 C10 1_555 1_555
H4 C12 1_555 1_555
C13 C11 1_555 1_555
C14 C13 1_555 1_555
H5 C14 1_555 1_555
H6 C14 1_555 1_555
C15 C14 1_555 1_555
H7 C15 1_555 1_555
H8 C15 1_555 1_555
C16 C15 1_555 1_555
H9 C16 1_555 1_555
H10 C16 1_555 1_555
C17 C16 1_555 1_555
C18 C17 1_555 1_555
H11 C18 1_555 1_555
C19 C17 1_555 1_555
H12 C19 1_555 1_555
C20 C18 1_555 1_555
H13 C20 1_555 1_555
C21 C19 1_555 1_555
H14 C21 1_555 1_555
C22 C23 1_555 1_555
C23 C24 1_555 1_555
C24 C26 1_555 1_555
C25 C23 1_555 1_555
C26 C28 1_555 1_555
C27 C25 1_555 1_555
C28 C27 1_555 1_555
C29 C28 1_555 1_555
C30 H15 1_555 1_555
C31 H16 1_555 1_555
C32 C30 1_555 1_555
H17 C32 1_555 1_555
C33 C31 1_555 1_555
H18 C33 1_555 1_555
C34 C32 1_555 1_555
C35 C34 1_555 1_555
H19 C35 1_555 1_555
H20 C35 1_555 1_555
C36 C35 1_555 1_555
H21 C36 1_555 1_555
H22 C36 1_555 1_555
C37 C36 1_555 1_555
H23 C37 1_555 1_555
H24 C37 1_555 1_555
C38 C37 1_555 1_555
C39 C38 1_555 1_555
H25 C39 1_555 1_555
C40 C38 1_555 1_555
H26 C40 1_555 1_555
C41 C39 1_555 1_555
H27 C41 1_555 1_555
C42 C40 1_555 1_555
H28 C42 1_555 1_555
N1 C9 1_555 1_555
N2 C20 1_555 1_555
N3 C30 1_555 1_555
N4 C41 1_555 1_555
O1 Co1 1_555 1_555
O2 C1 1_555 1_555
O3 C8 1_555 1_555
O4 C8 1_555 1_555
O5 Co1 1_555 1_555
H29 O5 1_555 1_555
H30 O5 1_555 1_555
O6 Co1 1_555 1_555
H31 O6 1_555 1_555
H32 O6 1_555 1_555
O7 Co2 1_555 1_555
O8 C22 1_555 1_555
O9 C29 1_555 1_555
O10 C29 1_555 1_555
O11 Co2 1_555 1_555
H33 O11 1_555 1_555
H34 O11 1_555 1_555
O12 Co2 1_555 1_555
H35 O12 1_555 1_555
H36 O12 1_555 1_555
F1 C3 1_555 1_555
F2 C4 1_555 1_555
F3 C5 1_555 1_555
F4 C6 1_555 1_555
F5 C24 1_555 1_555
F6 C25 1_555 1_555
F7 C26 1_555 1_555
F8 C27 1_555 1_555
Co1_2 N2 1_555 1_555
Co1_3 O3 1_555 1_555
Co2_2 O9 1_555 1_555
Co2_3 N4 1_555 1_555
N2_2 Co1 1_555 1_555
N4_2 Co2 1_555 1_555
O3_2 Co1 1_555 1_555
O9_2 Co2 1_555 1_555
C1 O1 1_555 1_555
C10 N1 1_555 1_555
C12 C13 1_555 1_555
C21 N2 1_555 1_555
C22 O7 1_555 1_555
C31 N3 1_555 1_555
C33 C34 1_555 1_555
C42 N4 1_555 1_555

#END
