
#######################################################################
#
#                 Cambridge Crystallographic Data Centre
#                                CCDC 
#
#######################################################################
#
# If this CIF has been generated from an entry in the Cambridge 
# Structural Database, then it will include bibliographic, chemical, 
# crystal, experimental, refinement or atomic coordinate data resulting 
# from the CCDC's data processing and validation procedures.
#
#######################################################################

data_MUQCIL
_symmetry_cell_setting           monoclinic
_symmetry_space_group_name_H-M   'P 21/n'
_symmetry_Int_Tables_number      14
_space_group_name_Hall           '-P 2yn'
loop_
_symmetry_equiv_pos_site_id
_symmetry_equiv_pos_as_xyz
1 x,y,z
2 1/2-x,1/2+y,1/2-z
3 -x,-y,-z
4 1/2+x,1/2-y,1/2+z
_cell_length_a                   10.665(2)
_cell_length_b                   8.0467(16)
_cell_length_c                   23.644(4)
_cell_angle_alpha                90
_cell_angle_beta                 92.984(5)
_cell_angle_gamma                90
_cell_volume                     2026.33
loop_
_atom_site_label
_atom_site_type_symbol
_atom_site_fract_x
_atom_site_fract_y
_atom_site_fract_z
Cu1 Cu -0.02220(9) 0.27697(13) 0.75235(4)
C1 C 0.1327(8) 0.5005(12) 0.8209(3)
C2 C 0.2496(7) 0.5308(10) 0.8589(3)
C3 C 0.3699(8) 0.5230(10) 0.8409(3)
C4 C 0.2410(8) 0.5812(11) 0.9141(4)
C5 C 0.4766(8) 0.5665(10) 0.8713(3)
C6 C 0.4589(9) 0.6162(10) 0.9267(3)
C7 C 0.3442(9) 0.6207(10) 0.9480(3)
C8 C 0.6064(8) 0.5658(11) 0.8479(4)
C9 C 0.1807(8) 0.4003(10) 0.6862(3)
H1 H 0.2289 0.3367 0.7120
C10 C -0.0081(9) 0.4963(11) 0.6531(3)
H2 H -0.0948 0.5022 0.6554
C11 C 0.2408(8) 0.4841(10) 0.6456(3)
H3 H 0.3277 0.4768 0.6447
C12 C 0.0457(9) 0.5831(11) 0.6105(3)
H4 H -0.0038 0.6447 0.5847
C13 C 0.1768(8) 0.5772(11) 0.6067(3)
C14 C 0.2410(9) 0.6661(11) 0.5604(3)
H5 H 0.3191 0.7135 0.5759
H6 H 0.1881 0.7567 0.5464
C15 C 0.2694(9) 0.5506(11) 0.5107(3)
H7 H 0.3184 0.4565 0.5248
H8 H 0.1911 0.5085 0.4935
C16 C 0.3403(9) 0.6398(12) 0.4667(3)
H9 H 0.4210 0.6746 0.4835
H10 H 0.2942 0.7392 0.4552
C17 C 0.3619(8) 0.5362(11) 0.4146(3)
C18 C 0.3636(9) 0.3661(12) 0.4129(4)
H11 H 0.3449 0.3059 0.4450
C19 C 0.3877(8) 0.6158(12) 0.3638(3)
H12 H 0.3880 0.7313 0.3620
C20 C 0.3922(8) 0.2839(13) 0.3650(4)
H13 H 0.3948 0.1684 0.3661
C21 C 0.4124(8) 0.5236(11) 0.3167(3)
H14 H 0.4270 0.5798 0.2833
N1 N 0.0567(6) 0.4039(9) 0.6913(3)
N2 N 0.4166(6) 0.3590(10) 0.3163(3)
O1 O 0.1147(5) 0.3508(7) 0.8065(2)
O2 O 0.0700(6) 0.6195(9) 0.8072(3)
O3 O 0.6212(5) 0.6371(8) 0.8009(2)
O4 O 0.6885(7) 0.4975(11) 0.8756(3)
O5 O -0.1486(6) 0.5010(9) 0.7608(3)
H15 H -0.196(9) 0.493(8) 0.792(3)
H16 H -0.102(6) 0.596(6) 0.766(4)
F1 F 0.3808(5) 0.4784(7) 0.78558(19)
F2 F 0.1283(5) 0.5933(7) 0.9369(2)
F3 F 0.5580(5) 0.6640(7) 0.9601(2)
F4 F 0.3328(5) 0.6709(7) 1.00193(18)
Cu1A Cu 0.52220(9) 0.77697(13) 0.74765(4)
Cu1C Cu 0.47780(9) 0.22303(13) 0.25235(4)
N2C N -0.0834(6) 0.1410(10) 0.8163(3)
O3A O -0.1212(5) 0.1371(8) 0.6991(2)
loop_
_geom_bond_atom_site_label_1
_geom_bond_atom_site_label_2
_geom_bond_site_symmetry_1
_geom_bond_site_symmetry_2
Cu1 N1 1_555 1_555
C1 C2 1_555 1_555
C2 C3 1_555 1_555
C3 C5 1_555 1_555
C4 C2 1_555 1_555
C5 C6 1_555 1_555
C6 C7 1_555 1_555
C7 C4 1_555 1_555
C8 C5 1_555 1_555
C9 H1 1_555 1_555
C10 H2 1_555 1_555
C11 C9 1_555 1_555
H3 C11 1_555 1_555
C12 C10 1_555 1_555
H4 C12 1_555 1_555
C13 C11 1_555 1_555
C14 C13 1_555 1_555
H5 C14 1_555 1_555
H6 C14 1_555 1_555
C15 C14 1_555 1_555
H7 C15 1_555 1_555
H8 C15 1_555 1_555
C16 C15 1_555 1_555
H9 C16 1_555 1_555
H10 C16 1_555 1_555
C17 C16 1_555 1_555
C18 C17 1_555 1_555
H11 C18 1_555 1_555
C19 C17 1_555 1_555
H12 C19 1_555 1_555
C20 C18 1_555 1_555
H13 C20 1_555 1_555
C21 C19 1_555 1_555
H14 C21 1_555 1_555
N1 C9 1_555 1_555
N2 C20 1_555 1_555
O1 Cu1 1_555 1_555
O2 C1 1_555 1_555
O3 C8 1_555 1_555
O4 C8 1_555 1_555
O5 Cu1 1_555 1_555
H15 O5 1_555 1_555
H16 O5 1_555 1_555
F1 C3 1_555 1_555
F2 C4 1_555 1_555
F3 C6 1_555 1_555
F4 C7 1_555 1_555
Cu1A O3 1_555 1_555
Cu1C N2 1_555 1_555
N2C Cu1 1_555 1_555
O3A Cu1 1_555 1_555
C1 O1 1_555 1_555
C10 N1 1_555 1_555
C12 C13 1_555 1_555
C21 N2 1_555 1_555

#END
