
#######################################################################
#
#                 Cambridge Crystallographic Data Centre
#                                CCDC 
#
#######################################################################
#
# If this CIF has been generated from an entry in the Cambridge 
# Structural Database, then it will include bibliographic, chemical, 
# crystal, experimental, refinement or atomic coordinate data resulting 
# from the CCDC's data processing and validation procedures.
#
#######################################################################

data_MUQDOS
_symmetry_cell_setting           monoclinic
_symmetry_space_group_name_H-M   'C 2/c'
_symmetry_Int_Tables_number      15
_space_group_name_Hall           '-C 2yn'
loop_
_symmetry_equiv_pos_site_id
_symmetry_equiv_pos_as_xyz
1 x,y,z
2 -x,y,1/2-z
3 1/2+x,1/2+y,z
4 1/2-x,1/2+y,1/2-z
5 -x,-y,-z
6 x,-y,1/2+z
7 1/2-x,1/2-y,-z
8 1/2+x,1/2-y,1/2+z
_cell_length_a                   30.939(7)
_cell_length_b                   10.454(2)
_cell_length_c                   17.214(4)
_cell_angle_alpha                90
_cell_angle_beta                 119.258(3)
_cell_angle_gamma                90
_cell_volume                     4857.36
loop_
_atom_site_label
_atom_site_type_symbol
_atom_site_fract_x
_atom_site_fract_y
_atom_site_fract_z
Zn1 Zn 0.879186(15) 0.20540(4) 0.81365(3)
C1 C 0.86496(15) 0.0227(4) 0.6901(3)
C2 C 0.84900(13) -0.1035(3) 0.6403(2)
C3 C 0.81527(14) -0.1845(4) 0.6460(2)
C4 C 0.79984(14) -0.2960(4) 0.5973(3)
C5 C 0.81758(14) -0.3286(4) 0.5413(2)
C6 C 0.85168(13) -0.2531(4) 0.5325(2)
C7 C 0.86610(13) -0.1423(4) 0.5830(2)
C8 C 0.87056(15) -0.2851(4) 0.4677(2)
C9 C 0.77869(17) 0.3186(5) 0.6644(4)
H1 H 0.7983 0.3828 0.6604
C10 C 0.77101(15) 0.1427(4) 0.7306(3)
H2 H 0.7852 0.0801 0.7743
C11 C 0.72873(18) 0.3213(6) 0.6058(4)
H3 H 0.7155 0.3854 0.5630
C12 C 0.72051(15) 0.1382(4) 0.6746(3)
H4 H 0.7017 0.0736 0.6807
C13 C 0.69824(15) 0.2293(4) 0.6102(3)
C14 C 0.64332(16) 0.2311(5) 0.5471(4)
H5 H 0.6375 0.2364 0.4865
H6 H 0.6290 0.1516 0.5529
C15 C 0.61808(16) 0.3398(5) 0.5638(4)
H7 H 0.6309 0.4191 0.5538
H8 H 0.6261 0.3380 0.6257
C16 C 0.56244(14) 0.3384(4) 0.5058(3)
C17 C 0.53168(15) 0.3464(4) 0.5424(3)
H9 H 0.5451 0.3562 0.6036
C18 C 0.53969(16) 0.3308(5) 0.4136(3)
H10 H 0.5586 0.3294 0.3851
C19 C 0.48119(15) 0.3398(4) 0.4888(3)
H11 H 0.4613 0.3448 0.5153
C20 C 0.48910(14) 0.3255(4) 0.3651(3)
H12 H 0.4746 0.3207 0.3034
C21 C 0.89786(15) 0.3934(4) 0.6975(3)
H13 H 0.8796 0.3346 0.6527
C22 C 0.92760(17) 0.4627(4) 0.8393(3)
H14 H 0.9303 0.4542 0.8953
C23 C 0.92006(15) 0.4930(4) 0.6780(3)
H15 H 0.9163 0.5005 0.6211
C24 C 0.95111(17) 0.5634(4) 0.8246(3)
H16 H 0.9696 0.6204 0.8705
C25 C 0.94755(14) 0.5808(4) 0.7417(3)
C26 C 0.97181(14) 0.6925(4) 0.7226(3)
H17 H 0.9594 0.7712 0.7342
H18 H 0.9623 0.6915 0.6599
N1 N 0.80041(12) 0.2294(3) 0.7262(2)
N2 N 0.45924(11) 0.3266(3) 0.4004(2)
N3 N 0.90106(11) 0.3765(3) 0.7770(2)
F1 F 0.79513(9) -0.1549(2) 0.69679(16)
F2 F 0.76634(10) -0.3710(2) 0.60372(18)
F3 F 0.80116(10) -0.4364(2) 0.49421(17)
F4 F 0.90160(8) -0.0721(2) 0.58037(15)
O1 O 0.87304(10) 0.0230(3) 0.76889(17)
O2 O 0.86834(16) 0.1151(3) 0.6506(3)
O3 O 0.86583(10) -0.1960(3) 0.41519(16)
O4 O 0.88963(16) -0.3891(3) 0.4743(3)
Zn1G Zn 1.379186(15) 0.29460(4) 1.31365(3)
Zn1G_2 Zn 0.379186(15) 0.29460(4) 0.31365(3)
Zn1E Zn 0.879186(15) -0.20540(4) 0.31365(3)
Zn1A Zn 1.120814(15) 0.20540(4) 0.68635(3)
Zn1E_2 Zn 0.879186(15) -0.20540(4) 1.31365(3)
C1E C 0.86496(15) -0.0227(4) 1.1901(3)
C2E C 0.84900(13) 0.1035(3) 1.1403(2)
C3E C 0.81527(14) 0.1845(4) 1.1460(2)
C4E C 0.79984(14) 0.2960(4) 1.0973(3)
C5E C 0.81758(14) 0.3286(4) 1.0413(2)
C6E C 0.85168(13) 0.2531(4) 1.0325(2)
C7E C 0.86610(13) 0.1423(4) 1.0830(2)
C8E C 0.87056(15) 0.2851(4) 0.9677(2)
C9G C 1.27869(17) 0.1814(5) 1.1644(4)
H1G H 1.2983 0.1172 1.1604
C10G C 1.27101(15) 0.3573(4) 1.2306(3)
H2G H 1.2852 0.4199 1.2743
C11G C 1.22873(18) 0.1787(6) 1.1058(4)
H3G H 1.2155 0.1146 1.0630
C12G C 1.22051(15) 0.3618(4) 1.1746(3)
H4G H 1.2017 0.4264 1.1807
C13G C 1.19824(15) 0.2707(4) 1.1102(3)
C14G C 1.14332(16) 0.2689(5) 1.0471(4)
H5G H 1.1375 0.2636 0.9865
H6G H 1.1290 0.3484 1.0529
C15G C 1.11808(16) 0.1602(5) 1.0638(4)
H7G H 1.1309 0.0809 1.0538
H8G H 1.1261 0.1620 1.1257
C16G C 1.06244(14) 0.1616(4) 1.0058(3)
C17G C 1.03168(15) 0.1536(4) 1.0424(3)
H9G H 1.0451 0.1438 1.1036
C18G C 1.03969(16) 0.1692(5) 0.9136(3)
H10G H 1.0586 0.1706 0.8851
C19G C 0.98119(15) 0.1602(4) 0.9888(3)
H11G H 0.9613 0.1552 1.0153
C20G C 0.98910(14) 0.1745(4) 0.8651(3)
H12G H 0.9746 0.1793 0.8034
C21A C 1.10214(15) 0.3934(4) 0.8025(3)
H13A H 1.1204 0.3346 0.8473
C22A C 1.07240(17) 0.4627(4) 0.6607(3)
H14A H 1.0697 0.4542 0.6047
C23A C 1.07994(15) 0.4930(4) 0.8220(3)
H15A H 1.0837 0.5005 0.8789
C24A C 1.04889(17) 0.5634(4) 0.6754(3)
H16A H 1.0304 0.6204 0.6295
C25A C 1.05245(14) 0.5808(4) 0.7583(3)
C26A C 1.02819(14) 0.6925(4) 0.7774(3)
H17A H 1.0406 0.7712 0.7658
H18A H 1.0377 0.6915 0.8401
N1G N 1.30041(12) 0.2706(3) 1.2262(2)
N2G N 0.95924(11) 0.1734(3) 0.9004(2)
N2_2 N 1.45924(11) 0.3266(3) 1.4004(2)
N3A N 1.09894(11) 0.3765(3) 0.7230(2)
N3G N 1.40106(11) 0.1235(3) 1.2770(2)
F1E F 0.79513(9) 0.1549(2) 1.19679(16)
F2E F 0.76634(10) 0.3710(2) 1.10372(18)
F3E F 0.80116(10) 0.4364(2) 0.99421(17)
F4E F 0.90160(8) 0.0721(2) 1.08037(15)
O1E O 0.87304(10) -0.0230(3) 1.26889(17)
O1G O 1.37304(10) 0.4770(3) 1.26889(17)
O2E O 0.86834(16) -0.1151(3) 1.1506(3)
O3E O 0.86583(10) 0.1960(3) 0.91519(16)
O3B O 1.36583(10) 0.3040(3) 1.41519(16)
O4E O 0.88963(16) 0.3891(3) 0.9743(3)
loop_
_geom_bond_atom_site_label_1
_geom_bond_atom_site_label_2
_geom_bond_site_symmetry_1
_geom_bond_site_symmetry_2
Zn1 N1 1_555 1_555
C1 C2 1_555 1_555
C2 C3 1_555 1_555
C3 C4 1_555 1_555
C4 C5 1_555 1_555
C5 C6 1_555 1_555
C6 C7 1_555 1_555
C7 C2 1_555 1_555
C8 C6 1_555 1_555
C9 H1 1_555 1_555
C10 H2 1_555 1_555
C11 C9 1_555 1_555
H3 C11 1_555 1_555
C12 C10 1_555 1_555
H4 C12 1_555 1_555
C13 C11 1_555 1_555
C14 C13 1_555 1_555
H5 C14 1_555 1_555
H6 C14 1_555 1_555
C15 C14 1_555 1_555
H7 C15 1_555 1_555
H8 C15 1_555 1_555
C16 C15 1_555 1_555
C17 C16 1_555 1_555
H9 C17 1_555 1_555
C18 C16 1_555 1_555
H10 C18 1_555 1_555
C19 C17 1_555 1_555
H11 C19 1_555 1_555
C20 C18 1_555 1_555
H12 C20 1_555 1_555
C21 H13 1_555 1_555
C22 H14 1_555 1_555
C23 C21 1_555 1_555
H15 C23 1_555 1_555
C24 C22 1_555 1_555
H16 C24 1_555 1_555
C25 C23 1_555 1_555
C26 C25 1_555 1_555
H17 C26 1_555 1_555
H18 C26 1_555 1_555
N1 C9 1_555 1_555
N2 C19 1_555 1_555
N3 Zn1 1_555 1_555
F1 C3 1_555 1_555
F2 C4 1_555 1_555
F3 C5 1_555 1_555
F4 C7 1_555 1_555
O1 Zn1 1_555 1_555
O2 C1 1_555 1_555
O3 C8 1_555 1_555
O4 C8 1_555 1_555
Zn1G N1G 1_555 1_555
Zn1G_2 N2 1_555 1_555
Zn1E O3 1_555 1_555
Zn1A N3A 1_555 1_555
Zn1E_2 O1E 1_555 1_555
C1E C2E 1_555 1_555
C2E C3E 1_555 1_555
C3E C4E 1_555 1_555
C4E C5E 1_555 1_555
C5E C6E 1_555 1_555
C6E C7E 1_555 1_555
C7E C2E 1_555 1_555
C8E C6E 1_555 1_555
C9G H1G 1_555 1_555
C10G H2G 1_555 1_555
C11G C9G 1_555 1_555
H3G C11G 1_555 1_555
C12G C10G 1_555 1_555
H4G C12G 1_555 1_555
C13G C11G 1_555 1_555
C14G C13G 1_555 1_555
H5G C14G 1_555 1_555
H6G C14G 1_555 1_555
C15G C14G 1_555 1_555
H7G C15G 1_555 1_555
H8G C15G 1_555 1_555
C16G C15G 1_555 1_555
C17G C16G 1_555 1_555
H9G C17G 1_555 1_555
C18G C16G 1_555 1_555
H10G C18G 1_555 1_555
C19G C17G 1_555 1_555
H11G C19G 1_555 1_555
C20G C18G 1_555 1_555
H12G C20G 1_555 1_555
C21A H13A 1_555 1_555
C22A H14A 1_555 1_555
C23A C21A 1_555 1_555
H15A C23A 1_555 1_555
C24A C22A 1_555 1_555
H16A C24A 1_555 1_555
C25A C23A 1_555 1_555
C26A C26 1_555 1_555
H17A C26A 1_555 1_555
H18A C26A 1_555 1_555
N1G C9G 1_555 1_555
N2G Zn1 1_555 1_555
N2_2 Zn1G 1_555 1_555
N3A C21A 1_555 1_555
N3G Zn1G 1_555 1_555
F1E C3E 1_555 1_555
F2E C4E 1_555 1_555
F3E C5E 1_555 1_555
F4E C7E 1_555 1_555
O1E C1E 1_555 1_555
O1G Zn1G 1_555 1_555
O2E C1E 1_555 1_555
O3E Zn1 1_555 1_555
O3B Zn1G 1_555 1_555
O4E C8E 1_555 1_555
C1 O1 1_555 1_555
C10 N1 1_555 1_555
C12 C13 1_555 1_555
C20 N2 1_555 1_555
C21 N3 1_555 1_555
C22 N3 1_555 1_555
C24 C25 1_555 1_555
C8E O3E 1_555 1_555
C10G N1G 1_555 1_555
C12G C13G 1_555 1_555
C19G N2G 1_555 1_555
C20G N2G 1_555 1_555
C22A N3A 1_555 1_555
C24A C25A 1_555 1_555
C25A C26A 1_555 1_555

#END
