
#######################################################################
#
#                 Cambridge Crystallographic Data Centre
#                                CCDC 
#
#######################################################################
#
# If this CIF has been generated from an entry in the Cambridge 
# Structural Database, then it will include bibliographic, chemical, 
# crystal, experimental, refinement or atomic coordinate data resulting 
# from the CCDC's data processing and validation procedures.
#
#######################################################################

data_MUQDEI
_symmetry_cell_setting           triclinic
_symmetry_space_group_name_H-M   'P -1'
_symmetry_Int_Tables_number      2
_space_group_name_Hall           '-P 1'
loop_
_symmetry_equiv_pos_site_id
_symmetry_equiv_pos_as_xyz
1 x,y,z
2 -x,-y,-z
_cell_length_a                   9.558(3)
_cell_length_b                   10.492(4)
_cell_length_c                   15.180(5)
_cell_angle_alpha                105.058(5)
_cell_angle_beta                 97.070(6)
_cell_angle_gamma                91.781(6)
_cell_volume                     1455.68
loop_
_atom_site_label
_atom_site_type_symbol
_atom_site_fract_x
_atom_site_fract_y
_atom_site_fract_z
Cu1 Cu 0.50482(10) 0.98050(8) 0.27985(6)
Cu2 Cu -0.40621(10) 0.05036(9) 0.09201(6)
C1 C 0.5147(8) 1.2130(7) 0.4314(6)
C2 C 0.5087(9) 1.3624(7) 0.4644(5)
C3 C 0.3800(8) 1.4208(8) 0.4686(5)
C4 C 0.6279(9) 1.4458(8) 0.4966(6)
C5 C 0.5200(7) 0.7826(7) 0.0988(5)
C6 C 0.5101(8) 0.6359(7) 0.0469(5)
C7 C 0.6097(9) 0.5818(7) -0.0085(5)
C8 C 0.4019(9) 0.5526(7) 0.0537(6)
C9 C 0.7946(8) 1.0698(7) 0.2828(5)
C10 C 0.9172(8) 1.0686(7) 0.2265(5)
C11 C 0.9439(8) 0.9517(8) 0.1647(5)
C12 C 1.0134(9) 1.1748(7) 0.2398(5)
C13 C 1.0599(8) 0.9439(7) 0.1181(5)
C14 C 1.1282(8) 1.1666(7) 0.1908(5)
C15 C 1.1539(8) 1.0505(7) 0.1292(5)
C16 C 1.2845(8) 1.0355(7) 0.0808(5)
C17 C 0.2342(8) 0.9908(8) 0.3558(5)
H1 H 0.2469 1.0815 0.3634
C18 C 0.3041(9) 0.7822(7) 0.3060(6)
H2 H 0.3678 0.7252 0.2779
C19 C 0.1216(8) 0.9438(7) 0.3875(5)
H3 H 0.0591 1.0031 0.4147
C20 C 0.1939(9) 0.7280(8) 0.3362(6)
H4 H 0.1829 0.6370 0.3273
C21 C 0.0974(8) 0.8111(8) 0.3807(5)
C22 C -0.0195(9) 0.7595(8) 0.4210(6)
H5 H -0.0893 0.8252 0.4301
H6 H 0.0184 0.7507 0.4812
C23 C -0.0948(9) 0.6273(8) 0.3655(6)
H7 H -0.1599 0.5987 0.4019
H8 H -0.0256 0.5615 0.3533
C24 C -0.1764(10) 0.6352(8) 0.2741(6)
H9 H -0.2486 0.6981 0.2859
H10 H -0.1124 0.6661 0.2380
C25 C -0.2438(9) 0.5024(7) 0.2213(6)
C26 C -0.1841(10) 0.4214(8) 0.1516(6)
H11 H -0.1044 0.4527 0.1322
C27 C -0.3628(9) 0.4506(8) 0.2455(6)
H12 H -0.4093 0.5022 0.2911
C28 C -0.2394(9) 0.2964(8) 0.1105(6)
H13 H -0.1979 0.2459 0.0619
C29 C -0.4138(9) 0.3201(8) 0.2017(6)
H14 H -0.4946 0.2868 0.2188
N1 N 0.3274(7) 0.9124(6) 0.3141(4)
N2 N -0.3504(7) 0.2419(6) 0.1363(4)
O1 O 0.4864(6) 1.1660(5) 0.3444(3)
O2 O 0.5440(7) 1.1521(6) 0.4875(4)
O3 O 0.5003(6) 0.8096(5) 0.1799(4)
O4 O 0.5499(6) 0.8605(4) 0.0513(3)
O5 O 0.6732(5) 1.0343(5) 0.2326(3)
O6 O 0.8195(6) 1.0994(6) 0.3649(4)
O7 O 1.4005(5) 1.0741(5) 0.1307(3)
O8 O 1.2639(5) 0.9827(5) -0.0044(3)
O9 O 0.6331(7) 0.8960(6) 0.3868(4)
H15 H 0.692(5) 0.962(4) 0.413(3)
H16 H 0.574(4) 0.897(6) 0.424(3)
F1 F 0.2596(5) 1.3429(4) 0.4386(4)
F2 F 0.7555(5) 1.3967(4) 0.4926(4)
F3 F 0.7193(6) 0.6549(4) -0.0174(4)
F4 F 0.2979(6) 0.5987(5) 0.1023(4)
F5 F 0.8585(5) 0.8428(4) 0.1510(3)
F6 F 0.9927(5) 1.2908(4) 0.2974(3)
F7 F 1.0790(5) 0.8250(4) 0.0622(4)
F8 F 1.2132(5) 1.2748(4) 0.2045(3)
Cu1A Cu 0.49518(10) 0.01950(8) -0.27985(6)
Cu1A_2 Cu 0.49518(10) 2.01950(8) 0.72015(6)
Cu1_2 Cu -0.49518(10) -0.01950(8) 0.27985(6)
Cu2_2 Cu 0.59379(10) 1.05036(9) 0.09201(6)
Cu2_3 Cu 1.59379(10) 1.05036(9) 0.09201(6)
Cu2A Cu 1.40621(10) 0.94964(9) -0.09201(6)
Cu2A_2 Cu 0.40621(10) -0.05036(9) -0.09201(6)
Cu2_4 Cu 0.59379(10) 0.05036(9) 0.09201(6)
C1A C 0.4853(8) 1.7870(7) 0.5686(6)
C2A C 0.4913(9) 1.6376(7) 0.5356(5)
C3A C 0.6200(8) 1.5792(8) 0.5314(5)
C4A C 0.3721(9) 1.5542(8) 0.5034(6)
C5A C 0.4800(7) 0.2174(7) -0.0988(5)
C6A C 0.4899(8) 0.3641(7) -0.0469(5)
C7A C 0.3903(9) 0.4182(7) 0.0085(5)
C8A C 0.5981(9) 0.4474(7) -0.0537(6)
C9_2 C -0.2054(8) 0.0698(7) 0.2828(5)
C10_2 C -0.0828(8) 0.0686(7) 0.2265(5)
C11_2 C -0.0561(8) -0.0483(8) 0.1647(5)
C12_2 C 0.0134(9) 0.1748(7) 0.2398(5)
C13_2 C 0.0599(8) -0.0561(7) 0.1181(5)
C14_2 C 0.1282(8) 0.1666(7) 0.1908(5)
C15_2 C 0.1539(8) 0.0505(7) 0.1292(5)
C16_2 C 0.2845(8) 0.0355(7) 0.0808(5)
C17A C 0.7658(8) 0.0092(8) -0.3558(5)
H1A H 0.7531 -0.0815 -0.3634
C18A C 0.6959(9) 0.2178(7) -0.3060(6)
H2A H 0.6322 0.2748 -0.2779
C19A C 0.8784(8) 0.0562(7) -0.3875(5)
H3A H 0.9409 -0.0031 -0.4147
C20A C 0.8061(9) 0.2720(8) -0.3362(6)
H4A H 0.8171 0.3630 -0.3273
C21A C 0.9026(8) 0.1889(8) -0.3807(5)
C22A C 1.0195(9) 0.2405(8) -0.4210(6)
H5A H 1.0893 0.1748 -0.4301
H6A H 0.9816 0.2493 -0.4812
C23A C 1.0948(9) 0.3727(8) -0.3655(6)
H7A H 1.1599 0.4013 -0.4019
H8A H 1.0256 0.4385 -0.3533
C24A C 1.1764(10) 0.3648(8) -0.2741(6)
H9A H 1.2486 0.3019 -0.2859
H10A H 1.1124 0.3339 -0.2380
C25A C 1.2438(9) 0.4976(7) -0.2213(6)
C26A C 1.1841(10) 0.5786(8) -0.1516(6)
H11A H 1.1044 0.5473 -0.1322
C27A C 1.3628(9) 0.5494(8) -0.2455(6)
H12A H 1.4093 0.4978 -0.2911
C28A C 1.2394(9) 0.7036(8) -0.1105(6)
H13A H 1.1979 0.7541 -0.0619
C29A C 1.4138(9) 0.6799(8) -0.2017(6)
H14A H 1.4946 0.7132 -0.2188
N1A N 0.6726(7) 0.0876(6) -0.3141(4)
N2A N 1.3504(7) 0.7581(6) -0.1363(4)
N2_2 N 0.6496(7) 1.2419(6) 0.1363(4)
O1A O 0.5136(6) 1.8340(5) 0.6556(3)
O1A_2 O 0.5136(6) -0.1660(5) -0.3444(3)
O2A O 0.4560(7) 1.8479(6) 0.5125(4)
O3A O 0.4997(6) 0.1904(5) -0.1799(4)
O4A O 0.4501(6) 0.1395(4) -0.0513(3)
O4_2 O -0.4501(6) -0.1395(4) 0.0513(3)
O5_2 O -0.3268(5) 0.0343(5) 0.2326(3)
O5A O 0.3268(5) -0.0343(5) -0.2326(3)
O6_2 O -0.1805(6) 0.0994(6) 0.3649(4)
O7_2 O 0.4005(5) 0.0741(5) 0.1307(3)
O7_3 O -0.5995(5) 0.0741(5) 0.1307(3)
O7_4 O 0.4005(5) 1.0741(5) 0.1307(3)
O8_2 O 0.2639(5) -0.0173(5) -0.0044(3)
O8A O -0.2639(5) 0.0173(5) 0.0044(3)
O8A_2 O 0.7361(5) 1.0173(5) 0.0044(3)
O9A O 0.3669(7) 0.1040(6) -0.3868(4)
H15A H 0.308(5) 0.038(4) -0.413(3)
H16A H 0.426(4) 0.103(6) -0.424(3)
F1A F 0.7404(5) 1.6571(4) 0.5614(4)
F2A F 0.2445(5) 1.6033(4) 0.5074(4)
F3A F 0.2807(6) 0.3451(4) 0.0174(4)
F4A F 0.7021(6) 0.4013(5) -0.1023(4)
F5_2 F -0.1415(5) -0.1572(4) 0.1510(3)
F6_2 F -0.0073(5) 0.2908(4) 0.2974(3)
F7_2 F 0.0790(5) -0.1750(4) 0.0622(4)
F8_2 F 0.2132(5) 0.2748(4) 0.2045(3)
loop_
_geom_bond_atom_site_label_1
_geom_bond_atom_site_label_2
_geom_bond_site_symmetry_1
_geom_bond_site_symmetry_2
Cu1 N1 1_555 1_555
Cu2 N2 1_555 1_555
C1 C2 1_555 1_555
C2 C3 1_555 1_555
C3 F1 1_555 1_555
C4 C2 1_555 1_555
C5 C6 1_555 1_555
C6 C7 1_555 1_555
C7 F3 1_555 1_555
C8 C6 1_555 1_555
C9 C10 1_555 1_555
C10 C11 1_555 1_555
C11 C13 1_555 1_555
C12 C10 1_555 1_555
C13 C15 1_555 1_555
C14 C12 1_555 1_555
C15 C14 1_555 1_555
C16 C15 1_555 1_555
C17 H1 1_555 1_555
C18 H2 1_555 1_555
C19 C17 1_555 1_555
H3 C19 1_555 1_555
C20 C18 1_555 1_555
H4 C20 1_555 1_555
C21 C19 1_555 1_555
C22 C21 1_555 1_555
H5 C22 1_555 1_555
H6 C22 1_555 1_555
C23 C22 1_555 1_555
H7 C23 1_555 1_555
H8 C23 1_555 1_555
C24 C23 1_555 1_555
H9 C24 1_555 1_555
H10 C24 1_555 1_555
C25 C24 1_555 1_555
C26 C25 1_555 1_555
H11 C26 1_555 1_555
C27 C25 1_555 1_555
H12 C27 1_555 1_555
C28 C26 1_555 1_555
H13 C28 1_555 1_555
C29 C27 1_555 1_555
H14 C29 1_555 1_555
N1 C17 1_555 1_555
N2 C28 1_555 1_555
O1 Cu1 1_555 1_555
O2 C1 1_555 1_555
O3 Cu1 1_555 1_555
O4 C5 1_555 1_555
O5 Cu1 1_555 1_555
O6 C9 1_555 1_555
O7 C16 1_555 1_555
O8 C16 1_555 1_555
O9 Cu1 1_555 1_555
H15 O9 1_555 1_555
H16 O9 1_555 1_555
F2 C4 1_555 1_555
F4 C8 1_555 1_555
F5 C11 1_555 1_555
F6 C12 1_555 1_555
F7 C13 1_555 1_555
F8 C14 1_555 1_555
Cu1A N1A 1_555 1_555
Cu1A_2 O1A 1_555 1_555
Cu1_2 O5_2 1_555 1_555
Cu2_2 O4 1_555 1_555
Cu2_3 O7 1_555 1_555
Cu2A O8 1_555 1_555
Cu2A_2 O4A 1_555 1_555
Cu2_4 O7_2 1_555 1_555
C1A C2A 1_555 1_555
C2A C3A 1_555 1_555
C3A C4 1_555 1_555
C4A C3 1_555 1_555
C5A C6A 1_555 1_555
C6A C7A 1_555 1_555
C7A C8 1_555 1_555
C8A C7 1_555 1_555
C9_2 C10_2 1_555 1_555
C10_2 C11_2 1_555 1_555
C11_2 C13_2 1_555 1_555
C12_2 C10_2 1_555 1_555
C13_2 C15_2 1_555 1_555
C14_2 C12_2 1_555 1_555
C15_2 C14_2 1_555 1_555
C16_2 C15_2 1_555 1_555
C17A H1A 1_555 1_555
C18A H2A 1_555 1_555
C19A C17A 1_555 1_555
H3A C19A 1_555 1_555
C20A C18A 1_555 1_555
H4A C20A 1_555 1_555
C21A C19A 1_555 1_555
C22A C21A 1_555 1_555
H5A C22A 1_555 1_555
H6A C22A 1_555 1_555
C23A C22A 1_555 1_555
H7A C23A 1_555 1_555
H8A C23A 1_555 1_555
C24A C23A 1_555 1_555
H9A C24A 1_555 1_555
H10A C24A 1_555 1_555
C25A C24A 1_555 1_555
C26A C25A 1_555 1_555
H11A C26A 1_555 1_555
C27A C25A 1_555 1_555
H12A C27A 1_555 1_555
C28A C26A 1_555 1_555
H13A C28A 1_555 1_555
C29A C27A 1_555 1_555
H14A C29A 1_555 1_555
N1A C17A 1_555 1_555
N2A Cu2A 1_555 1_555
N2_2 Cu2_2 1_555 1_555
O1A C1A 1_555 1_555
O1A_2 Cu1A 1_555 1_555
O2A C1A 1_555 1_555
O3A Cu1A 1_555 1_555
O4A C5A 1_555 1_555
O4_2 Cu2 1_555 1_555
O5_2 Cu2 1_555 1_555
O5A Cu1A 1_555 1_555
O6_2 C9_2 1_555 1_555
O7_2 C16_2 1_555 1_555
O7_3 Cu2 1_555 1_555
O7_4 Cu2_2 1_555 1_555
O8_2 Cu2A_2 1_555 1_555
O8A Cu2 1_555 1_555
O8A_2 Cu2_2 1_555 1_555
O9A Cu1A 1_555 1_555
H15A O9A 1_555 1_555
H16A O9A 1_555 1_555
F1A C3A 1_555 1_555
F2A C4A 1_555 1_555
F3A C7A 1_555 1_555
F4A C8A 1_555 1_555
F5_2 C11_2 1_555 1_555
F6_2 C12_2 1_555 1_555
F7_2 C13_2 1_555 1_555
F8_2 C14_2 1_555 1_555
C1 O1 1_555 1_555
C5 O3 1_555 1_555
C9 O5 1_555 1_555
C18 N1 1_555 1_555
C20 C21 1_555 1_555
C29 N2 1_555 1_555
O5 Cu2_2 1_555 1_555
Cu2A_2 O5A 1_555 1_555
C2A C4A 1_555 1_555
C5A O3A 1_555 1_555
C6A C8A 1_555 1_555
C9_2 O5_2 1_555 1_555
C16_2 O8_2 1_555 1_555
C18A N1A 1_555 1_555
C20A C21A 1_555 1_555
C28A N2A 1_555 1_555
C29A N2A 1_555 1_555

#END
