
#######################################################################
#
#                 Cambridge Crystallographic Data Centre
#                                CCDC 
#
#######################################################################
#
# If this CIF has been generated from an entry in the Cambridge 
# Structural Database, then it will include bibliographic, chemical, 
# crystal, experimental, refinement or atomic coordinate data resulting 
# from the CCDC's data processing and validation procedures.
#
#######################################################################

data_MUQDUY
_symmetry_cell_setting           triclinic
_symmetry_space_group_name_H-M   'P -1'
_symmetry_Int_Tables_number      2
_space_group_name_Hall           '-P 1'
loop_
_symmetry_equiv_pos_site_id
_symmetry_equiv_pos_as_xyz
1 x,y,z
2 -x,-y,-z
_cell_length_a                   10.395(3)
_cell_length_b                   11.790(3)
_cell_length_c                   13.331(3)
_cell_angle_alpha                102.902(4)
_cell_angle_beta                 110.679(4)
_cell_angle_gamma                107.159(4)
_cell_volume                     1358.99
loop_
_atom_site_label
_atom_site_type_symbol
_atom_site_fract_x
_atom_site_fract_y
_atom_site_fract_z
Zn1 Zn 0.5000 0.5000 0.5000
Zn2 Zn 0.44993(7) 0.67162(6) 0.24741(6)
C1 C 0.2624(6) 0.6047(6) 0.3693(5)
C2 C 0.1136(6) 0.5891(5) 0.3734(5)
C3 C -0.0238(6) 0.5108(6) 0.2799(6)
C4 C 0.1092(7) 0.6598(7) 0.4680(6)
C5 C -0.1569(6) 0.5085(6) 0.2794(5)
C6 C -0.0250(7) 0.6573(7) 0.4671(5)
C7 C -0.1621(6) 0.5833(6) 0.3715(5)
C8 C -0.3067(6) 0.5936(5) 0.3644(5)
C9 C 0.4159(8) 0.8365(6) 0.1246(6)
C10 C 0.4596(7) 0.9178(6) 0.0584(6)
C11 C 0.3606(6) 0.9073(6) -0.0481(6)
C12 C 0.6028(7) 1.0148(6) 0.1048(5)
C13 C 0.4239(7) 0.2819(6) 0.2847(6)
H1 H 0.5281 0.3111 0.3145
C14 C 0.2172(7) 0.2953(6) 0.2991(6)
H2 H 0.1745 0.3349 0.3382
C15 C 0.3368(7) 0.1808(6) 0.1827(6)
H3 H 0.3826 0.1443 0.1445
C16 C 0.1243(7) 0.1940(7) 0.1996(6)
H4 H 0.0205 0.1651 0.1734
C17 C 0.1811(7) 0.1319(6) 0.1353(5)
C18 C 0.0862(7) 0.0197(6) 0.0242(6)
H5 H 0.1072 -0.0527 0.0353
H6 H 0.1167 0.0389 -0.0331
C19 C 0.3700(7) 0.4293(6) 0.0503(6)
H7 H 0.4743 0.4567 0.0844
C20 C 0.1634(7) 0.4504(7) 0.0503(6)
H8 H 0.1184 0.4945 0.0829
C21 C 0.2883(8) 0.3227(7) -0.0479(6)
H9 H 0.3361 0.2822 -0.0807
C22 C 0.0718(7) 0.3436(7) -0.0453(6)
H10 H -0.0323 0.3159 -0.0754
C23 C 0.1329(8) 0.2764(7) -0.0974(6)
C24 C 0.0336(11) 0.1573(10) -0.2065(8)
H11 H 0.0974 0.1371 -0.2394
H12 H -0.0069 0.0871 -0.1843
C25 C -0.2727(8) -0.0900(7) -0.5843(7)
H13 H -0.2504 -0.1125 -0.6456
C26 C -0.4288(10) -0.1256(7) -0.5077(7)
H14 H -0.5220 -0.1721 -0.5131
C27 C -0.1662(9) 0.0132(8) -0.4908(9)
H15 H -0.0768 0.0602 -0.4906
C28 C -0.3266(13) -0.0244(8) -0.4072(7)
H16 H -0.3508 -0.0057 -0.3464
C29 C -0.1897(10) 0.0490(7) -0.3960(7)
C30 C -0.0819(15) 0.1619(11) -0.2893(10)
H17 H -0.0393 0.2300 -0.3129
H18 H -0.1405 0.1882 -0.2538
N1 N 0.3674(5) 0.3414(4) 0.3442(4)
N2 N 0.3138(5) 0.4970(5) 0.1009(4)
N3 N -0.4034(6) -0.1608(5) -0.5967(4)
F1 F -0.0297(4) 0.4370(4) 0.1848(3)
F2 F 0.2380(4) 0.7388(5) 0.5636(3)
F3 F -0.2867(4) 0.4290(4) 0.1836(3)
F4 F -0.0183(4) 0.7353(5) 0.5616(3)
F5 F 0.2206(4) 0.8132(4) -0.0993(4)
F6 F 0.7077(4) 1.0360(4) 0.2086(4)
O1 O 0.3559(5) 0.5900(4) 0.4460(4)
O2 O 0.2749(4) 0.6373(4) 0.2894(4)
O3 O -0.3419(5) 0.5809(5) 0.4415(4)
O4 O -0.3741(5) 0.6175(4) 0.2798(4)
O5 O 0.4904(5) 0.7723(4) 0.1506(4)
O6 O 0.3130(6) 0.8419(6) 0.1474(5)
Zn1_2 Zn -0.5000 0.5000 0.5000
Zn1_3 Zn -0.5000 -0.5000 -0.5000
Zn1_4 Zn 1.5000 0.5000 0.5000
Zn2_2 Zn 1.44993(7) 0.67162(6) 0.24741(6)
Zn2_3 Zn -0.55007(7) -0.32838(6) -0.75259(6)
Zn2_4 Zn -0.55007(7) 0.67162(6) 0.24741(6)
Zn2A Zn 0.55007(7) 1.32838(6) -0.24741(6)
Zn2_5 Zn 1.44993(7) 1.67162(6) 1.24741(6)
C1_2 C 1.2624(6) 0.6047(6) 0.3693(5)
C2_2 C 1.1136(6) 0.5891(5) 0.3734(5)
C3_2 C 0.9762(6) 0.5108(6) 0.2799(6)
C4_2 C 1.1092(7) 0.6598(7) 0.4680(6)
C5_2 C 0.8431(6) 0.5085(6) 0.2794(5)
C6_2 C 0.9750(7) 0.6573(7) 0.4671(5)
C7_2 C 0.8379(6) 0.5833(6) 0.3715(5)
C8_2 C 0.6933(6) 0.5936(5) 0.3644(5)
C9A C 0.5841(8) 1.1635(6) -0.1246(6)
C10A C 0.5404(7) 1.0822(6) -0.0584(6)
C11A C 0.6394(6) 1.0927(6) 0.0481(6)
C12A C 0.3972(7) 0.9852(6) -0.1048(5)
C13A C -0.4239(7) -0.2819(6) -0.2847(6)
H1A H -0.5281 -0.3111 -0.3145
C14A C -0.2172(7) -0.2953(6) -0.2991(6)
H2A H -0.1745 -0.3349 -0.3382
C15A C -0.3368(7) -0.1808(6) -0.1827(6)
H3A H -0.3826 -0.1443 -0.1445
C16A C -0.1243(7) -0.1940(7) -0.1996(6)
H4A H -0.0205 -0.1651 -0.1734
C17A C -0.1811(7) -0.1319(6) -0.1353(5)
C18A C -0.0862(7) -0.0197(6) -0.0242(6)
H5A H -0.1072 0.0527 -0.0353
H6A H -0.1167 -0.0389 0.0331
C19_2 C 1.3700(7) 1.4293(6) 1.0503(6)
H7_2 H 1.4743 1.4567 1.0844
C20_2 C 1.1634(7) 1.4504(7) 1.0503(6)
H8_2 H 1.1184 1.4945 1.0829
C21_2 C 1.2883(8) 1.3227(7) 0.9521(6)
H9_2 H 1.3361 1.2822 0.9193
C22_2 C 1.0718(7) 1.3436(7) 0.9547(6)
H10_2 H 0.9677 1.3159 0.9246
C23_2 C 1.1329(8) 1.2764(7) 0.9026(6)
C24_2 C 1.0336(11) 1.1573(10) 0.7935(8)
H11_2 H 1.0974 1.1371 0.7606
H12_2 H 0.9931 1.0871 0.8157
C25_2 C 0.7273(8) 0.9100(7) 0.4157(7)
H13_2 H 0.7496 0.8875 0.3544
C26_2 C 0.5712(10) 0.8744(7) 0.4923(7)
H14_2 H 0.4780 0.8279 0.4869
C27_2 C 0.8338(9) 1.0132(8) 0.5092(9)
H15_2 H 0.9232 1.0602 0.5094
C28_2 C 0.6734(13) 0.9756(8) 0.5928(7)
H16_2 H 0.6492 0.9943 0.6536
C29_2 C 0.8103(10) 1.0490(7) 0.6040(7)
C30_2 C 0.9181(15) 1.1619(11) 0.7107(10)
H17_2 H 0.9607 1.2300 0.6871
H18_2 H 0.8595 1.1882 0.7462
N1A N -0.3674(5) -0.3414(4) -0.3442(4)
N1A_2 N 0.6326(5) 0.6586(4) 0.6558(4)
N2_2 N 1.3138(5) 1.4970(5) 1.1009(4)
N2_3 N 1.3138(5) 0.4970(5) 0.1009(4)
N3_2 N 0.5966(6) 0.8392(5) 0.4033(4)
N3_3 N 1.5966(6) 0.8392(5) 0.4033(4)
F1_2 F 0.9703(4) 0.4370(4) 0.1848(3)
F2_2 F 1.2380(4) 0.7388(5) 0.5636(3)
F3_2 F 0.7133(4) 0.4290(4) 0.1836(3)
F4_2 F 0.9817(4) 0.7353(5) 0.5616(3)
F5A F 0.7794(4) 1.1868(4) 0.0993(4)
F6A F 0.2923(4) 0.9640(4) -0.2086(4)
O1_2 O 1.3559(5) 0.5900(4) 0.4460(4)
O1A O 0.6441(5) 0.4100(4) 0.5540(4)
O2_2 O 1.2749(4) 0.6373(4) 0.2894(4)
O3_2 O 0.6581(5) 0.5809(5) 0.4415(4)
O3A O 0.3419(5) 0.4191(5) 0.5585(4)
O4_2 O 0.6259(5) 0.6175(4) 0.2798(4)
O4_3 O 1.6259(5) 0.6175(4) 0.2798(4)
O5A O 0.5096(5) 1.2277(4) -0.1506(4)
O5_2 O 1.4904(5) 0.7723(4) 0.1506(4)
O6A O 0.6870(6) 1.1581(6) -0.1474(5)
loop_
_geom_bond_atom_site_label_1
_geom_bond_atom_site_label_2
_geom_bond_site_symmetry_1
_geom_bond_site_symmetry_2
Zn1 N1 1_555 1_555
Zn2 N2 1_555 1_555
C1 C2 1_555 1_555
C2 C3 1_555 1_555
C3 C5 1_555 1_555
C4 C2 1_555 1_555
C5 C7 1_555 1_555
C6 C4 1_555 1_555
C7 C6 1_555 1_555
C8 C7 1_555 1_555
C9 C10 1_555 1_555
C10 C11 1_555 1_555
C11 F5 1_555 1_555
C12 C10 1_555 1_555
C13 H1 1_555 1_555
C14 H2 1_555 1_555
C15 C13 1_555 1_555
H3 C15 1_555 1_555
C16 C14 1_555 1_555
H4 C16 1_555 1_555
C17 C15 1_555 1_555
C18 C17 1_555 1_555
H5 C18 1_555 1_555
H6 C18 1_555 1_555
C19 H7 1_555 1_555
C20 H8 1_555 1_555
C21 C19 1_555 1_555
H9 C21 1_555 1_555
C22 C20 1_555 1_555
H10 C22 1_555 1_555
C23 C21 1_555 1_555
C24 C23 1_555 1_555
H11 C24 1_555 1_555
H12 C24 1_555 1_555
C25 H13 1_555 1_555
C26 H14 1_555 1_555
C27 C25 1_555 1_555
H15 C27 1_555 1_555
C28 C26 1_555 1_555
H16 C28 1_555 1_555
C29 C27 1_555 1_555
C30 C24 1_555 1_555
H17 C30 1_555 1_555
H18 C30 1_555 1_555
N1 C13 1_555 1_555
N2 C19 1_555 1_555
N3 C25 1_555 1_555
F1 C3 1_555 1_555
F2 C4 1_555 1_555
F3 C5 1_555 1_555
F4 C6 1_555 1_555
F6 C12 1_555 1_555
O1 Zn1 1_555 1_555
O2 Zn2 1_555 1_555
O3 C8 1_555 1_555
O4 C8 1_555 1_555
O5 Zn2 1_555 1_555
O6 C9 1_555 1_555
Zn1_2 O3 1_555 1_555
Zn1_3 N1A 1_555 1_555
Zn1_4 O1_2 1_555 1_555
Zn2_2 N2_3 1_555 1_555
Zn2_3 N3 1_555 1_555
Zn2_4 O4 1_555 1_555
Zn2A O5A 1_555 1_555
Zn2_5 N2_2 1_555 1_555
C1_2 C2_2 1_555 1_555
C2_2 C3_2 1_555 1_555
C3_2 C5_2 1_555 1_555
C4_2 C2_2 1_555 1_555
C5_2 C7_2 1_555 1_555
C6_2 C4_2 1_555 1_555
C7_2 C6_2 1_555 1_555
C8_2 C7_2 1_555 1_555
C9A C10A 1_555 1_555
C10A C11A 1_555 1_555
C11A C12 1_555 1_555
C12A C11 1_555 1_555
C13A H1A 1_555 1_555
C14A H2A 1_555 1_555
C15A C13A 1_555 1_555
H3A C15A 1_555 1_555
C16A C14A 1_555 1_555
H4A C16A 1_555 1_555
C17A C15A 1_555 1_555
C18A C18 1_555 1_555
H5A C18A 1_555 1_555
H6A C18A 1_555 1_555
C19_2 H7_2 1_555 1_555
C20_2 H8_2 1_555 1_555
C21_2 C19_2 1_555 1_555
H9_2 C21_2 1_555 1_555
C22_2 C20_2 1_555 1_555
H10_2 C22_2 1_555 1_555
C23_2 C21_2 1_555 1_555
C24_2 C23_2 1_555 1_555
H11_2 C24_2 1_555 1_555
H12_2 C24_2 1_555 1_555
C25_2 H13_2 1_555 1_555
C26_2 H14_2 1_555 1_555
C27_2 C25_2 1_555 1_555
H15_2 C27_2 1_555 1_555
C28_2 C26_2 1_555 1_555
H16_2 C28_2 1_555 1_555
C29_2 C27_2 1_555 1_555
C30_2 C24_2 1_555 1_555
H17_2 C30_2 1_555 1_555
H18_2 C30_2 1_555 1_555
N1A C13A 1_555 1_555
N1A_2 Zn1 1_555 1_555
N2_2 C19_2 1_555 1_555
N3_2 Zn2 1_555 1_555
N3_3 Zn2_2 1_555 1_555
F1_2 C3_2 1_555 1_555
F2_2 C4_2 1_555 1_555
F3_2 C5_2 1_555 1_555
F4_2 C6_2 1_555 1_555
F5A C11A 1_555 1_555
F6A C12A 1_555 1_555
O1_2 C1_2 1_555 1_555
O1A Zn1 1_555 1_555
O2_2 Zn2_2 1_555 1_555
O3_2 Zn1 1_555 1_555
O3A Zn1 1_555 1_555
O4_2 Zn2 1_555 1_555
O4_3 Zn2_2 1_555 1_555
O5A C9A 1_555 1_555
O5_2 Zn2_2 1_555 1_555
O6A C9A 1_555 1_555
C1 O1 1_555 1_555
C1 O2 1_555 1_555
C9 O5 1_555 1_555
C14 N1 1_555 1_555
C16 C17 1_555 1_555
C20 N2 1_555 1_555
C22 C23 1_555 1_555
C26 N3 1_555 1_555
C28 C29 1_555 1_555
C29 C30 1_555 1_555
C1_2 O2_2 1_555 1_555
C8_2 O3_2 1_555 1_555
C8_2 O4_2 1_555 1_555
C10A C12A 1_555 1_555
C14A N1A 1_555 1_555
C16A C17A 1_555 1_555
C17A C18A 1_555 1_555
C20_2 N2_2 1_555 1_555
C22_2 C23_2 1_555 1_555
C25_2 N3_2 1_555 1_555
C26_2 N3_2 1_555 1_555
C28_2 C29_2 1_555 1_555
C29_2 C30_2 1_555 1_555

#END
