
#######################################################################
#
#                 Cambridge Crystallographic Data Centre
#                                CCDC 
#
#######################################################################
#
# If this CIF has been generated from an entry in the Cambridge 
# Structural Database, then it will include bibliographic, chemical, 
# crystal, experimental, refinement or atomic coordinate data resulting 
# from the CCDC's data processing and validation procedures.
#
#######################################################################

data_MUQDIM
_symmetry_cell_setting           monoclinic
_symmetry_space_group_name_H-M   'P 21/n'
_symmetry_Int_Tables_number      14
_space_group_name_Hall           '-P 2yn'
loop_
_symmetry_equiv_pos_site_id
_symmetry_equiv_pos_as_xyz
1 x,y,z
2 1/2-x,1/2+y,1/2-z
3 -x,-y,-z
4 1/2+x,1/2-y,1/2+z
_cell_length_a                   9.9546(13)
_cell_length_b                   17.648(2)
_cell_length_c                   13.5573(16)
_cell_angle_alpha                90
_cell_angle_beta                 99.334(3)
_cell_angle_gamma                90
_cell_volume                     2350.19
loop_
_atom_site_label
_atom_site_type_symbol
_atom_site_fract_x
_atom_site_fract_y
_atom_site_fract_z
Ni1 Ni 0.93490(6) 0.32637(4) 0.79302(5)
C1 C 0.6751(5) 0.4087(3) 0.7658(4)
C2 C 0.5882(5) 0.4709(3) 0.7086(4)
C3 C 0.6047(5) 0.5472(3) 0.7253(4)
C4 C 0.4809(6) 0.4509(3) 0.6347(4)
C5 C 0.5224(5) 0.6043(3) 0.6762(4)
C6 C 0.3971(6) 0.5044(3) 0.5822(4)
C7 C 0.4189(5) 0.5792(3) 0.6026(4)
C8 C 0.5445(5) 0.6876(3) 0.6981(4)
C9 C 0.9286(6) 0.2675(3) 0.5803(4)
H1 H 0.9018 0.2225 0.6072
C10 C 0.9782(7) 0.3910(3) 0.5956(4)
H2 H 0.9858 0.4355 0.6330
C11 C 0.9467(7) 0.2669(4) 0.4827(4)
H3 H 0.9334 0.2223 0.4460
C12 C 1.0003(7) 0.3949(3) 0.4984(4)
H4 H 1.0262 0.4405 0.4727
C13 C 0.9841(6) 0.3311(3) 0.4387(4)
C14 C 1.0071(7) 0.3355(4) 0.3322(4)
H5 H 0.9987 0.3880 0.3107
H6 H 1.0995 0.3194 0.3291
C15 C 0.9118(7) 0.2888(4) 0.2615(4)
H7 H 0.8196 0.3014 0.2701
H8 H 0.9267 0.2360 0.2798
C16 C 0.9219(6) 0.2970(3) 0.1527(4)
C17 C 0.8062(6) 0.2912(3) 0.0813(4)
H9 H 0.7226 0.2817 0.1010
C18 C 1.0418(6) 0.3097(3) 0.1176(4)
H10 H 1.1230 0.3135 0.1622
C19 C 0.8136(5) 0.2992(3) -0.0185(4)
H11 H 0.7340 0.2945 -0.0646
C20 C 1.0420(5) 0.3166(3) 0.0175(4)
H12 H 1.1252 0.3240 -0.0038
C21 C 1.2170(5) 0.3859(3) 0.8140(4)
H13 H 1.2270 0.3442 0.7739
C22 C 1.0815(6) 0.4652(3) 0.8842(4)
H14 H 0.9953 0.4806 0.8940
C23 C 1.3323(5) 0.4234(3) 0.8560(4)
H15 H 1.4169 0.4084 0.8423
C24 C 1.1919(6) 0.5058(3) 0.9299(5)
H16 H 1.1792 0.5481 0.9681
C25 C 1.3216(5) 0.4839(3) 0.9192(4)
C26 C 1.4473(6) 0.5255(3) 0.9697(5)
H17 H 1.4199 0.5640 1.0135
H18 H 1.4890 0.5511 0.9190
N1 N 0.9466(4) 0.3278(2) 0.6398(3)
N2 N 0.9301(4) 0.3135(2) -0.0522(3)
N3 N 1.0913(4) 0.4049(2) 0.8265(3)
O1 O 0.6132(4) 0.3595(3) 0.8050(4)
O2 O 0.8000(4) 0.4127(2) 0.7654(3)
O3 O 0.6626(4) 0.7141(2) 0.7182(3)
O4 O 0.4402(4) 0.7283(2) 0.6927(3)
F1 F 0.7054(3) 0.56808(17) 0.8002(3)
F2 F 0.4555(4) 0.37773(19) 0.6115(3)
F3 F 0.2962(4) 0.4823(2) 0.5095(3)
F4 F 0.3396(3) 0.62891(19) 0.5472(3)
Ni1B Ni 2.06510(6) 0.67363(4) 1.20698(5)
Ni1_2 Ni 0.93490(6) 0.32637(4) -0.20698(5)
Ni1A Ni 0.56510(6) 0.82637(4) 0.70698(5)
Ni1B_2 Ni 2.06510(6) 0.67363(4) 2.20698(5)
Ni1C Ni 2.43490(6) 0.17363(4) 1.29302(5)
C1B C 2.3249(5) 0.5913(3) 1.2342(4)
C2B C 2.4118(5) 0.5291(3) 1.2914(4)
C3B C 2.3953(5) 0.4528(3) 1.2747(4)
C4B C 2.5191(6) 0.5491(3) 1.3653(4)
C5B C 2.4776(5) 0.3957(3) 1.3238(4)
C6B C 2.6029(6) 0.4956(3) 1.4178(4)
C7B C 2.5811(5) 0.4208(3) 1.3974(4)
C8B C 2.4555(5) 0.3124(3) 1.3019(4)
C9B C 2.0714(6) 0.7325(3) 1.4197(4)
H1B H 2.0982 0.7775 1.3928
C10B C 2.0218(7) 0.6090(3) 1.4044(4)
H2B H 2.0142 0.5645 1.3670
C11B C 2.0533(7) 0.7331(4) 1.5173(4)
H3B H 2.0666 0.7777 1.5540
C12B C 1.9997(7) 0.6051(3) 1.5016(4)
H4B H 1.9738 0.5595 1.5273
C13B C 2.0159(6) 0.6689(3) 1.5613(4)
C14B C 1.9929(7) 0.6645(4) 1.6678(4)
H5B H 2.0013 0.6120 1.6893
H6B H 1.9005 0.6806 1.6709
C15B C 2.0882(7) 0.7112(4) 1.7385(4)
H7B H 2.1804 0.6986 1.7299
H8B H 2.0733 0.7640 1.7202
C16B C 2.0781(6) 0.7030(3) 1.8473(4)
C17B C 2.1938(6) 0.7088(3) 1.9187(4)
H9B H 2.2774 0.7183 1.8990
C18B C 1.9582(6) 0.6903(3) 1.8824(4)
H10B H 1.8770 0.6865 1.8378
C19B C 2.1864(5) 0.7008(3) 2.0185(4)
H11B H 2.2660 0.7055 2.0646
C20B C 1.9580(5) 0.6834(3) 1.9825(4)
H12B H 1.8748 0.6760 2.0038
C21B C 1.7830(5) 0.6141(3) 1.1860(4)
H13B H 1.7730 0.6558 1.2261
C22B C 1.9185(6) 0.5348(3) 1.1158(4)
H14B H 2.0047 0.5194 1.1060
C23B C 1.6677(5) 0.5766(3) 1.1440(4)
H15B H 1.5831 0.5916 1.1577
C24B C 1.8081(6) 0.4942(3) 1.0701(5)
H16B H 1.8208 0.4519 1.0319
C25B C 1.6784(5) 0.5161(3) 1.0808(4)
C26B C 1.5527(6) 0.4745(3) 1.0303(5)
H17B H 1.5801 0.4360 0.9865
H18B H 1.5110 0.4489 1.0810
N1B N 2.0534(4) 0.6722(2) 1.3602(3)
N2B N 2.0699(4) 0.6865(2) 2.0522(3)
N2_2 N 0.9301(4) 0.3135(2) 0.9478(3)
N2B_2 N 2.0699(4) 0.6865(2) 1.0522(3)
N3B N 1.9087(4) 0.5951(2) 1.1735(3)
O1B O 2.3868(4) 0.6405(3) 1.1950(4)
O2B O 2.2000(4) 0.5873(2) 1.2346(3)
O3B O 2.3374(4) 0.2859(2) 1.2818(3)
O3A O 0.8374(4) 0.2141(2) 0.7818(3)
O3C O 2.1626(4) 0.7859(2) 1.2182(3)
O4B O 2.5598(4) 0.2717(2) 1.3073(3)
O4A O 1.0598(4) 0.2283(2) 0.8073(3)
O4C O 1.9402(4) 0.7717(2) 1.1927(3)
F1B F 2.2946(3) 0.43192(17) 1.1998(3)
F2B F 2.5445(4) 0.62227(19) 1.3885(3)
F3B F 2.7038(4) 0.5177(2) 1.4905(3)
F4B F 2.6604(3) 0.37109(19) 1.4528(3)
loop_
_geom_bond_atom_site_label_1
_geom_bond_atom_site_label_2
_geom_bond_site_symmetry_1
_geom_bond_site_symmetry_2
Ni1 N1 1_555 1_555
C1 C2 1_555 1_555
C2 C3 1_555 1_555
C3 C5 1_555 1_555
C4 C2 1_555 1_555
C5 C7 1_555 1_555
C6 C4 1_555 1_555
C7 C6 1_555 1_555
C8 C5 1_555 1_555
C9 H1 1_555 1_555
C10 H2 1_555 1_555
C11 C9 1_555 1_555
H3 C11 1_555 1_555
C12 C10 1_555 1_555
H4 C12 1_555 1_555
C13 C11 1_555 1_555
C14 C13 1_555 1_555
H5 C14 1_555 1_555
H6 C14 1_555 1_555
C15 C14 1_555 1_555
H7 C15 1_555 1_555
H8 C15 1_555 1_555
C16 C15 1_555 1_555
C17 C16 1_555 1_555
H9 C17 1_555 1_555
C18 C16 1_555 1_555
H10 C18 1_555 1_555
C19 C17 1_555 1_555
H11 C19 1_555 1_555
C20 C18 1_555 1_555
H12 C20 1_555 1_555
C21 H13 1_555 1_555
C22 H14 1_555 1_555
C23 C21 1_555 1_555
H15 C23 1_555 1_555
C24 C22 1_555 1_555
H16 C24 1_555 1_555
C25 C23 1_555 1_555
C26 C25 1_555 1_555
H17 C26 1_555 1_555
H18 C26 1_555 1_555
N1 C9 1_555 1_555
N2 C19 1_555 1_555
N3 Ni1 1_555 1_555
O1 C1 1_555 1_555
O2 Ni1 1_555 1_555
O3 C8 1_555 1_555
O4 C8 1_555 1_555
F1 C3 1_555 1_555
F2 C4 1_555 1_555
F3 C6 1_555 1_555
F4 C7 1_555 1_555
Ni1B N1B 1_555 1_555
Ni1_2 N2 1_555 1_555
Ni1A O3 1_555 1_555
Ni1B_2 N2B 1_555 1_555
Ni1C O3B 1_555 1_555
C1B C2B 1_555 1_555
C2B C3B 1_555 1_555
C3B C5B 1_555 1_555
C4B C2B 1_555 1_555
C5B C7B 1_555 1_555
C6B C4B 1_555 1_555
C7B C6B 1_555 1_555
C8B C5B 1_555 1_555
C9B H1B 1_555 1_555
C10B H2B 1_555 1_555
C11B C9B 1_555 1_555
H3B C11B 1_555 1_555
C12B C10B 1_555 1_555
H4B C12B 1_555 1_555
C13B C11B 1_555 1_555
C14B C13B 1_555 1_555
H5B C14B 1_555 1_555
H6B C14B 1_555 1_555
C15B C14B 1_555 1_555
H7B C15B 1_555 1_555
H8B C15B 1_555 1_555
C16B C15B 1_555 1_555
C17B C16B 1_555 1_555
H9B C17B 1_555 1_555
C18B C16B 1_555 1_555
H10B C18B 1_555 1_555
C19B C17B 1_555 1_555
H11B C19B 1_555 1_555
C20B C18B 1_555 1_555
H12B C20B 1_555 1_555
C21B H13B 1_555 1_555
C22B H14B 1_555 1_555
C23B C21B 1_555 1_555
H15B C23B 1_555 1_555
C24B C22B 1_555 1_555
H16B C24B 1_555 1_555
C25B C23B 1_555 1_555
C26B C26 1_555 1_555
H17B C26B 1_555 1_555
H18B C26B 1_555 1_555
N1B C9B 1_555 1_555
N2B C19B 1_555 1_555
N2_2 Ni1 1_555 1_555
N2B_2 Ni1B 1_555 1_555
N3B Ni1B 1_555 1_555
O1B C1B 1_555 1_555
O2B Ni1B 1_555 1_555
O3B C8B 1_555 1_555
O3A Ni1 1_555 1_555
O3C Ni1B 1_555 1_555
O4B Ni1C 1_555 1_555
O4A Ni1 1_555 1_555
O4C Ni1B 1_555 1_555
F1B C3B 1_555 1_555
F2B C4B 1_555 1_555
F3B C6B 1_555 1_555
F4B C7B 1_555 1_555
C1 O2 1_555 1_555
C10 N1 1_555 1_555
C12 C13 1_555 1_555
C20 N2 1_555 1_555
C21 N3 1_555 1_555
C22 N3 1_555 1_555
C24 C25 1_555 1_555
O4 Ni1A 1_555 1_555
C1B O2B 1_555 1_555
C8B O4B 1_555 1_555
C10B N1B 1_555 1_555
C12B C13B 1_555 1_555
C20B N2B 1_555 1_555
C21B N3B 1_555 1_555
C22B N3B 1_555 1_555
C24B C25B 1_555 1_555
C25B C26B 1_555 1_555

#END
