
#######################################################################
#
#                 Cambridge Crystallographic Data Centre
#                                CCDC 
#
#######################################################################
#
# If this CIF has been generated from an entry in the Cambridge 
# Structural Database, then it will include bibliographic, chemical, 
# crystal, experimental, refinement or atomic coordinate data resulting 
# from the CCDC's data processing and validation procedures.
#
#######################################################################

data_MUQHAI
_symmetry_cell_setting           monoclinic
_symmetry_space_group_name_H-M   'P 21/c'
_symmetry_Int_Tables_number      14
_space_group_name_Hall           '-P 2ybc'
loop_
_symmetry_equiv_pos_site_id
_symmetry_equiv_pos_as_xyz
1 x,y,z
2 -x,1/2+y,1/2-z
3 -x,-y,-z
4 x,1/2-y,1/2+z
_cell_length_a                   12.8670(13)
_cell_length_b                   15.1046(15)
_cell_length_c                   13.651(4)
_cell_angle_alpha                90
_cell_angle_beta                 105.388(14)
_cell_angle_gamma                90
_cell_volume                     2557.97
loop_
_atom_site_label
_atom_site_type_symbol
_atom_site_fract_x
_atom_site_fract_y
_atom_site_fract_z
Ho1 Ho 0.28116(2) 0.182832(19) 0.30887(2)
Pt1 Pt 0.359416(19) 0.511703(15) 0.488268(17)
C1 C 0.3509(5) 0.3958(4) 0.4186(5)
C2 C 0.3293(5) 0.0493(4) 0.1081(5)
C3 C 0.3610(6) 0.6291(4) 0.5538(5)
C4 C 0.3893(6) 0.5732(5) 0.3701(5)
C5 C 0.4675(7) 0.1896(5) 0.5413(6)
H1 H 0.4786 0.2449 0.5159
C6 C 0.5253(7) 0.1683(6) 0.6390(6)
H2 H 0.5753 0.2081 0.6767
C7 C 0.5094(7) 0.0905(6) 0.6792(6)
H3 H 0.5461 0.0757 0.7455
C8 C 0.4357(9) 0.0320(6) 0.6183(6)
H4 H 0.4229 -0.0230 0.6435
C9 C 0.3818(6) 0.0563(5) 0.5203(5)
C10 C 0.3026(7) -0.0037(4) 0.4517(6)
C11 C 0.2945(7) -0.0926(6) 0.4776(7)
H5 H 0.3399 -0.1163 0.5365
C12 C 0.2180(9) -0.1436(6) 0.4137(9)
H6 H 0.2118 -0.2032 0.4282
C13 C 0.1493(8) -0.1065(6) 0.3268(8)
H7 H 0.0959 -0.1406 0.2841
C14 C 0.1619(7) -0.0176(5) 0.3051(7)
C15 C 0.0871(6) 0.0287(5) 0.2213(6)
C16 C -0.0013(7) -0.0146(6) 0.1621(8)
H8 H -0.0126 -0.0740 0.1741
C17 C -0.0735(8) 0.0298(7) 0.0848(8)
H9 H -0.1320 0.0007 0.0423
C18 C -0.0558(7) 0.1195(7) 0.0725(7)
H10 H -0.1030 0.1524 0.0222
C19 C 0.0340(6) 0.1587(6) 0.1372(6)
H11 H 0.0453 0.2188 0.1294
N1 N 0.3410(5) 0.3281(4) 0.3809(5)
N2 N 0.3135(5) 0.0844(4) 0.1766(4)
N3 N 0.3610(6) 0.6972(4) 0.5897(5)
N4 N 0.4072(6) 0.6089(4) 0.3025(5)
N5 N 0.1123(5) 0.2568(4) 0.3903(5)
N6 N 0.3971(5) 0.1356(4) 0.4818(4)
N7 N 0.2411(5) 0.0318(4) 0.3672(4)
N8 N 0.1051(5) 0.1147(4) 0.2102(4)
O1 O 0.1203(5) 0.2816(4) 0.3054(4)
O2 O 0.1834(5) 0.2021(4) 0.4376(4)
O3 O 0.0391(6) 0.2808(5) 0.4257(6)
O4 O 0.4608(4) 0.1939(3) 0.3040(4)
H12 H 0.5053 0.2207 0.3521
H13 H 0.4651 0.1836 0.2440
O5 O 0.2485(5) 0.2746(3) 0.1643(4)
H14 H 0.2076 0.3192 0.1624
H15 H 0.2353 0.2613 0.1017
Pt1C Pt 0.359416(19) -0.011703(15) -0.011732(17)
C2C C 0.3293(5) 0.4507(4) 0.6081(5)
N9 N 0.1621(13) 0.4472(9) 0.1462(11)
C20 C 0.1434(15) 0.5187(12) 0.1480(14)
C21 C 0.1248(17) 0.6157(12) 0.1562(15)
H16 H 0.0688 0.6348 0.0984
H17 H 0.1900 0.6473 0.1582
H18 H 0.1035 0.6274 0.2172
loop_
_geom_bond_atom_site_label_1
_geom_bond_atom_site_label_2
_geom_bond_site_symmetry_1
_geom_bond_site_symmetry_2
Ho1 N1 1_555 1_555
Pt1 C1 1_555 1_555
C1 N1 1_555 1_555
C2 N2 1_555 1_555
C3 Pt1 1_555 1_555
C4 Pt1 1_555 1_555
C5 H1 1_555 1_555
C6 C5 1_555 1_555
H2 C6 1_555 1_555
C7 C6 1_555 1_555
H3 C7 1_555 1_555
C8 C7 1_555 1_555
H4 C8 1_555 1_555
C9 C8 1_555 1_555
C10 C9 1_555 1_555
C11 C10 1_555 1_555
H5 C11 1_555 1_555
C12 C11 1_555 1_555
H6 C12 1_555 1_555
C13 C12 1_555 1_555
H7 C13 1_555 1_555
C14 C13 1_555 1_555
C15 C14 1_555 1_555
C16 C15 1_555 1_555
H8 C16 1_555 1_555
C17 C16 1_555 1_555
H9 C17 1_555 1_555
C18 C17 1_555 1_555
H10 C18 1_555 1_555
C19 C18 1_555 1_555
H11 C19 1_555 1_555
N2 Ho1 1_555 1_555
N3 C3 1_555 1_555
N4 C4 1_555 1_555
N5 O1 1_555 1_555
N6 Ho1 1_555 1_555
N7 Ho1 1_555 1_555
N8 Ho1 1_555 1_555
O1 Ho1 1_555 1_555
O2 Ho1 1_555 1_555
O3 N5 1_555 1_555
O4 Ho1 1_555 1_555
H12 O4 1_555 1_555
H13 O4 1_555 1_555
O5 Ho1 1_555 1_555
H14 O5 1_555 1_555
H15 O5 1_555 1_555
N9 C20 1_555 1_555
C20 C21 1_555 1_555
C21 H16 1_555 1_555
H17 C21 1_555 1_555
H18 C21 1_555 1_555
Pt1C C2 1_555 1_555
C2C Pt1 1_555 1_555
C5 N6 1_555 1_555
C9 N6 1_555 1_555
C10 N7 1_555 1_555
C14 N7 1_555 1_555
C15 N8 1_555 1_555
C19 N8 1_555 1_555
N5 O2 1_555 1_555

#END
