
#######################################################################
#
#                 Cambridge Crystallographic Data Centre
#                                CCDC 
#
#######################################################################
#
# If this CIF has been generated from an entry in the Cambridge 
# Structural Database, then it will include bibliographic, chemical, 
# crystal, experimental, refinement or atomic coordinate data resulting 
# from the CCDC's data processing and validation procedures.
#
#######################################################################

data_MUQHEM
_symmetry_cell_setting           orthorhombic
_symmetry_space_group_name_H-M   'P b c n'
_symmetry_Int_Tables_number      60
_space_group_name_Hall           '-P 2n 2ab'
loop_
_symmetry_equiv_pos_site_id
_symmetry_equiv_pos_as_xyz
1 x,y,z
2 1/2-x,1/2-y,1/2+z
3 -x,y,1/2-z
4 1/2+x,1/2-y,-z
5 -x,-y,-z
6 1/2+x,1/2+y,1/2-z
7 x,-y,1/2+z
8 1/2-x,1/2+y,z
_cell_length_a                   13.226(7)
_cell_length_b                   15.8700(18)
_cell_length_c                   24.276(3)
_cell_angle_alpha                90
_cell_angle_beta                 90
_cell_angle_gamma                90
_cell_volume                     5095.45
loop_
_atom_site_label
_atom_site_type_symbol
_atom_site_fract_x
_atom_site_fract_y
_atom_site_fract_z
Yb1 Yb 0.76052(3) 0.44500(2) 0.120033(17)
Pt1 Pt 0.48518(3) 0.68778(2) 0.179804(14)
O1 O 0.7533(6) 0.5546(5) 0.0516(3)
O2 O 0.8110(6) 0.5965(5) 0.1289(4)
O3 O 0.7908(8) 0.6881(5) 0.0632(4)
O4 O 0.8061(6) 0.4686(4) 0.2106(3)
H1 H 0.8162 0.4297 0.2341
H2 H 0.7703 0.4972 0.2330
O5 O 0.6466(6) 0.3606(5) 0.1686(4)
H3 H 0.6046 0.3783 0.1921
H4 H 0.6579 0.3149 0.1861
N1 N 0.6222(6) 0.5359(5) 0.1485(3)
N2 N 0.8472(6) 0.3158(5) 0.1424(4)
N3 N 0.3418(9) 0.8375(6) 0.2117(4)
N4 N 0.3134(8) 0.5654(6) 0.2154(4)
N5 N 0.7864(7) 0.6156(6) 0.0805(5)
N6 N 0.9447(7) 0.4642(6) 0.1058(4)
N7 N 0.8254(7) 0.3887(5) 0.0322(4)
N8 N 0.6279(7) 0.4000(6) 0.0546(4)
C1 C 0.5718(7) 0.5908(6) 0.1600(4)
C2 C 0.9077(7) 0.2682(6) 0.1567(4)
C3 C 0.3970(8) 0.7831(7) 0.1998(4)
C4 C 0.3755(7) 0.6103(6) 0.2013(4)
C5 C 1.0018(9) 0.5052(8) 0.1438(6)
H5 H 0.9697 0.5329 0.1727
C6 C 1.1064(10) 0.5071(10) 0.1409(7)
H6 H 1.1457 0.5345 0.1672
C7 C 1.1507(11) 0.4634(13) 0.0941(9)
H7 H 1.2204 0.4645 0.0891
C8 C 1.0930(11) 0.4220(11) 0.0584(7)
H8 H 1.1227 0.3916 0.0299
C9 C 0.9917(8) 0.4240(7) 0.0634(5)
C10 C 0.9260(9) 0.3842(7) 0.0224(5)
C11 C 0.9641(11) 0.3452(8) -0.0240(6)
H9 H 1.0336 0.3414 -0.0293
C12 C 0.8988(15) 0.3118(9) -0.0626(7)
H10 H 0.9237 0.2865 -0.0944
C13 C 0.7973(14) 0.3166(8) -0.0535(5)
H11 H 0.7524 0.2938 -0.0789
C14 C 0.7602(11) 0.3565(7) -0.0051(5)
C15 C 0.6502(8) 0.3676(7) 0.0048(5)
C16 C 0.5778(11) 0.3479(8) -0.0322(5)
H12 H 0.5963 0.3256 -0.0661
C17 C 0.4796(11) 0.3599(9) -0.0209(6)
H13 H 0.4299 0.3467 -0.0466
C18 C 0.4556(10) 0.3913(8) 0.0281(6)
H14 H 0.3881 0.3998 0.0372
C19 C 0.5309(8) 0.4114(7) 0.0657(5)
H15 H 0.5126 0.4336 0.0997
Pt1G Pt 1.01482(3) 0.18778(2) 0.179804(14)
C2G C 0.5923(7) 0.7682(6) 0.1567(4)
O6 O 0.3671(13) 0.3552(13) 0.1706(7)
O7 O 0.5000 0.4203(10) 0.2500
N9 N 0.3186 0.2066 0.2837
C20 C 0.3787 0.2043 0.2497
C21 C 0.4592 0.1998 0.2071
loop_
_geom_bond_atom_site_label_1
_geom_bond_atom_site_label_2
_geom_bond_site_symmetry_1
_geom_bond_site_symmetry_2
Yb1 O1 1_555 1_555
Pt1 C1 1_555 1_555
O1 N5 1_555 1_555
O2 Yb1 1_555 1_555
O3 N5 1_555 1_555
O4 Yb1 1_555 1_555
H1 O4 1_555 1_555
H2 O4 1_555 1_555
O5 Yb1 1_555 1_555
H3 O5 1_555 1_555
H4 O5 1_555 1_555
N1 Yb1 1_555 1_555
N2 Yb1 1_555 1_555
N3 C3 1_555 1_555
N4 C4 1_555 1_555
N5 O2 1_555 1_555
N6 Yb1 1_555 1_555
N7 Yb1 1_555 1_555
N8 Yb1 1_555 1_555
N9 C20 1_555 1_555
C1 N1 1_555 1_555
C2 N2 1_555 1_555
C3 Pt1 1_555 1_555
C4 Pt1 1_555 1_555
C5 N6 1_555 1_555
H5 C5 1_555 1_555
C6 C5 1_555 1_555
H6 C6 1_555 1_555
C7 C6 1_555 1_555
H7 C7 1_555 1_555
C8 C7 1_555 1_555
H8 C8 1_555 1_555
C9 N6 1_555 1_555
C10 N7 1_555 1_555
C11 C10 1_555 1_555
H9 C11 1_555 1_555
C12 C11 1_555 1_555
H10 C12 1_555 1_555
C13 C12 1_555 1_555
H11 C13 1_555 1_555
C14 N7 1_555 1_555
C15 N8 1_555 1_555
C16 C15 1_555 1_555
H12 C16 1_555 1_555
C17 C16 1_555 1_555
H13 C17 1_555 1_555
C18 C17 1_555 1_555
H14 C18 1_555 1_555
C19 N8 1_555 1_555
H15 C19 1_555 1_555
C20 C21 1_555 1_555
Pt1G C2 1_555 1_555
C2G Pt1 1_555 1_555
C8 C9 1_555 1_555
C9 C10 1_555 1_555
C13 C14 1_555 1_555
C14 C15 1_555 1_555
C18 C19 1_555 1_555

#END
