
#######################################################################
#
#                 Cambridge Crystallographic Data Centre
#                                CCDC 
#
#######################################################################
#
# If this CIF has been generated from an entry in the Cambridge 
# Structural Database, then it will include bibliographic, chemical, 
# crystal, experimental, refinement or atomic coordinate data resulting 
# from the CCDC's data processing and validation procedures.
#
#######################################################################

data_MUQPUK
_symmetry_cell_setting           monoclinic
_symmetry_space_group_name_H-M   'P 21/c'
_symmetry_Int_Tables_number      14
_space_group_name_Hall           '-P 2ybc'
loop_
_symmetry_equiv_pos_site_id
_symmetry_equiv_pos_as_xyz
1 x,y,z
2 -x,1/2+y,1/2-z
3 -x,-y,-z
4 x,1/2-y,1/2+z
_cell_length_a                   11.7603(7)
_cell_length_b                   12.8760(7)
_cell_length_c                   10.3877(6)
_cell_angle_alpha                90
_cell_angle_beta                 90.765(5)
_cell_angle_gamma                90
_cell_volume                     1572.82
loop_
_atom_site_label
_atom_site_type_symbol
_atom_site_fract_x
_atom_site_fract_y
_atom_site_fract_z
C1 C 0.3378(3) 0.3424(3) 0.8419(4)
C2 C 0.2215(3) 0.2965(3) 0.8275(4)
C3 C 0.1941(4) 0.2032(3) 0.7708(5)
H1 H 0.2500 0.1598 0.7382
C4 C 0.0807(4) 0.1764(4) 0.7638(6)
H2 H 0.0597 0.1138 0.7255
C5 C -0.0016(4) 0.2399(4) 0.8119(6)
H3 H -0.0773 0.2193 0.8061
C6 C 0.0250(4) 0.3350(4) 0.8695(5)
H4 H -0.0307 0.3782 0.9029
C7 C 0.1389(3) 0.3612(3) 0.8739(4)
C8 C 0.3356(3) 0.7700(3) 0.8973(4)
H5 H 0.2835 0.7267 0.9451
H6 H 0.3166 0.7619 0.8067
C9 C 0.3946(3) 0.9583(3) 0.8670(3)
H7 H 0.3759 1.0282 0.8940
H8 H 0.4712 0.9438 0.8980
C10 C 0.1913(4) 0.9095(4) 0.8987(5)
H9 H 0.1411 0.8623 0.9413
H10 H 0.1807 0.9036 0.8072
H11 H 0.1748 0.9793 0.9251
C11 C 0.3308(4) 0.8973(4) 1.0798(4)
H12 H 0.4080 0.8810 1.1030
H13 H 0.2803 0.8518 1.1248
H14 H 0.3148 0.9680 1.1028
C12 C 0.3136(3) 0.8832(3) 0.9343(3)
N1 N 0.4512(3) 0.7295(3) 0.9186(4)
N2 N 0.3957(3) 0.9565(3) 0.7258(3)
O1 O 0.4261(2) 0.2967(2) 0.8179(3)
O2 O 0.1902(3) 0.4936(3) 1.0595(3)
O3 O 0.1715(2) 0.5614(2) 0.8453(3)
S1 S 0.20488(8) 0.47617(7) 0.92555(9)
Ag1 Ag 0.48253(3) 0.56394(2) 0.87381(3)
N3 N 0.3348(2) 0.4395(2) 0.8982(3)
H15 H 0.419(5) 0.896(5) 0.696(6)
H16 H 0.336(5) 0.969(4) 0.696(6)
H17 H 0.481(4) 0.740(4) 0.990(5)
H18 H 0.504(5) 0.769(5) 0.869(6)
C1B C 0.6622(3) 0.6576(3) 1.1581(4)
C2B C 0.7785(3) 0.7035(3) 1.1725(4)
C3B C 0.8059(4) 0.7968(3) 1.2292(5)
H1B H 0.7500 0.8402 1.2618
C4B C 0.9193(4) 0.8236(4) 1.2362(6)
H2B H 0.9403 0.8862 1.2745
C5B C 1.0016(4) 0.7601(4) 1.1881(6)
H3B H 1.0773 0.7807 1.1939
C6B C 0.9750(4) 0.6650(4) 1.1305(5)
H4B H 1.0307 0.6218 1.0971
C7B C 0.8611(3) 0.6388(3) 1.1261(4)
C8B C 0.6644(3) 0.2300(3) 1.1027(4)
H5B H 0.7165 0.2733 1.0549
H6B H 0.6834 0.2381 1.1933
C9B C 0.6054(3) 0.0417(3) 1.1330(3)
H7B H 0.6241 -0.0282 1.1060
H8B H 0.5288 0.0562 1.1020
C10B C 0.8087(4) 0.0905(4) 1.1013(5)
H9B H 0.8589 0.1377 1.0587
H10B H 0.8193 0.0964 1.1928
H11B H 0.8252 0.0207 1.0749
C11B C 0.6692(4) 0.1027(4) 0.9202(4)
H12B H 0.5920 0.1190 0.8970
H13B H 0.7197 0.1482 0.8752
H14B H 0.6852 0.0320 0.8972
C12B C 0.6864(3) 0.1168(3) 1.0657(3)
N1B N 0.5488(3) 0.2705(3) 1.0814(4)
N2B N 0.6043(3) 0.0435(3) 1.2742(3)
N2A N 0.6043(3) 0.4565(3) 0.7742(3)
N2C N 0.3957(3) 0.5435(3) 1.2258(3)
O1B O 0.5739(2) 0.7033(2) 1.1821(3)
O2B O 0.8098(3) 0.5064(3) 0.9405(3)
O3B O 0.8285(2) 0.4386(2) 1.1547(3)
S1B S 0.79512(8) 0.52383(7) 1.07445(9)
Ag1B Ag 0.51747(3) 0.43606(2) 1.12619(3)
Ag1A Ag 0.51747(3) 1.06394(2) 0.62619(3)
Ag1C Ag 0.48253(3) -0.06394(2) 1.37381(3)
N3B N 0.6652(2) 0.5605(2) 1.1018(3)
H15B H 0.581(5) 0.104(5) 1.304(6)
H16B H 0.664(5) 0.031(4) 1.304(6)
H17B H 0.519(4) 0.260(4) 1.010(5)
H18B H 0.496(5) 0.231(5) 1.131(6)
loop_
_geom_bond_atom_site_label_1
_geom_bond_atom_site_label_2
_geom_bond_site_symmetry_1
_geom_bond_site_symmetry_2
C1 C2 1_555 1_555
C2 C3 1_555 1_555
C3 H1 1_555 1_555
C4 C3 1_555 1_555
H2 C4 1_555 1_555
C5 C4 1_555 1_555
H3 C5 1_555 1_555
C6 C5 1_555 1_555
H4 C6 1_555 1_555
C7 C2 1_555 1_555
C8 H5 1_555 1_555
H6 C8 1_555 1_555
C9 H7 1_555 1_555
H8 C9 1_555 1_555
C10 H9 1_555 1_555
H10 C10 1_555 1_555
H11 C10 1_555 1_555
C11 H12 1_555 1_555
H13 C11 1_555 1_555
H14 C11 1_555 1_555
C12 C8 1_555 1_555
N1 C8 1_555 1_555
N2 C9 1_555 1_555
O1 C1 1_555 1_555
O2 S1 1_555 1_555
O3 S1 1_555 1_555
S1 C7 1_555 1_555
Ag1 N1 1_555 1_555
N3 C1 1_555 1_555
H15 N2 1_555 1_555
H16 N2 1_555 1_555
H17 N1 1_555 1_555
H18 N1 1_555 1_555
C1B C2B 1_555 1_555
C2B C3B 1_555 1_555
C3B H1B 1_555 1_555
C4B C3B 1_555 1_555
H2B C4B 1_555 1_555
C5B C4B 1_555 1_555
H3B C5B 1_555 1_555
C6B C5B 1_555 1_555
H4B C6B 1_555 1_555
C7B C2B 1_555 1_555
C8B H5B 1_555 1_555
H6B C8B 1_555 1_555
C9B H7B 1_555 1_555
H8B C9B 1_555 1_555
C10B H9B 1_555 1_555
H10B C10B 1_555 1_555
H11B C10B 1_555 1_555
C11B H12B 1_555 1_555
H13B C11B 1_555 1_555
H14B C11B 1_555 1_555
C12B C8B 1_555 1_555
N1B C8B 1_555 1_555
N2B C9B 1_555 1_555
N2A Ag1 1_555 1_555
N2C Ag1B 1_555 1_555
O1B C1B 1_555 1_555
O2B S1B 1_555 1_555
O3B S1B 1_555 1_555
S1B C7B 1_555 1_555
Ag1B Ag1 1_555 1_555
Ag1A N2 1_555 1_555
Ag1C N2B 1_555 1_555
N3B C1B 1_555 1_555
H15B N2B 1_555 1_555
H16B N2B 1_555 1_555
H17B N1B 1_555 1_555
H18B N1B 1_555 1_555
C6 C7 1_555 1_555
C9 C12 1_555 1_555
C10 C12 1_555 1_555
C11 C12 1_555 1_555
S1 N3 1_555 1_555
Ag1 N3 1_555 1_555
C6B C7B 1_555 1_555
C9B C12B 1_555 1_555
C10B C12B 1_555 1_555
C11B C12B 1_555 1_555
N1B Ag1B 1_555 1_555
S1B N3B 1_555 1_555
Ag1B N3B 1_555 1_555

#END
