
#######################################################################
#
#                 Cambridge Crystallographic Data Centre
#                                CCDC 
#
#######################################################################
#
# If this CIF has been generated from an entry in the Cambridge 
# Structural Database, then it will include bibliographic, chemical, 
# crystal, experimental, refinement or atomic coordinate data resulting 
# from the CCDC's data processing and validation procedures.
#
#######################################################################

data_MUQQIZ
_symmetry_cell_setting           tetragonal
_symmetry_space_group_name_H-M   'P 41'
_symmetry_Int_Tables_number      76
_space_group_name_Hall           'P 4w'
loop_
_symmetry_equiv_pos_site_id
_symmetry_equiv_pos_as_xyz
1 x,y,z
2 -x,-y,1/2+z
3 -y,x,1/4+z
4 y,-x,3/4+z
_cell_length_a                   8.3597(12)
_cell_length_b                   8.3597(12)
_cell_length_c                   21.041(4)
_cell_angle_alpha                90
_cell_angle_beta                 90
_cell_angle_gamma                90
_cell_volume                     1470.44
loop_
_atom_site_label
_atom_site_type_symbol
_atom_site_fract_x
_atom_site_fract_y
_atom_site_fract_z
C1 C 0.6251(7) 0.5715(7) 0.2565(3)
C2 C 0.6930(7) 0.5668(7) -0.1229(3)
C3 C 0.8642(6) 0.4945(7) 0.1894(2)
C4 C 0.9860(7) 0.4212(8) 0.2183(3)
H1 H 0.9840 0.4022 0.2618
C5 C 1.1191(8) 0.3729(9) 0.1807(4)
H2 H 1.2071 0.3222 0.1987
C6 C 1.1119(7) 0.4044(8) 0.1172(4)
H3 H 1.1961 0.3758 0.0907
C7 C 0.9802(7) 0.4782(8) 0.0931(3)
H4 H 0.9783 0.4971 0.0496
C8 C 0.8009(6) 0.7851(6) -0.0504(2)
C9 C 0.9022(8) 0.8953(8) -0.0766(4)
H5 H 0.9411 0.8840 -0.1178
C10 C 0.9441(8) 1.0248(9) -0.0388(4)
H6 H 1.0079 1.1062 -0.0550
C11 C 0.8909(8) 1.0311(7) 0.0219(3)
H7 H 0.9199 1.1162 0.0480
C12 C 0.7948(8) 0.9126(7) 0.0449(3)
H8 H 0.7609 0.9181 0.0869
Ag1 Ag 0.60307(5) 0.57531(5) 0.06826(3)
N1 N 0.7272(5) 0.5408(5) 0.22469(19)
N2 N 0.7428(5) 0.6619(5) -0.0894(2)
N3 N 0.7470(5) 0.7879(5) 0.00900(19)
N4 N 0.8538(5) 0.5255(6) 0.12669(19)
C1C C 0.5715(7) 0.3749(7) 0.0065(3)
C2B C 0.4332(7) 0.6930(7) 0.1271(3)
Ag1B Ag 0.42469(5) 0.60307(5) 0.31826(3)
Ag1C Ag 0.57531(5) 0.39693(5) -0.18174(3)
B1 B 1.5366(9) 0.1405(8) 0.1668(3)
F1 F 1.4265(6) 0.1104(7) 0.1199(3)
F2 F 1.5889(7) -0.0078(7) 0.1887(3)
F3 F 1.4702(11) 0.2137(12) 0.2166(3)
F4 F 1.6749(7) 0.2050(7) 0.1429(4)
loop_
_geom_bond_atom_site_label_1
_geom_bond_atom_site_label_2
_geom_bond_site_symmetry_1
_geom_bond_site_symmetry_2
C1 N1 1_555 1_555
C2 N2 1_555 1_555
C3 C4 1_555 1_555
C4 H1 1_555 1_555
C5 C4 1_555 1_555
H2 C5 1_555 1_555
C6 C5 1_555 1_555
H3 C6 1_555 1_555
C7 C6 1_555 1_555
H4 C7 1_555 1_555
C8 C9 1_555 1_555
C9 H5 1_555 1_555
C10 C9 1_555 1_555
H6 C10 1_555 1_555
C11 C10 1_555 1_555
H7 C11 1_555 1_555
C12 C11 1_555 1_555
H8 C12 1_555 1_555
Ag1 N3 1_555 1_555
N1 C3 1_555 1_555
N2 C8 1_555 1_555
N3 C8 1_555 1_555
N4 C3 1_555 1_555
B1 F1 1_555 1_555
F2 B1 1_555 1_555
F3 B1 1_555 1_555
F4 B1 1_555 1_555
C1C Ag1 1_555 1_555
C2B Ag1 1_555 1_555
Ag1B C1 1_555 1_555
Ag1C C2 1_555 1_555
C7 N4 1_555 1_555
C12 N3 1_555 1_555
Ag1 N4 1_555 1_555

#END
