
#######################################################################
#
#                 Cambridge Crystallographic Data Centre
#                                CCDC 
#
#######################################################################
#
# If this CIF has been generated from an entry in the Cambridge 
# Structural Database, then it will include bibliographic, chemical, 
# crystal, experimental, refinement or atomic coordinate data resulting 
# from the CCDC's data processing and validation procedures.
#
#######################################################################

data_MUQSEW
_symmetry_cell_setting           monoclinic
_symmetry_space_group_name_H-M   'C 2/c'
_symmetry_Int_Tables_number      15
_space_group_name_Hall           '-C 2yn'
loop_
_symmetry_equiv_pos_site_id
_symmetry_equiv_pos_as_xyz
1 x,y,z
2 1/2+x,1/2+y,z
3 x,-y,1/2+z
4 1/2+x,1/2-y,1/2+z
5 -x,-y,-z
6 1/2-x,1/2-y,-z
7 -x,y,1/2-z
8 1/2-x,1/2+y,1/2-z
_cell_length_a                   26.544(5)
_cell_length_b                   7.617(2)
_cell_length_c                   9.187(2)
_cell_angle_alpha                90
_cell_angle_beta                 105.38(2)
_cell_angle_gamma                90
_cell_volume                     1790.96
loop_
_atom_site_label
_atom_site_type_symbol
_atom_site_fract_x
_atom_site_fract_y
_atom_site_fract_z
Mn1 Mn 0.017740(14) 0.20353(5) 0.45589(4)
O1 O 0.03504(7) 0.0191(2) 0.6413(2)
O2 O 0.07654(7) -0.1126(3) 0.8554(2)
C1 C 0.07659(9) -0.0192(3) 0.7444(3)
C2 C 0.12770(10) 0.0458(4) 0.7219(3)
C3 C 0.17605(10) 0.0091(4) 0.8502(3)
C4 C 0.22634(11) 0.0460(4) 0.8052(3)
C5 C 0.27545(11) 0.0161(4) 0.9334(3)
C6 C 0.32612(11) 0.0455(5) 0.8877(3)
C7 C 0.37466(10) 0.0205(4) 1.0195(3)
C8 C 0.42415(10) 0.0490(4) 0.9691(3)
O3 O 0.44165(8) -0.0805(3) 0.9086(2)
O4 O 0.44437(9) 0.1984(2) 0.9840(3)
O5 O 0.0000 0.4052(4) 0.2500
H1 H 0.1241(17) 0.172(6) 0.703(5)
H2 H 0.1290(19) -0.011(6) 0.648(6)
H3 H 0.1743(15) 0.070(6) 0.933(5)
H4 H 0.1743(17) -0.104(6) 0.876(5)
H5 H 0.224(2) -0.024(7) 0.722(6)
H6 H 0.2288(16) 0.170(6) 0.780(4)
H7 H 0.2756(17) 0.081(6) 1.005(5)
H8 H 0.2763(18) -0.111(6) 0.969(5)
H9 H 0.3271(18) -0.038(7) 0.806(6)
H10 H 0.3263(19) 0.162(6) 0.855(5)
H11 H 0.3733(16) 0.101(6) 1.093(5)
H12 H 0.3723(16) -0.098(6) 1.064(5)
H13 H 0.0201(18) 0.486(6) 0.217(5)
H13F H -0.0201(18) 0.486(6) 0.283(5)
O1D O -0.03504(7) -0.0191(2) 0.3587(2)
O2D O -0.07654(7) 0.1126(3) 0.1446(2)
C1D C -0.07659(9) 0.0192(3) 0.2556(3)
C2D C -0.12770(10) -0.0458(4) 0.2781(3)
C3D C -0.17605(10) -0.0091(4) 0.1498(3)
C4D C -0.22634(11) -0.0460(4) 0.1948(3)
C5D C -0.27545(11) -0.0161(4) 0.0666(3)
C6D C -0.32612(11) -0.0455(5) 0.1123(3)
C7D C -0.37466(10) -0.0205(4) -0.0195(3)
C8D C -0.42415(10) -0.0490(4) 0.0309(3)
O3D O -0.44165(8) 0.0805(3) 0.0914(2)
O4D O -0.44437(9) -0.1984(2) 0.0160(3)
H1D H -0.1241(17) -0.172(6) 0.297(5)
H2D H -0.1290(19) 0.011(6) 0.352(6)
H3D H -0.1743(15) -0.070(6) 0.067(5)
H4D H -0.1743(17) 0.104(6) 0.124(5)
H5D H -0.224(2) 0.024(7) 0.278(6)
H6D H -0.2288(16) -0.170(6) 0.220(4)
H7D H -0.2756(17) -0.081(6) -0.005(5)
H8D H -0.2763(18) 0.111(6) 0.031(5)
H9D H -0.3271(18) 0.038(7) 0.194(6)
H10D H -0.3263(19) -0.162(6) 0.145(5)
H11D H -0.3733(16) -0.101(6) -0.093(5)
H12D H -0.3723(16) 0.098(6) -0.064(5)
Mn1D Mn -0.017740(14) -0.20353(5) 0.54411(4)
O2B O 0.07654(7) 0.1126(3) 0.3554(2)
O3G O 0.05835(8) 0.4195(3) 0.5914(2)
O4C O -0.05563(9) 0.3016(2) 0.4840(3)
Mn1B Mn 0.017740(14) -0.20353(5) 0.95589(4)
Mn1G Mn 0.482260(14) -0.29647(5) 1.04411(4)
Mn1C Mn 0.517740(14) 0.29647(5) 0.95589(4)
Mn1F Mn -0.017740(14) 0.20353(5) 0.04411(4)
Mn1C_2 Mn -0.482260(14) 0.29647(5) -0.04411(4)
Mn1G_2 Mn -0.517740(14) -0.29647(5) 0.04411(4)
O2F O -0.07654(7) -0.1126(3) 0.6446(2)
O3C O -0.05835(8) -0.4195(3) 0.4086(2)
O4G O 0.05563(9) -0.3016(2) 0.5160(3)
O5B O 0.0000 -0.4052(4) 0.7500
H13B H 0.0201(18) -0.486(6) 0.717(5)
H13D H -0.0201(18) -0.486(6) 0.783(5)
loop_
_geom_bond_atom_site_label_1
_geom_bond_atom_site_label_2
_geom_bond_site_symmetry_1
_geom_bond_site_symmetry_2
Mn1 O1 1_555 1_555
O1 C1 1_555 1_555
O2 C1 1_555 1_555
C1 C2 1_555 1_555
C2 C3 1_555 1_555
C3 C4 1_555 1_555
C4 C5 1_555 1_555
C5 C6 1_555 1_555
C6 C7 1_555 1_555
C7 C8 1_555 1_555
C8 O3 1_555 1_555
O3 Mn1G 1_555 1_555
O4 C8 1_555 1_555
O5 Mn1 1_555 1_555
H1 C2 1_555 1_555
H2 C2 1_555 1_555
H3 C3 1_555 1_555
H4 C3 1_555 1_555
H5 C4 1_555 1_555
H6 C4 1_555 1_555
H7 C5 1_555 1_555
H8 C5 1_555 1_555
H9 C6 1_555 1_555
H10 C6 1_555 1_555
H11 C7 1_555 1_555
H12 C7 1_555 1_555
H13 O5 1_555 1_555
H13F O5 1_555 1_555
O1D Mn1 1_555 1_555
O2D C1D 1_555 1_555
C1D O1D 1_555 1_555
C2D C1D 1_555 1_555
C3D C2D 1_555 1_555
C4D C3D 1_555 1_555
C5D C4D 1_555 1_555
C6D C5D 1_555 1_555
C7D C6D 1_555 1_555
C8D C7D 1_555 1_555
O3D C8D 1_555 1_555
O4D C8D 1_555 1_555
H1D C2D 1_555 1_555
H2D C2D 1_555 1_555
H3D C3D 1_555 1_555
H4D C3D 1_555 1_555
H5D C4D 1_555 1_555
H6D C4D 1_555 1_555
H7D C5D 1_555 1_555
H8D C5D 1_555 1_555
H9D C6D 1_555 1_555
H10D C6D 1_555 1_555
H11D C7D 1_555 1_555
H12D C7D 1_555 1_555
Mn1D O1 1_555 1_555
O2B Mn1 1_555 1_555
O3G Mn1 1_555 1_555
O4C Mn1 1_555 1_555
Mn1B O2 1_555 1_555
Mn1C O4 1_555 1_555
Mn1F O5 1_555 1_555
Mn1C_2 O3D 1_555 1_555
Mn1G_2 O4D 1_555 1_555
O2F Mn1D 1_555 1_555
O3C Mn1D 1_555 1_555
O4G Mn1D 1_555 1_555
O5B Mn1D 1_555 1_555
H13B O5B 1_555 1_555
H13D O5B 1_555 1_555
O1D Mn1D 1_555 1_555
O2D Mn1F 1_555 1_555
Mn1B O5B 1_555 1_555

#END
