
#######################################################################
#
#                 Cambridge Crystallographic Data Centre
#                                CCDC 
#
#######################################################################
#
# If this CIF has been generated from an entry in the Cambridge 
# Structural Database, then it will include bibliographic, chemical, 
# crystal, experimental, refinement or atomic coordinate data resulting 
# from the CCDC's data processing and validation procedures.
#
#######################################################################

data_MUQSUM
_symmetry_cell_setting           orthorhombic
_symmetry_space_group_name_H-M   'P c a 21'
_symmetry_Int_Tables_number      29
_space_group_name_Hall           'P 2c -2ac'
loop_
_symmetry_equiv_pos_site_id
_symmetry_equiv_pos_as_xyz
1 x,y,z
2 1/2-x,y,1/2+z
3 1/2+x,-y,z
4 -x,-y,1/2+z
_cell_length_a                   10.05190(30)
_cell_length_b                   5.94366(18)
_cell_length_c                   21.8608(8)
_cell_angle_alpha                90
_cell_angle_beta                 90
_cell_angle_gamma                90
_cell_volume                     1306.08
loop_
_atom_site_label
_atom_site_type_symbol
_atom_site_fract_x
_atom_site_fract_y
_atom_site_fract_z
Cd1 Cd 0.1798(5) 0.4867(12) 0.3754(5)
Cd2 Cd 0.4210(6) 1.0085(15) 0.4000(5)
P1 P 0.3065(15) -0.0087(34) 0.8073(8)
P2 P 0.4659(15) 0.496(5) 0.4628(9)
O1 O 0.0224(20) 0.502(11) 0.2973(9)
O2 O 0.2452(18) 1.016(8) 0.4693(9)
O3 O 0.3219(18) 0.548(5) 0.4540(11)
O4 O 0.5293(28) 0.702(4) 0.4355(11)
O5 O 0.4520(18) 0.026(9) 0.8159(10)
O6 O 0.2274(20) 0.1966(27) 0.8243(7)
O7 O 0.5382(22) 0.2834(31) 0.4450(8)
O8 O 0.2416(22) -0.1776(26) 0.8485(11)
C1 C 0.238(4) -0.033(9) 0.7316(9)
C2 C 0.476(4) 0.498(9) 0.5450(9)
C3 C 0.316(6) 0.420(6) 0.6253(24)
C4 C 0.437(5) -0.007(8) 0.6502(20)
C5 C 0.429(5) 0.340(8) 0.5942(21)
C6 C 0.328(5) 0.072(7) 0.6846(18)
C7 C 0.265(5) 0.278(7) 0.6714(22)
C8 C 0.497(5) 0.138(7) 0.6078(21)
O4B O 0.0293(28) 0.298(4) 0.4355(11)
O6A O 0.2726(20) 0.1966(27) 0.3243(7)
O7B O 0.0382(22) 0.7166(31) 0.4450(8)
O8A O 0.2584(22) 0.8224(26) 0.3485(11)
O5C O 0.5480(18) 0.974(9) 0.3159(10)
O6A_2 O 0.2726(20) 1.1966(27) 0.3243(7)
O7_2 O 0.5382(22) 1.2834(31) 0.4450(8)
Cd1B Cd 0.6798(5) 0.5133(12) 0.3754(5)
Cd2C Cd 0.5790(6) -0.0085(15) 0.9000(5)
Cd1A Cd 0.3202(5) 0.4867(12) 0.8754(5)
Cd2A Cd 0.0790(6) 0.0085(15) 0.9000(5)
Cd2_2 Cd 0.4210(6) 0.0085(15) 0.4000(5)
Cd1A_2 Cd 0.3202(5) -0.5133(12) 0.8754(5)
loop_
_geom_bond_atom_site_label_1
_geom_bond_atom_site_label_2
_geom_bond_site_symmetry_1
_geom_bond_site_symmetry_2
Cd1 O1 1_555 1_555
Cd2 O2 1_555 1_555
P1 O5 1_555 1_555
P2 O3 1_555 1_555
O3 Cd1 1_555 1_555
O4 Cd2 1_555 1_555
O5 Cd2C 1_555 1_555
O6 P1 1_555 1_555
O7 P2 1_555 1_555
O8 P1 1_555 1_555
C1 P1 1_555 1_555
C2 P2 1_555 1_555
C3 C5 1_555 1_555
C4 C6 1_555 1_555
C5 C2 1_555 1_555
C6 C1 1_555 1_555
C7 C3 1_555 1_555
C8 C4 1_555 1_555
O4B Cd1 1_555 1_555
O6A Cd1 1_555 1_555
O7B Cd1 1_555 1_555
O8A Cd1 1_555 1_555
O5C Cd2 1_555 1_555
O6A_2 Cd2 1_555 1_555
O7_2 Cd2 1_555 1_555
Cd1B O4 1_555 1_555
Cd1A O6 1_555 1_555
Cd2A O6 1_555 1_555
Cd2_2 O7 1_555 1_555
Cd1A_2 O8 1_555 1_555
Cd2 O8A 1_555 1_555
P2 O4 1_555 1_555
O7 Cd1B 1_555 1_555
O8 Cd2A 1_555 1_555
C5 C8 1_555 1_555
C6 C7 1_555 1_555
O6A Cd2_2 1_555 1_555

#END
