
#######################################################################
#
#                 Cambridge Crystallographic Data Centre
#                                CCDC 
#
#######################################################################
#
# If this CIF has been generated from an entry in the Cambridge 
# Structural Database, then it will include bibliographic, chemical, 
# crystal, experimental, refinement or atomic coordinate data resulting 
# from the CCDC's data processing and validation procedures.
#
#######################################################################

data_MUQSOG
_symmetry_cell_setting           orthorhombic
_symmetry_space_group_name_H-M   'P c a 21'
_symmetry_Int_Tables_number      29
_space_group_name_Hall           'P 2c -2ac'
loop_
_symmetry_equiv_pos_site_id
_symmetry_equiv_pos_as_xyz
1 x,y,z
2 1/2-x,y,1/2+z
3 1/2+x,-y,z
4 -x,-y,1/2+z
_cell_length_a                   9.51181(24)
_cell_length_b                   5.62307(13)
_cell_length_c                   21.7847(6)
_cell_angle_alpha                90
_cell_angle_beta                 90
_cell_angle_gamma                90
_cell_volume                     1165.17
loop_
_atom_site_label
_atom_site_type_symbol
_atom_site_fract_x
_atom_site_fract_y
_atom_site_fract_z
Ni1 Ni 0.1680(11) 0.4870(24) 0.3829(7)
Ni2 Ni 0.3997(10) 0.9948(29) 0.4003(7)
P1 P 0.3184(18) 0.005(5) 0.8200(10)
P2 P 0.4611(16) 0.484(4) 0.4645(10)
O1 O 0.0234(27) 0.532(8) 0.3030(13)
O2 O 0.2347(29) 1.030(9) 0.4715(13)
O3 O 0.3088(20) 0.531(8) 0.4538(13)
O4 O 0.5152(33) 0.710(4) 0.4350(16)
O5 O 0.4741(21) 0.047(7) 0.8229(12)
O6 O 0.2283(30) 0.208(4) 0.8428(15)
O7 O 0.5224(33) 0.281(4) 0.4271(16)
O8 O 0.2449(33) -0.210(4) 0.8464(16)
C1 C 0.273(6) -0.065(9) 0.7415(10)
C2 C 0.520(5) 0.511(11) 0.5433(11)
C3 C 0.323(7) 0.437(9) 0.6225(26)
C4 C 0.452(6) -0.039(8) 0.6504(26)
C5 C 0.447(6) 0.360(9) 0.5918(23)
C6 C 0.341(6) 0.052(11) 0.6868(22)
C7 C 0.280(6) 0.272(10) 0.6682(25)
C8 C 0.510(5) 0.143(9) 0.6132(23)
O4B O 0.0152(33) 0.290(4) 0.4350(16)
O6A O 0.2717(30) 0.208(4) 0.3428(15)
O7B O 0.0224(33) 0.719(4) 0.4271(16)
O8A O 0.2551(33) 0.790(4) 0.3464(16)
O5C O 0.5259(21) 0.953(7) 0.3229(12)
O6A_2 O 0.2717(30) 1.208(4) 0.3428(15)
O7_2 O 0.5224(33) 1.281(4) 0.4271(16)
Ni1B Ni 0.6680(11) 0.5130(24) 0.3829(7)
Ni2C Ni 0.6003(10) 0.0052(29) 0.9003(7)
Ni1A Ni 0.3320(11) 0.4870(24) 0.8829(7)
Ni2A Ni 0.1003(10) -0.0052(29) 0.9003(7)
Ni2_2 Ni 0.3997(10) -0.0052(29) 0.4003(7)
Ni1A_2 Ni 0.3320(11) -0.5130(24) 0.8829(7)
loop_
_geom_bond_atom_site_label_1
_geom_bond_atom_site_label_2
_geom_bond_site_symmetry_1
_geom_bond_site_symmetry_2
Ni1 O1 1_555 1_555
Ni2 O2 1_555 1_555
P1 O5 1_555 1_555
P2 O3 1_555 1_555
O3 Ni1 1_555 1_555
O4 Ni2 1_555 1_555
O5 Ni2C 1_555 1_555
O6 P1 1_555 1_555
O7 P2 1_555 1_555
O8 P1 1_555 1_555
C1 P1 1_555 1_555
C2 P2 1_555 1_555
C3 C5 1_555 1_555
C4 C6 1_555 1_555
C5 C2 1_555 1_555
C6 C1 1_555 1_555
C7 C3 1_555 1_555
C8 C4 1_555 1_555
O4B Ni1 1_555 1_555
O6A Ni1 1_555 1_555
O7B Ni1 1_555 1_555
O8A Ni1 1_555 1_555
O5C Ni2 1_555 1_555
O6A_2 Ni2 1_555 1_555
O7_2 Ni2 1_555 1_555
Ni1B O4 1_555 1_555
Ni1A O6 1_555 1_555
Ni2A O6 1_555 1_555
Ni2_2 O7 1_555 1_555
Ni1A_2 O8 1_555 1_555
Ni2 O8A 1_555 1_555
P2 O4 1_555 1_555
O7 Ni1B 1_555 1_555
O8 Ni2A 1_555 1_555
C5 C8 1_555 1_555
C6 C7 1_555 1_555
O6A Ni2_2 1_555 1_555

#END
