
#######################################################################
#
#                 Cambridge Crystallographic Data Centre
#                                CCDC 
#
#######################################################################
#
# If this CIF has been generated from an entry in the Cambridge 
# Structural Database, then it will include bibliographic, chemical, 
# crystal, experimental, refinement or atomic coordinate data resulting 
# from the CCDC's data processing and validation procedures.
#
#######################################################################

data_MUQTUO
_symmetry_cell_setting           monoclinic
_symmetry_space_group_name_H-M   'C 2/c'
_symmetry_Int_Tables_number      15
_space_group_name_Hall           '-C 2yn'
loop_
_symmetry_equiv_pos_site_id
_symmetry_equiv_pos_as_xyz
1 x,y,z
2 -x,y,1/2-z
3 1/2+x,1/2+y,z
4 1/2-x,1/2+y,1/2-z
5 -x,-y,-z
6 x,-y,1/2+z
7 1/2-x,1/2-y,-z
8 1/2+x,1/2-y,1/2+z
_cell_length_a                   13.1377(11)
_cell_length_b                   9.9365(8)
_cell_length_c                   15.2527(13)
_cell_angle_alpha                90
_cell_angle_beta                 105.8250(10)
_cell_angle_gamma                90
_cell_volume                     1915.66
loop_
_atom_site_label
_atom_site_type_symbol
_atom_site_fract_x
_atom_site_fract_y
_atom_site_fract_z
Cu1 Cu 0.5000 0.57209(3) 0.7500
N1 N 0.41966(14) 0.42063(17) 0.78604(12)
O1 O 0.56039(11) 0.70843(14) 0.68503(10)
O2 O 0.59822(13) 0.88697(15) 0.55984(12)
O3 O 0.40376(13) 0.65567(17) 0.59490(12)
C1 C 0.48599(16) 0.7221(2) 0.61267(14)
C2 C 0.33717(19) 0.4250(2) 0.82105(17)
H1 H 0.3127 0.5081 0.8346
C3 C 0.67107(19) 0.8141(2) 0.52909(14)
C4 C 0.49570(19) 0.8304(2) 0.54575(17)
H2 H 0.4741 0.7927 0.4848
H3 H 0.4466 0.9022 0.5484
C5 C 0.6563(2) 0.6833(2) 0.49623(16)
H4 H 0.5934 0.6382 0.4934
C6 C 0.7649(2) 0.8795(2) 0.53221(16)
H5 H 0.7750 0.9673 0.5539
C7 C 0.45530(17) 0.2982(2) 0.76821(14)
C8 C 0.4097(2) 0.1765(2) 0.78418(15)
C9 C 0.2867(2) 0.3086(3) 0.83794(18)
H6 H 0.2291 0.3147 0.8621
C10 C 0.3215(2) 0.1864(3) 0.81925(17)
H7 H 0.2869 0.1088 0.8296
C11 C 0.4563(2) 0.0534(2) 0.76582(18)
H8 H 0.4265 -0.0281 0.7757
Cu1F Cu 1.0000 0.92791(3) 0.2500
N1A N 0.58034(14) 0.42063(17) 0.71396(12)
O1F O 0.93961(11) 0.79157(14) 0.31497(10)
O1A O 0.43961(11) 0.70843(14) 0.81497(10)
O2F O 0.90178(13) 0.61303(15) 0.44016(12)
O3F O 1.09624(13) 0.84433(17) 0.40510(12)
C1F C 1.01401(16) 0.7779(2) 0.38733(14)
C2A C 0.66283(19) 0.4250(2) 0.67895(17)
H1A H 0.6873 0.5081 0.6654
C3F C 0.82893(19) 0.6859(2) 0.47091(14)
C4F C 1.00430(19) 0.6696(2) 0.45425(17)
H2F H 1.0259 0.7073 0.5152
H3F H 1.0534 0.5978 0.4516
C5F C 0.8437(2) 0.8167(2) 0.50377(16)
H4F H 0.9066 0.8618 0.5066
C6F C 0.7351(2) 0.6205(2) 0.46779(16)
H5F H 0.7250 0.5327 0.4461
C7A C 0.54470(17) 0.2982(2) 0.73179(14)
C8A C 0.5903(2) 0.1765(2) 0.71582(15)
C9A C 0.7133(2) 0.3086(3) 0.66206(18)
H6A H 0.7709 0.3147 0.6379
C10A C 0.6785(2) 0.1864(3) 0.68075(17)
H7A H 0.7131 0.1088 0.6704
C11A C 0.5437(2) 0.0534(2) 0.73418(18)
H8A H 0.5735 -0.0281 0.7243
loop_
_geom_bond_atom_site_label_1
_geom_bond_atom_site_label_2
_geom_bond_site_symmetry_1
_geom_bond_site_symmetry_2
Cu1 N1 1_555 1_555
N1 C2 1_555 1_555
O1 Cu1 1_555 1_555
O2 C3 1_555 1_555
O3 C1 1_555 1_555
C1 O1 1_555 1_555
C2 H1 1_555 1_555
C3 C5 1_555 1_555
C4 O2 1_555 1_555
H2 C4 1_555 1_555
H3 C4 1_555 1_555
C5 H4 1_555 1_555
C6 C3 1_555 1_555
H5 C6 1_555 1_555
C7 N1 1_555 1_555
C8 C7 1_555 1_555
C9 C2 1_555 1_555
H6 C9 1_555 1_555
C10 C8 1_555 1_555
H7 C10 1_555 1_555
C11 C8 1_555 1_555
H8 C11 1_555 1_555
Cu1F O1F 1_555 1_555
N1A Cu1 1_555 1_555
O1F C1F 1_555 1_555
O1A Cu1 1_555 1_555
O2F C3F 1_555 1_555
O3F C1F 1_555 1_555
C1F C4F 1_555 1_555
C2A N1A 1_555 1_555
H1A C2A 1_555 1_555
C3F C5F 1_555 1_555
C4F O2F 1_555 1_555
H2F C4F 1_555 1_555
H3F C4F 1_555 1_555
C5F C6 1_555 1_555
H4F C5F 1_555 1_555
C6F C5 1_555 1_555
H5F C6F 1_555 1_555
C7A C7 1_555 1_555
C8A C7A 1_555 1_555
C9A C2A 1_555 1_555
H6A C9A 1_555 1_555
C10A C8A 1_555 1_555
H7A C10A 1_555 1_555
C11A C11 1_555 1_555
H8A C11A 1_555 1_555
C1 C4 1_555 1_555
C9 C10 1_555 1_555
N1A C7A 1_555 1_555
C3F C6F 1_555 1_555
C8A C11A 1_555 1_555
C9A C10A 1_555 1_555

#END
