
#######################################################################
#
#                 Cambridge Crystallographic Data Centre
#                                CCDC 
#
#######################################################################
#
# If this CIF has been generated from an entry in the Cambridge 
# Structural Database, then it will include bibliographic, chemical, 
# crystal, experimental, refinement or atomic coordinate data resulting 
# from the CCDC's data processing and validation procedures.
#
#######################################################################

data_MUQTOI
_symmetry_cell_setting           triclinic
_symmetry_space_group_name_H-M   'P -1'
_symmetry_Int_Tables_number      2
_space_group_name_Hall           '-P 1'
loop_
_symmetry_equiv_pos_site_id
_symmetry_equiv_pos_as_xyz
1 x,y,z
2 -x,-y,-z
_cell_length_a                   9.5054(6)
_cell_length_b                   9.9757(6)
_cell_length_c                   16.4659(10)
_cell_angle_alpha                105.8250(10)
_cell_angle_beta                 101.6140(10)
_cell_angle_gamma                99.6380(10)
_cell_volume                     1429.88
loop_
_atom_site_label
_atom_site_type_symbol
_atom_site_fract_x
_atom_site_fract_y
_atom_site_fract_z
Cu1 Cu -0.12658(4) 0.01870(4) 0.42056(2)
Cu2 Cu 0.32985(4) 0.36282(4) -0.06061(2)
O1 O 0.0463(3) 0.2146(2) 0.45261(15)
O2 O -0.1255(3) 0.2653(3) 0.36339(18)
O3 O 0.2597(2) 0.4273(2) 0.43551(14)
O4 O 0.4899(3) 0.1349(3) 0.17839(13)
O5 O 0.5034(3) 0.2915(2) 0.06751(16)
O6 O 0.2977(3) 0.1483(3) -0.02659(15)
N1 N -0.0716(3) -0.1095(3) 0.32770(14)
N2 N 0.2369(2) -0.5254(2) 0.01823(13)
N3 N -0.2456(2) 0.0674(2) 0.50084(14)
N4 N -0.5968(3) 0.3017(2) 0.83806(14)
C1 C -0.0387(3) -0.0659(3) 0.26189(18)
H3 H -0.0522 0.0234 0.2597
C2 C 0.0137(3) -0.1459(3) 0.19767(18)
H4 H 0.0342 -0.1108 0.1534
C3 C 0.0360(3) -0.2795(3) 0.19908(16)
C4 C -0.0046(3) -0.3270(3) 0.26511(18)
H5 H 0.0038 -0.4175 0.2675
C5 C -0.0571(3) -0.2405(3) 0.32677(18)
H6 H -0.0838 -0.2751 0.3699
C6 C 0.1028(3) -0.3660(3) 0.13587(16)
C7 C 0.0802(3) -0.5136(3) 0.11571(17)
H7 H 0.0191 -0.5621 0.1413
C8 C 0.1474(3) -0.5880(3) 0.05827(18)
H8 H 0.1304 -0.6868 0.0462
C9 C 0.2583(3) -0.3835(3) 0.03639(18)
H9 H 0.3188 -0.3379 0.0092
C10 C 0.1944(3) -0.3017(3) 0.09364(18)
H10 H 0.2124 -0.2031 0.1042
C11 C -0.2746(3) -0.0093(3) 0.55353(18)
H11 H -0.2439 -0.0946 0.5467
C12 C -0.3474(3) 0.0318(3) 0.61727(17)
H12 H -0.3637 -0.0246 0.6526
C13 C -0.3966(3) 0.1578(3) 0.62852(16)
C14 C -0.3692(3) 0.2355(3) 0.57279(17)
H13 H -0.4017 0.3194 0.5769
C15 C -0.2943(3) 0.1886(3) 0.51172(17)
H14 H -0.2761 0.2435 0.4759
C16 C -0.4713(3) 0.2070(3) 0.69802(16)
C17 C -0.5390(3) 0.1127(3) 0.73479(17)
H15 H -0.5445 0.0151 0.7127
C18 C -0.5978(3) 0.1628(3) 0.80361(17)
H16 H -0.6405 0.0972 0.8276
C19 C -0.5360(3) 0.3930(3) 0.80114(18)
H17 H -0.5364 0.4893 0.8227
C20 C -0.4732(3) 0.3507(3) 0.73286(18)
H18 H -0.4318 0.4183 0.7098
C21 C 0.0007(4) 0.2905(3) 0.4102(2)
C22 C 0.1078(4) 0.4306(4) 0.4201(2)
H19 H 0.0798 0.4561 0.3673
H20 H 0.0961 0.5059 0.4681
C23 C 0.3048(3) 0.3529(3) 0.36515(18)
C24 C 0.2157(3) 0.2820(3) 0.28242(19)
H21 H 0.1157 0.2816 0.2701
C25 C 0.2741(3) 0.2109(3) 0.21684(18)
H22 H 0.2135 0.1640 0.1607
C26 C 0.4208(3) 0.2101(3) 0.23507(18)
C27 C 0.5124(3) 0.2856(3) 0.31811(18)
H23 H 0.6129 0.2883 0.3300
C28 C 0.4540(3) 0.3560(3) 0.38247(18)
H24 H 0.5152 0.4062 0.4381
C29 C 0.4087(4) 0.0731(3) 0.08933(19)
H25 H 0.3087 0.0274 0.0866
H26 H 0.4534 -0.0006 0.0606
C30 C 0.4027(4) 0.1814(3) 0.0399(2)
Cu2_2 Cu 0.32985(4) -0.63718(4) -0.06061(2)
Cu2_3 Cu -0.67015(4) 0.36282(4) 0.93939(2)
N2_2 N 0.2369(2) 0.4746(2) 0.01823(13)
N4_2 N 0.4032(3) 0.3017(2) -0.16194(14)
O7 O 0.8078(3) 0.3150(3) 0.19506(19)
H1 H 0.7431 0.2514 0.1555
H2 H 0.8236 0.2943 0.2408
O8 O 0.9246(4) 0.1100(4) 0.0835(3)
H27 H 0.9595 0.0573 0.0440
H28 H 0.8621 0.0514 0.0942
loop_
_geom_bond_atom_site_label_1
_geom_bond_atom_site_label_2
_geom_bond_site_symmetry_1
_geom_bond_site_symmetry_2
Cu1 O1 1_555 1_555
Cu2 O6 1_555 1_555
O1 C21 1_555 1_555
O2 C21 1_555 1_555
O3 C22 1_555 1_555
O4 C26 1_555 1_555
O5 C30 1_555 1_555
O6 C30 1_555 1_555
O7 H1 1_555 1_555
H2 O7 1_555 1_555
N1 Cu1 1_555 1_555
N2 C8 1_555 1_555
N3 Cu1 1_555 1_555
N4 C18 1_555 1_555
C1 N1 1_555 1_555
H3 C1 1_555 1_555
C2 C1 1_555 1_555
H4 C2 1_555 1_555
C3 C2 1_555 1_555
C4 C3 1_555 1_555
H5 C4 1_555 1_555
C5 N1 1_555 1_555
H6 C5 1_555 1_555
C6 C3 1_555 1_555
C7 C6 1_555 1_555
H7 C7 1_555 1_555
C8 C7 1_555 1_555
H8 C8 1_555 1_555
C9 N2 1_555 1_555
H9 C9 1_555 1_555
C10 C6 1_555 1_555
H10 C10 1_555 1_555
C11 N3 1_555 1_555
H11 C11 1_555 1_555
C12 C11 1_555 1_555
H12 C12 1_555 1_555
C13 C12 1_555 1_555
C14 C13 1_555 1_555
H13 C14 1_555 1_555
C15 N3 1_555 1_555
H14 C15 1_555 1_555
C16 C13 1_555 1_555
C17 C16 1_555 1_555
H15 C17 1_555 1_555
C18 C17 1_555 1_555
H16 C18 1_555 1_555
C19 N4 1_555 1_555
H17 C19 1_555 1_555
C20 C16 1_555 1_555
H18 C20 1_555 1_555
C21 C22 1_555 1_555
C22 H19 1_555 1_555
H20 C22 1_555 1_555
C23 O3 1_555 1_555
C24 C23 1_555 1_555
H21 C24 1_555 1_555
C25 C24 1_555 1_555
H22 C25 1_555 1_555
C26 C25 1_555 1_555
C27 C26 1_555 1_555
H23 C27 1_555 1_555
C28 C23 1_555 1_555
H24 C28 1_555 1_555
C29 O4 1_555 1_555
H25 C29 1_555 1_555
H26 C29 1_555 1_555
C30 C29 1_555 1_555
O8 H27 1_555 1_555
H28 O8 1_555 1_555
Cu2_2 N2 1_555 1_555
Cu2_3 N4 1_555 1_555
N2_2 Cu2 1_555 1_555
N4_2 Cu2 1_555 1_555
C4 C5 1_555 1_555
C9 C10 1_555 1_555
C14 C15 1_555 1_555
C19 C20 1_555 1_555
C27 C28 1_555 1_555

#END
