
#######################################################################
#
#                 Cambridge Crystallographic Data Centre
#                                CCDC 
#
#######################################################################
#
# If this CIF has been generated from an entry in the Cambridge 
# Structural Database, then it will include bibliographic, chemical, 
# crystal, experimental, refinement or atomic coordinate data resulting 
# from the CCDC's data processing and validation procedures.
#
#######################################################################

data_MUQVEA
_symmetry_cell_setting           orthorhombic
_symmetry_space_group_name_H-M   'P m c 21'
_symmetry_Int_Tables_number      26
_space_group_name_Hall           'P 2c -2'
loop_
_symmetry_equiv_pos_site_id
_symmetry_equiv_pos_as_xyz
1 x,y,z
2 -x,-y,1/2+z
3 -x,y,z
4 x,-y,1/2+z
_cell_length_a                   9.4283(5)
_cell_length_b                   5.0074(2)
_cell_length_c                   12.3291(6)
_cell_angle_alpha                90
_cell_angle_beta                 90
_cell_angle_gamma                90
_cell_volume                     582.072
loop_
_atom_site_label
_atom_site_type_symbol
_atom_site_fract_x
_atom_site_fract_y
_atom_site_fract_z
Zn1 Zn 0.5000 1.06187(5) 0.25909(2)
Cl1 Cl 0.5000 1.33356(13) 0.40382(6)
N1 N 0.1764(2) 0.5381(4) 0.21226(16)
N2 N 0.22747(19) 0.9208(4) 0.44451(15)
H1 H 0.427(2) 1.280(5) 0.0886(18)
C1 C 0.22631(16) 0.8013(4) 0.34678(14)
N3 N 0.5000 1.2216(5) 0.1105(2)
N4 N 0.13482(17) 0.6156(3) 0.31385(14)
N5 N 0.32223(14) 0.8417(3) 0.26868(15)
N6 N 0.28701(17) 0.6749(3) 0.18622(14)
B1 B 0.0000 0.4894(6) 0.3671(3)
H2 H 0.0000 0.2976 0.3561
H3 H 0.0000 0.5240 0.4445
H4 H 0.281(2) 1.066(4) 0.4438(17)
H5 H 0.152(3) 0.905(4) 0.4816(19)
H7 H 0.5000 1.121(9) 0.055(3)
Zn1_2 Zn -0.5000 1.06187(5) 0.25909(2)
N1B N -0.1764(2) 0.5381(4) 0.21226(16)
N2B N -0.22747(19) 0.9208(4) 0.44451(15)
H1B H 0.573(2) 1.280(5) 0.0886(18)
C1B C -0.22631(16) 0.8013(4) 0.34678(14)
N4B N -0.13482(17) 0.6156(3) 0.31385(14)
N5B N -0.32223(14) 0.8417(3) 0.26868(15)
N5B_2 N 0.67777(14) 0.8417(3) 0.26868(15)
N6B N -0.28701(17) 0.6749(3) 0.18622(14)
H4B H -0.281(2) 1.066(4) 0.4438(17)
H5B H -0.152(3) 0.905(4) 0.4816(19)
O1 O 0.0000 0.0505(5) 0.1059(2)
H6 H 0.0000 -0.079(6) 0.146(3)
H8 H 0.0000 0.201(5) 0.128(4)
loop_
_geom_bond_atom_site_label_1
_geom_bond_atom_site_label_2
_geom_bond_site_symmetry_1
_geom_bond_site_symmetry_2
Zn1 Cl1 1_555 1_555
O1 H6 1_555 1_555
N1 N4 1_555 1_555
N2 C1 1_555 1_555
H1 N3 1_555 1_555
C1 N4 1_555 1_555
N3 Zn1 1_555 1_555
N4 B1 1_555 1_555
N5 Zn1 1_555 1_555
N6 N1 1_555 1_555
B1 H2 1_555 1_555
H3 B1 1_555 1_555
H4 N2 1_555 1_555
H5 N2 1_555 1_555
H7 N3 1_555 1_555
H8 O1 1_555 1_555
Zn1_2 N5B 1_555 1_555
N1B N4B 1_555 1_555
N2B C1B 1_555 1_555
H1B N3 1_555 1_555
C1B N4B 1_555 1_555
N4B B1 1_555 1_555
N5B C1B 1_555 1_555
N5B_2 Zn1 1_555 1_555
N6B N1B 1_555 1_555
H4B N2B 1_555 1_555
H5B N2B 1_555 1_555
C1 N5 1_555 1_555
N5 N6 1_555 1_555
N5B N6B 1_555 1_555

#END
