
#######################################################################
#
#                 Cambridge Crystallographic Data Centre
#                                CCDC 
#
#######################################################################
#
# If this CIF has been generated from an entry in the Cambridge 
# Structural Database, then it will include bibliographic, chemical, 
# crystal, experimental, refinement or atomic coordinate data resulting 
# from the CCDC's data processing and validation procedures.
#
#######################################################################

data_MUQWEB
_symmetry_cell_setting           triclinic
_symmetry_space_group_name_H-M   'P -1'
_symmetry_Int_Tables_number      2
_space_group_name_Hall           '-P 1'
loop_
_symmetry_equiv_pos_site_id
_symmetry_equiv_pos_as_xyz
1 x,y,z
2 -x,-y,-z
_cell_length_a                   6.5854(1)
_cell_length_b                   7.2613(1)
_cell_length_c                   9.6894(1)
_cell_angle_alpha                74.731(1)
_cell_angle_beta                 82.729(1)
_cell_angle_gamma                79.178(1)
_cell_volume                     437.572
loop_
_atom_site_label
_atom_site_type_symbol
_atom_site_fract_x
_atom_site_fract_y
_atom_site_fract_z
Cu1 Cu 0.5000 0.0000 0.5000
N1 N 0.32074(12) 0.23102(12) 0.38146(9)
N2 N 0.11194(13) 0.23902(14) 0.38482(11)
N3 N 0.18816(11) 0.49704(12) 0.23513(9)
N4 N 0.03274(13) 0.39517(14) 0.29825(11)
N5 N 0.55396(13) 0.44520(15) 0.25225(12)
H1 H 0.6597 0.3727 0.2928
H2 H 0.5688 0.5516 0.1898
C1 C 0.36432(13) 0.39199(13) 0.28660(10)
N6 N 0.33549(14) -0.17067(13) 0.44088(10)
H3 H 0.3583 -0.1586 0.3466
H4 H 0.2010 -0.1353 0.4630
H5 H 0.3747 -0.2933 0.4869
B1 B 0.15853(16) 0.69204(16) 0.11723(12)
N7 N -0.04679(12) 0.81615(12) 0.15592(9)
N8 N -0.07105(14) 0.90701(15) 0.26424(11)
N9 N -0.36723(13) 0.96544(13) 0.16820(9)
N10 N -0.27334(15) 0.78167(15) -0.00742(11)
H6 H -0.3968 0.8066 -0.0350
H7 H -0.1769 0.7106 -0.0474
N11 N -0.26076(15) 0.99360(16) 0.27037(11)
C2 C -0.23064(13) 0.85448(12) 0.09926(9)
H8 H 0.148(3) 0.662(3) 0.013(2)
H9 H 0.291(3) 0.777(3) 0.124(2)
Cu1_2 Cu -0.5000 1.0000 0.5000
N1A N -0.32074(12) 0.76898(12) 0.61854(9)
N1A_2 N 0.67926(12) -0.23102(12) 0.61854(9)
N2A N -0.11194(13) 0.76098(14) 0.61518(11)
N3A N -0.18816(11) 0.50296(12) 0.76487(9)
N4A N -0.03274(13) 0.60483(14) 0.70175(11)
N5A N -0.55396(13) 0.55480(15) 0.74775(12)
H1A H -0.6597 0.6273 0.7072
H2A H -0.5688 0.4484 0.8102
C1A C -0.36432(13) 0.60801(13) 0.71340(10)
N6A N 0.66451(14) 0.17067(13) 0.55912(10)
H3A H 0.6417 0.1586 0.6534
H4A H 0.7990 0.1353 0.5370
H5A H 0.6253 0.2933 0.5131
B1A B -0.15853(16) 0.30796(16) 0.88277(12)
N7A N 0.04679(12) 0.18385(12) 0.84408(9)
N8A N 0.07105(14) 0.09299(15) 0.73576(11)
N9A N 0.36723(13) 0.03456(13) 0.83180(9)
N10A N 0.27334(15) 0.21833(15) 1.00742(11)
H6A H 0.3968 0.1934 1.0350
H7A H 0.1769 0.2894 1.0474
N11A N 0.26076(15) 0.00640(16) 0.72963(11)
N11_2 N 0.73924(15) -0.00640(16) 0.27037(11)
C2A C 0.23064(13) 0.14552(12) 0.90074(9)
H8A H -0.148(3) 0.338(3) 0.987(2)
H9A H -0.291(3) 0.223(3) 0.876(2)
loop_
_geom_bond_atom_site_label_1
_geom_bond_atom_site_label_2
_geom_bond_site_symmetry_1
_geom_bond_site_symmetry_2
Cu1 N1 1_555 1_555
N1 N2 1_555 1_555
N2 N4 1_555 1_555
N3 N4 1_555 1_555
N5 H1 1_555 1_555
H2 N5 1_555 1_555
C1 N1 1_555 1_555
N6 Cu1 1_555 1_555
H3 N6 1_555 1_555
H4 N6 1_555 1_555
H5 N6 1_555 1_555
B1 N3 1_555 1_555
N7 B1 1_555 1_555
N8 N7 1_555 1_555
N9 N11 1_555 1_555
N10 H6 1_555 1_555
H7 N10 1_555 1_555
N11 N8 1_555 1_555
C2 N7 1_555 1_555
H8 B1 1_555 1_555
H9 B1 1_555 1_555
Cu1_2 N11 1_555 1_555
N1A Cu1_2 1_555 1_555
N1A_2 Cu1 1_555 1_555
N2A N1A 1_555 1_555
N3A N4A 1_555 1_555
N4A N2A 1_555 1_555
N5A H1A 1_555 1_555
H2A N5A 1_555 1_555
C1A N1A 1_555 1_555
N6A Cu1 1_555 1_555
H3A N6A 1_555 1_555
H4A N6A 1_555 1_555
H5A N6A 1_555 1_555
B1A N3A 1_555 1_555
N7A B1A 1_555 1_555
N8A N7A 1_555 1_555
N9A N11A 1_555 1_555
N10A H6A 1_555 1_555
H7A N10A 1_555 1_555
N11A Cu1 1_555 1_555
N11_2 Cu1 1_555 1_555
C2A N7A 1_555 1_555
H8A B1A 1_555 1_555
H9A B1A 1_555 1_555
N3 C1 1_555 1_555
N5 C1 1_555 1_555
N9 C2 1_555 1_555
N10 C2 1_555 1_555
N3A C1A 1_555 1_555
N5A C1A 1_555 1_555
N8A N11A 1_555 1_555
N9A C2A 1_555 1_555
N10A C2A 1_555 1_555

#END
