
#######################################################################
#
#                 Cambridge Crystallographic Data Centre
#                                CCDC 
#
#######################################################################
#
# If this CIF has been generated from an entry in the Cambridge 
# Structural Database, then it will include bibliographic, chemical, 
# crystal, experimental, refinement or atomic coordinate data resulting 
# from the CCDC's data processing and validation procedures.
#
#######################################################################

data_MUQYIH
_symmetry_cell_setting           triclinic
_symmetry_space_group_name_H-M   'P -1'
_symmetry_Int_Tables_number      2
_space_group_name_Hall           '-P 1'
loop_
_symmetry_equiv_pos_site_id
_symmetry_equiv_pos_as_xyz
1 x,y,z
2 -x,-y,-z
_cell_length_a                   8.9178(13)
_cell_length_b                   10.4394(16)
_cell_length_c                   11.3321(17)
_cell_angle_alpha                68.173(2)
_cell_angle_beta                 71.994(2)
_cell_angle_gamma                76.598(2)
_cell_volume                     923.189
loop_
_atom_site_label
_atom_site_type_symbol
_atom_site_fract_x
_atom_site_fract_y
_atom_site_fract_z
V1 V 0.54907(9) 0.21797(8) 1.01877(8)
V2 V 0.13677(10) 0.25712(8) 1.15998(8)
V3 V 0.77832(10) 0.42156(8) 1.06458(8)
V4 V 0.82906(10) -0.06518(8) 1.01058(9)
Cu1 Cu 0.39704(8) 0.35883(6) 0.74598(6)
O1 O 0.8089(5) -0.2183(4) 1.1170(4)
O2 O 1.0000 0.0000 1.0000
O3 O -0.0675(5) 0.3094(4) 1.1159(4)
O4 O 0.5316(5) 0.2688(4) 0.8667(4)
O5 O 0.6543(5) 0.0476(4) 1.0542(4)
O6 O 0.6537(5) 0.3253(4) 1.0398(4)
O7 O 0.3717(4) 0.2176(4) 1.1215(4)
O8 O 0.0919(5) 0.2279(4) 1.3137(4)
O9 O 0.1604(5) 0.4537(4) 1.0771(4)
O10 O 0.1514(5) 0.0778(4) 1.1382(4)
O11 O 0.6775(5) 0.4935(4) 1.1786(4)
C1 C 0.1918(7) 0.5760(6) 0.5905(5)
H1 H 0.1614 0.6122 0.6593
C2 C 0.1255(7) 0.6411(6) 0.4862(6)
H2 H 0.0524 0.7210 0.4845
C3 C 0.1660(6) 0.5892(6) 0.3827(5)
C4 C 0.2778(6) 0.4709(6) 0.3897(5)
H3 H 0.3091 0.4332 0.3219
C5 C 0.3432(6) 0.4087(5) 0.4977(5)
C6 C 0.4640(6) 0.2845(5) 0.5161(5)
C7 C 0.5358(7) 0.2169(6) 0.4235(5)
H4 H 0.5065 0.2476 0.3445
C8 C 0.6521(7) 0.1029(5) 0.4504(6)
C9 C 0.6866(8) 0.0584(6) 0.5712(6)
H5 H 0.7622 -0.0187 0.5925
C10 C 0.6094(7) 0.1279(6) 0.6606(6)
H6 H 0.6332 0.0958 0.7419
C11 C 0.0909(7) 0.6595(7) 0.2693(6)
H7 H -0.0204 0.6873 0.3012
H8 H 0.1036 0.5961 0.2225
H9 H 0.1412 0.7401 0.2117
C12 C 0.7398(8) 0.0322(6) 0.3486(6)
H10 H 0.8108 0.0919 0.2789
H11 H 0.6645 0.0138 0.3139
H12 H 0.7997 -0.0538 0.3886
N1 N 0.2990(5) 0.4620(4) 0.5974(4)
N2 N 0.5011(5) 0.2404(4) 0.6331(4)
V1A V 0.45093(9) -0.21797(8) 0.98123(8)
V1_2 V 1.54907(9) 0.21797(8) 1.01877(8)
V1_3 V -0.45093(9) 0.21797(8) 1.01877(8)
V2_2 V 1.13677(10) 0.25712(8) 1.15998(8)
V2A V 0.86323(10) 0.74288(8) 0.84002(8)
V2A_2 V 0.86323(10) -0.25712(8) 0.84002(8)
V3_2 V -0.22168(10) 0.42156(8) 1.06458(8)
V3A V 0.22168(10) 0.57844(8) 0.93542(8)
V4A V 0.17094(10) 0.06518(8) 0.98942(9)
V4A_2 V 1.17094(10) 0.06518(8) 0.98942(9)
Cu1A Cu 0.60296(8) -0.35883(6) 1.25402(6)
Cu1A_2 Cu 0.60296(8) 0.64117(6) 1.25402(6)
O1A O 0.1911(5) 0.2183(4) 0.8830(4)
O2_2 O 0.0000 0.0000 1.0000
O3_2 O 0.9325(5) 0.3094(4) 1.1159(4)
O4A O 0.4684(5) -0.2688(4) 1.1333(4)
O5A O 0.3457(5) -0.0476(4) 0.9458(4)
O6_2 O -0.3463(5) 0.3253(4) 1.0398(4)
O6A O 0.3463(5) -0.3253(4) 0.9602(4)
O7_2 O 1.3717(4) 0.2176(4) 1.1215(4)
O7A O 0.6283(4) -0.2176(4) 0.8785(4)
O8_2 O 1.0919(5) 0.2279(4) 1.3137(4)
O9A O 0.8396(5) 0.5463(4) 0.9229(4)
O9_2 O 1.1604(5) 0.4537(4) 1.0771(4)
O9A_2 O -0.1604(5) 0.5463(4) 0.9229(4)
O10A O 0.8486(5) -0.0778(4) 0.8618(4)
O10_2 O 1.1514(5) 0.0778(4) 1.1382(4)
O11A O 0.3225(5) 0.5065(4) 0.8214(4)
O11_2 O -0.3225(5) 0.4935(4) 1.1786(4)
O11_3 O 0.6775(5) -0.5065(4) 1.1786(4)
C1A C 0.8082(7) -0.5760(6) 1.4095(5)
H1A H 0.8386 -0.6122 1.3407
C2A C 0.8745(7) -0.6411(6) 1.5138(6)
H2A H 0.9476 -0.7210 1.5155
C3A C 0.8340(6) -0.5892(6) 1.6173(5)
C4A C 0.7222(6) -0.4709(6) 1.6103(5)
H3A H 0.6909 -0.4332 1.6781
C5A C 0.6568(6) -0.4087(5) 1.5023(5)
C6A C 0.5360(6) -0.2845(5) 1.4839(5)
C7A C 0.4642(7) -0.2169(6) 1.5765(5)
H4A H 0.4935 -0.2476 1.6555
C8A C 0.3479(7) -0.1029(5) 1.5496(6)
C9A C 0.3134(8) -0.0584(6) 1.4288(6)
H5A H 0.2378 0.0187 1.4075
C10A C 0.3906(7) -0.1279(6) 1.3394(6)
H6A H 0.3668 -0.0958 1.2581
C11A C 0.9091(7) -0.6595(7) 1.7307(6)
H7A H 1.0204 -0.6873 1.6988
H8A H 0.8964 -0.5961 1.7775
H9A H 0.8588 -0.7401 1.7883
C12A C 0.2602(8) -0.0322(6) 1.6514(6)
H10A H 0.1892 -0.0919 1.7211
H11A H 0.3355 -0.0138 1.6861
H12A H 0.2003 0.0538 1.6114
N1A N 0.7010(5) -0.4620(4) 1.4026(4)
N2A N 0.4989(5) -0.2404(4) 1.3669(4)
loop_
_geom_bond_atom_site_label_1
_geom_bond_atom_site_label_2
_geom_bond_site_symmetry_1
_geom_bond_site_symmetry_2
V1 O4 1_555 1_555
V2 O3 1_555 1_555
V3 O6 1_555 1_555
V4 O1 1_555 1_555
Cu1 O4 1_555 1_555
O1 Cu1A 1_555 1_555
O2 V4 1_555 1_555
O3 V3_2 1_555 1_555
O5 V1 1_555 1_555
O6 V1 1_555 1_555
O7 V1 1_555 1_555
O8 V2 1_555 1_555
O9 V2 1_555 1_555
O10 V2 1_555 1_555
O11 V3 1_555 1_555
C1 H1 1_555 1_555
C2 C1 1_555 1_555
H2 C2 1_555 1_555
C3 C2 1_555 1_555
C4 C3 1_555 1_555
H3 C4 1_555 1_555
C5 C4 1_555 1_555
C6 C5 1_555 1_555
C7 C6 1_555 1_555
H4 C7 1_555 1_555
C8 C7 1_555 1_555
C9 C8 1_555 1_555
H5 C9 1_555 1_555
C10 C9 1_555 1_555
H6 C10 1_555 1_555
C11 C3 1_555 1_555
H7 C11 1_555 1_555
H8 C11 1_555 1_555
H9 C11 1_555 1_555
C12 C8 1_555 1_555
H10 C12 1_555 1_555
H11 C12 1_555 1_555
H12 C12 1_555 1_555
N1 Cu1 1_555 1_555
N2 Cu1 1_555 1_555
V1A O4A 1_555 1_555
V1_2 O7_2 1_555 1_555
V1_3 O6_2 1_555 1_555
V2_2 O3_2 1_555 1_555
V2A O9A 1_555 1_555
V2A_2 O7A 1_555 1_555
V3_2 O6_2 1_555 1_555
V3A O9 1_555 1_555
V4A O10 1_555 1_555
V4A_2 O2 1_555 1_555
Cu1A O4A 1_555 1_555
Cu1A_2 O11 1_555 1_555
O1A Cu1 1_555 1_555
O2_2 V4A 1_555 1_555
O3_2 V3 1_555 1_555
O5A V1A 1_555 1_555
O6A V1A 1_555 1_555
O7_2 V2_2 1_555 1_555
O7A V1A 1_555 1_555
O8_2 V2_2 1_555 1_555
O9A V3 1_555 1_555
O9_2 V2_2 1_555 1_555
O9A_2 V3_2 1_555 1_555
O10A V4 1_555 1_555
O10_2 V2_2 1_555 1_555
O11A Cu1 1_555 1_555
O11_2 V3_2 1_555 1_555
O11_3 Cu1A 1_555 1_555
C1A H1A 1_555 1_555
C2A C1A 1_555 1_555
H2A C2A 1_555 1_555
C3A C2A 1_555 1_555
C4A C3A 1_555 1_555
H3A C4A 1_555 1_555
C5A C4A 1_555 1_555
C6A C5A 1_555 1_555
C7A C6A 1_555 1_555
H4A C7A 1_555 1_555
C8A C7A 1_555 1_555
C9A C8A 1_555 1_555
H5A C9A 1_555 1_555
C10A C9A 1_555 1_555
H6A C10A 1_555 1_555
C11A C3A 1_555 1_555
H7A C11A 1_555 1_555
H8A C11A 1_555 1_555
H9A C11A 1_555 1_555
C12A C8A 1_555 1_555
H10A C12A 1_555 1_555
H11A C12A 1_555 1_555
H12A C12A 1_555 1_555
N1A Cu1A 1_555 1_555
N2A Cu1A 1_555 1_555
V2 O7 1_555 1_555
V4 O5 1_555 1_555
C1 N1 1_555 1_555
C5 N1 1_555 1_555
C6 N2 1_555 1_555
C10 N2 1_555 1_555
V2A_2 O10A 1_555 1_555
V3A O11A 1_555 1_555
V4A O1A 1_555 1_555
V4A O5A 1_555 1_555
V4A_2 O10_2 1_555 1_555
C1A N1A 1_555 1_555
C5A N1A 1_555 1_555
C6A N2A 1_555 1_555
C10A N2A 1_555 1_555

#END
