
#######################################################################
#
#                 Cambridge Crystallographic Data Centre
#                                CCDC 
#
#######################################################################
#
# If this CIF has been generated from an entry in the Cambridge 
# Structural Database, then it will include bibliographic, chemical, 
# crystal, experimental, refinement or atomic coordinate data resulting 
# from the CCDC's data processing and validation procedures.
#
#######################################################################

data_MUQZAA
_symmetry_cell_setting           orthorhombic
_symmetry_space_group_name_H-M   'P b c n'
_symmetry_Int_Tables_number      60
_space_group_name_Hall           '-P 2n 2ab'
loop_
_symmetry_equiv_pos_site_id
_symmetry_equiv_pos_as_xyz
1 x,y,z
2 1/2-x,1/2-y,1/2+z
3 -x,y,1/2-z
4 1/2+x,1/2-y,-z
5 -x,-y,-z
6 1/2+x,1/2+y,1/2-z
7 x,-y,1/2+z
8 1/2-x,1/2+y,z
_cell_length_a                   10.4949(5)
_cell_length_b                   14.8611(9)
_cell_length_c                   15.2443(14)
_cell_angle_alpha                90
_cell_angle_beta                 90
_cell_angle_gamma                90
_cell_volume                     2377.59
loop_
_atom_site_label
_atom_site_type_symbol
_atom_site_fract_x
_atom_site_fract_y
_atom_site_fract_z
Cd1 Cd 0.537886(14) 0.225111(9) 0.632283(9)
N1 N 0.53139(17) 0.38372(12) 0.62029(12)
C1 C 0.62891(19) 0.42558(13) 0.57928(13)
O1 O 0.6187(2) 0.08861(12) 0.40694(12)
H1 H 0.608(4) 0.1445(8) 0.403(2)
H2 H 0.621(4) 0.069(2) 0.3552(10)
Cd2 Cd 0.5000 0.0000 0.5000
C2 C 0.4376(2) 0.43421(15) 0.65293(15)
H3 H 0.3697 0.4056 0.6805
N2 N 0.83536(17) 0.38486(11) 0.50408(11)
C3 C 0.4366(2) 0.52686(16) 0.64765(16)
H4 H 0.3701 0.5600 0.6719
N3 N 0.88512(18) 0.30413(12) 0.48163(12)
C4 C 0.5362(2) 0.56927(15) 0.60563(17)
H5 H 0.5383 0.6317 0.6016
N4 N 0.81060(19) 0.23882(12) 0.50680(13)
C5 C 0.6332(2) 0.51824(14) 0.56944(15)
H6 H 0.6997 0.5455 0.5392
N5 N 0.70938(18) 0.27507(11) 0.54691(13)
C6 C 0.72605(19) 0.36423(13) 0.54415(13)
N6 N 0.57380(19) 0.07269(12) 0.62006(11)
N7 N 0.61775(17) 0.03022(12) 0.68007(12)
N8 N 0.6616(2) -0.01023(17) 0.73623(15)
N9 N 0.36589(18) 0.22547(13) 0.72993(12)
N10 N 0.25767(19) 0.23185(12) 0.70724(14)
N11 N 0.1539(2) 0.23769(18) 0.6830(2)
Cd1B Cd 0.462114(14) 0.225111(9) 0.867717(9)
Cd1A Cd -0.037886(14) 0.274889(9) 1.132283(9)
Cd1C Cd 1.037886(14) 0.274889(9) 0.367717(9)
N1B N 0.46861(17) 0.38372(12) 0.87971(12)
C1B C 0.37109(19) 0.42558(13) 0.92072(13)
O1D O 0.3813(2) -0.08861(12) 0.59306(12)
H1D H 0.392(4) -0.1445(8) 0.597(2)
H2D H 0.379(4) -0.069(2) 0.6448(10)
Cd2A Cd 0.0000 0.5000 1.0000
Cd2C Cd 1.0000 0.5000 0.5000
Cd2B Cd 0.5000 0.0000 1.0000
C2B C 0.5624(2) 0.43421(15) 0.84707(15)
H3B H 0.6303 0.4056 0.8195
N2B N 0.16464(17) 0.38486(11) 0.99592(11)
N2C N 0.33536(17) 0.11514(11) 0.49592(11)
N2G N 0.66464(17) -0.11514(11) 0.50408(11)
C3B C 0.5634(2) 0.52686(16) 0.85235(16)
H4B H 0.6299 0.5600 0.8281
N3B N 0.11488(18) 0.30413(12) 1.01837(12)
N3A N 0.61488(18) 0.19587(12) 0.98163(12)
N3C N 0.38512(18) 0.19587(12) 0.51837(12)
C4B C 0.4638(2) 0.56927(15) 0.89437(17)
H5B H 0.4617 0.6317 0.8984
N4B N 0.18940(19) 0.23882(12) 0.99320(13)
C5B C 0.3668(2) 0.51824(14) 0.93056(15)
H6B H 0.3003 0.5455 0.9608
N5B N 0.29062(18) 0.27507(11) 0.95309(13)
C6B C 0.27395(19) 0.36423(13) 0.95585(13)
N6B N 0.42620(19) 0.07269(12) 0.87994(11)
N6D N 0.42620(19) -0.07269(12) 0.37994(11)
N7B N 0.38225(17) 0.03022(12) 0.81993(12)
N8B N 0.3384(2) -0.01023(17) 0.76377(15)
N9B N 0.63411(18) 0.22547(13) 0.77007(12)
N10B N 0.74233(19) 0.23185(12) 0.79276(14)
N11B N 0.8461(2) 0.23769(18) 0.8170(2)
loop_
_geom_bond_atom_site_label_1
_geom_bond_atom_site_label_2
_geom_bond_site_symmetry_1
_geom_bond_site_symmetry_2
Cd1 N1 1_555 1_555
N1 C1 1_555 1_555
C1 C5 1_555 1_555
O1 H1 1_555 1_555
H2 O1 1_555 1_555
Cd2 O1 1_555 1_555
C2 N1 1_555 1_555
H3 C2 1_555 1_555
N2 N3 1_555 1_555
C3 C2 1_555 1_555
H4 C3 1_555 1_555
N3 N4 1_555 1_555
C4 C3 1_555 1_555
H5 C4 1_555 1_555
N4 N5 1_555 1_555
C5 C4 1_555 1_555
H6 C5 1_555 1_555
N5 Cd1 1_555 1_555
C6 C1 1_555 1_555
N6 Cd1 1_555 1_555
N7 N6 1_555 1_555
N8 N7 1_555 1_555
N9 Cd1 1_555 1_555
N10 N9 1_555 1_555
N11 N10 1_555 1_555
Cd1B N9 1_555 1_555
Cd1A N3B 1_555 1_555
Cd1C N3 1_555 1_555
N1B Cd1B 1_555 1_555
C1B N1B 1_555 1_555
O1D Cd2 1_555 1_555
H1D O1D 1_555 1_555
H2D O1D 1_555 1_555
Cd2A N2B 1_555 1_555
Cd2C N2 1_555 1_555
Cd2B N6B 1_555 1_555
C2B N1B 1_555 1_555
H3B C2B 1_555 1_555
N2B N3B 1_555 1_555
N2C Cd2 1_555 1_555
N2G Cd2 1_555 1_555
C3B C2B 1_555 1_555
H4B C3B 1_555 1_555
N3B N4B 1_555 1_555
N3A Cd1B 1_555 1_555
N3C Cd1 1_555 1_555
C4B C3B 1_555 1_555
H5B C4B 1_555 1_555
N4B N5B 1_555 1_555
C5B C1B 1_555 1_555
H6B C5B 1_555 1_555
N5B Cd1B 1_555 1_555
C6B C1B 1_555 1_555
N6B Cd1B 1_555 1_555
N6D Cd2 1_555 1_555
N7B N6B 1_555 1_555
N8B N7B 1_555 1_555
N9B Cd1 1_555 1_555
N10B N9B 1_555 1_555
N11B N10B 1_555 1_555
Cd2 N6 1_555 1_555
N2 C6 1_555 1_555
N5 C6 1_555 1_555
Cd1B N9B 1_555 1_555
N2B C6B 1_555 1_555
N2C N3C 1_555 1_555
C4B C5B 1_555 1_555
N5B C6B 1_555 1_555

#END
