
#######################################################################
#
#                 Cambridge Crystallographic Data Centre
#                                CCDC 
#
#######################################################################
#
# If this CIF has been generated from an entry in the Cambridge 
# Structural Database, then it will include bibliographic, chemical, 
# crystal, experimental, refinement or atomic coordinate data resulting 
# from the CCDC's data processing and validation procedures.
#
#######################################################################

data_MUQZOO
_symmetry_cell_setting           orthorhombic
_symmetry_space_group_name_H-M   'P b c a'
_symmetry_Int_Tables_number      61
_space_group_name_Hall           '-P 2ac 2ab'
loop_
_symmetry_equiv_pos_site_id
_symmetry_equiv_pos_as_xyz
1 x,y,z
2 1/2-x,-y,1/2+z
3 -x,1/2+y,1/2-z
4 1/2+x,1/2-y,-z
5 -x,-y,-z
6 1/2+x,y,1/2-z
7 x,1/2-y,1/2+z
8 1/2-x,1/2+y,z
_cell_length_a                   9.4596(5)
_cell_length_b                   13.8075(9)
_cell_length_c                   18.6066(11)
_cell_angle_alpha                90
_cell_angle_beta                 90
_cell_angle_gamma                90
_cell_volume                     2430.27
loop_
_atom_site_label
_atom_site_type_symbol
_atom_site_fract_x
_atom_site_fract_y
_atom_site_fract_z
I1 I 0.23991(6) 0.44123(3) -0.12499(3)
N1 N -0.1196(5) 0.5497(3) -0.0725(3)
C1 C -0.5465(6) 0.6773(4) -0.0878(3)
C2 C 0.1937(5) 0.6966(4) -0.2149(2)
N2 N -0.1972(5) 0.5838(3) -0.1268(2)
C3 C -0.2702(7) 0.5074(4) -0.1513(3)
N3 N -0.2403(5) 0.4283(3) -0.1125(2)
N4 N -0.1461(5) 0.4572(3) -0.0638(2)
N5 N -0.4388(5) 0.7316(3) -0.0656(2)
N6 N -0.4793(4) 0.7654(3) -0.0023(2)
N7 N -0.6047(4) 0.7328(3) 0.0138(2)
N8 N -0.6500(5) 0.6764(3) -0.0404(2)
N9 N 0.0970(5) 0.6989(3) -0.1648(2)
N10 N -0.0091(5) 0.7580(3) -0.1850(2)
N11 N 0.0275(5) 0.7905(4) -0.2489(3)
N12 N 0.1528(5) 0.7542(3) -0.2686(2)
Cd1 Cd -0.22229(4) 0.75899(2) -0.125870(17)
Cd2 Cd 0.12870(4) 0.60322(2) -0.059774(19)
N3G N -0.2597(5) 0.9283(3) -0.1125(2)
N4D N 0.1461(5) 0.5428(3) 0.0638(2)
N6C N 0.0207(4) 0.7346(3) 0.0023(2)
N7C N -0.1047(4) 0.7672(3) -0.0138(2)
N8_2 N 0.3500(5) 0.6764(3) -0.0404(2)
N12E N -0.3472(5) 0.7542(3) -0.2314(2)
Cd1G Cd -0.27771(4) 0.25899(2) -0.125870(17)
Cd1C Cd -0.72229(4) 0.74101(2) 0.125870(17)
Cd1E Cd 0.27771(4) 0.75899(2) -0.374130(17)
Cd2D Cd -0.12870(4) 0.39678(2) 0.059774(19)
Cd2C Cd -0.37130(4) 0.89678(2) 0.059774(19)
Cd2_2 Cd -0.87130(4) 0.60322(2) -0.059774(19)
loop_
_geom_bond_atom_site_label_1
_geom_bond_atom_site_label_2
_geom_bond_site_symmetry_1
_geom_bond_site_symmetry_2
I1 Cd2 1_555 1_555
N1 N2 1_555 1_555
C1 N5 1_555 1_555
C2 N9 1_555 1_555
N2 C3 1_555 1_555
C3 N3 1_555 1_555
N3 N4 1_555 1_555
N4 N1 1_555 1_555
N5 N6 1_555 1_555
N6 N7 1_555 1_555
N7 N8 1_555 1_555
N8 C1 1_555 1_555
N9 N10 1_555 1_555
N10 N11 1_555 1_555
N11 N12 1_555 1_555
N12 C2 1_555 1_555
Cd1 N2 1_555 1_555
Cd2 N1 1_555 1_555
N3G Cd1 1_555 1_555
N4D Cd2 1_555 1_555
N6C Cd2 1_555 1_555
N7C Cd1 1_555 1_555
N8_2 Cd2 1_555 1_555
N12E Cd1 1_555 1_555
Cd1G N3 1_555 1_555
Cd1C N7 1_555 1_555
Cd1E N12 1_555 1_555
Cd2D N4 1_555 1_555
Cd2C N6 1_555 1_555
Cd2_2 N8 1_555 1_555
N5 Cd1 1_555 1_555
N9 Cd2 1_555 1_555
N10 Cd1 1_555 1_555
N6C N7C 1_555 1_555

#END
