
#######################################################################
#
#                 Cambridge Crystallographic Data Centre
#                                CCDC 
#
#######################################################################
#
# If this CIF has been generated from an entry in the Cambridge 
# Structural Database, then it will include bibliographic, chemical, 
# crystal, experimental, refinement or atomic coordinate data resulting 
# from the CCDC's data processing and validation procedures.
#
#######################################################################

data_MUQZEE
_symmetry_cell_setting           monoclinic
_symmetry_space_group_name_H-M   'C 2/c'
_symmetry_Int_Tables_number      15
_space_group_name_Hall           '-C 2yn'
loop_
_symmetry_equiv_pos_site_id
_symmetry_equiv_pos_as_xyz
1 x,y,z
2 -x,y,1/2-z
3 1/2+x,1/2+y,z
4 1/2-x,1/2+y,1/2-z
5 -x,-y,-z
6 x,-y,1/2+z
7 1/2-x,1/2-y,-z
8 1/2+x,1/2-y,1/2+z
_cell_length_a                   16.465(7)
_cell_length_b                   11.617(5)
_cell_length_c                   7.036(3)
_cell_angle_alpha                90
_cell_angle_beta                 100.605(5)
_cell_angle_gamma                90
_cell_volume                     1322.82
loop_
_atom_site_label
_atom_site_type_symbol
_atom_site_fract_x
_atom_site_fract_y
_atom_site_fract_z
Cd1 Cd 0.0000 0.381340(14) 0.2500
N1 N 0.08657(10) 0.24171(15) 0.1417(2)
N2 N 0.34805(10) 0.18275(15) 0.3771(2)
N3 N 0.41803(11) 0.12227(12) 0.4239(3)
N4 N 0.41231(10) 0.02707(15) 0.3210(2)
N5 N 0.33892(10) 0.02208(15) 0.2047(3)
C1 C 0.09233(15) 0.0801(3) -0.0623(4)
H1 H 0.0652 0.0307 -0.1572
C2 C 0.17493(13) 0.0657(2) 0.0112(4)
H2 H 0.2043 0.0062 -0.0331
C3 C 0.21418(12) 0.14075(17) 0.1519(3)
C4 C 0.16780(11) 0.22876(17) 0.2114(3)
H3 H 0.1939 0.2809 0.3030
C5 C 0.05011(13) 0.1689(2) 0.0069(3)
H4 H -0.0059 0.1780 -0.0426
C6 C 0.30102(12) 0.11906(14) 0.2432(3)
Cd1B Cd -0.5000 -0.118660(14) 0.2500
Cd1B_2 Cd 0.5000 -0.118660(14) 0.2500
Cd1F Cd -0.5000 0.118660(14) -0.2500
Cd1F_2 Cd 0.5000 0.118660(14) 0.7500
N1A N -0.08657(10) 0.24171(15) 0.3583(2)
N2A N -0.34805(10) 0.18275(15) 0.1229(2)
N3A N -0.41803(11) 0.12227(12) 0.0761(3)
N3F N 0.08197(11) 0.37773(12) 0.5761(3)
N3G N -0.08197(11) 0.37773(12) -0.0761(3)
N4A N -0.41231(10) 0.02707(15) 0.1790(2)
N4B N -0.08769(10) 0.52707(15) 0.3210(2)
N4C N 0.08769(10) 0.52707(15) 0.1790(2)
N5A N -0.33892(10) 0.02208(15) 0.2953(3)
C1A C -0.09233(15) 0.0801(3) 0.5623(4)
H1A H -0.0652 0.0307 0.6572
C2A C -0.17493(13) 0.0657(2) 0.4888(4)
H2A H -0.2043 0.0062 0.5331
C3A C -0.21418(12) 0.14075(17) 0.3481(3)
C4A C -0.16780(11) 0.22876(17) 0.2886(3)
H3A H -0.1939 0.2809 0.1970
C5A C -0.05011(13) 0.1689(2) 0.4931(3)
H4A H 0.0059 0.1780 0.5426
C6A C -0.30102(12) 0.11906(14) 0.2568(3)
loop_
_geom_bond_atom_site_label_1
_geom_bond_atom_site_label_2
_geom_bond_site_symmetry_1
_geom_bond_site_symmetry_2
Cd1 N1 1_555 1_555
N1 C4 1_555 1_555
N2 N3 1_555 1_555
N3 N4 1_555 1_555
N4 N5 1_555 1_555
N5 C6 1_555 1_555
C1 H1 1_555 1_555
C2 C1 1_555 1_555
H2 C2 1_555 1_555
C3 C2 1_555 1_555
C4 C3 1_555 1_555
H3 C4 1_555 1_555
C5 N1 1_555 1_555
H4 C5 1_555 1_555
C6 N2 1_555 1_555
Cd1B N4A 1_555 1_555
Cd1B_2 N4 1_555 1_555
Cd1F N3A 1_555 1_555
Cd1F_2 N3 1_555 1_555
N1A Cd1 1_555 1_555
N2A N3A 1_555 1_555
N3A N4A 1_555 1_555
N3F Cd1 1_555 1_555
N3G Cd1 1_555 1_555
N4A N5A 1_555 1_555
N4B Cd1 1_555 1_555
N4C Cd1 1_555 1_555
N5A C6A 1_555 1_555
C1A H1A 1_555 1_555
C2A C1A 1_555 1_555
H2A C2A 1_555 1_555
C3A C2A 1_555 1_555
C4A N1A 1_555 1_555
H3A C4A 1_555 1_555
C5A N1A 1_555 1_555
H4A C5A 1_555 1_555
C6A N2A 1_555 1_555
C1 C5 1_555 1_555
C3 C6 1_555 1_555
C1A C5A 1_555 1_555
C3A C4A 1_555 1_555
C3A C6A 1_555 1_555

#END
