
#######################################################################
#
#                 Cambridge Crystallographic Data Centre
#                                CCDC 
#
#######################################################################
#
# If this CIF has been generated from an entry in the Cambridge 
# Structural Database, then it will include bibliographic, chemical, 
# crystal, experimental, refinement or atomic coordinate data resulting 
# from the CCDC's data processing and validation procedures.
#
#######################################################################

data_MURBOQ
_symmetry_cell_setting           triclinic
_symmetry_space_group_name_H-M   'P -1'
_symmetry_Int_Tables_number      2
_space_group_name_Hall           '-P 1'
loop_
_symmetry_equiv_pos_site_id
_symmetry_equiv_pos_as_xyz
1 x,y,z
2 -x,-y,-z
_cell_length_a                   6.5156(6)
_cell_length_b                   6.9194(6)
_cell_length_c                   9.3157(9)
_cell_angle_alpha                95.319(2)
_cell_angle_beta                 108.664(2)
_cell_angle_gamma                108.164(2)
_cell_volume                     369.333
loop_
_atom_site_label
_atom_site_type_symbol
_atom_site_fract_x
_atom_site_fract_y
_atom_site_fract_z
Cu1 Cu 0.50570(10) 0.26509(9) 0.13386(6)
O1 O 0.2743(7) 0.2107(6) 0.2316(5)
O2 O 0.2446(8) -0.1205(6) 0.2176(5)
O3 O -0.2736(7) -0.1485(6) 0.0762(5)
O4 O -0.4617(7) -0.3998(6) 0.1708(4)
O5 O 0.7668(9) 0.2831(10) 0.0647(6)
O6 O 0.7501(8) 0.3175(7) 0.3394(5)
C1 C 0.2067(9) 0.0323(8) 0.2649(6)
C2 C -0.3035(9) -0.2351(8) 0.1866(6)
C3 C 0.2239(9) 0.1353(8) 0.5309(6)
H1 H 0.3739 0.2272 0.5519
C4 C 0.0906(9) 0.0180(8) 0.3809(6)
C5 C -0.1379(9) -0.1184(8) 0.3488(6)
C5A C 0.1379(9) 0.1184(8) 0.6512(6)
C2A C 0.3035(9) 0.2351(8) 0.8134(6)
O3A O 0.2736(7) 0.1485(6) 0.9238(5)
O4A O 0.4617(7) 0.3998(6) 0.8292(4)
C4A C -0.0906(9) -0.0180(8) 0.6191(6)
C1A C -0.2067(9) -0.0323(8) 0.7351(6)
O1A O -0.2743(7) -0.2107(6) 0.7684(5)
O2A O -0.2446(8) 0.1205(6) 0.7824(5)
C3A C -0.2239(9) -0.1353(8) 0.4691(6)
H1A H -0.3739 -0.2272 0.4481
Cu1A Cu -0.50570(10) -0.26509(9) 0.86614(6)
O5A O -0.7668(9) -0.2831(10) 0.9353(6)
O6A O -0.7501(8) -0.3175(7) 0.6606(5)
O3A_2 O 0.2736(7) 0.1485(6) -0.0762(5)
O4_2 O 0.5383(7) 0.6002(6) 0.1708(4)
Cu1A_2 Cu -0.50570(10) -0.26509(9) -0.13386(6)
Cu1_2 Cu -0.49430(10) -0.73491(9) 0.13386(6)
Cu1_3 Cu 0.50570(10) 0.26509(9) 1.13386(6)
Cu1A_3 Cu 0.49430(10) 0.73491(9) 0.86614(6)
O3_2 O -0.2736(7) -0.1485(6) 1.0762(5)
O4A_2 O -0.5383(7) -0.6002(6) 0.8292(4)
O7 O 0.8060(7) 0.4547(7) 0.6358(5)
loop_
_geom_bond_atom_site_label_1
_geom_bond_atom_site_label_2
_geom_bond_site_symmetry_1
_geom_bond_site_symmetry_2
Cu1 O1 1_555 1_555
O1 C1 1_555 1_555
O2 C1 1_555 1_555
O3 C2 1_555 1_555
O4 C2 1_555 1_555
O5 Cu1 1_555 1_555
O6 Cu1 1_555 1_555
C1 C4 1_555 1_555
C2 C5 1_555 1_555
C3 H1 1_555 1_555
C4 C3 1_555 1_555
C5 C4 1_555 1_555
C5A C3 1_555 1_555
C2A C5A 1_555 1_555
O3A C2A 1_555 1_555
O4A C2A 1_555 1_555
C4A C5A 1_555 1_555
C1A C4A 1_555 1_555
O1A C1A 1_555 1_555
O2A C1A 1_555 1_555
C3A C5 1_555 1_555
H1A C3A 1_555 1_555
Cu1A O1A 1_555 1_555
O5A Cu1A 1_555 1_555
O6A Cu1A 1_555 1_555
O3A_2 Cu1 1_555 1_555
O4_2 Cu1 1_555 1_555
Cu1A_2 O3 1_555 1_555
Cu1_2 O4 1_555 1_555
Cu1_3 O3A 1_555 1_555
Cu1A_3 O4A 1_555 1_555
O3_2 Cu1A 1_555 1_555
O4A_2 Cu1A 1_555 1_555
C4A C3A 1_555 1_555

#END
