
#######################################################################
#
#                 Cambridge Crystallographic Data Centre
#                                CCDC 
#
#######################################################################
#
# If this CIF has been generated from an entry in the Cambridge 
# Structural Database, then it will include bibliographic, chemical, 
# crystal, experimental, refinement or atomic coordinate data resulting 
# from the CCDC's data processing and validation procedures.
#
#######################################################################

data_MURBOQ01
_symmetry_cell_setting           triclinic
_symmetry_space_group_name_H-M   'P -1'
_symmetry_Int_Tables_number      2
_space_group_name_Hall           '-P 1'
loop_
_symmetry_equiv_pos_site_id
_symmetry_equiv_pos_as_xyz
1 x,y,z
2 -x,-y,-z
_cell_length_a                   6.5120(10)
_cell_length_b                   6.9010(10)
_cell_length_c                   9.328(2)
_cell_angle_alpha                95.448(10)
_cell_angle_beta                 108.706(8)
_cell_angle_gamma                108.090(8)
_cell_volume                     368.51
loop_
_atom_site_label
_atom_site_type_symbol
_atom_site_fract_x
_atom_site_fract_y
_atom_site_fract_z
Cu1 Cu 0.00502(5) 0.26574(4) 0.13393(3)
C1 C 0.3626(4) 0.8823(4) 0.3489(3)
C2 C 0.5903(4) 1.0185(4) 0.3827(3)
C3 C 0.7242(4) 1.1352(4) 0.5326(3)
H1 H 0.8762 1.2278 0.5544
C4 C 0.1982(4) 0.7654(4) 0.1868(3)
C5 C 0.7089(4) 1.0327(4) 0.2664(3)
O1 O 0.0371(3) 0.5999(3) 0.16939(19)
O2 O 0.2297(3) 0.8515(3) 0.0761(2)
O3 O 0.7477(3) 0.8788(3) 0.2199(2)
O4 O 0.7741(3) 1.2106(3) 0.2321(2)
O5 O 0.2489(3) 0.3179(3) 0.3382(2)
H2 H 0.243(5) 0.361(5) 0.423(2)
H3 H 0.382(3) 0.385(4) 0.342(3)
O6 O 0.2657(4) 0.2776(4) 0.0646(2)
H4 H 0.243(7) 0.287(6) -0.0265(19)
H5 H 0.320(7) 0.184(5) 0.083(4)
C1A C 0.6374(4) 1.1177(4) 0.6511(3)
C2A C 0.4097(4) 0.9815(4) 0.6173(3)
C3A C 0.2758(4) 0.8648(4) 0.4674(3)
H1A H 0.1238 0.7722 0.4456
C4A C 0.8018(4) 1.2346(4) 0.8132(3)
C5A C 0.2911(4) 0.9673(4) 0.7336(3)
O1A O 0.9629(3) 1.4001(3) 0.83061(19)
O2A O 0.7703(3) 1.1485(3) 0.9239(2)
O3A O 0.2523(3) 1.1212(3) 0.7801(2)
O4A O 0.2259(3) 0.7894(3) 0.7679(2)
Cu1A Cu -0.00502(5) 0.73426(4) -0.13393(3)
O5A O -0.2489(3) 0.6821(3) -0.3382(2)
H2A H -0.243(5) 0.639(5) -0.423(2)
H3A H -0.382(3) 0.615(4) -0.342(3)
O6A O -0.2657(4) 0.7224(4) -0.0646(2)
H4A H -0.243(7) 0.713(6) 0.0265(19)
H5A H -0.320(7) 0.816(5) -0.083(4)
Cu1_2 Cu 1.00502(5) 1.26574(4) 0.13393(3)
Cu1_3 Cu 1.00502(5) 1.26574(4) 1.13393(3)
Cu1A_2 Cu -0.00502(5) 0.73426(4) 0.86607(3)
Cu1A_3 Cu 0.99498(5) 1.73426(4) 0.86607(3)
O1A_2 O -0.0371(3) 0.4001(3) -0.16939(19)
O2A_2 O -0.2297(3) 0.1485(3) -0.0761(2)
O4_2 O -0.2259(3) 0.2106(3) 0.2321(2)
O4A_2 O 0.2259(3) 0.7894(3) -0.2321(2)
O7 O 0.6921(3) 0.5450(3) 0.3652(2)
H6 H 0.723(6) 0.451(3) 0.324(3)
H7 H 0.711(6) 0.643(3) 0.319(3)
loop_
_geom_bond_atom_site_label_1
_geom_bond_atom_site_label_2
_geom_bond_site_symmetry_1
_geom_bond_site_symmetry_2
Cu1 O1 1_555 1_555
C1 C2 1_555 1_555
C2 C3 1_555 1_555
C3 H1 1_555 1_555
C4 C1 1_555 1_555
C5 C2 1_555 1_555
O1 C4 1_555 1_555
O2 C4 1_555 1_555
O3 C5 1_555 1_555
O4 C5 1_555 1_555
O5 Cu1 1_555 1_555
H2 O5 1_555 1_555
H3 O5 1_555 1_555
O6 Cu1 1_555 1_555
H4 O6 1_555 1_555
H5 O6 1_555 1_555
O7 H6 1_555 1_555
H7 O7 1_555 1_555
C1A C3 1_555 1_555
C2A C1A 1_555 1_555
C3A C1 1_555 1_555
H1A C3A 1_555 1_555
C4A C1A 1_555 1_555
C5A C2A 1_555 1_555
O1A C4A 1_555 1_555
O2A C4A 1_555 1_555
O3A C5A 1_555 1_555
O4A C5A 1_555 1_555
Cu1A O2 1_555 1_555
O5A Cu1A 1_555 1_555
H2A O5A 1_555 1_555
H3A O5A 1_555 1_555
O6A Cu1A 1_555 1_555
H4A O6A 1_555 1_555
H5A O6A 1_555 1_555
Cu1_2 O4 1_555 1_555
Cu1_3 O2A 1_555 1_555
Cu1A_2 O4A 1_555 1_555
Cu1A_3 O1A 1_555 1_555
O1A_2 Cu1A 1_555 1_555
O2A_2 Cu1 1_555 1_555
O4_2 Cu1 1_555 1_555
O4A_2 Cu1A 1_555 1_555
C2A C3A 1_555 1_555

#END
