
#######################################################################
#
#                 Cambridge Crystallographic Data Centre
#                                CCDC 
#
#######################################################################
#
# If this CIF has been generated from an entry in the Cambridge 
# Structural Database, then it will include bibliographic, chemical, 
# crystal, experimental, refinement or atomic coordinate data resulting 
# from the CCDC's data processing and validation procedures.
#
#######################################################################

data_MURCAD
_symmetry_cell_setting           monoclinic
_symmetry_space_group_name_H-M   'C 2/c'
_symmetry_Int_Tables_number      15
_space_group_name_Hall           '-C 2yn'
loop_
_symmetry_equiv_pos_site_id
_symmetry_equiv_pos_as_xyz
1 x,y,z
2 1/2+x,1/2+y,z
3 -x,y,1/2-z
4 1/2-x,1/2+y,1/2-z
5 -x,-y,-z
6 1/2-x,1/2-y,-z
7 x,-y,1/2+z
8 1/2+x,1/2-y,1/2+z
_cell_length_a                   14.7908(4)
_cell_length_b                   13.9157(3)
_cell_length_c                   15.5121(4)
_cell_angle_alpha                90
_cell_angle_beta                 114.9870(10)
_cell_angle_gamma                90
_cell_volume                     2893.94
loop_
_atom_site_label
_atom_site_type_symbol
_atom_site_fract_x
_atom_site_fract_y
_atom_site_fract_z
Cu1 Cu 0.21900(4) 0.77299(4) 0.31352(4)
N1 N 0.0918(3) 0.6889(3) 0.2786(3)
N2 N 0.0090(3) 0.5660(3) 0.3313(4)
O1 O 0.1423(3) 0.8461(3) 0.1991(3)
O2 O 0.2513(3) 0.9377(4) 0.1731(3)
O3 O 0.1951(2) 1.1814(2) 0.0892(2)
O4 O 0.1767(3) 1.1229(3) 0.2131(3)
O5 O 0.1831(3) 0.8642(3) 0.4109(3)
O6 O 0.3409(3) 0.8486(4) 0.3341(3)
C1 C 0.0793(4) 0.9589(4) 0.0767(3)
C2 C 0.0771(4) 1.0579(4) 0.0611(3)
C3 C 0.0018(4) 0.9037(4) 0.0159(4)
H1 H 0.004(4) 0.842(4) 0.026(4)
C4 C 0.1652(4) 0.9123(4) 0.1563(4)
C5 C 0.1556(4) 1.1239(4) 0.1285(4)
C6 C 0.0000 0.7491(5) 0.2500
H2 H 0.012(4) 0.788(4) 0.311(4)
C7 C 0.0976(4) 0.6261(4) 0.3588(4)
H3 H 0.157(4) 0.586(3) 0.374(3)
H4 H 0.098(4) 0.670(4) 0.406(4)
C8 C 0.0788(4) 0.6258(4) 0.1964(4)
H5 H 0.142(5) 0.580(4) 0.217(4)
H6 H 0.077(5) 0.674(6) 0.154(5)
C9 C 0.0000 0.5058(6) 0.2500
H7 H 0.057(5) 0.459(5) 0.273(5)
N1B N -0.0918(3) 0.6889(3) 0.2214(3)
C7B C -0.0976(4) 0.6261(4) 0.1412(4)
N2B N -0.0090(3) 0.5660(3) 0.1687(4)
C8B C -0.0788(4) 0.6258(4) 0.3036(4)
H5B H -0.142(5) 0.580(4) 0.283(4)
H6B H -0.077(5) 0.674(6) 0.346(5)
H7B H -0.057(5) 0.459(5) 0.227(5)
H3B H -0.157(4) 0.586(3) 0.126(3)
H4B H -0.098(4) 0.670(4) 0.094(4)
H2B H -0.012(4) 0.788(4) 0.189(4)
C3D C -0.0018(4) 1.0963(4) -0.0159(4)
C1D C -0.0793(4) 1.0411(4) -0.0767(3)
C2D C -0.0771(4) 0.9421(4) -0.0611(3)
C5D C -0.1556(4) 0.8761(4) -0.1285(4)
O3D O -0.1951(2) 0.8186(2) -0.0892(2)
O4D O -0.1767(3) 0.8771(3) -0.2131(3)
C4D C -0.1652(4) 1.0877(4) -0.1563(4)
O1D O -0.1423(3) 1.1539(3) -0.1991(3)
O2D O -0.2513(3) 1.0623(4) -0.1731(3)
H1D H -0.004(4) 1.158(4) -0.026(4)
Cu1B Cu -0.21900(4) 0.77299(4) 0.18648(4)
O5B O -0.1831(3) 0.8642(3) 0.0891(3)
O6B O -0.3409(3) 0.8486(4) 0.1659(3)
O3C O 0.3049(2) 0.6814(2) 0.4108(2)
Cu1C Cu 0.28100(4) 1.27299(4) 0.18648(4)
Cu1G Cu -0.28100(4) 0.72701(4) -0.18648(4)
Cu1D Cu -0.21900(4) 1.22701(4) -0.31352(4)
O1B O -0.1423(3) 0.8461(3) 0.3009(3)
O3A O -0.3049(2) 0.6814(2) 0.0892(2)
O7 O 0.1955(14) 0.341(2) 0.4708(16)
O8 O 0.5221(10) 0.7633(13) 0.3615(19)
O9 O 0.3865(9) 0.5434(6) 0.1614(8)
O10 O 0.061(2) 0.528(2) 0.5299(9)
loop_
_geom_bond_atom_site_label_1
_geom_bond_atom_site_label_2
_geom_bond_site_symmetry_1
_geom_bond_site_symmetry_2
Cu1 N1 1_555 1_555
N1 C6 1_555 1_555
N2 C7 1_555 1_555
O1 Cu1 1_555 1_555
O2 C4 1_555 1_555
O3 C5 1_555 1_555
O4 C5 1_555 1_555
O5 Cu1 1_555 1_555
O6 Cu1 1_555 1_555
C1 C2 1_555 1_555
C2 C5 1_555 1_555
C3 C1 1_555 1_555
H1 C3 1_555 1_555
C4 O1 1_555 1_555
C6 H2 1_555 1_555
C7 N1 1_555 1_555
H3 C7 1_555 1_555
H4 C7 1_555 1_555
C8 N1 1_555 1_555
H5 C8 1_555 1_555
H6 C8 1_555 1_555
C9 N2 1_555 1_555
H7 C9 1_555 1_555
N1B C6 1_555 1_555
C7B N1B 1_555 1_555
N2B C8 1_555 1_555
C8B N2 1_555 1_555
H5B C8B 1_555 1_555
H6B C8B 1_555 1_555
H7B C9 1_555 1_555
H3B C7B 1_555 1_555
H4B C7B 1_555 1_555
H2B C6 1_555 1_555
C3D C2 1_555 1_555
C1D C3D 1_555 1_555
C2D C3 1_555 1_555
C5D C2D 1_555 1_555
O3D C5D 1_555 1_555
O4D C5D 1_555 1_555
C4D C1D 1_555 1_555
O1D C4D 1_555 1_555
O2D C4D 1_555 1_555
H1D C3D 1_555 1_555
Cu1B N1B 1_555 1_555
O5B Cu1B 1_555 1_555
O6B Cu1B 1_555 1_555
O3C Cu1 1_555 1_555
Cu1C O3 1_555 1_555
Cu1G O3D 1_555 1_555
Cu1D O1D 1_555 1_555
O1B Cu1B 1_555 1_555
O3A Cu1B 1_555 1_555
C1 C4 1_555 1_555
C9 N2B 1_555 1_555
N1B C8B 1_555 1_555
C7B N2B 1_555 1_555
C1D C2D 1_555 1_555

#END
