
#######################################################################
#
#                 Cambridge Crystallographic Data Centre
#                                CCDC 
#
#######################################################################
#
# If this CIF has been generated from an entry in the Cambridge 
# Structural Database, then it will include bibliographic, chemical, 
# crystal, experimental, refinement or atomic coordinate data resulting 
# from the CCDC's data processing and validation procedures.
#
#######################################################################

data_MURCEH
_symmetry_cell_setting           triclinic
_symmetry_space_group_name_H-M   'P -1'
_symmetry_Int_Tables_number      2
_space_group_name_Hall           '-P 1'
loop_
_symmetry_equiv_pos_site_id
_symmetry_equiv_pos_as_xyz
1 x,y,z
2 -x,-y,-z
_cell_length_a                   5.0155(10)
_cell_length_b                   5.8109(12)
_cell_length_c                   9.6258(19)
_cell_angle_alpha                98.85(3)
_cell_angle_beta                 92.06(3)
_cell_angle_gamma                94.27(3)
_cell_volume                     276.11
loop_
_atom_site_label
_atom_site_type_symbol
_atom_site_fract_x
_atom_site_fract_y
_atom_site_fract_z
Cu1 Cu 1.0000 0.5000 0.0000
Cu2 Cu 0.18782(5) 1.04247(4) 0.12446(3)
O1 O 0.2138(3) 0.9274(3) 0.30411(16)
O2 O 0.4154(3) 0.6763(3) 0.15360(16)
O3 O 0.9050(3) 0.4399(3) 0.19088(16)
O4 O 0.5492(3) 0.1897(3) 0.13737(16)
O5 O 0.8880(3) 0.8159(2) 0.04290(15)
C1 C 0.3450(4) 0.7475(4) 0.2758(2)
C2 C 0.6796(4) 0.3511(3) 0.2188(2)
C3 C 0.4234(4) 0.6200(4) 0.3918(2)
C4 C 0.5835(4) 0.4311(4) 0.3644(2)
C5 C 0.3398(4) 0.6867(4) 0.5278(2)
H1 H 0.2323 0.8105 0.5461
H2 H 0.729(5) 0.790(7) 0.086(4)
C5A C 0.6602(4) 0.3133(4) 0.4722(2)
C3A C 0.5766(4) 0.3800(4) 0.6082(2)
C1A C 0.6550(4) 0.2525(4) 0.7242(2)
O1A O 0.7862(3) 0.0726(3) 0.69589(16)
O2A O 0.5846(3) 0.3237(3) 0.84640(16)
C4A C 0.4165(4) 0.5689(4) 0.6356(2)
C2A C 0.3204(4) 0.6489(3) 0.7812(2)
O3A O 0.0950(3) 0.5601(3) 0.80912(16)
O4A O 0.4508(3) 0.8103(3) 0.86263(16)
H1A H 0.7677 0.1895 0.4539
O5A O 1.1120(3) 0.1841(2) -0.04290(15)
H2A H 1.271(5) 0.210(7) -0.086(4)
Cu2A Cu 0.81218(5) -0.04247(4) 0.87554(3)
O3A_2 O 1.0950(3) 0.5601(3) -0.19088(16)
Cu2A_2 Cu -0.18782(5) 0.95753(4) -0.12446(3)
O4_2 O 0.5492(3) 1.1897(3) 0.13737(16)
O5_2 O -0.1120(3) 0.8159(2) 0.04290(15)
O5A_2 O 0.1120(3) 1.1841(2) -0.04290(15)
Cu2_2 Cu 0.18782(5) 0.04247(4) 0.12446(3)
Cu2_3 Cu 1.18782(5) 1.04247(4) 0.12446(3)
Cu2A_3 Cu 0.81218(5) 0.95753(4) -0.12446(3)
Cu1_2 Cu 0.0000 0.5000 1.0000
Cu2A_4 Cu 0.81218(5) 0.95753(4) 0.87554(3)
Cu2_4 Cu 1.18782(5) 0.04247(4) 0.12446(3)
Cu2A_5 Cu 0.81218(5) -0.04247(4) -0.12446(3)
Cu2_5 Cu 1.18782(5) 0.04247(4) 1.12446(3)
O4A_2 O 0.4508(3) -0.1897(3) 0.86263(16)
O5_3 O 0.8880(3) -0.1841(2) 1.04290(15)
O5A_3 O 1.1120(3) 0.1841(2) 0.95710(15)
H2_2 H -0.271(5) 0.790(7) 0.086(4)
H2A_2 H 0.271(5) 1.210(7) -0.086(4)
H2_3 H 0.729(5) -0.210(7) 1.086(4)
H2A_3 H 1.271(5) 0.210(7) 0.914(4)
loop_
_geom_bond_atom_site_label_1
_geom_bond_atom_site_label_2
_geom_bond_site_symmetry_1
_geom_bond_site_symmetry_2
Cu1 O3 1_555 1_555
Cu2 O1 1_555 1_555
O1 C1 1_555 1_555
O2 C1 1_555 1_555
O3 C2 1_555 1_555
O4 C2 1_555 1_555
O5 Cu1 1_555 1_555
C1 C3 1_555 1_555
C2 C4 1_555 1_555
C3 C4 1_555 1_555
C4 C5A 1_555 1_555
C5 C3 1_555 1_555
H1 C5 1_555 1_555
H2 O5 1_555 1_555
C5A C3A 1_555 1_555
C3A C1A 1_555 1_555
C1A O1A 1_555 1_555
O1A Cu2A 1_555 1_555
O2A C1A 1_555 1_555
C4A C5 1_555 1_555
C2A C4A 1_555 1_555
O3A C2A 1_555 1_555
O4A C2A 1_555 1_555
H1A C5A 1_555 1_555
O5A Cu1 1_555 1_555
H2A O5A 1_555 1_555
Cu2A Cu2_5 1_555 1_555
O3A_2 Cu1 1_555 1_555
Cu2A_2 Cu2 1_555 1_555
O4_2 Cu2 1_555 1_555
O5_2 Cu2 1_555 1_555
O5A_2 Cu2 1_555 1_555
Cu2_2 O4 1_555 1_555
Cu2_3 O5 1_555 1_555
Cu2A_3 O5 1_555 1_555
Cu1_2 O3A 1_555 1_555
Cu2A_4 O4A 1_555 1_555
Cu2_4 O5A 1_555 1_555
Cu2A_5 O5A 1_555 1_555
Cu2_5 O5_3 1_555 1_555
O4A_2 Cu2A 1_555 1_555
O5_3 Cu2A 1_555 1_555
O5A_3 Cu2A 1_555 1_555
H2_2 O5_2 1_555 1_555
H2A_2 O5A_2 1_555 1_555
H2_3 O5_3 1_555 1_555
H2A_3 O5A_3 1_555 1_555
C3A C4A 1_555 1_555
Cu2A_2 O5_2 1_555 1_555
Cu2A_2 O5A_2 1_555 1_555
Cu2_3 Cu2A_3 1_555 1_555
Cu2_4 Cu2A_5 1_555 1_555
Cu2_5 O5A_3 1_555 1_555

#END
