
#######################################################################
#
#                 Cambridge Crystallographic Data Centre
#                                CCDC 
#
#######################################################################
#
# If this CIF has been generated from an entry in the Cambridge 
# Structural Database, then it will include bibliographic, chemical, 
# crystal, experimental, refinement or atomic coordinate data resulting 
# from the CCDC's data processing and validation procedures.
#
#######################################################################

data_MURMUI
_symmetry_cell_setting           triclinic
_symmetry_space_group_name_H-M   'P -1'
_symmetry_Int_Tables_number      2
_space_group_name_Hall           '-P 1'
loop_
_symmetry_equiv_pos_site_id
_symmetry_equiv_pos_as_xyz
1 x,y,z
2 -x,-y,-z
_cell_length_a                   10.8699(13)
_cell_length_b                   11.3623(13)
_cell_length_c                   14.1472(16)
_cell_angle_alpha                71.8860(10)
_cell_angle_beta                 76.374(2)
_cell_angle_gamma                66.1770(10)
_cell_volume                     1506.98
loop_
_atom_site_label
_atom_site_type_symbol
_atom_site_fract_x
_atom_site_fract_y
_atom_site_fract_z
Co1 Co 0.44190(4) 1.00796(4) 0.36548(3)
O1 O 0.3107(2) 1.08827(19) 0.24961(14)
O2 O 0.5293(2) 1.03951(19) 0.21019(14)
O3 O 0.62188(19) 0.91839(18) 0.42158(13)
O4 O 0.70834(19) 0.98761(18) 0.51299(14)
N1 N 0.4437(2) 0.8151(2) 0.37306(16)
N2 N 0.4351(2) 0.2049(2) 0.34886(16)
N3 N 0.6112(3) 1.1710(4) 0.0275(2)
H1 H 0.624(3) 1.123(3) 0.085(2)
N4 N 0.8825(3) 1.1116(2) 0.40244(18)
H2 H 0.8431 1.0898 0.4619
C1 C 0.5514(3) 0.7023(3) 0.3869(2)
H3 H 0.6292 0.7044 0.4019
C2 C 0.5531(3) 0.5832(3) 0.3802(2)
H4 H 0.6308 0.5077 0.3902
C3 C 0.4384(3) 0.5765(3) 0.35842(19)
C4 C 0.3262(3) 0.6932(3) 0.3452(2)
H5 H 0.2465 0.6940 0.3310
C5 C 0.3336(3) 0.8081(3) 0.3532(2)
H6 H 0.2572 0.8850 0.3442
C6 C 0.4356(3) 0.4508(3) 0.35032(19)
C7 C 0.5495(3) 0.3572(3) 0.3133(2)
H7 H 0.6292 0.3747 0.2889
C8 C 0.5448(3) 0.2383(3) 0.3128(2)
H8 H 0.6220 0.1780 0.2860
C9 C 0.3227(3) 0.2976(3) 0.3799(2)
H9 H 0.2434 0.2788 0.4014
C10 C 0.3191(3) 0.4199(3) 0.3814(2)
H10 H 0.2385 0.4815 0.4033
C11 C 0.4120(4) 1.0884(3) 0.1839(2)
C12 C 0.3915(3) 1.1456(3) 0.0762(2)
C13 C 0.2730(4) 1.1598(4) 0.0474(2)
H11 H 0.2087 1.1337 0.0962
C14 C 0.2450(4) 1.2108(5) -0.0502(3)
H12 H 0.1636 1.2199 -0.0675
C15 C 0.3412(5) 1.2476(5) -0.1208(3)
H13 H 0.3250 1.2815 -0.1874
C16 C 0.4595(4) 1.2361(4) -0.0964(3)
H14 H 0.5228 1.2620 -0.1465
C17 C 0.4882(4) 1.1859(3) 0.0026(2)
C18 C 0.6760(4) 1.2625(4) -0.0019(3)
C19 C 0.7949(4) 1.2265(5) 0.0386(3)
H15 H 0.8293 1.1430 0.0810
C20 C 0.8615(5) 1.3139(7) 0.0162(4)
H16 H 0.9402 1.2890 0.0442
C21 C 0.8137(7) 1.4374(7) -0.0470(4)
H17 H 0.8594 1.4959 -0.0616
C22 C 0.6972(6) 1.4731(5) -0.0882(4)
H18 H 0.6649 1.5560 -0.1319
C23 C 0.6278(4) 1.3878(5) -0.0655(3)
H19 H 0.5482 1.4141 -0.0929
C24 C 0.7120(3) 0.9530(3) 0.4347(2)
C25 C 0.8311(3) 0.9498(3) 0.3548(2)
C26 C 0.8641(3) 0.8666(3) 0.2915(2)
H20 H 0.8106 0.8168 0.2995
C27 C 0.9728(3) 0.8550(3) 0.2175(2)
H21 H 0.9945 0.7964 0.1774
C28 C 1.0495(3) 0.9326(3) 0.2039(2)
H22 H 1.1228 0.9267 0.1536
C29 C 1.0188(3) 1.0177(3) 0.2636(2)
H23 H 1.0712 1.0694 0.2529
C30 C 0.9098(3) 1.0283(3) 0.3405(2)
C31 C 0.9122(3) 1.2280(3) 0.3790(2)
C32 C 0.9375(3) 1.2646(3) 0.4552(3)
H24 H 0.9400 1.2097 0.5196
C33 C 0.9591(3) 1.3814(4) 0.4363(3)
H25 H 0.9749 1.4053 0.4883
C34 C 0.9576(4) 1.4628(4) 0.3419(4)
H26 H 0.9729 1.5415 0.3295
C35 C 0.9334(4) 1.4274(4) 0.2657(3)
H27 H 0.9324 1.4827 0.2015
C36 C 0.9105(3) 1.3109(3) 0.2828(3)
H28 H 0.8940 1.2882 0.2306
Co1A Co 0.55810(4) 0.99204(4) 0.63452(3)
Co1_2 Co 0.44190(4) 0.00796(4) 0.36548(3)
O4A O 0.29166(19) 1.01239(18) 0.48701(14)
N2_2 N 0.4351(2) 1.2049(2) 0.34886(16)
loop_
_geom_bond_atom_site_label_1
_geom_bond_atom_site_label_2
_geom_bond_site_symmetry_1
_geom_bond_site_symmetry_2
Co1 O1 1_555 1_555
O1 C11 1_555 1_555
O2 Co1 1_555 1_555
O3 Co1 1_555 1_555
O4 C24 1_555 1_555
N1 Co1 1_555 1_555
N2 C8 1_555 1_555
N3 H1 1_555 1_555
N4 H2 1_555 1_555
C1 N1 1_555 1_555
H3 C1 1_555 1_555
C2 C1 1_555 1_555
H4 C2 1_555 1_555
C3 C2 1_555 1_555
C4 C3 1_555 1_555
H5 C4 1_555 1_555
C5 N1 1_555 1_555
H6 C5 1_555 1_555
C6 C3 1_555 1_555
C7 C6 1_555 1_555
H7 C7 1_555 1_555
C8 C7 1_555 1_555
H8 C8 1_555 1_555
C9 N2 1_555 1_555
H9 C9 1_555 1_555
C10 C6 1_555 1_555
H10 C10 1_555 1_555
C11 O2 1_555 1_555
C12 C11 1_555 1_555
C13 C12 1_555 1_555
H11 C13 1_555 1_555
C14 C13 1_555 1_555
H12 C14 1_555 1_555
C15 C14 1_555 1_555
H13 C15 1_555 1_555
C16 C15 1_555 1_555
H14 C16 1_555 1_555
C17 N3 1_555 1_555
C18 N3 1_555 1_555
C19 C18 1_555 1_555
H15 C19 1_555 1_555
C20 C19 1_555 1_555
H16 C20 1_555 1_555
C21 C20 1_555 1_555
H17 C21 1_555 1_555
C22 C21 1_555 1_555
H18 C22 1_555 1_555
C23 C18 1_555 1_555
H19 C23 1_555 1_555
C24 O3 1_555 1_555
C25 C24 1_555 1_555
C26 C25 1_555 1_555
H20 C26 1_555 1_555
C27 C26 1_555 1_555
H21 C27 1_555 1_555
C28 C27 1_555 1_555
H22 C28 1_555 1_555
C29 C28 1_555 1_555
H23 C29 1_555 1_555
C30 N4 1_555 1_555
C31 N4 1_555 1_555
C32 C31 1_555 1_555
H24 C32 1_555 1_555
C33 C32 1_555 1_555
H25 C33 1_555 1_555
C34 C33 1_555 1_555
H26 C34 1_555 1_555
C35 C34 1_555 1_555
H27 C35 1_555 1_555
C36 C31 1_555 1_555
H28 C36 1_555 1_555
Co1A O4 1_555 1_555
Co1_2 N2 1_555 1_555
O4A Co1 1_555 1_555
N2_2 Co1 1_555 1_555
C4 C5 1_555 1_555
C9 C10 1_555 1_555
C12 C17 1_555 1_555
C16 C17 1_555 1_555
C22 C23 1_555 1_555
C25 C30 1_555 1_555
C29 C30 1_555 1_555
C35 C36 1_555 1_555

#END
