
#######################################################################
#
#                 Cambridge Crystallographic Data Centre
#                                CCDC 
#
#######################################################################
#
# If this CIF has been generated from an entry in the Cambridge 
# Structural Database, then it will include bibliographic, chemical, 
# crystal, experimental, refinement or atomic coordinate data resulting 
# from the CCDC's data processing and validation procedures.
#
#######################################################################

data_MURNAP
_symmetry_cell_setting           monoclinic
_symmetry_space_group_name_H-M   'P 21/c'
_symmetry_Int_Tables_number      14
_space_group_name_Hall           '-P 2ybc'
loop_
_symmetry_equiv_pos_site_id
_symmetry_equiv_pos_as_xyz
1 x,y,z
2 -x,1/2+y,1/2-z
3 -x,-y,-z
4 x,1/2-y,1/2+z
_cell_length_a                   13.5070(10)
_cell_length_b                   8.5726(6)
_cell_length_c                   17.6663(12)
_cell_angle_alpha                90
_cell_angle_beta                 109.4050(10)
_cell_angle_gamma                90
_cell_volume                     1929.38
loop_
_atom_site_label
_atom_site_type_symbol
_atom_site_fract_x
_atom_site_fract_y
_atom_site_fract_z
C1 C -0.1405(3) 0.1720(4) -0.0440(2)
C2 C -0.1045(3) 0.0778(4) -0.0945(2)
C3 C -0.1741(4) -0.0245(5) -0.1466(3)
H1 H -0.1513 -0.0874 -0.1805
C4 C -0.2764(4) -0.0334(5) -0.1485(3)
H2 H -0.3217 -0.1039 -0.1831
C5 C -0.3134(4) 0.0596(6) -0.1003(3)
H3 H -0.3832 0.0544 -0.1030
C6 C -0.2441(3) 0.1614(5) -0.0478(2)
H4 H -0.2679 0.2238 -0.0143
C7 C -0.0699(3) 0.2806(4) 0.0149(2)
C8 C 0.1826(3) 0.4061(5) 0.0911(2)
H5 H 0.2110 0.3569 0.0562
C9 C 0.2543(3) 0.4955(4) 0.1579(2)
C10 C 0.3612(3) 0.4765(5) 0.1693(3)
H6 H 0.3814 0.4137 0.1340
C11 C 0.4373(4) 0.5487(7) 0.2317(3)
H7 H 0.5080 0.5338 0.2385
C12 C 0.4085(4) 0.6427(6) 0.2838(3)
H8 H 0.4598 0.6908 0.3261
C13 C 0.3034(3) 0.6664(5) 0.2736(3)
H9 H 0.2845 0.7318 0.3085
C14 C 0.2268(3) 0.5934(4) 0.2119(2)
C15 C 0.0909(3) 0.7108(4) 0.2562(2)
H10 H 0.1165 0.8167 0.2568
H11 H 0.1205 0.6677 0.3098
C16 C -0.0281(3) 0.7103(4) 0.2304(2)
Cu1 Cu 0.00236(3) 0.47785(5) 0.13646(3)
N1 N 0.0280(2) 0.2944(3) 0.01536(17)
N2 N 0.0848(2) 0.3910(3) 0.07763(17)
O1 O -0.0055(2) 0.0808(4) -0.09588(17)
O2 O -0.1070(2) 0.3551(3) 0.06295(15)
O3 O 0.12142(19) 0.6170(3) 0.19939(15)
O4 O -0.0786(2) 0.6073(3) 0.18116(16)
O5 O -0.0695(2) 0.8084(3) 0.26183(16)
H18 H 0.020(10) 0.128(15) -0.061(6)
Cu1A Cu -0.00236(3) 0.97785(5) 0.36354(3)
O5A O 0.0695(2) 0.3084(3) 0.23817(16)
S1 S 0.4097(4) 0.2282(6) 0.4459(2)
O6 O 0.4296(10) 0.2097(16) 0.5297(7)
C17 C 0.356(2) 0.052(3) 0.3951(16)
H12 H 0.3720 -0.0328 0.4326
H13 H 0.3856 0.0321 0.3536
H14 H 0.2811 0.0627 0.3716
C18 C 0.2923(18) 0.342(2) 0.4117(12)
H15 H 0.2405 0.2984 0.4318
H16 H 0.2660 0.3424 0.3541
H17 H 0.3074 0.4474 0.4308
C19? C 0.345(5) 0.332(7) 0.390(3)
C20? C 0.467(4) 0.236(6) 0.519(3)
H19? H 0.2755 0.3536 0.3551
H20? H 0.3858 0.2888 0.3594
H21? H 0.3778 0.4264 0.4156
H22? H 0.4865 0.1688 0.5650
H23? H 0.4739 0.3427 0.5359
H24? H 0.5120 0.2159 0.4878
O7? O 0.340(2) 0.043(3) 0.416(2)
S2? S 0.3407(6) 0.1999(7) 0.4620(3)
loop_
_geom_bond_atom_site_label_1
_geom_bond_atom_site_label_2
_geom_bond_site_symmetry_1
_geom_bond_site_symmetry_2
C1 C2 1_555 1_555
C2 C3 1_555 1_555
C3 H1 1_555 1_555
C4 C3 1_555 1_555
H2 C4 1_555 1_555
C5 C4 1_555 1_555
H3 C5 1_555 1_555
C6 C1 1_555 1_555
H4 C6 1_555 1_555
C7 C1 1_555 1_555
C8 H5 1_555 1_555
C9 C8 1_555 1_555
C10 C9 1_555 1_555
H6 C10 1_555 1_555
C11 C10 1_555 1_555
H7 C11 1_555 1_555
C12 C11 1_555 1_555
H8 C12 1_555 1_555
C13 C12 1_555 1_555
H9 C13 1_555 1_555
C14 C9 1_555 1_555
C15 H10 1_555 1_555
H11 C15 1_555 1_555
C16 C15 1_555 1_555
Cu1 N2 1_555 1_555
N1 C7 1_555 1_555
N2 C8 1_555 1_555
O1 C2 1_555 1_555
O2 C7 1_555 1_555
O3 C14 1_555 1_555
O4 C16 1_555 1_555
O5 C16 1_555 1_555
S1 O6 1_555 1_555
C17 S1 1_555 1_555
H12 C17 1_555 1_555
H13 C17 1_555 1_555
H14 C17 1_555 1_555
C18 S1 1_555 1_555
H15 C18 1_555 1_555
H16 C18 1_555 1_555
H17 C18 1_555 1_555
H18 O1 1_555 1_555
Cu1A O5 1_555 1_555
O5A Cu1 1_555 1_555
C5 C6 1_555 1_555
C13 C14 1_555 1_555
C15 O3 1_555 1_555
Cu1 O2 1_555 1_555
Cu1 O3 1_555 1_555
Cu1 O4 1_555 1_555
N1 N2 1_555 1_555

#END
