
#######################################################################
#
#                 Cambridge Crystallographic Data Centre
#                                CCDC 
#
#######################################################################
#
# If this CIF has been generated from an entry in the Cambridge 
# Structural Database, then it will include bibliographic, chemical, 
# crystal, experimental, refinement or atomic coordinate data resulting 
# from the CCDC's data processing and validation procedures.
#
#######################################################################

data_MURNUJ
_symmetry_cell_setting           triclinic
_symmetry_space_group_name_H-M   'P -1'
_symmetry_Int_Tables_number      2
_space_group_name_Hall           '-P 1'
loop_
_symmetry_equiv_pos_site_id
_symmetry_equiv_pos_as_xyz
1 x,y,z
2 -x,-y,-z
_cell_length_a                   10.6581(4)
_cell_length_b                   15.4244(6)
_cell_length_c                   16.9083(6)
_cell_angle_alpha                80.1140(10)
_cell_angle_beta                 76.0060(10)
_cell_angle_gamma                82.7160(10)
_cell_volume                     2646.5
loop_
_atom_site_label
_atom_site_type_symbol
_atom_site_fract_x
_atom_site_fract_y
_atom_site_fract_z
Cu1 Cu 0.42378(5) 0.75909(3) 0.26356(3)
P1 P 0.27543(11) 0.65921(7) 0.28009(7)
P2 P 0.55009(11) 0.76635(8) 0.35349(7)
N1 N 0.5590(4) 0.7576(3) 0.1492(2)
N2 N 0.7845(5) 0.6054(4) 0.0272(3)
H1 H 0.8582 0.6079 -0.0075
N3 N 0.3151(4) 0.8805(2) 0.2312(2)
N4 N 0.1936(7) 1.0976(4) 0.2925(4)
H2 H 0.1713 1.1489 0.2682
C1 C 0.1935(4) 0.6780(3) 0.1944(3)
C2 C 0.0695(6) 0.7167(5) 0.2013(4)
H3 H 0.0204 0.7291 0.2523
C3 C 0.0163(7) 0.7377(7) 0.1314(5)
H4 H -0.0670 0.7659 0.1356
C4 C 0.0858(7) 0.7170(6) 0.0580(4)
H5 H 0.0480 0.7272 0.0128
C5 C 0.2119(6) 0.6810(4) 0.0499(3)
H6 H 0.2616 0.6702 -0.0014
C6 C 0.2632(5) 0.6613(4) 0.1174(3)
H7 H 0.3481 0.6357 0.1118
C7 C 0.1426(4) 0.6702(3) 0.3701(3)
C8 C 0.1256(6) 0.7468(4) 0.4043(4)
H8 H 0.1799 0.7914 0.3801
C9 C 0.0291(7) 0.7591(5) 0.4744(5)
H9 H 0.0200 0.8112 0.4968
C10 C -0.0519(6) 0.6950(5) 0.5100(4)
H10 H -0.1160 0.7028 0.5571
C11 C -0.0387(7) 0.6195(4) 0.4765(4)
H11 H -0.0950 0.5759 0.5001
C12 C 0.0578(6) 0.6074(4) 0.4077(4)
H12 H 0.0660 0.5550 0.3859
C13 C 0.3258(4) 0.5412(3) 0.2891(3)
C14 C 0.4410(5) 0.5110(3) 0.3134(3)
H13 H 0.4922 0.5512 0.3225
C15 C 0.4800(6) 0.4223(4) 0.3242(4)
H14 H 0.5570 0.4032 0.3410
C16 C 0.4079(7) 0.3623(4) 0.3109(4)
H15 H 0.4350 0.3024 0.3193
C17 C 0.2923(7) 0.3905(4) 0.2842(4)
H16 H 0.2429 0.3497 0.2743
C18 C 0.2531(5) 0.4795(3) 0.2729(3)
H17 H 0.1776 0.4988 0.2544
C19 C 0.6693(4) 0.8480(3) 0.3182(3)
C20 C 0.7921(5) 0.8350(4) 0.3355(4)
H18 H 0.8183 0.7818 0.3646
C21 C 0.8744(6) 0.9008(4) 0.3095(5)
H19 H 0.9564 0.8916 0.3211
C22 C 0.8379(6) 0.9803(4) 0.2666(4)
H20 H 0.8948 1.0243 0.2488
C23 C 0.7174(6) 0.9938(4) 0.2505(4)
H21 H 0.6910 1.0477 0.2225
C24 C 0.6346(5) 0.9281(4) 0.2754(3)
H22 H 0.5531 0.9380 0.2630
C25 C 0.4713(4) 0.7892(3) 0.4582(3)
C26 C 0.3656(5) 0.7443(4) 0.5006(3)
H23 H 0.3367 0.7035 0.4760
C27 C 0.3020(6) 0.7591(4) 0.5793(3)
H24 H 0.2316 0.7276 0.6073
C28 C 0.3414(6) 0.8192(4) 0.6159(3)
H25 H 0.2990 0.8286 0.6691
C29 C 0.4452(7) 0.8661(5) 0.5733(4)
H26 H 0.4714 0.9083 0.5977
C30 C 0.5111(6) 0.8513(4) 0.4946(3)
H27 H 0.5814 0.8829 0.4666
C31 C 0.6485(4) 0.6609(3) 0.3689(3)
C32 C 0.7356(5) 0.6329(4) 0.3007(3)
H28 H 0.7492 0.6704 0.2506
C33 C 0.8020(6) 0.5504(4) 0.3064(5)
H29 H 0.8606 0.5329 0.2602
C34 C 0.7829(7) 0.4937(4) 0.3791(6)
H30 H 0.8283 0.4380 0.3827
C35 C 0.6975(7) 0.5196(5) 0.4451(5)
H31 H 0.6829 0.4806 0.4942
C36 C 0.6302(6) 0.6031(4) 0.4423(4)
H32 H 0.5734 0.6200 0.4894
C37 C 0.6160(5) 0.6836(3) 0.1208(3)
H33 H 0.5838 0.6303 0.1470
C38 C 0.6027(5) 0.8347(4) 0.1097(3)
H34 H 0.5634 0.8868 0.1290
C39 C 0.7034(7) 0.8391(4) 0.0417(4)
H35 H 0.7306 0.8937 0.0150
C40 C 0.7637(6) 0.7638(4) 0.0131(3)
H36 H 0.8323 0.7668 -0.0330
C41 C 0.7224(5) 0.6822(4) 0.0532(3)
C42 C 0.7334(6) 0.5213(4) 0.0548(4)
H37 H 0.7151 0.5106 0.1145
H38 H 0.7995 0.4760 0.0348
C43 C 0.6102(6) 0.5120(4) 0.0271(3)
C44 C 0.5926(6) 0.5512(4) -0.0498(4)
H39 H 0.6545 0.5863 -0.0844
C45 C 0.5168(6) 0.4614(4) 0.0756(3)
H40 H 0.5267 0.4345 0.1276
C46 C 0.2810(5) 0.9464(3) 0.2760(3)
H41 H 0.3002 0.9384 0.3278
C47 C 0.2805(6) 0.8894(3) 0.1588(3)
H42 H 0.3034 0.8435 0.1275
C48 C 0.2112(6) 0.9658(4) 0.1297(4)
H43 H 0.1858 0.9703 0.0802
C49 C 0.1811(6) 1.0338(4) 0.1746(4)
H44 H 0.1355 1.0853 0.1553
C50 C 0.2177(5) 1.0270(3) 0.2489(3)
C51 C 0.2044(8) 1.0891(4) 0.3772(5)
H45 H 0.2030 1.1477 0.3910
H46 H 0.2879 1.0580 0.3818
C52 C 0.0989(6) 1.0409(4) 0.4398(4)
C53 C -0.0274(7) 1.0482(4) 0.4299(4)
H47 H -0.0473 1.0804 0.3821
C54 C 0.1249(6) 0.9919(5) 0.5100(4)
H48 H 0.2092 0.9851 0.5179
Cu1A Cu 0.57622(5) 0.24091(3) -0.26356(3)
Cu1A_2 Cu -0.42378(5) 1.24091(3) 0.73644(3)
P1A P 0.72457(11) 0.34079(7) -0.28009(7)
P2A P 0.44991(11) 0.23365(8) -0.35349(7)
N1A N 0.4410(4) 0.2424(3) -0.1492(2)
N2A N 0.2155(5) 0.3946(4) -0.0272(3)
H1A H 0.1418 0.3921 0.0075
N3A N -0.3151(4) 1.1195(2) 0.7688(2)
N3A_2 N 0.6849(4) 0.1195(2) -0.2312(2)
N4A N -0.1936(7) 0.9024(4) 0.7075(4)
H2A H -0.1713 0.8511 0.7318
C1A C 0.8065(4) 0.3220(3) -0.1944(3)
C2A C 0.9305(6) 0.2833(5) -0.2013(4)
H3A H 0.9796 0.2709 -0.2523
C3A C 0.9837(7) 0.2623(7) -0.1314(5)
H4A H 1.0670 0.2341 -0.1356
C4A C 0.9142(7) 0.2830(6) -0.0580(4)
H5A H 0.9520 0.2728 -0.0128
C5A C 0.7881(6) 0.3190(4) -0.0499(3)
H6A H 0.7384 0.3298 0.0014
C6A C 0.7368(5) 0.3387(4) -0.1174(3)
H7A H 0.6519 0.3643 -0.1118
C7A C 0.8574(4) 0.3298(3) -0.3701(3)
C8A C 0.8744(6) 0.2532(4) -0.4043(4)
H8A H 0.8201 0.2086 -0.3801
C9A C 0.9709(7) 0.2409(5) -0.4744(5)
H9A H 0.9800 0.1888 -0.4968
C10A C 1.0519(6) 0.3050(5) -0.5100(4)
H10A H 1.1160 0.2972 -0.5571
C11A C 1.0387(7) 0.3805(4) -0.4765(4)
H11A H 1.0950 0.4241 -0.5001
C12A C 0.9422(6) 0.3926(4) -0.4077(4)
H12A H 0.9340 0.4450 -0.3859
C13A C 0.6742(4) 0.4588(3) -0.2891(3)
C14A C 0.5590(5) 0.4890(3) -0.3134(3)
H13A H 0.5078 0.4488 -0.3225
C15A C 0.5200(6) 0.5777(4) -0.3242(4)
H14A H 0.4430 0.5968 -0.3410
C16A C 0.5921(7) 0.6377(4) -0.3109(4)
H15A H 0.5650 0.6976 -0.3193
C17A C 0.7077(7) 0.6095(4) -0.2842(4)
H16A H 0.7571 0.6503 -0.2743
C18A C 0.7469(5) 0.5205(3) -0.2729(3)
H17A H 0.8224 0.5012 -0.2544
C19A C 0.3307(4) 0.1520(3) -0.3182(3)
C20A C 0.2079(5) 0.1650(4) -0.3355(4)
H18A H 0.1817 0.2182 -0.3646
C21A C 0.1256(6) 0.0992(4) -0.3095(5)
H19A H 0.0436 0.1084 -0.3211
C22A C 0.1621(6) 0.0197(4) -0.2666(4)
H20A H 0.1052 -0.0243 -0.2488
C23A C 0.2826(6) 0.0062(4) -0.2505(4)
H21A H 0.3090 -0.0477 -0.2225
C24A C 0.3654(5) 0.0719(4) -0.2754(3)
H22A H 0.4469 0.0620 -0.2630
C25A C 0.5287(4) 0.2108(3) -0.4582(3)
C26A C 0.6344(5) 0.2557(4) -0.5006(3)
H23A H 0.6633 0.2965 -0.4760
C27A C 0.6980(6) 0.2409(4) -0.5793(3)
H24A H 0.7684 0.2724 -0.6073
C28A C 0.6586(6) 0.1808(4) -0.6159(3)
H25A H 0.7010 0.1714 -0.6691
C29A C 0.5548(7) 0.1339(5) -0.5733(4)
H26A H 0.5286 0.0917 -0.5977
C30A C 0.4889(6) 0.1487(4) -0.4946(3)
H27A H 0.4186 0.1171 -0.4666
C31A C 0.3515(4) 0.3391(3) -0.3689(3)
C32A C 0.2644(5) 0.3671(4) -0.3007(3)
H28A H 0.2508 0.3296 -0.2506
C33A C 0.1980(6) 0.4496(4) -0.3064(5)
H29A H 0.1394 0.4671 -0.2602
C34A C 0.2171(7) 0.5063(4) -0.3791(6)
H30A H 0.1717 0.5620 -0.3827
C35A C 0.3025(7) 0.4804(5) -0.4451(5)
H31A H 0.3171 0.5194 -0.4942
C36A C 0.3698(6) 0.3969(4) -0.4423(4)
H32A H 0.4266 0.3800 -0.4894
C37A C 0.3840(5) 0.3164(3) -0.1208(3)
H33A H 0.4162 0.3697 -0.1470
C38A C 0.3973(5) 0.1653(4) -0.1097(3)
H34A H 0.4366 0.1132 -0.1290
C39A C 0.2966(7) 0.1609(4) -0.0417(4)
H35A H 0.2694 0.1063 -0.0150
C40A C 0.2363(6) 0.2362(4) -0.0131(3)
H36A H 0.1677 0.2332 0.0330
C41A C 0.2776(5) 0.3178(4) -0.0532(3)
C42A C 0.2666(6) 0.4787(4) -0.0548(4)
H37A H 0.2849 0.4894 -0.1145
H38A H 0.2005 0.5240 -0.0348
C43A C 0.3898(6) 0.4880(4) -0.0271(3)
C44A C 0.4074(6) 0.4488(4) 0.0498(4)
H39A H 0.3455 0.4137 0.0844
C45A C 0.4832(6) 0.5386(4) -0.0756(3)
H40A H 0.4733 0.5655 -0.1276
C46A C -0.2810(5) 1.0536(3) 0.7240(3)
H41A H -0.3002 1.0616 0.6722
C47A C -0.2805(6) 1.1106(3) 0.8412(3)
H42A H -0.3034 1.1565 0.8725
C48A C -0.2112(6) 1.0342(4) 0.8703(4)
H43A H -0.1858 1.0297 0.9198
C49A C -0.1811(6) 0.9662(4) 0.8254(4)
H44A H -0.1355 0.9147 0.8447
C50A C -0.2177(5) 0.9730(3) 0.7511(3)
C51A C -0.2044(8) 0.9109(4) 0.6228(5)
H45A H -0.2030 0.8523 0.6090
H46A H -0.2879 0.9420 0.6182
C52A C -0.0989(6) 0.9591(4) 0.5602(4)
C53A C 0.0274(7) 0.9518(4) 0.5701(4)
H47A H 0.0473 0.9196 0.6179
C54A C -0.1249(6) 1.0081(5) 0.4900(4)
H48A H -0.2092 1.0149 0.4821
Cl1 Cl -0.0197(2) 0.30228(15) 0.20264(12)
O1 O -0.0345(14) 0.2315(9) 0.1768(9)
O2 O 0.0064(13) 0.3586(8) 0.1370(7)
O3 O -0.0145(13) 0.2950(11) 0.2797(8)
O4 O -0.1484(12) 0.3429(8) 0.2237(8)
O5 O 0.9421(7) 0.0710(6) 0.0441(5)
C55 C 0.482(2) 0.1819(11) 0.1127(16)
H49 H 0.3996 0.1744 0.1514
H50 H 0.4671 0.2262 0.0671
Cl2 Cl 0.5390(5) 0.0823(3) 0.0753(3)
Cl3 Cl 0.5857(8) 0.2218(3) 0.1616(3)
C56? C 0.537(3) 0.1976(14) 0.0838(11)
Cl4? Cl 0.6113(18) 0.0978(12) 0.0546(8)
Cl5? Cl 0.4473(13) 0.1861(8) 0.1854(7)
H51? H 0.4792 0.2232 0.0476
H52? H 0.6022 0.2380 0.0774
loop_
_geom_bond_atom_site_label_1
_geom_bond_atom_site_label_2
_geom_bond_site_symmetry_1
_geom_bond_site_symmetry_2
Cu1 P1 1_555 1_555
Cl1 O1 1_555 1_555
P1 C1 1_555 1_555
P2 Cu1 1_555 1_555
O2 Cl1 1_555 1_555
O3 Cl1 1_555 1_555
O4 Cl1 1_555 1_555
N1 Cu1 1_555 1_555
N2 H1 1_555 1_555
N3 Cu1 1_555 1_555
N4 H2 1_555 1_555
C1 C2 1_555 1_555
C2 H3 1_555 1_555
C3 C2 1_555 1_555
H4 C3 1_555 1_555
C4 C3 1_555 1_555
H5 C4 1_555 1_555
C5 C4 1_555 1_555
H6 C5 1_555 1_555
C6 C1 1_555 1_555
H7 C6 1_555 1_555
C7 P1 1_555 1_555
C8 C7 1_555 1_555
H8 C8 1_555 1_555
C9 C8 1_555 1_555
H9 C9 1_555 1_555
C10 C9 1_555 1_555
H10 C10 1_555 1_555
C11 C10 1_555 1_555
H11 C11 1_555 1_555
C12 C7 1_555 1_555
H12 C12 1_555 1_555
C13 P1 1_555 1_555
C14 C13 1_555 1_555
H13 C14 1_555 1_555
C15 C14 1_555 1_555
H14 C15 1_555 1_555
C16 C15 1_555 1_555
H15 C16 1_555 1_555
C17 C16 1_555 1_555
H16 C17 1_555 1_555
C18 C13 1_555 1_555
H17 C18 1_555 1_555
C19 P2 1_555 1_555
C20 C19 1_555 1_555
H18 C20 1_555 1_555
C21 C20 1_555 1_555
H19 C21 1_555 1_555
C22 C21 1_555 1_555
H20 C22 1_555 1_555
C23 C22 1_555 1_555
H21 C23 1_555 1_555
C24 C19 1_555 1_555
H22 C24 1_555 1_555
C25 P2 1_555 1_555
C26 C25 1_555 1_555
H23 C26 1_555 1_555
C27 C26 1_555 1_555
H24 C27 1_555 1_555
C28 C27 1_555 1_555
H25 C28 1_555 1_555
C29 C28 1_555 1_555
H26 C29 1_555 1_555
C30 C25 1_555 1_555
H27 C30 1_555 1_555
C31 P2 1_555 1_555
C32 C31 1_555 1_555
H28 C32 1_555 1_555
C33 C32 1_555 1_555
H29 C33 1_555 1_555
C34 C33 1_555 1_555
H30 C34 1_555 1_555
C35 C34 1_555 1_555
H31 C35 1_555 1_555
C36 C31 1_555 1_555
H32 C36 1_555 1_555
C37 N1 1_555 1_555
H33 C37 1_555 1_555
C38 N1 1_555 1_555
H34 C38 1_555 1_555
C39 C38 1_555 1_555
H35 C39 1_555 1_555
C40 C39 1_555 1_555
H36 C40 1_555 1_555
C41 N2 1_555 1_555
C42 N2 1_555 1_555
H37 C42 1_555 1_555
H38 C42 1_555 1_555
C43 C42 1_555 1_555
C44 C43 1_555 1_555
H39 C44 1_555 1_555
C45 C43 1_555 1_555
H40 C45 1_555 1_555
C46 N3 1_555 1_555
H41 C46 1_555 1_555
C47 N3 1_555 1_555
H42 C47 1_555 1_555
C48 C47 1_555 1_555
H43 C48 1_555 1_555
C49 C48 1_555 1_555
H44 C49 1_555 1_555
C50 N4 1_555 1_555
C51 N4 1_555 1_555
H45 C51 1_555 1_555
H46 C51 1_555 1_555
C52 C51 1_555 1_555
C53 C52 1_555 1_555
H47 C53 1_555 1_555
C54 C52 1_555 1_555
H48 C54 1_555 1_555
C55 H49 1_555 1_555
H50 C55 1_555 1_555
Cl2 C55 1_555 1_555
Cl3 C55 1_555 1_555
Cu1A P1A 1_555 1_555
Cu1A_2 N3A 1_555 1_555
P1A C1A 1_555 1_555
P2A Cu1A 1_555 1_555
N1A Cu1A 1_555 1_555
N2A H1A 1_555 1_555
N3A C46A 1_555 1_555
N3A_2 Cu1A 1_555 1_555
N4A H2A 1_555 1_555
C1A C2A 1_555 1_555
C2A H3A 1_555 1_555
C3A C2A 1_555 1_555
H4A C3A 1_555 1_555
C4A C3A 1_555 1_555
H5A C4A 1_555 1_555
C5A C4A 1_555 1_555
H6A C5A 1_555 1_555
C6A C1A 1_555 1_555
H7A C6A 1_555 1_555
C7A P1A 1_555 1_555
C8A C7A 1_555 1_555
H8A C8A 1_555 1_555
C9A C8A 1_555 1_555
H9A C9A 1_555 1_555
C10A C9A 1_555 1_555
H10A C10A 1_555 1_555
C11A C10A 1_555 1_555
H11A C11A 1_555 1_555
C12A C7A 1_555 1_555
H12A C12A 1_555 1_555
C13A P1A 1_555 1_555
C14A C13A 1_555 1_555
H13A C14A 1_555 1_555
C15A C14A 1_555 1_555
H14A C15A 1_555 1_555
C16A C15A 1_555 1_555
H15A C16A 1_555 1_555
C17A C16A 1_555 1_555
H16A C17A 1_555 1_555
C18A C13A 1_555 1_555
H17A C18A 1_555 1_555
C19A P2A 1_555 1_555
C20A C19A 1_555 1_555
H18A C20A 1_555 1_555
C21A C20A 1_555 1_555
H19A C21A 1_555 1_555
C22A C21A 1_555 1_555
H20A C22A 1_555 1_555
C23A C22A 1_555 1_555
H21A C23A 1_555 1_555
C24A C19A 1_555 1_555
H22A C24A 1_555 1_555
C25A P2A 1_555 1_555
C26A C25A 1_555 1_555
H23A C26A 1_555 1_555
C27A C26A 1_555 1_555
H24A C27A 1_555 1_555
C28A C27A 1_555 1_555
H25A C28A 1_555 1_555
C29A C28A 1_555 1_555
H26A C29A 1_555 1_555
C30A C25A 1_555 1_555
H27A C30A 1_555 1_555
C31A P2A 1_555 1_555
C32A C31A 1_555 1_555
H28A C32A 1_555 1_555
C33A C32A 1_555 1_555
H29A C33A 1_555 1_555
C34A C33A 1_555 1_555
H30A C34A 1_555 1_555
C35A C34A 1_555 1_555
H31A C35A 1_555 1_555
C36A C31A 1_555 1_555
H32A C36A 1_555 1_555
C37A N1A 1_555 1_555
H33A C37A 1_555 1_555
C38A N1A 1_555 1_555
H34A C38A 1_555 1_555
C39A C38A 1_555 1_555
H35A C39A 1_555 1_555
C40A C39A 1_555 1_555
H36A C40A 1_555 1_555
C41A N2A 1_555 1_555
C42A N2A 1_555 1_555
H37A C42A 1_555 1_555
H38A C42A 1_555 1_555
C43A C42A 1_555 1_555
C44A C45 1_555 1_555
H39A C44A 1_555 1_555
C45A C44 1_555 1_555
H40A C45A 1_555 1_555
C46A H41A 1_555 1_555
C47A N3A 1_555 1_555
H42A C47A 1_555 1_555
C48A C47A 1_555 1_555
H43A C48A 1_555 1_555
C49A C48A 1_555 1_555
H44A C49A 1_555 1_555
C50A N4A 1_555 1_555
C51A N4A 1_555 1_555
H45A C51A 1_555 1_555
H46A C51A 1_555 1_555
C52A C51A 1_555 1_555
C53A C54 1_555 1_555
H47A C53A 1_555 1_555
C54A C53 1_555 1_555
H48A C54A 1_555 1_555
C5 C6 1_555 1_555
C11 C12 1_555 1_555
C17 C18 1_555 1_555
C23 C24 1_555 1_555
C29 C30 1_555 1_555
C35 C36 1_555 1_555
C37 C41 1_555 1_555
C40 C41 1_555 1_555
C46 C50 1_555 1_555
C49 C50 1_555 1_555
C5A C6A 1_555 1_555
C11A C12A 1_555 1_555
C17A C18A 1_555 1_555
C23A C24A 1_555 1_555
C29A C30A 1_555 1_555
C35A C36A 1_555 1_555
C37A C41A 1_555 1_555
C40A C41A 1_555 1_555
C43A C44A 1_555 1_555
C43A C45A 1_555 1_555
C46A C50A 1_555 1_555
C49A C50A 1_555 1_555
C52A C53A 1_555 1_555
C52A C54A 1_555 1_555

#END
