
#######################################################################
#
#                 Cambridge Crystallographic Data Centre
#                                CCDC 
#
#######################################################################
#
# If this CIF has been generated from an entry in the Cambridge 
# Structural Database, then it will include bibliographic, chemical, 
# crystal, experimental, refinement or atomic coordinate data resulting 
# from the CCDC's data processing and validation procedures.
#
#######################################################################

data_MURNIX
_symmetry_cell_setting           monoclinic
_symmetry_space_group_name_H-M   'P 21'
_symmetry_Int_Tables_number      4
_space_group_name_Hall           'P 2yb'
loop_
_symmetry_equiv_pos_site_id
_symmetry_equiv_pos_as_xyz
1 x,y,z
2 -x,1/2+y,-z
_cell_length_a                   9.6083(19)
_cell_length_b                   7.8958(16)
_cell_length_c                   15.514(3)
_cell_angle_alpha                90
_cell_angle_beta                 101.85(3)
_cell_angle_gamma                90
_cell_volume                     1151.89
loop_
_atom_site_label
_atom_site_type_symbol
_atom_site_fract_x
_atom_site_fract_y
_atom_site_fract_z
Sm1 Sm 0.48926(4) 0.60157(6) 0.45797(2)
Sm2 Sm 0.98382(4) 0.61341(6) 0.46310(2)
Cu1 Cu 0.25349(16) 0.4562(2) -0.00557(8)
O1 O 0.3934(9) 0.4009(12) 0.3489(4)
O2 O 0.3807(7) 0.1267(12) 0.3900(4)
O3 O 0.1335(8) 0.2851(11) -0.0737(4)
O4 O 0.0082(9) 0.0558(13) -0.0565(5)
O5 O 1.3751(7) 0.6243(13) 1.0648(4)
O6 O 1.5114(8) 0.8448(12) 1.0465(4)
O7 O 1.0211(7) 0.6365(10) 0.6309(4)
O8 O 1.0143(8) 0.9201(10) 0.6508(4)
O9 O 0.7280(7) 0.6642(10) 0.4321(4)
O10 O 0.8549(7) 0.8902(10) 0.4699(4)
O11 O 0.6180(7) 0.8952(10) 0.4615(4)
O12 O 0.6281(8) 0.3439(11) 0.4868(5)
O13 O 0.7734(7) 0.1651(10) 0.5698(4)
O14 O 0.8661(8) 0.3627(10) 0.4983(4)
O15 O 0.4275(10) 0.7433(12) 0.3152(5)
H1 H 0.3753 0.6799 0.2776
H2 H 0.5133 0.7667 0.2977
O16 O 0.9411(8) 0.7812(11) 0.3200(5)
H3 H 0.9952 0.7472 0.2892
H4 H 0.9549 0.8820 0.3311
N1 N 0.2540(9) 0.2991(13) 0.0911(5)
N2 N 1.2426(8) 0.6260(12) 0.9006(4)
C1 C 0.3664(11) 0.2515(17) 0.3366(6)
C2 C 0.2981(12) 0.2009(14) 0.2385(6)
C3 C 0.3150(10) 0.3205(15) 0.1754(6)
H5 H 0.3696 0.4166 0.1926
C4 C 0.1749(11) 0.1587(15) 0.0667(6)
C5 C 0.1592(11) 0.0355(15) 0.1253(6)
H6 H 0.1072 -0.0620 0.1070
C6 C 0.2251(11) 0.0602(15) 0.2163(7)
H7 H 0.2166 -0.0207 0.2585
C7 C 0.0986(12) 0.1658(18) -0.0289(7)
C8 C 1.4143(12) 0.7459(16) 1.0200(6)
C9 C 1.3270(11) 0.7584(16) 0.9257(6)
C10 C 1.3349(12) 0.8900(17) 0.8710(7)
H8 H 1.4020 0.9748 0.8883
C11 C 1.2454(11) 0.8995(16) 0.7906(6)
H9 H 1.2442 0.9949 0.7553
C12 C 1.1558(11) 0.7627(16) 0.7628(6)
C13 C 1.1585(10) 0.6242(17) 0.8186(5)
H10 H 1.1024 0.5299 0.7998
C14 C 1.0554(11) 0.7712(16) 0.6735(6)
C15 C 0.7332(10) 0.8184(15) 0.4548(6)
C16 C 0.7560(10) 0.2940(16) 0.5190(6)
Sm1A Sm 0.51074(4) 0.10157(6) 0.54203(2)
Sm1A_2 Sm 0.51074(4) 1.10157(6) 0.54203(2)
Sm2A Sm 1.01618(4) 1.11341(6) 0.53690(2)
Sm2A_2 Sm 1.01618(4) 0.11341(6) 0.53690(2)
Cu1_2 Cu 1.25349(16) 0.4562(2) 0.99443(8)
O2A O 0.6193(7) 0.6267(12) 0.6100(4)
O5_2 O 0.3751(7) 0.6243(13) 0.0648(4)
O8A O 0.9857(8) 0.4201(10) 0.3492(4)
O10A O 1.1451(7) 0.3902(10) 0.5301(4)
O11A O 0.3820(7) 0.3952(10) 0.5385(4)
O12A O 0.3719(8) 0.8439(11) 0.5132(5)
O13A O 0.2266(7) 0.6651(10) 0.4302(4)
O13A_2 O 1.2266(7) 0.6651(10) 0.4302(4)
O14A O 1.1339(8) 0.8627(10) 0.5017(4)
N2_2 N 0.2426(8) 0.6260(12) -0.0994(4)
O17 O 0.1356(8) 0.6484(13) 0.2279(4)
H11 H 0.1414 0.5616 0.2591
H12 H 0.1069 0.6247 0.1737
O18 O 0.6309(9) 0.8258(17) 0.2265(4)
H13 H 0.7140 0.8137 0.2519
H14 H 0.5957 0.8306 0.1737
loop_
_geom_bond_atom_site_label_1
_geom_bond_atom_site_label_2
_geom_bond_site_symmetry_1
_geom_bond_site_symmetry_2
Sm1 O1 1_555 1_555
Sm2 O7 1_555 1_555
Cu1 O3 1_555 1_555
O1 C1 1_555 1_555
O2 C1 1_555 1_555
O3 C7 1_555 1_555
O4 C7 1_555 1_555
O5 C8 1_555 1_555
O6 C8 1_555 1_555
O7 C14 1_555 1_555
O8 C14 1_555 1_555
O9 Sm1 1_555 1_555
O10 Sm2 1_555 1_555
O11 Sm1 1_555 1_555
O12 Sm1 1_555 1_555
O13 C16 1_555 1_555
O14 Sm2 1_555 1_555
O15 Sm1 1_555 1_555
H1 O15 1_555 1_555
H2 O15 1_555 1_555
O16 Sm2 1_555 1_555
H3 O16 1_555 1_555
H4 O16 1_555 1_555
N1 Cu1 1_555 1_555
N2 C9 1_555 1_555
C1 C2 1_555 1_555
C2 C3 1_555 1_555
C3 N1 1_555 1_555
H5 C3 1_555 1_555
C4 N1 1_555 1_555
C5 C4 1_555 1_555
H6 C5 1_555 1_555
C6 C2 1_555 1_555
H7 C6 1_555 1_555
C7 C4 1_555 1_555
C8 C9 1_555 1_555
C9 C10 1_555 1_555
C10 H8 1_555 1_555
C11 C10 1_555 1_555
H9 C11 1_555 1_555
C12 C11 1_555 1_555
C13 N2 1_555 1_555
H10 C13 1_555 1_555
C14 C12 1_555 1_555
C15 O9 1_555 1_555
C16 O12 1_555 1_555
O17 H11 1_555 1_555
H12 O17 1_555 1_555
O18 H13 1_555 1_555
H14 O18 1_555 1_555
Sm1A O2 1_555 1_555
Sm1A_2 O11 1_555 1_555
Sm2A O8 1_555 1_555
Sm2A_2 O13 1_555 1_555
Cu1_2 O5 1_555 1_555
O2A Sm1 1_555 1_555
O5_2 Cu1 1_555 1_555
O8A Sm2 1_555 1_555
O10A Sm2 1_555 1_555
O11A Sm1 1_555 1_555
O12A Sm1 1_555 1_555
O13A Sm1 1_555 1_555
O13A_2 Sm2 1_555 1_555
O14A Sm2 1_555 1_555
N2_2 Cu1 1_555 1_555
Sm2 O9 1_555 1_555
O10 C15 1_555 1_555
O10 Sm2A 1_555 1_555
O11 C15 1_555 1_555
O12 Sm1A 1_555 1_555
O13 Sm1A 1_555 1_555
O14 C16 1_555 1_555
O14 Sm2A_2 1_555 1_555
N2 Cu1_2 1_555 1_555
C5 C6 1_555 1_555
C12 C13 1_555 1_555
Sm1A O11A 1_555 1_555
Sm1A_2 O12A 1_555 1_555
Sm2A O14A 1_555 1_555
Sm2A_2 O10A 1_555 1_555

#END
