
#######################################################################
#
#                 Cambridge Crystallographic Data Centre
#                                CCDC 
#
#######################################################################
#
# If this CIF has been generated from an entry in the Cambridge 
# Structural Database, then it will include bibliographic, chemical, 
# crystal, experimental, refinement or atomic coordinate data resulting 
# from the CCDC's data processing and validation procedures.
#
#######################################################################

data_MURPAR
_symmetry_cell_setting           monoclinic
_symmetry_space_group_name_H-M   'C 2/c'
_symmetry_Int_Tables_number      15
_space_group_name_Hall           '-C 2yn'
loop_
_symmetry_equiv_pos_site_id
_symmetry_equiv_pos_as_xyz
1 x,y,z
2 -x,y,1/2-z
3 1/2+x,1/2+y,z
4 1/2-x,1/2+y,1/2-z
5 -x,-y,-z
6 x,-y,1/2+z
7 1/2-x,1/2-y,-z
8 1/2+x,1/2-y,1/2+z
_cell_length_a                   24.613(2)
_cell_length_b                   7.7880(7)
_cell_length_c                   21.445(2)
_cell_angle_alpha                90
_cell_angle_beta                 116.311(2)
_cell_angle_gamma                90
_cell_volume                     3684.84
loop_
_atom_site_label
_atom_site_type_symbol
_atom_site_fract_x
_atom_site_fract_y
_atom_site_fract_z
Ag1 Ag 0.0000 0.91252(16) -0.2500
Ag2 Ag 0.03548(5) 0.57654(15) 0.11855(6)
Ag3 Ag 0.0000 0.5452(2) 0.2500
N1 N 0.1035(4) 0.5622(10) 0.0707(5)
N2 N -0.0529(4) 0.9428(10) -0.1925(4)
C1 C 0.1573(5) 0.4862(17) 0.1105(6)
H1 H 0.1643 0.4434 0.1539
C2 C 0.2018(5) 0.4703(15) 0.0888(6)
H2 H 0.2381 0.4157 0.1169
C3 C 0.1924(6) 0.5349(15) 0.0259(7)
H3 H 0.2226 0.5293 0.0110
C4 C 0.1373(5) 0.6085(14) -0.0151(6)
H4 H 0.1296 0.6488 -0.0590
C5 C 0.0929(5) 0.6240(14) 0.0074(5)
C6 C 0.0354(5) 0.7046(12) -0.0313(6)
H5 H 0.0103 0.7123 -0.0093
C7 C 0.0134(5) 0.7711(12) -0.0964(5)
H6 H 0.0360 0.7530 -0.1209
C8 C -0.0439(5) 0.8707(13) -0.1321(5)
C9 C -0.0804(5) 0.9057(14) -0.0996(6)
H7 H -0.0713 0.8592 -0.0561
C10 C -0.1309(5) 1.0115(16) -0.1327(6)
H8 H -0.1573 1.0306 -0.1131
C11 C -0.1409(6) 1.0873(16) -0.1949(7)
H9 H -0.1739 1.1597 -0.2181
C12 C -0.0998(5) 1.0514(14) -0.2221(6)
H10 H -0.1053 1.1061 -0.2631
O1 O -0.0541(5) 0.7677(13) 0.1697(5)
O2 O -0.0474(3) 0.7396(11) 0.0701(4)
C13 C -0.0725(5) 0.7825(11) 0.1056(5)
C14 C -0.1323(6) 0.8786(15) 0.0725(6)
O3 O 0.1098(5) 0.5073(15) 0.2275(5)
O4 O 0.0890(4) 0.3831(12) 0.3062(5)
C15 C 0.1235(6) 0.4315(13) 0.2821(6)
C16 C 0.1899(6) 0.3934(19) 0.3223(7)
F1 F -0.1775(4) 0.7883(11) 0.0732(6)
F2 F -0.1333(4) 1.0253(10) 0.1024(5)
F3 F -0.1488(5) 0.9176(15) 0.0045(5)
F4 F 0.2132(6) 0.3055(19) 0.2907(6)
F5 F 0.2066(5) 0.334(2) 0.3833(6)
F6 F 0.2214(6) 0.535(2) 0.3358(10)
Ag2A Ag -0.03548(5) 0.57654(15) -0.61855(6)
Ag3_2 Ag 0.0000 0.5452(2) -0.7500
N1A N -0.1035(4) 0.5622(10) -0.5707(5)
N2A N 0.0529(4) 0.9428(10) -0.3075(4)
C1A C -0.1573(5) 0.4862(17) -0.6105(6)
H1A H -0.1643 0.4434 -0.6539
C2A C -0.2018(5) 0.4703(15) -0.5888(6)
H2A H -0.2381 0.4157 -0.6169
C3A C -0.1924(6) 0.5349(15) -0.5259(7)
H3A H -0.2226 0.5293 -0.5110
C4A C -0.1373(5) 0.6085(14) -0.4849(6)
H4A H -0.1296 0.6488 -0.4410
C5A C -0.0929(5) 0.6240(14) -0.5074(5)
C6A C -0.0354(5) 0.7046(12) -0.4687(6)
H5A H -0.0103 0.7123 -0.4907
C7A C -0.0134(5) 0.7711(12) -0.4036(5)
H6A H -0.0360 0.7530 -0.3791
C8A C 0.0439(5) 0.8707(13) -0.3679(5)
C9A C 0.0804(5) 0.9057(14) -0.4004(6)
H7A H 0.0713 0.8592 -0.4439
C10A C 0.1309(5) 1.0115(16) -0.3673(6)
H8A H 0.1573 1.0306 -0.3869
C11A C 0.1409(6) 1.0873(16) -0.3051(7)
H9A H 0.1739 1.1597 -0.2819
C12A C 0.0998(5) 1.0514(14) -0.2779(6)
H10A H 0.1053 1.1061 -0.2369
O1A O 0.0541(5) 0.7677(13) -0.6697(5)
O1A_2 O 0.0541(5) 0.7677(13) 0.3303(5)
O2A O 0.0474(3) 0.7396(11) -0.5701(4)
C13A C 0.0725(5) 0.7825(11) -0.6056(5)
C14A C 0.1323(6) 0.8786(15) -0.5725(6)
O3A O -0.1098(5) 0.5073(15) -0.7275(5)
O4A O -0.0890(4) 0.3831(12) -0.8062(5)
O4A_2 O -0.0890(4) 0.3831(12) 0.1938(5)
C15A C -0.1235(6) 0.4315(13) -0.7821(6)
C16A C -0.1899(6) 0.3934(19) -0.8223(7)
F1A F 0.1775(4) 0.7883(11) -0.5732(6)
F2A F 0.1333(4) 1.0253(10) -0.6024(5)
F3A F 0.1488(5) 0.9176(15) -0.5045(5)
F4A F -0.2132(6) 0.3055(19) -0.7907(6)
F5A F -0.2066(5) 0.334(2) -0.8833(6)
F6A F -0.2214(6) 0.535(2) -0.8358(10)
loop_
_geom_bond_atom_site_label_1
_geom_bond_atom_site_label_2
_geom_bond_site_symmetry_1
_geom_bond_site_symmetry_2
Ag1 N2 1_555 1_555
Ag2 N1 1_555 1_555
Ag3 O1 1_555 1_555
N1 C1 1_555 1_555
N2 C8 1_555 1_555
C1 H1 1_555 1_555
C2 C1 1_555 1_555
H2 C2 1_555 1_555
C3 C2 1_555 1_555
H3 C3 1_555 1_555
C4 C3 1_555 1_555
H4 C4 1_555 1_555
C5 N1 1_555 1_555
C6 C5 1_555 1_555
H5 C6 1_555 1_555
C7 C6 1_555 1_555
H6 C7 1_555 1_555
C8 C7 1_555 1_555
C9 C8 1_555 1_555
H7 C9 1_555 1_555
C10 C9 1_555 1_555
H8 C10 1_555 1_555
C11 C10 1_555 1_555
H9 C11 1_555 1_555
C12 N2 1_555 1_555
H10 C12 1_555 1_555
O1 C13 1_555 1_555
O2 Ag2 1_555 1_555
C13 O2 1_555 1_555
C14 C13 1_555 1_555
O3 Ag2 1_555 1_555
O4 Ag3 1_555 1_555
C15 O3 1_555 1_555
C16 C15 1_555 1_555
F1 C14 1_555 1_555
F2 C14 1_555 1_555
F3 C14 1_555 1_555
F4 C16 1_555 1_555
F5 C16 1_555 1_555
F6 C16 1_555 1_555
Ag2A N1A 1_555 1_555
Ag3_2 O1A 1_555 1_555
N1A C1A 1_555 1_555
N2A Ag1 1_555 1_555
C1A H1A 1_555 1_555
C2A C1A 1_555 1_555
H2A C2A 1_555 1_555
C3A C2A 1_555 1_555
H3A C3A 1_555 1_555
C4A C3A 1_555 1_555
H4A C4A 1_555 1_555
C5A N1A 1_555 1_555
C6A C5A 1_555 1_555
H5A C6A 1_555 1_555
C7A C6A 1_555 1_555
H6A C7A 1_555 1_555
C8A N2A 1_555 1_555
C9A C8A 1_555 1_555
H7A C9A 1_555 1_555
C10A C9A 1_555 1_555
H8A C10A 1_555 1_555
C11A C10A 1_555 1_555
H9A C11A 1_555 1_555
C12A N2A 1_555 1_555
H10A C12A 1_555 1_555
O1A C13A 1_555 1_555
O1A_2 Ag3 1_555 1_555
O2A Ag2A 1_555 1_555
C13A O2A 1_555 1_555
C14A C13A 1_555 1_555
O3A Ag2A 1_555 1_555
O4A Ag3_2 1_555 1_555
O4A_2 Ag3 1_555 1_555
C15A O3A 1_555 1_555
C16A C15A 1_555 1_555
F1A C14A 1_555 1_555
F2A C14A 1_555 1_555
F3A C14A 1_555 1_555
F4A C16A 1_555 1_555
F5A C16A 1_555 1_555
F6A C16A 1_555 1_555
C4 C5 1_555 1_555
C11 C12 1_555 1_555
O4 C15 1_555 1_555
C4A C5A 1_555 1_555
C7A C8A 1_555 1_555
C11A C12A 1_555 1_555
O4A C15A 1_555 1_555

#END
