
#######################################################################
#
#                 Cambridge Crystallographic Data Centre
#                                CCDC 
#
#######################################################################
#
# If this CIF has been generated from an entry in the Cambridge 
# Structural Database, then it will include bibliographic, chemical, 
# crystal, experimental, refinement or atomic coordinate data resulting 
# from the CCDC's data processing and validation procedures.
#
#######################################################################

data_MURPEV
_symmetry_cell_setting           monoclinic
_symmetry_space_group_name_H-M   'P 21/c'
_symmetry_Int_Tables_number      14
_space_group_name_Hall           '-P 2ybc'
loop_
_symmetry_equiv_pos_site_id
_symmetry_equiv_pos_as_xyz
1 x,y,z
2 -x,1/2+y,1/2-z
3 -x,-y,-z
4 x,1/2-y,1/2+z
_cell_length_a                   9.5496(14)
_cell_length_b                   13.1175(18)
_cell_length_c                   23.063(3)
_cell_angle_alpha                90
_cell_angle_beta                 92.217(3)
_cell_angle_gamma                90
_cell_volume                     2886.87
loop_
_atom_site_label
_atom_site_type_symbol
_atom_site_fract_x
_atom_site_fract_y
_atom_site_fract_z
Ag2 Ag 0.7943(2) 0.22069(12) 0.54484(7)
Ag3 Ag 0.06823(15) 0.34501(11) 0.45234(6)
Ag4 Ag -0.25033(15) 0.47568(10) 0.50026(6)
Ag5 Ag 0.53680(17) 0.12841(12) 0.49754(8)
O1 O -0.0503(13) 0.4988(10) 0.4265(6)
O2 O 0.1391(12) 0.5974(9) 0.4256(5)
C1 C 0.0244(19) 0.5696(12) 0.4073(7)
C2 C -0.040(2) 0.6261(15) 0.3551(8)
F1 F -0.071(3) 0.5695(16) 0.3145(8)
F2 F -0.1628(17) 0.6687(14) 0.3650(8)
F3 F 0.0336(18) 0.7050(15) 0.3412(8)
O3 O 0.0733(14) 0.2261(10) 0.5210(6)
O4 O 0.3036(16) 0.2002(11) 0.5097(7)
C3 C 0.1875(17) 0.1791(13) 0.5267(7)
C4 C 0.181(3) 0.0852(17) 0.5676(11)
F4 F 0.162(3) 0.0049(15) 0.5394(10)
F5 F 0.292(2) 0.0658(18) 0.5938(11)
F6 F 0.085(2) 0.0880(13) 0.6030(9)
O5 O 0.2399(16) 0.8917(10) 0.3880(6)
O6 O 0.3993(15) 0.9889(10) 0.4345(7)
C5 C 0.3099(19) 0.9699(13) 0.3977(8)
C6 C 0.274(3) 1.0556(17) 0.3544(10)
F7 F 0.364(3) 1.0402(19) 0.3087(10)
F8 F 0.170(2) 1.0474(16) 0.3236(10)
F9 F 0.324(2) 1.1427(10) 0.3691(8)
O7 O 0.1265(15) 0.3567(12) 0.3566(6)
O8 O 0.3546(15) 0.3821(11) 0.3626(6)
C7 C 0.242(2) 0.3719(13) 0.3361(8)
C8 C 0.242(3) 0.3791(19) 0.2719(9)
F10 F 0.227(3) 0.2956(19) 0.2473(8)
F11 F 0.143(3) 0.430(2) 0.2484(9)
F12 F 0.351(2) 0.416(2) 0.2503(8)
O9 O 0.3716(15) 0.4697(12) 0.5746(6)
O10 O 0.5230(14) 0.3583(11) 0.5380(6)
C9 C 0.4614(17) 0.4004(13) 0.5787(7)
C10 C 0.5037(18) 0.3665(16) 0.6391(8)
F13 F 0.4605(19) 0.2724(13) 0.6468(7)
F14 F 0.6397(13) 0.3675(14) 0.6499(6)
F15 F 0.4485(15) 0.4184(12) 0.6802(5)
O11 O -0.1981(15) 0.2900(11) 0.4563(5)
O12 O -0.3962(14) 0.2243(10) 0.4219(6)
N1 N -0.2581(15) 0.2614(12) 0.3081(6)
C11 C -0.2895(16) 0.2742(12) 0.4171(7)
C12 C -0.268(2) 0.3295(14) 0.3606(7)
H1 H -0.1830 0.3695 0.3647
H2 H -0.3454 0.3765 0.3538
C13 C -0.382(3) 0.195(2) 0.2976(11)
H3 H -0.3676 0.1520 0.2648
H4 H -0.4637 0.2367 0.2900
H5 H -0.3961 0.1538 0.3313
C14 C -0.136(3) 0.188(2) 0.3210(14)
H6 H -0.1263 0.1429 0.2888
H7 H -0.1536 0.1498 0.3553
H8 H -0.0510 0.2269 0.3271
C15 C -0.221(3) 0.324(2) 0.2579(11)
H9 H -0.2116 0.2804 0.2247
H10 H -0.1334 0.3578 0.2664
H11 H -0.2928 0.3732 0.2499
Ag3B Ag -0.06823(15) 0.65499(11) 0.54766(6)
Ag1B Ag 0.38707(16) 0.34091(12) 0.45318(6)
Ag4B Ag 0.25033(15) 0.52432(10) 0.49974(6)
Ag2B Ag 0.2057(2) 0.77931(12) 0.45516(7)
Ag2_2 Ag -0.2057(2) 0.22069(12) 0.54484(7)
Ag5B Ag 0.46320(17) 0.87159(12) 0.50246(8)
Ag5_2 Ag 0.53680(17) 1.12841(12) 0.49754(8)
Ag5_3 Ag -0.46320(17) 0.12841(12) 0.49754(8)
O2B O -0.1391(12) 0.4026(9) 0.5744(5)
O6B O 0.6007(15) 0.0111(10) 0.5655(7)
O6_2 O 0.3993(15) -0.0111(10) 0.4345(7)
O9B O -0.3716(15) 0.5303(12) 0.4254(6)
O11B O 0.1981(15) 0.7100(11) 0.5437(5)
O12_2 O 0.6038(14) 0.2243(10) 0.4219(6)
Ag1 Ag -0.38707(16) 0.65909(12) 0.54682(6)
loop_
_geom_bond_atom_site_label_1
_geom_bond_atom_site_label_2
_geom_bond_site_symmetry_1
_geom_bond_site_symmetry_2
Ag3 O1 1_555 1_555
Ag4 O1 1_555 1_555
Ag5 O4 1_555 1_555
O1 C1 1_555 1_555
O2 C1 1_555 1_555
C1 C2 1_555 1_555
C2 F1 1_555 1_555
F2 C2 1_555 1_555
F3 C2 1_555 1_555
O3 Ag3 1_555 1_555
O4 C3 1_555 1_555
C3 O3 1_555 1_555
C4 C3 1_555 1_555
F4 C4 1_555 1_555
F5 C4 1_555 1_555
F6 C4 1_555 1_555
O5 C5 1_555 1_555
O6 C5 1_555 1_555
C5 C6 1_555 1_555
C6 F7 1_555 1_555
F8 C6 1_555 1_555
F9 C6 1_555 1_555
O7 Ag3 1_555 1_555
O8 C7 1_555 1_555
C7 O7 1_555 1_555
C8 C7 1_555 1_555
F10 C8 1_555 1_555
F11 C8 1_555 1_555
F12 C8 1_555 1_555
O9 C9 1_555 1_555
O10 C9 1_555 1_555
C9 C10 1_555 1_555
C10 F13 1_555 1_555
F14 C10 1_555 1_555
F15 C10 1_555 1_555
O11 Ag3 1_555 1_555
O12 C11 1_555 1_555
N1 C12 1_555 1_555
C11 O11 1_555 1_555
C12 C11 1_555 1_555
H1 C12 1_555 1_555
H2 C12 1_555 1_555
C13 N1 1_555 1_555
H3 C13 1_555 1_555
H4 C13 1_555 1_555
H5 C13 1_555 1_555
C14 N1 1_555 1_555
H6 C14 1_555 1_555
H7 C14 1_555 1_555
H8 C14 1_555 1_555
C15 N1 1_555 1_555
H9 C15 1_555 1_555
H10 C15 1_555 1_555
H11 C15 1_555 1_555
Ag3B O11B 1_555 1_555
Ag1B O4 1_555 1_555
Ag4B O2 1_555 1_555
Ag2B O2 1_555 1_555
Ag2_2 O11 1_555 1_555
Ag5B O6 1_555 1_555
Ag5_2 O6 1_555 1_555
Ag5_3 O12 1_555 1_555
O2B Ag4 1_555 1_555
O6B Ag5 1_555 1_555
O6_2 Ag5 1_555 1_555
O9B Ag4 1_555 1_555
O11B Ag2B 1_555 1_555
O12_2 Ag5 1_555 1_555
O5 Ag2B 1_555 1_555
O8 Ag1B 1_555 1_555
O9 Ag4B 1_555 1_555
O10 Ag1B 1_555 1_555
Ag2_2 O2B 1_555 1_555

#END
