
#######################################################################
#
#                 Cambridge Crystallographic Data Centre
#                                CCDC 
#
#######################################################################
#
# If this CIF has been generated from an entry in the Cambridge 
# Structural Database, then it will include bibliographic, chemical, 
# crystal, experimental, refinement or atomic coordinate data resulting 
# from the CCDC's data processing and validation procedures.
#
#######################################################################

data_MURRAT
_symmetry_cell_setting           orthorhombic
_symmetry_space_group_name_H-M   'P n a 21'
_symmetry_Int_Tables_number      33
_space_group_name_Hall           'P 2c -2n'
loop_
_symmetry_equiv_pos_site_id
_symmetry_equiv_pos_as_xyz
1 x,y,z
2 -x,-y,1/2+z
3 1/2-x,1/2+y,1/2+z
4 1/2+x,1/2-y,z
_cell_length_a                   21.3820(2)
_cell_length_b                   9.90600(10)
_cell_length_c                   6.08400(10)
_cell_angle_alpha                90
_cell_angle_beta                 90
_cell_angle_gamma                90
_cell_volume                     1288.65
loop_
_atom_site_label
_atom_site_type_symbol
_atom_site_fract_x
_atom_site_fract_y
_atom_site_fract_z
Cu1 Cu 0.095924(8) 0.942154(18) 0.04173(7)
O1 O 0.03016(7) 0.94832(14) -0.1797(3)
O2 O -0.07030(6) 0.89236(15) -0.2232(3)
O3 O -0.13054(11) 0.4727(2) 0.2518(4)
H1 H -0.153(2) 0.412(5) 0.322(11)
O4 O -0.10382(14) 0.5061(3) 0.6009(5)
N1 N 0.03919(7) 0.80670(16) 0.1808(3)
C1 C -0.01916(8) 0.88375(17) -0.1286(3)
C2 C -0.09798(10) 0.5300(3) 0.4101(6)
C3 C -0.01392(7) 0.79167(16) 0.0674(3)
C4 C -0.05966(9) 0.7000(2) 0.1274(4)
H2 H -0.0950(12) 0.688(3) 0.032(9)
C5 C -0.05163(10) 0.63069(19) 0.3244(4)
C6 C 0.00147(11) 0.6533(2) 0.4483(4)
H3 H 0.0052(16) 0.604(3) 0.595(7)
C7 C 0.04702(10) 0.7399(2) 0.3686(4)
H4 H 0.0867(16) 0.753(3) 0.442(7)
O5 O 0.16959(6) 0.87045(14) 0.2108(3)
O6 O 0.17876(8) 0.75100(15) -0.0963(3)
N2 N 0.34708(7) 0.56663(15) 0.3868(3)
C8 C 0.19541(8) 0.78063(17) 0.0939(3)
C9 C 0.32878(10) 0.5379(2) 0.1826(4)
H5 H 0.3459(16) 0.465(3) 0.139(6)
C10 C 0.28011(9) 0.6057(2) 0.0817(3)
H6 H 0.2687(14) 0.604(3) -0.075(7)
C11 C 0.24961(8) 0.70749(18) 0.1963(3)
C12 C 0.26994(10) 0.7390(2) 0.4063(4)
H7 H 0.2538(13) 0.798(3) 0.509(6)
C13 C 0.31873(9) 0.6664(2) 0.4954(3)
H8 H 0.3302(16) 0.675(3) 0.648(7)
Cu1A Cu -0.095924(8) 1.057846(18) -0.45827(7)
Cu1B Cu 0.404076(8) 0.442154(18) 0.54173(7)
O2A O 0.07030(6) 1.10764(15) 0.2768(3)
N2B N 0.15292(7) 1.06663(15) -0.1132(3)
loop_
_geom_bond_atom_site_label_1
_geom_bond_atom_site_label_2
_geom_bond_site_symmetry_1
_geom_bond_site_symmetry_2
Cu1 O1 1_555 1_555
O1 C1 1_555 1_555
O2 C1 1_555 1_555
O3 H1 1_555 1_555
O4 C2 1_555 1_555
N1 Cu1 1_555 1_555
C1 C3 1_555 1_555
C2 O3 1_555 1_555
C3 N1 1_555 1_555
C4 C3 1_555 1_555
H2 C4 1_555 1_555
C5 C2 1_555 1_555
C6 C5 1_555 1_555
H3 C6 1_555 1_555
C7 N1 1_555 1_555
H4 C7 1_555 1_555
O5 Cu1 1_555 1_555
O6 C8 1_555 1_555
N2 C9 1_555 1_555
C8 O5 1_555 1_555
C9 H5 1_555 1_555
C10 C9 1_555 1_555
H6 C10 1_555 1_555
C11 C8 1_555 1_555
C12 C11 1_555 1_555
H7 C12 1_555 1_555
C13 N2 1_555 1_555
H8 C13 1_555 1_555
Cu1A O2 1_555 1_555
Cu1B N2 1_555 1_555
O2A Cu1 1_555 1_555
N2B Cu1 1_555 1_555
C4 C5 1_555 1_555
C6 C7 1_555 1_555
C10 C11 1_555 1_555
C12 C13 1_555 1_555

#END
