
#######################################################################
#
#                 Cambridge Crystallographic Data Centre
#                                CCDC 
#
#######################################################################
#
# If this CIF has been generated from an entry in the Cambridge 
# Structural Database, then it will include bibliographic, chemical, 
# crystal, experimental, refinement or atomic coordinate data resulting 
# from the CCDC's data processing and validation procedures.
#
#######################################################################

data_MURRIB
_symmetry_cell_setting           monoclinic
_symmetry_space_group_name_H-M   'P 21/n'
_symmetry_Int_Tables_number      14
_space_group_name_Hall           '-P 2yn'
loop_
_symmetry_equiv_pos_site_id
_symmetry_equiv_pos_as_xyz
1 x,y,z
2 1/2-x,1/2+y,1/2-z
3 -x,-y,-z
4 1/2+x,1/2-y,1/2+z
_cell_length_a                   5.0631(19)
_cell_length_b                   13.362(5)
_cell_length_c                   11.649(4)
_cell_angle_alpha                90
_cell_angle_beta                 99.860(6)
_cell_angle_gamma                90
_cell_volume                     776.451
loop_
_atom_site_label
_atom_site_type_symbol
_atom_site_fract_x
_atom_site_fract_y
_atom_site_fract_z
K1 K 0.07180(13) -0.12960(4) 0.63388(5)
O1 O -0.4090(4) -0.03928(14) 0.67700(17)
O2 O -0.8249(4) 0.19570(14) 0.77234(15)
O3 O -0.2375(4) 0.06655(15) 0.56839(16)
O4 O -0.7734(4) 0.03417(14) 0.78715(16)
N1 N -0.7249(5) 0.11515(15) 0.74309(18)
N2 N -0.4010(4) 0.04639(16) 0.63578(18)
N3 N -0.3450(5) 0.28862(16) 0.64812(19)
H1 H -0.2344 0.2840 0.7127
N4 N -0.7220(5) 0.25242(17) 0.51994(19)
C1 C -0.3595(6) 0.3691(2) 0.5607(2)
H2 H -0.2307 0.3590 0.5090
H3 H -0.3310 0.4344 0.5972
C2 C -0.6455(6) 0.35702(19) 0.4970(2)
H4 H -0.7636 0.4042 0.5263
H5 H -0.6552 0.3681 0.4141
C3 C -0.5601(6) 0.12381(18) 0.6599(2)
C4 C -0.5456(6) 0.22234(19) 0.6047(2)
K1_2 K -0.92820(13) -0.12960(4) 0.63388(5)
K1A K -0.57180(13) 0.37040(4) 0.86612(5)
K1B K -0.07180(13) 0.12960(4) 0.36612(5)
K1B_2 K -1.07180(13) 0.12960(4) 0.36612(5)
O1_2 O 0.5910(4) -0.03928(14) 0.67700(17)
O2A O 0.3249(4) -0.30430(14) 0.72766(15)
O3B O 0.2375(4) -0.06655(15) 0.43161(16)
O4_2 O 0.2266(4) 0.03417(14) 0.78715(16)
N3A N -0.1550(5) -0.21138(16) 0.85188(19)
H1A H -0.2656 -0.2160 0.7873
N4B N -0.2780(5) -0.25242(17) 0.48006(19)
loop_
_geom_bond_atom_site_label_1
_geom_bond_atom_site_label_2
_geom_bond_site_symmetry_1
_geom_bond_site_symmetry_2
K1 O1 1_555 1_555
O1 N2 1_555 1_555
O2 N1 1_555 1_555
O3 K1 1_555 1_555
O4 N1 1_555 1_555
N1 C3 1_555 1_555
N2 O3 1_555 1_555
N3 H1 1_555 1_555
N4 C2 1_555 1_555
C1 N3 1_555 1_555
H2 C1 1_555 1_555
H3 C1 1_555 1_555
C2 C1 1_555 1_555
H4 C2 1_555 1_555
H5 C2 1_555 1_555
C3 N2 1_555 1_555
C4 N3 1_555 1_555
K1_2 O1 1_555 1_555
K1A O2 1_555 1_555
K1B O3 1_555 1_555
K1B_2 N4 1_555 1_555
O1_2 K1 1_555 1_555
O2A K1 1_555 1_555
O3B K1 1_555 1_555
O4_2 K1 1_555 1_555
N3A K1 1_555 1_555
H1A N3A 1_555 1_555
N4B K1 1_555 1_555
O4 K1_2 1_555 1_555
N3 K1A 1_555 1_555
N4 C4 1_555 1_555
C3 C4 1_555 1_555
K1B O3B 1_555 1_555

#END
