
#######################################################################
#
#                 Cambridge Crystallographic Data Centre
#                                CCDC 
#
#######################################################################
#
# If this CIF has been generated from an entry in the Cambridge 
# Structural Database, then it will include bibliographic, chemical, 
# crystal, experimental, refinement or atomic coordinate data resulting 
# from the CCDC's data processing and validation procedures.
#
#######################################################################

data_MURTEZ
_symmetry_cell_setting           triclinic
_symmetry_space_group_name_H-M   'P -1'
_symmetry_Int_Tables_number      2
_space_group_name_Hall           '-P 1'
loop_
_symmetry_equiv_pos_site_id
_symmetry_equiv_pos_as_xyz
1 x,y,z
2 -x,-y,-z
_cell_length_a                   9.2199(3)
_cell_length_b                   10.4012(4)
_cell_length_c                   10.7677(3)
_cell_angle_alpha                74.379(2)
_cell_angle_beta                 76.648(3)
_cell_angle_gamma                68.213(2)
_cell_volume                     913.467
loop_
_atom_site_label
_atom_site_type_symbol
_atom_site_fract_x
_atom_site_fract_y
_atom_site_fract_z
Co1 Co 1.0000 0.0000 1.0000
O1 O 0.8113(2) -0.04938(18) 0.96540(18)
O2 O 0.3854(2) 0.2436(2) 0.15267(19)
N1 N 0.7545(2) 0.0019(2) 0.8516(2)
N2 N 0.4430(2) 0.2115(2) 0.2627(2)
C1 C 0.6057(3) 0.0931(3) 0.8476(3)
H1 H 0.5453 0.1255 0.9231
C2 C 0.5423(3) 0.1386(3) 0.7336(3)
H2 H 0.4378 0.2005 0.7322
C3 C 0.6311(3) 0.0941(2) 0.6194(3)
C4 C 0.7859(3) 0.0020(3) 0.6280(3)
H3 H 0.8508 -0.0293 0.5535
C5 C 0.8435(3) -0.0426(3) 0.7441(3)
H4 H 0.9471 -0.1055 0.7485
C6 C 0.3491(3) 0.2517(3) 0.3722(3)
H5 H 0.2419 0.3049 0.3689
C7 C 0.4074(3) 0.2164(3) 0.4874(3)
H6 H 0.3397 0.2457 0.5618
C8 C 0.5659(3) 0.1376(2) 0.4955(3)
C9 C 0.6590(3) 0.0974(3) 0.3812(3)
H7 H 0.7666 0.0444 0.3823
C10 C 0.5975(3) 0.1334(3) 0.2673(3)
H8 H 0.6626 0.1038 0.1921
S1 S 0.98794(7) -0.22421(6) 1.28959(6)
O3 O 0.9446(2) -0.08481(18) 1.19800(17)
O4 O 1.1513(2) -0.31040(18) 1.24176(18)
O5 O 0.8792(2) -0.2996(2) 1.29031(19)
O6 O 0.9773(2) -0.20249(18) 1.41982(18)
O7 O 0.8346(2) 0.19799(19) 1.0180(2)
H9 H 0.820(3) 0.239(3) 0.942(3)
H10 H 0.856(4) 0.247(3) 1.048(3)
O1A O 1.1887(2) 0.04938(18) 1.03460(18)
O2A O 1.6146(2) -0.2436(2) 1.84733(19)
N1A N 1.2455(2) -0.0019(2) 1.1484(2)
N2A N 1.5570(2) -0.2115(2) 1.7373(2)
C1A C 1.3943(3) -0.0931(3) 1.1524(3)
H1A H 1.4547 -0.1255 1.0769
C2A C 1.4577(3) -0.1386(3) 1.2664(3)
H2A H 1.5622 -0.2005 1.2678
C3A C 1.3689(3) -0.0941(2) 1.3806(3)
C4A C 1.2141(3) -0.0020(3) 1.3720(3)
H3A H 1.1492 0.0293 1.4465
C5A C 1.1565(3) 0.0426(3) 1.2559(3)
H4A H 1.0529 0.1055 1.2515
C6A C 1.6509(3) -0.2517(3) 1.6278(3)
H5A H 1.7581 -0.3049 1.6311
C7A C 1.5926(3) -0.2164(3) 1.5126(3)
H6A H 1.6603 -0.2457 1.4382
C8A C 1.4341(3) -0.1376(2) 1.5045(3)
C9A C 1.3410(3) -0.0974(3) 1.6188(3)
H7A H 1.2334 -0.0444 1.6177
C10A C 1.4025(3) -0.1334(3) 1.7327(3)
H8A H 1.3374 -0.1038 1.8079
S1A S 1.01206(7) 0.22421(6) 0.71041(6)
O3A O 1.0554(2) 0.08481(18) 0.80200(17)
O4A O 0.8487(2) 0.31040(18) 0.75824(18)
O5A O 1.1208(2) 0.2996(2) 0.70969(19)
O6A O 1.0227(2) 0.20249(18) 0.58018(18)
O7A O 1.1654(2) -0.19799(19) 0.9820(2)
H9A H 1.180(3) -0.239(3) 1.058(3)
H10A H 1.144(4) -0.247(3) 0.952(3)
Co2 Co 0.0000 0.5000 1.0000
O8 O 0.09255(19) 0.64359(17) 0.85793(17)
N3 N 0.2051(2) 0.5981(2) 0.7607(2)
C11 C 0.1659(3) 0.6245(3) 0.6417(3)
H11 H 0.0597 0.6693 0.6290
C12 C 0.2795(3) 0.5867(3) 0.5388(3)
H12 H 0.2505 0.6066 0.4557
C13 C 0.4380(3) 0.5189(2) 0.5555(2)
C14 C 0.4729(3) 0.4908(3) 0.6812(3)
H13 H 0.5778 0.4437 0.6970
C15 C 0.3564(3) 0.5307(3) 0.7826(3)
H14 H 0.3818 0.5111 0.8670
O9 O -0.1507(2) 0.5190(2) 0.8778(2)
H15 H -0.236(4) 0.596(4) 0.865(3)
H16 H -0.149(4) 0.469(4) 0.826(4)
O10 O 0.1692(2) 0.32616(19) 0.9291(2)
H17 H 0.153(3) 0.317(3) 0.857(3)
H18 H 0.176(4) 0.255(3) 0.976(3)
Co2_2 Co 1.0000 0.5000 0.0000
O8A O 0.90745(19) 0.35641(17) 0.14207(17)
O8A_2 O -0.09255(19) 0.35641(17) 1.14207(17)
N3A N 0.7949(2) 0.4019(2) 0.2393(2)
C11A C 0.8341(3) 0.3755(3) 0.3583(3)
H11A H 0.9403 0.3307 0.3710
C12A C 0.7205(3) 0.4133(3) 0.4612(3)
H12A H 0.7495 0.3934 0.5443
C13A C 0.5620(3) 0.4811(2) 0.4445(2)
C14A C 0.5271(3) 0.5092(3) 0.3188(3)
H13A H 0.4222 0.5563 0.3030
C15A C 0.6436(3) 0.4693(3) 0.2174(3)
H14A H 0.6182 0.4889 0.1330
O9A O 0.1507(2) 0.4810(2) 1.1222(2)
H15A H 0.236(4) 0.404(4) 1.135(3)
H16A H 0.149(4) 0.531(4) 1.174(4)
O10A O -0.1692(2) 0.67384(19) 1.0709(2)
H17A H -0.153(3) 0.683(3) 1.143(3)
H18A H -0.176(4) 0.745(3) 1.024(3)
loop_
_geom_bond_atom_site_label_1
_geom_bond_atom_site_label_2
_geom_bond_site_symmetry_1
_geom_bond_site_symmetry_2
Co1 O1 1_555 1_555
O1 N1 1_555 1_555
O2 N2 1_555 1_555
N1 C1 1_555 1_555
N2 C6 1_555 1_555
C1 H1 1_555 1_555
C2 C1 1_555 1_555
H2 C2 1_555 1_555
C3 C2 1_555 1_555
C4 C3 1_555 1_555
H3 C4 1_555 1_555
C5 N1 1_555 1_555
H4 C5 1_555 1_555
C6 H5 1_555 1_555
C7 C6 1_555 1_555
H6 C7 1_555 1_555
C8 C3 1_555 1_555
C9 C8 1_555 1_555
H7 C9 1_555 1_555
C10 N2 1_555 1_555
H8 C10 1_555 1_555
S1 O3 1_555 1_555
O3 Co1 1_555 1_555
O4 S1 1_555 1_555
O5 S1 1_555 1_555
O6 S1 1_555 1_555
O7 Co1 1_555 1_555
H9 O7 1_555 1_555
H10 O7 1_555 1_555
Co2 O8 1_555 1_555
O8 N3 1_555 1_555
N3 C11 1_555 1_555
C11 H11 1_555 1_555
C12 C11 1_555 1_555
H12 C12 1_555 1_555
C13 C12 1_555 1_555
C14 C13 1_555 1_555
H13 C14 1_555 1_555
C15 N3 1_555 1_555
H14 C15 1_555 1_555
O9 Co2 1_555 1_555
H15 O9 1_555 1_555
H16 O9 1_555 1_555
O10 Co2 1_555 1_555
H17 O10 1_555 1_555
H18 O10 1_555 1_555
O1A Co1 1_555 1_555
O2A N2A 1_555 1_555
N1A O1A 1_555 1_555
N2A C6A 1_555 1_555
C1A N1A 1_555 1_555
H1A C1A 1_555 1_555
C2A C1A 1_555 1_555
H2A C2A 1_555 1_555
C3A C2A 1_555 1_555
C4A C3A 1_555 1_555
H3A C4A 1_555 1_555
C5A N1A 1_555 1_555
H4A C5A 1_555 1_555
C6A H5A 1_555 1_555
C7A C6A 1_555 1_555
H6A C7A 1_555 1_555
C8A C3A 1_555 1_555
C9A C8A 1_555 1_555
H7A C9A 1_555 1_555
C10A N2A 1_555 1_555
H8A C10A 1_555 1_555
S1A O3A 1_555 1_555
O3A Co1 1_555 1_555
O4A S1A 1_555 1_555
O5A S1A 1_555 1_555
O6A S1A 1_555 1_555
O7A Co1 1_555 1_555
H9A O7A 1_555 1_555
H10A O7A 1_555 1_555
Co2_2 O8A 1_555 1_555
O8A N3A 1_555 1_555
O8A_2 Co2 1_555 1_555
N3A C11A 1_555 1_555
C11A H11A 1_555 1_555
C12A C11A 1_555 1_555
H12A C12A 1_555 1_555
C13A C13 1_555 1_555
C14A C13A 1_555 1_555
H13A C14A 1_555 1_555
C15A N3A 1_555 1_555
H14A C15A 1_555 1_555
O9A Co2 1_555 1_555
H15A O9A 1_555 1_555
H16A O9A 1_555 1_555
O10A Co2 1_555 1_555
H17A O10A 1_555 1_555
H18A O10A 1_555 1_555
C4 C5 1_555 1_555
C7 C8 1_555 1_555
C9 C10 1_555 1_555
C14 C15 1_555 1_555
C4A C5A 1_555 1_555
C7A C8A 1_555 1_555
C9A C10A 1_555 1_555
C12A C13A 1_555 1_555
C14A C15A 1_555 1_555

#END
