
#######################################################################
#
#                 Cambridge Crystallographic Data Centre
#                                CCDC 
#
#######################################################################
#
# If this CIF has been generated from an entry in the Cambridge 
# Structural Database, then it will include bibliographic, chemical, 
# crystal, experimental, refinement or atomic coordinate data resulting 
# from the CCDC's data processing and validation procedures.
#
#######################################################################

data_MURVUR
_symmetry_cell_setting           triclinic
_symmetry_space_group_name_H-M   'P -1'
_symmetry_Int_Tables_number      2
_space_group_name_Hall           '-P 1'
loop_
_symmetry_equiv_pos_site_id
_symmetry_equiv_pos_as_xyz
1 x,y,z
2 -x,-y,-z
_cell_length_a                   8.6317(15)
_cell_length_b                   11.2454(19)
_cell_length_c                   12.040(2)
_cell_angle_alpha                73.835(2)
_cell_angle_beta                 76.750(3)
_cell_angle_gamma                87.904(3)
_cell_volume                     1092.14
loop_
_atom_site_label
_atom_site_type_symbol
_atom_site_fract_x
_atom_site_fract_y
_atom_site_fract_z
Co1 Co -0.5000 0.0000 0.0000
O1 O -0.53100(18) 0.00522(15) -0.16528(13)
H1 H -0.565(3) 0.0698(19) -0.208(2)
H2 H -0.462(3) -0.023(2) -0.209(2)
O2 O -0.53683(18) -0.19925(13) 0.05748(14)
H3 H -0.503(3) -0.239(2) 0.1169(17)
H4 H -0.515(3) -0.235(2) 0.0058(19)
N1 N -1.04078(17) 0.36963(13) 0.02186(14)
H5 H -1.069(2) 0.347(2) 0.1037(14)
N2 N -0.75312(18) 0.02525(14) 0.06081(13)
C1 C -0.8305(2) 0.12053(16) 0.00426(15)
H6 H -0.7754 0.1726 -0.0674
C2 C -0.9878(2) 0.14539(15) 0.04695(16)
C3 C -1.0716(2) 0.06380(17) 0.15136(17)
H7 H -1.1781 0.0764 0.1819
C4 C -0.9948(2) -0.03591(18) 0.20892(17)
H8 H -1.0490 -0.0922 0.2782
C5 C -0.8363(2) -0.05080(17) 0.16212(17)
H9 H -0.7845 -0.1169 0.2028
C6 C -1.0649(2) 0.25721(16) -0.01767(17)
H10 H -1.1780 0.2397 -0.0035
H11 H -1.0202 0.2744 -0.1023
C7 C -0.8731(2) 0.41805(17) -0.02087(18)
H12 H -0.8447 0.4410 -0.1070
H13 H -0.8027 0.3536 0.0081
C8 C -1.1485(2) 0.47022(16) -0.02169(18)
H14 H -1.2582 0.4401 0.0073
H15 H -1.1248 0.4939 -0.1078
Co1_2 Co -1.5000 1.0000 0.0000
O1A O -0.46900(18) -0.00522(15) 0.16528(13)
H1A H -0.435(3) -0.0698(19) 0.208(2)
H2A H -0.538(3) 0.023(2) 0.209(2)
O2A O -0.46317(18) 0.19925(13) -0.05748(14)
H3A H -0.497(3) 0.239(2) -0.1169(17)
H4A H -0.485(3) 0.235(2) -0.0058(19)
N1A N -0.95922(17) 0.63037(13) -0.02186(14)
H5A H -0.931(2) 0.653(2) -0.1037(14)
N2A N -1.24688(18) 0.97475(14) -0.06081(13)
N2A_2 N -0.24688(18) -0.02525(14) -0.06081(13)
C1A C -1.1695(2) 0.87947(16) -0.00426(15)
H6A H -1.2246 0.8274 0.0674
C2A C -1.0122(2) 0.85461(15) -0.04695(16)
C3A C -0.9284(2) 0.93620(17) -0.15136(17)
H7A H -0.8219 0.9236 -0.1819
C4A C -1.0052(2) 1.03591(18) -0.20892(17)
H8A H -0.9510 1.0922 -0.2782
C5A C -1.1637(2) 1.05080(17) -0.16212(17)
H9A H -1.2155 1.1169 -0.2028
C6A C -0.9351(2) 0.74279(16) 0.01767(17)
H10A H -0.8220 0.7603 0.0035
H11A H -0.9798 0.7256 0.1023
C7A C -1.1269(2) 0.58195(17) 0.02087(18)
H12A H -1.1553 0.5590 0.1070
H13A H -1.1973 0.6464 -0.0081
C8A C -0.8515(2) 0.52978(16) 0.02169(18)
H14A H -0.7418 0.5599 -0.0073
H15A H -0.8752 0.5061 0.1078
O3 O -1.1320(2) 0.31524(17) 0.25178(14)
O4 O -0.8877(2) 0.2549(2) 0.25388(17)
O5 O -0.6370(2) 0.19329(15) 0.68630(16)
O6 O -0.5921(2) 0.34475(15) 0.75900(14)
C9 C -0.8653(2) 0.36709(17) 0.58365(16)
C10 C -0.8979(2) 0.29441(18) 0.51488(17)
H16 H -0.8138 0.2642 0.4678
C11 C -1.0535(3) 0.26585(18) 0.51489(17)
C12 C -1.1779(3) 0.3105(2) 0.58580(19)
H17 H -1.2825 0.2911 0.5878
C13 C -1.1471(3) 0.3843(2) 0.6539(2)
H18 H -1.2312 0.4146 0.7009
C14 C -0.9934(3) 0.4126(2) 0.65226(18)
H19 H -0.9743 0.4629 0.6976
C15 C -0.6965(3) 0.3971(2) 0.58422(19)
H20 H -0.6911 0.4797 0.5934
H21 H -0.6272 0.3966 0.5085
C16 C -0.6368(2) 0.30481(19) 0.68412(17)
C17 C -1.0851(3) 0.1887(2) 0.4366(2)
H22 H -1.1983 0.1695 0.4545
H23 H -1.0302 0.1112 0.4538
C18 C -1.0286(3) 0.2577(2) 0.3037(2)
O7 O -0.4279(3) -0.3292(3) -0.1101(2)
H24 H -0.411(2) -0.301(2) -0.1931(16)
H25 H -0.5260 -0.3042 -0.0891
O8 O -1.4391(3) 0.4023(2) 0.2677(2)
H26 H -1.508(4) 0.438(3) 0.225(3)
H27 H -1.421(4) 0.480(2) 0.271(3)
O9 O -0.3080(3) -0.0654(3) -0.3294(2)
H28 H -0.263(5) -0.138(3) -0.296(4)
H29 H -0.390(4) -0.112(4) -0.336(4)
O10 O -0.5279(5) 0.1543(5) 0.4604(4)
H30 H -0.510(9) 0.077(3) 0.491(6)
H31 H -0.577(8) 0.180(6) 0.520(4)
H32? H -0.597(13) 0.092(10) 0.567(9)
H33? H -0.646(15) 0.078(10) 0.469(3)
O11? O -0.6548(12) 0.0471(7) 0.5441(7)
loop_
_geom_bond_atom_site_label_1
_geom_bond_atom_site_label_2
_geom_bond_site_symmetry_1
_geom_bond_site_symmetry_2
Co1 O1 1_555 1_555
O1 H1 1_555 1_555
H2 O1 1_555 1_555
O2 Co1 1_555 1_555
H3 O2 1_555 1_555
H4 O2 1_555 1_555
O3 C18 1_555 1_555
O4 C18 1_555 1_555
O5 C16 1_555 1_555
O6 C16 1_555 1_555
N1 H5 1_555 1_555
N2 Co1 1_555 1_555
C1 N2 1_555 1_555
H6 C1 1_555 1_555
C2 C1 1_555 1_555
C3 C2 1_555 1_555
H7 C3 1_555 1_555
C4 C3 1_555 1_555
H8 C4 1_555 1_555
C5 N2 1_555 1_555
H9 C5 1_555 1_555
C6 N1 1_555 1_555
H10 C6 1_555 1_555
H11 C6 1_555 1_555
C7 N1 1_555 1_555
H12 C7 1_555 1_555
H13 C7 1_555 1_555
C8 N1 1_555 1_555
H14 C8 1_555 1_555
H15 C8 1_555 1_555
C9 C10 1_555 1_555
C10 H16 1_555 1_555
C11 C10 1_555 1_555
C12 C11 1_555 1_555
H17 C12 1_555 1_555
C13 C12 1_555 1_555
H18 C13 1_555 1_555
C14 C9 1_555 1_555
H19 C14 1_555 1_555
C15 C9 1_555 1_555
H20 C15 1_555 1_555
H21 C15 1_555 1_555
C16 C15 1_555 1_555
C17 C11 1_555 1_555
H22 C17 1_555 1_555
H23 C17 1_555 1_555
C18 C17 1_555 1_555
O7 H24 1_555 1_555
H25 O7 1_555 1_555
O8 H26 1_555 1_555
H27 O8 1_555 1_555
O9 H28 1_555 1_555
H29 O9 1_555 1_555
O10 H30 1_555 1_555
H31 O10 1_555 1_555
Co1_2 N2A 1_555 1_555
O1A Co1 1_555 1_555
H1A O1A 1_555 1_555
H2A O1A 1_555 1_555
O2A Co1 1_555 1_555
H3A O2A 1_555 1_555
H4A O2A 1_555 1_555
N1A H5A 1_555 1_555
N2A C1A 1_555 1_555
N2A_2 Co1 1_555 1_555
C1A H6A 1_555 1_555
C2A C1A 1_555 1_555
C3A C2A 1_555 1_555
H7A C3A 1_555 1_555
C4A C3A 1_555 1_555
H8A C4A 1_555 1_555
C5A N2A 1_555 1_555
H9A C5A 1_555 1_555
C6A N1A 1_555 1_555
H10A C6A 1_555 1_555
H11A C6A 1_555 1_555
C7A C8 1_555 1_555
H12A C7A 1_555 1_555
H13A C7A 1_555 1_555
C8A C7 1_555 1_555
H14A C8A 1_555 1_555
H15A C8A 1_555 1_555
C2 C6 1_555 1_555
C4 C5 1_555 1_555
C13 C14 1_555 1_555
N1A C7A 1_555 1_555
N1A C8A 1_555 1_555
C2A C6A 1_555 1_555
C4A C5A 1_555 1_555

#END
