
#######################################################################
#
#                 Cambridge Crystallographic Data Centre
#                                CCDC 
#
#######################################################################
#
# If this CIF has been generated from an entry in the Cambridge 
# Structural Database, then it will include bibliographic, chemical, 
# crystal, experimental, refinement or atomic coordinate data resulting 
# from the CCDC's data processing and validation procedures.
#
#######################################################################

data_MURWEC
_symmetry_cell_setting           triclinic
_symmetry_space_group_name_H-M   'P -1'
_symmetry_Int_Tables_number      2
_space_group_name_Hall           '-P 1'
loop_
_symmetry_equiv_pos_site_id
_symmetry_equiv_pos_as_xyz
1 x,y,z
2 -x,-y,-z
_cell_length_a                   11.396(6)
_cell_length_b                   12.026(6)
_cell_length_c                   14.675(7)
_cell_angle_alpha                66.861(14)
_cell_angle_beta                 83.676(10)
_cell_angle_gamma                81.151(10)
_cell_volume                     1824.64
loop_
_atom_site_label
_atom_site_type_symbol
_atom_site_fract_x
_atom_site_fract_y
_atom_site_fract_z
Co1 Co -0.07003(8) 1.16548(9) -0.48987(7)
Co2 Co -0.56596(8) 1.55707(9) -0.88222(7)
O1 O -0.0557(5) 1.1506(6) -0.6234(4)
O5 O 0.0647(5) 0.9914(5) -0.6332(4)
O6 O -0.5444(5) 1.3738(5) -0.8429(4)
O7 O -0.4349(5) 1.3502(5) -0.9696(4)
O8 O -0.5717(5) 1.5323(5) -0.7240(4)
O9 O -0.5737(5) 1.7128(5) -0.8417(5)
O10 O -0.0934(5) 1.3620(5) -0.5623(4)
O11 O -0.1182(5) 1.2801(5) -0.4006(4)
N1 N -0.3781(5) 1.5574(5) -0.8838(4)
N2 N 0.2442(5) 1.5602(6) -0.8784(5)
N3 N 0.1161(5) 1.1701(5) -0.4934(4)
N4 N 0.7401(6) 1.1648(6) -0.4912(5)
C1 C -0.3181(7) 1.6437(8) -0.9499(6)
H1 H -0.3615 1.7069 -1.0010
C2 C -0.1968(8) 1.6490(9) -0.9505(7)
H2 H -0.1595 1.7129 -1.0008
C3 C -0.1316(6) 1.5585(7) -0.8759(6)
C4 C -0.1939(6) 1.4714(7) -0.8046(6)
H3 H -0.1541 1.4103 -0.7499
C5 C -0.3133(7) 1.4723(8) -0.8120(6)
H4 H -0.3523 1.4086 -0.7631
C6 C 0.1878(8) 1.6040(11) -0.9615(7)
H5 H 0.2319 1.6367 -1.0229
C7 C 0.0666(7) 1.6037(11) -0.9620(6)
H6 H 0.0295 1.6345 -1.0235
C8 C 0.0579(6) 1.5143(7) -0.7885(6)
H7 H 0.0151 1.4826 -0.7263
C9 C -0.0011(7) 1.5592(7) -0.8743(6)
C10 C 0.1796(7) 1.5147(7) -0.7919(6)
H8 H 0.2190 1.4819 -0.7315
C11 C 0.3646(6) 1.1684(7) -0.4949(6)
C12 C 0.2992(7) 1.1096(7) -0.4088(6)
H9 H 0.3378 1.0667 -0.3483
C13 C 0.3031(7) 1.2297(8) -0.5820(6)
H10 H 0.3434 1.2725 -0.6433
C14 C 0.1773(7) 1.1131(7) -0.4104(6)
H11 H 0.1344 1.0731 -0.3498
C15 C 0.1817(6) 1.2258(7) -0.5756(6)
H12 H 0.1412 1.2665 -0.6353
C16 C 0.6769(8) 1.2576(8) -0.5568(6)
H13 H 0.7164 1.3235 -0.6021
C17 C 0.5540(6) 1.2623(7) -0.5620(6)
H14 H 0.5115 1.3299 -0.6106
C18 C 0.4950(6) 1.1667(7) -0.4952(6)
C19 C 0.5631(7) 1.0709(7) -0.4276(6)
H15 H 0.5264 1.0035 -0.3811
C20 C 0.6826(7) 1.0721(7) -0.4269(6)
H16 H 0.7270 1.0052 -0.3793
C21 C 0.0057(6) 1.0949(7) -0.6697(6)
C22 C -0.0971(8) 1.1283(8) -0.8214(7)
C23 C 0.0093(8) 1.1551(9) -0.7809(6)
H17 H 0.0072 1.2442 -0.8013
H18 H 0.0843 1.1246 -0.8090
C24 C -0.2137(8) 1.1589(8) -0.8011(7)
H19 H -0.2320 1.1950 -0.7533
C25 C -0.2790(12) 1.0897(13) -0.9121(11)
H20 H -0.3428 1.0776 -0.9425
C26 C -0.1664(13) 1.0556(17) -0.9370(12)
H21 H -0.1507 1.0157 -0.9822
C27 C -0.0709(11) 1.0793(14) -0.8955(10)
H22 H 0.0091 1.0626 -0.9172
C28 C -0.3030(9) 1.1430(8) -0.8414(7)
C29 C -0.4303(8) 1.1788(8) -0.8159(7)
H23 H -0.4808 1.1242 -0.8247
H24 H -0.4391 1.1688 -0.7453
C30 C -0.4734(6) 1.3130(7) -0.8820(6)
C31 C -0.5640(6) 1.6436(8) -0.7506(6)
C32 C -0.5364(8) 1.6956(10) -0.6784(8)
H25 H -0.5750 1.6526 -0.6125
H26 H -0.5683 1.7829 -0.7014
C33 C -0.4013(7) 1.6813(8) -0.6698(7)
C34 C -0.3499(7) 1.5985(8) -0.5853(6)
H27 H -0.3988 1.5488 -0.5332
C35 C -0.2276(7) 1.5852(7) -0.5735(6)
C36 C -0.1572(7) 1.6532(8) -0.6522(7)
H28 H -0.0737 1.6438 -0.6465
C37 C -0.2060(8) 1.7346(9) -0.7392(7)
H29 H -0.1566 1.7811 -0.7928
C38 C -0.3289(8) 1.7480(9) -0.7477(7)
H30 H -0.3629 1.8034 -0.8077
C39 C -0.1753(7) 1.4957(7) -0.4792(6)
H31 H -0.2376 1.4839 -0.4247
H32 H -0.1110 1.5312 -0.4638
C40 C -0.1252(6) 1.3719(7) -0.4807(6)
Co1A Co 0.07003(8) 0.83452(9) -0.51013(7)
Co1_2 Co 0.92997(8) 1.16548(9) -0.48987(7)
Co2A Co -0.43404(8) 1.44293(9) -1.11778(7)
Co2_2 Co 0.43404(8) 1.55707(9) -0.88222(7)
O5A O -0.0647(5) 1.0086(5) -0.3668(4)
O7A O -0.5651(5) 1.6498(5) -1.0304(4)
N2_2 N -0.7558(5) 1.5602(6) -0.8784(5)
N4_2 N -0.2599(6) 1.1648(6) -0.4912(5)
O2 O 0.1757(8) 0.8625(12) 0.1996(7)
O3 O 0.3965(17) 0.9568(14) 0.1268(12)
O4 O 0.2574(17) 1.223(2) 0.2103(14)
O12? O 0.5082(12) 1.0425(13) -0.0607(11)
loop_
_geom_bond_atom_site_label_1
_geom_bond_atom_site_label_2
_geom_bond_site_symmetry_1
_geom_bond_site_symmetry_2
Co1 O1 1_555 1_555
Co2 O6 1_555 1_555
O1 C21 1_555 1_555
O5 C21 1_555 1_555
O6 C30 1_555 1_555
O7 C30 1_555 1_555
O8 Co2 1_555 1_555
O9 Co2 1_555 1_555
O10 Co1 1_555 1_555
O11 Co1 1_555 1_555
N1 Co2 1_555 1_555
N2 C6 1_555 1_555
N3 Co1 1_555 1_555
N4 C16 1_555 1_555
C1 N1 1_555 1_555
H1 C1 1_555 1_555
C2 C1 1_555 1_555
H2 C2 1_555 1_555
C3 C2 1_555 1_555
C4 C3 1_555 1_555
H3 C4 1_555 1_555
C5 N1 1_555 1_555
H4 C5 1_555 1_555
C6 H5 1_555 1_555
C7 C6 1_555 1_555
H6 C7 1_555 1_555
C8 H7 1_555 1_555
C9 C3 1_555 1_555
C10 N2 1_555 1_555
H8 C10 1_555 1_555
C11 C12 1_555 1_555
C12 H9 1_555 1_555
C13 C11 1_555 1_555
H10 C13 1_555 1_555
C14 N3 1_555 1_555
H11 C14 1_555 1_555
C15 N3 1_555 1_555
H12 C15 1_555 1_555
C16 H13 1_555 1_555
C17 C16 1_555 1_555
H14 C17 1_555 1_555
C18 C11 1_555 1_555
C19 C18 1_555 1_555
H15 C19 1_555 1_555
C20 N4 1_555 1_555
H16 C20 1_555 1_555
C21 C23 1_555 1_555
C22 C23 1_555 1_555
C23 H17 1_555 1_555
H18 C23 1_555 1_555
C24 C22 1_555 1_555
H19 C24 1_555 1_555
C25 H20 1_555 1_555
C26 C25 1_555 1_555
H21 C26 1_555 1_555
C27 C22 1_555 1_555
H22 C27 1_555 1_555
C28 C24 1_555 1_555
C29 C28 1_555 1_555
H23 C29 1_555 1_555
H24 C29 1_555 1_555
C30 C29 1_555 1_555
C31 O8 1_555 1_555
C32 C31 1_555 1_555
H25 C32 1_555 1_555
H26 C32 1_555 1_555
C33 C32 1_555 1_555
C34 C33 1_555 1_555
H27 C34 1_555 1_555
C35 C34 1_555 1_555
C36 C35 1_555 1_555
H28 C36 1_555 1_555
C37 C36 1_555 1_555
H29 C37 1_555 1_555
C38 C33 1_555 1_555
H30 C38 1_555 1_555
C39 C35 1_555 1_555
H31 C39 1_555 1_555
H32 C39 1_555 1_555
C40 O10 1_555 1_555
Co1A O5 1_555 1_555
Co1_2 N4 1_555 1_555
Co2A O7 1_555 1_555
Co2_2 N2 1_555 1_555
O5A Co1 1_555 1_555
O7A Co2 1_555 1_555
N2_2 Co2 1_555 1_555
N4_2 Co1 1_555 1_555
O9 C31 1_555 1_555
O11 C40 1_555 1_555
C4 C5 1_555 1_555
C7 C9 1_555 1_555
C8 C9 1_555 1_555
C8 C10 1_555 1_555
C12 C14 1_555 1_555
C13 C15 1_555 1_555
C17 C18 1_555 1_555
C19 C20 1_555 1_555
C25 C28 1_555 1_555
C26 C27 1_555 1_555
C37 C38 1_555 1_555
C39 C40 1_555 1_555

#END
