
#######################################################################
#
#                 Cambridge Crystallographic Data Centre
#                                CCDC 
#
#######################################################################
#
# If this CIF has been generated from an entry in the Cambridge 
# Structural Database, then it will include bibliographic, chemical, 
# crystal, experimental, refinement or atomic coordinate data resulting 
# from the CCDC's data processing and validation procedures.
#
#######################################################################

data_MURWAY
_symmetry_cell_setting           monoclinic
_symmetry_space_group_name_H-M   'P 21/c'
_symmetry_Int_Tables_number      14
_space_group_name_Hall           '-P 2ybc'
loop_
_symmetry_equiv_pos_site_id
_symmetry_equiv_pos_as_xyz
1 x,y,z
2 -x,1/2+y,1/2-z
3 -x,-y,-z
4 x,1/2-y,1/2+z
_cell_length_a                   12.4239(18)
_cell_length_b                   22.708(3)
_cell_length_c                   15.133(2)
_cell_angle_alpha                90
_cell_angle_beta                 108.850(2)
_cell_angle_gamma                90
_cell_volume                     4040.38
loop_
_atom_site_label
_atom_site_type_symbol
_atom_site_fract_x
_atom_site_fract_y
_atom_site_fract_z
Cu1 Cu 0.40472(4) 0.451825(18) 0.73142(3)
Cu2 Cu -0.10667(4) 0.391753(18) 1.20694(3)
O1 O -0.0875(2) 0.37887(11) 1.08329(17)
O3 O 0.0935(2) 0.35428(11) 1.15342(17)
O5 O 0.3799(2) 0.46275(10) 0.85345(16)
O6 O 0.5428(2) 0.42002(12) 0.93517(18)
O7 O 0.4185(2) 0.43981(11) 0.60469(16)
O8 O 0.5931(2) 0.40521(11) 0.67049(18)
O9 O 0.8596(2) 0.40483(11) 0.32496(17)
O10 O 1.0292(2) 0.36566(12) 0.39625(19)
O11 O 0.2230(2) 0.48076(12) 0.66224(18)
H3 H 0.191(3) 0.5150(11) 0.663(2)
H4 H 0.204(3) 0.4719(16) 0.6026(15)
O12 O -0.2914(2) 0.42343(12) 1.12540(19)
H5 H -0.310(3) 0.4600(9) 1.132(3)
H6 H -0.336(3) 0.4127(16) 1.0704(17)
N1 N -0.1308(3) 0.30532(13) 1.2180(2)
N2 N -0.1727(3) 0.12289(12) 1.2275(2)
H7 H -0.2440(18) 0.1119(16) 1.208(2)
N3 N 0.0271(2) -0.03005(13) 1.2763(2)
N4 N 0.4856(2) 0.52882(12) 0.7437(2)
N5 N 0.6801(3) 0.68329(13) 0.7847(2)
H8 H 0.7521(17) 0.6752(17) 0.810(2)
N6 N 0.6271(2) 0.86568(13) 0.7652(2)
C1 C -0.2305(3) 0.28021(16) 1.2115(3)
H9 H -0.2951 0.3048 1.2022
C2 C -0.2439(3) 0.22030(17) 1.2178(3)
H10 H -0.3161 0.2047 1.2144
C3 C -0.1521(3) 0.18228(15) 1.2291(2)
C4 C -0.0483(3) 0.20859(16) 1.2373(3)
H11 H 0.0176 0.1851 1.2459
C5 C -0.0421(3) 0.26878(16) 1.2328(3)
H12 H 0.0303 0.2858 1.2407
C6 C 0.0757(3) 0.02259(15) 1.3023(3)
H13 H 0.1556 0.0240 1.3327
C7 C 0.0163(3) 0.07471(16) 1.2874(2)
H14 H 0.0553 0.1108 1.3076
C8 C -0.1005(3) 0.07483(15) 1.2429(2)
C9 C -0.1505(3) 0.01999(15) 1.2137(3)
H15 H -0.2299 0.0176 1.1816
C10 C -0.0861(3) -0.03028(16) 1.2307(3)
H16 H -0.1225 -0.0668 1.2096
C11 C 0.0097(3) 0.36123(15) 1.0823(3)
C12 C 0.0166(3) 0.3468(2) 0.9860(3)
H17 H -0.0285 0.3107 0.9628
H18 H -0.0191 0.3793 0.9429
C13 C 0.1350(3) 0.33741(18) 0.9824(3)
C14 C 0.1714(3) 0.28241(18) 0.9645(3)
H19 H 0.1218 0.2495 0.9554
C15 C 0.2805(4) 0.27542(18) 0.9598(3)
H20 H 0.3047 0.2377 0.9466
C16 C 0.3540(3) 0.32268(18) 0.9741(3)
H21 H 0.4289 0.3171 0.9721
C17 C 0.3190(3) 0.37862(16) 0.9914(2)
C18 C 0.2096(3) 0.38517(17) 0.9949(2)
H22 H 0.1845 0.4231 1.0062
C19 C 0.3986(3) 0.43059(16) 1.0070(3)
H23 H 0.4620 0.4249 1.0660
H24 H 0.3572 0.4667 1.0134
C20 C 0.4468(3) 0.43854(15) 0.9270(3)
C21 C 0.5996(3) 0.52874(16) 0.7689(2)
H25 H 0.6383 0.4920 0.7786
C22 C 0.6622(3) 0.57928(15) 0.7813(2)
H26 H 0.7427 0.5770 0.7984
C23 C 0.6090(3) 0.63457(16) 0.7689(2)
C24 C 0.4914(3) 0.63426(15) 0.7443(3)
H27 H 0.4506 0.6703 0.7363
C25 C 0.4337(3) 0.58114(16) 0.7315(2)
H28 H 0.3530 0.5819 0.7130
C26 C 0.7299(3) 0.84121(16) 0.8048(3)
H29 H 0.7934 0.8665 0.8297
C27 C 0.7480(3) 0.78170(16) 0.8112(3)
H30 H 0.8225 0.7667 0.8400
C28 C 0.6566(3) 0.74286(15) 0.7752(2)
C29 C 0.5513(3) 0.76798(15) 0.7304(3)
H31 H 0.4872 0.7438 0.7016
C30 C 0.5405(3) 0.82852(16) 0.7281(3)
H32 H 0.4673 0.8448 0.6985
C31 C 0.5113(3) 0.41709(15) 0.6010(3)
C32 C 0.5146(4) 0.4064(2) 0.5026(3)
H33 H 0.4429 0.3868 0.4660
H34 H 0.5170 0.4450 0.4730
C33 C 0.6130(3) 0.36967(18) 0.4957(3)
C34 C 0.7135(3) 0.39610(18) 0.4963(3)
H35 H 0.7205 0.4377 0.5024
C35 C 0.8041(3) 0.36384(18) 0.4883(3)
C36 C 0.7932(4) 0.30298(19) 0.4791(3)
H36 H 0.8546 0.2800 0.4734
C37 C 0.6933(4) 0.27577(19) 0.4783(3)
H37 H 0.6860 0.2342 0.4718
C38 C 0.6034(4) 0.3092(2) 0.4869(3)
H38 H 0.5351 0.2904 0.4868
C39 C 0.9142(3) 0.3933(2) 0.4898(3)
H39 H 0.9778 0.3759 0.5406
H40 H 0.9102 0.4357 0.5036
C40 C 0.9385(3) 0.38675(16) 0.3976(3)
Cu1A Cu 0.59528(4) 0.951825(18) 0.76858(3)
Cu2_2 Cu 0.89333(4) 0.391753(18) 0.20694(3)
Cu2A Cu 0.10667(4) -0.108247(18) 1.29306(3)
O9_2 O -0.1404(2) 0.40483(11) 1.32496(17)
N3A N -0.0271(2) 0.46995(13) 1.2237(2)
N6A N 0.3729(2) 0.36568(13) 0.7348(2)
O2 O 0.2006(3) 0.44509(14) 0.4865(2)
H1 H 0.267(2) 0.4316(18) 0.520(3)
H2 H 0.157(3) 0.4143(13) 0.467(3)
O4 O -0.2289(8) 0.4436(4) 0.9260(6)
O13? O -0.2542(7) 0.3934(6) 0.9046(6)
loop_
_geom_bond_atom_site_label_1
_geom_bond_atom_site_label_2
_geom_bond_site_symmetry_1
_geom_bond_site_symmetry_2
Cu1 O5 1_555 1_555
Cu2 O1 1_555 1_555
O1 C11 1_555 1_555
O2 H1 1_555 1_555
H2 O2 1_555 1_555
O3 C11 1_555 1_555
O5 C20 1_555 1_555
O6 C20 1_555 1_555
O7 Cu1 1_555 1_555
O8 C31 1_555 1_555
O9 C40 1_555 1_555
O10 C40 1_555 1_555
O11 Cu1 1_555 1_555
H3 O11 1_555 1_555
H4 O11 1_555 1_555
O12 Cu2 1_555 1_555
H5 O12 1_555 1_555
H6 O12 1_555 1_555
N1 Cu2 1_555 1_555
N2 H7 1_555 1_555
N3 C6 1_555 1_555
N4 Cu1 1_555 1_555
N5 H8 1_555 1_555
N6 C26 1_555 1_555
C1 N1 1_555 1_555
H9 C1 1_555 1_555
C2 C1 1_555 1_555
H10 C2 1_555 1_555
C3 N2 1_555 1_555
C4 C3 1_555 1_555
H11 C4 1_555 1_555
C5 N1 1_555 1_555
H12 C5 1_555 1_555
C6 H13 1_555 1_555
C7 C6 1_555 1_555
H14 C7 1_555 1_555
C8 N2 1_555 1_555
C9 C8 1_555 1_555
H15 C9 1_555 1_555
C10 N3 1_555 1_555
H16 C10 1_555 1_555
C11 C12 1_555 1_555
C12 H17 1_555 1_555
H18 C12 1_555 1_555
C13 C12 1_555 1_555
C14 C13 1_555 1_555
H19 C14 1_555 1_555
C15 C14 1_555 1_555
H20 C15 1_555 1_555
C16 C15 1_555 1_555
H21 C16 1_555 1_555
C17 C16 1_555 1_555
C18 C13 1_555 1_555
H22 C18 1_555 1_555
C19 C17 1_555 1_555
H23 C19 1_555 1_555
H24 C19 1_555 1_555
C20 C19 1_555 1_555
C21 N4 1_555 1_555
H25 C21 1_555 1_555
C22 C21 1_555 1_555
H26 C22 1_555 1_555
C23 N5 1_555 1_555
C24 C23 1_555 1_555
H27 C24 1_555 1_555
C25 N4 1_555 1_555
H28 C25 1_555 1_555
C26 H29 1_555 1_555
C27 C26 1_555 1_555
H30 C27 1_555 1_555
C28 N5 1_555 1_555
C29 C28 1_555 1_555
H31 C29 1_555 1_555
C30 N6 1_555 1_555
H32 C30 1_555 1_555
C31 O7 1_555 1_555
C32 C31 1_555 1_555
H33 C32 1_555 1_555
H34 C32 1_555 1_555
C33 C32 1_555 1_555
C34 C33 1_555 1_555
H35 C34 1_555 1_555
C35 C34 1_555 1_555
C36 C35 1_555 1_555
H36 C36 1_555 1_555
C37 C36 1_555 1_555
H37 C37 1_555 1_555
C38 C33 1_555 1_555
H38 C38 1_555 1_555
C39 C35 1_555 1_555
H39 C39 1_555 1_555
H40 C39 1_555 1_555
C40 C39 1_555 1_555
Cu1A N6 1_555 1_555
Cu2_2 O9 1_555 1_555
Cu2A N3 1_555 1_555
O9_2 Cu2 1_555 1_555
N3A Cu2 1_555 1_555
N6A Cu1 1_555 1_555
C2 C3 1_555 1_555
C4 C5 1_555 1_555
C7 C8 1_555 1_555
C9 C10 1_555 1_555
C17 C18 1_555 1_555
C22 C23 1_555 1_555
C24 C25 1_555 1_555
C27 C28 1_555 1_555
C29 C30 1_555 1_555
C37 C38 1_555 1_555

#END
