
#######################################################################
#
#                 Cambridge Crystallographic Data Centre
#                                CCDC 
#
#######################################################################
#
# If this CIF has been generated from an entry in the Cambridge 
# Structural Database, then it will include bibliographic, chemical, 
# crystal, experimental, refinement or atomic coordinate data resulting 
# from the CCDC's data processing and validation procedures.
#
#######################################################################

data_MURZII
_symmetry_cell_setting           triclinic
_symmetry_space_group_name_H-M   'P -1'
_symmetry_Int_Tables_number      2
_space_group_name_Hall           '-P 1'
loop_
_symmetry_equiv_pos_site_id
_symmetry_equiv_pos_as_xyz
1 x,y,z
2 -x,-y,-z
_cell_length_a                   8.071(2)
_cell_length_b                   9.114(2)
_cell_length_c                   17.051(3)
_cell_angle_alpha                87.75(3)
_cell_angle_beta                 83.63(3)
_cell_angle_gamma                75.91(3)
_cell_volume                     1208.91
loop_
_atom_site_label
_atom_site_type_symbol
_atom_site_fract_x
_atom_site_fract_y
_atom_site_fract_z
Cu1 Cu 0.95549(7) 0.53038(6) 0.73631(3)
O1 O 0.6826(5) 0.5472(4) 0.6868(2)
N1 N 1.0628(5) 0.4150(4) 0.6394(2)
N2 N 1.0805(5) 0.6804(4) 0.6830(2)
N3 N 0.8174(5) 0.6760(4) 0.8178(2)
N4 N 0.4940(7) 1.0177(6) 0.9675(3)
N5 N 0.9421(5) 0.3454(4) 0.8043(2)
N6 N 0.9319(5) 0.0220(4) 0.9844(2)
C1 C 1.0327(7) 0.2838(5) 0.6184(3)
H1 H 0.9660(7) 0.2351(5) 0.6533(3)
C2 C 1.0986(8) 0.2205(6) 0.5464(3)
H2 H 1.0745(8) 0.1306(6) 0.5329(3)
C3 C 1.1994(8) 0.2882(7) 0.4944(3)
H3 H 1.2472(8) 0.2441(7) 0.4462(3)
C4 C 1.2280(7) 0.4237(6) 0.5153(3)
H4 H 1.2927(7) 0.4745(6) 0.4806(3)
C5 C 1.1596(6) 0.4837(5) 0.5888(3)
C6 C 1.1803(6) 0.6290(5) 0.6167(3)
C7 C 1.2932(7) 0.7074(6) 0.5788(3)
H5 H 1.3589(7) 0.6712(6) 0.5321(3)
C8 C 1.3073(8) 0.8401(7) 0.6109(4)
H6 H 1.3836(8) 0.8937(7) 0.5865(4)
C9 C 1.2085(8) 0.8912(6) 0.6784(4)
H7 H 1.2160(8) 0.9806(6) 0.7007(4)
C10 C 1.0964(7) 0.8093(6) 0.7138(3)
H8 H 1.0298(7) 0.8445(6) 0.7605(3)
C11 C 0.7128(6) 0.8037(5) 0.7921(3)
H9 H 0.7096(6) 0.8191(5) 0.7380(3)
C12 C 0.6116(7) 0.9111(6) 0.8415(4)
H10 H 0.5433(7) 0.9986(6) 0.8213(4)
C13 C 0.6121(7) 0.8884(6) 0.9206(4)
C14 C 0.7160(7) 0.7576(7) 0.9493(3)
H11 H 0.7170(7) 0.7390(7) 1.0032(3)
C15 C 0.8184(6) 0.6551(6) 0.8952(3)
H12 H 0.8907(6) 0.5684(6) 0.9140(3)
C16 C 0.7960(6) 0.3336(5) 0.8461(3)
H13 H 0.6939(6) 0.4001(5) 0.8349(3)
C17 C 0.7905(6) 0.2269(5) 0.9050(3)
H14 H 0.6867(6) 0.2216(5) 0.9333(3)
C18 C 0.9422(6) 0.1276(5) 0.9214(3)
C19 C 1.0924(6) 0.1344(5) 0.8758(3)
H15 H 1.1950(6) 0.0654(5) 0.8839(3)
C20 C 1.0884(6) 0.2444(5) 0.8183(3)
H16 H 1.1901(6) 0.2494(5) 0.7880(3)
Cl1 Cl 1.3098(2) 0.5935(2) 0.86997(10)
O2 O 1.4272(9) 0.6245(10) 0.8115(6)
O3 O 1.4113(13) 0.5289(13) 0.9263(6)
O4 O 1.2170(10) 0.5124(8) 0.8353(7)
O5 O 1.1960(9) 0.7364(8) 0.8917(4)
N4A N 0.5060(7) 0.9823(6) 1.0325(3)
C13A C 0.3879(7) 1.1116(6) 1.0794(4)
C12A C 0.3884(7) 1.0889(6) 1.1585(4)
C11A C 0.2872(6) 1.1963(5) 1.2079(3)
N3A N 0.1826(5) 1.3240(4) 1.1822(2)
C15A C 0.1816(6) 1.3449(6) 1.1048(3)
C14A C 0.2840(7) 1.2424(7) 1.0507(3)
H11A H 0.2830(7) 1.2610(7) 0.9968(3)
H12A H 0.1093(6) 1.4316(6) 1.0860(3)
H9A H 0.2904(6) 1.1809(5) 1.2620(3)
H10A H 0.4567(7) 1.0014(6) 1.1787(4)
N6A N 1.0681(5) -0.0220(4) 1.0156(2)
C18A C 1.0578(6) -0.1276(5) 1.0786(3)
C17A C 1.2095(6) -0.2269(5) 1.0950(3)
C16A C 1.2040(6) -0.3336(5) 1.1539(3)
N5A N 1.0579(5) -0.3454(4) 1.1957(2)
C20A C 0.9116(6) -0.2444(5) 1.1817(3)
C19A C 0.9076(6) -0.1344(5) 1.1242(3)
H15A H 0.8050(6) -0.0654(5) 1.1161(3)
H16A H 0.8099(6) -0.2494(5) 1.2120(3)
H13A H 1.3061(6) -0.4001(5) 1.1651(3)
H14A H 1.3133(6) -0.2216(5) 1.0667(3)
Cu1A Cu 0.04451(7) 1.46962(6) 1.26369(3)
O1A O 0.3174(5) 1.4528(4) 1.3132(2)
N1A N -0.0628(5) 1.5850(4) 1.3606(2)
N2A N -0.0805(5) 1.3196(4) 1.3170(2)
C1A C -0.0327(7) 1.7162(5) 1.3816(3)
H1A H 0.0340(7) 1.7649(5) 1.3467(3)
C2A C -0.0986(8) 1.7795(6) 1.4536(3)
H2A H -0.0745(8) 1.8694(6) 1.4671(3)
C3A C -0.1994(8) 1.7118(7) 1.5056(3)
H3A H -0.2472(8) 1.7559(7) 1.5538(3)
C4A C -0.2280(7) 1.5763(6) 1.4847(3)
H4A H -0.2927(7) 1.5255(6) 1.5194(3)
C5A C -0.1596(6) 1.5163(5) 1.4112(3)
C6A C -0.1803(6) 1.3710(5) 1.3833(3)
C7A C -0.2932(7) 1.2926(6) 1.4212(3)
H5A H -0.3589(7) 1.3288(6) 1.4679(3)
C8A C -0.3073(8) 1.1599(7) 1.3891(4)
H6A H -0.3836(8) 1.1063(7) 1.4135(4)
C9A C -0.2085(8) 1.1088(6) 1.3216(4)
H7A H -0.2160(8) 1.0194(6) 1.2993(4)
C10A C -0.0964(7) 1.1907(6) 1.2862(3)
H8A H -0.0298(7) 1.1555(6) 1.2395(3)
Cl1A Cl -0.3098(2) 1.4065(2) 1.13003(10)
O2A O -0.4272(9) 1.3755(10) 1.1885(6)
O3A O -0.4113(13) 1.4711(13) 1.0737(6)
O4A O -0.2170(10) 1.4876(8) 1.1647(7)
O5A O -0.1960(9) 1.2636(8) 1.1083(4)
Cu1A_2 Cu 1.04451(7) -0.53038(6) 1.26369(3)
N5A_2 N 0.0579(5) 1.6546(4) 1.1957(2)
Cl2 Cl 0.5989(2) 0.1593(2) 0.64406(10)
O6 O 0.6352(16) 0.0619(9) 0.5818(5)
O7 O 0.5925(7) 0.3077(5) 0.6125(3)
O8 O 0.4429(8) 0.1475(9) 0.6834(4)
O9 O 0.7258(9) 0.1231(10) 0.6955(6)
loop_
_geom_bond_atom_site_label_1
_geom_bond_atom_site_label_2
_geom_bond_site_symmetry_1
_geom_bond_site_symmetry_2
Cu1 O1 1_555 1_555
N1 Cu1 1_555 1_555
N2 Cu1 1_555 1_555
N3 Cu1 1_555 1_555
N4 C13 1_555 1_555
N5 Cu1 1_555 1_555
N6 C18 1_555 1_555
C1 N1 1_555 1_555
H1 C1 1_555 1_555
C2 C1 1_555 1_555
H2 C2 1_555 1_555
C3 C2 1_555 1_555
H3 C3 1_555 1_555
C4 C3 1_555 1_555
H4 C4 1_555 1_555
C5 N1 1_555 1_555
C6 N2 1_555 1_555
C7 C6 1_555 1_555
H5 C7 1_555 1_555
C8 C7 1_555 1_555
H6 C8 1_555 1_555
C9 C8 1_555 1_555
H7 C9 1_555 1_555
C10 N2 1_555 1_555
H8 C10 1_555 1_555
C11 N3 1_555 1_555
H9 C11 1_555 1_555
C12 C11 1_555 1_555
H10 C12 1_555 1_555
C13 C12 1_555 1_555
C14 C13 1_555 1_555
H11 C14 1_555 1_555
C15 N3 1_555 1_555
H12 C15 1_555 1_555
C16 N5 1_555 1_555
H13 C16 1_555 1_555
C17 C16 1_555 1_555
H14 C17 1_555 1_555
C18 C17 1_555 1_555
C19 C18 1_555 1_555
H15 C19 1_555 1_555
C20 N5 1_555 1_555
H16 C20 1_555 1_555
Cl1 O2 1_555 1_555
O3 Cl1 1_555 1_555
O4 Cu1 1_555 1_555
O5 Cl1 1_555 1_555
Cl2 O6 1_555 1_555
O7 Cl2 1_555 1_555
O8 Cl2 1_555 1_555
O9 Cl2 1_555 1_555
N4A N4 1_555 1_555
C13A N4A 1_555 1_555
C12A C13A 1_555 1_555
C11A C12A 1_555 1_555
N3A C11A 1_555 1_555
C15A N3A 1_555 1_555
C14A C13A 1_555 1_555
H11A C14A 1_555 1_555
H12A C15A 1_555 1_555
H9A C11A 1_555 1_555
H10A C12A 1_555 1_555
N6A N6 1_555 1_555
C18A N6A 1_555 1_555
C17A C18A 1_555 1_555
C16A C17A 1_555 1_555
N5A C16A 1_555 1_555
C20A N5A 1_555 1_555
C19A C18A 1_555 1_555
H15A C19A 1_555 1_555
H16A C20A 1_555 1_555
H13A C16A 1_555 1_555
H14A C17A 1_555 1_555
Cu1A N3A 1_555 1_555
O1A Cu1A 1_555 1_555
N1A Cu1A 1_555 1_555
N2A Cu1A 1_555 1_555
C1A N1A 1_555 1_555
H1A C1A 1_555 1_555
C2A C1A 1_555 1_555
H2A C2A 1_555 1_555
C3A C2A 1_555 1_555
H3A C3A 1_555 1_555
C4A C3A 1_555 1_555
H4A C4A 1_555 1_555
C5A N1A 1_555 1_555
C6A N2A 1_555 1_555
C7A C6A 1_555 1_555
H5A C7A 1_555 1_555
C8A C7A 1_555 1_555
H6A C8A 1_555 1_555
C9A C8A 1_555 1_555
H7A C9A 1_555 1_555
C10A N2A 1_555 1_555
H8A C10A 1_555 1_555
Cl1A O2A 1_555 1_555
O3A Cl1A 1_555 1_555
O4A Cu1A 1_555 1_555
O5A Cl1A 1_555 1_555
Cu1A_2 N5A 1_555 1_555
N5A_2 Cu1A 1_555 1_555
C4 C5 1_555 1_555
C5 C6 1_555 1_555
C9 C10 1_555 1_555
C14 C15 1_555 1_555
C19 C20 1_555 1_555
Cl1 O4 1_555 1_555
C15A C14A 1_555 1_555
C20A C19A 1_555 1_555
C4A C5A 1_555 1_555
C5A C6A 1_555 1_555
C9A C10A 1_555 1_555
Cl1A O4A 1_555 1_555

#END
