
#######################################################################
#
#                 Cambridge Crystallographic Data Centre
#                                CCDC 
#
#######################################################################
#
# If this CIF has been generated from an entry in the Cambridge 
# Structural Database, then it will include bibliographic, chemical, 
# crystal, experimental, refinement or atomic coordinate data resulting 
# from the CCDC's data processing and validation procedures.
#
#######################################################################

data_MUSCOT
_symmetry_cell_setting           triclinic
_symmetry_space_group_name_H-M   'P -1'
_symmetry_Int_Tables_number      2
_space_group_name_Hall           '-P 1'
loop_
_symmetry_equiv_pos_site_id
_symmetry_equiv_pos_as_xyz
1 x,y,z
2 -x,-y,-z
_cell_length_a                   10.144(3)
_cell_length_b                   10.280(3)
_cell_length_c                   12.122(4)
_cell_angle_alpha                107.915(3)
_cell_angle_beta                 104.198(3)
_cell_angle_gamma                101.158(2)
_cell_volume                     1115.39
loop_
_atom_site_label
_atom_site_type_symbol
_atom_site_fract_x
_atom_site_fract_y
_atom_site_fract_z
Pb1 Pb 0.53964(5) 1.02940(4) 0.31633(3)
Pb2 Pb 0.41493(5) 1.32030(4) 0.57338(4)
Pb3 Pb 0.45294(5) 0.71563(4) -0.08751(4)
S1 S -0.3145(3) 0.6774(3) -0.2809(2)
S2 S 1.3028(3) 1.2878(3) 0.8160(2)
O1 O 0.3822(9) 0.9003(8) 0.0808(7)
O3 O 0.3407(9) 1.0853(8) 0.0285(7)
O4 O 0.3450(8) 0.8627(9) -0.1968(7)
O5 O 0.1797(9) 0.8602(9) -0.3531(7)
O6 O -0.3853(8) 0.6168(8) -0.2102(6)
O7 O -0.3636(9) 0.7927(8) -0.3057(8)
O8 O -0.3231(10) 0.5670(9) -0.3952(7)
O9 O 0.6352(8) 1.2476(7) 0.5225(6)
O10 O 0.6079(8) 1.2393(8) 0.6958(6)
O11 O 0.8257(8) 0.8645(7) 0.5250(7)
O12 O 0.6451(9) 0.9597(7) 0.5173(6)
O13 O 1.3429(9) 1.3267(8) 0.9473(6)
O14 O 1.3636(9) 1.4078(9) 0.7862(8)
O15 O 1.3344(9) 1.1589(9) 0.7525(8)
O16 O 0.3233(10) 0.6061(9) 0.0485(8)
H1 H 0.373(13) 0.552(12) 0.075(12)
H2 H 0.352(16) 0.659(12) 0.129(3)
C1 C 0.1545(11) 0.8728(10) -0.0559(9)
C2 C 0.1109(11) 0.8332(10) -0.1869(9)
C3 C -0.0354(11) 0.7724(11) -0.2518(9)
H3 H -0.0676 0.7465 -0.3365
C4 C -0.1306(11) 0.7508(11) -0.1924(9)
C5 C -0.0882(11) 0.7815(10) -0.0678(9)
H4 H -0.1541 0.7605 -0.0296
C6 C 0.0552(12) 0.8445(11) -0.0007(9)
H5 H 0.0847 0.8682 0.0837
C7 C 0.3074(11) 0.9598(12) 0.0230(9)
C8 C 0.2158(11) 0.8530(11) -0.2506(9)
C9 C 0.8290(13) 1.2336(12) 0.6714(10)
C10 C 0.8777(11) 1.1143(10) 0.6363(9)
C11 C 1.0260(12) 1.1306(11) 0.6842(9)
H6 H 1.0602 1.0525 0.6596
C12 C 1.1178(12) 1.2588(11) 0.7652(9)
C13 C 1.0684(13) 1.3769(13) 0.8036(12)
H7 H 1.1315 1.4647 0.8584
C14 C 0.9236(14) 1.3624(13) 0.7592(12)
H8 H 0.8897 1.4395 0.7885
C15 C 0.6770(12) 1.2339(10) 0.6251(9)
C16 C 0.7794(11) 0.9695(11) 0.5541(9)
Pb1A Pb 0.46036(5) 0.97060(4) -0.31633(3)
Pb1A_2 Pb 1.46036(5) 0.97060(4) 0.68367(3)
Pb2A Pb 0.58507(5) 0.67970(4) 0.42662(4)
Pb2_2 Pb 1.41493(5) 1.32030(4) 0.57338(4)
Pb3A Pb 0.54706(5) 1.28437(4) 0.08751(4)
Pb3_2 Pb -0.54706(5) 0.71563(4) -0.08751(4)
Pb3A_2 Pb 1.54706(5) 1.28437(4) 1.08751(4)
O3A O 0.6593(9) 0.9147(8) -0.0285(7)
O4A O 0.6550(8) 1.1373(9) 0.1968(7)
O5A O 0.8203(9) 1.1398(9) 0.3531(7)
O6_2 O 0.6147(8) 0.6168(8) -0.2102(6)
O11A O 0.1743(8) 1.1355(7) 0.4750(7)
O12A O 0.3549(9) 1.0403(7) 0.4827(6)
O13A O 0.6571(9) 0.6733(8) 0.0527(6)
O14_2 O 0.3636(9) 1.4078(9) 0.7862(8)
O15A O 0.6656(9) 0.8411(9) 0.2475(8)
O2 O 0.726(2) 0.4470(15) 0.3762(13)
loop_
_geom_bond_atom_site_label_1
_geom_bond_atom_site_label_2
_geom_bond_site_symmetry_1
_geom_bond_site_symmetry_2
Pb1 O1 1_555 1_555
Pb2 O9 1_555 1_555
Pb3 O1 1_555 1_555
S1 O6 1_555 1_555
S2 O13 1_555 1_555
O1 C7 1_555 1_555
O3 C7 1_555 1_555
O4 Pb3 1_555 1_555
O5 C8 1_555 1_555
O6 Pb3_2 1_555 1_555
O7 S1 1_555 1_555
O8 S1 1_555 1_555
O9 Pb1 1_555 1_555
O10 Pb2 1_555 1_555
O11 C16 1_555 1_555
O12 Pb1 1_555 1_555
O13 Pb3A_2 1_555 1_555
O14 S2 1_555 1_555
O15 S2 1_555 1_555
O16 Pb3 1_555 1_555
H1 O16 1_555 1_555
H2 O16 1_555 1_555
C1 C2 1_555 1_555
C2 C3 1_555 1_555
C3 H3 1_555 1_555
C4 S1 1_555 1_555
C5 C4 1_555 1_555
H4 C5 1_555 1_555
C6 C1 1_555 1_555
H5 C6 1_555 1_555
C7 C1 1_555 1_555
C8 O4 1_555 1_555
C9 C10 1_555 1_555
C10 C11 1_555 1_555
C11 H6 1_555 1_555
C12 S2 1_555 1_555
C13 C12 1_555 1_555
H7 C13 1_555 1_555
C14 C9 1_555 1_555
H8 C14 1_555 1_555
C15 O9 1_555 1_555
C16 O12 1_555 1_555
Pb1A O4 1_555 1_555
Pb1A_2 O15 1_555 1_555
Pb2A O11 1_555 1_555
Pb2_2 O14 1_555 1_555
Pb3A O3 1_555 1_555
O3A Pb3 1_555 1_555
O4A Pb1 1_555 1_555
O5A Pb1 1_555 1_555
O6_2 Pb3 1_555 1_555
O11A Pb2 1_555 1_555
O12A Pb2 1_555 1_555
O13A Pb3 1_555 1_555
O14_2 Pb2 1_555 1_555
O15A Pb1 1_555 1_555
O5 Pb1A 1_555 1_555
O10 C15 1_555 1_555
O12 Pb2A 1_555 1_555
C2 C8 1_555 1_555
C3 C4 1_555 1_555
C5 C6 1_555 1_555
C9 C15 1_555 1_555
C10 C16 1_555 1_555
C11 C12 1_555 1_555
C13 C14 1_555 1_555
Pb3A O4A 1_555 1_555

#END
