
#######################################################################
#
#                 Cambridge Crystallographic Data Centre
#                                CCDC 
#
#######################################################################
#
# If this CIF has been generated from an entry in the Cambridge 
# Structural Database, then it will include bibliographic, chemical, 
# crystal, experimental, refinement or atomic coordinate data resulting 
# from the CCDC's data processing and validation procedures.
#
#######################################################################

data_MUSDUA
_symmetry_cell_setting           monoclinic
_symmetry_space_group_name_H-M   'C c'
_symmetry_Int_Tables_number      9
_space_group_name_Hall           'C -2yc'
loop_
_symmetry_equiv_pos_site_id
_symmetry_equiv_pos_as_xyz
1 x,y,z
2 x,-y,1/2+z
3 1/2+x,1/2+y,z
4 1/2+x,1/2-y,1/2+z
_cell_length_a                   18.9930(7)
_cell_length_b                   15.8109(7)
_cell_length_c                   7.7635(3)
_cell_angle_alpha                90
_cell_angle_beta                 107.791(4)
_cell_angle_gamma                90
_cell_volume                     2219.86
loop_
_atom_site_label
_atom_site_type_symbol
_atom_site_fract_x
_atom_site_fract_y
_atom_site_fract_z
Cu1 Cu 0.21938(3) 0.12198(2) 0.31759(6)
O1 O 0.11406(19) 0.12909(18) 0.2348(5)
O2 O 0.21953(15) 0.2002(2) 0.1078(4)
N1 N 0.28672(17) 0.2154(2) 0.0867(5)
C1 C 0.3838(2) 0.1731(3) -0.0207(6)
H1 H 0.4023 0.1359 -0.0890
C2 C 0.4284(2) 0.2384(3) 0.0728(5)
C3 C 0.3130(2) 0.1628(3) -0.0137(6)
H2 H 0.2834 0.1194 -0.0783
C4 C 0.3966(2) 0.2945(3) 0.1672(6)
H3 H 0.4237 0.3403 0.2281
C5 C 0.3259(2) 0.2821(3) 0.1703(6)
H4 H 0.3047 0.3203 0.2310
C6 C 0.5063(2) 0.2459(3) 0.0770(5)
C7 C 0.5505(2) 0.3151(3) 0.1498(6)
H5 H 0.5317 0.3581 0.2049
C8 C 0.6217(3) 0.3208(3) 0.1413(7)
H6 H 0.6500 0.3683 0.1885
C9 C 0.5405(2) 0.1818(3) 0.0067(6)
H7 H 0.5141 0.1328 -0.0381
C10 C 0.6112(3) 0.1893(3) 0.0023(7)
H8 H 0.6323 0.1457 -0.0455
N2 N 0.65101(19) 0.2595(3) 0.0665(6)
O3 O 0.71838(17) 0.2676(2) 0.0521(5)
O4 O 0.3249(2) 0.12321(17) 0.4040(6)
C11 C 0.4756(2) 0.1520(3) 0.5034(6)
H9 H 0.4468 0.1858 0.5533
C12 C 0.5493(2) 0.1726(3) 0.5331(6)
H10 H 0.5698 0.2194 0.6030
C13 C 0.4443(2) 0.0827(2) 0.4016(5)
C14 C 0.5919(2) 0.1227(2) 0.4577(6)
C15 C 0.5623(2) 0.0516(3) 0.3592(6)
H11 H 0.5917 0.0170 0.3126
C16 C 0.36250(19) 0.0666(2) 0.3540(5)
C17 C -0.0358(2) 0.1481(3) 0.1719(6)
H12 H -0.0034 0.1875 0.2434
O5 O 0.66288(17) 0.1440(2) 0.4738(6)
H13 H 0.6785 0.1763 0.5596
C18 C -0.1105(2) 0.1582(3) 0.1406(6)
H14 H -0.1284 0.2041 0.1894
C19 C -0.1591(2) 0.0993(3) 0.0358(6)
C20 C -0.1318(2) 0.0302(3) -0.0362(6)
H15 H -0.1642 -0.0100 -0.1048
C21 C 0.4883(2) 0.0321(2) 0.3301(6)
H16 H 0.4681 -0.0153 0.2621
O6 O -0.23362(17) 0.1096(3) -0.0072(6)
H17 H -0.2456 0.1108 0.0857
C22 C -0.0571(2) 0.0220(3) -0.0050(6)
H18 H -0.0391 -0.0236 -0.0546
C23 C 0.07418(19) 0.0728(2) 0.1301(5)
C24 C -0.00765(18) 0.0808(2) 0.0994(5)
O7 O 0.33591(16) 0.00177(19) 0.2648(4)
O8 O 0.21743(16) 0.0251(2) 0.4747(5)
H19 H 0.1817 0.0292 0.5123
O9 O 0.09710(17) 0.0151(2) 0.0573(5)
H20 H 0.259(3) 0.020(4) 0.560(9)
Cu1C Cu 0.71938(3) 0.37802(2) -0.18241(6)
O3C O 0.21838(17) 0.2324(2) 0.5521(5)
loop_
_geom_bond_atom_site_label_1
_geom_bond_atom_site_label_2
_geom_bond_site_symmetry_1
_geom_bond_site_symmetry_2
Cu1 O1 1_555 1_555
O1 C23 1_555 1_555
O2 Cu1 1_555 1_555
N1 O2 1_555 1_555
C1 H1 1_555 1_555
C2 C1 1_555 1_555
C3 N1 1_555 1_555
H2 C3 1_555 1_555
C4 C2 1_555 1_555
H3 C4 1_555 1_555
C5 N1 1_555 1_555
H4 C5 1_555 1_555
C6 C2 1_555 1_555
C7 C6 1_555 1_555
H5 C7 1_555 1_555
C8 C7 1_555 1_555
H6 C8 1_555 1_555
C9 C6 1_555 1_555
H7 C9 1_555 1_555
C10 C9 1_555 1_555
H8 C10 1_555 1_555
N2 C8 1_555 1_555
O3 N2 1_555 1_555
O4 Cu1 1_555 1_555
C11 H9 1_555 1_555
C12 C11 1_555 1_555
H10 C12 1_555 1_555
C13 C11 1_555 1_555
C14 C12 1_555 1_555
C15 C14 1_555 1_555
H11 C15 1_555 1_555
C16 O4 1_555 1_555
C17 H12 1_555 1_555
O5 C14 1_555 1_555
H13 O5 1_555 1_555
C18 C17 1_555 1_555
H14 C18 1_555 1_555
C19 C18 1_555 1_555
C20 C19 1_555 1_555
H15 C20 1_555 1_555
C21 C13 1_555 1_555
H16 C21 1_555 1_555
O6 C19 1_555 1_555
H17 O6 1_555 1_555
C22 C20 1_555 1_555
H18 C22 1_555 1_555
C23 C24 1_555 1_555
C24 C17 1_555 1_555
O7 C16 1_555 1_555
O8 Cu1 1_555 1_555
H19 O8 1_555 1_555
O9 C23 1_555 1_555
H20 O8 1_555 1_555
Cu1C O3 1_555 1_555
O3C Cu1 1_555 1_555
C1 C3 1_555 1_555
C4 C5 1_555 1_555
C10 N2 1_555 1_555
C13 C16 1_555 1_555
C15 C21 1_555 1_555
C22 C24 1_555 1_555

#END
