
#######################################################################
#
#                 Cambridge Crystallographic Data Centre
#                                CCDC 
#
#######################################################################
#
# If this CIF has been generated from an entry in the Cambridge 
# Structural Database, then it will include bibliographic, chemical, 
# crystal, experimental, refinement or atomic coordinate data resulting 
# from the CCDC's data processing and validation procedures.
#
#######################################################################

data_MUSGEM
_symmetry_cell_setting           triclinic
_symmetry_space_group_name_H-M   'P -1'
_symmetry_Int_Tables_number      2
_space_group_name_Hall           '-P 1'
loop_
_symmetry_equiv_pos_site_id
_symmetry_equiv_pos_as_xyz
1 x,y,z
2 -x,-y,-z
_cell_length_a                   3.932(2)
_cell_length_b                   10.214(3)
_cell_length_c                   13.982(2)
_cell_angle_alpha                104.695(15)
_cell_angle_beta                 93.50(2)
_cell_angle_gamma                95.98(3)
_cell_volume                     537.976
loop_
_atom_site_label
_atom_site_type_symbol
_atom_site_fract_x
_atom_site_fract_y
_atom_site_fract_z
Br1 Br 0.7181(2) 0.12108(8) 0.42808(6)
Cu1 Cu 0.2494(3) 0.12108(11) 0.53750(8)
N1 N 0.4579(18) 0.6794(7) 0.9204(5)
C1 C 0.592(2) 0.8095(9) 0.9432(6)
H1 H 0.5765 0.8617 1.0074
C2 C 0.752(2) 0.8736(8) 0.8790(7)
H2 H 0.8383 0.9656 0.8998
C3 C 0.780(2) 0.7988(8) 0.7842(6)
H3 H 0.8890 0.8386 0.7394
C4 C 0.657(2) 0.5732(8) 0.6584(6)
H4 H 0.7604 0.6098 0.6112
C5 C 0.527(2) 0.4392(8) 0.6329(6)
H5 H 0.5463 0.3852 0.5695
N2 N 0.2237(16) 0.2439(6) 0.6739(5)
C6 C 0.061(2) 0.1917(8) 0.7393(6)
H6 H -0.0341 0.1007 0.7193
C7 C 0.027(2) 0.2646(8) 0.8346(6)
H7 H -0.0892 0.2234 0.8774
C8 C 0.167(2) 0.4001(8) 0.8661(6)
H8 H 0.1497 0.4500 0.9308
C9 C 0.3347(18) 0.4620(7) 0.8001(5)
C10 C 0.4830(18) 0.6039(7) 0.8267(5)
C11 C 0.6412(19) 0.6597(7) 0.7557(6)
C12 C 0.3586(18) 0.3803(7) 0.7035(5)
Br1_2 Br -0.2819(2) 0.12108(8) 0.42808(6)
Br1A Br 0.2819(2) -0.12108(8) 0.57192(6)
Cu1_2 Cu 1.2494(3) 0.12108(11) 0.53750(8)
Cu1A Cu 0.7506(3) -0.12108(11) 0.46250(8)
loop_
_geom_bond_atom_site_label_1
_geom_bond_atom_site_label_2
_geom_bond_site_symmetry_1
_geom_bond_site_symmetry_2
Br1 Cu1 1_555 1_555
Cu1 N2 1_555 1_555
N1 C1 1_555 1_555
C1 H1 1_555 1_555
C2 C1 1_555 1_555
H2 C2 1_555 1_555
C3 C2 1_555 1_555
H3 C3 1_555 1_555
C4 H4 1_555 1_555
C5 C4 1_555 1_555
H5 C5 1_555 1_555
N2 C6 1_555 1_555
C6 H6 1_555 1_555
C7 C6 1_555 1_555
H7 C7 1_555 1_555
C8 C7 1_555 1_555
H8 C8 1_555 1_555
C9 C8 1_555 1_555
C10 N1 1_555 1_555
C11 C3 1_555 1_555
C12 C5 1_555 1_555
Br1_2 Cu1 1_555 1_555
Br1A Cu1 1_555 1_555
Cu1_2 Br1 1_555 1_555
Cu1A Br1 1_555 1_555
C4 C11 1_555 1_555
N2 C12 1_555 1_555
C9 C10 1_555 1_555
C9 C12 1_555 1_555
C10 C11 1_555 1_555
Br1A Cu1A 1_555 1_555

#END
