
#######################################################################
#
#                 Cambridge Crystallographic Data Centre
#                                CCDC 
#
#######################################################################
#
# If this CIF has been generated from an entry in the Cambridge 
# Structural Database, then it will include bibliographic, chemical, 
# crystal, experimental, refinement or atomic coordinate data resulting 
# from the CCDC's data processing and validation procedures.
#
#######################################################################

data_MUSGIQ
_symmetry_cell_setting           orthorhombic
_symmetry_space_group_name_H-M   'P 21 21 21'
_symmetry_Int_Tables_number      19
_space_group_name_Hall           'P 2ac 2ab'
loop_
_symmetry_equiv_pos_site_id
_symmetry_equiv_pos_as_xyz
1 x,y,z
2 1/2-x,-y,1/2+z
3 -x,1/2+y,1/2-z
4 1/2+x,1/2-y,-z
_cell_length_a                   4.2450(9)
_cell_length_b                   12.009(2)
_cell_length_c                   25.575(5)
_cell_angle_alpha                90
_cell_angle_beta                 90
_cell_angle_gamma                90
_cell_volume                     1303.77
loop_
_atom_site_label
_atom_site_type_symbol
_atom_site_fract_x
_atom_site_fract_y
_atom_site_fract_z
I1 I -0.8855(2) -0.72063(7) -0.13754(4)
I2 I -0.27893(19) -0.58959(6) -0.00294(4)
Cu1 Cu -0.3851(5) -0.60114(14) -0.10792(7)
Cu2 Cu -0.7698(5) -0.70712(15) -0.03712(7)
C1 C -0.764(4) -0.3702(12) -0.0836(6)
H1 H -0.7265 -0.4295 -0.0610
N1 N -0.441(3) -0.4572(9) -0.1482(4)
C2 C -0.698(3) -0.2807(11) -0.1700(5)
C3 C -0.630(3) -0.3716(10) -0.1353(5)
C4 C -0.320(3) -0.4572(11) -0.1968(6)
H2 H -0.1856 -0.5153 -0.2060
C5 C -0.941(4) -0.2849(12) -0.0675(5)
H3 H -1.0144 -0.2833 -0.0332
C6 C -1.021(3) -0.1941(11) -0.1032(6)
N2 N -0.966(3) -0.1089(10) -0.1883(5)
C7 C -0.563(3) -0.2872(13) -0.2207(6)
H4 H -0.6010 -0.2300 -0.2444
C8 C -0.384(5) -0.3732(12) -0.2354(6)
H5 H -0.3041 -0.3784 -0.2692
C9 C -0.906(3) -0.1925(10) -0.1538(5)
C10 C -1.147(3) -0.0301(12) -0.1714(7)
H6 H -1.1882 0.0279 -0.1945
C11 C -1.219(3) -0.1066(12) -0.0874(6)
H7 H -1.3023 -0.1054 -0.0538
C12 C -1.289(4) -0.0231(11) -0.1220(6)
H8 H -1.4226 0.0353 -0.1132
Cu1_2 Cu -1.3851(5) -0.60114(14) -0.10792(7)
I2_2 I -1.27893(19) -0.58959(6) -0.00294(4)
I2C I -0.77893(19) -0.91041(6) 0.00294(4)
Cu2C Cu -0.2698(5) -0.79288(15) 0.03712(7)
Cu2_2 Cu 0.2302(5) -0.70712(15) -0.03712(7)
I1_2 I 0.1145(2) -0.72063(7) -0.13754(4)
loop_
_geom_bond_atom_site_label_1
_geom_bond_atom_site_label_2
_geom_bond_site_symmetry_1
_geom_bond_site_symmetry_2
I1 Cu1 1_555 1_555
I2 Cu1 1_555 1_555
Cu1 N1 1_555 1_555
Cu2 I1 1_555 1_555
C1 H1 1_555 1_555
N1 C3 1_555 1_555
C2 C3 1_555 1_555
C3 C1 1_555 1_555
C4 N1 1_555 1_555
H2 C4 1_555 1_555
C5 C1 1_555 1_555
H3 C5 1_555 1_555
C6 C5 1_555 1_555
N2 C9 1_555 1_555
C7 C2 1_555 1_555
H4 C7 1_555 1_555
C8 C4 1_555 1_555
H5 C8 1_555 1_555
C9 C2 1_555 1_555
C10 N2 1_555 1_555
H6 C10 1_555 1_555
C11 C6 1_555 1_555
H7 C11 1_555 1_555
C12 C10 1_555 1_555
H8 C12 1_555 1_555
Cu1_2 I1 1_555 1_555
I2_2 Cu2 1_555 1_555
I2C Cu2 1_555 1_555
Cu2C I2 1_555 1_555
Cu2_2 I2 1_555 1_555
I1_2 Cu1 1_555 1_555
I2 Cu2 1_555 1_555
C6 C9 1_555 1_555
C7 C8 1_555 1_555
C11 C12 1_555 1_555
Cu1_2 I2_2 1_555 1_555
I2C Cu2C 1_555 1_555
Cu2_2 I1_2 1_555 1_555

#END
