
#######################################################################
#
#                 Cambridge Crystallographic Data Centre
#                                CCDC 
#
#######################################################################
#
# If this CIF has been generated from an entry in the Cambridge 
# Structural Database, then it will include bibliographic, chemical, 
# crystal, experimental, refinement or atomic coordinate data resulting 
# from the CCDC's data processing and validation procedures.
#
#######################################################################

data_MUSHAJ
_symmetry_cell_setting           monoclinic
_symmetry_space_group_name_H-M   'C c'
_symmetry_Int_Tables_number      9
_space_group_name_Hall           'C -2yc'
loop_
_symmetry_equiv_pos_site_id
_symmetry_equiv_pos_as_xyz
1 x,y,z
2 x,-y,1/2+z
3 1/2+x,1/2+y,z
4 1/2+x,1/2-y,1/2+z
_cell_length_a                   4.0111(8)
_cell_length_b                   19.694(4)
_cell_length_c                   12.916(3)
_cell_angle_alpha                90
_cell_angle_beta                 91.00(3)
_cell_angle_gamma                90
_cell_volume                     1020.14
loop_
_atom_site_label
_atom_site_type_symbol
_atom_site_fract_x
_atom_site_fract_y
_atom_site_fract_z
Br1 Br 0.7578(5) -0.12833(12) -0.9218(2)
Cu1 Cu 0.2861(7) -0.17070(15) -0.8182(2)
C1 C 0.171(8) -0.0358(13) -0.505(2)
H1 H 0.1452 -0.0098 -0.4454
C2 C 0.041(8) -0.0128(13) -0.602(2)
H2 H -0.0704 0.0284 -0.6087
C3 C 0.089(7) -0.0548(13) -0.6874(19)
H3 H -0.0090 -0.0420 -0.7502
N1 N 0.267(6) -0.1130(8) -0.6849(14)
C4 C 0.595(7) -0.1932(12) -0.5883(17)
H4 H 0.6616 -0.2128 -0.6501
C5 C 0.682(7) -0.2224(15) -0.5014(18)
H5 H 0.7993 -0.2631 -0.5023
N2 N 0.687(6) -0.2253(10) -0.3152(15)
C6 C 0.621(8) -0.1945(17) -0.2251(19)
H6 H 0.6804 -0.2167 -0.1640
C7 C 0.468(8) -0.1302(11) -0.218(2)
H7 H 0.4265 -0.1110 -0.1537
C8 C 0.383(7) -0.0968(13) -0.307(2)
H8 H 0.2840 -0.0541 -0.3037
C9 C 0.442(6) -0.1258(11) -0.3991(19)
C10 C 0.333(8) -0.0965(12) -0.501(2)
C11 C 0.399(7) -0.1310(12) -0.5925(18)
C12 C 0.595(7) -0.1918(12) -0.4024(19)
Br1_2 Br -0.2422(5) -0.12833(12) -0.9218(2)
N2C N 0.187(6) -0.2747(10) -0.8152(15)
Cu1C Cu 0.7861(7) -0.32930(15) -0.3182(2)
Cu1_2 Cu 1.2861(7) -0.17070(15) -0.8182(2)
loop_
_geom_bond_atom_site_label_1
_geom_bond_atom_site_label_2
_geom_bond_site_symmetry_1
_geom_bond_site_symmetry_2
Br1 Cu1 1_555 1_555
Cu1 N1 1_555 1_555
C1 H1 1_555 1_555
C2 C1 1_555 1_555
H2 C2 1_555 1_555
C3 C2 1_555 1_555
H3 C3 1_555 1_555
N1 C3 1_555 1_555
C4 H4 1_555 1_555
C5 C4 1_555 1_555
H5 C5 1_555 1_555
N2 C6 1_555 1_555
C6 H6 1_555 1_555
C7 C6 1_555 1_555
H7 C7 1_555 1_555
C8 C7 1_555 1_555
H8 C8 1_555 1_555
C9 C8 1_555 1_555
C10 C1 1_555 1_555
C11 N1 1_555 1_555
C12 C5 1_555 1_555
Br1_2 Cu1 1_555 1_555
N2C Cu1 1_555 1_555
Cu1C N2 1_555 1_555
Cu1_2 Br1 1_555 1_555
C4 C11 1_555 1_555
N2 C12 1_555 1_555
C9 C10 1_555 1_555
C9 C12 1_555 1_555
C10 C11 1_555 1_555

#END
