
#######################################################################
#
#                 Cambridge Crystallographic Data Centre
#                                CCDC 
#
#######################################################################
#
# If this CIF has been generated from an entry in the Cambridge 
# Structural Database, then it will include bibliographic, chemical, 
# crystal, experimental, refinement or atomic coordinate data resulting 
# from the CCDC's data processing and validation procedures.
#
#######################################################################

data_MUSHEN
_symmetry_cell_setting           orthorhombic
_symmetry_space_group_name_H-M   'C c c a'
_symmetry_Int_Tables_number      68
_space_group_name_Hall           '-C 2b 2bc'
loop_
_symmetry_equiv_pos_site_id
_symmetry_equiv_pos_as_xyz
1 x,y,z
2 1/2+x,1/2+y,z
3 1/2+x,y,-z
4 x,-y,1/2+z
5 1/2-x,y,1/2+z
6 x,1/2+y,-z
7 1/2+x,1/2-y,1/2+z
8 -x,1/2+y,1/2+z
9 -x,-y,-z
10 1/2-x,1/2-y,-z
11 1/2-x,-y,z
12 -x,y,1/2-z
13 1/2+x,-y,1/2-z
14 -x,1/2-y,z
15 1/2-x,1/2+y,1/2-z
16 x,1/2-y,1/2-z
_cell_length_a                   8.9207(15)
_cell_length_b                   17.396(3)
_cell_length_c                   14.186(2)
_cell_angle_alpha                90
_cell_angle_beta                 90
_cell_angle_gamma                90
_cell_volume                     2201.45
loop_
_atom_site_label
_atom_site_type_symbol
_atom_site_fract_x
_atom_site_fract_y
_atom_site_fract_z
I1 I 0.25848(5) -0.2500 0.2500
Cu1 Cu 0.0000 -0.17453(4) 0.2500
C1 C 0.0147(7) -0.1462(3) 0.0421(3)
H1 H 0.0873 -0.1845 0.0460
N1 N -0.0362(4) -0.1156(2) 0.1212(3)
C2 C -0.0352(6) -0.1239(3) -0.0466(4)
H2 H 0.0018 -0.1476 -0.1006
C3 C -0.1945(6) -0.0311(3) 0.0289(3)
C4 C -0.3580(6) 0.0593(3) 0.1156(3)
C5 C -0.1397(6) -0.0664(3) -0.0533(3)
H3 H -0.3257 0.0508 -0.1121
C6 C -0.3015(7) 0.0276(3) 0.2009(3)
H4 H -0.1624 -0.0460 0.2581
I1K I -0.25848(5) -0.2500 0.2500
Cu1M Cu 0.0000 -0.32547(4) 0.2500
C3J C -0.3055(6) 0.0311(3) 0.0289(3)
N1J N -0.4638(4) 0.1156(2) 0.1212(3)
Cu1J Cu -0.5000 0.17453(4) 0.2500
C1J C -0.5147(7) 0.1462(3) 0.0421(3)
H1J H -0.5873 0.1845 0.0460
C2J C -0.4648(6) 0.1239(3) -0.0466(4)
H2J H -0.5018 0.1476 -0.1006
C5J C -0.3603(6) 0.0664(3) -0.0533(3)
C6J C -0.1985(7) -0.0276(3) 0.2009(3)
C4J C -0.1420(6) -0.0593(3) 0.1156(3)
H4J H -0.3376 0.0460 0.2581
H3J H -0.1743 -0.0508 -0.1121
N1K N 0.0362(4) -0.1156(2) 0.3788(3)
loop_
_geom_bond_atom_site_label_1
_geom_bond_atom_site_label_2
_geom_bond_site_symmetry_1
_geom_bond_site_symmetry_2
I1 Cu1 1_555 1_555
Cu1 N1 1_555 1_555
C1 H1 1_555 1_555
N1 C1 1_555 1_555
C2 C1 1_555 1_555
H2 C2 1_555 1_555
C3 C5 1_555 1_555
C4 C6 1_555 1_555
C5 C2 1_555 1_555
H3 C5J 1_555 1_555
C6 C6J 1_555 1_555
H4 C6J 1_555 1_555
I1K Cu1 1_555 1_555
Cu1M I1 1_555 1_555
C3J C3 1_555 1_555
N1J C4 1_555 1_555
Cu1J N1J 1_555 1_555
C1J N1J 1_555 1_555
H1J C1J 1_555 1_555
C2J C1J 1_555 1_555
H2J C2J 1_555 1_555
C5J C3J 1_555 1_555
C6J C4J 1_555 1_555
C4J N1 1_555 1_555
H4J C6 1_555 1_555
H3J C5 1_555 1_555
N1K Cu1 1_555 1_555
C3 C4J 1_555 1_555
C4 C3J 1_555 1_555
I1K Cu1M 1_555 1_555
C2J C5J 1_555 1_555

#END
