
#######################################################################
#
#                 Cambridge Crystallographic Data Centre
#                                CCDC 
#
#######################################################################
#
# If this CIF has been generated from an entry in the Cambridge 
# Structural Database, then it will include bibliographic, chemical, 
# crystal, experimental, refinement or atomic coordinate data resulting 
# from the CCDC's data processing and validation procedures.
#
#######################################################################

data_MUSLOC
_symmetry_cell_setting           monoclinic
_symmetry_space_group_name_H-M   'P 21/n'
_symmetry_Int_Tables_number      14
_space_group_name_Hall           '-P 2yn'
loop_
_symmetry_equiv_pos_site_id
_symmetry_equiv_pos_as_xyz
1 x,y,z
2 1/2-x,1/2+y,1/2-z
3 -x,-y,-z
4 1/2+x,1/2-y,1/2+z
_cell_length_a                   14.0620(16)
_cell_length_b                   9.4836(11)
_cell_length_c                   14.4585(17)
_cell_angle_alpha                90
_cell_angle_beta                 109.898(2)
_cell_angle_gamma                90
_cell_volume                     1813.05
loop_
_atom_site_label
_atom_site_type_symbol
_atom_site_fract_x
_atom_site_fract_y
_atom_site_fract_z
Cu1 Cu 0.312079(15) 0.07873(2) 0.198378(14)
O1 O 0.19442(9) 0.02579(13) 0.23121(9)
O2 O 0.24644(9) -0.18519(13) 0.29950(9)
O3 O 0.41574(13) -0.16462(17) 0.23576(12)
N1 N 0.09376(11) -0.37950(16) 0.16734(11)
N2 N 0.07249(11) -0.35022(15) 0.34335(11)
N3 N 0.24799(12) -0.47633(16) 0.44264(11)
C1 C -0.02282(13) -0.3703(2) 0.25832(13)
H1 H -0.0737 -0.3000 0.2614
H2 H -0.0505 -0.4655 0.2613
C2 C -0.00213(13) -0.35349(18) 0.16278(13)
C3 C -0.07687(14) -0.31788(19) 0.07522(14)
H3 H -0.1439 -0.2992 0.0733
C4 C -0.05205(15) -0.30989(19) -0.00997(14)
H4 H -0.1022 -0.2864 -0.0710
C5 C 0.04636(15) -0.33653(19) -0.00490(13)
H5 H 0.0646 -0.3318 -0.0623
C6 C 0.11762(14) -0.37009(18) 0.08488(13)
H6 H 0.1854 -0.3870 0.0886
C7 C 0.07443(14) -0.43789(19) 0.42921(14)
H7 H 0.0381 -0.5275 0.4060
H8 H 0.0398 -0.3874 0.4686
C8 C 0.18184(15) -0.46835(19) 0.49193(13)
C9 C 0.21174(17) -0.4951(2) 0.59206(15)
H9 H 0.1652 -0.4851 0.6263
C10 C 0.31081(19) -0.5369(2) 0.64163(15)
H10 H 0.3326 -0.5571 0.7100
C11 C 0.37728(17) -0.5488(2) 0.59034(15)
H11 H 0.4450 -0.5788 0.6226
C12 C 0.34357(15) -0.51599(19) 0.49107(14)
H12 H 0.3897 -0.5218 0.4561
C13 C 0.08706(14) -0.20038(18) 0.37787(13)
H13 H 0.1517 -0.1938 0.4336
H14 H 0.0321 -0.1755 0.4032
C14 C 0.08855(13) -0.09191(18) 0.30132(13)
H15 H 0.0770 0.0023 0.3250
H16 H 0.0313 -0.1116 0.2402
C15 C 0.18482(12) -0.08606(17) 0.27630(12)
H17 H 0.435(2) -0.215(3) 0.204(2)
H18 H 0.364(3) -0.198(3) 0.246(2)
Cu1A Cu 0.187921(15) -0.42127(2) 0.301622(14)
O2A O 0.25356(9) 0.31481(13) 0.20050(9)
N1A N 0.40624(11) 0.12050(16) 0.33266(11)
N2A N 0.42751(11) 0.14978(15) 0.15665(11)
N3A N 0.25201(12) 0.02367(16) 0.05736(11)
F1 F 0.63591(15) 0.3667(3) 0.1171(2)
F2 F 0.69271(15) 0.58965(18) 0.12176(13)
F3 F 0.71078(18) 0.4366(2) 0.01071(13)
F4 F 0.80100(13) 0.40686(17) 0.16940(14)
B1 B 0.70992(19) 0.4479(3) 0.10477(19)
O4 O 0.49768(17) 0.71593(18) 0.09755(14)
H19 H 0.550(3) 0.679(3) 0.106(2)
H20 H 0.452(3) 0.687(4) 0.049(3)
loop_
_geom_bond_atom_site_label_1
_geom_bond_atom_site_label_2
_geom_bond_site_symmetry_1
_geom_bond_site_symmetry_2
Cu1 O1 1_555 1_555
F1 B1 1_555 1_555
F2 B1 1_555 1_555
F3 B1 1_555 1_555
F4 B1 1_555 1_555
O1 C15 1_555 1_555
O2 C15 1_555 1_555
O3 Cu1 1_555 1_555
O4 H19 1_555 1_555
N1 C2 1_555 1_555
N2 C1 1_555 1_555
N3 C8 1_555 1_555
C1 H1 1_555 1_555
H2 C1 1_555 1_555
C2 C1 1_555 1_555
C3 C2 1_555 1_555
H3 C3 1_555 1_555
C4 C3 1_555 1_555
H4 C4 1_555 1_555
C5 C4 1_555 1_555
H5 C5 1_555 1_555
C6 N1 1_555 1_555
H6 C6 1_555 1_555
C7 N2 1_555 1_555
H7 C7 1_555 1_555
H8 C7 1_555 1_555
C8 C7 1_555 1_555
C9 C8 1_555 1_555
H9 C9 1_555 1_555
C10 C9 1_555 1_555
H10 C10 1_555 1_555
C11 C10 1_555 1_555
H11 C11 1_555 1_555
C12 N3 1_555 1_555
H12 C12 1_555 1_555
C13 N2 1_555 1_555
H13 C13 1_555 1_555
H14 C13 1_555 1_555
C14 C13 1_555 1_555
H15 C14 1_555 1_555
H16 C14 1_555 1_555
C15 C14 1_555 1_555
H17 O3 1_555 1_555
H18 O3 1_555 1_555
H20 O4 1_555 1_555
Cu1A O2 1_555 1_555
O2A Cu1 1_555 1_555
N1A Cu1 1_555 1_555
N2A Cu1 1_555 1_555
N3A Cu1 1_555 1_555
N1 Cu1A 1_555 1_555
N2 Cu1A 1_555 1_555
N3 Cu1A 1_555 1_555
C5 C6 1_555 1_555
C11 C12 1_555 1_555

#END
