
#######################################################################
#
#                 Cambridge Crystallographic Data Centre
#                                CCDC 
#
#######################################################################
#
# If this CIF has been generated from an entry in the Cambridge 
# Structural Database, then it will include bibliographic, chemical, 
# crystal, experimental, refinement or atomic coordinate data resulting 
# from the CCDC's data processing and validation procedures.
#
#######################################################################

data_MUSMIX
_symmetry_cell_setting           monoclinic
_symmetry_space_group_name_H-M   'P 21/c'
_symmetry_Int_Tables_number      14
_space_group_name_Hall           '-P 2ybc'
loop_
_symmetry_equiv_pos_site_id
_symmetry_equiv_pos_as_xyz
1 x,y,z
2 -x,1/2+y,1/2-z
3 -x,-y,-z
4 x,1/2-y,1/2+z
_cell_length_a                   23.616(3)
_cell_length_b                   8.0844(11)
_cell_length_c                   5.3986(7)
_cell_angle_alpha                90
_cell_angle_beta                 94.847(2)
_cell_angle_gamma                90
_cell_volume                     1027.02
loop_
_atom_site_label
_atom_site_type_symbol
_atom_site_fract_x
_atom_site_fract_y
_atom_site_fract_z
Cu1 Cu 0.998678(8) 0.81834(3) 0.49412(4)
P1 P 0.92824(2) 0.50058(5) 0.39382(10)
O1 O 0.54228(7) 0.5693(3) 0.2559(4)
O2 O 0.56417(7) 0.4187(3) -0.0721(3)
H1 H 0.5288 0.4229 -0.1060
O3 O 0.94133(6) 0.65760(17) 0.5452(3)
O4 O 0.95859(7) 0.49949(13) 0.1465(3)
O5 O 0.94345(6) 0.34450(17) 0.5458(3)
C1 C 0.85356(9) 0.49455(19) 0.2993(4)
C2 C 0.83589(8) 0.4128(2) 0.0732(4)
C3 C 0.77935(8) 0.3955(2) -0.0003(4)
C4 C 0.73736(8) 0.4579(3) 0.1479(4)
C5 C 0.75482(8) 0.5410(2) 0.3744(4)
C6 C 0.81369(8) 0.5592(2) 0.4454(3)
C7 C 0.67854(8) 0.4394(3) 0.0755(4)
C8 C 0.63862(10) 0.5040(2) 0.2191(5)
C9 C 0.65567(9) 0.5853(3) 0.4458(4)
C10 C 0.71210(8) 0.6027(2) 0.5210(4)
C11 C 0.57733(11) 0.4959(3) 0.1297(5)
H2 H 0.8612(11) 0.369(3) -0.032(5)
H3 H 0.7669(11) 0.339(3) -0.149(5)
H4 H 0.8253(10) 0.619(3) 0.598(4)
H5 H 0.6669(11) 0.380(3) -0.077(5)
H6 H 0.6289(12) 0.628(4) 0.545(5)
H7 H 0.7218(11) 0.654(3) 0.674(5)
Cu1B Cu 1.001322(8) 1.18166(3) 0.50588(4)
Cu1C Cu 0.998678(8) 0.68166(3) 0.99412(4)
Cu1C_2 Cu 0.998678(8) 0.68166(3) -0.00588(4)
Cu1A Cu 1.001322(8) 0.31834(3) 0.00588(4)
Cu1A_2 Cu 1.001322(8) 0.31834(3) 1.00588(4)
Cu1B_2 Cu 1.001322(8) 0.18166(3) 0.50588(4)
O3C O 0.94133(6) 0.84240(17) 0.0452(3)
O4A O 1.04141(7) 0.99949(13) 0.3535(3)
O4C O 0.95859(7) 1.00051(13) 0.6465(3)
O5A O 1.05655(6) 0.84450(17) 0.9542(3)
O5B O 1.05655(6) 0.65550(17) 0.4542(3)
loop_
_geom_bond_atom_site_label_1
_geom_bond_atom_site_label_2
_geom_bond_site_symmetry_1
_geom_bond_site_symmetry_2
Cu1 O3 1_555 1_555
P1 O3 1_555 1_555
O1 C11 1_555 1_555
O2 H1 1_555 1_555
O3 Cu1C 1_555 1_555
O4 P1 1_555 1_555
O5 P1 1_555 1_555
C1 P1 1_555 1_555
C2 C1 1_555 1_555
C3 C2 1_555 1_555
C4 C3 1_555 1_555
C5 C4 1_555 1_555
C6 C1 1_555 1_555
C7 C4 1_555 1_555
C8 C7 1_555 1_555
C9 C8 1_555 1_555
C10 C5 1_555 1_555
C11 O2 1_555 1_555
H2 C2 1_555 1_555
H3 C3 1_555 1_555
H4 C6 1_555 1_555
H5 C7 1_555 1_555
H6 C9 1_555 1_555
H7 C10 1_555 1_555
Cu1B O4A 1_555 1_555
Cu1C O5A 1_555 1_555
Cu1C_2 O4 1_555 1_555
Cu1A O4 1_555 1_555
Cu1A_2 O5 1_555 1_555
Cu1B_2 O5 1_555 1_555
O3C Cu1 1_555 1_555
O4A Cu1 1_555 1_555
O4C Cu1 1_555 1_555
O5A Cu1 1_555 1_555
O5B Cu1 1_555 1_555
C5 C6 1_555 1_555
C8 C11 1_555 1_555
C9 C10 1_555 1_555
Cu1B O4C 1_555 1_555
Cu1C_2 O3C 1_555 1_555
Cu1C_2 O5B 1_555 1_555

#END
