
#######################################################################
#
#                 Cambridge Crystallographic Data Centre
#                                CCDC 
#
#######################################################################
#
# If this CIF has been generated from an entry in the Cambridge 
# Structural Database, then it will include bibliographic, chemical, 
# crystal, experimental, refinement or atomic coordinate data resulting 
# from the CCDC's data processing and validation procedures.
#
#######################################################################

data_MUSNIY
_symmetry_cell_setting           monoclinic
_symmetry_space_group_name_H-M   'P 21/c'
_symmetry_Int_Tables_number      14
_space_group_name_Hall           '-P 2ybc'
loop_
_symmetry_equiv_pos_site_id
_symmetry_equiv_pos_as_xyz
1 x,y,z
2 -x,1/2+y,1/2-z
3 -x,-y,-z
4 x,1/2-y,1/2+z
_cell_length_a                   9.2914(3)
_cell_length_b                   15.3150(4)
_cell_length_c                   13.8229(3)
_cell_angle_alpha                90
_cell_angle_beta                 124.373(2)
_cell_angle_gamma                90
_cell_volume                     1623.5
loop_
_atom_site_label
_atom_site_type_symbol
_atom_site_fract_x
_atom_site_fract_y
_atom_site_fract_z
Ni1 Ni 0.418085(18) 0.122149(8) 0.181813(12)
N1 N 0.18250(14) 0.10613(7) 0.17022(10)
N2 N 0.28303(14) 0.19510(7) 0.02389(9)
N3 N 0.55500(13) 0.05072(6) 0.33981(9)
N4 N 0.64837(14) 0.13723(7) 0.18927(9)
N5 N 0.47885(14) 0.23584(6) 0.28541(9)
N6 N 0.56801(16) 0.35237(7) 0.43235(9)
N7 N 0.63969(14) 0.50411(6) 0.41517(9)
C1 C 0.05863(16) 0.18036(8) 0.12858(11)
H1 H 0.1127 0.2282 0.1839
H2 H -0.0442 0.1625 0.1253
C2 C 0.00450(16) 0.21166(8) 0.00804(11)
H3 H -0.0357 0.1618 -0.0442
H4 H -0.0932 0.2514 -0.0220
C3 C 0.14700(16) 0.25740(7) 0.00511(10)
H5 H 0.0959 0.2860 -0.0701
H6 H 0.2003 0.3019 0.0655
C4 C 0.69874(15) -0.00851(7) 0.36581(10)
H7 H 0.6511 -0.0570 0.3112
H8 H 0.7531 -0.0320 0.4442
C5 C 0.83611(16) 0.03717(8) 0.35733(10)
H9 H 0.9353 -0.0016 0.3881
H10 H 0.8755 0.0885 0.4071
C6 C 0.77720(16) 0.06513(8) 0.23464(11)
H11 H 0.8779 0.0838 0.2358
H12 H 0.7258 0.0155 0.1822
C7 C 0.52307(15) 0.29299(7) 0.35158(10)
C8 C 0.60553(15) 0.43163(7) 0.41832(9)
H13 H 0.210(3) 0.0884(13) 0.2388(18)
H14 H 0.136(3) 0.0603(13) 0.1227(18)
H15 H 0.237(2) 0.1601(13) -0.0326(17)
H16 H 0.360(3) 0.2239(12) 0.0185(16)
H17 H 0.484(2) 0.0229(12) 0.3467(15)
H18 H 0.595(2) 0.0888(13) 0.3944(16)
H19 H 0.618(2) 0.1505(13) 0.1200(17)
H20 H 0.698(2) 0.1827(12) 0.2309(15)
Ni1A Ni 0.581915(18) 0.622149(8) 0.318187(12)
N7A N 0.36031(14) 0.00411(6) 0.08483(9)
P1 P 0.79764(4) 0.115684(19) 0.67480(3)
F1 F 0.61919(13) 0.15978(6) 0.57046(8)
F2 F 0.97401(12) 0.07141(6) 0.77893(8)
F3 F 0.71402(12) 0.10383(6) 0.74841(8)
F4 F 0.87715(14) 0.12654(5) 0.59873(9)
F5 F 0.87199(11) 0.20935(5) 0.73344(7)
F6 F 0.72412(12) 0.02075(5) 0.61673(7)
loop_
_geom_bond_atom_site_label_1
_geom_bond_atom_site_label_2
_geom_bond_site_symmetry_1
_geom_bond_site_symmetry_2
Ni1 N1 1_555 1_555
P1 F1 1_555 1_555
F2 P1 1_555 1_555
F3 P1 1_555 1_555
F4 P1 1_555 1_555
F5 P1 1_555 1_555
F6 P1 1_555 1_555
N1 C1 1_555 1_555
N2 Ni1 1_555 1_555
N3 Ni1 1_555 1_555
N4 Ni1 1_555 1_555
N5 Ni1 1_555 1_555
N6 C7 1_555 1_555
N7 C8 1_555 1_555
C1 H1 1_555 1_555
H2 C1 1_555 1_555
C2 C1 1_555 1_555
H3 C2 1_555 1_555
H4 C2 1_555 1_555
C3 N2 1_555 1_555
H5 C3 1_555 1_555
H6 C3 1_555 1_555
C4 N3 1_555 1_555
H7 C4 1_555 1_555
H8 C4 1_555 1_555
C5 C4 1_555 1_555
H9 C5 1_555 1_555
H10 C5 1_555 1_555
C6 N4 1_555 1_555
H11 C6 1_555 1_555
H12 C6 1_555 1_555
C7 N5 1_555 1_555
C8 N6 1_555 1_555
H13 N1 1_555 1_555
H14 N1 1_555 1_555
H15 N2 1_555 1_555
H16 N2 1_555 1_555
H17 N3 1_555 1_555
H18 N3 1_555 1_555
H19 N4 1_555 1_555
H20 N4 1_555 1_555
Ni1A N7 1_555 1_555
N7A Ni1 1_555 1_555
C2 C3 1_555 1_555
C5 C6 1_555 1_555

#END
