
#######################################################################
#
#                 Cambridge Crystallographic Data Centre
#                                CCDC 
#
#######################################################################
#
# If this CIF has been generated from an entry in the Cambridge 
# Structural Database, then it will include bibliographic, chemical, 
# crystal, experimental, refinement or atomic coordinate data resulting 
# from the CCDC's data processing and validation procedures.
#
#######################################################################

data_MUSNAQ
_symmetry_cell_setting           monoclinic
_symmetry_space_group_name_H-M   'P 21/c'
_symmetry_Int_Tables_number      14
_space_group_name_Hall           '-P 2ybc'
loop_
_symmetry_equiv_pos_site_id
_symmetry_equiv_pos_as_xyz
1 x,y,z
2 -x,1/2+y,1/2-z
3 -x,-y,-z
4 x,1/2-y,1/2+z
_cell_length_a                   12.5906(2)
_cell_length_b                   7.5253(2)
_cell_length_c                   11.2689(2)
_cell_angle_alpha                90
_cell_angle_beta                 100.262(1)
_cell_angle_gamma                90
_cell_volume                     1050.63
loop_
_atom_site_label
_atom_site_type_symbol
_atom_site_fract_x
_atom_site_fract_y
_atom_site_fract_z
Ni1 Ni 0.260600(12) 0.20586(2) 0.448264(14)
N1 N 0.17399(9) 0.10165(16) 0.57465(11)
N2 N 0.36188(9) -0.01608(16) 0.47292(11)
N3 N 0.36001(9) 0.34440(16) 0.58472(10)
N4 N 0.64219(9) 0.67535(16) 0.66316(10)
N5 N 0.49003(9) 0.51959(17) 0.72917(10)
N6 N 0.15235(9) 0.41559(16) 0.41304(11)
N7 N -0.00446(10) 0.61190(18) 0.35761(12)
N8 N -0.16249(9) 0.57776(17) 0.19653(10)
C1 C 0.14956(11) -0.09113(19) 0.57215(13)
H1 H 0.1036 -0.1206 0.4962
H2 H 0.1104 -0.1191 0.6366
C2 C 0.25181(11) -0.20343(19) 0.58690(13)
H3 H 0.3001 -0.1657 0.6594
H4 H 0.2328 -0.3264 0.5981
C3 C 0.31180(11) -0.19300(19) 0.48129(13)
H5 H 0.3675 -0.2835 0.4906
H6 H 0.2619 -0.2170 0.4070
C4 C 0.42285(10) 0.42747(18) 0.64874(11)
C5 C 0.56964(10) 0.60012(18) 0.68902(11)
C6 C 0.07631(10) 0.50084(18) 0.38234(12)
C7 C -0.08545(10) 0.58299(18) 0.26989(12)
H7 H 0.1138(16) 0.163(3) 0.5667(17)
H8 H 0.2059(15) 0.131(3) 0.6418(18)
H9 H 0.3934(15) -0.016(3) 0.4114(19)
H10 H 0.4067(15) 0.003(3) 0.5350(17)
Ni1B Ni 0.739400(12) 0.79414(2) 0.551736(14)
Ni1A Ni -0.260600(12) 0.70586(2) 0.051736(14)
N4B N 0.35781(9) 0.32465(16) 0.33684(10)
N8A N 0.16249(9) 0.07776(17) 0.30347(10)
loop_
_geom_bond_atom_site_label_1
_geom_bond_atom_site_label_2
_geom_bond_site_symmetry_1
_geom_bond_site_symmetry_2
Ni1 N1 1_555 1_555
N1 C1 1_555 1_555
N2 Ni1 1_555 1_555
N3 Ni1 1_555 1_555
N4 C5 1_555 1_555
N5 C4 1_555 1_555
N6 Ni1 1_555 1_555
N7 C6 1_555 1_555
N8 C7 1_555 1_555
C1 H1 1_555 1_555
H2 C1 1_555 1_555
C2 C1 1_555 1_555
H3 C2 1_555 1_555
H4 C2 1_555 1_555
C3 N2 1_555 1_555
H5 C3 1_555 1_555
H6 C3 1_555 1_555
C4 N3 1_555 1_555
C5 N5 1_555 1_555
C6 N6 1_555 1_555
C7 N7 1_555 1_555
H7 N1 1_555 1_555
H8 N1 1_555 1_555
H9 N2 1_555 1_555
H10 N2 1_555 1_555
Ni1B N4 1_555 1_555
Ni1A N8 1_555 1_555
N4B Ni1 1_555 1_555
N8A Ni1 1_555 1_555
C2 C3 1_555 1_555

#END
