
#######################################################################
#
#                 Cambridge Crystallographic Data Centre
#                                CCDC 
#
#######################################################################
#
# If this CIF has been generated from an entry in the Cambridge 
# Structural Database, then it will include bibliographic, chemical, 
# crystal, experimental, refinement or atomic coordinate data resulting 
# from the CCDC's data processing and validation procedures.
#
#######################################################################

data_MUSQEW
_symmetry_cell_setting           monoclinic
_symmetry_space_group_name_H-M   'C 2/c'
_symmetry_Int_Tables_number      15
_space_group_name_Hall           '-C 2yn'
loop_
_symmetry_equiv_pos_site_id
_symmetry_equiv_pos_as_xyz
1 x,y,z
2 1/2+x,1/2+y,z
3 x,-y,1/2+z
4 1/2+x,1/2-y,1/2+z
5 -x,-y,-z
6 1/2-x,1/2-y,-z
7 -x,y,1/2-z
8 1/2-x,1/2+y,1/2-z
_cell_length_a                   13.705(5)
_cell_length_b                   9.710(3)
_cell_length_c                   36.719(12)
_cell_angle_alpha                90
_cell_angle_beta                 97.051(4)
_cell_angle_gamma                90
_cell_volume                     4849.45
loop_
_atom_site_label
_atom_site_type_symbol
_atom_site_fract_x
_atom_site_fract_y
_atom_site_fract_z
Ag1 Ag 0.614627(16) 0.21568(2) 0.520102(6)
N1 N 0.65690(15) 0.1338(2) 0.57456(6)
N2 N 0.63780(15) 0.0056(2) 0.58661(5)
C1 C 0.67092(19) -0.0093(3) 0.62235(7)
H1 H 0.6666 -0.0905 0.6365
C2 C 0.7121(2) 0.1133(3) 0.63479(7)
H2 H 0.7410 0.1349 0.6590
C3 C 0.70237(19) 0.1991(3) 0.60409(7)
H3 H 0.7249 0.2916 0.6041
C4 C 0.59332(19) -0.0994(3) 0.56093(7)
H4 H 0.5595 -0.0536 0.5388
H5 H 0.5435 -0.1516 0.5726
C5 C 0.66966(19) -0.1983(3) 0.54970(8)
H6 H 0.7005 -0.2486 0.5716
H7 H 0.7218 -0.1457 0.5394
C6 C 0.62342(19) -0.3023(3) 0.52095(7)
H8 H 0.5967 -0.2522 0.4984
H9 H 0.6749 -0.3661 0.5145
N3 N 0.54490(15) -0.3814(2) 0.53446(5)
N4 N 0.55104(16) 0.3474(2) 0.47537(6)
C7 C 0.6016(2) 0.4336(3) 0.45658(7)
H10 H 0.6712 0.4338 0.4576
C8 C 0.5398(2) 0.5228(3) 0.43538(7)
H11 H 0.5581 0.5945 0.4200
C9 C 0.5530(2) -0.4861(3) 0.55873(7)
H12 H 0.6125 -0.5269 0.5697
N7 N 0.67895(16) 0.0261(2) 0.45391(6)
O1 O 0.72598(15) 0.1142(2) 0.47420(6)
O2 O 0.61215(16) -0.0382(2) 0.46589(7)
O3 O 0.70182(16) 0.0053(2) 0.42264(5)
N4D N 0.44896(16) -0.3474(2) 0.52463(6)
Ag1D Ag 0.385373(16) -0.21568(2) 0.479898(6)
N1D N 0.34310(15) -0.1338(2) 0.42544(6)
N2D N 0.36220(15) -0.0056(2) 0.41339(5)
C1D C 0.32908(19) 0.0093(3) 0.37765(7)
H1D H 0.3334 0.0905 0.3635
C2D C 0.2879(2) -0.1133(3) 0.36521(7)
H2D H 0.2590 -0.1349 0.3410
C3D C 0.29763(19) -0.1991(3) 0.39591(7)
H3D H 0.2751 -0.2916 0.3959
C4D C 0.40668(19) 0.0994(3) 0.43907(7)
H4D H 0.4405 0.0536 0.4612
H5D H 0.4565 0.1516 0.4274
C5D C 0.33034(19) 0.1983(3) 0.45030(8)
H6D H 0.2995 0.2486 0.4284
H7D H 0.2782 0.1457 0.4606
C6D C 0.37658(19) 0.3023(3) 0.47905(7)
H8D H 0.4033 0.2522 0.5016
H9D H 0.3251 0.3661 0.4855
N3D N 0.45510(15) 0.3814(2) 0.46554(5)
C9D C 0.4470(2) 0.4861(3) 0.44127(7)
H12D H 0.3875 0.5269 0.4303
O1D O 0.27402(15) -0.1142(2) 0.52580(6)
N7D N 0.32105(16) -0.0261(2) 0.54609(6)
O2D O 0.38785(16) 0.0382(2) 0.53411(7)
O3D O 0.29818(16) -0.0053(2) 0.57736(5)
C7D C 0.3984(2) -0.4336(3) 0.54342(7)
H10D H 0.3288 -0.4338 0.5424
C8D C 0.4602(2) -0.5228(3) 0.56462(7)
H11D H 0.4419 -0.5945 0.5800
Ag2 Ag 0.234314(15) 0.24589(2) 0.714496(6)
N5 N 0.35454(16) 0.2656(2) 0.67743(6)
N6 N 0.44354(15) 0.3276(2) 0.68353(5)
C10 C 0.5017(2) 0.2912(3) 0.65808(7)
H13 H 0.5673 0.3209 0.6571
C11 C 0.4488(2) 0.2033(3) 0.63390(7)
H14 H 0.4694 0.1607 0.6128
C12 C 0.35842(19) 0.1906(3) 0.64706(7)
H15 H 0.3058 0.1354 0.6359
C13 C 0.46826(19) 0.4131(3) 0.71624(6)
H16 H 0.4103 0.4689 0.7206
H17 H 0.5222 0.4769 0.7122
C14 C 0.5000 0.3245(4) 0.7500
H18 H 0.5537 0.2663 0.7451
N8 N 0.26253(15) 0.4131(2) 0.78537(6)
O4 O 0.25972(15) 0.28655(18) 0.77924(5)
O5 O 0.24946(15) -0.00514(19) 0.74131(5)
O6 O 0.27792(14) 0.45683(19) 0.81772(5)
N9 N 0.08192(15) 0.2530(2) 0.68166(6)
N10 N 0.00947(14) 0.3464(2) 0.68380(5)
C15 C 0.05269(18) 0.1800(3) 0.65131(7)
H19 H 0.0891 0.1063 0.6426
C16 C 0.01117(19) 0.4358(3) 0.71599(7)
H20 H -0.0431 0.5035 0.7120
H21 H 0.0740 0.4871 0.7197
C17 C 0.0000 0.3500(4) 0.7500
H22 H 0.0567 0.2917 0.7551
C18 C -0.0373(2) 0.2256(3) 0.63426(8)
H23 H -0.0732 0.1910 0.6124
C19 C -0.0633(2) 0.3320(3) 0.65588(7)
H24 H -0.1218 0.3854 0.6519
C13F C 0.53174(19) 0.4131(3) 0.78376(6)
N6F N 0.55646(15) 0.3276(2) 0.81647(5)
N5F N 0.64546(16) 0.2656(2) 0.82257(6)
Ag2F Ag 0.765686(15) 0.24589(2) 0.785504(6)
C12F C 0.64158(19) 0.1906(3) 0.85294(7)
C11F C 0.5512(2) 0.2033(3) 0.86610(7)
C10F C 0.4983(2) 0.2912(3) 0.84192(7)
H13F H 0.4327 0.3209 0.8429
H14F H 0.5306 0.1607 0.8872
H15F H 0.6942 0.1354 0.8641
H16F H 0.5897 0.4689 0.7794
H17F H 0.4778 0.4769 0.7878
H18F H 0.4463 0.2663 0.7549
O5G O 0.25054(15) 0.49486(19) 0.75869(5)
N8G N 0.23747(15) -0.0869(2) 0.71463(6)
C16F C -0.01117(19) 0.4358(3) 0.78401(7)
H22F H -0.0567 0.2917 0.7449
Ag2G Ag 0.265686(15) 0.74589(2) 0.785504(6)
O4G O 0.24028(15) -0.21345(18) 0.72076(5)
O6G O 0.22208(14) -0.04317(19) 0.68228(5)
N10F N -0.00947(14) 0.3464(2) 0.81620(5)
H20F H 0.0431 0.5035 0.7880
H21F H -0.0740 0.4871 0.7803
Ag2G_2 Ag 0.265686(15) -0.25411(2) 0.785504(6)
N9F N -0.08192(15) 0.2530(2) 0.81834(6)
C19F C 0.0633(2) 0.3320(3) 0.84412(7)
Ag2F_2 Ag -0.234314(15) 0.24589(2) 0.785504(6)
C15F C -0.05269(18) 0.1800(3) 0.84869(7)
C18F C 0.0373(2) 0.2256(3) 0.86574(8)
H24F H 0.1218 0.3854 0.8481
H19F H -0.0891 0.1063 0.8574
H23F H 0.0732 0.1910 0.8876
N5F_2 N -0.35454(16) 0.2656(2) 0.82257(6)
O4F O -0.25972(15) 0.28655(18) 0.72076(5)
O5F O -0.24946(15) -0.00514(19) 0.75869(5)
loop_
_geom_bond_atom_site_label_1
_geom_bond_atom_site_label_2
_geom_bond_site_symmetry_1
_geom_bond_site_symmetry_2
Ag1 N1 1_555 1_555
Ag2 N5 1_555 1_555
N1 N2 1_555 1_555
N2 C1 1_555 1_555
C1 H1 1_555 1_555
C2 C1 1_555 1_555
H2 C2 1_555 1_555
C3 N1 1_555 1_555
H3 C3 1_555 1_555
C4 N2 1_555 1_555
H4 C4 1_555 1_555
H5 C4 1_555 1_555
C5 C4 1_555 1_555
H6 C5 1_555 1_555
H7 C5 1_555 1_555
C6 C5 1_555 1_555
H8 C6 1_555 1_555
H9 C6 1_555 1_555
N3 C6 1_555 1_555
N4 Ag1 1_555 1_555
C7 N4 1_555 1_555
H10 C7 1_555 1_555
C8 C7 1_555 1_555
H11 C8 1_555 1_555
C9 N3 1_555 1_555
H12 C9 1_555 1_555
N5 N6 1_555 1_555
N6 C10 1_555 1_555
C10 H13 1_555 1_555
C11 C10 1_555 1_555
H14 C11 1_555 1_555
C12 N5 1_555 1_555
H15 C12 1_555 1_555
C13 N6 1_555 1_555
H16 C13 1_555 1_555
H17 C13 1_555 1_555
C14 C13 1_555 1_555
H18 C14 1_555 1_555
N7 O1 1_555 1_555
O1 Ag1 1_555 1_555
O2 N7 1_555 1_555
O3 N7 1_555 1_555
N8 O4 1_555 1_555
O4 Ag2 1_555 1_555
O5 Ag2 1_555 1_555
O6 N8 1_555 1_555
N9 Ag2 1_555 1_555
N10 N9 1_555 1_555
C15 N9 1_555 1_555
H19 C15 1_555 1_555
C16 N10 1_555 1_555
H20 C16 1_555 1_555
H21 C16 1_555 1_555
C17 C16 1_555 1_555
H22 C17 1_555 1_555
C18 C15 1_555 1_555
H23 C18 1_555 1_555
C19 N10 1_555 1_555
H24 C19 1_555 1_555
N4D N3 1_555 1_555
Ag1D N4D 1_555 1_555
N1D Ag1D 1_555 1_555
N2D N1D 1_555 1_555
C1D N2D 1_555 1_555
H1D C1D 1_555 1_555
C2D C1D 1_555 1_555
H2D C2D 1_555 1_555
C3D N1D 1_555 1_555
H3D C3D 1_555 1_555
C4D N2D 1_555 1_555
H4D C4D 1_555 1_555
H5D C4D 1_555 1_555
C5D C4D 1_555 1_555
H6D C5D 1_555 1_555
H7D C5D 1_555 1_555
C6D C5D 1_555 1_555
H8D C6D 1_555 1_555
H9D C6D 1_555 1_555
N3D N4 1_555 1_555
C9D C8 1_555 1_555
H12D C9D 1_555 1_555
O1D Ag1D 1_555 1_555
N7D O1D 1_555 1_555
O2D N7D 1_555 1_555
O3D N7D 1_555 1_555
C7D N4D 1_555 1_555
H10D C7D 1_555 1_555
C8D C9 1_555 1_555
H11D C8D 1_555 1_555
C13F C14 1_555 1_555
N6F C13F 1_555 1_555
N5F N6F 1_555 1_555
Ag2F N5F 1_555 1_555
C12F N5F 1_555 1_555
C11F C12F 1_555 1_555
C10F N6F 1_555 1_555
H13F C10F 1_555 1_555
H14F C11F 1_555 1_555
H15F C12F 1_555 1_555
H16F C13F 1_555 1_555
H17F C13F 1_555 1_555
H18F C14 1_555 1_555
O5G N8 1_555 1_555
N8G O5 1_555 1_555
C16F C17 1_555 1_555
H22F C17 1_555 1_555
Ag2G O5G 1_555 1_555
O4G N8G 1_555 1_555
O6G N8G 1_555 1_555
N10F C16F 1_555 1_555
H20F C16F 1_555 1_555
H21F C16F 1_555 1_555
Ag2G_2 O4G 1_555 1_555
N9F N10F 1_555 1_555
C19F N10F 1_555 1_555
Ag2F_2 N9F 1_555 1_555
C15F N9F 1_555 1_555
C18F C19F 1_555 1_555
H24F C19F 1_555 1_555
H19F C15F 1_555 1_555
H23F C18F 1_555 1_555
N5F_2 Ag2F_2 1_555 1_555
O4F Ag2F_2 1_555 1_555
O5F Ag2F_2 1_555 1_555
C2 C3 1_555 1_555
C11 C12 1_555 1_555
C18 C19 1_555 1_555
C2D C3D 1_555 1_555
C6D N3D 1_555 1_555
N3D C9D 1_555 1_555
C7D C8D 1_555 1_555
C11F C10F 1_555 1_555
C15F C18F 1_555 1_555

#END
