
#######################################################################
#
#                 Cambridge Crystallographic Data Centre
#                                CCDC 
#
#######################################################################
#
# If this CIF has been generated from an entry in the Cambridge 
# Structural Database, then it will include bibliographic, chemical, 
# crystal, experimental, refinement or atomic coordinate data resulting 
# from the CCDC's data processing and validation procedures.
#
#######################################################################

data_MUSWED
_symmetry_cell_setting           triclinic
_symmetry_space_group_name_H-M   'P -1'
_symmetry_Int_Tables_number      2
_space_group_name_Hall           '-P 1'
loop_
_symmetry_equiv_pos_site_id
_symmetry_equiv_pos_as_xyz
1 x,y,z
2 -x,-y,-z
_cell_length_a                   9.1421(4)
_cell_length_b                   10.0689(5)
_cell_length_c                   13.5382(6)
_cell_angle_alpha                69.0020(10)
_cell_angle_beta                 82.5330(10)
_cell_angle_gamma                66.2040(10)
_cell_volume                     1064.38
loop_
_atom_site_label
_atom_site_type_symbol
_atom_site_fract_x
_atom_site_fract_y
_atom_site_fract_z
O8 O 0.4851(12) 0.0453(8) 0.5438(7)
H17 H 0.5807 0.0402 0.5397
H18 H 0.4183 0.1093 0.5736
O8A O 0.5149(12) -0.0453(8) 0.4562(7)
H17A H 0.4193 -0.0402 0.4603
H18A H 0.5817 -0.1093 0.4264
Cu1 Cu 0.38272(3) 0.40444(3) 0.26236(2)
O1 O 0.08501(17) 0.08956(16) 0.57624(12)
O2 O 0.3338(2) 0.36792(18) 0.10045(13)
O3 O 0.40650(18) 0.19954(16) 0.26064(12)
O4 O 0.4780(2) -0.35431(18) 0.32338(14)
O5 O 0.33876(19) -0.37847(16) 0.21180(13)
O6 O 0.1985(3) 0.11049(19) -0.09929(14)
O7 O 0.4528(2) 0.3689(2) 0.44826(15)
H1 H 0.4484 0.4609 0.4235
H2 H 0.5041 0.3125 0.5065
N1 N 0.1596(2) 0.43802(19) 0.31728(14)
N2 N -0.1729(2) 0.1851(2) 0.54012(16)
N3 N -0.1330(2) 0.0391(2) 0.61875(16)
N4 N 0.3821(2) -0.34485(19) 0.76622(14)
C1 C 0.1334(3) 0.3254(2) 0.39724(17)
H3 H 0.2201 0.2346 0.4278
C2 C 0.0330(3) 0.5677(3) 0.2733(2)
H4 H 0.0495 0.6465 0.2171
C3 C -0.1205(3) 0.5884(3) 0.3083(2)
H5 H -0.2055 0.6796 0.2757
C4 C -0.1473(3) 0.4740(3) 0.3912(2)
H6 H -0.2498 0.4869 0.4167
C5 C -0.0175(3) 0.3384(2) 0.43634(17)
C6 C -0.0426(3) 0.2092(2) 0.51833(17)
C7 C 0.0179(3) -0.0112(2) 0.63699(17)
C8 C 0.1198(3) -0.1575(2) 0.71154(17)
C9 C 0.0562(3) -0.2412(3) 0.7976(2)
H7 H -0.0536 -0.2078 0.8075
C10 C 0.1589(3) -0.3744(3) 0.8679(2)
H8 H 0.1193 -0.4313 0.9272
C11 C 0.3200(3) -0.4229(3) 0.85016(18)
H9 H 0.3885 -0.5133 0.8982
C12 C 0.2832(2) -0.2137(2) 0.69863(16)
H10 H 0.3261 -0.1581 0.6407
C13 C 0.3553(2) 0.1137(2) 0.13041(17)
C14 C 0.3939(2) -0.0380(2) 0.19900(17)
H11 H 0.4391 -0.0691 0.2653
C15 C 0.3644(2) -0.1416(2) 0.16736(17)
C16 C 0.2985(3) -0.0960(2) 0.06788(18)
H12 H 0.2774 -0.1654 0.0473
C17 C 0.2643(3) 0.0538(3) -0.00054(18)
C18 C 0.2927(3) 0.1574(2) 0.03106(17)
H13 H 0.2695 0.2577 -0.0151
C19 C 0.3670(3) 0.2355(2) 0.16457(17)
C20 C 0.3986(2) -0.3042(2) 0.24197(18)
C21 C 0.1737(4) 0.0082(3) -0.1378(2)
H14 H 0.0972 -0.0292 -0.0945
H15 H 0.1340 0.0612 -0.2094
H16 H 0.2730 -0.0770 -0.1356
Cu1_2 Cu 0.38272(3) 1.40444(3) 0.26236(2)
Cu1_3 Cu 0.38272(3) -0.59556(3) 0.26236(2)
Cu1A Cu 0.61728(3) -0.40444(3) 0.73764(2)
O1A O 0.91499(17) -0.08956(16) 0.42376(12)
O2_2 O 0.3338(2) 1.36792(18) 0.10045(13)
O3_2 O 0.40650(18) 1.19954(16) 0.26064(12)
O4_2 O 0.4780(2) 0.64569(18) 0.32338(14)
O5_2 O 0.33876(19) 0.62153(16) 0.21180(13)
O5_3 O 0.33876(19) 1.62153(16) 0.21180(13)
O6_2 O 0.1985(3) 1.11049(19) -0.09929(14)
O7_2 O 0.4528(2) 1.3689(2) 0.44826(15)
H1_2 H 0.4484 1.4609 0.4235
H2_2 H 0.5041 1.3125 0.5065
N1A N 0.8404(2) -0.43802(19) 0.68272(14)
N1_2 N 0.1596(2) 1.43802(19) 0.31728(14)
N2A N 1.1729(2) -0.1851(2) 0.45988(16)
N3A N 1.1330(2) -0.0391(2) 0.38125(16)
N4A N 0.6179(2) 0.34485(19) 0.23378(14)
N4A_2 N 0.6179(2) 1.34485(19) 0.23378(14)
C1A C 0.8666(3) -0.3254(2) 0.60276(17)
H3A H 0.7799 -0.2346 0.5722
C2A C 0.9670(3) -0.5677(3) 0.7267(2)
H4A H 0.9505 -0.6465 0.7829
C3A C 1.1205(3) -0.5884(3) 0.6917(2)
H5A H 1.2055 -0.6796 0.7243
C4A C 1.1473(3) -0.4740(3) 0.6088(2)
H6A H 1.2498 -0.4869 0.5833
C5A C 1.0175(3) -0.3384(2) 0.56366(17)
C6A C 1.0426(3) -0.2092(2) 0.48167(17)
C7A C 0.9821(3) 0.0112(2) 0.36301(17)
C8A C 0.8802(3) 0.1575(2) 0.28846(17)
C9A C 0.9438(3) 0.2412(3) 0.2024(2)
H7A H 1.0536 0.2078 0.1925
C10A C 0.8411(3) 0.3744(3) 0.1321(2)
H8A H 0.8807 0.4313 0.0728
C11A C 0.6800(3) 0.4229(3) 0.14984(18)
H9A H 0.6115 0.5133 0.1018
C12A C 0.7168(2) 0.2137(2) 0.30137(16)
H10A H 0.6739 0.1581 0.3593
C13_2 C 0.3553(2) 1.1137(2) 0.13041(17)
C14_2 C 0.3939(2) 0.9620(2) 0.19900(17)
H11_2 H 0.4391 0.9309 0.2653
C15_2 C 0.3644(2) 0.8584(2) 0.16736(17)
C16_2 C 0.2985(3) 0.9040(2) 0.06788(18)
H12_2 H 0.2774 0.8346 0.0473
C17_2 C 0.2643(3) 1.0538(3) -0.00054(18)
C18_2 C 0.2927(3) 1.1574(2) 0.03106(17)
H13_2 H 0.2695 1.2577 -0.0151
C19_2 C 0.3670(3) 1.2355(2) 0.16457(17)
C20_2 C 0.3986(2) 0.6958(2) 0.24197(18)
C21_2 C 0.1737(4) 1.0082(3) -0.1378(2)
H14_2 H 0.0972 0.9708 -0.0945
H15_2 H 0.1340 1.0612 -0.2094
H16_2 H 0.2730 0.9230 -0.1356
loop_
_geom_bond_atom_site_label_1
_geom_bond_atom_site_label_2
_geom_bond_site_symmetry_1
_geom_bond_site_symmetry_2
Cu1 O2 1_555 1_555
O1 C6 1_555 1_555
O2 C19 1_555 1_555
O3 Cu1 1_555 1_555
O4 C20 1_555 1_555
O5 C20 1_555 1_555
O6 C17 1_555 1_555
O7 Cu1 1_555 1_555
H1 O7 1_555 1_555
H2 O7 1_555 1_555
N1 Cu1 1_555 1_555
N2 N3 1_555 1_555
N3 C7 1_555 1_555
N4 C11 1_555 1_555
C1 N1 1_555 1_555
H3 C1 1_555 1_555
C2 N1 1_555 1_555
H4 C2 1_555 1_555
C3 C2 1_555 1_555
H5 C3 1_555 1_555
C4 C3 1_555 1_555
H6 C4 1_555 1_555
C5 C1 1_555 1_555
C6 N2 1_555 1_555
C7 O1 1_555 1_555
C8 C7 1_555 1_555
C9 C8 1_555 1_555
H7 C9 1_555 1_555
C10 C9 1_555 1_555
H8 C10 1_555 1_555
C11 C10 1_555 1_555
H9 C11 1_555 1_555
C12 N4 1_555 1_555
H10 C12 1_555 1_555
C13 C14 1_555 1_555
C14 H11 1_555 1_555
C15 C14 1_555 1_555
C16 C15 1_555 1_555
H12 C16 1_555 1_555
C17 C16 1_555 1_555
C18 C13 1_555 1_555
H13 C18 1_555 1_555
C19 O3 1_555 1_555
C20 C15 1_555 1_555
C21 O6 1_555 1_555
H14 C21 1_555 1_555
H15 C21 1_555 1_555
H16 C21 1_555 1_555
O8 H17 1_555 1_555
H18 O8 1_555 1_555
Cu1_2 O2_2 1_555 1_555
Cu1_3 O5 1_555 1_555
Cu1A N4 1_555 1_555
O1A C6A 1_555 1_555
O2_2 C19_2 1_555 1_555
O3_2 Cu1_2 1_555 1_555
O4_2 C20_2 1_555 1_555
O5_2 Cu1 1_555 1_555
O5_3 Cu1_2 1_555 1_555
O6_2 C17_2 1_555 1_555
O7_2 Cu1_2 1_555 1_555
H1_2 O7_2 1_555 1_555
H2_2 O7_2 1_555 1_555
N1A Cu1A 1_555 1_555
N1_2 Cu1_2 1_555 1_555
N2A N3A 1_555 1_555
N3A C7A 1_555 1_555
N4A Cu1 1_555 1_555
N4A_2 Cu1_2 1_555 1_555
C1A N1A 1_555 1_555
H3A C1A 1_555 1_555
C2A N1A 1_555 1_555
H4A C2A 1_555 1_555
C3A C2A 1_555 1_555
H5A C3A 1_555 1_555
C4A C3A 1_555 1_555
H6A C4A 1_555 1_555
C5A C1A 1_555 1_555
C6A N2A 1_555 1_555
C7A O1A 1_555 1_555
C8A C7A 1_555 1_555
C9A C8A 1_555 1_555
H7A C9A 1_555 1_555
C10A C9A 1_555 1_555
H8A C10A 1_555 1_555
C11A N4A 1_555 1_555
H9A C11A 1_555 1_555
C12A N4A 1_555 1_555
H10A C12A 1_555 1_555
C13_2 C14_2 1_555 1_555
C14_2 H11_2 1_555 1_555
C15_2 C14_2 1_555 1_555
C16_2 C15_2 1_555 1_555
H12_2 C16_2 1_555 1_555
C17_2 C16_2 1_555 1_555
C18_2 C13_2 1_555 1_555
H13_2 C18_2 1_555 1_555
C19_2 O3_2 1_555 1_555
C20_2 O5_2 1_555 1_555
C21_2 O6_2 1_555 1_555
H14_2 C21_2 1_555 1_555
H15_2 C21_2 1_555 1_555
H16_2 C21_2 1_555 1_555
O8A O8 1_555 1_555
H17A O8A 1_555 1_555
H18A O8A 1_555 1_555
C4 C5 1_555 1_555
C5 C6 1_555 1_555
C8 C12 1_555 1_555
C13 C19 1_555 1_555
C17 C18 1_555 1_555
C4A C5A 1_555 1_555
C5A C6A 1_555 1_555
C8A C12A 1_555 1_555
C10A C11A 1_555 1_555
C13_2 C19_2 1_555 1_555
C15_2 C20_2 1_555 1_555
C17_2 C18_2 1_555 1_555

#END
