
#######################################################################
#
#                 Cambridge Crystallographic Data Centre
#                                CCDC 
#
#######################################################################
#
# If this CIF has been generated from an entry in the Cambridge 
# Structural Database, then it will include bibliographic, chemical, 
# crystal, experimental, refinement or atomic coordinate data resulting 
# from the CCDC's data processing and validation procedures.
#
#######################################################################

data_MUSYEF
_symmetry_cell_setting           triclinic
_symmetry_space_group_name_H-M   'P -1'
_symmetry_Int_Tables_number      2
_space_group_name_Hall           '-P 1'
loop_
_symmetry_equiv_pos_site_id
_symmetry_equiv_pos_as_xyz
1 x,y,z
2 -x,-y,-z
_cell_length_a                   8.6461(17)
_cell_length_b                   9.923(2)
_cell_length_c                   10.180(2)
_cell_angle_alpha                78.18(3)
_cell_angle_beta                 75.17(3)
_cell_angle_gamma                72.74(3)
_cell_volume                     798.384
loop_
_atom_site_label
_atom_site_type_symbol
_atom_site_fract_x
_atom_site_fract_y
_atom_site_fract_z
H1 H 0.677(7) -0.170(6) 0.511(5)
In1 In 0.61259(4) 0.05127(3) 0.34425(3)
O1 O 0.5372(4) 0.1801(3) 0.1662(3)
O2 O 0.6339(4) -0.0925(4) 0.5315(3)
O3 O 0.3773(4) 0.1199(3) -0.2395(3)
O4 O 0.2154(4) 0.3019(4) -0.3521(3)
O5 O 0.3871(5) 0.3610(4) 0.2809(4)
N1 N 0.8962(5) 0.0138(4) 0.2566(4)
N2 N 0.7080(5) 0.2025(4) 0.4269(4)
C1 C 0.9757(6) 0.0807(5) 0.3098(5)
C2 C 1.1468(6) 0.0583(6) 0.2730(5)
H2 H 1.2006 0.1040 0.3113
C3 C 1.2356(7) -0.0334(6) 0.1783(6)
H3 H 1.3502 -0.0502 0.1530
C4 C 1.1550(6) -0.0995(6) 0.1215(5)
H4 H 1.2131 -0.1600 0.0563
C5 C 0.9850(6) -0.0736(5) 0.1640(5)
H5 H 0.9297 -0.1189 0.1268
C6 C 0.8728(6) 0.1817(5) 0.4070(4)
C7 C 0.9407(7) 0.2547(5) 0.4704(5)
H6 H 1.0549 0.2394 0.4549
C8 C 0.8372(7) 0.3501(6) 0.5566(6)
H7 H 0.8809 0.3987 0.6011
C9 C 0.6678(7) 0.3724(5) 0.5760(5)
H8 H 0.5954 0.4362 0.6336
C10 C 0.6083(6) 0.2980(5) 0.5078(5)
H9 H 0.4943 0.3150 0.5185
C11 C 0.2838(6) 0.3412(5) -0.1534(4)
C12 C 0.3590(6) 0.2830(5) -0.0419(5)
H10 H 0.4163 0.1872 -0.0326
C13 C 0.3496(6) 0.3661(5) 0.0560(5)
C14 C 0.2639(7) 0.5087(5) 0.0417(5)
H11 H 0.2557 0.5648 0.1072
C15 C 0.1901(8) 0.5679(6) -0.0706(6)
H12 H 0.1350 0.6642 -0.0811
C16 C 0.1984(7) 0.4841(5) -0.1668(5)
H13 H 0.1467 0.5237 -0.2405
C17 C 0.2912(6) 0.2499(5) -0.2579(5)
C18 C 0.4297(6) 0.3017(5) 0.1785(5)
H1A H 0.323(7) 0.170(6) 0.489(5)
In1A In 0.38741(4) -0.05127(3) 0.65575(3)
In1A_2 In 0.38741(4) -0.05127(3) -0.34425(3)
O2A O 0.3661(4) 0.0925(4) 0.4685(3)
O3A O 0.6227(4) -0.1199(3) 0.2395(3)
loop_
_geom_bond_atom_site_label_1
_geom_bond_atom_site_label_2
_geom_bond_site_symmetry_1
_geom_bond_site_symmetry_2
H1 O2 1_555 1_555
In1 O1 1_555 1_555
O1 C18 1_555 1_555
O2 In1 1_555 1_555
O3 C17 1_555 1_555
O4 C17 1_555 1_555
O5 C18 1_555 1_555
N1 In1 1_555 1_555
N2 In1 1_555 1_555
C1 N1 1_555 1_555
C2 C1 1_555 1_555
H2 C2 1_555 1_555
C3 C2 1_555 1_555
H3 C3 1_555 1_555
C4 C3 1_555 1_555
H4 C4 1_555 1_555
C5 N1 1_555 1_555
H5 C5 1_555 1_555
C6 N2 1_555 1_555
C7 C6 1_555 1_555
H6 C7 1_555 1_555
C8 C7 1_555 1_555
H7 C8 1_555 1_555
C9 C8 1_555 1_555
H8 C9 1_555 1_555
C10 N2 1_555 1_555
H9 C10 1_555 1_555
C11 C12 1_555 1_555
C12 H10 1_555 1_555
C13 C12 1_555 1_555
C14 C13 1_555 1_555
H11 C14 1_555 1_555
C15 C14 1_555 1_555
H12 C15 1_555 1_555
C16 C11 1_555 1_555
H13 C16 1_555 1_555
C17 C11 1_555 1_555
C18 C13 1_555 1_555
H1A O2A 1_555 1_555
In1A O2 1_555 1_555
In1A_2 O3 1_555 1_555
O2A In1 1_555 1_555
O3A In1 1_555 1_555
C1 C6 1_555 1_555
C4 C5 1_555 1_555
C9 C10 1_555 1_555
C15 C16 1_555 1_555
In1A O2A 1_555 1_555

#END
