
#######################################################################
#
#                 Cambridge Crystallographic Data Centre
#                                CCDC 
#
#######################################################################
#
# If this CIF has been generated from an entry in the Cambridge 
# Structural Database, then it will include bibliographic, chemical, 
# crystal, experimental, refinement or atomic coordinate data resulting 
# from the CCDC's data processing and validation procedures.
#
#######################################################################

data_MUSZIJ
_symmetry_cell_setting           monoclinic
_symmetry_space_group_name_H-M   'C 2/c'
_symmetry_Int_Tables_number      15
_space_group_name_Hall           '-C 2yn'
loop_
_symmetry_equiv_pos_site_id
_symmetry_equiv_pos_as_xyz
1 x,y,z
2 1/2+x,1/2+y,z
3 x,-y,1/2+z
4 1/2+x,1/2-y,1/2+z
5 -x,-y,-z
6 1/2-x,1/2-y,-z
7 -x,y,1/2-z
8 1/2-x,1/2+y,1/2-z
_cell_length_a                   23.943(7)
_cell_length_b                   9.284(3)
_cell_length_c                   15.258(3)
_cell_angle_alpha                90
_cell_angle_beta                 107.97(2)
_cell_angle_gamma                90
_cell_volume                     3226.2
loop_
_atom_site_label
_atom_site_type_symbol
_atom_site_fract_x
_atom_site_fract_y
_atom_site_fract_z
Na1 Na 0.85098(4) 0.50644(10) 0.11620(7)
Na2 Na 1.0000 0.63671(14) 0.2500
Na3 Na 0.7500 1.2500 0.0000
O1 O 0.95417(9) 0.4928(2) 0.10354(13)
H1 H 0.9423(14) 0.504(3) 0.0494(14)
H2 H 0.9627(14) 0.411(2) 0.105(2)
O2 O 0.74719(8) 0.4835(2) 0.06119(12)
H3 H 0.7175(11) 0.501(3) 0.0218(17)
H4 H 0.7362(12) 0.494(3) 0.1041(15)
N1 N 0.86585(8) 0.9969(2) 0.08182(13)
S1 S 0.89740(2) 1.14588(6) 0.11962(4)
S2 S 0.90204(2) 0.85412(6) 0.07959(4)
O3 O 0.85253(7) 1.25609(17) 0.08763(12)
O4 O 0.95076(7) 1.17071(18) 0.09592(12)
O5 O 0.85993(7) 0.73781(17) 0.06562(12)
O6 O 0.95435(8) 0.83950(19) 0.15749(13)
C1 C 0.91615(11) 1.1400(3) 0.24061(17)
H5 H 0.9448 1.0631 0.2644
H6 H 0.8808 1.1212 0.2584
H7 H 0.9332 1.2326 0.2664
C2 C 0.92409(13) 0.8662(3) -0.02016(19)
H8 H 0.9503 0.9489 -0.0148
H9 H 0.8894 0.8785 -0.0743
H10 H 0.9448 0.7778 -0.0269
N2 N 0.81570(8) 0.5297(2) 0.26597(13)
S3 S 0.76139(3) 0.51869(6) 0.30608(4)
S4 S 0.88037(3) 0.55945(7) 0.33105(4)
O7 O 0.70972(7) 0.5208(2) 0.22576(11)
O8 O 0.76384(8) 0.62766(19) 0.37470(12)
O9 O 0.91672(7) 0.5385(2) 0.27181(12)
O10 O 0.89663(8) 0.4750(2) 0.41463(12)
C3 C 0.76386(11) 0.3491(3) 0.35802(18)
H11 H 0.7988 0.3431 0.4122
H12 H 0.7655 0.2737 0.3139
H13 H 0.7286 0.3358 0.3769
C4 C 0.88622(12) 0.7420(3) 0.36244(19)
H14 H 0.8600 0.7626 0.3991
H15 H 0.8751 0.8018 0.3068
H16 H 0.9268 0.7635 0.3989
O1F O 1.04583(9) 0.4928(2) 0.39646(13)
H1F H 1.0577(14) 0.504(3) 0.4506(14)
H2F H 1.0373(14) 0.411(2) 0.395(2)
N1F N 1.13415(8) 0.9969(2) 0.41818(13)
S1F S 1.10260(2) 1.14588(6) 0.38038(4)
S2F S 1.09796(2) 0.85412(6) 0.42041(4)
O3F O 1.14747(7) 1.25609(17) 0.41237(12)
O4F O 1.04924(7) 1.17071(18) 0.40408(12)
O5F O 1.14007(7) 0.73781(17) 0.43438(12)
O6F O 1.04565(8) 0.83950(19) 0.34251(13)
C1F C 1.08385(11) 1.1400(3) 0.25939(17)
H5F H 1.0552 1.0631 0.2356
H6F H 1.1192 1.1212 0.2416
H7F H 1.0668 1.2326 0.2336
C2F C 1.07591(13) 0.8662(3) 0.52016(19)
H8F H 1.0497 0.9489 0.5148
H9F H 1.1106 0.8785 0.5743
H10F H 1.0552 0.7778 0.5269
N2F N 1.18430(8) 0.5297(2) 0.23403(13)
S3F S 1.23861(3) 0.51869(6) 0.19392(4)
S4F S 1.11963(3) 0.55945(7) 0.16895(4)
O7F O 1.29028(7) 0.5208(2) 0.27424(11)
O8F O 1.23616(8) 0.62766(19) 0.12530(12)
O9F O 1.08328(7) 0.5385(2) 0.22819(12)
O10F O 1.10337(8) 0.4750(2) 0.08537(12)
C3F C 1.23614(11) 0.3491(3) 0.14198(18)
H11F H 1.2012 0.3431 0.0878
H12F H 1.2345 0.2737 0.1861
H13F H 1.2714 0.3358 0.1231
C4F C 1.11378(12) 0.7420(3) 0.13756(19)
H14F H 1.1400 0.7626 0.1009
H15F H 1.1249 0.8018 0.1932
H16F H 1.0732 0.7635 0.1011
Na1F Na 1.14902(4) 0.50644(10) 0.38380(7)
O2_2 O 0.74719(8) 1.4835(2) 0.06119(12)
H3_2 H 0.7175(11) 1.501(3) 0.0218(17)
H4_2 H 0.7362(12) 1.494(3) 0.1041(15)
O3_2 O 0.85253(7) 0.25609(17) 0.08763(12)
O2E O 0.75281(8) 1.0165(2) -0.06119(12)
O3E O 0.64747(7) 1.24391(17) -0.08763(12)
O8B O 0.76384(8) 1.37234(19) -0.12530(12)
O8G O 0.73616(8) 1.12766(19) 0.12530(12)
Na3_2 Na 0.7500 0.2500 0.0000
Na1_2 Na 0.85098(4) 1.50644(10) 0.11620(7)
Na3B Na 0.7500 0.7500 0.5000
Na1F_2 Na 1.14902(4) 1.50644(10) 0.38380(7)
Na3C Na 1.2500 1.2500 0.5000
Na3A Na 1.2500 0.7500 0.0000
O2F O 1.25281(8) 0.4835(2) 0.43881(12)
O3F_2 O 1.14747(7) 0.25609(17) 0.41237(12)
H3E H 0.7825(11) 0.999(3) -0.0218(17)
H4E H 0.7638(12) 1.006(3) -0.1041(15)
H3F H 1.2825(11) 0.501(3) 0.4782(17)
H4F H 1.2638(12) 0.494(3) 0.3959(15)
loop_
_geom_bond_atom_site_label_1
_geom_bond_atom_site_label_2
_geom_bond_site_symmetry_1
_geom_bond_site_symmetry_2
Na1 O1 1_555 1_555
Na2 O1 1_555 1_555
Na3 O3 1_555 1_555
O1 H1 1_555 1_555
H2 O1 1_555 1_555
O2 Na1 1_555 1_555
H3 O2 1_555 1_555
H4 O2 1_555 1_555
N1 S1 1_555 1_555
S1 O3 1_555 1_555
S2 N1 1_555 1_555
O3 Na1_2 1_555 1_555
O4 S1 1_555 1_555
O5 Na1 1_555 1_555
O6 Na2 1_555 1_555
C1 S1 1_555 1_555
H5 C1 1_555 1_555
H6 C1 1_555 1_555
H7 C1 1_555 1_555
C2 S2 1_555 1_555
H8 C2 1_555 1_555
H9 C2 1_555 1_555
H10 C2 1_555 1_555
N2 Na1 1_555 1_555
S3 N2 1_555 1_555
S4 N2 1_555 1_555
O7 S3 1_555 1_555
O8 S3 1_555 1_555
O9 Na1 1_555 1_555
O10 S4 1_555 1_555
C3 S3 1_555 1_555
H11 C3 1_555 1_555
H12 C3 1_555 1_555
H13 C3 1_555 1_555
C4 S4 1_555 1_555
H14 C4 1_555 1_555
H15 C4 1_555 1_555
H16 C4 1_555 1_555
O1F Na2 1_555 1_555
H1F O1F 1_555 1_555
H2F O1F 1_555 1_555
N1F S1F 1_555 1_555
S1F O3F 1_555 1_555
S2F N1F 1_555 1_555
O3F Na1F_2 1_555 1_555
O4F S1F 1_555 1_555
O5F S2F 1_555 1_555
O6F Na2 1_555 1_555
C1F S1F 1_555 1_555
H5F C1F 1_555 1_555
H6F C1F 1_555 1_555
H7F C1F 1_555 1_555
C2F S2F 1_555 1_555
H8F C2F 1_555 1_555
H9F C2F 1_555 1_555
H10F C2F 1_555 1_555
N2F S3F 1_555 1_555
S3F O7F 1_555 1_555
S4F N2F 1_555 1_555
O8F S3F 1_555 1_555
O9F Na2 1_555 1_555
O10F S4F 1_555 1_555
C3F S3F 1_555 1_555
H11F C3F 1_555 1_555
H12F C3F 1_555 1_555
H13F C3F 1_555 1_555
C4F S4F 1_555 1_555
H14F C4F 1_555 1_555
H15F C4F 1_555 1_555
H16F C4F 1_555 1_555
Na1F O1F 1_555 1_555
O2_2 Na3 1_555 1_555
H3_2 O2_2 1_555 1_555
H4_2 O2_2 1_555 1_555
O3_2 Na1 1_555 1_555
O2E Na3 1_555 1_555
O3E Na3 1_555 1_555
O8B Na3 1_555 1_555
O8G Na3 1_555 1_555
Na3_2 O2 1_555 1_555
Na1_2 O2_2 1_555 1_555
Na3B O8 1_555 1_555
Na3C O3F 1_555 1_555
Na3A O8F 1_555 1_555
O2F Na1F 1_555 1_555
O3F_2 Na1F 1_555 1_555
H3E O2E 1_555 1_555
H4E O2E 1_555 1_555
H3F O2F 1_555 1_555
H4F O2F 1_555 1_555
Na2 O9 1_555 1_555
S2 O5 1_555 1_555
S2 O6 1_555 1_555
S4 O9 1_555 1_555
S2F O6F 1_555 1_555
O5F Na1F 1_555 1_555
N2F Na1F 1_555 1_555
S4F O9F 1_555 1_555
O9F Na1F 1_555 1_555
O3_2 Na3_2 1_555 1_555

#END
