
#######################################################################
#
#                 Cambridge Crystallographic Data Centre
#                                CCDC 
#
#######################################################################
#
# If this CIF has been generated from an entry in the Cambridge 
# Structural Database, then it will include bibliographic, chemical, 
# crystal, experimental, refinement or atomic coordinate data resulting 
# from the CCDC's data processing and validation procedures.
#
#######################################################################

data_MUTJOB
_symmetry_cell_setting           orthorhombic
_symmetry_space_group_name_H-M   'P b c a'
_symmetry_Int_Tables_number      61
_space_group_name_Hall           '-P 2ac 2ab'
loop_
_symmetry_equiv_pos_site_id
_symmetry_equiv_pos_as_xyz
1 x,y,z
2 1/2-x,-y,1/2+z
3 1/2+x,1/2-y,-z
4 -x,1/2+y,1/2-z
5 -x,-y,-z
6 1/2+x,y,1/2-z
7 1/2-x,1/2+y,z
8 x,1/2-y,1/2+z
_cell_length_a                   7.5811(15)
_cell_length_b                   15.449(3)
_cell_length_c                   25.163(5)
_cell_angle_alpha                90
_cell_angle_beta                 90
_cell_angle_gamma                90
_cell_volume                     2947.1
loop_
_atom_site_label
_atom_site_type_symbol
_atom_site_fract_x
_atom_site_fract_y
_atom_site_fract_z
Cd1 Cd -1.00195(4) 0.36095(2) 0.274861(12)
O1 O -0.8621(5) 0.2513(3) 0.3213(2)
N1 N -1.2395(5) 0.3012(2) 0.31564(14)
N2 N -1.2152(5) 0.2605(3) 0.36152(15)
N3 N -1.4983(5) 0.2584(2) 0.34035(15)
N4 N -1.4086(5) 0.3002(3) 0.30277(15)
C1 C -1.2953(6) 0.1237(3) 0.44444(18)
C2 C -1.4120(6) 0.1878(3) 0.42596(17)
C3 C -1.3221(7) 0.0903(3) 0.49458(19)
H1 H -1.2447 0.0486 0.5075
C4 C -1.4619(7) 0.1171(3) 0.52649(19)
H2 H -1.4773 0.0937 0.5602
C5 C -1.5767(7) 0.1785(4) 0.5076(2)
H3 H -1.6711 0.1963 0.5286
C6 C -1.5531(6) 0.2142(3) 0.4576(2)
H4 H -1.6314 0.2559 0.4451
C7 C -1.3769(6) 0.2341(3) 0.37605(18)
O2 O -0.7864(4) -0.0681(2) 0.27283(12)
O3 O -0.5924(4) -0.0360(2) 0.33470(13)
C8 C -1.1880(6) 0.0561(3) 0.36043(19)
H5 H -1.3026 0.0592 0.3474
C9 C -0.8471(6) 0.0484(3) 0.39757(18)
H6 H -0.7320 0.0460 0.4102
C10 C -0.9770(6) 0.0856(3) 0.42833(18)
H7 H -0.9482 0.1092 0.4612
C11 C -0.8862(6) 0.0145(3) 0.34792(17)
C12 C -1.1520(6) 0.0881(3) 0.41065(18)
C13 C -1.0573(6) 0.0197(3) 0.3292(2)
H8 H -1.0846 -0.0013 0.2956
C14 C -0.7462(6) -0.0318(3) 0.31679(19)
H9 H -0.759(7) 0.241(3) 0.327(2)
H10 H -0.924(8) 0.236(4) 0.345(2)
Cd1E Cd -1.50195(4) 0.36095(2) 0.225139(12)
Cd1C Cd -0.99805(4) -0.13905(2) 0.225139(12)
Cd1F Cd -0.49805(4) -0.13905(2) 0.274861(12)
N4E N -0.9086(5) 0.3002(3) 0.19723(15)
O2C O -1.2136(4) 0.4319(2) 0.22717(12)
O2F O -0.7136(4) 0.4319(2) 0.27283(12)
O3F O -0.9076(4) 0.4640(2) 0.33470(13)
loop_
_geom_bond_atom_site_label_1
_geom_bond_atom_site_label_2
_geom_bond_site_symmetry_1
_geom_bond_site_symmetry_2
Cd1 O1 1_555 1_555
O1 H9 1_555 1_555
N1 Cd1 1_555 1_555
N2 N1 1_555 1_555
N3 N4 1_555 1_555
N4 N1 1_555 1_555
C1 C2 1_555 1_555
C2 C6 1_555 1_555
C3 C1 1_555 1_555
H1 C3 1_555 1_555
C4 C3 1_555 1_555
H2 C4 1_555 1_555
C5 C4 1_555 1_555
H3 C5 1_555 1_555
C6 C5 1_555 1_555
H4 C6 1_555 1_555
C7 N2 1_555 1_555
O2 C14 1_555 1_555
O3 C14 1_555 1_555
C8 H5 1_555 1_555
C9 H6 1_555 1_555
C10 C9 1_555 1_555
H7 C10 1_555 1_555
C11 C9 1_555 1_555
C12 C1 1_555 1_555
C13 C8 1_555 1_555
H8 C13 1_555 1_555
C14 C11 1_555 1_555
H10 O1 1_555 1_555
Cd1E N4 1_555 1_555
Cd1C O2 1_555 1_555
Cd1F O2 1_555 1_555
N4E Cd1 1_555 1_555
O2C Cd1 1_555 1_555
O2F Cd1 1_555 1_555
O3F Cd1 1_555 1_555
N3 C7 1_555 1_555
C2 C7 1_555 1_555
O3 Cd1F 1_555 1_555
C8 C12 1_555 1_555
C10 C12 1_555 1_555
C11 C13 1_555 1_555
Cd1E O2C 1_555 1_555

#END
