
#######################################################################
#
#                 Cambridge Crystallographic Data Centre
#                                CCDC 
#
#######################################################################
#
# If this CIF has been generated from an entry in the Cambridge 
# Structural Database, then it will include bibliographic, chemical, 
# crystal, experimental, refinement or atomic coordinate data resulting 
# from the CCDC's data processing and validation procedures.
#
#######################################################################

data_MUTJEQ
_symmetry_cell_setting           monoclinic
_symmetry_space_group_name_H-M   'C 2'
_symmetry_Int_Tables_number      5
_space_group_name_Hall           'C 2y'
loop_
_symmetry_equiv_pos_site_id
_symmetry_equiv_pos_as_xyz
1 x,y,z
2 -x,y,-z
3 1/2+x,1/2+y,z
4 1/2-x,1/2+y,-z
_cell_length_a                   17.276(9)
_cell_length_b                   11.599(6)
_cell_length_c                   10.646(6)
_cell_angle_alpha                90
_cell_angle_beta                 103.35(3)
_cell_angle_gamma                90
_cell_volume                     2075.65
loop_
_atom_site_label
_atom_site_type_symbol
_atom_site_fract_x
_atom_site_fract_y
_atom_site_fract_z
Mn1 Mn 0.0000 0.04747(8) -0.5000
Mn2 Mn 0.0000 -0.04701(8) 0.0000
N1 N -0.0799(3) -0.0382(5) -0.1920(4)
C1 C -0.0940(3) 0.0124(5) -0.2891(5)
N2 N -0.1084(3) 0.0625(5) -0.4005(4)
C2 C -0.1548(3) 0.1644(5) -0.4160(5)
C3 C -0.1671(3) 0.2279(5) -0.3118(5)
H1 H -0.1497(3) 0.2003(5) -0.2280(5)
C4 C -0.2058(4) 0.3326(6) -0.3347(6)
C5 C -0.2361(4) 0.3761(6) -0.4539(6)
H2 H -0.2629(4) 0.4463(6) -0.4656(6)
C6 C -0.2252(4) 0.3108(7) -0.5583(6)
H3 H -0.2445(4) 0.3384(7) -0.6417(6)
C7 C -0.1857(4) 0.2041(6) -0.5401(6)
H4 H -0.1804(4) 0.1604(6) -0.6109(6)
F1 F -0.2139(2) 0.3974(4) -0.2331(4)
N3 N 0.0777(2) 0.0374(5) -0.3074(4)
C8 C 0.0924(3) -0.0125(5) -0.2117(5)
N4 N 0.1071(2) -0.0565(5) -0.0961(4)
C9 C 0.1514(3) -0.1599(5) -0.0764(5)
C10 C 0.1401(3) -0.2470(5) -0.1677(5)
H5 H 0.1063(3) -0.2361(5) -0.2485(5)
C11 C 0.1798(4) -0.3506(6) -0.1371(6)
C12 C 0.2309(3) -0.3714(6) -0.0203(6)
H6 H 0.2569(3) -0.4418(6) -0.0022(6)
C13 C 0.2419(3) -0.2839(5) 0.0687(6)
H7 H 0.2767(3) -0.2953(5) 0.1486(6)
C14 C 0.2030(3) -0.1792(6) 0.0433(5)
H8 H 0.2112(3) -0.1218(6) 0.1060(5)
F2 F 0.1686(3) -0.4362(4) -0.2230(4)
N5 N 0.0000 -0.1490(7) -0.5000
C15 C -0.0591(3) -0.2097(5) -0.4693(6)
H9 H -0.1007(3) -0.1697(5) -0.4472(6)
C16 C -0.0610(3) -0.3288(6) -0.4688(6)
H10 H -0.1034(3) -0.3674(6) -0.4476(6)
C17 C 0.0000 -0.3898(8) -0.5000
C18 C 0.0000 -0.5193(8) -0.5000
C19 C -0.0078(3) -0.5805(5) -0.6133(5)
H11 H -0.0125(3) -0.5420(5) -0.6913(5)
C20 C -0.0086(3) -0.6986(5) -0.6099(5)
H12 H -0.0155(3) -0.7388(5) -0.6873(5)
N6 N 0.0000 -0.7587(7) -0.5000
N7 N 0.0000 0.1498(8) 0.0000
C21 C 0.0626(3) 0.2096(6) -0.0169(6)
H13 H 0.1068(3) 0.1690(6) -0.0287(6)
C22 C 0.0655(3) 0.3276(6) -0.0178(6)
H14 H 0.1107(3) 0.3654(6) -0.0302(6)
C23 C 0.0000 0.3904(9) 0.0000
C24 C 0.0000 0.5171(7) 0.0000
C25 C 0.0510(3) 0.5787(5) 0.0954(5)
H15 H 0.0869(3) 0.5401(5) 0.1603(5)
C26 C 0.0487(3) 0.6983(5) 0.0944(5)
H16 H 0.0820(3) 0.7385(5) 0.1612(5)
N8 N 0.0000 0.7580(7) 0.0000
C16A C 0.0610(3) -0.3288(6) -0.5312(6)
C15A C 0.0591(3) -0.2097(5) -0.5307(6)
H9A H 0.1007(3) -0.1697(5) -0.5528(6)
H10A H 0.1034(3) -0.3674(6) -0.5524(6)
C20A C 0.0086(3) -0.6986(5) -0.3901(5)
C19A C 0.0078(3) -0.5805(5) -0.3867(5)
H11A H 0.0125(3) -0.5420(5) -0.3087(5)
H12A H 0.0155(3) -0.7388(5) -0.3127(5)
C22A C -0.0655(3) 0.3276(6) 0.0178(6)
C21A C -0.0626(3) 0.2096(6) 0.0169(6)
H13A H -0.1068(3) 0.1690(6) 0.0287(6)
H14A H -0.1107(3) 0.3654(6) 0.0302(6)
C26A C -0.0487(3) 0.6983(5) -0.0944(5)
C25A C -0.0510(3) 0.5787(5) -0.0954(5)
H15A H -0.0869(3) 0.5401(5) -0.1603(5)
H16A H -0.0820(3) 0.7385(5) -0.1612(5)
N1A N 0.0799(3) -0.0382(5) -0.8080(4)
C1A C 0.0940(3) 0.0124(5) -0.7109(5)
N2A N 0.1084(3) 0.0625(5) -0.5995(4)
C2A C 0.1548(3) 0.1644(5) -0.5840(5)
C3A C 0.1671(3) 0.2279(5) -0.6882(5)
H1A H 0.1497(3) 0.2003(5) -0.7720(5)
C4A C 0.2058(4) 0.3326(6) -0.6653(6)
C5A C 0.2361(4) 0.3761(6) -0.5461(6)
H2A H 0.2629(4) 0.4463(6) -0.5344(6)
C6A C 0.2252(4) 0.3108(7) -0.4417(6)
H3A H 0.2445(4) 0.3384(7) -0.3583(6)
C7A C 0.1857(4) 0.2041(6) -0.4599(6)
H4A H 0.1804(4) 0.1604(6) -0.3891(6)
F1A F 0.2139(2) 0.3974(4) -0.7669(4)
N3A N -0.0777(2) 0.0374(5) -0.6926(4)
C8A C -0.0924(3) -0.0125(5) -0.7883(5)
N4A N -0.1071(2) -0.0565(5) -0.9039(4)
C9A C -0.1514(3) -0.1599(5) -0.9236(5)
C10A C -0.1401(3) -0.2470(5) -0.8323(5)
H5A H -0.1063(3) -0.2361(5) -0.7515(5)
C11A C -0.1798(4) -0.3506(6) -0.8629(6)
C12A C -0.2309(3) -0.3714(6) -0.9797(6)
H6A H -0.2569(3) -0.4418(6) -0.9978(6)
C13A C -0.2419(3) -0.2839(5) -1.0687(6)
H7A H -0.2767(3) -0.2953(5) -1.1486(6)
C14A C -0.2030(3) -0.1792(6) -1.0433(5)
H8A H -0.2112(3) -0.1218(6) -1.1060(5)
F2A F -0.1686(3) -0.4362(4) -0.7770(4)
N6_2 N 0.0000 0.2413(7) -0.5000
N1A_2 N 0.0799(3) -0.0382(5) 0.1920(4)
N4A_2 N -0.1071(2) -0.0565(5) 0.0961(4)
N8_2 N 0.0000 -0.2420(7) 0.0000
Mn1_2 Mn 0.0000 -0.95253(8) -0.5000
Mn2_2 Mn 0.0000 0.95299(8) 0.0000
Mn2_3 Mn 0.0000 -0.04701(8) -1.0000
loop_
_geom_bond_atom_site_label_1
_geom_bond_atom_site_label_2
_geom_bond_site_symmetry_1
_geom_bond_site_symmetry_2
Mn1 N2 1_555 1_555
Mn2 N1 1_555 1_555
N1 C1 1_555 1_555
C1 N2 1_555 1_555
N2 C2 1_555 1_555
C2 C3 1_555 1_555
C3 H1 1_555 1_555
C4 C3 1_555 1_555
C5 C4 1_555 1_555
H2 C5 1_555 1_555
C6 C5 1_555 1_555
H3 C6 1_555 1_555
C7 C2 1_555 1_555
H4 C7 1_555 1_555
F1 C4 1_555 1_555
N3 Mn1 1_555 1_555
C8 N3 1_555 1_555
N4 Mn2 1_555 1_555
C9 N4 1_555 1_555
C10 C9 1_555 1_555
H5 C10 1_555 1_555
C11 C10 1_555 1_555
C12 C11 1_555 1_555
H6 C12 1_555 1_555
C13 C12 1_555 1_555
H7 C13 1_555 1_555
C14 C9 1_555 1_555
H8 C14 1_555 1_555
F2 C11 1_555 1_555
N5 Mn1 1_555 1_555
C15 N5 1_555 1_555
H9 C15 1_555 1_555
C16 C15 1_555 1_555
H10 C16 1_555 1_555
C17 C16 1_555 1_555
C18 C17 1_555 1_555
C19 C18 1_555 1_555
H11 C19 1_555 1_555
C20 C19 1_555 1_555
H12 C20 1_555 1_555
N6 C20 1_555 1_555
N7 Mn2 1_555 1_555
C21 N7 1_555 1_555
H13 C21 1_555 1_555
C22 C21 1_555 1_555
H14 C22 1_555 1_555
C23 C22 1_555 1_555
C24 C23 1_555 1_555
C25 C24 1_555 1_555
H15 C25 1_555 1_555
C26 C25 1_555 1_555
H16 C26 1_555 1_555
N8 C26 1_555 1_555
C16A C17 1_555 1_555
C15A N5 1_555 1_555
H9A C15A 1_555 1_555
H10A C16A 1_555 1_555
C20A N6 1_555 1_555
C19A C18 1_555 1_555
H11A C19A 1_555 1_555
H12A C20A 1_555 1_555
C22A C23 1_555 1_555
C21A N7 1_555 1_555
H13A C21A 1_555 1_555
H14A C22A 1_555 1_555
C26A N8 1_555 1_555
C25A C24 1_555 1_555
H15A C25A 1_555 1_555
H16A C26A 1_555 1_555
N1A C1A 1_555 1_555
C1A N2A 1_555 1_555
N2A Mn1 1_555 1_555
C2A N2A 1_555 1_555
C3A C2A 1_555 1_555
H1A C3A 1_555 1_555
C4A C3A 1_555 1_555
C5A C4A 1_555 1_555
H2A C5A 1_555 1_555
C6A C5A 1_555 1_555
H3A C6A 1_555 1_555
C7A C2A 1_555 1_555
H4A C7A 1_555 1_555
F1A C4A 1_555 1_555
N3A Mn1 1_555 1_555
C8A N3A 1_555 1_555
N4A C8A 1_555 1_555
C9A N4A 1_555 1_555
C10A C9A 1_555 1_555
H5A C10A 1_555 1_555
C11A C10A 1_555 1_555
C12A C11A 1_555 1_555
H6A C12A 1_555 1_555
C13A C12A 1_555 1_555
H7A C13A 1_555 1_555
C14A C9A 1_555 1_555
H8A C14A 1_555 1_555
F2A C11A 1_555 1_555
N6_2 Mn1 1_555 1_555
N1A_2 Mn2 1_555 1_555
N4A_2 Mn2 1_555 1_555
N8_2 Mn2 1_555 1_555
Mn1_2 N6 1_555 1_555
Mn2_2 N8 1_555 1_555
Mn2_3 N1A 1_555 1_555
C6 C7 1_555 1_555
C8 N4 1_555 1_555
C13 C14 1_555 1_555
C16A C15A 1_555 1_555
C20A C19A 1_555 1_555
C22A C21A 1_555 1_555
C26A C25A 1_555 1_555
C6A C7A 1_555 1_555
N4A Mn2_3 1_555 1_555
C13A C14A 1_555 1_555

#END
