
#######################################################################
#
#                 Cambridge Crystallographic Data Centre
#                                CCDC 
#
#######################################################################
#
# If this CIF has been generated from an entry in the Cambridge 
# Structural Database, then it will include bibliographic, chemical, 
# crystal, experimental, refinement or atomic coordinate data resulting 
# from the CCDC's data processing and validation procedures.
#
#######################################################################

data_MUTJIV
_symmetry_cell_setting           monoclinic
_symmetry_space_group_name_H-M   'P 21/c'
_symmetry_Int_Tables_number      14
_space_group_name_Hall           '-P 2ybc'
loop_
_symmetry_equiv_pos_site_id
_symmetry_equiv_pos_as_xyz
1 x,y,z
2 -x,1/2+y,1/2-z
3 -x,-y,-z
4 x,1/2-y,1/2+z
_cell_length_a                   11.036(2)
_cell_length_b                   7.6673(15)
_cell_length_c                   15.828(3)
_cell_angle_alpha                90
_cell_angle_beta                 98.02(3)
_cell_angle_gamma                90
_cell_volume                     1326.21
loop_
_atom_site_label
_atom_site_type_symbol
_atom_site_fract_x
_atom_site_fract_y
_atom_site_fract_z
Zn1 Zn 0.97958(3) 0.05073(4) 0.11781(2)
N1 N 0.8162(2) 0.3143(3) 0.30435(16)
C1 C 0.8018(3) 0.2108(4) 0.23710(18)
N2 N 0.9082(2) 0.1888(3) 0.20640(15)
N3 N 0.9919(2) 0.2814(4) 0.25684(17)
C2 C 0.5146(3) -0.0559(5) 0.1968(3)
H1 H 0.4779 -0.1490 0.2211
C3 C 0.6819(4) 0.5356(4) 0.1243(2)
H2 H 0.6436 0.5498 0.1726
C4 C 0.6240(3) 0.2218(4) 0.12335(19)
C5 C 0.6286(3) 0.0021(4) 0.2332(2)
H3 H 0.6688 -0.0520 0.2818
C6 C 0.6826(3) 0.1417(4) 0.19692(19)
C7 C 0.6805(3) 0.3745(4) 0.08571(18)
C8 C 0.5095(3) 0.1606(5) 0.0878(2)
H4 H 0.4691 0.2125 0.0387
C9 C 0.4555(4) 0.0230(6) 0.1250(3)
H5 H 0.3785 -0.0161 0.1012
N4 N 0.9352(2) 0.3546(3) 0.31480(15)
C10 C 0.7389(3) 0.6752(4) 0.0928(2)
H6 H 0.7379 0.7831 0.1195
C11 C 0.7378(3) 0.3561(4) 0.0138(2)
H7 H 0.7371 0.2486 -0.0135
C12 C 0.7977(3) 0.6573(4) 0.02187(17)
C13 C 0.7960(3) 0.4967(4) -0.0178(2)
H8 H 0.8343 0.4830 -0.0661
O1 O 0.86462(19) 0.9523(3) 0.02656(13)
C14 C 0.8637(3) 0.8061(4) -0.01019(18)
O2 O 0.9151(2) 0.7792(3) -0.07508(14)
Zn1A Zn 1.02042(3) 0.55073(4) 0.38219(2)
Zn1_2 Zn 0.97958(3) 1.05073(4) 0.11781(2)
Zn1B Zn 1.02042(3) 0.94927(4) -0.11781(2)
N4A N 1.0648(2) -0.1454(3) 0.18520(15)
O1_2 O 0.86462(19) -0.0477(3) 0.02656(13)
O2B O 1.0849(2) 0.2208(3) 0.07508(14)
loop_
_geom_bond_atom_site_label_1
_geom_bond_atom_site_label_2
_geom_bond_site_symmetry_1
_geom_bond_site_symmetry_2
Zn1 N2 1_555 1_555
N1 C1 1_555 1_555
C1 N2 1_555 1_555
N2 N3 1_555 1_555
N3 N4 1_555 1_555
C2 H1 1_555 1_555
C3 H2 1_555 1_555
C4 C6 1_555 1_555
C5 C2 1_555 1_555
H3 C5 1_555 1_555
C6 C1 1_555 1_555
C7 C3 1_555 1_555
C8 C4 1_555 1_555
H4 C8 1_555 1_555
C9 C2 1_555 1_555
H5 C9 1_555 1_555
N4 N1 1_555 1_555
C10 C3 1_555 1_555
H6 C10 1_555 1_555
C11 C7 1_555 1_555
H7 C11 1_555 1_555
C12 C10 1_555 1_555
C13 C11 1_555 1_555
H8 C13 1_555 1_555
O1 C14 1_555 1_555
C14 C12 1_555 1_555
O2 C14 1_555 1_555
Zn1A N4 1_555 1_555
Zn1_2 O1 1_555 1_555
Zn1B O2 1_555 1_555
N4A Zn1 1_555 1_555
O1_2 Zn1 1_555 1_555
O2B Zn1 1_555 1_555
C4 C7 1_555 1_555
C5 C6 1_555 1_555
C8 C9 1_555 1_555
C12 C13 1_555 1_555

#END
