
#######################################################################
#
#                 Cambridge Crystallographic Data Centre
#                                CCDC 
#
#######################################################################
#
# If this CIF has been generated from an entry in the Cambridge 
# Structural Database, then it will include bibliographic, chemical, 
# crystal, experimental, refinement or atomic coordinate data resulting 
# from the CCDC's data processing and validation procedures.
#
#######################################################################

data_MUTJER
_symmetry_cell_setting           triclinic
_symmetry_space_group_name_H-M   'P -1'
_symmetry_Int_Tables_number      2
_space_group_name_Hall           '-P 1'
loop_
_symmetry_equiv_pos_site_id
_symmetry_equiv_pos_as_xyz
1 x,y,z
2 -x,-y,-z
_cell_length_a                   7.528(2)
_cell_length_b                   11.741(3)
_cell_length_c                   15.560(4)
_cell_angle_alpha                74.838(5)
_cell_angle_beta                 82.293(5)
_cell_angle_gamma                86.460(5)
_cell_volume                     1314.91
loop_
_atom_site_label
_atom_site_type_symbol
_atom_site_fract_x
_atom_site_fract_y
_atom_site_fract_z
Ag1 Ag -0.07573(4) 0.63482(3) 0.53297(3)
Ag2 Ag 0.30059(5) 0.20062(3) 0.85948(2)
C1 C -0.0558(5) 0.8452(3) 0.6222(3)
C2 C -0.1982(5) 1.0258(4) 0.5932(3)
C3 C -0.2660(6) 1.0007(4) 0.5223(3)
H1 H -0.3333 1.0573 0.4854
C4 C -0.2326(5) 0.8913(4) 0.5072(3)
C5 C -0.3085(7) 0.8553(4) 0.4347(3)
H2 H -0.2159 0.8176 0.4022
H3 H -0.3550 0.9238 0.3945
H4 H -0.4033 0.8011 0.4609
C6 C -0.2365(6) 1.1415(4) 0.6170(4)
H5 H -0.1303 1.1665 0.6339
H6 H -0.3308 1.1323 0.6661
H7 H -0.2729 1.1996 0.5660
C7 C 0.2639(6) -0.0273(4) 0.7937(3)
C8 C 0.5340(6) -0.0271(4) 0.8467(3)
C9 C 0.5823(6) -0.1296(4) 0.8239(3)
H8 H 0.6932 -0.1658 0.8350
C10 C 0.4641(6) -0.1799(4) 0.7837(3)
C11 C 0.6557(6) 0.0329(5) 0.8888(4)
H9 H 0.5939 0.0463 0.9436
H10 H 0.6906 0.1071 0.8483
H11 H 0.7605 -0.0163 0.9016
C12 C 0.5085(7) -0.2909(5) 0.7547(4)
H12 H 0.4629 -0.2844 0.6988
H13 H 0.4548 -0.3563 0.7994
H14 H 0.6363 -0.3033 0.7471
C13 C 0.3220(6) 0.3669(4) 0.9846(3)
C14 C 0.1155(6) 0.4125(4) 1.0931(3)
C15 C -0.0039(6) 0.3351(4) 1.0792(3)
H15 H -0.1168 0.3245 1.1123
C16 C 0.0507(6) 0.2746(4) 1.0147(3)
C17 C -0.0722(6) 0.1925(4) 0.9931(3)
H16 H -0.0812 0.2147 0.9299
H17 H -0.1889 0.1974 1.0257
H18 H -0.0250 0.1131 1.0100
C18 C 0.0682(7) 0.4815(4) 1.1615(3)
H19 H 0.1009 0.5621 1.1357
H20 H 0.1319 0.4484 1.2122
H21 H -0.0585 0.4782 1.1805
C19 C 0.2810(6) 0.5251(4) 0.5701(3)
C20 C 0.4574(5) 0.4639(3) 0.5461(3)
H22 H 0.4316 0.3854 0.5407
C21 C 0.5795(6) 0.4488(4) 0.6192(3)
H23 H 0.6958 0.4190 0.5982
H24 H 0.5965 0.5258 0.6285
C22 C 0.5114(6) 0.3666(4) 0.7087(3)
N1 N -0.1282(4) 0.8104(3) 0.5578(2)
N2 N 0.0579(5) 0.7710(3) 0.6690(3)
H25 H 0.1042 0.7901 0.7107
H26 H 0.0852 0.7038 0.6575
N3 N -0.0935(5) 0.9487(3) 0.6430(2)
N4 N 0.2122(5) 0.2898(3) 0.9671(2)
N5 N 0.4836(5) 0.3830(4) 0.9379(3)
H27 H 0.5551 0.4313 0.9476
H28 H 0.5168 0.3450 0.8978
N6 N 0.2770(5) 0.4285(3) 1.0464(2)
N7 N 0.3730(5) 0.0264(3) 0.8323(2)
N8 N 0.0999(5) 0.0212(3) 0.7797(3)
H29 H 0.0665 0.0851 0.7953
H30 H 0.0287 -0.0118 0.7553
N9 N 0.3047(5) -0.1286(3) 0.7686(2)
O1 O 0.1346(4) 0.4829(3) 0.5595(2)
O3 O 0.2869(4) 0.6178(3) 0.5925(2)
O4 O 0.6177(4) 0.3353(3) 0.76679(19)
O5 O 0.3546(4) 0.3360(3) 0.7201(2)
Ag1A Ag 1.07573(4) 0.36518(3) 0.46703(3)
Ag1A_2 Ag 0.07573(4) 0.36518(3) 0.46703(3)
Ag1_2 Ag 0.92427(4) 0.63482(3) 0.53297(3)
Ag2A Ag 0.69941(5) 0.79938(3) 0.14052(2)
C1A C 1.0558(5) 0.1548(3) 0.3778(3)
C2A C 1.1982(5) -0.0258(4) 0.4068(3)
C3A C 1.2660(6) -0.0007(4) 0.4777(3)
H1A H 1.3333 -0.0573 0.5146
C4A C 1.2326(5) 0.1087(4) 0.4928(3)
C5A C 1.3085(7) 0.1447(4) 0.5653(3)
H2A H 1.2159 0.1824 0.5978
H3A H 1.3550 0.0762 0.6055
H4A H 1.4033 0.1989 0.5391
C6A C 1.2365(6) -0.1415(4) 0.3830(4)
H5A H 1.1303 -0.1665 0.3661
H6A H 1.3308 -0.1323 0.3339
H7A H 1.2729 -0.1996 0.4340
C7A C 0.7361(6) 1.0273(4) 0.2063(3)
C8A C 0.4660(6) 1.0271(4) 0.1533(3)
C9A C 0.4177(6) 1.1296(4) 0.1761(3)
H8A H 0.3068 1.1658 0.1650
C10A C 0.5359(6) 1.1799(4) 0.2163(3)
C11A C 0.3443(6) 0.9671(5) 0.1112(4)
H9A H 0.4061 0.9537 0.0564
H10A H 0.3094 0.8929 0.1517
H11A H 0.2395 1.0163 0.0984
C12A C 0.4915(7) 1.2909(5) 0.2453(4)
H12A H 0.5371 1.2844 0.3012
H13A H 0.5452 1.3563 0.2006
H14A H 0.3637 1.3033 0.2529
C13A C 0.6780(6) 0.6331(4) 0.0154(3)
C14A C 0.8845(6) 0.5875(4) -0.0931(3)
C15A C 1.0039(6) 0.6649(4) -0.0792(3)
H15A H 1.1168 0.6755 -0.1123
C16A C 0.9493(6) 0.7254(4) -0.0147(3)
C17A C 1.0722(6) 0.8075(4) 0.0069(3)
H16A H 1.0812 0.7853 0.0701
H17A H 1.1889 0.8026 -0.0257
H18A H 1.0250 0.8869 -0.0100
C18A C 0.9318(7) 0.5185(4) -0.1615(3)
H19A H 0.8991 0.4379 -0.1357
H20A H 0.8681 0.5516 -0.2122
H21A H 1.0585 0.5218 -0.1805
C19A C 0.7190(6) 0.4749(4) 0.4299(3)
C20A C 0.5426(5) 0.5361(3) 0.4539(3)
H22A H 0.5684 0.6146 0.4593
C21A C 0.4205(6) 0.5512(4) 0.3808(3)
H23A H 0.3042 0.5810 0.4018
H24A H 0.4035 0.4742 0.3715
C22A C 0.4886(6) 0.6334(4) 0.2913(3)
N1A N 1.1282(4) 0.1896(3) 0.4422(2)
N2A N 0.9421(5) 0.2290(3) 0.3310(3)
H25A H 0.8958 0.2099 0.2893
H26A H 0.9148 0.2962 0.3425
N3A N 1.0935(5) 0.0513(3) 0.3570(2)
N4A N 0.7878(5) 0.7102(3) 0.0329(2)
N5A N 0.5164(5) 0.6170(4) 0.0621(3)
H27A H 0.4449 0.5687 0.0524
H28A H 0.4832 0.6550 0.1022
N6A N 0.7230(5) 0.5715(3) -0.0464(2)
N7A N 0.6270(5) 0.9736(3) 0.1677(2)
N8A N 0.9001(5) 0.9788(3) 0.2203(3)
H29A H 0.9335 0.9149 0.2047
H30A H 0.9713 1.0118 0.2447
N9A N 0.6953(5) 1.1286(3) 0.2314(2)
O1A O 0.8654(4) 0.5171(3) 0.4405(2)
O1A_2 O -0.1346(4) 0.5171(3) 0.4405(2)
O1_2 O 1.1346(4) 0.4829(3) 0.5595(2)
O3A O 0.7131(4) 0.3822(3) 0.4075(2)
O4A O 0.3823(4) 0.6647(3) 0.23321(19)
O5A O 0.6454(4) 0.6640(3) 0.2799(2)
O2 O 0.9855(4) 0.2732(3) 0.7475(2)
H31 H 1.0641 0.3126 0.7085
H32 H 0.8834 0.3082 0.7452
loop_
_geom_bond_atom_site_label_1
_geom_bond_atom_site_label_2
_geom_bond_site_symmetry_1
_geom_bond_site_symmetry_2
Ag1 N1 1_555 1_555
Ag2 N4 1_555 1_555
C1 N1 1_555 1_555
C2 C3 1_555 1_555
C3 H1 1_555 1_555
C4 C3 1_555 1_555
C5 C4 1_555 1_555
H2 C5 1_555 1_555
H3 C5 1_555 1_555
H4 C5 1_555 1_555
C6 C2 1_555 1_555
H5 C6 1_555 1_555
H6 C6 1_555 1_555
H7 C6 1_555 1_555
C7 N7 1_555 1_555
C8 C9 1_555 1_555
C9 H8 1_555 1_555
C10 C9 1_555 1_555
C11 C8 1_555 1_555
H9 C11 1_555 1_555
H10 C11 1_555 1_555
H11 C11 1_555 1_555
C12 C10 1_555 1_555
H12 C12 1_555 1_555
H13 C12 1_555 1_555
H14 C12 1_555 1_555
C13 N4 1_555 1_555
C14 C15 1_555 1_555
C15 H15 1_555 1_555
C16 C15 1_555 1_555
C17 C16 1_555 1_555
H16 C17 1_555 1_555
H17 C17 1_555 1_555
H18 C17 1_555 1_555
C18 C14 1_555 1_555
H19 C18 1_555 1_555
H20 C18 1_555 1_555
H21 C18 1_555 1_555
C19 C20 1_555 1_555
C20 H22 1_555 1_555
C21 C20 1_555 1_555
H23 C21 1_555 1_555
H24 C21 1_555 1_555
C22 C21 1_555 1_555
N1 C4 1_555 1_555
N2 C1 1_555 1_555
H25 N2 1_555 1_555
H26 N2 1_555 1_555
N3 C1 1_555 1_555
N4 C16 1_555 1_555
N5 C13 1_555 1_555
H27 N5 1_555 1_555
H28 N5 1_555 1_555
N6 C13 1_555 1_555
N7 Ag2 1_555 1_555
N8 C7 1_555 1_555
H29 N8 1_555 1_555
H30 N8 1_555 1_555
N9 C7 1_555 1_555
O1 Ag1 1_555 1_555
O2 H31 1_555 1_555
H32 O2 1_555 1_555
O3 C19 1_555 1_555
O4 C22 1_555 1_555
O5 Ag2 1_555 1_555
Ag1A N1A 1_555 1_555
Ag1A_2 O1 1_555 1_555
Ag1_2 O1A 1_555 1_555
Ag2A N4A 1_555 1_555
C1A N1A 1_555 1_555
C2A C3A 1_555 1_555
C3A H1A 1_555 1_555
C4A C3A 1_555 1_555
C5A C4A 1_555 1_555
H2A C5A 1_555 1_555
H3A C5A 1_555 1_555
H4A C5A 1_555 1_555
C6A C2A 1_555 1_555
H5A C6A 1_555 1_555
H6A C6A 1_555 1_555
H7A C6A 1_555 1_555
C7A N7A 1_555 1_555
C8A C9A 1_555 1_555
C9A H8A 1_555 1_555
C10A C9A 1_555 1_555
C11A C8A 1_555 1_555
H9A C11A 1_555 1_555
H10A C11A 1_555 1_555
H11A C11A 1_555 1_555
C12A C10A 1_555 1_555
H12A C12A 1_555 1_555
H13A C12A 1_555 1_555
H14A C12A 1_555 1_555
C13A N4A 1_555 1_555
C14A C15A 1_555 1_555
C15A H15A 1_555 1_555
C16A C15A 1_555 1_555
C17A C16A 1_555 1_555
H16A C17A 1_555 1_555
H17A C17A 1_555 1_555
H18A C17A 1_555 1_555
C18A C14A 1_555 1_555
H19A C18A 1_555 1_555
H20A C18A 1_555 1_555
H21A C18A 1_555 1_555
C19A C20A 1_555 1_555
C20A C20 1_555 1_555
H22A C20A 1_555 1_555
C21A C20A 1_555 1_555
H23A C21A 1_555 1_555
H24A C21A 1_555 1_555
C22A C21A 1_555 1_555
N1A C4A 1_555 1_555
N2A C1A 1_555 1_555
H25A N2A 1_555 1_555
H26A N2A 1_555 1_555
N3A C1A 1_555 1_555
N4A C16A 1_555 1_555
N5A C13A 1_555 1_555
H27A N5A 1_555 1_555
H28A N5A 1_555 1_555
N6A C13A 1_555 1_555
N7A Ag2A 1_555 1_555
N8A C7A 1_555 1_555
H29A N8A 1_555 1_555
H30A N8A 1_555 1_555
N9A C7A 1_555 1_555
O1A Ag1A 1_555 1_555
O1A_2 Ag1 1_555 1_555
O1_2 Ag1A 1_555 1_555
O3A C19A 1_555 1_555
O4A C22A 1_555 1_555
O5A Ag2A 1_555 1_555
C2 N3 1_555 1_555
C8 N7 1_555 1_555
C10 N9 1_555 1_555
C14 N6 1_555 1_555
C19 O1 1_555 1_555
C22 O5 1_555 1_555
Ag1A_2 O1A_2 1_555 1_555
Ag1_2 O1_2 1_555 1_555
C2A N3A 1_555 1_555
C8A N7A 1_555 1_555
C10A N9A 1_555 1_555
C14A N6A 1_555 1_555
C19A O1A 1_555 1_555
C22A O5A 1_555 1_555

#END
