
#######################################################################
#
#                 Cambridge Crystallographic Data Centre
#                                CCDC 
#
#######################################################################
#
# If this CIF has been generated from an entry in the Cambridge 
# Structural Database, then it will include bibliographic, chemical, 
# crystal, experimental, refinement or atomic coordinate data resulting 
# from the CCDC's data processing and validation procedures.
#
#######################################################################

data_MUTJAN
_symmetry_cell_setting           triclinic
_symmetry_space_group_name_H-M   'P -1'
_symmetry_Int_Tables_number      2
_space_group_name_Hall           '-P 1'
loop_
_symmetry_equiv_pos_site_id
_symmetry_equiv_pos_as_xyz
1 x,y,z
2 -x,-y,-z
_cell_length_a                   6.9115(16)
_cell_length_b                   8.251(2)
_cell_length_c                   13.773(3)
_cell_angle_alpha                75.944(4)
_cell_angle_beta                 80.613(4)
_cell_angle_gamma                65.600(4)
_cell_volume                     692.108
loop_
_atom_site_label
_atom_site_type_symbol
_atom_site_fract_x
_atom_site_fract_y
_atom_site_fract_z
Ag1 Ag 0.74526(7) 0.19398(6) 0.28771(3)
Ag2 Ag 0.76222(8) 0.03392(7) 0.75277(4)
C1 C 0.7280(9) 0.0737(8) 0.5234(5)
C2 C 0.7916(9) -0.1599(8) 0.4435(5)
C3 C 0.8118(10) -0.2772(9) 0.5340(5)
H1 H 0.8330 -0.3975 0.5384
C4 C 0.7998(10) -0.2119(9) 0.6170(5)
H2 H 0.8219 -0.2920 0.6785
C5 C 0.8150(11) -0.2219(9) 0.3485(5)
H3 H 0.7072 -0.1338 0.3055
H4 H 0.9532 -0.2362 0.3157
H5 H 0.8000 -0.3361 0.3626
C6 C 0.3704(9) 0.3567(8) 0.1489(5)
C7 C 0.2809(9) 0.3736(8) 0.0520(4)
H6 H 0.2930 0.2549 0.0463
H7 H 0.3654 0.4147 -0.0040
C8 C 0.0473(9) 0.5057(8) 0.0455(4)
H8 H 0.0396 0.6294 0.0377
C9 C -0.0855(9) 0.4649(8) 0.1408(4)
N1 N 0.7578(8) -0.0378(7) 0.6145(4)
N2 N 0.6763(8) 0.2501(7) 0.5171(4)
H9 H 0.6589 0.3222 0.4595
H10 H 0.6604 0.2919 0.5706
N3 N 0.7509(7) 0.0155(7) 0.4373(4)
O1 O 0.7980(11) 0.1192(8) 0.8788(4)
H11 H 0.7548 0.0688 0.9345
H12 H 0.7519 0.2294 0.8485
O2 O 0.5053(7) 0.2044(7) 0.1848(4)
O3 O 0.5046(7) 0.5282(6) 0.3299(3)
H13 H 0.4318 0.5116 0.2920
H14 H 0.5802 0.5538 0.2782
O4 O 0.3046(7) 0.4904(6) 0.1894(4)
O6 O -0.2275(7) 0.5931(6) 0.1760(3)
O7 O -0.0434(7) 0.3009(6) 0.1772(4)
Ag1A Ag -0.74526(7) 0.80602(6) -0.28771(3)
Ag1_2 Ag -0.25474(7) 0.19398(6) 0.28771(3)
Ag1A_2 Ag 0.25474(7) 0.80602(6) -0.28771(3)
Ag2A Ag 0.23778(8) -0.03392(7) 0.24723(4)
Ag2_2 Ag -0.23778(8) 1.03392(7) -0.24723(4)
Ag2A_2 Ag -0.76222(8) 0.96608(7) -0.75277(4)
C1A C -0.7280(9) 0.9263(8) -0.5234(5)
C2A C -0.7916(9) 1.1599(8) -0.4435(5)
C3A C -0.8118(10) 1.2772(9) -0.5340(5)
H1A H -0.8330 1.3975 -0.5384
C4A C -0.7998(10) 1.2119(9) -0.6170(5)
H2A H -0.8219 1.2920 -0.6785
C5A C -0.8150(11) 1.2219(9) -0.3485(5)
H3A H -0.7072 1.1338 -0.3055
H4A H -0.9532 1.2362 -0.3157
H5A H -0.8000 1.3361 -0.3626
C6A C -0.3704(9) 0.6433(8) -0.1489(5)
C7A C -0.2809(9) 0.6264(8) -0.0520(4)
H6A H -0.2930 0.7451 -0.0463
H7A H -0.3654 0.5853 0.0040
C8A C -0.0473(9) 0.4943(8) -0.0455(4)
H8A H -0.0396 0.3706 -0.0377
C9A C 0.0855(9) 0.5351(8) -0.1408(4)
N1A N -0.7578(8) 1.0378(7) -0.6145(4)
N1A_2 N 0.2422(8) 0.0378(7) 0.3855(4)
N2A N -0.6763(8) 0.7499(7) -0.5171(4)
H9A H -0.6589 0.6778 -0.4595
H10A H -0.6604 0.7081 -0.5706
N3A N -0.7509(7) 0.9845(7) -0.4373(4)
O1A O 0.2020(11) -0.1192(8) 0.1212(4)
H11A H 0.2452 -0.0688 0.0655
H12A H 0.2481 -0.2294 0.1515
O2A O -0.5053(7) 0.7956(7) -0.1848(4)
O3A O -0.5046(7) 0.4718(6) -0.3299(3)
H13A H -0.4318 0.4884 -0.2920
H14A H -0.5802 0.4462 -0.2782
O4A O -0.3046(7) 0.5096(6) -0.1894(4)
O6A O 0.2275(7) 0.4069(6) -0.1760(3)
O7A O 0.0434(7) 0.6991(6) -0.1772(4)
O7_2 O 0.9566(7) 0.3009(6) 0.1772(4)
O7A_2 O 1.0434(7) -0.3009(6) 0.8228(4)
O7A_3 O -0.9566(7) 0.6991(6) -0.1772(4)
O5 O 0.7517(9) 0.9365(7) 0.0851(4)
H15 H 0.7186 0.8468 0.1135
H16 H 0.6641 0.9725 0.1340
loop_
_geom_bond_atom_site_label_1
_geom_bond_atom_site_label_2
_geom_bond_site_symmetry_1
_geom_bond_site_symmetry_2
Ag1 N3 1_555 1_555
Ag2 N1 1_555 1_555
C1 N1 1_555 1_555
C2 C3 1_555 1_555
C3 H1 1_555 1_555
C4 C3 1_555 1_555
H2 C4 1_555 1_555
C5 C2 1_555 1_555
H3 C5 1_555 1_555
H4 C5 1_555 1_555
H5 C5 1_555 1_555
C6 C7 1_555 1_555
C7 H6 1_555 1_555
H7 C7 1_555 1_555
C8 C7 1_555 1_555
H8 C8 1_555 1_555
C9 C8 1_555 1_555
N1 C4 1_555 1_555
N2 C1 1_555 1_555
H9 N2 1_555 1_555
H10 N2 1_555 1_555
N3 C1 1_555 1_555
O1 Ag2 1_555 1_555
H11 O1 1_555 1_555
H12 O1 1_555 1_555
O2 Ag1 1_555 1_555
O3 Ag1 1_555 1_555
H13 O3 1_555 1_555
H14 O3 1_555 1_555
O4 C6 1_555 1_555
O5 H15 1_555 1_555
H16 O5 1_555 1_555
O6 C9 1_555 1_555
O7 C9 1_555 1_555
Ag1A N3A 1_555 1_555
Ag1_2 O7 1_555 1_555
Ag1A_2 O7A 1_555 1_555
Ag2A O7 1_555 1_555
Ag2_2 O7A 1_555 1_555
Ag2A_2 N1A 1_555 1_555
C1A N1A 1_555 1_555
C2A C3A 1_555 1_555
C3A H1A 1_555 1_555
C4A C3A 1_555 1_555
H2A C4A 1_555 1_555
C5A C2A 1_555 1_555
H3A C5A 1_555 1_555
H4A C5A 1_555 1_555
H5A C5A 1_555 1_555
C6A C7A 1_555 1_555
C7A H6A 1_555 1_555
H7A C7A 1_555 1_555
C8A C8 1_555 1_555
H8A C8A 1_555 1_555
C9A C8A 1_555 1_555
N1A C4A 1_555 1_555
N1A_2 Ag2A 1_555 1_555
N2A C1A 1_555 1_555
H9A N2A 1_555 1_555
H10A N2A 1_555 1_555
N3A C1A 1_555 1_555
O1A Ag2A 1_555 1_555
H11A O1A 1_555 1_555
H12A O1A 1_555 1_555
O2A Ag1A 1_555 1_555
O3A Ag1A 1_555 1_555
H13A O3A 1_555 1_555
H14A O3A 1_555 1_555
O4A C6A 1_555 1_555
O6A C9A 1_555 1_555
O7A C9A 1_555 1_555
O7_2 Ag1 1_555 1_555
O7A_2 Ag2 1_555 1_555
O7A_3 Ag1A 1_555 1_555
C2 N3 1_555 1_555
C6 O2 1_555 1_555
C2A N3A 1_555 1_555
C6A O2A 1_555 1_555
C7A C8A 1_555 1_555

#END
