
#######################################################################
#
#                 Cambridge Crystallographic Data Centre
#                                CCDC 
#
#######################################################################
#
# If this CIF has been generated from an entry in the Cambridge 
# Structural Database, then it will include bibliographic, chemical, 
# crystal, experimental, refinement or atomic coordinate data resulting 
# from the CCDC's data processing and validation procedures.
#
#######################################################################

data_MUTJAM
_symmetry_cell_setting           monoclinic
_symmetry_space_group_name_H-M   'I 2/a'
_symmetry_Int_Tables_number      15
_space_group_name_Hall           '-I 2ya'
loop_
_symmetry_equiv_pos_site_id
_symmetry_equiv_pos_as_xyz
1 x,y,z
2 1/2+x,1/2+y,1/2+z
3 1/2+x,-y,z
4 x,1/2-y,1/2+z
5 -x,-y,-z
6 1/2-x,1/2-y,1/2-z
7 1/2-x,y,-z
8 -x,1/2+y,1/2-z
_cell_length_a                   8.620(4)
_cell_length_b                   10.482(3)
_cell_length_c                   24.860(9)
_cell_angle_alpha                90
_cell_angle_beta                 99.45(4)
_cell_angle_gamma                90
_cell_volume                     2215.74
loop_
_atom_site_label
_atom_site_type_symbol
_atom_site_fract_x
_atom_site_fract_y
_atom_site_fract_z
Mn1 Mn 0.2500 0.64943(5) 0.5000
N1 N -0.0090(3) 0.6466(2) 0.47328(10)
C1 C -0.1094(3) 0.5774(3) 0.45424(11)
N2 N -0.2178(3) 0.4959(2) 0.43595(9)
C2 C -0.3099(3) 0.5236(3) 0.38492(11)
C3 C -0.3163(4) 0.6438(3) 0.36160(13)
H1 H -0.2584(4) 0.7099(3) 0.38005(13)
C4 C -0.4069(5) 0.6672(4) 0.31149(14)
H2 H -0.4090(5) 0.7483(4) 0.29618(14)
C5 C -0.4931(4) 0.5712(4) 0.28461(12)
C6 C -0.4905(4) 0.4522(4) 0.30674(13)
H3 H -0.5499(4) 0.3870(4) 0.28818(13)
C7 C -0.3999(4) 0.4290(3) 0.35657(13)
H4 H -0.3992(4) 0.3476(3) 0.37153(13)
Cl1 Cl -0.61079(14) 0.59974(13) 0.22161(4)
N3 N 0.3012(3) 0.8265(2) 0.45229(10)
C8 C 0.3706(4) 0.8210(3) 0.40838(14)
H5 H 0.3827(4) 0.7416(3) 0.39297(14)
C9 C 0.4255(4) 0.9265(4) 0.3845(2)
H6 H 0.4715(4) 0.9193(4) 0.3533(2)
C10 C 0.4101(4) 1.0432(3) 0.4084(2)
H7 H 0.4467(4) 1.1166(3) 0.3936(2)
C11 C 0.3410(4) 1.0511(3) 0.4538(2)
H8 H 0.3302(4) 1.1297(3) 0.4701(2)
C12 C 0.2869(3) 0.9408(3) 0.47539(12)
C12F C 0.2131(3) 0.9408(3) 0.52461(12)
N3F N 0.1988(3) 0.8265(2) 0.54771(10)
C8F C 0.1294(4) 0.8210(3) 0.59162(14)
H5F H 0.1173(4) 0.7416(3) 0.60703(14)
C9F C 0.0745(4) 0.9265(4) 0.6155(2)
H6F H 0.0285(4) 0.9193(4) 0.6467(2)
C10F C 0.0899(4) 1.0432(3) 0.5916(2)
H7F H 0.0533(4) 1.1166(3) 0.6064(2)
C11F C 0.1590(4) 1.0511(3) 0.5462(2)
H8F H 0.1698(4) 1.1297(3) 0.5299(2)
N1F N 0.5090(3) 0.6466(2) 0.52672(10)
C1F C 0.6094(3) 0.5774(3) 0.54576(11)
N2F N 0.7178(3) 0.4959(2) 0.56405(9)
C2F C 0.8099(3) 0.5236(3) 0.61508(11)
C3F C 0.8163(4) 0.6438(3) 0.63840(13)
H1F H 0.7584(4) 0.7099(3) 0.61995(13)
C4F C 0.9069(5) 0.6672(4) 0.68851(14)
H2F H 0.9090(5) 0.7483(4) 0.70382(14)
C5F C 0.9931(4) 0.5712(4) 0.71539(12)
C6F C 0.9905(4) 0.4522(4) 0.69326(13)
H3F H 1.0499(4) 0.3870(4) 0.71182(13)
C7F C 0.8999(4) 0.4290(3) 0.64343(13)
H4F H 0.8992(4) 0.3476(3) 0.62847(13)
Cl1F Cl 1.11079(14) 0.59974(13) 0.77839(4)
N2B N 0.2822(3) 0.5041(2) 0.43595(9)
N2D N 0.2178(3) 0.5041(2) 0.56405(9)
Mn1B Mn -0.2500 0.35057(5) 0.5000
Mn1B_2 Mn 0.7500 0.35057(5) 0.5000
loop_
_geom_bond_atom_site_label_1
_geom_bond_atom_site_label_2
_geom_bond_site_symmetry_1
_geom_bond_site_symmetry_2
Mn1 N1 1_555 1_555
N1 C1 1_555 1_555
C1 N2 1_555 1_555
N2 C2 1_555 1_555
C2 C3 1_555 1_555
C3 H1 1_555 1_555
C4 C3 1_555 1_555
H2 C4 1_555 1_555
C5 C4 1_555 1_555
C6 C5 1_555 1_555
H3 C6 1_555 1_555
C7 C2 1_555 1_555
H4 C7 1_555 1_555
Cl1 C5 1_555 1_555
N3 Mn1 1_555 1_555
C8 N3 1_555 1_555
H5 C8 1_555 1_555
C9 C8 1_555 1_555
H6 C9 1_555 1_555
C10 C9 1_555 1_555
H7 C10 1_555 1_555
C11 C10 1_555 1_555
H8 C11 1_555 1_555
C12 N3 1_555 1_555
C12F C12 1_555 1_555
N3F Mn1 1_555 1_555
C8F N3F 1_555 1_555
H5F C8F 1_555 1_555
C9F C8F 1_555 1_555
H6F C9F 1_555 1_555
C10F C9F 1_555 1_555
H7F C10F 1_555 1_555
C11F C12F 1_555 1_555
H8F C11F 1_555 1_555
N1F Mn1 1_555 1_555
C1F N1F 1_555 1_555
N2F C1F 1_555 1_555
C2F N2F 1_555 1_555
C3F C2F 1_555 1_555
H1F C3F 1_555 1_555
C4F C3F 1_555 1_555
H2F C4F 1_555 1_555
C5F C4F 1_555 1_555
C6F C5F 1_555 1_555
H3F C6F 1_555 1_555
C7F C2F 1_555 1_555
H4F C7F 1_555 1_555
Cl1F C5F 1_555 1_555
N2B Mn1 1_555 1_555
N2D Mn1 1_555 1_555
Mn1B N2 1_555 1_555
Mn1B_2 N2F 1_555 1_555
C6 C7 1_555 1_555
C11 C12 1_555 1_555
C12F N3F 1_555 1_555
C10F C11F 1_555 1_555
C6F C7F 1_555 1_555

#END
