
#######################################################################
#
#                 Cambridge Crystallographic Data Centre
#                                CCDC 
#
#######################################################################
#
# If this CIF has been generated from an entry in the Cambridge 
# Structural Database, then it will include bibliographic, chemical, 
# crystal, experimental, refinement or atomic coordinate data resulting 
# from the CCDC's data processing and validation procedures.
#
#######################################################################

data_MUTKIW
_symmetry_cell_setting           monoclinic
_symmetry_space_group_name_H-M   'C 2/c'
_symmetry_Int_Tables_number      15
_space_group_name_Hall           '-C 2yn'
loop_
_symmetry_equiv_pos_site_id
_symmetry_equiv_pos_as_xyz
1 x,y,z
2 -x,y,1/2-z
3 1/2+x,1/2+y,z
4 1/2-x,1/2+y,1/2-z
5 -x,-y,-z
6 x,-y,1/2+z
7 1/2-x,1/2-y,-z
8 1/2+x,1/2-y,1/2+z
_cell_length_a                   12.655(3)
_cell_length_b                   14.774(3)
_cell_length_c                   13.911(3)
_cell_angle_alpha                90
_cell_angle_beta                 96.15(3)
_cell_angle_gamma                90
_cell_volume                     2585.9
loop_
_atom_site_label
_atom_site_type_symbol
_atom_site_fract_x
_atom_site_fract_y
_atom_site_fract_z
Cd1 Cd 0.2500 0.2500 0.0000
N1 N 0.21133(18) 0.17343(15) 0.13784(16)
N2 N 0.2289(2) 0.12746(15) 0.28874(17)
N3 N 0.3208(2) 0.02856(15) 0.40507(16)
N4 N 0.25818(19) -0.04077(15) 0.42830(17)
N5 N 0.31334(17) -0.11474(15) 0.42863(16)
N6 N 0.4162(2) 0.2769(2) 0.0759(2)
C1 C 0.4138(2) -0.09495(18) 0.40413(18)
C2 C 0.5004(2) -0.1516(2) 0.3936(2)
H1 H 0.4965 -0.2139 0.4017
C3 C 0.5917(3) -0.1101(3) 0.3706(2)
H2 H 0.6509 -0.1453 0.3623
C4 C 0.5977(3) -0.0160(3) 0.3593(2)
H3 H 0.6615 0.0092 0.3451
C5 C 0.5136(3) 0.0399(2) 0.3681(2)
H4 H 0.5184 0.1023 0.3606
C6 C 0.4194(2) -0.00223(19) 0.38933(18)
C7 C 0.2729(3) 0.1171(2) 0.3893(2)
H5 H 0.3261 0.1635 0.4056
H6 H 0.2169 0.1247 0.4311
C8 C 0.1485(3) 0.0776(2) 0.2408(3)
H7 H 0.1086 0.0329 0.2671
C9 C 0.1385(2) 0.1059(2) 0.1486(3)
H8 H 0.0899 0.0833 0.0996
C10 C 0.2654(2) 0.18413(18) 0.2236(2)
H9 H 0.3208 0.2250 0.2373
C11 C 0.4972(2) 0.31255(18) 0.0877(2)
S1 S 0.61327(8) 0.35936(8) 0.10333(9)
Cd1C Cd 0.2500 -0.2500 0.5000
Cd1C_2 Cd 0.2500 0.7500 0.5000
N1C N 0.28867(18) 0.67343(15) 0.36216(16)
N1F N 0.28867(18) 0.32657(15) -0.13784(16)
N2C N 0.2711(2) 0.62746(15) 0.21126(17)
N3C N 0.1792(2) 0.52856(15) 0.09493(16)
N4C N 0.24182(19) 0.45923(15) 0.07170(17)
N5C N 0.18666(17) 0.38526(15) 0.07137(16)
N5E N 0.31334(17) 0.11474(15) -0.07137(16)
N6F N 0.0838(2) 0.2231(2) -0.0759(2)
C1C C 0.0862(2) 0.40505(18) 0.09587(18)
C2C C -0.0004(2) 0.3484(2) 0.1064(2)
H1C H 0.0035 0.2861 0.0983
C3C C -0.0917(3) 0.3899(3) 0.1294(2)
H2C H -0.1509 0.3547 0.1377
C4C C -0.0977(3) 0.4840(3) 0.1407(2)
H3C H -0.1615 0.5092 0.1549
C5C C -0.0136(3) 0.5399(2) 0.1319(2)
H4C H -0.0184 0.6023 0.1394
C6C C 0.0806(2) 0.49777(19) 0.11067(18)
C7C C 0.2271(3) 0.6171(2) 0.1107(2)
H5C H 0.1739 0.6635 0.0944
H6C H 0.2831 0.6247 0.0689
C8C C 0.3515(3) 0.5776(2) 0.2592(3)
H7C H 0.3914 0.5329 0.2329
C9C C 0.3615(2) 0.6059(2) 0.3514(3)
H8C H 0.4101 0.5833 0.4004
C10C C 0.2346(2) 0.68413(18) 0.2764(2)
H9C H 0.1792 0.7250 0.2627
C11F C 0.0028(2) 0.18745(18) -0.0877(2)
S1F S -0.11327(8) 0.14064(8) -0.10333(9)
loop_
_geom_bond_atom_site_label_1
_geom_bond_atom_site_label_2
_geom_bond_site_symmetry_1
_geom_bond_site_symmetry_2
Cd1 N1 1_555 1_555
N1 C9 1_555 1_555
N2 C7 1_555 1_555
N3 N4 1_555 1_555
N4 N5 1_555 1_555
N5 C1 1_555 1_555
N6 Cd1 1_555 1_555
C1 C2 1_555 1_555
C2 H1 1_555 1_555
C3 C2 1_555 1_555
H2 C3 1_555 1_555
C4 C3 1_555 1_555
H3 C4 1_555 1_555
C5 C4 1_555 1_555
H4 C5 1_555 1_555
C6 N3 1_555 1_555
C7 N3 1_555 1_555
H5 C7 1_555 1_555
H6 C7 1_555 1_555
C8 N2 1_555 1_555
H7 C8 1_555 1_555
C9 C8 1_555 1_555
H8 C9 1_555 1_555
C10 N1 1_555 1_555
H9 C10 1_555 1_555
C11 N6 1_555 1_555
S1 C11 1_555 1_555
Cd1C N5 1_555 1_555
Cd1C_2 N1C 1_555 1_555
N1C C9C 1_555 1_555
N1F Cd1 1_555 1_555
N2C C7C 1_555 1_555
N3C N4C 1_555 1_555
N4C N5C 1_555 1_555
N5C Cd1 1_555 1_555
N5E Cd1 1_555 1_555
N6F Cd1 1_555 1_555
C1C N5C 1_555 1_555
C2C C1C 1_555 1_555
H1C C2C 1_555 1_555
C3C C2C 1_555 1_555
H2C C3C 1_555 1_555
C4C C3C 1_555 1_555
H3C C4C 1_555 1_555
C5C C4C 1_555 1_555
H4C C5C 1_555 1_555
C6C N3C 1_555 1_555
C7C N3C 1_555 1_555
H5C C7C 1_555 1_555
H6C C7C 1_555 1_555
C8C N2C 1_555 1_555
H7C C8C 1_555 1_555
C9C C8C 1_555 1_555
H8C C9C 1_555 1_555
C10C N1C 1_555 1_555
H9C C10C 1_555 1_555
C11F N6F 1_555 1_555
S1F C11F 1_555 1_555
N2 C10 1_555 1_555
C1 C6 1_555 1_555
C5 C6 1_555 1_555
N2C C10C 1_555 1_555
C1C C6C 1_555 1_555
C5C C6C 1_555 1_555

#END
