
#######################################################################
#
#                 Cambridge Crystallographic Data Centre
#                                CCDC 
#
#######################################################################
#
# If this CIF has been generated from an entry in the Cambridge 
# Structural Database, then it will include bibliographic, chemical, 
# crystal, experimental, refinement or atomic coordinate data resulting 
# from the CCDC's data processing and validation procedures.
#
#######################################################################

data_MUTKES
_symmetry_cell_setting           monoclinic
_symmetry_space_group_name_H-M   'C 2/c'
_symmetry_Int_Tables_number      15
_space_group_name_Hall           '-C 2yn'
loop_
_symmetry_equiv_pos_site_id
_symmetry_equiv_pos_as_xyz
1 x,y,z
2 -x,y,1/2-z
3 1/2+x,1/2+y,z
4 1/2-x,1/2+y,1/2-z
5 -x,-y,-z
6 x,-y,1/2+z
7 1/2-x,1/2-y,-z
8 1/2+x,1/2-y,1/2+z
_cell_length_a                   29.280(6)
_cell_length_b                   4.0288(8)
_cell_length_c                   21.597(4)
_cell_angle_alpha                90
_cell_angle_beta                 108.65(3)
_cell_angle_gamma                90
_cell_volume                     2413.87
loop_
_atom_site_label
_atom_site_type_symbol
_atom_site_fract_x
_atom_site_fract_y
_atom_site_fract_z
Cd1 Cd 0.5000 0.5000 0.0000
Cl1 Cl 0.52643(4) -0.00766(18) 0.08729(4)
N1 N 0.42389(11) 0.5141(6) 0.00613(16)
N2 N 0.36035(9) 0.6827(7) 0.03051(12)
N3 N 0.31332(9) 0.6488(8) 0.10431(12)
N4 N 0.26703(13) 0.5380(8) 0.08100(18)
N5 N 0.25749(11) 0.3754(10) 0.12710(17)
C1 C 0.38260(13) 0.4035(10) -0.04140(17)
H1 H 0.3820 0.2773 -0.0777
C2 C 0.34336(14) 0.5075(8) -0.02681(19)
H2 H 0.3113 0.4682 -0.0508
C3 C 0.40885(11) 0.6795(9) 0.04795(15)
H3 H 0.4291 0.7824 0.0852
C4 C 0.33151(12) 0.8567(9) 0.06364(17)
H4 H 0.3509 1.0312 0.0904
H5 H 0.3045 0.9612 0.0311
C5 C 0.33360(13) 0.5529(8) 0.16677(18)
C6 C 0.37944(15) 0.5987(12) 0.2131(2)
H6 H 0.4038 0.7127 0.2031
C7 C 0.3863(2) 0.4652(12) 0.2743(2)
H7 H 0.4160 0.4923 0.3065
C8 C 0.34987(19) 0.2900(12) 0.2894(2)
H8 H 0.3560 0.2065 0.3314
C9 C 0.30529(17) 0.2382(11) 0.2438(2)
H9 H 0.2814 0.1186 0.2538
C10 C 0.29754(13) 0.3741(10) 0.18145(17)
Cd1_2 Cd 0.5000 -0.5000 0.0000
Cd1_3 Cd 0.5000 1.5000 0.0000
Cl1_2 Cl 0.52643(4) 0.99234(18) 0.08729(4)
Cl1D Cl 0.47357(4) 0.00766(18) -0.08729(4)
Cl1D_2 Cl 0.47357(4) 1.00766(18) -0.08729(4)
N1D N 0.57611(11) 0.4859(6) -0.00613(16)
N2D N 0.63965(9) 0.3173(7) -0.03051(12)
N3D N 0.68668(9) 0.3512(8) -0.10431(12)
N4D N 0.73297(13) 0.4620(8) -0.08100(18)
N5D N 0.74251(11) 0.6246(10) -0.12710(17)
C1D C 0.61740(13) 0.5965(10) 0.04140(17)
H1D H 0.6180 0.7227 0.0777
C2D C 0.65664(14) 0.4925(8) 0.02681(19)
H2D H 0.6887 0.5318 0.0508
C3D C 0.59115(11) 0.3205(9) -0.04795(15)
H3D H 0.5709 0.2176 -0.0852
C4D C 0.66849(12) 0.1433(9) -0.06364(17)
H4D H 0.6491 -0.0312 -0.0904
H5D H 0.6955 0.0388 -0.0311
C5D C 0.66640(13) 0.4471(8) -0.16677(18)
C6D C 0.62056(15) 0.4013(12) -0.2131(2)
H6D H 0.5962 0.2873 -0.2031
C7D C 0.6137(2) 0.5348(12) -0.2743(2)
H7D H 0.5840 0.5077 -0.3065
C8D C 0.65013(19) 0.7100(12) -0.2894(2)
H8D H 0.6440 0.7935 -0.3314
C9D C 0.69471(17) 0.7618(11) -0.2438(2)
H9D H 0.7186 0.8814 -0.2538
C10D C 0.70246(13) 0.6259(10) -0.18145(17)
loop_
_geom_bond_atom_site_label_1
_geom_bond_atom_site_label_2
_geom_bond_site_symmetry_1
_geom_bond_site_symmetry_2
Cd1 Cl1 1_555 1_555
Cl1 Cd1_2 1_555 1_555
N1 Cd1 1_555 1_555
N2 C2 1_555 1_555
N3 N4 1_555 1_555
N4 N5 1_555 1_555
N5 C10 1_555 1_555
C1 N1 1_555 1_555
H1 C1 1_555 1_555
C2 C1 1_555 1_555
H2 C2 1_555 1_555
C3 N1 1_555 1_555
H3 C3 1_555 1_555
C4 N2 1_555 1_555
H4 C4 1_555 1_555
H5 C4 1_555 1_555
C5 N3 1_555 1_555
C6 C5 1_555 1_555
H6 C6 1_555 1_555
C7 C6 1_555 1_555
H7 C7 1_555 1_555
C8 C7 1_555 1_555
H8 C8 1_555 1_555
C9 C8 1_555 1_555
H9 C9 1_555 1_555
C10 C5 1_555 1_555
Cd1_2 Cl1D 1_555 1_555
Cd1_3 Cl1_2 1_555 1_555
Cl1_2 Cd1 1_555 1_555
Cl1D Cd1 1_555 1_555
Cl1D_2 Cd1 1_555 1_555
N1D Cd1 1_555 1_555
N2D C2D 1_555 1_555
N3D N4D 1_555 1_555
N4D N5D 1_555 1_555
N5D C10D 1_555 1_555
C1D N1D 1_555 1_555
H1D C1D 1_555 1_555
C2D C1D 1_555 1_555
H2D C2D 1_555 1_555
C3D N1D 1_555 1_555
H3D C3D 1_555 1_555
C4D N2D 1_555 1_555
H4D C4D 1_555 1_555
H5D C4D 1_555 1_555
C5D N3D 1_555 1_555
C6D C5D 1_555 1_555
H6D C6D 1_555 1_555
C7D C6D 1_555 1_555
H7D C7D 1_555 1_555
C8D C7D 1_555 1_555
H8D C8D 1_555 1_555
C9D C8D 1_555 1_555
H9D C9D 1_555 1_555
C10D C5D 1_555 1_555
N2 C3 1_555 1_555
N3 C4 1_555 1_555
C9 C10 1_555 1_555
Cd1_3 Cl1D_2 1_555 1_555
N2D C3D 1_555 1_555
N3D C4D 1_555 1_555
C9D C10D 1_555 1_555

#END
