
#######################################################################
#
#                 Cambridge Crystallographic Data Centre
#                                CCDC 
#
#######################################################################
#
# If this CIF has been generated from an entry in the Cambridge 
# Structural Database, then it will include bibliographic, chemical, 
# crystal, experimental, refinement or atomic coordinate data resulting 
# from the CCDC's data processing and validation procedures.
#
#######################################################################

data_MUTMIX
_symmetry_cell_setting           triclinic
_symmetry_space_group_name_H-M   'P -1'
_symmetry_Int_Tables_number      2
_space_group_name_Hall           '-P 1'
loop_
_symmetry_equiv_pos_site_id
_symmetry_equiv_pos_as_xyz
1 x,y,z
2 -x,-y,-z
_cell_length_a                   10.1231(7)
_cell_length_b                   13.8340(10)
_cell_length_c                   13.9284(10)
_cell_angle_alpha                116.7300(10)
_cell_angle_beta                 94.6890(10)
_cell_angle_gamma                108.7540(10)
_cell_volume                     1589.45
loop_
_atom_site_label
_atom_site_type_symbol
_atom_site_fract_x
_atom_site_fract_y
_atom_site_fract_z
Ag1 Ag -0.58107(2) 0.81166(2) 0.422038(18)
Ag2 Ag 0.32857(2) 0.75130(2) 0.717587(17)
C1 C -0.3524(3) 0.7358(3) 0.4868(2)
H1 H -0.3958 0.6751 0.4131
C2 C -0.2375(3) 0.7354(2) 0.5459(2)
H2 H -0.2043 0.6758 0.5129
C3 C -0.1717(3) 0.8255(2) 0.6558(2)
C4 C -0.2231(3) 0.9135(3) 0.7002(2)
H3 H -0.1801 0.9761 0.7731
C5 C -0.3391(3) 0.9067(3) 0.6345(2)
H4 H -0.3730 0.9661 0.6648
C6 C -0.0510(3) 0.8245(2) 0.7195(2)
C7 C 0.1227(3) 0.8823(2) 0.8544(2)
C8 C 0.4236(3) 0.9988(2) 1.1006(2)
H5 H 0.4762 0.9700 1.1305
C9 C 0.3106(3) 0.9187(2) 1.0057(2)
H6 H 0.2878 0.8380 0.9722
C10 C 0.2316(3) 0.9622(2) 0.9615(2)
C11 C 0.2654(3) 1.0817(2) 1.0163(2)
H7 H 0.2118 1.1126 0.9902
C12 C 0.3804(3) 1.1549(2) 1.1107(2)
H8 H 0.4027 1.2356 1.1476
C13 C -1.1347(3) 0.3892(3) -0.4695(2)
H9 H -1.0797 0.3478 -0.5030
C14 C -1.0954(3) 0.4573(2) -0.3550(2)
H10 H -1.0159 0.4615 -0.3123
C15 C -1.1764(3) 0.5192(2) -0.3047(2)
C16 C -1.2939(3) 0.5107(2) -0.3712(2)
H11 H -1.3505 0.5514 -0.3398
C17 C -1.3246(3) 0.4405(2) -0.4852(2)
H12 H -1.4031 0.4353 -0.5298
C18 C -1.1380(3) 0.5969(2) -0.1842(2)
C19 C -1.0341(3) 0.6729(2) -0.0140(2)
C20 C -0.7257(3) 0.6967(3) 0.1720(2)
H13 H -0.6435 0.6803 0.1665
C21 C -0.8170(3) 0.6681(3) 0.0759(2)
H14 H -0.7977 0.6325 0.0072
C22 C -0.9383(3) 0.6937(2) 0.0841(2)
C23 C -0.9647(3) 0.7422(3) 0.1868(2)
H15 H -1.0468 0.7584 0.1943
C24 C -0.8689(3) 0.7666(3) 0.2782(2)
H16 H -0.8889 0.7984 0.3472
N1 N -0.4052(2) 0.8186(2) 0.52921(18)
N2 N -0.0002(2) 0.74459(19) 0.68635(17)
N3 N 0.1149(2) 0.78310(19) 0.77567(18)
N4 N 0.4615(2) 1.1156(2) 1.15194(17)
N5 N -1.2479(2) 0.37952(19) -0.53493(17)
N6 N -1.1791(3) 0.6795(2) -0.12999(19)
N7 N -1.1108(3) 0.7300(2) -0.01643(19)
N8 N -0.7485(3) 0.7467(2) 0.27298(19)
O1 O 0.02005(18) 0.91484(15) 0.82541(14)
O2 O -1.04396(19) 0.58743(16) -0.11705(14)
N4A N 0.5385(2) 0.8844(2) 0.84806(17)
N5A N 0.2479(2) 0.62048(19) 0.53493(17)
Ag2A Ag 0.67143(2) 1.24870(2) 1.282413(17)
Ag2A_2 Ag -1.32857(2) 0.24870(2) -0.717587(17)
S1 S 0.68270(8) 0.47140(6) 0.23060(6)
O3 O 0.8003(2) 0.5844(2) 0.2963(2)
O4 O 0.5786(2) 0.4437(2) 0.28776(17)
O5 O 0.7214(3) 0.3757(2) 0.16459(18)
C25 C 0.5826(4) 0.4854(3) 0.1267(3)
F1 F 0.4794(3) 0.3843(2) 0.05135(18)
F2 F 0.5232(3) 0.5616(2) 0.1733(2)
F3 F 0.6678(3) 0.5228(2) 0.0728(2)
S3 S 0.7123(5) 1.0271(4) 0.3670(5)
O9 O 0.8368(9) 1.1284(5) 0.4504(4)
O10 O 0.6879(11) 1.0338(9) 0.2732(7)
O11 O 0.5961(8) 0.9956(7) 0.4110(9)
C27 C 0.7738(13) 0.9115(10) 0.3328(11)
F7 F 0.6718(12) 0.8123(6) 0.2617(12)
F8 F 0.8312(9) 0.9192(11) 0.4288(10)
F9 F 0.8967(11) 0.9467(8) 0.3032(11)
S2? S 0.6746(8) 0.9971(7) 0.3515(8)
O6? O 0.5461(10) 0.9070(10) 0.2893(14)
O7? O 0.681(2) 1.0407(16) 0.4626(8)
O8? O 0.7218(16) 1.0802(13) 0.3160(15)
C26? C 0.8058(17) 0.9350(14) 0.3318(16)
F4? F 0.9271(15) 1.0129(18) 0.400(2)
F5? F 0.807(2) 0.8881(18) 0.2237(11)
F6? F 0.7553(13) 0.8414(9) 0.3420(11)
loop_
_geom_bond_atom_site_label_1
_geom_bond_atom_site_label_2
_geom_bond_site_symmetry_1
_geom_bond_site_symmetry_2
Ag1 N1 1_555 1_555
Ag2 N3 1_555 1_555
C1 H1 1_555 1_555
C2 C1 1_555 1_555
H2 C2 1_555 1_555
C3 C2 1_555 1_555
C4 C3 1_555 1_555
H3 C4 1_555 1_555
C5 C4 1_555 1_555
H4 C5 1_555 1_555
C6 C3 1_555 1_555
C7 C10 1_555 1_555
C8 H5 1_555 1_555
C9 C8 1_555 1_555
H6 C9 1_555 1_555
C10 C9 1_555 1_555
C11 C10 1_555 1_555
H7 C11 1_555 1_555
C12 C11 1_555 1_555
H8 C12 1_555 1_555
C13 H9 1_555 1_555
C14 C13 1_555 1_555
H10 C14 1_555 1_555
C15 C14 1_555 1_555
C16 C15 1_555 1_555
H11 C16 1_555 1_555
C17 C16 1_555 1_555
H12 C17 1_555 1_555
C18 C15 1_555 1_555
C19 C22 1_555 1_555
C20 H13 1_555 1_555
C21 C20 1_555 1_555
H14 C21 1_555 1_555
C22 C21 1_555 1_555
C23 C22 1_555 1_555
H15 C23 1_555 1_555
C24 C23 1_555 1_555
H16 C24 1_555 1_555
N1 C1 1_555 1_555
N2 C6 1_555 1_555
N3 C7 1_555 1_555
N4 C8 1_555 1_555
N5 C13 1_555 1_555
N6 C18 1_555 1_555
N7 C19 1_555 1_555
N8 Ag1 1_555 1_555
O1 C6 1_555 1_555
O2 C18 1_555 1_555
S1 O3 1_555 1_555
O4 S1 1_555 1_555
O5 S1 1_555 1_555
C25 S1 1_555 1_555
F1 C25 1_555 1_555
F2 C25 1_555 1_555
F3 C25 1_555 1_555
S3 O9 1_555 1_555
O10 S3 1_555 1_555
O11 S3 1_555 1_555
C27 S3 1_555 1_555
F7 C27 1_555 1_555
F8 C27 1_555 1_555
F9 C27 1_555 1_555
N4A Ag2 1_555 1_555
N5A Ag2 1_555 1_555
Ag2A N4 1_555 1_555
Ag2A_2 N5 1_555 1_555
C5 N1 1_555 1_555
C7 O1 1_555 1_555
C12 N4 1_555 1_555
C17 N5 1_555 1_555
C19 O2 1_555 1_555
C20 N8 1_555 1_555
C24 N8 1_555 1_555
N2 N3 1_555 1_555
N6 N7 1_555 1_555

#END
