
#######################################################################
#
#                 Cambridge Crystallographic Data Centre
#                                CCDC 
#
#######################################################################
#
# If this CIF has been generated from an entry in the Cambridge 
# Structural Database, then it will include bibliographic, chemical, 
# crystal, experimental, refinement or atomic coordinate data resulting 
# from the CCDC's data processing and validation procedures.
#
#######################################################################

data_MUTMOD
_symmetry_cell_setting           triclinic
_symmetry_space_group_name_H-M   'P -1'
_symmetry_Int_Tables_number      2
_space_group_name_Hall           '-P 1'
loop_
_symmetry_equiv_pos_site_id
_symmetry_equiv_pos_as_xyz
1 x,y,z
2 -x,-y,-z
_cell_length_a                   8.4894(5)
_cell_length_b                   13.9092(8)
_cell_length_c                   14.1596(8)
_cell_angle_alpha                71.1410(10)
_cell_angle_beta                 77.3350(10)
_cell_angle_gamma                81.5370(10)
_cell_volume                     1538.44
loop_
_atom_site_label
_atom_site_type_symbol
_atom_site_fract_x
_atom_site_fract_y
_atom_site_fract_z
Ag1 Ag 0.35483(4) 0.891714(19) 0.56898(2)
Ag2 Ag 0.75488(4) -0.13617(2) 1.05304(2)
C1 C 0.4915(5) 0.6874(3) 0.6960(3)
H1 H 0.4152 0.7067 0.7461
C2 C 0.5799(5) 0.5951(3) 0.7227(3)
H2 H 0.5623 0.5525 0.7893
C3 C 0.6956(4) 0.5663(2) 0.6492(2)
C4 C 0.7174(4) 0.6318(2) 0.5511(2)
H3 H 0.7950 0.6150 0.5000
C5 C 0.6217(4) 0.7223(2) 0.5305(3)
H4 H 0.6356 0.7655 0.4641
C6 C 0.7923(4) 0.4682(2) 0.6739(2)
C7 C 0.8504(4) 0.3141(2) 0.7539(2)
C8 C 0.6777(4) 0.0964(3) 0.9678(3)
H5 H 0.5867 0.0835 1.0188
C9 C 0.6918(4) 0.1943(2) 0.9046(2)
H6 H 0.6117 0.2460 0.9123
C10 C 0.8286(4) 0.2145(2) 0.8290(2)
C11 C 0.9474(4) 0.1352(2) 0.8223(2)
H7 H 1.0425 0.1468 0.7744
C12 C 0.9204(5) 0.0390(2) 0.8888(3)
H8 H 0.9988 -0.0142 0.8836
C13 C -0.1654(5) 1.6333(3) 0.1401(3)
H9 H -0.0975 1.6429 0.0771
C14 C -0.1550(5) 1.5394(2) 0.2118(3)
H10 H -0.0830 1.4866 0.1974
C15 C -0.2540(4) 1.5257(2) 0.3052(2)
C16 C -0.3654(4) 1.6043(2) 0.3217(2)
H11 H -0.4374 1.5957 0.3831
C17 C -0.3677(4) 1.6955(2) 0.2456(3)
H12 H -0.4425 1.7483 0.2572
C18 C -0.2408(4) 1.4319(2) 0.3892(2)
C19 C -0.1446(4) 1.2872(2) 0.4714(2)
C20 C 0.1954(4) 1.0905(2) 0.4401(3)
H13 H 0.2776 1.0776 0.3892
C21 C 0.0919(4) 1.1773(2) 0.4160(3)
H14 H 0.1061 1.2227 0.3507
C22 C -0.0326(4) 1.1956(2) 0.4901(2)
C23 C -0.0492(4) 1.1251(2) 0.5860(2)
H15 H -0.1338 1.1344 0.6373
C24 C 0.0607(4) 1.0415(2) 0.6044(3)
H16 H 0.0490 0.9952 0.6693
N1 N 0.5102(3) 0.75144(19) 0.6006(2)
N2 N 0.9317(3) 0.4417(2) 0.6262(2)
N3 N 0.9692(3) 0.33958(19) 0.6787(2)
N4 N 0.7875(4) 0.01844(19) 0.9601(2)
N5 N -0.2682(4) 1.71195(19) 0.1563(2)
N6 N -0.3283(3) 1.40948(19) 0.4785(2)
N7 N -0.2647(3) 1.3139(2) 0.5325(2)
N8 N 0.1831(3) 1.02341(19) 0.5339(2)
O1 O 0.7327(2) 0.39164(15) 0.75619(15)
O2 O -0.1210(2) 1.35826(14) 0.37767(15)
N5_2 N 0.7318(4) -0.28805(19) 1.1563(2)
Ag2_2 Ag -0.24512(4) 1.86383(2) 0.05304(2)
Cl1 Cl 0.46270(11) 0.02505(7) 0.73452(7)
O3 O 0.5181(6) 0.0732(3) 0.6350(2)
O4 O 0.3038(4) 0.0601(4) 0.7620(4)
O5 O 0.5428(6) 0.0437(4) 0.7991(4)
O6 O 0.4773(5) -0.0796(2) 0.7449(3)
Cl2 Cl 0.9655(7) 0.2328(4) 0.1497(4)
O7 O 0.929(2) 0.2108(12) 0.0675(9)
O8 O 0.963(3) 0.3383(6) 0.1262(12)
O9 O 0.8641(12) 0.2006(11) 0.2442(7)
O10 O 1.1134(9) 0.1717(8) 0.1647(8)
C25 C 0.657(3) 0.4164(15) 1.0032(15)
O15 O 0.7636(19) 0.4907(13) 0.9545(12)
O17 O 0.3840(18) 0.2238(12) 1.0840(11)
Cl3? Cl 0.9305(14) 0.2543(9) 0.1438(8)
O11? O 1.060(2) 0.3006(16) 0.1486(14)
O12? O 0.807(2) 0.3277(17) 0.1186(16)
O13? O 0.866(3) 0.1842(14) 0.2319(12)
O14? O 0.984(3) 0.2065(17) 0.0695(14)
C26? C 0.377(3) 0.357(2) 1.042(2)
O16? O 0.479(3) 0.4340(16) 0.9822(17)
O18? O 0.4178(19) 0.2739(16) 1.0856(13)
loop_
_geom_bond_atom_site_label_1
_geom_bond_atom_site_label_2
_geom_bond_site_symmetry_1
_geom_bond_site_symmetry_2
Ag1 N1 1_555 1_555
Ag2 N4 1_555 1_555
C1 H1 1_555 1_555
C2 C1 1_555 1_555
H2 C2 1_555 1_555
C3 C2 1_555 1_555
C4 C3 1_555 1_555
H3 C4 1_555 1_555
C5 C4 1_555 1_555
H4 C5 1_555 1_555
C6 C3 1_555 1_555
C7 C10 1_555 1_555
C8 H5 1_555 1_555
C9 C8 1_555 1_555
H6 C9 1_555 1_555
C10 C9 1_555 1_555
C11 C10 1_555 1_555
H7 C11 1_555 1_555
C12 C11 1_555 1_555
H8 C12 1_555 1_555
C13 H9 1_555 1_555
C14 C13 1_555 1_555
H10 C14 1_555 1_555
C15 C14 1_555 1_555
C16 C15 1_555 1_555
H11 C16 1_555 1_555
C17 C16 1_555 1_555
H12 C17 1_555 1_555
C18 C15 1_555 1_555
C19 C22 1_555 1_555
C20 H13 1_555 1_555
C21 C20 1_555 1_555
H14 C21 1_555 1_555
C22 C21 1_555 1_555
C23 C22 1_555 1_555
H15 C23 1_555 1_555
C24 C23 1_555 1_555
H16 C24 1_555 1_555
N1 C1 1_555 1_555
N2 C6 1_555 1_555
N3 C7 1_555 1_555
N4 C8 1_555 1_555
N5 C13 1_555 1_555
N6 C18 1_555 1_555
N7 C19 1_555 1_555
N8 Ag1 1_555 1_555
O1 C6 1_555 1_555
O2 C18 1_555 1_555
Cl1 O3 1_555 1_555
O4 Cl1 1_555 1_555
O5 Cl1 1_555 1_555
O6 Cl1 1_555 1_555
Cl2 O7 1_555 1_555
O8 Cl2 1_555 1_555
O9 Cl2 1_555 1_555
O10 Cl2 1_555 1_555
C25 O15 1_555 1_555
N5_2 Ag2 1_555 1_555
Ag2_2 N5 1_555 1_555
C5 N1 1_555 1_555
C7 O1 1_555 1_555
C12 N4 1_555 1_555
C17 N5 1_555 1_555
C19 O2 1_555 1_555
C20 N8 1_555 1_555
C24 N8 1_555 1_555
N2 N3 1_555 1_555
N6 N7 1_555 1_555

#END
