
#######################################################################
#
#                 Cambridge Crystallographic Data Centre
#                                CCDC 
#
#######################################################################
#
# If this CIF has been generated from an entry in the Cambridge 
# Structural Database, then it will include bibliographic, chemical, 
# crystal, experimental, refinement or atomic coordinate data resulting 
# from the CCDC's data processing and validation procedures.
#
#######################################################################

data_MUTNAQ
_symmetry_cell_setting           orthorhombic
_symmetry_space_group_name_H-M   'P n n m'
_symmetry_Int_Tables_number      58
_space_group_name_Hall           '-P 2 2n'
loop_
_symmetry_equiv_pos_site_id
_symmetry_equiv_pos_as_xyz
1 x,y,z
2 x,y,-z
3 1/2+x,1/2-y,1/2+z
4 1/2-x,1/2+y,1/2+z
5 -x,-y,-z
6 -x,-y,z
7 1/2-x,1/2+y,1/2-z
8 1/2+x,1/2-y,1/2-z
_cell_length_a                   7.9341(4)
_cell_length_b                   11.5500(5)
_cell_length_c                   18.1157(8)
_cell_angle_alpha                90
_cell_angle_beta                 90
_cell_angle_gamma                90
_cell_volume                     1660.1
loop_
_atom_site_label
_atom_site_type_symbol
_atom_site_fract_x
_atom_site_fract_y
_atom_site_fract_z
Ag1 Ag 0.0000 0.0000 0.40102(2)
C1 C 0.3050(5) -0.0725(3) 0.26843(19)
C2 C 0.3874(5) -0.1789(3) 0.2640(2)
H1 H 0.4248 -0.2162 0.3078
C3 C 0.4148(5) -0.2304(3) 0.19625(19)
H2 H 0.4730 -0.3022 0.1937
C4 C 0.3584(4) -0.1786(3) 0.13208(19)
C5 C 0.2749(5) -0.0724(3) 0.1366(2)
H3 H 0.2356 -0.0359 0.0929
C6 C 0.2491(5) -0.0200(3) 0.2041(2)
H4 H 0.1926 0.0524 0.2065
C7 C 0.3848(4) -0.2293(3) 0.05919(19)
O1 O 0.3500(4) -0.1610(3) 0.0000
N1 N 0.2735(5) -0.0177(3) 0.33691(19)
H5 H 0.290(6) 0.050(4) 0.333(2)
H6 H 0.317(6) -0.045(4) 0.368(3)
N2 N 0.4382(4) -0.3304(3) 0.03904(15)
C7A C 0.3848(4) -0.2293(3) -0.05919(19)
C4A C 0.3584(4) -0.1786(3) -0.13208(19)
C3A C 0.4148(5) -0.2304(3) -0.19625(19)
C2A C 0.3874(5) -0.1789(3) -0.2640(2)
C1A C 0.3050(5) -0.0725(3) -0.26843(19)
C6A C 0.2491(5) -0.0200(3) -0.2041(2)
C5A C 0.2749(5) -0.0724(3) -0.1366(2)
H3A H 0.2356 -0.0359 -0.0929
H4A H 0.1926 0.0524 -0.2065
N1A N 0.2735(5) -0.0177(3) -0.33691(19)
H5A H 0.290(6) 0.050(4) -0.333(2)
H6A H 0.317(6) -0.045(4) -0.368(3)
H1A H 0.4248 -0.2162 -0.3078
H2A H 0.4730 -0.3022 -0.1937
N2A N 0.4382(4) -0.3304(3) -0.03904(15)
N1E N -0.2735(5) 0.0177(3) 0.33691(19)
N2F N 0.0618(4) 0.1696(3) 0.46096(15)
N2G N -0.0618(4) -0.1696(3) 0.46096(15)
Ag1F Ag 0.5000 -0.5000 0.09898(2)
Ag1A Ag 0.0000 0.0000 -0.40102(2)
Ag1B Ag 0.5000 -0.5000 -0.09898(2)
H5E H -0.290(6) -0.050(4) 0.333(2)
H6E H -0.317(6) 0.045(4) 0.368(3)
S1 S 0.04587(16) 0.33443(11) 0.0000
O2 O -0.0498(4) 0.3317(3) 0.06719(15)
O3 O 0.1856(5) 0.4149(3) 0.0000
C8 C 0.1480(8) 0.1942(5) 0.0000
F1 F 0.2458(4) 0.1812(2) 0.0594(2)
F2 F 0.0373(5) 0.1087(3) 0.0000
O2A O -0.0498(4) 0.3317(3) -0.06719(15)
F1A F 0.2458(4) 0.1812(2) -0.0594(2)
loop_
_geom_bond_atom_site_label_1
_geom_bond_atom_site_label_2
_geom_bond_site_symmetry_1
_geom_bond_site_symmetry_2
Ag1 N1 1_555 1_555
C1 C2 1_555 1_555
C2 H1 1_555 1_555
C3 C2 1_555 1_555
H2 C3 1_555 1_555
C4 C3 1_555 1_555
C5 C4 1_555 1_555
H3 C5 1_555 1_555
C6 C1 1_555 1_555
H4 C6 1_555 1_555
C7 C4 1_555 1_555
O1 C7 1_555 1_555
N1 C1 1_555 1_555
H5 N1 1_555 1_555
H6 N1 1_555 1_555
N2 C7 1_555 1_555
S1 O2 1_555 1_555
O3 S1 1_555 1_555
C8 S1 1_555 1_555
F1 C8 1_555 1_555
F2 C8 1_555 1_555
C7A O1 1_555 1_555
C4A C7A 1_555 1_555
C3A C4A 1_555 1_555
C2A C3A 1_555 1_555
C1A C2A 1_555 1_555
C6A C1A 1_555 1_555
C5A C4A 1_555 1_555
H3A C5A 1_555 1_555
H4A C6A 1_555 1_555
N1A C1A 1_555 1_555
H5A N1A 1_555 1_555
H6A N1A 1_555 1_555
H1A C2A 1_555 1_555
H2A C3A 1_555 1_555
N2A N2 1_555 1_555
O2A S1 1_555 1_555
F1A C8 1_555 1_555
N1E Ag1 1_555 1_555
N2F Ag1 1_555 1_555
N2G Ag1 1_555 1_555
Ag1F N2 1_555 1_555
Ag1A N1A 1_555 1_555
Ag1B N2A 1_555 1_555
H5E N1E 1_555 1_555
H6E N1E 1_555 1_555
C5 C6 1_555 1_555
C7A N2A 1_555 1_555
C6A C5A 1_555 1_555

#END
