
#######################################################################
#
#                 Cambridge Crystallographic Data Centre
#                                CCDC 
#
#######################################################################
#
# If this CIF has been generated from an entry in the Cambridge 
# Structural Database, then it will include bibliographic, chemical, 
# crystal, experimental, refinement or atomic coordinate data resulting 
# from the CCDC's data processing and validation procedures.
#
#######################################################################

data_MUTNEV
_symmetry_cell_setting           monoclinic
_symmetry_space_group_name_H-M   'P 21/n'
_symmetry_Int_Tables_number      14
_space_group_name_Hall           '-P 2yn'
loop_
_symmetry_equiv_pos_site_id
_symmetry_equiv_pos_as_xyz
1 x,y,z
2 1/2-x,1/2+y,1/2-z
3 -x,-y,-z
4 1/2+x,1/2-y,1/2+z
_cell_length_a                   16.8371(18)
_cell_length_b                   7.4608(11)
_cell_length_c                   18.741(2)
_cell_angle_alpha                90
_cell_angle_beta                 101.008(2)
_cell_angle_gamma                90
_cell_volume                     2310.9
loop_
_atom_site_label
_atom_site_type_symbol
_atom_site_fract_x
_atom_site_fract_y
_atom_site_fract_z
Ba1 Ba 0.278233(15) 0.72945(3) 0.607931(13)
N1 N 0.14045(19) 0.6761(4) 0.68959(17)
N2 N 0.1094(2) 0.5455(5) 0.79795(18)
N3 N 0.1051(2) 0.7186(5) 0.5407(2)
N4 N 0.4171(2) 0.7606(4) 0.52310(19)
N5 N 0.4562(3) 0.8600(5) 0.4121(2)
N6 N 0.4473(2) 0.6030(5) 0.6565(2)
O1 O 0.30482(17) 0.7311(4) 0.75798(16)
O2 O 0.2801(2) 0.5629(4) 0.86142(17)
O3 O 0.2345(2) 0.8670(4) 0.84453(18)
O4 O 0.2673(2) 0.9423(5) 0.48454(19)
O5 O 0.2655(3) 0.7514(6) 0.3807(2)
O6 O 0.3079(2) 1.0615(5) 0.3779(2)
O7 O 0.2637(2) 0.4491(5) 0.50741(19)
H1 H 0.2308 0.4648 0.4675
H2 H 0.2534 0.3632 0.5341
S1 S 0.25284(6) 0.70407(13) 0.81001(5)
S2 S 0.30182(8) 0.90433(18) 0.42167(7)
C1 C 0.1568(2) 0.6309(5) 0.7589(2)
C2 C 0.0360(3) 0.5060(6) 0.7607(2)
H7 H 0.0001 0.4467 0.7846
C3 C 0.0109(3) 0.5486(6) 0.6890(2)
H8 H -0.0411 0.5208 0.6648
C4 C 0.0656(2) 0.6352(5) 0.6532(2)
C5 C 0.0438(3) 0.6919(6) 0.5761(2)
C6 C -0.0362(3) 0.7170(6) 0.5440(3)
H9 H -0.0772 0.6973 0.5701
C7 C -0.0545(3) 0.7723(7) 0.4720(3)
H10 H -0.1078 0.7923 0.4489
C8 C 0.0074(4) 0.7964(7) 0.4361(3)
H11 H -0.0034 0.8324 0.3877
C9 C 0.0858(3) 0.7679(7) 0.4707(3)
H12 H 0.1271 0.7833 0.4446
C10 C 0.4036(3) 0.8352(6) 0.4569(2)
C11 C 0.5307(3) 0.7997(7) 0.4390(3)
H13 H 0.5705 0.8133 0.4111
C12 C 0.5510(3) 0.7200(6) 0.5047(3)
H14 H 0.6032 0.6770 0.5209
C13 C 0.4924(3) 0.7034(5) 0.5480(2)
C14 C 0.5106(3) 0.6219(5) 0.6218(2)
C15 C 0.5875(3) 0.5679(7) 0.6523(3)
H15 H 0.6296 0.5826 0.6272
C16 C 0.6018(3) 0.4918(8) 0.7205(3)
H16 H 0.6535 0.4539 0.7419
C17 C 0.5386(3) 0.4727(6) 0.7565(3)
H17 H 0.5467 0.4228 0.8028
C18 C 0.4636(3) 0.5286(6) 0.7227(2)
H18 H 0.4210 0.5140 0.7473
Ba1A Ba 0.221767(15) 0.22945(3) 0.892069(13)
Ba1A_2 Ba 0.221767(15) 1.22945(3) 0.892069(13)
O2A O 0.2199(2) 1.0629(4) 0.63858(17)
O3A O 0.2655(2) 0.3670(4) 0.65547(18)
O8 O 0.1887(3) 0.3176(6) 0.3723(2)
H3 H 0.2267 0.2440 0.3701
H4 H 0.1856 0.3917 0.3375
O9 O 0.3358(3) 0.0687(6) 0.2330(2)
H5 H 0.3222 0.0745 0.2744
H6 H 0.3016 0.1274 0.2026
loop_
_geom_bond_atom_site_label_1
_geom_bond_atom_site_label_2
_geom_bond_site_symmetry_1
_geom_bond_site_symmetry_2
Ba1 N1 1_555 1_555
N1 C1 1_555 1_555
N2 C1 1_555 1_555
N3 Ba1 1_555 1_555
N4 Ba1 1_555 1_555
N5 C10 1_555 1_555
N6 Ba1 1_555 1_555
O1 Ba1 1_555 1_555
O2 S1 1_555 1_555
O3 S1 1_555 1_555
O4 Ba1 1_555 1_555
O5 S2 1_555 1_555
O6 S2 1_555 1_555
O7 Ba1 1_555 1_555
H1 O7 1_555 1_555
H2 O7 1_555 1_555
O8 H3 1_555 1_555
H4 O8 1_555 1_555
O9 H5 1_555 1_555
H6 O9 1_555 1_555
S1 O1 1_555 1_555
S2 O4 1_555 1_555
C1 S1 1_555 1_555
C2 N2 1_555 1_555
H7 C2 1_555 1_555
C3 C2 1_555 1_555
H8 C3 1_555 1_555
C4 N1 1_555 1_555
C5 N3 1_555 1_555
C6 C5 1_555 1_555
H9 C6 1_555 1_555
C7 C6 1_555 1_555
H10 C7 1_555 1_555
C8 C7 1_555 1_555
H11 C8 1_555 1_555
C9 N3 1_555 1_555
H12 C9 1_555 1_555
C10 N4 1_555 1_555
C11 N5 1_555 1_555
H13 C11 1_555 1_555
C12 C11 1_555 1_555
H14 C12 1_555 1_555
C13 N4 1_555 1_555
C14 N6 1_555 1_555
C15 C14 1_555 1_555
H15 C15 1_555 1_555
C16 C15 1_555 1_555
H16 C16 1_555 1_555
C17 C16 1_555 1_555
H17 C17 1_555 1_555
C18 N6 1_555 1_555
H18 C18 1_555 1_555
Ba1A O2 1_555 1_555
Ba1A_2 O3 1_555 1_555
O2A Ba1 1_555 1_555
O3A Ba1 1_555 1_555
S2 C10 1_555 1_555
C3 C4 1_555 1_555
C4 C5 1_555 1_555
C8 C9 1_555 1_555
C12 C13 1_555 1_555
C13 C14 1_555 1_555
C17 C18 1_555 1_555

#END
