
#######################################################################
#
#                 Cambridge Crystallographic Data Centre
#                                CCDC 
#
#######################################################################
#
# If this CIF has been generated from an entry in the Cambridge 
# Structural Database, then it will include bibliographic, chemical, 
# crystal, experimental, refinement or atomic coordinate data resulting 
# from the CCDC's data processing and validation procedures.
#
#######################################################################

data_MUTVUT
_symmetry_cell_setting           orthorhombic
_symmetry_space_group_name_H-M   'C 2 2 21'
_symmetry_Int_Tables_number      20
_space_group_name_Hall           'C 2n 2'
loop_
_symmetry_equiv_pos_site_id
_symmetry_equiv_pos_as_xyz
1 x,y,z
2 -x,-y,1/2+z
3 x,-y,-z
4 -x,y,1/2-z
5 1/2+x,1/2+y,z
6 1/2-x,1/2-y,1/2+z
7 1/2+x,1/2-y,-z
8 1/2-x,1/2+y,1/2-z
_cell_length_a                   9.3345(9)
_cell_length_b                   22.203(2)
_cell_length_c                   27.514(3)
_cell_angle_alpha                90
_cell_angle_beta                 90
_cell_angle_gamma                90
_cell_volume                     5702.38
loop_
_atom_site_label
_atom_site_type_symbol
_atom_site_fract_x
_atom_site_fract_y
_atom_site_fract_z
Cd1 Cd 0.35084(7) 0.0000 -0.5000
Cd2 Cd -1.0000 0.25596(3) -0.2500
N1 N -0.9404(6) 0.3167(3) -0.1857(2)
N2 N -0.8026(6) 0.3760(3) -0.1422(2)
N3 N -0.1631(6) 0.4443(3) -0.1096(2)
N4 N -0.0009(6) 0.4862(3) -0.06264(19)
O1 O 0.2464(5) 0.0973(3) -0.5028(2)
O2 O 0.1764(7) 0.0373(3) -0.4447(3)
O3 O -0.3392(6) 0.2207(2) -0.44188(19)
O4 O -0.8887(5) 0.1901(3) -0.3080(2)
O5 O -0.7508(6) 0.2486(4) -0.2619(2)
C1 C 0.1603(8) 0.0830(4) -0.4692(3)
C2 C 0.0308(7) 0.1225(3) -0.4596(3)
C3 C 0.0061(9) 0.1735(3) -0.4855(2)
H1 H 0.0712 0.1859 -0.5090
C4 C -0.1160(8) 0.2068(4) -0.4768(3)
H2 H -0.1316 0.2423 -0.4939
C5 C -0.2138(8) 0.1881(3) -0.4434(3)
C6 C -0.1923(8) 0.1366(3) -0.4164(2)
H3 H -0.2590 0.1242 -0.3934
C7 C -0.0667(8) 0.1036(3) -0.4248(3)
H4 H -0.0486 0.0689 -0.4069
C8 C -0.4372(9) 0.2117(3) -0.4042(3)
C9 C -0.5713(9) 0.1908(4) -0.4161(3)
H5 H -0.5904 0.1771 -0.4474
C10 C -0.6764(9) 0.1902(4) -0.3815(3)
H6 H -0.7678 0.1769 -0.3896
C11 C -0.6487(7) 0.2090(3) -0.3349(2)
C12 C -0.5127(8) 0.2274(4) -0.3227(3)
H7 H -0.4923 0.2397 -0.2911
C13 C -0.4060(8) 0.2274(4) -0.3579(3)
H8 H -0.3129 0.2383 -0.3496
C14 C -0.7696(8) 0.2157(4) -0.2988(3)
C15 C -0.7977(13) 0.3921(5) -0.2327(3)
H9 H -0.8598 0.3812 -0.2591
H10 H -0.7011 0.3806 -0.2403
H11 H -0.8019 0.4348 -0.2276
C16 C -0.8446(8) 0.3605(3) -0.1876(2)
C17 C -0.9573(7) 0.3023(3) -0.1375(2)
H12 H -1.0177 0.2724 -0.1257
C18 C -0.8729(8) 0.3381(3) -0.1100(3)
H13 H -0.8639 0.3375 -0.0763
C19 C -0.6905(8) 0.4178(4) -0.1296(3)
H14 H -0.7059 0.4320 -0.0966
H15 H -0.6957 0.4524 -0.1511
C20 C -0.5448(7) 0.3906(4) -0.1330(3)
H16 H -0.5278 0.3781 -0.1663
H17 H -0.5411 0.3550 -0.1127
C21 C -0.4266(8) 0.4338(4) -0.1176(3)
H18 H -0.4393 0.4443 -0.0836
H19 H -0.4330 0.4705 -0.1366
C22 C -0.2795(9) 0.4056(4) -0.1246(4)
H20 H -0.2748 0.3684 -0.1062
H21 H -0.2672 0.3955 -0.1587
C23 C -0.0970(8) 0.4876(4) -0.1362(3)
H22 H -0.1159 0.4976 -0.1684
C24 C 0.0012(9) 0.5131(3) -0.1070(3)
H23 H 0.0616 0.5446 -0.1158
C25 C -0.1015(7) 0.4446(4) -0.0649(3)
C26 C -0.1428(11) 0.4037(5) -0.0247(3)
H24 H -0.1194 0.4222 0.0059
H25 H -0.0918 0.3664 -0.0278
H26 H -0.2440 0.3961 -0.0261
Cd1E Cd 0.14916(7) 0.5000 0.0000
Cd1D Cd -2.14916(7) 0.5000 -0.5000
Cd1A Cd -2.35084(7) 0.0000 0.0000
N1C N -1.0596(6) 0.3167(3) -0.3143(2)
N2C N -1.1974(6) 0.3760(3) -0.3578(2)
N3C N -1.8369(6) 0.4443(3) -0.3904(2)
N4G N 0.5009(6) -0.0138(3) -0.43736(19)
N4E N 0.5009(6) 0.0138(3) -0.56264(19)
N4C N -1.9991(6) 0.4862(3) -0.43736(19)
O1B O 0.2464(5) -0.0973(3) -0.4972(2)
O1C O -2.2464(5) 0.0973(3) 0.0028(2)
O2B O 0.1764(7) -0.0373(3) -0.5553(3)
O2C O -2.1764(7) 0.0373(3) -0.0553(3)
O3C O -1.6608(6) 0.2207(2) -0.05812(19)
O4C O -1.1113(5) 0.1901(3) -0.1920(2)
O5C O -1.2492(6) 0.2486(4) -0.2381(2)
C1C C -2.1603(8) 0.0830(4) -0.0308(3)
C2C C -2.0308(7) 0.1225(3) -0.0404(3)
C3C C -2.0061(9) 0.1735(3) -0.0145(2)
H1C H -2.0712 0.1859 0.0090
C4C C -1.8840(8) 0.2068(4) -0.0232(3)
H2C H -1.8684 0.2423 -0.0061
C5C C -1.7862(8) 0.1881(3) -0.0566(3)
C6C C -1.8077(8) 0.1366(3) -0.0836(2)
H3C H -1.7410 0.1242 -0.1066
C7C C -1.9333(8) 0.1036(3) -0.0752(3)
H4C H -1.9514 0.0689 -0.0931
C8C C -1.5628(9) 0.2117(3) -0.0958(3)
C9C C -1.4287(9) 0.1908(4) -0.0839(3)
H5C H -1.4096 0.1771 -0.0526
C10C C -1.3236(9) 0.1902(4) -0.1185(3)
H6C H -1.2322 0.1769 -0.1104
C11C C -1.3513(7) 0.2090(3) -0.1651(2)
C12C C -1.4873(8) 0.2274(4) -0.1773(3)
H7C H -1.5077 0.2397 -0.2089
C13C C -1.5940(8) 0.2274(4) -0.1421(3)
H8C H -1.6871 0.2383 -0.1504
C14C C -1.2304(8) 0.2157(4) -0.2012(3)
C15C C -1.2023(13) 0.3921(5) -0.2673(3)
H9C H -1.1402 0.3812 -0.2409
H10C H -1.2989 0.3806 -0.2597
H11C H -1.1981 0.4348 -0.2724
C16C C -1.1554(8) 0.3605(3) -0.3124(2)
C17C C -1.0427(7) 0.3023(3) -0.3625(2)
H12C H -0.9823 0.2724 -0.3743
C18C C -1.1271(8) 0.3381(3) -0.3900(3)
H13C H -1.1361 0.3375 -0.4237
C19C C -1.3095(8) 0.4178(4) -0.3704(3)
H14C H -1.2941 0.4320 -0.4034
H15C H -1.3043 0.4524 -0.3489
C20C C -1.4552(7) 0.3906(4) -0.3670(3)
H16C H -1.4722 0.3781 -0.3337
H17C H -1.4589 0.3550 -0.3873
C21C C -1.5734(8) 0.4338(4) -0.3824(3)
H18C H -1.5607 0.4443 -0.4164
H19C H -1.5670 0.4705 -0.3634
C22C C -1.7205(9) 0.4056(4) -0.3754(4)
H20C H -1.7252 0.3684 -0.3938
H21C H -1.7328 0.3955 -0.3413
C23C C -1.9030(8) 0.4876(4) -0.3638(3)
H22C H -1.8841 0.4976 -0.3316
C24C C -2.0012(9) 0.5131(3) -0.3930(3)
H23C H -2.0616 0.5446 -0.3842
C25C C -1.8985(7) 0.4446(4) -0.4351(3)
C26C C -1.8572(11) 0.4037(5) -0.4753(3)
H24C H -1.8806 0.4222 -0.5059
H25C H -1.9082 0.3664 -0.4722
H26C H -1.7560 0.3961 -0.4739
O6 O -0.8517(13) 0.0682(4) -0.3265(5)
O7 O -0.636(2) 0.0606(8) -0.2541(9)
loop_
_geom_bond_atom_site_label_1
_geom_bond_atom_site_label_2
_geom_bond_site_symmetry_1
_geom_bond_site_symmetry_2
Cd1 O1 1_555 1_555
Cd2 N1 1_555 1_555
N1 C16 1_555 1_555
N2 C16 1_555 1_555
N3 C22 1_555 1_555
N4 C24 1_555 1_555
O1 C1 1_555 1_555
O2 Cd1 1_555 1_555
O3 C5 1_555 1_555
O4 Cd2 1_555 1_555
O5 Cd2 1_555 1_555
C1 O2 1_555 1_555
C2 C1 1_555 1_555
C3 C2 1_555 1_555
H1 C3 1_555 1_555
C4 C3 1_555 1_555
H2 C4 1_555 1_555
C5 C4 1_555 1_555
C6 C5 1_555 1_555
H3 C6 1_555 1_555
C7 C2 1_555 1_555
H4 C7 1_555 1_555
C8 O3 1_555 1_555
C9 C8 1_555 1_555
H5 C9 1_555 1_555
C10 C9 1_555 1_555
H6 C10 1_555 1_555
C11 C10 1_555 1_555
C12 C11 1_555 1_555
H7 C12 1_555 1_555
C13 C8 1_555 1_555
H8 C13 1_555 1_555
C14 O4 1_555 1_555
C15 H9 1_555 1_555
H10 C15 1_555 1_555
H11 C15 1_555 1_555
C16 C15 1_555 1_555
C17 N1 1_555 1_555
H12 C17 1_555 1_555
C18 N2 1_555 1_555
H13 C18 1_555 1_555
C19 N2 1_555 1_555
H14 C19 1_555 1_555
H15 C19 1_555 1_555
C20 C19 1_555 1_555
H16 C20 1_555 1_555
H17 C20 1_555 1_555
C21 C20 1_555 1_555
H18 C21 1_555 1_555
H19 C21 1_555 1_555
C22 C21 1_555 1_555
H20 C22 1_555 1_555
H21 C22 1_555 1_555
C23 N3 1_555 1_555
H22 C23 1_555 1_555
C24 C23 1_555 1_555
H23 C24 1_555 1_555
C25 N3 1_555 1_555
C26 C25 1_555 1_555
H24 C26 1_555 1_555
H25 C26 1_555 1_555
H26 C26 1_555 1_555
Cd1E N4 1_555 1_555
Cd1D N4C 1_555 1_555
Cd1A O1C 1_555 1_555
N1C Cd2 1_555 1_555
N2C C16C 1_555 1_555
N3C C22C 1_555 1_555
N4G Cd1 1_555 1_555
N4E Cd1 1_555 1_555
N4C C24C 1_555 1_555
O1B Cd1 1_555 1_555
O1C C1C 1_555 1_555
O2B Cd1 1_555 1_555
O2C Cd1A 1_555 1_555
O3C C5C 1_555 1_555
O4C Cd2 1_555 1_555
O5C Cd2 1_555 1_555
C1C O2C 1_555 1_555
C2C C1C 1_555 1_555
C3C C2C 1_555 1_555
H1C C3C 1_555 1_555
C4C C3C 1_555 1_555
H2C C4C 1_555 1_555
C5C C4C 1_555 1_555
C6C C5C 1_555 1_555
H3C C6C 1_555 1_555
C7C C2C 1_555 1_555
H4C C7C 1_555 1_555
C8C O3C 1_555 1_555
C9C C8C 1_555 1_555
H5C C9C 1_555 1_555
C10C C9C 1_555 1_555
H6C C10C 1_555 1_555
C11C C10C 1_555 1_555
C12C C11C 1_555 1_555
H7C C12C 1_555 1_555
C13C C8C 1_555 1_555
H8C C13C 1_555 1_555
C14C O4C 1_555 1_555
C15C H9C 1_555 1_555
H10C C15C 1_555 1_555
H11C C15C 1_555 1_555
C16C N1C 1_555 1_555
C17C N1C 1_555 1_555
H12C C17C 1_555 1_555
C18C N2C 1_555 1_555
H13C C18C 1_555 1_555
C19C N2C 1_555 1_555
H14C C19C 1_555 1_555
H15C C19C 1_555 1_555
C20C C19C 1_555 1_555
H16C C20C 1_555 1_555
H17C C20C 1_555 1_555
C21C C20C 1_555 1_555
H18C C21C 1_555 1_555
H19C C21C 1_555 1_555
C22C C21C 1_555 1_555
H20C C22C 1_555 1_555
H21C C22C 1_555 1_555
C23C N3C 1_555 1_555
H22C C23C 1_555 1_555
C24C C23C 1_555 1_555
H23C C24C 1_555 1_555
C25C N3C 1_555 1_555
C26C C25C 1_555 1_555
H24C C26C 1_555 1_555
H25C C26C 1_555 1_555
H26C C26C 1_555 1_555
N4 C25 1_555 1_555
O5 C14 1_555 1_555
C6 C7 1_555 1_555
C11 C14 1_555 1_555
C12 C13 1_555 1_555
C17 C18 1_555 1_555
N4C C25C 1_555 1_555
O5C C14C 1_555 1_555
C6C C7C 1_555 1_555
C11C C14C 1_555 1_555
C12C C13C 1_555 1_555
C15C C16C 1_555 1_555
C17C C18C 1_555 1_555

#END
