
#######################################################################
#
#                 Cambridge Crystallographic Data Centre
#                                CCDC 
#
#######################################################################
#
# If this CIF has been generated from an entry in the Cambridge 
# Structural Database, then it will include bibliographic, chemical, 
# crystal, experimental, refinement or atomic coordinate data resulting 
# from the CCDC's data processing and validation procedures.
#
#######################################################################

data_MUTZUX
_symmetry_cell_setting           monoclinic
_symmetry_space_group_name_H-M   'C 2/c'
_symmetry_Int_Tables_number      15
_space_group_name_Hall           '-C 2yn'
loop_
_symmetry_equiv_pos_site_id
_symmetry_equiv_pos_as_xyz
1 x,y,z
2 -x,y,1/2-z
3 1/2+x,1/2+y,z
4 1/2-x,1/2+y,1/2-z
5 -x,-y,-z
6 x,-y,1/2+z
7 1/2-x,1/2-y,-z
8 1/2+x,1/2-y,1/2+z
_cell_length_a                   34.081(2)
_cell_length_b                   10.7510(8)
_cell_length_c                   23.6158(18)
_cell_angle_alpha                90
_cell_angle_beta                 117.0640(10)
_cell_angle_gamma                90
_cell_volume                     7705.44
loop_
_atom_site_label
_atom_site_type_symbol
_atom_site_fract_x
_atom_site_fract_y
_atom_site_fract_z
Pb1 Pb 0.912900(17) 1.15074(5) 0.49718(2)
Pb2 Pb 0.994680(17) 0.69858(5) 0.51584(3)
Pb3 Pb 0.975359(16) 0.99357(5) 0.41244(2)
C1 C 0.8976(5) 0.8586(14) 0.4033(6)
C2 C 0.8554(5) 0.7857(15) 0.3865(7)
C3 C 0.8182(5) 0.8454(14) 0.3778(6)
H1 H 0.8183 0.9312 0.3828
C4 C 0.7793(5) 0.7771(15) 0.3614(7)
H2 H 0.7534 0.8183 0.3544
C5 C 0.7792(5) 0.6488(14) 0.3555(7)
C6 C 0.8186(5) 0.5900(17) 0.3660(8)
H3 H 0.8198 0.5040 0.3629
C7 C 0.8558(5) 0.6621(16) 0.3813(9)
H4 H 0.8820 0.6230 0.3881
C8 C 0.7375(4) 0.5766(14) 0.3416(7)
C9 C 0.7362(5) 0.5709(17) 0.4074(8)
C10 C 0.7366(6) 0.4447(18) 0.3176(11)
C11 C 0.5788(5) 0.7792(13) 0.1318(6)
C12 C 0.6205(5) 0.7331(14) 0.1885(6)
C13 C 0.6603(5) 0.7346(14) 0.1884(7)
H5 H 0.6623 0.7688 0.1537
C14 C 0.6972(5) 0.6881(15) 0.2373(7)
H6 H 0.7238 0.6892 0.2353
C15 C 0.6952(5) 0.6383(13) 0.2909(7)
C16 C 0.6552(4) 0.6352(15) 0.2908(7)
H7 H 0.6529 0.6003 0.3252
C17 C 0.6180(5) 0.6826(14) 0.2407(7)
H8 H 0.5911 0.6808 0.2420
C18 C 0.9846(5) 1.2782(16) 0.6095(7)
C19 C 1.0224(5) 1.3193(15) 0.6719(7)
C20 C 1.0404(5) 1.4343(15) 0.6803(7)
H9 H 1.0288 1.4913 0.6471
C21 C 1.0759(5) 1.4693(15) 0.7375(7)
H10 H 1.0874 1.5492 0.7421
C22 C 1.0939(4) 1.3877(14) 0.7865(6)
C23 C 1.0758(5) 1.2691(15) 0.7784(7)
H11 H 1.0875 1.2121 0.8116
C24 C 1.0409(5) 1.2354(14) 0.7221(7)
H12 H 1.0294 1.1555 0.7173
C25 C 1.1322(4) 1.4334(13) 0.8485(6)
C26 C 1.1721(5) 1.4560(15) 0.8346(8)
C27 C 1.1468(6) 1.3366(15) 0.9039(8)
C28 C 1.0788(5) 1.8700(13) 0.9435(7)
C29 C 1.0927(4) 1.7588(14) 0.9190(6)
C30 C 1.0629(5) 1.6682(15) 0.8830(7)
H13 H 1.0333 1.6776 0.8727
C31 C 1.0761(5) 1.5647(15) 0.8620(7)
H14 H 1.0557 1.5030 0.8399
C32 C 1.1187(4) 1.5519(14) 0.8732(6)
C33 C 1.1486(5) 1.6409(14) 0.9096(7)
H15 H 1.1781 1.6306 0.9195
C34 C 1.1365(5) 1.7435(16) 0.9318(7)
H16 H 1.1575 1.8030 0.9553
F1 F 0.7739(3) 0.5381(12) 0.4544(5)
F2 F 0.7264(3) 0.6792(11) 0.4235(5)
F3 F 0.7057(4) 0.4893(11) 0.4074(5)
F4 F 0.6975(3) 0.3887(10) 0.2989(7)
F5 F 0.7473(4) 0.4439(11) 0.2698(6)
F6 F 0.7664(4) 0.3679(10) 0.3632(6)
F7 F 1.1769(3) 1.3606(9) 0.8019(5)
F8 F 1.1672(3) 1.5580(9) 0.8008(5)
F9 F 1.2104(3) 1.4662(10) 0.8876(5)
F10 F 1.1777(3) 1.3797(9) 0.9579(4)
F11 F 1.1125(3) 1.3062(10) 0.9134(4)
F12 F 1.1623(3) 1.2319(9) 0.8906(5)
O1 O 0.8963(3) 0.9769(9) 0.4062(5)
O2 O 0.9322(3) 0.8012(10) 0.4124(4)
O3 O 0.5823(3) 0.8279(10) 0.0863(5)
O4 O 0.5421(3) 0.7541(11) 0.1309(5)
O5 O 0.9723(3) 1.3482(10) 0.5618(5)
O6 O 0.9671(3) 1.1735(10) 0.6074(5)
O7 O 1.1010(4) 1.9662(10) 0.9552(5)
O8 O 1.0438(3) 1.8612(10) 0.9503(5)
O9 O 0.9775(3) 1.1169(8) 0.4946(4)
Pb1A Pb 1.087100(17) 2.15074(5) 1.00282(2)
Pb2G Pb 0.494680(17) 0.80142(5) 0.01584(3)
Pb2D Pb 1.005320(17) 1.30142(5) 0.48416(3)
Pb2A Pb 1.005320(17) 1.69858(5) 0.98416(3)
Pb3E Pb 0.975359(16) 2.00643(5) 0.91244(2)
Pb3D Pb 1.024641(16) 1.00643(5) 0.58756(2)
O3G O 1.0823(3) 0.6721(10) 0.5863(5)
O4G O 1.0421(3) 0.7459(11) 0.6309(5)
O5D O 1.0277(3) 0.6518(10) 0.4382(5)
O7A O 0.8990(4) 0.9662(10) 0.5448(5)
O8A O 0.9562(3) 0.8612(10) 0.5497(5)
O8E O 1.0438(3) 1.1388(10) 0.4503(5)
O9D O 1.0225(3) 0.8831(8) 0.5054(4)
loop_
_geom_bond_atom_site_label_1
_geom_bond_atom_site_label_2
_geom_bond_site_symmetry_1
_geom_bond_site_symmetry_2
Pb1 O1 1_555 1_555
Pb2 O2 1_555 1_555
Pb3 O1 1_555 1_555
C1 C2 1_555 1_555
C2 C3 1_555 1_555
C3 H1 1_555 1_555
C4 C3 1_555 1_555
H2 C4 1_555 1_555
C5 C4 1_555 1_555
C6 C5 1_555 1_555
H3 C6 1_555 1_555
C7 C2 1_555 1_555
H4 C7 1_555 1_555
C8 C5 1_555 1_555
C9 C8 1_555 1_555
C10 C8 1_555 1_555
C11 C12 1_555 1_555
C12 C13 1_555 1_555
C13 H5 1_555 1_555
C14 C13 1_555 1_555
H6 C14 1_555 1_555
C15 C8 1_555 1_555
C16 C15 1_555 1_555
H7 C16 1_555 1_555
C17 C12 1_555 1_555
H8 C17 1_555 1_555
C18 C19 1_555 1_555
C19 C20 1_555 1_555
C20 H9 1_555 1_555
C21 C20 1_555 1_555
H10 C21 1_555 1_555
C22 C21 1_555 1_555
C23 C22 1_555 1_555
H11 C23 1_555 1_555
C24 C19 1_555 1_555
H12 C24 1_555 1_555
C25 C22 1_555 1_555
C26 C25 1_555 1_555
C27 C25 1_555 1_555
C28 C29 1_555 1_555
C29 C30 1_555 1_555
C30 H13 1_555 1_555
C31 C30 1_555 1_555
H14 C31 1_555 1_555
C32 C25 1_555 1_555
C33 C32 1_555 1_555
H15 C33 1_555 1_555
C34 C29 1_555 1_555
H16 C34 1_555 1_555
F1 C9 1_555 1_555
F2 C9 1_555 1_555
F3 C9 1_555 1_555
F4 C10 1_555 1_555
F5 C10 1_555 1_555
F6 C10 1_555 1_555
F7 C26 1_555 1_555
F8 C26 1_555 1_555
F9 C26 1_555 1_555
F10 C27 1_555 1_555
F11 C27 1_555 1_555
F12 C27 1_555 1_555
O1 C1 1_555 1_555
O2 Pb3 1_555 1_555
O3 C11 1_555 1_555
O4 C11 1_555 1_555
O5 C18 1_555 1_555
O6 Pb1 1_555 1_555
O7 C28 1_555 1_555
O8 C28 1_555 1_555
O9 Pb1 1_555 1_555
Pb1A O7 1_555 1_555
Pb2G O3 1_555 1_555
Pb2D O5 1_555 1_555
Pb2A O8 1_555 1_555
Pb3E O8 1_555 1_555
Pb3D O9 1_555 1_555
O3G Pb2 1_555 1_555
O4G Pb2 1_555 1_555
O5D Pb2 1_555 1_555
O7A Pb1 1_555 1_555
O8A Pb2 1_555 1_555
O8E Pb3 1_555 1_555
O9D Pb2 1_555 1_555
Pb3 O9 1_555 1_555
Pb3 O9D 1_555 1_555
C1 O2 1_555 1_555
C6 C7 1_555 1_555
C14 C15 1_555 1_555
C16 C17 1_555 1_555
C18 O6 1_555 1_555
C23 C24 1_555 1_555
C31 C32 1_555 1_555
C33 C34 1_555 1_555
O4 Pb2G 1_555 1_555
O9 Pb2D 1_555 1_555
Pb2D O8E 1_555 1_555
Pb3D O8A 1_555 1_555
Pb3D O9D 1_555 1_555

#END
