
#######################################################################
#
#                 Cambridge Crystallographic Data Centre
#                                CCDC 
#
#######################################################################
#
# If this CIF has been generated from an entry in the Cambridge 
# Structural Database, then it will include bibliographic, chemical, 
# crystal, experimental, refinement or atomic coordinate data resulting 
# from the CCDC's data processing and validation procedures.
#
#######################################################################

data_MUVGUG
_symmetry_cell_setting           orthorhombic
_symmetry_space_group_name_H-M   'P c c m'
_symmetry_Int_Tables_number      49
_space_group_name_Hall           '-P 2 2c'
loop_
_symmetry_equiv_pos_site_id
_symmetry_equiv_pos_as_xyz
1 x,y,z
2 -x,-y,z
3 x,-y,1/2-z
4 -x,y,1/2-z
5 -x,-y,-z
6 x,y,-z
7 -x,y,1/2+z
8 x,-y,1/2+z
_cell_length_a                   11.419(4)
_cell_length_b                   12.670(5)
_cell_length_c                   14.752(5)
_cell_angle_alpha                90
_cell_angle_beta                 90
_cell_angle_gamma                90
_cell_volume                     2134.3
loop_
_atom_site_label
_atom_site_type_symbol
_atom_site_fract_x
_atom_site_fract_y
_atom_site_fract_z
Zn1 Zn 0.5000 0.5000 -0.2500
N1 N 0.1010(4) -0.1357(4) -0.1448(3)
N2 N 0.49872(17) 0.3803(2) -0.14748(18)
N3 N 0.3103(3) 0.5000 -0.2500
C1 C 0.4150(3) 0.3085(2) 0.0000
C2 C 0.0653(3) 0.5000 -0.2500
C6 C 0.2492(2) 0.4116(2) -0.2651(2)
C7 C 0.1281(2) 0.4080(2) -0.2650(2)
C8 C 0.4618(2) 0.3485(2) -0.08041(17)
C9 C 0.3217(3) 0.2316(3) 0.0000
C10 C 0.2757(3) 0.1926(2) -0.0814(2)
C11 C 0.0794(3) -0.0900(2) -0.0804(2)
C12 C 0.0680(6) -0.0236(5) 0.0000
C13 C 0.1571(6) 0.0685(5) 0.0000
C16 C 0.1926(4) 0.1140(4) -0.0810(2)
H1 H 0.0892 0.3445 -0.2748
H2 H 0.3020 0.2203 -0.1361
H3 H 0.2903 0.3496 -0.2764
H4 H 0.1605 0.0909 -0.1355
N2A N 0.50128(17) 0.6197(2) -0.14748(18)
N2B N 0.49872(17) 0.6197(2) -0.35252(18)
N2C N 0.50128(17) 0.3803(2) -0.35252(18)
N3A N 0.6897(3) 0.5000 -0.2500
C2A C -0.0653(3) 0.5000 -0.2500
C6B C 0.2492(2) 0.5884(2) -0.2349(2)
C7B C 0.1281(2) 0.5920(2) -0.2350(2)
C8E C 0.4618(2) 0.3485(2) 0.08041(17)
C10E C 0.2757(3) 0.1926(2) 0.0814(2)
C11E C 0.0794(3) -0.0900(2) 0.0804(2)
C12A C -0.0680(6) 0.0236(5) 0.0000
C16E C 0.1926(4) 0.1140(4) 0.0810(2)
O1 O 0.1158(14) 0.6247(12) 0.0000
C3 C 0.1568(13) 0.5176(17) 0.0000
C4 C 0.0777(10) 0.4338(9) 0.0000
C5 C 0.0418(14) 0.5464(7) 0.0000
C14 C 0.242(2) 0.614(5) 0.0000
C15 C 0.0006(15) 0.6495(7) 0.0000
C4A C -0.0777(10) 0.5662(9) 0.0000
C5A C -0.0418(14) 0.4536(7) 0.0000
C15A C -0.0006(15) 0.3505(7) 0.0000
C17? C -0.1206(9) 0.3702(10) 0.0000
loop_
_geom_bond_atom_site_label_1
_geom_bond_atom_site_label_2
_geom_bond_site_symmetry_1
_geom_bond_site_symmetry_2
Zn1 N2 1_555 1_555
O1 C3 1_555 1_555
N1 C11 1_555 1_555
N2 C8 1_555 1_555
N3 Zn1 1_555 1_555
C1 C8 1_555 1_555
C2 C7 1_555 1_555
C3 C4 1_555 1_555
C4 C5 1_555 1_555
C5 O1 1_555 1_555
C6 N3 1_555 1_555
C7 C6 1_555 1_555
C9 C1 1_555 1_555
C10 C9 1_555 1_555
C11 C12 1_555 1_555
C12 C13 1_555 1_555
C13 C16 1_555 1_555
C14 O1 1_555 1_555
C15 O1 1_555 1_555
C16 C10 1_555 1_555
H1 C7 1_555 1_555
H2 C10 1_555 1_555
H3 C6 1_555 1_555
H4 C16 1_555 1_555
N2A Zn1 1_555 1_555
N2B Zn1 1_555 1_555
N2C Zn1 1_555 1_555
N3A Zn1 1_555 1_555
C2A C2 1_555 1_555
C4A C5 1_555 1_555
C5A C4 1_555 1_555
C6B N3 1_555 1_555
C7B C2 1_555 1_555
C8E C1 1_555 1_555
C10E C9 1_555 1_555
C11E C12 1_555 1_555
C12A C12 1_555 1_555
C15A C4 1_555 1_555
C16E C13 1_555 1_555
C3 C5 1_555 1_555
C3 C14 1_555 1_555
C5 C15 1_555 1_555
C5 C5A 1_555 1_555
C15 C4A 1_555 1_555
C4A C5A 1_555 1_555
C5A C15A 1_555 1_555
C6B C7B 1_555 1_555
C10E C16E 1_555 1_555

#END
