
#######################################################################
#
#                 Cambridge Crystallographic Data Centre
#                                CCDC 
#
#######################################################################
#
# If this CIF has been generated from an entry in the Cambridge 
# Structural Database, then it will include bibliographic, chemical, 
# crystal, experimental, refinement or atomic coordinate data resulting 
# from the CCDC's data processing and validation procedures.
#
#######################################################################

data_MUVTEC01
_symmetry_cell_setting           triclinic
_symmetry_space_group_name_H-M   'P -1'
_symmetry_Int_Tables_number      2
_space_group_name_Hall           '-P 1'
loop_
_symmetry_equiv_pos_site_id
_symmetry_equiv_pos_as_xyz
1 x,y,z
2 -x,-y,-z
_cell_length_a                   8.3155(6)
_cell_length_b                   8.8521(6)
_cell_length_c                   9.8070(7)
_cell_angle_alpha                74.8420(10)
_cell_angle_beta                 77.2800(10)
_cell_angle_gamma                68.6760(10)
_cell_volume                     642.759
loop_
_atom_site_label
_atom_site_type_symbol
_atom_site_fract_x
_atom_site_fract_y
_atom_site_fract_z
Ag1 Ag 0.41963(3) 0.70050(3) 0.54120(2)
C1 C 0.1962(4) 0.6963(3) 0.3208(3)
H1 H 0.1512 0.6313 0.4031
C2 C 0.1377(4) 0.7193(3) 0.1938(3)
H2 H 0.0516 0.6743 0.1893
C3 C 0.2071(3) 0.8095(3) 0.0726(3)
C4 C 0.3282(4) 0.8773(4) 0.0844(3)
H3 H 0.3767 0.9409 0.0033
C5 C 0.3773(4) 0.8504(4) 0.2170(3)
H4 H 0.4599 0.8977 0.2248
C6 C 0.1536(3) 0.8351(3) -0.0664(3)
C7 C 0.0129(4) 0.8201(3) -0.2148(3)
C8 C -0.3607(4) 0.6894(3) -0.2295(3)
H5 H -0.4401 0.6396 -0.1662
C9 C -0.2333(4) 0.7101(3) -0.1739(3)
H6 H -0.2245 0.6747 -0.0749
C10 C -0.1184(3) 0.7840(3) -0.2661(3)
C11 C -0.1344(4) 0.8321(4) -0.4105(3)
H7 H -0.0572 0.8826 -0.4760
C12 C -0.2646(4) 0.8049(4) -0.4570(3)
H8 H -0.2741 0.8365 -0.5560
N1 N 0.3142(3) 0.7613(3) 0.3343(2)
N2 N 0.2135(3) 0.9064(3) -0.1884(2)
N3 N 0.1212(3) 0.8962(3) -0.2873(2)
N4 N -0.3780(3) 0.7363(3) -0.3692(2)
O1 O 0.0253(2) 0.7774(2) -0.07299(19)
N5 N 0.2774(3) 0.4454(3) 0.7591(3)
O2 O 0.2684(3) 0.4918(3) 0.6269(2)
O3 O 0.3445(3) 0.5148(3) 0.8160(2)
O4 O 0.2219(3) 0.3330(3) 0.8293(2)
N4_2 N 0.6220(3) 0.7363(3) 0.6308(2)
Ag1_2 Ag -0.58037(3) 0.70050(3) -0.45880(2)
loop_
_geom_bond_atom_site_label_1
_geom_bond_atom_site_label_2
_geom_bond_site_symmetry_1
_geom_bond_site_symmetry_2
Ag1 N1 1_555 1_555
C1 H1 1_555 1_555
C2 C1 1_555 1_555
H2 C2 1_555 1_555
C3 C2 1_555 1_555
C4 C3 1_555 1_555
H3 C4 1_555 1_555
C5 C4 1_555 1_555
H4 C5 1_555 1_555
C6 C3 1_555 1_555
C7 C10 1_555 1_555
C8 H5 1_555 1_555
C9 C8 1_555 1_555
H6 C9 1_555 1_555
C10 C9 1_555 1_555
C11 C10 1_555 1_555
H7 C11 1_555 1_555
C12 C11 1_555 1_555
H8 C12 1_555 1_555
N1 C1 1_555 1_555
N2 C6 1_555 1_555
N3 C7 1_555 1_555
N4 C8 1_555 1_555
O1 C6 1_555 1_555
N5 O2 1_555 1_555
O2 Ag1 1_555 1_555
O3 N5 1_555 1_555
O4 N5 1_555 1_555
N4_2 Ag1 1_555 1_555
Ag1_2 N4 1_555 1_555
C5 N1 1_555 1_555
C7 O1 1_555 1_555
C12 N4 1_555 1_555
N2 N3 1_555 1_555

#END
