
#######################################################################
#
#                 Cambridge Crystallographic Data Centre
#                                CCDC 
#
#######################################################################
#
# If this CIF has been generated from an entry in the Cambridge 
# Structural Database, then it will include bibliographic, chemical, 
# crystal, experimental, refinement or atomic coordinate data resulting 
# from the CCDC's data processing and validation procedures.
#
#######################################################################

data_MUVTEC
_symmetry_cell_setting           triclinic
_symmetry_space_group_name_H-M   'P -1'
_symmetry_Int_Tables_number      2
_space_group_name_Hall           '-P 1'
loop_
_symmetry_equiv_pos_site_id
_symmetry_equiv_pos_as_xyz
1 x,y,z
2 -x,-y,-z
_cell_length_a                   8.3649(11)
_cell_length_b                   8.9480(13)
_cell_length_c                   9.8344(14)
_cell_angle_alpha                74.713(2)
_cell_angle_beta                 77.828(3)
_cell_angle_gamma                69.389(3)
_cell_volume                     658.898
loop_
_atom_site_label
_atom_site_type_symbol
_atom_site_fract_x
_atom_site_fract_y
_atom_site_fract_z
Ag1 Ag 1.08174(4) 0.79990(4) 0.95985(3)
O1 O 0.4770(3) 0.7225(3) 0.5734(3)
N1 N 0.8793(4) 0.7625(4) 0.8714(3)
N2 N 0.3830(5) 0.6032(4) 0.7866(4)
N3 N 0.2890(4) 0.5953(4) 0.6876(3)
N4 N 0.1864(4) 0.7403(4) 0.1672(4)
C1 C 0.8614(5) 0.8098(5) 0.7311(4)
H1 H 0.9386 0.8582 0.6696
C2 C 0.7353(5) 0.7897(5) 0.6761(4)
H2 H 0.7255 0.8261 0.5796
C3 C 0.6219(5) 0.7143(4) 0.7666(4)
C4 C 0.6394(6) 0.6652(5) 0.9100(4)
H3 H 0.5654 0.6144 0.9736
C5 C 0.7689(6) 0.6931(6) 0.9563(4)
H4 H 0.7790 0.6612 1.0529
C6 C 0.4906(5) 0.6787(5) 0.7149(4)
C7 C 0.3489(5) 0.6659(4) 0.5659(4)
C8 C 0.2947(5) 0.6915(4) 0.4278(4)
C9 C 0.3639(5) 0.7798(5) 0.3066(4)
H5 H 0.4484 0.8230 0.3107
C10 C 0.3054(5) 0.8023(5) 0.1806(4)
H6 H 0.3506 0.8637 0.0999
C11 C 0.1230(5) 0.6531(5) 0.2829(4)
H7 H 0.0420 0.6077 0.2747
C12 C 0.1720(5) 0.6262(5) 0.4156(4)
H8 H 0.1235 0.5656 0.4949
N5 N 1.2250(4) 1.0537(4) 0.7428(4)
O2 O 1.2338(6) 1.0113(5) 0.8723(4)
O3 O 1.2765(6) 1.1659(6) 0.6709(4)
O4 O 1.1575(5) 0.9844(4) 0.6877(5)
N4_2 N 1.1864(4) 0.7403(4) 1.1672(4)
Ag1_2 Ag 0.08174(4) 0.79990(4) -0.04015(3)
loop_
_geom_bond_atom_site_label_1
_geom_bond_atom_site_label_2
_geom_bond_site_symmetry_1
_geom_bond_site_symmetry_2
Ag1 N1 1_555 1_555
O1 C6 1_555 1_555
N1 C1 1_555 1_555
N2 N3 1_555 1_555
N3 C7 1_555 1_555
N4 C10 1_555 1_555
C1 H1 1_555 1_555
C2 C1 1_555 1_555
H2 C2 1_555 1_555
C3 C2 1_555 1_555
C4 C3 1_555 1_555
H3 C4 1_555 1_555
C5 N1 1_555 1_555
H4 C5 1_555 1_555
C6 N2 1_555 1_555
C7 O1 1_555 1_555
C8 C7 1_555 1_555
C9 C8 1_555 1_555
H5 C9 1_555 1_555
C10 C9 1_555 1_555
H6 C10 1_555 1_555
C11 N4 1_555 1_555
H7 C11 1_555 1_555
C12 C8 1_555 1_555
H8 C12 1_555 1_555
N5 O2 1_555 1_555
O2 Ag1 1_555 1_555
O3 N5 1_555 1_555
O4 N5 1_555 1_555
N4_2 Ag1 1_555 1_555
Ag1_2 N4 1_555 1_555
C3 C6 1_555 1_555
C4 C5 1_555 1_555
C11 C12 1_555 1_555

#END
