
#######################################################################
#
#                 Cambridge Crystallographic Data Centre
#                                CCDC 
#
#######################################################################
#
# If this CIF has been generated from an entry in the Cambridge 
# Structural Database, then it will include bibliographic, chemical, 
# crystal, experimental, refinement or atomic coordinate data resulting 
# from the CCDC's data processing and validation procedures.
#
#######################################################################

data_MUVTEC02
_symmetry_cell_setting           triclinic
_symmetry_space_group_name_H-M   'P -1'
_symmetry_Int_Tables_number      2
_space_group_name_Hall           '-P 1'
loop_
_symmetry_equiv_pos_site_id
_symmetry_equiv_pos_as_xyz
1 x,y,z
2 -x,-y,-z
_cell_length_a                   8.949(2)
_cell_length_b                   9.856(2)
_cell_length_c                   8.358(2)
_cell_angle_alpha                102.12(3)
_cell_angle_beta                 110.50(3)
_cell_angle_gamma                74.78(3)
_cell_volume                     660.578
loop_
_atom_site_label
_atom_site_type_symbol
_atom_site_fract_x
_atom_site_fract_y
_atom_site_fract_z
Ag1 Ag 0.30053(6) 0.45945(4) 0.41837(6)
N1 N 0.2408(5) 0.6666(4) 0.3136(5)
N2 N 0.0950(5) 1.1877(4) 0.2107(5)
N3 N 0.1035(5) 1.2862(4) 0.1174(5)
N4 N 0.2630(5) 1.3700(4) -0.3800(5)
N5 N 0.5536(6) 0.2432(5) 0.2756(5)
O1 O 0.2222(4) 1.0735(3) 0.0230(4)
O2 O 0.5126(6) 0.3724(4) 0.2664(6)
O3 O 0.4836(5) 0.1882(5) 0.3418(6)
O4 O 0.6645(7) 0.1702(5) 0.2227(6)
C1 C 0.1533(6) 0.7822(5) 0.3769(6)
H1 H 0.1081(6) 0.7737(5) 0.4581(6)
C2 C 0.1257(6) 0.9151(5) 0.3281(6)
H2 H 0.0644(6) 0.9938(5) 0.3765(6)
C3 C 0.1913(6) 0.9282(4) 0.2060(5)
C4 C 0.2809(6) 0.8070(5) 0.1363(6)
H3 H 0.3249(6) 0.8115(5) 0.0523(6)
C5 C 0.3030(6) 0.6795(5) 0.1951(6)
H4 H 0.3641(6) 0.5989(5) 0.1497(6)
C6 C 0.1652(6) 1.0656(4) 0.1497(5)
C7 C 0.1797(6) 1.2147(4) 0.0093(6)
C8 C 0.1924(7) 1.4564(5) -0.2685(7)
H5 H 0.1595(7) 1.5526(5) -0.2791(7)
C9 C 0.1665(7) 1.4096(5) -0.1395(7)
H6 H 0.1170(7) 1.4732(5) -0.0646(7)
C10 C 0.2147(6) 1.2664(4) -0.1214(6)
C11 C 0.2895(6) 1.1757(5) -0.2343(6)
H7 H 0.3248(6) 1.0793(5) -0.2249(6)
C12 C 0.3104(6) 1.2319(5) -0.3615(6)
H8 H 0.3598(6) 1.1707(5) -0.4380(6)
N4_2 N 0.2630(5) 0.3700(4) 0.6200(5)
Ag1_2 Ag 0.30053(6) 1.45945(4) -0.58163(6)
loop_
_geom_bond_atom_site_label_1
_geom_bond_atom_site_label_2
_geom_bond_site_symmetry_1
_geom_bond_site_symmetry_2
Ag1 N1 1_555 1_555
N1 C1 1_555 1_555
N2 N3 1_555 1_555
N3 C7 1_555 1_555
N4 C8 1_555 1_555
N5 O2 1_555 1_555
O1 C6 1_555 1_555
O2 Ag1 1_555 1_555
O3 N5 1_555 1_555
O4 N5 1_555 1_555
C1 H1 1_555 1_555
C2 C1 1_555 1_555
H2 C2 1_555 1_555
C3 C2 1_555 1_555
C4 C3 1_555 1_555
H3 C4 1_555 1_555
C5 N1 1_555 1_555
H4 C5 1_555 1_555
C6 N2 1_555 1_555
C7 O1 1_555 1_555
C8 H5 1_555 1_555
C9 C8 1_555 1_555
H6 C9 1_555 1_555
C10 C7 1_555 1_555
C11 C10 1_555 1_555
H7 C11 1_555 1_555
C12 N4 1_555 1_555
H8 C12 1_555 1_555
N4_2 Ag1 1_555 1_555
Ag1_2 N4 1_555 1_555
C3 C6 1_555 1_555
C4 C5 1_555 1_555
C9 C10 1_555 1_555
C11 C12 1_555 1_555

#END
