
#######################################################################
#
#                 Cambridge Crystallographic Data Centre
#                                CCDC 
#
#######################################################################
#
# If this CIF has been generated from an entry in the Cambridge 
# Structural Database, then it will include bibliographic, chemical, 
# crystal, experimental, refinement or atomic coordinate data resulting 
# from the CCDC's data processing and validation procedures.
#
#######################################################################

data_MUWFEP
_symmetry_cell_setting           triclinic
_symmetry_space_group_name_H-M   'P -1'
_symmetry_Int_Tables_number      2
_space_group_name_Hall           '-P 1'
loop_
_symmetry_equiv_pos_site_id
_symmetry_equiv_pos_as_xyz
1 x,y,z
2 -x,-y,-z
_cell_length_a                   6.7657(8)
_cell_length_b                   10.5093(13)
_cell_length_c                   14.8207(18)
_cell_angle_alpha                101.281(2)
_cell_angle_beta                 97.091(2)
_cell_angle_gamma                90.516(2)
_cell_volume                     1024.93
loop_
_atom_site_label
_atom_site_type_symbol
_atom_site_fract_x
_atom_site_fract_y
_atom_site_fract_z
Ag1 Ag 0.20023(13) 0.75324(8) 0.00782(6)
S1 S 0.4964(4) 0.8011(3) 0.2283(2)
S2 S 0.3909(4) 0.7006(3) -0.1896(2)
N1 N 0.1126(13) 0.5886(9) 0.0794(6)
N2 N 0.0675(13) 0.9085(8) -0.0762(6)
O1 O 0.4423(17) 0.8484(10) 0.1443(7)
O3 O 0.4084(15) 0.8703(10) 0.3062(7)
O5 O 0.7113(13) 0.7930(9) 0.2511(7)
O6 O 0.4552(12) 0.7189(9) -0.0915(6)
O7 O 0.2394(15) 0.5989(8) -0.2206(7)
O8 O 0.5584(14) 0.6856(9) -0.2418(7)
C1 C 0.404(2) 0.6397(12) 0.2085(10)
H1 H 0.4712 0.5885 0.1601
H2 H 0.4395 0.6060 0.2646
C2 C 0.1757(19) 0.6199(11) 0.1798(8)
H3 H 0.1285 0.5505 0.2071
H4 H 0.1118 0.6985 0.2058
C3 C -0.1091(16) 0.5766(10) 0.0651(8)
H5 H -0.1636 0.6592 0.0901
H6 H -0.1527 0.5127 0.0983
C4 C 0.1869(17) 0.4638(10) 0.0368(8)
H7 H 0.1480 0.3977 0.0692
H8 H 0.3314 0.4694 0.0439
C5 C 0.277(2) 0.8454(11) -0.2098(8)
H9 H 0.3649 0.9185 -0.1788
H10 H 0.2643 0.8447 -0.2758
C6 C 0.0698(18) 0.8673(13) -0.1771(9)
H11 H 0.0048 0.9324 -0.2074
H12 H -0.0093 0.7871 -0.1980
C7 C 0.1697(15) 1.0341(10) -0.0390(8)
H13 H 0.1164 1.0971 -0.0746
H14 H 0.3104 1.0266 -0.0453
C8 C -0.1452(17) 0.9193(12) -0.0615(8)
H15 H -0.2126 0.8351 -0.0836
H16 H -0.2077 0.9791 -0.0975
C4A C -0.1869(17) 0.5362(10) -0.0368(8)
N1A N -0.1126(13) 0.4114(9) -0.0794(6)
C2A C -0.1757(19) 0.3801(11) -0.1798(8)
C1A C -0.404(2) 0.3603(12) -0.2085(10)
S1A S -0.4964(4) 0.1989(3) -0.2283(2)
O1A O -0.4423(17) 0.1516(10) -0.1443(7)
O3A O -0.4084(15) 0.1297(10) -0.3062(7)
O5A O -0.7113(13) 0.2070(9) -0.2511(7)
H1A H -0.4712 0.4115 -0.1601
H2A H -0.4395 0.3940 -0.2646
H3A H -0.1285 0.4495 -0.2071
H4A H -0.1118 0.3015 -0.2058
C3A C 0.1091(16) 0.4234(10) -0.0651(8)
H5A H 0.1636 0.3408 -0.0901
H6A H 0.1527 0.4873 -0.0983
H7A H -0.1480 0.6023 -0.0692
H8A H -0.3314 0.5306 -0.0439
C8A C 0.1452(17) 1.0807(12) 0.0615(8)
N2A N -0.0675(13) 1.0915(8) 0.0762(6)
C6A C -0.0698(18) 1.1327(13) 0.1771(9)
C5A C -0.277(2) 1.1546(11) 0.2098(8)
S2A S -0.3909(4) 1.2994(3) 0.1896(2)
O6A O -0.4552(12) 1.2811(9) 0.0915(6)
O7A O -0.2394(15) 1.4011(8) 0.2206(7)
O8A O -0.5584(14) 1.3144(9) 0.2418(7)
H9A H -0.3649 1.0815 0.1788
H10A H -0.2643 1.1553 0.2758
H11A H -0.0048 1.0676 0.2074
H12A H 0.0093 1.2129 0.1980
C7A C -0.1697(15) 0.9659(10) 0.0390(8)
H13A H -0.1164 0.9029 0.0746
H14A H -0.3104 0.9734 0.0453
H15A H 0.2126 1.1649 0.0836
H16A H 0.2077 1.0209 0.0975
Ag1A Ag -0.20023(13) 0.24676(8) -0.00782(6)
Ag1A_2 Ag -0.20023(13) 1.24676(8) -0.00782(6)
N2A_2 N -0.0675(13) 0.0915(8) 0.0762(6)
O6A_2 O -0.4552(12) 0.2811(9) 0.0915(6)
Ag2 Ag 0.92953(17) 0.72220(9) 0.40520(7)
N3 N 0.9294(17) 0.5137(9) 0.4072(8)
N4 N 1.0724(16) 0.9160(9) 0.4219(7)
C9 C 1.131(2) 0.4688(13) 0.4325(10)
H17 H 1.2213 0.4941 0.3924
H18 H 1.1279 0.3749 0.4235
C10 C 0.793(2) 0.4739(15) 0.4682(11)
H19 H 0.7849 0.3799 0.4593
H20 H 0.6599 0.5039 0.4526
C11 C 0.9297(19) 1.0182(11) 0.4085(8)
H21 H 0.8439 0.9907 0.3502
H22 H 1.0019 1.0971 0.4055
C12 C 1.1950(19) 0.9552(12) 0.5134(10)
H23 H 1.2857 0.8867 0.5230
H24 H 1.2744 1.0326 0.5136
C10A C 1.207(2) 0.5261(15) 0.5318(11)
N3A N 1.0706(17) 0.4863(9) 0.5928(8)
C9A C 0.869(2) 0.5312(13) 0.5675(10)
H17A H 0.7787 0.5059 0.6076
H18A H 0.8721 0.6251 0.5765
H19A H 1.2151 0.6201 0.5407
H20A H 1.3401 0.4961 0.5474
C12A C 0.8050(19) 1.0448(12) 0.4866(10)
N4A N 0.9276(16) 1.0840(9) 0.5781(7)
C11A C 1.0703(19) 0.9818(11) 0.5915(8)
H21A H 1.1561 1.0093 0.6498
H22A H 0.9981 0.9029 0.5945
H23A H 0.7143 1.1133 0.4770
H24A H 0.7256 0.9674 0.4864
Ag2A Ag 1.07047(17) 0.27780(9) 0.59480(7)
Ag2A_2 Ag 1.07047(17) 1.27780(9) 0.59480(7)
N4A_2 N 0.9276(16) 0.0840(9) 0.5781(7)
O2 O 0.5439(17) 0.7232(11) -0.5513(8)
O4 O 0.6258(17) 0.8492(10) -0.3657(7)
H25 H 0.678(12) 0.769(8) -0.425(6)
H26 H 0.531(14) 0.807(9) -0.368(6)
loop_
_geom_bond_atom_site_label_1
_geom_bond_atom_site_label_2
_geom_bond_site_symmetry_1
_geom_bond_site_symmetry_2
Ag1 N1 1_555 1_555
Ag2 N3 1_555 1_555
S1 O1 1_555 1_555
S2 O6 1_555 1_555
N1 C2 1_555 1_555
N2 Ag1 1_555 1_555
N3 C9 1_555 1_555
N4 Ag2 1_555 1_555
O1 Ag1 1_555 1_555
O3 S1 1_555 1_555
O4 H25 1_555 1_555
O5 S1 1_555 1_555
O6 Ag1 1_555 1_555
O7 S2 1_555 1_555
O8 S2 1_555 1_555
C1 S1 1_555 1_555
H1 C1 1_555 1_555
H2 C1 1_555 1_555
C2 C1 1_555 1_555
H3 C2 1_555 1_555
H4 C2 1_555 1_555
C3 N1 1_555 1_555
H5 C3 1_555 1_555
H6 C3 1_555 1_555
C4 N1 1_555 1_555
H7 C4 1_555 1_555
H8 C4 1_555 1_555
C5 S2 1_555 1_555
H9 C5 1_555 1_555
H10 C5 1_555 1_555
C6 N2 1_555 1_555
H11 C6 1_555 1_555
H12 C6 1_555 1_555
C7 N2 1_555 1_555
H13 C7 1_555 1_555
H14 C7 1_555 1_555
C8 N2 1_555 1_555
H15 C8 1_555 1_555
H16 C8 1_555 1_555
C9 H17 1_555 1_555
H18 C9 1_555 1_555
C10 N3 1_555 1_555
H19 C10 1_555 1_555
H20 C10 1_555 1_555
C11 N4 1_555 1_555
H21 C11 1_555 1_555
H22 C11 1_555 1_555
C12 N4 1_555 1_555
H23 C12 1_555 1_555
H24 C12 1_555 1_555
H26 O4 1_555 1_555
C4A C3 1_555 1_555
N1A C4A 1_555 1_555
C2A N1A 1_555 1_555
C1A C2A 1_555 1_555
S1A C1A 1_555 1_555
O1A S1A 1_555 1_555
O3A S1A 1_555 1_555
O5A S1A 1_555 1_555
H1A C1A 1_555 1_555
H2A C1A 1_555 1_555
H3A C2A 1_555 1_555
H4A C2A 1_555 1_555
C3A C4 1_555 1_555
H5A C3A 1_555 1_555
H6A C3A 1_555 1_555
H7A C4A 1_555 1_555
H8A C4A 1_555 1_555
C8A C7 1_555 1_555
N2A C8A 1_555 1_555
C6A N2A 1_555 1_555
C5A C6A 1_555 1_555
S2A C5A 1_555 1_555
O6A S2A 1_555 1_555
O7A S2A 1_555 1_555
O8A S2A 1_555 1_555
H9A C5A 1_555 1_555
H10A C5A 1_555 1_555
H11A C6A 1_555 1_555
H12A C6A 1_555 1_555
C7A C8 1_555 1_555
H13A C7A 1_555 1_555
H14A C7A 1_555 1_555
H15A C8A 1_555 1_555
H16A C8A 1_555 1_555
C10A C9 1_555 1_555
N3A C10A 1_555 1_555
C9A C10 1_555 1_555
H17A C9A 1_555 1_555
H18A C9A 1_555 1_555
H19A C10A 1_555 1_555
H20A C10A 1_555 1_555
C12A C11 1_555 1_555
N4A C12A 1_555 1_555
C11A C12 1_555 1_555
H21A C11A 1_555 1_555
H22A C11A 1_555 1_555
H23A C12A 1_555 1_555
H24A C12A 1_555 1_555
Ag1A N1A 1_555 1_555
Ag2A N3A 1_555 1_555
Ag1A_2 N2A 1_555 1_555
Ag2A_2 N4A 1_555 1_555
N2A_2 Ag1A 1_555 1_555
O6A_2 Ag1A 1_555 1_555
N4A_2 Ag2A 1_555 1_555
C5 C6 1_555 1_555
N1A C3A 1_555 1_555
O1A Ag1A 1_555 1_555
N2A C7A 1_555 1_555
O6A Ag1A_2 1_555 1_555
N3A C9A 1_555 1_555
N4A C11A 1_555 1_555

#END
