
#######################################################################
#
#                 Cambridge Crystallographic Data Centre
#                                CCDC 
#
#######################################################################
#
# If this CIF has been generated from an entry in the Cambridge 
# Structural Database, then it will include bibliographic, chemical, 
# crystal, experimental, refinement or atomic coordinate data resulting 
# from the CCDC's data processing and validation procedures.
#
#######################################################################

data_MUWSAZ
_symmetry_cell_setting           monoclinic
_symmetry_space_group_name_H-M   'P 21/c'
_symmetry_Int_Tables_number      14
_space_group_name_Hall           '-P 2ybc'
loop_
_symmetry_equiv_pos_site_id
_symmetry_equiv_pos_as_xyz
1 x,y,z
2 -x,1/2+y,1/2-z
3 -x,-y,-z
4 x,1/2-y,1/2+z
_cell_length_a                   7.7540(3)
_cell_length_b                   19.3634(10)
_cell_length_c                   19.3003(8)
_cell_angle_alpha                90
_cell_angle_beta                 94.232(4)
_cell_angle_gamma                90
_cell_volume                     2889.92
loop_
_atom_site_label
_atom_site_type_symbol
_atom_site_fract_x
_atom_site_fract_y
_atom_site_fract_z
K1 K 0.45504(6) 0.41460(3) 0.57706(2)
K2 K 0.04632(7) 0.08584(3) 0.57599(3)
B1 B -0.0225(3) 0.31456(14) 0.51921(13)
C1 C -0.0131(3) 0.39853(12) 0.51022(10)
O1 O -0.1596(2) 0.43216(9) 0.49471(10)
H1 H -0.142(3) 0.4767(15) 0.4936(14)
O2 O 0.12332(18) 0.43145(8) 0.51859(8)
C2 C -0.2190(3) 0.28821(12) 0.49268(11)
F1 F -0.33791(15) 0.31732(7) 0.53429(7)
F2 F -0.26669(17) 0.31252(7) 0.42737(7)
C3 C -0.2731(3) 0.21212(13) 0.48957(13)
F3 F -0.20226(18) 0.17874(8) 0.43853(8)
F4 F -0.44299(16) 0.20476(8) 0.47887(7)
F5 F -0.22549(19) 0.17909(8) 0.54858(8)
C4 C 0.1289(3) 0.27935(12) 0.47434(12)
F6 F 0.29004(15) 0.30189(7) 0.49959(7)
F7 F 0.13442(17) 0.20864(7) 0.48228(7)
C5 C 0.1309(3) 0.29117(15) 0.39560(13)
F8 F 0.2757(2) 0.26803(10) 0.37193(8)
F9 F 0.0002(2) 0.26017(10) 0.36086(7)
F10 F 0.1214(2) 0.35866(9) 0.38150(7)
C6 C 0.0328(3) 0.29822(13) 0.60227(12)
F11 F 0.18898(16) 0.32890(8) 0.62150(6)
F12 F 0.0599(2) 0.22915(8) 0.61524(7)
C7 C -0.0838(4) 0.32257(18) 0.65858(13)
F13 F -0.0024(2) 0.31885(11) 0.72106(7)
F14 F -0.1311(2) 0.38811(10) 0.64708(8)
F15 F -0.2261(2) 0.28525(11) 0.65913(8)
B2 B 0.4672(3) 0.52014(14) 0.81177(12)
C8 C 0.4793(3) 0.51760(13) 0.89759(11)
O3 O 0.6307(2) 0.52109(11) 0.93034(8)
H2 H 0.638(4) 0.5159(16) 0.9650(14)
O4 O 0.3474(2) 0.51015(11) 0.93183(7)
C9 C 0.5785(3) 0.58544(14) 0.78478(10)
F16 F 0.75197(16) 0.57864(9) 0.80640(7)
F17 F 0.57679(18) 0.58698(8) 0.71341(6)
C10 C 0.5399(4) 0.65955(16) 0.80418(15)
F18 F 0.6520(3) 0.70384(10) 0.78249(9)
F19 F 0.5466(3) 0.66494(10) 0.87348(9)
F20 F 0.3859(3) 0.67930(10) 0.77831(12)
C11 C 0.2594(3) 0.52393(13) 0.78650(11)
F21 F 0.18204(17) 0.57831(9) 0.81855(7)
F22 F 0.17532(17) 0.46620(8) 0.80818(6)
C12 C 0.1888(3) 0.53103(14) 0.71014(11)
F23 F 0.24820(18) 0.48019(8) 0.67161(6)
F24 F 0.01784(16) 0.52699(9) 0.70368(7)
F25 F 0.23389(18) 0.59001(9) 0.68208(7)
C13 C 0.5629(3) 0.44887(14) 0.78633(11)
F26 F 0.58477(19) 0.44946(9) 0.71557(7)
F27 F 0.72835(19) 0.44537(9) 0.81707(7)
C14 C 0.4881(4) 0.37784(16) 0.79931(15)
F28 F 0.3519(3) 0.36394(9) 0.75547(9)
F29 F 0.4373(2) 0.37411(9) 0.86412(9)
F30 F 0.6029(3) 0.32794(10) 0.79220(10)
O5 O 0.4790(2) 0.44411(10) 0.43610(9)
H3 H 0.560(3) 0.4243(15) 0.4299(14)
H4 H 0.399(4) 0.4328(15) 0.4171(15)
O6 O -0.0195(3) -0.05522(12) 0.56215(9)
H5 H -0.102(4) -0.0573(17) 0.5804(15)
H6 H 0.050(4) -0.0732(16) 0.5858(15)
K1_2 K -0.54496(6) 0.41460(3) 0.57706(2)
K1B K 0.54496(6) 0.58540(3) 0.42294(2)
K2A K 0.95368(7) 0.58584(3) 0.92401(3)
K2A_2 K -0.04632(7) 0.58584(3) 0.92401(3)
K2B K -0.04632(7) -0.08584(3) 0.42401(3)
F1_2 F 0.66209(15) 0.31732(7) 0.53429(7)
O3A O 0.3693(2) 0.02109(11) 0.56966(8)
H2A H 0.362(4) 0.0159(16) 0.5350(14)
O4A O -0.3474(2) 0.01015(11) 0.56817(7)
F16A F 0.24803(16) 0.07864(9) 0.69360(7)
F21A F -0.18204(17) 0.07831(9) 0.68145(7)
O5B O 0.5210(2) 0.55589(10) 0.56390(9)
H3B H 0.440(3) 0.5757(15) 0.5701(14)
H4B H 0.601(4) 0.5672(15) 0.5829(15)
O6B O 0.0195(3) 0.05522(12) 0.43785(9)
H5B H 0.102(4) 0.0573(17) 0.4196(15)
H6B H -0.050(4) 0.0732(16) 0.4142(15)
loop_
_geom_bond_atom_site_label_1
_geom_bond_atom_site_label_2
_geom_bond_site_symmetry_1
_geom_bond_site_symmetry_2
K1 O2 1_555 1_555
K2 F5 1_555 1_555
B1 C1 1_555 1_555
C1 O1 1_555 1_555
O1 H1 1_555 1_555
O2 C1 1_555 1_555
C2 B1 1_555 1_555
F1 C2 1_555 1_555
F2 C2 1_555 1_555
C3 C2 1_555 1_555
F3 C3 1_555 1_555
F4 C3 1_555 1_555
F5 C3 1_555 1_555
C4 B1 1_555 1_555
F6 K1 1_555 1_555
F7 K2 1_555 1_555
C5 C4 1_555 1_555
F8 C5 1_555 1_555
F9 C5 1_555 1_555
F10 C5 1_555 1_555
C6 B1 1_555 1_555
F11 K1 1_555 1_555
F12 K2 1_555 1_555
C7 C6 1_555 1_555
F13 C7 1_555 1_555
F14 C7 1_555 1_555
F15 C7 1_555 1_555
B2 C8 1_555 1_555
C8 O3 1_555 1_555
O3 H2 1_555 1_555
O4 C8 1_555 1_555
C9 B2 1_555 1_555
F16 C9 1_555 1_555
F17 C9 1_555 1_555
C10 C9 1_555 1_555
F18 C10 1_555 1_555
F19 C10 1_555 1_555
F20 C10 1_555 1_555
C11 B2 1_555 1_555
F21 C11 1_555 1_555
F22 C11 1_555 1_555
C12 C11 1_555 1_555
F23 K1 1_555 1_555
F24 C12 1_555 1_555
F25 C12 1_555 1_555
C13 B2 1_555 1_555
F26 K1 1_555 1_555
F27 C13 1_555 1_555
C14 C13 1_555 1_555
F28 C14 1_555 1_555
F29 C14 1_555 1_555
F30 C14 1_555 1_555
O5 K1 1_555 1_555
H3 O5 1_555 1_555
H4 O5 1_555 1_555
O6 K2 1_555 1_555
H5 O6 1_555 1_555
H6 O6 1_555 1_555
K1_2 F1 1_555 1_555
K1B O5 1_555 1_555
K2A O3 1_555 1_555
K2A_2 O4 1_555 1_555
K2B O6 1_555 1_555
F1_2 K1 1_555 1_555
O3A K2 1_555 1_555
H2A O3A 1_555 1_555
O4A K2 1_555 1_555
F16A K2 1_555 1_555
F21A K2 1_555 1_555
O5B K1 1_555 1_555
H3B O5B 1_555 1_555
H4B O5B 1_555 1_555
O6B K2 1_555 1_555
H5B O6B 1_555 1_555
H6B O6B 1_555 1_555
C4 F6 1_555 1_555
C4 F7 1_555 1_555
C6 F11 1_555 1_555
C6 F12 1_555 1_555
F16 K2A 1_555 1_555
F21 K2A_2 1_555 1_555
C12 F23 1_555 1_555
C13 F26 1_555 1_555
K1B O5B 1_555 1_555
K2B O6B 1_555 1_555

#END
