
#######################################################################
#
#                 Cambridge Crystallographic Data Centre
#                                CCDC 
#
#######################################################################
#
# If this CIF has been generated from an entry in the Cambridge 
# Structural Database, then it will include bibliographic, chemical, 
# crystal, experimental, refinement or atomic coordinate data resulting 
# from the CCDC's data processing and validation procedures.
#
#######################################################################

data_MUXHIW01
_symmetry_cell_setting           monoclinic
_symmetry_space_group_name_H-M   'P 21/n'
_symmetry_Int_Tables_number      14
_space_group_name_Hall           '-P 2yn'
loop_
_symmetry_equiv_pos_site_id
_symmetry_equiv_pos_as_xyz
1 x,y,z
2 1/2-x,1/2+y,1/2-z
3 -x,-y,-z
4 1/2+x,1/2-y,1/2+z
_cell_length_a                   7.7648(2)
_cell_length_b                   9.9827(2)
_cell_length_c                   15.1515(4)
_cell_angle_alpha                90
_cell_angle_beta                 98.5910(10)
_cell_angle_gamma                90
_cell_volume                     1161.27
loop_
_atom_site_label
_atom_site_type_symbol
_atom_site_fract_x
_atom_site_fract_y
_atom_site_fract_z
La1 La 0.141411(13) 0.456729(10) 0.359315(6)
O1 O 0.0820(2) 0.66799(15) 0.42835(10)
O2 O 0.0298(2) 0.69880(16) 0.56673(10)
O3 O 0.3049(2) 1.07534(16) 0.27464(9)
O4 O 0.33727(18) 1.26055(13) 0.35559(9)
O5 O 0.44698(19) 0.55326(15) 0.38942(10)
C1 C 0.3098(2) 1.1360(2) 0.34664(12)
O6 O 0.70175(18) 0.55927(14) 0.47939(9)
O7 O -0.1754(2) 0.53387(16) 0.31120(11)
H1 H -0.239(3) 0.469(2) 0.2879(15)
H2 H -0.207(3) 0.565(2) 0.3582(12)
O8 O 0.0050(2) 0.30764(16) 0.22743(10)
H3 H -0.066(3) 0.347(2) 0.1875(14)
H4 H 0.040(3) 0.2325(16) 0.2125(16)
N1 N 0.3067(3) 1.05421(17) 0.58790(12)
C2 C 0.0891(2) 0.73508(19) 0.49852(13)
C3 C 0.1755(2) 0.86999(19) 0.50071(12)
C4 C 0.2265(3) 0.9347(2) 0.58145(13)
H7 H 0.2041 0.8934 0.6335
C5 C 0.3290(3) 1.1143(2) 0.51163(13)
H8 H 0.3807 1.1986 0.5151
C6 C 0.2801(2) 1.05903(18) 0.42777(12)
C7 C 0.2055(3) 0.9325(2) 0.42259(13)
H9 H 0.1760 0.8902 0.3677
C8 C 0.5429(3) 0.53214(18) 0.46178(12)
La1B La -0.141411(13) 0.543271(10) 0.640685(6)
La1A La 0.358589(13) 0.956729(10) 0.140685(6)
La1_2 La 0.141411(13) 1.456729(10) 0.359315(6)
La1B_2 La 0.858589(13) 0.543271(10) 0.640685(6)
La1C La 0.641411(13) 0.043271(10) 0.859315(6)
La1C_2 La 0.641411(13) 1.043271(10) 0.859315(6)
La1A_2 La 0.358589(13) 0.956729(10) 1.140685(6)
O1B O 0.9180(2) 0.33201(15) 0.57165(10)
O1C O 0.5820(2) 0.83201(15) 0.92835(10)
O2B O -0.0298(2) 0.30120(16) 0.43327(10)
O2_2 O 1.0298(2) 0.69880(16) 0.56673(10)
O2C O 0.5298(2) 0.80120(16) 1.06673(10)
O3A O 0.1951(2) 0.57534(16) 0.22536(9)
O3C O 0.8049(2) 0.42466(16) 0.77464(9)
O4_2 O 0.33727(18) 0.26055(13) 0.35559(9)
O4B O 0.66273(18) 0.73945(13) 0.64441(9)
O4C O 0.83727(18) 0.23945(13) 0.85559(9)
O5B O 0.55302(19) 0.44674(15) 0.61058(10)
C1C C 0.8098(2) 0.3640(2) 0.84664(12)
O6B O 0.29825(18) 0.44073(14) 0.52061(9)
O7B O 1.1754(2) 0.46613(16) 0.68880(11)
H1B H 1.239(3) 0.531(2) 0.7121(15)
H2B H 1.207(3) 0.435(2) 0.6418(12)
O8B O 0.9950(2) 0.69236(16) 0.77257(10)
H3B H 1.066(3) 0.653(2) 0.8125(14)
H4B H 0.960(3) 0.7675(16) 0.7875(16)
N1C N 0.8067(3) 0.44579(17) 1.08790(12)
C2C C 0.5891(2) 0.76492(19) 0.99852(13)
C3C C 0.6755(2) 0.63001(19) 1.00071(12)
C4C C 0.7265(3) 0.5653(2) 1.08145(13)
H7C H 0.7041 0.6066 1.1335
C5C C 0.8290(3) 0.3857(2) 1.01163(13)
H8C H 0.8807 0.3014 1.0151
C6C C 0.7801(2) 0.44097(18) 0.92777(12)
C7C C 0.7055(3) 0.5675(2) 0.92259(13)
H9C H 0.6760 0.6098 0.8677
C8B C 0.4571(3) 0.46786(18) 0.53822(12)
O9 O 0.6004(2) 0.3346(2) 0.25184(13)
H5 H 0.520(3) 0.315(3) 0.2808(19)
H6 H 0.639(4) 0.272(2) 0.224(2)
loop_
_geom_bond_atom_site_label_1
_geom_bond_atom_site_label_2
_geom_bond_site_symmetry_1
_geom_bond_site_symmetry_2
La1 O1 1_555 1_555
O1 C2 1_555 1_555
O2 C2 1_555 1_555
O3 C1 1_555 1_555
O4 C1 1_555 1_555
O5 La1 1_555 1_555
C1 C6 1_555 1_555
O6 C8 1_555 1_555
O7 La1 1_555 1_555
H1 O7 1_555 1_555
H2 O7 1_555 1_555
O8 La1 1_555 1_555
H3 O8 1_555 1_555
H4 O8 1_555 1_555
O9 H5 1_555 1_555
H6 O9 1_555 1_555
N1 C4 1_555 1_555
C2 C3 1_555 1_555
C3 C4 1_555 1_555
C4 H7 1_555 1_555
C5 N1 1_555 1_555
H8 C5 1_555 1_555
C6 C5 1_555 1_555
C7 C3 1_555 1_555
H9 C7 1_555 1_555
C8 O5 1_555 1_555
La1B O2 1_555 1_555
La1A O3 1_555 1_555
La1_2 O4 1_555 1_555
La1B_2 O6 1_555 1_555
La1C O4C 1_555 1_555
La1C_2 O1C 1_555 1_555
La1A_2 O2C 1_555 1_555
O1B La1B_2 1_555 1_555
O1C C2C 1_555 1_555
O2B La1 1_555 1_555
O2_2 La1B_2 1_555 1_555
O2C C2C 1_555 1_555
O3A La1 1_555 1_555
O3C La1B_2 1_555 1_555
O4_2 La1 1_555 1_555
O4B La1B_2 1_555 1_555
O4C C1C 1_555 1_555
O5B La1B_2 1_555 1_555
C1C O3C 1_555 1_555
O6B La1 1_555 1_555
O7B La1B_2 1_555 1_555
H1B O7B 1_555 1_555
H2B O7B 1_555 1_555
O8B La1B_2 1_555 1_555
H3B O8B 1_555 1_555
H4B O8B 1_555 1_555
N1C C4C 1_555 1_555
C2C C3C 1_555 1_555
C3C C4C 1_555 1_555
C4C H7C 1_555 1_555
C5C N1C 1_555 1_555
H8C C5C 1_555 1_555
C6C C1C 1_555 1_555
C7C C3C 1_555 1_555
H9C C7C 1_555 1_555
C8B C8 1_555 1_555
C6 C7 1_555 1_555
O5B C8B 1_555 1_555
O6B C8B 1_555 1_555
C5C C6C 1_555 1_555
C6C C7C 1_555 1_555

#END
