
#######################################################################
#
#                 Cambridge Crystallographic Data Centre
#                                CCDC 
#
#######################################################################
#
# If this CIF has been generated from an entry in the Cambridge 
# Structural Database, then it will include bibliographic, chemical, 
# crystal, experimental, refinement or atomic coordinate data resulting 
# from the CCDC's data processing and validation procedures.
#
#######################################################################

data_MUXHUI02
_symmetry_cell_setting           monoclinic
_symmetry_space_group_name_H-M   'P 21/c'
_symmetry_Int_Tables_number      14
_space_group_name_Hall           '-P 2ybc'
loop_
_symmetry_equiv_pos_site_id
_symmetry_equiv_pos_as_xyz
1 x,y,z
2 -x,1/2+y,1/2-z
3 -x,-y,-z
4 x,1/2-y,1/2+z
_cell_length_a                   7.7022(5)
_cell_length_b                   9.9152(7)
_cell_length_c                   15.8202(9)
_cell_angle_alpha                90
_cell_angle_beta                 110.305(3)
_cell_angle_gamma                90
_cell_volume                     1133.09
loop_
_atom_site_label
_atom_site_type_symbol
_atom_site_fract_x
_atom_site_fract_y
_atom_site_fract_z
Nd1 Nd 0.78478(3) 0.043907(19) 0.639976(13)
O1 O 0.5216(4) -0.0322(3) 0.68843(18)
H1 H 0.4461 -0.0701 0.6430
H2 H 0.4731 0.0338 0.7050
O2 O 0.7804(4) 0.1890(3) 0.77017(18)
H3 H 0.7559 0.1478 0.8110
H4 H 0.8149 0.2678 0.7870
O3 O 1.0604(4) -0.0514(3) 0.61264(17)
O4 O 1.2232(3) -0.0609(3) 0.52051(17)
O5 O 0.9810(4) 0.2372(3) 0.64538(17)
O6 O 1.0323(4) 0.4232(3) 0.72825(18)
O7 O 0.6573(4) 0.8375(3) 0.57152(19)
O8 O 0.4584(4) 0.8045(3) 0.43270(18)
N1 N 0.7182(5) 0.4459(3) 0.4112(2)
C1 C 0.9637(5) 0.3632(4) 0.6551(2)
C2 C 0.8529(5) 0.4410(4) 0.5730(2)
C3 C 0.8174(5) 0.3857(4) 0.4881(3)
H5 H 0.8662 0.3010 0.4846
C4 C 0.6446(5) 0.5673(4) 0.4178(3)
H6 H 0.5709 0.6097 0.3652
C5 C 0.7824(5) 0.5694(4) 0.5782(2)
H7 H 0.8079 0.6123 0.6335
C6 C 0.6734(5) 0.6315(4) 0.4988(2)
C7 C 0.5905(5) 0.7686(4) 0.5016(3)
C8 C 1.0821(5) -0.0318(4) 0.5387(2)
O3B O 0.9396(4) 0.0514(3) 0.38736(17)
C8B C 0.9179(5) 0.0318(4) 0.4613(2)
O4B O 0.7768(3) 0.0609(3) 0.47949(17)
Nd1B Nd 0.21522(3) 0.956093(19) 0.360024(13)
O1B O 0.4784(4) 1.0322(3) 0.31157(18)
H1B H 0.5539 1.0701 0.3570
H2B H 0.5269 0.9662 0.2950
O2B O 0.2196(4) 0.8110(3) 0.22983(18)
H3B H 0.2441 0.8522 0.1890
H4B H 0.1851 0.7322 0.2130
O5B O 0.0190(4) 0.7628(3) 0.35462(17)
O6B O -0.0323(4) 0.5768(3) 0.27175(18)
O7B O 0.3427(4) 0.1625(3) 0.42848(19)
O8B O 0.5416(4) 0.1955(3) 0.56730(18)
N1B N 0.2818(5) 0.5541(3) 0.5888(2)
C1B C 0.0363(5) 0.6368(4) 0.3449(2)
C2B C 0.1471(5) 0.5590(4) 0.4270(2)
C3B C 0.1826(5) 0.6143(4) 0.5119(3)
H5B H 0.1338 0.6990 0.5154
C4B C 0.3554(5) 0.4327(4) 0.5822(3)
H6B H 0.4291 0.3903 0.6348
C5B C 0.2176(5) 0.4306(4) 0.4218(2)
H7B H 0.1921 0.3877 0.3665
C6B C 0.3266(5) 0.3685(4) 0.5012(2)
C7B C 0.4095(5) 0.2314(4) 0.4984(3)
Nd1_2 Nd 0.78478(3) 1.043907(19) 0.639976(13)
Nd1A Nd 1.21522(3) 0.543907(19) 0.860024(13)
Nd1B_2 Nd 0.21522(3) -0.043907(19) 0.360024(13)
Nd1B_3 Nd 1.21522(3) -0.043907(19) 0.360024(13)
Nd1C Nd -0.21522(3) 0.456093(19) 0.139976(13)
O3B_2 O -0.0604(4) 1.0514(3) 0.38736(17)
O4_2 O 0.2232(3) 0.9391(3) 0.52051(17)
O6A O 0.9677(4) -0.0768(3) 0.77175(18)
O6C O 0.0323(4) 1.0768(3) 0.22825(18)
O7_2 O 0.6573(4) -0.1625(3) 0.57152(19)
O7B_2 O 0.3427(4) 1.1625(3) 0.42848(19)
O9 O 0.3540(4) 0.1661(3) 0.7484(2)
H8 H 0.4028 0.2417 0.7639
H9 H 0.2418 0.1737 0.7189
loop_
_geom_bond_atom_site_label_1
_geom_bond_atom_site_label_2
_geom_bond_site_symmetry_1
_geom_bond_site_symmetry_2
Nd1 O1 1_555 1_555
O1 H1 1_555 1_555
H2 O1 1_555 1_555
O2 Nd1 1_555 1_555
H3 O2 1_555 1_555
H4 O2 1_555 1_555
O3 Nd1 1_555 1_555
O4 C8 1_555 1_555
O5 Nd1 1_555 1_555
O6 C1 1_555 1_555
O7 C7 1_555 1_555
O8 C7 1_555 1_555
N1 C3 1_555 1_555
C1 O5 1_555 1_555
C2 C1 1_555 1_555
C3 C2 1_555 1_555
H5 C3 1_555 1_555
C4 N1 1_555 1_555
H6 C4 1_555 1_555
C5 C2 1_555 1_555
H7 C5 1_555 1_555
C6 C4 1_555 1_555
C7 C6 1_555 1_555
C8 O3 1_555 1_555
O9 H8 1_555 1_555
H9 O9 1_555 1_555
O3B C8B 1_555 1_555
C8B C8 1_555 1_555
O4B Nd1 1_555 1_555
Nd1B O8 1_555 1_555
O1B Nd1B 1_555 1_555
H1B O1B 1_555 1_555
H2B O1B 1_555 1_555
O2B Nd1B 1_555 1_555
H3B O2B 1_555 1_555
H4B O2B 1_555 1_555
O5B Nd1B 1_555 1_555
O6B C1B 1_555 1_555
O7B C7B 1_555 1_555
O8B Nd1 1_555 1_555
N1B C3B 1_555 1_555
C1B O5B 1_555 1_555
C2B C1B 1_555 1_555
C3B C2B 1_555 1_555
H5B C3B 1_555 1_555
C4B N1B 1_555 1_555
H6B C4B 1_555 1_555
C5B C2B 1_555 1_555
H7B C5B 1_555 1_555
C6B C4B 1_555 1_555
C7B O8B 1_555 1_555
Nd1_2 O7 1_555 1_555
Nd1A O6 1_555 1_555
Nd1B_2 O7B 1_555 1_555
Nd1B_3 O4 1_555 1_555
Nd1C O6B 1_555 1_555
O3B_2 Nd1B 1_555 1_555
O4_2 Nd1B 1_555 1_555
O6A Nd1 1_555 1_555
O6C Nd1B 1_555 1_555
O7_2 Nd1 1_555 1_555
O7B_2 Nd1B 1_555 1_555
C5 C6 1_555 1_555
O3B Nd1B_3 1_555 1_555
C8B O4B 1_555 1_555
C5B C6B 1_555 1_555
C6B C7B 1_555 1_555

#END
