
#######################################################################
#
#                 Cambridge Crystallographic Data Centre
#                                CCDC 
#
#######################################################################
#
# If this CIF has been generated from an entry in the Cambridge 
# Structural Database, then it will include bibliographic, chemical, 
# crystal, experimental, refinement or atomic coordinate data resulting 
# from the CCDC's data processing and validation procedures.
#
#######################################################################

data_MUXJAQ02
_symmetry_cell_setting           monoclinic
_symmetry_space_group_name_H-M   'P 21/n'
_symmetry_Int_Tables_number      14
_space_group_name_Hall           '-P 2yn'
loop_
_symmetry_equiv_pos_site_id
_symmetry_equiv_pos_as_xyz
1 x,y,z
2 1/2-x,1/2+y,1/2-z
3 -x,-y,-z
4 1/2+x,1/2-y,1/2+z
_cell_length_a                   7.6799(3)
_cell_length_b                   9.8742(5)
_cell_length_c                   14.8930(6)
_cell_angle_alpha                90
_cell_angle_beta                 98.364(2)
_cell_angle_gamma                90
_cell_volume                     1117.37
loop_
_atom_site_label
_atom_site_type_symbol
_atom_site_fract_x
_atom_site_fract_y
_atom_site_fract_z
Eu1 Eu 0.14659(2) 0.455525(18) 0.860440(12)
O1 O 0.1950(4) 0.5762(3) 0.7298(2)
O2 O 0.1652(4) 0.7632(3) 0.64614(18)
O3 O 0.4124(4) 0.1603(3) 0.5715(2)
O4 O 0.4766(4) 0.1947(3) 0.4324(2)
O5 O 0.4469(4) 0.5496(3) 0.8868(2)
O6 O 0.7029(4) 0.5620(3) 0.97933(19)
O7 O 0.0115(4) 0.3116(3) 0.7307(2)
H1 H -0.062(5) 0.353(4) 0.693(3)
H2 H 0.045(6) 0.236(3) 0.713(3)
O8 O -0.1624(4) 0.5311(3) 0.8116(2)
H3 H -0.194(6) 0.567(4) 0.858(2)
H4 H -0.224(6) 0.466(4) 0.789(3)
N1 N 0.1929(5) 0.5534(3) 0.4106(2)
C1 C 0.1917(4) 0.6368(4) 0.6561(3)
C2 C 0.2201(5) 0.5583(4) 0.5734(3)
C3 C 0.1696(5) 0.6136(4) 0.4881(3)
H7 H 0.1160 0.6983 0.4847
C4 C 0.2748(6) 0.4323(4) 0.4172(3)
H8 H 0.2983 0.3908 0.3642
C5 C 0.3255(5) 0.3666(4) 0.4987(3)
C6 C 0.4112(5) 0.2302(4) 0.5008(3)
C7 C 0.2963(5) 0.4304(4) 0.5788(3)
H9 H 0.3273 0.3882 0.6347
C8 C 0.5436(5) 0.5313(4) 0.9609(3)
Eu1A Eu 0.35341(2) 0.955525(18) 0.639560(12)
Eu1A_2 Eu 0.35341(2) -0.044475(18) 0.639560(12)
Eu1C Eu 0.64659(2) 0.044475(18) 0.360440(12)
Eu1B Eu 0.85341(2) 0.544475(18) 1.139560(12)
Eu1C_2 Eu 0.64659(2) 0.044475(18) 1.360440(12)
Eu1C_3 Eu 0.64659(2) 1.044475(18) 1.360440(12)
Eu1A_3 Eu 0.35341(2) 0.955525(18) 1.639560(12)
O1B O 0.8050(4) 0.4238(3) 1.2702(2)
O2A O 0.3348(4) 0.2632(3) 0.85386(18)
O2C O 0.6652(4) 0.7368(3) 1.14614(18)
O2B O 0.8348(4) 0.2368(3) 1.35386(18)
O3A O 0.0876(4) 0.6603(3) 0.9285(2)
O3C O 0.9124(4) 0.3397(3) 1.0715(2)
O3B O 0.5876(4) 0.8397(3) 1.4285(2)
O4C O -0.0234(4) 0.3053(3) 0.9324(2)
O4A O 1.0234(4) 0.6947(3) 1.0676(2)
O4B O 0.5234(4) 0.8053(3) 1.5676(2)
O5B O 0.5531(4) 0.4504(3) 1.1132(2)
O6B O 0.2971(4) 0.4380(3) 1.02067(19)
O7B O 0.9885(4) 0.6884(3) 1.2693(2)
H1B H 1.062(5) 0.647(4) 1.307(3)
H2B H 0.955(6) 0.764(3) 1.287(3)
O8B O 1.1624(4) 0.4689(3) 1.1884(2)
H3B H 1.194(6) 0.433(4) 1.142(2)
H4B H 1.224(6) 0.534(4) 1.211(3)
N1B N 0.8071(5) 0.4466(3) 1.5894(2)
C1B C 0.8083(4) 0.3632(4) 1.3439(3)
C2B C 0.7799(5) 0.4417(4) 1.4266(3)
C3B C 0.8304(5) 0.3864(4) 1.5119(3)
H7B H 0.8840 0.3017 1.5153
C4B C 0.7252(6) 0.5677(4) 1.5828(3)
H8B H 0.7017 0.6092 1.6358
C5B C 0.6745(5) 0.6334(4) 1.5013(3)
C6B C 0.5888(5) 0.7698(4) 1.4992(3)
C7B C 0.7037(5) 0.5696(4) 1.4212(3)
H9B H 0.6727 0.6118 1.3653
C8B C 0.4564(5) 0.4687(4) 1.0391(3)
O9 O 0.6068(5) 0.3320(4) 0.7520(3)
H5 H 0.638(7) 0.264(4) 0.725(4)
H6 H 0.520(6) 0.321(5) 0.780(4)
loop_
_geom_bond_atom_site_label_1
_geom_bond_atom_site_label_2
_geom_bond_site_symmetry_1
_geom_bond_site_symmetry_2
Eu1 O1 1_555 1_555
O1 C1 1_555 1_555
O2 C1 1_555 1_555
O3 C6 1_555 1_555
O4 C6 1_555 1_555
O5 Eu1 1_555 1_555
O6 C8 1_555 1_555
O7 Eu1 1_555 1_555
H1 O7 1_555 1_555
H2 O7 1_555 1_555
O8 Eu1 1_555 1_555
H3 O8 1_555 1_555
H4 O8 1_555 1_555
O9 H5 1_555 1_555
H6 O9 1_555 1_555
N1 C3 1_555 1_555
C1 C2 1_555 1_555
C2 C3 1_555 1_555
C3 H7 1_555 1_555
C4 N1 1_555 1_555
H8 C4 1_555 1_555
C5 C4 1_555 1_555
C6 C5 1_555 1_555
C7 C2 1_555 1_555
H9 C7 1_555 1_555
C8 O5 1_555 1_555
Eu1A O2 1_555 1_555
Eu1A_2 O3 1_555 1_555
Eu1C O4 1_555 1_555
Eu1B O6 1_555 1_555
Eu1C_2 O2B 1_555 1_555
Eu1C_3 O3B 1_555 1_555
Eu1A_3 O4B 1_555 1_555
O1B Eu1B 1_555 1_555
O2A Eu1 1_555 1_555
O2C Eu1B 1_555 1_555
O2B C1B 1_555 1_555
O3A Eu1 1_555 1_555
O3C Eu1B 1_555 1_555
O3B C6B 1_555 1_555
O4C Eu1 1_555 1_555
O4A Eu1B 1_555 1_555
O4B C6B 1_555 1_555
O5B Eu1B 1_555 1_555
O6B Eu1 1_555 1_555
O7B Eu1B 1_555 1_555
H1B O7B 1_555 1_555
H2B O7B 1_555 1_555
O8B Eu1B 1_555 1_555
H3B O8B 1_555 1_555
H4B O8B 1_555 1_555
N1B C3B 1_555 1_555
C1B O1B 1_555 1_555
C2B C1B 1_555 1_555
C3B C2B 1_555 1_555
H7B C3B 1_555 1_555
C4B N1B 1_555 1_555
H8B C4B 1_555 1_555
C5B C4B 1_555 1_555
C6B C5B 1_555 1_555
C7B C2B 1_555 1_555
H9B C7B 1_555 1_555
C8B C8 1_555 1_555
C5 C7 1_555 1_555
O5B C8B 1_555 1_555
O6B C8B 1_555 1_555
C5B C7B 1_555 1_555

#END
