
#######################################################################
#
#                 Cambridge Crystallographic Data Centre
#                                CCDC 
#
#######################################################################
#
# If this CIF has been generated from an entry in the Cambridge 
# Structural Database, then it will include bibliographic, chemical, 
# crystal, experimental, refinement or atomic coordinate data resulting 
# from the CCDC's data processing and validation procedures.
#
#######################################################################

data_MUXJAQ01
_symmetry_cell_setting           monoclinic
_symmetry_space_group_name_H-M   'P 21/n'
_symmetry_Int_Tables_number      14
_space_group_name_Hall           '-P 2yn'
loop_
_symmetry_equiv_pos_site_id
_symmetry_equiv_pos_as_xyz
1 x,y,z
2 1/2-x,1/2+y,1/2-z
3 -x,-y,-z
4 1/2+x,1/2-y,1/2+z
_cell_length_a                   7.6506(5)
_cell_length_b                   9.8596(8)
_cell_length_c                   14.8519(9)
_cell_angle_alpha                90
_cell_angle_beta                 98.389(5)
_cell_angle_gamma                90
_cell_volume                     1108.32
loop_
_atom_site_label
_atom_site_type_symbol
_atom_site_fract_x
_atom_site_fract_y
_atom_site_fract_z
Eu1 Eu 0.147301(19) 0.544509(15) 0.360457(9)
O1 O 0.1958(4) 0.4227(3) 0.23019(16)
O2 O 0.1660(3) 0.2360(2) 0.14647(14)
O3 O 0.4105(3) 0.8410(2) 0.07107(16)
O4 O 0.4776(3) 0.8061(3) -0.06779(15)
O5 O 0.4471(4) 0.4510(2) 0.38643(19)
O6 O 0.7036(3) 0.4380(2) 0.47958(16)
O7 O 0.0124(4) 0.6872(3) 0.23158(17)
O8 O -0.1602(4) 0.4690(3) 0.3112(2)
N1 N 0.1925(4) 0.4470(3) -0.0899(2)
C1 C 0.1693(4) 0.3863(3) -0.0125(2)
H1 H 0.1154 0.3015 -0.0160
C2 C 0.2209(4) 0.4418(3) 0.0737(2)
C3 C 0.2959(4) 0.5698(3) 0.0788(2)
H2 H 0.3258 0.6125 0.1348
C4 C 0.3259(4) 0.6332(3) -0.0008(2)
C5 C 0.2738(5) 0.5684(4) -0.0836(2)
H3 H 0.2961 0.6107 -0.1367
C6 C 0.1924(4) 0.3630(3) 0.1559(2)
C7 C 0.4120(4) 0.7705(3) 0.0007(2)
C8 C 0.5434(5) 0.4686(3) 0.4612(2)
H4 H -0.061(6) 0.644(4) 0.179(3)
H5 H 0.036(7) 0.744(5) 0.216(3)
H6 H -0.235(7) 0.526(5) 0.289(4)
H7 H -0.204(7) 0.444(4) 0.353(4)
Eu1A Eu 0.352699(19) 1.044509(15) 0.139543(9)
Eu1A_2 Eu 0.352699(19) 0.044509(15) 0.139543(9)
Eu1C Eu 0.647301(19) 0.955491(15) -0.139543(9)
Eu1B Eu 0.852699(19) 0.455491(15) 0.639543(9)
Eu1_2 Eu 0.147301(19) 1.544509(15) 0.360457(9)
Eu1B_2 Eu -0.147301(19) 1.455491(15) 0.639543(9)
O1A O 0.3042(4) 0.9227(3) 0.26981(16)
O2A O 0.3340(3) 0.7360(2) 0.35353(14)
O2_2 O 0.1660(3) 1.2360(2) 0.14647(14)
O3A O 0.0895(3) 1.3410(2) 0.42893(16)
O3A_2 O 0.0895(3) 0.3410(2) 0.42893(16)
O4A O 0.0224(3) 1.3061(3) 0.56779(15)
O4C O -0.0224(3) 0.6939(3) 0.43221(15)
O4B O 0.5224(3) 1.1939(3) 0.06779(15)
O5B O 0.5529(4) 0.5490(2) 0.61357(19)
O5A O 0.0529(4) 0.9510(2) 0.11357(19)
O6B O 0.2964(3) 0.5620(2) 0.52042(16)
O6C O 0.2036(3) 1.0620(2) -0.02042(16)
O7A O 0.4876(4) 1.1872(3) 0.26842(17)
O8A O 0.6602(4) 0.9690(3) 0.1888(2)
N1A N 0.3075(4) 0.9470(3) 0.5899(2)
C1A C 0.3307(4) 0.8863(3) 0.5125(2)
H1A H 0.3846 0.8015 0.5160
C2A C 0.2791(4) 0.9418(3) 0.4263(2)
C3A C 0.2041(4) 1.0698(3) 0.4212(2)
H2A H 0.1742 1.1125 0.3652
C4A C 0.1741(4) 1.1332(3) 0.5008(2)
C5A C 0.2262(5) 1.0684(4) 0.5836(2)
H3A H 0.2039 1.1107 0.6367
C6A C 0.3076(4) 0.8630(3) 0.3441(2)
C7A C 0.0880(4) 1.2705(3) 0.4993(2)
C8B C 0.4566(5) 0.5314(3) 0.5388(2)
H4A H 0.561(6) 1.144(4) 0.321(3)
H5A H 0.464(7) 1.244(5) 0.284(3)
H6A H 0.735(7) 1.026(5) 0.211(4)
H7A H 0.704(7) 0.944(4) 0.147(4)
O9 O 0.6074(5) 0.6672(4) 0.2518(2)
H8 H 0.649(10) 0.724(8) 0.228(5)
H9 H 0.532(13) 0.697(10) 0.282(6)
loop_
_geom_bond_atom_site_label_1
_geom_bond_atom_site_label_2
_geom_bond_site_symmetry_1
_geom_bond_site_symmetry_2
Eu1 O1 1_555 1_555
O1 C6 1_555 1_555
O2 C6 1_555 1_555
O3 C7 1_555 1_555
O4 C7 1_555 1_555
O5 Eu1 1_555 1_555
O6 C8 1_555 1_555
O7 Eu1 1_555 1_555
O8 Eu1 1_555 1_555
N1 C1 1_555 1_555
C1 H1 1_555 1_555
C2 C1 1_555 1_555
C3 C2 1_555 1_555
H2 C3 1_555 1_555
C4 C3 1_555 1_555
C5 N1 1_555 1_555
H3 C5 1_555 1_555
C6 C2 1_555 1_555
C7 C4 1_555 1_555
C8 O5 1_555 1_555
H4 O7 1_555 1_555
H5 O7 1_555 1_555
H6 O8 1_555 1_555
H7 O8 1_555 1_555
O9 H8 1_555 1_555
H9 O9 1_555 1_555
Eu1A O3 1_555 1_555
Eu1A_2 O2 1_555 1_555
Eu1C O4 1_555 1_555
Eu1B O6 1_555 1_555
Eu1_2 O3A 1_555 1_555
Eu1B_2 O4A 1_555 1_555
O1A Eu1A 1_555 1_555
O2A Eu1 1_555 1_555
O2_2 Eu1A 1_555 1_555
O3A C7A 1_555 1_555
O3A_2 Eu1 1_555 1_555
O4A C7A 1_555 1_555
O4C Eu1 1_555 1_555
O4B Eu1A 1_555 1_555
O5B Eu1B 1_555 1_555
O5A Eu1A 1_555 1_555
O6B Eu1 1_555 1_555
O6C Eu1A 1_555 1_555
O7A Eu1A 1_555 1_555
O8A Eu1A 1_555 1_555
N1A C1A 1_555 1_555
C1A H1A 1_555 1_555
C2A C1A 1_555 1_555
C3A C2A 1_555 1_555
H2A C3A 1_555 1_555
C4A C3A 1_555 1_555
C5A N1A 1_555 1_555
H3A C5A 1_555 1_555
C6A O1A 1_555 1_555
C7A C4A 1_555 1_555
C8B C8 1_555 1_555
H4A O7A 1_555 1_555
H5A O7A 1_555 1_555
H6A O8A 1_555 1_555
H7A O8A 1_555 1_555
C4 C5 1_555 1_555
O2A C6A 1_555 1_555
O5B C8B 1_555 1_555
O6B C8B 1_555 1_555
C2A C6A 1_555 1_555
C4A C5A 1_555 1_555

#END
