
#######################################################################
#
#                 Cambridge Crystallographic Data Centre
#                                CCDC 
#
#######################################################################
#
# If this CIF has been generated from an entry in the Cambridge 
# Structural Database, then it will include bibliographic, chemical, 
# crystal, experimental, refinement or atomic coordinate data resulting 
# from the CCDC's data processing and validation procedures.
#
#######################################################################

data_MUXNUO
_symmetry_cell_setting           monoclinic
_symmetry_space_group_name_H-M   'P 21/a'
_symmetry_Int_Tables_number      14
_space_group_name_Hall           '-P 2yab'
loop_
_symmetry_equiv_pos_site_id
_symmetry_equiv_pos_as_xyz
1 x,y,z
2 1/2-x,1/2+y,-z
3 -x,-y,-z
4 1/2+x,1/2-y,z
_cell_length_a                   7.8640(10)
_cell_length_b                   12.723(5)
_cell_length_c                   10.460(2)
_cell_angle_alpha                90
_cell_angle_beta                 109.630(10)
_cell_angle_gamma                90
_cell_volume                     985.737
loop_
_atom_site_label
_atom_site_type_symbol
_atom_site_fract_x
_atom_site_fract_y
_atom_site_fract_z
S1 S 0.01837(18) 0.05756(11) 0.32086(13)
S2 S 0.47796(19) 0.26080(10) 0.73078(14)
S3 S 0.02754(18) 0.47236(12) 0.32354(13)
O1 O -0.6286(7) 0.0993(4) -0.0546(5)
O2 O -0.2846(8) 0.2723(4) 0.1017(5)
O3 O -0.1432(10) 0.0755(5) -0.0576(7)
Na1 Na -0.3184(3) 0.08522(18) 0.0841(2)
N1 N 0.2367(6) 0.1742(4) 0.5150(4)
N2 N 0.2374(6) 0.3510(4) 0.5173(4)
N3 N 0.0266(6) 0.2653(3) 0.3356(4)
C1 C 0.0963(7) 0.1738(4) 0.3937(5)
C2 C 0.3087(8) 0.2626(4) 0.5800(5)
C3 C 0.1003(7) 0.3559(5) 0.3958(5)
H1 H 0.284(10) 0.105(6) 0.552(7)
H2 H 0.274(7) 0.405(4) 0.555(6)
H3 H -0.684(10) 0.121(7) -0.035(8)
H4 H -0.631(10) 0.115(6) -0.127(8)
H5 H -0.199(13) 0.269(6) 0.186(10)
H6 H -0.336(14) 0.312(8) 0.111(10)
H7 H -0.171(8) -0.009(6) -0.089(6)
H8 H -0.126(11) 0.109(6) -0.101(8)
Na1C Na 0.1816(3) 0.41478(18) 0.0841(2)
Na1B Na -0.6816(3) -0.08522(18) -0.0841(2)
S3C S -0.47246(18) 0.02764(12) 0.32354(13)
O1B O -0.3714(7) -0.0993(4) 0.0546(5)
H3B H -0.316(10) -0.121(7) 0.035(8)
H4B H -0.369(10) -0.115(6) 0.127(8)
loop_
_geom_bond_atom_site_label_1
_geom_bond_atom_site_label_2
_geom_bond_site_symmetry_1
_geom_bond_site_symmetry_2
S1 Na1 1_555 1_555
S2 C2 1_555 1_555
S3 C3 1_555 1_555
O1 Na1 1_555 1_555
O2 Na1 1_555 1_555
O3 Na1 1_555 1_555
Na1 S3C 1_555 1_555
N1 C1 1_555 1_555
N2 C2 1_555 1_555
N3 C1 1_555 1_555
C1 S1 1_555 1_555
C2 N1 1_555 1_555
C3 N2 1_555 1_555
H1 N1 1_555 1_555
H2 N2 1_555 1_555
H3 O1 1_555 1_555
H4 O1 1_555 1_555
H5 O2 1_555 1_555
H6 O2 1_555 1_555
H7 O3 1_555 1_555
H8 O3 1_555 1_555
Na1C S3 1_555 1_555
Na1B O1 1_555 1_555
O1B Na1 1_555 1_555
H3B O1B 1_555 1_555
H4B O1B 1_555 1_555
N3 C3 1_555 1_555
Na1B O1B 1_555 1_555

#END
