
#######################################################################
#
#                 Cambridge Crystallographic Data Centre
#                                CCDC 
#
#######################################################################
#
# If this CIF has been generated from an entry in the Cambridge 
# Structural Database, then it will include bibliographic, chemical, 
# crystal, experimental, refinement or atomic coordinate data resulting 
# from the CCDC's data processing and validation procedures.
#
#######################################################################

data_MUXNUO03
_symmetry_cell_setting           monoclinic
_symmetry_space_group_name_H-M   'P 21/c'
_symmetry_Int_Tables_number      14
_space_group_name_Hall           '-P 2ybc'
loop_
_symmetry_equiv_pos_site_id
_symmetry_equiv_pos_as_xyz
1 x,y,z
2 -x,1/2+y,1/2-z
3 -x,-y,-z
4 x,1/2-y,1/2+z
_cell_length_a                   10.4530(2)
_cell_length_b                   12.7369(2)
_cell_length_c                   7.86207(17)
_cell_angle_alpha                90
_cell_angle_beta                 109.644(2)
_cell_angle_gamma                90
_cell_volume                     985.826
loop_
_atom_site_label
_atom_site_type_symbol
_atom_site_fract_x
_atom_site_fract_y
_atom_site_fract_z
C1 C 0.39342(15) 0.67327(12) 0.0957(2)
C2 C 0.39540(15) 0.85554(12) 0.0992(2)
C3 C 0.58185(16) 0.76246(11) 0.3105(2)
N1 N 0.33585(14) 0.76519(10) 0.02546(18)
N2 N 0.51757(13) 0.85247(10) 0.23832(17)
H1 H 0.5553 0.9111 0.2819
N3 N 0.51446(13) 0.67407(10) 0.23692(17)
H2 H 0.5494 0.6147 0.2811
S1 S 0.32083(4) 0.55732(3) 0.01817(5)
S2 S 0.32341(4) 0.97253(3) 0.02756(5)
S3 S 0.73059(4) 0.76086(3) 0.47827(6)
H3 H 0.181(2) 0.774(2) -0.188(3)
H4 H 0.008(2) 0.362(2) -0.313(4)
H5 H 0.134(2) 0.364(2) -0.360(4)
H6 H -0.135(2) 0.613(2) -0.145(5)
H7 H -0.011(4) 0.551(3) -0.042(4)
H8 H 0.117(3) 0.819(2) -0.363(3)
O1 O 0.05455(13) 0.40020(10) -0.37063(18)
O2 O -0.0603(3) 0.57495(18) -0.1466(4)
O3 O 0.10150(14) 0.77289(11) -0.28434(19)
Na1 Na 0.08406(8) 0.58499(6) -0.31825(9)
S2C S 0.32341(4) 0.52747(3) -0.47244(5)
O1B O -0.05455(13) 0.59980(10) -0.62937(18)
Na1B Na -0.08406(8) 0.41501(6) -0.68175(9)
Na1C Na 0.08406(8) 0.91501(6) 0.18175(9)
loop_
_geom_bond_atom_site_label_1
_geom_bond_atom_site_label_2
_geom_bond_site_symmetry_1
_geom_bond_site_symmetry_2
C1 N1 1_555 1_555
C2 N1 1_555 1_555
C3 N2 1_555 1_555
N2 C2 1_555 1_555
H1 N2 1_555 1_555
N3 C1 1_555 1_555
H2 N3 1_555 1_555
S1 C1 1_555 1_555
S2 C2 1_555 1_555
S3 C3 1_555 1_555
H3 O3 1_555 1_555
H4 O1 1_555 1_555
H5 O1 1_555 1_555
H6 O2 1_555 1_555
H7 O2 1_555 1_555
H8 O3 1_555 1_555
O1 Na1 1_555 1_555
O2 Na1 1_555 1_555
O3 Na1 1_555 1_555
Na1 S1 1_555 1_555
S2C Na1 1_555 1_555
O1B Na1 1_555 1_555
Na1B O1 1_555 1_555
Na1C S2 1_555 1_555
C3 N3 1_555 1_555
O1B Na1B 1_555 1_555

#END
