
#######################################################################
#
#                 Cambridge Crystallographic Data Centre
#                                CCDC 
#
#######################################################################
#
# If this CIF has been generated from an entry in the Cambridge 
# Structural Database, then it will include bibliographic, chemical, 
# crystal, experimental, refinement or atomic coordinate data resulting 
# from the CCDC's data processing and validation procedures.
#
#######################################################################

data_MUXPAW
_symmetry_cell_setting           triclinic
_symmetry_space_group_name_H-M   'P -1'
_symmetry_Int_Tables_number      2
_space_group_name_Hall           '-P 1'
loop_
_symmetry_equiv_pos_site_id
_symmetry_equiv_pos_as_xyz
1 x,y,z
2 -x,-y,-z
_cell_length_a                   11.376(3)
_cell_length_b                   11.263(5)
_cell_length_c                   7.4640(10)
_cell_angle_alpha                103.68(2)
_cell_angle_beta                 93.07(2)
_cell_angle_gamma                108.41(3)
_cell_volume                     873.088
loop_
_atom_site_label
_atom_site_type_symbol
_atom_site_fract_x
_atom_site_fract_y
_atom_site_fract_z
K1 K 0.50000 1.00000 0.00000
K2 K 0.41958(11) 1.27985(12) 0.44265(16)
S1 S 0.22415(11) 0.95613(11) 0.17315(17)
S2 S -0.06896(11) 0.51613(11) 0.26947(17)
S3 S 0.38901(11) 0.56000(12) 0.12829(19)
S4 S 0.16083(11) 1.17667(11) -0.29918(17)
S5 S -0.14785(11) 0.73971(12) -0.20854(19)
S6 S 0.30478(11) 0.76763(11) -0.34703(17)
N1 N 0.0919(3) 0.7279(3) 0.2118(5)
N2 N 0.1654(3) 0.5589(4) 0.1989(5)
N3 N 0.3004(3) 0.7545(3) 0.1539(5)
N4 N 0.0191(3) 0.9508(3) -0.2561(5)
N5 N 0.0798(3) 0.7716(3) -0.2951(5)
N6 N 0.2237(3) 0.9676(3) -0.3177(5)
O1 O 0.5393(3) 0.9072(3) 0.3906(5)
O2 O 0.5768(3) 0.7805(3) -0.0500(5)
O3 O 0.3746(4) 1.4985(4) 0.6335(6)
C1 C 0.2065(4) 0.8030(4) 0.1791(6)
C2 C 0.0687(4) 0.6039(4) 0.2254(6)
C3 C 0.2792(4) 0.6312(4) 0.1624(6)
C4 C 0.1343(4) 1.0243(4) -0.2912(6)
C5 C -0.0105(4) 0.8242(4) -0.2553(6)
C6 C 0.1995(4) 0.8422(4) -0.3172(6)
S1A S 0.77585(11) 1.04387(11) -0.17315(17)
S2A S 1.06896(11) 1.48387(11) -0.26947(17)
S3A S 0.61099(11) 1.44000(12) -0.12829(19)
N1A N 0.9081(3) 1.2721(3) -0.2118(5)
N2A N 0.8346(3) 1.4411(4) -0.1989(5)
N3A N 0.6996(3) 1.2455(3) -0.1539(5)
C1A C 0.7935(4) 1.1970(4) -0.1791(6)
C2A C 0.9313(4) 1.3961(4) -0.2254(6)
C3A C 0.7208(4) 1.3688(4) -0.1624(6)
S4A S 0.83917(11) 0.82333(11) 0.29918(17)
S5A S 1.14785(11) 1.26029(12) 0.20854(19)
S6A S 0.69522(11) 1.23237(11) 0.34703(17)
N4A N 0.9809(3) 1.0492(3) 0.2561(5)
N5A N 0.9202(3) 1.2284(3) 0.2951(5)
N6A N 0.7763(3) 1.0324(3) 0.3177(5)
C4A C 0.8657(4) 0.9757(4) 0.2912(6)
C5A C 1.0105(4) 1.1758(4) 0.2553(6)
C6A C 0.8005(4) 1.1578(4) 0.3172(6)
O1A O 0.4607(3) 1.0928(3) -0.3906(5)
O2A O 0.4232(3) 1.2195(3) 0.0500(5)
K2A K 0.58042(11) 0.72015(12) -0.44265(16)
O3A O 0.6254(4) 1.5015(4) 0.3665(6)
S3A_2 S 0.61099(11) 1.44000(12) 0.87171(19)
S4_2 S 0.16083(11) 1.17667(11) 0.70082(17)
S5A_2 S 0.14785(11) 1.26029(12) 0.20854(19)
O1A_2 O 0.4607(3) 1.0928(3) 0.6094(5)
K2A_2 K 0.58042(11) 0.72015(12) 0.55735(16)
K2_2 K 0.41958(11) 1.27985(12) -0.55735(16)
K2A_3 K -0.41958(11) 0.72015(12) -0.44265(16)
K2A_4 K 0.58042(11) 1.72015(12) 0.55735(16)
K2_3 K 1.41958(11) 1.27985(12) 0.44265(16)
S3_2 S 0.38901(11) 0.56000(12) -0.87171(19)
S4A_2 S 0.83917(11) 0.82333(11) -0.70082(17)
S5_2 S 0.85215(11) 0.73971(12) -0.20854(19)
O1_2 O 0.5393(3) 0.9072(3) -0.6094(5)
O3_2 O 0.3746(4) 0.4985(4) -0.3665(6)
O3A_2 O 0.6254(4) 0.5015(4) -0.6335(6)
loop_
_geom_bond_atom_site_label_1
_geom_bond_atom_site_label_2
_geom_bond_site_symmetry_1
_geom_bond_site_symmetry_2
K1 S1 1_555 1_555
K2 S1 1_555 1_555
S1 C1 1_555 1_555
S2 C2 1_555 1_555
S3 C3 1_555 1_555
S4 C4 1_555 1_555
S5 C5 1_555 1_555
S6 K1 1_555 1_555
N1 C1 1_555 1_555
N2 C2 1_555 1_555
N3 C1 1_555 1_555
N4 C4 1_555 1_555
N5 C5 1_555 1_555
N6 C4 1_555 1_555
O1 K1 1_555 1_555
O2 K1 1_555 1_555
O3 K2 1_555 1_555
C2 N1 1_555 1_555
C3 N2 1_555 1_555
C5 N4 1_555 1_555
C6 S6 1_555 1_555
S1A K1 1_555 1_555
S2A C2A 1_555 1_555
S3A C3A 1_555 1_555
N1A C1A 1_555 1_555
N2A C2A 1_555 1_555
N3A C1A 1_555 1_555
C1A S1A 1_555 1_555
C2A N1A 1_555 1_555
C3A N2A 1_555 1_555
S4A C4A 1_555 1_555
S5A C5A 1_555 1_555
S6A K1 1_555 1_555
N4A C4A 1_555 1_555
N5A C5A 1_555 1_555
N6A C4A 1_555 1_555
C5A N4A 1_555 1_555
C6A S6A 1_555 1_555
O1A K1 1_555 1_555
O2A K1 1_555 1_555
K2A S6 1_555 1_555
O3A K2 1_555 1_555
S3A_2 K2 1_555 1_555
S4_2 K2 1_555 1_555
S5A_2 K2 1_555 1_555
O1A_2 K2 1_555 1_555
K2A_2 S3 1_555 1_555
K2_2 S4 1_555 1_555
K2A_3 S5 1_555 1_555
K2A_4 O3 1_555 1_555
K2_3 S5A 1_555 1_555
S3_2 K2A 1_555 1_555
S4A_2 K2A 1_555 1_555
S5_2 K2A 1_555 1_555
O1_2 K2A 1_555 1_555
O3_2 K2A 1_555 1_555
O3A_2 K2A 1_555 1_555
K2 S6A 1_555 1_555
K2 O2A 1_555 1_555
N3 C3 1_555 1_555
N5 C6 1_555 1_555
N6 C6 1_555 1_555
O1 K2A_2 1_555 1_555
O2 K2A 1_555 1_555
S1A K2A 1_555 1_555
S3A K2_2 1_555 1_555
N3A C3A 1_555 1_555
S4A K2A_2 1_555 1_555
N5A C6A 1_555 1_555
N6A C6A 1_555 1_555
O1A K2_2 1_555 1_555
O3A K2A_4 1_555 1_555

#END
