
#######################################################################
#
#                 Cambridge Crystallographic Data Centre
#                                CCDC 
#
#######################################################################
#
# If this CIF has been generated from an entry in the Cambridge 
# Structural Database, then it will include bibliographic, chemical, 
# crystal, experimental, refinement or atomic coordinate data resulting 
# from the CCDC's data processing and validation procedures.
#
#######################################################################

data_MUXROM
_symmetry_cell_setting           orthorhombic
_symmetry_space_group_name_H-M   'P n a 21'
_symmetry_Int_Tables_number      33
_space_group_name_Hall           'P 2c -2n'
loop_
_symmetry_equiv_pos_site_id
_symmetry_equiv_pos_as_xyz
1 x,y,z
2 -x,-y,1/2+z
3 1/2-x,1/2+y,1/2+z
4 1/2+x,1/2-y,z
_cell_length_a                   14.1338(7)
_cell_length_b                   17.5487(7)
_cell_length_c                   10.1054(5)
_cell_angle_alpha                90
_cell_angle_beta                 90
_cell_angle_gamma                90
_cell_volume                     2506.44
loop_
_atom_site_label
_atom_site_type_symbol
_atom_site_fract_x
_atom_site_fract_y
_atom_site_fract_z
Cs1 Cs 0.52567(3) 0.05361(3) 0.39619(3)
Cs2 Cs 1.02433(3) -0.05127(3) -0.06440(4)
Si1 Si 0.74989(14) -0.06584(5) -0.0867(4)
C1 C 0.6139(5) -0.1582(4) 0.2132(8)
H1 H 0.5993 -0.1984 0.1506
H2 H 0.6367 -0.1817 0.2940
C2 C 0.6915(5) -0.1061(4) 0.1551(8)
H3 H 0.7041 -0.0659 0.2202
C3 C 0.7847(6) -0.1502(4) 0.1341(9)
H4 H 0.7703 -0.2048 0.1367
C4 C 0.8591(6) -0.1341(4) 0.2373(9)
H5 H 0.8293 -0.1364 0.3247
C5 C 0.9409(5) -0.1865(3) 0.2365(8)
H6 H 0.9188 -0.2377 0.2554
H7 H 0.9686 -0.1868 0.1487
O1 O 0.5318(4) -0.1162(4) 0.2403(9)
H8 H 0.5044 -0.1350 0.3039
O2 O 0.6621(3) -0.0707(3) 0.0387(5)
O3 O 0.8162(3) -0.1319(3) 0.0046(5)
O4 O 0.8937(4) -0.0559(2) 0.2156(9)
H9 H 0.8609 -0.0349 0.1595
O5 O 1.0115(4) -0.1666(3) 0.3297(9)
H10 H 1.0402 -0.1289 0.3036
C6 C 0.8904(6) -0.1599(5) -0.3686(13)
H11 H 0.8695 -0.1958 -0.4356
H12 H 0.9110 -0.1885 -0.2917
C7 C 0.8133(5) -0.1095(4) -0.3329(7)
H13 H 0.8040 -0.0724 -0.4042
C8 C 0.7199(6) -0.1502(4) -0.3064(8)
H14 H 0.7304 -0.2052 -0.3145
C9 C 0.6436(5) -0.1260(4) -0.4099(8)
H15 H 0.6749 -0.1276 -0.4963
C10 C 0.5638(5) -0.1847(6) -0.4160(11)
H16 H 0.5891 -0.2332 -0.4456
H17 H 0.5376 -0.1919 -0.3282
O6 O 0.9701(4) -0.1133(4) -0.4206(9)
H18 H 0.9956 -0.1359 -0.4820
O7 O 0.8375(3) -0.0695(3) -0.2141(6)
O8 O 0.6844(4) -0.1352(3) -0.1794(5)
O9 O 0.6100(5) -0.0537(3) -0.3956(9)
H19 H 0.6322 -0.0346 -0.3283
O10 O 0.4902(5) -0.1609(4) -0.5044(9)
H20 H 0.4592 -0.1269 -0.4696
C11 C 0.7704(6) 0.1106(6) -0.2686(10)
H21 H 0.7316 0.1038 -0.3469
H22 H 0.7818 0.1648 -0.2587
C12 C 0.7151(5) 0.0836(4) -0.1507(8)
H23 H 0.6598 0.1164 -0.1377
C13 C 0.7759(5) 0.0832(3) -0.0240(8)
H24 H 0.8290 0.1181 -0.0388
C14 C 0.7231(6) 0.1112(5) 0.0974(9)
H25 H 0.7072 0.1647 0.0808
C15 C 0.7797(4) 0.1099(3) 0.2201(6)
H26 H 0.7916 0.0571 0.2436
H27 H 0.8404 0.1335 0.2021
O11 O 0.8601(4) 0.0733(3) -0.2907(7)
H30 H 0.8558 0.0282 -0.2708
O12 O 0.6849(3) 0.0068(3) -0.1696(5)
O13 O 0.8143(3) 0.0088(2) -0.0083(5)
O14 O 0.6363(3) 0.0722(3) 0.1136(7)
H31 H 0.6398 0.0301 0.0787
O15 O 0.7395(6) 0.1461(6) 0.3286(10)
H32 H 0.6818 0.1422 0.3249
O2A O 0.3379(3) 0.0707(3) 0.5387(5)
O8A O 0.3156(4) 0.1352(3) 0.3206(5)
O9_2 O 0.6100(5) -0.0537(3) 0.6044(9)
O12A O 0.3151(3) -0.0068(3) 0.3304(5)
O4A O 1.1063(4) 0.0559(2) -0.2844(9)
O6A O 1.0299(4) 0.1133(4) 0.0794(9)
O11A O 1.1399(4) -0.0733(3) 0.2093(7)
Cs1A Cs 0.47433(3) -0.05361(3) -0.10381(3)
Cs2A Cs 0.97567(3) 0.05127(3) 0.43560(4)
Cs2A_2 Cs 0.97567(3) 0.05127(3) -0.56440(4)
Cs1_2 Cs 0.52567(3) 0.05361(3) -0.60381(3)
H19_2 H 0.6322 -0.0346 0.6717
H9A H 1.1391 0.0349 -0.3405
H18A H 1.0044 0.1359 0.0180
H30A H 1.1442 -0.0282 0.2292
O17 O 0.5974(5) 0.2383(4) 0.4135(10)
O18 O -0.1048(6) 0.2375(3) 0.4151(9)
H28? H 0.2571 -0.1337 0.7898
H29? H 0.2106 -0.0571 0.7453
O16? O 0.1328(6) -0.1454(5) 0.7149(9)
H33? H 0.1287 -0.1765 0.7752
loop_
_geom_bond_atom_site_label_1
_geom_bond_atom_site_label_2
_geom_bond_site_symmetry_1
_geom_bond_site_symmetry_2
Cs1 O1 1_555 1_555
Cs2 O3 1_555 1_555
Si1 O2 1_555 1_555
C1 H1 1_555 1_555
H2 C1 1_555 1_555
C2 C1 1_555 1_555
H3 C2 1_555 1_555
C3 C2 1_555 1_555
H4 C3 1_555 1_555
C4 C3 1_555 1_555
H5 C4 1_555 1_555
C5 C4 1_555 1_555
H6 C5 1_555 1_555
H7 C5 1_555 1_555
O1 C1 1_555 1_555
H8 O1 1_555 1_555
O2 C2 1_555 1_555
O3 Si1 1_555 1_555
O4 Cs2 1_555 1_555
H9 O4 1_555 1_555
O5 C5 1_555 1_555
H10 O5 1_555 1_555
C6 H11 1_555 1_555
H12 C6 1_555 1_555
C7 C6 1_555 1_555
H13 C7 1_555 1_555
C8 C7 1_555 1_555
H14 C8 1_555 1_555
C9 C8 1_555 1_555
H15 C9 1_555 1_555
C10 C9 1_555 1_555
H16 C10 1_555 1_555
H17 C10 1_555 1_555
O6 C6 1_555 1_555
H18 O6 1_555 1_555
O7 Cs2 1_555 1_555
O8 Si1 1_555 1_555
O9 C9 1_555 1_555
H19 O9 1_555 1_555
O10 C10 1_555 1_555
H20 O10 1_555 1_555
C11 H21 1_555 1_555
H22 C11 1_555 1_555
C12 C11 1_555 1_555
H23 C12 1_555 1_555
C13 C12 1_555 1_555
H24 C13 1_555 1_555
C14 C13 1_555 1_555
H25 C14 1_555 1_555
C15 C14 1_555 1_555
H26 C15 1_555 1_555
H27 C15 1_555 1_555
O11 C11 1_555 1_555
H30 O11 1_555 1_555
O12 Si1 1_555 1_555
O13 Cs2 1_555 1_555
O14 Cs1 1_555 1_555
H31 O14 1_555 1_555
O15 C15 1_555 1_555
H32 O15 1_555 1_555
O2A Cs1 1_555 1_555
O8A Cs1 1_555 1_555
O9_2 Cs1 1_555 1_555
O12A Cs1 1_555 1_555
O4A Cs2 1_555 1_555
O6A Cs2 1_555 1_555
O11A Cs2 1_555 1_555
Cs1A O2 1_555 1_555
Cs2A O4 1_555 1_555
Cs2A_2 O6 1_555 1_555
Cs1_2 O9 1_555 1_555
H19_2 O9_2 1_555 1_555
H9A O4A 1_555 1_555
H18A O6A 1_555 1_555
H30A O11A 1_555 1_555
Si1 O7 1_555 1_555
Si1 O13 1_555 1_555
C3 O3 1_555 1_555
C4 O4 1_555 1_555
C7 O7 1_555 1_555
C8 O8 1_555 1_555
O8 Cs1A 1_555 1_555
C12 O12 1_555 1_555
C13 O13 1_555 1_555
C14 O14 1_555 1_555
O11 Cs2A_2 1_555 1_555
O12 Cs1A 1_555 1_555
O4A Cs2A_2 1_555 1_555

#END
