
#######################################################################
#
#                 Cambridge Crystallographic Data Centre
#                                CCDC 
#
#######################################################################
#
# If this CIF has been generated from an entry in the Cambridge 
# Structural Database, then it will include bibliographic, chemical, 
# crystal, experimental, refinement or atomic coordinate data resulting 
# from the CCDC's data processing and validation procedures.
#
#######################################################################

data_MUXSED
_symmetry_cell_setting           monoclinic
_symmetry_space_group_name_H-M   'P 21'
_symmetry_Int_Tables_number      4
_space_group_name_Hall           'P 2yb'
loop_
_symmetry_equiv_pos_site_id
_symmetry_equiv_pos_as_xyz
1 x,y,z
2 -x,1/2+y,-z
_cell_length_a                   9.03740(10)
_cell_length_b                   13.4190(2)
_cell_length_c                   9.61360(10)
_cell_angle_alpha                90
_cell_angle_beta                 110.9119(7)
_cell_angle_gamma                90
_cell_volume                     1089.07
loop_
_atom_site_label
_atom_site_type_symbol
_atom_site_fract_x
_atom_site_fract_y
_atom_site_fract_z
Rb1 Rb 0.28911(3) 0.671329(17) 0.68885(3)
Rb2 Rb 0.53676(3) 0.638350(19) 0.32408(3)
Si1 Si 0.35829(8) 0.40268(5) 0.72587(7)
C1 C 0.1304(3) 0.5321(2) 0.3524(3)
H1 H 0.0603 0.5080 0.2534
H2 H 0.0637 0.5497 0.4110
C2 C 0.2465(3) 0.4514(2) 0.4313(3)
H3 H 0.3149 0.4351 0.3724
C3 C 0.1590(3) 0.3563(2) 0.4499(3)
H4 H 0.0516 0.3757 0.4483
C4 C 0.1391(3) 0.2824(2) 0.3267(3)
H5 H 0.1071 0.3186 0.2307
H6 H 0.2424 0.2501 0.3427
O1 O 0.2161(2) 0.61807(17) 0.3351(2)
H7 H 0.152(4) 0.658(3) 0.321(3)
O2 O 0.34313(19) 0.48355(13) 0.57523(18)
O3 O 0.24548(19) 0.31424(13) 0.59125(18)
O4 O 0.0250(2) 0.20775(19) 0.3176(2)
H8 H 0.080(6) 0.159(4) 0.372(5)
C5 C 0.6961(3) 0.5679(2) 0.7917(3)
H9 H 0.6585 0.6336 0.8125
H10 H 0.8132 0.5701 0.8272
C6 C 0.6455(3) 0.4882(2) 0.8775(3)
H11 H 0.7032 0.4988 0.9865
C7 C 0.6791(3) 0.3816(2) 0.8365(3)
H12 H 0.7606 0.3857 0.7887
C8 C 0.7414(3) 0.3135(2) 0.9703(3)
H13 H 0.7470 0.2447 0.9351
H14 H 0.8505 0.3343 1.0311
O5 O 0.6362(3) 0.55113(16) 0.6356(2)
H15 H 0.555(4) 0.531(3) 0.609(4)
O6 O 0.48026(18) 0.49541(13) 0.84696(18)
O7 O 0.53684(19) 0.34469(14) 0.72960(19)
O8 O 0.6475(2) 0.31306(17) 1.0626(2)
H16 H 0.562(4) 0.315(3) 1.013(4)
C9 C 0.1921(3) 0.5147(2) 0.9868(3)
H17 H 0.1377 0.5766 0.9393
H18 H 0.1499 0.4959 1.0651
C10 C 0.1511(3) 0.4327(2) 0.8703(3)
H19 H 0.0342 0.4213 0.8356
C11 C 0.2346(3) 0.3317(2) 0.9277(3)
H20 H 0.2796 0.3324 1.0390
C12 C 0.1214(3) 0.2444(2) 0.8749(3)
H21 H 0.1823 0.1815 0.8998
H22 H 0.0460 0.2449 0.9285
O9 O 0.3561(3) 0.5350(2) 1.0554(2)
H23 H 0.386(5) 0.527(4) 0.992(5)
O10 O 0.18931(18) 0.46147(13) 0.74524(18)
O11 O 0.35891(19) 0.32061(14) 0.87182(18)
O12 O 0.0347(3) 0.24741(18) 0.7183(2)
H24 H 0.099(5) 0.257(4) 0.688(5)
O13 O 0.4286(3) 0.8073(2) 0.5429(3)
H25 H 0.400(5) 0.868(4) 0.585(5)
H26 H 0.437(5) 0.827(4) 0.465(5)
O14 O 0.6791(3) 0.4507(2) 0.2872(3)
H27 H 0.781(7) 0.469(5) 0.355(7)
H28 H 0.678(5) 0.415(4) 0.200(5)
O4A O -0.0250(2) 0.70775(19) 0.6824(2)
O8A O 0.3525(2) 0.81306(17) 0.9374(2)
O3A O 0.75452(19) 0.81424(13) 0.40875(18)
O7A O 0.46316(19) 0.84469(14) 0.27040(19)
O9_2 O 0.3561(3) 0.5350(2) 0.0554(2)
O11A O 0.64109(19) 0.82061(14) 0.12818(18)
Rb2A Rb 0.46324(3) 0.138350(19) 0.67592(3)
Rb1A Rb -0.28911(3) 0.171329(17) 0.31115(3)
Rb1A_2 Rb 0.71089(3) 0.171329(17) 1.31115(3)
Rb2_2 Rb 0.53676(3) 0.638350(19) 1.32408(3)
H8A H -0.080(6) 0.659(4) 0.628(5)
H16A H 0.438(4) 0.815(3) 0.987(4)
H23_2 H 0.386(5) 0.527(4) -0.008(5)
O15 O 0.1027(3) 0.01934(17) 0.4455(2)
H29 H 0.177(5) 0.007(3) 0.408(4)
H30 H 0.009(5) -0.008(3) 0.378(4)
loop_
_geom_bond_atom_site_label_1
_geom_bond_atom_site_label_2
_geom_bond_site_symmetry_1
_geom_bond_site_symmetry_2
Rb1 O1 1_555 1_555
Rb2 O1 1_555 1_555
Si1 O2 1_555 1_555
C1 H1 1_555 1_555
H2 C1 1_555 1_555
C2 C1 1_555 1_555
H3 C2 1_555 1_555
C3 C2 1_555 1_555
H4 C3 1_555 1_555
C4 C3 1_555 1_555
H5 C4 1_555 1_555
H6 C4 1_555 1_555
O1 C1 1_555 1_555
H7 O1 1_555 1_555
O2 Rb1 1_555 1_555
O3 Si1 1_555 1_555
O4 C4 1_555 1_555
H8 O4 1_555 1_555
C5 H9 1_555 1_555
H10 C5 1_555 1_555
C6 C5 1_555 1_555
H11 C6 1_555 1_555
C7 C6 1_555 1_555
H12 C7 1_555 1_555
C8 C7 1_555 1_555
H13 C8 1_555 1_555
H14 C8 1_555 1_555
O5 Rb2 1_555 1_555
H15 O5 1_555 1_555
O6 Rb1 1_555 1_555
O7 Si1 1_555 1_555
O8 C8 1_555 1_555
H16 O8 1_555 1_555
C9 H17 1_555 1_555
H18 C9 1_555 1_555
C10 C9 1_555 1_555
H19 C10 1_555 1_555
C11 C10 1_555 1_555
H20 C11 1_555 1_555
C12 C11 1_555 1_555
H21 C12 1_555 1_555
H22 C12 1_555 1_555
O9 C9 1_555 1_555
H23 O9 1_555 1_555
O10 Rb1 1_555 1_555
O11 Si1 1_555 1_555
O12 C12 1_555 1_555
H24 O12 1_555 1_555
O13 Rb1 1_555 1_555
H25 O13 1_555 1_555
H26 O13 1_555 1_555
O14 Rb2 1_555 1_555
H27 O14 1_555 1_555
H28 O14 1_555 1_555
O15 H29 1_555 1_555
H30 O15 1_555 1_555
O4A Rb1 1_555 1_555
O8A Rb1 1_555 1_555
O3A Rb2 1_555 1_555
O7A Rb2 1_555 1_555
O9_2 Rb2 1_555 1_555
O11A Rb2 1_555 1_555
Rb2A O3 1_555 1_555
Rb1A O4 1_555 1_555
Rb1A_2 O8 1_555 1_555
Rb2_2 O9 1_555 1_555
H8A O4A 1_555 1_555
H16A O8A 1_555 1_555
H23_2 O9_2 1_555 1_555
Si1 O6 1_555 1_555
Si1 O10 1_555 1_555
C2 O2 1_555 1_555
C3 O3 1_555 1_555
C5 O5 1_555 1_555
C6 O6 1_555 1_555
C7 O7 1_555 1_555
O7 Rb2A 1_555 1_555
C10 O10 1_555 1_555
C11 O11 1_555 1_555
O11 Rb2A 1_555 1_555

#END
