
#######################################################################
#
#                 Cambridge Crystallographic Data Centre
#                                CCDC 
#
#######################################################################
#
# If this CIF has been generated from an entry in the Cambridge 
# Structural Database, then it will include bibliographic, chemical, 
# crystal, experimental, refinement or atomic coordinate data resulting 
# from the CCDC's data processing and validation procedures.
#
#######################################################################

data_MUXXOS
_symmetry_cell_setting           triclinic
_symmetry_space_group_name_H-M   'P -1'
_symmetry_Int_Tables_number      2
_space_group_name_Hall           '-P 1'
loop_
_symmetry_equiv_pos_site_id
_symmetry_equiv_pos_as_xyz
1 x,y,z
2 -x,-y,-z
_cell_length_a                   7.1213(6)
_cell_length_b                   7.1781(8)
_cell_length_c                   14.6063(12)
_cell_angle_alpha                77.327(8)
_cell_angle_beta                 76.757(7)
_cell_angle_gamma                76.621(8)
_cell_volume                     696.059
loop_
_atom_site_label
_atom_site_type_symbol
_atom_site_fract_x
_atom_site_fract_y
_atom_site_fract_z
Au1 Au 0.00000 0.00000 0.00000
Ni1 Ni 0.33890(11) 0.34181(11) 0.17857(5)
O1 O 0.2804(7) 0.5854(7) 0.0736(3)
O2 O 0.4066(7) 0.7071(6) -0.0765(3)
N1 N 0.0768(8) 0.4400(9) 0.2675(4)
H1 H -0.0113 0.5081 0.2312
H2 H 0.0284 0.3367 0.3035
N2 N 0.4502(11) 0.4939(11) 0.2540(5)
H3 H 0.5458 0.5529 0.2138
N3 N 0.4527(9) 0.1038(9) 0.2718(4)
H4 H 0.3584 0.0705 0.3215
H5 H 0.5044 0.0013 0.2419
C1 C 0.4098(8) 0.5842(8) -0.0006(4)
C2 C 0.1517(10) 0.1451(9) -0.1130(5)
N4 N 0.2421(11) 0.2320(11) -0.1766(5)
C3 C 0.1207(11) 0.1124(10) 0.0804(5)
N5 N 0.1977(10) 0.1824(11) 0.1204(5)
C4 C 0.1000(17) 0.5597(17) 0.3288(7)
H6 H 0.1126 0.4822 0.3913
H7 H -0.0152 0.6621 0.3367
C5 C 0.2778(19) 0.6473(14) 0.2874(7)
H8 H 0.3096 0.7037 0.3352
H9 H 0.2518 0.7503 0.2339
C6 C 0.6105(16) 0.166(2) 0.3057(8)
H10 H 0.6486 0.0736 0.3605
H11 H 0.7257 0.1711 0.2553
C7 C 0.5321(16) 0.3615(17) 0.3321(7)
H12 H 0.4309 0.3522 0.3891
H13 H 0.6366 0.411 0.3457
C1A C 0.5902(8) 0.4158(8) 0.0006(4)
O1A O 0.7196(7) 0.4146(7) -0.0736(3)
O2A O 0.5934(7) 0.2929(6) 0.0765(3)
C2A C -0.1517(10) -0.1451(9) 0.1130(5)
N4A N -0.2421(11) -0.2320(11) 0.1766(5)
C3A C -0.1207(11) -0.1124(10) -0.0804(5)
N5A N -0.1977(10) -0.1824(11) -0.1204(5)
Ni1A Ni -0.33890(11) -0.34181(11) -0.17857(5)
N1A N -0.0768(8) -0.4400(9) -0.2675(4)
H1A H 0.0113 -0.5081 -0.2312
H2A H -0.0284 -0.3367 -0.3035
N2A N -0.4502(11) -0.4939(11) -0.2540(5)
H3A H -0.5458 -0.5529 -0.2138
N3A N -0.4527(9) -0.1038(9) -0.2718(4)
H4A H -0.3584 -0.0705 -0.3215
H5A H -0.5044 -0.0013 -0.2419
C4A C -0.1000(17) -0.5597(17) -0.3288(7)
H6A H -0.1126 -0.4822 -0.3913
H7A H 0.0152 -0.6621 -0.3367
C5A C -0.2778(19) -0.6473(14) -0.2874(7)
H8A H -0.3096 -0.7037 -0.3352
H9A H -0.2518 -0.7503 -0.2339
C6A C -0.6105(16) -0.166(2) -0.3057(8)
H10A H -0.6486 -0.0736 -0.3605
H11A H -0.7257 -0.1711 -0.2553
C7A C -0.5321(16) -0.3615(17) -0.3321(7)
H12A H -0.4309 -0.3522 -0.3891
H13A H -0.6366 -0.411 -0.3457
Ni1A_2 Ni 0.66110(11) 0.65819(11) -0.17857(5)
O1A_2 O -0.2804(7) -0.5854(7) -0.0736(3)
O2_2 O -0.5934(7) -0.2929(6) -0.0765(3)
P1 P 1.00000 0.00000 0.50000
F1 F 1.0270(9) 0.0188(8) 0.3851(3)
F2 F 0.8581(17) 0.2049(14) 0.4924(6)
F3 F 1.1747(16) 0.1065(18) 0.4902(6)
F1A F 0.9730(9) -0.0188(8) 0.6149(3)
F2A F 1.1419(17) -0.2049(14) 0.5076(6)
F3A F 0.8253(16) -0.1065(18) 0.5098(6)
loop_
_geom_bond_atom_site_label_1
_geom_bond_atom_site_label_2
_geom_bond_site_symmetry_1
_geom_bond_site_symmetry_2
Au1 C2 1_555 1_555
Ni1 O1 1_555 1_555
P1 F1 1_555 1_555
O1 C1 1_555 1_555
O2 C1 1_555 1_555
N1 Ni1 1_555 1_555
H1 N1 1_555 1_555
H2 N1 1_555 1_555
F2 P1 1_555 1_555
N2 Ni1 1_555 1_555
H3 N2 1_555 1_555
F3 P1 1_555 1_555
N3 Ni1 1_555 1_555
H4 N3 1_555 1_555
H5 N3 1_555 1_555
C1 C1A 1_555 1_555
C2 N4 1_555 1_555
C3 Au1 1_555 1_555
N5 Ni1 1_555 1_555
C4 N1 1_555 1_555
H6 C4 1_555 1_555
H7 C4 1_555 1_555
C5 N2 1_555 1_555
H8 C5 1_555 1_555
H9 C5 1_555 1_555
C6 N3 1_555 1_555
H10 C6 1_555 1_555
H11 C6 1_555 1_555
C7 N2 1_555 1_555
H12 C7 1_555 1_555
H13 C7 1_555 1_555
F1A P1 1_555 1_555
F2A P1 1_555 1_555
F3A P1 1_555 1_555
C1A O1A 1_555 1_555
O1A Ni1A_2 1_555 1_555
O2A Ni1 1_555 1_555
C2A Au1 1_555 1_555
N4A C2A 1_555 1_555
C3A Au1 1_555 1_555
N5A C3A 1_555 1_555
Ni1A N5A 1_555 1_555
N1A Ni1A 1_555 1_555
H1A N1A 1_555 1_555
H2A N1A 1_555 1_555
N2A Ni1A 1_555 1_555
H3A N2A 1_555 1_555
N3A Ni1A 1_555 1_555
H4A N3A 1_555 1_555
H5A N3A 1_555 1_555
C4A N1A 1_555 1_555
H6A C4A 1_555 1_555
H7A C4A 1_555 1_555
C5A N2A 1_555 1_555
H8A C5A 1_555 1_555
H9A C5A 1_555 1_555
C6A N3A 1_555 1_555
H10A C6A 1_555 1_555
H11A C6A 1_555 1_555
C7A N2A 1_555 1_555
H12A C7A 1_555 1_555
H13A C7A 1_555 1_555
Ni1A_2 O2 1_555 1_555
O1A_2 Ni1A 1_555 1_555
O2_2 Ni1A 1_555 1_555
C3 N5 1_555 1_555
C4 C5 1_555 1_555
C6 C7 1_555 1_555
C1A O2A 1_555 1_555
C4A C5A 1_555 1_555
C6A C7A 1_555 1_555

#END
