
#######################################################################
#
#                 Cambridge Crystallographic Data Centre
#                                CCDC 
#
#######################################################################
#
# If this CIF has been generated from an entry in the Cambridge 
# Structural Database, then it will include bibliographic, chemical, 
# crystal, experimental, refinement or atomic coordinate data resulting 
# from the CCDC's data processing and validation procedures.
#
#######################################################################

data_MUYBUE
_symmetry_cell_setting           monoclinic
_symmetry_space_group_name_H-M   'P 21/c'
_symmetry_Int_Tables_number      14
_space_group_name_Hall           '-P 2ybc'
loop_
_symmetry_equiv_pos_site_id
_symmetry_equiv_pos_as_xyz
1 x,y,z
2 -x,1/2+y,1/2-z
3 -x,-y,-z
4 x,1/2-y,1/2+z
_cell_length_a                   17.114(3)
_cell_length_b                   15.856(3)
_cell_length_c                   10.785(2)
_cell_angle_alpha                90
_cell_angle_beta                 93.83(3)
_cell_angle_gamma                90
_cell_volume                     2920.08
loop_
_atom_site_label
_atom_site_type_symbol
_atom_site_fract_x
_atom_site_fract_y
_atom_site_fract_z
Cd1 Cd 0.32719(2) 0.46612(3) 0.68183(4)
Fe1 Fe 0.10481(6) 0.05533(7) 0.72634(9)
C1 C 0.2090(6) 0.0581(8) 0.6480(13)
H1 H 0.2455 0.1057 0.6482
C2 C 0.2085(7) -0.0066(9) 0.7372(10)
H2 H 0.2443 -0.0106 0.8118
C3 C 0.1485(9) -0.0632(7) 0.7046(13)
H3 H 0.1350 -0.1140 0.7501
C4 C 0.1124(8) -0.0340(9) 0.5931(12)
H4 H 0.0674 -0.0610 0.5483
C5 C 0.1477(9) 0.0402(8) 0.5561(10)
H5 H 0.1337 0.0731 0.4810
C6 C 0.0189(4) 0.0470(5) 0.8475(7)
H6 H -0.0003 -0.0054 0.8827
C7 C -0.0113(4) 0.0850(5) 0.7370(7)
H7 H -0.0549 0.0638 0.6822
C8 C 0.0346(4) 0.1590(4) 0.7166(7)
H8 H 0.0274 0.1973 0.6455
C9 C 0.0927(4) 0.1668(4) 0.8169(6)
C10 C 0.0824(4) 0.0963(4) 0.8999(6)
H9 H 0.1138 0.0843 0.9772
C11 C 0.1559(4) 0.2320(5) 0.8320(6)
C12 C 0.2234(4) 0.2107(6) 0.9213(7)
H10 H 0.2375 0.1527 0.9111
H11 H 0.2089 0.2198 1.0047
H12 H 0.2672 0.2461 0.9055
C13 C 0.1504(4) 0.3018(5) 0.7648(7)
H13 H 0.1025 0.3108 0.7209
C14 C 0.2116(4) 0.3684(5) 0.7504(7)
C15 C 0.1732(4) 0.6349(5) 1.5765(7)
H14 H 0.1587 0.5946 1.6332
C16 C 0.1239(4) 0.6988(6) 1.5385(9)
H15 H 0.0750 0.7022 1.5707
C17 C 0.1448(5) 0.7586(6) 1.4534(9)
H16 H 0.1091 0.8010 1.4307
C18 C 0.2160(5) 0.7581(4) 1.4008(7)
H17 H 0.2297 0.7986 1.3438
C19 C 0.2653(4) 0.6930(4) 1.4393(6)
C20 C 0.2459(3) 0.6327(4) 1.5271(5)
C21 C 0.3630(3) 0.6035(4) 1.4747(5)
H18 H 0.4114 0.5775 1.4701
C22 C 0.3872(4) 0.7188(4) 1.3226(5)
H19 H 0.4421 0.7135 1.3505
H20 H 0.3736 0.7781 1.3256
C23 C 0.3767(4) 0.6891(4) 1.1892(5)
H21 H 0.4049 0.7268 1.1372
H22 H 0.3216 0.6920 1.1618
C24 C 0.4057(4) 0.5993(4) 1.1719(5)
H23 H 0.4558 0.5920 1.2182
H24 H 0.3689 0.5599 1.2046
C25 C 0.3640(4) 0.5378(4) 0.9612(6)
H25 H 0.3180 0.5133 0.9852
C26 C 0.4571(3) 0.5768(4) 0.8504(5)
C27 C 0.4756(3) 0.6071(4) 0.9710(6)
C28 C 0.5428(4) 0.6547(4) 1.0025(7)
H26 H 0.5551 0.6736 1.0831
C29 C 0.5894(4) 0.6716(4) 0.9074(8)
H27 H 0.6344 0.7036 0.9243
C30 C 0.5724(4) 0.6431(4) 0.7862(7)
H28 H 0.6059 0.6568 0.7248
C31 C 0.5064(3) 0.5947(4) 0.7557(6)
H29 H 0.4954 0.5749 0.6753
N1 N 0.4144(3) 0.5806(3) 1.0400(4)
N2 N 0.3866(3) 0.5344(3) 0.8466(4)
N3 N 0.3087(3) 0.5766(3) 1.5471(4)
N4 N 0.3407(3) 0.6729(3) 1.4083(4)
O1 O 0.1968(3) 0.4285(3) 0.6809(5)
O2 O 0.2792(3) 0.3586(4) 0.8013(5)
Cl1 Cl 0.42921(10) 0.39895(10) 0.56679(16)
Cd1_2 Cd 0.32719(2) 0.46612(3) 1.68183(4)
N3_2 N 0.3087(3) 0.5766(3) 0.5471(4)
loop_
_geom_bond_atom_site_label_1
_geom_bond_atom_site_label_2
_geom_bond_site_symmetry_1
_geom_bond_site_symmetry_2
Cd1 N2 1_555 1_555
Fe1 C1 1_555 1_555
C1 H1 1_555 1_555
C2 Fe1 1_555 1_555
H2 C2 1_555 1_555
C3 Fe1 1_555 1_555
H3 C3 1_555 1_555
C4 Fe1 1_555 1_555
H4 C4 1_555 1_555
C5 Fe1 1_555 1_555
H5 C5 1_555 1_555
C6 Fe1 1_555 1_555
H6 C6 1_555 1_555
C7 Fe1 1_555 1_555
H7 C7 1_555 1_555
C8 Fe1 1_555 1_555
H8 C8 1_555 1_555
C9 Fe1 1_555 1_555
C10 Fe1 1_555 1_555
H9 C10 1_555 1_555
C11 C9 1_555 1_555
C12 C11 1_555 1_555
H10 C12 1_555 1_555
H11 C12 1_555 1_555
H12 C12 1_555 1_555
C13 C11 1_555 1_555
H13 C13 1_555 1_555
C14 C13 1_555 1_555
C15 H14 1_555 1_555
C16 C15 1_555 1_555
H15 C16 1_555 1_555
C17 C16 1_555 1_555
H16 C17 1_555 1_555
C18 C17 1_555 1_555
H17 C18 1_555 1_555
C19 C18 1_555 1_555
C20 C15 1_555 1_555
C21 H18 1_555 1_555
C22 H19 1_555 1_555
H20 C22 1_555 1_555
C23 C22 1_555 1_555
H21 C23 1_555 1_555
H22 C23 1_555 1_555
C24 C23 1_555 1_555
H23 C24 1_555 1_555
H24 C24 1_555 1_555
C25 H25 1_555 1_555
C26 C27 1_555 1_555
C27 C28 1_555 1_555
C28 H26 1_555 1_555
C29 C28 1_555 1_555
H27 C29 1_555 1_555
C30 C29 1_555 1_555
H28 C30 1_555 1_555
C31 C26 1_555 1_555
H29 C31 1_555 1_555
N1 C24 1_555 1_555
N2 C25 1_555 1_555
N3 C20 1_555 1_555
N4 C19 1_555 1_555
O1 Cd1 1_555 1_555
O2 Cd1 1_555 1_555
Cl1 Cd1 1_555 1_555
Cd1_2 N3 1_555 1_555
N3_2 Cd1 1_555 1_555
C1 C2 1_555 1_555
C1 C5 1_555 1_555
C2 C3 1_555 1_555
C3 C4 1_555 1_555
C4 C5 1_555 1_555
C6 C7 1_555 1_555
C6 C10 1_555 1_555
C7 C8 1_555 1_555
C8 C9 1_555 1_555
C9 C10 1_555 1_555
C14 O1 1_555 1_555
C14 O2 1_555 1_555
C19 C20 1_555 1_555
C21 N3 1_555 1_555
C21 N4 1_555 1_555
C22 N4 1_555 1_555
C25 N1 1_555 1_555
C26 N2 1_555 1_555
C27 N1 1_555 1_555
C30 C31 1_555 1_555

#END
