
#######################################################################
#
#                 Cambridge Crystallographic Data Centre
#                                CCDC 
#
#######################################################################
#
# If this CIF has been generated from an entry in the Cambridge 
# Structural Database, then it will include bibliographic, chemical, 
# crystal, experimental, refinement or atomic coordinate data resulting 
# from the CCDC's data processing and validation procedures.
#
#######################################################################

data_MUYKEX
_symmetry_cell_setting           trigonal
_symmetry_space_group_name_H-M   'P 3 c 1'
_symmetry_Int_Tables_number      158
_space_group_name_Hall           'P 3 -2"c'
loop_
_symmetry_equiv_pos_site_id
_symmetry_equiv_pos_as_xyz
1 x,y,z
2 -y,x-y,z
3 -y,-x,1/2+z
4 -x+y,-x,z
5 x,x-y,1/2+z
6 -x+y,y,1/2+z
_cell_length_a                   8.6708(17)
_cell_length_b                   8.6708(17)
_cell_length_c                   11.4236(10)
_cell_angle_alpha                90
_cell_angle_beta                 90
_cell_angle_gamma                120
_cell_volume                     743.793
loop_
_atom_site_label
_atom_site_type_symbol
_atom_site_fract_x
_atom_site_fract_y
_atom_site_fract_z
Gd1 Gd 0.6667 0.3333 0.92113(12)
C1 C 0.8855(7) 0.2203(7) 1.0363(4)
C2 C 1.0042(8) 0.1690(8) 1.1003(5)
C3 C 1.0000 0.0000 1.0592(8)
O1 O 0.8867(5) 0.3613(4) 1.0643(3)
O2 O 0.7876(5) 0.1266(5) 0.9530(3)
O3 O 0.8952(6) 0.3986(6) 0.7781(3)
H1 H 1.082(7) 0.255(7) 1.106(4)
H2 H 0.971(9) 0.171(8) 1.178(5)
H3 H 1.0000 0.0000 0.982(8)
Gd1A Gd 0.6667 -0.6666 0.92113(12)
Gd1C Gd 1.6666 0.3333 0.92113(12)
C1A C 0.7797(7) -0.3348(10) 1.0363(4)
C1C C 1.3348(10) 0.1145(7) 1.0363(4)
C2A C 0.8310(8) -0.1648(11) 1.1003(5)
C2C C 1.1648(11) -0.0042(8) 1.1003(5)
O1A O 0.6387(4) -0.4746(6) 1.0643(3)
O1C O 1.4746(6) 0.1133(5) 1.0643(3)
O1A_2 O 0.6387(4) 0.5254(6) 1.0643(3)
O1C_2 O 0.4746(6) 0.1133(5) 1.0643(3)
O2A O 0.8734(5) -0.3390(7) 0.9530(3)
O2C O 1.3390(7) 0.2124(5) 0.9530(3)
O2A_2 O 0.8734(5) 0.6610(7) 0.9530(3)
O2C_2 O 0.3390(7) 0.2124(5) 0.9530(3)
O3A O 0.6014(6) 0.4966(8) 0.7781(3)
O3C O 0.5034(8) 0.1048(6) 0.7781(3)
H1A H 0.745(7) -0.173(10) 1.106(4)
H1C H 1.173(10) -0.082(7) 1.106(4)
H2A H 0.829(8) -0.200(12) 1.178(5)
H2C H 1.200(12) 0.029(9) 1.178(5)
O4 O 1.3333 0.6667 1.1203(13)
O5 O 0.5786(8) -0.2170(7) 0.8540(5)
loop_
_geom_bond_atom_site_label_1
_geom_bond_atom_site_label_2
_geom_bond_site_symmetry_1
_geom_bond_site_symmetry_2
Gd1 O1 1_555 1_555
C1 C2 1_555 1_555
C2 C3 1_555 1_555
C3 H3 1_555 1_555
O1 C1 1_555 1_555
O2 Gd1 1_555 1_555
O3 Gd1 1_555 1_555
H1 C2 1_555 1_555
H2 C2 1_555 1_555
Gd1A O1A 1_555 1_555
Gd1C O1C 1_555 1_555
C1A C2A 1_555 1_555
C1C C2C 1_555 1_555
C2A C3 1_555 1_555
C2C C3 1_555 1_555
O1A C1A 1_555 1_555
O1C C1C 1_555 1_555
O1A_2 Gd1 1_555 1_555
O1C_2 Gd1 1_555 1_555
O2A Gd1A 1_555 1_555
O2C Gd1C 1_555 1_555
O2A_2 Gd1 1_555 1_555
O2C_2 Gd1 1_555 1_555
O3A Gd1 1_555 1_555
O3C Gd1 1_555 1_555
H1A C2A 1_555 1_555
H1C C2C 1_555 1_555
H2A C2A 1_555 1_555
H2C C2C 1_555 1_555
C1 O2 1_555 1_555
C1A O2A 1_555 1_555
C1C O2C 1_555 1_555

#END
