
#######################################################################
#
#                 Cambridge Crystallographic Data Centre
#                                CCDC 
#
#######################################################################
#
# If this CIF has been generated from an entry in the Cambridge 
# Structural Database, then it will include bibliographic, chemical, 
# crystal, experimental, refinement or atomic coordinate data resulting 
# from the CCDC's data processing and validation procedures.
#
#######################################################################

data_MUYKIB
_symmetry_cell_setting           triclinic
_symmetry_space_group_name_H-M   'P -1'
_symmetry_Int_Tables_number      2
_space_group_name_Hall           '-P 1'
loop_
_symmetry_equiv_pos_site_id
_symmetry_equiv_pos_as_xyz
1 x,y,z
2 -x,-y,-z
_cell_length_a                   8.0705(7)
_cell_length_b                   8.8480(7)
_cell_length_c                   10.1094(9)
_cell_angle_alpha                87.021(7)
_cell_angle_beta                 73.061(7)
_cell_angle_gamma                68.160(6)
_cell_volume                     639.711
loop_
_atom_site_label
_atom_site_type_symbol
_atom_site_fract_x
_atom_site_fract_y
_atom_site_fract_z
Gd1 Gd -0.06450(7) 0.70686(5) -0.09991(5)
C1 C 0.1507(12) 0.6548(9) 0.1000(9)
C2 C 0.2734(14) 0.6200(9) 0.1902(10)
H1 H 0.3952 0.5426 0.1394
H2 H 0.2237 0.5665 0.2694
C3 C 0.3007(13) 0.7636(10) 0.2441(9)
H3 H 0.3323 0.8283 0.1659
C4 C -0.0319(13) 0.9749(10) 0.2941(9)
C5 C 0.1250(13) 0.8754(11) 0.3543(10)
H4 H 0.0805 0.8090 0.4243
H5 H 0.1585 0.9492 0.3994
C6 C 0.6472(13) 0.6144(11) 0.1962(10)
C7 C 0.4641(12) 0.6982(10) 0.3061(9)
H6 H 0.4712 0.7878 0.3525
H7 H 0.4422 0.6215 0.3746
O1 O 0.0691(8) 0.5605(6) 0.0917(6)
O2 O 0.1285(9) 0.7757(6) 0.0242(6)
O3 O -0.0186(9) 1.0946(6) 0.2237(6)
O4 O -0.1734(10) 0.9370(7) 0.3180(7)
O5 O 0.6914(9) 0.7005(7) 0.1021(7)
O6 O 0.7410(8) 0.4677(6) 0.2088(6)
O7 O -0.2518(8) 0.9762(6) 0.0420(6)
O8 O -0.3594(9) 0.8214(7) -0.1591(7)
O9 O -0.0136(10) 0.6235(7) -0.3413(7)
Gd1A Gd 0.06450(7) 0.29314(5) 0.09991(5)
Gd1A_2 Gd 0.06450(7) 1.29314(5) 0.09991(5)
Gd1_2 Gd 0.93550(7) 0.70686(5) -0.09991(5)
Gd1A_3 Gd 1.06450(7) 0.29314(5) 0.09991(5)
O1A O -0.0691(8) 0.4395(6) -0.0917(6)
O3A O 0.0186(9) 0.9054(6) -0.2237(6)
O5_2 O -0.3086(9) 0.7005(7) 0.1021(7)
O6A O 0.2590(8) 0.5323(6) -0.2088(6)
O10 O 0.5493(10) 0.2535(8) 0.3252(7)
O11 O -0.2135(9) 0.6869(7) 0.4713(7)
loop_
_geom_bond_atom_site_label_1
_geom_bond_atom_site_label_2
_geom_bond_site_symmetry_1
_geom_bond_site_symmetry_2
Gd1 O1 1_555 1_555
C1 C2 1_555 1_555
C2 H1 1_555 1_555
H2 C2 1_555 1_555
C3 C2 1_555 1_555
H3 C3 1_555 1_555
C4 C5 1_555 1_555
C5 C3 1_555 1_555
H4 C5 1_555 1_555
H5 C5 1_555 1_555
C6 C7 1_555 1_555
C7 C3 1_555 1_555
H6 C7 1_555 1_555
H7 C7 1_555 1_555
O1 C1 1_555 1_555
O2 Gd1 1_555 1_555
O3 C4 1_555 1_555
O4 C4 1_555 1_555
O5 C6 1_555 1_555
O6 C6 1_555 1_555
O7 Gd1 1_555 1_555
O8 Gd1 1_555 1_555
O9 Gd1 1_555 1_555
Gd1A O1 1_555 1_555
Gd1A_2 O3 1_555 1_555
Gd1_2 O5 1_555 1_555
Gd1A_3 O6 1_555 1_555
O1A Gd1 1_555 1_555
O3A Gd1 1_555 1_555
O5_2 Gd1 1_555 1_555
O6A Gd1 1_555 1_555
C1 O2 1_555 1_555
Gd1A O1A 1_555 1_555

#END
