
#######################################################################
#
#                 Cambridge Crystallographic Data Centre
#                                CCDC 
#
#######################################################################
#
# If this CIF has been generated from an entry in the Cambridge 
# Structural Database, then it will include bibliographic, chemical, 
# crystal, experimental, refinement or atomic coordinate data resulting 
# from the CCDC's data processing and validation procedures.
#
#######################################################################

data_MUYNUP
_symmetry_cell_setting           orthorhombic
_symmetry_space_group_name_H-M   'P 21 21 21'
_symmetry_Int_Tables_number      19
_space_group_name_Hall           'P 2ac 2ab'
loop_
_symmetry_equiv_pos_site_id
_symmetry_equiv_pos_as_xyz
1 x,y,z
2 1/2-x,-y,1/2+z
3 -x,1/2+y,1/2-z
4 1/2+x,1/2-y,-z
_cell_length_a                   9.228(3)
_cell_length_b                   5.469(2)
_cell_length_c                   25.697(9)
_cell_angle_alpha                90
_cell_angle_beta                 90
_cell_angle_gamma                90
_cell_volume                     1296.87
loop_
_atom_site_label
_atom_site_type_symbol
_atom_site_fract_x
_atom_site_fract_y
_atom_site_fract_z
Cu1 Cu 0.97161(6) 0.79431(9) 0.04826(2)
O1 O 1.1547(3) 0.7654(5) 0.00642(12)
O2 O 1.3672(3) 0.9515(5) -0.00586(12)
N1 N 1.0567(3) 1.0983(6) 0.06911(13)
N2 N 0.8016(5) 0.9231(8) 0.0881(2)
C1 C 1.2411(5) 0.9436(8) 0.0124(2)
C2 C 1.1907(4) 1.1669(7) 0.0437(2)
C3 C 0.9796(4) 1.2518(6) 0.09667(13)
O3 O 1.0064(3) 1.4734(5) 0.10582(11)
C4 C 0.8455(5) 1.1306(7) 0.1225(2)
C5 C 0.8920(7) 1.0273(13) 0.1749(2)
C6 C 0.7219(5) 1.3126(10) 0.1289(2)
C7 C 1.3079(5) 1.2678(9) 0.0803(2)
C8 C 1.3330(5) 1.1107(9) 0.1278(2)
C9 C 1.4147(5) 0.8972(9) 0.1259(2)
C10 C 1.4390(5) 0.7587(9) 0.1698(2)
C11 C 1.3792(6) 0.8283(11) 0.2171(2)
C12 C 1.2951(7) 1.0347(12) 0.2199(2)
C13 C 1.2734(6) 1.1787(10) 0.1756(2)
H1 H 0.7242(69) 0.982(11) 0.0610(23)
H2 H 0.7634(68) 0.832(12) 0.1025(21)
H3 H 1.1765(52) 1.2596(98) 0.0186(17)
H4 H 0.9666(65) 0.914(11) 0.1688(20)
H5 H 0.9253(58) 1.141(11) 0.1952(20)
H6 H 0.8070(66) 0.986(13) 0.1961(24)
H7 H 0.6319(61) 1.230(11) 0.1461(20)
H8 H 0.6850(61) 1.363(11) 0.0938(22)
H9 H 0.7504(61) 1.454(11) 0.1492(21)
H10 H 1.3974(43) 1.2727(73) 0.0593(14)
H11 H 1.2676(55) 1.4468(94) 0.0910(18)
H12 H 1.4570(48) 0.8546(78) 0.0942(16)
H13 H 1.4929(63) 0.596(11) 0.1632(21)
H14 H 1.3962(52) 0.7043(95) 0.2474(17)
H15 H 1.2475(60) 1.0828(98) 0.2511(19)
H16 H 1.2119(56) 1.3284(99) 0.1764(19)
O2C O 0.8672(3) 0.5485(5) 0.00586(12)
O3_2 O 1.0064(3) 0.4734(5) 0.10582(11)
Cu1C Cu 1.47161(6) 0.70569(9) -0.04826(2)
Cu1_2 Cu 0.97161(6) 1.79431(9) 0.04826(2)
loop_
_geom_bond_atom_site_label_1
_geom_bond_atom_site_label_2
_geom_bond_site_symmetry_1
_geom_bond_site_symmetry_2
Cu1 O1 1_555 1_555
O1 C1 1_555 1_555
O2 C1 1_555 1_555
N1 Cu1 1_555 1_555
N2 Cu1 1_555 1_555
C1 C2 1_555 1_555
C2 N1 1_555 1_555
C3 N1 1_555 1_555
O3 C3 1_555 1_555
C4 N2 1_555 1_555
C5 C4 1_555 1_555
C6 C4 1_555 1_555
C7 C2 1_555 1_555
C8 C7 1_555 1_555
C9 C8 1_555 1_555
C10 C9 1_555 1_555
C11 C10 1_555 1_555
C12 C11 1_555 1_555
C13 C8 1_555 1_555
H1 N2 1_555 1_555
H2 N2 1_555 1_555
H3 C2 1_555 1_555
H4 C5 1_555 1_555
H5 C5 1_555 1_555
H6 C5 1_555 1_555
H7 C6 1_555 1_555
H8 C6 1_555 1_555
H9 C6 1_555 1_555
H10 C7 1_555 1_555
H11 C7 1_555 1_555
H12 C9 1_555 1_555
H13 C10 1_555 1_555
H14 C11 1_555 1_555
H15 C12 1_555 1_555
H16 C13 1_555 1_555
O2C Cu1 1_555 1_555
O3_2 Cu1 1_555 1_555
Cu1C O2 1_555 1_555
Cu1_2 O3 1_555 1_555
C3 C4 1_555 1_555
C12 C13 1_555 1_555

#END
