
#######################################################################
#
#                 Cambridge Crystallographic Data Centre
#                                CCDC 
#
#######################################################################
#
# If this CIF has been generated from an entry in the Cambridge 
# Structural Database, then it will include bibliographic, chemical, 
# crystal, experimental, refinement or atomic coordinate data resulting 
# from the CCDC's data processing and validation procedures.
#
#######################################################################

data_MUYNOJ
_symmetry_cell_setting           orthorhombic
_symmetry_space_group_name_H-M   'P 21 21 21'
_symmetry_Int_Tables_number      19
_space_group_name_Hall           'P 2ac 2ab'
loop_
_symmetry_equiv_pos_site_id
_symmetry_equiv_pos_as_xyz
1 x,y,z
2 1/2-x,-y,1/2+z
3 -x,1/2+y,1/2-z
4 1/2+x,1/2-y,-z
_cell_length_a                   12.556(2)
_cell_length_b                   9.313(1)
_cell_length_c                   16.679(3)
_cell_angle_alpha                90
_cell_angle_beta                 90
_cell_angle_gamma                90
_cell_volume                     1950.34
loop_
_atom_site_label
_atom_site_type_symbol
_atom_site_fract_x
_atom_site_fract_y
_atom_site_fract_z
Cu1 Cu 0.95552(10) 0.13158(14) 0.81145(7)
O1 O 0.7701(6) 0.1067(10) 0.8127(5)
O2 O 0.9550(6) 0.2197(7) 0.7044(4)
O3 O 1.0122(6) 0.4405(7) 0.7364(4)
N1 N 1.0058(6) 0.5352(8) 0.5936(4)
N2 N 1.0414(17) 0.8039(15) 0.6176(8)
C1 C 0.9845(6) 0.3444(11) 0.6840(6)
C2 C 0.9932(8) 0.3829(11) 0.5990(6)
H1 H 0.9285(8) 0.3536(11) 0.5705(6)
C3 C 1.0912(9) 0.2975(12) 0.5655(6)
H2 H 1.1540(9) 0.3249(12) 0.5958(6)
H3 H 1.0793(9) 0.1959(12) 0.5745(6)
C4 C 1.1133(10) 0.3205(15) 0.4783(8)
C5 C 1.2269(10) 0.2538(18) 0.4589(8)
H4 H 1.2377(28) 0.2523(80) 0.4019(9)
H5 H 1.2304(24) 0.1576(35) 0.4795(42)
H6 H 1.2813(11) 0.3111(51) 0.4836(40)
C6 C 1.0280(10) 0.2588(15) 0.4231(6)
H7 H 1.0519(28) 0.2642(77) 0.3685(7)
H8 H 0.9634(21) 0.3131(56) 0.4290(35)
H9 H 1.0149(45) 0.1604(30) 0.4371(31)
C7 C 0.9650(8) 0.6097(11) 0.5353(6)
O4 O 0.9132(7) 0.5628(8) 0.4757(5)
C8 C 0.9879(9) 0.7745(12) 0.5408(6)
C9 C 0.8808(12) 0.8522(17) 0.5437(9)
H10 H 0.8926(12) 0.9539(18) 0.5470(44)
H11 H 0.8416(27) 0.8208(62) 0.5899(28)
H12 H 0.8410(28) 0.8307(67) 0.4961(25)
C10 C 1.0553(15) 0.8163(16) 0.4691(7)
H13 H 1.1248(39) 0.775(12) 0.4742(42)
H14 H 1.0615(91) 0.9190(17) 0.4667(47)
H15 H 1.0221(59) 0.782(13) 0.4209(10)
C12 C 0.7066(26) -0.0174(37) 0.7454(20)
H16 H 1.0823(78) 0.806(13) 0.6092(70)
H17 H 1.0106(82) 0.876(13) 0.6208(65)
H18 H 1.1064(80) 0.430(13) 0.4730(64)
O3B O 0.9878(6) -0.0595(7) 0.7636(4)
N1B N 0.9942(6) 0.0352(8) 0.9064(4)
N2B N 0.9586(17) 0.3039(15) 0.8824(8)
Cu1B Cu 1.04448(10) 0.63158(14) 0.68855(7)
H16B H 0.9177(78) 0.306(13) 0.8908(70)
H17B H 0.9894(82) 0.376(13) 0.8792(65)
O5 O 0.2142(8) 0.1255(14) 0.1395(6)
C11 C 0.2099(22) -0.0071(33) 0.2011(16)
loop_
_geom_bond_atom_site_label_1
_geom_bond_atom_site_label_2
_geom_bond_site_symmetry_1
_geom_bond_site_symmetry_2
Cu1 O1 1_555 1_555
O1 C12 1_555 1_555
O2 Cu1 1_555 1_555
O3 C1 1_555 1_555
N1 C2 1_555 1_555
N2 C8 1_555 1_555
C1 O2 1_555 1_555
C2 C1 1_555 1_555
H1 C2 1_555 1_555
C3 C2 1_555 1_555
H2 C3 1_555 1_555
H3 C3 1_555 1_555
C4 C3 1_555 1_555
C5 C4 1_555 1_555
H4 C5 1_555 1_555
H5 C5 1_555 1_555
H6 C5 1_555 1_555
C6 C4 1_555 1_555
H7 C6 1_555 1_555
H8 C6 1_555 1_555
H9 C6 1_555 1_555
C7 N1 1_555 1_555
O4 C7 1_555 1_555
C8 C7 1_555 1_555
C9 C8 1_555 1_555
H10 C9 1_555 1_555
H11 C9 1_555 1_555
H12 C9 1_555 1_555
C10 C8 1_555 1_555
H13 C10 1_555 1_555
H14 C10 1_555 1_555
H15 C10 1_555 1_555
O5 C11 1_555 1_555
H16 N2 1_555 1_555
H17 N2 1_555 1_555
H18 C4 1_555 1_555
O3B Cu1 1_555 1_555
N1B Cu1 1_555 1_555
N2B Cu1 1_555 1_555
Cu1B O3 1_555 1_555
H16B N2B 1_555 1_555
H17B N2B 1_555 1_555
N1 Cu1B 1_555 1_555
N2 Cu1B 1_555 1_555

#END
