
#######################################################################
#
#                 Cambridge Crystallographic Data Centre
#                                CCDC 
#
#######################################################################
#
# If this CIF has been generated from an entry in the Cambridge 
# Structural Database, then it will include bibliographic, chemical, 
# crystal, experimental, refinement or atomic coordinate data resulting 
# from the CCDC's data processing and validation procedures.
#
#######################################################################

data_MUYNID
_symmetry_cell_setting           orthorhombic
_symmetry_space_group_name_H-M   'P 21 21 21'
_symmetry_Int_Tables_number      19
_space_group_name_Hall           'P 2ac 2ab'
loop_
_symmetry_equiv_pos_site_id
_symmetry_equiv_pos_as_xyz
1 x,y,z
2 1/2-x,-y,1/2+z
3 -x,1/2+y,1/2-z
4 1/2+x,1/2-y,-z
_cell_length_a                   7.914(9)
_cell_length_b                   10.09(1)
_cell_length_c                   11.28(1)
_cell_angle_alpha                90
_cell_angle_beta                 90
_cell_angle_gamma                90
_cell_volume                     900.733
loop_
_atom_site_label
_atom_site_type_symbol
_atom_site_fract_x
_atom_site_fract_y
_atom_site_fract_z
Cu1 Cu 0.07996(5) 0.23958(4) 0.86933(3)
O1 O -0.1117(4) 0.2328(3) 0.9880(2)
O2 O -0.3198(4) 0.1040(3) 1.0533(3)
O3 O 0.0656(4) -0.1378(3) 0.7591(2)
N1 N 0.0045(4) 0.0651(3) 0.8367(3)
N2 N 0.2773(5) 0.1801(4) 0.7694(4)
C1 C -0.1939(5) 0.1267(4) 0.9872(3)
C2 C -0.1419(5) 0.0186(4) 0.9013(3)
C3 C 0.0947(4) -0.0160(4) 0.7736(3)
C4 C 0.2493(5) 0.0481(4) 0.7144(3)
C5 C 0.2107(9) 0.0673(7) 0.5838(4)
C6 C 0.4017(7) -0.0418(8) 0.7288(7)
H1 H 0.3312(96) 0.2333(73) 0.7460(59)
H2 H -0.1049(70) -0.0647(54) 0.9520(45)
H3 H -0.2357(77) 0.0000(63) 0.8477(45)
H4 H 0.1688(74) -0.0011(67) 0.5455(54)
H5 H 0.304(10) 0.1125(76) 0.5460(67)
H6 H 0.1296(80) 0.1374(67) 0.5716(52)
H7 H 0.4284(87) -0.0123(73) 0.7781(58)
H8 H 0.5072(94) -0.0130(70) 0.6822(60)
H9 H 0.402(13) -0.113(10) 0.6822(85)
O2C O 0.1802(4) 0.3960(3) 0.9467(3)
O3B O -0.0656(4) 0.3622(3) 0.7409(2)
Cu1C Cu -0.42004(5) 0.26042(4) 1.13067(3)
Cu1B Cu -0.07996(5) -0.26042(4) 0.63067(3)
O4 O 0.2755(8) -0.3313(6) 0.8649(7)
H10 H 0.250(19) -0.413(16) 0.865(13)
H11 H 0.211(19) -0.263(13) 0.860(11)
loop_
_geom_bond_atom_site_label_1
_geom_bond_atom_site_label_2
_geom_bond_site_symmetry_1
_geom_bond_site_symmetry_2
Cu1 O1 1_555 1_555
O1 C1 1_555 1_555
O2 C1 1_555 1_555
O3 C3 1_555 1_555
N1 Cu1 1_555 1_555
N2 Cu1 1_555 1_555
C1 C2 1_555 1_555
C2 N1 1_555 1_555
C3 N1 1_555 1_555
C4 N2 1_555 1_555
C5 C4 1_555 1_555
C6 C4 1_555 1_555
O4 H10 1_555 1_555
H1 N2 1_555 1_555
H2 C2 1_555 1_555
H3 C2 1_555 1_555
H4 C5 1_555 1_555
H5 C5 1_555 1_555
H6 C5 1_555 1_555
H7 C6 1_555 1_555
H8 C6 1_555 1_555
H9 C6 1_555 1_555
H11 O4 1_555 1_555
O2C Cu1 1_555 1_555
O3B Cu1 1_555 1_555
Cu1C O2 1_555 1_555
Cu1B O3 1_555 1_555
C3 C4 1_555 1_555

#END
