
#######################################################################
#
#                 Cambridge Crystallographic Data Centre
#                                CCDC 
#
#######################################################################
#
# If this CIF has been generated from an entry in the Cambridge 
# Structural Database, then it will include bibliographic, chemical, 
# crystal, experimental, refinement or atomic coordinate data resulting 
# from the CCDC's data processing and validation procedures.
#
#######################################################################

data_MUZCAM01
_symmetry_cell_setting           monoclinic
_symmetry_space_group_name_H-M   'C 2/c'
_symmetry_Int_Tables_number      15
_space_group_name_Hall           '-C 2yn'
loop_
_symmetry_equiv_pos_site_id
_symmetry_equiv_pos_as_xyz
1 x,y,z
2 -x,y,1/2-z
3 1/2+x,1/2+y,z
4 1/2-x,1/2+y,1/2-z
5 -x,-y,-z
6 x,-y,1/2+z
7 1/2-x,1/2-y,-z
8 1/2+x,1/2-y,1/2+z
_cell_length_a                   17.4001(16)
_cell_length_b                   9.4537(8)
_cell_length_c                   16.6235(13)
_cell_angle_alpha                90
_cell_angle_beta                 117.798(6)
_cell_angle_gamma                90
_cell_volume                     2418.92
loop_
_atom_site_label
_atom_site_type_symbol
_atom_site_fract_x
_atom_site_fract_y
_atom_site_fract_z
C1 C 0.3225(7) -0.1361(11) 0.7983(7)
H1 H 0.2865 -0.0826 0.7476
C2 C 0.4556(7) -0.1650(11) 0.9286(7)
H2 H 0.5112 -0.1329 0.9676
C3 C 0.2926(7) -0.2597(11) 0.8155(7)
H3 H 0.2373 -0.2922 0.7756
C4 C 0.4254(8) -0.2887(11) 0.9466(8)
H4 H 0.4612 -0.3417 0.9976
C5 C 0.3435(9) -0.3346(12) 0.8903(8)
H5 H 0.3228 -0.4174 0.9036
C6 C 0.3502(7) -0.1721(8) 0.6018(6)
C7 C 0.3192(7) -0.2794(10) 0.4365(7)
C8 C 0.2189(6) -0.0608(9) 0.4523(6)
N1 N 0.4036(6) -0.0907(8) 0.8538(5)
N2 N 0.4089(5) -0.1194(7) 0.6612(5)
N3 N 0.3589(6) -0.2986(10) 0.3987(6)
N4 N 0.2017(6) 0.0541(9) 0.4271(6)
O1 O 0.4326(4) 0.0301(7) 0.8365(4)
O2 O 0.6330(5) 0.1742(9) 0.8829(6)
O3 O 0.4512(5) 0.3111(8) 0.7990(6)
Fe1 Fe 0.2500 -0.2500 0.5000
Nd1 Nd 0.5000 0.09597(7) 0.7500
H6 H 0.659(8) 0.250(13) 0.890(7)
H7 H 0.661(5) 0.137(8) 0.919(5)
H8 H 0.437(6) 0.308(10) 0.835(6)
H9 H 0.463(10) 0.404(6) 0.785(9)
C1A C 0.6775(7) -0.1361(11) 0.7017(7)
H1A H 0.7135 -0.0826 0.7524
C2A C 0.5444(7) -0.1650(11) 0.5714(7)
H2A H 0.4888 -0.1329 0.5324
C3A C 0.7074(7) -0.2597(11) 0.6845(7)
H3A H 0.7627 -0.2922 0.7244
C4A C 0.5746(8) -0.2887(11) 0.5534(8)
H4A H 0.5388 -0.3417 0.5024
C5A C 0.6565(9) -0.3346(12) 0.6097(8)
H5A H 0.6772 -0.4174 0.5964
C6F C 0.1498(7) -0.3279(8) 0.3982(6)
C6A C 0.6498(7) -0.1721(8) 0.8982(6)
C7F C 0.1808(7) -0.2206(10) 0.5635(7)
C8F C 0.2811(6) -0.4392(9) 0.5477(6)
N1A N 0.5964(6) -0.0907(8) 0.6462(5)
N2A N 0.5911(5) -0.1194(7) 0.8388(5)
N3F N 0.1411(6) -0.2014(10) 0.6013(6)
N4F N 0.2983(6) -0.5541(9) 0.5729(6)
O1A O 0.5674(4) 0.0301(7) 0.6635(4)
O2A O 0.3670(5) 0.1742(9) 0.6171(6)
O3A O 0.5488(5) 0.3111(8) 0.7010(6)
Fe1A Fe 0.7500 -0.2500 1.0000
H6A H 0.341(8) 0.250(13) 0.610(7)
H7A H 0.339(5) 0.137(8) 0.581(5)
H8A H 0.563(6) 0.308(10) 0.665(6)
H9A H 0.537(10) 0.404(6) 0.715(9)
O4 O 0.5000 0.5717(12) 0.7500
H10 H 0.51(2) 0.62(2) 0.789(16)
H10A H 0.49(2) 0.62(2) 0.711(16)
loop_
_geom_bond_atom_site_label_1
_geom_bond_atom_site_label_2
_geom_bond_site_symmetry_1
_geom_bond_site_symmetry_2
C1 H1 1_555 1_555
C2 H2 1_555 1_555
C3 C1 1_555 1_555
H3 C3 1_555 1_555
C4 C2 1_555 1_555
H4 C4 1_555 1_555
C5 C3 1_555 1_555
H5 C5 1_555 1_555
C6 N2 1_555 1_555
C7 N3 1_555 1_555
C8 N4 1_555 1_555
N1 C1 1_555 1_555
N2 Nd1 1_555 1_555
O1 N1 1_555 1_555
O2 Nd1 1_555 1_555
O3 Nd1 1_555 1_555
O4 H10 1_555 1_555
Fe1 C6 1_555 1_555
Nd1 O1 1_555 1_555
H6 O2 1_555 1_555
H7 O2 1_555 1_555
H8 O3 1_555 1_555
H9 O3 1_555 1_555
C1A H1A 1_555 1_555
C2A H2A 1_555 1_555
C3A C1A 1_555 1_555
H3A C3A 1_555 1_555
C4A C2A 1_555 1_555
H4A C4A 1_555 1_555
C5A C3A 1_555 1_555
H5A C5A 1_555 1_555
C6F Fe1 1_555 1_555
C6A N2A 1_555 1_555
C7F Fe1 1_555 1_555
C8F Fe1 1_555 1_555
N1A C1A 1_555 1_555
N2A Nd1 1_555 1_555
N3F C7F 1_555 1_555
N4F C8F 1_555 1_555
O1A Nd1 1_555 1_555
O2A Nd1 1_555 1_555
O3A Nd1 1_555 1_555
Fe1A C6A 1_555 1_555
H6A O2A 1_555 1_555
H7A O2A 1_555 1_555
H8A O3A 1_555 1_555
H9A O3A 1_555 1_555
H10A O4 1_555 1_555
C2 N1 1_555 1_555
C4 C5 1_555 1_555
C7 Fe1 1_555 1_555
C8 Fe1 1_555 1_555
C2A N1A 1_555 1_555
C4A C5A 1_555 1_555
N1A O1A 1_555 1_555

#END
