
#######################################################################
#
#                 Cambridge Crystallographic Data Centre
#                                CCDC 
#
#######################################################################
#
# If this CIF has been generated from an entry in the Cambridge 
# Structural Database, then it will include bibliographic, chemical, 
# crystal, experimental, refinement or atomic coordinate data resulting 
# from the CCDC's data processing and validation procedures.
#
#######################################################################

data_MUZCOA
_symmetry_cell_setting           orthorhombic
_symmetry_space_group_name_H-M   'P b c n'
_symmetry_Int_Tables_number      60
_space_group_name_Hall           '-P 2n 2ab'
loop_
_symmetry_equiv_pos_site_id
_symmetry_equiv_pos_as_xyz
1 x,y,z
2 1/2-x,1/2-y,1/2+z
3 -x,y,1/2-z
4 1/2+x,1/2-y,-z
5 -x,-y,-z
6 1/2+x,1/2+y,1/2-z
7 x,-y,1/2+z
8 1/2-x,1/2+y,z
_cell_length_a                   12.5190(9)
_cell_length_b                   16.1310(12)
_cell_length_c                   14.1764(10)
_cell_angle_alpha                90
_cell_angle_beta                 90
_cell_angle_gamma                90
_cell_volume                     2862.84
loop_
_atom_site_label
_atom_site_type_symbol
_atom_site_fract_x
_atom_site_fract_y
_atom_site_fract_z
Cd1 Cd 0.5000 0.11972(6) 0.2500
Fe1 Fe 1.0000 -0.00792(7) 0.2500
O1 O 0.5586(5) 0.1043(5) 0.0879(4)
O2 O 0.6128(4) 0.0150(4) 0.1932(3)
O3 O 0.8267(4) 0.1036(3) 0.0772(3)
N1 N 0.0926(6) 0.3162(6) 0.1001(6)
H1 H 0.0433 0.3307 0.1390
H2 H 0.0865 0.3279 0.0411
C1 C 0.6106(6) 0.0406(7) 0.1097(6)
C2 C 0.6678(6) -0.0071(5) 0.0344(5)
H3 H 0.6767 0.0281 -0.0205
H4 H 0.6242 -0.0541 0.0159
C3 C 0.7758(6) -0.0380(5) 0.0657(4)
H5 H 0.7671 -0.0707 0.1227
H6 H 0.8046 -0.0741 0.0173
C4 C 0.8547(6) 0.0307(5) 0.0847(4)
C5 C 0.9631(3) 0.0080(2) 0.11264(17)
C6 C 1.0420(3) 0.0668(2) 0.1411(2)
H7 H 1.0346 0.1273 0.1392
C7 C 1.1336(3) 0.0221(3) 0.1731(2)
H8 H 1.1994 0.0465 0.1980
C8 C 1.1112(3) -0.0644(3) 0.1643(2)
H9 H 1.1590 -0.1098 0.1825
C9 C 1.0059(3) -0.0731(2) 0.1270(3)
H10 H 0.9691 -0.1255 0.1141
N2 N 0.3614(3) 0.19701(18) 0.19737(19)
C10 C 0.3519(3) 0.2155(2) 0.10436(19)
H11 H 0.4067 0.2020 0.0628
C11 C 0.2626(3) 0.2537(3) 0.0720(2)
H12 H 0.2561 0.2663 0.0083
C12 C 0.1827(3) 0.2734(2) 0.1327(2)
C13 C 0.1921(3) 0.2549(2) 0.2257(2)
H13 H 0.1374 0.2684 0.2673
C14 C 0.2815(3) 0.2167(2) 0.2580(2)
H14 H 0.2880 0.2041 0.3218
Cd1_2 Cd 1.5000 0.11972(6) 0.2500
O1B O 0.4414(5) 0.1043(5) 0.4121(4)
O1B_2 O 1.4414(5) 0.1043(5) 0.4121(4)
O2B O 0.3872(4) 0.0150(4) 0.3068(3)
O2B_2 O 1.3872(4) 0.0150(4) 0.3068(3)
O3B O 1.1733(4) 0.1036(3) 0.4228(3)
N1B N 0.9074(6) 0.3162(6) 0.3999(6)
H1B H 0.9567 0.3307 0.3610
H2B H 0.9135 0.3279 0.4589
C1B C 1.3894(6) 0.0406(7) 0.3903(6)
C2B C 1.3322(6) -0.0071(5) 0.4656(5)
H3B H 1.3233 0.0281 0.5205
H4B H 1.3758 -0.0541 0.4841
C3B C 1.2242(6) -0.0380(5) 0.4343(4)
H5B H 1.2329 -0.0707 0.3773
H6B H 1.1954 -0.0741 0.4827
C4B C 1.1453(6) 0.0307(5) 0.4153(4)
C5B C 1.0369(3) 0.0080(2) 0.38736(17)
C6B C 0.9580(3) 0.0668(2) 0.3589(2)
H7B H 0.9654 0.1273 0.3608
C7B C 0.8664(3) 0.0221(3) 0.3269(2)
H8B H 0.8006 0.0465 0.3020
C8B C 0.8888(3) -0.0644(3) 0.3357(2)
H9B H 0.8410 -0.1098 0.3175
C9B C 0.9941(3) -0.0731(2) 0.3730(3)
H10B H 1.0309 -0.1255 0.3859
N2B N 0.6386(3) 0.19701(18) 0.30263(19)
C10B C 0.6481(3) 0.2155(2) 0.39564(19)
H11B H 0.5933 0.2020 0.4372
C11B C 0.7374(3) 0.2537(3) 0.4280(2)
H12B H 0.7439 0.2663 0.4917
C12B C 0.8173(3) 0.2734(2) 0.3673(2)
C13B C 0.8079(3) 0.2549(2) 0.2743(2)
H13B H 0.8626 0.2684 0.2327
C14B C 0.7185(3) 0.2167(2) 0.2420(2)
H14B H 0.7120 0.2041 0.1782
O4 O 0.5000 0.8924(6) 0.2500
H15 H 0.5393 0.8621 0.2124
H15B H 0.4607 0.8621 0.2876
loop_
_geom_bond_atom_site_label_1
_geom_bond_atom_site_label_2
_geom_bond_site_symmetry_1
_geom_bond_site_symmetry_2
Cd1 O1 1_555 1_555
Fe1 C5 1_555 1_555
O1 C1 1_555 1_555
O2 Cd1 1_555 1_555
O3 C4 1_555 1_555
O4 H15 1_555 1_555
N1 H1 1_555 1_555
H2 N1 1_555 1_555
C1 O2 1_555 1_555
C2 C1 1_555 1_555
H3 C2 1_555 1_555
H4 C2 1_555 1_555
C3 C2 1_555 1_555
H5 C3 1_555 1_555
H6 C3 1_555 1_555
C4 C3 1_555 1_555
C5 C4 1_555 1_555
C6 Fe1 1_555 1_555
H7 C6 1_555 1_555
C7 Fe1 1_555 1_555
H8 C7 1_555 1_555
C8 Fe1 1_555 1_555
H9 C8 1_555 1_555
C9 Fe1 1_555 1_555
H10 C9 1_555 1_555
N2 Cd1 1_555 1_555
C10 N2 1_555 1_555
H11 C10 1_555 1_555
C11 C10 1_555 1_555
H12 C11 1_555 1_555
C12 N1 1_555 1_555
C13 C12 1_555 1_555
H13 C13 1_555 1_555
C14 N2 1_555 1_555
H14 C14 1_555 1_555
Cd1_2 O1B_2 1_555 1_555
O1B Cd1 1_555 1_555
O1B_2 C1B 1_555 1_555
O2B Cd1 1_555 1_555
O2B_2 Cd1_2 1_555 1_555
O3B C4B 1_555 1_555
N1B H1B 1_555 1_555
H2B N1B 1_555 1_555
C1B O2B_2 1_555 1_555
C2B C1B 1_555 1_555
H3B C2B 1_555 1_555
H4B C2B 1_555 1_555
C3B C2B 1_555 1_555
H5B C3B 1_555 1_555
H6B C3B 1_555 1_555
C4B C3B 1_555 1_555
C5B Fe1 1_555 1_555
C6B Fe1 1_555 1_555
H7B C6B 1_555 1_555
C7B Fe1 1_555 1_555
H8B C7B 1_555 1_555
C8B Fe1 1_555 1_555
H9B C8B 1_555 1_555
C9B Fe1 1_555 1_555
H10B C9B 1_555 1_555
N2B Cd1 1_555 1_555
C10B N2B 1_555 1_555
H11B C10B 1_555 1_555
C11B C10B 1_555 1_555
H12B C11B 1_555 1_555
C12B N1B 1_555 1_555
C13B C12B 1_555 1_555
H13B C13B 1_555 1_555
C14B N2B 1_555 1_555
H14B C14B 1_555 1_555
H15B O4 1_555 1_555
C5 C6 1_555 1_555
C5 C9 1_555 1_555
C6 C7 1_555 1_555
C7 C8 1_555 1_555
C8 C9 1_555 1_555
C11 C12 1_555 1_555
C13 C14 1_555 1_555
C4B C5B 1_555 1_555
C5B C6B 1_555 1_555
C5B C9B 1_555 1_555
C6B C7B 1_555 1_555
C7B C8B 1_555 1_555
C8B C9B 1_555 1_555
C11B C12B 1_555 1_555
C13B C14B 1_555 1_555

#END
