
#######################################################################
#
#                 Cambridge Crystallographic Data Centre
#                                CCDC 
#
#######################################################################
#
# If this CIF has been generated from an entry in the Cambridge 
# Structural Database, then it will include bibliographic, chemical, 
# crystal, experimental, refinement or atomic coordinate data resulting 
# from the CCDC's data processing and validation procedures.
#
#######################################################################

data_MUZCUG
_symmetry_cell_setting           triclinic
_symmetry_space_group_name_H-M   'P -1'
_symmetry_Int_Tables_number      2
_space_group_name_Hall           '-P 1'
loop_
_symmetry_equiv_pos_site_id
_symmetry_equiv_pos_as_xyz
1 x,y,z
2 -x,-y,-z
_cell_length_a                   10.0223(13)
_cell_length_b                   15.819(2)
_cell_length_c                   15.987(2)
_cell_angle_alpha                63.372(2)
_cell_angle_beta                 76.675(2)
_cell_angle_gamma                76.634(2)
_cell_volume                     2180.84
loop_
_atom_site_label
_atom_site_type_symbol
_atom_site_fract_x
_atom_site_fract_y
_atom_site_fract_z
O1 O 0.7619(7) 0.7179(5) 0.3913(4)
H1 H 0.6836 0.7222 0.3707
H46 H 0.7619 0.6823 0.4541
Cd1 Cd 0.59347(5) 0.65037(3) 0.73469(3)
Fe1 Fe 0.12457(11) 0.80741(6) 1.10146(6)
O2 O 0.6949(6) 0.5696(3) 0.8852(3)
O3 O 0.5144(4) 0.6808(3) 0.8703(3)
O4 O 0.4607(6) 0.8148(5) 0.9631(5)
O5 O 0.2859(6) 0.4889(3) 1.2815(3)
O6 O 0.3245(6) 0.3789(4) 1.4169(4)
O7 O 0.3546(7) 0.6756(5) 1.3008(5)
N1 N 0.7831(5) 0.7376(3) 0.6828(3)
N2 N 0.9931(5) 0.7749(3) 0.6112(3)
N3 N 1.4786(5) 0.7926(3) 0.6259(3)
N4 N 1.3989(5) 0.8898(3) 0.4897(3)
N5 N 0.3694(5) 0.6032(4) 0.7766(3)
N6 N 0.1456(5) 0.6111(3) 0.8373(3)
C1 C 0.6049(8) 0.6213(5) 0.9174(4)
C2 C 0.6133(9) 0.6179(6) 1.0117(5)
H3 H 0.6781 0.6595 1.0020
H4 H 0.6508 0.5533 1.0517
C3 C 0.4829(9) 0.6456(7) 1.0616(5)
H5 H 0.4231 0.5983 1.0789
H6 H 0.5013 0.6426 1.1199
C4 C 0.4038(11) 0.7426(7) 1.0107(5)
C5 C 0.2566(9) 0.7486(5) 1.0190(5)
C6 C 0.1668(9) 0.8255(5) 0.9650(5)
H7 H 0.1943 0.8832 0.9104
C7 C 0.0329(10) 0.8055(6) 0.9999(6)
H8 H -0.0509 0.8474 0.9754
C8 C 0.0363(10) 0.7161(6) 1.0784(6)
H9 H -0.0444 0.6851 1.1174
C9 C 0.1738(10) 0.6790(5) 1.0901(5)
H10 H 0.2079 0.6171 1.1383
C10 C 0.2798(7) 0.4618(5) 1.3670(5)
C11 C 0.2199(9) 0.5296(5) 1.4165(5)
H11 H 0.2171 0.5075 1.4847
C12 C 0.1321(10) 0.6235(6) 1.3583(7)
C13 C 0.2305(9) 0.6962(6) 1.2939(6)
C14 C 0.1586(10) 0.7864(5) 1.2317(5)
C15 C 0.0200(10) 0.8232(5) 1.2191(5)
H12 H -0.0608 0.7929 1.2591
C16 C 0.0165(9) 0.9156(5) 1.1367(6)
H13 H -0.0661 0.9589 1.1114
C17 C 0.1549(10) 0.9309(5) 1.1028(6)
H14 H 0.1869 0.9865 1.0475
C18 C 0.2376(9) 0.8545(6) 1.1593(5)
H15 H 0.3391 0.8469 1.1493
C19 C 0.8909(7) 0.7275(4) 0.6213(4)
H16 H 0.8960 0.6911 0.5881
C20 C 0.8165(6) 0.7971(4) 0.7160(4)
C21 C 0.7423(7) 0.8308(4) 0.7828(4)
H17 H 0.6544 0.8156 0.8129
C22 C 0.8045(7) 0.8872(5) 0.8022(5)
H18 H 0.7569 0.9116 0.8457
C23 C 0.9387(8) 0.9093(5) 0.7581(5)
H19 H 0.9778 0.9470 0.7740
C24 C 1.0128(7) 0.8765(5) 0.6921(5)
H20 H 1.1009 0.8915 0.6624
C25 C 0.9494(6) 0.8194(4) 0.6722(4)
C26 C 1.1289(6) 0.7751(5) 0.5503(4)
H21 H 1.1515 0.7169 0.5404
H22 H 1.1999 0.7755 0.5823
C27 C 1.1295(7) 0.8608(5) 0.4551(4)
H23 H 1.1069 0.9188 0.4653
H24 H 1.0580 0.8604 0.4236
C28 C 1.4708(6) 0.8059(4) 0.5400(4)
H25 H 1.5119 0.7608 0.5160
C29 C 1.4056(6) 0.8763(4) 0.6335(4)
C30 C 1.3794(6) 0.9030(5) 0.7078(4)
H26 H 1.4111 0.8622 0.7650
C31 C 1.3050(7) 0.9916(5) 0.6944(5)
H27 H 1.2839 1.0105 0.7439
C32 C 1.2603(7) 1.0540(5) 0.6070(5)
H28 H 1.2138 1.1146 0.5992
C33 C 1.2831(6) 1.0284(5) 0.5326(5)
H29 H 1.2507 1.0692 0.4756
C34 C 1.3564(6) 0.9392(4) 0.5471(4)
C35 C 1.3648(7) 0.9211(5) 0.3943(4)
H30 H 1.4500 0.9175 0.3517
H31 H 1.3218 0.9875 0.3720
C36 C 1.2687(6) 0.8626(5) 0.3906(4)
H32 H 1.3154 0.7974 0.4076
H33 H 1.2511 0.8876 0.3259
C37 C 0.2699(7) 0.6313(4) 0.8326(4)
H34 H 0.2851 0.6625 0.8662
C38 C 0.3037(7) 0.5605(5) 0.7411(4)
C39 C 0.3570(9) 0.5187(5) 0.6781(5)
H35 H 0.4503 0.5157 0.6524
C40 C 0.2665(11) 0.4821(6) 0.6552(6)
H36 H 0.3000 0.4524 0.6142
C41 C 0.1282(11) 0.4880(6) 0.6908(6)
H37 H 0.0701 0.4640 0.6717
C42 C 0.0720(8) 0.5290(5) 0.7548(5)
H38 H -0.0214 0.5321 0.7801
C43 C 0.1634(7) 0.5644(4) 0.7780(4)
C44 C 0.0182(6) 0.6281(4) 0.8986(4)
H39 H -0.0614 0.6346 0.8702
H40 H 0.0160 0.6878 0.9027
C45 C 0.0075(6) 0.5480(4) 0.9978(4)
H41 H -0.0718 0.5671 1.0368
H42 H 0.0897 0.5397 1.0245
Cd1A Cd 0.40653(5) 0.34963(3) 1.26531(3)
Cd1_2 Cd 1.59347(5) 0.65037(3) 0.73469(3)
Cd1A_2 Cd -0.59347(5) 0.34963(3) 1.26531(3)
Cd1_3 Cd -0.40653(5) 0.65037(3) 0.73469(3)
Fe1A Fe 0.87543(11) 0.19259(6) 0.89854(6)
O2A O 0.3051(6) 0.4304(3) 1.1148(3)
O3A O 0.4856(4) 0.3192(3) 1.1297(3)
O4A O 0.5393(6) 0.1852(5) 1.0369(5)
O5A O 0.7141(6) 0.5111(3) 0.7185(3)
O6A O 0.6755(6) 0.6211(4) 0.5831(4)
O7A O 0.6454(7) 0.3244(5) 0.6992(5)
N1_2 N -0.2169(5) 0.7376(3) 0.6828(3)
N1A N 0.2169(5) 0.2624(3) 1.3172(3)
N2_2 N -0.0069(5) 0.7749(3) 0.6112(3)
N3_2 N 0.4786(5) 0.7926(3) 0.6259(3)
N3A N 0.5214(5) 0.2074(3) 1.3741(3)
N4_2 N 0.3989(5) 0.8898(3) 0.4897(3)
N5A N -0.3694(5) 0.3968(4) 1.2234(3)
N5A_2 N 0.6306(5) 0.3968(4) 1.2234(3)
N6A N -0.1456(5) 0.3889(3) 1.1627(3)
C1A C 0.3951(8) 0.3787(5) 1.0826(4)
C2A C 0.3867(9) 0.3821(6) 0.9883(5)
H3A H 0.3219 0.3405 0.9980
H4A H 0.3492 0.4467 0.9483
C3A C 0.5171(9) 0.3544(7) 0.9384(5)
H5A H 0.5769 0.4017 0.9211
H6A H 0.4987 0.3574 0.8801
C4A C 0.5962(11) 0.2574(7) 0.9893(5)
C5A C 0.7434(9) 0.2514(5) 0.9810(5)
C6A C 0.8332(9) 0.1745(5) 1.0350(5)
H7A H 0.8057 0.1168 1.0896
C7A C 0.9671(10) 0.1945(6) 1.0001(6)
H8A H 1.0509 0.1526 1.0246
C8A C 0.9637(10) 0.2839(6) 0.9216(6)
H9A H 1.0444 0.3149 0.8826
C9A C 0.8262(10) 0.3210(5) 0.9099(5)
H10A H 0.7921 0.3829 0.8617
C10A C 0.7202(7) 0.5382(5) 0.6330(5)
C11A C 0.7801(9) 0.4704(5) 0.5835(5)
H11A H 0.7829 0.4925 0.5153
C12A C 0.8679(10) 0.3765(6) 0.6417(7)
C13A C 0.7695(9) 0.3038(6) 0.7061(6)
C14A C 0.8414(10) 0.2136(5) 0.7683(5)
C15A C 0.9800(10) 0.1768(5) 0.7809(5)
H12A H 1.0608 0.2071 0.7409
C16A C 0.9835(9) 0.0844(5) 0.8633(6)
H13A H 1.0661 0.0411 0.8886
C17A C 0.8451(10) 0.0691(5) 0.8972(6)
H14A H 0.8131 0.0135 0.9525
C18A C 0.7624(9) 0.1455(6) 0.8407(5)
H15A H 0.6609 0.1531 0.8507
C19_2 C -0.1091(7) 0.7275(4) 0.6213(4)
H16_2 H -0.1040 0.6911 0.5881
C20_2 C -0.1835(6) 0.7971(4) 0.7160(4)
C21_2 C -0.2577(7) 0.8308(4) 0.7828(4)
H17_2 H -0.3456 0.8156 0.8129
C22_2 C -0.1955(7) 0.8872(5) 0.8022(5)
H18_2 H -0.2431 0.9116 0.8457
C23_2 C -0.0613(8) 0.9093(5) 0.7581(5)
H19_2 H -0.0222 0.9470 0.7740
C24_2 C 0.0128(7) 0.8765(5) 0.6921(5)
H20_2 H 0.1009 0.8915 0.6624
C25_2 C -0.0506(6) 0.8194(4) 0.6722(4)
C26_2 C 0.1289(6) 0.7751(5) 0.5503(4)
H21_2 H 0.1515 0.7169 0.5404
H22_2 H 0.1999 0.7755 0.5823
C27_2 C 0.1295(7) 0.8608(5) 0.4551(4)
H23_2 H 0.1069 0.9188 0.4653
H24_2 H 0.0580 0.8604 0.4236
C28_2 C 0.4708(6) 0.8059(4) 0.5400(4)
H25_2 H 0.5119 0.7608 0.5160
C29_2 C 0.4056(6) 0.8763(4) 0.6335(4)
C30_2 C 0.3794(6) 0.9030(5) 0.7078(4)
H26_2 H 0.4111 0.8622 0.7650
C31_2 C 0.3050(7) 0.9916(5) 0.6944(5)
H27_2 H 0.2839 1.0105 0.7439
C32_2 C 0.2603(7) 1.0540(5) 0.6070(5)
H28_2 H 0.2138 1.1146 0.5992
C33_2 C 0.2831(6) 1.0284(5) 0.5326(5)
H29_2 H 0.2507 1.0692 0.4756
C34_2 C 0.3564(6) 0.9392(4) 0.5471(4)
C35_2 C 0.3648(7) 0.9211(5) 0.3943(4)
H30_2 H 0.4500 0.9175 0.3517
H31_2 H 0.3218 0.9875 0.3720
C36_2 C 0.2687(6) 0.8626(5) 0.3906(4)
H32_2 H 0.3154 0.7974 0.4076
H33_2 H 0.2511 0.8876 0.3259
C37A C -0.2699(7) 0.3687(4) 1.1674(4)
H34A H -0.2851 0.3375 1.1338
C38A C -0.3037(7) 0.4395(5) 1.2589(4)
C39A C -0.3570(9) 0.4813(5) 1.3219(5)
H35A H -0.4503 0.4843 1.3476
C40A C -0.2665(11) 0.5179(6) 1.3448(6)
H36A H -0.3000 0.5476 1.3858
C41A C -0.1282(11) 0.5120(6) 1.3092(6)
H37A H -0.0701 0.5360 1.3283
C42A C -0.0720(8) 0.4710(5) 1.2452(5)
H38A H 0.0214 0.4679 1.2199
C43A C -0.1634(7) 0.4356(4) 1.2220(4)
C44A C -0.0182(6) 0.3719(4) 1.1014(4)
H39A H 0.0614 0.3654 1.1298
H40A H -0.0160 0.3122 1.0973
C45A C -0.0075(6) 0.4520(4) 1.0022(4)
H41A H 0.0718 0.4329 0.9632
H42A H -0.0897 0.4603 0.9755
O8 O 0.5532(11) 0.9789(10) 0.0934(7)
H47 H 0.6358 0.9774 0.0973
H48 H 0.5230 1.0154 0.0370
O9 O 0.5846(12) 0.7969(8) 0.2487(8)
H2 H 0.6398 0.7770 0.2865
C46 C 0.650(2) 0.7787(17) 0.1664(14)
H43 H 0.7481 0.7611 0.1674
H44 H 0.6324 0.8354 0.1101
H45 H 0.6126 0.7277 0.1672
C47? C 0.743(2) 0.3705(9) 0.6548(12)
C48? C 0.875(2) 0.3063(10) 0.6836(11)
O10? O 0.9736(18) 0.3436(11) 0.6296(10)
loop_
_geom_bond_atom_site_label_1
_geom_bond_atom_site_label_2
_geom_bond_site_symmetry_1
_geom_bond_site_symmetry_2
O1 H1 1_555 1_555
Cd1 O2 1_555 1_555
Fe1 C5 1_555 1_555
O2 C1 1_555 1_555
O3 Cd1 1_555 1_555
O4 C4 1_555 1_555
O5 C10 1_555 1_555
O6 C10 1_555 1_555
O7 C13 1_555 1_555
O8 H47 1_555 1_555
O9 H2 1_555 1_555
N1 Cd1 1_555 1_555
N2 C19 1_555 1_555
N3 C28 1_555 1_555
N4 C28 1_555 1_555
N5 Cd1 1_555 1_555
N6 C37 1_555 1_555
C1 O3 1_555 1_555
C2 C1 1_555 1_555
H3 C2 1_555 1_555
H4 C2 1_555 1_555
C3 C2 1_555 1_555
H5 C3 1_555 1_555
H6 C3 1_555 1_555
C4 C3 1_555 1_555
C5 C4 1_555 1_555
C6 Fe1 1_555 1_555
H7 C6 1_555 1_555
C7 Fe1 1_555 1_555
H8 C7 1_555 1_555
C8 Fe1 1_555 1_555
H9 C8 1_555 1_555
C9 Fe1 1_555 1_555
H10 C9 1_555 1_555
C10 C11 1_555 1_555
C11 H11 1_555 1_555
C12 C11 1_555 1_555
C13 C12 1_555 1_555
C14 Fe1 1_555 1_555
C15 Fe1 1_555 1_555
H12 C15 1_555 1_555
C16 Fe1 1_555 1_555
H13 C16 1_555 1_555
C17 Fe1 1_555 1_555
H14 C17 1_555 1_555
C18 Fe1 1_555 1_555
H15 C18 1_555 1_555
C19 N1 1_555 1_555
H16 C19 1_555 1_555
C20 N1 1_555 1_555
C21 C20 1_555 1_555
H17 C21 1_555 1_555
C22 C21 1_555 1_555
H18 C22 1_555 1_555
C23 C22 1_555 1_555
H19 C23 1_555 1_555
C24 C23 1_555 1_555
H20 C24 1_555 1_555
C25 N2 1_555 1_555
C26 N2 1_555 1_555
H21 C26 1_555 1_555
H22 C26 1_555 1_555
C27 C26 1_555 1_555
H23 C27 1_555 1_555
H24 C27 1_555 1_555
C28 H25 1_555 1_555
C29 N3 1_555 1_555
C30 C29 1_555 1_555
H26 C30 1_555 1_555
C31 C30 1_555 1_555
H27 C31 1_555 1_555
C32 C31 1_555 1_555
H28 C32 1_555 1_555
C33 C32 1_555 1_555
H29 C33 1_555 1_555
C34 N4 1_555 1_555
C35 N4 1_555 1_555
H30 C35 1_555 1_555
H31 C35 1_555 1_555
C36 C27 1_555 1_555
H32 C36 1_555 1_555
H33 C36 1_555 1_555
C37 N5 1_555 1_555
H34 C37 1_555 1_555
C38 N5 1_555 1_555
C39 C38 1_555 1_555
H35 C39 1_555 1_555
C40 C39 1_555 1_555
H36 C40 1_555 1_555
C41 C40 1_555 1_555
H37 C41 1_555 1_555
C42 C41 1_555 1_555
H38 C42 1_555 1_555
C43 N6 1_555 1_555
C44 N6 1_555 1_555
H39 C44 1_555 1_555
H40 C44 1_555 1_555
C45 C44 1_555 1_555
H41 C45 1_555 1_555
H42 C45 1_555 1_555
C46 O9 1_555 1_555
H43 C46 1_555 1_555
H44 C46 1_555 1_555
H45 C46 1_555 1_555
H46 O1 1_555 1_555
H48 O8 1_555 1_555
Cd1A O5 1_555 1_555
Cd1_2 N3 1_555 1_555
Cd1A_2 N5A 1_555 1_555
Cd1_3 N1_2 1_555 1_555
Fe1A C5A 1_555 1_555
O2A Cd1A 1_555 1_555
O3A Cd1A 1_555 1_555
O4A C4A 1_555 1_555
O5A Cd1 1_555 1_555
O6A Cd1 1_555 1_555
O7A C13A 1_555 1_555
N1_2 C19_2 1_555 1_555
N1A Cd1A 1_555 1_555
N2_2 C19_2 1_555 1_555
N3_2 Cd1 1_555 1_555
N3A Cd1A 1_555 1_555
N4_2 C28_2 1_555 1_555
N5A C37A 1_555 1_555
N5A_2 Cd1A 1_555 1_555
N6A C37A 1_555 1_555
C1A O2A 1_555 1_555
C2A C1A 1_555 1_555
H3A C2A 1_555 1_555
H4A C2A 1_555 1_555
C3A C2A 1_555 1_555
H5A C3A 1_555 1_555
H6A C3A 1_555 1_555
C4A C3A 1_555 1_555
C5A C4A 1_555 1_555
C6A Fe1A 1_555 1_555
H7A C6A 1_555 1_555
C7A Fe1A 1_555 1_555
H8A C7A 1_555 1_555
C8A Fe1A 1_555 1_555
H9A C8A 1_555 1_555
C9A Fe1A 1_555 1_555
H10A C9A 1_555 1_555
C10A O5A 1_555 1_555
C11A C10A 1_555 1_555
H11A C11A 1_555 1_555
C12A C11A 1_555 1_555
C13A C12A 1_555 1_555
C14A Fe1A 1_555 1_555
C15A Fe1A 1_555 1_555
H12A C15A 1_555 1_555
C16A Fe1A 1_555 1_555
H13A C16A 1_555 1_555
C17A Fe1A 1_555 1_555
H14A C17A 1_555 1_555
C18A Fe1A 1_555 1_555
H15A C18A 1_555 1_555
C19_2 H16_2 1_555 1_555
C20_2 N1_2 1_555 1_555
C21_2 C20_2 1_555 1_555
H17_2 C21_2 1_555 1_555
C22_2 C21_2 1_555 1_555
H18_2 C22_2 1_555 1_555
C23_2 C22_2 1_555 1_555
H19_2 C23_2 1_555 1_555
C24_2 C23_2 1_555 1_555
H20_2 C24_2 1_555 1_555
C25_2 N2_2 1_555 1_555
C26_2 N2_2 1_555 1_555
H21_2 C26_2 1_555 1_555
H22_2 C26_2 1_555 1_555
C27_2 C26_2 1_555 1_555
H23_2 C27_2 1_555 1_555
H24_2 C27_2 1_555 1_555
C28_2 N3_2 1_555 1_555
H25_2 C28_2 1_555 1_555
C29_2 N3_2 1_555 1_555
C30_2 C29_2 1_555 1_555
H26_2 C30_2 1_555 1_555
C31_2 C30_2 1_555 1_555
H27_2 C31_2 1_555 1_555
C32_2 C31_2 1_555 1_555
H28_2 C32_2 1_555 1_555
C33_2 C32_2 1_555 1_555
H29_2 C33_2 1_555 1_555
C34_2 N4_2 1_555 1_555
C35_2 N4_2 1_555 1_555
H30_2 C35_2 1_555 1_555
H31_2 C35_2 1_555 1_555
C36_2 C27_2 1_555 1_555
H32_2 C36_2 1_555 1_555
H33_2 C36_2 1_555 1_555
C37A H34A 1_555 1_555
C38A N5A 1_555 1_555
C39A C38A 1_555 1_555
H35A C39A 1_555 1_555
C40A C39A 1_555 1_555
H36A C40A 1_555 1_555
C41A C40A 1_555 1_555
H37A C41A 1_555 1_555
C42A C41A 1_555 1_555
H38A C42A 1_555 1_555
C43A N6A 1_555 1_555
C44A N6A 1_555 1_555
H39A C44A 1_555 1_555
H40A C44A 1_555 1_555
C45A C45 1_555 1_555
H41A C45A 1_555 1_555
H42A C45A 1_555 1_555
O6 Cd1A 1_555 1_555
C5 C6 1_555 1_555
C5 C9 1_555 1_555
C6 C7 1_555 1_555
C7 C8 1_555 1_555
C8 C9 1_555 1_555
C13 C14 1_555 1_555
C14 C15 1_555 1_555
C14 C18 1_555 1_555
C15 C16 1_555 1_555
C16 C17 1_555 1_555
C17 C18 1_555 1_555
C20 C25 1_555 1_555
C24 C25 1_555 1_555
C29 C34 1_555 1_555
C33 C34 1_555 1_555
C35 C36 1_555 1_555
C38 C43 1_555 1_555
C42 C43 1_555 1_555
O3A C1A 1_555 1_555
O6A C10A 1_555 1_555
C5A C6A 1_555 1_555
C5A C9A 1_555 1_555
C6A C7A 1_555 1_555
C7A C8A 1_555 1_555
C8A C9A 1_555 1_555
C13A C14A 1_555 1_555
C14A C15A 1_555 1_555
C14A C18A 1_555 1_555
C15A C16A 1_555 1_555
C16A C17A 1_555 1_555
C17A C18A 1_555 1_555
C20_2 C25_2 1_555 1_555
C24_2 C25_2 1_555 1_555
C29_2 C34_2 1_555 1_555
C33_2 C34_2 1_555 1_555
C35_2 C36_2 1_555 1_555
C38A C43A 1_555 1_555
C42A C43A 1_555 1_555
C44A C45A 1_555 1_555

#END
