
#######################################################################
#
#                 Cambridge Crystallographic Data Centre
#                                CCDC 
#
#######################################################################
#
# If this CIF has been generated from an entry in the Cambridge 
# Structural Database, then it will include bibliographic, chemical, 
# crystal, experimental, refinement or atomic coordinate data resulting 
# from the CCDC's data processing and validation procedures.
#
#######################################################################

data_MUZCAM
_symmetry_cell_setting           monoclinic
_symmetry_space_group_name_H-M   'C 2/c'
_symmetry_Int_Tables_number      15
_space_group_name_Hall           '-C 2yn'
loop_
_symmetry_equiv_pos_site_id
_symmetry_equiv_pos_as_xyz
1 x,y,z
2 -x,y,1/2-z
3 1/2+x,1/2+y,z
4 1/2-x,1/2+y,1/2-z
5 -x,-y,-z
6 x,-y,1/2+z
7 1/2-x,1/2-y,-z
8 1/2+x,1/2-y,1/2+z
_cell_length_a                   17.4068(4)
_cell_length_b                   9.4583(2)
_cell_length_c                   16.6362(6)
_cell_angle_alpha                90
_cell_angle_beta                 117.7970(10)
_cell_angle_gamma                90
_cell_volume                     2422.9
loop_
_atom_site_label
_atom_site_type_symbol
_atom_site_fract_x
_atom_site_fract_y
_atom_site_fract_z
C1 C -0.14925(11) -0.17228(18) 0.60232(12)
C2 C -0.31826(12) -0.2219(2) 0.56361(12)
C3 C -0.28101(13) -0.0599(2) 0.45183(13)
C4 C 0.17664(15) -0.1366(3) 0.70182(16)
C5 C 0.04385(16) -0.1653(3) 0.57162(16)
C6 C 0.20698(16) -0.2592(3) 0.68392(18)
C7 C 0.07292(18) -0.2891(3) 0.55244(18)
C8 C 0.15501(18) -0.3366(3) 0.60860(18)
N1 N -0.09069(11) -0.12021(18) 0.66137(12)
N2 N -0.35823(12) -0.2009(2) 0.60076(13)
N3 N -0.29847(15) 0.0536(2) 0.42737(15)
N4 N 0.09628(12) -0.09081(15) 0.64567(12)
O1 O 0.04820(12) 0.31097(17) 0.70018(12)
O2 O 0.13466(11) 0.17297(19) 0.88342(12)
O3 O 0.06852(10) 0.03050(14) 0.66349(11)
Fe1 Fe -0.2500 -0.2500 0.5000
Nd1 Nd 0.0000 0.096064(12) 0.7500
H1 H 0.042(2) 0.391(3) 0.709(2)
H2 H 0.0686(17) 0.309(3) 0.6764(18)
H3 H 0.1507(18) 0.240(3) 0.8896(19)
H4 H 0.1640(18) 0.133(3) 0.9250(19)
H5 H 0.2107(18) -0.077(3) 0.751(2)
H6 H -0.008(2) -0.127(3) 0.541(2)
H7 H 0.261(2) -0.282(4) 0.722(2)
H8 H 0.0335(19) -0.335(3) 0.497(2)
H9 H 0.177(2) -0.416(3) 0.597(2)
C1F C -0.35075(11) -0.32772(18) 0.39768(12)
C1A C 0.14925(11) -0.17228(18) 0.89768(12)
C2F C -0.18174(12) -0.2781(2) 0.43639(12)
C3F C -0.21899(13) -0.4401(2) 0.54817(13)
C4A C -0.17664(15) -0.1366(3) 0.79818(16)
C5A C -0.04385(16) -0.1653(3) 0.92838(16)
C6A C -0.20698(16) -0.2592(3) 0.81608(18)
C7A C -0.07292(18) -0.2891(3) 0.94756(18)
C8A C -0.15501(18) -0.3366(3) 0.89140(18)
N1A N 0.09069(11) -0.12021(18) 0.83863(12)
N2F N -0.14177(12) -0.2991(2) 0.39924(13)
N3F N -0.20153(15) -0.5536(2) 0.57263(15)
N4A N -0.09628(12) -0.09081(15) 0.85433(12)
O1A O -0.04820(12) 0.31097(17) 0.79982(12)
O2A O -0.13466(11) 0.17297(19) 0.61658(12)
O3A O -0.06852(10) 0.03050(14) 0.83651(11)
Fe1A Fe 0.2500 -0.2500 1.0000
H1A H -0.042(2) 0.391(3) 0.791(2)
H2A H -0.0686(17) 0.309(3) 0.8236(18)
H3A H -0.1507(18) 0.240(3) 0.6104(19)
H4A H -0.1640(18) 0.133(3) 0.5750(19)
H5A H -0.2107(18) -0.077(3) 0.749(2)
H6A H 0.008(2) -0.127(3) 0.959(2)
H7A H -0.261(2) -0.282(4) 0.778(2)
H8A H -0.0335(19) -0.335(3) 1.003(2)
H9A H -0.177(2) -0.416(3) 0.903(2)
O4 O 0.0000 0.5719(3) 0.7500
H10 H 0.035(4) 0.618(5) 0.785(4)
H10A H -0.035(4) 0.618(5) 0.715(4)
loop_
_geom_bond_atom_site_label_1
_geom_bond_atom_site_label_2
_geom_bond_site_symmetry_1
_geom_bond_site_symmetry_2
C1 N1 1_555 1_555
C2 N2 1_555 1_555
C3 N3 1_555 1_555
C4 C6 1_555 1_555
C5 C7 1_555 1_555
C6 C8 1_555 1_555
C7 C8 1_555 1_555
C8 H9 1_555 1_555
N1 Nd1 1_555 1_555
N4 C4 1_555 1_555
O1 Nd1 1_555 1_555
O2 Nd1 1_555 1_555
O3 N4 1_555 1_555
O4 H10 1_555 1_555
Fe1 C1 1_555 1_555
Nd1 O3 1_555 1_555
H1 O1 1_555 1_555
H2 O1 1_555 1_555
H3 O2 1_555 1_555
H4 O2 1_555 1_555
H5 C4 1_555 1_555
H6 C5 1_555 1_555
H7 C6 1_555 1_555
H8 C7 1_555 1_555
C1F Fe1 1_555 1_555
C1A N1A 1_555 1_555
C2F Fe1 1_555 1_555
C3F Fe1 1_555 1_555
C4A C6A 1_555 1_555
C5A C7A 1_555 1_555
C6A C8A 1_555 1_555
C7A C8A 1_555 1_555
C8A H9A 1_555 1_555
N1A Nd1 1_555 1_555
N2F C2F 1_555 1_555
N3F C3F 1_555 1_555
N4A C4A 1_555 1_555
O1A Nd1 1_555 1_555
O2A Nd1 1_555 1_555
O3A Nd1 1_555 1_555
Fe1A C1A 1_555 1_555
H1A O1A 1_555 1_555
H2A O1A 1_555 1_555
H3A O2A 1_555 1_555
H4A O2A 1_555 1_555
H5A C4A 1_555 1_555
H6A C5A 1_555 1_555
H7A C6A 1_555 1_555
H8A C7A 1_555 1_555
H10A O4 1_555 1_555
C2 Fe1 1_555 1_555
C3 Fe1 1_555 1_555
C5 N4 1_555 1_555
C5A N4A 1_555 1_555
N4A O3A 1_555 1_555

#END
