
#######################################################################
#
#                 Cambridge Crystallographic Data Centre
#                                CCDC 
#
#######################################################################
#
# If this CIF has been generated from an entry in the Cambridge 
# Structural Database, then it will include bibliographic, chemical, 
# crystal, experimental, refinement or atomic coordinate data resulting 
# from the CCDC's data processing and validation procedures.
#
#######################################################################

data_MUZCEQ
_symmetry_cell_setting           monoclinic
_symmetry_space_group_name_H-M   'C 2/c'
_symmetry_Int_Tables_number      15
_space_group_name_Hall           '-C 2yn'
loop_
_symmetry_equiv_pos_site_id
_symmetry_equiv_pos_as_xyz
1 x,y,z
2 -x,y,1/2-z
3 1/2+x,1/2+y,z
4 1/2-x,1/2+y,1/2-z
5 -x,-y,-z
6 x,-y,1/2+z
7 1/2-x,1/2-y,-z
8 1/2+x,1/2-y,1/2+z
_cell_length_a                   16.861(7)
_cell_length_b                   9.123(4)
_cell_length_c                   16.133(7)
_cell_angle_alpha                90
_cell_angle_beta                 118.44(3)
_cell_angle_gamma                90
_cell_volume                     2182.13
loop_
_atom_site_label
_atom_site_type_symbol
_atom_site_fract_x
_atom_site_fract_y
_atom_site_fract_z
Fe1 Fe 0.7500 0.2500 0.5000
Nd1 Nd 1.0000 0.59573(14) 0.7500
N1 N 0.9129(10) 0.3815(16) 0.6674(11)
N2 N 0.7001(9) 0.5566(16) 0.4262(9)
N3 N 0.8587(11) 0.207(2) 0.3984(10)
O1 O 0.9290(7) 0.5270(13) 0.8320(7)
C1 C 0.8532(14) 0.3405(17) 0.5994(16)
C2 C 0.7202(12) 0.440(2) 0.4484(12)
C3 C 0.8118(10) 0.2253(17) 0.4328(11)
N4 N 0.9068(13) 0.415(2) 0.8542(13)
C4 C 0.9630(16) 0.337(2) 0.9332(17)
H1 H 1.0204 0.3723 0.9735
C5 C 0.9353(16) 0.205(3) 0.9535(17)
H2 H 0.9746 0.1503 1.0055
C6 C 0.8483(16) 0.157(2) 0.8954(14)
H3 H 0.8279 0.0709 0.9099
C7 C 0.7915(15) 0.236(2) 0.8152(14)
H4 H 0.7338 0.2020 0.7750
C8 C 0.8218(15) 0.3681(18) 0.7955(15)
H5 H 0.7841 0.4228 0.7426
O2 O 1.0490(8) 0.8069(13) 0.6996(10)
H6 H 1.0355 0.8974 0.6933
H7 H 1.0857 0.7928 0.6781
O3 O 1.1348(7) 0.6706(12) 0.8839(8)
H8 H 1.1406 0.7163 0.9323
H9 H 1.1793 0.6123 0.9015
Fe1A Fe 1.2500 0.2500 1.0000
N1A N 1.0871(10) 0.3815(16) 0.8326(11)
N2F N 0.7999(9) -0.0566(16) 0.5738(9)
N3F N 0.6413(11) 0.293(2) 0.6016(10)
O1A O 1.0710(7) 0.5270(13) 0.6680(7)
C1F C 0.6468(14) 0.1595(17) 0.4006(16)
C1A C 1.1468(14) 0.3405(17) 0.9006(16)
C2F C 0.7798(12) 0.060(2) 0.5516(12)
C3F C 0.6882(10) 0.2747(17) 0.5672(11)
N4A N 1.0932(13) 0.415(2) 0.6458(13)
C4A C 1.0370(16) 0.337(2) 0.5668(17)
H1A H 0.9796 0.3723 0.5265
C5A C 1.0647(16) 0.205(3) 0.5465(17)
H2A H 1.0254 0.1503 0.4945
C6A C 1.1517(16) 0.157(2) 0.6046(14)
H3A H 1.1721 0.0709 0.5901
C7A C 1.2085(15) 0.236(2) 0.6848(14)
H4A H 1.2662 0.2020 0.7250
C8A C 1.1782(15) 0.3681(18) 0.7045(15)
H5A H 1.2159 0.4228 0.7574
O2A O 0.9510(8) 0.8069(13) 0.8004(10)
H6A H 0.9645 0.8974 0.8067
H7A H 0.9143 0.7928 0.8219
O3A O 0.8652(7) 0.6706(12) 0.6161(8)
H8A H 0.8594 0.7163 0.5677
H9A H 0.8207 0.6123 0.5985
loop_
_geom_bond_atom_site_label_1
_geom_bond_atom_site_label_2
_geom_bond_site_symmetry_1
_geom_bond_site_symmetry_2
Fe1 C1 1_555 1_555
Nd1 N1 1_555 1_555
N1 C1 1_555 1_555
N2 C2 1_555 1_555
N3 C3 1_555 1_555
O1 Nd1 1_555 1_555
C2 Fe1 1_555 1_555
C3 Fe1 1_555 1_555
N4 O1 1_555 1_555
C4 N4 1_555 1_555
H1 C4 1_555 1_555
C5 C4 1_555 1_555
H2 C5 1_555 1_555
C6 C5 1_555 1_555
H3 C6 1_555 1_555
C7 C6 1_555 1_555
H4 C7 1_555 1_555
C8 N4 1_555 1_555
H5 C8 1_555 1_555
O2 Nd1 1_555 1_555
H6 O2 1_555 1_555
H7 O2 1_555 1_555
O3 Nd1 1_555 1_555
H8 O3 1_555 1_555
H9 O3 1_555 1_555
Fe1A C1A 1_555 1_555
N1A Nd1 1_555 1_555
N2F C2F 1_555 1_555
N3F C3F 1_555 1_555
O1A Nd1 1_555 1_555
C1F Fe1 1_555 1_555
C1A N1A 1_555 1_555
C2F Fe1 1_555 1_555
C3F Fe1 1_555 1_555
N4A O1A 1_555 1_555
C4A N4A 1_555 1_555
H1A C4A 1_555 1_555
C5A C4A 1_555 1_555
H2A C5A 1_555 1_555
C6A C5A 1_555 1_555
H3A C6A 1_555 1_555
C7A C6A 1_555 1_555
H4A C7A 1_555 1_555
C8A N4A 1_555 1_555
H5A C8A 1_555 1_555
O2A Nd1 1_555 1_555
H6A O2A 1_555 1_555
H7A O2A 1_555 1_555
O3A Nd1 1_555 1_555
H8A O3A 1_555 1_555
H9A O3A 1_555 1_555
C7 C8 1_555 1_555
C7A C8A 1_555 1_555

#END
