
#######################################################################
#
#                 Cambridge Crystallographic Data Centre
#                                CCDC 
#
#######################################################################
#
# If this CIF has been generated from an entry in the Cambridge 
# Structural Database, then it will include bibliographic, chemical, 
# crystal, experimental, refinement or atomic coordinate data resulting 
# from the CCDC's data processing and validation procedures.
#
#######################################################################

data_MUZDER
_symmetry_cell_setting           triclinic
_symmetry_space_group_name_H-M   'P 1'
_symmetry_Int_Tables_number      1
_space_group_name_Hall           'P 1'
loop_
_symmetry_equiv_pos_site_id
_symmetry_equiv_pos_as_xyz
1 x,y,z
_cell_length_a                   10.238(2)
_cell_length_b                   12.877(3)
_cell_length_c                   13.513(3)
_cell_angle_alpha                76.38(3)
_cell_angle_beta                 88.99(3)
_cell_angle_gamma                89.68(3)
_cell_volume                     1731.11
loop_
_atom_site_label
_atom_site_type_symbol
_atom_site_fract_x
_atom_site_fract_y
_atom_site_fract_z
Cd1 Cd 0.31656(5) 0.10168(4) 0.43934(4)
Cd2 Cd 0.88537(5) -0.47434(4) 0.76921(4)
O1 O 0.3437(7) 0.2280(5) 0.5359(5)
O2 O 0.3297(8) 0.0633(6) 0.6298(6)
O3 O 0.6102(7) 0.1057(6) 0.7483(6)
O4 O 0.1726(10) -0.1804(7) 0.8762(12)
O5 O 0.0742(6) -0.4140(6) 0.8483(5)
O6 O -0.1094(7) -0.4481(7) 0.9389(6)
O7 O 0.1226(7) 0.2016(6) 0.3653(6)
O8 O 0.3071(7) 0.2162(6) 0.2777(5)
O9 O 0.0213(9) 0.4500(8) 0.3453(10)
O10 O -0.4156(7) 0.6769(7) 0.4589(6)
O11 O -0.1309(8) 0.5788(6) 0.5795(6)
O12 O -0.1468(7) 0.6987(5) 0.6709(5)
N1 N 0.2262(8) -0.0610(6) 0.4488(6)
N2 N 0.1946(8) -0.2359(6) 0.5209(6)
N3 N 0.4528(7) -0.5179(6) 0.7544(5)
N4 N 0.6699(6) -0.5308(6) 0.7831(5)
N5 N 0.5354(7) 0.0564(6) 0.4288(6)
N6 N 0.7494(7) 0.0507(6) 0.4670(5)
N7 N 1.0041(8) 0.2248(7) 0.6934(6)
N8 N 0.9813(8) 0.3678(6) 0.7599(6)
C1 C 0.3457(8) 0.1605(7) 0.6231(7)
C2 C 0.3646(10) 0.2050(8) 0.7180(8)
H1 H 0.4361 0.2557 0.7044
H2 H 0.2862 0.2438 0.7290
C3 C 0.3930(9) 0.1216(8) 0.8156(7)
H3 H 0.3299 0.0642 0.8238
H4 H 0.3823 0.1541 0.8732
C4 C 0.5312(9) 0.0748(7) 0.8163(7)
C5 C 0.5626(11) -0.0156(7) 0.9058(7)
C6 C 0.4762(10) -0.0667(8) 0.9884(7)
H5 H 0.3857 -0.0462 0.9995
C7 C 0.5471(13) -0.1562(8) 1.0499(7)
H6 H 0.5129 -0.2075 1.1101
C8 C 0.6754(11) -0.1550(9) 1.0082(9)
H7 H 0.7441 -0.2070 1.0344
C9 C 0.6871(9) -0.0697(8) 0.9202(8)
H8 H 0.7653 -0.0514 0.8768
C10 C 0.4372(15) -0.1733(9) 0.7721(8)
H9 H 0.3894 -0.1133 0.7299
C11 C 0.5741(17) -0.2008(12) 0.7582(11)
H10 H 0.6353 -0.1623 0.7059
C12 C 0.6006(13) -0.2925(10) 0.8331(11)
H11 H 0.6862 -0.3275 0.8436
C13 C 0.4883(10) -0.3253(8) 0.8951(9)
H12 H 0.4833 -0.3868 0.9537
C14 C 0.3841(11) -0.2520(7) 0.8592(7)
C15 C 0.2505(10) -0.2533(8) 0.9062(9)
C16 C 0.2153(10) -0.3474(10) 0.9959(8)
H13 H 0.2501 -0.3338 1.0579
H14 H 0.2562 -0.4118 0.9847
C17 C 0.0628(11) -0.3661(12) 1.0102(9)
H15 H 0.0453 -0.4156 1.0751
H16 H 0.0201 -0.2989 1.0113
C18 C 0.0052(10) -0.4110(8) 0.9246(8)
C19 C 0.1892(10) 0.2438(8) 0.2889(8)
C20 C 0.1337(12) 0.3347(13) 0.2087(9)
H17 H 0.1530 0.3218 0.1420
H18 H 0.1773 0.4003 0.2124
C21 C -0.0552(11) 0.3941(8) 0.3095(9)
C22 C -0.0155(10) 0.3501(10) 0.2191(9)
H19 H -0.0462 0.3983 0.1575
H20 H -0.0583 0.2818 0.2251
C23 C -0.1845(11) 0.3715(7) 0.3522(8)
C24 C -0.2902(11) 0.3153(7) 0.3146(9)
H21 H -0.2834 0.2821 0.2565
C25 C -0.4047(13) 0.3203(9) 0.3734(12)
H22 H -0.4897 0.2911 0.3616
C26 C -0.3803(16) 0.3734(11) 0.4496(10)
H23 H -0.4440 0.3869 0.5002
C27 C -0.2457(16) 0.4091(9) 0.4385(9)
H24 H -0.2018 0.4492 0.4816
C28 C -0.2771(11) 0.6175(7) 0.2180(7)
H25 H -0.1859 0.6409 0.2086
C29 C -0.3444(12) 0.5602(8) 0.1561(8)
H26 H -0.3085 0.5374 0.0969
C30 C -0.4747(12) 0.5421(10) 0.1973(9)
H27 H -0.5422 0.5027 0.1709
C31 C -0.4901(11) 0.5847(8) 0.2847(8)
H28 H -0.5695 0.5823 0.3267
C32 C -0.3665(10) 0.6342(8) 0.2990(8)
C33 C -0.3338(10) 0.6764(7) 0.3901(7)
C34 C -0.2002(10) 0.7270(8) 0.3920(7)
H29 H -0.1932 0.7887 0.3350
H30 H -0.1337 0.6762 0.3824
C35 C -0.1717(11) 0.7623(7) 0.4897(8)
H31 H -0.2446 0.8053 0.5038
H32 H -0.0953 0.8081 0.4773
C36 C -0.1476(8) 0.6729(7) 0.5862(7)
C37 C 0.2170(9) -0.1373(8) 0.5357(7)
H33 H 0.2253 -0.1236 0.5999
C38 C 0.2015(8) -0.1171(7) 0.3728(7)
C39 C 0.2004(11) -0.0803(8) 0.2652(7)
H34 H 0.2165 -0.0091 0.2337
C40 C 0.1742(11) -0.1554(11) 0.2085(8)
H35 H 0.1680 -0.1334 0.1380
C41 C 0.1569(13) -0.2645(11) 0.2572(9)
H36 H 0.1439 -0.3133 0.2173
C42 C 0.1588(10) -0.3012(8) 0.3614(8)
H37 H 0.1428 -0.3723 0.3933
C43 C 0.1859(8) -0.2256(7) 0.4156(6)
C44 C 0.1941(8) -0.3363(7) 0.6035(7)
H38 H 0.1426 -0.3903 0.5827
H39 H 0.1540 -0.3224 0.6646
C45 C 0.3331(8) -0.3779(7) 0.6264(7)
H40 H 0.3760 -0.3878 0.5647
H41 H 0.3833 -0.3270 0.6528
C46 C 0.3246(10) -0.4848(8) 0.7056(8)
H42 H 0.2607 -0.4788 0.7578
H43 H 0.2948 -0.5396 0.6728
C47 C 0.5773(8) -0.4898(7) 0.7159(7)
H44 H 0.5947 -0.4475 0.6512
C48 C 0.4665(9) -0.5820(6) 0.8524(6)
C49 C 0.3748(10) -0.6321(8) 0.9281(7)
H45 H 0.2855 -0.6276 0.9164
C50 C 0.4241(11) -0.6884(9) 1.0209(8)
H46 H 0.3676 -0.7244 1.0720
C51 C 0.5598(12) -0.6907(10) 1.0371(9)
H47 H 0.5887 -0.7248 1.1015
C52 C 0.6512(10) -0.6472(9) 0.9662(8)
H48 H 0.7401 -0.6553 0.9793
C53 C 0.6045(9) -0.5878(7) 0.8697(7)
C54 C 0.6221(9) 0.0607(8) 0.4992(7)
H49 H 0.5996 0.0695 0.5637
C55 C 0.6073(9) 0.0431(7) 0.3431(6)
C56 C 0.5686(11) 0.0394(9) 0.2461(9)
H50 H 0.4808 0.0439 0.2293
C57 C 0.6621(13) 0.0290(10) 0.1759(8)
H51 H 0.6364 0.0248 0.1113
C58 C 0.7963(13) 0.0246(10) 0.1978(10)
H52 H 0.8574 0.0179 0.1479
C59 C 0.8377(11) 0.0301(8) 0.2937(8)
H53 H 0.9259 0.0264 0.3097
C60 C 0.7425(9) 0.0414(7) 0.3649(7)
C61 C 0.8719(10) 0.0588(10) 0.5186(9)
H54 H 0.9401 0.0819 0.4676
H55 H 0.8955 -0.0117 0.5582
C62 C 0.8677(8) 0.1340(8) 0.5877(8)
H56 H 0.8189 0.1018 0.6493
H57 H 0.8233 0.1993 0.5543
C63 C 1.0059(8) 0.1604(7) 0.6152(7)
H58 H 1.0536 0.0945 0.6409
H59 H 1.0512 0.1999 0.5544
C64 C 0.9817(9) 0.3312(8) 0.6757(8)
H60 H 0.9681 0.3744 0.6111
C65 C 1.0186(10) 0.1882(8) 0.8003(8)
C66 C 1.0393(10) 0.0863(8) 0.8588(10)
H61 H 1.0422 0.0274 0.8300
C67 C 1.0557(13) 0.0756(10) 0.9631(10)
H62 H 1.0740 0.0093 1.0055
C68 C 1.0438(13) 0.1675(10) 1.0033(9)
H63 H 1.0549 0.1593 1.0729
C69 C 1.0169(10) 0.2684(9) 0.9454(8)
H64 H 1.0079 0.3270 0.9742
C70 C 1.0039(9) 0.2776(7) 0.8413(7)
Fe1 Fe -0.34162(13) 0.47374(10) 0.30686(10)
Fe2 Fe 0.53806(14) -0.17068(10) 0.90038(10)
Cd2_2 Cd -0.11463(5) -0.47434(4) 0.76921(4)
Cd2_3 Cd -0.11463(5) 0.52566(4) 0.76921(4)
Cd2_4 Cd 0.88537(5) 0.52566(4) 0.76921(4)
O5_2 O 1.0742(6) -0.4140(6) 0.8483(5)
O6_2 O 0.8906(7) -0.4481(7) 0.9389(6)
O11_2 O 0.8691(8) -0.4212(6) 0.5795(6)
O12_2 O 0.8532(7) -0.3013(5) 0.6709(5)
N8_2 N 0.9813(8) -0.6322(6) 0.7599(6)
O13 O 0.2296(15) 0.4322(9) 0.4919(11)
H65 H 0.273(10) 0.374(6) 0.500(9)
H68 H 0.172(6) 0.424(6) 0.449(5)
O14 O 0.9680(15) 0.8742(8) 0.7303(12)
H66 H 1.043(4) 0.853(6) 0.753(7)
H67 H 0.942(7) 0.823(5) 0.706(7)
loop_
_geom_bond_atom_site_label_1
_geom_bond_atom_site_label_2
_geom_bond_site_symmetry_1
_geom_bond_site_symmetry_2
Cd1 O1 1_555 1_555
Cd2 N4 1_555 1_555
O1 C1 1_555 1_555
O2 Cd1 1_555 1_555
O3 C4 1_555 1_555
O4 C15 1_555 1_555
O5 C18 1_555 1_555
O6 C18 1_555 1_555
O7 Cd1 1_555 1_555
O8 Cd1 1_555 1_555
O9 C21 1_555 1_555
O10 C33 1_555 1_555
O11 C36 1_555 1_555
O12 C36 1_555 1_555
O13 H65 1_555 1_555
O14 H66 1_555 1_555
N1 Cd1 1_555 1_555
N2 C37 1_555 1_555
N3 C46 1_555 1_555
N4 C47 1_555 1_555
N5 Cd1 1_555 1_555
N6 C54 1_555 1_555
N7 C63 1_555 1_555
N8 C64 1_555 1_555
C1 O2 1_555 1_555
C2 C1 1_555 1_555
H1 C2 1_555 1_555
H2 C2 1_555 1_555
C3 C2 1_555 1_555
H3 C3 1_555 1_555
H4 C3 1_555 1_555
C4 C3 1_555 1_555
C5 C4 1_555 1_555
C6 C5 1_555 1_555
H5 C6 1_555 1_555
C7 C6 1_555 1_555
H6 C7 1_555 1_555
C8 C7 1_555 1_555
H7 C8 1_555 1_555
C9 C5 1_555 1_555
H8 C9 1_555 1_555
C10 H9 1_555 1_555
C11 C10 1_555 1_555
H10 C11 1_555 1_555
C12 C11 1_555 1_555
H11 C12 1_555 1_555
C13 C12 1_555 1_555
H12 C13 1_555 1_555
C14 C10 1_555 1_555
C15 C14 1_555 1_555
C16 C15 1_555 1_555
H13 C16 1_555 1_555
H14 C16 1_555 1_555
C17 C16 1_555 1_555
H15 C17 1_555 1_555
H16 C17 1_555 1_555
C18 C17 1_555 1_555
C19 O7 1_555 1_555
C20 C19 1_555 1_555
H17 C20 1_555 1_555
H18 C20 1_555 1_555
C21 C22 1_555 1_555
C22 C20 1_555 1_555
H19 C22 1_555 1_555
H20 C22 1_555 1_555
C23 C21 1_555 1_555
C24 C23 1_555 1_555
H21 C24 1_555 1_555
C25 C24 1_555 1_555
H22 C25 1_555 1_555
C26 C25 1_555 1_555
H23 C26 1_555 1_555
C27 C23 1_555 1_555
H24 C27 1_555 1_555
C28 H25 1_555 1_555
C29 C28 1_555 1_555
H26 C29 1_555 1_555
C30 C29 1_555 1_555
H27 C30 1_555 1_555
C31 C30 1_555 1_555
H28 C31 1_555 1_555
C32 C28 1_555 1_555
C33 C32 1_555 1_555
C34 C33 1_555 1_555
H29 C34 1_555 1_555
H30 C34 1_555 1_555
C35 C34 1_555 1_555
H31 C35 1_555 1_555
H32 C35 1_555 1_555
C36 C35 1_555 1_555
C37 N1 1_555 1_555
H33 C37 1_555 1_555
C38 N1 1_555 1_555
C39 C38 1_555 1_555
H34 C39 1_555 1_555
C40 C39 1_555 1_555
H35 C40 1_555 1_555
C41 C40 1_555 1_555
H36 C41 1_555 1_555
C42 C41 1_555 1_555
H37 C42 1_555 1_555
C43 N2 1_555 1_555
C44 N2 1_555 1_555
H38 C44 1_555 1_555
H39 C44 1_555 1_555
C45 C44 1_555 1_555
H40 C45 1_555 1_555
H41 C45 1_555 1_555
C46 C45 1_555 1_555
H42 C46 1_555 1_555
H43 C46 1_555 1_555
C47 N3 1_555 1_555
H44 C47 1_555 1_555
C48 N3 1_555 1_555
C49 C48 1_555 1_555
H45 C49 1_555 1_555
C50 C49 1_555 1_555
H46 C50 1_555 1_555
C51 C50 1_555 1_555
H47 C51 1_555 1_555
C52 C51 1_555 1_555
H48 C52 1_555 1_555
C53 N4 1_555 1_555
C54 N5 1_555 1_555
H49 C54 1_555 1_555
C55 N5 1_555 1_555
C56 C55 1_555 1_555
H50 C56 1_555 1_555
C57 C56 1_555 1_555
H51 C57 1_555 1_555
C58 C57 1_555 1_555
H52 C58 1_555 1_555
C59 C58 1_555 1_555
H53 C59 1_555 1_555
C60 N6 1_555 1_555
C61 N6 1_555 1_555
H54 C61 1_555 1_555
H55 C61 1_555 1_555
C62 C61 1_555 1_555
H56 C62 1_555 1_555
H57 C62 1_555 1_555
C63 C62 1_555 1_555
H58 C63 1_555 1_555
H59 C63 1_555 1_555
C64 N7 1_555 1_555
H60 C64 1_555 1_555
C65 N7 1_555 1_555
C66 C65 1_555 1_555
H61 C66 1_555 1_555
C67 C66 1_555 1_555
H62 C67 1_555 1_555
C68 C67 1_555 1_555
H63 C68 1_555 1_555
C69 C68 1_555 1_555
H64 C69 1_555 1_555
C70 N8 1_555 1_555
Fe1 C23 1_555 1_555
Fe2 C5 1_555 1_555
H67 O14 1_555 1_555
H68 O13 1_555 1_555
Cd2_2 O5 1_555 1_555
Cd2_3 O11 1_555 1_555
Cd2_4 N8 1_555 1_555
O5_2 Cd2 1_555 1_555
O6_2 Cd2 1_555 1_555
O11_2 Cd2 1_555 1_555
O12_2 Cd2 1_555 1_555
N8_2 Cd2 1_555 1_555
O6 Cd2_2 1_555 1_555
O8 C19 1_555 1_555
O12 Cd2_3 1_555 1_555
C6 Fe2 1_555 1_555
C7 Fe2 1_555 1_555
C8 C9 1_555 1_555
C8 Fe2 1_555 1_555
C9 Fe2 1_555 1_555
C10 Fe2 1_555 1_555
C11 Fe2 1_555 1_555
C12 Fe2 1_555 1_555
C13 C14 1_555 1_555
C13 Fe2 1_555 1_555
C14 Fe2 1_555 1_555
C24 Fe1 1_555 1_555
C25 Fe1 1_555 1_555
C26 C27 1_555 1_555
C26 Fe1 1_555 1_555
C27 Fe1 1_555 1_555
C28 Fe1 1_555 1_555
C29 Fe1 1_555 1_555
C30 Fe1 1_555 1_555
C31 C32 1_555 1_555
C31 Fe1 1_555 1_555
C32 Fe1 1_555 1_555
C38 C43 1_555 1_555
C42 C43 1_555 1_555
C48 C53 1_555 1_555
C52 C53 1_555 1_555
C55 C60 1_555 1_555
C59 C60 1_555 1_555
C65 C70 1_555 1_555
C69 C70 1_555 1_555

#END
