
#######################################################################
#
#                 Cambridge Crystallographic Data Centre
#                                CCDC 
#
#######################################################################
#
# If this CIF has been generated from an entry in the Cambridge 
# Structural Database, then it will include bibliographic, chemical, 
# crystal, experimental, refinement or atomic coordinate data resulting 
# from the CCDC's data processing and validation procedures.
#
#######################################################################

data_MUZGUK
_symmetry_cell_setting           monoclinic
_symmetry_space_group_name_H-M   'C 2/c'
_symmetry_Int_Tables_number      15
_space_group_name_Hall           '-C 2yn'
loop_
_symmetry_equiv_pos_site_id
_symmetry_equiv_pos_as_xyz
1 x,y,z
2 -x,y,1/2-z
3 1/2+x,1/2+y,z
4 1/2-x,1/2+y,1/2-z
5 -x,-y,-z
6 x,-y,1/2+z
7 1/2-x,1/2-y,-z
8 1/2+x,1/2-y,1/2+z
_cell_length_a                   20.010(2)
_cell_length_b                   17.6976(18)
_cell_length_c                   14.6712(14)
_cell_angle_alpha                90
_cell_angle_beta                 118.955(2)
_cell_angle_gamma                90
_cell_volume                     4546.06
loop_
_atom_site_label
_atom_site_type_symbol
_atom_site_fract_x
_atom_site_fract_y
_atom_site_fract_z
O1 O 0.16756(14) -0.07771(14) 0.00724(19)
O2 O 0.14319(16) -0.00170(18) -0.3285(2)
O3 O 0.20873(14) -0.03843(15) -0.1653(2)
O4 O 0.35988(15) -0.30698(15) 0.1619(2)
C1 C 0.3565(2) -0.2364(2) 0.1556(3)
Cd1 Cd 0.247840(16) -0.135250(16) -0.04753(2)
Cd2 Cd 0.242500(15) -0.021040(16) -0.35055(2)
O5 O 0.15482(16) 0.04507(15) -0.0183(2)
N1 N 0.35060(19) -0.1722(2) -0.0586(2)
C2 C 0.1352(2) -0.0207(2) -0.0485(3)
C3 C 0.4314(2) -0.1151(2) 0.2123(3)
C4 C 0.5000 -0.2316(3) 0.2500
H1 H 0.5000 -0.2841 0.2500
C5 C 0.5000 -0.0770(3) 0.2500
H2 H 0.5000 -0.0244 0.2500
C6 C 0.0665(2) -0.0299(2) -0.1542(3)
C7 C 0.3615(2) -0.0671(2) 0.1790(3)
N2 N 0.26190(19) -0.14478(19) -0.3273(3)
C8 C 0.4306(2) -0.1940(2) 0.2088(3)
C9 C 0.2047(3) -0.1902(3) -0.3336(3)
H3 H 0.1583 -0.1731 -0.3416
C10 C 0.3157(2) -0.1911(2) -0.3169(3)
H4 H 0.3624 -0.1759 -0.3099
O6 O 0.32980(15) -0.03764(15) 0.0904(2)
O7 O 0.29477(14) -0.20032(14) 0.10698(19)
O8 O 0.34028(16) -0.05430(18) 0.2460(2)
C11 C 0.0718(2) -0.0294(2) -0.2451(3)
C12 C -0.0047(2) -0.0301(2) -0.1598(3)
H5 H -0.0076 -0.0307 -0.0985
N3 N 0.2957(2) -0.26325(19) -0.3175(3)
C13 C 0.1468(2) -0.0238(2) -0.2449(3)
N4 N 0.4326(2) -0.2514(2) -0.0659(3)
C14 C 0.4653(3) -0.1806(3) -0.0468(4)
H6 H 0.5130 -0.1683 -0.0387
C15 C 0.4811(3) -0.3188(2) -0.1697(4)
C16 C 0.4148(3) -0.1330(3) -0.0423(4)
H7 H 0.4221 -0.0814 -0.0301
C17 C 0.4238(3) -0.3204(2) -0.2732(4)
C18 C 0.4643(3) -0.3223(3) -0.0795(4)
H8 H 0.5111 -0.3338 -0.0160
H9 H 0.4284 -0.3629 -0.0917
C19 C 0.3639(2) -0.2430(2) -0.0714(3)
H10 H 0.3301 -0.2825 -0.0828
C20 C 0.3403(3) -0.3326(2) -0.3065(4)
H11 H 0.3368 -0.3653 -0.2559
H12 H 0.3168 -0.3589 -0.3727
C21 C 0.5563(3) -0.3182(2) -0.1488(4)
H13 H 0.5948 -0.3164 -0.0798
C22 C 0.2248(3) -0.2627(3) -0.3269(4)
H14 H 0.1961 -0.3045 -0.3283
O1A O -0.16756(14) -0.07771(14) -0.50724(19)
O1E O 0.16756(14) 0.07771(14) -0.49276(19)
O1D O -0.16756(14) 0.07771(14) -0.00724(19)
O2A O -0.14319(16) -0.00170(18) -0.1715(2)
O3A O -0.20873(14) -0.03843(15) -0.3347(2)
O4A O 0.64012(15) -0.30698(15) 0.3381(2)
O4F O 0.14012(15) -0.19302(15) -0.1619(2)
O4G O -0.14012(15) -0.19302(15) -0.3381(2)
C1A C 0.6435(2) -0.2364(2) 0.3444(3)
Cd1A Cd -0.247840(16) -0.135250(16) -0.45247(2)
Cd1F Cd 0.252160(16) -0.364750(16) 0.04753(2)
Cd1G Cd 0.747840(16) -0.364750(16) 0.45247(2)
Cd1A_2 Cd 0.752160(16) -0.135250(16) 0.54753(2)
Cd1A_3 Cd 0.752160(16) -0.135250(16) -0.45247(2)
Cd2A Cd -0.242500(15) -0.021040(16) -0.14945(2)
Cd2E Cd 0.242500(15) 0.021040(16) 0.14945(2)
Cd2D Cd -0.242500(15) 0.021040(16) -0.64945(2)
Cd2D_2 Cd 0.757500(15) 0.021040(16) 0.35055(2)
Cd2A_2 Cd 0.757500(15) -0.021040(16) -0.14945(2)
O5A O -0.15482(16) 0.04507(15) -0.4817(2)
O5E O 0.15482(16) -0.04507(15) -0.5183(2)
O5D O -0.15482(16) -0.04507(15) 0.0183(2)
N1A N 0.64940(19) -0.1722(2) -0.4414(2)
N1A_2 N -0.35060(19) -0.1722(2) -0.4414(2)
C2A C -0.1352(2) -0.0207(2) -0.4515(3)
C3A C 0.5686(2) -0.1151(2) 0.2877(3)
C6A C -0.0665(2) -0.0299(2) -0.3458(3)
C7A C 0.6385(2) -0.0671(2) 0.3210(3)
N2A N 0.73810(19) -0.14478(19) -0.1727(3)
N2A_2 N -0.26190(19) -0.14478(19) -0.1727(3)
C8A C 0.5694(2) -0.1940(2) 0.2912(3)
C9A C 0.7953(3) -0.1902(3) -0.1664(3)
H3A H 0.8417 -0.1731 -0.1584
C10A C 0.6843(2) -0.1911(2) -0.1831(3)
H4A H 0.6376 -0.1759 -0.1901
O6A O 0.67020(15) -0.03764(15) 0.4096(2)
O6E O 0.32980(15) 0.03764(15) -0.4096(2)
O6A_2 O -0.32980(15) -0.03764(15) -0.5904(2)
O6D O -0.32980(15) 0.03764(15) -0.0904(2)
O7A O 0.70523(14) -0.20032(14) 0.39302(19)
O7A_2 O -0.29477(14) -0.20032(14) -0.60698(19)
O8A O 0.65972(16) -0.05430(18) 0.2540(2)
O8E O 0.34028(16) 0.05430(18) -0.2540(2)
O8D O -0.34028(16) 0.05430(18) -0.2460(2)
C11A C -0.0718(2) -0.0294(2) -0.2549(3)
C12A C 0.0047(2) -0.0301(2) -0.3402(3)
H5A H 0.0076 -0.0307 -0.4015
N3A N 0.7043(2) -0.26325(19) -0.1825(3)
C13A C -0.1468(2) -0.0238(2) -0.2551(3)
N4A N 0.5674(2) -0.2514(2) -0.4341(3)
C14A C 0.5347(3) -0.1806(3) -0.4532(4)
H6A H 0.4870 -0.1683 -0.4613
C15A C 0.5189(3) -0.3188(2) -0.3303(4)
C16A C 0.5852(3) -0.1330(3) -0.4577(4)
H7A H 0.5779 -0.0814 -0.4699
C17A C 0.5762(3) -0.3204(2) -0.2268(4)
C18A C 0.5357(3) -0.3223(3) -0.4205(4)
H8A H 0.4889 -0.3338 -0.4840
H9A H 0.5716 -0.3629 -0.4083
C19A C 0.6361(2) -0.2430(2) -0.4286(3)
H10A H 0.6699 -0.2825 -0.4172
C20A C 0.6597(3) -0.3326(2) -0.1935(4)
H11A H 0.6632 -0.3653 -0.2441
H12A H 0.6832 -0.3589 -0.1273
C21A C 0.4437(3) -0.3182(2) -0.3512(4)
H13A H 0.4052 -0.3164 -0.4202
C22A C 0.7752(3) -0.2627(3) -0.1731(4)
H14A H 0.8039 -0.3045 -0.1717
O9 O 0.3695(3) 0.9235(3) 0.4680(4)
H15 H 0.3988 0.9253 0.5335
H16 H 0.3870 0.9520 0.4379
loop_
_geom_bond_atom_site_label_1
_geom_bond_atom_site_label_2
_geom_bond_site_symmetry_1
_geom_bond_site_symmetry_2
O1 Cd1 1_555 1_555
O2 Cd2 1_555 1_555
O3 Cd1 1_555 1_555
O4 C1 1_555 1_555
C1 C8 1_555 1_555
Cd1 N1 1_555 1_555
Cd2 N2 1_555 1_555
O5 C2 1_555 1_555
N1 C16 1_555 1_555
C2 O1 1_555 1_555
C3 C5 1_555 1_555
C4 H1 1_555 1_555
C5 H2 1_555 1_555
C6 C2 1_555 1_555
C7 C3 1_555 1_555
N2 C9 1_555 1_555
C8 C3 1_555 1_555
C9 H3 1_555 1_555
C10 N2 1_555 1_555
H4 C10 1_555 1_555
O6 Cd1 1_555 1_555
O7 C1 1_555 1_555
O8 C7 1_555 1_555
C11 C6 1_555 1_555
C12 C6 1_555 1_555
H5 C12 1_555 1_555
N3 C10 1_555 1_555
C13 O2 1_555 1_555
N4 C14 1_555 1_555
C14 H6 1_555 1_555
C15 C17 1_555 1_555
C16 C14 1_555 1_555
H7 C16 1_555 1_555
C17 C20 1_555 1_555
C18 N4 1_555 1_555
H8 C18 1_555 1_555
H9 C18 1_555 1_555
C19 N1 1_555 1_555
H10 C19 1_555 1_555
C20 N3 1_555 1_555
H11 C20 1_555 1_555
H12 C20 1_555 1_555
C21 C15 1_555 1_555
H13 C21 1_555 1_555
C22 C9 1_555 1_555
H14 C22 1_555 1_555
O9 H15 1_555 1_555
H16 O9 1_555 1_555
O1A Cd1A 1_555 1_555
O1E Cd2 1_555 1_555
O1D Cd2A 1_555 1_555
O2A Cd2A 1_555 1_555
O3A Cd1A 1_555 1_555
O4A C1A 1_555 1_555
O4F Cd1 1_555 1_555
O4G Cd1A 1_555 1_555
C1A C8A 1_555 1_555
Cd1A N1A_2 1_555 1_555
Cd1F O4 1_555 1_555
Cd1G O4A 1_555 1_555
Cd1A_2 O6A 1_555 1_555
Cd1A_3 N1A 1_555 1_555
Cd2A O5D 1_555 1_555
Cd2E O1 1_555 1_555
Cd2D O1A 1_555 1_555
Cd2D_2 O6A 1_555 1_555
Cd2A_2 N2A 1_555 1_555
O5A Cd2D 1_555 1_555
O5E Cd2 1_555 1_555
N1A C16A 1_555 1_555
C2A O1A 1_555 1_555
C3A C5 1_555 1_555
C6A C2A 1_555 1_555
C7A C3A 1_555 1_555
N2A C9A 1_555 1_555
N2A_2 Cd2A 1_555 1_555
C8A C4 1_555 1_555
C9A H3A 1_555 1_555
C10A N2A 1_555 1_555
H4A C10A 1_555 1_555
O6A C7A 1_555 1_555
O6E Cd2 1_555 1_555
O6A_2 Cd1A 1_555 1_555
O6D Cd2A 1_555 1_555
O7A C1A 1_555 1_555
O7A_2 Cd1A 1_555 1_555
O8A Cd2D_2 1_555 1_555
O8E Cd2 1_555 1_555
O8D Cd2A 1_555 1_555
C11A C12 1_555 1_555
C12A C11 1_555 1_555
H5A C12A 1_555 1_555
N3A C10A 1_555 1_555
C13A O2A 1_555 1_555
N4A C14A 1_555 1_555
C14A H6A 1_555 1_555
C15A C17A 1_555 1_555
C16A C14A 1_555 1_555
H7A C16A 1_555 1_555
C17A C21 1_555 1_555
C18A N4A 1_555 1_555
H8A C18A 1_555 1_555
H9A C18A 1_555 1_555
C19A N1A 1_555 1_555
H10A C19A 1_555 1_555
C20A N3A 1_555 1_555
H11A C20A 1_555 1_555
H12A C20A 1_555 1_555
C21A C17 1_555 1_555
H13A C21A 1_555 1_555
C22A C9A 1_555 1_555
H14A C22A 1_555 1_555
O3 C13 1_555 1_555
Cd1 O7 1_555 1_555
O5 Cd2E 1_555 1_555
C4 C8 1_555 1_555
C7 O6 1_555 1_555
O6 Cd2E 1_555 1_555
O8 Cd2E 1_555 1_555
C11 C13 1_555 1_555
N3 C22 1_555 1_555
N4 C19 1_555 1_555
C15 C18 1_555 1_555
O3A C13A 1_555 1_555
Cd1A_2 O7A 1_555 1_555
Cd2D O6A_2 1_555 1_555
O5A C2A 1_555 1_555
C3A C8A 1_555 1_555
C6A C11A 1_555 1_555
C6A C12A 1_555 1_555
C7A O8A 1_555 1_555
C11A C13A 1_555 1_555
N3A C22A 1_555 1_555
N4A C19A 1_555 1_555
C15A C18A 1_555 1_555
C15A C21A 1_555 1_555
C17A C20A 1_555 1_555

#END
