
#######################################################################
#
#                 Cambridge Crystallographic Data Centre
#                                CCDC 
#
#######################################################################
#
# If this CIF has been generated from an entry in the Cambridge 
# Structural Database, then it will include bibliographic, chemical, 
# crystal, experimental, refinement or atomic coordinate data resulting 
# from the CCDC's data processing and validation procedures.
#
#######################################################################

data_MUZGIY
_symmetry_cell_setting           triclinic
_symmetry_space_group_name_H-M   'P -1'
_symmetry_Int_Tables_number      2
_space_group_name_Hall           '-P 1'
loop_
_symmetry_equiv_pos_site_id
_symmetry_equiv_pos_as_xyz
1 x,y,z
2 -x,-y,-z
_cell_length_a                   9.3983(9)
_cell_length_b                   9.6279(9)
_cell_length_c                   12.6835(12)
_cell_angle_alpha                88.790(2)
_cell_angle_beta                 69.0260(10)
_cell_angle_gamma                66.031(2)
_cell_volume                     968.778
loop_
_atom_site_label
_atom_site_type_symbol
_atom_site_fract_x
_atom_site_fract_y
_atom_site_fract_z
Cd1 Cd 0.58313(2) -0.17615(2) -0.395230(14)
C1 C 0.2225(3) 0.0430(3) -0.3826(2)
C2 C 0.0548(3) 0.1658(3) -0.3030(2)
C3 C -0.0278(3) 0.2994(3) -0.3422(2)
H1 H 0.0148 0.3088 -0.4190
C4 C -0.1737(3) 0.4189(3) -0.2671(2)
C5 C -0.2390(3) 0.4034(3) -0.1535(2)
H2 H -0.3370 0.4825 -0.1032
C6 C -0.1574(3) 0.2685(3) -0.1141(2)
C7 C -0.0104(3) 0.1502(3) -0.1889(2)
H3 H 0.0440 0.0610 -0.1625
C8 C -0.2562(3) 0.5665(3) -0.3074(2)
C9 C -0.2289(3) 0.2521(3) 0.0076(2)
C10 C -0.4880(4) 0.6631(4) 0.4153(3)
H4 H -0.6024 0.7285 0.4441
C11 C -0.4066(4) 0.5588(4) 0.3205(3)
H5 H -0.4529 0.5385 0.2724
C12 C -0.2295(3) 0.5506(3) 0.3965(2)
H6 H -0.1303 0.5218 0.4090
C13 C -0.0959(4) 0.3770(3) 0.2137(2)
H7 H -0.0003 0.3340 0.2365
H8 H -0.1221 0.2936 0.1988
C14 C -0.0456(4) 0.4430(3) 0.1039(2)
C15 C -0.1474(4) 0.5874(3) 0.0889(2)
C16 C 0.1057(3) 0.3548(3) 0.0130(2)
C17 C 0.2210(4) 0.1979(4) 0.0270(3)
H9 H 0.2513 0.2086 0.0908
H10 H 0.1602 0.1341 0.0452
C18 C 0.3925(4) 0.0222(3) -0.1553(2)
H11 H 0.3141 -0.0158 -0.1503
C19 C 0.6122(4) 0.0658(4) -0.2171(3)
H12 H 0.7159 0.0631 -0.2635
C20 C 0.5130(4) 0.1503(4) -0.1123(3)
H13 H 0.5352 0.2155 -0.0741
N1 N 0.5361(3) -0.0146(3) -0.2438(2)
N2 N 0.3744(3) 0.1208(3) -0.0741(2)
N3 N -0.3768(3) 0.6584(3) 0.4633(2)
N4 N -0.2413(3) 0.4885(3) 0.3093(2)
O1 O 0.2982(3) -0.0651(3) -0.33873(18)
O2 O 0.2737(3) 0.0571(2) -0.48575(17)
O3 O -0.3821(3) 0.3597(3) 0.06166(19)
O4 O -0.1570(3) 0.1518(3) 0.05314(18)
O5 O -0.1674(2) 0.6110(2) -0.38589(16)
O6 O -0.4150(2) 0.6433(2) -0.26048(16)
H16 H -0.426(5) 0.337(5) 0.124(4)
C16A C -0.1057(3) 0.6452(3) -0.0130(2)
C14A C 0.0456(4) 0.5570(3) -0.1039(2)
C13A C 0.0959(4) 0.6230(3) -0.2137(2)
H7A H 0.0003 0.6660 -0.2365
H8A H 0.1221 0.7064 -0.1988
N4A N 0.2413(3) 0.5115(3) -0.3093(2)
C11A C 0.4066(4) 0.4412(4) -0.3205(3)
C10A C 0.4880(4) 0.3369(4) -0.4153(3)
H4A H 0.6024 0.2715 -0.4441
N3A N 0.3768(3) 0.3416(3) -0.4633(2)
C12A C 0.2295(3) 0.4494(3) -0.3965(2)
H6A H 0.1303 0.4782 -0.4090
H5A H 0.4529 0.4615 -0.2724
C15A C 0.1474(4) 0.4126(3) -0.0889(2)
C17A C -0.2210(4) 0.8021(4) -0.0270(3)
H9A H -0.2513 0.7914 -0.0908
H10A H -0.1602 0.8659 -0.0452
N2A N -0.3744(3) 0.8792(3) 0.0741(2)
C18A C -0.3925(4) 0.9778(3) 0.1553(2)
H11A H -0.3141 1.0158 0.1503
N1A N -0.5361(3) 1.0146(3) 0.2438(2)
C19A C -0.6122(4) 0.9342(4) 0.2171(3)
H12A H -0.7159 0.9369 0.2635
C20A C -0.5130(4) 0.8497(4) 0.1123(3)
H13A H -0.5352 0.7845 0.0741
O2A O 0.7263(3) -0.0571(2) -0.51425(17)
Cd1A Cd -0.58313(2) 1.17615(2) 0.395230(14)
N3_2 N 0.6232(3) -0.3416(3) -0.5367(2)
O5_2 O 0.8326(2) -0.3890(2) -0.38589(16)
O6_2 O 0.5850(2) -0.3567(2) -0.26048(16)
Cd1_2 Cd -0.41687(2) 0.82385(2) 0.604770(14)
Cd1A_2 Cd 0.41687(2) 0.17615(2) -0.604770(14)
Cd1A_3 Cd 1.41687(2) -0.82385(2) -0.604770(14)
Cd1_3 Cd -0.41687(2) 0.82385(2) -0.395230(14)
O2_2 O -0.7263(3) 1.0571(2) 0.51425(17)
N3A_2 N -0.6232(3) 1.3416(3) 0.5367(2)
O1A O -0.2982(3) 1.0651(3) 0.33873(18)
O5A O -0.8326(2) 1.3890(2) 0.38589(16)
O6A O -0.5850(2) 1.3567(2) 0.26048(16)
C8_2 C 0.7438(3) -0.4335(3) -0.3074(2)
O2_3 O 1.2737(3) -0.9429(2) -0.48575(17)
C4_2 C 0.8263(3) -0.5811(3) -0.2671(2)
C1_2 C 1.2225(3) -0.9570(3) -0.3826(2)
C3_2 C 0.9722(3) -0.7006(3) -0.3422(2)
C5_2 C 0.7610(3) -0.5966(3) -0.1535(2)
C2_2 C 1.0548(3) -0.8342(3) -0.3030(2)
O1_2 O 1.2982(3) -1.0651(3) -0.33873(18)
H1_2 H 1.0148 -0.6912 -0.4190
H2_2 H 0.6630 -0.5175 -0.1032
C6_2 C 0.8426(3) -0.7315(3) -0.1141(2)
Cd1_4 Cd 1.58313(2) -1.17615(2) -0.395230(14)
C7_2 C 0.9896(3) -0.8498(3) -0.1889(2)
C9_2 C 0.7711(3) -0.7479(3) 0.0076(2)
H3_2 H 1.0440 -0.9390 -0.1625
O3_2 O 0.6179(3) -0.6403(3) 0.06166(19)
O4_2 O 0.8430(3) -0.8482(3) 0.05314(18)
H16_2 H 0.574(5) -0.663(5) 0.124(4)
O7 O 1.0096(19) 0.870(2) -0.4187(13)
H14 H 1.0587 0.8589 -0.4908
H15 H 0.9087 0.8823 -0.4018
loop_
_geom_bond_atom_site_label_1
_geom_bond_atom_site_label_2
_geom_bond_site_symmetry_1
_geom_bond_site_symmetry_2
Cd1 N1 1_555 1_555
C1 C2 1_555 1_555
C2 C3 1_555 1_555
C3 H1 1_555 1_555
C4 C3 1_555 1_555
C5 C4 1_555 1_555
H2 C5 1_555 1_555
C6 C5 1_555 1_555
C7 C2 1_555 1_555
H3 C7 1_555 1_555
C8 C4 1_555 1_555
C9 C6 1_555 1_555
C10 H4 1_555 1_555
C11 C10 1_555 1_555
H5 C11 1_555 1_555
C12 H6 1_555 1_555
C13 H7 1_555 1_555
H8 C13 1_555 1_555
C14 C13 1_555 1_555
C15 C14 1_555 1_555
C16 C14 1_555 1_555
C17 C16 1_555 1_555
H9 C17 1_555 1_555
H10 C17 1_555 1_555
C18 H11 1_555 1_555
C19 H12 1_555 1_555
C20 C19 1_555 1_555
H13 C20 1_555 1_555
N1 C18 1_555 1_555
N2 C17 1_555 1_555
N3 C10 1_555 1_555
N4 C11 1_555 1_555
O1 Cd1 1_555 1_555
O2 C1 1_555 1_555
O3 C9 1_555 1_555
O4 C9 1_555 1_555
O5 C8 1_555 1_555
O6 C8 1_555 1_555
O7 H14 1_555 1_555
H15 O7 1_555 1_555
H16 O3 1_555 1_555
C16A C15 1_555 1_555
C14A C16A 1_555 1_555
C13A C14A 1_555 1_555
H7A C13A 1_555 1_555
H8A C13A 1_555 1_555
N4A C13A 1_555 1_555
C11A N4A 1_555 1_555
C10A C11A 1_555 1_555
H4A C10A 1_555 1_555
N3A C10A 1_555 1_555
C12A N4A 1_555 1_555
H6A C12A 1_555 1_555
H5A C11A 1_555 1_555
C15A C16 1_555 1_555
C17A C16A 1_555 1_555
H9A C17A 1_555 1_555
H10A C17A 1_555 1_555
N2A C17A 1_555 1_555
C18A N2A 1_555 1_555
H11A C18A 1_555 1_555
N1A C18A 1_555 1_555
C19A N1A 1_555 1_555
H12A C19A 1_555 1_555
C20A N2A 1_555 1_555
H13A C20A 1_555 1_555
O2A Cd1 1_555 1_555
Cd1A N1A 1_555 1_555
N3_2 Cd1 1_555 1_555
O5_2 Cd1 1_555 1_555
O6_2 Cd1 1_555 1_555
Cd1_2 N3 1_555 1_555
Cd1A_2 O2 1_555 1_555
Cd1A_3 O2_3 1_555 1_555
Cd1_3 O5 1_555 1_555
O2_2 Cd1A 1_555 1_555
N3A_2 Cd1A 1_555 1_555
O1A Cd1A 1_555 1_555
O5A Cd1A 1_555 1_555
O6A Cd1A 1_555 1_555
C8_2 O5_2 1_555 1_555
O2_3 C1_2 1_555 1_555
C4_2 C8_2 1_555 1_555
C1_2 C2_2 1_555 1_555
C3_2 C4_2 1_555 1_555
C5_2 C4_2 1_555 1_555
C2_2 C3_2 1_555 1_555
O1_2 C1_2 1_555 1_555
H1_2 C3_2 1_555 1_555
H2_2 C5_2 1_555 1_555
C6_2 C5_2 1_555 1_555
Cd1_4 O1_2 1_555 1_555
C7_2 C2_2 1_555 1_555
C9_2 C6_2 1_555 1_555
H3_2 C7_2 1_555 1_555
O3_2 C9_2 1_555 1_555
O4_2 C9_2 1_555 1_555
H16_2 O3_2 1_555 1_555
C1 O1 1_555 1_555
C6 C7 1_555 1_555
C12 N4 1_555 1_555
C12 N3 1_555 1_555
C13 N4 1_555 1_555
C18 N2 1_555 1_555
C19 N1 1_555 1_555
C20 N2 1_555 1_555
O6 Cd1_3 1_555 1_555
C14A C15A 1_555 1_555
N3A C12A 1_555 1_555
N3A Cd1A_2 1_555 1_555
C19A C20A 1_555 1_555
O6_2 C8_2 1_555 1_555
C6_2 C7_2 1_555 1_555

#END
