
#######################################################################
#
#                 Cambridge Crystallographic Data Centre
#                                CCDC 
#
#######################################################################
#
# If this CIF has been generated from an entry in the Cambridge 
# Structural Database, then it will include bibliographic, chemical, 
# crystal, experimental, refinement or atomic coordinate data resulting 
# from the CCDC's data processing and validation procedures.
#
#######################################################################

data_MUZHAR
_symmetry_cell_setting           monoclinic
_symmetry_space_group_name_H-M   'C 2/c'
_symmetry_Int_Tables_number      15
_space_group_name_Hall           '-C 2yn'
loop_
_symmetry_equiv_pos_site_id
_symmetry_equiv_pos_as_xyz
1 x,y,z
2 -x,y,1/2-z
3 1/2+x,1/2+y,z
4 1/2-x,1/2+y,1/2-z
5 -x,-y,-z
6 x,-y,1/2+z
7 1/2-x,1/2-y,-z
8 1/2+x,1/2-y,1/2+z
_cell_length_a                   27.573(3)
_cell_length_b                   11.0654(12)
_cell_length_c                   16.6196(18)
_cell_angle_alpha                90
_cell_angle_beta                 119.188(2)
_cell_angle_gamma                90
_cell_volume                     4426.88
loop_
_atom_site_label
_atom_site_type_symbol
_atom_site_fract_x
_atom_site_fract_y
_atom_site_fract_z
O1 O 0.20182(17) -0.0348(3) 1.0995(3)
O2 O 0.26390(15) -0.0878(3) 1.0617(2)
O3 O 0.21336(14) 0.2540(3) 0.7269(2)
C1 C 0.2248(2) -0.0189(5) 1.0531(3)
Zn1 Zn 0.0000 0.45404(6) 0.7500
Zn2 Zn 0.24956(2) 0.20627(6) 0.65146(4)
N1 N -0.12522(14) 1.0438(3) 0.2680(2)
C2 C -0.02670(17) 1.0887(4) 0.4372(3)
H1 H -0.0449 1.1490 0.3937
N2 N -0.01363(16) 0.6706(3) 0.5365(3)
O4 O 0.07035(12) 0.3704(3) 0.7982(2)
N3 N -0.18117(14) 1.1933(3) 0.1990(2)
N4 N 0.00577(14) 0.5575(3) 0.6561(3)
C3 C 0.13989(17) 0.2336(4) 0.8939(3)
C4 C -0.02017(17) 0.8823(4) 0.4824(3)
C5 C 0.21433(18) 0.1842(4) 0.8620(3)
C6 C -0.04768(16) 0.9731(4) 0.4187(3)
C7 C 0.0859(2) 0.2991(5) 0.8647(3)
C8 C 0.0373(2) 0.6230(4) 0.5648(3)
H2 H 0.0599 0.6356 0.5384
O5 O 0.19442(13) 0.3127(3) 0.5412(2)
C9 C -0.09971(17) 0.9410(4) 0.3295(3)
H3 H -0.1267 0.9058 0.3442
H4 H -0.0903 0.8802 0.2973
C10 C 0.15933(19) 0.1469(4) 0.9630(3)
H5 H 0.1406 0.1334 0.9960
C11 C 0.16773(18) 0.2509(4) 0.8444(3)
H6 H 0.1547 0.3090 0.7981
C12 C -0.03080(19) 0.6284(4) 0.5930(3)
H7 H -0.0650 0.6472 0.5882
C13 C 0.20637(19) 0.0806(4) 0.9830(3)
C14 C 0.04892(19) 0.5541(4) 0.6381(3)
H8 H 0.0816 0.5105 0.6718
C15 C -0.04233(19) 0.7542(4) 0.4603(3)
H9 H -0.0815 0.7549 0.4425
H10 H -0.0391 0.7253 0.4079
C16 C 0.23333(18) 0.1004(4) 0.9325(3)
H11 H 0.2651 0.0560 0.9463
C17 C -0.16879(18) 1.1059(4) 0.2590(3)
H12 H -0.1879 1.0896 0.2909
C18 C -0.14365(19) 1.1862(5) 0.1688(3)
H13 H -0.1422 1.2373 0.1256
C19 C -0.10889(19) 1.0940(5) 0.2110(3)
H14 H -0.0794 1.0694 0.2027
O6 O 0.05744(17) 0.2733(4) 0.9004(3)
O7 O 0.28110(17) 0.1355(4) 0.8161(3)
C20 C 0.2389(2) 0.1923(4) 0.7993(4)
O1A O -0.20182(17) -0.0348(3) 0.4005(3)
O1E O 0.20182(17) 0.0348(3) 0.5995(3)
O1D O -0.20182(17) 0.0348(3) 0.9005(3)
O2A O -0.26390(15) -0.0878(3) 0.4383(2)
O2E O 0.26390(15) 0.0878(3) 0.5617(2)
O2D O -0.26390(15) 0.0878(3) 0.9383(2)
O3A O -0.21336(14) 0.2540(3) 0.7731(2)
C1A C -0.2248(2) -0.0189(5) 0.4469(3)
Zn1D Zn 0.0000 1.54596(6) 0.2500
Zn2A Zn -0.24956(2) 0.20627(6) 0.84854(4)
Zn2E Zn 0.24956(2) -0.20627(6) 1.15146(4)
Zn2G Zn -0.25044(2) 1.29373(6) 0.15146(4)
Zn2C Zn 0.25044(2) 0.70627(6) 0.84854(4)
Zn2D Zn -0.24956(2) -0.20627(6) 0.34854(4)
N1D N 0.12522(14) 0.9562(3) 0.7320(2)
C2D C 0.02670(17) 0.9113(4) 0.5628(3)
H1D H 0.0449 0.8510 0.6063
N2D N 0.01363(16) 1.3294(3) 0.4635(3)
O4A O -0.07035(12) 0.3704(3) 0.7018(2)
N3D N 0.18117(14) 0.8067(3) 0.8010(2)
N3G N 0.31883(14) 0.3067(3) 0.6990(2)
N3F N -0.31883(14) 0.3067(3) 0.8010(2)
N4D N -0.00577(14) 1.4425(3) 0.3439(3)
N4A N -0.00577(14) 0.5575(3) 0.8439(3)
C3A C -0.13989(17) 0.2336(4) 0.6061(3)
C4D C 0.02017(17) 1.1177(4) 0.5176(3)
C5A C -0.21433(18) 0.1842(4) 0.6380(3)
C6D C 0.04768(16) 1.0269(4) 0.5813(3)
C7A C -0.0859(2) 0.2991(5) 0.6353(3)
C8D C -0.0373(2) 1.3770(4) 0.4352(3)
H2D H -0.0599 1.3644 0.4616
O5A O -0.19442(13) 0.3127(3) 0.9588(2)
C9D C 0.09971(17) 1.0590(4) 0.6705(3)
H3D H 0.1267 1.0942 0.6558
H4D H 0.0903 1.1198 0.7027
C10A C -0.15933(19) 0.1469(4) 0.5370(3)
H5A H -0.1406 0.1334 0.5040
C11A C -0.16773(18) 0.2509(4) 0.6556(3)
H6A H -0.1547 0.3090 0.7019
C12D C 0.03080(19) 1.3716(4) 0.4070(3)
H7D H 0.0650 1.3528 0.4118
C13A C -0.20637(19) 0.0806(4) 0.5170(3)
C14D C -0.04892(19) 1.4459(4) 0.3619(3)
H8D H -0.0816 1.4895 0.3282
C15D C 0.04233(19) 1.2458(4) 0.5397(3)
H9D H 0.0815 1.2451 0.5575
H10D H 0.0391 1.2747 0.5921
C16A C -0.23333(18) 0.1004(4) 0.5675(3)
H11A H -0.2651 0.0560 0.5537
C17D C 0.16879(18) 0.8941(4) 0.7410(3)
H12D H 0.1879 0.9104 0.7091
C18D C 0.14365(19) 0.8138(5) 0.8312(3)
H13D H 0.1422 0.7627 0.8744
C19D C 0.10889(19) 0.9060(5) 0.7890(3)
H14D H 0.0794 0.9306 0.7973
O6A O -0.05744(17) 0.2733(4) 0.5996(3)
O7A O -0.28110(17) 0.1355(4) 0.6839(3)
C20A C -0.2389(2) 0.1923(4) 0.7007(4)
O8 O 0.34880(17) 0.0457(5) 0.3865(4)
O9 O 0.0000 0.9182(5) 0.2500
loop_
_geom_bond_atom_site_label_1
_geom_bond_atom_site_label_2
_geom_bond_site_symmetry_1
_geom_bond_site_symmetry_2
O1 C1 1_555 1_555
O2 C1 1_555 1_555
O3 Zn2 1_555 1_555
C1 C13 1_555 1_555
Zn1 O4 1_555 1_555
Zn2 O5 1_555 1_555
N1 C9 1_555 1_555
C2 H1 1_555 1_555
N2 C8 1_555 1_555
O4 C7 1_555 1_555
N3 C17 1_555 1_555
N4 Zn1 1_555 1_555
C3 C7 1_555 1_555
C4 C6 1_555 1_555
C5 C11 1_555 1_555
C6 C2 1_555 1_555
C7 O6 1_555 1_555
C8 H2 1_555 1_555
C9 C6 1_555 1_555
H3 C9 1_555 1_555
H4 C9 1_555 1_555
C10 C3 1_555 1_555
H5 C10 1_555 1_555
C11 C3 1_555 1_555
H6 C11 1_555 1_555
C12 N2 1_555 1_555
H7 C12 1_555 1_555
C13 C10 1_555 1_555
C14 N4 1_555 1_555
H8 C14 1_555 1_555
C15 N2 1_555 1_555
H9 C15 1_555 1_555
H10 C15 1_555 1_555
C16 C5 1_555 1_555
H11 C16 1_555 1_555
C17 N1 1_555 1_555
H12 C17 1_555 1_555
C18 N3 1_555 1_555
H13 C18 1_555 1_555
C19 N1 1_555 1_555
H14 C19 1_555 1_555
O7 C20 1_555 1_555
C20 O3 1_555 1_555
O1A C1A 1_555 1_555
O1E Zn2 1_555 1_555
O1D Zn2A 1_555 1_555
O2A C1A 1_555 1_555
O2E Zn2 1_555 1_555
O2D Zn2A 1_555 1_555
O3A Zn2A 1_555 1_555
C1A C13A 1_555 1_555
Zn1D N4D 1_555 1_555
Zn2A N3F 1_555 1_555
Zn2E O1 1_555 1_555
Zn2G N3 1_555 1_555
Zn2C N3D 1_555 1_555
Zn2D O1A 1_555 1_555
N1D C9D 1_555 1_555
C2D C4 1_555 1_555
H1D C2D 1_555 1_555
N2D C8D 1_555 1_555
O4A Zn1 1_555 1_555
N3D C17D 1_555 1_555
N3G Zn2 1_555 1_555
N4D C12D 1_555 1_555
N4A Zn1 1_555 1_555
C3A C7A 1_555 1_555
C4D C2 1_555 1_555
C5A C11A 1_555 1_555
C6D C2D 1_555 1_555
C7A O4A 1_555 1_555
C8D H2D 1_555 1_555
O5A Zn2A 1_555 1_555
C9D C6D 1_555 1_555
H3D C9D 1_555 1_555
H4D C9D 1_555 1_555
C10A C3A 1_555 1_555
H5A C10A 1_555 1_555
C11A C3A 1_555 1_555
H6A C11A 1_555 1_555
C12D N2D 1_555 1_555
H7D C12D 1_555 1_555
C13A C10A 1_555 1_555
C14D N4D 1_555 1_555
H8D C14D 1_555 1_555
C15D N2D 1_555 1_555
H9D C15D 1_555 1_555
H10D C15D 1_555 1_555
C16A C5A 1_555 1_555
H11A C16A 1_555 1_555
C17D N1D 1_555 1_555
H12D C17D 1_555 1_555
C18D N3D 1_555 1_555
H13D C18D 1_555 1_555
C19D N1D 1_555 1_555
H14D C19D 1_555 1_555
O6A C7A 1_555 1_555
O7A C20A 1_555 1_555
C20A O3A 1_555 1_555
O2 Zn2E 1_555 1_555
N4 C12 1_555 1_555
C4 C15 1_555 1_555
C5 C20 1_555 1_555
C8 C14 1_555 1_555
C13 C16 1_555 1_555
C18 C19 1_555 1_555
O2A Zn2D 1_555 1_555
C4D C6D 1_555 1_555
C4D C15D 1_555 1_555
C5A C20A 1_555 1_555
C8D C14D 1_555 1_555
C13A C16A 1_555 1_555
C18D C19D 1_555 1_555

#END
