
#######################################################################
#
#                 Cambridge Crystallographic Data Centre
#                                CCDC 
#
#######################################################################
#
# If this CIF has been generated from an entry in the Cambridge 
# Structural Database, then it will include bibliographic, chemical, 
# crystal, experimental, refinement or atomic coordinate data resulting 
# from the CCDC's data processing and validation procedures.
#
#######################################################################

data_MUZHUL
_symmetry_cell_setting           monoclinic
_symmetry_space_group_name_H-M   'C 2/c'
_symmetry_Int_Tables_number      15
_space_group_name_Hall           '-C 2yn'
loop_
_symmetry_equiv_pos_site_id
_symmetry_equiv_pos_as_xyz
1 x,y,z
2 -x,y,1/2-z
3 1/2+x,1/2+y,z
4 1/2-x,1/2+y,1/2-z
5 -x,-y,-z
6 x,-y,1/2+z
7 1/2-x,1/2-y,-z
8 1/2+x,1/2-y,1/2+z
_cell_length_a                   9.854(2)
_cell_length_b                   10.925(2)
_cell_length_c                   16.300(3)
_cell_angle_alpha                90
_cell_angle_beta                 91.13(3)
_cell_angle_gamma                90
_cell_volume                     1754.43
loop_
_atom_site_label
_atom_site_type_symbol
_atom_site_fract_x
_atom_site_fract_y
_atom_site_fract_z
Zn1 Zn 0.0000 0.97958(7) 0.2500
C1 C -0.3204(5) 1.2847(4) 0.0699(3)
C2 C -0.2150(5) 1.2013(4) 0.0773(3)
C3 C -0.3550(5) 1.3326(4) -0.0068(3)
H1 H -0.4261 1.3883 -0.0114
C4 C -0.3991(5) 1.3336(5) 0.1415(3)
C5 C -0.1760(6) 1.1426(5) 0.1585(3)
O1 O -0.0634(5) 1.0907(5) 0.1619(3)
O2 O -0.3440(4) 1.4139(3) 0.1855(2)
O3 O -0.5164(5) 1.3007(7) 0.1502(3)
O4 O -0.2571(6) 1.1478(5) 0.2142(3)
Zn1B Zn -0.5000 1.47958(7) 0.2500
Zn1F Zn -0.5000 1.52042(7) -0.2500
Zn1D Zn 0.0000 1.02042(7) -0.2500
C1F C -0.1796(5) 1.2153(4) -0.0699(3)
C2F C -0.2850(5) 1.2987(4) -0.0773(3)
C3F C -0.1450(5) 1.1674(4) 0.0068(3)
H1F H -0.0739 1.1117 0.0114
C4F C -0.1009(5) 1.1664(5) -0.1415(3)
C5F C -0.3240(6) 1.3574(5) -0.1585(3)
O1F O -0.4366(5) 1.4093(5) -0.1619(3)
O1A O 0.0634(5) 1.0907(5) 0.3381(3)
O2F O -0.1560(4) 1.0861(3) -0.1855(2)
O2B O 0.1560(4) 0.9139(3) 0.1855(2)
O2C O -0.1560(4) 0.9139(3) 0.3145(2)
O3F O 0.0164(5) 1.1993(7) -0.1502(3)
O4F O -0.2429(6) 1.3522(5) -0.2142(3)
O5 O 0.2049(14) 0.2162(18) 0.1103(7)
O6? O 1.023(5) 0.440(3) 0.220(2)
loop_
_geom_bond_atom_site_label_1
_geom_bond_atom_site_label_2
_geom_bond_site_symmetry_1
_geom_bond_site_symmetry_2
Zn1 O1 1_555 1_555
C1 C2 1_555 1_555
C2 C5 1_555 1_555
C3 C1 1_555 1_555
H1 C3 1_555 1_555
C4 C1 1_555 1_555
C5 O1 1_555 1_555
O2 C4 1_555 1_555
O3 C4 1_555 1_555
O4 C5 1_555 1_555
Zn1B O2 1_555 1_555
Zn1F O1F 1_555 1_555
Zn1D O2F 1_555 1_555
C1F C2F 1_555 1_555
C2F C3 1_555 1_555
C3F C2 1_555 1_555
H1F C3F 1_555 1_555
C4F C1F 1_555 1_555
C5F C2F 1_555 1_555
O1F C5F 1_555 1_555
O1A Zn1 1_555 1_555
O2F C4F 1_555 1_555
O2B Zn1 1_555 1_555
O2C Zn1 1_555 1_555
O3F C4F 1_555 1_555
O4F C5F 1_555 1_555
C1F C3F 1_555 1_555

#END
