
#######################################################################
#
#                 Cambridge Crystallographic Data Centre
#                                CCDC 
#
#######################################################################
#
# If this CIF has been generated from an entry in the Cambridge 
# Structural Database, then it will include bibliographic, chemical, 
# crystal, experimental, refinement or atomic coordinate data resulting 
# from the CCDC's data processing and validation procedures.
#
#######################################################################

data_MUZHIZ
_symmetry_cell_setting           orthorhombic
_symmetry_space_group_name_H-M   'P n n a'
_symmetry_Int_Tables_number      52
_space_group_name_Hall           '-P 2a 2bc'
loop_
_symmetry_equiv_pos_site_id
_symmetry_equiv_pos_as_xyz
1 x,y,z
2 1/2-x,-y,z
3 1/2-x,1/2+y,1/2-z
4 x,1/2-y,1/2-z
5 -x,-y,-z
6 1/2+x,y,-z
7 1/2+x,1/2-y,1/2+z
8 -x,1/2+y,1/2+z
_cell_length_a                   9.4830(4)
_cell_length_b                   13.8308(7)
_cell_length_c                   12.7221(6)
_cell_angle_alpha                90
_cell_angle_beta                 90
_cell_angle_gamma                90
_cell_volume                     1668.6
loop_
_atom_site_label
_atom_site_type_symbol
_atom_site_fract_x
_atom_site_fract_y
_atom_site_fract_z
Cu1 Cu -0.07102(6) 0.44036(4) 1.26591(4)
Cu2 Cu -0.28933(8) 0.2500 0.7500
O1 O -0.4554(3) 0.1642(2) 0.8305(2)
O2 O -0.5501(3) 0.1472(2) 0.9900(3)
O3 O -0.1384(4) 0.3723(2) 0.7344(2)
O4 O -0.0512(3) 0.4915(2) 0.8357(3)
O5 O -0.2278(4) 0.3795(2) 1.1991(2)
O6 O -0.1098(4) 0.5353(2) 1.3746(3)
H1 H -0.112(5) 0.5209(19) 1.4402(9)
H2 H -0.069(2) 0.5898(10) 1.374(3)
N1 N -0.2829(4) 0.3003(2) 0.8909(3)
C1 C -0.4641(5) 0.1845(3) 0.9300(3)
C2 C -0.3613(5) 0.2606(3) 0.9681(3)
C3 C -0.3461(4) 0.2855(3) 1.0725(3)
H3 H -0.4020 0.2567 1.1237
C4 C -0.2450(5) 0.3551(3) 1.1003(3)
C5 C -0.1695(5) 0.4001(3) 1.0175(3)
H4 H -0.1058 0.4494 1.0321
C6 C -0.1911(5) 0.3703(3) 0.9145(4)
C7 C -0.1201(5) 0.4137(3) 0.8214(3)
Cu1C Cu -0.07102(6) 0.05964(4) 0.23409(4)
Cu1F Cu -0.57102(6) 0.05964(4) 0.76591(4)
Cu1D Cu 0.07102(6) 0.55964(4) 0.73409(4)
Cu1E Cu -0.57102(6) 0.44036(4) 0.73409(4)
Cu1G Cu 0.07102(6) -0.05964(4) 0.76591(4)
O1C O -0.4554(3) 0.3358(2) 0.6695(2)
O1F O 0.0446(3) 0.3358(2) 1.3305(2)
O1E O 0.0446(3) 0.1642(2) 0.1695(2)
O2C O -0.5501(3) 0.3528(2) 0.5100(3)
O3C O -0.1384(4) 0.1277(2) 0.7656(2)
O4C O -0.0512(3) 0.0085(2) 0.6643(3)
O4D O 0.0512(3) 0.5085(2) 1.1643(3)
O4G O 0.0512(3) -0.0085(2) 0.3357(3)
O5C O -0.2278(4) 0.1205(2) 0.3009(2)
O6C O -0.1098(4) -0.0353(2) 0.1254(3)
H1C H -0.112(5) -0.0209(19) 0.0598(9)
H2C H -0.069(2) -0.0898(10) 0.126(3)
N1C N -0.2829(4) 0.1997(2) 0.6091(3)
C1C C -0.4641(5) 0.3155(3) 0.5700(3)
C2C C -0.3613(5) 0.2394(3) 0.5319(3)
C3C C -0.3461(4) 0.2145(3) 0.4275(3)
H3C H -0.4020 0.2433 0.3763
C4C C -0.2450(5) 0.1449(3) 0.3997(3)
C5C C -0.1695(5) 0.0999(3) 0.4825(3)
H4C H -0.1058 0.0506 0.4679
C6C C -0.1911(5) 0.1297(3) 0.5855(4)
C7C C -0.1201(5) 0.0863(3) 0.6786(3)
O7 O 0.2500 0.5000 0.4337(4)
loop_
_geom_bond_atom_site_label_1
_geom_bond_atom_site_label_2
_geom_bond_site_symmetry_1
_geom_bond_site_symmetry_2
Cu1 O5 1_555 1_555
Cu2 O1 1_555 1_555
O1 C1 1_555 1_555
O2 C1 1_555 1_555
O3 Cu2 1_555 1_555
O4 C7 1_555 1_555
O5 C4 1_555 1_555
O6 Cu1 1_555 1_555
H1 O6 1_555 1_555
H2 O6 1_555 1_555
N1 Cu2 1_555 1_555
C1 C2 1_555 1_555
C2 N1 1_555 1_555
C3 C2 1_555 1_555
H3 C3 1_555 1_555
C4 C3 1_555 1_555
C5 C4 1_555 1_555
H4 C5 1_555 1_555
C6 N1 1_555 1_555
C7 O3 1_555 1_555
Cu1C O1E 1_555 1_555
Cu1F O1 1_555 1_555
Cu1D O4 1_555 1_555
Cu1E O1C 1_555 1_555
Cu1G O4C 1_555 1_555
O1C Cu2 1_555 1_555
O1F Cu1 1_555 1_555
O2C C1C 1_555 1_555
O3C Cu2 1_555 1_555
O4C C7C 1_555 1_555
O4D Cu1 1_555 1_555
O4G Cu1C 1_555 1_555
O5C Cu1C 1_555 1_555
O6C Cu1C 1_555 1_555
H1C O6C 1_555 1_555
H2C O6C 1_555 1_555
N1C Cu2 1_555 1_555
C1C O1C 1_555 1_555
C2C N1C 1_555 1_555
C3C C2C 1_555 1_555
H3C C3C 1_555 1_555
C4C O5C 1_555 1_555
C5C C4C 1_555 1_555
H4C C5C 1_555 1_555
C6C N1C 1_555 1_555
C7C O3C 1_555 1_555
C5 C6 1_555 1_555
C6 C7 1_555 1_555
C1C C2C 1_555 1_555
C3C C4C 1_555 1_555
C5C C6C 1_555 1_555
C6C C7C 1_555 1_555

#END
