
#######################################################################
#
#                 Cambridge Crystallographic Data Centre
#                                CCDC 
#
#######################################################################
#
# If this CIF has been generated from an entry in the Cambridge 
# Structural Database, then it will include bibliographic, chemical, 
# crystal, experimental, refinement or atomic coordinate data resulting 
# from the CCDC's data processing and validation procedures.
#
#######################################################################

data_MUZHOF
_symmetry_cell_setting           monoclinic
_symmetry_space_group_name_H-M   'C 2/c'
_symmetry_Int_Tables_number      15
_space_group_name_Hall           '-C 2yn'
loop_
_symmetry_equiv_pos_site_id
_symmetry_equiv_pos_as_xyz
1 x,y,z
2 -x,y,1/2-z
3 1/2+x,1/2+y,z
4 1/2-x,1/2+y,1/2-z
5 -x,-y,-z
6 x,-y,1/2+z
7 1/2-x,1/2-y,-z
8 1/2+x,1/2-y,1/2+z
_cell_length_a                   12.0344(13)
_cell_length_b                   7.6276(8)
_cell_length_c                   17.5964(18)
_cell_angle_alpha                90
_cell_angle_beta                 101.731(3)
_cell_angle_gamma                90
_cell_volume                     1581.5
loop_
_atom_site_label
_atom_site_type_symbol
_atom_site_fract_x
_atom_site_fract_y
_atom_site_fract_z
Ag1 Ag 0.27462(4) 0.03168(6) 0.71400(2)
Cu1 Cu 0.5000 -0.40351(11) 0.7500
O1 O 0.3906(3) -0.1926(5) 0.77794(19)
O2 O 0.3974(4) 0.0045(5) 0.8715(2)
O3 O 0.6272(3) -0.6163(5) 0.7763(2)
O4 O 0.6994(3) -0.7790(5) 0.8803(2)
O5 O 0.6644(4) -0.3321(5) 1.0955(2)
H1 H 0.6486 -0.2344 1.1096
N1 N 0.5458(4) -0.3897(6) 0.8617(2)
C1 C 0.5081(5) -0.2531(6) 0.8975(3)
C2 C 0.5443(5) -0.2311(7) 0.9773(3)
H2 H 0.5169 -0.1390 1.0029
C3 C 0.6225(5) -0.3499(7) 1.0181(3)
C4 C 0.6611(5) -0.4892(6) 0.9792(3)
H3 H 0.7126 -0.5703 1.0056
C5 C 0.6207(4) -0.5029(6) 0.9005(3)
C6 C 0.4248(5) -0.1329(6) 0.8464(3)
C7 C 0.6524(4) -0.6448(7) 0.8492(3)
Ag1A Ag 0.72538(4) 0.03168(6) 0.78600(2)
Ag1B Ag 0.77462(4) -0.46832(6) 0.71400(2)
Ag1A_2 Ag 0.72538(4) -0.96832(6) 0.78600(2)
Ag1C Ag 0.22538(4) -0.46832(6) 0.78600(2)
Ag1_2 Ag 0.27462(4) -0.96832(6) 0.71400(2)
O1A O 0.6094(3) -0.1926(5) 0.72206(19)
O2A O 0.6026(4) 0.0045(5) 0.6285(2)
O3A O 0.3728(3) -0.6163(5) 0.7237(2)
O3B O 0.1272(3) -0.1163(5) 0.7763(2)
O3C O 0.8728(3) -0.1163(5) 0.7237(2)
O4A O 0.3006(3) -0.7790(5) 0.6197(2)
O4A_2 O 0.3006(3) 0.2210(5) 0.6197(2)
O4_2 O 0.6994(3) 0.2210(5) 0.8803(2)
O5A O 0.3356(4) -0.3321(5) 0.4045(2)
H1A H 0.3514 -0.2344 0.3904
N1A N 0.4542(4) -0.3897(6) 0.6383(2)
C1A C 0.4919(5) -0.2531(6) 0.6025(3)
C2A C 0.4557(5) -0.2311(7) 0.5227(3)
H2A H 0.4831 -0.1390 0.4971
C3A C 0.3775(5) -0.3499(7) 0.4819(3)
C4A C 0.3389(5) -0.4892(6) 0.5208(3)
H3A H 0.2874 -0.5703 0.4944
C5A C 0.3793(4) -0.5029(6) 0.5995(3)
C6A C 0.5752(5) -0.1329(6) 0.6536(3)
C7A C 0.3476(4) -0.6448(7) 0.6508(3)
loop_
_geom_bond_atom_site_label_1
_geom_bond_atom_site_label_2
_geom_bond_site_symmetry_1
_geom_bond_site_symmetry_2
Ag1 O1 1_555 1_555
Cu1 O1 1_555 1_555
O1 C6 1_555 1_555
O2 C6 1_555 1_555
O3 Cu1 1_555 1_555
O4 C7 1_555 1_555
O5 H1 1_555 1_555
N1 Cu1 1_555 1_555
C1 N1 1_555 1_555
C2 C1 1_555 1_555
H2 C2 1_555 1_555
C3 O5 1_555 1_555
C4 C3 1_555 1_555
H3 C4 1_555 1_555
C5 N1 1_555 1_555
C6 C1 1_555 1_555
C7 O3 1_555 1_555
Ag1A O1A 1_555 1_555
Ag1B O3 1_555 1_555
Ag1A_2 O4 1_555 1_555
Ag1C O3A 1_555 1_555
Ag1_2 O4A 1_555 1_555
O1A Cu1 1_555 1_555
O2A C6A 1_555 1_555
O3A Cu1 1_555 1_555
O3B Ag1 1_555 1_555
O3C Ag1A 1_555 1_555
O4A C7A 1_555 1_555
O4A_2 Ag1 1_555 1_555
O4_2 Ag1A 1_555 1_555
O5A H1A 1_555 1_555
N1A Cu1 1_555 1_555
C1A N1A 1_555 1_555
C2A C1A 1_555 1_555
H2A C2A 1_555 1_555
C3A O5A 1_555 1_555
C4A C3A 1_555 1_555
H3A C4A 1_555 1_555
C5A N1A 1_555 1_555
C6A O1A 1_555 1_555
C7A O3A 1_555 1_555
C2 C3 1_555 1_555
C4 C5 1_555 1_555
C5 C7 1_555 1_555
C1A C6A 1_555 1_555
C2A C3A 1_555 1_555
C4A C5A 1_555 1_555
C5A C7A 1_555 1_555

#END
