
#######################################################################
#
#                 Cambridge Crystallographic Data Centre
#                                CCDC 
#
#######################################################################
#
# If this CIF has been generated from an entry in the Cambridge 
# Structural Database, then it will include bibliographic, chemical, 
# crystal, experimental, refinement or atomic coordinate data resulting 
# from the CCDC's data processing and validation procedures.
#
#######################################################################

data_MUZJUN
_symmetry_cell_setting           triclinic
_symmetry_space_group_name_H-M   'P -1'
_symmetry_Int_Tables_number      2
_space_group_name_Hall           '-P 1'
loop_
_symmetry_equiv_pos_site_id
_symmetry_equiv_pos_as_xyz
1 x,y,z
2 -x,-y,-z
_cell_length_a                   7.3773(15)
_cell_length_b                   14.590(3)
_cell_length_c                   16.597(3)
_cell_angle_alpha                84.21(3)
_cell_angle_beta                 82.37(3)
_cell_angle_gamma                85.86(3)
_cell_volume                     1758.43
loop_
_atom_site_label
_atom_site_type_symbol
_atom_site_fract_x
_atom_site_fract_y
_atom_site_fract_z
Ag1 Ag 0.72680(5) 0.91654(3) 0.10669(2)
Ag2 Ag 0.79191(5) 0.35249(2) 0.56434(2)
N1 N 0.7805(5) 1.2018(2) -0.3912(2)
N2 N 0.7263(4) 0.9807(2) -0.0309(2)
N3 N 0.8361(4) 1.0757(3) 0.0844(2)
N4 N 0.6044(5) 0.8141(3) 0.0292(2)
N5 N 0.7601(4) 0.4979(2) 0.48668(19)
N6 N 0.7280(5) 0.8710(2) 0.24027(19)
N7 N 0.6164(5) 0.4630(3) 0.6444(2)
N8 N 0.9752(5) 0.3557(2) 0.4269(2)
C1 C 0.7943(6) 1.1391(3) -0.4459(2)
H1 H 0.8005 1.1599 -0.501
C2 C 0.7997(6) 1.0452(3) -0.4244(3)
H2 H 0.8096 1.004 -0.4643
C3 C 0.7687(5) 1.1695(3) -0.3120(2)
H3 H 0.7594 1.2122 -0.2734
C4 C 0.7903(6) 1.0133(3) -0.3432(3)
H4 H 0.7978 0.9502 -0.3279
C5 C 0.7695(5) 1.0760(3) -0.2839(2)
C6 C 0.7515(5) 1.0446(3) -0.1954(2)
C7 C 0.8099(6) 1.0958(3) -0.1388(3)
H5 H 0.86 1.1524 -0.1555
C8 C 0.6754(5) 0.9610(3) -0.1668(2)
H6 H 0.6295 0.9262 -0.2026
C9 C 0.7929(6) 1.0619(3) -0.0567(3)
C10 C 0.6684(5) 0.9297(3) -0.0840(2)
C11 C 0.8524(5) 1.1160(3) 0.0068(2)
C12 C 0.6040(5) 0.8369(3) -0.0509(2)
C13 C 0.9179(6) 1.2018(3) -0.0131(3)
H7 H 0.9323 1.2267 -0.0672
C14 C 0.5550(6) 0.7744(3) -0.1013(3)
H8 H 0.5546 0.7909 -0.1569
C15 C 0.9631(6) 1.2520(3) 0.0480(3)
H9 H 1.0051 1.311 0.0355
C16 C 0.5069(6) 0.6870(3) -0.0676(3)
H10 H 0.4735 0.6445 -0.1003
C17 C 0.9438(6) 1.2119(3) 0.1270(3)
H11 H 0.9715 1.2433 0.1695
C18 C 0.5095(6) 0.6645(3) 0.0143(3)
H12 H 0.4808 0.606 0.0381
C19 C 0.8823(6) 1.1238(3) 0.1417(3)
H13 H 0.8726 1.0964 0.1951
C20 C 0.5554(6) 0.7300(3) 0.0605(3)
H14 H 0.5522 0.7152 0.1165
C21 C 0.6949(6) 0.9423(3) 0.2868(3)
H15 H 0.6784 1.0016 0.2614
C22 C 0.6847(6) 0.9307(3) 0.3700(3)
H16 H 0.6649 0.9817 0.4001
C23 C 0.7036(6) 0.8438(3) 0.4089(3)
H17 H 0.6976 0.8353 0.4654
C24 C 0.7466(5) 0.7854(3) 0.2782(2)
H18 H 0.7701 0.7357 0.2466
C25 C 0.7319(5) 0.7683(3) 0.3629(2)
C26 C 0.7421(5) 0.6736(3) 0.4041(2)
C27 C 0.6434(6) 0.6549(3) 0.4813(2)
H19 H 0.567 0.7008 0.5053
C28 C 0.8507(5) 0.6016(3) 0.3696(2)
H20 H 0.921 0.612 0.3191
C29 C 0.6605(5) 0.5674(3) 0.5216(2)
C30 C 0.8526(6) 0.5133(3) 0.4120(2)
C31 C 0.5730(5) 0.5467(3) 0.6080(2)
C32 C 0.9593(5) 0.4335(3) 0.3768(2)
C33 C 0.4607(5) 0.6119(3) 0.6486(3)
H21 H 0.4303 0.6687 0.6215
C34 C 1.0354(6) 0.4384(3) 0.2955(3)
H22 H 1.0181 0.4921 0.2614
C35 C 0.3940(6) 0.5917(3) 0.7298(3)
H23 H 0.3202 0.6352 0.7582
C36 C 1.1375(6) 0.3629(3) 0.2651(3)
H24 H 1.1918 0.3655 0.2111
C37 C 0.4382(6) 0.5063(3) 0.7683(3)
H25 H 0.395 0.4909 0.8229
C38 C 1.1562(6) 0.2843(3) 0.3169(3)
H26 H 1.2238 0.2324 0.2988
C39 C 0.5490(6) 0.4439(3) 0.7231(3)
H27 H 0.578 0.386 0.7486
C40 C 1.0733(6) 0.2840(3) 0.3958(3)
H28 H 1.0862 0.2301 0.4301
Ag2_2 Ag 0.79191(5) 1.35249(2) -0.43566(2)
N1_2 N 0.7805(5) 0.2018(2) 0.6088(2)
N9 N 0.9242(6) 0.3849(3) 0.8513(2)
O1 O 1.0898(4) 0.3788(2) 0.8635(2)
O2 O 0.8687(4) 0.3285(2) 0.80937(19)
O3 O 0.8164(5) 0.4473(2) 0.8810(2)
N10 N 0.6019(5) 0.1567(2) 0.3481(2)
O4 O 0.5385(4) 0.1526(2) 0.28213(18)
O5 O 0.4977(5) 0.1552(3) 0.41363(19)
O6 O 0.7710(5) 0.1617(3) 0.3469(2)
O7 O 0.8034(5) 0.4701(3) 0.0554(3)
H29 H 0.906(12) 0.519(7) 0.069(6)
H30 H 0.835(11) 0.476(6) -0.009(5)
loop_
_geom_bond_atom_site_label_1
_geom_bond_atom_site_label_2
_geom_bond_site_symmetry_1
_geom_bond_site_symmetry_2
Ag1 N2 1_555 1_555
Ag2 N5 1_555 1_555
N1 C1 1_555 1_555
N2 C9 1_555 1_555
N3 Ag1 1_555 1_555
N4 Ag1 1_555 1_555
N5 C29 1_555 1_555
N6 Ag1 1_555 1_555
N7 Ag2 1_555 1_555
N8 Ag2 1_555 1_555
C1 H1 1_555 1_555
C2 C1 1_555 1_555
H2 C2 1_555 1_555
C3 N1 1_555 1_555
H3 C3 1_555 1_555
C4 C2 1_555 1_555
H4 C4 1_555 1_555
C5 C3 1_555 1_555
C6 C5 1_555 1_555
C7 C6 1_555 1_555
H5 C7 1_555 1_555
C8 C6 1_555 1_555
H6 C8 1_555 1_555
C9 C7 1_555 1_555
C10 N2 1_555 1_555
C11 N3 1_555 1_555
C12 N4 1_555 1_555
C13 C11 1_555 1_555
H7 C13 1_555 1_555
C14 C12 1_555 1_555
H8 C14 1_555 1_555
C15 C13 1_555 1_555
H9 C15 1_555 1_555
C16 C14 1_555 1_555
H10 C16 1_555 1_555
C17 C15 1_555 1_555
H11 C17 1_555 1_555
C18 C16 1_555 1_555
H12 C18 1_555 1_555
C19 N3 1_555 1_555
H13 C19 1_555 1_555
C20 N4 1_555 1_555
H14 C20 1_555 1_555
C21 N6 1_555 1_555
H15 C21 1_555 1_555
C22 C21 1_555 1_555
H16 C22 1_555 1_555
C23 C22 1_555 1_555
H17 C23 1_555 1_555
C24 N6 1_555 1_555
H18 C24 1_555 1_555
C25 C23 1_555 1_555
C26 C25 1_555 1_555
C27 C26 1_555 1_555
H19 C27 1_555 1_555
C28 C26 1_555 1_555
H20 C28 1_555 1_555
C29 C27 1_555 1_555
C30 N5 1_555 1_555
C31 N7 1_555 1_555
C32 N8 1_555 1_555
C33 C31 1_555 1_555
H21 C33 1_555 1_555
C34 C32 1_555 1_555
H22 C34 1_555 1_555
C35 C33 1_555 1_555
H23 C35 1_555 1_555
C36 C34 1_555 1_555
H24 C36 1_555 1_555
C37 C35 1_555 1_555
H25 C37 1_555 1_555
C38 C36 1_555 1_555
H26 C38 1_555 1_555
C39 N7 1_555 1_555
H27 C39 1_555 1_555
C40 N8 1_555 1_555
H28 C40 1_555 1_555
N9 O1 1_555 1_555
O2 N9 1_555 1_555
O3 N9 1_555 1_555
N10 O4 1_555 1_555
O5 N10 1_555 1_555
O6 N10 1_555 1_555
O7 H29 1_555 1_555
H30 O7 1_555 1_555
Ag2_2 N1 1_555 1_555
N1_2 Ag2 1_555 1_555
C4 C5 1_555 1_555
C8 C10 1_555 1_555
C9 C11 1_555 1_555
C10 C12 1_555 1_555
C17 C19 1_555 1_555
C18 C20 1_555 1_555
C24 C25 1_555 1_555
C28 C30 1_555 1_555
C29 C31 1_555 1_555
C30 C32 1_555 1_555
C37 C39 1_555 1_555
C38 C40 1_555 1_555

#END
