
#######################################################################
#
#                 Cambridge Crystallographic Data Centre
#                                CCDC 
#
#######################################################################
#
# If this CIF has been generated from an entry in the Cambridge 
# Structural Database, then it will include bibliographic, chemical, 
# crystal, experimental, refinement or atomic coordinate data resulting 
# from the CCDC's data processing and validation procedures.
#
#######################################################################

data_MUZJIB
_symmetry_cell_setting           monoclinic
_symmetry_space_group_name_H-M   'P 21/n'
_symmetry_Int_Tables_number      14
_space_group_name_Hall           '-P 2yn'
loop_
_symmetry_equiv_pos_site_id
_symmetry_equiv_pos_as_xyz
1 x,y,z
2 1/2-x,1/2+y,1/2-z
3 -x,-y,-z
4 1/2+x,1/2-y,1/2+z
_cell_length_a                   13.141(3)
_cell_length_b                   10.939(2)
_cell_length_c                   18.597(4)
_cell_angle_alpha                90
_cell_angle_beta                 91.45(3)
_cell_angle_gamma                90
_cell_volume                     2672.45
loop_
_atom_site_label
_atom_site_type_symbol
_atom_site_fract_x
_atom_site_fract_y
_atom_site_fract_z
Mn1 Mn 0.87566(11) 0.2469(2) 0.13018(9)
Cl1 Cl 1.00271(16) 0.3797(3) 0.19410(15)
Cl2 Cl 0.74808(16) 0.1136(3) 0.06736(14)
N1 N 1.2846(6) 0.2565(11) -0.2665(5)
N2 N 0.9713(5) 0.2492(11) 0.0347(5)
N3 N 0.8222(5) 0.3993(10) 0.0560(5)
N4 N 0.9795(5) 0.0855(10) 0.1387(5)
C1 C 1.2988(7) 0.1788(13) -0.2132(6)
H1 H 1.3511 0.1223 -0.2178
C2 C 1.2105(8) 0.3378(13) -0.2611(6)
H2 H 1.1978 0.3932 -0.2982
C3 C 1.2438(7) 0.1734(12) -0.1514(6)
H3 H 1.2574 0.1164 -0.1153
C4 C 1.1517(8) 0.3405(15) -0.2000(6)
H4 H 1.1015 0.4 -0.1965
C5 C 1.1646(6) 0.2611(13) -0.1466(6)
C6 C 1.0981(6) 0.2521(13) -0.0803(6)
C7 C 1.0204(7) 0.3395(12) -0.0755(6)
H5 H 1.0101 0.3993 -0.1104
C8 C 1.1097(7) 0.1629(12) -0.0290(6)
H6 H 1.1592 0.1029 -0.0338
C9 C 0.9603(7) 0.3316(12) -0.0158(6)
C10 C 1.0466(7) 0.1626(12) 0.0305(7)
C11 C 0.8714(7) 0.4156(13) -0.0080(6)
C12 C 1.0520(7) 0.0776(13) 0.0851(6)
C13 C 0.8413(7) 0.5010(12) -0.0597(7)
H7 H 0.8772 0.511 -0.1017
C14 C 1.1235(7) -0.0192(13) 0.0917(7)
H8 H 1.1735 -0.0279 0.0575
C15 C 0.7570(7) 0.5698(12) -0.0465(7)
H9 H 0.7335 0.6268 -0.0801
C16 C 1.1199(7) -0.1018(14) 0.1491(6)
H10 H 1.1676 -0.1644 0.1527
C17 C 0.7073(7) 0.5542(13) 0.0167(6)
H11 H 0.651 0.6023 0.0267
C18 C 1.0470(7) -0.0917(13) 0.2001(7)
H12 H 1.0433 -0.1459 0.2384
C19 C 0.7406(7) 0.4671(12) 0.0656(6)
H13 H 0.704 0.4558 0.1072
C20 C 0.9773(8) 0.0072(13) 0.1907(7)
H14 H 0.9266 0.0159 0.2243
Mn1C Mn 1.37566(11) 0.2531(2) -0.36982(9)
N1C N 0.7846(6) 0.2435(11) 0.2335(5)
Cl3 Cl 0.10096(18) 0.6151(4) 0.48430(18)
Cl4 Cl 0.00817(19) 0.8050(3) 0.39800(18)
Cl5 Cl 0.0233(2) 0.5594(4) 0.34146(18)
C21 C 0.0053(8) 0.6484(13) 0.4184(6)
Cl6 Cl 0.5005(2) 0.3849(4) 0.86467(18)
Cl7 Cl 0.65349(19) 0.2260(4) 0.92293(17)
Cl8 Cl 0.68803(19) 0.3607(4) 0.79184(18)
C22 C 0.5982(7) 0.2811(13) 0.8431(6)
loop_
_geom_bond_atom_site_label_1
_geom_bond_atom_site_label_2
_geom_bond_site_symmetry_1
_geom_bond_site_symmetry_2
Mn1 Cl1 1_555 1_555
Cl2 Mn1 1_555 1_555
N1 C1 1_555 1_555
N2 Mn1 1_555 1_555
N3 Mn1 1_555 1_555
N4 Mn1 1_555 1_555
C1 H1 1_555 1_555
C2 N1 1_555 1_555
H2 C2 1_555 1_555
C3 C1 1_555 1_555
H3 C3 1_555 1_555
C4 C2 1_555 1_555
H4 C4 1_555 1_555
C5 C3 1_555 1_555
C6 C5 1_555 1_555
C7 C6 1_555 1_555
H5 C7 1_555 1_555
C8 C6 1_555 1_555
H6 C8 1_555 1_555
C9 N2 1_555 1_555
C10 N2 1_555 1_555
C11 N3 1_555 1_555
C12 N4 1_555 1_555
C13 C11 1_555 1_555
H7 C13 1_555 1_555
C14 C12 1_555 1_555
H8 C14 1_555 1_555
C15 C13 1_555 1_555
H9 C15 1_555 1_555
C16 C14 1_555 1_555
H10 C16 1_555 1_555
C17 C15 1_555 1_555
H11 C17 1_555 1_555
C18 C16 1_555 1_555
H12 C18 1_555 1_555
C19 N3 1_555 1_555
H13 C19 1_555 1_555
C20 N4 1_555 1_555
H14 C20 1_555 1_555
Cl3 C21 1_555 1_555
Cl4 C21 1_555 1_555
Cl5 C21 1_555 1_555
Cl6 C22 1_555 1_555
Cl7 C22 1_555 1_555
Cl8 C22 1_555 1_555
Mn1C N1 1_555 1_555
N1C Mn1 1_555 1_555
C4 C5 1_555 1_555
C7 C9 1_555 1_555
C8 C10 1_555 1_555
C9 C11 1_555 1_555
C10 C12 1_555 1_555
C17 C19 1_555 1_555
C18 C20 1_555 1_555

#END
