
#######################################################################
#
#                 Cambridge Crystallographic Data Centre
#                                CCDC 
#
#######################################################################
#
# If this CIF has been generated from an entry in the Cambridge 
# Structural Database, then it will include bibliographic, chemical, 
# crystal, experimental, refinement or atomic coordinate data resulting 
# from the CCDC's data processing and validation procedures.
#
#######################################################################

data_MUZKEY
_symmetry_cell_setting           monoclinic
_symmetry_space_group_name_H-M   'P 21/c'
_symmetry_Int_Tables_number      14
_space_group_name_Hall           '-P 2ybc'
loop_
_symmetry_equiv_pos_site_id
_symmetry_equiv_pos_as_xyz
1 x,y,z
2 -x,1/2+y,1/2-z
3 -x,-y,-z
4 x,1/2-y,1/2+z
_cell_length_a                   9.9357(19)
_cell_length_b                   4.0070(4)
_cell_length_c                   16.696(3)
_cell_angle_alpha                90
_cell_angle_beta                 121.195(13)
_cell_angle_gamma                90
_cell_volume                     568.597
loop_
_atom_site_label
_atom_site_type_symbol
_atom_site_fract_x
_atom_site_fract_y
_atom_site_fract_z
Pb1 Pb -0.16938(3) -0.27641(9) -0.22163(2)
O1 O -0.2313(9) -0.7871(17) -0.1383(5)
O2 O 0.0620(8) -0.8206(19) -0.1640(5)
O3 O 0.0763(8) -1.148(2) -0.0525(4)
O4 O 0.5311(8) -0.345(2) 0.1807(5)
O5 O 0.6857(8) -0.6970(19) 0.1584(5)
C1 C 0.1319(11) -0.938(2) -0.0812(6)
C2 C 0.2869(12) -0.803(3) -0.0134(7)
C3 C 0.4117(11) -0.708(2) 0.0530(7)
C4 C 0.5507(10) -0.579(3) 0.1358(6)
Pb1_2 Pb -0.16938(3) -1.27641(9) -0.22163(2)
Pb1A Pb 0.16938(3) -0.77641(9) -0.27837(2)
Pb1C Pb 0.83062(3) -0.22359(9) 0.27837(2)
Pb1C_2 Pb 0.83062(3) -1.22359(9) 0.27837(2)
O1_2 O -0.2313(9) 0.2129(17) -0.1383(5)
O2_2 O 0.0620(8) 0.1794(19) -0.1640(5)
O2A O -0.0620(8) -0.3206(19) -0.3360(5)
O3_2 O 0.0763(8) -0.148(2) -0.0525(4)
O4C O -0.4689(8) -0.155(2) -0.3193(5)
O5C O -0.3143(8) -0.8030(19) -0.3416(5)
O5C_2 O -0.3143(8) 0.1970(19) -0.3416(5)
loop_
_geom_bond_atom_site_label_1
_geom_bond_atom_site_label_2
_geom_bond_site_symmetry_1
_geom_bond_site_symmetry_2
Pb1 O1 1_555 1_555
O1 Pb1_2 1_555 1_555
O2 Pb1 1_555 1_555
O3 C1 1_555 1_555
O4 C4 1_555 1_555
O5 C4 1_555 1_555
C1 O2 1_555 1_555
C2 C1 1_555 1_555
C3 C2 1_555 1_555
C4 C3 1_555 1_555
Pb1_2 O2 1_555 1_555
Pb1A O2 1_555 1_555
Pb1C O4 1_555 1_555
Pb1C_2 O5 1_555 1_555
O1_2 Pb1 1_555 1_555
O2_2 Pb1 1_555 1_555
O2A Pb1 1_555 1_555
O3_2 Pb1 1_555 1_555
O4C Pb1 1_555 1_555
O5C Pb1 1_555 1_555
O5C_2 Pb1 1_555 1_555
O3 Pb1_2 1_555 1_555
O5 Pb1C 1_555 1_555
Pb1_2 O5C 1_555 1_555
Pb1A O2A 1_555 1_555

#END
