
#######################################################################
#
#                 Cambridge Crystallographic Data Centre
#                                CCDC 
#
#######################################################################
#
# If this CIF has been generated from an entry in the Cambridge 
# Structural Database, then it will include bibliographic, chemical, 
# crystal, experimental, refinement or atomic coordinate data resulting 
# from the CCDC's data processing and validation procedures.
#
#######################################################################

data_MUZKAU
_symmetry_cell_setting           tetragonal
_symmetry_space_group_name_H-M   'I 41/a m d'
_symmetry_Int_Tables_number      141
_space_group_name_Hall           '-I 4bd 2'
loop_
_symmetry_equiv_pos_site_id
_symmetry_equiv_pos_as_xyz
1 x,y,z
2 -x,1/2-y,z
3 x,-y,-z
4 -x,1/2+y,-z
5 1/4-y,1/4-x,3/4-z
6 1/4+y,3/4+x,1/4-z
7 1/4+y,1/4-x,3/4+z
8 1/4-y,3/4+x,1/4+z
9 1/2+x,1/2+y,1/2+z
10 1/2-x,-y,1/2+z
11 1/2+x,1/2-y,1/2-z
12 1/2-x,y,1/2-z
13 3/4-y,3/4-x,1/4-z
14 3/4+y,1/4+x,3/4-z
15 3/4+y,3/4-x,1/4+z
16 3/4-y,1/4+x,3/4+z
17 -x,-y,-z
18 x,1/2+y,-z
19 -x,y,z
20 x,1/2-y,z
21 3/4+y,3/4+x,1/4+z
22 3/4-y,1/4-x,3/4+z
23 3/4-y,3/4+x,1/4-z
24 3/4+y,1/4-x,3/4-z
25 1/2-x,1/2-y,1/2-z
26 1/2+x,y,1/2-z
27 1/2-x,1/2+y,1/2+z
28 1/2+x,-y,1/2+z
29 1/4+y,1/4+x,3/4+z
30 1/4-y,3/4-x,1/4+z
31 1/4-y,1/4+x,3/4-z
32 1/4+y,3/4-x,1/4-z
_cell_length_a                   7.2837(11)
_cell_length_b                   7.2837(11)
_cell_length_c                   10.3247(17)
_cell_angle_alpha                90
_cell_angle_beta                 90
_cell_angle_gamma                90
_cell_volume                     547.749
loop_
_atom_site_label
_atom_site_type_symbol
_atom_site_fract_x
_atom_site_fract_y
_atom_site_fract_z
Pb1 Pb 0.5000 0.2500 0.1250
O1 O 0.5000 0.6012(12) 0.1188(10)
C1 C 0.5000 0.7500 0.1762(13)
C2 C 0.5000 0.7500 0.3170(15)
Pb1B Pb 0.5000 0.7500 -0.1250
Pb1_2 Pb 0.5000 1.2500 0.1250
Pb1D Pb 1.0000 0.7500 0.6250
Pb1B_2 Pb 0.5000 0.7500 0.8750
Pb1D_2 Pb 0.0000 0.7500 0.6250
O1A O 0.5000 0.8988(12) 0.1188(10)
O1D O 0.6488(12) 0.7500 0.6312(10)
O1M O 0.3512(12) 0.7500 0.6312(10)
O1A_2 O 0.5000 -0.1012(12) 0.1188(10)
O1B O 0.5000 0.3988(12) -0.1188(10)
O1C O 0.5000 0.1012(12) -0.1188(10)
O1E O 0.8512(12) 0.2500 0.1312(10)
O1G O 0.6488(12) 0.2500 0.3688(10)
O1L O 0.1488(12) 0.2500 0.1312(10)
O1N O 0.3512(12) 0.2500 0.3688(10)
C1D C 0.5000 0.7500 0.5738(13)
C2D C 0.5000 0.7500 0.4330(15)
loop_
_geom_bond_atom_site_label_1
_geom_bond_atom_site_label_2
_geom_bond_site_symmetry_1
_geom_bond_site_symmetry_2
Pb1 O1 1_555 1_555
O1 C1 1_555 1_555
C1 C2 1_555 1_555
C2 C2D 1_555 1_555
Pb1B O1 1_555 1_555
Pb1_2 O1A 1_555 1_555
Pb1D O1D 1_555 1_555
Pb1B_2 O1D 1_555 1_555
Pb1D_2 O1M 1_555 1_555
O1A C1 1_555 1_555
O1D C1D 1_555 1_555
O1M Pb1B_2 1_555 1_555
O1A_2 Pb1 1_555 1_555
O1B Pb1 1_555 1_555
O1C Pb1 1_555 1_555
O1E Pb1 1_555 1_555
O1G Pb1 1_555 1_555
O1L Pb1 1_555 1_555
O1N Pb1 1_555 1_555
C1D O1M 1_555 1_555
C2D C1D 1_555 1_555
Pb1B O1A 1_555 1_555
Pb1B O1B 1_555 1_555

#END
