
#######################################################################
#
#                 Cambridge Crystallographic Data Centre
#                                CCDC 
#
#######################################################################
#
# If this CIF has been generated from an entry in the Cambridge 
# Structural Database, then it will include bibliographic, chemical, 
# crystal, experimental, refinement or atomic coordinate data resulting 
# from the CCDC's data processing and validation procedures.
#
#######################################################################

data_MUZMUQ
_symmetry_cell_setting           triclinic
_symmetry_space_group_name_H-M   'P -1'
_symmetry_Int_Tables_number      2
_space_group_name_Hall           '-P 1'
loop_
_symmetry_equiv_pos_site_id
_symmetry_equiv_pos_as_xyz
1 x,y,z
2 -x,-y,-z
_cell_length_a                   4.7904(19)
_cell_length_b                   9.549(4)
_cell_length_c                   11.646(5)
_cell_angle_alpha                84.122(5)
_cell_angle_beta                 87.172(5)
_cell_angle_gamma                85.503(5)
_cell_volume                     527.838
loop_
_atom_site_label
_atom_site_type_symbol
_atom_site_fract_x
_atom_site_fract_y
_atom_site_fract_z
Zn1 Zn -0.70377(12) -0.07220(6) 0.62374(5)
C1 C -1.4597(12) -0.7998(6) 0.5902(5)
C2 C -1.4005(11) -0.6875(5) 0.6629(4)
C3 C -1.5355(12) -0.6804(6) 0.7713(5)
H1 H -1.6670 -0.7443 0.7974
C4 C -1.4731(12) -0.5782(6) 0.8395(4)
H2 H -1.5617 -0.5744 0.9121
C5 C -1.2809(10) -0.4816(5) 0.8016(4)
C6 C -1.1529(12) -0.4850(6) 0.6926(5)
H3 H -1.0294 -0.4177 0.6649
C7 C -1.2105(12) -0.5892(6) 0.6256(5)
H4 H -1.1193 -0.5935 0.5535
C8 C -1.0731(11) -0.2708(5) 0.8377(4)
H5 H -0.8909 -0.3055 0.8055
C9 C -1.0307(14) -0.1921(7) 0.9418(5)
H6 H -0.9338 -0.2544 0.9992
H7 H -1.2096 -0.1591 0.9736
H8 H -0.9218 -0.1131 0.9184
C10 C -1.2269(10) -0.1725(5) 0.7464(4)
O1 O -1.6550(8) -0.8765(4) 0.6233(4)
O2 O -1.3052(9) -0.8112(4) 0.5000(3)
O3 O -1.2329(7) -0.3871(4) 0.8780(3)
O4 O -1.0954(7) -0.0904(4) 0.6766(3)
O5 O -1.4878(7) -0.1760(4) 0.7478(3)
Zn1_2 Zn -1.70377(12) -1.07220(6) 0.62374(5)
Zn1A Zn -1.29623(12) -0.92780(6) 0.37626(5)
Zn1_3 Zn -1.70377(12) -0.07220(6) 0.62374(5)
O1_2 O -0.6550(8) 0.1235(4) 0.6233(4)
O2A O -0.6948(9) -0.1888(4) 0.5000(3)
O5_2 O -0.4878(7) -0.1760(4) 0.7478(3)
loop_
_geom_bond_atom_site_label_1
_geom_bond_atom_site_label_2
_geom_bond_site_symmetry_1
_geom_bond_site_symmetry_2
Zn1 O4 1_555 1_555
C1 C2 1_555 1_555
C2 C3 1_555 1_555
C3 H1 1_555 1_555
C4 C3 1_555 1_555
H2 C4 1_555 1_555
C5 C4 1_555 1_555
C6 C5 1_555 1_555
H3 C6 1_555 1_555
C7 C2 1_555 1_555
H4 C7 1_555 1_555
C8 H5 1_555 1_555
C9 C8 1_555 1_555
H6 C9 1_555 1_555
H7 C9 1_555 1_555
H8 C9 1_555 1_555
C10 C8 1_555 1_555
O1 C1 1_555 1_555
O2 C1 1_555 1_555
O3 C5 1_555 1_555
O4 C10 1_555 1_555
O5 C10 1_555 1_555
Zn1_2 O1 1_555 1_555
Zn1A O2 1_555 1_555
Zn1_3 O5 1_555 1_555
O1_2 Zn1 1_555 1_555
O2A Zn1 1_555 1_555
O5_2 Zn1 1_555 1_555
C6 C7 1_555 1_555
C8 O3 1_555 1_555

#END
