
#######################################################################
#
#                 Cambridge Crystallographic Data Centre
#                                CCDC 
#
#######################################################################
#
# If this CIF has been generated from an entry in the Cambridge 
# Structural Database, then it will include bibliographic, chemical, 
# crystal, experimental, refinement or atomic coordinate data resulting 
# from the CCDC's data processing and validation procedures.
#
#######################################################################

data_MUZMAW
_symmetry_cell_setting           triclinic
_symmetry_space_group_name_H-M   'P -1'
_symmetry_Int_Tables_number      2
_space_group_name_Hall           '-P 1'
loop_
_symmetry_equiv_pos_site_id
_symmetry_equiv_pos_as_xyz
1 x,y,z
2 -x,-y,-z
_cell_length_a                   8.6678(1)
_cell_length_b                   10.2623(1)
_cell_length_c                   13.8748(2)
_cell_angle_alpha                96.872(1)
_cell_angle_beta                 99.419(1)
_cell_angle_gamma                99.748(1)
_cell_volume                     1186.1
loop_
_atom_site_label
_atom_site_type_symbol
_atom_site_fract_x
_atom_site_fract_y
_atom_site_fract_z
Eu1 Eu 0.24242(2) 0.750779(18) 0.496877(14)
O1 O 0.5158(4) 0.8332(3) 0.4953(3)
O2 O 0.7029(4) 1.0133(3) 0.4987(3)
O3 O 0.0191(4) 0.5962(3) 0.4055(2)
O4 O -0.1572(4) 0.4113(3) 0.4086(2)
O5 O 0.3563(5) 0.8155(4) 0.6615(3)
H1 H 0.4258 0.8865 0.6860
H2 H 0.3144 0.7867 0.7089
O6 O 0.0271(4) 0.8393(4) 0.5370(3)
H3 H 0.0523 0.9094 0.5802
H4 H -0.0643 0.7965 0.5406
O7 O 0.2169(5) 0.7762(3) 0.3322(2)
H5 H 0.1850 0.7119 0.2839
H6 H 0.2805 0.8378 0.3143
O8 O 0.3675(5) 0.5772(3) 0.4467(3)
H7 H 0.3322 0.4930 0.4377
H8 H 0.4387 0.5937 0.4114
C1 C 0.5641(6) 0.9560(4) 0.4986(3)
C2 C -0.0400(6) 0.5025(5) 0.4460(3)
Eu1A Eu 0.75758(2) 1.249221(18) 0.503123(14)
Eu1A_2 Eu -0.24242(2) 0.249221(18) 0.503123(14)
O1A O 0.4842(4) 1.1668(3) 0.5047(3)
O2A O 0.2971(4) 0.9867(3) 0.5013(3)
O3A O -0.0191(4) 0.4038(3) 0.5945(2)
O3A_2 O 0.9809(4) 1.4038(3) 0.5945(2)
O4A O 0.1572(4) 0.5887(3) 0.5914(2)
O4_2 O 0.8428(4) 1.4113(3) 0.4086(2)
O5A O 0.6437(5) 1.1845(4) 0.3385(3)
H1A H 0.5742 1.1135 0.3140
H2A H 0.6856 1.2133 0.2911
O6A O 0.9729(4) 1.1607(4) 0.4630(3)
H3A H 0.9477 1.0906 0.4198
H4A H 1.0643 1.2035 0.4594
O7A O 0.7831(5) 1.2238(3) 0.6678(2)
H5A H 0.8150 1.2881 0.7161
H6A H 0.7195 1.1622 0.6857
O8A O 0.6325(5) 1.4228(3) 0.5533(3)
H7A H 0.6678 1.5070 0.5623
H8A H 0.5613 1.4063 0.5886
C1A C 0.4359(6) 1.0440(4) 0.5014(3)
C2A C 0.0400(6) 0.4975(5) 0.5540(3)
Br1 Br 0.63183(8) 0.80238(7) -0.05644(5)
Cu1 Cu 0.86112(9) 0.70250(7) 0.05288(5)
O9 O 0.8076(5) 0.5241(3) -0.0268(3)
O10 O 0.8563(6) 0.4110(4) -0.1609(3)
O11 O 0.9509(5) 0.8640(4) 0.1473(3)
O12 O 0.9254(5) 0.9695(4) 0.2917(3)
N1 N 1.0142(5) 0.7376(4) -0.0375(3)
N2 N 1.1893(6) 0.7529(5) -0.1871(3)
N3 N 0.7441(5) 0.6512(4) 0.1587(3)
N4 N 0.5939(6) 0.6246(5) 0.3186(3)
C3 C 0.8763(7) 0.5126(5) -0.1014(4)
C4 C 0.9941(6) 0.6346(5) -0.1107(3)
C5 C 1.0794(6) 0.6430(5) -0.1862(4)
H9 H 1.0608 0.5716 -0.2374
C6 C 1.2099(7) 0.8525(6) -0.1121(4)
H10 H 1.2870 0.9285 -0.1095
C7 C 1.1206(6) 0.8468(5) -0.0379(4)
H11 H 1.1353 0.9197 0.0117
C8 C 0.8928(6) 0.8713(5) 0.2269(4)
C9 C 0.7758(6) 0.7491(5) 0.2363(4)
C10 C 0.6998(7) 0.7361(5) 0.3162(4)
H12 H 0.7223 0.8056 0.3690
C11 C 0.5660(8) 0.5282(6) 0.2414(5)
H13 H 0.4947 0.4496 0.2417
C12 C 0.6401(7) 0.5403(5) 0.1594(4)
H14 H 0.6166 0.4715 0.1061
O13 O 0.5961(5) 0.0282(4) 0.7345(3)
H15 H 0.5365 0.0590 0.6913
H16 H 0.5826 0.0595 0.7918
O14 O 0.8140(6) 0.8544(5) 0.7573(3)
H17 H 0.9053 0.8967 0.7533
H18 H 0.8065 0.8552 0.8178
O15 O 0.7483(4) 0.6939(3) 0.5760(3)
H19 H 0.6820 0.7326 0.5436
H20 H 0.7687 0.7291 0.6367
O16 O 0.5887(6) 0.2201(5) 0.8815(4)
H21 H 0.6490 0.2991 0.8983
H22 H 0.5335 0.2275 0.9407
loop_
_geom_bond_atom_site_label_1
_geom_bond_atom_site_label_2
_geom_bond_site_symmetry_1
_geom_bond_site_symmetry_2
Eu1 O1 1_555 1_555
O1 C1 1_555 1_555
O2 C1 1_555 1_555
O3 Eu1 1_555 1_555
O4 C2 1_555 1_555
O5 Eu1 1_555 1_555
H1 O5 1_555 1_555
H2 O5 1_555 1_555
O6 Eu1 1_555 1_555
H3 O6 1_555 1_555
H4 O6 1_555 1_555
O7 Eu1 1_555 1_555
H5 O7 1_555 1_555
H6 O7 1_555 1_555
O8 Eu1 1_555 1_555
H7 O8 1_555 1_555
H8 O8 1_555 1_555
C1 C1A 1_555 1_555
C2 O3 1_555 1_555
Br1 Cu1 1_555 1_555
Cu1 O9 1_555 1_555
O9 C3 1_555 1_555
O10 C3 1_555 1_555
O11 Cu1 1_555 1_555
O12 C8 1_555 1_555
N1 Cu1 1_555 1_555
N2 C5 1_555 1_555
N3 Cu1 1_555 1_555
N4 C10 1_555 1_555
C3 C4 1_555 1_555
C4 N1 1_555 1_555
C5 C4 1_555 1_555
H9 C5 1_555 1_555
C6 N2 1_555 1_555
H10 C6 1_555 1_555
C7 N1 1_555 1_555
H11 C7 1_555 1_555
C8 O11 1_555 1_555
C9 N3 1_555 1_555
C10 C9 1_555 1_555
H12 C10 1_555 1_555
C11 N4 1_555 1_555
H13 C11 1_555 1_555
C12 N3 1_555 1_555
H14 C12 1_555 1_555
O13 H15 1_555 1_555
H16 O13 1_555 1_555
O14 H17 1_555 1_555
H18 O14 1_555 1_555
O15 H19 1_555 1_555
H20 O15 1_555 1_555
O16 H21 1_555 1_555
H22 O16 1_555 1_555
Eu1A O2 1_555 1_555
Eu1A_2 O4 1_555 1_555
O1A Eu1A 1_555 1_555
O2A Eu1 1_555 1_555
O3A Eu1A_2 1_555 1_555
O3A_2 Eu1A 1_555 1_555
O4A Eu1 1_555 1_555
O4_2 Eu1A 1_555 1_555
O5A Eu1A 1_555 1_555
H1A O5A 1_555 1_555
H2A O5A 1_555 1_555
O6A Eu1A 1_555 1_555
H3A O6A 1_555 1_555
H4A O6A 1_555 1_555
O7A Eu1A 1_555 1_555
H5A O7A 1_555 1_555
H6A O7A 1_555 1_555
O8A Eu1A 1_555 1_555
H7A O8A 1_555 1_555
H8A O8A 1_555 1_555
C1A O1A 1_555 1_555
C2A C2 1_555 1_555
C6 C7 1_555 1_555
C8 C9 1_555 1_555
C11 C12 1_555 1_555
O2A C1A 1_555 1_555
O3A C2A 1_555 1_555
O4A C2A 1_555 1_555

#END
