
#######################################################################
#
#                 Cambridge Crystallographic Data Centre
#                                CCDC 
#
#######################################################################
#
# If this CIF has been generated from an entry in the Cambridge 
# Structural Database, then it will include bibliographic, chemical, 
# crystal, experimental, refinement or atomic coordinate data resulting 
# from the CCDC's data processing and validation procedures.
#
#######################################################################

data_MUZMOK
_symmetry_cell_setting           monoclinic
_symmetry_space_group_name_H-M   'C 2/c'
_symmetry_Int_Tables_number      15
_space_group_name_Hall           '-C 2yn'
loop_
_symmetry_equiv_pos_site_id
_symmetry_equiv_pos_as_xyz
1 x,y,z
2 -x,y,1/2-z
3 1/2+x,1/2+y,z
4 1/2-x,1/2+y,1/2-z
5 -x,-y,-z
6 x,-y,1/2+z
7 1/2-x,1/2-y,-z
8 1/2+x,1/2-y,1/2+z
_cell_length_a                   37.911(7)
_cell_length_b                   11.669(2)
_cell_length_c                   22.084(5)
_cell_angle_alpha                90
_cell_angle_beta                 113.590(12)
_cell_angle_gamma                90
_cell_volume                     8953.18
loop_
_atom_site_label
_atom_site_type_symbol
_atom_site_fract_x
_atom_site_fract_y
_atom_site_fract_z
Cd1 Cd 0.0000 0.73403(4) 0.2500
Cd2 Cd 0.093343(9) 0.76019(3) 0.171215(17)
C1 C 0.16524(14) 0.7593(4) 0.1679(3)
C2 C 0.20368(14) 0.7640(4) 0.1617(2)
C3 C 0.22130(14) 0.8715(4) 0.1641(2)
C4 C 0.20488(14) 0.9769(4) 0.1729(2)
H1 H 0.1809 0.9761 0.1752
C5 C 0.22334(14) 1.0783(4) 0.1780(2)
H2 H 0.2124 1.1458 0.1846
C6 C 0.25970(14) 1.0805(5) 0.1732(3)
H3 H 0.2726 1.1498 0.1776
C7 C 0.27578(14) 0.9838(4) 0.1622(2)
H4 H 0.2989 0.9880 0.1570
C8 C 0.25782(14) 0.8758(4) 0.1585(2)
C9 C 0.27493(13) 0.7735(5) 0.1508(3)
H5 H 0.2978 0.7767 0.1449
C10 C 0.25840(13) 0.6663(4) 0.1520(2)
C11 C 0.27740(13) 0.5608(5) 0.1506(3)
H6 H 0.3009 0.5629 0.1467
C12 C 0.26203(13) 0.4589(5) 0.1547(3)
H7 H 0.2755 0.3920 0.1553
C13 C 0.22558(14) 0.4524(4) 0.1581(3)
H8 H 0.2151 0.3814 0.1607
C14 C 0.20578(13) 0.5503(4) 0.1575(2)
H9 H 0.1814 0.5449 0.1580
C15 C 0.22160(13) 0.6609(4) 0.1564(2)
C16 C 0.09330(14) 0.7433(4) 0.3204(3)
C17 C 0.13103(14) 0.7203(4) 0.3795(3)
C18 C 0.15327(13) 0.8153(5) 0.4139(2)
C19 C 0.14094(14) 0.9319(4) 0.3968(2)
H10 H 0.1180 0.9463 0.3607
C20 C 0.16207(15) 1.0214(5) 0.4321(3)
H11 H 0.1535 1.0961 0.4205
C21 C 0.19767(16) 1.0005(6) 0.4873(3)
H12 H 0.2122 1.0619 0.5113
C22 C 0.21025(14) 0.8928(6) 0.5048(3)
H13 H 0.2336 0.8811 0.5405
C23 C 0.18879(15) 0.7967(5) 0.4700(3)
C24 C 0.20044(15) 0.6851(5) 0.4899(3)
H14 H 0.2236 0.6732 0.5260
C25 C 0.17864(14) 0.5903(5) 0.4575(3)
C26 C 0.19023(16) 0.4745(6) 0.4788(3)
H15 H 0.2132 0.4624 0.5153
C27 C 0.16895(16) 0.3832(5) 0.4479(3)
H16 H 0.1765 0.3095 0.4638
C28 C 0.13449(15) 0.4014(5) 0.3898(3)
H17 H 0.1201 0.3386 0.3673
C29 C 0.12248(14) 0.5083(4) 0.3671(3)
H18 H 0.1002 0.5173 0.3290
C30 C 0.14329(13) 0.6072(5) 0.4003(3)
C31 C 0.01060(14) 0.7612(3) 0.1017(3)
C32 C -0.03164(13) 0.7775(4) 0.0574(2)
C33 C -0.04777(13) 0.8873(4) 0.0492(2)
C34 C -0.02593(14) 0.9873(4) 0.0778(3)
H19 H -0.0003 0.9789 0.1068
C35 C -0.04102(15) 1.0943(4) 0.0645(3)
H20 H -0.0258 1.1578 0.0835
C36 C -0.08036(15) 1.1087(4) 0.0213(3)
H21 H -0.0906 1.1821 0.0112
C37 C -0.10322(15) 1.0155(5) -0.0057(3)
H22 H -0.1290 1.0263 -0.0331
C38 C -0.08791(12) 0.9016(4) 0.0079(2)
C39 C -0.11032(14) 0.8050(5) -0.0198(2)
H23 H -0.1365 0.8140 -0.0448
C40 C -0.09447(14) 0.6959(5) -0.0110(2)
C41 C -0.11701(15) 0.5962(5) -0.0387(3)
H24 H -0.1434 0.6043 -0.0619
C42 C -0.10144(16) 0.4909(5) -0.0326(3)
H25 H -0.1171 0.4276 -0.0503
C43 C -0.06054(15) 0.4766(5) 0.0014(3)
H26 H -0.0496 0.4045 0.0040
C44 C -0.03787(14) 0.5684(4) 0.0297(2)
H27 H -0.0114 0.5582 0.0517
C45 C -0.05393(13) 0.6806(4) 0.0262(2)
C46 C 0.06269(13) 0.5025(4) 0.1633(2)
H28 H 0.0393 0.5413 0.1468
C47 C 0.06215(13) 0.3850(4) 0.1593(2)
H29 H 0.0389 0.3458 0.1403
C48 C 0.09711(13) 0.3250(4) 0.1842(2)
C49 C 0.09748(13) 0.1983(4) 0.1787(2)
C50 C 0.07138(13) 0.1412(4) 0.1241(2)
H30 H 0.0534 0.1826 0.0895
C51 C 0.07203(13) 0.0234(4) 0.1210(2)
H31 H 0.0550 -0.0134 0.0833
C52 C 0.12267(13) 0.0134(4) 0.2240(2)
H32 H 0.1402 -0.0299 0.2581
C53 C 0.12393(13) 0.1319(4) 0.2292(2)
H33 H 0.1423 0.1671 0.2662
C54 C 0.13057(13) 0.3895(4) 0.2130(2)
H34 H 0.1544 0.3533 0.2313
C55 C 0.12828(13) 0.5078(4) 0.2145(2)
H35 H 0.1509 0.5496 0.2336
C56 C 0.02351(13) 0.4758(4) 0.3033(2)
H36 H 0.0397 0.5160 0.3405
C57 C 0.02446(13) 0.3566(4) 0.3048(2)
H37 H 0.0413 0.3181 0.3421
C58 C 0.0000 0.2959(6) 0.2500
C59 C 0.0000 0.1700(5) 0.2500
C60 C 0.03352(13) 0.1064(4) 0.2615(2)
H38 H 0.0567 0.1439 0.2703
C61 C 0.03203(14) -0.0113(4) 0.2596(2)
H39 H 0.0543 -0.0519 0.2654
N1 N 0.09502(10) 0.5640(3) 0.1896(2)
N2 N 0.09681(11) -0.0406(3) 0.17117(19)
N3 N 0.0000 0.5352(5) 0.2500
N4 N 0.0000 -0.0696(5) 0.2500
O1 O 0.16448(11) 0.7643(3) 0.22400(18)
O2 O 0.13513(10) 0.7492(3) 0.11552(18)
O3 O 0.09600(9) 0.7993(3) 0.27405(16)
O4 O 0.06284(9) 0.7083(3) 0.32420(17)
O5 O 0.01983(10) 0.7379(3) 0.16173(17)
O6 O 0.03550(10) 0.7691(3) 0.07748(17)
Cd1_2 Cd 0.0000 -0.26597(4) 0.2500
Cd2A Cd -0.093343(9) 0.76019(3) 0.328785(17)
Cd2_2 Cd 0.093343(9) -0.23981(3) 0.171215(17)
Cd2_3 Cd 0.093343(9) 1.76019(3) 0.171215(17)
C1A C -0.16524(14) 0.7593(4) 0.3321(3)
C2A C -0.20368(14) 0.7640(4) 0.3383(2)
C3A C -0.22130(14) 0.8715(4) 0.3359(2)
C4A C -0.20488(14) 0.9769(4) 0.3271(2)
H1A H -0.1809 0.9761 0.3248
C5A C -0.22334(14) 1.0783(4) 0.3220(2)
H2A H -0.2124 1.1458 0.3154
C6A C -0.25970(14) 1.0805(5) 0.3268(3)
H3A H -0.2726 1.1498 0.3224
C7A C -0.27578(14) 0.9838(4) 0.3378(2)
H4A H -0.2989 0.9880 0.3430
C8A C -0.25782(14) 0.8758(4) 0.3415(2)
C9A C -0.27493(13) 0.7735(5) 0.3492(3)
H5A H -0.2978 0.7767 0.3551
C10A C -0.25840(13) 0.6663(4) 0.3480(2)
C11A C -0.27740(13) 0.5608(5) 0.3494(3)
H6A H -0.3009 0.5629 0.3533
C12A C -0.26203(13) 0.4589(5) 0.3453(3)
H7A H -0.2755 0.3920 0.3447
C13A C -0.22558(14) 0.4524(4) 0.3419(3)
H8A H -0.2151 0.3814 0.3393
C14A C -0.20578(13) 0.5503(4) 0.3425(2)
H9A H -0.1814 0.5449 0.3420
C15A C -0.22160(13) 0.6609(4) 0.3436(2)
C16A C -0.09330(14) 0.7433(4) 0.1796(3)
C17A C -0.13103(14) 0.7203(4) 0.1205(3)
C18A C -0.15327(13) 0.8153(5) 0.0861(2)
C19A C -0.14094(14) 0.9319(4) 0.1032(2)
H10A H -0.1180 0.9463 0.1393
C20A C -0.16207(15) 1.0214(5) 0.0679(3)
H11A H -0.1535 1.0961 0.0795
C21A C -0.19767(16) 1.0005(6) 0.0127(3)
H12A H -0.2122 1.0619 -0.0113
C22A C -0.21025(14) 0.8928(6) -0.0048(3)
H13A H -0.2336 0.8811 -0.0405
C23A C -0.18879(15) 0.7967(5) 0.0300(3)
C24A C -0.20044(15) 0.6851(5) 0.0101(3)
H14A H -0.2236 0.6732 -0.0260
C25A C -0.17864(14) 0.5903(5) 0.0425(3)
C26A C -0.19023(16) 0.4745(6) 0.0212(3)
H15A H -0.2132 0.4624 -0.0153
C27A C -0.16895(16) 0.3832(5) 0.0521(3)
H16A H -0.1765 0.3095 0.0362
C28A C -0.13449(15) 0.4014(5) 0.1102(3)
H17A H -0.1201 0.3386 0.1327
C29A C -0.12248(14) 0.5083(4) 0.1329(3)
H18A H -0.1002 0.5173 0.1710
C30A C -0.14329(13) 0.6072(5) 0.0997(3)
C31A C -0.01060(14) 0.7612(3) 0.3983(3)
C32A C 0.03164(13) 0.7775(4) 0.4426(2)
C33A C 0.04777(13) 0.8873(4) 0.4508(2)
C34A C 0.02593(14) 0.9873(4) 0.4222(3)
H19A H 0.0003 0.9789 0.3932
C35A C 0.04102(15) 1.0943(4) 0.4355(3)
H20A H 0.0258 1.1578 0.4165
C36A C 0.08036(15) 1.1087(4) 0.4787(3)
H21A H 0.0906 1.1821 0.4888
C37A C 0.10322(15) 1.0155(5) 0.5057(3)
H22A H 0.1290 1.0263 0.5331
C38A C 0.08791(12) 0.9016(4) 0.4921(2)
C39A C 0.11032(14) 0.8050(5) 0.5198(2)
H23A H 0.1365 0.8140 0.5448
C40A C 0.09447(14) 0.6959(5) 0.5110(2)
C41A C 0.11701(15) 0.5962(5) 0.5387(3)
H24A H 0.1434 0.6043 0.5619
C42A C 0.10144(16) 0.4909(5) 0.5326(3)
H25A H 0.1171 0.4276 0.5503
C43A C 0.06054(15) 0.4766(5) 0.4986(3)
H26A H 0.0496 0.4045 0.4960
C44A C 0.03787(14) 0.5684(4) 0.4703(2)
H27A H 0.0114 0.5582 0.4483
C45A C 0.05393(13) 0.6806(4) 0.4738(2)
C46_2 C 0.06269(13) 1.5025(4) 0.1633(2)
H28_2 H 0.0393 1.5413 0.1468
C47_2 C 0.06215(13) 1.3850(4) 0.1593(2)
H29_2 H 0.0389 1.3458 0.1403
C48_2 C 0.09711(13) 1.3250(4) 0.1842(2)
C49_2 C 0.09748(13) 1.1983(4) 0.1787(2)
C50_2 C 0.07138(13) 1.1412(4) 0.1241(2)
H30_2 H 0.0534 1.1826 0.0895
C51_2 C 0.07203(13) 1.0234(4) 0.1210(2)
H31_2 H 0.0550 0.9866 0.0833
C52_2 C 0.12267(13) 1.0134(4) 0.2240(2)
H32_2 H 0.1402 0.9701 0.2581
C53_2 C 0.12393(13) 1.1319(4) 0.2292(2)
H33_2 H 0.1423 1.1671 0.2662
C54_2 C 0.13057(13) 1.3895(4) 0.2130(2)
H34_2 H 0.1544 1.3533 0.2313
C55_2 C 0.12828(13) 1.5078(4) 0.2145(2)
H35_2 H 0.1509 1.5496 0.2336
C56A C -0.02351(13) 0.4758(4) 0.1967(2)
H36A H -0.0397 0.5160 0.1595
C57A C -0.02446(13) 0.3566(4) 0.1952(2)
H37A H -0.0413 0.3181 0.1579
C60A C -0.03352(13) 0.1064(4) 0.2385(2)
H38A H -0.0567 0.1439 0.2297
C61A C -0.03203(14) -0.0113(4) 0.2404(2)
H39A H -0.0543 -0.0519 0.2346
N1_2 N 0.09502(10) 1.5640(3) 0.1896(2)
N1A N -0.09502(10) 0.5640(3) 0.3104(2)
N2_2 N 0.09681(11) 0.9594(3) 0.17117(19)
N2A N -0.09681(11) 0.9594(3) 0.32883(19)
N4_2 N 0.0000 0.9304(5) 0.2500
O1A O -0.16448(11) 0.7643(3) 0.27600(18)
O2A O -0.13513(10) 0.7492(3) 0.38448(18)
O3A O -0.09600(9) 0.7993(3) 0.22595(16)
O4A O -0.06284(9) 0.7083(3) 0.17580(17)
O5A O -0.01983(10) 0.7379(3) 0.33827(17)
O6A O -0.03550(10) 0.7691(3) 0.42252(17)
loop_
_geom_bond_atom_site_label_1
_geom_bond_atom_site_label_2
_geom_bond_site_symmetry_1
_geom_bond_site_symmetry_2
Cd1 N3 1_555 1_555
Cd2 N1 1_555 1_555
C1 C2 1_555 1_555
C2 C3 1_555 1_555
C3 C4 1_555 1_555
C4 H1 1_555 1_555
C5 C4 1_555 1_555
H2 C5 1_555 1_555
C6 C5 1_555 1_555
H3 C6 1_555 1_555
C7 C6 1_555 1_555
H4 C7 1_555 1_555
C8 C3 1_555 1_555
C9 C8 1_555 1_555
H5 C9 1_555 1_555
C10 C9 1_555 1_555
C11 C10 1_555 1_555
H6 C11 1_555 1_555
C12 C11 1_555 1_555
H7 C12 1_555 1_555
C13 C12 1_555 1_555
H8 C13 1_555 1_555
C14 C13 1_555 1_555
H9 C14 1_555 1_555
C15 C2 1_555 1_555
C16 C17 1_555 1_555
C17 C18 1_555 1_555
C18 C19 1_555 1_555
C19 H10 1_555 1_555
C20 C19 1_555 1_555
H11 C20 1_555 1_555
C21 C20 1_555 1_555
H12 C21 1_555 1_555
C22 C21 1_555 1_555
H13 C22 1_555 1_555
C23 C18 1_555 1_555
C24 C23 1_555 1_555
H14 C24 1_555 1_555
C25 C24 1_555 1_555
C26 C25 1_555 1_555
H15 C26 1_555 1_555
C27 C26 1_555 1_555
H16 C27 1_555 1_555
C28 C27 1_555 1_555
H17 C28 1_555 1_555
C29 C28 1_555 1_555
H18 C29 1_555 1_555
C30 C17 1_555 1_555
C31 C32 1_555 1_555
C32 C33 1_555 1_555
C33 C34 1_555 1_555
C34 H19 1_555 1_555
C35 C34 1_555 1_555
H20 C35 1_555 1_555
C36 C35 1_555 1_555
H21 C36 1_555 1_555
C37 C36 1_555 1_555
H22 C37 1_555 1_555
C38 C33 1_555 1_555
C39 C38 1_555 1_555
H23 C39 1_555 1_555
C40 C39 1_555 1_555
C41 C40 1_555 1_555
H24 C41 1_555 1_555
C42 C41 1_555 1_555
H25 C42 1_555 1_555
C43 C42 1_555 1_555
H26 C43 1_555 1_555
C44 C43 1_555 1_555
H27 C44 1_555 1_555
C45 C32 1_555 1_555
C46 H28 1_555 1_555
C47 C46 1_555 1_555
H29 C47 1_555 1_555
C48 C47 1_555 1_555
C49 C48 1_555 1_555
C50 C49 1_555 1_555
H30 C50 1_555 1_555
C51 C50 1_555 1_555
H31 C51 1_555 1_555
C52 H32 1_555 1_555
C53 C49 1_555 1_555
H33 C53 1_555 1_555
C54 C48 1_555 1_555
H34 C54 1_555 1_555
C55 C54 1_555 1_555
H35 C55 1_555 1_555
C56 H36 1_555 1_555
C57 C56 1_555 1_555
H37 C57 1_555 1_555
C58 C57 1_555 1_555
C59 C58 1_555 1_555
C60 C59 1_555 1_555
H38 C60 1_555 1_555
C61 C60 1_555 1_555
H39 C61 1_555 1_555
N1 C46 1_555 1_555
N2 C51 1_555 1_555
N3 C56 1_555 1_555
N4 C61 1_555 1_555
O1 Cd2 1_555 1_555
O2 Cd2 1_555 1_555
O3 Cd2 1_555 1_555
O4 Cd1 1_555 1_555
O5 Cd1 1_555 1_555
O6 Cd2 1_555 1_555
Cd1_2 N4 1_555 1_555
Cd2A N1A 1_555 1_555
Cd2_2 N2 1_555 1_555
Cd2_3 N1_2 1_555 1_555
C1A C2A 1_555 1_555
C2A C3A 1_555 1_555
C3A C4A 1_555 1_555
C4A H1A 1_555 1_555
C5A C4A 1_555 1_555
H2A C5A 1_555 1_555
C6A C5A 1_555 1_555
H3A C6A 1_555 1_555
C7A C6A 1_555 1_555
H4A C7A 1_555 1_555
C8A C3A 1_555 1_555
C9A C8A 1_555 1_555
H5A C9A 1_555 1_555
C10A C9A 1_555 1_555
C11A C10A 1_555 1_555
H6A C11A 1_555 1_555
C12A C11A 1_555 1_555
H7A C12A 1_555 1_555
C13A C12A 1_555 1_555
H8A C13A 1_555 1_555
C14A C13A 1_555 1_555
H9A C14A 1_555 1_555
C15A C2A 1_555 1_555
C16A C17A 1_555 1_555
C17A C18A 1_555 1_555
C18A C19A 1_555 1_555
C19A H10A 1_555 1_555
C20A C19A 1_555 1_555
H11A C20A 1_555 1_555
C21A C20A 1_555 1_555
H12A C21A 1_555 1_555
C22A C21A 1_555 1_555
H13A C22A 1_555 1_555
C23A C18A 1_555 1_555
C24A C23A 1_555 1_555
H14A C24A 1_555 1_555
C25A C24A 1_555 1_555
C26A C25A 1_555 1_555
H15A C26A 1_555 1_555
C27A C26A 1_555 1_555
H16A C27A 1_555 1_555
C28A C27A 1_555 1_555
H17A C28A 1_555 1_555
C29A C28A 1_555 1_555
H18A C29A 1_555 1_555
C30A C17A 1_555 1_555
C31A C32A 1_555 1_555
C32A C33A 1_555 1_555
C33A C34A 1_555 1_555
C34A H19A 1_555 1_555
C35A C34A 1_555 1_555
H20A C35A 1_555 1_555
C36A C35A 1_555 1_555
H21A C36A 1_555 1_555
C37A C36A 1_555 1_555
H22A C37A 1_555 1_555
C38A C33A 1_555 1_555
C39A C38A 1_555 1_555
H23A C39A 1_555 1_555
C40A C39A 1_555 1_555
C41A C40A 1_555 1_555
H24A C41A 1_555 1_555
C42A C41A 1_555 1_555
H25A C42A 1_555 1_555
C43A C42A 1_555 1_555
H26A C43A 1_555 1_555
C44A C43A 1_555 1_555
H27A C44A 1_555 1_555
C45A C32A 1_555 1_555
C46_2 H28_2 1_555 1_555
C47_2 C46_2 1_555 1_555
H29_2 C47_2 1_555 1_555
C48_2 C47_2 1_555 1_555
C49_2 C48_2 1_555 1_555
C50_2 C49_2 1_555 1_555
H30_2 C50_2 1_555 1_555
C51_2 C50_2 1_555 1_555
H31_2 C51_2 1_555 1_555
C52_2 H32_2 1_555 1_555
C53_2 C49_2 1_555 1_555
H33_2 C53_2 1_555 1_555
C54_2 C48_2 1_555 1_555
H34_2 C54_2 1_555 1_555
C55_2 C54_2 1_555 1_555
H35_2 C55_2 1_555 1_555
C56A N3 1_555 1_555
H36A C56A 1_555 1_555
C57A C58 1_555 1_555
H37A C57A 1_555 1_555
C60A C59 1_555 1_555
H38A C60A 1_555 1_555
C61A N4 1_555 1_555
H39A C61A 1_555 1_555
N1_2 C46_2 1_555 1_555
N2_2 Cd2 1_555 1_555
N2A Cd2A 1_555 1_555
N4_2 Cd1 1_555 1_555
O1A Cd2A 1_555 1_555
O2A Cd2A 1_555 1_555
O3A Cd2A 1_555 1_555
O4A Cd1 1_555 1_555
O5A Cd1 1_555 1_555
O6A Cd2A 1_555 1_555
C1 O1 1_555 1_555
C1 O2 1_555 1_555
C7 C8 1_555 1_555
C10 C15 1_555 1_555
C14 C15 1_555 1_555
C16 O3 1_555 1_555
C16 O4 1_555 1_555
C22 C23 1_555 1_555
C25 C30 1_555 1_555
C29 C30 1_555 1_555
C31 O5 1_555 1_555
C31 O6 1_555 1_555
C37 C38 1_555 1_555
C40 C45 1_555 1_555
C44 C45 1_555 1_555
C52 C53 1_555 1_555
C52 N2 1_555 1_555
C55 N1 1_555 1_555
C1A O1A 1_555 1_555
C1A O2A 1_555 1_555
C7A C8A 1_555 1_555
C10A C15A 1_555 1_555
C14A C15A 1_555 1_555
C16A O3A 1_555 1_555
C16A O4A 1_555 1_555
C22A C23A 1_555 1_555
C25A C30A 1_555 1_555
C29A C30A 1_555 1_555
C31A O5A 1_555 1_555
C31A O6A 1_555 1_555
C37A C38A 1_555 1_555
C40A C45A 1_555 1_555
C44A C45A 1_555 1_555
C51_2 N2_2 1_555 1_555
C52_2 C53_2 1_555 1_555
C52_2 N2_2 1_555 1_555
C55_2 N1_2 1_555 1_555
C56A C57A 1_555 1_555
C60A C61A 1_555 1_555

#END
