
#######################################################################
#
#                 Cambridge Crystallographic Data Centre
#                                CCDC 
#
#######################################################################
#
# If this CIF has been generated from an entry in the Cambridge 
# Structural Database, then it will include bibliographic, chemical, 
# crystal, experimental, refinement or atomic coordinate data resulting 
# from the CCDC's data processing and validation procedures.
#
#######################################################################

data_MUZNIF
_symmetry_cell_setting           monoclinic
_symmetry_space_group_name_H-M   'C 2/c'
_symmetry_Int_Tables_number      15
_space_group_name_Hall           '-C 2yn'
loop_
_symmetry_equiv_pos_site_id
_symmetry_equiv_pos_as_xyz
1 x,y,z
2 -x,y,1/2-z
3 1/2+x,1/2+y,z
4 1/2-x,1/2+y,1/2-z
5 -x,-y,-z
6 x,-y,1/2+z
7 1/2-x,1/2-y,-z
8 1/2+x,1/2-y,1/2+z
_cell_length_a                   23.207(5)
_cell_length_b                   9.963(2)
_cell_length_c                   21.080(4)
_cell_angle_alpha                90
_cell_angle_beta                 108.55(3)
_cell_angle_gamma                90
_cell_volume                     4620.72
loop_
_atom_site_label
_atom_site_type_symbol
_atom_site_fract_x
_atom_site_fract_y
_atom_site_fract_z
Co1 Co -0.03384(3) 0.16176(6) 0.55117(3)
O1 O -0.00581(14) 0.9871(3) 0.59795(15)
O2 O -0.02346(13) 0.8543(3) 0.50902(14)
O3 O -0.03280(13) 0.3709(3) 0.55299(14)
O4 O 0.04321(13) 0.2805(3) 0.63023(14)
O5 O 0.10546(16) 0.7910(3) 0.82605(16)
O6 O 0.14739(18) 0.5917(4) 0.82263(16)
H1 H 0.1645 0.6062 0.8625
N1 N -0.11017(16) 0.1580(4) 0.46139(16)
N2 N -0.40811(16) 0.3230(4) 0.38598(17)
N3 N -0.30605(19) 0.1027(4) -0.04068(19)
N4 N -0.23632(16) 0.1328(4) 0.21429(17)
N5 N -0.33144(16) 0.2076(3) 0.18871(16)
H2 H -0.3678 0.2296 0.1652
C1 C -0.1289(2) 0.0471(5) 0.4254(2)
H3 H -0.1112 -0.0342 0.4429
C2 C -0.1732(2) 0.0466(5) 0.3635(2)
H4 H -0.1847 -0.0334 0.3402
C3 C -0.20007(19) 0.1662(5) 0.3366(2)
C4 C -0.1804(2) 0.2814(5) 0.3734(2)
H5 H -0.1974 0.3640 0.3570
C5 C -0.1361(2) 0.2740(5) 0.4336(2)
H6 H -0.1229 0.3534 0.4569
C6 C -0.2482(2) 0.1725(5) 0.2710(2)
C7 C -0.30680(19) 0.2174(4) 0.2566(2)
C8 C -0.34111(19) 0.2596(4) 0.3007(2)
C9 C -0.3262(2) 0.2080(5) 0.3647(2)
H7 H -0.2931 0.1509 0.3808
C10 C -0.3606(2) 0.2417(5) 0.4039(2)
H8 H -0.3498 0.2048 0.4466
C11 C -0.4209(2) 0.3763(5) 0.3249(2)
H9 H -0.4530 0.4370 0.3112
C12 C -0.3898(2) 0.3472(5) 0.2814(2)
H10 H -0.4013 0.3861 0.2391
C13 C -0.28769(19) 0.1567(4) 0.1651(2)
C14 C -0.2953(2) 0.1362(4) 0.0945(2)
C15 C -0.3476(2) 0.1726(5) 0.0442(2)
H11 H -0.3807 0.2082 0.0545
C16 C -0.3499(2) 0.1551(6) -0.0212(2)
H12 H -0.3850 0.1823 -0.0543
C17 C -0.2557(2) 0.0671(5) 0.0081(3)
H13 H -0.2240 0.0292 -0.0039
C18 C -0.2481(2) 0.0834(5) 0.0753(2)
H14 H -0.2117 0.0592 0.1074
C19 C 0.1105(2) 0.6920(5) 0.7964(2)
C20 C 0.07506(19) 0.6685(5) 0.7249(2)
C21 C 0.0648(2) 0.5387(4) 0.6986(2)
H15 H 0.0815 0.4653 0.7254
C22 C 0.02950(19) 0.5191(4) 0.6324(2)
C23 C 0.0135(2) 0.3826(4) 0.6040(2)
C24 C 0.00758(18) 0.6298(4) 0.5920(2)
H16 H -0.0144 0.6169 0.5471
C25 C 0.01781(18) 0.7586(4) 0.6170(2)
C26 C 0.0506(2) 0.7773(4) 0.6843(2)
H17 H 0.0561 0.8635 0.7022
C27 C -0.00531(19) 0.8750(4) 0.5712(2)
Co1D Co 0.03384(3) 0.83824(6) 0.44883(3)
Co1F Co -0.46616(3) 0.33824(6) 0.44883(3)
Co1_2 Co -0.03384(3) 1.16176(6) 0.55117(3)
O1_2 O -0.00581(14) -0.0129(3) 0.59795(15)
O2D O 0.02346(13) 0.1457(3) 0.49098(14)
N2F N -0.09189(16) 0.1770(4) 0.61402(17)
loop_
_geom_bond_atom_site_label_1
_geom_bond_atom_site_label_2
_geom_bond_site_symmetry_1
_geom_bond_site_symmetry_2
Co1 O3 1_555 1_555
O1 C27 1_555 1_555
O2 C27 1_555 1_555
O3 C23 1_555 1_555
O4 Co1 1_555 1_555
O5 C19 1_555 1_555
O6 H1 1_555 1_555
N1 Co1 1_555 1_555
N2 C10 1_555 1_555
N3 C16 1_555 1_555
N4 C6 1_555 1_555
N5 H2 1_555 1_555
C1 N1 1_555 1_555
H3 C1 1_555 1_555
C2 C1 1_555 1_555
H4 C2 1_555 1_555
C3 C2 1_555 1_555
C4 C3 1_555 1_555
H5 C4 1_555 1_555
C5 N1 1_555 1_555
H6 C5 1_555 1_555
C6 C3 1_555 1_555
C7 N5 1_555 1_555
C8 C7 1_555 1_555
C9 C8 1_555 1_555
H7 C9 1_555 1_555
C10 C9 1_555 1_555
H8 C10 1_555 1_555
C11 N2 1_555 1_555
H9 C11 1_555 1_555
C12 C8 1_555 1_555
H10 C12 1_555 1_555
C13 N4 1_555 1_555
C14 C13 1_555 1_555
C15 C14 1_555 1_555
H11 C15 1_555 1_555
C16 C15 1_555 1_555
H12 C16 1_555 1_555
C17 N3 1_555 1_555
H13 C17 1_555 1_555
C18 C14 1_555 1_555
H14 C18 1_555 1_555
C19 O6 1_555 1_555
C20 C19 1_555 1_555
C21 C20 1_555 1_555
H15 C21 1_555 1_555
C22 C21 1_555 1_555
C23 O4 1_555 1_555
C24 C22 1_555 1_555
H16 C24 1_555 1_555
C25 C24 1_555 1_555
C26 C20 1_555 1_555
H17 C26 1_555 1_555
C27 C25 1_555 1_555
Co1D O2 1_555 1_555
Co1F N2 1_555 1_555
Co1_2 O1 1_555 1_555
O1_2 Co1 1_555 1_555
O2D Co1 1_555 1_555
N2F Co1 1_555 1_555
N5 C13 1_555 1_555
C4 C5 1_555 1_555
C6 C7 1_555 1_555
C11 C12 1_555 1_555
C17 C18 1_555 1_555
C22 C23 1_555 1_555
C25 C26 1_555 1_555

#END
