
#######################################################################
#
#                 Cambridge Crystallographic Data Centre
#                                CCDC 
#
#######################################################################
#
# If this CIF has been generated from an entry in the Cambridge 
# Structural Database, then it will include bibliographic, chemical, 
# crystal, experimental, refinement or atomic coordinate data resulting 
# from the CCDC's data processing and validation procedures.
#
#######################################################################

data_MUZQII
_symmetry_cell_setting           monoclinic
_symmetry_space_group_name_H-M   'P 21'
_symmetry_Int_Tables_number      4
_space_group_name_Hall           'P 2yb'
loop_
_symmetry_equiv_pos_site_id
_symmetry_equiv_pos_as_xyz
1 x,y,z
2 -x,1/2+y,-z
_cell_length_a                   6.6272(6)
_cell_length_b                   17.3245(17)
_cell_length_c                   9.9414(9)
_cell_angle_alpha                90
_cell_angle_beta                 97.338(1)
_cell_angle_gamma                90
_cell_volume                     1132.05
loop_
_atom_site_label
_atom_site_type_symbol
_atom_site_fract_x
_atom_site_fract_y
_atom_site_fract_z
C1 C 0.6325(11) 0.8979(4) -0.0902(6)
C2 C 0.7202(11) 0.8602(4) 0.0445(6)
H1 H 0.6841 0.8054 0.0389
C3 C 0.9507(10) 0.8653(4) 0.0756(6)
H2 H 1.0012 0.9125 0.0394
H3 H 1.0154 0.8215 0.0378
C4 C 0.9910(9) 0.8646(4) 0.2347(5)
H4 H 1.0840 0.8232 0.2656
H5 H 1.0514 0.9131 0.2678
C5 C 0.7904(10) 0.8529(4) 0.2875(7)
C6 C 0.6407(12) 0.8930(4) 0.1711(7)
C7 C 0.7751(11) 0.8880(4) 0.4249(6)
C8 C 0.6727(13) 0.9805(4) 0.1895(8)
H6 H 0.5589 1.0075 0.1418
H7 H 0.7950 0.9955 0.1541
H8 H 0.6842 0.9931 0.2842
C9 C 0.4228(11) 0.8675(4) 0.1778(6)
H9 H 0.3916 0.8730 0.2690
H10 H 0.4073 0.8145 0.1504
H11 H 0.3319 0.8991 0.1181
C10 C 0.7388(11) 0.7679(4) 0.3122(7)
H12 H 0.6648 0.7644 0.3889
H13 H 0.8623 0.7386 0.3296
H14 H 0.6570 0.7476 0.2334
C11 C -0.2177(15) 0.5174(4) 1.3008(8)
H15 H -0.1962 0.4823 1.2334
C12 C -0.3518(10) 0.5657(4) 1.4799(6)
H16 H -0.4295 0.5741 1.5501
C13 C -0.1838(12) 0.6105(4) 1.4408(7)
H17 H -0.1309 0.6535 1.4890
C14 C 0.0698(12) 0.6199(4) 1.2812(6)
H18 H 0.1211 0.6618 1.3407
H19 H 0.1763 0.5815 1.2815
C15 C 0.0126(12) 0.6495(4) 1.1417(7)
C16 C 0.1756(11) 0.6837(4) 1.0894(7)
H20 H 0.3012 0.6876 1.1426
C17 C 0.1510(12) 0.7120(5) 0.9575(8)
H21 H 0.2601 0.7348 0.9225
C18 C -0.0367(12) 0.7062(5) 0.8779(7)
C19 C -0.1998(12) 0.6720(4) 0.9302(7)
H22 H -0.3253 0.6681 0.8770
C20 C -0.1751(12) 0.6437(4) 1.0621(6)
H23 H -0.2842 0.6208 1.0971
C21 C -0.0886(13) 0.7405(5) 0.7436(7)
H24 H -0.1589 0.7891 0.7513
H25 H -0.1779 0.7062 0.6865
C22 C 0.2015(13) 0.8227(5) 0.6901(8)
H26 H 0.1452 0.8638 0.7325
C23 C 0.2435(10) 0.7080(4) 0.6019(7)
H27 H 0.2269 0.6567 0.5748
C24 C 0.3864(10) 0.7562(4) 0.5815(6)
H28 H 0.4927 0.7441 0.5325
N1 N -0.3644(10) 0.5111(3) 1.3911(5)
N2 N -0.1119(11) 0.5850(4) 1.3306(6)
N3 N 0.1169(12) 0.7547(4) 0.6777(7)
N4 N 0.3637(9) 0.8278(4) 0.6404(5)
O1 O 0.4912(7) 0.9401(2) -0.1082(4)
O2 O 0.7195(7) 0.8745(3) -0.1942(4)
O3 O 0.6271(8) 0.8686(3) 0.4813(4)
O4 O 0.9015(7) 0.9364(3) 0.4755(4)
Zn1 Zn 0.56099(9) 0.92087(4) 0.64310(5)
N1A N 0.3644(10) 1.0111(3) 0.6089(5)
O2_2 O 0.7195(7) 0.8745(3) 0.8058(4)
Zn1A Zn -0.56099(9) 0.42087(4) 1.35690(5)
Zn1_2 Zn 0.56099(9) 0.92087(4) -0.35690(5)
loop_
_geom_bond_atom_site_label_1
_geom_bond_atom_site_label_2
_geom_bond_site_symmetry_1
_geom_bond_site_symmetry_2
C1 C2 1_555 1_555
C2 H1 1_555 1_555
C3 C2 1_555 1_555
H2 C3 1_555 1_555
H3 C3 1_555 1_555
C4 C3 1_555 1_555
H4 C4 1_555 1_555
H5 C4 1_555 1_555
C5 C4 1_555 1_555
C6 C2 1_555 1_555
C7 C5 1_555 1_555
C8 C6 1_555 1_555
H6 C8 1_555 1_555
H7 C8 1_555 1_555
H8 C8 1_555 1_555
C9 C6 1_555 1_555
H9 C9 1_555 1_555
H10 C9 1_555 1_555
H11 C9 1_555 1_555
C10 C5 1_555 1_555
H12 C10 1_555 1_555
H13 C10 1_555 1_555
H14 C10 1_555 1_555
C11 H15 1_555 1_555
C12 H16 1_555 1_555
C13 C12 1_555 1_555
H17 C13 1_555 1_555
C14 H18 1_555 1_555
H19 C14 1_555 1_555
C15 C14 1_555 1_555
C16 C15 1_555 1_555
H20 C16 1_555 1_555
C17 C16 1_555 1_555
H21 C17 1_555 1_555
C18 C17 1_555 1_555
C19 C18 1_555 1_555
H22 C19 1_555 1_555
C20 C15 1_555 1_555
H23 C20 1_555 1_555
C21 C18 1_555 1_555
H24 C21 1_555 1_555
H25 C21 1_555 1_555
C22 H26 1_555 1_555
C23 H27 1_555 1_555
C24 C23 1_555 1_555
H28 C24 1_555 1_555
N1 C11 1_555 1_555
N2 C11 1_555 1_555
N3 C21 1_555 1_555
N4 C22 1_555 1_555
O1 C1 1_555 1_555
O2 C1 1_555 1_555
O3 C7 1_555 1_555
O4 C7 1_555 1_555
Zn1 N4 1_555 1_555
N1A Zn1 1_555 1_555
O2_2 Zn1 1_555 1_555
Zn1A N1 1_555 1_555
Zn1_2 O2 1_555 1_555
C5 C6 1_555 1_555
C12 N1 1_555 1_555
C13 N2 1_555 1_555
C14 N2 1_555 1_555
C19 C20 1_555 1_555
C22 N3 1_555 1_555
C23 N3 1_555 1_555
C24 N4 1_555 1_555
O3 Zn1 1_555 1_555

#END
