
#######################################################################
#
#                 Cambridge Crystallographic Data Centre
#                                CCDC 
#
#######################################################################
#
# If this CIF has been generated from an entry in the Cambridge 
# Structural Database, then it will include bibliographic, chemical, 
# crystal, experimental, refinement or atomic coordinate data resulting 
# from the CCDC's data processing and validation procedures.
#
#######################################################################

data_MUZQOO
_symmetry_cell_setting           orthorhombic
_symmetry_space_group_name_H-M   'C m c 21'
_symmetry_Int_Tables_number      36
_space_group_name_Hall           'C 2n -2'
loop_
_symmetry_equiv_pos_site_id
_symmetry_equiv_pos_as_xyz
1 x,y,z
2 -x,-y,1/2+z
3 -x,y,z
4 x,-y,1/2+z
5 1/2+x,1/2+y,z
6 1/2-x,1/2-y,1/2+z
7 1/2-x,1/2+y,z
8 1/2+x,1/2-y,1/2+z
_cell_length_a                   18.8555(15)
_cell_length_b                   31.189(2)
_cell_length_c                   12.0975(15)
_cell_angle_alpha                90
_cell_angle_beta                 90
_cell_angle_gamma                90
_cell_volume                     7114.35
loop_
_atom_site_label
_atom_site_type_symbol
_atom_site_fract_x
_atom_site_fract_y
_atom_site_fract_z
O11 O 0.8918(6) 0.0650(4) 0.0698(10)
H54 H 0.9155 0.0458 0.1033
H55 H 0.8588 0.0532 0.0327
O12 O 0.9231(10) 0.1153(6) 0.9008(19)
H56 H 0.8998 0.1143 0.9608
H57 H 0.9619 0.1286 0.9116
H58 H 0.9540 0.2017 0.6795
H59 H 0.9341 0.1588 0.6823
O13 O 0.9204(14) 0.1844(8) 0.694(2)
N1 N 1.2517(4) 0.1882(2) 0.3681(6)
C1 C 1.2057(4) 0.2158(2) 0.4229(7)
H1 H 1.1791 0.2356 0.3831
C2 C 1.1993(5) 0.2137(3) 0.5372(7)
H2 H 1.1685 0.2322 0.5739
C3 C 1.2390(5) 0.1841(3) 0.5968(9)
C4 C 1.2850(5) 0.1565(3) 0.5420(7)
H3 H 1.3116 0.1367 0.5818
C5 C 1.2914(5) 0.1586(2) 0.4276(7)
H4 H 1.3221 0.1401 0.3909
N2 N 1.2508(4) 0.0438(2) 0.8566(6)
C6 C 1.2653(5) 0.0778(2) 0.9274(8)
H5 H 1.2792 0.0725 0.9999
C7 C 1.2591(4) 0.1198(3) 0.8899(7)
H6 H 1.2688 0.1425 0.9373
C8 C 1.2384(5) 0.1278(3) 0.7816(8)
C9 C 1.2239(4) 0.0938(2) 0.7107(6)
H7 H 1.2101 0.0991 0.6383
C10 C 1.2301(4) 0.0518(3) 0.7483(7)
H8 H 1.2204 0.0291 0.7009
C11 C 1.3659(5) 0.1541(3) 0.1104(7)
C12 C 1.4368(5) 0.1449(3) 0.0532(7)
C13 C 1.4373(9) 0.1608(6) -0.0716(15)
H9 H 1.4702 0.1841 -0.0793
H10 H 1.4513 0.1377 -0.1190
H11 H 1.3906 0.1704 -0.0917
C14 C 1.4575(4) 0.0958(3) 0.0547(8)
H12 H 1.4392 0.0818 0.1203
H13 H 1.4392 0.0812 -0.0102
C15 C 1.5000 0.1718(4) 0.1047(12)
C16 C 1.5000 0.2225(4) 0.1029(11)
C17 C 1.5000 0.1636(4) 0.2351(11)
H17 H 1.4584 0.1763 0.2672
H18 H 1.5000 0.1333 0.2493
C18 C 1.3707(4) -0.0408(3) 1.0558(7)
C19 C 1.4345(4) -0.0537(2) 1.1178(7)
C20 C 1.4605(5) -0.0214(2) 1.2057(8)
H19 H 1.4429 -0.0296 1.2781
H20 H 1.4429 0.0070 1.1887
C21 C 1.4245(9) -0.0912(5) 1.1972(16)
H21 H 1.4665 -0.0945 1.2414
H22 H 1.3847 -0.0856 1.2445
H23 H 1.4162 -0.1169 1.1558
C22 C 1.5000 -0.0601(3) 1.0394(10)
C23 C 1.5000 -0.0235(4) 0.9534(10)
H24 H 1.5000 -0.0355 0.8803
H25 H 1.4584 -0.0062 0.9632
C24 C 1.5000 -0.1018(4) 0.9732(10)
C25 C 1.1321(5) 0.2173(3) 0.0748(8)
C26 C 1.0640(4) 0.2374(2) 0.0329(7)
C27 C 1.0612(10) 0.2883(6) 0.0177(14)
H29 H 1.0316 0.2953 -0.0443
H30 H 1.0422 0.3012 0.0833
H31 H 1.1082 0.2990 0.0049
C28 C 1.0381(4) 0.2258(3) -0.0795(9)
H32 H 1.0556 0.1976 -0.0997
H33 H 1.0556 0.2463 -0.1332
C29 C 1.0000 0.2327(4) 0.1161(10)
C30 C 1.0000 0.1850(4) 0.1494(11)
C31 C 1.0000 0.2641(4) 0.2170(10)
H37 H 1.0000 0.2479 0.2845
H38 H 1.0416 0.2818 0.2142
C32 C 1.1342(4) -0.0505(3) 0.9806(7)
C33 C 1.0655(5) -0.0717(3) 1.0173(7)
C34 C 1.0711(8) -0.1202(5) 1.0156(15)
H39 H 1.1153 -0.1288 1.0482
H40 H 1.0325 -0.1323 1.0570
H41 H 1.0689 -0.1302 0.9407
C35 C 1.0411(5) -0.0566(3) 1.1343(8)
H42 H 1.0590 -0.0281 1.1495
H43 H 1.0590 -0.0760 1.1905
C36 C 1.0000 -0.0598(4) 0.9364(10)
C37 C 1.0000 -0.0878(4) 0.8362(11)
C38 C 1.0000 -0.0107(3) 0.9222(11)
Cd1 Cd 1.23525(3) 0.17640(2) 0.18229(5)
Cd2 Cd 1.26347(3) -0.023770(18) 0.91297(5)
O1 O 1.3398(3) 0.19136(17) 0.0967(5)
O2 O 1.3348(3) 0.12749(18) 0.1602(5)
O3 O 1.1560(3) 0.18254(19) 0.0271(6)
O4 O 1.1559(3) 0.23079(18) 0.1617(5)
O5 O 1.3440(3) -0.00355(19) 1.0660(5)
O6 O 1.3434(3) -0.06760(18) 0.9895(5)
O7 O 1.1691(3) -0.06816(16) 0.9009(5)
O8 O 1.1588(3) -0.01890(19) 1.0235(6)
O9 O 1.1650(3) 0.11828(19) 0.2173(5)
H50 H 1.1607 0.1143 0.2957
H51 H 1.1862 0.0933 0.1850
O10 O 1.3012(3) -0.04392(17) 0.7379(5)
H52 H 1.3027 -0.0191 0.6910
H53 H 1.3477 -0.0563 0.7424
S1 S 1.22927(12) 0.18290(7) 0.7444(2)
N1B N 1.7483(4) 0.1882(2) 0.3681(6)
C1B C 1.7943(4) 0.2158(2) 0.4229(7)
H1B H 1.8209 0.2356 0.3831
C2B C 1.8007(5) 0.2137(3) 0.5372(7)
H2B H 1.8315 0.2322 0.5739
C3B C 1.7610(5) 0.1841(3) 0.5968(9)
C4B C 1.7150(5) 0.1565(3) 0.5420(7)
H3B H 1.6884 0.1367 0.5818
C5B C 1.7086(5) 0.1586(2) 0.4276(7)
H4B H 1.6779 0.1401 0.3909
N2B N 1.7492(4) 0.0438(2) 0.8566(6)
C6B C 1.7347(5) 0.0778(2) 0.9274(8)
H5B H 1.7208 0.0725 0.9999
C7B C 1.7409(4) 0.1198(3) 0.8899(7)
H6B H 1.7312 0.1425 0.9373
C8B C 1.7616(5) 0.1278(3) 0.7816(8)
C9B C 1.7761(4) 0.0938(2) 0.7107(6)
H7B H 1.7899 0.0991 0.6383
C10B C 1.7699(4) 0.0518(3) 0.7483(7)
H8B H 1.7796 0.0291 0.7009
C11B C 1.6341(5) 0.1541(3) 0.1104(7)
C12B C 1.5632(5) 0.1449(3) 0.0532(7)
C13B C 1.5627(9) 0.1608(6) -0.0716(15)
H9B H 1.5298 0.1841 -0.0793
H10B H 1.5487 0.1377 -0.1190
H11B H 1.6094 0.1704 -0.0917
C14B C 1.5425(4) 0.0958(3) 0.0547(8)
H12B H 1.5608 0.0818 0.1203
H13B H 1.5608 0.0812 -0.0102
H17B H 1.5416 0.1763 0.2672
C18B C 1.6293(4) -0.0408(3) 1.0558(7)
C19B C 1.5655(4) -0.0537(2) 1.1178(7)
C20B C 1.5395(5) -0.0214(2) 1.2057(8)
H19B H 1.5571 -0.0296 1.2781
H20B H 1.5571 0.0070 1.1887
C21B C 1.5755(9) -0.0912(5) 1.1972(16)
H21B H 1.5335 -0.0945 1.2414
H22B H 1.6153 -0.0856 1.2445
H23B H 1.5838 -0.1169 1.1558
H25B H 1.5416 -0.0062 0.9632
C25B C 0.8679(5) 0.2173(3) 0.0748(8)
C26B C 0.9360(4) 0.2374(2) 0.0329(7)
C27B C 0.9388(10) 0.2883(6) 0.0177(14)
H29B H 0.9684 0.2953 -0.0443
H30B H 0.9578 0.3012 0.0833
H31B H 0.8918 0.2990 0.0049
C28B C 0.9619(4) 0.2258(3) -0.0795(9)
H32B H 0.9444 0.1976 -0.0997
H33B H 0.9444 0.2463 -0.1332
H38B H 0.9584 0.2818 0.2142
C32B C 0.8658(4) -0.0505(3) 0.9806(7)
C33B C 0.9345(5) -0.0717(3) 1.0173(7)
C34B C 0.9289(8) -0.1202(5) 1.0156(15)
H39B H 0.8847 -0.1288 1.0482
H40B H 0.9675 -0.1323 1.0570
H41B H 0.9311 -0.1302 0.9407
C35B C 0.9589(5) -0.0566(3) 1.1343(8)
H42B H 0.9410 -0.0281 1.1495
H43B H 0.9410 -0.0760 1.1905
Cd1B Cd 1.76475(3) 0.17640(2) 0.18229(5)
Cd1B_2 Cd 0.76475(3) 0.17640(2) 0.18229(5)
Cd2B Cd 1.73653(3) -0.023770(18) 0.91297(5)
Cd2B_2 Cd 0.73653(3) -0.023770(18) 0.91297(5)
O1B O 1.6602(3) 0.19136(17) 0.0967(5)
O2B O 1.6652(3) 0.12749(18) 0.1602(5)
O3B O 0.8440(3) 0.18254(19) 0.0271(6)
O3B_2 O 1.8440(3) 0.18254(19) 0.0271(6)
O4B O 0.8441(3) 0.23079(18) 0.1617(5)
O4B_2 O 1.8441(3) 0.23079(18) 0.1617(5)
O5B O 1.6560(3) -0.00355(19) 1.0660(5)
O6B O 1.6566(3) -0.06760(18) 0.9895(5)
O7B O 0.8309(3) -0.06816(16) 0.9009(5)
O7B_2 O 1.8309(3) -0.06816(16) 0.9009(5)
O8B O 0.8412(3) -0.01890(19) 1.0235(6)
O8B_2 O 1.8412(3) -0.01890(19) 1.0235(6)
O9B O 1.8350(3) 0.11828(19) 0.2173(5)
H50B H 1.8393 0.1143 0.2957
H51B H 1.8138 0.0933 0.1850
O10B O 1.6988(3) -0.04392(17) 0.7379(5)
H52B H 1.6973 -0.0191 0.6910
H53B H 1.6523 -0.0563 0.7424
S1B S 1.77073(12) 0.18290(7) 0.7444(2)
H14? H 1.5473 0.2328 0.1156
H15? H 1.4691 0.2331 0.1597
H16? H 1.4837 0.2324 0.0321
H26? H 1.5351 -0.1002 0.9159
H27? H 1.4541 -0.1061 0.9407
H28? H 1.5108 -0.1254 1.0214
H34? H 0.9533 0.1734 0.1396
H35? H 1.0137 0.1824 0.2255
H36? H 1.0330 0.1696 0.1038
H44? H 0.9671 -0.1109 0.8466
H45? H 1.0467 -0.0992 0.8247
H46? H 0.9861 -0.0713 0.7729
H47? H 1.0448 0.0007 0.9460
H48? H 0.9627 0.0015 0.9660
H49? H 0.9925 -0.0037 0.8459
loop_
_geom_bond_atom_site_label_1
_geom_bond_atom_site_label_2
_geom_bond_site_symmetry_1
_geom_bond_site_symmetry_2
N1 C1 1_555 1_555
C1 H1 1_555 1_555
C2 C1 1_555 1_555
H2 C2 1_555 1_555
C3 C2 1_555 1_555
C4 C3 1_555 1_555
H3 C4 1_555 1_555
C5 N1 1_555 1_555
H4 C5 1_555 1_555
N2 C6 1_555 1_555
C6 H5 1_555 1_555
C7 C6 1_555 1_555
H6 C7 1_555 1_555
C8 C7 1_555 1_555
C9 C8 1_555 1_555
H7 C9 1_555 1_555
C10 N2 1_555 1_555
H8 C10 1_555 1_555
C11 C12 1_555 1_555
C12 C13 1_555 1_555
C13 H9 1_555 1_555
H10 C13 1_555 1_555
H11 C13 1_555 1_555
C14 C12 1_555 1_555
H12 C14 1_555 1_555
H13 C14 1_555 1_555
C15 C12 1_555 1_555
C16 C15 1_555 1_555
C17 C15 1_555 1_555
H17 C17 1_555 1_555
H18 C17 1_555 1_555
C18 C19 1_555 1_555
C19 C20 1_555 1_555
C20 H19 1_555 1_555
H20 C20 1_555 1_555
C21 C19 1_555 1_555
H21 C21 1_555 1_555
H22 C21 1_555 1_555
H23 C21 1_555 1_555
C22 C19 1_555 1_555
C23 C22 1_555 1_555
H24 C23 1_555 1_555
H25 C23 1_555 1_555
C24 C22 1_555 1_555
C25 C26 1_555 1_555
C26 C27 1_555 1_555
C27 H29 1_555 1_555
H30 C27 1_555 1_555
H31 C27 1_555 1_555
C28 C26 1_555 1_555
H32 C28 1_555 1_555
H33 C28 1_555 1_555
C29 C26 1_555 1_555
C30 C29 1_555 1_555
C31 C29 1_555 1_555
H37 C31 1_555 1_555
H38 C31 1_555 1_555
C32 C33 1_555 1_555
C33 C34 1_555 1_555
C34 H39 1_555 1_555
H40 C34 1_555 1_555
H41 C34 1_555 1_555
C35 C33 1_555 1_555
H42 C35 1_555 1_555
H43 C35 1_555 1_555
C36 C33 1_555 1_555
C37 C36 1_555 1_555
C38 C36 1_555 1_555
Cd1 N1 1_555 1_555
Cd2 N2 1_555 1_555
O1 C11 1_555 1_555
O2 C11 1_555 1_555
O3 C25 1_555 1_555
O4 C25 1_555 1_555
O5 C18 1_555 1_555
O6 C18 1_555 1_555
O7 C32 1_555 1_555
O8 C32 1_555 1_555
O9 Cd1 1_555 1_555
H50 O9 1_555 1_555
H51 O9 1_555 1_555
O10 Cd2 1_555 1_555
H52 O10 1_555 1_555
H53 O10 1_555 1_555
O11 H54 1_555 1_555
H55 O11 1_555 1_555
O12 H56 1_555 1_555
H57 O12 1_555 1_555
S1 C3 1_555 1_555
H58 O13 1_555 1_555
H59 O13 1_555 1_555
N1B C1B 1_555 1_555
C1B H1B 1_555 1_555
C2B C1B 1_555 1_555
H2B C2B 1_555 1_555
C3B C2B 1_555 1_555
C4B C3B 1_555 1_555
H3B C4B 1_555 1_555
C5B N1B 1_555 1_555
H4B C5B 1_555 1_555
N2B C6B 1_555 1_555
C6B H5B 1_555 1_555
C7B C6B 1_555 1_555
H6B C7B 1_555 1_555
C8B C7B 1_555 1_555
C9B C8B 1_555 1_555
H7B C9B 1_555 1_555
C10B N2B 1_555 1_555
H8B C10B 1_555 1_555
C11B C12B 1_555 1_555
C12B C15 1_555 1_555
C13B C12B 1_555 1_555
H9B C13B 1_555 1_555
H10B C13B 1_555 1_555
H11B C13B 1_555 1_555
C14B C14 1_555 1_555
H12B C14B 1_555 1_555
H13B C14B 1_555 1_555
H17B C17 1_555 1_555
C18B C19B 1_555 1_555
C19B C22 1_555 1_555
C20B C20 1_555 1_555
H19B C20B 1_555 1_555
H20B C20B 1_555 1_555
C21B C19B 1_555 1_555
H21B C21B 1_555 1_555
H22B C21B 1_555 1_555
H23B C21B 1_555 1_555
H25B C23 1_555 1_555
C25B C26B 1_555 1_555
C26B C29 1_555 1_555
C27B C26B 1_555 1_555
H29B C27B 1_555 1_555
H30B C27B 1_555 1_555
H31B C27B 1_555 1_555
C28B C28 1_555 1_555
H32B C28B 1_555 1_555
H33B C28B 1_555 1_555
H38B C31 1_555 1_555
C32B C33B 1_555 1_555
C33B C36 1_555 1_555
C34B C33B 1_555 1_555
H39B C34B 1_555 1_555
H40B C34B 1_555 1_555
H41B C34B 1_555 1_555
C35B C35 1_555 1_555
H42B C35B 1_555 1_555
H43B C35B 1_555 1_555
Cd1B N1B 1_555 1_555
Cd1B_2 O3B 1_555 1_555
Cd2B N2B 1_555 1_555
Cd2B_2 O7B 1_555 1_555
O1B C11B 1_555 1_555
O2B C11B 1_555 1_555
O3B C25B 1_555 1_555
O3B_2 Cd1B 1_555 1_555
O4B C25B 1_555 1_555
O4B_2 Cd1B 1_555 1_555
O5B C18B 1_555 1_555
O6B C18B 1_555 1_555
O7B C32B 1_555 1_555
O7B_2 Cd2B 1_555 1_555
O8B C32B 1_555 1_555
O8B_2 Cd2B 1_555 1_555
O9B Cd1B 1_555 1_555
H50B O9B 1_555 1_555
H51B O9B 1_555 1_555
O10B Cd2B 1_555 1_555
H52B O10B 1_555 1_555
H53B O10B 1_555 1_555
S1B C3B 1_555 1_555
C4 C5 1_555 1_555
C8 S1 1_555 1_555
C9 C10 1_555 1_555
Cd1 O1 1_555 1_555
Cd1 O2 1_555 1_555
Cd1 O3 1_555 1_555
Cd1 O4 1_555 1_555
Cd2 O5 1_555 1_555
Cd2 O6 1_555 1_555
Cd2 O7 1_555 1_555
Cd2 O8 1_555 1_555
C4B C5B 1_555 1_555
C8B S1B 1_555 1_555
C9B C10B 1_555 1_555
C12B C14B 1_555 1_555
C19B C20B 1_555 1_555
C26B C28B 1_555 1_555
C33B C35B 1_555 1_555
Cd1B O1B 1_555 1_555
Cd1B O2B 1_555 1_555
Cd1B_2 O4B 1_555 1_555
Cd2B O5B 1_555 1_555
Cd2B O6B 1_555 1_555
Cd2B_2 O8B 1_555 1_555

#END
