
#######################################################################
#
#                 Cambridge Crystallographic Data Centre
#                                CCDC 
#
#######################################################################
#
# If this CIF has been generated from an entry in the Cambridge 
# Structural Database, then it will include bibliographic, chemical, 
# crystal, experimental, refinement or atomic coordinate data resulting 
# from the CCDC's data processing and validation procedures.
#
#######################################################################

data_MUZREF
_symmetry_cell_setting           orthorhombic
_symmetry_space_group_name_H-M   'P c a 21'
_symmetry_Int_Tables_number      29
_space_group_name_Hall           'P 2c -2ac'
loop_
_symmetry_equiv_pos_site_id
_symmetry_equiv_pos_as_xyz
1 x,y,z
2 -x,-y,1/2+z
3 1/2+x,-y,z
4 1/2-x,y,1/2+z
_cell_length_a                   16.583(4)
_cell_length_b                   13.153(3)
_cell_length_c                   34.538(8)
_cell_angle_alpha                90
_cell_angle_beta                 90
_cell_angle_gamma                90
_cell_volume                     7533.3
loop_
_atom_site_label
_atom_site_type_symbol
_atom_site_fract_x
_atom_site_fract_y
_atom_site_fract_z
Cu1 Cu 0.94692(15) 0.76451(17) 0.79294(7)
Cu2 Cu 1.14221(15) 0.72960(18) 0.77158(7)
Cu3 Cu 1.03808(13) 0.89616(15) 0.72332(7)
Cu4 Cu 0.43064(15) 0.76321(19) 0.99643(7)
Cu5 Cu 0.35504(13) 0.61903(14) 1.06695(7)
Cu6 Cu 0.23122(13) 0.75746(17) 1.01452(7)
N1 N 0.8915(9) 0.8689(11) 0.7663(5)
N2 N 0.9291(9) 0.9216(11) 0.7374(5)
N3 N 1.1363(10) 0.8494(13) 0.7033(5)
N4 N 1.1795(10) 0.7763(11) 0.7209(5)
N5 N 1.0964(11) 0.6746(14) 0.8178(5)
N6 N 1.0154(12) 0.6721(13) 0.8246(5)
N7 N 1.0485(10) 1.0289(11) 0.6950(6)
N8 N 0.4996(11) 0.6727(12) 1.0263(5)
N9 N 0.4694(11) 0.6102(12) 1.0529(5)
N10 N 0.2432(10) 0.6372(10) 1.0841(4)
N11 N 0.1956(9) 0.6978(12) 1.0637(5)
N12 N 0.2763(12) 0.8237(10) 0.9687(4)
N13 N 0.3565(12) 0.8330(12) 0.9658(5)
N14 N 1.1321(10) 1.4889(12) 0.5972(4)
C1 C 0.8739(14) 0.9930(15) 0.7271(9)
H1 H 0.8849 1.0426 0.7086
C2 C 0.8071(16) 0.988(2) 0.7441(8)
H2 H 0.7618 1.0284 0.7405
C3 C 0.8169(14) 0.908(2) 0.7693(9)
H3 H 0.7774 0.8842 0.7862
C4 C 1.2473(15) 0.7580(16) 0.7020(8)
H4 H 1.2874 0.7130 0.7098
C5 C 1.2490(14) 0.8103(18) 0.6722(7)
H5 H 1.2888 0.8087 0.6532
C6 C 1.1811(14) 0.8714(19) 0.6721(8)
H6 H 1.1685 0.9198 0.6534
C7 C 1.0277(12) 1.0419(15) 0.6582(7)
H7 H 1.0013 0.9903 0.6448
C8 C 1.0915(15) 1.1033(17) 0.7126(8)
H8 H 1.1131 1.0923 0.7371
C9 C 1.1037(13) 1.1989(16) 0.6935(7)
H9 H 1.1260 1.2528 0.7073
C10 C 1.0840(12) 1.2124(15) 0.6570(5)
C11 C 1.0463(14) 1.1367(17) 0.6389(6)
H10 H 1.0314 1.1450 0.6131
C12 C 0.5295(14) 0.5540(17) 1.0683(7)
H11 H 0.5235 0.5102 1.0893
C13 C 0.5975(15) 0.569(3) 1.0497(8)
H12 H 0.6456 0.5340 1.0527
C14 C 0.5815(12) 0.6554(19) 1.0228(8)
H13 H 0.6181 0.6897 1.0072
C15 C 0.1239(11) 0.6958(16) 1.0840(6)
H14 H 0.0773 0.7290 1.0759
C16 C 0.1285(13) 0.6415(16) 1.1162(5)
H15 H 0.0891 0.6309 1.1349
C17 C 0.2065(14) 0.6046(13) 1.1151(5)
H16 H 0.2295 0.5626 1.1337
C18 C 0.3669(19) 0.8845(19) 0.9309(7)
H17 H 0.4169 0.9005 0.9203
C19 C 0.292(2) 0.909(2) 0.9135(8)
H18 H 0.2802 0.9445 0.8908
C20 C 0.2422(13) 0.8680(16) 0.9394(7)
H19 H 0.1864 0.8705 0.9366
C21 C 1.1427(13) 1.3998(15) 0.5803(5)
H20 H 1.1615 1.3969 0.5550
C22 C 1.1258(17) 1.3093(15) 0.6003(8)
H21 H 1.1331 1.2479 0.5875
C23 C 1.0995(13) 1.3076(15) 0.6372(5)
C24 C 1.0961(14) 1.4022(14) 0.6561(8)
H22 H 1.0886 1.4079 0.6827
C25 C 1.1049(14) 1.4878(15) 0.6321(7)
H23 H 1.0894 1.5500 0.6425
O1 O 1.0325(8) 0.7664(8) 0.7530(3)
O2 O 0.3438(6) 0.7452(7) 1.0358(3)
N15 N 1.2539(12) 0.7149(18) 0.7934(7)
C30 C 1.2936(4) 0.6190(5) 0.78903(17)
H24 H 1.2708 0.5684 0.7737
C31 C 1.3665(4) 0.6023(5) 0.80783(17)
H25 H 1.3909 0.5387 0.8066
C32 C 1.4029(4) 0.6805(5) 0.82849(17)
H26 H 1.4517 0.6693 0.8411
C33 C 1.3664(4) 0.7755(5) 0.83036(17)
H27 H 1.3907 0.8278 0.8442
C34 C 1.2934(4) 0.7922(5) 0.81155(17)
H28 H 1.2690 0.8558 0.8128
N16 N 0.8597(4) 0.7563(5) 0.83138(17)
C35 C 0.7884(4) 0.7027(5) 0.82244(17)
H29 H 0.7862 0.6658 0.7995
C36 C 0.7200(4) 0.7028(5) 0.84699(17)
H30 H 0.6741 0.6653 0.8410
C37 C 0.7243(4) 0.7604(5) 0.88000(17)
C38 C 0.7959(4) 0.8067(5) 0.89083(17)
H31 H 0.8008 0.8352 0.9154
C39 C 0.8634(4) 0.8109(5) 0.86404(17)
H32 H 0.9083 0.8508 0.8695
N17 N 0.5185(4) 0.7719(5) 0.95546(17)
C40 C 0.5251(4) 0.6964(5) 0.92682(17)
H33 H 0.4837 0.6504 0.9220
C41 C 0.5924(4) 0.6944(5) 0.90734(17)
H34 H 0.6009 0.6362 0.8926
C42 C 0.6485(4) 0.7615(5) 0.90562(17)
C43 C 0.6396(4) 0.8407(5) 0.93090(17)
H35 H 0.6758 0.8948 0.9309
C44 C 0.5721(4) 0.8379(5) 0.95772(17)
H36 H 0.5688 0.8868 0.9771
C45 C 0.0755(4) 0.6721(5) 0.98584(17)
H37 H 0.1049 0.6119 0.9857
C46 C -0.0057(4) 0.6714(5) 0.97589(17)
H38 H -0.0307 0.6106 0.9691
C47 C -0.0496(4) 0.7614(5) 0.97608(17)
H39 H -0.1040 0.7608 0.9694
C48 C -0.0123(4) 0.8522(5) 0.98620(17)
H40 H -0.0417 0.9124 0.9863
C49 C 0.0689(4) 0.8530(5) 0.99614(17)
H41 H 0.0939 0.9137 1.0029
N18 N 0.1128(4) 0.7630(5) 0.99596(17)
C50 C 1.120(2) 0.610(3) 0.8449(8)
H44 H 1.1737 0.5881 0.8462
C51 C 1.069(2) 0.580(3) 0.8685(7)
H45 H 1.0770 0.5390 0.8902
C52 C 0.999(2) 0.619(2) 0.8559(8)
H46 H 0.9483 0.6106 0.8671
Cu5C Cu 1.14496(13) 1.61903(14) 0.56695(7)
N14C N 0.3679(10) 0.4889(12) 1.0972(4)
S1 S 0.9050(5) 0.5774(5) 0.7146(2)
O3 O 0.9824(13) 0.6175(18) 0.7013(6)
O4 O 0.8972(16) 0.4732(12) 0.7060(6)
O5 O 0.8859(10) 0.6135(11) 0.7528(4)
C26 C 0.838(2) 0.642(3) 0.6961(11)
F1 F 0.762(3) 0.601(2) 0.7021(9)
F2 F 0.844(3) 0.743(2) 0.6836(9)
F3 F 0.8366(19) 0.634(2) 0.6557(10)
S2 S 1.0923(5) 0.9808(6) 0.8219(2)
O6 O 1.169(2) 0.997(2) 0.8482(6)
O7 O 1.1094(19) 0.9461(18) 0.7886(8)
C27 C 1.039(3) 1.054(4) 0.8313(9)
F4 F 1.083(3) 1.135(3) 0.8189(12)
F5 F 0.989(4) 1.090(3) 0.8038(10)
F6 F 1.025(3) 1.077(5) 0.8689(12)
O12 O 1.020(3) 0.909(3) 0.8439(16)
S3 S 0.2680(5) 1.0188(6) 1.0589(3)
C28 C 0.250(3) 1.112(2) 1.0947(8)
F10 F 0.192(3) 1.045(2) 1.1064(10)
F11 F 0.175(3) 1.158(3) 1.0848(9)
F12 F 0.260(3) 1.073(3) 1.1323(9)
O13 O 0.3463(12) 1.0644(18) 1.0556(7)
O14 O 0.329(2) 0.939(2) 1.0683(8)
O15 O 0.2252(18) 0.9380(18) 1.0431(12)
S4 S 0.3038(8) 0.5172(7) 0.9717(2)
O8 O 0.2598(18) 0.5694(16) 0.9919(8)
O9 O 0.3010(17) 0.4009(17) 0.9805(8)
O10 O 0.3676(19) 0.561(3) 0.9454(11)
C29 C 0.279(3) 0.520(11) 0.9206(7)
F7 F 0.304(3) 0.485(3) 0.8970(11)
F8 F 0.287(3) 0.625(3) 0.9181(10)
F9 F 0.203(2) 0.4952(19) 0.9307(16)
O11 O 0.4749(14) 0.9146(18) 1.0399(7)
H42 H 0.4271 0.9248 1.0282
H43 H 0.5209 0.9186 1.0261
loop_
_geom_bond_atom_site_label_1
_geom_bond_atom_site_label_2
_geom_bond_site_symmetry_1
_geom_bond_site_symmetry_2
Cu1 N1 1_555 1_555
Cu2 N4 1_555 1_555
Cu3 N2 1_555 1_555
Cu4 N8 1_555 1_555
Cu5 N9 1_555 1_555
Cu6 N11 1_555 1_555
N1 N2 1_555 1_555
N2 C1 1_555 1_555
N3 Cu3 1_555 1_555
N4 N3 1_555 1_555
N5 Cu2 1_555 1_555
N6 Cu1 1_555 1_555
N7 Cu3 1_555 1_555
N8 N9 1_555 1_555
N9 C12 1_555 1_555
N10 Cu5 1_555 1_555
N11 N10 1_555 1_555
N12 Cu6 1_555 1_555
N13 Cu4 1_555 1_555
N14 C21 1_555 1_555
C1 H1 1_555 1_555
C2 C1 1_555 1_555
H2 C2 1_555 1_555
C3 N1 1_555 1_555
H3 C3 1_555 1_555
C4 N4 1_555 1_555
H4 C4 1_555 1_555
C5 C4 1_555 1_555
H5 C5 1_555 1_555
C6 N3 1_555 1_555
H6 C6 1_555 1_555
C7 N7 1_555 1_555
H7 C7 1_555 1_555
C8 N7 1_555 1_555
H8 C8 1_555 1_555
C9 C8 1_555 1_555
H9 C9 1_555 1_555
C10 C9 1_555 1_555
C11 C7 1_555 1_555
H10 C11 1_555 1_555
C12 H11 1_555 1_555
C13 C12 1_555 1_555
H12 C13 1_555 1_555
C14 N8 1_555 1_555
H13 C14 1_555 1_555
C15 N11 1_555 1_555
H14 C15 1_555 1_555
C16 C15 1_555 1_555
H15 C16 1_555 1_555
C17 N10 1_555 1_555
H16 C17 1_555 1_555
C18 N13 1_555 1_555
H17 C18 1_555 1_555
C19 C18 1_555 1_555
H18 C19 1_555 1_555
C20 N12 1_555 1_555
H19 C20 1_555 1_555
C21 H20 1_555 1_555
C22 C21 1_555 1_555
H21 C22 1_555 1_555
C23 C10 1_555 1_555
C24 C23 1_555 1_555
H22 C24 1_555 1_555
C25 N14 1_555 1_555
H23 C25 1_555 1_555
O1 Cu1 1_555 1_555
O2 Cu4 1_555 1_555
S1 O3 1_555 1_555
O4 S1 1_555 1_555
O5 S1 1_555 1_555
C26 S1 1_555 1_555
F1 C26 1_555 1_555
F2 C26 1_555 1_555
F3 C26 1_555 1_555
S2 O6 1_555 1_555
O7 S2 1_555 1_555
C27 S2 1_555 1_555
F4 C27 1_555 1_555
F5 C27 1_555 1_555
F6 C27 1_555 1_555
S3 C28 1_555 1_555
C28 F10 1_555 1_555
S4 O8 1_555 1_555
O9 S4 1_555 1_555
O10 S4 1_555 1_555
C29 S4 1_555 1_555
F7 C29 1_555 1_555
F8 C29 1_555 1_555
F9 C29 1_555 1_555
N15 Cu2 1_555 1_555
C30 N15 1_555 1_555
H24 C30 1_555 1_555
C31 C30 1_555 1_555
H25 C31 1_555 1_555
C32 C31 1_555 1_555
H26 C32 1_555 1_555
C33 C32 1_555 1_555
H27 C33 1_555 1_555
C34 N15 1_555 1_555
H28 C34 1_555 1_555
N16 Cu1 1_555 1_555
C35 N16 1_555 1_555
H29 C35 1_555 1_555
C36 C35 1_555 1_555
H30 C36 1_555 1_555
C37 C36 1_555 1_555
C38 C37 1_555 1_555
H31 C38 1_555 1_555
C39 N16 1_555 1_555
H32 C39 1_555 1_555
N17 Cu4 1_555 1_555
C40 N17 1_555 1_555
H33 C40 1_555 1_555
C41 C40 1_555 1_555
H34 C41 1_555 1_555
C42 C37 1_555 1_555
C43 C42 1_555 1_555
H35 C43 1_555 1_555
C44 N17 1_555 1_555
H36 C44 1_555 1_555
C45 H37 1_555 1_555
C46 C45 1_555 1_555
H38 C46 1_555 1_555
C47 C46 1_555 1_555
H39 C47 1_555 1_555
C48 C47 1_555 1_555
H40 C48 1_555 1_555
C49 C48 1_555 1_555
H41 C49 1_555 1_555
N18 Cu6 1_555 1_555
O11 H42 1_555 1_555
H43 O11 1_555 1_555
C50 N5 1_555 1_555
H44 C50 1_555 1_555
C51 C50 1_555 1_555
H45 C51 1_555 1_555
C52 N6 1_555 1_555
H46 C52 1_555 1_555
O12 S2 1_555 1_555
F11 C28 1_555 1_555
F12 C28 1_555 1_555
O13 S3 1_555 1_555
O14 S3 1_555 1_555
O15 S3 1_555 1_555
Cu5C N14 1_555 1_555
N14C Cu5 1_555 1_555
Cu2 O1 1_555 1_555
Cu3 O1 1_555 1_555
Cu5 O2 1_555 1_555
Cu6 O2 1_555 1_555
N5 N6 1_555 1_555
N12 N13 1_555 1_555
C2 C3 1_555 1_555
C5 C6 1_555 1_555
C10 C11 1_555 1_555
C13 C14 1_555 1_555
C16 C17 1_555 1_555
C19 C20 1_555 1_555
C22 C23 1_555 1_555
C24 C25 1_555 1_555
C33 C34 1_555 1_555
C38 C39 1_555 1_555
C41 C42 1_555 1_555
C43 C44 1_555 1_555
C45 N18 1_555 1_555
C49 N18 1_555 1_555
C51 C52 1_555 1_555

#END
