
#######################################################################
#
#                 Cambridge Crystallographic Data Centre
#                                CCDC 
#
#######################################################################
#
# If this CIF has been generated from an entry in the Cambridge 
# Structural Database, then it will include bibliographic, chemical, 
# crystal, experimental, refinement or atomic coordinate data resulting 
# from the CCDC's data processing and validation procedures.
#
#######################################################################

data_MUZRIJ
_symmetry_cell_setting           tetragonal
_symmetry_space_group_name_H-M   'P 42 b c'
_symmetry_Int_Tables_number      106
_space_group_name_Hall           'P 4c -2ab'
loop_
_symmetry_equiv_pos_site_id
_symmetry_equiv_pos_as_xyz
1 x,y,z
2 -y,x,1/2+z
3 -x,-y,z
4 y,-x,1/2+z
5 1/2-x,1/2+y,z
6 1/2-y,1/2-x,1/2+z
7 1/2+x,1/2-y,z
8 1/2+y,1/2+x,1/2+z
_cell_length_a                   18.853(2)
_cell_length_b                   18.853(2)
_cell_length_c                   20.639(3)
_cell_angle_alpha                90
_cell_angle_beta                 90
_cell_angle_gamma                90
_cell_volume                     7335.84
loop_
_atom_site_label
_atom_site_type_symbol
_atom_site_fract_x
_atom_site_fract_y
_atom_site_fract_z
S1 S -0.2682(4) 1.2771(4) 0.5925(3)
O2 O -0.3326(9) 1.2625(8) 0.6191(7)
O3 O -0.2311(8) 1.3365(8) 0.6150(7)
O4 O -0.2205(8) 1.2171(8) 0.5723(8)
C25 C -0.2950(13) 1.2946(12) 0.5142(12)
F1 F -0.3375(7) 1.3537(6) 0.5122(6)
F2 F -0.2455(8) 1.3259(7) 0.4773(7)
F3 F -0.3270(7) 1.2454(7) 0.4820(6)
S2 S 0.5000 0.5000 0.9223(11)
O5 O 0.498(3) 0.4262(13) 0.925(3)
O6 O 0.447(2) 0.535(3) 0.955(3)
O7 O 0.5707(16) 0.527(3) 0.942(3)
C26 C 0.5000 0.5000 0.835(3)
F4 F 0.477(2) 0.4306(17) 0.8199(19)
F5 F 0.448(2) 0.547(2) 0.820(3)
F6 F 0.5648(17) 0.512(3) 0.823(3)
O5B O 0.502(3) 0.5738(13) 0.925(3)
O6B O 0.553(2) 0.465(3) 0.955(3)
O7B O 0.4293(16) 0.473(3) 0.942(3)
F4B F 0.523(2) 0.5694(17) 0.8199(19)
F5B F 0.552(2) 0.453(2) 0.820(3)
F6B F 0.4352(17) 0.488(3) 0.823(3)
S3 S 0.5269(12) -0.0054(12) 0.2744(7)
O8 O 0.5826(19) 0.0359(18) 0.2973(14)
O9 O 0.5412(19) -0.0757(13) 0.2664(14)
O10 O 0.507(2) 0.0282(13) 0.2113(12)
C27 C 0.453(2) -0.0062(16) 0.333(2)
F7 F 0.5000 0.0000 0.3851(10)
F8 F 0.5782(16) 0.0716(13) 0.3313(12)
F9 F 0.5811(15) -0.0497(14) 0.3160(12)
S3B S 0.4731(12) 0.0054(12) 0.2744(7)
O8B O 0.4174(19) -0.0359(18) 0.2973(14)
O9B O 0.4588(19) 0.0757(13) 0.2664(14)
O10B O 0.493(2) -0.0282(13) 0.2113(12)
C27B C 0.547(2) 0.0062(16) 0.333(2)
F8B F 0.4218(16) -0.0716(13) 0.3313(12)
F9B F 0.4189(15) 0.0497(14) 0.3160(12)
O11 O -0.3345(8) 0.9505(8) 0.6740(9)
H23 H -0.3095 0.9171 0.6584
H24 H -0.3391 0.9447 0.7146
O12 O -0.0252(17) 1.493(4) 1.0912(14)
H25 H -0.0328 1.4771 1.0532
H26 H -0.0405 1.4599 1.1154
O12B O 0.0252(17) 1.507(4) 1.0912(14)
H25B H 0.0328 1.5229 1.0532
H26B H 0.0405 1.5401 1.1154
Cu1 Cu -0.28151(11) 1.07189(12) 0.64776(11)
Cu2 Cu -0.36219(10) 1.19834(10) 0.73151(10)
Cu3 Cu -0.43378(10) 1.14625(10) 0.59561(10)
O1 O -0.3734(5) 1.1175(5) 0.6705(5)
H1 H -0.4007 1.0815 0.6940
N1 N -0.2505(8) 1.0950(7) 0.7337(8)
N2 N -0.2800(7) 1.1476(8) 0.7666(8)
C1 C -0.2510(14) 1.1532(14) 0.8257(10)
H2 H -0.2624 1.1876 0.8562
C2 C -0.2012(12) 1.0996(14) 0.8344(10)
H3 H -0.1736 1.0901 0.8708
C3 C -0.2025(11) 1.0659(11) 0.7790(13)
H4 H -0.1745 1.0264 0.7703
N3 N -0.4581(8) 1.2290(7) 0.7111(6)
N4 N -0.4922(7) 1.1999(6) 0.6590(6)
C4 C -0.5549(9) 1.2230(11) 0.6586(10)
H5 H -0.5868 1.2142 0.6252
C5 C -0.5716(11) 1.2631(12) 0.7134(11)
H6 H -0.6145 1.2831 0.7261
C6 C -0.5084(11) 1.2647(11) 0.7425(10)
H7 H -0.5002 1.2885 0.7812
N5 N -0.3721(7) 1.0899(6) 0.5383(6)
N6 N -0.3146(7) 1.0610(8) 0.5587(8)
C7 C -0.2856(10) 1.0220(10) 0.5103(11)
H8 H -0.2448 0.9945 0.5136
C8 C -0.3258(11) 1.0295(10) 0.4568(9)
H9 H -0.3186 1.0088 0.4165
C9 C -0.3819(11) 1.0763(11) 0.4756(9)
H10 H -0.4179 1.0937 0.4493
N7 N -0.3351(5) 1.2823(5) 0.7886(4)
C10 C -0.2729(6) 1.3184(7) 0.7740(4)
H11 H -0.2509 1.3115 0.7341
C11 C -0.2434(5) 1.3647(6) 0.8189(6)
H12 H -0.2017 1.3889 0.8090
C12 C -0.2761(6) 1.3750(6) 0.8785(5)
C13 C -0.3384(6) 1.3389(7) 0.8932(4)
H13 H -0.3603 1.3458 0.9330
C14 C -0.3679(5) 1.2926(6) 0.8482(5)
H14 H -0.4095 1.2684 0.8581
C15 C -0.2416(6) 1.4176(6) 0.9291(5)
C16 C -0.2841(4) 1.4645(6) 0.9637(6)
H15 H -0.3325 1.4669 0.9551
C17 C -0.2544(5) 1.5076(5) 1.0111(5)
H16 H -0.2829 1.5389 1.0342
N8 N -0.1822(5) 1.5039(6) 1.0239(4)
C18 C -0.1396(4) 1.4571(6) 0.9893(5)
H17 H -0.0912 1.4547 0.9979
C19 C -0.1693(6) 1.4140(5) 0.9420(5)
H18 H -0.1408 1.3827 0.9188
N9 N -0.1832(4) 1.0394(7) 0.6267(6)
C20 C -0.1354(6) 1.0922(5) 0.6094(6)
H19 H -0.1516 1.1376 0.5999
C21 C -0.0633(5) 1.0771(5) 0.6062(6)
H20 H -0.0313 1.1124 0.5946
C22 C -0.0391(4) 1.0092(6) 0.6203(6)
C23 C -0.0869(6) 0.9564(4) 0.6376(7)
H21 H -0.0707 0.9110 0.6471
C24 C -0.1590(5) 0.9715(6) 0.6408(7)
H22 H -0.1910 0.9362 0.6524
Cu1B Cu 0.28151(11) 0.92811(12) 0.64776(11)
Cu2B Cu 0.36219(10) 0.80166(10) 0.73151(10)
Cu2C Cu -0.80166(10) 1.36219(10) 0.23151(10)
Cu3B Cu 0.43378(10) 0.85375(10) 0.59561(10)
Cu3A Cu -0.14625(10) 1.56622(10) 1.09561(10)
O1B O 0.3734(5) 0.8825(5) 0.6705(5)
H1B H 0.4007 0.9185 0.6940
N1B N 0.2505(8) 0.9050(7) 0.7337(8)
N2B N 0.2800(7) 0.8524(8) 0.7666(8)
C1B C 0.2510(14) 0.8468(14) 0.8257(10)
H2B H 0.2624 0.8124 0.8562
C2B C 0.2012(12) 0.9004(14) 0.8344(10)
H3B H 0.1736 0.9099 0.8708
C3B C 0.2025(11) 0.9341(11) 0.7790(13)
H4B H 0.1745 0.9736 0.7703
N3B N 0.4581(8) 0.7710(7) 0.7111(6)
N4B N 0.4922(7) 0.8001(6) 0.6590(6)
C4B C 0.5549(9) 0.7770(11) 0.6586(10)
H5B H 0.5868 0.7858 0.6252
C5B C 0.5716(11) 0.7369(12) 0.7134(11)
H6B H 0.6145 0.7169 0.7261
C6B C 0.5084(11) 0.7353(11) 0.7425(10)
H7B H 0.5002 0.7115 0.7812
N5B N 0.3721(7) 0.9101(6) 0.5383(6)
N6B N 0.3146(7) 0.9390(8) 0.5587(8)
C7B C 0.2856(10) 0.9780(10) 0.5103(11)
H8B H 0.2448 1.0055 0.5136
C8B C 0.3258(11) 0.9705(10) 0.4568(9)
H9B H 0.3186 0.9912 0.4165
C9B C 0.3819(11) 0.9237(11) 0.4756(9)
H10B H 0.4179 0.9063 0.4493
N7C N -0.7177(5) 1.3351(5) 0.2886(4)
N7B N 0.3351(5) 0.7177(5) 0.7886(4)
C10C C -0.6816(7) 1.2729(6) 0.2740(4)
H11C H -0.6885 1.2509 0.2341
C11C C -0.6353(6) 1.2434(5) 0.3189(6)
H12C H -0.6111 1.2017 0.3090
C12C C -0.6250(6) 1.2761(6) 0.3785(5)
C13C C -0.6611(7) 1.3384(6) 0.3932(4)
H13C H -0.6542 1.3603 0.4330
C14C C -0.7074(6) 1.3679(5) 0.3482(5)
H14C H -0.7316 1.4095 0.3581
C15C C -0.5824(6) 1.2416(6) 0.4291(5)
C16C C -0.5355(6) 1.2841(4) 0.4637(6)
H15C H -0.5331 1.3325 0.4551
C17C C -0.4924(5) 1.2544(5) 0.5111(5)
H16C H -0.4611 1.2829 0.5342
N8C N -0.4961(6) 1.1822(5) 0.5239(4)
N8A N 0.4961(6) 0.8178(5) 0.5239(4)
C18C C -0.5429(6) 1.1396(4) 0.4893(5)
H17C H -0.5453 1.0912 0.4979
C19C C -0.5860(5) 1.1693(6) 0.4420(5)
H18C H -0.6173 1.1408 0.4188
N9B N 0.1832(4) 0.9606(7) 0.6267(6)
C20B C 0.1354(6) 0.9078(5) 0.6094(6)
H19B H 0.1516 0.8624 0.5999
C21B C 0.0633(5) 0.9229(5) 0.6062(6)
H20B H 0.0313 0.8876 0.5946
C22B C 0.0391(4) 0.9908(6) 0.6203(6)
C23B C 0.0869(6) 1.0436(4) 0.6376(7)
H21B H 0.0707 1.0890 0.6471
C24B C 0.1590(5) 1.0285(6) 0.6408(7)
H22B H 0.1910 1.0638 0.6524
loop_
_geom_bond_atom_site_label_1
_geom_bond_atom_site_label_2
_geom_bond_site_symmetry_1
_geom_bond_site_symmetry_2
Cu1 O1 1_555 1_555
Cu2 O1 1_555 1_555
Cu3 O1 1_555 1_555
O1 H1 1_555 1_555
N1 Cu1 1_555 1_555
N2 Cu2 1_555 1_555
C1 N2 1_555 1_555
H2 C1 1_555 1_555
C2 C1 1_555 1_555
H3 C2 1_555 1_555
C3 N1 1_555 1_555
H4 C3 1_555 1_555
N3 Cu2 1_555 1_555
N4 Cu3 1_555 1_555
C4 N4 1_555 1_555
H5 C4 1_555 1_555
C5 C4 1_555 1_555
H6 C5 1_555 1_555
C6 N3 1_555 1_555
H7 C6 1_555 1_555
N5 Cu3 1_555 1_555
N6 Cu1 1_555 1_555
C7 N6 1_555 1_555
H8 C7 1_555 1_555
C8 C7 1_555 1_555
H9 C8 1_555 1_555
C9 N5 1_555 1_555
H10 C9 1_555 1_555
N7 Cu2 1_555 1_555
C10 N7 1_555 1_555
H11 C10 1_555 1_555
C11 C10 1_555 1_555
H12 C11 1_555 1_555
C12 C11 1_555 1_555
C13 C12 1_555 1_555
H13 C13 1_555 1_555
C14 N7 1_555 1_555
H14 C14 1_555 1_555
C15 C12 1_555 1_555
C16 C15 1_555 1_555
H15 C16 1_555 1_555
C17 C16 1_555 1_555
H16 C17 1_555 1_555
N8 C17 1_555 1_555
C18 N8 1_555 1_555
H17 C18 1_555 1_555
C19 C15 1_555 1_555
H18 C19 1_555 1_555
N9 Cu1 1_555 1_555
C20 N9 1_555 1_555
H19 C20 1_555 1_555
C21 C20 1_555 1_555
H20 C21 1_555 1_555
C22 C21 1_555 1_555
C23 C22 1_555 1_555
H21 C23 1_555 1_555
C24 N9 1_555 1_555
H22 C24 1_555 1_555
S1 O2 1_555 1_555
O3 S1 1_555 1_555
O4 S1 1_555 1_555
C25 S1 1_555 1_555
F1 C25 1_555 1_555
F2 C25 1_555 1_555
F3 C25 1_555 1_555
S2 O5 1_555 1_555
O5 O6B 1_555 1_555
O6 S2 1_555 1_555
O7 S2 1_555 1_555
C26 S2 1_555 1_555
F4 C26 1_555 1_555
F5 C26 1_555 1_555
F6 C26 1_555 1_555
S3 O8 1_555 1_555
O8 F8 1_555 1_555
O9 S3 1_555 1_555
O10 S3 1_555 1_555
C27 S3 1_555 1_555
F7 C27 1_555 1_555
F8 C27B 1_555 1_555
F9 S3 1_555 1_555
O11 H23 1_555 1_555
H24 O11 1_555 1_555
O12 H25 1_555 1_555
H26 O12 1_555 1_555
Cu1B O1B 1_555 1_555
Cu2B O1B 1_555 1_555
Cu2C N7C 1_555 1_555
Cu3B O1B 1_555 1_555
Cu3A N8 1_555 1_555
O1B H1B 1_555 1_555
N1B Cu1B 1_555 1_555
N2B Cu2B 1_555 1_555
C1B N2B 1_555 1_555
H2B C1B 1_555 1_555
C2B C1B 1_555 1_555
H3B C2B 1_555 1_555
C3B N1B 1_555 1_555
H4B C3B 1_555 1_555
N3B Cu2B 1_555 1_555
N4B Cu3B 1_555 1_555
C4B N4B 1_555 1_555
H5B C4B 1_555 1_555
C5B C4B 1_555 1_555
H6B C5B 1_555 1_555
C6B N3B 1_555 1_555
H7B C6B 1_555 1_555
N5B Cu3B 1_555 1_555
N6B Cu1B 1_555 1_555
C7B N6B 1_555 1_555
H8B C7B 1_555 1_555
C8B C7B 1_555 1_555
H9B C8B 1_555 1_555
C9B N5B 1_555 1_555
H10B C9B 1_555 1_555
N7C C10C 1_555 1_555
N7B Cu2B 1_555 1_555
C10C H11C 1_555 1_555
C11C C10C 1_555 1_555
H12C C11C 1_555 1_555
C12C C11C 1_555 1_555
C13C C12C 1_555 1_555
H13C C13C 1_555 1_555
C14C N7C 1_555 1_555
H14C C14C 1_555 1_555
C15C C12C 1_555 1_555
C16C C15C 1_555 1_555
H15C C16C 1_555 1_555
C17C C16C 1_555 1_555
H16C C17C 1_555 1_555
N8C Cu3 1_555 1_555
N8A Cu3B 1_555 1_555
C18C N8C 1_555 1_555
H17C C18C 1_555 1_555
C19C C15C 1_555 1_555
H18C C19C 1_555 1_555
N9B Cu1B 1_555 1_555
C20B N9B 1_555 1_555
H19B C20B 1_555 1_555
C21B C20B 1_555 1_555
H20B C21B 1_555 1_555
C22B C22 1_555 1_555
C23B C22B 1_555 1_555
H21B C23B 1_555 1_555
C24B N9B 1_555 1_555
H22B C24B 1_555 1_555
O5B S2 1_555 1_555
O6B S2 1_555 1_555
O7B S2 1_555 1_555
F4B C26 1_555 1_555
F5B C26 1_555 1_555
F6B C26 1_555 1_555
S3B S3 1_555 1_555
O8B C27 1_555 1_555
O9B S3B 1_555 1_555
O10B S3 1_555 1_555
C27B S3 1_555 1_555
F8B C27 1_555 1_555
F9B C27 1_555 1_555
O12B O12 1_555 1_555
H25B O12B 1_555 1_555
H26B O12B 1_555 1_555
N1 N2 1_555 1_555
C2 C3 1_555 1_555
N3 N4 1_555 1_555
C5 C6 1_555 1_555
N5 N6 1_555 1_555
C8 C9 1_555 1_555
C13 C14 1_555 1_555
C18 C19 1_555 1_555
C23 C24 1_555 1_555
O5 O7B 1_555 1_555
O6 O5B 1_555 1_555
O6 O7B 1_555 1_555
O7 O5B 1_555 1_555
O7 O6B 1_555 1_555
F4 F5B 1_555 1_555
F4 F6B 1_555 1_555
F5 F4B 1_555 1_555
F5 F6B 1_555 1_555
F6 F4B 1_555 1_555
F6 F5B 1_555 1_555
O8 F9 1_555 1_555
O8 C27B 1_555 1_555
O9 F9 1_555 1_555
O10 S3B 1_555 1_555
O10 O10B 1_555 1_555
C27 S3B 1_555 1_555
C27 C27B 1_555 1_555
F7 C27B 1_555 1_555
F9 C27B 1_555 1_555
N1B N2B 1_555 1_555
C2B C3B 1_555 1_555
N3B N4B 1_555 1_555
C5B C6B 1_555 1_555
N5B N6B 1_555 1_555
C8B C9B 1_555 1_555
C13C C14C 1_555 1_555
C17C N8C 1_555 1_555
C18C C19C 1_555 1_555
C21B C22B 1_555 1_555
C23B C24B 1_555 1_555
S3B O8B 1_555 1_555
S3B O10B 1_555 1_555
S3B C27B 1_555 1_555
S3B F9B 1_555 1_555
O8B F8B 1_555 1_555
O8B F9B 1_555 1_555
O9B F9B 1_555 1_555

#END
