
#######################################################################
#
#                 Cambridge Crystallographic Data Centre
#                                CCDC 
#
#######################################################################
#
# If this CIF has been generated from an entry in the Cambridge 
# Structural Database, then it will include bibliographic, chemical, 
# crystal, experimental, refinement or atomic coordinate data resulting 
# from the CCDC's data processing and validation procedures.
#
#######################################################################

data_MUZROP
_symmetry_cell_setting           monoclinic
_symmetry_space_group_name_H-M   'C 2/c'
_symmetry_Int_Tables_number      15
_space_group_name_Hall           '-C 2yn'
loop_
_symmetry_equiv_pos_site_id
_symmetry_equiv_pos_as_xyz
1 x,y,z
2 -x,y,1/2-z
3 1/2+x,1/2+y,z
4 1/2-x,1/2+y,1/2-z
5 -x,-y,-z
6 x,-y,1/2+z
7 1/2-x,1/2-y,-z
8 1/2+x,1/2-y,1/2+z
_cell_length_a                   26.386(2)
_cell_length_b                   9.7824(9)
_cell_length_c                   14.8774(14)
_cell_angle_alpha                90
_cell_angle_beta                 101.541(1)
_cell_angle_gamma                90
_cell_volume                     3762.49
loop_
_atom_site_label
_atom_site_type_symbol
_atom_site_fract_x
_atom_site_fract_y
_atom_site_fract_z
Zn1 Zn 0.874315(9) 0.14637(2) 0.299235(16)
O1 O 0.90714(6) 0.34407(18) 0.44283(12)
O2 O 0.83425(6) 0.23968(16) 0.37901(10)
O3 O 0.93587(7) 0.45923(18) 0.62918(12)
H1 H 0.9670 0.4753 0.6374
O4 O 0.92998(7) 0.6307(2) 0.52820(13)
O5 O 0.66366(6) 0.5677(2) 0.51459(12)
O6 O 0.66995(6) 0.39093(19) 0.42976(11)
O7 O 0.88696(7) 0.69720(17) 0.70792(11)
O8 O 0.81391(7) 0.80924(16) 0.67082(11)
N1 N 0.68888(7) 0.4841(2) 0.48109(12)
N2 N 0.85196(7) -0.05594(18) 0.28799(11)
N3 N 0.94486(7) 0.05480(18) 0.34403(12)
C1 C 0.82898(8) 0.4190(2) 0.48380(13)
C2 C 0.85263(8) 0.5186(2) 0.54660(13)
C3 C 0.82144(8) 0.6067(2) 0.58643(14)
C4 C 0.76787(8) 0.5973(2) 0.56268(14)
H2 H 0.7472 0.6591 0.5863
C5 C 0.74577(8) 0.4956(2) 0.50385(14)
C6 C 0.77546(8) 0.4056(2) 0.46434(13)
H3 H 0.7598 0.3370 0.4252
C7 C 0.86005(9) 0.3283(2) 0.43268(14)
C8 C 0.91086(9) 0.5425(2) 0.56564(15)
C9 C 0.84243(9) 0.7125(2) 0.65830(14)
C10 C 0.99072(10) 0.1166(3) 0.36965(18)
H4 H 0.9920 0.2116 0.3680
C11 C 1.03609(10) 0.0454(3) 0.39830(18)
H5 H 1.0674 0.0910 0.4155
C12 C 1.03384(10) -0.0952(3) 0.4009(2)
H6 H 1.0639 -0.1460 0.4197
C13 C 0.98709(10) -0.1594(3) 0.3756(2)
H7 H 0.9852 -0.2543 0.3780
C14 C 0.94268(8) -0.0835(2) 0.34640(14)
C15 C 0.89084(9) -0.1443(2) 0.31554(15)
C16 C 0.88131(11) -0.2841(3) 0.3144(2)
H8 H 0.9082 -0.3452 0.3345
C17 C 0.83180(12) -0.3315(3) 0.2832(2)
H9 H 0.8251 -0.4249 0.2812
C18 C 0.79239(10) -0.2403(3) 0.25524(16)
H10 H 0.7586 -0.2703 0.2345
C19 C 0.80418(9) -0.1033(3) 0.25859(15)
H11 H 0.7776 -0.0409 0.2395
Zn1E Zn 0.874315(9) 0.85363(2) 0.799235(16)
O7E O 0.88696(7) 0.30280(17) 0.20792(11)
O8E O 0.81391(7) 0.19076(16) 0.17082(11)
O9 O 1.03417(7) 0.5316(2) 0.66714(17)
H12 H 1.0486(16) 0.550(4) 0.717(3)
H13 H 1.0492(16) 0.559(4) 0.630(3)
loop_
_geom_bond_atom_site_label_1
_geom_bond_atom_site_label_2
_geom_bond_site_symmetry_1
_geom_bond_site_symmetry_2
Zn1 O2 1_555 1_555
O1 C7 1_555 1_555
O2 C7 1_555 1_555
O3 H1 1_555 1_555
O4 C8 1_555 1_555
O5 N1 1_555 1_555
O6 N1 1_555 1_555
O7 C9 1_555 1_555
O8 C9 1_555 1_555
N1 C5 1_555 1_555
N2 Zn1 1_555 1_555
N3 Zn1 1_555 1_555
C1 C2 1_555 1_555
C2 C3 1_555 1_555
C3 C4 1_555 1_555
C4 H2 1_555 1_555
C5 C4 1_555 1_555
C6 C1 1_555 1_555
H3 C6 1_555 1_555
C7 C1 1_555 1_555
C8 O3 1_555 1_555
C9 C3 1_555 1_555
C10 N3 1_555 1_555
H4 C10 1_555 1_555
C11 C10 1_555 1_555
H5 C11 1_555 1_555
C12 C11 1_555 1_555
H6 C12 1_555 1_555
C13 C12 1_555 1_555
H7 C13 1_555 1_555
C14 N3 1_555 1_555
C15 N2 1_555 1_555
C16 C15 1_555 1_555
H8 C16 1_555 1_555
C17 C16 1_555 1_555
H9 C17 1_555 1_555
C18 C17 1_555 1_555
H10 C18 1_555 1_555
C19 N2 1_555 1_555
H11 C19 1_555 1_555
O9 H12 1_555 1_555
H13 O9 1_555 1_555
Zn1E O7 1_555 1_555
O7E Zn1 1_555 1_555
O8E Zn1 1_555 1_555
O8 Zn1E 1_555 1_555
C2 C8 1_555 1_555
C5 C6 1_555 1_555
C13 C14 1_555 1_555
C14 C15 1_555 1_555
C18 C19 1_555 1_555

#END
