
#######################################################################
#
#                 Cambridge Crystallographic Data Centre
#                                CCDC 
#
#######################################################################
#
# If this CIF has been generated from an entry in the Cambridge 
# Structural Database, then it will include bibliographic, chemical, 
# crystal, experimental, refinement or atomic coordinate data resulting 
# from the CCDC's data processing and validation procedures.
#
#######################################################################

data_MUZRUV
_symmetry_cell_setting           monoclinic
_symmetry_space_group_name_H-M   'C 2/c'
_symmetry_Int_Tables_number      15
_space_group_name_Hall           '-C 2yn'
loop_
_symmetry_equiv_pos_site_id
_symmetry_equiv_pos_as_xyz
1 x,y,z
2 -x,y,1/2-z
3 1/2+x,1/2+y,z
4 1/2-x,1/2+y,1/2-z
5 -x,-y,-z
6 x,-y,1/2+z
7 1/2-x,1/2-y,-z
8 1/2+x,1/2-y,1/2+z
_cell_length_a                   14.5435(12)
_cell_length_b                   23.860(2)
_cell_length_c                   11.7516(10)
_cell_angle_alpha                90
_cell_angle_beta                 90.370(1)
_cell_angle_gamma                90
_cell_volume                     4077.81
loop_
_atom_site_label
_atom_site_type_symbol
_atom_site_fract_x
_atom_site_fract_y
_atom_site_fract_z
Cd1 Cd 1.0000 0.514578(7) 0.7500
Cd2 Cd 0.899650(9) 0.631590(6) 0.948600(11)
O1 O 0.75654(10) 0.61668(7) 0.83538(12)
O2 O 0.89152(9) 0.59196(6) 0.76835(11)
O3 O 0.96469(8) 0.54224(5) 0.57199(10)
O4 O 0.94398(9) 0.63250(5) 0.53105(12)
O5 O 0.90370(9) 0.54321(6) 0.33940(11)
O6 O 0.77007(10) 0.54179(7) 0.24380(11)
O7 O 0.48267(11) 0.55766(9) 0.44100(15)
O8 O 0.47780(11) 0.58274(12) 0.61560(16)
O9 O 0.86102(11) 0.55641(6) 1.04909(13)
H1 H 0.8279 0.5533 1.1051
H2 H 0.8988 0.5311 1.0442
N1 N 0.52002(11) 0.56967(9) 0.53043(16)
N2 N 0.88682(12) 0.72498(7) 0.88337(15)
N3 N 0.88390(11) 0.69110(7) 1.10376(14)
C1 C 0.75981(12) 0.58474(7) 0.64351(15)
C2 C 0.81132(12) 0.57614(7) 0.54356(14)
C3 C 0.76595(12) 0.56194(7) 0.44153(15)
C4 C 0.67035(13) 0.55884(8) 0.43815(16)
H3 H 0.6398 0.5496 0.3710
C5 C 0.62155(12) 0.56974(8) 0.53663(16)
C6 C 0.66412(13) 0.58145(8) 0.63956(16)
H4 H 0.6295 0.5870 0.7049
C7 C 0.80452(12) 0.59824(8) 0.75684(15)
C8 C 0.91483(12) 0.58412(7) 0.54851(14)
C9 C 0.81700(12) 0.54770(7) 0.33201(14)
C10 C 0.88439(18) 0.73952(11) 0.7735(2)
H5 H 0.8924 0.7119 0.7186
C11 C 0.8702(2) 0.79474(13) 0.7384(2)
H6 H 0.8693 0.8038 0.6614
C12 C 0.85764(19) 0.83549(11) 0.8192(3)
H7 H 0.8479 0.8725 0.7977
C13 C 0.85954(17) 0.82085(10) 0.9332(2)
H8 H 0.8505 0.8479 0.9890
C14 C 0.87520(13) 0.76515(8) 0.96326(18)
C15 C 0.87830(13) 0.74665(8) 1.08460(17)
C16 C 0.87721(18) 0.78437(10) 1.1748(2)
H9 H 0.8747 0.8227 1.1609
C17 C 0.87990(19) 0.76440(11) 1.2851(2)
H10 H 0.8778 0.7893 1.3459
C18 C 0.88565(17) 0.70790(10) 1.30464(19)
H11 H 0.8877 0.6937 1.3783
C19 C 0.88835(15) 0.67263(9) 1.21124(18)
H12 H 0.8935 0.6343 1.2237
Cd1D Cd 1.0000 0.485422(7) 0.2500
Cd1D_2 Cd 1.0000 0.485422(7) 1.2500
Cd2A Cd 1.100350(9) 0.631590(6) 0.551400(11)
O1A O 1.24346(10) 0.61668(7) 0.66462(12)
O2A O 1.10848(9) 0.59196(6) 0.73165(11)
O3A O 1.03531(8) 0.54224(5) 0.92801(10)
O4A O 1.05602(9) 0.63250(5) 0.96895(12)
O5A O 1.09630(9) 0.54321(6) 1.16060(11)
O5D O 1.09630(9) 0.45679(6) 0.66060(11)
O5E O 0.90370(9) 0.45679(6) 0.83940(11)
O6A O 1.22993(10) 0.54179(7) 1.25620(11)
O7A O 1.51733(11) 0.55766(9) 1.05900(15)
O8A O 1.52220(11) 0.58274(12) 0.88440(16)
O9A O 1.13898(11) 0.55641(6) 0.45091(13)
H1A H 1.1721 0.5533 0.3949
H2A H 1.1012 0.5311 0.4558
N1A N 1.47998(11) 0.56967(9) 0.96957(16)
N2A N 1.11318(12) 0.72498(7) 0.61663(15)
N3A N 1.11610(11) 0.69110(7) 0.39624(14)
C1A C 1.24019(12) 0.58474(7) 0.85649(15)
C2A C 1.18868(12) 0.57614(7) 0.95644(14)
C3A C 1.23405(12) 0.56194(7) 1.05847(15)
C4A C 1.32965(13) 0.55884(8) 1.06185(16)
H3A H 1.3602 0.5496 1.1290
C5A C 1.37845(12) 0.56974(8) 0.96337(16)
C6A C 1.33588(13) 0.58145(8) 0.86044(16)
H4A H 1.3705 0.5870 0.7951
C7A C 1.19548(12) 0.59824(8) 0.74316(15)
C8A C 1.08517(12) 0.58412(7) 0.95149(14)
C9A C 1.18300(12) 0.54770(7) 1.16799(14)
C10A C 1.11561(18) 0.73952(11) 0.7265(2)
H5A H 1.1076 0.7119 0.7814
C11A C 1.1298(2) 0.79474(13) 0.7616(2)
H6A H 1.1307 0.8038 0.8386
C12A C 1.14236(19) 0.83549(11) 0.6808(3)
H7A H 1.1521 0.8725 0.7023
C13A C 1.14046(17) 0.82085(10) 0.5668(2)
H8A H 1.1495 0.8479 0.5110
C14A C 1.12480(13) 0.76515(8) 0.53674(18)
C15A C 1.12170(13) 0.74665(8) 0.41540(17)
C16A C 1.12279(18) 0.78437(10) 0.3252(2)
H9A H 1.1253 0.8227 0.3391
C17A C 1.12010(19) 0.76440(11) 0.2149(2)
H10A H 1.1222 0.7893 0.1541
C18A C 1.11435(17) 0.70790(10) 0.19536(19)
H11A H 1.1123 0.6937 0.1217
C19A C 1.11165(15) 0.67263(9) 0.28876(18)
H12A H 1.1065 0.6343 0.2763
loop_
_geom_bond_atom_site_label_1
_geom_bond_atom_site_label_2
_geom_bond_site_symmetry_1
_geom_bond_site_symmetry_2
Cd1 O2 1_555 1_555
Cd2 O1 1_555 1_555
O1 C7 1_555 1_555
O2 Cd2 1_555 1_555
O3 Cd1 1_555 1_555
O4 C8 1_555 1_555
O5 C9 1_555 1_555
O6 C9 1_555 1_555
O7 N1 1_555 1_555
O8 N1 1_555 1_555
O9 Cd2 1_555 1_555
H1 O9 1_555 1_555
H2 O9 1_555 1_555
N1 C5 1_555 1_555
N2 Cd2 1_555 1_555
N3 Cd2 1_555 1_555
C1 C2 1_555 1_555
C2 C3 1_555 1_555
C3 C4 1_555 1_555
C4 H3 1_555 1_555
C5 C4 1_555 1_555
C6 C1 1_555 1_555
H4 C6 1_555 1_555
C7 O2 1_555 1_555
C8 O3 1_555 1_555
C9 C3 1_555 1_555
C10 N2 1_555 1_555
H5 C10 1_555 1_555
C11 C10 1_555 1_555
H6 C11 1_555 1_555
C12 C11 1_555 1_555
H7 C12 1_555 1_555
C13 C12 1_555 1_555
H8 C13 1_555 1_555
C14 N2 1_555 1_555
C15 N3 1_555 1_555
C16 C15 1_555 1_555
H9 C16 1_555 1_555
C17 C16 1_555 1_555
H10 C17 1_555 1_555
C18 C17 1_555 1_555
H11 C18 1_555 1_555
C19 N3 1_555 1_555
H12 C19 1_555 1_555
Cd1D O5 1_555 1_555
Cd1D_2 O5A 1_555 1_555
Cd2A O4 1_555 1_555
O1A Cd2A 1_555 1_555
O2A Cd1 1_555 1_555
O3A Cd1 1_555 1_555
O4A Cd2 1_555 1_555
O5A C9A 1_555 1_555
O5D Cd1 1_555 1_555
O5E Cd1 1_555 1_555
O6A C9A 1_555 1_555
O7A N1A 1_555 1_555
O8A N1A 1_555 1_555
O9A Cd2A 1_555 1_555
H1A O9A 1_555 1_555
H2A O9A 1_555 1_555
N1A C5A 1_555 1_555
N2A Cd2A 1_555 1_555
N3A Cd2A 1_555 1_555
C1A C2A 1_555 1_555
C2A C3A 1_555 1_555
C3A C4A 1_555 1_555
C4A H3A 1_555 1_555
C5A C4A 1_555 1_555
C6A C1A 1_555 1_555
H4A C6A 1_555 1_555
C7A O1A 1_555 1_555
C8A O3A 1_555 1_555
C9A C3A 1_555 1_555
C10A N2A 1_555 1_555
H5A C10A 1_555 1_555
C11A C10A 1_555 1_555
H6A C11A 1_555 1_555
C12A C11A 1_555 1_555
H7A C12A 1_555 1_555
C13A C12A 1_555 1_555
H8A C13A 1_555 1_555
C14A N2A 1_555 1_555
C15A N3A 1_555 1_555
C16A C15A 1_555 1_555
H9A C16A 1_555 1_555
C17A C16A 1_555 1_555
H10A C17A 1_555 1_555
C18A C17A 1_555 1_555
H11A C18A 1_555 1_555
C19A N3A 1_555 1_555
H12A C19A 1_555 1_555
C1 C7 1_555 1_555
C2 C8 1_555 1_555
C5 C6 1_555 1_555
C13 C14 1_555 1_555
C14 C15 1_555 1_555
C18 C19 1_555 1_555
Cd2A O2A 1_555 1_555
O2A C7A 1_555 1_555
O4A C8A 1_555 1_555
C1A C7A 1_555 1_555
C2A C8A 1_555 1_555
C5A C6A 1_555 1_555
C13A C14A 1_555 1_555
C14A C15A 1_555 1_555
C18A C19A 1_555 1_555

#END
