
#######################################################################
#
#                 Cambridge Crystallographic Data Centre
#                                CCDC 
#
#######################################################################
#
# If this CIF has been generated from an entry in the Cambridge 
# Structural Database, then it will include bibliographic, chemical, 
# crystal, experimental, refinement or atomic coordinate data resulting 
# from the CCDC's data processing and validation procedures.
#
#######################################################################

data_MUZSAC
_symmetry_cell_setting           monoclinic
_symmetry_space_group_name_H-M   'P 21/c'
_symmetry_Int_Tables_number      14
_space_group_name_Hall           '-P 2ybc'
loop_
_symmetry_equiv_pos_site_id
_symmetry_equiv_pos_as_xyz
1 x,y,z
2 -x,1/2+y,1/2-z
3 -x,-y,-z
4 x,1/2-y,1/2+z
_cell_length_a                   9.9286(8)
_cell_length_b                   28.491(2)
_cell_length_c                   14.9067(12)
_cell_angle_alpha                90
_cell_angle_beta                 93.613(1)
_cell_angle_gamma                90
_cell_volume                     4208.36
loop_
_atom_site_label
_atom_site_type_symbol
_atom_site_fract_x
_atom_site_fract_y
_atom_site_fract_z
Cd1 Cd 0.69788(2) 0.481973(6) 0.659361(12)
Cd2 Cd 0.47889(2) 0.478215(6) 0.883335(12)
Cd3 Cd 1.082455(19) 0.450608(6) 0.689657(12)
O1 O 0.8949(2) 0.43190(7) 0.78288(13)
O2 O 0.7074(2) 0.46947(7) 0.81413(12)
O3 O 0.62652(19) 0.51552(6) 0.98306(12)
O4 O 0.8299(2) 0.54742(7) 0.96625(15)
O5 O 0.7675(2) 0.52354(7) 1.16302(13)
O6 O 0.9250(2) 0.48116(7) 1.23695(13)
O7 O 0.9116(4) 0.31306(9) 1.14243(18)
O8 O 0.9804(5) 0.30283(10) 1.0115(2)
O9 O 0.89750(19) 0.46606(7) 0.58243(12)
O10 O 0.9961(2) 0.39761(8) 0.56613(14)
O11 O 0.64202(18) 0.50289(7) 0.51430(12)
O12 O 0.7766(2) 0.53226(7) 0.41518(13)
O13 O 0.5309(2) 0.50644(7) 0.30910(13)
O14 O 0.5535(2) 0.45703(7) 0.19525(12)
O15 O 0.6561(3) 0.29570(9) 0.26435(19)
O16 O 0.8355(3) 0.28253(8) 0.35015(18)
N1 N 0.9353(3) 0.32747(10) 1.0685(2)
N2 N 0.7465(3) 0.30843(9) 0.31919(17)
N3 N 0.8248(3) 0.88106(8) 0.75958(16)
N4 N 0.7609(3) 0.55873(8) 0.68462(16)
N5 N 0.5061(2) 0.09895(8) 0.41462(15)
N6 N 0.6351(2) 0.40465(8) 0.62645(15)
C1 C 0.8136(3) 0.44641(9) 0.83722(17)
C2 C 0.8400(3) 0.43428(9) 0.93514(17)
C3 C 0.8842(3) 0.38912(10) 0.95650(19)
H1 H 0.9013 0.3677 0.9115
C4 C 0.9021(3) 0.37664(10) 1.04583(19)
C5 C 0.8895(3) 0.40806(10) 1.11478(18)
H2 H 0.9082 0.3990 1.1742
C6 C 0.8485(3) 0.45347(9) 1.09437(17)
C7 C 0.8165(3) 0.46633(9) 1.00453(17)
C8 C 0.7575(3) 0.51453(9) 0.98241(17)
C9 C 0.8450(3) 0.48862(9) 1.16966(18)
C10 C 0.9110(3) 0.42741(10) 0.54074(17)
C11 C 0.8202(3) 0.41638(9) 0.45761(16)
C12 C 0.7325(3) 0.44926(9) 0.41340(16)
C13 C 0.6560(3) 0.43517(9) 0.33503(17)
C14 C 0.6615(3) 0.38911(9) 0.30446(18)
H3 H 0.6099 0.3799 0.2533
C15 C 0.7441(3) 0.35736(9) 0.35084(18)
C16 C 0.8255(3) 0.37039(10) 0.42559(18)
H4 H 0.8833 0.3487 0.4543
C17 C 0.7171(3) 0.49900(9) 0.45010(16)
C18 C 0.5724(3) 0.46898(10) 0.27703(17)
C19 C 0.7847(4) 0.85049(12) 0.8202(2)
H5 H 0.7806 0.8602 0.8795
C20 C 0.7490(4) 0.80496(13) 0.7982(3)
H6 H 0.7207 0.7848 0.8423
C21 C 0.7551(4) 0.78903(12) 0.7109(3)
C22 C 0.7926(4) 0.82130(12) 0.6479(2)
H7 H 0.7964 0.8125 0.5880
C23 C 0.8245(3) 0.86677(11) 0.6744(2)
H8 H 0.8467 0.8883 0.6308
C24 C 0.7254(4) 0.73790(12) 0.6881(3)
H9 H 0.6430 0.7284 0.7147
H10 H 0.7119 0.7344 0.6234
C25 C 0.8382(4) 0.70707(12) 0.7222(3)
H11 H 0.8565 0.7130 0.7858
H12 H 0.9186 0.7154 0.6920
C26 C 0.8113(4) 0.65501(11) 0.7088(3)
C27 C 0.7715(4) 0.62660(12) 0.7784(2)
H13 H 0.7611 0.6396 0.8348
C28 C 0.7476(3) 0.57980(11) 0.7644(2)
H14 H 0.7210 0.5617 0.8122
C29 C 0.8017(3) 0.58551(11) 0.6178(2)
H15 H 0.8129 0.5716 0.5623
C30 C 0.8280(4) 0.63296(11) 0.6277(2)
H16 H 0.8571 0.6501 0.5795
C31 C 0.5368(3) 0.13163(10) 0.3549(2)
H17 H 0.5332 0.1235 0.2944
C32 C 0.5733(4) 0.17674(11) 0.3788(2)
H18 H 0.5936 0.1983 0.3348
C33 C 0.5799(4) 0.19010(11) 0.4681(2)
C34 C 0.5487(4) 0.15599(12) 0.5299(2)
H19 H 0.5527 0.1632 0.5909
C35 C 0.5118(4) 0.11151(11) 0.5016(2)
H20 H 0.4902 0.0894 0.5443
C36 C 0.6197(5) 0.23919(13) 0.4972(3)
H21 H 0.6355 0.2575 0.4441
H22 H 0.7042 0.2376 0.5334
C37 C 0.5209(4) 0.26383(13) 0.5485(3)
H23 H 0.4354 0.2648 0.5132
H24 H 0.5073 0.2463 0.6029
C38 C 0.5622(4) 0.31350(11) 0.5738(3)
C39 C 0.4917(4) 0.35245(12) 0.5399(3)
H25 H 0.4185 0.3485 0.4985
C40 C 0.5303(3) 0.39724(10) 0.5676(2)
H26 H 0.4816 0.4229 0.5445
C41 C 0.7060(3) 0.36718(10) 0.65706(19)
H27 H 0.7812 0.3721 0.6964
C42 C 0.6721(3) 0.32176(11) 0.6328(2)
H28 H 0.7233 0.2968 0.6561
Cd1B Cd 0.30212(2) 0.518027(6) 0.340639(12)
Cd2B Cd 0.52111(2) 0.521785(6) 1.116665(12)
Cd2B_2 Cd 0.52111(2) 0.521785(6) 0.116665(12)
Cd2C Cd 0.47889(2) 0.021785(6) 0.383335(12)
Cd3B Cd 0.917545(19) 0.549392(6) 1.310343(12)
Cd3B_2 Cd 0.917545(19) 0.549392(6) 0.310343(12)
Cd3A Cd 0.917545(19) 0.950608(6) 0.810343(12)
O3B O 0.37348(19) 0.48448(6) 1.01694(12)
O5B O 0.2325(2) 0.47646(7) 0.83698(13)
O6B O 1.0750(2) 0.51884(7) 0.76305(13)
O12B O 1.2234(2) 0.46774(7) 0.58482(13)
O13B O 0.4691(2) 0.49356(7) 0.69090(13)
O14B O 0.4465(2) 0.54297(7) 0.80475(12)
N3A N 1.1752(3) 0.38106(8) 0.74042(16)
N5C N 0.5061(2) 0.40105(8) 0.91462(15)
loop_
_geom_bond_atom_site_label_1
_geom_bond_atom_site_label_2
_geom_bond_site_symmetry_1
_geom_bond_site_symmetry_2
Cd1 O2 1_555 1_555
Cd2 O2 1_555 1_555
Cd3 O1 1_555 1_555
O1 C1 1_555 1_555
O2 C1 1_555 1_555
O3 Cd2 1_555 1_555
O4 C8 1_555 1_555
O5 C9 1_555 1_555
O6 C9 1_555 1_555
O7 N1 1_555 1_555
O8 N1 1_555 1_555
O9 Cd1 1_555 1_555
O10 Cd3 1_555 1_555
O11 Cd1 1_555 1_555
O12 C17 1_555 1_555
O13 C18 1_555 1_555
O14 C18 1_555 1_555
O15 N2 1_555 1_555
O16 N2 1_555 1_555
N1 C4 1_555 1_555
N2 C15 1_555 1_555
N3 C19 1_555 1_555
N4 Cd1 1_555 1_555
N5 C31 1_555 1_555
N6 Cd1 1_555 1_555
C1 C2 1_555 1_555
C2 C3 1_555 1_555
C3 H1 1_555 1_555
C4 C3 1_555 1_555
C5 C4 1_555 1_555
H2 C5 1_555 1_555
C6 C5 1_555 1_555
C7 C2 1_555 1_555
C8 O3 1_555 1_555
C9 C6 1_555 1_555
C10 O9 1_555 1_555
C11 C10 1_555 1_555
C12 C11 1_555 1_555
C13 C12 1_555 1_555
C14 C13 1_555 1_555
H3 C14 1_555 1_555
C15 C14 1_555 1_555
C16 C11 1_555 1_555
H4 C16 1_555 1_555
C17 O11 1_555 1_555
C18 C13 1_555 1_555
C19 H5 1_555 1_555
C20 C19 1_555 1_555
H6 C20 1_555 1_555
C21 C20 1_555 1_555
C22 C21 1_555 1_555
H7 C22 1_555 1_555
C23 N3 1_555 1_555
H8 C23 1_555 1_555
C24 C21 1_555 1_555
H9 C24 1_555 1_555
H10 C24 1_555 1_555
C25 C24 1_555 1_555
H11 C25 1_555 1_555
H12 C25 1_555 1_555
C26 C25 1_555 1_555
C27 C26 1_555 1_555
H13 C27 1_555 1_555
C28 N4 1_555 1_555
H14 C28 1_555 1_555
C29 N4 1_555 1_555
H15 C29 1_555 1_555
C30 C26 1_555 1_555
H16 C30 1_555 1_555
C31 H17 1_555 1_555
C32 C31 1_555 1_555
H18 C32 1_555 1_555
C33 C32 1_555 1_555
C34 C33 1_555 1_555
H19 C34 1_555 1_555
C35 N5 1_555 1_555
H20 C35 1_555 1_555
C36 C33 1_555 1_555
H21 C36 1_555 1_555
H22 C36 1_555 1_555
C37 C36 1_555 1_555
H23 C37 1_555 1_555
H24 C37 1_555 1_555
C38 C37 1_555 1_555
C39 C38 1_555 1_555
H25 C39 1_555 1_555
C40 N6 1_555 1_555
H26 C40 1_555 1_555
C41 N6 1_555 1_555
H27 C41 1_555 1_555
C42 C38 1_555 1_555
H28 C42 1_555 1_555
Cd1B O13 1_555 1_555
Cd2B O3 1_555 1_555
Cd2B_2 O14 1_555 1_555
Cd2C N5 1_555 1_555
Cd3B O6 1_555 1_555
Cd3B_2 O12 1_555 1_555
Cd3A N3 1_555 1_555
O3B Cd2 1_555 1_555
O5B Cd2 1_555 1_555
O6B Cd3 1_555 1_555
O12B Cd3 1_555 1_555
O13B Cd1 1_555 1_555
O14B Cd2 1_555 1_555
N3A Cd3 1_555 1_555
N5C Cd2 1_555 1_555
Cd3 O9 1_555 1_555
O5 Cd2B 1_555 1_555
O10 C10 1_555 1_555
C6 C7 1_555 1_555
C7 C8 1_555 1_555
C12 C17 1_555 1_555
C15 C16 1_555 1_555
C22 C23 1_555 1_555
C27 C28 1_555 1_555
C29 C30 1_555 1_555
C34 C35 1_555 1_555
C39 C40 1_555 1_555
C41 C42 1_555 1_555
Cd2B O3B 1_555 1_555

#END
