
#######################################################################
#
#                 Cambridge Crystallographic Data Centre
#                                CCDC 
#
#######################################################################
#
# If this CIF has been generated from an entry in the Cambridge 
# Structural Database, then it will include bibliographic, chemical, 
# crystal, experimental, refinement or atomic coordinate data resulting 
# from the CCDC's data processing and validation procedures.
#
#######################################################################

data_MUZYUB
_symmetry_cell_setting           monoclinic
_symmetry_space_group_name_H-M   'P 21/n'
_symmetry_Int_Tables_number      14
_space_group_name_Hall           '-P 2yn'
loop_
_symmetry_equiv_pos_site_id
_symmetry_equiv_pos_as_xyz
1 x,y,z
2 1/2-x,1/2+y,1/2-z
3 -x,-y,-z
4 1/2+x,1/2-y,1/2+z
_cell_length_a                   12.988(5)
_cell_length_b                   5.3250(19)
_cell_length_c                   14.600(5)
_cell_angle_alpha                90
_cell_angle_beta                 113.884(4)
_cell_angle_gamma                90
_cell_volume                     923.284
loop_
_atom_site_label
_atom_site_type_symbol
_atom_site_fract_x
_atom_site_fract_y
_atom_site_fract_z
Ag1 Ag 0.877927(16) -0.29225(3) 0.476629(13)
N1 N 0.93928(16) -0.3245(3) 0.35094(14)
N2 N 1.01118(16) -0.5058(4) 0.35828(14)
N3 N 1.04242(15) -0.4726(3) 0.28001(14)
C1 C 1.1165(2) -0.6241(4) 0.25984(18)
H1 H 1.1513 -0.7640 0.3011
C2 C 1.1379(2) -0.5665(4) 0.17901(18)
H2 H 1.1885 -0.6681 0.1631
C3 C 1.0858(2) -0.3558(5) 0.11729(18)
H3 H 1.1028 -0.3171 0.0614
C4 C 1.0119(2) -0.2097(4) 0.13801(18)
H4 H 0.9762 -0.0704 0.0967
C5 C 0.98956(19) -0.2703(4) 0.22251(17)
C6 C 0.92310(19) -0.1763(4) 0.27064(17)
C7 C 0.8467(2) 0.0380(4) 0.24500(18)
H5 H 0.8008 0.0623 0.2810
O1 O 0.83935(15) 0.1871(3) 0.17947(13)
N4 N 0.78659(17) 0.1970(3) 0.50850(15)
O2 O 0.78755(17) -0.0153(3) 0.54703(14)
O3 O 0.74215(15) 0.3782(3) 0.53199(13)
O4 O 0.83246(19) 0.2203(3) 0.44827(15)
N2B N 0.98882(16) -0.4942(4) 0.64172(14)
O4_2 O 0.83246(19) -0.7797(3) 0.44827(15)
Ag1B Ag 1.122073(16) -0.70775(3) 0.523371(13)
Ag1_2 Ag 0.877927(16) 0.70775(3) 0.476629(13)
loop_
_geom_bond_atom_site_label_1
_geom_bond_atom_site_label_2
_geom_bond_site_symmetry_1
_geom_bond_site_symmetry_2
Ag1 N1 1_555 1_555
N1 N2 1_555 1_555
N2 N3 1_555 1_555
N3 C1 1_555 1_555
C1 H1 1_555 1_555
C2 C1 1_555 1_555
H2 C2 1_555 1_555
C3 C2 1_555 1_555
H3 C3 1_555 1_555
C4 C3 1_555 1_555
H4 C4 1_555 1_555
C5 N3 1_555 1_555
C6 N1 1_555 1_555
C7 C6 1_555 1_555
H5 C7 1_555 1_555
O1 C7 1_555 1_555
N4 O2 1_555 1_555
O2 Ag1 1_555 1_555
O3 N4 1_555 1_555
O4 N4 1_555 1_555
N2B Ag1 1_555 1_555
O4_2 Ag1 1_555 1_555
Ag1B N2 1_555 1_555
Ag1_2 O4 1_555 1_555
C4 C5 1_555 1_555
C5 C6 1_555 1_555

#END
