
#######################################################################
#
#                 Cambridge Crystallographic Data Centre
#                                CCDC 
#
#######################################################################
#
# If this CIF has been generated from an entry in the Cambridge 
# Structural Database, then it will include bibliographic, chemical, 
# crystal, experimental, refinement or atomic coordinate data resulting 
# from the CCDC's data processing and validation procedures.
#
#######################################################################

data_MXAGCO
_symmetry_cell_setting           orthorhombic
_symmetry_space_group_name_H-M   'P 21 2 21'
_symmetry_Int_Tables_number      18
_space_group_name_Hall           'P 2ac 2ac'
loop_
_symmetry_equiv_pos_site_id
_symmetry_equiv_pos_as_xyz
1 x,y,z
2 1/2-x,-y,1/2+z
3 1/2+x,-y,1/2-z
4 -x,y,-z
_cell_length_a                   16.594(8)
_cell_length_b                   8.861(5)
_cell_length_c                   5.795(3)
_cell_angle_alpha                90
_cell_angle_beta                 90
_cell_angle_gamma                90
_cell_volume                     852.094
loop_
_atom_site_label
_atom_site_type_symbol
_atom_site_fract_x
_atom_site_fract_y
_atom_site_fract_z
Ag1 Ag 0.00000 0.02740 0.00000
Cl1 Cl 0.00000 -0.01910 0.50000
C1 C 0.13140 0.53780 0.04880
C2 C 0.13160 0.69910 0.15670
C3 C 0.17760 0.42300 0.15840
C4 C 0.17740 0.27820 0.05390
C5 C 0.22520 0.15450 0.16910
C6 C 0.13440 0.25120 -0.16100
C7 C 0.09430 0.37020 -0.26100
C8 C 0.09020 0.51480 -0.16710
O1 O 0.04750 0.07750 0.35700
O2 O -0.05490 -0.11190 0.37060
C6C C -0.13440 0.25120 0.16100
O1C O -0.04750 0.07750 -0.35700
O2C O 0.05490 -0.11190 -0.37060
O1C_2 O -0.04750 0.07750 0.64300
O2C_2 O 0.05490 -0.11190 0.62940
C4C C -0.17740 0.27820 -0.05390
C7C C -0.09430 0.37020 0.26100
Ag1_2 Ag 0.00000 0.02740 1.00000
C3C C -0.17760 0.42300 -0.15840
C5C C -0.22520 0.15450 -0.16910
C8C C -0.09020 0.51480 0.16710
C1C C -0.13140 0.53780 -0.04880
C2C C -0.13160 0.69910 -0.15670
loop_
_geom_bond_atom_site_label_1
_geom_bond_atom_site_label_2
_geom_bond_site_symmetry_1
_geom_bond_site_symmetry_2
Ag1 C6 1_555 1_555
Cl1 O1 1_555 1_555
C1 C2 1_555 1_555
C3 C1 1_555 1_555
C4 C3 1_555 1_555
C5 C4 1_555 1_555
C6 C4 1_555 1_555
C7 C6 1_555 1_555
C8 C1 1_555 1_555
O1 Ag1 1_555 1_555
O2 Ag1 1_555 1_555
C6C Ag1 1_555 1_555
O1C Ag1 1_555 1_555
O2C Ag1 1_555 1_555
O1C_2 Cl1 1_555 1_555
O2C_2 Cl1 1_555 1_555
C4C C6C 1_555 1_555
C7C C6C 1_555 1_555
Ag1_2 O1C_2 1_555 1_555
C3C C4C 1_555 1_555
C5C C4C 1_555 1_555
C8C C7C 1_555 1_555
C1C C3C 1_555 1_555
C2C C1C 1_555 1_555
Cl1 O2 1_555 1_555
C7 C8 1_555 1_555
O2C_2 Ag1_2 1_555 1_555
C8C C1C 1_555 1_555

#END
