
#######################################################################
#
#                 Cambridge Crystallographic Data Centre
#                                CCDC 
#
#######################################################################
#
# If this CIF has been generated from an entry in the Cambridge 
# Structural Database, then it will include bibliographic, chemical, 
# crystal, experimental, refinement or atomic coordinate data resulting 
# from the CCDC's data processing and validation procedures.
#
#######################################################################

data_NABFON
_symmetry_cell_setting           orthorhombic
_symmetry_space_group_name_H-M   'P b c a'
_symmetry_Int_Tables_number      61
_space_group_name_Hall           '-P 2ac 2ab'
loop_
_symmetry_equiv_pos_site_id
_symmetry_equiv_pos_as_xyz
1 x,y,z
2 1/2-x,-y,1/2+z
3 1/2+x,1/2-y,-z
4 -x,1/2+y,1/2-z
5 -x,-y,-z
6 1/2+x,y,1/2-z
7 1/2-x,1/2+y,z
8 x,1/2-y,1/2+z
_cell_length_a                   10.7548(6)
_cell_length_b                   17.3688(13)
_cell_length_c                   23.2210(17)
_cell_angle_alpha                90
_cell_angle_beta                 90
_cell_angle_gamma                90
_cell_volume                     4337.64
loop_
_atom_site_label
_atom_site_type_symbol
_atom_site_fract_x
_atom_site_fract_y
_atom_site_fract_z
Cu1 Cu -0.01138(3) 0.21903(3) 0.104663(18)
Cl1 Cl -0.13851(7) 0.11831(5) 0.06813(4)
S1 S 0.07727(8) 0.27929(6) 0.02196(4)
S2 S 0.37460(8) 0.18411(6) -0.14461(4)
P1 P 0.14918(8) 0.16800(6) 0.15231(4)
N1 N 0.2108(2) 0.22009(17) -0.06319(11)
H1 H 0.2462 0.2617 -0.0620
N2 N 0.0559(3) 0.14170(17) -0.02865(12)
H2 H -0.0054 0.1342 -0.0056
C1 C 0.1152(3) 0.2106(2) -0.02504(14)
C2 C 0.2515(3) 0.1662(2) -0.10236(14)
C3 C 0.1841(3) 0.0963(2) -0.10363(15)
H3 H 0.2046 0.0574 -0.1316
C4 C 0.0895(3) 0.0855(2) -0.06697(15)
H4 H 0.0442 0.0396 -0.0655
C5 C 0.1102(3) 0.1148(2) 0.21783(14)
C6 C 0.1822(3) 0.1164(2) 0.26781(14)
H5 H 0.2589 0.1486 0.2707
C7 C 0.1462(3) 0.0748(2) 0.31635(15)
H6 H 0.1990 0.0791 0.3522
C8 C 0.0381(3) 0.0304(2) 0.31452(16)
H7 H 0.0160 0.0030 0.3489
C9 C -0.0353(3) 0.0296(2) 0.26573(15)
H8 H -0.1162 0.0033 0.2666
C10 C -0.0001(3) 0.0716(2) 0.21787(14)
H9 H -0.0545 0.0716 0.1846
C11 C 0.2697(3) 0.2358(2) 0.17384(14)
C12 C 0.3962(3) 0.2182(2) 0.17398(15)
H10 H 0.4198 0.1708 0.1635
C13 C 0.4834(3) 0.2729(2) 0.19047(15)
H11 H 0.5608 0.2666 0.1879
C14 C 0.4454(3) 0.3447(2) 0.20798(14)
H12 H 0.5034 0.3832 0.2198
C15 C 0.3202(3) 0.3623(2) 0.20926(14)
H13 H 0.2956 0.4086 0.2209
C16 C 0.2328(3) 0.3093(2) 0.19149(14)
H14 H 0.1423 0.3244 0.1888
C17 C 0.2290(3) 0.0973(2) 0.10701(15)
C18 C 0.2053(3) 0.0189(2) 0.11210(15)
H15 H 0.1548 0.0030 0.1426
C19 C 0.2555(3) -0.0334(2) 0.07307(15)
H16 H 0.2409 -0.0860 0.0806
C20 C 0.3301(3) -0.0083(2) 0.02900(15)
H17 H 0.3621 -0.0454 0.0018
C21 C 0.3555(3) 0.0696(2) 0.02382(15)
H18 H 0.4045 0.0866 -0.0037
C22 C 0.3061(3) 0.1219(2) 0.06208(15)
H19 H 0.3239 0.1758 0.0582
Cu1B Cu 0.48862(3) 0.28097(3) -0.104663(18)
S2B S -0.12540(8) 0.31589(6) 0.14461(4)
loop_
_geom_bond_atom_site_label_1
_geom_bond_atom_site_label_2
_geom_bond_site_symmetry_1
_geom_bond_site_symmetry_2
Cu1 Cl1 1_555 1_555
S1 Cu1 1_555 1_555
S2 C2 1_555 1_555
P1 Cu1 1_555 1_555
N1 H1 1_555 1_555
N2 H2 1_555 1_555
C1 S1 1_555 1_555
C2 N1 1_555 1_555
C3 C2 1_555 1_555
H3 C3 1_555 1_555
C4 N2 1_555 1_555
H4 C4 1_555 1_555
C5 P1 1_555 1_555
C6 C5 1_555 1_555
H5 C6 1_555 1_555
C7 C6 1_555 1_555
H6 C7 1_555 1_555
C8 C7 1_555 1_555
H7 C8 1_555 1_555
C9 C8 1_555 1_555
H8 C9 1_555 1_555
C10 C5 1_555 1_555
H9 C10 1_555 1_555
C11 P1 1_555 1_555
C12 C11 1_555 1_555
H10 C12 1_555 1_555
C13 C12 1_555 1_555
H11 C13 1_555 1_555
C14 C13 1_555 1_555
H12 C14 1_555 1_555
C15 C14 1_555 1_555
H13 C15 1_555 1_555
C16 C11 1_555 1_555
H14 C16 1_555 1_555
C17 P1 1_555 1_555
C18 C17 1_555 1_555
H15 C18 1_555 1_555
C19 C18 1_555 1_555
H16 C19 1_555 1_555
C20 C19 1_555 1_555
H17 C20 1_555 1_555
C21 C20 1_555 1_555
H18 C21 1_555 1_555
C22 C17 1_555 1_555
H19 C22 1_555 1_555
Cu1B S2 1_555 1_555
S2B Cu1 1_555 1_555
N1 C1 1_555 1_555
N2 C1 1_555 1_555
C3 C4 1_555 1_555
C9 C10 1_555 1_555
C15 C16 1_555 1_555
C21 C22 1_555 1_555

#END
