
#######################################################################
#
#                 Cambridge Crystallographic Data Centre
#                                CCDC 
#
#######################################################################
#
# If this CIF has been generated from an entry in the Cambridge 
# Structural Database, then it will include bibliographic, chemical, 
# crystal, experimental, refinement or atomic coordinate data resulting 
# from the CCDC's data processing and validation procedures.
#
#######################################################################

data_NABFUT
_symmetry_cell_setting           orthorhombic
_symmetry_space_group_name_H-M   'P b c a'
_symmetry_Int_Tables_number      61
_space_group_name_Hall           '-P 2ac 2ab'
loop_
_symmetry_equiv_pos_site_id
_symmetry_equiv_pos_as_xyz
1 x,y,z
2 1/2-x,-y,1/2+z
3 1/2+x,1/2-y,-z
4 -x,1/2+y,1/2-z
5 -x,-y,-z
6 1/2+x,y,1/2-z
7 1/2-x,1/2+y,z
8 x,1/2-y,1/2+z
_cell_length_a                   10.8277(4)
_cell_length_b                   17.5459(5)
_cell_length_c                   23.4511(6)
_cell_angle_alpha                90
_cell_angle_beta                 90
_cell_angle_gamma                90
_cell_volume                     4455.28
loop_
_atom_site_label
_atom_site_type_symbol
_atom_site_fract_x
_atom_site_fract_y
_atom_site_fract_z
Cu1 Cu 0.49016(3) 0.282099(17) 0.103078(14)
Br1 Br 0.35711(2) 0.388363(14) 0.067209(11)
S1 S 0.57789(6) 0.22250(4) 0.02116(3)
S2 S 0.87800(6) 0.31432(4) -0.14282(3)
P1 P 0.64787(6) 0.33309(4) 0.15175(3)
N1 N 0.71261(19) 0.27971(12) -0.06310(9)
H1 H 0.7489 0.2391 -0.0614
N2 N 0.5546(2) 0.35617(12) -0.03254(10)
H2 H 0.4989 0.3652 -0.0093
C1 C 0.6158(2) 0.28936(14) -0.02675(11)
C2 C 0.7537(2) 0.33163(15) -0.10265(11)
C3 C 0.6843(2) 0.39995(15) -0.10635(12)
H3 H 0.7047 0.4358 -0.1316
C4 C 0.5879(2) 0.41066(15) -0.07111(12)
H4 H 0.5415 0.4541 -0.0705
C5 C 0.6067(2) 0.38603(14) 0.21620(11)
C6 C 0.4974(2) 0.42841(14) 0.21540(12)
H5 H 0.4479 0.4282 0.1830
C7 C 0.4623(2) 0.47096(15) 0.26277(12)
H6 H 0.3898 0.4994 0.2618
C8 C 0.5346(2) 0.47121(15) 0.31113(12)
H7 H 0.5116 0.5003 0.3425
C9 C 0.6413(2) 0.42802(16) 0.31284(12)
H8 H 0.6889 0.4273 0.3458
C10 C 0.6779(2) 0.38577(15) 0.26576(11)
H9 H 0.7502 0.3572 0.2672
C11 C 0.7677(2) 0.26614(14) 0.17410(11)
C12 C 0.7299(2) 0.19376(14) 0.19160(11)
H10 H 0.6465 0.1811 0.1909
C13 C 0.8164(3) 0.14047(16) 0.21005(12)
H11 H 0.7906 0.0930 0.2230
C14 C 0.9406(3) 0.15834(15) 0.20906(11)
H12 H 0.9985 0.1222 0.2203
C15 C 0.9794(2) 0.22963(15) 0.19136(12)
H13 H 1.0631 0.2415 0.1907
C16 C 0.8929(2) 0.28347(15) 0.17452(12)
H14 H 0.9189 0.3318 0.1635
C17 C 0.7296(2) 0.40314(14) 0.10774(11)
C18 C 0.8024(2) 0.37780(15) 0.06247(11)
H15 H 0.8151 0.3258 0.0573
C19 C 0.8556(2) 0.42933(15) 0.02514(12)
H16 H 0.9049 0.4119 -0.0046
C20 C 0.8357(2) 0.50695(16) 0.03198(12)
H17 H 0.8707 0.5415 0.0066
C21 C 0.7639(3) 0.53260(15) 0.07666(12)
H18 H 0.7508 0.5846 0.0815
C22 C 0.7111(2) 0.48095(15) 0.11430(12)
H19 H 0.6628 0.4986 0.1443
Cu1B Cu 0.99016(3) 0.217901(17) -0.103078(14)
S2B S 0.37800(6) 0.18568(4) 0.14282(3)
loop_
_geom_bond_atom_site_label_1
_geom_bond_atom_site_label_2
_geom_bond_site_symmetry_1
_geom_bond_site_symmetry_2
Cu1 Br1 1_555 1_555
S1 Cu1 1_555 1_555
S2 C2 1_555 1_555
P1 Cu1 1_555 1_555
N1 H1 1_555 1_555
N2 H2 1_555 1_555
C1 S1 1_555 1_555
C2 N1 1_555 1_555
C3 C2 1_555 1_555
H3 C3 1_555 1_555
C4 N2 1_555 1_555
H4 C4 1_555 1_555
C5 P1 1_555 1_555
C6 C5 1_555 1_555
H5 C6 1_555 1_555
C7 C6 1_555 1_555
H6 C7 1_555 1_555
C8 C7 1_555 1_555
H7 C8 1_555 1_555
C9 C8 1_555 1_555
H8 C9 1_555 1_555
C10 C5 1_555 1_555
H9 C10 1_555 1_555
C11 P1 1_555 1_555
C12 C11 1_555 1_555
H10 C12 1_555 1_555
C13 C12 1_555 1_555
H11 C13 1_555 1_555
C14 C13 1_555 1_555
H12 C14 1_555 1_555
C15 C14 1_555 1_555
H13 C15 1_555 1_555
C16 C11 1_555 1_555
H14 C16 1_555 1_555
C17 P1 1_555 1_555
C18 C17 1_555 1_555
H15 C18 1_555 1_555
C19 C18 1_555 1_555
H16 C19 1_555 1_555
C20 C19 1_555 1_555
H17 C20 1_555 1_555
C21 C20 1_555 1_555
H18 C21 1_555 1_555
C22 C17 1_555 1_555
H19 C22 1_555 1_555
Cu1B S2 1_555 1_555
S2B Cu1 1_555 1_555
N1 C1 1_555 1_555
N2 C1 1_555 1_555
C3 C4 1_555 1_555
C9 C10 1_555 1_555
C15 C16 1_555 1_555
C21 C22 1_555 1_555

#END
