
#######################################################################
#
#                 Cambridge Crystallographic Data Centre
#                                CCDC 
#
#######################################################################
#
# If this CIF has been generated from an entry in the Cambridge 
# Structural Database, then it will include bibliographic, chemical, 
# crystal, experimental, refinement or atomic coordinate data resulting 
# from the CCDC's data processing and validation procedures.
#
#######################################################################

data_NABGUU
_symmetry_cell_setting           triclinic
_symmetry_space_group_name_H-M   'P -1'
_symmetry_Int_Tables_number      2
_space_group_name_Hall           '-P 1'
loop_
_symmetry_equiv_pos_site_id
_symmetry_equiv_pos_as_xyz
1 x,y,z
2 -x,-y,-z
_cell_length_a                   8.157(3)
_cell_length_b                   9.014(4)
_cell_length_c                   13.874(6)
_cell_angle_alpha                79.346(5)
_cell_angle_beta                 84.570(5)
_cell_angle_gamma                80.301(5)
_cell_volume                     986.077
loop_
_atom_site_label
_atom_site_type_symbol
_atom_site_fract_x
_atom_site_fract_y
_atom_site_fract_z
Mn1 Mn 0.0000 0.5000 0.5000
Mo1 Mo 0.34755(4) 0.17792(4) 0.57673(2)
Mo2 Mo 0.19368(4) 0.88110(4) -0.54906(2)
C1 C 0.1826(5) 0.7895(5) -0.2954(3)
H1 H 0.1099 0.8813 -0.2983
C2 C 0.2101(6) 0.6986(5) -0.2037(3)
H2 H 0.1556 0.7294 -0.1471
C3 C 0.3190(5) 0.5623(5) -0.1976(3)
C4 C 0.3979(6) 0.5203(5) -0.2857(3)
H3 H 0.4732 0.4303 -0.2848
C5 C 0.3607(6) 0.6160(5) -0.3732(3)
H4 H 0.4103 0.5863 -0.4313
C6 C 0.3571(5) 0.4588(5) -0.1027(3)
C7 C 0.3105(5) 0.3956(5) 0.0613(3)
C8 C 0.5113(5) 0.2512(5) -0.0195(3)
C9 C 0.2188(5) 0.4231(5) 0.1569(3)
C10 C 0.1159(6) 0.5598(5) 0.1675(3)
H5 H 0.0940 0.6370 0.1137
C11 C 0.0467(6) 0.5770(5) 0.2616(3)
H6 H -0.0177 0.6700 0.2695
C12 C 0.1601(6) 0.3338(5) 0.3280(3)
H7 H 0.1710 0.2546 0.3816
C13 C 0.2399(6) 0.3083(5) 0.2388(3)
H8 H 0.3069 0.2154 0.2336
C14 C 0.6468(5) 0.1181(5) -0.0171(3)
C15 C 0.6902(6) 0.0226(5) 0.0705(3)
H9 H 0.6366 0.0426 0.1300
C16 C 0.8127(6) -0.1012(5) 0.0683(3)
H10 H 0.8394 -0.1635 0.1278
N1 N 0.8975(5) -0.1392(5) -0.0144(3)
C17 C 0.8545(6) -0.0458(5) -0.0977(3)
H11 H 0.9117 -0.0681 -0.1558
C18 C 0.7319(6) 0.0814(5) -0.1046(3)
H12 H 0.7067 0.1408 -0.1652
N2 N 0.2566(4) 0.7503(4) -0.3796(2)
N3 N 0.2677(5) 0.4942(4) -0.0207(2)
N4 N 0.4305(4) 0.2751(4) 0.0670(2)
N5 N 0.4776(5) 0.3401(4) -0.1058(2)
N6 N 0.0675(4) 0.4676(4) 0.3411(2)
O1 O 0.3092(4) 0.0476(3) 0.5013(2)
O2 O 0.2880(5) 0.1135(4) 0.6956(2)
O3 O 0.5649(3) 0.2068(3) 0.5654(2)
O4 O 0.0000 1.0000 -0.5000
O5 O 0.1859(4) 0.9636(4) -0.6690(2)
O6 O 0.1141(3) 0.7130(3) 0.4559(2)
O7 O 0.2280(4) 0.3560(3) 0.5399(2)
Mo1A Mo -0.34755(4) 0.82208(4) 0.42327(2)
Mo1_2 Mo 0.34755(4) 1.17792(4) -0.42327(2)
Mo1A_2 Mo 0.65245(4) 0.82208(4) -0.57673(2)
Mo2A Mo -0.19368(4) 0.11890(4) 1.54906(2)
Mo2_2 Mo 0.19368(4) -0.11890(4) 0.45094(2)
Mo2A_2 Mo 0.80632(4) 0.11890(4) 0.54906(2)
Mo2A_3 Mo -0.19368(4) 1.11890(4) -0.45094(2)
Mo2_3 Mo 0.19368(4) 0.88110(4) 0.45094(2)
Mo2A_4 Mo -0.19368(4) 0.11890(4) 0.54906(2)
C1A C -0.1826(5) 0.2105(5) 1.2954(3)
H1A H -0.1099 0.1187 1.2983
C2A C -0.2101(6) 0.3014(5) 1.2037(3)
H2A H -0.1556 0.2706 1.1471
C3A C -0.3190(5) 0.4377(5) 1.1976(3)
C4A C -0.3979(6) 0.4797(5) 1.2857(3)
H3A H -0.4732 0.5697 1.2848
C5A C -0.3607(6) 0.3840(5) 1.3732(3)
H4A H -0.4103 0.4137 1.4313
C6A C -0.3571(5) 0.5412(5) 1.1027(3)
C7A C -0.3105(5) 0.6044(5) 0.9387(3)
C8A C -0.5113(5) 0.7488(5) 1.0195(3)
C9A C -0.2188(5) 0.5769(5) 0.8431(3)
C10A C -0.1159(6) 0.4402(5) 0.8325(3)
H5A H -0.0940 0.3630 0.8863
C11A C -0.0467(6) 0.4230(5) 0.7384(3)
H6A H 0.0177 0.3300 0.7305
C12A C -0.1601(6) 0.6662(5) 0.6720(3)
H7A H -0.1710 0.7454 0.6184
C13A C -0.2399(6) 0.6917(5) 0.7612(3)
H8A H -0.3069 0.7846 0.7664
C14A C -0.6468(5) 0.8819(5) 1.0171(3)
C15A C -0.6902(6) 0.9774(5) 0.9295(3)
H9A H -0.6366 0.9574 0.8700
C16A C -0.8127(6) 1.1012(5) 0.9317(3)
H10A H -0.8394 1.1635 0.8722
N1A N -0.8975(5) 1.1392(5) 1.0144(3)
C17A C -0.8545(6) 1.0458(5) 1.0977(3)
H11A H -0.9117 1.0681 1.1558
C18A C -0.7319(6) 0.9186(5) 1.1046(3)
H12A H -0.7067 0.8592 1.1652
N2A N -0.2566(4) 0.2497(4) 1.3796(2)
N3A N -0.2677(5) 0.5058(4) 1.0207(2)
N4A N -0.4305(4) 0.7249(4) 0.9330(2)
N5A N -0.4776(5) 0.6599(4) 1.1058(2)
N6A N -0.0675(4) 0.5324(4) 0.6589(2)
O1_2 O 0.3092(4) 1.0476(3) -0.4987(2)
O1A O -0.3092(4) 0.9524(3) 0.4987(2)
O1A_2 O -0.3092(4) -0.0476(3) 1.4987(2)
O2A O -0.2880(5) 0.8865(4) 0.3044(2)
O3A O 0.4351(3) 0.7932(3) -0.5654(2)
O3A_2 O -0.5649(3) 0.7932(3) 0.4346(2)
O3_2 O -0.4351(3) 0.2068(3) 1.5654(2)
O4_2 O 0.0000 0.0000 1.5000
O5A O -0.1859(4) 0.0364(4) 1.6690(2)
O6A O -0.1141(3) 0.2870(3) 0.5441(2)
O6_2 O 0.1141(3) 0.7130(3) -0.5441(2)
O6A_2 O -0.1141(3) 0.2870(3) 1.5441(2)
O7A O -0.2280(4) 0.6440(3) 0.4601(2)
loop_
_geom_bond_atom_site_label_1
_geom_bond_atom_site_label_2
_geom_bond_site_symmetry_1
_geom_bond_site_symmetry_2
Mn1 N6 1_555 1_555
Mo1 O1 1_555 1_555
Mo2 N2 1_555 1_555
C1 H1 1_555 1_555
C2 C1 1_555 1_555
H2 C2 1_555 1_555
C3 C2 1_555 1_555
C4 C3 1_555 1_555
H3 C4 1_555 1_555
C5 C4 1_555 1_555
H4 C5 1_555 1_555
C6 C3 1_555 1_555
C7 C9 1_555 1_555
C8 C14 1_555 1_555
C9 C10 1_555 1_555
C10 H5 1_555 1_555
C11 C10 1_555 1_555
H6 C11 1_555 1_555
C12 H7 1_555 1_555
C13 C9 1_555 1_555
H8 C13 1_555 1_555
C14 C15 1_555 1_555
C15 H9 1_555 1_555
C16 C15 1_555 1_555
H10 C16 1_555 1_555
N1 C16 1_555 1_555
C17 N1 1_555 1_555
H11 C17 1_555 1_555
C18 C14 1_555 1_555
H12 C18 1_555 1_555
N2 C1 1_555 1_555
N3 C6 1_555 1_555
N4 C7 1_555 1_555
N5 C6 1_555 1_555
N6 C11 1_555 1_555
O1 Mo2_2 1_555 1_555
O2 Mo1 1_555 1_555
O3 Mo1 1_555 1_555
O4 Mo2 1_555 1_555
O5 Mo2 1_555 1_555
O6 Mn1 1_555 1_555
O7 Mn1 1_555 1_555
Mo1A O1A 1_555 1_555
Mo1_2 O1_2 1_555 1_555
Mo1A_2 O3A 1_555 1_555
Mo2A N2A 1_555 1_555
Mo2A_2 O3 1_555 1_555
Mo2A_3 O4 1_555 1_555
Mo2_3 O6 1_555 1_555
Mo2A_4 O6A 1_555 1_555
C1A H1A 1_555 1_555
C2A C1A 1_555 1_555
H2A C2A 1_555 1_555
C3A C2A 1_555 1_555
C4A C3A 1_555 1_555
H3A C4A 1_555 1_555
C5A C4A 1_555 1_555
H4A C5A 1_555 1_555
C6A C3A 1_555 1_555
C7A C9A 1_555 1_555
C8A C14A 1_555 1_555
C9A C10A 1_555 1_555
C10A H5A 1_555 1_555
C11A C10A 1_555 1_555
H6A C11A 1_555 1_555
C12A H7A 1_555 1_555
C13A C9A 1_555 1_555
H8A C13A 1_555 1_555
C14A C15A 1_555 1_555
C15A H9A 1_555 1_555
C16A C15A 1_555 1_555
H10A C16A 1_555 1_555
N1A C16A 1_555 1_555
C17A N1A 1_555 1_555
H11A C17A 1_555 1_555
C18A C14A 1_555 1_555
H12A C18A 1_555 1_555
N2A C1A 1_555 1_555
N3A C6A 1_555 1_555
N4A C7A 1_555 1_555
N5A C6A 1_555 1_555
N6A Mn1 1_555 1_555
O1_2 Mo2 1_555 1_555
O1A_2 Mo2A 1_555 1_555
O2A Mo1A 1_555 1_555
O3A Mo2 1_555 1_555
O3A_2 Mo1A 1_555 1_555
O3_2 Mo2A 1_555 1_555
O4_2 Mo2A 1_555 1_555
O5A Mo2A 1_555 1_555
O6A Mn1 1_555 1_555
O6_2 Mo2 1_555 1_555
O6A_2 Mo2A 1_555 1_555
O7A Mn1 1_555 1_555
Mo1 O7 1_555 1_555
C5 N2 1_555 1_555
C7 N3 1_555 1_555
C8 N4 1_555 1_555
C8 N5 1_555 1_555
C12 C13 1_555 1_555
C12 N6 1_555 1_555
C17 C18 1_555 1_555
Mo1A O7A 1_555 1_555
C5A N2A 1_555 1_555
C7A N3A 1_555 1_555
C8A N4A 1_555 1_555
C8A N5A 1_555 1_555
C11A N6A 1_555 1_555
C12A C13A 1_555 1_555
C12A N6A 1_555 1_555
C17A C18A 1_555 1_555

#END
