
#######################################################################
#
#                 Cambridge Crystallographic Data Centre
#                                CCDC 
#
#######################################################################
#
# If this CIF has been generated from an entry in the Cambridge 
# Structural Database, then it will include bibliographic, chemical, 
# crystal, experimental, refinement or atomic coordinate data resulting 
# from the CCDC's data processing and validation procedures.
#
#######################################################################

data_NABGAA
_symmetry_cell_setting           orthorhombic
_symmetry_space_group_name_H-M   'P b c a'
_symmetry_Int_Tables_number      61
_space_group_name_Hall           '-P 2ac 2ab'
loop_
_symmetry_equiv_pos_site_id
_symmetry_equiv_pos_as_xyz
1 x,y,z
2 1/2-x,-y,1/2+z
3 1/2+x,1/2-y,-z
4 -x,1/2+y,1/2-z
5 -x,-y,-z
6 1/2+x,y,1/2-z
7 1/2-x,1/2+y,z
8 x,1/2-y,1/2+z
_cell_length_a                   14.321(3)
_cell_length_b                   11.230(2)
_cell_length_c                   33.452(6)
_cell_angle_alpha                90
_cell_angle_beta                 90
_cell_angle_gamma                90
_cell_volume                     5379.91
loop_
_atom_site_label
_atom_site_type_symbol
_atom_site_fract_x
_atom_site_fract_y
_atom_site_fract_z
Cu1 Cu 0.49293(5) 0.37053(6) 0.16850(2)
I1 I 0.35635(3) 0.22899(4) 0.189259(12)
S1 S 0.50827(10) 0.54145(14) 0.20774(5)
S2 S 0.35915(11) 0.78593(15) 0.32605(5)
P1 P 0.49099(10) 0.42028(14) 0.10297(4)
N1 N 0.4210(3) 0.6440(4) 0.26849(14)
H1 H 0.4748 0.6800 0.2724
N2 N 0.3376(3) 0.4998(4) 0.23657(15)
H2 H 0.3329 0.4427 0.2187
C1 C 0.4181(4) 0.5617(5) 0.23863(17)
C2 C 0.3493(4) 0.6764(5) 0.29310(17)
C3 C 0.2660(4) 0.6073(5) 0.28873(18)
H3 H 0.2135 0.6220 0.3054
C4 C 0.2630(4) 0.5216(6) 0.26100(19)
H4 H 0.2080 0.4750 0.2582
C5 C 0.3819(4) 0.4726(5) 0.08125(17)
C6 C 0.3290(4) 0.5542(6) 0.10274(18)
H5 H 0.3459 0.5731 0.1288
C7 C 0.2518(4) 0.6082(6) 0.08571(19)
H6 H 0.2168 0.6624 0.1004
C8 C 0.2263(4) 0.5809(6) 0.0469(2)
H7 H 0.1754 0.6188 0.0353
C9 C 0.2766(4) 0.4975(6) 0.02561(19)
H8 H 0.2585 0.4780 -0.0003
C10 C 0.3542(4) 0.4433(6) 0.04261(18)
H9 H 0.3876 0.3869 0.0282
C11 C 0.5269(4) 0.2981(5) 0.07032(19)
C12 C 0.5710(4) 0.3169(6) 0.03394(18)
H10 H 0.5845 0.3942 0.0259
C13 C 0.5951(4) 0.2220(6) 0.00933(19)
H11 H 0.6258 0.2353 -0.0148
C14 C 0.5726(4) 0.1077(6) 0.0213(2)
H12 H 0.5877 0.0437 0.0049
C15 C 0.5278(5) 0.0871(6) 0.0575(2)
H13 H 0.5126 0.0100 0.0652
C16 C 0.5065(4) 0.1821(6) 0.08196(19)
H14 H 0.4781 0.1685 0.1066
C17 C 0.5713(4) 0.5407(5) 0.08930(16)
C18 C 0.5465(4) 0.6362(6) 0.06609(18)
H15 H 0.4860 0.6421 0.0561
C19 C 0.6128(6) 0.7249(6) 0.0575(2)
H16 H 0.5951 0.7902 0.0422
C20 C 0.7016(5) 0.7173(7) 0.0711(2)
H17 H 0.7448 0.7765 0.0652
C21 C 0.7274(5) 0.6205(7) 0.0941(2)
H18 H 0.7885 0.6138 0.1031
C22 C 0.6644(4) 0.5341(7) 0.10343(19)
H19 H 0.6824 0.4702 0.1194
Cu1C Cu 0.50707(5) 0.87053(6) 0.33150(2)
S2C S 0.64085(11) 0.28593(15) 0.17395(5)
Cl1 Cl 0.05621(15) 0.37175(17) 0.20747(6)
Cl2 Cl 0.10200(14) 0.38023(19) 0.12347(6)
Cl3 Cl -0.08936(16) 0.3947(3) 0.14975(7)
C23 C 0.0199(5) 0.3340(8) 0.1580(2)
H20 H 0.0146 0.2471 0.1563
loop_
_geom_bond_atom_site_label_1
_geom_bond_atom_site_label_2
_geom_bond_site_symmetry_1
_geom_bond_site_symmetry_2
Cu1 I1 1_555 1_555
S1 Cu1 1_555 1_555
S2 C2 1_555 1_555
P1 Cu1 1_555 1_555
N1 H1 1_555 1_555
N2 H2 1_555 1_555
C1 S1 1_555 1_555
C2 N1 1_555 1_555
C3 C2 1_555 1_555
H3 C3 1_555 1_555
C4 N2 1_555 1_555
H4 C4 1_555 1_555
C5 P1 1_555 1_555
C6 C5 1_555 1_555
H5 C6 1_555 1_555
C7 C6 1_555 1_555
H6 C7 1_555 1_555
C8 C7 1_555 1_555
H7 C8 1_555 1_555
C9 C8 1_555 1_555
H8 C9 1_555 1_555
C10 C5 1_555 1_555
H9 C10 1_555 1_555
C11 P1 1_555 1_555
C12 C11 1_555 1_555
H10 C12 1_555 1_555
C13 C12 1_555 1_555
H11 C13 1_555 1_555
C14 C13 1_555 1_555
H12 C14 1_555 1_555
C15 C14 1_555 1_555
H13 C15 1_555 1_555
C16 C11 1_555 1_555
H14 C16 1_555 1_555
C17 P1 1_555 1_555
C18 C17 1_555 1_555
H15 C18 1_555 1_555
C19 C18 1_555 1_555
H16 C19 1_555 1_555
C20 C19 1_555 1_555
H17 C20 1_555 1_555
C21 C20 1_555 1_555
H18 C21 1_555 1_555
C22 C17 1_555 1_555
H19 C22 1_555 1_555
Cl1 C23 1_555 1_555
Cl2 C23 1_555 1_555
Cl3 C23 1_555 1_555
C23 H20 1_555 1_555
Cu1C S2 1_555 1_555
S2C Cu1 1_555 1_555
N1 C1 1_555 1_555
N2 C1 1_555 1_555
C3 C4 1_555 1_555
C9 C10 1_555 1_555
C15 C16 1_555 1_555
C21 C22 1_555 1_555

#END
