
#######################################################################
#
#                 Cambridge Crystallographic Data Centre
#                                CCDC 
#
#######################################################################
#
# If this CIF has been generated from an entry in the Cambridge 
# Structural Database, then it will include bibliographic, chemical, 
# crystal, experimental, refinement or atomic coordinate data resulting 
# from the CCDC's data processing and validation procedures.
#
#######################################################################

data_NABHAB
_symmetry_cell_setting           monoclinic
_symmetry_space_group_name_H-M   'P 21/c'
_symmetry_Int_Tables_number      14
_space_group_name_Hall           '-P 2ybc'
loop_
_symmetry_equiv_pos_site_id
_symmetry_equiv_pos_as_xyz
1 x,y,z
2 -x,1/2+y,1/2-z
3 -x,-y,-z
4 x,1/2-y,1/2+z
_cell_length_a                   12.5503(9)
_cell_length_b                   14.4873(10)
_cell_length_c                   14.1533(10)
_cell_angle_alpha                90
_cell_angle_beta                 92.7110(10)
_cell_angle_gamma                90
_cell_volume                     2570.47
loop_
_atom_site_label
_atom_site_type_symbol
_atom_site_fract_x
_atom_site_fract_y
_atom_site_fract_z
Mo1 Mo -0.48820(2) -0.079700(16) -0.096560(18)
Mo2 Mo -0.292610(19) 0.079200(17) -0.011150(19)
Mo3 Mo -0.35368(2) -0.125860(17) 0.09611(2)
Mo4 Mo -0.42754(2) 0.125280(18) -0.20712(2)
C1 C -0.1443(3) -0.1082(2) -0.1407(2)
H1 H -0.1716 -0.0492 -0.1512
C2 C -0.1952(3) -0.1812(2) -0.1848(3)
H2 H -0.2574 -0.1718 -0.2219
C3 C -0.1534(3) -0.2687(2) -0.1737(2)
H3 H -0.1870 -0.3193 -0.2024
C4 C -0.0600(2) -0.2794(2) -0.1187(2)
C5 C -0.0146(2) -0.2027(2) -0.0743(2)
H4 H 0.0476 -0.2103 -0.0368
C6 C -0.0078(3) -0.3711(2) -0.1104(2)
C7 C 0.1313(3) -0.4610(2) -0.0630(2)
C8 C -0.0096(3) -0.5240(2) -0.1425(2)
C9 C -0.0671(3) -0.6057(2) -0.1809(2)
C10 C -0.1598(3) -0.5989(2) -0.2372(2)
H5 H -0.1871 -0.5413 -0.2543
C11 C -0.2114(3) -0.6781(2) -0.2675(2)
H6 H -0.2741 -0.6751 -0.3051
C12 C -0.1674(3) -0.7623(2) -0.2407(2)
H7 H -0.2018 -0.8158 -0.2618
C13 C -0.0288(3) -0.6937(2) -0.1580(2)
H8 H 0.0343 -0.6987 -0.1212
C14 C 0.2357(3) -0.4709(2) -0.0100(2)
C15 C 0.2853(3) -0.5560(2) 0.0043(3)
H9 H 0.2550 -0.6090 -0.0226
C16 C 0.3797(3) -0.5617(2) 0.0588(3)
H10 H 0.4129 -0.6184 0.0693
C17 C 0.4228(3) -0.4833(2) 0.0965(3)
H11 H 0.4860 -0.4861 0.1335
C18 C 0.2838(3) -0.3942(2) 0.0288(3)
H12 H 0.2528 -0.3364 0.0191
N1 N -0.0567(2) -0.11784(17) -0.08308(19)
N2 N 0.0884(2) -0.37629(17) -0.0659(2)
N3 N -0.0611(2) -0.44262(17) -0.14878(19)
N4 N 0.0866(2) -0.53674(17) -0.1002(2)
N5 N -0.0783(2) -0.77077(17) -0.1864(2)
N6 N 0.3747(2) -0.4018(2) 0.0806(2)
O1 O -0.45296(17) -0.03050(14) -0.20387(15)
O2 O -0.49945(18) -0.19315(14) -0.11835(17)
O3 O -0.34679(15) -0.07436(13) -0.03313(15)
O4 O -0.22269(18) -0.11710(16) 0.13318(18)
O5 O -0.3716(2) -0.23831(15) 0.06826(18)
O6 O -0.47415(15) 0.07932(13) -0.04967(14)
O7 O -0.28846(18) 0.19330(14) 0.01265(16)
O8 O -0.41474(17) 0.23898(14) -0.17584(16)
O9 O -0.39556(18) 0.11916(16) -0.32195(17)
O10 O -0.16374(16) 0.04196(15) 0.01177(16)
O11 O 0.01147(18) 0.06896(16) -0.12584(17)
H13 H 0.0743 0.0803 -0.1344
O12 O -0.29765(16) 0.08022(14) -0.14415(15)
O13 O -0.36305(15) 0.03932(13) 0.10380(14)
O14 O -0.42061(16) -0.11676(14) 0.21295(15)
Zn1 Zn 0.0000 0.0000 0.0000
H14 H -0.023(3) 0.1150(18) -0.144(3)
H15 H 0.395(3) -0.353(3) 0.107(3)
Mo1B Mo -0.51180(2) 0.079700(16) 0.096560(18)
Mo2B Mo -0.707390(19) -0.079200(17) 0.011150(19)
Mo3B Mo -0.64632(2) 0.125860(17) -0.09611(2)
Mo4B Mo -0.57246(2) -0.125280(18) 0.20712(2)
C1B C 0.1443(3) 0.1082(2) 0.1407(2)
H1B H 0.1716 0.0492 0.1512
C2B C 0.1952(3) 0.1812(2) 0.1848(3)
H2B H 0.2574 0.1718 0.2219
C3B C 0.1534(3) 0.2687(2) 0.1737(2)
H3B H 0.1870 0.3193 0.2024
C4B C 0.0600(2) 0.2794(2) 0.1187(2)
C5B C 0.0146(2) 0.2027(2) 0.0743(2)
H4B H -0.0476 0.2103 0.0368
C6B C 0.0078(3) 0.3711(2) 0.1104(2)
C7B C -0.1313(3) 0.4610(2) 0.0630(2)
C8B C 0.0096(3) 0.5240(2) 0.1425(2)
C9B C 0.0671(3) 0.6057(2) 0.1809(2)
C10B C 0.1598(3) 0.5989(2) 0.2372(2)
H5B H 0.1871 0.5413 0.2543
C11B C 0.2114(3) 0.6781(2) 0.2675(2)
H6B H 0.2741 0.6751 0.3051
C12B C 0.1674(3) 0.7623(2) 0.2407(2)
H7B H 0.2018 0.8158 0.2618
C13B C 0.0288(3) 0.6937(2) 0.1580(2)
H8B H -0.0343 0.6987 0.1212
C14B C -0.2357(3) 0.4709(2) 0.0100(2)
C15B C -0.2853(3) 0.5560(2) -0.0043(3)
H9B H -0.2550 0.6090 0.0226
C16B C -0.3797(3) 0.5617(2) -0.0588(3)
H10B H -0.4129 0.6184 -0.0693
C17B C -0.4228(3) 0.4833(2) -0.0965(3)
H11B H -0.4860 0.4861 -0.1335
C18B C -0.2838(3) 0.3942(2) -0.0288(3)
H12B H -0.2528 0.3364 -0.0191
N1B N 0.0567(2) 0.11784(17) 0.08308(19)
N2B N -0.0884(2) 0.37629(17) 0.0659(2)
N3B N 0.0611(2) 0.44262(17) 0.14878(19)
N4B N -0.0866(2) 0.53674(17) 0.1002(2)
N5B N 0.0783(2) 0.77077(17) 0.1864(2)
N6B N -0.3747(2) 0.4018(2) -0.0806(2)
O1B O -0.54704(17) 0.03050(14) 0.20387(15)
O2B O -0.50055(18) 0.19315(14) 0.11835(17)
O3B O -0.65321(15) 0.07436(13) 0.03313(15)
O4B O -0.77731(18) 0.11710(16) -0.13318(18)
O5B O -0.6284(2) 0.23831(15) -0.06826(18)
O6B O -0.52585(15) -0.07932(13) 0.04967(14)
O7B O -0.71154(18) -0.19330(14) -0.01265(16)
O8B O -0.58526(17) -0.23898(14) 0.17584(16)
O9B O -0.60444(18) -0.11916(16) 0.32195(17)
O10B O 0.16374(16) -0.04196(15) -0.01177(16)
O10B_2 O -0.83626(16) -0.04196(15) -0.01177(16)
O11B O -0.01147(18) -0.06896(16) 0.12584(17)
H13B H -0.0743 -0.0803 0.1344
O12B O -0.70235(16) -0.08022(14) 0.14415(15)
O13B O -0.63695(15) -0.03932(13) -0.10380(14)
O14B O -0.57939(16) 0.11676(14) -0.21295(15)
Zn1_2 Zn -1.0000 0.0000 0.0000
H14B H 0.023(3) -0.1150(18) 0.144(3)
H15B H -0.395(3) 0.353(3) -0.107(3)
loop_
_geom_bond_atom_site_label_1
_geom_bond_atom_site_label_2
_geom_bond_site_symmetry_1
_geom_bond_site_symmetry_2
Mo1 O1 1_555 1_555
Mo2 O3 1_555 1_555
Mo3 O3 1_555 1_555
Mo4 O1 1_555 1_555
C1 H1 1_555 1_555
C2 C1 1_555 1_555
H2 C2 1_555 1_555
C3 C2 1_555 1_555
H3 C3 1_555 1_555
C4 C3 1_555 1_555
C5 C4 1_555 1_555
H4 C5 1_555 1_555
C6 C4 1_555 1_555
C7 C14 1_555 1_555
C8 C9 1_555 1_555
C9 C10 1_555 1_555
C10 H5 1_555 1_555
C11 C10 1_555 1_555
H6 C11 1_555 1_555
C12 C11 1_555 1_555
H7 C12 1_555 1_555
C13 C9 1_555 1_555
H8 C13 1_555 1_555
C14 C15 1_555 1_555
C15 H9 1_555 1_555
C16 C15 1_555 1_555
H10 C16 1_555 1_555
C17 C16 1_555 1_555
H11 C17 1_555 1_555
C18 C14 1_555 1_555
H12 C18 1_555 1_555
N1 C1 1_555 1_555
N2 C6 1_555 1_555
N3 C6 1_555 1_555
N4 C7 1_555 1_555
N5 C12 1_555 1_555
N6 C17 1_555 1_555
O2 Mo1 1_555 1_555
O3 Mo1 1_555 1_555
O4 Mo3 1_555 1_555
O5 Mo3 1_555 1_555
O6 Mo1 1_555 1_555
O7 Mo2 1_555 1_555
O8 Mo4 1_555 1_555
O9 Mo4 1_555 1_555
O10 Mo2 1_555 1_555
O11 H13 1_555 1_555
O12 Mo2 1_555 1_555
O13 Mo2 1_555 1_555
O14 Mo3 1_555 1_555
Zn1 N1 1_555 1_555
H14 O11 1_555 1_555
H15 N6 1_555 1_555
Mo1B O6 1_555 1_555
Mo2B O3B 1_555 1_555
Mo3B O6 1_555 1_555
Mo4B O14 1_555 1_555
C1B H1B 1_555 1_555
C2B C1B 1_555 1_555
H2B C2B 1_555 1_555
C3B C2B 1_555 1_555
H3B C3B 1_555 1_555
C4B C3B 1_555 1_555
C5B C4B 1_555 1_555
H4B C5B 1_555 1_555
C6B C4B 1_555 1_555
C7B C14B 1_555 1_555
C8B C9B 1_555 1_555
C9B C10B 1_555 1_555
C10B H5B 1_555 1_555
C11B C10B 1_555 1_555
H6B C11B 1_555 1_555
C12B C11B 1_555 1_555
H7B C12B 1_555 1_555
C13B C9B 1_555 1_555
H8B C13B 1_555 1_555
C14B C15B 1_555 1_555
C15B H9B 1_555 1_555
C16B C15B 1_555 1_555
H10B C16B 1_555 1_555
C17B C16B 1_555 1_555
H11B C17B 1_555 1_555
C18B C14B 1_555 1_555
H12B C18B 1_555 1_555
N1B Zn1 1_555 1_555
N2B C6B 1_555 1_555
N3B C6B 1_555 1_555
N4B C7B 1_555 1_555
N5B C12B 1_555 1_555
N6B C17B 1_555 1_555
O1B Mo1B 1_555 1_555
O2B Mo1B 1_555 1_555
O3B Mo1B 1_555 1_555
O4B Mo3B 1_555 1_555
O5B Mo3B 1_555 1_555
O6B Mo1 1_555 1_555
O7B Mo2B 1_555 1_555
O8B Mo4B 1_555 1_555
O9B Mo4B 1_555 1_555
O10B Zn1 1_555 1_555
O10B_2 Mo2B 1_555 1_555
O11B Zn1 1_555 1_555
H13B O11B 1_555 1_555
O12B Mo2B 1_555 1_555
O13B Mo1 1_555 1_555
O14B Mo4 1_555 1_555
Zn1_2 O10B_2 1_555 1_555
H14B O11B 1_555 1_555
H15B N6B 1_555 1_555
Mo2 O6 1_555 1_555
Mo3 O13 1_555 1_555
Mo3 O6B 1_555 1_555
Mo4 O6 1_555 1_555
Mo4 O12 1_555 1_555
C5 N1 1_555 1_555
C7 N2 1_555 1_555
C8 N3 1_555 1_555
C8 N4 1_555 1_555
C13 N5 1_555 1_555
C18 N6 1_555 1_555
O10 Zn1 1_555 1_555
O11 Zn1 1_555 1_555
O13 Mo1B 1_555 1_555
Mo1B O6B 1_555 1_555
Mo2B O6B 1_555 1_555
Mo2B O13B 1_555 1_555
Mo3B O3B 1_555 1_555
Mo3B O13B 1_555 1_555
Mo3B O14B 1_555 1_555
Mo4B O1B 1_555 1_555
Mo4B O6B 1_555 1_555
Mo4B O12B 1_555 1_555
C1B N1B 1_555 1_555
C5B N1B 1_555 1_555
C7B N2B 1_555 1_555
C8B N3B 1_555 1_555
C8B N4B 1_555 1_555
C13B N5B 1_555 1_555
C18B N6B 1_555 1_555

#END
