
#######################################################################
#
#                 Cambridge Crystallographic Data Centre
#                                CCDC 
#
#######################################################################
#
# If this CIF has been generated from an entry in the Cambridge 
# Structural Database, then it will include bibliographic, chemical, 
# crystal, experimental, refinement or atomic coordinate data resulting 
# from the CCDC's data processing and validation procedures.
#
#######################################################################

data_NABHOP
_symmetry_cell_setting           monoclinic
_symmetry_space_group_name_H-M   'P 21/c'
_symmetry_Int_Tables_number      14
_space_group_name_Hall           '-P 2ybc'
loop_
_symmetry_equiv_pos_site_id
_symmetry_equiv_pos_as_xyz
1 x,y,z
2 -x,1/2+y,1/2-z
3 -x,-y,-z
4 x,1/2-y,1/2+z
_cell_length_a                   12.7606(12)
_cell_length_b                   14.2870(13)
_cell_length_c                   14.0637(12)
_cell_angle_alpha                90
_cell_angle_beta                 92.6810(10)
_cell_angle_gamma                90
_cell_volume                     2561.16
loop_
_atom_site_label
_atom_site_type_symbol
_atom_site_fract_x
_atom_site_fract_y
_atom_site_fract_z
Cu1 Cu 0.5000 0.5000 0.5000
Mo1 Mo -0.01554(4) 0.58219(4) 0.59543(4)
Mo2 Mo 0.20179(4) 0.58352(4) 0.49018(4)
Mo3 Mo 0.14514(5) 0.37831(4) 0.60202(4)
Mo4 Mo 0.07304(5) 0.62386(5) 0.28987(5)
C1 C 0.6400(6) 0.6033(5) 0.6341(5)
H1 H 0.6682 0.5437 0.6422
C2 C 0.6891(6) 0.6749(5) 0.6806(5)
H2 H 0.7495 0.6641 0.7186
C3 C 0.6485(6) 0.7640(5) 0.6712(5)
H3 H 0.6819 0.8150 0.7005
C4 C 0.5566(5) 0.7749(4) 0.6166(5)
C5 C 0.5122(5) 0.6986(5) 0.5705(5)
H4 H 0.4508 0.7066 0.5331
C6 C 0.5048(5) 0.8687(5) 0.6088(5)
C7 C 0.3697(5) 0.9620(5) 0.5612(5)
C8 C 0.5081(6) 1.0242(5) 0.6418(5)
C9 C 0.2671(5) 0.9741(5) 0.5091(5)
C10 C 0.2175(6) 0.8974(5) 0.4688(6)
H5 H 0.2485 0.8388 0.4766
C11 C 0.0790(7) 0.9876(6) 0.4080(6)
H6 H 0.0150 0.9914 0.3738
C12 C 0.1236(6) 1.0661(6) 0.4462(6)
H7 H 0.0906 1.1238 0.4380
C13 C 0.2175(6) 1.0597(5) 0.4971(5)
H8 H 0.2482 1.1132 0.5237
C14 C 0.5661(5) 1.1065(5) 0.6813(5)
C15 C 0.5267(6) 1.1955(5) 0.6581(5)
H9 H 0.4637 1.2003 0.6225
C16 C 0.6645(5) 1.2663(5) 0.7390(5)
H10 H 0.6982 1.3209 0.7596
C17 C 0.7076(6) 1.1819(5) 0.7653(5)
H11 H 0.7703 1.1794 0.8018
C18 C 0.6571(6) 1.1012(5) 0.7370(5)
H12 H 0.6842 1.0432 0.7555
H13 H 0.581(7) 0.581(5) 0.369(6)
H14 H 0.495(7) 0.589(6) 0.364(7)
N1 N 0.5552(4) 0.6123(4) 0.5781(4)
N2 N 0.4123(4) 0.8750(4) 0.5639(4)
N3 N 0.4140(4) 1.0384(4) 0.6004(4)
N4 N 0.5593(5) 0.9416(4) 0.6494(4)
N5 N 0.1270(5) 0.9041(4) 0.4193(5)
N6 N 0.5768(5) 1.2734(4) 0.6855(4)
H15 H 0.5525 1.3274 0.6687
O1 O -0.0067(4) 0.6980(3) 0.6140(3)
O2 O -0.0509(4) 0.5341(3) 0.7038(3)
O3 O 0.1317(3) 0.5440(3) 0.6065(3)
O4 O 0.0246(3) 0.5795(3) 0.4482(3)
O5 O 0.2006(4) 0.6994(3) 0.5123(4)
O6 O 0.1998(3) 0.5819(3) 0.3567(3)
O7 O 0.3284(3) 0.5488(3) 0.5162(3)
O8 O 0.1521(3) 0.4273(3) 0.4702(3)
O9 O 0.2739(4) 0.3892(3) 0.6406(3)
O10 O 0.1292(4) 0.2637(3) 0.5754(4)
O11 O 0.0764(4) 0.3872(3) 0.7177(3)
O12 O 0.0831(4) 0.7398(3) 0.3188(4)
O13 O 0.1062(4) 0.6165(4) 0.1752(3)
O14 O 0.5176(6) 0.5665(6) 0.3789(6)
Cu1_2 Cu -0.5000 0.5000 0.5000
Mo1B Mo 0.01554(4) 0.41781(4) 0.40457(4)
Mo2B Mo -0.20179(4) 0.41648(4) 0.50982(4)
Mo3B Mo -0.14514(5) 0.62169(4) 0.39798(4)
Mo4B Mo -0.07304(5) 0.37614(5) 0.71013(5)
C1B C 0.3600(6) 0.3967(5) 0.3659(5)
H1B H 0.3318 0.4563 0.3578
C2B C 0.3109(6) 0.3251(5) 0.3194(5)
H2B H 0.2505 0.3359 0.2814
C3B C 0.3515(6) 0.2360(5) 0.3288(5)
H3B H 0.3181 0.1850 0.2995
C4B C 0.4434(5) 0.2251(4) 0.3834(5)
C5B C 0.4878(5) 0.3014(5) 0.4295(5)
H4B H 0.5492 0.2934 0.4669
C6B C 0.4952(5) 0.1313(5) 0.3912(5)
C7B C 0.6303(5) 0.0380(5) 0.4388(5)
C8B C 0.4919(6) -0.0242(5) 0.3582(5)
C9B C 0.7329(5) 0.0259(5) 0.4909(5)
C10B C 0.7825(6) 0.1026(5) 0.5312(6)
H5B H 0.7515 0.1612 0.5234
C11B C 0.9210(7) 0.0124(6) 0.5920(6)
H6B H 0.9850 0.0086 0.6262
C12B C 0.8764(6) -0.0661(6) 0.5538(6)
H7B H 0.9094 -0.1238 0.5620
C13B C 0.7825(6) -0.0597(5) 0.5029(5)
H8B H 0.7518 -0.1132 0.4763
C14B C 0.4339(5) -0.1065(5) 0.3187(5)
C15B C 0.4733(6) -0.1955(5) 0.3419(5)
H9B H 0.5363 -0.2003 0.3775
C16B C 0.3355(5) -0.2663(5) 0.2610(5)
H10B H 0.3018 -0.3209 0.2404
C17B C 0.2924(6) -0.1819(5) 0.2347(5)
H11B H 0.2297 -0.1794 0.1982
C18B C 0.3429(6) -0.1012(5) 0.2630(5)
H12B H 0.3158 -0.0432 0.2445
H13B H 0.419(7) 0.419(5) 0.631(6)
H14B H 0.505(7) 0.411(6) 0.636(7)
N1B N 0.4448(4) 0.3877(4) 0.4219(4)
N2B N 0.5877(4) 0.1250(4) 0.4361(4)
N3B N 0.5860(4) -0.0384(4) 0.3996(4)
N4B N 0.4407(5) 0.0584(4) 0.3506(4)
N5B N 0.8730(5) 0.0959(4) 0.5807(5)
N6B N 0.4232(5) -0.2734(4) 0.3145(4)
H15B H 0.4475 -0.3274 0.3313
O1B O 0.0067(4) 0.3020(3) 0.3860(3)
O2B O 0.0509(4) 0.4659(3) 0.2962(3)
O3B O -0.1317(3) 0.4560(3) 0.3935(3)
O4B O -0.0246(3) 0.4205(3) 0.5518(3)
O5B O -0.2006(4) 0.3006(3) 0.4877(4)
O6B O -0.1998(3) 0.4181(3) 0.6433(3)
O7B O 0.6716(3) 0.4512(3) 0.4838(3)
O7B_2 O -0.3284(3) 0.4512(3) 0.4838(3)
O8B O -0.1521(3) 0.5727(3) 0.5298(3)
O9B O -0.2739(4) 0.6108(3) 0.3594(3)
O10B O -0.1292(4) 0.7363(3) 0.4246(4)
O11B O -0.0764(4) 0.6128(3) 0.2823(3)
O12B O -0.0831(4) 0.2602(3) 0.6812(4)
O13B O -0.1062(4) 0.3835(4) 0.8248(3)
O14B O 0.4824(6) 0.4335(6) 0.6211(6)
O15 O -0.0220(6) 0.1959(5) 0.5881(5)
loop_
_geom_bond_atom_site_label_1
_geom_bond_atom_site_label_2
_geom_bond_site_symmetry_1
_geom_bond_site_symmetry_2
Cu1 N1 1_555 1_555
Mo1 O1 1_555 1_555
Mo2 O3 1_555 1_555
Mo3 O3 1_555 1_555
Mo4 O4 1_555 1_555
C1 H1 1_555 1_555
C2 C1 1_555 1_555
H2 C2 1_555 1_555
C3 C2 1_555 1_555
H3 C3 1_555 1_555
C4 C3 1_555 1_555
C5 C4 1_555 1_555
H4 C5 1_555 1_555
C6 C4 1_555 1_555
C7 C9 1_555 1_555
C8 C14 1_555 1_555
C9 C10 1_555 1_555
C10 H5 1_555 1_555
C11 H6 1_555 1_555
C12 C11 1_555 1_555
H7 C12 1_555 1_555
C13 C9 1_555 1_555
H8 C13 1_555 1_555
C14 C15 1_555 1_555
C15 H9 1_555 1_555
C16 H10 1_555 1_555
C17 C16 1_555 1_555
H11 C17 1_555 1_555
C18 C14 1_555 1_555
H12 C18 1_555 1_555
H13 O14 1_555 1_555
H14 O14 1_555 1_555
N1 C1 1_555 1_555
N2 C6 1_555 1_555
N3 C7 1_555 1_555
N4 C6 1_555 1_555
N5 C10 1_555 1_555
N6 C15 1_555 1_555
H15 N6 1_555 1_555
O2 Mo1 1_555 1_555
O3 Mo1 1_555 1_555
O4 Mo1 1_555 1_555
O5 Mo2 1_555 1_555
O6 Mo2 1_555 1_555
O7 Cu1 1_555 1_555
O8 Mo2 1_555 1_555
O9 Mo3 1_555 1_555
O10 Mo3 1_555 1_555
O11 Mo3 1_555 1_555
O12 Mo4 1_555 1_555
O13 Mo4 1_555 1_555
O14 Cu1 1_555 1_555
Cu1_2 O7B_2 1_555 1_555
Mo1B O4 1_555 1_555
Mo2B O3B 1_555 1_555
Mo3B O4 1_555 1_555
Mo4B O2 1_555 1_555
C1B H1B 1_555 1_555
C2B C1B 1_555 1_555
H2B C2B 1_555 1_555
C3B C2B 1_555 1_555
H3B C3B 1_555 1_555
C4B C3B 1_555 1_555
C5B C4B 1_555 1_555
H4B C5B 1_555 1_555
C6B C4B 1_555 1_555
C7B C9B 1_555 1_555
C8B C14B 1_555 1_555
C9B C10B 1_555 1_555
C10B H5B 1_555 1_555
C11B H6B 1_555 1_555
C12B C11B 1_555 1_555
H7B C12B 1_555 1_555
C13B C9B 1_555 1_555
H8B C13B 1_555 1_555
C14B C15B 1_555 1_555
C15B H9B 1_555 1_555
C16B H10B 1_555 1_555
C17B C16B 1_555 1_555
H11B C17B 1_555 1_555
C18B C14B 1_555 1_555
H12B C18B 1_555 1_555
H13B O14B 1_555 1_555
H14B O14B 1_555 1_555
N1B Cu1 1_555 1_555
N2B C6B 1_555 1_555
N3B C7B 1_555 1_555
N4B C6B 1_555 1_555
N5B C10B 1_555 1_555
N6B C15B 1_555 1_555
H15B N6B 1_555 1_555
O1B Mo1B 1_555 1_555
O2B Mo4 1_555 1_555
O3B Mo1B 1_555 1_555
O4B Mo1 1_555 1_555
O5B Mo2B 1_555 1_555
O6B Mo2B 1_555 1_555
O7B Cu1 1_555 1_555
O7B_2 Mo2B 1_555 1_555
O8B Mo1 1_555 1_555
O9B Mo3B 1_555 1_555
O10B Mo3B 1_555 1_555
O11B Mo4 1_555 1_555
O12B Mo4B 1_555 1_555
O13B Mo4B 1_555 1_555
O14B Cu1 1_555 1_555
Mo2 O4 1_555 1_555
Mo2 O7 1_555 1_555
Mo3 O8 1_555 1_555
Mo3 O4B 1_555 1_555
Mo4 O6 1_555 1_555
C5 N1 1_555 1_555
C7 N2 1_555 1_555
C8 N3 1_555 1_555
C8 N4 1_555 1_555
C11 N5 1_555 1_555
C12 C13 1_555 1_555
C16 N6 1_555 1_555
C17 C18 1_555 1_555
O8 Mo1B 1_555 1_555
O11 Mo4B 1_555 1_555
Mo1B O2B 1_555 1_555
Mo1B O4B 1_555 1_555
Mo2B O4B 1_555 1_555
Mo2B O8B 1_555 1_555
Mo3B O3B 1_555 1_555
Mo3B O8B 1_555 1_555
Mo3B O11B 1_555 1_555
Mo4B O4B 1_555 1_555
Mo4B O6B 1_555 1_555
C1B N1B 1_555 1_555
C5B N1B 1_555 1_555
C7B N2B 1_555 1_555
C8B N3B 1_555 1_555
C8B N4B 1_555 1_555
C11B N5B 1_555 1_555
C12B C13B 1_555 1_555
C16B N6B 1_555 1_555
C17B C18B 1_555 1_555

#END
