
#######################################################################
#
#                 Cambridge Crystallographic Data Centre
#                                CCDC 
#
#######################################################################
#
# If this CIF has been generated from an entry in the Cambridge 
# Structural Database, then it will include bibliographic, chemical, 
# crystal, experimental, refinement or atomic coordinate data resulting 
# from the CCDC's data processing and validation procedures.
#
#######################################################################

data_NABHEF
_symmetry_cell_setting           monoclinic
_symmetry_space_group_name_H-M   'P 21/c'
_symmetry_Int_Tables_number      14
_space_group_name_Hall           '-P 2ybc'
loop_
_symmetry_equiv_pos_site_id
_symmetry_equiv_pos_as_xyz
1 x,y,z
2 -x,1/2+y,1/2-z
3 -x,-y,-z
4 x,1/2-y,1/2+z
_cell_length_a                   12.5254(12)
_cell_length_b                   14.4667(13)
_cell_length_c                   14.1654(13)
_cell_angle_alpha                90
_cell_angle_beta                 92.6760(10)
_cell_angle_gamma                90
_cell_volume                     2563.99
loop_
_atom_site_label
_atom_site_type_symbol
_atom_site_fract_x
_atom_site_fract_y
_atom_site_fract_z
Co1 Co 0.5000 0.0000 0.0000
Mo1 Mo -0.01125(2) 0.079977(17) 0.096409(18)
Mo2 Mo 0.20834(2) 0.078450(18) -0.011593(18)
Mo3 Mo 0.14586(2) -0.126400(18) 0.095920(19)
Mo4 Mo 0.07305(2) 0.124756(18) -0.207229(19)
C1 C 0.6440(3) 0.1077(2) 0.1414(2)
H1 H 0.6714 0.0487 0.1516
C2 C 0.6953(3) 0.1808(2) 0.1861(2)
H2 H 0.7572 0.1713 0.2236
C3 C 0.6531(3) 0.2683(2) 0.1742(2)
H3 H 0.6870 0.3191 0.2025
C4 C 0.5593(3) 0.2792(2) 0.1192(2)
C5 C 0.5141(3) 0.2022(2) 0.0747(2)
H4 H 0.4519 0.2097 0.0370
C6 C 0.5072(3) 0.3711(2) 0.1106(2)
C7 C 0.3688(3) 0.4612(2) 0.0623(2)
C8 C 0.5096(3) 0.5241(2) 0.1427(2)
C9 C 0.5668(3) 0.6059(2) 0.1811(2)
C10 C 0.6599(3) 0.5987(2) 0.2376(2)
H5 H 0.6873 0.5410 0.2545
C11 C 0.7113(3) 0.6783(2) 0.2682(2)
H6 H 0.7738 0.6754 0.3061
C12 C 0.6674(3) 0.7624(2) 0.2411(2)
H7 H 0.7018 0.8160 0.2623
C13 C 0.5290(3) 0.6939(2) 0.1575(2)
H8 H 0.4663 0.6990 0.1200
C14 C 0.2646(3) 0.4711(2) 0.0099(2)
C15 C 0.2146(3) 0.5561(2) -0.0050(3)
H9 H 0.2449 0.6094 0.0214
C16 C 0.1200(3) 0.5615(2) -0.0589(3)
H10 H 0.0865 0.6183 -0.0691
C17 C 0.0761(3) 0.4829(2) -0.0970(2)
H11 H 0.0129 0.4856 -0.1341
C18 C 0.2160(3) 0.3938(2) -0.0291(2)
H12 H 0.2470 0.3360 -0.0196
N1 N 0.5567(2) 0.11721(17) 0.08390(19)
N2 N 0.4114(2) 0.37610(18) 0.06555(19)
N3 N 0.4131(2) 0.53701(18) 0.10008(19)
N4 N 0.5608(2) 0.44269(18) 0.14953(18)
N5 N 0.5788(2) 0.77116(18) 0.1864(2)
N6 N 0.1249(3) 0.4018(2) -0.0805(2)
O1 O -0.04655(17) 0.03095(14) 0.20345(14)
O2 O 0.00101(18) 0.19366(15) 0.11833(16)
O3 O 0.13765(15) 0.03918(14) 0.10330(14)
O4 O 0.21343(18) 0.19294(14) 0.01213(16)
O5 O 0.33760(16) 0.04083(14) 0.01047(15)
O6 O 0.20278(16) 0.07947(14) -0.14436(14)
O7 O 0.08614(17) 0.23852(15) -0.17601(16)
O8 O 0.10493(18) 0.11822(16) -0.32204(16)
O9 O 0.07938(16) -0.11667(14) 0.21288(14)
O10 O 0.1271(2) -0.23888(15) 0.06833(17)
O11 O 0.27712(18) -0.11819(17) 0.13262(17)
O12 O 0.15279(16) -0.07525(13) -0.03321(14)
O13 O 0.02633(15) 0.07910(13) -0.04962(14)
O14 O 0.51283(19) 0.07042(16) -0.12355(17)
H13 H 0.5766(13) 0.082(3) -0.137(3)
H14 H 0.477(3) 0.1171(17) -0.141(3)
H15 H 0.103(3) 0.355(3) -0.105(3)
Co1_2 Co -0.5000 0.0000 0.0000
Mo1B Mo 0.01125(2) -0.079977(17) -0.096409(18)
Mo2B Mo -0.20834(2) -0.078450(18) 0.011593(18)
Mo3B Mo -0.14586(2) 0.126400(18) -0.095920(19)
Mo4B Mo -0.07305(2) -0.124756(18) 0.207229(19)
C1B C 0.3560(3) -0.1077(2) -0.1414(2)
H1B H 0.3286 -0.0487 -0.1516
C2B C 0.3047(3) -0.1808(2) -0.1861(2)
H2B H 0.2428 -0.1713 -0.2236
C3B C 0.3469(3) -0.2683(2) -0.1742(2)
H3B H 0.3130 -0.3191 -0.2025
C4B C 0.4407(3) -0.2792(2) -0.1192(2)
C5B C 0.4859(3) -0.2022(2) -0.0747(2)
H4B H 0.5481 -0.2097 -0.0370
C6B C 0.4928(3) -0.3711(2) -0.1106(2)
C7B C 0.6312(3) -0.4612(2) -0.0623(2)
C8B C 0.4904(3) -0.5241(2) -0.1427(2)
C9B C 0.4332(3) -0.6059(2) -0.1811(2)
C10B C 0.3401(3) -0.5987(2) -0.2376(2)
H5B H 0.3127 -0.5410 -0.2545
C11B C 0.2887(3) -0.6783(2) -0.2682(2)
H6B H 0.2262 -0.6754 -0.3061
C12B C 0.3326(3) -0.7624(2) -0.2411(2)
H7B H 0.2982 -0.8160 -0.2623
C13B C 0.4710(3) -0.6939(2) -0.1575(2)
H8B H 0.5337 -0.6990 -0.1200
C14B C 0.7354(3) -0.4711(2) -0.0099(2)
C15B C 0.7854(3) -0.5561(2) 0.0050(3)
H9B H 0.7551 -0.6094 -0.0214
C16B C 0.8800(3) -0.5615(2) 0.0589(3)
H10B H 0.9135 -0.6183 0.0691
C17B C 0.9239(3) -0.4829(2) 0.0970(2)
H11B H 0.9871 -0.4856 0.1341
C18B C 0.7840(3) -0.3938(2) 0.0291(2)
H12B H 0.7530 -0.3360 0.0196
N1B N 0.4433(2) -0.11721(17) -0.08390(19)
N2B N 0.5886(2) -0.37610(18) -0.06555(19)
N3B N 0.5869(2) -0.53701(18) -0.10008(19)
N4B N 0.4392(2) -0.44269(18) -0.14953(18)
N5B N 0.4212(2) -0.77116(18) -0.1864(2)
N6B N 0.8751(3) -0.4018(2) 0.0805(2)
O1B O 0.04655(17) -0.03095(14) -0.20345(14)
O2B O -0.00101(18) -0.19366(15) -0.11833(16)
O3B O -0.13765(15) -0.03918(14) -0.10330(14)
O4B O -0.21343(18) -0.19294(14) -0.01213(16)
O5B O 0.66240(16) -0.04083(14) -0.01047(15)
O5B_2 O -0.33760(16) -0.04083(14) -0.01047(15)
O6B O -0.20278(16) -0.07947(14) 0.14436(14)
O7B O -0.08614(17) -0.23852(15) 0.17601(16)
O8B O -0.10493(18) -0.11822(16) 0.32204(16)
O9B O -0.07938(16) 0.11667(14) -0.21288(14)
O10B O -0.1271(2) 0.23888(15) -0.06833(17)
O11B O -0.27712(18) 0.11819(17) -0.13262(17)
O12B O -0.15279(16) 0.07525(13) 0.03321(14)
O13B O -0.02633(15) -0.07910(13) 0.04962(14)
O14B O 0.48717(19) -0.07042(16) 0.12355(17)
H13B H 0.4234(13) -0.082(3) 0.137(3)
H14B H 0.523(3) -0.1171(17) 0.141(3)
H15B H 0.897(3) -0.355(3) 0.105(3)
loop_
_geom_bond_atom_site_label_1
_geom_bond_atom_site_label_2
_geom_bond_site_symmetry_1
_geom_bond_site_symmetry_2
Co1 N1 1_555 1_555
Mo1 O1 1_555 1_555
Mo2 O3 1_555 1_555
Mo3 O3 1_555 1_555
Mo4 O6 1_555 1_555
C1 H1 1_555 1_555
C2 C1 1_555 1_555
H2 C2 1_555 1_555
C3 C2 1_555 1_555
H3 C3 1_555 1_555
C4 C3 1_555 1_555
C5 C4 1_555 1_555
H4 C5 1_555 1_555
C6 C4 1_555 1_555
C7 C14 1_555 1_555
C8 C9 1_555 1_555
C9 C10 1_555 1_555
C10 H5 1_555 1_555
C11 C10 1_555 1_555
H6 C11 1_555 1_555
C12 C11 1_555 1_555
H7 C12 1_555 1_555
C13 C9 1_555 1_555
H8 C13 1_555 1_555
C14 C15 1_555 1_555
C15 H9 1_555 1_555
C16 C15 1_555 1_555
H10 C16 1_555 1_555
C17 C16 1_555 1_555
H11 C17 1_555 1_555
C18 C14 1_555 1_555
H12 C18 1_555 1_555
N1 C1 1_555 1_555
N2 C6 1_555 1_555
N3 C7 1_555 1_555
N4 C6 1_555 1_555
N5 C12 1_555 1_555
N6 C17 1_555 1_555
O1 Mo4B 1_555 1_555
O2 Mo1 1_555 1_555
O3 Mo1 1_555 1_555
O4 Mo2 1_555 1_555
O5 Co1 1_555 1_555
O6 Mo2 1_555 1_555
O7 Mo4 1_555 1_555
O8 Mo4 1_555 1_555
O9 Mo3 1_555 1_555
O10 Mo3 1_555 1_555
O11 Mo3 1_555 1_555
O12 Mo2 1_555 1_555
O13 Mo1 1_555 1_555
O14 Co1 1_555 1_555
H13 O14 1_555 1_555
H14 O14 1_555 1_555
H15 N6 1_555 1_555
Co1_2 O5B_2 1_555 1_555
Mo1B O12 1_555 1_555
Mo2B O3B 1_555 1_555
Mo3B O13 1_555 1_555
Mo4B O9 1_555 1_555
C1B H1B 1_555 1_555
C2B C1B 1_555 1_555
H2B C2B 1_555 1_555
C3B C2B 1_555 1_555
H3B C3B 1_555 1_555
C4B C3B 1_555 1_555
C5B C4B 1_555 1_555
H4B C5B 1_555 1_555
C6B C4B 1_555 1_555
C7B C14B 1_555 1_555
C8B C9B 1_555 1_555
C9B C10B 1_555 1_555
C10B H5B 1_555 1_555
C11B C10B 1_555 1_555
H6B C11B 1_555 1_555
C12B C11B 1_555 1_555
H7B C12B 1_555 1_555
C13B C9B 1_555 1_555
H8B C13B 1_555 1_555
C14B C15B 1_555 1_555
C15B H9B 1_555 1_555
C16B C15B 1_555 1_555
H10B C16B 1_555 1_555
C17B C16B 1_555 1_555
H11B C17B 1_555 1_555
C18B C14B 1_555 1_555
H12B C18B 1_555 1_555
N1B Co1 1_555 1_555
N2B C6B 1_555 1_555
N3B C7B 1_555 1_555
N4B C6B 1_555 1_555
N5B C12B 1_555 1_555
N6B C17B 1_555 1_555
O1B Mo4 1_555 1_555
O2B Mo1B 1_555 1_555
O3B Mo1B 1_555 1_555
O4B Mo2B 1_555 1_555
O5B Co1 1_555 1_555
O5B_2 Mo2B 1_555 1_555
O6B Mo2B 1_555 1_555
O7B Mo4B 1_555 1_555
O8B Mo4B 1_555 1_555
O9B Mo4 1_555 1_555
O10B Mo3B 1_555 1_555
O11B Mo3B 1_555 1_555
O12B Mo1 1_555 1_555
O13B Mo1 1_555 1_555
O14B Co1 1_555 1_555
H13B O14B 1_555 1_555
H14B O14B 1_555 1_555
H15B N6B 1_555 1_555
Mo2 O5 1_555 1_555
Mo2 O13 1_555 1_555
Mo3 O12 1_555 1_555
Mo3 O13B 1_555 1_555
Mo4 O13 1_555 1_555
C5 N1 1_555 1_555
C7 N2 1_555 1_555
C8 N3 1_555 1_555
C8 N4 1_555 1_555
C13 N5 1_555 1_555
C18 N6 1_555 1_555
O13 Mo1B 1_555 1_555
Mo1B O1B 1_555 1_555
Mo1B O13B 1_555 1_555
Mo2B O12B 1_555 1_555
Mo2B O13B 1_555 1_555
Mo3B O3B 1_555 1_555
Mo3B O9B 1_555 1_555
Mo3B O12B 1_555 1_555
Mo4B O6B 1_555 1_555
Mo4B O13B 1_555 1_555
C1B N1B 1_555 1_555
C5B N1B 1_555 1_555
C7B N2B 1_555 1_555
C8B N3B 1_555 1_555
C8B N4B 1_555 1_555
C13B N5B 1_555 1_555
C18B N6B 1_555 1_555

#END
