
#######################################################################
#
#                 Cambridge Crystallographic Data Centre
#                                CCDC 
#
#######################################################################
#
# If this CIF has been generated from an entry in the Cambridge 
# Structural Database, then it will include bibliographic, chemical, 
# crystal, experimental, refinement or atomic coordinate data resulting 
# from the CCDC's data processing and validation procedures.
#
#######################################################################

data_NABLIM
_symmetry_cell_setting           monoclinic
_symmetry_space_group_name_H-M   'P 21/n'
_symmetry_Int_Tables_number      14
_space_group_name_Hall           '-P 2yn'
loop_
_symmetry_equiv_pos_site_id
_symmetry_equiv_pos_as_xyz
1 x,y,z
2 1/2+x,1/2-y,1/2+z
3 -x,-y,-z
4 1/2-x,1/2+y,1/2-z
_cell_length_a                   7.3110(15)
_cell_length_b                   18.306(4)
_cell_length_c                   9.4997(19)
_cell_angle_alpha                90
_cell_angle_beta                 109.69(3)
_cell_angle_gamma                90
_cell_volume                     1197.05
loop_
_atom_site_label
_atom_site_type_symbol
_atom_site_fract_x
_atom_site_fract_y
_atom_site_fract_z
Cd1 Cd 0.74943(4) 0.190759(14) 0.53885(3)
O1 O 0.7273(4) 0.31201(15) 0.6344(3)
O2 O 0.7531(4) 0.30098(13) 0.4101(3)
O3 O 0.4289(4) 0.16716(18) 0.4227(3)
C1 C 0.7431(5) 0.3413(2) 0.5179(4)
C2 C 0.7483(5) 0.4543(2) 0.3706(4)
H1 H 0.7516 0.4249 0.2916
C3 C 0.7444(5) 0.42217(19) 0.5023(4)
C4 C 0.7430(5) 0.4672(2) 0.6228(4)
H2 H 0.7411 0.4463 0.7115
C5 C 0.7446(5) 0.5430(2) 0.6089(4)
C6 C 0.7456(5) 0.5751(2) 0.4747(4)
H3 H 0.7452 0.6257 0.4652
C7 C 0.2916(6) 0.1477(2) 0.4944(5)
H4 H 0.3554 0.1182 0.5821
H5 H 0.1878 0.1189 0.4265
C8 C 0.7473(6) 0.5305(2) 0.3556(4)
C9 C 0.7449(6) 0.5916(2) 0.7384(4)
C10 C 0.7485(6) 0.5630(2) 0.2102(4)
O4 O 0.7314(5) 0.56221(19) 0.8545(3)
O5 O 0.7503(5) 0.65983(17) 0.7245(3)
O6 O 0.7345(5) 0.62869(16) 0.1834(3)
O7 O 0.7658(7) 0.51422(18) 0.1156(4)
C11 C 0.2065(6) 0.2163(3) 0.5408(5)
H6 H 0.3099 0.2462 0.6062
H7 H 0.1367 0.2449 0.4532
O8 O 0.0775(4) 0.19399(17) 0.6170(3)
O4C O 0.7686(5) 0.06221(19) 0.6455(3)
O5C O 0.7497(5) 0.15983(17) 0.7755(3)
O6C O 0.7655(5) 0.12869(16) 0.3166(3)
O8_2 O 1.0775(4) 0.19399(17) 0.6170(3)
Cd1C Cd 0.75057(4) 0.690759(14) 0.96115(3)
Cd1C_2 Cd 0.75057(4) 0.690759(14) -0.03885(3)
Cd1_2 Cd -0.25057(4) 0.190759(14) 0.53885(3)
loop_
_geom_bond_atom_site_label_1
_geom_bond_atom_site_label_2
_geom_bond_site_symmetry_1
_geom_bond_site_symmetry_2
Cd1 O1 1_555 1_555
O1 C1 1_555 1_555
O2 Cd1 1_555 1_555
O3 Cd1 1_555 1_555
C1 O2 1_555 1_555
C2 H1 1_555 1_555
C3 C1 1_555 1_555
C4 C3 1_555 1_555
H2 C4 1_555 1_555
C5 C4 1_555 1_555
C6 C5 1_555 1_555
H3 C6 1_555 1_555
C7 O3 1_555 1_555
H4 C7 1_555 1_555
H5 C7 1_555 1_555
C8 C2 1_555 1_555
C9 C5 1_555 1_555
C10 C8 1_555 1_555
O4 C9 1_555 1_555
O5 C9 1_555 1_555
O6 C10 1_555 1_555
O7 C10 1_555 1_555
C11 C7 1_555 1_555
H6 C11 1_555 1_555
H7 C11 1_555 1_555
O8 C11 1_555 1_555
O4C Cd1 1_555 1_555
O5C Cd1 1_555 1_555
O6C Cd1 1_555 1_555
O8_2 Cd1 1_555 1_555
Cd1C O4 1_555 1_555
Cd1C_2 O6 1_555 1_555
Cd1_2 O8 1_555 1_555
C2 C3 1_555 1_555
C6 C8 1_555 1_555
O5 Cd1C 1_555 1_555

#END
