
#######################################################################
#
#                 Cambridge Crystallographic Data Centre
#                                CCDC 
#
#######################################################################
#
# If this CIF has been generated from an entry in the Cambridge 
# Structural Database, then it will include bibliographic, chemical, 
# crystal, experimental, refinement or atomic coordinate data resulting 
# from the CCDC's data processing and validation procedures.
#
#######################################################################

data_NABNIO
_symmetry_cell_setting           monoclinic
_symmetry_space_group_name_H-M   'P 21/n'
_symmetry_Int_Tables_number      14
_space_group_name_Hall           '-P 2yn'
loop_
_symmetry_equiv_pos_site_id
_symmetry_equiv_pos_as_xyz
1 x,y,z
2 1/2-x,1/2+y,1/2-z
3 -x,-y,-z
4 1/2+x,1/2-y,1/2+z
_cell_length_a                   10.6077(2)
_cell_length_b                   20.9159(5)
_cell_length_c                   18.3970(4)
_cell_angle_alpha                90
_cell_angle_beta                 105.0490(10)
_cell_angle_gamma                90
_cell_volume                     3941.75
loop_
_atom_site_label
_atom_site_type_symbol
_atom_site_fract_x
_atom_site_fract_y
_atom_site_fract_z
Cd1 Cd 0.417392(18) 0.667149(10) 0.584500(11)
O1 O 0.34138(19) 0.70541(10) 0.45272(11)
O2 O 0.2987(2) 0.60570(10) 0.47863(11)
O3 O 0.0357(2) 0.78733(10) 0.20826(12)
O4 O -0.00019(19) 0.72331(10) 0.10925(11)
O5 O 0.1912(3) 0.45738(11) 0.26747(15)
H1 H 0.199(4) 0.4188(9) 0.250(2)
O6 O 0.1300(3) 0.49059(13) 0.14812(15)
C1 C 0.2250(3) 0.63983(13) 0.35179(15)
C2 C 0.1692(3) 0.69004(14) 0.30434(16)
H2 H 0.1730 0.7323 0.3238
C3 C 0.1079(3) 0.67888(13) 0.22862(16)
C4 C 0.1055(3) 0.61734(14) 0.19989(16)
H3 H 0.0670 0.6098 0.1479
C5 C 0.1592(3) 0.56667(14) 0.24682(16)
C6 C 0.2167(2) 0.57826(14) 0.32273(15)
H4 H 0.2508 0.5435 0.3551
C7 C 0.2926(3) 0.65129(15) 0.43312(16)
C8 C 0.0433(3) 0.73281(14) 0.17806(16)
C9 C 0.1571(3) 0.50129(16) 0.21514(18)
N1 N 0.6155(2) 0.64968(12) 0.55441(14)
N2 N 0.7917(4) 0.4929(2) 0.1480(2)
N3 N 0.4271(2) 0.56841(12) 0.64788(14)
N4 N 0.2681(2) 0.21376(12) 0.89339(14)
C10 C 0.6626(3) 0.69352(16) 0.51531(18)
H5 H 0.6145 0.7319 0.5012
C11 C 0.7779(3) 0.68574(16) 0.49438(19)
H6 H 0.8069 0.7181 0.4662
C12 C 0.8512(3) 0.63043(16) 0.51469(18)
C13 C 0.8018(3) 0.58564(18) 0.5551(2)
H7 H 0.8481 0.5469 0.5701
C14 C 0.6863(3) 0.59647(16) 0.57371(18)
H8 H 0.6552 0.5647 0.6016
C15 C 0.9753(3) 0.61819(17) 0.4909(2)
H9 H 1.0413 0.5988 0.5334
H10 H 1.0106 0.6594 0.4783
C16 C 0.9515(3) 0.57358(16) 0.42265(19)
H11 H 1.0366 0.5590 0.4161
H12 H 0.9030 0.5354 0.4323
C17 C 0.8753(3) 0.60535(16) 0.35093(19)
H13 H 0.7914 0.6205 0.3587
H14 H 0.9246 0.6436 0.3423
C18 C 0.7717(4) 0.5556(3) 0.1467(2)
H15 H 0.7379 0.5757 0.0993
C19 C 0.7972(3) 0.5933(2) 0.2105(2)
H16 H 0.7813 0.6380 0.2065
C20 C 0.8464(3) 0.56526(18) 0.28080(19)
C21 C 0.8672(4) 0.49970(19) 0.2817(2)
H17 H 0.9008 0.4782 0.3281
C22 C 0.8392(4) 0.4660(2) 0.2153(3)
H18 H 0.8545 0.4212 0.2174
C23 C 0.4664(3) 0.56118(15) 0.72254(18)
H19 H 0.4774 0.5985 0.7529
C24 C 0.4921(3) 0.50250(16) 0.75823(18)
H20 H 0.5184 0.5003 0.8116
C25 C 0.4792(3) 0.44701(14) 0.71569(17)
C26 C 0.4373(3) 0.45412(15) 0.63837(18)
H21 H 0.4262 0.4175 0.6068
C27 C 0.4115(3) 0.51407(15) 0.60690(18)
H22 H 0.3811 0.5173 0.5537
C28 C 0.5066(3) 0.38100(15) 0.74984(18)
H23 H 0.5594 0.3572 0.7217
H24 H 0.4225 0.3582 0.7427
C29 C 0.5777(3) 0.37914(16) 0.83329(18)
H25 H 0.5228 0.4001 0.8624
H26 H 0.6599 0.4038 0.8415
C30 C 0.6097(3) 0.31079(17) 0.8630(2)
H27 H 0.6476 0.2867 0.8275
H28 H 0.6760 0.3126 0.9121
C31 C 0.3266(3) 0.26086(15) 0.93940(18)
H29 H 0.2911 0.2730 0.9797
C32 C 0.4362(3) 0.29246(16) 0.93074(19)
H30 H 0.4742 0.3256 0.9647
C33 C 0.4905(3) 0.27594(15) 0.87270(18)
C34 C 0.4293(3) 0.22774(17) 0.8248(2)
H31 H 0.4623 0.2150 0.7837
C35 C 0.3202(3) 0.19827(17) 0.83692(19)
H32 H 0.2800 0.1653 0.8034
O3C O 0.5357(2) 0.71267(10) 0.70826(12)
O4C O 0.49981(19) 0.77669(10) 0.60925(11)
N4A N 0.2319(2) 0.71376(12) 0.60661(14)
Cd1C Cd -0.082608(18) 0.832851(10) 0.084500(11)
Cd1A Cd 0.082608(18) 0.167149(10) 0.915500(11)
O7 O 0.0509(3) 0.2057(2) 0.65190(19)
H33 H 0.079(5) 0.227(2) 0.618(2)
H34 H -0.014(4) 0.180(2) 0.631(3)
O8 O 0.2948(3) 0.18736(19) 0.6242(2)
H35 H 0.285(5) 0.161(3) 0.586(3)
H36 H 0.220(3) 0.191(3) 0.636(3)
O9 O 0.0470(3) 0.2699(2) 0.1505(2)
H37 H 0.054(7) 0.301(2) 0.118(3)
H38 H 0.077(6) 0.2350(16) 0.133(3)
O10 O 0.2328(4) 0.34681(17) 0.2198(2)
H39 H 0.183(5) 0.335(4) 0.250(3)
H40 H 0.312(3) 0.331(3) 0.239(4)
O11 O -0.1598(5) 0.1242(2) 0.5840(2)
H41 H -0.118(7) 0.097(3) 0.562(3)
H42 H -0.162(7) 0.110(3) 0.6283(19)
O12 O 0.5683(8) 0.1276(3) 0.4996(3)
H43 H 0.614(8) 0.143(5) 0.470(5)
H44 H 0.496(6) 0.150(4) 0.494(6)
O13 O -0.0839(5) 0.0058(3) 0.5454(2)
H45 H -0.021(5) 0.018(4) 0.524(4)
H46 H -0.148(5) -0.012(4) 0.510(3)
O14 O 0.2730(7) 0.0836(2) 0.5246(3)
H47 H 0.337(6) 0.106(3) 0.514(5)
H48 H 0.220(6) 0.111(3) 0.539(5)
O15? O 0.4676(9) 0.0313(4) 0.4981(5)
H49? H 0.538(6) 0.014(6) 0.527(8)
H50? H 0.400(6) 0.006(5) 0.496(9)
loop_
_geom_bond_atom_site_label_1
_geom_bond_atom_site_label_2
_geom_bond_site_symmetry_1
_geom_bond_site_symmetry_2
Cd1 O1 1_555 1_555
O1 C7 1_555 1_555
O2 Cd1 1_555 1_555
O3 C8 1_555 1_555
O4 C8 1_555 1_555
O5 H1 1_555 1_555
O6 C9 1_555 1_555
C1 C2 1_555 1_555
C2 H2 1_555 1_555
C3 C2 1_555 1_555
C4 C3 1_555 1_555
H3 C4 1_555 1_555
C5 C4 1_555 1_555
C6 C1 1_555 1_555
H4 C6 1_555 1_555
C7 O2 1_555 1_555
C8 C3 1_555 1_555
C9 O5 1_555 1_555
N1 Cd1 1_555 1_555
N2 C18 1_555 1_555
N3 Cd1 1_555 1_555
N4 C31 1_555 1_555
C10 N1 1_555 1_555
H5 C10 1_555 1_555
C11 C10 1_555 1_555
H6 C11 1_555 1_555
C12 C11 1_555 1_555
C13 C12 1_555 1_555
H7 C13 1_555 1_555
C14 N1 1_555 1_555
H8 C14 1_555 1_555
C15 C12 1_555 1_555
H9 C15 1_555 1_555
H10 C15 1_555 1_555
C16 C15 1_555 1_555
H11 C16 1_555 1_555
H12 C16 1_555 1_555
C17 C16 1_555 1_555
H13 C17 1_555 1_555
H14 C17 1_555 1_555
C18 H15 1_555 1_555
C19 C18 1_555 1_555
H16 C19 1_555 1_555
C20 C17 1_555 1_555
C21 C20 1_555 1_555
H17 C21 1_555 1_555
C22 N2 1_555 1_555
H18 C22 1_555 1_555
C23 N3 1_555 1_555
H19 C23 1_555 1_555
C24 C23 1_555 1_555
H20 C24 1_555 1_555
C25 C24 1_555 1_555
C26 C25 1_555 1_555
H21 C26 1_555 1_555
C27 N3 1_555 1_555
H22 C27 1_555 1_555
C28 C25 1_555 1_555
H23 C28 1_555 1_555
H24 C28 1_555 1_555
C29 C28 1_555 1_555
H25 C29 1_555 1_555
H26 C29 1_555 1_555
C30 C29 1_555 1_555
H27 C30 1_555 1_555
H28 C30 1_555 1_555
C31 H29 1_555 1_555
C32 C31 1_555 1_555
H30 C32 1_555 1_555
C33 C30 1_555 1_555
C34 C33 1_555 1_555
H31 C34 1_555 1_555
C35 N4 1_555 1_555
H32 C35 1_555 1_555
O7 H33 1_555 1_555
H34 O7 1_555 1_555
O8 H35 1_555 1_555
H36 O8 1_555 1_555
O9 H37 1_555 1_555
H38 O9 1_555 1_555
O10 H39 1_555 1_555
H40 O10 1_555 1_555
O11 H41 1_555 1_555
H42 O11 1_555 1_555
O12 H43 1_555 1_555
H44 O12 1_555 1_555
O13 H45 1_555 1_555
H46 O13 1_555 1_555
O14 H47 1_555 1_555
H48 O14 1_555 1_555
O3C Cd1 1_555 1_555
O4C Cd1 1_555 1_555
N4A Cd1 1_555 1_555
Cd1C O3 1_555 1_555
Cd1A N4 1_555 1_555
O4 Cd1C 1_555 1_555
C1 C7 1_555 1_555
C5 C6 1_555 1_555
C5 C9 1_555 1_555
C13 C14 1_555 1_555
C19 C20 1_555 1_555
C21 C22 1_555 1_555
C26 C27 1_555 1_555
C32 C33 1_555 1_555
C34 C35 1_555 1_555

#END
