
#######################################################################
#
#                 Cambridge Crystallographic Data Centre
#                                CCDC 
#
#######################################################################
#
# If this CIF has been generated from an entry in the Cambridge 
# Structural Database, then it will include bibliographic, chemical, 
# crystal, experimental, refinement or atomic coordinate data resulting 
# from the CCDC's data processing and validation procedures.
#
#######################################################################

data_NABPIR
_symmetry_cell_setting           triclinic
_symmetry_space_group_name_H-M   'P -1'
_symmetry_Int_Tables_number      2
_space_group_name_Hall           '-P 1'
loop_
_symmetry_equiv_pos_site_id
_symmetry_equiv_pos_as_xyz
1 x,y,z
2 -x,-y,-z
_cell_length_a                   9.432(11)
_cell_length_b                   10.697(12)
_cell_length_c                   10.751(12)
_cell_angle_alpha                87.946(17)
_cell_angle_beta                 67.756(15)
_cell_angle_gamma                76.085(16)
_cell_volume                     972.684
loop_
_atom_site_label
_atom_site_type_symbol
_atom_site_fract_x
_atom_site_fract_y
_atom_site_fract_z
Mn1 Mn 0.36432(9) 0.67778(7) 0.17539(8)
O1 O 0.3719(5) 0.4895(4) 0.2288(5)
O2 O 0.3197(5) 0.6408(4) 0.0033(5)
O3 O 0.4178(5) 0.2766(4) 0.1949(5)
O4 O 0.3765(7) 0.8680(5) 0.0901(7)
O5 O 0.3913(5) 0.3813(4) -0.0655(4)
O6 O 0.2821(6) 0.2264(5) -0.0916(5)
N1 N 0.3692(6) 0.7278(5) 0.3617(6)
N2 N 0.1189(6) 0.7613(5) 0.2900(6)
C1 C -0.1225(8) 0.4654(6) 0.3355(7)
C2 C 0.2218(7) 0.7821(6) 0.4587(6)
C3 C -0.0828(9) 0.8897(7) 0.6466(7)
H1 H -0.1838 0.9260 0.7089
C4 C -0.0601(8) 0.8507(6) 0.5144(7)
C5 C 0.0909(7) 0.7992(6) 0.4183(7)
C6 C -0.1573(9) 0.8310(8) 0.3390(8)
H2 H -0.2392 0.8414 0.3084
C7 C 0.4934(8) 0.7073(7) 0.3978(7)
H3 H 0.5932 0.6716 0.3334
C8 C 0.4803(9) 0.7369(8) 0.5274(8)
H4 H 0.5693 0.7189 0.5492
C9 C 0.3330(9) 0.7936(7) 0.6232(8)
H5 H 0.3225 0.8161 0.7096
C10 C 0.1986(8) 0.8171(6) 0.5891(7)
C11 C 0.0456(9) 0.8732(7) 0.6816(8)
H6 H 0.0311 0.8997 0.7679
C12 C -0.1882(8) 0.8696(7) 0.4690(9)
H7 H -0.2909 0.9075 0.5271
C13 C -0.0017(8) 0.7762(6) 0.2532(8)
H8 H 0.0174 0.7488 0.1659
C14 C 0.3290(7) 0.3890(6) 0.2131(6)
C15 C 0.1654(7) 0.4053(5) 0.2166(6)
C16 C 0.1460(7) 0.3708(6) 0.1003(6)
C17 C 0.2834(7) 0.3198(6) -0.0291(7)
C18 C -0.0074(7) 0.3829(6) 0.1041(7)
H9 H -0.0203 0.3564 0.0284
C19 C -0.1376(8) 0.4325(6) 0.2162(7)
H10 H -0.2376 0.4448 0.2140
C20 C 0.0324(7) 0.4490(6) 0.3336(6)
N3 N 0.0614(6) 0.4708(5) 0.4501(5)
Mn1A Mn -0.36432(9) 0.32222(7) 0.82461(8)
Mn1A_2 Mn 0.63568(9) 0.32222(7) -0.17539(8)
Mn1_2 Mn -0.63568(9) 0.67778(7) 1.17539(8)
O1A O -0.3719(5) 0.5105(4) 0.7712(5)
O2A O -0.3197(5) 0.3592(4) 0.9967(5)
O3A O -0.4178(5) 0.7234(4) 0.8051(5)
O4A O -0.3765(7) 0.1320(5) 0.9099(7)
O5A O -0.3913(5) 0.6187(4) 1.0655(4)
O5A_2 O 0.6087(5) 0.6187(4) 0.0655(4)
O5_2 O -0.6087(5) 0.3813(4) 0.9345(4)
O6A O -0.2821(6) 0.7736(5) 1.0916(5)
N1A N -0.3692(6) 0.2722(5) 0.6383(6)
N2A N -0.1189(6) 0.2387(5) 0.7100(6)
C1A C 0.1225(8) 0.5346(6) 0.6645(7)
C2A C -0.2218(7) 0.2179(6) 0.5413(6)
C3A C 0.0828(9) 0.1103(7) 0.3534(7)
H1A H 0.1838 0.0740 0.2911
C4A C 0.0601(8) 0.1493(6) 0.4856(7)
C5A C -0.0909(7) 0.2008(6) 0.5817(7)
C6A C 0.1573(9) 0.1690(8) 0.6610(8)
H2A H 0.2392 0.1586 0.6916
C7A C -0.4934(8) 0.2927(7) 0.6022(7)
H3A H -0.5932 0.3284 0.6666
C8A C -0.4803(9) 0.2631(8) 0.4726(8)
H4A H -0.5693 0.2811 0.4508
C9A C -0.3330(9) 0.2064(7) 0.3768(8)
H5A H -0.3225 0.1839 0.2904
C10A C -0.1986(8) 0.1829(6) 0.4109(7)
C11A C -0.0456(9) 0.1268(7) 0.3184(8)
H6A H -0.0311 0.1003 0.2321
C12A C 0.1882(8) 0.1304(7) 0.5310(9)
H7A H 0.2909 0.0925 0.4729
C13A C 0.0017(8) 0.2238(6) 0.7468(8)
H8A H -0.0174 0.2512 0.8341
C14A C -0.3290(7) 0.6110(6) 0.7869(6)
C15A C -0.1654(7) 0.5947(5) 0.7834(6)
C16A C -0.1460(7) 0.6292(6) 0.8997(6)
C17A C -0.2834(7) 0.6802(6) 1.0291(7)
C18A C 0.0074(7) 0.6171(6) 0.8959(7)
H9A H 0.0203 0.6436 0.9716
C19A C 0.1376(8) 0.5675(6) 0.7838(7)
H10A H 0.2376 0.5552 0.7860
C20A C -0.0324(7) 0.5510(6) 0.6664(6)
N3A N -0.0614(6) 0.5292(5) 0.5499(5)
O7 O -0.2432(18) 0.5016(17) 0.4416(18)
O8 O 0.1573(10) 1.0091(7) 0.9753(8)
H11 H 0.11(2) 0.954(11) 0.973(18)
H12 H 0.200(12) 0.991(10) 1.032(8)
O9 O 0.4831(10) 0.0145(8) 0.2207(10)
loop_
_geom_bond_atom_site_label_1
_geom_bond_atom_site_label_2
_geom_bond_site_symmetry_1
_geom_bond_site_symmetry_2
Mn1 O1 1_555 1_555
O1 C14 1_555 1_555
O2 Mn1 1_555 1_555
O3 C14 1_555 1_555
O4 Mn1 1_555 1_555
O5 C17 1_555 1_555
O6 C17 1_555 1_555
N1 Mn1 1_555 1_555
N2 Mn1 1_555 1_555
C1 C19 1_555 1_555
C2 N1 1_555 1_555
C3 H1 1_555 1_555
C4 C3 1_555 1_555
C5 N2 1_555 1_555
C6 H2 1_555 1_555
C7 N1 1_555 1_555
H3 C7 1_555 1_555
C8 C7 1_555 1_555
H4 C8 1_555 1_555
C9 C8 1_555 1_555
H5 C9 1_555 1_555
C10 C2 1_555 1_555
C11 C3 1_555 1_555
H6 C11 1_555 1_555
C12 C4 1_555 1_555
H7 C12 1_555 1_555
C13 N2 1_555 1_555
H8 C13 1_555 1_555
C14 C15 1_555 1_555
C15 C16 1_555 1_555
C16 C17 1_555 1_555
C18 C16 1_555 1_555
H9 C18 1_555 1_555
C19 C18 1_555 1_555
H10 C19 1_555 1_555
C20 C1 1_555 1_555
N3 C20 1_555 1_555
O8 H11 1_555 1_555
H12 O8 1_555 1_555
Mn1A O1A 1_555 1_555
Mn1A_2 O5 1_555 1_555
Mn1_2 O5A 1_555 1_555
O1A C14A 1_555 1_555
O2A Mn1A 1_555 1_555
O3A C14A 1_555 1_555
O4A Mn1A 1_555 1_555
O5A C17A 1_555 1_555
O5A_2 Mn1 1_555 1_555
O5_2 Mn1A 1_555 1_555
O6A C17A 1_555 1_555
N1A Mn1A 1_555 1_555
N2A Mn1A 1_555 1_555
C1A C19A 1_555 1_555
C2A N1A 1_555 1_555
C3A H1A 1_555 1_555
C4A C3A 1_555 1_555
C5A N2A 1_555 1_555
C6A H2A 1_555 1_555
C7A N1A 1_555 1_555
H3A C7A 1_555 1_555
C8A C7A 1_555 1_555
H4A C8A 1_555 1_555
C9A C8A 1_555 1_555
H5A C9A 1_555 1_555
C10A C2A 1_555 1_555
C11A C3A 1_555 1_555
H6A C11A 1_555 1_555
C12A C4A 1_555 1_555
H7A C12A 1_555 1_555
C13A N2A 1_555 1_555
H8A C13A 1_555 1_555
C14A C15A 1_555 1_555
C15A C16A 1_555 1_555
C16A C17A 1_555 1_555
C18A C16A 1_555 1_555
H9A C18A 1_555 1_555
C19A C18A 1_555 1_555
H10A C19A 1_555 1_555
C20A C1A 1_555 1_555
N3A N3 1_555 1_555
C2 C5 1_555 1_555
C4 C5 1_555 1_555
C6 C12 1_555 1_555
C6 C13 1_555 1_555
C9 C10 1_555 1_555
C10 C11 1_555 1_555
C15 C20 1_555 1_555
C2A C5A 1_555 1_555
C4A C5A 1_555 1_555
C6A C12A 1_555 1_555
C6A C13A 1_555 1_555
C9A C10A 1_555 1_555
C10A C11A 1_555 1_555
C15A C20A 1_555 1_555
C20A N3A 1_555 1_555

#END
