
#######################################################################
#
#                 Cambridge Crystallographic Data Centre
#                                CCDC 
#
#######################################################################
#
# If this CIF has been generated from an entry in the Cambridge 
# Structural Database, then it will include bibliographic, chemical, 
# crystal, experimental, refinement or atomic coordinate data resulting 
# from the CCDC's data processing and validation procedures.
#
#######################################################################

data_NABROY01
_symmetry_cell_setting           triclinic
_symmetry_space_group_name_H-M   'P -1'
_symmetry_Int_Tables_number      2
_space_group_name_Hall           '-P 1'
loop_
_symmetry_equiv_pos_site_id
_symmetry_equiv_pos_as_xyz
1 x,y,z
2 -x,-y,-z
_cell_length_a                   7.8909(16)
_cell_length_b                   9.4060(19)
_cell_length_c                   10.928(2)
_cell_angle_alpha                89.40(3)
_cell_angle_beta                 69.71(3)
_cell_angle_gamma                76.33(3)
_cell_volume                     736.94
loop_
_atom_site_label
_atom_site_type_symbol
_atom_site_fract_x
_atom_site_fract_y
_atom_site_fract_z
Zn1 Zn 1.02017(9) 0.86861(7) 0.30527(6)
V1 V 0.70913(13) 0.64755(11) 0.43737(9)
V2 V 1.34561(13) 0.62081(11) 0.35258(9)
O1 O 0.9013(6) 0.6906(5) 0.3417(4)
O2 O 0.7914(7) 0.9909(5) 0.4486(5)
O3 O 0.5805(6) 0.6099(5) 0.3396(5)
O4 O 0.7584(7) 0.4886(6) 0.5230(6)
N1 N 1.1021(7) 1.0634(5) 0.2296(5)
N2 N 1.1171(7) 0.8136(6) 0.1044(5)
O5 O 0.5843(7) 0.7894(6) 0.5388(5)
O6 O 1.3563(6) 0.5592(5) 0.2131(5)
C1 C 1.1924(8) 1.0468(7) 0.0968(6)
C2 C 1.3723(10) 0.9982(9) -0.1768(7)
H1 H 1.4313 0.9834 -0.2672
C3 C 1.0888(10) 1.1880(7) 0.2915(7)
H2 H 1.0230 1.2026 0.3812
C4 C 1.2930(10) 0.7534(8) -0.1652(6)
H3 H 1.3516 0.7318 -0.2551
C5 C 1.2653(10) 1.2814(7) 0.0961(8)
H4 H 1.3233 1.3526 0.0535
C6 C 1.2899(8) 0.8876(7) -0.1068(6)
C7 C 1.2756(9) 1.1521(7) 0.0245(6)
C8 C 1.1984(8) 0.9117(7) 0.0306(6)
C9 C 1.1697(11) 1.2998(8) 0.2277(8)
H5 H 1.1579 1.3854 0.2752
C10 C 1.2090(10) 0.6549(8) -0.0886(7)
H6 H 1.2091 0.5668 -0.1264
C11 C 1.3662(11) 1.1237(8) -0.1143(8)
H7 H 1.4221 1.1930 -0.1626
C12 C 1.1240(9) 0.6880(7) 0.0456(6)
H8 H 1.0695 0.6196 0.0965
O7 O 1.2125(6) 0.7983(5) 0.3849(4)
V2_2 V 0.34561(13) 0.62081(11) 0.35258(9)
V2A V 0.65439(13) 0.37919(11) 0.64742(9)
O3_2 O 1.5805(6) 0.6099(5) 0.3396(5)
O4A O 1.2416(7) 0.5114(6) 0.4770(6)
loop_
_geom_bond_atom_site_label_1
_geom_bond_atom_site_label_2
_geom_bond_site_symmetry_1
_geom_bond_site_symmetry_2
Zn1 O1 1_555 1_555
V1 O1 1_555 1_555
V2 O6 1_555 1_555
O2 Zn1 1_555 1_555
O3 V1 1_555 1_555
O4 V1 1_555 1_555
N1 Zn1 1_555 1_555
N2 Zn1 1_555 1_555
O5 V1 1_555 1_555
C1 N1 1_555 1_555
C2 H1 1_555 1_555
C3 N1 1_555 1_555
H2 C3 1_555 1_555
C4 H3 1_555 1_555
C5 H4 1_555 1_555
C6 C2 1_555 1_555
C7 C1 1_555 1_555
C8 N2 1_555 1_555
C9 C3 1_555 1_555
H5 C9 1_555 1_555
C10 C4 1_555 1_555
H6 C10 1_555 1_555
C11 C2 1_555 1_555
H7 C11 1_555 1_555
C12 N2 1_555 1_555
H8 C12 1_555 1_555
O7 Zn1 1_555 1_555
V2_2 O3 1_555 1_555
V2A O4 1_555 1_555
O3_2 V2 1_555 1_555
O4A V2 1_555 1_555
V2 O7 1_555 1_555
C1 C8 1_555 1_555
C4 C6 1_555 1_555
C5 C7 1_555 1_555
C5 C9 1_555 1_555
C6 C8 1_555 1_555
C7 C11 1_555 1_555
C10 C12 1_555 1_555

#END
