
#######################################################################
#
#                 Cambridge Crystallographic Data Centre
#                                CCDC 
#
#######################################################################
#
# If this CIF has been generated from an entry in the Cambridge 
# Structural Database, then it will include bibliographic, chemical, 
# crystal, experimental, refinement or atomic coordinate data resulting 
# from the CCDC's data processing and validation procedures.
#
#######################################################################

data_NABTOA
_symmetry_cell_setting           triclinic
_symmetry_space_group_name_H-M   'P -1'
_symmetry_Int_Tables_number      2
_space_group_name_Hall           '-P 1'
loop_
_symmetry_equiv_pos_site_id
_symmetry_equiv_pos_as_xyz
1 x,y,z
2 -x,-y,-z
_cell_length_a                   10.550(7)
_cell_length_b                   10.809(6)
_cell_length_c                   12.788(8)
_cell_angle_alpha                65.679(10)
_cell_angle_beta                 80.313(11)
_cell_angle_gamma                87.380(11)
_cell_volume                     1309.46
loop_
_atom_site_label
_atom_site_type_symbol
_atom_site_fract_x
_atom_site_fract_y
_atom_site_fract_z
Co1 Co 0.5000 1.0000 0.5000
Co2 Co 0.5000 1.0000 0.0000
Na1 Na 0.3929(2) 1.0304(2) 0.2572(2)
N1 N 0.5789(4) 0.8196(4) 0.5452(3)
N2 N 0.3339(4) 1.0339(4) -0.0584(3)
O1 O 0.3492(3) 0.9373(3) 0.4712(3)
O2 O 0.5665(3) 1.0517(3) 0.3369(3)
O3 O 0.4155(3) 0.8928(3) 0.1574(3)
O4 O 0.4864(3) 1.1518(3) 0.0410(3)
C1 C 0.3064(5) 0.8075(5) 0.5132(4)
C2 C 0.1899(5) 0.7844(6) 0.4835(5)
C3 C 0.1386(6) 0.6546(6) 0.5209(5)
C4 C 0.2018(6) 0.5433(7) 0.5888(6)
C5 C 0.3165(6) 0.5644(5) 0.6182(5)
C6 C 0.3701(5) 0.6941(5) 0.5836(4)
C7 C 0.4898(5) 0.7054(5) 0.6294(4)
C8 C 0.6431(5) 0.7880(5) 0.4458(4)
C9 C 0.7377(5) 0.8975(6) 0.3617(4)
C10 C 0.8569(6) 0.8727(7) 0.3335(5)
C11 C 0.9487(6) 0.9753(8) 0.2516(5)
C12 C 0.9040(6) 1.1048(8) 0.1956(5)
C13 C 0.7757(6) 1.1314(6) 0.2240(5)
C14 C 0.6920(5) 1.0296(6) 0.3081(4)
C15 C 0.3270(5) 0.7974(5) 0.1750(4)
C16 C 0.3294(6) 0.6658(6) 0.2600(5)
C17 C 0.2322(6) 0.5717(6) 0.2809(5)
C18 C 0.1322(5) 0.6054(6) 0.2171(5)
C19 C 0.1305(3) 0.7363(6) 0.1322(5)
C20 C 0.2241(5) 0.8324(5) 0.1113(4)
C21 C 0.2150(5) 0.9787(5) 0.0297(4)
C22 C 0.3157(5) 1.1801(5) -0.1319(4)
C23 C 0.3148(5) 1.2685(5) -0.0850(4)
C24 C 0.2240(6) 1.3696(6) -0.0809(5)
C25 C 0.2235(7) 1.4627(6) -0.0304(6)
C26 C 0.3176(7) 1.4537(6) 0.0354(5)
C27 C 0.4057(6) 1.3507(5) 0.0559(4)
C28 C 0.4044(5) 1.2527(5) 0.0096(4)
C29 C 0.1134(6) 1.1850(7) 0.3511(6)
O5 O 0.2245(4) 1.1766(5) 0.2774(4)
N1A N 0.4211(4) 1.1804(4) 0.4548(3)
O1A O 0.6508(3) 1.0627(3) 0.5288(3)
O2A O 0.4335(3) 0.9483(3) 0.6631(3)
C1A C 0.6936(5) 1.1925(5) 0.4868(4)
C2A C 0.8101(5) 1.2156(6) 0.5165(5)
C3A C 0.8614(6) 1.3454(6) 0.4791(5)
C4A C 0.7982(6) 1.4567(7) 0.4112(6)
C5A C 0.6835(6) 1.4356(5) 0.3818(5)
C6A C 0.6299(5) 1.3059(5) 0.4164(4)
C7A C 0.5102(5) 1.2946(5) 0.3706(4)
C8A C 0.3569(5) 1.2120(5) 0.5542(4)
C9A C 0.2623(5) 1.1025(6) 0.6383(4)
C10A C 0.1431(6) 1.1273(7) 0.6665(5)
C11A C 0.0513(6) 1.0247(8) 0.7484(5)
C12A C 0.0960(6) 0.8952(8) 0.8044(5)
C13A C 0.2243(6) 0.8686(6) 0.7760(5)
C14A C 0.3080(5) 0.9704(6) 0.6919(4)
Na1A Na 0.6071(2) 0.9696(2) 0.7428(2)
N2A N 0.6661(4) 0.9661(4) 1.0584(3)
O3A O 0.5845(3) 1.1072(3) 0.8426(3)
O4A O 0.5136(3) 0.8482(3) 0.9590(3)
C15A C 0.6730(5) 1.2026(5) 0.8250(4)
C16A C 0.6706(6) 1.3342(6) 0.7400(5)
C17A C 0.7678(6) 1.4283(6) 0.7191(5)
C18A C 0.8678(5) 1.3946(6) 0.7829(5)
C19A C 0.8695(3) 1.2637(6) 0.8678(5)
C20A C 0.7759(5) 1.1676(5) 0.8887(4)
C21A C 0.7850(5) 1.0213(5) 0.9703(4)
C22A C 0.6843(5) 0.8199(5) 1.1319(4)
C23A C 0.6852(5) 0.7315(5) 1.0850(4)
C24A C 0.7760(6) 0.6304(6) 1.0809(5)
C25A C 0.7765(7) 0.5373(6) 1.0304(6)
C26A C 0.6824(7) 0.5463(6) 0.9646(5)
C27A C 0.5943(6) 0.6493(5) 0.9441(4)
C28A C 0.5956(5) 0.7473(5) 0.9904(4)
C29A C 0.8866(6) 0.8150(7) 0.6489(6)
O5A O 0.7755(4) 0.8234(5) 0.7226(4)
N2A_2 N 0.6661(4) 0.9661(4) 0.0584(3)
O3A_2 O 0.5845(3) 1.1072(3) -0.1574(3)
O4A_2 O 0.5136(3) 0.8482(3) -0.0410(3)
Co2_2 Co 0.5000 1.0000 1.0000
loop_
_geom_bond_atom_site_label_1
_geom_bond_atom_site_label_2
_geom_bond_site_symmetry_1
_geom_bond_site_symmetry_2
Co1 N1 1_555 1_555
Co2 N2 1_555 1_555
Na1 O1 1_555 1_555
N1 C7 1_555 1_555
N2 C21 1_555 1_555
O1 Co1 1_555 1_555
O2 Co1 1_555 1_555
O3 Co2 1_555 1_555
O4 Co2 1_555 1_555
C1 O1 1_555 1_555
C2 C1 1_555 1_555
C3 C2 1_555 1_555
C4 C3 1_555 1_555
C5 C4 1_555 1_555
C6 C1 1_555 1_555
C7 C6 1_555 1_555
C8 N1 1_555 1_555
C9 C8 1_555 1_555
C10 C9 1_555 1_555
C11 C10 1_555 1_555
C12 C11 1_555 1_555
C13 C12 1_555 1_555
C14 O2 1_555 1_555
C15 O3 1_555 1_555
C16 C15 1_555 1_555
C17 C16 1_555 1_555
C18 C17 1_555 1_555
C19 C18 1_555 1_555
C20 C15 1_555 1_555
C21 C20 1_555 1_555
C22 N2 1_555 1_555
C23 C22 1_555 1_555
C24 C23 1_555 1_555
C25 C24 1_555 1_555
C26 C25 1_555 1_555
C27 C26 1_555 1_555
C28 O4 1_555 1_555
C29 O5 1_555 1_555
O5 Na1 1_555 1_555
N1A Co1 1_555 1_555
O1A Co1 1_555 1_555
O2A Co1 1_555 1_555
C1A O1A 1_555 1_555
C2A C1A 1_555 1_555
C3A C2A 1_555 1_555
C4A C3A 1_555 1_555
C5A C4A 1_555 1_555
C6A C1A 1_555 1_555
C7A N1A 1_555 1_555
C8A N1A 1_555 1_555
C9A C8A 1_555 1_555
C10A C9A 1_555 1_555
C11A C10A 1_555 1_555
C12A C11A 1_555 1_555
C13A C12A 1_555 1_555
C14A O2A 1_555 1_555
Na1A O1A 1_555 1_555
N2A C21A 1_555 1_555
O3A Na1A 1_555 1_555
O4A Na1A 1_555 1_555
C15A O3A 1_555 1_555
C16A C15A 1_555 1_555
C17A C16A 1_555 1_555
C18A C17A 1_555 1_555
C19A C18A 1_555 1_555
C20A C15A 1_555 1_555
C21A C20A 1_555 1_555
C22A N2A 1_555 1_555
C23A C22A 1_555 1_555
C24A C23A 1_555 1_555
C25A C24A 1_555 1_555
C26A C25A 1_555 1_555
C27A C26A 1_555 1_555
C28A O4A 1_555 1_555
C29A O5A 1_555 1_555
O5A Na1A 1_555 1_555
N2A_2 Co2 1_555 1_555
O3A_2 Co2 1_555 1_555
O4A_2 Co2 1_555 1_555
Co2_2 N2A 1_555 1_555
Na1 O2 1_555 1_555
Na1 O3 1_555 1_555
Na1 O4 1_555 1_555
C5 C6 1_555 1_555
C9 C14 1_555 1_555
C13 C14 1_555 1_555
C19 C20 1_555 1_555
C23 C28 1_555 1_555
C27 C28 1_555 1_555
O2A Na1A 1_555 1_555
C5A C6A 1_555 1_555
C6A C7A 1_555 1_555
C9A C14A 1_555 1_555
C13A C14A 1_555 1_555
O3A Co2_2 1_555 1_555
O4A Co2_2 1_555 1_555
C19A C20A 1_555 1_555
C23A C28A 1_555 1_555
C27A C28A 1_555 1_555

#END
