
#######################################################################
#
#                 Cambridge Crystallographic Data Centre
#                                CCDC 
#
#######################################################################
#
# If this CIF has been generated from an entry in the Cambridge 
# Structural Database, then it will include bibliographic, chemical, 
# crystal, experimental, refinement or atomic coordinate data resulting 
# from the CCDC's data processing and validation procedures.
#
#######################################################################

data_NABVAO
_symmetry_cell_setting           triclinic
_symmetry_space_group_name_H-M   'P -1'
_symmetry_Int_Tables_number      2
_space_group_name_Hall           '-P 1'
loop_
_symmetry_equiv_pos_site_id
_symmetry_equiv_pos_as_xyz
1 x,y,z
2 -x,-y,-z
_cell_length_a                   7.309(5)
_cell_length_b                   8.799(6)
_cell_length_c                   9.634(6)
_cell_angle_alpha                68.128(10)
_cell_angle_beta                 73.241(11)
_cell_angle_gamma                71.218(12)
_cell_volume                     534.272
loop_
_atom_site_label
_atom_site_type_symbol
_atom_site_fract_x
_atom_site_fract_y
_atom_site_fract_z
Co1 Co 0.2609(1) 0.2796(1) 0.6026(1)
O1 O 0.2515(5) 0.4177(4) 0.3869(3)
N1 N 0.2401(6) 0.4606(5) -0.3022(4)
S1 S -0.2796(2) 0.0623(2) 0.9317(2)
C1 C 0.2375(7) 0.5370(5) -0.0862(5)
C2 C 0.2117(7) 0.6255(6) -0.3859(5)
C3 C 0.2859(7) 0.3353(6) 0.1692(5)
C4 C -0.0928(8) 0.1292(6) 0.8085(5)
O2 O 0.3238(6) 0.1485(4) 0.4177(4)
O3 O 0.5108(5) 0.1267(4) 0.6595(4)
N2 N 0.0359(7) 0.1793(5) 0.7229(5)
C5 C 0.2526(7) 0.4191(6) -0.1564(5)
C6 C 0.2044(8) 0.7059(6) -0.1761(5)
C7 C 0.1895(8) 0.7499(6) -0.3255(5)
C8 C 0.2503(7) 0.4892(6) 0.0742(5)
C9 C 0.2903(7) 0.2997(6) 0.3304(5)
N1_2 N 0.2401(6) 0.4606(5) 0.6978(4)
Co1_2 Co 0.2609(1) 0.2796(1) -0.3974(1)
loop_
_geom_bond_atom_site_label_1
_geom_bond_atom_site_label_2
_geom_bond_site_symmetry_1
_geom_bond_site_symmetry_2
Co1 O1 1_555 1_555
O1 C9 1_555 1_555
N1 C2 1_555 1_555
S1 C4 1_555 1_555
C1 C5 1_555 1_555
C2 C7 1_555 1_555
C3 C8 1_555 1_555
C4 N2 1_555 1_555
O2 Co1 1_555 1_555
O3 Co1 1_555 1_555
N2 Co1 1_555 1_555
C5 N1 1_555 1_555
C6 C1 1_555 1_555
C7 C6 1_555 1_555
C8 C1 1_555 1_555
C9 C3 1_555 1_555
N1_2 Co1 1_555 1_555
Co1_2 N1 1_555 1_555
O2 C9 1_555 1_555

#END
