
#######################################################################
#
#                 Cambridge Crystallographic Data Centre
#                                CCDC 
#
#######################################################################
#
# If this CIF has been generated from an entry in the Cambridge 
# Structural Database, then it will include bibliographic, chemical, 
# crystal, experimental, refinement or atomic coordinate data resulting 
# from the CCDC's data processing and validation procedures.
#
#######################################################################

data_NABWOE
_symmetry_cell_setting           monoclinic
_symmetry_space_group_name_H-M   'C 2/c'
_symmetry_Int_Tables_number      15
_space_group_name_Hall           '-C 2yn'
loop_
_symmetry_equiv_pos_site_id
_symmetry_equiv_pos_as_xyz
1 x,y,z
2 -x,y,1/2-z
3 1/2+x,1/2+y,z
4 1/2-x,1/2+y,1/2-z
5 -x,-y,-z
6 x,-y,1/2+z
7 1/2-x,1/2-y,-z
8 1/2+x,1/2-y,1/2+z
_cell_length_a                   15.621(2)
_cell_length_b                   10.6503(9)
_cell_length_c                   12.1608(14)
_cell_angle_alpha                90
_cell_angle_beta                 92.451(10)
_cell_angle_gamma                90
_cell_volume                     2021.32
loop_
_atom_site_label
_atom_site_type_symbol
_atom_site_fract_x
_atom_site_fract_y
_atom_site_fract_z
Mn1 Mn 0.13454(2) 0.06133(3) 0.42337(3)
Mn2 Mn -0.2500 0.2500 0.5000
O1 O 0.17228(10) 0.22525(15) 0.33172(15)
O2 O 0.16239(11) 0.43369(14) 0.32982(15)
O3 O -0.14498(11) 0.60067(14) 0.39666(15)
O4 O -0.24132(10) 0.45238(14) 0.43498(14)
O5 O -0.08298(13) 0.07498(16) 0.4791(2)
N1 N 0.02077(11) 0.20102(16) 0.41734(15)
N2 N -0.11861(11) 0.27831(16) 0.45188(15)
C1 C 0.13286(14) 0.3280(2) 0.34533(18)
C2 C 0.04202(13) 0.31627(19) 0.38500(17)
C3 C -0.01365(13) 0.41689(19) 0.38494(18)
H1 H 0.0033 0.4986 0.3634
C4 C -0.09589(13) 0.39191(18) 0.41825(17)
C5 C -0.16590(14) 0.49253(19) 0.41629(18)
C6 C -0.06025(14) 0.1824(2) 0.45124(19)
O6 O 0.09191(14) -0.0351(2) 0.27196(18)
H2 H 0.0953 -0.1147 0.2753
H3 H 0.1001 -0.0151 0.2056
O7 O 0.17340(11) 0.14689(16) 0.58273(14)
H4 H 0.2203 0.1221 0.6134
H5 H 0.1756 0.2257 0.5934
O8 O -0.28729(13) 0.18637(18) 0.33413(15)
H6 H -0.2586 0.2045 0.2784
H7 H -0.3080 0.1132 0.3242
Mn1F Mn -0.63454(2) 0.43867(3) 0.57663(3)
Mn1B Mn -0.36546(2) 0.56133(3) 0.42337(3)
Mn1D Mn -0.13454(2) -0.06133(3) 0.57663(3)
O1F O -0.67228(10) 0.27475(15) 0.66828(15)
O2F O -0.66239(11) 0.06631(14) 0.67018(15)
O3F O -0.35502(11) -0.10067(14) 0.60334(15)
O4F O -0.25868(10) 0.04762(14) 0.56502(14)
O4B O 0.25868(10) -0.04762(14) 0.43498(14)
O4D O -0.75868(10) 0.54762(14) 0.56502(14)
O5F O -0.41702(13) 0.42502(16) 0.5209(2)
O5D O 0.08298(13) -0.07498(16) 0.5209(2)
O5B O -0.58298(13) 0.57498(16) 0.4791(2)
N1F N -0.52077(11) 0.29898(16) 0.58266(15)
N2F N -0.38139(11) 0.22169(16) 0.54812(15)
C1F C -0.63286(14) 0.1720(2) 0.65467(18)
C2F C -0.54202(13) 0.18373(19) 0.61500(17)
C3F C -0.48635(13) 0.08311(19) 0.61506(18)
H1F H -0.5033 0.0014 0.6366
C4F C -0.40411(13) 0.10809(18) 0.58175(17)
C5F C -0.33410(14) 0.00747(19) 0.58371(18)
C6F C -0.43975(14) 0.3176(2) 0.54876(19)
O6F O -0.59191(14) 0.5351(2) 0.72804(18)
H2F H -0.5953 0.6147 0.7247
H3F H -0.6001 0.5151 0.7944
O7F O -0.67340(11) 0.35311(16) 0.41727(14)
H4F H -0.7203 0.3779 0.3866
H5F H -0.6756 0.2743 0.4066
O8F O -0.21271(13) 0.31363(18) 0.66587(15)
H6F H -0.2414 0.2955 0.7216
H7F H -0.1920 0.3868 0.6758
O9 O 0.0000 0.7220(4) 0.2500
H8 H -0.0408 0.6839 0.2156
H8A H 0.0408 0.6839 0.2844
loop_
_geom_bond_atom_site_label_1
_geom_bond_atom_site_label_2
_geom_bond_site_symmetry_1
_geom_bond_site_symmetry_2
Mn1 O1 1_555 1_555
Mn2 O4 1_555 1_555
O1 C1 1_555 1_555
O2 C1 1_555 1_555
O3 C5 1_555 1_555
O4 C5 1_555 1_555
O5 C6 1_555 1_555
N1 Mn1 1_555 1_555
N2 Mn2 1_555 1_555
C1 C2 1_555 1_555
C2 N1 1_555 1_555
C3 C2 1_555 1_555
H1 C3 1_555 1_555
C4 N2 1_555 1_555
C5 C4 1_555 1_555
C6 N1 1_555 1_555
O6 Mn1 1_555 1_555
H2 O6 1_555 1_555
H3 O6 1_555 1_555
O7 Mn1 1_555 1_555
H4 O7 1_555 1_555
H5 O7 1_555 1_555
O8 Mn2 1_555 1_555
H6 O8 1_555 1_555
H7 O8 1_555 1_555
O9 H8 1_555 1_555
Mn1F O1F 1_555 1_555
Mn1B O4 1_555 1_555
Mn1D O5 1_555 1_555
O1F C1F 1_555 1_555
O2F C1F 1_555 1_555
O3F C5F 1_555 1_555
O4F Mn2 1_555 1_555
O4B Mn1 1_555 1_555
O4D Mn1F 1_555 1_555
O5F Mn1B 1_555 1_555
O5D Mn1 1_555 1_555
O5B Mn1F 1_555 1_555
N1F Mn1F 1_555 1_555
N2F Mn2 1_555 1_555
C1F C2F 1_555 1_555
C2F N1F 1_555 1_555
C3F C2F 1_555 1_555
H1F C3F 1_555 1_555
C4F N2F 1_555 1_555
C5F O4F 1_555 1_555
C6F O5F 1_555 1_555
O6F Mn1F 1_555 1_555
H2F O6F 1_555 1_555
H3F O6F 1_555 1_555
O7F Mn1F 1_555 1_555
H4F O7F 1_555 1_555
H5F O7F 1_555 1_555
O8F Mn2 1_555 1_555
H6F O8F 1_555 1_555
H7F O8F 1_555 1_555
H8A O9 1_555 1_555
N2 C6 1_555 1_555
C3 C4 1_555 1_555
Mn1D O4F 1_555 1_555
N1F C6F 1_555 1_555
N2F C6F 1_555 1_555
C3F C4F 1_555 1_555
C4F C5F 1_555 1_555

#END
