
#######################################################################
#
#                 Cambridge Crystallographic Data Centre
#                                CCDC 
#
#######################################################################
#
# If this CIF has been generated from an entry in the Cambridge 
# Structural Database, then it will include bibliographic, chemical, 
# crystal, experimental, refinement or atomic coordinate data resulting 
# from the CCDC's data processing and validation procedures.
#
#######################################################################

data_NABYUL
_symmetry_cell_setting           monoclinic
_symmetry_space_group_name_H-M   'P 21/c'
_symmetry_Int_Tables_number      14
_space_group_name_Hall           '-P 2ybc'
loop_
_symmetry_equiv_pos_site_id
_symmetry_equiv_pos_as_xyz
1 x,y,z
2 x,1/2-y,1/2+z
3 -x,-y,-z
4 -x,1/2+y,1/2-z
_cell_length_a                   8.118(4)
_cell_length_b                   12.011(13)
_cell_length_c                   9.315(9)
_cell_angle_alpha                90
_cell_angle_beta                 94.91(6)
_cell_angle_gamma                90
_cell_volume                     904.929
loop_
_atom_site_label
_atom_site_type_symbol
_atom_site_fract_x
_atom_site_fract_y
_atom_site_fract_z
Ag1 Ag 0.92141(5) 0.58962(4) 0.13391(4)
O1 O 0.9051(4) 0.5913(3) -0.1029(4)
N1 N 0.8781(5) 0.6110(3) -0.6394(4)
N2 N 0.6377(5) 0.6382(4) -0.1590(5)
H1 H 0.6164 0.6382 -0.0701
H2 H 0.5610 0.6536 -0.2255
C1 C 0.8171(5) 0.6156(4) -0.3502(5)
C2 C 0.9711(6) 0.6453(4) -0.3937(5)
H3 H 1.0561 0.6665 -0.3260
C3 C 0.9960(6) 0.6429(4) -0.5377(5)
H4 H 1.0986 0.6642 -0.5659
C4 C 0.7307(7) 0.5814(4) -0.5973(6)
H5 H 0.6491 0.5578 -0.6668
C5 C 0.6949(6) 0.5846(4) -0.4561(6)
H6 H 0.5897 0.5660 -0.4316
C6 C 0.7871(6) 0.6146(4) -0.1930(5)
N1_2 N 0.8781(5) 0.6110(3) 0.3606(4)
Ag1_2 Ag 0.92141(5) 0.58962(4) -0.86609(4)
F1 F 0.3612(5) 0.7892(3) 0.1265(5)
F2 F 0.5158(4) 0.6354(4) 0.1202(4)
B1 B 0.3550(7) 0.6747(6) 0.1144(8)
F3 F 0.2721(6) 0.6427(5) -0.0111(6)
F4 F 0.2776(7) 0.6323(4) 0.2273(6)
loop_
_geom_bond_atom_site_label_1
_geom_bond_atom_site_label_2
_geom_bond_site_symmetry_1
_geom_bond_site_symmetry_2
Ag1 O1 1_555 1_555
O1 C6 1_555 1_555
N1 C3 1_555 1_555
N2 H1 1_555 1_555
H2 N2 1_555 1_555
F1 B1 1_555 1_555
F2 B1 1_555 1_555
B1 F3 1_555 1_555
F4 B1 1_555 1_555
C1 C2 1_555 1_555
C2 H3 1_555 1_555
C3 C2 1_555 1_555
H4 C3 1_555 1_555
C4 N1 1_555 1_555
H5 C4 1_555 1_555
C5 C1 1_555 1_555
H6 C5 1_555 1_555
C6 N2 1_555 1_555
N1_2 Ag1 1_555 1_555
Ag1_2 N1 1_555 1_555
C1 C6 1_555 1_555
C4 C5 1_555 1_555

#END
