
#######################################################################
#
#                 Cambridge Crystallographic Data Centre
#                                CCDC 
#
#######################################################################
#
# If this CIF has been generated from an entry in the Cambridge 
# Structural Database, then it will include bibliographic, chemical, 
# crystal, experimental, refinement or atomic coordinate data resulting 
# from the CCDC's data processing and validation procedures.
#
#######################################################################

data_NABYIZ
_symmetry_cell_setting           orthorhombic
_symmetry_space_group_name_H-M   'P b a n'
_symmetry_Int_Tables_number      50
_space_group_name_Hall           '-P 2ab 2b'
loop_
_symmetry_equiv_pos_site_id
_symmetry_equiv_pos_as_xyz
1 x,y,z
2 1/2+x,1/2+y,-z
3 1/2+x,-y,z
4 -x,1/2+y,z
5 -x,-y,-z
6 1/2-x,1/2-y,z
7 1/2-x,y,-z
8 x,1/2-y,-z
_cell_length_a                   9.143(2)
_cell_length_b                   20.837(6)
_cell_length_c                   3.8900(10)
_cell_angle_alpha                90
_cell_angle_beta                 90
_cell_angle_gamma                90
_cell_volume                     741.094
loop_
_atom_site_label
_atom_site_type_symbol
_atom_site_fract_x
_atom_site_fract_y
_atom_site_fract_z
Fe1 Fe 0.2500 0.38098(3) 0.5000
F1 F 0.09723(15) 0.43925(8) 0.4996(4)
F2 F 0.2500 0.37588(12) 0.0000
C1 C 0.1651(3) 0.2500 0.5000
O1 O 0.10483(17) 0.30385(10) 0.5004(5)
C1E C 0.3349(3) 0.2500 0.5000
O1E O 0.39517(17) 0.19615(10) 0.5004(5)
O1F O 0.39517(17) 0.30385(10) 0.4996(5)
O1G O 0.10483(17) 0.19615(10) 0.4996(5)
F1F F 0.40277(15) 0.43925(8) 0.5004(4)
F2_2 F 0.2500 0.37588(12) 1.0000
Fe1_2 Fe 0.2500 0.38098(3) 1.5000
F1_2 F 0.09723(15) 0.43925(8) 1.4996(4)
F1F_2 F 0.40277(15) 0.43925(8) 1.5004(4)
Fe1_3 Fe 0.2500 0.38098(3) -0.5000
Fe1E Fe 0.2500 0.11902(3) 0.5000
F2_3 F 0.2500 0.37588(12) 2.0000
O1_2 O 0.10483(17) 0.30385(10) 1.5004(5)
O1F_2 O 0.39517(17) 0.30385(10) 1.4996(5)
N1 N 0.1491(3) 0.58228(15) 0.8643(7)
C2 C 0.1864(4) 0.6444(2) 0.9157(10)
C3 C 0.2500 0.5460(3) 1.0000
H1 H 0.2500 0.507(3) 1.0000
H2 H 0.082(4) 0.5698(17) 0.754(9)
H3 H 0.145(3) 0.6774(16) 0.828(9)
C2F C 0.3136(4) 0.6444(2) 1.0843(10)
N1F N 0.3509(3) 0.58228(15) 1.1357(7)
H2F H 0.418(4) 0.5698(17) 1.246(9)
H3F H 0.355(3) 0.6774(16) 1.172(9)
loop_
_geom_bond_atom_site_label_1
_geom_bond_atom_site_label_2
_geom_bond_site_symmetry_1
_geom_bond_site_symmetry_2
Fe1 F1 1_555 1_555
F2 Fe1 1_555 1_555
C1 O1 1_555 1_555
O1 Fe1 1_555 1_555
N1 C2 1_555 1_555
C2 H3 1_555 1_555
C3 N1 1_555 1_555
H1 C3 1_555 1_555
H2 N1 1_555 1_555
C1E C1 1_555 1_555
O1E C1E 1_555 1_555
O1F Fe1 1_555 1_555
O1G C1 1_555 1_555
C2F C2 1_555 1_555
N1F C3 1_555 1_555
H2F N1F 1_555 1_555
H3F C2F 1_555 1_555
F1F Fe1 1_555 1_555
F2_2 Fe1 1_555 1_555
Fe1_2 F2_2 1_555 1_555
F1_2 Fe1_2 1_555 1_555
F1F_2 Fe1_2 1_555 1_555
Fe1_3 F2 1_555 1_555
Fe1E O1E 1_555 1_555
F2_3 Fe1_2 1_555 1_555
O1_2 Fe1_2 1_555 1_555
O1F_2 Fe1_2 1_555 1_555
C1E O1F 1_555 1_555
O1G Fe1E 1_555 1_555
C2F N1F 1_555 1_555

#END
