
#######################################################################
#
#                 Cambridge Crystallographic Data Centre
#                                CCDC 
#
#######################################################################
#
# If this CIF has been generated from an entry in the Cambridge 
# Structural Database, then it will include bibliographic, chemical, 
# crystal, experimental, refinement or atomic coordinate data resulting 
# from the CCDC's data processing and validation procedures.
#
#######################################################################

data_NABZUM
_symmetry_cell_setting           monoclinic
_symmetry_space_group_name_H-M   'P 21/n'
_symmetry_Int_Tables_number      14
_space_group_name_Hall           '-P 2yn'
loop_
_symmetry_equiv_pos_site_id
_symmetry_equiv_pos_as_xyz
1 x,y,z
2 1/2+x,1/2-y,1/2+z
3 -x,-y,-z
4 1/2-x,1/2+y,1/2-z
_cell_length_a                   12.4019(2)
_cell_length_b                   11.7497(1)
_cell_length_c                   29.2694(5)
_cell_angle_alpha                90
_cell_angle_beta                 95.2780(1)
_cell_angle_gamma                90
_cell_volume                     4247.01
loop_
_atom_site_label
_atom_site_type_symbol
_atom_site_fract_x
_atom_site_fract_y
_atom_site_fract_z
Nd1 Nd -0.80013(3) 0.22686(3) 0.167783(11)
S1 S -0.65546(13) -0.04594(13) 0.14429(5)
S2 S -0.04172(13) 0.12360(14) 0.16439(5)
S3 S 0.16819(14) -0.46156(13) 0.14245(6)
S4 S -0.40101(15) -0.66215(14) 0.15313(6)
O1 O -0.7415(4) -0.1284(4) 0.14215(19)
O2 O -0.6951(4) 0.0698(4) 0.13445(15)
O3 O -0.5867(4) -0.0479(4) 0.18788(16)
O4 O -0.3803(3) -0.1801(4) -0.00033(14)
H1 H -0.3933 -0.2479 -0.0081
O5 O -0.1193(4) 0.1054(4) 0.19726(15)
O6 O -0.0244(4) 0.2424(4) 0.15332(16)
O7 O 0.0661(4) 0.0725(4) 0.17829(15)
O8 O -0.1994(4) -0.0827(4) -0.01227(14)
H2 H -0.2642 -0.0637 -0.0192
O9 O 0.1607(5) -0.3828(4) 0.17920(17)
O10 O 0.2741(4) -0.4572(4) 0.12447(18)
O11 O 0.1384(4) -0.5776(4) 0.15352(17)
O12 O -0.1342(4) -0.3212(4) -0.01352(14)
H3 H -0.1206 -0.2537 -0.0205
O13 O -0.2963(5) -0.6982(7) 0.1741(2)
O14 O -0.4644(6) -0.7595(4) 0.1363(2)
O15 O -0.4588(4) -0.5925(4) 0.18344(16)
O16 O -0.3272(3) -0.3815(3) -0.00775(14)
H4 H -0.2673 -0.3987 -0.0171
O17 O -0.8764(4) 0.1875(4) 0.08830(14)
O18 O -0.8720(4) 0.2789(4) 0.24248(16)
O19 O -0.6553(4) 0.3342(5) 0.20846(17)
O20 O -0.6789(5) 0.3053(4) 0.11167(17)
O21 O -0.7213(4) 0.0997(4) 0.22986(16)
C1 C -0.5729(5) -0.0840(5) 0.1008(2)
C2 C -0.4989(5) -0.0069(5) 0.0850(2)
H5 H -0.4937 0.0679 0.0973
C3 C -0.4330(5) -0.0389(5) 0.0515(2)
C4 C -0.4413(5) -0.1508(5) 0.0339(2)
C5 C -0.5139(5) -0.2281(5) 0.0504(2)
C6 C -0.5787(5) -0.1939(5) 0.0842(2)
H6 H -0.6273 -0.2466 0.0959
C7 C -0.3529(5) 0.0466(5) 0.0347(2)
H7 H -0.3569 0.0433 0.0008
H8 H -0.3746 0.1242 0.0434
C8 C -0.2362(5) 0.0260(5) 0.0540(2)
C9 C -0.1975(5) 0.0740(5) 0.0953(2)
H9 H -0.2426 0.1221 0.1113
C10 C -0.0918(5) 0.0514(5) 0.1134(2)
C11 C -0.0247(5) -0.0212(5) 0.0915(2)
H10 H 0.0466 -0.0366 0.1048
C12 C -0.0624(5) -0.0717(5) 0.0496(2)
C13 C -0.1663(5) -0.0439(5) 0.0308(2)
C14 C 0.0128(5) -0.1512(5) 0.0262(2)
H11 H -0.0077 -0.1508 -0.0073
H12 H 0.0881 -0.1232 0.0316
C15 C 0.0070(5) -0.2729(5) 0.0441(2)
C16 C 0.0777(5) -0.3075(5) 0.0811(2)
H13 H 0.1294 -0.2554 0.0950
C17 C 0.0733(5) -0.4183(5) 0.0979(2)
C18 C -0.0048(5) -0.4940(5) 0.0792(2)
H14 H -0.0093 -0.5681 0.0920
C19 C -0.0764(5) -0.4621(5) 0.0420(2)
C20 C -0.0681(5) -0.3526(5) 0.0243(2)
C21 C -0.1634(5) -0.5436(5) 0.0224(2)
H15 H -0.1775 -0.5304 -0.0110
H16 H -0.1374 -0.6228 0.0270
C22 C -0.2670(5) -0.5289(5) 0.0446(2)
C23 C -0.2858(5) -0.5937(5) 0.0830(2)
H17 H -0.2348 -0.6500 0.0939
C24 C -0.3785(5) -0.5767(5) 0.1054(2)
C25 C -0.4557(5) -0.4967(5) 0.0889(2)
H18 H -0.5195 -0.4865 0.1041
C26 C -0.4400(5) -0.4321(5) 0.0505(2)
C27 C -0.3443(5) -0.4457(5) 0.0284(2)
C28 C -0.5262(5) -0.3479(5) 0.0313(2)
H19 H -0.5248 -0.3444 -0.0024
H20 H -0.5981 -0.3774 0.0377
O6_2 O -1.0244(4) 0.2424(4) 0.15332(16)
O7_2 O -0.9339(4) 0.0725(4) 0.17829(15)
O11_2 O -0.8616(4) 0.4224(4) 0.15352(17)
Nd1_2 Nd 0.19987(3) 0.22686(3) 0.167783(11)
Nd1_3 Nd 0.19987(3) -0.77314(3) 0.167783(11)
O22 O -0.9351(4) 0.1279(4) 0.30521(18)
O23 O -0.1107(6) 0.4306(5) 0.1940(2)
O24 O -0.3718(4) 0.0359(4) 0.19327(16)
O25 O -0.6001(4) 0.3479(4) 0.29743(16)
N1 N -0.2638(5) -0.1631(4) 0.18483(19)
N2 N -0.1889(5) -0.3610(5) 0.1857(2)
C29 C -0.1527(7) -0.1622(6) 0.2091(3)
H21 H -0.1545 -0.1282 0.2400
H22 H -0.1039 -0.1158 0.1917
C30 C -0.1108(7) -0.2837(6) 0.2134(3)
H23 H -0.0383 -0.2887 0.2020
H24 H -0.1043 -0.3074 0.2460
C31 C -0.2937(6) -0.3612(6) 0.2057(3)
H25 H -0.2855 -0.3981 0.2362
H26 H -0.3474 -0.4052 0.1857
C32 C -0.3334(7) -0.2398(6) 0.2103(3)
H27 H -0.4099 -0.2336 0.1975
H28 H -0.3289 -0.2178 0.2431
C33 C -0.2593(7) -0.2034(6) 0.1372(2)
H29 H -0.2195 -0.1476 0.1198
H30 H -0.3336 -0.2108 0.1220
C34 C -0.2026(7) -0.3176(7) 0.1377(2)
H31 H -0.2461 -0.3721 0.1178
H32 H -0.1310 -0.3093 0.1256
H33 H -0.289(4) -0.091(2) 0.188(2)
loop_
_geom_bond_atom_site_label_1
_geom_bond_atom_site_label_2
_geom_bond_site_symmetry_1
_geom_bond_site_symmetry_2
Nd1 O2 1_555 1_555
S1 O1 1_555 1_555
S2 O5 1_555 1_555
S3 O9 1_555 1_555
S4 O13 1_555 1_555
O2 S1 1_555 1_555
O3 S1 1_555 1_555
O4 H1 1_555 1_555
O6 S2 1_555 1_555
O7 S2 1_555 1_555
O8 H2 1_555 1_555
O10 S3 1_555 1_555
O11 S3 1_555 1_555
O12 H3 1_555 1_555
O14 S4 1_555 1_555
O15 S4 1_555 1_555
O16 H4 1_555 1_555
O17 Nd1 1_555 1_555
O18 Nd1 1_555 1_555
O19 Nd1 1_555 1_555
O20 Nd1 1_555 1_555
O21 Nd1 1_555 1_555
N1 C29 1_555 1_555
N2 C30 1_555 1_555
C1 S1 1_555 1_555
C2 C1 1_555 1_555
H5 C2 1_555 1_555
C3 C2 1_555 1_555
C4 O4 1_555 1_555
C5 C4 1_555 1_555
C6 C1 1_555 1_555
H6 C6 1_555 1_555
C7 C3 1_555 1_555
H7 C7 1_555 1_555
H8 C7 1_555 1_555
C8 C7 1_555 1_555
C9 C8 1_555 1_555
H9 C9 1_555 1_555
C10 S2 1_555 1_555
C11 C10 1_555 1_555
H10 C11 1_555 1_555
C12 C11 1_555 1_555
C13 O8 1_555 1_555
C14 C12 1_555 1_555
H11 C14 1_555 1_555
H12 C14 1_555 1_555
C15 C14 1_555 1_555
C16 C15 1_555 1_555
H13 C16 1_555 1_555
C17 S3 1_555 1_555
C18 C17 1_555 1_555
H14 C18 1_555 1_555
C19 C18 1_555 1_555
C20 O12 1_555 1_555
C21 C19 1_555 1_555
H15 C21 1_555 1_555
H16 C21 1_555 1_555
C22 C21 1_555 1_555
C23 C22 1_555 1_555
H17 C23 1_555 1_555
C24 S4 1_555 1_555
C25 C24 1_555 1_555
H18 C25 1_555 1_555
C26 C25 1_555 1_555
C27 O16 1_555 1_555
C28 C5 1_555 1_555
H19 C28 1_555 1_555
H20 C28 1_555 1_555
C29 H21 1_555 1_555
H22 C29 1_555 1_555
C30 C29 1_555 1_555
H23 C30 1_555 1_555
H24 C30 1_555 1_555
C31 N2 1_555 1_555
H25 C31 1_555 1_555
H26 C31 1_555 1_555
C32 N1 1_555 1_555
H27 C32 1_555 1_555
H28 C32 1_555 1_555
C33 N1 1_555 1_555
H29 C33 1_555 1_555
H30 C33 1_555 1_555
C34 N2 1_555 1_555
H31 C34 1_555 1_555
H32 C34 1_555 1_555
H33 N1 1_555 1_555
O6_2 Nd1 1_555 1_555
O7_2 Nd1 1_555 1_555
O11_2 Nd1 1_555 1_555
Nd1_2 O6 1_555 1_555
Nd1_3 O11 1_555 1_555
O7 Nd1_2 1_555 1_555
C3 C4 1_555 1_555
C5 C6 1_555 1_555
C8 C13 1_555 1_555
C9 C10 1_555 1_555
C12 C13 1_555 1_555
C15 C20 1_555 1_555
C16 C17 1_555 1_555
C19 C20 1_555 1_555
C22 C27 1_555 1_555
C23 C24 1_555 1_555
C26 C28 1_555 1_555
C26 C27 1_555 1_555
C31 C32 1_555 1_555
C33 C34 1_555 1_555

#END
