
#######################################################################
#
#                 Cambridge Crystallographic Data Centre
#                                CCDC 
#
#######################################################################
#
# If this CIF has been generated from an entry in the Cambridge 
# Structural Database, then it will include bibliographic, chemical, 
# crystal, experimental, refinement or atomic coordinate data resulting 
# from the CCDC's data processing and validation procedures.
#
#######################################################################

data_NABZOG
_symmetry_cell_setting           tetragonal
_symmetry_space_group_name_H-M   'P 4/n n c'
_symmetry_Int_Tables_number      126
_space_group_name_Hall           '-P 4a 2bc'
loop_
_symmetry_equiv_pos_site_id
_symmetry_equiv_pos_as_xyz
1 x,y,z
2 1/2-y,x,z
3 y,1/2-x,z
4 y,x,1/2-z
5 1/2+x,1/2+y,-z
6 -x,1/2+y,1/2+z
7 1/2+x,-y,1/2+z
8 1/2+y,1/2+x,1/2+z
9 -x,-y,-z
10 1/2+y,-x,-z
11 -y,1/2+x,-z
12 -y,-x,1/2+z
13 1/2-x,1/2-y,z
14 x,1/2-y,1/2-z
15 1/2-x,y,1/2-z
16 1/2-y,1/2-x,1/2-z
_cell_length_a                   12.0238(8)
_cell_length_b                   12.0238(8)
_cell_length_c                   29.3233(16)
_cell_angle_alpha                90
_cell_angle_beta                 90
_cell_angle_gamma                90
_cell_volume                     4239.32
loop_
_atom_site_label
_atom_site_type_symbol
_atom_site_fract_x
_atom_site_fract_y
_atom_site_fract_z
Nd1 Nd 0.2500 0.79357(11) 0.2500
S1 S 0.0635(2) 0.8525(2) 0.34338(11)
O1 O -0.0194(10) 0.9066(9) 0.3207(5)
O2 O 0.0313(7) 0.7474(7) 0.3603(3)
O3 O 0.1707(8) 0.8425(11) 0.3163(3)
O4 O 0.1829(5) 1.1056(5) 0.50789(18)
H1 H 0.1325 1.1508 0.5149
O5 O 0.2500 0.981(2) 0.2500
O6 O 0.4036(11) 0.8607(8) 0.2760(4)
C1 C 0.0498(5) 1.0664(5) 0.4496(3)
C2 C 0.0215(6) 1.0079(6) 0.4134(4)
H2 H -0.0506 1.0157 0.4005
C3 C 0.0986(7) 0.9337(6) 0.3940(3)
C4 C 0.2037(6) 0.9204(6) 0.4117(3)
H3 H 0.2551 0.8710 0.3978
C5 C 0.2334(5) 0.9799(6) 0.4501(3)
C6 C 0.1551(6) 1.0530(6) 0.4687(2)
C7 C -0.0344(6) 1.1506(6) 0.4703(3)
H4 H -0.1111 1.1243 0.4645
H5 H -0.0235 1.1543 0.5038
C7A C 0.3494(6) 0.9656(6) 0.4703(3)
C1A C 0.4336(5) 1.0498(5) 0.4496(3)
C2A C 0.4921(6) 1.0215(6) 0.4134(4)
H2A H 0.4843 0.9494 0.4005
C3A C 0.5663(6) 1.0986(7) 0.3940(3)
S1A S 0.6475(2) 1.0635(2) 0.34338(11)
O1A O 0.5934(9) 0.9806(10) 0.3207(5)
O2A O 0.7526(7) 1.0313(7) 0.3603(3)
O3A O 0.6575(11) 1.1707(8) 0.3163(3)
C4A C 0.5796(6) 1.2037(6) 0.4117(3)
H3A H 0.6290 1.2551 0.3978
C5A C 0.5201(6) 1.2334(5) 0.4501(3)
C6A C 0.4470(6) 1.1551(6) 0.4687(2)
O4A O 0.3944(5) 1.1829(5) 0.50789(18)
H1A H 0.3492 1.1325 0.5149
C7L C 0.5344(6) 1.3494(6) 0.4703(3)
C1L C 0.4502(5) 1.4336(5) 0.4496(3)
C2L C 0.4785(6) 1.4921(6) 0.4134(4)
H2L H 0.5506 1.4843 0.4005
C3L C 0.4014(7) 1.5663(6) 0.3940(3)
S1L S 0.4365(2) 1.6475(2) 0.34338(11)
O1L O 0.5194(10) 1.5934(9) 0.3207(5)
O2L O 0.4687(7) 1.7526(7) 0.3603(3)
O3L O 0.3293(8) 1.6575(11) 0.3163(3)
C4L C 0.2963(6) 1.5796(6) 0.4117(3)
H3L H 0.2449 1.6290 0.3978
C5L C 0.2666(5) 1.5201(6) 0.4501(3)
C6L C 0.3449(6) 1.4470(6) 0.4687(2)
O4L O 0.3171(5) 1.3944(5) 0.50789(18)
H1L H 0.3675 1.3492 0.5149
C7B C 0.1506(6) 1.5344(6) 0.4703(3)
C1B C 0.0664(5) 1.4502(5) 0.4496(3)
C2B C 0.0079(6) 1.4785(6) 0.4134(4)
H2B H 0.0157 1.5506 0.4005
C3B C -0.0663(6) 1.4014(7) 0.3940(3)
S1B S -0.1475(2) 1.4365(2) 0.34338(11)
O1B O -0.0934(9) 1.5194(10) 0.3207(5)
O2B O -0.2526(7) 1.4687(7) 0.3603(3)
O3B O -0.1575(11) 1.3293(8) 0.3163(3)
C4B C -0.0796(6) 1.2963(6) 0.4117(3)
H3B H -0.1290 1.2449 0.3978
C5B C -0.0201(6) 1.2666(5) 0.4501(3)
C6B C 0.0530(6) 1.3449(6) 0.4687(2)
O4B O 0.1056(5) 1.3171(5) 0.50789(18)
H1B H 0.1508 1.3675 0.5149
H4B H 0.1243 1.6111 0.4645
H5B H 0.1543 1.5235 0.5038
H4L H 0.6111 1.3757 0.4645
H5L H 0.5235 1.3457 0.5038
H4A H 0.3757 0.8889 0.4645
H5A H 0.3457 0.9765 0.5038
O6L O 0.0964(11) 0.6393(8) 0.2760(4)
O6M O 0.4036(11) 0.6393(8) 0.2240(4)
O6N O 0.0964(11) 0.8607(8) 0.2240(4)
Nd1A Nd 0.70643(11) 1.2500 0.2500
O5A O 0.519(2) 1.2500 0.2500
Nd1L Nd 0.2500 0.70643(11) 0.2500
O3L_2 O 0.3293(8) 0.6575(11) 0.3163(3)
O3M O 0.1707(8) 0.6575(11) 0.1837(3)
O3N O 0.3293(8) 0.8425(11) 0.1837(3)
Nd1B Nd 0.79357(11) 1.2500 0.2500
Nd1_2 Nd 0.2500 1.79357(11) 0.2500
Nd1L_2 Nd 0.2500 1.70643(11) 0.2500
Nd1A_2 Nd -0.29357(11) 1.2500 0.2500
Nd1B_2 Nd -0.20643(11) 1.2500 0.2500
O3B_2 O 0.8425(11) 1.3293(8) 0.3163(3)
O3C O 0.8425(11) 1.1707(8) 0.1837(3)
O3O O 0.6575(11) 1.3293(8) 0.1837(3)
O6A O 0.6393(8) 1.4036(11) 0.2760(4)
O6B O 0.8607(8) 1.0964(11) 0.2760(4)
O6C O 0.8607(8) 1.4036(11) 0.2240(4)
O6O O 0.6393(8) 1.0964(11) 0.2240(4)
loop_
_geom_bond_atom_site_label_1
_geom_bond_atom_site_label_2
_geom_bond_site_symmetry_1
_geom_bond_site_symmetry_2
Nd1 O3 1_555 1_555
S1 O1 1_555 1_555
O2 S1 1_555 1_555
O3 S1 1_555 1_555
O4 H1 1_555 1_555
O5 Nd1 1_555 1_555
O6 Nd1 1_555 1_555
C1 C2 1_555 1_555
C2 H2 1_555 1_555
C3 S1 1_555 1_555
C4 C3 1_555 1_555
H3 C4 1_555 1_555
C5 C4 1_555 1_555
C6 O4 1_555 1_555
C7 C1 1_555 1_555
H4 C7 1_555 1_555
H5 C7 1_555 1_555
C7A C5 1_555 1_555
C1A C7A 1_555 1_555
C2A C1A 1_555 1_555
H2A C2A 1_555 1_555
C3A C2A 1_555 1_555
S1A C3A 1_555 1_555
O1A S1A 1_555 1_555
O2A S1A 1_555 1_555
O3A S1A 1_555 1_555
C4A C3A 1_555 1_555
H3A C4A 1_555 1_555
C5A C4A 1_555 1_555
C6A C1A 1_555 1_555
O4A C6A 1_555 1_555
H1A O4A 1_555 1_555
C7L C5A 1_555 1_555
C1L C7L 1_555 1_555
C2L C1L 1_555 1_555
H2L C2L 1_555 1_555
C3L C2L 1_555 1_555
S1L C3L 1_555 1_555
O1L S1L 1_555 1_555
O2L S1L 1_555 1_555
O3L S1L 1_555 1_555
C4L C3L 1_555 1_555
H3L C4L 1_555 1_555
C5L C4L 1_555 1_555
C6L C1L 1_555 1_555
O4L C6L 1_555 1_555
H1L O4L 1_555 1_555
C7B C5L 1_555 1_555
C1B C7B 1_555 1_555
C2B C1B 1_555 1_555
H2B C2B 1_555 1_555
C3B C2B 1_555 1_555
S1B C3B 1_555 1_555
O1B S1B 1_555 1_555
O2B S1B 1_555 1_555
O3B S1B 1_555 1_555
C4B C3B 1_555 1_555
H3B C4B 1_555 1_555
C5B C7 1_555 1_555
C6B C1B 1_555 1_555
O4B C6B 1_555 1_555
H1B O4B 1_555 1_555
H4B C7B 1_555 1_555
H5B C7B 1_555 1_555
H4L C7L 1_555 1_555
H5L C7L 1_555 1_555
H4A C7A 1_555 1_555
H5A C7A 1_555 1_555
O6L Nd1 1_555 1_555
O6M Nd1 1_555 1_555
O6N Nd1 1_555 1_555
Nd1A O3A 1_555 1_555
O5A Nd1A 1_555 1_555
Nd1L Nd1 1_555 1_555
O3L_2 Nd1 1_555 1_555
O3M Nd1 1_555 1_555
O3N Nd1 1_555 1_555
Nd1B O3A 1_555 1_555
Nd1_2 O3L 1_555 1_555
Nd1L_2 O3L 1_555 1_555
Nd1A_2 O3B 1_555 1_555
Nd1B_2 O3B 1_555 1_555
O3B_2 Nd1A 1_555 1_555
O3C Nd1A 1_555 1_555
O3O Nd1A 1_555 1_555
O6A Nd1A 1_555 1_555
O6B Nd1A 1_555 1_555
O6C Nd1A 1_555 1_555
O6O Nd1A 1_555 1_555
O3 Nd1L 1_555 1_555
O6 Nd1L 1_555 1_555
C1 C6 1_555 1_555
C2 C3 1_555 1_555
C5 C6 1_555 1_555
C5A C6A 1_555 1_555
C5L C6L 1_555 1_555
C4B C5B 1_555 1_555
C5B C6B 1_555 1_555
O6L Nd1L 1_555 1_555
O6M Nd1L 1_555 1_555
O6N Nd1L 1_555 1_555
Nd1A Nd1B 1_555 1_555
Nd1L O3L_2 1_555 1_555
Nd1L O3M 1_555 1_555
Nd1L O3N 1_555 1_555
Nd1B O3B_2 1_555 1_555
Nd1B O3C 1_555 1_555
Nd1B O3O 1_555 1_555
Nd1B O6A 1_555 1_555
Nd1B O6B 1_555 1_555
Nd1B O6C 1_555 1_555
Nd1B O6O 1_555 1_555
Nd1_2 Nd1L_2 1_555 1_555
Nd1A_2 Nd1B_2 1_555 1_555

#END
