
#######################################################################
#
#                 Cambridge Crystallographic Data Centre
#                                CCDC 
#
#######################################################################
#
# If this CIF has been generated from an entry in the Cambridge 
# Structural Database, then it will include bibliographic, chemical, 
# crystal, experimental, refinement or atomic coordinate data resulting 
# from the CCDC's data processing and validation procedures.
#
#######################################################################

data_NACDOL
_symmetry_cell_setting           triclinic
_symmetry_space_group_name_H-M   'P -1'
_symmetry_Int_Tables_number      2
_space_group_name_Hall           '-P 1'
loop_
_symmetry_equiv_pos_site_id
_symmetry_equiv_pos_as_xyz
1 x,y,z
2 -x,-y,-z
_cell_length_a                   7.3717(15)
_cell_length_b                   10.852(2)
_cell_length_c                   14.728(3)
_cell_angle_alpha                108.36(3)
_cell_angle_beta                 93.83(3)
_cell_angle_gamma                103.67(3)
_cell_volume                     1073.74
loop_
_atom_site_label
_atom_site_type_symbol
_atom_site_fract_x
_atom_site_fract_y
_atom_site_fract_z
Ni1 Ni 0.28491(6) 0.06824(5) 0.27213(4)
O1 O 0.0751(3) -0.0978(2) 0.22816(18)
O2 O 0.3087(3) -0.1956(3) 0.2130(2)
O3 O 0.2399(3) -0.4513(3) 0.1506(2)
H1 H 0.3043 -0.3727 0.1725
O4 O 0.4934(3) 0.2360(2) 0.31456(17)
O5 O 0.6740(3) 0.0973(2) 0.26776(18)
O6 O 1.0291(3) 0.1872(2) 0.29577(19)
N1 N 0.2899(4) 0.0753(3) 0.4125(2)
N2 N 0.2731(4) 0.0729(3) 0.1361(2)
C1 C 0.1338(5) -0.2035(4) 0.2052(3)
C2 C -0.0050(5) -0.3379(4) 0.1675(3)
C3 C 0.0555(5) -0.4548(4) 0.1413(3)
C4 C -0.0761(6) -0.5806(4) 0.1057(4)
H2 H -0.0348 -0.6584 0.0888
C5 C -0.2660(6) -0.5913(4) 0.0953(4)
H3 H -0.3526 -0.6759 0.0705
C6 C -0.3288(5) -0.4766(4) 0.1215(3)
H4 H -0.4575 -0.4835 0.1151
C7 C -0.1986(5) -0.3517(4) 0.1573(3)
H5 H -0.2414 -0.2747 0.1752
C8 C 0.6556(5) 0.2147(4) 0.3028(3)
C9 C 0.8252(4) 0.3331(3) 0.3337(2)
C10 C 1.0059(5) 0.3139(4) 0.3280(3)
C11 C 1.1633(5) 0.4238(4) 0.3567(3)
H6 H 1.2831 0.4104 0.3540
C12 C 1.1440(5) 0.5524(4) 0.3893(3)
H7 H 1.2504 0.6260 0.4080
C13 C 0.9656(5) 0.5728(4) 0.3942(3)
H8 H 0.9521 0.6599 0.4161
C14 C 0.8091(5) 0.4638(4) 0.3666(3)
H9 H 0.6898 0.4782 0.3702
C15 C 0.2424(6) -0.0352(4) 0.4373(3)
H10 H 0.2054 -0.1188 0.3881
C16 C 0.2452(6) -0.0326(5) 0.5307(3)
H11 H 0.2100 -0.1123 0.5442
C17 C 0.3014(6) 0.0911(5) 0.6051(3)
H12 H 0.3075 0.0962 0.6695
C18 C 0.3475(6) 0.2054(4) 0.5812(3)
H13 H 0.3826 0.2900 0.6293
C19 C 0.3415(5) 0.1942(4) 0.4853(3)
H14 H 0.3749 0.2727 0.4701
C20 C 0.2693(4) 0.1870(4) 0.1191(3)
H15 H 0.2759 0.2639 0.1715
C21 C 0.2562(5) 0.1951(4) 0.0283(3)
H16 H 0.2535 0.2760 0.0197
C22 C 0.2469(5) 0.0829(4) -0.0502(3)
H17 H 0.2363 0.0859 -0.1127
C23 C 0.2535(6) -0.0328(5) -0.0338(3)
H18 H 0.2495 -0.1099 -0.0856
C24 C 0.2662(5) -0.0360(4) 0.0586(3)
H19 H 0.2703 -0.1161 0.0682
H20 H 0.872(8) 0.113(5) 0.279(4)
O6_2 O 0.0291(3) 0.1872(2) 0.29577(19)
Ni1_2 Ni 1.28491(6) 0.06824(5) 0.27213(4)
H20_2 H -0.128(8) 0.113(5) 0.279(4)
loop_
_geom_bond_atom_site_label_1
_geom_bond_atom_site_label_2
_geom_bond_site_symmetry_1
_geom_bond_site_symmetry_2
Ni1 O1 1_555 1_555
O1 C1 1_555 1_555
O2 C1 1_555 1_555
O3 H1 1_555 1_555
O4 Ni1 1_555 1_555
O5 C8 1_555 1_555
O6 C10 1_555 1_555
N1 Ni1 1_555 1_555
N2 Ni1 1_555 1_555
C1 C2 1_555 1_555
C2 C3 1_555 1_555
C3 O3 1_555 1_555
C4 C3 1_555 1_555
H2 C4 1_555 1_555
C5 C4 1_555 1_555
H3 C5 1_555 1_555
C6 C5 1_555 1_555
H4 C6 1_555 1_555
C7 C2 1_555 1_555
H5 C7 1_555 1_555
C8 O4 1_555 1_555
C9 C8 1_555 1_555
C10 C9 1_555 1_555
C11 C10 1_555 1_555
H6 C11 1_555 1_555
C12 C11 1_555 1_555
H7 C12 1_555 1_555
C13 C12 1_555 1_555
H8 C13 1_555 1_555
C14 C9 1_555 1_555
H9 C14 1_555 1_555
C15 N1 1_555 1_555
H10 C15 1_555 1_555
C16 C15 1_555 1_555
H11 C16 1_555 1_555
C17 C16 1_555 1_555
H12 C17 1_555 1_555
C18 C17 1_555 1_555
H13 C18 1_555 1_555
C19 N1 1_555 1_555
H14 C19 1_555 1_555
C20 N2 1_555 1_555
H15 C20 1_555 1_555
C21 C20 1_555 1_555
H16 C21 1_555 1_555
C22 C21 1_555 1_555
H17 C22 1_555 1_555
C23 C22 1_555 1_555
H18 C23 1_555 1_555
C24 N2 1_555 1_555
H19 C24 1_555 1_555
H20 O6 1_555 1_555
O6_2 Ni1 1_555 1_555
Ni1_2 O6 1_555 1_555
H20_2 O6_2 1_555 1_555
C6 C7 1_555 1_555
C13 C14 1_555 1_555
C18 C19 1_555 1_555
C23 C24 1_555 1_555

#END
