
#######################################################################
#
#                 Cambridge Crystallographic Data Centre
#                                CCDC 
#
#######################################################################
#
# If this CIF has been generated from an entry in the Cambridge 
# Structural Database, then it will include bibliographic, chemical, 
# crystal, experimental, refinement or atomic coordinate data resulting 
# from the CCDC's data processing and validation procedures.
#
#######################################################################

data_NACGUU
_symmetry_cell_setting           monoclinic
_symmetry_space_group_name_H-M   'P 21/c'
_symmetry_Int_Tables_number      14
_space_group_name_Hall           '-P 2ybc'
loop_
_symmetry_equiv_pos_site_id
_symmetry_equiv_pos_as_xyz
1 x,y,z
2 -x,1/2+y,1/2-z
3 -x,-y,-z
4 x,1/2-y,1/2+z
_cell_length_a                   10.281(2)
_cell_length_b                   18.596(5)
_cell_length_c                   9.180(2)
_cell_angle_alpha                90
_cell_angle_beta                 90.604(13)
_cell_angle_gamma                90
_cell_volume                     1754.99
loop_
_atom_site_label
_atom_site_type_symbol
_atom_site_fract_x
_atom_site_fract_y
_atom_site_fract_z
Ag1 Ag 0.98339(4) 0.152666(18) 0.33398(4)
P1 P 0.79734(11) 0.08189(5) 0.38275(12)
C1 C 0.6536(4) 0.1342(2) 0.3320(4)
C2 C 0.5374(4) 0.1333(2) 0.4075(5)
H1 H 0.5289 0.1068 0.4927
C3 C 0.4325(5) 0.1739(2) 0.3506(6)
H2 H 0.3541 0.1743 0.4002
C4 C 0.4429(5) 0.2125(3) 0.2257(7)
H3 H 0.3725 0.2392 0.1912
C5 C 0.5565(6) 0.2119(3) 0.1511(7)
H4 H 0.5625 0.2370 0.0639
C6 C 0.6626(5) 0.1746(2) 0.2036(5)
H5 H 0.7407 0.1761 0.1536
C7 C 0.7751(4) -0.0033(2) 0.2856(4)
C8 C 0.8819(5) -0.0396(2) 0.2367(5)
H6 H 0.9651 -0.0218 0.2543
C9 C 0.8646(5) -0.1037(2) 0.1601(6)
H7 H 0.9371 -0.1282 0.1260
C10 C 0.7448(6) -0.1309(2) 0.1343(6)
H8 H 0.7347 -0.1741 0.0844
C11 C 0.6396(5) -0.0944(2) 0.1822(5)
H9 H 0.5570 -0.1130 0.1644
C12 C 0.6518(5) -0.0303(2) 0.2569(5)
H10 H 0.5784 -0.0055 0.2875
C13 C 0.7755(4) 0.0616(2) 0.5750(4)
C14 C 0.7803(5) 0.1170(2) 0.6735(5)
H11 H 0.7943 0.1635 0.6399
C15 C 0.7648(6) 0.1058(3) 0.8212(5)
H12 H 0.7658 0.1444 0.8855
C16 C 0.7479(6) 0.0362(3) 0.8725(6)
H13 H 0.7368 0.0282 0.9716
C17 C 0.7474(6) -0.0218(3) 0.7761(6)
H14 H 0.7387 -0.0686 0.8105
C18 C 0.7602(5) -0.0089(3) 0.6288(5)
H15 H 0.7588 -0.0473 0.5640
N1 N 1.0671(3) 0.24941(18) 0.0869(4)
O1 O 1.1203(3) 0.21582(17) 0.1897(4)
O2 O 1.1328(3) 0.29462(17) 0.0183(3)
O3 O 0.9534(3) 0.23722(17) 0.0529(4)
Ag1C Ag 0.98339(4) 0.347334(18) -0.16602(4)
O2C O 1.1328(3) 0.20538(17) 0.5183(3)
loop_
_geom_bond_atom_site_label_1
_geom_bond_atom_site_label_2
_geom_bond_site_symmetry_1
_geom_bond_site_symmetry_2
Ag1 P1 1_555 1_555
P1 C1 1_555 1_555
C1 C2 1_555 1_555
C2 H1 1_555 1_555
C3 C2 1_555 1_555
H2 C3 1_555 1_555
C4 C3 1_555 1_555
H3 C4 1_555 1_555
C5 C4 1_555 1_555
H4 C5 1_555 1_555
C6 C1 1_555 1_555
H5 C6 1_555 1_555
C7 P1 1_555 1_555
C8 C7 1_555 1_555
H6 C8 1_555 1_555
C9 C8 1_555 1_555
H7 C9 1_555 1_555
C10 C9 1_555 1_555
H8 C10 1_555 1_555
C11 C10 1_555 1_555
H9 C11 1_555 1_555
C12 C7 1_555 1_555
H10 C12 1_555 1_555
C13 P1 1_555 1_555
C14 C13 1_555 1_555
H11 C14 1_555 1_555
C15 C14 1_555 1_555
H12 C15 1_555 1_555
C16 C15 1_555 1_555
H13 C16 1_555 1_555
C17 C16 1_555 1_555
H14 C17 1_555 1_555
C18 C13 1_555 1_555
H15 C18 1_555 1_555
N1 O1 1_555 1_555
O1 Ag1 1_555 1_555
O2 N1 1_555 1_555
O3 N1 1_555 1_555
Ag1C O2 1_555 1_555
O2C Ag1 1_555 1_555
C5 C6 1_555 1_555
C11 C12 1_555 1_555
C17 C18 1_555 1_555

#END
