
#######################################################################
#
#                 Cambridge Crystallographic Data Centre
#                                CCDC 
#
#######################################################################
#
# If this CIF has been generated from an entry in the Cambridge 
# Structural Database, then it will include bibliographic, chemical, 
# crystal, experimental, refinement or atomic coordinate data resulting 
# from the CCDC's data processing and validation procedures.
#
#######################################################################

data_NACGUU01
_symmetry_cell_setting           monoclinic
_symmetry_space_group_name_H-M   'P 21/c'
_symmetry_Int_Tables_number      14
_space_group_name_Hall           '-P 2ybc'
loop_
_symmetry_equiv_pos_site_id
_symmetry_equiv_pos_as_xyz
1 x,y,z
2 -x,1/2+y,1/2-z
3 -x,-y,-z
4 x,1/2-y,1/2+z
_cell_length_a                   10.2430(14)
_cell_length_b                   18.521(3)
_cell_length_c                   9.1373(12)
_cell_angle_alpha                90
_cell_angle_beta                 90.596(3)
_cell_angle_gamma                90
_cell_volume                     1733.35
loop_
_atom_site_label
_atom_site_type_symbol
_atom_site_fract_x
_atom_site_fract_y
_atom_site_fract_z
Ag1 Ag 0.01648(4) 0.15252(3) 0.16591(5)
P1 P 0.20251(14) 0.08186(7) 0.11744(15)
O1 O -0.1201(4) 0.2160(3) 0.3093(5)
O2 O -0.1317(4) 0.2947(2) 0.4823(4)
O3 O 0.0483(4) 0.2382(2) 0.4474(5)
N1 N -0.0675(5) 0.2497(3) 0.4141(6)
C1 C 0.2246(5) -0.0025(3) 0.2146(6)
C2 C 0.1183(6) -0.0395(3) 0.2643(7)
H1 H 0.0348 -0.0212 0.2480
C3 C 0.1348(7) -0.1042(4) 0.3389(7)
H2 H 0.0619 -0.1295 0.3708
C4 C 0.2559(8) -0.1309(3) 0.3658(7)
H3 H 0.2655 -0.1742 0.4163
C5 C 0.3631(7) -0.0948(3) 0.3195(7)
H4 H 0.4460 -0.1131 0.3391
C6 C 0.3489(6) -0.0305(3) 0.2426(7)
H5 H 0.4223 -0.0061 0.2097
C7 C 0.3449(5) 0.1343(3) 0.1691(6)
C8 C 0.4620(6) 0.1343(3) 0.0928(7)
H6 H 0.4695 0.1079 0.0067
C9 C 0.5676(6) 0.1738(4) 0.1463(9)
H7 H 0.6456 0.1746 0.0952
C10 C 0.5563(7) 0.2118(4) 0.2746(9)
H8 H 0.6276 0.2376 0.3105
C11 C 0.4436(7) 0.2121(4) 0.3495(9)
H9 H 0.4374 0.2377 0.4367
C12 C 0.3378(6) 0.1743(3) 0.2962(7)
H10 H 0.2596 0.1758 0.3469
C13 C 0.2250(5) 0.0610(3) -0.0756(6)
C14 C 0.2205(6) 0.1179(4) -0.1738(7)
H11 H 0.2071 0.1647 -0.1406
C15 C 0.2361(7) 0.1047(4) -0.3206(7)
H12 H 0.2358 0.1432 -0.3861
C16 C 0.2520(8) 0.0358(5) -0.3719(8)
H13 H 0.2609 0.0274 -0.4717
C17 C 0.2547(8) -0.0213(4) -0.2745(8)
H14 H 0.2657 -0.0681 -0.3086
C18 C 0.2412(6) -0.0088(3) -0.1266(7)
H15 H 0.2430 -0.0472 -0.0612
Ag1C Ag 0.01648(4) 0.34748(3) 0.66591(5)
O2C O -0.1317(4) 0.2053(2) -0.0177(4)
loop_
_geom_bond_atom_site_label_1
_geom_bond_atom_site_label_2
_geom_bond_site_symmetry_1
_geom_bond_site_symmetry_2
Ag1 P1 1_555 1_555
P1 C1 1_555 1_555
O1 Ag1 1_555 1_555
O2 N1 1_555 1_555
O3 N1 1_555 1_555
N1 O1 1_555 1_555
C1 C2 1_555 1_555
C2 H1 1_555 1_555
C3 C2 1_555 1_555
H2 C3 1_555 1_555
C4 C3 1_555 1_555
H3 C4 1_555 1_555
C5 C4 1_555 1_555
H4 C5 1_555 1_555
C6 C1 1_555 1_555
H5 C6 1_555 1_555
C7 P1 1_555 1_555
C8 C7 1_555 1_555
H6 C8 1_555 1_555
C9 C8 1_555 1_555
H7 C9 1_555 1_555
C10 C9 1_555 1_555
H8 C10 1_555 1_555
C11 C10 1_555 1_555
H9 C11 1_555 1_555
C12 C7 1_555 1_555
H10 C12 1_555 1_555
C13 P1 1_555 1_555
C14 C13 1_555 1_555
H11 C14 1_555 1_555
C15 C14 1_555 1_555
H12 C15 1_555 1_555
C16 C15 1_555 1_555
H13 C16 1_555 1_555
C17 C16 1_555 1_555
H14 C17 1_555 1_555
C18 C13 1_555 1_555
H15 C18 1_555 1_555
Ag1C O2 1_555 1_555
O2C Ag1 1_555 1_555
C5 C6 1_555 1_555
C11 C12 1_555 1_555
C17 C18 1_555 1_555

#END
