
#######################################################################
#
#                 Cambridge Crystallographic Data Centre
#                                CCDC 
#
#######################################################################
#
# If this CIF has been generated from an entry in the Cambridge 
# Structural Database, then it will include bibliographic, chemical, 
# crystal, experimental, refinement or atomic coordinate data resulting 
# from the CCDC's data processing and validation procedures.
#
#######################################################################

data_NACGUU02
_symmetry_cell_setting           monoclinic
_symmetry_space_group_name_H-M   'P 21/c'
_symmetry_Int_Tables_number      14
_space_group_name_Hall           '-P 2ybc'
loop_
_symmetry_equiv_pos_site_id
_symmetry_equiv_pos_as_xyz
1 x,y,z
2 -x,1/2+y,1/2-z
3 -x,-y,-z
4 x,1/2-y,1/2+z
_cell_length_a                   10.2221(16)
_cell_length_b                   18.497(3)
_cell_length_c                   9.1925(14)
_cell_angle_alpha                90
_cell_angle_beta                 91.053(3)
_cell_angle_gamma                90
_cell_volume                     1737.81
loop_
_atom_site_label
_atom_site_type_symbol
_atom_site_fract_x
_atom_site_fract_y
_atom_site_fract_z
Ag1 Ag 0.00813(4) 0.15019(2) 0.16109(6)
P1 P 0.19790(14) 0.07979(8) 0.11795(17)
O1 O -0.1261(4) 0.2176(3) 0.3021(5)
O2 O -0.1409(4) 0.2973(3) 0.4745(5)
O3 O 0.0422(4) 0.2396(3) 0.4458(6)
N1 N -0.0742(5) 0.2514(3) 0.4074(6)
C1 C 0.2224(6) -0.0053(3) 0.2170(6)
C2 C 0.1148(6) -0.0416(3) 0.2701(8)
H1 H 0.0293 -0.0227 0.2544
C3 C 0.1326(7) -0.1066(4) 0.3473(8)
H2 H 0.0588 -0.1320 0.3821
C4 C 0.2565(7) -0.1334(3) 0.3725(8)
H3 H 0.2682 -0.1769 0.4263
C5 C 0.3637(6) -0.0973(3) 0.3199(8)
H4 H 0.4489 -0.1164 0.3366
C6 C 0.3483(6) -0.0333(3) 0.2425(7)
H5 H 0.4227 -0.0086 0.2071
C7 C 0.3403(6) 0.1337(3) 0.1737(7)
C8 C 0.4589(6) 0.1346(3) 0.1005(8)
H6 H 0.4683 0.1073 0.0137
C9 C 0.5650(6) 0.1761(4) 0.1560(8)
H7 H 0.6452 0.1772 0.1054
C10 C 0.5526(6) 0.2150(3) 0.2827(8)
H8 H 0.6244 0.2422 0.3202
C11 C 0.4341(7) 0.2142(4) 0.3561(9)
H9 H 0.4257 0.2407 0.4440
C12 C 0.3269(6) 0.1743(3) 0.3007(8)
H10 H 0.2458 0.1751 0.3495
C13 C 0.2239(5) 0.0587(3) -0.0740(6)
C14 C 0.2193(6) 0.1169(3) -0.1731(7)
H11 H 0.2045 0.1646 -0.1388
C15 C 0.2366(7) 0.1046(4) -0.3210(8)
H12 H 0.2349 0.1437 -0.3879
C16 C 0.2566(7) 0.0332(4) -0.3699(8)
H13 H 0.2699 0.0246 -0.4705
C17 C 0.2570(7) -0.0240(4) -0.2750(8)
H14 H 0.2673 -0.0718 -0.3105
C18 C 0.2423(6) -0.0119(3) -0.1254(7)
H15 H 0.2448 -0.0514 -0.0593
Ag1C Ag 0.00813(4) 0.34981(2) 0.66109(6)
O2C O -0.1409(4) 0.2027(3) -0.0255(5)
loop_
_geom_bond_atom_site_label_1
_geom_bond_atom_site_label_2
_geom_bond_site_symmetry_1
_geom_bond_site_symmetry_2
Ag1 P1 1_555 1_555
P1 C1 1_555 1_555
O1 Ag1 1_555 1_555
O2 N1 1_555 1_555
O3 N1 1_555 1_555
N1 O1 1_555 1_555
C1 C2 1_555 1_555
C2 H1 1_555 1_555
C3 C2 1_555 1_555
H2 C3 1_555 1_555
C4 C3 1_555 1_555
H3 C4 1_555 1_555
C5 C4 1_555 1_555
H4 C5 1_555 1_555
C6 C1 1_555 1_555
H5 C6 1_555 1_555
C7 P1 1_555 1_555
C8 C7 1_555 1_555
H6 C8 1_555 1_555
C9 C8 1_555 1_555
H7 C9 1_555 1_555
C10 C9 1_555 1_555
H8 C10 1_555 1_555
C11 C10 1_555 1_555
H9 C11 1_555 1_555
C12 C7 1_555 1_555
H10 C12 1_555 1_555
C13 P1 1_555 1_555
C14 C13 1_555 1_555
H11 C14 1_555 1_555
C15 C14 1_555 1_555
H12 C15 1_555 1_555
C16 C15 1_555 1_555
H13 C16 1_555 1_555
C17 C16 1_555 1_555
H14 C17 1_555 1_555
C18 C13 1_555 1_555
H15 C18 1_555 1_555
Ag1C O2 1_555 1_555
O2C Ag1 1_555 1_555
C5 C6 1_555 1_555
C11 C12 1_555 1_555
C17 C18 1_555 1_555

#END
