
#######################################################################
#
#                 Cambridge Crystallographic Data Centre
#                                CCDC 
#
#######################################################################
#
# If this CIF has been generated from an entry in the Cambridge 
# Structural Database, then it will include bibliographic, chemical, 
# crystal, experimental, refinement or atomic coordinate data resulting 
# from the CCDC's data processing and validation procedures.
#
#######################################################################

data_NACKAF
_symmetry_cell_setting           monoclinic
_symmetry_space_group_name_H-M   'C 2/c'
_symmetry_Int_Tables_number      15
_space_group_name_Hall           '-C 2yn'
loop_
_symmetry_equiv_pos_site_id
_symmetry_equiv_pos_as_xyz
1 x,y,z
2 -x,y,1/2-z
3 1/2+x,1/2+y,z
4 1/2-x,1/2+y,1/2-z
5 -x,-y,-z
6 x,-y,1/2+z
7 1/2-x,1/2-y,-z
8 1/2+x,1/2-y,1/2+z
_cell_length_a                   14.2806(7)
_cell_length_b                   11.0258(5)
_cell_length_c                   16.0333(8)
_cell_angle_alpha                90
_cell_angle_beta                 101.9400(10)
_cell_angle_gamma                90
_cell_volume                     2469.91
loop_
_atom_site_label
_atom_site_type_symbol
_atom_site_fract_x
_atom_site_fract_y
_atom_site_fract_z
La1 La 0.5000 0.390166(9) 0.2500
O1 O 0.56373(7) 0.20721(9) 0.18308(6)
O2 O 0.41465(7) 0.24690(9) 0.11981(6)
O3 O 0.46412(7) 0.32037(9) -0.04449(6)
O4 O 0.32505(7) 0.23094(9) -0.10386(7)
O5 O 0.42360(7) 0.62097(9) 0.22676(7)
O6 O 0.5000 0.79257(13) 0.2500
O7 O 0.46868(8) 0.46041(9) 0.39134(6)
H1 H 0.4809 0.4176 0.4308
H2 H 0.4608 0.5290 0.4061
O8 O 0.31796(7) 0.40932(9) 0.20776(7)
H3 H 0.2796 0.3696 0.1753
H4 H 0.2918 0.4747 0.2165
N1 N 0.5000 0.68144(15) 0.2500
C1 C 0.49783(10) 0.09336(11) 0.05837(9)
C2 C 0.45243(9) 0.10922(11) -0.02733(9)
C3 C 0.54528(9) -0.01488(12) 0.08458(8)
H5 H 0.5766 -0.0245 0.1425
C4 C 0.49106(9) 0.18870(11) 0.12369(8)
C5 C 0.40941(10) 0.22986(12) -0.06067(8)
La1D La 0.5000 -0.390166(9) -0.2500
O1D O 0.43627(7) -0.20721(9) -0.18308(6)
O1A O 0.43627(7) 0.20721(9) 0.31692(6)
O2D O 0.58535(7) -0.24690(9) -0.11981(6)
O2A O 0.58535(7) 0.24690(9) 0.38019(6)
O3D O 0.53588(7) -0.32037(9) 0.04449(6)
O4D O 0.67495(7) -0.23094(9) 0.10386(7)
O5A O 0.57640(7) 0.62097(9) 0.27324(7)
O7A O 0.53132(8) 0.46041(9) 0.10866(6)
H1A H 0.5191 0.4176 0.0692
H2A H 0.5392 0.5290 0.0939
O8A O 0.68204(7) 0.40932(9) 0.29224(7)
H3A H 0.7204 0.3696 0.3247
H4A H 0.7082 0.4747 0.2835
C1D C 0.50217(10) -0.09336(11) -0.05837(9)
C2D C 0.54757(9) -0.10922(11) 0.02733(9)
C3D C 0.45472(9) 0.01488(12) -0.08458(8)
H5D H 0.4234 0.0245 -0.1425
C4D C 0.50894(9) -0.18870(11) -0.12369(8)
C4A C 0.50894(9) 0.18870(11) 0.37631(8)
C5D C 0.59059(10) -0.22986(12) 0.06067(8)
N2 N 0.24194(9) 0.45306(11) -0.07595(8)
H6 H 0.2424 0.3790 -0.0964
C6 C 0.18863(12) 0.53810(14) -0.12347(10)
H7 H 0.1502 0.5173 -0.1773
C7 C 0.18969(11) 0.65538(14) -0.09412(10)
H8 H 0.1514 0.7155 -0.1274
C8 C 0.24707(10) 0.68629(12) -0.01544(9)
C9 C 0.29851(11) 0.59370(13) 0.03317(9)
H9 H 0.3362 0.6110 0.0880
C10 C 0.29439(10) 0.47708(13) 0.00136(9)
H10 H 0.3289 0.4138 0.0345
N2F N 0.25806(9) 1.04694(11) 0.07595(8)
H6F H 0.2576 1.1210 0.0964
C6F C 0.31137(12) 0.96190(14) 0.12347(10)
H7F H 0.3498 0.9827 0.1773
C7F C 0.31031(11) 0.84462(14) 0.09412(10)
H8F H 0.3486 0.7845 0.1274
C8F C 0.25293(10) 0.81371(12) 0.01544(9)
C9F C 0.20149(11) 0.90630(13) -0.03317(9)
H9F H 0.1638 0.8890 -0.0880
C10F C 0.20561(10) 1.02292(13) -0.00136(9)
H10F H 0.1711 1.0862 -0.0345
O9 O 0.23582(8) 0.61785(10) 0.23941(8)
H11 H 0.1799 0.6530 0.2174
H12 H 0.2744 0.6638 0.2532
loop_
_geom_bond_atom_site_label_1
_geom_bond_atom_site_label_2
_geom_bond_site_symmetry_1
_geom_bond_site_symmetry_2
La1 O1 1_555 1_555
O1 C4 1_555 1_555
O2 La1 1_555 1_555
O3 C5 1_555 1_555
O4 C5 1_555 1_555
O5 La1 1_555 1_555
O6 N1 1_555 1_555
O7 La1 1_555 1_555
H1 O7 1_555 1_555
H2 O7 1_555 1_555
O8 La1 1_555 1_555
H3 O8 1_555 1_555
H4 O8 1_555 1_555
N1 O5 1_555 1_555
C1 C2 1_555 1_555
C2 C5 1_555 1_555
C3 C1 1_555 1_555
H5 C3 1_555 1_555
C4 O2 1_555 1_555
N2 H6 1_555 1_555
C6 N2 1_555 1_555
H7 C6 1_555 1_555
C7 C6 1_555 1_555
H8 C7 1_555 1_555
C8 C7 1_555 1_555
C9 C8 1_555 1_555
H9 C9 1_555 1_555
C10 N2 1_555 1_555
H10 C10 1_555 1_555
O9 H11 1_555 1_555
H12 O9 1_555 1_555
La1D O1D 1_555 1_555
O1D C4D 1_555 1_555
O1A La1 1_555 1_555
O2D La1D 1_555 1_555
O2A La1 1_555 1_555
O3D C5D 1_555 1_555
O4D C5D 1_555 1_555
O5A La1 1_555 1_555
O7A La1 1_555 1_555
H1A O7A 1_555 1_555
H2A O7A 1_555 1_555
O8A La1 1_555 1_555
H3A O8A 1_555 1_555
H4A O8A 1_555 1_555
C1D C2D 1_555 1_555
C2D C3 1_555 1_555
C3D C2 1_555 1_555
H5D C3D 1_555 1_555
C4D O2D 1_555 1_555
C4A O1A 1_555 1_555
C5D C2D 1_555 1_555
N2F H6F 1_555 1_555
C6F N2F 1_555 1_555
H7F C6F 1_555 1_555
C7F C6F 1_555 1_555
H8F C7F 1_555 1_555
C8F C8 1_555 1_555
C9F C8F 1_555 1_555
H9F C9F 1_555 1_555
C10F N2F 1_555 1_555
H10F C10F 1_555 1_555
N1 O5A 1_555 1_555
C1 C4 1_555 1_555
C9 C10 1_555 1_555
O2A C4A 1_555 1_555
C1D C3D 1_555 1_555
C1D C4D 1_555 1_555
C7F C8F 1_555 1_555
C9F C10F 1_555 1_555

#END
