
#######################################################################
#
#                 Cambridge Crystallographic Data Centre
#                                CCDC 
#
#######################################################################
#
# If this CIF has been generated from an entry in the Cambridge 
# Structural Database, then it will include bibliographic, chemical, 
# crystal, experimental, refinement or atomic coordinate data resulting 
# from the CCDC's data processing and validation procedures.
#
#######################################################################

data_NACKUZ
_symmetry_cell_setting           orthorhombic
_symmetry_space_group_name_H-M   'P n n m'
_symmetry_Int_Tables_number      58
_space_group_name_Hall           '-P 2 2n'
loop_
_symmetry_equiv_pos_site_id
_symmetry_equiv_pos_as_xyz
1 x,y,z
2 -x,-y,z
3 1/2-x,1/2+y,1/2-z
4 1/2+x,1/2-y,1/2-z
5 -x,-y,-z
6 x,y,-z
7 1/2+x,1/2-y,1/2+z
8 1/2-x,1/2+y,1/2+z
_cell_length_a                   13.4106(2)
_cell_length_b                   6.58610(10)
_cell_length_c                   10.1167(2)
_cell_angle_alpha                90
_cell_angle_beta                 90
_cell_angle_gamma                90
_cell_volume                     893.543
loop_
_atom_site_label
_atom_site_type_symbol
_atom_site_fract_x
_atom_site_fract_y
_atom_site_fract_z
Ho1 Ho 0.198326(19) 1.13697(4) 0.0000
O1 O 0.0280(3) 1.2797(7) 0.0000
O2 O 0.2660(3) 0.8079(6) 0.0000
C1 C 0.2915(4) 0.6267(8) 0.0000
O3 O 0.3328(3) 1.1191(5) 0.1546(3)
C2 C 0.4024(4) 0.5752(8) 0.0000
C3 C 0.4511(3) 0.5387(5) 0.1184(3)
C4 C 0.3990(3) 0.5779(6) 0.2478(4)
O4 O 0.3916(2) 0.4353(4) 0.3314(3)
O5 O 0.3626(2) 0.7487(4) 0.2707(3)
O6 O 0.2336(3) 0.4788(6) 0.0000
H1 H 0.350(3) 1.007(3) 0.172(4)
H2 H 0.345(3) 1.200(4) 0.213(3)
H3 H -0.013(3) 1.262(6) 0.058(3)
Ho1A Ho 0.801674(19) -0.13697(4) 0.0000
Ho1B Ho 0.301674(19) 0.63697(4) 0.5000
Ho1_2 Ho 0.198326(19) 0.13697(4) 0.0000
Ho1A_2 Ho 0.801674(19) 0.86303(4) 0.0000
Ho1C Ho 0.698326(19) 0.36303(4) -0.5000
Ho1B_2 Ho 0.301674(19) 0.63697(4) -0.5000
Ho1C_2 Ho 0.698326(19) 0.36303(4) 0.5000
O1A O 0.9720(3) -0.2797(7) 0.0000
O2A O 0.7340(3) 0.1921(6) 0.0000
C1A C 0.7085(4) 0.3733(8) 0.0000
O3E O 0.3328(3) 1.1191(5) -0.1546(3)
O3A O 0.6672(3) -0.1191(5) 0.1546(3)
O3D O 0.6672(3) -0.1191(5) -0.1546(3)
C2A C 0.5976(4) 0.4248(8) 0.0000
C3A C 0.5489(3) 0.4613(5) 0.1184(3)
C3D C 0.5489(3) 0.4613(5) -0.1184(3)
C3E C 0.4511(3) 0.5387(5) -0.1184(3)
C4D C 0.6010(3) 0.4221(6) -0.2478(4)
C4E C 0.3990(3) 0.5779(6) -0.2478(4)
C4A C 0.6010(3) 0.4221(6) 0.2478(4)
O4D O 0.6084(2) 0.5647(4) -0.3314(3)
O4E O 0.3916(2) 0.4353(4) -0.3314(3)
O4A O 0.6084(2) 0.5647(4) 0.3314(3)
O4B O 0.1084(2) 0.9353(4) 0.1686(3)
O4G O 0.1084(2) 0.9353(4) -0.1686(3)
O4C O 0.8916(2) 0.0647(4) 0.1686(3)
O4F O 0.8916(2) 0.0647(4) -0.1686(3)
O5D O 0.6374(2) 0.2513(4) -0.2707(3)
O5E O 0.3626(2) 0.7487(4) -0.2707(3)
O5A O 0.6374(2) 0.2513(4) 0.2707(3)
O5B O 0.1374(2) 1.2487(4) 0.2293(3)
O5G O 0.1374(2) 1.2487(4) -0.2293(3)
O5C O 0.8626(2) -0.2487(4) 0.2293(3)
O5F O 0.8626(2) -0.2487(4) -0.2293(3)
O6A O 0.7664(3) 0.5212(6) 0.0000
O6_2 O 0.2336(3) 1.4788(6) 0.0000
O6A_2 O 0.7664(3) -0.4788(6) 0.0000
H1E H 0.350(3) 1.007(3) -0.172(4)
H1A H 0.650(3) -0.007(3) 0.172(4)
H1D H 0.650(3) -0.007(3) -0.172(4)
H2E H 0.345(3) 1.200(4) -0.213(3)
H2A H 0.655(3) -0.200(4) 0.213(3)
H2D H 0.655(3) -0.200(4) -0.213(3)
H3E H -0.013(3) 1.262(6) -0.058(3)
H3A H 1.013(3) -0.262(6) 0.058(3)
H3D H 1.013(3) -0.262(6) -0.058(3)
loop_
_geom_bond_atom_site_label_1
_geom_bond_atom_site_label_2
_geom_bond_site_symmetry_1
_geom_bond_site_symmetry_2
Ho1 O1 1_555 1_555
O1 H3 1_555 1_555
O2 Ho1 1_555 1_555
C1 O2 1_555 1_555
O3 Ho1 1_555 1_555
C2 C1 1_555 1_555
C3 C2 1_555 1_555
C4 C3 1_555 1_555
O4 C4 1_555 1_555
O5 C4 1_555 1_555
O6 C1 1_555 1_555
H1 O3 1_555 1_555
H2 O3 1_555 1_555
Ho1A O1A 1_555 1_555
Ho1B O4 1_555 1_555
Ho1_2 O6 1_555 1_555
Ho1A_2 O6A 1_555 1_555
Ho1C O4D 1_555 1_555
Ho1B_2 O4E 1_555 1_555
Ho1C_2 O4A 1_555 1_555
O1A H3A 1_555 1_555
O2A Ho1A 1_555 1_555
C1A O2A 1_555 1_555
O3E Ho1 1_555 1_555
O3A Ho1A 1_555 1_555
O3D Ho1A 1_555 1_555
C2A C1A 1_555 1_555
C3A C3 1_555 1_555
C3D C2A 1_555 1_555
C3E C2 1_555 1_555
C4D C3D 1_555 1_555
C4E C3E 1_555 1_555
C4A C3A 1_555 1_555
O4D C4D 1_555 1_555
O4E C4E 1_555 1_555
O4A C4A 1_555 1_555
O4B Ho1 1_555 1_555
O4G Ho1 1_555 1_555
O4C Ho1A 1_555 1_555
O4F Ho1A 1_555 1_555
O5D Ho1C 1_555 1_555
O5E Ho1B_2 1_555 1_555
O5A Ho1C_2 1_555 1_555
O5B Ho1 1_555 1_555
O5G Ho1 1_555 1_555
O5C Ho1A 1_555 1_555
O5F Ho1A 1_555 1_555
O6A C1A 1_555 1_555
O6_2 Ho1 1_555 1_555
O6A_2 Ho1A 1_555 1_555
H1E O3E 1_555 1_555
H1A O3A 1_555 1_555
H1D O3D 1_555 1_555
H2E O3E 1_555 1_555
H2A O3A 1_555 1_555
H2D O3D 1_555 1_555
H3E O1 1_555 1_555
H3D O1A 1_555 1_555
O5 Ho1B 1_555 1_555
C2A C3A 1_555 1_555
C3D C3E 1_555 1_555
C4D O5D 1_555 1_555
C4E O5E 1_555 1_555
C4A O5A 1_555 1_555

#END
