
#######################################################################
#
#                 Cambridge Crystallographic Data Centre
#                                CCDC 
#
#######################################################################
#
# If this CIF has been generated from an entry in the Cambridge 
# Structural Database, then it will include bibliographic, chemical, 
# crystal, experimental, refinement or atomic coordinate data resulting 
# from the CCDC's data processing and validation procedures.
#
#######################################################################

data_NACKOT
_symmetry_cell_setting           orthorhombic
_symmetry_space_group_name_H-M   'P n n m'
_symmetry_Int_Tables_number      58
_space_group_name_Hall           '-P 2 2n'
loop_
_symmetry_equiv_pos_site_id
_symmetry_equiv_pos_as_xyz
1 x,y,z
2 -x,-y,z
3 1/2-x,1/2+y,1/2-z
4 1/2+x,1/2-y,1/2-z
5 -x,-y,-z
6 x,y,-z
7 1/2+x,1/2-y,1/2+z
8 1/2-x,1/2+y,1/2+z
_cell_length_a                   13.5308(4)
_cell_length_b                   6.6872(2)
_cell_length_c                   10.2248(3)
_cell_angle_alpha                90
_cell_angle_beta                 90
_cell_angle_gamma                90
_cell_volume                     925.172
loop_
_atom_site_label
_atom_site_type_symbol
_atom_site_fract_x
_atom_site_fract_y
_atom_site_fract_z
Nd1 Nd 0.699347(14) 0.13500(3) 0.5000
O1 O 0.5244(3) 0.2778(6) 0.5000
O2 O 0.60728(13) -0.0676(3) 0.67274(17)
O3 O 0.83581(19) 0.1152(4) 0.3413(2)
O4 O 0.63588(16) 0.2434(3) 0.73038(18)
C1 C 0.60014(19) 0.0753(4) 0.7539(2)
C2 C 0.7064(3) 0.1275(5) 1.0000
C3 C 0.5970(3) 0.0750(5) 1.0000
C4 C 0.54849(17) 0.0377(4) 0.8822(2)
O5 O 0.7321(2) 0.3037(4) 1.0000
O6 O 0.76395(19) -0.0194(4) 1.0000
H1 H 0.850(2) 0.189(5) 0.279(3)
H2 H 0.854(3) 0.021(6) 0.327(4)
H3 H 0.493(4) 0.282(8) 0.552(5)
Nd1_2 Nd 0.699347(14) 0.13500(3) 1.5000
Nd1B Nd 0.800653(14) 0.63500(3) 1.0000
Nd1B_2 Nd 0.800653(14) -0.36500(3) 1.0000
Nd1A Nd 0.300653(14) -0.13500(3) 1.5000
Nd1C Nd 0.199347(14) -0.63500(3) 1.0000
Nd1C_2 Nd 0.199347(14) 0.36500(3) 1.0000
Nd1A_2 Nd 0.300653(14) -0.13500(3) 0.5000
O1A O 0.4756(3) -0.2778(6) 0.5000
O2E O 0.60728(13) -0.0676(3) 1.32726(17)
O2D O 0.39272(13) 0.0676(3) 1.32726(17)
O2A O 0.39272(13) 0.0676(3) 0.67274(17)
O2E_2 O 0.60728(13) -0.0676(3) 0.32726(17)
O2D_2 O 0.39272(13) 0.0676(3) 0.32726(17)
O3E O 0.83581(19) 0.1152(4) 0.6587(2)
O3A O 0.16419(19) -0.1152(4) 0.3413(2)
O3D O 0.16419(19) -0.1152(4) 0.6587(2)
O4E O 0.63588(16) 0.2434(3) 1.26962(18)
O4D O 0.36412(16) -0.2434(3) 1.26962(18)
O4A O 0.36412(16) -0.2434(3) 0.73038(18)
O4E_2 O 0.63588(16) 0.2434(3) 0.26962(18)
O4D_2 O 0.36412(16) -0.2434(3) 0.26962(18)
C1E C 0.60014(19) 0.0753(4) 1.2461(2)
C1D C 0.39986(19) -0.0753(4) 1.2461(2)
C1A C 0.39986(19) -0.0753(4) 0.7539(2)
C2A C 0.2936(3) -0.1275(5) 1.0000
C3A C 0.4030(3) -0.0750(5) 1.0000
C4E C 0.54849(17) 0.0377(4) 1.1178(2)
C4D C 0.45151(17) -0.0377(4) 1.1178(2)
C4A C 0.45151(17) -0.0377(4) 0.8822(2)
O5A O 0.2679(2) -0.3037(4) 1.0000
O5B O 0.7679(2) -0.1963(4) 0.5000
O5C O 0.2321(2) 0.1963(4) 0.5000
O6A O 0.23605(19) 0.0194(4) 1.0000
O6B O 0.73605(19) 0.4806(4) 0.5000
O6C O 0.26395(19) -0.4806(4) 0.5000
H1E H 0.850(2) 0.189(5) 0.721(3)
H1A H 0.150(2) -0.189(5) 0.279(3)
H1D H 0.150(2) -0.189(5) 0.721(3)
H2E H 0.854(3) 0.021(6) 0.673(4)
H2A H 0.146(3) -0.021(6) 0.327(4)
H2D H 0.146(3) -0.021(6) 0.673(4)
H3E H 0.493(4) 0.282(8) 0.448(5)
H3A H 0.507(4) -0.282(8) 0.552(5)
H3D H 0.507(4) -0.282(8) 0.448(5)
loop_
_geom_bond_atom_site_label_1
_geom_bond_atom_site_label_2
_geom_bond_site_symmetry_1
_geom_bond_site_symmetry_2
Nd1 O1 1_555 1_555
O1 H3 1_555 1_555
O2 Nd1 1_555 1_555
O3 Nd1 1_555 1_555
O4 Nd1 1_555 1_555
C1 O2 1_555 1_555
C2 C3 1_555 1_555
C3 C4 1_555 1_555
C4 C1 1_555 1_555
O5 C2 1_555 1_555
O6 C2 1_555 1_555
H1 O3 1_555 1_555
H2 O3 1_555 1_555
Nd1_2 O2E 1_555 1_555
Nd1B O5 1_555 1_555
Nd1B_2 O6 1_555 1_555
Nd1A O2D 1_555 1_555
Nd1C O5A 1_555 1_555
Nd1C_2 O6A 1_555 1_555
Nd1A_2 O1A 1_555 1_555
O1A H3A 1_555 1_555
O2E C1E 1_555 1_555
O2D C1D 1_555 1_555
O2A Nd1A_2 1_555 1_555
O2E_2 Nd1 1_555 1_555
O2D_2 Nd1A_2 1_555 1_555
O3E Nd1 1_555 1_555
O3A Nd1A_2 1_555 1_555
O3D Nd1A_2 1_555 1_555
O4E Nd1_2 1_555 1_555
O4D Nd1A 1_555 1_555
O4A Nd1A_2 1_555 1_555
O4E_2 Nd1 1_555 1_555
O4D_2 Nd1A_2 1_555 1_555
C1E O4E 1_555 1_555
C1D O4D 1_555 1_555
C1A O2A 1_555 1_555
C2A C3A 1_555 1_555
C3A C4D 1_555 1_555
C4E C3 1_555 1_555
C4D C1D 1_555 1_555
C4A C4 1_555 1_555
O5A C2A 1_555 1_555
O5B Nd1 1_555 1_555
O5C Nd1A_2 1_555 1_555
O6A C2A 1_555 1_555
O6B Nd1 1_555 1_555
O6C Nd1A_2 1_555 1_555
H1E O3E 1_555 1_555
H1A O3A 1_555 1_555
H1D O3D 1_555 1_555
H2E O3E 1_555 1_555
H2A O3A 1_555 1_555
H2D O3D 1_555 1_555
H3E O1 1_555 1_555
H3D O1A 1_555 1_555
O4 C1 1_555 1_555
O4A C1A 1_555 1_555
C1E C4E 1_555 1_555
C1A C4A 1_555 1_555
C3A C4A 1_555 1_555
C4E C4D 1_555 1_555

#END
