
#######################################################################
#
#                 Cambridge Crystallographic Data Centre
#                                CCDC 
#
#######################################################################
#
# If this CIF has been generated from an entry in the Cambridge 
# Structural Database, then it will include bibliographic, chemical, 
# crystal, experimental, refinement or atomic coordinate data resulting 
# from the CCDC's data processing and validation procedures.
#
#######################################################################

data_NACKEH
_symmetry_cell_setting           monoclinic
_symmetry_space_group_name_H-M   'C 2/c'
_symmetry_Int_Tables_number      15
_space_group_name_Hall           '-C 2yn'
loop_
_symmetry_equiv_pos_site_id
_symmetry_equiv_pos_as_xyz
1 x,y,z
2 -x,y,1/2-z
3 1/2+x,1/2+y,z
4 1/2-x,1/2+y,1/2-z
5 -x,-y,-z
6 x,-y,1/2+z
7 1/2-x,1/2-y,-z
8 1/2+x,1/2-y,1/2+z
_cell_length_a                   13.633(2)
_cell_length_b                   12.773(3)
_cell_length_c                   12.722(6)
_cell_angle_alpha                90
_cell_angle_beta                 99.65(3)
_cell_angle_gamma                90
_cell_volume                     2183.99
loop_
_atom_site_label
_atom_site_type_symbol
_atom_site_fract_x
_atom_site_fract_y
_atom_site_fract_z
Cu1 Cu 0.0000 0.81138(2) 0.2500
Cl1 Cl -0.20076(3) 1.09740(4) 0.05102(4)
O1 O -0.08270(8) 0.91940(8) 0.16244(8)
O2 O 0.08567(8) 0.84100(8) 0.11748(8)
C1 C -0.04801(10) 0.96116(10) 0.08587(10)
C2 C -0.09163(11) 1.04346(11) 0.02449(11)
C3 C 0.04938(10) 0.91456(10) 0.06060(10)
N1 N 0.09161(9) 1.30978(9) -0.19915(10)
C4 C 0.05548(9) 1.40329(10) -0.23686(10)
C5 C 0.11972(10) 1.48530(11) -0.25116(12)
C6 C 0.22103(12) 1.47218(13) -0.2152(2)
C7 C 0.25628(12) 1.37835(15) -0.1714(2)
C8 C 0.18989(11) 1.29756(12) -0.16768(14)
C9 C 0.08805(12) 1.58435(13) -0.31007(15)
O3 O 0.13059(13) 1.66603(12) -0.2908(2)
O4 O 0.01085(11) 1.56968(10) -0.38664(11)
C10 C -0.0264(2) 1.6607(2) -0.4501(2)
H1 H 0.2663(20) 1.5197(22) -0.2256(21)
H2 H 0.3250(15) 1.3692(15) -0.1512(16)
H3 H 0.2093(15) 1.2318(18) -0.1433(17)
H4 H -0.0485(20) 1.7053(18) -0.4045(21)
H5 H 0.0322(25) 1.6888(23) -0.4766(28)
H6 H -0.0788(30) 1.6459(30) -0.5099(31)
C3D C -0.04938(10) 1.08544(10) -0.06060(10)
O2D O -0.08567(8) 1.15900(8) -0.11748(8)
Cu1D Cu 0.0000 1.18862(2) -0.2500
O1D O 0.08270(8) 1.08060(8) -0.16244(8)
C1D C 0.04801(10) 1.03884(10) -0.08587(10)
C2D C 0.09163(11) 0.95654(11) -0.02449(11)
Cl1D Cl 0.20076(3) 0.90260(4) -0.05102(4)
O1E O -0.08270(8) 1.08060(8) -0.33756(8)
O2E O 0.08567(8) 1.15900(8) -0.38252(8)
N1A N -0.09161(9) 1.30978(9) -0.30085(10)
C4A C -0.05548(9) 1.40329(10) -0.26314(10)
C8A C -0.18989(11) 1.29756(12) -0.33232(14)
C7A C -0.25628(12) 1.37835(15) -0.3286(2)
C6A C -0.22103(12) 1.47218(13) -0.2848(2)
C5A C -0.11972(10) 1.48530(11) -0.24884(12)
C9A C -0.08805(12) 1.58435(13) -0.18993(15)
O3A O -0.13059(13) 1.66603(12) -0.2092(2)
O4A O -0.01085(11) 1.56968(10) -0.11336(11)
C10A C 0.0264(2) 1.6607(2) -0.0499(2)
H4A H 0.0485(20) 1.7053(18) -0.0955(21)
H5A H -0.0322(25) 1.6888(23) -0.0234(28)
H6A H 0.0788(30) 1.6459(30) 0.0099(31)
H1A H -0.2663(20) 1.5197(22) -0.2744(21)
H2A H -0.3250(15) 1.3692(15) -0.3488(16)
H3A H -0.2093(15) 1.2318(18) -0.3567(17)
loop_
_geom_bond_atom_site_label_1
_geom_bond_atom_site_label_2
_geom_bond_site_symmetry_1
_geom_bond_site_symmetry_2
Cu1 O1 1_555 1_555
Cl1 C2 1_555 1_555
O1 C1 1_555 1_555
O2 Cu1 1_555 1_555
C1 C2 1_555 1_555
C2 C3D 1_555 1_555
C3 O2 1_555 1_555
N1 C4 1_555 1_555
C4 C5 1_555 1_555
C5 C6 1_555 1_555
C6 C7 1_555 1_555
C7 C8 1_555 1_555
C8 N1 1_555 1_555
C9 C5 1_555 1_555
O3 C9 1_555 1_555
O4 C9 1_555 1_555
C10 O4 1_555 1_555
H1 C6 1_555 1_555
H2 C7 1_555 1_555
H3 C8 1_555 1_555
H4 C10 1_555 1_555
H5 C10 1_555 1_555
H6 C10 1_555 1_555
C3D O2D 1_555 1_555
O2D Cu1D 1_555 1_555
Cu1D N1 1_555 1_555
O1D Cu1D 1_555 1_555
C1D C3D 1_555 1_555
C2D C3 1_555 1_555
Cl1D C2D 1_555 1_555
O1E Cu1D 1_555 1_555
O2E Cu1D 1_555 1_555
N1A Cu1D 1_555 1_555
C4A C4 1_555 1_555
C8A N1A 1_555 1_555
C7A C8A 1_555 1_555
C6A C7A 1_555 1_555
C5A C4A 1_555 1_555
C9A C5A 1_555 1_555
O3A C9A 1_555 1_555
O4A C9A 1_555 1_555
C10A O4A 1_555 1_555
H4A C10A 1_555 1_555
H5A C10A 1_555 1_555
H6A C10A 1_555 1_555
H1A C6A 1_555 1_555
H2A C7A 1_555 1_555
H3A C8A 1_555 1_555
C1 C3 1_555 1_555
O1D C1D 1_555 1_555
C1D C2D 1_555 1_555
N1A C4A 1_555 1_555
C6A C5A 1_555 1_555

#END
