
#######################################################################
#
#                 Cambridge Crystallographic Data Centre
#                                CCDC 
#
#######################################################################
#
# If this CIF has been generated from an entry in the Cambridge 
# Structural Database, then it will include bibliographic, chemical, 
# crystal, experimental, refinement or atomic coordinate data resulting 
# from the CCDC's data processing and validation procedures.
#
#######################################################################

data_NACKOT01
_symmetry_cell_setting           orthorhombic
_symmetry_space_group_name_H-M   'P n n m'
_symmetry_Int_Tables_number      58
_space_group_name_Hall           '-P 2 2n'
loop_
_symmetry_equiv_pos_site_id
_symmetry_equiv_pos_as_xyz
1 x,y,z
2 -x,-y,z
3 1/2-x,1/2+y,1/2-z
4 1/2+x,1/2-y,1/2-z
5 -x,-y,-z
6 x,y,-z
7 1/2+x,1/2-y,1/2+z
8 1/2-x,1/2+y,1/2+z
_cell_length_a                   13.469(2)
_cell_length_b                   6.660(1)
_cell_length_c                   10.181(2)
_cell_angle_alpha                90
_cell_angle_beta                 90
_cell_angle_gamma                90
_cell_volume                     913.272
loop_
_atom_site_label
_atom_site_type_symbol
_atom_site_fract_x
_atom_site_fract_y
_atom_site_fract_z
Nd1 Nd 0.19934(2) 0.13499(4) 0.5000
O1 O 0.0242(3) 0.2779(8) 0.5000
H1 H -0.0159 0.2743 0.5799
O2 O 0.3365(2) 0.1147(5) 0.3403(3)
H2 H 0.3648 0.2154 0.2806
H3 H 0.3600 -0.0059 0.3242
C1 C 0.0491(3) 0.0380(5) 0.1181(4)
C2 C 0.0965(4) 0.0752(8) 0.0000
C3 C 0.1006(3) 0.0744(6) 0.2463(4)
O3 O 0.1358(2) 0.2435(5) 0.2694(3)
O4 O 0.1075(2) -0.0679(4) 0.3270(3)
C4 C 0.2060(4) 0.1272(8) 0.0000
O5 O 0.2321(3) 0.3036(7) 0.0000
O6 O 0.2643(3) -0.0196(7) 0.0000
H1E H -0.0159 0.2743 0.4201
C1A C -0.0491(3) -0.0380(5) 0.1181(4)
C2A C -0.0965(4) -0.0752(8) 0.0000
C3A C -0.1006(3) -0.0744(6) 0.2463(4)
O3A O -0.1358(2) -0.2435(5) 0.2694(3)
O4A O -0.1075(2) 0.0679(4) 0.3270(3)
C4A C -0.2060(4) -0.1272(8) 0.0000
O5A O -0.2321(3) -0.3036(7) 0.0000
O6A O -0.2643(3) 0.0196(7) 0.0000
C1D C -0.0491(3) -0.0380(5) -0.1181(4)
C3D C -0.1006(3) -0.0744(6) -0.2463(4)
O3D O -0.1358(2) -0.2435(5) -0.2694(3)
O4D O -0.1075(2) 0.0679(4) -0.3270(3)
C1E C 0.0491(3) 0.0380(5) -0.1181(4)
C3E C 0.1006(3) 0.0744(6) -0.2463(4)
O3E O 0.1358(2) 0.2435(5) -0.2694(3)
O4E O 0.1075(2) -0.0679(4) -0.3270(3)
Nd1A Nd -0.19934(2) -0.13499(4) 0.5000
O1A O -0.0242(3) -0.2779(8) 0.5000
H1A H 0.0159 -0.2743 0.5799
O2A O -0.3365(2) -0.1147(5) 0.3403(3)
H2A H -0.3648 -0.2154 0.2806
H3A H -0.3600 0.0059 0.3242
H1D H 0.0159 -0.2743 0.4201
O2E O 0.3365(2) 0.1147(5) 0.6597(3)
H2E H 0.3648 0.2154 0.7194
H3E H 0.3600 -0.0059 0.6758
O2D O -0.3365(2) -0.1147(5) 0.6597(3)
H2D H -0.3648 -0.2154 0.7194
H3D H -0.3600 0.0059 0.6758
Nd1_2 Nd 0.19934(2) 0.13499(4) -0.5000
Nd1A_2 Nd -0.19934(2) -0.13499(4) -0.5000
Nd1B Nd 0.30066(2) -0.36501(4) 0.0000
Nd1B_2 Nd 0.30066(2) 0.63499(4) 0.0000
Nd1C Nd -0.30066(2) -0.63499(4) 0.0000
Nd1C_2 Nd -0.30066(2) 0.36501(4) 0.0000
O3D_2 O -0.1358(2) -0.2435(5) 0.7306(3)
O3E_2 O 0.1358(2) 0.2435(5) 0.7306(3)
O4D_2 O -0.1075(2) 0.0679(4) 0.6730(3)
O4E_2 O 0.1075(2) -0.0679(4) 0.6730(3)
O5B O 0.2679(3) -0.1964(7) 0.5000
O5C O -0.2679(3) 0.1964(7) 0.5000
O6B O 0.2357(3) 0.4804(7) 0.5000
O6C O -0.2357(3) -0.4804(7) 0.5000
loop_
_geom_bond_atom_site_label_1
_geom_bond_atom_site_label_2
_geom_bond_site_symmetry_1
_geom_bond_site_symmetry_2
Nd1 O1 1_555 1_555
O1 H1 1_555 1_555
O2 Nd1 1_555 1_555
H2 O2 1_555 1_555
H3 O2 1_555 1_555
C1 C2 1_555 1_555
C2 C4 1_555 1_555
C3 C1 1_555 1_555
O3 Nd1 1_555 1_555
O4 Nd1 1_555 1_555
C4 O5 1_555 1_555
O5 Nd1B_2 1_555 1_555
O6 C4 1_555 1_555
H1E O1 1_555 1_555
C1A C1 1_555 1_555
C2A C1A 1_555 1_555
C3A C1A 1_555 1_555
O3A C3A 1_555 1_555
O4A C3A 1_555 1_555
C4A C2A 1_555 1_555
O5A C4A 1_555 1_555
O6A C4A 1_555 1_555
C1D C2A 1_555 1_555
C3D C1D 1_555 1_555
O3D C3D 1_555 1_555
O4D C3D 1_555 1_555
C1E C2 1_555 1_555
C3E C1E 1_555 1_555
O3E C3E 1_555 1_555
O4E C3E 1_555 1_555
Nd1A O3A 1_555 1_555
O1A Nd1A 1_555 1_555
H1A O1A 1_555 1_555
O2A Nd1A 1_555 1_555
H2A O2A 1_555 1_555
H3A O2A 1_555 1_555
H1D O1A 1_555 1_555
O2E Nd1 1_555 1_555
H2E O2E 1_555 1_555
H3E O2E 1_555 1_555
O2D Nd1A 1_555 1_555
H2D O2D 1_555 1_555
H3D O2D 1_555 1_555
Nd1_2 O3E 1_555 1_555
Nd1A_2 O3D 1_555 1_555
Nd1B O6 1_555 1_555
Nd1C O5A 1_555 1_555
Nd1C_2 O6A 1_555 1_555
O3D_2 Nd1A 1_555 1_555
O3E_2 Nd1 1_555 1_555
O4D_2 Nd1A 1_555 1_555
O4E_2 Nd1 1_555 1_555
O5B Nd1 1_555 1_555
O5C Nd1A 1_555 1_555
O6B Nd1 1_555 1_555
O6C Nd1A 1_555 1_555
C3 O3 1_555 1_555
C3 O4 1_555 1_555
O4A Nd1A 1_555 1_555
C1D C1E 1_555 1_555
O4D Nd1A_2 1_555 1_555
O4E Nd1_2 1_555 1_555

#END
