
#######################################################################
#
#                 Cambridge Crystallographic Data Centre
#                                CCDC 
#
#######################################################################
#
# If this CIF has been generated from an entry in the Cambridge 
# Structural Database, then it will include bibliographic, chemical, 
# crystal, experimental, refinement or atomic coordinate data resulting 
# from the CCDC's data processing and validation procedures.
#
#######################################################################

data_NACLOU
_symmetry_cell_setting           monoclinic
_symmetry_space_group_name_H-M   'P 21/c'
_symmetry_Int_Tables_number      14
_space_group_name_Hall           '-P 2ybc'
loop_
_symmetry_equiv_pos_site_id
_symmetry_equiv_pos_as_xyz
1 x,y,z
2 -x,1/2+y,1/2-z
3 -x,-y,-z
4 x,1/2-y,1/2+z
_cell_length_a                   7.9977(2)
_cell_length_b                   29.9156(7)
_cell_length_c                   9.3260(2)
_cell_angle_alpha                90
_cell_angle_beta                 100.6910(10)
_cell_angle_gamma                90
_cell_volume                     2192.57
loop_
_atom_site_label
_atom_site_type_symbol
_atom_site_fract_x
_atom_site_fract_y
_atom_site_fract_z
Eu1 Eu 0.45332(6) 0.010398(17) 0.27379(5)
F1 F 0.1922(15) 0.2222(3) 0.6110(15)
F2 F 0.3471(12) 0.1696(3) 0.4462(11)
F3 F 0.6476(16) 0.2128(3) -0.2525(12)
F4 F 0.6612(11) 0.1247(3) -0.2405(9)
F5 F 0.9991(18) 0.1897(4) 0.0851(16)
F6 F 0.9817(13) 0.1026(3) 0.0738(11)
O1 O 0.3273(11) 0.0804(3) 0.3359(7)
O2 O 0.4376(9) 0.0412(2) 0.5297(7)
O3 O 0.5355(10) 0.0558(2) 0.0976(7)
O4 O 0.2075(10) 0.0198(3) 0.0742(8)
O5 O 0.7413(9) 0.0312(3) 0.3557(7)
O6 O 0.2027(10) -0.0218(3) 0.3464(9)
O7 O 0.9196(10) 0.0261(3) 0.2020(9)
O8 O 0.5199(11) 0.0515(3) -0.1396(8)
C1 C 0.3507(13) 0.0743(3) 0.4712(12)
C2 C 0.2680(13) 0.1052(4) 0.5640(11)
C3 C 0.1846(15) 0.0872(4) 0.6700(12)
H1 H 0.1869 0.0565 0.6862
C4 C 0.0984(16) 0.1148(5) 0.7509(15)
H2 H 0.0376 0.1023 0.8166
C5 C 0.2686(15) 0.1503(4) 0.5464(14)
C6 C 0.1011(19) 0.1595(6) 0.7361(17)
H3 H 0.0471 0.1779 0.7939
C7 C 0.8410(12) 0.0488(4) 0.2787(10)
C8 C 0.8578(13) 0.0984(4) 0.2838(12)
C9 C 0.7991(16) 0.1232(5) 0.3932(15)
H4 H 0.7513 0.1084 0.4635
C10 C 0.5275(12) 0.0730(3) -0.0250(9)
C11 C 0.5261(13) 0.1225(4) -0.0320(10)
C12 C 0.4572(18) 0.1479(4) 0.0690(13)
H5 H 0.4171 0.1335 0.1441
C13 C 0.448(2) 0.1934(5) 0.0598(16)
H6 H 0.3984 0.2092 0.1272
C14 C 0.509(3) 0.2164(5) -0.047(2)
H7 H 0.5023 0.2474 -0.0532
C15 C 0.5885(16) 0.1462(4) -0.1410(13)
C16 C 0.582(2) 0.1917(5) -0.1459(17)
C17 C 0.938(2) 0.1681(6) 0.190(2)
C18 C 0.9288(16) 0.1226(5) 0.1826(14)
C19 C 0.812(2) 0.1696(6) 0.397(2)
H8 H 0.7713 0.1857 0.4687
C20 C 0.885(2) 0.1914(6) 0.296(2)
H9 H 0.8970 0.2223 0.3009
C21 C 0.186(2) 0.1776(4) 0.6325(19)
H10 H 0.120(7) 0.030(3) 0.102(9)
H11 H 0.199(19) 0.001(4) 0.006(11)
H12 H 0.103(6) -0.017(4) 0.302(11)
H13 H 0.23(2) -0.028(5) 0.435(5)
Eu1B Eu 0.54668(6) -0.010398(17) 0.72621(5)
Eu1B_2 Eu 0.54668(6) -0.010398(17) -0.27379(5)
O2B O 0.5624(9) -0.0412(2) 0.4703(7)
O8B O 0.4801(11) -0.0515(3) 0.1396(8)
loop_
_geom_bond_atom_site_label_1
_geom_bond_atom_site_label_2
_geom_bond_site_symmetry_1
_geom_bond_site_symmetry_2
Eu1 O1 1_555 1_555
F1 C21 1_555 1_555
F2 C5 1_555 1_555
F3 C16 1_555 1_555
F4 C15 1_555 1_555
F5 C17 1_555 1_555
F6 C18 1_555 1_555
O1 C1 1_555 1_555
O2 Eu1 1_555 1_555
O3 Eu1 1_555 1_555
O4 Eu1 1_555 1_555
O5 Eu1 1_555 1_555
O6 Eu1 1_555 1_555
O7 C7 1_555 1_555
O8 C10 1_555 1_555
C1 O2 1_555 1_555
C2 C1 1_555 1_555
C3 C2 1_555 1_555
H1 C3 1_555 1_555
C4 C3 1_555 1_555
H2 C4 1_555 1_555
C5 C2 1_555 1_555
C6 C4 1_555 1_555
H3 C6 1_555 1_555
C7 O5 1_555 1_555
C8 C7 1_555 1_555
C9 C8 1_555 1_555
H4 C9 1_555 1_555
C10 O3 1_555 1_555
C11 C10 1_555 1_555
C12 C11 1_555 1_555
H5 C12 1_555 1_555
C13 C12 1_555 1_555
H6 C13 1_555 1_555
C14 C13 1_555 1_555
H7 C14 1_555 1_555
C15 C11 1_555 1_555
C16 C14 1_555 1_555
C17 C18 1_555 1_555
C18 C8 1_555 1_555
C19 C9 1_555 1_555
H8 C19 1_555 1_555
C20 C17 1_555 1_555
H9 C20 1_555 1_555
C21 C5 1_555 1_555
H10 O4 1_555 1_555
H11 O4 1_555 1_555
H12 O6 1_555 1_555
H13 O6 1_555 1_555
Eu1B O2 1_555 1_555
Eu1B_2 O8 1_555 1_555
O2B Eu1 1_555 1_555
O8B Eu1 1_555 1_555
C6 C21 1_555 1_555
C15 C16 1_555 1_555
C19 C20 1_555 1_555
Eu1B O2B 1_555 1_555

#END
