
#######################################################################
#
#                 Cambridge Crystallographic Data Centre
#                                CCDC 
#
#######################################################################
#
# If this CIF has been generated from an entry in the Cambridge 
# Structural Database, then it will include bibliographic, chemical, 
# crystal, experimental, refinement or atomic coordinate data resulting 
# from the CCDC's data processing and validation procedures.
#
#######################################################################

data_NACLIO
_symmetry_cell_setting           triclinic
_symmetry_space_group_name_H-M   'P -1'
_symmetry_Int_Tables_number      2
_space_group_name_Hall           '-P 1'
loop_
_symmetry_equiv_pos_site_id
_symmetry_equiv_pos_as_xyz
1 x,y,z
2 -x,-y,-z
_cell_length_a                   9.6100(19)
_cell_length_b                   10.180(2)
_cell_length_c                   14.090(3)
_cell_angle_alpha                74.29(3)
_cell_angle_beta                 85.50(3)
_cell_angle_gamma                74.86(3)
_cell_volume                     1280.83
loop_
_atom_site_label
_atom_site_type_symbol
_atom_site_fract_x
_atom_site_fract_y
_atom_site_fract_z
Tb1 Tb 0.24279(3) 1.00861(3) 0.514717(19)
C1 C 0.5588(4) 0.8410(4) 0.77962(19)
C2 C 0.6742(4) 0.7233(4) 0.8054(2)
H1 H 0.7280 0.6861 0.7566
C3 C 0.7094(4) 0.6612(4) 0.9040(3)
H2 H 0.7866 0.5824 0.9213
C4 C 0.6291(5) 0.7167(5) 0.9769(2)
H3 H 0.6526 0.6752 1.0429
C5 C 0.5136(4) 0.8344(4) 0.9511(2)
H4 H 0.4599 0.8716 0.9999
C6 C 0.4785(3) 0.8966(4) 0.8525(3)
C7 C 0.5227(6) 0.8949(6) 0.6720(4)
C8 C 0.0431(4) 0.6378(3) 0.6836(3)
C9 C -0.0126(5) 0.5537(5) 0.6416(3)
H5 H -0.0369 0.5835 0.5752
C10 C -0.0320(5) 0.4251(4) 0.6988(4)
H6 H -0.0692 0.3688 0.6708
C11 C 0.0043(5) 0.3805(4) 0.7981(4)
H7 H -0.0087 0.2945 0.8363
C12 C 0.0599(5) 0.4646(5) 0.8401(3)
H8 H 0.0842 0.4348 0.9064
C13 C 0.0793(4) 0.5933(4) 0.7828(3)
C14 C 0.0663(6) 0.7726(6) 0.6156(4)
C15 C 0.3843(4) 0.7208(4) 0.3281(3)
C16 C 0.3308(4) 0.7493(3) 0.2338(3)
C17 C 0.3796(5) 0.6528(5) 0.1777(2)
H9 H 0.3438 0.6718 0.1146
C18 C 0.4819(5) 0.5278(4) 0.2158(3)
H10 H 0.5145 0.4633 0.1782
C19 C 0.5353(4) 0.4994(3) 0.3100(4)
H11 H 0.6038 0.4158 0.3355
C20 C 0.4866(4) 0.5958(4) 0.3661(3)
H12 H 0.5224 0.5768 0.4292
C21 C 0.3346(6) 0.8139(6) 0.3971(4)
I1 I 0.31386(5) 1.08285(5) 0.82693(3)
I2 I 0.19120(5) 0.94018(5) 0.16061(3)
I3 I 0.15123(5) 0.71569(5) 0.85594(3)
O1 O 0.3935(4) 0.9411(5) 0.6477(3)
O2 O 0.1848(4) 0.8002(4) 0.6138(3)
O3 O 0.4192(4) 0.8127(4) 0.4612(3)
O4 O 0.2069(4) 0.8932(4) 0.3921(3)
O5 O 0.6249(4) 0.8874(5) 0.6113(3)
O6 O -0.0374(4) 0.8503(4) 0.5611(3)
O7 O 0.2781(4) 1.2306(5) 0.5406(3)
O8 O 0.0770(4) 1.0816(5) 0.6421(3)
H13 H 0.264(7) 1.238(9) 0.597(2)
H14 H 0.360(4) 1.234(9) 0.520(5)
H15 H 0.107(8) 1.059(8) 0.699(2)
H16 H -0.008(3) 1.089(9) 0.632(6)
Tb1A Tb 0.75721(3) 0.99139(3) 0.485283(19)
Tb1A_2 Tb -0.24279(3) 0.99139(3) 0.485283(19)
O5A O 0.3751(4) 1.1126(5) 0.3887(3)
O6A O 0.0374(4) 1.1497(4) 0.4389(3)
loop_
_geom_bond_atom_site_label_1
_geom_bond_atom_site_label_2
_geom_bond_site_symmetry_1
_geom_bond_site_symmetry_2
Tb1 O1 1_555 1_555
C1 C2 1_555 1_555
C2 H1 1_555 1_555
C3 C2 1_555 1_555
H2 C3 1_555 1_555
C4 C3 1_555 1_555
H3 C4 1_555 1_555
C5 C4 1_555 1_555
H4 C5 1_555 1_555
C6 C1 1_555 1_555
C7 C1 1_555 1_555
C8 C9 1_555 1_555
C9 H5 1_555 1_555
C10 C9 1_555 1_555
H6 C10 1_555 1_555
C11 C10 1_555 1_555
H7 C11 1_555 1_555
C12 C11 1_555 1_555
H8 C12 1_555 1_555
C13 C8 1_555 1_555
C14 C8 1_555 1_555
C15 C16 1_555 1_555
C16 C17 1_555 1_555
C17 H9 1_555 1_555
C18 C17 1_555 1_555
H10 C18 1_555 1_555
C19 C18 1_555 1_555
H11 C19 1_555 1_555
C20 C15 1_555 1_555
H12 C20 1_555 1_555
C21 C15 1_555 1_555
I1 C6 1_555 1_555
I2 C16 1_555 1_555
I3 C13 1_555 1_555
O1 C7 1_555 1_555
O2 Tb1 1_555 1_555
O3 Tb1 1_555 1_555
O4 Tb1 1_555 1_555
O5 C7 1_555 1_555
O6 C14 1_555 1_555
O7 Tb1 1_555 1_555
O8 Tb1 1_555 1_555
H13 O7 1_555 1_555
H14 O7 1_555 1_555
H15 O8 1_555 1_555
H16 O8 1_555 1_555
Tb1A O5 1_555 1_555
Tb1A_2 O6 1_555 1_555
O5A Tb1 1_555 1_555
O6A Tb1 1_555 1_555
C5 C6 1_555 1_555
C12 C13 1_555 1_555
C14 O2 1_555 1_555
C19 C20 1_555 1_555
C21 O3 1_555 1_555
C21 O4 1_555 1_555

#END
