
#######################################################################
#
#                 Cambridge Crystallographic Data Centre
#                                CCDC 
#
#######################################################################
#
# If this CIF has been generated from an entry in the Cambridge 
# Structural Database, then it will include bibliographic, chemical, 
# crystal, experimental, refinement or atomic coordinate data resulting 
# from the CCDC's data processing and validation procedures.
#
#######################################################################

data_NACNUB
_symmetry_cell_setting           triclinic
_symmetry_space_group_name_H-M   'P -1'
_symmetry_Int_Tables_number      2
_space_group_name_Hall           '-P 1'
loop_
_symmetry_equiv_pos_site_id
_symmetry_equiv_pos_as_xyz
1 x,y,z
2 -x,-y,-z
_cell_length_a                   7.1270(14)
_cell_length_b                   7.8000(16)
_cell_length_c                   9.945(2)
_cell_angle_alpha                80.26(3)
_cell_angle_beta                 87.86(3)
_cell_angle_gamma                72.69(3)
_cell_volume                     520.152
loop_
_atom_site_label
_atom_site_type_symbol
_atom_site_fract_x
_atom_site_fract_y
_atom_site_fract_z
Mn1 Mn 0.0000 0.0000 0.0000
N1 N -0.0258(2) 0.19538(17) -0.19702(12)
C1 C -0.0821(3) 0.3751(2) -0.20042(16)
C2 C -0.0734(3) 0.4978(2) -0.31587(16)
C3 C -0.0048(2) 0.43561(19) -0.43663(14)
C4 C 0.0519(3) 0.2497(2) -0.43270(16)
C5 C 0.0401(3) 0.1356(2) -0.31258(16)
O1 O -0.27379(19) 0.16631(18) 0.06429(13)
O2 O -0.16943(19) -0.15042(17) -0.08996(13)
H1 H -0.124(3) 0.414(3) -0.117(2)
H2 H -0.108(3) 0.622(3) -0.313(2)
H3 H 0.097(4) 0.197(3) -0.510(2)
H4 H 0.079(3) 0.014(3) -0.311(2)
H5 H -0.301(4) 0.240(3) 0.123(3)
H6 H -0.367(4) 0.197(3) 0.014(3)
H7 H -0.240(4) -0.094(3) -0.155(3)
H8 H -0.236(3) -0.189(3) -0.031(2)
C3A C 0.0048(2) 0.56439(19) -0.56337(14)
C2A C 0.0734(3) 0.5022(2) -0.68413(16)
C1A C 0.0821(3) 0.6249(2) -0.79958(16)
N1A N 0.0258(2) 0.80462(17) -0.80298(12)
Mn1A Mn 0.0000 1.0000 -1.0000
C5A C -0.0401(3) 0.8644(2) -0.68742(16)
C4A C -0.0519(3) 0.7503(2) -0.56730(16)
H3A H -0.097(4) 0.803(3) -0.490(2)
H4A H -0.079(3) 0.986(3) -0.689(2)
H1A H 0.124(3) 0.586(3) -0.883(2)
H2A H 0.108(3) 0.378(3) -0.687(2)
N1A_2 N 0.0258(2) -0.19538(17) 0.19702(12)
O1A O 0.27379(19) -0.16631(18) -0.06429(13)
O2A O 0.16943(19) 0.15042(17) 0.08996(13)
H5A H 0.301(4) -0.240(3) -0.123(3)
H6A H 0.367(4) -0.197(3) -0.014(3)
H7A H 0.240(4) 0.094(3) 0.155(3)
H8A H 0.236(3) 0.189(3) 0.031(2)
O3 O -0.3563(2) 0.39339(17) 0.23872(12)
O4 O -0.3969(2) 0.19570(16) 0.41712(12)
C6 C -0.4007(2) 0.3513(2) 0.36073(15)
C7 C -0.4622(3) 0.5049(2) 0.44017(16)
H13 H -0.446(3) 0.615(3) 0.396(2)
C7A C -0.5378(3) 0.4951(2) 0.55983(16)
C6A C -0.5993(2) 0.6487(2) 0.63927(15)
O3A O -0.6437(2) 0.60661(17) 0.76128(12)
O4A O -0.6031(2) 0.80430(16) 0.58288(12)
H13A H -0.554(3) 0.385(3) 0.604(2)
O5 O -0.4099(2) 0.7422(2) 0.11253(13)
H9 H -0.445(4) 0.812(4) 0.170(3)
H10 H -0.387(4) 0.641(4) 0.149(2)
O6 O -0.5763(2) -0.02066(19) 0.31246(14)
H11 H -0.599(4) -0.077(4) 0.382(3)
H12 H -0.517(4) 0.055(4) 0.335(3)
loop_
_geom_bond_atom_site_label_1
_geom_bond_atom_site_label_2
_geom_bond_site_symmetry_1
_geom_bond_site_symmetry_2
Mn1 N1 1_555 1_555
N1 C1 1_555 1_555
C1 C2 1_555 1_555
C2 C3 1_555 1_555
C3 C4 1_555 1_555
C4 C5 1_555 1_555
C5 N1 1_555 1_555
O1 Mn1 1_555 1_555
O2 Mn1 1_555 1_555
O3 C6 1_555 1_555
O4 C6 1_555 1_555
C6 C7 1_555 1_555
C7 H13 1_555 1_555
O5 H9 1_555 1_555
O6 H11 1_555 1_555
H1 C1 1_555 1_555
H2 C2 1_555 1_555
H3 C4 1_555 1_555
H4 C5 1_555 1_555
H5 O1 1_555 1_555
H6 O1 1_555 1_555
H7 O2 1_555 1_555
H8 O2 1_555 1_555
H10 O5 1_555 1_555
H12 O6 1_555 1_555
C3A C3 1_555 1_555
C2A C3A 1_555 1_555
C1A C2A 1_555 1_555
N1A C1A 1_555 1_555
Mn1A N1A 1_555 1_555
C5A N1A 1_555 1_555
C4A C3A 1_555 1_555
H3A C4A 1_555 1_555
H4A C5A 1_555 1_555
H1A C1A 1_555 1_555
H2A C2A 1_555 1_555
N1A_2 Mn1 1_555 1_555
O1A Mn1 1_555 1_555
O2A Mn1 1_555 1_555
C7A C7 1_555 1_555
C6A C7A 1_555 1_555
O3A C6A 1_555 1_555
O4A C6A 1_555 1_555
H13A C7A 1_555 1_555
H5A O1A 1_555 1_555
H6A O1A 1_555 1_555
H7A O2A 1_555 1_555
H8A O2A 1_555 1_555
C5A C4A 1_555 1_555

#END
