
#######################################################################
#
#                 Cambridge Crystallographic Data Centre
#                                CCDC 
#
#######################################################################
#
# If this CIF has been generated from an entry in the Cambridge 
# Structural Database, then it will include bibliographic, chemical, 
# crystal, experimental, refinement or atomic coordinate data resulting 
# from the CCDC's data processing and validation procedures.
#
#######################################################################

data_NACNOV
_symmetry_cell_setting           triclinic
_symmetry_space_group_name_H-M   'P -1'
_symmetry_Int_Tables_number      2
_space_group_name_Hall           '-P 1'
loop_
_symmetry_equiv_pos_site_id
_symmetry_equiv_pos_as_xyz
1 x,y,z
2 -x,-y,-z
_cell_length_a                   7.2354(14)
_cell_length_b                   7.7490(16)
_cell_length_c                   10.020(2)
_cell_angle_alpha                79.95(3)
_cell_angle_beta                 88.79(3)
_cell_angle_gamma                71.39(3)
_cell_volume                     523.888
loop_
_atom_site_label
_atom_site_type_symbol
_atom_site_fract_x
_atom_site_fract_y
_atom_site_fract_z
Mn1 Mn 0.0000 0.0000 0.0000
N1 N -0.0272(2) 0.1960(2) -0.19766(15)
C1 C -0.0793(3) 0.3784(3) -0.2025(2)
C2 C -0.0703(3) 0.5012(3) -0.3175(2)
C3 C -0.0064(3) 0.4362(2) -0.43686(17)
C4 C 0.0468(3) 0.2471(3) -0.4312(2)
C5 C 0.0346(3) 0.1335(3) -0.3120(2)
O1 O -0.2711(2) 0.1729(2) 0.05887(17)
O2 O -0.1699(2) -0.1507(2) -0.08791(17)
H1 H -0.121(3) 0.422(3) -0.123(3)
H2 H -0.115(4) 0.626(4) -0.316(3)
H3 H 0.089(4) 0.193(4) -0.504(3)
H4 H 0.071(4) 0.007(4) -0.309(3)
H5 H -0.294(4) 0.241(4) 0.114(3)
H6 H -0.368(4) 0.202(3) 0.011(3)
H7 H -0.242(5) -0.091(4) -0.157(3)
H8 H -0.231(4) -0.186(4) -0.031(3)
C3A C 0.0064(3) 0.5638(2) -0.56314(17)
C2A C 0.0703(3) 0.4988(3) -0.6825(2)
C1A C 0.0793(3) 0.6216(3) -0.7975(2)
N1A N 0.0272(2) 0.8040(2) -0.80234(15)
Mn1A Mn 0.0000 1.0000 -1.0000
C5A C -0.0346(3) 0.8665(3) -0.6880(2)
C4A C -0.0468(3) 0.7529(3) -0.5688(2)
H3A H -0.089(4) 0.807(4) -0.496(3)
H4A H -0.071(4) 0.993(4) -0.691(3)
H1A H 0.121(3) 0.578(3) -0.877(3)
H2A H 0.115(4) 0.374(4) -0.684(3)
N1A_2 N 0.0272(2) -0.1960(2) 0.19766(15)
O1A O 0.2711(2) -0.1729(2) -0.05887(17)
O2A O 0.1699(2) 0.1507(2) 0.08791(17)
H5A H 0.294(4) -0.241(4) -0.114(3)
H6A H 0.368(4) -0.202(3) -0.011(3)
H7A H 0.242(5) 0.091(4) 0.157(3)
H8A H 0.231(4) 0.186(4) 0.031(3)
O3 O -0.3497(3) 0.3905(2) 0.23647(16)
O4 O -0.3977(3) 0.20080(19) 0.41629(15)
C6 C -0.4023(3) 0.3569(3) 0.35621(19)
C7 C -0.4760(3) 0.5223(3) 0.42659(18)
H13 H -0.592(3) 0.603(3) 0.375(2)
H14 H -0.383(3) 0.582(3) 0.417(2)
C7A C -0.5240(3) 0.4777(3) 0.57341(18)
C6A C -0.5977(3) 0.6431(3) 0.64379(19)
O3A O -0.6503(3) 0.6095(2) 0.76353(16)
O4A O -0.6023(3) 0.79920(19) 0.58371(15)
H13A H -0.408(3) 0.397(3) 0.625(2)
H14A H -0.617(3) 0.418(3) 0.583(2)
O5 O -0.4051(2) 0.7435(3) 0.11244(16)
H9 H -0.442(4) 0.810(4) 0.178(3)
H10 H -0.381(4) 0.636(4) 0.149(3)
O6 O -0.5731(3) -0.0172(2) 0.31326(17)
H11 H -0.592(5) -0.083(5) 0.385(4)
H12 H -0.513(4) 0.054(4) 0.336(3)
loop_
_geom_bond_atom_site_label_1
_geom_bond_atom_site_label_2
_geom_bond_site_symmetry_1
_geom_bond_site_symmetry_2
Mn1 N1 1_555 1_555
N1 C1 1_555 1_555
C1 C2 1_555 1_555
C2 C3 1_555 1_555
C3 C4 1_555 1_555
C4 C5 1_555 1_555
C5 N1 1_555 1_555
O1 Mn1 1_555 1_555
O2 Mn1 1_555 1_555
O3 C6 1_555 1_555
O4 C6 1_555 1_555
C6 C7 1_555 1_555
C7 H13 1_555 1_555
O5 H9 1_555 1_555
O6 H11 1_555 1_555
H1 C1 1_555 1_555
H2 C2 1_555 1_555
H3 C4 1_555 1_555
H4 C5 1_555 1_555
H5 O1 1_555 1_555
H6 O1 1_555 1_555
H7 O2 1_555 1_555
H8 O2 1_555 1_555
H10 O5 1_555 1_555
H12 O6 1_555 1_555
H14 C7 1_555 1_555
C3A C3 1_555 1_555
C2A C3A 1_555 1_555
C1A C2A 1_555 1_555
N1A C1A 1_555 1_555
Mn1A N1A 1_555 1_555
C5A N1A 1_555 1_555
C4A C3A 1_555 1_555
H3A C4A 1_555 1_555
H4A C5A 1_555 1_555
H1A C1A 1_555 1_555
H2A C2A 1_555 1_555
N1A_2 Mn1 1_555 1_555
O1A Mn1 1_555 1_555
O2A Mn1 1_555 1_555
C7A C7 1_555 1_555
C6A C7A 1_555 1_555
O3A C6A 1_555 1_555
O4A C6A 1_555 1_555
H13A C7A 1_555 1_555
H14A C7A 1_555 1_555
H5A O1A 1_555 1_555
H6A O1A 1_555 1_555
H7A O2A 1_555 1_555
H8A O2A 1_555 1_555
C5A C4A 1_555 1_555

#END
