
#######################################################################
#
#                 Cambridge Crystallographic Data Centre
#                                CCDC 
#
#######################################################################
#
# If this CIF has been generated from an entry in the Cambridge 
# Structural Database, then it will include bibliographic, chemical, 
# crystal, experimental, refinement or atomic coordinate data resulting 
# from the CCDC's data processing and validation procedures.
#
#######################################################################

data_NACNOV01
_symmetry_cell_setting           triclinic
_symmetry_space_group_name_H-M   'P -1'
_symmetry_Int_Tables_number      2
_space_group_name_Hall           '-P 1'
loop_
_symmetry_equiv_pos_site_id
_symmetry_equiv_pos_as_xyz
1 x,y,z
2 -x,-y,-z
_cell_length_a                   7.1428(14)
_cell_length_b                   7.9415(16)
_cell_length_c                   9.960(2)
_cell_angle_alpha                79.61(3)
_cell_angle_beta                 86.83(3)
_cell_angle_gamma                72.54(3)
_cell_volume                     530.109
loop_
_atom_site_label
_atom_site_type_symbol
_atom_site_fract_x
_atom_site_fract_y
_atom_site_fract_z
Mn1 Mn 0.0000 0.0000 0.0000
O1 O 0.1568(4) 0.1469(3) 0.0915(3)
O3 O 0.2689(4) -0.1538(3) -0.0652(2)
N1 N -0.0248(4) 0.1897(3) -0.1908(3)
C2 C -0.0050(4) 0.4348(4) -0.4357(3)
C4 C -0.0715(5) 0.4944(4) -0.3099(4)
H3 H -0.1092 0.6161 -0.3060
C5 C 0.0401(5) 0.1332(4) -0.3108(3)
H4 H 0.0782 0.0108 -0.3122
C6 C 0.0523(5) 0.2491(5) -0.4319(4)
H5 H 0.0989 0.2028 -0.5107
C7 C -0.0802(6) 0.3715(4) -0.1933(3)
H6 H -0.1257 0.4143 -0.1130
H7 H 0.361(4) -0.189(5) -0.013(4)
H8 H 0.227(5) 0.191(5) 0.040(3)
H9 H 0.229(5) 0.081(4) 0.152(3)
H10 H 0.301(6) -0.225(4) -0.118(3)
Mn1_2 Mn 0.0000 1.0000 -1.0000
O1A O -0.1568(4) -0.1469(3) -0.0915(3)
O3A O -0.2689(4) 0.1538(3) 0.0652(2)
N1A N 0.0248(4) 0.8103(3) -0.8092(3)
N1A_2 N 0.0248(4) -0.1897(3) 0.1908(3)
C2A C 0.0050(4) 0.5652(4) -0.5643(3)
C4A C 0.0715(5) 0.5056(4) -0.6901(4)
H3A H 0.1092 0.3839 -0.6940
C5A C -0.0401(5) 0.8668(4) -0.6892(3)
H4A H -0.0782 0.9892 -0.6878
C6A C -0.0523(5) 0.7509(5) -0.5681(4)
H5A H -0.0989 0.7972 -0.4893
C7A C 0.0802(6) 0.6285(4) -0.8067(3)
H6A H 0.1257 0.5857 -0.8870
H7A H -0.361(4) 0.189(5) 0.013(4)
H8A H -0.227(5) -0.191(5) -0.040(3)
H9A H -0.229(5) -0.081(4) -0.152(3)
H10A H -0.301(6) 0.225(4) 0.118(3)
O2 O -0.5996(4) 0.8024(3) 0.5851(3)
O4 O -0.6461(5) 0.6055(4) 0.7674(3)
C1 C -0.5996(5) 0.6467(4) 0.6431(3)
C3 C -0.5372(5) 0.4939(4) 0.5621(3)
H1 H -0.4419 0.3969 0.6182
H2 H -0.6516 0.4535 0.5574
O2A O -0.4004(4) 0.1976(3) 0.4149(3)
O4A O -0.3539(5) 0.3945(4) 0.2326(3)
C1A C -0.4004(5) 0.3533(4) 0.3569(3)
C3A C -0.4628(5) 0.5061(4) 0.4379(3)
H1A H -0.5581 0.6031 0.3818
H2A H -0.3484 0.5465 0.4426
O5 O -0.5893(4) 0.2545(4) -0.1093(3)
H13 H -0.620(6) 0.358(2) -0.149(4)
H14 H -0.528(5) 0.193(5) -0.162(3)
O6 O -0.4200(4) 0.0217(4) -0.3119(3)
H11 H -0.5344(19) 0.069(5) -0.304(4)
H12 H -0.386(6) 0.067(5) -0.384(2)
loop_
_geom_bond_atom_site_label_1
_geom_bond_atom_site_label_2
_geom_bond_site_symmetry_1
_geom_bond_site_symmetry_2
Mn1 O1 1_555 1_555
O1 H8 1_555 1_555
O2 C1 1_555 1_555
O3 Mn1 1_555 1_555
O4 C1 1_555 1_555
N1 Mn1 1_555 1_555
C1 C3 1_555 1_555
C2 C4 1_555 1_555
C3 H1 1_555 1_555
H2 C3 1_555 1_555
C4 H3 1_555 1_555
C5 N1 1_555 1_555
H4 C5 1_555 1_555
O5 H13 1_555 1_555
O6 H11 1_555 1_555
C6 C2 1_555 1_555
H5 C6 1_555 1_555
C7 N1 1_555 1_555
H6 C7 1_555 1_555
H7 O3 1_555 1_555
H9 O1 1_555 1_555
H10 O3 1_555 1_555
H12 O6 1_555 1_555
H14 O5 1_555 1_555
Mn1_2 N1A 1_555 1_555
O1A Mn1 1_555 1_555
O2A C1A 1_555 1_555
O3A Mn1 1_555 1_555
O4A C1A 1_555 1_555
N1A C5A 1_555 1_555
N1A_2 Mn1 1_555 1_555
C1A C3A 1_555 1_555
C2A C2 1_555 1_555
C3A C3 1_555 1_555
H1A C3A 1_555 1_555
H2A C3A 1_555 1_555
C4A C2A 1_555 1_555
H3A C4A 1_555 1_555
C5A H4A 1_555 1_555
C6A C2A 1_555 1_555
H5A C6A 1_555 1_555
C7A N1A 1_555 1_555
H6A C7A 1_555 1_555
H7A O3A 1_555 1_555
H8A O1A 1_555 1_555
H9A O1A 1_555 1_555
H10A O3A 1_555 1_555
C4 C7 1_555 1_555
C5 C6 1_555 1_555
C4A C7A 1_555 1_555
C5A C6A 1_555 1_555

#END
