
#######################################################################
#
#                 Cambridge Crystallographic Data Centre
#                                CCDC 
#
#######################################################################
#
# If this CIF has been generated from an entry in the Cambridge 
# Structural Database, then it will include bibliographic, chemical, 
# crystal, experimental, refinement or atomic coordinate data resulting 
# from the CCDC's data processing and validation procedures.
#
#######################################################################

data_NACTIV
_symmetry_cell_setting           monoclinic
_symmetry_space_group_name_H-M   'P c'
_symmetry_Int_Tables_number      7
_space_group_name_Hall           'P -2yc'
loop_
_symmetry_equiv_pos_site_id
_symmetry_equiv_pos_as_xyz
1 x,y,z
2 x,-y,1/2+z
_cell_length_a                   19.6871(10)
_cell_length_b                   19.761
_cell_length_c                   15.543
_cell_angle_alpha                90.00
_cell_angle_beta                 101.973(2)
_cell_angle_gamma                90.00
_cell_volume                     5915.25
loop_
_atom_site_label
_atom_site_type_symbol
_atom_site_fract_x
_atom_site_fract_y
_atom_site_fract_z
Zn1 Zn -0.36945(5) 0.09061(5) 0.47279(7)
Zn2 Zn 0.03577(5) 0.19440(5) 0.45409(6)
Zn3 Zn -0.61318(5) 0.06247(5) 0.47782(6)
Zn4 Zn -0.02282(5) -0.03123(4) 0.47794(6)
Zn5 Zn 0.10399(5) 0.57621(5) 0.43871(7)
Zn6 Zn -0.48478(5) -0.30108(5) 0.45686(6)
Zn7 Zn -0.13754(5) 0.56769(5) 0.44849(7)
Zn8 Zn -0.53804(5) 0.47417(4) 0.47676(7)
O1 O -0.0952(3) 0.0344(3) 0.3063(4)
O2 O -0.1130(3) 0.0132(3) 0.4412(4)
O3 O -0.1205(4) 0.1781(4) 0.3939(5)
O4 O -0.0385(3) 0.1545(3) 0.5093(4)
O5 O -0.1073(4) 0.4315(3) 0.4044(5)
O6 O -0.0625(3) 0.5041(3) 0.5062(4)
O7 O 0.0107(5) 0.5108(4) 0.3220(8)
O8 O 0.0859(6) 0.4728(4) 0.4380(7)
O9 O 0.1311(3) 0.1562(3) 0.4863(4)
O10 O 0.1092(4) 0.1345(4) 0.6172(5)
O11 O 0.0564(3) 0.0077(3) 0.4308(4)
O12 O 0.1396(4) -0.0192(4) 0.5464(5)
O13 O -0.5827(5) -0.0405(4) 0.4699(6)
O14 O -0.5193(5) 0.0111(3) 0.5855(7)
O15 O -0.4388(3) 0.0235(3) 0.4074(4)
O16 O -0.3833(4) -0.0443(3) 0.5091(5)
O17 O -0.3876(3) -0.3387(3) 0.4870(4)
O18 O -0.4101(3) -0.3789(3) 0.6122(4)
O19 O -0.3822(4) -0.5267(4) 0.5190(5)
O20 O -0.4672(3) -0.4773(3) 0.4250(5)
O21 O -0.4133(4) 0.1791(3) 0.4319(5)
O22 O -0.4354(3) 0.2234(3) 0.5551(4)
O23 O -0.5810(4) 0.2082(3) 0.4108(4)
O24 O -0.5861(4) 0.1528(3) 0.5337(4)
O25 O -0.6074(3) -0.4713(4) 0.3000(5)
O26 O -0.6306(3) -0.4872(3) 0.4331(4)
O27 O -0.6459(4) -0.3218(4) 0.3734(5)
O28 O -0.5661(3) -0.3417(3) 0.4957(4)
O29 O 0.0582(4) -0.3360(3) 0.3956(4)
O30 O 0.0529(4) -0.2902(3) 0.5248(4)
O31 O -0.1044(4) -0.3455(3) 0.5076(4)
O32 O -0.1072(5) -0.2858(4) 0.3886(5)
O33 O -0.4063(3) 0.0931(3) 0.5907(4)
O34 O 0.0167(3) 0.1247(3) 0.3473(4)
O35 O -0.5700(3) 0.0797(3) 0.3674(4)
O36 O 0.0054(4) 0.0299(3) 0.5955(4)
O37 O 0.0591(3) 0.5764(3) 0.5517(4)
O38 O -0.5016(4) -0.3585(3) 0.3409(4)
O39 O -0.1031(4) 0.5839(3) 0.3335(5)
O40 O -0.5221(3) 0.5387(3) 0.5897(4)
N1 N -0.3130(4) 0.0874(4) 0.3696(5)
N2 N -0.2645(4) 0.0976(4) 0.5393(5)
N3 N 0.0370(4) 0.2859(3) 0.5326(4)
N4 N 0.0226(4) 0.2736(3) 0.3612(4)
N5 N 0.3259(4) 0.0533(4) 0.5811(5)
N6 N 0.2845(4) 0.0618(3) 0.4065(5)
N7 N -0.4746(4) -0.2217(4) 0.5552(5)
N8 N -0.4959(4) -0.2099(4) 0.3838(5)
N9 N -0.1930(4) -0.4465(4) 0.5547(5)
N10 N -0.2408(4) -0.4356(4) 0.3829(5)
N11 N -0.5253(4) 0.3888(3) 0.3918(5)
N12 N -0.5507(4) 0.3892(3) 0.5534(4)
N13 N -0.8345(4) -0.4247(3) 0.3414(5)
N14 N -0.7947(4) -0.4067(3) 0.5106(5)
N15 N -0.0255(4) -0.1120(3) 0.3825(5)
N16 N -0.0410(4) -0.1172(3) 0.5479(5)
C1 C -0.3448(5) 0.0730(5) 0.2878(7)
H1 H -0.3939 0.0766 0.2722
C2 C -0.3097(6) 0.0534(6) 0.2256(8)
H2 H -0.3333 0.0456 0.1666
C3 C -0.2379(5) 0.0449(5) 0.2508(7)
H3 H -0.2120 0.0313 0.2085
C4 C -0.2044(5) 0.0560(4) 0.3363(6)
C5 C -0.2452(4) 0.0825(4) 0.3946(5)
C6 C -0.2189(4) 0.1054(4) 0.4879(6)
C7 C -0.1533(5) 0.1362(5) 0.5226(6)
C8 C -0.1385(6) 0.1506(6) 0.6102(7)
H4 H -0.0947 0.1702 0.6349
C9 C -0.1833(6) 0.1384(7) 0.6632(7)
H5 H -0.1710 0.1469 0.7246
C10 C -0.2476(6) 0.1130(7) 0.6245(7)
H6 H -0.2811 0.1062 0.6599
C11 C -0.1316(5) 0.0335(4) 0.3632(7)
C12 C -0.1011(5) 0.1577(4) 0.4685(6)
C13 C 0.0354(6) 0.2828(5) 0.6163(6)
H7 H 0.0540 0.2438 0.6485
C14 C 0.0080(6) 0.3333(5) 0.6600(6)
H8 H 0.0098 0.3304 0.7214
C15 C -0.0216(5) 0.3874(5) 0.6122(6)
H9 H -0.0414 0.4229 0.6401
C16 C -0.0229(5) 0.3907(4) 0.5214(6)
C17 C 0.0118(4) 0.3400(4) 0.4860(6)
C18 C 0.0188(5) 0.3369(4) 0.3909(6)
C19 C 0.0270(5) 0.3918(4) 0.3382(6)
C20 C 0.0297(6) 0.3808(5) 0.2530(7)
H10 H 0.0317 0.4179 0.2148
C21 C 0.0296(7) 0.3153(6) 0.2217(7)
H11 H 0.0306 0.3067 0.1619
C22 C 0.0281(6) 0.2640(4) 0.2785(6)
H12 H 0.0311 0.2189 0.2583
C23 C -0.0673(4) 0.4455(4) 0.4730(6)
C24 C 0.0422(8) 0.4635(5) 0.3718(12)
C25 C 0.3536(5) 0.0650(5) 0.6651(6)
H13 H 0.3995 0.0499 0.6888
C26 C 0.3171(5) 0.0986(5) 0.7187(6)
H14 H 0.3375 0.1062 0.7789
C27 C 0.2505(5) 0.1212(5) 0.6840(6)
H15 H 0.2256 0.1462 0.7196
C28 C 0.2208(4) 0.1073(4) 0.5990(5)
C29 C 0.2593(4) 0.0722(4) 0.5485(6)
C30 C 0.2357(5) 0.0524(4) 0.4539(6)
C31 C 0.1706(4) 0.0256(4) 0.4162(6)
C32 C 0.1544(5) 0.0157(5) 0.3256(6)
H16 H 0.1100 -0.0008 0.2977
C33 C 0.2044(5) 0.0305(5) 0.2762(6)
H17 H 0.1936 0.0272 0.2139
C34 C 0.2686(5) 0.0498(5) 0.3195(6)
H18 H 0.3039 0.0550 0.2867
C35 C 0.1488(5) 0.1344(4) 0.5659(6)
C36 C 0.1203(5) 0.0036(4) 0.4705(6)
C37 C -0.4791(6) -0.2355(5) 0.6388(6)
H19 H -0.4690 -0.2801 0.6605
C38 C -0.4975(6) -0.1877(5) 0.6935(6)
H20 H -0.4994 -0.1982 0.7526
C39 C -0.5134(5) -0.1235(5) 0.6595(6)
H21 H -0.5270 -0.0893 0.6955
C40 C -0.5097(4) -0.1086(4) 0.5743(6)
C41 C -0.4870(4) -0.1589(4) 0.5244(5)
C42 C -0.4803(4) -0.1528(4) 0.4308(5)
C43 C -0.4614(5) -0.0941(5) 0.3892(6)
C44 C -0.4685(5) -0.0947(5) 0.3011(7)
H22 H -0.4598 -0.0544 0.2717
C45 C -0.4878(6) -0.1522(5) 0.2530(7)
H23 H -0.4939 -0.1524 0.1908
C46 C -0.4981(6) -0.2092(5) 0.2984(6)
H24 H -0.5074 -0.2504 0.2668
C47 C -0.5374(6) -0.0413(6) 0.5393(10)
C48 C -0.4253(5) -0.0345(4) 0.4434(7)
C49 C -0.1624(5) -0.4378(5) 0.6379(7)
H25 H -0.1151 -0.4504 0.6561
C50 C -0.1966(6) -0.4109(7) 0.7003(7)
H26 H -0.1735 -0.4066 0.7601
C51 C -0.2647(5) -0.3906(5) 0.6729(6)
H27 H -0.2889 -0.3707 0.7134
C52 C -0.2980(4) -0.3997(5) 0.5842(6)
C53 C -0.2610(5) -0.4293(4) 0.5280(6)
C54 C -0.2884(4) -0.4446(4) 0.4333(6)
C55 C -0.3544(5) -0.4675(4) 0.3982(6)
C56 C -0.3748(5) -0.4729(5) 0.3078(6)
H28 H -0.4211 -0.4855 0.2818
C57 C -0.3265(5) -0.4595(6) 0.2547(6)
H29 H -0.3397 -0.4622 0.1924
C58 C -0.2618(5) -0.4431(6) 0.2941(6)
H30 H -0.2286 -0.4362 0.2584
C59 C -0.3724(5) -0.3711(5) 0.5596(6)
C60 C -0.4037(5) -0.4914(4) 0.4530(6)
C61 C -0.4974(6) 0.4002(5) 0.3218(6)
H31 H -0.5131 0.4379 0.2852
C62 C -0.4459(6) 0.3584(5) 0.3006(7)
H32 H -0.4256 0.3677 0.2515
C63 C -0.4263(5) 0.3042(4) 0.3531(6)
H33 H -0.3898 0.2763 0.3418
C64 C -0.4573(5) 0.2875(4) 0.4226(6)
C65 C -0.5071(5) 0.3337(4) 0.4416(6)
C66 C -0.5457(4) 0.3294(4) 0.5136(6)
C67 C -0.5779(4) 0.2712(4) 0.5392(6)
C68 C -0.6112(5) 0.2764(5) 0.6096(6)
H34 H -0.6330 0.2379 0.6284
C69 C -0.6127(5) 0.3384(5) 0.6527(6)
H35 H -0.6335 0.3425 0.7025
C70 C -0.5829(5) 0.3932(4) 0.6203(6)
H36 H -0.5855 0.4360 0.6472
C71 C -0.4341(5) 0.2257(5) 0.4769(7)
C72 C -0.5819(5) 0.2055(4) 0.4876(7)
C73 C -0.8601(5) -0.4414(5) 0.2562(7)
H37 H -0.9089 -0.4408 0.2350
C74 C -0.8188(5) -0.4588(5) 0.2005(6)
H38 H -0.8380 -0.4665 0.1400
C75 C -0.7486(5) -0.4653(5) 0.2325(6)
H39 H -0.7193 -0.4798 0.1946
C76 C -0.7204(5) -0.4509(4) 0.3192(6)
C77 C -0.7651(4) -0.4257(4) 0.3718(6)
C78 C -0.7444(5) -0.3977(4) 0.4642(6)
C79 C -0.6829(5) -0.3646(4) 0.4996(6)
C80 C -0.6727(5) -0.3447(5) 0.5876(6)
H40 H -0.6311 -0.3223 0.6147
C81 C -0.7226(6) -0.3578(6) 0.6344(7)
H41 H -0.7149 -0.3466 0.6951
C82 C -0.7835(6) -0.3868(5) 0.5939(7)
H42 H -0.8191 -0.3930 0.6261
C83 C -0.6285(5) -0.3411(4) 0.4501(7)
C84 C -0.6461(5) -0.4692(4) 0.3518(7)
C85 C -0.0025(5) -0.1013(4) 0.3086(6)
H43 H -0.0147 -0.0606 0.2766
C86 C 0.0386(6) -0.1481(4) 0.2780(6)
H44 H 0.0566 -0.1388 0.2271
C87 C 0.0533(5) -0.2084(4) 0.3223(6)
H45 H 0.0819 -0.2409 0.3019
C88 C 0.0272(4) -0.2221(4) 0.3953(5)
C89 C -0.0136(4) -0.1722(4) 0.4245(6)
C90 C -0.0470(5) -0.1747(4) 0.5031(6)
C91 C -0.0847(5) -0.2290(4) 0.5266(6)
C92 C -0.1100(5) -0.2244(5) 0.6011(6)
H46 H -0.1335 -0.2619 0.6198
C93 C -0.1019(5) -0.1651(4) 0.6502(6)
H47 H -0.1192 -0.1613 0.7027
C94 C -0.0686(5) -0.1131(5) 0.6210(5)
H48 H -0.0643 -0.0717 0.6528
C95 C 0.0472(5) -0.2884(5) 0.4435(6)
C96 C -0.0999(5) -0.2918(4) 0.4696(7)
N5_2 N -0.6741(4) 0.0533(4) 0.5811(5)
N6_2 N -0.7155(4) 0.0618(3) 0.4065(5)
O29_2 O 0.0582(4) 0.6640(3) 0.3956(4)
N13_2 N 0.1655(4) 0.5753(3) 0.3414(5)
N14_2 N 0.2053(4) 0.5933(3) 0.5106(5)
O31_2 O -0.1044(4) 0.6545(3) 0.5076(4)
N9_2 N -0.1930(4) 0.5535(4) 0.5547(5)
N10_2 N -0.2408(4) 0.5644(4) 0.3829(5)
O20_2 O -0.4672(3) 0.5227(3) 0.4250(5)
O26_2 O -0.6306(3) 0.5128(3) 0.4331(4)
Zn8_2 Zn -0.53804(5) -0.52583(4) 0.47676(7)
Zn5_2 Zn 0.10399(5) -0.42379(5) 0.43871(7)
Zn7_2 Zn -0.13754(5) -0.43231(5) 0.44849(7)
Zn3_2 Zn 0.38682(5) 0.06247(5) 0.47782(6)
Zn5_3 Zn -0.89601(5) -0.42379(5) 0.43871(7)
O41 O 0.2162(7) -0.6825(10) 0.539(3)
O42 O 0.2355(12) -0.344(3) 0.920(2)
O43 O 0.3105(10) -0.1238(11) 0.627(2)
O44 O 0.2492(10) -0.1625(8) 0.5253(15)
O45 O 0.2177(6) 0.2765(5) 0.7604(8)
O46 O 0.7521(18) -0.2387(13) 0.7840(19)
O47 O 0.7143(12) -0.1812(11) 0.503(3)
O48 O 0.7102(15) -0.2006(19) 0.360(4)
O49 O 0.7578(11) -0.1064(13) 0.421(3)
O50 O 0.7359(16) -0.6141(19) 0.570(3)
loop_
_geom_bond_atom_site_label_1
_geom_bond_atom_site_label_2
_geom_bond_site_symmetry_1
_geom_bond_site_symmetry_2
Zn1 O15 1_555 1_555
Zn2 O4 1_555 1_555
Zn3 O13 1_555 1_555
Zn4 O2 1_555 1_555
Zn5 O8 1_555 1_555
Zn6 O17 1_555 1_555
Zn7 O6 1_555 1_555
Zn8 O40 1_555 1_555
O1 C11 1_555 1_555
O2 C11 1_555 1_555
O3 C12 1_555 1_555
O4 C12 1_555 1_555
O5 C23 1_555 1_555
O6 C23 1_555 1_555
O7 C24 1_555 1_555
O8 C24 1_555 1_555
O9 Zn2 1_555 1_555
O10 C35 1_555 1_555
O11 Zn4 1_555 1_555
O12 C36 1_555 1_555
O13 C47 1_555 1_555
O14 Zn3 1_555 1_555
O15 C48 1_555 1_555
O16 C48 1_555 1_555
O17 C59 1_555 1_555
O18 C59 1_555 1_555
O19 C60 1_555 1_555
O20 C60 1_555 1_555
O21 Zn1 1_555 1_555
O22 C71 1_555 1_555
O23 C72 1_555 1_555
O24 Zn3 1_555 1_555
O25 C84 1_555 1_555
O26 C84 1_555 1_555
O27 C83 1_555 1_555
O28 Zn6 1_555 1_555
O29 C95 1_555 1_555
O30 C95 1_555 1_555
O31 C96 1_555 1_555
O32 C96 1_555 1_555
O33 Zn1 1_555 1_555
O34 Zn2 1_555 1_555
O35 Zn3 1_555 1_555
O36 Zn4 1_555 1_555
O37 Zn5 1_555 1_555
O38 Zn6 1_555 1_555
O39 Zn7 1_555 1_555
N1 Zn1 1_555 1_555
N2 Zn1 1_555 1_555
N3 Zn2 1_555 1_555
N4 Zn2 1_555 1_555
N5 C25 1_555 1_555
N6 C30 1_555 1_555
N7 Zn6 1_555 1_555
N8 Zn6 1_555 1_555
N9 C49 1_555 1_555
N10 C54 1_555 1_555
N11 Zn8 1_555 1_555
N12 Zn8 1_555 1_555
N13 C73 1_555 1_555
N14 C78 1_555 1_555
N15 Zn4 1_555 1_555
N16 Zn4 1_555 1_555
C1 N1 1_555 1_555
H1 C1 1_555 1_555
C2 C1 1_555 1_555
H2 C2 1_555 1_555
C3 C2 1_555 1_555
H3 C3 1_555 1_555
C4 C3 1_555 1_555
C5 N1 1_555 1_555
C6 N2 1_555 1_555
C7 C6 1_555 1_555
C8 C7 1_555 1_555
H4 C8 1_555 1_555
C9 C8 1_555 1_555
H5 C9 1_555 1_555
C10 N2 1_555 1_555
H6 C10 1_555 1_555
C11 C4 1_555 1_555
C12 C7 1_555 1_555
C13 N3 1_555 1_555
H7 C13 1_555 1_555
C14 C13 1_555 1_555
H8 C14 1_555 1_555
C15 C14 1_555 1_555
H9 C15 1_555 1_555
C16 C15 1_555 1_555
C17 N3 1_555 1_555
C18 N4 1_555 1_555
C19 C18 1_555 1_555
C20 C19 1_555 1_555
H10 C20 1_555 1_555
C21 C20 1_555 1_555
H11 C21 1_555 1_555
C22 N4 1_555 1_555
H12 C22 1_555 1_555
C23 C16 1_555 1_555
C24 C19 1_555 1_555
C25 H13 1_555 1_555
C26 C25 1_555 1_555
H14 C26 1_555 1_555
C27 C26 1_555 1_555
H15 C27 1_555 1_555
C28 C27 1_555 1_555
C29 N5 1_555 1_555
C30 C29 1_555 1_555
C31 C30 1_555 1_555
C32 C31 1_555 1_555
H16 C32 1_555 1_555
C33 C32 1_555 1_555
H17 C33 1_555 1_555
C34 N6 1_555 1_555
H18 C34 1_555 1_555
C35 O9 1_555 1_555
C36 O11 1_555 1_555
C37 N7 1_555 1_555
H19 C37 1_555 1_555
C38 C37 1_555 1_555
H20 C38 1_555 1_555
C39 C38 1_555 1_555
H21 C39 1_555 1_555
C40 C39 1_555 1_555
C41 N7 1_555 1_555
C42 N8 1_555 1_555
C43 C42 1_555 1_555
C44 C43 1_555 1_555
H22 C44 1_555 1_555
C45 C44 1_555 1_555
H23 C45 1_555 1_555
C46 N8 1_555 1_555
H24 C46 1_555 1_555
C47 O14 1_555 1_555
C48 C43 1_555 1_555
C49 H25 1_555 1_555
C50 C49 1_555 1_555
H26 C50 1_555 1_555
C51 C50 1_555 1_555
H27 C51 1_555 1_555
C52 C51 1_555 1_555
C53 N9 1_555 1_555
C54 C53 1_555 1_555
C55 C54 1_555 1_555
C56 C55 1_555 1_555
H28 C56 1_555 1_555
C57 C56 1_555 1_555
H29 C57 1_555 1_555
C58 N10 1_555 1_555
H30 C58 1_555 1_555
C59 C52 1_555 1_555
C60 C55 1_555 1_555
C61 N11 1_555 1_555
H31 C61 1_555 1_555
C62 C61 1_555 1_555
H32 C62 1_555 1_555
C63 C62 1_555 1_555
H33 C63 1_555 1_555
C64 C63 1_555 1_555
C65 N11 1_555 1_555
C66 N12 1_555 1_555
C67 C66 1_555 1_555
C68 C67 1_555 1_555
H34 C68 1_555 1_555
C69 C68 1_555 1_555
H35 C69 1_555 1_555
C70 N12 1_555 1_555
H36 C70 1_555 1_555
C71 O21 1_555 1_555
C72 O24 1_555 1_555
C73 H37 1_555 1_555
C74 C73 1_555 1_555
H38 C74 1_555 1_555
C75 C74 1_555 1_555
H39 C75 1_555 1_555
C76 C75 1_555 1_555
C77 N13 1_555 1_555
C78 C77 1_555 1_555
C79 C78 1_555 1_555
C80 C79 1_555 1_555
H40 C80 1_555 1_555
C81 C80 1_555 1_555
H41 C81 1_555 1_555
C82 N14 1_555 1_555
H42 C82 1_555 1_555
C83 O28 1_555 1_555
C84 C76 1_555 1_555
C85 N15 1_555 1_555
H43 C85 1_555 1_555
C86 C85 1_555 1_555
H44 C86 1_555 1_555
C87 C86 1_555 1_555
H45 C87 1_555 1_555
C88 C87 1_555 1_555
C89 N15 1_555 1_555
C90 N16 1_555 1_555
C91 C90 1_555 1_555
C92 C91 1_555 1_555
H46 C92 1_555 1_555
C93 C92 1_555 1_555
H47 C93 1_555 1_555
C94 N16 1_555 1_555
H48 C94 1_555 1_555
C95 C88 1_555 1_555
C96 C91 1_555 1_555
N5_2 Zn3 1_555 1_555
N6_2 Zn3 1_555 1_555
O29_2 Zn5 1_555 1_555
N13_2 Zn5 1_555 1_555
N14_2 Zn5 1_555 1_555
O31_2 Zn7 1_555 1_555
N9_2 Zn7 1_555 1_555
N10_2 Zn7 1_555 1_555
O20_2 Zn8 1_555 1_555
O26_2 Zn8 1_555 1_555
Zn8_2 O20 1_555 1_555
Zn5_2 O29 1_555 1_555
Zn7_2 O31 1_555 1_555
Zn3_2 N5 1_555 1_555
Zn5_3 N13 1_555 1_555
O26 Zn8_2 1_555 1_555
N6 Zn3_2 1_555 1_555
N9 Zn7_2 1_555 1_555
N10 Zn7_2 1_555 1_555
N14 Zn5_3 1_555 1_555
C4 C5 1_555 1_555
C5 C6 1_555 1_555
C9 C10 1_555 1_555
C16 C17 1_555 1_555
C17 C18 1_555 1_555
C21 C22 1_555 1_555
C28 C35 1_555 1_555
C28 C29 1_555 1_555
C31 C36 1_555 1_555
C33 C34 1_555 1_555
C40 C47 1_555 1_555
C40 C41 1_555 1_555
C41 C42 1_555 1_555
C45 C46 1_555 1_555
C52 C53 1_555 1_555
C57 C58 1_555 1_555
C64 C71 1_555 1_555
C64 C65 1_555 1_555
C65 C66 1_555 1_555
C67 C72 1_555 1_555
C69 C70 1_555 1_555
C76 C77 1_555 1_555
C79 C83 1_555 1_555
C81 C82 1_555 1_555
C88 C89 1_555 1_555
C89 C90 1_555 1_555
C93 C94 1_555 1_555

#END
