
#######################################################################
#
#                 Cambridge Crystallographic Data Centre
#                                CCDC 
#
#######################################################################
#
# If this CIF has been generated from an entry in the Cambridge 
# Structural Database, then it will include bibliographic, chemical, 
# crystal, experimental, refinement or atomic coordinate data resulting 
# from the CCDC's data processing and validation procedures.
#
#######################################################################

data_NACTOA
_symmetry_cell_setting           triclinic
_symmetry_space_group_name_H-M   'P -1'
_symmetry_Int_Tables_number      2
_space_group_name_Hall           '-P 1'
loop_
_symmetry_equiv_pos_site_id
_symmetry_equiv_pos_as_xyz
1 x,y,z
2 -x,-y,-z
_cell_length_a                   12.7118(2)
_cell_length_b                   13.2702(2)
_cell_length_c                   17.2801(3)
_cell_angle_alpha                68.293(2)
_cell_angle_beta                 72.413(2)
_cell_angle_gamma                62.830(2)
_cell_volume                     2377.88
loop_
_atom_site_label
_atom_site_type_symbol
_atom_site_fract_x
_atom_site_fract_y
_atom_site_fract_z
O9 O 0.38695(12) 0.00593(13) 0.54860(9)
C47 C 0.4108(2) 0.1099(2) 0.50219(13)
H57 H 0.4382(2) 0.1323(2) 0.53888(13)
H58 H 0.3363(2) 0.1757(2) 0.48389(13)
C48 C 0.4949(2) -0.0883(2) 0.57356(13)
H59 H 0.5237(2) -0.0687(2) 0.61122(13)
H60 H 0.4793(2) -0.1606(2) 0.60533(13)
C48A C 0.5051(2) 0.0883(2) 0.42644(13)
C47A C 0.5892(2) -0.1099(2) 0.49781(13)
O10 O 0.8482(2) 0.9582(2) -0.02485(11)
C49 C 0.7905(3) 0.9850(3) 0.0535(2)
H61 H 0.8213(3) 0.9145(3) 0.1003(2)
H62 H 0.7033(3) 1.0074(3) 0.0597(2)
C50 C 0.8123(3) 1.0827(3) 0.0580(2)
H63 H 0.7692(3) 1.1017(3) 0.1122(2)
H64 H 0.8990(3) 1.0571(3) 0.0569(2)
O11 O 0.7747(2) 1.1849(2) -0.0090(2)
C51 C 0.8304(3) 1.1576(3) -0.0884(2)
H65 H 0.9180(3) 1.1345(3) -0.0959(2)
H66 H 0.7989(3) 1.2282(3) -0.1350(2)
C52 C 0.8061(3) 1.0601(3) -0.0915(2)
H67 H 0.7188(3) 1.0852(3) -0.0874(2)
H68 H 0.8459(3) 1.0414(3) -0.1462(2)
C1 C 0.5461(2) 0.46882(15) 0.25829(11)
C2 C 0.67228(15) 0.43582(14) 0.24369(10)
C3 C 0.70911(14) 0.52854(14) 0.23192(10)
C4 C 0.61345(15) 0.63863(14) 0.23591(10)
C5 C 0.4864(2) 0.39427(15) 0.26247(11)
C6 C 0.3753(2) 0.4044(2) 0.31479(12)
H1 H 0.3433(2) 0.4549(2) 0.35058(12)
C7 C 0.3109(2) 0.3429(2) 0.31579(13)
H2 H 0.2358(2) 0.3526(2) 0.35175(13)
C8 C 0.3546(2) 0.2676(2) 0.26506(13)
H3 H 0.3101(2) 0.2262(2) 0.26534(13)
C9 C 0.4651(2) 0.2545(2) 0.21391(13)
H4 H 0.4969(2) 0.2029(2) 0.17895(13)
C10 C 0.5296(2) 0.3152(2) 0.21299(12)
H5 H 0.6056(2) 0.3033(2) 0.17790(12)
C11 C 0.75826(15) 0.31406(14) 0.24240(11)
C12 C 0.7450(2) 0.2183(2) 0.30878(11)
H6 H 0.6864(2) 0.2326(2) 0.35722(11)
C13 C 0.8153(2) 0.1032(2) 0.30554(12)
H7 H 0.8029(2) 0.0397(2) 0.35066(12)
C14 C 0.9031(2) 0.0808(2) 0.23674(13)
H8 H 0.9509(2) 0.0020(2) 0.23408(13)
C15 C 0.9211(2) 0.1740(2) 0.17146(12)
H9 H 0.9830(2) 0.1590(2) 0.12471(12)
C16 C 0.8492(2) 0.28898(15) 0.17430(11)
H10 H 0.8621(2) 0.35201(15) 0.12899(11)
C17 C 0.8363(2) 0.51239(15) 0.21721(10)
C18 C 0.9180(2) 0.41957(15) 0.26868(11)
H11 H 0.8934(2) 0.36130(15) 0.31164(11)
C19 C 1.0338(2) 0.4113(2) 0.25802(12)
H12 H 1.0878(2) 0.3473(2) 0.29336(12)
C20 C 1.0717(2) 0.4957(2) 0.19620(13)
H13 H 1.1504(2) 0.4911(2) 0.19012(13)
C21 C 0.9932(2) 0.5868(2) 0.14337(12)
H14 H 1.0188(2) 0.6440(2) 0.09996(12)
C22 C 0.8775(2) 0.5947(2) 0.15362(11)
H15 H 0.8250(2) 0.6574(2) 0.11670(11)
C23 C 0.62586(15) 0.73997(15) 0.24231(10)
C24 C 0.7088(2) 0.7296(2) 0.28654(11)
H16 H 0.7643(2) 0.6535(2) 0.31015(11)
C25 C 0.7118(2) 0.8274(2) 0.29663(12)
H17 H 0.7695(2) 0.8171(2) 0.32631(12)
C26 C 0.6315(2) 0.9397(2) 0.26377(13)
H18 H 0.6345(2) 1.0067(2) 0.26964(13)
C27 C 0.5465(2) 0.9523(2) 0.22205(12)
H19 H 0.4889(2) 1.0285(2) 0.20110(12)
C28 C 0.5449(2) 0.8548(2) 0.21064(11)
H20 H 0.4872(2) 0.8661(2) 0.18052(11)
O1 O 0.40184(11) 0.61028(11) 0.48105(8)
C29 C 0.3858(2) 0.5088(2) 0.54431(12)
H21 H 0.3053(2) 0.5124(2) 0.54712(12)
H22 H 0.3912(2) 0.5092(2) 0.60017(12)
C30 C 0.5200(2) 0.6031(2) 0.47607(13)
H23 H 0.5280(2) 0.6053(2) 0.53060(13)
H24 H 0.5321(2) 0.6718(2) 0.43184(13)
O2 O 0.15860(12) 0.69793(13) 0.40389(9)
C31 C 0.0635(2) 0.7468(2) 0.4665(2)
H25 H 0.0119(2) 0.8283(2) 0.4396(2)
H26 H 0.0977(2) 0.7494(2) 0.5097(2)
C32 C -0.0094(2) 0.6739(2) 0.5071(2)
H27 H 0.0413(2) 0.5940(2) 0.5372(2)
H28 H -0.0755(2) 0.7094(2) 0.5493(2)
O3 O -0.05803(14) 0.6652(2) 0.44718(11)
C33 C 0.0366(2) 0.6164(2) 0.3857(2)
H29 H 0.0027(2) 0.6115(2) 0.3432(2)
H30 H 0.0887(2) 0.5355(2) 0.4133(2)
C34 C 0.1097(2) 0.6896(2) 0.34280(13)
H31 H 0.1755(2) 0.6535(2) 0.30082(13)
H32 H 0.0589(2) 0.7693(2) 0.31266(13)
O4 O 0.26249(12) 0.87220(11) 0.38171(8)
C35 C 0.2975(2) 0.9165(2) 0.42988(13)
H33 H 0.3625(2) 0.9434(2) 0.39523(13)
H34 H 0.3281(2) 0.8531(2) 0.48023(13)
C36 C 0.1916(2) 1.0176(2) 0.45687(14)
H35 H 0.1281(2) 0.9896(2) 0.49323(14)
H36 H 0.2160(2) 1.0474(2) 0.49041(14)
O5 O 0.14561(14) 1.11020(12) 0.38630(10)
C37 C 0.1121(2) 1.0672(2) 0.33738(14)
H37 H 0.0828(2) 1.1313(2) 0.28699(14)
H38 H 0.0458(2) 1.0418(2) 0.37113(14)
C38 C 0.2150(2) 0.9659(2) 0.31001(13)
H39 H 0.1881(2) 0.9363(2) 0.27781(13)
H40 H 0.2788(2) 0.9928(2) 0.27236(13)
O6 O 0.55713(12) 0.51995(11) 0.04855(9)
C39 C 0.6237(3) 0.4681(4) -0.0234(3)
H41 H 0.7068(3) 0.4146(4) -0.0141(3)
H42 H 0.6266(3) 0.5311(4) -0.0764(3)
C40 C 0.4410(3) 0.5997(3) 0.0298(2)
H43 H 0.4472(3) 0.6602(3) -0.0242(2)
H44 H 0.3955(3) 0.6400(3) 0.0749(2)
O7 O 0.67438(13) 0.68001(12) 0.02626(8)
C43 C 0.7672(2) 0.6482(2) -0.04215(14)
H49 H 0.7348(2) 0.6387(2) -0.08318(14)
H50 H 0.8317(2) 0.5722(2) -0.02067(14)
C44 C 0.8174(3) 0.7419(2) -0.08513(15)
H51 H 0.8546(3) 0.7477(2) -0.04503(15)
H52 H 0.8803(3) 0.7203(2) -0.13335(15)
O8 O 0.7247(2) 0.8534(2) -0.11471(11)
C45 C 0.6347(3) 0.8841(2) -0.0455(2)
H53 H 0.5706(3) 0.9612(2) -0.0657(2)
H54 H 0.6697(3) 0.8914(2) -0.0048(2)
C46 C 0.5831(2) 0.7933(2) -0.00282(15)
H55 H 0.5213(2) 0.8154(2) 0.04572(15)
H56 H 0.5440(2) 0.7893(2) -0.04264(15)
Ge1 Ge 0.458255(15) 0.632373(15) 0.257132(11)
Li1 Li 0.3133(3) 0.7077(3) 0.3859(2)
Li2 Li 0.6125(3) 0.5725(3) 0.1229(2)
C30A C 0.4800(2) 0.3969(2) 0.52393(13)
C29A C 0.6142(2) 0.4912(2) 0.45569(12)
C40A C 0.5590(3) 0.4003(3) -0.0298(2)
C39A C 0.3763(3) 0.5319(4) 0.0234(3)
C41? C 0.6157(7) 0.4224(8) 0.0151(7)
H45? H 0.5920(7) 0.3566(8) 0.0530(7)
H46? H 0.7036(7) 0.3954(8) 0.0090(7)
C42? C 0.4201(5) 0.5398(7) 0.0686(5)
H47? H 0.4092(5) 0.4659(7) 0.1036(5)
H48? H 0.3719(5) 0.6013(7) 0.0988(5)
loop_
_geom_bond_atom_site_label_1
_geom_bond_atom_site_label_2
_geom_bond_site_symmetry_1
_geom_bond_site_symmetry_2
C1 C2 1_555 1_555
C2 C3 1_555 1_555
C3 C4 1_555 1_555
C4 C23 1_555 1_555
C5 C1 1_555 1_555
C6 C5 1_555 1_555
H1 C6 1_555 1_555
C7 C6 1_555 1_555
H2 C7 1_555 1_555
C8 C7 1_555 1_555
H3 C8 1_555 1_555
C9 C8 1_555 1_555
H4 C9 1_555 1_555
C10 C5 1_555 1_555
H5 C10 1_555 1_555
C11 C2 1_555 1_555
C12 C11 1_555 1_555
H6 C12 1_555 1_555
C13 C12 1_555 1_555
H7 C13 1_555 1_555
C14 C13 1_555 1_555
H8 C14 1_555 1_555
C15 C14 1_555 1_555
H9 C15 1_555 1_555
C16 C11 1_555 1_555
H10 C16 1_555 1_555
C17 C3 1_555 1_555
C18 C17 1_555 1_555
H11 C18 1_555 1_555
C19 C18 1_555 1_555
H12 C19 1_555 1_555
C20 C19 1_555 1_555
H13 C20 1_555 1_555
C21 C20 1_555 1_555
H14 C21 1_555 1_555
C22 C17 1_555 1_555
H15 C22 1_555 1_555
C23 C24 1_555 1_555
C24 H16 1_555 1_555
C25 C24 1_555 1_555
H17 C25 1_555 1_555
C26 C25 1_555 1_555
H18 C26 1_555 1_555
C27 C26 1_555 1_555
H19 C27 1_555 1_555
C28 C23 1_555 1_555
H20 C28 1_555 1_555
O1 C29 1_555 1_555
C29 H21 1_555 1_555
H22 C29 1_555 1_555
C30 O1 1_555 1_555
H23 C30 1_555 1_555
H24 C30 1_555 1_555
O2 C31 1_555 1_555
C31 H25 1_555 1_555
H26 C31 1_555 1_555
C32 C31 1_555 1_555
H27 C32 1_555 1_555
H28 C32 1_555 1_555
O3 C32 1_555 1_555
C33 O3 1_555 1_555
H29 C33 1_555 1_555
H30 C33 1_555 1_555
C34 O2 1_555 1_555
H31 C34 1_555 1_555
H32 C34 1_555 1_555
O4 C35 1_555 1_555
C35 H33 1_555 1_555
H34 C35 1_555 1_555
C36 C35 1_555 1_555
H35 C36 1_555 1_555
H36 C36 1_555 1_555
O5 C36 1_555 1_555
C37 O5 1_555 1_555
H37 C37 1_555 1_555
H38 C37 1_555 1_555
C38 O4 1_555 1_555
H39 C38 1_555 1_555
H40 C38 1_555 1_555
O6 C39 1_555 1_555
C39 H41 1_555 1_555
H42 C39 1_555 1_555
C40 O6 1_555 1_555
H43 C40 1_555 1_555
H44 C40 1_555 1_555
O7 C43 1_555 1_555
C43 H49 1_555 1_555
H50 C43 1_555 1_555
C44 C43 1_555 1_555
H51 C44 1_555 1_555
H52 C44 1_555 1_555
O8 C44 1_555 1_555
C45 O8 1_555 1_555
H53 C45 1_555 1_555
H54 C45 1_555 1_555
C46 O7 1_555 1_555
H55 C46 1_555 1_555
H56 C46 1_555 1_555
O9 C47 1_555 1_555
C47 H57 1_555 1_555
H58 C47 1_555 1_555
C48 O9 1_555 1_555
H59 C48 1_555 1_555
H60 C48 1_555 1_555
O10 C49 1_555 1_555
C49 H61 1_555 1_555
H62 C49 1_555 1_555
C50 C49 1_555 1_555
H63 C50 1_555 1_555
H64 C50 1_555 1_555
O11 C50 1_555 1_555
C51 O11 1_555 1_555
H65 C51 1_555 1_555
H66 C51 1_555 1_555
C52 O10 1_555 1_555
H67 C52 1_555 1_555
H68 C52 1_555 1_555
Ge1 C1 1_555 1_555
Li1 O1 1_555 1_555
Li2 C1 1_555 1_555
C30A C29 1_555 1_555
C29A C30 1_555 1_555
C40A C39 1_555 1_555
C39A C40 1_555 1_555
C48A C47 1_555 1_555
C47A C48 1_555 1_555
C2 Li2 1_555 1_555
C3 Li2 1_555 1_555
C4 Ge1 1_555 1_555
C4 Li2 1_555 1_555
C9 C10 1_555 1_555
C15 C16 1_555 1_555
C21 C22 1_555 1_555
C27 C28 1_555 1_555
O2 Li1 1_555 1_555
C33 C34 1_555 1_555
O4 Li1 1_555 1_555
C37 C38 1_555 1_555
O6 Li2 1_555 1_555
O7 Li2 1_555 1_555
C45 C46 1_555 1_555
C51 C52 1_555 1_555
Ge1 Li1 1_555 1_555
Ge1 Li2 1_555 1_555

#END
