
#######################################################################
#
#                 Cambridge Crystallographic Data Centre
#                                CCDC 
#
#######################################################################
#
# If this CIF has been generated from an entry in the Cambridge 
# Structural Database, then it will include bibliographic, chemical, 
# crystal, experimental, refinement or atomic coordinate data resulting 
# from the CCDC's data processing and validation procedures.
#
#######################################################################

data_NACWUK
_symmetry_cell_setting           triclinic
_symmetry_space_group_name_H-M   'P -1'
_symmetry_Int_Tables_number      2
_space_group_name_Hall           '-P 1'
loop_
_symmetry_equiv_pos_site_id
_symmetry_equiv_pos_as_xyz
1 x,y,z
2 -x,-y,-z
_cell_length_a                   8.5414(17)
_cell_length_b                   10.260(2)
_cell_length_c                   13.335(3)
_cell_angle_alpha                90.95(3)
_cell_angle_beta                 100.27(3)
_cell_angle_gamma                105.89(3)
_cell_volume                     1103.31
loop_
_atom_site_label
_atom_site_type_symbol
_atom_site_fract_x
_atom_site_fract_y
_atom_site_fract_z
Ce1 Ce 0.11269(2) 0.884104(16) 0.850532(12)
O1 O 0.4059(3) 0.9568(2) 0.82803(18)
O2 O 0.4868(3) 0.8034(2) 0.7428(2)
O3 O 0.7743(3) 1.0397(2) 0.49373(19)
O4 O 0.6020(4) 1.3711(2) 0.6321(2)
O5 O -0.0461(3) 0.7798(2) 0.98563(17)
O6 O -0.2103(3) 0.8887(2) 1.04437(18)
O7 O -0.6191(3) 0.4771(2) 1.1521(2)
O8 O -0.1533(3) 0.3508(2) 1.13888(19)
O9 O 0.1115(3) 1.0681(2) 0.72018(18)
O10 O -0.0450(3) 1.1996(2) 0.75742(19)
O11 O 0.1712(3) 1.6087(2) 0.56515(19)
O12 O 0.3283(3) 1.2688(2) 0.42814(19)
O13 O -0.1490(3) 0.7043(2) 0.76543(19)
O14 O 0.1064(3) 0.8120(2) 0.66733(18)
O15 O -0.1363(3) 0.9720(2) 0.84858(18)
O16 O 0.3074(3) 0.8704(3) 1.02114(19)
N1 N 0.6270(3) 0.9870(3) 0.6219(2)
H1 H 0.6330 0.9047 0.6199
N2 N 0.6790(3) 1.2014(3) 0.5612(2)
H2 H 0.7173 1.2557 0.5173
N3 N -0.1684(3) 0.5562(3) 1.0826(2)
H3 H -0.0759 0.5695 1.0618
N4 N -0.3843(3) 0.4167(3) 1.1479(2)
H4 H -0.4263 0.3414 1.1732
N5 N 0.1975(4) 1.2258(3) 0.5641(2)
H5 H 0.2040 1.1436 0.5640
N6 N 0.2534(4) 1.4385(3) 0.5004(2)
H6 H 0.2983 1.4931 0.4587
C1 C 0.4735(4) 0.9182(3) 0.7598(3)
C2 C 0.5461(4) 1.0269(3) 0.6916(2)
C3 C 0.5315(4) 1.1542(3) 0.6976(2)
H7 H 0.4750 1.1788 0.7450
C4 C 0.6035(4) 1.2516(3) 0.6307(2)
C5 C 0.6984(4) 1.0735(3) 0.5559(2)
C6 C -0.1596(4) 0.7864(3) 1.0311(2)
C7 C -0.2479(4) 0.6562(3) 1.0732(2)
C8 C -0.3981(4) 0.6367(3) 1.0986(2)
H8 H -0.4502 0.7055 1.0928
C9 C -0.4774(4) 0.5080(3) 1.1348(2)
C10 C -0.2310(4) 0.4358(3) 1.1240(2)
C11 C 0.0563(4) 1.1691(3) 0.7106(2)
C12 C 0.1211(4) 1.2690(3) 0.6349(2)
C13 C 0.1073(4) 1.3967(3) 0.6385(2)
H9 H 0.0531 1.4243 0.6860
C14 C 0.1775(4) 1.4898(3) 0.5680(2)
C15 C 0.2638(4) 1.3079(3) 0.4938(2)
O6A O 0.2103(3) 1.1113(2) 0.95563(18)
O8A O 0.1533(3) 0.6492(2) 0.86112(19)
Ce1A Ce -0.11269(2) 1.115896(16) 1.149468(12)
Ce1A_2 Ce -0.11269(2) 0.115896(16) 1.149468(12)
O17 O 0.1869(3) 0.6486(3) 1.1251(2)
loop_
_geom_bond_atom_site_label_1
_geom_bond_atom_site_label_2
_geom_bond_site_symmetry_1
_geom_bond_site_symmetry_2
Ce1 O1 1_555 1_555
O1 C1 1_555 1_555
O2 C1 1_555 1_555
O3 C5 1_555 1_555
O4 C4 1_555 1_555
O5 Ce1 1_555 1_555
O6 C6 1_555 1_555
O7 C9 1_555 1_555
O8 C10 1_555 1_555
O9 Ce1 1_555 1_555
O10 C11 1_555 1_555
O11 C14 1_555 1_555
O12 C15 1_555 1_555
O13 Ce1 1_555 1_555
O14 Ce1 1_555 1_555
O15 Ce1 1_555 1_555
O16 Ce1 1_555 1_555
N1 H1 1_555 1_555
N2 H2 1_555 1_555
N3 H3 1_555 1_555
N4 H4 1_555 1_555
N5 H5 1_555 1_555
N6 H6 1_555 1_555
C1 C2 1_555 1_555
C2 N1 1_555 1_555
C3 C2 1_555 1_555
H7 C3 1_555 1_555
C4 N2 1_555 1_555
C5 N1 1_555 1_555
C6 O5 1_555 1_555
C7 N3 1_555 1_555
C8 C7 1_555 1_555
H8 C8 1_555 1_555
C9 N4 1_555 1_555
C10 N3 1_555 1_555
C11 O9 1_555 1_555
C12 N5 1_555 1_555
C13 C12 1_555 1_555
H9 C13 1_555 1_555
C14 N6 1_555 1_555
C15 N5 1_555 1_555
O6A Ce1 1_555 1_555
O8A Ce1 1_555 1_555
Ce1A O6 1_555 1_555
Ce1A_2 O8 1_555 1_555
N2 C5 1_555 1_555
N4 C10 1_555 1_555
N6 C15 1_555 1_555
C3 C4 1_555 1_555
C6 C7 1_555 1_555
C8 C9 1_555 1_555
C11 C12 1_555 1_555
C13 C14 1_555 1_555

#END
