
#######################################################################
#
#                 Cambridge Crystallographic Data Centre
#                                CCDC 
#
#######################################################################
#
# If this CIF has been generated from an entry in the Cambridge 
# Structural Database, then it will include bibliographic, chemical, 
# crystal, experimental, refinement or atomic coordinate data resulting 
# from the CCDC's data processing and validation procedures.
#
#######################################################################

data_NACWIY
_symmetry_cell_setting           triclinic
_symmetry_space_group_name_H-M   'P -1'
_symmetry_Int_Tables_number      2
_space_group_name_Hall           '-P 1'
loop_
_symmetry_equiv_pos_site_id
_symmetry_equiv_pos_as_xyz
1 x,y,z
2 -x,-y,-z
_cell_length_a                   8.5991(5)
_cell_length_b                   10.2849(6)
_cell_length_c                   13.4175(8)
_cell_angle_alpha                90.9140(10)
_cell_angle_beta                 99.77
_cell_angle_gamma                105.6920(10)
_cell_volume                     1123.46
loop_
_atom_site_label
_atom_site_type_symbol
_atom_site_fract_x
_atom_site_fract_y
_atom_site_fract_z
La1 La 0.11200(3) -0.11589(3) 0.85005(2)
O1 O 0.4043(5) -0.0445(4) 0.8266(3)
O2 O 0.4895(5) -0.1959(4) 0.7440(3)
O3 O 0.7724(5) 0.0393(4) 0.4941(3)
O4 O 0.6027(6) 0.3703(4) 0.6316(3)
O5 O -0.0459(4) -0.2200(4) 0.9859(3)
O6 O -0.2083(4) -0.1116(3) 1.0467(3)
O7 O -0.6163(5) -0.5223(4) 1.1518(3)
O8 O -0.1533(5) -0.6494(4) 1.1394(3)
O9 O 0.1100(5) 0.0676(4) 0.7189(3)
O10 O -0.0455(5) 0.1985(4) 0.7559(3)
O11 O 0.1729(6) 0.6080(4) 0.5650(3)
O12 O 0.3278(5) 0.2693(4) 0.4283(3)
O13 O -0.1502(5) -0.2953(4) 0.7663(3)
O14 O 0.1077(5) -0.1885(4) 0.6676(3)
O15 O -0.1370(4) -0.0273(4) 0.8485(3)
O16 O 0.3071(5) -0.1292(4) 1.0205(3)
N1 N 0.6266(5) -0.0125(4) 0.6219(3)
H1 H 0.6326 -0.0946 0.6199
N2 N 0.6782(6) 0.2005(4) 0.5616(3)
H2 H 0.7162 0.2546 0.5178
N3 N -0.1674(5) -0.4434(4) 1.0829(3)
H3 H -0.0756 -0.4305 1.0619
N4 N -0.3828(5) -0.5834(4) 1.1474(3)
H4 H -0.4251 -0.6588 1.1720
N5 N 0.1975(6) 0.2261(4) 0.5635(3)
H5 H 0.2042 0.1442 0.5634
N6 N 0.2535(6) 0.4380(4) 0.5005(3)
H6 H 0.2983 0.4924 0.4589
C1 C 0.4737(6) -0.0822(5) 0.7599(4)
C2 C 0.5465(6) 0.0265(5) 0.6912(4)
C3 C 0.5314(7) 0.1531(5) 0.6964(4)
H7 H 0.4737 0.1776 0.7429
C4 C 0.6975(6) 0.0728(5) 0.5558(4)
C5 C 0.6044(7) 0.2502(5) 0.6302(4)
C6 C -0.1585(6) -0.2133(5) 1.0314(4)
C7 C -0.2457(6) -0.3440(5) 1.0741(4)
C8 C -0.3950(6) -0.3632(5) 1.0993(4)
H8 H -0.4459 -0.2939 1.0941
C9 C -0.2305(6) -0.5639(5) 1.1245(4)
C10 C -0.4756(6) -0.4917(5) 1.1343(4)
C11 C 0.0548(6) 0.1686(5) 0.7090(4)
C12 C 0.1211(6) 0.2688(5) 0.6336(4)
C13 C 0.1079(7) 0.3960(5) 0.6379(4)
H9 H 0.0539 0.4233 0.6854
C14 C 0.2637(7) 0.3082(5) 0.4934(4)
C15 C 0.1787(7) 0.4900(5) 0.5677(4)
O6A O 0.2083(4) 0.1116(3) 0.9533(3)
O8A O 0.1533(5) -0.3506(4) 0.8606(3)
La1A La -0.11200(3) 0.11589(3) 1.14995(2)
La1A_2 La -0.11200(3) -0.88411(3) 1.14995(2)
O17 O 0.1881(5) -0.3508(4) 1.1267(3)
loop_
_geom_bond_atom_site_label_1
_geom_bond_atom_site_label_2
_geom_bond_site_symmetry_1
_geom_bond_site_symmetry_2
La1 O1 1_555 1_555
O1 C1 1_555 1_555
O2 C1 1_555 1_555
O3 C4 1_555 1_555
O4 C5 1_555 1_555
O5 La1 1_555 1_555
O6 C6 1_555 1_555
O7 C10 1_555 1_555
O8 C9 1_555 1_555
O9 La1 1_555 1_555
O10 C11 1_555 1_555
O11 C15 1_555 1_555
O12 C14 1_555 1_555
O13 La1 1_555 1_555
O14 La1 1_555 1_555
O15 La1 1_555 1_555
O16 La1 1_555 1_555
N1 H1 1_555 1_555
N2 H2 1_555 1_555
N3 H3 1_555 1_555
N4 H4 1_555 1_555
N5 H5 1_555 1_555
N6 H6 1_555 1_555
C1 C2 1_555 1_555
C2 N1 1_555 1_555
C3 C2 1_555 1_555
H7 C3 1_555 1_555
C4 N1 1_555 1_555
C5 N2 1_555 1_555
C6 O5 1_555 1_555
C7 N3 1_555 1_555
C8 C7 1_555 1_555
H8 C8 1_555 1_555
C9 N3 1_555 1_555
C10 N4 1_555 1_555
C11 O9 1_555 1_555
C12 N5 1_555 1_555
C13 C12 1_555 1_555
H9 C13 1_555 1_555
C14 N5 1_555 1_555
C15 N6 1_555 1_555
O6A La1 1_555 1_555
O8A La1 1_555 1_555
La1A O6 1_555 1_555
La1A_2 O8 1_555 1_555
N2 C4 1_555 1_555
N4 C9 1_555 1_555
N6 C14 1_555 1_555
C3 C5 1_555 1_555
C6 C7 1_555 1_555
C8 C10 1_555 1_555
C11 C12 1_555 1_555
C13 C15 1_555 1_555

#END
