
#######################################################################
#
#                 Cambridge Crystallographic Data Centre
#                                CCDC 
#
#######################################################################
#
# If this CIF has been generated from an entry in the Cambridge 
# Structural Database, then it will include bibliographic, chemical, 
# crystal, experimental, refinement or atomic coordinate data resulting 
# from the CCDC's data processing and validation procedures.
#
#######################################################################

data_NACXOF
_symmetry_cell_setting           orthorhombic
_symmetry_space_group_name_H-M   'P n a 21'
_symmetry_Int_Tables_number      33
_space_group_name_Hall           'P 2c -2n'
loop_
_symmetry_equiv_pos_site_id
_symmetry_equiv_pos_as_xyz
1 x,y,z
2 -x,-y,1/2+z
3 1/2-x,1/2+y,1/2+z
4 1/2+x,1/2-y,z
_cell_length_a                   10.1518(13)
_cell_length_b                   16.763(2)
_cell_length_c                   4.6564(6)
_cell_angle_alpha                90
_cell_angle_beta                 90
_cell_angle_gamma                90
_cell_volume                     792.401
loop_
_atom_site_label
_atom_site_type_symbol
_atom_site_fract_x
_atom_site_fract_y
_atom_site_fract_z
Nd1 Nd -0.65097(3) 0.47923(2) -0.2383(3)
O1 O -0.1978(7) 0.4370(4) -0.9930(16)
O2 O -0.0362(7) 0.3474(4) -0.9605(17)
O3 O -0.2771(7) 0.1359(4) -0.3717(17)
O4 O -0.4957(5) 0.3656(3) -0.224(3)
O5 O -0.4291(5) 0.5386(3) -0.239(3)
O6 O -0.8605(7) 0.4774(5) 0.032(2)
N1 N -0.3302(7) 0.3707(5) -0.5610(18)
N2 N -0.3822(8) 0.2535(5) -0.3107(17)
H1 H -0.4341 0.2300 -0.1853
C1 C -0.1480(9) 0.3719(6) -0.896(2)
C2 C -0.2304(8) 0.3277(5) -0.684(2)
C3 C -0.2055(10) 0.2495(6) -0.632(2)
H2 H -0.1347 0.2233 -0.7259
C4 C -0.2859(10) 0.2075(6) -0.436(2)
C5 C -0.4040(9) 0.3318(5) -0.364(2)
O5A O -0.5709(5) 0.4614(3) -0.739(3)
Nd1C Nd -0.15097(3) 0.02077(2) -0.2383(3)
Nd1A Nd -0.34903(3) 0.52077(2) -0.7383(3)
Nd1A_2 Nd -0.34903(3) 0.52077(2) 0.2617(3)
O1A O -0.8022(7) 0.5630(4) -0.4930(16)
O3C O -0.7771(7) 0.3641(4) -0.3717(17)
O5A_2 O -0.5709(5) 0.4614(3) 0.261(3)
N1A N -0.6698(7) 0.6293(5) -0.0610(18)
loop_
_geom_bond_atom_site_label_1
_geom_bond_atom_site_label_2
_geom_bond_site_symmetry_1
_geom_bond_site_symmetry_2
Nd1 O4 1_555 1_555
O1 C1 1_555 1_555
O2 C1 1_555 1_555
O3 C4 1_555 1_555
O4 C5 1_555 1_555
O5 Nd1 1_555 1_555
O6 Nd1 1_555 1_555
N1 C2 1_555 1_555
N2 H1 1_555 1_555
C1 C2 1_555 1_555
C2 C3 1_555 1_555
C3 H2 1_555 1_555
C4 N2 1_555 1_555
C5 N1 1_555 1_555
O5A Nd1 1_555 1_555
Nd1C O3 1_555 1_555
Nd1A O1 1_555 1_555
Nd1A_2 O5 1_555 1_555
O1A Nd1 1_555 1_555
O3C Nd1 1_555 1_555
O5A_2 Nd1 1_555 1_555
N1A Nd1 1_555 1_555
O5 Nd1A 1_555 1_555
N1 Nd1A 1_555 1_555
N2 C5 1_555 1_555
C3 C4 1_555 1_555
O5A Nd1A 1_555 1_555
Nd1A_2 O5A_2 1_555 1_555

#END
