
#######################################################################
#
#                 Cambridge Crystallographic Data Centre
#                                CCDC 
#
#######################################################################
#
# If this CIF has been generated from an entry in the Cambridge 
# Structural Database, then it will include bibliographic, chemical, 
# crystal, experimental, refinement or atomic coordinate data resulting 
# from the CCDC's data processing and validation procedures.
#
#######################################################################

data_NACXIZ
_symmetry_cell_setting           orthorhombic
_symmetry_space_group_name_H-M   'P n a 21'
_symmetry_Int_Tables_number      33
_space_group_name_Hall           'P 2c -2n'
loop_
_symmetry_equiv_pos_site_id
_symmetry_equiv_pos_as_xyz
1 x,y,z
2 -x,-y,1/2+z
3 1/2-x,1/2+y,1/2+z
4 1/2+x,1/2-y,z
_cell_length_a                   10.2210(16)
_cell_length_b                   16.976(3)
_cell_length_c                   4.6996(17)
_cell_angle_alpha                90
_cell_angle_beta                 90
_cell_angle_gamma                90
_cell_volume                     815.436
loop_
_atom_site_label
_atom_site_type_symbol
_atom_site_fract_x
_atom_site_fract_y
_atom_site_fract_z
La1 La -0.65487(6) 0.47902(3) -0.2373(3)
O1 O -0.1916(9) 0.4351(6) -0.997(2)
O2 O -0.0358(10) 0.3440(6) -0.959(2)
O3 O -0.2792(10) 0.1387(6) -0.372(2)
O4 O -0.4915(8) 0.3669(4) -0.241(5)
O5 O -0.4303(7) 0.5410(4) -0.261(3)
O6 O -0.8666(10) 0.4755(6) 0.038(3)
N1 N -0.3270(10) 0.3693(6) -0.569(3)
N2 N -0.3814(10) 0.2545(6) -0.317(2)
H1 H -0.4342 0.2314 -0.1950
C1 C -0.1437(12) 0.3710(7) -0.900(3)
C2 C -0.2287(12) 0.3268(7) -0.690(3)
C3 C -0.2064(14) 0.2492(8) -0.639(3)
H2 H -0.1387 0.2219 -0.7361
C4 C -0.2860(13) 0.2096(7) -0.437(3)
C5 C -0.4016(11) 0.3327(7) -0.370(3)
O5A O -0.5697(7) 0.4590(4) -0.761(3)
La1C La -0.15487(6) 0.02098(3) -0.2373(3)
La1A La -0.34513(6) 0.52098(3) -0.7373(3)
La1A_2 La -0.34513(6) 0.52098(3) 0.2627(3)
O1A O -0.8084(9) 0.5649(6) -0.497(2)
O3C O -0.7792(10) 0.3613(6) -0.372(2)
O5A_2 O -0.5697(7) 0.4590(4) 0.239(3)
N1A N -0.6730(10) 0.6307(6) -0.069(3)
loop_
_geom_bond_atom_site_label_1
_geom_bond_atom_site_label_2
_geom_bond_site_symmetry_1
_geom_bond_site_symmetry_2
La1 O4 1_555 1_555
O1 C1 1_555 1_555
O2 C1 1_555 1_555
O3 C4 1_555 1_555
O4 C5 1_555 1_555
O5 La1 1_555 1_555
O6 La1 1_555 1_555
N1 C2 1_555 1_555
N2 H1 1_555 1_555
C1 C2 1_555 1_555
C2 C3 1_555 1_555
C3 H2 1_555 1_555
C4 N2 1_555 1_555
C5 N1 1_555 1_555
O5A La1 1_555 1_555
La1C O3 1_555 1_555
La1A O1 1_555 1_555
La1A_2 O5 1_555 1_555
O1A La1 1_555 1_555
O3C La1 1_555 1_555
O5A_2 La1 1_555 1_555
N1A La1 1_555 1_555
O5 La1A 1_555 1_555
N1 La1A 1_555 1_555
N2 C5 1_555 1_555
C3 C4 1_555 1_555
O5A La1A 1_555 1_555
La1A_2 O5A_2 1_555 1_555

#END
