
#######################################################################
#
#                 Cambridge Crystallographic Data Centre
#                                CCDC 
#
#######################################################################
#
# If this CIF has been generated from an entry in the Cambridge 
# Structural Database, then it will include bibliographic, chemical, 
# crystal, experimental, refinement or atomic coordinate data resulting 
# from the CCDC's data processing and validation procedures.
#
#######################################################################

data_NACXUM
_symmetry_cell_setting           triclinic
_symmetry_space_group_name_H-M   'P -1'
_symmetry_Int_Tables_number      2
_space_group_name_Hall           '-P 1'
loop_
_symmetry_equiv_pos_site_id
_symmetry_equiv_pos_as_xyz
1 x,y,z
2 -x,-y,-z
_cell_length_a                   7.3420(9)
_cell_length_b                   7.4391(10)
_cell_length_c                   9.6269(13)
_cell_angle_alpha                81.117(1)
_cell_angle_beta                 87.714(2)
_cell_angle_gamma                73.857(1)
_cell_volume                     499.008
loop_
_atom_site_label
_atom_site_type_symbol
_atom_site_fract_x
_atom_site_fract_y
_atom_site_fract_z
Mn1 Mn 0.0000 1.0000 0.5000
Mn2 Mn 0.28719(6) 0.63777(7) 0.90876(4)
N1 N 0.2817(3) 0.8175(4) 0.5705(2)
N2 N 0.3701(3) 0.7154(4) 0.6901(2)
N3 N 0.5876(3) 0.6963(4) 0.5197(2)
O1 O 0.1915(3) 1.0038(3) 0.3123(2)
O2 O 0.4808(3) 0.8797(3) 0.2295(2)
O3 O 0.6122(3) 0.5066(3) 0.8877(2)
O4 O 0.8548(3) 0.4632(3) 0.7383(2)
O5 O -0.0659(3) 0.7583(4) 0.4425(3)
H1 H 0.0068 0.6714 0.4022
H2 H -0.1669 0.7267 0.4658
O6 O 0.2120(3) 0.3894(3) 0.8531(2)
H3 H 0.2937 0.3092 0.8125
H4 H 0.1126 0.4269 0.8024
O7 O 0.3351(3) 0.8940(3) 0.9613(2)
H5 H 0.3718 0.8956 1.0436
H6 H 0.4004 0.9482 0.9032
O8 O -0.0114(3) 0.7634(4) 0.9136(2)
H7 H -0.0777 0.8382 0.8470
H8 H -0.0837 0.7298 0.9774
C1 C 0.3619(4) 0.9018(4) 0.3262(3)
C2 C 0.4153(4) 0.8033(4) 0.4720(3)
C3 C 0.5500(4) 0.6456(4) 0.6555(3)
C4 C 0.6874(4) 0.5284(4) 0.7664(3)
Mn2A Mn -0.28719(6) 1.36223(7) 0.09124(4)
Mn2A_2 Mn 0.71281(6) 0.36223(7) 1.09124(4)
Mn2_2 Mn -0.71281(6) 1.63777(7) -0.09124(4)
N1A N -0.2817(3) 1.1825(4) 0.4295(2)
N2A N -0.3701(3) 1.2846(4) 0.3099(2)
N3A N -0.5876(3) 1.3037(4) 0.4803(2)
O1A O -0.1915(3) 0.9962(3) 0.6877(2)
O2A O -0.4808(3) 1.1203(3) 0.7705(2)
O3A O -0.6122(3) 1.4934(3) 0.1123(2)
O3A_2 O 0.3878(3) 0.4934(3) 1.1123(2)
O3_2 O -0.3878(3) 1.5066(3) -0.1123(2)
O4A O -0.8548(3) 1.5368(3) 0.2617(2)
O5A O 0.0659(3) 1.2417(4) 0.5575(3)
H1A H -0.0068 1.3286 0.5978
H2A H 0.1669 1.2733 0.5342
O6A O -0.2120(3) 1.6106(3) 0.1469(2)
H3A H -0.2937 1.6908 0.1875
H4A H -0.1126 1.5731 0.1976
O7A O -0.3351(3) 1.1060(3) 0.0387(2)
H5A H -0.3718 1.1044 -0.0436
H6A H -0.4004 1.0518 0.0968
O8A O 0.0114(3) 1.2366(4) 0.0864(2)
H7A H 0.0777 1.1618 0.1530
H8A H 0.0837 1.2702 0.0226
C1A C -0.3619(4) 1.0982(4) 0.6738(3)
C2A C -0.4153(4) 1.1967(4) 0.5280(3)
C3A C -0.5500(4) 1.3544(4) 0.3445(3)
C4A C -0.6874(4) 1.4716(4) 0.2336(3)
loop_
_geom_bond_atom_site_label_1
_geom_bond_atom_site_label_2
_geom_bond_site_symmetry_1
_geom_bond_site_symmetry_2
Mn1 N1 1_555 1_555
Mn2 N2 1_555 1_555
N1 N2 1_555 1_555
N2 C3 1_555 1_555
N3 C2 1_555 1_555
O1 Mn1 1_555 1_555
O2 C1 1_555 1_555
O3 Mn2 1_555 1_555
O4 C4 1_555 1_555
O5 Mn1 1_555 1_555
H1 O5 1_555 1_555
H2 O5 1_555 1_555
O6 Mn2 1_555 1_555
H3 O6 1_555 1_555
H4 O6 1_555 1_555
O7 Mn2 1_555 1_555
H5 O7 1_555 1_555
H6 O7 1_555 1_555
O8 Mn2 1_555 1_555
H7 O8 1_555 1_555
H8 O8 1_555 1_555
C1 O1 1_555 1_555
C2 N1 1_555 1_555
C3 N3 1_555 1_555
C4 O3 1_555 1_555
Mn2A N2A 1_555 1_555
Mn2A_2 O3 1_555 1_555
Mn2_2 O3A 1_555 1_555
N1A Mn1 1_555 1_555
N2A N1A 1_555 1_555
N3A C2A 1_555 1_555
O1A Mn1 1_555 1_555
O2A C1A 1_555 1_555
O3A Mn2A 1_555 1_555
O3A_2 Mn2 1_555 1_555
O3_2 Mn2A 1_555 1_555
O4A C4A 1_555 1_555
O5A Mn1 1_555 1_555
H1A O5A 1_555 1_555
H2A O5A 1_555 1_555
O6A Mn2A 1_555 1_555
H3A O6A 1_555 1_555
H4A O6A 1_555 1_555
O7A Mn2A 1_555 1_555
H5A O7A 1_555 1_555
H6A O7A 1_555 1_555
O8A Mn2A 1_555 1_555
H7A O8A 1_555 1_555
H8A O8A 1_555 1_555
C1A O1A 1_555 1_555
C2A N1A 1_555 1_555
C3A N2A 1_555 1_555
C4A O3A 1_555 1_555
C1 C2 1_555 1_555
C3 C4 1_555 1_555
Mn2A_2 O3A_2 1_555 1_555
Mn2_2 O3_2 1_555 1_555
N3A C3A 1_555 1_555
C1A C2A 1_555 1_555
C3A C4A 1_555 1_555

#END
