
#######################################################################
#
#                 Cambridge Crystallographic Data Centre
#                                CCDC 
#
#######################################################################
#
# If this CIF has been generated from an entry in the Cambridge 
# Structural Database, then it will include bibliographic, chemical, 
# crystal, experimental, refinement or atomic coordinate data resulting 
# from the CCDC's data processing and validation procedures.
#
#######################################################################

data_NACYEW
_symmetry_cell_setting           orthorhombic
_symmetry_space_group_name_H-M   'P n a 21'
_symmetry_Int_Tables_number      33
_space_group_name_Hall           'P 2c -2n'
loop_
_symmetry_equiv_pos_site_id
_symmetry_equiv_pos_as_xyz
1 x,y,z
2 -x,-y,1/2+z
3 1/2-x,1/2+y,1/2+z
4 1/2+x,1/2-y,z
_cell_length_a                   10.004(7)
_cell_length_b                   16.310(8)
_cell_length_c                   4.598(3)
_cell_angle_alpha                90
_cell_angle_beta                 90
_cell_angle_gamma                90
_cell_volume                     750.234
loop_
_atom_site_label
_atom_site_type_symbol
_atom_site_fract_x
_atom_site_fract_y
_atom_site_fract_z
Er1 Er -0.64418(6) 0.47895(4) -0.2394(3)
O1 O -0.2064(13) 0.4417(8) -0.990(3)
O2 O -0.0397(14) 0.3537(8) -0.981(3)
O3 O -0.2708(15) 0.1321(9) -0.375(3)
O4 O -0.5019(10) 0.3645(6) -0.221(6)
O5 O -0.4315(10) 0.5359(5) -0.227(6)
O6 O -0.8466(14) 0.4763(9) 0.033(4)
N1 N -0.3334(17) 0.3732(11) -0.554(4)
N2 N -0.3795(14) 0.2516(9) -0.306(3)
H1 H -0.4274 0.2269 -0.1708
C1 C -0.1508(19) 0.3794(12) -0.903(4)
C2 C -0.2316(16) 0.3316(10) -0.680(4)
C3 C -0.2039(19) 0.2516(13) -0.632(4)
H2 H -0.1306 0.2266 -0.7286
C4 C -0.283(2) 0.2045(12) -0.437(4)
C5 C -0.411(2) 0.3326(12) -0.358(4)
O5A O -0.5685(10) 0.4641(5) -0.727(6)
Er1C Er -0.14418(6) 0.02105(4) -0.2394(3)
Er1A Er -0.35582(6) 0.52105(4) -0.7394(3)
Er1A_2 Er -0.35582(6) 0.52105(4) 0.2606(3)
O1A O -0.7936(13) 0.5583(8) -0.490(3)
O3C O -0.7708(15) 0.3679(9) -0.375(3)
O5A_2 O -0.5685(10) 0.4641(5) 0.273(6)
N1A N -0.6666(17) 0.6268(11) -0.054(4)
loop_
_geom_bond_atom_site_label_1
_geom_bond_atom_site_label_2
_geom_bond_site_symmetry_1
_geom_bond_site_symmetry_2
Er1 O4 1_555 1_555
O1 C1 1_555 1_555
O2 C1 1_555 1_555
O3 C4 1_555 1_555
O4 C5 1_555 1_555
O5 Er1 1_555 1_555
O6 Er1 1_555 1_555
N1 C2 1_555 1_555
N2 H1 1_555 1_555
C1 C2 1_555 1_555
C2 C3 1_555 1_555
C3 H2 1_555 1_555
C4 N2 1_555 1_555
C5 N1 1_555 1_555
O5A Er1 1_555 1_555
Er1C O3 1_555 1_555
Er1A O1 1_555 1_555
Er1A_2 O5 1_555 1_555
O1A Er1 1_555 1_555
O3C Er1 1_555 1_555
O5A_2 Er1 1_555 1_555
N1A Er1 1_555 1_555
O5 Er1A 1_555 1_555
N1 Er1A 1_555 1_555
N2 C5 1_555 1_555
C3 C4 1_555 1_555
O5A Er1A 1_555 1_555
Er1A_2 O5A_2 1_555 1_555

#END
