
#######################################################################
#
#                 Cambridge Crystallographic Data Centre
#                                CCDC 
#
#######################################################################
#
# If this CIF has been generated from an entry in the Cambridge 
# Structural Database, then it will include bibliographic, chemical, 
# crystal, experimental, refinement or atomic coordinate data resulting 
# from the CCDC's data processing and validation procedures.
#
#######################################################################

data_NACYAT
_symmetry_cell_setting           monoclinic
_symmetry_space_group_name_H-M   'P 21/c'
_symmetry_Int_Tables_number      14
_space_group_name_Hall           '-P 2ybc'
loop_
_symmetry_equiv_pos_site_id
_symmetry_equiv_pos_as_xyz
1 x,y,z
2 -x,1/2+y,1/2-z
3 -x,-y,-z
4 x,1/2-y,1/2+z
_cell_length_a                   10.762(3)
_cell_length_b                   6.6490(17)
_cell_length_c                   13.767(3)
_cell_angle_alpha                90
_cell_angle_beta                 120.472(14)
_cell_angle_gamma                90
_cell_volume                     849.051
loop_
_atom_site_label
_atom_site_type_symbol
_atom_site_fract_x
_atom_site_fract_y
_atom_site_fract_z
Co1 Co 0.27983(3) 0.69165(4) 0.45410(2)
O1 O 0.06093(17) 0.6390(3) 0.33695(12)
O2 O -0.16026(17) 0.6417(3) 0.31497(13)
O3 O 0.33547(17) 0.9309(3) 0.84104(12)
O4 O 0.45589(18) 0.8817(3) 0.75095(14)
O5 O 0.31296(17) 0.3975(3) 0.52227(13)
H1 H 0.2349 0.3397 0.5075
H2 H 0.3758 0.3756 0.5909
O6 O 0.26631(19) 0.9810(3) 0.39251(13)
H3 H 0.2230 1.0179 0.3239
H4 H 0.3457 1.0446 0.4275
O7 O 0.49073(17) 0.7676(3) 0.57682(13)
H5 H 0.4849 0.8050 0.6334
H6 H 0.5426 0.6623 0.5949
N1 N 0.1829(2) 0.7751(3) 0.55141(14)
N2 N -0.0308(2) 0.7736(3) 0.54354(15)
N3 N 0.0763(2) 0.8302(3) 0.64674(15)
H7 H 0.0643 0.8622 0.7020
C1 C -0.0296(3) 0.6694(3) 0.36908(18)
C2 C 0.0392(2) 0.7424(3) 0.48918(17)
C3 C 0.2037(2) 0.8297(3) 0.65120(17)
C4 C 0.3439(2) 0.8834(4) 0.75589(18)
Co1C Co 0.27983(3) 0.80835(4) 0.95410(2)
O3C O 0.33547(17) 0.5691(3) 0.34104(12)
loop_
_geom_bond_atom_site_label_1
_geom_bond_atom_site_label_2
_geom_bond_site_symmetry_1
_geom_bond_site_symmetry_2
Co1 O1 1_555 1_555
O1 C1 1_555 1_555
O2 C1 1_555 1_555
O3 C4 1_555 1_555
O4 C4 1_555 1_555
O5 Co1 1_555 1_555
H1 O5 1_555 1_555
H2 O5 1_555 1_555
O6 Co1 1_555 1_555
H3 O6 1_555 1_555
H4 O6 1_555 1_555
O7 Co1 1_555 1_555
H5 O7 1_555 1_555
H6 O7 1_555 1_555
N1 Co1 1_555 1_555
N2 N3 1_555 1_555
N3 H7 1_555 1_555
C1 C2 1_555 1_555
C2 N1 1_555 1_555
C3 N1 1_555 1_555
C4 C3 1_555 1_555
Co1C O3 1_555 1_555
O3C Co1 1_555 1_555
N2 C2 1_555 1_555
N3 C3 1_555 1_555

#END
