
#######################################################################
#
#                 Cambridge Crystallographic Data Centre
#                                CCDC 
#
#######################################################################
#
# If this CIF has been generated from an entry in the Cambridge 
# Structural Database, then it will include bibliographic, chemical, 
# crystal, experimental, refinement or atomic coordinate data resulting 
# from the CCDC's data processing and validation procedures.
#
#######################################################################

data_NACYEX
_symmetry_cell_setting           monoclinic
_symmetry_space_group_name_H-M   'P 21/c'
_symmetry_Int_Tables_number      14
_space_group_name_Hall           '-P 2ybc'
loop_
_symmetry_equiv_pos_site_id
_symmetry_equiv_pos_as_xyz
1 x,y,z
2 -x,1/2+y,1/2-z
3 -x,-y,-z
4 x,1/2-y,1/2+z
_cell_length_a                   7.345(3)
_cell_length_b                   10.222(4)
_cell_length_c                   10.635(4)
_cell_angle_alpha                90
_cell_angle_beta                 94.502(4)
_cell_angle_gamma                90
_cell_volume                     796.018
loop_
_atom_site_label
_atom_site_type_symbol
_atom_site_fract_x
_atom_site_fract_y
_atom_site_fract_z
Cd1 Cd 0.20026(9) 0.89894(6) 0.32177(6)
N1 N 0.2748(10) 1.0052(7) 0.1448(7)
N2 N 0.3419(10) 1.1160(7) -0.0207(7)
H1 H 0.3858 1.1762 -0.0660
N3 N 0.2509(10) 1.0095(7) -0.0657(7)
C1 C 0.3538(12) 1.1136(8) 0.1073(9)
C2 C 0.4523(13) 1.2158(9) 0.1888(8)
C3 C 0.2136(11) 0.9463(8) 0.0335(8)
C4 C 0.1165(12) 0.8163(8) 0.0341(8)
O1 O 0.4450(12) 1.2078(7) 0.3003(7)
O2 O 0.5298(10) 1.3003(7) 0.1259(7)
O3 O 0.0874(9) 0.7735(6) 0.1470(6)
O4 O 0.0718(9) 0.7616(6) -0.0633(6)
O5 O -0.0730(9) 1.0138(6) 0.3107(6)
H2 H -0.1218 0.9705 0.2524
H3 H -0.0584 1.0907 0.2925
O6 O 0.2754(11) 1.0311(8) 0.4860(8)
H4 H 0.1973 1.0245 0.5367
H5 H 0.3386 1.0970 0.4961
Cd1A Cd 0.79974(9) 1.39894(6) 0.17823(6)
Cd1C Cd 0.20026(9) 0.60106(6) -0.17823(6)
O2A O 0.4702(10) 0.8003(7) 0.3741(7)
O4C O 0.0718(9) 0.7384(6) 0.4367(6)
loop_
_geom_bond_atom_site_label_1
_geom_bond_atom_site_label_2
_geom_bond_site_symmetry_1
_geom_bond_site_symmetry_2
Cd1 N1 1_555 1_555
N1 C1 1_555 1_555
N2 H1 1_555 1_555
N3 N2 1_555 1_555
C1 N2 1_555 1_555
C2 C1 1_555 1_555
C3 N1 1_555 1_555
C4 C3 1_555 1_555
O1 C2 1_555 1_555
O2 C2 1_555 1_555
O3 Cd1 1_555 1_555
O4 C4 1_555 1_555
O5 Cd1 1_555 1_555
H2 O5 1_555 1_555
H3 O5 1_555 1_555
O6 Cd1 1_555 1_555
H4 O6 1_555 1_555
H5 O6 1_555 1_555
Cd1A O2 1_555 1_555
Cd1C O4 1_555 1_555
O2A Cd1 1_555 1_555
O4C Cd1 1_555 1_555
N3 C3 1_555 1_555
C4 O3 1_555 1_555

#END
