
#######################################################################
#
#                 Cambridge Crystallographic Data Centre
#                                CCDC 
#
#######################################################################
#
# If this CIF has been generated from an entry in the Cambridge 
# Structural Database, then it will include bibliographic, chemical, 
# crystal, experimental, refinement or atomic coordinate data resulting 
# from the CCDC's data processing and validation procedures.
#
#######################################################################

data_NADCUS
_symmetry_cell_setting           monoclinic
_symmetry_space_group_name_H-M   'C c'
_symmetry_Int_Tables_number      9
_space_group_name_Hall           'C -2yc'
loop_
_symmetry_equiv_pos_site_id
_symmetry_equiv_pos_as_xyz
1 x,y,z
2 x,-y,1/2+z
3 1/2+x,1/2+y,z
4 1/2+x,1/2-y,1/2+z
_cell_length_a                   20.907(8)
_cell_length_b                   7.810(3)
_cell_length_c                   15.367(6)
_cell_angle_alpha                90
_cell_angle_beta                 117.4100(10)
_cell_angle_gamma                90
_cell_volume                     2227.49
loop_
_atom_site_label
_atom_site_type_symbol
_atom_site_fract_x
_atom_site_fract_y
_atom_site_fract_z
Zn1 Zn 0.21877(2) 0.53807(6) 0.44475(3)
Zn2 Zn 0.33064(2) 0.44848(7) 0.37596(3)
S1 S 0.37969(6) 0.12911(14) 0.90606(8)
O1 O 0.28745(15) 0.3910(4) 0.5496(2)
O2 O 0.37873(16) 0.3677(4) 0.5116(2)
O3 O 0.62567(15) 0.0718(4) 0.9013(2)
O4 O 0.62042(17) 0.2103(5) 0.7722(3)
O5 O 0.39088(18) 0.3003(4) 0.9488(2)
O6 O 0.4222(2) -0.0008(5) 0.9736(3)
O7 O 0.30257(17) 0.0892(4) 0.8534(2)
O8 O 0.24461(16) 0.5853(4) 0.3431(2)
H1 H 0.258(3) 0.690(3) 0.336(4)
O9 O 0.26039(18) 0.2439(5) 0.3150(3)
H2 H 0.283(3) 0.146(5) 0.341(4)
H3 H 0.2152(14) 0.264(7) 0.304(4)
N1 N 0.1962(2) 0.7430(4) 0.5080(3)
N2 N -0.10505(19) 1.1132(5) 0.8138(2)
C1 C 0.3955(2) 0.2600(5) 0.6633(3)
C2 C 0.4687(2) 0.2310(5) 0.6927(3)
H4 H 0.4878 0.2561 0.6502
C3 C 0.5125(2) 0.1657(5) 0.7843(3)
C4 C 0.4830(2) 0.1223(5) 0.8451(3)
H5 H 0.5121 0.0734 0.9059
C5 C 0.4105(2) 0.1507(5) 0.8166(3)
C6 C 0.3666(2) 0.2209(5) 0.7265(3)
H6 H 0.3182 0.2421 0.7080
C7 C 0.3509(2) 0.3459(5) 0.5674(3)
C8 C 0.5925(2) 0.1482(6) 0.8205(3)
C9 C 0.1539(3) 0.7134(6) 0.5513(4)
H7 H 0.1428 0.6006 0.5583
C10 C 0.1264(3) 0.8413(6) 0.5855(3)
H8 H 0.0963 0.8142 0.6129
C11 C 0.1434(2) 1.0105(6) 0.5792(3)
C12 C 0.1879(2) 1.0400(5) 0.5350(3)
H9 H 0.2003 1.1517 0.5279
C13 C 0.2133(2) 0.9063(5) 0.5019(3)
H10 H 0.2435 0.9299 0.4741
C14 C 0.1144(3) 1.1559(6) 0.6151(4)
H11 H 0.0906 1.2362 0.5616
H12 H 0.1548 1.2151 0.6667
C15 C 0.0616(2) 1.1071(6) 0.6541(3)
H13 H 0.0195 1.0540 0.6019
H14 H 0.0842 1.0234 0.7061
C16 C 0.0376(2) 1.2600(6) 0.6936(3)
H15 H 0.0798 1.3155 0.7443
H16 H 0.0136 1.3420 0.6410
C17 C -0.1296(3) 1.1969(6) 0.7293(3)
H17 H -0.1785 1.2224 0.6957
C18 C -0.0851(3) 1.2480(6) 0.6890(3)
H18 H -0.1046 1.3076 0.6300
C19 C -0.0127(3) 1.2115(6) 0.7353(3)
C20 C 0.0122(2) 1.1232(6) 0.8226(3)
H19 H 0.0606 1.0941 0.8568
C21 C -0.0345(2) 1.0776(6) 0.8593(3)
H20 H -0.0161 1.0193 0.9187
Zn1C Zn 0.71877(2) -0.03807(6) 0.94475(3)
Zn2A Zn 0.33064(2) 0.55152(7) 0.87596(3)
Zn2C Zn -0.16936(2) 1.05152(7) 0.87596(3)
O3C O 0.12567(15) 0.4282(4) 0.4013(2)
O5A O 0.39088(18) 0.6997(4) 0.4488(2)
N2C N 0.39495(19) 0.3868(5) 0.3138(2)
loop_
_geom_bond_atom_site_label_1
_geom_bond_atom_site_label_2
_geom_bond_site_symmetry_1
_geom_bond_site_symmetry_2
Zn1 O1 1_555 1_555
Zn2 O2 1_555 1_555
S1 O5 1_555 1_555
O1 C7 1_555 1_555
O2 C7 1_555 1_555
O3 C8 1_555 1_555
O4 C8 1_555 1_555
O5 Zn2A 1_555 1_555
O6 S1 1_555 1_555
O7 S1 1_555 1_555
O8 Zn1 1_555 1_555
H1 O8 1_555 1_555
O9 Zn2 1_555 1_555
H2 O9 1_555 1_555
H3 O9 1_555 1_555
N1 Zn1 1_555 1_555
N2 C17 1_555 1_555
C1 C2 1_555 1_555
C2 H4 1_555 1_555
C3 C2 1_555 1_555
C4 C3 1_555 1_555
H5 C4 1_555 1_555
C5 S1 1_555 1_555
C6 C1 1_555 1_555
H6 C6 1_555 1_555
C7 C1 1_555 1_555
C8 C3 1_555 1_555
C9 N1 1_555 1_555
H7 C9 1_555 1_555
C10 C9 1_555 1_555
H8 C10 1_555 1_555
C11 C10 1_555 1_555
C12 C11 1_555 1_555
H9 C12 1_555 1_555
C13 N1 1_555 1_555
H10 C13 1_555 1_555
C14 C11 1_555 1_555
H11 C14 1_555 1_555
H12 C14 1_555 1_555
C15 C14 1_555 1_555
H13 C15 1_555 1_555
H14 C15 1_555 1_555
C16 C15 1_555 1_555
H15 C16 1_555 1_555
H16 C16 1_555 1_555
C17 H17 1_555 1_555
C18 C17 1_555 1_555
H18 C18 1_555 1_555
C19 C16 1_555 1_555
C20 C19 1_555 1_555
H19 C20 1_555 1_555
C21 N2 1_555 1_555
H20 C21 1_555 1_555
Zn1C O3 1_555 1_555
Zn2C N2 1_555 1_555
O3C Zn1 1_555 1_555
O5A Zn2 1_555 1_555
N2C Zn2 1_555 1_555
Zn2 O8 1_555 1_555
C4 C5 1_555 1_555
C5 C6 1_555 1_555
C12 C13 1_555 1_555
C18 C19 1_555 1_555
C20 C21 1_555 1_555

#END
