
#######################################################################
#
#                 Cambridge Crystallographic Data Centre
#                                CCDC 
#
#######################################################################
#
# If this CIF has been generated from an entry in the Cambridge 
# Structural Database, then it will include bibliographic, chemical, 
# crystal, experimental, refinement or atomic coordinate data resulting 
# from the CCDC's data processing and validation procedures.
#
#######################################################################

data_NADDED
_symmetry_cell_setting           orthorhombic
_symmetry_space_group_name_H-M   'A b a 2'
_symmetry_Int_Tables_number      41
_space_group_name_Hall           'A 2 -2ab'
loop_
_symmetry_equiv_pos_site_id
_symmetry_equiv_pos_as_xyz
1 x,y,z
2 1/2-x,1/2+y,z
3 1/2+x,1/2-y,z
4 -x,-y,z
5 x,1/2+y,1/2+z
6 1/2-x,y,1/2+z
7 1/2+x,-y,1/2+z
8 -x,1/2-y,1/2+z
_cell_length_a                   11.0858(7)
_cell_length_b                   22.4539(14)
_cell_length_c                   7.2261(5)
_cell_angle_alpha                90
_cell_angle_beta                 90
_cell_angle_gamma                90
_cell_volume                     1798.72
loop_
_atom_site_label
_atom_site_type_symbol
_atom_site_fract_x
_atom_site_fract_y
_atom_site_fract_z
Co1 Co 0.43341(3) 0.414456(14) 0.56271(8)
O1 O 0.4598(2) 0.42320(10) 0.8464(3)
N1 N 0.4048(3) 0.39629(15) 0.2748(4)
N2 N 0.3131(2) 0.38310(11) 0.2047(4)
N3 N 0.2251(2) 0.36736(11) 0.1272(4)
N4 N 0.5522(2) 0.33641(10) 0.5391(5)
N5 N 0.7468(3) 0.30924(12) 0.4222(4)
N6 N 0.6069(2) 0.45090(11) 0.5250(3)
N7 N 0.6611(2) 0.50426(10) 0.5277(4)
N8 N 0.7775(2) 0.49720(12) 0.4950(4)
N9 N 0.8018(2) 0.43924(12) 0.4705(4)
C1 C 0.6953(3) 0.41244(13) 0.4892(4)
C2 C 0.6651(3) 0.34821(14) 0.4820(4)
C3 C 0.5178(3) 0.27966(14) 0.5307(5)
H1 H 0.4399 0.2696 0.5667
C4 C 0.5953(4) 0.23492(15) 0.4696(5)
H2 H 0.5719 0.1951 0.4665
C5 C 0.7081(3) 0.25293(15) 0.4143(5)
H3 H 0.7607 0.2242 0.3686
Co1E Co 0.06659(3) 0.414456(14) 0.06271(8)
Co1C Co 0.56659(3) 0.585544(14) 0.56271(8)
N3E N 0.2749(2) 0.36736(11) 0.6272(4)
N7C N 0.3389(2) 0.49574(10) 0.5277(4)
loop_
_geom_bond_atom_site_label_1
_geom_bond_atom_site_label_2
_geom_bond_site_symmetry_1
_geom_bond_site_symmetry_2
Co1 O1 1_555 1_555
N1 Co1 1_555 1_555
N2 N1 1_555 1_555
N3 N2 1_555 1_555
N4 Co1 1_555 1_555
N5 C2 1_555 1_555
N6 Co1 1_555 1_555
N7 N6 1_555 1_555
N8 N7 1_555 1_555
N9 N8 1_555 1_555
C1 N6 1_555 1_555
C2 N4 1_555 1_555
C3 N4 1_555 1_555
H1 C3 1_555 1_555
C4 C3 1_555 1_555
H2 C4 1_555 1_555
C5 N5 1_555 1_555
H3 C5 1_555 1_555
Co1E N3 1_555 1_555
Co1C N7 1_555 1_555
N3E Co1 1_555 1_555
N7C Co1 1_555 1_555
N9 C1 1_555 1_555
C1 C2 1_555 1_555
C4 C5 1_555 1_555

#END
