
#######################################################################
#
#                 Cambridge Crystallographic Data Centre
#                                CCDC 
#
#######################################################################
#
# If this CIF has been generated from an entry in the Cambridge 
# Structural Database, then it will include bibliographic, chemical, 
# crystal, experimental, refinement or atomic coordinate data resulting 
# from the CCDC's data processing and validation procedures.
#
#######################################################################

data_NADDIH
_symmetry_cell_setting           monoclinic
_symmetry_space_group_name_H-M   'P 21/c'
_symmetry_Int_Tables_number      14
_space_group_name_Hall           '-P 2ybc'
loop_
_symmetry_equiv_pos_site_id
_symmetry_equiv_pos_as_xyz
1 x,y,z
2 -x,1/2+y,1/2-z
3 -x,-y,-z
4 x,1/2-y,1/2+z
_cell_length_a                   8.780(5)
_cell_length_b                   6.423(5)
_cell_length_c                   16.159(5)
_cell_angle_alpha                90
_cell_angle_beta                 90.036(5)
_cell_angle_gamma                90
_cell_volume                     911.269
loop_
_atom_site_label
_atom_site_type_symbol
_atom_site_fract_x
_atom_site_fract_y
_atom_site_fract_z
Mn1 Mn -0.28072(7) 0.42294(6) 0.44876(3)
N1 N -0.5055(3) 0.5241(4) 0.39539(16)
N2 N -0.6508(3) 0.5342(4) 0.42001(15)
N3 N -0.7421(3) 0.5291(4) 0.35449(16)
N4 N -0.6592(3) 0.5150(4) 0.28588(16)
N5 N -0.3827(4) 0.5220(4) 0.18151(16)
N6 N -0.2474(3) 0.4708(4) 0.30854(15)
N7 N -0.0702(3) 0.2538(5) 0.4745(2)
N8 N 0.0459(3) 0.2623(4) 0.50964(16)
N9 N 0.1645(3) 0.2649(4) 0.54431(18)
C1 C -0.5142(4) 0.5134(5) 0.31267(18)
C2 C -0.3751(4) 0.4991(4) 0.26454(18)
C3 C -0.2502(4) 0.5158(5) 0.14258(18)
H1 H -0.2496 0.5262 0.0852
C4 C -0.1122(5) 0.4944(6) 0.1835(2)
H2 H -0.0204 0.4964 0.1548
C5 C -0.1161(4) 0.4701(5) 0.2684(2)
H3 H -0.0256 0.4530 0.2975
O1 O -0.3657(3) 0.1066(3) 0.42733(14)
H4 H -0.3940 0.0117 0.3941
H5 H -0.3339 0.0477 0.4712
Mn1B Mn -0.71928(7) 0.57706(6) 0.55124(3)
Mn1B_2 Mn 0.28072(7) 0.57706(6) 0.55124(3)
N2B N -0.3492(3) 0.4658(4) 0.57999(15)
N9B N -0.1645(3) 0.7351(4) 0.45569(18)
loop_
_geom_bond_atom_site_label_1
_geom_bond_atom_site_label_2
_geom_bond_site_symmetry_1
_geom_bond_site_symmetry_2
Mn1 N1 1_555 1_555
N1 N2 1_555 1_555
N2 N3 1_555 1_555
N3 N4 1_555 1_555
N4 C1 1_555 1_555
N5 C2 1_555 1_555
N6 Mn1 1_555 1_555
N7 Mn1 1_555 1_555
N8 N7 1_555 1_555
N9 N8 1_555 1_555
C1 N1 1_555 1_555
C2 N6 1_555 1_555
C3 N5 1_555 1_555
H1 C3 1_555 1_555
C4 C3 1_555 1_555
H2 C4 1_555 1_555
C5 N6 1_555 1_555
H3 C5 1_555 1_555
O1 Mn1 1_555 1_555
H4 O1 1_555 1_555
H5 O1 1_555 1_555
Mn1B N2 1_555 1_555
Mn1B_2 N9 1_555 1_555
N2B Mn1 1_555 1_555
N9B Mn1 1_555 1_555
C1 C2 1_555 1_555
C4 C5 1_555 1_555

#END
