
#######################################################################
#
#                 Cambridge Crystallographic Data Centre
#                                CCDC 
#
#######################################################################
#
# If this CIF has been generated from an entry in the Cambridge 
# Structural Database, then it will include bibliographic, chemical, 
# crystal, experimental, refinement or atomic coordinate data resulting 
# from the CCDC's data processing and validation procedures.
#
#######################################################################

data_NADFUU
_symmetry_cell_setting           rhombohedral
_symmetry_space_group_name_H-M   'R 3'
_symmetry_Int_Tables_number      146
_space_group_name_Hall           'R 3'
loop_
_symmetry_equiv_pos_site_id
_symmetry_equiv_pos_as_xyz
1 x,y,z
2 -y,x-y,z
3 -x+y,-x,z
4 2/3+x,1/3+y,1/3+z
5 2/3-y,1/3+x-y,1/3+z
6 2/3-x+y,1/3-x,1/3+z
7 1/3+x,2/3+y,2/3+z
8 1/3-y,2/3+x-y,2/3+z
9 1/3-x+y,2/3-x,2/3+z
_cell_length_a                   10.5933(15)
_cell_length_b                   10.5933(15)
_cell_length_c                   49.319(10)
_cell_angle_alpha                90
_cell_angle_beta                 90
_cell_angle_gamma                120.00
_cell_volume                     4793
loop_
_atom_site_label
_atom_site_type_symbol
_atom_site_fract_x
_atom_site_fract_y
_atom_site_fract_z
Zn1 Zn 0.6667 1.3333 0.13899(5)
S1 S 0.69873(19) 1.11151(19) 0.10033(4)
S2 S 0.6350(2) 0.5547(2) 0.17823(4)
C1 C 0.383(2) 0.9072(16) 0.0126(3)
H1 H 0.3486 0.9435 -0.0018
H2 H 0.3040 0.8163 0.0190
H3 H 0.4597 0.8926 0.0059
C2 C 0.4302(15) 0.9980(13) 0.0317(2)
H4 H 0.3498 1.0133 0.0363
H5 H 0.5036 1.0882 0.0234
C3 C 0.4931(10) 0.9926(9) 0.05793(16)
H6 H 0.4372 1.0105 0.0714
H7 H 0.4675 0.8916 0.0602
C4 C 0.6542(10) 1.0835(9) 0.0673(2)
H8 H 0.6941 1.1788 0.0589
H9 H 0.7057 1.0380 0.0595
C5 C 0.6395(7) 0.9260(6) 0.10860(15)
H10 H 0.5340 0.8701 0.1076
H11 H 0.6776 0.8867 0.0952
C6 C 0.6845(7) 0.9077(7) 0.13497(15)
H12 H 0.6438 0.9434 0.1485
H13 H 0.7899 0.9651 0.1362
C7 C 0.6348(8) 0.7464(8) 0.14082(17)
H14 H 0.6730 0.7079 0.1273
H15 H 0.5293 0.6879 0.1408
C8 C 0.7003(10) 0.7457(8) 0.17076(16)
H16 H 0.6652 0.7878 0.1842
H17 H 0.8059 0.8008 0.1706
C9 C 0.6881(8) 0.5632(9) 0.21367(15)
H18 H 0.6323 0.5938 0.2247
H19 H 0.6648 0.4667 0.2196
C10 C 0.8521(11) 0.6698(11) 0.2180(2)
H20 H 0.8811 0.7667 0.2114
H21 H 0.9118 0.6351 0.2096
C11 C 0.8589(13) 0.6654(14) 0.2526(3)
H22 H 0.8047 0.7069 0.2608
H23 H 0.8213 0.5668 0.2592
C12 C 1.0057(17) 0.7500(18) 0.2574(4)
H24 H 1.0246 0.7461 0.2763
H25 H 1.0377 0.8490 0.2523
H26 H 1.0574 0.7140 0.2469
O1 O 0.5934(5) 1.1494(4) 0.11549(8)
O2 O 0.7411(4) 0.5228(5) 0.16391(10)
S1A S 0.88849(19) 1.58722(27) 0.10033(4)
S2A S 1.4453(2) 2.0803(3) 0.17823(4)
C1A C 1.0928(16) 1.4758(26) 0.0126(3)
H1A H 1.0565 1.4051 -0.0018
H2A H 1.1837 1.4877 0.0190
H3A H 1.1074 1.5671 0.0059
C2A C 1.0020(13) 1.4322(20) 0.0317(2)
H4A H 0.9867 1.3365 0.0363
H5A H 0.9118 1.4154 0.0234
C3A C 1.0074(9) 1.5005(13) 0.05793(16)
H6A H 0.9895 1.4267 0.0714
H7A H 1.1084 1.5759 0.0602
C4A C 0.9165(9) 1.5707(13) 0.0673(2)
H8A H 0.8212 1.5153 0.0589
H9A H 0.9620 1.6677 0.0595
C5A C 1.0740(6) 1.7135(9) 0.10860(15)
H10A H 1.1299 1.6639 0.1076
H11A H 1.1133 1.7909 0.0952
C6A C 1.0923(7) 1.7768(10) 0.13497(15)
H12A H 1.0566 1.7004 0.1485
H13A H 1.0349 1.8248 0.1362
C7A C 1.2536(8) 1.8884(11) 0.14082(17)
H14A H 1.2921 1.9651 0.1273
H15A H 1.3121 1.8414 0.1408
C8A C 1.2543(8) 1.9546(13) 0.17076(16)
H16A H 1.2122 1.8774 0.1842
H17A H 1.1992 2.0051 0.1706
C9A C 1.4368(9) 2.1249(12) 0.21367(15)
H18A H 1.4062 2.0385 0.2247
H19A H 1.5333 2.1981 0.2196
C10A C 1.3302(11) 2.1823(16) 0.2180(2)
H20A H 1.2333 2.1144 0.2114
H21A H 1.3649 2.2767 0.2096
C11A C 1.3346(14) 2.1935(19) 0.2526(3)
H22A H 1.2931 2.0978 0.2608
H23A H 1.4332 2.2545 0.2592
C12A C 1.2500(18) 2.2557(25) 0.2574(4)
H24A H 1.2539 2.2785 0.2763
H25A H 1.1510 2.1887 0.2523
H26A H 1.2860 2.3434 0.2469
O1A O 0.8506(4) 1.4440(6) 0.11549(8)
O2A O 1.4772(5) 2.2183(6) 0.16391(10)
S1B S 0.41278(27) 1.30127(19) 0.10033(4)
S2B S -0.0803(3) 1.3650(2) 0.17823(4)
C1B C 0.5242(26) 1.617(2) 0.0126(3)
H1B H 0.5949 1.6514 -0.0018
H2B H 0.5123 1.6960 0.0190
H3B H 0.4329 1.5403 0.0059
C2B C 0.5678(20) 1.5698(15) 0.0317(2)
H4B H 0.6635 1.6502 0.0363
H5B H 0.5846 1.4964 0.0234
C3B C 0.4995(13) 1.5069(10) 0.05793(16)
H6B H 0.5733 1.5628 0.0714
H7B H 0.4241 1.5325 0.0602
C4B C 0.4293(13) 1.3458(10) 0.0673(2)
H8B H 0.4847 1.3059 0.0589
H9B H 0.3323 1.2943 0.0595
C5B C 0.2865(9) 1.3605(7) 0.10860(15)
H10B H 0.3361 1.4660 0.1076
H11B H 0.2091 1.3224 0.0952
C6B C 0.2232(10) 1.3155(7) 0.13497(15)
H12B H 0.2996 1.3562 0.1485
H13B H 0.1752 1.2101 0.1362
C7B C 0.1116(11) 1.3652(8) 0.14082(17)
H14B H 0.0349 1.3270 0.1273
H15B H 0.1586 1.4707 0.1408
C8B C 0.0454(13) 1.2997(10) 0.17076(16)
H16B H 0.1226 1.3348 0.1842
H17B H -0.0051 1.1941 0.1706
C9B C -0.1249(12) 1.3119(8) 0.21367(15)
H18B H -0.0385 1.3677 0.2247
H19B H -0.1981 1.3352 0.2196
C10B C -0.1823(16) 1.1479(11) 0.2180(2)
H20B H -0.1144 1.1189 0.2114
H21B H -0.2767 1.0882 0.2096
C11B C -0.1935(19) 1.1411(13) 0.2526(3)
H22B H -0.0978 1.1953 0.2608
H23B H -0.2545 1.1787 0.2592
C12B C -0.2557(25) 0.9943(17) 0.2574(4)
H24B H -0.2785 0.9754 0.2763
H25B H -0.1887 0.9623 0.2523
H26B H -0.3434 0.9426 0.2469
O1B O 0.5560(6) 1.4066(5) 0.11549(8)
O2B O -0.2183(6) 1.2589(4) 0.16391(10)
O2_2 O 0.7411(4) 1.5228(5) 0.16391(10)
O2A_2 O 0.4772(5) 1.2183(6) 0.16391(10)
O2B_2 O 0.7817(6) 1.2589(4) 0.16391(10)
Zn1_2 Zn 0.6667 0.3333 0.13899(5)
Zn1_3 Zn 1.6667 2.3333 0.13899(5)
Zn1_4 Zn -0.3333 1.3333 0.13899(5)
Cl1 Cl 0.3333 0.6667 0.20594(9)
O3 O 0.3333 0.6667 0.1775(3)
O4 O 0.2069(7) 0.6454(9) 0.2097(2)
O4A O 0.3546(9) 0.5615(11) 0.2097(2)
O4B O 0.4385(11) 0.7931(7) 0.2097(2)
Cl2 Cl 1.0000 1.0000 0.07203(9)
O5 O 1.0000 1.0000 0.1007(3)
O6 O 1.0153(13) 1.1319(12) 0.0608(2)
O6A O 0.8681(12) 0.8834(18) 0.0608(2)
O6B O 1.1166(18) 0.9847(13) 0.0608(2)
Cl3 Cl 0.1623(5) 0.5419(5) 0.29129(10)
C13 C 0.3333 0.6667 0.2835(4)
H27 H 0.3333 0.6667 0.2636
Cl3B Cl 0.3796(7) 0.8377(5) 0.29129(10)
Cl3A Cl 0.4581(5) 0.6204(7) 0.29129(10)
loop_
_geom_bond_atom_site_label_1
_geom_bond_atom_site_label_2
_geom_bond_site_symmetry_1
_geom_bond_site_symmetry_2
Zn1 O1 1_555 1_555
Cl1 O3 1_555 1_555
Cl2 O5 1_555 1_555
Cl3 C13 1_555 1_555
S1 C4 1_555 1_555
S2 C8 1_555 1_555
C1 H1 1_555 1_555
H2 C1 1_555 1_555
H3 C1 1_555 1_555
C2 C1 1_555 1_555
H4 C2 1_555 1_555
H5 C2 1_555 1_555
C3 C2 1_555 1_555
H6 C3 1_555 1_555
H7 C3 1_555 1_555
C4 C3 1_555 1_555
H8 C4 1_555 1_555
H9 C4 1_555 1_555
C5 S1 1_555 1_555
H10 C5 1_555 1_555
H11 C5 1_555 1_555
C6 C5 1_555 1_555
H12 C6 1_555 1_555
H13 C6 1_555 1_555
C7 C6 1_555 1_555
H14 C7 1_555 1_555
H15 C7 1_555 1_555
C8 C7 1_555 1_555
H16 C8 1_555 1_555
H17 C8 1_555 1_555
C9 S2 1_555 1_555
H18 C9 1_555 1_555
H19 C9 1_555 1_555
C10 C9 1_555 1_555
H20 C10 1_555 1_555
H21 C10 1_555 1_555
C11 C10 1_555 1_555
H22 C11 1_555 1_555
H23 C11 1_555 1_555
C12 C11 1_555 1_555
H24 C12 1_555 1_555
H25 C12 1_555 1_555
H26 C12 1_555 1_555
C13 H27 1_555 1_555
O1 S1 1_555 1_555
O2 S2 1_555 1_555
O4 Cl1 1_555 1_555
O6 Cl2 1_555 1_555
O4A Cl1 1_555 1_555
O4B Cl1 1_555 1_555
O6A Cl2 1_555 1_555
O6B Cl2 1_555 1_555
Cl3B C13 1_555 1_555
Cl3A C13 1_555 1_555
S1A C4A 1_555 1_555
S2A C8A 1_555 1_555
C1A H1A 1_555 1_555
H2A C1A 1_555 1_555
H3A C1A 1_555 1_555
C2A C1A 1_555 1_555
H4A C2A 1_555 1_555
H5A C2A 1_555 1_555
C3A C2A 1_555 1_555
H6A C3A 1_555 1_555
H7A C3A 1_555 1_555
C4A C3A 1_555 1_555
H8A C4A 1_555 1_555
H9A C4A 1_555 1_555
C5A S1A 1_555 1_555
H10A C5A 1_555 1_555
H11A C5A 1_555 1_555
C6A C5A 1_555 1_555
H12A C6A 1_555 1_555
H13A C6A 1_555 1_555
C7A C6A 1_555 1_555
H14A C7A 1_555 1_555
H15A C7A 1_555 1_555
C8A C7A 1_555 1_555
H16A C8A 1_555 1_555
H17A C8A 1_555 1_555
C9A S2A 1_555 1_555
H18A C9A 1_555 1_555
H19A C9A 1_555 1_555
C10A C9A 1_555 1_555
H20A C10A 1_555 1_555
H21A C10A 1_555 1_555
C11A C10A 1_555 1_555
H22A C11A 1_555 1_555
H23A C11A 1_555 1_555
C12A C11A 1_555 1_555
H24A C12A 1_555 1_555
H25A C12A 1_555 1_555
H26A C12A 1_555 1_555
O1A Zn1 1_555 1_555
O2A S2A 1_555 1_555
S1B C4B 1_555 1_555
S2B C8B 1_555 1_555
C1B H1B 1_555 1_555
H2B C1B 1_555 1_555
H3B C1B 1_555 1_555
C2B C1B 1_555 1_555
H4B C2B 1_555 1_555
H5B C2B 1_555 1_555
C3B C2B 1_555 1_555
H6B C3B 1_555 1_555
H7B C3B 1_555 1_555
C4B C3B 1_555 1_555
H8B C4B 1_555 1_555
H9B C4B 1_555 1_555
C5B S1B 1_555 1_555
H10B C5B 1_555 1_555
H11B C5B 1_555 1_555
C6B C5B 1_555 1_555
H12B C6B 1_555 1_555
H13B C6B 1_555 1_555
C7B C6B 1_555 1_555
H14B C7B 1_555 1_555
H15B C7B 1_555 1_555
C8B C7B 1_555 1_555
H16B C8B 1_555 1_555
H17B C8B 1_555 1_555
C9B S2B 1_555 1_555
H18B C9B 1_555 1_555
H19B C9B 1_555 1_555
C10B C9B 1_555 1_555
H20B C10B 1_555 1_555
H21B C10B 1_555 1_555
C11B C10B 1_555 1_555
H22B C11B 1_555 1_555
H23B C11B 1_555 1_555
C12B C11B 1_555 1_555
H24B C12B 1_555 1_555
H25B C12B 1_555 1_555
H26B C12B 1_555 1_555
O1B Zn1 1_555 1_555
O2B S2B 1_555 1_555
O2_2 Zn1 1_555 1_555
O2A_2 Zn1 1_555 1_555
O2B_2 Zn1 1_555 1_555
Zn1_2 O2 1_555 1_555
Zn1_3 O2A 1_555 1_555
Zn1_4 O2B 1_555 1_555
S1A O1A 1_555 1_555
S1B O1B 1_555 1_555

#END
