
#######################################################################
#
#                 Cambridge Crystallographic Data Centre
#                                CCDC 
#
#######################################################################
#
# If this CIF has been generated from an entry in the Cambridge 
# Structural Database, then it will include bibliographic, chemical, 
# crystal, experimental, refinement or atomic coordinate data resulting 
# from the CCDC's data processing and validation procedures.
#
#######################################################################

data_NADFOO
_symmetry_cell_setting           rhombohedral
_symmetry_space_group_name_H-M   'R 3 c'
_symmetry_Int_Tables_number      161
_space_group_name_Hall           'R 3 -2"c'
loop_
_symmetry_equiv_pos_site_id
_symmetry_equiv_pos_as_xyz
1 x,y,z
2 -y,x-y,z
3 -x+y,-x,z
4 -y,-x,1/2+z
5 -x+y,y,1/2+z
6 x,x-y,1/2+z
7 2/3+x,1/3+y,1/3+z
8 2/3-y,1/3+x-y,1/3+z
9 2/3-x+y,1/3-x,1/3+z
10 2/3-y,1/3-x,5/6+z
11 2/3-x+y,1/3+y,5/6+z
12 2/3+x,1/3+x-y,5/6+z
13 1/3+x,2/3+y,2/3+z
14 1/3-y,2/3+x-y,2/3+z
15 1/3-x+y,2/3-x,2/3+z
16 1/3-y,2/3-x,1/6+z
17 1/3-x+y,2/3+y,1/6+z
18 1/3+x,2/3+x-y,1/6+z
_cell_length_a                   10.301(3)
_cell_length_b                   10.301(3)
_cell_length_c                   65.44(3)
_cell_angle_alpha                90
_cell_angle_beta                 90
_cell_angle_gamma                120
_cell_volume                     6013.57
loop_
_atom_site_label
_atom_site_type_symbol
_atom_site_fract_x
_atom_site_fract_y
_atom_site_fract_z
Zn1 Zn 0.3333 -0.3333 0.16419(8)
S1 S 0.3683(6) -0.0741(5) 0.19425(5)
S2 S 0.3011(6) 0.4116(6) 0.13437(6)
O1 O 0.2620(13) -0.2180(12) 0.18274(18)
O2 O 0.4094(10) 0.5503(11) 0.14584(16)
C1 C 0.155(2) -0.1742(17) 0.2245(3)
H1 H 0.1422 -0.1824 0.2391
H2 H 0.0977 -0.2717 0.2185
H3 H 0.1196 -0.1099 0.2193
C2 C 0.314(2) -0.110(2) 0.2194(3)
H4 H 0.3459 -0.1787 0.2246
H5 H 0.3702 -0.0173 0.2269
C3 C 0.312(2) 0.046(2) 0.1893(2)
H6 H 0.2030 -0.0044 0.1898
H7 H 0.3504 0.1245 0.1996
C4 C 0.3699(15) 0.1213(19) 0.1668(2)
H8 H 0.4781 0.1672 0.1663
H9 H 0.3286 0.0423 0.1566
C5 C 0.332(3) 0.2285(19) 0.1616(3)
H10 H 0.3832 0.3136 0.1707
H11 H 0.2248 0.1866 0.1636
C6 C 0.368(2) 0.2798(16) 0.1409(2)
H12 H 0.3222 0.1945 0.1317
H13 H 0.4757 0.3295 0.1390
C7 C 0.360(2) 0.444(2) 0.1072(2)
H14 H 0.3066 0.3504 0.0998
H15 H 0.3322 0.5134 0.1013
C8 C 0.525(2) 0.507(3) 0.1044(3)
H16 H 0.5500 0.5310 0.0902
H17 H 0.5512 0.4337 0.1086
H18 H 0.5787 0.5958 0.1125
S1A S 0.0741(5) -0.5576(8) 0.19425(5)
S2A S -0.4116(6) -1.1105(8) 0.13437(6)
O1A O 0.2180(12) -0.5200(18) 0.18274(18)
O2A O -0.5503(11) -1.1409(15) 0.14584(16)
C1A C 0.1742(17) -0.6708(26) 0.2245(3)
H1A H 0.1824 -0.6754 0.2391
H2A H 0.2717 -0.6306 0.2185
H3A H 0.1099 -0.7705 0.2193
C2A C 0.110(2) -0.576(3) 0.2194(3)
H4A H 0.1787 -0.4754 0.2246
H5A H 0.0173 -0.6125 0.2269
C3A C -0.046(2) -0.734(3) 0.1893(2)
H6A H 0.0044 -0.7926 0.1898
H7A H -0.1245 -0.7741 0.1996
C4A C -0.1213(19) -0.7514(24) 0.1668(2)
H8A H -0.1672 -0.6891 0.1663
H9A H -0.0423 -0.7137 0.1566
C5A C -0.2285(19) -0.8965(36) 0.1616(3)
H10A H -0.3136 -0.9304 0.1707
H11A H -0.1866 -0.9618 0.1636
C6A C -0.2798(16) -0.9118(26) 0.1409(2)
H12A H -0.1945 -0.8723 0.1317
H13A H -0.3295 -0.8538 0.1390
C7A C -0.444(2) -1.084(3) 0.1072(2)
H14A H -0.3504 -1.0438 0.0998
H15A H -0.5134 -1.1812 0.1013
C8A C -0.507(3) -0.982(4) 0.1044(3)
H16A H -0.5310 -0.9810 0.0902
H17A H -0.4337 -0.8825 0.1086
H18A H -0.5958 -1.0171 0.1125
S1B S 0.5576(8) -0.3683(6) 0.19425(5)
S2B S 1.1105(8) -0.3011(6) 0.13437(6)
O1B O 0.5200(18) -0.2620(13) 0.18274(18)
O2B O 1.1409(15) -0.4094(10) 0.14584(16)
C1B C 0.6708(26) -0.155(2) 0.2245(3)
H1B H 0.6754 -0.1422 0.2391
H2B H 0.6306 -0.0977 0.2185
H3B H 0.7705 -0.1196 0.2193
C2B C 0.576(3) -0.314(2) 0.2194(3)
H4B H 0.4754 -0.3459 0.2246
H5B H 0.6125 -0.3702 0.2269
C3B C 0.734(3) -0.312(2) 0.1893(2)
H6B H 0.7926 -0.2030 0.1898
H7B H 0.7741 -0.3504 0.1996
C4B C 0.7514(24) -0.3699(15) 0.1668(2)
H8B H 0.6891 -0.4781 0.1663
H9B H 0.7137 -0.3286 0.1566
C5B C 0.8965(36) -0.332(3) 0.1616(3)
H10B H 0.9304 -0.3832 0.1707
H11B H 0.9618 -0.2248 0.1636
C6B C 0.9118(26) -0.368(2) 0.1409(2)
H12B H 0.8723 -0.3222 0.1317
H13B H 0.8538 -0.4757 0.1390
C7B C 1.084(3) -0.360(2) 0.1072(2)
H14B H 1.0438 -0.3066 0.0998
H15B H 1.1812 -0.3322 0.1013
C8B C 0.982(4) -0.525(2) 0.1044(3)
H16B H 0.9810 -0.5500 0.0902
H17B H 0.8825 -0.5512 0.1086
H18B H 1.0171 -0.5787 0.1125
O2_2 O 0.4094(10) -0.4497(11) 0.14584(16)
O2A_2 O 0.4497(11) -0.1409(15) 0.14584(16)
O2B_2 O 0.1409(15) -0.4094(10) 0.14584(16)
Zn1_2 Zn 0.3333 0.6667 0.16419(8)
Zn1_3 Zn -0.6667 -1.3333 0.16419(8)
Zn1_4 Zn 1.3333 -0.3333 0.16419(8)
Cl1 Cl 0.3333 0.6667 0.05442(12)
O3 O 0.3333 0.6667 0.0361(4)
O4 O 0.2156(19) 0.555(2) 0.0628(3)
O4A O 0.445(2) 0.6606(28) 0.0628(3)
O4B O 0.3394(28) 0.7844(19) 0.0628(3)
Cl2 Cl 0.3333 0.6667 0.27422(13)
O5 O 0.204(2) 0.676(3) 0.2694(3)
O6 O 0.3333 0.6667 0.2966(3)
O5A O 0.324(3) 0.528(4) 0.2694(3)
O5B O 0.472(4) 0.796(2) 0.2694(3)
loop_
_geom_bond_atom_site_label_1
_geom_bond_atom_site_label_2
_geom_bond_site_symmetry_1
_geom_bond_site_symmetry_2
Zn1 O1 1_555 1_555
S1 O1 1_555 1_555
S2 O2 1_555 1_555
O2 Zn1_2 1_555 1_555
C1 H1 1_555 1_555
H2 C1 1_555 1_555
H3 C1 1_555 1_555
C2 S1 1_555 1_555
H4 C2 1_555 1_555
H5 C2 1_555 1_555
C3 S1 1_555 1_555
H6 C3 1_555 1_555
H7 C3 1_555 1_555
C4 C3 1_555 1_555
H8 C4 1_555 1_555
H9 C4 1_555 1_555
C5 C4 1_555 1_555
H10 C5 1_555 1_555
H11 C5 1_555 1_555
C6 S2 1_555 1_555
H12 C6 1_555 1_555
H13 C6 1_555 1_555
C7 S2 1_555 1_555
H14 C7 1_555 1_555
H15 C7 1_555 1_555
C8 C7 1_555 1_555
H16 C8 1_555 1_555
H17 C8 1_555 1_555
H18 C8 1_555 1_555
Cl1 O3 1_555 1_555
O4 Cl1 1_555 1_555
Cl2 O5 1_555 1_555
O6 Cl2 1_555 1_555
S1A O1A 1_555 1_555
S2A O2A 1_555 1_555
O1A Zn1 1_555 1_555
O2A Zn1_3 1_555 1_555
C1A H1A 1_555 1_555
H2A C1A 1_555 1_555
H3A C1A 1_555 1_555
C2A S1A 1_555 1_555
H4A C2A 1_555 1_555
H5A C2A 1_555 1_555
C3A S1A 1_555 1_555
H6A C3A 1_555 1_555
H7A C3A 1_555 1_555
C4A C3A 1_555 1_555
H8A C4A 1_555 1_555
H9A C4A 1_555 1_555
C5A C4A 1_555 1_555
H10A C5A 1_555 1_555
H11A C5A 1_555 1_555
C6A S2A 1_555 1_555
H12A C6A 1_555 1_555
H13A C6A 1_555 1_555
C7A S2A 1_555 1_555
H14A C7A 1_555 1_555
H15A C7A 1_555 1_555
C8A C7A 1_555 1_555
H16A C8A 1_555 1_555
H17A C8A 1_555 1_555
H18A C8A 1_555 1_555
S1B O1B 1_555 1_555
S2B O2B 1_555 1_555
O1B Zn1 1_555 1_555
O2B Zn1_4 1_555 1_555
C1B H1B 1_555 1_555
H2B C1B 1_555 1_555
H3B C1B 1_555 1_555
C2B S1B 1_555 1_555
H4B C2B 1_555 1_555
H5B C2B 1_555 1_555
C3B S1B 1_555 1_555
H6B C3B 1_555 1_555
H7B C3B 1_555 1_555
C4B C3B 1_555 1_555
H8B C4B 1_555 1_555
H9B C4B 1_555 1_555
C5B C4B 1_555 1_555
H10B C5B 1_555 1_555
H11B C5B 1_555 1_555
C6B S2B 1_555 1_555
H12B C6B 1_555 1_555
H13B C6B 1_555 1_555
C7B S2B 1_555 1_555
H14B C7B 1_555 1_555
H15B C7B 1_555 1_555
C8B C7B 1_555 1_555
H16B C8B 1_555 1_555
H17B C8B 1_555 1_555
H18B C8B 1_555 1_555
O2_2 Zn1 1_555 1_555
O2A_2 Zn1 1_555 1_555
O2B_2 Zn1 1_555 1_555
O4A Cl1 1_555 1_555
O4B Cl1 1_555 1_555
O5A Cl2 1_555 1_555
O5B Cl2 1_555 1_555
C1 C2 1_555 1_555
C5 C6 1_555 1_555
C1A C2A 1_555 1_555
C5A C6A 1_555 1_555
C1B C2B 1_555 1_555
C5B C6B 1_555 1_555

#END
