
#######################################################################
#
#                 Cambridge Crystallographic Data Centre
#                                CCDC 
#
#######################################################################
#
# If this CIF has been generated from an entry in the Cambridge 
# Structural Database, then it will include bibliographic, chemical, 
# crystal, experimental, refinement or atomic coordinate data resulting 
# from the CCDC's data processing and validation procedures.
#
#######################################################################

data_NADMOW
_symmetry_cell_setting           monoclinic
_symmetry_space_group_name_H-M   'P 21/n'
_symmetry_Int_Tables_number      14
_space_group_name_Hall           '-P 2yn'
loop_
_symmetry_equiv_pos_site_id
_symmetry_equiv_pos_as_xyz
1 x,y,z
2 1/2-x,1/2+y,1/2-z
3 -x,-y,-z
4 1/2+x,1/2-y,1/2+z
_cell_length_a                   18.5850(10)
_cell_length_b                   18.3390(10)
_cell_length_c                   22.201(2)
_cell_angle_alpha                90
_cell_angle_beta                 113.3180(10)
_cell_angle_gamma                90
_cell_volume                     6948.74
loop_
_atom_site_label
_atom_site_type_symbol
_atom_site_fract_x
_atom_site_fract_y
_atom_site_fract_z
Ag1 Ag 0.60452(3) 0.91575(3) 0.13124(3)
Ag2 Ag 0.61161(5) 0.81051(4) 0.27062(4)
Ag3 Ag 0.46962(4) 0.80277(3) 0.11569(3)
Ag4 Ag 0.63582(4) 1.05678(3) -0.04209(3)
Ag5 Ag 0.76562(4) 0.74084(4) 0.40980(4)
Ag6 Ag 0.58850(4) 1.11897(3) 0.07858(3)
S1 S 0.67473(10) 1.00985(9) 0.07671(9)
C1 C 0.7747(4) 1.0172(3) 0.1146(4)
N1 N 0.8201(3) 1.0331(3) 0.1781(3)
C2 C 0.7893(5) 1.0529(5) 0.2274(4)
H1 H 0.7533 1.0942 0.2115
H2 H 0.8328 1.0665 0.2684
H3 H 0.7614 1.0111 0.2354
C3 C 0.8972(4) 1.0268(4) 0.1896(5)
H4 H 0.94 1.0357 0.2301
C4 C 0.9022(5) 1.0058(5) 0.1343(6)
H5 H 0.949 0.9969 0.1279
N2 N 0.8268(4) 0.9995(4) 0.0878(4)
H6 H 0.8142 0.986 0.0469
S2 S 0.70580(9) 0.85198(9) 0.22414(8)
C5 C 0.7249(3) 0.7790(3) 0.1834(3)
N3 N 0.7846(3) 0.7762(3) 0.1637(3)
C6 C 0.8375(5) 0.8364(4) 0.1668(4)
H7 H 0.8203 0.8599 0.1237
H8 H 0.8908 0.8175 0.1791
H9 H 0.837 0.872 0.1995
C7 C 0.7856(5) 0.7076(4) 0.1362(4)
H10 H 0.8212 0.6912 0.118
C8 C 0.7254(5) 0.6692(4) 0.1407(4)
H11 H 0.7109 0.6206 0.1263
N4 N 0.6892(3) 0.7139(3) 0.1701(3)
H12 H 0.6485 0.7016 0.1788
S3 S 0.62109(12) 0.71506(10) 0.35598(10)
C9 C 0.5850(5) 0.7618(4) 0.4053(4)
N5 N 0.5553(5) 0.7297(5) 0.4451(5)
C10 C 0.5438(11) 0.6530(7) 0.4502(9)
H13 H 0.4876 0.6426 0.4339
H14 H 0.5693 0.638 0.4962
H15 H 0.5668 0.6261 0.424
C11 C 0.5334(7) 0.7839(7) 0.4779(7)
H16 H 0.51 0.7773 0.5086
C12 C 0.5523(7) 0.8498(6) 0.4570(6)
H17 H 0.5443 0.8971 0.4705
N6 N 0.5836(4) 0.8335(4) 0.4143(4)
H18 H 0.6013 0.866 0.3944
S4 S 0.49204(9) 1.00953(8) 0.11042(8)
C13 C 0.4807(4) 1.0284(4) 0.1820(3)
N7 N 0.5401(4) 1.0412(3) 0.2409(3)
C14 C 0.6219(5) 1.0442(5) 0.2539(4)
H19 H 0.6377 0.9988 0.2394
H20 H 0.6521 1.0506 0.3011
H21 H 0.6319 1.0854 0.2302
C15 C 0.5083(8) 1.0528(7) 0.2869(6)
H22 H 0.5363 1.0609 0.3326
C16 C 0.4290(9) 1.0505(9) 0.2537(7)
H23 H 0.3909 1.0587 0.2715
N8 N 0.4144(5) 1.0337(5) 0.1888(4)
H24 H 0.3678 1.0277 0.1572
S5 S 0.46727(12) 0.85279(11) 0.22088(10)
C17 C 0.4265(6) 0.7832(7) 0.2491(5)
N9 N 0.3871(7) 0.7863(8) 0.2854(7)
C18 C 0.3693(11) 0.8524(12) 0.3072(9)
H25 H 0.4164 0.883 0.3242
H26 H 0.3507 0.8434 0.3421
H27 H 0.3284 0.8775 0.2706
C19 C 0.3698(8) 0.7171(9) 0.2999(8)
H28 H 0.3418 0.7059 0.3265
C20 C 0.3970(8) 0.6708(9) 0.2721(8)
H29 H 0.3934 0.6192 0.2731
N10 N 0.4321(6) 0.7104(6) 0.2411(5)
H30 H 0.4563 0.6913 0.2179
S6 S 0.32181(13) 0.80979(11) 0.02908(10)
C21 C 0.2669(5) 0.7947(5) 0.0747(5)
N11 N 0.2476(5) 0.7285(5) 0.0913(5)
C22 C 0.2704(7) 0.6591(5) 0.0723(6)
H31 H 0.2464 0.6543 0.0244
H32 H 0.2526 0.6191 0.0923
H33 H 0.3275 0.6572 0.0873
C23 C 0.2069(7) 0.7381(8) 0.1315(7)
H34 H 0.188 0.701 0.1513
C24 C 0.1995(8) 0.8108(8) 0.1365(9)
H35 H 0.1732 0.8348 0.1599
N12 N 0.2372(5) 0.8438(5) 0.1016(5)
H36 H 0.2409 0.8913 0.0977
S7 S 0.65810(9) 1.21370(8) 0.16043(8)
C25 C 0.5998(4) 1.2886(3) 0.1557(3)
N13 N 0.5392(4) 1.2904(3) 0.1745(3)
C26 C 0.5060(6) 1.2276(5) 0.1945(6)
H37 H 0.5411 1.2126 0.2388
H38 H 0.4548 1.2407 0.1943
H39 H 0.4997 1.1873 0.1639
C27 C 0.5141(6) 1.3621(5) 0.1709(4)
H40 H 0.4718 1.3793 0.1808
C28 C 0.5604(5) 1.4024(4) 0.1508(4)
H41 H 0.5578 1.4538 0.1449
N14 N 0.6114(4) 1.3569(3) 0.1405(3)
H42 H 0.6472 1.3702 0.126
S8 S 0.51976(9) 0.84136(8) 0.02786(7)
C29 C 0.5633(4) 0.7675(3) 0.0073(3)
N15 N 0.6208(4) 0.7690(3) -0.0137(3)
C30 C 0.6624(5) 0.8332(5) -0.0206(5)
H43 H 0.6404 0.8493 -0.0664
H44 H 0.718 0.8214 -0.0074
H45 H 0.657 0.8723 0.0075
C31 C 0.6380(5) 0.6980(4) -0.0267(4)
H46 H 0.677 0.6839 -0.042
C32 C 0.5897(5) 0.6541(4) -0.0135(4)
H47 H 0.5876 0.6025 -0.0175
N16 N 0.5431(4) 0.6968(3) 0.0069(3)
H48 H 0.5057 0.6805 0.0182
S9 S 0.74041(13) 0.93926(10) 0.40665(13)
O1 O 0.7844(4) 0.8711(3) 0.4256(3)
O2 O 0.7351(5) 0.9718(5) 0.4663(5)
O3 O 0.6595(4) 0.9242(4) 0.3595(3)
O4 O 0.7803(4) 0.9885(4) 0.3786(5)
S10 S 0.79190(13) 0.96045(13) -0.08407(14)
O5 O 0.7253(4) 1.0091(4) -0.0922(5)
O6 O 0.7699(5) 0.9078(6) -0.1361(5)
O7 O 0.8576(5) 1.0050(5) -0.0793(6)
O8 O 0.8071(6) 0.9218(5) -0.0223(5)
S11 S 0.50821(14) 0.61962(17) 0.13103(18)
O9 O 0.5399(6) 0.6893(5) 0.1681(5)
O10 O 0.5729(4) 0.5788(4) 0.1254(4)
O11 O 0.4666(5) 0.5775(5) 0.1625(4)
O12 O 0.4519(4) 0.6421(4) 0.0648(4)
Ag4B Ag 0.36418(4) 0.94322(3) 0.04209(3)
Ag5C Ag 0.26562(4) 0.75916(4) -0.09020(4)
Ag5A Ag 0.73438(4) 1.24084(4) 0.09020(4)
Ag6B Ag 0.41150(4) 0.88103(3) -0.07858(3)
S4B S 0.50796(9) 0.99047(8) -0.11042(8)
S6B S 0.67819(13) 1.19021(11) -0.02908(10)
S6C S 0.82181(13) 0.69021(11) 0.52908(10)
S7A S 0.84190(9) 0.71370(8) 0.33957(8)
S8B S 0.48024(9) 1.15864(8) -0.02786(7)
O13 O 0.4285(6) 0.5218(5) -0.0142(4)
O14 O 0.3483(6) 0.4778(5) 0.0940(6)
O15 O 0.0169(14) 1.2638(9) -0.1418(9)
O16 O 0.2611(10) 1.0440(12) 0.2699(10)
O17 O 0.3807(15) 1.0359(12) 0.3942(10)
O18 O 0.6045(5) 1.0939(8) 0.4743(4)
O19 O 0.0801(15) 0.9683(15) 0.1730(17)
O21 O 0.5043(12) 0.4680(13) 0.4588(11)
O22 O 0.113(2) 1.197(2) -0.0217(19)
O23 O 0.348(3) 0.446(3) 0.218(3)
O24 O 0.382(2) 1.301(2) 0.262(2)
O20? O 0.5145(9) 1.1114(7) 0.4256(7)
O25? O 0.6343(12) 1.0529(12) 0.5216(11)
O26? O 0.4544(18) 0.6769(12) 0.0968(15)
O27? O 0.535(2) 0.5684(18) 0.1407(16)
O28? O 0.4534(15) 0.6231(11) 0.1941(13)
O29? O 0.5690(18) 0.6740(15) 0.1968(15)
S12? S 0.5007(5) 0.6359(4) 0.1588(7)
loop_
_geom_bond_atom_site_label_1
_geom_bond_atom_site_label_2
_geom_bond_site_symmetry_1
_geom_bond_site_symmetry_2
Ag1 Ag3 1_555 1_555
Ag2 S2 1_555 1_555
Ag3 S5 1_555 1_555
Ag4 S1 1_555 1_555
Ag5 S3 1_555 1_555
Ag6 S1 1_555 1_555
S1 Ag1 1_555 1_555
C1 S1 1_555 1_555
N1 C1 1_555 1_555
C2 N1 1_555 1_555
H1 C2 1_555 1_555
H2 C2 1_555 1_555
H3 C2 1_555 1_555
C3 N1 1_555 1_555
H4 C3 1_555 1_555
C4 C3 1_555 1_555
H5 C4 1_555 1_555
N2 C1 1_555 1_555
H6 N2 1_555 1_555
S2 Ag1 1_555 1_555
C5 S2 1_555 1_555
N3 C5 1_555 1_555
C6 N3 1_555 1_555
H7 C6 1_555 1_555
H8 C6 1_555 1_555
H9 C6 1_555 1_555
C7 N3 1_555 1_555
H10 C7 1_555 1_555
C8 C7 1_555 1_555
H11 C8 1_555 1_555
N4 C5 1_555 1_555
H12 N4 1_555 1_555
S3 Ag2 1_555 1_555
C9 S3 1_555 1_555
N5 C9 1_555 1_555
C10 N5 1_555 1_555
H13 C10 1_555 1_555
H14 C10 1_555 1_555
H15 C10 1_555 1_555
C11 N5 1_555 1_555
H16 C11 1_555 1_555
C12 C11 1_555 1_555
H17 C12 1_555 1_555
N6 C9 1_555 1_555
H18 N6 1_555 1_555
S4 Ag1 1_555 1_555
C13 S4 1_555 1_555
N7 C13 1_555 1_555
C14 N7 1_555 1_555
H19 C14 1_555 1_555
H20 C14 1_555 1_555
H21 C14 1_555 1_555
C15 N7 1_555 1_555
H22 C15 1_555 1_555
C16 C15 1_555 1_555
H23 C16 1_555 1_555
N8 C13 1_555 1_555
H24 N8 1_555 1_555
S5 Ag2 1_555 1_555
C17 S5 1_555 1_555
N9 C17 1_555 1_555
C18 N9 1_555 1_555
H25 C18 1_555 1_555
H26 C18 1_555 1_555
H27 C18 1_555 1_555
C19 N9 1_555 1_555
H28 C19 1_555 1_555
C20 C19 1_555 1_555
H29 C20 1_555 1_555
N10 C17 1_555 1_555
H30 N10 1_555 1_555
S6 Ag3 1_555 1_555
C21 S6 1_555 1_555
N11 C21 1_555 1_555
C22 N11 1_555 1_555
H31 C22 1_555 1_555
H32 C22 1_555 1_555
H33 C22 1_555 1_555
C23 N11 1_555 1_555
H34 C23 1_555 1_555
C24 C23 1_555 1_555
H35 C24 1_555 1_555
N12 C21 1_555 1_555
H36 N12 1_555 1_555
S7 Ag6 1_555 1_555
C25 S7 1_555 1_555
N13 C25 1_555 1_555
C26 N13 1_555 1_555
H37 C26 1_555 1_555
H38 C26 1_555 1_555
H39 C26 1_555 1_555
C27 N13 1_555 1_555
H40 C27 1_555 1_555
C28 C27 1_555 1_555
H41 C28 1_555 1_555
N14 C25 1_555 1_555
H42 N14 1_555 1_555
S8 Ag1 1_555 1_555
C29 S8 1_555 1_555
N15 C29 1_555 1_555
C30 N15 1_555 1_555
H43 C30 1_555 1_555
H44 C30 1_555 1_555
H45 C30 1_555 1_555
C31 N15 1_555 1_555
H46 C31 1_555 1_555
C32 C31 1_555 1_555
H47 C32 1_555 1_555
N16 C29 1_555 1_555
H48 N16 1_555 1_555
S9 O1 1_555 1_555
O1 Ag5 1_555 1_555
O2 S9 1_555 1_555
O3 S9 1_555 1_555
O4 S9 1_555 1_555
S10 O5 1_555 1_555
O5 Ag4 1_555 1_555
O6 S10 1_555 1_555
O7 S10 1_555 1_555
O8 S10 1_555 1_555
S11 O9 1_555 1_555
O9 Ag3 1_555 1_555
O10 S11 1_555 1_555
O11 S11 1_555 1_555
O12 S11 1_555 1_555
Ag4B S4 1_555 1_555
Ag5C S6 1_555 1_555
Ag5A S7 1_555 1_555
Ag6B S8 1_555 1_555
S4B Ag4 1_555 1_555
S6B Ag4 1_555 1_555
S6C Ag5 1_555 1_555
S7A Ag5 1_555 1_555
S8B Ag6 1_555 1_555
Ag3 S8 1_555 1_555
Ag6 S4 1_555 1_555
C4 N2 1_555 1_555
C8 N4 1_555 1_555
C12 N6 1_555 1_555
C16 N8 1_555 1_555
C20 N10 1_555 1_555
S6 Ag4B 1_555 1_555
C24 N12 1_555 1_555
C28 N14 1_555 1_555
C32 N16 1_555 1_555
Ag5A S6B 1_555 1_555
Ag6B S4B 1_555 1_555

#END
