
#######################################################################
#
#                 Cambridge Crystallographic Data Centre
#                                CCDC 
#
#######################################################################
#
# If this CIF has been generated from an entry in the Cambridge 
# Structural Database, then it will include bibliographic, chemical, 
# crystal, experimental, refinement or atomic coordinate data resulting 
# from the CCDC's data processing and validation procedures.
#
#######################################################################

data_NADREP
_symmetry_cell_setting           monoclinic
_symmetry_space_group_name_H-M   'P 21/n'
_symmetry_Int_Tables_number      14
_space_group_name_Hall           '-P 2yn'
loop_
_symmetry_equiv_pos_site_id
_symmetry_equiv_pos_as_xyz
1 x,y,z
2 1/2-x,1/2+y,1/2-z
3 -x,-y,-z
4 1/2+x,1/2-y,1/2+z
_cell_length_a                   10.139(5)
_cell_length_b                   24.233(7)
_cell_length_c                   10.157(3)
_cell_angle_alpha                90
_cell_angle_beta                 113.73(2)
_cell_angle_gamma                90
_cell_volume                     2284.56
loop_
_atom_site_label
_atom_site_type_symbol
_atom_site_fract_x
_atom_site_fract_y
_atom_site_fract_z
Cu1 Cu 0.1149(1) 0.1761(1) 0.2732(1)
Cu2 Cu 0.2525(1) 0.0056(1) -0.1884(1)
O1 O 0.0236(4) 0.2096(2) 0.0822(4)
O2 O 0.2511(4) 0.1313(1) 0.2260(3)
O3 O 0.2292(4) -0.0422(2) 0.6496(4)
O4 O 0.3166(4) 0.0699(1) 0.7388(4)
C1 C 0.0687(6) 0.1997(2) -0.0140(5)
C2 C 0.1814(6) 0.1665(2) -0.0100(5)
C3 C 0.2684(5) 0.1343(2) 0.1093(5)
C4 C 0.2533(6) -0.0237(2) 0.5447(5)
C5 C 0.3007(6) 0.0273(2) 0.5230(5)
C6 C 0.3311(5) 0.0714(2) 0.6207(5)
C7 C 0.0510(6) -0.0570(3) -0.1239(7)
C8 C 0.3884(5) 0.1010(2) 0.0998(5)
C9 C 0.3685(5) 0.0392(2) 0.1160(5)
C10 C 0.2331(5) 0.0165(2) -0.0006(5)
C11 C 0.2200(8) -0.0674(3) 0.4260(7)
C12 C 0.3816(6) 0.1249(2) 0.5846(5)
C13 C 0.2834(5) 0.1729(2) 0.5836(5)
C14 C 0.1312(6) 0.1663(2) 0.4761(5)
C15 C 0.0335(6) 0.2077(2) 0.4107(5)
C16 C -0.1253(6) 0.1968(3) 0.3489(6)
C17 C 0.0732(7) 0.2682(2) 0.4342(6)
C18 C 0.2046(5) -0.0380(2) -0.0434(5)
C19 C 0.3113(7) -0.0840(2) 0.0200(6)
C20 C -0.0157(8) 0.2299(3) -0.1536(7)
F1 F 0.2477(7) -0.0521(2) 0.3167(5)
F2 F 0.2915(6) -0.1133(2) 0.4743(5)
F3 F 0.0836(6) -0.0813(2) 0.3724(5)
F4 F 0.0204(5) 0.2194(2) -0.2605(4)
F5 F -0.1526(5) 0.2216(3) -0.2004(5)
F6 F -0.0045(7) 0.2837(2) -0.1355(6)
Cu2_2 Cu 0.2525(1) 0.0056(1) 0.8116(1)
C10_2 C 0.2331(5) 0.0165(2) 0.9994(5)
C18_2 C 0.2046(5) -0.0380(2) 0.9566(5)
loop_
_geom_bond_atom_site_label_1
_geom_bond_atom_site_label_2
_geom_bond_site_symmetry_1
_geom_bond_site_symmetry_2
Cu1 O1 1_555 1_555
Cu2 C10 1_555 1_555
O1 C1 1_555 1_555
O2 Cu1 1_555 1_555
O3 C4 1_555 1_555
O4 C6 1_555 1_555
C1 C2 1_555 1_555
C2 C3 1_555 1_555
C3 O2 1_555 1_555
C4 C5 1_555 1_555
C5 C6 1_555 1_555
C6 C12 1_555 1_555
C7 C18 1_555 1_555
C8 C3 1_555 1_555
C9 C8 1_555 1_555
C10 C9 1_555 1_555
C11 C4 1_555 1_555
C12 C13 1_555 1_555
C13 C14 1_555 1_555
C14 Cu1 1_555 1_555
C15 Cu1 1_555 1_555
C16 C15 1_555 1_555
C17 C15 1_555 1_555
C18 Cu2 1_555 1_555
C19 C18 1_555 1_555
C20 C1 1_555 1_555
F1 C11 1_555 1_555
F2 C11 1_555 1_555
F3 C11 1_555 1_555
F4 C20 1_555 1_555
F5 C20 1_555 1_555
F6 C20 1_555 1_555
Cu2_2 O3 1_555 1_555
C10_2 Cu2_2 1_555 1_555
C18_2 Cu2_2 1_555 1_555
O4 Cu2_2 1_555 1_555
C10 C18 1_555 1_555
C14 C15 1_555 1_555
C10_2 C18_2 1_555 1_555

#END
