
#######################################################################
#
#                 Cambridge Crystallographic Data Centre
#                                CCDC 
#
#######################################################################
#
# If this CIF has been generated from an entry in the Cambridge 
# Structural Database, then it will include bibliographic, chemical, 
# crystal, experimental, refinement or atomic coordinate data resulting 
# from the CCDC's data processing and validation procedures.
#
#######################################################################

data_NADSIV
_symmetry_cell_setting           triclinic
_symmetry_space_group_name_H-M   'P 1'
_symmetry_Int_Tables_number      1
_space_group_name_Hall           'P 1'
loop_
_symmetry_equiv_pos_site_id
_symmetry_equiv_pos_as_xyz
1 x,y,z
_cell_length_a                   7.8448(2)
_cell_length_b                   9.0849(3)
_cell_length_c                   14.2672(4)
_cell_angle_alpha                97.892(1)
_cell_angle_beta                 100.267
_cell_angle_gamma                97.698(1)
_cell_volume                     977.875
loop_
_atom_site_label
_atom_site_type_symbol
_atom_site_fract_x
_atom_site_fract_y
_atom_site_fract_z
Cu1 Cu 0.35922(5) 0.70109(4) 0.77392(3)
Cu2 Cu 0.52928(4) 0.46286(4) 0.67450(3)
O1 O 0.1152(5) 0.4726(5) 0.7895(3)
O2 O 0.6791(4) 0.8845(4) 0.7673(2)
C1 C 0.4821(5) 0.9007(4) 0.5481(2)
H1 H 0.5932 0.9531 0.5927
C2 C 0.4840(5) 0.7307(4) 0.5241(2)
H2 H 0.5958 0.7023 0.5568
C3 C 0.3249(6) 0.6539(5) 0.5564(3)
H3 H 0.2618 0.5658 0.5068
C4 C 0.2128(5) 0.7810(5) 0.5621(3)
H4 H 0.1444 0.7799 0.4957
C5 C 0.0857(5) 0.7830(4) 0.6310(2)
H5 H 0.0139 0.8641 0.6194
C6 C -0.0375(5) 0.6321(4) 0.6112(3)
H6 H -0.1101 0.6174 0.5453
H7 H 0.0326 0.5494 0.6145
O3 O 0.4647(4) 0.9509(3) 0.45703(18)
O4 O 0.4614(4) 0.7008(3) 0.42102(17)
O5 O 0.3759(4) 0.6084(3) 0.6467(2)
O6 O 0.3368(3) 0.9197(3) 0.58930(17)
N1 N 0.1789(4) 0.8139(4) 0.7325(2)
O7 O -0.1492(4) 0.6269(3) 0.68007(18)
H8 H -0.1053 0.5843 0.7251
O8 O 0.3760(5) 0.7783(4) 0.9070(2)
O9 O -0.0511(4) 1.0900(4) 0.9091(3)
O10 O 0.2078(4) 1.1653(3) 1.00992(18)
C7 C 0.3030(6) 0.8814(5) 0.9455(3)
C8 C 0.1784(5) 0.9486(4) 0.8920(3)
C9 C 0.0997(6) 1.0709(5) 0.9367(3)
C10 C 0.1359(7) 1.2878(6) 1.0585(3)
H9 H 0.0482 1.2479 1.0946
H10 H 0.0787 1.3449 1.0110
C11 C 0.2901(7) 1.3871(6) 1.1266(3)
H11 H 0.2498 1.4723 1.1613
H12 H 0.3759 1.4248 1.0898
H13 H 0.3450 1.3288 1.1731
C12 C 0.1187(5) 0.9072(5) 0.7908(3)
H14 H 0.0243 0.9526 0.7626
C13 C 0.3609(7) 0.9147(6) 1.0542(3)
H15 H 0.4482 0.8518 1.0746
H16 H 0.2592 0.8926 1.0841
H17 H 0.4127 1.0211 1.0744
C14 C 0.5184(6) 0.8405(5) 0.3926(2)
C15 C 0.4200(7) 0.8387(6) 0.2911(3)
H18 H 0.2934 0.8210 0.2895
H19 H 0.4500 0.7581 0.2470
H20 H 0.4527 0.9358 0.2711
C16 C 0.7138(6) 0.8670(6) 0.4011(4)
H21 H 0.7712 0.8664 0.4679
H22 H 0.7504 0.9648 0.3830
H23 H 0.7473 0.7872 0.3580
C17 C 0.8763(5) 0.6178(4) 0.9570(3)
H24 H 0.9393 0.6971 0.9276
C18 C 0.6915(5) 0.6475(4) 0.9639(2)
H25 H 0.6723 0.7501 0.9510
C19 C 0.5684(5) 0.5215(5) 0.8913(3)
H26 H 0.4578 0.4928 0.9149
C20 C 0.6773(5) 0.3954(5) 0.8930(3)
H27 H 0.6732 0.3537 0.9540
C21 C 0.6398(5) 0.2648(4) 0.8103(2)
H28 H 0.7286 0.1974 0.8250
C22 C 0.4588(5) 0.1716(5) 0.7997(3)
H29 H 0.4544 0.0723 0.7601
H30 H 0.4398 0.1542 0.8644
O11 O 0.9631(4) 0.6166(4) 1.05189(19)
O12 O 0.6784(4) 0.6267(3) 1.05975(17)
O13 O 0.5305(4) 0.5697(4) 0.8015(2)
O14 O 0.8560(3) 0.4728(3) 0.89943(18)
N2 N 0.6583(5) 0.3136(4) 0.7178(2)
O15 O 0.3204(4) 0.2433(3) 0.7558(2)
H31 H 0.2522 0.1813 0.7114
O16 O 0.5426(4) 0.3955(3) 0.54249(19)
O17 O 1.0256(4) 0.1359(3) 0.6018(2)
O18 O 0.9771(4) 0.2333(3) 0.46574(19)
C23 C 0.6647(5) 0.3314(4) 0.5131(3)
C24 C 0.7851(5) 0.2689(4) 0.5750(3)
C25 C 0.9365(5) 0.2055(4) 0.5505(3)
C26 C 1.1301(6) 0.1744(6) 0.4418(3)
H32 H 1.1148 0.0641 0.4401
H33 H 1.2367 0.2217 0.4904
C27 C 1.1458(8) 0.2118(7) 0.3440(4)
H34 H 1.2470 0.1731 0.3243
H35 H 1.1619 0.3213 0.3470
H36 H 1.0387 0.1653 0.2970
C28 C 0.7602(5) 0.2492(5) 0.6689(3)
H37 H 0.8252 0.1815 0.6991
C29 C 0.6634(6) 0.3321(5) 0.4077(3)
H38 H 0.5682 0.3829 0.3804
H39 H 0.6453 0.2282 0.3737
H40 H 0.7760 0.3857 0.4002
C30 C 0.8502(6) 0.6598(5) 1.1170(3)
C31 C 0.9008(6) 0.8282(5) 1.1551(3)
H41 H 0.8899 0.8840 1.1007
H42 H 1.0224 0.8496 1.1912
H43 H 0.8226 0.8593 1.1978
C32 C 0.8613(8) 0.5638(6) 1.1948(3)
H44 H 0.8266 0.4575 1.1654
H45 H 0.7825 0.5911 1.2381
H46 H 0.9822 0.5803 1.2316
H47 H 0.158(6) 0.416(5) 0.786(3)
H48 H 0.716(8) 0.764(7) 0.743(4)
H49 H 0.030(13) 0.437(11) 0.820(6)
H50 H 0.777(10) 0.960(8) 0.842(5)
O7_2 O 0.8508(4) 0.6269(3) 0.68007(18)
Cu2_2 Cu -0.47072(4) 0.46286(4) 0.67450(3)
H8_2 H 0.8947 0.5843 0.7251
loop_
_geom_bond_atom_site_label_1
_geom_bond_atom_site_label_2
_geom_bond_site_symmetry_1
_geom_bond_site_symmetry_2
Cu1 O1 1_555 1_555
Cu2 O5 1_555 1_555
O1 H47 1_555 1_555
O2 Cu1 1_555 1_555
C1 H1 1_555 1_555
C2 C1 1_555 1_555
H2 C2 1_555 1_555
C3 C2 1_555 1_555
H3 C3 1_555 1_555
C4 C3 1_555 1_555
H4 C4 1_555 1_555
C5 C4 1_555 1_555
H5 C5 1_555 1_555
C6 C5 1_555 1_555
H6 C6 1_555 1_555
H7 C6 1_555 1_555
O3 C1 1_555 1_555
O4 C2 1_555 1_555
O5 Cu1 1_555 1_555
O6 C1 1_555 1_555
N1 Cu1 1_555 1_555
O7 C6 1_555 1_555
H8 O7 1_555 1_555
O8 Cu1 1_555 1_555
O9 C9 1_555 1_555
O10 C9 1_555 1_555
C7 O8 1_555 1_555
C8 C7 1_555 1_555
C9 C8 1_555 1_555
C10 O10 1_555 1_555
H9 C10 1_555 1_555
H10 C10 1_555 1_555
C11 C10 1_555 1_555
H11 C11 1_555 1_555
H12 C11 1_555 1_555
H13 C11 1_555 1_555
C12 N1 1_555 1_555
H14 C12 1_555 1_555
C13 C7 1_555 1_555
H15 C13 1_555 1_555
H16 C13 1_555 1_555
H17 C13 1_555 1_555
C14 O3 1_555 1_555
C15 C14 1_555 1_555
H18 C15 1_555 1_555
H19 C15 1_555 1_555
H20 C15 1_555 1_555
C16 C14 1_555 1_555
H21 C16 1_555 1_555
H22 C16 1_555 1_555
H23 C16 1_555 1_555
C17 H24 1_555 1_555
C18 C17 1_555 1_555
H25 C18 1_555 1_555
C19 C18 1_555 1_555
H26 C19 1_555 1_555
C20 C19 1_555 1_555
H27 C20 1_555 1_555
C21 C20 1_555 1_555
H28 C21 1_555 1_555
C22 C21 1_555 1_555
H29 C22 1_555 1_555
H30 C22 1_555 1_555
O11 C17 1_555 1_555
O12 C18 1_555 1_555
O13 Cu1 1_555 1_555
O14 C17 1_555 1_555
N2 Cu2 1_555 1_555
O15 Cu2 1_555 1_555
H31 O15 1_555 1_555
O16 Cu2 1_555 1_555
O17 C25 1_555 1_555
O18 C25 1_555 1_555
C23 O16 1_555 1_555
C24 C23 1_555 1_555
C25 C24 1_555 1_555
C26 O18 1_555 1_555
H32 C26 1_555 1_555
H33 C26 1_555 1_555
C27 C26 1_555 1_555
H34 C27 1_555 1_555
H35 C27 1_555 1_555
H36 C27 1_555 1_555
C28 N2 1_555 1_555
H37 C28 1_555 1_555
C29 C23 1_555 1_555
H38 C29 1_555 1_555
H39 C29 1_555 1_555
H40 C29 1_555 1_555
C30 O11 1_555 1_555
C31 C30 1_555 1_555
H41 C31 1_555 1_555
H42 C31 1_555 1_555
H43 C31 1_555 1_555
C32 C30 1_555 1_555
H44 C32 1_555 1_555
H45 C32 1_555 1_555
H46 C32 1_555 1_555
H48 O2 1_555 1_555
H49 O1 1_555 1_555
H50 O2 1_555 1_555
O7_2 Cu2 1_555 1_555
Cu2_2 O7 1_555 1_555
H8_2 O7_2 1_555 1_555
Cu2 O13 1_555 1_555
C3 O5 1_555 1_555
C4 O6 1_555 1_555
C5 N1 1_555 1_555
O4 C14 1_555 1_555
C8 C12 1_555 1_555
C19 O13 1_555 1_555
C20 O14 1_555 1_555
C21 N2 1_555 1_555
C22 O15 1_555 1_555
O12 C30 1_555 1_555
C24 C28 1_555 1_555

#END
