
#######################################################################
#
#                 Cambridge Crystallographic Data Centre
#                                CCDC 
#
#######################################################################
#
# If this CIF has been generated from an entry in the Cambridge 
# Structural Database, then it will include bibliographic, chemical, 
# crystal, experimental, refinement or atomic coordinate data resulting 
# from the CCDC's data processing and validation procedures.
#
#######################################################################

data_NADSAN
_symmetry_cell_setting           monoclinic
_symmetry_space_group_name_H-M   'P 21'
_symmetry_Int_Tables_number      4
_space_group_name_Hall           'P 2yb'
loop_
_symmetry_equiv_pos_site_id
_symmetry_equiv_pos_as_xyz
1 x,y,z
2 -x,1/2+y,-z
_cell_length_a                   10.4383(1)
_cell_length_b                   25.9592(3)
_cell_length_c                   15.8939(2)
_cell_angle_alpha                90
_cell_angle_beta                 102.435(1)
_cell_angle_gamma                90
_cell_volume                     4205.74
loop_
_atom_site_label
_atom_site_type_symbol
_atom_site_fract_x
_atom_site_fract_y
_atom_site_fract_z
Cu1 Cu -0.47912(3) -0.471750(12) -0.74551(2)
O1 O -0.4880(2) -0.50541(8) -0.63928(13)
O2 O -0.5360(2) -0.43912(8) -0.85593(12)
O3 O -0.5585(2) -0.54131(8) -0.94851(14)
O4 O -0.4864(2) -0.56762(8) -0.54282(14)
O5 O -0.3959(3) -0.65792(9) -0.56868(15)
O6 O -0.3704(3) -0.67464(10) -0.70182(16)
O7 O -0.6172(3) -0.45476(9) -1.08767(13)
O8 O -0.7002(3) -0.53580(10) -1.08255(14)
O9 O -0.1219(2) -0.50710(9) -0.78602(14)
H1 H -0.1260 -0.4954 -0.7374
N1 N -0.3955(2) -0.52919(9) -0.78516(15)
C1 C -0.4627(3) -0.55177(11) -0.61835(19)
C2 C -0.4122(3) -0.58851(11) -0.66880(19)
C3 C -0.3809(3) -0.57365(11) -0.74730(19)
H2 H -0.3441 -0.5999 -0.7764
C4 C -0.3450(3) -0.52377(11) -0.86405(18)
H3 H -0.3139 -0.5584 -0.8786
C5 C -0.4502(3) -0.50605(11) -0.93963(19)
H4 H -0.4140 -0.5084 -0.9929
C6 C -0.5116(3) -0.45221(11) -0.93735(17)
H5 H -0.4568 -0.4253 -0.9577
C7 C -0.6406(3) -0.46022(12) -1.00282(18)
H6 H -0.7128 -0.4375 -0.9922
C8 C -0.6705(3) -0.51745(12) -0.99627(19)
H7 H -0.7468 -0.5226 -0.9684
C9 C -0.6771(4) -0.49626(15) -1.1405(2)
C10 C -0.8065(6) -0.4808(2) -1.1956(3)
H8 H -0.8645 -0.4686 -1.1589
H9 H -0.8466 -0.5105 -1.2293
H10 H -0.7930 -0.4531 -1.2347
C11 C -0.5784(6) -0.51558(19) -1.1917(3)
H11 H -0.4959 -0.5246 -1.1519
H12 H -0.5621 -0.4885 -1.2310
H13 H -0.6138 -0.5461 -1.2250
C12 C -0.2278(3) -0.48737(12) -0.8491(2)
H14 H -0.1989 -0.4823 -0.9039
H15 H -0.2543 -0.4534 -0.8300
C13 C -0.5529(4) -0.53124(14) -0.4981(2)
H16 H -0.6416 -0.5236 -0.5326
H17 H -0.5027 -0.4987 -0.4875
C14 C -0.5618(4) -0.55623(16) -0.4140(2)
H18 H -0.6060 -0.5328 -0.3811
H19 H -0.4733 -0.5638 -0.3808
H20 H -0.6119 -0.5883 -0.4255
C15 C -0.3918(3) -0.64384(12) -0.6496(2)
C16 C -0.3941(4) -0.71347(13) -0.5538(2)
H21 H -0.3517 -0.7209 -0.4930
H22 H -0.3428 -0.7307 -0.5913
C17 C -0.5310(6) -0.73345(19) -0.5729(4)
H23 H -0.5298 -0.7708 -0.5636
H24 H -0.5725 -0.7259 -0.6330
H25 H -0.5808 -0.7168 -0.5348
Cu2 Cu -0.57855(3) -0.369715(12) -0.82185(2)
O10 O -0.6403(2) -0.34635(7) -0.93882(12)
O11 O -0.5221(2) -0.40353(7) -0.71280(12)
O12 O -0.66985(19) -0.31610(8) -0.63601(13)
O13 O -0.7352(2) -0.29629(8) -1.04715(13)
O14 O -0.7687(2) -0.20254(8) -1.02454(13)
O15 O -0.6730(3) -0.16568(9) -0.90027(14)
O16 O -0.5822(2) -0.40872(9) -0.49880(13)
O17 O -0.7315(3) -0.34494(9) -0.51228(14)
O18 O -0.28036(19) -0.26384(8) -0.73176(13)
H26 H -0.1992 -0.2618 -0.7118
N2 N -0.5563(2) -0.30004(9) -0.77870(14)
C18 C -0.6778(3) -0.30208(11) -0.96487(18)
C19 C -0.6640(3) -0.25711(10) -0.91225(17)
C20 C -0.5990(3) -0.25999(10) -0.82421(17)
H27 H -0.5849 -0.2280 -0.7947
C21 C -0.4833(3) -0.29096(11) -0.68967(17)
H28 H -0.4974 -0.2543 -0.6746
C22 C -0.5313(3) -0.32513(11) -0.62563(17)
H29 H -0.4874 -0.3135 -0.5665
C23 C -0.5140(3) -0.38391(10) -0.62971(17)
H30 H -0.4285 -0.3942 -0.5918
C24 C -0.6278(3) -0.40275(11) -0.59011(18)
H31 H -0.6697 -0.4348 -0.6184
C25 C -0.7243(3) -0.35713(11) -0.59924(18)
H32 H -0.8123 -0.3668 -0.6346
C26 C -0.6801(4) -0.38742(13) -0.4592(2)
C27 C -0.7870(4) -0.42660(15) -0.4562(3)
H33 H -0.8269 -0.4378 -0.5149
H34 H -0.8542 -0.4109 -0.4299
H35 H -0.7489 -0.4564 -0.4219
C28 C -0.6133(5) -0.36787(19) -0.3711(2)
H36 H -0.5460 -0.3426 -0.3770
H37 H -0.5722 -0.3968 -0.3357
H38 H -0.6784 -0.3516 -0.3436
C29 C -0.3363(3) -0.29911(12) -0.68165(19)
H39 H -0.2913 -0.2955 -0.6204
H40 H -0.3213 -0.3346 -0.7000
C30 C -0.7420(4) -0.34093(14) -1.1025(2)
H41 H -0.7928 -0.3689 -1.0827
H42 H -0.6529 -0.3539 -1.1029
C31 C -0.8091(5) -0.32283(18) -1.1904(2)
H43 H -0.8168 -0.3516 -1.2312
H44 H -0.7577 -0.2951 -1.2089
H45 H -0.8968 -0.3100 -1.1888
C32 C -0.7019(3) -0.20555(11) -0.94305(18)
C33 C -0.7916(4) -0.15149(13) -1.0608(2)
H46 H -0.7072 -0.1336 -1.0589
H47 H -0.8438 -0.1309 -1.0279
C34 C -0.8653(4) -0.15788(15) -1.1525(2)
H48 H -0.8835 -0.1239 -1.1793
H49 H -0.9482 -0.1758 -1.1534
H50 H -0.8123 -0.1781 -1.1845
Cu3 Cu 0.00229(3) -0.172050(12) -0.81030(2)
O19 O -0.0509(2) -0.14562(8) -0.92525(13)
O20 O 0.0052(2) -0.19970(7) -0.69866(12)
O21 O 0.0064(2) -0.08920(8) -0.63191(14)
O22 O -0.0887(2) -0.08991(8) -1.03354(13)
O23 O 0.1731(3) 0.01254(10) -0.8933(2)
O24 O -0.0030(3) 0.00816(10) -1.00114(17)
O25 O -0.0098(2) -0.16365(9) -0.48149(13)
O26 O -0.1024(3) -0.08485(9) -0.51801(14)
O27 O 0.39300(19) -0.13792(9) -0.73077(14)
H51 H 0.3630 -0.1484 -0.7812
N3 N 0.1129(2) -0.11436(9) -0.77263(15)
C35 C -0.0316(3) -0.10137(12) -0.95276(19)
C36 C 0.0521(3) -0.06347(12) -0.9044(2)
C37 C 0.1208(3) -0.07371(11) -0.81908(19)
H52 H 0.1799 -0.0477 -0.7925
C38 C 0.1947(3) -0.11433(11) -0.68427(17)
H53 H 0.2340 -0.0792 -0.6728
C39 C 0.1142(3) -0.12468(11) -0.61783(18)
H54 H 0.1704 -0.1177 -0.5596
C40 C 0.3068(3) -0.15260(12) -0.67687(19)
H55 H 0.3561 -0.1542 -0.6163
H56 H 0.2709 -0.1873 -0.6936
C41 C 0.0518(3) -0.17863(11) -0.61593(17)
H57 H 0.1151 -0.2028 -0.5794
C42 C -0.0606(3) -0.16573(12) -0.57211(17)
H58 H -0.1371 -0.1896 -0.5887
C43 C -0.0953(3) -0.10937(12) -0.59567(19)
H59 H -0.1815 -0.1071 -0.6378
C44 C -0.0616(3) -0.11924(14) -0.4475(2)
C45 C -0.1797(5) -0.1340(2) -0.4120(4)
H60 H -0.2469 -0.1492 -0.4580
H61 H -0.2154 -0.1032 -0.3895
H62 H -0.1536 -0.1591 -0.3654
C46 C 0.0466(5) -0.09491(19) -0.3814(3)
H63 H 0.1207 -0.0867 -0.4079
H64 H 0.0754 -0.1190 -0.3335
H65 H 0.0142 -0.0632 -0.3597
C47 C -0.1809(4) -0.12842(13) -1.0799(2)
H66 H -0.2551 -0.1333 -1.0510
H67 H -0.1361 -0.1619 -1.0812
C48 C -0.2299(4) -0.10851(16) -1.1702(2)
H68 H -0.2920 -0.1333 -1.2031
H69 H -0.1556 -0.1040 -1.1982
H70 H -0.2739 -0.0753 -1.1681
C49 C 0.0669(4) -0.01273(13) -0.9387(2)
C50 C 0.1892(5) 0.06637(15) -0.9134(3)
H71 H 0.1569 0.0722 -0.9759
H72 H 0.2834 0.0756 -0.8983
C51 C 0.1164(8) 0.0987(3) -0.8652(5)
H73 H 0.1293 0.1350 -0.8782
H74 H 0.1481 0.0927 -0.8034
H75 H 0.0229 0.0903 -0.8817
Cu4 Cu -0.04315(3) -0.271340(12) -0.72425(2)
O28 O -0.0177(2) -0.29048(8) -0.60423(12)
O29 O -0.05890(19) -0.24160(7) -0.83694(11)
O30 O -0.25705(19) -0.32803(9) -0.90315(14)
O31 O -0.0475(3) -0.33505(9) -0.49105(14)
O32 O -0.1335(3) -0.42594(9) -0.50982(14)
O33 O -0.1557(3) -0.46457(10) -0.63684(16)
O34 O -0.2524(2) -0.24850(10) -1.05441(13)
O35 O -0.4097(2) -0.29989(10) -1.02374(16)
O36 O 0.19588(19) -0.38279(8) -0.80655(13)
H76 H 0.2658 -0.3839 -0.8246
N4 N -0.0480(2) -0.34204(9) -0.76049(15)
C52 C -0.0462(3) -0.33239(11) -0.57408(18)
C53 C -0.0774(3) -0.37863(11) -0.62339(18)
C54 C -0.0674(3) -0.38018(11) -0.71140(19)
H77 H -0.0761 -0.4132 -0.7376
C55 C -0.0350(3) -0.35494(10) -0.84796(18)
H78 H -0.0605 -0.3919 -0.8589
C56 C -0.1254(3) -0.32239(11) -0.91552(17)
H79 H -0.1228 -0.3369 -0.9734
C57 C -0.1004(3) -0.26452(11) -0.91858(16)
H80 H -0.0360 -0.2572 -0.9554
C58 C -0.2370(3) -0.24518(12) -0.96264(17)
H81 H -0.2560 -0.2099 -0.9431
C59 C -0.3323(3) -0.28590(13) -0.94244(19)
H82 H -0.3879 -0.2716 -0.9041
C60 C -0.3843(3) -0.26481(15) -1.0862(2)
C61 C -0.4777(3) -0.21974(16) -1.0958(2)
H83 H -0.4714 -0.2031 -1.0397
H84 H -0.5676 -0.2320 -1.1174
H85 H -0.4547 -0.1949 -1.1365
C62 C -0.3907(5) -0.2923(2) -1.1705(3)
H86 H -0.3289 -0.3213 -1.1616
H87 H -0.3674 -0.2684 -1.2124
H88 H -0.4798 -0.3053 -1.1923
C63 C 0.1063(3) -0.34874(11) -0.85888(18)
H89 H 0.1088 -0.3548 -0.9200
H90 H 0.1349 -0.3128 -0.8446
C64 C -0.0171(6) -0.28883(16) -0.4395(3)
H91 H -0.0441 -0.2579 -0.4754
H92 H 0.0784 -0.2867 -0.4152
C65 C -0.0887(6) -0.2916(3) -0.3705(3)
H93 H -0.0695 -0.2609 -0.3340
H94 H -0.0618 -0.3225 -0.3357
H95 H -0.1831 -0.2932 -0.3953
C66 C -0.1238(3) -0.42633(12) -0.5920(2)
C67 C -0.1794(5) -0.47304(16) -0.4764(2)
H96 H -0.1140 -0.5010 -0.4737
H97 H -0.2635 -0.4844 -0.5133
C68 C -0.1970(8) -0.4594(2) -0.3878(3)
H98 H -0.2281 -0.4897 -0.3613
H99 H -0.2616 -0.4316 -0.3918
H100 H -0.1130 -0.4480 -0.3524
O36_2 O -0.80412(19) -0.38279(8) -0.80655(13)
Cu2_2 Cu 0.42145(3) -0.369715(12) -0.82185(2)
H76_2 H -0.7342 -0.3839 -0.8246
O37 O -0.8778(3) -0.48234(10) -0.8258(2)
H103 H -0.915(5) -0.4848(18) -0.876(3)
H104 H -0.936(6) -0.481(2) -0.799(4)
O38 O -0.3465(3) -0.16292(10) -0.7223(2)
H101 H -0.408(3) -0.1575(12) -0.7169(19)
H102 H -0.333(3) -0.1470(11) -0.7953(19)
O39 O -0.3991(4) -0.13777(14) -0.9008(3)
H105 H -0.521(8) -0.140(3) -0.933(5)
loop_
_geom_bond_atom_site_label_1
_geom_bond_atom_site_label_2
_geom_bond_site_symmetry_1
_geom_bond_site_symmetry_2
Cu1 O1 1_555 1_555
O1 C1 1_555 1_555
O2 Cu1 1_555 1_555
O3 C5 1_555 1_555
O4 C1 1_555 1_555
O5 C15 1_555 1_555
O6 C15 1_555 1_555
O7 C7 1_555 1_555
O8 C8 1_555 1_555
O9 H1 1_555 1_555
N1 Cu1 1_555 1_555
C1 C2 1_555 1_555
C2 C3 1_555 1_555
C3 N1 1_555 1_555
H2 C3 1_555 1_555
C4 N1 1_555 1_555
H3 C4 1_555 1_555
C5 C4 1_555 1_555
H4 C5 1_555 1_555
C6 O2 1_555 1_555
H5 C6 1_555 1_555
C7 C6 1_555 1_555
H6 C7 1_555 1_555
C8 O3 1_555 1_555
H7 C8 1_555 1_555
C9 O7 1_555 1_555
C10 C9 1_555 1_555
H8 C10 1_555 1_555
H9 C10 1_555 1_555
H10 C10 1_555 1_555
C11 C9 1_555 1_555
H11 C11 1_555 1_555
H12 C11 1_555 1_555
H13 C11 1_555 1_555
C12 O9 1_555 1_555
H14 C12 1_555 1_555
H15 C12 1_555 1_555
C13 O4 1_555 1_555
H16 C13 1_555 1_555
H17 C13 1_555 1_555
C14 C13 1_555 1_555
H18 C14 1_555 1_555
H19 C14 1_555 1_555
H20 C14 1_555 1_555
C15 C2 1_555 1_555
C16 O5 1_555 1_555
H21 C16 1_555 1_555
H22 C16 1_555 1_555
C17 C16 1_555 1_555
H23 C17 1_555 1_555
H24 C17 1_555 1_555
H25 C17 1_555 1_555
Cu2 O2 1_555 1_555
O10 Cu2 1_555 1_555
O11 Cu1 1_555 1_555
O12 C22 1_555 1_555
O13 C18 1_555 1_555
O14 C32 1_555 1_555
O15 C32 1_555 1_555
O16 C24 1_555 1_555
O17 C25 1_555 1_555
O18 H26 1_555 1_555
N2 Cu2 1_555 1_555
C18 O10 1_555 1_555
C19 C18 1_555 1_555
C20 N2 1_555 1_555
H27 C20 1_555 1_555
C21 N2 1_555 1_555
H28 C21 1_555 1_555
C22 C21 1_555 1_555
H29 C22 1_555 1_555
C23 O11 1_555 1_555
H30 C23 1_555 1_555
C24 C23 1_555 1_555
H31 C24 1_555 1_555
C25 O12 1_555 1_555
H32 C25 1_555 1_555
C26 O16 1_555 1_555
C27 C26 1_555 1_555
H33 C27 1_555 1_555
H34 C27 1_555 1_555
H35 C27 1_555 1_555
C28 C26 1_555 1_555
H36 C28 1_555 1_555
H37 C28 1_555 1_555
H38 C28 1_555 1_555
C29 O18 1_555 1_555
H39 C29 1_555 1_555
H40 C29 1_555 1_555
C30 O13 1_555 1_555
H41 C30 1_555 1_555
H42 C30 1_555 1_555
C31 C30 1_555 1_555
H43 C31 1_555 1_555
H44 C31 1_555 1_555
H45 C31 1_555 1_555
C32 C19 1_555 1_555
C33 O14 1_555 1_555
H46 C33 1_555 1_555
H47 C33 1_555 1_555
C34 C33 1_555 1_555
H48 C34 1_555 1_555
H49 C34 1_555 1_555
H50 C34 1_555 1_555
Cu3 O19 1_555 1_555
O19 C35 1_555 1_555
O20 Cu3 1_555 1_555
O21 C39 1_555 1_555
O22 C35 1_555 1_555
O23 C49 1_555 1_555
O24 C49 1_555 1_555
O25 C42 1_555 1_555
O26 C43 1_555 1_555
O27 H51 1_555 1_555
N3 Cu3 1_555 1_555
C35 C36 1_555 1_555
C36 C37 1_555 1_555
C37 N3 1_555 1_555
H52 C37 1_555 1_555
C38 N3 1_555 1_555
H53 C38 1_555 1_555
C39 C38 1_555 1_555
H54 C39 1_555 1_555
C40 O27 1_555 1_555
H55 C40 1_555 1_555
H56 C40 1_555 1_555
C41 O20 1_555 1_555
H57 C41 1_555 1_555
C42 C41 1_555 1_555
H58 C42 1_555 1_555
C43 O21 1_555 1_555
H59 C43 1_555 1_555
C44 O25 1_555 1_555
C45 C44 1_555 1_555
H60 C45 1_555 1_555
H61 C45 1_555 1_555
H62 C45 1_555 1_555
C46 C44 1_555 1_555
H63 C46 1_555 1_555
H64 C46 1_555 1_555
H65 C46 1_555 1_555
C47 O22 1_555 1_555
H66 C47 1_555 1_555
H67 C47 1_555 1_555
C48 C47 1_555 1_555
H68 C48 1_555 1_555
H69 C48 1_555 1_555
H70 C48 1_555 1_555
C49 C36 1_555 1_555
C50 O23 1_555 1_555
H71 C50 1_555 1_555
H72 C50 1_555 1_555
C51 C50 1_555 1_555
H73 C51 1_555 1_555
H74 C51 1_555 1_555
H75 C51 1_555 1_555
Cu4 O18 1_555 1_555
O28 Cu4 1_555 1_555
O29 Cu3 1_555 1_555
O30 C56 1_555 1_555
O31 C52 1_555 1_555
O32 C66 1_555 1_555
O33 C66 1_555 1_555
O34 C58 1_555 1_555
O35 C59 1_555 1_555
O36 H76 1_555 1_555
N4 Cu4 1_555 1_555
C52 O28 1_555 1_555
C53 C52 1_555 1_555
C54 N4 1_555 1_555
H77 C54 1_555 1_555
C55 N4 1_555 1_555
H78 C55 1_555 1_555
C56 C55 1_555 1_555
H79 C56 1_555 1_555
C57 O29 1_555 1_555
H80 C57 1_555 1_555
C58 C57 1_555 1_555
H81 C58 1_555 1_555
C59 O30 1_555 1_555
H82 C59 1_555 1_555
C60 O34 1_555 1_555
C61 C60 1_555 1_555
H83 C61 1_555 1_555
H84 C61 1_555 1_555
H85 C61 1_555 1_555
C62 C60 1_555 1_555
H86 C62 1_555 1_555
H87 C62 1_555 1_555
H88 C62 1_555 1_555
C63 O36 1_555 1_555
H89 C63 1_555 1_555
H90 C63 1_555 1_555
C64 O31 1_555 1_555
H91 C64 1_555 1_555
H92 C64 1_555 1_555
C65 C64 1_555 1_555
H93 C65 1_555 1_555
H94 C65 1_555 1_555
H95 C65 1_555 1_555
C66 C53 1_555 1_555
C67 O32 1_555 1_555
H96 C67 1_555 1_555
H97 C67 1_555 1_555
C68 C67 1_555 1_555
H98 C68 1_555 1_555
H99 C68 1_555 1_555
H100 C68 1_555 1_555
O37 H103 1_555 1_555
O38 H101 1_555 1_555
O39 H105 1_555 1_555
H102 O38 1_555 1_555
H104 O37 1_555 1_555
O36_2 Cu2 1_555 1_555
Cu2_2 O36 1_555 1_555
H76_2 O36_2 1_555 1_555
O8 C9 1_555 1_555
C4 C12 1_555 1_555
C5 C6 1_555 1_555
C7 C8 1_555 1_555
Cu2 O11 1_555 1_555
O17 C26 1_555 1_555
C19 C20 1_555 1_555
C21 C29 1_555 1_555
C22 C23 1_555 1_555
C24 C25 1_555 1_555
O20 Cu4 1_555 1_555
O26 C44 1_555 1_555
C38 C40 1_555 1_555
C39 C41 1_555 1_555
C42 C43 1_555 1_555
Cu4 O29 1_555 1_555
O35 C60 1_555 1_555
C53 C54 1_555 1_555
C55 C63 1_555 1_555
C56 C57 1_555 1_555
C58 C59 1_555 1_555

#END
