
#######################################################################
#
#                 Cambridge Crystallographic Data Centre
#                                CCDC 
#
#######################################################################
#
# If this CIF has been generated from an entry in the Cambridge 
# Structural Database, then it will include bibliographic, chemical, 
# crystal, experimental, refinement or atomic coordinate data resulting 
# from the CCDC's data processing and validation procedures.
#
#######################################################################

data_NADVOE
_symmetry_cell_setting           monoclinic
_symmetry_space_group_name_H-M   'P 21'
_symmetry_Int_Tables_number      4
_space_group_name_Hall           'P 2yb'
loop_
_symmetry_equiv_pos_site_id
_symmetry_equiv_pos_as_xyz
1 x,y,z
2 -x,1/2+y,-z
_cell_length_a                   9.031(3)
_cell_length_b                   14.581(5)
_cell_length_c                   10.146(3)
_cell_angle_alpha                90
_cell_angle_beta                 96.556(5)
_cell_angle_gamma                90
_cell_volume                     1327.3
loop_
_atom_site_label
_atom_site_type_symbol
_atom_site_fract_x
_atom_site_fract_y
_atom_site_fract_z
Ni1 Ni 0.77420(5) 0.08971(5) 0.73543(4)
Ni2 Ni 0.76798(6) 0.08856(6) 1.23529(4)
N1 N 0.7559(3) 0.0882(4) 0.9384(3)
N2 N 0.7714(7) -0.1155(6) 1.2617(5)
N3 N 0.7922(4) 0.0928(4) 0.5323(3)
N4 N 0.7354(7) 0.2946(4) 1.2217(6)
N5 N 0.9595(5) -0.0005(3) 0.7660(4)
N6 N 0.8243(5) -0.1301(3) 0.6924(4)
N7 N 0.6223(5) -0.0142(3) 0.7095(4)
H1 H 0.6012 -0.0305 0.7918
N8 N 0.5893(5) 0.1810(3) 0.7051(4)
N9 N 0.7291(5) 0.3102(3) 0.7665(4)
N10 N 0.9284(5) 0.1939(3) 0.7586(4)
H2 H 0.9523 0.2083 0.6764
C1 C 0.7569(4) 0.0870(6) 1.0508(4)
C2 C 0.7722(7) -0.0382(5) 1.2474(5)
C3 C 0.7840(4) 0.0927(5) 0.4187(4)
C4 C 0.7523(6) 0.2171(5) 1.2279(5)
C5 C 1.0621(5) 0.1507(3) 0.8321(5)
H3 H 1.0456 0.1402 0.9237
H4 H 1.1478 0.1907 0.8311
C6 C 1.0905(5) 0.0599(3) 0.7651(5)
H5 H 1.1099 0.0710 0.6744
H6 H 1.1775 0.0303 0.8117
C7 C 0.9682(5) -0.0631(3) 0.8838(4)
H7 H 0.9406 -0.0312 0.9612
H8 H 1.0679 -0.0879 0.9040
C8 C 0.8560(7) -0.1390(3) 0.8399(5)
H9 H 0.8979 -0.1988 0.8636
H10 H 0.7654 -0.1313 0.8817
C9 C 0.9429(5) -0.0720(3) 0.6580(4)
H11 H 0.9169 -0.0439 0.5718
H12 H 1.0344 -0.1066 0.6565
C10 C 0.6708(6) -0.0990(3) 0.6460(5)
H13 H 0.6635 -0.0889 0.5510
H14 H 0.6021 -0.1479 0.6616
C11 C 0.4852(6) 0.0282(3) 0.6416(5)
H15 H 0.4007 -0.0122 0.6468
H16 H 0.4963 0.0386 0.5488
C12 C 0.4599(5) 0.1191(3) 0.7102(5)
H17 H 0.3709 0.1483 0.6669
H18 H 0.4449 0.1078 0.8020
C13 C 0.5762(6) 0.2404(3) 0.5849(4)
H19 H 0.4791 0.2694 0.5704
H20 H 0.5935 0.2058 0.5065
C14 C 0.6983(7) 0.3102(4) 0.6204(5)
H21 H 0.7872 0.2937 0.5805
H22 H 0.6660 0.3705 0.5887
C15 C 0.6061(6) 0.2537(3) 0.8067(4)
H23 H 0.6317 0.2281 0.8946
H24 H 0.5153 0.2894 0.8058
C16 C 0.8780(7) 0.2797(3) 0.8179(5)
H25 H 0.8809 0.2709 0.9129
H26 H 0.9481 0.3280 0.8036
C3_2 C 0.7840(4) 0.0927(5) 1.4187(4)
Ni2_2 Ni 0.76798(6) 0.08856(6) 0.23529(4)
O1 O 0.6983(7) 0.4891(3) 0.8762(5)
H27 H 0.7328 0.4436 0.8434
C17 C 0.6376(9) 0.6415(5) 0.8476(10)
H28 H 0.7209 0.6651 0.9048
H29 H 0.5574 0.6278 0.8990
H30 H 0.6053 0.6864 0.7813
C18 C 0.6818(12) 0.5584(5) 0.7836(9)
H31 H 0.5962 0.5410 0.7204
C19 C 0.8101(10) 0.5681(7) 0.7036(9)
H32 H 0.8118 0.5168 0.6445
H33 H 0.9016 0.5700 0.7619
H34 H 0.7994 0.6238 0.6529
O2 O 0.8745(4) 0.7456(3) 0.4528(3)
H35 H 0.8190 0.7810 0.4021
H36 H 0.9439 0.7764 0.4978
O3 O 0.5355(5) 0.4204(3) 0.0751(4)
H37 H 0.5933 0.3831 0.1201
H38 H 0.5766 0.4417 0.0103
loop_
_geom_bond_atom_site_label_1
_geom_bond_atom_site_label_2
_geom_bond_site_symmetry_1
_geom_bond_site_symmetry_2
Ni1 N1 1_555 1_555
Ni2 C1 1_555 1_555
N1 C1 1_555 1_555
N2 C2 1_555 1_555
N3 Ni1 1_555 1_555
N4 C4 1_555 1_555
N5 Ni1 1_555 1_555
N6 C8 1_555 1_555
N7 Ni1 1_555 1_555
H1 N7 1_555 1_555
N8 Ni1 1_555 1_555
N9 C14 1_555 1_555
N10 Ni1 1_555 1_555
H2 N10 1_555 1_555
C2 Ni2 1_555 1_555
C3 N3 1_555 1_555
C4 Ni2 1_555 1_555
C5 N10 1_555 1_555
H3 C5 1_555 1_555
H4 C5 1_555 1_555
C6 N5 1_555 1_555
H5 C6 1_555 1_555
H6 C6 1_555 1_555
C7 N5 1_555 1_555
H7 C7 1_555 1_555
H8 C7 1_555 1_555
C8 C7 1_555 1_555
H9 C8 1_555 1_555
H10 C8 1_555 1_555
C9 N5 1_555 1_555
H11 C9 1_555 1_555
H12 C9 1_555 1_555
C10 N6 1_555 1_555
H13 C10 1_555 1_555
H14 C10 1_555 1_555
C11 N7 1_555 1_555
H15 C11 1_555 1_555
H16 C11 1_555 1_555
C12 N8 1_555 1_555
H17 C12 1_555 1_555
H18 C12 1_555 1_555
C13 N8 1_555 1_555
H19 C13 1_555 1_555
H20 C13 1_555 1_555
C14 C13 1_555 1_555
H21 C14 1_555 1_555
H22 C14 1_555 1_555
C15 N8 1_555 1_555
H23 C15 1_555 1_555
H24 C15 1_555 1_555
C16 N9 1_555 1_555
H25 C16 1_555 1_555
H26 C16 1_555 1_555
O1 H27 1_555 1_555
C17 H28 1_555 1_555
H29 C17 1_555 1_555
H30 C17 1_555 1_555
C18 O1 1_555 1_555
H31 C18 1_555 1_555
C19 C18 1_555 1_555
H32 C19 1_555 1_555
H33 C19 1_555 1_555
H34 C19 1_555 1_555
O2 H35 1_555 1_555
H36 O2 1_555 1_555
O3 H37 1_555 1_555
H38 O3 1_555 1_555
C3_2 Ni2 1_555 1_555
Ni2_2 C3 1_555 1_555
N6 C9 1_555 1_555
N7 C10 1_555 1_555
N9 C15 1_555 1_555
N10 C16 1_555 1_555
C5 C6 1_555 1_555
C11 C12 1_555 1_555
C17 C18 1_555 1_555

#END
