
#######################################################################
#
#                 Cambridge Crystallographic Data Centre
#                                CCDC 
#
#######################################################################
#
# If this CIF has been generated from an entry in the Cambridge 
# Structural Database, then it will include bibliographic, chemical, 
# crystal, experimental, refinement or atomic coordinate data resulting 
# from the CCDC's data processing and validation procedures.
#
#######################################################################

data_NADVIZ
_symmetry_cell_setting           monoclinic
_symmetry_space_group_name_H-M   'P 21/n'
_symmetry_Int_Tables_number      14
_space_group_name_Hall           '-P 2yn'
loop_
_symmetry_equiv_pos_site_id
_symmetry_equiv_pos_as_xyz
1 x,y,z
2 1/2-x,1/2+y,1/2-z
3 -x,-y,-z
4 1/2+x,1/2-y,1/2+z
_cell_length_a                   15.716(3)
_cell_length_b                   26.662(5)
_cell_length_c                   23.563(5)
_cell_angle_alpha                90
_cell_angle_beta                 97.66(3)
_cell_angle_gamma                90
_cell_volume                     9785.26
loop_
_atom_site_label
_atom_site_type_symbol
_atom_site_fract_x
_atom_site_fract_y
_atom_site_fract_z
Gd1 Gd 0.74739(3) 0.306303(15) 0.543053(17)
Gd2 Gd 0.89288(3) 0.342877(18) 0.77329(2)
Gd3 Gd 0.92263(3) 0.215865(16) 0.546170(19)
Gd4 Gd 0.46881(4) 0.175328(19) 0.55133(2)
Gd5 Gd 0.81470(4) 0.118807(18) 0.68673(2)
Gd6 Gd 0.94865(4) 0.392619(18) 0.38670(2)
Ni1 Ni 0.85737(8) 0.41705(4) 0.60359(5)
Ni2 Ni 0.59289(8) 0.26670(4) 0.62895(5)
Ni3 Ni 0.65335(9) 0.31466(4) 0.39345(5)
P1 P 0.78157(17) 0.40222(9) 0.47630(9)
P2 P 0.84795(18) 0.27494(9) 0.41611(10)
P3 P 0.93531(17) 0.31011(8) 0.64985(10)
P4 P 0.71392(16) 0.35272(9) 0.66145(9)
P5 P 0.55635(17) 0.28659(9) 0.49330(10)
P6 P 0.69516(17) 0.17856(9) 0.56597(10)
O1 O 0.7777(9) 0.5315(4) 0.6931(4)
O2 O 0.9682(5) 0.4519(2) 0.5887(3)
O3 O 0.8282(5) 0.4172(2) 0.4275(3)
O4 O 0.7090(5) 0.3649(2) 0.4618(3)
O5 O 1.0128(5) 0.5279(3) 0.5714(4)
O6 O 0.8487(6) 0.4661(3) 0.6682(3)
O7 O 0.8414(4) 0.3784(2) 0.5261(3)
O8 O 0.8764(13) 0.0673(4) 0.4641(6)
O9 O 1.1352(8) 0.2775(5) 0.4613(5)
O10 O 0.8687(5) 0.1373(3) 0.5129(3)
O11 O 0.7653(5) 0.2848(3) 0.3783(2)
O12 O 0.9163(5) 0.3121(2) 0.4049(3)
O13 O 0.8362(4) 0.2710(2) 0.4790(3)
O14 O 1.0226(5) 0.2680(2) 0.5097(3)
O15 O 1.1896(6) 0.1573(4) 0.5627(7)
O16 O 1.0485(5) 0.1633(2) 0.5568(4)
O17 O 0.9526(5) 0.1555(3) 0.7256(3)
O18 O 0.9256(5) 0.3665(2) 0.6568(3)
O19 O 0.9085(5) 0.2840(2) 0.7031(3)
O20 O 0.9109(4) 0.1766(2) 0.6359(3)
O21 O 0.8857(4) 0.2891(2) 0.5933(3)
O22 O 0.5758(9) 0.2438(4) 0.7957(4)
O23 O 0.3401(7) 0.2870(4) 0.6076(6)
O24 O 0.7644(5) 0.3640(2) 0.7183(3)
O25 O 0.6031(5) 0.2313(3) 0.7065(3)
O26 O 0.7133(4) 0.2970(2) 0.6450(3)
O27 O 0.4645(5) 0.2506(3) 0.6125(3)
O28 O 0.7436(4) 0.3811(2) 0.6105(2)
O29 O 0.4702(8) 0.2220(3) 0.3201(4)
O30 O 0.5925(7) 0.2590(3) 0.3424(3)
O31 O 0.6506(5) 0.3668(3) 0.3304(3)
O32 O 0.4920(5) 0.2445(2) 0.4914(3)
O33 O 0.5908(5) 0.3056(2) 0.5541(3)
O34 O 0.6378(4) 0.2733(2) 0.4667(3)
O35 O 0.5786(6) 0.4311(3) 0.2910(4)
O36 O 0.6065(10) 0.0274(3) 0.5795(6)
O37 O 0.5392(7) 0.1008(3) 0.5880(4)
O38 O 0.3977(5) 0.1327(3) 0.3690(3)
O39 O 0.7617(5) 0.2192(2) 0.5605(2)
O40 O 0.4016(6) 0.1435(4) 0.4618(4)
O41 O 0.7304(5) 0.1357(2) 0.6038(3)
O42 O 0.6128(4) 0.2021(2) 0.5853(3)
O43 O 0.7329(7) 0.0415(3) 0.6836(4)
O44 O 0.9110(7) 0.0521(3) 0.7289(4)
O45 O 0.8022(7) 0.1167(3) 0.7882(4)
O46 O 0.8708(7) 0.0722(3) 0.6100(4)
O47 O 1.1034(7) 0.3771(4) 0.4010(4)
O48 O 1.0013(5) 0.3742(3) 0.4907(3)
O49 O 0.9820(9) 0.4503(4) 0.3135(4)
O50 O 0.9826(9) 0.3456(4) 0.3009(4)
O51 O 0.8214(7) 0.3923(4) 0.3149(3)
O52 O 0.4518(13) 0.1566(5) 0.6524(5)
O53 O 0.3663(13) 0.1038(7) 0.5634(9)
O54 O 0.3257(6) 0.2097(4) 0.5392(5)
O55 O 0.8861(6) 0.4327(3) 0.7732(3)
O56 O 1.0358(6) 0.3711(3) 0.7711(4)
O57 O 0.7839(8) 0.2927(4) 0.8094(4)
O58 O 0.7896(5) 0.2076(3) 0.7105(3)
O59 O 0.6534(8) 0.1333(4) 0.7033(5)
N1 N 0.7968(6) 0.4767(3) 0.5558(3)
N2 N 0.9530(6) 0.1925(3) 0.4412(3)
N3 N 1.0523(6) 0.2390(3) 0.6320(3)
N4 N 0.5472(6) 0.3270(3) 0.6739(4)
N5 N 0.5279(6) 0.3400(3) 0.3943(3)
N6 N 0.5744(6) 0.1347(3) 0.4849(3)
C1 C 0.7940(10) 0.5014(4) 0.6576(5)
C2 C 0.7508(9) 0.5062(4) 0.5956(4)
H1 H 0.6919 0.4946 0.5931
H2 H 0.7496 0.5413 0.5844
C3 C 0.8698(7) 0.5055(3) 0.5358(4)
H3 H 0.8712 0.4982 0.4956
H4 H 0.8584 0.5411 0.5390
C4 C 0.9529(8) 0.4949(4) 0.5667(4)
C5 C 0.7372(7) 0.4570(4) 0.5073(4)
H5 H 0.7258 0.4828 0.4783
H6 H 0.6832 0.4482 0.5204
C6 C 0.8939(10) 0.1124(4) 0.4731(6)
C7 C 0.9517(9) 0.1367(4) 0.4357(5)
H7 H 1.0095 0.1239 0.4457
H8 H 0.9327 0.1278 0.3961
C8 C 1.0658(8) 0.2560(5) 0.4682(5)
C9 C 1.0363(8) 0.2139(4) 0.4297(5)
H9 H 1.0795 0.1877 0.4340
H10 H 1.0306 0.2256 0.3904
C10 C 0.8812(8) 0.2112(4) 0.4003(5)
H11 H 0.8326 0.1888 0.4006
H12 H 0.8978 0.2106 0.3621
C11 C 1.1220(8) 0.1793(4) 0.5751(6)
C12 C 1.0473(7) 0.2086(4) 0.6831(5)
H13 H 1.0532 0.2305 0.7163
H14 H 1.0954 0.1855 0.6878
C13 C 1.0474(7) 0.2936(4) 0.6447(5)
H15 H 1.0682 0.3130 0.6145
H16 H 1.0831 0.3012 0.6805
C14 C 1.1317(7) 0.2273(4) 0.6083(5)
H17 H 1.1788 0.2242 0.6392
H18 H 1.1451 0.2543 0.5835
C15 C 0.9658(6) 0.1791(3) 0.6818(4)
C16 C 0.4175(9) 0.2875(5) 0.6238(7)
C17 C 0.5805(8) 0.2591(4) 0.7467(4)
C18 C 0.5620(10) 0.3121(5) 0.7356(5)
H19 H 0.6096 0.3317 0.7546
H20 H 0.5114 0.3210 0.7530
C19 C 0.4592(9) 0.3331(5) 0.6496(6)
H21 H 0.4562 0.3589 0.6204
H22 H 0.4269 0.3448 0.6793
C20 C 0.6023(6) 0.3716(4) 0.6624(4)
H23 H 0.5996 0.3968 0.6919
H24 H 0.5802 0.3865 0.6258
C21 C 0.4704(7) 0.3034(5) 0.3589(4)
H25 H 0.4257 0.2924 0.3808
H26 H 0.4428 0.3203 0.3249
C22 C 0.5168(10) 0.2583(4) 0.3411(4)
C23 C 0.5864(8) 0.3966(4) 0.3261(5)
C24 C 0.5262(10) 0.3900(4) 0.3674(5)
H27 H 0.4687 0.3963 0.3483
H28 H 0.5385 0.4150 0.3973
C25 C 0.5100(8) 0.3406(4) 0.4541(4)
H29 H 0.4483 0.3407 0.4547
H30 H 0.5333 0.3710 0.4727
C26 C 0.5777(8) 0.0805(4) 0.4987(5)
H31 H 0.6306 0.0667 0.4882
H32 H 0.5304 0.0639 0.4754
C27 C 0.4393(8) 0.1391(4) 0.4185(4)
C28 C 0.5345(9) 0.1405(4) 0.4248(4)
H33 H 0.5548 0.1139 0.4020
H34 H 0.5527 0.1722 0.4102
C29 C 0.6621(7) 0.1566(4) 0.4937(4)
H35 H 0.6641 0.1845 0.4675
H36 H 0.7027 0.1316 0.4843
C30 C 0.5732(11) 0.0690(5) 0.5602(6)
Gd2C Gd 0.39288(3) 0.157123(18) 0.27329(2)
Gd6B Gd 1.05135(4) 0.607381(18) 0.61330(2)
O5B O 0.9872(5) 0.4721(3) 0.4286(4)
O29C O 0.9702(8) 0.2780(3) 0.8201(4)
O38C O 0.8977(5) 0.3673(3) 0.8690(3)
loop_
_geom_bond_atom_site_label_1
_geom_bond_atom_site_label_2
_geom_bond_site_symmetry_1
_geom_bond_site_symmetry_2
Gd1 O4 1_555 1_555
Gd2 O19 1_555 1_555
Gd3 O10 1_555 1_555
Gd4 O27 1_555 1_555
Gd5 O17 1_555 1_555
Gd6 O3 1_555 1_555
Ni1 O2 1_555 1_555
Ni2 O25 1_555 1_555
Ni3 O4 1_555 1_555
P1 O3 1_555 1_555
P2 O11 1_555 1_555
P3 O18 1_555 1_555
P4 O24 1_555 1_555
P5 O32 1_555 1_555
P6 O39 1_555 1_555
O1 C1 1_555 1_555
O2 C4 1_555 1_555
O4 P1 1_555 1_555
O5 C4 1_555 1_555
O6 Ni1 1_555 1_555
O7 Gd1 1_555 1_555
O8 C6 1_555 1_555
O9 C8 1_555 1_555
O10 C6 1_555 1_555
O11 Ni3 1_555 1_555
O12 Gd6 1_555 1_555
O13 Gd1 1_555 1_555
O14 Gd3 1_555 1_555
O15 C11 1_555 1_555
O16 Gd3 1_555 1_555
O17 C15 1_555 1_555
O18 Ni1 1_555 1_555
O19 P3 1_555 1_555
O20 Gd3 1_555 1_555
O21 Gd1 1_555 1_555
O22 C17 1_555 1_555
O23 C16 1_555 1_555
O24 Gd2 1_555 1_555
O25 C17 1_555 1_555
O26 Gd1 1_555 1_555
O27 Ni2 1_555 1_555
O28 Gd1 1_555 1_555
O29 C22 1_555 1_555
O30 Ni3 1_555 1_555
O31 Ni3 1_555 1_555
O32 Gd4 1_555 1_555
O33 Gd1 1_555 1_555
O34 Gd1 1_555 1_555
O35 C23 1_555 1_555
O36 C30 1_555 1_555
O37 Gd4 1_555 1_555
O38 C27 1_555 1_555
O39 Gd1 1_555 1_555
O40 Gd4 1_555 1_555
O41 Gd5 1_555 1_555
O42 Gd4 1_555 1_555
O43 Gd5 1_555 1_555
O44 Gd5 1_555 1_555
O45 Gd5 1_555 1_555
O46 Gd5 1_555 1_555
O47 Gd6 1_555 1_555
O48 Gd6 1_555 1_555
O49 Gd6 1_555 1_555
O50 Gd6 1_555 1_555
O51 Gd6 1_555 1_555
O52 Gd4 1_555 1_555
O53 Gd4 1_555 1_555
O54 Gd4 1_555 1_555
O55 Gd2 1_555 1_555
O56 Gd2 1_555 1_555
O57 Gd2 1_555 1_555
O58 Gd5 1_555 1_555
O59 Gd5 1_555 1_555
N1 Ni1 1_555 1_555
N2 Gd3 1_555 1_555
N3 Gd3 1_555 1_555
N4 Ni2 1_555 1_555
N5 Ni3 1_555 1_555
N6 Gd4 1_555 1_555
C1 O6 1_555 1_555
C2 N1 1_555 1_555
H1 C2 1_555 1_555
H2 C2 1_555 1_555
C3 N1 1_555 1_555
H3 C3 1_555 1_555
H4 C3 1_555 1_555
C4 C3 1_555 1_555
C5 P1 1_555 1_555
H5 C5 1_555 1_555
H6 C5 1_555 1_555
C6 C7 1_555 1_555
C7 N2 1_555 1_555
H7 C7 1_555 1_555
H8 C7 1_555 1_555
C8 O14 1_555 1_555
C9 N2 1_555 1_555
H9 C9 1_555 1_555
H10 C9 1_555 1_555
C10 P2 1_555 1_555
H11 C10 1_555 1_555
H12 C10 1_555 1_555
C11 O16 1_555 1_555
C12 N3 1_555 1_555
H13 C12 1_555 1_555
H14 C12 1_555 1_555
C13 P3 1_555 1_555
H15 C13 1_555 1_555
H16 C13 1_555 1_555
C14 N3 1_555 1_555
H17 C14 1_555 1_555
H18 C14 1_555 1_555
C15 O20 1_555 1_555
C16 O27 1_555 1_555
C17 C18 1_555 1_555
C18 N4 1_555 1_555
H19 C18 1_555 1_555
H20 C18 1_555 1_555
C19 N4 1_555 1_555
H21 C19 1_555 1_555
H22 C19 1_555 1_555
C20 P4 1_555 1_555
H23 C20 1_555 1_555
H24 C20 1_555 1_555
C21 N5 1_555 1_555
H25 C21 1_555 1_555
H26 C21 1_555 1_555
C22 O30 1_555 1_555
C23 O31 1_555 1_555
C24 N5 1_555 1_555
H27 C24 1_555 1_555
H28 C24 1_555 1_555
C25 P5 1_555 1_555
H29 C25 1_555 1_555
H30 C25 1_555 1_555
C26 N6 1_555 1_555
H31 C26 1_555 1_555
H32 C26 1_555 1_555
C27 O40 1_555 1_555
C28 N6 1_555 1_555
H33 C28 1_555 1_555
H34 C28 1_555 1_555
C29 P6 1_555 1_555
H35 C29 1_555 1_555
H36 C29 1_555 1_555
C30 O37 1_555 1_555
Gd2C O29 1_555 1_555
Gd6B O5 1_555 1_555
O5B Gd6 1_555 1_555
O29C Gd2 1_555 1_555
O38C Gd2 1_555 1_555
Gd3 O13 1_555 1_555
Gd3 O21 1_555 1_555
Gd3 O39 1_555 1_555
Gd5 O20 1_555 1_555
Ni1 O7 1_555 1_555
Ni1 O28 1_555 1_555
Ni2 O26 1_555 1_555
Ni2 O33 1_555 1_555
Ni2 O42 1_555 1_555
Ni3 O34 1_555 1_555
P1 O7 1_555 1_555
P2 O12 1_555 1_555
P2 O13 1_555 1_555
P3 O21 1_555 1_555
P4 O26 1_555 1_555
P4 O28 1_555 1_555
P5 O33 1_555 1_555
P5 O34 1_555 1_555
P6 O41 1_555 1_555
P6 O42 1_555 1_555
O38 Gd2C 1_555 1_555
N1 C5 1_555 1_555
N2 C10 1_555 1_555
N3 C13 1_555 1_555
N4 C20 1_555 1_555
N5 C25 1_555 1_555
N6 C29 1_555 1_555
C1 C2 1_555 1_555
C8 C9 1_555 1_555
C11 C14 1_555 1_555
C12 C15 1_555 1_555
C16 C19 1_555 1_555
C21 C22 1_555 1_555
C23 C24 1_555 1_555
C26 C30 1_555 1_555
C27 C28 1_555 1_555

#END
