
#######################################################################
#
#                 Cambridge Crystallographic Data Centre
#                                CCDC 
#
#######################################################################
#
# If this CIF has been generated from an entry in the Cambridge 
# Structural Database, then it will include bibliographic, chemical, 
# crystal, experimental, refinement or atomic coordinate data resulting 
# from the CCDC's data processing and validation procedures.
#
#######################################################################

data_NADWOG
_symmetry_cell_setting           monoclinic
_symmetry_space_group_name_H-M   'P 21'
_symmetry_Int_Tables_number      4
_space_group_name_Hall           'P 2yb'
loop_
_symmetry_equiv_pos_site_id
_symmetry_equiv_pos_as_xyz
1 x,y,z
2 -x,1/2+y,-z
_cell_length_a                   9.2736(7)
_cell_length_b                   5.2093(3)
_cell_length_c                   13.9202(10)
_cell_angle_alpha                90
_cell_angle_beta                 100.149(5)
_cell_angle_gamma                90
_cell_volume                     661.948
loop_
_atom_site_label
_atom_site_type_symbol
_atom_site_fract_x
_atom_site_fract_y
_atom_site_fract_z
Zn1 Zn 0.33098(4) 0.92806(12) 0.91204(3)
P1 P 0.49980(10) 1.4319(4) 0.86954(7)
O1 O 0.1342(4) 0.7988(7) 0.8689(3)
O2 O 0.3660(4) 1.2871(7) 0.8892(3)
O3 O 0.6382(3) 1.3770(7) 0.9439(2)
O4 O 0.4739(4) 1.7201(6) 0.8594(2)
O5 O 0.0304(4) 1.1474(7) 0.9209(3)
C1 C 0.0254(4) 0.9313(16) 0.8873(3)
C2 C -0.1234(5) 0.7957(9) 0.8618(3)
H1 H -0.113(6) 0.605(13) 0.873(4)
C3 C -0.1980(6) 0.8401(12) 0.7553(4)
C4 C -0.1492(5) 0.6610(10) 0.6823(4)
C5 C -0.2173(6) 0.6517(11) 0.5815(4)
C6 C -0.3299(7) 0.7933(14) 0.5234(4)
H2 H -0.364(5) 0.935(15) 0.550(4)
C7 C -0.3707(9) 0.7289(16) 0.4262(5)
C8 C -0.3028(8) 0.5298(15) 0.3840(5)
C9 C -0.1915(8) 0.3908(18) 0.4385(5)
C10 C -0.1483(6) 0.4499(18) 0.5373(3)
C11 C -0.0442(6) 0.4745(13) 0.6958(4)
H3 H 0.018(6) 0.431(19) 0.748(4)
N1 N -0.2166(4) 0.9020(12) 0.9298(3)
N2 N -0.0428(6) 0.3490(9) 0.6086(4)
H4 H 0.0156 0.2260 0.6003
H5 H -0.183(5) 0.867(11) 0.995(3)
H6 H -0.309(5) 0.837(9) 0.754(3)
H7 H -0.195(8) 1.021(15) 0.742(5)
H8 H -0.314(5) 0.837(10) 0.920(4)
H9 H -0.346(6) 0.505(12) 0.319(4)
H10 H 0.525(5) 1.353(9) 0.787(3)
H11 H -0.219(6) 1.068(10) 0.928(4)
H12 H -0.151(7) 0.268(13) 0.422(5)
H13 H -0.434(6) 0.837(11) 0.385(4)
Zn1A Zn 0.66902(4) 1.42806(12) 1.08796(3)
Zn1_2 Zn 0.33098(4) 1.92806(12) 0.91204(3)
O3A O 0.3618(3) 0.8770(7) 1.0561(2)
O4_2 O 0.4739(4) 0.7201(6) 0.8594(2)
loop_
_geom_bond_atom_site_label_1
_geom_bond_atom_site_label_2
_geom_bond_site_symmetry_1
_geom_bond_site_symmetry_2
Zn1 O1 1_555 1_555
P1 O2 1_555 1_555
O1 C1 1_555 1_555
O2 Zn1 1_555 1_555
O3 P1 1_555 1_555
O4 P1 1_555 1_555
O5 C1 1_555 1_555
C1 C2 1_555 1_555
C2 H1 1_555 1_555
C3 C2 1_555 1_555
C4 C3 1_555 1_555
C5 C4 1_555 1_555
C6 C5 1_555 1_555
H2 C6 1_555 1_555
C7 C6 1_555 1_555
C8 C7 1_555 1_555
C9 C8 1_555 1_555
C10 C5 1_555 1_555
C11 C4 1_555 1_555
H3 C11 1_555 1_555
N1 C2 1_555 1_555
N2 C10 1_555 1_555
H4 N2 1_555 1_555
H5 N1 1_555 1_555
H6 C3 1_555 1_555
H7 C3 1_555 1_555
H8 N1 1_555 1_555
H9 C8 1_555 1_555
H10 P1 1_555 1_555
H11 N1 1_555 1_555
H12 C9 1_555 1_555
H13 C7 1_555 1_555
Zn1A O3 1_555 1_555
Zn1_2 O4 1_555 1_555
O3A Zn1 1_555 1_555
O4_2 Zn1 1_555 1_555
C9 C10 1_555 1_555
C11 N2 1_555 1_555

#END
