
#######################################################################
#
#                 Cambridge Crystallographic Data Centre
#                                CCDC 
#
#######################################################################
#
# If this CIF has been generated from an entry in the Cambridge 
# Structural Database, then it will include bibliographic, chemical, 
# crystal, experimental, refinement or atomic coordinate data resulting 
# from the CCDC's data processing and validation procedures.
#
#######################################################################

data_NADWIA
_symmetry_cell_setting           orthorhombic
_symmetry_space_group_name_H-M   'P 21 21 2'
_symmetry_Int_Tables_number      18
_space_group_name_Hall           'P 2 2ab'
loop_
_symmetry_equiv_pos_site_id
_symmetry_equiv_pos_as_xyz
1 x,y,z
2 -x,-y,z
3 1/2-x,1/2+y,-z
4 1/2+x,1/2-y,-z
_cell_length_a                   11.5817(5)
_cell_length_b                   47.577(2)
_cell_length_c                   5.1514(2)
_cell_angle_alpha                90
_cell_angle_beta                 90
_cell_angle_gamma                90
_cell_volume                     2838.54
loop_
_atom_site_label
_atom_site_type_symbol
_atom_site_fract_x
_atom_site_fract_y
_atom_site_fract_z
Zn1 Zn 0.49705(7) 0.874641(14) 0.81468(13)
Zn2 Zn 0.55889(6) 0.942890(15) 1.39267(14)
Zn3 Zn 0.83174(7) 0.841160(16) 1.10945(16)
P1 P 0.40904(14) 0.93712(3) 0.8770(3)
P2 P 0.64872(15) 0.88029(3) 1.3285(3)
O1 O 0.6913(4) 0.74760(9) 1.2663(9)
O2 O 0.0204(4) 0.87099(8) 1.2458(7)
O3 O 0.5997(5) 0.78712(9) 1.3672(11)
O4 O 1.0190(4) 0.94873(10) 0.6978(8)
O5 O 0.0985(4) 0.87064(9) 0.8480(8)
O6 O 1.0910(4) 0.93932(8) 1.0867(8)
O7 O 0.4296(4) 0.93627(8) 1.1664(7)
O8 O 0.6252(4) 0.88051(9) 1.0398(7)
O9 O 0.3978(4) 0.90742(8) 0.7649(8)
O10 O 0.4974(4) 0.95422(8) 0.7306(7)
O11 O 0.5562(4) 0.86399(9) 1.4765(8)
O12 O 0.2881(4) 0.95200(8) 0.8242(8)
H1 H 0.223(3) 0.9473(12) 0.935(9)
O13 O 0.7685(3) 0.86619(8) 1.3684(8)
O14 O 0.6615(4) 0.91046(8) 1.4298(8)
O15 O 0.8811(4) 0.85759(10) 0.7859(8)
H2 H 0.9503 0.8633 0.7821
H3 H 0.8430 0.8641 0.6598
C1 C 0.2660(6) 0.80990(15) 1.0338(14)
H4 H 0.2072 0.8014 1.1286
C2 C 1.0101(6) 0.94031(12) 0.9243(12)
C3 C 0.6876(6) 0.99546(13) 1.4657(12)
H5 H 0.6366 1.0004 1.5973
C4 C 0.4017(6) 0.81720(13) 0.7455(12)
H6 H 0.4519 0.8143 0.6072
C5 C 0.7701(6) 0.97315(12) 1.1503(13)
C6 C 0.6606(6) 0.77295(16) 1.2273(14)
C7 C 0.8348(6) 0.99604(14) 1.2026(15)
H7 H 0.9028 1.0013 1.1200
C8 C 0.3140(6) 0.83581(13) 1.0762(12)
C9 C 0.9822(6) 0.76413(14) 1.2432(14)
H8 H 0.9882 0.7449 1.2126
C10 C 0.2189(5) 0.88251(12) 1.2041(12)
H9 H 0.2631 0.8928 1.0726
C11 C 0.7895(6) 0.95062(13) 0.9531(11)
H10 H 0.8036 0.9595 0.7864
H11 H 0.7193 0.9397 0.9374
C12 C 1.0078(6) 0.80578(13) 1.4077(14)
H12 H 1.0355 0.8202 1.5127
C13 C 0.9123(6) 0.78275(13) 1.1155(14)
C14 C 0.8284(6) 0.77761(13) 0.9036(14)
H13 H 0.8299 0.7578 0.8589
H14 H 0.8522 0.7881 0.7515
C15 C 0.7049(6) 0.78593(13) 0.9740(13)
H15 H 0.6548 0.7791 0.8344
C16 C 0.8908(5) 0.93029(13) 1.0115(11)
H16 H 0.8749 0.9131 0.9130
C17 C 0.2861(6) 0.85621(12) 1.2859(12)
H17 H 0.3578 0.8622 1.3658
H18 H 0.2415 0.8465 1.4177
C18 C 0.1018(5) 0.87401(13) 1.0912(13)
N1 N 0.3222(5) 0.79915(11) 0.8240(12)
H19 H 0.3081 0.7831 0.7536
N2 N 0.3995(4) 0.84003(10) 0.8921(10)
N3 N 0.2020(4) 0.90066(10) 1.4357(9)
H20 H 0.1682 0.8908 1.5611
H21 H 0.1576 0.9152 1.3937
H22 H 0.2702 0.9069 1.4911
N4 N 0.8908(4) 0.92201(10) 1.2899(9)
H23 H 0.9306 0.9346 1.3815
H24 H 0.9233 0.9052 1.3069
H25 H 0.8185 0.9214 1.3479
N5 N 0.6767(5) 0.97305(10) 1.3188(10)
N6 N 0.7805(5) 1.00997(11) 1.4019(13)
H26 H 0.8031 1.0254 1.4724
N7 N 0.6929(5) 0.81687(10) 0.9808(10)
H27 H 0.6319 0.8209 1.0822
H28 H 0.6752 0.8226 0.8191
N8 N 0.9296(5) 0.80907(10) 1.2218(11)
N9 N 1.0411(5) 0.77923(12) 1.4232(12)
H29 H 1.0916 0.7727 1.5295
Zn1_2 Zn 0.49705(7) 0.874641(14) 1.81468(13)
Zn2_2 Zn 0.55889(6) 0.942890(15) 0.39267(14)
O10_2 O 0.4974(4) 0.95422(8) 1.7306(7)
O11_2 O 0.5562(4) 0.86399(9) 0.4765(8)
loop_
_geom_bond_atom_site_label_1
_geom_bond_atom_site_label_2
_geom_bond_site_symmetry_1
_geom_bond_site_symmetry_2
Zn1 O8 1_555 1_555
Zn2 O7 1_555 1_555
Zn3 O13 1_555 1_555
P1 O7 1_555 1_555
P2 O8 1_555 1_555
O1 C6 1_555 1_555
O2 C18 1_555 1_555
O3 C6 1_555 1_555
O4 C2 1_555 1_555
O5 C18 1_555 1_555
O6 C2 1_555 1_555
O9 Zn1 1_555 1_555
O10 P1 1_555 1_555
O11 P2 1_555 1_555
O12 P1 1_555 1_555
H1 O12 1_555 1_555
O13 P2 1_555 1_555
O14 Zn2 1_555 1_555
O15 Zn3 1_555 1_555
H2 O15 1_555 1_555
H3 O15 1_555 1_555
C1 H4 1_555 1_555
C2 C16 1_555 1_555
C3 H5 1_555 1_555
C4 H6 1_555 1_555
C5 C7 1_555 1_555
C6 C15 1_555 1_555
C7 H7 1_555 1_555
C8 C1 1_555 1_555
C9 H8 1_555 1_555
C10 H9 1_555 1_555
C11 C5 1_555 1_555
H10 C11 1_555 1_555
H11 C11 1_555 1_555
C12 H12 1_555 1_555
C13 C9 1_555 1_555
C14 C13 1_555 1_555
H13 C14 1_555 1_555
H14 C14 1_555 1_555
C15 C14 1_555 1_555
H15 C15 1_555 1_555
C16 C11 1_555 1_555
H16 C16 1_555 1_555
C17 C8 1_555 1_555
H17 C17 1_555 1_555
H18 C17 1_555 1_555
C18 C10 1_555 1_555
N1 C1 1_555 1_555
H19 N1 1_555 1_555
N2 Zn1 1_555 1_555
N3 C10 1_555 1_555
H20 N3 1_555 1_555
H21 N3 1_555 1_555
H22 N3 1_555 1_555
N4 C16 1_555 1_555
H23 N4 1_555 1_555
H24 N4 1_555 1_555
H25 N4 1_555 1_555
N5 Zn2 1_555 1_555
N6 C3 1_555 1_555
H26 N6 1_555 1_555
N7 Zn3 1_555 1_555
H27 N7 1_555 1_555
H28 N7 1_555 1_555
N8 Zn3 1_555 1_555
N9 C9 1_555 1_555
H29 N9 1_555 1_555
Zn1_2 O11 1_555 1_555
Zn2_2 O10 1_555 1_555
O10_2 Zn2 1_555 1_555
O11_2 Zn1 1_555 1_555
P1 O9 1_555 1_555
P2 O14 1_555 1_555
C3 N5 1_555 1_555
C4 N1 1_555 1_555
C4 N2 1_555 1_555
C5 N5 1_555 1_555
C7 N6 1_555 1_555
C8 N2 1_555 1_555
C10 C17 1_555 1_555
C12 N8 1_555 1_555
C12 N9 1_555 1_555
C13 N8 1_555 1_555
C15 N7 1_555 1_555

#END
