
#######################################################################
#
#                 Cambridge Crystallographic Data Centre
#                                CCDC 
#
#######################################################################
#
# If this CIF has been generated from an entry in the Cambridge 
# Structural Database, then it will include bibliographic, chemical, 
# crystal, experimental, refinement or atomic coordinate data resulting 
# from the CCDC's data processing and validation procedures.
#
#######################################################################

data_NADXIA
_symmetry_cell_setting           monoclinic
_symmetry_space_group_name_H-M   'P 21/n'
_symmetry_Int_Tables_number      14
_space_group_name_Hall           '-P 2yn'
loop_
_symmetry_equiv_pos_site_id
_symmetry_equiv_pos_as_xyz
1 x,y,z
2 1/2+x,1/2-y,1/2+z
3 -x,-y,-z
4 1/2-x,1/2+y,1/2-z
_cell_length_a                   9.8257(2)
_cell_length_b                   22.7462(4)
_cell_length_c                   9.8498(2)
_cell_angle_alpha                90
_cell_angle_beta                 100.0091(8)
_cell_angle_gamma                90
_cell_volume                     2167.9
loop_
_atom_site_label
_atom_site_type_symbol
_atom_site_fract_x
_atom_site_fract_y
_atom_site_fract_z
Ce1 Ce 0.733250(16) -0.000164(9) 0.015803(16)
O1 O 0.6143(2) 0.06879(9) -0.1689(2)
O2 O 0.7792(2) 0.10925(9) -0.0158(2)
O3 O 0.9210(2) 0.02831(9) 0.2006(2)
O4 O 1.1168(2) -0.00965(9) 0.1554(2)
O5 O 0.6477(2) -0.09027(10) -0.1069(2)
O6 O 0.4493(2) -0.04414(9) -0.1213(2)
O7 O 0.9076(2) -0.08790(10) 0.0538(2)
N1 N 0.5236(3) 0.33944(14) -0.3378(3)
H1 H 0.527(4) 0.3655(15) -0.283(4)
H2 H 0.451(3) 0.3402(16) -0.390(3)
N2 N 1.3187(3) 0.07419(12) 0.7778(3)
H3 H 1.403(3) 0.0730(13) 0.787(3)
H4 H 1.297(3) 0.1063(13) 0.807(3)
N3 N 0.2519(3) -0.29289(16) -0.3945(4)
H5 H 0.173(4) -0.2879(17) -0.435(4)
H6 H 0.300(4) -0.3186(16) -0.437(4)
C1 C 0.6811(3) 0.11391(14) -0.1175(3)
C2 C 0.6418(3) 0.17280(14) -0.1761(3)
C3 C 0.5635(4) 0.17881(15) -0.3067(4)
H7 H 0.539(3) 0.1482(14) -0.354(3)
C4 C 0.5250(4) 0.23367(16) -0.3595(4)
H8 H 0.475(3) 0.2377(14) -0.445(3)
C5 C 0.5620(3) 0.28361(15) -0.2825(3)
C6 C 0.6406(4) 0.27800(15) -0.1530(4)
H9 H 0.661(3) 0.3095(13) -0.100(3)
C7 C 0.6795(4) 0.22332(16) -0.1009(4)
H10 H 0.721(3) 0.2204(15) -0.019(3)
C8 C 1.0476(3) 0.01645(12) 0.2345(3)
C9 C 1.1198(3) 0.03381(14) 0.3755(3)
C10 C 1.0542(3) 0.06712(14) 0.4618(3)
H11 H 0.968(3) 0.0768(13) 0.432(3)
C11 C 1.1208(3) 0.08235(14) 0.5922(3)
H12 H 1.074(3) 0.1044(12) 0.647(3)
C12 C 1.2536(3) 0.06239(14) 0.6403(3)
C13 C 1.3202(3) 0.02838(16) 0.5552(3)
H13 H 1.406(3) 0.0132(13) 0.588(3)
C14 C 1.2542(3) 0.01443(15) 0.4243(4)
H14 H 1.302(3) -0.0077(12) 0.363(3)
C15 C 0.5189(3) -0.08852(14) -0.1456(3)
C16 C 0.4492(3) -0.14074(14) -0.2180(3)
C17 C 0.5224(4) -0.19234(16) -0.2251(3)
H15 H 0.614(3) -0.1958(13) -0.196(3)
C18 C 0.4582(4) -0.24252(15) -0.2837(4)
H16 H 0.507(3) -0.2740(14) -0.291(3)
C19 C 0.3182(4) -0.24164(15) -0.3396(3)
C20 C 0.2464(4) -0.18929(17) -0.3371(4)
H17 H 0.156(3) -0.1861(13) -0.377(3)
C21 C 0.3103(4) -0.13999(15) -0.2759(4)
H18 H 0.258(3) -0.1077(14) -0.281(3)
H19 H 0.989(3) -0.0660(15) 0.070(4)
H20 H 0.915(3) -0.1135(12) -0.019(3)
O4B O 0.8832(2) 0.00965(9) -0.1554(2)
O6B O 0.5507(2) 0.04414(9) 0.1213(2)
N2B N 0.6813(3) -0.07419(12) 0.2222(3)
Ce1B Ce 1.266750(16) 0.000164(9) -0.015803(16)
Ce1B_2 Ce 0.266750(16) 0.000164(9) -0.015803(16)
Ce1B_3 Ce 1.266750(16) 0.000164(9) 0.984197(16)
H3B H 0.597(3) -0.0730(13) 0.213(3)
H4B H 0.703(3) -0.1063(13) 0.193(3)
loop_
_geom_bond_atom_site_label_1
_geom_bond_atom_site_label_2
_geom_bond_site_symmetry_1
_geom_bond_site_symmetry_2
Ce1 O1 1_555 1_555
O1 C1 1_555 1_555
O2 Ce1 1_555 1_555
O3 Ce1 1_555 1_555
O4 C8 1_555 1_555
O5 Ce1 1_555 1_555
O6 C15 1_555 1_555
O7 Ce1 1_555 1_555
N1 H1 1_555 1_555
H2 N1 1_555 1_555
N2 H3 1_555 1_555
H4 N2 1_555 1_555
N3 H5 1_555 1_555
H6 N3 1_555 1_555
C1 O2 1_555 1_555
C2 C1 1_555 1_555
C3 C2 1_555 1_555
H7 C3 1_555 1_555
C4 C3 1_555 1_555
H8 C4 1_555 1_555
C5 N1 1_555 1_555
C6 C5 1_555 1_555
H9 C6 1_555 1_555
C7 C2 1_555 1_555
H10 C7 1_555 1_555
C8 O3 1_555 1_555
C9 C8 1_555 1_555
C10 C9 1_555 1_555
H11 C10 1_555 1_555
C11 C10 1_555 1_555
H12 C11 1_555 1_555
C12 N2 1_555 1_555
C13 C12 1_555 1_555
H13 C13 1_555 1_555
C14 C9 1_555 1_555
H14 C14 1_555 1_555
C15 O5 1_555 1_555
C16 C15 1_555 1_555
C17 C16 1_555 1_555
H15 C17 1_555 1_555
C18 C17 1_555 1_555
H16 C18 1_555 1_555
C19 N3 1_555 1_555
C20 C19 1_555 1_555
H17 C20 1_555 1_555
C21 C16 1_555 1_555
H18 C21 1_555 1_555
H19 O7 1_555 1_555
H20 O7 1_555 1_555
O4B Ce1 1_555 1_555
O6B Ce1 1_555 1_555
N2B Ce1 1_555 1_555
Ce1B O4 1_555 1_555
Ce1B_2 O6 1_555 1_555
Ce1B_3 N2 1_555 1_555
H3B N2B 1_555 1_555
H4B N2B 1_555 1_555
C4 C5 1_555 1_555
C6 C7 1_555 1_555
C11 C12 1_555 1_555
C13 C14 1_555 1_555
C18 C19 1_555 1_555
C20 C21 1_555 1_555

#END
