
#######################################################################
#
#                 Cambridge Crystallographic Data Centre
#                                CCDC 
#
#######################################################################
#
# If this CIF has been generated from an entry in the Cambridge 
# Structural Database, then it will include bibliographic, chemical, 
# crystal, experimental, refinement or atomic coordinate data resulting 
# from the CCDC's data processing and validation procedures.
#
#######################################################################

data_NADYAT
_symmetry_cell_setting           monoclinic
_symmetry_space_group_name_H-M   'P 21/n'
_symmetry_Int_Tables_number      14
_space_group_name_Hall           '-P 2yn'
loop_
_symmetry_equiv_pos_site_id
_symmetry_equiv_pos_as_xyz
1 x,y,z
2 1/2+x,1/2-y,1/2+z
3 -x,-y,-z
4 1/2-x,1/2+y,1/2-z
_cell_length_a                   9.8404(2)
_cell_length_b                   22.7519(5)
_cell_length_c                   9.8811(2)
_cell_angle_alpha                90
_cell_angle_beta                 100.043(3)
_cell_angle_gamma                90
_cell_volume                     2178.36
loop_
_atom_site_label
_atom_site_type_symbol
_atom_site_fract_x
_atom_site_fract_y
_atom_site_fract_z
La1 La 0.731453(16) -0.000562(9) 0.015182(17)
O1 O 0.6145(2) 0.06919(10) -0.1714(2)
O2 O 0.7777(2) 0.10969(9) -0.0174(2)
O3 O 0.9205(2) 0.02846(10) 0.2013(2)
O4 O 1.1166(2) -0.00892(9) 0.1556(2)
O5 O 0.6511(2) -0.09309(11) -0.1070(3)
O6 O 0.4558(2) -0.04535(10) -0.1186(2)
O7 O 0.9082(2) -0.08861(11) 0.0560(3)
N1 N 0.5215(3) 0.33949(14) -0.3402(3)
H1 H 0.531(4) 0.3648(16) -0.284(4)
H2 H 0.449(3) 0.3425(16) -0.398(3)
N2 N 1.3198(3) 0.07459(13) 0.7760(3)
H3 H 1.401(3) 0.0771(14) 0.786(3)
H4 H 1.291(3) 0.1045(14) 0.803(3)
N3 N 0.2462(4) -0.29216(16) -0.3961(4)
H5 H 0.159(4) -0.2889(17) -0.434(4)
H6 H 0.293(4) -0.3176(18) -0.428(4)
C1 C 0.6805(3) 0.11436(15) -0.1201(3)
C2 C 0.6411(3) 0.17333(15) -0.1784(3)
C3 C 0.5625(3) 0.17898(16) -0.3086(4)
H7 H 0.539(3) 0.1462(14) -0.357(3)
C4 C 0.5241(4) 0.23414(17) -0.3614(4)
H8 H 0.478(3) 0.2369(15) -0.448(3)
C5 C 0.5617(3) 0.28396(16) -0.2844(4)
C6 C 0.6401(4) 0.27866(16) -0.1554(4)
H9 H 0.660(3) 0.3090(15) -0.108(3)
C7 C 0.6796(4) 0.22360(17) -0.1033(4)
H10 H 0.721(3) 0.2227(17) -0.024(3)
C8 C 1.0474(3) 0.01683(13) 0.2355(3)
C9 C 1.1197(3) 0.03370(14) 0.3752(3)
C10 C 1.0544(3) 0.06764(15) 0.4619(3)
H11 H 0.967(3) 0.0784(14) 0.430(3)
C11 C 1.1204(3) 0.08266(15) 0.5917(3)
H12 H 1.076(3) 0.1062(13) 0.653(3)
C12 C 1.2541(3) 0.06274(14) 0.6397(3)
C13 C 1.3195(4) 0.02863(17) 0.5540(4)
H13 H 1.405(3) 0.0141(13) 0.587(3)
C14 C 1.2538(4) 0.01425(16) 0.4238(4)
H14 H 1.302(3) -0.0095(13) 0.363(3)
C15 C 0.5222(3) -0.09030(15) -0.1451(3)
C16 C 0.4499(3) -0.14164(15) -0.2168(3)
C17 C 0.5215(4) -0.19402(17) -0.2259(4)
H15 H 0.615(3) -0.1978(14) -0.189(3)
C18 C 0.4546(4) -0.24351(17) -0.2847(4)
H16 H 0.500(3) -0.2753(15) -0.291(3)
C19 C 0.3145(4) -0.24162(16) -0.3408(4)
C20 C 0.2451(4) -0.18883(18) -0.3362(4)
H17 H 0.154(3) -0.1871(14) -0.374(3)
C21 C 0.3107(3) -0.13989(16) -0.2750(4)
H18 H 0.259(3) -0.1066(14) -0.270(3)
H19 H 0.994(2) -0.0726(15) 0.087(4)
H20 H 0.914(3) -0.1128(13) -0.019(3)
O4B O 0.8834(2) 0.00892(9) -0.1556(2)
O6B O 0.5442(2) 0.04535(10) 0.1186(2)
N2B N 0.6802(3) -0.07459(13) 0.2240(3)
La1B La 1.268547(16) 0.000562(9) -0.015182(17)
La1B_2 La 0.268547(16) 0.000562(9) -0.015182(17)
La1B_3 La 1.268547(16) 0.000562(9) 0.984818(17)
H3B H 0.599(3) -0.0771(14) 0.214(3)
H4B H 0.709(3) -0.1045(14) 0.197(3)
loop_
_geom_bond_atom_site_label_1
_geom_bond_atom_site_label_2
_geom_bond_site_symmetry_1
_geom_bond_site_symmetry_2
La1 O1 1_555 1_555
O1 C1 1_555 1_555
O2 La1 1_555 1_555
O3 La1 1_555 1_555
O4 C8 1_555 1_555
O5 La1 1_555 1_555
O6 La1 1_555 1_555
O7 La1 1_555 1_555
N1 H1 1_555 1_555
H2 N1 1_555 1_555
N2 H3 1_555 1_555
H4 N2 1_555 1_555
N3 H5 1_555 1_555
H6 N3 1_555 1_555
C1 O2 1_555 1_555
C2 C1 1_555 1_555
C3 C2 1_555 1_555
H7 C3 1_555 1_555
C4 C3 1_555 1_555
H8 C4 1_555 1_555
C5 N1 1_555 1_555
C6 C5 1_555 1_555
H9 C6 1_555 1_555
C7 C2 1_555 1_555
H10 C7 1_555 1_555
C8 O3 1_555 1_555
C9 C8 1_555 1_555
C10 C9 1_555 1_555
H11 C10 1_555 1_555
C11 C10 1_555 1_555
H12 C11 1_555 1_555
C12 N2 1_555 1_555
C13 C12 1_555 1_555
H13 C13 1_555 1_555
C14 C9 1_555 1_555
H14 C14 1_555 1_555
C15 O5 1_555 1_555
C16 C15 1_555 1_555
C17 C16 1_555 1_555
H15 C17 1_555 1_555
C18 C17 1_555 1_555
H16 C18 1_555 1_555
C19 N3 1_555 1_555
C20 C19 1_555 1_555
H17 C20 1_555 1_555
C21 C16 1_555 1_555
H18 C21 1_555 1_555
H19 O7 1_555 1_555
H20 O7 1_555 1_555
O4B La1 1_555 1_555
O6B La1 1_555 1_555
N2B La1 1_555 1_555
La1B O4 1_555 1_555
La1B_2 O6 1_555 1_555
La1B_3 N2 1_555 1_555
H3B N2B 1_555 1_555
H4B N2B 1_555 1_555
O6 C15 1_555 1_555
C4 C5 1_555 1_555
C6 C7 1_555 1_555
C11 C12 1_555 1_555
C13 C14 1_555 1_555
C18 C19 1_555 1_555
C20 C21 1_555 1_555
O6B La1B_2 1_555 1_555

#END
