
#######################################################################
#
#                 Cambridge Crystallographic Data Centre
#                                CCDC 
#
#######################################################################
#
# If this CIF has been generated from an entry in the Cambridge 
# Structural Database, then it will include bibliographic, chemical, 
# crystal, experimental, refinement or atomic coordinate data resulting 
# from the CCDC's data processing and validation procedures.
#
#######################################################################

data_NADYOH01
_symmetry_cell_setting           monoclinic
_symmetry_space_group_name_H-M   'P 21/n'
_symmetry_Int_Tables_number      14
_space_group_name_Hall           '-P 2yn'
loop_
_symmetry_equiv_pos_site_id
_symmetry_equiv_pos_as_xyz
1 x,y,z
2 1/2-x,1/2+y,1/2-z
3 -x,-y,-z
4 1/2+x,1/2-y,1/2+z
_cell_length_a                   9.777(1)
_cell_length_b                   22.761(3)
_cell_length_c                   9.837(1)
_cell_angle_alpha                90
_cell_angle_beta                 100.02(1)
_cell_angle_gamma                90
_cell_volume                     2155.68
loop_
_atom_site_label
_atom_site_type_symbol
_atom_site_fract_x
_atom_site_fract_y
_atom_site_fract_z
Sm1 Sm 0.481570(14) -0.498880(7) -0.241300(13)
O1 O 0.3005(2) -0.47245(10) -0.4242(2)
O2 O 0.3446(2) -0.51119(9) -0.6185(2)
O3 O 0.3698(3) -0.45834(10) -0.0718(2)
O4 O 0.3944(3) -0.41924(11) 0.1353(2)
O5 O 0.5125(2) -0.39246(10) -0.2819(2)
O6 O 0.6608(2) -0.43272(9) -0.1143(2)
N1 N -0.2838(3) -0.42729(13) -0.8150(3)
N2 N 0.1092(4) -0.20590(17) -0.2301(5)
N3 N 0.8320(4) -0.16143(14) -0.0246(3)
C1 C 0.0375(3) -0.43337(14) -0.5548(3)
H1 H 0.0687 -0.4209 -0.4646
C2 C -0.0937(3) -0.41853(13) -0.6192(3)
H2 H -0.1493 -0.3951 -0.5737
C3 C -0.1444(3) -0.43838(14) -0.7527(3)
C4 C -0.0586(3) -0.47194(16) -0.8205(3)
H3 H -0.0911 -0.4852 -0.9097
C5 C 0.0748(4) -0.48579(14) -0.7564(3)
H4 H 0.1318 -0.5080 -0.8029
C6 C 0.1244(3) -0.46648(14) -0.6214(3)
C7 C 0.2652(3) -0.48418(12) -0.5503(3)
C8 C 0.2766(4) -0.31227(15) 0.0271(4)
H5 H 0.3135 -0.3133 0.1209
C9 C 0.2192(4) -0.26080(16) -0.0311(4)
H6 H 0.2185 -0.2275 0.0237
C10 C 0.1626(4) -0.25812(15) -0.1699(4)
C11 C 0.1606(4) -0.30918(16) -0.2478(4)
H7 H 0.1184 -0.3088 -0.3401
C12 C 0.2196(4) -0.35983(15) -0.1911(3)
H8 H 0.2193 -0.3931 -0.2462
C13 C 0.2802(3) -0.36266(14) -0.0522(3)
C14 C 0.3513(3) -0.41679(14) 0.0068(3)
C15 C 0.8018(4) -0.32256(15) -0.0616(3)
H9 H 0.8548 -0.3558 -0.0343
C16 C 0.8547(4) -0.26763(15) -0.0236(4)
H10 H 0.9433 -0.2642 0.0286
C17 C 0.7770(4) -0.21729(14) -0.0625(3)
C18 C 0.6457(4) -0.22334(15) -0.1407(4)
H11 H 0.5922 -0.1902 -0.1674
C19 C 0.5935(4) -0.27844(15) -0.1793(4)
H12 H 0.5053 -0.2818 -0.2324
C20 C 0.6701(4) -0.32863(14) -0.1405(3)
C21 C 0.6117(3) -0.38762(14) -0.1818(3)
O7 O 0.4542(3) -0.58632(11) -0.4053(2)
H13 H -0.292(4) -0.4277(15) -0.9037(11)
H14 H -0.311(3) -0.3942(8) -0.790(3)
H15 H 0.067(3) -0.1857(14) -0.178(3)
H16 H 0.062(4) -0.208(2) -0.311(2)
H17 H 0.888(3) -0.1623(15) 0.0532(19)
H18 H 0.768(3) -0.1364(14) -0.019(3)
H19 H 0.520(3) -0.6080(16) -0.410(5)
H20 H 0.427(4) -0.5718(16) -0.481(2)
Sm1B Sm 0.518430(14) -0.501120(7) -0.758700(13)
Sm1B_2 Sm 0.518430(14) -0.501120(7) 0.241300(13)
Sm1B_3 Sm -0.481570(14) -0.501120(7) -0.758700(13)
O2B O 0.6554(2) -0.48881(9) -0.3815(2)
O4B O 0.6056(3) -0.58076(11) -0.1353(2)
N1B N 0.2838(3) -0.57271(13) -0.1850(3)
H13B H 0.292(4) -0.5723(15) -0.0963(11)
H14B H 0.311(3) -0.6058(8) -0.210(3)
loop_
_geom_bond_atom_site_label_1
_geom_bond_atom_site_label_2
_geom_bond_site_symmetry_1
_geom_bond_site_symmetry_2
Sm1 O1 1_555 1_555
O1 C7 1_555 1_555
O2 C7 1_555 1_555
O3 Sm1 1_555 1_555
O4 C14 1_555 1_555
O5 Sm1 1_555 1_555
O6 Sm1 1_555 1_555
N1 C3 1_555 1_555
N2 C10 1_555 1_555
N3 C17 1_555 1_555
C1 H1 1_555 1_555
C2 C1 1_555 1_555
H2 C2 1_555 1_555
C3 C2 1_555 1_555
C4 C3 1_555 1_555
H3 C4 1_555 1_555
C5 C4 1_555 1_555
H4 C5 1_555 1_555
C6 C1 1_555 1_555
C7 C6 1_555 1_555
C8 H5 1_555 1_555
C9 C8 1_555 1_555
H6 C9 1_555 1_555
C10 C9 1_555 1_555
C11 C10 1_555 1_555
H7 C11 1_555 1_555
C12 C11 1_555 1_555
H8 C12 1_555 1_555
C13 C8 1_555 1_555
C14 O3 1_555 1_555
C15 H9 1_555 1_555
C16 C15 1_555 1_555
H10 C16 1_555 1_555
C17 C16 1_555 1_555
C18 C17 1_555 1_555
H11 C18 1_555 1_555
C19 C18 1_555 1_555
H12 C19 1_555 1_555
C20 C15 1_555 1_555
C21 O5 1_555 1_555
O7 Sm1 1_555 1_555
H13 N1 1_555 1_555
H14 N1 1_555 1_555
H15 N2 1_555 1_555
H16 N2 1_555 1_555
H17 N3 1_555 1_555
H18 N3 1_555 1_555
H19 O7 1_555 1_555
H20 O7 1_555 1_555
Sm1B O2 1_555 1_555
Sm1B_2 O4 1_555 1_555
Sm1B_3 N1 1_555 1_555
O2B Sm1 1_555 1_555
O4B Sm1 1_555 1_555
N1B Sm1 1_555 1_555
H13B N1B 1_555 1_555
H14B N1B 1_555 1_555
O6 C21 1_555 1_555
C5 C6 1_555 1_555
C12 C13 1_555 1_555
C13 C14 1_555 1_555
C19 C20 1_555 1_555
C20 C21 1_555 1_555

#END
