
#######################################################################
#
#                 Cambridge Crystallographic Data Centre
#                                CCDC 
#
#######################################################################
#
# If this CIF has been generated from an entry in the Cambridge 
# Structural Database, then it will include bibliographic, chemical, 
# crystal, experimental, refinement or atomic coordinate data resulting 
# from the CCDC's data processing and validation procedures.
#
#######################################################################

data_NADZEZ
_symmetry_cell_setting           orthorhombic
_symmetry_space_group_name_H-M   'F d d 2'
_symmetry_Int_Tables_number      43
_space_group_name_Hall           'F 2 -2d'
loop_
_symmetry_equiv_pos_site_id
_symmetry_equiv_pos_as_xyz
1 x,y,z
2 -x,-y,z
3 1/4+x,1/4-y,1/4+z
4 1/4-x,1/4+y,1/4+z
5 x,1/2+y,1/2+z
6 -x,1/2-y,1/2+z
7 1/4+x,3/4-y,3/4+z
8 1/4-x,3/4+y,3/4+z
9 1/2+x,y,1/2+z
10 1/2-x,-y,1/2+z
11 3/4+x,1/4-y,3/4+z
12 3/4-x,1/4+y,3/4+z
13 1/2+x,1/2+y,z
14 1/2-x,1/2-y,z
15 3/4+x,3/4-y,1/4+z
16 3/4-x,3/4+y,1/4+z
_cell_length_a                   17.906(4)
_cell_length_b                   18.919(4)
_cell_length_c                   28.408(6)
_cell_angle_alpha                90
_cell_angle_beta                 90
_cell_angle_gamma                90
_cell_volume                     9623.6
loop_
_atom_site_label
_atom_site_type_symbol
_atom_site_fract_x
_atom_site_fract_y
_atom_site_fract_z
Y1 Y -1.5000 -0.5000 -0.99196(5)
Y2 Y -1.2500 -0.7500 -0.75383(5)
Y3 Y -1.24362(5) -0.49606(6) -0.88585(4)
C1 C -1.4171(5) -0.6206(8) -0.8156(5)
C2 C -1.4580(7) -0.5982(8) -0.8551(5)
H1 H -1.4328 -0.5822 -0.8817
C3 C -1.5367(7) -0.5999(7) -0.8548(5)
C4 C -1.5737(6) -0.6259(9) -0.8157(6)
H2 H -1.6256 -0.6284 -0.8158
C5 C -1.5348(7) -0.6481(7) -0.7768(5)
C6 C -1.4572(7) -0.6458(7) -0.7761(5)
H3 H -1.4315 -0.6610 -0.7495
C7 C -1.3362(5) -0.6186(8) -0.8164(5)
C8 C -1.5789(7) -0.5731(7) -0.8965(5)
C9 C -1.5760(7) -0.6757(7) -0.7336(5)
C10 C -1.6627(6) -0.6101(6) -1.0767(5)
C11 C -1.7010(6) -0.6376(7) -1.1144(5)
H4 H -1.6749 -0.6522 -1.1410
C12 C -1.7792(7) -0.6439(8) -1.1132(5)
C13 C -1.8167(6) -0.6189(8) -1.0730(5)
H5 H -1.8686 -0.6202 -1.0723
C14 C -1.7793(7) -0.5929(7) -1.0351(4)
C15 C -1.6999(6) -0.5889(7) -1.0364(4)
H6 H -1.6734 -0.5722 -1.0105
C16 C -1.5778(6) -0.6044(6) -1.0784(4)
C17 C -1.8208(6) -0.6782(7) -1.1527(5)
C18 C -1.8208(7) -0.5671(7) -0.9931(5)
C19 C -1.1578(13) -0.4978(11) -0.7735(9)
H7 H -1.1085 -0.4992 -0.7837
C20 C -1.2476(9) -0.4969(11) -0.7136(11)
H8 H -1.2504 -0.4961 -0.6799
H9 H -1.2717 -0.5388 -0.7252
H10 H -1.2722 -0.4560 -0.7262
C21 C -1.1004(16) -0.4989(16) -0.7053(11)
H11 H -1.1087 -0.4981 -0.6719
H12 H -1.0711 -0.4587 -0.7143
H13 H -1.0744 -0.5415 -0.7137
N1 N -1.1683(8) -0.4969(8) -0.7284(6)
O1 O -1.2990(5) -0.6468(5) -0.7827(3)
O2 O -1.3043(5) -0.5848(6) -0.8495(4)
O3 O -1.5467(5) -0.5668(6) -0.9344(4)
O4 O -1.6468(4) -0.5602(5) -0.8903(4)
O5 O -1.6445(4) -0.6887(5) -0.7376(4)
O6 O -1.5398(5) -0.6844(5) -0.6960(3)
O7 O -1.5455(4) -0.5700(5) -1.0472(3)
O8 O -1.5466(4) -0.6338(5) -1.1127(3)
O9 O -1.8859(5) -0.6948(6) -1.1458(4)
O10 O -1.7869(5) -0.6867(6) -1.1899(4)
O11 O -1.7874(5) -0.5631(5) -0.9542(4)
O12 O -1.8902(4) -0.5531(6) -0.9989(4)
O13 O -1.2081(7) -0.4970(6) -0.8053(4)
O15 O -1.2500 -0.7500 -0.8360(8)
Y1N Y -1.7500 -0.7500 -0.74196(5)
Y1B Y -1.2500 -0.2500 -0.74196(5)
Y2E Y -1.7500 -0.7500 -1.25383(5)
Y2F Y -2.0000 -0.5000 -1.00383(5)
Y2A Y -1.7500 -0.2500 -0.75383(5)
Y2D Y -1.2500 -0.2500 -1.25383(5)
Y2F_2 Y -1.0000 -0.5000 -1.00383(5)
Y3A Y -1.75638(5) -0.50394(6) -0.88585(4)
Y3N Y -1.49362(5) -0.75394(6) -0.63585(4)
Y3G Y -1.50638(5) -0.74606(6) -1.13585(4)
Y3F Y -1.99362(5) -0.75394(6) -1.13585(4)
Y3C Y -1.50638(5) -0.24606(6) -0.63585(4)
Y3J Y -1.49362(5) -0.25394(6) -1.13585(4)
Y3K Y -1.00638(5) -0.24606(6) -1.13585(4)
C1A C -1.5829(5) -0.3794(8) -0.8156(5)
C2A C -1.5420(7) -0.4018(8) -0.8551(5)
H1A H -1.5672 -0.4178 -0.8817
C3A C -1.4633(7) -0.4001(7) -0.8548(5)
C4A C -1.4263(6) -0.3741(9) -0.8157(6)
H2A H -1.3744 -0.3716 -0.8158
C5A C -1.4652(7) -0.3519(7) -0.7768(5)
C6A C -1.5428(7) -0.3542(7) -0.7761(5)
H3A H -1.5685 -0.3390 -0.7495
C7A C -1.6638(5) -0.3814(8) -0.8164(5)
C8A C -1.4211(7) -0.4269(7) -0.8965(5)
C9A C -1.4240(7) -0.3243(7) -0.7336(5)
C10A C -1.3373(6) -0.3899(6) -1.0767(5)
C11A C -1.2990(6) -0.3624(7) -1.1144(5)
H4A H -1.3251 -0.3478 -1.1410
C12A C -1.2208(7) -0.3561(8) -1.1132(5)
C13A C -1.1833(6) -0.3811(8) -1.0730(5)
H5A H -1.1314 -0.3798 -1.0723
C14A C -1.2207(7) -0.4071(7) -1.0351(4)
C15A C -1.3001(6) -0.4111(7) -1.0364(4)
H6A H -1.3266 -0.4278 -1.0105
C16A C -1.4222(6) -0.3956(6) -1.0784(4)
C17A C -1.1792(6) -0.3218(7) -1.1527(5)
C18A C -1.1792(7) -0.4329(7) -0.9931(5)
C19A C -1.8422(13) -0.5022(11) -0.7735(9)
H7A H -1.8915 -0.5008 -0.7837
C20A C -1.7524(9) -0.5031(11) -0.7136(11)
H8A H -1.7496 -0.5039 -0.6799
H9A H -1.7283 -0.4612 -0.7252
H10A H -1.7278 -0.5440 -0.7262
C21A C -1.8996(16) -0.5011(16) -0.7053(11)
H11A H -1.8913 -0.5019 -0.6719
H12A H -1.9289 -0.5413 -0.7143
H13A H -1.9256 -0.4585 -0.7137
N1A N -1.8317(8) -0.5031(8) -0.7284(6)
O1A O -1.7010(5) -0.3532(5) -0.7827(3)
O1M O -1.2010(5) -0.8532(5) -0.7827(3)
O2A O -1.6957(5) -0.4152(6) -0.8495(4)
O3A O -1.4533(5) -0.4332(6) -0.9344(4)
O4A O -1.3532(4) -0.4398(5) -0.8903(4)
O5A O -1.3555(4) -0.3113(5) -0.7376(4)
O5F O -1.3945(4) -0.5613(5) -0.9876(4)
O5K O -1.6055(4) -0.4387(5) -0.9876(4)
O6A O -1.4602(5) -0.3156(5) -0.6960(3)
O6F O -1.2898(5) -0.5656(5) -0.9460(3)
O6K O -1.7102(5) -0.4344(5) -0.9460(3)
O7A O -1.4545(4) -0.4300(5) -1.0472(3)
O8A O -1.4534(4) -0.3662(5) -1.1127(3)
O8C O -1.2034(4) -0.3838(5) -0.8627(3)
O8N O -1.7966(4) -0.6162(5) -0.8627(3)
O9A O -1.1141(5) -0.3052(6) -1.1458(4)
O9N O -1.1359(5) -0.5552(6) -0.8958(4)
O9C O -1.8641(5) -0.4448(6) -0.8958(4)
O10A O -1.2131(5) -0.3133(6) -1.1899(4)
O10E O -1.2131(5) -0.8133(6) -0.6899(4)
O10H O -1.2869(5) -0.6867(6) -0.6899(4)
O11A O -1.2126(5) -0.4369(5) -0.9542(4)
O12A O -1.1098(4) -0.4469(6) -0.9989(4)
O12N O -1.1402(4) -0.6969(6) -0.7489(4)
O12O O -1.3598(4) -0.8031(6) -0.7489(4)
O13A O -1.7919(7) -0.5030(6) -0.8053(4)
O14 O -1.2500 -0.7500 -0.9425(11)
loop_
_geom_bond_atom_site_label_1
_geom_bond_atom_site_label_2
_geom_bond_site_symmetry_1
_geom_bond_site_symmetry_2
Y1 O3 1_555 1_555
Y2 O1 1_555 1_555
Y3 O2 1_555 1_555
C1 C2 1_555 1_555
C2 H1 1_555 1_555
C3 C2 1_555 1_555
C4 C3 1_555 1_555
H2 C4 1_555 1_555
C5 C4 1_555 1_555
C6 C1 1_555 1_555
H3 C6 1_555 1_555
C7 C1 1_555 1_555
C8 C3 1_555 1_555
C9 C5 1_555 1_555
C10 C11 1_555 1_555
C11 H4 1_555 1_555
C12 C11 1_555 1_555
C13 C12 1_555 1_555
H5 C13 1_555 1_555
C14 C13 1_555 1_555
C15 C10 1_555 1_555
H6 C15 1_555 1_555
C16 C10 1_555 1_555
C17 C12 1_555 1_555
C18 C14 1_555 1_555
C19 H7 1_555 1_555
C20 H8 1_555 1_555
H9 C20 1_555 1_555
H10 C20 1_555 1_555
C21 H11 1_555 1_555
H12 C21 1_555 1_555
H13 C21 1_555 1_555
N1 C19 1_555 1_555
O1 C7 1_555 1_555
O2 C7 1_555 1_555
O3 C8 1_555 1_555
O4 C8 1_555 1_555
O5 C9 1_555 1_555
O6 C9 1_555 1_555
O7 Y1 1_555 1_555
O8 C16 1_555 1_555
O9 C17 1_555 1_555
O10 C17 1_555 1_555
O11 C18 1_555 1_555
O12 C18 1_555 1_555
O13 Y3 1_555 1_555
O15 Y2 1_555 1_555
Y1N O5 1_555 1_555
Y1B O5A 1_555 1_555
Y2E O10 1_555 1_555
Y2F O12 1_555 1_555
Y2A O1A 1_555 1_555
Y2D O10A 1_555 1_555
Y2F_2 O12A 1_555 1_555
Y3A O4 1_555 1_555
Y3N O6 1_555 1_555
Y3G O8 1_555 1_555
Y3F O9 1_555 1_555
Y3C O6A 1_555 1_555
Y3J O8A 1_555 1_555
Y3K O9A 1_555 1_555
C1A C2A 1_555 1_555
C2A H1A 1_555 1_555
C3A C2A 1_555 1_555
C4A C3A 1_555 1_555
H2A C4A 1_555 1_555
C5A C4A 1_555 1_555
C6A C1A 1_555 1_555
H3A C6A 1_555 1_555
C7A C1A 1_555 1_555
C8A C3A 1_555 1_555
C9A C5A 1_555 1_555
C10A C11A 1_555 1_555
C11A H4A 1_555 1_555
C12A C11A 1_555 1_555
C13A C12A 1_555 1_555
H5A C13A 1_555 1_555
C14A C13A 1_555 1_555
C15A C10A 1_555 1_555
H6A C15A 1_555 1_555
C16A C10A 1_555 1_555
C17A C12A 1_555 1_555
C18A C14A 1_555 1_555
C19A H7A 1_555 1_555
C20A H8A 1_555 1_555
H9A C20A 1_555 1_555
H10A C20A 1_555 1_555
C21A H11A 1_555 1_555
H12A C21A 1_555 1_555
H13A C21A 1_555 1_555
N1A C19A 1_555 1_555
O1A C7A 1_555 1_555
O1M Y2 1_555 1_555
O2A Y3A 1_555 1_555
O3A Y1 1_555 1_555
O4A Y3 1_555 1_555
O5A C9A 1_555 1_555
O5F Y1 1_555 1_555
O5K Y1 1_555 1_555
O6A C9A 1_555 1_555
O6F Y3 1_555 1_555
O6K Y3A 1_555 1_555
O7A Y1 1_555 1_555
O8A C16A 1_555 1_555
O8C Y3 1_555 1_555
O8N Y3A 1_555 1_555
O9A C17A 1_555 1_555
O9N Y3 1_555 1_555
O9C Y3A 1_555 1_555
O10A C17A 1_555 1_555
O10E Y2 1_555 1_555
O10H Y2 1_555 1_555
O11A Y3 1_555 1_555
O12A C18A 1_555 1_555
O12N Y2 1_555 1_555
O12O Y2 1_555 1_555
O13A Y3A 1_555 1_555
C5 C6 1_555 1_555
C14 C15 1_555 1_555
C16 O7 1_555 1_555
C19 O13 1_555 1_555
C20 N1 1_555 1_555
C21 N1 1_555 1_555
O11 Y3A 1_555 1_555
C5A C6A 1_555 1_555
C7A O2A 1_555 1_555
C8A O3A 1_555 1_555
C8A O4A 1_555 1_555
C14A C15A 1_555 1_555
C16A O7A 1_555 1_555
C18A O11A 1_555 1_555
C19A O13A 1_555 1_555
C20A N1A 1_555 1_555
C21A N1A 1_555 1_555

#END
