
#######################################################################
#
#                 Cambridge Crystallographic Data Centre
#                                CCDC 
#
#######################################################################
#
# If this CIF has been generated from an entry in the Cambridge 
# Structural Database, then it will include bibliographic, chemical, 
# crystal, experimental, refinement or atomic coordinate data resulting 
# from the CCDC's data processing and validation procedures.
#
#######################################################################

data_NAFBAY
_symmetry_cell_setting           triclinic
_symmetry_space_group_name_H-M   'P -1'
_symmetry_Int_Tables_number      2
_space_group_name_Hall           '-P 1'
loop_
_symmetry_equiv_pos_site_id
_symmetry_equiv_pos_as_xyz
1 x,y,z
2 -x,-y,-z
_cell_length_a                   7.078(2)
_cell_length_b                   10.152(3)
_cell_length_c                   10.784(3)
_cell_angle_alpha                96.107(6)
_cell_angle_beta                 99.163(7)
_cell_angle_gamma                101.792(6)
_cell_volume                     741.082
loop_
_atom_site_label
_atom_site_type_symbol
_atom_site_fract_x
_atom_site_fract_y
_atom_site_fract_z
Hg1 Hg 0.00954(4) -0.25339(3) -0.12507(3)
Cl1 Cl 0.0128(3) -0.2808(2) -0.34007(19)
O1 O -0.2665(8) -0.5607(5) 0.0965(5)
O2 O -0.2030(7) -0.4650(5) -0.0747(5)
O3 O 0.2196(8) -0.0268(5) -0.0283(5)
N1 N 0.0171(8) -0.2319(5) 0.0808(5)
C1 C -0.1886(10) -0.4649(7) 0.0435(7)
C2 C -0.0721(10) -0.3380(7) 0.1326(7)
C3 C -0.0608(11) -0.3275(7) 0.2617(7)
H1 H -0.1172 -0.4129 0.2934
C4 C 0.0153(10) -0.2168(6) 0.3500(7)
H2 H 0.0046 -0.2140 0.4430
C5 C 0.1174(11) -0.0970(7) 0.2829(7)
H3 H 0.1880 -0.0077 0.3341
C6 C 0.1125(10) -0.1144(7) 0.1514(7)
C7 C 0.2097(10) 0.0021(7) 0.0886(8)
O5 O 0.2707(7) 0.1142(5) 0.1545(5)
Hg1A Hg -0.00954(4) -0.74661(3) 0.12507(3)
O1A O 0.2665(8) -0.4393(5) -0.0965(5)
Hg1A_2 Hg -0.00954(4) 0.25339(3) 0.12507(3)
O5A O -0.2707(7) -0.1142(5) -0.1545(5)
N2 N 0.4431(9) -0.3134(6) 0.2544(6)
H4 H 0.3722 -0.4011 0.2002
N3 N 0.3506(10) -0.4138(6) 0.4268(7)
H5 H 0.3972 -0.4157 0.5187
H6 H 0.3035 -0.4539 0.3366
N4 N 0.5232(9) -0.2294(6) 0.0738(7)
H7 H 0.5754 -0.1437 0.0408
H8 H 0.4716 -0.3265 0.0341
C8 C 0.4483(11) -0.3053(7) 0.3821(8)
C9 C 0.5465(11) -0.1830(7) 0.4604(7)
H9 H 0.5561 -0.1738 0.5551
C10 C 0.6292(11) -0.0762(7) 0.4032(8)
H10 H 0.6944 0.0117 0.4580
C11 C 0.6232(11) -0.0856(7) 0.2749(8)
H11 H 0.6829 -0.0049 0.2371
C12 C 0.5312(10) -0.2096(7) 0.1967(7)
O4 O 0.5057(8) -0.6326(5) 0.2873(6)
H12 H 0.6095 -0.6152 0.2347
H13 H 0.5027 -0.7314 0.2837
loop_
_geom_bond_atom_site_label_1
_geom_bond_atom_site_label_2
_geom_bond_site_symmetry_1
_geom_bond_site_symmetry_2
Hg1 Cl1 1_555 1_555
O1 C1 1_555 1_555
O2 Hg1 1_555 1_555
O3 Hg1 1_555 1_555
N1 Hg1 1_555 1_555
C1 O2 1_555 1_555
C2 N1 1_555 1_555
C3 C2 1_555 1_555
H1 C3 1_555 1_555
C4 C3 1_555 1_555
H2 C4 1_555 1_555
C5 C4 1_555 1_555
H3 C5 1_555 1_555
C6 N1 1_555 1_555
C7 O3 1_555 1_555
N2 H4 1_555 1_555
N3 H5 1_555 1_555
H6 N3 1_555 1_555
N4 H7 1_555 1_555
H8 N4 1_555 1_555
C8 N2 1_555 1_555
C9 C8 1_555 1_555
H9 C9 1_555 1_555
C10 C9 1_555 1_555
H10 C10 1_555 1_555
C11 C10 1_555 1_555
H11 C11 1_555 1_555
C12 N2 1_555 1_555
O4 H12 1_555 1_555
H13 O4 1_555 1_555
O5 C7 1_555 1_555
Hg1A O1 1_555 1_555
O1A Hg1 1_555 1_555
Hg1A_2 O5 1_555 1_555
O5A Hg1 1_555 1_555
C1 C2 1_555 1_555
C5 C6 1_555 1_555
C6 C7 1_555 1_555
N3 C8 1_555 1_555
N4 C12 1_555 1_555
C11 C12 1_555 1_555

#END
