
#######################################################################
#
#                 Cambridge Crystallographic Data Centre
#                                CCDC 
#
#######################################################################
#
# If this CIF has been generated from an entry in the Cambridge 
# Structural Database, then it will include bibliographic, chemical, 
# crystal, experimental, refinement or atomic coordinate data resulting 
# from the CCDC's data processing and validation procedures.
#
#######################################################################

data_NAFCUU
_symmetry_cell_setting           triclinic
_symmetry_space_group_name_H-M   'P -1'
_symmetry_Int_Tables_number      2
_space_group_name_Hall           '-P 1'
loop_
_symmetry_equiv_pos_site_id
_symmetry_equiv_pos_as_xyz
1 x,y,z
2 -x,-y,-z
_cell_length_a                   5.570(2)
_cell_length_b                   8.363(3)
_cell_length_c                   8.784(3)
_cell_angle_alpha                76.804(5)
_cell_angle_beta                 81.500(5)
_cell_angle_gamma                82.997(5)
_cell_volume                     392.34
loop_
_atom_site_label
_atom_site_type_symbol
_atom_site_fract_x
_atom_site_fract_y
_atom_site_fract_z
Cu1 Cu -0.41563(11) 0.36088(8) 0.93504(7)
O1 O -0.6105(6) 0.4731(4) 0.7654(4)
O2 O -1.3669(7) 0.9012(5) 0.8412(4)
O3 O -0.7742(6) 0.6847(4) 0.8781(4)
O4 O -1.2896(6) 0.6300(4) 0.9141(4)
N1 N -1.2123(8) 0.8784(5) 0.2342(5)
H1 H -1.3443 0.9388 0.2125
N2 N -0.8574(7) 0.7338(5) 0.1964(4)
C1 C -0.9143(8) 0.7293(6) 0.3584(5)
C2 C -0.8938(8) 0.6707(6) 0.6356(5)
C3 C -1.2497(9) 0.8350(7) 0.5312(6)
H2 H -1.4015 0.8932 0.5455
C4 C -1.2681(8) 0.7680(6) 0.8162(6)
C5 C -1.1279(9) 0.7609(6) 0.6573(6)
C6 C -1.1412(9) 0.8210(6) 0.3821(6)
C7 C -0.7892(9) 0.6559(6) 0.4853(6)
H3 H -0.6376 0.5976 0.4700
C8 C -1.0416(9) 0.8241(7) 0.1310(6)
H4 H -1.0508 0.8474 0.0232
C9 C -0.7508(9) 0.6033(6) 0.7724(5)
Cu1A Cu -0.58437(11) 0.63912(8) 1.06496(7)
Cu1A_2 Cu -1.58437(11) 0.63912(8) 1.06496(7)
Cu1_2 Cu -1.41563(11) 0.36088(8) 0.93504(7)
Cu1A_3 Cu -0.58437(11) 0.63912(8) 0.06496(7)
O3A O -0.2258(6) 0.3153(4) 1.1219(4)
O4A O -0.7104(6) 0.3700(4) 1.0859(4)
O4_2 O -0.2896(6) 0.6300(4) 0.9141(4)
N2A N -0.1426(7) 0.2662(5) 0.8036(4)
loop_
_geom_bond_atom_site_label_1
_geom_bond_atom_site_label_2
_geom_bond_site_symmetry_1
_geom_bond_site_symmetry_2
Cu1 O1 1_555 1_555
O1 C9 1_555 1_555
O2 C4 1_555 1_555
O3 C9 1_555 1_555
O4 C4 1_555 1_555
N1 H1 1_555 1_555
N2 C1 1_555 1_555
C1 C6 1_555 1_555
C2 C5 1_555 1_555
C3 H2 1_555 1_555
C4 C5 1_555 1_555
C5 C3 1_555 1_555
C6 N1 1_555 1_555
C7 C1 1_555 1_555
H3 C7 1_555 1_555
C8 N1 1_555 1_555
H4 C8 1_555 1_555
C9 C2 1_555 1_555
Cu1A O3 1_555 1_555
Cu1A_2 O4 1_555 1_555
Cu1_2 O4 1_555 1_555
Cu1A_3 N2 1_555 1_555
O3A Cu1 1_555 1_555
O4A Cu1 1_555 1_555
O4_2 Cu1 1_555 1_555
N2A Cu1 1_555 1_555
N2 C8 1_555 1_555
C2 C7 1_555 1_555
C3 C6 1_555 1_555
Cu1A O4A 1_555 1_555
Cu1A O4_2 1_555 1_555

#END
