
#######################################################################
#
#                 Cambridge Crystallographic Data Centre
#                                CCDC 
#
#######################################################################
#
# If this CIF has been generated from an entry in the Cambridge 
# Structural Database, then it will include bibliographic, chemical, 
# crystal, experimental, refinement or atomic coordinate data resulting 
# from the CCDC's data processing and validation procedures.
#
#######################################################################

data_NAFCOO
_symmetry_cell_setting           monoclinic
_symmetry_space_group_name_H-M   'C 2/c'
_symmetry_Int_Tables_number      15
_space_group_name_Hall           '-C 2yn'
loop_
_symmetry_equiv_pos_site_id
_symmetry_equiv_pos_as_xyz
1 x,y,z
2 -x,y,1/2-z
3 1/2+x,1/2+y,z
4 1/2-x,1/2+y,1/2-z
5 -x,-y,-z
6 x,-y,1/2+z
7 1/2-x,1/2-y,-z
8 1/2+x,1/2-y,1/2+z
_cell_length_a                   22.392(2)
_cell_length_b                   9.1191(10)
_cell_length_c                   13.0415(14)
_cell_angle_alpha                90
_cell_angle_beta                 121.317(1)
_cell_angle_gamma                90
_cell_volume                     2275.02
loop_
_atom_site_label
_atom_site_type_symbol
_atom_site_fract_x
_atom_site_fract_y
_atom_site_fract_z
Cu1 Cu 0.700874(19) 0.14544(4) 0.12355(4)
O1 O 0.78954(11) 0.2728(2) 0.16516(19)
O2 O 0.70940(12) 0.0398(3) -0.0075(2)
H1 H 0.7007 0.0970 -0.0665
H2 H 0.6895 -0.0434 -0.0361
O3 O 0.80270(11) 0.0574(2) 0.2480(2)
O4 O 0.70392(12) 0.2500(3) 0.2698(2)
H3 H 0.6978 0.3431 0.2593
H4 H 0.6692 0.2114 0.2703
O6 O 0.85813(11) 0.4782(2) 0.3734(2)
O8 O 0.89778(13) 0.5757(3) 0.2632(2)
N1 N 1.12332(13) 0.2171(3) 0.5034(2)
N2 N 1.07570(13) -0.0021(3) 0.4346(2)
H8 H 1.0730 -0.0948 0.4209
C1 C 0.90649(15) 0.1957(3) 0.3066(3)
C2 C 0.93629(15) 0.3371(3) 0.3429(3)
C3 C 1.00841(15) 0.3565(4) 0.4076(3)
H9 H 1.0280 0.4495 0.4307
C4 C 1.05028(15) 0.2322(3) 0.4367(3)
C5 C 1.13455(16) 0.0763(4) 0.4975(3)
H10 H 1.1790 0.0353 0.5336
C6 C 1.02016(16) 0.0938(3) 0.3959(3)
C7 C 0.94836(16) 0.0727(3) 0.3321(3)
H11 H 0.9290 -0.0203 0.3074
C8 C 0.82894(15) 0.1737(3) 0.2362(3)
C9 C 0.89318(15) 0.4746(3) 0.3223(3)
Cu1C Cu 0.799126(19) 0.64544(4) 0.37645(4)
Cu1G Cu 1.200874(19) 0.35456(4) 0.62355(4)
O6C O 0.64187(11) -0.0218(2) 0.1266(2)
N1G N 0.62332(13) 0.2829(3) 0.0034(2)
O5 O 0.66345(17) -0.2416(3) 0.0008(3)
H5 H 0.6823 -0.1985 -0.0329
H6 H 0.6419 -0.1732 0.0145
O7 O 0.5000 0.7558(5) 0.7500
H7 H 0.4645 0.8143 0.7253
H7A H 0.5355 0.8143 0.7747
loop_
_geom_bond_atom_site_label_1
_geom_bond_atom_site_label_2
_geom_bond_site_symmetry_1
_geom_bond_site_symmetry_2
Cu1 O1 1_555 1_555
O1 C8 1_555 1_555
O2 Cu1 1_555 1_555
H1 O2 1_555 1_555
H2 O2 1_555 1_555
O3 Cu1 1_555 1_555
O4 Cu1 1_555 1_555
H3 O4 1_555 1_555
H4 O4 1_555 1_555
O5 H5 1_555 1_555
H6 O5 1_555 1_555
O6 C9 1_555 1_555
O7 H7 1_555 1_555
O8 C9 1_555 1_555
N1 C4 1_555 1_555
N2 H8 1_555 1_555
C1 C2 1_555 1_555
C2 C3 1_555 1_555
C3 H9 1_555 1_555
C4 C3 1_555 1_555
C5 N1 1_555 1_555
H10 C5 1_555 1_555
C6 N2 1_555 1_555
C7 C1 1_555 1_555
H11 C7 1_555 1_555
C8 O3 1_555 1_555
C9 C2 1_555 1_555
Cu1C O6 1_555 1_555
Cu1G N1 1_555 1_555
O6C Cu1 1_555 1_555
H7A O7 1_555 1_555
N1G Cu1 1_555 1_555
N2 C5 1_555 1_555
C1 C8 1_555 1_555
C4 C6 1_555 1_555
C6 C7 1_555 1_555

#END
