
#######################################################################
#
#                 Cambridge Crystallographic Data Centre
#                                CCDC 
#
#######################################################################
#
# If this CIF has been generated from an entry in the Cambridge 
# Structural Database, then it will include bibliographic, chemical, 
# crystal, experimental, refinement or atomic coordinate data resulting 
# from the CCDC's data processing and validation procedures.
#
#######################################################################

data_NAFGAE
_symmetry_cell_setting           triclinic
_symmetry_space_group_name_H-M   'P -1'
_symmetry_Int_Tables_number      2
_space_group_name_Hall           '-P 1'
loop_
_symmetry_equiv_pos_site_id
_symmetry_equiv_pos_as_xyz
1 x,y,z
2 -x,-y,-z
_cell_length_a                   6.9699(5)
_cell_length_b                   7.3033(5)
_cell_length_c                   12.5821(8)
_cell_angle_alpha                100.790(3)
_cell_angle_beta                 90.007(4)
_cell_angle_gamma                114.041(3)
_cell_volume                     572.484
loop_
_atom_site_label
_atom_site_type_symbol
_atom_site_fract_x
_atom_site_fract_y
_atom_site_fract_z
Mn1 Mn 0.0000 0.5000 0.0000
Mn2 Mn -0.5000 0.0000 0.0000
O1 O -0.14636(17) 0.16819(16) 0.02104(9)
H1 H -0.094(4) 0.125(4) -0.0321(11)
H2 H -0.104(4) 0.143(4) 0.0752(11)
O2 O -0.5317(2) 0.22006(18) 0.13058(9)
H3 H -0.445(3) 0.3376(19) 0.1291(16)
H4 H -0.527(4) 0.204(3) 0.1932(11)
O3 O 0.20051(16) 0.58067(17) 0.14986(8)
O4 O 0.49898(18) 0.80127(19) 0.10067(9)
O5 O 0.5325(3) 0.7911(3) 0.65478(10)
O6 O 0.2310(2) 0.7142(2) 0.55848(10)
H5 H 0.170(5) 0.713(5) 0.627(3)
O7 O 0.98215(19) 0.91594(18) 0.15606(11)
O8 O 0.78906(16) 0.58050(15) 0.10525(8)
C1 C 0.3946(2) 0.6974(2) 0.16543(10)
C2 C 0.5124(2) 0.7159(2) 0.26940(10)
C3 C 0.4155(2) 0.7124(2) 0.36598(11)
H6 H 0.2738 0.6883 0.3652
C4 C 0.5291(3) 0.7446(2) 0.46414(11)
C5 C 0.4313(3) 0.7518(3) 0.56912(12)
C6 C 0.7385(3) 0.7752(3) 0.46485(13)
H7 H 0.8136 0.7933 0.5299
C7 C 0.8368(3) 0.7791(3) 0.36915(13)
H8 H 0.9777 0.8002 0.3703
C8 C 0.7256(2) 0.7514(2) 0.27125(11)
C9 C 0.8387(2) 0.7506(2) 0.16895(12)
Mn1_2 Mn 1.0000 0.5000 0.0000
Mn1_3 Mn -1.0000 0.5000 0.0000
Mn2_2 Mn 0.5000 1.0000 0.0000
O1A O 0.14636(17) 0.83181(16) -0.02104(9)
O1A_2 O -0.85364(17) -0.16819(16) -0.02104(9)
H1A H 0.094(4) 0.875(4) 0.0321(11)
H1A_2 H -0.906(4) -0.125(4) 0.0321(11)
H2A H 0.104(4) 0.857(4) -0.0752(11)
H2A_2 H -0.896(4) -0.143(4) -0.0752(11)
O2A O -0.4683(2) -0.22006(18) -0.13058(9)
H3A H -0.555(3) -0.3376(19) -0.1291(16)
H4A H -0.473(4) -0.204(3) -0.1932(11)
O3A O -0.20051(16) 0.41933(17) -0.14986(8)
O4A O -0.49898(18) 0.19873(19) -0.10067(9)
O4_2 O -0.50102(18) -0.19873(19) 0.10067(9)
O5A O -0.5325(3) 0.2089(3) -0.65478(10)
O6A O -0.2310(2) 0.2858(2) -0.55848(10)
H5A H -0.170(5) 0.287(5) -0.627(3)
O7A O -0.98215(19) 0.08406(18) -0.15606(11)
O8A O -0.78906(16) 0.41950(15) -0.10525(8)
O8_2 O -0.21094(16) 0.58050(15) 0.10525(8)
O8A_2 O 0.21094(16) 0.41950(15) -0.10525(8)
C1A C -0.3946(2) 0.3026(2) -0.16543(10)
C2A C -0.5124(2) 0.2841(2) -0.26940(10)
C3A C -0.4155(2) 0.2876(2) -0.36598(11)
H6A H -0.2738 0.3117 -0.3652
C4A C -0.5291(3) 0.2554(2) -0.46414(11)
C5A C -0.4313(3) 0.2482(3) -0.56912(12)
C6A C -0.7385(3) 0.2248(3) -0.46485(13)
H7A H -0.8136 0.2067 -0.5299
C7A C -0.8368(3) 0.2209(3) -0.36915(13)
H8A H -0.9777 0.1998 -0.3703
C8A C -0.7256(2) 0.2486(2) -0.27125(11)
C9A C -0.8387(2) 0.2494(2) -0.16895(12)
O9 O 1.0274(3) 0.7260(3) 0.73412(13)
H9 H 0.937(5) 0.627(5) 0.755(2)
H10 H 1.003(4) 0.837(5) 0.755(2)
loop_
_geom_bond_atom_site_label_1
_geom_bond_atom_site_label_2
_geom_bond_site_symmetry_1
_geom_bond_site_symmetry_2
Mn1 O1 1_555 1_555
Mn2 O1 1_555 1_555
O1 H1 1_555 1_555
H2 O1 1_555 1_555
O2 Mn2 1_555 1_555
H3 O2 1_555 1_555
H4 O2 1_555 1_555
O3 Mn1 1_555 1_555
O4 C1 1_555 1_555
O5 C5 1_555 1_555
O6 H5 1_555 1_555
O7 C9 1_555 1_555
O8 C9 1_555 1_555
C1 O3 1_555 1_555
C2 C1 1_555 1_555
C3 C2 1_555 1_555
H6 C3 1_555 1_555
C4 C3 1_555 1_555
C5 O6 1_555 1_555
C6 C4 1_555 1_555
H7 C6 1_555 1_555
C7 C6 1_555 1_555
H8 C7 1_555 1_555
C8 C2 1_555 1_555
C9 C8 1_555 1_555
O9 H9 1_555 1_555
H10 O9 1_555 1_555
Mn1_2 O8 1_555 1_555
Mn1_3 O8A 1_555 1_555
Mn2_2 O4 1_555 1_555
O1A Mn1 1_555 1_555
O1A_2 Mn2 1_555 1_555
H1A O1A 1_555 1_555
H1A_2 O1A_2 1_555 1_555
H2A O1A 1_555 1_555
H2A_2 O1A_2 1_555 1_555
O2A Mn2 1_555 1_555
H3A O2A 1_555 1_555
H4A O2A 1_555 1_555
O3A Mn1 1_555 1_555
O4A Mn2 1_555 1_555
O4_2 Mn2 1_555 1_555
O5A C5A 1_555 1_555
O6A H5A 1_555 1_555
O7A C9A 1_555 1_555
O8A C9A 1_555 1_555
O8_2 Mn1 1_555 1_555
O8A_2 Mn1 1_555 1_555
C1A O3A 1_555 1_555
C2A C1A 1_555 1_555
C3A C2A 1_555 1_555
H6A C3A 1_555 1_555
C4A C3A 1_555 1_555
C5A O6A 1_555 1_555
C6A C4A 1_555 1_555
H7A C6A 1_555 1_555
C7A C6A 1_555 1_555
H8A C7A 1_555 1_555
C8A C2A 1_555 1_555
C9A C8A 1_555 1_555
C4 C5 1_555 1_555
C7 C8 1_555 1_555
Mn2_2 O1A 1_555 1_555
O4A C1A 1_555 1_555
C4A C5A 1_555 1_555
C7A C8A 1_555 1_555

#END
