
#######################################################################
#
#                 Cambridge Crystallographic Data Centre
#                                CCDC 
#
#######################################################################
#
# If this CIF has been generated from an entry in the Cambridge 
# Structural Database, then it will include bibliographic, chemical, 
# crystal, experimental, refinement or atomic coordinate data resulting 
# from the CCDC's data processing and validation procedures.
#
#######################################################################

data_NAFGEI
_symmetry_cell_setting           monoclinic
_symmetry_space_group_name_H-M   'C 2/c'
_symmetry_Int_Tables_number      15
_space_group_name_Hall           '-C 2yn'
loop_
_symmetry_equiv_pos_site_id
_symmetry_equiv_pos_as_xyz
1 x,y,z
2 -x,y,1/2-z
3 1/2+x,1/2+y,z
4 1/2-x,1/2+y,1/2-z
5 -x,-y,-z
6 x,-y,1/2+z
7 1/2-x,1/2-y,-z
8 1/2+x,1/2-y,1/2+z
_cell_length_a                   15.0525(2)
_cell_length_b                   11.6831(2)
_cell_length_c                   25.7620(5)
_cell_angle_alpha                90
_cell_angle_beta                 99.408(1)
_cell_angle_gamma                90
_cell_volume                     4469.56
loop_
_atom_site_label
_atom_site_type_symbol
_atom_site_fract_x
_atom_site_fract_y
_atom_site_fract_z
Mn1 Mn 0.0000 1.08850(3) 0.7500
O1 O -0.10159(9) 1.08095(11) 0.80171(5)
H1 H -0.1573(9) 1.0867(17) 0.7791(6)
H2 H -0.0983(13) 1.1344(15) 0.8288(6)
O2 O 0.11111(9) 1.09097(11) 0.81515(5)
O3 O 0.23545(9) 1.09065(13) 0.77775(5)
O4 O 0.21375(10) 1.28338(11) 0.87906(6)
H3 H 0.1811(14) 1.3527(13) 0.8808(9)
O5 O 0.15579(11) 1.23823(12) 0.95098(6)
O6 O 0.40350(12) 0.74555(12) 0.87461(6)
O7 O 0.38195(10) 0.71312(12) 0.95673(5)
C1 C -0.07661(14) 1.34330(16) 0.74580(8)
H4 H -0.1319 1.3025 0.7423
C2 C -0.07958(14) 1.46135(16) 0.74625(8)
H5 H -0.1356 1.5000 0.7440
C3 C 0.0000 1.5233(2) 0.7500
C4 C 0.0000 1.6506(2) 0.7500
C5 C -0.06971(14) 1.71303(17) 0.76571(8)
H6 H -0.1191 1.6747 0.7767
C6 C -0.06659(14) 1.83112(17) 0.76516(8)
H7 H -0.1148 1.8720 0.7762
C7 C 0.19468(13) 1.08025(15) 0.81586(7)
C8 C 0.24807(13) 1.04265(15) 0.86786(7)
C9 C 0.24511(13) 1.10027(15) 0.91533(7)
C10 C 0.28566(14) 1.05178(16) 0.96269(7)
H8 H 0.2846 1.0916 0.9947
C11 C 0.32763(14) 0.94596(16) 0.96357(7)
H9 H 0.3529 0.9121 0.9962
C12 C 0.33256(13) 0.88952(15) 0.91669(7)
C13 C 0.29378(13) 0.93949(15) 0.86918(7)
H10 H 0.2988 0.9020 0.8371
C14 C 0.19952(14) 1.21370(16) 0.91692(7)
C15 C 0.37623(14) 0.77468(16) 0.91517(7)
N1 N 0.0000 1.28308(19) 0.7500
N2 N 0.0000 1.89131(18) 0.7500
Mn1_2 Mn 0.0000 2.08850(3) 0.7500
O1A O 0.10159(9) 1.08095(11) 0.69829(5)
H1A H 0.1573(9) 1.0867(17) 0.7209(6)
H2A H 0.0983(13) 1.1344(15) 0.6712(6)
O2A O -0.11111(9) 1.09097(11) 0.68485(5)
O3A O -0.23545(9) 1.09065(13) 0.72225(5)
O4A O -0.21375(10) 1.28338(11) 0.62094(6)
H3A H -0.1811(14) 1.3527(13) 0.6192(9)
O5A O -0.15579(11) 1.23823(12) 0.54902(6)
O6A O -0.40350(12) 0.74555(12) 0.62539(6)
O7A O -0.38195(10) 0.71312(12) 0.54327(5)
C1A C 0.07661(14) 1.34330(16) 0.75420(8)
H4A H 0.1319 1.3025 0.7577
C2A C 0.07958(14) 1.46135(16) 0.75375(8)
H5A H 0.1356 1.5000 0.7560
C5A C 0.06971(14) 1.71303(17) 0.73429(8)
H6A H 0.1191 1.6747 0.7233
C6A C 0.06659(14) 1.83112(17) 0.73484(8)
H7A H 0.1148 1.8720 0.7238
C7A C -0.19468(13) 1.08025(15) 0.68414(7)
C8A C -0.24807(13) 1.04265(15) 0.63214(7)
C9A C -0.24511(13) 1.10027(15) 0.58467(7)
C10A C -0.28566(14) 1.05178(16) 0.53731(7)
H8A H -0.2846 1.0916 0.5053
C11A C -0.32763(14) 0.94596(16) 0.53643(7)
H9A H -0.3529 0.9121 0.5038
C12A C -0.33256(13) 0.88952(15) 0.58331(7)
C13A C -0.29378(13) 0.93949(15) 0.63082(7)
H10A H -0.2988 0.9020 0.6629
C14A C -0.19952(14) 1.21370(16) 0.58308(7)
C15A C -0.37623(14) 0.77468(16) 0.58483(7)
N2_2 N 0.0000 0.89131(18) 0.7500
C16 C 0.41260(14) 0.41713(17) 0.95813(8)
H11 H 0.3666 0.4211 0.9793
C17 C 0.44672(14) 0.31191(17) 0.94792(8)
H12 H 0.4246 0.2444 0.9620
C18 C 0.51407(13) 0.30499(16) 0.91680(7)
C19 C 0.54351(14) 0.40684(16) 0.89730(8)
H13 H 0.5891 0.4056 0.8758
C20 C 0.50656(14) 0.50914(17) 0.90925(8)
H14 H 0.5274 0.5782 0.8959
C21 C 0.54828(16) -0.00848(18) 0.89146(9)
H15 H 0.5138 -0.0770 0.8884
C22 C 0.50611(15) 0.09272(17) 0.90069(9)
H16 H 0.4441 0.0930 0.9037
C23 C 0.55490(14) 0.19386(16) 0.90550(7)
C24 C 0.64442(15) 0.18706(18) 0.89997(9)
H17 H 0.6804 0.2542 0.9026
C25 C 0.68172(16) 0.08212(18) 0.89059(9)
H18 H 0.7434 0.0794 0.8868
N3 N 0.44203(12) 0.51402(14) 0.93918(6)
H19 H 0.4203(14) 0.5824(11) 0.9466(8)
N4 N 0.63495(12) -0.01496(14) 0.88661(7)
loop_
_geom_bond_atom_site_label_1
_geom_bond_atom_site_label_2
_geom_bond_site_symmetry_1
_geom_bond_site_symmetry_2
Mn1 O1 1_555 1_555
O1 H1 1_555 1_555
H2 O1 1_555 1_555
O2 Mn1 1_555 1_555
O3 C7 1_555 1_555
O4 H3 1_555 1_555
O5 C14 1_555 1_555
O6 C15 1_555 1_555
O7 C15 1_555 1_555
C1 H4 1_555 1_555
C2 C1 1_555 1_555
H5 C2 1_555 1_555
C3 C2 1_555 1_555
C4 C3 1_555 1_555
C5 C4 1_555 1_555
H6 C5 1_555 1_555
C6 C5 1_555 1_555
H7 C6 1_555 1_555
C7 O2 1_555 1_555
C8 C7 1_555 1_555
C9 C8 1_555 1_555
C10 C9 1_555 1_555
H8 C10 1_555 1_555
C11 C10 1_555 1_555
H9 C11 1_555 1_555
C12 C11 1_555 1_555
C13 C8 1_555 1_555
H10 C13 1_555 1_555
C14 O4 1_555 1_555
C15 C12 1_555 1_555
N1 Mn1 1_555 1_555
N2 C6 1_555 1_555
C16 H11 1_555 1_555
C17 C16 1_555 1_555
H12 C17 1_555 1_555
C18 C17 1_555 1_555
C19 C18 1_555 1_555
H13 C19 1_555 1_555
C20 C19 1_555 1_555
H14 C20 1_555 1_555
C21 H15 1_555 1_555
C22 C21 1_555 1_555
H16 C22 1_555 1_555
C23 C18 1_555 1_555
C24 C23 1_555 1_555
H17 C24 1_555 1_555
C25 C24 1_555 1_555
H18 C25 1_555 1_555
N3 C16 1_555 1_555
H19 N3 1_555 1_555
N4 C21 1_555 1_555
Mn1_2 N2 1_555 1_555
O1A Mn1 1_555 1_555
H1A O1A 1_555 1_555
H2A O1A 1_555 1_555
O2A Mn1 1_555 1_555
O3A C7A 1_555 1_555
O4A H3A 1_555 1_555
O5A C14A 1_555 1_555
O6A C15A 1_555 1_555
O7A C15A 1_555 1_555
C1A N1 1_555 1_555
H4A C1A 1_555 1_555
C2A C3 1_555 1_555
H5A C2A 1_555 1_555
C5A C4 1_555 1_555
H6A C5A 1_555 1_555
C6A N2 1_555 1_555
H7A C6A 1_555 1_555
C7A O2A 1_555 1_555
C8A C7A 1_555 1_555
C9A C8A 1_555 1_555
C10A C9A 1_555 1_555
H8A C10A 1_555 1_555
C11A C10A 1_555 1_555
H9A C11A 1_555 1_555
C12A C11A 1_555 1_555
C13A C8A 1_555 1_555
H10A C13A 1_555 1_555
C14A O4A 1_555 1_555
C15A C12A 1_555 1_555
N2_2 Mn1 1_555 1_555
C1 N1 1_555 1_555
C9 C14 1_555 1_555
C12 C13 1_555 1_555
C20 N3 1_555 1_555
C22 C23 1_555 1_555
C25 N4 1_555 1_555
C1A C2A 1_555 1_555
C5A C6A 1_555 1_555
C9A C14A 1_555 1_555
C12A C13A 1_555 1_555

#END
