
#######################################################################
#
#                 Cambridge Crystallographic Data Centre
#                                CCDC 
#
#######################################################################
#
# If this CIF has been generated from an entry in the Cambridge 
# Structural Database, then it will include bibliographic, chemical, 
# crystal, experimental, refinement or atomic coordinate data resulting 
# from the CCDC's data processing and validation procedures.
#
#######################################################################

data_NAFGOR01
_symmetry_cell_setting           monoclinic
_symmetry_space_group_name_H-M   'P 21/n'
_symmetry_Int_Tables_number      14
_space_group_name_Hall           '-P 2yn'
loop_
_symmetry_equiv_pos_site_id
_symmetry_equiv_pos_as_xyz
1 x,y,z
2 1/2+x,1/2-y,1/2+z
3 -x,-y,-z
4 1/2-x,1/2+y,1/2-z
_cell_length_a                   9.797(4)
_cell_length_b                   15.301(6)
_cell_length_c                   14.902(6)
_cell_angle_alpha                90
_cell_angle_beta                 98.904(6)
_cell_angle_gamma                90
_cell_volume                     2206.95
loop_
_atom_site_label
_atom_site_type_symbol
_atom_site_fract_x
_atom_site_fract_y
_atom_site_fract_z
Co1 Co 0.45232(8) 0.07697(6) 0.23726(5)
Co2 Co -0.08565(8) 0.22689(5) 0.08115(5)
N1 N 0.2521(4) 0.0770(3) 0.1892(3)
N2 N 0.0460(5) 0.1349(3) 0.1330(3)
N3 N 0.5516(5) 0.1200(3) 0.1396(3)
N4 N 0.7271(5) 0.1781(3) 0.0770(3)
N5 N 0.5189(5) -0.0434(3) 0.2668(3)
N6 N 0.5611(5) -0.1742(3) 0.3312(3)
N7 N 0.4859(5) 0.1639(3) 0.3375(3)
N8 N 0.4654(5) 0.2395(3) 0.4641(3)
C1 C 0.1741(6) 0.1482(4) 0.1763(4)
H1 H 0.2063 0.2032 0.1959
C2 C 0.1695(7) 0.0143(4) 0.1504(4)
H2 H 0.1937 -0.0442 0.1471
C3 C 0.0446(7) 0.0487(4) 0.1162(4)
H3 H -0.0302 0.0175 0.0859
C4 C 0.6855(6) 0.1358(4) 0.1457(4)
H4 H 0.7477 0.1180 0.1959
C5 C 0.5050(6) 0.1525(5) 0.0566(4)
H5 H 0.4134 0.1516 0.0284
C6 C 0.6112(7) 0.1864(5) 0.0206(4)
H6 H 0.6034 0.2122 -0.0365
C7 C 0.5306(6) -0.0907(4) 0.3416(4)
H7 H 0.5184 -0.0673 0.3973
C8 C 0.5443(7) -0.1021(5) 0.2033(4)
H8 H 0.5437 -0.0899 0.1421
C9 C 0.5701(7) -0.1798(5) 0.2422(4)
H9 H 0.5912 -0.2303 0.2124
C10 C 0.4277(6) 0.1718(4) 0.4097(4)
H10 H 0.3623 0.1317 0.4230
C11 C 0.5704(7) 0.2346(5) 0.3444(5)
H11 H 0.6281 0.2496 0.3028
C12 C 0.5584(7) 0.2794(4) 0.4194(4)
H12 H 0.6065 0.3303 0.4382
N4_2 N -0.2729(5) 0.1781(3) 0.0770(3)
N6C N -0.0611(5) 0.3258(3) 0.1688(3)
N8A N -0.0346(5) 0.2605(3) -0.0359(3)
Co2_2 Co 0.91435(8) 0.22689(5) 0.08115(5)
Co2C Co 0.58565(8) -0.27311(5) 0.41885(5)
Co2A Co 0.41435(8) 0.27311(5) 0.58115(5)
N9 N 0.9560(13) 0.0114(9) 0.6146(7)
O1 O 0.7875(18) -0.0226(9) 0.5525(8)
C13 C 0.851(3) 0.0451(14) 0.5979(15)
C14 C 0.8266(12) 0.1276(7) 0.6075(10)
H13 H 0.8069 0.1546 0.5488
H14 H 0.9060 0.1550 0.6421
H15 H 0.7486 0.1342 0.6387
C15 C 1.0768(11) 0.0707(9) 0.6658(7)
H16 H 1.0452 0.1300 0.6677
H17 H 1.1549 0.0685 0.6341
H18 H 1.1034 0.0495 0.7267
C16 C 1.0110(14) -0.0790(7) 0.6160(7)
H19 H 1.0298 -0.0995 0.6776
H20 H 1.0948 -0.0795 0.5901
H21 H 0.9441 -0.1165 0.5813
loop_
_geom_bond_atom_site_label_1
_geom_bond_atom_site_label_2
_geom_bond_site_symmetry_1
_geom_bond_site_symmetry_2
Co1 N1 1_555 1_555
Co2 N2 1_555 1_555
N1 C1 1_555 1_555
N2 C1 1_555 1_555
N3 Co1 1_555 1_555
N4 C4 1_555 1_555
N5 Co1 1_555 1_555
N6 C7 1_555 1_555
N7 Co1 1_555 1_555
N8 C10 1_555 1_555
C1 H1 1_555 1_555
C2 N1 1_555 1_555
H2 C2 1_555 1_555
C3 N2 1_555 1_555
H3 C3 1_555 1_555
C4 N3 1_555 1_555
H4 C4 1_555 1_555
C5 N3 1_555 1_555
H5 C5 1_555 1_555
C6 N4 1_555 1_555
H6 C6 1_555 1_555
C7 N5 1_555 1_555
H7 C7 1_555 1_555
C8 N5 1_555 1_555
H8 C8 1_555 1_555
C9 N6 1_555 1_555
H9 C9 1_555 1_555
C10 N7 1_555 1_555
H10 C10 1_555 1_555
C11 N7 1_555 1_555
H11 C11 1_555 1_555
C12 N8 1_555 1_555
H12 C12 1_555 1_555
N9 C13 1_555 1_555
O1 C13 1_555 1_555
C13 C14 1_555 1_555
C14 H13 1_555 1_555
H14 C14 1_555 1_555
H15 C14 1_555 1_555
C15 N9 1_555 1_555
H16 C15 1_555 1_555
H17 C15 1_555 1_555
H18 C15 1_555 1_555
C16 N9 1_555 1_555
H19 C16 1_555 1_555
H20 C16 1_555 1_555
H21 C16 1_555 1_555
N4_2 Co2 1_555 1_555
N6C Co2 1_555 1_555
N8A Co2 1_555 1_555
Co2_2 N4 1_555 1_555
Co2C N6 1_555 1_555
Co2A N8 1_555 1_555
C2 C3 1_555 1_555
C5 C6 1_555 1_555
C8 C9 1_555 1_555
C11 C12 1_555 1_555

#END
