
#######################################################################
#
#                 Cambridge Crystallographic Data Centre
#                                CCDC 
#
#######################################################################
#
# If this CIF has been generated from an entry in the Cambridge 
# Structural Database, then it will include bibliographic, chemical, 
# crystal, experimental, refinement or atomic coordinate data resulting 
# from the CCDC's data processing and validation procedures.
#
#######################################################################

data_NAFHUZ
_symmetry_cell_setting           monoclinic
_symmetry_space_group_name_H-M   'P 21/n'
_symmetry_Int_Tables_number      14
_space_group_name_Hall           '-P 2yn'
loop_
_symmetry_equiv_pos_site_id
_symmetry_equiv_pos_as_xyz
1 x,y,z
2 1/2-x,1/2+y,1/2-z
3 -x,-y,-z
4 1/2+x,1/2-y,1/2+z
_cell_length_a                   7.6772(4)
_cell_length_b                   14.1657(8)
_cell_length_c                   15.5766(8)
_cell_angle_alpha                90
_cell_angle_beta                 91.1860(10)
_cell_angle_gamma                90
_cell_volume                     1693.64
loop_
_atom_site_label
_atom_site_type_symbol
_atom_site_fract_x
_atom_site_fract_y
_atom_site_fract_z
Zn1 Zn 0.26043(5) 0.70215(2) 0.76947(2)
S1 S 0.19324(11) 0.31542(5) 0.89221(5)
O1 O 0.1037(3) 0.23551(16) 0.84441(16)
N1 N 0.2557(4) 0.55359(18) 0.75188(17)
N2 N 0.2492(4) 0.3588(2) 0.72976(17)
N3 N 0.4574(4) 0.2153(2) 0.83296(19)
N4 N 0.6838(4) 0.2511(2) 0.9709(2)
C1 C 0.2318(4) 0.4955(2) 0.8194(2)
H1 H 0.2174 0.5201 0.8741
C2 C 0.2290(4) 0.3998(2) 0.8064(2)
C3 C 0.2738(5) 0.4171(2) 0.6639(2)
H2 H 0.2892 0.3920 0.6095
C4 C 0.2768(5) 0.5149(2) 0.6748(2)
H3 H 0.2938 0.5536 0.6275
C5 C 0.4161(4) 0.2737(2) 0.8967(2)
C6 C 0.5296(5) 0.2937(2) 0.9645(2)
H4 H 0.4978 0.3373 1.0060
C7 C 0.7253(5) 0.1904(3) 0.9085(3)
H5 H 0.8312 0.1586 0.9119
C8 C 0.6128(5) 0.1740(3) 0.8387(2)
H6 H 0.6472 0.1334 0.7952
O6 O 0.1292(4) 0.69750(18) 0.88144(17)
O7 O 0.4987(4) 0.6973(2) 0.8327(2)
H7 H 0.191(6) 0.708(3) 0.929(2)
H8 H 0.015(3) 0.692(4) 0.885(4)
H9 H 0.506(10) 0.6369(19) 0.844(5)
H10 H 0.579(6) 0.740(3) 0.824(4)
Zn1A Zn 0.23957(5) 0.20215(2) 0.73053(2)
O1A O 0.3963(3) 0.73551(16) 0.65559(16)
N2A N 0.2508(4) 0.8588(2) 0.77024(17)
N3A N 0.0426(4) 0.7153(2) 0.66704(19)
Cl1 Cl 0.76066(18) -0.10879(10) 0.91393(10)
O2 O 0.6016(9) -0.0979(7) 0.9373(12)
O3 O 0.8518(10) -0.1596(7) 0.9740(5)
O4 O 0.765(2) -0.1660(9) 0.8429(5)
O5 O 0.8450(8) -0.0271(4) 0.8905(5)
Cl2 Cl 0.74207(12) -0.00143(7) 0.60918(6)
O8 O 0.7610(12) 0.0037(5) 0.5218(3)
O9 O 0.6387(7) -0.0778(5) 0.6305(5)
O10 O 0.9085(6) -0.0135(4) 0.6450(4)
O11 O 0.6767(7) 0.0843(4) 0.6418(4)
loop_
_geom_bond_atom_site_label_1
_geom_bond_atom_site_label_2
_geom_bond_site_symmetry_1
_geom_bond_site_symmetry_2
Zn1 N1 1_555 1_555
S1 O1 1_555 1_555
O1 Zn1A 1_555 1_555
N1 C1 1_555 1_555
N2 C2 1_555 1_555
N3 C5 1_555 1_555
N4 C6 1_555 1_555
C1 H1 1_555 1_555
C2 S1 1_555 1_555
C3 N2 1_555 1_555
H2 C3 1_555 1_555
C4 N1 1_555 1_555
H3 C4 1_555 1_555
C5 S1 1_555 1_555
C6 C5 1_555 1_555
H4 C6 1_555 1_555
C7 N4 1_555 1_555
H5 C7 1_555 1_555
C8 N3 1_555 1_555
H6 C8 1_555 1_555
Cl1 O2 1_555 1_555
O3 Cl1 1_555 1_555
O4 Cl1 1_555 1_555
O5 Cl1 1_555 1_555
O6 Zn1 1_555 1_555
O7 Zn1 1_555 1_555
Cl2 O8 1_555 1_555
O9 Cl2 1_555 1_555
O10 Cl2 1_555 1_555
O11 Cl2 1_555 1_555
H7 O6 1_555 1_555
H8 O6 1_555 1_555
H9 O7 1_555 1_555
H10 O7 1_555 1_555
Zn1A N2 1_555 1_555
O1A Zn1 1_555 1_555
N2A Zn1 1_555 1_555
N3A Zn1 1_555 1_555
N3 Zn1A 1_555 1_555
C1 C2 1_555 1_555
C3 C4 1_555 1_555
C7 C8 1_555 1_555

#END
