
#######################################################################
#
#                 Cambridge Crystallographic Data Centre
#                                CCDC 
#
#######################################################################
#
# If this CIF has been generated from an entry in the Cambridge 
# Structural Database, then it will include bibliographic, chemical, 
# crystal, experimental, refinement or atomic coordinate data resulting 
# from the CCDC's data processing and validation procedures.
#
#######################################################################

data_NAFHOT
_symmetry_cell_setting           triclinic
_symmetry_space_group_name_H-M   'P -1'
_symmetry_Int_Tables_number      2
_space_group_name_Hall           '-P 1'
loop_
_symmetry_equiv_pos_site_id
_symmetry_equiv_pos_as_xyz
1 x,y,z
2 -x,-y,-z
_cell_length_a                   7.9654(3)
_cell_length_b                   8.2715(3)
_cell_length_c                   14.0482(5)
_cell_angle_alpha                85.8270(10)
_cell_angle_beta                 75.4280(10)
_cell_angle_gamma                81.3420(10)
_cell_volume                     885.006
loop_
_atom_site_label
_atom_site_type_symbol
_atom_site_fract_x
_atom_site_fract_y
_atom_site_fract_z
Zn1 Zn 0.5000 0.5000 0.5000
Zn2 Zn 0.0000 1.0000 0.0000
S1 S 0.40417(6) 0.39889(5) 0.11345(3)
O1 O 0.52735(18) 0.52153(18) 0.09906(10)
N1 N 0.3938(2) 0.3788(2) 0.40079(13)
N2 N 0.2636(2) 0.2208(2) 0.27162(13)
N3 N 0.0572(2) 0.42788(19) 0.13675(12)
N4 N 0.0241(2) 0.75299(19) 0.06847(11)
C1 C 0.3038(3) 0.2525(3) 0.43046(16)
H1 H 0.2854 0.2152 0.4958
C2 C 0.2376(3) 0.1761(3) 0.36662(17)
H2 H 0.1729 0.0908 0.3906
C3 C 0.3535(2) 0.3460(2) 0.24371(14)
C4 C 0.4185(3) 0.4266(2) 0.30563(14)
H3 H 0.4797 0.5142 0.2816
C5 C 0.1918(2) 0.5124(2) 0.11145(13)
C6 C -0.0972(2) 0.5100(2) 0.13085(15)
H4 H -0.1963 0.4574 0.1501
C7 C -0.1142(2) 0.6714(2) 0.09691(14)
H5 H -0.2243 0.7244 0.0938
C8 C 0.1792(2) 0.6731(2) 0.07712(13)
H6 H 0.2783 0.7260 0.0600
O5 O 0.4184(3) 0.7283(2) 0.44326(12)
O6 O 0.7363(3) 0.4818(2) 0.39172(13)
O7 O -0.23474(19) 1.07652(18) 0.10332(11)
O8 O 0.1426(2) 1.08193(18) 0.08679(12)
H7 H 0.0984 1.1689 0.1232
H8 H -0.3271 1.0252 0.1049
H9 H 0.2344 1.0240 0.1050
H10 H -0.2251 1.0726 0.1652
H11 H 0.3388 0.7973 0.4826
H12 H 0.4503 0.7778 0.3841
H13 H 0.7724 0.3878 0.3597
H14 H 0.7810 0.4420 0.4435
Zn1_2 Zn -0.5000 1.5000 -0.5000
S1A S -0.40417(6) 1.60111(5) -0.11345(3)
O1A O -0.52735(18) 1.47847(18) -0.09906(10)
N1A N -0.3938(2) 1.6212(2) -0.40079(13)
N1A_2 N 0.6062(2) 0.6212(2) 0.59921(13)
N2A N -0.2636(2) 1.7792(2) -0.27162(13)
N3A N -0.0572(2) 1.57212(19) -0.13675(12)
N4A N -0.0241(2) 1.24701(19) -0.06847(11)
C1A C -0.3038(3) 1.7475(3) -0.43046(16)
H1A H -0.2854 1.7848 -0.4958
C2A C -0.2376(3) 1.8239(3) -0.36662(17)
H2A H -0.1729 1.9092 -0.3906
C3A C -0.3535(2) 1.6540(2) -0.24371(14)
C4A C -0.4185(3) 1.5734(2) -0.30563(14)
H3A H -0.4797 1.4858 -0.2816
C5A C -0.1918(2) 1.4876(2) -0.11145(13)
C6A C 0.0972(2) 1.4900(2) -0.13085(15)
H4A H 0.1963 1.5426 -0.1501
C7A C 0.1142(2) 1.3286(2) -0.09691(14)
H5A H 0.2243 1.2756 -0.0938
C8A C -0.1792(2) 1.3269(2) -0.07712(13)
H6A H -0.2783 1.2740 -0.0600
O5A O 0.5816(3) 0.2717(2) 0.55674(12)
O6A O 0.2637(3) 0.5182(2) 0.60828(13)
O7A O 0.23474(19) 0.92348(18) -0.10332(11)
O8A O -0.1426(2) 0.91807(18) -0.08679(12)
H7A H -0.0984 0.8311 -0.1232
H8A H 0.3271 0.9748 -0.1049
H9A H -0.2344 0.9760 -0.1050
H10A H 0.2251 0.9274 -0.1652
H11A H 0.6612 0.2027 0.5174
H12A H 0.5497 0.2222 0.6159
H13A H 0.2276 0.6122 0.6403
H14A H 0.2190 0.5580 0.5565
N5 N -0.1760(3) 1.0652(3) 0.33831(16)
O2 O -0.1296(4) 0.9410(3) 0.29035(19)
O3 O -0.2182(3) 1.1958(3) 0.29605(15)
O4 O -0.1763(3) 1.0592(3) 0.42669(14)
N6 N 0.4264(2) 0.8634(2) 0.20704(13)
O9 O 0.5390(2) 0.8380(3) 0.25539(13)
O10 O 0.2785(2) 0.8278(2) 0.24174(13)
O11 O 0.4655(2) 0.9263(2) 0.12163(12)
O12 O 0.0103(4) 0.6468(4) 0.3722(3)
H15 H -0.0492 0.6688 0.3259
H16 H 0.1072 0.6837 0.3768
loop_
_geom_bond_atom_site_label_1
_geom_bond_atom_site_label_2
_geom_bond_site_symmetry_1
_geom_bond_site_symmetry_2
Zn1 N1 1_555 1_555
Zn2 N4 1_555 1_555
S1 O1 1_555 1_555
N1 C1 1_555 1_555
N2 C2 1_555 1_555
N3 C5 1_555 1_555
N4 C7 1_555 1_555
C1 H1 1_555 1_555
C2 C1 1_555 1_555
H2 C2 1_555 1_555
C3 S1 1_555 1_555
C4 N1 1_555 1_555
H3 C4 1_555 1_555
C5 S1 1_555 1_555
C6 N3 1_555 1_555
H4 C6 1_555 1_555
C7 C6 1_555 1_555
H5 C7 1_555 1_555
C8 N4 1_555 1_555
H6 C8 1_555 1_555
N5 O2 1_555 1_555
O3 N5 1_555 1_555
O4 N5 1_555 1_555
O5 Zn1 1_555 1_555
O6 Zn1 1_555 1_555
O7 Zn2 1_555 1_555
O8 Zn2 1_555 1_555
H7 O8 1_555 1_555
H8 O7 1_555 1_555
H9 O8 1_555 1_555
H10 O7 1_555 1_555
H11 O5 1_555 1_555
H12 O5 1_555 1_555
H13 O6 1_555 1_555
H14 O6 1_555 1_555
N6 O9 1_555 1_555
O10 N6 1_555 1_555
O11 N6 1_555 1_555
O12 H15 1_555 1_555
H16 O12 1_555 1_555
Zn1_2 N1A 1_555 1_555
S1A O1A 1_555 1_555
N1A C1A 1_555 1_555
N1A_2 Zn1 1_555 1_555
N2A C2A 1_555 1_555
N3A C5A 1_555 1_555
N4A Zn2 1_555 1_555
C1A H1A 1_555 1_555
C2A C1A 1_555 1_555
H2A C2A 1_555 1_555
C3A S1A 1_555 1_555
C4A N1A 1_555 1_555
H3A C4A 1_555 1_555
C5A S1A 1_555 1_555
C6A N3A 1_555 1_555
H4A C6A 1_555 1_555
C7A N4A 1_555 1_555
H5A C7A 1_555 1_555
C8A N4A 1_555 1_555
H6A C8A 1_555 1_555
O5A Zn1 1_555 1_555
O6A Zn1 1_555 1_555
O7A Zn2 1_555 1_555
O8A Zn2 1_555 1_555
H7A O8A 1_555 1_555
H8A O7A 1_555 1_555
H9A O8A 1_555 1_555
H10A O7A 1_555 1_555
H11A O5A 1_555 1_555
H12A O5A 1_555 1_555
H13A O6A 1_555 1_555
H14A O6A 1_555 1_555
N2 C3 1_555 1_555
C3 C4 1_555 1_555
C5 C8 1_555 1_555
N2A C3A 1_555 1_555
C3A C4A 1_555 1_555
C5A C8A 1_555 1_555
C6A C7A 1_555 1_555

#END
