
#######################################################################
#
#                 Cambridge Crystallographic Data Centre
#                                CCDC 
#
#######################################################################
#
# If this CIF has been generated from an entry in the Cambridge 
# Structural Database, then it will include bibliographic, chemical, 
# crystal, experimental, refinement or atomic coordinate data resulting 
# from the CCDC's data processing and validation procedures.
#
#######################################################################

data_NAFJUB
_symmetry_cell_setting           monoclinic
_symmetry_space_group_name_H-M   'P 21/c'
_symmetry_Int_Tables_number      14
_space_group_name_Hall           '-P 2ybc'
loop_
_symmetry_equiv_pos_site_id
_symmetry_equiv_pos_as_xyz
1 x,y,z
2 -x,1/2+y,1/2-z
3 -x,-y,-z
4 x,1/2-y,1/2+z
_cell_length_a                   8.227(2)
_cell_length_b                   31.605(9)
_cell_length_c                   10.388(3)
_cell_angle_alpha                90
_cell_angle_beta                 106.453(5)
_cell_angle_gamma                90
_cell_volume                     2590.43
loop_
_atom_site_label
_atom_site_type_symbol
_atom_site_fract_x
_atom_site_fract_y
_atom_site_fract_z
Cd1 Cd 0.83763(2) 0.647738(6) 0.365422(18)
S1 S 0.84439(8) 0.57654(2) 0.13482(7)
O1 O 0.9502(2) 0.61150(6) 0.2134(2)
O2 O 0.6039(3) 0.67709(7) 0.40655(18)
N1 N 0.8059(3) 0.56212(7) 0.3759(2)
N2 N 0.7750(4) 0.47447(8) 0.3417(3)
N3 N 0.6022(3) 0.62660(7) 0.1711(2)
C1 C 0.3245(4) 0.62916(11) 0.0257(4)
H1 H 0.2165 0.6408 0.0070
N4 N 0.8523(3) 0.63595(6) 0.6053(2)
N5 N 0.8385(3) 0.62131(8) 0.8676(2)
N6 N 0.8578(3) 0.73460(8) 0.5181(2)
N7 N 0.8482(3) 0.79518(6) 0.7124(2)
S2 S 0.59572(8) 0.69053(2) 0.54307(6)
C2 C 0.7932(4) 0.49952(8) 0.2440(3)
H2 H 0.7947 0.4880 0.1620
C3 C 0.8096(3) 0.54243(7) 0.2640(2)
C4 C 0.7803(5) 0.53708(10) 0.4694(3)
H3 H 0.7710 0.5491 0.5487
C5 C 0.7665(6) 0.49365(11) 0.4547(3)
H4 H 0.7510 0.4774 0.5249
C6 C 0.6308(3) 0.59770(7) 0.0883(2)
C7 C 0.4466(4) 0.64250(10) 0.1395(3)
H5 H 0.4194 0.6629 0.1945
N8 N 0.3547(4) 0.60057(9) -0.0577(3)
C8 C 0.5100(4) 0.58447(9) -0.0253(3)
H6 H 0.5375 0.5640 -0.0801
C9 C 0.9613(3) 0.61000(8) 0.6896(3)
H7 H 1.0462 0.5967 0.6614
C10 C 0.9496(4) 0.60275(9) 0.8166(3)
H8 H 1.0247 0.5835 0.8702
C11 C 0.7338(4) 0.64793(9) 0.7847(3)
H9 H 0.6533 0.6624 0.8152
C12 C 0.7405(3) 0.65485(7) 0.6554(3)
C13 C 0.7424(3) 0.73402(8) 0.5863(2)
C14 C 0.7341(3) 0.76371(8) 0.6815(2)
H10 H 0.6492 0.7619 0.7243
C15 C 0.9643(4) 0.79627(9) 0.6454(3)
H11 H 1.0453 0.8176 0.6641
C16 C 0.9674(4) 0.76618(10) 0.5481(3)
H12 H 1.0494 0.7684 0.5026
H13 H 1.1664 0.6761 0.5274
H14 H 1.1828 0.6349 0.4560
O11 O 1.1195(3) 0.65836(8) 0.4604(2)
Cd1C Cd 0.83763(2) 0.852262(6) 0.865422(18)
N7C N 0.8482(3) 0.70482(6) 0.2124(2)
Cl1 Cl 0.31806(9) 0.72293(3) -0.19553(8)
O3 O 0.1664(6) 0.7102(3) -0.1684(5)
O4 O 0.3175(8) 0.6955(3) -0.2974(6)
O5 O 0.3369(5) 0.75444(15) -0.2898(5)
O6 O 0.4705(4) 0.71014(13) -0.1045(4)
Cl2 Cl 0.29956(11) 0.51153(3) 0.19831(9)
O7 O 0.1446(4) 0.51142(18) 0.2219(5)
O8 O 0.3502(6) 0.47199(11) 0.2663(4)
O9 O 0.3450(6) 0.50669(11) 0.0815(3)
O10 O 0.4002(5) 0.54334(10) 0.2759(3)
O12 O 1.3934(5) 0.60005(10) -0.4942(4)
O13? O 1.386(2) 0.6104(5) -0.3571(15)
O14? O 0.2737(8) 0.75460(18) -0.1193(6)
O15? O 0.1913(9) 0.6954(2) -0.2434(8)
O16? O 0.1411(12) 0.5335(5) 0.0958(16)
loop_
_geom_bond_atom_site_label_1
_geom_bond_atom_site_label_2
_geom_bond_site_symmetry_1
_geom_bond_site_symmetry_2
Cd1 O1 1_555 1_555
S1 O1 1_555 1_555
O2 Cd1 1_555 1_555
N1 Cd1 1_555 1_555
N2 C2 1_555 1_555
N3 Cd1 1_555 1_555
C1 H1 1_555 1_555
N4 Cd1 1_555 1_555
N5 C10 1_555 1_555
N6 C13 1_555 1_555
N7 C14 1_555 1_555
S2 O2 1_555 1_555
C2 H2 1_555 1_555
C3 S1 1_555 1_555
C4 N1 1_555 1_555
H3 C4 1_555 1_555
C5 N2 1_555 1_555
H4 C5 1_555 1_555
C6 S1 1_555 1_555
C7 N3 1_555 1_555
H5 C7 1_555 1_555
N8 C1 1_555 1_555
C8 C6 1_555 1_555
H6 C8 1_555 1_555
C9 N4 1_555 1_555
H7 C9 1_555 1_555
C10 C9 1_555 1_555
H8 C10 1_555 1_555
C11 N5 1_555 1_555
H9 C11 1_555 1_555
C12 N4 1_555 1_555
C13 S2 1_555 1_555
C14 C13 1_555 1_555
H10 C14 1_555 1_555
C15 N7 1_555 1_555
H11 C15 1_555 1_555
C16 N6 1_555 1_555
H12 C16 1_555 1_555
H13 O11 1_555 1_555
H14 O11 1_555 1_555
Cl1 O3 1_555 1_555
O4 Cl1 1_555 1_555
O5 Cl1 1_555 1_555
O6 Cl1 1_555 1_555
Cl2 O7 1_555 1_555
O8 Cl2 1_555 1_555
O9 Cl2 1_555 1_555
O10 Cl2 1_555 1_555
O11 Cd1 1_555 1_555
Cd1C N7 1_555 1_555
N7C Cd1 1_555 1_555
N1 C3 1_555 1_555
N3 C6 1_555 1_555
C1 C7 1_555 1_555
S2 C12 1_555 1_555
C2 C3 1_555 1_555
C4 C5 1_555 1_555
N8 C8 1_555 1_555
C11 C12 1_555 1_555
C15 C16 1_555 1_555

#END
