
#######################################################################
#
#                 Cambridge Crystallographic Data Centre
#                                CCDC 
#
#######################################################################
#
# If this CIF has been generated from an entry in the Cambridge 
# Structural Database, then it will include bibliographic, chemical, 
# crystal, experimental, refinement or atomic coordinate data resulting 
# from the CCDC's data processing and validation procedures.
#
#######################################################################

data_NAFJEL
_symmetry_cell_setting           monoclinic
_symmetry_space_group_name_H-M   'P 21/n'
_symmetry_Int_Tables_number      14
_space_group_name_Hall           '-P 2yn'
loop_
_symmetry_equiv_pos_site_id
_symmetry_equiv_pos_as_xyz
1 x,y,z
2 1/2-x,1/2+y,1/2-z
3 -x,-y,-z
4 1/2+x,1/2-y,1/2+z
_cell_length_a                   7.6321(10)
_cell_length_b                   23.598(3)
_cell_length_c                   7.6718(10)
_cell_angle_alpha                90
_cell_angle_beta                 96.633(2)
_cell_angle_gamma                90
_cell_volume                     1372.46
loop_
_atom_site_label
_atom_site_type_symbol
_atom_site_fract_x
_atom_site_fract_y
_atom_site_fract_z
Ag1 Ag 0.93757(3) 0.358502(14) 0.29364(4)
N1 N 0.8687(4) 0.34948(13) 0.9688(4)
N2 N 0.9064(4) 0.36393(12) 0.6142(4)
C1 C 0.7758(4) 0.38893(14) 0.8708(4)
H1 H 0.6990 0.4126 0.9222
C2 C 0.7935(4) 0.39447(13) 0.6952(4)
C3 C 0.9941(5) 0.32418(16) 0.7110(5)
H2 H 1.0719 0.3009 0.6595
C4 C 0.9732(5) 0.31644(15) 0.8860(5)
H3 H 1.0341 0.2872 0.9477
S1 S 0.66989(10) 0.44823(3) 0.56495(10)
O1 O 0.5549(3) 0.47565(10) 0.6849(3)
N3 N 0.2551(4) 0.35756(13) 0.3406(4)
N4 N 0.6143(4) 0.36927(12) 0.3152(4)
C5 C 0.5322(4) 0.39845(13) 0.4296(4)
C6 C 0.3542(4) 0.39436(14) 0.4418(4)
H4 H 0.3026 0.4172 0.5204
C7 C 0.3374(5) 0.32568(16) 0.2336(5)
H5 H 0.2734 0.2981 0.1670
C8 C 0.5150(5) 0.33186(16) 0.2172(4)
H6 H 0.5662 0.3096 0.1368
N5 N 0.9439(4) 0.21322(14) 0.2772(4)
O2 O 0.8683(6) 0.25215(15) 0.3443(6)
O3 O 0.9027(4) 0.16424(12) 0.3063(4)
O4 O 1.0592(5) 0.22144(19) 0.1799(6)
Ag1_2 Ag -0.06243(3) 0.358502(14) 0.29364(4)
Ag1_3 Ag 0.93757(3) 0.358502(14) 1.29364(4)
N1_2 N 0.8687(4) 0.34948(13) -0.0312(4)
N3_2 N 1.2551(4) 0.35756(13) 0.3406(4)
N6 N 0.0472(7) 0.5254(2) 0.7665(7)
C9 C 0.1372(7) 0.4934(2) 0.8429(6)
C10 C 0.2518(8) 0.4536(2) 0.9392(8)
H7 H 0.185(7) 0.431(2) 0.998(6)
H8 H 0.338(6) 0.464(3) 1.021(6)
H9 H 0.306(7) 0.4285(19) 0.877(7)
loop_
_geom_bond_atom_site_label_1
_geom_bond_atom_site_label_2
_geom_bond_site_symmetry_1
_geom_bond_site_symmetry_2
Ag1 N2 1_555 1_555
N1 C1 1_555 1_555
N2 C2 1_555 1_555
C1 H1 1_555 1_555
C2 C1 1_555 1_555
C3 N2 1_555 1_555
H2 C3 1_555 1_555
C4 N1 1_555 1_555
H3 C4 1_555 1_555
S1 C2 1_555 1_555
O1 S1 1_555 1_555
N3 C6 1_555 1_555
N4 Ag1 1_555 1_555
C5 S1 1_555 1_555
C6 C5 1_555 1_555
H4 C6 1_555 1_555
C7 N3 1_555 1_555
H5 C7 1_555 1_555
C8 N4 1_555 1_555
H6 C8 1_555 1_555
N5 O2 1_555 1_555
O2 Ag1 1_555 1_555
O3 N5 1_555 1_555
O4 N5 1_555 1_555
N6 C9 1_555 1_555
C9 C10 1_555 1_555
C10 H7 1_555 1_555
H8 C10 1_555 1_555
H9 C10 1_555 1_555
Ag1_2 N3 1_555 1_555
Ag1_3 N1 1_555 1_555
N1_2 Ag1 1_555 1_555
N3_2 Ag1 1_555 1_555
C3 C4 1_555 1_555
N4 C5 1_555 1_555
C7 C8 1_555 1_555

#END
