
#######################################################################
#
#                 Cambridge Crystallographic Data Centre
#                                CCDC 
#
#######################################################################
#
# If this CIF has been generated from an entry in the Cambridge 
# Structural Database, then it will include bibliographic, chemical, 
# crystal, experimental, refinement or atomic coordinate data resulting 
# from the CCDC's data processing and validation procedures.
#
#######################################################################

data_NAFJOV
_symmetry_cell_setting           monoclinic
_symmetry_space_group_name_H-M   'C 2/c'
_symmetry_Int_Tables_number      15
_space_group_name_Hall           '-C 2yn'
loop_
_symmetry_equiv_pos_site_id
_symmetry_equiv_pos_as_xyz
1 x,y,z
2 -x,y,1/2-z
3 1/2+x,1/2+y,z
4 1/2-x,1/2+y,1/2-z
5 -x,-y,-z
6 x,-y,1/2+z
7 1/2-x,1/2-y,-z
8 1/2+x,1/2-y,1/2+z
_cell_length_a                   12.6094(13)
_cell_length_b                   9.9233(10)
_cell_length_c                   21.372(2)
_cell_angle_alpha                90
_cell_angle_beta                 95.378(2)
_cell_angle_gamma                90
_cell_volume                     2662.44
loop_
_atom_site_label
_atom_site_type_symbol
_atom_site_fract_x
_atom_site_fract_y
_atom_site_fract_z
Ag1 Ag 0.59818(3) 0.08488(3) 0.551959(15)
N1 N 0.6483(4) 0.3712(6) 0.7515(2)
N2 N 0.6233(2) 0.2064(3) 0.64581(15)
C1 C 0.6108(4) 0.4187(5) 0.6955(3)
H1 H 0.5924 0.5093 0.6913
C2 C 0.5991(3) 0.3361(4) 0.64396(18)
C3 C 0.6598(4) 0.1584(5) 0.7020(2)
H2 H 0.6766 0.0674 0.7063
C4 C 0.6729(5) 0.2407(7) 0.7533(2)
H3 H 0.7004 0.2037 0.7915
S1 S 0.55333(7) 0.39727(9) 0.56636(5)
O1 O 0.5587(2) 0.5468(3) 0.56878(17)
N3 N 0.2360(2) 0.4237(3) 0.57271(16)
N4 N 0.3931(2) 0.2254(3) 0.57509(15)
C5 C 0.4148(3) 0.3554(3) 0.57265(17)
C6 C 0.3389(3) 0.4559(4) 0.57121(19)
H4 H 0.3592 0.5458 0.5692
C7 C 0.2131(3) 0.2922(4) 0.57590(18)
H5 H 0.1426 0.2662 0.5774
C8 C 0.2902(3) 0.1949(4) 0.57699(18)
H6 H 0.2704 0.1048 0.5791
C9 C 0.5688(4) 0.1563(5) 0.3448(2)
C10 C 0.6045(3) 0.1403(4) 0.4150(2)
O2 O 0.5320(2) 0.1160(3) 0.44927(13)
O3 O 0.6997(3) 0.1492(5) 0.42936(18)
F1 F 0.5946(4) 0.2726(4) 0.32295(18)
F2 F 0.6130(5) 0.0677(5) 0.31154(18)
F3 F 0.4658(3) 0.1466(6) 0.33026(16)
Ag1D Ag 0.40182(3) -0.08488(3) 0.448041(15)
Ag1B Ag 0.09818(3) 0.58488(3) 0.551959(15)
Ag1F Ag 0.90182(3) -0.58488(3) 0.448041(15)
N1D N 0.3517(4) -0.3712(6) 0.2485(2)
N2D N 0.3767(2) -0.2064(3) 0.35419(15)
C1D C 0.3892(4) -0.4187(5) 0.3045(3)
H1D H 0.4076 -0.5093 0.3087
C2D C 0.4009(3) -0.3361(4) 0.35604(18)
C3D C 0.3402(4) -0.1584(5) 0.2980(2)
H2D H 0.3234 -0.0674 0.2937
C4D C 0.3271(5) -0.2407(7) 0.2467(2)
H3D H 0.2996 -0.2037 0.2085
S1D S 0.44667(7) -0.39727(9) 0.43364(5)
O1D O 0.4413(2) -0.5468(3) 0.43122(17)
N3D N 0.7640(2) -0.4237(3) 0.42729(16)
N3B N 0.7360(2) -0.0763(3) 0.57271(16)
N3F N 0.2640(2) 0.0763(3) 0.42729(16)
N4D N 0.6069(2) -0.2254(3) 0.42491(15)
C5D C 0.5852(3) -0.3554(3) 0.42735(17)
C6D C 0.6611(3) -0.4559(4) 0.42879(19)
H4D H 0.6408 -0.5458 0.4308
C7D C 0.7869(3) -0.2922(4) 0.42410(18)
H5D H 0.8574 -0.2662 0.4226
C8D C 0.7098(3) -0.1949(4) 0.42301(18)
H6D H 0.7296 -0.1048 0.4209
C9D C 0.4312(4) -0.1563(5) 0.6552(2)
C10D C 0.3955(3) -0.1403(4) 0.5850(2)
O2D O 0.4680(2) -0.1160(3) 0.55073(13)
O3D O 0.3003(3) -0.1492(5) 0.57064(18)
F1D F 0.4054(4) -0.2726(4) 0.67705(18)
F2D F 0.3870(5) -0.0677(5) 0.68846(18)
F3D F 0.5342(3) -0.1466(6) 0.66974(16)
loop_
_geom_bond_atom_site_label_1
_geom_bond_atom_site_label_2
_geom_bond_site_symmetry_1
_geom_bond_site_symmetry_2
Ag1 N2 1_555 1_555
N1 C1 1_555 1_555
N2 C2 1_555 1_555
C1 H1 1_555 1_555
C2 C1 1_555 1_555
C3 N2 1_555 1_555
H2 C3 1_555 1_555
C4 N1 1_555 1_555
H3 C4 1_555 1_555
S1 C2 1_555 1_555
O1 S1 1_555 1_555
N3 C6 1_555 1_555
N4 C5 1_555 1_555
C5 S1 1_555 1_555
C6 C5 1_555 1_555
H4 C6 1_555 1_555
C7 N3 1_555 1_555
H5 C7 1_555 1_555
C8 N4 1_555 1_555
H6 C8 1_555 1_555
C9 C10 1_555 1_555
C10 O2 1_555 1_555
O2 Ag1 1_555 1_555
O3 C10 1_555 1_555
F1 C9 1_555 1_555
F2 C9 1_555 1_555
F3 C9 1_555 1_555
Ag1D O2 1_555 1_555
Ag1B N3 1_555 1_555
Ag1F N3D 1_555 1_555
N1D C1D 1_555 1_555
N2D Ag1D 1_555 1_555
C1D H1D 1_555 1_555
C2D N2D 1_555 1_555
C3D N2D 1_555 1_555
H2D C3D 1_555 1_555
C4D N1D 1_555 1_555
H3D C4D 1_555 1_555
S1D C2D 1_555 1_555
O1D S1D 1_555 1_555
N3D C6D 1_555 1_555
N3B Ag1 1_555 1_555
N3F Ag1D 1_555 1_555
N4D C5D 1_555 1_555
C5D S1D 1_555 1_555
C6D C5D 1_555 1_555
H4D C6D 1_555 1_555
C7D N3D 1_555 1_555
H5D C7D 1_555 1_555
C8D N4D 1_555 1_555
H6D C8D 1_555 1_555
C9D C10D 1_555 1_555
C10D O2D 1_555 1_555
O2D Ag1 1_555 1_555
O3D C10D 1_555 1_555
F1D C9D 1_555 1_555
F2D C9D 1_555 1_555
F3D C9D 1_555 1_555
C3 C4 1_555 1_555
C7 C8 1_555 1_555
Ag1D O2D 1_555 1_555
C1D C2D 1_555 1_555
C3D C4D 1_555 1_555
C7D C8D 1_555 1_555

#END
