
#######################################################################
#
#                 Cambridge Crystallographic Data Centre
#                                CCDC 
#
#######################################################################
#
# If this CIF has been generated from an entry in the Cambridge 
# Structural Database, then it will include bibliographic, chemical, 
# crystal, experimental, refinement or atomic coordinate data resulting 
# from the CCDC's data processing and validation procedures.
#
#######################################################################

data_NAFKIQ
_symmetry_cell_setting           monoclinic
_symmetry_space_group_name_H-M   'P 21/n'
_symmetry_Int_Tables_number      14
_space_group_name_Hall           '-P 2yn'
loop_
_symmetry_equiv_pos_site_id
_symmetry_equiv_pos_as_xyz
1 x,y,z
2 1/2-x,1/2+y,1/2-z
3 -x,-y,-z
4 1/2+x,1/2-y,1/2+z
_cell_length_a                   10.208(3)
_cell_length_b                   23.532(7)
_cell_length_c                   18.691(5)
_cell_angle_alpha                90
_cell_angle_beta                 103.422(5)
_cell_angle_gamma                90
_cell_volume                     4367.22
loop_
_atom_site_label
_atom_site_type_symbol
_atom_site_fract_x
_atom_site_fract_y
_atom_site_fract_z
Fe1 Fe 0.58330(4) 0.188592(18) 0.68838(2)
K1 K 0.67107(8) 0.36029(3) 0.41372(4)
N1 N 0.5284(3) 0.10611(11) 0.62444(14)
C1 C 0.5784(3) 0.06253(13) 0.67844(17)
C2 C 0.6923(3) 0.07675(13) 0.73438(17)
C3 C 0.7442(4) 0.03414(15) 0.78667(19)
H1 H 0.8205 0.0416 0.8246
C4 C 0.6822(4) -0.01898(16) 0.7820(2)
H2 H 0.7182 -0.0471 0.8168
C5 C 0.5703(4) -0.03120(16) 0.7280(2)
H3 H 0.5290 -0.0670 0.7261
C6 C 0.5184(4) 0.01019(14) 0.6760(2)
H4 H 0.4414 0.0022 0.6387
N2 N 0.7416(3) 0.13246(11) 0.73111(14)
O1 O 0.9235(3) 0.12641(11) 0.83246(14)
C7 C 0.8573(3) 0.15027(14) 0.77653(18)
C8 C 0.9067(3) 0.20684(14) 0.75384(19)
C9 C 0.8914(3) 0.22085(15) 0.6800(2)
H5 H 0.8513 0.1946 0.6435
C10 C 0.9344(4) 0.27300(17) 0.6598(2)
H6 H 0.9244 0.2821 0.6098
C11 C 0.9925(4) 0.31165(17) 0.7138(3)
H7 H 1.0196 0.3475 0.7004
C12 C 1.0104(4) 0.29786(16) 0.7867(2)
H8 H 1.0512 0.3242 0.8229
C13 C 0.9690(4) 0.24550(15) 0.8076(2)
H9 H 0.9828 0.2362 0.8577
C14 C 0.6002(3) 0.11115(14) 0.56580(17)
C15 C 0.6193(3) 0.16644(13) 0.54087(17)
C16 C 0.6872(4) 0.17128(15) 0.48383(18)
H10 H 0.6990 0.2073 0.4645
C17 C 0.7371(4) 0.12336(16) 0.45576(19)
H11 H 0.7833 0.1276 0.4181
C18 C 0.7204(4) 0.06995(16) 0.48181(19)
H12 H 0.7552 0.0380 0.4624
C19 C 0.6510(4) 0.06379(14) 0.53746(19)
H13 H 0.6386 0.0275 0.5557
N3 N 0.5728(3) 0.21151(11) 0.57875(14)
O2 O 0.5992(3) 0.28423(11) 0.49830(14)
C20 C 0.5635(3) 0.26502(14) 0.55289(18)
C21 C 0.4984(4) 0.30532(14) 0.59707(18)
C22 C 0.3864(4) 0.28981(16) 0.6222(2)
H14 H 0.3488 0.2535 0.6113
C23 C 0.3290(4) 0.3273(2) 0.6632(3)
H15 H 0.2521 0.3165 0.6794
C24 C 0.3837(5) 0.3802(2) 0.6804(3)
H16 H 0.3461 0.4053 0.7093
C25 C 0.4937(5) 0.39620(18) 0.6549(3)
H17 H 0.5310 0.4325 0.6663
C26 C 0.5506(4) 0.35992(15) 0.6129(2)
H18 H 0.6247 0.3719 0.5948
C27 C 0.3835(3) 0.11059(13) 0.60253(17)
C28 C 0.3220(3) 0.13788(14) 0.65359(18)
C29 C 0.1824(4) 0.14335(15) 0.6344(2)
H19 H 0.1383 0.1620 0.6666
C30 C 0.1080(4) 0.12175(17) 0.5688(2)
H20 H 0.0137 0.1254 0.5574
C31 C 0.1694(4) 0.09501(17) 0.5199(2)
H21 H 0.1174 0.0801 0.4757
C32 C 0.3085(4) 0.09024(15) 0.53622(19)
H22 H 0.3516 0.0733 0.5024
N4 N 0.4083(3) 0.16152(11) 0.71686(14)
O3 O 0.2640(3) 0.14127(13) 0.79233(15)
C33 C 0.3687(4) 0.16221(15) 0.78059(19)
C34 C 0.4625(4) 0.19183(14) 0.84325(18)
C35 C 0.5947(4) 0.17497(15) 0.86972(19)
H23 H 0.6288 0.1441 0.8477
C36 C 0.6772(4) 0.20298(17) 0.9280(2)
H24 H 0.7666 0.1909 0.9459
C37 C 0.6283(5) 0.24882(18) 0.9601(2)
H25 H 0.6847 0.2684 0.9992
C38 C 0.4971(5) 0.26557(19) 0.9345(2)
H26 H 0.4637 0.2966 0.9565
C39 C 0.4134(4) 0.23736(17) 0.8769(2)
H27 H 0.3233 0.2488 0.8604
N5 N 0.6351(3) 0.26308(12) 0.75107(15)
C40 C 0.6628(4) 0.30256(15) 0.7863(2)
C41 C 0.6993(5) 0.35295(18) 0.8323(2)
H28 H 0.7632 0.3756 0.8135
H29 H 0.7398 0.3414 0.8824
H30 H 0.6192 0.3753 0.8317
N6 N 0.6316(6) 0.4723(2) 0.4567(3)
C42 C 0.6626(5) 0.5140(2) 0.4840(3)
C43 C 0.7039(6) 0.5679(2) 0.5177(3)
H31 H 0.7941 0.5647 0.5486
H32 H 0.6422 0.5793 0.5475
H33 H 0.7031 0.5962 0.4798
K1C K 0.17107(8) 0.13971(3) 0.91372(4)
K1C_2 K 1.17107(8) 0.13971(3) 0.91372(4)
O1C O 0.4235(3) 0.37359(11) 0.33246(14)
O3C O 0.7640(3) 0.35873(13) 0.29233(15)
N7 N 0.947(2) 0.4264(12) 0.5468(11)
C44 C 1.013(2) 0.4567(12) 0.5853(12)
C45 C 1.0856(14) 0.5034(8) 0.6276(9)
H34 H 1.1736 0.4904 0.6541
H35 H 1.0354 0.5171 0.6622
H36 H 1.0962 0.5340 0.5945
N8 N 0.6033(10) 0.5438(3) 0.1521(4)
C46 C 0.5698(7) 0.5063(2) 0.1775(3)
C47 C 0.5309(8) 0.4589(2) 0.2151(4)
H37 H 0.5888 0.4566 0.2642
H38 H 0.5392 0.4244 0.1883
H39 H 0.4382 0.4636 0.2186
loop_
_geom_bond_atom_site_label_1
_geom_bond_atom_site_label_2
_geom_bond_site_symmetry_1
_geom_bond_site_symmetry_2
Fe1 N1 1_555 1_555
K1 O2 1_555 1_555
N1 C1 1_555 1_555
C1 C2 1_555 1_555
C2 C3 1_555 1_555
C3 H1 1_555 1_555
C4 C3 1_555 1_555
H2 C4 1_555 1_555
C5 C4 1_555 1_555
H3 C5 1_555 1_555
C6 C1 1_555 1_555
H4 C6 1_555 1_555
N2 Fe1 1_555 1_555
O1 C7 1_555 1_555
C7 N2 1_555 1_555
C8 C7 1_555 1_555
C9 C8 1_555 1_555
H5 C9 1_555 1_555
C10 C9 1_555 1_555
H6 C10 1_555 1_555
C11 C10 1_555 1_555
H7 C11 1_555 1_555
C12 C11 1_555 1_555
H8 C12 1_555 1_555
C13 C8 1_555 1_555
H9 C13 1_555 1_555
C14 N1 1_555 1_555
C15 C14 1_555 1_555
C16 C15 1_555 1_555
H10 C16 1_555 1_555
C17 C16 1_555 1_555
H11 C17 1_555 1_555
C18 C17 1_555 1_555
H12 C18 1_555 1_555
C19 C14 1_555 1_555
H13 C19 1_555 1_555
N3 Fe1 1_555 1_555
O2 C20 1_555 1_555
C20 N3 1_555 1_555
C21 C20 1_555 1_555
C22 C21 1_555 1_555
H14 C22 1_555 1_555
C23 C22 1_555 1_555
H15 C23 1_555 1_555
C24 C23 1_555 1_555
H16 C24 1_555 1_555
C25 C24 1_555 1_555
H17 C25 1_555 1_555
C26 C21 1_555 1_555
H18 C26 1_555 1_555
C27 N1 1_555 1_555
C28 C27 1_555 1_555
C29 C28 1_555 1_555
H19 C29 1_555 1_555
C30 C29 1_555 1_555
H20 C30 1_555 1_555
C31 C30 1_555 1_555
H21 C31 1_555 1_555
C32 C27 1_555 1_555
H22 C32 1_555 1_555
N4 Fe1 1_555 1_555
O3 C33 1_555 1_555
C33 N4 1_555 1_555
C34 C33 1_555 1_555
C35 C34 1_555 1_555
H23 C35 1_555 1_555
C36 C35 1_555 1_555
H24 C36 1_555 1_555
C37 C36 1_555 1_555
H25 C37 1_555 1_555
C38 C37 1_555 1_555
H26 C38 1_555 1_555
C39 C34 1_555 1_555
H27 C39 1_555 1_555
N5 Fe1 1_555 1_555
C40 N5 1_555 1_555
C41 C40 1_555 1_555
H28 C41 1_555 1_555
H29 C41 1_555 1_555
H30 C41 1_555 1_555
N6 K1 1_555 1_555
C42 N6 1_555 1_555
C43 C42 1_555 1_555
H31 C43 1_555 1_555
H32 C43 1_555 1_555
H33 C43 1_555 1_555
N7 C44 1_555 1_555
C44 C45 1_555 1_555
C45 H34 1_555 1_555
H35 C45 1_555 1_555
H36 C45 1_555 1_555
N8 C46 1_555 1_555
C46 C47 1_555 1_555
C47 H37 1_555 1_555
H38 C47 1_555 1_555
H39 C47 1_555 1_555
K1C O3 1_555 1_555
K1C_2 O1 1_555 1_555
O1C K1 1_555 1_555
O3C K1 1_555 1_555
C2 N2 1_555 1_555
C5 C6 1_555 1_555
C12 C13 1_555 1_555
C15 N3 1_555 1_555
C18 C19 1_555 1_555
C25 C26 1_555 1_555
C28 N4 1_555 1_555
C31 C32 1_555 1_555
C38 C39 1_555 1_555

#END
