
#######################################################################
#
#                 Cambridge Crystallographic Data Centre
#                                CCDC 
#
#######################################################################
#
# If this CIF has been generated from an entry in the Cambridge 
# Structural Database, then it will include bibliographic, chemical, 
# crystal, experimental, refinement or atomic coordinate data resulting 
# from the CCDC's data processing and validation procedures.
#
#######################################################################

data_NAFKOW
_symmetry_cell_setting           triclinic
_symmetry_space_group_name_H-M   'P -1'
_symmetry_Int_Tables_number      2
_space_group_name_Hall           '-P 1'
loop_
_symmetry_equiv_pos_site_id
_symmetry_equiv_pos_as_xyz
1 x,y,z
2 -x,-y,-z
_cell_length_a                   11.054(4)
_cell_length_b                   11.624(4)
_cell_length_c                   17.167(6)
_cell_angle_alpha                101.488(6)
_cell_angle_beta                 91.197(6)
_cell_angle_gamma                95.524(6)
_cell_volume                     2149.77
loop_
_atom_site_label
_atom_site_type_symbol
_atom_site_fract_x
_atom_site_fract_y
_atom_site_fract_z
Fe1 Fe 0.91732(4) 0.80629(4) 0.20642(3)
K1 K 0.38659(8) 0.57171(10) 0.30569(7)
O1 O 0.8952(2) 0.9391(2) 0.15827(14)
O2 O 0.5927(3) 0.6056(3) 0.24896(19)
O3 O 1.2687(2) 0.7321(3) 0.26981(17)
O4 O 0.3649(4) 0.5036(4) 0.4387(2)
O5 O 0.2678(4) 0.4175(4) 0.1978(3)
N1 N 0.9319(2) 0.8879(2) 0.33411(15)
N2 N 0.8714(3) 1.0909(3) 0.26471(18)
N3 N 0.7509(2) 0.7452(3) 0.24137(16)
N4 N 0.3042(5) 0.5686(5) 0.5616(3)
N5 N 0.1598(6) 0.2730(6) 0.1168(3)
N6 N 1.0669(3) 0.7334(3) 0.23902(16)
C1 C 1.0160(3) 0.9931(3) 0.33809(18)
C2 C 0.9853(3) 1.0842(3) 0.3011(2)
C3 C 1.0718(4) 1.1813(4) 0.3050(2)
H1 H 1.0517 1.2444 0.2833
C4 C 1.1868(4) 1.1866(4) 0.3403(3)
H2 H 1.2430 1.2519 0.3413
C5 C 1.2170(4) 1.0947(4) 0.3738(2)
H3 H 1.2944 1.0969 0.3967
C6 C 1.1320(4) 0.9986(3) 0.3734(2)
H4 H 1.1525 0.9373 0.3969
C7 C 0.8355(3) 1.0234(3) 0.1986(2)
C8 C 0.7173(4) 1.0451(4) 0.1582(2)
C9 C 0.6440(4) 0.9279(5) 0.1203(3)
H5 H 0.6211 0.8851 0.1610
H6 H 0.6927 0.8820 0.0828
H7 H 0.5721 0.9433 0.0933
C10 C 0.7530(4) 1.1119(4) 0.0926(3)
H8 H 0.8069 1.0684 0.0578
H9 H 0.7932 1.1882 0.1161
H10 H 0.6813 1.1210 0.0628
C11 C 0.6407(5) 1.1179(6) 0.2170(3)
H11 H 0.5688 1.1331 0.1899
H12 H 0.6867 1.1915 0.2404
H13 H 0.6179 1.0755 0.2579
C12 C 0.8068(3) 0.9039(3) 0.35398(19)
C13 C 0.7160(3) 0.8255(3) 0.30755(19)
C14 C 0.5939(3) 0.8434(4) 0.3260(2)
H14 H 0.5307 0.7957 0.2954
C15 C 0.5678(4) 0.9307(4) 0.3887(3)
H15 H 0.4869 0.9399 0.4000
C16 C 0.6584(4) 1.0046(4) 0.4351(2)
H16 H 0.6392 1.0624 0.4775
C17 C 0.7789(4) 0.9911(4) 0.4171(2)
H17 H 0.8412 1.0405 0.4475
C18 C 0.6804(3) 0.6438(3) 0.2145(2)
C19 C 0.7107(3) 0.5659(3) 0.1352(2)
C20 C 0.8240(5) 0.6108(5) 0.0950(3)
H18 H 0.8939 0.6194 0.1306
H19 H 0.8124 0.6858 0.0822
H20 H 0.8365 0.5552 0.0471
C21 C 0.7314(8) 0.4453(6) 0.1484(4)
H21 H 0.6615 0.4128 0.1720
H22 H 0.8017 0.4510 0.1832
H23 H 0.7442 0.3949 0.0983
C22 C 0.6024(6) 0.5565(8) 0.0783(4)
H24 H 0.6206 0.5133 0.0269
H25 H 0.5843 0.6342 0.0740
H26 H 0.5333 0.5160 0.0979
C23 C 0.9759(3) 0.7907(3) 0.36575(19)
C24 C 1.0412(3) 0.7123(3) 0.31620(19)
C25 C 1.0754(3) 0.6130(4) 0.3435(2)
H27 H 1.1159 0.5573 0.3103
C26 C 1.0487(4) 0.5981(4) 0.4198(3)
H28 H 1.0707 0.5320 0.4373
C27 C 0.9896(4) 0.6808(4) 0.4697(2)
H29 H 0.9758 0.6725 0.5217
C28 C 0.9508(3) 0.7766(4) 0.4427(2)
H30 H 0.9083 0.8308 0.4756
C29 C 1.1859(3) 0.7420(3) 0.2228(2)
C30 C 1.2220(3) 0.7745(4) 0.1431(2)
C31 C 1.1223(4) 0.7448(6) 0.0785(2)
H31 H 1.1555 0.7544 0.0287
H32 H 1.0599 0.7966 0.0915
H33 H 1.0883 0.6646 0.0743
C32 C 1.3297(4) 0.7074(5) 0.1132(3)
H34 H 1.3057 0.6241 0.1041
H35 H 1.3956 0.7275 0.1524
H36 H 1.3555 0.7286 0.0644
C33 C 1.2615(6) 0.9073(5) 0.1603(3)
H37 H 1.2962 0.9291 0.1138
H38 H 1.3209 0.9265 0.2037
H39 H 1.1921 0.9497 0.1741
C34 C 0.3464(5) 0.3671(5) 0.5239(4)
H40 H 0.2658 0.3276 0.5228
H41 H 0.3845 0.3744 0.5756
H42 H 0.3933 0.3220 0.4847
C35 C 0.3397(4) 0.4855(5) 0.5062(3)
C36 C 0.3105(8) 0.6909(6) 0.5463(5)
H43 H 0.3760 0.7390 0.5783
H44 H 0.2352 0.7232 0.5598
H45 H 0.3244 0.6890 0.4911
C37 C 0.2715(9) 0.5522(9) 0.6405(4)
H46 H 0.2484 0.4701 0.6390
H47 H 0.2046 0.5966 0.6576
H48 H 0.3399 0.5792 0.6771
C38 C 0.3474(6) 0.2275(8) 0.1404(6)
H49 H 0.3320 0.1695 0.1727
H50 H 0.4263 0.2695 0.1547
H51 H 0.3448 0.1889 0.0854
C39 C 0.2418(10) 0.3219(8) 0.1549(5)
C40 C 0.1152(6) 0.1578(5) 0.0724(4)
H52 H 0.1797 0.1074 0.0676
H53 H 0.0865 0.1640 0.0204
H54 H 0.0496 0.1250 0.0997
C41 C 0.0546(5) 0.3682(6) 0.1299(4)
H55 H -0.0052 0.3444 0.1649
H56 H 0.0159 0.3692 0.0794
H57 H 0.0925 0.4457 0.1528
K1_2 K 1.38659(8) 0.57171(10) 0.30569(7)
O3_2 O 0.2687(2) 0.7321(3) 0.26981(17)
loop_
_geom_bond_atom_site_label_1
_geom_bond_atom_site_label_2
_geom_bond_site_symmetry_1
_geom_bond_site_symmetry_2
Fe1 O1 1_555 1_555
K1 O2 1_555 1_555
O1 C7 1_555 1_555
O2 C18 1_555 1_555
O3 C29 1_555 1_555
O4 K1 1_555 1_555
O5 K1 1_555 1_555
N1 Fe1 1_555 1_555
N2 C2 1_555 1_555
N3 Fe1 1_555 1_555
N4 C35 1_555 1_555
N5 C39 1_555 1_555
N6 Fe1 1_555 1_555
C1 N1 1_555 1_555
C2 C1 1_555 1_555
C3 C2 1_555 1_555
H1 C3 1_555 1_555
C4 C3 1_555 1_555
H2 C4 1_555 1_555
C5 C4 1_555 1_555
H3 C5 1_555 1_555
C6 C1 1_555 1_555
H4 C6 1_555 1_555
C7 N2 1_555 1_555
C8 C7 1_555 1_555
C9 C8 1_555 1_555
H5 C9 1_555 1_555
H6 C9 1_555 1_555
H7 C9 1_555 1_555
C10 C8 1_555 1_555
H8 C10 1_555 1_555
H9 C10 1_555 1_555
H10 C10 1_555 1_555
C11 C8 1_555 1_555
H11 C11 1_555 1_555
H12 C11 1_555 1_555
H13 C11 1_555 1_555
C12 N1 1_555 1_555
C13 N3 1_555 1_555
C14 C13 1_555 1_555
H14 C14 1_555 1_555
C15 C14 1_555 1_555
H15 C15 1_555 1_555
C16 C15 1_555 1_555
H16 C16 1_555 1_555
C17 C12 1_555 1_555
H17 C17 1_555 1_555
C18 N3 1_555 1_555
C19 C18 1_555 1_555
C20 C19 1_555 1_555
H18 C20 1_555 1_555
H19 C20 1_555 1_555
H20 C20 1_555 1_555
C21 C19 1_555 1_555
H21 C21 1_555 1_555
H22 C21 1_555 1_555
H23 C21 1_555 1_555
C22 C19 1_555 1_555
H24 C22 1_555 1_555
H25 C22 1_555 1_555
H26 C22 1_555 1_555
C23 N1 1_555 1_555
C24 N6 1_555 1_555
C25 C24 1_555 1_555
H27 C25 1_555 1_555
C26 C25 1_555 1_555
H28 C26 1_555 1_555
C27 C26 1_555 1_555
H29 C27 1_555 1_555
C28 C23 1_555 1_555
H30 C28 1_555 1_555
C29 N6 1_555 1_555
C30 C29 1_555 1_555
C31 C30 1_555 1_555
H31 C31 1_555 1_555
H32 C31 1_555 1_555
H33 C31 1_555 1_555
C32 C30 1_555 1_555
H34 C32 1_555 1_555
H35 C32 1_555 1_555
H36 C32 1_555 1_555
C33 C30 1_555 1_555
H37 C33 1_555 1_555
H38 C33 1_555 1_555
H39 C33 1_555 1_555
C34 H40 1_555 1_555
H41 C34 1_555 1_555
H42 C34 1_555 1_555
C35 O4 1_555 1_555
C36 N4 1_555 1_555
H43 C36 1_555 1_555
H44 C36 1_555 1_555
H45 C36 1_555 1_555
C37 N4 1_555 1_555
H46 C37 1_555 1_555
H47 C37 1_555 1_555
H48 C37 1_555 1_555
C38 H49 1_555 1_555
H50 C38 1_555 1_555
H51 C38 1_555 1_555
C39 O5 1_555 1_555
C40 N5 1_555 1_555
H52 C40 1_555 1_555
H53 C40 1_555 1_555
H54 C40 1_555 1_555
C41 N5 1_555 1_555
H55 C41 1_555 1_555
H56 C41 1_555 1_555
H57 C41 1_555 1_555
K1_2 O3 1_555 1_555
O3_2 K1 1_555 1_555
C5 C6 1_555 1_555
C12 C13 1_555 1_555
C16 C17 1_555 1_555
C23 C24 1_555 1_555
C27 C28 1_555 1_555
C34 C35 1_555 1_555
C38 C39 1_555 1_555

#END
