
#######################################################################
#
#                 Cambridge Crystallographic Data Centre
#                                CCDC 
#
#######################################################################
#
# If this CIF has been generated from an entry in the Cambridge 
# Structural Database, then it will include bibliographic, chemical, 
# crystal, experimental, refinement or atomic coordinate data resulting 
# from the CCDC's data processing and validation procedures.
#
#######################################################################

data_NAFLOX
_symmetry_cell_setting           monoclinic
_symmetry_space_group_name_H-M   'C c'
_symmetry_Int_Tables_number      9
_space_group_name_Hall           'C -2yc'
loop_
_symmetry_equiv_pos_site_id
_symmetry_equiv_pos_as_xyz
1 x,y,z
2 x,-y,1/2+z
3 1/2+x,1/2+y,z
4 1/2+x,1/2-y,1/2+z
_cell_length_a                   18.2046(14)
_cell_length_b                   10.7576(8)
_cell_length_c                   19.0952(15)
_cell_angle_alpha                90
_cell_angle_beta                 94.4560(10)
_cell_angle_gamma                90
_cell_volume                     3728.26
loop_
_atom_site_label
_atom_site_type_symbol
_atom_site_fract_x
_atom_site_fract_y
_atom_site_fract_z
Fe1 Fe 0.68682(4) 0.69617(7) 0.42852(4)
K1 K 0.60537(9) 0.19663(12) 0.22581(7)
N1 N 0.5628(3) 0.7130(4) 0.4673(2)
C1 C 0.5614(4) 0.6170(5) 0.5171(3)
C2 C 0.6239(6) 0.6016(8) 0.5646(6)
C3 C 0.6239(10) 0.5118(10) 0.6117(6)
H1 H 0.6656 0.5040 0.6445
C4 C 0.5635(9) 0.4239(11) 0.6161(5)
H2 H 0.5647 0.3602 0.6506
C5 C 0.5076(8) 0.4386(10) 0.5695(6)
H3 H 0.4676 0.3818 0.5699
C6 C 0.5033(5) 0.5339(9) 0.5189(5)
H4 H 0.4613 0.5412 0.4864
N2 N 0.6949(6) 0.6770(7) 0.5409(4)
O1 O 0.7183(5) 0.7288(12) 0.6604(4)
C7 C 0.7229(5) 0.7251(8) 0.5909(5)
C8 C 0.7883(8) 0.8056(11) 0.5839(8)
F1 F 0.7797(3) 0.8765(6) 0.5229(4)
F2 F 0.8479(4) 0.7368(9) 0.5728(9)
F3 F 0.8193(6) 0.8794(12) 0.6266(5)
C9 C 0.5204(3) 0.6923(5) 0.4018(3)
C10 C 0.5495(3) 0.6119(5) 0.3543(3)
C11 C 0.5087(4) 0.5896(6) 0.2907(3)
H5 H 0.5270 0.5346 0.2572
C12 C 0.4424(5) 0.6471(8) 0.2770(4)
H6 H 0.4155 0.6326 0.2331
C13 C 0.4128(4) 0.7263(7) 0.3250(4)
H7 H 0.3659 0.7635 0.3149
C14 C 0.4527(4) 0.7490(6) 0.3868(4)
H8 H 0.4340 0.8043 0.4199
N3 N 0.6209(3) 0.5637(5) 0.3747(3)
O2 O 0.6050(3) 0.3828(5) 0.3071(3)
C15 C 0.6389(4) 0.4540(6) 0.3489(4)
C16 C 0.7160(5) 0.4080(7) 0.3760(7)
F4 F 0.7386(3) 0.4508(5) 0.4401(3)
F5 F 0.7666(3) 0.4381(6) 0.3336(4)
F6 F 0.7155(4) 0.2838(4) 0.3786(6)
C17 C 0.5700(3) 0.8375(6) 0.4930(3)
C18 C 0.6100(3) 0.9203(5) 0.4552(3)
C19 C 0.6199(4) 1.0417(6) 0.4784(4)
H9 H 0.6466 1.0987 0.4521
C20 C 0.5911(4) 1.0804(7) 0.5400(4)
H10 H 0.6000 1.1624 0.5571
C21 C 0.5490(4) 0.9985(6) 0.5764(3)
H11 H 0.5281 1.0258 0.6178
C22 C 0.5372(4) 0.8798(6) 0.5537(3)
H12 H 0.5072 0.8254 0.5784
N4 N 0.6426(3) 0.8689(5) 0.3960(2)
O3 O 0.5974(3) 1.0248(4) 0.3224(3)
C23 C 0.6304(3) 0.9296(6) 0.3363(3)
C24 C 0.6615(4) 0.8664(6) 0.2719(3)
F7 F 0.6950(3) 0.7597(4) 0.2830(2)
F8 F 0.6045(3) 0.8376(5) 0.2229(3)
F9 F 0.7033(4) 0.9422(5) 0.2395(3)
C25 C 0.8471(4) 0.7559(7) 0.3925(4)
C26 C 0.8409(6) 0.8876(8) 0.3722(7)
H13 H 0.7894 0.9140 0.3721
H14 H 0.8578 0.8984 0.3251
H15 H 0.8714 0.9381 0.4058
O4 O 0.7907(3) 0.6977(5) 0.4021(4)
N5 N 0.9116(3) 0.7048(6) 0.3954(4)
C27 C 0.9186(5) 0.5735(9) 0.4191(7)
H16 H 0.8696 0.5398 0.4257
H17 H 0.9491 0.5698 0.4636
H18 H 0.9417 0.5244 0.3836
C28 C 0.9811(4) 0.7671(8) 0.3827(5)
H19 H 0.9711 0.8533 0.3685
H20 H 1.0047 0.7235 0.3453
H21 H 1.0140 0.7659 0.4259
C29 C 0.4013(7) 0.1498(11) 0.1883(6)
C30 C 0.3888(16) 0.0245(15) 0.2069(19)
H22 H 0.3379 0.0016 0.1921
H23 H 0.3974 0.0149 0.2579
H24 H 0.4226 -0.0297 0.1835
O5 O 0.4623(5) 0.1956(9) 0.2015(4)
N6 N 0.3535(7) 0.2108(14) 0.1529(6)
C31 C 0.366(2) 0.332(3) 0.1377(18)
H25 H 0.4146 0.3566 0.1585
H26 H 0.3281 0.3838 0.1570
H27 H 0.3639 0.3428 0.0867
C32 C 0.2816(9) 0.158(4) 0.1310(15)
H28 H 0.2778 0.0747 0.1510
H29 H 0.2758 0.1530 0.0796
H30 H 0.2428 0.2113 0.1476
K1_2 K 0.60537(9) 1.19663(12) 0.22581(7)
K1A K 0.60537(9) 0.80337(12) 0.72581(7)
O1A O 0.7183(5) 0.2712(12) 0.1604(4)
O3_2 O 0.5974(3) 0.0248(4) 0.3224(3)
loop_
_geom_bond_atom_site_label_1
_geom_bond_atom_site_label_2
_geom_bond_site_symmetry_1
_geom_bond_site_symmetry_2
Fe1 N1 1_555 1_555
K1 O2 1_555 1_555
N1 C1 1_555 1_555
C1 C2 1_555 1_555
C2 C3 1_555 1_555
C3 H1 1_555 1_555
C4 C3 1_555 1_555
H2 C4 1_555 1_555
C5 C4 1_555 1_555
H3 C5 1_555 1_555
C6 C1 1_555 1_555
H4 C6 1_555 1_555
N2 Fe1 1_555 1_555
O1 C7 1_555 1_555
C7 N2 1_555 1_555
C8 C7 1_555 1_555
F1 C8 1_555 1_555
F2 C8 1_555 1_555
F3 C8 1_555 1_555
C9 N1 1_555 1_555
C10 C9 1_555 1_555
C11 C10 1_555 1_555
H5 C11 1_555 1_555
C12 C11 1_555 1_555
H6 C12 1_555 1_555
C13 C12 1_555 1_555
H7 C13 1_555 1_555
C14 C9 1_555 1_555
H8 C14 1_555 1_555
N3 Fe1 1_555 1_555
O2 C15 1_555 1_555
C15 N3 1_555 1_555
C16 C15 1_555 1_555
F4 C16 1_555 1_555
F5 C16 1_555 1_555
F6 C16 1_555 1_555
C17 N1 1_555 1_555
C18 C17 1_555 1_555
C19 C18 1_555 1_555
H9 C19 1_555 1_555
C20 C19 1_555 1_555
H10 C20 1_555 1_555
C21 C20 1_555 1_555
H11 C21 1_555 1_555
C22 C17 1_555 1_555
H12 C22 1_555 1_555
N4 Fe1 1_555 1_555
O3 C23 1_555 1_555
C23 N4 1_555 1_555
C24 C23 1_555 1_555
F7 C24 1_555 1_555
F8 C24 1_555 1_555
F9 C24 1_555 1_555
C25 C26 1_555 1_555
C26 H13 1_555 1_555
H14 C26 1_555 1_555
H15 C26 1_555 1_555
O4 Fe1 1_555 1_555
N5 C25 1_555 1_555
C27 N5 1_555 1_555
H16 C27 1_555 1_555
H17 C27 1_555 1_555
H18 C27 1_555 1_555
C28 N5 1_555 1_555
H19 C28 1_555 1_555
H20 C28 1_555 1_555
H21 C28 1_555 1_555
C29 C30 1_555 1_555
C30 H22 1_555 1_555
H23 C30 1_555 1_555
H24 C30 1_555 1_555
O5 K1 1_555 1_555
N6 C29 1_555 1_555
C31 N6 1_555 1_555
H25 C31 1_555 1_555
H26 C31 1_555 1_555
H27 C31 1_555 1_555
C32 N6 1_555 1_555
H28 C32 1_555 1_555
H29 C32 1_555 1_555
H30 C32 1_555 1_555
K1_2 O3 1_555 1_555
K1A O1 1_555 1_555
O1A K1 1_555 1_555
O3_2 K1 1_555 1_555
C2 N2 1_555 1_555
C5 C6 1_555 1_555
C10 N3 1_555 1_555
C13 C14 1_555 1_555
C18 N4 1_555 1_555
C21 C22 1_555 1_555
C25 O4 1_555 1_555
C29 O5 1_555 1_555

#END
