
#######################################################################
#
#                 Cambridge Crystallographic Data Centre
#                                CCDC 
#
#######################################################################
#
# If this CIF has been generated from an entry in the Cambridge 
# Structural Database, then it will include bibliographic, chemical, 
# crystal, experimental, refinement or atomic coordinate data resulting 
# from the CCDC's data processing and validation procedures.
#
#######################################################################

data_NAFLIR
_symmetry_cell_setting           triclinic
_symmetry_space_group_name_H-M   'P -1'
_symmetry_Int_Tables_number      2
_space_group_name_Hall           '-P 1'
loop_
_symmetry_equiv_pos_site_id
_symmetry_equiv_pos_as_xyz
1 x,y,z
2 -x,-y,-z
_cell_length_a                   20.365(3)
_cell_length_b                   20.450(3)
_cell_length_c                   21.442(3)
_cell_angle_alpha                64.440(2)
_cell_angle_beta                 81.256(2)
_cell_angle_gamma                67.663(2)
_cell_volume                     7450.66
loop_
_atom_site_label
_atom_site_type_symbol
_atom_site_fract_x
_atom_site_fract_y
_atom_site_fract_z
O13 O 0.7801(4) 0.0376(5) -0.1902(4)
C121 C 0.8009(5) 0.0871(6) -0.1856(4)
C122 C 0.8646(5) 0.1007(6) -0.2244(5)
H133 H 0.8822 0.0689 -0.2510
H134 H 0.9016 0.0867 -0.1918
H135 H 0.8520 0.1556 -0.2559
N17 N 0.7680(4) 0.1227(4) -0.1462(4)
C123 C 0.7074(5) 0.1044(6) -0.1050(5)
H136 H 0.6976 0.0668 -0.1155
H137 H 0.6654 0.1518 -0.1164
H138 H 0.7190 0.0823 -0.0557
C124 C 0.7899(6) 0.1777(6) -0.1373(7)
H139 H 0.8303 0.1851 -0.1673
H140 H 0.8039 0.1580 -0.0890
H141 H 0.7503 0.2274 -0.1498
O17 O 0.8595(4) 0.2476(5) -0.4364(5)
C137 C 0.8202(7) 0.3035(8) -0.4254(8)
C138 C 0.8377(6) 0.3734(8) -0.4335(10)
H169 H 0.7962 0.4097 -0.4212
H170 H 0.8502 0.3993 -0.4816
H171 H 0.8778 0.3557 -0.4030
N21 N 0.7671(4) 0.3069(6) -0.3929(5)
C139 C 0.7393(7) 0.2371(7) -0.3821(7)
H172 H 0.7770 0.1981 -0.3951
H173 H 0.6972 0.2586 -0.4113
H174 H 0.7273 0.2129 -0.3335
C140 C 0.7118(7) 0.3654(7) -0.3735(10)
H175 H 0.7290 0.4067 -0.3803
H176 H 0.6999 0.3415 -0.3249
H177 H 0.6694 0.3873 -0.4025
Fe1 Fe 0.70016(4) -0.27929(4) 0.22424(4)
Fe2 Fe 0.89895(4) -0.29080(5) 0.17502(4)
Fe3 Fe 0.47213(4) -0.67813(4) 0.29302(4)
Fe4 Fe 0.67391(4) -0.77213(4) 0.23215(4)
K1 K 0.75266(7) -0.09047(8) 0.17187(7)
K2 K 0.62155(6) -0.58911(7) 0.27310(6)
K3 K 1.17663(7) -0.62944(8) 0.25126(8)
K4 K 1.22516(8) -0.84364(9) 0.34956(8)
O1 O 0.58299(18) -0.7061(2) 0.17979(17)
O2 O 0.54802(18) -0.7785(2) 0.34563(18)
O3 O 0.7261(2) 0.0319(2) 0.1858(2)
O4 O 0.69344(19) -0.6095(2) 0.17061(19)
O5 O 0.8399(2) -0.1164(2) 0.0807(2)
N1 N 0.5877(2) -0.2198(2) 0.1551(2)
C1 C 0.6035(3) -0.2704(3) 0.1202(3)
C2 C 0.6467(3) -0.3475(3) 0.1559(3)
N2 N 0.6763(2) -0.3676(3) 0.2194(2)
C3 C 0.6594(3) -0.3985(3) 0.1234(3)
H1 H 0.6866 -0.4518 0.1469
C4 C 0.6328(3) -0.3716(3) 0.0582(3)
H2 H 0.6424 -0.4068 0.0372
C5 C 0.5923(3) -0.2948(3) 0.0226(3)
H3 H 0.5749 -0.2770 -0.0227
C6 C 0.5774(3) -0.2437(3) 0.0539(3)
H4 H 0.5494 -0.1907 0.0300
C7 C 0.6822(3) -0.4364(3) 0.2719(3)
O6 O 0.6589(2) -0.4843(2) 0.2703(2)
C8 C 0.7205(3) -0.4572(3) 0.3373(3)
H5 H 0.7246 -0.4092 0.3355
C9 C 0.7936(4) -0.5142(5) 0.3388(4)
H6 H 0.8189 -0.5281 0.3807
H7 H 0.8195 -0.4910 0.2980
H8 H 0.7904 -0.5608 0.3389
C10 C 0.6777(5) -0.4880(6) 0.4001(4)
H9 H 0.7025 -0.5013 0.4421
H10 H 0.6723 -0.5344 0.4018
H11 H 0.6308 -0.4484 0.3970
C11 C 0.5388(3) -0.2309(3) 0.2110(3)
N3 N 0.6180(2) -0.2139(3) 0.2686(2)
C12 C 0.5551(3) -0.2270(3) 0.2699(3)
C13 C 0.5117(3) -0.2439(3) 0.3279(3)
H12 H 0.5221 -0.2420 0.3687
C14 C 0.4544(3) -0.2632(4) 0.3264(3)
H13 H 0.4256 -0.2746 0.3661
C15 C 0.4385(3) -0.2661(4) 0.2675(3)
H14 H 0.3985 -0.2789 0.2666
C16 C 0.4810(3) -0.2502(3) 0.2092(3)
H15 H 0.4703 -0.2525 0.1687
O7 O 0.67918(19) -0.1433(2) 0.2711(2)
C17 C 0.6213(3) -0.1529(3) 0.2765(3)
C18 C 0.5560(3) -0.0956(3) 0.2929(3)
H16 H 0.5134 -0.1066 0.2888
C19 C 0.5476(3) -0.0125(3) 0.2407(3)
H17 H 0.5445 -0.0080 0.1937
H18 H 0.5888 -0.0006 0.2445
H19 H 0.5043 0.0240 0.2506
C20 C 0.5612(3) -0.1055(4) 0.3673(3)
H20 H 0.5665 -0.1588 0.3993
H21 H 0.5180 -0.0697 0.3781
H22 H 0.6024 -0.0942 0.3719
C21 C 0.5913(3) -0.1440(3) 0.1156(3)
N4 N 0.7194(2) -0.2080(3) 0.1232(2)
C22 C 0.6591(3) -0.1401(3) 0.0937(3)
C23 C 0.6640(3) -0.0675(3) 0.0528(3)
H23 H 0.7088 -0.0636 0.0359
C24 C 0.6039(3) -0.0010(3) 0.0367(3)
H24 H 0.6079 0.0481 0.0084
C25 C 0.5386(3) -0.0054(3) 0.0611(3)
H25 H 0.4980 0.0406 0.0515
C26 C 0.5320(3) -0.0779(3) 0.1004(3)
H26 H 0.4868 -0.0814 0.1164
O8 O 0.83007(19) -0.2860(2) 0.11458(19)
C27 C 0.7719(3) -0.2329(3) 0.0860(3)
C28 C 0.7668(3) -0.2084(4) 0.0087(3)
H27 H 0.7186 -0.1686 -0.0077
C29 C 0.7739(3) -0.2774(4) -0.0050(3)
H28 H 0.7380 -0.2995 0.0212
H29 H 0.8213 -0.3166 0.0095
H30 H 0.7670 -0.2608 -0.0545
C30 C 0.8221(4) -0.1722(5) -0.0313(3)
H31 H 0.8170 -0.1573 -0.0808
H32 H 0.8698 -0.2099 -0.0153
H33 H 0.8148 -0.1262 -0.0233
N5 N 1.0016(2) -0.2992(3) 0.2420(2)
C31 C 1.0124(3) -0.3747(3) 0.2950(3)
N6 N 0.9777(2) -0.4035(3) 0.2097(2)
C32 C 1.0020(3) -0.4280(3) 0.2773(3)
C33 C 1.0118(3) -0.5031(3) 0.3294(3)
H34 H 1.0063 -0.5412 0.3186
C34 C 1.0294(3) -0.5210(4) 0.3966(3)
H35 H 1.0366 -0.5717 0.4313
C35 C 1.0368(3) -0.4660(4) 0.4135(3)
H36 H 1.0478 -0.4781 0.4596
C36 C 1.0277(3) -0.3932(4) 0.3621(3)
H37 H 1.0320 -0.3549 0.3733
O9 O 1.0616(2) -0.5100(3) 0.1975(2)
C37 C 1.0109(3) -0.4465(3) 0.1743(3)
C38 C 0.9837(3) -0.4149(4) 0.1015(3)
H38 H 0.9539 -0.3589 0.0871
C39 C 0.9370(4) -0.4581(5) 0.0998(5)
H39 H 0.8976 -0.4524 0.1319
H40 H 0.9655 -0.5131 0.1136
H41 H 0.9181 -0.4363 0.0528
C40 C 1.0467(4) -0.4217(5) 0.0518(4)
H42 H 1.0750 -0.3934 0.0543
H43 H 1.0287 -0.3996 0.0045
H44 H 1.0763 -0.4764 0.0651
C41 C 1.0214(3) -0.2392(3) 0.1185(3)
N7 N 0.9463(2) -0.2102(3) 0.1137(2)
C42 C 1.0503(3) -0.2903(3) 0.1851(3)
C43 C 1.1228(3) -0.3307(3) 0.1941(3)
H45 H 1.1423 -0.3647 0.2391
C44 C 1.1667(3) -0.3216(4) 0.1373(3)
H46 H 1.2162 -0.3503 0.1434
C45 C 1.1386(3) -0.2709(4) 0.0720(3)
H47 H 1.1692 -0.2639 0.0334
C46 C 1.0666(3) -0.2303(4) 0.0624(3)
H48 H 1.0478 -0.1960 0.0171
C47 C 0.9060(3) -0.1356(4) 0.0825(3)
C48 C 0.9368(3) -0.0706(4) 0.0502(3)
H49 H 0.9897 -0.0939 0.0556
C49 C 0.9083(4) -0.0175(4) 0.0876(4)
H50 H 0.9278 0.0242 0.0670
H51 H 0.9222 -0.0471 0.1365
H52 H 0.8564 0.0047 0.0834
C50 C 0.9175(4) -0.0272(4) -0.0268(4)
H53 H 0.9370 0.0146 -0.0478
H54 H 0.8658 -0.0052 -0.0325
H55 H 0.9375 -0.0631 -0.0494
C51 C 0.9667(3) -0.2353(3) 0.2602(3)
N8 N 0.8590(2) -0.2578(3) 0.2582(2)
C52 C 0.8936(3) -0.2189(3) 0.2737(3)
C53 C 0.8587(3) -0.1591(3) 0.2959(3)
C54 C 0.8943(3) -0.1181(4) 0.3041(3)
H57 H 0.8695 -0.0782 0.3196
C55 C 0.9661(3) -0.1345(4) 0.2899(3)
H58 H 0.9903 -0.1055 0.2951
C56 C 1.0024(3) -0.1935(4) 0.2681(3)
H59 H 1.0517 -0.2053 0.2586
O10 O 0.78358(18) -0.3223(2) 0.28561(18)
C57 C 0.8190(3) -0.2942(3) 0.3035(3)
C58 C 0.8210(3) -0.3148(3) 0.3811(3)
H60 H 0.8552 -0.2950 0.3897
C59 C 0.8481(3) -0.4025(4) 0.4183(3)
H61 H 0.8500 -0.4176 0.4682
H62 H 0.8957 -0.4240 0.4020
H63 H 0.8159 -0.4227 0.4086
C60 C 0.7485(3) -0.2796(3) 0.4080(3)
H64 H 0.7522 -0.2942 0.4576
H65 H 0.7146 -0.2991 0.4003
H66 H 0.7319 -0.2231 0.3835
N9 N 0.3678(2) -0.5535(2) 0.2332(2)
C61 C 0.3446(3) -0.5745(3) 0.1866(3)
N10 N 0.3892(2) -0.7052(2) 0.2747(2)
C62 C 0.3525(3) -0.6526(3) 0.2109(3)
C63 C 0.3275(3) -0.6745(3) 0.1682(3)
H67 H 0.3322 -0.7271 0.1830
C64 C 0.2961(3) -0.6204(4) 0.1046(3)
H68 H 0.2791 -0.6362 0.0767
C65 C 0.2892(3) -0.5431(4) 0.0811(3)
H69 H 0.2674 -0.5063 0.0375
C66 C 0.3147(3) -0.5206(3) 0.1223(3)
H70 H 0.3116 -0.4683 0.1064
O11 O 1.29687(19) -0.7514(2) 0.3139(2)
C67 C 0.3577(3) -0.7528(3) 0.3205(3)
C68 C 0.4018(3) -0.8156(4) 0.3846(3)
H71 H 0.4405 -0.7992 0.3896
C69 C 0.3578(4) -0.8263(6) 0.4492(4)
H72 H 0.3877 -0.8671 0.4894
H73 H 0.3188 -0.8412 0.4450
H74 H 0.3383 -0.7776 0.4553
C70 C 0.4359(4) -0.8901(4) 0.3746(4)
H75 H 0.4643 -0.9307 0.4157
H76 H 0.4667 -0.8820 0.3341
H77 H 0.3989 -0.9059 0.3674
C71 C 0.3233(3) -0.5521(3) 0.2919(3)
N11 N 0.4314(2) -0.6192(3) 0.3568(2)
C72 C 0.3571(3) -0.5843(3) 0.3560(3)
C73 C 0.3145(3) -0.5862(3) 0.4137(3)
H78 H 0.3361 -0.6092 0.4581
C74 C 0.2412(3) -0.5552(4) 0.4074(3)
H79 H 0.2131 -0.5551 0.4471
C75 C 0.2084(3) -0.5242(3) 0.3438(3)
H80 H 0.1581 -0.5044 0.3401
C76 C 0.2494(3) -0.5220(3) 0.2856(3)
H81 H 0.2273 -0.5003 0.2416
O12 O 0.54254(19) -0.6328(2) 0.37498(19)
C77 C 0.4763(3) -0.6008(3) 0.3796(3)
C78 C 0.4524(3) -0.5407(3) 0.4096(3)
H82 H 0.3993 -0.5180 0.4084
C79 C 0.4788(4) -0.5788(4) 0.4846(3)
H83 H 0.4632 -0.5398 0.5039
H84 H 0.5308 -0.6012 0.4860
H85 H 0.4593 -0.6197 0.5119
C80 C 0.4817(4) -0.4770(4) 0.3673(3)
H86 H 0.4647 -0.4528 0.3194
H87 H 0.5337 -0.4989 0.3685
H88 H 0.4658 -0.4380 0.3866
C81 C 0.4032(3) -0.4980(3) 0.2041(2)
N12 N 0.5074(2) -0.6050(2) 0.2016(2)
C82 C 0.4729(3) -0.5249(3) 0.1829(3)
C83 C 0.5078(3) -0.4717(3) 0.1515(3)
H89 H 0.5549 -0.4882 0.1357
C84 C 0.4748(3) -0.3949(3) 0.1431(3)
H90 H 0.4992 -0.3594 0.1216
C85 C 0.4062(3) -0.3702(3) 0.1661(3)
H91 H 0.3836 -0.3181 0.1610
C86 C 0.3704(3) -0.4224(3) 0.1968(3)
H92 H 0.3234 -0.4059 0.2127
C87 C 0.5442(2) -0.6348(3) 0.1573(3)
C88 C 0.5358(3) -0.5896(3) 0.0790(3)
H93 H 0.5068 -0.5340 0.0682
C89 C 0.6077(3) -0.5947(3) 0.0438(3)
H94 H 0.6322 -0.5724 0.0609
H95 H 0.6004 -0.5659 -0.0063
H96 H 0.6366 -0.6491 0.0544
C90 C 0.4951(3) -0.6239(3) 0.0540(3)
H97 H 0.4494 -0.6197 0.0775
H98 H 0.5231 -0.6785 0.0646
H99 H 0.4868 -0.5953 0.0039
N13 N 0.7882(2) -0.8613(3) 0.3032(2)
C91 C 0.7708(3) -0.9306(3) 0.3380(3)
N14 N 0.7005(2) -0.8822(3) 0.2361(2)
C92 C 0.7287(3) -0.9426(3) 0.3013(3)
C93 C 0.7135(3) -1.0102(3) 0.3331(3)
H100 H 0.6859 -1.0206 0.3090
C94 C 0.7379(3) -1.0631(3) 0.3995(3)
H101 H 0.7257 -1.1083 0.4207
C95 C 0.7794(3) -1.0508(3) 0.4348(3)
H102 H 0.7965 -1.0879 0.4800
C96 C 0.7964(3) -0.9839(3) 0.4044(3)
H103 H 0.8249 -0.9747 0.4286
C97 C 0.7008(3) 0.0981(3) 0.1834(3)
C98 C 0.6675(3) 0.1650(3) 0.1157(3)
H104 H 0.6511 0.2147 0.1217
C99 C 0.7224(4) 0.1676(5) 0.0594(4)
H105 H 0.7628 0.1742 0.0725
H106 H 0.7013 0.2112 0.0160
H107 H 0.7388 0.1191 0.0533
C100 C 0.6038(4) 0.1547(4) 0.0974(5)
H108 H 0.5823 0.1977 0.0539
H109 H 0.5689 0.1540 0.1343
H110 H 0.6193 0.1057 0.0922
C101 C 0.7858(3) -0.8188(3) 0.3426(3)
N15 N 0.6581(2) -0.7749(2) 0.3339(2)
C102 C 0.7192(3) -0.7792(3) 0.3616(3)
C103 C 0.7150(3) -0.7396(3) 0.4021(3)
H111 H 0.6699 -0.7140 0.4166
C104 C 0.7755(3) -0.7372(3) 0.4214(3)
H112 H 0.7723 -0.7104 0.4492
C105 C 0.8409(3) -0.7744(4) 0.3997(3)
H113 H 0.8826 -0.7720 0.4118
C106 C 0.8461(3) -0.8152(3) 0.3602(3)
H114 H 0.8912 -0.8405 0.3454
C107 C 0.6061(3) -0.7942(3) 0.3725(3)
C108 C 0.6143(3) -0.8421(3) 0.4505(3)
H115 H 0.6635 -0.8540 0.4647
C109 C 0.6045(3) -0.9184(3) 0.4672(3)
H116 H 0.6097 -0.9498 0.5171
H117 H 0.6405 -0.9468 0.4431
H118 H 0.5571 -0.9077 0.4519
C110 C 0.5617(3) -0.7999(4) 0.4918(3)
H119 H 0.5683 -0.7511 0.4809
H120 H 0.5701 -0.8326 0.5413
H121 H 0.5131 -0.7891 0.4795
C111 C 0.8383(3) -0.8603(3) 0.2472(3)
N16 N 0.7572(2) -0.7327(3) 0.1847(2)
C112 C 0.8223(3) -0.7914(3) 0.1877(3)
C113 C 0.8676(3) -0.7915(4) 0.1318(3)
H122 H 0.8572 -0.7467 0.0895
C114 C 0.9267(3) -0.8549(4) 0.1367(3)
H123 H 0.9578 -0.8527 0.0986
C115 C 0.9416(3) -0.9225(4) 0.1971(4)
H124 H 0.9820 -0.9668 0.1997
C116 C 0.8980(3) -0.9251(3) 0.2529(3)
H125 H 0.9083 -0.9706 0.2948
C117 C 0.7528(3) -0.6605(3) 0.1718(3)
C118 C 0.8189(3) -0.6377(3) 0.1618(3)
H126 H 0.8622 -0.6845 0.1676
C119 C 0.8181(3) -0.5763(4) 0.0899(3)
H127 H 0.8603 -0.5621 0.0839
H128 H 0.7753 -0.5305 0.0832
H129 H 0.8183 -0.5964 0.0558
C120 C 0.8205(3) -0.6099(3) 0.2173(3)
H130 H 0.8624 -0.5954 0.2111
H131 H 0.8224 -0.6517 0.2632
H132 H 0.7775 -0.5649 0.2131
O14 O 1.3155(3) -0.9603(3) 0.3243(3)
C125 C 1.3347(4) -0.9897(5) 0.2817(5)
C126 C 1.3415(4) -1.0712(4) 0.3024(5)
H142 H 1.3298 -1.0935 0.3513
H143 H 1.3903 -1.1011 0.2951
H144 H 1.3088 -1.0728 0.2743
N18 N 1.3487(3) -0.9486(4) 0.2156(4)
C127 C 1.3607(6) -0.9761(6) 0.1616(5)
H145 H 1.3614 -1.0294 0.1815
H146 H 1.4064 -0.9747 0.1399
H147 H 1.3226 -0.9428 0.1267
C128 C 1.3460(5) -0.8693(5) 0.1953(5)
H148 H 1.3375 -0.8575 0.2362
H149 H 1.3075 -0.8327 0.1615
H150 H 1.3913 -0.8646 0.1748
O15 O 1.1374(3) -0.9240(3) 0.4165(3)
C129 C 1.1413(4) -0.9905(5) 0.4262(4)
C130 C 1.2100(4) -1.0572(4) 0.4433(4)
H151 H 1.2482 -1.0398 0.4447
H152 H 1.2201 -1.0779 0.4079
H153 H 1.2067 -1.0977 0.4885
N19 N 1.0832(3) -1.0053(4) 0.4221(4)
C131 C 1.0167(5) -0.9416(6) 0.3995(6)
H154 H 1.0213 -0.8949 0.3978
H155 H 0.9794 -0.9541 0.4319
H156 H 1.0042 -0.9325 0.3533
C132 C 1.0840(6) -1.0790(5) 0.4271(5)
H157 H 1.1311 -1.1185 0.4428
H158 H 1.0731 -1.0733 0.3816
H159 H 1.0483 -1.0947 0.4603
O16 O 1.1671(3) -0.7482(3) 0.2218(3)
C133 C 1.1165(5) -0.7392(6) 0.1904(5)
C134 C 1.0757(8) -0.6591(7) 0.1427(7)
H160 H 1.0938 -0.6228 0.1465
H161 H 1.0254 -0.6463 0.1549
H162 H 1.0811 -0.6550 0.0951
N20 N 1.1021(4) -0.8006(6) 0.1950(5)
C135 C 1.1525(6) -0.8817(6) 0.2345(5)
H163 H 1.1910 -0.8793 0.2550
H164 H 1.1725 -0.9074 0.2029
H165 H 1.1269 -0.9111 0.2713
C136 C 1.0394(6) -0.7879(13) 0.1597(9)
H166 H 1.0127 -0.7322 0.1372
H167 H 1.0091 -0.8135 0.1935
H168 H 1.0543 -0.8095 0.1249
O18 O 1.1218(3) -0.7170(3) 0.3639(3)
C141 C 1.0771(6) -0.7206(6) 0.4054(7)
C142 C 1.0010(6) -0.7144(11) 0.3801(14)
H178 H 0.9674 -0.7182 0.4183
H179 H 1.0095 -0.7568 0.3663
H180 H 0.9811 -0.6647 0.3408
N22 N 1.0678(10) -0.7280(6) 0.4563(8)
C143 C 1.1566(7) -0.7273(8) 0.4738(7)
H181 H 1.1841 -0.7174 0.4312
H182 H 1.1831 -0.7776 0.5095
H183 H 1.1481 -0.6865 0.4897
C144 C 1.0437(10) -0.7414(11) 0.5166(10)
H184 H 0.9964 -0.7440 0.5180
H185 H 1.0404 -0.6997 0.5294
H186 H 1.0754 -0.7908 0.5492
C67_2 C 1.3577(3) -0.7528(3) 0.3205(3)
O11_2 O 0.29687(19) -0.7514(2) 0.3139(2)
C97_2 C 0.7008(3) -0.9019(3) 0.1834(3)
N14_2 N 0.7005(2) 0.1178(3) 0.2361(2)
H56? H 0.8094 -0.1467 0.3054
loop_
_geom_bond_atom_site_label_1
_geom_bond_atom_site_label_2
_geom_bond_site_symmetry_1
_geom_bond_site_symmetry_2
Fe1 N1 1_555 1_555
Fe2 O8 1_555 1_555
Fe3 O2 1_555 1_555
Fe4 O1 1_555 1_555
K1 O3 1_555 1_555
K2 O4 1_555 1_555
K3 O9 1_555 1_555
K4 O11 1_555 1_555
O1 C87 1_555 1_555
O2 C107 1_555 1_555
O3 C97 1_555 1_555
O4 C117 1_555 1_555
O5 K1 1_555 1_555
N1 C1 1_555 1_555
C1 C2 1_555 1_555
C2 N2 1_555 1_555
N2 Fe1 1_555 1_555
C3 C2 1_555 1_555
H1 C3 1_555 1_555
C4 C3 1_555 1_555
H2 C4 1_555 1_555
C5 C4 1_555 1_555
H3 C5 1_555 1_555
C6 C1 1_555 1_555
H4 C6 1_555 1_555
C7 N2 1_555 1_555
O6 K2 1_555 1_555
C8 C7 1_555 1_555
H5 C8 1_555 1_555
C9 C8 1_555 1_555
H6 C9 1_555 1_555
H7 C9 1_555 1_555
H8 C9 1_555 1_555
C10 C8 1_555 1_555
H9 C10 1_555 1_555
H10 C10 1_555 1_555
H11 C10 1_555 1_555
C11 N1 1_555 1_555
N3 Fe1 1_555 1_555
C12 C11 1_555 1_555
C13 C12 1_555 1_555
H12 C13 1_555 1_555
C14 C13 1_555 1_555
H13 C14 1_555 1_555
C15 C14 1_555 1_555
H14 C15 1_555 1_555
C16 C11 1_555 1_555
H15 C16 1_555 1_555
O7 K1 1_555 1_555
C17 N3 1_555 1_555
C18 C17 1_555 1_555
H16 C18 1_555 1_555
C19 C18 1_555 1_555
H17 C19 1_555 1_555
H18 C19 1_555 1_555
H19 C19 1_555 1_555
C20 C18 1_555 1_555
H20 C20 1_555 1_555
H21 C20 1_555 1_555
H22 C20 1_555 1_555
C21 N1 1_555 1_555
N4 Fe1 1_555 1_555
C22 C21 1_555 1_555
C23 K1 1_555 1_555
H23 C23 1_555 1_555
C24 C23 1_555 1_555
H24 C24 1_555 1_555
C25 C24 1_555 1_555
H25 C25 1_555 1_555
C26 C21 1_555 1_555
H26 C26 1_555 1_555
O8 C27 1_555 1_555
C27 N4 1_555 1_555
C28 C27 1_555 1_555
H27 C28 1_555 1_555
C29 C28 1_555 1_555
H28 C29 1_555 1_555
H29 C29 1_555 1_555
H30 C29 1_555 1_555
C30 C28 1_555 1_555
H31 C30 1_555 1_555
H32 C30 1_555 1_555
H33 C30 1_555 1_555
N5 Fe2 1_555 1_555
C31 N5 1_555 1_555
N6 Fe2 1_555 1_555
C32 C31 1_555 1_555
C33 C32 1_555 1_555
H34 C33 1_555 1_555
C34 C33 1_555 1_555
H35 C34 1_555 1_555
C35 C34 1_555 1_555
H36 C35 1_555 1_555
C36 C31 1_555 1_555
H37 C36 1_555 1_555
O9 C37 1_555 1_555
C37 N6 1_555 1_555
C38 C37 1_555 1_555
H38 C38 1_555 1_555
C39 C38 1_555 1_555
H39 C39 1_555 1_555
H40 C39 1_555 1_555
H41 C39 1_555 1_555
C40 C38 1_555 1_555
H42 C40 1_555 1_555
H43 C40 1_555 1_555
H44 C40 1_555 1_555
C41 N7 1_555 1_555
N7 Fe2 1_555 1_555
C42 N5 1_555 1_555
C43 C42 1_555 1_555
H45 C43 1_555 1_555
C44 C43 1_555 1_555
H46 C44 1_555 1_555
C45 C44 1_555 1_555
H47 C45 1_555 1_555
C46 C41 1_555 1_555
H48 C46 1_555 1_555
C47 O5 1_555 1_555
C48 C47 1_555 1_555
H49 C48 1_555 1_555
C49 C48 1_555 1_555
H50 C49 1_555 1_555
H51 C49 1_555 1_555
H52 C49 1_555 1_555
C50 C48 1_555 1_555
H53 C50 1_555 1_555
H54 C50 1_555 1_555
H55 C50 1_555 1_555
C51 N5 1_555 1_555
N8 Fe2 1_555 1_555
C52 C51 1_555 1_555
C53 K1 1_555 1_555
C54 C53 1_555 1_555
H57 C54 1_555 1_555
C55 C54 1_555 1_555
H58 C55 1_555 1_555
C56 C51 1_555 1_555
H59 C56 1_555 1_555
O10 Fe1 1_555 1_555
C57 N8 1_555 1_555
C58 C57 1_555 1_555
H60 C58 1_555 1_555
C59 C58 1_555 1_555
H61 C59 1_555 1_555
H62 C59 1_555 1_555
H63 C59 1_555 1_555
C60 C58 1_555 1_555
H64 C60 1_555 1_555
H65 C60 1_555 1_555
H66 C60 1_555 1_555
N9 Fe3 1_555 1_555
C61 N9 1_555 1_555
N10 Fe3 1_555 1_555
C62 C61 1_555 1_555
C63 C62 1_555 1_555
H67 C63 1_555 1_555
C64 C63 1_555 1_555
H68 C64 1_555 1_555
C65 C64 1_555 1_555
H69 C65 1_555 1_555
C66 C61 1_555 1_555
H70 C66 1_555 1_555
O11 K3 1_555 1_555
C67 N10 1_555 1_555
C68 C67 1_555 1_555
H71 C68 1_555 1_555
C69 C68 1_555 1_555
H72 C69 1_555 1_555
H73 C69 1_555 1_555
H74 C69 1_555 1_555
C70 C68 1_555 1_555
H75 C70 1_555 1_555
H76 C70 1_555 1_555
H77 C70 1_555 1_555
C71 N9 1_555 1_555
N11 Fe3 1_555 1_555
C72 C71 1_555 1_555
C73 C72 1_555 1_555
H78 C73 1_555 1_555
C74 C73 1_555 1_555
H79 C74 1_555 1_555
C75 C74 1_555 1_555
H80 C75 1_555 1_555
C76 C71 1_555 1_555
H81 C76 1_555 1_555
O12 K2 1_555 1_555
C77 N11 1_555 1_555
C78 C77 1_555 1_555
H82 C78 1_555 1_555
C79 C78 1_555 1_555
H83 C79 1_555 1_555
H84 C79 1_555 1_555
H85 C79 1_555 1_555
C80 C78 1_555 1_555
H86 C80 1_555 1_555
H87 C80 1_555 1_555
H88 C80 1_555 1_555
C81 N9 1_555 1_555
N12 Fe3 1_555 1_555
C82 C81 1_555 1_555
C83 K2 1_555 1_555
H89 C83 1_555 1_555
C84 C83 1_555 1_555
H90 C84 1_555 1_555
C85 C84 1_555 1_555
H91 C85 1_555 1_555
C86 C81 1_555 1_555
H92 C86 1_555 1_555
C87 N12 1_555 1_555
C88 C87 1_555 1_555
H93 C88 1_555 1_555
C89 C88 1_555 1_555
H94 C89 1_555 1_555
H95 C89 1_555 1_555
H96 C89 1_555 1_555
C90 C88 1_555 1_555
H97 C90 1_555 1_555
H98 C90 1_555 1_555
H99 C90 1_555 1_555
N13 Fe4 1_555 1_555
C91 N13 1_555 1_555
N14 Fe4 1_555 1_555
C92 C91 1_555 1_555
C93 C92 1_555 1_555
H100 C93 1_555 1_555
C94 C93 1_555 1_555
H101 C94 1_555 1_555
C95 C94 1_555 1_555
H102 C95 1_555 1_555
C96 C91 1_555 1_555
H103 C96 1_555 1_555
C97 C98 1_555 1_555
C98 H104 1_555 1_555
C99 C98 1_555 1_555
H105 C99 1_555 1_555
H106 C99 1_555 1_555
H107 C99 1_555 1_555
C100 C98 1_555 1_555
H108 C100 1_555 1_555
H109 C100 1_555 1_555
H110 C100 1_555 1_555
C101 N13 1_555 1_555
N15 Fe4 1_555 1_555
C102 C101 1_555 1_555
C103 C102 1_555 1_555
H111 C103 1_555 1_555
C104 C103 1_555 1_555
H112 C104 1_555 1_555
C105 C104 1_555 1_555
H113 C105 1_555 1_555
C106 C101 1_555 1_555
H114 C106 1_555 1_555
C107 N15 1_555 1_555
C108 C107 1_555 1_555
H115 C108 1_555 1_555
C109 C108 1_555 1_555
H116 C109 1_555 1_555
H117 C109 1_555 1_555
H118 C109 1_555 1_555
C110 C108 1_555 1_555
H119 C110 1_555 1_555
H120 C110 1_555 1_555
H121 C110 1_555 1_555
C111 N13 1_555 1_555
N16 Fe4 1_555 1_555
C112 C111 1_555 1_555
C113 C112 1_555 1_555
H122 C113 1_555 1_555
C114 C113 1_555 1_555
H123 C114 1_555 1_555
C115 C114 1_555 1_555
H124 C115 1_555 1_555
C116 C111 1_555 1_555
H125 C116 1_555 1_555
C117 N16 1_555 1_555
C118 C117 1_555 1_555
H126 C118 1_555 1_555
C119 C118 1_555 1_555
H127 C119 1_555 1_555
H128 C119 1_555 1_555
H129 C119 1_555 1_555
C120 C118 1_555 1_555
H130 C120 1_555 1_555
H131 C120 1_555 1_555
H132 C120 1_555 1_555
O13 C121 1_555 1_555
C121 C122 1_555 1_555
C122 H133 1_555 1_555
H134 C122 1_555 1_555
H135 C122 1_555 1_555
N17 C121 1_555 1_555
C123 N17 1_555 1_555
H136 C123 1_555 1_555
H137 C123 1_555 1_555
H138 C123 1_555 1_555
C124 N17 1_555 1_555
H139 C124 1_555 1_555
H140 C124 1_555 1_555
H141 C124 1_555 1_555
O14 K4 1_555 1_555
C125 O14 1_555 1_555
C126 C125 1_555 1_555
H142 C126 1_555 1_555
H143 C126 1_555 1_555
H144 C126 1_555 1_555
N18 C125 1_555 1_555
C127 N18 1_555 1_555
H145 C127 1_555 1_555
H146 C127 1_555 1_555
H147 C127 1_555 1_555
C128 N18 1_555 1_555
H148 C128 1_555 1_555
H149 C128 1_555 1_555
H150 C128 1_555 1_555
O15 K4 1_555 1_555
C129 O15 1_555 1_555
C130 C129 1_555 1_555
H151 C130 1_555 1_555
H152 C130 1_555 1_555
H153 C130 1_555 1_555
N19 C129 1_555 1_555
C131 N19 1_555 1_555
H154 C131 1_555 1_555
H155 C131 1_555 1_555
H156 C131 1_555 1_555
C132 N19 1_555 1_555
H157 C132 1_555 1_555
H158 C132 1_555 1_555
H159 C132 1_555 1_555
O16 K3 1_555 1_555
C133 O16 1_555 1_555
C134 C133 1_555 1_555
H160 C134 1_555 1_555
H161 C134 1_555 1_555
H162 C134 1_555 1_555
N20 C133 1_555 1_555
C135 N20 1_555 1_555
H163 K4 1_555 1_555
H164 C135 1_555 1_555
H165 C135 1_555 1_555
C136 N20 1_555 1_555
H166 C136 1_555 1_555
H167 C136 1_555 1_555
H168 C136 1_555 1_555
O17 C137 1_555 1_555
C137 C138 1_555 1_555
C138 H169 1_555 1_555
H170 C138 1_555 1_555
H171 C138 1_555 1_555
N21 C137 1_555 1_555
C139 N21 1_555 1_555
H172 C139 1_555 1_555
H173 C139 1_555 1_555
H174 C139 1_555 1_555
C140 N21 1_555 1_555
H175 C140 1_555 1_555
H176 C140 1_555 1_555
H177 C140 1_555 1_555
O18 K3 1_555 1_555
C141 O18 1_555 1_555
C142 C141 1_555 1_555
H178 C142 1_555 1_555
H179 C142 1_555 1_555
H180 C142 1_555 1_555
N22 C141 1_555 1_555
C143 N22 1_555 1_555
H181 C143 1_555 1_555
H182 C143 1_555 1_555
H183 C143 1_555 1_555
C144 N22 1_555 1_555
H184 C144 1_555 1_555
H185 C144 1_555 1_555
H186 C144 1_555 1_555
C67_2 O11 1_555 1_555
O11_2 C67 1_555 1_555
C97_2 N14 1_555 1_555
N14_2 C97 1_555 1_555
K1 N4 1_555 1_555
K1 N8 1_555 1_555
K2 N12 1_555 1_555
K2 N15 1_555 1_555
K4 O16 1_555 1_555
K4 O18 1_555 1_555
C5 C6 1_555 1_555
C7 O6 1_555 1_555
N3 C12 1_555 1_555
C15 C16 1_555 1_555
O7 C17 1_555 1_555
N4 C22 1_555 1_555
C22 C23 1_555 1_555
C25 C26 1_555 1_555
N6 C32 1_555 1_555
C35 C36 1_555 1_555
C41 C42 1_555 1_555
N7 C47 1_555 1_555
C45 C46 1_555 1_555
N8 C52 1_555 1_555
C52 C53 1_555 1_555
C55 C56 1_555 1_555
O10 C57 1_555 1_555
N10 C62 1_555 1_555
C65 C66 1_555 1_555
N11 C72 1_555 1_555
C75 C76 1_555 1_555
O12 C77 1_555 1_555
N12 C82 1_555 1_555
C82 C83 1_555 1_555
C85 C86 1_555 1_555
N14 C92 1_555 1_555
C95 C96 1_555 1_555
N15 C102 1_555 1_555
C105 C106 1_555 1_555
N16 C112 1_555 1_555
C115 C116 1_555 1_555
C135 H163 1_555 1_555

#END
