
#######################################################################
#
#                 Cambridge Crystallographic Data Centre
#                                CCDC 
#
#######################################################################
#
# If this CIF has been generated from an entry in the Cambridge 
# Structural Database, then it will include bibliographic, chemical, 
# crystal, experimental, refinement or atomic coordinate data resulting 
# from the CCDC's data processing and validation procedures.
#
#######################################################################

data_NAFLUD
_symmetry_cell_setting           monoclinic
_symmetry_space_group_name_H-M   'P 21/c'
_symmetry_Int_Tables_number      14
_space_group_name_Hall           '-P 2ybc'
loop_
_symmetry_equiv_pos_site_id
_symmetry_equiv_pos_as_xyz
1 x,y,z
2 -x,1/2+y,1/2-z
3 -x,-y,-z
4 x,1/2-y,1/2+z
_cell_length_a                   10.6910(18)
_cell_length_b                   18.772(4)
_cell_length_c                   15.681(3)
_cell_angle_alpha                90
_cell_angle_beta                 101.933(5)
_cell_angle_gamma                90
_cell_volume                     3079.04
loop_
_atom_site_label
_atom_site_type_symbol
_atom_site_fract_x
_atom_site_fract_y
_atom_site_fract_z
Fe1 Fe 0.71449(6) -0.58724(4) 0.33714(4)
K1 K 0.85054(10) -0.22831(6) 0.34773(8)
C1 C 0.8041(4) -0.5533(2) 0.1758(3)
C2 C 0.9023(4) -0.5898(2) 0.2304(3)
C3 C 1.0288(4) -0.5747(3) 0.2262(3)
H1 H 1.0971 -0.5993 0.2628
C4 C 1.0537(5) -0.5237(3) 0.1683(3)
H2 H 1.1397 -0.5141 0.1646
C5 C 0.9564(5) -0.4867(3) 0.1159(4)
H3 H 0.9754 -0.4512 0.0773
C6 C 0.8305(5) -0.5011(2) 0.1194(3)
H4 H 0.7628 -0.4754 0.0836
N1 N 0.8670(3) -0.63636(19) 0.2932(2)
O1 O 0.9862(3) -0.72962(18) 0.2546(3)
C7 C 0.9158(4) -0.7017(3) 0.2991(3)
C8 C 0.8795(5) -0.7472(3) 0.3699(3)
F1 F 0.7572(3) -0.73897(15) 0.37739(19)
F2 F 0.8933(3) -0.81628(14) 0.3554(2)
F3 F 0.9506(3) -0.73327(16) 0.4487(2)
C9 C 0.5794(4) -0.5156(2) 0.1734(3)
C10 C 0.5899(4) -0.4666(2) 0.2405(3)
C11 C 0.4940(4) -0.4163(2) 0.2370(3)
H5 H 0.4993 -0.3825 0.2828
C12 C 0.3910(5) -0.4149(3) 0.1674(3)
H6 H 0.3265 -0.3797 0.1650
C13 C 0.3815(5) -0.4640(2) 0.1018(3)
H7 H 0.3100 -0.4631 0.0544
C14 C 0.4764(5) -0.5151(2) 0.1046(3)
H8 H 0.4701 -0.5493 0.0593
N2 N 0.6925(3) -0.47605(19) 0.3134(2)
O2 O 0.7383(3) -0.35561(17) 0.3254(2)
C15 C 0.7550(4) -0.4185(3) 0.3472(3)
C16 C 0.8633(5) -0.4341(3) 0.4240(3)
F4 F 0.9321(3) -0.49200(15) 0.41193(18)
F5 F 0.9468(3) -0.38016(16) 0.4379(2)
F6 F 0.8244(3) -0.44396(18) 0.49822(19)
N3 N 0.6752(3) -0.57093(18) 0.1835(2)
C17 C 0.6274(4) -0.6408(2) 0.1555(3)
C18 C 0.5501(4) -0.6728(2) 0.2070(3)
C19 C 0.4967(4) -0.7379(2) 0.1807(3)
H9 H 0.4433 -0.7606 0.2139
C20 C 0.5198(5) -0.7707(3) 0.1060(3)
H10 H 0.4820 -0.8156 0.0887
C21 C 0.5976(5) -0.7385(2) 0.0566(3)
H11 H 0.6131 -0.7612 0.0056
C22 C 0.6520(4) -0.6735(2) 0.0820(3)
H12 H 0.7063 -0.6512 0.0491
N4 N 0.5386(3) -0.63574(19) 0.2839(2)
O3 O 0.3205(3) -0.65917(18) 0.2635(2)
C23 C 0.4226(5) -0.6325(2) 0.3016(3)
C24 C 0.4106(5) -0.5875(3) 0.3813(3)
F7 F 0.3120(3) -0.54304(17) 0.3618(2)
F8 F 0.5105(3) -0.54504(19) 0.4114(2)
F9 F 0.3935(4) -0.62744(18) 0.4457(2)
N5 N 0.7557(4) -0.6026(2) 0.4728(3)
C25 C 0.7781(5) -0.6069(3) 0.5469(4)
C26 C 0.8077(5) -0.6131(3) 0.6412(3)
H13 H 0.8618 -0.5730 0.6663
H14 H 0.8531 -0.6579 0.6580
H15 H 0.7282 -0.6124 0.6631
N6 N 0.7894(5) -0.1610(3) 0.4879(4)
C27 C 0.7474(6) -0.1739(3) 0.5461(4)
C28 C 0.6938(8) -0.1905(4) 0.6198(4)
H16 H 0.7626 -0.1952 0.6716
H17 H 0.6465 -0.2354 0.6094
H18 H 0.6357 -0.1523 0.6291
K1A K 0.14946(10) -0.72831(6) 0.15227(8)
K1A_2 K 1.14946(10) -0.72831(6) 0.15227(8)
O1A O 1.0138(3) -0.22962(18) 0.2454(3)
O3A O 0.6795(3) -0.15917(18) 0.2365(2)
loop_
_geom_bond_atom_site_label_1
_geom_bond_atom_site_label_2
_geom_bond_site_symmetry_1
_geom_bond_site_symmetry_2
Fe1 N1 1_555 1_555
K1 O2 1_555 1_555
C1 C2 1_555 1_555
C2 C3 1_555 1_555
C3 H1 1_555 1_555
C4 C3 1_555 1_555
H2 C4 1_555 1_555
C5 C4 1_555 1_555
H3 C5 1_555 1_555
C6 C1 1_555 1_555
H4 C6 1_555 1_555
N1 C2 1_555 1_555
O1 C7 1_555 1_555
C7 N1 1_555 1_555
C8 C7 1_555 1_555
F1 C8 1_555 1_555
F2 C8 1_555 1_555
F3 C8 1_555 1_555
C9 C10 1_555 1_555
C10 C11 1_555 1_555
C11 H5 1_555 1_555
C12 C11 1_555 1_555
H6 C12 1_555 1_555
C13 C12 1_555 1_555
H7 C13 1_555 1_555
C14 C9 1_555 1_555
H8 C14 1_555 1_555
N2 Fe1 1_555 1_555
O2 C15 1_555 1_555
C15 N2 1_555 1_555
C16 C15 1_555 1_555
F4 C16 1_555 1_555
F5 C16 1_555 1_555
F6 C16 1_555 1_555
N3 Fe1 1_555 1_555
C17 N3 1_555 1_555
C18 C17 1_555 1_555
C19 C18 1_555 1_555
H9 C19 1_555 1_555
C20 C19 1_555 1_555
H10 C20 1_555 1_555
C21 C20 1_555 1_555
H11 C21 1_555 1_555
C22 C17 1_555 1_555
H12 C22 1_555 1_555
N4 Fe1 1_555 1_555
O3 C23 1_555 1_555
C23 N4 1_555 1_555
C24 C23 1_555 1_555
F7 C24 1_555 1_555
F8 C24 1_555 1_555
F9 C24 1_555 1_555
N5 Fe1 1_555 1_555
C25 N5 1_555 1_555
C26 C25 1_555 1_555
H13 C26 1_555 1_555
H14 C26 1_555 1_555
H15 C26 1_555 1_555
N6 K1 1_555 1_555
C27 N6 1_555 1_555
C28 C27 1_555 1_555
H16 C28 1_555 1_555
H17 C28 1_555 1_555
H18 C28 1_555 1_555
K1A O3 1_555 1_555
K1A_2 O1 1_555 1_555
O1A K1 1_555 1_555
O3A K1 1_555 1_555
C1 N3 1_555 1_555
C5 C6 1_555 1_555
C9 N3 1_555 1_555
C10 N2 1_555 1_555
C13 C14 1_555 1_555
C18 N4 1_555 1_555
C21 C22 1_555 1_555

#END
