
#######################################################################
#
#                 Cambridge Crystallographic Data Centre
#                                CCDC 
#
#######################################################################
#
# If this CIF has been generated from an entry in the Cambridge 
# Structural Database, then it will include bibliographic, chemical, 
# crystal, experimental, refinement or atomic coordinate data resulting 
# from the CCDC's data processing and validation procedures.
#
#######################################################################

data_NAFVOH
_symmetry_cell_setting           monoclinic
_symmetry_space_group_name_H-M   'P 21'
_symmetry_Int_Tables_number      4
_space_group_name_Hall           'P 2yb'
loop_
_symmetry_equiv_pos_site_id
_symmetry_equiv_pos_as_xyz
1 x,y,z
2 -x,1/2+y,-z
_cell_length_a                   8.3571(1)
_cell_length_b                   17.7714(3)
_cell_length_c                   9.2378(2)
_cell_angle_alpha                90
_cell_angle_beta                 96.1433(9)
_cell_angle_gamma                90
_cell_volume                     1364.09
loop_
_atom_site_label
_atom_site_type_symbol
_atom_site_fract_x
_atom_site_fract_y
_atom_site_fract_z
Cr1 Cr 0.78946(4) 0.204933(19) 0.97353(4)
Na1 Na 1.28815(11) 0.40932(5) 0.93040(11)
Na2 Na 0.87450(11) 0.41305(5) 1.13231(10)
Na3 Na 0.68989(12) 0.38429(6) 0.72548(11)
Na4 Na 0.49949(11) 0.10942(6) 1.07907(11)
C1 C 0.7964(3) 0.26581(13) 1.2535(2)
H1 H 0.7089 0.2700 1.3156
C2 C 0.8585(3) 0.18466(12) 1.2532(2)
H2 H 0.8610 0.1614 1.3496
C3 C 1.0305(2) 0.19832(14) 1.2100(2)
H3 H 1.1015 0.1561 1.2409
C4 C 1.0830(3) 0.26954(14) 1.2945(3)
H4 H 1.1348 0.2551 1.3906
C5 C 1.1951(3) 0.32214(13) 1.2231(2)
H5 H 1.2175 0.3659 1.2866
C6 C 1.3544(3) 0.28351(14) 1.2032(3)
H6 H 1.4046 0.2652 1.2961
H7 H 1.3363 0.2411 1.1375
O1 O 0.74359(18) 0.28785(9) 1.11253(16)
O2 O 0.76682(19) 0.14216(9) 1.14621(17)
O3 O 1.01976(16) 0.20787(10) 1.05637(15)
O4 O 0.93446(18) 0.31048(9) 1.31317(17)
O5 O 1.11936(18) 0.34788(9) 1.08583(17)
H8 H 1.0289 0.3297 1.0711
O6 O 1.45563(19) 0.33750(9) 1.14441(18)
H9 H 1.5423 0.3180 1.1329
C7 C 0.7686(3) 0.22824(13) 0.6734(2)
H10 H 0.8533 0.2233 0.6083
C8 C 0.7071(3) 0.15030(14) 0.7125(2)
H11 H 0.7011 0.1158 0.6293
C9 C 0.5380(3) 0.17105(13) 0.7538(2)
H12 H 0.4666 0.1272 0.7460
C10 C 0.4828(3) 0.22975(13) 0.6390(2)
H13 H 0.4283 0.2044 0.5533
C11 C 0.3726(3) 0.29053(13) 0.6890(2)
H14 H 0.3487 0.3264 0.6091
C12 C 0.2153(3) 0.25756(14) 0.7269(3)
H15 H 0.1645 0.2289 0.6452
H16 H 0.2350 0.2241 0.8098
O7 O 0.82695(18) 0.26690(9) 0.79968(17)
O8 O 0.80296(19) 0.12083(9) 0.83468(18)
O9 O 0.55821(17) 0.19907(10) 0.89917(15)
O10 O 0.62911(18) 0.26596(9) 0.59897(17)
O11 O 0.45298(19) 0.33002(9) 0.81097(17)
H17 H 0.4716 0.3009 0.8796
O12 O 0.11280(19) 0.31772(10) 0.76091(18)
H18 H 0.0273 0.3006 0.7821
N1 N 0.5489(3) 0.5321(2) 0.6456(3)
O13 O 0.5069(3) 0.50490(15) 0.7584(3)
O14 O 0.5650(4) 0.4857(2) 0.5456(3)
O15 O 0.5831(4) 0.59910(18) 0.6444(4)
O16 O 0.6463(2) 0.45040(11) 1.2599(2)
H19 H 0.583(3) 0.4146(13) 1.247(3)
H20 H 0.645(4) 0.4670(17) 1.3424(18)
O17 O 1.3883(2) 0.51406(10) 1.0639(2)
H21 H 1.333(3) 0.5466(14) 1.097(3)
H22 H 1.455(3) 0.5006(17) 1.131(2)
O18 O 0.8446(2) 0.46308(11) 0.8902(2)
H23 H 0.815(4) 0.5073(8) 0.901(4)
H24 H 0.928(2) 0.4700(17) 0.850(3)
O19 O 0.2273(2) 0.10325(10) 0.9894(2)
H25 H 0.196(3) 0.0844(16) 0.9082(19)
H26 H 0.157(3) 0.1343(14) 1.004(3)
O20 O 1.1338(2) 0.50148(11) 0.7956(2)
H27 H 1.142(4) 0.4971(18) 0.7088(14)
H28 H 1.165(4) 0.5437(10) 0.823(3)
O21 O 0.9048(2) 0.40066(12) 0.5648(2)
H29 H 0.990(3) 0.387(2) 0.614(3)
H30 H 0.910(4) 0.3761(18) 0.488(2)
O22 O 0.9759(3) 0.52618(12) 1.2355(2)
H31 H 1.040(4) 0.5576(16) 1.212(4)
H32 H 0.950(4) 0.535(2) 1.316(2)
Na1_2 Na 0.28815(11) 0.40932(5) 0.93040(11)
Na4A Na 0.50051(11) 0.60942(6) 0.92093(11)
Na4A_2 Na 1.50051(11) 0.60942(6) 0.92093(11)
O11_2 O 1.45298(19) 0.33002(9) 0.81097(17)
H17_2 H 1.4716 0.3009 0.8796
O12_2 O 1.11280(19) 0.31772(10) 0.76091(18)
H18_2 H 1.0273 0.3006 0.7821
O13A O 0.4931(3) 0.00490(15) 1.2416(3)
O15A O 0.4169(4) 0.09910(18) 1.3556(4)
O17A O 0.6117(2) 0.01406(10) 0.9361(2)
H21A H 0.667(3) 0.0466(14) 0.903(3)
H22A H 0.545(3) 0.0006(17) 0.869(2)
O23 O 1.1072(5) 0.0584(2) 0.4914(3)
H33 H 1.104(7) 0.0131(12) 0.464(6)
H34 H 1.202(3) 0.070(3) 0.472(7)
O24 O 0.2232(6) 0.4677(3) 0.4995(5)
loop_
_geom_bond_atom_site_label_1
_geom_bond_atom_site_label_2
_geom_bond_site_symmetry_1
_geom_bond_site_symmetry_2
Cr1 O1 1_555 1_555
Na1 O5 1_555 1_555
Na2 O1 1_555 1_555
Na3 O7 1_555 1_555
Na4 O2 1_555 1_555
C1 H1 1_555 1_555
C2 C1 1_555 1_555
H2 C2 1_555 1_555
C3 C2 1_555 1_555
H3 C3 1_555 1_555
C4 C3 1_555 1_555
H4 C4 1_555 1_555
C5 C4 1_555 1_555
H5 C5 1_555 1_555
C6 C5 1_555 1_555
H6 C6 1_555 1_555
H7 C6 1_555 1_555
O1 C1 1_555 1_555
O2 Cr1 1_555 1_555
O3 Cr1 1_555 1_555
O4 Na2 1_555 1_555
O5 Na2 1_555 1_555
H8 O5 1_555 1_555
O6 Na1 1_555 1_555
H9 O6 1_555 1_555
C7 H10 1_555 1_555
C8 C7 1_555 1_555
H11 C8 1_555 1_555
C9 C8 1_555 1_555
H12 C9 1_555 1_555
C10 C9 1_555 1_555
H13 C10 1_555 1_555
C11 C10 1_555 1_555
H14 C11 1_555 1_555
C12 C11 1_555 1_555
H15 C12 1_555 1_555
H16 C12 1_555 1_555
O7 Cr1 1_555 1_555
O8 Cr1 1_555 1_555
O9 Cr1 1_555 1_555
O10 Na3 1_555 1_555
O11 Na3 1_555 1_555
H17 O11 1_555 1_555
O12 C12 1_555 1_555
H18 O12 1_555 1_555
N1 O13 1_555 1_555
O13 Na3 1_555 1_555
O14 Na3 1_555 1_555
O15 N1 1_555 1_555
O16 Na2 1_555 1_555
H19 O16 1_555 1_555
H20 O16 1_555 1_555
O17 Na1 1_555 1_555
H21 O17 1_555 1_555
H22 O17 1_555 1_555
O18 Na2 1_555 1_555
H23 O18 1_555 1_555
H24 O18 1_555 1_555
O19 Na4 1_555 1_555
H25 O19 1_555 1_555
H26 O19 1_555 1_555
O20 Na1 1_555 1_555
H27 O20 1_555 1_555
H28 O20 1_555 1_555
O21 Na3 1_555 1_555
H29 O21 1_555 1_555
H30 O21 1_555 1_555
O22 Na2 1_555 1_555
H31 O22 1_555 1_555
H32 O22 1_555 1_555
O23 H33 1_555 1_555
H34 O23 1_555 1_555
Na1_2 O11 1_555 1_555
Na4A O13 1_555 1_555
Na4A_2 O17 1_555 1_555
O11_2 Na1 1_555 1_555
H17_2 O11_2 1_555 1_555
O12_2 Na1 1_555 1_555
H18_2 O12_2 1_555 1_555
O13A Na4 1_555 1_555
O15A Na4 1_555 1_555
O17A Na4 1_555 1_555
H21A O17A 1_555 1_555
H22A O17A 1_555 1_555
Na3 O18 1_555 1_555
Na4 O9 1_555 1_555
C1 O4 1_555 1_555
C2 O2 1_555 1_555
C3 O3 1_555 1_555
C4 O4 1_555 1_555
C5 O5 1_555 1_555
C6 O6 1_555 1_555
C7 O7 1_555 1_555
C7 O10 1_555 1_555
C8 O8 1_555 1_555
C9 O9 1_555 1_555
C10 O10 1_555 1_555
C11 O11 1_555 1_555
O12 Na1_2 1_555 1_555
N1 O14 1_555 1_555
O15 Na4A 1_555 1_555

#END
