
#######################################################################
#
#                 Cambridge Crystallographic Data Centre
#                                CCDC 
#
#######################################################################
#
# If this CIF has been generated from an entry in the Cambridge 
# Structural Database, then it will include bibliographic, chemical, 
# crystal, experimental, refinement or atomic coordinate data resulting 
# from the CCDC's data processing and validation procedures.
#
#######################################################################

data_NAFYEA
_symmetry_cell_setting           orthorhombic
_symmetry_space_group_name_H-M   'P b c a'
_symmetry_Int_Tables_number      61
_space_group_name_Hall           '-P 2ac 2ab'
loop_
_symmetry_equiv_pos_site_id
_symmetry_equiv_pos_as_xyz
1 x,y,z
2 1/2-x,-y,1/2+z
3 -x,1/2+y,1/2-z
4 1/2+x,1/2-y,-z
5 -x,-y,-z
6 1/2+x,y,1/2-z
7 x,1/2-y,1/2+z
8 1/2-x,1/2+y,z
_cell_length_a                   7.9377(7)
_cell_length_b                   16.1575(10)
_cell_length_c                   29.873(7)
_cell_angle_alpha                90
_cell_angle_beta                 90
_cell_angle_gamma                90
_cell_volume                     3831.31
loop_
_atom_site_label
_atom_site_type_symbol
_atom_site_fract_x
_atom_site_fract_y
_atom_site_fract_z
O1 O 0.8663(5) -0.1116(2) 0.55330(14)
O2 O 0.9528(4) 0.0385(2) 0.55890(13)
O3 O 0.7912(5) 0.2076(3) 0.64227(15)
O4 O 0.0462(5) 0.2180(2) 0.56781(13)
O5 O 0.1617(5) 0.3576(3) 0.54732(15)
O6 O 0.3372(5) 0.2303(3) 0.53126(14)
O7 O 0.7368(5) 0.1840(3) 0.71557(14)
O8 O 0.6686(5) 0.0018(3) 0.52522(14)
C1 C 0.6978(8) 0.2105(4) 0.6771(2)
C2 C 0.5252(7) 0.2467(4) 0.6700(2)
C3 C 0.2988(7) 0.2770(4) 0.6180(2)
C4 C 0.2771(8) 0.3174(4) 0.6960(2)
H1 H 0.2168 0.3425 0.719
C5 C 0.4545(8) 0.2426(4) 0.6270(2)
H2 H 0.5134 0.2162 0.6042
C6 C 0.2093(8) 0.3137(4) 0.6531(2)
H3 H 0.1031 0.3359 0.6477
C7 C 0.4336(8) 0.2840(4) 0.7045(2)
H4 H 0.4784 0.2862 0.7332
Ag1 Ag 0.99756(6) 0.12320(3) 0.632870(16)
Ag2 Ag 0.69246(6) -0.21106(3) 0.568160(19)
Ag3 Ag 0.50483(6) 0.13062(4) 0.770870(18)
Ag4 Ag -0.02913(6) 0.38862(3) 0.485890(17)
Ag5 Ag 1.05100(6) -0.14281(3) 0.494940(17)
Ag6 Ag 1.21147(6) -0.02129(3) 0.559000(19)
P1 P 0.80385(18) -0.02239(10) 0.55912(5)
P2 P 0.20687(19) 0.26945(10) 0.56228(6)
O9 O 0.2162(5) 0.0450(3) 0.63727(14)
O10 O 0.2642(5) 0.0710(3) 0.71039(15)
C8 C 0.3086(8) 0.0461(4) 0.6726(2)
C9 C 0.8067(8) -0.0506(4) 0.6512(2)
H5 H 0.9133 -0.0727 0.6464
C10 C 0.7414(7) -0.0483(4) 0.6948(2)
H6 H 0.8053 -0.067 0.7188
C11 C 0.7140(7) -0.0200(4) 0.6150(2)
C12 C 0.5801(8) -0.0179(4) 0.7014(2)
H7 H 0.5347 -0.018 0.7301
C13 C 0.4849(7) 0.0128(4) 0.6661(2)
C14 C 0.5537(7) 0.0117(4) 0.6231(2)
H8 H 0.4912 0.0326 0.5993
O2D O 1.0472(4) -0.0385(2) 0.44110(13)
O3G O 0.7088(5) -0.2924(3) 0.64227(15)
O4_2 O 1.0462(5) 0.2180(2) 0.56781(13)
O4G O 0.4538(5) -0.2820(2) 0.56781(13)
O4D O 0.9538(5) -0.2180(2) 0.43219(13)
O5G O 1.3383(5) -0.1424(3) 0.54732(15)
O6C O -0.1628(5) 0.2697(3) 0.46874(14)
O6G O 1.1628(5) -0.2697(3) 0.53126(14)
O7E O 0.2368(5) 0.1840(3) 0.78443(14)
O8G O -0.1686(5) 0.5018(3) 0.52522(14)
O8C O 0.1686(5) 0.4982(3) 0.47478(14)
O8D O 1.3314(5) -0.0018(3) 0.47478(14)
Ag1_2 Ag -0.00244(6) 0.12320(3) 0.632870(16)
Ag1E Ag 0.49756(6) 0.12320(3) 0.867130(16)
Ag2G Ag 0.80754(6) 0.28894(3) 0.568160(19)
Ag2G_2 Ag -0.19246(6) 0.28894(3) 0.568160(19)
Ag2C Ag 1.19246(6) -0.28894(3) 0.431840(19)
Ag3E Ag 1.00483(6) 0.13062(4) 0.729130(18)
Ag3E_2 Ag 0.00483(6) 0.13062(4) 0.729130(18)
Ag4C Ag 0.47087(6) 0.11138(3) 0.514110(17)
Ag4G Ag 0.52913(6) -0.11138(3) 0.485890(17)
Ag4C_2 Ag 1.47087(6) 0.11138(3) 0.514110(17)
Ag5D Ag 0.94900(6) 0.14281(3) 0.505060(17)
Ag5D_2 Ag -0.05100(6) 0.14281(3) 0.505060(17)
Ag5G Ag 0.44900(6) 0.35719(3) 0.494940(17)
Ag5C Ag 0.55100(6) -0.35719(3) 0.505060(17)
Ag6G Ag 0.28853(6) 0.47871(3) 0.559000(19)
Ag6D Ag 0.78853(6) 0.02129(3) 0.441000(19)
Ag6C Ag -0.28853(6) 0.52129(3) 0.441000(19)
Ag6_2 Ag 0.21147(6) -0.02129(3) 0.559000(19)
O9_2 O 1.2162(5) 0.0450(3) 0.63727(14)
O10E O 0.7642(5) 0.0710(3) 0.78961(15)
loop_
_geom_bond_atom_site_label_1
_geom_bond_atom_site_label_2
_geom_bond_site_symmetry_1
_geom_bond_site_symmetry_2
O1 Ag2 1_555 1_555
O2 Ag1 1_555 1_555
O3 C1 1_555 1_555
O4 P2 1_555 1_555
O5 Ag4 1_555 1_555
O6 P2 1_555 1_555
O7 C1 1_555 1_555
O8 P1 1_555 1_555
C1 C2 1_555 1_555
C2 C5 1_555 1_555
C3 C5 1_555 1_555
C4 H1 1_555 1_555
C5 H2 1_555 1_555
C6 C3 1_555 1_555
H3 C6 1_555 1_555
C7 C2 1_555 1_555
H4 C7 1_555 1_555
Ag1 O3 1_555 1_555
Ag2 O3G 1_555 1_555
Ag3 O7 1_555 1_555
Ag4 O6C 1_555 1_555
Ag5 O1 1_555 1_555
Ag6 O2 1_555 1_555
P1 O1 1_555 1_555
P2 O5 1_555 1_555
O9 C8 1_555 1_555
O10 C8 1_555 1_555
C8 C13 1_555 1_555
C9 H5 1_555 1_555
C10 C9 1_555 1_555
H6 C10 1_555 1_555
C11 P1 1_555 1_555
C12 C10 1_555 1_555
H7 C12 1_555 1_555
C13 C12 1_555 1_555
C14 C11 1_555 1_555
H8 C14 1_555 1_555
O2D Ag5 1_555 1_555
O4_2 Ag1 1_555 1_555
O4G Ag2 1_555 1_555
O4D Ag5 1_555 1_555
O5G Ag5 1_555 1_555
O6C Ag5D_2 1_555 1_555
O6G Ag5 1_555 1_555
O7E Ag3 1_555 1_555
O8G Ag4 1_555 1_555
O8C Ag4 1_555 1_555
O8D Ag6 1_555 1_555
Ag1_2 O4 1_555 1_555
Ag1E Ag3 1_555 1_555
Ag2G O3 1_555 1_555
Ag2G_2 O4 1_555 1_555
Ag2C Ag5 1_555 1_555
Ag3E O7 1_555 1_555
Ag3E_2 O10 1_555 1_555
Ag4C O6 1_555 1_555
Ag4G O8 1_555 1_555
Ag4C_2 Ag6 1_555 1_555
Ag5D O2 1_555 1_555
Ag5D_2 O4 1_555 1_555
Ag5G O5 1_555 1_555
Ag5C Ag2 1_555 1_555
Ag6G O5 1_555 1_555
Ag6D O8 1_555 1_555
Ag6C Ag4 1_555 1_555
Ag6_2 O9 1_555 1_555
O9_2 Ag1 1_555 1_555
O10E Ag3 1_555 1_555
O2 P1 1_555 1_555
O6 Ag5G 1_555 1_555
O8 Ag4C 1_555 1_555
C3 P2 1_555 1_555
C4 C6 1_555 1_555
C4 C7 1_555 1_555
Ag1 Ag3E 1_555 1_555
Ag2 Ag4G 1_555 1_555
Ag4 Ag2G_2 1_555 1_555
Ag5 Ag6 1_555 1_555
Ag6 O5G 1_555 1_555
Ag6 O9_2 1_555 1_555
O9 Ag1_2 1_555 1_555
C9 C11 1_555 1_555
C13 C14 1_555 1_555
O2D Ag6D 1_555 1_555
O4_2 Ag2G 1_555 1_555
O4_2 Ag5D 1_555 1_555
O4G Ag5C 1_555 1_555
O4D Ag2C 1_555 1_555
O7E Ag3E_2 1_555 1_555
O8G Ag6C 1_555 1_555
O8C Ag6G 1_555 1_555
O8D Ag4C_2 1_555 1_555
Ag1_2 Ag3E_2 1_555 1_555
Ag2G Ag5D 1_555 1_555
Ag2G_2 Ag5D_2 1_555 1_555
Ag4C Ag6_2 1_555 1_555
Ag4G Ag6D 1_555 1_555
Ag5D Ag6D 1_555 1_555
Ag5G Ag6G 1_555 1_555

#END
