
#######################################################################
#
#                 Cambridge Crystallographic Data Centre
#                                CCDC 
#
#######################################################################
#
# If this CIF has been generated from an entry in the Cambridge 
# Structural Database, then it will include bibliographic, chemical, 
# crystal, experimental, refinement or atomic coordinate data resulting 
# from the CCDC's data processing and validation procedures.
#
#######################################################################

data_NAGBII
_symmetry_cell_setting           triclinic
_symmetry_space_group_name_H-M   'P -1'
_symmetry_Int_Tables_number      2
_space_group_name_Hall           '-P 1'
loop_
_symmetry_equiv_pos_site_id
_symmetry_equiv_pos_as_xyz
1 x,y,z
2 -x,-y,-z
_cell_length_a                   9.862(3)
_cell_length_b                   10.667(3)
_cell_length_c                   13.168(4)
_cell_angle_alpha                78.691(5)
_cell_angle_beta                 88.415(6)
_cell_angle_gamma                71.418(5)
_cell_volume                     1286.63
loop_
_atom_site_label
_atom_site_type_symbol
_atom_site_fract_x
_atom_site_fract_y
_atom_site_fract_z
C1 C 0.3136(9) 1.1204(7) 0.8125(6)
C2 C 0.3693(8) 1.0282(7) 0.7403(6)
C3 C 0.2741(9) 1.0122(8) 0.6709(6)
H1 H 0.1765 1.0573 0.6717
C4 C 0.3266(8) 0.9289(7) 0.6015(6)
H2 H 0.2621 0.9176 0.5568
C5 C 0.4708(8) 0.8611(8) 0.5951(6)
C6 C 0.5592(8) 0.8799(8) 0.6711(6)
H3 H 0.6565 0.8322 0.6745
C7 C 0.5102(9) 0.9614(7) 0.7367(6)
H4 H 0.5744 0.9731 0.7815
C8 C 0.5270(8) 0.7731(8) 0.5192(6)
C9 C 0.4377(8) 0.7386(8) 0.4585(6)
H5 H 0.3396 0.7679 0.4676
C10 C 0.4909(8) 0.6618(7) 0.3844(6)
C11 C 0.6384(8) 0.6115(8) 0.3783(6)
H6 H 0.6777 0.5553 0.3320
C12 C 0.7253(9) 0.6435(8) 0.4390(6)
H7 H 0.8236 0.6142 0.4303
C13 C 0.6755(8) 0.7133(8) 0.5082(6)
H8 H 0.7394 0.7252 0.5532
C14 C 0.3940(9) 0.6348(8) 0.3135(6)
C15 C 0.2588(8) 0.7133(7) 0.2873(6)
H9 H 0.2222 0.7894 0.3165
C16 C 0.1716(8) 0.6885(8) 0.2205(6)
H10 H 0.0799 0.7487 0.2035
C17 C 0.2204(8) 0.5714(7) 0.1773(6)
C18 C 0.3559(9) 0.4876(8) 0.2081(6)
H11 H 0.3916 0.4084 0.1826
C19 C 0.4395(8) 0.5155(8) 0.2737(6)
H12 H 0.5300 0.4541 0.2933
C20 C 0.1281(8) 0.5468(7) 0.1025(6)
C21 C 0.5862(9) 1.1953(8) 1.0076(6)
H13 H 0.5964 1.1324 0.9656
C22 C 0.8452(8) 1.1072(8) 1.0357(6)
H14 H 0.8348 1.0473 0.9929
H15 H 0.8881 1.0557 1.1017
H16 H 0.9052 1.1573 1.0025
C23 C 0.6964(9) 1.2989(8) 1.1129(6)
H17 H 0.6487 1.3878 1.0738
H18 H 0.7918 1.2925 1.1325
H19 H 0.6445 1.2819 1.1739
N1 N 0.7028(7) 1.2016(6) 1.0508(5)
O1 O 0.1879(6) 1.1855(5) 0.8186(4)
O2 O 0.4076(6) 1.1356(5) 0.8731(4)
O3 O 0.0138(6) 0.6294(5) 0.0714(4)
O4 O 0.1770(6) 0.4371(5) 0.0720(4)
O5 O 0.2445(6) 1.4248(5) 0.8623(4)
O6 O 0.2205(6) 1.1640(5) 1.0502(4)
O7 O 0.4661(5) 1.2678(5) 1.0202(4)
U1 U 0.23206(3) 1.29569(3) 0.95488(2)
O3A O -0.0138(6) 1.3706(5) 0.9286(4)
O4_2 O 0.1770(6) 1.4371(5) 1.0720(4)
U1A U -0.23206(3) 0.70431(3) 0.04512(2)
U1_2 U 0.23206(3) 0.29569(3) -0.04512(2)
O8 O 0.9235(14) 0.9655(13) 0.6445(11)
H20 H 0.9724 1.0057 0.6695
H21 H 0.9193 0.9877 0.5787
O9 O 0.9452(18) 0.7390(17) 0.7187(13)
H22 H 1.0072 0.7462 0.7589
H23 H 0.9466 0.6574 0.7291
O10 O 0.0255(19) 0.7685(17) 0.5774(14)
H24 H -0.0060 0.8530 0.5536
H25 H 0.1165 0.7417 0.5775
loop_
_geom_bond_atom_site_label_1
_geom_bond_atom_site_label_2
_geom_bond_site_symmetry_1
_geom_bond_site_symmetry_2
C1 C2 1_555 1_555
C2 C3 1_555 1_555
C3 H1 1_555 1_555
C4 C3 1_555 1_555
H2 C4 1_555 1_555
C5 C4 1_555 1_555
C6 C5 1_555 1_555
H3 C6 1_555 1_555
C7 C2 1_555 1_555
H4 C7 1_555 1_555
C8 C5 1_555 1_555
C9 C8 1_555 1_555
H5 C9 1_555 1_555
C10 C9 1_555 1_555
C11 C10 1_555 1_555
H6 C11 1_555 1_555
C12 C11 1_555 1_555
H7 C12 1_555 1_555
C13 C8 1_555 1_555
H8 C13 1_555 1_555
C14 C10 1_555 1_555
C15 C14 1_555 1_555
H9 C15 1_555 1_555
C16 C15 1_555 1_555
H10 C16 1_555 1_555
C17 C16 1_555 1_555
C18 C17 1_555 1_555
H11 C18 1_555 1_555
C19 C14 1_555 1_555
H12 C19 1_555 1_555
C20 C17 1_555 1_555
C21 H13 1_555 1_555
C22 H14 1_555 1_555
H15 C22 1_555 1_555
H16 C22 1_555 1_555
C23 H17 1_555 1_555
H18 C23 1_555 1_555
H19 C23 1_555 1_555
N1 C21 1_555 1_555
O1 C1 1_555 1_555
O2 C1 1_555 1_555
O3 C20 1_555 1_555
O4 C20 1_555 1_555
O5 U1 1_555 1_555
O6 U1 1_555 1_555
O7 C21 1_555 1_555
O8 H20 1_555 1_555
H21 O8 1_555 1_555
O9 H22 1_555 1_555
H23 O9 1_555 1_555
O10 H24 1_555 1_555
H25 O10 1_555 1_555
U1 O1 1_555 1_555
O3A U1 1_555 1_555
O4_2 U1 1_555 1_555
U1A O3 1_555 1_555
U1_2 O4 1_555 1_555
C6 C7 1_555 1_555
C12 C13 1_555 1_555
C18 C19 1_555 1_555
C22 N1 1_555 1_555
C23 N1 1_555 1_555
O2 U1 1_555 1_555
O7 U1 1_555 1_555

#END
