
#######################################################################
#
#                 Cambridge Crystallographic Data Centre
#                                CCDC 
#
#######################################################################
#
# If this CIF has been generated from an entry in the Cambridge 
# Structural Database, then it will include bibliographic, chemical, 
# crystal, experimental, refinement or atomic coordinate data resulting 
# from the CCDC's data processing and validation procedures.
#
#######################################################################

data_NAGBOO
_symmetry_cell_setting           monoclinic
_symmetry_space_group_name_H-M   'P 21/n'
_symmetry_Int_Tables_number      14
_space_group_name_Hall           '-P 2yn'
loop_
_symmetry_equiv_pos_site_id
_symmetry_equiv_pos_as_xyz
1 x,y,z
2 1/2-x,1/2+y,1/2-z
3 -x,-y,-z
4 1/2+x,1/2-y,1/2+z
_cell_length_a                   6.411(5)
_cell_length_b                   9.212(5)
_cell_length_c                   24.679(5)
_cell_angle_alpha                90
_cell_angle_beta                 94.548(5)
_cell_angle_gamma                90
_cell_volume                     1452.91
loop_
_atom_site_label
_atom_site_type_symbol
_atom_site_fract_x
_atom_site_fract_y
_atom_site_fract_z
Zn1 Zn 0.5000 1.0000 0.5000
Zn2 Zn 1.07934(5) 1.32966(4) 0.690097(14)
O1 O 0.8355(3) 1.4018(3) 0.63755(9)
N2 N 0.7593(4) 0.9524(3) 0.55583(10)
O2 O 1.4019(3) 1.1414(2) 0.56492(9)
O3 O 0.6953(3) 1.1686(2) 0.48436(8)
C1 C 0.9051(4) 1.0588(3) 0.55661(12)
C2 C 0.7910(5) 0.8416(3) 0.58958(13)
H1 H 0.6913 0.7684 0.5900
N3 N 0.8815(4) 1.4532(3) 0.74448(10)
O4 O 0.2590(3) 1.7295(2) 0.74380(9)
C3 C 1.2589(4) 1.1604(3) 0.59549(12)
C4 C 0.7065(5) 1.5027(3) 0.71694(12)
C6 C 1.0836(4) 1.0498(3) 0.59238(12)
O5 O 1.2575(3) 1.2590(2) 0.63054(9)
O6 O 0.9833(3) 1.2841(2) 0.51641(9)
N4 N 1.1175(4) 0.9370(3) 0.62636(11)
C7 C 0.8018(5) 1.5980(4) 0.81896(13)
H4 H 0.8461 1.6398 0.8522
N5 N 0.6179(4) 1.6363(3) 0.79378(10)
O7 O 0.2423(3) 1.5293(2) 0.69239(9)
C8 C 0.9723(5) 0.8336(4) 0.62447(14)
H5 H 0.9925 0.7534 0.6472
C9 C 0.8598(4) 1.1816(3) 0.51620(12)
C10 C 0.9271(5) 1.4961(4) 0.79577(13)
H6 H 1.0428 1.4576 0.8159
O8 O 0.5799(3) 1.5658(3) 0.62827(9)
C11 C 0.7036(5) 1.4857(3) 0.65555(13)
C12 C 0.3356(5) 1.6171(3) 0.72417(13)
C13 C 0.5630(5) 1.5831(3) 0.74425(12)
Zn1_2 Zn 1.5000 1.0000 0.5000
Zn2B Zn 0.92066(5) 0.67034(4) 0.309903(14)
Zn2A Zn 0.42066(5) 1.82966(4) 0.809903(14)
Zn2_2 Zn 0.07934(5) 1.32966(4) 0.690097(14)
Zn2_3 Zn 2.07934(5) 1.32966(4) 0.690097(14)
Zn2A_2 Zn 1.42066(5) 1.82966(4) 0.809903(14)
O1_2 O 1.8355(3) 1.4018(3) 0.63755(9)
O1B O 1.1645(3) 0.5982(3) 0.36245(9)
N2B N 1.2407(4) 1.0476(3) 0.44417(10)
N2B_2 N 0.2407(4) 1.0476(3) 0.44417(10)
O2B O 0.5981(3) 0.8586(2) 0.43508(9)
O2_2 O 0.4019(3) 1.1414(2) 0.56492(9)
O3B O 1.3047(3) 0.8314(2) 0.51564(8)
O3B_2 O 0.3047(3) 0.8314(2) 0.51564(8)
C1B C 1.0949(4) 0.9412(3) 0.44339(12)
C2B C 1.2090(5) 1.1584(3) 0.41042(13)
H1B H 1.3087 1.2316 0.4100
N3_2 N 1.8815(4) 1.4532(3) 0.74448(10)
N3B N 1.1185(4) 0.5468(3) 0.25552(10)
O4_2 O 1.2590(3) 1.7295(2) 0.74380(9)
O4A O 1.2410(3) 1.2295(2) 0.75620(9)
O4C O 0.7590(3) 0.7705(2) 0.24380(9)
C3B C 0.7411(4) 0.8396(3) 0.40451(12)
C4_2 C 1.7065(5) 1.5027(3) 0.71694(12)
C6B C 0.9164(4) 0.9502(3) 0.40762(12)
O5B O 0.7425(3) 0.7410(2) 0.36946(9)
O6B O 1.0167(3) 0.7159(2) 0.48359(9)
N4B N 0.8825(4) 1.0630(3) 0.37364(11)
C7_2 C 1.8018(5) 1.5980(4) 0.81896(13)
H4_2 H 1.8461 1.6398 0.8522
N5_2 N 1.6179(4) 1.6363(3) 0.79378(10)
N5A N 0.8821(4) 1.1363(3) 0.70622(10)
N5C N 1.1179(4) 0.8637(3) 0.29378(10)
O7_2 O 1.2423(3) 1.5293(2) 0.69239(9)
O7B O 0.7577(3) 0.4707(2) 0.30761(9)
C8B C 1.0277(5) 1.1664(4) 0.37553(14)
H5B H 1.0075 1.2466 0.3528
C9B C 1.1402(4) 0.8184(3) 0.48380(12)
C10_2 C 1.9271(5) 1.4961(4) 0.79577(13)
H6_2 H 2.0428 1.4576 0.8159
O8_2 O 1.5799(3) 1.5658(3) 0.62827(9)
C11_2 C 1.7036(5) 1.4857(3) 0.65555(13)
C12_2 C 1.3356(5) 1.6171(3) 0.72417(13)
C13_2 C 1.5630(5) 1.5831(3) 0.74425(12)
N1 N -0.7168(5) 1.5054(4) 0.54737(13)
C5 C -0.5970(5) 1.4557(4) 0.50185(15)
H2 H -0.6841 1.4635 0.4680
H3 H -0.5591 1.3545 0.5072
H7 H -0.765(6) 1.565(4) 0.5424(16)
H8 H -0.813(7) 1.453(5) 0.5533(18)
N1B N -0.2832(5) 1.4946(4) 0.45263(13)
C5B C -0.4030(5) 1.5443(4) 0.49815(15)
H2B H -0.3159 1.5365 0.5320
H3B H -0.4409 1.6455 0.4928
H7B H -0.235(6) 1.435(4) 0.4576(16)
H8B H -0.187(7) 1.547(5) 0.4467(18)
loop_
_geom_bond_atom_site_label_1
_geom_bond_atom_site_label_2
_geom_bond_site_symmetry_1
_geom_bond_site_symmetry_2
Zn1 N2 1_555 1_555
Zn2 O1 1_555 1_555
O1 C11 1_555 1_555
N1 C5 1_555 1_555
N2 C1 1_555 1_555
O2 C3 1_555 1_555
O3 Zn1 1_555 1_555
C1 C6 1_555 1_555
C2 N2 1_555 1_555
H1 C2 1_555 1_555
N3 Zn2 1_555 1_555
O4 C12 1_555 1_555
C3 C6 1_555 1_555
C4 N3 1_555 1_555
C5 H2 1_555 1_555
H3 C5 1_555 1_555
C6 N4 1_555 1_555
O5 Zn2 1_555 1_555
O6 C9 1_555 1_555
N4 C8 1_555 1_555
C7 H4 1_555 1_555
N5 C7 1_555 1_555
O7 C12 1_555 1_555
C8 C2 1_555 1_555
H5 C8 1_555 1_555
C9 O3 1_555 1_555
C10 N3 1_555 1_555
H6 C10 1_555 1_555
O8 C11 1_555 1_555
C11 C4 1_555 1_555
C12 C13 1_555 1_555
C13 C4 1_555 1_555
H7 N1 1_555 1_555
H8 N1 1_555 1_555
Zn1_2 O2 1_555 1_555
Zn2B O1B 1_555 1_555
Zn2A O4 1_555 1_555
Zn2_2 O7 1_555 1_555
Zn2_3 O1_2 1_555 1_555
Zn2A_2 O4_2 1_555 1_555
O1_2 C11_2 1_555 1_555
N1B C5B 1_555 1_555
N2B Zn1_2 1_555 1_555
N2B_2 Zn1 1_555 1_555
O2B Zn1 1_555 1_555
O2_2 Zn1 1_555 1_555
O3B Zn1_2 1_555 1_555
O3B_2 Zn1 1_555 1_555
C1B N2B 1_555 1_555
C2B N2B 1_555 1_555
H1B C2B 1_555 1_555
N3_2 Zn2_3 1_555 1_555
N3B Zn2B 1_555 1_555
O4_2 C12_2 1_555 1_555
O4A Zn2 1_555 1_555
O4C Zn2B 1_555 1_555
C3B O2B 1_555 1_555
C4_2 N3_2 1_555 1_555
C5B C5 1_555 1_555
H2B C5B 1_555 1_555
H3B C5B 1_555 1_555
C6B C1B 1_555 1_555
O5B Zn2B 1_555 1_555
O6B C9B 1_555 1_555
N4B C6B 1_555 1_555
C7_2 H4_2 1_555 1_555
N5_2 Zn2A_2 1_555 1_555
N5A Zn2 1_555 1_555
N5C Zn2B 1_555 1_555
O7_2 Zn2 1_555 1_555
O7B Zn2B 1_555 1_555
C8B C2B 1_555 1_555
H5B C8B 1_555 1_555
C9B O3B 1_555 1_555
C10_2 N3_2 1_555 1_555
H6_2 C10_2 1_555 1_555
O8_2 C11_2 1_555 1_555
C11_2 C4_2 1_555 1_555
C12_2 O7_2 1_555 1_555
C13_2 C4_2 1_555 1_555
H7B N1B 1_555 1_555
H8B N1B 1_555 1_555
C1 C9 1_555 1_555
C3 O5 1_555 1_555
C7 C10 1_555 1_555
N5 C13 1_555 1_555
N5 Zn2A 1_555 1_555
C1B C9B 1_555 1_555
C3B C6B 1_555 1_555
C3B O5B 1_555 1_555
N4B C8B 1_555 1_555
C7_2 N5_2 1_555 1_555
C7_2 C10_2 1_555 1_555
N5_2 C13_2 1_555 1_555
C12_2 C13_2 1_555 1_555

#END
