
#######################################################################
#
#                 Cambridge Crystallographic Data Centre
#                                CCDC 
#
#######################################################################
#
# If this CIF has been generated from an entry in the Cambridge 
# Structural Database, then it will include bibliographic, chemical, 
# crystal, experimental, refinement or atomic coordinate data resulting 
# from the CCDC's data processing and validation procedures.
#
#######################################################################

data_NAGCUV
_symmetry_cell_setting           rhombohedral
_symmetry_space_group_name_H-M   'R -3'
_symmetry_Int_Tables_number      148
_space_group_name_Hall           '-R 3'
loop_
_symmetry_equiv_pos_site_id
_symmetry_equiv_pos_as_xyz
1 x,y,z
2 -y,x-y,z
3 -x+y,-x,z
4 2/3+x,1/3+y,1/3+z
5 2/3-y,1/3+x-y,1/3+z
6 2/3-x+y,1/3-x,1/3+z
7 1/3+x,2/3+y,2/3+z
8 1/3-y,2/3+x-y,2/3+z
9 1/3-x+y,2/3-x,2/3+z
10 -x,-y,-z
11 y,-x+y,-z
12 x-y,x,-z
13 1/3-x,2/3-y,2/3-z
14 1/3+y,2/3-x+y,2/3-z
15 1/3+x-y,2/3+x,2/3-z
16 2/3-x,1/3-y,1/3-z
17 2/3+y,1/3-x+y,1/3-z
18 2/3+x-y,1/3+x,1/3-z
_cell_length_a                   13.5437(19)
_cell_length_b                   13.5437(19)
_cell_length_c                   17.108(3)
_cell_angle_alpha                90
_cell_angle_beta                 90
_cell_angle_gamma                120
_cell_volume                     2717.72
loop_
_atom_site_label
_atom_site_type_symbol
_atom_site_fract_x
_atom_site_fract_y
_atom_site_fract_z
Tb1 Tb 1.0000 0.0000 0.68033(3)
O1 O 1.0484(4) 0.1460(3) 0.7723(2)
O2 O 1.0373(6) 0.2846(4) 0.8322(3)
O3 O 0.9529(4) 0.4013(3) 0.8145(2)
O4 O 0.8165(4) 0.4007(3) 0.7444(2)
N1 N 0.8856(6) 0.1043(4) 0.6743(3)
C1 C 1.0075(7) 0.2098(5) 0.7800(4)
C2 C 0.9157(6) 0.1938(4) 0.7211(3)
C3 C 0.8611(6) 0.2581(4) 0.7130(3)
C4 C 0.8783(7) 0.3609(5) 0.7608(3)
Tb1O Tb 0.6667 0.3333 0.65300(3)
Tb1O_2 Tb 0.6667 -0.6667 0.65300(3)
Tb1O_3 Tb 1.6667 0.3333 0.65300(3)
O1O O 0.6183(4) 0.1873(3) 0.5610(2)
O1A O 0.8540(3) -0.0976(5) 0.7723(2)
O1P O 0.8127(3) -0.5691(5) 0.5610(2)
O1B O 1.0976(5) -0.0484(4) 0.7723(2)
O1Q O 1.5691(5) 0.3817(4) 0.5610(2)
O1P_2 O 0.8127(3) 0.4309(5) 0.5610(2)
O1Q_2 O 0.5691(5) 0.3817(4) 0.5610(2)
O2O O 0.6294(6) 0.0487(4) 0.5011(3)
O2A O 0.7154(4) -0.2473(7) 0.8322(3)
O2P O 0.9513(4) -0.4194(7) 0.5011(3)
O2B O 1.2473(7) -0.0373(6) 0.8322(3)
O2Q O 1.4194(7) 0.3706(6) 0.5011(3)
O3O O 0.7138(4) -0.0680(3) 0.5188(2)
O3A O 0.5987(3) -0.4484(5) 0.8145(2)
O3P O 1.0680(3) -0.2183(5) 0.5188(2)
O3B O 1.4484(5) 0.0471(4) 0.8145(2)
O3Q O 1.2183(5) 0.2862(4) 0.5188(2)
O4O O 0.8502(4) -0.0674(3) 0.5889(2)
O4A O 0.5993(3) -0.5842(5) 0.7444(2)
O4P O 1.0674(3) -0.0825(5) 0.5889(2)
O4B O 1.5842(5) 0.1835(4) 0.7444(2)
O4Q O 1.0825(5) 0.1498(4) 0.5889(2)
O4A_2 O 0.5993(3) 0.4158(5) 0.7444(2)
O4B_2 O 0.5842(5) 0.1835(4) 0.7444(2)
N1O N 0.7811(6) 0.2290(4) 0.6590(3)
N1A N 0.8957(4) -0.2187(7) 0.6743(3)
N1P N 0.7710(4) -0.4480(7) 0.6590(3)
N1B N 1.2187(7) 0.1144(6) 0.6743(3)
N1Q N 1.4480(7) 0.2189(6) 0.6590(3)
N1P_2 N 0.7710(4) 0.5520(7) 0.6590(3)
N1Q_2 N 0.4480(7) 0.2189(6) 0.6590(3)
C1O C 0.6592(7) 0.1235(5) 0.5533(4)
C1A C 0.7902(5) -0.2023(9) 0.7800(4)
C1P C 0.8765(5) -0.4644(9) 0.5533(4)
C1B C 1.2023(9) -0.0075(7) 0.7800(4)
C1Q C 1.4644(9) 0.3408(7) 0.5533(4)
C2O C 0.7510(6) 0.1395(4) 0.6122(3)
C2A C 0.8062(4) -0.2781(7) 0.7211(3)
C2P C 0.8605(4) -0.3886(7) 0.6122(3)
C2B C 1.2781(7) 0.0843(6) 0.7211(3)
C2Q C 1.3886(7) 0.2490(6) 0.6122(3)
C3O C 0.8056(6) 0.0752(4) 0.6203(3)
C3A C 0.7419(4) -0.3970(7) 0.7130(3)
C3P C 0.9248(4) -0.2697(7) 0.6203(3)
C3B C 1.3970(7) 0.1389(6) 0.7130(3)
C3Q C 1.2697(7) 0.1944(6) 0.6203(3)
C4O C 0.7884(7) -0.0276(5) 0.5725(3)
C4A C 0.6391(5) -0.4826(9) 0.7608(3)
C4P C 1.0276(5) -0.1841(9) 0.5725(3)
C4B C 1.4826(9) 0.1217(7) 0.7608(3)
C4Q C 1.1841(9) 0.2116(7) 0.5725(3)
O5 O 0.7434(12) 0.8461(16) 0.9843(7)
O6? O 1.0000 0.0000 0.957(2)
O7? O 0.751(2) 0.782(3) 0.9876(15)
O8? O 0.759(2) 0.924(3) 0.9649(17)
loop_
_geom_bond_atom_site_label_1
_geom_bond_atom_site_label_2
_geom_bond_site_symmetry_1
_geom_bond_site_symmetry_2
Tb1 O1 1_555 1_555
O1 C1 1_555 1_555
O2 C1 1_555 1_555
O3 C4 1_555 1_555
O4 C4 1_555 1_555
N1 Tb1 1_555 1_555
C1 C2 1_555 1_555
C2 N1 1_555 1_555
C3 C2 1_555 1_555
C4 C3 1_555 1_555
Tb1O O4 1_555 1_555
Tb1O_2 O1P 1_555 1_555
Tb1O_3 O1Q 1_555 1_555
O1O Tb1O 1_555 1_555
O1A Tb1 1_555 1_555
O1P C1P 1_555 1_555
O1B Tb1 1_555 1_555
O1Q C1Q 1_555 1_555
O1P_2 Tb1O 1_555 1_555
O1Q_2 Tb1O 1_555 1_555
O2O C1O 1_555 1_555
O2A C1A 1_555 1_555
O2P C1P 1_555 1_555
O2B C1B 1_555 1_555
O2Q C1Q 1_555 1_555
O3O C4O 1_555 1_555
O3A C4A 1_555 1_555
O3P C4P 1_555 1_555
O3B C4B 1_555 1_555
O3Q C4Q 1_555 1_555
O4O Tb1 1_555 1_555
O4A Tb1O_2 1_555 1_555
O4P Tb1 1_555 1_555
O4B Tb1O_3 1_555 1_555
O4Q Tb1 1_555 1_555
O4A_2 Tb1O 1_555 1_555
O4B_2 Tb1O 1_555 1_555
N1O C3 1_555 1_555
N1A Tb1 1_555 1_555
N1P Tb1O_2 1_555 1_555
N1B Tb1 1_555 1_555
N1Q Tb1O_3 1_555 1_555
N1P_2 Tb1O 1_555 1_555
N1Q_2 Tb1O 1_555 1_555
C1O O1O 1_555 1_555
C1A O1A 1_555 1_555
C1P C2P 1_555 1_555
C1B O1B 1_555 1_555
C1Q C2Q 1_555 1_555
C2O N1O 1_555 1_555
C2A N1A 1_555 1_555
C2P N1P 1_555 1_555
C2B N1B 1_555 1_555
C2Q N1Q 1_555 1_555
C3O N1 1_555 1_555
C3A N1P 1_555 1_555
C3P N1A 1_555 1_555
C3B N1Q 1_555 1_555
C3Q N1B 1_555 1_555
C4O O4O 1_555 1_555
C4A O4A 1_555 1_555
C4P O4P 1_555 1_555
C4B O4B 1_555 1_555
C4Q O4Q 1_555 1_555
Tb1O N1O 1_555 1_555
C1O C2O 1_555 1_555
C1A C2A 1_555 1_555
C1B C2B 1_555 1_555
C2O C3O 1_555 1_555
C2A C3A 1_555 1_555
C2P C3P 1_555 1_555
C2B C3B 1_555 1_555
C2Q C3Q 1_555 1_555
C3O C4O 1_555 1_555
C3A C4A 1_555 1_555
C3P C4P 1_555 1_555
C3B C4B 1_555 1_555
C3Q C4Q 1_555 1_555

#END
