
#######################################################################
#
#                 Cambridge Crystallographic Data Centre
#                                CCDC 
#
#######################################################################
#
# If this CIF has been generated from an entry in the Cambridge 
# Structural Database, then it will include bibliographic, chemical, 
# crystal, experimental, refinement or atomic coordinate data resulting 
# from the CCDC's data processing and validation procedures.
#
#######################################################################

data_NAGDAC
_symmetry_cell_setting           monoclinic
_symmetry_space_group_name_H-M   'P 21/c'
_symmetry_Int_Tables_number      14
_space_group_name_Hall           '-P 2ybc'
loop_
_symmetry_equiv_pos_site_id
_symmetry_equiv_pos_as_xyz
1 x,y,z
2 -x,1/2+y,1/2-z
3 -x,-y,-z
4 x,1/2-y,1/2+z
_cell_length_a                   19.1042(7)
_cell_length_b                   12.5326(3)
_cell_length_c                   18.8042(7)
_cell_angle_alpha                90
_cell_angle_beta                 112.688(4)
_cell_angle_gamma                90
_cell_volume                     4153.82
loop_
_atom_site_label
_atom_site_type_symbol
_atom_site_fract_x
_atom_site_fract_y
_atom_site_fract_z
C1 C 0.39325(13) 0.92097(18) 0.47363(14)
H1 H 0.3884 0.9837 0.5016
H2 H 0.3952 0.9443 0.4252
C2 C 0.46552(13) 0.86240(19) 0.52037(15)
H3 H 0.509 0.9046 0.5231
H4 H 0.4683 0.8513 0.5724
C3 C 0.50542(14) 0.7590(2) 0.42885(15)
H5 H 0.5597 0.7671 0.4564
H6 H 0.487 0.8178 0.3929
C4 C 0.48790(14) 0.6541(2) 0.38641(16)
H7 H 0.508 0.6541 0.3463
H8 H 0.5117 0.5963 0.4218
C5 C 0.36599(15) 0.6868(2) 0.27501(15)
H9 H 0.3772 0.6468 0.2365
H10 H 0.3834 0.7596 0.2753
C6 C 0.28202(16) 0.6858(2) 0.25614(15)
H11 H 0.2558 0.7255 0.209
H12 H 0.2634 0.613 0.2483
C7 C 0.25970(14) 0.85274(19) 0.31698(14)
H13 H 0.2133 0.8736 0.2747
H14 H 0.3023 0.8844 0.3088
C8 C 0.25818(14) 0.89007(19) 0.39280(14)
H15 H 0.2573 0.9674 0.3939
H16 H 0.2126 0.8639 0.398
C9 C 0.30954(13) 0.82809(18) 0.52811(13)
H17 H 0.3564 0.8068 0.5695
H18 H 0.2751 0.7679 0.5171
C10 C 0.27558(13) 0.91888(18) 0.55662(13)
C11 C 0.19715(14) 0.92669(19) 0.53385(14)
H19 H 0.1655 0.8773 0.4995
C12 C 0.16646(14) 1.00759(19) 0.56229(14)
H20 H 0.1139 1.0117 0.5456
C13 C 0.28429(13) 1.07149(18) 0.63592(13)
H21 H 0.3147 1.1205 0.6716
C14 C 0.31905(13) 0.99369(18) 0.60964(13)
H22 H 0.3717 0.9912 0.6274
C15 C 0.12894(13) 0.38772(19) 0.53343(14)
H23 H 0.1313 0.3579 0.4868
H24 H 0.1326 0.4647 0.531
C16 C 0.05445(14) 0.35807(19) 0.53840(15)
H25 H 0.0491 0.3937 0.5818
H26 H 0.0125 0.3793 0.4917
C17 C -0.00906(13) 0.2012(2) 0.56720(15)
H27 H -0.0205 0.128 0.5498
H28 H -0.054 0.2441 0.541
C18 C 0.01217(14) 0.2069(2) 0.65278(15)
H29 H 0.0177 0.2807 0.6695
H30 H -0.0271 0.1742 0.6663
C19 C 0.12250(15) 0.1687(2) 0.77457(14)
H31 H 0.1552 0.109 0.799
H32 H 0.0847 0.1755 0.797
C20 C 0.16870(14) 0.2697(2) 0.78795(14)
H33 H 0.1354 0.3308 0.7693
H34 H 0.198 0.2793 0.8426
C21 C 0.25854(14) 0.36178(19) 0.74256(14)
H35 H 0.3088 0.3464 0.7438
H36 H 0.2641 0.406 0.7867
C22 C 0.21273(14) 0.42066(18) 0.66904(13)
H37 H 0.1665 0.4482 0.6721
H38 H 0.2418 0.4805 0.6623
C23 C 0.26026(13) 0.32190(18) 0.58209(14)
H39 H 0.2473 0.2626 0.5462
H40 H 0.3018 0.299 0.6286
C24 C 0.28747(13) 0.41325(18) 0.54711(14)
C25 C 0.34224(13) 0.48466(19) 0.59136(14)
H41 H 0.3641 0.477 0.6446
C26 C 0.36419(13) 0.56709(18) 0.55604(14)
H42 H 0.4014 0.6138 0.5867
C27 C 0.28257(13) 0.51314(19) 0.43724(14)
H43 H 0.2614 0.5227 0.3841
C28 C 0.25877(14) 0.42756(19) 0.46790(14)
H44 H 0.2236 0.3796 0.4357
N1 N 0.32619(10) 0.85017(15) 0.45797(11)
N2 N 0.46675(11) 0.75828(16) 0.48379(12)
H45 H 0.4889 0.7086 0.521
N3 N 0.40487(11) 0.63785(16) 0.35188(12)
H46 H 0.3941 0.5669 0.3496
N4 N 0.26698(11) 0.73471(16) 0.32048(11)
H47 H 0.2254 0.7045 0.3246
N5 N 0.20846(11) 1.08040(15) 0.61263(11)
N6 N 0.19344(10) 0.34634(14) 0.60194(11)
N7 N 0.05447(11) 0.24102(15) 0.54831(12)
H48 H 0.0552 0.2074 0.5057
N8 N 0.08475(11) 0.14940(16) 0.69060(11)
H49 H 0.0783 0.0782 0.6806
N9 N 0.21981(11) 0.26110(15) 0.74638(11)
H50 H 0.2551 0.2097 0.7688
N10 N 0.33450(11) 0.58322(15) 0.47973(11)
Cu1 Cu 0.360018(15) 0.71253(2) 0.419446(16)
Cu2 Cu 0.152607(15) 0.21429(2) 0.639867(16)
N5_2 N 0.20846(11) 0.08040(15) 0.61263(11)
Cu2_2 Cu 0.152607(15) 1.21429(2) 0.639867(16)
N11 N -0.05457(17) 0.5872(2) 0.11314(14)
O5 O -0.08810(14) 0.67296(18) 0.09117(14)
O6 O -0.08278(14) 0.51738(18) 0.14089(12)
O7 O 0.00602(14) 0.56977(17) 0.10405(14)
N12 N 0.11776(13) 0.61158(19) 0.36521(15)
O8 O 0.11645(13) 0.59564(18) 0.29966(13)
O9 O 0.08034(11) 0.55487(16) 0.39200(11)
O10 O 0.15740(11) 0.68524(16) 0.40567(13)
N13 N 0.37977(12) 0.36196(17) 0.37343(12)
O11 O 0.33193(10) 0.40893(14) 0.31636(10)
O12 O 0.36646(11) 0.27138(15) 0.39178(11)
O13 O 0.44063(10) 0.40777(15) 0.41196(11)
N14 N 0.47454(12) 0.27861(19) 0.26441(13)
O14 O 0.46323(17) 0.3617(2) 0.22531(17)
O15 O 0.42179(15) 0.2105(2) 0.24402(16)
O16 O 0.53312(15) 0.2621(2) 0.31798(15)
O1 O -0.05290(17) 0.4601(2) 0.29435(19)
H51 H -0.058(2) 0.475(3) 0.258(2)
H52 H -0.008(3) 0.472(3) 0.323(2)
O2 O 0.19402(14) 0.65580(19) 0.57425(18)
H53 H 0.1721(19) 0.654(3) 0.525(2)
H54 H 0.1624(19) 0.668(3) 0.5887(19)
O3 O 0.56865(18) 0.4944(3) 0.19429(17)
H55 H 0.532(2) 0.468(3) 0.200(2)
H56 H 0.559(2) 0.556(3) 0.200(2)
O4 O 0.09163(15) 0.7801(3) 0.13872(17)
H57 H 0.064(4) 0.728(5) 0.136(3)
H58 H 0.079(3) 0.820(4) 0.161(3)
O17? O 0.5157(8) 0.3631(11) 0.2779(8)
O18? O 0.4186(6) 0.2635(9) 0.2114(6)
O19? O 0.5116(6) 0.2032(9) 0.3147(6)
loop_
_geom_bond_atom_site_label_1
_geom_bond_atom_site_label_2
_geom_bond_site_symmetry_1
_geom_bond_site_symmetry_2
C1 H1 1_555 1_555
H2 C1 1_555 1_555
C2 C1 1_555 1_555
H3 C2 1_555 1_555
H4 C2 1_555 1_555
C3 H5 1_555 1_555
H6 C3 1_555 1_555
C4 C3 1_555 1_555
H7 C4 1_555 1_555
H8 C4 1_555 1_555
C5 H9 1_555 1_555
H10 C5 1_555 1_555
C6 C5 1_555 1_555
H11 C6 1_555 1_555
H12 C6 1_555 1_555
C7 H13 1_555 1_555
H14 C7 1_555 1_555
C8 C7 1_555 1_555
H15 C8 1_555 1_555
H16 C8 1_555 1_555
C9 H17 1_555 1_555
H18 C9 1_555 1_555
C10 C9 1_555 1_555
C11 C10 1_555 1_555
H19 C11 1_555 1_555
C12 C11 1_555 1_555
H20 C12 1_555 1_555
C13 H21 1_555 1_555
C14 C10 1_555 1_555
H22 C14 1_555 1_555
C15 H23 1_555 1_555
H24 C15 1_555 1_555
C16 C15 1_555 1_555
H25 C16 1_555 1_555
H26 C16 1_555 1_555
C17 H27 1_555 1_555
H28 C17 1_555 1_555
C18 C17 1_555 1_555
H29 C18 1_555 1_555
H30 C18 1_555 1_555
C19 H31 1_555 1_555
H32 C19 1_555 1_555
C20 C19 1_555 1_555
H33 C20 1_555 1_555
H34 C20 1_555 1_555
C21 H35 1_555 1_555
H36 C21 1_555 1_555
C22 C21 1_555 1_555
H37 C22 1_555 1_555
H38 C22 1_555 1_555
C23 H39 1_555 1_555
H40 C23 1_555 1_555
C24 C23 1_555 1_555
C25 C24 1_555 1_555
H41 C25 1_555 1_555
C26 C25 1_555 1_555
H42 C26 1_555 1_555
C27 H43 1_555 1_555
C28 C24 1_555 1_555
H44 C28 1_555 1_555
N1 C1 1_555 1_555
N2 C2 1_555 1_555
H45 N2 1_555 1_555
N3 C4 1_555 1_555
H46 N3 1_555 1_555
N4 C6 1_555 1_555
H47 N4 1_555 1_555
N5 C12 1_555 1_555
N6 C15 1_555 1_555
N7 C16 1_555 1_555
H48 N7 1_555 1_555
N8 C18 1_555 1_555
H49 N8 1_555 1_555
N9 C20 1_555 1_555
H50 N9 1_555 1_555
N10 C26 1_555 1_555
N11 O5 1_555 1_555
N12 O8 1_555 1_555
N13 O11 1_555 1_555
N14 O14 1_555 1_555
O1 H51 1_555 1_555
O2 H53 1_555 1_555
O3 H55 1_555 1_555
O4 H57 1_555 1_555
O6 N11 1_555 1_555
O7 N11 1_555 1_555
O9 N12 1_555 1_555
O10 N12 1_555 1_555
O12 N13 1_555 1_555
O13 N13 1_555 1_555
O15 N14 1_555 1_555
O16 N14 1_555 1_555
Cu1 N1 1_555 1_555
Cu2 N6 1_555 1_555
H52 O1 1_555 1_555
H54 O2 1_555 1_555
H56 O3 1_555 1_555
H58 O4 1_555 1_555
N5_2 Cu2 1_555 1_555
Cu2_2 N5 1_555 1_555
C3 N2 1_555 1_555
C5 N3 1_555 1_555
C7 N4 1_555 1_555
C8 N1 1_555 1_555
C9 N1 1_555 1_555
C13 C14 1_555 1_555
C13 N5 1_555 1_555
C17 N7 1_555 1_555
C19 N8 1_555 1_555
C21 N9 1_555 1_555
C22 N6 1_555 1_555
C23 N6 1_555 1_555
C27 C28 1_555 1_555
C27 N10 1_555 1_555
N2 Cu1 1_555 1_555
N3 Cu1 1_555 1_555
N4 Cu1 1_555 1_555
N7 Cu2 1_555 1_555
N8 Cu2 1_555 1_555
N9 Cu2 1_555 1_555
N10 Cu1 1_555 1_555

#END
