
#######################################################################
#
#                 Cambridge Crystallographic Data Centre
#                                CCDC 
#
#######################################################################
#
# If this CIF has been generated from an entry in the Cambridge 
# Structural Database, then it will include bibliographic, chemical, 
# crystal, experimental, refinement or atomic coordinate data resulting 
# from the CCDC's data processing and validation procedures.
#
#######################################################################

data_NAGFAE
_symmetry_cell_setting           orthorhombic
_symmetry_space_group_name_H-M   'P 21 21 21'
_symmetry_Int_Tables_number      19
_space_group_name_Hall           'P 2ac 2ab'
loop_
_symmetry_equiv_pos_site_id
_symmetry_equiv_pos_as_xyz
1 x,y,z
2 1/2-x,-y,1/2+z
3 -x,1/2+y,1/2-z
4 1/2+x,1/2-y,-z
_cell_length_a                   17.920(4)
_cell_length_b                   18.640(4)
_cell_length_c                   23.690(5)
_cell_angle_alpha                90
_cell_angle_beta                 90
_cell_angle_gamma                90
_cell_volume                     7913.14
loop_
_atom_site_label
_atom_site_type_symbol
_atom_site_fract_x
_atom_site_fract_y
_atom_site_fract_z
Zn1 Zn 0.72199(6) 0.39058(7) 0.04018(5)
Zn2 Zn 0.92180(6) 0.15925(7) -0.03919(5)
Zn3 Zn 0.75113(7) -0.11429(7) -0.00563(4)
Zn4 Zn 0.92433(6) 0.61458(7) 0.04749(5)
N1 N 0.8003(4) 0.3158(5) 0.0421(3)
N2 N 0.8843(5) 0.2281(4) 0.0206(3)
N3 N 0.8318(5) 0.2092(5) -0.0838(3)
N4 N 0.7359(5) 0.2861(4) -0.0740(3)
N5 N 0.6431(4) 0.3991(5) -0.0183(3)
N6 N 0.5162(4) 0.3884(5) -0.0267(3)
N7 N 0.5148(4) 0.3162(4) 0.0797(3)
N8 N 0.6369(4) 0.3409(5) 0.0873(3)
N9 N 0.8882(4) 0.0591(4) -0.0536(3)
N10 N 0.8280(4) -0.0487(4) -0.0501(3)
N11 N 0.7607(4) -0.0199(4) 0.0494(3)
N12 N 0.8182(5) 0.0858(5) 0.0623(3)
N13 N 1.1541(4) 0.5849(4) 0.0540(3)
N14 N 1.0304(4) 0.5993(5) 0.0652(3)
N15 N 1.0419(5) 0.7069(5) -0.0306(4)
N16 N 1.1573(4) 0.6652(5) -0.0413(4)
N17 N 0.7676(5) 0.7880(4) -0.0585(3)
N18 N 0.8219(5) 0.6795(5) -0.0641(3)
N19 N 0.8989(4) 0.7191(4) 0.0446(3)
N20 N 0.8330(4) 0.8224(4) 0.0408(3)
N21 N 0.8954(4) 0.5512(4) -0.0164(3)
N22 N 0.8232(5) 0.4507(5) -0.0320(4)
N23 N 0.7550(4) 0.4788(4) 0.0780(3)
N24 N 0.8426(4) 0.5636(5) 0.0895(3)
C1 C 0.8498(5) 0.3078(6) 0.0867(4)
C2 C 0.8544(6) 0.3459(6) 0.1383(4)
H1 H 0.8203 0.3820 0.1469
C3 C 0.9090(6) 0.3287(6) 0.1743(4)
H2 H 0.9125 0.3525 0.2087
C4 C 0.9605(8) 0.2759(8) 0.1610(5)
H3 H 0.9978 0.2655 0.1870
C5 C 0.9589(6) 0.2378(6) 0.1108(5)
H4 H 0.9939 0.2027 0.1020
C6 C 0.9005(6) 0.2562(6) 0.0742(4)
C7 C 0.8241(6) 0.2681(6) 0.0050(4)
C8 C 0.7972(5) 0.2551(5) -0.0511(4)
C9 C 0.7913(5) 0.2092(6) -0.1330(4)
C10 C 0.8020(6) 0.1714(7) -0.1838(5)
H5 H 0.8417 0.1398 -0.1881
C11 C 0.7529(7) 0.1826(7) -0.2260(5)
H6 H 0.7590 0.1571 -0.2595
C12 C 0.6935(7) 0.2305(7) -0.2219(5)
H7 H 0.6615 0.2368 -0.2524
C13 C 0.6821(7) 0.2684(7) -0.1728(5)
H8 H 0.6428 0.3007 -0.1694
C14 C 0.7318(6) 0.2566(6) -0.1280(5)
C15 C 0.6203(6) 0.4292(6) -0.0690(4)
C16 C 0.6630(6) 0.4620(7) -0.1126(5)
H9 H 0.7146 0.4662 -0.1098
C17 C 0.6262(7) 0.4865(7) -0.1579(5)
H10 H 0.6526 0.5093 -0.1866
C18 C 0.5486(8) 0.4785(8) -0.1631(5)
H11 H 0.5249 0.4961 -0.1952
C19 C 0.5062(7) 0.4454(7) -0.1219(5)
H12 H 0.4552 0.4385 -0.1265
C20 C 0.5424(6) 0.4231(6) -0.0737(4)
C21 C 0.5770(6) 0.3769(5) 0.0031(4)
C22 C 0.5761(6) 0.3439(5) 0.0562(4)
C23 C 0.5385(7) 0.2924(6) 0.1330(5)
C24 C 0.4996(7) 0.2639(6) 0.1779(5)
H13 H 0.4485 0.2554 0.1755
C25 C 0.5381(8) 0.2486(7) 0.2257(5)
H14 H 0.5130 0.2288 0.2564
C26 C 0.6150(7) 0.2619(7) 0.2298(5)
H15 H 0.6395 0.2510 0.2633
C27 C 0.6542(6) 0.2901(7) 0.1870(5)
H16 H 0.7052 0.2984 0.1902
C28 C 0.6159(6) 0.3066(6) 0.1371(5)
C29 C 0.9062(5) 0.0185(5) -0.1003(4)
C30 C 0.9533(6) 0.0356(6) -0.1456(4)
H17 H 0.9796 0.0786 -0.1466
C31 C 0.9590(6) -0.0129(7) -0.1879(5)
H18 H 0.9899 -0.0028 -0.2184
C32 C 0.9192(6) -0.0785(6) -0.1871(4)
H19 H 0.9243 -0.1101 -0.2173
C33 C 0.8734(6) -0.0967(6) -0.1433(4)
H20 H 0.8472 -0.1398 -0.1427
C34 C 0.8682(5) -0.0470(6) -0.0995(4)
C35 C 0.8419(5) 0.0153(6) -0.0258(4)
C36 C 0.8060(5) 0.0277(5) 0.0283(4)
C37 C 0.7395(6) 0.0078(6) 0.1015(4)
C38 C 0.6930(7) -0.0230(8) 0.1449(6)
H21 H 0.6678 -0.0661 0.1401
C39 C 0.6888(9) 0.0165(9) 0.1943(5)
H22 H 0.6610 -0.0015 0.2243
C40 C 0.7238(9) 0.0805(9) 0.2005(6)
H23 H 0.7174 0.1057 0.2340
C41 C 0.7688(8) 0.1100(8) 0.1589(5)
H24 H 0.7929 0.1536 0.1641
C42 C 0.7763(7) 0.0720(6) 0.1096(5)
C43 C 1.1327(6) 0.5433(7) 0.0976(5)
C44 C 1.1722(7) 0.4985(8) 0.1341(6)
H25 H 1.2235 0.4931 0.1304
C45 C 1.1340(8) 0.4629(8) 0.1751(6)
H26 H 1.1600 0.4319 0.1987
C46 C 1.0583(7) 0.4711(8) 0.1828(6)
H27 H 1.0346 0.4462 0.2117
C47 C 1.0181(7) 0.5148(8) 0.1490(5)
H28 H 0.9670 0.5205 0.1541
C48 C 1.0556(5) 0.5509(6) 0.1067(4)
C49 C 1.0909(5) 0.6151(6) 0.0366(4)
C50 C 1.0948(6) 0.6614(6) -0.0112(4)
C51 C 1.0721(6) 0.7409(6) -0.0782(4)
C52 C 1.0440(7) 0.7916(7) -0.1145(5)
H29 H 0.9958 0.8093 -0.1102
C53 C 1.0897(8) 0.8154(6) -0.1574(5)
H30 H 1.0733 0.8510 -0.1819
C54 C 1.1597(8) 0.7861(8) -0.1636(5)
H31 H 1.1894 0.8018 -0.1933
C55 C 1.1874(7) 0.7352(7) -0.1283(5)
H32 H 1.2346 0.7158 -0.1339
C56 C 1.1431(6) 0.7133(6) -0.0841(4)
C57 C 0.7442(6) 0.7540(6) -0.1080(4)
C58 C 0.6963(6) 0.7816(7) -0.1504(5)
H33 H 0.6740 0.8265 -0.1480
C59 C 0.6852(7) 0.7348(8) -0.1968(5)
H34 H 0.6551 0.7494 -0.2266
C60 C 0.7179(7) 0.6687(8) -0.1983(5)
H35 H 0.7073 0.6390 -0.2288
C61 C 0.7653(7) 0.6437(6) -0.1577(5)
H36 H 0.7880 0.5991 -0.1611
C62 C 0.7780(6) 0.6864(6) -0.1122(5)
C63 C 0.8127(5) 0.7416(6) -0.0347(4)
C64 C 0.8485(6) 0.7600(6) 0.0172(4)
C65 C 0.9168(6) 0.7614(6) 0.0916(4)
C66 C 0.9672(7) 0.7458(7) 0.1354(5)
H37 H 0.9948 0.7037 0.1367
C67 C 0.9723(7) 0.7987(8) 0.1769(5)
H38 H 1.0048 0.7920 0.2071
C68 C 0.9294(7) 0.8619(7) 0.1743(5)
H39 H 0.9335 0.8952 0.2034
C69 C 0.8814(6) 0.8763(6) 0.1302(4)
H40 H 0.8542 0.9188 0.1286
C70 C 0.8753(5) 0.8243(6) 0.0879(4)
C71 C 0.9134(6) 0.5197(6) -0.0678(4)
C72 C 0.9687(7) 0.5429(7) -0.1071(5)
H41 H 0.9971 0.5841 -0.1015
C73 C 0.9770(7) 0.4995(8) -0.1542(5)
H42 H 1.0136 0.5110 -0.1805
C74 C 0.9329(8) 0.4400(8) -0.1633(5)
H43 H 0.9391 0.4132 -0.1961
C75 C 0.8804(7) 0.4203(7) -0.1250(4)
H44 H 0.8513 0.3797 -0.1313
C76 C 0.8703(6) 0.4601(6) -0.0769(4)
C77 C 0.8413(6) 0.5050(6) 0.0003(4)
C78 C 0.8116(6) 0.5164(6) 0.0560(4)
C79 C 0.7469(6) 0.5071(5) 0.1324(4)
C80 C 0.6997(6) 0.4902(7) 0.1761(5)
H45 H 0.6623 0.4561 0.1712
C81 C 0.7084(7) 0.5239(6) 0.2264(4)
H46 H 0.6781 0.5111 0.2567
C82 C 0.7611(7) 0.5765(6) 0.2334(4)
H47 H 0.7634 0.6011 0.2675
C83 C 0.8101(6) 0.5933(6) 0.1915(4)
H48 H 0.8476 0.6270 0.1975
C84 C 0.8029(5) 0.5592(5) 0.1399(4)
Zn2C Zn 0.42180(6) 0.34075(7) 0.03919(5)
Zn3C Zn 1.25113(7) 0.61429(7) 0.00563(4)
Zn3_2 Zn 0.75113(7) 0.88571(7) -0.00563(4)
N6C N 1.0162(4) 0.1116(5) 0.0267(3)
N7C N 1.0148(4) 0.1838(4) -0.0797(3)
N13C N 0.6541(4) -0.0849(4) -0.0540(3)
N16C N 0.6573(4) -0.1652(5) 0.0413(4)
N17_2 N 0.7676(5) -0.2120(4) -0.0585(3)
N20_2 N 0.8330(4) -0.1776(4) 0.0408(3)
C85 C 0.079(3) 0.889(3) 0.014(2)
H49 H 0.0888 0.9211 -0.0173
H50 H 0.0697 0.9202 0.0457
C86 C -0.0003(16) 0.8663(17) 0.0000(7)
H51 H -0.0297 0.9081 -0.0082
H52 H -0.0215 0.8414 0.0317
H53 H 0.0001 0.8351 -0.0323
O1 O 0.136(2) 0.871(2) 0.0235(18)
H54 H 0.1633 0.9057 0.0254
O2 O 0.5948(17) 1.1330(12) 0.0035(8)
loop_
_geom_bond_atom_site_label_1
_geom_bond_atom_site_label_2
_geom_bond_site_symmetry_1
_geom_bond_site_symmetry_2
Zn1 N1 1_555 1_555
Zn2 N2 1_555 1_555
Zn3 N10 1_555 1_555
Zn4 N14 1_555 1_555
N1 C1 1_555 1_555
N2 C6 1_555 1_555
N3 Zn2 1_555 1_555
N4 C8 1_555 1_555
N5 Zn1 1_555 1_555
N6 C20 1_555 1_555
N7 C22 1_555 1_555
N8 Zn1 1_555 1_555
N9 Zn2 1_555 1_555
N10 C34 1_555 1_555
N11 Zn3 1_555 1_555
N12 C36 1_555 1_555
N13 C43 1_555 1_555
N14 C48 1_555 1_555
N15 C50 1_555 1_555
N16 C50 1_555 1_555
N17 C57 1_555 1_555
N18 C62 1_555 1_555
N19 Zn4 1_555 1_555
N20 C64 1_555 1_555
N21 Zn4 1_555 1_555
N22 C76 1_555 1_555
N23 Zn1 1_555 1_555
N24 Zn4 1_555 1_555
C1 C2 1_555 1_555
C2 H1 1_555 1_555
C3 C2 1_555 1_555
H2 C3 1_555 1_555
C4 C3 1_555 1_555
H3 C4 1_555 1_555
C5 C4 1_555 1_555
H4 C5 1_555 1_555
C6 C1 1_555 1_555
C7 N1 1_555 1_555
C8 N3 1_555 1_555
C9 N3 1_555 1_555
C10 C9 1_555 1_555
H5 C10 1_555 1_555
C11 C10 1_555 1_555
H6 C11 1_555 1_555
C12 C11 1_555 1_555
H7 C12 1_555 1_555
C13 C12 1_555 1_555
H8 C13 1_555 1_555
C14 N4 1_555 1_555
C15 N5 1_555 1_555
C16 C15 1_555 1_555
H9 C16 1_555 1_555
C17 C16 1_555 1_555
H10 C17 1_555 1_555
C18 C17 1_555 1_555
H11 C18 1_555 1_555
C19 C18 1_555 1_555
H12 C19 1_555 1_555
C20 C15 1_555 1_555
C21 N5 1_555 1_555
C22 N8 1_555 1_555
C23 N7 1_555 1_555
C24 C23 1_555 1_555
H13 C24 1_555 1_555
C25 C24 1_555 1_555
H14 C25 1_555 1_555
C26 C25 1_555 1_555
H15 C26 1_555 1_555
C27 C26 1_555 1_555
H16 C27 1_555 1_555
C28 N8 1_555 1_555
C29 N9 1_555 1_555
C30 C29 1_555 1_555
H17 C30 1_555 1_555
C31 C30 1_555 1_555
H18 C31 1_555 1_555
C32 C31 1_555 1_555
H19 C32 1_555 1_555
C33 C32 1_555 1_555
H20 C33 1_555 1_555
C34 C29 1_555 1_555
C35 N9 1_555 1_555
C36 N11 1_555 1_555
C37 N11 1_555 1_555
C38 C37 1_555 1_555
H21 C38 1_555 1_555
C39 C38 1_555 1_555
H22 C39 1_555 1_555
C40 C39 1_555 1_555
H23 C40 1_555 1_555
C41 C40 1_555 1_555
H24 C41 1_555 1_555
C42 N12 1_555 1_555
C43 C44 1_555 1_555
C44 H25 1_555 1_555
C45 C44 1_555 1_555
H26 C45 1_555 1_555
C46 C45 1_555 1_555
H27 C46 1_555 1_555
C47 C46 1_555 1_555
H28 C47 1_555 1_555
C48 C43 1_555 1_555
C49 N13 1_555 1_555
C50 C49 1_555 1_555
C51 N15 1_555 1_555
C52 C51 1_555 1_555
H29 C52 1_555 1_555
C53 C52 1_555 1_555
H30 C53 1_555 1_555
C54 C53 1_555 1_555
H31 C54 1_555 1_555
C55 C54 1_555 1_555
H32 C55 1_555 1_555
C56 N16 1_555 1_555
C57 C58 1_555 1_555
C58 H33 1_555 1_555
C59 C58 1_555 1_555
H34 C59 1_555 1_555
C60 C59 1_555 1_555
H35 C60 1_555 1_555
C61 C60 1_555 1_555
H36 C61 1_555 1_555
C62 C57 1_555 1_555
C63 N17 1_555 1_555
C64 N19 1_555 1_555
C65 N19 1_555 1_555
C66 C65 1_555 1_555
H37 C66 1_555 1_555
C67 C66 1_555 1_555
H38 C67 1_555 1_555
C68 C67 1_555 1_555
H39 C68 1_555 1_555
C69 C68 1_555 1_555
H40 C69 1_555 1_555
C70 N20 1_555 1_555
C71 N21 1_555 1_555
C72 C71 1_555 1_555
H41 C72 1_555 1_555
C73 C72 1_555 1_555
H42 C73 1_555 1_555
C74 C73 1_555 1_555
H43 C74 1_555 1_555
C75 C74 1_555 1_555
H44 C75 1_555 1_555
C76 C71 1_555 1_555
C77 N21 1_555 1_555
C78 N23 1_555 1_555
C79 N23 1_555 1_555
C80 C79 1_555 1_555
H45 C80 1_555 1_555
C81 C80 1_555 1_555
H46 C81 1_555 1_555
C82 C81 1_555 1_555
H47 C82 1_555 1_555
C83 C82 1_555 1_555
H48 C83 1_555 1_555
C84 N24 1_555 1_555
C85 H49 1_555 1_555
H50 C85 1_555 1_555
C86 C85 1_555 1_555
H51 C86 1_555 1_555
H52 C86 1_555 1_555
H53 C86 1_555 1_555
O1 C85 1_555 1_555
H54 O1 1_555 1_555
Zn2C N6 1_555 1_555
Zn3C N13 1_555 1_555
Zn3_2 N17 1_555 1_555
N6C Zn2 1_555 1_555
N7C Zn2 1_555 1_555
N13C Zn3 1_555 1_555
N16C Zn3 1_555 1_555
N17_2 Zn3 1_555 1_555
N20_2 Zn3 1_555 1_555
N2 C7 1_555 1_555
N6 C21 1_555 1_555
N7 Zn2C 1_555 1_555
N10 C35 1_555 1_555
N14 C49 1_555 1_555
N16 Zn3C 1_555 1_555
N18 C63 1_555 1_555
N20 Zn3_2 1_555 1_555
N22 C77 1_555 1_555
N24 C78 1_555 1_555
C5 C6 1_555 1_555
C7 C8 1_555 1_555
C9 C14 1_555 1_555
C13 C14 1_555 1_555
C19 C20 1_555 1_555
C21 C22 1_555 1_555
C23 C28 1_555 1_555
C27 C28 1_555 1_555
C33 C34 1_555 1_555
C35 C36 1_555 1_555
C37 C42 1_555 1_555
C41 C42 1_555 1_555
C47 C48 1_555 1_555
C51 C56 1_555 1_555
C55 C56 1_555 1_555
C61 C62 1_555 1_555
C63 C64 1_555 1_555
C65 C70 1_555 1_555
C69 C70 1_555 1_555
C75 C76 1_555 1_555
C77 C78 1_555 1_555
C79 C84 1_555 1_555
C83 C84 1_555 1_555

#END
