
#######################################################################
#
#                 Cambridge Crystallographic Data Centre
#                                CCDC 
#
#######################################################################
#
# If this CIF has been generated from an entry in the Cambridge 
# Structural Database, then it will include bibliographic, chemical, 
# crystal, experimental, refinement or atomic coordinate data resulting 
# from the CCDC's data processing and validation procedures.
#
#######################################################################

data_NAGFIM
_symmetry_cell_setting           monoclinic
_symmetry_space_group_name_H-M   'P 21/n'
_symmetry_Int_Tables_number      14
_space_group_name_Hall           '-P 2yn'
loop_
_symmetry_equiv_pos_site_id
_symmetry_equiv_pos_as_xyz
1 x,y,z
2 1/2-x,1/2+y,1/2-z
3 -x,-y,-z
4 1/2+x,1/2-y,1/2+z
_cell_length_a                   14.012(5)
_cell_length_b                   21.882(5)
_cell_length_c                   24.170(5)
_cell_angle_alpha                90
_cell_angle_beta                 99.631(5)
_cell_angle_gamma                90
_cell_volume                     7306.33
loop_
_atom_site_label
_atom_site_type_symbol
_atom_site_fract_x
_atom_site_fract_y
_atom_site_fract_z
Gd1 Gd -0.18699(5) 0.04165(3) 0.17914(3)
Gd2 Gd 0.21312(5) -0.15140(3) 0.35827(3)
W1 W 0.32028(4) -0.39640(2) 0.06766(2)
W2 W 0.09249(4) -0.31933(3) 0.00699(2)
W3 W 0.48672(4) -0.21895(3) 0.00571(2)
W4 W 0.31052(5) -0.30072(3) -0.05939(2)
W5 W 0.32084(4) -0.33328(3) 0.19252(2)
W6 W 0.08648(4) -0.26168(3) 0.13328(2)
W7 W 0.51155(4) -0.31780(2) 0.13038(2)
W8 W 0.48550(4) -0.15056(2) 0.14457(2)
W9 W 0.07401(4) -0.17175(2) 0.02310(2)
W10 W 0.28469(4) -0.15543(2) -0.04893(2)
W11 W 0.29161(4) -0.16560(3) 0.20013(2)
W12 W 0.28734(4) -0.08303(2) 0.08957(2)
N1 N -0.1248(8) 0.1476(5) 0.1899(4)
N2 N 0.1911(7) 0.1607(5) -0.0248(4)
O1 O 0.2990(8) -0.3473(4) -0.1171(4)
O2 O -0.0178(6) -0.1236(4) -0.0051(4)
O4 O 0.0205(6) -0.1964(4) 0.0874(4)
O5 O 0.3495(6) -0.3034(4) 0.1080(3)
O7 O 0.3359(6) -0.2298(3) 0.0063(3)
O8 O 0.2712(6) -0.2247(4) -0.0965(3)
O9 O 0.3056(7) -0.4056(4) 0.1449(4)
O10 O 0.4600(6) -0.3919(4) 0.0938(4)
O11 O 0.5173(6) -0.2840(4) 0.0581(3)
O12 O 0.1597(6) -0.1172(4) 0.0670(3)
O13 O 0.3329(6) -0.1732(4) 0.1184(3)
O14 O 0.4211(6) -0.0728(4) 0.1168(4)
O15 O 0.4973(6) -0.1645(4) 0.0663(3)
O16 O 0.3399(6) -0.3599(4) -0.0014(4)
O17 O 0.3169(7) -0.4728(4) 0.0506(4)
O18 O 0.2598(6) -0.0868(4) 0.1664(4)
O19 O 0.4432(6) -0.2811(4) -0.0530(4)
O20 O 0.4587(6) -0.3407(4) 0.1961(3)
O21 O 0.1873(6) -0.3157(4) 0.1646(3)
O22 O 0.1894(7) -0.3732(4) 0.0478(3)
O23 O 0.1603(6) -0.1670(4) -0.0308(3)
O24 O 0.4303(6) -0.1442(3) 0.2104(3)
O25 O 0.5144(6) -0.2343(4) 0.1555(4)
O26 O 0.1695(6) -0.2458(4) 0.0604(3)
O27 O 0.3323(6) -0.2499(4) 0.2134(3)
O28 O 0.2719(7) -0.1464(4) 0.2678(3)
O29 O 0.0077(7) -0.2704(5) 0.1787(4)
O30 O 0.4235(6) -0.1547(4) -0.0456(4)
O31 O 0.0142(7) -0.3718(4) -0.0278(4)
O32 O 0.1706(6) -0.1980(4) 0.1712(4)
O33 O 0.0228(6) -0.2468(4) -0.0144(3)
O34 O 0.5949(6) -0.2084(4) -0.0174(4)
O35 O 0.5940(6) -0.1175(4) 0.1695(4)
O36 O 0.0367(6) -0.3190(4) 0.0774(4)
O37 O 0.3083(6) -0.1043(4) 0.0172(3)
O38 O 0.6279(7) -0.3412(4) 0.1517(4)
O39 O 0.3111(7) -0.3667(4) 0.2551(4)
O40 O -0.3182(8) 0.2051(6) 0.2504(5)
O41 O -0.0486(7) 0.0622(4) 0.1365(4)
O42 O 0.2639(8) 0.0923(5) 0.1536(4)
O43 O 0.2708(12) -0.0835(6) 0.4405(5)
O44 O 0.3897(8) -0.1439(6) 0.3707(4)
O45 O 0.0768(12) -0.1170(9) 0.4022(7)
O46 O 0.0532(7) 0.0076(4) 0.0608(4)
O47 O 0.0886(9) -0.2281(6) 0.3722(5)
O48 O 0.2054(6) 0.1975(4) 0.0787(4)
O49 O -0.3527(8) 0.0022(5) 0.1469(5)
O50 O 0.2481(9) -0.2513(5) 0.3228(4)
O51 O -0.2212(11) -0.0372(6) 0.2435(5)
O52 O 0.1656(9) 0.0453(5) -0.1267(4)
O53 O 0.3461(6) 0.0966(4) 0.0475(4)
O54 O 0.0730(6) 0.1235(5) 0.1220(4)
O55 O 0.2263(7) 0.2952(4) 0.0564(4)
O56 O -0.2775(7) 0.1111(6) 0.2270(4)
O57 O 0.0748(8) -0.1460(5) 0.2812(4)
O58 O 0.2092(9) -0.0449(5) 0.3301(5)
O59 O 0.1677(7) 0.0419(4) -0.0332(4)
O60 O 0.2608(6) -0.0993(4) -0.0992(3)
O61 O 0.2582(6) -0.0063(4) 0.0789(3)
O62 O 0.1799(6) -0.3059(4) -0.0417(3)
C1 C -0.0649(13) 0.2680(7) 0.1938(7)
H5 H -0.0460 0.3101 0.1922
C2 C 0.2130(11) 0.2352(7) -0.1128(7)
H6 H 0.2173 0.2602 -0.1450
C3 C -0.2616(11) 0.1689(8) 0.2323(6)
C4 C 0.1740(11) 0.0687(7) -0.0789(6)
C5 C -0.0126(11) 0.2257(7) 0.1682(6)
H7 H 0.0401 0.2392 0.1505
C6 C 0.1910(10) 0.1374(6) -0.0760(6)
C7 C -0.1417(11) 0.2508(6) 0.2179(7)
H8 H -0.1677 0.2842 0.2364
C8 C 0.2139(10) 0.2591(6) -0.0606(5)
H9 H 0.2197 0.3024 -0.0548
C9 C 0.2004(10) 0.1740(7) -0.1217(6)
H10 H 0.1992 0.1574 -0.1573
C10 C 0.2044(9) 0.2213(6) -0.0181(5)
C11 C 0.2106(10) 0.2410(6) 0.0440(5)
C12 C -0.0028(10) 0.1127(6) 0.1390(5)
O63 O -0.0501(10) 0.0339(9) 0.2532(6)
C13 C -0.1761(10) 0.1901(7) 0.2138(6)
C14 C -0.0477(10) 0.1649(6) 0.1667(5)
Gd3 Gd 0.17344(5) 0.09009(3) 0.05659(3)
Gd1B Gd 0.18699(5) -0.04165(3) -0.17914(3)
Gd2A Gd 0.28688(5) 0.34860(3) 0.14173(3)
O2B O 0.0178(6) 0.1236(4) 0.0051(4)
O52B O -0.1656(9) -0.0453(5) 0.1267(4)
O55A O 0.2737(7) -0.2048(4) 0.4436(4)
O60B O -0.2608(6) 0.0993(4) 0.0992(3)
Gd3B Gd -0.17344(5) -0.09009(3) -0.05659(3)
O3 O -0.6181(11) -0.3303(8) -0.2204(6)
H1 H -0.6626 -0.3516 -0.2055
H2 H -0.6368 -0.3056 -0.2500
O6 O -0.3556(12) -0.4934(8) -0.2743(6)
H3 H -0.3457 -0.5330 -0.2650
H4 H -0.3791 -0.4829 -0.3099
O64 O -0.0389(12) -0.0110(8) 0.3550(6)
H11 H -0.0698 -0.0347 0.3768
H12 H 0.0213 0.0026 0.3680
O65 O -0.0228(13) -0.4311(8) -0.1925(7)
H13 H 0.0131 -0.4579 -0.1696
H14 H -0.0054 -0.4208 -0.2254
O66 O -0.4655(12) -0.4041(8) -0.3245(7)
H15 H -0.4819 -0.4433 -0.3321
H16 H -0.4824 -0.3751 -0.3508
O67 O -0.4733(15) -0.1868(9) -0.2059(7)
H17 H -0.5079 -0.1670 -0.1833
H18 H -0.4762 -0.1746 -0.2417
O68 O -0.4053(11) -0.0089(7) 0.0260(6)
H19 H -0.4679 -0.0121 0.0100
H20 H -0.3705 -0.0428 0.0364
O69 O -0.1280(16) -0.4029(11) 0.0555(9)
H21 H -0.1240 -0.4421 0.0668
H22 H -0.1041 -0.3730 0.0795
O70 O -0.4985(15) -0.0915(13) -0.1393(8)
H23 H -0.4457 -0.1131 -0.1245
H24 H -0.5540 -0.1111 -0.1531
O71 O -0.406(3) -0.0225(13) -0.2088(15)
H25 H -0.3501 -0.0408 -0.1931
H26 H -0.4444 -0.0405 -0.2376
O72 O -0.099(2) -0.5416(13) -0.1475(18)
H27 H -0.1456 -0.5573 -0.1739
H28 H -0.0540 -0.5663 -0.1282
O73 O 0.179(2) -0.4578(16) -0.1675(16)
H29 H 0.1514 -0.4743 -0.2003
H30 H 0.2229 -0.4794 -0.1437
O74 O -0.424(2) -0.4204(16) 0.0079(10)
H31 H -0.3666 -0.4365 0.0230
H32 H -0.4777 -0.4439 0.0032
loop_
_geom_bond_atom_site_label_1
_geom_bond_atom_site_label_2
_geom_bond_site_symmetry_1
_geom_bond_site_symmetry_2
Gd1 N1 1_555 1_555
Gd2 O28 1_555 1_555
W1 O5 1_555 1_555
W2 O22 1_555 1_555
W3 W4 1_555 1_555
W4 W10 1_555 1_555
W5 O5 1_555 1_555
W6 O4 1_555 1_555
W7 O5 1_555 1_555
W8 W12 1_555 1_555
W9 O2 1_555 1_555
W10 W3 1_555 1_555
W11 W12 1_555 1_555
W12 O12 1_555 1_555
N1 C13 1_555 1_555
N2 C6 1_555 1_555
O1 W4 1_555 1_555
O2 Gd3B 1_555 1_555
O3 H1 1_555 1_555
H2 O3 1_555 1_555
O4 W9 1_555 1_555
O6 H3 1_555 1_555
H4 O6 1_555 1_555
O7 W3 1_555 1_555
O8 W4 1_555 1_555
O9 W1 1_555 1_555
O10 W1 1_555 1_555
O11 W3 1_555 1_555
O12 W9 1_555 1_555
O13 W8 1_555 1_555
O14 W8 1_555 1_555
O15 W3 1_555 1_555
O16 W1 1_555 1_555
O17 W1 1_555 1_555
O18 W11 1_555 1_555
O19 W3 1_555 1_555
O20 W5 1_555 1_555
O21 W5 1_555 1_555
O22 W1 1_555 1_555
O23 W9 1_555 1_555
O24 W8 1_555 1_555
O25 W7 1_555 1_555
O26 W2 1_555 1_555
O27 W5 1_555 1_555
O28 W11 1_555 1_555
O29 W6 1_555 1_555
O30 W3 1_555 1_555
O31 W2 1_555 1_555
O32 W6 1_555 1_555
O33 W2 1_555 1_555
O34 W3 1_555 1_555
O35 W8 1_555 1_555
O36 W2 1_555 1_555
O37 W10 1_555 1_555
O38 W7 1_555 1_555
O39 W5 1_555 1_555
O40 C3 1_555 1_555
O41 Gd1 1_555 1_555
O42 Gd3 1_555 1_555
O43 Gd2 1_555 1_555
O44 Gd2 1_555 1_555
O45 Gd2 1_555 1_555
O46 Gd3 1_555 1_555
O47 Gd2 1_555 1_555
O48 C11 1_555 1_555
O49 Gd1 1_555 1_555
O50 Gd2 1_555 1_555
O51 Gd1 1_555 1_555
O52 C4 1_555 1_555
O53 Gd3 1_555 1_555
O54 C12 1_555 1_555
O55 C11 1_555 1_555
O56 Gd1 1_555 1_555
O57 Gd2 1_555 1_555
O58 Gd2 1_555 1_555
O59 C4 1_555 1_555
O60 W10 1_555 1_555
O61 W12 1_555 1_555
O62 W2 1_555 1_555
C1 H5 1_555 1_555
C2 H6 1_555 1_555
C3 O56 1_555 1_555
C4 C6 1_555 1_555
C5 C1 1_555 1_555
H7 C5 1_555 1_555
C6 C9 1_555 1_555
C7 C1 1_555 1_555
H8 C7 1_555 1_555
C8 C2 1_555 1_555
H9 C8 1_555 1_555
C9 C2 1_555 1_555
H10 C9 1_555 1_555
C10 N2 1_555 1_555
C11 C10 1_555 1_555
C12 O41 1_555 1_555
O63 Gd1 1_555 1_555
O64 H11 1_555 1_555
H12 O64 1_555 1_555
O65 H13 1_555 1_555
H14 O65 1_555 1_555
O66 H15 1_555 1_555
H16 O66 1_555 1_555
C13 C3 1_555 1_555
C14 N1 1_555 1_555
O67 H17 1_555 1_555
H18 O67 1_555 1_555
Gd3 N2 1_555 1_555
O68 H19 1_555 1_555
H20 O68 1_555 1_555
O69 H21 1_555 1_555
H22 O69 1_555 1_555
O70 H23 1_555 1_555
H24 O70 1_555 1_555
O71 H25 1_555 1_555
H26 O71 1_555 1_555
O72 H27 1_555 1_555
H28 O72 1_555 1_555
O73 H29 1_555 1_555
H30 O73 1_555 1_555
O74 H31 1_555 1_555
H32 O74 1_555 1_555
Gd1B O52 1_555 1_555
Gd2A O55 1_555 1_555
O2B Gd3 1_555 1_555
O52B Gd1 1_555 1_555
O55A Gd2 1_555 1_555
O60B Gd1 1_555 1_555
W4 O7 1_555 1_555
W4 O16 1_555 1_555
W4 O19 1_555 1_555
W4 O62 1_555 1_555
W5 O9 1_555 1_555
W6 O21 1_555 1_555
W6 O26 1_555 1_555
W6 O36 1_555 1_555
W7 O10 1_555 1_555
W7 O11 1_555 1_555
W7 O20 1_555 1_555
W8 O15 1_555 1_555
W8 O25 1_555 1_555
W9 O26 1_555 1_555
W9 O33 1_555 1_555
W10 O7 1_555 1_555
W10 O8 1_555 1_555
W10 O23 1_555 1_555
W10 O30 1_555 1_555
W11 O13 1_555 1_555
W11 O24 1_555 1_555
W11 O27 1_555 1_555
W11 O32 1_555 1_555
W12 O13 1_555 1_555
W12 O14 1_555 1_555
W12 O18 1_555 1_555
W12 O37 1_555 1_555
O48 Gd3 1_555 1_555
O54 Gd3 1_555 1_555
O59 Gd3 1_555 1_555
O60 Gd1B 1_555 1_555
O61 Gd3 1_555 1_555
C5 C14 1_555 1_555
C7 C13 1_555 1_555
C8 C10 1_555 1_555
C12 C14 1_555 1_555

#END
