
#######################################################################
#
#                 Cambridge Crystallographic Data Centre
#                                CCDC 
#
#######################################################################
#
# If this CIF has been generated from an entry in the Cambridge 
# Structural Database, then it will include bibliographic, chemical, 
# crystal, experimental, refinement or atomic coordinate data resulting 
# from the CCDC's data processing and validation procedures.
#
#######################################################################

data_NAGKAH
_symmetry_cell_setting           triclinic
_symmetry_space_group_name_H-M   'P -1'
_symmetry_Int_Tables_number      2
_space_group_name_Hall           '-P 1'
loop_
_symmetry_equiv_pos_site_id
_symmetry_equiv_pos_as_xyz
1 x,y,z
2 -x,-y,-z
_cell_length_a                   5.5990(10)
_cell_length_b                   9.8370(10)
_cell_length_c                   12.6240(10)
_cell_angle_alpha                81.850(10)
_cell_angle_beta                 79.790(10)
_cell_angle_gamma                75.000(10)
_cell_volume                     657.599
loop_
_atom_site_label
_atom_site_type_symbol
_atom_site_fract_x
_atom_site_fract_y
_atom_site_fract_z
Sn1 Sn 0.0000 0.0000 0.0000
P1 P 0.3959(2) 0.06762(12) 0.17418(9)
O1 O 0.1804(7) 0.0331(4) 0.1350(3)
O2 O 0.3724(7) -0.0721(4) -0.0952(3)
C1 C 0.0272(11) -0.2100(5) 0.0765(5)
H1 H 0.2009(11) -0.2612(5) 0.0629(5)
H2 H -0.0148(11) -0.2042(5) 0.1539(5)
C2 C -0.1273(20) -0.2974(8) 0.0461(8)
H3 H -0.084(11) -0.3915(26) 0.0818(54)
H4 H -0.096(12) -0.3012(73) -0.0308(11)
H5 H -0.3011(21) -0.2558(49) 0.0678(60)
C3 C 0.0511(6) 0.2758(4) 0.2875(3)
C4 C -0.0365(6) 0.4096(4) 0.3234(3)
C5 C 0.1101(8) 0.5074(3) 0.2972(4)
C6 C 0.3443(8) 0.4715(3) 0.2352(4)
C7 C 0.4319(5) 0.3378(4) 0.1993(3)
C8 C 0.2853(6) 0.2400(3) 0.2255(3)
H6 H -0.0507(8) 0.2079(5) 0.3057(5)
H7 H -0.1992(7) 0.4345(6) 0.3665(5)
H8 H 0.0491(11) 0.6003(4) 0.3221(5)
H9 H 0.4461(10) 0.5395(5) 0.2170(5)
H10 H 0.5946(7) 0.3129(6) 0.1562(5)
C9 C 0.3478(9) -0.1642(5) 0.3247(4)
C10 C 0.4049(10) -0.2573(5) 0.4154(4)
C11 C 0.5881(10) -0.2438(5) 0.4717(3)
C12 C 0.7142(9) -0.1372(6) 0.4374(4)
C13 C 0.6571(9) -0.0441(5) 0.3468(4)
C14 C 0.4739(7) -0.0576(4) 0.2904(3)
H11 H 0.2206(13) -0.1736(8) 0.2856(5)
H12 H 0.3174(15) -0.3313(7) 0.4392(6)
H13 H 0.6278(13) -0.3084(6) 0.5347(4)
H14 H 0.8415(13) -0.1278(8) 0.4766(5)
H15 H 0.7447(13) 0.0299(7) 0.3229(5)
O2A O 0.6276(7) 0.0721(4) 0.0952(3)
Sn1A Sn 1.0000 0.0000 0.0000
O1A O 0.8196(7) -0.0331(4) -0.1350(3)
P1A P 0.6041(2) -0.06762(12) -0.17418(9)
O1A_2 O -0.1804(7) -0.0331(4) -0.1350(3)
O2A_2 O -0.3724(7) 0.0721(4) 0.0952(3)
C1A C -0.0272(11) 0.2100(5) -0.0765(5)
H1A H -0.2009(11) 0.2612(5) -0.0629(5)
H2A H 0.0148(11) 0.2042(5) -0.1539(5)
C2A C 0.1273(20) 0.2974(8) -0.0461(8)
H3A H 0.084(11) 0.3915(26) -0.0818(54)
H4A H 0.096(12) 0.3012(73) 0.0308(11)
H5A H 0.3011(21) 0.2558(49) -0.0678(60)
C8A C 0.7147(6) -0.2400(3) -0.2255(3)
C3A C 0.9489(6) -0.2758(4) -0.2875(3)
C4A C 1.0365(6) -0.4096(4) -0.3234(3)
C5A C 0.8899(8) -0.5074(3) -0.2972(4)
C6A C 0.6557(8) -0.4715(3) -0.2352(4)
C7A C 0.5681(5) -0.3378(4) -0.1993(3)
H10A H 0.4054(7) -0.3129(6) -0.1562(5)
H9A H 0.5539(10) -0.5395(5) -0.2170(5)
H8A H 0.9509(11) -0.6003(4) -0.3221(5)
H7A H 1.1992(7) -0.4345(6) -0.3665(5)
H6A H 1.0507(8) -0.2079(5) -0.3057(5)
C14A C 0.5261(7) 0.0576(4) -0.2904(3)
C9A C 0.6522(9) 0.1642(5) -0.3247(4)
C10A C 0.5951(10) 0.2573(5) -0.4154(4)
C11A C 0.4119(10) 0.2438(5) -0.4717(3)
C12A C 0.2858(9) 0.1372(6) -0.4374(4)
C13A C 0.3429(9) 0.0441(5) -0.3468(4)
H15A H 0.2553(13) -0.0299(7) -0.3229(5)
H14A H 0.1585(13) 0.1278(8) -0.4766(5)
H13A H 0.3722(13) 0.3084(6) -0.5347(4)
H12A H 0.6826(15) 0.3313(7) -0.4392(6)
H11A H 0.7794(13) 0.1736(8) -0.2856(5)
loop_
_geom_bond_atom_site_label_1
_geom_bond_atom_site_label_2
_geom_bond_site_symmetry_1
_geom_bond_site_symmetry_2
Sn1 O1 1_555 1_555
P1 O1 1_555 1_555
O2 Sn1 1_555 1_555
C1 Sn1 1_555 1_555
H1 C1 1_555 1_555
H2 C1 1_555 1_555
C2 C1 1_555 1_555
H3 C2 1_555 1_555
H4 C2 1_555 1_555
H5 C2 1_555 1_555
C3 C4 1_555 1_555
C4 C5 1_555 1_555
C5 C6 1_555 1_555
C6 C7 1_555 1_555
C7 C8 1_555 1_555
C8 P1 1_555 1_555
H6 C3 1_555 1_555
H7 C4 1_555 1_555
H8 C5 1_555 1_555
H9 C6 1_555 1_555
H10 C7 1_555 1_555
C9 C10 1_555 1_555
C10 C11 1_555 1_555
C11 C12 1_555 1_555
C12 C13 1_555 1_555
C13 C14 1_555 1_555
C14 P1 1_555 1_555
H11 C9 1_555 1_555
H12 C10 1_555 1_555
H13 C11 1_555 1_555
H14 C12 1_555 1_555
H15 C13 1_555 1_555
O2A P1 1_555 1_555
Sn1A O2A 1_555 1_555
O1A Sn1A 1_555 1_555
P1A O2 1_555 1_555
O1A_2 Sn1 1_555 1_555
O2A_2 Sn1 1_555 1_555
C1A Sn1 1_555 1_555
H1A C1A 1_555 1_555
H2A C1A 1_555 1_555
C2A C1A 1_555 1_555
H3A C2A 1_555 1_555
H4A C2A 1_555 1_555
H5A C2A 1_555 1_555
C8A P1A 1_555 1_555
C3A C8A 1_555 1_555
C4A C3A 1_555 1_555
C5A C4A 1_555 1_555
C6A C5A 1_555 1_555
C7A C8A 1_555 1_555
H10A C7A 1_555 1_555
H9A C6A 1_555 1_555
H8A C5A 1_555 1_555
H7A C4A 1_555 1_555
H6A C3A 1_555 1_555
C14A P1A 1_555 1_555
C9A C14A 1_555 1_555
C10A C9A 1_555 1_555
C11A C10A 1_555 1_555
C12A C11A 1_555 1_555
C13A C14A 1_555 1_555
H15A C13A 1_555 1_555
H14A C12A 1_555 1_555
H13A C11A 1_555 1_555
H12A C10A 1_555 1_555
H11A C9A 1_555 1_555
C3 C8 1_555 1_555
C9 C14 1_555 1_555
O1A P1A 1_555 1_555
C6A C7A 1_555 1_555
C12A C13A 1_555 1_555

#END
