
#######################################################################
#
#                 Cambridge Crystallographic Data Centre
#                                CCDC 
#
#######################################################################
#
# If this CIF has been generated from an entry in the Cambridge 
# Structural Database, then it will include bibliographic, chemical, 
# crystal, experimental, refinement or atomic coordinate data resulting 
# from the CCDC's data processing and validation procedures.
#
#######################################################################

data_NAGLAK
_symmetry_cell_setting           monoclinic
_symmetry_space_group_name_H-M   'P 21/c'
_symmetry_Int_Tables_number      14
_space_group_name_Hall           '-P 2ybc'
loop_
_symmetry_equiv_pos_site_id
_symmetry_equiv_pos_as_xyz
1 x,y,z
2 -x,1/2+y,1/2-z
3 -x,-y,-z
4 x,1/2-y,1/2+z
_cell_length_a                   9.0755(3)
_cell_length_b                   21.5983(6)
_cell_length_c                   21.3201(6)
_cell_angle_alpha                90
_cell_angle_beta                 94.081(1)
_cell_angle_gamma                90
_cell_volume                     4168.47
loop_
_atom_site_label
_atom_site_type_symbol
_atom_site_fract_x
_atom_site_fract_y
_atom_site_fract_z
C1 C 0.5805(3) 0.53737(12) 0.56522(13)
H1 H 0.5883 0.5744 0.5434
C2 C 0.6916(3) 0.49206(13) 0.57072(14)
H2 H 0.7834 0.4938 0.5540
C3 C 0.6385(3) 0.44488(12) 0.60556(13)
H3 H 0.6879 0.4085 0.6171
C4 C 0.4937(3) 0.46179(11) 0.62079(12)
C5 C 0.3928(3) 0.42730(11) 0.65285(12)
C6 C 0.2489(3) 0.44461(11) 0.66297(12)
C7 C 0.1440(3) 0.41230(13) 0.69730(13)
H4 H 0.1590 0.3746 0.7179
C8 C 0.0169(3) 0.44687(14) 0.69444(14)
H5 H -0.0706 0.4373 0.7125
C9 C 0.0458(3) 0.49991(13) 0.65859(13)
H6 H -0.0221 0.5314 0.6494
C10 C 0.4431(3) 0.36469(12) 0.67724(12)
C11 C 0.3675(3) 0.31124(12) 0.65767(13)
H7 H 0.2831 0.3144 0.6304
C12 C 0.6178(3) 0.30201(13) 0.73967(13)
H8 H 0.7016 0.2989 0.7673
C13 C 0.5423(3) 0.24941(12) 0.71945(12)
C14 C 0.4167(3) 0.25284(13) 0.67842(13)
H9 H 0.3664 0.2172 0.6651
C15 C 0.5680(3) 0.35943(12) 0.71860(12)
H10 H 0.6186 0.3949 0.7323
C16 C 0.6164(3) 0.17366(12) 0.80242(12)
H11 H 0.5913 0.1983 0.8358
C17 C 0.6439(4) 0.14090(14) 0.70634(14)
H12 H 0.6430 0.1383 0.6628
C18 C 0.6919(3) 0.09784(13) 0.74833(13)
H13 H 0.7302 0.0595 0.7380
C19 C 0.4131(4) 0.70565(14) 0.47310(15)
H14 H 0.5077 0.7066 0.4963
H15 H 0.3735 0.7469 0.4699
H16 H 0.4240 0.6895 0.4317
C20 C 0.3099(3) 0.66501(11) 0.50655(12)
C21 C 0.1625(3) 0.65773(12) 0.48180(12)
C22 C 0.0540(3) 0.62427(12) 0.51268(13)
C23 C -0.1019(3) 0.62202(15) 0.48402(15)
H17 H -0.1043 0.6001 0.4448
H18 H -0.1376 0.6634 0.4768
H19 H -0.1633 0.6011 0.5122
C24 C 0.1213(4) 0.68447(13) 0.42182(14)
N1 N 0.4624(2) 0.52070(9) 0.59513(10)
N2 N 0.1831(2) 0.49918(9) 0.63955(10)
N3 N 0.5959(3) 0.19013(10) 0.74137(11)
N4 N 0.6767(3) 0.11803(10) 0.80894(11)
N5 N 0.0909(4) 0.70607(13) 0.37349(13)
O1 O 0.3630(2) 0.63918(8) 0.55638(9)
O2 O 0.0805(2) 0.59576(9) 0.56348(9)
Cu1 Cu 0.27834(4) 0.568009(14) 0.599383(15)
N4A N 0.3233(3) 0.61803(10) 0.69106(11)
Cu1A Cu 0.72166(4) 0.068009(14) 0.900617(15)
C25 C 0.2530(3) 0.47188(13) 0.87769(15)
H20 H 0.2656 0.5137 0.8872
C26 C 0.3615(3) 0.43437(14) 0.85287(16)
H21 H 0.4555 0.4466 0.8432
C27 C 0.3026(3) 0.37680(13) 0.84569(13)
H22 H 0.3489 0.3421 0.8304
C28 C 0.1567(3) 0.37965(11) 0.86590(11)
C29 C 0.0524(3) 0.33278(11) 0.86561(11)
C30 C -0.0906(3) 0.33838(11) 0.88515(11)
C31 C -0.1957(3) 0.29011(12) 0.89015(12)
H23 H -0.1818 0.2483 0.8818
C32 C -0.3217(3) 0.31700(13) 0.90960(14)
H24 H -0.4099 0.2971 0.9165
C33 C -0.2915(3) 0.38037(13) 0.91695(13)
H25 H -0.3589 0.4094 0.9298
C34 C 0.0906(3) 0.27151(11) 0.83738(11)
C35 C 0.0364(3) 0.25934(12) 0.77586(12)
H26 H -0.0205 0.2890 0.7538
C36 C 0.0656(3) 0.20426(12) 0.74740(12)
H27 H 0.0304 0.1971 0.7060
C37 C 0.1479(3) 0.15923(11) 0.78051(12)
C38 C 0.2035(4) 0.17057(13) 0.84154(13)
H28 H 0.2592 0.1405 0.8636
C39 C 0.1756(4) 0.22686(13) 0.86957(13)
H29 H 0.2144 0.2347 0.9103
C40 C 0.0849(3) 0.07401(12) 0.70534(12)
H30 H -0.0080 0.0890 0.6918
C41 C 0.3001(3) 0.06563(13) 0.75738(14)
H31 H 0.3824 0.0721 0.7851
C42 C 0.2782(3) 0.01890(12) 0.71561(14)
H32 H 0.3460 -0.0125 0.7097
C43 C 0.0996(4) 0.65733(13) 0.94720(14)
H33 H 0.1993 0.6422 0.9502
H34 H 0.0840 0.6828 0.9831
H35 H 0.0828 0.6814 0.9095
C44 C -0.0057(3) 0.60366(12) 0.94535(12)
C45 C -0.1570(3) 0.61379(12) 0.95430(12)
C46 C -0.2642(3) 0.56615(12) 0.95517(12)
C47 C -0.4186(4) 0.58249(15) 0.96922(18)
H36 H -0.4809 0.5468 0.9630
H37 H -0.4547 0.6151 0.9416
H38 H -0.4194 0.5961 1.0120
C48 C -0.2029(4) 0.67585(13) 0.96601(13)
N6 N 0.1299(2) 0.44017(9) 0.88588(10)
N7 N -0.1537(2) 0.39384(9) 0.90312(10)
N8 N 0.1750(3) 0.10150(10) 0.75017(10)
N9 N 0.1434(3) 0.02389(10) 0.68315(10)
N10 N -0.2403(3) 0.72548(12) 0.97487(13)
O3 O 0.0480(2) 0.55135(8) 0.93472(9)
O4 O -0.2375(2) 0.51008(8) 0.94511(9)
Cu2 Cu -0.05916(4) 0.475275(13) 0.908582(15)
N9A N -0.1434(3) 0.52389(10) 0.81685(10)
Cu2A Cu 0.05916(4) -0.024725(13) 0.591418(15)
loop_
_geom_bond_atom_site_label_1
_geom_bond_atom_site_label_2
_geom_bond_site_symmetry_1
_geom_bond_site_symmetry_2
C1 H1 1_555 1_555
C2 C1 1_555 1_555
H2 C2 1_555 1_555
C3 C2 1_555 1_555
H3 C3 1_555 1_555
C4 C3 1_555 1_555
C5 C4 1_555 1_555
C6 C5 1_555 1_555
C7 C6 1_555 1_555
H4 C7 1_555 1_555
C8 C7 1_555 1_555
H5 C8 1_555 1_555
C9 C8 1_555 1_555
H6 C9 1_555 1_555
C10 C5 1_555 1_555
C11 C10 1_555 1_555
H7 C11 1_555 1_555
C12 H8 1_555 1_555
C13 C12 1_555 1_555
C14 C11 1_555 1_555
H9 C14 1_555 1_555
C15 C10 1_555 1_555
H10 C15 1_555 1_555
C16 H11 1_555 1_555
C17 H12 1_555 1_555
C18 C17 1_555 1_555
H13 C18 1_555 1_555
C19 H14 1_555 1_555
H15 C19 1_555 1_555
H16 C19 1_555 1_555
C20 C19 1_555 1_555
C21 C20 1_555 1_555
C22 C21 1_555 1_555
C23 C22 1_555 1_555
H17 C23 1_555 1_555
H18 C23 1_555 1_555
H19 C23 1_555 1_555
C24 C21 1_555 1_555
N1 C1 1_555 1_555
N2 C6 1_555 1_555
N3 C13 1_555 1_555
N4 C16 1_555 1_555
N5 C24 1_555 1_555
O1 C20 1_555 1_555
O2 C22 1_555 1_555
Cu1 N1 1_555 1_555
C25 H20 1_555 1_555
C26 C25 1_555 1_555
H21 C26 1_555 1_555
C27 C26 1_555 1_555
H22 C27 1_555 1_555
C28 C27 1_555 1_555
C29 C28 1_555 1_555
C30 C29 1_555 1_555
C31 C30 1_555 1_555
H23 C31 1_555 1_555
C32 C31 1_555 1_555
H24 C32 1_555 1_555
C33 C32 1_555 1_555
H25 C33 1_555 1_555
C34 C29 1_555 1_555
C35 C34 1_555 1_555
H26 C35 1_555 1_555
C36 C35 1_555 1_555
H27 C36 1_555 1_555
C37 C36 1_555 1_555
C38 C37 1_555 1_555
H28 C38 1_555 1_555
C39 C34 1_555 1_555
H29 C39 1_555 1_555
C40 H30 1_555 1_555
C41 H31 1_555 1_555
C42 C41 1_555 1_555
H32 C42 1_555 1_555
C43 H33 1_555 1_555
H34 C43 1_555 1_555
H35 C43 1_555 1_555
C44 C43 1_555 1_555
C45 C44 1_555 1_555
C46 C45 1_555 1_555
C47 C46 1_555 1_555
H36 C47 1_555 1_555
H37 C47 1_555 1_555
H38 C47 1_555 1_555
C48 C45 1_555 1_555
N6 C25 1_555 1_555
N7 C30 1_555 1_555
N8 C37 1_555 1_555
N9 C40 1_555 1_555
N10 C48 1_555 1_555
O3 C44 1_555 1_555
O4 C46 1_555 1_555
Cu2 N6 1_555 1_555
N4A Cu1 1_555 1_555
Cu1A N4 1_555 1_555
N9A Cu2 1_555 1_555
Cu2A N9 1_555 1_555
C4 N1 1_555 1_555
C9 N2 1_555 1_555
C12 C15 1_555 1_555
C13 C14 1_555 1_555
C16 N3 1_555 1_555
C17 N3 1_555 1_555
C18 N4 1_555 1_555
N2 Cu1 1_555 1_555
O1 Cu1 1_555 1_555
O2 Cu1 1_555 1_555
C28 N6 1_555 1_555
C33 N7 1_555 1_555
C38 C39 1_555 1_555
C40 N8 1_555 1_555
C41 N8 1_555 1_555
C42 N9 1_555 1_555
N7 Cu2 1_555 1_555
O3 Cu2 1_555 1_555
O4 Cu2 1_555 1_555

#END
