
#######################################################################
#
#                 Cambridge Crystallographic Data Centre
#                                CCDC 
#
#######################################################################
#
# If this CIF has been generated from an entry in the Cambridge 
# Structural Database, then it will include bibliographic, chemical, 
# crystal, experimental, refinement or atomic coordinate data resulting 
# from the CCDC's data processing and validation procedures.
#
#######################################################################

data_NAGNUF
_symmetry_cell_setting           orthorhombic
_symmetry_space_group_name_H-M   'P 21 21 2'
_symmetry_Int_Tables_number      18
_space_group_name_Hall           'P 2 2ab'
loop_
_symmetry_equiv_pos_site_id
_symmetry_equiv_pos_as_xyz
1 x,y,z
2 -x,-y,z
3 1/2-x,1/2+y,-z
4 1/2+x,1/2-y,-z
_cell_length_a                   14.882(3)
_cell_length_b                   23.802(5)
_cell_length_c                   12.366(2)
_cell_angle_alpha                90
_cell_angle_beta                 90
_cell_angle_gamma                90
_cell_volume                     4380.3
loop_
_atom_site_label
_atom_site_type_symbol
_atom_site_fract_x
_atom_site_fract_y
_atom_site_fract_z
Sn1 Sn 0.68472(3) 0.85277(2) -0.01499(4)
Sn2 Sn 1.17646(3) 0.85691(2) -0.53363(4)
N1 N 1.0403(4) 0.8480(3) -0.4015(5)
N2 N 0.5584(4) 0.8498(4) 0.1195(5)
O1 O 0.8005(4) 0.8550(3) -0.1210(5)
O2 O 0.7646(4) 0.7772(3) -0.2111(5)
O3 O 0.2774(3) 0.8636(3) 0.3415(4)
O4 O 0.3814(4) 0.8478(3) 0.4635(4)
C1 C 0.8116(6) 0.8177(4) -0.1939(6)
C2 C 0.8939(5) 0.8280(4) -0.2672(7)
C3 C 0.9052(6) 0.7975(3) -0.3587(7)
H1 H 0.8643 0.7697 -0.3775
C4 C 0.9790(6) 0.8085(4) -0.4237(8)
H2 H 0.9864 0.7872 -0.4862
C5 C 1.0269(6) 0.8779(4) -0.3150(8)
H3 H 1.0677 0.9063 -0.2994
C6 C 0.9550(6) 0.8699(4) -0.2442(9)
H4 H 0.9485 0.8923 -0.1830
C7 C 0.7171(6) 0.7710(4) 0.0457(7)
C8 C 0.8052(8) 0.7562(5) 0.0627(8)
H5 H 0.8502 0.7830 0.0551
C9 C 0.8272(11) 0.7016(7) 0.0909(9)
H6 H 0.8866 0.6920 0.1051
C10 C 0.7653(12) 0.6645(7) 0.0974(12)
H7 H 0.7822 0.6277 0.1123
C11 C 0.6804(12) 0.6749(5) 0.0844(11)
H8 H 0.6374 0.6468 0.0921
C12 C 0.6562(7) 0.7300(4) 0.0585(8)
H9 H 0.5956 0.7386 0.0499
C13 C 0.5866(5) 0.8623(5) -0.1386(6)
C14 C 0.5538(8) 0.9148(6) -0.1610(12)
H10 H 0.5702 0.9458 -0.1195
C15 C 0.4938(10) 0.9203(8) -0.2497(14)
H11 H 0.4719 0.9561 -0.2647
C16 C 0.4684(12) 0.8817(8) -0.3083(14)
H12 H 0.4270 0.8881 -0.3633
C17 C 0.4997(8) 0.8335(7) -0.2922(10)
H13 H 0.4826 0.8044 -0.3381
C18 C 0.5614(7) 0.8213(6) -0.2046(10)
H14 H 0.5831 0.7850 -0.1948
C19 C 0.7278(5) 0.9291(3) 0.0583(7)
C20 C 0.7915(7) 0.9629(4) -0.0022(9)
H15 H 0.8108 0.9504 -0.0696
C21 C 0.8252(10) 1.0146(5) 0.0387(11)
H16 H 0.8671 1.0354 0.0000
C22 C 0.7938(11) 1.0327(5) 0.1373(12)
H17 H 0.8116 1.0675 0.1637
C23 C 0.7353(9) 0.9994(6) 0.1982(12)
H18 H 0.7166 1.0115 0.2661
C24 C 0.7050(8) 0.9483(5) 0.1581(9)
H19 H 0.6677 0.9264 0.2013
C25 C 0.3560(5) 0.8547(4) 0.3719(6)
C26 C 0.4277(4) 0.8522(4) 0.2803(5)
C27 C 0.5119(5) 0.8336(4) 0.3025(6)
H20 H 0.5269 0.8214 0.3716
C28 C 0.5743(6) 0.8330(5) 0.2208(7)
H21 H 0.6316 0.8200 0.2371
C29 C 0.4778(5) 0.8671(4) 0.1009(6)
H22 H 0.4650 0.8806 0.0320
C30 C 0.4085(5) 0.8669(4) 0.1763(7)
H23 H 0.3503 0.8766 0.1562
C31 C 1.2093(5) 0.7748(3) -0.4789(7)
C32 C 1.2669(6) 0.7637(4) -0.3933(7)
H24 H 1.2922 0.7934 -0.3551
C33 C 1.2867(7) 0.7101(5) -0.3648(8)
H25 H 1.3247 0.7041 -0.3063
C34 C 1.2542(8) 0.6660(5) -0.4169(9)
H26 H 1.2708 0.6298 -0.3967
C35 C 1.1947(7) 0.6746(4) -0.5025(10)
H27 H 1.1687 0.6438 -0.5366
C36 C 1.1734(6) 0.7294(3) -0.5381(7)
H28 H 1.1372 0.7353 -0.5983
C37 C 1.0766(5) 0.8656(3) -0.6558(6)
C38 C 1.0856(6) 0.8388(4) -0.7550(8)
H29 H 1.1337 0.8147 -0.7673
C39 C 1.0242(7) 0.8480(5) -0.8332(8)
H30 H 1.0282 0.8270 -0.8965
C40 C 0.9573(8) 0.8859(6) -0.8246(10)
H31 H 0.9197 0.8933 -0.8830
C41 C 0.9458(7) 0.9126(6) -0.7315(12)
H32 H 0.8971 0.9366 -0.7226
C42 C 1.0074(7) 0.9048(5) -0.6452(10)
H33 H 1.0018 0.9257 -0.5821
C43 C 1.2042(5) 0.9315(3) -0.4468(7)
C44 C 1.2477(7) 0.9318(4) -0.3482(9)
H34 H 1.2684 0.8983 -0.3185
C45 C 1.2604(8) 0.9813(5) -0.2941(10)
H35 H 1.2901 0.9801 -0.2279
C46 C 1.2325(8) 1.0315(5) -0.3306(11)
H36 H 1.2453 1.0644 -0.2930
C47 C 1.1837(10) 1.0326(5) -0.4269(11)
H37 H 1.1578 1.0658 -0.4517
C48 C 1.1747(7) 0.9826(4) -0.4849(7)
H38 H 1.1475 0.9839 -0.5525
O3_2 O 1.2774(3) 0.8636(3) -0.6585(4)
Sn2_2 Sn 0.17646(3) 0.85691(2) 0.46637(4)
O5 O 0.4162(7) 0.0200(4) 0.4672(6)
H39 H 0.4266 0.0448 0.4111
H40 H 0.4136 0.0341 0.5367
loop_
_geom_bond_atom_site_label_1
_geom_bond_atom_site_label_2
_geom_bond_site_symmetry_1
_geom_bond_site_symmetry_2
Sn1 N2 1_555 1_555
Sn2 N1 1_555 1_555
N1 C4 1_555 1_555
N2 C28 1_555 1_555
O1 Sn1 1_555 1_555
O2 C1 1_555 1_555
O3 C25 1_555 1_555
O4 C25 1_555 1_555
O5 H39 1_555 1_555
C1 O1 1_555 1_555
C2 C1 1_555 1_555
C3 C2 1_555 1_555
H1 C3 1_555 1_555
C4 C3 1_555 1_555
H2 C4 1_555 1_555
C5 N1 1_555 1_555
H3 C5 1_555 1_555
C6 C2 1_555 1_555
H4 C6 1_555 1_555
C7 Sn1 1_555 1_555
C8 C7 1_555 1_555
H5 C8 1_555 1_555
C9 C8 1_555 1_555
H6 C9 1_555 1_555
C10 C9 1_555 1_555
H7 C10 1_555 1_555
C11 C10 1_555 1_555
H8 C11 1_555 1_555
C12 C7 1_555 1_555
H9 C12 1_555 1_555
C13 Sn1 1_555 1_555
C14 C13 1_555 1_555
H10 C14 1_555 1_555
C15 C14 1_555 1_555
H11 C15 1_555 1_555
C16 C15 1_555 1_555
H12 C16 1_555 1_555
C17 C16 1_555 1_555
H13 C17 1_555 1_555
C18 C13 1_555 1_555
H14 C18 1_555 1_555
C19 Sn1 1_555 1_555
C20 C19 1_555 1_555
H15 C20 1_555 1_555
C21 C20 1_555 1_555
H16 C21 1_555 1_555
C22 C21 1_555 1_555
H17 C22 1_555 1_555
C23 C22 1_555 1_555
H18 C23 1_555 1_555
C24 C19 1_555 1_555
H19 C24 1_555 1_555
C25 C26 1_555 1_555
C26 C27 1_555 1_555
C27 H20 1_555 1_555
C28 C27 1_555 1_555
H21 C28 1_555 1_555
C29 N2 1_555 1_555
H22 C29 1_555 1_555
C30 C26 1_555 1_555
H23 C30 1_555 1_555
C31 Sn2 1_555 1_555
C32 C31 1_555 1_555
H24 C32 1_555 1_555
C33 C32 1_555 1_555
H25 C33 1_555 1_555
C34 C33 1_555 1_555
H26 C34 1_555 1_555
C35 C34 1_555 1_555
H27 C35 1_555 1_555
C36 C31 1_555 1_555
H28 C36 1_555 1_555
C37 Sn2 1_555 1_555
C38 C37 1_555 1_555
H29 C38 1_555 1_555
C39 C38 1_555 1_555
H30 C39 1_555 1_555
C40 C39 1_555 1_555
H31 C40 1_555 1_555
C41 C40 1_555 1_555
H32 C41 1_555 1_555
C42 C37 1_555 1_555
H33 C42 1_555 1_555
C43 Sn2 1_555 1_555
C44 C43 1_555 1_555
H34 C44 1_555 1_555
C45 C44 1_555 1_555
H35 C45 1_555 1_555
C46 C45 1_555 1_555
H36 C46 1_555 1_555
C47 C46 1_555 1_555
H37 C47 1_555 1_555
C48 C43 1_555 1_555
H38 C48 1_555 1_555
H40 O5 1_555 1_555
O3_2 Sn2 1_555 1_555
Sn2_2 O3 1_555 1_555
C5 C6 1_555 1_555
C11 C12 1_555 1_555
C17 C18 1_555 1_555
C23 C24 1_555 1_555
C29 C30 1_555 1_555
C35 C36 1_555 1_555
C41 C42 1_555 1_555
C47 C48 1_555 1_555

#END
