
#######################################################################
#
#                 Cambridge Crystallographic Data Centre
#                                CCDC 
#
#######################################################################
#
# If this CIF has been generated from an entry in the Cambridge 
# Structural Database, then it will include bibliographic, chemical, 
# crystal, experimental, refinement or atomic coordinate data resulting 
# from the CCDC's data processing and validation procedures.
#
#######################################################################

data_NAGYIE
_symmetry_cell_setting           monoclinic
_symmetry_space_group_name_H-M   'C 2'
_symmetry_Int_Tables_number      5
_space_group_name_Hall           'C 2y'
loop_
_symmetry_equiv_pos_site_id
_symmetry_equiv_pos_as_xyz
1 x,y,z
2 -x,y,-z
3 1/2+x,1/2+y,z
4 1/2-x,1/2+y,-z
_cell_length_a                   34.6314(9)
_cell_length_b                   10.2182(2)
_cell_length_c                   8.3801(2)
_cell_angle_alpha                90
_cell_angle_beta                 91.780(2)
_cell_angle_gamma                90
_cell_volume                     2964.04
loop_
_atom_site_label
_atom_site_type_symbol
_atom_site_fract_x
_atom_site_fract_y
_atom_site_fract_z
Ag1 Ag 0.0000 0.86326(7) -1.0000
O1 O 0.26464(12) 0.7124(4) -1.0464(5)
O2 O 0.33695(13) 0.4937(5) -0.8802(5)
N1 N 0.05529(13) 0.7310(5) -1.0496(6)
N2 N 0.47609(14) 0.4489(6) -0.2327(6)
C1 C 0.08912(18) 0.7736(7) -0.9898(8)
H1 H 0.0893 0.8497 -0.9246
C2 C 0.12376(18) 0.7130(7) -1.0174(7)
H2 H 0.1470 0.7460 -0.9698
C3 C 0.0887(2) 0.5632(8) -1.1827(11)
H3 H 0.0875 0.4912 -1.2545
C4 C 0.05558(19) 0.6292(7) -1.1433(8)
H4 H 0.0316 0.5987 -1.1871
C5 C 0.1246(2) 0.6049(7) -1.1138(9)
C6 C 0.1611(2) 0.5385(7) -1.1560(7)
H5 H 0.1592 0.4519 -1.1966
C7 C 0.19588(19) 0.5903(7) -1.1415(7)
H6 H 0.1970 0.6749 -1.0945
C8 C 0.23291(18) 0.5358(6) -1.1878(7)
C9 C 0.23585(19) 0.4217(6) -1.2733(7)
H7 H 0.2129 0.3758 -1.3031
C10 C 0.27176(15) 0.3697(10) -1.3187(5)
C11 C 0.2750(2) 0.2542(7) -1.4070(7)
H8 H 0.2522 0.2073 -1.4378
C12 C 0.3098(2) 0.2081(7) -1.4495(8)
H9 H 0.3113 0.1284 -1.5073
C13 C 0.3438(2) 0.2780(8) -1.4081(8)
H10 H 0.3680 0.2459 -1.4412
C14 C 0.34251(19) 0.3903(8) -1.3219(6)
H11 H 0.3657 0.4359 -1.2952
C15 C 0.30616(18) 0.4402(6) -1.2711(6)
C16 C 0.30341(17) 0.5556(6) -1.1768(6)
C17 C 0.26754(18) 0.6009(6) -1.1406(6)
C18 C 0.2590(2) 0.8299(6) -1.1368(8)
H12 H 0.2569 0.9044 -1.0639
H13 H 0.2353 0.8226 -1.2029
H14 H 0.2811 0.8433 -1.2056
C19 C 0.3168(2) 0.5443(7) -0.7482(8)
H15 H 0.3049 0.4721 -0.6905
H16 H 0.2967 0.6049 -0.7869
H17 H 0.3349 0.5908 -0.6762
C20 C 0.33879(17) 0.6234(6) -1.1137(7)
C21 C 0.35677(18) 0.7227(7) -1.2042(7)
C22 C 0.34260(19) 0.7618(8) -1.3578(7)
H18 H 0.3211 0.7177 -1.4057
C23 C 0.35949(19) 0.8617(14) -1.4372(8)
H19 H 0.3493 0.8864 -1.5394
C24 C 0.3912(2) 0.9284(9) -1.3726(10)
H20 H 0.4022 0.9997 -1.4280
C25 C 0.4063(2) 0.8895(11) -1.2281(8)
H21 H 0.4288 0.9321 -1.1863
C26 C 0.38983(19) 0.7891(7) -1.1390(8)
C27 C 0.40543(19) 0.7435(9) -0.9900(8)
H22 H 0.4286 0.7832 -0.9500
C28 C 0.35497(19) 0.5887(7) -0.9674(7)
C29 C 0.3896(2) 0.6466(9) -0.8997(9)
C30 C 0.4073(2) 0.5918(15) -0.7594(11)
H23 H 0.3995 0.5031 -0.7499
C31 C 0.4290(4) 0.619(2) -0.6474(13)
H24 H 0.4389 0.7062 -0.6463
C32 C 0.4413(3) 0.5401(18) -0.5209(11)
C33 C 0.4538(4) 0.6190(14) -0.4033(15)
H25 H 0.4505 0.7108 -0.4156
C34 C 0.4713(2) 0.5732(8) -0.2663(9)
H26 H 0.4805 0.6355 -0.1902
C35 C 0.4459(2) 0.4060(13) -0.4863(8)
H27 H 0.4367 0.3428 -0.5614
C36 C 0.46357(15) 0.3647(12) -0.3442(6)
H28 H 0.4669 0.2736 -0.3259
O1A O -0.26464(12) 0.7124(4) -0.9536(5)
O2A O -0.33695(13) 0.4937(5) -1.1198(5)
N1A N -0.05529(13) 0.7310(5) -0.9504(6)
N2A N -0.47609(14) 0.4489(6) -1.7673(6)
C1A C -0.08912(18) 0.7736(7) -1.0102(8)
H1A H -0.0893 0.8497 -1.0754
C2A C -0.12376(18) 0.7130(7) -0.9826(7)
H2A H -0.1470 0.7460 -1.0302
C3A C -0.0887(2) 0.5632(8) -0.8173(11)
H3A H -0.0875 0.4912 -0.7455
C4A C -0.05558(19) 0.6292(7) -0.8567(8)
H4A H -0.0316 0.5987 -0.8129
C5A C -0.1246(2) 0.6049(7) -0.8862(9)
C6A C -0.1611(2) 0.5385(7) -0.8440(7)
H5A H -0.1592 0.4519 -0.8034
C7A C -0.19588(19) 0.5903(7) -0.8585(7)
H6A H -0.1970 0.6749 -0.9055
C8A C -0.23291(18) 0.5358(6) -0.8122(7)
C9A C -0.23585(19) 0.4217(6) -0.7267(7)
H7A H -0.2129 0.3758 -0.6969
C10A C -0.27176(15) 0.3697(10) -0.6813(5)
C11A C -0.2750(2) 0.2542(7) -0.5930(7)
H8A H -0.2522 0.2073 -0.5622
C12A C -0.3098(2) 0.2081(7) -0.5505(8)
H9A H -0.3113 0.1284 -0.4927
C13A C -0.3438(2) 0.2780(8) -0.5919(8)
H10A H -0.3680 0.2459 -0.5588
C14A C -0.34251(19) 0.3903(8) -0.6781(6)
H11A H -0.3657 0.4359 -0.7048
C15A C -0.30616(18) 0.4402(6) -0.7289(6)
C16A C -0.30341(17) 0.5556(6) -0.8232(6)
C17A C -0.26754(18) 0.6009(6) -0.8594(6)
C18A C -0.2590(2) 0.8299(6) -0.8632(8)
H12A H -0.2569 0.9044 -0.9361
H13A H -0.2353 0.8226 -0.7971
H14A H -0.2811 0.8433 -0.7944
C19A C -0.3168(2) 0.5443(7) -1.2518(8)
H15A H -0.3049 0.4721 -1.3095
H16A H -0.2967 0.6049 -1.2131
H17A H -0.3349 0.5908 -1.3238
C20A C -0.33879(17) 0.6234(6) -0.8863(7)
C21A C -0.35677(18) 0.7227(7) -0.7958(7)
C22A C -0.34260(19) 0.7618(8) -0.6422(7)
H18A H -0.3211 0.7177 -0.5943
C23A C -0.35949(19) 0.8617(14) -0.5628(8)
H19A H -0.3493 0.8864 -0.4606
C24A C -0.3912(2) 0.9284(9) -0.6274(10)
H20A H -0.4022 0.9997 -0.5720
C25A C -0.4063(2) 0.8895(11) -0.7719(8)
H21A H -0.4288 0.9321 -0.8137
C26A C -0.38983(19) 0.7891(7) -0.8610(8)
C27A C -0.40543(19) 0.7435(9) -1.0100(8)
H22A H -0.4286 0.7832 -1.0500
C28A C -0.35497(19) 0.5887(7) -1.0326(7)
C29A C -0.3896(2) 0.6466(9) -1.1003(9)
C30A C -0.4073(2) 0.5918(15) -1.2406(11)
H23A H -0.3995 0.5031 -1.2501
C31A C -0.4290(4) 0.619(2) -1.3526(13)
H24A H -0.4389 0.7062 -1.3537
C32A C -0.4413(3) 0.5401(18) -1.4791(11)
C33A C -0.4538(4) 0.6190(14) -1.5967(15)
H25A H -0.4505 0.7108 -1.5844
C34A C -0.4713(2) 0.5732(8) -1.7337(9)
H26A H -0.4805 0.6355 -1.8098
C35A C -0.4459(2) 0.4060(13) -1.5137(8)
H27A H -0.4367 0.3428 -1.4386
C36A C -0.46357(15) 0.3647(12) -1.6558(6)
H28A H -0.4669 0.2736 -1.6741
N2B N -0.02391(14) 0.9489(6) -1.2327(6)
N2C N 0.02391(14) 0.9489(6) -0.7673(6)
Ag1B Ag 0.5000 0.36326(7) 0.0000
Ag1B_2 Ag -0.5000 0.36326(7) -2.0000
Cl1 Cl 0.0000 1.4758(3) -1.5000
O3 O 0.0272(2) 1.5586(8) -1.5745(10)
O4 O -0.0195(2) 1.3961(5) -1.6149(8)
O3A O -0.0272(2) 1.5586(8) -1.4255(10)
O4A O 0.0195(2) 1.3961(5) -1.3851(8)
loop_
_geom_bond_atom_site_label_1
_geom_bond_atom_site_label_2
_geom_bond_site_symmetry_1
_geom_bond_site_symmetry_2
Ag1 N1 1_555 1_555
Cl1 O3 1_555 1_555
O1 C17 1_555 1_555
O2 C19 1_555 1_555
O4 Cl1 1_555 1_555
N1 C1 1_555 1_555
N2 C34 1_555 1_555
C1 H1 1_555 1_555
C2 C1 1_555 1_555
H2 C2 1_555 1_555
C3 H3 1_555 1_555
C4 N1 1_555 1_555
H4 C4 1_555 1_555
C5 C2 1_555 1_555
C6 C5 1_555 1_555
H5 C6 1_555 1_555
C7 C6 1_555 1_555
H6 C7 1_555 1_555
C8 C7 1_555 1_555
C9 C8 1_555 1_555
H7 C9 1_555 1_555
C10 C9 1_555 1_555
C11 C10 1_555 1_555
H8 C11 1_555 1_555
C12 C11 1_555 1_555
H9 C12 1_555 1_555
C13 C12 1_555 1_555
H10 C13 1_555 1_555
C14 C13 1_555 1_555
H11 C14 1_555 1_555
C15 C10 1_555 1_555
C16 C15 1_555 1_555
C17 C8 1_555 1_555
C18 O1 1_555 1_555
H12 C18 1_555 1_555
H13 C18 1_555 1_555
H14 C18 1_555 1_555
C19 H15 1_555 1_555
H16 C19 1_555 1_555
H17 C19 1_555 1_555
C20 C16 1_555 1_555
C21 C20 1_555 1_555
C22 C21 1_555 1_555
H18 C22 1_555 1_555
C23 C22 1_555 1_555
H19 C23 1_555 1_555
C24 C23 1_555 1_555
H20 C24 1_555 1_555
C25 C24 1_555 1_555
H21 C25 1_555 1_555
C26 C21 1_555 1_555
C27 C26 1_555 1_555
H22 C27 1_555 1_555
C28 O2 1_555 1_555
C29 C27 1_555 1_555
C30 C29 1_555 1_555
H23 C30 1_555 1_555
C31 C30 1_555 1_555
H24 C31 1_555 1_555
C32 C31 1_555 1_555
C33 C32 1_555 1_555
H25 C33 1_555 1_555
C34 C33 1_555 1_555
H26 C34 1_555 1_555
C35 C32 1_555 1_555
H27 C35 1_555 1_555
C36 N2 1_555 1_555
H28 C36 1_555 1_555
O3A Cl1 1_555 1_555
O4A Cl1 1_555 1_555
O1A C17A 1_555 1_555
O2A C19A 1_555 1_555
N1A Ag1 1_555 1_555
N2A C34A 1_555 1_555
C1A N1A 1_555 1_555
H1A C1A 1_555 1_555
C2A C1A 1_555 1_555
H2A C2A 1_555 1_555
C3A H3A 1_555 1_555
C4A N1A 1_555 1_555
H4A C4A 1_555 1_555
C5A C2A 1_555 1_555
C6A C5A 1_555 1_555
H5A C6A 1_555 1_555
C7A C6A 1_555 1_555
H6A C7A 1_555 1_555
C8A C7A 1_555 1_555
C9A C8A 1_555 1_555
H7A C9A 1_555 1_555
C10A C9A 1_555 1_555
C11A C10A 1_555 1_555
H8A C11A 1_555 1_555
C12A C11A 1_555 1_555
H9A C12A 1_555 1_555
C13A C12A 1_555 1_555
H10A C13A 1_555 1_555
C14A C13A 1_555 1_555
H11A C14A 1_555 1_555
C15A C10A 1_555 1_555
C16A C15A 1_555 1_555
C17A C8A 1_555 1_555
C18A O1A 1_555 1_555
H12A C18A 1_555 1_555
H13A C18A 1_555 1_555
H14A C18A 1_555 1_555
C19A H15A 1_555 1_555
H16A C19A 1_555 1_555
H17A C19A 1_555 1_555
C20A C16A 1_555 1_555
C21A C20A 1_555 1_555
C22A C21A 1_555 1_555
H18A C22A 1_555 1_555
C23A C22A 1_555 1_555
H19A C23A 1_555 1_555
C24A C23A 1_555 1_555
H20A C24A 1_555 1_555
C25A C24A 1_555 1_555
H21A C25A 1_555 1_555
C26A C21A 1_555 1_555
C27A C26A 1_555 1_555
H22A C27A 1_555 1_555
C28A O2A 1_555 1_555
C29A C27A 1_555 1_555
C30A C29A 1_555 1_555
H23A C30A 1_555 1_555
C31A C30A 1_555 1_555
H24A C31A 1_555 1_555
C32A C31A 1_555 1_555
C33A C32A 1_555 1_555
H25A C33A 1_555 1_555
C34A C33A 1_555 1_555
H26A C34A 1_555 1_555
C35A C32A 1_555 1_555
H27A C35A 1_555 1_555
C36A N2A 1_555 1_555
H28A C36A 1_555 1_555
N2B Ag1 1_555 1_555
N2C Ag1 1_555 1_555
Ag1B N2 1_555 1_555
Ag1B_2 N2A 1_555 1_555
C3 C4 1_555 1_555
C3 C5 1_555 1_555
C14 C15 1_555 1_555
C16 C17 1_555 1_555
C20 C28 1_555 1_555
C25 C26 1_555 1_555
C28 C29 1_555 1_555
C35 C36 1_555 1_555
C3A C4A 1_555 1_555
C3A C5A 1_555 1_555
C14A C15A 1_555 1_555
C16A C17A 1_555 1_555
C20A C28A 1_555 1_555
C25A C26A 1_555 1_555
C28A C29A 1_555 1_555
C35A C36A 1_555 1_555

#END
