
#######################################################################
#
#                 Cambridge Crystallographic Data Centre
#                                CCDC 
#
#######################################################################
#
# If this CIF has been generated from an entry in the Cambridge 
# Structural Database, then it will include bibliographic, chemical, 
# crystal, experimental, refinement or atomic coordinate data resulting 
# from the CCDC's data processing and validation procedures.
#
#######################################################################

data_NAHGOS
_symmetry_cell_setting           monoclinic
_symmetry_space_group_name_H-M   'P 21/n'
_symmetry_Int_Tables_number      14
_space_group_name_Hall           '-P 2yn'
loop_
_symmetry_equiv_pos_site_id
_symmetry_equiv_pos_as_xyz
1 x,y,z
2 1/2-x,1/2+y,1/2-z
3 -x,-y,-z
4 1/2+x,1/2-y,1/2+z
_cell_length_a                   5.7335(51)
_cell_length_b                   13.2058(16)
_cell_length_c                   14.2534(80)
_cell_angle_alpha                90
_cell_angle_beta                 93.722(58)
_cell_angle_gamma                90
_cell_volume                     1076.93
loop_
_atom_site_label
_atom_site_type_symbol
_atom_site_fract_x
_atom_site_fract_y
_atom_site_fract_z
Na1 Na 0.2148(1) 0.99124(6) 0.92521(6)
O1 O 0.2124(3) 1.0951(1) 0.7920(1)
O2 O -0.1427(3) 0.9216(1) 0.9391(1)
O3 O 0.4945(3) 0.8783(1) 0.8909(1)
N1 N -0.1592(3) 1.3415(1) 1.2495(1)
C1 C -0.0343(4) 1.2630(2) 1.3094(1)
C2 C -0.2141(5) 1.2170(2) 1.3716(2)
C3 C 0.1627(5) 1.3139(2) 1.3703(2)
C4 C 0.0596(4) 1.1800(2) 1.2468(2)
C5 C 0.1929(4) 1.2204(2) 1.1652(1)
C6 C 0.2901(4) 1.1327(2) 1.1073(1)
C7 C 0.0206(4) 1.2847(2) 1.1049(2)
C8 C -0.0836(4) 1.3747(2) 1.1559(1)
C9 C 0.0900(5) 1.4616(2) 1.1722(2)
C10 C -0.3006(5) 1.4119(2) 1.0983(2)
H1 H -0.374(4) 1.185(2) 1.331(2)
H2 H -0.275(4) 1.270(2) 1.410(1)
H3 H -0.137(4) 1.163(2) 1.409(1)
H4 H 0.104(4) 1.372(2) 1.403(1)
H5 H 0.233(4) 1.261(2) 1.416(1)
H6 H 0.303(4) 1.338(2) 1.335(2)
H7 H -0.074(3) 1.136(1) 1.220(1)
H8 H 0.164(3) 1.136(2) 1.291(1)
H9 H 0.336(3) 1.261(1) 1.188(1)
H10 H -0.118(3) 1.236(2) 1.079(1)
H11 H 0.090(3) 1.312(1) 1.055(1)
H12 H 0.117(4) 1.496(2) 1.114(1)
H13 H 0.243(4) 1.442(2) 1.201(1)
H14 H 0.020(4) 1.517(2) 1.212(1)
H15 H -0.258(3) 1.431(2) 1.040(1)
H16 H -0.368(3) 1.471(2) 1.127(1)
H17 H -0.424(3) 1.356(2) 1.092(1)
Na1C Na -0.2852(1) 1.50876(6) 1.42521(6)
O1C O -0.2876(3) 1.4049(1) 1.2920(1)
O2B O 0.1427(3) 1.0784(1) 1.0609(1)
Na1B Na -0.2148(1) 1.00876(6) 1.07479(6)
O3B O 0.5055(3) 1.1217(1) 1.1091(1)
Na1B_2 Na 0.7852(1) 1.00876(6) 1.07479(6)
loop_
_geom_bond_atom_site_label_1
_geom_bond_atom_site_label_2
_geom_bond_site_symmetry_1
_geom_bond_site_symmetry_2
Na1 O1 1_555 1_555
O2 Na1 1_555 1_555
O3 Na1 1_555 1_555
N1 C1 1_555 1_555
C1 C2 1_555 1_555
C2 H1 1_555 1_555
C3 C1 1_555 1_555
C4 C1 1_555 1_555
C5 C4 1_555 1_555
C6 C5 1_555 1_555
C7 C5 1_555 1_555
C8 N1 1_555 1_555
C9 C8 1_555 1_555
C10 C8 1_555 1_555
H2 C2 1_555 1_555
H3 C2 1_555 1_555
H4 C3 1_555 1_555
H5 C3 1_555 1_555
H6 C3 1_555 1_555
H7 C4 1_555 1_555
H8 C4 1_555 1_555
H9 C5 1_555 1_555
H10 C7 1_555 1_555
H11 C7 1_555 1_555
H12 C9 1_555 1_555
H13 C9 1_555 1_555
H14 C9 1_555 1_555
H15 C10 1_555 1_555
H16 C10 1_555 1_555
H17 C10 1_555 1_555
Na1C O1C 1_555 1_555
O1C N1 1_555 1_555
O2B Na1 1_555 1_555
Na1B O2 1_555 1_555
O3B C6 1_555 1_555
Na1B_2 O3B 1_555 1_555
C6 O2B 1_555 1_555
C7 C8 1_555 1_555
O2B Na1B 1_555 1_555

#END
