
#######################################################################
#
#                 Cambridge Crystallographic Data Centre
#                                CCDC 
#
#######################################################################
#
# If this CIF has been generated from an entry in the Cambridge 
# Structural Database, then it will include bibliographic, chemical, 
# crystal, experimental, refinement or atomic coordinate data resulting 
# from the CCDC's data processing and validation procedures.
#
#######################################################################

data_NAHLUF
_symmetry_cell_setting           monoclinic
_symmetry_space_group_name_H-M   'P 21'
_symmetry_Int_Tables_number      4
_space_group_name_Hall           'P 2yb'
loop_
_symmetry_equiv_pos_site_id
_symmetry_equiv_pos_as_xyz
1 x,y,z
2 -x,1/2+y,-z
_cell_length_a                   10.3765(7)
_cell_length_b                   23.1054(15)
_cell_length_c                   11.1193(8)
_cell_angle_alpha                90
_cell_angle_beta                 109.150(2)
_cell_angle_gamma                90
_cell_volume                     2518.37
loop_
_atom_site_label
_atom_site_type_symbol
_atom_site_fract_x
_atom_site_fract_y
_atom_site_fract_z
Cr1 Cr 0.60874(5) 0.96840(3) 0.03282(5)
Ni1 Ni 0.06377(4) 1.08839(3) -0.29410(4)
Ni2 Ni 1.13727(4) 0.84553(3) 0.35427(4)
C1 C 0.3248(3) 0.98764(13) -0.1806(3)
C2 C 0.8903(3) 0.94677(14) 0.2472(3)
C3 C 0.7284(3) 1.09467(14) 0.0577(3)
C4 C 0.4753(3) 1.00798(15) 0.2344(4)
C5 C 0.7407(3) 0.92699(15) -0.1700(4)
C6 C 0.4903(3) 0.84260(17) 0.0130(3)
C7 C 0.3336(3) 1.12907(15) -0.1961(3)
C8 C 0.2897(3) 1.12078(15) -0.0814(3)
C9 C 0.1085(4) 1.0888(2) -0.0059(4)
C10 C -0.0096(4) 1.04662(18) -0.0499(4)
C11 C -0.1299(4) 1.06389(17) -0.1659(4)
C12 C -0.2237(3) 1.05532(18) -0.4003(4)
C13 C -0.1925(4) 1.0359(2) -0.5197(4)
C14 C -0.1139(4) 1.07737(17) -0.5764(4)
C15 C 0.1206(4) 1.10771(16) -0.5247(3)
C16 C 0.2492(3) 1.12146(15) -0.4184(3)
C17 C 0.3756(4) 1.13568(18) -0.4286(4)
C18 C 0.4827(4) 1.14772(19) -0.3148(5)
C19 C 0.4636(3) 1.14571(15) -0.1999(4)
C20 C 0.3872(4) 1.13680(18) 0.0462(4)
C21 C 0.1123(5) 1.1171(2) -0.6594(4)
C22 C -0.1188(3) 1.20219(14) -0.3254(3)
C23 C 0.8713(4) 0.80161(15) 0.2657(4)
C24 C 0.9098(4) 0.80979(16) 0.1468(4)
C25 C 1.0880(5) 0.8434(2) 0.0678(4)
C26 C 1.2080(5) 0.8860(2) 0.1086(5)
C27 C 1.3295(4) 0.8697(2) 0.2227(4)
C28 C 1.4274(4) 0.8758(2) 0.4574(4)
C29 C 1.4026(4) 0.8958(2) 0.5805(4)
C30 C 1.3228(4) 0.85480(17) 0.6366(5)
C31 C 1.0915(4) 0.82286(17) 0.5905(4)
C32 C 0.9593(3) 0.80786(16) 0.4835(4)
C33 C 0.8371(4) 0.7910(2) 0.4998(5)
C34 C 0.7289(4) 0.7794(2) 0.3883(5)
C35 C 0.7432(4) 0.78342(17) 0.2697(4)
C36 C 0.8200(5) 0.7897(2) 0.0214(4)
C37 C 1.1003(6) 0.8117(2) 0.7246(4)
N1 N 0.4328(3) 0.98843(13) -0.1054(3)
N2 N 0.7844(3) 0.94792(13) 0.1706(3)
N3 N 0.6800(3) 1.04952(13) 0.0390(3)
N4 N 0.5243(3) 0.99221(14) 0.1635(3)
N5 N 0.6934(3) 0.94496(14) -0.0975(3)
N6 N 0.5390(3) 0.88814(12) 0.0299(3)
N7 N 0.2342(3) 1.11863(12) -0.3045(3)
N8 N 0.1698(3) 1.09999(13) -0.1057(3)
N9 N -0.1039(3) 1.04788(14) -0.2850(3)
N10 N 0.0229(3) 1.08972(14) -0.4885(3)
N11 N -0.0304(4) 1.16899(15) -0.3044(3)
N12 N 0.9711(3) 0.81335(14) 0.3697(3)
N13 N 1.0303(3) 0.83330(14) 0.1694(3)
N14 N 1.3069(3) 0.88420(14) 0.3444(3)
N15 N 1.1858(3) 0.84166(14) 0.5530(3)
S1 S 0.17299(9) 0.98465(5) -0.28842(10)
S2 S 1.04002(9) 0.94666(5) 0.35952(11)
S3 S 0.79303(10) 1.15931(5) 0.07901(11)
S4 S 0.40608(13) 1.03135(6) 0.33835(13)
S5 S 0.80777(13) 0.90342(6) -0.27301(13)
S6 S 0.42056(10) 0.77850(5) -0.00810(11)
S7 S -0.24786(9) 1.24729(4) -0.35694(11)
H1 H 0.0770 1.1255 0.0190
H2 H 0.1779 1.0726 0.0672
H3 H -0.0448 1.0390 0.0213
H4 H 0.0280 1.0093 -0.0691
H5 H -0.1418 1.1067 -0.1634
H6 H -0.2131 1.0444 -0.1673
H7 H -0.2569 1.0955 -0.4080
H8 H -0.2945 1.0308 -0.3903
H9 H -0.2785 1.0287 -0.5864
H10 H -0.1384 1.0001 -0.4996
H11 H -0.1650 1.1138 -0.5994
H12 H -0.1095 1.0599 -0.6543
H13 H 0.3872 1.1372 -0.5086
H14 H 0.5700 1.1562 -0.3175
H15 H 0.5339 1.1544 -0.1250
H16 H 0.3384 1.1398 0.1065
H17 H 0.4316 1.1722 0.0403
H18 H 0.4546 1.1065 0.0745
H19 H 0.0210 1.1166 -0.7120
H20 H 0.1541 1.1540 -0.6605
H21 H 0.1640 1.0878 -0.6838
H22 H 1.0189 0.8598 -0.0054
H23 H 1.1188 0.8063 0.0438
H24 H 1.1707 0.9233 0.1276
H25 H 1.2432 0.8915 0.0364
H26 H 1.4096 0.8897 0.2226
H27 H 1.3459 0.8275 0.2216
H28 H 1.5042 0.8950 0.4469
H29 H 1.4462 0.8340 0.4666
H30 H 1.4919 0.9019 0.6472
H31 H 1.3502 0.9326 0.5600
H32 H 1.3200 0.8717 0.7152
H33 H 1.3778 0.8199 0.6574
H34 H 0.8292 0.7865 0.5806
H35 H 0.6430 0.7691 0.3927
H36 H 0.6715 0.7743 0.1960
H37 H 0.8514 0.8059 -0.0447
H38 H 0.7270 0.8003 0.0077
H39 H 0.8272 0.7479 0.0183
H40 H 1.1821 0.7911 0.7662
H41 H 1.1004 0.8483 0.7653
H42 H 1.0208 0.7889 0.7223
H46 H 1.2903 0.9216 0.3414
H47 H -0.0849 1.0107 -0.2791
Ni2A Ni -0.13727(4) 1.34553(3) -0.35427(4)
S7A S 1.24786(9) 0.74729(4) 0.35694(11)
C38 C 0.4094(6) 0.6905(3) -0.3192(5)
C39 C 0.5349(6) 0.7166(2) -0.3231(5)
N16 N 0.6343(7) 0.7363(3) -0.3268(7)
H43 H 0.3873 0.7057 -0.2484
H44 H 0.3369 0.6991 -0.3958
H45 H 0.4227 0.6487 -0.3103
loop_
_geom_bond_atom_site_label_1
_geom_bond_atom_site_label_2
_geom_bond_site_symmetry_1
_geom_bond_site_symmetry_2
Cr1 N1 1_555 1_555
Ni1 N7 1_555 1_555
Ni2 N12 1_555 1_555
C1 N1 1_555 1_555
C2 N2 1_555 1_555
C3 N3 1_555 1_555
C4 N4 1_555 1_555
C5 N5 1_555 1_555
C6 N6 1_555 1_555
C7 C8 1_555 1_555
C8 C20 1_555 1_555
C9 C10 1_555 1_555
C10 C11 1_555 1_555
C11 N9 1_555 1_555
C12 C13 1_555 1_555
C13 C14 1_555 1_555
C14 N10 1_555 1_555
C15 C16 1_555 1_555
C16 C17 1_555 1_555
C17 C18 1_555 1_555
C18 C19 1_555 1_555
C19 C7 1_555 1_555
C20 H16 1_555 1_555
C21 C15 1_555 1_555
C22 N11 1_555 1_555
C23 C24 1_555 1_555
C24 C36 1_555 1_555
C25 C26 1_555 1_555
C26 C27 1_555 1_555
C27 N14 1_555 1_555
C28 C29 1_555 1_555
C29 C30 1_555 1_555
C30 N15 1_555 1_555
C31 C32 1_555 1_555
C32 C33 1_555 1_555
C33 C34 1_555 1_555
C34 C35 1_555 1_555
C35 C23 1_555 1_555
C36 H37 1_555 1_555
C37 C31 1_555 1_555
C38 C39 1_555 1_555
C39 N16 1_555 1_555
N2 Cr1 1_555 1_555
N3 Cr1 1_555 1_555
N4 Cr1 1_555 1_555
N5 Cr1 1_555 1_555
N6 Cr1 1_555 1_555
N7 C7 1_555 1_555
N8 Ni1 1_555 1_555
N9 Ni1 1_555 1_555
N10 Ni1 1_555 1_555
N11 Ni1 1_555 1_555
N12 C23 1_555 1_555
N13 Ni2 1_555 1_555
N14 Ni2 1_555 1_555
N15 Ni2 1_555 1_555
S1 Ni1 1_555 1_555
S2 Ni2 1_555 1_555
S3 C3 1_555 1_555
S4 C4 1_555 1_555
S5 C5 1_555 1_555
S6 C6 1_555 1_555
S7 C22 1_555 1_555
H1 C9 1_555 1_555
H2 C9 1_555 1_555
H3 C10 1_555 1_555
H4 C10 1_555 1_555
H5 C11 1_555 1_555
H6 C11 1_555 1_555
H7 C12 1_555 1_555
H8 C12 1_555 1_555
H9 C13 1_555 1_555
H10 C13 1_555 1_555
H11 C14 1_555 1_555
H12 C14 1_555 1_555
H13 C17 1_555 1_555
H14 C18 1_555 1_555
H15 C19 1_555 1_555
H17 C20 1_555 1_555
H18 C20 1_555 1_555
H19 C21 1_555 1_555
H20 C21 1_555 1_555
H21 C21 1_555 1_555
H22 C25 1_555 1_555
H23 C25 1_555 1_555
H24 C26 1_555 1_555
H25 C26 1_555 1_555
H26 C27 1_555 1_555
H27 C27 1_555 1_555
H28 C28 1_555 1_555
H29 C28 1_555 1_555
H30 C29 1_555 1_555
H31 C29 1_555 1_555
H32 C30 1_555 1_555
H33 C30 1_555 1_555
H34 C33 1_555 1_555
H35 C34 1_555 1_555
H36 C35 1_555 1_555
H38 C36 1_555 1_555
H39 C36 1_555 1_555
H40 C37 1_555 1_555
H41 C37 1_555 1_555
H42 C37 1_555 1_555
H43 C38 1_555 1_555
H44 C38 1_555 1_555
H45 C38 1_555 1_555
H46 N14 1_555 1_555
H47 N9 1_555 1_555
Ni2A S7 1_555 1_555
S7A Ni2 1_555 1_555
C1 S1 1_555 1_555
C2 S2 1_555 1_555
C8 N8 1_555 1_555
C9 N8 1_555 1_555
C12 N9 1_555 1_555
C15 N10 1_555 1_555
C16 N7 1_555 1_555
C24 N13 1_555 1_555
C25 N13 1_555 1_555
C28 N14 1_555 1_555
C31 N15 1_555 1_555
C32 N12 1_555 1_555

#END
