
#######################################################################
#
#                 Cambridge Crystallographic Data Centre
#                                CCDC 
#
#######################################################################
#
# If this CIF has been generated from an entry in the Cambridge 
# Structural Database, then it will include bibliographic, chemical, 
# crystal, experimental, refinement or atomic coordinate data resulting 
# from the CCDC's data processing and validation procedures.
#
#######################################################################

data_NAHLIT
_symmetry_cell_setting           monoclinic
_symmetry_space_group_name_H-M   'P 21'
_symmetry_Int_Tables_number      4
_space_group_name_Hall           'P 2yb'
loop_
_symmetry_equiv_pos_site_id
_symmetry_equiv_pos_as_xyz
1 x,y,z
2 -x,1/2+y,-z
_cell_length_a                   10.3601(4)
_cell_length_b                   23.0402(8)
_cell_length_c                   10.9979(5)
_cell_angle_alpha                90
_cell_angle_beta                 108.947(4)
_cell_angle_gamma                90
_cell_volume                     2482.95
loop_
_atom_site_label
_atom_site_type_symbol
_atom_site_fract_x
_atom_site_fract_y
_atom_site_fract_z
Mo1 Mo 0.61091(5) 0.96879(5) 0.03098(5)
Ni1 Ni 0.06333(7) 1.08878(6) -0.29688(7)
Ni2 Ni 1.13973(7) 0.84503(6) 0.35414(8)
C1 C 0.3201(5) 0.9882(3) -0.1863(6)
C2 C 0.9001(6) 0.9467(3) 0.2516(6)
C3 C 0.7330(6) 1.0984(3) 0.0567(6)
C4 C 0.4750(6) 1.0085(3) 0.2446(6)
C5 C 0.7455(6) 0.9265(3) -0.1801(6)
C6 C 0.4916(6) 0.8395(3) 0.0121(7)
C7 C 0.3324(6) 1.1282(3) -0.1974(6)
C8 C 0.2887(6) 1.1194(3) -0.0833(6)
C9 C 0.1063(6) 1.0881(4) -0.0081(6)
C10 C -0.0098(6) 1.0452(3) -0.0523(6)
C11 C -0.1296(6) 1.0636(3) -0.1679(6)
C12 C -0.2224(6) 1.0567(3) -0.4045(6)
C13 C -0.1897(6) 1.0381(4) -0.5243(6)
C14 C -0.1124(6) 1.0790(3) -0.5810(6)
C15 C 0.1198(6) 1.1099(3) -0.5273(6)
C16 C 0.2505(6) 1.1228(3) -0.4196(6)
C17 C 0.3755(6) 1.1378(3) -0.4292(7)
C18 C 0.4809(7) 1.1478(4) -0.3149(8)
C19 C 0.4606(6) 1.1448(3) -0.1988(7)
C20 C 0.3860(7) 1.1348(4) 0.0463(6)
C21 C 0.1144(8) 1.1195(4) -0.6629(7)
C22 C -0.1166(6) 1.2018(3) -0.3242(6)
C23 C 0.8766(7) 0.8017(3) 0.2658(8)
C24 C 0.9131(7) 0.8112(3) 0.1441(7)
C25 C 1.0911(8) 0.8452(5) 0.0660(7)
C26 C 1.2118(9) 0.8856(4) 0.1108(9)
C27 C 1.3331(7) 0.8701(4) 0.2232(8)
C28 C 1.4291(6) 0.8741(4) 0.4593(7)
C29 C 1.4044(8) 0.8931(5) 0.5832(8)
C30 C 1.3238(7) 0.8537(3) 0.6373(8)
C31 C 1.0925(7) 0.8214(4) 0.5918(7)
C32 C 0.9623(7) 0.8073(3) 0.4829(7)
C33 C 0.8413(8) 0.7898(4) 0.4995(9)
C34 C 0.7339(8) 0.7794(4) 0.3867(9)
C35 C 0.7468(6) 0.7833(3) 0.2700(7)
C36 C 0.8255(8) 0.7919(5) 0.0190(8)
C37 C 1.1030(10) 0.8108(5) 0.7244(8)
N1 N 0.4257(5) 0.9887(3) -0.1112(5)
N2 N 0.7938(5) 0.9484(3) 0.1740(5)
N3 N 0.6845(5) 1.0525(3) 0.0385(5)
N4 N 0.5230(5) 0.9933(3) 0.1691(5)
N5 N 0.6973(5) 0.9437(3) -0.1067(5)
N6 N 0.5386(5) 0.8845(3) 0.0263(5)
N7 N 0.2342(5) 1.1188(2) -0.3059(5)
N8 N 0.1691(5) 1.0987(3) -0.1063(5)
N9 N -0.1043(5) 1.0491(3) -0.2889(5)
N10 N 0.0251(4) 1.0909(3) -0.4925(5)
N11 N -0.0297(6) 1.1689(3) -0.3040(6)
N12 N 0.9730(6) 0.8135(3) 0.3699(6)
N13 N 1.0334(6) 0.8339(3) 0.1677(6)
N14 N 1.3095(6) 0.8831(3) 0.3452(6)
N15 N 1.1871(5) 0.8400(3) 0.5544(6)
S1 S 0.17012(16) 0.98567(9) -0.29556(17)
S2 S 1.04711(17) 0.94616(9) 0.36313(18)
S3 S 0.79781(17) 1.16267(9) 0.07629(19)
S4 S 0.4071(2) 1.03078(12) 0.3483(2)
S5 S 0.8109(2) 0.90369(11) -0.2859(2)
S6 S 0.42312(18) 0.77556(9) -0.0071(2)
S7 S -0.24579(16) 1.24659(9) -0.35456(19)
H1 H 0.0703 1.1245 0.0115
H2 H 0.1743 1.0730 0.0680
H3 H -0.0444 1.0393 0.0182
H4 H 0.0258 1.0087 -0.0717
H5 H -0.1412 1.1053 -0.1652
H6 H -0.2128 1.0440 -0.1675
H7 H -0.2492 1.0970 -0.4125
H8 H -0.2972 1.0333 -0.3973
H9 H -0.2763 1.0315 -0.5910
H10 H -0.1381 1.0020 -0.5047
H11 H -0.1620 1.1154 -0.6022
H12 H -0.1052 1.0619 -0.6592
H13 H 0.3889 1.1411 -0.5087
H14 H 0.5673 1.1566 -0.3179
H15 H 0.5301 1.1535 -0.1232
H16 H 0.3405 1.1311 0.1089
H17 H 0.4164 1.1740 0.0441
H18 H 0.4623 1.1090 0.0672
H19 H 0.0221 1.1244 -0.7166
H20 H 0.1657 1.1535 -0.6659
H21 H 0.1539 1.0868 -0.6911
H22 H 1.0227 0.8636 -0.0053
H23 H 1.1185 0.8089 0.0371
H24 H 1.1763 0.9220 0.1317
H25 H 1.2448 0.8916 0.0386
H26 H 1.4120 0.8921 0.2202
H27 H 1.3520 0.8288 0.2202
H28 H 1.5039 0.8968 0.4500
H29 H 1.4533 0.8332 0.4647
H30 H 1.4927 0.8987 0.6497
H31 H 1.3558 0.9301 0.5655
H32 H 1.3167 0.8720 0.7140
H33 H 1.3743 0.8176 0.6610
H34 H 0.8343 0.7846 0.5814
H35 H 0.6481 0.7700 0.3929
H36 H 0.6759 0.7741 0.1960
H37 H 0.8800 0.7897 -0.0371
H38 H 0.7543 0.8199 -0.0128
H39 H 0.7876 0.7544 0.0263
H40 H 1.1832 0.7888 0.7642
H41 H 1.1073 0.8467 0.7689
H42 H 1.0243 0.7891 0.7249
H43 H -0.0867 1.0111 -0.2844
H44 H 1.2926 0.9214 0.3432
Ni2A Ni -0.13973(7) 1.34503(6) -0.35414(8)
S7A S 1.24579(16) 0.74659(9) 0.35456(19)
C38 C 0.4114(8) 0.6897(4) -0.3198(8)
C39 C 0.5336(10) 0.7155(4) -0.3215(8)
N16 N 0.6306(10) 0.7362(4) -0.3245(9)
H45 H 0.4215 0.6483 -0.3100
H46 H 0.3382 0.6970 -0.3981
H47 H 0.3835 0.7040 -0.2504
loop_
_geom_bond_atom_site_label_1
_geom_bond_atom_site_label_2
_geom_bond_site_symmetry_1
_geom_bond_site_symmetry_2
Mo1 N1 1_555 1_555
Ni1 N7 1_555 1_555
Ni2 N12 1_555 1_555
C1 N1 1_555 1_555
C2 N2 1_555 1_555
C3 N3 1_555 1_555
C4 N4 1_555 1_555
C5 N5 1_555 1_555
C6 N6 1_555 1_555
C7 C8 1_555 1_555
C8 C20 1_555 1_555
C9 C10 1_555 1_555
C10 C11 1_555 1_555
C11 N9 1_555 1_555
C12 C13 1_555 1_555
C13 C14 1_555 1_555
C14 N10 1_555 1_555
C15 C16 1_555 1_555
C16 C17 1_555 1_555
C17 C18 1_555 1_555
C18 C19 1_555 1_555
C19 C7 1_555 1_555
C20 H16 1_555 1_555
C21 C15 1_555 1_555
C22 N11 1_555 1_555
C23 C24 1_555 1_555
C24 C36 1_555 1_555
C25 C26 1_555 1_555
C26 C27 1_555 1_555
C27 N14 1_555 1_555
C28 C29 1_555 1_555
C29 C30 1_555 1_555
C30 N15 1_555 1_555
C31 C32 1_555 1_555
C32 C33 1_555 1_555
C33 C34 1_555 1_555
C34 C35 1_555 1_555
C35 C23 1_555 1_555
C36 H37 1_555 1_555
C37 C31 1_555 1_555
C38 C39 1_555 1_555
C39 N16 1_555 1_555
N2 Mo1 1_555 1_555
N3 Mo1 1_555 1_555
N4 Mo1 1_555 1_555
N5 Mo1 1_555 1_555
N6 Mo1 1_555 1_555
N7 C7 1_555 1_555
N8 Ni1 1_555 1_555
N9 Ni1 1_555 1_555
N10 Ni1 1_555 1_555
N11 Ni1 1_555 1_555
N12 C23 1_555 1_555
N13 Ni2 1_555 1_555
N14 Ni2 1_555 1_555
N15 Ni2 1_555 1_555
S1 Ni1 1_555 1_555
S2 Ni2 1_555 1_555
S3 C3 1_555 1_555
S4 C4 1_555 1_555
S5 C5 1_555 1_555
S6 C6 1_555 1_555
S7 C22 1_555 1_555
H1 C9 1_555 1_555
H2 C9 1_555 1_555
H3 C10 1_555 1_555
H4 C10 1_555 1_555
H5 C11 1_555 1_555
H6 C11 1_555 1_555
H7 C12 1_555 1_555
H8 C12 1_555 1_555
H9 C13 1_555 1_555
H10 C13 1_555 1_555
H11 C14 1_555 1_555
H12 C14 1_555 1_555
H13 C17 1_555 1_555
H14 C18 1_555 1_555
H15 C19 1_555 1_555
H17 C20 1_555 1_555
H18 C20 1_555 1_555
H19 C21 1_555 1_555
H20 C21 1_555 1_555
H21 C21 1_555 1_555
H22 C25 1_555 1_555
H23 C25 1_555 1_555
H24 C26 1_555 1_555
H25 C26 1_555 1_555
H26 C27 1_555 1_555
H27 C27 1_555 1_555
H28 C28 1_555 1_555
H29 C28 1_555 1_555
H30 C29 1_555 1_555
H31 C29 1_555 1_555
H32 C30 1_555 1_555
H33 C30 1_555 1_555
H34 C33 1_555 1_555
H35 C34 1_555 1_555
H36 C35 1_555 1_555
H38 C36 1_555 1_555
H39 C36 1_555 1_555
H40 C37 1_555 1_555
H41 C37 1_555 1_555
H42 C37 1_555 1_555
H43 N9 1_555 1_555
H44 N14 1_555 1_555
H45 C38 1_555 1_555
H46 C38 1_555 1_555
H47 C38 1_555 1_555
Ni2A S7 1_555 1_555
S7A Ni2 1_555 1_555
C1 S1 1_555 1_555
C2 S2 1_555 1_555
C8 N8 1_555 1_555
C9 N8 1_555 1_555
C12 N9 1_555 1_555
C15 N10 1_555 1_555
C16 N7 1_555 1_555
C24 N13 1_555 1_555
C25 N13 1_555 1_555
C28 N14 1_555 1_555
C31 N15 1_555 1_555
C32 N12 1_555 1_555

#END
