
#######################################################################
#
#                 Cambridge Crystallographic Data Centre
#                                CCDC 
#
#######################################################################
#
# If this CIF has been generated from an entry in the Cambridge 
# Structural Database, then it will include bibliographic, chemical, 
# crystal, experimental, refinement or atomic coordinate data resulting 
# from the CCDC's data processing and validation procedures.
#
#######################################################################

data_NAHMEO
_symmetry_cell_setting           triclinic
_symmetry_space_group_name_H-M   'P -1'
_symmetry_Int_Tables_number      2
_space_group_name_Hall           '-P 1'
loop_
_symmetry_equiv_pos_site_id
_symmetry_equiv_pos_as_xyz
1 x,y,z
2 -x,-y,-z
_cell_length_a                   11.2529(2)
_cell_length_b                   13.4468(2)
_cell_length_c                   14.1345(2)
_cell_angle_alpha                104.0160(10)
_cell_angle_beta                 104.4340(10)
_cell_angle_gamma                111.6150(10)
_cell_volume                     1788.19
loop_
_atom_site_label
_atom_site_type_symbol
_atom_site_fract_x
_atom_site_fract_y
_atom_site_fract_z
Ag1 Ag -0.1960(1) 0.2933(1) 0.0960(1)
O1 O -0.0641(4) 0.6818(4) 0.2399(3)
O2 O -0.2678(5) 0.5238(5) 0.2974(4)
O3 O -0.2438(4) 0.4511(3) -0.2132(3)
O4 O -0.3592(4) 0.2062(4) -0.2327(4)
O5 O -0.8072(4) 0.0162(4) -0.2963(3)
O6 O -0.7606(4) -0.1183(4) -0.4602(3)
O7 O -0.3575(4) 0.2416(3) 0.1971(3)
O8 O -0.0733(4) 0.3255(4) 0.2825(3)
N1 N -0.1741(5) 0.4289(4) 0.0371(4)
N2 N -0.7603(5) -0.1102(4) -0.0558(4)
C1 C -0.1514(6) 0.5128(5) 0.0207(5)
C2 C -0.1146(6) 0.6223(5) 0.0098(5)
C3 C -0.1799(6) 0.6327(5) -0.0835(5)
C4 C -0.1430(6) 0.7411(5) -0.0872(5)
C5 C -0.0416(6) 0.8394(5) 0.0018(5)
C6 C 0.0252(6) 0.8277(5) 0.0934(5)
C7 C -0.0118(6) 0.7202(5) 0.0987(5)
C8 C -0.0122(6) 0.9522(5) -0.0010(5)
C9 C -0.7254(6) -0.0166(5) -0.0507(5)
C10 C -0.6758(5) 0.1016(5) -0.0408(4)
C11 C -0.7407(6) 0.1312(5) -0.1192(4)
C12 C -0.6894(6) 0.2463(5) -0.1084(5)
C13 C -0.5738(5) 0.3317(5) -0.0187(4)
C14 C -0.5098(5) 0.2999(5) 0.0586(4)
C15 C -0.5586(6) 0.1862(5) 0.0495(4)
C16 C -0.5221(6) 0.4499(5) -0.0063(4)
C17 C -0.2948(6) 0.5283(5) -0.1768(5)
C18 C -0.3482(7) 0.3514(6) -0.3029(5)
C19 C -0.4390(7) 0.2575(6) -0.2736(6)
C20 C -0.4329(8) 0.1197(7) -0.1988(6)
C21 C 0.0439(6) 0.7067(5) 0.2007(5)
C22 C -0.0405(7) 0.6382(6) 0.3218(5)
C23 C -0.1502(8) 0.6222(6) 0.3648(6)
C24 C -0.3671(9) 0.4967(9) 0.3503(8)
C25 C -0.8612(6) 0.0412(5) -0.2186(4)
C26 C -0.9119(6) -0.0598(6) -0.3968(5)
C27 C -0.8450(7) -0.0618(6) -0.4763(5)
C28 C -0.6547(7) -0.0859(6) -0.5006(5)
C29 C -0.4921(6) 0.1506(5) 0.1334(5)
C30 C -0.2928(6) 0.2196(6) 0.2858(5)
C31 C -0.1513(6) 0.3193(6) 0.3477(5)
C32 C 0.0717(6) 0.3983(7) 0.3420(5)
H1 H -0.1859 0.7497 -0.1496
H2 H 0.0959 0.8940 0.1518
H3 H -0.7324 0.2675 -0.1615
H4 H -0.4312 0.3576 0.1185
H5 H -0.3716 0.4896 -0.1557
H6 H -0.3303 0.5526 -0.2338
H7 H -0.3032 0.3194 -0.3449
H8 H -0.4070 0.3749 -0.3475
H9 H -0.4702 0.2911 -0.2202
H10 H -0.5213 0.1990 -0.3365
H11 H -0.3739 0.0871 -0.1707
H12 H -0.5155 0.0587 -0.2585
H13 H -0.4603 0.1540 -0.1438
H14 H 0.0695 0.6430 0.1886
H15 H 0.1265 0.7785 0.2511
H16 H 0.0503 0.6928 0.3785
H17 H -0.0396 0.5637 0.2936
H18 H -0.1195 0.6165 0.4344
H19 H -0.1694 0.6894 0.3742
H20 H -0.4511 0.4260 0.3026
H21 H -0.3902 0.5604 0.3690
H22 H -0.3258 0.4856 0.4142
H23 H -0.9272 0.0709 -0.2416
H24 H -0.9099 -0.0293 -0.2058
H25 H -0.9577 -0.1382 -0.3965
H26 H -0.9822 -0.0328 -0.4145
H27 H -0.7880 0.0180 -0.4690
H28 H -0.9167 -0.1030 -0.5482
H29 H -0.6009 -0.1279 -0.4882
H30 H -0.6959 -0.1047 -0.5763
H31 H -0.5940 -0.0029 -0.4652
H32 H -0.4866 0.0795 0.1002
H33 H -0.5480 0.1350 0.1771
H34 H -0.3482 0.2117 0.3306
H35 H -0.2859 0.1472 0.2614
H36 H -0.1055 0.3080 0.4109
H37 H -0.1582 0.3918 0.3708
H38 H 0.0947 0.3967 0.4131
H39 H 0.1247 0.3705 0.3072
H40 H 0.0944 0.4774 0.3465
C8A C 0.0122(6) 1.0478(5) 0.0010(5)
C5A C 0.0416(6) 1.1606(5) -0.0018(5)
C4A C 0.1430(6) 1.2589(5) 0.0872(5)
C3A C 0.1799(6) 1.3673(5) 0.0835(5)
C2A C 0.1146(6) 1.3777(5) -0.0098(5)
C1A C 0.1514(6) 1.4872(5) -0.0207(5)
N1A N 0.1741(5) 1.5711(4) -0.0371(4)
C7A C 0.0118(6) 1.2798(5) -0.0987(5)
C6A C -0.0252(6) 1.1723(5) -0.0934(5)
H2A H -0.0959 1.1060 -0.1518
C21A C -0.0439(6) 1.2933(5) -0.2007(5)
O1A O 0.0641(4) 1.3182(4) -0.2399(3)
C22A C 0.0405(7) 1.3618(6) -0.3218(5)
C23A C 0.1502(8) 1.3778(6) -0.3648(6)
O2A O 0.2678(5) 1.4762(5) -0.2974(4)
C24A C 0.3671(9) 1.5033(9) -0.3503(8)
H20A H 0.4511 1.5740 -0.3026
H21A H 0.3902 1.4396 -0.3690
H22A H 0.3258 1.5144 -0.4142
H18A H 0.1195 1.3835 -0.4344
H19A H 0.1694 1.3106 -0.3742
H16A H -0.0503 1.3072 -0.3785
H17A H 0.0396 1.4363 -0.2936
H14A H -0.0695 1.3570 -0.1886
H15A H -0.1265 1.2215 -0.2511
C17A C 0.2948(6) 1.4717(5) 0.1768(5)
O3A O 0.2438(4) 1.5489(3) 0.2132(3)
C18A C 0.3482(7) 1.6486(6) 0.3029(5)
C19A C 0.4390(7) 1.7425(6) 0.2736(6)
O4A O 0.3592(4) 1.7938(4) 0.2327(4)
C20A C 0.4329(8) 1.8803(7) 0.1988(6)
H11A H 0.3739 1.9129 0.1707
H12A H 0.5155 1.9413 0.2585
H13A H 0.4603 1.8460 0.1438
H9A H 0.4702 1.7089 0.2202
H10A H 0.5213 1.8010 0.3365
H7A H 0.3032 1.6806 0.3449
H8A H 0.4070 1.6251 0.3475
H5A H 0.3716 1.5104 0.1557
H6A H 0.3303 1.4474 0.2338
H1A H 0.1859 1.2503 0.1496
C16A C -0.4779(6) 0.5501(5) 0.0063(4)
C13A C -0.4262(5) 0.6683(5) 0.0187(4)
C12A C -0.3106(6) 0.7537(5) 0.1084(5)
C11A C -0.2593(6) 0.8688(5) 0.1192(4)
C10A C -0.3242(5) 0.8984(5) 0.0408(4)
C9A C -0.2746(6) 1.0166(5) 0.0507(5)
N2A N -0.2397(5) 1.1102(4) 0.0558(4)
C15A C -0.4414(6) 0.8138(5) -0.0495(4)
C14A C -0.4902(5) 0.7001(5) -0.0586(4)
H4A H -0.5688 0.6424 -0.1185
C29A C -0.5079(6) 0.8494(5) -0.1334(5)
O7A O -0.6425(4) 0.7584(3) -0.1971(3)
C30A C -0.7072(6) 0.7804(6) -0.2858(5)
C31A C -0.8487(6) 0.6807(6) -0.3477(5)
O8A O -0.9267(4) 0.6745(4) -0.2825(3)
C32A C -1.0717(6) 0.6017(7) -0.3420(5)
H38A H -1.0947 0.6033 -0.4131
H39A H -1.1247 0.6295 -0.3072
H40A H -1.0944 0.5226 -0.3465
H36A H -0.8945 0.6920 -0.4109
H37A H -0.8418 0.6082 -0.3708
H34A H -0.6518 0.7883 -0.3306
H35A H -0.7141 0.8528 -0.2614
H32A H -0.5134 0.9205 -0.1002
H33A H -0.4520 0.8650 -0.1771
C25A C -0.1388(6) 0.9588(5) 0.2186(4)
O5A O -0.1928(4) 0.9838(4) 0.2963(3)
C26A C -0.0881(6) 1.0598(6) 0.3968(5)
C27A C -0.1550(7) 1.0618(6) 0.4763(5)
O6A O -0.2394(4) 1.1183(4) 0.4602(3)
C28A C -0.3453(7) 1.0859(6) 0.5006(5)
H29A H -0.3991 1.1279 0.4882
H30A H -0.3041 1.1047 0.5763
H31A H -0.4060 1.0029 0.4652
H27A H -0.2120 0.9820 0.4690
H28A H -0.0833 1.1030 0.5482
H25A H -0.0423 1.1382 0.3965
H26A H -0.0178 1.0328 0.4145
H23A H -0.0728 0.9291 0.2416
H24A H -0.0901 1.0293 0.2058
H3A H -0.2676 0.7325 0.1615
Ag1A Ag -0.8040(1) 0.7067(1) -0.0960(1)
N2A_2 N -0.2397(5) 0.1102(4) 0.0558(4)
Ag1A_2 Ag -0.8040(1) -0.2933(1) -0.0960(1)
Ag1A_3 Ag 0.1960(1) 1.7067(1) -0.0960(1)
Ag1_2 Ag -0.1960(1) 1.2933(1) 0.0960(1)
O7A_2 O 0.3575(4) 1.7584(3) -0.1971(3)
O8A_2 O 0.0733(4) 1.6745(4) -0.2825(3)
N2_2 N 0.2397(5) 1.8898(4) -0.0558(4)
P1 P -1.3133(2) 0.8022(2) -0.3688(2)
F1 F -1.1637(5) 0.8174(6) -0.3159(5)
F2 F -1.2572(15) 0.9327(7) -0.3387(6)
F3 F -1.4631(8) 0.7776(11) -0.4233(8)
F4 F -1.3619(8) 0.6671(6) -0.4026(8)
F5 F -1.2987(9) 0.7923(7) -0.4765(5)
F6 F -1.3321(11) 0.8025(12) -0.2650(7)
loop_
_geom_bond_atom_site_label_1
_geom_bond_atom_site_label_2
_geom_bond_site_symmetry_1
_geom_bond_site_symmetry_2
Ag1 O7 1_555 1_555
P1 F1 1_555 1_555
F2 P1 1_555 1_555
F3 P1 1_555 1_555
F4 P1 1_555 1_555
F5 P1 1_555 1_555
F6 P1 1_555 1_555
O1 C21 1_555 1_555
O2 C23 1_555 1_555
O3 C17 1_555 1_555
O4 C19 1_555 1_555
O5 C25 1_555 1_555
O6 C27 1_555 1_555
O7 C29 1_555 1_555
O8 Ag1 1_555 1_555
N1 Ag1 1_555 1_555
N2 C9 1_555 1_555
C1 N1 1_555 1_555
C2 C1 1_555 1_555
C3 C2 1_555 1_555
C4 C3 1_555 1_555
C5 C4 1_555 1_555
C6 C5 1_555 1_555
C7 C2 1_555 1_555
C8 C5 1_555 1_555
C9 C10 1_555 1_555
C10 C11 1_555 1_555
C11 C12 1_555 1_555
C12 C13 1_555 1_555
C13 C14 1_555 1_555
C14 C15 1_555 1_555
C15 C10 1_555 1_555
C16 C13 1_555 1_555
C17 C3 1_555 1_555
C18 O3 1_555 1_555
C19 C18 1_555 1_555
C20 O4 1_555 1_555
C21 C7 1_555 1_555
C22 O1 1_555 1_555
C23 C22 1_555 1_555
C24 O2 1_555 1_555
C25 C11 1_555 1_555
C26 O5 1_555 1_555
C27 C26 1_555 1_555
C28 O6 1_555 1_555
C29 C15 1_555 1_555
C30 O7 1_555 1_555
C31 O8 1_555 1_555
C32 O8 1_555 1_555
H1 C4 1_555 1_555
H2 C6 1_555 1_555
H3 C12 1_555 1_555
H4 C14 1_555 1_555
H5 C17 1_555 1_555
H6 C17 1_555 1_555
H7 C18 1_555 1_555
H8 C18 1_555 1_555
H9 C19 1_555 1_555
H10 C19 1_555 1_555
H11 C20 1_555 1_555
H12 C20 1_555 1_555
H13 C20 1_555 1_555
H14 C21 1_555 1_555
H15 C21 1_555 1_555
H16 C22 1_555 1_555
H17 C22 1_555 1_555
H18 C23 1_555 1_555
H19 C23 1_555 1_555
H20 C24 1_555 1_555
H21 C24 1_555 1_555
H22 C24 1_555 1_555
H23 C25 1_555 1_555
H24 C25 1_555 1_555
H25 C26 1_555 1_555
H26 C26 1_555 1_555
H27 C27 1_555 1_555
H28 C27 1_555 1_555
H29 C28 1_555 1_555
H30 C28 1_555 1_555
H31 C28 1_555 1_555
H32 C29 1_555 1_555
H33 C29 1_555 1_555
H34 C30 1_555 1_555
H35 C30 1_555 1_555
H36 C31 1_555 1_555
H37 C31 1_555 1_555
H38 C32 1_555 1_555
H39 C32 1_555 1_555
H40 C32 1_555 1_555
C8A C8 1_555 1_555
C5A C8A 1_555 1_555
C4A C5A 1_555 1_555
C3A C4A 1_555 1_555
C2A C3A 1_555 1_555
C1A C2A 1_555 1_555
N1A C1A 1_555 1_555
C7A C2A 1_555 1_555
C6A C5A 1_555 1_555
H2A C6A 1_555 1_555
C21A C7A 1_555 1_555
O1A C21A 1_555 1_555
C22A O1A 1_555 1_555
C23A C22A 1_555 1_555
O2A C23A 1_555 1_555
C24A O2A 1_555 1_555
H20A C24A 1_555 1_555
H21A C24A 1_555 1_555
H22A C24A 1_555 1_555
H18A C23A 1_555 1_555
H19A C23A 1_555 1_555
H16A C22A 1_555 1_555
H17A C22A 1_555 1_555
H14A C21A 1_555 1_555
H15A C21A 1_555 1_555
C17A C3A 1_555 1_555
O3A C17A 1_555 1_555
C18A O3A 1_555 1_555
C19A C18A 1_555 1_555
O4A C19A 1_555 1_555
C20A O4A 1_555 1_555
H11A C20A 1_555 1_555
H12A C20A 1_555 1_555
H13A C20A 1_555 1_555
H9A C19A 1_555 1_555
H10A C19A 1_555 1_555
H7A C18A 1_555 1_555
H8A C18A 1_555 1_555
H5A C17A 1_555 1_555
H6A C17A 1_555 1_555
H1A C4A 1_555 1_555
C16A C16 1_555 1_555
C13A C16A 1_555 1_555
C12A C13A 1_555 1_555
C11A C12A 1_555 1_555
C10A C11A 1_555 1_555
C9A C10A 1_555 1_555
N2A C9A 1_555 1_555
C15A C10A 1_555 1_555
C14A C13A 1_555 1_555
H4A C14A 1_555 1_555
C29A C15A 1_555 1_555
O7A C29A 1_555 1_555
C30A O7A 1_555 1_555
C31A C30A 1_555 1_555
O8A C31A 1_555 1_555
C32A O8A 1_555 1_555
H38A C32A 1_555 1_555
H39A C32A 1_555 1_555
H40A C32A 1_555 1_555
H36A C31A 1_555 1_555
H37A C31A 1_555 1_555
H34A C30A 1_555 1_555
H35A C30A 1_555 1_555
H32A C29A 1_555 1_555
H33A C29A 1_555 1_555
C25A C11A 1_555 1_555
O5A C25A 1_555 1_555
C26A O5A 1_555 1_555
C27A C26A 1_555 1_555
O6A C27A 1_555 1_555
C28A O6A 1_555 1_555
H29A C28A 1_555 1_555
H30A C28A 1_555 1_555
H31A C28A 1_555 1_555
H27A C27A 1_555 1_555
H28A C27A 1_555 1_555
H25A C26A 1_555 1_555
H26A C26A 1_555 1_555
H23A C25A 1_555 1_555
H24A C25A 1_555 1_555
H3A C12A 1_555 1_555
Ag1A O7A 1_555 1_555
N2A_2 Ag1 1_555 1_555
Ag1A_2 N2 1_555 1_555
Ag1A_3 N1A 1_555 1_555
Ag1_2 N2A 1_555 1_555
O7A_2 Ag1A_3 1_555 1_555
O8A_2 Ag1A_3 1_555 1_555
N2_2 Ag1A_3 1_555 1_555
C6 C7 1_555 1_555
C30 C31 1_555 1_555
C7A C6A 1_555 1_555
C15A C14A 1_555 1_555
O8A Ag1A 1_555 1_555

#END
