
#######################################################################
#
#                 Cambridge Crystallographic Data Centre
#                                CCDC 
#
#######################################################################
#
# If this CIF has been generated from an entry in the Cambridge 
# Structural Database, then it will include bibliographic, chemical, 
# crystal, experimental, refinement or atomic coordinate data resulting 
# from the CCDC's data processing and validation procedures.
#
#######################################################################

data_NAHMAL11
_symmetry_cell_setting           triclinic
_symmetry_space_group_name_H-M   'P -1'
_symmetry_Int_Tables_number      2
_space_group_name_Hall           '-P 1'
loop_
_symmetry_equiv_pos_site_id
_symmetry_equiv_pos_as_xyz
1 x,y,z
2 -x,-y,-z
_cell_length_a                   5.9560(10)
_cell_length_b                   6.3920(10)
_cell_length_c                   11.2300(10)
_cell_angle_alpha                104.170(10)
_cell_angle_beta                 91.550(10)
_cell_angle_gamma                100.200(10)
_cell_volume                     406.863
loop_
_atom_site_label
_atom_site_type_symbol
_atom_site_fract_x
_atom_site_fract_y
_atom_site_fract_z
Na1 Na 0.25364(11) 0.03707(10) 0.42647(5)
O1 O 0.4448(2) -0.1399(2) 0.25839(10)
O2 O 0.6207(2) -0.2150(2) 0.08892(11)
C1 C 0.4369(3) -0.1890(2) 0.14628(14)
C2 C 0.2143(3) -0.2172(3) 0.07538(15)
C3 C 0.1607(3) -0.2661(3) -0.04514(15)
C4 C 0.3067(3) -0.3107(2) -0.15180(14)
O3 O 0.2085(2) -0.3593(2) -0.25690(10)
O4 O 0.5195(2) -0.2978(2) -0.13201(10)
O5 O 0.1292(2) 0.1718(2) 0.62989(11)
O6 O 0.2242(2) 0.3376(2) 0.33969(11)
O7 O 0.3514(2) -0.2468(2) 0.51489(12)
H1 H 0.590(4) -0.245(4) -0.003(2)
H2 H 0.094(4) -0.208(3) 0.1248(18)
H3 H 0.007(4) -0.278(3) -0.071(2)
H4 H 0.231(5) 0.147(4) 0.674(2)
H5 H 0.134(4) 0.305(4) 0.657(2)
H6 H 0.083(6) 0.341(5) 0.308(2)
H7 H 0.306(4) 0.337(4) 0.285(2)
H8 H 0.312(5) -0.267(4) 0.583(2)
H9 H 0.325(4) -0.362(4) 0.462(2)
Na1A Na -0.25364(11) -0.03707(10) 0.57353(5)
O5A O -0.1292(2) -0.1718(2) 0.37011(11)
Na1A_2 Na 0.74636(11) -0.03707(10) 0.57353(5)
O7A O 0.6486(2) 0.2468(2) 0.48511(12)
H8A H 0.688(5) 0.267(4) 0.417(2)
H9A H 0.675(4) 0.362(4) 0.538(2)
H4A H -0.231(5) -0.147(4) 0.326(2)
H5A H -0.134(4) -0.305(4) 0.343(2)
loop_
_geom_bond_atom_site_label_1
_geom_bond_atom_site_label_2
_geom_bond_site_symmetry_1
_geom_bond_site_symmetry_2
Na1 O1 1_555 1_555
O1 C1 1_555 1_555
O2 C1 1_555 1_555
C1 C2 1_555 1_555
C2 C3 1_555 1_555
C3 C4 1_555 1_555
C4 O3 1_555 1_555
O4 C4 1_555 1_555
O5 Na1 1_555 1_555
O6 Na1 1_555 1_555
O7 Na1 1_555 1_555
H1 O2 1_555 1_555
H2 C2 1_555 1_555
H3 C3 1_555 1_555
H4 O5 1_555 1_555
H5 O5 1_555 1_555
H6 O6 1_555 1_555
H7 O6 1_555 1_555
H8 O7 1_555 1_555
H9 O7 1_555 1_555
Na1A O5 1_555 1_555
O5A Na1 1_555 1_555
Na1A_2 O7 1_555 1_555
O7A Na1 1_555 1_555
H8A O7A 1_555 1_555
H9A O7A 1_555 1_555
H4A O5A 1_555 1_555
H5A O5A 1_555 1_555
Na1A O5A 1_555 1_555
Na1A_2 O7A 1_555 1_555

#END
