
#######################################################################
#
#                 Cambridge Crystallographic Data Centre
#                                CCDC 
#
#######################################################################
#
# If this CIF has been generated from an entry in the Cambridge 
# Structural Database, then it will include bibliographic, chemical, 
# crystal, experimental, refinement or atomic coordinate data resulting 
# from the CCDC's data processing and validation procedures.
#
#######################################################################

data_NAHMAL12
_symmetry_cell_setting           triclinic
_symmetry_space_group_name_H-M   'P -1'
_symmetry_Int_Tables_number      2
_space_group_name_Hall           '-P 1'
loop_
_symmetry_equiv_pos_site_id
_symmetry_equiv_pos_as_xyz
1 x,y,z
2 -x,-y,-z
_cell_length_a                   5.924(2)
_cell_length_b                   6.357(3)
_cell_length_c                   11.177(6)
_cell_angle_alpha                104.18
_cell_angle_beta                 91.53
_cell_angle_gamma                100.19
_cell_volume                     400.568
loop_
_atom_site_label
_atom_site_type_symbol
_atom_site_fract_x
_atom_site_fract_y
_atom_site_fract_z
Na1 Na 0.2479(1) 0.9623(1) 0.5740(1)
O1 O 0.3708(2) 0.8282(2) 0.3702(1)
O2 O 0.1488(2) 1.2471(2) 0.4850(1)
O3 O 0.2751(2) 0.6621(2) 0.6605(1)
O4 O 0.0551(2) 1.1404(2) 0.7415(1)
O5 O -0.1206(2) 1.2148(2) 0.9113(1)
O6 O -0.0191(2) 1.2977(2) 1.1321(1)
O7 O 0.2921(2) 1.3592(2) 1.2567(1)
C1 C 0.0626(3) 1.1892(2) 0.8539(1)
C2 C 0.2857(3) 1.2169(3) 0.9245(1)
C3 C 0.3396(3) 1.2660(3) 1.0450(2)
C4 C 0.1944(3) 1.3109(2) 1.1515(1)
O1A O 0.6292(2) 1.1718(2) 0.6298(1)
O2A O -0.1488(2) 0.7529(2) 0.5150(1)
Na1A Na 0.7521(1) 1.0377(1) 0.4260(1)
Na1A_2 Na -0.2479(1) 1.0377(1) 0.4260(1)
loop_
_geom_bond_atom_site_label_1
_geom_bond_atom_site_label_2
_geom_bond_site_symmetry_1
_geom_bond_site_symmetry_2
Na1 O1 1_555 1_555
O1 Na1A 1_555 1_555
O2 Na1 1_555 1_555
O3 Na1 1_555 1_555
O4 Na1 1_555 1_555
O5 C1 1_555 1_555
O6 C4 1_555 1_555
O7 C4 1_555 1_555
C1 O4 1_555 1_555
C2 C1 1_555 1_555
C3 C2 1_555 1_555
C4 C3 1_555 1_555
O1A Na1 1_555 1_555
O2A Na1 1_555 1_555
Na1A O1A 1_555 1_555
Na1A_2 O2 1_555 1_555
O2A Na1A_2 1_555 1_555

#END
