
#######################################################################
#
#                 Cambridge Crystallographic Data Centre
#                                CCDC 
#
#######################################################################
#
# If this CIF has been generated from an entry in the Cambridge 
# Structural Database, then it will include bibliographic, chemical, 
# crystal, experimental, refinement or atomic coordinate data resulting 
# from the CCDC's data processing and validation procedures.
#
#######################################################################

data_NAHNEQ
_symmetry_cell_setting           triclinic
_symmetry_space_group_name_H-M   'P -1'
_symmetry_Int_Tables_number      2
_space_group_name_Hall           '-P 1'
loop_
_symmetry_equiv_pos_site_id
_symmetry_equiv_pos_as_xyz
1 x,y,z
2 -x,-y,-z
_cell_length_a                   11.530
_cell_length_b                   15.632
_cell_length_c                   15.634
_cell_angle_alpha                112.8870(10)
_cell_angle_beta                 105.5800(10)
_cell_angle_gamma                104.3350(10)
_cell_volume                     2295.42
loop_
_atom_site_label
_atom_site_type_symbol
_atom_site_fract_x
_atom_site_fract_y
_atom_site_fract_z
Ni1 Ni 0.0000 0.0000 0.0000
N2 N -0.0838(8) -0.2452(4) -0.1368(5)
N5 N -0.1775(4) -0.1173(3) -0.1012(3)
H1 H -0.2146 -0.1382 -0.0644
N8 N -0.0949(4) 0.0941(3) -0.0111(3)
H4 H -0.0753 0.1153 -0.0540
C2 C -0.1385(10) -0.3012(5) -0.0884(7)
H8 H -0.1360 -0.2540 -0.0256
H9 H -0.0871 -0.3381 -0.0753
H10 H -0.2276 -0.3475 -0.1334
C6 C -0.1701(6) -0.2079(4) -0.1784(4)
H18 H -0.2572 -0.2615 -0.2179
H19 H -0.1424 -0.1901 -0.2247
C10 C -0.2586(5) -0.0742(5) -0.1450(4)
H23 H -0.3504 -0.1190 -0.1756
H24 H -0.2357 -0.0658 -0.1974
C14 C -0.2349(5) 0.0277(5) -0.0606(5)
H28 H -0.2855 0.0588 -0.0887
H29 H -0.2635 0.0182 -0.0108
C18 C 0.0558(8) -0.1839(5) -0.0863(5)
H33 H 0.1021 -0.2250 -0.0748
H34 H 0.0824 -0.1624 -0.1310
C21 C -0.1158(4) -0.0543(3) 0.1404(3)
C24 C -0.0821(4) -0.0351(3) 0.2488(3)
C27 C 0.0187(4) 0.0503(3) 0.3304(3)
H37 H 0.0667 0.0998 0.3200
C30 C 0.0507(5) 0.0644(3) 0.4286(3)
H40 H 0.1201 0.1229 0.4828
C33 C -0.0189(4) -0.0068(3) 0.4467(3)
C36 C -0.1208(4) -0.0918(4) 0.3655(3)
H43 H -0.1686 -0.1416 0.3756
C39 C -0.1532(5) -0.1041(4) 0.2682(3)
H46 H -0.2253 -0.1609 0.2144
O1 O -0.0336(3) 0.0074(2) 0.12928(19)
O2 O -0.2160(3) -0.1253(3) 0.0723(2)
Ni1_2 Ni 0.0000 0.0000 1.0000
N2A N 0.0838(8) 0.2452(4) 0.1368(5)
N5A N 0.1775(4) 0.1173(3) 0.1012(3)
H1A H 0.2146 0.1382 0.0644
N8A N 0.0949(4) -0.0941(3) 0.0111(3)
H4A H 0.0753 -0.1153 0.0540
C2A C 0.1385(10) 0.3012(5) 0.0884(7)
H8A H 0.1360 0.2540 0.0256
H9A H 0.0871 0.3381 0.0753
H10A H 0.2276 0.3475 0.1334
C6A C 0.1701(6) 0.2079(4) 0.1784(4)
H18A H 0.2572 0.2615 0.2179
H19A H 0.1424 0.1901 0.2247
C10A C 0.2586(5) 0.0742(5) 0.1450(4)
H23A H 0.3504 0.1190 0.1756
H24A H 0.2357 0.0658 0.1974
C14A C 0.2349(5) -0.0277(5) 0.0606(5)
H28A H 0.2855 -0.0588 0.0887
H29A H 0.2635 -0.0182 0.0108
C18A C -0.0558(8) 0.1839(5) 0.0863(5)
H33A H -0.1021 0.2250 0.0748
H34A H -0.0824 0.1624 0.1310
C21A C 0.1158(4) 0.0543(3) 0.8596(3)
C24A C 0.0821(4) 0.0351(3) 0.7512(3)
C27A C -0.0187(4) -0.0503(3) 0.6696(3)
H37A H -0.0667 -0.0998 0.6800
C30A C -0.0507(5) -0.0644(3) 0.5714(3)
H40A H -0.1201 -0.1229 0.5172
C33A C 0.0189(4) 0.0068(3) 0.5533(3)
C36A C 0.1208(4) 0.0918(4) 0.6345(3)
H43A H 0.1686 0.1416 0.6244
C39A C 0.1532(5) 0.1041(4) 0.7318(3)
H46A H 0.2253 0.1609 0.7856
O1A O 0.0336(3) -0.0074(2) 0.87072(19)
O1A_2 O 0.0336(3) -0.0074(2) -0.12928(19)
O2A O 0.2160(3) 0.1253(3) 0.9277(2)
Ni2 Ni 0.5000 0.0000 0.5000
N3 N 0.3427(7) -0.0955(4) 0.2520(4)
N6 N 0.3124(4) -0.1022(3) 0.3971(3)
H2 H 0.3117 -0.1655 0.3756
N9 N 0.4339(4) 0.0090(3) 0.6118(3)
H5 H 0.4171 0.0658 0.6327
C3 C 0.3378(8) -0.1977(5) 0.1912(5)
H11 H 0.3889 -0.1942 0.1524
H12 H 0.2485 -0.2432 0.1459
H13 H 0.3727 -0.2217 0.2360
C7 C 0.2645(6) -0.0900(5) 0.3063(5)
H20 H 0.1771 -0.1419 0.2611
H21 H 0.2576 -0.0250 0.3279
C11 C 0.2321(5) -0.0898(4) 0.4585(5)
H25 H 0.1505 -0.1490 0.4237
H26 H 0.2113 -0.0313 0.4672
C15 C 0.3107(7) -0.0758(5) 0.5619(6)
H30 H 0.2613 -0.0651 0.6036
H31 H 0.3258 -0.1365 0.5529
C19 C 0.4686(7) -0.0178(5) 0.2964(4)
H35 H 0.5041 -0.0287 0.2452
H36 H 0.4591 0.0461 0.3153
C22 C 0.4390(4) 0.1945(3) 0.5531(3)
C25 C 0.4559(4) 0.2841(3) 0.5352(3)
C28 C 0.4665(4) 0.2812(3) 0.4488(3)
H38 H 0.4620 0.2218 0.3988
C31 C 0.4838(4) 0.3647(3) 0.4345(3)
H41 H 0.4920 0.3612 0.3757
C34 C 0.4890(4) 0.4538(3) 0.5076(3)
C37 C 0.4808(7) 0.4561(4) 0.5932(5)
H44 H 0.4898 0.5162 0.6450
C40 C 0.4596(7) 0.3724(4) 0.6054(5)
H47 H 0.4475 0.3754 0.6628
O3 O 0.4576(3) 0.1225(2) 0.4917(2)
O4 O 0.4119(3) 0.1961(2) 0.6249(3)
Ni2_2 Ni 0.5000 1.0000 0.5000
N3A N 0.6573(7) 0.0955(4) 0.7480(4)
N6A N 0.6876(4) 0.1022(3) 0.6029(3)
H2A H 0.6883 0.1655 0.6244
N9A N 0.5661(4) -0.0090(3) 0.3882(3)
H5A H 0.5829 -0.0658 0.3673
C3A C 0.6622(8) 0.1977(5) 0.8088(5)
H11A H 0.6111 0.1942 0.8476
H12A H 0.7515 0.2432 0.8541
H13A H 0.6273 0.2217 0.7640
C7A C 0.7355(6) 0.0900(5) 0.6937(5)
H20A H 0.8229 0.1419 0.7389
H21A H 0.7424 0.0250 0.6721
C11A C 0.7679(5) 0.0898(4) 0.5415(5)
H25A H 0.8495 0.1490 0.5763
H26A H 0.7887 0.0313 0.5328
C15A C 0.6893(7) 0.0758(5) 0.4381(6)
H30A H 0.7387 0.0651 0.3964
H31A H 0.6742 0.1365 0.4471
C19A C 0.5314(7) 0.0178(5) 0.7036(4)
H35A H 0.4959 0.0287 0.7548
H36A H 0.5409 -0.0461 0.6847
C22A C 0.5610(4) 0.8055(3) 0.4469(3)
C25A C 0.5441(4) 0.7159(3) 0.4648(3)
C28A C 0.5335(4) 0.7188(3) 0.5512(3)
H38A H 0.5380 0.7782 0.6012
C31A C 0.5162(4) 0.6353(3) 0.5655(3)
H41A H 0.5080 0.6388 0.6243
C34A C 0.5110(4) 0.5462(3) 0.4924(3)
C37A C 0.5192(7) 0.5439(4) 0.4068(5)
H44A H 0.5102 0.4838 0.3550
C40A C 0.5404(7) 0.6276(4) 0.3946(5)
H47A H 0.5525 0.6246 0.3372
O3A O 0.5424(3) 0.8775(2) 0.5083(2)
O3A_2 O 0.5424(3) -0.1225(2) 0.5083(2)
O4A O 0.5881(3) 0.8039(2) 0.3751(3)
Ni3 Ni 0.0000 0.5000 0.5000
N4 N -0.0235(5) 0.6808(3) 0.4450(4)
N7 N -0.1135(4) 0.5827(3) 0.5172(3)
H3 H -0.1910 0.5458 0.4613
N10 N -0.0541(4) 0.4564(3) 0.5974(3)
H6 H 0.0133 0.4947 0.6601
C4 C -0.1305(7) 0.6453(5) 0.3444(5)
H14 H -0.1925 0.6750 0.3551
H15 H -0.1740 0.5730 0.3101
H16 H -0.0934 0.6654 0.3037
C8 C -0.0631(6) 0.6803(4) 0.5257(5)
C12 C -0.1425(6) 0.5852(5) 0.6066(4)
C16 C -0.1668(6) 0.4836(6) 0.6035(5)
C20 C 0.0821(6) 0.6524(4) 0.4332(5)
C23 C -0.2586(4) 0.3556(3) 0.3046(3)
C26 C -0.3321(3) 0.2473(3) 0.2153(3)
C29 C -0.3077(4) 0.1685(3) 0.2185(3)
H39 H -0.2446 0.1797 0.2776
C32 C -0.3738(4) 0.0704(3) 0.1359(3)
H42 H -0.3562 0.0175 0.1418
C35 C -0.4660(3) 0.0511(3) 0.0448(3)
C38 C -0.4873(4) 0.1344(3) 0.0424(3)
H45 H -0.5453 0.1255 -0.0177
C41 C -0.4247(4) 0.2293(3) 0.1266(3)
H48 H -0.4454 0.2822 0.1235
O5 O -0.1590(3) 0.3691(2) 0.3739(2)
O6 O -0.3035(3) 0.4189(2) 0.3052(2)
Ni3_2 Ni -1.0000 -0.5000 -0.5000
N4A N 0.0235(5) 0.3192(3) 0.5550(4)
N7A N 0.1135(4) 0.4173(3) 0.4828(3)
H3A H 0.1910 0.4542 0.5387
N10A N 0.0541(4) 0.5436(3) 0.4026(3)
H6A H -0.0133 0.5053 0.3399
C4A C 0.1305(7) 0.3547(5) 0.6556(5)
H14A H 0.1925 0.3250 0.6449
H15A H 0.1740 0.4270 0.6899
H16A H 0.0934 0.3346 0.6963
C8A C 0.0631(6) 0.3197(4) 0.4743(5)
C12A C 0.1425(6) 0.4148(5) 0.3934(4)
C16A C 0.1668(6) 0.5164(6) 0.3965(5)
C20A C -0.0821(6) 0.3476(4) 0.5668(5)
C23A C -0.7414(4) -0.3556(3) -0.3046(3)
C26A C -0.6679(3) -0.2473(3) -0.2153(3)
C29A C -0.6923(4) -0.1685(3) -0.2185(3)
H39A H -0.7554 -0.1797 -0.2776
C32A C -0.6262(4) -0.0704(3) -0.1359(3)
H42A H -0.6438 -0.0175 -0.1418
C35A C -0.5340(3) -0.0511(3) -0.0448(3)
C38A C -0.5127(4) -0.1344(3) -0.0424(3)
H45A H -0.4547 -0.1255 0.0177
C41A C -0.5753(4) -0.2293(3) -0.1266(3)
H48A H -0.5546 -0.2822 -0.1235
O5A O -0.8410(3) -0.3691(2) -0.3739(2)
O5A_2 O 0.1590(3) 0.6309(2) 0.6261(2)
O6A O -0.6965(3) -0.4189(2) -0.3052(2)
N1 N 0.7460(19) 0.464(2) 0.0376(12)
C1 C 0.794(2) 0.4170(19) 0.0771(15)
H7 H 0.7380 0.3542 0.0627
C5 C 0.895(4) 0.4454(14) 0.1262(17)
H17 H 0.9202 0.4081 0.1560
C9 C 0.9992(15) 0.541(2) 0.1504(9)
H22 H 1.0888 0.5596 0.1827
C13 C 0.944(3) 0.5988(18) 0.118(2)
H27 H 1.0016 0.6613 0.1333
C17 C 0.808(3) 0.572(2) 0.0641(17)
H32 H 0.7682 0.6123 0.0489
O7 O 0.4197(5) 0.3440(3) 0.8107(3)
O8 O 0.5259(4) 0.4593(3) 0.1651(3)
O9 O 0.4045(4) 0.3056(3) 0.9657(3)
loop_
_geom_bond_atom_site_label_1
_geom_bond_atom_site_label_2
_geom_bond_site_symmetry_1
_geom_bond_site_symmetry_2
Ni1 N5 1_555 1_555
Ni2 N6 1_555 1_555
Ni3 N7 1_555 1_555
N1 C1 1_555 1_555
N2 C2 1_555 1_555
N3 C3 1_555 1_555
N4 C4 1_555 1_555
N5 H1 1_555 1_555
N6 H2 1_555 1_555
N7 H3 1_555 1_555
N8 Ni1 1_555 1_555
H4 N8 1_555 1_555
N9 Ni2 1_555 1_555
H5 N9 1_555 1_555
N10 Ni3 1_555 1_555
H6 N10 1_555 1_555
C1 H7 1_555 1_555
C2 H8 1_555 1_555
H9 C2 1_555 1_555
H10 C2 1_555 1_555
C3 H11 1_555 1_555
H12 C3 1_555 1_555
H13 C3 1_555 1_555
C4 H14 1_555 1_555
H15 C4 1_555 1_555
H16 C4 1_555 1_555
C5 C1 1_555 1_555
H17 C5 1_555 1_555
C6 N2 1_555 1_555
H18 C6 1_555 1_555
H19 C6 1_555 1_555
C7 N3 1_555 1_555
H20 C7 1_555 1_555
H21 C7 1_555 1_555
C8 N4 1_555 1_555
C9 C5 1_555 1_555
H22 C9 1_555 1_555
C10 N5 1_555 1_555
H23 C10 1_555 1_555
H24 C10 1_555 1_555
C11 N6 1_555 1_555
H25 C11 1_555 1_555
H26 C11 1_555 1_555
C12 N7 1_555 1_555
C13 C9 1_555 1_555
H27 C13 1_555 1_555
C14 N8 1_555 1_555
H28 C14 1_555 1_555
H29 C14 1_555 1_555
C15 N9 1_555 1_555
H30 C15 1_555 1_555
H31 C15 1_555 1_555
C16 N10 1_555 1_555
C17 N1 1_555 1_555
H32 C17 1_555 1_555
C18 N2 1_555 1_555
H33 C18 1_555 1_555
H34 C18 1_555 1_555
C19 N3 1_555 1_555
H35 C19 1_555 1_555
H36 C19 1_555 1_555
C20 N4 1_555 1_555
C21 C24 1_555 1_555
C22 C25 1_555 1_555
C23 C26 1_555 1_555
C24 C27 1_555 1_555
C25 C28 1_555 1_555
C26 C29 1_555 1_555
C27 H37 1_555 1_555
C28 H38 1_555 1_555
C29 H39 1_555 1_555
C30 C27 1_555 1_555
H40 C30 1_555 1_555
C31 C28 1_555 1_555
H41 C31 1_555 1_555
C32 C29 1_555 1_555
H42 C32 1_555 1_555
C33 C30 1_555 1_555
C34 C31 1_555 1_555
C35 C32 1_555 1_555
C36 C33 1_555 1_555
H43 C36 1_555 1_555
C37 C34 1_555 1_555
H44 C37 1_555 1_555
C38 C35 1_555 1_555
H45 C38 1_555 1_555
C39 C24 1_555 1_555
H46 C39 1_555 1_555
C40 C25 1_555 1_555
H47 C40 1_555 1_555
C41 C26 1_555 1_555
H48 C41 1_555 1_555
O1 Ni1 1_555 1_555
O2 C21 1_555 1_555
O3 Ni2 1_555 1_555
O4 C22 1_555 1_555
O5 Ni3 1_555 1_555
O6 C23 1_555 1_555
Ni1_2 O1A 1_555 1_555
Ni2_2 O3A 1_555 1_555
Ni3_2 O5A 1_555 1_555
N2A C2A 1_555 1_555
N3A C3A 1_555 1_555
N4A C4A 1_555 1_555
N5A Ni1 1_555 1_555
H1A N5A 1_555 1_555
N6A Ni2 1_555 1_555
H2A N6A 1_555 1_555
N7A Ni3 1_555 1_555
H3A N7A 1_555 1_555
N8A Ni1 1_555 1_555
H4A N8A 1_555 1_555
N9A Ni2 1_555 1_555
H5A N9A 1_555 1_555
N10A Ni3 1_555 1_555
H6A N10A 1_555 1_555
C2A H8A 1_555 1_555
H9A C2A 1_555 1_555
H10A C2A 1_555 1_555
C3A H11A 1_555 1_555
H12A C3A 1_555 1_555
H13A C3A 1_555 1_555
C4A H14A 1_555 1_555
H15A C4A 1_555 1_555
H16A C4A 1_555 1_555
C6A N2A 1_555 1_555
H18A C6A 1_555 1_555
H19A C6A 1_555 1_555
C7A N3A 1_555 1_555
H20A C7A 1_555 1_555
H21A C7A 1_555 1_555
C8A N4A 1_555 1_555
C10A N5A 1_555 1_555
H23A C10A 1_555 1_555
H24A C10A 1_555 1_555
C11A N6A 1_555 1_555
H25A C11A 1_555 1_555
H26A C11A 1_555 1_555
C12A N7A 1_555 1_555
C14A N8A 1_555 1_555
H28A C14A 1_555 1_555
H29A C14A 1_555 1_555
C15A N9A 1_555 1_555
H30A C15A 1_555 1_555
H31A C15A 1_555 1_555
C16A N10A 1_555 1_555
C18A N8 1_555 1_555
H33A C18A 1_555 1_555
H34A C18A 1_555 1_555
C19A N9 1_555 1_555
H35A C19A 1_555 1_555
H36A C19A 1_555 1_555
C20A N10 1_555 1_555
C21A C24A 1_555 1_555
C22A C25A 1_555 1_555
C23A C26A 1_555 1_555
C24A C27A 1_555 1_555
C25A C28A 1_555 1_555
C26A C29A 1_555 1_555
C27A H37A 1_555 1_555
C28A H38A 1_555 1_555
C29A H39A 1_555 1_555
C30A C27A 1_555 1_555
H40A C30A 1_555 1_555
C31A C28A 1_555 1_555
H41A C31A 1_555 1_555
C32A C29A 1_555 1_555
H42A C32A 1_555 1_555
C33A C33 1_555 1_555
C34A C34 1_555 1_555
C35A C35 1_555 1_555
C36A C33A 1_555 1_555
H43A C36A 1_555 1_555
C37A C34A 1_555 1_555
H44A C37A 1_555 1_555
C38A C35A 1_555 1_555
H45A C38A 1_555 1_555
C39A C24A 1_555 1_555
H46A C39A 1_555 1_555
C40A C25A 1_555 1_555
H47A C40A 1_555 1_555
C41A C26A 1_555 1_555
H48A C41A 1_555 1_555
O1A C21A 1_555 1_555
O1A_2 Ni1 1_555 1_555
O2A C21A 1_555 1_555
O3A C22A 1_555 1_555
O3A_2 Ni2 1_555 1_555
O4A C22A 1_555 1_555
O5A C23A 1_555 1_555
O5A_2 Ni3 1_555 1_555
O6A C23A 1_555 1_555
N5 C6 1_555 1_555
N6 C7 1_555 1_555
N7 C8 1_555 1_555
C10 C14 1_555 1_555
C11 C15 1_555 1_555
C12 C16 1_555 1_555
C13 C17 1_555 1_555
C18 N8A 1_555 1_555
C19 N9A 1_555 1_555
C20 N10A 1_555 1_555
C21 O1 1_555 1_555
C22 O3 1_555 1_555
C23 O5 1_555 1_555
C36 C39 1_555 1_555
C37 C40 1_555 1_555
C38 C41 1_555 1_555
N2A C18A 1_555 1_555
N3A C19A 1_555 1_555
N4A C20A 1_555 1_555
N5A C6A 1_555 1_555
N6A C7A 1_555 1_555
N7A C8A 1_555 1_555
C10A C14A 1_555 1_555
C11A C15A 1_555 1_555
C12A C16A 1_555 1_555
C30A C33A 1_555 1_555
C31A C34A 1_555 1_555
C32A C35A 1_555 1_555
C36A C39A 1_555 1_555
C37A C40A 1_555 1_555
C38A C41A 1_555 1_555

#END
