
#######################################################################
#
#                 Cambridge Crystallographic Data Centre
#                                CCDC 
#
#######################################################################
#
# If this CIF has been generated from an entry in the Cambridge 
# Structural Database, then it will include bibliographic, chemical, 
# crystal, experimental, refinement or atomic coordinate data resulting 
# from the CCDC's data processing and validation procedures.
#
#######################################################################

data_NAHQEU
_symmetry_cell_setting           triclinic
_symmetry_space_group_name_H-M   'P -1'
_symmetry_Int_Tables_number      2
_space_group_name_Hall           '-P 1'
loop_
_symmetry_equiv_pos_site_id
_symmetry_equiv_pos_as_xyz
1 x,y,z
2 -x,-y,-z
_cell_length_a                   7.302(5)
_cell_length_b                   7.510(5)
_cell_length_c                   9.400(5)
_cell_angle_alpha                110.800(5)
_cell_angle_beta                 101.329(5)
_cell_angle_gamma                94.472(5)
_cell_volume                     466.315
loop_
_atom_site_label
_atom_site_type_symbol
_atom_site_fract_x
_atom_site_fract_y
_atom_site_fract_z
Cs1 Cs 0.66913(3) 0.90397(3) 0.28415(2)
I1 I 0.64163(3) 0.33871(3) 0.15597(2)
O1 O 0.9229(3) 0.7956(3) 0.0455(2)
O2 O 0.6525(4) 0.2557(3) -0.4161(3)
N1 N 0.7714(4) 0.5382(4) -0.4229(3)
N2 N 0.8852(4) 0.8112(4) -0.1931(3)
O3 O 0.8836(4) 0.8247(3) -0.4294(3)
C1 C 0.8786(4) 0.7117(4) -0.0972(3)
C2 C 0.7386(5) 0.4194(4) -0.3451(3)
C3 C 0.8231(4) 0.4992(4) -0.1741(3)
H1 H 0.9345 0.4409 -0.1549
H2 H 0.7332 0.4594 -0.1234
C4 C 0.8494(5) 0.7312(4) -0.3540(3)
H3 H 0.755(5) 0.495(5) -0.515(4)
H4 H 0.928(4) 0.923(4) -0.150(3)
Cs1_2 Cs 0.66913(3) -0.09603(3) 0.28415(2)
Cs1A Cs 0.33087(3) 0.09603(3) -0.28415(2)
Cs1_3 Cs 0.66913(3) -0.09603(3) -0.71585(2)
Cs1A_2 Cs 1.33087(3) 1.09603(3) -0.28415(2)
Cs1_4 Cs 0.66913(3) 0.90397(3) -0.71585(2)
I1_2 I 0.64163(3) 1.33871(3) 0.15597(2)
I1A I 0.35837(3) 0.66129(3) -0.15597(2)
O2A O 0.3475(4) 0.7443(3) 0.4161(3)
O2_2 O 0.6525(4) 1.2557(3) 0.5839(3)
O3A O 1.1164(4) 1.1753(3) 0.4294(3)
O3_2 O 0.8836(4) 0.8247(3) 0.5706(3)
loop_
_geom_bond_atom_site_label_1
_geom_bond_atom_site_label_2
_geom_bond_site_symmetry_1
_geom_bond_site_symmetry_2
Cs1 I1 1_555 1_555
I1 Cs1_2 1_555 1_555
O1 Cs1 1_555 1_555
O2 C2 1_555 1_555
N1 C2 1_555 1_555
N2 C1 1_555 1_555
O3 C4 1_555 1_555
C1 O1 1_555 1_555
C2 C3 1_555 1_555
C3 C1 1_555 1_555
H1 C3 1_555 1_555
H2 C3 1_555 1_555
C4 N1 1_555 1_555
H3 N1 1_555 1_555
H4 N2 1_555 1_555
Cs1A I1 1_555 1_555
Cs1_3 O2 1_555 1_555
Cs1A_2 O3 1_555 1_555
Cs1_4 O3 1_555 1_555
I1_2 Cs1 1_555 1_555
I1A Cs1 1_555 1_555
O2A Cs1 1_555 1_555
O2_2 Cs1 1_555 1_555
O3A Cs1 1_555 1_555
O3_2 Cs1 1_555 1_555
O2 Cs1A 1_555 1_555
N2 C4 1_555 1_555
Cs1A I1A 1_555 1_555

#END
