
#######################################################################
#
#                 Cambridge Crystallographic Data Centre
#                                CCDC 
#
#######################################################################
#
# If this CIF has been generated from an entry in the Cambridge 
# Structural Database, then it will include bibliographic, chemical, 
# crystal, experimental, refinement or atomic coordinate data resulting 
# from the CCDC's data processing and validation procedures.
#
#######################################################################

data_NAHQOE
_symmetry_cell_setting           orthorhombic
_symmetry_space_group_name_H-M   'P n m a'
_symmetry_Int_Tables_number      62
_space_group_name_Hall           '-P 2ac 2n'
loop_
_symmetry_equiv_pos_site_id
_symmetry_equiv_pos_as_xyz
1 x,y,z
2 1/2-x,-y,1/2+z
3 1/2+x,1/2-y,1/2-z
4 -x,1/2+y,-z
5 -x,-y,-z
6 1/2+x,y,1/2-z
7 1/2-x,1/2+y,1/2+z
8 x,1/2-y,z
_cell_length_a                   7.1308(3)
_cell_length_b                   7.8805(3)
_cell_length_c                   16.0515(6)
_cell_angle_alpha                90
_cell_angle_beta                 90
_cell_angle_gamma                90
_cell_volume                     902.002
loop_
_atom_site_label
_atom_site_type_symbol
_atom_site_fract_x
_atom_site_fract_y
_atom_site_fract_z
O1 O 0.3733(4) 0.0552(3) 0.24281(16)
O2 O 0.1574(3) 0.4506(3) 0.42291(15)
H1 H 0.319(4) 0.515(3) 0.5534(18)
H2 H 0.437(6) 0.001(5) 0.271(3)
H3 H 0.318(7) -0.028(6) 0.219(3)
Na1 Na 0.1396(3) 0.2500 0.30374(12)
O3 O 0.4260(5) 0.7500 0.63009(18)
C1 C 0.1207(6) 0.7500 0.4152(3)
H4 H 0.1531 0.7500 0.3565
H5 H -0.0151 0.7500 0.4188
C2 C 0.3402(5) 0.7500 0.5645(3)
N1 N 0.2887(3) 0.6017(3) 0.52515(15)
C3 C 0.1904(4) 0.5882(3) 0.45232(18)
O1B O -0.1267(4) 0.4448(3) 0.25719(16)
O1E O -0.1267(4) 0.0552(3) 0.25719(16)
O1G O 0.3733(4) 0.4448(3) 0.24281(16)
O2G O 0.1574(3) 1.0494(3) 0.42291(15)
O2G_2 O 0.1574(3) 0.0494(3) 0.42291(15)
H1G H 0.319(4) 0.985(3) 0.5534(18)
H2B H -0.063(6) 0.499(5) 0.229(3)
H2E H -0.063(6) 0.001(5) 0.229(3)
H2G H 0.437(6) 0.499(5) 0.271(3)
H3B H -0.182(7) 0.528(6) 0.281(3)
H3E H -0.182(7) -0.028(6) 0.281(3)
H3G H 0.318(7) 0.528(6) 0.219(3)
Na1B Na 0.6396(3) 0.2500 0.19626(12)
Na1A Na 0.3604(3) 0.7500 0.80374(12)
Na1_2 Na 0.1396(3) 1.2500 0.30374(12)
Na1B_2 Na -0.3604(3) 0.2500 0.19626(12)
O3A O 0.0740(5) 0.2500 0.13009(18)
N1G N 0.2887(3) 0.8983(3) 0.52515(15)
C3G C 0.1904(4) 0.9118(3) 0.45232(18)
Br1 Br 0.60915(5) 0.7500 0.35670(3)
loop_
_geom_bond_atom_site_label_1
_geom_bond_atom_site_label_2
_geom_bond_site_symmetry_1
_geom_bond_site_symmetry_2
O1 H2 1_555 1_555
O2 Na1 1_555 1_555
H1 N1 1_555 1_555
H3 O1 1_555 1_555
Na1 O1 1_555 1_555
O3 C2 1_555 1_555
C1 H4 1_555 1_555
H5 C1 1_555 1_555
C2 N1 1_555 1_555
N1 C3 1_555 1_555
C3 O2 1_555 1_555
O1B Na1 1_555 1_555
O1E Na1 1_555 1_555
O1G Na1 1_555 1_555
O2G Na1_2 1_555 1_555
O2G_2 Na1 1_555 1_555
H1G N1G 1_555 1_555
H2B O1B 1_555 1_555
H2E O1E 1_555 1_555
H2G O1G 1_555 1_555
H3B O1B 1_555 1_555
H3E O1E 1_555 1_555
H3G O1G 1_555 1_555
Na1B O1 1_555 1_555
Na1A O3 1_555 1_555
Na1B_2 O1B 1_555 1_555
O3A Na1 1_555 1_555
N1G C2 1_555 1_555
C3G C1 1_555 1_555
C1 C3 1_555 1_555
O1E Na1B_2 1_555 1_555
O1G Na1B 1_555 1_555
O2G C3G 1_555 1_555
N1G C3G 1_555 1_555

#END
