
#######################################################################
#
#                 Cambridge Crystallographic Data Centre
#                                CCDC 
#
#######################################################################
#
# If this CIF has been generated from an entry in the Cambridge 
# Structural Database, then it will include bibliographic, chemical, 
# crystal, experimental, refinement or atomic coordinate data resulting 
# from the CCDC's data processing and validation procedures.
#
#######################################################################

data_NAHQUK
_symmetry_cell_setting           monoclinic
_symmetry_space_group_name_H-M   'P 21/n'
_symmetry_Int_Tables_number      14
_space_group_name_Hall           '-P 2yn'
loop_
_symmetry_equiv_pos_site_id
_symmetry_equiv_pos_as_xyz
1 x,y,z
2 1/2-x,1/2+y,1/2-z
3 -x,-y,-z
4 1/2+x,1/2-y,1/2+z
_cell_length_a                   8.984(5)
_cell_length_b                   8.756(5)
_cell_length_c                   10.296(5)
_cell_angle_alpha                90
_cell_angle_beta                 92.949(5)
_cell_angle_gamma                90
_cell_volume                     808.851
loop_
_atom_site_label
_atom_site_type_symbol
_atom_site_fract_x
_atom_site_fract_y
_atom_site_fract_z
Rb1 Rb 0.21903(7) -0.11084(9) 0.37552(7)
Br1 Br 0.48218(7) 0.17312(9) 0.35773(7)
O1 O 0.1679(5) -0.3934(6) 0.5193(5)
O2 O 0.5625(5) -0.6406(6) 0.7073(5)
O3 O 0.1246(5) -0.9014(6) 0.5792(5)
N1 N 0.3662(6) -0.5185(8) 0.6124(6)
C1 C 0.1995(7) -0.7843(9) 0.5940(6)
C2 C 0.4347(7) -0.6451(9) 0.6659(6)
C3 C 0.2261(7) -0.5127(9) 0.5546(6)
C4 C 0.3404(7) -0.7819(8) 0.6715(7)
H1 H 0.3990 -0.8687 0.6454
H2 H 0.3181 -0.7980 0.7617
N2 N 0.1507(7) -0.6474(8) 0.5417(6)
H3 H 0.404(7) -0.434(8) 0.609(6)
H4 H 0.070(9) -0.645(10) 0.533(8)
Rb1A Rb 0.28097(7) 0.38916(9) 0.12448(7)
Rb1B Rb 0.78097(7) 0.11084(9) 0.62448(7)
Rb1B_2 Rb 0.78097(7) -0.88916(9) 0.62448(7)
Rb1C Rb 0.71903(7) -0.38916(9) 0.87552(7)
Rb1_2 Rb 0.21903(7) -1.11084(9) 0.37552(7)
Rb1B_3 Rb -0.21903(7) -0.88916(9) 0.62448(7)
Br1A Br 0.01782(7) -0.32688(9) 0.14227(7)
Br1B Br 0.51782(7) -0.17312(9) 0.64227(7)
O2B O 0.4375(5) -0.3594(6) 0.2927(5)
O2C O 0.0625(5) 0.1406(6) 0.2073(5)
O3_2 O 0.1246(5) 0.0986(6) 0.5792(5)
O3B O -0.1246(5) -0.0986(6) 0.4208(5)
loop_
_geom_bond_atom_site_label_1
_geom_bond_atom_site_label_2
_geom_bond_site_symmetry_1
_geom_bond_site_symmetry_2
Rb1 Br1 1_555 1_555
Br1 Rb1A 1_555 1_555
O1 Rb1 1_555 1_555
O2 C2 1_555 1_555
O3 C1 1_555 1_555
N1 C2 1_555 1_555
C1 C4 1_555 1_555
C2 C4 1_555 1_555
C3 O1 1_555 1_555
C4 H1 1_555 1_555
H2 C4 1_555 1_555
N2 C1 1_555 1_555
H3 N1 1_555 1_555
H4 N2 1_555 1_555
Rb1A O2C 1_555 1_555
Rb1B Br1 1_555 1_555
Rb1B_2 O2 1_555 1_555
Rb1C O2 1_555 1_555
Rb1_2 O3 1_555 1_555
Rb1B_3 O3 1_555 1_555
Br1A Rb1 1_555 1_555
Br1B Rb1 1_555 1_555
O2B Rb1 1_555 1_555
O2C Rb1 1_555 1_555
O3_2 Rb1 1_555 1_555
O3B Rb1 1_555 1_555
N1 C3 1_555 1_555
C3 N2 1_555 1_555
Rb1B Br1B 1_555 1_555
Rb1C Br1B 1_555 1_555

#END
