
#######################################################################
#
#                 Cambridge Crystallographic Data Centre
#                                CCDC 
#
#######################################################################
#
# If this CIF has been generated from an entry in the Cambridge 
# Structural Database, then it will include bibliographic, chemical, 
# crystal, experimental, refinement or atomic coordinate data resulting 
# from the CCDC's data processing and validation procedures.
#
#######################################################################

data_NAHQAQ
_symmetry_cell_setting           monoclinic
_symmetry_space_group_name_H-M   'P 21/n'
_symmetry_Int_Tables_number      14
_space_group_name_Hall           '-P 2yn'
loop_
_symmetry_equiv_pos_site_id
_symmetry_equiv_pos_as_xyz
1 x,y,z
2 1/2-x,1/2+y,1/2-z
3 -x,-y,-z
4 1/2+x,1/2-y,1/2+z
_cell_length_a                   9.0870(5)
_cell_length_b                   9.1380(4)
_cell_length_c                   10.4000(6)
_cell_angle_alpha                90
_cell_angle_beta                 91.345(6)
_cell_angle_gamma                90
_cell_volume                     863.347
loop_
_atom_site_label
_atom_site_type_symbol
_atom_site_fract_x
_atom_site_fract_y
_atom_site_fract_z
Cs1 Cs 0.22545(3) 0.60940(3) -0.13011(3)
Br1 Br 0.49416(5) 0.31958(5) -0.13643(5)
O1 O 0.1229(3) 0.3860(3) 0.0761(3)
O2 O 0.1617(3) -0.1031(3) 0.0241(3)
N1 N 0.3566(4) 0.0158(4) 0.1114(4)
O3 O 0.5525(3) 0.1311(3) 0.2016(4)
C1 C 0.3346(5) 0.2727(5) 0.1694(5)
H1 H 0.3108 0.2883 0.2588
H2 H 0.3941 0.3551 0.1429
C2 C 0.1960(4) 0.2749(5) 0.0926(4)
C3 C 0.2187(4) 0.0114(5) 0.0570(4)
N2 N 0.1479(4) 0.1443(4) 0.0441(4)
C4 C 0.4264(5) 0.1381(5) 0.1617(4)
H3 H 0.062(4) 0.141(4) 0.016(4)
H4 H 0.397(5) -0.056(5) 0.110(5)
Cs1A Cs 0.27455(3) 0.10940(3) -0.36989(3)
Cs1B Cs 0.77455(3) 0.39060(3) 0.13011(3)
Cs1B_2 Cs -0.22545(3) 0.39060(3) 0.13011(3)
Cs1_2 Cs 0.22545(3) -0.39060(3) -0.13011(3)
Cs1C Cs 0.72545(3) -0.10940(3) 0.36989(3)
Br1A Br 0.00584(5) 0.81958(5) -0.36357(5)
Br1B Br 0.50584(5) 0.68042(5) 0.13643(5)
O1B O -0.1229(3) 0.6140(3) -0.0761(3)
O2_2 O 0.1617(3) 0.8969(3) 0.0241(3)
O3B O 0.4475(3) 0.8689(3) -0.2016(4)
O3C O 0.0525(3) 0.3689(3) -0.2984(4)
loop_
_geom_bond_atom_site_label_1
_geom_bond_atom_site_label_2
_geom_bond_site_symmetry_1
_geom_bond_site_symmetry_2
Cs1 Br1 1_555 1_555
Br1 Cs1A 1_555 1_555
O1 Cs1 1_555 1_555
O2 C3 1_555 1_555
N1 C3 1_555 1_555
O3 C4 1_555 1_555
C1 H1 1_555 1_555
H2 C1 1_555 1_555
C2 O1 1_555 1_555
C3 N2 1_555 1_555
N2 C2 1_555 1_555
C4 N1 1_555 1_555
H3 N2 1_555 1_555
H4 N1 1_555 1_555
Cs1A O3C 1_555 1_555
Cs1B Br1 1_555 1_555
Cs1B_2 O1 1_555 1_555
Cs1_2 O2 1_555 1_555
Cs1C O3 1_555 1_555
Br1A Cs1 1_555 1_555
Br1B Cs1 1_555 1_555
O1B Cs1 1_555 1_555
O2_2 Cs1 1_555 1_555
O3B Cs1 1_555 1_555
O3C Cs1 1_555 1_555
O3 Cs1B 1_555 1_555
C1 C2 1_555 1_555
C1 C4 1_555 1_555
Cs1B Br1B 1_555 1_555
Cs1B_2 O1B 1_555 1_555

#END
