
#######################################################################
#
#                 Cambridge Crystallographic Data Centre
#                                CCDC 
#
#######################################################################
#
# If this CIF has been generated from an entry in the Cambridge 
# Structural Database, then it will include bibliographic, chemical, 
# crystal, experimental, refinement or atomic coordinate data resulting 
# from the CCDC's data processing and validation procedures.
#
#######################################################################

data_NAHRAR
_symmetry_cell_setting           orthorhombic
_symmetry_space_group_name_H-M   'P n m a'
_symmetry_Int_Tables_number      62
_space_group_name_Hall           '-P 2ac 2n'
loop_
_symmetry_equiv_pos_site_id
_symmetry_equiv_pos_as_xyz
1 x,y,z
2 1/2-x,-y,1/2+z
3 1/2+x,1/2-y,1/2-z
4 -x,1/2+y,-z
5 -x,-y,-z
6 1/2+x,y,1/2-z
7 1/2-x,1/2+y,1/2+z
8 x,1/2-y,z
_cell_length_a                   7.223(2)
_cell_length_b                   8.3270(10)
_cell_length_c                   17.384(3)
_cell_angle_alpha                90
_cell_angle_beta                 90
_cell_angle_gamma                90
_cell_volume                     1045.58
loop_
_atom_site_label
_atom_site_type_symbol
_atom_site_fract_x
_atom_site_fract_y
_atom_site_fract_z
Rb1 Rb 0.33508(9) -0.2500 0.68652(3)
C1 C 0.1269(8) -0.2500 1.0599(3)
H1 H -0.0058 -0.2500 1.0513
H2 H 0.1464 -0.2500 1.1151
O1 O 0.1075(5) -0.0019(4) 0.7654(2)
O2 O 0.4298(6) -0.2500 0.8614(2)
O3 O 0.1783(5) 0.0352(3) 1.05737(17)
N1 N 0.2988(5) -0.1097(4) 0.95958(18)
C2 C 0.2034(6) -0.0951(5) 1.0283(2)
C3 C 0.3478(8) -0.2500 0.9224(3)
H3 H 0.154(7) 0.052(5) 0.791(2)
H4 H 0.323(7) -0.031(5) 0.936(2)
H5 H 0.074(11) 0.053(8) 0.721(3)
Rb1B Rb -0.16492(9) -0.2500 0.81348(3)
Rb1B_2 Rb 0.83508(9) -0.2500 0.81348(3)
Rb1A Rb 0.16492(9) 0.2500 1.18652(3)
Rb1A_2 Rb 0.16492(9) -0.7500 1.18652(3)
O1B O 0.6075(5) -0.4981(4) 0.7346(2)
O1E O 0.6075(5) -0.0019(4) 0.7346(2)
O1G O 0.1075(5) -0.4981(4) 0.7654(2)
O2B O -0.0702(6) -0.2500 0.6386(2)
O3G O 0.1783(5) -0.5352(3) 1.05737(17)
O3A O 0.3217(5) -0.0352(3) 0.55737(17)
O3F O 0.3217(5) -0.4648(3) 0.55737(17)
N1G N 0.2988(5) -0.3903(4) 0.95958(18)
C2G C 0.2034(6) -0.4049(5) 1.0283(2)
H3B H 0.654(7) -0.552(5) 0.709(2)
H3E H 0.654(7) 0.052(5) 0.709(2)
H3G H 0.154(7) -0.552(5) 0.791(2)
H4G H 0.323(7) -0.469(5) 0.936(2)
H5B H 0.574(11) -0.553(8) 0.779(3)
H5E H 0.574(11) 0.053(8) 0.779(3)
H5G H 0.074(11) -0.553(8) 0.721(3)
Br1 Br -0.10006(9) 0.2500 0.63280(3)
loop_
_geom_bond_atom_site_label_1
_geom_bond_atom_site_label_2
_geom_bond_site_symmetry_1
_geom_bond_site_symmetry_2
Rb1 O1 1_555 1_555
C1 H1 1_555 1_555
H2 C1 1_555 1_555
O1 H3 1_555 1_555
O2 Rb1 1_555 1_555
O3 C2 1_555 1_555
N1 C2 1_555 1_555
C2 C1 1_555 1_555
C3 O2 1_555 1_555
H4 N1 1_555 1_555
H5 O1 1_555 1_555
Rb1B O1 1_555 1_555
Rb1B_2 O2 1_555 1_555
Rb1A O3 1_555 1_555
Rb1A_2 O3G 1_555 1_555
O1B Rb1 1_555 1_555
O1E Rb1 1_555 1_555
O1G Rb1 1_555 1_555
O2B Rb1 1_555 1_555
O3G C2G 1_555 1_555
O3A Rb1 1_555 1_555
O3F Rb1 1_555 1_555
N1G C3 1_555 1_555
C2G C1 1_555 1_555
H3B O1B 1_555 1_555
H3E O1E 1_555 1_555
H3G O1G 1_555 1_555
H4G N1G 1_555 1_555
H5B O1B 1_555 1_555
H5E O1E 1_555 1_555
H5G O1G 1_555 1_555
N1 C3 1_555 1_555
Rb1B O1G 1_555 1_555
Rb1B O2B 1_555 1_555
Rb1B_2 O1B 1_555 1_555
Rb1B_2 O1E 1_555 1_555
N1G C2G 1_555 1_555

#END
