
#######################################################################
#
#                 Cambridge Crystallographic Data Centre
#                                CCDC 
#
#######################################################################
#
# If this CIF has been generated from an entry in the Cambridge 
# Structural Database, then it will include bibliographic, chemical, 
# crystal, experimental, refinement or atomic coordinate data resulting 
# from the CCDC's data processing and validation procedures.
#
#######################################################################

data_NAHSQU01
_symmetry_cell_setting           monoclinic
_symmetry_space_group_name_H-M   'P c'
_symmetry_Int_Tables_number      7
_space_group_name_Hall           'P -2yc'
loop_
_symmetry_equiv_pos_site_id
_symmetry_equiv_pos_as_xyz
1 x,y,z
2 x,-y,1/2+z
_cell_length_a                   3.6239(10)
_cell_length_b                   8.1320(11)
_cell_length_c                   9.392(4)
_cell_angle_alpha                90
_cell_angle_beta                 97.97(3)
_cell_angle_gamma                90
_cell_volume                     274.105
loop_
_atom_site_label
_atom_site_type_symbol
_atom_site_fract_x
_atom_site_fract_y
_atom_site_fract_z
C1 C 0.3223(18) 0.5547(8) 0.2768(7)
C2 C 0.0859(18) 0.5585(9) 0.1439(7)
C3 C 0.0926(19) 0.7337(9) 0.1359(8)
C4 C 0.3383(19) 0.7378(8) 0.2784(8)
Na1 Na 0.4546(8) 0.1373(4) 0.3563(4)
O1 O -0.0992(14) 0.1342(6) 0.1946(5)
H1 H -0.1197 0.0357 0.1358
H2 H -0.1207 0.2304 0.1329
O2 O 0.4713(17) 0.4414(6) 0.3569(6)
O3 O -0.0862(13) 0.4435(6) 0.0638(5)
H3 H -0.2508 0.4671 -0.0028
O4 O -0.0347(15) 0.8401(6) 0.0462(6)
O5 O 0.482(2) 0.8418(6) 0.3596(8)
Na1_2 Na -0.5454(8) 0.1373(4) 0.3563(4)
Na1A Na -0.5454(8) 0.8627(4) -0.1437(4)
Na1A_2 Na 0.4546(8) 0.8627(4) -0.1437(4)
Na1_3 Na 0.4546(8) 1.1373(4) 0.3563(4)
O1_2 O 0.9008(14) 0.1342(6) 0.1946(5)
H1_2 H 0.8803 0.0357 0.1358
H2_2 H 0.8793 0.2304 0.1329
O4A O -0.0347(15) 0.1599(6) 0.5462(6)
O4A_2 O 0.9653(15) 0.1599(6) 0.5462(6)
O5_2 O 0.482(2) -0.1582(6) 0.3596(8)
loop_
_geom_bond_atom_site_label_1
_geom_bond_atom_site_label_2
_geom_bond_site_symmetry_1
_geom_bond_site_symmetry_2
C1 C2 1_555 1_555
C2 C3 1_555 1_555
C3 C4 1_555 1_555
C4 C1 1_555 1_555
Na1 O1 1_555 1_555
O1 H1 1_555 1_555
H2 O1 1_555 1_555
O2 C1 1_555 1_555
O3 C2 1_555 1_555
H3 O3 1_555 1_555
O4 C3 1_555 1_555
O5 C4 1_555 1_555
Na1_2 O1 1_555 1_555
Na1A O4 1_555 1_555
Na1A_2 O4 1_555 1_555
Na1_3 O5 1_555 1_555
O1_2 Na1 1_555 1_555
H1_2 O1_2 1_555 1_555
H2_2 O1_2 1_555 1_555
O4A Na1 1_555 1_555
O4A_2 Na1 1_555 1_555
O5_2 Na1 1_555 1_555
Na1 O2 1_555 1_555
Na1_2 O4A 1_555 1_555

#END
