
#######################################################################
#
#                 Cambridge Crystallographic Data Centre
#                                CCDC 
#
#######################################################################
#
# If this CIF has been generated from an entry in the Cambridge 
# Structural Database, then it will include bibliographic, chemical, 
# crystal, experimental, refinement or atomic coordinate data resulting 
# from the CCDC's data processing and validation procedures.
#
#######################################################################

data_NAHVEX
_symmetry_cell_setting           monoclinic
_symmetry_space_group_name_H-M   'P 21/c'
_symmetry_Int_Tables_number      14
_space_group_name_Hall           '-P 2ybc'
loop_
_symmetry_equiv_pos_site_id
_symmetry_equiv_pos_as_xyz
1 x,y,z
2 -x,1/2+y,1/2-z
3 -x,-y,-z
4 x,1/2-y,1/2+z
_cell_length_a                   10.565(17)
_cell_length_b                   3.866(1)
_cell_length_c                   35.431(34)
_cell_angle_alpha                90
_cell_angle_beta                 94.996(49)
_cell_angle_gamma                90
_cell_volume                     1441.66
loop_
_atom_site_label
_atom_site_type_symbol
_atom_site_fract_x
_atom_site_fract_y
_atom_site_fract_z
Cu1 Cu 0.2062 0.02680(10) 0.1322
Cl1 Cl 0.33340(10) 0.5480(3) 0.123
S1 S -0.28620(10) 0.0582(3) 0.08260
S2 S -0.31870(10) 0.3747(3) 0.0054
S3 S 0.09820(10) 0.0600(3) 0.28720
S4 S 0.33930(10) 0.3676(3) 0.3225
N1 N 0.0594(3) 0.0758(9) 0.09530(10)
N2 N -0.0964(3) 0.2583(9) 0.04270(10)
N3 N 0.1883(3) 0.0768(9) 0.18760(10)
N4 N 0.2937(3) 0.2628(9) 0.24930(10)
C1 C -0.0193(4) 0.1537(11) 0.07250(10)
C2 C -0.2194(3) 0.2314(10) 0.04390(10)
C3 C -0.4549(4) 0.0833(13) 0.07060(10)
C4 C -0.2054(4) 0.5246(14) -0.02570(10)
C5 C 0.2283(4) 0.1573(11) 0.21770(10)
C6 C 0.2473(4) 0.2331(10) 0.28230(10)
C7 C 0.0815(4) 0.0936(13) 0.33730(10)
C8 C 0.4795(4) 0.5198(14) 0.30260(10)
H1 H -0.478(4) 0.296(14) 0.0691(12)
H2 H -0.477(4) -0.024(15) 0.0476(13)
H3 H -0.498(4) -0.036(12) 0.0904(12)
H4 H -0.159(5) 0.373(15) -0.0319(14)
H5 H -0.249(4) 0.616(11) -0.0456(11)
H6 H -0.146(4) 0.702(11) -0.0126(11)
H7 H 0.079(4) 0.327(13) 0.3442(11)
H8 H 0.145(4) -0.055(11) 0.3517(11)
H9 H -0.001(4) -0.011(12) 0.3425(11)
H10 H 0.450(4) 0.679(11) 0.2817(11)
H11 H 0.524(4) 0.350(15) 0.2938(13)
H12 H 0.526(4) 0.623(12) 0.3199(12)
Cl1_2 Cl 0.33340(10) -0.4520(3) 0.123
Cu1_2 Cu 0.2062 -0.97320(10) 0.1322
loop_
_geom_bond_atom_site_label_1
_geom_bond_atom_site_label_2
_geom_bond_site_symmetry_1
_geom_bond_site_symmetry_2
Cu1 Cl1 1_555 1_555
S1 C2 1_555 1_555
S2 C2 1_555 1_555
S3 C6 1_555 1_555
S4 C6 1_555 1_555
N1 Cu1 1_555 1_555
N2 C1 1_555 1_555
N3 Cu1 1_555 1_555
N4 C5 1_555 1_555
C1 N1 1_555 1_555
C2 N2 1_555 1_555
C3 S1 1_555 1_555
C4 S2 1_555 1_555
C5 N3 1_555 1_555
C6 N4 1_555 1_555
C7 S3 1_555 1_555
C8 S4 1_555 1_555
H1 C3 1_555 1_555
H2 C3 1_555 1_555
H3 C3 1_555 1_555
H4 C4 1_555 1_555
H5 C4 1_555 1_555
H6 C4 1_555 1_555
H7 C7 1_555 1_555
H8 C7 1_555 1_555
H9 C7 1_555 1_555
H10 C8 1_555 1_555
H11 C8 1_555 1_555
H12 C8 1_555 1_555
Cl1_2 Cu1 1_555 1_555
Cu1_2 Cl1_2 1_555 1_555

#END
