
#######################################################################
#
#                 Cambridge Crystallographic Data Centre
#                                CCDC 
#
#######################################################################
#
# If this CIF has been generated from an entry in the Cambridge 
# Structural Database, then it will include bibliographic, chemical, 
# crystal, experimental, refinement or atomic coordinate data resulting 
# from the CCDC's data processing and validation procedures.
#
#######################################################################

data_NAJHEL
_symmetry_cell_setting           triclinic
_symmetry_space_group_name_H-M   'P -1'
_symmetry_Int_Tables_number      2
_space_group_name_Hall           '-P 1'
loop_
_symmetry_equiv_pos_site_id
_symmetry_equiv_pos_as_xyz
1 x,y,z
2 -x,-y,-z
_cell_length_a                   11.3394(3)
_cell_length_b                   12.231
_cell_length_c                   15.0405(4)
_cell_angle_alpha                101.3350(10)
_cell_angle_beta                 110.647(2)
_cell_angle_gamma                106.0360(10)
_cell_volume                     1773.02
loop_
_atom_site_label
_atom_site_type_symbol
_atom_site_fract_x
_atom_site_fract_y
_atom_site_fract_z
Sb1 Sb 0.2035(2) 0.2549(2) 0.3754(2)
F1 F 0.0770(20) 0.0995(19) 0.3225(19)
F2 F 0.3250(20) 0.4088(18) 0.4283(18)
F3 F 0.2810(20) 0.2160(20) 0.2902(16)
F4 F 0.3150(20) 0.2160(20) 0.4729(18)
F5 F 0.0890(20) 0.2940(20) 0.2732(17)
F6 F 0.1170(30) 0.2920(30) 0.4500(18)
Ag1 Ag -0.4418(2) -0.6885(2) 0.1286(2)
O1 O -0.5392(18) -0.5121(17) 0.1655(13)
O2 O -0.4033(18) -0.2731(17) 0.1651(13)
O3 O -0.9912(19) -0.6822(18) -0.2580(14)
O4 O -1.2380(20) -0.6940(20) -0.4009(15)
O5 O -0.4496(18) -0.9559(17) -0.2944(13)
O6 O -0.7401(18) -1.0415(16) -0.3982(13)
O7 O -0.2330(17) -0.7674(16) 0.1867(12)
O8 O -0.3480(18) -0.6771(17) 0.3073(13)
N1 N -0.6620(20) -0.4470(20) -0.0782(17)
N2 N -0.4180(20) -1.1220(20) -0.0938(17)
C1 C -0.7150(30) -0.5350(30) -0.0682(19)
C2 C -0.7810(20) -0.6430(20) -0.0506(18)
C3 C -0.7590(30) -0.6420(30) 0.0480(20)
C4 C -0.8240(20) -0.7500(20) 0.0579(19)
C5 C -0.9020(30) -0.8530(30) -0.0230(20)
C6 C -0.9240(30) -0.8510(30) -0.1170(20)
C7 C -0.8650(30) -0.7420(20) -0.1333(18)
C8 C -0.9720(30) -0.9560(20) -0.0091(19)
C9 C -0.3550(30) -1.0230(30) -0.0810(20)
C10 C -0.2750(30) -0.9040(30) -0.0650(20)
C11 C -0.2570(30) -0.8740(20) -0.1437(19)
C12 C -0.1790(20) -0.7540(20) -0.1235(18)
C13 C -0.1180(30) -0.6740(30) -0.0291(19)
C14 C -0.1380(30) -0.7080(30) 0.0500(20)
C15 C -0.2170(30) -0.8240(20) 0.0322(18)
C16 C -0.0340(30) -0.5500(20) -0.0070(20)
C17 C -0.6730(30) -0.5250(30) 0.1380(20)
C18 C -0.4490(30) -0.4010(30) 0.2540(20)
C19 C -0.4490(30) -0.2870(30) 0.2400(20)
C20 C -0.3990(30) -0.1680(30) 0.1430(20)
C21 C -0.8980(30) -0.7420(30) -0.2404(19)
C22 C -0.9940(30) -0.6280(30) -0.3320(20)
C23 C -1.1130(30) -0.5930(30) -0.3550(20)
C24 C -1.3430(30) -0.6770(30) -0.3800(20)
C25 C -0.3220(30) -0.9600(30) -0.2480(20)
C26 C -0.5300(30) -1.0500(20) -0.3914(18)
C27 C -0.6540(30) -1.0230(30) -0.4460(20)
C28 C -0.8560(30) -1.0150(30) -0.4440(20)
C29 C -0.2420(30) -0.8690(20) 0.1153(18)
C30 C -0.2310(30) -0.8000(20) 0.2726(18)
C31 C -0.2280(30) -0.6960(30) 0.3460(20)
C32 C -0.3690(30) -0.5990(30) 0.3800(20)
H1 H -0.8131 -0.7526 0.1229
H2 H -0.9791 -0.9231 -0.1730
H3 H -0.1673 -0.7286 -0.1766
H4 H -0.0982 -0.6504 0.1150
H5 H -0.6977 -0.5300 0.1949
H6 H -0.6888 -0.4554 0.1189
H7 H -0.3546 -0.3984 0.2767
H8 H -0.4756 -0.4086 0.3094
H9 H -0.3872 -0.2199 0.3036
H10 H -0.5414 -0.2860 0.2187
H11 H -0.3655 -0.1651 0.0911
H12 H -0.4910 -0.1670 0.1173
H13 H -0.3385 -0.0989 0.2033
H14 H -0.9408 -0.8252 -0.2882
H15 H -0.8156 -0.6979 -0.2466
H16 H -0.9093 -0.5565 -0.3071
H17 H -1.0029 -0.6855 -0.3930
H18 H -1.1128 -0.5447 -0.4004
H19 H -1.1059 -0.5423 -0.2919
H20 H -1.4238 -0.7513 -0.4146
H21 H -1.3148 -0.6542 -0.3076
H22 H -1.3635 -0.6123 -0.4042
H23 H -0.3300 -1.0422 -0.2468
H24 H -0.2667 -0.9358 -0.2843
H25 H -0.4755 -1.0509 -0.4305
H26 H -0.5583 -1.1295 -0.3825
H27 H -0.7025 -1.0759 -0.5171
H28 H -0.6249 -0.9381 -0.4453
H29 H -0.9138 -1.0288 -0.4083
H30 H -0.8279 -0.9302 -0.4408
H31 H -0.9081 -1.0666 -0.5144
H32 H -0.1720 -0.9006 0.1476
H33 H -0.3325 -0.9339 0.0868
H34 H -0.3123 -0.8717 0.2534
H35 H -0.1490 -0.8183 0.3033
H36 H -0.1504 -0.6222 0.3607
H37 H -0.2159 -0.7125 0.4099
H38 H -0.3258 -0.6068 0.4463
H39 H -0.3296 -0.5154 0.3833
H40 H -0.4672 -0.6216 0.3603
C8A C -1.0280(30) -1.0440(20) 0.0091(19)
C5A C -1.0980(30) -1.1470(30) 0.0230(20)
C4A C -1.1760(20) -1.2500(20) -0.0579(19)
C3A C -1.2410(30) -1.3580(30) -0.0480(20)
C2A C -1.2190(20) -1.3570(20) 0.0506(18)
C1A C -1.2850(30) -1.4650(30) 0.0682(19)
N1A N -1.3380(20) -1.5530(20) 0.0782(17)
C7A C -1.1350(30) -1.2580(20) 0.1333(18)
C6A C -1.0760(30) -1.1490(30) 0.1170(20)
H2A H -1.0209 -1.0769 0.1730
C21A C -1.1020(30) -1.2580(30) 0.2404(19)
O3A O -1.0088(19) -1.3178(18) 0.2580(14)
C22A C -1.0060(30) -1.3720(30) 0.3320(20)
C23A C -0.8870(30) -1.4070(30) 0.3550(20)
O4A O -0.7620(20) -1.3060(20) 0.4009(15)
C24A C -0.6570(30) -1.3230(30) 0.3800(20)
H20A H -0.5762 -1.2487 0.4146
H21A H -0.6852 -1.3458 0.3076
H22A H -0.6365 -1.3877 0.4042
H18A H -0.8872 -1.4553 0.4004
H19A H -0.8941 -1.4577 0.2919
H16A H -1.0907 -1.4435 0.3071
H17A H -0.9971 -1.3145 0.3930
H14A H -1.0592 -1.1748 0.2882
H15A H -1.1844 -1.3021 0.2466
C17A C -1.3270(30) -1.4750(30) -0.1380(20)
O1A O -1.4608(18) -1.4879(17) -0.1655(13)
C18A C -1.5510(30) -1.5990(30) -0.2540(20)
C19A C -1.5510(30) -1.7130(30) -0.2400(20)
O2A O -1.5967(18) -1.7269(17) -0.1651(13)
C20A C -1.6010(30) -1.8320(30) -0.1430(20)
H11A H -1.6345 -1.8349 -0.0911
H12A H -1.5090 -1.8330 -0.1173
H13A H -1.6615 -1.9011 -0.2033
H9A H -1.6128 -1.7801 -0.3036
H10A H -1.4586 -1.7140 -0.2187
H7A H -1.6454 -1.6016 -0.2767
H8A H -1.5244 -1.5914 -0.3094
H5A H -1.3023 -1.4700 -0.1949
H6A H -1.3112 -1.5446 -0.1189
H1A H -1.1869 -1.2474 -0.1229
C16A C 0.0340(30) -0.4500(20) 0.0070(20)
C13A C 0.1180(30) -0.3260(30) 0.0291(19)
C12A C 0.1790(20) -0.2460(20) 0.1235(18)
C11A C 0.2570(30) -0.1260(20) 0.1437(19)
C10A C 0.2750(30) -0.0960(30) 0.0650(20)
C9A C 0.3550(30) 0.0230(30) 0.0810(20)
N2A N 0.4180(20) 0.1220(20) 0.0938(17)
C15A C 0.2170(30) -0.1760(20) -0.0322(18)
C14A C 0.1380(30) -0.2920(30) -0.0500(20)
H4A H 0.0982 -0.3496 -0.1150
C29A C 0.2420(30) -0.1310(20) -0.1153(18)
O7A O 0.2330(17) -0.2326(16) -0.1867(12)
C30A C 0.2310(30) -0.2000(20) -0.2726(18)
C31A C 0.2280(30) -0.3040(30) -0.3460(20)
O8A O 0.3480(18) -0.3229(17) -0.3073(13)
C32A C 0.3690(30) -0.4010(30) -0.3800(20)
H38A H 0.3258 -0.3932 -0.4463
H39A H 0.3296 -0.4846 -0.3833
H40A H 0.4672 -0.3784 -0.3603
H36A H 0.1504 -0.3778 -0.3607
H37A H 0.2159 -0.2875 -0.4099
H34A H 0.3123 -0.1283 -0.2534
H35A H 0.1490 -0.1817 -0.3033
H32A H 0.1720 -0.0994 -0.1476
H33A H 0.3325 -0.0661 -0.0868
C25A C 0.3220(30) -0.0400(30) 0.2480(20)
O5A O 0.4496(18) -0.0441(17) 0.2944(13)
C26A C 0.5300(30) 0.0500(20) 0.3914(18)
C27A C 0.6540(30) 0.0230(30) 0.4460(20)
O6A O 0.7401(18) 0.0415(16) 0.3982(13)
C28A C 0.8560(30) 0.0150(30) 0.4440(20)
H29A H 0.9138 0.0288 0.4083
H30A H 0.8279 -0.0698 0.4408
H31A H 0.9081 0.0666 0.5144
H27A H 0.7025 0.0759 0.5171
H28A H 0.6249 -0.0619 0.4453
H25A H 0.4755 0.0509 0.4305
H26A H 0.5583 0.1295 0.3825
H23A H 0.3300 0.0422 0.2468
H24A H 0.2667 -0.0642 0.2843
H3A H 0.1673 -0.2714 0.1766
Ag1A Ag -1.5582(2) -1.3115(2) -0.1286(2)
N1A_2 N -0.3380(20) -0.5530(20) 0.0782(17)
N2A_2 N -0.5820(20) -0.8780(20) 0.0938(17)
Ag1A_2 Ag -0.5582(2) -0.3115(2) -0.1286(2)
Ag1A_3 Ag -0.5582(2) -1.3115(2) -0.1286(2)
Ag1_2 Ag -1.4418(2) -1.6885(2) 0.1286(2)
Ag1_3 Ag 0.5582(2) 0.3115(2) 0.1286(2)
Ag1A_4 Ag 0.4418(2) -0.3115(2) -0.1286(2)
O1_2 O 0.4608(18) 0.4879(17) 0.1655(13)
O7_2 O 0.7670(17) 0.2326(16) 0.1867(12)
O8_2 O 0.6520(18) 0.3229(17) 0.3073(13)
N1A_3 N 0.6620(20) 0.4470(20) 0.0782(17)
loop_
_geom_bond_atom_site_label_1
_geom_bond_atom_site_label_2
_geom_bond_site_symmetry_1
_geom_bond_site_symmetry_2
Sb1 F1 1_555 1_555
Ag1 O1 1_555 1_555
F2 Sb1 1_555 1_555
F3 Sb1 1_555 1_555
F4 Sb1 1_555 1_555
F5 Sb1 1_555 1_555
F6 Sb1 1_555 1_555
O1 C17 1_555 1_555
O2 C19 1_555 1_555
O3 C21 1_555 1_555
O4 C23 1_555 1_555
O5 C25 1_555 1_555
O6 C27 1_555 1_555
O7 Ag1 1_555 1_555
O8 Ag1 1_555 1_555
N1 C1 1_555 1_555
N2 C9 1_555 1_555
C1 C2 1_555 1_555
C2 C3 1_555 1_555
C3 C4 1_555 1_555
C4 C5 1_555 1_555
C5 C6 1_555 1_555
C6 C7 1_555 1_555
C7 C2 1_555 1_555
C8 C5 1_555 1_555
C9 C10 1_555 1_555
C10 C11 1_555 1_555
C11 C12 1_555 1_555
C12 C13 1_555 1_555
C13 C14 1_555 1_555
C14 C15 1_555 1_555
C15 C10 1_555 1_555
C16 C13 1_555 1_555
C17 C3 1_555 1_555
C18 O1 1_555 1_555
C19 C18 1_555 1_555
C20 O2 1_555 1_555
C21 C7 1_555 1_555
C22 O3 1_555 1_555
C23 C22 1_555 1_555
C24 O4 1_555 1_555
C25 C11 1_555 1_555
C26 O5 1_555 1_555
C27 C26 1_555 1_555
C28 O6 1_555 1_555
C29 O7 1_555 1_555
C30 O7 1_555 1_555
C31 O8 1_555 1_555
C32 O8 1_555 1_555
H1 C4 1_555 1_555
H2 C6 1_555 1_555
H3 C12 1_555 1_555
H4 C14 1_555 1_555
H5 C17 1_555 1_555
H6 C17 1_555 1_555
H7 C18 1_555 1_555
H8 C18 1_555 1_555
H9 C19 1_555 1_555
H10 C19 1_555 1_555
H11 C20 1_555 1_555
H12 C20 1_555 1_555
H13 C20 1_555 1_555
H14 C21 1_555 1_555
H15 C21 1_555 1_555
H16 C22 1_555 1_555
H17 C22 1_555 1_555
H18 C23 1_555 1_555
H19 C23 1_555 1_555
H20 C24 1_555 1_555
H21 C24 1_555 1_555
H22 C24 1_555 1_555
H23 C25 1_555 1_555
H24 C25 1_555 1_555
H25 C26 1_555 1_555
H26 C26 1_555 1_555
H27 C27 1_555 1_555
H28 C27 1_555 1_555
H29 C28 1_555 1_555
H30 C28 1_555 1_555
H31 C28 1_555 1_555
H32 C29 1_555 1_555
H33 C29 1_555 1_555
H34 C30 1_555 1_555
H35 C30 1_555 1_555
H36 C31 1_555 1_555
H37 C31 1_555 1_555
H38 C32 1_555 1_555
H39 C32 1_555 1_555
H40 C32 1_555 1_555
C8A C8 1_555 1_555
C5A C8A 1_555 1_555
C4A C5A 1_555 1_555
C3A C4A 1_555 1_555
C2A C3A 1_555 1_555
C1A C2A 1_555 1_555
N1A C1A 1_555 1_555
C7A C2A 1_555 1_555
C6A C5A 1_555 1_555
H2A C6A 1_555 1_555
C21A C7A 1_555 1_555
O3A C21A 1_555 1_555
C22A O3A 1_555 1_555
C23A C22A 1_555 1_555
O4A C23A 1_555 1_555
C24A O4A 1_555 1_555
H20A C24A 1_555 1_555
H21A C24A 1_555 1_555
H22A C24A 1_555 1_555
H18A C23A 1_555 1_555
H19A C23A 1_555 1_555
H16A C22A 1_555 1_555
H17A C22A 1_555 1_555
H14A C21A 1_555 1_555
H15A C21A 1_555 1_555
C17A C3A 1_555 1_555
O1A C17A 1_555 1_555
C18A O1A 1_555 1_555
C19A C18A 1_555 1_555
O2A C19A 1_555 1_555
C20A O2A 1_555 1_555
H11A C20A 1_555 1_555
H12A C20A 1_555 1_555
H13A C20A 1_555 1_555
H9A C19A 1_555 1_555
H10A C19A 1_555 1_555
H7A C18A 1_555 1_555
H8A C18A 1_555 1_555
H5A C17A 1_555 1_555
H6A C17A 1_555 1_555
H1A C4A 1_555 1_555
C16A C16 1_555 1_555
C13A C16A 1_555 1_555
C12A C13A 1_555 1_555
C11A C12A 1_555 1_555
C10A C11A 1_555 1_555
C9A C10A 1_555 1_555
N2A C9A 1_555 1_555
C15A C10A 1_555 1_555
C14A C13A 1_555 1_555
H4A C14A 1_555 1_555
C29A C15A 1_555 1_555
O7A C29A 1_555 1_555
C30A O7A 1_555 1_555
C31A C30A 1_555 1_555
O8A C31A 1_555 1_555
C32A O8A 1_555 1_555
H38A C32A 1_555 1_555
H39A C32A 1_555 1_555
H40A C32A 1_555 1_555
H36A C31A 1_555 1_555
H37A C31A 1_555 1_555
H34A C30A 1_555 1_555
H35A C30A 1_555 1_555
H32A C29A 1_555 1_555
H33A C29A 1_555 1_555
C25A C11A 1_555 1_555
O5A C25A 1_555 1_555
C26A O5A 1_555 1_555
C27A C26A 1_555 1_555
O6A C27A 1_555 1_555
C28A O6A 1_555 1_555
H29A C28A 1_555 1_555
H30A C28A 1_555 1_555
H31A C28A 1_555 1_555
H27A C27A 1_555 1_555
H28A C27A 1_555 1_555
H25A C26A 1_555 1_555
H26A C26A 1_555 1_555
H23A C25A 1_555 1_555
H24A C25A 1_555 1_555
H3A C12A 1_555 1_555
Ag1A O1A 1_555 1_555
N1A_2 Ag1 1_555 1_555
N2A_2 Ag1 1_555 1_555
Ag1A_2 N1 1_555 1_555
Ag1A_3 N2 1_555 1_555
Ag1_2 N1A 1_555 1_555
Ag1_3 N2A 1_555 1_555
Ag1A_4 O7A 1_555 1_555
O1_2 Ag1_3 1_555 1_555
O7_2 Ag1_3 1_555 1_555
O8_2 Ag1_3 1_555 1_555
N1A_3 Ag1_3 1_555 1_555
C15 C29 1_555 1_555
C30 C31 1_555 1_555
C7A C6A 1_555 1_555
C15A C14A 1_555 1_555
O8A Ag1A_4 1_555 1_555

#END
