
#######################################################################
#
#                 Cambridge Crystallographic Data Centre
#                                CCDC 
#
#######################################################################
#
# If this CIF has been generated from an entry in the Cambridge 
# Structural Database, then it will include bibliographic, chemical, 
# crystal, experimental, refinement or atomic coordinate data resulting 
# from the CCDC's data processing and validation procedures.
#
#######################################################################

data_NAJHIP
_symmetry_cell_setting           monoclinic
_symmetry_space_group_name_H-M   'P 21/n'
_symmetry_Int_Tables_number      14
_space_group_name_Hall           '-P 2yn'
loop_
_symmetry_equiv_pos_site_id
_symmetry_equiv_pos_as_xyz
1 x,y,z
2 1/2-x,1/2+y,1/2-z
3 -x,-y,-z
4 1/2+x,1/2-y,1/2+z
_cell_length_a                   13.5024(6)
_cell_length_b                   9.8307(4)
_cell_length_c                   38.9194(18)
_cell_angle_alpha                90
_cell_angle_beta                 94.8530(10)
_cell_angle_gamma                90
_cell_volume                     5147.56
loop_
_atom_site_label
_atom_site_type_symbol
_atom_site_fract_x
_atom_site_fract_y
_atom_site_fract_z
Sb1 Sb -0.4924(1) 1.2297(1) 0.2236(1)
F1 F -0.4518(3) 1.2987(4) 0.2669(1)
F2 F -0.6229(3) 1.2512(7) 0.2319(2)
F3 F -0.4863(4) 1.0541(4) 0.2410(1)
F4 F -0.5306(3) 1.1622(4) 0.1800(1)
F5 F -0.3588(3) 1.2109(5) 0.2147(1)
F6 F -0.4905(3) 1.4031(3) 0.2047(1)
Sb2 Sb 0.2438(1) -0.0014(1) 0.0034(1)
F7 F 0.3756(2) 0.0563(3) 0.0121(1)
F8 F 0.2545(3) 0.0266(5) -0.0432(1)
F9 F 0.2874(3) -0.1791(3) -0.0002(1)
F10 F 0.2023(3) 0.1766(3) 0.0074(2)
F11 F 0.2337(3) -0.0296(5) 0.0502(1)
F12 F 0.1131(2) -0.0589(3) -0.0058(1)
Ag1 Ag -0.3361(1) 0.6641(1) 0.1239(1)
Ag2 Ag -0.1878(1) 0.3001(1) -0.1187(1)
O1 O -0.0307(2) 0.1743(3) -0.1031(1)
O2 O -0.1824(2) 0.0639(3) -0.1468(1)
O3 O -0.3322(2) 0.2575(3) -0.1662(1)
O4 O 0.0845(2) 0.6904(3) -0.1018(1)
O5 O 0.1008(2) 0.7907(3) -0.1703(1)
O6 O -0.0733(2) 0.7915(4) -0.2200(1)
O7 O -0.5827(2) 0.3323(3) 0.0971(1)
O8 O -0.7709(2) 0.4164(3) 0.1296(1)
O9 O -0.8838(2) 0.5997(3) 0.1671(1)
O10 O -0.4420(2) 0.8462(3) 0.0953(1)
O11 O -0.2945(3) 0.9047(4) 0.1452(1)
O12 O -0.2945(5) 0.6747(4) 0.1885(1)
O13 O -0.4161(2) 0.4520(3) 0.1366(1)
N1 N 0.2000(3) 0.3972(4) -0.0978(1)
N2 N -0.6967(3) 0.6446(4) 0.0841(1)
C1 C 0.1312(3) 0.4205(4) -0.0837(1)
C2 C 0.0449(3) 0.4410(4) -0.0650(1)
C3 C 0.0190(3) 0.5740(4) -0.0554(1)
C4 C -0.0626(3) 0.5899(4) -0.0364(1)
C5 C -0.1177(3) 0.4775(4) -0.0271(1)
C6 C -0.0918(3) 0.3473(4) -0.0375(1)
C7 C -0.0103(3) 0.3275(4) -0.0564(1)
C8 C -0.6253(3) 0.6125(4) 0.0728(1)
C9 C -0.5333(3) 0.5790(4) 0.0582(1)
C10 C -0.5093(3) 0.4429(4) 0.0512(1)
C11 C -0.4228(3) 0.4171(4) 0.0353(1)
C12 C -0.3616(3) 0.5232(4) 0.0264(1)
C13 C -0.3847(3) 0.6575(4) 0.0350(1)
C14 C -0.4705(3) 0.6871(4) 0.0508(1)
C15 C -0.2028(3) 0.4930(4) -0.0075(1)
C16 C -0.2736(3) 0.5005(4) 0.0087(1)
C17 C 0.0797(3) 0.6932(5) -0.0654(1)
C18 C 0.1727(3) 0.7492(5) -0.1130(1)
C19 C 0.1767(3) 0.7186(5) -0.1504(1)
C20 C 0.1003(4) 0.7570(5) -0.2059(1)
C21 C 0.0225(4) 0.8372(5) -0.2265(1)
C22 C -0.1476(4) 0.8462(7) -0.2443(1)
C23 C 0.0134(3) 0.1855(5) -0.0682(1)
C24 C -0.0255(4) 0.0375(5) -0.1158(1)
C25 C -0.0810(4) 0.0325(6) -0.1509(1)
C26 C -0.2427(4) 0.0601(5) -0.1788(1)
C27 C -0.3434(4) 0.1149(5) -0.1730(2)
C28 C -0.4249(4) 0.3211(6) -0.1608(1)
C29 C -0.5772(3) 0.3300(4) 0.0605(1)
C30 C -0.6597(3) 0.2445(5) 0.1081(1)
C31 C -0.7612(3) 0.3114(5) 0.1051(1)
C32 C -0.8138(4) 0.3719(5) 0.1598(1)
C33 C -0.8239(4) 0.4936(5) 0.1830(1)
C34 C -0.9880(4) 0.5720(6) 0.1656(1)
C35 C -0.4896(3) 0.8307(4) 0.0611(1)
C36 C -0.4235(4) 0.9831(5) 0.1053(1)
C37 C -0.3761(5) 0.9853(6) 0.1416(2)
C38 C -0.2450(5) 0.9015(6) 0.1791(2)
C39 C -0.2893(5) 0.8072(6) 0.2033(2)
C40 C -0.2687(5) 0.5712(6) 0.2088(2)
H1 H -0.0813 0.6785 -0.0296
H2 H -0.1303 0.2713 -0.0316
H3 H -0.4052 0.3260 0.0304
H4 H -0.3411 0.7291 0.0298
H5 H 0.1474 0.6880 -0.0536
H6 H 0.0486 0.7791 -0.0585
H7 H 0.1722 0.8488 -0.1093
H8 H 0.2317 0.7108 -0.0996
H9 H 0.1681 0.6197 -0.1543
H10 H 0.2425 0.7452 -0.1577
H11 H 0.1663 0.7768 -0.2140
H12 H 0.0869 0.6586 -0.2091
H13 H 0.0316 0.8274 -0.2514
H14 H 0.0295 0.9348 -0.2205
H15 H -0.2131 0.8126 -0.2391
H16 H -0.1466 0.9457 -0.2428
H17 H -0.1343 0.8179 -0.2676
H18 H -0.0150 0.1166 -0.0533
H19 H 0.0862 0.1718 -0.0674
H20 H 0.0447 0.0108 -0.1173
H21 H -0.0557 -0.0263 -0.1000
H22 H -0.0756 -0.0593 -0.1611
H23 H -0.0529 0.0994 -0.1664
H24 H -0.2120 0.1158 -0.1962
H25 H -0.2485 -0.0346 -0.1874
H26 H -0.3700 0.0686 -0.1531
H27 H -0.3900 0.0998 -0.1937
H28 H -0.4140 0.4182 -0.1563
H29 H -0.4710 0.3098 -0.1815
H30 H -0.4531 0.2788 -0.1411
H31 H -0.5510 0.2413 0.0534
H32 H -0.6442 0.3430 0.0486
H33 H -0.6625 0.1607 0.0939
H34 H -0.6426 0.2176 0.1324
H35 H -0.8123 0.2412 0.1081
H36 H -0.7740 0.3498 0.0816
H37 H -0.8798 0.3310 0.1536
H38 H -0.7708 0.3022 0.1719
H39 H -0.7569 0.5302 0.1900
H40 H -0.8536 0.4636 0.2042
H41 H -1.0249 0.6481 0.1545
H42 H -1.0026 0.4886 0.1524
H43 H -1.0080 0.5603 0.1891
H44 H -0.5619 0.8479 0.0609
H45 H -0.4612 0.8952 0.0450
H46 H -0.3788 1.0265 0.0897
H47 H -0.4867 1.0347 0.1040
H48 H -0.4248 0.9538 0.1575
H49 H -0.3570 1.0798 0.1480
H50 H -0.1748 0.8751 0.1774
H51 H -0.2452 0.9944 0.1889
H52 H -0.3567 0.8387 0.2076
H53 H -0.2480 0.8052 0.2255
H54 H -0.2759 0.4864 0.1956
H55 H -0.1993 0.5820 0.2180
H56 H -0.3116 0.5683 0.2279
H57 H -0.4750 0.4237 0.1192
H58 H -0.4179 0.4647 0.1603
N1B N -0.2000(3) 0.6028(4) 0.0978(1)
O8B O -0.2291(2) 0.5836(3) -0.1296(1)
O9B O -0.1162(2) 0.4003(3) -0.1671(1)
N2B N -0.3033(3) 0.3554(4) -0.0841(1)
Ag2B Ag -0.8122(1) 0.6999(1) 0.1187(1)
Ag1B Ag 0.3361(1) 0.3359(1) -0.1239(1)
loop_
_geom_bond_atom_site_label_1
_geom_bond_atom_site_label_2
_geom_bond_site_symmetry_1
_geom_bond_site_symmetry_2
Sb1 F1 1_555 1_555
Sb2 F7 1_555 1_555
Ag1 O10 1_555 1_555
Ag2 O1 1_555 1_555
F2 Sb1 1_555 1_555
F3 Sb1 1_555 1_555
F4 Sb1 1_555 1_555
F5 Sb1 1_555 1_555
F6 Sb1 1_555 1_555
F8 Sb2 1_555 1_555
F9 Sb2 1_555 1_555
F10 Sb2 1_555 1_555
F11 Sb2 1_555 1_555
F12 Sb2 1_555 1_555
O1 C23 1_555 1_555
O2 Ag2 1_555 1_555
O3 Ag2 1_555 1_555
O4 C17 1_555 1_555
O5 C19 1_555 1_555
O6 C21 1_555 1_555
O7 C29 1_555 1_555
O8 C31 1_555 1_555
O9 C33 1_555 1_555
O10 C35 1_555 1_555
O11 Ag1 1_555 1_555
O12 Ag1 1_555 1_555
O13 Ag1 1_555 1_555
N1 C1 1_555 1_555
N2 C8 1_555 1_555
C1 C2 1_555 1_555
C2 C3 1_555 1_555
C3 C4 1_555 1_555
C4 C5 1_555 1_555
C5 C6 1_555 1_555
C6 C7 1_555 1_555
C7 C2 1_555 1_555
C8 C9 1_555 1_555
C9 C10 1_555 1_555
C10 C11 1_555 1_555
C11 C12 1_555 1_555
C12 C13 1_555 1_555
C13 C14 1_555 1_555
C14 C9 1_555 1_555
C15 C5 1_555 1_555
C16 C12 1_555 1_555
C17 C3 1_555 1_555
C18 O4 1_555 1_555
C19 C18 1_555 1_555
C20 O5 1_555 1_555
C21 C20 1_555 1_555
C22 O6 1_555 1_555
C23 C7 1_555 1_555
C24 O1 1_555 1_555
C25 O2 1_555 1_555
C26 O2 1_555 1_555
C27 O3 1_555 1_555
C28 O3 1_555 1_555
C29 C10 1_555 1_555
C30 O7 1_555 1_555
C31 C30 1_555 1_555
C32 O8 1_555 1_555
C33 C32 1_555 1_555
C34 O9 1_555 1_555
C35 C14 1_555 1_555
C36 O10 1_555 1_555
C37 O11 1_555 1_555
C38 O11 1_555 1_555
C39 O12 1_555 1_555
C40 O12 1_555 1_555
H1 C4 1_555 1_555
H2 C6 1_555 1_555
H3 C11 1_555 1_555
H4 C13 1_555 1_555
H5 C17 1_555 1_555
H6 C17 1_555 1_555
H7 C18 1_555 1_555
H8 C18 1_555 1_555
H9 C19 1_555 1_555
H10 C19 1_555 1_555
H11 C20 1_555 1_555
H12 C20 1_555 1_555
H13 C21 1_555 1_555
H14 C21 1_555 1_555
H15 C22 1_555 1_555
H16 C22 1_555 1_555
H17 C22 1_555 1_555
H18 C23 1_555 1_555
H19 C23 1_555 1_555
H20 C24 1_555 1_555
H21 C24 1_555 1_555
H22 C25 1_555 1_555
H23 C25 1_555 1_555
H24 C26 1_555 1_555
H25 C26 1_555 1_555
H26 C27 1_555 1_555
H27 C27 1_555 1_555
H28 C28 1_555 1_555
H29 C28 1_555 1_555
H30 C28 1_555 1_555
H31 C29 1_555 1_555
H32 C29 1_555 1_555
H33 C30 1_555 1_555
H34 C30 1_555 1_555
H35 C31 1_555 1_555
H36 C31 1_555 1_555
H37 C32 1_555 1_555
H38 C32 1_555 1_555
H39 C33 1_555 1_555
H40 C33 1_555 1_555
H41 C34 1_555 1_555
H42 C34 1_555 1_555
H43 C34 1_555 1_555
H44 C35 1_555 1_555
H45 C35 1_555 1_555
H46 C36 1_555 1_555
H47 C36 1_555 1_555
H48 C37 1_555 1_555
H49 C37 1_555 1_555
H50 C38 1_555 1_555
H51 C38 1_555 1_555
H52 C39 1_555 1_555
H53 C39 1_555 1_555
H54 C40 1_555 1_555
H55 C40 1_555 1_555
H56 C40 1_555 1_555
H57 O13 1_555 1_555
H58 O13 1_555 1_555
N1B Ag1 1_555 1_555
O8B Ag2 1_555 1_555
O9B Ag2 1_555 1_555
N2B Ag2 1_555 1_555
Ag2B O8 1_555 1_555
Ag1B N1 1_555 1_555
O9 Ag2B 1_555 1_555
N2 Ag2B 1_555 1_555
C15 C16 1_555 1_555
C24 C25 1_555 1_555
C26 C27 1_555 1_555
C36 C37 1_555 1_555
C38 C39 1_555 1_555

#END
