
#######################################################################
#
#                 Cambridge Crystallographic Data Centre
#                                CCDC 
#
#######################################################################
#
# If this CIF has been generated from an entry in the Cambridge 
# Structural Database, then it will include bibliographic, chemical, 
# crystal, experimental, refinement or atomic coordinate data resulting 
# from the CCDC's data processing and validation procedures.
#
#######################################################################

data_NAJHUB
_symmetry_cell_setting           monoclinic
_symmetry_space_group_name_H-M   'P 2/n'
_symmetry_Int_Tables_number      13
_space_group_name_Hall           '-P 2yac'
loop_
_symmetry_equiv_pos_site_id
_symmetry_equiv_pos_as_xyz
1 x,y,z
2 1/2-x,y,1/2-z
3 -x,-y,-z
4 1/2+x,-y,1/2+z
_cell_length_a                   17.7089(14)
_cell_length_b                   7.5134(6)
_cell_length_c                   18.0666(15)
_cell_angle_alpha                90
_cell_angle_beta                 110.527(2)
_cell_angle_gamma                90
_cell_volume                     2251.21
loop_
_atom_site_label
_atom_site_type_symbol
_atom_site_fract_x
_atom_site_fract_y
_atom_site_fract_z
Ag1 Ag -0.2961(1) 0.8851(1) -0.0541(1)
O1 O -0.2177(3) 1.0716(6) 0.0793(3)
O2 O -0.3601(3) 0.8827(7) 0.0562(3)
O3 O -0.4439(3) 0.7788(7) -0.0975(3)
O4 O -0.1493(3) 1.5240(6) -0.1808(3)
O5 O -0.1669(3) 1.9444(6) -0.2845(3)
O6 O -0.1824(3) 2.1828(7) -0.4114(3)
N1 N -0.2207(4) 1.6472(8) -0.0386(4)
C1 C -0.1799(4) 1.5253(10) -0.0287(4)
C2 C -0.1276(4) 1.3738(9) -0.0196(4)
C3 C -0.1295(4) 1.2363(10) 0.0308(4)
C4 C -0.0800(4) 1.0880(9) 0.0384(4)
C5 C -0.0274(4) 1.0793(9) -0.0050(4)
C6 C -0.0270(4) 1.2196(9) -0.0552(4)
C7 C -0.0761(4) 1.3665(9) -0.0640(4)
C8 C -0.1816(4) 1.2411(10) 0.0818(4)
C9 C -0.2500(5) 1.0479(11) 0.1408(4)
C10 C -0.2918(4) 0.8744(11) 0.1283(4)
C11 C -0.4051(5) 0.7219(11) 0.0399(5)
C12 C -0.4745(5) 0.7446(12) -0.0359(5)
C13 C -0.5076(5) 0.8210(12) -0.1698(5)
C14 C -0.0738(4) 1.5174(10) -0.1177(4)
C15 C -0.1493(4) 1.6450(9) -0.2421(4)
C16 C -0.1392(4) 1.8380(9) -0.2151(4)
C17 C -0.1445(5) 2.1254(9) -0.2695(4)
C18 C -0.1950(5) 2.2323(10) -0.3401(4)
C19 C -0.1136(5) 2.2611(12) -0.4212(5)
H1 H -0.0816 0.9952 0.0718
H2 H 0.0076 1.2141 -0.0838
H3 H -0.1489 1.2706 0.1358
H4 H -0.2230 1.3314 0.0623
H5 H -0.2876 1.1430 0.1392
H6 H -0.2070 1.0501 0.1919
H7 H -0.2554 0.7807 0.1251
H8 H -0.3095 0.8483 0.1723
H9 H -0.4248 0.6953 0.0825
H10 H -0.3713 0.6241 0.0353
H11 H -0.5071 0.6376 -0.0476
H12 H -0.5080 0.8431 -0.0314
H13 H -0.4852 0.8522 -0.2093
H14 H -0.5381 0.9195 -0.1613
H15 H -0.5423 0.7196 -0.1873
H16 H -0.0640 1.6288 -0.0887
H17 H -0.0307 1.4988 -0.1383
H18 H -0.1996 1.6327 -0.2862
H19 H -0.1058 1.6135 -0.2605
H20 H -0.1707 1.8619 -0.1817
H21 H -0.0830 1.8634 -0.1852
H22 H -0.0877 2.1402 -0.2613
H23 H -0.1538 2.1655 -0.2223
H24 H -0.2515 2.2161 -0.3473
H25 H -0.1824 2.3575 -0.3298
H26 H -0.1102 2.2239 -0.4708
H27 H -0.0660 2.2242 -0.3789
H28 H -0.1182 2.3884 -0.4207
C5B C 0.0274(4) 0.9207(9) 0.0050(4)
C4B C 0.0800(4) 0.9120(9) -0.0384(4)
C3B C 0.1295(4) 0.7637(10) -0.0308(4)
C2B C 0.1276(4) 0.6262(9) 0.0196(4)
C1B C 0.1799(4) 0.4747(10) 0.0287(4)
N1B N 0.2207(4) 0.3528(8) 0.0386(4)
C7B C 0.0761(4) 0.6335(9) 0.0640(4)
C6B C 0.0270(4) 0.7804(9) 0.0552(4)
H2B H -0.0076 0.7859 0.0838
C14B C 0.0738(4) 0.4826(10) 0.1177(4)
O4B O 0.1493(3) 0.4760(6) 0.1808(3)
C15B C 0.1493(4) 0.3550(9) 0.2421(4)
C16B C 0.1392(4) 0.1620(9) 0.2151(4)
O5B O 0.1669(3) 0.0556(6) 0.2845(3)
C17B C 0.1445(5) -0.1254(9) 0.2695(4)
C18B C 0.1950(5) -0.2323(10) 0.3401(4)
O6B O 0.1824(3) -0.1828(7) 0.4114(3)
C19B C 0.1136(5) -0.2611(12) 0.4212(5)
H26B H 0.1102 -0.2239 0.4708
H27B H 0.0660 -0.2242 0.3789
H28B H 0.1182 -0.3884 0.4207
H24B H 0.2515 -0.2161 0.3473
H25B H 0.1824 -0.3575 0.3298
H22B H 0.0877 -0.1402 0.2613
H23B H 0.1538 -0.1655 0.2223
H20B H 0.1707 0.1381 0.1817
H21B H 0.0830 0.1366 0.1852
H18B H 0.1996 0.3673 0.2862
H19B H 0.1058 0.3865 0.2605
H16B H 0.0640 0.3712 0.0887
H17B H 0.0307 0.5012 0.1383
C8B C 0.1816(4) 0.7589(10) -0.0818(4)
O1B O 0.2177(3) 0.9284(6) -0.0793(3)
C9B C 0.2500(5) 0.9521(11) -0.1408(4)
C10B C 0.2918(4) 1.1256(11) -0.1283(4)
O2B O 0.3601(3) 1.1173(7) -0.0562(3)
C11B C 0.4051(5) 1.2781(11) -0.0399(5)
C12B C 0.4745(5) 1.2554(12) 0.0359(5)
O3B O 0.4439(3) 1.2212(7) 0.0975(3)
C13B C 0.5076(5) 1.1790(12) 0.1698(5)
H13B H 0.4852 1.1478 0.2093
H14B H 0.5381 1.0805 0.1613
H15B H 0.5423 1.2804 0.1873
H11B H 0.5071 1.3624 0.0476
H12B H 0.5080 1.1569 0.0314
H9B H 0.4248 1.3047 -0.0825
H10B H 0.3713 1.3759 -0.0353
H7B H 0.2554 1.2193 -0.1251
H8B H 0.3095 1.1517 -0.1723
H5B H 0.2876 0.8570 -0.1392
H6B H 0.2070 0.9499 -0.1919
H3B H 0.1489 0.7294 -0.1358
H4B H 0.2230 0.6686 -0.0623
H1B H 0.0816 1.0048 -0.0718
Ag1B Ag 0.2961(1) 1.1149(1) 0.0541(1)
O5A O -0.3331(3) 0.9444(6) -0.2155(3)
O6A O -0.3176(3) 1.1828(7) -0.0886(3)
N1_2 N -0.2207(4) 0.6472(8) -0.0386(4)
Ag1A Ag -0.2039(1) 1.8851(1) -0.4459(1)
Ag1_2 Ag -0.2961(1) 1.8851(1) -0.0541(1)
Ag1B_2 Ag 0.2961(1) 0.1149(1) 0.0541(1)
Ag1C Ag 0.2039(1) 0.1149(1) 0.4459(1)
O5C O 0.3331(3) 1.0556(6) 0.2155(3)
O6C O 0.3176(3) 0.8172(7) 0.0886(3)
N1B_2 N 0.2207(4) 1.3528(8) 0.0386(4)
O7 O 0.2187(14) -0.4240(30) -0.2850(15)
F1 F 0.0077(3) -0.5887(6) -0.2554(3)
F2 F 0.1144(10) -0.6010(20) -0.1434(6)
F3 F 0.0582(7) -0.8544(13) -0.2021(6)
F4 F 0.1303(9) -0.6790(20) -0.2552(8)
B1 B 0.0816(6) -0.6661(12) -0.2173(6)
O7A O 0.2813(14) -0.4240(30) -0.2150(15)
F5? F 0.0823(10) -0.8359(17) -0.2408(15)
F6? F 0.1373(11) -0.5700(30) -0.2400(14)
F7? F 0.1033(16) -0.6470(40) -0.1374(7)
loop_
_geom_bond_atom_site_label_1
_geom_bond_atom_site_label_2
_geom_bond_site_symmetry_1
_geom_bond_site_symmetry_2
Ag1 O1 1_555 1_555
O1 C8 1_555 1_555
O2 Ag1 1_555 1_555
O3 Ag1 1_555 1_555
O4 C14 1_555 1_555
O5 C16 1_555 1_555
O6 C18 1_555 1_555
N1 C1 1_555 1_555
C1 C2 1_555 1_555
C2 C3 1_555 1_555
C3 C4 1_555 1_555
C4 C5 1_555 1_555
C5 C6 1_555 1_555
C6 C7 1_555 1_555
C7 C2 1_555 1_555
C8 C3 1_555 1_555
C9 O1 1_555 1_555
C10 O2 1_555 1_555
C11 O2 1_555 1_555
C12 O3 1_555 1_555
C13 O3 1_555 1_555
C14 C7 1_555 1_555
C15 O4 1_555 1_555
C16 C15 1_555 1_555
C17 O5 1_555 1_555
C18 C17 1_555 1_555
C19 O6 1_555 1_555
F1 B1 1_555 1_555
F2 B1 1_555 1_555
F3 B1 1_555 1_555
F4 B1 1_555 1_555
H1 C4 1_555 1_555
H2 C6 1_555 1_555
H3 C8 1_555 1_555
H4 C8 1_555 1_555
H5 C9 1_555 1_555
H6 C9 1_555 1_555
H7 C10 1_555 1_555
H8 C10 1_555 1_555
H9 C11 1_555 1_555
H10 C11 1_555 1_555
H11 C12 1_555 1_555
H12 C12 1_555 1_555
H13 C13 1_555 1_555
H14 C13 1_555 1_555
H15 C13 1_555 1_555
H16 C14 1_555 1_555
H17 C14 1_555 1_555
H18 C15 1_555 1_555
H19 C15 1_555 1_555
H20 C16 1_555 1_555
H21 C16 1_555 1_555
H22 C17 1_555 1_555
H23 C17 1_555 1_555
H24 C18 1_555 1_555
H25 C18 1_555 1_555
H26 C19 1_555 1_555
H27 C19 1_555 1_555
H28 C19 1_555 1_555
C5B C5 1_555 1_555
C4B C5B 1_555 1_555
C3B C4B 1_555 1_555
C2B C3B 1_555 1_555
C1B C2B 1_555 1_555
N1B C1B 1_555 1_555
C7B C2B 1_555 1_555
C6B C5B 1_555 1_555
H2B C6B 1_555 1_555
C14B C7B 1_555 1_555
O4B C14B 1_555 1_555
C15B O4B 1_555 1_555
C16B C15B 1_555 1_555
O5B C16B 1_555 1_555
C17B O5B 1_555 1_555
C18B C17B 1_555 1_555
O6B C18B 1_555 1_555
C19B O6B 1_555 1_555
H26B C19B 1_555 1_555
H27B C19B 1_555 1_555
H28B C19B 1_555 1_555
H24B C18B 1_555 1_555
H25B C18B 1_555 1_555
H22B C17B 1_555 1_555
H23B C17B 1_555 1_555
H20B C16B 1_555 1_555
H21B C16B 1_555 1_555
H18B C15B 1_555 1_555
H19B C15B 1_555 1_555
H16B C14B 1_555 1_555
H17B C14B 1_555 1_555
C8B C3B 1_555 1_555
O1B C8B 1_555 1_555
C9B O1B 1_555 1_555
C10B C9B 1_555 1_555
O2B C10B 1_555 1_555
C11B O2B 1_555 1_555
C12B C11B 1_555 1_555
O3B C12B 1_555 1_555
C13B O3B 1_555 1_555
H13B C13B 1_555 1_555
H14B C13B 1_555 1_555
H15B C13B 1_555 1_555
H11B C12B 1_555 1_555
H12B C12B 1_555 1_555
H9B C11B 1_555 1_555
H10B C11B 1_555 1_555
H7B C10B 1_555 1_555
H8B C10B 1_555 1_555
H5B C9B 1_555 1_555
H6B C9B 1_555 1_555
H3B C8B 1_555 1_555
H4B C8B 1_555 1_555
H1B C4B 1_555 1_555
Ag1B O1B 1_555 1_555
O5A Ag1 1_555 1_555
O6A Ag1 1_555 1_555
N1_2 Ag1 1_555 1_555
Ag1A O5 1_555 1_555
Ag1_2 N1 1_555 1_555
Ag1B_2 N1B 1_555 1_555
Ag1C O5B 1_555 1_555
O5C Ag1B 1_555 1_555
O6C Ag1B 1_555 1_555
N1B_2 Ag1B 1_555 1_555
O6 Ag1A 1_555 1_555
C9 C10 1_555 1_555
C11 C12 1_555 1_555
C7B C6B 1_555 1_555
O6B Ag1C 1_555 1_555
O2B Ag1B 1_555 1_555
O3B Ag1B 1_555 1_555

#END
