
#######################################################################
#
#                 Cambridge Crystallographic Data Centre
#                                CCDC 
#
#######################################################################
#
# If this CIF has been generated from an entry in the Cambridge 
# Structural Database, then it will include bibliographic, chemical, 
# crystal, experimental, refinement or atomic coordinate data resulting 
# from the CCDC's data processing and validation procedures.
#
#######################################################################

data_NAJMAN
_symmetry_cell_setting           monoclinic
_symmetry_space_group_name_H-M   'P 21/c'
_symmetry_Int_Tables_number      14
_space_group_name_Hall           '-P 2ybc'
loop_
_symmetry_equiv_pos_site_id
_symmetry_equiv_pos_as_xyz
1 x,y,z
2 -x,1/2+y,1/2-z
3 -x,-y,-z
4 x,1/2-y,1/2+z
_cell_length_a                   14.991(3)
_cell_length_b                   17.852(4)
_cell_length_c                   19.543(4)
_cell_angle_alpha                90
_cell_angle_beta                 100.154(3)
_cell_angle_gamma                90
_cell_volume                     5148.17
loop_
_atom_site_label
_atom_site_type_symbol
_atom_site_fract_x
_atom_site_fract_y
_atom_site_fract_z
C1 C 0.0954(2) 0.28922(18) -0.12272(15)
C2 C 0.0186(2) 0.32526(19) -0.15700(16)
H1 H -0.0359 0.2993 -0.1681
C3 C 0.0231(2) 0.39972(19) -0.17462(16)
H2 H -0.0276 0.4244 -0.1985
C4 C 0.1045(2) 0.43702(18) -0.15605(16)
H3 H 0.1097 0.4870 -0.1683
C5 C 0.1786(2) 0.39921(17) -0.11895(16)
C6 C 0.2635(2) 0.44157(18) -0.08935(17)
H4 H 0.2648 0.4878 -0.1153
H5 H 0.2611 0.4548 -0.0416
C7 C 0.4205(2) 0.43046(18) -0.03688(16)
H6 H 0.4152 0.4846 -0.0361
H7 H 0.4787 0.4185 -0.0493
C8 C 0.4184(2) 0.40041(17) 0.03543(16)
H8 H 0.4696 0.4210 0.0672
H9 H 0.3636 0.4181 0.0502
C9 C 0.4147(2) 0.29830(18) 0.11352(15)
H10 H 0.3597 0.3203 0.1243
H11 H 0.4655 0.3208 0.1443
C10 C 0.4139(2) 0.21588(18) 0.12819(15)
C11 C 0.4912(2) 0.17861(19) 0.16003(16)
H12 H 0.5460 0.2041 0.1709
C12 C 0.4864(2) 0.10329(19) 0.17551(16)
H13 H 0.5376 0.0777 0.1974
C13 C 0.4041(2) 0.06657(19) 0.15786(16)
H14 H 0.3989 0.0162 0.1687
C14 C 0.3298(2) 0.10586(18) 0.12391(16)
C15 C 0.2423(2) 0.06490(17) 0.09717(17)
H15 H 0.2421 0.0501 0.0494
H16 H 0.2406 0.0196 0.1243
C16 C 0.0839(2) 0.08056(18) 0.04800(16)
H17 H 0.0274 0.0955 0.0618
H18 H 0.0858 0.0263 0.0478
C17 C 0.0845(2) 0.10881(17) -0.02533(16)
H19 H 0.1370 0.0880 -0.0414
H20 H 0.0310 0.0899 -0.0556
C18 C 0.0940(2) 0.20721(17) -0.10599(15)
H21 H 0.0432 0.1841 -0.1362
H22 H 0.1490 0.1844 -0.1159
C19 C 0.3725(2) 0.40423(18) -0.16098(16)
H23 H 0.4001 0.4524 -0.1668
H24 H 0.3182 0.3999 -0.1960
C20 C 0.4377(2) 0.34244(18) -0.17095(15)
C21 C 0.5309(2) 0.3529(2) -0.15347(17)
H25 H 0.5541 0.4000 -0.1399
C22 C 0.5889(2) 0.2934(2) -0.15624(18)
H26 H 0.6512 0.2995 -0.1432
C23 C 0.5528(2) 0.2246(2) -0.17881(18)
H27 H 0.5902 0.1834 -0.1806
C24 C 0.4598(2) 0.2184(2) -0.19870(17)
H28 H 0.4356 0.1725 -0.2154
C25 C 0.5046(2) 0.28564(18) 0.02289(16)
H29 H 0.5516 0.2857 0.0640
H30 H 0.5249 0.3176 -0.0115
C26 C 0.4938(2) 0.20684(19) -0.00545(16)
C27 C 0.5691(2) 0.1611(2) -0.00053(18)
H31 H 0.6252 0.1775 0.0228
C28 C 0.5601(3) 0.0908(2) -0.0306(2)
H32 H 0.6103 0.0598 -0.0287
C29 C 0.4756(3) 0.0673(2) -0.06339(19)
H33 H 0.4676 0.0202 -0.0838
C30 C 0.4033(2) 0.11530(19) -0.06526(17)
H34 H 0.3461 0.0991 -0.0864
C31 C 0.1375(2) 0.10746(18) 0.17090(16)
H35 H 0.1930 0.1087 0.2050
H36 H 0.1058 0.0613 0.1774
C32 C 0.0791(2) 0.17324(18) 0.18227(15)
C33 C -0.0150(2) 0.1700(2) 0.16516(17)
H37 H -0.0433 0.1252 0.1497
C34 C -0.0663(2) 0.2333(2) 0.17107(17)
H38 H -0.1290 0.2320 0.1582
C35 C -0.0229(2) 0.2983(2) 0.19637(17)
H39 H -0.0558 0.3417 0.2007
C36 C 0.0704(2) 0.29775(19) 0.21509(16)
H40 H 0.0995 0.3414 0.2328
C37 C 0.0061(2) 0.22776(17) -0.01450(16)
H41 H -0.0169 0.1969 0.0193
H42 H -0.0403 0.2300 -0.0558
C38 C 0.0216(2) 0.30616(17) 0.01480(15)
C39 C -0.0506(2) 0.3553(2) 0.00967(17)
H43 H -0.1071 0.3419 -0.0151
C40 C -0.0381(3) 0.4240(2) 0.04156(19)
H44 H -0.0864 0.4571 0.0396
C41 C 0.0471(3) 0.4435(2) 0.07668(19)
H45 H 0.0573 0.4900 0.0981
C42 C 0.1159(2) 0.39284(19) 0.07908(17)
H46 H 0.1734 0.4059 0.1024
N1 N 0.17470(17) 0.32608(15) -0.10378(13)
N2 N 0.2776(2) 0.07868(17) -0.23321(15)
N3 N 0.34781(17) 0.40022(14) -0.09087(13)
N5 N 0.42149(17) 0.31769(14) 0.04114(13)
N7 N 0.33426(17) 0.17937(14) 0.10989(13)
N8 N 0.16001(17) 0.10862(14) 0.09992(13)
N9 N 0.08660(17) 0.19116(14) -0.03259(12)
N10 N 0.40273(18) 0.27597(16) -0.19485(13)
N11 N 0.41171(18) 0.18437(15) -0.03804(13)
N12 N 0.12072(18) 0.23672(15) 0.20877(13)
N13 N 0.10419(18) 0.32459(15) 0.04912(13)
O1 O 0.2982(2) 0.10214(17) -0.28879(14)
O3 O 0.24558(18) 0.12298(14) -0.19470(14)
O5 O 0.2908(2) 0.01157(14) -0.21579(14)
Ag1 Ag 0.262110(16) 0.258160(14) -0.241780(13)
Ag2 Ag 0.208111(15) 0.235946(13) 0.062540(12)
Ag3 Ag 0.302733(15) 0.270667(13) -0.055276(12)
N12C N 0.12072(18) 0.26328(15) -0.29123(13)
Ag1C Ag 0.262110(16) 0.241840(14) 0.258220(13)
N4 N 0.19837(19) 0.84075(18) 0.01773(17)
O7 O 0.22166(19) 0.78815(17) 0.05903(15)
O9 O 0.1636(2) 0.89855(16) 0.03678(16)
O11 O 0.20878(18) 0.83460(17) -0.04433(14)
N6 N 0.6913(2) 0.1134(2) 0.70431(19)
O13 O 0.61866(19) 0.1104(2) 0.66336(16)
O15 O 0.7570(2) 0.1486(3) 0.68838(19)
O17 O 0.7009(2) 0.0798(2) 0.76062(18)
O2 O 0.20206(19) 0.74016(16) 0.19569(16)
O4 O 0.4803(2) 0.03661(19) 0.72723(18)
O6 O 0.9603(2) 0.96862(18) 0.21083(16)
O8 O 0.11410(19) 0.90502(17) 0.16810(15)
O10 O 0.2083(2) 0.58424(17) 0.17034(16)
O12 O 0.7252(2) 0.16817(18) 0.53762(18)
O14 O 0.1960(3) 0.51482(19) 0.39645(19)
O16 O 0.7119(3) 0.04634(19) 0.44709(17)
loop_
_geom_bond_atom_site_label_1
_geom_bond_atom_site_label_2
_geom_bond_site_symmetry_1
_geom_bond_site_symmetry_2
C1 C2 1_555 1_555
C2 H1 1_555 1_555
C3 C2 1_555 1_555
H2 C3 1_555 1_555
C4 C3 1_555 1_555
H3 C4 1_555 1_555
C5 C4 1_555 1_555
C6 C5 1_555 1_555
H4 C6 1_555 1_555
H5 C6 1_555 1_555
C7 H6 1_555 1_555
H7 C7 1_555 1_555
C8 C7 1_555 1_555
H8 C8 1_555 1_555
H9 C8 1_555 1_555
C9 H10 1_555 1_555
H11 C9 1_555 1_555
C10 C9 1_555 1_555
C11 C10 1_555 1_555
H12 C11 1_555 1_555
C12 C11 1_555 1_555
H13 C12 1_555 1_555
C13 C12 1_555 1_555
H14 C13 1_555 1_555
C14 C13 1_555 1_555
C15 C14 1_555 1_555
H15 C15 1_555 1_555
H16 C15 1_555 1_555
C16 H17 1_555 1_555
H18 C16 1_555 1_555
C17 C16 1_555 1_555
H19 C17 1_555 1_555
H20 C17 1_555 1_555
C18 C1 1_555 1_555
H21 C18 1_555 1_555
H22 C18 1_555 1_555
C19 H23 1_555 1_555
H24 C19 1_555 1_555
C20 C19 1_555 1_555
C21 C20 1_555 1_555
H25 C21 1_555 1_555
C22 C21 1_555 1_555
H26 C22 1_555 1_555
C23 C22 1_555 1_555
H27 C23 1_555 1_555
C24 C23 1_555 1_555
H28 C24 1_555 1_555
C25 H29 1_555 1_555
H30 C25 1_555 1_555
C26 C25 1_555 1_555
C27 C26 1_555 1_555
H31 C27 1_555 1_555
C28 C27 1_555 1_555
H32 C28 1_555 1_555
C29 C28 1_555 1_555
H33 C29 1_555 1_555
C30 C29 1_555 1_555
H34 C30 1_555 1_555
C31 H35 1_555 1_555
H36 C31 1_555 1_555
C32 C31 1_555 1_555
C33 C32 1_555 1_555
H37 C33 1_555 1_555
C34 C33 1_555 1_555
H38 C34 1_555 1_555
C35 C34 1_555 1_555
H39 C35 1_555 1_555
C36 C35 1_555 1_555
H40 C36 1_555 1_555
C37 H41 1_555 1_555
H42 C37 1_555 1_555
C38 C37 1_555 1_555
C39 C38 1_555 1_555
H43 C39 1_555 1_555
C40 C39 1_555 1_555
H44 C40 1_555 1_555
C41 C40 1_555 1_555
H45 C41 1_555 1_555
C42 C41 1_555 1_555
H46 C42 1_555 1_555
N1 C1 1_555 1_555
N2 O1 1_555 1_555
N3 C6 1_555 1_555
N4 O7 1_555 1_555
N5 C8 1_555 1_555
N6 O13 1_555 1_555
N7 C10 1_555 1_555
N8 C15 1_555 1_555
N9 C17 1_555 1_555
N10 C20 1_555 1_555
N11 C26 1_555 1_555
N12 C32 1_555 1_555
N13 C38 1_555 1_555
O3 N2 1_555 1_555
O5 N2 1_555 1_555
O9 N4 1_555 1_555
O11 N4 1_555 1_555
O15 N6 1_555 1_555
O17 N6 1_555 1_555
Ag1 N10 1_555 1_555
Ag2 N7 1_555 1_555
Ag3 N1 1_555 1_555
N12C Ag1 1_555 1_555
Ag1C N12 1_555 1_555
C5 N1 1_555 1_555
C7 N3 1_555 1_555
C9 N5 1_555 1_555
C14 N7 1_555 1_555
C16 N8 1_555 1_555
C18 N9 1_555 1_555
C19 N3 1_555 1_555
C24 N10 1_555 1_555
C25 N5 1_555 1_555
C30 N11 1_555 1_555
C31 N8 1_555 1_555
C36 N12 1_555 1_555
C37 N9 1_555 1_555
C42 N13 1_555 1_555
N3 Ag3 1_555 1_555
N5 Ag3 1_555 1_555
N8 Ag2 1_555 1_555
N9 Ag2 1_555 1_555
N11 Ag3 1_555 1_555
N13 Ag2 1_555 1_555
O3 Ag1 1_555 1_555
Ag2 Ag3 1_555 1_555

#END
