
#######################################################################
#
#                 Cambridge Crystallographic Data Centre
#                                CCDC 
#
#######################################################################
#
# If this CIF has been generated from an entry in the Cambridge 
# Structural Database, then it will include bibliographic, chemical, 
# crystal, experimental, refinement or atomic coordinate data resulting 
# from the CCDC's data processing and validation procedures.
#
#######################################################################

data_NAJMOB
_symmetry_cell_setting           tetragonal
_symmetry_space_group_name_H-M   'P 43 21 2'
_symmetry_Int_Tables_number      96
_space_group_name_Hall           'P 4nw 2abw'
loop_
_symmetry_equiv_pos_site_id
_symmetry_equiv_pos_as_xyz
1 x,y,z
2 -x,-y,1/2+z
3 1/2-y,1/2+x,3/4+z
4 1/2+y,1/2-x,1/4+z
5 1/2-x,1/2+y,3/4-z
6 1/2+x,1/2-y,1/4-z
7 y,x,-z
8 -y,-x,1/2-z
_cell_length_a                   7.8122(8)
_cell_length_b                   7.8122(8)
_cell_length_c                   20.232(3)
_cell_angle_alpha                90
_cell_angle_beta                 90
_cell_angle_gamma                90
_cell_volume                     1234.77
loop_
_atom_site_label
_atom_site_type_symbol
_atom_site_fract_x
_atom_site_fract_y
_atom_site_fract_z
Cu1 Cu 0.80088(5) 0.80088(5) 0.0000
O1 O 0.6503(3) 0.9500(3) 0.05324(10)
O2 O 0.7944(3) 0.8010(3) 0.12401(11)
O3 O 0.5866(4) 0.9657(4) 0.15680(12)
N1 N 0.6204(3) 0.6204(3) 0.0000
N2 N -0.0203(3) -0.0203(3) 0.0000
N3 N 0.6766(4) 0.9050(4) 0.11363(13)
C1 C 0.6283(5) 0.4863(4) 0.04069(18)
H1 H 0.7221 0.4784 0.0696
C2 C 0.5070(5) 0.3592(5) 0.04263(18)
H2 H 0.5185 0.2677 0.0725
C3 C 0.3662(4) 0.3662(4) 0.0000
C4 C 0.2317(4) 0.2317(4) 0.0000
C5 C 0.2674(4) 0.0644(5) 0.01785(16)
H3 H 0.3787 0.0342 0.0312
C6 C 0.1422(4) -0.0564(4) 0.01623(16)
H4 H 0.1707 -0.1699 0.0269
Cu1_2 Cu -0.19912(5) -0.19912(5) 0.0000
O1F O 0.9500(3) 0.6503(3) -0.05324(10)
O2F O 0.8010(3) 0.7944(3) -0.12401(11)
O3F O 0.9657(4) 0.5866(4) -0.15680(12)
N2_2 N 0.9797(3) 0.9797(3) 0.0000
N3F N 0.9050(4) 0.6766(4) -0.11363(13)
C1F C 0.4863(4) 0.6283(5) -0.04069(18)
H1F H 0.4784 0.7221 -0.0696
C2F C 0.3592(5) 0.5070(5) -0.04263(18)
H2F H 0.2677 0.5185 -0.0725
C5F C 0.0644(5) 0.2674(4) -0.01785(16)
H3F H 0.0342 0.3787 -0.0312
C6F C -0.0564(4) 0.1422(4) -0.01623(16)
H4F H -0.1699 0.1707 -0.0269
loop_
_geom_bond_atom_site_label_1
_geom_bond_atom_site_label_2
_geom_bond_site_symmetry_1
_geom_bond_site_symmetry_2
Cu1 O1 1_555 1_555
O1 N3 1_555 1_555
O2 Cu1 1_555 1_555
O3 N3 1_555 1_555
N1 Cu1 1_555 1_555
N2 C6 1_555 1_555
N3 O2 1_555 1_555
C1 N1 1_555 1_555
H1 C1 1_555 1_555
C2 C1 1_555 1_555
H2 C2 1_555 1_555
C3 C2 1_555 1_555
C4 C3 1_555 1_555
C5 C4 1_555 1_555
H3 C5 1_555 1_555
C6 C5 1_555 1_555
H4 C6 1_555 1_555
Cu1_2 N2 1_555 1_555
O1F Cu1 1_555 1_555
O2F Cu1 1_555 1_555
O3F N3F 1_555 1_555
N2_2 Cu1 1_555 1_555
N3F O1F 1_555 1_555
C1F N1 1_555 1_555
H1F C1F 1_555 1_555
C2F C3 1_555 1_555
H2F C2F 1_555 1_555
C5F C4 1_555 1_555
H3F C5F 1_555 1_555
C6F N2 1_555 1_555
H4F C6F 1_555 1_555
O2F N3F 1_555 1_555
C1F C2F 1_555 1_555
C5F C6F 1_555 1_555

#END
