
#######################################################################
#
#                 Cambridge Crystallographic Data Centre
#                                CCDC 
#
#######################################################################
#
# If this CIF has been generated from an entry in the Cambridge 
# Structural Database, then it will include bibliographic, chemical, 
# crystal, experimental, refinement or atomic coordinate data resulting 
# from the CCDC's data processing and validation procedures.
#
#######################################################################

data_NAJQUL
_symmetry_cell_setting           monoclinic
_symmetry_space_group_name_H-M   'P 21/n'
_symmetry_Int_Tables_number      14
_space_group_name_Hall           '-P 2yn'
loop_
_symmetry_equiv_pos_site_id
_symmetry_equiv_pos_as_xyz
1 x,y,z
2 1/2-x,1/2+y,1/2-z
3 -x,-y,-z
4 1/2+x,1/2-y,1/2+z
_cell_length_a                   13.362(4)
_cell_length_b                   14.475(3)
_cell_length_c                   13.568(2)
_cell_angle_alpha                90
_cell_angle_beta                 104.058(9)
_cell_angle_gamma                90
_cell_volume                     2545.66
loop_
_atom_site_label
_atom_site_type_symbol
_atom_site_fract_x
_atom_site_fract_y
_atom_site_fract_z
C1 C 0.3394(4) -0.0163(3) 0.4449(4)
C2 C 0.3049(4) 0.0685(3) 0.4030(4)
H1 H 0.3013 0.0801 0.3348
C3 C 0.2752(4) 0.1373(3) 0.4635(4)
C4 C 0.2854(7) 0.1202(4) 0.5655(5)
H2 H 0.2663 0.1653 0.6063
C5 C 0.3234(9) 0.0372(5) 0.6074(5)
H3 H 0.3326 0.0273 0.6767
C6 C 0.3482(7) -0.0320(5) 0.5467(5)
H4 H 0.3709 -0.0891 0.5748
C7 C 0.3639(4) -0.0894(3) 0.3769(4)
C8 C 0.2365(3) 0.2274(3) 0.4169(4)
C9 C 0.2169(3) 0.1585(3) -0.1157(3)
C10 C 0.3154(3) 0.1514(3) -0.1326(3)
H5 H 0.3577 0.1022 -0.1047
C11 C 0.3511(3) 0.2164(3) -0.1904(3)
C12 C 0.2869(4) 0.2884(4) -0.2347(4)
H6 H 0.3102 0.3322 -0.2741
C13 C 0.1878(4) 0.2948(4) -0.2200(4)
H7 H 0.1441 0.3419 -0.2511
C14 C 0.1545(4) 0.2317(4) -0.1595(4)
H8 H 0.0891 0.2380 -0.1477
C15 C 0.1826(3) 0.0912(3) -0.0452(3)
C16 C 0.4587(3) 0.2074(3) -0.2054(4)
C17 C 0.4107(3) 0.2376(3) 0.1420(4)
C18 C 0.3832(3) 0.2998(3) 0.2089(4)
H9 H 0.3429 0.2800 0.2519
C19 C 0.4154(3) 0.3913(3) 0.2122(4)
C20 C 0.4740(4) 0.4203(4) 0.1458(5)
H10 H 0.4945 0.4817 0.1459
C21 C 0.5014(5) 0.3589(4) 0.0805(5)
H11 H 0.5413 0.3792 0.0373
C22 C 0.4712(4) 0.2672(3) 0.0773(4)
H12 H 0.4908 0.2261 0.0329
C23 C 0.3745(3) 0.1408(3) 0.1411(3)
C24 C 0.3840(3) 0.4569(3) 0.2840(4)
O1 O 0.2042(2) 0.2340(2) 0.3220(2)
O2 O 0.2372(2) 0.2954(2) 0.4762(2)
O3 O 0.3737(3) -0.1712(2) 0.4106(3)
O4 O 0.3683(3) -0.0668(2) 0.2903(3)
O5 O 0.2265(2) 0.0142(2) -0.0311(2)
O6 O 0.1139(2) 0.1189(2) -0.0036(2)
O7 O 0.4840(2) 0.2607(2) -0.2680(3)
O8 O 0.5151(2) 0.1467(2) -0.1538(3)
O9 O 0.4296(2) 0.0758(2) 0.1205(3)
O10 O 0.2892(2) 0.1234(2) 0.1631(2)
O11 O 0.3367(3) 0.4256(2) 0.3472(3)
O12 O 0.4058(3) 0.5399(2) 0.2773(3)
O13 O 0.1033(3) 0.4282(2) 0.5438(3)
O14 O -0.0569(3) 0.1555(3) 0.0478(3)
Sm1 Sm 0.111786(16) 0.183144(15) 0.155766(17)
Sm2 Sm 0.172010(16) 0.433590(15) 0.384500(17)
O3A O 0.1263(3) 0.3288(2) 0.0894(3)
O4A O 0.1317(3) 0.4332(2) 0.2097(3)
O5A O 0.2735(2) 0.5142(2) 0.5311(2)
O7C O -0.0160(2) 0.2393(2) 0.2320(3)
O8C O 0.0151(2) 0.3533(2) 0.3462(3)
O9A O 0.0704(2) 0.5758(2) 0.3795(3)
O10A O 0.2108(2) 0.6234(2) 0.3369(2)
O12A O 0.0942(3) 0.0399(2) 0.2227(3)
Sm1A Sm 0.388214(16) -0.316856(15) 0.344234(17)
Sm1C Sm 0.611786(16) 0.316856(15) -0.344234(17)
Sm1A_2 Sm 0.388214(16) 0.683144(15) 0.344234(17)
Sm2A Sm 0.327990(16) -0.066410(15) 0.115500(17)
Sm2C Sm 0.672010(16) 0.066410(15) -0.115500(17)
loop_
_geom_bond_atom_site_label_1
_geom_bond_atom_site_label_2
_geom_bond_site_symmetry_1
_geom_bond_site_symmetry_2
C1 C2 1_555 1_555
C2 H1 1_555 1_555
C3 C2 1_555 1_555
C4 C3 1_555 1_555
H2 C4 1_555 1_555
C5 C4 1_555 1_555
H3 C5 1_555 1_555
C6 C1 1_555 1_555
H4 C6 1_555 1_555
C7 C1 1_555 1_555
C8 C3 1_555 1_555
C9 C10 1_555 1_555
C10 H5 1_555 1_555
C11 C10 1_555 1_555
C12 C11 1_555 1_555
H6 C12 1_555 1_555
C13 C12 1_555 1_555
H7 C13 1_555 1_555
C14 C9 1_555 1_555
H8 C14 1_555 1_555
C15 C9 1_555 1_555
C16 C11 1_555 1_555
C17 C18 1_555 1_555
C18 H9 1_555 1_555
C19 C18 1_555 1_555
C20 C19 1_555 1_555
H10 C20 1_555 1_555
C21 C20 1_555 1_555
H11 C21 1_555 1_555
C22 C17 1_555 1_555
H12 C22 1_555 1_555
C23 C17 1_555 1_555
C24 C19 1_555 1_555
O1 C8 1_555 1_555
O2 C8 1_555 1_555
O3 C7 1_555 1_555
O4 C7 1_555 1_555
O5 C15 1_555 1_555
O6 C15 1_555 1_555
O7 C16 1_555 1_555
O8 C16 1_555 1_555
O9 C23 1_555 1_555
O10 C23 1_555 1_555
O11 C24 1_555 1_555
O12 C24 1_555 1_555
O13 Sm2 1_555 1_555
O14 Sm1 1_555 1_555
Sm1 O1 1_555 1_555
Sm2 O2 1_555 1_555
O3A Sm1 1_555 1_555
O4A Sm2 1_555 1_555
O5A Sm2 1_555 1_555
O7C Sm1 1_555 1_555
O8C Sm2 1_555 1_555
O9A Sm2 1_555 1_555
O10A Sm2 1_555 1_555
O12A Sm1 1_555 1_555
Sm1A O3 1_555 1_555
Sm1C O7 1_555 1_555
Sm1A_2 O12 1_555 1_555
Sm2A O4 1_555 1_555
Sm2C O8 1_555 1_555
C5 C6 1_555 1_555
C13 C14 1_555 1_555
C21 C22 1_555 1_555
O5 Sm2A 1_555 1_555
O6 Sm1 1_555 1_555
O9 Sm2A 1_555 1_555
O10 Sm1 1_555 1_555
O10 Sm2A 1_555 1_555
O11 Sm2 1_555 1_555
O10A Sm1A_2 1_555 1_555

#END
