
#######################################################################
#
#                 Cambridge Crystallographic Data Centre
#                                CCDC 
#
#######################################################################
#
# If this CIF has been generated from an entry in the Cambridge 
# Structural Database, then it will include bibliographic, chemical, 
# crystal, experimental, refinement or atomic coordinate data resulting 
# from the CCDC's data processing and validation procedures.
#
#######################################################################

data_NAJRAS
_symmetry_cell_setting           monoclinic
_symmetry_space_group_name_H-M   'P 21/n'
_symmetry_Int_Tables_number      14
_space_group_name_Hall           '-P 2yn'
loop_
_symmetry_equiv_pos_site_id
_symmetry_equiv_pos_as_xyz
1 x,y,z
2 1/2-x,1/2+y,1/2-z
3 -x,-y,-z
4 1/2+x,1/2-y,1/2+z
_cell_length_a                   13.316(4)
_cell_length_b                   14.437(3)
_cell_length_c                   13.540(2)
_cell_angle_alpha                90
_cell_angle_beta                 103.956(9)
_cell_angle_gamma                90
_cell_volume                     2526.13
loop_
_atom_site_label
_atom_site_type_symbol
_atom_site_fract_x
_atom_site_fract_y
_atom_site_fract_z
C1 C 0.4112(7) 0.2377(6) 0.1420(7)
C2 C 0.3841(7) 0.2999(6) 0.2092(7)
H1 H 0.3444 0.2796 0.2528
C3 C 0.4150(7) 0.3920(6) 0.2127(7)
C4 C 0.4752(9) 0.4204(7) 0.1481(9)
H2 H 0.4976 0.4815 0.1501
C5 C 0.5027(9) 0.3587(7) 0.0803(9)
H3 H 0.5419 0.3793 0.0363
C6 C 0.4722(8) 0.2666(7) 0.0778(8)
H4 H 0.4922 0.2249 0.0337
C7 C 0.3739(6) 0.1407(6) 0.1416(6)
C8 C 0.3841(6) 0.4574(7) 0.2847(7)
C9 C 0.2169(7) 0.1584(6) -0.1152(7)
C10 C 0.3153(7) 0.1514(7) -0.1315(7)
H5 H 0.3580 0.1025 -0.1029
C11 C 0.3508(7) 0.2166(6) -0.1900(6)
C12 C 0.2880(7) 0.2887(7) -0.2345(7)
H6 H 0.3114 0.3322 -0.2745
C13 C 0.1875(8) 0.2952(7) -0.2181(8)
H7 H 0.1438 0.3429 -0.2480
C14 C 0.1545(7) 0.2314(7) -0.1585(7)
H8 H 0.0888 0.2372 -0.1468
C15 C 0.1833(6) 0.0910(7) -0.0468(6)
C16 C 0.4595(7) 0.2074(6) -0.2051(7)
C17 C 0.1602(8) 0.4841(6) 0.0560(7)
C18 C 0.1952(7) 0.5685(6) 0.0957(7)
H9 H 0.1996 0.5798 0.1642
C19 C 0.2241(7) 0.6370(7) 0.0384(7)
C20 C 0.2122(13) 0.6205(9) -0.0659(9)
H10 H 0.2314 0.6654 -0.1070
C21 C 0.1723(17) 0.5383(10) -0.1066(10)
H11 H 0.1615 0.5286 -0.1763
C22 C 0.1474(15) 0.4687(8) -0.0462(10)
H12 H 0.1223 0.4122 -0.0746
C23 C 0.1372(7) 0.4094(7) 0.1216(7)
C24 C 0.2627(6) 0.7275(6) 0.0843(7)
Eu1 Eu 0.11152(3) 0.18297(3) 0.15574(3)
Eu2 Eu 0.32797(3) -0.06635(3) 0.11525(3)
O1 O 0.4293(5) 0.0755(4) 0.1197(5)
O2 O 0.2891(4) 0.1242(4) 0.1622(5)
O3 O 0.3360(5) 0.4259(4) 0.3473(5)
O4 O 0.4062(5) 0.5404(5) 0.2779(6)
O5 O 0.2269(5) 0.0133(4) -0.0309(5)
O6 O 0.1134(4) 0.1184(4) -0.0031(4)
O7 O 0.4846(5) 0.2608(5) -0.2681(5)
O8 O 0.5156(5) 0.1468(5) -0.1530(5)
O9 O 0.1312(6) 0.4330(5) 0.2103(5)
O10 O 0.1258(6) 0.3280(4) 0.0901(6)
O11 O 0.2631(5) 0.7954(4) 0.0250(5)
O12 O 0.2959(5) 0.7335(4) 0.1792(5)
O13 O -0.0572(5) 0.1558(7) 0.0492(6)
O14 O 0.3963(5) -0.0718(5) -0.0423(5)
Eu1A Eu 0.38848(3) 0.68297(3) 0.34426(3)
Eu1C Eu 0.61152(3) 0.31703(3) -0.34426(3)
Eu2A Eu 0.17203(3) 0.43365(3) 0.38475(3)
Eu2B Eu 0.67203(3) 0.06635(3) -0.11525(3)
Eu2_2 Eu 0.32797(3) 0.93365(3) 0.11525(3)
O3A O 0.1640(5) -0.0741(4) 0.1527(5)
O4A O 0.0938(5) 0.0404(5) 0.2221(6)
O7C O -0.0154(5) 0.2392(5) 0.2319(5)
O8B O 0.4844(5) -0.1468(5) 0.1530(5)
O9A O 0.3688(6) -0.0670(5) 0.2897(5)
O11_2 O 0.2631(5) -0.2046(4) 0.0250(5)
O12A O 0.2041(5) 0.2335(4) 0.3208(5)
loop_
_geom_bond_atom_site_label_1
_geom_bond_atom_site_label_2
_geom_bond_site_symmetry_1
_geom_bond_site_symmetry_2
C1 C2 1_555 1_555
C2 H1 1_555 1_555
C3 C2 1_555 1_555
C4 C3 1_555 1_555
H2 C4 1_555 1_555
C5 C4 1_555 1_555
H3 C5 1_555 1_555
C6 C1 1_555 1_555
H4 C6 1_555 1_555
C7 C1 1_555 1_555
C8 C3 1_555 1_555
C9 C10 1_555 1_555
C10 H5 1_555 1_555
C11 C10 1_555 1_555
C12 C11 1_555 1_555
H6 C12 1_555 1_555
C13 C12 1_555 1_555
H7 C13 1_555 1_555
C14 C9 1_555 1_555
H8 C14 1_555 1_555
C15 C9 1_555 1_555
C16 C11 1_555 1_555
C17 C18 1_555 1_555
C18 H9 1_555 1_555
C19 C18 1_555 1_555
C20 C19 1_555 1_555
H10 C20 1_555 1_555
C21 C20 1_555 1_555
H11 C21 1_555 1_555
C22 C17 1_555 1_555
H12 C22 1_555 1_555
C23 C17 1_555 1_555
C24 C19 1_555 1_555
Eu1 O2 1_555 1_555
Eu2 O1 1_555 1_555
O1 C7 1_555 1_555
O2 C7 1_555 1_555
O3 C8 1_555 1_555
O4 C8 1_555 1_555
O5 C15 1_555 1_555
O6 C15 1_555 1_555
O7 C16 1_555 1_555
O8 C16 1_555 1_555
O9 C23 1_555 1_555
O10 C23 1_555 1_555
O11 C24 1_555 1_555
O12 C24 1_555 1_555
O13 Eu1 1_555 1_555
O14 Eu2 1_555 1_555
Eu1A O4 1_555 1_555
Eu1C O7 1_555 1_555
Eu2A O3 1_555 1_555
Eu2B O8 1_555 1_555
Eu2_2 O11 1_555 1_555
O3A Eu2 1_555 1_555
O4A Eu1 1_555 1_555
O7C Eu1 1_555 1_555
O8B Eu2 1_555 1_555
O9A Eu2 1_555 1_555
O11_2 Eu2 1_555 1_555
O12A Eu1 1_555 1_555
C5 C6 1_555 1_555
C13 C14 1_555 1_555
C21 C22 1_555 1_555
Eu1 O6 1_555 1_555
Eu1 O10 1_555 1_555
Eu2 O2 1_555 1_555
Eu2 O5 1_555 1_555
O9 Eu2A 1_555 1_555
O12 Eu1A 1_555 1_555

#END
