
#######################################################################
#
#                 Cambridge Crystallographic Data Centre
#                                CCDC 
#
#######################################################################
#
# If this CIF has been generated from an entry in the Cambridge 
# Structural Database, then it will include bibliographic, chemical, 
# crystal, experimental, refinement or atomic coordinate data resulting 
# from the CCDC's data processing and validation procedures.
#
#######################################################################

data_NAJSUM
_symmetry_cell_setting           monoclinic
_symmetry_space_group_name_H-M   'C 2/m'
_symmetry_Int_Tables_number      12
_space_group_name_Hall           '-C 2y'
loop_
_symmetry_equiv_pos_site_id
_symmetry_equiv_pos_as_xyz
1 x,y,z
2 -x,y,-z
3 1/2+x,1/2+y,z
4 1/2-x,1/2+y,-z
5 -x,-y,-z
6 x,-y,z
7 1/2-x,1/2-y,-z
8 1/2+x,1/2-y,z
_cell_length_a                   6.234(2)
_cell_length_b                   15.138(3)
_cell_length_c                   8.934(2)
_cell_angle_alpha                90
_cell_angle_beta                 95.60(2)
_cell_angle_gamma                90
_cell_volume                     839.08
loop_
_atom_site_label
_atom_site_type_symbol
_atom_site_fract_x
_atom_site_fract_y
_atom_site_fract_z
Mn1 Mn 0.5000 0.70287(2) 0.0000
N1 N 0.5963(2) 0.57857(6) 0.1420(1)
C1 C 0.6826(2) 0.57806(9) 0.2862(1)
C2 C 0.7258(4) 0.50000 0.3635(2)
C3 C 0.5530(3) 0.50000 0.0786(2)
N2 N 0.7217(2) 0.78723(8) 0.1388(1)
N3 N 0.7025(3) 0.8236(1) 0.2544(2)
N4 N 0.6882(4) 0.8580(2) 0.3671(3)
H1 H 0.7144(2) 0.63332(9) 0.3363(1)
H2 H 0.7843(4) 0.50000 0.4670(2)
C1E C 0.6826(2) 0.42194(9) 0.2862(1)
N1E N 0.5963(2) 0.42143(6) 0.1420(1)
Mn1E Mn 0.5000 0.29713(2) 0.0000
N1D N 0.4037(2) 0.42143(6) -0.1420(1)
C1D C 0.3174(2) 0.42194(9) -0.2862(1)
C2D C 0.2742(4) 0.50000 -0.3635(2)
C1A C 0.3174(2) 0.57806(9) -0.2862(1)
N1A N 0.4037(2) 0.57857(6) -0.1420(1)
Mn1F Mn 1.0000 0.79713(2) 0.0000
N2F N 0.7783(2) 0.71277(8) -0.1388(1)
N2A N 0.2783(2) 0.78723(8) -0.1388(1)
Mn1G Mn 0.0000 0.79713(2) 0.0000
N2G N 0.2217(2) 0.71277(8) 0.1388(1)
N3G N 0.2025(3) 0.6764(1) 0.2544(2)
N4G N 0.1882(4) 0.6420(2) 0.3671(3)
N3A N 0.2975(3) 0.8236(1) -0.2544(2)
N4A N 0.3118(4) 0.8580(2) -0.3671(3)
N3F N 0.7975(3) 0.6764(1) -0.2544(2)
N4F N 0.8118(4) 0.6420(2) -0.3671(3)
C3A C 0.4470(3) 0.50000 -0.0786(2)
H1A H 0.2856(2) 0.63332(9) -0.3363(1)
H2D H 0.2157(4) 0.50000 -0.4670(2)
H1D H 0.2856(2) 0.36668(9) -0.3363(1)
N2E N 0.7217(2) 0.21277(8) 0.1388(1)
N2D N 0.2783(2) 0.21277(8) -0.1388(1)
N2C N 0.7783(2) 0.28723(8) -0.1388(1)
N2B N 0.2217(2) 0.28723(8) 0.1388(1)
H1E H 0.7144(2) 0.36668(9) 0.3363(1)
loop_
_geom_bond_atom_site_label_1
_geom_bond_atom_site_label_2
_geom_bond_site_symmetry_1
_geom_bond_site_symmetry_2
Mn1 N1 1_555 1_555
N1 C1 1_555 1_555
C1 C2 1_555 1_555
C2 H2 1_555 1_555
C3 N1 1_555 1_555
N2 Mn1 1_555 1_555
N3 N2 1_555 1_555
N4 N3 1_555 1_555
H1 C1 1_555 1_555
C1E C2 1_555 1_555
N1E C3 1_555 1_555
Mn1E N1E 1_555 1_555
N1D Mn1E 1_555 1_555
C1D N1D 1_555 1_555
C2D C1D 1_555 1_555
C1A C2D 1_555 1_555
N1A Mn1 1_555 1_555
Mn1F N2 1_555 1_555
N2F Mn1 1_555 1_555
N2A Mn1 1_555 1_555
Mn1G N2A 1_555 1_555
N2G Mn1 1_555 1_555
N3G N2G 1_555 1_555
N4G N3G 1_555 1_555
N3A N2A 1_555 1_555
N4A N3A 1_555 1_555
N3F N2F 1_555 1_555
N4F N3F 1_555 1_555
C3A C3 1_555 1_555
H1A C1A 1_555 1_555
H2D C2D 1_555 1_555
H1D C1D 1_555 1_555
N2E Mn1E 1_555 1_555
N2D Mn1E 1_555 1_555
N2C Mn1E 1_555 1_555
N2B Mn1E 1_555 1_555
H1E C1E 1_555 1_555
C1E N1E 1_555 1_555
N1D C3A 1_555 1_555
C1A N1A 1_555 1_555
N1A C3A 1_555 1_555
Mn1F N2F 1_555 1_555
Mn1G N2G 1_555 1_555

#END
