
#######################################################################
#
#                 Cambridge Crystallographic Data Centre
#                                CCDC 
#
#######################################################################
#
# If this CIF has been generated from an entry in the Cambridge 
# Structural Database, then it will include bibliographic, chemical, 
# crystal, experimental, refinement or atomic coordinate data resulting 
# from the CCDC's data processing and validation procedures.
#
#######################################################################

data_NAJSAS
_symmetry_cell_setting           orthorhombic
_symmetry_space_group_name_H-M   'P b c n'
_symmetry_Int_Tables_number      60
_space_group_name_Hall           '-P 2n 2ab'
loop_
_symmetry_equiv_pos_site_id
_symmetry_equiv_pos_as_xyz
1 x,y,z
2 1/2-x,1/2-y,1/2+z
3 1/2+x,1/2-y,-z
4 -x,y,1/2-z
5 -x,-y,-z
6 1/2+x,1/2+y,1/2-z
7 1/2-x,1/2+y,z
8 x,-y,1/2+z
_cell_length_a                   16.778(3)
_cell_length_b                   18.433(4)
_cell_length_c                   13.403(4)
_cell_angle_alpha                90
_cell_angle_beta                 90
_cell_angle_gamma                90
_cell_volume                     4145.13
loop_
_atom_site_label
_atom_site_type_symbol
_atom_site_fract_x
_atom_site_fract_y
_atom_site_fract_z
Ag1 Ag 0.51417(5) 0.41764(5) 0.51503(8)
N1 N 0.2580(6) 0.3870(5) 0.5034(9)
C1 C 0.3336(7) 0.3694(6) 0.508(1)
H1 H 0.3514(7) 0.3201(6) 0.513(1)
C2 C 0.3371(6) 0.4850(6) 0.4967(9)
N2 N 0.3851(5) 0.4267(5) 0.5036(7)
N3 N 0.6429(5) 0.4451(5) 0.5080(7)
C3 C 0.7033(6) 0.3979(6) 0.5168(8)
C4 C 0.6842(7) 0.3188(5) 0.525(1)
H2 H 0.7284(7) 0.2857(5) 0.523(1)
H3 H 0.6648(7) 0.3225(5) 0.592(1)
H4 H 0.6424(7) 0.3011(5) 0.482(1)
C5 C 0.7828(7) 0.4216(6) 0.5190(9)
H5 H 0.8244(7) 0.3862(6) 0.5262(9)
C6 C 0.8031(6) 0.4921(6) 0.5112(9)
C7 C 0.8842(7) 0.5232(8) 0.504(1)
H6 H 0.9227(7) 0.4894(8) 0.530(1)
H7 H 0.8979(7) 0.5367(8) 0.437(1)
H8 H 0.8836(7) 0.5657(8) 0.546(1)
N4 N 0.2603(5) 0.4606(5) 0.4954(7)
S1 S 0.50000 0.3410(2) 0.75000
O1 O 0.5475(9) 0.3894(9) 0.695(1)
O2 O 0.457(1) 0.302(1) 0.685(1)
Ag1D Ag 0.48583(5) 0.58236(5) 0.48497(8)
N2D N 0.6149(5) 0.5733(5) 0.4964(7)
C1D C 0.6664(7) 0.6306(6) 0.492(1)
N1D N 0.7420(6) 0.6130(5) 0.4966(9)
N4D N 0.7397(5) 0.5394(5) 0.5046(7)
C2D C 0.6629(6) 0.5150(6) 0.5033(9)
N3D N 0.3571(5) 0.5549(5) 0.4920(7)
O1D O 0.4525(9) 0.6106(9) 0.305(1)
C3D C 0.2967(6) 0.6021(6) 0.4832(8)
C4D C 0.3158(7) 0.6812(5) 0.475(1)
H2D H 0.2716(7) 0.7143(5) 0.477(1)
H3D H 0.3352(7) 0.6775(5) 0.408(1)
H4D H 0.3576(7) 0.6989(5) 0.518(1)
C5D C 0.2172(7) 0.5784(6) 0.4810(9)
H5D H 0.1756(7) 0.6138(6) 0.4738(9)
C6D C 0.1969(6) 0.5079(6) 0.4888(9)
C7D C 0.1158(7) 0.4768(8) 0.496(1)
H6D H 0.0773(7) 0.5106(8) 0.470(1)
H7D H 0.1021(7) 0.4633(8) 0.563(1)
H8D H 0.1164(7) 0.4343(8) 0.454(1)
H1D H 0.6486(7) 0.6799(6) 0.487(1)
O1C O 0.4525(9) 0.3894(9) 0.805(1)
Ag1C Ag 0.48583(5) 0.41764(5) 0.98497(8)
O2C O 0.543(1) 0.302(1) 0.815(1)
Ag2 Ag 0.50000 0.52719(8) 0.75000
Ag3 Ag 0.50000 0.69063(8) 0.75000
N5 N 0.2439(6) 0.5132(6) 0.7385(8)
C8 C 0.3186(7) 0.4912(7) 0.744(1)
H9 H 0.3322(7) 0.4406(7) 0.747(1)
N6 N 0.3754(5) 0.5445(5) 0.7464(8)
C9 C 0.3337(7) 0.6054(7) 0.7442(8)
N7 N 0.3604(6) 0.6728(5) 0.7435(7)
C10 C 0.3059(7) 0.7251(6) 0.7364(8)
C11 C 0.3330(9) 0.8012(7) 0.732(1)
H10 H 0.2889(9) 0.8316(7) 0.750(1)
H11 H 0.3621(9) 0.8237(7) 0.678(1)
H12 H 0.3675(9) 0.7948(7) 0.788(1)
C12 C 0.2238(8) 0.7094(7) 0.7312(8)
H13 H 0.1866(8) 0.7488(7) 0.7264(8)
C13 C 0.1957(7) 0.6410(7) 0.7324(9)
C14 C 0.1118(7) 0.6165(8) 0.727(1)
H14 H 0.0824(7) 0.6511(8) 0.688(1)
H15 H 0.1048(7) 0.6269(8) 0.797(1)
H16 H 0.0926(7) 0.5685(8) 0.713(1)
N8 N 0.2544(5) 0.5884(5) 0.7394(6)
S2 S 0.5219(2) 0.7857(2) 0.5327(2)
O3 O 0.4986(5) 0.7150(6) 0.5702(7)
O4 O 0.4985(6) 0.8445(7) 0.5938(9)
O5 O 0.6054(5) 0.7878(5) 0.5094(8)
O6 O 0.4750(6) 0.7961(5) 0.4349(8)
H17 H 0.498(9) 0.768(7) 0.393(9)
N6C N 0.6246(5) 0.5445(5) 0.7536(8)
C8C C 0.6814(7) 0.4912(7) 0.756(1)
N5C N 0.7561(6) 0.5132(6) 0.7615(8)
N8C N 0.7456(5) 0.5884(5) 0.7606(6)
C9C C 0.6663(7) 0.6054(7) 0.7558(8)
N7C N 0.6396(6) 0.6728(5) 0.7565(7)
O3C O 0.5014(5) 0.7150(6) 0.9298(7)
S2C S 0.4781(2) 0.7857(2) 0.9673(2)
O4C O 0.5015(6) 0.8445(7) 0.9062(9)
O5C O 0.3946(5) 0.7878(5) 0.9906(8)
O6C O 0.5250(6) 0.7961(5) 1.0651(8)
H17C H 0.502(9) 0.768(7) 1.107(9)
C10C C 0.6941(7) 0.7251(6) 0.7636(8)
C11C C 0.6670(9) 0.8012(7) 0.768(1)
H10C H 0.7111(9) 0.8316(7) 0.750(1)
H11C H 0.6379(9) 0.8237(7) 0.822(1)
H12C H 0.6325(9) 0.7948(7) 0.712(1)
C12C C 0.7762(8) 0.7094(7) 0.7688(8)
H13C H 0.8134(8) 0.7488(7) 0.7736(8)
C13C C 0.8043(7) 0.6410(7) 0.7676(9)
C14C C 0.8882(7) 0.6165(8) 0.773(1)
H14C H 0.9176(7) 0.6511(8) 0.812(1)
H15C H 0.8952(7) 0.6269(8) 0.703(1)
H16C H 0.9074(7) 0.5685(8) 0.787(1)
H9C H 0.6678(7) 0.4406(7) 0.753(1)
O7 O 0.50000 0.953(1) 0.75000
H18 H 0.49(1) 0.934(8) 0.693(6)
H18C H 0.51(1) 0.934(8) 0.807(6)
loop_
_geom_bond_atom_site_label_1
_geom_bond_atom_site_label_2
_geom_bond_site_symmetry_1
_geom_bond_site_symmetry_2
Ag1 N2 1_555 1_555
Ag2 Ag3 1_555 1_555
Ag3 N7 1_555 1_555
N1 C1 1_555 1_555
C1 H1 1_555 1_555
C2 N2 1_555 1_555
N2 C1 1_555 1_555
N3 Ag1 1_555 1_555
C3 N3 1_555 1_555
C4 C3 1_555 1_555
H2 C4 1_555 1_555
H3 C4 1_555 1_555
H4 C4 1_555 1_555
C5 C3 1_555 1_555
H5 C5 1_555 1_555
C6 C5 1_555 1_555
C7 C6 1_555 1_555
H6 C7 1_555 1_555
H7 C7 1_555 1_555
H8 C7 1_555 1_555
N4 N1 1_555 1_555
N5 C8 1_555 1_555
C8 H9 1_555 1_555
N6 Ag2 1_555 1_555
C9 N6 1_555 1_555
N7 C9 1_555 1_555
C10 N7 1_555 1_555
C11 C10 1_555 1_555
H10 C11 1_555 1_555
H11 C11 1_555 1_555
H12 C11 1_555 1_555
C12 C10 1_555 1_555
H13 C12 1_555 1_555
C13 C12 1_555 1_555
C14 C13 1_555 1_555
H14 C14 1_555 1_555
H15 C14 1_555 1_555
H16 C14 1_555 1_555
N8 N5 1_555 1_555
S1 O1 1_555 1_555
O1 Ag1 1_555 1_555
O2 S1 1_555 1_555
S2 O3 1_555 1_555
O3 Ag3 1_555 1_555
O4 S2 1_555 1_555
O5 S2 1_555 1_555
O6 S2 1_555 1_555
H17 O6 1_555 1_555
O7 H18 1_555 1_555
Ag1D Ag1 1_555 1_555
N2D Ag1D 1_555 1_555
C1D N2D 1_555 1_555
N1D C1D 1_555 1_555
N4D C6 1_555 1_555
C2D N3 1_555 1_555
N3D C2 1_555 1_555
O1D Ag1D 1_555 1_555
C3D N3D 1_555 1_555
C4D C3D 1_555 1_555
H2D C4D 1_555 1_555
H3D C4D 1_555 1_555
H4D C4D 1_555 1_555
C5D C3D 1_555 1_555
H5D C5D 1_555 1_555
C6D N4 1_555 1_555
C7D C6D 1_555 1_555
H6D C7D 1_555 1_555
H7D C7D 1_555 1_555
H8D C7D 1_555 1_555
H1D C1D 1_555 1_555
N6C Ag2 1_555 1_555
C8C N6C 1_555 1_555
N5C C8C 1_555 1_555
N8C N5C 1_555 1_555
C9C N6C 1_555 1_555
N7C Ag3 1_555 1_555
O3C Ag3 1_555 1_555
S2C O3C 1_555 1_555
O4C S2C 1_555 1_555
O5C S2C 1_555 1_555
O6C S2C 1_555 1_555
H17C O6C 1_555 1_555
C10C N7C 1_555 1_555
C11C C10C 1_555 1_555
H10C C11C 1_555 1_555
H11C C11C 1_555 1_555
H12C C11C 1_555 1_555
C12C C10C 1_555 1_555
H13C C12C 1_555 1_555
C13C N8C 1_555 1_555
C14C C13C 1_555 1_555
H14C C14C 1_555 1_555
H15C C14C 1_555 1_555
H16C C14C 1_555 1_555
H9C C8C 1_555 1_555
O1C S1 1_555 1_555
Ag1C O1C 1_555 1_555
O2C S1 1_555 1_555
H18C O7 1_555 1_555
C2 N4 1_555 1_555
C8 N6 1_555 1_555
C9 N8 1_555 1_555
C13 N8 1_555 1_555
Ag1D N3D 1_555 1_555
N2D C2D 1_555 1_555
N1D N4D 1_555 1_555
N4D C2D 1_555 1_555
C5D C6D 1_555 1_555
N8C C9C 1_555 1_555
C9C N7C 1_555 1_555
C12C C13C 1_555 1_555

#END
