
#######################################################################
#
#                 Cambridge Crystallographic Data Centre
#                                CCDC 
#
#######################################################################
#
# If this CIF has been generated from an entry in the Cambridge 
# Structural Database, then it will include bibliographic, chemical, 
# crystal, experimental, refinement or atomic coordinate data resulting 
# from the CCDC's data processing and validation procedures.
#
#######################################################################

data_NAJSUM02
_symmetry_cell_setting           monoclinic
_symmetry_space_group_name_H-M   'C 2/m'
_symmetry_Int_Tables_number      12
_space_group_name_Hall           '-C 2y'
loop_
_symmetry_equiv_pos_site_id
_symmetry_equiv_pos_as_xyz
1 x,y,z
2 -x,y,-z
3 1/2+x,1/2+y,z
4 1/2-x,1/2+y,-z
5 -x,-y,-z
6 x,-y,z
7 1/2-x,1/2-y,-z
8 1/2+x,1/2-y,z
_cell_length_a                   6.206(2)
_cell_length_b                   15.084(2)
_cell_length_c                   8.9090(10)
_cell_angle_alpha                90
_cell_angle_beta                 95.75(2)
_cell_angle_gamma                90
_cell_volume                     829.787
loop_
_atom_site_label
_atom_site_type_symbol
_atom_site_fract_x
_atom_site_fract_y
_atom_site_fract_z
Mn1 Mn 0.5000 0.7027(1) 0.0000
N1 N 0.5956(4) 0.5784(1) 0.1424(2)
N2 N 0.7218(4) 0.7874(2) 0.1383(3)
N3 N 0.7023(5) 0.8236(2) 0.2536(3)
N4 N 0.6860(8) 0.8578(4) 0.3654(5)
C1 C 0.6825(5) 0.5778(2) 0.2849(3)
C2 C 0.7248(8) 0.5000 0.3633(4)
C3 C 0.5526(6) 0.5000 0.0776(4)
H1 H 0.7157(5) 0.6314(2) 0.3331(3)
H2 H 0.7793(8) 0.5000 0.4644(4)
C1E C 0.6825(5) 0.4222(2) 0.2849(3)
N1E N 0.5956(4) 0.4216(1) 0.1424(2)
Mn1E Mn 0.5000 0.2973(1) 0.0000
N1D N 0.4044(4) 0.4216(1) -0.1424(2)
C1D C 0.3175(5) 0.4222(2) -0.2849(3)
C2D C 0.2752(8) 0.5000 -0.3633(4)
C1A C 0.3175(5) 0.5778(2) -0.2849(3)
N1A N 0.4044(4) 0.5784(1) -0.1424(2)
Mn1F Mn 1.0000 0.7973(1) 0.0000
N2F N 0.7782(4) 0.7126(2) -0.1383(3)
N2A N 0.2782(4) 0.7874(2) -0.1383(3)
Mn1G Mn 0.0000 0.7973(1) 0.0000
N1G N 0.0956(4) 0.9216(1) 0.1424(2)
N1F N -0.0956(4) 0.9216(1) -0.1424(2)
N2G N 0.2218(4) 0.7126(2) 0.1383(3)
N3G N 0.2023(5) 0.6764(2) 0.2536(3)
N4G N 0.1860(8) 0.6422(4) 0.3654(5)
N2F_2 N -0.2218(4) 0.7126(2) -0.1383(3)
N2_2 N -0.2782(4) 0.7874(2) 0.1383(3)
N3A N 0.2977(5) 0.8236(2) -0.2536(3)
N4A N 0.3140(8) 0.8578(4) -0.3654(5)
N3F N 0.7977(5) 0.6764(2) -0.2536(3)
N4F N 0.8140(8) 0.6422(4) -0.3654(5)
C3A C 0.4474(6) 0.5000 -0.0776(4)
H1A H 0.2843(5) 0.6314(2) -0.3331(3)
H2D H 0.2207(8) 0.5000 -0.4644(4)
H1D H 0.2843(5) 0.3686(2) -0.3331(3)
H1E H 0.7157(5) 0.3686(2) 0.3331(3)
loop_
_geom_bond_atom_site_label_1
_geom_bond_atom_site_label_2
_geom_bond_site_symmetry_1
_geom_bond_site_symmetry_2
Mn1 N1 1_555 1_555
N1 C1 1_555 1_555
N2 Mn1 1_555 1_555
N3 N2 1_555 1_555
N4 N3 1_555 1_555
C1 C2 1_555 1_555
C2 H2 1_555 1_555
C3 N1 1_555 1_555
H1 C1 1_555 1_555
C1E C2 1_555 1_555
N1E C3 1_555 1_555
Mn1E N1E 1_555 1_555
N1D Mn1E 1_555 1_555
C1D N1D 1_555 1_555
C2D C1D 1_555 1_555
C1A C2D 1_555 1_555
N1A Mn1 1_555 1_555
Mn1F N2 1_555 1_555
N2F Mn1 1_555 1_555
N2A Mn1 1_555 1_555
Mn1G N2A 1_555 1_555
N1G Mn1G 1_555 1_555
N1F Mn1G 1_555 1_555
N2G Mn1 1_555 1_555
N3G N2G 1_555 1_555
N4G N3G 1_555 1_555
N2F_2 Mn1G 1_555 1_555
N2_2 Mn1G 1_555 1_555
N3A N2A 1_555 1_555
N4A N3A 1_555 1_555
N3F N2F 1_555 1_555
N4F N3F 1_555 1_555
C3A C3 1_555 1_555
H1A C1A 1_555 1_555
H2D C2D 1_555 1_555
H1D C1D 1_555 1_555
H1E C1E 1_555 1_555
C1E N1E 1_555 1_555
N1D C3A 1_555 1_555
C1A N1A 1_555 1_555
N1A C3A 1_555 1_555
Mn1F N2F 1_555 1_555
Mn1G N2G 1_555 1_555

#END
