
#######################################################################
#
#                 Cambridge Crystallographic Data Centre
#                                CCDC 
#
#######################################################################
#
# If this CIF has been generated from an entry in the Cambridge 
# Structural Database, then it will include bibliographic, chemical, 
# crystal, experimental, refinement or atomic coordinate data resulting 
# from the CCDC's data processing and validation procedures.
#
#######################################################################

data_NAJTIB
_symmetry_cell_setting           monoclinic
_symmetry_space_group_name_H-M   'P 21/c'
_symmetry_Int_Tables_number      14
_space_group_name_Hall           '-P 2ybc'
loop_
_symmetry_equiv_pos_site_id
_symmetry_equiv_pos_as_xyz
1 x,y,z
2 -x,1/2+y,1/2-z
3 -x,-y,-z
4 x,1/2-y,1/2+z
_cell_length_a                   7.695(2)
_cell_length_b                   13.114(3)
_cell_length_c                   7.813(2)
_cell_angle_alpha                90
_cell_angle_beta                 111.67
_cell_angle_gamma                90
_cell_volume                     732.706
loop_
_atom_site_label
_atom_site_type_symbol
_atom_site_fract_x
_atom_site_fract_y
_atom_site_fract_z
Mn1 Mn 0.13510(4) 0.07165(2) 0.19336(4)
N1 N 0.2915(2) -0.0660(1) 0.3613(2)
C1 C 0.2246(3) -0.1613(2) 0.3409(3)
C2 C 0.3268(3) -0.2410(1) 0.4445(3)
C3 C 0.4994(3) -0.2187(2) 0.5751(3)
N2 N 0.5686(2) -0.1235(1) 0.6000(2)
C4 C 0.4614(2) -0.0524(1) 0.4895(3)
N3 N 0.1288(3) 0.2254(1) 0.0862(3)
N4 N 0.0806(2) 0.2974(1) -0.0062(2)
N5 N 0.0297(3) 0.3704(1) -0.0966(3)
N6 N -0.1425(2) -0.0039(1) 0.0635(2)
N7 N -0.2536(2) -0.0211(1) 0.1358(2)
N8 N -0.3599(3) -0.0364(2) 0.2033(3)
H1 H 0.5726(3) -0.2725(2) 0.6512(3)
H2 H 0.2796(3) -0.3095(1) 0.4254(3)
H3 H 0.1018(3) -0.1742(2) 0.2516(3)
C4B C 0.5386(2) 0.0524(1) 0.5105(3)
N1B N 0.7085(2) 0.0660(1) 0.6387(2)
C1B C 0.7754(3) 0.1613(2) 0.6591(3)
C2B C 0.6732(3) 0.2410(1) 0.5555(3)
C3B C 0.5006(3) 0.2187(2) 0.4249(3)
N2B N 0.4314(2) 0.1235(1) 0.4000(2)
H1B H 0.4274(3) 0.2725(2) 0.3488(3)
H2B H 0.7204(3) 0.3095(1) 0.5746(3)
H3B H 0.8982(3) 0.1742(2) 0.7484(3)
N3C N 0.1288(3) 0.2746(1) 0.5862(3)
N4C N 0.0806(2) 0.2026(1) 0.4938(2)
N5C N 0.0297(3) 0.1296(1) 0.4034(3)
N6B N 0.1425(2) 0.0039(1) -0.0635(2)
N7B N 0.2536(2) 0.0211(1) -0.1358(2)
N8B N 0.3599(3) 0.0364(2) -0.2033(3)
Mn1B Mn 0.86490(4) -0.07165(2) 0.80664(4)
Mn1C Mn 0.13510(4) 0.42835(2) -0.30664(4)
Mn1B_2 Mn -0.13510(4) -0.07165(2) -0.19336(4)
Mn1C_2 Mn 0.13510(4) 0.42835(2) 0.69336(4)
N3B N 0.8712(3) -0.2254(1) 0.9138(3)
N5A N 0.9703(3) -0.1296(1) 0.5966(3)
N6_2 N 0.8575(2) -0.0039(1) 1.0635(2)
N6B_2 N 1.1425(2) 0.0039(1) 0.9365(2)
loop_
_geom_bond_atom_site_label_1
_geom_bond_atom_site_label_2
_geom_bond_site_symmetry_1
_geom_bond_site_symmetry_2
Mn1 N1 1_555 1_555
N1 C1 1_555 1_555
C1 C2 1_555 1_555
C2 C3 1_555 1_555
C3 N2 1_555 1_555
N2 C4 1_555 1_555
C4 N1 1_555 1_555
N3 Mn1 1_555 1_555
N4 N3 1_555 1_555
N5 N4 1_555 1_555
N6 Mn1 1_555 1_555
N7 N6 1_555 1_555
N8 N7 1_555 1_555
H1 C3 1_555 1_555
H2 C2 1_555 1_555
H3 C1 1_555 1_555
C4B C4 1_555 1_555
N1B C4B 1_555 1_555
C1B N1B 1_555 1_555
C2B C1B 1_555 1_555
C3B C2B 1_555 1_555
N2B Mn1 1_555 1_555
H1B C3B 1_555 1_555
H2B C2B 1_555 1_555
H3B C1B 1_555 1_555
N3C N4C 1_555 1_555
N4C N5C 1_555 1_555
N5C Mn1 1_555 1_555
N6B Mn1 1_555 1_555
N7B N6B 1_555 1_555
N8B N7B 1_555 1_555
Mn1B N2 1_555 1_555
Mn1C N5 1_555 1_555
Mn1B_2 N6 1_555 1_555
Mn1C_2 N3C 1_555 1_555
N3B Mn1B 1_555 1_555
N5A Mn1B 1_555 1_555
N6_2 Mn1B 1_555 1_555
N6B_2 Mn1B 1_555 1_555
C4B N2B 1_555 1_555
N1B Mn1B 1_555 1_555
C3B N2B 1_555 1_555
N6B Mn1B_2 1_555 1_555

#END
