
#######################################################################
#
#                 Cambridge Crystallographic Data Centre
#                                CCDC 
#
#######################################################################
#
# If this CIF has been generated from an entry in the Cambridge 
# Structural Database, then it will include bibliographic, chemical, 
# crystal, experimental, refinement or atomic coordinate data resulting 
# from the CCDC's data processing and validation procedures.
#
#######################################################################

data_NAJZEE
_symmetry_cell_setting           monoclinic
_symmetry_space_group_name_H-M   'P 21/n'
_symmetry_Int_Tables_number      14
_space_group_name_Hall           '-P 2yn'
loop_
_symmetry_equiv_pos_site_id
_symmetry_equiv_pos_as_xyz
1 x,y,z
2 1/2-x,1/2+y,1/2-z
3 -x,-y,-z
4 1/2+x,1/2-y,1/2+z
_cell_length_a                   11.559
_cell_length_b                   30.8788(8)
_cell_length_c                   13.5549(3)
_cell_angle_alpha                90
_cell_angle_beta                 108.1350(10)
_cell_angle_gamma                90
_cell_volume                     4597.79
loop_
_atom_site_label
_atom_site_type_symbol
_atom_site_fract_x
_atom_site_fract_y
_atom_site_fract_z
Zn1 Zn 1.11758(9) 0.39877(3) 0.92293(8)
Zn2 Zn 1.0000 0.5000 1.0000
Zn3 Zn 0.86377(9) 0.49455(3) 0.71647(7)
Zn4 Zn 0.84938(9) 0.41221(3) 1.10398(8)
P1 P 0.8413(2) 0.41849(7) 0.86488(17)
P2 P 0.8548(2) 0.51028(7) 1.17518(17)
P3 P 1.1303(2) 0.41837(7) 1.15422(17)
N1 N 0.7570(6) 0.4371(2) 0.6568(5)
N2 N 0.7570(7) 0.4326(2) 1.2108(6)
N3 N 1.2043(7) 0.3548(2) 1.0467(5)
C1 C 0.7182(7) 0.4154(3) 0.7402(6)
H1 H 0.6987 0.3853 0.7219
H2 H 0.6457 0.4294 0.7466
C2 C 0.6515(8) 0.4527(3) 0.5687(6)
H3 H 0.5881 0.4633 0.5955
H4 H 0.6184 0.4288 0.5221
C3 C 0.6906(8) 0.4896(3) 0.5078(7)
C4 C 0.8341(9) 0.4077(3) 0.6146(7)
H5 H 0.7890 0.3820 0.5871
H6 H 0.9066 0.4001 0.6692
H7 H 0.8557 0.4224 0.5603
C5 C 0.7297(8) 0.4803(3) 1.2002(7)
H8 H 0.7174 0.4910 1.2635
H9 H 0.6552 0.4851 1.1436
C6 C 0.6469(8) 0.4053(3) 1.1877(8)
H10 H 0.5846 0.4167 1.1275
H11 H 0.6153 0.4058 1.2461
C7 C 0.6786(9) 0.3579(3) 1.1660(7)
C8 C 0.8392(10) 0.4231(3) 1.3204(7)
H12 H 0.7993 0.4321 1.3695
H13 H 0.9142 0.4387 1.3331
H14 H 0.8557 0.3927 1.3278
C9 C 1.2450(8) 0.3773(3) 1.1500(6)
H15 H 1.3231 0.3911 1.1598
H16 H 1.2542 0.3564 1.2053
C10 C 1.3044(10) 0.3331(3) 1.0175(7)
H17 H 1.3264 0.3062 1.0559
H18 H 1.3756 0.3516 1.0349
C11 C 1.2611(8) 0.3236(3) 0.8995(7)
C12 C 1.1108(10) 0.3201(3) 1.0492(8)
H19 H 1.1468 0.2998 1.1037
H20 H 1.0851 0.3052 0.9838
H21 H 1.0417 0.3336 1.0615
O1 O 0.7871(6) 0.51078(19) 0.5571(4)
O2 O 0.6222(6) 0.4974(2) 0.4171(5)
O3 O 0.6158(6) 0.3281(2) 1.1880(5)
O4 O 0.7652(6) 0.35315(18) 1.1271(5)
O5 O 1.3078(6) 0.29221(19) 0.8641(5)
O6 O 1.1792(6) 0.34859(18) 0.8420(5)
O7 O 0.7835(5) 0.40756(18) 0.9500(4)
O8 O 0.8841(5) 0.46640(16) 0.8689(4)
O9 O 0.9430(5) 0.38670(17) 0.8615(5)
O10 O 0.8870(5) 0.48245(16) 1.0915(4)
O11 O 1.1956(5) 0.44471(17) 0.8634(4)
O12 O 1.0372(5) 0.48765(18) 0.7233(4)
O13 O 1.1951(5) 0.44888(18) 1.2456(4)
O14 O 1.0199(6) 0.39555(19) 1.1714(5)
O15 O 1.0988(5) 0.44108(16) 1.0465(4)
Zn1B Zn 0.88242(9) 0.60123(3) 1.07707(8)
Zn3B Zn 1.13623(9) 0.50545(3) 1.28353(7)
Zn4B Zn 1.15062(9) 0.58779(3) 0.89602(8)
P1B P 1.1587(2) 0.58151(7) 1.13512(17)
P2B P 1.1452(2) 0.48972(7) 0.82482(17)
P3B P 0.8697(2) 0.58163(7) 0.84578(17)
N1B N 1.2430(6) 0.5629(2) 1.3432(5)
N2B N 1.2430(7) 0.5674(2) 0.7892(6)
N3B N 0.7957(7) 0.6452(2) 0.9533(5)
C1B C 1.2818(7) 0.5846(3) 1.2598(6)
H1B H 1.3013 0.6147 1.2781
H2B H 1.3543 0.5706 1.2534
C2B C 1.3485(8) 0.5473(3) 1.4313(6)
H3B H 1.4119 0.5367 1.4045
H4B H 1.3816 0.5712 1.4779
C3B C 1.3094(8) 0.5104(3) 1.4922(7)
C4B C 1.1659(9) 0.5923(3) 1.3854(7)
H5B H 1.2110 0.6180 1.4129
H6B H 1.0934 0.5999 1.3308
H7B H 1.1443 0.5776 1.4397
C5B C 1.2703(8) 0.5197(3) 0.7998(7)
H8B H 1.2826 0.5090 0.7365
H9B H 1.3448 0.5149 0.8564
C6B C 1.3531(8) 0.5947(3) 0.8123(8)
H10B H 1.4154 0.5833 0.8725
H11B H 1.3847 0.5942 0.7539
C7B C 1.3214(9) 0.6421(3) 0.8340(7)
C8B C 1.1608(10) 0.5769(3) 0.6796(7)
H12B H 1.2007 0.5679 0.6305
H13B H 1.0858 0.5613 0.6669
H14B H 1.1443 0.6073 0.6722
C9B C 0.7550(8) 0.6227(3) 0.8500(6)
H15B H 0.6769 0.6089 0.8402
H16B H 0.7458 0.6436 0.7947
C10B C 0.6956(10) 0.6669(3) 0.9825(7)
H17B H 0.6736 0.6938 0.9441
H18B H 0.6244 0.6484 0.9651
C11B C 0.7389(8) 0.6764(3) 1.1005(7)
C12B C 0.8892(10) 0.6799(3) 0.9508(8)
H19B H 0.8532 0.7002 0.8963
H20B H 0.9149 0.6948 1.0162
H21B H 0.9583 0.6664 0.9385
O1B O 1.2129(6) 0.48922(19) 1.4429(4)
O2B O 1.3778(6) 0.5026(2) 1.5829(5)
O3B O 1.3842(6) 0.6719(2) 0.8120(5)
O4B O 1.2348(6) 0.64685(18) 0.8729(5)
O5B O 0.6922(6) 0.70779(19) 1.1359(5)
O6B O 0.8208(6) 0.65141(18) 1.1580(5)
O7B O 1.2165(5) 0.59244(18) 1.0500(4)
O8B O 1.1159(5) 0.53360(16) 1.1311(4)
O9B O 1.0570(5) 0.61330(17) 1.1385(5)
O10B O 1.1130(5) 0.51755(16) 0.9085(4)
O11B O 0.8044(5) 0.55529(17) 1.1366(4)
O12B O 0.9628(5) 0.51235(18) 1.2767(4)
O13B O 0.8049(5) 0.55112(18) 0.7544(4)
O14B O 0.9801(6) 0.60445(19) 0.8286(5)
O15B O 0.9012(5) 0.55892(16) 0.9535(4)
Ni1 Ni 0.58868(10) 0.20386(3) 1.04163(9)
N4 N 0.7752(7) 0.2069(2) 1.0405(6)
N5 N 0.3997(6) 0.2018(2) 1.0404(6)
C13 C 0.8052(9) 0.2193(3) 0.9554(8)
H22 H 0.7438 0.2287 0.8970
C14 C 0.9267(9) 0.2184(3) 0.9522(8)
H23 H 0.9438 0.2271 0.8926
C15 C 1.0201(8) 0.2043(3) 1.0383(7)
C16 C 0.9887(8) 0.1911(3) 1.1254(7)
H24 H 1.0484 0.1811 1.1842
C17 C 0.8675(8) 0.1930(3) 1.1235(7)
H25 H 0.8489 0.1844 1.1825
C18 C 1.1520(8) 0.2028(3) 1.0387(7)
C19 C 1.1828(9) 0.1960(3) 0.9472(8)
H26 H 1.1225 0.1915 0.8841
C20 C 0.3068(9) 0.1962(3) 0.9530(7)
H27 H 0.3254 0.1920 0.8917
C21 C 0.3707(9) 0.2073(3) 1.1297(7)
H28 H 0.4331 0.2109 1.1918
C22 C 1.2488(8) 0.2077(3) 1.1310(8)
H29 H 1.2327 0.2113 1.1936
O16 O 0.5407(6) 0.2604(2) 0.9510(5)
O17 O 0.5482(6) 0.1650(2) 0.9078(5)
O18 O 0.6256(6) 0.14669(18) 1.1294(5)
O19 O 0.6373(6) 0.24055(18) 1.1809(5)
Ni1_2 Ni 1.58868(10) 0.20386(3) 1.04163(9)
Ni1_3 Ni -0.41132(10) 0.20386(3) 1.04163(9)
N4_2 N 1.7752(7) 0.2069(2) 1.0405(6)
N4_3 N -0.2248(7) 0.2069(2) 1.0405(6)
N5_2 N 1.3997(6) 0.2018(2) 1.0404(6)
C13_2 C -0.1948(9) 0.2193(3) 0.9554(8)
H22_2 H -0.2562 0.2287 0.8970
C14_2 C -0.0733(9) 0.2184(3) 0.9522(8)
H23_2 H -0.0562 0.2271 0.8926
C15_2 C 0.0201(8) 0.2043(3) 1.0383(7)
C16_2 C -0.0113(8) 0.1911(3) 1.1254(7)
H24_2 H 0.0484 0.1811 1.1842
C17_2 C -0.1325(8) 0.1930(3) 1.1235(7)
H25_2 H -0.1511 0.1844 1.1825
C18_2 C 0.1520(8) 0.2028(3) 1.0387(7)
C19_2 C 0.1828(9) 0.1960(3) 0.9472(8)
H26_2 H 0.1225 0.1915 0.8841
C20_2 C 1.3068(9) 0.1962(3) 0.9530(7)
H27_2 H 1.3254 0.1920 0.8917
C21_2 C 1.3707(9) 0.2073(3) 1.1297(7)
H28_2 H 1.4331 0.2109 1.1918
C22_2 C 0.2488(8) 0.2077(3) 1.1310(8)
H29_2 H 0.2327 0.2113 1.1936
O16_2 O 1.5407(6) 0.2604(2) 0.9510(5)
O17_2 O 1.5482(6) 0.1650(2) 0.9078(5)
O18_2 O 1.6256(6) 0.14669(18) 1.1294(5)
O19_2 O 1.6373(6) 0.24055(18) 1.1809(5)
O20 O 0.6071(9) 0.3380(3) 0.8854(6)
O21 O 0.6095(8) 0.5860(3) 0.3720(7)
O22 O 0.4481(8) 0.2068(3) 0.7218(6)
O23 O 0.5867(7) 0.0617(2) 1.0604(6)
O24 O 0.5936(11) 0.4822(5) 0.9209(10)
O25 O 0.4287(11) 0.4087(4) 0.8585(11)
O26 O 0.4371(8) 0.4664(4) 0.2538(9)
O27 O 0.7494(7) 0.1137(2) 0.9224(6)
loop_
_geom_bond_atom_site_label_1
_geom_bond_atom_site_label_2
_geom_bond_site_symmetry_1
_geom_bond_site_symmetry_2
Zn1 N3 1_555 1_555
Zn2 O8 1_555 1_555
Zn3 N1 1_555 1_555
Zn4 N2 1_555 1_555
Ni1 N4 1_555 1_555
P1 C1 1_555 1_555
P2 C5 1_555 1_555
P3 C9 1_555 1_555
N1 C1 1_555 1_555
N2 C5 1_555 1_555
N3 C9 1_555 1_555
N4 C13 1_555 1_555
N5 Ni1 1_555 1_555
C1 H1 1_555 1_555
H2 C1 1_555 1_555
C2 N1 1_555 1_555
H3 C2 1_555 1_555
H4 C2 1_555 1_555
C3 C2 1_555 1_555
C4 N1 1_555 1_555
H5 C4 1_555 1_555
H6 C4 1_555 1_555
H7 C4 1_555 1_555
C5 H8 1_555 1_555
H9 C5 1_555 1_555
C6 N2 1_555 1_555
H10 C6 1_555 1_555
H11 C6 1_555 1_555
C7 C6 1_555 1_555
C8 N2 1_555 1_555
H12 C8 1_555 1_555
H13 C8 1_555 1_555
H14 C8 1_555 1_555
C9 H15 1_555 1_555
H16 C9 1_555 1_555
C10 N3 1_555 1_555
H17 C10 1_555 1_555
H18 C10 1_555 1_555
C11 C10 1_555 1_555
C12 N3 1_555 1_555
H19 C12 1_555 1_555
H20 C12 1_555 1_555
H21 C12 1_555 1_555
C13 H22 1_555 1_555
C14 C13 1_555 1_555
H23 C14 1_555 1_555
C15 C14 1_555 1_555
C16 C15 1_555 1_555
H24 C16 1_555 1_555
C17 N4 1_555 1_555
H25 C17 1_555 1_555
C18 C15 1_555 1_555
C19 C18 1_555 1_555
H26 C19 1_555 1_555
C20 N5 1_555 1_555
H27 C20 1_555 1_555
C21 N5 1_555 1_555
H28 C21 1_555 1_555
C22 C18 1_555 1_555
H29 C22 1_555 1_555
O1 Zn3 1_555 1_555
O2 C3 1_555 1_555
O3 C7 1_555 1_555
O4 Zn4 1_555 1_555
O5 C11 1_555 1_555
O6 Zn1 1_555 1_555
O7 Zn4 1_555 1_555
O8 Zn3 1_555 1_555
O9 Zn1 1_555 1_555
O10 Zn2 1_555 1_555
O11 Zn1 1_555 1_555
O12 Zn3 1_555 1_555
O13 P3 1_555 1_555
O14 Zn4 1_555 1_555
O15 Zn1 1_555 1_555
O16 Ni1 1_555 1_555
O17 Ni1 1_555 1_555
O18 Ni1 1_555 1_555
O19 Ni1 1_555 1_555
Zn1B N3B 1_555 1_555
Zn3B O13 1_555 1_555
Zn4B N2B 1_555 1_555
Ni1_2 N4_2 1_555 1_555
Ni1_3 N4_3 1_555 1_555
P1B C1B 1_555 1_555
P2B O11 1_555 1_555
P3B C9B 1_555 1_555
N1B Zn3B 1_555 1_555
N2B C5B 1_555 1_555
N3B C9B 1_555 1_555
N4_3 C13_2 1_555 1_555
N5_2 Ni1_2 1_555 1_555
C1B N1B 1_555 1_555
H1B C1B 1_555 1_555
H2B C1B 1_555 1_555
C2B N1B 1_555 1_555
H3B C2B 1_555 1_555
H4B C2B 1_555 1_555
C3B C2B 1_555 1_555
C4B N1B 1_555 1_555
H5B C4B 1_555 1_555
H6B C4B 1_555 1_555
H7B C4B 1_555 1_555
C5B P2B 1_555 1_555
H8B C5B 1_555 1_555
H9B C5B 1_555 1_555
C6B N2B 1_555 1_555
H10B C6B 1_555 1_555
H11B C6B 1_555 1_555
C7B C6B 1_555 1_555
C8B N2B 1_555 1_555
H12B C8B 1_555 1_555
H13B C8B 1_555 1_555
H14B C8B 1_555 1_555
C9B H15B 1_555 1_555
H16B C9B 1_555 1_555
C10B N3B 1_555 1_555
H17B C10B 1_555 1_555
H18B C10B 1_555 1_555
C11B C10B 1_555 1_555
C12B N3B 1_555 1_555
H19B C12B 1_555 1_555
H20B C12B 1_555 1_555
H21B C12B 1_555 1_555
C13_2 H22_2 1_555 1_555
C14_2 C13_2 1_555 1_555
H23_2 C14_2 1_555 1_555
C15_2 C14_2 1_555 1_555
C16_2 C15_2 1_555 1_555
H24_2 C16_2 1_555 1_555
C17_2 N4_3 1_555 1_555
H25_2 C17_2 1_555 1_555
C18_2 C15_2 1_555 1_555
C19_2 C20 1_555 1_555
H26_2 C19_2 1_555 1_555
C20_2 C19 1_555 1_555
H27_2 C20_2 1_555 1_555
C21_2 C22 1_555 1_555
H28_2 C21_2 1_555 1_555
C22_2 C21 1_555 1_555
H29_2 C22_2 1_555 1_555
O1B Zn3B 1_555 1_555
O2B C3B 1_555 1_555
O3B C7B 1_555 1_555
O4B Zn4B 1_555 1_555
O5B C11B 1_555 1_555
O6B Zn1B 1_555 1_555
O7B Zn4B 1_555 1_555
O8B Zn2 1_555 1_555
O9B Zn1B 1_555 1_555
O10B Zn2 1_555 1_555
O11B P2 1_555 1_555
O12B P2 1_555 1_555
O13B Zn3 1_555 1_555
O14B Zn4B 1_555 1_555
O15B Zn2 1_555 1_555
O16_2 Ni1_2 1_555 1_555
O17_2 Ni1_2 1_555 1_555
O18_2 Ni1_2 1_555 1_555
O19_2 Ni1_2 1_555 1_555
Zn2 O15 1_555 1_555
Zn4 O10 1_555 1_555
P1 O7 1_555 1_555
P1 O8 1_555 1_555
P1 O9 1_555 1_555
P2 O10 1_555 1_555
P3 O14 1_555 1_555
P3 O15 1_555 1_555
C3 O1 1_555 1_555
C7 O4 1_555 1_555
C11 O6 1_555 1_555
C16 C17 1_555 1_555
O12 P2B 1_555 1_555
Zn1B O11B 1_555 1_555
Zn1B O15B 1_555 1_555
Zn3B O8B 1_555 1_555
Zn3B O12B 1_555 1_555
Zn4B O10B 1_555 1_555
P1B O7B 1_555 1_555
P1B O8B 1_555 1_555
P1B O9B 1_555 1_555
P2B O10B 1_555 1_555
P3B O13B 1_555 1_555
P3B O14B 1_555 1_555
P3B O15B 1_555 1_555
N5_2 C20_2 1_555 1_555
N5_2 C21_2 1_555 1_555
C3B O1B 1_555 1_555
C7B O4B 1_555 1_555
C11B O6B 1_555 1_555
C16_2 C17_2 1_555 1_555
C18_2 C19_2 1_555 1_555
C18_2 C22_2 1_555 1_555

#END
