
#######################################################################
#
#                 Cambridge Crystallographic Data Centre
#                                CCDC 
#
#######################################################################
#
# If this CIF has been generated from an entry in the Cambridge 
# Structural Database, then it will include bibliographic, chemical, 
# crystal, experimental, refinement or atomic coordinate data resulting 
# from the CCDC's data processing and validation procedures.
#
#######################################################################

data_NAJZII
_symmetry_cell_setting           cubic
_symmetry_space_group_name_H-M   'P n -3'
_symmetry_Int_Tables_number      201
_space_group_name_Hall           '-P 2ab 2bc 3'
loop_
_symmetry_equiv_pos_site_id
_symmetry_equiv_pos_as_xyz
1 x,y,z
2 z,x,y
3 y,z,x
4 1/2-x,1/2-y,z
5 1/2-x,y,1/2-z
6 x,1/2-y,1/2-z
7 z,1/2-x,1/2-y
8 1/2-z,1/2-x,y
9 1/2-z,x,1/2-y
10 1/2-y,z,1/2-x
11 y,1/2-z,1/2-x
12 1/2-y,1/2-z,x
13 -x,-y,-z
14 -z,-x,-y
15 -y,-z,-x
16 1/2+x,1/2+y,-z
17 1/2+x,-y,1/2+z
18 -x,1/2+y,1/2+z
19 -z,1/2+x,1/2+y
20 1/2+z,1/2+x,-y
21 1/2+z,-x,1/2+y
22 1/2+y,-z,1/2+x
23 -y,1/2+z,1/2+x
24 1/2+y,1/2+z,-x
_cell_length_a                   22.5920(11)
_cell_length_b                   22.5920(11)
_cell_length_c                   22.5920(11)
_cell_angle_alpha                90
_cell_angle_beta                 90
_cell_angle_gamma                90
_cell_volume                     11530.9
loop_
_atom_site_label
_atom_site_type_symbol
_atom_site_fract_x
_atom_site_fract_y
_atom_site_fract_z
Zn1 Zn 0.0000 0.5000 0.0000
Zn2 Zn -0.07483(4) 0.44238(4) 0.13408(4)
P1 P 0.02232(9) 0.54245(9) 0.13627(8)
N1 N -0.0419(3) 0.4785(3) 0.2154(3)
C1 C -0.0398(4) 0.4290(4) 0.2578(4)
H1 H -0.0456 0.4441 0.2976
H2 H -0.0010 0.4106 0.2562
C2 C -0.0871(3) 0.3824(4) 0.2445(4)
C3 C 0.0172(3) 0.5070(3) 0.2074(3)
H3 H 0.0480 0.4772 0.2107
H4 H 0.0234 0.5361 0.2383
C4 C -0.0856(4) 0.5226(4) 0.2356(4)
H5 H -0.0724 0.5399 0.2721
H6 H -0.1231 0.5036 0.2417
H7 H -0.0897 0.5530 0.2061
O1 O -0.1127(2) 0.3851(2) 0.1963(2)
O2 O -0.0941(3) 0.3433(3) 0.2832(3)
O3 O -0.0514(2) 0.3729(2) 0.0884(2)
O4 O -0.1390(2) 0.4885(2) 0.0998(2)
O5 O -0.0051(2) 0.4973(2) 0.0935(2)
Zn2K Zn 0.05762(4) 0.36592(4) -0.07483(4)
Zn2F Zn 0.13408(4) 0.57483(4) 0.05762(4)
Zn2W Zn -0.05762(4) 0.63408(4) 0.07483(4)
Zn2R Zn -0.13408(4) 0.42517(4) -0.05762(4)
Zn2L Zn 0.07483(4) 0.55762(4) -0.13408(4)
P1K P -0.04245(9) 0.36373(8) 0.02232(9)
P1F P 0.13627(8) 0.47768(9) -0.04245(9)
P1R P -0.13627(8) 0.52232(9) 0.04245(9)
P1L P -0.02232(9) 0.45755(9) -0.13627(8)
P1W P 0.04245(9) 0.63627(8) -0.02232(9)
N1K N 0.0215(3) 0.2846(3) -0.0419(3)
N1F N 0.2154(3) 0.5419(3) 0.0215(3)
N1W N -0.0215(3) 0.7154(3) 0.0419(3)
N1R N -0.2154(3) 0.4581(3) -0.0215(3)
N1L N 0.0419(3) 0.5215(3) -0.2154(3)
C1K C 0.0710(4) 0.2422(4) -0.0398(4)
C1F C 0.2578(4) 0.5398(4) 0.0710(4)
C1W C -0.0710(4) 0.7578(4) 0.0398(4)
C1R C -0.2578(4) 0.4602(4) -0.0710(4)
C1L C 0.0398(4) 0.5710(4) -0.2578(4)
H1K H 0.0559 0.2024 -0.0456
H1F H 0.2976 0.5456 0.0559
H1W H -0.0559 0.7976 0.0456
H1R H -0.2976 0.4544 -0.0559
H1L H 0.0456 0.5559 -0.2976
H2K H 0.0894 0.2438 -0.0010
H2F H 0.2562 0.5010 0.0894
H2W H -0.0894 0.7562 0.0010
H2R H -0.2562 0.4990 -0.0894
H2L H 0.0010 0.5894 -0.2562
C2K C 0.1176(4) 0.2555(4) -0.0871(3)
C2F C 0.2445(4) 0.5871(3) 0.1176(4)
C2W C -0.1176(4) 0.7445(4) 0.0871(3)
C2R C -0.2445(4) 0.4129(3) -0.1176(4)
C2L C 0.0871(3) 0.6176(4) -0.2445(4)
C3K C -0.0070(3) 0.2926(3) 0.0172(3)
C3F C 0.2074(3) 0.4828(3) -0.0070(3)
C3R C -0.2074(3) 0.5172(3) 0.0070(3)
C3L C -0.0172(3) 0.4930(3) -0.2074(3)
C3W C 0.0070(3) 0.7074(3) -0.0172(3)
H3W H -0.0228 0.7107 -0.0480
H3L H -0.0480 0.5228 -0.2107
H3R H -0.2107 0.5480 -0.0228
H3F H 0.2107 0.4520 0.0228
H3K H 0.0228 0.2893 0.0480
H4W H 0.0361 0.7383 -0.0234
H4L H -0.0234 0.4639 -0.2383
H4R H -0.2383 0.5234 0.0361
H4F H 0.2383 0.4766 -0.0361
H4K H -0.0361 0.2617 0.0234
C4K C -0.0226(4) 0.2644(4) -0.0856(4)
C4F C 0.2356(4) 0.5856(4) -0.0226(4)
C4R C -0.2356(4) 0.4144(4) 0.0226(4)
C4L C 0.0856(4) 0.4774(4) -0.2356(4)
C4W C 0.0226(4) 0.7356(4) 0.0856(4)
H5K H -0.0399 0.2279 -0.0724
H5F H 0.2721 0.5724 -0.0399
H5R H -0.2721 0.4276 0.0399
H5L H 0.0724 0.4601 -0.2721
H5W H 0.0399 0.7721 0.0724
H6K H -0.0036 0.2583 -0.1231
H6F H 0.2417 0.6231 -0.0036
H6R H -0.2417 0.3769 0.0036
H6L H 0.1231 0.4964 -0.2417
H6W H 0.0036 0.7417 0.1231
H7K H -0.0530 0.2939 -0.0897
H7F H 0.2061 0.5897 -0.0530
H7R H -0.2061 0.4103 0.0530
H7L H 0.0897 0.4470 -0.2061
H7W H 0.0530 0.7061 0.0897
O1K O 0.1149(2) 0.3037(2) -0.1127(2)
O1F O 0.1963(2) 0.6127(2) 0.1149(2)
O1W O -0.1149(2) 0.6963(2) 0.1127(2)
O1R O -0.1963(2) 0.3873(2) -0.1149(2)
O1L O 0.1127(2) 0.6149(2) -0.1963(2)
O2K O 0.1567(3) 0.2168(3) -0.0941(3)
O2F O 0.2832(3) 0.5941(3) 0.1567(3)
O2R O -0.2832(3) 0.4059(3) -0.1567(3)
O2L O 0.0941(3) 0.6567(3) -0.2832(3)
O2W O -0.1567(3) 0.7832(3) 0.0941(3)
O3K O 0.1271(2) 0.4116(2) -0.0514(2)
O3F O 0.0884(2) 0.5514(2) 0.1271(2)
O3W O -0.1271(2) 0.5884(2) 0.0514(2)
O3R O -0.0884(2) 0.4486(2) -0.1271(2)
O3L O 0.0514(2) 0.6271(2) -0.0884(2)
O4W O -0.0115(2) 0.5998(2) 0.1390(2)
O4F O 0.0998(2) 0.6390(2) 0.0115(2)
O4R O -0.0998(2) 0.3610(2) -0.0115(2)
O4L O 0.1390(2) 0.5115(2) -0.0998(2)
O4K O 0.0115(2) 0.4002(2) -0.1390(2)
O5F O 0.0935(2) 0.5051(2) 0.0027(2)
O5R O -0.0935(2) 0.4949(2) -0.0027(2)
O5K O 0.0027(2) 0.4065(2) -0.0051(2)
O5W O -0.0027(2) 0.5935(2) 0.0051(2)
O5L O 0.0051(2) 0.5027(2) -0.0935(2)
Ni1 Ni -0.2500 0.2500 0.2500
N2 N -0.2500 0.3446(3) 0.2500
N3 N -0.2500 0.2500 0.1565(3)
C5 C -0.2296(3) 0.3758(3) 0.2959(3)
H8 H -0.2147 0.3553 0.3283
C6 C -0.2296(4) 0.4360(3) 0.2976(3)
H9 H -0.2158 0.4557 0.3311
C7 C -0.2500 0.4677(4) 0.2500
C8 C -0.2500 0.5332 0.2500(4)
C9 C -0.2716(3) 0.5653(3) 0.2977(3)
H10 H -0.2862 0.5456 0.3308
C10 C -0.2037(3) 0.2715(3) 0.1257(3)
H11 H -0.1715 0.2868 0.1463
O7 O -0.1588(3) 0.2500 0.2500
Ni1U Ni -0.2500 0.7500 0.2500
Ni1R Ni -0.2500 0.2500 -0.2500
N2R N -0.2500 0.2500 -0.1554(3)
N2C N -0.2500 0.1554(3) 0.2500
N3V N -0.2500 0.6565(3) 0.2500
N3D N -0.2500 0.2500 0.3435(3)
C5D C -0.2704(3) 0.3758(3) 0.2041(3)
C5T C -0.2041(3) 0.2296(3) -0.1242(3)
C5R C -0.2959(3) 0.2704(3) -0.1242(3)
H8D H -0.2853 0.3553 0.1717
H8T H -0.1717 0.2147 -0.1447
H8R H -0.3283 0.2853 -0.1447
C6D C -0.2704(4) 0.4360(3) 0.2024(3)
C6T C -0.2024(3) 0.2296(4) -0.0640(3)
C6R C -0.2976(3) 0.2704(4) -0.0640(3)
H9D H -0.2842 0.4557 0.1689
H9T H -0.1689 0.2158 -0.0443
H9R H -0.3311 0.2842 -0.0443
C7R C -0.2500 0.2500 -0.0323(4)
C8R C -0.2500(4) 0.2500 0.0332
C9T C -0.2023(3) 0.2716(3) 0.0653(3)
C9R C -0.2977(3) 0.2284(3) 0.0653(3)
C9D C -0.2284(3) 0.5653(3) 0.2023(3)
H10T H -0.1692 0.2862 0.0456
H10R H -0.3308 0.2138 0.0456
H10D H -0.2138 0.5456 0.1692
C10V C -0.2715(3) 0.6257(3) 0.2963(3)
C10C C -0.2963(3) 0.2285(3) 0.1257(3)
C10W C -0.2285(3) 0.6257(3) 0.2037(3)
H11C H -0.3285 0.2132 0.1463
H11W H -0.2132 0.6463 0.1715
H11V H -0.2868 0.6463 0.3285
O7C O -0.3412(3) 0.2500 0.2500
O6 O 0.1022(5) 0.3978(5) 0.1022(5)
O8 O 0.1626(9) 0.5312(10) 0.2294(10)
O9 O 0.1697(11) 0.4675(15) 0.1725(12)
O10 O -0.045(2) 0.339(2) 0.391(2)
O11 O -0.1185(14) 0.3837(14) 0.4031(14)
loop_
_geom_bond_atom_site_label_1
_geom_bond_atom_site_label_2
_geom_bond_site_symmetry_1
_geom_bond_site_symmetry_2
Zn1 O5 1_555 1_555
Zn2 N1 1_555 1_555
Ni1 N2 1_555 1_555
P1 C3 1_555 1_555
N1 C1 1_555 1_555
N2 C5 1_555 1_555
N3 Ni1 1_555 1_555
C1 H1 1_555 1_555
H2 C1 1_555 1_555
C2 C1 1_555 1_555
C3 N1 1_555 1_555
H3 C3 1_555 1_555
H4 C3 1_555 1_555
C4 N1 1_555 1_555
H5 C4 1_555 1_555
H6 C4 1_555 1_555
H7 C4 1_555 1_555
C5 H8 1_555 1_555
C6 C5 1_555 1_555
H9 C6 1_555 1_555
C7 C6 1_555 1_555
C8 C7 1_555 1_555
C9 C8 1_555 1_555
H10 C9 1_555 1_555
C10 N3 1_555 1_555
H11 C10 1_555 1_555
O1 Zn2 1_555 1_555
O2 C2 1_555 1_555
O3 Zn2 1_555 1_555
O4 Zn2 1_555 1_555
O5 Zn2 1_555 1_555
O7 Ni1 1_555 1_555
Zn2K N1K 1_555 1_555
Zn2F N1F 1_555 1_555
Zn2W N1W 1_555 1_555
Zn2R N1R 1_555 1_555
Zn2L N1L 1_555 1_555
Ni1U N3V 1_555 1_555
Ni1R N2R 1_555 1_555
P1K O3 1_555 1_555
P1F C3F 1_555 1_555
P1R O4 1_555 1_555
P1L C3L 1_555 1_555
P1W C3W 1_555 1_555
N1K C1K 1_555 1_555
N1F C1F 1_555 1_555
N1W C1W 1_555 1_555
N1R C1R 1_555 1_555
N1L C1L 1_555 1_555
N2R C5T 1_555 1_555
N2C Ni1 1_555 1_555
N3V C10V 1_555 1_555
N3D Ni1 1_555 1_555
C1K H1K 1_555 1_555
C1F H1F 1_555 1_555
C1W H1W 1_555 1_555
C1R H1R 1_555 1_555
C1L H1L 1_555 1_555
H2K C1K 1_555 1_555
H2F C1F 1_555 1_555
H2W C1W 1_555 1_555
H2R C1R 1_555 1_555
H2L C1L 1_555 1_555
C2K C1K 1_555 1_555
C2F C1F 1_555 1_555
C2W C1W 1_555 1_555
C2R C1R 1_555 1_555
C2L C1L 1_555 1_555
C3K P1K 1_555 1_555
C3F N1F 1_555 1_555
C3R P1R 1_555 1_555
C3L N1L 1_555 1_555
C3W N1W 1_555 1_555
H3W C3W 1_555 1_555
H3L C3L 1_555 1_555
H3R C3R 1_555 1_555
H3F C3F 1_555 1_555
H3K C3K 1_555 1_555
H4W C3W 1_555 1_555
H4L C3L 1_555 1_555
H4R C3R 1_555 1_555
H4F C3F 1_555 1_555
H4K C3K 1_555 1_555
C4K N1K 1_555 1_555
C4F N1F 1_555 1_555
C4R N1R 1_555 1_555
C4L N1L 1_555 1_555
C4W N1W 1_555 1_555
H5K C4K 1_555 1_555
H5F C4F 1_555 1_555
H5R C4R 1_555 1_555
H5L C4L 1_555 1_555
H5W C4W 1_555 1_555
H6K C4K 1_555 1_555
H6F C4F 1_555 1_555
H6R C4R 1_555 1_555
H6L C4L 1_555 1_555
H6W C4W 1_555 1_555
H7K C4K 1_555 1_555
H7F C4F 1_555 1_555
H7R C4R 1_555 1_555
H7L C4L 1_555 1_555
H7W C4W 1_555 1_555
C5D N2 1_555 1_555
C5T H8T 1_555 1_555
C5R N2R 1_555 1_555
H8D C5D 1_555 1_555
H8R C5R 1_555 1_555
C6D C7 1_555 1_555
C6T C5T 1_555 1_555
C6R C5R 1_555 1_555
H9D C6D 1_555 1_555
H9T C6T 1_555 1_555
H9R C6R 1_555 1_555
C7R C6T 1_555 1_555
C8R C7R 1_555 1_555
C9T C10 1_555 1_555
C9R C8R 1_555 1_555
C9D C8 1_555 1_555
H10T C9T 1_555 1_555
H10R C9R 1_555 1_555
H10D C9D 1_555 1_555
C10V C9 1_555 1_555
C10C N3 1_555 1_555
C10W N3V 1_555 1_555
H11C C10C 1_555 1_555
H11W C10W 1_555 1_555
H11V C10V 1_555 1_555
O1K Zn2K 1_555 1_555
O1F Zn2F 1_555 1_555
O1W Zn2W 1_555 1_555
O1R Zn2R 1_555 1_555
O1L Zn2L 1_555 1_555
O2K C2K 1_555 1_555
O2F C2F 1_555 1_555
O2R C2R 1_555 1_555
O2L C2L 1_555 1_555
O2W C2W 1_555 1_555
O3K Zn2K 1_555 1_555
O3F P1 1_555 1_555
O3W Zn2W 1_555 1_555
O3R Zn2R 1_555 1_555
O3L Zn2L 1_555 1_555
O4W P1 1_555 1_555
O4F Zn2F 1_555 1_555
O4R Zn2R 1_555 1_555
O4L Zn2L 1_555 1_555
O4K Zn2K 1_555 1_555
O5F Zn1 1_555 1_555
O5R Zn1 1_555 1_555
O5K Zn1 1_555 1_555
O5W Zn1 1_555 1_555
O5L Zn1 1_555 1_555
O7C Ni1 1_555 1_555
P1 O5 1_555 1_555
C2 O1 1_555 1_555
Zn2K O5K 1_555 1_555
Zn2F O3F 1_555 1_555
Zn2F O5F 1_555 1_555
Zn2W O4W 1_555 1_555
Zn2W O5W 1_555 1_555
Zn2R O5R 1_555 1_555
Zn2L O5L 1_555 1_555
P1K O4R 1_555 1_555
P1K O5K 1_555 1_555
P1F O3K 1_555 1_555
P1F O4L 1_555 1_555
P1F O5F 1_555 1_555
P1R O3W 1_555 1_555
P1R O5R 1_555 1_555
P1L O3R 1_555 1_555
P1L O4K 1_555 1_555
P1L O5L 1_555 1_555
P1W O3L 1_555 1_555
P1W O4F 1_555 1_555
P1W O5W 1_555 1_555
N1K C3K 1_555 1_555
N1R C3R 1_555 1_555
C2K O1K 1_555 1_555
C2F O1F 1_555 1_555
C2W O1W 1_555 1_555
C2R O1R 1_555 1_555
C2L O1L 1_555 1_555
C5D C6D 1_555 1_555
C6R C7R 1_555 1_555
C8R C9T 1_555 1_555
C9R C10C 1_555 1_555
C9D C10W 1_555 1_555

#END
