
#######################################################################
#
#                 Cambridge Crystallographic Data Centre
#                                CCDC 
#
#######################################################################
#
# If this CIF has been generated from an entry in the Cambridge 
# Structural Database, then it will include bibliographic, chemical, 
# crystal, experimental, refinement or atomic coordinate data resulting 
# from the CCDC's data processing and validation procedures.
#
#######################################################################

data_NAKBAE
_symmetry_cell_setting           triclinic
_symmetry_space_group_name_H-M   'P -1'
_symmetry_Int_Tables_number      2
_space_group_name_Hall           '-P 1'
loop_
_symmetry_equiv_pos_site_id
_symmetry_equiv_pos_as_xyz
1 x,y,z
2 -x,-y,-z
_cell_length_a                   9.2387(18)
_cell_length_b                   11.790(2)
_cell_length_c                   17.338(3)
_cell_angle_alpha                92.043(3)
_cell_angle_beta                 94.711(3)
_cell_angle_gamma                90.209(3)
_cell_volume                     1880.91
loop_
_atom_site_label
_atom_site_type_symbol
_atom_site_fract_x
_atom_site_fract_y
_atom_site_fract_z
C1 C 1.1681(10) -0.1159(8) 0.8290(5)
H1 H 1.1952 -0.1855 0.8078
C2 C 1.2485(11) -0.0677(8) 0.8906(6)
H2 H 1.3303 -0.1048 0.9117
C3 C 1.2106(11) 0.0356(8) 0.9222(5)
H3 H 1.2671 0.0695 0.9636
C4 C 1.0850(10) 0.0883(7) 0.8908(5)
C5 C 1.0057(10) 0.0366(7) 0.8287(4)
H4 H 0.9216 0.0703 0.8073
C6 C 1.0318(9) 0.1902(7) 0.9286(5)
C7 C 0.9138(10) 0.3461(7) 0.9525(4)
C8 C 0.8209(9) 0.4456(7) 0.9469(4)
C9 C 0.7645(11) 0.4898(8) 1.0124(5)
H5 H 0.7884 0.4574 1.0599
C10 C 0.6719(11) 0.5822(8) 1.0082(5)
H6 H 0.6349 0.6125 1.0527
C11 C 0.6349(11) 0.6295(8) 0.9367(5)
H7 H 0.5724 0.6910 0.9329
C12 C 0.7804(10) 0.4952(7) 0.8765(5)
H8 H 0.8156 0.4659 0.8313
C13 C 0.3735(11) 0.8830(9) 0.6862(6)
H9 H 0.3524 0.8168 0.7106
C14 C 0.2750(12) 0.9261(9) 0.6304(6)
H10 H 0.1891 0.8867 0.6158
C15 C 0.3030(11) 1.0261(8) 0.5966(6)
H11 H 0.2353 1.0563 0.5604
C16 C 0.4326(10) 1.0813(7) 0.6170(5)
C17 C 0.5326(11) 1.0350(7) 0.6706(5)
H12 H 0.6219 1.0705 0.6832
C18 C 0.4751(10) 1.1816(8) 0.5764(5)
C19 C 0.5847(10) 1.3368(7) 0.5463(4)
C20 C 0.6817(10) 1.4349(7) 0.5458(5)
C21 C 0.7179(12) 1.4738(8) 0.4761(5)
H13 H 0.6782 1.4388 0.4303
C22 C 0.8113(13) 1.5628(9) 0.4734(5)
H14 H 0.8352 1.5877 0.4257
C23 C 0.8710(11) 1.6168(8) 0.5408(5)
H15 H 0.9345 1.6779 0.5394
C24 C 0.7432(10) 1.4898(7) 0.6129(5)
H16 H 0.7210 1.4653 0.6610
H17 H 0.7056 0.8644 0.5834
H18 H 0.8271 0.9069 0.6203
H19 H 0.8424 0.8525 0.9102
H20 H 1.0248 0.6329 0.7953
H21 H 0.7190 0.9024 0.8772
H22 H 0.9952 0.6694 0.8688
H23 H 0.5272 0.6446 0.6959
H24 H 0.5298 0.6844 0.6120
H25 H 1.0414 0.3249 0.8047
H26 H 0.8695 0.2621 0.7899
H27 H 0.5080 1.3229 0.7211
H28 H 0.6958 1.2795 0.7150
Ho1 Ho 0.77574(5) 0.76579(3) 0.74440(2)
N1 N 0.6908(8) 0.5849(6) 0.8736(4)
N2 N 0.9595(9) 0.3044(6) 1.0192(4)
N3 N 1.0331(9) 0.2049(6) 1.0041(4)
N4 N 0.9602(8) 0.2785(6) 0.8939(4)
N5 N 0.9464(7) 0.3037(6) 0.8146(4)
N6 N 0.4993(10) 0.9376(6) 0.7045(4)
N7 N 1.0505(8) -0.0636(6) 0.7988(4)
N8 N 0.8338(9) 1.5773(6) 0.6090(4)
N9 N 0.5201(9) 1.2905(6) 0.4833(4)
N10 N 0.4501(9) 1.1937(6) 0.5013(4)
N11 N 0.5550(8) 1.2733(6) 0.6078(4)
N12 N 0.5937(7) 1.3025(6) 0.6883(4)
O1 O 0.8906(7) 1.6304(5) 0.6740(3)
O2 O 0.5948(8) 0.8968(5) 0.7576(3)
O3 O 0.9690(7) -0.1115(5) 0.7388(3)
O4 O 0.6561(7) 0.6298(5) 0.8054(3)
O5 O 0.9700(6) 0.6748(5) 0.8209(3)
O6 O 0.7843(6) 0.8541(5) 0.8697(3)
O7 O 0.5739(6) 0.6827(5) 0.6655(3)
O8 O 0.7666(7) 0.8528(5) 0.6217(3)
Ho1_2 Ho 0.77574(5) -0.23421(3) 0.74440(2)
Ho1_3 Ho 0.77574(5) 1.76579(3) 0.74440(2)
O1_2 O 0.8906(7) 0.6304(5) 0.6740(3)
O3_2 O 0.9690(7) 0.8885(5) 0.7388(3)
Cl1 Cl 0.5859(3) 0.1479(2) 0.88576(15)
O13 O 0.4488(10) 0.1480(10) 0.8413(6)
O14 O 0.6077(13) 0.0415(8) 0.9178(5)
O15 O 0.5896(13) 0.2303(8) 0.9457(6)
O16 O 0.6879(10) 0.1677(9) 0.8314(5)
Cl2 Cl 0.2952(4) 0.5101(3) 0.76525(17)
O9 O 0.1566(11) 0.4869(10) 0.7723(9)
O10 O 0.3903(15) 0.4545(12) 0.8184(6)
O11 O 0.3013(18) 0.6234(12) 0.7861(16)
O12 O 0.3595(14) 0.5008(17) 0.7003(6)
Cl3 Cl 0.9295(3) 0.1526(2) 0.60436(16)
O17 O 0.8496(10) 0.1612(8) 0.6705(5)
O18 O 0.9488(10) 0.0384(7) 0.5824(5)
O19 O 1.0656(16) 0.1989(12) 0.6233(15)
O20 O 0.859(2) 0.2105(15) 0.5458(7)
loop_
_geom_bond_atom_site_label_1
_geom_bond_atom_site_label_2
_geom_bond_site_symmetry_1
_geom_bond_site_symmetry_2
C1 H1 1_555 1_555
C2 C1 1_555 1_555
H2 C2 1_555 1_555
C3 C2 1_555 1_555
H3 C3 1_555 1_555
C4 C3 1_555 1_555
C5 C4 1_555 1_555
H4 C5 1_555 1_555
C6 C4 1_555 1_555
C7 C8 1_555 1_555
C8 C9 1_555 1_555
C9 H5 1_555 1_555
C10 C9 1_555 1_555
H6 C10 1_555 1_555
C11 C10 1_555 1_555
H7 C11 1_555 1_555
C12 C8 1_555 1_555
H8 C12 1_555 1_555
C13 H9 1_555 1_555
C14 C13 1_555 1_555
H10 C14 1_555 1_555
C15 C14 1_555 1_555
H11 C15 1_555 1_555
C16 C15 1_555 1_555
C17 C16 1_555 1_555
H12 C17 1_555 1_555
C18 C16 1_555 1_555
C19 C20 1_555 1_555
C20 C21 1_555 1_555
C21 H13 1_555 1_555
C22 C21 1_555 1_555
H14 C22 1_555 1_555
C23 C22 1_555 1_555
H15 C23 1_555 1_555
C24 C20 1_555 1_555
H16 C24 1_555 1_555
Cl1 O13 1_555 1_555
Cl2 O9 1_555 1_555
Cl3 O17 1_555 1_555
H17 O8 1_555 1_555
H18 O8 1_555 1_555
H19 O6 1_555 1_555
H20 O5 1_555 1_555
H21 O6 1_555 1_555
H22 O5 1_555 1_555
H23 O7 1_555 1_555
H24 O7 1_555 1_555
H25 N5 1_555 1_555
H26 N5 1_555 1_555
H27 N12 1_555 1_555
H28 N12 1_555 1_555
Ho1 O2 1_555 1_555
N1 C11 1_555 1_555
N2 C7 1_555 1_555
N3 C6 1_555 1_555
N4 C6 1_555 1_555
N5 N4 1_555 1_555
N6 C13 1_555 1_555
N7 C1 1_555 1_555
N8 C23 1_555 1_555
N9 C19 1_555 1_555
N10 C18 1_555 1_555
N11 C18 1_555 1_555
N12 N11 1_555 1_555
O1 N8 1_555 1_555
O2 N6 1_555 1_555
O3 N7 1_555 1_555
O4 Ho1 1_555 1_555
O5 Ho1 1_555 1_555
O6 Ho1 1_555 1_555
O7 Ho1 1_555 1_555
O8 Ho1 1_555 1_555
O10 Cl2 1_555 1_555
O11 Cl2 1_555 1_555
O12 Cl2 1_555 1_555
O14 Cl1 1_555 1_555
O15 Cl1 1_555 1_555
O16 Cl1 1_555 1_555
O18 Cl3 1_555 1_555
O19 Cl3 1_555 1_555
O20 Cl3 1_555 1_555
Ho1_2 O3 1_555 1_555
Ho1_3 O1 1_555 1_555
O1_2 Ho1 1_555 1_555
O3_2 Ho1 1_555 1_555
C5 N7 1_555 1_555
C7 N4 1_555 1_555
C12 N1 1_555 1_555
C17 N6 1_555 1_555
C19 N11 1_555 1_555
C24 N8 1_555 1_555
N1 O4 1_555 1_555
N2 N3 1_555 1_555
N9 N10 1_555 1_555

#END
