
#######################################################################
#
#                 Cambridge Crystallographic Data Centre
#                                CCDC 
#
#######################################################################
#
# If this CIF has been generated from an entry in the Cambridge 
# Structural Database, then it will include bibliographic, chemical, 
# crystal, experimental, refinement or atomic coordinate data resulting 
# from the CCDC's data processing and validation procedures.
#
#######################################################################

data_NAKBOS
_symmetry_cell_setting           triclinic
_symmetry_space_group_name_H-M   'P -1'
_symmetry_Int_Tables_number      2
_space_group_name_Hall           '-P 1'
loop_
_symmetry_equiv_pos_site_id
_symmetry_equiv_pos_as_xyz
1 x,y,z
2 -x,-y,-z
_cell_length_a                   9.2282(15)
_cell_length_b                   11.7514(19)
_cell_length_c                   17.307(3)
_cell_angle_alpha                91.926(2)
_cell_angle_beta                 94.975(2)
_cell_angle_gamma                90.251(2)
_cell_volume                     1868.67
loop_
_atom_site_label
_atom_site_type_symbol
_atom_site_fract_x
_atom_site_fract_y
_atom_site_fract_z
C1 C 1.1655(10) -0.1165(8) 0.8278(5)
H1 H 1.1923 -0.1861 0.8064
C2 C 1.2481(10) -0.0675(8) 0.8897(5)
H2 H 1.3317 -0.1035 0.9100
C3 C 1.2078(9) 0.0353(8) 0.9221(5)
H3 H 1.2634 0.0682 0.9645
C4 C 1.0852(9) 0.0885(7) 0.8911(5)
C5 C 1.0034(10) 0.0355(8) 0.8290(5)
H4 H 0.9182 0.0691 0.8083
C6 C 1.0315(9) 0.1903(7) 0.9292(5)
C7 C 0.9134(9) 0.3474(7) 0.9527(4)
C8 C 0.8196(9) 0.4462(7) 0.9456(5)
C9 C 0.7642(10) 0.4925(8) 1.0124(5)
H5 H 0.7901 0.4615 1.0603
C10 C 0.6719(11) 0.5835(9) 1.0074(5)
H6 H 0.6343 0.6134 1.0519
C11 C 0.6345(10) 0.6308(8) 0.9366(5)
H7 H 0.5720 0.6926 0.9328
C12 C 0.7801(9) 0.4955(7) 0.8767(4)
H8 H 0.8156 0.4665 0.8315
C13 C 0.3731(10) -1.1176(9) 0.6874(6)
H9 H 0.3527 -1.1840 0.7122
C14 C 0.2733(11) -1.0751(9) 0.6323(6)
H10 H 0.1860 -1.1137 0.6190
C15 C 0.3026(10) -0.9755(9) 0.5967(6)
H11 H 0.2354 -0.9465 0.5593
C16 C 0.4332(10) -0.9191(7) 0.6171(5)
C17 C 0.5324(10) -0.9653(7) 0.6708(5)
H12 H 0.6218 -0.9296 0.6836
C18 C 0.4749(9) -0.8178(8) 0.5758(5)
C19 C 0.5840(9) -0.6635(7) 0.5466(5)
C20 C 0.6816(10) -0.5648(7) 0.5461(5)
C21 C 0.7189(11) -0.5260(9) 0.4768(5)
H13 H 0.6805 -0.5615 0.4306
C22 C 0.8125(11) -0.4354(9) 0.4747(5)
H14 H 0.8366 -0.4096 0.4272
C23 C 0.8710(11) -0.3824(8) 0.5425(5)
H15 H 0.9352 -0.3214 0.5416
C24 C 0.7414(10) -0.5091(7) 0.6138(5)
H16 H 0.7178 -0.5330 0.6619
H17 H 0.7051 -0.1360 0.5835
H18 H 0.8266 -0.0936 0.6205
H19 H 0.8418 -0.1480 0.9103
H20 H 1.0242 -0.3676 0.7954
H21 H 0.7184 -0.0980 0.8774
H22 H 0.9946 -0.3310 0.8690
H23 H 0.5266 -0.3558 0.6960
H24 H 0.5292 -0.3161 0.6122
H25 H 1.0408 0.3244 0.8049
H26 H 0.8689 0.2616 0.7901
H27 H 0.5074 -0.6776 0.7213
H28 H 0.6952 -0.7210 0.7152
Yb1 Yb 0.77422(4) -0.23441(3) 0.744780(19)
N1 N 0.6900(8) 0.5860(6) 0.8734(4)
N2 N 0.9596(8) 0.3042(6) 1.0194(4)
N3 N 1.0334(8) 0.2046(6) 1.0039(4)
N4 N 0.9595(7) 0.2794(6) 0.8938(4)
N5 N 0.9445(7) 0.3049(6) 0.8144(4)
N6 N 0.4994(8) -1.0629(6) 0.7050(4)
N7 N 1.0462(8) -0.0640(6) 0.7984(4)
N8 N 0.8330(8) -0.4209(6) 0.6098(4)
N9 N 0.5196(8) -0.7094(6) 0.4831(4)
N10 N 0.4495(9) -0.8074(7) 0.5013(4)
N11 N 0.5546(8) -0.7271(6) 0.6081(4)
N12 N 0.5930(7) -0.6974(7) 0.6893(4)
O1 O 0.8872(7) -0.3685(5) 0.6755(3)
O2 O 0.5966(7) -1.1042(5) 0.7579(3)
O3 O 0.9647(7) -0.1117(5) 0.7383(3)
O4 O 0.6546(7) 0.6310(5) 0.8053(3)
O5 O 0.9670(6) -0.3248(5) 0.8208(3)
O6 O 0.7845(6) -0.1480(5) 0.8692(3)
O7 O 0.5748(6) -0.3172(5) 0.6663(3)
O8 O 0.7656(6) -0.1475(5) 0.6230(3)
Yb1_2 Yb 0.77422(4) -1.23441(3) 0.744780(19)
Yb1_3 Yb 0.77422(4) 0.76559(3) 0.744780(19)
O2_2 O 0.5966(7) -0.1042(5) 0.7579(3)
O4_2 O 0.6546(7) -0.3690(5) 0.8053(3)
Cl1 Cl 0.5849(3) 0.1473(2) 0.88563(15)
O13 O 0.4487(10) 0.1456(11) 0.8413(7)
O14 O 0.6053(13) 0.0396(8) 0.9181(5)
O15 O 0.5898(13) 0.2292(9) 0.9453(6)
O16 O 0.6887(9) 0.1684(9) 0.8327(5)
Cl2 Cl 0.2937(3) 0.5110(3) 0.76505(18)
O9 O 0.1573(12) 0.4871(11) 0.7700(10)
O10 O 0.3893(16) 0.4548(13) 0.8179(6)
O11 O 0.3027(18) 0.6251(12) 0.7853(17)
O12 O 0.3581(14) 0.5066(17) 0.7007(6)
Cl3 Cl 0.9289(3) 0.1521(2) 0.60450(16)
O17 O 0.8476(10) 0.1616(9) 0.6701(5)
O18 O 0.9472(10) 0.0374(8) 0.5829(5)
O19 O 1.0637(15) 0.1985(13) 0.6233(16)
O20 O 0.864(2) 0.2143(15) 0.5464(8)
loop_
_geom_bond_atom_site_label_1
_geom_bond_atom_site_label_2
_geom_bond_site_symmetry_1
_geom_bond_site_symmetry_2
C1 H1 1_555 1_555
C2 C1 1_555 1_555
H2 C2 1_555 1_555
C3 C2 1_555 1_555
H3 C3 1_555 1_555
C4 C3 1_555 1_555
C5 C4 1_555 1_555
H4 C5 1_555 1_555
C6 C4 1_555 1_555
C7 C8 1_555 1_555
C8 C9 1_555 1_555
C9 H5 1_555 1_555
C10 C9 1_555 1_555
H6 C10 1_555 1_555
C11 C10 1_555 1_555
H7 C11 1_555 1_555
C12 C8 1_555 1_555
H8 C12 1_555 1_555
C13 H9 1_555 1_555
C14 C13 1_555 1_555
H10 C14 1_555 1_555
C15 C14 1_555 1_555
H11 C15 1_555 1_555
C16 C15 1_555 1_555
C17 C16 1_555 1_555
H12 C17 1_555 1_555
C18 C16 1_555 1_555
C19 C20 1_555 1_555
C20 C21 1_555 1_555
C21 H13 1_555 1_555
C22 C21 1_555 1_555
H14 C22 1_555 1_555
C23 C22 1_555 1_555
H15 C23 1_555 1_555
C24 C20 1_555 1_555
H16 C24 1_555 1_555
Cl1 O13 1_555 1_555
Cl2 O9 1_555 1_555
Cl3 O17 1_555 1_555
H17 O8 1_555 1_555
H18 O8 1_555 1_555
H19 O6 1_555 1_555
H20 O5 1_555 1_555
H21 O6 1_555 1_555
H22 O5 1_555 1_555
H23 O7 1_555 1_555
H24 O7 1_555 1_555
H25 N5 1_555 1_555
H26 N5 1_555 1_555
H27 N12 1_555 1_555
H28 N12 1_555 1_555
Yb1 O1 1_555 1_555
N1 C11 1_555 1_555
N2 C7 1_555 1_555
N3 C6 1_555 1_555
N4 C6 1_555 1_555
N5 N4 1_555 1_555
N6 C13 1_555 1_555
N7 C1 1_555 1_555
N8 C23 1_555 1_555
N9 C19 1_555 1_555
N10 C18 1_555 1_555
N11 C18 1_555 1_555
N12 N11 1_555 1_555
O1 N8 1_555 1_555
O2 N6 1_555 1_555
O3 Yb1 1_555 1_555
O4 N1 1_555 1_555
O5 Yb1 1_555 1_555
O6 Yb1 1_555 1_555
O7 Yb1 1_555 1_555
O8 Yb1 1_555 1_555
O10 Cl2 1_555 1_555
O11 Cl2 1_555 1_555
O12 Cl2 1_555 1_555
O14 Cl1 1_555 1_555
O15 Cl1 1_555 1_555
O16 Cl1 1_555 1_555
O18 Cl3 1_555 1_555
O19 Cl3 1_555 1_555
O20 Cl3 1_555 1_555
Yb1_2 O2 1_555 1_555
Yb1_3 O4 1_555 1_555
O2_2 Yb1 1_555 1_555
O4_2 Yb1 1_555 1_555
C5 N7 1_555 1_555
C7 N4 1_555 1_555
C12 N1 1_555 1_555
C17 N6 1_555 1_555
C19 N11 1_555 1_555
C24 N8 1_555 1_555
N2 N3 1_555 1_555
N7 O3 1_555 1_555
N9 N10 1_555 1_555

#END
