
#######################################################################
#
#                 Cambridge Crystallographic Data Centre
#                                CCDC 
#
#######################################################################
#
# If this CIF has been generated from an entry in the Cambridge 
# Structural Database, then it will include bibliographic, chemical, 
# crystal, experimental, refinement or atomic coordinate data resulting 
# from the CCDC's data processing and validation procedures.
#
#######################################################################

data_NAKHEO
_symmetry_cell_setting           monoclinic
_symmetry_space_group_name_H-M   'P 21/c'
_symmetry_Int_Tables_number      14
_space_group_name_Hall           '-P 2ybc'
loop_
_symmetry_equiv_pos_site_id
_symmetry_equiv_pos_as_xyz
1 x,y,z
2 -x,1/2+y,1/2-z
3 -x,-y,-z
4 x,1/2-y,1/2+z
_cell_length_a                   9.6418(6)
_cell_length_b                   6.4491(4)
_cell_length_c                   15.3216(9)
_cell_angle_alpha                90
_cell_angle_beta                 95.792(1)
_cell_angle_gamma                90
_cell_volume                     947.848
loop_
_atom_site_label
_atom_site_type_symbol
_atom_site_fract_x
_atom_site_fract_y
_atom_site_fract_z
Mn1 Mn 0.14475(5) 0.49604(8) 0.37089(3)
O1 O 0.0669(2) 0.3197(4) 0.25683(15)
O2 O 0.0550(2) 0.1668(4) 0.12720(15)
O3 O 0.6602(2) 0.8318(4) 0.12032(16)
O4 O 0.7388(2) 0.5184(4) 0.09323(19)
O5 O 0.2166(3) 0.6678(5) 0.4908(2)
H1 H 0.235(5) 0.780(8) 0.467(3)
H2 H 0.169(7) 0.691(10) 0.523(4)
O6 O 0.0531(3) 0.2534(4) 0.45047(18)
H3 H 0.064(5) 0.261(9) 0.509(4)
H4 H 0.104(5) 0.167(7) 0.438(3)
N1 N 0.2152(3) 0.6891(5) 0.25916(19)
H5 H 0.254(4) 0.809(7) 0.279(3)
H6 H 0.132(5) 0.720(7) 0.236(3)
C1 C 0.2504(3) 0.3839(5) 0.16663(19)
C2 C 0.2942(3) 0.5774(5) 0.20128(19)
C3 C 0.4209(3) 0.6579(5) 0.1813(2)
H7 H 0.446(3) 0.799(6) 0.200(2)
C4 C 0.5068(3) 0.5472(5) 0.13069(19)
C5 C 0.4665(3) 0.3530(6) 0.0993(2)
H8 H 0.522(4) 0.272(6) 0.066(2)
C6 C 0.3375(3) 0.2736(6) 0.1154(2)
H9 H 0.313(4) 0.138(7) 0.093(3)
C7 C 0.1143(3) 0.2850(5) 0.1852(2)
C8 C 0.6450(3) 0.6401(5) 0.1130(2)
Mn1A Mn -0.14475(5) -0.00396(8) 0.12911(3)
Mn1A_2 Mn 0.85525(5) 0.99604(8) 0.12911(3)
O2A O -0.0550(2) 0.6668(4) 0.37280(15)
O3A O 0.3398(2) 0.3318(4) 0.37968(16)
loop_
_geom_bond_atom_site_label_1
_geom_bond_atom_site_label_2
_geom_bond_site_symmetry_1
_geom_bond_site_symmetry_2
Mn1 O1 1_555 1_555
O1 C7 1_555 1_555
O2 C7 1_555 1_555
O3 C8 1_555 1_555
O4 C8 1_555 1_555
O5 Mn1 1_555 1_555
H1 O5 1_555 1_555
H2 O5 1_555 1_555
O6 Mn1 1_555 1_555
H3 O6 1_555 1_555
H4 O6 1_555 1_555
N1 Mn1 1_555 1_555
H5 N1 1_555 1_555
H6 N1 1_555 1_555
C1 C2 1_555 1_555
C2 N1 1_555 1_555
C3 C2 1_555 1_555
H7 C3 1_555 1_555
C4 C3 1_555 1_555
C5 C4 1_555 1_555
H8 C5 1_555 1_555
C6 C1 1_555 1_555
H9 C6 1_555 1_555
C7 C1 1_555 1_555
C8 C4 1_555 1_555
Mn1A O2 1_555 1_555
Mn1A_2 O3 1_555 1_555
O2A Mn1 1_555 1_555
O3A Mn1 1_555 1_555
C5 C6 1_555 1_555

#END
