
#######################################################################
#
#                 Cambridge Crystallographic Data Centre
#                                CCDC 
#
#######################################################################
#
# If this CIF has been generated from an entry in the Cambridge 
# Structural Database, then it will include bibliographic, chemical, 
# crystal, experimental, refinement or atomic coordinate data resulting 
# from the CCDC's data processing and validation procedures.
#
#######################################################################

data_NAKJUF
_symmetry_cell_setting           triclinic
_symmetry_space_group_name_H-M   'P 1'
_symmetry_Int_Tables_number      1
_space_group_name_Hall           'P 1'
loop_
_symmetry_equiv_pos_site_id
_symmetry_equiv_pos_as_xyz
1 x,y,z
_cell_length_a                   9.66(2)
_cell_length_b                   18.35(4)
_cell_length_c                   18.76(5)
_cell_angle_alpha                61.50(4)
_cell_angle_beta                 90.00(4)
_cell_angle_gamma                89.89(4)
_cell_volume                     2922.43
loop_
_atom_site_label
_atom_site_type_symbol
_atom_site_fract_x
_atom_site_fract_y
_atom_site_fract_z
Sn1 Sn 0.29267(5) 0.73029(4) 0.50366(4)
Sn2 Sn 0.78364(6) 0.77020(4) -0.00420(4)
O1 O 0.3993(6) 0.7823(4) 0.3817(4)
O2 O 0.5100(7) 0.8770(5) 0.4014(5)
O3 O 0.6870(6) 0.8093(4) 0.0814(4)
O4 O 0.8909(6) 0.8566(4) 0.0985(4)
O5 O 0.1836(6) 0.6731(4) 0.6194(4)
O6 O 0.2214(8) 0.7834(5) 0.6365(4)
O7 O -0.1304(6) 0.7279(4) 0.9116(4)
O8 O -0.1796(7) 0.5925(4) 0.9779(4)
S1 S 0.5744(2) 0.80020(15) 0.24236(16)
S2 S 0.0298(3) 0.73101(15) 0.77842(15)
C1 C 0.4893(10) 0.8389(6) 0.3632(6)
C2 C 0.5742(8) 0.8600(5) 0.2906(5)
C3 C 0.6661(9) 0.9238(6) 0.2546(6)
H5 H 0.6804 0.9632 0.2717
C4 C 0.7381(9) 0.9238(6) 0.1878(6)
H6 H 0.8037 0.9631 0.1566
C5 C 0.6997(8) 0.8603(6) 0.1756(5)
C6 C 0.7646(10) 0.8419(6) 0.1142(6)
C7 C 0.1680(9) 0.7138(6) 0.6596(6)
C8 C 0.0824(10) 0.6745(6) 0.7342(6)
C9 C 0.0369(9) 0.5930(6) 0.7779(6)
H7 H 0.0563 0.5524 0.7631
C10 C -0.0412(10) 0.5779(6) 0.8469(6)
H8 H -0.0791 0.5267 0.8823
C11 C -0.0549(9) 0.6467(5) 0.8558(5)
C12 C -0.1276(10) 0.6550(6) 0.9194(6)
C13 C 0.4925(10) 0.6960(6) 0.5616(6)
C14 C 0.5156(12) 0.6855(6) 0.6376(7)
H9 H 0.4462 0.6958 0.6660
C15 C 0.6478(17) 0.6585(7) 0.6719(9)
H10 H 0.6645 0.6512 0.7237
C16 C 0.7491(17) 0.6430(9) 0.6337(12)
H11 H 0.8354 0.6262 0.6582
C17 C 0.7273(12) 0.6516(8) 0.5604(11)
H12 H 0.7986 0.6398 0.5342
C18 C 0.5966(10) 0.6784(7) 0.5210(8)
H13 H 0.5815 0.6839 0.4697
C19 C 0.2117(8) 0.6324(5) 0.4850(6)
C20 C 0.0908(9) 0.5913(6) 0.5212(6)
H14 H 0.0450 0.6055 0.5564
C21 C 0.0348(11) 0.5295(6) 0.5072(7)
H15 H -0.0460 0.5020 0.5329
C22 C 0.1057(12) 0.5098(7) 0.4519(8)
H16 H 0.0683 0.4708 0.4392
C23 C 0.2241(12) 0.5464(7) 0.4184(8)
H17 H 0.2726 0.5292 0.3863
C24 C 0.2771(11) 0.6100(7) 0.4306(7)
H18 H 0.3561 0.6381 0.4027
C25 C 0.1528(9) 0.8333(6) 0.4546(6)
C26 C 0.1924(10) 0.9164(6) 0.4126(6)
H19 H 0.2855 0.9307 0.4078
C27 C 0.0909(13) 0.9776(8) 0.3780(7)
H20 H 0.1169 1.0331 0.3510
C28 C -0.0457(13) 0.9574(8) 0.3831(8)
H21 H -0.1113 0.9993 0.3585
C29 C -0.0885(11) 0.8768(8) 0.4237(7)
H22 H -0.1820 0.8634 0.4274
C30 C 0.0115(9) 0.8157(7) 0.4590(7)
H23 H -0.0166 0.7606 0.4868
C31 C 0.9081(10) 0.6818(6) 0.0929(6)
C32 C 0.8592(12) 0.6392(7) 0.1713(6)
H24 H 0.7696 0.6487 0.1831
C33 C 0.9433(15) 0.5822(8) 0.2325(8)
H25 H 0.9099 0.5523 0.2852
C34 C 1.0788(17) 0.5702(9) 0.2141(10)
H26 H 1.1352 0.5322 0.2553
C35 C 1.1290(13) 0.6112(9) 0.1401(10)
H27 H 1.2197 0.6028 0.1290
C36 C 1.0418(12) 0.6683(8) 0.0781(8)
H28 H 1.0764 0.6975 0.0256
C37 C 0.8565(9) 0.8924(6) -0.0898(6)
C38 C 0.9474(11) 0.9045(7) -0.1509(7)
H29 H 0.9783 0.8584 -0.1546
C39 C 0.9949(13) 0.9812(9) -0.2067(8)
H30 H 1.0553 0.9867 -0.2475
C40 C 0.9518(16) 1.0496(10) -0.2013(10)
H31 H 0.9840 1.1020 -0.2380
C41 C 0.8586(15) 1.0401(9) -0.1397(10)
H32 H 0.8284 1.0860 -0.1354
C42 C 0.8122(12) 0.9608(7) -0.0852(7)
H33 H 0.7497 0.9544 -0.0449
C43 C 0.5789(9) 0.7477(7) -0.0284(6)
C44 C 0.4853(14) 0.8073(9) -0.0604(10)
H34 H 0.5075 0.8591 -0.0661
C45 C 0.3501(17) 0.7963(17) -0.0871(11)
H35 H 0.2902 0.8411 -0.1132
C46 C 0.314(2) 0.724(2) -0.0743(15)
H36 H 0.2258 0.7156 -0.0883
C47 C 0.400(2) 0.6640(19) -0.042(2)
H37 H 0.3742 0.6125 -0.0358
C48 C 0.5295(16) 0.6725(11) -0.0168(15)
H38 H 0.5858 0.6259 0.0091
Sn2_2 Sn -0.21636(6) 0.77020(4) 0.99580(4)
O7_2 O 0.8696(6) 0.7279(4) -0.0884(4)
Sn3 Sn 0.70692(6) 0.27017(4) 0.49598(4)
Sn4 Sn 1.19816(5) 0.23025(4) 1.00364(4)
O9 O 0.8049(6) 0.3102(5) 0.5808(4)
O10 O 0.6004(7) 0.3574(4) 0.5987(4)
O11 O 1.0930(6) 0.2816(4) 0.8811(4)
O12 O 0.9791(7) 0.3780(5) 0.9001(4)
O13 O 0.6212(7) 0.2275(4) 0.4117(4)
O14 O 0.6697(7) 0.0938(4) 0.4776(4)
O15 O 0.3070(6) 0.1721(4) 0.1206(4)
O16 O 0.2678(8) 0.2822(5) 0.1385(4)
S3 S 0.9158(2) 0.29985(16) 0.74252(16)
S4 S 0.4615(3) 0.23077(15) 0.27896(15)
C49 C 0.7244(11) 0.3391(7) 0.6151(6)
C50 C 0.7906(8) 0.3596(6) 0.6747(5)
C51 C 0.7529(9) 0.4236(6) 0.6877(6)
H39 H 0.6868 0.4631 0.6568
C52 C 0.8248(9) 0.4239(5) 0.7534(6)
H40 H 0.8120 0.4646 0.7689
C53 C 0.9141(8) 0.3595(5) 0.7920(5)
C54 C 1.0014(10) 0.3389(6) 0.8629(6)
C55 C 0.6177(10) 0.1559(7) 0.4205(6)
C56 C 0.5428(9) 0.1471(5) 0.3551(5)
C57 C 0.5313(9) 0.0783(6) 0.3456(6)
H41 H 0.5716 0.0274 0.3800
C58 C 0.4519(9) 0.0936(5) 0.2779(6)
H42 H 0.4302 0.0533 0.2632
C59 C 0.4100(10) 0.1727(6) 0.2363(6)
C60 C 0.3216(10) 0.2161(6) 0.1582(5)
C61 C 0.6334(10) 0.3908(6) 0.4116(6)
C62 C 0.5419(11) 0.4039(7) 0.3505(7)
H43 H 0.5077 0.3580 0.3475
C63 C 0.4973(13) 0.4833(9) 0.2921(9)
H44 H 0.4395 0.4898 0.2498
C64 C 0.5410(16) 0.5511(9) 0.2987(10)
H45 H 0.5087 0.6036 0.2622
C65 C 0.6294(13) 0.5422(8) 0.3571(10)
H46 H 0.6609 0.5882 0.3606
C66 C 0.6746(7) 0.4612(5) 0.4137(4)
H47 H 0.7355 0.4556 0.4544
C67 C 0.9138(7) 0.2464(5) 0.4738(4)
C68 C 0.9997(7) 0.3151(5) 0.4362(4)
H48 H 0.9701 0.3663 0.4293
C69 C 1.1321(15) 0.3095(12) 0.4109(11)
H49 H 1.1912 0.3549 0.3906
C70 C 1.1728(15) 0.2382(11) 0.4161(10)
H50 H 1.2575 0.2353 0.3939
C71 C 1.0933(19) 0.1692(13) 0.4532(13)
H51 H 1.1233 0.1202 0.4551
C72 C 0.9607(16) 0.1710(10) 0.4902(12)
H52 H 0.9120 0.1228 0.5231
C73 C 0.5822(10) 0.1823(7) 0.5923(6)
C74 C 0.4471(11) 0.1658(7) 0.5797(8)
H53 H 0.4129 0.1934 0.5270
C75 C 0.3613(13) 0.1126(9) 0.6384(9)
H54 H 0.2707 0.1052 0.6263
C76 C 0.4095(15) 0.0713(9) 0.7136(11)
H55 H 0.3519 0.0346 0.7548
C77 C 0.5436(14) 0.0818(7) 0.7313(7)
H56 H 0.5771 0.0508 0.7839
C78 C 0.6305(11) 0.1395(7) 0.6703(7)
H57 H 0.7198 0.1485 0.6829
C79 C 1.2792(8) 0.1336(5) 0.9826(6)
C80 C 1.2129(11) 0.1087(6) 0.9321(7)
H58 H 1.1305 0.1345 0.9070
C81 C 1.2648(12) 0.0482(7) 0.9183(7)
H59 H 1.2181 0.0334 0.8837
C82 C 1.3849(13) 0.0085(7) 0.9544(7)
H60 H 1.4194 -0.0337 0.9452
C83 C 1.4544(11) 0.0315(6) 1.0043(8)
H61 H 1.5389 0.0066 1.0265
C84 C 1.4010(9) 0.0913(6) 1.0224(6)
H62 H 1.4448 0.1030 1.0599
C85 C 0.9996(10) 0.1977(6) 1.0615(6)
C86 C 0.8935(10) 0.1776(7) 1.0239(7)
H63 H 0.9125 0.1815 0.9736
C87 C 0.7669(13) 0.1532(8) 1.0539(10)
H64 H 0.6999 0.1432 1.0241
C88 C 0.7387(14) 0.1438(8) 1.1253(12)
H65 H 0.6501 0.1275 1.1462
C89 C 0.8386(17) 0.1576(7) 1.1720(9)
H66 H 0.8187 0.1496 1.2237
C90 C 0.9754(12) 0.1851(7) 1.1355(8)
H67 H 1.0454 0.1936 1.1647
C91 C 1.3365(9) 0.3337(5) 0.9550(5)
C92 C 1.2978(10) 0.4169(6) 0.9133(6)
H68 H 1.2049 0.4317 0.9091
C93 C 1.3984(13) 0.4776(7) 0.8781(8)
H69 H 1.3709 0.5328 0.8511
C94 C 1.5348(12) 0.4596(8) 0.8814(8)
H70 H 1.5996 0.5017 0.8565
C95 C 1.5772(11) 0.3761(8) 0.9233(8)
H71 H 1.6704 0.3622 0.9260
C96 C 1.4773(9) 0.3144(7) 0.9607(7)
H72 H 1.5051 0.2593 0.9900
Sn4_2 Sn 0.19816(5) 0.23025(4) 0.00364(4)
O15_2 O 1.3070(6) 0.1721(4) 1.1206(4)
N1 N 0.1065(9) 0.8419(5) 0.1998(5)
H1 H 0.0338 0.8543 0.1650
C97 C 0.1991(13) 0.7818(8) 0.1931(8)
H73 H 0.1499 0.7299 0.2113
H74 H 0.2774 0.7714 0.2291
C98 C 0.2536(15) 0.8100(10) 0.1070(9)
H75 H 0.3139 0.7682 0.1073
H76 H 0.3038 0.8609 0.0886
H77 H 0.1770 0.8185 0.0711
C99 C 0.198(2) 0.9163(11) 0.1745(15)
H78 H 0.2746 0.9033 0.2120
H79 H 0.2349 0.9341 0.1206
C100 C 0.1140(19) 0.9789(11) 0.1751(12)
H80 H 0.1665 1.0292 0.1559
H81 H 0.0831 0.9619 0.2295
H82 H 0.0353 0.9884 0.1405
C101 C 0.0559(13) 0.8059(8) 0.2858(7)
H83 H 0.0065 0.8488 0.2916
H84 H 0.1357 0.7902 0.3215
C102 C -0.0374(11) 0.7314(7) 0.3137(7)
H85 H -0.0635 0.7125 0.3692
H86 H 0.0107 0.6879 0.3094
H87 H -0.1190 0.7465 0.2804
N2 N 0.8605(12) 0.4333(6) 0.0914(6)
H2 H 0.8506 0.4872 0.0527
C103 C 0.7430(16) 0.3895(10) 0.0812(11)
H88 H 0.7505 0.3314 0.1213
H89 H 0.7501 0.3927 0.0282
C104 C 0.6020(15) 0.4197(9) 0.0885(9)
H90 H 0.5327 0.3857 0.0822
H91 H 0.5904 0.4761 0.0470
H92 H 0.5926 0.4165 0.1408
C105 C 0.9946(16) 0.4051(8) 0.0741(8)
H93 H 0.9869 0.4040 0.0230
H94 H 1.0128 0.3490 0.1162
C106 C 1.1148(15) 0.4591(9) 0.0692(10)
H95 H 1.1978 0.4382 0.0573
H96 H 1.1254 0.4590 0.1202
H97 H 1.0982 0.5148 0.0271
C107 C 0.859(2) 0.4338(12) 0.1699(11)
H98 H 0.7737 0.4598 0.1736
H99 H 0.9350 0.4680 0.1705
C108 C 0.871(2) 0.3478(15) 0.2459(11)
H100 H 0.8675 0.3542 0.2938
H101 H 0.9570 0.3224 0.2445
H102 H 0.7955 0.3135 0.2467
N3 N 0.3831(9) 0.3420(6) 0.6997(5)
H3 H 0.4553 0.3553 0.6646
C109 C 0.2917(13) 0.2813(9) 0.6924(9)
H103 H 0.2136 0.2698 0.7287
H104 H 0.3424 0.2299 0.7100
C110 C 0.2372(16) 0.3096(10) 0.6071(8)
H105 H 0.1786 0.2674 0.6071
H106 H 0.3136 0.3194 0.5710
H107 H 0.1850 0.3599 0.5895
C111 C 0.4365(13) 0.3051(8) 0.7859(6)
H108 H 0.3578 0.2899 0.8223
H109 H 0.4876 0.3475 0.7916
C112 C 0.5289(11) 0.2298(6) 0.8126(7)
H110 H 0.5584 0.2109 0.8675
H111 H 0.6084 0.2442 0.7778
H112 H 0.4784 0.1864 0.8094
C113 C 0.2890(18) 0.4170(10) 0.6747(13)
H113 H 0.2470 0.4325 0.6224
H114 H 0.2159 0.4044 0.7143
C114 C 0.374(2) 0.4833(13) 0.6701(14)
H115 H 0.3178 0.5321 0.6532
H116 H 0.4464 0.4944 0.6315
H117 H 0.4129 0.4677 0.7224
N4 N 0.6264(12) 0.9320(6) 0.5941(6)
H4 H 0.6366 0.9854 0.5544
C115 C 0.4929(15) 0.9047(8) 0.5755(9)
H118 H 0.4748 0.8483 0.6171
H119 H 0.5019 0.9041 0.5243
C116 C 0.3702(15) 0.9580(9) 0.5703(10)
H120 H 0.2885 0.9368 0.5575
H121 H 0.3861 1.0139 0.5288
H122 H 0.3577 0.9572 0.6215
C117 C 0.7451(16) 0.8871(10) 0.5836(11)
H123 H 0.7376 0.8903 0.5307
H124 H 0.7378 0.8291 0.6238
C118 C 0.8896(15) 0.9181(9) 0.5908(10)
H125 H 0.9590 0.8857 0.5821
H126 H 0.9008 0.9126 0.6440
H127 H 0.8992 0.9752 0.5509
C119 C 0.6358(19) 0.9361(11) 0.6694(9)
H128 H 0.5620 0.9713 0.6708
H129 H 0.7232 0.9614 0.6706
C120 C 0.626(2) 0.8513(13) 0.7448(13)
H130 H 0.6351 0.8577 0.7925
H131 H 0.6979 0.8159 0.7438
H132 H 0.5372 0.8271 0.7456
loop_
_geom_bond_atom_site_label_1
_geom_bond_atom_site_label_2
_geom_bond_site_symmetry_1
_geom_bond_site_symmetry_2
Sn1 O1 1_555 1_555
Sn2 O3 1_555 1_555
Sn3 O9 1_555 1_555
Sn4 O11 1_555 1_555
N1 H1 1_555 1_555
N2 H2 1_555 1_555
N3 H3 1_555 1_555
N4 H4 1_555 1_555
O1 C1 1_555 1_555
O2 C1 1_555 1_555
O3 C6 1_555 1_555
O4 C6 1_555 1_555
O5 Sn1 1_555 1_555
O6 C7 1_555 1_555
O7 C12 1_555 1_555
O8 C12 1_555 1_555
O9 C49 1_555 1_555
O10 C49 1_555 1_555
O11 C54 1_555 1_555
O12 C54 1_555 1_555
O13 Sn3 1_555 1_555
O14 C55 1_555 1_555
O15 C60 1_555 1_555
O16 C60 1_555 1_555
S1 C2 1_555 1_555
S2 C8 1_555 1_555
S3 C50 1_555 1_555
S4 C56 1_555 1_555
C1 C2 1_555 1_555
C2 C3 1_555 1_555
C3 H5 1_555 1_555
C4 C3 1_555 1_555
H6 C4 1_555 1_555
C5 S1 1_555 1_555
C6 C5 1_555 1_555
C7 O5 1_555 1_555
C8 C7 1_555 1_555
C9 C8 1_555 1_555
H7 C9 1_555 1_555
C10 C9 1_555 1_555
H8 C10 1_555 1_555
C11 S2 1_555 1_555
C12 C11 1_555 1_555
C13 Sn1 1_555 1_555
C14 C13 1_555 1_555
H9 C14 1_555 1_555
C15 C14 1_555 1_555
H10 C15 1_555 1_555
C16 C15 1_555 1_555
H11 C16 1_555 1_555
C17 C16 1_555 1_555
H12 C17 1_555 1_555
C18 C13 1_555 1_555
H13 C18 1_555 1_555
C19 Sn1 1_555 1_555
C20 C19 1_555 1_555
H14 C20 1_555 1_555
C21 C20 1_555 1_555
H15 C21 1_555 1_555
C22 C21 1_555 1_555
H16 C22 1_555 1_555
C23 C22 1_555 1_555
H17 C23 1_555 1_555
C24 C19 1_555 1_555
H18 C24 1_555 1_555
C25 Sn1 1_555 1_555
C26 C25 1_555 1_555
H19 C26 1_555 1_555
C27 C26 1_555 1_555
H20 C27 1_555 1_555
C28 C27 1_555 1_555
H21 C28 1_555 1_555
C29 C28 1_555 1_555
H22 C29 1_555 1_555
C30 C25 1_555 1_555
H23 C30 1_555 1_555
C31 Sn2 1_555 1_555
C32 C31 1_555 1_555
H24 C32 1_555 1_555
C33 C32 1_555 1_555
H25 C33 1_555 1_555
C34 C33 1_555 1_555
H26 C34 1_555 1_555
C35 C34 1_555 1_555
H27 C35 1_555 1_555
C36 C31 1_555 1_555
H28 C36 1_555 1_555
C37 Sn2 1_555 1_555
C38 C37 1_555 1_555
H29 C38 1_555 1_555
C39 C38 1_555 1_555
H30 C39 1_555 1_555
C40 C39 1_555 1_555
H31 C40 1_555 1_555
C41 C40 1_555 1_555
H32 C41 1_555 1_555
C42 C37 1_555 1_555
H33 C42 1_555 1_555
C43 Sn2 1_555 1_555
C44 C43 1_555 1_555
H34 C44 1_555 1_555
C45 C44 1_555 1_555
H35 C45 1_555 1_555
C46 C45 1_555 1_555
H36 C46 1_555 1_555
C47 C46 1_555 1_555
H37 C47 1_555 1_555
C48 C43 1_555 1_555
H38 C48 1_555 1_555
C49 C50 1_555 1_555
C50 C51 1_555 1_555
C51 H39 1_555 1_555
C52 C51 1_555 1_555
H40 C52 1_555 1_555
C53 S3 1_555 1_555
C54 C53 1_555 1_555
C55 O13 1_555 1_555
C56 C55 1_555 1_555
C57 C56 1_555 1_555
H41 C57 1_555 1_555
C58 C57 1_555 1_555
H42 C58 1_555 1_555
C59 S4 1_555 1_555
C60 C59 1_555 1_555
C61 Sn3 1_555 1_555
C62 C61 1_555 1_555
H43 C62 1_555 1_555
C63 C62 1_555 1_555
H44 C63 1_555 1_555
C64 C63 1_555 1_555
H45 C64 1_555 1_555
C65 C64 1_555 1_555
H46 C65 1_555 1_555
C66 C61 1_555 1_555
H47 C66 1_555 1_555
C67 Sn3 1_555 1_555
C68 C67 1_555 1_555
H48 C68 1_555 1_555
C69 C68 1_555 1_555
H49 C69 1_555 1_555
C70 C69 1_555 1_555
H50 C70 1_555 1_555
C71 C70 1_555 1_555
H51 C71 1_555 1_555
C72 C67 1_555 1_555
H52 C72 1_555 1_555
C73 Sn3 1_555 1_555
C74 C73 1_555 1_555
H53 C74 1_555 1_555
C75 C74 1_555 1_555
H54 C75 1_555 1_555
C76 C75 1_555 1_555
H55 C76 1_555 1_555
C77 C76 1_555 1_555
H56 C77 1_555 1_555
C78 C73 1_555 1_555
H57 C78 1_555 1_555
C79 Sn4 1_555 1_555
C80 C79 1_555 1_555
H58 C80 1_555 1_555
C81 C80 1_555 1_555
H59 C81 1_555 1_555
C82 C81 1_555 1_555
H60 C82 1_555 1_555
C83 C82 1_555 1_555
H61 C83 1_555 1_555
C84 C79 1_555 1_555
H62 C84 1_555 1_555
C85 Sn4 1_555 1_555
C86 C85 1_555 1_555
H63 C86 1_555 1_555
C87 C86 1_555 1_555
H64 C87 1_555 1_555
C88 C87 1_555 1_555
H65 C88 1_555 1_555
C89 C88 1_555 1_555
H66 C89 1_555 1_555
C90 C85 1_555 1_555
H67 C90 1_555 1_555
C91 Sn4 1_555 1_555
C92 C91 1_555 1_555
H68 C92 1_555 1_555
C93 C92 1_555 1_555
H69 C93 1_555 1_555
C94 C93 1_555 1_555
H70 C94 1_555 1_555
C95 C94 1_555 1_555
H71 C95 1_555 1_555
C96 C91 1_555 1_555
H72 C96 1_555 1_555
C97 N1 1_555 1_555
H73 C97 1_555 1_555
H74 C97 1_555 1_555
C98 C97 1_555 1_555
H75 C98 1_555 1_555
H76 C98 1_555 1_555
H77 C98 1_555 1_555
C99 N1 1_555 1_555
H78 C99 1_555 1_555
H79 C99 1_555 1_555
C100 C99 1_555 1_555
H80 C100 1_555 1_555
H81 C100 1_555 1_555
H82 C100 1_555 1_555
C101 N1 1_555 1_555
H83 C101 1_555 1_555
H84 C101 1_555 1_555
C102 C101 1_555 1_555
H85 C102 1_555 1_555
H86 C102 1_555 1_555
H87 C102 1_555 1_555
C103 N2 1_555 1_555
H88 C103 1_555 1_555
H89 C103 1_555 1_555
C104 C103 1_555 1_555
H90 C104 1_555 1_555
H91 C104 1_555 1_555
H92 C104 1_555 1_555
C105 N2 1_555 1_555
H93 C105 1_555 1_555
H94 C105 1_555 1_555
C106 C105 1_555 1_555
H95 C106 1_555 1_555
H96 C106 1_555 1_555
H97 C106 1_555 1_555
C107 N2 1_555 1_555
H98 C107 1_555 1_555
H99 C107 1_555 1_555
C108 C107 1_555 1_555
H100 C108 1_555 1_555
H101 C108 1_555 1_555
H102 C108 1_555 1_555
C109 N3 1_555 1_555
H103 C109 1_555 1_555
H104 C109 1_555 1_555
C110 C109 1_555 1_555
H105 C110 1_555 1_555
H106 C110 1_555 1_555
H107 C110 1_555 1_555
C111 N3 1_555 1_555
H108 C111 1_555 1_555
H109 C111 1_555 1_555
C112 C111 1_555 1_555
H110 C112 1_555 1_555
H111 C112 1_555 1_555
H112 C112 1_555 1_555
C113 N3 1_555 1_555
H113 C113 1_555 1_555
H114 C113 1_555 1_555
C114 C113 1_555 1_555
H115 C114 1_555 1_555
H116 C114 1_555 1_555
H117 C114 1_555 1_555
C115 N4 1_555 1_555
H118 C115 1_555 1_555
H119 C115 1_555 1_555
C116 C115 1_555 1_555
H120 C116 1_555 1_555
H121 C116 1_555 1_555
H122 C116 1_555 1_555
C117 N4 1_555 1_555
H123 C117 1_555 1_555
H124 C117 1_555 1_555
C118 C117 1_555 1_555
H125 C118 1_555 1_555
H126 C118 1_555 1_555
H127 C118 1_555 1_555
C119 N4 1_555 1_555
H128 C119 1_555 1_555
H129 C119 1_555 1_555
C120 C119 1_555 1_555
H130 C120 1_555 1_555
H131 C120 1_555 1_555
H132 C120 1_555 1_555
Sn2_2 O7 1_555 1_555
Sn4_2 O15 1_555 1_555
O7_2 Sn2 1_555 1_555
O15_2 Sn4 1_555 1_555
C4 C5 1_555 1_555
C10 C11 1_555 1_555
C17 C18 1_555 1_555
C23 C24 1_555 1_555
C29 C30 1_555 1_555
C35 C36 1_555 1_555
C41 C42 1_555 1_555
C47 C48 1_555 1_555
C52 C53 1_555 1_555
C58 C59 1_555 1_555
C65 C66 1_555 1_555
C71 C72 1_555 1_555
C77 C78 1_555 1_555
C83 C84 1_555 1_555
C89 C90 1_555 1_555
C95 C96 1_555 1_555

#END
