
#######################################################################
#
#                 Cambridge Crystallographic Data Centre
#                                CCDC 
#
#######################################################################
#
# If this CIF has been generated from an entry in the Cambridge 
# Structural Database, then it will include bibliographic, chemical, 
# crystal, experimental, refinement or atomic coordinate data resulting 
# from the CCDC's data processing and validation procedures.
#
#######################################################################

data_NAKJUF01
_symmetry_cell_setting           monoclinic
_symmetry_space_group_name_H-M   'P c'
_symmetry_Int_Tables_number      7
_space_group_name_Hall           'P -2yc'
loop_
_symmetry_equiv_pos_site_id
_symmetry_equiv_pos_as_xyz
1 x,y,z
2 x,-y,1/2+z
_cell_length_a                   18.354(4)
_cell_length_b                   9.658(2)
_cell_length_c                   18.982(3)
_cell_angle_alpha                90
_cell_angle_beta                 119.69(2)
_cell_angle_gamma                90
_cell_volume                     2923.07
loop_
_atom_site_label
_atom_site_type_symbol
_atom_site_fract_x
_atom_site_fract_y
_atom_site_fract_z
Sn1 Sn 0.50000(3) 0.54737(5) 0.50000(2)
Sn2 Sn 0.96781(3) 1.03827(5) 1.00773(3)
S1 S 0.69143(13) 0.8292(2) 0.76148(14)
S2 S 0.22403(13) 0.2842(2) 0.22456(13)
O1 O 0.5712(4) 0.6532(5) 0.6230(3)
O2 O 0.4553(4) 0.7658(6) 0.6025(4)
O3 O 0.8431(4) 0.9426(5) 0.9224(4)
O4 O 0.7786(4) 1.1445(6) 0.9049(4)
O5 O 0.4413(4) 0.4385(5) 0.3827(3)
O6 O 0.3139(4) 0.4765(8) 0.3661(4)
O7 O 0.0942(4) 0.1239(6) 0.0924(4)
O8 O 0.1636(4) 0.0751(7) 0.0269(4)
C1 C 0.6183(3) 0.4659(5) 0.5204(3)
C2 C 0.6203(3) 0.3442(5) 0.4823(3)
H3 H 0.5706 0.2987 0.4475
C3 C 0.6966(4) 0.2904(5) 0.4963(4)
H4 H 0.6979 0.2089 0.4708
C4 C 0.7709(3) 0.3584(7) 0.5483(4)
H5 H 0.8219 0.3224 0.5577
C5 C 0.7689(3) 0.4802(7) 0.5864(4)
H6 H 0.8186 0.5257 0.6212
C6 C 0.6926(3) 0.5339(5) 0.5724(4)
H7 H 0.6913 0.6154 0.5979
C7 C 0.4772(4) 0.7471(5) 0.4428(4)
C8 C 0.5355(4) 0.8506(6) 0.4843(3)
H8 H 0.5804 0.8334 0.5358
C9 C 0.5268(5) 0.9799(5) 0.4488(5)
H9 H 0.5658 1.0492 0.4766
C10 C 0.4597(5) 1.0057(6) 0.3718(5)
H10 H 0.4538 1.0922 0.3480
C11 C 0.4013(4) 0.9021(8) 0.3303(4)
H11 H 0.3564 0.9193 0.2788
C12 C 0.4101(4) 0.7728(7) 0.3658(4)
H12 H 0.3710 0.7035 0.3380
C13 C 0.4457(4) 0.4064(4) 0.5493(3)
C14 C 0.4046(4) 0.4474(4) 0.5908(4)
H13 H 0.3948 0.5408 0.5945
C15 C 0.3784(4) 0.3487(6) 0.6267(4)
H14 H 0.3509 0.3761 0.6544
C16 C 0.3931(4) 0.2090(6) 0.6211(4)
H15 H 0.3755 0.1430 0.6451
C17 C 0.4341(4) 0.1681(4) 0.5796(4)
H16 H 0.4440 0.0746 0.5759
C18 C 0.4604(4) 0.2668(5) 0.5437(4)
H17 H 0.4879 0.2394 0.5159
C19 C 0.9591(4) 1.1644(5) 0.9103(3)
C20 C 0.9238(4) 1.1136(5) 0.8316(3)
H18 H 0.9039 1.0231 0.8203
C21 C 0.9182(4) 1.1979(7) 0.7698(3)
H19 H 0.8946 1.1639 0.7172
C22 C 0.9480(5) 1.3331(7) 0.7866(4)
H20 H 0.9443 1.3895 0.7453
C23 C 0.9833(5) 1.3839(5) 0.8653(4)
H21 H 1.0032 1.4744 0.8766
C24 C 0.9889(4) 1.2996(6) 0.9271(3)
H22 H 1.0125 1.3336 0.9797
C25 C 1.0143(5) 0.8319(6) 1.0321(4)
C26 C 1.0814(6) 0.7891(9) 1.0229(6)
H23 H 1.1037 0.8483 0.9998
C27 C 1.1153(6) 0.6577(11) 1.0482(8)
H24 H 1.1602 0.6290 1.0421
C28 C 1.0820(7) 0.5691(7) 1.0828(7)
H25 H 1.1046 0.4811 1.0997
C29 C 1.0149(8) 0.6119(8) 1.0920(6)
H26 H 0.9926 0.5526 1.1151
C30 C 0.9811(5) 0.7433(8) 1.0667(6)
H27 H 0.9362 0.7720 1.0728
C31 C 0.9308(4) 1.1118(6) 1.0941(4)
C32 C 0.9822(4) 1.2035(7) 1.1550(4)
H28 H 1.0323 1.2333 1.1590
C33 C 0.9587(5) 1.2508(7) 1.2101(4)
H29 H 0.9930 1.3121 1.2509
C34 C 0.8838(5) 1.2063(8) 1.2041(4)
H30 H 0.8681 1.2379 1.2409
C35 C 0.8324(4) 1.1146(8) 1.1432(5)
H31 H 0.7823 1.0848 1.1392
C36 C 0.8559(4) 1.0673(6) 1.0881(4)
H32 H 0.8216 1.0059 1.0473
C37 C 0.5315(5) 0.7442(8) 0.6401(5)
C38 C 0.5834(5) 0.8292(7) 0.7127(4)
C39 C 0.5559(5) 0.9209(8) 0.7492(5)
H33 H 0.4995 0.9346 0.7324
C40 C 0.6208(6) 0.9928(8) 0.8146(5)
H34 H 0.6116 1.0588 0.8449
C41 C 0.6993(5) 0.9556(7) 0.8290(5)
C42 C 0.7787(6) 1.0203(8) 0.8887(5)
C43 C 0.3597(5) 0.4244(8) 0.3439(5)
C44 C 0.3261(5) 0.3359(8) 0.2698(5)
C45 C 0.3626(5) 0.2929(8) 0.2258(5)
H35 H 0.4176 0.3143 0.2400
C46 C 0.3097(5) 0.2136(9) 0.1575(5)
H36 H 0.3262 0.1745 0.1228
C47 C 0.2313(5) 0.2003(8) 0.1476(4)
C48 C 0.1576(6) 0.1273(8) 0.0828(5)
Sn2_2 Sn -0.03219(3) 0.03827(5) 0.00773(3)
O7_2 O 1.0942(4) 1.1239(6) 1.0924(4)
N1 N 0.6925(4) 1.3621(7) 0.8031(4)
H1 H 0.7149 1.2892 0.8377
C49 C 0.7612(6) 1.4533(11) 0.8081(6)
H37 H 0.7368 1.5308 0.7713
H38 H 0.7955 1.4011 0.7916
C50 C 0.8164(7) 1.5073(13) 0.8946(7)
H39 H 0.8592 1.5667 0.8962
H40 H 0.8421 1.4307 0.9308
H41 H 0.7825 1.5585 0.9110
C51 C 0.6412(6) 1.3109(10) 0.7174(5)
H42 H 0.6204 1.3897 0.6810
H43 H 0.5932 1.2601 0.7121
C52 C 0.6913(8) 1.2177(10) 0.6923(6)
H44 H 0.6563 1.1885 0.6371
H45 H 0.7106 1.1381 0.7270
H46 H 0.7386 1.2679 0.6968
C53 C 0.6392(9) 1.4477(14) 0.8261(11)
H47 H 0.6748 1.4919 0.8780
H48 H 0.6116 1.5200 0.7860
C54 C 0.5743(11) 1.362(2) 0.8319(13)
H49 H 0.5428 1.4198 0.8484
H50 H 0.6013 1.2898 0.8710
H51 H 0.5371 1.3222 0.7799
N2 N 0.2095(5) 0.1153(8) -0.0870(5)
H2 H 0.1955 0.1036 -0.0476
C55 C 0.1301(6) 0.1138(15) -0.1647(7)
H52 H 0.0957 0.1909 -0.1657
H53 H 0.1001 0.0291 -0.1683
C56 C 0.1422(12) 0.124(2) -0.2383(7)
H54 H 0.0886 0.1209 -0.2869
H55 H 0.1758 0.0473 -0.2381
H56 H 0.1699 0.2091 -0.2364
C57 C 0.2653(7) -0.0021(10) -0.0788(9)
H57 H 0.3160 0.0036 -0.0264
H58 H 0.2813 0.0057 -0.1203
C58 C 0.2244(9) -0.1422(10) -0.0864(9)
H59 H 0.2636 -0.2143 -0.0789
H60 H 0.1758 -0.1505 -0.1393
H61 H 0.2079 -0.1502 -0.0458
C59 C 0.2552(6) 0.2494(9) -0.0694(7)
H62 H 0.2694 0.2675 -0.1114
H63 H 0.3072 0.2415 -0.0183
C60 C 0.2057(9) 0.3706(10) -0.0646(9)
H64 H 0.2385 0.4536 -0.0530
H65 H 0.1925 0.3545 -0.0223
H66 H 0.1548 0.3806 -0.1155
loop_
_geom_bond_atom_site_label_1
_geom_bond_atom_site_label_2
_geom_bond_site_symmetry_1
_geom_bond_site_symmetry_2
Sn1 O1 1_555 1_555
Sn2 O3 1_555 1_555
S1 C38 1_555 1_555
S2 C44 1_555 1_555
O1 C37 1_555 1_555
O2 C37 1_555 1_555
O3 C42 1_555 1_555
O4 C42 1_555 1_555
O5 Sn1 1_555 1_555
O6 C43 1_555 1_555
O7 C48 1_555 1_555
O8 C48 1_555 1_555
N1 H1 1_555 1_555
N2 H2 1_555 1_555
C1 Sn1 1_555 1_555
C2 C1 1_555 1_555
H3 C2 1_555 1_555
C3 C2 1_555 1_555
H4 C3 1_555 1_555
C4 C3 1_555 1_555
H5 C4 1_555 1_555
C5 C4 1_555 1_555
H6 C5 1_555 1_555
C6 C1 1_555 1_555
H7 C6 1_555 1_555
C7 Sn1 1_555 1_555
C8 C7 1_555 1_555
H8 C8 1_555 1_555
C9 C8 1_555 1_555
H9 C9 1_555 1_555
C10 C9 1_555 1_555
H10 C10 1_555 1_555
C11 C10 1_555 1_555
H11 C11 1_555 1_555
C12 C7 1_555 1_555
H12 C12 1_555 1_555
C13 Sn1 1_555 1_555
C14 C13 1_555 1_555
H13 C14 1_555 1_555
C15 C14 1_555 1_555
H14 C15 1_555 1_555
C16 C15 1_555 1_555
H15 C16 1_555 1_555
C17 C16 1_555 1_555
H16 C17 1_555 1_555
C18 C13 1_555 1_555
H17 C18 1_555 1_555
C19 Sn2 1_555 1_555
C20 C19 1_555 1_555
H18 C20 1_555 1_555
C21 C20 1_555 1_555
H19 C21 1_555 1_555
C22 C21 1_555 1_555
H20 C22 1_555 1_555
C23 C22 1_555 1_555
H21 C23 1_555 1_555
C24 C19 1_555 1_555
H22 C24 1_555 1_555
C25 Sn2 1_555 1_555
C26 C25 1_555 1_555
H23 C26 1_555 1_555
C27 C26 1_555 1_555
H24 C27 1_555 1_555
C28 C27 1_555 1_555
H25 C28 1_555 1_555
C29 C28 1_555 1_555
H26 C29 1_555 1_555
C30 C25 1_555 1_555
H27 C30 1_555 1_555
C31 Sn2 1_555 1_555
C32 C31 1_555 1_555
H28 C32 1_555 1_555
C33 C32 1_555 1_555
H29 C33 1_555 1_555
C34 C33 1_555 1_555
H30 C34 1_555 1_555
C35 C34 1_555 1_555
H31 C35 1_555 1_555
C36 C31 1_555 1_555
H32 C36 1_555 1_555
C37 C38 1_555 1_555
C38 C39 1_555 1_555
C39 H33 1_555 1_555
C40 C39 1_555 1_555
H34 C40 1_555 1_555
C41 S1 1_555 1_555
C42 C41 1_555 1_555
C43 O5 1_555 1_555
C44 C43 1_555 1_555
C45 C44 1_555 1_555
H35 C45 1_555 1_555
C46 C45 1_555 1_555
H36 C46 1_555 1_555
C47 S2 1_555 1_555
C48 C47 1_555 1_555
C49 N1 1_555 1_555
H37 C49 1_555 1_555
H38 C49 1_555 1_555
C50 C49 1_555 1_555
H39 C50 1_555 1_555
H40 C50 1_555 1_555
H41 C50 1_555 1_555
C51 N1 1_555 1_555
H42 C51 1_555 1_555
H43 C51 1_555 1_555
C52 C51 1_555 1_555
H44 C52 1_555 1_555
H45 C52 1_555 1_555
H46 C52 1_555 1_555
C53 N1 1_555 1_555
H47 C53 1_555 1_555
H48 C53 1_555 1_555
C54 C53 1_555 1_555
H49 C54 1_555 1_555
H50 C54 1_555 1_555
H51 C54 1_555 1_555
C55 N2 1_555 1_555
H52 C55 1_555 1_555
H53 C55 1_555 1_555
C56 C55 1_555 1_555
H54 C56 1_555 1_555
H55 C56 1_555 1_555
H56 C56 1_555 1_555
C57 N2 1_555 1_555
H57 C57 1_555 1_555
H58 C57 1_555 1_555
C58 C57 1_555 1_555
H59 C58 1_555 1_555
H60 C58 1_555 1_555
H61 C58 1_555 1_555
C59 N2 1_555 1_555
H62 C59 1_555 1_555
H63 C59 1_555 1_555
C60 C59 1_555 1_555
H64 C60 1_555 1_555
H65 C60 1_555 1_555
H66 C60 1_555 1_555
Sn2_2 O7 1_555 1_555
O7_2 Sn2 1_555 1_555
C5 C6 1_555 1_555
C11 C12 1_555 1_555
C17 C18 1_555 1_555
C23 C24 1_555 1_555
C29 C30 1_555 1_555
C35 C36 1_555 1_555
C40 C41 1_555 1_555
C46 C47 1_555 1_555

#END
