
#######################################################################
#
#                 Cambridge Crystallographic Data Centre
#                                CCDC 
#
#######################################################################
#
# If this CIF has been generated from an entry in the Cambridge 
# Structural Database, then it will include bibliographic, chemical, 
# crystal, experimental, refinement or atomic coordinate data resulting 
# from the CCDC's data processing and validation procedures.
#
#######################################################################

data_NAKLOB
_symmetry_cell_setting           monoclinic
_symmetry_space_group_name_H-M   'C 2/c'
_symmetry_Int_Tables_number      15
_space_group_name_Hall           '-C 2yn'
loop_
_symmetry_equiv_pos_site_id
_symmetry_equiv_pos_as_xyz
1 x,y,z
2 1/2+x,1/2+y,z
3 -x,y,1/2-z
4 1/2-x,1/2+y,1/2-z
5 -x,-y,-z
6 1/2-x,1/2-y,-z
7 x,-y,1/2+z
8 1/2+x,1/2-y,1/2+z
_cell_length_a                   19.516(4)
_cell_length_b                   19.503(4)
_cell_length_c                   12.566(3)
_cell_angle_alpha                90
_cell_angle_beta                 112.48(3)
_cell_angle_gamma                90
_cell_volume                     4419.44
loop_
_atom_site_label
_atom_site_type_symbol
_atom_site_fract_x
_atom_site_fract_y
_atom_site_fract_z
Ag1 Ag 0.378720(19) 0.43629(2) 0.75096(4)
Ag2 Ag 0.5000 0.05668(2) 0.7500
Ag3 Ag 0.5000 -0.18461(3) 0.7500
O1 O 0.57642(15) -0.00555(14) 0.6468(2)
O2 O 0.51029(14) -0.10200(14) 0.6041(2)
O3 O 0.59106(15) -0.02316(14) 0.9067(3)
O4 O 0.64255(17) -0.11892(14) 0.8754(3)
O5 O 0.46826(15) 0.54180(14) 0.8557(2)
O6 O 0.57581(15) 0.48648(13) 0.9037(3)
O7 O 0.49484(15) 0.38701(13) 0.8932(2)
O8 O 0.58648(15) 0.32701(15) 0.8755(3)
N1 N 0.78661(18) 0.00721(18) 0.7790(3)
N2 N 0.76902(18) -0.12882(17) 0.7145(3)
N3 N 0.57641(18) 0.71509(16) 0.7847(3)
N4 N 0.43954(19) 0.15643(16) 0.7807(3)
C1 C 0.8077(2) 0.0637(2) 0.8423(4)
H1 H 0.8466 0.0890 0.8369
C2 C 0.7757(2) 0.0865(2) 0.9143(4)
H2 H 0.7914 0.1270 0.9555
C3 C 0.7195(2) 0.0484(2) 0.9250(3)
H3 H 0.6966 0.0630 0.9737
C4 C 0.6972(2) -0.01187(19) 0.8631(3)
C5 C 0.7312(2) -0.0299(2) 0.7875(3)
C6 C 0.7106(2) -0.09167(19) 0.7114(3)
C7 C 0.6379(2) -0.10940(19) 0.6418(3)
C8 C 0.6273(2) -0.1696(2) 0.5770(4)
H4 H 0.5796 -0.1835 0.5310
C9 C 0.6875(2) -0.2083(2) 0.5812(4)
H5 H 0.6811 -0.2483 0.5381
C10 C 0.7572(2) -0.1862(2) 0.6510(4)
H6 H 0.7979 -0.2122 0.6543
C11 C 0.5713(2) -0.0675(2) 0.6300(3)
C12 C 0.6409(2) -0.0564(2) 0.8825(3)
C13 C 0.6488(2) 0.7196(2) 0.8502(4)
H7 H 0.6739 0.7595 0.8465
C14 C 0.6876(2) 0.6682(2) 0.9226(4)
H8 H 0.7381 0.6726 0.9659
C15 C 0.6500(2) 0.6097(2) 0.9294(4)
H9 H 0.6749 0.5743 0.9784
C16 C 0.5746(2) 0.60374(18) 0.8630(3)
C17 C 0.54019(19) 0.65788(19) 0.7899(3)
C18 C 0.5339(2) 0.5405(2) 0.8744(3)
C19 C 0.3969(2) 0.1524(2) 0.8417(4)
H10 H 0.3705 0.1121 0.8373
C20 C 0.3898(2) 0.2037(2) 0.9101(4)
H11 H 0.3590 0.1989 0.9508
C21 C 0.4295(2) 0.2627(2) 0.9170(4)
H12 H 0.4253 0.2990 0.9621
C22 C 0.4757(2) 0.26855(18) 0.8573(3)
C23 C 0.4775(2) 0.21437(18) 0.7864(3)
C24 C 0.5241(2) 0.3307(2) 0.8763(3)
H13 H 0.544(2) 0.4476(17) 0.910(4)
H14 H 0.5503(19) -0.054(2) 0.905(4)
Ag1B Ag 0.621280(19) 0.43629(2) 0.74904(4)
Ag1A Ag 0.878720(19) -0.06371(2) 0.75096(4)
Ag1C Ag 0.121280(19) -0.06371(2) 0.74904(4)
Ag3_2 Ag 0.5000 0.81539(3) 0.7500
O1B O 0.42358(15) -0.00555(14) 0.8532(2)
O2B O 0.48971(14) -0.10200(14) 0.8959(2)
O3B O 0.40894(15) -0.02316(14) 0.5933(3)
O4B O 0.35745(17) -0.11892(14) 0.6246(3)
O5B O 0.53174(15) 0.54180(14) 0.6443(2)
O6B O 0.42419(15) 0.48648(13) 0.5963(3)
O7B O 0.50516(15) 0.38701(13) 0.6068(2)
O8B O 0.41352(15) 0.32701(15) 0.6245(3)
N1B N 0.21339(18) 0.00721(18) 0.7210(3)
N1A N 0.28661(18) 0.50721(18) 0.7790(3)
N1C N 0.71339(18) 0.50721(18) 0.7210(3)
N2B N 0.23098(18) -0.12882(17) 0.7855(3)
N2A N 0.26902(18) 0.37118(17) 0.7145(3)
N2C N 0.73098(18) 0.37118(17) 0.7855(3)
N3B N 0.42359(18) 0.71509(16) 0.7153(3)
N3_2 N 0.57641(18) -0.28491(16) 0.7847(3)
N3B_2 N 0.42359(18) -0.28491(16) 0.7153(3)
N4B N 0.56046(19) 0.15643(16) 0.7193(3)
C1B C 0.1923(2) 0.0637(2) 0.6577(4)
H1B H 0.1534 0.0890 0.6631
C2B C 0.2243(2) 0.0865(2) 0.5857(4)
H2B H 0.2086 0.1270 0.5445
C3B C 0.2805(2) 0.0484(2) 0.5750(3)
H3B H 0.3034 0.0630 0.5263
C4B C 0.3028(2) -0.01187(19) 0.6369(3)
C5B C 0.2688(2) -0.0299(2) 0.7125(3)
C6B C 0.2894(2) -0.09167(19) 0.7886(3)
C7B C 0.3621(2) -0.10940(19) 0.8582(3)
C8B C 0.3727(2) -0.1696(2) 0.9230(4)
H4B H 0.4204 -0.1835 0.9690
C9B C 0.3125(2) -0.2083(2) 0.9188(4)
H5B H 0.3189 -0.2483 0.9619
C10B C 0.2428(2) -0.1862(2) 0.8490(4)
H6B H 0.2021 -0.2122 0.8457
C11B C 0.4287(2) -0.0675(2) 0.8700(3)
C12B C 0.3591(2) -0.0564(2) 0.6175(3)
C13B C 0.3512(2) 0.7196(2) 0.6498(4)
H7B H 0.3261 0.7595 0.6535
C14B C 0.3124(2) 0.6682(2) 0.5774(4)
H8B H 0.2619 0.6726 0.5341
C15B C 0.3500(2) 0.6097(2) 0.5706(4)
H9B H 0.3251 0.5743 0.5216
C16B C 0.4254(2) 0.60374(18) 0.6370(3)
C17B C 0.45981(19) 0.65788(19) 0.7101(3)
C18B C 0.4661(2) 0.5405(2) 0.6256(3)
C19B C 0.6031(2) 0.1524(2) 0.6583(4)
H10B H 0.6295 0.1121 0.6627
C20B C 0.6102(2) 0.2037(2) 0.5899(4)
H11B H 0.6410 0.1989 0.5492
C21B C 0.5705(2) 0.2627(2) 0.5830(4)
H12B H 0.5747 0.2990 0.5379
C22B C 0.5243(2) 0.26855(18) 0.6427(3)
C23B C 0.5225(2) 0.21437(18) 0.7136(3)
C24B C 0.4759(2) 0.3307(2) 0.6237(3)
H13B H 0.456(2) 0.4476(17) 0.590(4)
H14B H 0.4497(19) -0.054(2) 0.595(4)
loop_
_geom_bond_atom_site_label_1
_geom_bond_atom_site_label_2
_geom_bond_site_symmetry_1
_geom_bond_site_symmetry_2
Ag1 O5 1_555 1_555
Ag2 O1 1_555 1_555
Ag3 O2 1_555 1_555
O1 C11 1_555 1_555
O2 C11 1_555 1_555
O3 Ag2 1_555 1_555
O4 Ag3 1_555 1_555
O5 C18 1_555 1_555
O6 C18 1_555 1_555
O7 Ag1 1_555 1_555
O8 C24 1_555 1_555
N1 C1 1_555 1_555
N2 C6 1_555 1_555
N3 C13 1_555 1_555
N4 Ag2 1_555 1_555
C1 H1 1_555 1_555
C2 C1 1_555 1_555
H2 C2 1_555 1_555
C3 C2 1_555 1_555
H3 C3 1_555 1_555
C4 C3 1_555 1_555
C5 N1 1_555 1_555
C6 C5 1_555 1_555
C7 C6 1_555 1_555
C8 C7 1_555 1_555
H4 C8 1_555 1_555
C9 C8 1_555 1_555
H5 C9 1_555 1_555
C10 N2 1_555 1_555
H6 C10 1_555 1_555
C11 C7 1_555 1_555
C12 O3 1_555 1_555
C13 H7 1_555 1_555
C14 C13 1_555 1_555
H8 C14 1_555 1_555
C15 C14 1_555 1_555
H9 C15 1_555 1_555
C16 C15 1_555 1_555
C17 N3 1_555 1_555
C18 C16 1_555 1_555
C19 N4 1_555 1_555
H10 C19 1_555 1_555
C20 C19 1_555 1_555
H11 C20 1_555 1_555
C21 C20 1_555 1_555
H12 C21 1_555 1_555
C22 C21 1_555 1_555
C23 N4 1_555 1_555
C24 O7 1_555 1_555
H13 O6 1_555 1_555
H14 O3 1_555 1_555
Ag1B O6 1_555 1_555
Ag1A N1 1_555 1_555
Ag1C N1B 1_555 1_555
Ag3_2 N3 1_555 1_555
O1B Ag2 1_555 1_555
O2B Ag3 1_555 1_555
O3B Ag2 1_555 1_555
O4B Ag3 1_555 1_555
O5B Ag1B 1_555 1_555
O6B Ag1 1_555 1_555
O7B Ag1B 1_555 1_555
O8B Ag1 1_555 1_555
N1B C1B 1_555 1_555
N1A Ag1 1_555 1_555
N1C Ag1B 1_555 1_555
N2B Ag1C 1_555 1_555
N2A Ag1 1_555 1_555
N2C Ag1B 1_555 1_555
N3B Ag3_2 1_555 1_555
N3_2 Ag3 1_555 1_555
N3B_2 Ag3 1_555 1_555
N4B Ag2 1_555 1_555
C1B H1B 1_555 1_555
C2B C1B 1_555 1_555
H2B C2B 1_555 1_555
C3B C2B 1_555 1_555
H3B C3B 1_555 1_555
C4B C3B 1_555 1_555
C5B N1B 1_555 1_555
C6B N2B 1_555 1_555
C7B C6B 1_555 1_555
C8B C7B 1_555 1_555
H4B C8B 1_555 1_555
C9B C8B 1_555 1_555
H5B C9B 1_555 1_555
C10B N2B 1_555 1_555
H6B C10B 1_555 1_555
C11B O1B 1_555 1_555
C12B O3B 1_555 1_555
C13B N3B 1_555 1_555
H7B C13B 1_555 1_555
C14B C13B 1_555 1_555
H8B C14B 1_555 1_555
C15B C14B 1_555 1_555
H9B C15B 1_555 1_555
C16B C15B 1_555 1_555
C17B C17 1_555 1_555
C18B O5B 1_555 1_555
C19B N4B 1_555 1_555
H10B C19B 1_555 1_555
C20B C19B 1_555 1_555
H11B C20B 1_555 1_555
C21B C20B 1_555 1_555
H12B C21B 1_555 1_555
C22B C21B 1_555 1_555
C23B C23 1_555 1_555
C24B O7B 1_555 1_555
H13B O6B 1_555 1_555
H14B O3B 1_555 1_555
O4 C12 1_555 1_555
O8 Ag1B 1_555 1_555
N2 Ag1A 1_555 1_555
C4 C5 1_555 1_555
C4 C12 1_555 1_555
C9 C10 1_555 1_555
C16 C17 1_555 1_555
C22 C23 1_555 1_555
C22 C24 1_555 1_555
O2B C11B 1_555 1_555
O4B C12B 1_555 1_555
O6B C18B 1_555 1_555
O8B C24B 1_555 1_555
N3B C17B 1_555 1_555
N4B C23B 1_555 1_555
C4B C5B 1_555 1_555
C4B C12B 1_555 1_555
C5B C6B 1_555 1_555
C7B C11B 1_555 1_555
C9B C10B 1_555 1_555
C16B C17B 1_555 1_555
C16B C18B 1_555 1_555
C22B C23B 1_555 1_555
C22B C24B 1_555 1_555

#END
