
#######################################################################
#
#                 Cambridge Crystallographic Data Centre
#                                CCDC 
#
#######################################################################
#
# If this CIF has been generated from an entry in the Cambridge 
# Structural Database, then it will include bibliographic, chemical, 
# crystal, experimental, refinement or atomic coordinate data resulting 
# from the CCDC's data processing and validation procedures.
#
#######################################################################

data_NAKLIW
_symmetry_cell_setting           orthorhombic
_symmetry_space_group_name_H-M   'P b c a'
_symmetry_Int_Tables_number      61
_space_group_name_Hall           '-P 2ac 2ab'
loop_
_symmetry_equiv_pos_site_id
_symmetry_equiv_pos_as_xyz
1 x,y,z
2 1/2-x,-y,1/2+z
3 -x,1/2+y,1/2-z
4 1/2+x,1/2-y,-z
5 -x,-y,-z
6 1/2+x,y,1/2-z
7 x,1/2-y,1/2+z
8 1/2-x,1/2+y,z
_cell_length_a                   14.5049(3)
_cell_length_b                   17.1616(3)
_cell_length_c                   18.1389(4)
_cell_angle_alpha                90
_cell_angle_beta                 90
_cell_angle_gamma                90
_cell_volume                     4515.27
loop_
_atom_site_label
_atom_site_type_symbol
_atom_site_fract_x
_atom_site_fract_y
_atom_site_fract_z
C1 C 0.8193(4) 0.0556(3) 0.5435(3)
C2 C 0.9132(3) 0.0271(3) 0.5221(3)
C3 C 0.9526(3) -0.0372(4) 0.5556(3)
H1 H 0.9214 -0.0623 0.5935
C4 C 0.9616(4) 0.0649(3) 0.4666(4)
H2 H 0.9366 0.1088 0.4443
C5 C 0.5524(3) 0.1865(3) 0.6449(2)
C6 C 0.5365(3) 0.2602(3) 0.6881(2)
C7 C 0.6041(3) 0.2924(3) 0.7328(3)
H3 H 0.6620 0.2692 0.7349
C8 C 0.4504(3) 0.2969(3) 0.6843(3)
H4 H 0.4049 0.2768 0.6537
C9 C 0.4787(3) 0.4608(3) 0.8209(2)
C10 C 0.5002(3) 0.3938(3) 0.7714(2)
C11 C 0.4326(3) 0.3624(3) 0.7256(3)
H5 H 0.3749 0.3859 0.7230
C12 C 0.5868(3) 0.3579(3) 0.7740(3)
H6 H 0.6329 0.3785 0.8038
C13 C 0.3088(5) 0.0971(6) 0.7253(4)
H7 H 0.3749 0.0951 0.7229
H8 H 0.2882 0.0719 0.7695
H9 H 0.2890 0.1505 0.7255
C14 C 0.4315(8) 0.2697(5) 0.3953(5)
H10 H 0.4957 0.2738 0.4078
H11 H 0.4041 0.3206 0.3956
H12 H 0.4256 0.2472 0.3470
C15 C 0.2727(7) 0.1886(6) 0.4139(7)
H13 H 0.2875 0.1679 0.3662
H14 H 0.2377 0.2357 0.4082
H15 H 0.2370 0.1512 0.4409
C16 C 0.1492(4) 0.0920(5) 0.6497(4)
H16 H 0.1548 0.1475 0.6447
H17 H 0.1201 0.0799 0.6959
H18 H 0.1125 0.0718 0.6100
H19 H 0.609(4) 0.062(3) 0.481(3)
O1 O 0.4855(3) 0.1588(2) 0.6113(2)
O2 O 0.6333(2) 0.15826(19) 0.6465(2)
O3 O 0.7812(2) 0.0205(3) 0.5973(2)
O4 O 0.7832(3) 0.1097(2) 0.5108(3)
O5 O 0.5422(2) 0.48726(19) 0.86044(17)
O6 O 0.3969(2) 0.4855(2) 0.81989(19)
O7 O 0.5812(2) 0.03915(17) 0.51290(17)
O8 O 0.3076(2) 0.0838(2) 0.5804(2)
O9 O 0.4271(3) 0.1332(2) 0.45761(19)
S1 S 0.37398(11) 0.20865(8) 0.46162(8)
S2 S 0.26134(12) 0.04857(10) 0.64708(10)
Zn1 Zn 0.44521(3) 0.06172(3) 0.54775(3)
Zn2 Zn 0.65330(3) 0.05388(3) 0.60244(3)
C1D C 1.1807(4) -0.0556(3) 0.4565(3)
C2D C 1.0868(3) -0.0271(3) 0.4779(3)
C3D C 1.0474(3) 0.0372(4) 0.4444(3)
H1D H 1.0786 0.0623 0.4065
C4D C 1.0384(4) -0.0649(3) 0.5334(4)
H2D H 1.0634 -0.1088 0.5557
C5B C 0.4476(3) -0.3135(3) 0.8551(2)
C6B C 0.4635(3) -0.2398(3) 0.8119(2)
C7B C 0.3959(3) -0.2076(3) 0.7672(3)
H3B H 0.3380 -0.2308 0.7651
C8B C 0.5496(3) -0.2031(3) 0.8157(3)
H4B H 0.5951 -0.2232 0.8463
C9B C 0.5213(3) -0.0392(3) 0.6791(2)
C10B C 0.4998(3) -0.1062(3) 0.7286(2)
C11B C 0.5674(3) -0.1376(3) 0.7744(3)
H5B H 0.6251 -0.1141 0.7770
C12B C 0.4132(3) -0.1421(3) 0.7260(3)
H6B H 0.3671 -0.1215 0.6962
C13D C 0.6912(5) -0.0971(6) 0.2747(4)
H7D H 0.6251 -0.0951 0.2771
H8D H 0.7118 -0.0719 0.2305
H9D H 0.7110 -0.1505 0.2745
C14D C 0.5685(8) -0.2697(5) 0.6047(5)
H10D H 0.5043 -0.2738 0.5922
H11D H 0.5959 -0.3206 0.6044
H12D H 0.5744 -0.2472 0.6530
C15D C 0.7273(7) -0.1886(6) 0.5861(7)
H13D H 0.7125 -0.1679 0.6338
H14D H 0.7623 -0.2357 0.5918
H15D H 0.7630 -0.1512 0.5591
C16D C 0.8508(4) -0.0920(5) 0.3503(4)
H16D H 0.8452 -0.1475 0.3553
H17D H 0.8799 -0.0799 0.3041
H18D H 0.8875 -0.0718 0.3900
H19D H 0.391(4) -0.062(3) 0.519(3)
O1D O 0.5145(3) -0.1588(2) 0.3887(2)
O1B O 0.5145(3) -0.3412(2) 0.8887(2)
O2D O 0.3667(2) -0.15826(19) 0.3535(2)
O2B O 0.3667(2) -0.34174(19) 0.8535(2)
O3D O 1.2188(2) -0.0205(3) 0.4027(2)
O3D_2 O 0.2188(2) -0.0205(3) 0.4027(2)
O4D O 1.2168(3) -0.1097(2) 0.4892(3)
O5B O 0.4578(2) -0.01274(19) 0.63956(17)
O5F O 0.5422(2) 0.01274(19) 0.36044(17)
O6B O 0.6031(2) -0.0145(2) 0.68011(19)
O6F O 0.3969(2) 0.0145(2) 0.31989(19)
O7D O 0.4188(2) -0.03915(17) 0.48710(17)
O8D O 0.6924(2) -0.0838(2) 0.4196(2)
O9D O 0.5729(3) -0.1332(2) 0.54239(19)
S1D S 0.62602(11) -0.20865(8) 0.53838(8)
S2D S 0.73866(12) -0.04857(10) 0.35292(10)
Zn1D Zn 0.55479(3) -0.06172(3) 0.45225(3)
Zn1B Zn 0.55479(3) 0.56172(3) 0.95225(3)
Zn1B_2 Zn 0.55479(3) -0.43828(3) 0.95225(3)
Zn2D Zn 0.34670(3) -0.05388(3) 0.39756(3)
Zn2B Zn 0.34670(3) 0.55388(3) 0.89756(3)
Zn2D_2 Zn 1.34670(3) -0.05388(3) 0.39756(3)
Zn2B_2 Zn 0.34670(3) -0.44612(3) 0.89756(3)
loop_
_geom_bond_atom_site_label_1
_geom_bond_atom_site_label_2
_geom_bond_site_symmetry_1
_geom_bond_site_symmetry_2
C1 C2 1_555 1_555
C2 C3 1_555 1_555
C3 H1 1_555 1_555
C4 C2 1_555 1_555
H2 C4 1_555 1_555
C5 C6 1_555 1_555
C6 C7 1_555 1_555
C7 H3 1_555 1_555
C8 C6 1_555 1_555
H4 C8 1_555 1_555
C9 C10 1_555 1_555
C10 C11 1_555 1_555
C11 C8 1_555 1_555
H5 C11 1_555 1_555
C12 C7 1_555 1_555
H6 C12 1_555 1_555
C13 H7 1_555 1_555
H8 C13 1_555 1_555
H9 C13 1_555 1_555
C14 H10 1_555 1_555
H11 C14 1_555 1_555
H12 C14 1_555 1_555
C15 H13 1_555 1_555
H14 C15 1_555 1_555
H15 C15 1_555 1_555
C16 H16 1_555 1_555
H17 C16 1_555 1_555
H18 C16 1_555 1_555
H19 O7 1_555 1_555
O1 C5 1_555 1_555
O2 C5 1_555 1_555
O3 C1 1_555 1_555
O4 C1 1_555 1_555
O5 C9 1_555 1_555
O6 C9 1_555 1_555
O7 Zn1 1_555 1_555
O8 S2 1_555 1_555
O9 S1 1_555 1_555
S1 C14 1_555 1_555
S2 C13 1_555 1_555
Zn1 O1 1_555 1_555
Zn2 O2 1_555 1_555
C1D C2D 1_555 1_555
C2D C3D 1_555 1_555
C3D C4 1_555 1_555
H1D C3D 1_555 1_555
C4D C3 1_555 1_555
H2D C4D 1_555 1_555
C5B C6B 1_555 1_555
C6B C7B 1_555 1_555
C7B H3B 1_555 1_555
C8B C6B 1_555 1_555
H4B C8B 1_555 1_555
C9B C10B 1_555 1_555
C10B C11B 1_555 1_555
C11B C8B 1_555 1_555
H5B C11B 1_555 1_555
C12B C7B 1_555 1_555
H6B C12B 1_555 1_555
C13D H7D 1_555 1_555
H8D C13D 1_555 1_555
H9D C13D 1_555 1_555
C14D H10D 1_555 1_555
H11D C14D 1_555 1_555
H12D C14D 1_555 1_555
C15D H13D 1_555 1_555
H14D C15D 1_555 1_555
H15D C15D 1_555 1_555
C16D H16D 1_555 1_555
H17D C16D 1_555 1_555
H18D C16D 1_555 1_555
H19D O7D 1_555 1_555
O1D Zn1D 1_555 1_555
O1B C5B 1_555 1_555
O2D Zn2D 1_555 1_555
O2B C5B 1_555 1_555
O3D C1D 1_555 1_555
O3D_2 Zn2D 1_555 1_555
O4D C1D 1_555 1_555
O5B Zn1 1_555 1_555
O5F Zn1D 1_555 1_555
O6B Zn2 1_555 1_555
O6F Zn2D 1_555 1_555
O7D Zn1 1_555 1_555
O8D S2D 1_555 1_555
O9D S1D 1_555 1_555
S1D C14D 1_555 1_555
S2D C13D 1_555 1_555
Zn1D O7 1_555 1_555
Zn1B O5 1_555 1_555
Zn1B_2 O1B 1_555 1_555
Zn2D O7D 1_555 1_555
Zn2B O6 1_555 1_555
Zn2D_2 O3D 1_555 1_555
Zn2B_2 O2B 1_555 1_555
C10 C12 1_555 1_555
C15 S1 1_555 1_555
C16 S2 1_555 1_555
O3 Zn2 1_555 1_555
O7 Zn2 1_555 1_555
O8 Zn1 1_555 1_555
O9 Zn1 1_555 1_555
C2D C4D 1_555 1_555
C9B O5B 1_555 1_555
C9B O6B 1_555 1_555
C10B C12B 1_555 1_555
C15D S1D 1_555 1_555
C16D S2D 1_555 1_555
O7D Zn1D 1_555 1_555
O8D Zn1D 1_555 1_555
O9D Zn1D 1_555 1_555

#END
