
#######################################################################
#
#                 Cambridge Crystallographic Data Centre
#                                CCDC 
#
#######################################################################
#
# If this CIF has been generated from an entry in the Cambridge 
# Structural Database, then it will include bibliographic, chemical, 
# crystal, experimental, refinement or atomic coordinate data resulting 
# from the CCDC's data processing and validation procedures.
#
#######################################################################

data_NAKNUK
_symmetry_cell_setting           orthorhombic
_symmetry_space_group_name_H-M   'P n a 21'
_symmetry_Int_Tables_number      33
_space_group_name_Hall           'P 2c -2n'
loop_
_symmetry_equiv_pos_site_id
_symmetry_equiv_pos_as_xyz
1 x,y,z
2 -x,-y,1/2+z
3 1/2+x,1/2-y,z
4 1/2-x,1/2+y,1/2+z
_cell_length_a                   18.4662(6)
_cell_length_b                   18.5290(5)
_cell_length_c                   9.8939(3)
_cell_angle_alpha                90
_cell_angle_beta                 90
_cell_angle_gamma                90
_cell_volume                     3385.3
loop_
_atom_site_label
_atom_site_type_symbol
_atom_site_fract_x
_atom_site_fract_y
_atom_site_fract_z
Tb1 Tb 0.878991(6) 0.769501(6) 0.19856(3)
N1 N 0.75484(13) 0.80674(13) 0.1090(2)
C1 C 0.74647(16) 0.87607(16) 0.0698(3)
C2 C 0.68063(18) 0.90306(18) 0.0214(3)
C3 C 0.62409(18) 0.8540(2) 0.0116(4)
H1 H 0.5794 0.8695 -0.0209
C4 C 0.63268(17) 0.7836(2) 0.0487(3)
H2 H 0.5945 0.751 0.0412
C5 C 0.69877(17) 0.76174(18) 0.0972(3)
H3 H 0.7047 0.7138 0.1227
C6 C 0.81601(17) 0.91984(16) 0.0816(3)
O1 O 0.86652(10) 0.89129(11) 0.1516(2)
O2 O 0.82067(13) 0.97871(12) 0.0241(3)
C7 C 0.6682(2) 0.9806(2) -0.0189(5)
H4 H 0.6886 0.989 -0.1068
H5 H 0.6911 1.0119 0.0457
H6 H 0.6172 0.9904 -0.0211
N2 N 0.94179(14) 0.77843(13) -0.0307(2)
C8 C 0.93444(17) 0.72055(16) -0.1136(3)
C9 C 0.9646(2) 0.71841(19) -0.2442(3)
C10 C 1.0026(2) 0.77989(19) -0.2830(4)
H7 H 1.0233 0.7813 -0.3687
C11 C 1.01063(19) 0.8380(2) -0.2005(4)
H8 H 1.0366 0.8783 -0.2285
C12 C 0.97899(18) 0.83566(18) -0.0733(3)
H9 H 0.9839 0.8752 -0.0161
C13 C 0.89107(17) 0.65991(18) -0.0524(3)
O3 O 0.85345(12) 0.67662(11) 0.0515(2)
O4 O 0.89462(13) 0.59921(13) -0.1012(2)
C14 C 0.9552(2) 0.6564(2) -0.3396(3)
H10 H 0.9923 0.6211 -0.3232
H11 H 0.9588 0.6734 -0.431
H12 H 0.9085 0.6349 -0.3257
N3 N 0.97062(13) 0.67355(13) 0.2657(2)
C15 C 1.03261(16) 0.69539(16) 0.3236(3)
C16 C 1.08422(19) 0.64699(18) 0.3738(3)
C17 C 1.06794(18) 0.57326(18) 0.3599(3)
H13 H 1.1007 0.5391 0.3917
C18 C 1.00540(19) 0.55083(17) 0.3009(4)
H14 H 0.9954 0.5019 0.2915
C19 C 0.95664(18) 0.60265(16) 0.2549(3)
H15 H 0.9133 0.5878 0.2157
C20 C 1.04130(17) 0.77676(15) 0.3275(3)
O5 O 0.99116(11) 0.81287(11) 0.2681(2)
O6 O 1.09365(13) 0.80420(12) 0.3846(2)
C21 C 1.1533(2) 0.66829(19) 0.4411(4)
H16 H 1.1797 0.7007 0.3835
H17 H 1.182 0.626 0.4579
H18 H 1.1428 0.6919 0.5253
N4 N 0.85257(14) 0.81025(13) 0.4399(2)
C22 C 0.81292(16) 0.76643(16) 0.5184(3)
C23 C 0.79403(18) 0.78474(18) 0.6512(3)
C24 C 0.81700(15) 0.85172(17) 0.6973(5)
H19 H 0.8048 0.8663 0.7843
C25 C 0.85745(19) 0.8969(2) 0.6171(3)
H20 H 0.8725 0.9417 0.6486
C26 C 0.87514(16) 0.87394(18) 0.4880(4)
H21 H 0.9034 0.9035 0.4334
C27 C 0.78728(16) 0.69799(17) 0.4476(3)
O7 O 0.80812(12) 0.69262(11) 0.3243(2)
O8 O 0.74967(12) 0.65377(12) 0.5063(2)
C28 C 0.7506(2) 0.7367(2) 0.7431(3)
H22 H 0.748 0.7579 0.8315
H23 H 0.7734 0.6902 0.7491
H24 H 0.7025 0.7312 0.7075
Na1 Na 0.84271(7) 1.08389(6) -0.09718(12)
O9 O 0.77005(16) 1.07464(14) -0.2808(3)
H25 H 0.764(2) 1.058(2) -0.356(3)
H26 H 0.7432(18) 1.1072(16) -0.257(3)
O10 O 0.96139(14) 1.04567(12) -0.1891(2)
H27 H 0.9724(19) 1.0870(11) -0.209(3)
H28 H 0.9744(18) 1.0202(16) -0.250(3)
O6A O 0.90635(13) 1.19580(12) -0.1154(2)
O8C O 0.75033(12) 1.15377(12) 0.0063(2)
Na1A Na 1.15729(7) 0.91611(6) 0.40282(12)
Na1C Na 0.65729(7) 0.58389(6) 0.40282(12)
O11 O 0.97142(17) 1.01756(16) 0.0874(3)
H29 H 0.941(2) 0.988(2) 0.098(4)
H30 H 0.984(2) 1.023(2) 0.011(4)
C29 C 0.8279(2) 1.0581(3) -0.6322(5)
H31 H 0.854 1.0534 -0.7156
H32 H 0.8577 1.0418 -0.5588
H33 H 0.8152 1.1078 -0.6182
C30 C 0.7615(2) 1.0140(2) -0.6381(4)
H34 H 0.7321 1.0304 -0.7134
H35 H 0.7748 0.9642 -0.6553
O12 O 0.71951(15) 1.01711(15) -0.5181(3)
H36 H 0.6882(18) 1.0467(18) -0.525(4)
loop_
_geom_bond_atom_site_label_1
_geom_bond_atom_site_label_2
_geom_bond_site_symmetry_1
_geom_bond_site_symmetry_2
Tb1 N1 1_555 1_555
N1 C1 1_555 1_555
C1 C2 1_555 1_555
C2 C3 1_555 1_555
C3 H1 1_555 1_555
C4 C3 1_555 1_555
H2 C4 1_555 1_555
C5 N1 1_555 1_555
H3 C5 1_555 1_555
C6 C1 1_555 1_555
O1 Tb1 1_555 1_555
O2 C6 1_555 1_555
C7 C2 1_555 1_555
H4 C7 1_555 1_555
H5 C7 1_555 1_555
H6 C7 1_555 1_555
N2 Tb1 1_555 1_555
C8 N2 1_555 1_555
C9 C8 1_555 1_555
C10 C9 1_555 1_555
H7 C10 1_555 1_555
C11 C10 1_555 1_555
H8 C11 1_555 1_555
C12 N2 1_555 1_555
H9 C12 1_555 1_555
C13 C8 1_555 1_555
O3 Tb1 1_555 1_555
O4 C13 1_555 1_555
C14 C9 1_555 1_555
H10 C14 1_555 1_555
H11 C14 1_555 1_555
H12 C14 1_555 1_555
N3 Tb1 1_555 1_555
C15 N3 1_555 1_555
C16 C15 1_555 1_555
C17 C16 1_555 1_555
H13 C17 1_555 1_555
C18 C17 1_555 1_555
H14 C18 1_555 1_555
C19 N3 1_555 1_555
H15 C19 1_555 1_555
C20 C15 1_555 1_555
O5 Tb1 1_555 1_555
O6 C20 1_555 1_555
C21 C16 1_555 1_555
H16 C21 1_555 1_555
H17 C21 1_555 1_555
H18 C21 1_555 1_555
N4 Tb1 1_555 1_555
C22 N4 1_555 1_555
C23 C22 1_555 1_555
C24 C23 1_555 1_555
H19 C24 1_555 1_555
C25 C24 1_555 1_555
H20 C25 1_555 1_555
C26 N4 1_555 1_555
H21 C26 1_555 1_555
C27 C22 1_555 1_555
O7 Tb1 1_555 1_555
O8 C27 1_555 1_555
C28 C23 1_555 1_555
H22 C28 1_555 1_555
H23 C28 1_555 1_555
H24 C28 1_555 1_555
Na1 O2 1_555 1_555
O9 Na1 1_555 1_555
H25 O9 1_555 1_555
H26 O9 1_555 1_555
O10 Na1 1_555 1_555
H27 O10 1_555 1_555
H28 O10 1_555 1_555
O11 H29 1_555 1_555
H30 O11 1_555 1_555
C29 H31 1_555 1_555
H32 C29 1_555 1_555
H33 C29 1_555 1_555
C30 C29 1_555 1_555
H34 C30 1_555 1_555
H35 C30 1_555 1_555
O12 C30 1_555 1_555
H36 O12 1_555 1_555
O6A Na1 1_555 1_555
O8C Na1 1_555 1_555
Na1A O6 1_555 1_555
Na1C O8 1_555 1_555
C4 C5 1_555 1_555
C6 O1 1_555 1_555
C11 C12 1_555 1_555
C13 O3 1_555 1_555
C18 C19 1_555 1_555
C20 O5 1_555 1_555
C25 C26 1_555 1_555
C27 O7 1_555 1_555

#END
