
#######################################################################
#
#                 Cambridge Crystallographic Data Centre
#                                CCDC 
#
#######################################################################
#
# If this CIF has been generated from an entry in the Cambridge 
# Structural Database, then it will include bibliographic, chemical, 
# crystal, experimental, refinement or atomic coordinate data resulting 
# from the CCDC's data processing and validation procedures.
#
#######################################################################

data_NAKQUN
_symmetry_cell_setting           monoclinic
_symmetry_space_group_name_H-M   'P 21/n'
_symmetry_Int_Tables_number      14
_space_group_name_Hall           '-P 2yn'
loop_
_symmetry_equiv_pos_site_id
_symmetry_equiv_pos_as_xyz
1 x,y,z
2 1/2-x,1/2+y,1/2-z
3 -x,-y,-z
4 1/2+x,1/2-y,1/2+z
_cell_length_a                   4.9030(10)
_cell_length_b                   24.640(5)
_cell_length_c                   6.6020(13)
_cell_angle_alpha                90
_cell_angle_beta                 111.60(3)
_cell_angle_gamma                90
_cell_volume                     741.578
loop_
_atom_site_label
_atom_site_type_symbol
_atom_site_fract_x
_atom_site_fract_y
_atom_site_fract_z
N1 N 0.1189(4) 0.08134(5) 0.4137(2)
O1 O -0.1491(4) 0.04967(4) 0.6760(2)
O2 O 0.5111(3) 0.11620(5) 0.0040(2)
O3 O -0.2209(3) 0.13593(5) 0.7509(2)
C1 C 0.2683(4) 0.14735(6) 0.2292(3)
N2 N 0.2452(4) 0.09550(5) 0.2750(2)
C2 C 0.0209(4) 0.11977(6) 0.5110(2)
C3 C -0.1279(4) 0.10016(6) 0.6606(2)
C4 C 0.4088(4) 0.15946(6) 0.0675(3)
O4 O 0.4208(4) 0.20499(4) 0.0057(2)
C5 C 0.1727(5) 0.18911(6) 0.3287(3)
H1 H 0.1930 0.2253 0.2965
C6 C 0.0479(5) 0.17513(6) 0.4753(3)
H2 H -0.0165 0.2014 0.5486
Li1 Li 0.0000 0.0000 0.5000
O5 O 0.4949(4) -0.00562(5) 0.8091(2)
H3 H 0.606(6) 0.0181(8) 0.792(4)
H4 H 0.558(6) -0.0364(7) 0.807(4)
H5 H 0.617(7) 0.1250(8) -0.089(4)
H6 H 0.5000 0.0000 1.0000
N1B N -0.1189(4) -0.08134(5) 0.5863(2)
O1B O 0.1491(4) -0.04967(4) 0.3240(2)
O2B O -0.5111(3) -0.11620(5) 0.9960(2)
O3B O 0.2209(3) -0.13593(5) 0.2491(2)
C1B C -0.2683(4) -0.14735(6) 0.7708(3)
N2B N -0.2452(4) -0.09550(5) 0.7250(2)
C2B C -0.0209(4) -0.11977(6) 0.4890(2)
C3B C 0.1279(4) -0.10016(6) 0.3394(2)
C4B C -0.4088(4) -0.15946(6) 0.9325(3)
O4B O -0.4208(4) -0.20499(4) 0.9943(2)
C5B C -0.1727(5) -0.18911(6) 0.6713(3)
H1B H -0.1930 -0.2253 0.7035
C6B C -0.0479(5) -0.17513(6) 0.5247(3)
H2B H 0.0165 -0.2014 0.4514
Li1_2 Li 1.0000 0.0000 1.5000
O5B O 0.5051(4) 0.00562(5) 1.1909(2)
O5B_2 O -0.4949(4) 0.00562(5) 0.1909(2)
H3B H 0.394(6) -0.0181(8) 1.208(4)
H3B_2 H -0.606(6) -0.0181(8) 0.208(4)
H4B H 0.442(6) 0.0364(7) 1.193(4)
H4B_2 H -0.558(6) 0.0364(7) 0.193(4)
H5B H -0.617(7) -0.1250(8) 1.089(4)
loop_
_geom_bond_atom_site_label_1
_geom_bond_atom_site_label_2
_geom_bond_site_symmetry_1
_geom_bond_site_symmetry_2
N1 N2 1_555 1_555
O1 C3 1_555 1_555
O2 C4 1_555 1_555
O3 C3 1_555 1_555
C1 N2 1_555 1_555
C2 N1 1_555 1_555
C3 C2 1_555 1_555
C4 C1 1_555 1_555
O4 C4 1_555 1_555
C5 C1 1_555 1_555
H1 C5 1_555 1_555
C6 C2 1_555 1_555
H2 C6 1_555 1_555
Li1 N1 1_555 1_555
O5 Li1 1_555 1_555
H3 O5 1_555 1_555
H4 O5 1_555 1_555
H5 O2 1_555 1_555
H6 O5 1_555 1_555
N1B Li1 1_555 1_555
O1B Li1 1_555 1_555
O2B C4B 1_555 1_555
O3B C3B 1_555 1_555
C1B N2B 1_555 1_555
N2B N1B 1_555 1_555
C2B N1B 1_555 1_555
C3B O1B 1_555 1_555
C4B C1B 1_555 1_555
O4B C4B 1_555 1_555
C5B C1B 1_555 1_555
H1B C5B 1_555 1_555
C6B C2B 1_555 1_555
H2B C6B 1_555 1_555
Li1_2 O5B 1_555 1_555
O5B H6 1_555 1_555
O5B_2 Li1 1_555 1_555
H3B O5B 1_555 1_555
H3B_2 O5B_2 1_555 1_555
H4B O5B 1_555 1_555
H4B_2 O5B_2 1_555 1_555
H5B O2B 1_555 1_555
O1 Li1 1_555 1_555
C5 C6 1_555 1_555
C2B C3B 1_555 1_555
C5B C6B 1_555 1_555

#END
