
#######################################################################
#
#                 Cambridge Crystallographic Data Centre
#                                CCDC 
#
#######################################################################
#
# If this CIF has been generated from an entry in the Cambridge 
# Structural Database, then it will include bibliographic, chemical, 
# crystal, experimental, refinement or atomic coordinate data resulting 
# from the CCDC's data processing and validation procedures.
#
#######################################################################

data_NAKSEZ
_symmetry_cell_setting           tetragonal
_symmetry_space_group_name_H-M   'P 41 21 2'
_symmetry_Int_Tables_number      92
_space_group_name_Hall           'P 4abw 2nw'
loop_
_symmetry_equiv_pos_site_id
_symmetry_equiv_pos_as_xyz
1 x,y,z
2 -x,-y,1/2+z
3 1/2-y,1/2+x,1/4+z
4 1/2+y,1/2-x,3/4+z
5 1/2-x,1/2+y,1/4-z
6 1/2+x,1/2-y,3/4-z
7 y,x,-z
8 -y,-x,1/2-z
_cell_length_a                   11.824(3)
_cell_length_b                   11.824(3)
_cell_length_c                   15.841(9)
_cell_angle_alpha                90
_cell_angle_beta                 90
_cell_angle_gamma                90
_cell_volume                     2214.68
loop_
_atom_site_label
_atom_site_type_symbol
_atom_site_fract_x
_atom_site_fract_y
_atom_site_fract_z
Cd1 Cd 0.62771(5) 0.37229(5) 0.2500
I1 I 0.51631(4) 0.51631(4) 0.0000
I2 I 0.28105(5) 0.12921(6) 0.17206(4)
N1 N 0.1416(5) 0.1416(5) 0.0000
H1 H 0.1357 0.0961 0.0421
N2 N 0.6179(7) 0.2214(7) 0.3348(5)
O1 O 0.5507(5) 0.2646(5) 0.1328(3)
O2 O 0.4475(5) 0.3921(4) 0.1965(3)
C1 C 0.2221(6) 0.2221(6) 0.0000
C2 C 0.2982(6) 0.2357(6) 0.0666(4)
C3 C 0.3809(6) 0.3171(6) 0.0673(4)
C4 C 0.3908(5) 0.3908(5) 0.0000
C5 C 0.4652(7) 0.3247(7) 0.1375(5)
C6 C 0.5209(10) 0.1691(10) 0.3519(9)
H2 H 0.4560 0.1946 0.3248
C7 C 0.5108(12) 0.0835(12) 0.4049(10)
H3 H 0.4419 0.0464 0.4114
C8 C 0.6063(12) 0.0494(13) 0.4514(11)
H4 H 0.6026 -0.0039 0.4944
C9 C 0.7027(12) 0.0999(13) 0.4288(10)
H5 H 0.7701 0.0745 0.4523
C10 C 0.7060(10) 0.1827(10) 0.3754(8)
H6 H 0.7755 0.2169 0.3654
Cd1A Cd 0.37229(5) 0.62771(5) -0.2500
I2F I 0.12921(6) 0.28105(5) -0.17206(4)
H1F H 0.0961 0.1357 -0.0421
N2G N 0.7786(7) 0.3821(7) 0.1652(5)
O1F O 0.2646(5) 0.5507(5) -0.1328(3)
O1G O 0.7354(5) 0.4493(5) 0.3672(3)
O2F O 0.3921(4) 0.4475(5) -0.1965(3)
O2G O 0.6079(4) 0.5525(5) 0.3035(3)
C2F C 0.2357(6) 0.2982(6) -0.0666(4)
C3F C 0.3171(6) 0.3809(6) -0.0673(4)
C5F C 0.3247(7) 0.4652(7) -0.1375(5)
C6G C 0.8309(10) 0.4791(10) 0.1481(9)
H2G H 0.8054 0.5440 0.1752
C7G C 0.9165(12) 0.4892(12) 0.0951(10)
H3G H 0.9536 0.5581 0.0886
C8G C 0.9506(13) 0.3937(12) 0.0486(11)
H4G H 1.0039 0.3974 0.0056
C9G C 0.9001(13) 0.2973(12) 0.0712(10)
H5G H 0.9255 0.2299 0.0477
C10G C 0.8173(10) 0.2940(10) 0.1246(8)
H6G H 0.7831 0.2245 0.1346
loop_
_geom_bond_atom_site_label_1
_geom_bond_atom_site_label_2
_geom_bond_site_symmetry_1
_geom_bond_site_symmetry_2
Cd1 N2 1_555 1_555
I1 C4 1_555 1_555
I2 C2 1_555 1_555
N1 H1 1_555 1_555
N2 C6 1_555 1_555
O1 Cd1 1_555 1_555
O2 Cd1 1_555 1_555
C1 N1 1_555 1_555
C2 C1 1_555 1_555
C3 C2 1_555 1_555
C4 C3 1_555 1_555
C5 O1 1_555 1_555
C6 H2 1_555 1_555
C7 C6 1_555 1_555
H3 C7 1_555 1_555
C8 C7 1_555 1_555
H4 C8 1_555 1_555
C9 C8 1_555 1_555
H5 C9 1_555 1_555
C10 N2 1_555 1_555
H6 C10 1_555 1_555
Cd1A O1F 1_555 1_555
I2F C2F 1_555 1_555
H1F N1 1_555 1_555
N2G Cd1 1_555 1_555
O1F C5F 1_555 1_555
O1G Cd1 1_555 1_555
O2F Cd1A 1_555 1_555
O2G Cd1 1_555 1_555
C2F C1 1_555 1_555
C3F C4 1_555 1_555
C5F O2F 1_555 1_555
C6G N2G 1_555 1_555
H2G C6G 1_555 1_555
C7G C6G 1_555 1_555
H3G C7G 1_555 1_555
C8G C7G 1_555 1_555
H4G C8G 1_555 1_555
C9G C8G 1_555 1_555
H5G C9G 1_555 1_555
C10G N2G 1_555 1_555
H6G C10G 1_555 1_555
O2 C5 1_555 1_555
C3 C5 1_555 1_555
C9 C10 1_555 1_555
C2F C3F 1_555 1_555
C3F C5F 1_555 1_555
C9G C10G 1_555 1_555

#END
