
#######################################################################
#
#                 Cambridge Crystallographic Data Centre
#                                CCDC 
#
#######################################################################
#
# If this CIF has been generated from an entry in the Cambridge 
# Structural Database, then it will include bibliographic, chemical, 
# crystal, experimental, refinement or atomic coordinate data resulting 
# from the CCDC's data processing and validation procedures.
#
#######################################################################

data_NAKTIE
_symmetry_cell_setting           monoclinic
_symmetry_space_group_name_H-M   'P 21/a'
_symmetry_Int_Tables_number      14
_space_group_name_Hall           '-P 2yab'
loop_
_symmetry_equiv_pos_site_id
_symmetry_equiv_pos_as_xyz
1 x,y,z
2 1/2-x,1/2+y,-z
3 -x,-y,-z
4 1/2+x,1/2-y,z
_cell_length_a                   6.6237(2)
_cell_length_b                   21.5007(6)
_cell_length_c                   14.5544(4)
_cell_angle_alpha                90
_cell_angle_beta                 97.539(3)
_cell_angle_gamma                90
_cell_volume                     2054.84
loop_
_atom_site_label
_atom_site_type_symbol
_atom_site_fract_x
_atom_site_fract_y
_atom_site_fract_z
Mn1 Mn 0.77366(3) 0.606687(7) 0.227328(16)
O1 O 0.80026(15) 0.61005(4) 0.35732(7)
O2 O 0.76671(14) 0.51776(3) 0.22257(7)
O3 O 0.71680(16) 0.69036(4) 0.65521(7)
O4 O 0.79190(16) 0.31182(4) 0.10149(7)
O5 O 0.44142(13) 0.62058(4) 0.21616(7)
O7 O 0.11057(14) 0.61395(4) 0.21865(8)
N1 N 0.79273(15) 0.69822(4) 0.21731(8)
N2 N 0.74229(17) 0.61290(4) 0.08940(8)
C1 C 0.76904(19) 0.65884(6) 0.41014(10)
C2 C 0.75241(19) 0.64810(5) 0.50357(10)
H2 H 0.7550 0.6067 0.5264
C3 C 0.73217(19) 0.69741(6) 0.56355(10)
C4 C 0.7072(3) 0.62795(6) 0.68929(10)
H3 H 0.5869 0.6070 0.6570
H4 H 0.6982 0.6289 0.7560
H5 H 0.8301 0.6053 0.6782
C5 C 0.72696(19) 0.75947(6) 0.53186(11)
H6 H 0.7143 0.7930 0.5732
C6 C 0.74048(19) 0.77021(6) 0.44040(11)
H7 H 0.7377 0.8119 0.4188
C7 C 0.75847(18) 0.72128(6) 0.37643(10)
C8 C 0.78234(19) 0.73750(5) 0.28384(9)
H8 H 0.7914 0.7805 0.2697
C9 C 0.8389(2) 0.71838(5) 0.12610(9)
H9 H 0.9868 0.7147 0.1229
H10 H 0.7985 0.7624 0.1152
C10 C 0.7205(2) 0.67696(5) 0.05339(9)
H11 H 0.5752 0.6892 0.0434
H12 H 0.7764 0.6803 -0.0062
C11 C 0.74324(19) 0.56693(5) 0.03192(10)
H13 H 0.7325 0.5767 -0.0322
C12 C 0.75926(19) 0.50231(5) 0.05733(10)
C13 C 0.7634(2) 0.45918(5) -0.01514(10)
H14 H 0.7566 0.4741 -0.0769
C14 C 0.7771(2) 0.39615(5) 0.00064(9)
H15 H 0.7825 0.3678 -0.0490
C15 C 0.78265(19) 0.37496(5) 0.09200(10)
C16 C 0.7857(2) 0.28654(6) 0.19224(11)
H16 H 0.9072 0.2998 0.2334
H17 H 0.7823 0.2410 0.1887
H18 H 0.6636 0.3016 0.2166
C17 C 0.77871(19) 0.41586(5) 0.16587(9)
H19 H 0.7830 0.4002 0.2271
C18 C 0.76836(19) 0.48048(5) 0.14978(9)
C19 C 0.2875(2) 0.59357(5) 0.23982(9)
C20 C 0.3177(2) 0.53384(6) 0.29512(12)
H20 H 0.3698 0.5015 0.2571
H21 H 0.1872 0.5205 0.3134
H22 H 0.4155 0.5410 0.3507
Mn1_2 Mn -0.22634(3) 0.606687(7) 0.227328(16)
O7_2 O 1.11057(14) 0.61395(4) 0.21865(8)
O6 O 0.8413(2) 0.44152(5) 0.38349(9)
H1 H 0.8159 0.4732 0.3501
C21 C 0.7768(3) 0.45186(7) 0.47111(13)
H23 H 0.8510 0.4239 0.5169
H24 H 0.6304 0.4437 0.4672
H25 H 0.8044 0.4951 0.4899
loop_
_geom_bond_atom_site_label_1
_geom_bond_atom_site_label_2
_geom_bond_site_symmetry_1
_geom_bond_site_symmetry_2
Mn1 O1 1_555 1_555
O1 C1 1_555 1_555
O2 Mn1 1_555 1_555
O3 C3 1_555 1_555
O4 C15 1_555 1_555
O5 Mn1 1_555 1_555
O6 H1 1_555 1_555
O7 C19 1_555 1_555
N1 Mn1 1_555 1_555
N2 Mn1 1_555 1_555
C1 C2 1_555 1_555
C2 H2 1_555 1_555
C3 C2 1_555 1_555
C4 O3 1_555 1_555
H3 C4 1_555 1_555
H4 C4 1_555 1_555
H5 C4 1_555 1_555
C5 C3 1_555 1_555
H6 C5 1_555 1_555
C6 C5 1_555 1_555
H7 C6 1_555 1_555
C7 C1 1_555 1_555
C8 N1 1_555 1_555
H8 C8 1_555 1_555
C9 N1 1_555 1_555
H9 C9 1_555 1_555
H10 C9 1_555 1_555
C10 N2 1_555 1_555
H11 C10 1_555 1_555
H12 C10 1_555 1_555
C11 N2 1_555 1_555
H13 C11 1_555 1_555
C12 C11 1_555 1_555
C13 C12 1_555 1_555
H14 C13 1_555 1_555
C14 C13 1_555 1_555
H15 C14 1_555 1_555
C15 C14 1_555 1_555
C16 O4 1_555 1_555
H16 C16 1_555 1_555
H17 C16 1_555 1_555
H18 C16 1_555 1_555
C17 C15 1_555 1_555
H19 C17 1_555 1_555
C18 O2 1_555 1_555
C19 O5 1_555 1_555
C20 C19 1_555 1_555
H20 C20 1_555 1_555
H21 C20 1_555 1_555
H22 C20 1_555 1_555
C21 O6 1_555 1_555
H23 C21 1_555 1_555
H24 C21 1_555 1_555
H25 C21 1_555 1_555
Mn1_2 O7 1_555 1_555
O7_2 Mn1 1_555 1_555
C6 C7 1_555 1_555
C7 C8 1_555 1_555
C9 C10 1_555 1_555
C12 C18 1_555 1_555
C17 C18 1_555 1_555

#END
