
#######################################################################
#
#                 Cambridge Crystallographic Data Centre
#                                CCDC 
#
#######################################################################
#
# If this CIF has been generated from an entry in the Cambridge 
# Structural Database, then it will include bibliographic, chemical, 
# crystal, experimental, refinement or atomic coordinate data resulting 
# from the CCDC's data processing and validation procedures.
#
#######################################################################

data_NAKXAA
_symmetry_cell_setting           triclinic
_symmetry_space_group_name_H-M   'P -1'
_symmetry_Int_Tables_number      2
_space_group_name_Hall           '-P 1'
loop_
_symmetry_equiv_pos_site_id
_symmetry_equiv_pos_as_xyz
1 x,y,z
2 -x,-y,-z
_cell_length_a                   6.4344(15)
_cell_length_b                   7.1490(18)
_cell_length_c                   13.539(3)
_cell_angle_alpha                89.250(4)
_cell_angle_beta                 81.348(4)
_cell_angle_gamma                72.620(3)
_cell_volume                     587.256
loop_
_atom_site_label
_atom_site_type_symbol
_atom_site_fract_x
_atom_site_fract_y
_atom_site_fract_z
C1 C 0.1236(5) 0.0898(4) 0.1819(2)
H1 H 0.0180 0.1181 0.1395
C2 C 0.4301(4) -0.0006(4) 0.23078(18)
H2 H 0.5802 -0.0473 0.2337
C3 C 0.2822(4) 0.0747(4) 0.41485(17)
H3 H 0.1835 0.0101 0.4519
H4 H 0.2282 0.2125 0.4350
C4 C 0.5070(4) -0.0100(4) 0.44352(17)
H5 H 0.6059 0.0584 0.4103
H6 H 0.5653 -0.1473 0.4224
N1 N 0.3416(3) 0.0186(3) 0.14818(15)
N2 N 0.0731(4) 0.1156(3) 0.27853(16)
N3 N 0.2730(4) 0.0566(3) 0.30894(15)
O1 O 0.6429(3) 0.2192(3) 0.04395(12)
H11 H 0.5383 0.3192 0.0681
H12 H 0.7103 0.2541 -0.0085
O2 O 0.2224(3) 0.2334(3) -0.02699(13)
H13 H 0.2093 0.2385 -0.0886
H14 H 0.2284 0.3433 -0.0065
Zn1 Zn 0.5000 0.0000 0.0000
C1A C 0.8764(5) -0.0898(4) 0.8181(2)
H1A H 0.9820 -0.1181 0.8605
C2A C 0.5699(4) 0.0006(4) 0.76922(18)
H2A H 0.4198 0.0473 0.7663
C3A C 0.7178(4) -0.0747(4) 0.58515(17)
H3A H 0.8165 -0.0101 0.5481
H4A H 0.7718 -0.2125 0.5650
C4A C 0.4930(4) 0.0100(4) 0.55648(17)
H5A H 0.3941 -0.0584 0.5897
H6A H 0.4347 0.1473 0.5776
N1A N 0.6584(3) -0.0186(3) 0.85182(15)
N1A_2 N 0.6584(3) -0.0186(3) -0.14818(15)
N2A N 0.9269(4) -0.1156(3) 0.72147(16)
N3A N 0.7270(4) -0.0566(3) 0.69106(15)
O1A O 0.3571(3) -0.2192(3) -0.04395(12)
H11A H 0.4617 -0.3192 -0.0681
H12A H 0.2897 -0.2541 0.0085
O2A O 0.7776(3) -0.2334(3) 0.02699(13)
H13A H 0.7907 -0.2385 0.0886
H14A H 0.7716 -0.3433 0.0065
Zn1_2 Zn 0.5000 0.0000 1.0000
C5 C 0.1402(5) 0.5973(4) 0.18630(19)
C6 C 0.2502(4) 0.5703(4) 0.27840(17)
C7 C 0.1272(4) 0.6255(4) 0.37179(19)
H7 H -0.0245 0.6825 0.3773
C8 C 0.2241(4) 0.5981(4) 0.45708(19)
H8 H 0.1358 0.6366 0.5187
C9 C 0.4489(4) 0.5149(3) 0.45388(17)
C10 C 0.5721(4) 0.4649(4) 0.35941(19)
H9 H 0.7243 0.4120 0.3534
C11 C 0.4747(5) 0.4915(4) 0.27460(19)
H10 H 0.5629 0.4552 0.2128
O3 O 0.2593(3) 0.5246(3) 0.10408(13)
O4 O -0.0583(3) 0.6896(3) 0.19568(13)
C5A C 0.8598(5) 0.4027(4) 0.81370(19)
C6A C 0.7498(4) 0.4297(4) 0.72160(17)
C7A C 0.8728(4) 0.3745(4) 0.62821(19)
H7A H 1.0245 0.3175 0.6227
C8A C 0.7759(4) 0.4019(4) 0.54292(19)
H8A H 0.8642 0.3634 0.4813
C9A C 0.5511(4) 0.4851(3) 0.54612(17)
C10A C 0.4279(4) 0.5351(4) 0.64059(19)
H9A H 0.2757 0.5880 0.6466
C11A C 0.5253(5) 0.5085(4) 0.72540(19)
H10A H 0.4371 0.5448 0.7872
O3A O 0.7407(3) 0.4754(3) 0.89592(13)
O4A O 1.0583(3) 0.3104(3) 0.80432(13)
loop_
_geom_bond_atom_site_label_1
_geom_bond_atom_site_label_2
_geom_bond_site_symmetry_1
_geom_bond_site_symmetry_2
C1 H1 1_555 1_555
C2 H2 1_555 1_555
C3 H3 1_555 1_555
H4 C3 1_555 1_555
C4 C3 1_555 1_555
H5 C4 1_555 1_555
H6 C4 1_555 1_555
C5 C6 1_555 1_555
C6 C7 1_555 1_555
C7 H7 1_555 1_555
C8 C7 1_555 1_555
H8 C8 1_555 1_555
C9 C8 1_555 1_555
C10 C9 1_555 1_555
H9 C10 1_555 1_555
C11 C6 1_555 1_555
H10 C11 1_555 1_555
N1 C1 1_555 1_555
N2 C1 1_555 1_555
N3 C2 1_555 1_555
O1 H11 1_555 1_555
H12 O1 1_555 1_555
O2 H13 1_555 1_555
H14 O2 1_555 1_555
O3 C5 1_555 1_555
O4 C5 1_555 1_555
Zn1 N1 1_555 1_555
C1A H1A 1_555 1_555
C2A H2A 1_555 1_555
C3A H3A 1_555 1_555
H4A C3A 1_555 1_555
C4A C4 1_555 1_555
H5A C4A 1_555 1_555
H6A C4A 1_555 1_555
C5A C6A 1_555 1_555
C6A C7A 1_555 1_555
C7A H7A 1_555 1_555
C8A C7A 1_555 1_555
H8A C8A 1_555 1_555
C9A C9 1_555 1_555
C10A C9A 1_555 1_555
H9A C10A 1_555 1_555
C11A C6A 1_555 1_555
H10A C11A 1_555 1_555
N1A C1A 1_555 1_555
N1A_2 Zn1 1_555 1_555
N2A C1A 1_555 1_555
N3A C2A 1_555 1_555
O1A Zn1 1_555 1_555
H11A O1A 1_555 1_555
H12A O1A 1_555 1_555
O2A Zn1 1_555 1_555
H13A O2A 1_555 1_555
H14A O2A 1_555 1_555
O3A C5A 1_555 1_555
O4A C5A 1_555 1_555
Zn1_2 N1A 1_555 1_555
C2 N1 1_555 1_555
C3 N3 1_555 1_555
C10 C11 1_555 1_555
N2 N3 1_555 1_555
O1 Zn1 1_555 1_555
O2 Zn1 1_555 1_555
C2A N1A 1_555 1_555
C3A C4A 1_555 1_555
C3A N3A 1_555 1_555
C8A C9A 1_555 1_555
C10A C11A 1_555 1_555
N2A N3A 1_555 1_555

#END
