
#######################################################################
#
#                 Cambridge Crystallographic Data Centre
#                                CCDC 
#
#######################################################################
#
# If this CIF has been generated from an entry in the Cambridge 
# Structural Database, then it will include bibliographic, chemical, 
# crystal, experimental, refinement or atomic coordinate data resulting 
# from the CCDC's data processing and validation procedures.
#
#######################################################################

data_NAKXEE
_symmetry_cell_setting           monoclinic
_symmetry_space_group_name_H-M   'P 2/c'
_symmetry_Int_Tables_number      13
_space_group_name_Hall           '-P 2yc'
loop_
_symmetry_equiv_pos_site_id
_symmetry_equiv_pos_as_xyz
1 x,y,z
2 -x,y,1/2-z
3 -x,-y,-z
4 x,-y,1/2+z
_cell_length_a                   13.293(3)
_cell_length_b                   5.2742(12)
_cell_length_c                   12.156(3)
_cell_angle_alpha                90
_cell_angle_beta                 116.145(2)
_cell_angle_gamma                90
_cell_volume                     765.055
loop_
_atom_site_label
_atom_site_type_symbol
_atom_site_fract_x
_atom_site_fract_y
_atom_site_fract_z
Cd1 Cd 0.0000 0.06452(2) 0.7500
S1 S 0.5000 1.11217(9) 1.2500
O1 O 0.14145(7) 0.34261(18) 0.81726(7)
O2 O 0.08657(7) 0.25919(19) 0.95927(7)
O3 O 0.45660(6) 1.24838(18) 1.32215(7)
O4 O 0.07556(8) -0.2236(2) 0.67828(7)
H1 H 0.0490 -0.2211 0.6006
H2 H 0.0724 -0.3725 0.7034
C1 C 0.14914(9) 0.3776(3) 0.92426(9)
C2 C 0.23354(12) 0.5638(2) 1.00469(11)
C3 C 0.32577(10) 0.6180(3) 0.98250(11)
H3 H 0.3327 0.5418 0.9172
C4 C 0.40667(9) 0.7851(3) 1.05787(10)
H4 H 0.4693 0.8180 1.0449
C5 C 0.39451(10) 0.9035(2) 1.15258(11)
C6 C 0.30158(9) 0.8548(3) 1.17385(10)
H5 H 0.2937 0.9353 1.2377
C7 C 0.22143(9) 0.6857(3) 1.09904(10)
H6 H 0.1588 0.6533 1.1121
Cd1_2 Cd 1.0000 0.06452(2) 1.7500
O1A O 0.85855(7) 0.34261(18) 1.68274(7)
O1A_2 O -0.14145(7) 0.34261(18) 0.68274(7)
O2A O 0.91343(7) 0.25919(19) 1.54073(7)
O2A_2 O -0.08657(7) 0.25919(19) 0.54073(7)
O3A O 0.54340(6) 1.24838(18) 1.17785(7)
O4A O -0.07556(8) -0.2236(2) 0.82172(7)
H1A H -0.0490 -0.2211 0.8994
H2A H -0.0724 -0.3725 0.7966
C1A C 0.85086(9) 0.3776(3) 1.57574(9)
C2A C 0.76646(12) 0.5638(2) 1.49531(11)
C3A C 0.67423(10) 0.6180(3) 1.51750(11)
H3A H 0.6673 0.5418 1.5828
C4A C 0.59333(9) 0.7851(3) 1.44213(10)
H4A H 0.5307 0.8180 1.4551
C5A C 0.60549(10) 0.9035(2) 1.34742(11)
C6A C 0.69842(9) 0.8548(3) 1.32615(10)
H5A H 0.7063 0.9353 1.2623
C7A C 0.77857(9) 0.6857(3) 1.40096(10)
H6A H 0.8412 0.6533 1.3879
loop_
_geom_bond_atom_site_label_1
_geom_bond_atom_site_label_2
_geom_bond_site_symmetry_1
_geom_bond_site_symmetry_2
Cd1 O1 1_555 1_555
S1 O3 1_555 1_555
O1 C1 1_555 1_555
O2 Cd1 1_555 1_555
O4 Cd1 1_555 1_555
H1 O4 1_555 1_555
H2 O4 1_555 1_555
C1 O2 1_555 1_555
C2 C1 1_555 1_555
C3 C2 1_555 1_555
H3 C3 1_555 1_555
C4 C3 1_555 1_555
H4 C4 1_555 1_555
C5 S1 1_555 1_555
C6 C5 1_555 1_555
H5 C6 1_555 1_555
C7 C2 1_555 1_555
H6 C7 1_555 1_555
Cd1_2 O1A 1_555 1_555
O1A C1A 1_555 1_555
O1A_2 Cd1 1_555 1_555
O2A Cd1_2 1_555 1_555
O2A_2 Cd1 1_555 1_555
O3A S1 1_555 1_555
O4A Cd1 1_555 1_555
H1A O4A 1_555 1_555
H2A O4A 1_555 1_555
C1A O2A 1_555 1_555
C2A C1A 1_555 1_555
C3A C2A 1_555 1_555
H3A C3A 1_555 1_555
C4A C3A 1_555 1_555
H4A C4A 1_555 1_555
C5A S1 1_555 1_555
C6A C5A 1_555 1_555
H5A C6A 1_555 1_555
C7A C2A 1_555 1_555
H6A C7A 1_555 1_555
C4 C5 1_555 1_555
C6 C7 1_555 1_555
C4A C5A 1_555 1_555
C6A C7A 1_555 1_555

#END
