
#######################################################################
#
#                 Cambridge Crystallographic Data Centre
#                                CCDC 
#
#######################################################################
#
# If this CIF has been generated from an entry in the Cambridge 
# Structural Database, then it will include bibliographic, chemical, 
# crystal, experimental, refinement or atomic coordinate data resulting 
# from the CCDC's data processing and validation procedures.
#
#######################################################################

data_NAKYUV
_symmetry_cell_setting           orthorhombic
_symmetry_space_group_name_H-M   'P b c n'
_symmetry_Int_Tables_number      60
_space_group_name_Hall           '-P 2n 2ab'
loop_
_symmetry_equiv_pos_site_id
_symmetry_equiv_pos_as_xyz
1 x,y,z
2 1/2-x,1/2-y,1/2+z
3 -x,y,1/2-z
4 1/2+x,1/2-y,-z
5 -x,-y,-z
6 1/2+x,1/2+y,1/2-z
7 x,-y,1/2+z
8 1/2-x,1/2+y,z
_cell_length_a                   8.9053(18)
_cell_length_b                   8.6395(17)
_cell_length_c                   12.527(3)
_cell_angle_alpha                90
_cell_angle_beta                 90
_cell_angle_gamma                90
_cell_volume                     963.794
loop_
_atom_site_label
_atom_site_type_symbol
_atom_site_fract_x
_atom_site_fract_y
_atom_site_fract_z
Na1 Na 0.91916(8) 0.06655(8) 0.62976(5)
O1 O 1.12521(17) 0.21959(14) 0.69249(10)
O2 O 1.30500(16) 0.37558(13) 0.75029(10)
C1 C 1.19167(19) 0.34236(18) 0.68752(12)
C2 C 1.15019(18) 0.46906(17) 0.61037(11)
H1 H 1.2386 0.4963 0.5692
H2 H 1.1207 0.5598 0.6508
C3 C 1.02287(16) 0.42768(14) 0.53277(10)
H3 H 0.9358 0.3927 0.5741
C4 C 1.07185(16) 0.29671(16) 0.45770(11)
O3 O 1.01257(15) 0.16760(12) 0.46431(9)
O4 O 1.17325(15) 0.33112(14) 0.39020(10)
H4 H 1.310(4) 0.308(3) 0.7989(19)
Na1D Na 1.08084(8) 0.93345(8) 0.37024(5)
Na1B Na 1.08084(8) 0.06655(8) 0.87024(5)
Na1E Na 1.41916(8) 0.56655(8) 0.87024(5)
Na1D_2 Na 1.08084(8) -0.06655(8) 0.37024(5)
Na1C Na 1.41916(8) 0.43345(8) 0.37024(5)
Na1F Na 0.91916(8) 0.93345(8) 0.12976(5)
Na1A Na 0.58084(8) 0.43345(8) 0.12976(5)
Na1_2 Na 0.91916(8) 1.06655(8) 0.62976(5)
Na1G Na 0.58084(8) 0.56655(8) 0.62976(5)
O1D O 0.87479(17) 0.78041(14) 0.30751(10)
O1B O 0.87479(17) 0.21959(14) 0.80751(10)
O1F O 1.12521(17) 0.78041(14) 0.19249(10)
O2D O 0.69500(16) 0.62442(13) 0.24971(10)
O2E O 0.80500(16) -0.12442(13) 0.74971(10)
O2A O 1.19500(16) 1.12442(13) 0.25029(10)
C1D C 0.80833(19) 0.65764(18) 0.31248(12)
C2D C 0.84981(18) 0.53094(17) 0.38963(11)
H1D H 0.7614 0.5037 0.4308
H2D H 0.8793 0.4402 0.3492
C3D C 0.97713(16) 0.57232(14) 0.46723(10)
H3D H 1.0642 0.6073 0.4259
C4D C 0.92815(16) 0.70329(16) 0.54230(11)
O3D O 0.98743(15) 0.83240(12) 0.53569(9)
O3D_2 O 0.98743(15) -0.16760(12) 0.53569(9)
O3_2 O 1.01257(15) 1.16760(12) 0.46431(9)
O4D O 0.82675(15) 0.66888(14) 0.60980(10)
O4C O 0.67325(15) 0.16888(14) 0.60980(10)
O4G O 1.32675(15) 0.83112(14) 0.39020(10)
H4D H 0.690(4) 0.692(3) 0.2011(19)
H4E H 0.810(4) -0.192(3) 0.7011(19)
H4A H 1.190(4) 1.192(3) 0.2989(19)
loop_
_geom_bond_atom_site_label_1
_geom_bond_atom_site_label_2
_geom_bond_site_symmetry_1
_geom_bond_site_symmetry_2
Na1 O1 1_555 1_555
O1 C1 1_555 1_555
O2 C1 1_555 1_555
C1 C2 1_555 1_555
C2 H1 1_555 1_555
H2 C2 1_555 1_555
C3 C2 1_555 1_555
H3 C3 1_555 1_555
C4 C3 1_555 1_555
O3 Na1 1_555 1_555
O4 C4 1_555 1_555
H4 O2 1_555 1_555
Na1D O1D 1_555 1_555
Na1B O1 1_555 1_555
Na1E O2 1_555 1_555
Na1D_2 O3 1_555 1_555
Na1C O4 1_555 1_555
Na1F O1D 1_555 1_555
Na1A O2D 1_555 1_555
Na1_2 O3D 1_555 1_555
Na1G O4D 1_555 1_555
O1D C1D 1_555 1_555
O1B Na1 1_555 1_555
O1F Na1D 1_555 1_555
O2D C1D 1_555 1_555
O2E Na1 1_555 1_555
O2A Na1D 1_555 1_555
C1D C2D 1_555 1_555
C2D H1D 1_555 1_555
H2D C2D 1_555 1_555
C3D C3 1_555 1_555
H3D C3D 1_555 1_555
C4D C3D 1_555 1_555
O3D Na1D 1_555 1_555
O3D_2 Na1 1_555 1_555
O3_2 Na1D 1_555 1_555
O4D C4D 1_555 1_555
O4C Na1 1_555 1_555
O4G Na1D 1_555 1_555
H4D O2D 1_555 1_555
H4E O2E 1_555 1_555
H4A O2A 1_555 1_555
C4 O3 1_555 1_555
Na1B O1B 1_555 1_555
Na1D_2 O3D_2 1_555 1_555
Na1F O1F 1_555 1_555
Na1_2 O3_2 1_555 1_555
C2D C3D 1_555 1_555
C4D O3D 1_555 1_555

#END
