
#######################################################################
#
#                 Cambridge Crystallographic Data Centre
#                                CCDC 
#
#######################################################################
#
# If this CIF has been generated from an entry in the Cambridge 
# Structural Database, then it will include bibliographic, chemical, 
# crystal, experimental, refinement or atomic coordinate data resulting 
# from the CCDC's data processing and validation procedures.
#
#######################################################################

data_NALBAF
_symmetry_cell_setting           triclinic
_symmetry_space_group_name_H-M   'P -1'
_symmetry_Int_Tables_number      2
_space_group_name_Hall           '-P 1'
loop_
_symmetry_equiv_pos_site_id
_symmetry_equiv_pos_as_xyz
1 x,y,z
2 -x,-y,-z
_cell_length_a                   6.8610(3)
_cell_length_b                   7.8943(3)
_cell_length_c                   13.9022(8)
_cell_angle_alpha                76.030(2)
_cell_angle_beta                 88.103(2)
_cell_angle_gamma                70.154(2)
_cell_volume                     686.327
loop_
_atom_site_label
_atom_site_type_symbol
_atom_site_fract_x
_atom_site_fract_y
_atom_site_fract_z
Pb1 Pb -0.42278(5) 0.23064(4) -0.04961(3)
O1 O -0.2658(13) 0.0825(10) 0.1159(6)
O2 O -0.3251(13) 0.3823(11) 0.0817(6)
O3 O -0.3305(17) 0.0912(11) -0.2133(6)
O4 O -0.2771(12) -0.0859(9) -0.0620(5)
N1 N -0.345(3) 0.555(2) 0.4054(11)
N2 N -0.0730(14) -0.7459(12) -0.0976(7)
C1 C -0.2859(15) 0.2286(15) 0.1435(8)
C2 C -0.2747(16) 0.2209(16) 0.2521(9)
C3 C -0.3049(19) 0.3817(19) 0.2811(9)
C4 C -0.304(2) 0.383(2) 0.3805(10)
C5 C -0.267(2) 0.212(3) 0.4500(10)
C6 C -0.232(3) 0.050(3) 0.4203(11)
C7 C -0.234(2) 0.056(2) 0.3199(10)
C8 C -0.2780(17) -0.0662(14) -0.1556(8)
C9 C -0.2204(14) -0.2349(13) -0.1927(8)
C10 C -0.1650(14) -0.4092(14) -0.1314(8)
C11 C -0.1251(15) -0.5654(13) -0.1674(7)
C12 C -0.1332(17) -0.5505(15) -0.2690(8)
C13 C -0.1887(19) -0.3757(16) -0.3344(8)
C14 C -0.2354(16) -0.2166(14) -0.2971(8)
H1 H -0.36890 0.65490 0.35920
H2 H -0.34500 0.55860 0.46660
H3 H -0.06730 -0.75440 -0.03490
H4 H -0.04780 -0.84430 -0.11910
H5 H -0.32630 0.49200 0.23310
H6 H -0.26730 0.20860 0.51740
H7 H -0.20610 -0.06200 0.46730
H8 H -0.20750 -0.05300 0.29910
H9 H -0.15390 -0.42310 -0.06320
H10 H -0.10170 -0.65640 -0.29310
H11 H -0.19500 -0.36400 -0.40250
H12 H -0.27600 -0.09940 -0.34050
Pb1A Pb -0.57722(5) 0.76936(4) 0.04961(3)
Pb1A_2 Pb -0.57722(5) -0.23064(4) 0.04961(3)
Pb1_2 Pb -0.42278(5) -0.76936(4) -0.04961(3)
O2A O -0.6749(13) 0.6177(11) -0.0817(6)
O4A O -0.7229(12) 0.0859(9) 0.0620(5)
N2_2 N -0.0730(14) 0.2541(12) -0.0976(7)
H3_2 H -0.06730 0.24560 -0.03490
H4_2 H -0.04780 0.15570 -0.11910
loop_
_geom_bond_atom_site_label_1
_geom_bond_atom_site_label_2
_geom_bond_site_symmetry_1
_geom_bond_site_symmetry_2
Pb1 O1 1_555 1_555
O1 C1 1_555 1_555
O2 Pb1 1_555 1_555
O3 Pb1 1_555 1_555
O4 Pb1 1_555 1_555
N1 C4 1_555 1_555
N2 C11 1_555 1_555
C1 O2 1_555 1_555
C2 C1 1_555 1_555
C3 C2 1_555 1_555
C4 C3 1_555 1_555
C5 C4 1_555 1_555
C6 C5 1_555 1_555
C7 C2 1_555 1_555
C8 O3 1_555 1_555
C9 C8 1_555 1_555
C10 C9 1_555 1_555
C11 C10 1_555 1_555
C12 C11 1_555 1_555
C13 C12 1_555 1_555
C14 C9 1_555 1_555
H1 N1 1_555 1_555
H2 N1 1_555 1_555
H3 N2 1_555 1_555
H4 N2 1_555 1_555
H5 C3 1_555 1_555
H6 C5 1_555 1_555
H7 C6 1_555 1_555
H8 C7 1_555 1_555
H9 C10 1_555 1_555
H10 C12 1_555 1_555
H11 C13 1_555 1_555
H12 C14 1_555 1_555
Pb1A O2 1_555 1_555
Pb1A_2 O4 1_555 1_555
Pb1_2 N2 1_555 1_555
O2A Pb1 1_555 1_555
O4A Pb1 1_555 1_555
N2_2 Pb1 1_555 1_555
H3_2 N2_2 1_555 1_555
H4_2 N2_2 1_555 1_555
O4 C8 1_555 1_555
C6 C7 1_555 1_555
C13 C14 1_555 1_555
Pb1A O2A 1_555 1_555
Pb1A_2 O4A 1_555 1_555

#END
