
#######################################################################
#
#                 Cambridge Crystallographic Data Centre
#                                CCDC 
#
#######################################################################
#
# If this CIF has been generated from an entry in the Cambridge 
# Structural Database, then it will include bibliographic, chemical, 
# crystal, experimental, refinement or atomic coordinate data resulting 
# from the CCDC's data processing and validation procedures.
#
#######################################################################

data_NALBOT
_symmetry_cell_setting           monoclinic
_symmetry_space_group_name_H-M   'P 2/n'
_symmetry_Int_Tables_number      13
_space_group_name_Hall           '-P 2yac'
loop_
_symmetry_equiv_pos_site_id
_symmetry_equiv_pos_as_xyz
1 x,y,z
2 1/2-x,y,1/2-z
3 -x,-y,-z
4 1/2+x,-y,1/2+z
_cell_length_a                   6.9987(2)
_cell_length_b                   9.9434(3)
_cell_length_c                   11.3809(3)
_cell_angle_alpha                90
_cell_angle_beta                 94.730(2)
_cell_angle_gamma                90
_cell_volume                     789.309
loop_
_atom_site_label
_atom_site_type_symbol
_atom_site_fract_x
_atom_site_fract_y
_atom_site_fract_z
Mg1 Mg 0.2500 0.72884(11) 0.7500
O1 O -0.0895(3) 0.97847(17) 0.64235(14)
O2 O 0.0658(2) 0.87721(15) 0.79595(13)
O3 O -0.1076(3) 1.47494(16) 0.61801(14)
O4 O 0.0357(2) 1.59288(15) 0.76552(13)
C1 C -0.0008(4) 0.9804(2) 0.74109(19)
C2 C 0.0340(3) 1.1145(2) 0.80116(18)
C3 C 0.1175(3) 1.1241(2) 0.91552(18)
H1 H 0.1514 1.0469 0.9585
C4 C 0.1497(3) 1.2498(2) 0.96473(18)
C5 C 0.1056(3) 1.3660(2) 0.90294(18)
H2 H 0.1308 1.4495 0.9376
C6 C 0.0226(3) 1.3570(2) 0.78786(18)
C7 C -0.0154(3) 1.2315(2) 0.73840(19)
H3 H -0.0746 1.2253 0.6624
C8 C -0.0199(3) 1.4837(2) 0.71758(18)
O5 O 0.1775(3) 0.72574(17) 0.56326(14)
H4 H 0.1547 0.6707 0.5072
H5 H 0.1906 0.8003 0.5266
N1 N 0.2340(3) 1.26019(18) 1.08656(15)
H6 H 0.3092 1.1894 1.1034
H7 H 0.1409 1.2622 1.1353
H8 H 0.3031 1.3352 1.0949
Mg1_2 Mg 0.2500 1.72884(11) 0.7500
O1A O 0.5895(3) 0.97847(17) 0.85765(14)
O2A O 0.4342(2) 0.87721(15) 0.70405(13)
O3A O 0.6076(3) 1.47494(16) 0.88199(14)
O4A O 0.4643(2) 1.59288(15) 0.73448(13)
O4_2 O 0.0357(2) 0.59288(15) 0.76552(13)
O4A_2 O 0.4643(2) 0.59288(15) 0.73448(13)
C1A C 0.5008(4) 0.9804(2) 0.75891(19)
C2A C 0.4660(3) 1.1145(2) 0.69884(18)
C3A C 0.3825(3) 1.1241(2) 0.58448(18)
H1A H 0.3486 1.0469 0.5415
C4A C 0.3503(3) 1.2498(2) 0.53527(18)
C5A C 0.3944(3) 1.3660(2) 0.59706(18)
H2A H 0.3692 1.4495 0.5624
C6A C 0.4774(3) 1.3570(2) 0.71214(18)
C7A C 0.5154(3) 1.2315(2) 0.76160(19)
H3A H 0.5746 1.2253 0.8376
C8A C 0.5199(3) 1.4837(2) 0.78242(18)
O5A O 0.3225(3) 0.72574(17) 0.93674(14)
H4A H 0.3453 0.6707 0.9928
H5A H 0.3094 0.8003 0.9734
N1A N 0.2660(3) 1.26019(18) 0.41344(15)
H6A H 0.1908 1.1894 0.3966
H7A H 0.3591 1.2622 0.3647
H8A H 0.1969 1.3352 0.4051
loop_
_geom_bond_atom_site_label_1
_geom_bond_atom_site_label_2
_geom_bond_site_symmetry_1
_geom_bond_site_symmetry_2
Mg1 O2 1_555 1_555
O1 C1 1_555 1_555
O2 C1 1_555 1_555
O3 C8 1_555 1_555
O4 C8 1_555 1_555
C1 C2 1_555 1_555
C2 C3 1_555 1_555
C3 H1 1_555 1_555
C4 C3 1_555 1_555
C5 C4 1_555 1_555
H2 C5 1_555 1_555
C6 C5 1_555 1_555
C7 C2 1_555 1_555
H3 C7 1_555 1_555
C8 C6 1_555 1_555
O5 Mg1 1_555 1_555
H4 O5 1_555 1_555
H5 O5 1_555 1_555
N1 C4 1_555 1_555
H6 N1 1_555 1_555
H7 N1 1_555 1_555
H8 N1 1_555 1_555
Mg1_2 O4 1_555 1_555
O1A C1A 1_555 1_555
O2A Mg1 1_555 1_555
O3A C8A 1_555 1_555
O4A Mg1_2 1_555 1_555
O4_2 Mg1 1_555 1_555
O4A_2 Mg1 1_555 1_555
C1A O2A 1_555 1_555
C2A C1A 1_555 1_555
C3A C2A 1_555 1_555
H1A C3A 1_555 1_555
C4A C3A 1_555 1_555
C5A C4A 1_555 1_555
H2A C5A 1_555 1_555
C6A C5A 1_555 1_555
C7A C2A 1_555 1_555
H3A C7A 1_555 1_555
C8A O4A 1_555 1_555
O5A Mg1 1_555 1_555
H4A O5A 1_555 1_555
H5A O5A 1_555 1_555
N1A C4A 1_555 1_555
H6A N1A 1_555 1_555
H7A N1A 1_555 1_555
H8A N1A 1_555 1_555
C6 C7 1_555 1_555
C6A C7A 1_555 1_555
C6A C8A 1_555 1_555

#END
