
#######################################################################
#
#                 Cambridge Crystallographic Data Centre
#                                CCDC 
#
#######################################################################
#
# If this CIF has been generated from an entry in the Cambridge 
# Structural Database, then it will include bibliographic, chemical, 
# crystal, experimental, refinement or atomic coordinate data resulting 
# from the CCDC's data processing and validation procedures.
#
#######################################################################

data_NALDIO
_symmetry_cell_setting           orthorhombic
_symmetry_space_group_name_H-M   'P b c m'
_symmetry_Int_Tables_number      57
_space_group_name_Hall           '-P 2c 2b'
loop_
_symmetry_equiv_pos_site_id
_symmetry_equiv_pos_as_xyz
1 x,y,z
2 -x,-y,1/2+z
3 x,1/2-y,-z
4 -x,1/2+y,1/2-z
5 -x,-y,-z
6 x,y,1/2-z
7 -x,1/2+y,z
8 x,1/2-y,1/2+z
_cell_length_a                   15.3120(4)
_cell_length_b                   18.9858(2)
_cell_length_c                   19.8374(4)
_cell_angle_alpha                90
_cell_angle_beta                 90
_cell_angle_gamma                90
_cell_volume                     5766.94
loop_
_atom_site_label
_atom_site_type_symbol
_atom_site_fract_x
_atom_site_fract_y
_atom_site_fract_z
Co1 Co 0.33724(6) 0.51796(4) 0.15916(4)
Co2 Co 0.33214(6) 0.32622(5) 0.16719(4)
S1 S 0.47293(11) 0.56430(8) 0.11156(8)
S2 S 0.46314(11) 0.27266(8) 0.11210(8)
S3 S 0.74002(16) 0.68528(13) 0.2500
S4 S 0.72736(12) 0.41095(10) -0.01463(9)
S5 S 0.73656(15) 0.15398(12) 0.2500
S6 S 0.19753(15) 0.43090(12) 0.2500
O1 O 0.4047(4) 0.5295(3) 0.2500
O2 O 0.8151(5) 0.6405(4) 0.2500
O3 O 0.7333(3) 0.7280(2) 0.3118(2)
O4 O 0.3937(3) 0.4204(2) 0.1385(2)
O5 O 0.7977(3) 0.4253(3) 0.0317(3)
O6 O 0.7213(3) 0.4684(2) -0.0649(2)
O7 O 0.7283(4) 0.3415(3) -0.0447(3)
O8 O 0.4059(4) 0.3098(3) 0.2500
O9 O 0.8102(4) 0.2008(4) 0.2500
O10 O 0.7327(3) 0.1111(2) 0.3117(2)
O11 O 0.1062(4) 0.4142(4) 0.2500
O12 O 0.2542(4) 0.3671(3) 0.2500
O13 O 0.2202(3) 0.4717(2) 0.1882(2)
N1 N 0.2425(4) 0.3360(3) 0.0876(3)
N2 N -0.0841(6) 0.4418(6) -0.1353(4)
H1 H -0.1269 0.4571 -0.1592
C1 C 0.4838(6) 0.5596(4) 0.2500
C2 C 0.5266(4) 0.5774(3) 0.1897(3)
C3 C 0.6049(4) 0.6134(3) 0.1900(3)
H2 H 0.6313 0.6252 0.1493
C4 C 0.6450(6) 0.6324(5) 0.2500
C5 C 0.4700(4) 0.4188(3) 0.1059(3)
C6 C 0.5159(4) 0.4803(3) 0.0881(3)
C7 C 0.5938(4) 0.4783(4) 0.0521(3)
H3 H 0.6223 0.5200 0.0411
C8 C 0.6291(4) 0.4142(4) 0.0327(3)
C9 C 0.5874(5) 0.3523(4) 0.0506(3)
H4 H 0.6112 0.3091 0.0383
C10 C 0.5098(4) 0.3547(3) 0.0872(3)
C11 C 0.4810(6) 0.2757(4) 0.2500
C12 C 0.5212(4) 0.2563(3) 0.1891(3)
C13 C 0.5999(4) 0.2215(3) 0.1890(3)
H5 H 0.6270 0.2099 0.1485
C14 C 0.6383(6) 0.2038(5) 0.2500
C15 C 0.1582(5) 0.3246(4) 0.0985(4)
H6 H 0.1416 0.3042 0.1391
C16 C 0.2643(6) 0.3638(5) 0.0282(4)
H7 H 0.3233 0.3708 0.0193
C17 C 0.0938(5) 0.3416(5) 0.0522(4)
H8 H 0.0356 0.3320 0.0618
C18 C 0.2050(6) 0.3827(5) -0.0205(4)
H9 H 0.2239 0.4018 -0.0611
C19 C 0.1165(5) 0.3729(4) -0.0084(4)
C20 C 0.0488(6) 0.3960(5) -0.0564(4)
C21 C -0.0219(6) 0.3521(6) -0.0715(5)
H10 H -0.0247 0.3068 -0.0538
C22 C 0.0497(8) 0.4619(6) -0.0828(6)
H11 H 0.0963 0.4920 -0.0741
C23 C -0.0874(6) 0.3768(7) -0.1129(5)
H12 H -0.1336 0.3476 -0.1249
C24 C -0.0195(9) 0.4844(7) -0.1231(6)
H13 H -0.0195 0.5296 -0.1412
Co1E Co 0.33724(6) 0.51796(4) 0.34084(4)
Co1D Co 0.66276(6) 0.48204(4) -0.15916(4)
Co1C Co 0.66276(6) 0.01796(4) 0.34084(4)
Co1F Co 0.66276(6) 0.01796(4) 0.15916(4)
Co1A Co 0.66276(6) 0.48204(4) 0.65916(4)
Co2E Co 0.33214(6) 0.32622(5) 0.33281(4)
Co2C Co 0.66786(6) 0.82622(5) 0.33281(4)
Co2F Co 0.66786(6) 0.82622(5) 0.16719(4)
S1E S 0.47293(11) 0.56430(8) 0.38844(8)
S2E S 0.46314(11) 0.27266(8) 0.38790(8)
S4E S 0.72736(12) 0.41095(10) 0.51463(9)
O3E O 0.7333(3) 0.7280(2) 0.1882(2)
O3C O 0.2667(3) 0.2280(2) 0.1882(2)
O3F O 0.2667(3) 0.2280(2) 0.3118(2)
O4E O 0.3937(3) 0.4204(2) 0.3615(2)
O5E O 0.7977(3) 0.4253(3) 0.4683(3)
O6E O 0.7213(3) 0.4684(2) 0.5649(2)
O6D O 0.2787(3) 0.5316(2) 0.0649(2)
O6A O 0.2787(3) 0.5316(2) 0.4351(2)
O7E O 0.7283(4) 0.3415(3) 0.5447(3)
O10E O 0.7327(3) 0.1111(2) 0.1883(2)
O10C O 0.2673(3) 0.6111(2) 0.1883(2)
O10F O 0.2673(3) 0.6111(2) 0.3117(2)
O13E O 0.2202(3) 0.4717(2) 0.3118(2)
N1E N 0.2425(4) 0.3360(3) 0.4124(3)
N2E N -0.0841(6) 0.4418(6) 0.6353(4)
H1E H -0.1269 0.4571 0.6592
C2E C 0.5266(4) 0.5774(3) 0.3103(3)
C3E C 0.6049(4) 0.6134(3) 0.3100(3)
H2E H 0.6313 0.6252 0.3507
C5E C 0.4700(4) 0.4188(3) 0.3941(3)
C6E C 0.5159(4) 0.4803(3) 0.4119(3)
C7E C 0.5938(4) 0.4783(4) 0.4479(3)
H3E H 0.6223 0.5200 0.4589
C8E C 0.6291(4) 0.4142(4) 0.4673(3)
C9E C 0.5874(5) 0.3523(4) 0.4494(3)
H4E H 0.6112 0.3091 0.4617
C10E C 0.5098(4) 0.3547(3) 0.4128(3)
C12E C 0.5212(4) 0.2563(3) 0.3109(3)
C13E C 0.5999(4) 0.2215(3) 0.3110(3)
H5E H 0.6270 0.2099 0.3515
C15E C 0.1582(5) 0.3246(4) 0.4015(4)
H6E H 0.1416 0.3042 0.3609
C16E C 0.2643(6) 0.3638(5) 0.4718(4)
H7E H 0.3233 0.3708 0.4807
C17E C 0.0938(5) 0.3416(5) 0.4478(4)
H8E H 0.0356 0.3320 0.4382
C18E C 0.2050(6) 0.3827(5) 0.5205(4)
H9E H 0.2239 0.4018 0.5611
C19E C 0.1165(5) 0.3729(4) 0.5084(4)
C20E C 0.0488(6) 0.3960(5) 0.5564(4)
C21E C -0.0219(6) 0.3521(6) 0.5715(5)
H10E H -0.0247 0.3068 0.5538
C22E C 0.0497(8) 0.4619(6) 0.5828(6)
H11E H 0.0963 0.4920 0.5741
C23E C -0.0874(6) 0.3768(7) 0.6129(5)
H12E H -0.1336 0.3476 0.6249
C24E C -0.0195(9) 0.4844(7) 0.6231(6)
H13E H -0.0195 0.5296 0.6412
O14 O 0.9925(15) 0.660(3) 0.2500
O15 O 0.7593(19) 0.4983(16) 0.1664(15)
O16 O 0.8597(13) 0.2797(11) 0.0659(15)
O17 O 0.637(2) 0.4144(16) 0.2500
loop_
_geom_bond_atom_site_label_1
_geom_bond_atom_site_label_2
_geom_bond_site_symmetry_1
_geom_bond_site_symmetry_2
Co1 S1 1_555 1_555
Co2 S2 1_555 1_555
S1 C2 1_555 1_555
S2 C10 1_555 1_555
S3 O2 1_555 1_555
S4 O5 1_555 1_555
S5 O9 1_555 1_555
S6 O11 1_555 1_555
O1 Co1 1_555 1_555
O3 S3 1_555 1_555
O4 Co1 1_555 1_555
O6 S4 1_555 1_555
O7 S4 1_555 1_555
O8 Co2 1_555 1_555
O10 S5 1_555 1_555
O12 Co2 1_555 1_555
O13 Co1 1_555 1_555
N1 Co2 1_555 1_555
N2 H1 1_555 1_555
C1 O1 1_555 1_555
C2 C1 1_555 1_555
C3 C2 1_555 1_555
H2 C3 1_555 1_555
C4 S3 1_555 1_555
C5 O4 1_555 1_555
C6 S1 1_555 1_555
C7 C6 1_555 1_555
H3 C7 1_555 1_555
C8 S4 1_555 1_555
C9 C8 1_555 1_555
H4 C9 1_555 1_555
C10 C5 1_555 1_555
C11 O8 1_555 1_555
C12 S2 1_555 1_555
C13 C12 1_555 1_555
H5 C13 1_555 1_555
C14 S5 1_555 1_555
C15 N1 1_555 1_555
H6 C15 1_555 1_555
C16 N1 1_555 1_555
H7 C16 1_555 1_555
C17 C15 1_555 1_555
H8 C17 1_555 1_555
C18 C16 1_555 1_555
H9 C18 1_555 1_555
C19 C17 1_555 1_555
C20 C19 1_555 1_555
C21 C20 1_555 1_555
H10 C21 1_555 1_555
C22 C20 1_555 1_555
H11 C22 1_555 1_555
C23 N2 1_555 1_555
H12 C23 1_555 1_555
C24 N2 1_555 1_555
H13 C24 1_555 1_555
Co1E O1 1_555 1_555
Co1D O6 1_555 1_555
Co1C O10 1_555 1_555
Co1F O10E 1_555 1_555
Co1A O6E 1_555 1_555
Co2E O8 1_555 1_555
Co2C O3 1_555 1_555
Co2F O3E 1_555 1_555
S1E Co1E 1_555 1_555
S2E Co2E 1_555 1_555
S4E O5E 1_555 1_555
O3E S3 1_555 1_555
O3C Co2 1_555 1_555
O3F Co2E 1_555 1_555
O4E Co1E 1_555 1_555
O6E S4E 1_555 1_555
O6D Co1 1_555 1_555
O6A Co1E 1_555 1_555
O7E S4E 1_555 1_555
O10E S5 1_555 1_555
O10C Co1 1_555 1_555
O10F Co1E 1_555 1_555
O13E S6 1_555 1_555
N1E Co2E 1_555 1_555
N2E H1E 1_555 1_555
C2E C1 1_555 1_555
C3E C4 1_555 1_555
H2E C3E 1_555 1_555
C5E O4E 1_555 1_555
C6E S1E 1_555 1_555
C7E C6E 1_555 1_555
H3E C7E 1_555 1_555
C8E S4E 1_555 1_555
C9E C8E 1_555 1_555
H4E C9E 1_555 1_555
C10E S2E 1_555 1_555
C12E C11 1_555 1_555
C13E C14 1_555 1_555
H5E C13E 1_555 1_555
C15E N1E 1_555 1_555
H6E C15E 1_555 1_555
C16E N1E 1_555 1_555
H7E C16E 1_555 1_555
C17E C15E 1_555 1_555
H8E C17E 1_555 1_555
C18E C16E 1_555 1_555
H9E C18E 1_555 1_555
C19E C17E 1_555 1_555
C20E C19E 1_555 1_555
C21E C20E 1_555 1_555
H10E C21E 1_555 1_555
C22E C20E 1_555 1_555
H11E C22E 1_555 1_555
C23E N2E 1_555 1_555
H12E C23E 1_555 1_555
C24E N2E 1_555 1_555
H13E C24E 1_555 1_555
Co2 O4 1_555 1_555
S6 O12 1_555 1_555
S6 O13 1_555 1_555
O12 Co2E 1_555 1_555
C3 C4 1_555 1_555
C5 C6 1_555 1_555
C7 C8 1_555 1_555
C9 C10 1_555 1_555
C11 C12 1_555 1_555
C13 C14 1_555 1_555
C18 C19 1_555 1_555
C21 C23 1_555 1_555
C22 C24 1_555 1_555
Co1E O13E 1_555 1_555
Co2E O4E 1_555 1_555
S1E C2E 1_555 1_555
S2E C12E 1_555 1_555
C2E C3E 1_555 1_555
C5E C6E 1_555 1_555
C5E C10E 1_555 1_555
C7E C8E 1_555 1_555
C9E C10E 1_555 1_555
C12E C13E 1_555 1_555
C18E C19E 1_555 1_555
C21E C23E 1_555 1_555
C22E C24E 1_555 1_555

#END
