
#######################################################################
#
#                 Cambridge Crystallographic Data Centre
#                                CCDC 
#
#######################################################################
#
# If this CIF has been generated from an entry in the Cambridge 
# Structural Database, then it will include bibliographic, chemical, 
# crystal, experimental, refinement or atomic coordinate data resulting 
# from the CCDC's data processing and validation procedures.
#
#######################################################################

data_NALDAG01
_symmetry_cell_setting           monoclinic
_symmetry_space_group_name_H-M   'P 21/c'
_symmetry_Int_Tables_number      14
_space_group_name_Hall           '-P 2ybc'
loop_
_symmetry_equiv_pos_site_id
_symmetry_equiv_pos_as_xyz
1 x,y,z
2 -x,1/2+y,1/2-z
3 -x,-y,-z
4 x,1/2-y,1/2+z
_cell_length_a                   14.004(3)
_cell_length_b                   11.216(2)
_cell_length_c                   12.831(3)
_cell_angle_alpha                90
_cell_angle_beta                 102.47(3)
_cell_angle_gamma                90
_cell_volume                     1967.81
loop_
_atom_site_label
_atom_site_type_symbol
_atom_site_fract_x
_atom_site_fract_y
_atom_site_fract_z
Eu1 Eu 0.729862(9) 0.204021(11) 0.351005(9)
O1 O 0.63212(19) 0.1552(2) 0.17578(18)
O2 O 0.87296(17) 0.3120(2) 0.43474(18)
O3 O 0.64700(16) 0.00786(18) 0.36316(17)
O4 O 0.51735(19) -0.1025(2) 0.3738(2)
O5 O 0.65856(15) 0.39911(17) 0.36727(16)
O6 O 0.53351(18) 0.5199(2) 0.3758(2)
O7 O 0.72552(15) 0.22137(17) 0.54506(15)
O8 O 0.78027(16) 0.17100(18) 0.71680(15)
O9 O 0.84202(16) 0.07363(18) 0.27991(15)
O10 O 0.91834(19) -0.10225(19) 0.28315(17)
H1 H 0.9172 -0.0851 0.2208
N1 N 0.55066(18) 0.2083(2) 0.36683(18)
N2 N 0.83083(16) 0.05466(19) 0.48068(17)
C1 C 0.5606(2) -0.0015(3) 0.3674(2)
C2 C 0.4993(2) 0.1076(3) 0.3656(2)
C3 C 0.4004(3) 0.1068(4) 0.3632(3)
H2 H 0.3663 0.0355 0.3616
C4 C 0.3536(3) 0.2149(4) 0.3634(4)
H3 H 0.2866 0.2174 0.3603
C5 C 0.4065(3) 0.3196(3) 0.3680(3)
H4 H 0.3764 0.3931 0.3707
C6 C 0.5053(2) 0.3126(3) 0.3688(2)
C7 C 0.5706(2) 0.4198(2) 0.3712(2)
C8 C 0.77314(19) 0.1567(2) 0.6188(2)
C9 C 0.82543(19) 0.0515(2) 0.5837(2)
C10 C 0.8612(2) -0.0435(2) 0.6503(2)
H5 H 0.8588 -0.0424 0.7222
C11 C 0.9004(2) -0.1396(3) 0.6067(2)
H6 H 0.9225 -0.2060 0.6484
C12 C 0.9066(2) -0.1366(2) 0.5005(2)
H7 H 0.9335 -0.2002 0.4702
C13 C 0.8721(2) -0.0368(2) 0.4402(2)
C14 C 0.8780(2) -0.0222(2) 0.3245(2)
H16 H 0.584(3) 0.108(3) 0.157(3)
H17 H 0.886(3) 0.301(3) 0.490(3)
H18 H 0.913(2) 0.357(3) 0.409(3)
H19 H 0.655(4) 0.177(4) 0.136(4)
Eu1C Eu 0.729862(9) 0.295979(11) 0.851005(9)
O8C O 0.78027(16) 0.32900(18) 0.21680(15)
O11 O 0.8024(3) 0.5924(3) 0.4124(3)
H8 H 0.8105 0.6571 0.4477
H9 H 0.7494 0.5960 0.3654
O12 O 0.6296(3) -0.2758(2) 0.3859(3)
H10 H 0.5702 -0.2944 0.3831
H11 H 0.6644 -0.2974 0.4456
O13 O 0.97096(19) -0.0582(2) 0.09796(18)
H12 H 0.9204 -0.0402 0.0509
H13 H 1.0111 -0.0003 0.1061
O14 O 0.95784(17) 0.30573(19) 0.64833(16)
H14 H 1.0116 0.2749 0.6805
H15 H 0.9568 0.3790 0.6650
loop_
_geom_bond_atom_site_label_1
_geom_bond_atom_site_label_2
_geom_bond_site_symmetry_1
_geom_bond_site_symmetry_2
Eu1 O1 1_555 1_555
O1 H16 1_555 1_555
O2 Eu1 1_555 1_555
O3 Eu1 1_555 1_555
O4 C1 1_555 1_555
O5 Eu1 1_555 1_555
O6 C7 1_555 1_555
O7 Eu1 1_555 1_555
O8 C8 1_555 1_555
O9 Eu1 1_555 1_555
O10 H1 1_555 1_555
N1 Eu1 1_555 1_555
N2 Eu1 1_555 1_555
C1 O3 1_555 1_555
C2 N1 1_555 1_555
C3 C2 1_555 1_555
H2 C3 1_555 1_555
C4 C3 1_555 1_555
H3 C4 1_555 1_555
C5 C4 1_555 1_555
H4 C5 1_555 1_555
C6 N1 1_555 1_555
C7 O5 1_555 1_555
C8 O7 1_555 1_555
C9 N2 1_555 1_555
C10 C9 1_555 1_555
H5 C10 1_555 1_555
C11 C10 1_555 1_555
H6 C11 1_555 1_555
C12 C11 1_555 1_555
H7 C12 1_555 1_555
C13 N2 1_555 1_555
C14 O9 1_555 1_555
O11 H8 1_555 1_555
H9 O11 1_555 1_555
O12 H10 1_555 1_555
H11 O12 1_555 1_555
O13 H12 1_555 1_555
H13 O13 1_555 1_555
O14 H14 1_555 1_555
H15 O14 1_555 1_555
H17 O2 1_555 1_555
H18 O2 1_555 1_555
H19 O1 1_555 1_555
Eu1C O8 1_555 1_555
O8C Eu1 1_555 1_555
O10 C14 1_555 1_555
C1 C2 1_555 1_555
C5 C6 1_555 1_555
C6 C7 1_555 1_555
C8 C9 1_555 1_555
C12 C13 1_555 1_555
C13 C14 1_555 1_555

#END
