
#######################################################################
#
#                 Cambridge Crystallographic Data Centre
#                                CCDC 
#
#######################################################################
#
# If this CIF has been generated from an entry in the Cambridge 
# Structural Database, then it will include bibliographic, chemical, 
# crystal, experimental, refinement or atomic coordinate data resulting 
# from the CCDC's data processing and validation procedures.
#
#######################################################################

data_NALDAG
_symmetry_cell_setting           monoclinic
_symmetry_space_group_name_H-M   'P 21/c'
_symmetry_Int_Tables_number      14
_space_group_name_Hall           '-P 2ybc'
loop_
_symmetry_equiv_pos_site_id
_symmetry_equiv_pos_as_xyz
1 x,y,z
2 -x,1/2+y,1/2-z
3 -x,-y,-z
4 x,1/2-y,1/2+z
_cell_length_a                   14.0020(10)
_cell_length_b                   11.2293(9)
_cell_length_c                   12.8450(11)
_cell_angle_alpha                90
_cell_angle_beta                 102.4920(10)
_cell_angle_gamma                90
_cell_volume                     1971.84
loop_
_atom_site_label
_atom_site_type_symbol
_atom_site_fract_x
_atom_site_fract_y
_atom_site_fract_z
Eu1 Eu 0.269950(10) 0.204260(10) 0.149200(10)
N1 N 0.16899(13) 0.05470(15) 0.01929(13)
C1 C 0.17452(14) 0.05174(18) -0.08323(16)
C2 C 0.13879(17) -0.0434(2) -0.14989(17)
C3 C 0.09911(18) -0.1388(2) -0.10628(19)
C4 C 0.09337(17) -0.1365(2) -0.00033(18)
C5 C 0.12787(15) -0.03667(18) 0.05989(16)
C6 C 0.22680(15) 0.15674(19) -0.11851(17)
C7 C 0.12204(16) -0.0217(2) 0.17541(17)
O1 O 0.27425(12) 0.22163(13) -0.04471(12)
O2 O 0.22006(12) 0.17090(14) -0.21642(12)
O3 O 0.15766(12) 0.07388(14) 0.21983(13)
O4 O 0.08210(14) -0.10222(15) 0.21732(14)
N2 N 0.44927(14) 0.20798(15) 0.13309(15)
C8 C 0.50073(17) 0.1074(2) 0.13453(18)
C9 C 0.6000(2) 0.1070(3) 0.1371(3)
C10 C 0.6467(2) 0.2153(3) 0.1369(3)
C11 C 0.5936(2) 0.3192(3) 0.1320(3)
C12 C 0.49471(17) 0.3119(2) 0.13132(19)
C13 C 0.43876(18) -0.0018(2) 0.13295(18)
C14 C 0.42952(17) 0.4193(2) 0.12908(18)
O5 O 0.35272(12) 0.00807(14) 0.13678(14)
O6 O 0.48294(16) -0.10132(17) 0.12632(18)
O7 O 0.34161(11) 0.39891(13) 0.13293(13)
O8 O 0.46653(13) 0.51964(15) 0.12461(16)
O9 O 0.36746(15) 0.1550(2) 0.32454(14)
O10 O 0.12667(13) 0.31186(17) 0.06513(16)
H1 H 0.144(2) -0.048(2) -0.221(2)
H2 H 0.087(3) -0.208(2) -0.147(3)
H3 H 0.065(2) -0.200(2) 0.034(2)
H4 H 0.631(2) 0.032(3) 0.142(3)
H5 H 0.713(3) 0.215(3) 0.144(3)
H6 H 0.621(2) 0.398(3) 0.137(2)
H7 H 0.449(3) -0.154(4) 0.127(4)
H8 H 0.411(2) 0.110(3) 0.341(2)
H9 H 0.349(3) 0.180(3) 0.371(3)
H10 H 0.118(2) 0.307(2) 0.007(2)
H11 H 0.086(2) 0.355(3) 0.086(2)
Eu1C Eu 0.269950(10) 0.295740(10) -0.350800(10)
O2C O 0.22006(12) 0.32910(14) 0.28358(12)
O11 O 0.02909(17) -0.0573(2) 0.40317(18)
H12 H 0.043(2) -0.068(3) 0.354(3)
H13 H 0.023(3) 0.025(4) 0.406(3)
O12 O 0.6280(3) 0.2246(2) 0.3867(3)
H14 H 0.606(4) 0.153(5) 0.382(4)
H15 H 0.679(4) 0.220(4) 0.398(4)
O13 O 0.1972(2) 0.5945(2) 0.0911(3)
H16 H 0.228(4) 0.532(5) 0.098(5)
H17 H 0.2181(15) 0.5947(18) 0.0188(17)
O14 O 0.04131(16) 0.19348(19) 0.35214(16)
H18 H 0.005(3) 0.245(4) 0.334(4)
H19 H 0.068(3) 0.176(3) 0.315(3)
loop_
_geom_bond_atom_site_label_1
_geom_bond_atom_site_label_2
_geom_bond_site_symmetry_1
_geom_bond_site_symmetry_2
Eu1 N1 1_555 1_555
N1 C1 1_555 1_555
C1 C2 1_555 1_555
C2 C3 1_555 1_555
C3 C4 1_555 1_555
C4 C5 1_555 1_555
C5 N1 1_555 1_555
C6 C1 1_555 1_555
C7 C5 1_555 1_555
O1 Eu1 1_555 1_555
O2 C6 1_555 1_555
O3 Eu1 1_555 1_555
O4 C7 1_555 1_555
N2 Eu1 1_555 1_555
C8 N2 1_555 1_555
C9 C8 1_555 1_555
C10 C9 1_555 1_555
C11 C10 1_555 1_555
C12 N2 1_555 1_555
C13 C8 1_555 1_555
C14 C12 1_555 1_555
O5 Eu1 1_555 1_555
O6 C13 1_555 1_555
O7 Eu1 1_555 1_555
O8 C14 1_555 1_555
O9 Eu1 1_555 1_555
O10 Eu1 1_555 1_555
O11 H12 1_555 1_555
O12 H14 1_555 1_555
O13 H16 1_555 1_555
O14 H18 1_555 1_555
H1 C2 1_555 1_555
H2 C3 1_555 1_555
H3 C4 1_555 1_555
H4 C9 1_555 1_555
H5 C10 1_555 1_555
H6 C11 1_555 1_555
H7 O6 1_555 1_555
H8 O9 1_555 1_555
H9 O9 1_555 1_555
H10 O10 1_555 1_555
H11 O10 1_555 1_555
H13 O11 1_555 1_555
H15 O12 1_555 1_555
H17 O13 1_555 1_555
H19 O14 1_555 1_555
Eu1C O2 1_555 1_555
O2C Eu1 1_555 1_555
C6 O1 1_555 1_555
C7 O3 1_555 1_555
C11 C12 1_555 1_555
C13 O5 1_555 1_555
C14 O7 1_555 1_555

#END
