
#######################################################################
#
#                 Cambridge Crystallographic Data Centre
#                                CCDC 
#
#######################################################################
#
# If this CIF has been generated from an entry in the Cambridge 
# Structural Database, then it will include bibliographic, chemical, 
# crystal, experimental, refinement or atomic coordinate data resulting 
# from the CCDC's data processing and validation procedures.
#
#######################################################################

data_NALFAJ
_symmetry_cell_setting           triclinic
_symmetry_space_group_name_H-M   'P -1'
_symmetry_Int_Tables_number      2
_space_group_name_Hall           '-P 1'
loop_
_symmetry_equiv_pos_site_id
_symmetry_equiv_pos_as_xyz
1 x,y,z
2 -x,-y,-z
_cell_length_a                   10.132(3)
_cell_length_b                   10.179(3)
_cell_length_c                   11.169(3)
_cell_angle_alpha                99.073(4)
_cell_angle_beta                 102.748(4)
_cell_angle_gamma                112.974(4)
_cell_volume                     995.532
loop_
_atom_site_label
_atom_site_type_symbol
_atom_site_fract_x
_atom_site_fract_y
_atom_site_fract_z
Zn1 Zn 0.72744(4) 0.03060(3) -0.12258(3)
O1 O 0.8199(2) -0.0226(2) -0.24812(18)
O2 O 0.9037(2) 0.2104(2) -0.2633(2)
O3 O 0.5956(2) -0.1577(2) -0.0977(2)
O4 O 0.8048(3) -0.1373(2) 0.0314(3)
N1 N 1.4278(3) 0.9046(3) 0.2066(2)
N2 N 0.8687(3) 0.1981(2) 0.0314(2)
N3 N 1.0855(3) 0.3509(3) 0.1741(2)
N4 N 1.5265(3) 0.7819(3) 0.3094(2)
C1 C 0.9907(4) 0.1328(4) -0.4772(3)
H1 H 0.9858 0.2230 -0.4625
C2 C 0.8876(3) 0.0814(3) -0.2957(3)
C3 C 0.9462(3) 0.0392(3) -0.4010(3)
C4 C 0.9965(3) 0.2102(3) 0.1035(3)
H2 H 1.0222 0.1322 0.1055
C5 C 0.6685(4) -0.2048(3) -0.0265(3)
C6 C 0.8774(4) 0.3382(3) 0.0577(3)
H3 H 0.8025 0.3636 0.0203
C7 C 1.2799(3) 0.5047(3) 0.3833(3)
C8 C 1.4214(3) 0.6254(3) 0.4431(3)
C9 C 0.5801(3) -0.3584(3) -0.0123(3)
C10 C 1.3428(5) 0.6714(4) 0.6276(3)
H4 H 1.3647 0.7271 0.7097
C11 C 1.1735(4) 0.4697(3) 0.4470(3)
H5 H 1.0795 0.3895 0.4065
C12 C 1.4055(3) 0.8071(3) 0.2730(3)
H6 H 1.3167 0.7610 0.2922
C13 C 1.5715(3) 0.9451(3) 0.2007(3)
H7 H 1.6191 1.0136 0.1596
C14 C 0.6533(4) -0.4224(3) 0.0621(3)
H8 H 0.7563 -0.3708 0.1043
C15 C 0.9565(4) -0.0932(3) -0.4253(3)
H9 H 0.9278 -0.1572 -0.3750
C16 C 0.4269(4) -0.4382(3) -0.0747(3)
H10 H 0.3775 -0.3967 -0.1252
C17 C 1.2432(3) 0.4081(4) 0.2513(3)
H11 H 1.2660 0.3252 0.2594
H12 H 1.3073 0.4652 0.2071
C18 C 1.0093(4) 0.4329(3) 0.1455(3)
H13 H 1.0422 0.5339 0.1795
C19 C 1.2048(4) 0.5524(4) 0.5688(3)
H14 H 1.1325 0.5272 0.6106
C20 C 1.4495(4) 0.7073(4) 0.5666(3)
H15 H 1.5423 0.7885 0.6075
C21 C 1.5417(3) 0.6751(4) 0.3803(3)
H16 H 1.6400 0.7211 0.4446
H17 H 1.5350 0.5896 0.3222
C22 C 1.6329(4) 0.8699(3) 0.2636(3)
H18 H 1.7290 0.8767 0.2735
Zn1A Zn 1.27256(4) -0.03060(3) -0.87742(3)
Zn1A_2 Zn 1.27256(4) 0.96940(3) 0.12258(3)
Zn1A_3 Zn 0.27256(4) -1.03060(3) 0.12258(3)
O1A O 1.1801(2) 0.0226(2) -0.75188(18)
O2A O 1.0963(2) -0.2104(2) -0.7367(2)
O3A O 0.4044(2) -0.8423(2) 0.0977(2)
O3A_2 O 1.4044(2) 0.1577(2) -0.9023(2)
O4A O 0.1952(3) -0.8627(2) -0.0314(3)
N1A N 0.5722(3) 0.0954(3) -0.2066(2)
N1_2 N 1.4278(3) -0.0954(3) -0.7934(2)
N2A N 1.1313(3) 0.8019(2) -0.0314(2)
N2A_2 N 1.1313(3) -0.1981(2) -1.0314(2)
N3A N 0.9145(3) 0.6491(3) -0.1741(2)
N4A N 0.4735(3) 0.2181(3) -0.3094(2)
C1A C 1.0093(4) -0.1328(4) -0.5228(3)
H1A H 1.0142 -0.2230 -0.5375
C2A C 1.1124(3) -0.0814(3) -0.7043(3)
C3A C 1.0538(3) -0.0392(3) -0.5990(3)
C4A C 1.0035(3) 0.7898(3) -0.1035(3)
H2A H 0.9778 0.8678 -0.1055
C5A C 0.3315(4) -0.7952(3) 0.0265(3)
C6A C 1.1226(4) 0.6618(3) -0.0577(3)
H3A H 1.1975 0.6364 -0.0203
C7A C 0.7201(3) 0.4953(3) -0.3833(3)
C8A C 0.5786(3) 0.3746(3) -0.4431(3)
C9A C 0.4199(3) -0.6416(3) 0.0123(3)
C10A C 0.6572(5) 0.3286(4) -0.6276(3)
H4A H 0.6353 0.2729 -0.7097
C11A C 0.8265(4) 0.5303(3) -0.4470(3)
H5A H 0.9205 0.6105 -0.4065
C12A C 0.5945(3) 0.1929(3) -0.2730(3)
H6A H 0.6833 0.2390 -0.2922
C13A C 0.4285(3) 0.0549(3) -0.2007(3)
H7A H 0.3809 -0.0136 -0.1596
C14A C 0.3467(4) -0.5776(3) -0.0621(3)
H8A H 0.2437 -0.6292 -0.1043
C15A C 1.0435(4) 0.0932(3) -0.5747(3)
H9A H 1.0722 0.1572 -0.6250
C16A C 0.5731(4) -0.5618(3) 0.0747(3)
H10A H 0.6225 -0.6033 0.1252
C17A C 0.7568(3) 0.5919(4) -0.2513(3)
H11A H 0.7340 0.6748 -0.2594
H12A H 0.6927 0.5348 -0.2071
C18A C 0.9907(4) 0.5671(3) -0.1455(3)
H13A H 0.9578 0.4661 -0.1795
C19A C 0.7952(4) 0.4476(4) -0.5688(3)
H14A H 0.8675 0.4728 -0.6106
C20A C 0.5505(4) 0.2927(4) -0.5666(3)
H15A H 0.4577 0.2115 -0.6075
C21A C 0.4583(3) 0.3249(4) -0.3803(3)
H16A H 0.3600 0.2789 -0.4446
H17A H 0.4650 0.4104 -0.3222
C22A C 0.3671(4) 0.1301(3) -0.2636(3)
H18A H 0.2710 0.1233 -0.2735
loop_
_geom_bond_atom_site_label_1
_geom_bond_atom_site_label_2
_geom_bond_site_symmetry_1
_geom_bond_site_symmetry_2
Zn1 O1 1_555 1_555
O1 C2 1_555 1_555
O2 C2 1_555 1_555
O3 Zn1 1_555 1_555
O4 C5 1_555 1_555
N1 C12 1_555 1_555
N2 Zn1 1_555 1_555
N3 C4 1_555 1_555
N4 C12 1_555 1_555
C1 H1 1_555 1_555
C2 C3 1_555 1_555
C3 C1 1_555 1_555
C4 N2 1_555 1_555
H2 C4 1_555 1_555
C5 O3 1_555 1_555
C6 N2 1_555 1_555
H3 C6 1_555 1_555
C7 C8 1_555 1_555
C8 C20 1_555 1_555
C9 C5 1_555 1_555
C10 H4 1_555 1_555
C11 C7 1_555 1_555
H5 C11 1_555 1_555
C12 H6 1_555 1_555
C13 N1 1_555 1_555
H7 C13 1_555 1_555
C14 C9 1_555 1_555
H8 C14 1_555 1_555
C15 C3 1_555 1_555
H9 C15 1_555 1_555
C16 C9 1_555 1_555
H10 C16 1_555 1_555
C17 N3 1_555 1_555
H11 C17 1_555 1_555
H12 C17 1_555 1_555
C18 N3 1_555 1_555
H13 C18 1_555 1_555
C19 C10 1_555 1_555
H14 C19 1_555 1_555
C20 C10 1_555 1_555
H15 C20 1_555 1_555
C21 N4 1_555 1_555
H16 C21 1_555 1_555
H17 C21 1_555 1_555
C22 N4 1_555 1_555
H18 C22 1_555 1_555
Zn1A O1A 1_555 1_555
Zn1A_2 N1 1_555 1_555
Zn1A_3 O3A 1_555 1_555
O1A C2A 1_555 1_555
O2A C2A 1_555 1_555
O3A C5A 1_555 1_555
O3A_2 Zn1A 1_555 1_555
O4A C5A 1_555 1_555
N1A Zn1 1_555 1_555
N1_2 Zn1A 1_555 1_555
N2A Zn1A_2 1_555 1_555
N2A_2 Zn1A 1_555 1_555
N3A C4A 1_555 1_555
N4A C12A 1_555 1_555
C1A C15 1_555 1_555
H1A C1A 1_555 1_555
C2A C3A 1_555 1_555
C3A C1A 1_555 1_555
C4A N2A 1_555 1_555
H2A C4A 1_555 1_555
C5A C9A 1_555 1_555
C6A N2A 1_555 1_555
H3A C6A 1_555 1_555
C7A C8A 1_555 1_555
C8A C20A 1_555 1_555
C9A C14A 1_555 1_555
C10A H4A 1_555 1_555
C11A C7A 1_555 1_555
H5A C11A 1_555 1_555
C12A N1A 1_555 1_555
H6A C12A 1_555 1_555
C13A N1A 1_555 1_555
H7A C13A 1_555 1_555
C14A C16 1_555 1_555
H8A C14A 1_555 1_555
C15A C1 1_555 1_555
H9A C15A 1_555 1_555
C16A C14 1_555 1_555
H10A C16A 1_555 1_555
C17A N3A 1_555 1_555
H11A C17A 1_555 1_555
H12A C17A 1_555 1_555
C18A N3A 1_555 1_555
H13A C18A 1_555 1_555
C19A C10A 1_555 1_555
H14A C19A 1_555 1_555
C20A C10A 1_555 1_555
H15A C20A 1_555 1_555
C21A N4A 1_555 1_555
H16A C21A 1_555 1_555
H17A C21A 1_555 1_555
C22A N4A 1_555 1_555
H18A C22A 1_555 1_555
C6 C18 1_555 1_555
C7 C17 1_555 1_555
C8 C21 1_555 1_555
C11 C19 1_555 1_555
C13 C22 1_555 1_555
C3A C15A 1_555 1_555
C6A C18A 1_555 1_555
C7A C17A 1_555 1_555
C8A C21A 1_555 1_555
C9A C16A 1_555 1_555
C11A C19A 1_555 1_555
C13A C22A 1_555 1_555

#END
