
#######################################################################
#
#                 Cambridge Crystallographic Data Centre
#                                CCDC 
#
#######################################################################
#
# If this CIF has been generated from an entry in the Cambridge 
# Structural Database, then it will include bibliographic, chemical, 
# crystal, experimental, refinement or atomic coordinate data resulting 
# from the CCDC's data processing and validation procedures.
#
#######################################################################

data_NALFEN
_symmetry_cell_setting           monoclinic
_symmetry_space_group_name_H-M   'C 2/c'
_symmetry_Int_Tables_number      15
_space_group_name_Hall           '-C 2yn'
loop_
_symmetry_equiv_pos_site_id
_symmetry_equiv_pos_as_xyz
1 x,y,z
2 1/2+x,1/2+y,z
3 -x,y,1/2-z
4 1/2-x,1/2+y,1/2-z
5 -x,-y,-z
6 1/2-x,1/2-y,-z
7 x,-y,1/2+z
8 1/2+x,1/2-y,1/2+z
_cell_length_a                   28.839(6)
_cell_length_b                   3.7309(7)
_cell_length_c                   17.846(4)
_cell_angle_alpha                90
_cell_angle_beta                 123.26(3)
_cell_angle_gamma                90
_cell_volume                     1605.61
loop_
_atom_site_label
_atom_site_type_symbol
_atom_site_fract_x
_atom_site_fract_y
_atom_site_fract_z
Cd1 Cd 0.0000 0.41717(11) 0.2500
Cl1 Cl 0.03110(4) 0.9258(3) 0.36946(6)
O1 O 0.25065(13) 0.8403(9) 0.4033(2)
N1 N 0.09451(14) 0.4438(9) 0.2882(2)
C1 C 0.12966(17) 0.4725(11) 0.3729(3)
H1 H 0.1180 0.4045 0.4102
N2 N 0.18220(15) 0.5931(11) 0.4126(3)
C2 C 0.20342(17) 0.7146(12) 0.3647(3)
C3 C 0.16615(17) 0.6802(11) 0.2686(3)
C4 C 0.18303(17) 0.7898(12) 0.2120(3)
H2 H 0.2179 0.8906 0.2359
C5 C 0.14774(18) 0.7473(13) 0.1212(3)
H3 H 0.1587 0.8181 0.0831
C6 C 0.09534(19) 0.5976(13) 0.0859(3)
H4 H 0.0718 0.5669 0.0243
C7 C 0.07797(18) 0.4957(10) 0.1400(3)
H5 H 0.0428 0.3983 0.1151
C8 C 0.11298(17) 0.5373(11) 0.2328(3)
H6 H 0.206(2) 0.609(13) 0.470(3)
Cd1_2 Cd 0.0000 1.41717(11) 0.2500
Cl1_2 Cl 0.03110(4) -0.0742(3) 0.36946(6)
Cl1B Cl -0.03110(4) -0.0742(3) 0.13054(6)
Cl1B_2 Cl -0.03110(4) 0.9258(3) 0.13054(6)
O1B O -0.25065(13) 0.8403(9) 0.0967(2)
N1B N -0.09451(14) 0.4438(9) 0.2118(2)
C1B C -0.12966(17) 0.4725(11) 0.1271(3)
H1B H -0.1180 0.4045 0.0898
N2B N -0.18220(15) 0.5931(11) 0.0874(3)
C2B C -0.20342(17) 0.7146(12) 0.1353(3)
C3B C -0.16615(17) 0.6802(11) 0.2314(3)
C4B C -0.18303(17) 0.7898(12) 0.2880(3)
H2B H -0.2179 0.8906 0.2641
C5B C -0.14774(18) 0.7473(13) 0.3788(3)
H3B H -0.1587 0.8181 0.4169
C6B C -0.09534(19) 0.5976(13) 0.4141(3)
H4B H -0.0718 0.5669 0.4757
C7B C -0.07797(18) 0.4957(10) 0.3600(3)
H5B H -0.0428 0.3983 0.3849
C8B C -0.11298(17) 0.5373(11) 0.2672(3)
H6B H -0.206(2) 0.609(13) 0.030(3)
loop_
_geom_bond_atom_site_label_1
_geom_bond_atom_site_label_2
_geom_bond_site_symmetry_1
_geom_bond_site_symmetry_2
Cd1 Cl1 1_555 1_555
Cl1 Cd1_2 1_555 1_555
O1 C2 1_555 1_555
N1 Cd1 1_555 1_555
C1 N1 1_555 1_555
H1 C1 1_555 1_555
N2 C1 1_555 1_555
C2 N2 1_555 1_555
C3 C2 1_555 1_555
C4 C3 1_555 1_555
H2 C4 1_555 1_555
C5 C4 1_555 1_555
H3 C5 1_555 1_555
C6 C5 1_555 1_555
H4 C6 1_555 1_555
C7 C6 1_555 1_555
H5 C7 1_555 1_555
C8 N1 1_555 1_555
H6 N2 1_555 1_555
Cd1_2 Cl1B_2 1_555 1_555
Cl1_2 Cd1 1_555 1_555
Cl1B Cd1 1_555 1_555
Cl1B_2 Cd1 1_555 1_555
O1B C2B 1_555 1_555
N1B Cd1 1_555 1_555
C1B N1B 1_555 1_555
H1B C1B 1_555 1_555
N2B C1B 1_555 1_555
C2B N2B 1_555 1_555
C3B C2B 1_555 1_555
C4B C3B 1_555 1_555
H2B C4B 1_555 1_555
C5B C4B 1_555 1_555
H3B C5B 1_555 1_555
C6B C5B 1_555 1_555
H4B C6B 1_555 1_555
C7B C6B 1_555 1_555
H5B C7B 1_555 1_555
C8B N1B 1_555 1_555
H6B N2B 1_555 1_555
C3 C8 1_555 1_555
C7 C8 1_555 1_555
C3B C8B 1_555 1_555
C7B C8B 1_555 1_555

#END
