
#######################################################################
#
#                 Cambridge Crystallographic Data Centre
#                                CCDC 
#
#######################################################################
#
# If this CIF has been generated from an entry in the Cambridge 
# Structural Database, then it will include bibliographic, chemical, 
# crystal, experimental, refinement or atomic coordinate data resulting 
# from the CCDC's data processing and validation procedures.
#
#######################################################################

data_NALHAJ
_symmetry_cell_setting           monoclinic
_symmetry_space_group_name_H-M   'P 21/n'
_symmetry_Int_Tables_number      14
_space_group_name_Hall           '-P 2yn'
loop_
_symmetry_equiv_pos_site_id
_symmetry_equiv_pos_as_xyz
1 x,y,z
2 1/2-x,1/2+y,1/2-z
3 -x,-y,-z
4 1/2+x,1/2-y,1/2+z
_cell_length_a                   6.4984(7)
_cell_length_b                   11.480(2)
_cell_length_c                   23.260(3)
_cell_angle_alpha                90
_cell_angle_beta                 90.597(9)
_cell_angle_gamma                90
_cell_volume                     1735.14
loop_
_atom_site_label
_atom_site_type_symbol
_atom_site_fract_x
_atom_site_fract_y
_atom_site_fract_z
Pr1 Pr 0.010271(14) 0.078874(7) 0.225730(4)
O1 O -0.1695(2) 0.07248(12) 0.13096(5)
O2 O -0.2528(2) 0.05489(14) 0.03921(6)
O3 O 0.2135(2) -0.04085(12) 0.15136(5)
O4 O 0.2064(3) -0.10922(12) 0.06323(6)
H1 H 0.2161(42) -0.0851(20) 0.0261(11)
O5 O 0.1872(2) 0.21566(10) 0.15302(5)
O6 O -0.3710(2) 0.10661(13) 0.23922(5)
O7 O 0.3197(2) 0.16461(12) 0.26645(6)
O8 O -0.0707(2) 0.28497(11) 0.24464(6)
O9 O -0.1557(2) -0.10376(11) 0.24269(6)
O10 O -0.0717(2) 0.09969(11) 0.33456(5)
O11 O 0.2343(3) -0.07177(12) 0.27563(7)
H2 H 0.3451(45) -0.0864(21) 0.2677(11)
H3 H 0.1780(42) -0.1257(21) 0.2793(11)
C1 C -0.1370(3) 0.0917(2) 0.07880(7)
C2 C 0.2261(3) -0.0238(2) 0.09947(7)
C3 C 0.2612(3) 0.09709(15) 0.07528(7)
H4 H 0.3436(3) 0.09351(15) 0.04029(7)
C4 C 0.0519(3) 0.16380(15) 0.06370(7)
H5 H 0.0436(3) 0.19072(15) 0.02376(7)
C5 C 0.0767(3) 0.2678(2) 0.10514(7)
H6 H -0.0543(3) 0.3035(2) 0.11599(7)
C6 C 0.2342(4) 0.3552(2) 0.08264(9)
H7 H 0.2305(4) 0.4276(2) 0.10414(9)
H8 H 0.2119(4) 0.3716(2) 0.04214(9)
C7 C 0.4384(4) 0.2894(2) 0.09292(9)
H9 H 0.5089(4) 0.2747(2) 0.05708(9)
H10 H 0.5293(4) 0.3321(2) 0.11870(9)
C8 C 0.3638(3) 0.1760(2) 0.12039(7)
H11 H 0.4688(3) 0.1365(2) 0.14382(7)
C9 C -0.4928(3) 0.14642(14) 0.27564(7)
C10 C -0.2154(3) 0.32348(14) 0.27492(8)
C11 C -0.2447(3) 0.27661(15) 0.33546(7)
H12 H -0.2883(3) 0.33916(15) 0.36128(7)
C12 C -0.4072(3) 0.17462(15) 0.33523(7)
H13 H -0.5190(3) 0.19141(15) 0.36194(7)
C13 C -0.2734(3) 0.0727(2) 0.35769(7)
H14 H -0.3253(3) -0.0044(2) 0.34670(7)
C14 C -0.2367(4) 0.0872(2) 0.42240(8)
H15 H -0.1776(4) 0.0175(2) 0.43933(8)
H16 H -0.3629(4) 0.1067(2) 0.44213(8)
C15 C -0.0823(4) 0.1899(2) 0.42378(8)
H17 H -0.1386(4) 0.2567(2) 0.44372(8)
H18 H 0.0467(4) 0.1674(2) 0.44201(8)
C16 C -0.0540(3) 0.2153(2) 0.35990(7)
H19 H 0.0755(3) 0.2549(2) 0.35114(7)
O7_2 O -0.6803(2) 0.16461(12) 0.26645(6)
Pr1_2 Pr -0.989729(14) 0.078874(7) 0.225730(4)
Pr1A Pr -0.510271(14) 0.578874(7) 0.274270(4)
O9A O -0.3443(2) 0.39624(11) 0.25731(6)
loop_
_geom_bond_atom_site_label_1
_geom_bond_atom_site_label_2
_geom_bond_site_symmetry_1
_geom_bond_site_symmetry_2
Pr1 O1 1_555 1_555
O1 C1 1_555 1_555
O2 C1 1_555 1_555
O3 Pr1 1_555 1_555
O4 H1 1_555 1_555
O5 Pr1 1_555 1_555
O6 Pr1 1_555 1_555
O7 Pr1 1_555 1_555
O8 Pr1 1_555 1_555
O9 Pr1 1_555 1_555
O10 Pr1 1_555 1_555
O11 Pr1 1_555 1_555
H2 O11 1_555 1_555
H3 O11 1_555 1_555
C1 C4 1_555 1_555
C2 O3 1_555 1_555
C3 C2 1_555 1_555
H4 C3 1_555 1_555
C4 C3 1_555 1_555
H5 C4 1_555 1_555
C5 O5 1_555 1_555
H6 C5 1_555 1_555
C6 C5 1_555 1_555
H7 C6 1_555 1_555
H8 C6 1_555 1_555
C7 C6 1_555 1_555
H9 C7 1_555 1_555
H10 C7 1_555 1_555
C8 O5 1_555 1_555
H11 C8 1_555 1_555
C9 O6 1_555 1_555
C10 O8 1_555 1_555
C11 C10 1_555 1_555
H12 C11 1_555 1_555
C12 C9 1_555 1_555
H13 C12 1_555 1_555
C13 O10 1_555 1_555
H14 C13 1_555 1_555
C14 C13 1_555 1_555
H15 C14 1_555 1_555
H16 C14 1_555 1_555
C15 C14 1_555 1_555
H17 C15 1_555 1_555
H18 C15 1_555 1_555
C16 O10 1_555 1_555
H19 C16 1_555 1_555
O7_2 C9 1_555 1_555
Pr1_2 O7_2 1_555 1_555
Pr1A O9A 1_555 1_555
O9A C10 1_555 1_555
O4 C2 1_555 1_555
C3 C8 1_555 1_555
C4 C5 1_555 1_555
C7 C8 1_555 1_555
C11 C12 1_555 1_555
C11 C16 1_555 1_555
C12 C13 1_555 1_555
C15 C16 1_555 1_555

#END
