
#######################################################################
#
#                 Cambridge Crystallographic Data Centre
#                                CCDC 
#
#######################################################################
#
# If this CIF has been generated from an entry in the Cambridge 
# Structural Database, then it will include bibliographic, chemical, 
# crystal, experimental, refinement or atomic coordinate data resulting 
# from the CCDC's data processing and validation procedures.
#
#######################################################################

data_NALHEN
_symmetry_cell_setting           monoclinic
_symmetry_space_group_name_H-M   'P 21/n'
_symmetry_Int_Tables_number      14
_space_group_name_Hall           '-P 2yn'
loop_
_symmetry_equiv_pos_site_id
_symmetry_equiv_pos_as_xyz
1 x,y,z
2 1/2-x,1/2+y,1/2-z
3 -x,-y,-z
4 1/2+x,1/2-y,1/2+z
_cell_length_a                   6.4800(7)
_cell_length_b                   11.446(2)
_cell_length_c                   23.186(3)
_cell_angle_alpha                90
_cell_angle_beta                 90.403(9)
_cell_angle_gamma                90
_cell_volume                     1719.66
loop_
_atom_site_label
_atom_site_type_symbol
_atom_site_fract_x
_atom_site_fract_y
_atom_site_fract_z
Nd1 Nd 0.00939(2) 0.080114(14) 0.225658(6)
O1 O -0.1709(4) 0.0735(3) 0.13156(10)
O2 O -0.2550(4) 0.0548(3) 0.03966(11)
O3 O 0.2119(4) -0.0399(2) 0.15157(11)
O4 O 0.2072(5) -0.1091(2) 0.06362(12)
H1 H 0.2238(74) -0.0892(42) 0.0257(22)
O5 O 0.1860(4) 0.2167(2) 0.15333(9)
O6 O -0.3723(4) 0.1076(3) 0.23883(10)
O7 O 0.3179(4) 0.1652(2) 0.26642(11)
O8 O -0.0722(4) 0.2856(2) 0.24389(11)
O9 O -0.1566(4) -0.1015(2) 0.24286(12)
O10 O -0.0709(3) 0.1004(2) 0.33419(10)
O11 O 0.2328(5) -0.0702(2) 0.27553(13)
H2 H 0.3582(75) -0.0856(41) 0.2612(20)
H3 H 0.2030(78) -0.1273(44) 0.2759(22)
C1 C -0.1391(5) 0.0925(3) 0.07927(13)
C2 C 0.2264(5) -0.0230(3) 0.09950(14)
C3 C 0.2601(5) 0.0986(3) 0.07533(14)
H4 H 0.3429(5) 0.0952(3) 0.04016(14)
C4 C 0.0501(5) 0.1650(3) 0.06374(13)
H5 H 0.0417(5) 0.1919(3) 0.02366(13)
C5 C 0.0752(5) 0.2692(3) 0.10526(14)
H6 H -0.0562(5) 0.3049(3) 0.11631(14)
C6 C 0.2321(7) 0.3571(4) 0.0828(2)
H7 H 0.2276(7) 0.4297(4) 0.1043(2)
H8 H 0.2101(7) 0.3735(4) 0.0421(2)
C7 C 0.4362(6) 0.2917(4) 0.0931(2)
H9 H 0.5076(6) 0.2774(4) 0.0571(2)
H10 H 0.5265(6) 0.3347(4) 0.1190(2)
C8 C 0.3630(5) 0.1775(3) 0.12046(14)
H11 H 0.4688(5) 0.1381(3) 0.14378(14)
C9 C -0.4933(5) 0.1473(3) 0.27559(14)
C10 C -0.2155(5) 0.3247(3) 0.27459(15)
C11 C -0.2456(5) 0.2772(3) 0.33548(14)
H12 H -0.2894(5) 0.3398(3) 0.36153(14)
C12 C -0.4074(5) 0.1748(3) 0.33547(14)
H13 H -0.5195(5) 0.1913(3) 0.36240(14)
C13 C -0.2747(5) 0.0735(3) 0.35743(13)
H14 H -0.3269(5) -0.0037(3) 0.34633(13)
C14 C -0.2361(6) 0.0872(4) 0.42225(15)
H15 H -0.1764(6) 0.0169(4) 0.43877(15)
H16 H -0.3622(6) 0.1062(4) 0.44248(15)
C15 C -0.0816(7) 0.1898(4) 0.4238(2)
H17 H -0.1383(7) 0.2567(4) 0.4440(2)
H18 H 0.0475(7) 0.1672(4) 0.4421(2)
C16 C -0.0526(5) 0.2158(3) 0.35956(14)
H19 H 0.0771(5) 0.2557(3) 0.35064(14)
O7_2 O -0.6821(4) 0.1652(2) 0.26642(11)
Nd1_2 Nd -0.99061(2) 0.080114(14) 0.225658(6)
Nd1A Nd -0.50939(2) 0.580114(14) 0.274342(6)
O9A O -0.3434(4) 0.3985(2) 0.25714(12)
loop_
_geom_bond_atom_site_label_1
_geom_bond_atom_site_label_2
_geom_bond_site_symmetry_1
_geom_bond_site_symmetry_2
Nd1 O1 1_555 1_555
O1 C1 1_555 1_555
O2 C1 1_555 1_555
O3 Nd1 1_555 1_555
O4 H1 1_555 1_555
O5 Nd1 1_555 1_555
O6 Nd1 1_555 1_555
O7 Nd1 1_555 1_555
O8 Nd1 1_555 1_555
O9 Nd1 1_555 1_555
O10 Nd1 1_555 1_555
O11 Nd1 1_555 1_555
H2 O11 1_555 1_555
H3 O11 1_555 1_555
C1 C4 1_555 1_555
C2 O3 1_555 1_555
C3 C2 1_555 1_555
H4 C3 1_555 1_555
C4 C3 1_555 1_555
H5 C4 1_555 1_555
C5 O5 1_555 1_555
H6 C5 1_555 1_555
C6 C5 1_555 1_555
H7 C6 1_555 1_555
H8 C6 1_555 1_555
C7 C6 1_555 1_555
H9 C7 1_555 1_555
H10 C7 1_555 1_555
C8 O5 1_555 1_555
H11 C8 1_555 1_555
C9 O6 1_555 1_555
C10 O8 1_555 1_555
C11 C10 1_555 1_555
H12 C11 1_555 1_555
C12 C9 1_555 1_555
H13 C12 1_555 1_555
C13 O10 1_555 1_555
H14 C13 1_555 1_555
C14 C13 1_555 1_555
H15 C14 1_555 1_555
H16 C14 1_555 1_555
C15 C14 1_555 1_555
H17 C15 1_555 1_555
H18 C15 1_555 1_555
C16 O10 1_555 1_555
H19 C16 1_555 1_555
O7_2 C9 1_555 1_555
Nd1_2 O7_2 1_555 1_555
Nd1A O9A 1_555 1_555
O9A C10 1_555 1_555
O4 C2 1_555 1_555
C3 C8 1_555 1_555
C4 C5 1_555 1_555
C7 C8 1_555 1_555
C11 C12 1_555 1_555
C11 C16 1_555 1_555
C12 C13 1_555 1_555
C15 C16 1_555 1_555

#END
