
#######################################################################
#
#                 Cambridge Crystallographic Data Centre
#                                CCDC 
#
#######################################################################
#
# If this CIF has been generated from an entry in the Cambridge 
# Structural Database, then it will include bibliographic, chemical, 
# crystal, experimental, refinement or atomic coordinate data resulting 
# from the CCDC's data processing and validation procedures.
#
#######################################################################

data_NALKES
_symmetry_cell_setting           monoclinic
_symmetry_space_group_name_H-M   'P 21/c'
_symmetry_Int_Tables_number      14
_space_group_name_Hall           '-P 2ybc'
loop_
_symmetry_equiv_pos_site_id
_symmetry_equiv_pos_as_xyz
1 x,y,z
2 -x,1/2+y,1/2-z
3 -x,-y,-z
4 x,1/2-y,1/2+z
_cell_length_a                   12.344(3)
_cell_length_b                   11.675(2)
_cell_length_c                   18.521(4)
_cell_angle_alpha                90
_cell_angle_beta                 101.41(3)
_cell_angle_gamma                90
_cell_volume                     2616.42
loop_
_atom_site_label
_atom_site_type_symbol
_atom_site_fract_x
_atom_site_fract_y
_atom_site_fract_z
I1 I -0.01591(2) -0.05190(2) 0.113971(13)
Cu1 Cu 0.11635(4) 0.00036(4) 0.02284(2)
P1 P 0.23134(8) 0.14551(8) 0.06241(5)
N1 N 0.1998(2) -0.1497(2) 0.01109(16)
N2 N 0.4794(3) -0.4221(3) -0.05567(17)
N3 N 0.4453(3) -0.4974(3) 0.05724(16)
C1 C 0.4276(3) -0.4218(3) 0.0010(2)
C2 C 0.3435(3) 0.1093(3) 0.13879(19)
C3 C 0.3008(3) -0.3135(3) 0.0653(2)
H1 H 0.3187 -0.3623 0.1055
C4 C 0.0102(5) 0.3983(5) 0.0741(4)
H2 H -0.0614 0.4153 0.0498
C5 C 0.0648(6) 0.4706(5) 0.1276(4)
H3 H 0.0300 0.5367 0.1394
C6 C 0.1706(5) 0.4459(4) 0.1637(4)
H4 H 0.2070 0.4945 0.2004
C7 C 0.3460(3) -0.3303(3) 0.00372(19)
C8 C 0.2290(3) -0.2235(3) 0.0664(2)
H5 H 0.1990 -0.2137 0.1083
C9 C 0.3772(4) 0.1219(4) -0.0334(2)
H6 H 0.3975 0.0542 -0.0078
C10 C 0.3016(3) 0.1947(3) -0.01016(19)
C11 C 0.3140(3) -0.2564(3) -0.0553(2)
H7 H 0.3409 -0.2660 -0.0984
C12 C 0.1689(3) 0.2757(3) 0.0911(2)
C13 C 0.5102(4) 0.0355(4) 0.2532(2)
H8 H 0.5662 0.0099 0.2910
C14 C 0.2420(3) -0.1687(3) -0.0490(2)
H9 H 0.2214 -0.1197 -0.0890
C15 C 0.5309(4) 0.1236(4) 0.2086(2)
H10 H 0.5998 0.1587 0.2166
C16 C 0.4468(3) 0.1597(4) 0.1513(2)
H11 H 0.4606 0.2190 0.1208
C17 C 0.3247(4) 0.0209(3) 0.1853(2)
H12 H 0.2557 -0.0141 0.1779
C18 C 0.0620(4) 0.2999(4) 0.0565(3)
H13 H 0.0245 0.2500 0.0210
C19 C 0.3177(5) 0.3187(5) -0.1108(3)
H14 H 0.2973 0.3857 -0.1371
C20 C 0.4076(4) -0.0155(4) 0.2426(2)
H15 H 0.3940 -0.0740 0.2737
C21 C 0.3914(5) 0.2462(6) -0.1326(3)
H16 H 0.4206 0.2632 -0.1740
C22 C 0.2727(4) 0.2936(4) -0.0497(2)
H17 H 0.2226 0.3440 -0.0353
C23 C 0.2222(4) 0.3491(4) 0.1454(3)
H18 H 0.2939 0.3326 0.1697
C24 C 0.4224(4) 0.1483(5) -0.0934(3)
H19 H 0.4741 0.0994 -0.1075
I1B I 0.01591(2) 0.05190(2) -0.113971(13)
Cu1B Cu -0.11635(4) -0.00036(4) -0.02284(2)
Cu1B_2 Cu 0.88365(4) -1.00036(4) -0.02284(2)
P1B P -0.23134(8) -0.14551(8) -0.06241(5)
N1B N 0.8002(2) -0.8503(2) -0.01109(16)
N1B_2 N -0.1998(2) 0.1497(2) -0.01109(16)
N2B N 0.5206(3) -0.5779(3) 0.05567(17)
N3B N 0.5547(3) -0.5026(3) -0.05724(16)
C1B C 0.5724(3) -0.5782(3) -0.0010(2)
C2B C -0.3435(3) -0.1093(3) -0.13879(19)
C3B C 0.6992(3) -0.6865(3) -0.0653(2)
H1B H 0.6813 -0.6377 -0.1055
C4B C -0.0102(5) -0.3983(5) -0.0741(4)
H2B H 0.0614 -0.4153 -0.0498
C5B C -0.0648(6) -0.4706(5) -0.1276(4)
H3B H -0.0300 -0.5367 -0.1394
C6B C -0.1706(5) -0.4459(4) -0.1637(4)
H4B H -0.2070 -0.4945 -0.2004
C7B C 0.6540(3) -0.6697(3) -0.00372(19)
C8B C 0.7710(3) -0.7765(3) -0.0664(2)
H5B H 0.8010 -0.7863 -0.1083
C9B C -0.3772(4) -0.1219(4) 0.0334(2)
H6B H -0.3975 -0.0542 0.0078
C10B C -0.3016(3) -0.1947(3) 0.01016(19)
C11B C 0.6860(3) -0.7436(3) 0.0553(2)
H7B H 0.6591 -0.7340 0.0984
C12B C -0.1689(3) -0.2757(3) -0.0911(2)
C13B C -0.5102(4) -0.0355(4) -0.2532(2)
H8B H -0.5662 -0.0099 -0.2910
C14B C 0.7580(3) -0.8313(3) 0.0490(2)
H9B H 0.7786 -0.8803 0.0890
C15B C -0.5309(4) -0.1236(4) -0.2086(2)
H10B H -0.5998 -0.1587 -0.2166
C16B C -0.4468(3) -0.1597(4) -0.1513(2)
H11B H -0.4606 -0.2190 -0.1208
C17B C -0.3247(4) -0.0209(3) -0.1853(2)
H12B H -0.2557 0.0141 -0.1779
C18B C -0.0620(4) -0.2999(4) -0.0565(3)
H13B H -0.0245 -0.2500 -0.0210
C19B C -0.3177(5) -0.3187(5) 0.1108(3)
H14B H -0.2973 -0.3857 0.1371
C20B C -0.4076(4) 0.0155(4) -0.2426(2)
H15B H -0.3940 0.0740 -0.2737
C21B C -0.3914(5) -0.2462(6) 0.1326(3)
H16B H -0.4206 -0.2632 0.1740
C22B C -0.2727(4) -0.2936(4) 0.0497(2)
H17B H -0.2226 -0.3440 0.0353
C23B C -0.2222(4) -0.3491(4) -0.1454(3)
H18B H -0.2939 -0.3326 -0.1697
C24B C -0.4224(4) -0.1483(5) 0.0934(3)
H19B H -0.4741 -0.0994 0.1075
N4 N 0.1913(5) 0.7319(6) 0.2563(3)
C25 C -0.0159(6) 0.7161(6) 0.2552(3)
H20 H -0.0565 0.7385 0.2076
H21 H -0.0362 0.7646 0.2922
H22 H -0.0329 0.6380 0.2647
C26 C 0.1023(7) 0.7271(6) 0.2569(3)
loop_
_geom_bond_atom_site_label_1
_geom_bond_atom_site_label_2
_geom_bond_site_symmetry_1
_geom_bond_site_symmetry_2
I1 Cu1 1_555 1_555
Cu1 P1 1_555 1_555
P1 C2 1_555 1_555
N1 Cu1 1_555 1_555
N2 C1 1_555 1_555
N3 C1 1_555 1_555
N4 C26 1_555 1_555
C1 C7 1_555 1_555
C2 C16 1_555 1_555
C3 H1 1_555 1_555
C4 H2 1_555 1_555
C5 C4 1_555 1_555
H3 C5 1_555 1_555
C6 C5 1_555 1_555
H4 C6 1_555 1_555
C7 C3 1_555 1_555
C8 N1 1_555 1_555
H5 C8 1_555 1_555
C9 H6 1_555 1_555
C10 P1 1_555 1_555
C11 C7 1_555 1_555
H7 C11 1_555 1_555
C12 P1 1_555 1_555
C13 H8 1_555 1_555
C14 N1 1_555 1_555
H9 C14 1_555 1_555
C15 C13 1_555 1_555
H10 C15 1_555 1_555
C16 C15 1_555 1_555
H11 C16 1_555 1_555
C17 C2 1_555 1_555
H12 C17 1_555 1_555
C18 C4 1_555 1_555
H13 C18 1_555 1_555
C19 H14 1_555 1_555
C20 C13 1_555 1_555
H15 C20 1_555 1_555
C21 C19 1_555 1_555
H16 C21 1_555 1_555
C22 C10 1_555 1_555
H17 C22 1_555 1_555
C23 C6 1_555 1_555
H18 C23 1_555 1_555
C24 C9 1_555 1_555
H19 C24 1_555 1_555
C25 H20 1_555 1_555
H21 C25 1_555 1_555
H22 C25 1_555 1_555
C26 C25 1_555 1_555
I1B Cu1 1_555 1_555
Cu1B I1 1_555 1_555
Cu1B_2 N1B 1_555 1_555
P1B Cu1B 1_555 1_555
N1B C8B 1_555 1_555
N1B_2 Cu1B 1_555 1_555
N2B N3 1_555 1_555
N3B N2 1_555 1_555
C1B N2B 1_555 1_555
C2B P1B 1_555 1_555
C3B H1B 1_555 1_555
C4B H2B 1_555 1_555
C5B C4B 1_555 1_555
H3B C5B 1_555 1_555
C6B C5B 1_555 1_555
H4B C6B 1_555 1_555
C7B C1B 1_555 1_555
C8B C3B 1_555 1_555
H5B C8B 1_555 1_555
C9B H6B 1_555 1_555
C10B P1B 1_555 1_555
C11B C7B 1_555 1_555
H7B C11B 1_555 1_555
C12B P1B 1_555 1_555
C13B H8B 1_555 1_555
C14B N1B 1_555 1_555
H9B C14B 1_555 1_555
C15B C13B 1_555 1_555
H10B C15B 1_555 1_555
C16B C2B 1_555 1_555
H11B C16B 1_555 1_555
C17B C2B 1_555 1_555
H12B C17B 1_555 1_555
C18B C4B 1_555 1_555
H13B C18B 1_555 1_555
C19B H14B 1_555 1_555
C20B C13B 1_555 1_555
H15B C20B 1_555 1_555
C21B C19B 1_555 1_555
H16B C21B 1_555 1_555
C22B C10B 1_555 1_555
H17B C22B 1_555 1_555
C23B C6B 1_555 1_555
H18B C23B 1_555 1_555
C24B C9B 1_555 1_555
H19B C24B 1_555 1_555
C3 C8 1_555 1_555
C9 C10 1_555 1_555
C11 C14 1_555 1_555
C12 C18 1_555 1_555
C12 C23 1_555 1_555
C17 C20 1_555 1_555
C19 C22 1_555 1_555
C21 C24 1_555 1_555
I1B Cu1B 1_555 1_555
N3B C1B 1_555 1_555
C3B C7B 1_555 1_555
C9B C10B 1_555 1_555
C11B C14B 1_555 1_555
C12B C18B 1_555 1_555
C12B C23B 1_555 1_555
C15B C16B 1_555 1_555
C17B C20B 1_555 1_555
C19B C22B 1_555 1_555
C21B C24B 1_555 1_555

#END
