
#######################################################################
#
#                 Cambridge Crystallographic Data Centre
#                                CCDC 
#
#######################################################################
#
# If this CIF has been generated from an entry in the Cambridge 
# Structural Database, then it will include bibliographic, chemical, 
# crystal, experimental, refinement or atomic coordinate data resulting 
# from the CCDC's data processing and validation procedures.
#
#######################################################################

data_NALLAP
_symmetry_cell_setting           orthorhombic
_symmetry_space_group_name_H-M   'P 21 21 21'
_symmetry_Int_Tables_number      19
_space_group_name_Hall           'P 2ac 2ab'
loop_
_symmetry_equiv_pos_site_id
_symmetry_equiv_pos_as_xyz
1 x,y,z
2 1/2-x,-y,1/2+z
3 1/2+x,1/2-y,-z
4 -x,1/2+y,1/2-z
_cell_length_a                   4.1664(5)
_cell_length_b                   10.4621(11)
_cell_length_c                   25.518(4)
_cell_angle_alpha                90
_cell_angle_beta                 90
_cell_angle_gamma                90
_cell_volume                     1112.31
loop_
_atom_site_label
_atom_site_type_symbol
_atom_site_fract_x
_atom_site_fract_y
_atom_site_fract_z
I1 I 0.66039(6) 0.42090(2) 0.117804(11)
Cu1 Cu 0.16241(14) 0.27290(4) 0.12007(2)
N1 N 0.3102(9) 0.1092(3) 0.07823(11)
N2 N -0.0053(9) 0.1283(3) 0.17018(13)
C1 C 0.2334(9) -0.0008(4) 0.10317(14)
C2 C -0.1751(12) 0.1378(4) 0.21386(15)
H1 H -0.2174 0.2191 0.2269
C3 C 0.0515(10) 0.0084(4) 0.15161(15)
C4 C 0.3219(12) -0.1225(4) 0.08441(16)
C5 C 0.4834(11) 0.1005(5) 0.03491(16)
H2 H 0.5378 0.1752 0.0173
C6 C -0.0525(10) -0.1027(4) 0.17715(17)
C7 C -0.2305(11) -0.0865(5) 0.22338(17)
H3 H -0.3048 -0.1575 0.2417
C8 C 0.2110(14) -0.2340(4) 0.1123(2)
H4 H 0.2677 -0.3146 0.1000
C9 C -0.2940(12) 0.0332(5) 0.24137(17)
H5 H -0.4150 0.0450 0.2716
C10 C 0.5059(13) -0.1268(5) 0.03889(19)
H6 H 0.5720 -0.2050 0.0254
C11 C 0.0286(14) -0.2250(4) 0.1555(2)
H7 H -0.0462 -0.2990 0.1715
C12 C 0.5884(12) -0.0168(5) 0.01436(18)
H8 H 0.7135 -0.0189 -0.0158
I1_2 I -0.33961(6) 0.42090(2) 0.117804(11)
Cu1_2 Cu 1.16241(14) 0.27290(4) 0.12007(2)
loop_
_geom_bond_atom_site_label_1
_geom_bond_atom_site_label_2
_geom_bond_site_symmetry_1
_geom_bond_site_symmetry_2
I1 Cu1 1_555 1_555
Cu1 N1 1_555 1_555
N1 C1 1_555 1_555
N2 Cu1 1_555 1_555
C1 C3 1_555 1_555
C2 N2 1_555 1_555
H1 C2 1_555 1_555
C3 N2 1_555 1_555
C4 C1 1_555 1_555
C5 N1 1_555 1_555
H2 C5 1_555 1_555
C6 C3 1_555 1_555
C7 C6 1_555 1_555
H3 C7 1_555 1_555
C8 C4 1_555 1_555
H4 C8 1_555 1_555
C9 C2 1_555 1_555
H5 C9 1_555 1_555
C10 C4 1_555 1_555
H6 C10 1_555 1_555
C11 C6 1_555 1_555
H7 C11 1_555 1_555
C12 C5 1_555 1_555
H8 C12 1_555 1_555
I1_2 Cu1 1_555 1_555
Cu1_2 I1 1_555 1_555
C7 C9 1_555 1_555
C8 C11 1_555 1_555
C10 C12 1_555 1_555

#END
