
#######################################################################
#
#                 Cambridge Crystallographic Data Centre
#                                CCDC 
#
#######################################################################
#
# If this CIF has been generated from an entry in the Cambridge 
# Structural Database, then it will include bibliographic, chemical, 
# crystal, experimental, refinement or atomic coordinate data resulting 
# from the CCDC's data processing and validation procedures.
#
#######################################################################

data_NALLER
_symmetry_cell_setting           monoclinic
_symmetry_space_group_name_H-M   'C 2/c'
_symmetry_Int_Tables_number      15
_space_group_name_Hall           '-C 2yn'
loop_
_symmetry_equiv_pos_site_id
_symmetry_equiv_pos_as_xyz
1 x,y,z
2 -x,y,1/2-z
3 1/2+x,1/2+y,z
4 1/2-x,1/2+y,1/2-z
5 -x,-y,-z
6 x,-y,1/2+z
7 1/2-x,1/2-y,-z
8 1/2+x,1/2-y,1/2+z
_cell_length_a                   24.744(2)
_cell_length_b                   7.3484(7)
_cell_length_c                   27.940(3)
_cell_angle_alpha                90
_cell_angle_beta                 91.706(2)
_cell_angle_gamma                90
_cell_volume                     5078.05
loop_
_atom_site_label
_atom_site_type_symbol
_atom_site_fract_x
_atom_site_fract_y
_atom_site_fract_z
Sb1 Sb 0.1221(1) 0.4497(1) -0.1585(1)
F1 F 0.0600(2) 0.3455(10) -0.1833(2)
F2 F 0.1402(3) 0.2283(9) -0.1290(2)
F3 F 0.0867(2) 0.5157(9) -0.1029(2)
F4 F 0.1861(2) 0.5434(11) -0.1310(2)
F5 F 0.1052(3) 0.6706(9) -0.1851(2)
F6 F 0.1590(2) 0.3814(8) -0.2124(2)
Ag1 Ag 0.1345(1) 0.1849(1) 0.1197(1)
O1 O 0.1126(2) -0.2057(7) 0.0064(2)
O2 O 0.0688(2) 0.1853(7) 0.0263(2)
O3 O 0.0869(2) 0.4450(8) 0.1074(2)
O4 O 0.2153(2) -0.6368(7) 0.1588(2)
O5 O 0.1396(3) -0.8180(8) 0.2115(2)
O6 O 0.0563(2) -0.9778(8) 0.1571(2)
N1 N 0.1788(3) -0.0556(10) 0.1002(2)
C1 C 0.1897(3) -0.1921(11) 0.0830(3)
C2 C 0.2056(3) -0.3559(9) 0.0601(3)
C3 C 0.2314(3) -0.4945(10) 0.0858(3)
C4 C 0.2479(3) -0.6489(9) 0.0623(3)
C5 C 0.2405(3) -0.6679(9) 0.0129(2)
C6 C 0.2120(3) -0.5281(10) -0.0123(3)
C7 C 0.1943(3) -0.3730(9) 0.0110(3)
C8 C 0.1628(3) -0.2302(9) -0.0162(3)
C9 C 0.0763(3) -0.0914(10) -0.0204(3)
C10 C 0.0869(3) 0.1100(10) -0.0169(3)
C11 C 0.0703(3) 0.3783(10) 0.0242(3)
C12 C 0.0489(3) 0.4625(11) 0.0684(3)
C13 C 0.0706(4) 0.5426(13) 0.1491(3)
C14 C 0.2408(3) -0.4826(11) 0.1394(3)
C15 C 0.2202(4) -0.6430(12) 0.2098(3)
C16 C 0.1946(4) -0.8162(13) 0.2258(3)
C17 C 0.1115(5) -0.9759(13) 0.2267(3)
C18 C 0.0547(4) -0.9700(14) 0.2077(4)
C19 C 0.0031(4) -0.9678(15) 0.1357(4)
H1 H 0.2647 -0.7445 0.0801
H2 H 0.2049 -0.5409 -0.0457
H3 H 0.1832 -0.1143 -0.0162
H4 H 0.1565 -0.2692 -0.0498
H5 H 0.0392 -0.1149 -0.0096
H6 H 0.0774 -0.1273 -0.0545
H7 H 0.1262 0.1322 -0.0192
H8 H 0.0684 0.1720 -0.0443
H9 H 0.0486 0.4203 -0.0040
H10 H 0.1081 0.4186 0.0202
H11 H 0.0413 0.5930 0.0624
H12 H 0.0146 0.4024 0.0766
H13 H 0.0505 0.6519 0.1393
H14 H 0.1027 0.5779 0.1683
H15 H 0.0475 0.4645 0.1683
H16 H 0.2800 -0.4838 0.1476
H17 H 0.2250 -0.3693 0.1520
H18 H 0.2018 -0.5370 0.2239
H19 H 0.2588 -0.6400 0.2202
H20 H 0.2132 -0.9214 0.2116
H21 H 0.1980 -0.8266 0.2611
H22 H 0.1119 -0.9811 0.2621
H23 H 0.1296 -1.0864 0.2148
H24 H 0.0341 -1.0745 0.2201
H25 H 0.0370 -0.8562 0.2179
H26 H 0.0054 -0.9742 0.1008
H27 H -0.0138 -0.8526 0.1446
H28 H -0.0186 -1.0696 0.1470
C5F C 0.2595(3) -0.8321(9) -0.0129(2)
C4F C 0.2521(3) -0.8511(9) -0.0623(3)
C3F C 0.2686(3) -1.0055(10) -0.0858(3)
C2F C 0.2944(3) -1.1441(9) -0.0601(3)
C1F C 0.3103(3) -1.3079(11) -0.0830(3)
N1F N 0.3212(3) -1.4444(10) -0.1002(2)
C7F C 0.3057(3) -1.1270(9) -0.0110(3)
C6F C 0.2880(3) -0.9719(10) 0.0123(3)
H2F H 0.2951 -0.9591 0.0457
C8F C 0.3372(3) -1.2698(9) 0.0162(3)
O1F O 0.3874(2) -1.2943(7) -0.0064(2)
C9F C 0.4237(3) -1.4086(10) 0.0204(3)
C10F C 0.4131(3) -1.6100(10) 0.0169(3)
O2F O 0.4312(2) -1.6853(7) -0.0263(2)
C11F C 0.4297(3) -1.8783(10) -0.0242(3)
C12F C 0.4511(3) -1.9625(11) -0.0684(3)
O3F O 0.4131(2) -1.9450(8) -0.1074(2)
C13F C 0.4294(4) -2.0426(13) -0.1491(3)
H13F H 0.4495 -2.1519 -0.1393
H14F H 0.3973 -2.0779 -0.1683
H15F H 0.4525 -1.9645 -0.1683
H11F H 0.4587 -2.0930 -0.0624
H12F H 0.4854 -1.9024 -0.0766
H9F H 0.4514 -1.9203 0.0040
H10F H 0.3919 -1.9186 -0.0202
H7F H 0.3738 -1.6322 0.0192
H8F H 0.4316 -1.6720 0.0443
H5F H 0.4608 -1.3851 0.0096
H6F H 0.4226 -1.3727 0.0545
H3F H 0.3168 -1.3857 0.0162
H4F H 0.3435 -1.2308 0.0498
C14F C 0.2592(3) -1.0174(11) -0.1394(3)
O4F O 0.2847(2) -0.8632(7) -0.1588(2)
C15F C 0.2798(4) -0.8570(12) -0.2098(3)
C16F C 0.3054(4) -0.6838(13) -0.2258(3)
O5F O 0.3604(3) -0.6820(8) -0.2115(2)
C17F C 0.3885(5) -0.5241(13) -0.2267(3)
C18F C 0.4453(4) -0.5300(14) -0.2077(4)
O6F O 0.4437(2) -0.5222(8) -0.1571(2)
C19F C 0.4969(4) -0.5322(15) -0.1357(4)
H26F H 0.4946 -0.5258 -0.1008
H27F H 0.5138 -0.6474 -0.1446
H28F H 0.5186 -0.4304 -0.1470
H24F H 0.4659 -0.4255 -0.2201
H25F H 0.4630 -0.6438 -0.2179
H22F H 0.3881 -0.5189 -0.2621
H23F H 0.3704 -0.4136 -0.2148
H20F H 0.2868 -0.5786 -0.2116
H21F H 0.3020 -0.6734 -0.2611
H18F H 0.2982 -0.9630 -0.2239
H19F H 0.2412 -0.8600 -0.2202
H16F H 0.2200 -1.0162 -0.1476
H17F H 0.2750 -1.1307 -0.1520
H1F H 0.2353 -0.7555 -0.0801
Ag1F Ag 0.3655(1) -1.6849(1) -0.1197(1)
O4_2 O 0.2153(2) 0.3632(7) 0.1588(2)
O5_2 O 0.1396(3) 0.1820(8) 0.2115(2)
O6_2 O 0.0563(2) 0.0222(8) 0.1571(2)
Ag1_2 Ag 0.1345(1) -0.8151(1) 0.1197(1)
Ag1F_2 Ag 0.3655(1) -0.6849(1) -0.1197(1)
O4F_2 O 0.2847(2) -1.8632(7) -0.1588(2)
O5F_2 O 0.3604(3) -1.6820(8) -0.2115(2)
O6F_2 O 0.4437(2) -1.5222(8) -0.1571(2)
loop_
_geom_bond_atom_site_label_1
_geom_bond_atom_site_label_2
_geom_bond_site_symmetry_1
_geom_bond_site_symmetry_2
Sb1 F1 1_555 1_555
Ag1 O3 1_555 1_555
F2 Sb1 1_555 1_555
F3 Sb1 1_555 1_555
F4 Sb1 1_555 1_555
F5 Sb1 1_555 1_555
F6 Sb1 1_555 1_555
O1 C8 1_555 1_555
O2 C10 1_555 1_555
O3 C12 1_555 1_555
O4 C14 1_555 1_555
O5 C16 1_555 1_555
O6 C18 1_555 1_555
N1 Ag1 1_555 1_555
C1 N1 1_555 1_555
C2 C1 1_555 1_555
C3 C2 1_555 1_555
C4 C3 1_555 1_555
C5 C4 1_555 1_555
C6 C5 1_555 1_555
C7 C2 1_555 1_555
C8 C7 1_555 1_555
C9 O1 1_555 1_555
C10 C9 1_555 1_555
C11 O2 1_555 1_555
C12 C11 1_555 1_555
C13 O3 1_555 1_555
C14 C3 1_555 1_555
C15 O4 1_555 1_555
C16 C15 1_555 1_555
C17 O5 1_555 1_555
C18 C17 1_555 1_555
C19 O6 1_555 1_555
H1 C4 1_555 1_555
H2 C6 1_555 1_555
H3 C8 1_555 1_555
H4 C8 1_555 1_555
H5 C9 1_555 1_555
H6 C9 1_555 1_555
H7 C10 1_555 1_555
H8 C10 1_555 1_555
H9 C11 1_555 1_555
H10 C11 1_555 1_555
H11 C12 1_555 1_555
H12 C12 1_555 1_555
H13 C13 1_555 1_555
H14 C13 1_555 1_555
H15 C13 1_555 1_555
H16 C14 1_555 1_555
H17 C14 1_555 1_555
H18 C15 1_555 1_555
H19 C15 1_555 1_555
H20 C16 1_555 1_555
H21 C16 1_555 1_555
H22 C17 1_555 1_555
H23 C17 1_555 1_555
H24 C18 1_555 1_555
H25 C18 1_555 1_555
H26 C19 1_555 1_555
H27 C19 1_555 1_555
H28 C19 1_555 1_555
C5F C5 1_555 1_555
C4F C5F 1_555 1_555
C3F C4F 1_555 1_555
C2F C3F 1_555 1_555
C1F C2F 1_555 1_555
N1F C1F 1_555 1_555
C7F C2F 1_555 1_555
C6F C5F 1_555 1_555
H2F C6F 1_555 1_555
C8F C7F 1_555 1_555
O1F C8F 1_555 1_555
C9F O1F 1_555 1_555
C10F C9F 1_555 1_555
O2F C10F 1_555 1_555
C11F O2F 1_555 1_555
C12F C11F 1_555 1_555
O3F C12F 1_555 1_555
C13F O3F 1_555 1_555
H13F C13F 1_555 1_555
H14F C13F 1_555 1_555
H15F C13F 1_555 1_555
H11F C12F 1_555 1_555
H12F C12F 1_555 1_555
H9F C11F 1_555 1_555
H10F C11F 1_555 1_555
H7F C10F 1_555 1_555
H8F C10F 1_555 1_555
H5F C9F 1_555 1_555
H6F C9F 1_555 1_555
H3F C8F 1_555 1_555
H4F C8F 1_555 1_555
C14F C3F 1_555 1_555
O4F C14F 1_555 1_555
C15F O4F 1_555 1_555
C16F C15F 1_555 1_555
O5F C16F 1_555 1_555
C17F O5F 1_555 1_555
C18F C17F 1_555 1_555
O6F C18F 1_555 1_555
C19F O6F 1_555 1_555
H26F C19F 1_555 1_555
H27F C19F 1_555 1_555
H28F C19F 1_555 1_555
H24F C18F 1_555 1_555
H25F C18F 1_555 1_555
H22F C17F 1_555 1_555
H23F C17F 1_555 1_555
H20F C16F 1_555 1_555
H21F C16F 1_555 1_555
H18F C15F 1_555 1_555
H19F C15F 1_555 1_555
H16F C14F 1_555 1_555
H17F C14F 1_555 1_555
H1F C4F 1_555 1_555
Ag1F N1F 1_555 1_555
O4_2 Ag1 1_555 1_555
O5_2 Ag1 1_555 1_555
O6_2 Ag1 1_555 1_555
Ag1_2 O4 1_555 1_555
Ag1F_2 O4F 1_555 1_555
O4F_2 Ag1F 1_555 1_555
O5F_2 Ag1F 1_555 1_555
O6F_2 Ag1F 1_555 1_555
O5 Ag1_2 1_555 1_555
O6 Ag1_2 1_555 1_555
C6 C7 1_555 1_555
C7F C6F 1_555 1_555
O3F Ag1F 1_555 1_555
O5F Ag1F_2 1_555 1_555
O6F Ag1F_2 1_555 1_555

#END
