
#######################################################################
#
#                 Cambridge Crystallographic Data Centre
#                                CCDC 
#
#######################################################################
#
# If this CIF has been generated from an entry in the Cambridge 
# Structural Database, then it will include bibliographic, chemical, 
# crystal, experimental, refinement or atomic coordinate data resulting 
# from the CCDC's data processing and validation procedures.
#
#######################################################################

data_NALLIX
_symmetry_cell_setting           monoclinic
_symmetry_space_group_name_H-M   'P 21/n'
_symmetry_Int_Tables_number      14
_space_group_name_Hall           '-P 2yn'
loop_
_symmetry_equiv_pos_site_id
_symmetry_equiv_pos_as_xyz
1 x,y,z
2 1/2-x,1/2+y,1/2-z
3 -x,-y,-z
4 1/2+x,1/2-y,1/2+z
_cell_length_a                   15.4767(4)
_cell_length_b                   9.9533(2)
_cell_length_c                   16.4739(4)
_cell_angle_alpha                90
_cell_angle_beta                 111.550(3)
_cell_angle_gamma                90
_cell_volume                     2360.32
loop_
_atom_site_label
_atom_site_type_symbol
_atom_site_fract_x
_atom_site_fract_y
_atom_site_fract_z
Mn1 Mn 0.0000 0.0000 0.0000
Mn2 Mn -0.14838(7) 0.08026(10) 0.11903(6)
O1 O -0.0797(3) 0.1629(4) 0.0297(3)
O2 O -0.0403(4) -0.0397(6) 0.2028(3)
O3 O 0.2737(4) -0.4310(6) 0.5325(4)
O4 O 0.0628(4) -0.0425(7) 0.1362(4)
O5 O 0.3855(3) -0.3700(5) 0.4843(4)
O6 O -0.0660(4) 0.2799(5) 0.1459(4)
C1 C -0.0252(6) 0.3880(9) 0.0362(6)
C2 C 0.0371(6) -0.0704(8) 0.1970(5)
C3 C 0.1063(5) -0.1465(8) 0.2730(5)
O7 O -0.2680(5) 0.2173(8) 0.0449(4)
C4 C 0.0108(6) 0.4999(9) 0.0875(6)
H1 H 0.0192 0.4999 0.1464
C5 C 0.3039(6) -0.3694(9) 0.4802(6)
C6 C -0.0578(6) 0.2714(9) 0.0736(6)
C7 C 0.2338(6) -0.2907(9) 0.4087(5)
C8 C 0.2606(7) -0.2307(10) 0.3450(6)
H2 H 0.3217 -0.2366 0.3482
C9 C 0.1442(6) -0.2726(9) 0.4049(6)
H3 H 0.1269 -0.3063 0.4494
C10 C -0.0340(6) 0.3876(9) -0.0496(6)
H4 H -0.0559 0.3109 -0.0831
C11 C 0.1956(6) -0.1631(10) 0.2780(6)
H5 H 0.2129 -0.1271 0.2341
C12 C 0.0794(6) -0.2051(9) 0.3357(6)
H6 H 0.0180 -0.1992 0.3316
C13 C -0.3326(8) 0.2127(12) -0.0201(9)
N1 N -0.3557(16) 0.2457(18) -0.0874(11)
O8 O -0.2031(6) 0.0876(7) 0.2171(5)
C14 C -0.2747(9) 0.3363(15) -0.0975(9)
H7 H -0.2200 0.3291 -0.0456
H8 H -0.2945 0.4283 -0.1063
H9 H -0.2610 0.3057 -0.1467
C15 C -0.4144(10) 0.1228(15) -0.0123(11)
H10 H -0.3993 0.0966 0.0474
H11 H -0.4221 0.0440 -0.0480
H12 H -0.4711 0.1736 -0.0318
C16 C -0.2902(10) 0.0789(13) 0.3959(8)
H13 H -0.2359 0.0295 0.4306
H14 H -0.3448 0.0315 0.3943
H15 H -0.2891 0.1663 0.4209
C17 C -0.2146(7) 0.0724(9) 0.2836(7)
C18 C -0.4422(11) 0.2470(18) -0.1636(9)
H16 H -0.4860 0.1867 -0.1540
H17 H -0.4301 0.2187 -0.2141
H18 H -0.4674 0.3363 -0.1727
C19 C -0.3786(9) 0.1493(15) 0.2419(10)
H19 H -0.3706 0.1650 0.1875
H20 H -0.3931 0.2325 0.2635
H21 H -0.4284 0.0867 0.2330
C20 C -0.1292(9) 0.0168(14) 0.3712(9)
H22 H -0.0775 -0.0089 0.3556
H23 H -0.1503 -0.0596 0.3944
H24 H -0.1103 0.0866 0.4144
N2 N -0.2913(10) 0.0934(12) 0.3063(8)
Mn1A Mn 0.5000 -0.5000 0.5000
Mn1_2 Mn 0.0000 1.0000 0.0000
Mn1A_2 Mn 0.5000 0.5000 0.5000
Mn2B Mn 0.14838(7) 0.91974(10) -0.11903(6)
Mn2C Mn 0.35162(7) -0.58026(10) 0.61903(6)
Mn2A Mn 0.64838(7) 0.58026(10) 0.38097(6)
Mn2B_2 Mn 0.14838(7) -0.08026(10) -0.11903(6)
O1B O 0.0797(3) 0.8371(4) -0.0297(3)
O1B_2 O 0.0797(3) -0.1629(4) -0.0297(3)
O2A O 0.5403(4) 0.4603(6) 0.2972(3)
O2B O 0.0403(4) 1.0397(6) -0.2028(3)
O3A O 0.2263(4) 0.0690(6) -0.0325(4)
O3C O -0.2263(4) -0.0690(6) 0.0325(4)
O3A_2 O 0.2263(4) 1.0690(6) -0.0325(4)
O4A O 0.4372(4) 0.4575(7) 0.3638(4)
O4B O -0.0628(4) 0.0425(7) -0.1362(4)
O5A O 0.1145(3) 0.1300(5) 0.0157(4)
O5C O -0.1145(3) -0.1300(5) -0.0157(4)
O6B O 0.0660(4) 0.7201(5) -0.1459(4)
C1B C 0.0252(6) 0.6120(9) -0.0362(6)
C2A C 0.4629(6) 0.4296(8) 0.3030(5)
C3A C 0.3937(5) 0.3535(8) 0.2270(5)
O7B O 0.2680(5) 0.7827(8) -0.0449(4)
C4B C -0.0108(6) 0.5001(9) -0.0875(6)
H1B H -0.0192 0.5001 -0.1464
C5A C 0.1961(6) 0.1306(9) 0.0198(6)
C6B C 0.0578(6) 0.7286(9) -0.0736(6)
C7A C 0.2662(6) 0.2093(9) 0.0913(5)
C8A C 0.2394(7) 0.2693(10) 0.1550(6)
H2A H 0.1783 0.2634 0.1518
C9A C 0.3558(6) 0.2274(9) 0.0951(6)
H3A H 0.3731 0.1937 0.0506
C10B C 0.0340(6) 0.6124(9) 0.0496(6)
H4B H 0.0559 0.6891 0.0831
C11A C 0.3044(6) 0.3369(10) 0.2220(6)
H5A H 0.2871 0.3729 0.2659
C12A C 0.4206(6) 0.2949(9) 0.1643(6)
H6A H 0.4820 0.3008 0.1684
C13B C 0.3326(8) 0.7873(12) 0.0201(9)
N1B N 0.3557(16) 0.7543(18) 0.0874(11)
O8B O 0.2031(6) 0.9124(7) -0.2171(5)
C14B C 0.2747(9) 0.6637(15) 0.0975(9)
H7B H 0.2200 0.6709 0.0456
H8B H 0.2945 0.5717 0.1063
H9B H 0.2610 0.6943 0.1467
C15B C 0.4144(10) 0.8772(15) 0.0123(11)
H10B H 0.3993 0.9034 -0.0474
H11B H 0.4221 0.9560 0.0480
H12B H 0.4711 0.8264 0.0318
C16B C 0.2902(10) 0.9211(13) -0.3959(8)
H13B H 0.2359 0.9705 -0.4306
H14B H 0.3448 0.9685 -0.3943
H15B H 0.2891 0.8337 -0.4209
C17B C 0.2146(7) 0.9276(9) -0.2836(7)
C18B C 0.4422(11) 0.7530(18) 0.1636(9)
H16B H 0.4860 0.8133 0.1540
H17B H 0.4301 0.7813 0.2141
H18B H 0.4674 0.6637 0.1727
C19B C 0.3786(9) 0.8507(15) -0.2419(10)
H19B H 0.3706 0.8350 -0.1875
H20B H 0.3931 0.7675 -0.2635
H21B H 0.4284 0.9133 -0.2330
C20B C 0.1292(9) 0.9832(14) -0.3712(9)
H22B H 0.0775 1.0089 -0.3556
H23B H 0.1503 1.0596 -0.3944
H24B H 0.1103 0.9134 -0.4144
N2B N 0.2913(10) 0.9066(12) -0.3063(8)
loop_
_geom_bond_atom_site_label_1
_geom_bond_atom_site_label_2
_geom_bond_site_symmetry_1
_geom_bond_site_symmetry_2
Mn1 O1 1_555 1_555
Mn2 O1 1_555 1_555
O1 C6 1_555 1_555
O2 Mn2 1_555 1_555
O3 C5 1_555 1_555
O4 Mn1 1_555 1_555
O5 C5 1_555 1_555
O6 Mn2 1_555 1_555
C1 C4 1_555 1_555
C2 O2 1_555 1_555
C3 C2 1_555 1_555
O7 Mn2 1_555 1_555
C4 H1 1_555 1_555
C5 C7 1_555 1_555
C6 O6 1_555 1_555
C7 C8 1_555 1_555
C8 H2 1_555 1_555
C9 C7 1_555 1_555
H3 C9 1_555 1_555
C10 C1 1_555 1_555
H4 C10 1_555 1_555
C11 C3 1_555 1_555
H5 C11 1_555 1_555
C12 C3 1_555 1_555
H6 C12 1_555 1_555
C13 O7 1_555 1_555
N1 C13 1_555 1_555
O8 Mn2 1_555 1_555
C14 N1 1_555 1_555
H7 C14 1_555 1_555
H8 C14 1_555 1_555
H9 C14 1_555 1_555
C15 C13 1_555 1_555
H10 C15 1_555 1_555
H11 C15 1_555 1_555
H12 C15 1_555 1_555
C16 H13 1_555 1_555
H14 C16 1_555 1_555
H15 C16 1_555 1_555
C17 O8 1_555 1_555
C18 N1 1_555 1_555
H16 C18 1_555 1_555
H17 C18 1_555 1_555
H18 C18 1_555 1_555
C19 H19 1_555 1_555
H20 C19 1_555 1_555
H21 C19 1_555 1_555
C20 C17 1_555 1_555
H22 C20 1_555 1_555
H23 C20 1_555 1_555
H24 C20 1_555 1_555
N2 C16 1_555 1_555
Mn1A O5 1_555 1_555
Mn1_2 O1B 1_555 1_555
Mn1A_2 O4A 1_555 1_555
Mn2B O1B 1_555 1_555
Mn2C O3 1_555 1_555
Mn2A O2A 1_555 1_555
Mn2B_2 O1B_2 1_555 1_555
O1B C6B 1_555 1_555
O1B_2 Mn1 1_555 1_555
O2A C2A 1_555 1_555
O2B Mn2B 1_555 1_555
O3A Mn2B_2 1_555 1_555
O3C Mn2 1_555 1_555
O3A_2 Mn2B 1_555 1_555
O4A C2A 1_555 1_555
O4B Mn1 1_555 1_555
O5A Mn1 1_555 1_555
O5C Mn1 1_555 1_555
O6B Mn2B 1_555 1_555
C1B C4B 1_555 1_555
C2A C3A 1_555 1_555
C3A C11A 1_555 1_555
O7B Mn2B 1_555 1_555
C4B C10 1_555 1_555
H1B C4B 1_555 1_555
C5A O3A 1_555 1_555
C6B O6B 1_555 1_555
C7A C5A 1_555 1_555
C8A C7A 1_555 1_555
H2A C8A 1_555 1_555
C9A C7A 1_555 1_555
H3A C9A 1_555 1_555
C10B C4 1_555 1_555
H4B C10B 1_555 1_555
C11A C8A 1_555 1_555
H5A C11A 1_555 1_555
C12A C3A 1_555 1_555
H6A C12A 1_555 1_555
C13B O7B 1_555 1_555
N1B C13B 1_555 1_555
O8B Mn2B 1_555 1_555
C14B N1B 1_555 1_555
H7B C14B 1_555 1_555
H8B C14B 1_555 1_555
H9B C14B 1_555 1_555
C15B C13B 1_555 1_555
H10B C15B 1_555 1_555
H11B C15B 1_555 1_555
H12B C15B 1_555 1_555
C16B H13B 1_555 1_555
H14B C16B 1_555 1_555
H15B C16B 1_555 1_555
C17B O8B 1_555 1_555
C18B N1B 1_555 1_555
H16B C18B 1_555 1_555
H17B C18B 1_555 1_555
H18B C18B 1_555 1_555
C19B H19B 1_555 1_555
H20B C19B 1_555 1_555
H21B C19B 1_555 1_555
C20B C17B 1_555 1_555
H22B C20B 1_555 1_555
H23B C20B 1_555 1_555
H24B C20B 1_555 1_555
N2B C16B 1_555 1_555
O4 C2 1_555 1_555
C1 C6 1_555 1_555
C8 C11 1_555 1_555
C9 C12 1_555 1_555
C17 N2 1_555 1_555
C19 N2 1_555 1_555
O5A C5A 1_555 1_555
C1B C6B 1_555 1_555
C1B C10B 1_555 1_555
C9A C12A 1_555 1_555
C17B N2B 1_555 1_555
C19B N2B 1_555 1_555

#END
