
#######################################################################
#
#                 Cambridge Crystallographic Data Centre
#                                CCDC 
#
#######################################################################
#
# If this CIF has been generated from an entry in the Cambridge 
# Structural Database, then it will include bibliographic, chemical, 
# crystal, experimental, refinement or atomic coordinate data resulting 
# from the CCDC's data processing and validation procedures.
#
#######################################################################

data_NALXEF
_symmetry_cell_setting           monoclinic
_symmetry_space_group_name_H-M   'P 21/n'
_symmetry_Int_Tables_number      14
_space_group_name_Hall           '-P 2yn'
loop_
_symmetry_equiv_pos_site_id
_symmetry_equiv_pos_as_xyz
1 x,y,z
2 1/2-x,1/2+y,1/2-z
3 -x,-y,-z
4 1/2+x,1/2-y,1/2+z
_cell_length_a                   9.629(3)
_cell_length_b                   19.438(6)
_cell_length_c                   13.130(4)
_cell_angle_alpha                90
_cell_angle_beta                 111.244(4)
_cell_angle_gamma                90
_cell_volume                     2290.52
loop_
_atom_site_label
_atom_site_type_symbol
_atom_site_fract_x
_atom_site_fract_y
_atom_site_fract_z
K1 K 1.09334(6) 0.21501(3) 0.80507(5)
S1 S 0.91374(7) 0.34276(3) 0.56706(5)
S2 S 0.78125(7) 0.12779(4) 0.55856(5)
O1 O 0.9550(2) 0.34319(10) 0.68468(14)
O2 O 0.75684(19) 0.35355(10) 0.50632(15)
O3 O 0.7386(2) 0.12712(12) 0.44226(16)
O4 O 0.9329(2) 0.11419(11) 0.62499(17)
N1 N 1.3667(2) 0.23467(11) 0.38169(16)
N2 N 0.9744(2) 0.27061(11) 0.52955(17)
N3 N 1.0131(2) 0.40106(11) 0.53092(17)
N4 N 1.3860(2) 0.37425(11) 0.36285(18)
N5 N 0.3034(2) 0.11710(11) 0.76148(17)
N6 N 0.6703(2) 0.07263(12) 0.59484(19)
N7 N 0.7246(2) 0.20241(12) 0.59585(17)
N8 N 0.3363(2) 0.25353(11) 0.73725(15)
C1 C 1.2746(2) 0.27491(13) 0.41399(18)
C2 C 1.3548(2) 0.16614(14) 0.3882(2)
C3 C 1.2543(2) 0.13362(13) 0.4275(2)
C4 C 1.1605(2) 0.17365(14) 0.46116(19)
C5 C 1.1696(2) 0.24578(13) 0.45474(18)
C6 C 1.0772(2) 0.29081(13) 0.49000(19)
C7 C 1.0974(2) 0.36500(13) 0.48983(18)
C8 C 1.2027(2) 0.39417(13) 0.44652(18)
C9 C 1.2212(2) 0.46544(14) 0.4415(2)
C10 C 1.3215(3) 0.48995(15) 0.3974(2)
C11 C 1.3997(3) 0.44213(15) 0.3584(2)
C12 C 1.2888(2) 0.34958(13) 0.40709(18)
C13 C 0.4023(2) 0.13558(13) 0.71617(19)
C14 C 0.2853(3) 0.04952(15) 0.7730(2)
C15 C 0.3567(3) -0.00200(15) 0.7371(2)
C16 C 0.4555(3) 0.01692(14) 0.6887(2)
C17 C 0.4818(2) 0.08678(13) 0.67905(19)
C18 C 0.5905(2) 0.11107(13) 0.63382(19)
C19 C 0.6212(2) 0.18677(13) 0.63197(19)
C20 C 0.5321(2) 0.23583(12) 0.66641(18)
C21 C 0.5482(2) 0.30688(13) 0.65678(19)
C22 C 0.4587(2) 0.35015(13) 0.6899(2)
C23 C 0.3550(2) 0.32096(13) 0.7291(2)
C24 C 0.4245(2) 0.21082(12) 0.70645(18)
H1 H 1.4182 0.1380 0.3647
H2 H 1.2508 0.0849 0.4310
H3 H 1.0913 0.1530 0.4881
H4 H 1.1657 0.4963 0.4680
H5 H 1.3374 0.5380 0.3935
H6 H 1.4671 0.4595 0.3267
H7 H 0.2191 0.0359 0.8082
H8 H 0.3375 -0.0491 0.7459
H9 H 0.5052 -0.0169 0.6623
H10 H 0.6185 0.3248 0.6283
H11 H 0.4674 0.3987 0.6861
H12 H 0.2938 0.3512 0.7513
K1C K 0.59334(6) 0.28499(3) 0.30507(5)
K1C_2 K 1.59334(6) 0.28499(3) 0.30507(5)
K1_2 K 0.09334(6) 0.21501(3) 0.80507(5)
O2C O 1.25684(19) 0.14645(10) 1.00632(15)
N1C N 0.8667(2) 0.26533(11) 0.88169(16)
N4C N 0.8860(2) 0.12575(11) 0.86285(18)
N5_2 N 1.3034(2) 0.11710(11) 0.76148(17)
N8_2 N 1.3363(2) 0.25353(11) 0.73725(15)
loop_
_geom_bond_atom_site_label_1
_geom_bond_atom_site_label_2
_geom_bond_site_symmetry_1
_geom_bond_site_symmetry_2
K1 O1 1_555 1_555
S1 O1 1_555 1_555
S2 O3 1_555 1_555
O2 S1 1_555 1_555
O4 K1 1_555 1_555
N1 C1 1_555 1_555
N2 S1 1_555 1_555
N3 S1 1_555 1_555
N4 C11 1_555 1_555
N5 C13 1_555 1_555
N6 S2 1_555 1_555
N7 S2 1_555 1_555
N8 C23 1_555 1_555
C1 C5 1_555 1_555
C2 N1 1_555 1_555
C3 C2 1_555 1_555
C4 C3 1_555 1_555
C5 C4 1_555 1_555
C6 N2 1_555 1_555
C7 N3 1_555 1_555
C8 C7 1_555 1_555
C9 C8 1_555 1_555
C10 C9 1_555 1_555
C11 C10 1_555 1_555
C12 N4 1_555 1_555
C13 C17 1_555 1_555
C14 N5 1_555 1_555
C15 C14 1_555 1_555
C16 C15 1_555 1_555
C17 C16 1_555 1_555
C18 N6 1_555 1_555
C19 N7 1_555 1_555
C20 C19 1_555 1_555
C21 C20 1_555 1_555
C22 C21 1_555 1_555
C23 C22 1_555 1_555
C24 N8 1_555 1_555
H1 C2 1_555 1_555
H2 C3 1_555 1_555
H3 C4 1_555 1_555
H4 C9 1_555 1_555
H5 C10 1_555 1_555
H6 C11 1_555 1_555
H7 C14 1_555 1_555
H8 C15 1_555 1_555
H9 C16 1_555 1_555
H10 C21 1_555 1_555
H11 C22 1_555 1_555
H12 C23 1_555 1_555
K1C O2 1_555 1_555
K1C_2 N1 1_555 1_555
K1_2 N5 1_555 1_555
O2C K1 1_555 1_555
N1C K1 1_555 1_555
N4C K1 1_555 1_555
N5_2 K1 1_555 1_555
N8_2 K1 1_555 1_555
S2 O4 1_555 1_555
N4 K1C_2 1_555 1_555
N8 K1_2 1_555 1_555
C1 C12 1_555 1_555
C5 C6 1_555 1_555
C6 C7 1_555 1_555
C8 C12 1_555 1_555
C13 C24 1_555 1_555
C17 C18 1_555 1_555
C18 C19 1_555 1_555
C20 C24 1_555 1_555

#END
