
#######################################################################
#
#                 Cambridge Crystallographic Data Centre
#                                CCDC 
#
#######################################################################
#
# If this CIF has been generated from an entry in the Cambridge 
# Structural Database, then it will include bibliographic, chemical, 
# crystal, experimental, refinement or atomic coordinate data resulting 
# from the CCDC's data processing and validation procedures.
#
#######################################################################

data_NALXIJ
_symmetry_cell_setting           monoclinic
_symmetry_space_group_name_H-M   'P 21/m'
_symmetry_Int_Tables_number      11
_space_group_name_Hall           '-P 2yb'
loop_
_symmetry_equiv_pos_site_id
_symmetry_equiv_pos_as_xyz
1 x,y,z
2 -x,1/2+y,-z
3 -x,-y,-z
4 x,1/2-y,z
_cell_length_a                   9.55(3)
_cell_length_b                   6.606(19)
_cell_length_c                   9.78(3)
_cell_angle_alpha                90
_cell_angle_beta                 108.64(5)
_cell_angle_gamma                90
_cell_volume                     584.63
loop_
_atom_site_label
_atom_site_type_symbol
_atom_site_fract_x
_atom_site_fract_y
_atom_site_fract_z
K1 K -0.36058(12) 0.2500 0.62856(12)
S1 S -0.54744(13) 0.2500 0.27757(13)
O1 O -0.4688(2) 0.4308(5) 0.3414(2)
N1 N -1.1958(4) 0.2500 -0.0763(5)
N2 N -0.7142(5) 0.2500 0.2940(4)
N3 N -0.5850(5) 0.2500 0.1027(5)
N4 N -1.0561(5) 0.2500 -0.2803(4)
C1 C -1.0464(5) 0.2500 -0.0309(5)
C2 C -1.2629(6) 0.2500 0.0253(6)
C3 C -1.1886(6) 0.2500 0.1711(6)
C4 C -1.0378(6) 0.2500 0.2188(5)
C5 C -0.9636(5) 0.2500 0.1160(5)
C6 C -0.8051(5) 0.2500 0.1576(5)
C7 C -0.7328(5) 0.2500 0.0497(5)
C8 C -0.8153(5) 0.2500 -0.1001(5)
C9 C -0.7494(6) 0.2500 -0.2069(6)
C10 C -0.8364(7) 0.2500 -0.3498(6)
C11 C -0.9887(7) 0.2500 -0.3785(6)
C12 C -0.9715(5) 0.2500 -0.1411(5)
H1 H -1.3678 0.2500 -0.0054
H2 H -1.2419 0.2500 0.2383
H3 H -0.9844 0.2500 0.3191
H4 H -0.6448 0.2500 -0.1821
H5 H -0.7941 0.2500 -0.4255
H6 H -1.0489 0.2500 -0.4769
K1A K -0.63942(12) 0.7500 0.37144(12)
K1_2 K -1.36058(12) 0.2500 -0.37144(12)
K1A_2 K -0.63942(12) -0.2500 0.37144(12)
O1C O -0.4688(2) 0.0692(5) 0.3414(2)
O1A O -0.5312(2) -0.0692(5) 0.6586(2)
O1B O -0.5312(2) 0.5692(5) 0.6586(2)
N1_2 N -0.1958(4) 0.2500 0.9237(5)
N4_2 N -0.0561(5) 0.2500 0.7197(4)
loop_
_geom_bond_atom_site_label_1
_geom_bond_atom_site_label_2
_geom_bond_site_symmetry_1
_geom_bond_site_symmetry_2
K1 O1 1_555 1_555
S1 O1 1_555 1_555
O1 K1A 1_555 1_555
N1 C1 1_555 1_555
N2 S1 1_555 1_555
N3 S1 1_555 1_555
N4 C11 1_555 1_555
C1 C5 1_555 1_555
C2 N1 1_555 1_555
C3 C2 1_555 1_555
C4 C3 1_555 1_555
C5 C4 1_555 1_555
C6 N2 1_555 1_555
C7 N3 1_555 1_555
C8 C7 1_555 1_555
C9 C8 1_555 1_555
C10 C9 1_555 1_555
C11 C10 1_555 1_555
C12 N4 1_555 1_555
H1 C2 1_555 1_555
H2 C3 1_555 1_555
H3 C4 1_555 1_555
H4 C9 1_555 1_555
H5 C10 1_555 1_555
H6 C11 1_555 1_555
K1A O1B 1_555 1_555
K1_2 N1 1_555 1_555
K1A_2 O1C 1_555 1_555
O1C K1 1_555 1_555
O1A K1 1_555 1_555
O1B K1 1_555 1_555
N1_2 K1 1_555 1_555
N4_2 K1 1_555 1_555
S1 O1C 1_555 1_555
N4 K1_2 1_555 1_555
C1 C12 1_555 1_555
C5 C6 1_555 1_555
C6 C7 1_555 1_555
C8 C12 1_555 1_555
K1A_2 O1A 1_555 1_555

#END
