
#######################################################################
#
#                 Cambridge Crystallographic Data Centre
#                                CCDC 
#
#######################################################################
#
# If this CIF has been generated from an entry in the Cambridge 
# Structural Database, then it will include bibliographic, chemical, 
# crystal, experimental, refinement or atomic coordinate data resulting 
# from the CCDC's data processing and validation procedures.
#
#######################################################################

data_NAMCUA
_symmetry_cell_setting           monoclinic
_symmetry_space_group_name_H-M   'P 21'
_symmetry_Int_Tables_number      4
_space_group_name_Hall           'P 2yb'
loop_
_symmetry_equiv_pos_site_id
_symmetry_equiv_pos_as_xyz
1 x,y,z
2 -x,1/2+y,-z
_cell_length_a                   8.963(6)
_cell_length_b                   5.394(4)
_cell_length_c                   9.097(6)
_cell_angle_alpha                90
_cell_angle_beta                 112.017(12)
_cell_angle_gamma                90
_cell_volume                     407.733
loop_
_atom_site_label
_atom_site_type_symbol
_atom_site_fract_x
_atom_site_fract_y
_atom_site_fract_z
Zn1 Zn -0.69291(4) -0.95050(8) -0.90065(4)
S1 S -0.19958(12) -1.18965(18) -0.48604(11)
N1 N -0.5106(3) -0.8695(6) -0.6938(4)
H1 H -0.5398 -0.7390 -0.6491
H2 H -0.4958 -0.9994 -0.6277
O1 O -0.5323(3) -0.7094(5) -0.9732(3)
O2 O -0.8494(3) -0.6617(5) -0.9885(3)
H3 H -0.8202 -0.5352 -1.0267
H4 H -0.9434 -0.6683 -0.9868
O3 O -0.2699(3) -0.6629(6) -0.9100(3)
O4 O -0.3661(3) -0.8671(5) -0.3259(3)
O5 O -0.1561(3) -0.6395(5) -0.1814(3)
C1 C -0.3923(4) -0.7221(7) -0.8780(4)
C2 C -0.3572(4) -0.8120(7) -0.7091(5)
H5 H -0.310(4) -0.677(9) -0.643(5)
C3 C -0.2424(5) -1.0356(8) -0.6728(5)
H6 H -0.142(5) -0.991(10) -0.674(4)
H7 H -0.300(5) -1.156(9) -0.749(5)
C4 C -0.1102(4) -0.9435(11) -0.3443(4)
H8 H -0.025(5) -1.018(9) -0.258(5)
H9 H -0.051(7) -0.784(13) -0.393(7)
C5 C -0.2236(4) -0.8145(8) -0.2822(4)
Zn1A Zn -0.30709(4) -0.45050(8) -1.09935(4)
Zn1A_2 Zn -0.30709(4) -0.45050(8) -0.09935(4)
O3A O -0.7301(3) -1.1629(6) -1.0900(3)
O5A O -0.8439(3) -1.1395(5) -0.8186(3)
loop_
_geom_bond_atom_site_label_1
_geom_bond_atom_site_label_2
_geom_bond_site_symmetry_1
_geom_bond_site_symmetry_2
Zn1 N1 1_555 1_555
S1 C3 1_555 1_555
N1 H1 1_555 1_555
H2 N1 1_555 1_555
O1 Zn1 1_555 1_555
O2 Zn1 1_555 1_555
H3 O2 1_555 1_555
H4 O2 1_555 1_555
O3 C1 1_555 1_555
O4 C5 1_555 1_555
O5 C5 1_555 1_555
C1 O1 1_555 1_555
C2 N1 1_555 1_555
H5 C2 1_555 1_555
C3 C2 1_555 1_555
H6 C3 1_555 1_555
H7 C3 1_555 1_555
C4 S1 1_555 1_555
H8 C4 1_555 1_555
H9 C4 1_555 1_555
C5 C4 1_555 1_555
Zn1A O3 1_555 1_555
Zn1A_2 O5 1_555 1_555
O3A Zn1 1_555 1_555
O5A Zn1 1_555 1_555
C1 C2 1_555 1_555

#END
