
#######################################################################
#
#                 Cambridge Crystallographic Data Centre
#                                CCDC 
#
#######################################################################
#
# If this CIF has been generated from an entry in the Cambridge 
# Structural Database, then it will include bibliographic, chemical, 
# crystal, experimental, refinement or atomic coordinate data resulting 
# from the CCDC's data processing and validation procedures.
#
#######################################################################

data_NAMDOV
_symmetry_cell_setting           monoclinic
_symmetry_space_group_name_H-M   'P 21/c'
_symmetry_Int_Tables_number      14
_space_group_name_Hall           '-P 2ybc'
loop_
_symmetry_equiv_pos_site_id
_symmetry_equiv_pos_as_xyz
1 x,y,z
2 -x,1/2+y,1/2-z
3 -x,-y,-z
4 x,1/2-y,1/2+z
_cell_length_a                   10.529(3)
_cell_length_b                   12.575(4)
_cell_length_c                   10.439(3)
_cell_angle_alpha                90
_cell_angle_beta                 93.844(4)
_cell_angle_gamma                90
_cell_volume                     1379.04
loop_
_atom_site_label
_atom_site_type_symbol
_atom_site_fract_x
_atom_site_fract_y
_atom_site_fract_z
La1 La 0.126789(15) 0.858492(13) 0.492123(15)
O1 O 0.3339(2) 0.9508(2) 0.5782(2)
O2 O 0.17871(18) 0.95731(18) 0.70975(19)
O3 O 0.7250(2) 1.1625(2) 0.6727(2)
O4 O 0.7680(2) 1.2287(2) 0.8656(2)
O5 O -0.0611(2) 0.78076(18) 0.6126(2)
O6 O -0.0931(2) 0.94732(17) 0.5620(2)
O7 O 0.0846(3) 0.6661(2) 0.4049(2)
H1 H 0.1311 0.6545 0.3432
H2 H 0.0926 0.6226 0.4676
O8 O -0.0210(2) 0.8723(2) 0.2917(2)
H3 H -0.0619 0.9305 0.2803
H4 H -0.0354 0.8248 0.2344
C1 C 0.2929(3) 0.9810(3) 0.6816(3)
C2 C 0.3747(3) 1.0456(3) 0.7737(3)
C3 C 0.3359(3) 1.0701(3) 0.8949(3)
H5 H 0.2572 1.0464 0.9189
C4 C 0.4129(4) 1.1290(4) 0.9798(4)
H6 H 0.3869 1.1434 1.0614
C5 C 0.5286(3) 1.1669(3) 0.9443(3)
H7 H 0.5795 1.2081 1.0011
C6 C 0.5689(3) 1.1432(3) 0.8229(3)
C7 C 0.4912(3) 1.0832(3) 0.7383(3)
H8 H 0.5174 1.0679 0.6570
C8 C 0.6963(3) 1.1814(3) 0.7844(3)
C9 C -0.1283(3) 0.8635(3) 0.6150(3)
C10 C -0.2513(5) 0.8627(4) 0.6799(6)
H9 H -0.2513 0.9197 0.7410
H10 H -0.2602 0.7961 0.7233
H11 H -0.3211 0.8718 0.6168
La1B La 0.873211(15) 1.141508(13) 0.507877(15)
La1A La 0.873211(15) 1.358492(13) 1.007877(15)
La1B_2 La -0.126789(15) 1.141508(13) 0.507877(15)
O3B O 0.2750(2) 0.8375(2) 0.3273(2)
O4A O 0.2320(2) 0.7287(2) 0.6344(2)
O6B O 0.0931(2) 1.05268(17) 0.4380(2)
O9 O 0.0997(6) -0.0052(4) 0.0914(5)
H12 H 0.0843 -0.0321 0.1648
H13 H 0.1004 0.0637 0.0903
loop_
_geom_bond_atom_site_label_1
_geom_bond_atom_site_label_2
_geom_bond_site_symmetry_1
_geom_bond_site_symmetry_2
La1 O1 1_555 1_555
O1 C1 1_555 1_555
O2 La1 1_555 1_555
O3 C8 1_555 1_555
O4 C8 1_555 1_555
O5 La1 1_555 1_555
O6 La1 1_555 1_555
O7 La1 1_555 1_555
H1 O7 1_555 1_555
H2 O7 1_555 1_555
O8 La1 1_555 1_555
H3 O8 1_555 1_555
H4 O8 1_555 1_555
C1 O2 1_555 1_555
C2 C1 1_555 1_555
C3 C2 1_555 1_555
H5 C3 1_555 1_555
C4 C3 1_555 1_555
H6 C4 1_555 1_555
C5 C4 1_555 1_555
H7 C5 1_555 1_555
C6 C5 1_555 1_555
C7 C2 1_555 1_555
H8 C7 1_555 1_555
C8 C6 1_555 1_555
C9 O5 1_555 1_555
C10 C9 1_555 1_555
H9 C10 1_555 1_555
H10 C10 1_555 1_555
H11 C10 1_555 1_555
O9 H12 1_555 1_555
H13 O9 1_555 1_555
La1B O3 1_555 1_555
La1A O4 1_555 1_555
La1B_2 O6 1_555 1_555
O3B La1 1_555 1_555
O4A La1 1_555 1_555
O6B La1 1_555 1_555
O6 C9 1_555 1_555
C6 C7 1_555 1_555
La1B_2 O6B 1_555 1_555

#END
