
#######################################################################
#
#                 Cambridge Crystallographic Data Centre
#                                CCDC 
#
#######################################################################
#
# If this CIF has been generated from an entry in the Cambridge 
# Structural Database, then it will include bibliographic, chemical, 
# crystal, experimental, refinement or atomic coordinate data resulting 
# from the CCDC's data processing and validation procedures.
#
#######################################################################

data_NAMDAH
_symmetry_cell_setting           orthorhombic
_symmetry_space_group_name_H-M   'P 21 21 21'
_symmetry_Int_Tables_number      19
_space_group_name_Hall           'P 2ac 2ab'
loop_
_symmetry_equiv_pos_site_id
_symmetry_equiv_pos_as_xyz
1 x,y,z
2 1/2-x,-y,1/2+z
3 -x,1/2+y,1/2-z
4 1/2+x,1/2-y,-z
_cell_length_a                   7.562(4)
_cell_length_b                   8.637(4)
_cell_length_c                   16.955(9)
_cell_angle_alpha                90
_cell_angle_beta                 90
_cell_angle_gamma                90
_cell_volume                     1107.38
loop_
_atom_site_label
_atom_site_type_symbol
_atom_site_fract_x
_atom_site_fract_y
_atom_site_fract_z
Cd1 Cd -1.03256(6) -0.24574(8) -0.68629(3)
S1 S -0.8796(3) -0.1231(2) -0.55369(12)
N1 N -0.7372(8) -0.2853(9) -0.7108(4)
H1 H -0.7128 -0.3856 -0.7015
H2 H -0.7177 -0.2679 -0.7625
O1 O -1.0434(14) -0.4749(8) -0.6081(4)
H3 H -1.1436 -0.4968 -0.5783
O2 O -0.9683(8) 0.0251(7) -0.7106(3)
O3 O -0.8908(8) 0.2604(7) -0.6809(3)
O5 O -0.3042(8) -0.1570(9) -0.6546(4)
O7 O -0.3966(10) -0.3831(9) -0.6921(6)
H7 H -0.9471 -0.5414 -0.6076
C1 C -0.9122(10) 0.1198(10) -0.6631(4)
C2 C -0.8679(13) 0.0779(10) -0.5786(5)
H9 H -0.9477 0.1340 -0.5442
H10 H -0.7490 0.1140 -0.5675
C3 C -0.6616(11) -0.1911(11) -0.5780(5)
H11 H -0.5766 -0.1277 -0.5498
H12 H -0.6498 -0.2961 -0.5584
C4 C -0.6113(12) -0.1907(10) -0.6654(5)
H13 H -0.6164 -0.0840 -0.6849
C5 C -0.4214(10) -0.2490(14) -0.6728(4)
Cd1B Cd -0.96744(6) 0.25426(8) -0.81371(3)
Cd1_2 Cd -0.03256(6) -0.24574(8) -0.68629(3)
O2B O -1.0317(8) -0.4749(7) -0.7894(3)
O3B O -1.1092(8) -0.2396(7) -0.8191(3)
O5_2 O -1.3042(8) -0.1570(9) -0.6546(4)
O4 O -0.3130(16) 0.0863(19) -0.5559(11)
H4 H -0.2346 0.0486 -0.5255
H5 H -0.3224 0.1839 -0.5610
O6 O -0.514(5) -0.651(2) -0.6184(10)
H6 H -0.4284 -0.6400 -0.5862
H8 H -0.5533 -0.7423 -0.6318
loop_
_geom_bond_atom_site_label_1
_geom_bond_atom_site_label_2
_geom_bond_site_symmetry_1
_geom_bond_site_symmetry_2
Cd1 S1 1_555 1_555
S1 C2 1_555 1_555
N1 Cd1 1_555 1_555
H1 N1 1_555 1_555
H2 N1 1_555 1_555
O1 Cd1 1_555 1_555
H3 O1 1_555 1_555
O2 Cd1 1_555 1_555
O3 C1 1_555 1_555
O4 H4 1_555 1_555
H5 O4 1_555 1_555
O5 C5 1_555 1_555
O6 H6 1_555 1_555
O7 C5 1_555 1_555
H7 O1 1_555 1_555
H8 O6 1_555 1_555
C1 O2 1_555 1_555
C2 C1 1_555 1_555
H9 C2 1_555 1_555
H10 C2 1_555 1_555
C3 S1 1_555 1_555
H11 C3 1_555 1_555
H12 C3 1_555 1_555
C4 N1 1_555 1_555
H13 C4 1_555 1_555
C5 C4 1_555 1_555
Cd1B O2 1_555 1_555
Cd1_2 O5 1_555 1_555
O2B Cd1 1_555 1_555
O3B Cd1 1_555 1_555
O5_2 Cd1 1_555 1_555
O3 Cd1B 1_555 1_555
C3 C4 1_555 1_555

#END
