
#######################################################################
#
#                 Cambridge Crystallographic Data Centre
#                                CCDC 
#
#######################################################################
#
# If this CIF has been generated from an entry in the Cambridge 
# Structural Database, then it will include bibliographic, chemical, 
# crystal, experimental, refinement or atomic coordinate data resulting 
# from the CCDC's data processing and validation procedures.
#
#######################################################################

data_NAMHEP
_symmetry_cell_setting           monoclinic
_symmetry_space_group_name_H-M   'C 2/c'
_symmetry_Int_Tables_number      15
_space_group_name_Hall           '-C 2yn'
loop_
_symmetry_equiv_pos_site_id
_symmetry_equiv_pos_as_xyz
1 x,y,z
2 1/2+x,1/2+y,z
3 -x,y,1/2-z
4 1/2-x,1/2+y,1/2-z
5 -x,-y,-z
6 1/2-x,1/2-y,-z
7 x,-y,1/2+z
8 1/2+x,1/2-y,1/2+z
_cell_length_a                   21.132(4)
_cell_length_b                   8.6460(17)
_cell_length_c                   6.1960(12)
_cell_angle_alpha                90
_cell_angle_beta                 90.67(3)
_cell_angle_gamma                90
_cell_volume                     1131.98
loop_
_atom_site_label
_atom_site_type_symbol
_atom_site_fract_x
_atom_site_fract_y
_atom_site_fract_z
Na1 Na 0.04833(4) 0.67577(9) 0.49246(12)
O1 O 0.0000 0.8603(2) 0.2500
O2 O 0.06105(6) 0.39351(16) 0.3985(2)
O3 O 0.11697(6) 0.29161(15) 0.6720(2)
O4 O 0.16671(7) 0.35090(15) 0.1220(2)
C1 C 0.15192(8) 0.0723(2) 0.1961(3)
O5 O 0.18308(6) -0.05590(16) 0.2321(2)
O6 O 0.09561(6) 0.08160(15) 0.1500(2)
C2 C 0.11050(8) 0.34179(19) 0.4804(3)
C3 C 0.17124(8) 0.3441(2) 0.3526(3)
C4 C 0.19254(8) 0.2130(2) 0.2181(3)
H1 H 0.2042(11) 0.413(3) 0.408(4)
H2 H 0.1573(15) -0.144(3) 0.214(5)
H3 H 0.2369(12) 0.193(3) 0.197(4)
H4 H 0.0329(15) 0.921(4) 0.221(5)
Na1B Na -0.04833(4) 0.67577(9) 0.00754(12)
Na1F Na 0.04833(4) 0.32423(9) -0.00754(12)
Na1D Na -0.04833(4) 0.32423(9) 0.50754(12)
Na1F_2 Na 0.04833(4) 0.32423(9) 0.99246(12)
Na1B_2 Na -0.04833(4) 0.67577(9) 1.00754(12)
Na1_2 Na 0.04833(4) 0.67577(9) 1.49246(12)
O2F O 0.06105(6) 0.60649(16) 0.8985(2)
O2D O -0.06105(6) 0.60649(16) 0.6015(2)
O2F_2 O 0.06105(6) 0.60649(16) -0.1015(2)
O2D_2 O -0.06105(6) 0.60649(16) -0.3985(2)
O2B O -0.06105(6) 0.39351(16) 0.1015(2)
O3F O 0.11697(6) 0.70839(15) 1.1720(2)
O3F_2 O 0.11697(6) 0.70839(15) 0.1720(2)
O3D O -0.11697(6) 0.70839(15) 0.3280(2)
O4F O 0.16671(7) 0.64910(15) 0.6220(2)
O4D O -0.16671(7) 0.64910(15) -0.1220(2)
C1F C 0.15192(8) 0.9277(2) 0.6961(3)
O5F O 0.18308(6) 1.05590(16) 0.7321(2)
O6F O 0.09561(6) 0.91840(15) 0.6500(2)
O6D O -0.09561(6) 0.91840(15) -0.1500(2)
C2F C 0.11050(8) 0.65821(19) 0.9804(3)
C3F C 0.17124(8) 0.6559(2) 0.8526(3)
C4F C 0.19254(8) 0.7870(2) 0.7181(3)
H1F H 0.2042(11) 0.587(3) 0.908(4)
H2F H 0.1573(15) 1.144(3) 0.714(5)
H3F H 0.2369(12) 0.807(3) 0.697(4)
H4B H -0.0329(15) 0.921(4) 0.279(5)
loop_
_geom_bond_atom_site_label_1
_geom_bond_atom_site_label_2
_geom_bond_site_symmetry_1
_geom_bond_site_symmetry_2
Na1 O1 1_555 1_555
O1 H4 1_555 1_555
O2 Na1 1_555 1_555
O3 C2 1_555 1_555
O4 C3 1_555 1_555
C1 O5 1_555 1_555
O5 H2 1_555 1_555
O6 C1 1_555 1_555
C2 O2 1_555 1_555
C3 C2 1_555 1_555
C4 O4 1_555 1_555
H1 C3 1_555 1_555
H3 C4 1_555 1_555
Na1B O1 1_555 1_555
Na1F O2 1_555 1_555
Na1D O2 1_555 1_555
Na1F_2 O3 1_555 1_555
Na1B_2 O2F 1_555 1_555
Na1_2 O3F 1_555 1_555
O2F Na1 1_555 1_555
O2D Na1 1_555 1_555
O2F_2 Na1B 1_555 1_555
O2D_2 Na1B 1_555 1_555
O2B Na1B 1_555 1_555
O3F C2F 1_555 1_555
O3F_2 Na1 1_555 1_555
O3D Na1B 1_555 1_555
O4F Na1 1_555 1_555
O4D Na1B 1_555 1_555
C1F O5F 1_555 1_555
O5F H2F 1_555 1_555
O6F Na1 1_555 1_555
O6D Na1B 1_555 1_555
C2F O2F 1_555 1_555
C3F O4F 1_555 1_555
C4F O4F 1_555 1_555
H1F C3F 1_555 1_555
H3F C4F 1_555 1_555
H4B O1 1_555 1_555
O4 Na1F 1_555 1_555
C1 C4 1_555 1_555
O6 Na1F 1_555 1_555
C3 C4 1_555 1_555
Na1F O2F_2 1_555 1_555
Na1F O2B 1_555 1_555
Na1D O2D 1_555 1_555
Na1D O2B 1_555 1_555
Na1F_2 O2F 1_555 1_555
Na1B_2 O2D 1_555 1_555
C1F O6F 1_555 1_555
C1F C4F 1_555 1_555
C2F C3F 1_555 1_555
C3F C4F 1_555 1_555

#END
