
#######################################################################
#
#                 Cambridge Crystallographic Data Centre
#                                CCDC 
#
#######################################################################
#
# If this CIF has been generated from an entry in the Cambridge 
# Structural Database, then it will include bibliographic, chemical, 
# crystal, experimental, refinement or atomic coordinate data resulting 
# from the CCDC's data processing and validation procedures.
#
#######################################################################

data_NAMHUF
_symmetry_cell_setting           monoclinic
_symmetry_space_group_name_H-M   'P 21/n'
_symmetry_Int_Tables_number      14
_space_group_name_Hall           '-P 2yn'
loop_
_symmetry_equiv_pos_site_id
_symmetry_equiv_pos_as_xyz
1 x,y,z
2 1/2-x,1/2+y,1/2-z
3 -x,-y,-z
4 1/2+x,1/2-y,1/2+z
_cell_length_a                   8.980(3)
_cell_length_b                   15.803(5)
_cell_length_c                   13.415(4)
_cell_angle_alpha                90
_cell_angle_beta                 98.450(5)
_cell_angle_gamma                90
_cell_volume                     1883.07
loop_
_atom_site_label
_atom_site_type_symbol
_atom_site_fract_x
_atom_site_fract_y
_atom_site_fract_z
Cd1 Cd 0.280381(18) 0.244928(10) 0.608445(13)
O1 O 0.1978(2) 0.14427(10) 0.46899(14)
O2 O 0.1234(2) 0.11615(10) 0.61467(14)
C1 C 0.1275(3) 0.09957(14) 0.5236(2)
C2 C 0.0450(3) 0.02336(13) 0.47729(19)
H1 H 0.0586 0.0084 0.4122
O3 O 0.40380(19) 0.32187(10) 0.49314(14)
O4 O 0.4408(2) 0.39512(11) 0.63511(14)
C3 C 0.4410(3) 0.38845(14) 0.5423(2)
C4 C 0.4842(3) 0.46232(13) 0.48182(19)
H2 H 0.4888 0.4535 0.4138
N1 N 0.0785(2) 0.32728(13) 0.54975(17)
N2 N -0.0923(3) 0.39510(15) 0.4478(2)
H3 H -0.1425 0.4142 0.3929
N3 N 0.2379(2) 0.26984(12) 0.77101(16)
N4 N 0.1142(3) 0.26955(16) 0.8984(2)
H4 H 0.0483 0.2562 0.9362
N5 N 0.4972(2) 0.16819(13) 0.65313(17)
N6 N 0.6491(3) 0.06175(15) 0.69404(19)
H5 H 0.6803 0.0109 0.7070
C5 C 0.0271(3) 0.34501(19) 0.4555(2)
H6 H 0.0693 0.3249 0.4009
C6 C -0.0154(3) 0.3688(2) 0.6040(2)
H7 H -0.0078 0.3683 0.6739
C7 C -0.1202(4) 0.4104(2) 0.5415(3)
H8 H -0.1976 0.4435 0.5595
C8 C 0.1277(3) 0.23646(17) 0.8110(2)
H9 H 0.0656 0.1938 0.7807
C9 C 0.2986(4) 0.3280(2) 0.8392(2)
H10 H 0.3805 0.3624 0.8323
C10 C 0.2227(5) 0.3284(3) 0.9183(3)
H11 H 0.2414 0.3624 0.9754
C11 C 0.5084(3) 0.08590(18) 0.6667(3)
H12 H 0.4268 0.0491 0.6581
C12 C 0.6399(3) 0.19643(19) 0.6737(3)
H13 H 0.6693 0.2527 0.6715
C13 C 0.7329(4) 0.1308(2) 0.6977(3)
H14 H 0.8371 0.1334 0.7140
Cd1B Cd -0.280381(18) -0.244928(10) 0.391555(13)
Cd1B_2 Cd 0.719619(18) 0.755072(10) 0.391555(13)
O1B O -0.1978(2) -0.14427(10) 0.53101(14)
O2B O -0.1234(2) -0.11615(10) 0.38533(14)
C1B C -0.1275(3) -0.09957(14) 0.4764(2)
C2B C -0.0450(3) -0.02336(13) 0.52271(19)
H1B H -0.0586 -0.0084 0.5878
O3B O 0.59620(19) 0.67813(10) 0.50686(14)
O3B_2 O -0.40380(19) -0.32187(10) 0.50686(14)
O4B O 0.5592(2) 0.60488(11) 0.36489(14)
C3B C 0.5590(3) 0.61155(14) 0.4577(2)
C4B C 0.5158(3) 0.53768(13) 0.51818(19)
H2B H 0.5112 0.5465 0.5862
N1B N -0.0785(2) -0.32728(13) 0.45025(17)
N2B N 0.0923(3) -0.39510(15) 0.5522(2)
H3B H 0.1425 -0.4142 0.6071
N3B N -0.2379(2) -0.26984(12) 0.22899(16)
N4B N -0.1142(3) -0.26955(16) 0.1016(2)
H4B H -0.0483 -0.2562 0.0638
N5B N -0.4972(2) -0.16819(13) 0.34687(17)
N6B N -0.6491(3) -0.06175(15) 0.30596(19)
H5B H -0.6803 -0.0109 0.2930
C5B C -0.0271(3) -0.34501(19) 0.5445(2)
H6B H -0.0693 -0.3249 0.5991
C6B C 0.0154(3) -0.3688(2) 0.3960(2)
H7B H 0.0078 -0.3683 0.3261
C7B C 0.1202(4) -0.4104(2) 0.4585(3)
H8B H 0.1976 -0.4435 0.4405
C8B C -0.1277(3) -0.23646(17) 0.1890(2)
H9B H -0.0656 -0.1938 0.2193
C9B C -0.2986(4) -0.3280(2) 0.1608(2)
H10B H -0.3805 -0.3624 0.1677
C10B C -0.2227(5) -0.3284(3) 0.0817(3)
H11B H -0.2414 -0.3624 0.0246
C11B C -0.5084(3) -0.08590(18) 0.3333(3)
H12B H -0.4268 -0.0491 0.3419
C12B C -0.6399(3) -0.19643(19) 0.3263(3)
H13B H -0.6693 -0.2527 0.3285
C13B C -0.7329(4) -0.1308(2) 0.3023(3)
H14B H -0.8371 -0.1334 0.2860
O5 O 0.2180(2) 0.02878(13) 0.78913(15)
H15 H 0.1831 0.0489 0.7316
H16 H 0.1756 -0.0178 0.7996
O6 O 0.7188(2) 0.40462(12) 0.77304(15)
H17 H 0.6347 0.3983 0.7355
H18 H 0.7140 0.3875 0.8326
loop_
_geom_bond_atom_site_label_1
_geom_bond_atom_site_label_2
_geom_bond_site_symmetry_1
_geom_bond_site_symmetry_2
Cd1 O1 1_555 1_555
O1 C1 1_555 1_555
O2 Cd1 1_555 1_555
C1 O2 1_555 1_555
C2 C1 1_555 1_555
H1 C2 1_555 1_555
O3 Cd1 1_555 1_555
O4 C3 1_555 1_555
C3 O3 1_555 1_555
C4 C3 1_555 1_555
H2 C4 1_555 1_555
N1 Cd1 1_555 1_555
N2 H3 1_555 1_555
N3 Cd1 1_555 1_555
N4 H4 1_555 1_555
N5 Cd1 1_555 1_555
N6 H5 1_555 1_555
C5 N1 1_555 1_555
H6 C5 1_555 1_555
C6 N1 1_555 1_555
H7 C6 1_555 1_555
C7 N2 1_555 1_555
H8 C7 1_555 1_555
C8 N3 1_555 1_555
H9 C8 1_555 1_555
C9 N3 1_555 1_555
H10 C9 1_555 1_555
C10 N4 1_555 1_555
H11 C10 1_555 1_555
C11 N5 1_555 1_555
H12 C11 1_555 1_555
C12 N5 1_555 1_555
H13 C12 1_555 1_555
C13 N6 1_555 1_555
H14 C13 1_555 1_555
O5 H15 1_555 1_555
H16 O5 1_555 1_555
O6 H17 1_555 1_555
H18 O6 1_555 1_555
Cd1B O1B 1_555 1_555
Cd1B_2 O3B 1_555 1_555
O1B C1B 1_555 1_555
O2B Cd1B 1_555 1_555
C1B O2B 1_555 1_555
C2B C2 1_555 1_555
H1B C2B 1_555 1_555
O3B C3B 1_555 1_555
O3B_2 Cd1B 1_555 1_555
O4B C3B 1_555 1_555
C3B C4B 1_555 1_555
C4B C4 1_555 1_555
H2B C4B 1_555 1_555
N1B Cd1B 1_555 1_555
N2B H3B 1_555 1_555
N3B Cd1B 1_555 1_555
N4B H4B 1_555 1_555
N5B Cd1B 1_555 1_555
N6B H5B 1_555 1_555
C5B N1B 1_555 1_555
H6B C5B 1_555 1_555
C6B N1B 1_555 1_555
H7B C6B 1_555 1_555
C7B N2B 1_555 1_555
H8B C7B 1_555 1_555
C8B N3B 1_555 1_555
H9B C8B 1_555 1_555
C9B N3B 1_555 1_555
H10B C9B 1_555 1_555
C10B N4B 1_555 1_555
H11B C10B 1_555 1_555
C11B N5B 1_555 1_555
H12B C11B 1_555 1_555
C12B N5B 1_555 1_555
H13B C12B 1_555 1_555
C13B N6B 1_555 1_555
H14B C13B 1_555 1_555
N2 C5 1_555 1_555
N4 C8 1_555 1_555
N6 C11 1_555 1_555
C6 C7 1_555 1_555
C9 C10 1_555 1_555
C12 C13 1_555 1_555
C1B C2B 1_555 1_555
N2B C5B 1_555 1_555
N4B C8B 1_555 1_555
N6B C11B 1_555 1_555
C6B C7B 1_555 1_555
C9B C10B 1_555 1_555
C12B C13B 1_555 1_555

#END
