
#######################################################################
#
#                 Cambridge Crystallographic Data Centre
#                                CCDC 
#
#######################################################################
#
# If this CIF has been generated from an entry in the Cambridge 
# Structural Database, then it will include bibliographic, chemical, 
# crystal, experimental, refinement or atomic coordinate data resulting 
# from the CCDC's data processing and validation procedures.
#
#######################################################################

data_NAMJOC
_symmetry_cell_setting           monoclinic
_symmetry_space_group_name_H-M   'C 2/c'
_symmetry_Int_Tables_number      15
_space_group_name_Hall           '-C 2yn'
loop_
_symmetry_equiv_pos_site_id
_symmetry_equiv_pos_as_xyz
1 x,y,z
2 -x,y,1/2-z
3 1/2+x,1/2+y,z
4 1/2-x,1/2+y,1/2-z
5 -x,-y,-z
6 x,-y,1/2+z
7 1/2-x,1/2-y,-z
8 1/2+x,1/2-y,1/2+z
_cell_length_a                   30.002(7)
_cell_length_b                   7.9126(16)
_cell_length_c                   26.166(9)
_cell_angle_alpha                90
_cell_angle_beta                 114.08(3)
_cell_angle_gamma                90
_cell_volume                     5671.09
loop_
_atom_site_label
_atom_site_type_symbol
_atom_site_fract_x
_atom_site_fract_y
_atom_site_fract_z
Nd1 Nd 0.0000 -0.73258(4) 0.2500
Cs1 Cs 0.0000 -0.23370(5) 0.2500
O1 O 0.06295(11) -0.5590(4) 0.24186(10)
O2 O -0.03276(11) -0.5588(4) 0.16542(10)
O3 O 0.03346(11) 0.0918(3) 0.19791(10)
O4 O -0.06313(11) 0.0975(3) 0.18147(11)
C1 C 0.15822(17) -0.5840(5) 0.25484(17)
H1 H 0.1482 -0.6492 0.2788
C2 C 0.20757(18) -0.5719(7) 0.2657(2)
H2 H 0.2311 -0.6301 0.2968
C3 C 0.22237(19) -0.4759(7) 0.2317(2)
H3 H 0.2561 -0.4669 0.2394
C4 C 0.18823(18) -0.3928(7) 0.18649(19)
H4 H 0.1985 -0.3262 0.1630
C5 C 0.13948(16) -0.4054(5) 0.17505(17)
H5 H 0.1163 -0.3482 0.1435
C6 C 0.12348(15) -0.5010(4) 0.20903(16)
C7 C 0.07103(15) -0.5195(4) 0.19885(15)
C8 C 0.03471(16) -0.4960(5) 0.14528(16)
H6 H 0.0446 -0.4626 0.1166
C9 C -0.01477(16) -0.5178(4) 0.13091(15)
C10 C -0.05172(14) -0.4922(4) 0.07092(15)
C11 C -0.03943(15) -0.4201(5) 0.02988(14)
H7 H -0.0067 -0.3873 0.0387
C12 C -0.07498(17) -0.3961(5) -0.02397(16)
H8 H -0.0666 -0.3440 -0.0516
C13 C -0.12262(17) -0.4480(6) -0.03751(16)
H9 H -0.1468 -0.4316 -0.0744
C14 C -0.13490(17) -0.5237(5) 0.00270(18)
H10 H -0.1673 -0.5618 -0.0066
C15 C -0.09936(15) -0.5435(5) 0.05698(15)
H11 H -0.1080 -0.5929 0.0848
C16 C 0.10207(15) 0.0676(5) 0.15424(16)
H12 H 0.1102 0.1197 0.1896
C17 C 0.13785(18) 0.0457(6) 0.13459(19)
H13 H 0.1701 0.0843 0.1560
C18 C 0.12658(19) -0.0338(6) 0.08289(19)
H14 H 0.1511 -0.0506 0.0693
C19 C 0.07949(18) -0.0874(6) 0.05213(18)
H15 H 0.0718 -0.1426 0.0173
C20 C 0.04314(16) -0.0619(5) 0.07111(15)
H16 H 0.0106 -0.0967 0.0488
C21 C 0.05422(15) 0.0151(4) 0.12326(15)
C22 C 0.01657(16) 0.0426(4) 0.14668(14)
C23 C -0.03276(17) 0.0176(5) 0.11433(17)
H17 H -0.0420 -0.0224 0.0772
C24 C -0.06986(15) 0.0471(4) 0.13257(14)
C25 C -0.12222(15) 0.0261(5) 0.09251(15)
C26 C -0.13617(16) -0.0929(5) 0.04946(16)
H18 H -0.1124 -0.1628 0.0447
C27 C -0.18561(18) -0.1082(6) 0.01338(18)
H19 H -0.1954 -0.1927 -0.0149
C28 C -0.21998(18) -0.0033(6) 0.01818(19)
H20 H -0.2532 -0.0125 -0.0074
C29 C -0.20609(17) 0.1166(6) 0.0606(2)
H21 H -0.2298 0.1897 0.0641
C30 C -0.15774(17) 0.1293(5) 0.09771(18)
H22 H -0.1486 0.2096 0.1272
Nd1_2 Nd 0.0000 0.26742(4) 0.2500
O1A O -0.06295(11) -0.5590(4) 0.25814(10)
O2A O 0.03276(11) -0.5588(4) 0.33458(10)
O3_2 O 0.03346(11) -0.9082(3) 0.19791(10)
O3A O -0.03346(11) -0.9082(3) 0.30209(10)
O3A_2 O -0.03346(11) 0.0918(3) 0.30209(10)
O4_2 O -0.06313(11) -0.9025(3) 0.18147(11)
O4A O 0.06313(11) -0.9025(3) 0.31853(11)
O4A_2 O 0.06313(11) 0.0975(3) 0.31853(11)
C1A C -0.15822(17) -0.5840(5) 0.24516(17)
H1A H -0.1482 -0.6492 0.2212
C2A C -0.20757(18) -0.5719(7) 0.2343(2)
H2A H -0.2311 -0.6301 0.2032
C3A C -0.22237(19) -0.4759(7) 0.2683(2)
H3A H -0.2561 -0.4669 0.2606
C4A C -0.18823(18) -0.3928(7) 0.31351(19)
H4A H -0.1985 -0.3262 0.3370
C5A C -0.13948(16) -0.4054(5) 0.32495(17)
H5A H -0.1163 -0.3482 0.3565
C6A C -0.12348(15) -0.5010(4) 0.29097(16)
C7A C -0.07103(15) -0.5195(4) 0.30115(15)
C8A C -0.03471(16) -0.4960(5) 0.35472(16)
H6A H -0.0446 -0.4626 0.3834
C9A C 0.01477(16) -0.5178(4) 0.36909(15)
C10A C 0.05172(14) -0.4922(4) 0.42908(15)
C11A C 0.03943(15) -0.4201(5) 0.47012(14)
H7A H 0.0067 -0.3873 0.4613
C12A C 0.07498(17) -0.3961(5) 0.52397(16)
H8A H 0.0666 -0.3440 0.5516
C13A C 0.12262(17) -0.4480(6) 0.53751(16)
H9A H 0.1468 -0.4316 0.5744
C14A C 0.13490(17) -0.5237(5) 0.49730(18)
H10A H 0.1673 -0.5618 0.5066
C15A C 0.09936(15) -0.5435(5) 0.44302(15)
H11A H 0.1080 -0.5929 0.4152
C16A C -0.10207(15) 0.0676(5) 0.34576(16)
H12A H -0.1102 0.1197 0.3104
C17A C -0.13785(18) 0.0457(6) 0.36541(19)
H13A H -0.1701 0.0843 0.3440
C18A C -0.12658(19) -0.0338(6) 0.41711(19)
H14A H -0.1511 -0.0506 0.4307
C19A C -0.07949(18) -0.0874(6) 0.44787(18)
H15A H -0.0718 -0.1426 0.4827
C20A C -0.04314(16) -0.0619(5) 0.42889(15)
H16A H -0.0106 -0.0967 0.4512
C21A C -0.05422(15) 0.0151(4) 0.37674(15)
C22A C -0.01657(16) 0.0426(4) 0.35332(14)
C23A C 0.03276(17) 0.0176(5) 0.38567(17)
H17A H 0.0420 -0.0224 0.4228
C24A C 0.06986(15) 0.0471(4) 0.36743(14)
C25A C 0.12222(15) 0.0261(5) 0.40749(15)
C26A C 0.13617(16) -0.0929(5) 0.45054(16)
H18A H 0.1124 -0.1628 0.4553
C27A C 0.18561(18) -0.1082(6) 0.48662(18)
H19A H 0.1954 -0.1927 0.5149
C28A C 0.21998(18) -0.0033(6) 0.48182(19)
H20A H 0.2532 -0.0125 0.5074
C29A C 0.20609(17) 0.1166(6) 0.4394(2)
H21A H 0.2298 0.1897 0.4359
C30A C 0.15774(17) 0.1293(5) 0.40229(18)
H22A H 0.1486 0.2096 0.3728
O5 O 0.3118(3) -0.9684(7) 0.1048(2)
N1 N 0.31631(17) -0.7368(5) 0.16047(16)
C31 C 0.3382(3) -0.8534(8) 0.1412(2)
H23 H 0.3727 -0.8531 0.1538
C32 C 0.2638(2) -0.7260(8) 0.1390(2)
H24 H 0.2492 -0.8225 0.1144
H25 H 0.2528 -0.6207 0.1179
H26 H 0.2538 -0.7275 0.1703
C33 C 0.3438(3) -0.6220(9) 0.2048(2)
H27 H 0.3788 -0.6400 0.2155
H28 H 0.3360 -0.6426 0.2373
H29 H 0.3353 -0.5054 0.1920
loop_
_geom_bond_atom_site_label_1
_geom_bond_atom_site_label_2
_geom_bond_site_symmetry_1
_geom_bond_site_symmetry_2
Nd1 O1 1_555 1_555
Cs1 O1 1_555 1_555
O1 C7 1_555 1_555
O2 Nd1 1_555 1_555
O3 Cs1 1_555 1_555
O4 Cs1 1_555 1_555
C1 H1 1_555 1_555
C2 C1 1_555 1_555
H2 C2 1_555 1_555
C3 C2 1_555 1_555
H3 C3 1_555 1_555
C4 C3 1_555 1_555
H4 C4 1_555 1_555
C5 C4 1_555 1_555
H5 C5 1_555 1_555
C6 C1 1_555 1_555
C7 C6 1_555 1_555
C8 C7 1_555 1_555
H6 C8 1_555 1_555
C9 O2 1_555 1_555
C10 C9 1_555 1_555
C11 C10 1_555 1_555
H7 C11 1_555 1_555
C12 C11 1_555 1_555
H8 C12 1_555 1_555
C13 C12 1_555 1_555
H9 C13 1_555 1_555
C14 C13 1_555 1_555
H10 C14 1_555 1_555
C15 C10 1_555 1_555
H11 C15 1_555 1_555
C16 H12 1_555 1_555
C17 C16 1_555 1_555
H13 C17 1_555 1_555
C18 C17 1_555 1_555
H14 C18 1_555 1_555
C19 C18 1_555 1_555
H15 C19 1_555 1_555
C20 C19 1_555 1_555
H16 C20 1_555 1_555
C21 C16 1_555 1_555
C22 O3 1_555 1_555
C23 C22 1_555 1_555
H17 C23 1_555 1_555
C24 O4 1_555 1_555
C25 C24 1_555 1_555
C26 C25 1_555 1_555
H18 C26 1_555 1_555
C27 C26 1_555 1_555
H19 C27 1_555 1_555
C28 C27 1_555 1_555
H20 C28 1_555 1_555
C29 C28 1_555 1_555
H21 C29 1_555 1_555
C30 C25 1_555 1_555
H22 C30 1_555 1_555
O5 C31 1_555 1_555
N1 C31 1_555 1_555
C31 H23 1_555 1_555
C32 N1 1_555 1_555
H24 C32 1_555 1_555
H25 C32 1_555 1_555
H26 C32 1_555 1_555
C33 N1 1_555 1_555
H27 C33 1_555 1_555
H28 C33 1_555 1_555
H29 C33 1_555 1_555
Nd1_2 O3 1_555 1_555
O1A Nd1 1_555 1_555
O2A Nd1 1_555 1_555
O3_2 Nd1 1_555 1_555
O3A Nd1 1_555 1_555
O3A_2 Cs1 1_555 1_555
O4_2 Nd1 1_555 1_555
O4A Nd1 1_555 1_555
O4A_2 Cs1 1_555 1_555
C1A H1A 1_555 1_555
C2A C1A 1_555 1_555
H2A C2A 1_555 1_555
C3A C2A 1_555 1_555
H3A C3A 1_555 1_555
C4A C3A 1_555 1_555
H4A C4A 1_555 1_555
C5A C4A 1_555 1_555
H5A C5A 1_555 1_555
C6A C1A 1_555 1_555
C7A O1A 1_555 1_555
C8A C7A 1_555 1_555
H6A C8A 1_555 1_555
C9A O2A 1_555 1_555
C10A C9A 1_555 1_555
C11A C10A 1_555 1_555
H7A C11A 1_555 1_555
C12A C11A 1_555 1_555
H8A C12A 1_555 1_555
C13A C12A 1_555 1_555
H9A C13A 1_555 1_555
C14A C13A 1_555 1_555
H10A C14A 1_555 1_555
C15A C10A 1_555 1_555
H11A C15A 1_555 1_555
C16A H12A 1_555 1_555
C17A C16A 1_555 1_555
H13A C17A 1_555 1_555
C18A C17A 1_555 1_555
H14A C18A 1_555 1_555
C19A C18A 1_555 1_555
H15A C19A 1_555 1_555
C20A C19A 1_555 1_555
H16A C20A 1_555 1_555
C21A C16A 1_555 1_555
C22A O3A_2 1_555 1_555
C23A C22A 1_555 1_555
H17A C23A 1_555 1_555
C24A O4A_2 1_555 1_555
C25A C24A 1_555 1_555
C26A C25A 1_555 1_555
H18A C26A 1_555 1_555
C27A C26A 1_555 1_555
H19A C27A 1_555 1_555
C28A C27A 1_555 1_555
H20A C28A 1_555 1_555
C29A C28A 1_555 1_555
H21A C29A 1_555 1_555
C30A C25A 1_555 1_555
H22A C30A 1_555 1_555
Cs1 O2 1_555 1_555
Cs1 O1A 1_555 1_555
Cs1 O2A 1_555 1_555
O4 Nd1_2 1_555 1_555
C5 C6 1_555 1_555
C8 C9 1_555 1_555
C14 C15 1_555 1_555
C20 C21 1_555 1_555
C21 C22 1_555 1_555
C23 C24 1_555 1_555
C29 C30 1_555 1_555
Nd1_2 O3A_2 1_555 1_555
Nd1_2 O4A_2 1_555 1_555
C5A C6A 1_555 1_555
C6A C7A 1_555 1_555
C8A C9A 1_555 1_555
C14A C15A 1_555 1_555
C20A C21A 1_555 1_555
C21A C22A 1_555 1_555
C23A C24A 1_555 1_555
C29A C30A 1_555 1_555

#END
