
#######################################################################
#
#                 Cambridge Crystallographic Data Centre
#                                CCDC 
#
#######################################################################
#
# If this CIF has been generated from an entry in the Cambridge 
# Structural Database, then it will include bibliographic, chemical, 
# crystal, experimental, refinement or atomic coordinate data resulting 
# from the CCDC's data processing and validation procedures.
#
#######################################################################

data_NAMJUI
_symmetry_cell_setting           monoclinic
_symmetry_space_group_name_H-M   'C 2/c'
_symmetry_Int_Tables_number      15
_space_group_name_Hall           '-C 2yn'
loop_
_symmetry_equiv_pos_site_id
_symmetry_equiv_pos_as_xyz
1 x,y,z
2 -x,y,1/2-z
3 1/2+x,1/2+y,z
4 1/2-x,1/2+y,1/2-z
5 -x,-y,-z
6 x,-y,1/2+z
7 1/2-x,1/2-y,-z
8 1/2+x,1/2-y,1/2+z
_cell_length_a                   30.220(6)
_cell_length_b                   8.0017(16)
_cell_length_c                   26.115(5)
_cell_angle_alpha                90
_cell_angle_beta                 114.15(3)
_cell_angle_gamma                90
_cell_volume                     5762.21
loop_
_atom_site_label
_atom_site_type_symbol
_atom_site_fract_x
_atom_site_fract_y
_atom_site_fract_z
C1 C 0.0990(3) 0.5448(14) 0.4421(4)
H1 H 0.1080 0.5950 0.4152
C2 C 0.1334(4) 0.5186(14) 0.4970(5)
H2 H 0.1656 0.5532 0.5068
C3 C 0.1218(4) 0.4448(15) 0.5366(4)
H3 H 0.1455 0.4291 0.5732
C4 C 0.0747(4) 0.3933(14) 0.5226(4)
H4 H 0.0666 0.3390 0.5495
C5 C 0.0392(3) 0.4213(12) 0.4688(3)
H5 H 0.0070 0.3901 0.4600
C6 C 0.0514(3) 0.4955(9) 0.4279(3)
C7 C 0.0149(3) 0.5220(11) 0.3687(4)
C8 C -0.0350(3) 0.5026(10) 0.3541(4)
H6 H -0.0449 0.4704 0.3823
C9 C -0.0707(3) 0.5281(11) 0.3000(4)
C10 C -0.1229(3) 0.5097(10) 0.2897(4)
C11 C -0.1575(4) 0.5988(14) 0.2451(4)
H7 H -0.1478 0.6669 0.2222
C12 C -0.2068(4) 0.5860(18) 0.2347(6)
H8 H -0.2302 0.6471 0.2053
C13 C -0.2205(4) 0.4857(18) 0.2670(6)
H9 H -0.2536 0.4744 0.2588
C14 C -0.1875(4) 0.4004(19) 0.3112(5)
H10 H -0.1980 0.3328 0.3336
C15 C -0.1385(4) 0.4131(14) 0.3233(4)
H11 H -0.1158 0.3561 0.3544
C16 C -0.1574(4) -0.1264(14) 0.0990(5)
H12 H -0.1481 -0.2033 0.1288
C17 C -0.2053(4) -0.1142(18) 0.0625(6)
H13 H -0.2284 -0.1831 0.0676
C18 C -0.2200(4) -0.0021(15) 0.0185(5)
H14 H -0.2528 0.0057 -0.0065
C19 C -0.1856(4) 0.0984(17) 0.0118(4)
H15 H -0.1952 0.1782 -0.0172
C20 C -0.1368(3) 0.0822(14) 0.0478(4)
H16 H -0.1135 0.1465 0.0414
C21 C -0.1222(3) -0.0259(11) 0.0924(4)
C22 C -0.0701(3) -0.0503(11) 0.1329(3)
C23 C -0.0336(3) -0.0175(12) 0.1142(4)
H17 H -0.0430 0.0224 0.0774
C24 C 0.0159(3) -0.0402(11) 0.1469(3)
C25 C 0.0527(3) -0.0099(10) 0.1234(4)
C26 C 0.1004(3) -0.0622(14) 0.1548(4)
H18 H 0.1088 -0.1163 0.1895
C27 C 0.1354(4) -0.0327(16) 0.1338(6)
H19 H 0.1677 -0.0645 0.1555
C28 C 0.1245(4) 0.0404(17) 0.0830(5)
H20 H 0.1487 0.0559 0.0696
C29 C 0.0778(4) 0.0914(15) 0.0517(4)
H21 H 0.0701 0.1435 0.0168
C30 C 0.0415(4) 0.0666(13) 0.0712(4)
H22 H 0.0095 0.1012 0.0494
O1 O -0.0628(2) 0.5723(9) 0.2575(2)
O2 O 0.0319(2) 0.5668(9) 0.3335(2)
O3 O 0.0325(2) -0.0899(8) 0.1982(2)
O4 O -0.0631(2) -0.0986(9) 0.1819(2)
Cs1 Cs 0.0000 0.23810(10) 0.2500
Sm1 Sm 0.0000 0.73771(6) 0.2500
C1A C -0.0990(3) 0.5448(14) 0.0579(4)
H1A H -0.1080 0.5950 0.0848
C2A C -0.1334(4) 0.5186(14) 0.0030(5)
H2A H -0.1656 0.5532 -0.0068
C3A C -0.1218(4) 0.4448(15) -0.0366(4)
H3A H -0.1455 0.4291 -0.0732
C4A C -0.0747(4) 0.3933(14) -0.0226(4)
H4A H -0.0666 0.3390 -0.0495
C5A C -0.0392(3) 0.4213(12) 0.0312(3)
H5A H -0.0070 0.3901 0.0400
C6A C -0.0514(3) 0.4955(9) 0.0721(3)
C7A C -0.0149(3) 0.5220(11) 0.1313(4)
C8A C 0.0350(3) 0.5026(10) 0.1459(4)
H6A H 0.0449 0.4704 0.1177
C9A C 0.0707(3) 0.5281(11) 0.2000(4)
C10A C 0.1229(3) 0.5097(10) 0.2103(4)
C11A C 0.1575(4) 0.5988(14) 0.2549(4)
H7A H 0.1478 0.6669 0.2778
C12A C 0.2068(4) 0.5860(18) 0.2653(6)
H8A H 0.2302 0.6471 0.2947
C13A C 0.2205(4) 0.4857(18) 0.2330(6)
H9A H 0.2536 0.4744 0.2412
C14A C 0.1875(4) 0.4004(19) 0.1888(5)
H10A H 0.1980 0.3328 0.1664
C15A C 0.1385(4) 0.4131(14) 0.1767(4)
H11A H 0.1158 0.3561 0.1456
C16A C 0.1574(4) -0.1264(14) 0.4010(5)
H12A H 0.1481 -0.2033 0.3712
C17A C 0.2053(4) -0.1142(18) 0.4375(6)
H13A H 0.2284 -0.1831 0.4324
C18A C 0.2200(4) -0.0021(15) 0.4815(5)
H14A H 0.2528 0.0057 0.5065
C19A C 0.1856(4) 0.0984(17) 0.4882(4)
H15A H 0.1952 0.1782 0.5172
C20A C 0.1368(3) 0.0822(14) 0.4522(4)
H16A H 0.1135 0.1465 0.4586
C21A C 0.1222(3) -0.0259(11) 0.4076(4)
C22A C 0.0701(3) -0.0503(11) 0.3671(3)
C23A C 0.0336(3) -0.0175(12) 0.3858(4)
H17A H 0.0430 0.0224 0.4226
C24A C -0.0159(3) -0.0402(11) 0.3531(3)
C25A C -0.0527(3) -0.0099(10) 0.3766(4)
C26A C -0.1004(3) -0.0622(14) 0.3452(4)
H18A H -0.1088 -0.1163 0.3105
C27A C -0.1354(4) -0.0327(16) 0.3662(6)
H19A H -0.1677 -0.0645 0.3445
C28A C -0.1245(4) 0.0404(17) 0.4170(5)
H20A H -0.1487 0.0559 0.4304
C29A C -0.0778(4) 0.0914(15) 0.4483(4)
H21A H -0.0701 0.1435 0.4832
C30A C -0.0415(4) 0.0666(13) 0.4288(4)
H22A H -0.0095 0.1012 0.4506
O1A O 0.0628(2) 0.5723(9) 0.2425(2)
O2A O -0.0319(2) 0.5668(9) 0.1665(2)
O3A O -0.0325(2) -0.0899(8) 0.3018(2)
O3A_2 O -0.0325(2) 0.9101(8) 0.3018(2)
O3_2 O 0.0325(2) 0.9101(8) 0.1982(2)
O4A O 0.0631(2) -0.0986(9) 0.3181(2)
O4A_2 O 0.0631(2) 0.9014(9) 0.3181(2)
O4_2 O -0.0631(2) 0.9014(9) 0.1819(2)
Sm1_2 Sm 0.0000 -0.26229(6) 0.2500
C31 C -0.1577(10) 0.351(3) 0.1424(8)
H23 H -0.1239 0.3473 0.1538
C32 C -0.2353(6) 0.227(2) 0.1393(7)
H24 H -0.2498 0.3277 0.1183
H25 H -0.2455 0.2136 0.1697
H26 H -0.2456 0.1312 0.1145
C33 C -0.1552(8) 0.130(3) 0.2068(7)
H27 H -0.1645 0.0157 0.1948
H28 H -0.1619 0.1540 0.2393
H29 H -0.1208 0.1445 0.2165
N1 N -0.1823(4) 0.2415(14) 0.1623(5)
O5 O -0.1873(17) 0.469(3) 0.1039(16)
loop_
_geom_bond_atom_site_label_1
_geom_bond_atom_site_label_2
_geom_bond_site_symmetry_1
_geom_bond_site_symmetry_2
C1 H1 1_555 1_555
C2 C1 1_555 1_555
H2 C2 1_555 1_555
C3 C2 1_555 1_555
H3 C3 1_555 1_555
C4 C3 1_555 1_555
H4 C4 1_555 1_555
C5 C4 1_555 1_555
H5 C5 1_555 1_555
C6 C1 1_555 1_555
C7 C6 1_555 1_555
C8 C7 1_555 1_555
H6 C8 1_555 1_555
C9 C8 1_555 1_555
C10 C9 1_555 1_555
C11 C10 1_555 1_555
H7 C11 1_555 1_555
C12 C11 1_555 1_555
H8 C12 1_555 1_555
C13 C12 1_555 1_555
H9 C13 1_555 1_555
C14 C13 1_555 1_555
H10 C14 1_555 1_555
C15 C10 1_555 1_555
H11 C15 1_555 1_555
C16 H12 1_555 1_555
C17 C16 1_555 1_555
H13 C17 1_555 1_555
C18 C17 1_555 1_555
H14 C18 1_555 1_555
C19 C18 1_555 1_555
H15 C19 1_555 1_555
C20 C19 1_555 1_555
H16 C20 1_555 1_555
C21 C16 1_555 1_555
C22 C21 1_555 1_555
C23 C22 1_555 1_555
H17 C23 1_555 1_555
C24 C23 1_555 1_555
C25 C24 1_555 1_555
C26 C25 1_555 1_555
H18 C26 1_555 1_555
C27 C26 1_555 1_555
H19 C27 1_555 1_555
C28 C27 1_555 1_555
H20 C28 1_555 1_555
C29 C28 1_555 1_555
H21 C29 1_555 1_555
C30 C25 1_555 1_555
H22 C30 1_555 1_555
C31 H23 1_555 1_555
C32 H24 1_555 1_555
H25 C32 1_555 1_555
H26 C32 1_555 1_555
C33 H27 1_555 1_555
H28 C33 1_555 1_555
H29 C33 1_555 1_555
N1 C31 1_555 1_555
O1 C9 1_555 1_555
O2 C7 1_555 1_555
O3 C24 1_555 1_555
O4 C22 1_555 1_555
O5 C31 1_555 1_555
Cs1 O1 1_555 1_555
Sm1 O1 1_555 1_555
C1A H1A 1_555 1_555
C2A C1A 1_555 1_555
H2A C2A 1_555 1_555
C3A C2A 1_555 1_555
H3A C3A 1_555 1_555
C4A C3A 1_555 1_555
H4A C4A 1_555 1_555
C5A C4A 1_555 1_555
H5A C5A 1_555 1_555
C6A C1A 1_555 1_555
C7A C6A 1_555 1_555
C8A C7A 1_555 1_555
H6A C8A 1_555 1_555
C9A C8A 1_555 1_555
C10A C9A 1_555 1_555
C11A C10A 1_555 1_555
H7A C11A 1_555 1_555
C12A C11A 1_555 1_555
H8A C12A 1_555 1_555
C13A C12A 1_555 1_555
H9A C13A 1_555 1_555
C14A C13A 1_555 1_555
H10A C14A 1_555 1_555
C15A C10A 1_555 1_555
H11A C15A 1_555 1_555
C16A H12A 1_555 1_555
C17A C16A 1_555 1_555
H13A C17A 1_555 1_555
C18A C17A 1_555 1_555
H14A C18A 1_555 1_555
C19A C18A 1_555 1_555
H15A C19A 1_555 1_555
C20A C19A 1_555 1_555
H16A C20A 1_555 1_555
C21A C16A 1_555 1_555
C22A C21A 1_555 1_555
C23A C22A 1_555 1_555
H17A C23A 1_555 1_555
C24A C23A 1_555 1_555
C25A C24A 1_555 1_555
C26A C25A 1_555 1_555
H18A C26A 1_555 1_555
C27A C26A 1_555 1_555
H19A C27A 1_555 1_555
C28A C27A 1_555 1_555
H20A C28A 1_555 1_555
C29A C28A 1_555 1_555
H21A C29A 1_555 1_555
C30A C25A 1_555 1_555
H22A C30A 1_555 1_555
O1A Cs1 1_555 1_555
O2A Cs1 1_555 1_555
O3A Cs1 1_555 1_555
O3A_2 Sm1 1_555 1_555
O3_2 Sm1 1_555 1_555
O4A Cs1 1_555 1_555
O4A_2 Sm1 1_555 1_555
O4_2 Sm1 1_555 1_555
Sm1_2 O3 1_555 1_555
C5 C6 1_555 1_555
C14 C15 1_555 1_555
C20 C21 1_555 1_555
C29 C30 1_555 1_555
C32 N1 1_555 1_555
C33 N1 1_555 1_555
O2 Cs1 1_555 1_555
O2 Sm1 1_555 1_555
O3 Cs1 1_555 1_555
O4 Cs1 1_555 1_555
O4 Sm1_2 1_555 1_555
Sm1 O1A 1_555 1_555
Sm1 O2A 1_555 1_555
C5A C6A 1_555 1_555
C7A O2A 1_555 1_555
C9A O1A 1_555 1_555
C14A C15A 1_555 1_555
C20A C21A 1_555 1_555
C22A O4A 1_555 1_555
C24A O3A 1_555 1_555
C29A C30A 1_555 1_555
O3A Sm1_2 1_555 1_555
O4A Sm1_2 1_555 1_555

#END
