
#######################################################################
#
#                 Cambridge Crystallographic Data Centre
#                                CCDC 
#
#######################################################################
#
# If this CIF has been generated from an entry in the Cambridge 
# Structural Database, then it will include bibliographic, chemical, 
# crystal, experimental, refinement or atomic coordinate data resulting 
# from the CCDC's data processing and validation procedures.
#
#######################################################################

data_NAMJIW
_symmetry_cell_setting           monoclinic
_symmetry_space_group_name_H-M   'C 2/c'
_symmetry_Int_Tables_number      15
_space_group_name_Hall           '-C 2yn'
loop_
_symmetry_equiv_pos_site_id
_symmetry_equiv_pos_as_xyz
1 x,y,z
2 -x,y,1/2-z
3 1/2+x,1/2+y,z
4 1/2-x,1/2+y,1/2-z
5 -x,-y,-z
6 x,-y,1/2+z
7 1/2-x,1/2-y,-z
8 1/2+x,1/2-y,1/2+z
_cell_length_a                   30.013(6)
_cell_length_b                   7.9260(16)
_cell_length_c                   26.201(5)
_cell_angle_alpha                90
_cell_angle_beta                 114.24(3)
_cell_angle_gamma                90
_cell_volume                     5683.25
loop_
_atom_site_label
_atom_site_type_symbol
_atom_site_fract_x
_atom_site_fract_y
_atom_site_fract_z
C1 C 0.1370(4) -0.0932(16) 0.4520(4)
H1 H 0.1134 -0.1598 0.4582
C2 C 0.1868(4) -0.1100(18) 0.4873(5)
H2 H 0.1968 -0.1960 0.5150
C3 C 0.2207(5) -0.0058(15) 0.4827(6)
H3 H 0.2537 -0.0097 0.5096
C4 C 0.2066(5) 0.109(2) 0.4375(6)
H4 H 0.2303 0.1761 0.4318
C5 C 0.1581(4) 0.1211(17) 0.4021(5)
H5 H 0.1484 0.2008 0.3724
C6 C 0.1225(4) 0.0195(12) 0.4085(4)
C7 C 0.0702(4) 0.0403(14) 0.3685(4)
C8 C 0.0329(4) 0.0121(12) 0.3861(4)
H6 H 0.0421 -0.0279 0.4232
C9 C -0.0164(4) 0.0374(13) 0.3542(4)
C10 C -0.0540(4) 0.0106(11) 0.3768(4)
C11 C -0.1014(4) 0.0643(15) 0.3461(4)
H7 H -0.1098 0.1175 0.3108
C12 C -0.1371(5) 0.0399(17) 0.3672(6)
H8 H -0.1695 0.0772 0.3456
C13 C -0.1268(5) -0.0358(18) 0.4177(5)
H9 H -0.1515 -0.0516 0.4312
C14 C -0.0793(5) -0.0884(17) 0.4487(5)
H10 H -0.0713 -0.1429 0.4836
C15 C -0.0425(4) -0.0626(14) 0.4292(4)
H11 H -0.0098 -0.0950 0.4518
C16 C 0.1393(4) -0.4045(15) 0.1750(5)
H12 H 0.1157 -0.3458 0.1441
C17 C 0.1877(5) -0.388(2) 0.1851(5)
H13 H 0.1977 -0.3200 0.1620
C18 C 0.2221(5) -0.4775(19) 0.2313(7)
H14 H 0.2559 -0.4689 0.2394
C19 C 0.2077(5) -0.574(2) 0.2637(6)
H15 H 0.2315 -0.6325 0.2944
C20 C 0.1585(4) -0.5904(17) 0.2535(5)
H16 H 0.1488 -0.6595 0.2769
C21 C 0.1232(4) -0.5028(11) 0.2080(5)
C22 C 0.0713(4) -0.5201(12) 0.1988(4)
C23 C 0.0346(4) -0.4968(11) 0.1444(4)
H17 H 0.0440 -0.4647 0.1153
C24 C -0.0152(4) -0.5189(11) 0.1315(4)
C25 C -0.0523(4) -0.4956(10) 0.0708(4)
C26 C -0.0996(4) -0.5504(15) 0.0577(4)
H18 H -0.1084 -0.6028 0.0848
C27 C -0.1341(5) -0.5249(16) 0.0023(5)
H19 H -0.1667 -0.5627 -0.0075
C28 C -0.1236(4) -0.4505(16) -0.0369(4)
H20 H -0.1484 -0.4326 -0.0734
C29 C -0.0751(4) -0.3986(14) -0.0236(4)
H21 H -0.0666 -0.3484 -0.0513
C30 C -0.0407(4) -0.4219(13) 0.0297(4)
H22 H -0.0080 -0.3867 0.0389
O1 O 0.0635(3) 0.0922(10) 0.3190(3)
O2 O -0.0333(3) 0.0877(10) 0.3025(3)
O3 O 0.0630(3) -0.5633(12) 0.2410(3)
O4 O -0.0328(3) -0.5613(12) 0.1654(3)
Cs1 Cs 0.0000 -0.23767(12) 0.2500
Pr1 Pr 0.0000 0.26285(9) 0.2500
C1A C -0.1370(4) -0.0932(16) 0.0480(4)
H1A H -0.1134 -0.1598 0.0418
C2A C -0.1868(4) -0.1100(18) 0.0127(5)
H2A H -0.1968 -0.1960 -0.0150
C3A C -0.2207(5) -0.0058(15) 0.0173(6)
H3A H -0.2537 -0.0097 -0.0096
C4A C -0.2066(5) 0.109(2) 0.0625(6)
H4A H -0.2303 0.1761 0.0682
C5A C -0.1581(4) 0.1211(17) 0.0979(5)
H5A H -0.1484 0.2008 0.1276
C6A C -0.1225(4) 0.0195(12) 0.0915(4)
C7A C -0.0702(4) 0.0403(14) 0.1315(4)
C8A C -0.0329(4) 0.0121(12) 0.1139(4)
H6A H -0.0421 -0.0279 0.0768
C9A C 0.0164(4) 0.0374(13) 0.1458(4)
C10A C 0.0540(4) 0.0106(11) 0.1232(4)
C11A C 0.1014(4) 0.0643(15) 0.1539(4)
H7A H 0.1098 0.1175 0.1892
C12A C 0.1371(5) 0.0399(17) 0.1328(6)
H8A H 0.1695 0.0772 0.1544
C13A C 0.1268(5) -0.0358(18) 0.0823(5)
H9A H 0.1515 -0.0516 0.0688
C14A C 0.0793(5) -0.0884(17) 0.0513(5)
H10A H 0.0713 -0.1429 0.0164
C15A C 0.0425(4) -0.0626(14) 0.0708(4)
H11A H 0.0098 -0.0950 0.0482
C16A C -0.1393(4) -0.4045(15) 0.3250(5)
H12A H -0.1157 -0.3458 0.3559
C17A C -0.1877(5) -0.388(2) 0.3149(5)
H13A H -0.1977 -0.3200 0.3380
C18A C -0.2221(5) -0.4775(19) 0.2687(7)
H14A H -0.2559 -0.4689 0.2606
C19A C -0.2077(5) -0.574(2) 0.2363(6)
H15A H -0.2315 -0.6325 0.2056
C20A C -0.1585(4) -0.5904(17) 0.2465(5)
H16A H -0.1488 -0.6595 0.2231
C21A C -0.1232(4) -0.5028(11) 0.2920(5)
C22A C -0.0713(4) -0.5201(12) 0.3012(4)
C23A C -0.0346(4) -0.4968(11) 0.3556(4)
H17A H -0.0440 -0.4647 0.3847
C24A C 0.0152(4) -0.5189(11) 0.3685(4)
C25A C 0.0523(4) -0.4956(10) 0.4292(4)
C26A C 0.0996(4) -0.5504(15) 0.4423(4)
H18A H 0.1084 -0.6028 0.4152
C27A C 0.1341(5) -0.5249(16) 0.4977(5)
H19A H 0.1667 -0.5627 0.5075
C28A C 0.1236(4) -0.4505(16) 0.5369(4)
H20A H 0.1484 -0.4326 0.5734
C29A C 0.0751(4) -0.3986(14) 0.5236(4)
H21A H 0.0666 -0.3484 0.5513
C30A C 0.0407(4) -0.4219(13) 0.4703(4)
H22A H 0.0080 -0.3867 0.4611
O1A O -0.0635(3) 0.0922(10) 0.1810(3)
O2A O 0.0333(3) 0.0877(10) 0.1975(3)
O3A O -0.0630(3) -0.5633(12) 0.2590(3)
O3A_2 O -0.0630(3) 0.4367(12) 0.2590(3)
O3_2 O 0.0630(3) 0.4367(12) 0.2410(3)
O4A O 0.0328(3) -0.5613(12) 0.3346(3)
O4A_2 O 0.0328(3) 0.4387(12) 0.3346(3)
O4_2 O -0.0328(3) 0.4387(12) 0.1654(3)
Pr1_2 Pr 0.0000 -0.73715(9) 0.2500
C31 C 0.1589(7) 0.640(2) 0.3586(6)
H23 H 0.1245 0.6431 0.3473
C32 C 0.2366(6) 0.770(2) 0.3604(7)
H24 H 0.2476 0.8759 0.3809
H25 H 0.2470 0.7653 0.3295
H26 H 0.2509 0.6746 0.3858
C33 C 0.1574(7) 0.878(3) 0.2950(6)
H27 H 0.1223 0.8680 0.2853
H28 H 0.1637 0.8541 0.2619
H29 H 0.1684 0.9923 0.3083
N1 N 0.1833(5) 0.7598(15) 0.3379(4)
O5 O 0.1866(9) 0.527(3) 0.3938(9)
loop_
_geom_bond_atom_site_label_1
_geom_bond_atom_site_label_2
_geom_bond_site_symmetry_1
_geom_bond_site_symmetry_2
C1 H1 1_555 1_555
C2 C1 1_555 1_555
H2 C2 1_555 1_555
C3 C2 1_555 1_555
H3 C3 1_555 1_555
C4 C3 1_555 1_555
H4 C4 1_555 1_555
C5 C4 1_555 1_555
H5 C5 1_555 1_555
C6 C1 1_555 1_555
C7 C6 1_555 1_555
C8 C7 1_555 1_555
H6 C8 1_555 1_555
C9 C8 1_555 1_555
C10 C9 1_555 1_555
C11 C10 1_555 1_555
H7 C11 1_555 1_555
C12 C11 1_555 1_555
H8 C12 1_555 1_555
C13 C12 1_555 1_555
H9 C13 1_555 1_555
C14 C13 1_555 1_555
H10 C14 1_555 1_555
C15 C10 1_555 1_555
H11 C15 1_555 1_555
C16 H12 1_555 1_555
C17 C16 1_555 1_555
H13 C17 1_555 1_555
C18 C17 1_555 1_555
H14 C18 1_555 1_555
C19 C18 1_555 1_555
H15 C19 1_555 1_555
C20 C19 1_555 1_555
H16 C20 1_555 1_555
C21 C16 1_555 1_555
C22 C21 1_555 1_555
C23 C22 1_555 1_555
H17 C23 1_555 1_555
C24 C23 1_555 1_555
C25 C24 1_555 1_555
C26 C25 1_555 1_555
H18 C26 1_555 1_555
C27 C26 1_555 1_555
H19 C27 1_555 1_555
C28 C27 1_555 1_555
H20 C28 1_555 1_555
C29 C28 1_555 1_555
H21 C29 1_555 1_555
C30 C25 1_555 1_555
H22 C30 1_555 1_555
C31 H23 1_555 1_555
C32 H24 1_555 1_555
H25 C32 1_555 1_555
H26 C32 1_555 1_555
C33 H27 1_555 1_555
H28 C33 1_555 1_555
H29 C33 1_555 1_555
N1 C31 1_555 1_555
O1 C7 1_555 1_555
O2 C9 1_555 1_555
O3 C22 1_555 1_555
O4 C24 1_555 1_555
O5 C31 1_555 1_555
Cs1 O1 1_555 1_555
Pr1 O1 1_555 1_555
C1A H1A 1_555 1_555
C2A C1A 1_555 1_555
H2A C2A 1_555 1_555
C3A C2A 1_555 1_555
H3A C3A 1_555 1_555
C4A C3A 1_555 1_555
H4A C4A 1_555 1_555
C5A C4A 1_555 1_555
H5A C5A 1_555 1_555
C6A C1A 1_555 1_555
C7A C6A 1_555 1_555
C8A C7A 1_555 1_555
H6A C8A 1_555 1_555
C9A C8A 1_555 1_555
C10A C9A 1_555 1_555
C11A C10A 1_555 1_555
H7A C11A 1_555 1_555
C12A C11A 1_555 1_555
H8A C12A 1_555 1_555
C13A C12A 1_555 1_555
H9A C13A 1_555 1_555
C14A C13A 1_555 1_555
H10A C14A 1_555 1_555
C15A C10A 1_555 1_555
H11A C15A 1_555 1_555
C16A H12A 1_555 1_555
C17A C16A 1_555 1_555
H13A C17A 1_555 1_555
C18A C17A 1_555 1_555
H14A C18A 1_555 1_555
C19A C18A 1_555 1_555
H15A C19A 1_555 1_555
C20A C19A 1_555 1_555
H16A C20A 1_555 1_555
C21A C16A 1_555 1_555
C22A C21A 1_555 1_555
C23A C22A 1_555 1_555
H17A C23A 1_555 1_555
C24A C23A 1_555 1_555
C25A C24A 1_555 1_555
C26A C25A 1_555 1_555
H18A C26A 1_555 1_555
C27A C26A 1_555 1_555
H19A C27A 1_555 1_555
C28A C27A 1_555 1_555
H20A C28A 1_555 1_555
C29A C28A 1_555 1_555
H21A C29A 1_555 1_555
C30A C25A 1_555 1_555
H22A C30A 1_555 1_555
O1A Cs1 1_555 1_555
O2A Cs1 1_555 1_555
O3A Cs1 1_555 1_555
O3A_2 Pr1 1_555 1_555
O3_2 Pr1 1_555 1_555
O4A Cs1 1_555 1_555
O4A_2 Pr1 1_555 1_555
O4_2 Pr1 1_555 1_555
Pr1_2 O3 1_555 1_555
C5 C6 1_555 1_555
C14 C15 1_555 1_555
C20 C21 1_555 1_555
C29 C30 1_555 1_555
C32 N1 1_555 1_555
C33 N1 1_555 1_555
O2 Cs1 1_555 1_555
O2 Pr1 1_555 1_555
O3 Cs1 1_555 1_555
O4 Cs1 1_555 1_555
O4 Pr1_2 1_555 1_555
Pr1 O1A 1_555 1_555
Pr1 O2A 1_555 1_555
C5A C6A 1_555 1_555
C7A O1A 1_555 1_555
C9A O2A 1_555 1_555
C14A C15A 1_555 1_555
C20A C21A 1_555 1_555
C22A O3A 1_555 1_555
C24A O4A 1_555 1_555
C29A C30A 1_555 1_555
O3A Pr1_2 1_555 1_555
O4A Pr1_2 1_555 1_555

#END
