
#######################################################################
#
#                 Cambridge Crystallographic Data Centre
#                                CCDC 
#
#######################################################################
#
# If this CIF has been generated from an entry in the Cambridge 
# Structural Database, then it will include bibliographic, chemical, 
# crystal, experimental, refinement or atomic coordinate data resulting 
# from the CCDC's data processing and validation procedures.
#
#######################################################################

data_NAMKET
_symmetry_cell_setting           monoclinic
_symmetry_space_group_name_H-M   'C 2/c'
_symmetry_Int_Tables_number      15
_space_group_name_Hall           '-C 2yn'
loop_
_symmetry_equiv_pos_site_id
_symmetry_equiv_pos_as_xyz
1 x,y,z
2 -x,y,1/2-z
3 1/2+x,1/2+y,z
4 1/2-x,1/2+y,1/2-z
5 -x,-y,-z
6 x,-y,1/2+z
7 1/2-x,1/2-y,-z
8 1/2+x,1/2-y,1/2+z
_cell_length_a                   27.736(6)
_cell_length_b                   7.9106(16)
_cell_length_c                   26.035(5)
_cell_angle_alpha                90
_cell_angle_beta                 108.93(3)
_cell_angle_gamma                90
_cell_volume                     5403.35
loop_
_atom_site_label
_atom_site_type_symbol
_atom_site_fract_x
_atom_site_fract_y
_atom_site_fract_z
C1 C 0.0328(3) 0.0934(10) 0.4580(3)
H1 H -0.0004 0.1390 0.4514
C2 C 0.0693(3) 0.1111(11) 0.5089(3)
H2 H 0.0617 0.1740 0.5364
C3 C 0.1168(4) 0.0370(11) 0.5194(3)
H3 H 0.1415 0.0474 0.5544
C4 C 0.1284(3) -0.0530(11) 0.4788(4)
H4 H 0.1607 -0.1064 0.4863
C5 C 0.0929(3) -0.0635(9) 0.4281(3)
H5 H 0.1014 -0.1214 0.4003
C6 C 0.0447(3) 0.0084(8) 0.4163(3)
C7 C 0.0072(3) -0.0113(8) 0.3610(3)
C8 C -0.0448(3) -0.0168(9) 0.3543(3)
H6 H -0.0549 0.0053 0.3852
C9 C -0.0835(3) -0.0529(8) 0.3049(3)
C10 C -0.1377(3) -0.0396(9) 0.3037(3)
C11 C -0.1758(3) -0.1348(10) 0.2674(3)
H7 H -0.1677 -0.2031 0.2413
C12 C -0.2251(3) -0.1323(11) 0.2684(4)
H8 H -0.2501 -0.2030 0.2444
C13 C -0.2384(3) -0.0286(11) 0.3038(4)
H9 H -0.2725 -0.0270 0.3044
C14 C -0.2012(3) 0.0751(12) 0.3390(3)
H10 H -0.2101 0.1493 0.3632
C15 C -0.1517(3) 0.0692(10) 0.3385(3)
H11 H -0.1267 0.1405 0.3623
C16 C 0.1673(3) 0.6198(10) 0.3957(3)
H12 H 0.1608 0.6953 0.3659
C17 C 0.2162(3) 0.6063(11) 0.4333(3)
H13 H 0.2426 0.6773 0.4299
C18 C 0.2266(3) 0.4927(10) 0.4749(3)
H14 H 0.2601 0.4848 0.5001
C19 C 0.1889(3) 0.3899(10) 0.4806(3)
H15 H 0.1967 0.3087 0.5090
C20 C 0.1392(3) 0.4036(9) 0.4450(3)
H16 H 0.1129 0.3339 0.4495
C21 C 0.1283(3) 0.5217(8) 0.4024(3)
C22 C 0.0746(3) 0.5477(9) 0.3644(3)
C23 C 0.0337(3) 0.5008(9) 0.3813(3)
H17 H 0.0411 0.4560 0.4168
C24 C -0.0174(3) 0.5152(8) 0.3493(3)
C25 C -0.0602(3) 0.4931(8) 0.3734(3)
C26 C -0.1098(3) 0.5214(9) 0.3397(3)
H18 H -0.1163 0.5495 0.3026
C27 C -0.1500(3) 0.5084(11) 0.3604(4)
H19 H -0.1838 0.5296 0.3375
C28 C -0.1411(3) 0.4648(11) 0.4141(4)
H20 H -0.1688 0.4555 0.4280
C29 C -0.0912(3) 0.4345(10) 0.4481(3)
H21 H -0.0848 0.4030 0.4849
C30 C -0.0511(3) 0.4509(10) 0.4273(3)
H22 H -0.0171 0.4329 0.4504
O1 O 0.0257(2) -0.0306(6) 0.32154(19)
O2 O -0.07546(19) -0.1043(7) 0.26188(18)
O3 O 0.07040(19) 0.6209(6) 0.31979(18)
O4 O -0.03146(19) 0.5516(6) 0.29912(18)
K1 K 0.0000 0.2586(3) 0.2500
Nd1 Nd 0.0000 -0.24135(6) 0.2500
C1A C -0.0328(3) 0.0934(10) 0.0420(3)
H1A H 0.0004 0.1390 0.0486
C2A C -0.0693(3) 0.1111(11) -0.0089(3)
H2A H -0.0617 0.1740 -0.0364
C3A C -0.1168(4) 0.0370(11) -0.0194(3)
H3A H -0.1415 0.0474 -0.0544
C4A C -0.1284(3) -0.0530(11) 0.0212(4)
H4A H -0.1607 -0.1064 0.0137
C5A C -0.0929(3) -0.0635(9) 0.0719(3)
H5A H -0.1014 -0.1214 0.0997
C6A C -0.0447(3) 0.0084(8) 0.0837(3)
C7A C -0.0072(3) -0.0113(8) 0.1390(3)
C8A C 0.0448(3) -0.0168(9) 0.1457(3)
H6A H 0.0549 0.0053 0.1148
C9A C 0.0835(3) -0.0529(8) 0.1951(3)
C10A C 0.1377(3) -0.0396(9) 0.1963(3)
C11A C 0.1758(3) -0.1348(10) 0.2326(3)
H7A H 0.1677 -0.2031 0.2587
C12A C 0.2251(3) -0.1323(11) 0.2316(4)
H8A H 0.2501 -0.2030 0.2556
C13A C 0.2384(3) -0.0286(11) 0.1962(4)
H9A H 0.2725 -0.0270 0.1956
C14A C 0.2012(3) 0.0751(12) 0.1610(3)
H10A H 0.2101 0.1493 0.1368
C15A C 0.1517(3) 0.0692(10) 0.1615(3)
H11A H 0.1267 0.1405 0.1377
C16A C -0.1673(3) 0.6198(10) 0.1043(3)
H12A H -0.1608 0.6953 0.1341
C17A C -0.2162(3) 0.6063(11) 0.0667(3)
H13A H -0.2426 0.6773 0.0701
C18A C -0.2266(3) 0.4927(10) 0.0251(3)
H14A H -0.2601 0.4848 -0.0001
C19A C -0.1889(3) 0.3899(10) 0.0194(3)
H15A H -0.1967 0.3087 -0.0090
C20A C -0.1392(3) 0.4036(9) 0.0550(3)
H16A H -0.1129 0.3339 0.0505
C21A C -0.1283(3) 0.5217(8) 0.0976(3)
C22A C -0.0746(3) 0.5477(9) 0.1356(3)
C23A C -0.0337(3) 0.5008(9) 0.1187(3)
H17A H -0.0411 0.4560 0.0832
C24A C 0.0174(3) 0.5152(8) 0.1507(3)
C25A C 0.0602(3) 0.4931(8) 0.1266(3)
C26A C 0.1098(3) 0.5214(9) 0.1603(3)
H18A H 0.1163 0.5495 0.1974
C27A C 0.1500(3) 0.5084(11) 0.1396(4)
H19A H 0.1838 0.5296 0.1625
C28A C 0.1411(3) 0.4648(11) 0.0859(4)
H20A H 0.1688 0.4555 0.0720
C29A C 0.0912(3) 0.4345(10) 0.0519(3)
H21A H 0.0848 0.4030 0.0151
C30A C 0.0511(3) 0.4509(10) 0.0727(3)
H22A H 0.0171 0.4329 0.0496
O1A O -0.0257(2) -0.0306(6) 0.17846(19)
O2A O 0.07546(19) -0.1043(7) 0.23812(18)
O3A O -0.07040(19) 0.6209(6) 0.18021(18)
O3_2 O 0.07040(19) -0.3791(6) 0.31979(18)
O3A_2 O -0.07040(19) -0.3791(6) 0.18021(18)
O4A O 0.03146(19) 0.5516(6) 0.20088(18)
O4_2 O -0.03146(19) -0.4484(6) 0.29912(18)
O4A_2 O 0.03146(19) -0.4484(6) 0.20088(18)
Nd1_2 Nd 0.0000 0.75865(6) 0.2500
C31 C 0.1460(3) 0.1151(11) 0.3366(3)
H23 H 0.1307 0.1378 0.3654
H24 H 0.1319 0.0069 0.3190
Cl1 Cl 0.12904(9) 0.2795(2) 0.28801(9)
Cl2 Cl 0.21278(10) 0.0965(4) 0.36631(11)
loop_
_geom_bond_atom_site_label_1
_geom_bond_atom_site_label_2
_geom_bond_site_symmetry_1
_geom_bond_site_symmetry_2
C1 H1 1_555 1_555
C2 C1 1_555 1_555
H2 C2 1_555 1_555
C3 C2 1_555 1_555
H3 C3 1_555 1_555
C4 C3 1_555 1_555
H4 C4 1_555 1_555
C5 C4 1_555 1_555
H5 C5 1_555 1_555
C6 C1 1_555 1_555
C7 C6 1_555 1_555
C8 C7 1_555 1_555
H6 C8 1_555 1_555
C9 C8 1_555 1_555
C10 C9 1_555 1_555
C11 C10 1_555 1_555
H7 C11 1_555 1_555
C12 C11 1_555 1_555
H8 C12 1_555 1_555
C13 C12 1_555 1_555
H9 C13 1_555 1_555
C14 C13 1_555 1_555
H10 C14 1_555 1_555
C15 C10 1_555 1_555
H11 C15 1_555 1_555
C16 H12 1_555 1_555
C17 C16 1_555 1_555
H13 C17 1_555 1_555
C18 C17 1_555 1_555
H14 C18 1_555 1_555
C19 C18 1_555 1_555
H15 C19 1_555 1_555
C20 C19 1_555 1_555
H16 C20 1_555 1_555
C21 C16 1_555 1_555
C22 C21 1_555 1_555
C23 C22 1_555 1_555
H17 C23 1_555 1_555
C24 C23 1_555 1_555
C25 C24 1_555 1_555
C26 C25 1_555 1_555
H18 C26 1_555 1_555
C27 C26 1_555 1_555
H19 C27 1_555 1_555
C28 C27 1_555 1_555
H20 C28 1_555 1_555
C29 C28 1_555 1_555
H21 C29 1_555 1_555
C30 C25 1_555 1_555
H22 C30 1_555 1_555
C31 H23 1_555 1_555
H24 C31 1_555 1_555
O1 C7 1_555 1_555
O2 C9 1_555 1_555
O3 C22 1_555 1_555
O4 C24 1_555 1_555
Cl1 C31 1_555 1_555
Cl2 C31 1_555 1_555
K1 O1 1_555 1_555
Nd1 O1 1_555 1_555
C1A H1A 1_555 1_555
C2A C1A 1_555 1_555
H2A C2A 1_555 1_555
C3A C2A 1_555 1_555
H3A C3A 1_555 1_555
C4A C3A 1_555 1_555
H4A C4A 1_555 1_555
C5A C4A 1_555 1_555
H5A C5A 1_555 1_555
C6A C1A 1_555 1_555
C7A C6A 1_555 1_555
C8A C7A 1_555 1_555
H6A C8A 1_555 1_555
C9A C8A 1_555 1_555
C10A C9A 1_555 1_555
C11A C10A 1_555 1_555
H7A C11A 1_555 1_555
C12A C11A 1_555 1_555
H8A C12A 1_555 1_555
C13A C12A 1_555 1_555
H9A C13A 1_555 1_555
C14A C13A 1_555 1_555
H10A C14A 1_555 1_555
C15A C10A 1_555 1_555
H11A C15A 1_555 1_555
C16A H12A 1_555 1_555
C17A C16A 1_555 1_555
H13A C17A 1_555 1_555
C18A C17A 1_555 1_555
H14A C18A 1_555 1_555
C19A C18A 1_555 1_555
H15A C19A 1_555 1_555
C20A C19A 1_555 1_555
H16A C20A 1_555 1_555
C21A C16A 1_555 1_555
C22A C21A 1_555 1_555
C23A C22A 1_555 1_555
H17A C23A 1_555 1_555
C24A C23A 1_555 1_555
C25A C24A 1_555 1_555
C26A C25A 1_555 1_555
H18A C26A 1_555 1_555
C27A C26A 1_555 1_555
H19A C27A 1_555 1_555
C28A C27A 1_555 1_555
H20A C28A 1_555 1_555
C29A C28A 1_555 1_555
H21A C29A 1_555 1_555
C30A C25A 1_555 1_555
H22A C30A 1_555 1_555
O1A K1 1_555 1_555
O2A Nd1 1_555 1_555
O3A C22A 1_555 1_555
O3_2 Nd1 1_555 1_555
O3A_2 Nd1 1_555 1_555
O4A K1 1_555 1_555
O4_2 Nd1 1_555 1_555
O4A_2 Nd1 1_555 1_555
Nd1_2 O3 1_555 1_555
C5 C6 1_555 1_555
C14 C15 1_555 1_555
C20 C21 1_555 1_555
C29 C30 1_555 1_555
O2 Nd1 1_555 1_555
O4 K1 1_555 1_555
O4 Nd1_2 1_555 1_555
Nd1 O1A 1_555 1_555
C5A C6A 1_555 1_555
C7A O1A 1_555 1_555
C9A O2A 1_555 1_555
C14A C15A 1_555 1_555
C20A C21A 1_555 1_555
C24A O4A 1_555 1_555
C29A C30A 1_555 1_555
O3A Nd1_2 1_555 1_555
O4A Nd1_2 1_555 1_555

#END
