
#######################################################################
#
#                 Cambridge Crystallographic Data Centre
#                                CCDC 
#
#######################################################################
#
# If this CIF has been generated from an entry in the Cambridge 
# Structural Database, then it will include bibliographic, chemical, 
# crystal, experimental, refinement or atomic coordinate data resulting 
# from the CCDC's data processing and validation procedures.
#
#######################################################################

data_NAMSEZ
_symmetry_cell_setting           monoclinic
_symmetry_space_group_name_H-M   'C 2/c'
_symmetry_Int_Tables_number      15
_space_group_name_Hall           '-C 2yn'
loop_
_symmetry_equiv_pos_site_id
_symmetry_equiv_pos_as_xyz
1 x,y,z
2 -x,y,1/2-z
3 1/2+x,1/2+y,z
4 1/2-x,1/2+y,1/2-z
5 -x,-y,-z
6 x,-y,1/2+z
7 1/2-x,1/2-y,-z
8 1/2+x,1/2-y,1/2+z
_cell_length_a                   25.726(8)
_cell_length_b                   8.910(2)
_cell_length_c                   20.0070(22)
_cell_angle_alpha                90
_cell_angle_beta                 96.054(20)
_cell_angle_gamma                90
_cell_volume                     4560.4
loop_
_atom_site_label
_atom_site_type_symbol
_atom_site_fract_x
_atom_site_fract_y
_atom_site_fract_z
O1 O 0.0940(3) -0.6221(10) -0.1011(3)
O2 O 0.07521(18) -0.5402(6) -0.00593(25)
O3 O 0.10305(21) -0.7588(7) -0.0135(3)
O4 O 0.14862(20) -0.9886(7) 0.2093(3)
O5 O 0.12126(20) -0.9175(7) 0.1089(3)
O6 O 0.12137(17) -0.7637(6) 0.1889(3)
N1 N 0.09159(3) -0.6327(9) -0.0433(4)
N2 N 0.13096(22) -0.8941(8) 0.1699(4)
N3 N 0.07743(16) -0.4631(5) 0.14235(24)
N4 N 0.17520(17) -0.5908(6) 0.0843(3)
N5 N 0.51819(15) -0.2403(5) 0.09530(24)
C1 C 0.04237(23) -0.3699(8) 0.1132(3)
C2 C 0.02635(25) -0.2413(8) 0.1447(4)
C3 C 0.04708(23) -0.2100(7) 0.2098(3)
C4 C 0.08282(24) -0.3075(8) 0.2390(3)
C5 C 0.09801(22) -0.4330(7) 0.2043(3)
C6 C 0.02918(23) -0.0734(7) 0.2460(3)
C7 C 0.18592(25) -0.4443(9) 0.0777(4)
C8 C 0.2357(3) -0.3932(9) 0.0714(5)
C9 C 0.2757(3) -0.4876(12) 0.0704(5)
C10 C 0.2650(3) -0.6366(11) 0.0773(5)
C11 C 0.21467(23) -0.6809(8) 0.0834(4)
C12 C 0.49039(22) -0.2069(7) 0.1466(3)
C13 C 0.44025(23) -0.2528(8) 0.1497(4)
C14 C 0.41476(22) -0.3352(9) 0.0986(4)
C15 C 0.44294(22) -0.3710(8) 0.0451(4)
C16 C 0.49353(20) -0.3207(7) 0.0460(3)
C17 C 0.3600(3) -0.3945(13) 0.1053(6)
C18 C 0.3310(3) -0.4275(13) 0.0579(6)
Co1 Co 0.09660(3) -0.66263(9) 0.09129(4)
H1 H 0.027 -0.393 0.065
H2 H -0.002 -0.174 0.119
H3 H 0.100 -0.290 0.287
H4 H 0.127 -0.505 0.227
H5 H 0.051 -0.067 0.297
H6 H 0.040 0.029 0.219
H7 H 0.156 -0.368 0.079
H8 H 0.242 -0.279 0.066
H9 H 0.295 -0.716 0.078
H10 H 0.208 -0.796 0.089
H11 H 0.508 -0.141 0.185
H12 H 0.421 -0.225 0.191
H13 H 0.426 -0.432 0.005
H14 H 0.514 -0.347 0.006
H15 H 0.339 -0.336 0.142
H16 H 0.364 -0.518 0.132
H17 H 0.326 -0.309 0.028
H18 H 0.350 -0.492 0.018
C6A C -0.02918(23) -0.0734(7) 0.2540(3)
C3A C -0.04708(23) -0.2100(7) 0.2902(3)
C2A C -0.02635(25) -0.2413(8) 0.3553(4)
C1A C -0.04237(23) -0.3699(8) 0.3868(3)
N3A N -0.07743(16) -0.4631(5) 0.35765(24)
C5A C -0.09801(22) -0.4330(7) 0.2957(3)
C4A C -0.08282(24) -0.3075(8) 0.2610(3)
H3A H -0.100 -0.290 0.213
H4A H -0.127 -0.505 0.273
H1A H -0.027 -0.393 0.435
H2A H 0.002 -0.174 0.381
H5A H -0.051 -0.067 0.203
H6A H -0.040 0.029 0.281
N5B N 0.01819(15) -0.7403(5) 0.09530(24)
Co1A Co -0.09660(3) -0.66263(9) 0.40871(4)
Co1B Co 0.59660(3) -0.16263(9) 0.09129(4)
O1A O -0.0940(3) -0.6221(10) 0.6011(3)
O2A O -0.07521(18) -0.5402(6) 0.50593(25)
O3A O -0.10305(21) -0.7588(7) 0.5135(3)
N1A N -0.09159(3) -0.6327(9) 0.5433(4)
O4A O -0.14862(20) -0.9886(7) 0.2907(3)
O5A O -0.12126(20) -0.9175(7) 0.3911(3)
O6A O -0.12137(17) -0.7637(6) 0.3111(3)
N2A N -0.13096(22) -0.8941(8) 0.3301(4)
N4A N -0.17520(17) -0.5908(6) 0.4157(3)
N5A N -0.51819(15) -0.2403(5) 0.40470(24)
C7A C -0.18592(25) -0.4443(9) 0.4223(4)
C8A C -0.2357(3) -0.3932(9) 0.4286(5)
C9A C -0.2757(3) -0.4876(12) 0.4296(5)
C10A C -0.2650(3) -0.6366(11) 0.4227(5)
C11A C -0.21467(23) -0.6809(8) 0.4166(4)
C12A C -0.49039(22) -0.2069(7) 0.3534(3)
C13A C -0.44025(23) -0.2528(8) 0.3503(4)
C14A C -0.41476(22) -0.3352(9) 0.4014(4)
C15A C -0.44294(22) -0.3710(8) 0.4549(4)
C16A C -0.49353(20) -0.3207(7) 0.4540(3)
C17A C -0.3600(3) -0.3945(13) 0.3947(6)
C18A C -0.3310(3) -0.4275(13) 0.4421(6)
H7A H -0.156 -0.368 0.421
H8A H -0.242 -0.279 0.434
H9A H -0.295 -0.716 0.422
H10A H -0.208 -0.796 0.411
H11A H -0.508 -0.141 0.315
H12A H -0.421 -0.225 0.309
H13A H -0.426 -0.432 0.495
H14A H -0.514 -0.347 0.494
H15A H -0.339 -0.336 0.358
H16A H -0.364 -0.518 0.368
H17A H -0.326 -0.309 0.472
H18A H -0.350 -0.492 0.482
N5C N -0.01819(15) -0.7403(5) 0.40470(24)
Co1C Co -0.59660(3) -0.16263(9) 0.40871(4)
N6 N 0.7748(11) -0.508(3) -0.8432(17)
C19 C 0.7701(10) -0.594(4) -0.8090(18)
C20 C 0.7466(11) -0.711(3) -0.7611(14)
loop_
_geom_bond_atom_site_label_1
_geom_bond_atom_site_label_2
_geom_bond_site_symmetry_1
_geom_bond_site_symmetry_2
O1 N1 1_555 1_555
O2 N1 1_555 1_555
O3 N1 1_555 1_555
O4 N2 1_555 1_555
O5 N2 1_555 1_555
O6 N2 1_555 1_555
N3 C1 1_555 1_555
N4 C7 1_555 1_555
N5 C12 1_555 1_555
C1 C2 1_555 1_555
C2 C3 1_555 1_555
C3 C4 1_555 1_555
C4 C5 1_555 1_555
C5 N3 1_555 1_555
C6 C3 1_555 1_555
C7 C8 1_555 1_555
C8 C9 1_555 1_555
C9 C10 1_555 1_555
C10 C11 1_555 1_555
C11 N4 1_555 1_555
C12 C13 1_555 1_555
C13 C14 1_555 1_555
C14 C15 1_555 1_555
C15 C16 1_555 1_555
C16 N5 1_555 1_555
C17 C14 1_555 1_555
C18 C9 1_555 1_555
Co1 O2 1_555 1_555
H1 C1 1_555 1_555
H2 C2 1_555 1_555
H3 C4 1_555 1_555
H4 C5 1_555 1_555
H5 C6 1_555 1_555
H6 C6 1_555 1_555
H7 C7 1_555 1_555
H8 C8 1_555 1_555
H9 C10 1_555 1_555
H10 C11 1_555 1_555
H11 C12 1_555 1_555
H12 C13 1_555 1_555
H13 C15 1_555 1_555
H14 C16 1_555 1_555
H15 C17 1_555 1_555
H16 C17 1_555 1_555
H17 C18 1_555 1_555
H18 C18 1_555 1_555
N6 C19 1_555 1_555
C19 C20 1_555 1_555
C6A C6 1_555 1_555
C3A C6A 1_555 1_555
C2A C3A 1_555 1_555
C1A C2A 1_555 1_555
N3A C1A 1_555 1_555
C5A N3A 1_555 1_555
C4A C3A 1_555 1_555
H3A C4A 1_555 1_555
H4A C5A 1_555 1_555
H1A C1A 1_555 1_555
H2A C2A 1_555 1_555
H5A C6A 1_555 1_555
H6A C6A 1_555 1_555
N5B Co1 1_555 1_555
Co1A N3A 1_555 1_555
Co1B N5 1_555 1_555
O1A N1A 1_555 1_555
O2A Co1A 1_555 1_555
O3A Co1A 1_555 1_555
N1A O2A 1_555 1_555
O4A N2A 1_555 1_555
O5A Co1A 1_555 1_555
O6A Co1A 1_555 1_555
N2A O5A 1_555 1_555
N4A Co1A 1_555 1_555
N5A C12A 1_555 1_555
C7A N4A 1_555 1_555
C8A C7A 1_555 1_555
C9A C8A 1_555 1_555
C10A C9A 1_555 1_555
C11A N4A 1_555 1_555
C12A C13A 1_555 1_555
C13A C14A 1_555 1_555
C14A C15A 1_555 1_555
C15A C16A 1_555 1_555
C16A N5A 1_555 1_555
C17A C14A 1_555 1_555
C18A C9A 1_555 1_555
H7A C7A 1_555 1_555
H8A C8A 1_555 1_555
H9A C10A 1_555 1_555
H10A C11A 1_555 1_555
H11A C12A 1_555 1_555
H12A C13A 1_555 1_555
H13A C15A 1_555 1_555
H14A C16A 1_555 1_555
H15A C17A 1_555 1_555
H16A C17A 1_555 1_555
H17A C18A 1_555 1_555
H18A C18A 1_555 1_555
N5C Co1A 1_555 1_555
Co1C N5A 1_555 1_555
O3 Co1 1_555 1_555
O5 Co1 1_555 1_555
O6 Co1 1_555 1_555
N3 Co1 1_555 1_555
N4 Co1 1_555 1_555
C17 C18 1_555 1_555
C5A C4A 1_555 1_555
O3A N1A 1_555 1_555
O6A N2A 1_555 1_555
C10A C11A 1_555 1_555
C17A C18A 1_555 1_555

#END
