
#######################################################################
#
#                 Cambridge Crystallographic Data Centre
#                                CCDC 
#
#######################################################################
#
# If this CIF has been generated from an entry in the Cambridge 
# Structural Database, then it will include bibliographic, chemical, 
# crystal, experimental, refinement or atomic coordinate data resulting 
# from the CCDC's data processing and validation procedures.
#
#######################################################################

data_NAMYAB
_symmetry_cell_setting           monoclinic
_symmetry_space_group_name_H-M   'C 2/c'
_symmetry_Int_Tables_number      15
_space_group_name_Hall           '-C 2yn'
loop_
_symmetry_equiv_pos_site_id
_symmetry_equiv_pos_as_xyz
1 x,y,z
2 -x,y,1/2-z
3 1/2+x,1/2+y,z
4 1/2-x,1/2+y,1/2-z
5 -x,-y,-z
6 x,-y,1/2+z
7 1/2-x,1/2-y,-z
8 1/2+x,1/2-y,1/2+z
_cell_length_a                   30.817(6)
_cell_length_b                   10.449(2)
_cell_length_c                   9.000(2)
_cell_angle_alpha                90
_cell_angle_beta                 91.31(3)
_cell_angle_gamma                90
_cell_volume                     2897.3
loop_
_atom_site_label
_atom_site_type_symbol
_atom_site_fract_x
_atom_site_fract_y
_atom_site_fract_z
Mg1 Mg 0.1881(1) 0.0852(1) -0.0013(1)
O1 O 0.1406(1) 0.1235(2) -0.1548(3)
O2 O 0.1502(1) 0.0190(3) 0.1661(3)
C1 C 0.1299(1) 0.0708(4) -0.2755(4)
C2 C 0.0896(1) 0.1162(4) -0.3497(4)
C3 C 0.0650(2) 0.2153(5) -0.3064(6)
O3 O 0.0302(1) 0.2326(4) -0.3999(5)
C4 C 0.0341(2) 0.1358(6) -0.5068(6)
C5 C 0.0682(2) 0.0668(6) -0.4777(5)
O4 O 0.1798(1) 0.4630(3) -0.0028(4)
O5 O 0.1840(1) 0.2665(2) 0.0873(3)
C6 C 0.1632(1) 0.3664(4) 0.0538(5)
C7 C 0.1163(1) 0.3740(4) 0.0879(5)
C8 C 0.0931(2) 0.2898(5) 0.1681(7)
O6 O 0.0514(1) 0.3277(5) 0.1759(6)
C9 C 0.0483(2) 0.4416(5) 0.0985(8)
C10 C 0.0866(2) 0.4704(6) 0.0470(8)
O7 O 0.1942(1) -0.1044(3) -0.0800(3)
O8 O 0.2331(1) 0.1524(3) -0.1624(3)
O9 O 0.2434(1) 0.0528(3) 0.1291(3)
H1 H 0.0710(2) 0.2655(5) -0.2231(6)
H2 H 0.0149(2) 0.1230(6) -0.5869(6)
H3 H 0.0771(2) -0.0037(6) -0.5322(5)
H4 H 0.1044(2) 0.2160(5) 0.2119(7)
H5 H 0.0232(2) 0.4901(5) 0.0851(8)
H6 H 0.0931(2) 0.5431(6) -0.0079(8)
H7 H 0.1907(23) -0.1644(72) -0.0301(86)
H8 H 0.1813(17) -0.1164(51) -0.1456(61)
H9 H 0.2229(13) 0.2164(40) -0.2055(44)
H10 H 0.2661(16) 0.1799(47) -0.1386(56)
H11 H 0.2401(17) -0.0024(50) 0.1883(57)
H12 H 0.2713(17) 0.0473(51) 0.0902(58)
O2E O 0.1502(1) -0.0190(3) -0.3339(3)
Mg1E Mg 0.1881(1) -0.0852(1) -0.5013(1)
O10 O 0.2128(2) 0.3090(5) -0.4054(7)
H13 H 0.1933(11) 0.3726(41) -0.420(13)
H14 H 0.2406(9) 0.3361(63) -0.404(11)
O11? O 0.1796(2) 0.2987(6) -0.3754(8)
H15? H 0.1892(21) 0.3754(44) -0.409(13)
H16? H 0.1508(10) 0.2884(77) -0.393(12)
loop_
_geom_bond_atom_site_label_1
_geom_bond_atom_site_label_2
_geom_bond_site_symmetry_1
_geom_bond_site_symmetry_2
Mg1 O1 1_555 1_555
O1 C1 1_555 1_555
O2 Mg1 1_555 1_555
C1 C2 1_555 1_555
C2 C3 1_555 1_555
C3 O3 1_555 1_555
O3 C4 1_555 1_555
C4 C5 1_555 1_555
C5 C2 1_555 1_555
O4 C6 1_555 1_555
O5 Mg1 1_555 1_555
C6 O5 1_555 1_555
C7 C6 1_555 1_555
C8 C7 1_555 1_555
O6 C8 1_555 1_555
C9 O6 1_555 1_555
C10 C7 1_555 1_555
O7 Mg1 1_555 1_555
O8 Mg1 1_555 1_555
O9 Mg1 1_555 1_555
H1 C3 1_555 1_555
H2 C4 1_555 1_555
H3 C5 1_555 1_555
H4 C8 1_555 1_555
H5 C9 1_555 1_555
H6 C10 1_555 1_555
H7 O7 1_555 1_555
H8 O7 1_555 1_555
H9 O8 1_555 1_555
H10 O8 1_555 1_555
H11 O9 1_555 1_555
H12 O9 1_555 1_555
O10 H13 1_555 1_555
H14 O10 1_555 1_555
O2E C1 1_555 1_555
Mg1E O2E 1_555 1_555
C9 C10 1_555 1_555

#END
