
#######################################################################
#
#                 Cambridge Crystallographic Data Centre
#                                CCDC 
#
#######################################################################
#
# If this CIF has been generated from an entry in the Cambridge 
# Structural Database, then it will include bibliographic, chemical, 
# crystal, experimental, refinement or atomic coordinate data resulting 
# from the CCDC's data processing and validation procedures.
#
#######################################################################

data_NANBUB
_symmetry_cell_setting           triclinic
_symmetry_space_group_name_H-M   'P -1'
_symmetry_Int_Tables_number      2
_space_group_name_Hall           '-P 1'
loop_
_symmetry_equiv_pos_site_id
_symmetry_equiv_pos_as_xyz
1 x,y,z
2 -x,-y,-z
_cell_length_a                   11.751(5)
_cell_length_b                   14.433(6)
_cell_length_c                   26.034(12)
_cell_angle_alpha                85.47(2)
_cell_angle_beta                 89.89(2)
_cell_angle_gamma                67.408(12)
_cell_volume                     4061.93
loop_
_atom_site_label
_atom_site_type_symbol
_atom_site_fract_x
_atom_site_fract_y
_atom_site_fract_z
Ag1 Ag -0.34620(16) 0.71451(13) -0.33276(7)
Ag2 Ag -0.36191(13) 1.20737(9) -0.75478(5)
Ag3 Ag 0.14256(14) 0.76655(11) -0.15270(5)
Ag4 Ag 0.33343(16) 1.06249(12) -0.16211(7)
Ag5 Ag -0.65134(17) 0.52858(14) -0.32645(7)
Ag6 Ag 0.09826(14) 0.71768(10) -0.35036(5)
Ru1 Ru 0.31043(11) 0.54255(8) 0.15340(4)
Ru2 Ru 0.18048(11) 0.69796(8) 0.05198(4)
Ru3 Ru -0.04035(10) 0.88411(8) -0.65294(4)
Ru4 Ru 0.10592(10) 0.73117(8) -0.55325(4)
O1 O 0.3673(9) 0.6343(7) 0.0357(3)
O2 O 0.4573(8) 0.5464(7) 0.1103(3)
O3 O 0.1564(9) 0.5668(7) 0.0386(3)
O4 O 0.2736(9) 0.4544(6) 0.1016(3)
O5 O 0.2000(8) 0.6670(6) 0.1240(3)
O6 O 0.0782(8) 0.7617(6) -0.6246(3)
O7 O -0.1810(8) 0.8685(7) -0.6093(4)
O8 O -0.0779(8) 0.7952(6) -0.5344(3)
O9 O -0.0092(8) 0.9731(6) -0.5992(3)
O10 O 0.1329(8) 0.8621(6) -0.5435(3)
N1 N -0.1777(11) 1.0164(8) -0.6854(4)
N2 N -0.4895(17) 1.3362(14) -0.7977(5)
N3 N -0.0016(10) 0.7777(9) 0.0553(4)
N4 N 0.1807(11) 0.8376(8) 0.0616(4)
N5 N 0.1917(10) 0.5242(8) 0.2067(4)
N6 N 0.3452(10) 0.6150(9) 0.2121(4)
N7 N -0.0666(10) 0.8147(7) -0.7139(4)
N8 N 0.0750(10) 0.9124(8) -0.7058(4)
N9 N 0.1042(11) 0.5923(8) -0.5598(4)
N10 N 0.2878(11) 0.6502(8) -0.5597(4)
N11 N 0.1319(11) 0.7023(8) -0.4725(4)
N12 N 0.1588(11) 0.7286(9) -0.0278(5)
N13 N 0.4511(18) 1.2156(19) -0.1357(8)
N14 N -0.7638(17) 0.3770(16) -0.3585(8)
N19 N 0.238(2) 0.9677(14) -0.1678(7)
C1 C -0.2491(15) 1.0849(11) -0.7062(6)
C2 C -0.5633(12) 1.4080(9) -0.8143(4)
C3 C -0.0887(14) 0.7416(11) 0.0513(5)
C4 C -0.2124(14) 0.8020(13) 0.0460(7)
C5 C -0.2495(15) 0.9053(12) 0.0467(6)
C6 C -0.1601(15) 0.9450(12) 0.0522(6)
C7 C -0.0358(14) 0.8781(11) 0.0571(5)
C8 C 0.0668(14) 0.9111(10) 0.0638(5)
C9 C 0.0519(17) 1.0079(11) 0.0723(6)
C10 C 0.152(2) 1.0315(12) 0.0762(8)
C11 C 0.2711(17) 0.9561(13) 0.0759(6)
C12 C 0.2791(15) 0.8576(11) 0.0675(6)
C13 C 0.4602(14) 0.5811(9) 0.0647(5)
C14 C 0.5835(14) 0.5645(13) 0.0410(6)
C15 C 0.2026(13) 0.4791(10) 0.0625(5)
C16 C 0.1716(13) 0.4005(11) 0.0378(7)
C17 C 0.1181(17) 0.4759(12) 0.2034(6)
C18 C 0.0532(16) 0.4560(13) 0.2436(7)
C19 C 0.0579(18) 0.4931(13) 0.2894(6)
C20 C 0.1313(14) 0.5440(13) 0.2944(6)
C21 C 0.2005(12) 0.5590(10) 0.2538(5)
C22 C 0.2842(12) 0.6133(10) 0.2566(5)
C23 C 0.3034(14) 0.6579(12) 0.2976(6)
C24 C 0.3850(17) 0.7043(14) 0.2957(7)
C25 C 0.4470(16) 0.7077(12) 0.2514(6)
C26 C 0.4229(13) 0.6632(11) 0.2090(5)
C27 C -0.1461(15) 0.7671(11) -0.7127(5)
C28 C -0.1664(16) 0.7216(11) -0.7562(6)
C29 C -0.1020(16) 0.7264(12) -0.7987(6)
C30 C -0.0183(15) 0.7712(12) -0.7998(5)
C31 C -0.0019(13) 0.8176(10) -0.7569(5)
C32 C 0.0775(14) 0.8728(10) -0.7519(5)
C33 C 0.1475(15) 0.8913(12) -0.7912(5)
C34 C 0.2178(16) 0.9463(13) -0.7839(6)
C35 C 0.2081(18) 0.9871(15) -0.7376(7)
C36 C -0.1769(12) 0.8378(9) -0.5630(5)
C37 C -0.2967(16) 0.8533(14) -0.5375(7)
C38 C 0.0752(13) 0.9483(9) -0.5642(5)
C39 C 0.1066(16) 1.0336(11) -0.5463(6)
C40 C 0.0044(13) 0.5707(11) -0.5641(5)
C41 C 0.0092(16) 0.4725(12) -0.5667(5)
C42 C 0.123(2) 0.3949(13) -0.5621(7)
C43 C 0.2263(18) 0.4160(11) -0.5579(6)
C44 C 0.2225(14) 0.5163(10) -0.5586(5)
C45 C 0.3208(13) 0.5464(10) -0.5597(5)
C46 C 0.4450(14) 0.4815(13) -0.5610(6)
C47 C 0.5337(16) 0.5214(14) -0.5640(6)
C48 C 0.4996(17) 0.6266(13) -0.5631(7)
C49 C 0.3752(14) 0.6878(12) -0.5626(6)
C50 C 0.1390(15) 0.9679(13) -0.6996(6)
C51 C 0.1486(15) 0.7416(11) -0.0738(6)
C52 C 0.1288(16) 0.7319(13) -0.2282(6)
N20 N 0.1216(16) 0.7171(12) -0.2710(5)
C53 C -0.4738(19) 0.6440(16) -0.3273(7)
N21 N -0.5413(19) 0.6076(15) -0.3238(7)
C54 C 0.416(2) 1.1615(18) -0.1498(9)
C56 C 0.1273(13) 0.7009(10) -0.4291(5)
C57 C -0.7307(16) 0.4302(15) -0.3404(8)
C65 C 0.1798(19) 0.9180(13) -0.1637(7)
C66 C -0.1310(13) 0.8032(12) -0.3421(6)
N22 N -0.2097(17) 0.7796(16) -0.3397(7)
H1 H -0.0648 0.6723 0.0517
H2 H -0.2703 0.7736 0.0422
H3 H -0.3325 0.9472 0.0435
H4 H -0.1818 1.0137 0.0527
H5 H -0.0268 1.0566 0.0754
H6 H 0.1422 1.0977 0.0793
H7 H 0.3419 0.9693 0.0805
H8 H 0.3560 0.8059 0.0662
H9 H 0.6091 0.5045 0.0230
H10 H 0.6428 0.5573 0.0676
H11 H 0.5747 0.6211 0.0172
H12 H 0.0967 0.3985 0.0512
H13 H 0.2376 0.3359 0.0450
H14 H 0.1619 0.4169 0.0011
H15 H 0.1101 0.4531 0.1715
H16 H 0.0064 0.4179 0.2394
H17 H 0.0115 0.4833 0.3166
H18 H 0.1359 0.5694 0.3257
H19 H 0.2604 0.6564 0.3275
H20 H 0.3985 0.7323 0.3248
H21 H 0.5020 0.7394 0.2497
H22 H 0.4612 0.6668 0.1782
H23 H -0.3260 0.9169 -0.5225
H24 H -0.2842 0.8001 -0.5109
H25 H -0.3562 0.8534 -0.5626
H26 H 0.1707 1.0413 -0.5672
H27 H 0.1343 1.0188 -0.5110
H28 H 0.0346 1.0951 -0.5500
H29 H -0.0726 0.6237 -0.5653
H30 H -0.0626 0.4606 -0.5713
H31 H 0.1309 0.3284 -0.5624
H32 H 0.3024 0.3632 -0.5538
H33 H 0.4659 0.4121 -0.5603
H34 H 0.6156 0.4788 -0.5663
H35 H 0.5599 0.6541 -0.5627
H36 H 0.3519 0.7571 -0.5645
H37 H -0.1874 0.7637 -0.6828
H38 H -0.2218 0.6898 -0.7553
H39 H -0.1146 0.6988 -0.8279
H40 H 0.0274 0.7709 -0.8290
H41 H 0.1472 0.8657 -0.8228
H42 H 0.2696 0.9557 -0.8089
H43 H 0.2486 1.0299 -0.7322
H44 H 0.1380 0.9950 -0.6682
Ru1_2 Ru -0.68957(11) 1.54255(8) -0.84660(4)
C2_2 C 0.4367(12) 0.4080(9) 0.1857(4)
Cl1 Cl 0.4043(9) 0.1125(8) 0.1886(6)
Cl2 Cl 0.1487(10) 0.2347(7) 0.1629(5)
C67 C 0.291(2) 0.225(2) 0.1824(16)
H57 H 0.3167 0.2677 0.1579
H58 H 0.2830 0.2533 0.2158
N15 N 0.493(2) 0.206(2) 0.4521(12)
C55 C 0.7134(19) 0.1343(15) 0.4252(8)
C58 C 0.591(2) 0.1748(16) 0.4413(9)
H45 H 0.7492 0.0626 0.4354
H46 H 0.7607 0.1671 0.4411
H47 H 0.7146 0.1452 0.3880
N16 N 0.467(2) 0.1310(19) 0.0386(15)
C59 C 0.5467(16) 0.2510(16) 0.0756(7)
C60 C 0.5054(18) 0.1822(19) 0.0548(10)
H48 H 0.5537 0.2979 0.0481
H49 H 0.6267 0.2149 0.0926
H50 H 0.4883 0.2878 0.1003
N17 N 0.410(2) 0.8924(17) 0.3798(8)
C61 C 0.527(2) 0.974(2) 0.3289(12)
C62 C 0.4572(19) 0.9321(16) 0.3588(10)
H51 H 0.6011 0.9661 0.3482
H52 H 0.4789 1.0449 0.3201
H53 H 0.5496 0.9398 0.2976
N18 N 0.8952(19) 0.5223(16) 0.1120(8)
C63 C 0.7291(19) 0.5185(16) 0.1734(8)
C64 C 0.822(2) 0.5210(15) 0.1376(9)
H54 H 0.7363 0.4496 0.1808
H55 H 0.6481 0.5589 0.1582
H56 H 0.7404 0.5455 0.2051
loop_
_geom_bond_atom_site_label_1
_geom_bond_atom_site_label_2
_geom_bond_site_symmetry_1
_geom_bond_site_symmetry_2
Ag1 C53 1_555 1_555
Ag2 N2 1_555 1_555
Ag3 C51 1_555 1_555
Ag4 N19 1_555 1_555
Ag5 N21 1_555 1_555
Ag6 N20 1_555 1_555
Ru1 O2 1_555 1_555
Ru2 O1 1_555 1_555
Ru3 O6 1_555 1_555
Ru4 O6 1_555 1_555
Cl1 C67 1_555 1_555
Cl2 C67 1_555 1_555
O1 C13 1_555 1_555
O2 C13 1_555 1_555
O3 Ru2 1_555 1_555
O4 Ru1 1_555 1_555
O5 Ru1 1_555 1_555
O7 Ru3 1_555 1_555
O8 Ru4 1_555 1_555
O9 Ru3 1_555 1_555
O10 Ru4 1_555 1_555
N1 Ru3 1_555 1_555
N2 C2 1_555 1_555
N3 Ru2 1_555 1_555
N4 Ru2 1_555 1_555
N5 Ru1 1_555 1_555
N6 Ru1 1_555 1_555
N7 Ru3 1_555 1_555
N8 Ru3 1_555 1_555
N9 Ru4 1_555 1_555
N10 Ru4 1_555 1_555
N11 Ru4 1_555 1_555
N12 Ru2 1_555 1_555
N13 C54 1_555 1_555
N14 C57 1_555 1_555
N15 C58 1_555 1_555
N16 C60 1_555 1_555
N17 C62 1_555 1_555
N18 C64 1_555 1_555
N19 C65 1_555 1_555
C1 Ag2 1_555 1_555
C2 Ru1_2 1_555 1_555
C3 N3 1_555 1_555
C4 C3 1_555 1_555
C5 C4 1_555 1_555
C6 C5 1_555 1_555
C7 N3 1_555 1_555
C8 N4 1_555 1_555
C9 C8 1_555 1_555
C10 C9 1_555 1_555
C11 C10 1_555 1_555
C12 N4 1_555 1_555
C13 C14 1_555 1_555
C14 H9 1_555 1_555
C15 O3 1_555 1_555
C16 C15 1_555 1_555
C17 N5 1_555 1_555
C18 C17 1_555 1_555
C19 C18 1_555 1_555
C20 C19 1_555 1_555
C21 N5 1_555 1_555
C22 N6 1_555 1_555
C23 C22 1_555 1_555
C24 C23 1_555 1_555
C25 C24 1_555 1_555
C26 N6 1_555 1_555
C27 N7 1_555 1_555
C28 C27 1_555 1_555
C29 C28 1_555 1_555
C30 C29 1_555 1_555
C31 N7 1_555 1_555
C32 N8 1_555 1_555
C33 C32 1_555 1_555
C34 C33 1_555 1_555
C35 C34 1_555 1_555
C36 O7 1_555 1_555
C37 C36 1_555 1_555
C38 O9 1_555 1_555
C39 C38 1_555 1_555
C40 N9 1_555 1_555
C41 C40 1_555 1_555
C42 C41 1_555 1_555
C43 C42 1_555 1_555
C44 N9 1_555 1_555
C45 N10 1_555 1_555
C46 C45 1_555 1_555
C47 C46 1_555 1_555
C48 C47 1_555 1_555
C49 N10 1_555 1_555
C50 N8 1_555 1_555
C51 N12 1_555 1_555
C52 Ag3 1_555 1_555
N20 C52 1_555 1_555
C53 N21 1_555 1_555
C54 Ag4 1_555 1_555
C55 C58 1_555 1_555
C56 Ag6 1_555 1_555
C57 Ag5 1_555 1_555
C59 C60 1_555 1_555
C61 C62 1_555 1_555
C63 C64 1_555 1_555
C65 Ag3 1_555 1_555
C66 Ag6 1_555 1_555
C67 H57 1_555 1_555
N22 Ag1 1_555 1_555
H1 C3 1_555 1_555
H2 C4 1_555 1_555
H3 C5 1_555 1_555
H4 C6 1_555 1_555
H5 C9 1_555 1_555
H6 C10 1_555 1_555
H7 C11 1_555 1_555
H8 C12 1_555 1_555
H10 C14 1_555 1_555
H11 C14 1_555 1_555
H12 C16 1_555 1_555
H13 C16 1_555 1_555
H14 C16 1_555 1_555
H15 C17 1_555 1_555
H16 C18 1_555 1_555
H17 C19 1_555 1_555
H18 C20 1_555 1_555
H19 C23 1_555 1_555
H20 C24 1_555 1_555
H21 C25 1_555 1_555
H22 C26 1_555 1_555
H23 C37 1_555 1_555
H24 C37 1_555 1_555
H25 C37 1_555 1_555
H26 C39 1_555 1_555
H27 C39 1_555 1_555
H28 C39 1_555 1_555
H29 C40 1_555 1_555
H30 C41 1_555 1_555
H31 C42 1_555 1_555
H32 C43 1_555 1_555
H33 C46 1_555 1_555
H34 C47 1_555 1_555
H35 C48 1_555 1_555
H36 C49 1_555 1_555
H37 C27 1_555 1_555
H38 C28 1_555 1_555
H39 C29 1_555 1_555
H40 C30 1_555 1_555
H41 C33 1_555 1_555
H42 C34 1_555 1_555
H43 C35 1_555 1_555
H44 C50 1_555 1_555
H45 C55 1_555 1_555
H46 C55 1_555 1_555
H47 C55 1_555 1_555
H48 C59 1_555 1_555
H49 C59 1_555 1_555
H50 C59 1_555 1_555
H51 C61 1_555 1_555
H52 C61 1_555 1_555
H53 C61 1_555 1_555
H54 C63 1_555 1_555
H55 C63 1_555 1_555
H56 C63 1_555 1_555
H58 C67 1_555 1_555
C2_2 Ru1 1_555 1_555
Ru2 O5 1_555 1_555
O4 C15 1_555 1_555
O8 C36 1_555 1_555
O10 C38 1_555 1_555
N1 C1 1_555 1_555
N11 C56 1_555 1_555
C6 C7 1_555 1_555
C7 C8 1_555 1_555
C11 C12 1_555 1_555
C20 C21 1_555 1_555
C21 C22 1_555 1_555
C25 C26 1_555 1_555
C30 C31 1_555 1_555
C31 C32 1_555 1_555
C35 C50 1_555 1_555
C43 C44 1_555 1_555
C44 C45 1_555 1_555
C48 C49 1_555 1_555
C66 N22 1_555 1_555

#END
