
#######################################################################
#
#                 Cambridge Crystallographic Data Centre
#                                CCDC 
#
#######################################################################
#
# If this CIF has been generated from an entry in the Cambridge 
# Structural Database, then it will include bibliographic, chemical, 
# crystal, experimental, refinement or atomic coordinate data resulting 
# from the CCDC's data processing and validation procedures.
#
#######################################################################

data_NANDOV
_symmetry_cell_setting           triclinic
_symmetry_space_group_name_H-M   'P -1'
_symmetry_Int_Tables_number      2
_space_group_name_Hall           '-P 1'
loop_
_symmetry_equiv_pos_site_id
_symmetry_equiv_pos_as_xyz
1 x,y,z
2 -x,-y,-z
_cell_length_a                   8.7526(6)
_cell_length_b                   14.8353(11)
_cell_length_c                   15.0729(11)
_cell_angle_alpha                97.790(2)
_cell_angle_beta                 97.586(2)
_cell_angle_gamma                92.184(2)
_cell_volume                     1919.02
loop_
_atom_site_label
_atom_site_type_symbol
_atom_site_fract_x
_atom_site_fract_y
_atom_site_fract_z
Ag1 Ag 0.1573(1) 0.0300(1) -0.0984(1)
S1 S 0.0232(5) -0.1758(3) -0.0547(3)
F1 F 0.2772(11) -0.2500(8) -0.0055(7)
F2 F 0.1249(5) -0.3324(8) -0.1095(9)
F3 F 0.0735(17) -0.3167(11) 0.0265(10)
O1 O -0.1349(10) -0.1527(6) -0.3740(6)
O2 O -0.0237(12) -0.3233(7) -0.4211(7)
O3 O 0.0227(11) 0.2375(7) -0.3246(7)
O4 O 0.0300(30) 0.4296(12) -0.2891(16)
O5 O -0.5491(10) -0.1937(6) -0.7956(6)
O6 O -0.5010(12) -0.2278(7) -0.6119(6)
O7 O -0.4240(15) 0.2956(7) -0.7444(7)
O8 O -0.5470(30) 0.4434(12) -0.6348(12)
O9 O 0.1024(16) -0.1388(9) -0.1205(8)
O10 O -0.1331(14) -0.2157(10) -0.0890(9)
O11 O 0.0441(13) -0.1205(9) 0.0322(7)
N1 N 0.0601(13) 0.0414(8) -0.2342(7)
N2 N -0.6676(13) 0.0469(9) -0.9826(7)
C1 C 0.1280(20) -0.2721(13) -0.0338(13)
C2 C -0.0089(16) 0.0485(9) -0.3030(9)
C3 C -0.0993(15) 0.0498(9) -0.3908(9)
C4 C -0.2185(14) -0.0167(8) -0.4224(8)
C5 C -0.3028(14) -0.0149(8) -0.5086(8)
C6 C -0.2686(14) 0.0516(8) -0.5592(8)
C7 C -0.1504(13) 0.1195(8) -0.5235(8)
C8 C -0.0642(14) 0.1171(8) -0.4402(8)
C9 C -0.6001(16) 0.0505(9) -0.9135(10)
C10 C -0.5125(14) 0.0513(8) -0.8226(8)
C11 C -0.4529(15) 0.1356(9) -0.7725(9)
C12 C -0.3752(16) 0.1340(9) -0.6863(9)
C13 C -0.3562(14) 0.0523(8) -0.6510(8)
C14 C -0.4155(15) -0.0288(9) -0.7017(9)
C15 C -0.4988(15) -0.0312(9) -0.7891(9)
C16 C -0.2515(16) -0.0915(9) -0.3680(10)
C17 C -0.1517(17) -0.2266(10) -0.3237(10)
C18 C -0.0241(17) -0.2852(10) -0.3303(10)
C19 C 0.0980(20) -0.3826(14) -0.4340(14)
C20 C 0.0626(17) 0.1911(9) -0.4060(9)
C21 C 0.1480(30) 0.2881(16) -0.2661(16)
C22 C 0.1670(40) 0.3680(20) -0.2920(20)
C23 C -0.0110(40) 0.4590(20) -0.2140(20)
C24 C -0.5612(17) -0.1206(9) -0.8443(10)
C25 C -0.6686(17) -0.2005(10) -0.7409(10)
C26 C -0.6278(17) -0.2655(10) -0.6762(10)
C27 C -0.4600(20) -0.2843(12) -0.5455(12)
C28 C -0.4797(17) 0.2233(9) -0.8096(9)
C29 C -0.4490(20) 0.3844(14) -0.7690(14)
C30 C -0.5490(30) 0.4344(17) -0.7199(18)
C31 C -0.6730(20) 0.4817(14) -0.5948(14)
H1 H -0.3819 -0.0589 -0.5312
H2 H -0.1305 0.1663 -0.5564
H3 H -0.3351 0.1883 -0.6514
H4 H -0.4004 -0.0830 -0.6779
H5 H -0.2534 -0.0662 -0.3054
H6 H -0.3511 -0.1224 -0.3917
H7 H -0.2481 -0.2614 -0.3469
H8 H -0.1548 -0.2029 -0.2607
H9 H 0.0724 -0.2503 -0.3078
H10 H -0.0337 -0.3335 -0.2936
H11 H 0.0913 -0.4063 -0.4969
H12 H 0.0885 -0.4321 -0.3996
H13 H 0.1953 -0.3495 -0.4140
H14 H 0.1617 0.1645 -0.3950
H15 H 0.0687 0.2327 -0.4500
H16 H 0.1261 0.2954 -0.2042
H17 H 0.2419 0.2556 -0.2688
H18 H 0.1901 0.3591 -0.3539
H19 H 0.2558 0.4007 -0.2547
H20 H -0.0996 0.4947 -0.2231
H21 H 0.0718 0.4962 -0.1767
H22 H -0.0373 0.4084 -0.1838
H23 H -0.6690 -0.1155 -0.8672
H24 H -0.5056 -0.1326 -0.8958
H25 H -0.7651 -0.2213 -0.7788
H26 H -0.6820 -0.1411 -0.7080
H27 H -0.7156 -0.2779 -0.6456
H28 H -0.6010 -0.3226 -0.7084
H29 H -0.3741 -0.2561 -0.5037
H30 H -0.4328 -0.3422 -0.5740
H31 H -0.5464 -0.2933 -0.5137
H32 H -0.4276 0.2247 -0.8624
H33 H -0.5893 0.2280 -0.8279
H34 H -0.3504 0.4186 -0.7609
H35 H -0.4902 0.3778 -0.8327
H36 H -0.5402 0.4958 -0.7348
H37 H -0.6522 0.4103 -0.7458
H38 H -0.6531 0.4840 -0.5304
H39 H -0.7662 0.4448 -0.6178
H40 H -0.6855 0.5423 -0.6094
O11A O -0.0441(13) 0.1205(9) -0.0322(7)
N2_2 N 0.3324(13) 0.0469(9) 0.0174(7)
Ag1A Ag -0.1573(1) -0.0300(1) 0.0984(1)
Ag1_2 Ag -0.8427(1) 0.0300(1) -1.0984(1)
C32 C 0.4360(30) -0.4430(20) 0.0465(18)
C33 C 0.5860(30) -0.4162(19) 0.0190(17)
C34 C 0.3220(50) -0.5230(20) 0.0370(20)
C35 C 0.6440(60) -0.3150(30) 0.0430(30)
C34A C 0.6780(50) -0.4770(20) -0.0370(20)
C32A C 0.5640(30) -0.5570(20) -0.0465(18)
C33A C 0.4140(30) -0.5838(19) -0.0190(17)
C35A C 0.3560(60) -0.6850(30) -0.0430(30)
loop_
_geom_bond_atom_site_label_1
_geom_bond_atom_site_label_2
_geom_bond_site_symmetry_1
_geom_bond_site_symmetry_2
Ag1 O9 1_555 1_555
S1 O9 1_555 1_555
F1 C1 1_555 1_555
F2 C1 1_555 1_555
F3 C1 1_555 1_555
O1 C16 1_555 1_555
O2 C18 1_555 1_555
O3 C20 1_555 1_555
O4 C22 1_555 1_555
O5 C24 1_555 1_555
O6 C26 1_555 1_555
O7 C28 1_555 1_555
O8 C30 1_555 1_555
O10 S1 1_555 1_555
O11 S1 1_555 1_555
N1 Ag1 1_555 1_555
N2 C9 1_555 1_555
C1 S1 1_555 1_555
C2 N1 1_555 1_555
C3 C2 1_555 1_555
C4 C3 1_555 1_555
C5 C4 1_555 1_555
C6 C5 1_555 1_555
C7 C6 1_555 1_555
C8 C3 1_555 1_555
C9 C10 1_555 1_555
C10 C11 1_555 1_555
C11 C12 1_555 1_555
C12 C13 1_555 1_555
C13 C6 1_555 1_555
C14 C13 1_555 1_555
C15 C10 1_555 1_555
C16 C4 1_555 1_555
C17 O1 1_555 1_555
C18 C17 1_555 1_555
C19 O2 1_555 1_555
C20 C8 1_555 1_555
C21 O3 1_555 1_555
C22 C21 1_555 1_555
C23 O4 1_555 1_555
C24 C15 1_555 1_555
C25 O5 1_555 1_555
C26 C25 1_555 1_555
C27 O6 1_555 1_555
C28 C11 1_555 1_555
C29 O7 1_555 1_555
C30 C29 1_555 1_555
C31 O8 1_555 1_555
C32 C33 1_555 1_555
C33 C35 1_555 1_555
C34 C32 1_555 1_555
H1 C5 1_555 1_555
H2 C7 1_555 1_555
H3 C12 1_555 1_555
H4 C14 1_555 1_555
H5 C16 1_555 1_555
H6 C16 1_555 1_555
H7 C17 1_555 1_555
H8 C17 1_555 1_555
H9 C18 1_555 1_555
H10 C18 1_555 1_555
H11 C19 1_555 1_555
H12 C19 1_555 1_555
H13 C19 1_555 1_555
H14 C20 1_555 1_555
H15 C20 1_555 1_555
H16 C21 1_555 1_555
H17 C21 1_555 1_555
H18 C22 1_555 1_555
H19 C22 1_555 1_555
H20 C23 1_555 1_555
H21 C23 1_555 1_555
H22 C23 1_555 1_555
H23 C24 1_555 1_555
H24 C24 1_555 1_555
H25 C25 1_555 1_555
H26 C25 1_555 1_555
H27 C26 1_555 1_555
H28 C26 1_555 1_555
H29 C27 1_555 1_555
H30 C27 1_555 1_555
H31 C27 1_555 1_555
H32 C28 1_555 1_555
H33 C28 1_555 1_555
H34 C29 1_555 1_555
H35 C29 1_555 1_555
H36 C30 1_555 1_555
H37 C30 1_555 1_555
H38 C31 1_555 1_555
H39 C31 1_555 1_555
H40 C31 1_555 1_555
C34A C33 1_555 1_555
C32A C34A 1_555 1_555
C33A C34 1_555 1_555
C35A C33A 1_555 1_555
O11A Ag1 1_555 1_555
N2_2 Ag1 1_555 1_555
Ag1A O11 1_555 1_555
Ag1_2 N2 1_555 1_555
C7 C8 1_555 1_555
C14 C15 1_555 1_555
C32A C33A 1_555 1_555

#END
