
#######################################################################
#
#                 Cambridge Crystallographic Data Centre
#                                CCDC 
#
#######################################################################
#
# If this CIF has been generated from an entry in the Cambridge 
# Structural Database, then it will include bibliographic, chemical, 
# crystal, experimental, refinement or atomic coordinate data resulting 
# from the CCDC's data processing and validation procedures.
#
#######################################################################

data_NANFEN
_symmetry_cell_setting           monoclinic
_symmetry_space_group_name_H-M   'P 21/c'
_symmetry_Int_Tables_number      14
_space_group_name_Hall           '-P 2ybc'
loop_
_symmetry_equiv_pos_site_id
_symmetry_equiv_pos_as_xyz
1 x,y,z
2 -x,1/2+y,1/2-z
3 -x,-y,-z
4 x,1/2-y,1/2+z
_cell_length_a                   17.4924(6)
_cell_length_b                   7.1943(1)
_cell_length_c                   28.4848(9)
_cell_angle_alpha                90
_cell_angle_beta                 95.601(2)
_cell_angle_gamma                90
_cell_volume                     3567.57
loop_
_atom_site_label
_atom_site_type_symbol
_atom_site_fract_x
_atom_site_fract_y
_atom_site_fract_z
Ag1 Ag 0.0587(1) 0.9119(2) 0.3643(1)
Ag2 Ag -0.4492(1) 0.5484(2) 0.3646(1)
O1 O -0.0533(6) 1.0379(14) 0.2847(3)
O2 O 0.0031(8) 1.1975(18) 0.3748(5)
O3 O -0.1831(6) 0.5912(15) 0.1049(4)
O4 O -0.1039(7) 0.3523(17) 0.0493(4)
O5 O -0.3261(6) 0.3806(15) 0.4006(4)
O6 O -0.4097(9) 0.6160(20) 0.4513(5)
O7 O -0.4438(6) -0.0648(14) 0.2216(4)
O8 O -0.5082(7) -0.2611(17) 0.1370(4)
N1 N -0.1057(8) 1.1790(20) 0.1743(5)
N2 N -0.3921(8) -0.2141(19) 0.3332(4)
C1 C -0.1313(9) 1.0450(20) 0.1895(5)
C2 C -0.1641(9) 0.8810(20) 0.2078(5)
C3 C -0.1637(8) 0.8660(20) 0.2564(5)
C4 C -0.1969(8) 0.7080(20) 0.2736(5)
C5 C -0.2299(8) 0.5654(19) 0.2441(5)
C6 C -0.2268(9) 0.5870(20) 0.1951(5)
C7 C -0.1933(9) 0.7440(20) 0.1763(5)
C8 C -0.3659(9) -0.0790(20) 0.3186(5)
C9 C -0.3340(9) 0.0870(20) 0.3005(5)
C10 C -0.3030(9) 0.2260(20) 0.3310(5)
C11 C -0.2701(9) 0.3810(20) 0.3121(5)
C12 C -0.2669(9) 0.4000(20) 0.2638(5)
C13 C -0.3004(8) 0.2590(20) 0.2338(5)
C14 C -0.3315(8) 0.1020(20) 0.2515(5)
C15 C -0.1934(10) 0.7640(20) 0.1240(5)
C16 C -0.1951(10) 0.5890(20) 0.0549(6)
C17 C -0.1806(10) 0.3980(20) 0.0375(6)
C18 C -0.0854(15) 0.1720(30) 0.0334(8)
C19 C -0.1345(9) 1.0120(20) 0.2897(5)
C20 C -0.0305(11) 1.2300(30) 0.2931(6)
C21 C -0.0403(13) 1.3020(30) 0.3403(7)
C22 C -0.0194(17) 1.2250(40) 0.4207(9)
C23 C -0.3028(10) 0.2080(20) 0.3829(5)
C24 C -0.3071(12) 0.4040(30) 0.4499(6)
C25 C -0.3307(13) 0.5940(30) 0.4628(8)
C26 C -0.4400(20) 0.7590(60) 0.4743(13)
C27 C -0.3623(9) -0.0450(20) 0.2188(5)
C28 C -0.4697(11) -0.2540(30) 0.2187(6)
C29 C -0.4594(12) -0.3480(30) 0.1731(6)
C30 C -0.4952(15) -0.3330(40) 0.0920(8)
H1 H -0.1975 0.6957 0.3061
H2 H -0.2477 0.4954 0.1748
H3 H -0.2499 0.4748 0.3322
H4 H -0.3012 0.2728 0.2013
H5 H -0.2418 0.8165 0.1107
H6 H -0.1523 0.8465 0.1168
H7 H -0.1606 0.6764 0.0419
H8 H -0.2475 0.6255 0.0447
H9 H -0.2133 0.3101 0.0517
H10 H -0.1924 0.3936 0.0036
H11 H -0.0316 0.1482 0.0412
H12 H -0.0972 0.1643 -0.0002
H13 H -0.1148 0.0803 0.0483
H14 H -0.1622 1.1274 0.2828
H15 H -0.1416 0.9755 0.3218
H16 H -0.0599 1.3074 0.2701
H17 H 0.0232 1.2422 0.2878
H18 H -0.0240 1.4308 0.3424
H19 H -0.0941 1.2966 0.3457
H20 H 0.0111 1.1474 0.4426
H21 H -0.0727 1.1929 0.4210
H22 H -0.0120 1.3529 0.4295
H23 H -0.3380 0.1103 0.3904
H24 H -0.2518 0.1759 0.3969
H25 H -0.2523 0.3876 0.4577
H26 H -0.3337 0.3116 0.4671
H27 H -0.3182 0.6139 0.4963
H28 H -0.3031 0.6853 0.4459
H29 H -0.4943 0.7644 0.4660
H30 H -0.4168 0.8735 0.4656
H31 H -0.4298 0.7406 0.5078
H32 H -0.3527 -0.0138 0.1868
H33 H -0.3368 -0.1620 0.2271
H34 H -0.5238 -0.2570 0.2237
H35 H -0.4421 -0.3241 0.2440
H36 H -0.4063 -0.3373 0.1662
H37 H -0.4721 -0.4784 0.1750
H38 H -0.5271 -0.2687 0.0680
H39 H -0.5075 -0.4633 0.0908
H40 H -0.4422 -0.3165 0.0868
O3A O 0.1831(6) 1.0912(15) 0.3951(4)
O4A O 0.1039(7) 0.8523(17) 0.4507(4)
N1A N 0.1057(8) 0.6790(20) 0.3257(5)
O8A O -0.4918(7) 0.2389(17) 0.3630(4)
N2_2 N -0.3921(8) 0.7859(19) 0.3332(4)
Ag1A Ag -0.0587(1) 0.4119(2) 0.1357(1)
Ag2A Ag -0.5508(1) 0.0484(2) 0.1354(1)
Ag1A_2 Ag -0.0587(1) 1.4119(2) 0.1357(1)
Ag2_2 Ag -0.4492(1) -0.4516(2) 0.3646(1)
F1 F 0.6360(15) -0.9920(30) 0.0832(8)
F2 F 0.6340(8) -0.7130(20) 0.0563(6)
F3 F 0.7098(8) -0.8220(20) 0.1218(5)
F4 F 0.5807(7) -0.7850(20) 0.1205(5)
B1 B 0.6422(16) -0.8110(40) 0.0971(9)
F5 F -0.1886(11) 0.8580(30) 0.3975(7)
F6 F -0.0716(6) 0.7646(17) 0.3888(4)
F7 F -0.1626(11) 0.5710(30) 0.4012(7)
F8 F -0.1220(9) 0.7280(30) 0.4590(5)
B2 B -0.1336(15) 0.7470(40) 0.4143(9)
loop_
_geom_bond_atom_site_label_1
_geom_bond_atom_site_label_2
_geom_bond_site_symmetry_1
_geom_bond_site_symmetry_2
Ag1 O2 1_555 1_555
Ag2 O5 1_555 1_555
F1 B1 1_555 1_555
F2 B1 1_555 1_555
F3 B1 1_555 1_555
F4 B1 1_555 1_555
F5 B2 1_555 1_555
F6 B2 1_555 1_555
F7 B2 1_555 1_555
F8 B2 1_555 1_555
O1 C19 1_555 1_555
O2 C21 1_555 1_555
O3 C15 1_555 1_555
O4 C17 1_555 1_555
O5 C23 1_555 1_555
O6 Ag2 1_555 1_555
O7 C27 1_555 1_555
O8 C29 1_555 1_555
N1 C1 1_555 1_555
N2 C8 1_555 1_555
C1 C2 1_555 1_555
C2 C3 1_555 1_555
C3 C4 1_555 1_555
C4 C5 1_555 1_555
C5 C6 1_555 1_555
C6 C7 1_555 1_555
C7 C2 1_555 1_555
C8 C9 1_555 1_555
C9 C10 1_555 1_555
C10 C11 1_555 1_555
C11 C12 1_555 1_555
C12 C5 1_555 1_555
C13 C12 1_555 1_555
C14 C9 1_555 1_555
C15 C7 1_555 1_555
C16 O3 1_555 1_555
C17 C16 1_555 1_555
C18 O4 1_555 1_555
C19 C3 1_555 1_555
C20 O1 1_555 1_555
C21 C20 1_555 1_555
C22 O2 1_555 1_555
C23 C10 1_555 1_555
C24 O5 1_555 1_555
C25 O6 1_555 1_555
C26 O6 1_555 1_555
C27 C14 1_555 1_555
C28 O7 1_555 1_555
C29 C28 1_555 1_555
C30 O8 1_555 1_555
H1 C4 1_555 1_555
H2 C6 1_555 1_555
H3 C11 1_555 1_555
H4 C13 1_555 1_555
H5 C15 1_555 1_555
H6 C15 1_555 1_555
H7 C16 1_555 1_555
H8 C16 1_555 1_555
H9 C17 1_555 1_555
H10 C17 1_555 1_555
H11 C18 1_555 1_555
H12 C18 1_555 1_555
H13 C18 1_555 1_555
H14 C19 1_555 1_555
H15 C19 1_555 1_555
H16 C20 1_555 1_555
H17 C20 1_555 1_555
H18 C21 1_555 1_555
H19 C21 1_555 1_555
H20 C22 1_555 1_555
H21 C22 1_555 1_555
H22 C22 1_555 1_555
H23 C23 1_555 1_555
H24 C23 1_555 1_555
H25 C24 1_555 1_555
H26 C24 1_555 1_555
H27 C25 1_555 1_555
H28 C25 1_555 1_555
H29 C26 1_555 1_555
H30 C26 1_555 1_555
H31 C26 1_555 1_555
H32 C27 1_555 1_555
H33 C27 1_555 1_555
H34 C28 1_555 1_555
H35 C28 1_555 1_555
H36 C29 1_555 1_555
H37 C29 1_555 1_555
H38 C30 1_555 1_555
H39 C30 1_555 1_555
H40 C30 1_555 1_555
O3A Ag1 1_555 1_555
O4A Ag1 1_555 1_555
N1A Ag1 1_555 1_555
O8A Ag2 1_555 1_555
N2_2 Ag2 1_555 1_555
Ag1A O3 1_555 1_555
Ag2A O8 1_555 1_555
Ag1A_2 N1 1_555 1_555
Ag2_2 N2 1_555 1_555
O4 Ag1A 1_555 1_555
C13 C14 1_555 1_555
C24 C25 1_555 1_555

#END
