
#######################################################################
#
#                 Cambridge Crystallographic Data Centre
#                                CCDC 
#
#######################################################################
#
# If this CIF has been generated from an entry in the Cambridge 
# Structural Database, then it will include bibliographic, chemical, 
# crystal, experimental, refinement or atomic coordinate data resulting 
# from the CCDC's data processing and validation procedures.
#
#######################################################################

data_NANPID
_symmetry_cell_setting           monoclinic
_symmetry_space_group_name_H-M   'P 21/c'
_symmetry_Int_Tables_number      14
_space_group_name_Hall           '-P 2ybc'
loop_
_symmetry_equiv_pos_site_id
_symmetry_equiv_pos_as_xyz
1 x,y,z
2 -x,1/2+y,1/2-z
3 -x,-y,-z
4 x,1/2-y,1/2+z
_cell_length_a                   7.426(6)
_cell_length_b                   9.302(3)
_cell_length_c                   19.841(9)
_cell_angle_alpha                90
_cell_angle_beta                 98.34(6)
_cell_angle_gamma                90
_cell_volume                     1356.06
loop_
_atom_site_label
_atom_site_type_symbol
_atom_site_fract_x
_atom_site_fract_y
_atom_site_fract_z
Cd1 Cd 0.28064(5) 0.06900(4) 0.20614(2)
N1 N 0.3065(6) 0.1284(5) 0.0932(2)
N2 N 0.2122(6) -0.1337(5) 0.1381(2)
N3 N 0.2682(7) -0.0290(6) 0.3437(2)
N4 N 0.6488(8) -0.1298(5) 0.2366(3)
O1 O 0.6016(7) -0.0114(5) 0.2109(3)
O2 O 0.3818(9) 0.0649(5) 0.3320(4)
O3 O 0.2608(10) -0.0748(6) 0.3999(3)
O4 O 0.1615(8) -0.0720(6) 0.2932(3)
O5 O 0.8043(7) -0.1743(8) 0.2335(5)
O6 O -0.0409(7) 0.1249(6) 0.1721(3)
O7 O 0.5424(8) -0.2039(5) 0.2662(3)
C1 C 0.2179(7) -0.1212(6) 0.0708(3)
C2 C 0.2595(11) 0.0548(9) -0.0227(3)
C3 C 0.3544(9) 0.2581(7) 0.0732(3)
C4 C 0.1762(10) -0.2643(7) 0.1627(4)
C5 C 0.1870(10) -0.2382(7) 0.0281(4)
C6 C 0.2613(7) 0.0236(6) 0.0463(3)
C7 C 0.3584(10) 0.2922(9) 0.0038(4)
C8 C 0.1508(9) -0.3716(7) 0.0540(4)
C9 C 0.3094(10) 0.1888(9) -0.0432(3)
C10 C 0.1460(9) -0.3848(7) 0.1223(4)
H1 H 0.211(9) -0.218(8) -0.021(4)
H2 H 0.176(8) -0.272(7) 0.194(3)
H3 H 0.399(8) 0.372(8) -0.012(3)
H4 H 0.235(13) 0.002(14) -0.046(5)
H5 H 0.380(7) 0.317(7) 0.100(3)
H6 H 0.281(12) 0.205(10) -0.101(5)
H7 H 0.138(10) -0.457(9) 0.147(4)
H8 H 0.134(8) -0.469(8) 0.029(4)
H9 H -0.137(11) 0.070(10) 0.151(6)
H10 H -0.062(14) 0.206(9) 0.197(5)
Cd1A Cd 0.71936(5) -0.43100(4) 0.29386(2)
O5A O 0.1957(7) 0.3257(8) 0.2665(5)
O7A O 0.4576(8) 0.2961(5) 0.2338(3)
loop_
_geom_bond_atom_site_label_1
_geom_bond_atom_site_label_2
_geom_bond_site_symmetry_1
_geom_bond_site_symmetry_2
Cd1 N1 1_555 1_555
N1 C3 1_555 1_555
N2 Cd1 1_555 1_555
N3 O2 1_555 1_555
N4 O1 1_555 1_555
O1 Cd1 1_555 1_555
O2 Cd1 1_555 1_555
O3 N3 1_555 1_555
O4 Cd1 1_555 1_555
O5 N4 1_555 1_555
O6 Cd1 1_555 1_555
O7 N4 1_555 1_555
C1 N2 1_555 1_555
C2 C6 1_555 1_555
C3 C7 1_555 1_555
C4 N2 1_555 1_555
C5 C1 1_555 1_555
C6 N1 1_555 1_555
C7 C9 1_555 1_555
C8 C5 1_555 1_555
C9 C2 1_555 1_555
C10 C4 1_555 1_555
H1 C5 1_555 1_555
H2 C4 1_555 1_555
H3 C7 1_555 1_555
H4 C2 1_555 1_555
H5 C3 1_555 1_555
H6 C9 1_555 1_555
H7 C10 1_555 1_555
H8 C8 1_555 1_555
H9 O6 1_555 1_555
H10 O6 1_555 1_555
Cd1A O5 1_555 1_555
O5A Cd1 1_555 1_555
O7A Cd1 1_555 1_555
N3 O4 1_555 1_555
O7 Cd1A 1_555 1_555
C1 C6 1_555 1_555
C8 C10 1_555 1_555

#END
