
#######################################################################
#
#                 Cambridge Crystallographic Data Centre
#                                CCDC 
#
#######################################################################
#
# If this CIF has been generated from an entry in the Cambridge 
# Structural Database, then it will include bibliographic, chemical, 
# crystal, experimental, refinement or atomic coordinate data resulting 
# from the CCDC's data processing and validation procedures.
#
#######################################################################

data_NANWOP
_symmetry_cell_setting           triclinic
_symmetry_space_group_name_H-M   'P -1'
_symmetry_Int_Tables_number      2
_space_group_name_Hall           '-P 1'
loop_
_symmetry_equiv_pos_site_id
_symmetry_equiv_pos_as_xyz
1 x,y,z
2 -x,-y,-z
_cell_length_a                   11.6707(7)
_cell_length_b                   14.1256(11)
_cell_length_c                   14.9212(9)
_cell_angle_alpha                89.544(5)
_cell_angle_beta                 71.742(4)
_cell_angle_gamma                82.640(4)
_cell_volume                     2315.41
loop_
_atom_site_label
_atom_site_type_symbol
_atom_site_fract_x
_atom_site_fract_y
_atom_site_fract_z
Cd1 Cd 0.262198(19) 0.257539(14) 0.233941(15)
O1 O 0.0682(2) 0.27778(19) 0.35292(17)
O2 O 0.4454(2) 0.23646(17) 0.11302(18)
N1 N 0.2487(2) 0.55668(17) 0.32400(18)
N2 N 0.3265(2) 0.56145(19) 0.23459(19)
N3 N 0.2791(2) 0.41285(17) 0.26455(17)
N4 N 0.6039(2) 0.83087(18) 0.52576(17)
N5 N 0.5300(3) 0.89729(19) 0.5912(2)
N6 N 0.6506(2) 0.80103(17) 0.65420(17)
N7 N 0.2782(2) -0.04111(17) 0.14423(18)
N8 N 0.2069(3) -0.04896(19) 0.23460(19)
N9 N 0.2437(2) 0.10202(17) 0.20649(18)
N10 N -0.0933(2) -0.34172(17) -0.01011(16)
N11 N -0.0216(2) -0.40625(19) -0.07854(19)
N12 N -0.1602(2) -0.31649(17) -0.12969(17)
C1 C 0.3012(3) 0.6913(2) 0.4000(2)
C2 C 0.3720(3) 0.6495(2) 0.4524(2)
H1 H 0.3559 0.5901 0.4808
C3 C 0.4657(3) 0.6934(2) 0.4638(2)
H2 H 0.5141 0.6638 0.4995
C4 C 0.4902(3) 0.7809(2) 0.4233(2)
C5 C 0.4181(3) 0.8233(2) 0.3727(2)
H3 H 0.4326 0.8835 0.3458
C6 C 0.3245(3) 0.7784(2) 0.3609(2)
H4 H 0.2758 0.8080 0.3254
C7 C 0.2010(3) 0.6427(2) 0.3850(3)
H5 H 0.1472 0.6253 0.4469
H6 H 0.1515 0.6877 0.3562
C8 C 0.5967(3) 0.8268(3) 0.4298(2)
H7 H 0.6727 0.7906 0.3881
H8 H 0.5905 0.8926 0.4066
C9 C 0.3416(3) 0.4733(2) 0.2026(2)
H9 H 0.3925 0.4532 0.1407
C10 C 0.2218(3) 0.4687(2) 0.3396(2)
H10 H 0.1687 0.4487 0.3968
C11 C 0.5619(3) 0.8765(2) 0.6663(2)
H11 H 0.5258 0.9113 0.7247
C12 C 0.6734(3) 0.7743(2) 0.5647(2)
H12 H 0.7312 0.7220 0.5330
C13 C 0.2210(3) -0.1796(2) 0.0783(2)
C14 C 0.1230(3) -0.1365(2) 0.0523(2)
H13 H 0.1205 -0.0719 0.0342
C15 C 0.0285(3) -0.1872(2) 0.0528(2)
H14 H -0.0384 -0.1569 0.0351
C16 C 0.0309(3) -0.2816(2) 0.0787(2)
C17 C 0.1278(3) -0.3238(2) 0.1049(2)
H15 H 0.1302 -0.3884 0.1232
C18 C 0.2222(3) -0.2734(2) 0.1050(2)
H16 H 0.2882 -0.3036 0.1237
C19 C 0.3236(3) -0.1250(2) 0.0793(2)
H17 H 0.3851 -0.1673 0.0991
H18 H 0.3635 -0.1041 0.0148
C20 C -0.0734(3) -0.3360(2) 0.0820(2)
H19 H -0.0564 -0.4014 0.1031
H20 H -0.1486 -0.3042 0.1289
C21 C 0.1888(3) 0.0389(2) 0.2689(2)
H21 H 0.1411 0.0567 0.3322
C22 C 0.2997(3) 0.0483(2) 0.1288(2)
H22 H 0.3479 0.0707 0.0707
C23 C -0.0667(3) -0.3881(2) -0.1480(2)
H23 H -0.0359 -0.4228 -0.2068
C24 C -0.1742(3) -0.2896(2) -0.0421(2)
H24 H -0.2338 -0.2400 -0.0069
H46 H 0.060(3) 0.241(2) 0.394(2)
H47 H 0.451(4) 0.272(2) 0.070(2)
H48 H 0.033(3) 0.3274(18) 0.366(3)
H49 H 0.499(4) 0.246(3) 0.137(3)
Cd1A Cd 0.737802(19) 0.742461(14) 0.766059(15)
Cd1A_2 Cd -0.262198(19) -0.257539(14) -0.233941(15)
N6A N 0.3494(2) 0.19897(17) 0.34580(17)
N12A N 0.1602(2) 0.31649(17) 0.12969(17)
Cl1 Cl -0.12337(7) 0.55819(6) 0.38549(5)
O6 O -0.2519(3) 0.5724(3) 0.4181(3)
O7 O -0.0751(5) 0.5849(3) 0.2916(2)
O8 O -0.0850(3) 0.4595(2) 0.3909(3)
O9 O -0.0814(2) 0.6111(2) 0.4474(2)
Cl2 Cl 0.65726(8) -0.07525(6) 0.14264(6)
O10 O 0.7609(3) -0.0591(2) 0.0656(2)
O11 O 0.6586(4) -0.0322(3) 0.2264(2)
O12 O 0.6326(11) -0.1673(9) 0.1365(12)
O13 O 0.5543(10) -0.0135(9) 0.1210(7)
O3 O 0.6121(3) 0.2672(3) 0.1929(2)
N13 N 0.7867(3) 0.2226(3) 0.2259(2)
C25 C 0.7689(6) 0.3038(5) 0.2890(5)
H25 H 0.8202 0.3514 0.2566
H26 H 0.7913 0.2832 0.3449
H27 H 0.6833 0.3320 0.3084
C26 C 0.8992(5) 0.1577(4) 0.2061(4)
H28 H 0.8930 0.1003 0.1723
H29 H 0.9137 0.1396 0.2656
H30 H 0.9670 0.1892 0.1671
C27 C 0.7053(4) 0.2116(4) 0.1837(3)
H31 H 0.7198 0.1568 0.1433
O4 O 0.0579(3) 0.14144(19) 0.47941(18)
N14 N 0.1082(3) 0.0880(2) 0.6070(2)
C28 C 0.0931(4) 0.1041(4) 0.7065(3)
H32 H 0.0564 0.1701 0.7256
H33 H 0.1728 0.0929 0.7165
H34 H 0.0401 0.0602 0.7443
C29 C 0.1760(4) -0.0010(3) 0.5605(3)
H35 H 0.1224 -0.0510 0.5735
H36 H 0.2445 -0.0197 0.5844
H37 H 0.2067 0.0074 0.4923
C30 C 0.0572(3) 0.1506(3) 0.5616(3)
H38 H 0.0158 0.2084 0.5949
O5 O 0.4457(2) 0.3654(2) -0.02140(18)
N15 N 0.3728(2) 0.4330(2) -0.13331(19)
C31 C 0.3730(4) 0.4296(4) -0.2305(3)
H39 H 0.4187 0.4790 -0.2656
H40 H 0.2891 0.4408 -0.2321
H41 H 0.4115 0.3667 -0.2594
C32 C 0.3096(4) 0.5168(3) -0.0748(3)
H42 H 0.3119 0.5074 -0.0102
H43 H 0.2247 0.5271 -0.0743
H44 H 0.3493 0.5727 -0.1002
C33 C 0.4359(3) 0.3652(3) -0.1006(3)
H45 H 0.4770 0.3121 -0.1418
O14? O 0.6851(8) -0.1727(6) 0.1680(8)
O15? O 0.5522(11) -0.0586(9) 0.1324(11)
loop_
_geom_bond_atom_site_label_1
_geom_bond_atom_site_label_2
_geom_bond_site_symmetry_1
_geom_bond_site_symmetry_2
Cd1 O1 1_555 1_555
Cl1 O6 1_555 1_555
Cl2 O10 1_555 1_555
O1 H46 1_555 1_555
O2 Cd1 1_555 1_555
O3 C27 1_555 1_555
O4 C30 1_555 1_555
O5 C33 1_555 1_555
O7 Cl1 1_555 1_555
O8 Cl1 1_555 1_555
O9 Cl1 1_555 1_555
O11 Cl2 1_555 1_555
N1 N2 1_555 1_555
N2 C9 1_555 1_555
N3 Cd1 1_555 1_555
N4 N5 1_555 1_555
N5 C11 1_555 1_555
N6 C11 1_555 1_555
N7 N8 1_555 1_555
N8 C21 1_555 1_555
N9 Cd1 1_555 1_555
N10 N11 1_555 1_555
N11 C23 1_555 1_555
N12 C23 1_555 1_555
N13 C25 1_555 1_555
N14 C28 1_555 1_555
N15 C31 1_555 1_555
C1 C2 1_555 1_555
C2 H1 1_555 1_555
C3 C2 1_555 1_555
H2 C3 1_555 1_555
C4 C3 1_555 1_555
C5 C4 1_555 1_555
H3 C5 1_555 1_555
C6 C1 1_555 1_555
H4 C6 1_555 1_555
C7 N1 1_555 1_555
H5 C7 1_555 1_555
H6 C7 1_555 1_555
C8 N4 1_555 1_555
H7 C8 1_555 1_555
H8 C8 1_555 1_555
C9 N3 1_555 1_555
H9 C9 1_555 1_555
C10 N1 1_555 1_555
H10 C10 1_555 1_555
C11 H11 1_555 1_555
C12 N4 1_555 1_555
H12 C12 1_555 1_555
C13 C14 1_555 1_555
C14 H13 1_555 1_555
C15 C14 1_555 1_555
H14 C15 1_555 1_555
C16 C15 1_555 1_555
C17 C16 1_555 1_555
H15 C17 1_555 1_555
C18 C13 1_555 1_555
H16 C18 1_555 1_555
C19 N7 1_555 1_555
H17 C19 1_555 1_555
H18 C19 1_555 1_555
C20 N10 1_555 1_555
H19 C20 1_555 1_555
H20 C20 1_555 1_555
C21 N9 1_555 1_555
H21 C21 1_555 1_555
C22 N7 1_555 1_555
H22 C22 1_555 1_555
C23 H23 1_555 1_555
C24 N10 1_555 1_555
H24 C24 1_555 1_555
C25 H25 1_555 1_555
H26 C25 1_555 1_555
H27 C25 1_555 1_555
C26 N13 1_555 1_555
H28 C26 1_555 1_555
H29 C26 1_555 1_555
H30 C26 1_555 1_555
C27 N13 1_555 1_555
H31 C27 1_555 1_555
C28 H32 1_555 1_555
H33 C28 1_555 1_555
H34 C28 1_555 1_555
C29 N14 1_555 1_555
H35 C29 1_555 1_555
H36 C29 1_555 1_555
H37 C29 1_555 1_555
C30 N14 1_555 1_555
H38 C30 1_555 1_555
C31 H39 1_555 1_555
H40 C31 1_555 1_555
H41 C31 1_555 1_555
C32 N15 1_555 1_555
H42 C32 1_555 1_555
H43 C32 1_555 1_555
H44 C32 1_555 1_555
C33 N15 1_555 1_555
H45 C33 1_555 1_555
H47 O2 1_555 1_555
H48 O1 1_555 1_555
H49 O2 1_555 1_555
O12 Cl2 1_555 1_555
O13 Cl2 1_555 1_555
Cd1A N6 1_555 1_555
Cd1A_2 N12 1_555 1_555
N6A Cd1 1_555 1_555
N12A Cd1 1_555 1_555
N3 C10 1_555 1_555
N6 C12 1_555 1_555
N9 C22 1_555 1_555
N12 C24 1_555 1_555
C1 C7 1_555 1_555
C4 C8 1_555 1_555
C5 C6 1_555 1_555
C13 C19 1_555 1_555
C16 C20 1_555 1_555
C17 C18 1_555 1_555

#END
