
#######################################################################
#
#                 Cambridge Crystallographic Data Centre
#                                CCDC 
#
#######################################################################
#
# If this CIF has been generated from an entry in the Cambridge 
# Structural Database, then it will include bibliographic, chemical, 
# crystal, experimental, refinement or atomic coordinate data resulting 
# from the CCDC's data processing and validation procedures.
#
#######################################################################

data_NANWEF
_symmetry_cell_setting           monoclinic
_symmetry_space_group_name_H-M   'C 2/c'
_symmetry_Int_Tables_number      15
_space_group_name_Hall           '-C 2yn'
loop_
_symmetry_equiv_pos_site_id
_symmetry_equiv_pos_as_xyz
1 x,y,z
2 1/2+x,1/2+y,z
3 -x,y,1/2-z
4 1/2-x,1/2+y,1/2-z
5 -x,-y,-z
6 1/2-x,1/2-y,-z
7 x,-y,1/2+z
8 1/2+x,1/2-y,1/2+z
_cell_length_a                   15.744(3)
_cell_length_b                   16.954(3)
_cell_length_c                   14.824(3)
_cell_angle_alpha                90
_cell_angle_beta                 118.91(3)
_cell_angle_gamma                90
_cell_volume                     3463.77
loop_
_atom_site_label
_atom_site_type_symbol
_atom_site_fract_x
_atom_site_fract_y
_atom_site_fract_z
Cd1 Cd 0.0000 -0.140520(13) -0.2500
O1 O -0.15630(19) -0.14358(15) -0.2787(2)
N1 N 0.55099(17) 0.21150(14) 0.01720(16)
N2 N 0.5800(2) 0.15639(16) -0.0279(2)
N3 N 0.53312(17) 0.26547(13) -0.12312(17)
N4 N 0.14105(15) 0.02730(14) 0.01110(15)
N5 N 0.06325(18) 0.07378(14) -0.04588(19)
N6 N 0.04990(17) -0.04090(13) -0.12629(17)
C1 C 0.4663(2) 0.15898(17) 0.1090(2)
C2 C 0.3899(2) 0.20452(17) 0.0990(2)
H1 H 0.3927 0.2602 0.0936
C3 C 0.3091(2) 0.17059(19) 0.0965(2)
H2 H 0.2565 0.2029 0.0884
C4 C 0.30447(19) 0.08948(16) 0.10601(18)
C5 C 0.3810(2) 0.04394(16) 0.1156(2)
H3 H 0.3784 -0.0117 0.1213
C6 C 0.4611(2) 0.07777(18) 0.1171(2)
H4 H 0.5131 0.0454 0.1236
C7 C 0.5560(2) 0.1979(2) 0.1177(2)
H5 H 0.5658 0.2490 0.1536
H6 H 0.6130 0.1642 0.1602
C8 C 0.2195(2) 0.0534(2) 0.1114(2)
H7 H 0.2427 0.0076 0.1587
H8 H 0.1932 0.0926 0.1409
C9 C 0.5684(2) 0.19179(17) -0.1114(2)
H9 H 0.5836 0.1676 -0.1596
C10 C 0.52199(19) 0.27540(16) -0.04080(19)
H10 H 0.4969 0.3216 -0.0258
C11 C 0.0107(2) 0.03061(16) -0.1277(2)
H11 H 0.5494 -0.4521 -0.3171
C12 C 0.3683(2) -0.54009(16) -0.4625(2)
H12 H 0.3228 -0.5821 -0.4877
H13 H -0.178(3) -0.183(3) -0.274(3)
H14 H -0.207(3) -0.111(3) -0.312(3)
Cd1A Cd 0.5000 0.359480(13) -0.2500
Cd1A_2 Cd 0.5000 -0.640520(13) -0.2500
O1B O 0.15630(19) -0.14358(15) -0.2213(2)
N1C N -0.05099(17) -0.28850(14) -0.51720(16)
N2C N -0.0800(2) -0.34361(16) -0.4721(2)
N3A N 0.03312(17) -0.23453(13) -0.12312(17)
N3C N -0.03312(17) -0.23453(13) -0.37688(17)
N4C N 0.35895(15) -0.47270(14) -0.51110(15)
N5C N 0.43675(18) -0.42622(14) -0.45412(19)
N6C N 0.45010(17) -0.54090(13) -0.37371(17)
N6B N -0.04990(17) -0.04090(13) -0.37371(17)
C1C C 0.0337(2) -0.34102(17) -0.6090(2)
C2C C 0.1101(2) -0.29548(17) -0.5990(2)
H1C H 0.1073 -0.2398 -0.5936
C3C C 0.1909(2) -0.32941(19) -0.5965(2)
H2C H 0.2435 -0.2971 -0.5884
C4C C 0.19553(19) -0.41052(16) -0.60601(18)
C5C C 0.1190(2) -0.45606(16) -0.6156(2)
H3C H 0.1216 -0.5117 -0.6213
C6C C 0.0389(2) -0.42223(18) -0.6171(2)
H4C H -0.0131 -0.4546 -0.6236
C7C C -0.0560(2) -0.3021(2) -0.6177(2)
H5C H -0.0658 -0.2510 -0.6536
H6C H -0.1130 -0.3358 -0.6602
C8C C 0.2805(2) -0.4466(2) -0.6114(2)
H7C H 0.2573 -0.4924 -0.6587
H8C H 0.3068 -0.4074 -0.6409
C9C C -0.0684(2) -0.30821(17) -0.3886(2)
H9C H -0.0836 -0.3324 -0.3404
C10C C -0.02199(19) -0.22460(16) -0.45920(19)
H10C H 0.0031 -0.1784 -0.4742
C11C C 0.4893(2) -0.46939(16) -0.3723(2)
H11C H -0.0494 0.0479 -0.1829
C12C C 0.1317(2) -0.04009(16) -0.0375(2)
H12C H 0.1772 -0.0821 -0.0123
H13B H 0.178(3) -0.183(3) -0.226(3)
H14B H 0.207(3) -0.111(3) -0.188(3)
Cl1 Cl 0.26903(6) 0.15070(4) -0.23943(7)
O2 O 0.2995(2) 0.22706(16) -0.1957(2)
O3 O 0.3502(3) 0.1018(2) -0.2150(3)
O4 O 0.2159(4) 0.1565(3) -0.3446(3)
O5 O 0.2110(4) 0.1184(3) -0.2021(5)
O6 O 0.2024(2) 0.45750(16) -0.3800(2)
H15 H 0.157(3) 0.442(3) -0.434(4)
H16 H 0.196(4) 0.516(4) -0.371(4)
loop_
_geom_bond_atom_site_label_1
_geom_bond_atom_site_label_2
_geom_bond_site_symmetry_1
_geom_bond_site_symmetry_2
Cd1 O1 1_555 1_555
Cl1 O2 1_555 1_555
O1 H13 1_555 1_555
O3 Cl1 1_555 1_555
O4 Cl1 1_555 1_555
O5 Cl1 1_555 1_555
O6 H15 1_555 1_555
N1 N2 1_555 1_555
N2 C9 1_555 1_555
N3 C9 1_555 1_555
N4 N5 1_555 1_555
N5 C11 1_555 1_555
N6 Cd1 1_555 1_555
C1 C2 1_555 1_555
C2 H1 1_555 1_555
C3 C2 1_555 1_555
H2 C3 1_555 1_555
C4 C3 1_555 1_555
C5 C4 1_555 1_555
H3 C5 1_555 1_555
C6 C1 1_555 1_555
H4 C6 1_555 1_555
C7 N1 1_555 1_555
H5 C7 1_555 1_555
H6 C7 1_555 1_555
C8 N4 1_555 1_555
H7 C8 1_555 1_555
H8 C8 1_555 1_555
C9 H9 1_555 1_555
C10 N1 1_555 1_555
H10 C10 1_555 1_555
C11 N6 1_555 1_555
H11 C11C 1_555 1_555
C12 H12 1_555 1_555
H14 O1 1_555 1_555
H16 O6 1_555 1_555
Cd1A N3 1_555 1_555
Cd1A_2 N6C 1_555 1_555
O1B Cd1 1_555 1_555
N1C N2C 1_555 1_555
N2C C9C 1_555 1_555
N3A Cd1 1_555 1_555
N3C Cd1 1_555 1_555
N4C C12 1_555 1_555
N5C N4C 1_555 1_555
N6C C12 1_555 1_555
N6B Cd1 1_555 1_555
C1C C2C 1_555 1_555
C2C H1C 1_555 1_555
C3C C2C 1_555 1_555
H2C C3C 1_555 1_555
C4C C3C 1_555 1_555
C5C C4C 1_555 1_555
H3C C5C 1_555 1_555
C6C C1C 1_555 1_555
H4C C6C 1_555 1_555
C7C N1C 1_555 1_555
H5C C7C 1_555 1_555
H6C C7C 1_555 1_555
C8C N4C 1_555 1_555
H7C C8C 1_555 1_555
H8C C8C 1_555 1_555
C9C N3C 1_555 1_555
H9C C9C 1_555 1_555
C10C N1C 1_555 1_555
H10C C10C 1_555 1_555
C11C N5C 1_555 1_555
H11C C11 1_555 1_555
C12C N4 1_555 1_555
H12C C12C 1_555 1_555
H13B O1B 1_555 1_555
H14B O1B 1_555 1_555
N3 C10 1_555 1_555
N6 C12C 1_555 1_555
C1 C7 1_555 1_555
C4 C8 1_555 1_555
C5 C6 1_555 1_555
N3C C10C 1_555 1_555
N6C C11C 1_555 1_555
C1C C7C 1_555 1_555
C4C C8C 1_555 1_555
C5C C6C 1_555 1_555

#END
