
#######################################################################
#
#                 Cambridge Crystallographic Data Centre
#                                CCDC 
#
#######################################################################
#
# If this CIF has been generated from an entry in the Cambridge 
# Structural Database, then it will include bibliographic, chemical, 
# crystal, experimental, refinement or atomic coordinate data resulting 
# from the CCDC's data processing and validation procedures.
#
#######################################################################

data_NANWAB
_symmetry_cell_setting           monoclinic
_symmetry_space_group_name_H-M   'P 21/n'
_symmetry_Int_Tables_number      14
_space_group_name_Hall           '-P 2yn'
loop_
_symmetry_equiv_pos_site_id
_symmetry_equiv_pos_as_xyz
1 x,y,z
2 1/2-x,1/2+y,1/2-z
3 -x,-y,-z
4 1/2+x,1/2-y,1/2+z
_cell_length_a                   14.5472(14)
_cell_length_b                   24.032(2)
_cell_length_c                   14.8451(14)
_cell_angle_alpha                90
_cell_angle_beta                 95.943(2)
_cell_angle_gamma                90
_cell_volume                     5161.93
loop_
_atom_site_label
_atom_site_type_symbol
_atom_site_fract_x
_atom_site_fract_y
_atom_site_fract_z
Cd1 Cd -1.0000 0.0000 0.0000
O1 O -1.0304(3) -0.08609(15) -0.0674(3)
H1 H -1.061(4) -0.109(2) -0.042(4)
H2 H -0.986(4) -0.106(3) -0.091(5)
N1 N -0.2878(2) 0.03267(17) -0.1077(3)
N2 N -0.2649(3) 0.0858(2) -0.0969(4)
N3 N -0.1450(2) 0.03064(15) -0.0491(3)
N4 N -1.1051(2) -0.03713(14) 0.2669(2)
N5 N -1.0811(3) -0.08981(16) 0.2491(2)
N6 N -1.0538(2) -0.03338(14) 0.1348(2)
C1 C -0.4423(2) 0.00824(18) -0.0685(3)
C2 C -0.4700(3) 0.05273(19) -0.0193(3)
H7 H -0.4496 0.0892 -0.0319
C3 C -0.4725(3) -0.04447(19) -0.0486(3)
H8 H -0.4536 -0.0755 -0.0818
C4 C -0.3824(3) 0.0168(3) -0.1428(3)
H9 H -0.3804 -0.0179 -0.1784
H10 H -0.4094 0.0464 -0.1838
C5 C -0.1778(3) 0.0824(2) -0.0603(5)
H11 H -0.1416 0.1144 -0.0433
C6 C -0.2172(3) 0.00041(19) -0.0820(3)
H12 H -0.2177 -0.0390 -0.0864
C7 C -1.0682(3) -0.01082(18) 0.4288(2)
C8 C -1.0454(4) 0.0429(2) 0.4537(3)
H13 H -1.0759 0.0730 0.4217
C9 C -0.9782(4) 0.05378(19) 0.5252(3)
H14 H -1.0357 -0.0912 0.4577
C10 C -1.1433(3) -0.0216(2) 0.3529(3)
H15 H -0.8182 -0.0122 0.6574
H16 H -0.8164 0.0520 0.6292
C11 C -1.0499(3) -0.08548(18) 0.1688(3)
H17 H -0.9731 0.1163 0.8622
C12 C -0.9104(3) 0.00393(17) 0.8015(3)
H18 H -0.8978 -0.0349 0.8045
Cd1_2 Cd 0.0000 0.0000 0.0000
Cd1_3 Cd -1.0000 0.0000 1.0000
O1B O -0.9696(3) 0.08609(15) 0.0674(3)
H1B H -0.939(4) 0.109(2) 0.042(4)
H2B H -1.014(4) 0.106(3) 0.091(5)
N1B N -0.7122(2) -0.03267(17) 0.1077(3)
N2B N -0.7351(3) -0.0858(2) 0.0969(4)
N3B N -0.8550(2) -0.03064(15) 0.0491(3)
N3_2 N -1.1450(2) 0.03064(15) -0.0491(3)
N4B N -0.8949(2) 0.03713(14) 0.7331(2)
N5B N -0.9189(3) 0.08981(16) 0.7509(2)
N6B N -0.9462(2) 0.03338(14) 0.8652(2)
N6B_2 N -0.9462(2) 0.03338(14) -0.1348(2)
C1B C -0.5577(2) -0.00824(18) 0.0685(3)
C2B C -0.5300(3) -0.05273(19) 0.0193(3)
H7B H -0.5504 -0.0892 0.0319
C3B C -0.5275(3) 0.04447(19) 0.0486(3)
H8B H -0.5464 0.0755 0.0818
C4B C -0.6176(3) -0.0168(3) 0.1428(3)
H9B H -0.6196 0.0179 0.1784
H10B H -0.5906 -0.0464 0.1838
C5B C -0.8222(3) -0.0824(2) 0.0603(5)
H11B H -0.8584 -0.1144 0.0433
C6B C -0.7828(3) -0.00041(19) 0.0820(3)
H12B H -0.7823 0.0390 0.0864
C7B C -0.9318(3) 0.01082(18) 0.5712(2)
C8B C -0.9546(4) -0.0429(2) 0.5463(3)
H13B H -0.9241 -0.0730 0.5783
C9B C -1.0218(4) -0.05378(19) 0.4748(3)
H14B H -0.9643 0.0912 0.5423
C10B C -0.8567(3) 0.0216(2) 0.6471(3)
H15B H -1.1818 0.0122 0.3426
H16B H -1.1836 -0.0520 0.3708
C11B C -0.9501(3) 0.08548(18) 0.8312(3)
H17B H -1.0269 -0.1163 0.1378
C12B C -1.0896(3) -0.00393(17) 0.1985(3)
H18B H -1.1022 0.0349 0.1955
Cd2 Cd 0.07860(2) 0.248032(11) -0.43081(2)
O2 O 0.2242(3) 0.2926(2) -0.4267(4)
H3 H 0.274(4) 0.294(4) -0.386(4)
H4 H 0.235(4) 0.294(3) -0.482(3)
O3 O 0.1356(3) 0.20013(15) -0.2987(2)
H5 H 0.093(6) 0.178(3) -0.280(4)
H6 H 0.151(4) 0.220(2) -0.251(3)
N7 N 0.0742(3) 0.37961(14) -0.2276(2)
N8 N -0.0194(3) 0.37544(16) -0.2406(3)
N9 N 0.0473(2) 0.31707(15) -0.3322(3)
N10 N 0.0535(3) 0.66879(17) -0.3261(4)
N11 N -0.0319(4) 0.6686(2) -0.2981(3)
N12 N 0.0338(3) 0.29326(15) -0.5649(3)
N13 N -0.1871(3) 0.16268(15) -0.4005(3)
N14 N -0.1915(3) 0.15792(17) -0.4922(3)
N15 N -0.0623(2) 0.20224(14) -0.4369(3)
N16 N -0.2204(2) -0.13040(15) -0.3989(2)
N17 N -0.2756(3) -0.1255(2) -0.4773(3)
N18 N 0.1557(2) 0.18105(14) -0.5046(2)
C13 C 0.1188(3) 0.47689(18) -0.1921(3)
C14 C 0.1492(4) 0.4915(2) -0.2740(3)
H19 H 0.1669 0.4632 -0.3135
C15 C 0.1541(4) 0.5467(2) -0.2995(4)
H20 H 0.1754 0.5560 -0.3560
C16 C 0.1281(4) 0.5884(2) -0.2430(5)
C17 C 0.0959(4) 0.5740(2) -0.1623(5)
H21 H 0.0761 0.6023 -0.1241
C18 C 0.0920(3) 0.5187(2) -0.1356(4)
H22 H 0.0710 0.5096 -0.0789
C19 C 0.1194(4) 0.41785(19) -0.1598(3)
H23 H 0.1842 0.4058 -0.1441
H24 H 0.0875 0.4158 -0.1041
C20 C 0.1360(5) 0.6488(3) -0.2688(7)
H25 H 0.1447 0.6716 -0.2131
H26 H 0.1911 0.6537 -0.3019
C21 C -0.0317(3) 0.33727(17) -0.3034(3)
H27 H -0.0912 0.3246 -0.3269
C22 C 0.1122(3) 0.34578(19) -0.2816(4)
H28 H 0.1768 0.3421 -0.2846
C23 C 0.0809(4) 0.3078(2) -0.6341(4)
H29 H 0.1454 0.3015 -0.6337
C24 C -0.0516(3) 0.3094(2) -0.5931(5)
H30 H -0.1035 0.3056 -0.5596
C25 C -0.2527(3) 0.07588(19) -0.3465(3)
C26 C -0.1716(3) 0.0490(2) -0.3158(4)
H31 H -0.1171 0.0701 -0.3002
C27 C -0.1691(3) -0.0081(2) -0.3074(4)
H32 H -0.1126 -0.0259 -0.2863
C28 C -0.2469(3) -0.03980(17) -0.3291(3)
C29 C -0.3285(3) -0.01312(19) -0.3600(3)
H33 H -0.3832 -0.0343 -0.3740
C30 C -0.3313(3) 0.04423(19) -0.3706(4)
H34 H -0.3870 0.0619 -0.3945
C31 C -0.2583(4) 0.1385(2) -0.3510(4)
H35 H -0.3198 0.1495 -0.3806
H36 H -0.2523 0.1537 -0.2886
C32 C -0.2440(4) -0.10236(19) -0.3171(3)
H37 H -0.1977 -0.1120 -0.2658
H38 H -0.3051 -0.1156 -0.3022
C33 C -0.1158(3) 0.18264(19) -0.5098(3)
H39 H -0.0993 0.1866 -0.5698
C34 C -0.1103(3) 0.18930(18) -0.3693(3)
H40 H -0.0926 0.1978 -0.3074
C35 C 0.2331(4) 0.1563(2) -0.4671(4)
H41 H 0.2553 0.1608 -0.4050
C36 C 0.1503(3) 0.16306(17) -0.5893(3)
H42 H 0.1024 0.1725 -0.6352
Cd2B Cd -0.07860(2) 0.751968(11) -0.56919(2)
Cd2B_2 Cd -0.07860(2) -0.248032(11) -0.56919(2)
O2B O -0.2242(3) -0.2926(2) -0.5733(4)
H3B H -0.274(4) -0.294(4) -0.614(4)
H4B H -0.235(4) -0.294(3) -0.518(3)
O3B O -0.1356(3) -0.20013(15) -0.7013(2)
H5B H -0.093(6) -0.178(3) -0.720(4)
H6B H -0.151(4) -0.220(2) -0.749(3)
N7B N -0.0742(3) 0.62039(14) -0.7724(2)
N8B N 0.0194(3) 0.62456(16) -0.7594(3)
N9B N -0.0473(2) 0.68293(15) -0.6678(3)
N9B_2 N -0.0473(2) -0.31707(15) -0.6678(3)
N10B N -0.0535(3) 0.33121(17) -0.6739(4)
N11B N 0.0319(4) 0.3314(2) -0.7019(3)
N12B N -0.0338(3) 0.70674(15) -0.4351(3)
N12B_2 N -0.0338(3) -0.29326(15) -0.4351(3)
N13B N 0.1871(3) -0.16268(15) -0.5995(3)
N14B N 0.1915(3) -0.15792(17) -0.5078(3)
N15B N 0.0623(2) -0.20224(14) -0.5631(3)
N16B N 0.2204(2) 0.13040(15) -0.6011(2)
N17B N 0.2756(3) 0.1255(2) -0.5227(3)
N18B N -0.1557(2) -0.18105(14) -0.4954(2)
C13B C -0.1188(3) 0.52311(18) -0.8079(3)
C14B C -0.1492(4) 0.5085(2) -0.7260(3)
H19B H -0.1669 0.5368 -0.6865
C15B C -0.1541(4) 0.4533(2) -0.7005(4)
H20B H -0.1754 0.4440 -0.6440
C16B C -0.1281(4) 0.4116(2) -0.7570(5)
C17B C -0.0959(4) 0.4260(2) -0.8377(5)
H21B H -0.0761 0.3977 -0.8759
C18B C -0.0920(3) 0.4813(2) -0.8644(4)
H22B H -0.0710 0.4904 -0.9211
C19B C -0.1194(4) 0.58215(19) -0.8402(3)
H23B H -0.1842 0.5942 -0.8559
H24B H -0.0875 0.5842 -0.8959
C20B C -0.1360(5) 0.3512(3) -0.7312(7)
H25B H -0.1447 0.3284 -0.7869
H26B H -0.1911 0.3463 -0.6981
C21B C 0.0317(3) 0.66273(17) -0.6966(3)
H27B H 0.0912 0.6754 -0.6731
C22B C -0.1122(3) 0.65422(19) -0.7184(4)
H28B H -0.1768 0.6579 -0.7154
C23B C -0.0809(4) 0.6922(2) -0.3659(4)
H29B H -0.1454 0.6985 -0.3663
C24B C 0.0516(3) 0.6906(2) -0.4069(5)
H30B H 0.1035 0.6944 -0.4404
C25B C 0.2527(3) -0.07588(19) -0.6535(3)
C26B C 0.1716(3) -0.0490(2) -0.6842(4)
H31B H 0.1171 -0.0701 -0.6998
C27B C 0.1691(3) 0.0081(2) -0.6926(4)
H32B H 0.1126 0.0259 -0.7137
C28B C 0.2469(3) 0.03980(17) -0.6709(3)
C29B C 0.3285(3) 0.01312(19) -0.6400(3)
H33B H 0.3832 0.0343 -0.6260
C30B C 0.3313(3) -0.04423(19) -0.6294(4)
H34B H 0.3870 -0.0619 -0.6055
C31B C 0.2583(4) -0.1385(2) -0.6490(4)
H35B H 0.3198 -0.1495 -0.6194
H36B H 0.2523 -0.1537 -0.7114
C32B C 0.2440(4) 0.10236(19) -0.6829(3)
H37B H 0.1977 0.1120 -0.7342
H38B H 0.3051 0.1156 -0.6978
C33B C 0.1158(3) -0.18264(19) -0.4902(3)
H39B H 0.0993 -0.1866 -0.4302
C34B C 0.1103(3) -0.18930(18) -0.6307(3)
H40B H 0.0926 -0.1978 -0.6926
C35B C -0.2331(4) -0.1563(2) -0.5329(4)
H41B H -0.2553 -0.1608 -0.5950
C36B C -0.1503(3) -0.16306(17) -0.4107(3)
H42B H -0.1024 -0.1725 -0.3648
O4 O 0.1330(6) 0.2551(3) -0.1337(5)
O5 O 0.4908(9) 0.1239(6) 0.4905(9)
O6 O 0.491(2) 0.2244(13) 0.612(2)
B1 B 0.7360(4) 0.3430(2) 0.5302(5)
F1 F 0.6429(3) 0.3347(2) 0.5133(4)
F2 F 0.7583(4) 0.3717(2) 0.6072(3)
F3 F 0.7804(3) 0.29400(16) 0.5297(4)
F4 F 0.7605(5) 0.3758(2) 0.4601(4)
B2 B 0.6069(4) 0.6551(2) 0.2648(3)
F5 F 0.6474(5) 0.70524(17) 0.2564(4)
F6 F 0.5264(3) 0.6489(4) 0.2183(4)
F7 F 0.6686(3) 0.61756(18) 0.2283(3)
F8 F 0.6062(4) 0.6415(3) 0.3522(2)
B3 B 0.1278(5) 0.7655(3) 0.1234(5)
F9 F 0.0795(4) 0.8074(2) 0.1554(3)
F10 F 0.1926(7) 0.7476(4) 0.1903(7)
F11 F 0.0722(8) 0.7224(3) 0.1012(9)
F12 F 0.1948(8) 0.7846(5) 0.0763(10)
F13? F 0.1300(15) 0.7778(7) 0.0341(7)
loop_
_geom_bond_atom_site_label_1
_geom_bond_atom_site_label_2
_geom_bond_site_symmetry_1
_geom_bond_site_symmetry_2
Cd1 O1 1_555 1_555
Cd2 O2 1_555 1_555
O1 H1 1_555 1_555
H2 O1 1_555 1_555
O2 H3 1_555 1_555
H4 O2 1_555 1_555
O3 Cd2 1_555 1_555
H5 O3 1_555 1_555
H6 O3 1_555 1_555
B1 F1 1_555 1_555
B2 F5 1_555 1_555
B3 F9 1_555 1_555
F2 B1 1_555 1_555
F3 B1 1_555 1_555
F4 B1 1_555 1_555
F6 B2 1_555 1_555
F7 B2 1_555 1_555
F8 B2 1_555 1_555
F10 B3 1_555 1_555
F11 B3 1_555 1_555
F12 B3 1_555 1_555
N1 N2 1_555 1_555
N2 C5 1_555 1_555
N3 C5 1_555 1_555
N4 N5 1_555 1_555
N5 C11 1_555 1_555
N6 Cd1 1_555 1_555
N7 N8 1_555 1_555
N8 C21 1_555 1_555
N9 Cd2 1_555 1_555
N10 N11 1_555 1_555
N11 C23B 1_555 1_555
N12 Cd2 1_555 1_555
N13 N14 1_555 1_555
N14 C33 1_555 1_555
N15 Cd2 1_555 1_555
N16 N17 1_555 1_555
N17 C35B 1_555 1_555
N18 Cd2 1_555 1_555
C1 C2 1_555 1_555
C2 H7 1_555 1_555
C3 C1 1_555 1_555
H8 C3 1_555 1_555
C4 N1 1_555 1_555
H9 C4 1_555 1_555
H10 C4 1_555 1_555
C5 H11 1_555 1_555
C6 N1 1_555 1_555
H12 C6 1_555 1_555
C7 C8 1_555 1_555
C8 H13 1_555 1_555
C9 C8 1_555 1_555
H14 C9B 1_555 1_555
C10 N4 1_555 1_555
H15 C10B 1_555 1_555
H16 C10B 1_555 1_555
C11 N6 1_555 1_555
H17 C11B 1_555 1_555
C12 H18 1_555 1_555
C13 C14 1_555 1_555
C14 H19 1_555 1_555
C15 C14 1_555 1_555
H20 C15 1_555 1_555
C16 C15 1_555 1_555
C17 C16 1_555 1_555
H21 C17 1_555 1_555
C18 C13 1_555 1_555
H22 C18 1_555 1_555
C19 N7 1_555 1_555
H23 C19 1_555 1_555
H24 C19 1_555 1_555
C20 N10 1_555 1_555
H25 C20 1_555 1_555
H26 C20 1_555 1_555
C21 N9 1_555 1_555
H27 C21 1_555 1_555
C22 N7 1_555 1_555
H28 C22 1_555 1_555
C23 N12 1_555 1_555
H29 C23 1_555 1_555
C24 N12 1_555 1_555
H30 C24 1_555 1_555
C25 C26 1_555 1_555
C26 H31 1_555 1_555
C27 C26 1_555 1_555
H32 C27 1_555 1_555
C28 C27 1_555 1_555
C29 C28 1_555 1_555
H33 C29 1_555 1_555
C30 C25 1_555 1_555
H34 C30 1_555 1_555
C31 N13 1_555 1_555
H35 C31 1_555 1_555
H36 C31 1_555 1_555
C32 N16 1_555 1_555
H37 C32 1_555 1_555
H38 C32 1_555 1_555
C33 N15 1_555 1_555
H39 C33 1_555 1_555
C34 N13 1_555 1_555
H40 C34 1_555 1_555
C35 N18 1_555 1_555
H41 C35 1_555 1_555
C36 N18 1_555 1_555
H42 C36 1_555 1_555
Cd1_2 N3 1_555 1_555
Cd1_3 N6B 1_555 1_555
Cd2B N9B 1_555 1_555
Cd2B_2 O2B 1_555 1_555
O1B Cd1 1_555 1_555
H1B O1B 1_555 1_555
H2B O1B 1_555 1_555
O2B H3B 1_555 1_555
H4B O2B 1_555 1_555
O3B Cd2B_2 1_555 1_555
H5B O3B 1_555 1_555
H6B O3B 1_555 1_555
N1B N2B 1_555 1_555
N2B C5B 1_555 1_555
N3B Cd1 1_555 1_555
N3_2 Cd1 1_555 1_555
N4B C12 1_555 1_555
N5B N4B 1_555 1_555
N6B C12 1_555 1_555
N6B_2 Cd1 1_555 1_555
N7B N8B 1_555 1_555
N8B C21B 1_555 1_555
N9B C21B 1_555 1_555
N9B_2 Cd2B_2 1_555 1_555
N10B C24 1_555 1_555
N11B C23 1_555 1_555
N12B Cd2B 1_555 1_555
N12B_2 Cd2B_2 1_555 1_555
N13B N14B 1_555 1_555
N14B C33B 1_555 1_555
N15B Cd2B_2 1_555 1_555
N16B C36 1_555 1_555
N17B C35 1_555 1_555
N18B Cd2B_2 1_555 1_555
C1B C2B 1_555 1_555
C2B C3 1_555 1_555
H7B C2B 1_555 1_555
C3B C2 1_555 1_555
H8B C3B 1_555 1_555
C4B N1B 1_555 1_555
H9B C4B 1_555 1_555
H10B C4B 1_555 1_555
C5B N3B 1_555 1_555
H11B C5B 1_555 1_555
C6B N1B 1_555 1_555
H12B C6B 1_555 1_555
C7B C9 1_555 1_555
C8B C7B 1_555 1_555
H13B C8B 1_555 1_555
C9B C7 1_555 1_555
H14B C9 1_555 1_555
C10B N4B 1_555 1_555
H15B C10 1_555 1_555
H16B C10 1_555 1_555
C11B N5B 1_555 1_555
H17B C11 1_555 1_555
C12B N4 1_555 1_555
H18B C12B 1_555 1_555
C13B C14B 1_555 1_555
C14B H19B 1_555 1_555
C15B C14B 1_555 1_555
H20B C15B 1_555 1_555
C16B C15B 1_555 1_555
C17B C16B 1_555 1_555
H21B C17B 1_555 1_555
C18B C13B 1_555 1_555
H22B C18B 1_555 1_555
C19B N7B 1_555 1_555
H23B C19B 1_555 1_555
H24B C19B 1_555 1_555
C20B N10B 1_555 1_555
H25B C20B 1_555 1_555
H26B C20B 1_555 1_555
C21B H27B 1_555 1_555
C22B N7B 1_555 1_555
H28B C22B 1_555 1_555
C23B N12B 1_555 1_555
H29B C23B 1_555 1_555
C24B N10 1_555 1_555
H30B C24B 1_555 1_555
C25B C26B 1_555 1_555
C26B H31B 1_555 1_555
C27B C26B 1_555 1_555
H32B C27B 1_555 1_555
C28B C27B 1_555 1_555
C29B C28B 1_555 1_555
H33B C29B 1_555 1_555
C30B C25B 1_555 1_555
H34B C30B 1_555 1_555
C31B N13B 1_555 1_555
H35B C31B 1_555 1_555
H36B C31B 1_555 1_555
C32B N16B 1_555 1_555
H37B C32B 1_555 1_555
H38B C32B 1_555 1_555
C33B N15B 1_555 1_555
H39B C33B 1_555 1_555
C34B N13B 1_555 1_555
H40B C34B 1_555 1_555
C35B N18B 1_555 1_555
H41B C35B 1_555 1_555
C36B N16 1_555 1_555
H42B C36B 1_555 1_555
N3 C6 1_555 1_555
N6 C12B 1_555 1_555
N9 C22 1_555 1_555
N15 C34 1_555 1_555
C1 C4 1_555 1_555
C7 C10 1_555 1_555
C13 C19 1_555 1_555
C16 C20 1_555 1_555
C17 C18 1_555 1_555
C25 C31 1_555 1_555
C28 C32 1_555 1_555
C29 C30 1_555 1_555
N3B C6B 1_555 1_555
N6B C11B 1_555 1_555
N9B C22B 1_555 1_555
N10B N11B 1_555 1_555
N12B C24B 1_555 1_555
N15B C34B 1_555 1_555
N16B N17B 1_555 1_555
N18B C36B 1_555 1_555
C1B C3B 1_555 1_555
C1B C4B 1_555 1_555
C7B C10B 1_555 1_555
C8B C9B 1_555 1_555
C13B C19B 1_555 1_555
C16B C20B 1_555 1_555
C17B C18B 1_555 1_555
C25B C31B 1_555 1_555
C28B C32B 1_555 1_555
C29B C30B 1_555 1_555

#END
