
#######################################################################
#
#                 Cambridge Crystallographic Data Centre
#                                CCDC 
#
#######################################################################
#
# If this CIF has been generated from an entry in the Cambridge 
# Structural Database, then it will include bibliographic, chemical, 
# crystal, experimental, refinement or atomic coordinate data resulting 
# from the CCDC's data processing and validation procedures.
#
#######################################################################

data_NANYUX01
_symmetry_cell_setting           monoclinic
_symmetry_space_group_name_H-M   'P 21/n'
_symmetry_Int_Tables_number      14
_space_group_name_Hall           '-P 2yn'
loop_
_symmetry_equiv_pos_site_id
_symmetry_equiv_pos_as_xyz
1 x,y,z
2 1/2-x,1/2+y,1/2-z
3 -x,-y,-z
4 1/2+x,1/2-y,1/2+z
_cell_length_a                   9.4469(4)
_cell_length_b                   16.2456(7)
_cell_length_c                   11.5176(8)
_cell_angle_alpha                90
_cell_angle_beta                 97.0270(10)
_cell_angle_gamma                90
_cell_volume                     1754.34
loop_
_atom_site_label
_atom_site_type_symbol
_atom_site_fract_x
_atom_site_fract_y
_atom_site_fract_z
Zn1 Zn 0.63648(2) 0.079717(15) 0.45311(2)
O1 O 0.69815(19) -0.02020(12) 0.53983(18)
O2 O 0.54171(18) -0.06762(11) 0.65253(15)
O3 O 0.6902(2) -0.30761(19) 0.9054(3)
O4 O 0.9186(2) -0.33276(12) 0.94914(18)
O5 O 1.2620(2) -0.20310(14) 0.7124(2)
O6 O 1.20336(19) -0.08156(9) 0.63582(16)
C1 C 0.9928(3) -0.21475(15) 0.7944(2)
H1 H 1.0643 -0.2482 0.8316
C2 C 0.8534(3) -0.22491(16) 0.8175(2)
C3 C 1.0263(2) -0.15522(14) 0.7166(2)
C4 C 1.1755(2) -0.14735(15) 0.6869(2)
C5 C 0.7795(2) -0.11448(15) 0.6844(2)
C6 C 0.9190(2) -0.10488(15) 0.6623(2)
H2 H 0.9414 -0.0643 0.6105
C7 C 0.8150(3) -0.29253(18) 0.8977(3)
C8 C 0.7468(2) -0.17439(15) 0.7628(2)
H3 H 0.6532 -0.1807 0.7787
C9 C 0.6638(2) -0.06281(15) 0.6209(2)
Zn1B Zn 0.36352(2) -0.079717(15) 0.54689(2)
Zn1A Zn 0.86352(2) -0.420283(15) 1.04689(2)
Zn1B_2 Zn 1.36352(2) -0.079717(15) 0.54689(2)
O2B O 0.45829(18) 0.06762(11) 0.34747(15)
O4A O 0.5814(2) 0.16724(12) 0.55086(18)
O6B O 0.79664(19) 0.08156(9) 0.36418(16)
O7 O 1.2889(6) 0.0247(3) 0.9479(5)
N1 N 1.3736(5) -0.0958(3) 1.0211(4)
C10 C 1.4366(9) -0.1740(4) 0.9982(6)
H4 H 1.4320 -0.1821 0.9152
H5 H 1.3855 -0.2173 1.0315
H6 H 1.5345 -0.1746 1.0325
C11 C 1.3671(11) -0.0738(4) 1.1384(6)
H7 H 1.3226 -0.0208 1.1414
H8 H 1.4619 -0.0715 1.1793
H9 H 1.3124 -0.1140 1.1747
C12 C 1.3400(7) -0.0448(4) 0.9344(6)
H10 H 1.3548 -0.0611 0.8594
N2 N 1.3585(8) -0.3581(3) 0.7093(5)
H11 H 1.3308 -0.3051 0.7094
H12 H 1.2890 -0.3856 0.6649
C13 C 1.4778(7) -0.3608(5) 0.6498(8)
H13 H 1.4524 -0.3422 0.5709
H14 H 1.5126 -0.4163 0.6491
H15 H 1.5508 -0.3257 0.6884
C14 C 1.3581(7) -0.3864(3) 0.8221(6)
H16 H 1.2633 -0.3828 0.8436
H17 H 1.4215 -0.3535 0.8745
H18 H 1.3891 -0.4427 0.8266
loop_
_geom_bond_atom_site_label_1
_geom_bond_atom_site_label_2
_geom_bond_site_symmetry_1
_geom_bond_site_symmetry_2
Zn1 O1 1_555 1_555
O1 C9 1_555 1_555
O2 C9 1_555 1_555
O3 C7 1_555 1_555
O4 C7 1_555 1_555
O5 C4 1_555 1_555
O6 C4 1_555 1_555
C1 H1 1_555 1_555
C2 C1 1_555 1_555
C3 C1 1_555 1_555
C4 C3 1_555 1_555
C5 C6 1_555 1_555
C6 C3 1_555 1_555
H2 C6 1_555 1_555
C7 C2 1_555 1_555
C8 C2 1_555 1_555
H3 C8 1_555 1_555
C9 C5 1_555 1_555
O7 C12 1_555 1_555
N1 C10 1_555 1_555
C10 H4 1_555 1_555
H5 C10 1_555 1_555
H6 C10 1_555 1_555
C11 N1 1_555 1_555
H7 C11 1_555 1_555
H8 C11 1_555 1_555
H9 C11 1_555 1_555
C12 N1 1_555 1_555
H10 C12 1_555 1_555
N2 H11 1_555 1_555
H12 N2 1_555 1_555
C13 N2 1_555 1_555
H13 C13 1_555 1_555
H14 C13 1_555 1_555
H15 C13 1_555 1_555
C14 N2 1_555 1_555
H16 C14 1_555 1_555
H17 C14 1_555 1_555
H18 C14 1_555 1_555
Zn1B O2 1_555 1_555
Zn1A O4 1_555 1_555
Zn1B_2 O6 1_555 1_555
O2B Zn1 1_555 1_555
O4A Zn1 1_555 1_555
O6B Zn1 1_555 1_555
C5 C8 1_555 1_555

#END
