
#######################################################################
#
#                 Cambridge Crystallographic Data Centre
#                                CCDC 
#
#######################################################################
#
# If this CIF has been generated from an entry in the Cambridge 
# Structural Database, then it will include bibliographic, chemical, 
# crystal, experimental, refinement or atomic coordinate data resulting 
# from the CCDC's data processing and validation procedures.
#
#######################################################################

data_NANZAE
_symmetry_cell_setting           monoclinic
_symmetry_space_group_name_H-M   'P 21/c'
_symmetry_Int_Tables_number      14
_space_group_name_Hall           '-P 2ybc'
loop_
_symmetry_equiv_pos_site_id
_symmetry_equiv_pos_as_xyz
1 x,y,z
2 -x,1/2+y,1/2-z
3 -x,-y,-z
4 x,1/2-y,1/2+z
_cell_length_a                   12.9266(5)
_cell_length_b                   13.3289(5)
_cell_length_c                   16.5474(7)
_cell_angle_alpha                90
_cell_angle_beta                 105.3550(10)
_cell_angle_gamma                90
_cell_volume                     2749.3
loop_
_atom_site_label
_atom_site_type_symbol
_atom_site_fract_x
_atom_site_fract_y
_atom_site_fract_z
Ag1 Ag 0.249534(8) 0.366086(7) 0.238278(6)
O1 O 0.18636(9) 0.01003(7) 0.09595(6)
N1 N 0.16518(9) 0.32040(8) 0.11016(7)
C1 C 0.11566(11) 0.39005(10) 0.05456(8)
H1 H 0.1142 0.4576 0.0724
S2 S 0.52042(3) 0.42217(4) 0.26675(2)
O2 O 0.31201(9) -0.53074(7) -0.09784(6)
N2 N 0.12369(10) 0.09749(8) -0.02753(7)
C2 C 0.06660(12) 0.36588(9) -0.02814(9)
H2 H 0.0321 0.4163 -0.0664
O3 O 0.25059(13) 0.54791(9) 0.19069(8)
N3 N 0.15970(10) -0.06945(8) -0.02996(7)
C3 C 0.06840(11) 0.26778(10) -0.05446(8)
H3 H 0.0343 0.2501 -0.1108
O4 O 0.30545(15) 0.63096(11) 0.30435(10)
N4 N 0.34225(10) -0.45985(8) 0.03189(7)
C4 C 0.12071(10) 0.19466(9) 0.00231(8)
O5 O 0.15985(12) 0.67425(12) 0.21380(11)
N5 N 0.37676(11) -0.62644(8) 0.02058(7)
C5 C 0.16825(10) 0.22456(9) 0.08473(8)
H4 H 0.2039 0.1757 0.1242
N6 N 0.32423(9) -0.83835(8) -0.12861(7)
C6 C 0.15964(11) 0.01202(9) 0.01891(8)
O7 O 0.43012(9) 0.38641(11) 0.19402(7)
N7 N 0.23757(10) 0.61808(9) 0.23692(8)
C7 C 0.19728(11) -0.16721(9) 0.00568(8)
H5 H 0.1758 -0.1759 0.0590
C8 C 0.14367(10) -0.24930(9) -0.05550(8)
H6 H 0.1615 -0.2400 -0.1096
H7 H 0.0648 -0.2447 -0.0658
C9 C 0.18216(11) -0.35251(9) -0.01947(8)
H8 H 0.1602 -0.3633 0.0328
H9 H 0.1481 -0.4051 -0.0600
C10 C 0.30387(11) -0.36127(9) -0.00091(8)
H10 H 0.3243 -0.3509 -0.0545
C11 C 0.35787(10) -0.27958(9) 0.06050(8)
H11 H 0.4367 -0.2841 0.0705
H12 H 0.3405 -0.2893 0.1148
C12 C 0.31909(11) -0.17622(9) 0.02496(8)
H13 H 0.3528 -0.1239 0.0659
H14 H 0.3416 -0.1648 -0.0270
C13 C 0.34048(11) -0.53810(9) -0.02096(8)
C14 C 0.37311(10) -0.72186(9) -0.01382(8)
C15 C 0.32918(10) -0.74399(9) -0.09847(8)
H15 H 0.3018 -0.6907 -0.1362
C16 C 0.36352(11) -0.91422(10) -0.07602(9)
H16 H 0.3596 -0.9807 -0.0974
C17 C 0.40959(12) -0.89804(10) 0.00839(9)
H17 H 0.4374 -0.9528 0.0443
C18 C 0.41500(11) -0.80149(10) 0.04023(8)
H18 H 0.4468 -0.7894 0.0981
C21 C 0.63952(13) 0.37458(13) 0.24700(11)
H25 H 0.6361 0.3012 0.2444
H26 H 0.7015 0.3953 0.2922
H27 H 0.6467 0.4010 0.1935
C22 C 0.54257(17) 0.55116(16) 0.24975(13)
H28 H 0.5525 0.5600 0.1935
H29 H 0.6069 0.5742 0.2916
H30 H 0.4805 0.5904 0.2548
H31 H 0.1508(15) -0.0638(14) -0.0793(13)
H32 H 0.3463(16) -0.4725(15) 0.0805(14)
H33 H 0.1059(15) 0.0879(14) -0.0766(13)
H34 H 0.4005(17) -0.6220(15) 0.0701(15)
Ag1C Ag 0.249534(8) -0.866086(7) -0.261722(6)
N6C N 0.32423(9) 0.33835(8) 0.37139(7)
S1 S 0.00071(3) 0.48659(3) 0.232018(19)
O6 O 0.09790(8) 0.46554(8) 0.30431(6)
C19 C -0.10032(13) 0.40230(13) 0.24465(10)
H19 H -0.0788 0.3333 0.2366
H20 H -0.1680 0.4176 0.2031
H21 H -0.1099 0.4095 0.3012
C20 C -0.05843(14) 0.59844(12) 0.25859(11)
H22 H -0.0731 0.5901 0.3134
H23 H -0.1257 0.6119 0.2160
H24 H -0.0090 0.6548 0.2610
loop_
_geom_bond_atom_site_label_1
_geom_bond_atom_site_label_2
_geom_bond_site_symmetry_1
_geom_bond_site_symmetry_2
Ag1 N1 1_555 1_555
S1 O6 1_555 1_555
O1 C6 1_555 1_555
N1 C1 1_555 1_555
C1 H1 1_555 1_555
S2 O7 1_555 1_555
O2 C13 1_555 1_555
N2 C4 1_555 1_555
C2 C1 1_555 1_555
H2 C2 1_555 1_555
O3 Ag1 1_555 1_555
N3 C6 1_555 1_555
C3 C2 1_555 1_555
H3 C3 1_555 1_555
O4 N7 1_555 1_555
N4 C10 1_555 1_555
C4 C3 1_555 1_555
O5 N7 1_555 1_555
N5 C13 1_555 1_555
C5 N1 1_555 1_555
H4 C5 1_555 1_555
N6 C15 1_555 1_555
C6 N2 1_555 1_555
O7 Ag1 1_555 1_555
N7 O3 1_555 1_555
C7 N3 1_555 1_555
H5 C7 1_555 1_555
C8 C7 1_555 1_555
H6 C8 1_555 1_555
H7 C8 1_555 1_555
C9 C8 1_555 1_555
H8 C9 1_555 1_555
H9 C9 1_555 1_555
C10 C9 1_555 1_555
H10 C10 1_555 1_555
C11 C10 1_555 1_555
H11 C11 1_555 1_555
H12 C11 1_555 1_555
C12 C7 1_555 1_555
H13 C12 1_555 1_555
H14 C12 1_555 1_555
C13 N4 1_555 1_555
C14 N5 1_555 1_555
C15 C14 1_555 1_555
H15 C15 1_555 1_555
C16 N6 1_555 1_555
H16 C16 1_555 1_555
C17 C16 1_555 1_555
H17 C17 1_555 1_555
C18 C14 1_555 1_555
H18 C18 1_555 1_555
C19 S1 1_555 1_555
H19 C19 1_555 1_555
H20 C19 1_555 1_555
H21 C19 1_555 1_555
C20 S1 1_555 1_555
H22 C20 1_555 1_555
H23 C20 1_555 1_555
H24 C20 1_555 1_555
C21 S2 1_555 1_555
H25 C21 1_555 1_555
H26 C21 1_555 1_555
H27 C21 1_555 1_555
C22 S2 1_555 1_555
H28 C22 1_555 1_555
H29 C22 1_555 1_555
H30 C22 1_555 1_555
H31 N3 1_555 1_555
H32 N4 1_555 1_555
H33 N2 1_555 1_555
H34 N5 1_555 1_555
Ag1C N6 1_555 1_555
N6C Ag1 1_555 1_555
C4 C5 1_555 1_555
C11 C12 1_555 1_555
C17 C18 1_555 1_555

#END
