
#######################################################################
#
#                 Cambridge Crystallographic Data Centre
#                                CCDC 
#
#######################################################################
#
# If this CIF has been generated from an entry in the Cambridge 
# Structural Database, then it will include bibliographic, chemical, 
# crystal, experimental, refinement or atomic coordinate data resulting 
# from the CCDC's data processing and validation procedures.
#
#######################################################################

data_NANZEI
_symmetry_cell_setting           triclinic
_symmetry_space_group_name_H-M   'P -1'
_symmetry_Int_Tables_number      2
_space_group_name_Hall           '-P 1'
loop_
_symmetry_equiv_pos_site_id
_symmetry_equiv_pos_as_xyz
1 x,y,z
2 -x,-y,-z
_cell_length_a                   9.4135(7)
_cell_length_b                   10.9132(9)
_cell_length_c                   12.3810(10)
_cell_angle_alpha                110.4250(10)
_cell_angle_beta                 95.5680(10)
_cell_angle_gamma                102.5200(10)
_cell_volume                     1142.69
loop_
_atom_site_label
_atom_site_type_symbol
_atom_site_fract_x
_atom_site_fract_y
_atom_site_fract_z
Ag1 Ag -0.72786(3) -0.25098(2) 0.52544(3)
O1 O -0.0883(2) -0.0765(3) 0.2917(2)
N1 N -0.5094(3) -0.1767(3) 0.5019(3)
C1 C -0.3969(4) -0.1350(3) 0.5933(3)
H1 H -0.4152 -0.1514 0.6619
O2 O 1.4279(2) 0.4267(3) -0.6970(2)
N2 N -0.3277(3) -0.0605(3) 0.2933(2)
C2 C -0.2559(3) -0.0690(3) 0.5901(3)
H2 H -0.1782 -0.0412 0.6557
N3 N -0.2106(3) -0.0377(3) 0.1443(2)
C3 C -0.2272(3) -0.0431(3) 0.4916(3)
H3 H -0.1307 0.0039 0.4892
N4 N 0.9603(4) 0.3169(3) -0.5205(3)
C4 C -0.3432(3) -0.0875(3) 0.3954(2)
N5 N 1.1875(3) 0.4426(3) -0.6997(2)
C5 C -0.4833(3) -0.1551(3) 0.4041(3)
H4 H -0.5625 -0.1867 0.3391
N6 N 1.3044(3) 0.4621(3) -0.8469(2)
C6 C -0.2007(3) -0.0592(3) 0.2451(2)
C7 C -0.0912(3) -0.0435(3) 0.0774(3)
H5 H -0.0439 -0.1140 0.0862
C8 C 0.0288(3) 0.0934(3) 0.1230(2)
H6 H -0.0165 0.1652 0.1170
H7 H 0.0702 0.1182 0.2068
C9 C -0.1533(3) -0.0853(3) -0.0527(3)
H8 H -0.2274 -0.1748 -0.0819
H9 H -0.2035 -0.0183 -0.0632
C10 C 1.0633(4) 0.3353(4) -0.4274(3)
H10 H 1.0323 0.3097 -0.3658
C11 C 1.2126(4) 0.3908(4) -0.4205(3)
H11 H 1.2821 0.4030 -0.3541
C12 C 1.2622(3) 0.4288(3) -0.5091(3)
H12 H 1.3642 0.4686 -0.5041
C13 C 1.1559(3) 0.4059(3) -0.6059(2)
C14 C 1.9933(3) 0.6499(3) -1.3929(3)
H13 H 2.0649 0.6646 -1.3269
C15 C 1.3154(3) 0.4424(3) -0.7453(2)
C16 C 1.4196(3) 0.4557(3) -0.9175(2)
H14 H 1.4690 0.3856 -0.9108
C17 C 1.3475(3) 0.4136(3) -1.0456(3)
H15 H 1.2933 0.4796 -1.0523
H16 H 1.2751 0.3234 -1.0724
C18 C 1.4634(3) 0.4074(3) -1.1233(2)
H17 H 1.5855 0.6175 -0.7946
H18 H 1.4877 0.6637 -0.8788
H19 H -0.300(6) -0.043(5) 0.119(5)
H20 H -0.408(5) -0.054(4) 0.246(4)
H21 H 1.876(7) 0.546(6) -1.271(5)
H22 H 1.783(5) 0.529(5) -1.129(4)
Ag1A Ag 0.72786(3) 0.25098(2) -0.52544(3)
Ag1_2 Ag 2.27214(3) 0.74902(2) -1.47456(3)
O1A O 0.0883(2) 0.0765(3) -0.2917(2)
N1A N 0.5094(3) 0.1767(3) -0.5019(3)
C1A C 0.3969(4) 0.1350(3) -0.5933(3)
H1A H 0.4152 0.1514 -0.6619
O2A O 1.5721(2) 0.5733(3) -1.3030(2)
N2A N 0.3277(3) 0.0605(3) -0.2933(2)
C2A C 0.2559(3) 0.0690(3) -0.5901(3)
H2A H 0.1782 0.0412 -0.6557
N3A N 0.2106(3) 0.0377(3) -0.1443(2)
C3A C 0.2272(3) 0.0431(3) -0.4916(3)
H3A H 0.1307 -0.0039 -0.4892
N4A N -0.9603(4) -0.3169(3) 0.5205(3)
N4A_2 N 2.0397(4) 0.6831(3) -1.4795(3)
C4A C 0.3432(3) 0.0875(3) -0.3954(2)
N5A N 1.8125(3) 0.5574(3) -1.3003(2)
C5A C 0.4833(3) 0.1551(3) -0.4041(3)
H4A H 0.5625 0.1867 -0.3391
N6A N 1.6956(3) 0.5379(3) -1.1531(2)
C6A C 0.2007(3) 0.0592(3) -0.2451(2)
C7A C 0.0912(3) 0.0435(3) -0.0774(3)
H5A H 0.0439 0.1140 -0.0862
C8A C -0.0288(3) -0.0934(3) -0.1230(2)
H6A H 0.0165 -0.1652 -0.1170
H7A H -0.0702 -0.1182 -0.2068
C9A C 0.1533(3) 0.0853(3) 0.0527(3)
H8A H 0.2274 0.1748 0.0819
H9A H 0.2035 0.0183 0.0632
C10A C 1.9367(4) 0.6647(4) -1.5726(3)
H10A H 1.9677 0.6903 -1.6342
C11A C 1.7874(4) 0.6092(4) -1.5795(3)
H11A H 1.7179 0.5970 -1.6459
C12A C 1.7378(3) 0.5712(3) -1.4909(3)
H12A H 1.6358 0.5314 -1.4959
C13A C 1.8441(3) 0.5941(3) -1.3941(2)
C14A C 1.0067(3) 0.3501(3) -0.6071(3)
H13A H 0.9351 0.3354 -0.6731
C15A C 1.6846(3) 0.5576(3) -1.2547(2)
C16A C 1.5804(3) 0.5443(3) -1.0825(2)
H14A H 1.5310 0.6144 -1.0892
C17A C 1.6525(3) 0.5864(3) -0.9544(3)
H15A H 1.7067 0.5204 -0.9477
H16A H 1.7249 0.6766 -0.9276
C18A C 1.5366(3) 0.5926(3) -0.8767(2)
H17A H 1.4145 0.3825 -1.2054
H18A H 1.5123 0.3363 -1.1212
H19A H 0.300(6) 0.043(5) -0.119(5)
H20A H 0.408(5) 0.054(4) -0.246(4)
H21A H 1.124(7) 0.454(6) -0.729(5)
H22A H 1.217(5) 0.471(5) -0.871(4)
O3 O -0.6425(3) -0.1378(4) 0.1526(2)
O4 O -0.5175(4) -0.1364(4) 0.0140(3)
O5 O -0.7492(4) -0.2400(3) -0.0309(3)
N7 N -0.6365(4) -0.1711(3) 0.0456(3)
O6 O -0.6345(3) -0.2658(3) 0.7350(2)
O7 O -0.9219(4) -0.2592(3) 0.2008(3)
O8 O -0.9962(3) -0.4638(3) 0.8778(3)
Ag2? Ag -0.7731(4) -0.2512(3) 0.4740(4)
N8? N -0.999(4) -0.317(3) 0.493(3)
N9? N -0.547(7) -0.211(6) 0.454(6)
loop_
_geom_bond_atom_site_label_1
_geom_bond_atom_site_label_2
_geom_bond_site_symmetry_1
_geom_bond_site_symmetry_2
Ag1 N1 1_555 1_555
O1 C6 1_555 1_555
N1 C1 1_555 1_555
C1 H1 1_555 1_555
O2 C15 1_555 1_555
N2 C4 1_555 1_555
C2 C1 1_555 1_555
H2 C2 1_555 1_555
O3 N7 1_555 1_555
N3 C6 1_555 1_555
C3 C2 1_555 1_555
H3 C3 1_555 1_555
O4 N7 1_555 1_555
N4 C10 1_555 1_555
C4 C3 1_555 1_555
O5 N7 1_555 1_555
N5 C13 1_555 1_555
C5 N1 1_555 1_555
H4 C5 1_555 1_555
N6 C15 1_555 1_555
C6 N2 1_555 1_555
C7 N3 1_555 1_555
H5 C7 1_555 1_555
C8 C7 1_555 1_555
H6 C8 1_555 1_555
H7 C8 1_555 1_555
C9 C7 1_555 1_555
H8 C9 1_555 1_555
H9 C9 1_555 1_555
C10 H10 1_555 1_555
C11 C10 1_555 1_555
H11 C11 1_555 1_555
C12 C11 1_555 1_555
H12 C12 1_555 1_555
C13 C12 1_555 1_555
C14 H13 1_555 1_555
C15 N5 1_555 1_555
C16 N6 1_555 1_555
H14 C16 1_555 1_555
C17 C16 1_555 1_555
H15 C17 1_555 1_555
H16 C17 1_555 1_555
C18 C17 1_555 1_555
H17 C18A 1_555 1_555
H18 C18A 1_555 1_555
H19 N3 1_555 1_555
H20 N2 1_555 1_555
H21 N5A 1_555 1_555
H22 N6A 1_555 1_555
Ag1A N4 1_555 1_555
Ag1_2 N4A_2 1_555 1_555
O1A C6A 1_555 1_555
N1A Ag1A 1_555 1_555
C1A N1A 1_555 1_555
H1A C1A 1_555 1_555
O2A C15A 1_555 1_555
N2A C4A 1_555 1_555
C2A C1A 1_555 1_555
H2A C2A 1_555 1_555
N3A C6A 1_555 1_555
C3A C2A 1_555 1_555
H3A C3A 1_555 1_555
N4A Ag1 1_555 1_555
N4A_2 C14 1_555 1_555
C4A C3A 1_555 1_555
N5A C13A 1_555 1_555
C5A N1A 1_555 1_555
H4A C5A 1_555 1_555
N6A C15A 1_555 1_555
C6A N2A 1_555 1_555
C7A N3A 1_555 1_555
H5A C7A 1_555 1_555
C8A C9 1_555 1_555
H6A C8A 1_555 1_555
H7A C8A 1_555 1_555
C9A C8 1_555 1_555
H8A C9A 1_555 1_555
H9A C9A 1_555 1_555
C10A N4A_2 1_555 1_555
H10A C10A 1_555 1_555
C11A C10A 1_555 1_555
H11A C11A 1_555 1_555
C12A C11A 1_555 1_555
H12A C12A 1_555 1_555
C13A C14 1_555 1_555
C14A N4 1_555 1_555
H13A C14A 1_555 1_555
C15A N5A 1_555 1_555
C16A C18 1_555 1_555
H14A C16A 1_555 1_555
C17A C16A 1_555 1_555
H15A C17A 1_555 1_555
H16A C17A 1_555 1_555
C18A C16 1_555 1_555
H17A C18 1_555 1_555
H18A C18 1_555 1_555
H19A N3A 1_555 1_555
H20A N2A 1_555 1_555
H21A N5 1_555 1_555
H22A N6 1_555 1_555
C4 C5 1_555 1_555
C13 C14A 1_555 1_555
C4A C5A 1_555 1_555
N6A C16A 1_555 1_555
C7A C8A 1_555 1_555
C7A C9A 1_555 1_555
C12A C13A 1_555 1_555
C17A C18A 1_555 1_555

#END
