
#######################################################################
#
#                 Cambridge Crystallographic Data Centre
#                                CCDC 
#
#######################################################################
#
# If this CIF has been generated from an entry in the Cambridge 
# Structural Database, then it will include bibliographic, chemical, 
# crystal, experimental, refinement or atomic coordinate data resulting 
# from the CCDC's data processing and validation procedures.
#
#######################################################################

data_NAOXAL17
_symmetry_cell_setting           monoclinic
_symmetry_space_group_name_H-M   'P 21/c'
_symmetry_Int_Tables_number      14
_space_group_name_Hall           '-P 2ybc'
loop_
_symmetry_equiv_pos_site_id
_symmetry_equiv_pos_as_xyz
1 x,y,z
2 -x,1/2+y,1/2-z
3 -x,-y,-z
4 x,1/2-y,1/2+z
_cell_length_a                   3.4847(6)
_cell_length_b                   5.2639(6)
_cell_length_c                   10.436(2)
_cell_angle_alpha                90.00
_cell_angle_beta                 93.08(2)
_cell_angle_gamma                90.00
_cell_volume                     191.152
loop_
_atom_site_label
_atom_site_type_symbol
_atom_site_fract_x
_atom_site_fract_y
_atom_site_fract_z
Na1 Na 0.6957(2) 0.5572(2) 0.6453(1)
O1 O 0.2321(7) 0.2670(4) 0.5684(2)
O2 O 0.1615(7) -0.1206(4) 0.6510(2)
C1 C 0.1153(8) 0.0429(4) 0.5635(2)
Na1B Na -0.6957(2) -0.5572(2) 0.3547(1)
Na1_2 Na -0.3043(2) 0.5572(2) 0.6453(1)
Na1B_2 Na 0.3043(2) 0.4428(2) 0.3547(1)
Na1_3 Na -0.3043(2) -0.4428(2) 0.6453(1)
Na1_4 Na 0.6957(2) -0.4428(2) 0.6453(1)
Na1A Na 0.3043(2) 0.0572(2) 0.8547(1)
Na1B_3 Na 0.3043(2) -0.5572(2) 0.3547(1)
Na1B_4 Na -0.6957(2) 0.4428(2) 0.3547(1)
Na1C Na -0.3043(2) -0.0572(2) 0.1453(1)
O1B O -0.2321(7) -0.2670(4) 0.4316(2)
O1_2 O 1.2321(7) 0.2670(4) 0.5684(2)
O1B_2 O 0.7679(7) 0.7330(4) 0.4316(2)
O1_3 O -0.7679(7) -0.7330(4) 0.5684(2)
O1B_3 O -1.2321(7) -0.2670(4) 0.4316(2)
O2B O -0.1615(7) 0.1206(4) 0.3490(2)
O2_2 O 0.1615(7) 0.8794(4) 0.6510(2)
O2_3 O 1.1615(7) 0.8794(4) 0.6510(2)
O2A O 0.8385(7) 0.3794(4) 0.8490(2)
O2B_2 O -1.1615(7) -0.8794(4) 0.3490(2)
O2B_3 O -0.1615(7) -0.8794(4) 0.3490(2)
O2C O -0.8385(7) -0.3794(4) 0.1510(2)
C1B C -0.1153(8) -0.0429(4) 0.4365(2)
loop_
_geom_bond_atom_site_label_1
_geom_bond_atom_site_label_2
_geom_bond_site_symmetry_1
_geom_bond_site_symmetry_2
Na1 O1 1_555 1_555
O1 C1 1_555 1_555
O2 C1 1_555 1_555
C1 C1B 1_555 1_555
Na1B O1B 1_555 1_555
Na1_2 O1 1_555 1_555
Na1B_2 O1 1_555 1_555
Na1_3 O2 1_555 1_555
Na1_4 O2 1_555 1_555
Na1A O2 1_555 1_555
Na1B_3 O1B 1_555 1_555
Na1B_4 O2B 1_555 1_555
Na1C O2B 1_555 1_555
O1B Na1_3 1_555 1_555
O1_2 Na1 1_555 1_555
O1B_2 Na1 1_555 1_555
O1_3 Na1B 1_555 1_555
O1B_3 Na1B 1_555 1_555
O2B Na1B_2 1_555 1_555
O2_2 Na1 1_555 1_555
O2_3 Na1 1_555 1_555
O2A Na1 1_555 1_555
O2B_2 Na1B 1_555 1_555
O2B_3 Na1B 1_555 1_555
O2C Na1B 1_555 1_555
C1B O1B 1_555 1_555
Na1_2 O2_2 1_555 1_555
Na1B_2 O1B_2 1_555 1_555
Na1_3 O1_3 1_555 1_555
Na1A O2A 1_555 1_555
Na1B_3 O2B_3 1_555 1_555
Na1C O2C 1_555 1_555
O2B C1B 1_555 1_555

#END
