
#######################################################################
#
#                 Cambridge Crystallographic Data Centre
#                                CCDC 
#
#######################################################################
#
# If this CIF has been generated from an entry in the Cambridge 
# Structural Database, then it will include bibliographic, chemical, 
# crystal, experimental, refinement or atomic coordinate data resulting 
# from the CCDC's data processing and validation procedures.
#
#######################################################################

data_NAOXAL18
_symmetry_cell_setting           monoclinic
_symmetry_space_group_name_H-M   'P 21/c'
_symmetry_Int_Tables_number      14
_space_group_name_Hall           '-P 2ybc'
loop_
_symmetry_equiv_pos_site_id
_symmetry_equiv_pos_as_xyz
1 x,y,z
2 -x,1/2+y,1/2-z
3 -x,-y,-z
4 x,1/2-y,1/2+z
_cell_length_a                   3.452(2)
_cell_length_b                   5.254(2)
_cell_length_c                   10.392(2)
_cell_angle_alpha                90.00
_cell_angle_beta                 92.67(4)
_cell_angle_gamma                90.00
_cell_volume                     188.273
loop_
_atom_site_label
_atom_site_type_symbol
_atom_site_fract_x
_atom_site_fract_y
_atom_site_fract_z
Na1 Na 0.6980(3) 0.5567(2) 0.6448(1)
O1 O 0.2281(6) 0.2698(4) 0.5689(2)
O2 O 0.1668(6) -0.1217(4) 0.6508(2)
C1 C 0.1157(7) 0.0435(5) 0.5638(3)
Na1B Na -0.6980(3) -0.5567(2) 0.3552(1)
Na1_2 Na -0.3020(3) 0.5567(2) 0.6448(1)
Na1B_2 Na 0.3020(3) 0.4433(2) 0.3552(1)
Na1_3 Na -0.3020(3) -0.4433(2) 0.6448(1)
Na1_4 Na 0.6980(3) -0.4433(2) 0.6448(1)
Na1A Na 0.3020(3) 0.0567(2) 0.8552(1)
Na1B_3 Na 0.3020(3) -0.5567(2) 0.3552(1)
Na1B_4 Na -0.6980(3) 0.4433(2) 0.3552(1)
Na1C Na -0.3020(3) -0.0567(2) 0.1448(1)
O1B O -0.2281(6) -0.2698(4) 0.4311(2)
O1_2 O 1.2281(6) 0.2698(4) 0.5689(2)
O1B_2 O 0.7719(6) 0.7302(4) 0.4311(2)
O1_3 O -0.7719(6) -0.7302(4) 0.5689(2)
O1B_3 O -1.2281(6) -0.2698(4) 0.4311(2)
O2B O -0.1668(6) 0.1217(4) 0.3492(2)
O2_2 O 0.1668(6) 0.8783(4) 0.6508(2)
O2_3 O 1.1668(6) 0.8783(4) 0.6508(2)
O2A O 0.8332(6) 0.3783(4) 0.8492(2)
O2B_2 O -1.1668(6) -0.8783(4) 0.3492(2)
O2B_3 O -0.1668(6) -0.8783(4) 0.3492(2)
O2C O -0.8332(6) -0.3783(4) 0.1508(2)
C1B C -0.1157(7) -0.0435(5) 0.4362(3)
loop_
_geom_bond_atom_site_label_1
_geom_bond_atom_site_label_2
_geom_bond_site_symmetry_1
_geom_bond_site_symmetry_2
Na1 O1 1_555 1_555
O1 C1 1_555 1_555
O2 C1 1_555 1_555
C1 C1B 1_555 1_555
Na1B O1B 1_555 1_555
Na1_2 O1 1_555 1_555
Na1B_2 O1 1_555 1_555
Na1_3 O2 1_555 1_555
Na1_4 O2 1_555 1_555
Na1A O2 1_555 1_555
Na1B_3 O1B 1_555 1_555
Na1B_4 O2B 1_555 1_555
Na1C O2B 1_555 1_555
O1B Na1_3 1_555 1_555
O1_2 Na1 1_555 1_555
O1B_2 Na1 1_555 1_555
O1_3 Na1B 1_555 1_555
O1B_3 Na1B 1_555 1_555
O2B Na1B_2 1_555 1_555
O2_2 Na1 1_555 1_555
O2_3 Na1 1_555 1_555
O2A Na1 1_555 1_555
O2B_2 Na1B 1_555 1_555
O2B_3 Na1B 1_555 1_555
O2C Na1B 1_555 1_555
C1B O1B 1_555 1_555
Na1_2 O2_2 1_555 1_555
Na1B_2 O1B_2 1_555 1_555
Na1_3 O1_3 1_555 1_555
Na1A O2A 1_555 1_555
Na1B_3 O2B_3 1_555 1_555
Na1C O2C 1_555 1_555
O2B C1B 1_555 1_555

#END
