
#######################################################################
#
#                 Cambridge Crystallographic Data Centre
#                                CCDC 
#
#######################################################################
#
# If this CIF has been generated from an entry in the Cambridge 
# Structural Database, then it will include bibliographic, chemical, 
# crystal, experimental, refinement or atomic coordinate data resulting 
# from the CCDC's data processing and validation procedures.
#
#######################################################################

data_NAOXAL07
_symmetry_cell_setting           monoclinic
_symmetry_space_group_name_H-M   'P 21/c'
_symmetry_Int_Tables_number      14
_space_group_name_Hall           '-P 2ybc'
loop_
_symmetry_equiv_pos_site_id
_symmetry_equiv_pos_as_xyz
1 x,y,z
2 -x,1/2+y,1/2-z
3 -x,-y,-z
4 x,1/2-y,1/2+z
_cell_length_a                   3.165(1)
_cell_length_b                   5.304(1)
_cell_length_c                   10.008(2)
_cell_angle_alpha                90.00
_cell_angle_beta                 85.28(1)
_cell_angle_gamma                90.00
_cell_volume                     167.436
loop_
_atom_site_label
_atom_site_type_symbol
_atom_site_fract_x
_atom_site_fract_y
_atom_site_fract_z
Na1 Na 0.435(3) 0.082(2) 0.336(1)
O1 O 0.007(3) -0.075(3) 0.171(2)
O2 O 0.232(7) 0.279(2) 0.049(2)
C1 C 0.073(8) 0.057(4) 0.065(2)
Na1B Na -0.435(3) -0.082(2) -0.336(1)
Na1_2 Na -0.565(3) 0.082(2) 0.336(1)
Na1A Na -0.435(3) -0.418(2) 0.164(1)
Na1A_2 Na 0.565(3) -0.418(2) 0.164(1)
Na1A_3 Na 0.565(3) 0.582(2) 0.164(1)
Na1C Na 0.435(3) 0.418(2) -0.164(1)
Na1B_2 Na 0.565(3) -0.082(2) -0.336(1)
Na1C_2 Na -0.565(3) 0.418(2) -0.164(1)
Na1C_3 Na -0.565(3) -0.582(2) -0.164(1)
O1B O -0.007(3) 0.075(3) -0.171(2)
O1_2 O 1.007(3) -0.075(3) 0.171(2)
O1A O -0.007(3) 0.425(3) 0.329(2)
O1A_2 O 0.993(3) 0.425(3) 0.329(2)
O1B_2 O -1.007(3) 0.075(3) -0.171(2)
O1C O -0.993(3) -0.425(3) -0.329(2)
O1C_2 O 0.007(3) -0.425(3) -0.329(2)
O2B O -0.232(7) -0.279(2) -0.049(2)
O2A O 0.768(7) -0.221(2) 0.451(2)
O2C O 0.232(7) 0.221(2) 0.549(2)
O2A_2 O -0.232(7) -0.221(2) -0.549(2)
O2C_2 O -0.768(7) 0.221(2) -0.451(2)
C1B C -0.073(8) -0.057(4) -0.065(2)
loop_
_geom_bond_atom_site_label_1
_geom_bond_atom_site_label_2
_geom_bond_site_symmetry_1
_geom_bond_site_symmetry_2
Na1 O1 1_555 1_555
O1 C1 1_555 1_555
O2 C1 1_555 1_555
C1 C1B 1_555 1_555
Na1B O1B 1_555 1_555
Na1_2 O1 1_555 1_555
Na1A O1 1_555 1_555
Na1A_2 O1 1_555 1_555
Na1A_3 O2 1_555 1_555
Na1C O2 1_555 1_555
Na1B_2 O1B 1_555 1_555
Na1C_2 O1B 1_555 1_555
Na1C_3 O1C 1_555 1_555
O1B Na1C 1_555 1_555
O1_2 Na1 1_555 1_555
O1A Na1 1_555 1_555
O1A_2 Na1 1_555 1_555
O1B_2 Na1B 1_555 1_555
O1C Na1B 1_555 1_555
O1C_2 Na1B 1_555 1_555
O2B Na1A 1_555 1_555
O2A Na1 1_555 1_555
O2C Na1 1_555 1_555
O2A_2 Na1B 1_555 1_555
O2C_2 Na1B 1_555 1_555
C1B O1B 1_555 1_555
Na1_2 O1A 1_555 1_555
Na1A_2 O1_2 1_555 1_555
Na1A_3 O1A 1_555 1_555
Na1A_3 O1A_2 1_555 1_555
Na1B_2 O1C_2 1_555 1_555
Na1C_2 O1B_2 1_555 1_555
Na1C_3 O1C_2 1_555 1_555
Na1C_3 O2B 1_555 1_555
O2B C1B 1_555 1_555

#END
