
#######################################################################
#
#                 Cambridge Crystallographic Data Centre
#                                CCDC 
#
#######################################################################
#
# If this CIF has been generated from an entry in the Cambridge 
# Structural Database, then it will include bibliographic, chemical, 
# crystal, experimental, refinement or atomic coordinate data resulting 
# from the CCDC's data processing and validation procedures.
#
#######################################################################

data_NAOXAL11
_symmetry_cell_setting           monoclinic
_symmetry_space_group_name_H-M   'P 21/c'
_symmetry_Int_Tables_number      14
_space_group_name_Hall           '-P 2ybc'
loop_
_symmetry_equiv_pos_site_id
_symmetry_equiv_pos_as_xyz
1 x,y,z
2 -x,1/2+y,1/2-z
3 -x,-y,-z
4 x,1/2-y,1/2+z
_cell_length_a                   3.393(1)
_cell_length_b                   5.237(1)
_cell_length_c                   10.240(1)
_cell_angle_alpha                90.00
_cell_angle_beta                 91.72(1)
_cell_angle_gamma                90.00
_cell_volume                     181.874
loop_
_atom_site_label
_atom_site_type_symbol
_atom_site_fract_x
_atom_site_fract_y
_atom_site_fract_z
Na1 Na 0.307(2) 0.059(1) 0.355(1)
O1 O 0.159(2) -0.125(1) 0.156(1)
O2 O 0.224(2) 0.275(1) 0.072(1)
C1 C 0.110(4) 0.040(2) 0.062(1)
Na1B Na -0.307(2) -0.059(1) -0.355(1)
Na1A Na -0.307(2) -0.441(1) 0.145(1)
Na1A_2 Na 0.693(2) -0.441(1) 0.145(1)
Na1A_3 Na -0.307(2) 0.559(1) 0.145(1)
Na1A_4 Na 0.693(2) 0.559(1) 0.145(1)
Na1C Na 0.307(2) 0.441(1) -0.145(1)
Na1C_2 Na -0.693(2) 0.441(1) -0.145(1)
Na1C_3 Na -0.693(2) -0.559(1) -0.145(1)
Na1C_4 Na 0.307(2) -0.559(1) -0.145(1)
O1B O -0.159(2) 0.125(1) -0.156(1)
O1A O -0.159(2) 0.375(1) 0.344(1)
O1A_2 O 0.841(2) 0.375(1) 0.344(1)
O1C O -0.841(2) -0.375(1) -0.344(1)
O1C_2 O 0.159(2) -0.375(1) -0.344(1)
O2B O -0.224(2) -0.275(1) -0.072(1)
O2A O -0.224(2) -0.225(1) 0.428(1)
O2A_2 O 0.776(2) -0.225(1) 0.428(1)
O2C O 0.224(2) 0.225(1) 0.572(1)
O2A_3 O -0.224(2) -0.225(1) -0.572(1)
O2C_2 O -0.776(2) 0.225(1) -0.428(1)
O2C_3 O 0.224(2) 0.225(1) -0.428(1)
C1B C -0.110(4) -0.040(2) -0.062(1)
loop_
_geom_bond_atom_site_label_1
_geom_bond_atom_site_label_2
_geom_bond_site_symmetry_1
_geom_bond_site_symmetry_2
Na1 O1 1_555 1_555
O1 C1 1_555 1_555
O2 C1 1_555 1_555
C1 C1B 1_555 1_555
Na1B O1B 1_555 1_555
Na1A O1 1_555 1_555
Na1A_2 O1 1_555 1_555
Na1A_3 O2 1_555 1_555
Na1A_4 O2 1_555 1_555
Na1C O2 1_555 1_555
Na1C_2 O1B 1_555 1_555
Na1C_3 O1C 1_555 1_555
Na1C_4 O1C_2 1_555 1_555
O1B Na1C 1_555 1_555
O1A Na1 1_555 1_555
O1A_2 Na1 1_555 1_555
O1C Na1B 1_555 1_555
O1C_2 Na1B 1_555 1_555
O2B Na1A 1_555 1_555
O2A Na1 1_555 1_555
O2A_2 Na1 1_555 1_555
O2C Na1 1_555 1_555
O2A_3 Na1B 1_555 1_555
O2C_2 Na1B 1_555 1_555
O2C_3 Na1B 1_555 1_555
C1B O1B 1_555 1_555
Na1A_3 O1A 1_555 1_555
Na1A_4 O1A_2 1_555 1_555
Na1C_3 O2B 1_555 1_555
Na1C_4 O2B 1_555 1_555
O2B C1B 1_555 1_555

#END
