
#######################################################################
#
#                 Cambridge Crystallographic Data Centre
#                                CCDC 
#
#######################################################################
#
# If this CIF has been generated from an entry in the Cambridge 
# Structural Database, then it will include bibliographic, chemical, 
# crystal, experimental, refinement or atomic coordinate data resulting 
# from the CCDC's data processing and validation procedures.
#
#######################################################################

data_NAPBIQ
_symmetry_cell_setting           orthorhombic
_symmetry_space_group_name_H-M   'C m c m'
_symmetry_Int_Tables_number      63
_space_group_name_Hall           '-C 2n 2'
loop_
_symmetry_equiv_pos_site_id
_symmetry_equiv_pos_as_xyz
1 x,y,z
2 -x,-y,1/2+z
3 x,-y,-z
4 -x,y,1/2-z
5 1/2+x,1/2+y,z
6 1/2-x,1/2-y,1/2+z
7 1/2+x,1/2-y,-z
8 1/2-x,1/2+y,1/2-z
9 -x,-y,-z
10 x,y,1/2-z
11 -x,y,z
12 x,-y,1/2+z
13 1/2-x,1/2-y,-z
14 1/2+x,1/2+y,1/2-z
15 1/2-x,1/2+y,z
16 1/2+x,1/2-y,1/2+z
_cell_length_a                   16.9601(10)
_cell_length_b                   6.23599(29)
_cell_length_c                   7.28294(33)
_cell_angle_alpha                90
_cell_angle_beta                 90
_cell_angle_gamma                90
_cell_volume                     770.266
loop_
_atom_site_label
_atom_site_type_symbol
_atom_site_fract_x
_atom_site_fract_y
_atom_site_fract_z
Cu1 Cu 0.00000 0.00000 0.00000
N1 N 0.08642(22) 0.13280(75) 0.15746(46)
C1 C 0.14875(28) 0.25305(73) 0.09743(99)
C2 C 0.18734(53) 0.3323(16) 0.25000
Cu1A Cu 0.00000 0.00000 0.50000
N1I N 0.08642(22) 0.13280(75) 0.34254(46)
N1B N 0.08642(22) -0.13280(75) -0.15746(46)
N1H N -0.08642(22) -0.13280(75) -0.15746(46)
N1J N -0.08642(22) 0.13280(75) 0.15746(46)
N1C N -0.08642(22) 0.13280(75) 0.34254(46)
C1I C 0.14875(28) 0.25305(73) 0.40257(99)
C1J C -0.14875(28) 0.25305(73) 0.09743(99)
C1C C -0.14875(28) 0.25305(73) 0.40257(99)
C2C C -0.18734(53) 0.3323(16) 0.25000
O1 O 0.50000 0.13545(92) 0.25000
loop_
_geom_bond_atom_site_label_1
_geom_bond_atom_site_label_2
_geom_bond_site_symmetry_1
_geom_bond_site_symmetry_2
Cu1 N1 1_555 1_555
N1 C1 1_555 1_555
C1 C2 1_555 1_555
C2 C1I 1_555 1_555
Cu1A N1I 1_555 1_555
N1I N1 1_555 1_555
N1B Cu1 1_555 1_555
N1H Cu1 1_555 1_555
N1J Cu1 1_555 1_555
N1C Cu1A 1_555 1_555
C1I N1I 1_555 1_555
C1J N1J 1_555 1_555
C1C N1C 1_555 1_555
C2C C1J 1_555 1_555
N1J N1C 1_555 1_555
C1C C2C 1_555 1_555

#END
