
#######################################################################
#
#                 Cambridge Crystallographic Data Centre
#                                CCDC 
#
#######################################################################
#
# If this CIF has been generated from an entry in the Cambridge 
# Structural Database, then it will include bibliographic, chemical, 
# crystal, experimental, refinement or atomic coordinate data resulting 
# from the CCDC's data processing and validation procedures.
#
#######################################################################

data_NAPGUH
_symmetry_cell_setting           triclinic
_symmetry_space_group_name_H-M   'P -1'
_symmetry_Int_Tables_number      2
_space_group_name_Hall           '-P 1'
loop_
_symmetry_equiv_pos_site_id
_symmetry_equiv_pos_as_xyz
1 x,y,z
2 -x,-y,-z
_cell_length_a                   9.786(2)
_cell_length_b                   11.122(2)
_cell_length_c                   11.259(2)
_cell_angle_alpha                76.81(3)
_cell_angle_beta                 69.81(3)
_cell_angle_gamma                75.72(3)
_cell_volume                     1100.72
loop_
_atom_site_label
_atom_site_type_symbol
_atom_site_fract_x
_atom_site_fract_y
_atom_site_fract_z
Tb1 Tb 1.25636(3) 0.47389(3) 0.49662(2)
O1 O 1.1095(4) 0.3536(4) 0.6707(4)
O2 O 0.8978(6) 0.4192(5) 0.6223(4)
O3 O 0.9672(6) 0.2348(6) 0.9041(5)
O4 O 1.0804(5) 0.6370(4) 0.6222(4)
O5 O 1.2822(5) 0.6953(4) 0.4798(4)
O6 O 1.1906(8) 0.9376(6) 0.5493(7)
O7 O 1.3716(5) 0.4736(5) 0.6417(4)
O8 O 1.5580(4) 0.4991(5) 0.6980(4)
O9 O 1.4080(5) 0.4507(5) 0.9478(4)
O10 O 1.4406(5) 0.2782(5) 0.5061(5)
O11 O 1.2094(5) 0.3251(5) 0.3910(4)
C1 C 0.9723(7) 0.3608(6) 0.6960(5)
C2 C 0.8902(7) 0.2949(6) 0.8200(6)
C3 C 0.7500(8) 0.2867(8) 0.8725(8)
H1 H 0.6764 0.3198 0.8332
C4 C 0.7288(12) 0.2204(12) 0.9969(10)
H2 H 0.6405 0.2014 1.0563
C5 C 0.8612(14) 0.1909(13) 1.0113(9)
H3 H 0.8810 0.1454 1.0856
C6 C 1.1600(6) 0.7190(6) 0.5666(6)
C7 C 1.1142(8) 0.8427(6) 0.6078(7)
C8 C 0.9939(8) 0.8795(7) 0.7019(8)
H4 H 0.9246 0.8307 0.7550
C9 C 0.9907(12) 1.0034(9) 0.7062(11)
H5 H 0.9186 1.0526 0.7632
C10 C 1.1056(13) 1.0396(8) 0.6170(11)
H6 H 1.1289 1.1192 0.5999
C11 C 1.4306(6) 0.4769(6) 0.7237(5)
C12 C 1.3419(6) 0.4519(6) 0.8595(5)
C13 C 1.2028(7) 0.4251(8) 0.9195(6)
H7 H 1.1345 0.4207 0.8809
C14 C 1.1840(8) 0.4054(8) 1.0539(7)
H8 H 1.1010 0.3848 1.1203
C15 C 1.3074(9) 0.4221(8) 1.0653(6)
H9 H 1.3241 0.4154 1.1432
Tb1A Tb 0.74364(3) 0.52611(3) 0.50338(2)
Tb1A_2 Tb 1.74364(3) 0.52611(3) 0.50338(2)
O2A O 1.1022(6) 0.5808(5) 0.3777(4)
O8A O 1.4420(4) 0.5009(5) 0.3020(4)
N1 N 1.4702(9) 0.0325(7) 0.7706(7)
O12 O 1.5596(8) -0.1227(7) 0.6516(8)
C16 C 1.4606(13) -0.0378(10) 0.6983(11)
H10 H 1.3718 -0.0235 0.6797
C17 C 1.5991(18) 0.017(2) 0.7987(18)
H11 H 1.5884 0.0755 0.8535
H12 H 1.6781 0.0314 0.7209
H13 H 1.6214 -0.0673 0.8416
C18 C 1.346(2) 0.1278(13) 0.8186(13)
H14 H 1.3707 0.1716 0.8707
H15 H 1.2621 0.0895 0.8693
H16 H 1.3228 0.1862 0.7480
loop_
_geom_bond_atom_site_label_1
_geom_bond_atom_site_label_2
_geom_bond_site_symmetry_1
_geom_bond_site_symmetry_2
Tb1 O1 1_555 1_555
N1 C16 1_555 1_555
O1 C1 1_555 1_555
O2 C1 1_555 1_555
O3 C2 1_555 1_555
O4 Tb1 1_555 1_555
O5 Tb1 1_555 1_555
O6 C7 1_555 1_555
O7 Tb1 1_555 1_555
O8 C11 1_555 1_555
O9 C12 1_555 1_555
O10 Tb1 1_555 1_555
O11 Tb1 1_555 1_555
O12 C16 1_555 1_555
C1 C2 1_555 1_555
C2 C3 1_555 1_555
C3 H1 1_555 1_555
C4 C3 1_555 1_555
H2 C4 1_555 1_555
C5 O3 1_555 1_555
H3 C5 1_555 1_555
C6 O4 1_555 1_555
C7 C6 1_555 1_555
C8 C7 1_555 1_555
H4 C8 1_555 1_555
C9 C8 1_555 1_555
H5 C9 1_555 1_555
C10 O6 1_555 1_555
H6 C10 1_555 1_555
C11 O7 1_555 1_555
C12 C11 1_555 1_555
C13 C12 1_555 1_555
H7 C13 1_555 1_555
C14 C13 1_555 1_555
H8 C14 1_555 1_555
C15 O9 1_555 1_555
H9 C15 1_555 1_555
C16 H10 1_555 1_555
C17 N1 1_555 1_555
H11 C17 1_555 1_555
H12 C17 1_555 1_555
H13 C17 1_555 1_555
C18 N1 1_555 1_555
H14 C18 1_555 1_555
H15 C18 1_555 1_555
H16 C18 1_555 1_555
Tb1A O2 1_555 1_555
Tb1A_2 O8 1_555 1_555
O2A Tb1 1_555 1_555
O8A Tb1 1_555 1_555
O5 C6 1_555 1_555
C4 C5 1_555 1_555
C9 C10 1_555 1_555
C14 C15 1_555 1_555

#END
