
#######################################################################
#
#                 Cambridge Crystallographic Data Centre
#                                CCDC 
#
#######################################################################
#
# If this CIF has been generated from an entry in the Cambridge 
# Structural Database, then it will include bibliographic, chemical, 
# crystal, experimental, refinement or atomic coordinate data resulting 
# from the CCDC's data processing and validation procedures.
#
#######################################################################

data_NAPHCU
_symmetry_cell_setting           monoclinic
_symmetry_space_group_name_H-M   'P 21/c'
_symmetry_Int_Tables_number      14
_space_group_name_Hall           '-P 2ybc'
loop_
_symmetry_equiv_pos_site_id
_symmetry_equiv_pos_as_xyz
1 x,y,z
2 -x,1/2+y,1/2-z
3 -x,-y,-z
4 x,1/2-y,1/2+z
_cell_length_a                   11.070(10)
_cell_length_b                   6.650(8)
_cell_length_c                   12.143(11)
_cell_angle_alpha                90
_cell_angle_beta                 101.6(1)
_cell_angle_gamma                90
_cell_volume                     875.655
loop_
_atom_site_label
_atom_site_type_symbol
_atom_site_fract_x
_atom_site_fract_y
_atom_site_fract_z
Cu1 Cu 0.00000 0.00000 0.00000
Na1 Na 0.09280 0.34890 0.20200
O1 O -0.10980 0.19480 0.05270
O2 O -0.19410 -0.08500 0.10320
O3 O -0.06980 0.21230 0.29980
O4 O -0.11650 0.51480 0.35810
O5 O 0.16700 0.41210 0.04280
C1 C -0.29060 0.22480 0.12880
C2 C -0.26720 0.35090 0.22180
C3 C -0.36390 0.46370 0.24830
C4 C -0.48170 0.45040 0.18370
C5 C -0.50450 0.32690 0.09010
C6 C -0.40840 0.21380 0.06210
C7 C -0.19070 0.09990 0.09330
C8 C -0.14170 0.35530 0.29770
H1 H -0.34200 0.56900 0.31800
H2 H -0.55100 0.54100 0.20900
H3 H -0.58800 0.32000 0.04300
H4 H -0.42700 0.12400 -0.01300
H5 H 0.17900 0.33100 -0.00500
H6 H 0.14400 0.51400 0.00600
O1B O 0.10980 -0.19480 -0.05270
O2B O 0.19410 0.08500 -0.10320
O3B O 0.06980 -0.21230 -0.29980
O4B O 0.11650 -0.51480 -0.35810
C1B C 0.29060 -0.22480 -0.12880
C2B C 0.26720 -0.35090 -0.22180
C3B C 0.36390 -0.46370 -0.24830
C4B C 0.48170 -0.45040 -0.18370
C5B C 0.50450 -0.32690 -0.09010
C6B C 0.40840 -0.21380 -0.06210
C7B C 0.19070 -0.09990 -0.09330
C8B C 0.14170 -0.35530 -0.29770
H1B H 0.34200 -0.56900 -0.31800
H2B H 0.55100 -0.54100 -0.20900
H3B H 0.58800 -0.32000 -0.04300
H4B H 0.42700 -0.12400 0.01300
Na1B Na -0.09280 -0.34890 -0.20200
O5B O -0.16700 -0.41210 -0.04280
H5B H -0.17900 -0.33100 0.00500
H6B H -0.14400 -0.51400 -0.00600
O4A O 0.11650 0.01480 0.14190
O4C O -0.11650 -0.01480 -0.14190
O2A O 0.19410 0.41500 0.39680
O3A O 0.06980 0.71230 0.20020
Na1A Na -0.09280 -0.15110 0.29800
Cu1A Cu 0.00000 0.50000 0.50000
Na1A_2 Na -0.09280 0.84890 0.29800
Na1C Na 0.09280 0.15110 -0.29800
Cu1A_2 Cu 0.00000 -0.50000 -0.50000
Na1C_2 Na 0.09280 -0.84890 -0.29800
O2C O -0.19410 -0.41500 -0.39680
O3C O -0.06980 -0.71230 -0.20020
loop_
_geom_bond_atom_site_label_1
_geom_bond_atom_site_label_2
_geom_bond_site_symmetry_1
_geom_bond_site_symmetry_2
Cu1 O1 1_555 1_555
Na1 O1 1_555 1_555
O1 C7 1_555 1_555
O2 C7 1_555 1_555
O3 Na1 1_555 1_555
O4 C8 1_555 1_555
O5 Na1 1_555 1_555
C1 C2 1_555 1_555
C2 C3 1_555 1_555
C3 C4 1_555 1_555
C4 C5 1_555 1_555
C5 C6 1_555 1_555
C6 C1 1_555 1_555
C7 C1 1_555 1_555
C8 O3 1_555 1_555
H1 C3 1_555 1_555
H2 C4 1_555 1_555
H3 C5 1_555 1_555
H4 C6 1_555 1_555
H5 O5 1_555 1_555
H6 O5 1_555 1_555
O1B Cu1 1_555 1_555
O2B C7B 1_555 1_555
O3B C8B 1_555 1_555
O4B C8B 1_555 1_555
C1B C2B 1_555 1_555
C2B C3B 1_555 1_555
C3B C4B 1_555 1_555
C4B C5B 1_555 1_555
C5B C6B 1_555 1_555
C6B C1B 1_555 1_555
C7B O1B 1_555 1_555
C8B C2B 1_555 1_555
H1B C3B 1_555 1_555
H2B C4B 1_555 1_555
H3B C5B 1_555 1_555
H4B C6B 1_555 1_555
Na1B O1B 1_555 1_555
O5B Na1B 1_555 1_555
H5B O5B 1_555 1_555
H6B O5B 1_555 1_555
O4A Cu1 1_555 1_555
O4C Cu1 1_555 1_555
O2A Na1 1_555 1_555
O3A Na1 1_555 1_555
Na1A O2 1_555 1_555
Cu1A O4 1_555 1_555
Na1A_2 O4 1_555 1_555
Na1C O2B 1_555 1_555
Cu1A_2 O4B 1_555 1_555
Na1C_2 O4B 1_555 1_555
O2C Na1B 1_555 1_555
O3C Na1B 1_555 1_555
Na1 O4A 1_555 1_555
O3 Na1A 1_555 1_555
C2 C8 1_555 1_555
O3B Na1B 1_555 1_555
O3B Na1C 1_555 1_555
C1B C7B 1_555 1_555
Na1B O4C 1_555 1_555
O3A Na1A_2 1_555 1_555
Na1C_2 O3C 1_555 1_555

#END
