
#######################################################################
#
#                 Cambridge Crystallographic Data Centre
#                                CCDC 
#
#######################################################################
#
# If this CIF has been generated from an entry in the Cambridge 
# Structural Database, then it will include bibliographic, chemical, 
# crystal, experimental, refinement or atomic coordinate data resulting 
# from the CCDC's data processing and validation procedures.
#
#######################################################################

data_NAPHCU01
_symmetry_cell_setting           monoclinic
_symmetry_space_group_name_H-M   'P 21/c'
_symmetry_Int_Tables_number      14
_space_group_name_Hall           '-P 2ybc'
loop_
_symmetry_equiv_pos_site_id
_symmetry_equiv_pos_as_xyz
1 x,y,z
2 x,1/2-y,1/2+z
3 -x,-y,-z
4 -x,1/2+y,1/2-z
_cell_length_a                   11.072(3)
_cell_length_b                   6.648(2)
_cell_length_c                   12.209(4)
_cell_angle_alpha                90
_cell_angle_beta                 101.800(5)
_cell_angle_gamma                90
_cell_volume                     879.673
loop_
_atom_site_label
_atom_site_type_symbol
_atom_site_fract_x
_atom_site_fract_y
_atom_site_fract_z
Cu1 Cu 0.5000 0.0000 1.0000
Na1 Na 0.40741(8) 0.15197(14) 1.29799(8)
O1 O 0.30574(14) 0.0855(2) 1.10319(13)
O2 O 0.39060(13) -0.1948(2) 1.05294(12)
O3 O 0.38308(14) -0.5143(2) 1.35756(13)
O4 O 0.42961(13) -0.2110(2) 1.29946(12)
O5 O 0.33242(19) 0.0878(3) 1.45649(16)
C1 C 0.30933(18) -0.1001(3) 1.09405(17)
C2 C 0.20958(18) -0.2252(3) 1.12841(17)
C3 C 0.09169(19) -0.2149(4) 1.0629(2)
H1 H 0.0762 -0.1323 1.0002
C4 C -0.0034(2) -0.3273(4) 1.0906(2)
H2 H -0.0823 -0.3199 1.0464
C5 C 0.0190(2) -0.4499(4) 1.1836(2)
H3 H -0.0451 -0.5234 1.2028
C6 C 0.1365(2) -0.4634(4) 1.2480(2)
H4 H 0.1516 -0.5490 1.3096
C7 C 0.23281(18) -0.3510(3) 1.22229(17)
C8 C 0.35844(19) -0.3549(3) 1.29775(17)
H5 H 0.352(3) -0.026(3) 1.494(2)
H6 H 0.324(3) 0.174(4) 1.5096(19)
O1B O 0.69426(14) -0.0855(2) 0.89681(13)
O2B O 0.60940(13) 0.1948(2) 0.94706(12)
O3B O 0.61692(14) 0.5143(2) 0.64244(13)
O4B O 0.57039(13) 0.2110(2) 0.70054(12)
C1B C 0.69067(18) 0.1001(3) 0.90595(17)
C2B C 0.79042(18) 0.2252(3) 0.87159(17)
C3B C 0.90831(19) 0.2149(4) 0.9371(2)
H1B H 0.9238 0.1323 0.9998
C4B C 1.0034(2) 0.3273(4) 0.9094(2)
H2B H 1.0823 0.3199 0.9536
C5B C 0.9810(2) 0.4499(4) 0.8164(2)
H3B H 1.0451 0.5234 0.7972
C6B C 0.8635(2) 0.4634(4) 0.7520(2)
H4B H 0.8484 0.5490 0.6904
C7B C 0.76719(18) 0.3510(3) 0.77771(17)
C8B C 0.64156(19) 0.3549(3) 0.70225(17)
Na1B Na 0.59259(8) -0.15197(14) 0.70201(8)
O5B O 0.66758(19) -0.0878(3) 0.54351(16)
H5B H 0.648(3) 0.026(3) 0.506(2)
H6B H 0.676(3) -0.174(4) 0.4904(19)
O3A O 0.38308(14) 0.0143(2) 0.85756(13)
O3C O 0.61692(14) -0.0143(2) 1.14244(13)
O2C O 0.60940(13) 0.3052(2) 1.44706(12)
O3_2 O 0.38308(14) 0.4857(2) 1.35756(13)
O4C O 0.57039(13) 0.2890(2) 1.20054(12)
Na1C Na 0.59259(8) -0.34803(14) 1.20201(8)
Cu1A Cu 0.5000 -0.5000 1.5000
Na1_2 Na 0.40741(8) -0.84803(14) 1.29799(8)
Na1A Na 0.40741(8) 0.34803(14) 0.79799(8)
Cu1A_2 Cu 0.5000 0.5000 0.5000
Na1B_2 Na 0.59259(8) 0.84803(14) 0.70201(8)
O2A O 0.39060(13) -0.3052(2) 0.55294(12)
O3B_2 O 0.61692(14) -0.4857(2) 0.64244(13)
O4A O 0.42961(13) -0.2890(2) 0.79946(12)
loop_
_geom_bond_atom_site_label_1
_geom_bond_atom_site_label_2
_geom_bond_site_symmetry_1
_geom_bond_site_symmetry_2
Cu1 O2 1_555 1_555
Na1 O1 1_555 1_555
O1 C1 1_555 1_555
O2 C1 1_555 1_555
O3 C8 1_555 1_555
O4 Na1 1_555 1_555
O5 Na1 1_555 1_555
C1 C2 1_555 1_555
C2 C3 1_555 1_555
C3 H1 1_555 1_555
C4 C3 1_555 1_555
H2 C4 1_555 1_555
C5 C4 1_555 1_555
H3 C5 1_555 1_555
C6 C5 1_555 1_555
H4 C6 1_555 1_555
C7 C2 1_555 1_555
C8 O4 1_555 1_555
H5 O5 1_555 1_555
H6 O5 1_555 1_555
O1B C1B 1_555 1_555
O2B Cu1 1_555 1_555
O3B C8B 1_555 1_555
O4B C8B 1_555 1_555
C1B O2B 1_555 1_555
C2B C1B 1_555 1_555
C3B C2B 1_555 1_555
H1B C3B 1_555 1_555
C4B C3B 1_555 1_555
H2B C4B 1_555 1_555
C5B C4B 1_555 1_555
H3B C5B 1_555 1_555
C6B C5B 1_555 1_555
H4B C6B 1_555 1_555
C7B C2B 1_555 1_555
C8B C7B 1_555 1_555
Na1B O1B 1_555 1_555
O5B Na1B 1_555 1_555
H5B O5B 1_555 1_555
H6B O5B 1_555 1_555
O3A Cu1 1_555 1_555
O3C Cu1 1_555 1_555
O2C Na1 1_555 1_555
O3_2 Na1 1_555 1_555
O4C Na1 1_555 1_555
Na1C O2 1_555 1_555
Cu1A O3 1_555 1_555
Na1_2 O3 1_555 1_555
Na1A O2B 1_555 1_555
Cu1A_2 O3B 1_555 1_555
Na1B_2 O3B 1_555 1_555
O2A Na1B 1_555 1_555
O3B_2 Na1B 1_555 1_555
O4A Na1B 1_555 1_555
O4 Na1C 1_555 1_555
C6 C7 1_555 1_555
C7 C8 1_555 1_555
O4B Na1B 1_555 1_555
O4B Na1A 1_555 1_555
C6B C7B 1_555 1_555
O3A Na1A 1_555 1_555
O3C Na1C 1_555 1_555

#END
