
#######################################################################
#
#                 Cambridge Crystallographic Data Centre
#                                CCDC 
#
#######################################################################
#
# If this CIF has been generated from an entry in the Cambridge 
# Structural Database, then it will include bibliographic, chemical, 
# crystal, experimental, refinement or atomic coordinate data resulting 
# from the CCDC's data processing and validation procedures.
#
#######################################################################

data_NAPHAO01
_symmetry_cell_setting           monoclinic
_symmetry_space_group_name_H-M   'P 21/c'
_symmetry_Int_Tables_number      14
_space_group_name_Hall           '-P 2ybc'
loop_
_symmetry_equiv_pos_site_id
_symmetry_equiv_pos_as_xyz
1 x,y,z
2 -x,1/2+y,1/2-z
3 -x,-y,-z
4 x,1/2-y,1/2+z
_cell_length_a                   13.5571(7)
_cell_length_b                   6.7454(2)
_cell_length_c                   24.1320(14)
_cell_angle_alpha                90
_cell_angle_beta                 113.294(4)
_cell_angle_gamma                90
_cell_volume                     2026.94
loop_
_atom_site_label
_atom_site_type_symbol
_atom_site_fract_x
_atom_site_fract_y
_atom_site_fract_z
Eu1 Eu 0.398980(10) 0.34293(2) 0.229387(7)
C1 C 0.7142(3) 0.3214(5) 0.37574(18)
C2 C 0.7749(3) 0.1462(5) 0.39123(17)
C3 C 0.8653(3) 0.1384(5) 0.44594(19)
H1 H 0.9058 0.0227 0.4566
C4 C 0.8948(3) 0.2984(7) 0.48381(18)
H2 H 0.9556 0.2907 0.5196
C5 C 0.8349(3) 0.4724(6) 0.46947(17)
H3 H 0.8550 0.5804 0.4955
C6 C 0.7456(3) 0.4823(5) 0.41615(16)
H4 H 0.7049 0.5979 0.4066
C7 C 0.6213(3) 0.3443(4) 0.31811(18)
C8 C 0.0630(3) -0.0059(5) 0.17567(16)
C9 C 0.1007(3) -0.1608(5) 0.2164(2)
C10 C 0.0325(4) -0.3138(7) 0.2170(2)
H5 H 0.0584 -0.4187 0.2439
C11 C -0.0729(4) -0.3088(8) 0.1778(2)
H6 H -0.1182 -0.4125 0.1777
C12 C -0.1133(4) -0.1511(8) 0.1383(2)
H7 H -0.1856 -0.1474 0.1127
C13 C -0.0457(3) -0.0006(7) 0.13718(19)
H8 H -0.0724 0.1052 0.1107
C14 C 0.1354(3) 0.1521(5) 0.17185(19)
C15 C 0.4177(3) -0.0545(5) 0.39742(16)
C16 C 0.4308(3) -0.2449(6) 0.42195(17)
C17 C 0.3913(3) -0.2904(7) 0.4656(2)
H9 H 0.3973 -0.4187 0.4807
C18 C 0.3434(4) -0.1452(7) 0.4863(2)
H10 H 0.3181 -0.1755 0.5159
C19 C 0.3325(3) 0.0456(7) 0.4636(2)
H11 H 0.3013 0.1438 0.4784
C20 C 0.3678(3) 0.0889(6) 0.41926(19)
H12 H 0.3585 0.2163 0.4033
C21 C 0.4551(2) -0.0003(5) 0.34883(15)
O1 O 0.58732(17) 0.2041(4) 0.28089(11)
O2 O 0.56973(17) 0.5081(3) 0.30536(10)
O3 O 0.74915(18) -0.0136(3) 0.35502(11)
O4 O 0.23392(19) 0.1474(3) 0.20702(13)
O5 O 0.0962(2) 0.2855(4) 0.13257(13)
H13 H 0.163(5) 0.388(9) 0.129(3)
O6 O 0.2043(2) -0.1649(4) 0.25850(17)
H14 H 0.235(4) -0.098(7) 0.251(2)
O7 O 0.5220(2) -0.1177(4) 0.34093(13)
O8 O 0.4184(2) 0.1522(3) 0.31794(12)
O9 O 0.4798(2) -0.3941(4) 0.40426(14)
H15 H 0.513(4) -0.351(7) 0.382(3)
O10 O 0.3142(2) 0.4979(4) 0.28802(16)
H16 H 0.279(4) 0.613(8) 0.279(3)
H17 H 0.341(4) 0.486(9) 0.317(3)
Eu1A Eu 0.601020(10) -0.15707(2) 0.270613(7)
Eu1A_2 Eu 0.601020(10) 0.84293(2) 0.270613(7)
O1A O 0.41268(17) 0.7041(4) 0.21911(11)
O2A O 0.43027(17) 0.0081(3) 0.19464(10)
O3A O 0.25085(18) 0.4864(3) 0.14498(11)
O7A O 0.4780(2) 0.3823(4) 0.15907(13)
loop_
_geom_bond_atom_site_label_1
_geom_bond_atom_site_label_2
_geom_bond_site_symmetry_1
_geom_bond_site_symmetry_2
Eu1 O1 1_555 1_555
C1 C2 1_555 1_555
C2 C3 1_555 1_555
C3 H1 1_555 1_555
C4 C3 1_555 1_555
H2 C4 1_555 1_555
C5 C4 1_555 1_555
H3 C5 1_555 1_555
C6 C1 1_555 1_555
H4 C6 1_555 1_555
C7 C1 1_555 1_555
C8 C9 1_555 1_555
C9 C10 1_555 1_555
C10 H5 1_555 1_555
C11 C10 1_555 1_555
H6 C11 1_555 1_555
C12 C11 1_555 1_555
H7 C12 1_555 1_555
C13 C8 1_555 1_555
H8 C13 1_555 1_555
C14 C8 1_555 1_555
C15 C16 1_555 1_555
C16 C17 1_555 1_555
C17 H9 1_555 1_555
C18 C17 1_555 1_555
H10 C18 1_555 1_555
C19 C18 1_555 1_555
H11 C19 1_555 1_555
C20 C15 1_555 1_555
H12 C20 1_555 1_555
C21 C15 1_555 1_555
O1 C7 1_555 1_555
O2 Eu1 1_555 1_555
O3 C2 1_555 1_555
O4 Eu1 1_555 1_555
O5 C14 1_555 1_555
H13 O5 1_555 1_555
O6 C9 1_555 1_555
H14 O6 1_555 1_555
O7 C21 1_555 1_555
O8 Eu1 1_555 1_555
O9 C16 1_555 1_555
H15 O9 1_555 1_555
O10 Eu1 1_555 1_555
H16 O10 1_555 1_555
H17 O10 1_555 1_555
Eu1A O1 1_555 1_555
Eu1A_2 O2 1_555 1_555
O1A Eu1 1_555 1_555
O2A Eu1 1_555 1_555
O3A Eu1 1_555 1_555
O7A Eu1 1_555 1_555
C5 C6 1_555 1_555
C7 O2 1_555 1_555
C12 C13 1_555 1_555
C14 O4 1_555 1_555
C19 C20 1_555 1_555
C21 O8 1_555 1_555
O3 Eu1A 1_555 1_555
O7 Eu1A 1_555 1_555
Eu1A O2A 1_555 1_555
Eu1A_2 O1A 1_555 1_555

#END
