
#######################################################################
#
#                 Cambridge Crystallographic Data Centre
#                                CCDC 
#
#######################################################################
#
# If this CIF has been generated from an entry in the Cambridge 
# Structural Database, then it will include bibliographic, chemical, 
# crystal, experimental, refinement or atomic coordinate data resulting 
# from the CCDC's data processing and validation procedures.
#
#######################################################################

data_NAPHAO
_symmetry_cell_setting           monoclinic
_symmetry_space_group_name_H-M   'P 21/n'
_symmetry_Int_Tables_number      14
_space_group_name_Hall           '-P 2yn'
loop_
_symmetry_equiv_pos_site_id
_symmetry_equiv_pos_as_xyz
1 x,y,z
2 1/2-x,1/2+y,1/2-z
3 -x,-y,-z
4 1/2+x,1/2-y,1/2+z
_cell_length_a                   13.633(3)
_cell_length_b                   6.7476(13)
_cell_length_c                   22.730(5)
_cell_angle_alpha                90
_cell_angle_beta                 100.06(3)
_cell_angle_gamma                90
_cell_volume                     2058.79
loop_
_atom_site_label
_atom_site_type_symbol
_atom_site_fract_x
_atom_site_fract_y
_atom_site_fract_z
Eu1 Eu 0.829807(16) 0.34087(3) 0.229006(10)
C1 C 1.1154(4) -0.1615(8) 0.2158(3)
C2 C 1.1859(6) -0.3105(10) 0.2169(4)
H1 H 1.1890 -0.4137 0.2442
C3 C 1.2513(7) -0.3042(13) 0.1770(4)
H2 H 1.2962 -0.4075 0.1763
C4 C 1.2510(7) -0.1486(13) 0.1387(4)
H3 H 1.2979 -0.1425 0.1136
C5 C 1.1816(5) -0.0018(12) 0.1374(3)
H4 H 1.1809 0.1024 0.1105
C6 C 1.1126(4) -0.0050(9) 0.1751(2)
C7 C 1.0364(4) 0.1477(7) 0.1714(3)
C8 C 0.9899(4) -0.2443(8) 0.4214(3)
C9 C 1.0717(5) -0.2888(11) 0.4649(3)
H5 H 1.0805 -0.4167 0.4801
C10 C 1.1404(5) -0.1421(11) 0.4857(3)
H6 H 1.1944 -0.1714 0.5155
C11 C 1.1291(5) 0.0477(12) 0.4624(3)
H7 H 1.1746 0.1462 0.4769
C12 C 1.0498(4) 0.0902(10) 0.4175(3)
H8 H 1.0436 0.2167 0.4010
C13 C 0.9787(4) -0.0542(8) 0.3963(2)
C14 C 0.8941(4) -0.0030(7) 0.3481(2)
C15 C 0.6179(4) 0.1432(7) 0.3908(2)
C16 C 0.5815(5) 0.1358(9) 0.4456(3)
H9 H 0.5510 0.0210 0.4562
C17 C 0.5909(5) 0.2966(10) 0.4829(3)
H10 H 0.5665 0.2891 0.5186
C18 C 0.6356(4) 0.4690(9) 0.4689(2)
H11 H 0.6412 0.5771 0.4946
C19 C 0.6717(4) 0.4789(8) 0.4160(2)
H12 H 0.7031 0.5943 0.4067
C20 C 0.6624(4) 0.3189(7) 0.3758(2)
C21 C 0.6978(4) 0.3407(6) 0.3184(2)
O1 O 1.0538(3) -0.1651(5) 0.2574(2)
H13 H 1.0155 -0.0705 0.2520
O2 O 1.0356(3) 0.2838(7) 0.1323(2)
H14 H 0.9888 0.3591 0.1336
O3 O 0.9728(3) 0.1456(5) 0.20661(19)
O4 O 0.9243(4) -0.3935(7) 0.4045(2)
H15 H 0.8789 -0.3530 0.3788
O5 O 0.9000(3) 0.1505(5) 0.31694(18)
O6 O 0.8196(3) -0.1195(5) 0.33949(18)
O7 O 0.6938(3) 0.2030(5) 0.28123(15)
O8 O 0.7355(3) 0.5065(5) 0.30524(15)
O9 O 0.6071(3) -0.0162(5) 0.35518(17)
O10 O 0.9733(3) 0.4979(6) 0.28752(19)
Eu1A Eu 0.670193(16) -0.15913(3) 0.270994(10)
Eu1A_2 Eu 0.670193(16) 0.84087(3) 0.270994(10)
O6A O 0.6804(3) 0.3805(5) 0.16051(18)
O7A O 0.8062(3) 0.7030(5) 0.21877(15)
O8A O 0.7645(3) 0.0065(5) 0.19476(15)
O9A O 0.8929(3) 0.4838(5) 0.14482(17)
loop_
_geom_bond_atom_site_label_1
_geom_bond_atom_site_label_2
_geom_bond_site_symmetry_1
_geom_bond_site_symmetry_2
Eu1 O3 1_555 1_555
C1 C2 1_555 1_555
C2 H1 1_555 1_555
C3 C2 1_555 1_555
H2 C3 1_555 1_555
C4 C3 1_555 1_555
H3 C4 1_555 1_555
C5 C4 1_555 1_555
H4 C5 1_555 1_555
C6 C1 1_555 1_555
C7 C6 1_555 1_555
C8 C9 1_555 1_555
C9 H5 1_555 1_555
C10 C9 1_555 1_555
H6 C10 1_555 1_555
C11 C10 1_555 1_555
H7 C11 1_555 1_555
C12 C11 1_555 1_555
H8 C12 1_555 1_555
C13 C8 1_555 1_555
C14 C13 1_555 1_555
C15 C16 1_555 1_555
C16 H9 1_555 1_555
C17 C16 1_555 1_555
H10 C17 1_555 1_555
C18 C17 1_555 1_555
H11 C18 1_555 1_555
C19 C18 1_555 1_555
H12 C19 1_555 1_555
C20 C15 1_555 1_555
C21 C20 1_555 1_555
O1 C1 1_555 1_555
H13 O1 1_555 1_555
O2 C7 1_555 1_555
H14 O2 1_555 1_555
O3 C7 1_555 1_555
O4 C8 1_555 1_555
H15 O4 1_555 1_555
O5 Eu1 1_555 1_555
O6 C14 1_555 1_555
O7 Eu1 1_555 1_555
O8 Eu1 1_555 1_555
O9 C15 1_555 1_555
O10 Eu1 1_555 1_555
Eu1A O6 1_555 1_555
Eu1A_2 O8 1_555 1_555
O6A Eu1 1_555 1_555
O7A Eu1 1_555 1_555
O8A Eu1 1_555 1_555
O9A Eu1 1_555 1_555
C5 C6 1_555 1_555
C12 C13 1_555 1_555
C14 O5 1_555 1_555
C19 C20 1_555 1_555
C21 O7 1_555 1_555
C21 O8 1_555 1_555
O7 Eu1A 1_555 1_555
O9 Eu1A 1_555 1_555
Eu1A O8A 1_555 1_555
Eu1A_2 O7A 1_555 1_555

#END
