
#######################################################################
#
#                 Cambridge Crystallographic Data Centre
#                                CCDC 
#
#######################################################################
#
# If this CIF has been generated from an entry in the Cambridge 
# Structural Database, then it will include bibliographic, chemical, 
# crystal, experimental, refinement or atomic coordinate data resulting 
# from the CCDC's data processing and validation procedures.
#
#######################################################################

data_NAPHCU02
_symmetry_cell_setting           monoclinic
_symmetry_space_group_name_H-M   'P 21/c'
_symmetry_Int_Tables_number      14
_space_group_name_Hall           '-P 2ybc'
loop_
_symmetry_equiv_pos_site_id
_symmetry_equiv_pos_as_xyz
1 x,y,z
2 x,1/2-y,1/2+z
3 -x,-y,-z
4 -x,1/2+y,1/2-z
_cell_length_a                   11.086(2)
_cell_length_b                   6.6480(13)
_cell_length_c                   12.195(2)
_cell_angle_alpha                90
_cell_angle_beta                 101.88(3)
_cell_angle_gamma                90
_cell_volume                     879.517
loop_
_atom_site_label
_atom_site_type_symbol
_atom_site_fract_x
_atom_site_fract_y
_atom_site_fract_z
Cu1 Cu 0.0000 -1.0000 0.0000
Na1 Na -0.09244(10) -0.65198(14) -0.20221(9)
O1 O -0.11687(16) -0.9854(2) -0.14251(14)
O2 O -0.07031(14) -1.2891(2) -0.20072(14)
O3 O -0.19404(16) -1.5857(3) -0.39679(15)
O4 O -0.10940(15) -1.3052(2) -0.44691(14)
O5 O -0.1679(2) -0.5875(3) -0.04402(19)
C1 C -0.1416(2) -1.1443(3) -0.20260(19)
C2 C -0.2670(2) -1.1492(3) -0.27781(19)
C3 C -0.3633(2) -1.0363(4) -0.2520(2)
H1 H -0.3481 -0.9507 -0.1904
C4 C -0.4811(2) -1.0496(4) -0.3167(2)
H2 H -0.5450 -0.9757 -0.2977
C5 C -0.5033(2) -1.1733(4) -0.4095(2)
H3 H -0.5822 -1.1818 -0.4537
C6 C -0.4083(2) -1.2848(4) -0.4373(2)
H4 H -0.4238 -1.3669 -0.5004
C7 C -0.2901(2) -1.2751(3) -0.37173(19)
C8 C -0.1909(2) -1.3993(3) -0.40582(19)
H5 H -0.156(3) -0.470(6) -0.007(3)
H6 H -0.171(4) -0.661(7) 0.002(3)
O1B O 0.11687(16) -1.0146(2) 0.14251(14)
O2B O 0.07031(14) -0.7109(2) 0.20072(14)
O3B O 0.19404(16) -0.4143(3) 0.39679(15)
O4B O 0.10940(15) -0.6948(2) 0.44691(14)
C1B C 0.1416(2) -0.8557(3) 0.20260(19)
C2B C 0.2670(2) -0.8508(3) 0.27781(19)
C3B C 0.3633(2) -0.9637(4) 0.2520(2)
H1B H 0.3481 -1.0493 0.1904
C4B C 0.4811(2) -0.9504(4) 0.3167(2)
H2B H 0.5450 -1.0243 0.2977
C5B C 0.5033(2) -0.8267(4) 0.4095(2)
H3B H 0.5822 -0.8182 0.4537
C6B C 0.4083(2) -0.7152(4) 0.4373(2)
H4B H 0.4238 -0.6331 0.5004
C7B C 0.2901(2) -0.7249(3) 0.37173(19)
C8B C 0.1909(2) -0.6007(3) 0.40582(19)
Na1B Na 0.09244(10) -1.34802(14) 0.20221(9)
O5B O 0.1679(2) -1.4125(3) 0.04402(19)
H5B H 0.156(3) -1.530(6) 0.007(3)
H6B H 0.171(4) -1.339(7) -0.002(3)
O4A O -0.10940(15) -1.1948(2) 0.05309(14)
O4C O 0.10940(15) -0.8052(2) -0.05309(14)
O2_2 O -0.07031(14) -0.2891(2) -0.20072(14)
O2C O 0.07031(14) -0.7891(2) -0.29928(14)
O3_2 O -0.19404(16) -0.5857(3) -0.39679(15)
Na1_2 Na -0.09244(10) -1.65198(14) -0.20221(9)
Na1C Na 0.09244(10) -1.15198(14) -0.29779(9)
Cu1A Cu 0.0000 -1.5000 -0.5000
Na1A Na -0.09244(10) -0.84802(14) 0.29779(9)
Na1B_2 Na 0.09244(10) -0.34802(14) 0.20221(9)
Cu1A_2 Cu 0.0000 -0.5000 0.5000
O2A O -0.07031(14) -1.2109(2) 0.29928(14)
O2B_2 O 0.07031(14) -1.7109(2) 0.20072(14)
O3B_2 O 0.19404(16) -1.4143(3) 0.39679(15)
loop_
_geom_bond_atom_site_label_1
_geom_bond_atom_site_label_2
_geom_bond_site_symmetry_1
_geom_bond_site_symmetry_2
Cu1 O1 1_555 1_555
Na1 O1 1_555 1_555
O1 C1 1_555 1_555
O2 C1 1_555 1_555
O3 C8 1_555 1_555
O4 C8 1_555 1_555
O5 Na1 1_555 1_555
C1 C2 1_555 1_555
C2 C3 1_555 1_555
C3 H1 1_555 1_555
C4 C3 1_555 1_555
H2 C4 1_555 1_555
C5 C4 1_555 1_555
H3 C5 1_555 1_555
C6 C5 1_555 1_555
H4 C6 1_555 1_555
C7 C2 1_555 1_555
C8 C7 1_555 1_555
H5 O5 1_555 1_555
H6 O5 1_555 1_555
O1B Cu1 1_555 1_555
O2B C1B 1_555 1_555
O3B C8B 1_555 1_555
O4B C8B 1_555 1_555
C1B O1B 1_555 1_555
C2B C1B 1_555 1_555
C3B C2B 1_555 1_555
H1B C3B 1_555 1_555
C4B C3B 1_555 1_555
H2B C4B 1_555 1_555
C5B C4B 1_555 1_555
H3B C5B 1_555 1_555
C6B C5B 1_555 1_555
H4B C6B 1_555 1_555
C7B C2B 1_555 1_555
C8B C7B 1_555 1_555
Na1B O1B 1_555 1_555
O5B Na1B 1_555 1_555
H5B O5B 1_555 1_555
H6B O5B 1_555 1_555
O4A Cu1 1_555 1_555
O4C Cu1 1_555 1_555
O2_2 Na1 1_555 1_555
O2C Na1 1_555 1_555
O3_2 Na1 1_555 1_555
Na1_2 O2 1_555 1_555
Na1C O2 1_555 1_555
Cu1A O4 1_555 1_555
Na1A O2B 1_555 1_555
Na1B_2 O2B 1_555 1_555
Cu1A_2 O4B 1_555 1_555
O2A Na1B 1_555 1_555
O2B_2 Na1B 1_555 1_555
O3B_2 Na1B 1_555 1_555
Na1 O4C 1_555 1_555
O3 Na1_2 1_555 1_555
O4 Na1C 1_555 1_555
C6 C7 1_555 1_555
O3B Na1B_2 1_555 1_555
O4B Na1A 1_555 1_555
C6B C7B 1_555 1_555
Na1B O4A 1_555 1_555
O2C Na1C 1_555 1_555
Na1A O2A 1_555 1_555

#END
