
#######################################################################
#
#                 Cambridge Crystallographic Data Centre
#                                CCDC 
#
#######################################################################
#
# If this CIF has been generated from an entry in the Cambridge 
# Structural Database, then it will include bibliographic, chemical, 
# crystal, experimental, refinement or atomic coordinate data resulting 
# from the CCDC's data processing and validation procedures.
#
#######################################################################

data_NAPOCA01
_symmetry_cell_setting           monoclinic
_symmetry_space_group_name_H-M   'C 2/c'
_symmetry_Int_Tables_number      15
_space_group_name_Hall           '-C 2yn'
loop_
_symmetry_equiv_pos_site_id
_symmetry_equiv_pos_as_xyz
1 x,y,z
2 1/2+x,1/2+y,z
3 x,-y,1/2+z
4 1/2+x,1/2-y,1/2+z
5 -x,-y,-z
6 1/2-x,1/2-y,-z
7 -x,y,1/2-z
8 1/2-x,1/2+y,1/2-z
_cell_length_a                   34.149(11)
_cell_length_b                   7.654(3)
_cell_length_c                   6.144(2)
_cell_angle_alpha                90
_cell_angle_beta                 98.02(3)
_cell_angle_gamma                90
_cell_volume                     1590.19
loop_
_atom_site_label
_atom_site_type_symbol
_atom_site_fract_x
_atom_site_fract_y
_atom_site_fract_z
Na1 Na 0.46847(3) 0.17124(13) 0.03367(15)
O1 O 0.40157(5) 0.2474(2) 0.1427(3)
O2 O 0.46095(5) 0.1196(2) 0.4207(3)
O3 O 0.44708(5) 0.2918(3) 0.6954(3)
O4 O 0.5000 0.4255(4) 0.2500
H1 H 0.5200(9) 0.492(5) 0.247(5)
C1 C 0.44134(7) 0.2340(3) 0.5031(4)
C2 C 0.40562(7) 0.3153(3) 0.3616(4)
H2 H 0.3814 0.2896 0.4273
H3 H 0.4089 0.4437 0.3578
C3 C 0.36439(7) 0.2537(3) 0.0232(4)
C4 C 0.35837(8) 0.1527(3) -0.1669(4)
H4 H 0.3796 0.0877 -0.2116
C5 C 0.32123(8) 0.1475(4) -0.2904(4)
H5 H 0.3171 0.0784 -0.4199
C6 C 0.29003(8) 0.2417(4) -0.2277(4)
H6 H 0.2645 0.2352 -0.3115
C7 C 0.29651(8) 0.3456(4) -0.0413(4)
H7 H 0.2753 0.4118 0.0014
C8 C 0.33357(8) 0.3539(4) 0.0838(4)
H8 H 0.3379 0.4273 0.2095
H1F H 0.4800(9) 0.492(5) 0.253(5)
O1B O 0.40157(5) -0.2474(2) -0.3573(3)
O2B O 0.46095(5) -0.1196(2) -0.0793(3)
O3B O 0.44708(5) -0.2918(3) 0.1954(3)
C1B C 0.44134(7) -0.2340(3) 0.0031(4)
C2B C 0.40562(7) -0.3153(3) -0.1384(4)
H2B H 0.3814 -0.2896 -0.0727
H3B H 0.4089 -0.4437 -0.1422
C3B C 0.36439(7) -0.2537(3) -0.4768(4)
C4B C 0.35837(8) -0.1527(3) -0.6669(4)
H4B H 0.3796 -0.0877 -0.7116
C5B C 0.32123(8) -0.1475(4) -0.7904(4)
H5B H 0.3171 -0.0784 -0.9199
C6B C 0.29003(8) -0.2417(4) -0.7277(4)
H6B H 0.2645 -0.2352 -0.8115
C7B C 0.29651(8) -0.3456(4) -0.5413(4)
H7B H 0.2753 -0.4118 -0.4986
C8B C 0.33357(8) -0.3539(4) -0.4162(4)
H8B H 0.3379 -0.4273 -0.2905
Na1B Na 0.46847(3) -0.17124(13) -0.46633(15)
O2F O 0.53905(5) 0.1196(2) 0.0793(3)
O3_2 O 0.44708(5) 0.2918(3) -0.3046(3)
Na1B_2 Na 0.46847(3) -0.17124(13) 0.53367(15)
Na1F Na 0.53153(3) 0.17124(13) 0.46633(15)
Na1_2 Na 0.46847(3) 0.17124(13) 1.03367(15)
Na1D Na 0.53153(3) -0.17124(13) -0.03367(15)
O2_2 O 0.46095(5) 0.1196(2) -0.5793(3)
O2D O 0.53905(5) -0.1196(2) -0.4207(3)
O3B_2 O 0.44708(5) -0.2918(3) -0.8046(3)
O4B O 0.5000 -0.4255(4) -0.2500
H1B H 0.5200(9) -0.492(5) -0.253(5)
H1D H 0.4800(9) -0.492(5) -0.247(5)
loop_
_geom_bond_atom_site_label_1
_geom_bond_atom_site_label_2
_geom_bond_site_symmetry_1
_geom_bond_site_symmetry_2
Na1 O1 1_555 1_555
O1 C2 1_555 1_555
O2 Na1 1_555 1_555
O3 C1 1_555 1_555
O4 Na1 1_555 1_555
H1 O4 1_555 1_555
C1 O2 1_555 1_555
C2 C1 1_555 1_555
H2 C2 1_555 1_555
H3 C2 1_555 1_555
C3 O1 1_555 1_555
C4 C3 1_555 1_555
H4 C4 1_555 1_555
C5 C4 1_555 1_555
H5 C5 1_555 1_555
C6 C5 1_555 1_555
H6 C6 1_555 1_555
C7 C6 1_555 1_555
H7 C7 1_555 1_555
C8 C3 1_555 1_555
H8 C8 1_555 1_555
H1F O4 1_555 1_555
O1B C2B 1_555 1_555
O2B Na1 1_555 1_555
O3B C1B 1_555 1_555
C1B O2B 1_555 1_555
C2B C1B 1_555 1_555
H2B C2B 1_555 1_555
H3B C2B 1_555 1_555
C3B O1B 1_555 1_555
C4B C3B 1_555 1_555
H4B C4B 1_555 1_555
C5B C4B 1_555 1_555
H5B C5B 1_555 1_555
C6B C5B 1_555 1_555
H6B C6B 1_555 1_555
C7B C6B 1_555 1_555
H7B C7B 1_555 1_555
C8B C3B 1_555 1_555
H8B C8B 1_555 1_555
Na1B O1B 1_555 1_555
O2F Na1 1_555 1_555
O3_2 Na1 1_555 1_555
Na1B_2 O2 1_555 1_555
Na1F O2 1_555 1_555
Na1_2 O3 1_555 1_555
Na1D O2B 1_555 1_555
O2_2 Na1B 1_555 1_555
O2D Na1B 1_555 1_555
O3B_2 Na1B 1_555 1_555
O4B Na1B 1_555 1_555
H1B O4B 1_555 1_555
H1D O4B 1_555 1_555
O4 Na1F 1_555 1_555
C7 C8 1_555 1_555
O2B Na1B 1_555 1_555
O3B Na1B_2 1_555 1_555
C7B C8B 1_555 1_555
O2F Na1D 1_555 1_555
O2F Na1F 1_555 1_555
Na1D O2D 1_555 1_555
Na1D O4B 1_555 1_555

#END
