
#######################################################################
#
#                 Cambridge Crystallographic Data Centre
#                                CCDC 
#
#######################################################################
#
# If this CIF has been generated from an entry in the Cambridge 
# Structural Database, then it will include bibliographic, chemical, 
# crystal, experimental, refinement or atomic coordinate data resulting 
# from the CCDC's data processing and validation procedures.
#
#######################################################################

data_NAPTAA
_symmetry_cell_setting           monoclinic
_symmetry_space_group_name_H-M   'P n'
_symmetry_Int_Tables_number      7
_space_group_name_Hall           'P -2yac'
loop_
_symmetry_equiv_pos_site_id
_symmetry_equiv_pos_as_xyz
1 x,y,z
2 1/2+x,-y,1/2+z
_cell_length_a                   8.5217(12)
_cell_length_b                   5.1528(8)
_cell_length_c                   13.719(2)
_cell_angle_alpha                90
_cell_angle_beta                 97.240(3)
_cell_angle_gamma                90
_cell_volume                     597.607
loop_
_atom_site_label
_atom_site_type_symbol
_atom_site_fract_x
_atom_site_fract_y
_atom_site_fract_z
Cd1 Cd -0.0057(3) -0.49785(12) -0.5886(2)
Cl1 Cl 0.2464(4) -0.2848(7) -0.5640(2)
Cl2 Cl -0.1219(4) -0.7050(6) -0.4584(2)
N1 N 0.0214(10) -0.7505(15) -0.7183(7)
N2 N -0.0109(17) -1.0280(15) -0.8410(9)
N3 N -0.2051(11) -1.2320(14) -0.6523(7)
N4 N -0.3537(15) -0.9550(19) -0.7423(9)
C1 C -0.0682(16) -0.943(2) -0.7594(10)
C2 C 0.1190(16) -0.879(3) -0.8529(10)
H1 H 0.1812 -0.8913 -0.9038
C3 C 0.1382(14) -0.718(2) -0.7792(9)
H2 H 0.2196 -0.5974 -0.7687
C4 C -0.083(2) -1.226(2) -0.9098(9)
H3 H -0.1730 -1.3010 -0.8843
H4 H -0.0072 -1.3595 -0.9176
H5 H -0.1170 -1.1474 -0.9723
C5 C -0.2068(16) -1.0465(19) -0.7186(8)
C6 C -0.3577(16) -1.257(2) -0.6313(8)
H6 H -0.3919 -1.3718 -0.5861
C7 C -0.4505(16) -1.085(3) -0.6881(11)
H7 H -0.5590 -1.0622 -0.6894
C8 C -0.4080(18) -0.756(2) -0.8147(11)
H8 H -0.3191 -0.6872 -0.8427
H9 H -0.4592 -0.6192 -0.7833
H10 H -0.4815 -0.8316 -0.8657
Cd1_2 Cd -0.0057(3) -1.49785(12) -0.5886(2)
N3_2 N -0.2051(11) -0.2320(14) -0.6523(7)
loop_
_geom_bond_atom_site_label_1
_geom_bond_atom_site_label_2
_geom_bond_site_symmetry_1
_geom_bond_site_symmetry_2
Cd1 Cl1 1_555 1_555
Cl2 Cd1 1_555 1_555
N1 Cd1 1_555 1_555
N2 C1 1_555 1_555
N3 C5 1_555 1_555
N4 C5 1_555 1_555
C1 N1 1_555 1_555
C2 N2 1_555 1_555
H1 C2 1_555 1_555
C3 N1 1_555 1_555
H2 C3 1_555 1_555
C4 N2 1_555 1_555
H3 C4 1_555 1_555
H4 C4 1_555 1_555
H5 C4 1_555 1_555
C5 C1 1_555 1_555
C6 N3 1_555 1_555
H6 C6 1_555 1_555
C7 N4 1_555 1_555
H7 C7 1_555 1_555
C8 N4 1_555 1_555
H8 C8 1_555 1_555
H9 C8 1_555 1_555
H10 C8 1_555 1_555
Cd1_2 N3 1_555 1_555
N3_2 Cd1 1_555 1_555
C2 C3 1_555 1_555
C6 C7 1_555 1_555

#END
