
#######################################################################
#
#                 Cambridge Crystallographic Data Centre
#                                CCDC 
#
#######################################################################
#
# If this CIF has been generated from an entry in the Cambridge 
# Structural Database, then it will include bibliographic, chemical, 
# crystal, experimental, refinement or atomic coordinate data resulting 
# from the CCDC's data processing and validation procedures.
#
#######################################################################

data_NAPVIL
_symmetry_cell_setting           monoclinic
_symmetry_space_group_name_H-M   'C 2/c'
_symmetry_Int_Tables_number      15
_space_group_name_Hall           '-C 2yn'
loop_
_symmetry_equiv_pos_site_id
_symmetry_equiv_pos_as_xyz
1 x,y,z
2 -x,y,1/2-z
3 1/2+x,1/2+y,z
4 1/2-x,1/2+y,1/2-z
5 -x,-y,-z
6 x,-y,1/2+z
7 1/2-x,1/2-y,-z
8 1/2+x,1/2-y,1/2+z
_cell_length_a                   8.5929(11)
_cell_length_b                   16.0434(17)
_cell_length_c                   11.0932(15)
_cell_angle_alpha                90
_cell_angle_beta                 97.630(10)
_cell_angle_gamma                90
_cell_volume                     1515.76
loop_
_atom_site_label
_atom_site_type_symbol
_atom_site_fract_x
_atom_site_fract_y
_atom_site_fract_z
C1 C 1.3017(5) -0.3472(3) 0.3530(4)
H1 H 1.3465 -0.3994 0.3691
C2 C 1.3936(5) -0.2771(3) 0.3831(4)
C3 C 1.5606(6) -0.2860(4) 0.4402(5)
H2 H 1.6172 -0.3192 0.3886
H3 H 1.5637 -0.3126 0.5180
H4 H 1.6081 -0.2319 0.4506
C4 C 1.3228(6) -0.2005(3) 0.3575(5)
H5 H 1.3799 -0.1519 0.3763
C5 C 1.1684(6) -0.1954(3) 0.3043(5)
H6 H 1.1218 -0.1437 0.2865
C6 C 1.0832(5) -0.2683(2) 0.2778(4)
N1 N 1.1506(4) -0.3430(2) 0.3017(3)
N2 N 1.1927(7) -0.4599(2) 0.0311(5)
O1 O 1.0688(5) -0.4196(2) 0.0423(4)
O2 O 1.2641(7) -0.4930(4) 0.1220(5)
O3 O 1.2375(9) -0.4645(3) -0.0704(6)
Pb1 Pb 1.0000 -0.469081(11) 0.2500
C1A C 0.6983(5) -0.3472(3) 0.1470(4)
H1A H 0.6535 -0.3994 0.1309
C2A C 0.6064(5) -0.2771(3) 0.1169(4)
C3A C 0.4394(6) -0.2860(4) 0.0598(5)
H2A H 0.3828 -0.3192 0.1114
H3A H 0.4363 -0.3126 -0.0180
H4A H 0.3919 -0.2319 0.0494
C4A C 0.6772(6) -0.2005(3) 0.1425(5)
H5A H 0.6201 -0.1519 0.1237
C5A C 0.8316(6) -0.1954(3) 0.1957(5)
H6A H 0.8782 -0.1437 0.2135
C6A C 0.9168(5) -0.2683(2) 0.2222(4)
N1A N 0.8494(4) -0.3430(2) 0.1983(3)
N2D N 0.8073(7) -0.5401(2) -0.0311(5)
O1D O 0.9312(5) -0.5804(2) -0.0423(4)
O1A O 0.9312(5) -0.4196(2) 0.4577(4)
O2D O 0.7359(7) -0.5070(4) -0.1220(5)
O2A O 0.7359(7) -0.4930(4) 0.3780(5)
O3D O 0.7625(9) -0.5355(3) 0.0704(6)
O3E O 1.2375(9) -0.5355(3) 0.4296(6)
Pb1D Pb 1.0000 -0.530919(11) -0.2500
loop_
_geom_bond_atom_site_label_1
_geom_bond_atom_site_label_2
_geom_bond_site_symmetry_1
_geom_bond_site_symmetry_2
C1 H1 1_555 1_555
C2 C1 1_555 1_555
C3 C2 1_555 1_555
H2 C3 1_555 1_555
H3 C3 1_555 1_555
H4 C3 1_555 1_555
C4 C2 1_555 1_555
H5 C4 1_555 1_555
C5 C4 1_555 1_555
H6 C5 1_555 1_555
C6 C5 1_555 1_555
N1 C1 1_555 1_555
N2 O1 1_555 1_555
O1 Pb1 1_555 1_555
O2 N2 1_555 1_555
O3 N2 1_555 1_555
Pb1 N1 1_555 1_555
C1A H1A 1_555 1_555
C2A C1A 1_555 1_555
C3A C2A 1_555 1_555
H2A C3A 1_555 1_555
H3A C3A 1_555 1_555
H4A C3A 1_555 1_555
C4A C2A 1_555 1_555
H5A C4A 1_555 1_555
C5A C4A 1_555 1_555
H6A C5A 1_555 1_555
C6A C6 1_555 1_555
N1A Pb1 1_555 1_555
N2D O1D 1_555 1_555
O1D Pb1D 1_555 1_555
O1A Pb1 1_555 1_555
O2D N2D 1_555 1_555
O2A Pb1 1_555 1_555
O3D Pb1 1_555 1_555
O3E Pb1 1_555 1_555
Pb1D O3 1_555 1_555
C6 N1 1_555 1_555
O2 Pb1 1_555 1_555
C1A N1A 1_555 1_555
C5A C6A 1_555 1_555
C6A N1A 1_555 1_555
N2D O3D 1_555 1_555
O2D Pb1D 1_555 1_555

#END
