
#######################################################################
#
#                 Cambridge Crystallographic Data Centre
#                                CCDC 
#
#######################################################################
#
# If this CIF has been generated from an entry in the Cambridge 
# Structural Database, then it will include bibliographic, chemical, 
# crystal, experimental, refinement or atomic coordinate data resulting 
# from the CCDC's data processing and validation procedures.
#
#######################################################################

data_NAPZUB
_symmetry_cell_setting           orthorhombic
_symmetry_space_group_name_H-M   'P n a 21'
_symmetry_Int_Tables_number      33
_space_group_name_Hall           'P 2c -2n'
loop_
_symmetry_equiv_pos_site_id
_symmetry_equiv_pos_as_xyz
1 x,y,z
2 -x,-y,1/2+z
3 1/2+x,1/2-y,z
4 1/2-x,1/2+y,1/2+z
_cell_length_a                   7.691(2)
_cell_length_b                   15.8154(15)
_cell_length_c                   10.2147(11)
_cell_angle_alpha                90
_cell_angle_beta                 90
_cell_angle_gamma                90
_cell_volume                     1242.48
loop_
_atom_site_label
_atom_site_type_symbol
_atom_site_fract_x
_atom_site_fract_y
_atom_site_fract_z
Cd1 Cd 0.03278(4) 0.211520(16) -0.29083(7)
C1 C -0.3893(7) -0.1147(3) 0.1041(6)
C2 C -0.4263(7) -0.0243(3) 0.0693(6)
C3 C -0.3071(7) 0.0215(3) -0.0048(6)
H1 H -0.2033 -0.0035 -0.0311
C4 C -0.3433(7) 0.1047(3) -0.0393(6)
C5 C -0.4950(7) 0.1430(4) 0.0037(7)
H2 H -0.5178 0.1987 -0.0195
C6 C -0.6151(7) 0.0987(3) 0.0819(6)
C7 C -0.5788(7) 0.0156(4) 0.1125(6)
H3 H -0.6574 -0.0148 0.1632
C8 C -0.7796(9) 0.1393(4) 0.1281(9)
H4 H -0.8441 0.0998 0.1804
H5 H -0.8483 0.1559 0.0540
H6 H -0.7521 0.1883 0.1797
C9 C -0.2194(9) 0.1521(4) -0.1237(7)
C10 C -0.1154(14) 0.1586(11) -0.5869(10)
H7 H -0.1344 0.2169 -0.6128
H8 H 0.0067 0.1466 -0.6020
C11 C -0.2072(15) 0.1096(10) -0.6710(10)
H9 H -0.1737 0.1226 -0.7593
H10 H -0.3291 0.1204 -0.6601
H11 H -0.1837 0.0511 -0.6533
O1 O -0.2384(5) -0.1395(2) 0.1044(5)
O2 O -0.5238(4) -0.1604(2) 0.1285(5)
O3 O -0.0752(6) 0.1168(3) -0.1514(6)
O4 O -0.2509(5) 0.2255(2) -0.1656(4)
O5 O -0.1426(6) 0.1543(3) -0.4526(6)
Cd1C Cd -0.53278(4) -0.288480(16) 0.20917(7)
Cd1A Cd -0.03278(4) -0.211520(16) 0.20917(7)
Cd1B Cd -0.46722(4) 0.288480(16) -0.29083(7)
O1A O 0.2384(5) 0.1395(2) -0.3956(5)
O2C O 0.0238(4) 0.3396(2) -0.3715(5)
O4B O 0.2491(5) 0.2745(2) -0.1656(4)
loop_
_geom_bond_atom_site_label_1
_geom_bond_atom_site_label_2
_geom_bond_site_symmetry_1
_geom_bond_site_symmetry_2
Cd1 O3 1_555 1_555
C1 C2 1_555 1_555
C2 C3 1_555 1_555
C3 H1 1_555 1_555
C4 C3 1_555 1_555
C5 C4 1_555 1_555
H2 C5 1_555 1_555
C6 C5 1_555 1_555
C7 C2 1_555 1_555
H3 C7 1_555 1_555
C8 C6 1_555 1_555
H4 C8 1_555 1_555
H5 C8 1_555 1_555
H6 C8 1_555 1_555
C9 C4 1_555 1_555
C10 H7 1_555 1_555
H8 C10 1_555 1_555
C11 C10 1_555 1_555
H9 C11 1_555 1_555
H10 C11 1_555 1_555
H11 C11 1_555 1_555
O1 C1 1_555 1_555
O2 C1 1_555 1_555
O3 C9 1_555 1_555
O4 Cd1 1_555 1_555
O5 Cd1 1_555 1_555
Cd1C O2 1_555 1_555
Cd1A O1 1_555 1_555
Cd1B O4 1_555 1_555
O1A Cd1 1_555 1_555
O2C Cd1 1_555 1_555
O4B Cd1 1_555 1_555
C6 C7 1_555 1_555
C9 O4 1_555 1_555
C10 O5 1_555 1_555

#END
