
#######################################################################
#
#                 Cambridge Crystallographic Data Centre
#                                CCDC 
#
#######################################################################
#
# If this CIF has been generated from an entry in the Cambridge 
# Structural Database, then it will include bibliographic, chemical, 
# crystal, experimental, refinement or atomic coordinate data resulting 
# from the CCDC's data processing and validation procedures.
#
#######################################################################

data_NAQBOX
_symmetry_cell_setting           orthorhombic
_symmetry_space_group_name_H-M   'P b c a'
_symmetry_Int_Tables_number      61
_space_group_name_Hall           '-P 2ac 2ab'
loop_
_symmetry_equiv_pos_site_id
_symmetry_equiv_pos_as_xyz
1 x,y,z
2 1/2-x,-y,1/2+z
3 -x,1/2+y,1/2-z
4 1/2+x,1/2-y,-z
5 -x,-y,-z
6 1/2+x,y,1/2-z
7 x,1/2-y,1/2+z
8 1/2-x,1/2+y,z
_cell_length_a                   8.7980(13)
_cell_length_b                   10.1982(15)
_cell_length_c                   17.945(3)
_cell_angle_alpha                90
_cell_angle_beta                 90
_cell_angle_gamma                90
_cell_volume                     1610.09
loop_
_atom_site_label
_atom_site_type_symbol
_atom_site_fract_x
_atom_site_fract_y
_atom_site_fract_z
Ni1 Ni 0.34085(11) 0.34372(9) 0.81005(5)
P1 P 0.5409(2) 0.1536(2) 0.71157(10)
O1 O 0.5196(5) 0.2198(4) 0.7871(2)
O2 O 0.5260(6) 0.0058(5) 0.7138(3)
O3 O 0.6885(5) 0.1920(4) 0.6739(2)
O4 O 0.3032(6) 0.3217(5) 0.6889(3)
H1 H 0.215(9) 0.309(7) 0.666(4)
N1 N 0.3848(6) 0.1601(7) 0.4236(3)
C1 C 0.3306(10) 0.0672(8) 0.4697(4)
H2 H 0.2951 -0.0101 0.4483
C2 C 0.3237(10) 0.0775(9) 0.5449(4)
H3 H 0.2830 0.0102 0.5736
C3 C 0.3788(9) 0.1908(9) 0.5781(4)
C4 C 0.4366(10) 0.2875(8) 0.5325(5)
H4 H 0.4744 0.3650 0.5526
C5 C 0.4374(10) 0.2674(8) 0.4568(5)
H5 H 0.4775 0.3332 0.4268
C6 C 0.3740(9) 0.2061(8) 0.6602(4)
H6 H 0.3001 0.1385 0.6742
O5 O 0.1602(7) 0.4649(5) 0.8289(3)
H7 H 0.0963 0.4605 0.7900
H8 H 0.2050 0.5421 0.8394
Ni1B Ni 0.65915(11) -0.15628(9) 0.68995(5)
Ni1E Ni 0.84085(11) 0.34372(9) 0.68995(5)
Ni1F Ni 0.34085(11) 0.15628(9) 0.31005(5)
O2B O 0.4740(6) 0.5058(5) 0.7862(3)
O3E O 0.1885(5) 0.1920(4) 0.8261(2)
N1F N 0.3848(6) 0.3399(7) 0.9236(3)
loop_
_geom_bond_atom_site_label_1
_geom_bond_atom_site_label_2
_geom_bond_site_symmetry_1
_geom_bond_site_symmetry_2
Ni1 O1 1_555 1_555
P1 O1 1_555 1_555
O2 P1 1_555 1_555
O3 P1 1_555 1_555
O4 Ni1 1_555 1_555
H1 O4 1_555 1_555
N1 C1 1_555 1_555
C1 H2 1_555 1_555
C2 C1 1_555 1_555
H3 C2 1_555 1_555
C3 C2 1_555 1_555
C4 C3 1_555 1_555
H4 C4 1_555 1_555
C5 N1 1_555 1_555
H5 C5 1_555 1_555
C6 P1 1_555 1_555
H6 C6 1_555 1_555
O5 Ni1 1_555 1_555
H7 O5 1_555 1_555
H8 O5 1_555 1_555
Ni1B O2 1_555 1_555
Ni1E O3 1_555 1_555
Ni1F N1 1_555 1_555
O2B Ni1 1_555 1_555
O3E Ni1 1_555 1_555
N1F Ni1 1_555 1_555
O4 C6 1_555 1_555
C3 C6 1_555 1_555
C4 C5 1_555 1_555

#END
