
#######################################################################
#
#                 Cambridge Crystallographic Data Centre
#                                CCDC 
#
#######################################################################
#
# If this CIF has been generated from an entry in the Cambridge 
# Structural Database, then it will include bibliographic, chemical, 
# crystal, experimental, refinement or atomic coordinate data resulting 
# from the CCDC's data processing and validation procedures.
#
#######################################################################

data_NAQBUD
_symmetry_cell_setting           monoclinic
_symmetry_space_group_name_H-M   'C 2/c'
_symmetry_Int_Tables_number      15
_space_group_name_Hall           '-C 2yn'
loop_
_symmetry_equiv_pos_site_id
_symmetry_equiv_pos_as_xyz
1 x,y,z
2 1/2+x,1/2+y,z
3 -x,y,1/2-z
4 1/2-x,1/2+y,1/2-z
5 -x,-y,-z
6 1/2-x,1/2-y,-z
7 x,-y,1/2+z
8 1/2+x,1/2-y,1/2+z
_cell_length_a                   23.344(6)
_cell_length_b                   5.2745(14)
_cell_length_c                   16.571(4)
_cell_angle_alpha                90
_cell_angle_beta                 121.576(4)
_cell_angle_gamma                90
_cell_volume                     1738.27
loop_
_atom_site_label
_atom_site_type_symbol
_atom_site_fract_x
_atom_site_fract_y
_atom_site_fract_z
Cd1 Cd 0.08218(3) 0.64814(11) 0.02397(4)
P1 P 0.05233(10) 1.1142(4) 0.13515(14)
O1 O 0.0852(3) 0.8601(11) 0.1447(4)
O2 O 0.0851(3) 0.3550(12) -0.0788(4)
H1 H 0.0660 0.4197 -0.1384
H2 H 0.0681 0.2022 -0.0743
O3 O -0.0227(3) 1.0936(11) 0.0960(4)
O4 O 0.0657(4) 1.3041(12) 0.0792(4)
N1 N 0.3049(3) 1.2045(14) 0.4101(5)
C1 C 0.2681(4) 1.0321(18) 0.4226(6)
H3 H 0.2900 0.9010 0.4656
C2 C 0.1986(4) 1.0421(18) 0.3740(6)
H4 H 0.1746 0.9185 0.3843
C3 C 0.1647(4) 1.2357(16) 0.3102(5)
C4 C 0.2028(4) 1.4148(17) 0.2998(6)
H5 H 0.1821 1.5515 0.2592
C5 C 0.2722(4) 1.3927(16) 0.3496(6)
H6 H 0.2971 1.5145 0.3403
C6 C 0.0887(4) 1.2425(16) 0.2552(5)
H7 H 0.0730 1.1392 0.2890
O5 O 0.0647(3) 1.4989(13) 0.2488(5)
H8 H 0.101(3) 1.569(18) 0.253(7)
Cd1D Cd -0.08218(3) 1.35186(11) -0.02397(4)
Cd1_2 Cd 0.08218(3) 1.64814(11) 0.02397(4)
Cd1C Cd 0.41782(3) 1.14814(11) 0.47603(4)
O3D O 0.0227(3) 0.9064(11) -0.0960(4)
O4_2 O 0.0657(4) 0.3041(12) 0.0792(4)
N1C N 0.1951(3) 0.7045(14) 0.0899(5)
loop_
_geom_bond_atom_site_label_1
_geom_bond_atom_site_label_2
_geom_bond_site_symmetry_1
_geom_bond_site_symmetry_2
Cd1 O1 1_555 1_555
P1 O1 1_555 1_555
O2 Cd1 1_555 1_555
H1 O2 1_555 1_555
H2 O2 1_555 1_555
O3 P1 1_555 1_555
O4 P1 1_555 1_555
N1 C1 1_555 1_555
C1 H3 1_555 1_555
C2 C1 1_555 1_555
H4 C2 1_555 1_555
C3 C2 1_555 1_555
C4 C3 1_555 1_555
H5 C4 1_555 1_555
C5 N1 1_555 1_555
H6 C5 1_555 1_555
C6 P1 1_555 1_555
H7 C6 1_555 1_555
O5 C6 1_555 1_555
H8 O5 1_555 1_555
Cd1D O3 1_555 1_555
Cd1_2 O4 1_555 1_555
Cd1C N1 1_555 1_555
O3D Cd1 1_555 1_555
O4_2 Cd1 1_555 1_555
N1C Cd1 1_555 1_555
C3 C6 1_555 1_555
C4 C5 1_555 1_555

#END
