
#######################################################################
#
#                 Cambridge Crystallographic Data Centre
#                                CCDC 
#
#######################################################################
#
# If this CIF has been generated from an entry in the Cambridge 
# Structural Database, then it will include bibliographic, chemical, 
# crystal, experimental, refinement or atomic coordinate data resulting 
# from the CCDC's data processing and validation procedures.
#
#######################################################################

data_NAQCAK
_symmetry_cell_setting           rhombohedral
_symmetry_space_group_name_H-M   'R -3'
_symmetry_Int_Tables_number      148
_space_group_name_Hall           '-R 3'
loop_
_symmetry_equiv_pos_site_id
_symmetry_equiv_pos_as_xyz
1 x,y,z
2 -y,x-y,z
3 -x+y,-x,z
4 2/3+x,1/3+y,1/3+z
5 2/3-y,1/3+x-y,1/3+z
6 2/3-x+y,1/3-x,1/3+z
7 1/3+x,2/3+y,2/3+z
8 1/3-y,2/3+x-y,2/3+z
9 1/3-x+y,2/3-x,2/3+z
10 -x,-y,-z
11 y,-x+y,-z
12 x-y,x,-z
13 1/3-x,2/3-y,2/3-z
14 1/3+y,2/3-x+y,2/3-z
15 1/3+x-y,2/3+x,2/3-z
16 2/3-x,1/3-y,1/3-z
17 2/3+y,1/3-x+y,1/3-z
18 2/3+x-y,1/3+x,1/3-z
_cell_length_a                   22.2714(16)
_cell_length_b                   22.2714(16)
_cell_length_c                   9.8838(11)
_cell_angle_alpha                90
_cell_angle_beta                 90
_cell_angle_gamma                120.00
_cell_volume                     4245.7
loop_
_atom_site_label
_atom_site_type_symbol
_atom_site_fract_x
_atom_site_fract_y
_atom_site_fract_z
Gd1 Gd 0.0000 0.0000 0.0000
Gd2 Gd 0.0000 0.0000 0.5000
P1 P -0.02670(9) 0.10377(9) 0.25873(17)
C1 C 0.1141(4) 0.3598(4) 0.2008(8)
H1 H 0.1174 0.4009 0.2313
C2 C 0.0839(4) 0.2989(4) 0.2844(7)
H2 H 0.0669 0.2998 0.3699
C3 C 0.0804(4) 0.2393(3) 0.2367(7)
C4 C 0.1082(3) 0.2422(4) 0.1072(7)
H3 H 0.1112 0.2049 0.0730
C5 C 0.1306(4) 0.3020(4) 0.0327(7)
H4 H 0.1411 0.3007 -0.0580
C6 C 0.0518(4) 0.1755(3) 0.3254(7)
H5 H 0.0868 0.1612 0.3323
N1 N 0.1378(3) 0.3561(3) 0.0763(6)
O1 O -0.0500(2) 0.0496(3) 0.3733(4)
O2 O -0.0091(2) 0.0798(2) 0.1283(4)
O3 O -0.0781(3) 0.1289(2) 0.2415(4)
H6 H -0.0852 0.1418 0.3177
O4 O 0.0407(3) 0.1944(3) 0.4568(5)
H7 H 0.0783 0.2280 0.4869
Gd2_2 Gd 0.0000 0.0000 -0.5000
P1A P -0.10377(9) -0.13047(13) 0.25873(17)
P1B P 0.13047(13) 0.02670(9) 0.25873(17)
P1I P 0.02670(9) -0.10377(9) -0.25873(17)
P1J P 0.10377(9) 0.13047(13) -0.25873(17)
P1K P -0.13047(13) -0.02670(9) -0.25873(17)
C1A C -0.3598(4) -0.2457(6) 0.2008(8)
C1B C 0.2457(6) -0.1141(4) 0.2008(8)
C1I C -0.1141(4) -0.3598(4) -0.2008(8)
C1J C 0.3598(4) 0.2457(6) -0.2008(8)
C1K C -0.2457(6) 0.1141(4) -0.2008(8)
H1A H -0.4009 -0.2835 0.2313
H1B H 0.2835 -0.1174 0.2313
H1I H -0.1174 -0.4009 -0.2313
H1J H 0.4009 0.2835 -0.2313
H1K H -0.2835 0.1174 -0.2313
C2A C -0.2989(4) -0.2150(6) 0.2844(7)
C2B C 0.2150(6) -0.0839(4) 0.2844(7)
C2I C -0.0839(4) -0.2989(4) -0.2844(7)
C2J C 0.2989(4) 0.2150(6) -0.2844(7)
C2K C -0.2150(6) 0.0839(4) -0.2844(7)
H2A H -0.2998 -0.2329 0.3699
H2B H 0.2329 -0.0669 0.3699
H2I H -0.0669 -0.2998 -0.3699
H2J H 0.2998 0.2329 -0.3699
H2K H -0.2329 0.0669 -0.3699
C3A C -0.2393(3) -0.1589(5) 0.2367(7)
C3B C 0.1589(5) -0.0804(4) 0.2367(7)
C3I C -0.0804(4) -0.2393(3) -0.2367(7)
C3J C 0.2393(3) 0.1589(5) -0.2367(7)
C3K C -0.1589(5) 0.0804(4) -0.2367(7)
C4A C -0.2422(4) -0.1340(5) 0.1072(7)
C4B C 0.1340(5) -0.1082(3) 0.1072(7)
C4I C -0.1082(3) -0.2422(4) -0.1072(7)
C4J C 0.2422(4) 0.1340(5) -0.1072(7)
C4K C -0.1340(5) 0.1082(3) -0.1072(7)
H3A H -0.2049 -0.0937 0.0730
H3B H 0.0937 -0.1112 0.0730
H3I H -0.1112 -0.2049 -0.0730
H3J H 0.2049 0.0937 -0.0730
H3K H -0.0937 0.1112 -0.0730
C5A C -0.3020(4) -0.1714(6) 0.0327(7)
C5B C 0.1714(6) -0.1306(4) 0.0327(7)
C5I C -0.1306(4) -0.3020(4) -0.0327(7)
C5J C 0.3020(4) 0.1714(6) -0.0327(7)
C5K C -0.1714(6) 0.1306(4) -0.0327(7)
H4A H -0.3007 -0.1596 -0.0580
H4B H 0.1596 -0.1411 -0.0580
H4I H -0.1411 -0.3007 0.0580
H4J H 0.3007 0.1596 0.0580
H4K H -0.1596 0.1411 0.0580
C6A C -0.1755(3) -0.1237(5) 0.3254(7)
C6B C 0.1237(5) -0.0518(4) 0.3254(7)
C6I C -0.0518(4) -0.1755(3) -0.3254(7)
C6J C 0.1755(3) 0.1237(5) -0.3254(7)
C6K C -0.1237(5) 0.0518(4) -0.3254(7)
H5A H -0.1612 -0.0744 0.3323
H5B H 0.0744 -0.0868 0.3323
H5I H -0.0868 -0.1612 -0.3323
H5J H 0.1612 0.0744 -0.3323
H5K H -0.0744 0.0868 -0.3323
N1A N -0.3561(3) -0.2183(4) 0.0763(6)
N1B N 0.2183(4) -0.1378(3) 0.0763(6)
N1I N -0.1378(3) -0.3561(3) -0.0763(6)
N1J N 0.3561(3) 0.2183(4) -0.0763(6)
N1K N -0.2183(4) 0.1378(3) -0.0763(6)
O1A O -0.0496(3) -0.0996(4) 0.3733(4)
O1B O 0.0996(4) 0.0500(2) 0.3733(4)
O1I O 0.0500(2) -0.0496(3) -0.3733(4)
O1J O 0.0496(3) 0.0996(4) -0.3733(4)
O1K O -0.0996(4) -0.0500(2) -0.3733(4)
O1I_2 O 0.0500(2) -0.0496(3) 0.6267(4)
O1J_2 O 0.0496(3) 0.0996(4) 0.6267(4)
O1K_2 O -0.0996(4) -0.0500(2) 0.6267(4)
O2A O -0.0798(2) -0.0889(3) 0.1283(4)
O2B O 0.0889(3) 0.0091(2) 0.1283(4)
O2I O 0.0091(2) -0.0798(2) -0.1283(4)
O2J O 0.0798(2) 0.0889(3) -0.1283(4)
O2K O -0.0889(3) -0.0091(2) -0.1283(4)
O3A O -0.1289(2) -0.2070(4) 0.2415(4)
O3B O 0.2070(4) 0.0781(3) 0.2415(4)
O3I O 0.0781(3) -0.1289(2) -0.2415(4)
O3J O 0.1289(2) 0.2070(4) -0.2415(4)
O3K O -0.2070(4) -0.0781(3) -0.2415(4)
H6A H -0.1418 -0.2270 0.3177
H6B H 0.2270 0.0852 0.3177
H6I H 0.0852 -0.1418 -0.3177
H6J H 0.1418 0.2270 -0.3177
H6K H -0.2270 -0.0852 -0.3177
O4A O -0.1944(3) -0.1537(4) 0.4568(5)
O4B O 0.1537(4) -0.0407(3) 0.4568(5)
O4I O -0.0407(3) -0.1944(3) -0.4568(5)
O4J O 0.1944(3) 0.1537(4) -0.4568(5)
O4K O -0.1537(4) 0.0407(3) -0.4568(5)
H7A H -0.2280 -0.1497 0.4869
H7B H 0.1497 -0.0783 0.4869
H7I H -0.0783 -0.2280 -0.4869
H7J H 0.2280 0.1497 -0.4869
H7K H -0.1497 0.0783 -0.4869
O5 O 0.8886(2) 0.3104(3) 0.1050(4)
H8 H 0.8517 0.2893 0.0582
H9 H 0.8745 0.3201 0.1773
O6 O 0.9751(3) 0.2566(3) 0.0360(5)
H10 H 0.9496 0.2731 0.0593
H11 H 1.0156 0.2816 0.0685
loop_
_geom_bond_atom_site_label_1
_geom_bond_atom_site_label_2
_geom_bond_site_symmetry_1
_geom_bond_site_symmetry_2
Gd1 O2 1_555 1_555
Gd2 O1 1_555 1_555
P1 C6 1_555 1_555
C1 H1 1_555 1_555
C2 C1 1_555 1_555
H2 C2 1_555 1_555
C3 C2 1_555 1_555
C4 C3 1_555 1_555
H3 C4 1_555 1_555
C5 C4 1_555 1_555
H4 C5 1_555 1_555
C6 C3 1_555 1_555
H5 C6 1_555 1_555
N1 C1 1_555 1_555
O1 P1 1_555 1_555
O2 P1 1_555 1_555
O3 P1 1_555 1_555
H6 O3 1_555 1_555
O4 C6 1_555 1_555
H7 O4 1_555 1_555
O5 H8 1_555 1_555
H9 O5 1_555 1_555
O6 H10 1_555 1_555
H11 O6 1_555 1_555
Gd2_2 O1I 1_555 1_555
P1A C6A 1_555 1_555
P1B C6B 1_555 1_555
P1I C6I 1_555 1_555
P1J C6J 1_555 1_555
P1K C6K 1_555 1_555
C1A H1A 1_555 1_555
C1B H1B 1_555 1_555
C1I H1I 1_555 1_555
C1J H1J 1_555 1_555
C1K H1K 1_555 1_555
C2A C1A 1_555 1_555
C2B C1B 1_555 1_555
C2I C1I 1_555 1_555
C2J C1J 1_555 1_555
C2K C1K 1_555 1_555
H2A C2A 1_555 1_555
H2B C2B 1_555 1_555
H2I C2I 1_555 1_555
H2J C2J 1_555 1_555
H2K C2K 1_555 1_555
C3A C2A 1_555 1_555
C3B C2B 1_555 1_555
C3I C2I 1_555 1_555
C3J C2J 1_555 1_555
C3K C2K 1_555 1_555
C4A C3A 1_555 1_555
C4B C3B 1_555 1_555
C4I C3I 1_555 1_555
C4J C3J 1_555 1_555
C4K C3K 1_555 1_555
H3A C4A 1_555 1_555
H3B C4B 1_555 1_555
H3I C4I 1_555 1_555
H3J C4J 1_555 1_555
H3K C4K 1_555 1_555
C5A C4A 1_555 1_555
C5B C4B 1_555 1_555
C5I C4I 1_555 1_555
C5J C4J 1_555 1_555
C5K C4K 1_555 1_555
H4A C5A 1_555 1_555
H4B C5B 1_555 1_555
H4I C5I 1_555 1_555
H4J C5J 1_555 1_555
H4K C5K 1_555 1_555
C6A C3A 1_555 1_555
C6B C3B 1_555 1_555
C6I C3I 1_555 1_555
C6J C3J 1_555 1_555
C6K C3K 1_555 1_555
H5A C6A 1_555 1_555
H5B C6B 1_555 1_555
H5I C6I 1_555 1_555
H5J C6J 1_555 1_555
H5K C6K 1_555 1_555
N1A C1A 1_555 1_555
N1B C1B 1_555 1_555
N1I C1I 1_555 1_555
N1J C1J 1_555 1_555
N1K C1K 1_555 1_555
O1A Gd2 1_555 1_555
O1B Gd2 1_555 1_555
O1I P1I 1_555 1_555
O1J Gd2_2 1_555 1_555
O1K Gd2_2 1_555 1_555
O1I_2 Gd2 1_555 1_555
O1J_2 Gd2 1_555 1_555
O1K_2 Gd2 1_555 1_555
O2A Gd1 1_555 1_555
O2B Gd1 1_555 1_555
O2I Gd1 1_555 1_555
O2J Gd1 1_555 1_555
O2K Gd1 1_555 1_555
O3A P1A 1_555 1_555
O3B P1B 1_555 1_555
O3I P1I 1_555 1_555
O3J P1J 1_555 1_555
O3K P1K 1_555 1_555
H6A O3A 1_555 1_555
H6B O3B 1_555 1_555
H6I O3I 1_555 1_555
H6J O3J 1_555 1_555
H6K O3K 1_555 1_555
O4A C6A 1_555 1_555
O4B C6B 1_555 1_555
O4I C6I 1_555 1_555
O4J C6J 1_555 1_555
O4K C6K 1_555 1_555
H7A O4A 1_555 1_555
H7B O4B 1_555 1_555
H7I O4I 1_555 1_555
H7J O4J 1_555 1_555
H7K O4K 1_555 1_555
C5 N1 1_555 1_555
P1A O1A 1_555 1_555
P1A O2A 1_555 1_555
P1B O1B 1_555 1_555
P1B O2B 1_555 1_555
P1I O2I 1_555 1_555
P1J O1J 1_555 1_555
P1J O2J 1_555 1_555
P1K O1K 1_555 1_555
P1K O2K 1_555 1_555
C5A N1A 1_555 1_555
C5B N1B 1_555 1_555
C5I N1I 1_555 1_555
C5J N1J 1_555 1_555
C5K N1K 1_555 1_555

#END
