
#######################################################################
#
#                 Cambridge Crystallographic Data Centre
#                                CCDC 
#
#######################################################################
#
# If this CIF has been generated from an entry in the Cambridge 
# Structural Database, then it will include bibliographic, chemical, 
# crystal, experimental, refinement or atomic coordinate data resulting 
# from the CCDC's data processing and validation procedures.
#
#######################################################################

data_NAQFER
_symmetry_cell_setting           triclinic
_symmetry_space_group_name_H-M   'P -1'
_symmetry_Int_Tables_number      2
_space_group_name_Hall           '-P 1'
loop_
_symmetry_equiv_pos_site_id
_symmetry_equiv_pos_as_xyz
1 x,y,z
2 -x,-y,-z
_cell_length_a                   9.1166(5)
_cell_length_b                   10.0836(5)
_cell_length_c                   12.1438(8)
_cell_angle_alpha                79.391(3)
_cell_angle_beta                 87.550(3)
_cell_angle_gamma                78.848(2)
_cell_volume                     1076.53
loop_
_atom_site_label
_atom_site_type_symbol
_atom_site_fract_x
_atom_site_fract_y
_atom_site_fract_z
U1 U 0.33865(3) 0.07267(2) 0.303595(18)
Ag1 Ag 0.59942(9) -0.20230(10) 0.15390(8)
O1 O 0.2620(7) 0.3243(5) 0.2274(4)
O2 O 0.2435(7) 0.1789(5) 0.1190(5)
O3 O 0.4080(6) 0.1840(5) 0.4381(5)
O4 O 0.5843(7) 0.1263(5) 0.5667(5)
O5 O 0.2991(6) -0.0988(5) 0.2075(4)
O6 O 0.3997(7) -0.1352(8) 0.0427(6)
O7 O 0.5220(6) 0.0625(6) 0.2483(6)
O8 O 0.1553(6) 0.0835(6) 0.3604(5)
N1 N 0.6855(9) -0.4407(9) 0.1838(7)
N2 N 0.7734(7) -0.2581(7) 0.2945(6)
C1 C 0.6205(14) -0.5311(13) 0.1422(10)
H1 H 0.5422 -0.4975 0.0918
C2 C 0.6668(16) -0.6711(14) 0.1722(12)
H2 H 0.6209 -0.7305 0.1415
C3 C 0.7732(17) -0.7197(14) 0.2426(12)
H3 H 0.8042 -0.8143 0.2627
C4 C 0.8446(14) -0.6295(11) 0.2904(10)
H4 H 0.9212 -0.6634 0.3420
C5 C 0.7952(10) -0.4900(9) 0.2569(7)
C6 C 0.8563(8) -0.3862(9) 0.3032(7)
C7 C 0.9943(10) -0.4186(11) 0.3582(8)
H5 H 1.0534 -0.5055 0.3619
C8 C 1.0414(10) -0.3222(13) 0.4062(8)
H6 H 1.1329 -0.3431 0.4426
C9 C 0.9547(11) -0.1960(12) 0.4007(8)
H7 H 0.9840 -0.1300 0.4347
C10 C 0.8217(10) -0.1678(9) 0.3433(8)
H8 H 0.7628 -0.0807 0.3386
C11 C 0.1032(8) 0.4046(6) 0.0670(5)
C12 C 0.0169(8) 0.3612(6) -0.0056(6)
H9 H 0.0289 0.2684 -0.0093
C13 C 0.0882(8) 0.5425(7) 0.0731(6)
H10 H 0.1473 0.5705 0.1216
C14 C 0.2108(9) 0.2977(7) 0.1401(6)
C15 C 0.4971(7) 0.3625(6) 0.5014(5)
C16 C 0.5650(7) 0.4000(6) 0.5882(5)
H11 H 0.6084 0.3332 0.6471
C17 C 0.4320(8) 0.4620(6) 0.4132(5)
H12 H 0.3866 0.4365 0.3552
C18 C 0.4964(8) 0.2142(6) 0.5011(5)
C19 C 0.1392(8) -0.0486(7) 0.0485(6)
C20 C 0.0119(9) -0.0270(8) 0.1156(6)
H13 H 0.0203 -0.0443 0.1933
C21 C 0.1263(8) -0.0199(8) -0.0665(6)
H14 H 0.2114 -0.0324 -0.1112
C22 C 0.2899(8) -0.0973(7) 0.1030(6)
U1A U -0.33865(3) 0.92733(2) -0.303595(18)
U1A_2 U 0.66135(3) -0.07267(2) 0.696405(18)
U1A_3 U 0.66135(3) 0.92733(2) 0.696405(18)
U1_2 U 0.33865(3) 1.07267(2) 0.303595(18)
U1A_4 U -0.33865(3) -0.07267(2) -0.303595(18)
Ag1A Ag -0.59942(9) 0.20230(10) -0.15390(8)
O1A O -0.2620(7) 0.6757(5) -0.2274(4)
O2A O -0.2435(7) 0.8211(5) -0.1190(5)
O3A O 0.5920(6) 0.8160(5) 0.5619(5)
O3A_2 O -0.4080(6) 0.8160(5) -0.4381(5)
O4A O 0.4157(7) 0.8737(5) 0.4333(5)
O4A_2 O 0.4157(7) -0.1263(5) 0.4333(5)
O4_2 O -0.4157(7) 1.1263(5) -0.4333(5)
O5A O -0.2991(6) 0.0988(5) -0.2075(4)
O5A_2 O -0.2991(6) 1.0988(5) -0.2075(4)
O6A O -0.3997(7) 0.1352(8) -0.0427(6)
O7A O -0.5220(6) 0.9375(6) -0.2483(6)
O8A O -0.1553(6) 0.9165(6) -0.3604(5)
N1A N -0.6855(9) 0.4407(9) -0.1838(7)
N2A N -0.7734(7) 0.2581(7) -0.2945(6)
C1A C -0.6205(14) 0.5311(13) -0.1422(10)
H1A H -0.5422 0.4975 -0.0918
C2A C -0.6668(16) 0.6711(14) -0.1722(12)
H2A H -0.6209 0.7305 -0.1415
C3A C -0.7732(17) 0.7197(14) -0.2426(12)
H3A H -0.8042 0.8143 -0.2627
C4A C -0.8446(14) 0.6295(11) -0.2904(10)
H4A H -0.9212 0.6634 -0.3420
C5A C -0.7952(10) 0.4900(9) -0.2569(7)
C6A C -0.8563(8) 0.3862(9) -0.3032(7)
C7A C -0.9943(10) 0.4186(11) -0.3582(8)
H5A H -1.0534 0.5055 -0.3619
C8A C -1.0414(10) 0.3222(13) -0.4062(8)
H6A H -1.1329 0.3431 -0.4426
C9A C -0.9547(11) 0.1960(12) -0.4007(8)
H7A H -0.9840 0.1300 -0.4347
C10A C -0.8217(10) 0.1678(9) -0.3433(8)
H8A H -0.7628 0.0807 -0.3386
C11A C -0.1032(8) 0.5954(6) -0.0670(5)
C12A C -0.0169(8) 0.6388(6) 0.0056(6)
H9A H -0.0289 0.7316 0.0093
C13A C -0.0882(8) 0.4575(7) -0.0731(6)
H10A H -0.1473 0.4295 -0.1216
C14A C -0.2108(9) 0.7023(7) -0.1401(6)
C15A C 0.5029(7) 0.6375(6) 0.4986(5)
C16A C 0.4350(7) 0.6000(6) 0.4118(5)
H11A H 0.3916 0.6668 0.3529
C17A C 0.5680(8) 0.5380(6) 0.5868(5)
H12A H 0.6134 0.5635 0.6448
C18A C 0.5036(8) 0.7858(6) 0.4989(5)
C19A C -0.1392(8) 0.0486(7) -0.0485(6)
C20A C -0.0119(9) 0.0270(8) -0.1156(6)
H13A H -0.0203 0.0443 -0.1933
C21A C -0.1263(8) 0.0199(8) 0.0665(6)
H14A H -0.2114 0.0324 0.1112
C22A C -0.2899(8) 0.0973(7) -0.1030(6)
loop_
_geom_bond_atom_site_label_1
_geom_bond_atom_site_label_2
_geom_bond_site_symmetry_1
_geom_bond_site_symmetry_2
U1 O1 1_555 1_555
Ag1 O6 1_555 1_555
O1 C14 1_555 1_555
O2 U1 1_555 1_555
O3 U1 1_555 1_555
O4 C18 1_555 1_555
O5 U1 1_555 1_555
O6 C22 1_555 1_555
O7 U1 1_555 1_555
O8 U1 1_555 1_555
N1 Ag1 1_555 1_555
N2 Ag1 1_555 1_555
C1 N1 1_555 1_555
H1 C1 1_555 1_555
C2 C1 1_555 1_555
H2 C2 1_555 1_555
C3 C2 1_555 1_555
H3 C3 1_555 1_555
C4 C3 1_555 1_555
H4 C4 1_555 1_555
C5 N1 1_555 1_555
C6 N2 1_555 1_555
C7 C6 1_555 1_555
H5 C7 1_555 1_555
C8 C7 1_555 1_555
H6 C8 1_555 1_555
C9 C8 1_555 1_555
H7 C9 1_555 1_555
C10 N2 1_555 1_555
H8 C10 1_555 1_555
C11 C12 1_555 1_555
C12 H9 1_555 1_555
C13 C11 1_555 1_555
H10 C13 1_555 1_555
C14 O2 1_555 1_555
C15 C16 1_555 1_555
C16 H11 1_555 1_555
C17 C15 1_555 1_555
H12 C17 1_555 1_555
C18 O3 1_555 1_555
C19 C20 1_555 1_555
C20 H13 1_555 1_555
C21 C19 1_555 1_555
H14 C21 1_555 1_555
C22 O5 1_555 1_555
U1A O1A 1_555 1_555
U1A_2 O4 1_555 1_555
U1A_3 O3A 1_555 1_555
U1_2 O4A 1_555 1_555
U1A_4 O5A 1_555 1_555
Ag1A O6A 1_555 1_555
O1A C14A 1_555 1_555
O2A U1A 1_555 1_555
O3A C18A 1_555 1_555
O3A_2 U1A 1_555 1_555
O4A C18A 1_555 1_555
O4A_2 U1 1_555 1_555
O4_2 U1A 1_555 1_555
O5A C22A 1_555 1_555
O5A_2 U1A 1_555 1_555
O6A C22A 1_555 1_555
O7A U1A 1_555 1_555
O8A U1A 1_555 1_555
N1A Ag1A 1_555 1_555
N2A Ag1A 1_555 1_555
C1A N1A 1_555 1_555
H1A C1A 1_555 1_555
C2A C1A 1_555 1_555
H2A C2A 1_555 1_555
C3A C2A 1_555 1_555
H3A C3A 1_555 1_555
C4A C3A 1_555 1_555
H4A C4A 1_555 1_555
C5A N1A 1_555 1_555
C6A N2A 1_555 1_555
C7A C6A 1_555 1_555
H5A C7A 1_555 1_555
C8A C7A 1_555 1_555
H6A C8A 1_555 1_555
C9A C8A 1_555 1_555
H7A C9A 1_555 1_555
C10A N2A 1_555 1_555
H8A C10A 1_555 1_555
C11A C12A 1_555 1_555
C12A C13 1_555 1_555
H9A C12A 1_555 1_555
C13A C12 1_555 1_555
H10A C13A 1_555 1_555
C14A O2A 1_555 1_555
C15A C16A 1_555 1_555
C16A C17 1_555 1_555
H11A C16A 1_555 1_555
C17A C16 1_555 1_555
H12A C17A 1_555 1_555
C18A C15A 1_555 1_555
C19A C20A 1_555 1_555
C20A C21 1_555 1_555
H13A C20A 1_555 1_555
C21A C20 1_555 1_555
H14A C21A 1_555 1_555
C22A C19A 1_555 1_555
C4 C5 1_555 1_555
C5 C6 1_555 1_555
C9 C10 1_555 1_555
C11 C14 1_555 1_555
C15 C18 1_555 1_555
C19 C22 1_555 1_555
C4A C5A 1_555 1_555
C5A C6A 1_555 1_555
C9A C10A 1_555 1_555
C11A C13A 1_555 1_555
C11A C14A 1_555 1_555
C15A C17A 1_555 1_555
C19A C21A 1_555 1_555

#END
