
#######################################################################
#
#                 Cambridge Crystallographic Data Centre
#                                CCDC 
#
#######################################################################
#
# If this CIF has been generated from an entry in the Cambridge 
# Structural Database, then it will include bibliographic, chemical, 
# crystal, experimental, refinement or atomic coordinate data resulting 
# from the CCDC's data processing and validation procedures.
#
#######################################################################

data_NAQFIV
_symmetry_cell_setting           monoclinic
_symmetry_space_group_name_H-M   'C 2/c'
_symmetry_Int_Tables_number      15
_space_group_name_Hall           '-C 2yn'
loop_
_symmetry_equiv_pos_site_id
_symmetry_equiv_pos_as_xyz
1 x,y,z
2 1/2+x,1/2+y,z
3 -x,y,1/2-z
4 1/2-x,1/2+y,1/2-z
5 -x,-y,-z
6 1/2-x,1/2-y,-z
7 x,-y,1/2+z
8 1/2+x,1/2-y,1/2+z
_cell_length_a                   22.6428(6)
_cell_length_b                   7.3174(2)
_cell_length_c                   18.4324(6)
_cell_angle_alpha                90
_cell_angle_beta                 107.011(2)
_cell_angle_gamma                90
_cell_volume                     2920.38
loop_
_atom_site_label
_atom_site_type_symbol
_atom_site_fract_x
_atom_site_fract_y
_atom_site_fract_z
U1 U 0.0000 0.48278(2) 0.2500
Ag1 Ag -0.105071(15) 0.89261(6) 0.16124(2)
O1 O -0.00996(12) 0.7479(3) 0.17028(14)
O2 O 0.08046(14) 0.8945(5) 0.19631(16)
O3 O -0.01917(17) 1.1876(4) 0.17569(16)
O4 O 0.01000(14) 1.4149(3) 0.11763(15)
O5 O -0.08171(13) 0.4843(4) 0.22403(16)
N1 N -0.17738(16) 0.9786(5) 0.0446(2)
N2 N -0.20589(16) 0.8239(5) 0.16605(19)
C1 C -0.1648(2) 1.0418(6) -0.0164(3)
H1 H -0.1236 1.0533 -0.0149
C2 C -0.2097(2) 1.0922(6) -0.0827(3)
H2 H -0.1983 1.1335 -0.1244
C3 C -0.2708(2) 1.0804(6) -0.0860(3)
H3 H -0.3014 1.1152 -0.1296
C4 C -0.2868(2) 1.0144(5) -0.0219(3)
C5 C -0.23784(18) 0.9618(5) 0.0423(2)
C6 C -0.25289(18) 0.8852(5) 0.1074(2)
C7 C -0.31563(19) 0.8731(6) 0.1063(3)
C8 C -0.3275(2) 0.7926(7) 0.1704(3)
H4 H -0.3677 0.7859 0.1735
C9 C -0.2798(3) 0.7247(7) 0.2279(3)
H5 H -0.2874 0.6662 0.2690
C10 C -0.2192(2) 0.7441(6) 0.2241(3)
H6 H -0.1870 0.6993 0.2639
C11 C -0.3495(2) 0.9986(6) -0.0204(3)
H7 H -0.3814 1.0333 -0.0627
C12 C -0.3629(2) 0.9345(7) 0.0412(3)
H8 H -0.4039 0.9299 0.0415
C13 C 0.01108(15) 0.9324(4) 0.07437(18)
C14 C 0.00069(16) 1.1198(4) 0.05897(18)
C15 C 0.00930(15) 0.8144(4) 0.01462(18)
H9 H 0.0149 0.6898 0.0239
C16 C 0.02943(16) 0.8566(5) 0.15399(19)
C17 C -0.00264(17) 1.2479(5) 0.1206(2)
U1_2 U 0.0000 1.48278(2) 0.2500
U1F U 0.0000 0.51722(2) -0.2500
U1F_2 U 0.0000 1.51722(2) -0.2500
Ag1D Ag 0.105071(15) 1.10739(6) -0.16124(2)
Ag1B Ag 0.105071(15) 0.89261(6) 0.33876(2)
Ag1F Ag -0.105071(15) 1.10739(6) -0.33876(2)
O1D O 0.00996(12) 1.2521(3) -0.17028(14)
O1B O 0.00996(12) 0.7479(3) 0.32972(14)
O2D O -0.08046(14) 1.1055(5) -0.19631(16)
O2B O -0.08046(14) 0.8945(5) 0.30369(16)
O2F O 0.08046(14) 1.1055(5) -0.30369(16)
O3D O 0.01917(17) 0.8124(4) -0.17569(16)
O3_2 O -0.01917(17) 0.1876(4) 0.17569(16)
O3B O 0.01917(17) 0.1876(4) 0.32431(16)
O4D O -0.01000(14) 0.5851(3) -0.11763(15)
O4_2 O 0.01000(14) 0.4149(3) 0.11763(15)
O4B O -0.01000(14) 0.4149(3) 0.38237(15)
O5B O 0.08171(13) 0.4843(4) 0.27597(16)
N1D N 0.17738(16) 1.0214(5) -0.0446(2)
N2D N 0.20589(16) 1.1761(5) -0.16605(19)
C1D C 0.1648(2) 0.9582(6) 0.0164(3)
H1D H 0.1236 0.9467 0.0149
C2D C 0.2097(2) 0.9078(6) 0.0827(3)
H2D H 0.1983 0.8665 0.1244
C3D C 0.2708(2) 0.9196(6) 0.0860(3)
H3D H 0.3014 0.8848 0.1296
C4D C 0.2868(2) 0.9856(5) 0.0219(3)
C5D C 0.23784(18) 1.0382(5) -0.0423(2)
C6D C 0.25289(18) 1.1148(5) -0.1074(2)
C7D C 0.31563(19) 1.1269(6) -0.1063(3)
C8D C 0.3275(2) 1.2074(7) -0.1704(3)
H4D H 0.3677 1.2141 -0.1735
C9D C 0.2798(3) 1.2753(7) -0.2279(3)
H5D H 0.2874 1.3338 -0.2690
C10D C 0.2192(2) 1.2559(6) -0.2241(3)
H6D H 0.1870 1.3007 -0.2639
C11D C 0.3495(2) 1.0014(6) 0.0204(3)
H7D H 0.3814 0.9667 0.0627
C12D C 0.3629(2) 1.0655(7) -0.0412(3)
H8D H 0.4039 1.0701 -0.0415
C13D C -0.01108(15) 1.0676(4) -0.07437(18)
C14D C -0.00069(16) 0.8802(4) -0.05897(18)
C15D C -0.00930(15) 1.1856(4) -0.01462(18)
H9D H -0.0149 1.3102 -0.0239
C16D C -0.02943(16) 1.1434(5) -0.15399(19)
C17D C 0.00264(17) 0.7521(5) -0.1206(2)
loop_
_geom_bond_atom_site_label_1
_geom_bond_atom_site_label_2
_geom_bond_site_symmetry_1
_geom_bond_site_symmetry_2
U1 O1 1_555 1_555
Ag1 O1 1_555 1_555
O1 C16 1_555 1_555
O2 C16 1_555 1_555
O3 C17 1_555 1_555
O4 C17 1_555 1_555
O5 U1 1_555 1_555
N1 Ag1 1_555 1_555
N2 Ag1 1_555 1_555
C1 N1 1_555 1_555
H1 C1 1_555 1_555
C2 C1 1_555 1_555
H2 C2 1_555 1_555
C3 C2 1_555 1_555
H3 C3 1_555 1_555
C4 C3 1_555 1_555
C5 N1 1_555 1_555
C6 N2 1_555 1_555
C7 C6 1_555 1_555
C8 C7 1_555 1_555
H4 C8 1_555 1_555
C9 C8 1_555 1_555
H5 C9 1_555 1_555
C10 N2 1_555 1_555
H6 C10 1_555 1_555
C11 C4 1_555 1_555
H7 C11 1_555 1_555
C12 C7 1_555 1_555
H8 C12 1_555 1_555
C13 C14 1_555 1_555
C14 C17 1_555 1_555
C15 C13 1_555 1_555
H9 C15 1_555 1_555
C16 C13 1_555 1_555
U1_2 O3 1_555 1_555
U1F O3D 1_555 1_555
U1F_2 O1D 1_555 1_555
Ag1D O1D 1_555 1_555
Ag1B O2 1_555 1_555
Ag1F O2D 1_555 1_555
O1D C16D 1_555 1_555
O1B U1 1_555 1_555
O2D C16D 1_555 1_555
O2B Ag1 1_555 1_555
O2F Ag1D 1_555 1_555
O3D C17D 1_555 1_555
O3_2 U1 1_555 1_555
O3B U1 1_555 1_555
O4D U1F 1_555 1_555
O4_2 U1 1_555 1_555
O4B U1 1_555 1_555
O5B U1 1_555 1_555
N1D Ag1D 1_555 1_555
N2D Ag1D 1_555 1_555
C1D N1D 1_555 1_555
H1D C1D 1_555 1_555
C2D C1D 1_555 1_555
H2D C2D 1_555 1_555
C3D C2D 1_555 1_555
H3D C3D 1_555 1_555
C4D C3D 1_555 1_555
C5D N1D 1_555 1_555
C6D N2D 1_555 1_555
C7D C6D 1_555 1_555
C8D C7D 1_555 1_555
H4D C8D 1_555 1_555
C9D C8D 1_555 1_555
H5D C9D 1_555 1_555
C10D N2D 1_555 1_555
H6D C10D 1_555 1_555
C11D C4D 1_555 1_555
H7D C11D 1_555 1_555
C12D C7D 1_555 1_555
H8D C12D 1_555 1_555
C13D C14D 1_555 1_555
C14D C15 1_555 1_555
C15D C14 1_555 1_555
H9D C15D 1_555 1_555
C16D C13D 1_555 1_555
C17D O4D 1_555 1_555
O4 U1_2 1_555 1_555
C4 C5 1_555 1_555
C5 C6 1_555 1_555
C9 C10 1_555 1_555
C11 C12 1_555 1_555
Ag1B O1B 1_555 1_555
C4D C5D 1_555 1_555
C5D C6D 1_555 1_555
C9D C10D 1_555 1_555
C11D C12D 1_555 1_555
C13D C15D 1_555 1_555
C14D C17D 1_555 1_555

#END
