
#######################################################################
#
#                 Cambridge Crystallographic Data Centre
#                                CCDC 
#
#######################################################################
#
# If this CIF has been generated from an entry in the Cambridge 
# Structural Database, then it will include bibliographic, chemical, 
# crystal, experimental, refinement or atomic coordinate data resulting 
# from the CCDC's data processing and validation procedures.
#
#######################################################################

data_NAQLAT
_symmetry_cell_setting           monoclinic
_symmetry_space_group_name_H-M   'P 21/n'
_symmetry_Int_Tables_number      14
_space_group_name_Hall           '-P 2yn'
loop_
_symmetry_equiv_pos_site_id
_symmetry_equiv_pos_as_xyz
1 x,y,z
2 1/2-x,1/2+y,1/2-z
3 -x,-y,-z
4 1/2+x,1/2-y,1/2+z
_cell_length_a                   14.5949(14)
_cell_length_b                   12.5583(12)
_cell_length_c                   25.741(3)
_cell_angle_alpha                90
_cell_angle_beta                 100.093(2)
_cell_angle_gamma                90
_cell_volume                     4644.98
loop_
_atom_site_label
_atom_site_type_symbol
_atom_site_fract_x
_atom_site_fract_y
_atom_site_fract_z
O14 O 0.1848(3) 0.8858(3) 0.65097(15)
H22 H 0.1443 0.9226 0.6317
C38 C 0.1455(5) 0.7871(5) 0.6623(3)
H28 H 0.1953 0.7370 0.6760
H29 H 0.1082 0.7582 0.6300
H30 H 0.1056 0.7979 0.6888
O15 O 0.3441(3) 0.9092(4) 0.19902(16)
H23 H 0.3245 0.9575 0.1773
C39 C 0.4324(5) 0.8750(6) 0.1908(3)
H31 H 0.4739 0.9367 0.1917
H32 H 0.4264 0.8400 0.1563
H33 H 0.4584 0.8247 0.2186
O16 O 0.1424(4) 0.4159(4) 0.19700(16)
H24 H 0.1557 0.4130 0.2301
C37 C 0.1953(5) 0.3378(5) 0.1746(3)
H25 H 0.2551 0.3685 0.1701
H26 H 0.1607 0.3153 0.1403
H27 H 0.2062 0.2761 0.1982
O17 O 0.0299(10) 1.3919(9) 0.5049(4)
H37 H -0.0043 1.3415 0.5112
C41 C 0.0428(16) 1.3858(14) 0.4568(5)
H38 H -0.0171 1.3923 0.4329
H39 H 0.0712 1.3170 0.4511
H40 H 0.0842 1.4434 0.4497
Cl1 Cl 0.3313(4) 0.0021(5) 0.4605(3)
C43 C 0.4468(6) 0.0006(9) 0.4897(4)
C44 C 0.4924(8) 0.0976(7) 0.4997(4)
H45 H 0.4605 0.1621 0.4892
C45 C 0.4153(8) -0.1001(7) 0.4750(4)
H46 H 0.3842 -0.1664 0.4682
C46 C 0.3686(6) -0.0057(9) 0.4596(4)
H47 H 0.3056 -0.0075 0.4423
C47 C 0.4142(7) 0.0913(7) 0.4696(4)
H48 H 0.3823 0.1558 0.4591
C48 C 0.4935(7) -0.0938(7) 0.5051(4)
H49 H 0.5377 0.1601 0.5017
Cl1B Cl 0.6687(4) -0.0021(5) 0.5395(3)
C43B C 0.5532(6) -0.0006(9) 0.5103(4)
C44B C 0.5076(8) -0.0976(7) 0.5003(4)
H45B H 0.5395 -0.1621 0.5108
C45B C 0.5847(8) 0.1001(7) 0.5250(4)
H46B H 0.6158 0.1664 0.5318
C46B C 0.6314(6) 0.0057(9) 0.5404(4)
H47B H 0.6944 0.0075 0.5577
C47B C 0.5858(7) -0.0913(7) 0.5304(4)
H48B H 0.6177 -0.1558 0.5409
C48B C 0.5065(7) 0.0938(7) 0.4949(4)
H49B H 0.4623 -0.1601 0.4983
Zn1 Zn 0.11656(4) 0.89521(4) 0.123404(19)
Zn2 Zn -0.01732(4) 1.27861(4) -0.19449(2)
Zn3 Zn 0.06995(4) 1.07522(4) 0.529836(19)
O1 O 0.0810(2) 1.2467(3) -0.13359(12)
O2 O 0.3446(2) 1.2095(3) 0.29325(12)
O3 O 0.1606(2) 0.9867(3) 0.07367(12)
O4 O 0.1250(2) 0.9682(3) 0.19009(12)
O5 O 0.0244(2) 0.8726(3) 0.22802(12)
O6 O 0.0845(3) 1.0904(3) 0.45365(12)
N1 N 0.0424(3) 1.3349(3) -0.25460(15)
O7 O 0.3631(3) 1.4300(3) -0.03033(16)
N2 N 0.1784(3) 1.1605(3) 0.56874(15)
C1 C 0.1685(3) 1.4235(4) -0.28550(18)
C2 C 0.2833(4) 1.1907(4) 0.6503(2)
H1 H 0.2986 1.1806 0.6874
C3 C 0.0827(3) 0.9454(4) 0.22773(17)
O8 O -0.0185(3) 0.9822(3) 0.40772(14)
C4 C 0.4538(5) 1.3670(5) 0.5671(3)
H2 H 0.4909 1.4097 0.5485
C5 C 0.3051(3) 1.2662(4) -0.00713(17)
O9 O 0.4598(3) 1.3239(3) 0.01962(17)
C6 C 0.0489(3) 1.0435(4) 0.41229(18)
C7 C 0.3819(3) 1.3456(4) -0.00626(17)
C8 C 0.1086(3) 1.0140(4) 0.27565(18)
C9 C 0.0638(3) 1.0012(4) 0.31853(18)
H3 H 0.0132 0.9529 0.3165
C10 C 0.0930(3) 1.0594(4) 0.36471(17)
O10 O -0.0233(3) 1.4326(3) -0.15822(14)
H4 H -0.0669 1.4819 -0.1770
C11 C 0.3423(4) 1.2484(4) 0.6237(2)
C12 C 0.2311(4) 1.2164(4) 0.5438(2)
H5 H 0.2126 1.2260 0.5068
C13 C 0.1245(4) 1.3820(4) -0.24499(19)
H6 H 0.1554 1.3882 -0.2094
C14 C -0.0013(4) 1.3243(5) -0.30586(19)
H7 H -0.0602 1.2901 -0.3129
C15 C 0.2045(4) 1.1493(4) 0.6228(2)
H8 H 0.1648 1.1103 0.6414
C16 C 0.2569(4) 1.4749(5) -0.2739(2)
H9 H 0.2876 1.4821 -0.2384
C17 C 0.4306(4) 1.2923(5) 0.6502(3)
H10 H 0.4506 1.2828 0.6871
C18 C 0.3170(4) 1.2651(4) 0.5694(2)
C19 C 0.2971(4) 1.5135(5) -0.3137(2)
H11 H 0.3556 1.5485 -0.3061
C20 C 0.4837(4) 1.3474(5) 0.6208(3)
H12 H 0.5428 1.3732 0.6374
C21 C 0.0362(4) 1.3607(5) -0.3470(2)
H13 H 0.0037 1.3517 -0.3821
C22 C 0.1233(4) 1.4118(4) -0.3379(2)
C23 C 0.3722(4) 1.3257(5) 0.5412(2)
H14 H 0.3529 1.3378 0.5045
C24 C 0.2516(4) 1.5012(5) -0.3666(2)
H15 H 0.2804 1.5285 -0.3942
C25 C 0.1681(4) 1.4517(5) -0.3790(2)
H16 H 0.1396 1.4435 -0.4149
O11 O 0.3188(2) 1.2608(3) 0.37279(12)
O12 O 0.0100(2) 1.1319(3) -0.08732(13)
O13 O 0.2929(3) 1.0524(3) 0.11895(14)
C26 C 0.1604(3) 1.1221(4) -0.00826(17)
H17 H 0.1112 1.0722 -0.0091
C27 C 0.1837(3) 1.0828(4) 0.27880(17)
H18 H 0.2145 1.0907 0.2494
C28 C 0.2328(3) 1.1229(4) 0.03444(18)
C29 C 0.1584(3) 1.1926(4) -0.04967(16)
C30 C 0.2306(3) 1.2657(4) -0.04882(18)
H19 H 0.2288 1.3153 -0.0769
C31 C 0.2144(4) 1.1404(4) 0.32503(18)
C32 C 0.1683(3) 1.1289(4) 0.36758(18)
H20 H 0.1883 1.1686 0.3989
C33 C 0.3064(3) 1.1947(4) 0.03441(18)
H21 H 0.3575 1.1947 0.0629
C34 C 0.2314(4) 1.0487(4) 0.08023(18)
C35 C 0.0768(3) 1.1904(4) -0.09397(18)
C36 C 0.2982(3) 1.2084(4) 0.33010(18)
C40 C 0.0499(5) 1.4932(5) -0.1298(3)
H34 H 0.0881 1.5222 -0.1542
H35 H 0.0242 1.5519 -0.1118
H36 H 0.0884 1.4478 -0.1037
Zn1B Zn -0.11656(4) 1.10479(4) -0.123404(19)
Zn1A Zn 0.38344(4) 1.39521(4) 0.376596(19)
Zn2B Zn 0.01732(4) 0.72139(4) 0.19449(2)
Zn2C Zn 0.48268(4) 1.22139(4) 0.30551(2)
Zn3A Zn 0.43005(4) 1.57522(4) -0.029836(19)
Zn3B Zn -0.06995(4) 0.92478(4) 0.470164(19)
Zn3C Zn 0.56995(4) 1.42478(4) 0.029836(19)
O2C O -0.1554(2) 1.2905(3) -0.20675(12)
O5B O -0.0244(2) 1.1274(3) -0.22802(12)
O7A O 0.1369(3) 0.9300(3) 0.53033(16)
O8B O 0.0185(3) 1.0178(3) 0.59228(14)
O9C O -0.0402(3) 1.1761(3) 0.51962(17)
O11A O 0.1812(2) 0.7608(3) 0.12721(12)
O12B O -0.0100(2) 0.8681(3) 0.08732(13)
O18? O 0.0960(15) 1.4363(16) 0.4869(6)
H41? H 0.0711 1.4951 0.4916
C42? C 0.054(3) 1.394(4) 0.4442(10)
H42? H -0.0100 1.3750 0.4482
H43? H 0.0869 1.3293 0.4367
H44? H 0.0515 1.4442 0.4150
loop_
_geom_bond_atom_site_label_1
_geom_bond_atom_site_label_2
_geom_bond_site_symmetry_1
_geom_bond_site_symmetry_2
Zn1 O3 1_555 1_555
Zn2 O1 1_555 1_555
Zn3 O6 1_555 1_555
O1 C35 1_555 1_555
O2 C36 1_555 1_555
O3 C34 1_555 1_555
O4 Zn1 1_555 1_555
O5 C3 1_555 1_555
O6 C6 1_555 1_555
N1 Zn2 1_555 1_555
O7 C7 1_555 1_555
N2 Zn3 1_555 1_555
C1 C13 1_555 1_555
C2 H1 1_555 1_555
C3 O4 1_555 1_555
O8 C6 1_555 1_555
C4 H2 1_555 1_555
C5 C7 1_555 1_555
O9 C7 1_555 1_555
C6 C10 1_555 1_555
C8 C3 1_555 1_555
C9 C8 1_555 1_555
H3 C9 1_555 1_555
C10 C9 1_555 1_555
O10 Zn2 1_555 1_555
H4 O10 1_555 1_555
C11 C2 1_555 1_555
C12 N2 1_555 1_555
H5 C12 1_555 1_555
C13 N1 1_555 1_555
H6 C13 1_555 1_555
C14 N1 1_555 1_555
H7 C14 1_555 1_555
C15 N2 1_555 1_555
H8 C15 1_555 1_555
C16 C1 1_555 1_555
H9 C16 1_555 1_555
C17 C11 1_555 1_555
H10 C17 1_555 1_555
C18 C11 1_555 1_555
C19 C16 1_555 1_555
H11 C19 1_555 1_555
C20 C4 1_555 1_555
H12 C20 1_555 1_555
C21 C14 1_555 1_555
H13 C21 1_555 1_555
C22 C1 1_555 1_555
C23 C4 1_555 1_555
H14 C23 1_555 1_555
C24 C19 1_555 1_555
H15 C24 1_555 1_555
C25 C22 1_555 1_555
H16 C25 1_555 1_555
O11 C36 1_555 1_555
O12 C35 1_555 1_555
O13 C34 1_555 1_555
C26 H17 1_555 1_555
C27 C8 1_555 1_555
H18 C27 1_555 1_555
C28 C26 1_555 1_555
C29 C26 1_555 1_555
C30 C5 1_555 1_555
H19 C30 1_555 1_555
C31 C27 1_555 1_555
C32 C10 1_555 1_555
H20 C32 1_555 1_555
C33 C5 1_555 1_555
H21 C33 1_555 1_555
C34 C28 1_555 1_555
C35 C29 1_555 1_555
C36 C31 1_555 1_555
O14 H22 1_555 1_555
O15 H23 1_555 1_555
O16 H24 1_555 1_555
C37 O16 1_555 1_555
H25 C37 1_555 1_555
H26 C37 1_555 1_555
H27 C37 1_555 1_555
C38 O14 1_555 1_555
H28 C38 1_555 1_555
H29 C38 1_555 1_555
H30 C38 1_555 1_555
C39 O15 1_555 1_555
H31 C39 1_555 1_555
H32 C39 1_555 1_555
H33 C39 1_555 1_555
C40 O10 1_555 1_555
H34 C40 1_555 1_555
H35 C40 1_555 1_555
H36 C40 1_555 1_555
O17 H37 1_555 1_555
C41 O17 1_555 1_555
H38 C41 1_555 1_555
H39 C41 1_555 1_555
H40 C41 1_555 1_555
Cl1 C43 1_555 1_555
C43 C44 1_555 1_555
C44 H45 1_555 1_555
H45 C47 1_555 1_555
C45 Cl1 1_555 1_555
H46 C45 1_555 1_555
C46 Cl1 1_555 1_555
H47 Cl1 1_555 1_555
C47 Cl1 1_555 1_555
H48 C47 1_555 1_555
C48 C43 1_555 1_555
H49 C44 1_555 1_555
Zn1B O12 1_555 1_555
Zn1A O11 1_555 1_555
Zn2B O5 1_555 1_555
Zn2C O2 1_555 1_555
Zn3A O7 1_555 1_555
Zn3B O8 1_555 1_555
Zn3C O9 1_555 1_555
O2C Zn2 1_555 1_555
O5B Zn2 1_555 1_555
O7A Zn3 1_555 1_555
O8B Zn3 1_555 1_555
O9C Zn3 1_555 1_555
O11A Zn1 1_555 1_555
O12B Zn1 1_555 1_555
Cl1B C43B 1_555 1_555
C43B C43 1_555 1_555
C44B C43 1_555 1_555
H45B C48 1_555 1_555
C45B C44 1_555 1_555
H46B C45B 1_555 1_555
C46B Cl1B 1_555 1_555
H47B Cl1B 1_555 1_555
C47B C48 1_555 1_555
H48B C47B 1_555 1_555
C48B C43 1_555 1_555
H49B C45 1_555 1_555
C2 C15 1_555 1_555
C12 C18 1_555 1_555
C17 C20 1_555 1_555
C18 C23 1_555 1_555
C21 C22 1_555 1_555
C24 C25 1_555 1_555
C28 C33 1_555 1_555
C29 C30 1_555 1_555
C31 C32 1_555 1_555
C43 C45 1_555 1_555
C43 C46 1_555 1_555
C43 C47 1_555 1_555
C44 C47 1_555 1_555
C44 C43B 1_555 1_555
C44 C48B 1_555 1_555
H45 C48B 1_555 1_555
C45 C46 1_555 1_555
C45 C48 1_555 1_555
C45 C44B 1_555 1_555
C46 H47 1_555 1_555
C46 C47 1_555 1_555
C47 C48B 1_555 1_555
C48 C43B 1_555 1_555
C48 C44B 1_555 1_555
C48 H49B 1_555 1_555
H49 C45B 1_555 1_555
H49 C48B 1_555 1_555
Cl1B C45B 1_555 1_555
Cl1B C47B 1_555 1_555
C43B C44B 1_555 1_555
C43B C45B 1_555 1_555
C43B C46B 1_555 1_555
C43B C47B 1_555 1_555
C43B C48B 1_555 1_555
C44B H45B 1_555 1_555
C44B C47B 1_555 1_555
C44B H49B 1_555 1_555
H45B C47B 1_555 1_555
C45B C46B 1_555 1_555
C45B C48B 1_555 1_555
C46B H47B 1_555 1_555
C46B C47B 1_555 1_555

#END
