
#######################################################################
#
#                 Cambridge Crystallographic Data Centre
#                                CCDC 
#
#######################################################################
#
# If this CIF has been generated from an entry in the Cambridge 
# Structural Database, then it will include bibliographic, chemical, 
# crystal, experimental, refinement or atomic coordinate data resulting 
# from the CCDC's data processing and validation procedures.
#
#######################################################################

data_NAQPOK
_symmetry_cell_setting           monoclinic
_symmetry_space_group_name_H-M   'P 21/c'
_symmetry_Int_Tables_number      14
_space_group_name_Hall           '-P 2ybc'
loop_
_symmetry_equiv_pos_site_id
_symmetry_equiv_pos_as_xyz
1 x,y,z
2 -x,1/2+y,1/2-z
3 -x,-y,-z
4 x,1/2-y,1/2+z
_cell_length_a                   11.019(2)
_cell_length_b                   6.844(2)
_cell_length_c                   21.424(3)
_cell_angle_alpha                90
_cell_angle_beta                 93.80(1)
_cell_angle_gamma                90
_cell_volume                     1612.12
loop_
_atom_site_label
_atom_site_type_symbol
_atom_site_fract_x
_atom_site_fract_y
_atom_site_fract_z
Cu1 Cu 0.69288(4) 0.74759(6) 0.09669(2)
O1 O 0.6817(2) 0.7027(4) 0.00478(12)
H1 H 0.621(3) 0.753(5) -0.0153(19)
H2 H 0.664(4) 0.582(5) -0.0008(18)
O2 O 0.5144(2) 0.7908(4) 0.09459(13)
H3 H 0.474(4) 0.751(6) 0.0660(18)
H4 H 0.509(4) 0.897(5) 0.0924(19)
S1 S 0.62869(8) 1.24807(12) 0.06551(4)
O3 O 0.7190(2) 1.0913(4) 0.07439(13)
O4 O 0.6509(3) 0.4046(4) 0.11151(12)
O5 O 0.5051(2) 1.1672(4) 0.07181(13)
O6 O 0.6334(3) 1.3295(4) 0.00161(12)
N1 N 0.6965(3) 0.8115(5) 0.18864(15)
C1 C 0.7423(4) 0.9805(6) 0.21138(18)
H5 H 0.7916 1.0541 0.1868
C2 C 0.7188(4) 1.0501(6) 0.27038(18)
C3 C 0.6456(4) 0.9386(6) 0.30652(19)
H6 H 0.6264 0.9826 0.3457
C4 C 0.6014(5) 0.7617(6) 0.28390(19)
H7 H 0.5537 0.6838 0.3080
C5 C 0.6290(4) 0.7023(6) 0.22527(19)
H8 H 0.6000 0.5823 0.2104
C6 C 0.7697(4) 1.2433(5) 0.29299(18)
O7 O 0.8615(4) 1.3112(5) 0.26794(16)
N2 N 0.7210(3) 1.3287(5) 0.33645(15)
H9 H 0.7499 1.4381 0.3504
H10 H 0.6587 1.2780 0.3523
N3 N 0.8713(3) 0.6824(5) 0.09562(16)
C7 C 0.9164(3) 0.5134(6) 0.1191(2)
H11 H 0.8686 0.4386 0.1441
C8 C 1.0316(4) 0.4457(6) 0.1075(2)
C9 C 1.1020(4) 0.5602(6) 0.0711(2)
H12 H 1.1789 0.5179 0.0616
C10 C 1.0583(4) 0.7365(6) 0.0489(2)
H13 H 1.1059 0.8166 0.0254
C11 C 0.9430(4) 0.7930(6) 0.0622(2)
H14 H 0.9138 0.9128 0.0473
C12 C 1.0774(3) 0.2521(6) 0.1322(2)
O8 O 1.1624(3) 0.1695(5) 0.10572(17)
N4 N 1.0298(3) 0.1782(5) 0.17854(19)
H15 H 1.0551 0.0674 0.1932
H16 H 0.9720 0.2384 0.1955
O4_2 O 0.6509(3) 1.4046(4) 0.11151(12)
Cu1_2 Cu 0.69288(4) 1.74759(6) 0.09669(2)
S1_2 S 0.62869(8) 0.24807(12) 0.06551(4)
loop_
_geom_bond_atom_site_label_1
_geom_bond_atom_site_label_2
_geom_bond_site_symmetry_1
_geom_bond_site_symmetry_2
Cu1 O1 1_555 1_555
O1 H1 1_555 1_555
H2 O1 1_555 1_555
O2 Cu1 1_555 1_555
H3 O2 1_555 1_555
H4 O2 1_555 1_555
S1 O3 1_555 1_555
O3 Cu1 1_555 1_555
O4 Cu1 1_555 1_555
O5 S1 1_555 1_555
O6 S1 1_555 1_555
N1 Cu1 1_555 1_555
C1 N1 1_555 1_555
H5 C1 1_555 1_555
C2 C1 1_555 1_555
C3 C2 1_555 1_555
H6 C3 1_555 1_555
C4 C3 1_555 1_555
H7 C4 1_555 1_555
C5 N1 1_555 1_555
H8 C5 1_555 1_555
C6 C2 1_555 1_555
O7 C6 1_555 1_555
N2 C6 1_555 1_555
H9 N2 1_555 1_555
H10 N2 1_555 1_555
N3 Cu1 1_555 1_555
C7 N3 1_555 1_555
H11 C7 1_555 1_555
C8 C7 1_555 1_555
C9 C8 1_555 1_555
H12 C9 1_555 1_555
C10 C9 1_555 1_555
H13 C10 1_555 1_555
C11 N3 1_555 1_555
H14 C11 1_555 1_555
C12 C8 1_555 1_555
O8 C12 1_555 1_555
N4 C12 1_555 1_555
H15 N4 1_555 1_555
H16 N4 1_555 1_555
O4_2 S1 1_555 1_555
Cu1_2 O4_2 1_555 1_555
S1_2 O4 1_555 1_555
C4 C5 1_555 1_555
C10 C11 1_555 1_555

#END
