
#######################################################################
#
#                 Cambridge Crystallographic Data Centre
#                                CCDC 
#
#######################################################################
#
# If this CIF has been generated from an entry in the Cambridge 
# Structural Database, then it will include bibliographic, chemical, 
# crystal, experimental, refinement or atomic coordinate data resulting 
# from the CCDC's data processing and validation procedures.
#
#######################################################################

data_NAQQAZ
_symmetry_cell_setting           cubic
_symmetry_space_group_name_H-M   'I 2 3'
_symmetry_Int_Tables_number      197
_space_group_name_Hall           'I 2 2 3'
loop_
_symmetry_equiv_pos_site_id
_symmetry_equiv_pos_as_xyz
1 x,y,z
2 -x,-y,z
3 x,-y,-z
4 -x,y,-z
5 y,z,x
6 -y,-z,x
7 y,-z,-x
8 -y,z,-x
9 z,x,y
10 -z,x,-y
11 -z,-x,y
12 z,-x,-y
13 1/2+x,1/2+y,1/2+z
14 1/2-x,1/2-y,1/2+z
15 1/2+x,1/2-y,1/2-z
16 1/2-x,1/2+y,1/2-z
17 1/2+y,1/2+z,1/2+x
18 1/2-y,1/2-z,1/2+x
19 1/2+y,1/2-z,1/2-x
20 1/2-y,1/2+z,1/2-x
21 1/2+z,1/2+x,1/2+y
22 1/2-z,1/2+x,1/2-y
23 1/2-z,1/2-x,1/2+y
24 1/2+z,1/2-x,1/2-y
_cell_length_a                   17.023(2)
_cell_length_b                   17.023(2)
_cell_length_c                   17.023(2)
_cell_angle_alpha                90
_cell_angle_beta                 90
_cell_angle_gamma                90
_cell_volume                     4932.97
loop_
_atom_site_label
_atom_site_type_symbol
_atom_site_fract_x
_atom_site_fract_y
_atom_site_fract_z
Zn1 Zn 0.5000 1.0000 0.7479(4)
N1 N 0.6118(12) 0.965(2) 0.6976(13)
C1 C 0.6201(14) 1.0069(12) 0.6220(14)
N2 N 0.6869(8) 0.9805(4) 0.5925(7)
C2 C 0.7145(19) 0.9174(13) 0.6599(14)
H1 H 0.7576 0.8841 0.6637
C3 C 0.5056(19) 1.1575(16) 0.5378(13)
N3 N 0.5756(18) 1.0628(16) 0.5961(16)
N4 N 0.5463(19) 1.0904(17) 0.5960(17)
C4 C 0.431(2) 1.186(3) 0.539(2)
C5 C 0.390(3) 1.224(3) 0.480(2)
C6 C 0.476(2) 1.248(2) 0.586(2)
C7 C 0.443(3) 1.251(4) 0.425(4)
C8 C 0.6583(13) 0.9295(10) 0.7038(11)
H2 H 0.6595 0.9012 0.7505
Zn1U Zn 0.7521(4) 1.0000 0.5000
Zn1B Zn 0.5000 1.0000 0.2521(4)
Zn1T Zn 0.2479(4) 1.0000 0.5000
N1C N 0.3882(12) 0.965(2) 0.3024(13)
N1A N 0.3882(12) 1.035(2) 0.6976(13)
C1C C 0.3799(14) 1.0069(12) 0.3780(14)
N2C N 0.3131(8) 0.9805(4) 0.4075(7)
N2R N 0.4805(4) 0.9075(7) 0.8131(8)
N2S N 0.5195(4) 1.0925(7) 0.8131(8)
C2C C 0.2855(19) 0.9174(13) 0.3401(14)
H1C H 0.2424 0.8841 0.3363
C3C C 0.4944(19) 1.1575(16) 0.4622(13)
N3C N 0.4244(18) 1.0628(16) 0.4039(16)
N4C N 0.4537(19) 1.0904(17) 0.4040(17)
C4C C 0.569(2) 1.186(3) 0.461(2)
C5C C 0.610(3) 1.224(3) 0.520(2)
C6C C 0.524(2) 1.248(2) 0.414(2)
C7C C 0.557(3) 1.251(4) 0.575(4)
C8C C 0.3417(13) 0.9295(10) 0.2962(11)
H2C H 0.3405 0.9012 0.2495
loop_
_geom_bond_atom_site_label_1
_geom_bond_atom_site_label_2
_geom_bond_site_symmetry_1
_geom_bond_site_symmetry_2
Zn1 N1 1_555 1_555
N1 C1 1_555 1_555
C1 N2 1_555 1_555
N2 C2 1_555 1_555
C2 H1 1_555 1_555
C3 N4 1_555 1_555
N3 C1 1_555 1_555
N4 N3 1_555 1_555
C4 C3 1_555 1_555
C5 C4 1_555 1_555
C6 C4 1_555 1_555
C7 C5 1_555 1_555
C8 N1 1_555 1_555
H2 C8 1_555 1_555
Zn1U N2 1_555 1_555
Zn1B N1C 1_555 1_555
Zn1T N2C 1_555 1_555
N1C C1C 1_555 1_555
N1A Zn1 1_555 1_555
C1C N2C 1_555 1_555
N2C C2C 1_555 1_555
N2R Zn1 1_555 1_555
N2S Zn1 1_555 1_555
C2C H1C 1_555 1_555
C3C C3 1_555 1_555
N3C C1C 1_555 1_555
N4C C3C 1_555 1_555
C4C C3C 1_555 1_555
C5C C4C 1_555 1_555
C6C C7 1_555 1_555
C7C C6 1_555 1_555
C8C N1C 1_555 1_555
H2C C8C 1_555 1_555
C2 C8 1_555 1_555
C2C C8C 1_555 1_555
N3C N4C 1_555 1_555
C4C C6C 1_555 1_555
C5C C7C 1_555 1_555

#END
