
#######################################################################
#
#                 Cambridge Crystallographic Data Centre
#                                CCDC 
#
#######################################################################
#
# If this CIF has been generated from an entry in the Cambridge 
# Structural Database, then it will include bibliographic, chemical, 
# crystal, experimental, refinement or atomic coordinate data resulting 
# from the CCDC's data processing and validation procedures.
#
#######################################################################

data_NAQSAB
_symmetry_cell_setting           monoclinic
_symmetry_space_group_name_H-M   'P 21/c'
_symmetry_Int_Tables_number      14
_space_group_name_Hall           '-P 2ybc'
loop_
_symmetry_equiv_pos_site_id
_symmetry_equiv_pos_as_xyz
1 x,y,z
2 -x,1/2+y,1/2-z
3 -x,-y,-z
4 x,1/2-y,1/2+z
_cell_length_a                   15.0006(12)
_cell_length_b                   18.4160(14)
_cell_length_c                   9.6928(8)
_cell_angle_alpha                90
_cell_angle_beta                 93.736(6)
_cell_angle_gamma                90
_cell_volume                     2671.96
loop_
_atom_site_label
_atom_site_type_symbol
_atom_site_fract_x
_atom_site_fract_y
_atom_site_fract_z
Li1 Li 0.0475(2) 0.54050(18) 0.6305(3)
Li2 Li -0.4652(2) 0.56898(18) 0.5800(4)
Li3 Li -0.2378(2) 0.18495(17) 1.0995(3)
B1 B -0.06651(13) 0.44152(11) 0.6186(2)
H1 H -0.0183 0.4463 0.6912
H2 H -0.0499 0.4052 0.5510
H3 H -0.0765 0.4884 0.5724
B2 B -0.41890(14) 0.43944(11) 0.6079(2)
H4 H -0.4099 0.4693 0.5263
H5 H -0.4547 0.3967 0.5804
H6 H -0.4502 0.4679 0.6752
B3 B -0.23374(13) 0.26938(11) 0.9533(2)
H7 H -0.2769 0.2317 0.9237
H8 H -0.1737 0.2482 0.9634
H9 H -0.2494 0.2895 1.0421
C1 C -0.15689(11) 0.41627(9) 0.68663(17)
C2 C -0.24140(11) 0.44086(9) 0.63461(17)
H10 H -0.2434 0.4781 0.5667
C3 C -0.32337(11) 0.41376(9) 0.67665(17)
C4 C -0.31705(11) 0.35951(9) 0.77930(17)
H11 H -0.3710 0.3398 0.8095
C5 C -0.23560(11) 0.33264(9) 0.84001(17)
C6 C -0.15708(11) 0.36259(9) 0.79010(17)
H12 H -0.1011 0.3455 0.8287
O1 O -0.00810(11) 0.61517(8) 0.74105(16)
C7 C -0.06789(18) 0.59948(14) 0.8469(3)
H13 H -0.0398 0.5649 0.9149
H14 H -0.1238 0.5776 0.8059
C8 C -0.0871(2) 0.66941(17) 0.9151(3)
H15 H -0.1522 0.6790 0.9093
H16 H -0.0655 0.6681 1.0138
C9 C -0.0396(2) 0.72655(16) 0.8406(4)
H17 H -0.0823 0.7551 0.7802
H18 H -0.0077 0.7600 0.9070
C10 C 0.02429(19) 0.68779(13) 0.7576(3)
H19 H 0.0278 0.7114 0.6664
H20 H 0.0846 0.6879 0.8056
O2 O 0.16302(10) 0.52650(9) 0.74502(15)
C11 C 0.15119(17) 0.5075(2) 0.8864(3)
H21 H 0.1119 0.4645 0.8913
H22 H 0.1242 0.5484 0.9353
C12 C 0.24211(17) 0.49116(16) 0.9490(3)
H23 H 0.2578 0.4396 0.9350
H24 H 0.2464 0.5019 1.0493
C13 C 0.30204(15) 0.54085(15) 0.8724(3)
H25 H 0.3539 0.5138 0.8404
H26 H 0.3242 0.5813 0.9325
C14 C 0.24364(16) 0.56913(15) 0.7506(3)
H27 H 0.2298 0.6211 0.7636
H28 H 0.2744 0.5637 0.6639
O3 O -0.36130(10) 0.62589(9) 0.52107(17)
C15 C -0.28545(17) 0.64573(16) 0.6095(3)
H29 H -0.2986 0.6896 0.6635
H30 H -0.2691 0.6058 0.6747
C16 C -0.2111(2) 0.6604(3) 0.5186(4)
H31 H -0.1634 0.6237 0.5347
H32 H -0.1853 0.7090 0.5388
C17 C -0.2472(2) 0.6571(3) 0.3778(4)
H33 H -0.2519 0.7064 0.3373
H34 H -0.2084 0.6272 0.3214
C18 C -0.33597(19) 0.62396(19) 0.3816(3)
H35 H -0.3344 0.5731 0.3486
H36 H -0.3798 0.6512 0.3209
O4 O -0.48528(12) 0.61701(8) 0.75428(15)
C19 C -0.44865(19) 0.59380(15) 0.8872(2)
H37 H -0.4878 0.5571 0.9267
H38 H -0.3887 0.5722 0.8795
C20 C -0.4427(3) 0.65928(19) 0.9753(3)
H39 H -0.4536 0.6470 1.0722
H40 H -0.3830 0.6821 0.9730
C21 C -0.5130(2) 0.70836(15) 0.9154(3)
H41 H -0.5701 0.7002 0.9586
H42 H -0.4952 0.7598 0.9284
C22 C -0.52106(19) 0.68887(13) 0.7653(3)
H43 H -0.4870 0.7236 0.7111
H44 H -0.5844 0.6900 0.7297
Li1B Li -0.0475(2) 0.45950(18) 0.3695(3)
Li2B Li -0.5348(2) 0.43102(18) 0.4200(4)
Li3C Li -0.2378(2) 0.31505(17) 0.5995(3)
H2B H 0.0499 0.5948 0.4490
H3B H 0.0765 0.5116 0.4276
H5B H -0.5453 0.6033 0.4196
C1C C -0.15689(11) 0.08373(9) 1.18663(17)
C2C C -0.24140(11) 0.05914(9) 1.13461(17)
H10C H -0.2434 0.0219 1.0667
C3C C -0.32337(11) 0.08624(9) 1.17665(17)
C4C C -0.31705(11) 0.14049(9) 1.27930(17)
H11C H -0.3710 0.1602 1.3095
C5C C -0.23560(11) 0.16736(9) 1.34001(17)
C6C C -0.15708(11) 0.13741(9) 1.29010(17)
H12C H -0.1011 0.1545 1.3287
loop_
_geom_bond_atom_site_label_1
_geom_bond_atom_site_label_2
_geom_bond_site_symmetry_1
_geom_bond_site_symmetry_2
Li1 H1 1_555 1_555
Li2 H4 1_555 1_555
Li3 H7 1_555 1_555
B1 H1 1_555 1_555
H2 B1 1_555 1_555
H3 Li1 1_555 1_555
B2 H4 1_555 1_555
H5 B2 1_555 1_555
H6 Li2 1_555 1_555
B3 H7 1_555 1_555
H8 Li3 1_555 1_555
H9 Li3 1_555 1_555
C1 B1 1_555 1_555
C2 C1 1_555 1_555
H10 C2 1_555 1_555
C3 B2 1_555 1_555
C4 C3 1_555 1_555
H11 C4 1_555 1_555
C5 B3 1_555 1_555
C6 C1 1_555 1_555
H12 C6 1_555 1_555
O1 Li1 1_555 1_555
C7 O1 1_555 1_555
H13 C7 1_555 1_555
H14 C7 1_555 1_555
C8 C7 1_555 1_555
H15 C8 1_555 1_555
H16 C8 1_555 1_555
C9 C8 1_555 1_555
H17 C9 1_555 1_555
H18 C9 1_555 1_555
C10 O1 1_555 1_555
H19 C10 1_555 1_555
H20 C10 1_555 1_555
O2 Li1 1_555 1_555
C11 O2 1_555 1_555
H21 C11 1_555 1_555
H22 C11 1_555 1_555
C12 C11 1_555 1_555
H23 C12 1_555 1_555
H24 C12 1_555 1_555
C13 C12 1_555 1_555
H25 C13 1_555 1_555
H26 C13 1_555 1_555
C14 O2 1_555 1_555
H27 C14 1_555 1_555
H28 C14 1_555 1_555
O3 Li2 1_555 1_555
C15 O3 1_555 1_555
H29 C15 1_555 1_555
H30 C15 1_555 1_555
C16 C15 1_555 1_555
H31 C16 1_555 1_555
H32 C16 1_555 1_555
C17 C16 1_555 1_555
H33 C17 1_555 1_555
H34 C17 1_555 1_555
C18 O3 1_555 1_555
H35 C18 1_555 1_555
H36 C18 1_555 1_555
O4 Li2 1_555 1_555
C19 O4 1_555 1_555
H37 C19 1_555 1_555
H38 C19 1_555 1_555
C20 C19 1_555 1_555
H39 C20 1_555 1_555
H40 C20 1_555 1_555
C21 C20 1_555 1_555
H41 C21 1_555 1_555
H42 C21 1_555 1_555
C22 O4 1_555 1_555
H43 C22 1_555 1_555
H44 C22 1_555 1_555
Li1B H2 1_555 1_555
Li2B H5 1_555 1_555
Li3C C1 1_555 1_555
H2B Li1 1_555 1_555
H3B Li1 1_555 1_555
H5B Li2 1_555 1_555
C1C Li3 1_555 1_555
C2C Li3 1_555 1_555
H10C C2C 1_555 1_555
C3C Li3 1_555 1_555
C4C Li3 1_555 1_555
H11C C4C 1_555 1_555
C5C Li3 1_555 1_555
C6C Li3 1_555 1_555
H12C C6C 1_555 1_555
B1 H3 1_555 1_555
H3 Li1B 1_555 1_555
B2 H6 1_555 1_555
B3 H8 1_555 1_555
B3 H9 1_555 1_555
C2 C3 1_555 1_555
C2 Li3C 1_555 1_555
C3 Li3C 1_555 1_555
C4 C5 1_555 1_555
C4 Li3C 1_555 1_555
C5 C6 1_555 1_555
C5 Li3C 1_555 1_555
C6 Li3C 1_555 1_555
C9 C10 1_555 1_555
C13 C14 1_555 1_555
C17 C18 1_555 1_555
C21 C22 1_555 1_555
Li1B H3B 1_555 1_555
C1C C2C 1_555 1_555
C1C C6C 1_555 1_555
C2C C3C 1_555 1_555
C3C C4C 1_555 1_555
C4C C5C 1_555 1_555
C5C C6C 1_555 1_555

#END
