
#######################################################################
#
#                 Cambridge Crystallographic Data Centre
#                                CCDC 
#
#######################################################################
#
# If this CIF has been generated from an entry in the Cambridge 
# Structural Database, then it will include bibliographic, chemical, 
# crystal, experimental, refinement or atomic coordinate data resulting 
# from the CCDC's data processing and validation procedures.
#
#######################################################################

data_NAQVAE
_symmetry_cell_setting           monoclinic
_symmetry_space_group_name_H-M   'P 21/c'
_symmetry_Int_Tables_number      14
_space_group_name_Hall           '-P 2ybc'
loop_
_symmetry_equiv_pos_site_id
_symmetry_equiv_pos_as_xyz
1 x,y,z
2 -x,1/2+y,1/2-z
3 -x,-y,-z
4 x,1/2-y,1/2+z
_cell_length_a                   13.1663(13)
_cell_length_b                   9.1552(9)
_cell_length_c                   17.2455(16)
_cell_angle_alpha                90
_cell_angle_beta                 92.545(1)
_cell_angle_gamma                90
_cell_volume                     2076.72
loop_
_atom_site_label
_atom_site_type_symbol
_atom_site_fract_x
_atom_site_fract_y
_atom_site_fract_z
Tl1 Tl -0.028186(11) 0.297829(15) 0.169827(8)
S1 S 0.07061(7) 0.52492(10) 0.24127(5)
C1 C -0.1805(3) 0.3838(5) 0.1740(3)
H1 H -0.1991 0.4323 0.1247
H2 H -0.1834 0.4544 0.2165
H3 H -0.2281 0.3037 0.1826
C2 C 0.0984(4) 0.1765(5) 0.1266(3)
H4 H 0.0801 0.0729 0.1222
H5 H 0.1576 0.1874 0.1625
H6 H 0.1147 0.2141 0.0754
C3 C 0.1987(3) 0.4666(4) 0.2284(2)
C4 C 0.2479(3) 0.3726(4) 0.2843(2)
C5 C 0.3339(4) 0.2963(4) 0.2621(2)
H7 H 0.3656 0.2307 0.2983
C6 C 0.3754(3) 0.3117(4) 0.1895(2)
C7 C 0.3332(3) 0.4172(4) 0.1408(2)
H8 H 0.3651 0.4366 0.0936
C8 C 0.2460(3) 0.4971(4) 0.1571(2)
C9 C 0.2149(3) 0.3532(4) 0.3690(2)
C10 C 0.1123(4) 0.2739(5) 0.3747(3)
H9 H 0.1027 0.2463 0.4288
H10 H 0.1118 0.1859 0.3423
H11 H 0.0570 0.3390 0.3567
C11 C 0.2104(4) 0.5022(4) 0.4096(2)
H12 H 0.1560 0.5612 0.3849
H13 H 0.2756 0.5527 0.4054
H14 H 0.1967 0.4877 0.4645
C12 C 0.2936(4) 0.2632(5) 0.4178(2)
H15 H 0.3611 0.3067 0.4138
H16 H 0.2945 0.1626 0.3985
H17 H 0.2750 0.2632 0.4722
C13 C 0.4641(3) 0.2142(5) 0.1659(2)
C14 C 0.5392(5) 0.1863(7) 0.2325(3)
H18 H 0.5970 0.1306 0.2141
H19 H 0.5062 0.1304 0.2728
H20 H 0.5634 0.2797 0.2541
C15 C 0.5194(5) 0.2778(7) 0.0987(5)
H21 H 0.5469 0.3739 0.1133
H22 H 0.4720 0.2880 0.0536
H23 H 0.5752 0.2126 0.0856
C16 C 0.4199(5) 0.0666(7) 0.1388(5)
H24 H 0.4750 0.0026 0.1232
H25 H 0.3717 0.0819 0.0946
H26 H 0.3846 0.0210 0.1815
C17 C 0.2108(3) 0.6156(4) 0.0971(2)
C18 C 0.2926(4) 0.6458(5) 0.0383(2)
H27 H 0.3031 0.5580 0.0072
H28 H 0.3565 0.6725 0.0661
H29 H 0.2705 0.7263 0.0041
C19 C 0.1918(4) 0.7629(5) 0.1366(3)
H30 H 0.1737 0.8364 0.0970
H31 H 0.2535 0.7937 0.1660
H32 H 0.1359 0.7527 0.1720
C20 C 0.1141(3) 0.5676(5) 0.0502(2)
H33 H 0.0944 0.6438 0.0125
H34 H 0.0588 0.5523 0.0855
H35 H 0.1275 0.4764 0.0227
Tl1A Tl 0.028186(11) 0.797829(15) 0.330173(8)
S1A S -0.07061(7) 0.02492(10) 0.25873(5)
loop_
_geom_bond_atom_site_label_1
_geom_bond_atom_site_label_2
_geom_bond_site_symmetry_1
_geom_bond_site_symmetry_2
Tl1 S1 1_555 1_555
S1 C3 1_555 1_555
C1 Tl1 1_555 1_555
H1 C1 1_555 1_555
H2 C1 1_555 1_555
H3 C1 1_555 1_555
C2 Tl1 1_555 1_555
H4 C2 1_555 1_555
H5 C2 1_555 1_555
H6 C2 1_555 1_555
C3 C4 1_555 1_555
C4 C5 1_555 1_555
C5 H7 1_555 1_555
C6 C5 1_555 1_555
C7 C6 1_555 1_555
H8 C7 1_555 1_555
C8 C3 1_555 1_555
C9 C4 1_555 1_555
C10 C9 1_555 1_555
H9 C10 1_555 1_555
H10 C10 1_555 1_555
H11 C10 1_555 1_555
C11 C9 1_555 1_555
H12 C11 1_555 1_555
H13 C11 1_555 1_555
H14 C11 1_555 1_555
C12 C9 1_555 1_555
H15 C12 1_555 1_555
H16 C12 1_555 1_555
H17 C12 1_555 1_555
C13 C6 1_555 1_555
C14 C13 1_555 1_555
H18 C14 1_555 1_555
H19 C14 1_555 1_555
H20 C14 1_555 1_555
C15 C13 1_555 1_555
H21 C15 1_555 1_555
H22 C15 1_555 1_555
H23 C15 1_555 1_555
C16 C13 1_555 1_555
H24 C16 1_555 1_555
H25 C16 1_555 1_555
H26 C16 1_555 1_555
C17 C8 1_555 1_555
C18 C17 1_555 1_555
H27 C18 1_555 1_555
H28 C18 1_555 1_555
H29 C18 1_555 1_555
C19 C17 1_555 1_555
H30 C19 1_555 1_555
H31 C19 1_555 1_555
H32 C19 1_555 1_555
C20 C17 1_555 1_555
H33 C20 1_555 1_555
H34 C20 1_555 1_555
H35 C20 1_555 1_555
Tl1A S1 1_555 1_555
S1A Tl1 1_555 1_555
C7 C8 1_555 1_555

#END
