
#######################################################################
#
#                 Cambridge Crystallographic Data Centre
#                                CCDC 
#
#######################################################################
#
# If this CIF has been generated from an entry in the Cambridge 
# Structural Database, then it will include bibliographic, chemical, 
# crystal, experimental, refinement or atomic coordinate data resulting 
# from the CCDC's data processing and validation procedures.
#
#######################################################################

data_NAQWAE
_symmetry_cell_setting           monoclinic
_symmetry_space_group_name_H-M   'P 21/c'
_symmetry_Int_Tables_number      14
_space_group_name_Hall           '-P 2ybc'
loop_
_symmetry_equiv_pos_site_id
_symmetry_equiv_pos_as_xyz
1 x,y,z
2 -x,1/2+y,1/2-z
3 -x,-y,-z
4 x,1/2-y,1/2+z
_cell_length_a                   10.093(2)
_cell_length_b                   24.961(5)
_cell_length_c                   11.638(2)
_cell_angle_alpha                90.00
_cell_angle_beta                 108.810(10)
_cell_angle_gamma                90.00
_cell_volume                     2775.39
loop_
_atom_site_label
_atom_site_type_symbol
_atom_site_fract_x
_atom_site_fract_y
_atom_site_fract_z
Cu1 Cu 0.73204(4) 0.222594(17) 0.18114(4)
N1 N 0.6368(3) 0.15880(11) 0.2077(3)
N2 N 0.5481(3) 0.24965(12) 0.0933(3)
N3 N 0.8361(4) 0.28649(19) 0.1551(5)
O1 O 0.9057(2) 0.19994(10) 0.2935(3)
O2 O 1.0608(3) 0.15269(11) 0.4297(3)
O3 O 0.4063(2) 0.13498(11) 0.1791(3)
O4 O 0.3210(2) 0.21902(10) 0.0293(3)
C1 C 0.9406(4) 0.15649(15) 0.3523(4)
C2 C 0.8449(3) 0.10970(14) 0.3287(3)
C3 C 0.9043(4) 0.06101(17) 0.3771(4)
C4 C 0.8318(5) 0.01373(17) 0.3607(4)
C5 C 0.6925(5) 0.01492(16) 0.2942(4)
C6 C 0.6269(4) 0.06219(15) 0.2458(4)
C7 C 0.7005(3) 0.11074(14) 0.2613(3)
C8 C 0.4984(4) 0.16468(14) 0.1654(4)
C9 C 0.4497(4) 0.21526(15) 0.0889(4)
C10 C 0.5112(5) 0.29725(19) 0.0163(6)
C11 C 0.6251(5) 0.33974(18) 0.0536(6)
C12 C 0.7657(5) 0.32267(19) 0.0526(5)
Cu2 Cu 0.04942(4) 0.062956(18) 0.16852(4)
N4 N -0.1348(3) 0.04386(11) 0.0599(3)
N5 N 0.0681(3) -0.01156(12) 0.2107(3)
N6 N 0.2230(4) 0.08679(15) 0.2989(3)
O5 O 0.0462(2) 0.13211(10) 0.0941(2)
O6 O -0.0237(3) 0.19211(11) -0.0507(3)
O7 O -0.0626(3) -0.08893(11) 0.1688(3)
O8 O -0.2541(3) -0.03537(10) -0.0137(3)
C13 C -0.0503(4) 0.15391(15) 0.0059(4)
C14 C -0.1968(4) 0.13292(15) -0.0306(3)
C15 C -0.3018(4) 0.16908(17) -0.0946(4)
C16 C -0.4404(4) 0.15601(18) -0.1343(4)
C17 C -0.4796(4) 0.10531(18) -0.1098(4)
C18 C -0.3791(4) 0.06809(17) -0.0493(4)
C19 C -0.2360(4) 0.08085(14) -0.0081(3)
C20 C -0.1569(4) -0.00901(15) 0.0564(4)
C21 C -0.0422(4) -0.03997(15) 0.1531(4)
C22 C 0.1840(5) -0.03870(18) 0.3016(5)
C23 C 0.3162(5) -0.0058(2) 0.3327(6)
C24 C 0.3079(5) 0.0479(2) 0.3895(5)
Na1 Na 0.22251(15) 0.12939(6) -0.00326(15)
Na2 Na 1.12309(15) 0.24436(6) 0.40525(17)
O10 O 1.1736(5) 0.2472(2) 0.2260(4)
H1 H 0.637(4) -0.0155(15) 0.284(3)
H2 H -0.270(4) 0.2011(15) -0.109(3)
H3 H 0.980(4) 0.0603(14) 0.410(3)
H4 H 0.275(4) 0.1034(16) 0.268(4)
H5 H 0.822(4) 0.3532(16) 0.054(4)
H6 H -0.572(4) 0.0950(14) -0.129(4)
H7 H 0.750(5) 0.3030(18) -0.033(5)
H8 H 0.205(4) -0.0753(16) 0.266(3)
H9 H 0.893(5) 0.276(2) 0.140(5)
H10 H 0.409(4) 0.0642(14) 0.419(4)
H11 H 0.198(4) 0.1189(18) 0.334(4)
H12 H 0.527(5) 0.0622(17) 0.202(4)
H13 H -0.408(4) 0.0332(15) -0.035(4)
H14 H 0.881(4) -0.0182(17) 0.385(4)
H15 H -0.507(4) 0.1850(17) -0.178(4)
H16 H 0.439(4) 0.3122(17) 0.025(4)
H17 H 0.597(4) 0.3658(18) -0.004(4)
H18 H 0.268(4) 0.0426(14) 0.444(4)
H19 H 0.156(4) -0.0486(16) 0.374(4)
H20 H 0.391(4) -0.0252(17) 0.393(4)
H21 H 0.346(4) -0.0007(17) 0.267(4)
H22 H 0.495(5) 0.291(2) -0.064(5)
H23 H 0.860(7) 0.309(3) 0.221(7)
H24 H 0.648(6) 0.353(2) 0.141(6)
O4C O 1.3210(2) 0.28098(10) 0.5293(3)
O6C O 0.9763(3) 0.30789(11) 0.4493(3)
O7B O 0.0626(3) 0.08893(11) -0.1688(3)
O8B O 0.2541(3) 0.03537(10) 0.0137(3)
Na1B Na -0.22251(15) -0.12939(6) 0.00326(15)
Na1C Na 1.22251(15) 0.37061(6) 0.49674(15)
Na2C Na 0.12309(15) 0.25564(6) -0.09475(17)
O9 O 1.1805(5) 0.1408(2) 0.6784(4)
loop_
_geom_bond_atom_site_label_1
_geom_bond_atom_site_label_2
_geom_bond_site_symmetry_1
_geom_bond_site_symmetry_2
Cu1 N1 1_555 1_555
N1 C7 1_555 1_555
N2 Cu1 1_555 1_555
N3 Cu1 1_555 1_555
O1 Cu1 1_555 1_555
O2 C1 1_555 1_555
O3 C8 1_555 1_555
O4 C9 1_555 1_555
C1 O1 1_555 1_555
C2 C1 1_555 1_555
C3 C2 1_555 1_555
C4 C3 1_555 1_555
C5 C4 1_555 1_555
C6 C5 1_555 1_555
C7 C2 1_555 1_555
C8 N1 1_555 1_555
C9 N2 1_555 1_555
C10 N2 1_555 1_555
C11 C10 1_555 1_555
C12 N3 1_555 1_555
Cu2 N4 1_555 1_555
N4 C19 1_555 1_555
N5 Cu2 1_555 1_555
N6 Cu2 1_555 1_555
O5 Cu2 1_555 1_555
O6 C13 1_555 1_555
O7 C21 1_555 1_555
O8 C20 1_555 1_555
C13 O5 1_555 1_555
C14 C13 1_555 1_555
C15 C14 1_555 1_555
C16 C15 1_555 1_555
C17 C16 1_555 1_555
C18 C17 1_555 1_555
C19 C14 1_555 1_555
C20 N4 1_555 1_555
C21 N5 1_555 1_555
C22 N5 1_555 1_555
C23 C22 1_555 1_555
C24 N6 1_555 1_555
Na1 O3 1_555 1_555
Na2 O1 1_555 1_555
O10 Na2 1_555 1_555
H1 C5 1_555 1_555
H2 C15 1_555 1_555
H3 C3 1_555 1_555
H4 N6 1_555 1_555
H5 C12 1_555 1_555
H6 C17 1_555 1_555
H7 C12 1_555 1_555
H8 C22 1_555 1_555
H9 N3 1_555 1_555
H10 C24 1_555 1_555
H11 N6 1_555 1_555
H12 C6 1_555 1_555
H13 C18 1_555 1_555
H14 C4 1_555 1_555
H15 C16 1_555 1_555
H16 C10 1_555 1_555
H17 C11 1_555 1_555
H18 C24 1_555 1_555
H19 C22 1_555 1_555
H20 C23 1_555 1_555
H21 C23 1_555 1_555
H22 C10 1_555 1_555
H23 N3 1_555 1_555
H24 C11 1_555 1_555
O4C Na2 1_555 1_555
O6C Na2 1_555 1_555
O7B Na1 1_555 1_555
O8B Na1 1_555 1_555
Na1B O7 1_555 1_555
Na1C O4C 1_555 1_555
Na2C O4 1_555 1_555
O2 Na2 1_555 1_555
O4 Na1 1_555 1_555
C6 C7 1_555 1_555
C8 C9 1_555 1_555
C11 C12 1_555 1_555
O5 Na1 1_555 1_555
O6 Na1 1_555 1_555
O6 Na2C 1_555 1_555
O8 Na1B 1_555 1_555
C18 C19 1_555 1_555
C20 C21 1_555 1_555
C23 C24 1_555 1_555
O6C Na1C 1_555 1_555

#END
