
#######################################################################
#
#                 Cambridge Crystallographic Data Centre
#                                CCDC 
#
#######################################################################
#
# If this CIF has been generated from an entry in the Cambridge 
# Structural Database, then it will include bibliographic, chemical, 
# crystal, experimental, refinement or atomic coordinate data resulting 
# from the CCDC's data processing and validation procedures.
#
#######################################################################

data_NAQXAG
_symmetry_cell_setting           monoclinic
_symmetry_space_group_name_H-M   'P 21/n'
_symmetry_Int_Tables_number      14
_space_group_name_Hall           '-P 2yn'
loop_
_symmetry_equiv_pos_site_id
_symmetry_equiv_pos_as_xyz
1 x,y,z
2 1/2-x,1/2+y,1/2-z
3 -x,-y,-z
4 1/2+x,1/2-y,1/2+z
_cell_length_a                   9.6590(6)
_cell_length_b                   15.6860(9)
_cell_length_c                   13.3289(9)
_cell_angle_alpha                90
_cell_angle_beta                 101.152(5)
_cell_angle_gamma                90
_cell_volume                     1981.34
loop_
_atom_site_label
_atom_site_type_symbol
_atom_site_fract_x
_atom_site_fract_y
_atom_site_fract_z
Cd1 Cd 0.17450(5) 0.26856(4) 0.61245(4)
Cd2 Cd 0.48801(5) 0.26893(4) 0.48352(4)
S1 S 0.0074(2) 0.38972(14) 0.65960(17)
C1 C -0.0169(7) 0.3439(5) 0.7651(6)
N1 N -0.0355(7) 0.3131(5) 0.8400(6)
S2 S -0.0260(2) 0.15395(16) 0.5427(2)
C2 C -0.1812(8) 0.1929(5) 0.5473(7)
N2 N -0.2937(6) 0.2153(5) 0.5490(5)
S3 S 0.3142(3) 0.00434(15) 0.5442(2)
C3 C 0.3277(8) 0.1052(5) 0.5484(6)
N3 N 0.3361(6) 0.1803(4) 0.5522(5)
S4 S 0.1192(2) 0.09645(15) 0.91110(18)
C4 C 0.1730(8) 0.1568(6) 0.8255(6)
N4 N 0.2126(7) 0.1999(5) 0.7670(6)
N5 N 0.1547(6) 0.3350(4) 0.4468(5)
N6 N 0.2670(6) 0.3341(4) 0.4008(5)
C5 C 0.2517(8) 0.3617(6) 0.3055(6)
H1 H 0.3301 0.3608 0.2745
C6 C 0.1264(8) 0.3918(6) 0.2498(6)
H2 H 0.1192 0.4097 0.1825
C7 C 0.0145(8) 0.3943(5) 0.2963(6)
H3 H -0.0723 0.4152 0.2628
C8 C 0.0338(7) 0.3648(5) 0.3955(6)
H4 H -0.0431 0.3659 0.4281
N7 N 0.3803(6) 0.3551(4) 0.6784(5)
N8 N 0.4958(6) 0.3466(4) 0.6370(5)
C9 C 0.6160(8) 0.3815(6) 0.6851(7)
H5 H 0.6958 0.3750 0.6564
C10 C 0.6286(9) 0.4266(6) 0.7746(7)
H6 H 0.7150 0.4488 0.8069
C11 C 0.5116(10) 0.4375(6) 0.8143(6)
H7 H 0.5137 0.4683 0.8742
C12 C 0.3882(8) 0.4009(6) 0.7619(6)
H8 H 0.3060 0.4092 0.7872
Cd2C Cd -0.01199(5) 0.23107(4) 0.98352(4)
Cd2_2 Cd -0.51199(5) 0.26893(4) 0.48352(4)
N1C N 0.4645(7) 0.1869(5) 0.3400(6)
N2_2 N 0.7063(6) 0.2153(5) 0.5490(5)
S4C S 0.6192(2) 0.40355(15) 0.41110(18)
loop_
_geom_bond_atom_site_label_1
_geom_bond_atom_site_label_2
_geom_bond_site_symmetry_1
_geom_bond_site_symmetry_2
Cd1 S1 1_555 1_555
Cd2 N3 1_555 1_555
S1 C1 1_555 1_555
C1 N1 1_555 1_555
N1 Cd2C 1_555 1_555
S2 Cd1 1_555 1_555
C2 S2 1_555 1_555
N2 C2 1_555 1_555
S3 C3 1_555 1_555
C3 N3 1_555 1_555
N3 Cd1 1_555 1_555
S4 C4 1_555 1_555
C4 N4 1_555 1_555
N4 Cd1 1_555 1_555
N5 Cd1 1_555 1_555
N6 Cd2 1_555 1_555
C5 N6 1_555 1_555
H1 C5 1_555 1_555
C6 C5 1_555 1_555
H2 C6 1_555 1_555
C7 C6 1_555 1_555
H3 C7 1_555 1_555
C8 N5 1_555 1_555
H4 C8 1_555 1_555
N7 Cd1 1_555 1_555
N8 Cd2 1_555 1_555
C9 N8 1_555 1_555
H5 C9 1_555 1_555
C10 C9 1_555 1_555
H6 C10 1_555 1_555
C11 C10 1_555 1_555
H7 C11 1_555 1_555
C12 N7 1_555 1_555
H8 C12 1_555 1_555
Cd2C S4 1_555 1_555
Cd2_2 N2 1_555 1_555
N1C Cd2 1_555 1_555
N2_2 Cd2 1_555 1_555
S4C Cd2 1_555 1_555
N5 N6 1_555 1_555
C7 C8 1_555 1_555
N7 N8 1_555 1_555
C11 C12 1_555 1_555

#END
