
#######################################################################
#
#                 Cambridge Crystallographic Data Centre
#                                CCDC 
#
#######################################################################
#
# If this CIF has been generated from an entry in the Cambridge 
# Structural Database, then it will include bibliographic, chemical, 
# crystal, experimental, refinement or atomic coordinate data resulting 
# from the CCDC's data processing and validation procedures.
#
#######################################################################

data_NAQXIO
_symmetry_cell_setting           orthorhombic
_symmetry_space_group_name_H-M   'P n m a'
_symmetry_Int_Tables_number      62
_space_group_name_Hall           '-P 2ac 2n'
loop_
_symmetry_equiv_pos_site_id
_symmetry_equiv_pos_as_xyz
1 x,y,z
2 1/2-x,-y,1/2+z
3 -x,1/2+y,-z
4 1/2+x,1/2-y,1/2-z
5 -x,-y,-z
6 1/2+x,y,1/2-z
7 x,1/2-y,z
8 1/2-x,1/2+y,1/2+z
_cell_length_a                   11.8634(5)
_cell_length_b                   15.0230(6)
_cell_length_c                   8.1861(3)
_cell_angle_alpha                90
_cell_angle_beta                 90
_cell_angle_gamma                90
_cell_volume                     1458.96
loop_
_atom_site_label
_atom_site_type_symbol
_atom_site_fract_x
_atom_site_fract_y
_atom_site_fract_z
Cd1 Cd 0.23266(3) 0.7500 0.69307(5)
N1 N 0.6019(4) 0.7500 0.6027(6)
C1 C 0.5183(4) 0.7500 0.5340(6)
Se1 Se 0.38763(5) 0.7500 0.42563(8)
N2 N -0.1216(4) 0.7500 0.6158(6)
C2 C -0.0395(4) 0.7500 0.5452(7)
Se2 Se 0.08950(5) 0.7500 0.43166(8)
N3 N 0.2456(3) 0.5915(2) 0.6971(5)
N4 N 0.1490(3) 0.5471(3) 0.6762(6)
C3 C 0.1554(5) 0.4606(4) 0.6440(7)
H1 H 0.0884 0.4295 0.6296
C4 C 0.2538(5) 0.4143(4) 0.6306(7)
H2 H 0.2540 0.3539 0.6058
C5 C 0.3503(5) 0.4588(3) 0.6545(7)
H3 H 0.4197 0.4302 0.6490
C6 C 0.3429(4) 0.5493(3) 0.6877(6)
H4 H 0.4090 0.5813 0.7039
Cd1C Cd -0.26734(3) 0.7500 0.80693(5)
Cd1C_2 Cd 0.73266(3) 0.7500 0.80693(5)
N1C N 0.1019(4) 0.7500 0.8973(6)
N2C N 0.3784(4) 0.7500 0.8842(6)
N3F N 0.2456(3) 0.9085(2) 0.6971(5)
N4F N 0.1490(3) 0.9529(3) 0.6762(6)
C3F C 0.1554(5) 1.0394(4) 0.6440(7)
H1F H 0.0884 1.0705 0.6296
C4F C 0.2538(5) 1.0857(4) 0.6306(7)
H2F H 0.2540 1.1461 0.6058
C5F C 0.3503(5) 1.0412(3) 0.6545(7)
H3F H 0.4197 1.0698 0.6490
C6F C 0.3429(4) 0.9507(3) 0.6877(6)
H4F H 0.4090 0.9187 0.7039
loop_
_geom_bond_atom_site_label_1
_geom_bond_atom_site_label_2
_geom_bond_site_symmetry_1
_geom_bond_site_symmetry_2
Cd1 Se1 1_555 1_555
N1 C1 1_555 1_555
C1 Se1 1_555 1_555
N2 C2 1_555 1_555
C2 Se2 1_555 1_555
Se2 Cd1 1_555 1_555
N3 Cd1 1_555 1_555
N4 N3 1_555 1_555
C3 N4 1_555 1_555
H1 C3 1_555 1_555
C4 C3 1_555 1_555
H2 C4 1_555 1_555
C5 C4 1_555 1_555
H3 C5 1_555 1_555
C6 N3 1_555 1_555
H4 C6 1_555 1_555
Cd1C N2 1_555 1_555
Cd1C_2 N1 1_555 1_555
N1C Cd1 1_555 1_555
N2C Cd1 1_555 1_555
N3F Cd1 1_555 1_555
N4F N3F 1_555 1_555
C3F N4F 1_555 1_555
H1F C3F 1_555 1_555
C4F C3F 1_555 1_555
H2F C4F 1_555 1_555
C5F C4F 1_555 1_555
H3F C5F 1_555 1_555
C6F N3F 1_555 1_555
H4F C6F 1_555 1_555
C5 C6 1_555 1_555
C5F C6F 1_555 1_555

#END
