
#######################################################################
#
#                 Cambridge Crystallographic Data Centre
#                                CCDC 
#
#######################################################################
#
# If this CIF has been generated from an entry in the Cambridge 
# Structural Database, then it will include bibliographic, chemical, 
# crystal, experimental, refinement or atomic coordinate data resulting 
# from the CCDC's data processing and validation procedures.
#
#######################################################################

data_NAQXEK
_symmetry_cell_setting           triclinic
_symmetry_space_group_name_H-M   'P -1'
_symmetry_Int_Tables_number      2
_space_group_name_Hall           '-P 1'
loop_
_symmetry_equiv_pos_site_id
_symmetry_equiv_pos_as_xyz
1 x,y,z
2 -x,-y,-z
_cell_length_a                   12.4219(9)
_cell_length_b                   12.9662(9)
_cell_length_c                   13.2628(10)
_cell_angle_alpha                62.037(8)
_cell_angle_beta                 87.134(9)
_cell_angle_gamma                85.820(9)
_cell_volume                     1881.45
loop_
_atom_site_label
_atom_site_type_symbol
_atom_site_fract_x
_atom_site_fract_y
_atom_site_fract_z
Cd1 Cd 0.0000 0.5000 0.5000
Cd2 Cd 0.25214(2) 0.25429(2) 0.25325(2)
Cd3 Cd 0.5000 0.0000 0.0000
N1 N -0.1072(3) 0.4327(3) 0.4095(3)
C1 C -0.1832(3) 0.3837(3) 0.4136(3)
Se1 Se -0.29948(4) 0.30784(4) 0.42008(5)
N2 N 0.1571(3) 0.4189(3) 0.4576(3)
C2 C 0.2354(3) 0.3934(3) 0.4225(3)
Se2 Se 0.35749(3) 0.35085(4) 0.36836(4)
N3 N 0.3458(3) 0.0477(3) 0.0793(3)
C3 C 0.2692(3) 0.0915(3) 0.0999(3)
Se3 Se 0.14984(3) 0.16075(3) 0.13210(3)
N4 N 0.6068(3) 0.1027(3) 0.0533(4)
C4 C 0.6875(3) 0.1255(3) 0.0731(3)
Se4 Se 0.81385(4) 0.16440(5) 0.10210(5)
N5 N 0.0371(3) 0.6741(3) 0.3307(3)
N6 N -0.0478(3) 0.7441(3) 0.2730(3)
C5 C -0.0264(5) 0.8455(4) 0.1829(4)
H1 H -0.0857 0.8963 0.1421
C6 C 0.0765(5) 0.8815(4) 0.1450(4)
H2 H 0.0874 0.9548 0.0801
C7 C 0.1621(4) 0.8094(4) 0.2029(4)
H3 H 0.2346 0.8293 0.1801
C8 C 0.1369(4) 0.7049(4) 0.2974(4)
H4 H 0.1946 0.6529 0.3403
N7 N 0.1475(2) 0.1461(3) 0.4222(3)
N8 N 0.1858(3) 0.0336(3) 0.4837(3)
C9 C 0.1359(3) -0.0323(4) 0.5812(4)
H5 H 0.1626 -0.1110 0.6244
C10 C 0.0462(3) 0.0066(4) 0.6249(4)
H6 H 0.0135 -0.0435 0.6961
C11 C 0.0078(3) 0.1188(4) 0.5615(4)
H7 H -0.0536 0.1501 0.5857
C12 C 0.0620(3) 0.1858(3) 0.4599(4)
H8 H 0.0364 0.2646 0.4148
N9 N 0.3503(2) 0.3669(3) 0.0793(3)
N10 N 0.3152(3) 0.4803(3) 0.0242(3)
C13 C 0.3584(3) 0.5471(4) -0.0779(4)
H9 H 0.3338 0.6271 -0.1172
C14 C 0.4374(4) 0.5066(4) -0.1301(4)
H10 H 0.4657 0.5569 -0.2037
C15 C 0.4733(4) 0.3925(4) -0.0725(4)
H11 H 0.5286 0.3607 -0.1036
C16 C 0.4259(3) 0.3240(3) 0.0338(4)
H12 H 0.4488 0.2436 0.0748
N11 N 0.3984(2) 0.1142(2) 0.3106(3)
C17 C 0.3952(3) -0.0008(3) 0.3494(3)
H13 H 0.3279 -0.0326 0.3520
C18 C 0.4875(3) -0.0762(3) 0.3862(4)
H14 H 0.4837 -0.1582 0.4149
C19 C 0.5827(3) -0.0281(4) 0.3795(4)
H15 H 0.6480 -0.0753 0.4027
C20 C 0.5817(3) 0.0924(4) 0.3374(4)
H16 H 0.6481 0.1266 0.3324
N12 N 0.4926(3) 0.1625(3) 0.3038(3)
N13 N 0.1035(2) 0.3932(3) 0.1919(3)
N14 N 0.0125(3) 0.3442(3) 0.1883(3)
C21 C -0.0764(3) 0.4130(4) 0.1502(4)
H17 H -0.1404 0.3782 0.1481
C22 C -0.0817(3) 0.5331(4) 0.1130(4)
H18 H -0.1472 0.5792 0.0871
C23 C 0.0114(4) 0.5814(3) 0.1155(4)
H19 H 0.0137 0.6631 0.0898
C24 C 0.1030(3) 0.5069(3) 0.1570(3)
H20 H 0.1681 0.5392 0.1604
N15 N 0.5432(3) -0.1720(3) 0.1714(3)
N16 N 0.4621(3) -0.2386(3) 0.2304(3)
C25 C 0.4888(5) -0.3399(4) 0.3210(4)
H21 H 0.4319 -0.3882 0.3634
C26 C 0.5916(5) -0.3798(4) 0.3578(4)
H22 H 0.6054 -0.4531 0.4232
C27 C 0.6732(5) -0.3113(5) 0.2978(5)
H23 H 0.7465 -0.3341 0.3191
C28 C 0.6441(4) -0.2061(4) 0.2036(4)
H24 H 0.6996 -0.1561 0.1602
Cd2A Cd -0.25214(2) 0.74571(2) 0.74675(2)
Cd3_2 Cd -0.5000 1.0000 1.0000
N1A N 0.1072(3) 0.5673(3) 0.5905(3)
C1A C 0.1832(3) 0.6163(3) 0.5864(3)
Se1A Se 0.29948(4) 0.69216(4) 0.57992(5)
N2A N -0.1571(3) 0.5811(3) 0.5424(3)
C2A C -0.2354(3) 0.6066(3) 0.5775(3)
Se2A Se -0.35749(3) 0.64915(4) 0.63164(4)
N3A N -0.3458(3) 0.9523(3) 0.9207(3)
N3A_2 N 0.6542(3) -0.0477(3) -0.0793(3)
C3A C -0.2692(3) 0.9085(3) 0.9001(3)
Se3A Se -0.14984(3) 0.83925(3) 0.86790(3)
N4A N 0.3932(3) -0.1027(3) -0.0533(4)
C4A C 0.3125(3) -0.1255(3) -0.0731(3)
Se4A Se 0.18615(4) -0.16440(5) -0.10210(5)
N5A N -0.0371(3) 0.3259(3) 0.6693(3)
N6A N 0.0478(3) 0.2559(3) 0.7270(3)
C5A C 0.0264(5) 0.1545(4) 0.8171(4)
H1A H 0.0857 0.1037 0.8579
C6A C -0.0765(5) 0.1185(4) 0.8550(4)
H2A H -0.0874 0.0452 0.9199
C7A C -0.1621(4) 0.1906(4) 0.7971(4)
H3A H -0.2346 0.1707 0.8199
C8A C -0.1369(4) 0.2951(4) 0.7026(4)
H4A H -0.1946 0.3471 0.6597
N7A N -0.1475(2) 0.8539(3) 0.5778(3)
N8A N -0.1858(3) 0.9664(3) 0.5163(3)
C9A C -0.1359(3) 1.0323(4) 0.4188(4)
H5A H -0.1626 1.1110 0.3756
C10A C -0.0462(3) 0.9934(4) 0.3751(4)
H6A H -0.0135 1.0435 0.3039
C11A C -0.0078(3) 0.8812(4) 0.4385(4)
H7A H 0.0536 0.8499 0.4143
C12A C -0.0620(3) 0.8142(3) 0.5401(4)
H8A H -0.0364 0.7354 0.5852
N9A N -0.3503(2) 0.6331(3) 0.9207(3)
N10A N -0.3152(3) 0.5197(3) 0.9758(3)
C13A C -0.3584(3) 0.4529(4) 1.0779(4)
H9A H -0.3338 0.3729 1.1172
C14A C -0.4374(4) 0.4934(4) 1.1301(4)
H10A H -0.4657 0.4431 1.2037
C15A C -0.4733(4) 0.6075(4) 1.0725(4)
H11A H -0.5286 0.6393 1.1036
C16A C -0.4259(3) 0.6760(3) 0.9662(4)
H12A H -0.4488 0.7564 0.9252
N11A N -0.3984(2) 0.8858(2) 0.6894(3)
C17A C -0.3952(3) 1.0008(3) 0.6506(3)
H13A H -0.3279 1.0326 0.6480
C18A C -0.4875(3) 1.0762(3) 0.6138(4)
H14A H -0.4837 1.1582 0.5851
C19A C -0.5827(3) 1.0281(4) 0.6205(4)
H15A H -0.6480 1.0753 0.5973
C20A C -0.5817(3) 0.9076(4) 0.6626(4)
H16A H -0.6481 0.8734 0.6676
N12A N -0.4926(3) 0.8375(3) 0.6962(3)
N13A N -0.1035(2) 0.6068(3) 0.8081(3)
N14A N -0.0125(3) 0.6558(3) 0.8117(3)
C21A C 0.0764(3) 0.5870(4) 0.8498(4)
H17A H 0.1404 0.6218 0.8519
C22A C 0.0817(3) 0.4669(4) 0.8870(4)
H18A H 0.1472 0.4208 0.9129
C23A C -0.0114(4) 0.4186(3) 0.8845(4)
H19A H -0.0137 0.3369 0.9102
C24A C -0.1030(3) 0.4931(3) 0.8430(3)
H20A H -0.1681 0.4608 0.8396
N15A N 0.4568(3) 0.1720(3) -0.1714(3)
N16A N 0.5379(3) 0.2386(3) -0.2304(3)
C25A C 0.5112(5) 0.3399(4) -0.3210(4)
H21A H 0.5681 0.3882 -0.3634
C26A C 0.4084(5) 0.3798(4) -0.3578(4)
H22A H 0.3946 0.4531 -0.4232
C27A C 0.3268(5) 0.3113(5) -0.2978(5)
H23A H 0.2535 0.3341 -0.3191
C28A C 0.3559(4) 0.2061(4) -0.2036(4)
H24A H 0.3004 0.1561 -0.1602
loop_
_geom_bond_atom_site_label_1
_geom_bond_atom_site_label_2
_geom_bond_site_symmetry_1
_geom_bond_site_symmetry_2
Cd1 N1 1_555 1_555
Cd2 Se2 1_555 1_555
Cd3 N3 1_555 1_555
N1 C1 1_555 1_555
C1 Se1 1_555 1_555
N2 Cd1 1_555 1_555
C2 N2 1_555 1_555
Se2 C2 1_555 1_555
N3 C3 1_555 1_555
C3 Se3 1_555 1_555
Se3 Cd2 1_555 1_555
N4 Cd3 1_555 1_555
C4 N4 1_555 1_555
Se4 C4 1_555 1_555
N5 Cd1 1_555 1_555
N6 N5 1_555 1_555
C5 N6 1_555 1_555
H1 C5 1_555 1_555
C6 C5 1_555 1_555
H2 C6 1_555 1_555
C7 C6 1_555 1_555
H3 C7 1_555 1_555
C8 N5 1_555 1_555
H4 C8 1_555 1_555
N7 Cd2 1_555 1_555
N8 N7 1_555 1_555
C9 N8 1_555 1_555
H5 C9 1_555 1_555
C10 C9 1_555 1_555
H6 C10 1_555 1_555
C11 C10 1_555 1_555
H7 C11 1_555 1_555
C12 N7 1_555 1_555
H8 C12 1_555 1_555
N9 Cd2 1_555 1_555
N10 N9 1_555 1_555
C13 N10 1_555 1_555
H9 C13 1_555 1_555
C14 C13 1_555 1_555
H10 C14 1_555 1_555
C15 C14 1_555 1_555
H11 C15 1_555 1_555
C16 N9 1_555 1_555
H12 C16 1_555 1_555
N11 Cd2 1_555 1_555
C17 N11 1_555 1_555
H13 C17 1_555 1_555
C18 C17 1_555 1_555
H14 C18 1_555 1_555
C19 C18 1_555 1_555
H15 C19 1_555 1_555
C20 C19 1_555 1_555
H16 C20 1_555 1_555
N12 N11 1_555 1_555
N13 Cd2 1_555 1_555
N14 N13 1_555 1_555
C21 N14 1_555 1_555
H17 C21 1_555 1_555
C22 C21 1_555 1_555
H18 C22 1_555 1_555
C23 C22 1_555 1_555
H19 C23 1_555 1_555
C24 N13 1_555 1_555
H20 C24 1_555 1_555
N15 Cd3 1_555 1_555
N16 N15 1_555 1_555
C25 N16 1_555 1_555
H21 C25 1_555 1_555
C26 C25 1_555 1_555
H22 C26 1_555 1_555
C27 C26 1_555 1_555
H23 C27 1_555 1_555
C28 N15 1_555 1_555
H24 C28 1_555 1_555
Cd2A Se2A 1_555 1_555
Cd3_2 N3A 1_555 1_555
N1A Cd1 1_555 1_555
C1A N1A 1_555 1_555
Se1A C1A 1_555 1_555
N2A Cd1 1_555 1_555
C2A N2A 1_555 1_555
Se2A C2A 1_555 1_555
N3A C3A 1_555 1_555
N3A_2 Cd3 1_555 1_555
C3A Se3A 1_555 1_555
Se3A Cd2A 1_555 1_555
N4A Cd3 1_555 1_555
C4A N4A 1_555 1_555
Se4A C4A 1_555 1_555
N5A Cd1 1_555 1_555
N6A N5A 1_555 1_555
C5A N6A 1_555 1_555
H1A C5A 1_555 1_555
C6A C5A 1_555 1_555
H2A C6A 1_555 1_555
C7A C6A 1_555 1_555
H3A C7A 1_555 1_555
C8A N5A 1_555 1_555
H4A C8A 1_555 1_555
N7A Cd2A 1_555 1_555
N8A N7A 1_555 1_555
C9A N8A 1_555 1_555
H5A C9A 1_555 1_555
C10A C9A 1_555 1_555
H6A C10A 1_555 1_555
C11A C10A 1_555 1_555
H7A C11A 1_555 1_555
C12A N7A 1_555 1_555
H8A C12A 1_555 1_555
N9A Cd2A 1_555 1_555
N10A N9A 1_555 1_555
C13A N10A 1_555 1_555
H9A C13A 1_555 1_555
C14A C13A 1_555 1_555
H10A C14A 1_555 1_555
C15A C14A 1_555 1_555
H11A C15A 1_555 1_555
C16A N9A 1_555 1_555
H12A C16A 1_555 1_555
N11A Cd2A 1_555 1_555
C17A N11A 1_555 1_555
H13A C17A 1_555 1_555
C18A C17A 1_555 1_555
H14A C18A 1_555 1_555
C19A C18A 1_555 1_555
H15A C19A 1_555 1_555
C20A C19A 1_555 1_555
H16A C20A 1_555 1_555
N12A N11A 1_555 1_555
N13A Cd2A 1_555 1_555
N14A N13A 1_555 1_555
C21A N14A 1_555 1_555
H17A C21A 1_555 1_555
C22A C21A 1_555 1_555
H18A C22A 1_555 1_555
C23A C22A 1_555 1_555
H19A C23A 1_555 1_555
C24A N13A 1_555 1_555
H20A C24A 1_555 1_555
N15A Cd3 1_555 1_555
N16A N15A 1_555 1_555
C25A N16A 1_555 1_555
H21A C25A 1_555 1_555
C26A C25A 1_555 1_555
H22A C26A 1_555 1_555
C27A C26A 1_555 1_555
H23A C27A 1_555 1_555
C28A N15A 1_555 1_555
H24A C28A 1_555 1_555
C7 C8 1_555 1_555
C11 C12 1_555 1_555
C15 C16 1_555 1_555
C20 N12 1_555 1_555
C23 C24 1_555 1_555
C27 C28 1_555 1_555
C7A C8A 1_555 1_555
C11A C12A 1_555 1_555
C15A C16A 1_555 1_555
C20A N12A 1_555 1_555
C23A C24A 1_555 1_555
C27A C28A 1_555 1_555

#END
