
#######################################################################
#
#                 Cambridge Crystallographic Data Centre
#                                CCDC 
#
#######################################################################
#
# If this CIF has been generated from an entry in the Cambridge 
# Structural Database, then it will include bibliographic, chemical, 
# crystal, experimental, refinement or atomic coordinate data resulting 
# from the CCDC's data processing and validation procedures.
#
#######################################################################

data_NARBEO
_symmetry_cell_setting           triclinic
_symmetry_space_group_name_H-M   'P -1'
_symmetry_Int_Tables_number      2
_space_group_name_Hall           '-P 1'
loop_
_symmetry_equiv_pos_site_id
_symmetry_equiv_pos_as_xyz
1 x,y,z
2 -x,-y,-z
_cell_length_a                   8.156(3)
_cell_length_b                   8.489(3)
_cell_length_c                   10.013(4)
_cell_angle_alpha                75.262(6)
_cell_angle_beta                 66.434(6)
_cell_angle_gamma                78.764(6)
_cell_volume                     611.137
loop_
_atom_site_label
_atom_site_type_symbol
_atom_site_fract_x
_atom_site_fract_y
_atom_site_fract_z
Ni1 Ni 1.0000 -0.5000 -0.5000
O1 O 0.94608(19) -0.48349(16) -0.69643(14)
N1 N 0.8581(2) -0.27207(18) -0.48461(16)
N2 N 0.7788(2) -0.62375(18) -0.36227(17)
C1 C 0.9586(3) -0.4789(2) -0.93418(19)
H1 H 0.8682 -0.3920 -0.9248
C2 C 1.0022(2) -0.5629(2) -0.79941(19)
N3 N 0.5627(2) -0.3768(2) -0.37502(19)
O2 O 0.1476(3) 0.0482(2) 0.08585(19)
O3 O 0.3688(3) 0.1343(2) -0.1231(2)
C3 C 0.6777(3) -0.2632(2) -0.4914(2)
H2 H 0.6187 -0.1529 -0.4859
H3 H 0.6930 -0.2844 -0.5866
C4 C 0.6088(3) -0.5474(2) -0.3858(2)
H4 H 0.6198 -0.5577 -0.4834
H5 H 0.5108 -0.6083 -0.3130
C5 C 0.4992(3) -0.3463(3) -0.2237(2)
H6 H 0.6000 -0.3676 -0.1911
H7 H 0.4121 -0.4219 -0.1574
C6 C 0.2836(3) 0.0268(3) -0.0371(2)
C7 C 0.4135(4) -0.1722(3) -0.2125(2)
H8 H 0.5052 -0.0974 -0.2657
H9 H 0.3254 -0.1448 -0.2594
C8 C 0.3227(4) -0.1501(3) -0.0529(3)
H10 H 0.2107 -0.1999 -0.0082
H11 H 0.3993 -0.2075 0.0014
O4 O 1.0916(3) -0.70048(19) -0.79656(17)
C9 C 0.9760(3) -0.1559(2) -0.6049(2)
H12 H 0.9374 -0.0456 -0.5856
H13 H 0.9695 -0.1574 -0.6992
C10 C 0.8313(3) -0.7933(2) -0.3888(2)
H14 H 0.8237 -0.7988 -0.4817
H15 H 0.7509 -0.8667 -0.3092
H16 H 0.132(6) 0.138(5) 0.109(5)
Ni1_2 Ni 1.0000 -0.5000 -1.5000
O1A O 1.05392(19) -0.51651(16) -1.30357(14)
O1A_2 O 1.05392(19) -0.51651(16) -0.30357(14)
N1A N 1.1419(2) -0.72793(18) -0.51539(16)
N2A N 1.2212(2) -0.37625(18) -0.63773(17)
C1A C 1.0414(3) -0.5211(2) -1.06582(19)
H1A H 1.1318 -0.6080 -1.0752
C2A C 0.9978(2) -0.4371(2) -1.20059(19)
N3A N 1.4373(2) -0.6232(2) -0.62498(19)
O2A O 1.8524(3) -1.0482(2) -1.08585(19)
O3A O 1.6312(3) -1.1343(2) -0.8769(2)
C3A C 1.3223(3) -0.7368(2) -0.5086(2)
H2A H 1.3813 -0.8471 -0.5141
H3A H 1.3070 -0.7156 -0.4134
C4A C 1.3912(3) -0.4526(2) -0.6142(2)
H4A H 1.3802 -0.4423 -0.5166
H5A H 1.4892 -0.3917 -0.6870
C5A C 1.5008(3) -0.6537(3) -0.7763(2)
H6A H 1.4000 -0.6324 -0.8089
H7A H 1.5879 -0.5781 -0.8426
C6A C 1.7164(3) -1.0268(3) -0.9629(2)
C7A C 1.5865(4) -0.8278(3) -0.7875(2)
H8A H 1.4948 -0.9026 -0.7343
H9A H 1.6746 -0.8552 -0.7406
C8A C 1.6773(4) -0.8499(3) -0.9471(3)
H10A H 1.7893 -0.8001 -0.9918
H11A H 1.6007 -0.7925 -1.0014
O4A O 0.9084(3) -0.29952(19) -1.20344(17)
C9A C 1.0240(3) -0.8441(2) -0.3951(2)
H12A H 1.0626 -0.9544 -0.4144
H13A H 1.0305 -0.8426 -0.3008
C10A C 1.1687(3) -0.2067(2) -0.6112(2)
H14A H 1.1763 -0.2012 -0.5183
H15A H 1.2491 -0.1333 -0.6908
H16A H 1.868(6) -1.138(5) -1.109(5)
loop_
_geom_bond_atom_site_label_1
_geom_bond_atom_site_label_2
_geom_bond_site_symmetry_1
_geom_bond_site_symmetry_2
Ni1 O1 1_555 1_555
O1 C2 1_555 1_555
N1 Ni1 1_555 1_555
N2 Ni1 1_555 1_555
C1 H1 1_555 1_555
C2 C1 1_555 1_555
N3 C3 1_555 1_555
O2 C6 1_555 1_555
O3 C6 1_555 1_555
C3 N1 1_555 1_555
H2 C3 1_555 1_555
H3 C3 1_555 1_555
C4 N2 1_555 1_555
H4 C4 1_555 1_555
H5 C4 1_555 1_555
C5 N3 1_555 1_555
H6 C5 1_555 1_555
H7 C5 1_555 1_555
C6 C8 1_555 1_555
C7 C5 1_555 1_555
H8 C7 1_555 1_555
H9 C7 1_555 1_555
C8 C7 1_555 1_555
H10 C8 1_555 1_555
H11 C8 1_555 1_555
O4 C2 1_555 1_555
C9 N1 1_555 1_555
H12 C9 1_555 1_555
H13 C9 1_555 1_555
C10 N2 1_555 1_555
H14 C10 1_555 1_555
H15 C10 1_555 1_555
H16 O2 1_555 1_555
Ni1_2 O1A 1_555 1_555
O1A C2A 1_555 1_555
O1A_2 Ni1 1_555 1_555
N1A Ni1 1_555 1_555
N2A Ni1 1_555 1_555
C1A C1 1_555 1_555
H1A C1A 1_555 1_555
C2A C1A 1_555 1_555
N3A C3A 1_555 1_555
O2A C6A 1_555 1_555
O3A C6A 1_555 1_555
C3A N1A 1_555 1_555
H2A C3A 1_555 1_555
H3A C3A 1_555 1_555
C4A N2A 1_555 1_555
H4A C4A 1_555 1_555
H5A C4A 1_555 1_555
C5A N3A 1_555 1_555
H6A C5A 1_555 1_555
H7A C5A 1_555 1_555
C6A C8A 1_555 1_555
C7A C5A 1_555 1_555
H8A C7A 1_555 1_555
H9A C7A 1_555 1_555
C8A C7A 1_555 1_555
H10A C8A 1_555 1_555
H11A C8A 1_555 1_555
O4A C2A 1_555 1_555
C9A C10 1_555 1_555
H12A C9A 1_555 1_555
H13A C9A 1_555 1_555
C10A C9 1_555 1_555
H14A C10A 1_555 1_555
H15A C10A 1_555 1_555
H16A O2A 1_555 1_555
N3 C4 1_555 1_555
N1A C9A 1_555 1_555
N2A C10A 1_555 1_555
N3A C4A 1_555 1_555

#END
