
#######################################################################
#
#                 Cambridge Crystallographic Data Centre
#                                CCDC 
#
#######################################################################
#
# If this CIF has been generated from an entry in the Cambridge 
# Structural Database, then it will include bibliographic, chemical, 
# crystal, experimental, refinement or atomic coordinate data resulting 
# from the CCDC's data processing and validation procedures.
#
#######################################################################

data_NARCOA
_symmetry_cell_setting           triclinic
_symmetry_space_group_name_H-M   'P -1'
_symmetry_Int_Tables_number      2
_space_group_name_Hall           '-P 1'
loop_
_symmetry_equiv_pos_site_id
_symmetry_equiv_pos_as_xyz
1 x,y,z
2 -x,-y,-z
_cell_length_a                   11.4780(7)
_cell_length_b                   12.2432(7)
_cell_length_c                   16.8561(9)
_cell_angle_alpha                93.360(4)
_cell_angle_beta                 90.247(4)
_cell_angle_gamma                101.337(4)
_cell_volume                     2318.23
loop_
_atom_site_label
_atom_site_type_symbol
_atom_site_fract_x
_atom_site_fract_y
_atom_site_fract_z
Ni1 Ni 0.45800(6) 0.29577(6) 0.20819(4)
Ni2 Ni -0.02910(6) -0.19379(6) 0.34233(4)
S1 S 0.83300(14) 0.40900(12) 0.31833(8)
S2 S 0.08979(14) 0.20004(12) 0.29953(8)
O1 O 0.6406(3) 0.3582(3) 0.2090(2)
O2 O 0.4905(4) 0.1913(4) 0.1102(2)
H1 H 0.4285 0.1686 0.0847
H2 H 0.502(4) 0.136(3) 0.134(3)
O3 O 0.6542(4) 0.4076(5) 0.0843(2)
O4 O 0.4372(4) 0.4201(4) 0.1298(2)
H3 H 0.4977 0.4366 0.1038
H4 H 0.3832(19) 0.408(6) 0.093(2)
O5 O 0.9561(3) 0.6398(3) 0.3474(2)
O6 O -0.1527(5) -0.1989(4) 0.4347(3)
H5 H -0.1598 -0.1353 0.4484
H6 H -0.200(6) -0.234(2) 0.472(3)
O7 O 1.0983(4) 0.6145(4) 0.4317(2)
O8 O 0.1151(4) -0.1622(3) 0.4222(2)
H7 H 0.1295 -0.2215 0.4356
H8 H 0.124(5) -0.124(3) 0.4672(18)
O9 O 0.2771(3) 0.2325(3) 0.1953(2)
O11 O 0.2690(4) 0.1625(4) 0.0698(2)
O13 O -0.0225(4) -0.0269(3) 0.3398(2)
O14 O -0.1265(4) 0.0195(3) 0.4436(2)
N1 N 0.4341(4) 0.4093(4) 0.2984(3)
N2 N 0.4833(4) 1.1744(4) 0.2852(3)
N3 N 0.0931(4) -0.1827(4) 0.2503(3)
N4 N 0.8288(4) -0.2274(4) 0.2595(3)
N5 N 1.0180(4) 0.4407(4) 0.2241(3)
N6 N -0.0973(4) 0.1430(4) 0.2027(3)
C1 C 0.8328(5) 0.4074(5) 0.1538(3)
C2 C 0.8932(6) 0.4081(5) 0.0835(4)
H12 H 0.8509 0.3995 0.0356
C3 C 1.0130(6) 0.4209(6) 0.0827(4)
H13 H 1.0534 0.4179 0.0351
C4 C 1.0729(6) 0.4385(5) 0.1540(4)
H14 H 1.1554 0.4495 0.1539
C5 C 0.7189(6) -0.1661(6) 0.1562(5)
H15 H 0.7173 -0.1149 0.1178
C6 C 0.8998(5) 0.4206(4) 0.2241(3)
C7 C 0.6995(5) 0.3910(5) 0.1496(3)
C8 C 0.9594(6) 0.4563(5) 0.3824(3)
H16 H 0.9382 0.4337 0.4355
H17 H 1.0222 0.4185 0.3647
C9 C 1.0086(5) 0.5816(5) 0.3874(3)
C10 C 0.0872(5) 0.1594(5) 0.1360(3)
C11 C 0.0278(6) 0.1301(5) 0.0642(4)
H18 H 0.0700 0.1254 0.0176
C12 C -0.0950(6) 0.1077(6) 0.0623(4)
H19 H -0.1372 0.0861 0.0149
C13 C -0.1522(6) 0.1184(5) 0.1322(4)
H20 H -0.2347 0.1079 0.1306
C14 C 0.8175(6) -0.1576(6) 0.2036(4)
H21 H 0.8809 -0.0990 0.1964
C15 C 0.0204(5) 0.1649(4) 0.2045(3)
C16 C 0.2206(5) 0.1867(5) 0.1334(3)
C17 C -0.0319(5) 0.1633(5) 0.3658(3)
H22 H -0.0136 0.2085 0.4151
H23 H -0.1019 0.1828 0.3425
C18 C -0.0621(5) 0.0420(5) 0.3852(3)
C19 C 0.3435(6) 0.4636(6) 0.2980(4)
H24 H 0.2809 0.4375 0.2622
C20 C 0.3378(6) 0.5547(6) 0.3469(4)
H25 H 0.2726 0.5890 0.3437
C21 C 0.4289(6) 0.5971(5) 0.4019(4)
C22 C 0.5213(6) 0.5419(5) 0.4041(3)
H26 H 0.5842 0.5663 0.4399
C23 C 0.5208(5) 0.4486(5) 0.3523(3)
H27 H 0.5841 0.4117 0.3552
C24 C 0.4263(8) 0.6984(6) 0.4561(5)
H28 H 0.4852 0.7084 0.4980
H29 H 0.341(6) 0.679(6) 0.501(4)
C25 C 0.4064(14) 0.8052(12) 0.4286(10)
H30 H 0.3405 0.7916 0.3907
H31 H 0.3862 0.8511 0.4733
C26 C 0.5134(12) 0.8635(16) 0.3912(9)
H32 H 0.5290 0.8210 0.3434
H33 H 0.5809 0.8703 0.4272
C27 C 0.5807(6) 1.1299(6) 0.2857(4)
H34 H 0.6457 1.1631 0.2569
C28 C 0.5903(8) 1.0401(7) 0.3253(6)
H35 H 0.6605 1.0129 0.3235
C29 C 0.4961(9) 0.9881(8) 0.3687(6)
C30 C 0.3956(8) 1.0359(9) 0.3714(6)
H36 H 0.3314 1.0070 0.4025
C31 C 0.3927(6) 1.1261(7) 0.3275(4)
H37 H 0.3235 1.1549 0.3274
C32 C 0.1012(6) -0.2692(5) 0.2004(4)
H38 H 0.0486 -0.3364 0.2063
C33 C 0.1824(6) -0.2649(6) 0.1411(4)
H39 H 0.1840 -0.3283 0.1082
C34 C 0.2611(5) -0.1684(5) 0.1298(3)
C35 C 0.2525(6) -0.0783(5) 0.1801(4)
H40 H 0.3040 -0.0104 0.1750
C36 C 0.1681(6) -0.0881(5) 0.2382(4)
H41 H 0.1632 -0.0251 0.2706
C37 C 0.3538(5) -0.1580(7) 0.0651(4)
H42 H 0.3352 -0.2227 0.0279
H43 H 0.3502 -0.0925 0.0361
C38 C 0.4783(5) -0.1485(6) 0.0974(4)
H44 H 0.4910 -0.0945 0.1426
H45 H 0.5346 -0.1211 0.0569
C39 C 0.5018(6) -0.2583(6) 0.1228(5)
H46 H 0.4982 -0.3092 0.0761
H47 H 0.4388 -0.2900 0.1578
C40 C 0.7392(6) -0.3126(5) 0.2633(4)
H48 H 0.7463 -0.3664 0.2988
C41 C 0.6359(6) -0.3279(5) 0.2189(4)
H49 H 0.5762 -0.3900 0.2250
C42 C 0.6212(6) -0.2512(5) 0.1654(4)
Ni1_2 Ni 0.45800(6) 1.29577(6) 0.20819(4)
Ni2_2 Ni 0.97090(6) 0.80621(6) 0.34233(4)
Ni2_3 Ni 0.97090(6) -0.19379(6) 0.34233(4)
O5_2 O -0.0439(3) -0.3602(3) 0.3474(2)
N2_2 N 0.4833(4) 0.1744(4) 0.2852(3)
N4_2 N -0.1712(4) -0.2274(4) 0.2595(3)
O10 O 0.2777(4) 0.4044(5) 0.0065(3)
H9 H 0.2785 0.3426 -0.0190
H10 H 0.2984 0.4579 -0.0236
O12 O -0.2025(8) -0.3939(10) 0.5221(5)
H11 H -0.219(7) -0.449(4) 0.491(4)
C43? C 0.453(2) 0.8003(14) 0.3919(11)
C44? C 0.481(2) 0.9138(12) 0.4411(9)
H50? H 0.5193 0.7914 0.3585
H51? H 0.3834 0.7970 0.3580
H52? H 0.5538 0.9227 0.4726
H53? H 0.4162 0.9261 0.4747
loop_
_geom_bond_atom_site_label_1
_geom_bond_atom_site_label_2
_geom_bond_site_symmetry_1
_geom_bond_site_symmetry_2
Ni1 O1 1_555 1_555
Ni2 O6 1_555 1_555
S1 C6 1_555 1_555
S2 C15 1_555 1_555
O1 C7 1_555 1_555
O2 Ni1 1_555 1_555
H1 O2 1_555 1_555
H2 O2 1_555 1_555
O3 C7 1_555 1_555
O4 Ni1 1_555 1_555
H3 O4 1_555 1_555
H4 O4 1_555 1_555
O5 C9 1_555 1_555
O6 H5 1_555 1_555
H6 O6 1_555 1_555
O7 C9 1_555 1_555
O8 Ni2 1_555 1_555
H7 O8 1_555 1_555
H8 O8 1_555 1_555
O9 Ni1 1_555 1_555
O10 H9 1_555 1_555
H10 O10 1_555 1_555
O11 C16 1_555 1_555
O12 H11 1_555 1_555
O13 Ni2 1_555 1_555
O14 C18 1_555 1_555
N1 Ni1 1_555 1_555
N2 C27 1_555 1_555
N3 Ni2 1_555 1_555
N4 C14 1_555 1_555
N5 C4 1_555 1_555
N6 C13 1_555 1_555
C1 C2 1_555 1_555
C2 H12 1_555 1_555
C3 C2 1_555 1_555
H13 C3 1_555 1_555
C4 C3 1_555 1_555
H14 C4 1_555 1_555
C5 H15 1_555 1_555
C6 N5 1_555 1_555
C7 C1 1_555 1_555
C8 S1 1_555 1_555
H16 C8 1_555 1_555
H17 C8 1_555 1_555
C9 C8 1_555 1_555
C10 C11 1_555 1_555
C11 H18 1_555 1_555
C12 C11 1_555 1_555
H19 C12 1_555 1_555
C13 C12 1_555 1_555
H20 C13 1_555 1_555
C14 C5 1_555 1_555
H21 C14 1_555 1_555
C15 N6 1_555 1_555
C16 O9 1_555 1_555
C17 S2 1_555 1_555
H22 C17 1_555 1_555
H23 C17 1_555 1_555
C18 O13 1_555 1_555
C19 N1 1_555 1_555
H24 C19 1_555 1_555
C20 C19 1_555 1_555
H25 C20 1_555 1_555
C21 C20 1_555 1_555
C22 C21 1_555 1_555
H26 C22 1_555 1_555
C23 N1 1_555 1_555
H27 C23 1_555 1_555
C24 C21 1_555 1_555
H28 C24 1_555 1_555
H29 C24 1_555 1_555
C25 C24 1_555 1_555
H30 C25 1_555 1_555
H31 C25 1_555 1_555
C26 C25 1_555 1_555
H32 C26 1_555 1_555
H33 C26 1_555 1_555
C27 H34 1_555 1_555
C28 C27 1_555 1_555
H35 C28 1_555 1_555
C29 C26 1_555 1_555
C30 C29 1_555 1_555
H36 C30 1_555 1_555
C31 N2 1_555 1_555
H37 C31 1_555 1_555
C32 N3 1_555 1_555
H38 C32 1_555 1_555
C33 C32 1_555 1_555
H39 C33 1_555 1_555
C34 C33 1_555 1_555
C35 C34 1_555 1_555
H40 C35 1_555 1_555
C36 N3 1_555 1_555
H41 C36 1_555 1_555
C37 C34 1_555 1_555
H42 C37 1_555 1_555
H43 C37 1_555 1_555
C38 C37 1_555 1_555
H44 C38 1_555 1_555
H45 C38 1_555 1_555
C39 C38 1_555 1_555
H46 C39 1_555 1_555
H47 C39 1_555 1_555
C40 N4 1_555 1_555
H48 C40 1_555 1_555
C41 C40 1_555 1_555
H49 C41 1_555 1_555
C42 C5 1_555 1_555
Ni1_2 N2 1_555 1_555
Ni2_2 O5 1_555 1_555
Ni2_3 N4 1_555 1_555
O5_2 Ni2 1_555 1_555
N2_2 Ni1 1_555 1_555
N4_2 Ni2 1_555 1_555
C1 C6 1_555 1_555
C10 C15 1_555 1_555
C10 C16 1_555 1_555
C17 C18 1_555 1_555
C22 C23 1_555 1_555
C28 C29 1_555 1_555
C30 C31 1_555 1_555
C35 C36 1_555 1_555
C39 C42 1_555 1_555
C41 C42 1_555 1_555

#END
