
#######################################################################
#
#                 Cambridge Crystallographic Data Centre
#                                CCDC 
#
#######################################################################
#
# If this CIF has been generated from an entry in the Cambridge 
# Structural Database, then it will include bibliographic, chemical, 
# crystal, experimental, refinement or atomic coordinate data resulting 
# from the CCDC's data processing and validation procedures.
#
#######################################################################

data_NARGAQ
_symmetry_cell_setting           orthorhombic
_symmetry_space_group_name_H-M   'P 21 21 21'
_symmetry_Int_Tables_number      19
_space_group_name_Hall           'P 2ac 2ab'
loop_
_symmetry_equiv_pos_site_id
_symmetry_equiv_pos_as_xyz
1 x,y,z
2 1/2-x,-y,1/2+z
3 1/2+x,1/2-y,-z
4 -x,1/2+y,1/2-z
_cell_length_a                   9.8701(2)
_cell_length_b                   11.1236(2)
_cell_length_c                   15.8857(3)
_cell_angle_alpha                90
_cell_angle_beta                 90
_cell_angle_gamma                90
_cell_volume                     1744.11
loop_
_atom_site_label
_atom_site_type_symbol
_atom_site_fract_x
_atom_site_fract_y
_atom_site_fract_z
Co1 Co 0.33643(3) 0.09850(2) 0.448473(17)
O1 O 0.29756(18) 0.12561(14) 0.32445(10)
O2 O 0.2348(3) 0.3159(2) 0.31016(12)
O3 O 0.33194(14) 0.08528(14) 0.58247(9)
O4 O 0.14013(13) 0.10274(14) 0.51577(9)
N1 N 0.54748(16) 0.08670(16) 0.43005(11)
N2 N 0.85578(18) 0.19663(17) 0.53193(12)
N3 N 0.31038(17) -0.09015(16) 0.43213(11)
N4 N 0.0753(3) -0.2826(2) 0.3196(2)
C1 C 0.2692(3) 0.2164(2) 0.28081(15)
C2 C 0.2850(4) 0.2061(3) 0.18680(17)
H1 H 0.2574 0.2800 0.1607
H2 H 0.2295 0.1415 0.1664
H3 H 0.3781 0.1902 0.1734
C3 C 0.2044(2) 0.0969(2) 0.58399(13)
C4 C 0.1320(3) 0.1088(3) 0.66696(16)
H4 H 0.1149 0.1922 0.6783
H5 H 0.1873 0.0758 0.7109
H6 H 0.0476 0.0661 0.6645
C5 C 0.63409(19) 0.13182(17) 0.48577(13)
H7 H 0.6004 0.1597 0.5368
C6 C 0.7730(2) 0.13926(18) 0.47128(14)
C7 C 0.8222(2) 0.0958(2) 0.39569(15)
H8 H 0.9142 0.1003 0.3833
C8 C 0.7331(3) 0.0460(3) 0.33918(18)
H9 H 0.7648 0.0141 0.2888
C9 C 0.5966(3) 0.0434(2) 0.35728(17)
H10 H 0.5370 0.0108 0.3181
C10 C 0.2100(2) -0.1291(2) 0.38273(15)
H11 H 0.1561 -0.0725 0.3557
C11 C 0.1821(3) -0.2509(2) 0.36968(15)
C12 C 0.2634(3) -0.3333(2) 0.41122(19)
H12 H 0.2483 -0.4153 0.4046
C13 C 0.3657(3) -0.2935(2) 0.4620(2)
H13 H 0.4208 -0.3483 0.4900
C14 C 0.3872(3) -0.1709(2) 0.47158(18)
H14 H 0.4569 -0.1445 0.5064
H15 H 0.837(3) 0.183(3) 0.5842(12)
H16 H 0.937(2) 0.176(3) 0.523(2)
H17 H 0.064(3) -0.3552(18) 0.306(2)
H18 H 0.037(3) -0.225(2) 0.2918(19)
Co1B Co 0.83643(3) 0.40150(2) 0.551527(17)
N2B N 0.35578(18) 0.30337(17) 0.46807(12)
O5 O 0.00884(19) 0.45558(19) 0.28588(13)
H19 H 0.071(3) 0.409(3) 0.300(2)
H20 H -0.006(3) 0.482(3) 0.2415(14)
loop_
_geom_bond_atom_site_label_1
_geom_bond_atom_site_label_2
_geom_bond_site_symmetry_1
_geom_bond_site_symmetry_2
Co1 O1 1_555 1_555
O1 C1 1_555 1_555
O2 C1 1_555 1_555
O3 Co1 1_555 1_555
O4 Co1 1_555 1_555
N1 Co1 1_555 1_555
N2 C6 1_555 1_555
N3 Co1 1_555 1_555
N4 C11 1_555 1_555
C1 C2 1_555 1_555
C2 H1 1_555 1_555
H2 C2 1_555 1_555
H3 C2 1_555 1_555
C3 O3 1_555 1_555
C4 C3 1_555 1_555
H4 C4 1_555 1_555
H5 C4 1_555 1_555
H6 C4 1_555 1_555
C5 N1 1_555 1_555
H7 C5 1_555 1_555
C6 C5 1_555 1_555
C7 C6 1_555 1_555
H8 C7 1_555 1_555
C8 C7 1_555 1_555
H9 C8 1_555 1_555
C9 N1 1_555 1_555
H10 C9 1_555 1_555
C10 N3 1_555 1_555
H11 C10 1_555 1_555
C11 C10 1_555 1_555
C12 C11 1_555 1_555
H12 C12 1_555 1_555
C13 C12 1_555 1_555
H13 C13 1_555 1_555
C14 N3 1_555 1_555
H14 C14 1_555 1_555
H15 N2 1_555 1_555
H16 N2 1_555 1_555
H17 N4 1_555 1_555
H18 N4 1_555 1_555
O5 H19 1_555 1_555
H20 O5 1_555 1_555
Co1B N2 1_555 1_555
N2B Co1 1_555 1_555
O4 C3 1_555 1_555
C8 C9 1_555 1_555
C13 C14 1_555 1_555

#END
