
#######################################################################
#
#                 Cambridge Crystallographic Data Centre
#                                CCDC 
#
#######################################################################
#
# If this CIF has been generated from an entry in the Cambridge 
# Structural Database, then it will include bibliographic, chemical, 
# crystal, experimental, refinement or atomic coordinate data resulting 
# from the CCDC's data processing and validation procedures.
#
#######################################################################

data_NARMAW
_symmetry_cell_setting           triclinic
_symmetry_space_group_name_H-M   'P -1'
_symmetry_Int_Tables_number      2
_space_group_name_Hall           '-P 1'
loop_
_symmetry_equiv_pos_site_id
_symmetry_equiv_pos_as_xyz
1 x,y,z
2 -x,-y,-z
_cell_length_a                   10.404(5)
_cell_length_b                   11.538(5)
_cell_length_c                   14.565(5)
_cell_angle_alpha                90.083(5)
_cell_angle_beta                 94.557(5)
_cell_angle_gamma                90.084(5)
_cell_volume                     1742.87
loop_
_atom_site_label
_atom_site_type_symbol
_atom_site_fract_x
_atom_site_fract_y
_atom_site_fract_z
Ni1 Ni 0.75028(12) 0.41027(8) 0.25002(8)
F1 F 1.1081(5) -0.0752(4) 0.2040(3)
F2 F 0.3914(5) -0.0757(4) 0.2953(3)
N1 N 0.7093(6) 0.0184(5) 0.0228(4)
N2 N 0.7927(6) 0.0170(5) 0.4784(4)
N3 N 1.0551(7) -0.2555(5) 0.3219(4)
N4 N 0.9103(7) -0.4697(5) 0.2802(4)
N5 N 0.4434(7) -0.2556(5) 0.1785(4)
N6 N 0.5891(6) -0.4705(4) 0.2184(4)
O1 O 0.6259(6) 0.2711(4) 0.2043(4)
O2 O 0.8768(6) 0.3310(4) -0.0064(4)
O3 O 0.8732(5) 0.2710(4) 0.2960(4)
C1 C 0.9968(7) -0.1480(6) 0.3307(5)
C2 C 0.6047(8) 0.0796(6) 0.1550(5)
C3 C 0.7445(8) 0.2129(6) 0.0778(5)
C4 C 0.8706(7) -0.0076(6) 0.4086(5)
C5 C 0.7557(8) 0.2129(6) 0.4213(5)
C6 C 0.9265(8) -0.3784(6) 0.2113(5)
H1 H 0.8545 -0.3251 0.2112
H2 H 0.9248 -0.4136 0.1507
C7 C 0.5009(8) -0.1481(6) 0.1697(5)
C8 C 0.4748(8) -0.0561(6) 0.2289(6)
C9 C 0.6300(8) -0.0076(6) 0.0913(5)
C10 C 0.8970(7) 0.0804(6) 0.3459(5)
C11 C 0.8423(8) 0.1955(6) 0.3518(6)
C12 C 1.0227(8) -0.0557(6) 0.2695(5)
O4 O 0.8130(6) 0.4049(4) 0.1215(4)
C13 C 0.6593(8) 0.1955(6) 0.1481(5)
C14 C 0.5812(8) -0.4176(6) 0.1255(5)
H3 H 0.5815 -0.4784 0.0795
H4 H 0.6566 -0.3693 0.1198
C15 C 0.6839(8) 0.3237(6) 0.4368(5)
C16 C 0.5264(8) 0.0519(6) 0.2224(5)
H5 H 0.5078 0.1082 0.2651
C17 C 0.5730(8) -0.3781(6) 0.2878(5)
H6 H 0.6450 -0.3245 0.2878
H7 H 0.5748 -0.4130 0.3485
C18 C 0.8151(8) 0.3230(7) 0.0635(6)
C19 C 1.0503(9) -0.3115(6) 0.2294(6)
H8 H 1.1231 -0.3635 0.2266
H9 H 1.0562 -0.2527 0.1824
C20 C 0.9739(8) 0.0520(6) 0.2778(5)
H10 H 0.9933 0.1085 0.2356
C21 C 0.9211(8) -0.1189(6) 0.3992(5)
H11 H 0.9021 -0.1753 0.4416
C22 C 0.5776(8) -0.1209(6) 0.1004(5)
H12 H 0.5959 -0.1780 0.0582
C23 C 0.7519(9) -0.0709(6) 0.5434(6)
H13 H 0.7290 -0.0331 0.5993
H14 H 0.8231 -0.1231 0.5596
C24 C 0.4483(9) -0.3114(7) 0.2695(6)
H15 H 0.3757 -0.3638 0.2720
H16 H 0.4421 -0.2528 0.3168
C25 C 0.9201(8) -0.4187(6) 0.3748(5)
H17 H 0.9207 -0.4807 0.4197
H18 H 0.8449 -0.3710 0.3821
C26 C 0.7480(8) -0.0703(6) -0.0426(5)
H19 H 0.7690 -0.0327 -0.0991
H20 H 0.6761 -0.1223 -0.0576
C27 C 0.7625(7) 0.1246(6) 0.0182(5)
H21 H 0.8153 0.1386 -0.0292
C28 C 0.7406(8) 0.1241(6) 0.4813(5)
H22 H 0.6890 0.1388 0.5293
C29 C 0.4587(8) -0.3435(6) 0.1070(5)
H23 H 0.4618 -0.3051 0.0480
H24 H 0.3839 -0.3941 0.1031
C30 C 1.0419(8) -0.3447(6) 0.3936(6)
H25 H 1.0394 -0.3070 0.4530
H26 H 1.1170 -0.3948 0.3966
C31 C 0.6388(10) -0.1391(8) 0.5024(8)
H27 H 0.6143 -0.1957 0.5461
H28 H 0.6617 -0.1775 0.4476
H29 H 0.5677 -0.0877 0.4874
C32 C 0.8606(10) -0.1384(8) -0.0048(8)
H30 H 0.8825 -0.1949 -0.0494
H31 H 0.8397 -0.1770 0.0504
H32 H 0.9326 -0.0874 0.0090
O5 O 0.6242(6) 0.3318(4) 0.5067(4)
O6 O 0.6892(5) 0.4048(4) 0.3785(3)
Ni1_2 Ni 0.75028(12) -0.58973(8) 0.25002(8)
N4_2 N 0.9103(7) 0.5303(5) 0.2802(4)
N6_2 N 0.5891(6) 0.5295(4) 0.2184(4)
O7 O 0.6216(7) 0.5661(5) 0.5573(5)
O8 O 0.8778(7) 0.5657(5) -0.0574(5)
O9 O 0.6233(7) -0.3347(5) -0.0749(4)
O10 O 0.8776(7) -0.3353(5) 0.5764(4)
O11 O 0.3871(10) 0.3325(10) 0.2758(6)
O12 O 0.8841(11) 0.6653(8) -0.2234(7)
loop_
_geom_bond_atom_site_label_1
_geom_bond_atom_site_label_2
_geom_bond_site_symmetry_1
_geom_bond_site_symmetry_2
Ni1 O1 1_555 1_555
F1 C12 1_555 1_555
F2 C8 1_555 1_555
N1 C9 1_555 1_555
N2 C4 1_555 1_555
N3 C1 1_555 1_555
N4 C6 1_555 1_555
N5 C7 1_555 1_555
N6 C14 1_555 1_555
O1 C13 1_555 1_555
O2 C18 1_555 1_555
O3 Ni1 1_555 1_555
C1 C12 1_555 1_555
C2 C9 1_555 1_555
C3 C13 1_555 1_555
C4 C10 1_555 1_555
C5 C11 1_555 1_555
C6 H1 1_555 1_555
H2 C6 1_555 1_555
C7 C8 1_555 1_555
C8 C16 1_555 1_555
C9 C22 1_555 1_555
C10 C11 1_555 1_555
C11 O3 1_555 1_555
C12 C20 1_555 1_555
O4 Ni1 1_555 1_555
C13 C2 1_555 1_555
C14 H3 1_555 1_555
H4 C14 1_555 1_555
C15 C5 1_555 1_555
C16 C2 1_555 1_555
H5 C16 1_555 1_555
C17 N6 1_555 1_555
H6 C17 1_555 1_555
H7 C17 1_555 1_555
C18 C3 1_555 1_555
C19 N3 1_555 1_555
H8 C19 1_555 1_555
H9 C19 1_555 1_555
C20 C10 1_555 1_555
H10 C20 1_555 1_555
C21 C1 1_555 1_555
H11 C21 1_555 1_555
C22 C7 1_555 1_555
H12 C22 1_555 1_555
C23 N2 1_555 1_555
H13 C23 1_555 1_555
H14 C23 1_555 1_555
C24 N5 1_555 1_555
H15 C24 1_555 1_555
H16 C24 1_555 1_555
C25 N4 1_555 1_555
H17 C25 1_555 1_555
H18 C25 1_555 1_555
C26 N1 1_555 1_555
H19 C26 1_555 1_555
H20 C26 1_555 1_555
C27 N1 1_555 1_555
H21 C27 1_555 1_555
C28 N2 1_555 1_555
H22 C28 1_555 1_555
C29 N5 1_555 1_555
H23 C29 1_555 1_555
H24 C29 1_555 1_555
C30 N3 1_555 1_555
H25 C30 1_555 1_555
H26 C30 1_555 1_555
C31 C23 1_555 1_555
H27 C31 1_555 1_555
H28 C31 1_555 1_555
H29 C31 1_555 1_555
C32 C26 1_555 1_555
H30 C32 1_555 1_555
H31 C32 1_555 1_555
H32 C32 1_555 1_555
O5 C15 1_555 1_555
O6 Ni1 1_555 1_555
Ni1_2 N4 1_555 1_555
N4_2 Ni1 1_555 1_555
N6_2 Ni1 1_555 1_555
N6 Ni1_2 1_555 1_555
C3 C27 1_555 1_555
C4 C21 1_555 1_555
C5 C28 1_555 1_555
C6 C19 1_555 1_555
O4 C18 1_555 1_555
C14 C29 1_555 1_555
C15 O6 1_555 1_555
C17 C24 1_555 1_555
C25 C30 1_555 1_555

#END
