
#######################################################################
#
#                 Cambridge Crystallographic Data Centre
#                                CCDC 
#
#######################################################################
#
# If this CIF has been generated from an entry in the Cambridge 
# Structural Database, then it will include bibliographic, chemical, 
# crystal, experimental, refinement or atomic coordinate data resulting 
# from the CCDC's data processing and validation procedures.
#
#######################################################################

data_NARMEA
_symmetry_cell_setting           monoclinic
_symmetry_space_group_name_H-M   'P 21/c'
_symmetry_Int_Tables_number      14
_space_group_name_Hall           '-P 2ybc'
loop_
_symmetry_equiv_pos_site_id
_symmetry_equiv_pos_as_xyz
1 x,y,z
2 -x,1/2+y,1/2-z
3 -x,-y,-z
4 x,1/2-y,1/2+z
_cell_length_a                   6.1608(7)
_cell_length_b                   21.226(2)
_cell_length_c                   12.5094(14)
_cell_angle_alpha                90
_cell_angle_beta                 101.6180(10)
_cell_angle_gamma                90
_cell_volume                     1602.33
loop_
_atom_site_label
_atom_site_type_symbol
_atom_site_fract_x
_atom_site_fract_y
_atom_site_fract_z
Ni1 Ni 0.5000 0.5000 1.0000
O1 O 0.3503(4) 0.57738(11) 0.9194(2)
O2 O 0.6959(4) 0.49572(10) 0.8897(2)
C1 C 0.5630(6) 0.58419(17) 0.7778(3)
N1 N -0.0317(5) 0.82357(16) 0.6895(3)
N2 N 0.2205(6) 0.74724(15) 0.6682(3)
N3 N 0.4849(6) 0.67214(16) 0.6544(3)
C2 C 0.2707(6) 0.65922(17) 0.7921(3)
N4 N -0.2537(5) 0.94022(14) 0.6068(3)
O3 O 0.8540(6) 0.51721(17) 0.7518(3)
C3 C 0.3938(6) 0.60334(16) 0.8361(3)
C4 C 0.3204(7) 0.69335(18) 0.7041(3)
C5 C -0.1136(6) 0.90338(18) 0.5462(3)
H1 H -0.0434 0.9320 0.5031
H2 H -0.2073 0.8750 0.4963
C6 C 0.0621(6) 0.76709(18) 0.7195(3)
N5 N -0.0188(6) 0.73392(17) 0.7977(3)
C7 C 0.7130(6) 0.52841(17) 0.8086(3)
C8 C 0.5952(7) 0.61876(19) 0.6924(3)
H3 H 0.7035 0.6048 0.6558
C9 C 0.0632(6) 0.86551(18) 0.6201(3)
H4 H 0.1452 0.8410 0.5760
H5 H 0.1663 0.8940 0.6651
C10 C -0.1737(8) 0.8566(2) 0.7530(4)
H6 H -0.0835 0.8836 0.8069
H7 H -0.2474 0.8261 0.7913
C11 C -0.3465(7) 0.8961(2) 0.6771(4)
H8 H -0.4489 0.8680 0.6310
H9 H -0.4303 0.9201 0.7211
C12 C 0.5444(10) 0.7057(3) 0.5588(5)
H10 H 0.5170 0.7505 0.5649
H11 H 0.7012 0.7001 0.5603
C13 C 0.0895(7) 0.68272(19) 0.8318(3)
H12 H 0.0433 0.6600 0.8868
C14 C 0.4202(15) 0.6830(4) 0.4575(7)
H13 H 0.4621 0.7059 0.3985
H14 H 0.2649 0.6890 0.4554
H15 H 0.4499 0.6390 0.4503
Ni1A Ni -0.5000 1.0000 0.5000
Ni1A_2 Ni 1.5000 0.0000 1.5000
O1B O 0.6497(4) 0.42262(11) 1.0806(2)
O2B O 0.3041(4) 0.50428(10) 1.1103(2)
C1B C 0.4370(6) 0.41581(17) 1.2222(3)
N1B N 1.0317(5) 0.17643(16) 1.3105(3)
N2B N 0.7795(6) 0.25276(15) 1.3318(3)
N3B N 0.5151(6) 0.32786(16) 1.3456(3)
C2B C 0.7293(6) 0.34078(17) 1.2079(3)
N4A N 0.2537(5) 0.44022(14) 0.8932(3)
N4C N 0.7463(5) 0.55978(14) 1.1068(3)
N4B N 1.2537(5) 0.05978(14) 1.3932(3)
O3B O 0.1460(6) 0.48279(17) 1.2482(3)
C3B C 0.6062(6) 0.39666(16) 1.1639(3)
C4B C 0.6796(7) 0.30665(18) 1.2959(3)
C5B C 1.1136(6) 0.09662(18) 1.4538(3)
H1B H 1.0434 0.0680 1.4969
H2B H 1.2073 0.1250 1.5037
C6B C 0.9379(6) 0.23291(18) 1.2805(3)
N5B N 1.0188(6) 0.26608(17) 1.2023(3)
C7B C 0.2870(6) 0.47159(17) 1.1914(3)
C8B C 0.4048(7) 0.38124(19) 1.3076(3)
H3B H 0.2965 0.3952 1.3442
C9B C 0.9368(6) 0.13449(18) 1.3799(3)
H4B H 0.8548 0.1590 1.4240
H5B H 0.8337 0.1060 1.3349
C10B C 1.1737(8) 0.1434(2) 1.2470(4)
H6B H 1.0835 0.1164 1.1931
H7B H 1.2474 0.1739 1.2087
C11B C 1.3465(7) 0.1039(2) 1.3229(4)
H8B H 1.4489 0.1320 1.3690
H9B H 1.4303 0.0799 1.2789
C12B C 0.4556(10) 0.2943(3) 1.4412(5)
H10B H 0.4830 0.2495 1.4351
H11B H 0.2988 0.2999 1.4397
C13B C 0.9105(7) 0.31728(19) 1.1682(3)
H12B H 0.9567 0.3400 1.1132
C14B C 0.5798(15) 0.3170(4) 1.5425(7)
H13B H 0.5379 0.2941 1.6015
H14B H 0.7351 0.3110 1.5446
H15B H 0.5501 0.3610 1.5497
O4 O -0.093(6) 0.4551(19) 1.415(3)
O6 O -0.373(3) 0.4707(10) 1.5412(18)
O5? O -0.030(3) 0.4220(9) 1.4260(15)
loop_
_geom_bond_atom_site_label_1
_geom_bond_atom_site_label_2
_geom_bond_site_symmetry_1
_geom_bond_site_symmetry_2
Ni1 O1 1_555 1_555
O1 C3 1_555 1_555
O2 Ni1 1_555 1_555
C1 C3 1_555 1_555
N1 C6 1_555 1_555
N2 C4 1_555 1_555
N3 C4 1_555 1_555
C2 C3 1_555 1_555
N4 C5 1_555 1_555
O3 C7 1_555 1_555
C4 C2 1_555 1_555
C5 H1 1_555 1_555
H2 C5 1_555 1_555
C6 N2 1_555 1_555
N5 C6 1_555 1_555
C7 O2 1_555 1_555
C8 C1 1_555 1_555
H3 C8 1_555 1_555
C9 N1 1_555 1_555
H4 C9 1_555 1_555
H5 C9 1_555 1_555
C10 N1 1_555 1_555
H6 C10 1_555 1_555
H7 C10 1_555 1_555
C11 N4 1_555 1_555
H8 C11 1_555 1_555
H9 C11 1_555 1_555
C12 N3 1_555 1_555
H10 C12 1_555 1_555
H11 C12 1_555 1_555
C13 C2 1_555 1_555
H12 C13 1_555 1_555
C14 C12 1_555 1_555
H13 C14 1_555 1_555
H14 C14 1_555 1_555
H15 C14 1_555 1_555
Ni1A N4 1_555 1_555
Ni1A_2 N4B 1_555 1_555
O1B Ni1 1_555 1_555
O2B Ni1 1_555 1_555
C1B C3B 1_555 1_555
N1B C6B 1_555 1_555
N2B C4B 1_555 1_555
N3B C4B 1_555 1_555
C2B C3B 1_555 1_555
N4A Ni1 1_555 1_555
N4C Ni1 1_555 1_555
N4B C5B 1_555 1_555
O3B C7B 1_555 1_555
C3B O1B 1_555 1_555
C4B C2B 1_555 1_555
C5B H1B 1_555 1_555
H2B C5B 1_555 1_555
C6B N2B 1_555 1_555
N5B C6B 1_555 1_555
C7B O2B 1_555 1_555
C8B C1B 1_555 1_555
H3B C8B 1_555 1_555
C9B N1B 1_555 1_555
H4B C9B 1_555 1_555
H5B C9B 1_555 1_555
C10B N1B 1_555 1_555
H6B C10B 1_555 1_555
H7B C10B 1_555 1_555
C11B N4B 1_555 1_555
H8B C11B 1_555 1_555
H9B C11B 1_555 1_555
C12B N3B 1_555 1_555
H10B C12B 1_555 1_555
H11B C12B 1_555 1_555
C13B C2B 1_555 1_555
H12B C13B 1_555 1_555
C14B C12B 1_555 1_555
H13B C14B 1_555 1_555
H14B C14B 1_555 1_555
H15B C14B 1_555 1_555
C1 C7 1_555 1_555
N3 C8 1_555 1_555
C5 C9 1_555 1_555
N5 C13 1_555 1_555
C10 C11 1_555 1_555
C1B C7B 1_555 1_555
N3B C8B 1_555 1_555
C5B C9B 1_555 1_555
N5B C13B 1_555 1_555
C10B C11B 1_555 1_555

#END
