
#######################################################################
#
#                 Cambridge Crystallographic Data Centre
#                                CCDC 
#
#######################################################################
#
# If this CIF has been generated from an entry in the Cambridge 
# Structural Database, then it will include bibliographic, chemical, 
# crystal, experimental, refinement or atomic coordinate data resulting 
# from the CCDC's data processing and validation procedures.
#
#######################################################################

data_NARMIE
_symmetry_cell_setting           monoclinic
_symmetry_space_group_name_H-M   'P 21/c'
_symmetry_Int_Tables_number      14
_space_group_name_Hall           '-P 2ybc'
loop_
_symmetry_equiv_pos_site_id
_symmetry_equiv_pos_as_xyz
1 x,y,z
2 -x,1/2+y,1/2-z
3 -x,-y,-z
4 x,1/2-y,1/2+z
_cell_length_a                   6.0415(8)
_cell_length_b                   20.590(3)
_cell_length_c                   14.205(2)
_cell_angle_alpha                90
_cell_angle_beta                 98.801(2)
_cell_angle_gamma                90
_cell_volume                     1746.22
loop_
_atom_site_label
_atom_site_type_symbol
_atom_site_fract_x
_atom_site_fract_y
_atom_site_fract_z
Ni1 Ni 0.5000 0.5000 1.0000
O1 O 0.7257(5) 0.50068(14) 0.9084(2)
O2 O 0.3584(5) 0.41912(14) 0.9328(2)
F1 F -0.1971(6) 0.24028(16) 0.8578(3)
N1 N 0.2163(6) 0.25144(18) 0.7002(3)
O3 O 0.8770(6) 0.48179(18) 0.7804(3)
N2 N -0.2634(6) 0.05903(16) 0.5976(3)
C1 C 0.4058(7) 0.3929(2) 0.8580(3)
N3 N -0.0657(7) 0.17505(18) 0.6956(3)
C2 C 0.5817(8) 0.4130(2) 0.8065(3)
C3 C 0.2792(7) 0.3368(2) 0.8186(3)
C4 C 0.0442(8) 0.2273(2) 0.7399(3)
C5 C 0.3243(8) 0.3043(2) 0.7373(3)
C6 C 0.0983(8) 0.3122(2) 0.8585(4)
H1 H 0.0568 0.3319 0.9121
N4 N 0.4952(7) 0.3265(2) 0.6920(3)
C7 C 0.7388(7) 0.4689(2) 0.8342(3)
C8 C 0.6165(8) 0.3785(2) 0.7270(4)
H2 H 0.7319 0.3921 0.6952
C9 C -0.0159(8) 0.2600(2) 0.8197(4)
C10 C 0.0236(9) 0.1461(2) 0.6151(4)
H3 H 0.1437 0.1163 0.6390
H4 H 0.0858 0.1800 0.5797
C11 C -0.1763(11) 0.1263(3) 0.7466(4)
H5 H -0.2480 0.1473 0.7951
H6 H -0.0657 0.0961 0.7780
C12 C 0.5448(10) 0.2947(3) 0.6023(4)
H7 H 0.6982 0.3042 0.5944
H8 H 0.5305 0.2480 0.6080
C13 C -0.1540(9) 0.1100(3) 0.5494(4)
H9 H -0.2664 0.1407 0.5209
H10 H -0.0864 0.0906 0.4984
C14 C -0.3515(10) 0.0893(3) 0.6779(4)
H11 H -0.4161 0.0557 0.7132
H12 H -0.4707 0.1190 0.6530
C15 C 0.3919(14) 0.3174(4) 0.5170(6)
H13 H 0.4283 0.2958 0.4614
H14 H 0.4085 0.3635 0.5101
H15 H 0.2400 0.3077 0.5242
Ni1A Ni -0.5000 0.0000 0.5000
Ni1A_2 Ni 1.5000 1.0000 1.5000
O1B O 0.2743(5) 0.49932(14) 1.0916(2)
O2B O 0.6416(5) 0.58088(14) 1.0672(2)
F1B F 1.1971(6) 0.75972(16) 1.1422(3)
N1B N 0.7837(6) 0.74856(18) 1.2998(3)
O3B O 0.1230(6) 0.51821(18) 1.2196(3)
N2B N 1.2634(6) 0.94097(16) 1.4024(3)
N2A N 0.2634(6) 0.55903(16) 0.9024(3)
N2C N 0.7366(6) 0.44097(16) 1.0976(3)
C1B C 0.5942(7) 0.6071(2) 1.1420(3)
N3B N 1.0657(7) 0.82495(18) 1.3044(3)
C2B C 0.4183(8) 0.5870(2) 1.1935(3)
C3B C 0.7208(7) 0.6632(2) 1.1814(3)
C4B C 0.9558(8) 0.7727(2) 1.2601(3)
C5B C 0.6757(8) 0.6957(2) 1.2627(3)
C6B C 0.9017(8) 0.6878(2) 1.1415(4)
H1B H 0.9432 0.6681 1.0879
N4B N 0.5048(7) 0.6735(2) 1.3080(3)
C7B C 0.2612(7) 0.5311(2) 1.1658(3)
C8B C 0.3835(8) 0.6215(2) 1.2730(4)
H2B H 0.2681 0.6079 1.3048
C9B C 1.0159(8) 0.7400(2) 1.1803(4)
C10B C 0.9764(9) 0.8539(2) 1.3849(4)
H3B H 0.8563 0.8837 1.3610
H4B H 0.9142 0.8200 1.4203
C11B C 1.1763(11) 0.8737(3) 1.2534(4)
H5B H 1.2480 0.8527 1.2049
H6B H 1.0657 0.9039 1.2220
C12B C 0.4552(10) 0.7053(3) 1.3977(4)
H7B H 0.3018 0.6958 1.4056
H8B H 0.4695 0.7520 1.3920
C13B C 1.1540(9) 0.8900(3) 1.4506(4)
H9B H 1.2664 0.8593 1.4791
H10B H 1.0864 0.9094 1.5016
C14B C 1.3515(10) 0.9107(3) 1.3221(4)
H11B H 1.4161 0.9443 1.2868
H12B H 1.4707 0.8810 1.3470
C15B C 0.6081(14) 0.6826(4) 1.4830(6)
H13B H 0.5717 0.7042 1.5386
H14B H 0.5915 0.6365 1.4899
H15B H 0.7600 0.6923 1.4758
O4 O -0.0841(11) 0.5558(3) 1.3700(5)
O5 O 0.078(3) 0.5983(8) 1.5253(12)
O6 O -0.314(2) 0.4712(8) 1.4627(11)
O8 O -0.707(3) 0.4309(9) 1.3675(13)
O7? O -0.501(3) 0.4759(8) 1.3847(11)
loop_
_geom_bond_atom_site_label_1
_geom_bond_atom_site_label_2
_geom_bond_site_symmetry_1
_geom_bond_site_symmetry_2
Ni1 O1 1_555 1_555
O1 C7 1_555 1_555
O2 Ni1 1_555 1_555
F1 C9 1_555 1_555
N1 C4 1_555 1_555
O3 C7 1_555 1_555
N2 C13 1_555 1_555
C1 O2 1_555 1_555
N3 C4 1_555 1_555
C2 C1 1_555 1_555
C3 C1 1_555 1_555
C4 C9 1_555 1_555
C5 N1 1_555 1_555
C6 C3 1_555 1_555
H1 C6 1_555 1_555
N4 C5 1_555 1_555
C7 C2 1_555 1_555
C8 C2 1_555 1_555
H2 C8 1_555 1_555
C9 C6 1_555 1_555
C10 N3 1_555 1_555
H3 C10 1_555 1_555
H4 C10 1_555 1_555
C11 N3 1_555 1_555
H5 C11 1_555 1_555
H6 C11 1_555 1_555
C12 N4 1_555 1_555
H7 C12 1_555 1_555
H8 C12 1_555 1_555
C13 C10 1_555 1_555
H9 C13 1_555 1_555
H10 C13 1_555 1_555
C14 N2 1_555 1_555
H11 C14 1_555 1_555
H12 C14 1_555 1_555
C15 C12 1_555 1_555
H13 C15 1_555 1_555
H14 C15 1_555 1_555
H15 C15 1_555 1_555
Ni1A N2 1_555 1_555
Ni1A_2 N2B 1_555 1_555
O1B Ni1 1_555 1_555
O2B Ni1 1_555 1_555
F1B C9B 1_555 1_555
N1B C4B 1_555 1_555
O3B C7B 1_555 1_555
N2B C13B 1_555 1_555
N2A Ni1 1_555 1_555
N2C Ni1 1_555 1_555
C1B O2B 1_555 1_555
N3B C4B 1_555 1_555
C2B C1B 1_555 1_555
C3B C1B 1_555 1_555
C4B C9B 1_555 1_555
C5B N1B 1_555 1_555
C6B C3B 1_555 1_555
H1B C6B 1_555 1_555
N4B C5B 1_555 1_555
C7B O1B 1_555 1_555
C8B C2B 1_555 1_555
H2B C8B 1_555 1_555
C9B C6B 1_555 1_555
C10B N3B 1_555 1_555
H3B C10B 1_555 1_555
H4B C10B 1_555 1_555
C11B N3B 1_555 1_555
H5B C11B 1_555 1_555
H6B C11B 1_555 1_555
C12B N4B 1_555 1_555
H7B C12B 1_555 1_555
H8B C12B 1_555 1_555
C13B C10B 1_555 1_555
H9B C13B 1_555 1_555
H10B C13B 1_555 1_555
C14B N2B 1_555 1_555
H11B C14B 1_555 1_555
H12B C14B 1_555 1_555
C15B C12B 1_555 1_555
H13B C15B 1_555 1_555
H14B C15B 1_555 1_555
H15B C15B 1_555 1_555
C3 C5 1_555 1_555
N4 C8 1_555 1_555
C11 C14 1_555 1_555
C2B C7B 1_555 1_555
C3B C5B 1_555 1_555
N4B C8B 1_555 1_555
C11B C14B 1_555 1_555

#END
