
#######################################################################
#
#                 Cambridge Crystallographic Data Centre
#                                CCDC 
#
#######################################################################
#
# If this CIF has been generated from an entry in the Cambridge 
# Structural Database, then it will include bibliographic, chemical, 
# crystal, experimental, refinement or atomic coordinate data resulting 
# from the CCDC's data processing and validation procedures.
#
#######################################################################

data_NARRUT
_symmetry_cell_setting           tetragonal
_symmetry_space_group_name_H-M   'P 43'
_symmetry_Int_Tables_number      78
_space_group_name_Hall           'P 4cw'
loop_
_symmetry_equiv_pos_site_id
_symmetry_equiv_pos_as_xyz
1 x,y,z
2 -y,x,3/4+z
3 -x,-y,1/2+z
4 y,-x,1/4+z
_cell_length_a                   7.766(3)
_cell_length_b                   7.766(3)
_cell_length_c                   35.696(9)
_cell_angle_alpha                90
_cell_angle_beta                 90
_cell_angle_gamma                90
_cell_volume                     2152.85
loop_
_atom_site_label
_atom_site_type_symbol
_atom_site_fract_x
_atom_site_fract_y
_atom_site_fract_z
Ag1 Ag 0.1281(2) 0.0452(2) 0.9895(1)
Ag2 Ag 0.0247(2) 0.1883(2) 0.8322(1)
O1 O 0.0196(13) 0.3408(13) 0.8889(3)
O2 O 0.2012(12) 0.4988(14) 0.9229(3)
O3 O -0.0339(14) -0.0188(12) 0.9382(3)
O4 O -0.0161(14) -0.0601(13) 0.8769(3)
N1 N -0.2407(16) 0.2929(14) 0.7673(3)
N2 N -0.2048(15) 0.3267(14) 0.8047(3)
N3 N 0.2191(16) 0.0343(16) 0.7620(4)
N4 N 0.2468(16) 0.0689(15) 0.8012(3)
C1 C -0.3160(19) 0.4081(18) 0.8250(4)
C2 C -0.4826(16) 0.4604(19) 0.8106(4)
C3 C -0.6053(18) 0.5451(19) 0.8340(5)
C4 C -0.7661(22) 0.5775(21) 0.8166(7)
C5 C -0.7985(21) 0.5401(22) 0.7803(5)
C6 C -0.6783(22) 0.4666(19) 0.7575(6)
C7 C -0.5147(17) 0.4244(17) 0.7733(4)
C8 C -0.3858(18) 0.3392(18) 0.7535(4)
C9 C 0.3899(21) 0.0177(21) 0.8153(5)
C10 C 0.5300(18) -0.0554(17) 0.7963(4)
C11 C 0.6874(20) -0.1006(18) 0.8132(5)
C12 C 0.8130(20) -0.1704(20) 0.7917(5)
C13 C 0.7878(24) -0.2025(18) 0.7529(5)
C14 C 0.6357(20) -0.1593(19) 0.7375(4)
C15 C 0.5012(19) -0.0880(19) 0.7583(5)
C16 C 0.3418(20) -0.0379(18) 0.7435(5)
C17 C 0.1583(19) 0.3627(17) 0.9061(4)
C18 C 0.2842(16) 0.2147(18) 0.9088(4)
C19 C 0.2319(18) 0.0406(17) 0.9082(4)
C20 C 0.3560(20) -0.0888(20) 0.9129(4)
C21 C 0.5278(19) -0.0532(17) 0.9152(4)
C22 C 0.5808(22) 0.1179(21) 0.9142(5)
C23 C 0.4622(21) 0.2496(18) 0.9113(4)
C24 C 0.0463(18) -0.0123(17) 0.9074(4)
Ag1A Ag -0.0452(2) 0.1281(2) 0.7395(1)
O3A O 0.0188(12) -0.0339(14) 0.6882(3)
O5 O 0.6175(14) 0.1972(14) 1.1489(4)
loop_
_geom_bond_atom_site_label_1
_geom_bond_atom_site_label_2
_geom_bond_site_symmetry_1
_geom_bond_site_symmetry_2
Ag1 O3 1_555 1_555
Ag2 O1 1_555 1_555
O1 C17 1_555 1_555
O2 C17 1_555 1_555
O3 C24 1_555 1_555
O4 Ag2 1_555 1_555
N1 N2 1_555 1_555
N2 Ag2 1_555 1_555
N3 N4 1_555 1_555
N4 Ag2 1_555 1_555
C1 N2 1_555 1_555
C2 C1 1_555 1_555
C3 C2 1_555 1_555
C4 C3 1_555 1_555
C5 C4 1_555 1_555
C6 C5 1_555 1_555
C7 C2 1_555 1_555
C8 N1 1_555 1_555
C9 N4 1_555 1_555
C10 C9 1_555 1_555
C11 C10 1_555 1_555
C12 C11 1_555 1_555
C13 C12 1_555 1_555
C14 C13 1_555 1_555
C15 C10 1_555 1_555
C16 N3 1_555 1_555
C17 C18 1_555 1_555
C18 C19 1_555 1_555
C19 C20 1_555 1_555
C20 C21 1_555 1_555
C21 C22 1_555 1_555
C22 C23 1_555 1_555
C23 C18 1_555 1_555
C24 O4 1_555 1_555
Ag1A N1 1_555 1_555
O3A Ag1A 1_555 1_555
N3 Ag1A 1_555 1_555
C6 C7 1_555 1_555
C7 C8 1_555 1_555
C14 C15 1_555 1_555
C15 C16 1_555 1_555
C19 C24 1_555 1_555

#END
