
#######################################################################
#
#                 Cambridge Crystallographic Data Centre
#                                CCDC 
#
#######################################################################
#
# If this CIF has been generated from an entry in the Cambridge 
# Structural Database, then it will include bibliographic, chemical, 
# crystal, experimental, refinement or atomic coordinate data resulting 
# from the CCDC's data processing and validation procedures.
#
#######################################################################

data_NARTOR
_symmetry_cell_setting           triclinic
_symmetry_space_group_name_H-M   'P -1'
_symmetry_Int_Tables_number      2
_space_group_name_Hall           '-P 1'
loop_
_symmetry_equiv_pos_site_id
_symmetry_equiv_pos_as_xyz
1 x,y,z
2 -x,-y,-z
_cell_length_a                   8.646(2)
_cell_length_b                   8.868(3)
_cell_length_c                   13.160(4)
_cell_angle_alpha                108.569(2)
_cell_angle_beta                 95.454(3)
_cell_angle_gamma                100.073(2)
_cell_volume                     929.377
loop_
_atom_site_label
_atom_site_type_symbol
_atom_site_fract_x
_atom_site_fract_y
_atom_site_fract_z
C1 C 0.2090(4) 0.9429(4) -0.0139(3)
C2 C 0.1365(4) 0.8518(4) 0.0458(3)
H1 H 0.1814 0.8716 0.1172
C3 C -0.0040(4) 0.7306(4) -0.0021(3)
C4 C -0.0697(4) 0.7028(4) -0.1091(3)
H2 H -0.1620 0.6231 -0.1416
C5 C 0.0024(4) 0.7940(4) -0.1682(3)
C6 C 0.1406(4) 0.9129(4) -0.1211(3)
H3 H 0.1879 0.9727 -0.1608
C7 C 0.3482(5) 1.0805(4) 0.0373(3)
C8 C 0.5155(5) 1.2626(5) 0.2039(3)
H4 H 0.4632 1.3536 0.2241
H5 H 0.5928 1.2844 0.1587
C9 C 0.6012(5) 1.2497(4) 0.3056(3)
C10 C -0.0865(4) 0.6404(4) 0.0611(3)
C11 C -0.1099(5) 0.6149(5) 0.2392(3)
H6 H -0.0346 0.6151 0.2989
H7 H -0.1618 0.5024 0.1984
C12 C -0.2350(4) 0.7070(4) 0.2855(3)
C13 C -0.0901(5) 0.7654(4) -0.2793(3)
C14 C -0.1290(5) 0.8626(5) -0.4278(3)
H8 H -0.1850 0.7518 -0.4693
H9 H -0.0609 0.9007 -0.4731
C15 C -0.2489(4) 0.9680(4) -0.4017(3)
Ca1 Ca 0.50436(9) 0.85934(9) 0.34594(6)
N1 N 0.4014(4) 1.1194(4) 0.1437(2)
H10 H 0.3643 1.0543 0.1763
N2 N -0.0231(4) 0.6831(4) 0.1688(2)
H11 H -0.0070 0.7923 0.1979
N3 N -0.0299(4) 0.8622(4) -0.3323(2)
H12 H 0.0646 0.9223 -0.3105
O1 O 0.4041(4) 1.1627(4) -0.0137(2)
O2 O 0.6884(4) 1.3873(3) 0.3749(2)
H13 H 0.6816 1.4742 0.3472
O3 O 0.5867(4) 1.1214(3) 0.3239(2)
O4 O -0.2103(3) 0.5313(3) 0.0198(2)
O5 O -0.3330(3) 0.6394(3) 0.3298(2)
O6 O -0.2348(3) 0.8453(3) 0.2825(2)
O7 O -0.2106(4) 0.6618(4) -0.3163(2)
O8 O -0.2493(3) 1.0537(3) -0.3043(2)
O9 O -0.3528(3) 0.9640(3) -0.4771(2)
O10 O 0.3240(4) 0.6699(4) 0.3997(3)
H14 H 0.3564 0.6860 0.4749
H15 H 0.3260 0.5606 0.3563
O11 O 0.4313(4) 0.7097(4) 0.1531(2)
H16 H 0.4235 0.5955 0.1399
H17 H 0.5112 0.7476 0.1156
Ca1_2 Ca -0.49564(9) 0.85934(9) 0.34594(6)
Ca1A Ca -0.50436(9) 1.14066(9) -0.34594(6)
Ca1_3 Ca -0.49564(9) 0.85934(9) -0.65406(6)
O5_2 O 0.6670(3) 0.6394(3) 0.3298(2)
O6_2 O 0.7652(3) 0.8453(3) 0.2825(2)
O8A O 0.2493(3) 0.9463(3) 0.3043(2)
O9_2 O 0.6472(3) 0.9640(3) 0.5229(2)
O9A O 0.3528(3) 1.0360(3) 0.4771(2)
loop_
_geom_bond_atom_site_label_1
_geom_bond_atom_site_label_2
_geom_bond_site_symmetry_1
_geom_bond_site_symmetry_2
C1 C2 1_555 1_555
C2 H1 1_555 1_555
C3 C2 1_555 1_555
C4 C3 1_555 1_555
H2 C4 1_555 1_555
C5 C4 1_555 1_555
C6 C1 1_555 1_555
H3 C6 1_555 1_555
C7 C1 1_555 1_555
C8 H4 1_555 1_555
H5 C8 1_555 1_555
C9 C8 1_555 1_555
C10 C3 1_555 1_555
C11 H6 1_555 1_555
H7 C11 1_555 1_555
C12 C11 1_555 1_555
C13 C5 1_555 1_555
C14 H8 1_555 1_555
H9 C14 1_555 1_555
C15 C14 1_555 1_555
Ca1 O3 1_555 1_555
N1 C7 1_555 1_555
H10 N1 1_555 1_555
N2 C10 1_555 1_555
H11 N2 1_555 1_555
N3 C13 1_555 1_555
H12 N3 1_555 1_555
O1 C7 1_555 1_555
O2 C9 1_555 1_555
H13 O2 1_555 1_555
O3 C9 1_555 1_555
O4 C10 1_555 1_555
O5 C12 1_555 1_555
O6 C12 1_555 1_555
O7 C13 1_555 1_555
O8 C15 1_555 1_555
O9 C15 1_555 1_555
O10 Ca1 1_555 1_555
H14 O10 1_555 1_555
H15 O10 1_555 1_555
O11 Ca1 1_555 1_555
H16 O11 1_555 1_555
H17 O11 1_555 1_555
Ca1_2 O5 1_555 1_555
Ca1A O8 1_555 1_555
Ca1_3 O9 1_555 1_555
O5_2 Ca1 1_555 1_555
O6_2 Ca1 1_555 1_555
O8A Ca1 1_555 1_555
O9_2 Ca1 1_555 1_555
O9A Ca1 1_555 1_555
C5 C6 1_555 1_555
C8 N1 1_555 1_555
C11 N2 1_555 1_555
C14 N3 1_555 1_555
O6 Ca1_2 1_555 1_555
O9 Ca1A 1_555 1_555

#END
