
#######################################################################
#
#                 Cambridge Crystallographic Data Centre
#                                CCDC 
#
#######################################################################
#
# If this CIF has been generated from an entry in the Cambridge 
# Structural Database, then it will include bibliographic, chemical, 
# crystal, experimental, refinement or atomic coordinate data resulting 
# from the CCDC's data processing and validation procedures.
#
#######################################################################

data_NARTAD
_symmetry_cell_setting           tetragonal
_symmetry_space_group_name_H-M   'P 43 2 2'
_symmetry_Int_Tables_number      95
_space_group_name_Hall           'P 4cw 2c'
loop_
_symmetry_equiv_pos_site_id
_symmetry_equiv_pos_as_xyz
1 x,y,z
2 -x,-y,1/2+z
3 -y,x,3/4+z
4 y,-x,1/4+z
5 -x,y,-z
6 x,-y,1/2-z
7 y,x,1/4-z
8 -y,-x,3/4-z
_cell_length_a                   11.4214(5)
_cell_length_b                   11.4214(5)
_cell_length_c                   24.2401(11)
_cell_angle_alpha                90
_cell_angle_beta                 90
_cell_angle_gamma                90
_cell_volume                     3162.08
loop_
_atom_site_label
_atom_site_type_symbol
_atom_site_fract_x
_atom_site_fract_y
_atom_site_fract_z
Co1 Co 0.5000 -0.20997(5) 0.0000
C1 C 0.5000 -0.7758(3) 0.0000
N1 N 0.5000 -0.4007(3) 0.0000
C2 C 0.5000 -0.6466(4) 0.0000
N2 N 0.5772(3) -0.2024(3) -0.07914(11)
N3 N 0.5506(3) -0.1915(3) -0.13258(11)
H1 H 0.4804 -0.1931 -0.1453
C3 C 0.6466(4) -0.1778(3) -0.16414(14)
C4 C 0.7399(4) -0.1795(4) -0.12864(15)
H2 H 0.8186 -0.1718 -0.1378
C5 C 0.6933(4) -0.1951(3) -0.07645(14)
C6 C 0.7433(4) -0.1501(4) -0.25381(18)
H3 H 0.8146 -0.1475 -0.2353
C7 C 0.5364(5) -0.1709(5) -0.25315(18)
H4 H 0.4666 -0.1823 -0.2342
C8 C 0.6412(4) -0.1661(3) -0.22469(14)
C9 C 0.6369(6) -0.1429(5) -0.33832(18)
H5 H 0.6352 -0.1356 -0.3765
C10 C 0.5355(5) -0.1585(6) -0.30986(19)
H6 H 0.4647 -0.1610 -0.3288
C11 C 0.7401(5) -0.1379(5) -0.31117(18)
H7 H 0.8092 -0.1263 -0.3307
C12 C 0.4897(4) -0.5824(3) -0.04815(14)
H8 H 0.4824 -0.6209 -0.0818
C13 C 0.4903(5) -0.4622(3) -0.04659(14)
H9 H 0.4836 -0.4216 -0.0797
C14 C 0.4357(3) -0.8392(3) -0.03809(15)
H10 H 0.3911 -0.8006 -0.0645
C15 C 0.7464(4) -0.2024(5) -0.01996(16)
O1 O 0.8523(3) -0.2019(6) -0.01524(15)
O2 O 0.6752(2) -0.2115(2) 0.02005(9)
C16 C 0.4381(4) -0.9591(3) -0.03670(15)
H11 H 0.3942 -0.9999 -0.0627
N4 N 0.5000 -1.0208(3) 0.0000
Co1_2 Co 0.5000 -1.20997(5) 0.0000
N2D N 0.4228(3) -0.2024(3) 0.07914(11)
N3D N 0.4494(3) -0.1915(3) 0.13258(11)
H1D H 0.5196 -0.1931 0.1453
C3D C 0.3534(4) -0.1778(3) 0.16414(14)
C4D C 0.2601(4) -0.1795(4) 0.12864(15)
H2D H 0.1814 -0.1718 0.1378
C5D C 0.3067(4) -0.1951(3) 0.07645(14)
C6D C 0.2567(4) -0.1501(4) 0.25381(18)
H3D H 0.1854 -0.1475 0.2353
C7D C 0.4636(5) -0.1709(5) 0.25315(18)
H4D H 0.5334 -0.1823 0.2342
C8D C 0.3588(4) -0.1661(3) 0.22469(14)
C9D C 0.3631(6) -0.1429(5) 0.33832(18)
H5D H 0.3648 -0.1356 0.3765
C10D C 0.4645(5) -0.1585(6) 0.30986(19)
H6D H 0.5353 -0.1610 0.3288
C11D C 0.2599(5) -0.1379(5) 0.31117(18)
H7D H 0.1908 -0.1263 0.3307
C12D C 0.5103(4) -0.5824(3) 0.04815(14)
H8D H 0.5176 -0.6209 0.0818
C13D C 0.5097(5) -0.4622(3) 0.04659(14)
H9D H 0.5164 -0.4216 0.0797
C14D C 0.5643(3) -0.8392(3) 0.03809(15)
H10D H 0.6089 -0.8006 0.0645
C15D C 0.2536(4) -0.2024(5) 0.01996(16)
O1D O 0.1477(3) -0.2019(6) 0.01524(15)
O2D O 0.3248(2) -0.2115(2) -0.02005(9)
C16D C 0.5619(4) -0.9591(3) 0.03670(15)
H11D H 0.6058 -0.9999 0.0627
N4_2 N 0.5000 -0.0208(3) 0.0000
O4 O 0.0600(10) 0.6926(7) 0.9097(3)
H14 H 0.0107 0.7264 0.8874
H15 H 0.0312 0.7196 0.9419
O5 O 0.9773(6) 0.9071(13) 0.1756(4)
H16 H 0.9226 0.9403 0.1890
H17 H 0.9791 0.8449 0.1678
O3? O 0.3273(6) 0.7382(7) 0.8626(3)
H12? H 0.3519 0.7374 0.8951
H13? H 0.3081 0.8060 0.8536
loop_
_geom_bond_atom_site_label_1
_geom_bond_atom_site_label_2
_geom_bond_site_symmetry_1
_geom_bond_site_symmetry_2
Co1 N1 1_555 1_555
C1 C2 1_555 1_555
N1 C13 1_555 1_555
C2 C12 1_555 1_555
N2 Co1 1_555 1_555
N3 N2 1_555 1_555
H1 N3 1_555 1_555
C3 N3 1_555 1_555
C4 C3 1_555 1_555
H2 C4 1_555 1_555
C5 N2 1_555 1_555
C6 H3 1_555 1_555
C7 H4 1_555 1_555
C8 C3 1_555 1_555
C9 H5 1_555 1_555
C10 C7 1_555 1_555
H6 C10 1_555 1_555
C11 C6 1_555 1_555
H7 C11 1_555 1_555
C12 H8 1_555 1_555
C13 C12 1_555 1_555
H9 C13 1_555 1_555
C14 C1 1_555 1_555
H10 C14 1_555 1_555
C15 C5 1_555 1_555
O1 C15 1_555 1_555
O2 Co1 1_555 1_555
C16 C14 1_555 1_555
H11 C16 1_555 1_555
N4 C16 1_555 1_555
O4 H14 1_555 1_555
H15 O4 1_555 1_555
O5 H16 1_555 1_555
H17 O5 1_555 1_555
Co1_2 N4 1_555 1_555
N2D Co1 1_555 1_555
N3D N2D 1_555 1_555
H1D N3D 1_555 1_555
C3D N3D 1_555 1_555
C4D C3D 1_555 1_555
H2D C4D 1_555 1_555
C5D N2D 1_555 1_555
C6D H3D 1_555 1_555
C7D H4D 1_555 1_555
C8D C3D 1_555 1_555
C9D H5D 1_555 1_555
C10D C7D 1_555 1_555
H6D C10D 1_555 1_555
C11D C6D 1_555 1_555
H7D C11D 1_555 1_555
C12D C2 1_555 1_555
H8D C12D 1_555 1_555
C13D N1 1_555 1_555
H9D C13D 1_555 1_555
C14D C1 1_555 1_555
H10D C14D 1_555 1_555
C15D C5D 1_555 1_555
O1D C15D 1_555 1_555
O2D Co1 1_555 1_555
C16D N4 1_555 1_555
H11D C16D 1_555 1_555
N4_2 Co1 1_555 1_555
C4 C5 1_555 1_555
C6 C8 1_555 1_555
C7 C8 1_555 1_555
C9 C10 1_555 1_555
C9 C11 1_555 1_555
C15 O2 1_555 1_555
C4D C5D 1_555 1_555
C6D C8D 1_555 1_555
C7D C8D 1_555 1_555
C9D C10D 1_555 1_555
C9D C11D 1_555 1_555
C12D C13D 1_555 1_555
C14D C16D 1_555 1_555
C15D O2D 1_555 1_555

#END
