
#######################################################################
#
#                 Cambridge Crystallographic Data Centre
#                                CCDC 
#
#######################################################################
#
# If this CIF has been generated from an entry in the Cambridge 
# Structural Database, then it will include bibliographic, chemical, 
# crystal, experimental, refinement or atomic coordinate data resulting 
# from the CCDC's data processing and validation procedures.
#
#######################################################################

data_NARVIM
_symmetry_cell_setting           monoclinic
_symmetry_space_group_name_H-M   'P 21/c'
_symmetry_Int_Tables_number      14
_space_group_name_Hall           '-P 2ybc'
loop_
_symmetry_equiv_pos_site_id
_symmetry_equiv_pos_as_xyz
1 x,y,z
2 -x,1/2+y,1/2-z
3 -x,-y,-z
4 x,1/2-y,1/2+z
_cell_length_a                   15.978(6)
_cell_length_b                   4.148(2)
_cell_length_c                   19.338(8)
_cell_angle_alpha                90
_cell_angle_beta                 103.340(10)
_cell_angle_gamma                90
_cell_volume                     1247.08
loop_
_atom_site_label
_atom_site_type_symbol
_atom_site_fract_x
_atom_site_fract_y
_atom_site_fract_z
I1 I 0.088196(11) 0.05380(4) 0.340634(9)
Cu1 Cu 0.01612(2) 0.04838(9) 0.204280(18)
N1 N 0.10907(14) 0.0514(5) 0.14739(12)
C1 C 0.18674(19) 0.1847(8) 0.17124(16)
H1 H 0.2007 0.2643 0.2174
C2 C 0.24646(19) 0.2095(8) 0.13109(15)
H2 H 0.2994 0.3042 0.1507
C3 C 0.22994(17) 0.0968(6) 0.06201(14)
C4 C 0.14928(18) -0.0448(7) 0.03739(15)
H3 H 0.1338 -0.1264 -0.0086
C5 C 0.09319(18) -0.0634(7) 0.08093(14)
H4 H 0.0404 -0.1626 0.0632
C6 C 0.29369(17) 0.1277(7) 0.01862(15)
H5 H 0.3438 0.2407 0.0384
C7 C 0.28663(18) 0.0107(6) -0.04548(16)
H6 H 0.2359 -0.0993 -0.0647
C8 C 0.4637(2) 0.0363(8) -0.1785(2)
H7 H 0.5026 0.0355 -0.2077
C9 C 0.3847(2) -0.1113(8) -0.20113(17)
H8 H 0.3698 -0.2079 -0.2457
C10 C 0.32828(19) -0.1144(7) -0.15728(16)
H9 H 0.2753 -0.2161 -0.1724
C11 C 0.34855(17) 0.0311(6) -0.09081(15)
C12 C 0.42802(19) 0.1816(7) -0.06965(17)
H10 H 0.4429 0.2820 -0.0255
C13 C 0.4852(2) 0.1839(8) -0.1134(2)
H11 H 0.5382 0.2854 -0.0988
I1A I -0.088196(11) -0.44620(4) 0.159366(9)
I1A_2 I -0.088196(11) 0.55380(4) 0.159366(9)
Cu1A Cu -0.01612(2) -0.45162(9) 0.295720(18)
Cu1A_2 Cu -0.01612(2) 0.54838(9) 0.295720(18)
loop_
_geom_bond_atom_site_label_1
_geom_bond_atom_site_label_2
_geom_bond_site_symmetry_1
_geom_bond_site_symmetry_2
I1 Cu1 1_555 1_555
Cu1 N1 1_555 1_555
N1 C1 1_555 1_555
C1 H1 1_555 1_555
C2 C1 1_555 1_555
H2 C2 1_555 1_555
C3 C2 1_555 1_555
C4 C3 1_555 1_555
H3 C4 1_555 1_555
C5 N1 1_555 1_555
H4 C5 1_555 1_555
C6 C3 1_555 1_555
H5 C6 1_555 1_555
C7 C6 1_555 1_555
H6 C7 1_555 1_555
C8 H7 1_555 1_555
C9 C8 1_555 1_555
H8 C9 1_555 1_555
C10 C9 1_555 1_555
H9 C10 1_555 1_555
C11 C7 1_555 1_555
C12 C11 1_555 1_555
H10 C12 1_555 1_555
C13 C8 1_555 1_555
H11 C13 1_555 1_555
I1A Cu1 1_555 1_555
I1A_2 Cu1 1_555 1_555
Cu1A I1 1_555 1_555
Cu1A_2 I1 1_555 1_555
C4 C5 1_555 1_555
C10 C11 1_555 1_555
C12 C13 1_555 1_555
I1A Cu1A 1_555 1_555
I1A_2 Cu1A_2 1_555 1_555

#END
