
#######################################################################
#
#                 Cambridge Crystallographic Data Centre
#                                CCDC 
#
#######################################################################
#
# If this CIF has been generated from an entry in the Cambridge 
# Structural Database, then it will include bibliographic, chemical, 
# crystal, experimental, refinement or atomic coordinate data resulting 
# from the CCDC's data processing and validation procedures.
#
#######################################################################

data_NARXEK
_symmetry_cell_setting           monoclinic
_symmetry_space_group_name_H-M   'P 2/n'
_symmetry_Int_Tables_number      13
_space_group_name_Hall           '-P 2yac'
loop_
_symmetry_equiv_pos_site_id
_symmetry_equiv_pos_as_xyz
1 x,y,z
2 1/2-x,y,1/2-z
3 -x,-y,-z
4 1/2+x,-y,1/2+z
_cell_length_a                   11.593(2)
_cell_length_b                   13.641(2)
_cell_length_c                   22.511(2)
_cell_angle_alpha                90
_cell_angle_beta                 101.40(1)
_cell_angle_gamma                90
_cell_volume                     3489.66
loop_
_atom_site_label
_atom_site_type_symbol
_atom_site_fract_x
_atom_site_fract_y
_atom_site_fract_z
Mn2 Mn 0.7500 0.48611(5) 0.2500
S2 S 0.3712(1) 0.4405(1) 0.11336(6)
N7 N 0.7500 0.3166(3) 0.2500
N8 N 0.7500 0.6549(3) 0.2500
N9 N 0.7055(8) 0.0082(5) 0.2403(5)
N10 N 0.7954(8) -0.0372(5) 0.2608(5)
N11 N 0.8178(3) 0.4912(2) 0.1594(1)
N12 N 0.9461(3) 0.5022(2) -0.0028(1)
N18 N 0.5703(3) 0.4845(2) 0.1994(1)
C12 C 0.6506(4) 0.2660(3) 0.2446(2)
C13 C 0.6488(6) 0.1637(3) 0.2447(3)
C14 C 0.7500 0.1134(4) 0.2500
C15 C 0.6501(5) 0.7054(3) 0.2417(2)
C16 C 0.6482(6) 0.8077(4) 0.2428(3)
C17 C 0.7500 -0.1423(5) 0.2500
C18 C 0.9328(3) 0.4783(3) 0.1601(2)
C19 C 0.9816(3) 0.4806(3) 0.1087(2)
C20 C 0.9071(3) 0.4979(3) 0.0537(2)
C21 C 0.7891(3) 0.5115(3) 0.0523(2)
C22 C 0.7488(3) 0.5082(3) 0.1060(2)
C34 C 0.4863(3) 0.4666(3) 0.1632(2)
H9 H 0.5781 0.3008 0.2405
H10 H 0.5760 0.1296 0.2413
H11 H 0.5775 0.6706 0.2346
H12 H 0.5753 0.8416 0.2387
H13 H 0.9838 0.4669 0.1981
H14 H 1.0635 0.4705 0.1110
H15 H 0.7362 0.5230 0.0150
H16 H 0.6672 0.5187 0.1047
N9A N 0.7945(8) 0.0082(5) 0.2597(5)
N10A N 0.7046(8) -0.0372(5) 0.2392(5)
N11A N 0.6822(3) 0.4912(2) 0.3406(1)
N12B N 1.0539(3) 0.4978(2) 0.0028(1)
N18A N 0.9297(3) 0.4845(2) 0.3006(1)
C12A C 0.8494(4) 0.2660(3) 0.2554(2)
C13A C 0.8512(6) 0.1637(3) 0.2553(3)
C15A C 0.8499(5) 0.7054(3) 0.2583(2)
C16_2 C 0.6482(6) -0.1923(4) 0.2428(3)
C16A C 0.8518(6) -0.1923(4) 0.2572(3)
C17_2 C 0.7500 0.8577(5) 0.2500
N13 N -0.0133(4) 0.2331(4) -0.0700(2)
N14 N 0.7784(4) 0.2665(3) 0.0368(2)
N15 N 0.3523(4) 0.2308(3) 0.0009(2)
N16 N 0.4125(4) 0.2693(3) -0.0316(2)
C23 C 0.0348(5) 0.2215(5) -0.0109(3)
C24 C 0.1529(5) 0.2201(4) 0.0126(2)
C25 C 0.2291(4) 0.2321(3) -0.0261(2)
C26 C 0.1851(4) 0.2438(4) -0.0865(2)
C27 C 0.0641(5) 0.2435(4) -0.1062(2)
C28 C 0.7303(5) 0.2896(4) -0.0199(3)
C29 C 0.6119(5) 0.2920(4) -0.0428(3)
C30 C 0.5363(4) 0.2682(3) -0.0052(2)
C31 C 0.5839(4) 0.2444(4) 0.0544(3)
C32 C 0.7035(5) 0.2453(4) 0.0729(3)
H17 H -0.0174 0.2145 0.0165
H18 H 0.1813 0.2113 0.0549
H19 H 0.2362 0.2521 -0.1143
H20 H 0.0341 0.2516 -0.1483
H21 H 0.7819 0.3060 -0.0465
H22 H 0.5825 0.3100 -0.0839
H23 H 0.5345 0.2278 0.0820
H24 H 0.7351 0.2300 0.1141
Mn1 Mn 0.2500 0.95933(5) 0.2500
S1 S -0.1180(2) 1.0274(2) 0.11542(7)
N1 N 0.2500 0.7906(3) 0.2500
N2 N 0.2500 1.1301(3) 0.2500
N3 N 0.2184(8) 0.4835(5) 0.2324(4)
N4 N 0.2090(7) 0.4374(5) 0.2295(4)
N5 N 0.3124(3) 0.9668(2) 0.1568(1)
N6 N 0.4460(3) 0.9977(3) -0.0033(1)
N17 N 0.0718(3) 0.9600(2) 0.2008(1)
C1 C 0.2222(4) 0.7405(3) 0.1987(2)
C2 C 0.2215(5) 0.6391(3) 0.1972(2)
C3 C 0.2500 0.5888(4) 0.2500
C4 C 0.1898(5) 1.1795(3) 0.2038(2)
C5 C 0.1893(7) 1.2831(3) 0.2029(3)
C6 C 0.2500 0.3340(5) 0.2500
C7 C 0.4275(3) 0.9819(3) 0.1590(2)
C8 C 0.4778(3) 0.9918(3) 0.1092(2)
C9 C 0.4049(3) 0.9874(3) 0.0525(2)
C10 C 0.2868(3) 0.9728(3) 0.0487(2)
C11 C 0.2450(3) 0.9630(3) 0.1016(2)
C33 C -0.0079(4) 0.9879(3) 0.1648(2)
H1 H 0.2021 0.7755 0.1615
H2 H 0.2010 0.6053 0.1595
H3 H 0.1452 1.1446 0.1705
H4 H 0.1461 1.3170 0.1685
H5 H 0.4776 0.9861 0.1979
H6 H 0.5602 1.0014 0.1132
H7 H 0.2349 0.9695 0.0103
H8 H 0.1628 0.9528 0.0985
N3A N 0.2816(8) 0.4835(5) 0.2676(4)
N4A N 0.2910(7) 0.4374(5) 0.2705(4)
N5A N 0.1876(3) 0.9668(2) 0.3432(1)
N6B N 0.5540(3) 1.0023(3) 0.0033(1)
N17A N 0.4282(3) 0.9600(2) 0.2992(1)
C1A C 0.2778(4) 0.7405(3) 0.3013(2)
C2A C 0.2785(5) 0.6391(3) 0.3028(2)
C4A C 0.3102(5) 1.1795(3) 0.2962(2)
C5_2 C 0.1893(7) 0.2831(3) 0.2029(3)
C5A C 0.3107(7) 0.2831(3) 0.2971(3)
C6_2 C 0.2500 1.3340(5) 0.2500
loop_
_geom_bond_atom_site_label_1
_geom_bond_atom_site_label_2
_geom_bond_site_symmetry_1
_geom_bond_site_symmetry_2
Mn1 N1 1_555 1_555
Mn2 N7 1_555 1_555
S1 C33 1_555 1_555
S2 C34 1_555 1_555
N1 C1 1_555 1_555
N2 Mn1 1_555 1_555
N3 N4 1_555 1_555
N4 C6 1_555 1_555
N5 Mn1 1_555 1_555
N6 C9 1_555 1_555
N7 C12 1_555 1_555
N8 Mn2 1_555 1_555
N9 N10 1_555 1_555
N10 C17 1_555 1_555
N11 Mn2 1_555 1_555
N12 C20 1_555 1_555
N13 C23 1_555 1_555
N14 C28 1_555 1_555
N15 N16 1_555 1_555
N16 C30 1_555 1_555
N17 Mn1 1_555 1_555
N18 Mn2 1_555 1_555
C1 C2 1_555 1_555
C2 C3 1_555 1_555
C3 N3 1_555 1_555
C4 N2 1_555 1_555
C5 C4 1_555 1_555
C6 N4A 1_555 1_555
C7 N5 1_555 1_555
C8 C7 1_555 1_555
C9 C8 1_555 1_555
C10 C9 1_555 1_555
C11 N5 1_555 1_555
C12 C13 1_555 1_555
C13 C14 1_555 1_555
C14 N9 1_555 1_555
C15 N8 1_555 1_555
C16 C15 1_555 1_555
C17 N10A 1_555 1_555
C18 N11 1_555 1_555
C19 C18 1_555 1_555
C20 C19 1_555 1_555
C21 C20 1_555 1_555
C22 N11 1_555 1_555
C23 C24 1_555 1_555
C24 C25 1_555 1_555
C25 N15 1_555 1_555
C26 C25 1_555 1_555
C27 N13 1_555 1_555
C28 C29 1_555 1_555
C29 C30 1_555 1_555
C30 C31 1_555 1_555
C31 C32 1_555 1_555
C32 N14 1_555 1_555
C33 N17 1_555 1_555
C34 N18 1_555 1_555
H1 C1 1_555 1_555
H2 C2 1_555 1_555
H3 C4 1_555 1_555
H4 C5 1_555 1_555
H5 C7 1_555 1_555
H6 C8 1_555 1_555
H7 C10 1_555 1_555
H8 C11 1_555 1_555
H9 C12 1_555 1_555
H10 C13 1_555 1_555
H11 C15 1_555 1_555
H12 C16 1_555 1_555
H13 C18 1_555 1_555
H14 C19 1_555 1_555
H15 C21 1_555 1_555
H16 C22 1_555 1_555
H17 C23 1_555 1_555
H18 C24 1_555 1_555
H19 C26 1_555 1_555
H20 C27 1_555 1_555
H21 C28 1_555 1_555
H22 C29 1_555 1_555
H23 C31 1_555 1_555
H24 C32 1_555 1_555
N3A N3 1_555 1_555
N4A N3 1_555 1_555
N5A Mn1 1_555 1_555
N6B N6 1_555 1_555
N9A N9 1_555 1_555
N10A N9 1_555 1_555
N11A Mn2 1_555 1_555
N12B N12 1_555 1_555
N17A Mn1 1_555 1_555
N18A Mn2 1_555 1_555
C1A N1 1_555 1_555
C2A C3 1_555 1_555
C4A N2 1_555 1_555
C5_2 C6 1_555 1_555
C5A C6 1_555 1_555
C6_2 C5 1_555 1_555
C12A N7 1_555 1_555
C13A C14 1_555 1_555
C15A N8 1_555 1_555
C16_2 C17 1_555 1_555
C16A C17 1_555 1_555
C17_2 C16 1_555 1_555
N4 N3A 1_555 1_555
N4 N4A 1_555 1_555
N10 N9A 1_555 1_555
N10 N10A 1_555 1_555
C3 N3A 1_555 1_555
C10 C11 1_555 1_555
C14 N9A 1_555 1_555
C21 C22 1_555 1_555
C26 C27 1_555 1_555
N3A N4A 1_555 1_555
N9A N10A 1_555 1_555
C1A C2A 1_555 1_555
C12A C13A 1_555 1_555

#END
