
#######################################################################
#
#                 Cambridge Crystallographic Data Centre
#                                CCDC 
#
#######################################################################
#
# If this CIF has been generated from an entry in the Cambridge 
# Structural Database, then it will include bibliographic, chemical, 
# crystal, experimental, refinement or atomic coordinate data resulting 
# from the CCDC's data processing and validation procedures.
#
#######################################################################

data_NARXUA
_symmetry_cell_setting           monoclinic
_symmetry_space_group_name_H-M   'C 2/c'
_symmetry_Int_Tables_number      15
_space_group_name_Hall           '-C 2yn'
loop_
_symmetry_equiv_pos_site_id
_symmetry_equiv_pos_as_xyz
1 x,y,z
2 1/2+x,1/2+y,z
3 -x,y,1/2-z
4 1/2-x,1/2+y,1/2-z
5 -x,-y,-z
6 1/2-x,1/2-y,-z
7 x,-y,1/2+z
8 1/2+x,1/2-y,1/2+z
_cell_length_a                   17.207(4)
_cell_length_b                   13.523(3)
_cell_length_c                   27.951(6)
_cell_angle_alpha                90
_cell_angle_beta                 101.114(10)
_cell_angle_gamma                90
_cell_volume                     6381.95
loop_
_atom_site_label
_atom_site_type_symbol
_atom_site_fract_x
_atom_site_fract_y
_atom_site_fract_z
P1 P 0.3533(1) 0.3741(2) 0.10283(8)
F1 F 0.2664(4) 0.3901(8) 0.0934(3)
F2 F 0.3483(4) 0.2904(4) 0.1417(2)
F3 F 0.4452(4) 0.3559(5) 0.1117(4)
F4 F 0.3579(4) 0.4555(4) 0.0641(2)
F5 F 0.3490(6) 0.2937(5) 0.0647(2)
F6 F 0.331(1) 0.4360(9) 0.1466(5)
O2 O 0.7388(3) 0.1500(4) 0.2535(2)
O3 O 0.7911(3) 0.3128(4) 0.3089(2)
N9 N 0.7332(5) 0.2197(6) 0.1580(2)
N10 N 0.7258(4) 0.2727(4) 0.0094(2)
C17 C 0.7774(6) 0.1658(6) 0.1339(3)
C18 C 0.7797(5) 0.1792(5) 0.0851(2)
C19 C 0.7317(5) 0.2519(5) 0.0602(2)
C20 C 0.6839(6) 0.3091(6) 0.0837(3)
C21 C 0.6892(6) 0.2877(7) 0.1328(3)
H13 H 0.8092 0.1149 0.1511
H14 H 0.8132 0.1401 0.0693
H15 H 0.6497 0.3586 0.0674
H16 H 0.6578 0.3270 0.1500
N9E N 0.7668(5) 0.2803(6) -0.1580(2)
N10E N 0.7742(4) 0.2273(4) -0.0094(2)
C17E C 0.7226(6) 0.3342(6) -0.1339(3)
C18E C 0.7203(5) 0.3208(5) -0.0851(2)
C19E C 0.7683(5) 0.2481(5) -0.0602(2)
C20E C 0.8161(6) 0.1909(6) -0.0837(3)
C21E C 0.8108(6) 0.2123(7) -0.1328(3)
H13E H 0.6908 0.3851 -0.1511
H14E H 0.6868 0.3599 -0.0693
H15E H 0.8503 0.1414 -0.0674
H16E H 0.8422 0.1730 -0.1500
Zn1 Zn 0.5000 0.06802(6) 0.2500
O1 O 0.6190(2) 0.0620(3) 0.2849(1)
N1 N 0.5360(3) 0.0729(3) 0.1796(1)
N2 N 0.6559(3) 0.0095(5) -0.1189(2)
N3 N 0.5805(3) 0.0814(4) 0.0362(2)
N4 N 0.6227(3) 0.0176(4) 0.0258(2)
N5 N 0.5000 0.2321(4) 0.2500
N6 N 0.5000 0.8994(4) 0.2500
N7 N 0.5328(7) 0.5405(8) 0.2470(5)
N8 N 0.5240(7) 0.5890(7) 0.2475(5)
C1 C 0.5920(4) 0.0138(4) 0.1673(2)
C2 C 0.6100(4) 0.0138(4) 0.1210(2)
C3 C 0.5688(4) 0.0748(4) 0.0862(2)
C4 C 0.5132(4) 0.1374(4) 0.0985(2)
C5 C 0.4985(3) 0.1338(4) 0.1452(2)
C6 C 0.6091(4) 0.0775(5) -0.1055(2)
C7 C 0.5962(4) 0.0876(5) -0.0581(2)
C8 C 0.6346(4) 0.0225(5) -0.0237(2)
C9 C 0.6840(4) -0.0485(6) -0.0365(2)
C10 C 0.6926(5) -0.0511(6) -0.0848(2)
C11 C 0.5644(5) 0.2834(4) 0.2430(2)
C12 C 0.5627(7) 0.3849(6) 0.2426(3)
C13 C 0.5000 0.4377(8) 0.2500
C14 C 0.5680(3) 0.8472(4) 0.2592(2)
C15 C 0.5687(4) 0.7471(4) 0.2594(2)
C16 C 0.5000 0.6933(5) 0.2500
H1 H 0.6203 -0.0295 0.1913
H2 H 0.6504 -0.0281 0.1136
H3 H 0.4854 0.1825 0.0753
H4 H 0.4596 0.1770 0.1533
H5 H 0.5827 0.1219 -0.1296
H6 H 0.5623 0.1376 -0.0498
H7 H 0.7110 -0.0940 -0.0132
H8 H 0.7272 -0.0994 -0.0939
H9 H 0.6106 0.2493 0.2384
H10 H 0.6080 0.4194 0.2368
H11 H 0.6169 0.8818 0.2659
H12 H 0.6181 0.7135 0.2663
Zn1_2 Zn 0.5000 1.06802(6) 0.2500
O1B O 0.3810(2) 0.0620(3) 0.2151(1)
N1B N 0.4640(3) 0.0729(3) 0.3204(1)
N2B N 0.3441(3) 0.0095(5) 0.6189(2)
N3B N 0.4195(3) 0.0814(4) 0.4638(2)
N4B N 0.3773(3) 0.0176(4) 0.4742(2)
N6_2 N 0.5000 -0.1006(4) 0.2500
N7B N 0.4672(7) 0.5405(8) 0.2530(5)
N8B N 0.4760(7) 0.5890(7) 0.2525(5)
C1B C 0.4080(4) 0.0138(4) 0.3327(2)
C2B C 0.3900(4) 0.0138(4) 0.3790(2)
C3B C 0.4312(4) 0.0748(4) 0.4138(2)
C4B C 0.4868(4) 0.1374(4) 0.4015(2)
C5B C 0.5015(3) 0.1338(4) 0.3548(2)
C6B C 0.3909(4) 0.0775(5) 0.6055(2)
C7B C 0.4038(4) 0.0876(5) 0.5581(2)
C8B C 0.3654(4) 0.0225(5) 0.5237(2)
C9B C 0.3160(4) -0.0485(6) 0.5365(2)
C10B C 0.3074(5) -0.0511(6) 0.5848(2)
C11B C 0.4356(5) 0.2834(4) 0.2570(2)
C12B C 0.4373(7) 0.3849(6) 0.2574(3)
C14B C 0.4320(3) 0.8472(4) 0.2408(2)
C15B C 0.4313(4) 0.7471(4) 0.2406(2)
H1B H 0.3797 -0.0295 0.3087
H2B H 0.3496 -0.0281 0.3864
H3B H 0.5146 0.1825 0.4247
H4B H 0.5404 0.1770 0.3467
H5B H 0.4173 0.1219 0.6296
H6B H 0.4377 0.1376 0.5498
H7B H 0.2890 -0.0940 0.5132
H8B H 0.2728 -0.0994 0.5939
H9B H 0.3894 0.2493 0.2616
H10B H 0.3920 0.4194 0.2632
H11B H 0.3831 0.8818 0.2341
H12B H 0.3819 0.7135 0.2337
F7? F 0.3940(9) 0.461(1) 0.1385(5)
N11? N 0.8925(5) 0.2157(6) 0.3832(3)
N12? N 0.9867(6) -0.0299(9) 0.4890(4)
C22? C 0.9008(7) 0.2362(8) 0.4300(3)
C23? C 0.9338(7) 0.1753(9) 0.4670(3)
C24? C 0.9592(7) 0.0858(9) 0.4549(4)
C25? C 0.9518(8) 0.0596(8) 0.4071(4)
C26? C 0.9173(8) 0.1279(9) 0.3730(3)
H17? H 0.8819 0.2986 0.4385
H18? H 0.9387 0.1946 0.5001
H19? H 0.9695 -0.0028 0.3976
H20? H 0.9109 0.1101 0.3396
loop_
_geom_bond_atom_site_label_1
_geom_bond_atom_site_label_2
_geom_bond_site_symmetry_1
_geom_bond_site_symmetry_2
Zn1 O1 1_555 1_555
P1 F1 1_555 1_555
F2 P1 1_555 1_555
F3 P1 1_555 1_555
F4 P1 1_555 1_555
F5 P1 1_555 1_555
F6 P1 1_555 1_555
N1 Zn1 1_555 1_555
N2 C6 1_555 1_555
N3 N4 1_555 1_555
N4 C8 1_555 1_555
N5 Zn1 1_555 1_555
N6 C14 1_555 1_555
N7 N8 1_555 1_555
N8 C16 1_555 1_555
N9 C17 1_555 1_555
N10 C19 1_555 1_555
C1 N1 1_555 1_555
C2 C1 1_555 1_555
C3 N3 1_555 1_555
C4 C3 1_555 1_555
C5 N1 1_555 1_555
C6 C7 1_555 1_555
C7 C8 1_555 1_555
C8 C9 1_555 1_555
C9 C10 1_555 1_555
C10 N2 1_555 1_555
C11 N5 1_555 1_555
C12 C11 1_555 1_555
C13 N7 1_555 1_555
C14 C15 1_555 1_555
C15 C16 1_555 1_555
C16 N8B 1_555 1_555
C17 C18 1_555 1_555
C18 C19 1_555 1_555
C19 C20 1_555 1_555
C20 C21 1_555 1_555
C21 N9 1_555 1_555
H1 C1 1_555 1_555
H2 C2 1_555 1_555
H3 C4 1_555 1_555
H4 C5 1_555 1_555
H5 C6 1_555 1_555
H6 C7 1_555 1_555
H7 C9 1_555 1_555
H8 C10 1_555 1_555
H9 C11 1_555 1_555
H10 C12 1_555 1_555
H11 C14 1_555 1_555
H12 C15 1_555 1_555
H13 C17 1_555 1_555
H14 C18 1_555 1_555
H15 C20 1_555 1_555
H16 C21 1_555 1_555
Zn1_2 N6 1_555 1_555
O1B Zn1 1_555 1_555
N1B Zn1 1_555 1_555
N2B C6B 1_555 1_555
N3B N4B 1_555 1_555
N4B C8B 1_555 1_555
N6_2 Zn1 1_555 1_555
N7B N7 1_555 1_555
N8B N7 1_555 1_555
N9E C17E 1_555 1_555
N10E N10 1_555 1_555
C1B N1B 1_555 1_555
C2B C1B 1_555 1_555
C3B N3B 1_555 1_555
C4B C3B 1_555 1_555
C5B N1B 1_555 1_555
C6B C7B 1_555 1_555
C7B C8B 1_555 1_555
C8B C9B 1_555 1_555
C9B C10B 1_555 1_555
C10B N2B 1_555 1_555
C11B N5 1_555 1_555
C12B C13 1_555 1_555
C14B N6 1_555 1_555
C15B C16 1_555 1_555
C17E C18E 1_555 1_555
C18E C19E 1_555 1_555
C19E N10E 1_555 1_555
C20E C19E 1_555 1_555
C21E N9E 1_555 1_555
H1B C1B 1_555 1_555
H2B C2B 1_555 1_555
H3B C4B 1_555 1_555
H4B C5B 1_555 1_555
H5B C6B 1_555 1_555
H6B C7B 1_555 1_555
H7B C9B 1_555 1_555
H8B C10B 1_555 1_555
H9B C11B 1_555 1_555
H10B C12B 1_555 1_555
H11B C14B 1_555 1_555
H12B C15B 1_555 1_555
H13E C17E 1_555 1_555
H14E C18E 1_555 1_555
H15E C20E 1_555 1_555
H16E C21E 1_555 1_555
N8 N7B 1_555 1_555
N8 N8B 1_555 1_555
C2 C3 1_555 1_555
C4 C5 1_555 1_555
C12 C13 1_555 1_555
C13 N7B 1_555 1_555
N7B N8B 1_555 1_555
C2B C3B 1_555 1_555
C4B C5B 1_555 1_555
C11B C12B 1_555 1_555
C14B C15B 1_555 1_555
C20E C21E 1_555 1_555

#END
