
#######################################################################
#
#                 Cambridge Crystallographic Data Centre
#                                CCDC 
#
#######################################################################
#
# If this CIF has been generated from an entry in the Cambridge 
# Structural Database, then it will include bibliographic, chemical, 
# crystal, experimental, refinement or atomic coordinate data resulting 
# from the CCDC's data processing and validation procedures.
#
#######################################################################

data_NASCAN
_symmetry_cell_setting           orthorhombic
_symmetry_space_group_name_H-M   'C m c 21'
_symmetry_Int_Tables_number      36
_space_group_name_Hall           'C 2n -2'
loop_
_symmetry_equiv_pos_site_id
_symmetry_equiv_pos_as_xyz
1 x,y,z
2 -x,-y,1/2+z
3 x,-y,1/2+z
4 -x,y,z
5 1/2+x,1/2+y,z
6 1/2-x,1/2-y,1/2+z
7 1/2+x,1/2-y,1/2+z
8 1/2-x,1/2+y,z
_cell_length_a                   19.899
_cell_length_b                   6.398
_cell_length_c                   6.1951
_cell_angle_alpha                90
_cell_angle_beta                 90
_cell_angle_gamma                90
_cell_volume                     788.722
loop_
_atom_site_label
_atom_site_type_symbol
_atom_site_fract_x
_atom_site_fract_y
_atom_site_fract_z
Zn1 Zn 0.2888(4) 0.1547(3) 0.8762
S1 S 0.3068(8) 0.191(3) 1.255(3)
N1 N 0.37790(2) 0.33322(12) 0.71033(11)
C1 C 0.433372(18) 0.22377(7) 0.83820(8)
C2 C 0.50000 0.28008(11) 0.7327(2)
H1 H 0.426857 0.075238 0.831421
H2 H 0.433048 0.273235 0.984489
H3 H 0.500 0.425712 0.695368
H4 H 0.500 0.232905 0.585592
H5 H 0.38041 0.296604 0.575326
H6 H 0.376475 0.464588 0.746318
Zn1B Zn 0.2888(4) -0.1547(3) 1.3762
Zn1E Zn 0.2112(4) 0.3453(3) 1.3762
Zn1C Zn 0.7112(4) 0.1547(3) 0.8762
Zn1A Zn 0.7112(4) -0.1547(3) 0.3762
Zn1D Zn 0.7888(4) -0.3453(3) 0.8762
S1B S 0.3068(8) -0.191(3) 0.755(3)
S1E S 0.1932(8) 0.309(3) 0.755(3)
S1A S 0.6932(8) -0.191(3) 0.755(3)
S1C S 0.6932(8) 0.191(3) 1.255(3)
S1F S 0.8068(8) 0.309(3) 0.755(3)
N1C N 0.62210(2) 0.33322(12) 0.71033(11)
C1C C 0.566628(18) 0.22377(7) 0.83820(8)
H1C H 0.573143 0.075238 0.831421
H2C H 0.566952 0.273235 0.984489
H5C H 0.61959 0.296604 0.575326
H6C H 0.623525 0.464588 0.746318
loop_
_geom_bond_atom_site_label_1
_geom_bond_atom_site_label_2
_geom_bond_site_symmetry_1
_geom_bond_site_symmetry_2
Zn1 S1 1_555 1_555
S1 Zn1B 1_555 1_555
N1 Zn1 1_555 1_555
C1 N1 1_555 1_555
C2 C1 1_555 1_555
H1 C1 1_555 1_555
H2 C1 1_555 1_555
H3 C2 1_555 1_555
H4 C2 1_555 1_555
H5 N1 1_555 1_555
H6 N1 1_555 1_555
Zn1E S1 1_555 1_555
Zn1C S1A 1_555 1_555
Zn1A S1A 1_555 1_555
Zn1D S1A 1_555 1_555
S1B Zn1 1_555 1_555
S1E Zn1 1_555 1_555
S1C Zn1C 1_555 1_555
S1F Zn1C 1_555 1_555
N1C Zn1C 1_555 1_555
C1C C2 1_555 1_555
H1C C1C 1_555 1_555
H2C C1C 1_555 1_555
H5C N1C 1_555 1_555
H6C N1C 1_555 1_555
N1C C1C 1_555 1_555

#END
