
#######################################################################
#
#                 Cambridge Crystallographic Data Centre
#                                CCDC 
#
#######################################################################
#
# If this CIF has been generated from an entry in the Cambridge 
# Structural Database, then it will include bibliographic, chemical, 
# crystal, experimental, refinement or atomic coordinate data resulting 
# from the CCDC's data processing and validation procedures.
#
#######################################################################

data_NASDOC
_symmetry_cell_setting           monoclinic
_symmetry_space_group_name_H-M   'C 2/c'
_symmetry_Int_Tables_number      15
_space_group_name_Hall           '-C 2yn'
loop_
_symmetry_equiv_pos_site_id
_symmetry_equiv_pos_as_xyz
1 x,y,z
2 -x,y,1/2-z
3 1/2+x,1/2+y,z
4 1/2-x,1/2+y,1/2-z
5 -x,-y,-z
6 x,-y,1/2+z
7 1/2-x,1/2-y,-z
8 1/2+x,1/2-y,1/2+z
_cell_length_a                   15.395(13)
_cell_length_b                   11.697(10)
_cell_length_c                   16.307(14)
_cell_angle_alpha                90
_cell_angle_beta                 91.244(12)
_cell_angle_gamma                90
_cell_volume                     2935.8
loop_
_atom_site_label
_atom_site_type_symbol
_atom_site_fract_x
_atom_site_fract_y
_atom_site_fract_z
Mn1 Mn 0.0000 0.17653(10) 0.2500
O1 O 0.0965(3) 0.1724(4) 0.1547(3)
O2 O 0.2256(3) 0.1762(4) 0.2215(3)
O3 O 0.1150(4) 0.0036(4) -0.0545(3)
O4 O 0.1799(3) -0.0349(4) 0.0676(3)
H1 H 0.1484 -0.0868 0.0729
O5 O 0.1092(3) 0.1828(3) 0.3413(3)
H2 H 0.1568 0.1734 0.3167
H3 H 0.1038 0.1280 0.3751
N1 N 0.0000 0.3733(6) 0.2500
N2 N 0.0000 0.9821(6) 0.2500
C1 C 0.1785(4) 0.1830(5) 0.1583(4)
C2 C 0.2197(4) 0.2115(5) 0.0760(4)
C3 C 0.2049(4) 0.1451(5) 0.0048(4)
C4 C 0.2642(4) 0.3137(5) 0.0706(4)
H4 H 0.2741 0.3565 0.1179
C5 C 0.1615(4) 0.0296(5) 0.0054(4)
C6 C 0.0737(5) 0.9217(5) 0.2464(4)
H5 H 0.1256 0.9619 0.2425
C7 C 0.0779(5) 0.8041(5) 0.2481(4)
H6 H 0.1313 0.7670 0.2479
C8 C 0.0000 0.7410(7) 0.2500
C9 C 0.0000 0.6132(7) 0.2500
C10 C -0.0715(5) 0.5510(6) 0.2253(5)
H7 H -0.1217 0.5887 0.2074
C11 C -0.0696(5) 0.4329(5) 0.2267(5)
H8 H -0.1195 0.3933 0.2106
Mn1_2 Mn 0.0000 1.17653(10) 0.2500
Mn1F Mn 0.5000 0.32347(10) -0.2500
O1F O 0.4035(3) 0.3276(4) -0.1547(3)
O1A O -0.0965(3) 0.1724(4) 0.3453(3)
O2F O 0.2744(3) 0.3238(4) -0.2215(3)
O3F O 0.3850(4) 0.4964(4) 0.0545(3)
O4F O 0.3201(3) 0.5349(4) -0.0676(3)
H1F H 0.3516 0.5868 -0.0729
O5A O -0.1092(3) 0.1828(3) 0.1587(3)
H2A H -0.1568 0.1734 0.1833
H3A H -0.1038 0.1280 0.1249
N2_2 N 0.0000 -0.0179(6) 0.2500
C1F C 0.3215(4) 0.3170(5) -0.1583(4)
C2F C 0.2803(4) 0.2885(5) -0.0760(4)
C3F C 0.2951(4) 0.3549(5) -0.0048(4)
C4F C 0.2358(4) 0.1863(5) -0.0706(4)
H4F H 0.2259 0.1435 -0.1179
C5F C 0.3385(4) 0.4704(5) -0.0054(4)
C6A C -0.0737(5) 0.9217(5) 0.2536(4)
H5A H -0.1256 0.9619 0.2575
C7A C -0.0779(5) 0.8041(5) 0.2519(4)
H6A H -0.1313 0.7670 0.2521
C10A C 0.0715(5) 0.5510(6) 0.2747(5)
H7A H 0.1217 0.5887 0.2926
C11A C 0.0696(5) 0.4329(5) 0.2733(5)
H8A H 0.1195 0.3933 0.2894
N3 N 0.1061(4) 0.7633(5) 0.0469(4)
C12 C 0.1460(6) 0.6638(7) 0.0522(9)
H9 H 0.2037 0.6634 0.0702
C13 C 0.1080(6) 0.5606(7) 0.0328(9)
H10 H 0.1410 0.4941 0.0359
C14 C 0.0224(4) 0.5545(5) 0.0089(4)
C15 C -0.0193(6) 0.6568(6) 0.0051(7)
H11 H -0.0778 0.6595 -0.0101
C16 C 0.0252(6) 0.7582(6) 0.0237(6)
H12 H -0.0054 0.8266 0.0192
N3D N -0.1061(4) 0.2367(5) -0.0469(4)
C12D C -0.1460(6) 0.3362(7) -0.0522(9)
H9D H -0.2037 0.3366 -0.0702
C13D C -0.1080(6) 0.4394(7) -0.0328(9)
H10D H -0.1410 0.5059 -0.0359
C14D C -0.0224(4) 0.4455(5) -0.0089(4)
C15D C 0.0193(6) 0.3432(6) -0.0051(7)
H11D H 0.0778 0.3405 0.0101
C16D C -0.0252(6) 0.2418(6) -0.0237(6)
H12D H 0.0054 0.1734 -0.0192
loop_
_geom_bond_atom_site_label_1
_geom_bond_atom_site_label_2
_geom_bond_site_symmetry_1
_geom_bond_site_symmetry_2
Mn1 O1 1_555 1_555
O1 C1 1_555 1_555
O2 C1 1_555 1_555
O3 C5 1_555 1_555
O4 H1 1_555 1_555
O5 Mn1 1_555 1_555
H2 O5 1_555 1_555
H3 O5 1_555 1_555
N1 Mn1 1_555 1_555
N2 C6 1_555 1_555
C1 C2 1_555 1_555
C2 C3 1_555 1_555
C3 C5 1_555 1_555
C4 C2 1_555 1_555
H4 C4 1_555 1_555
C5 O4 1_555 1_555
C6 H5 1_555 1_555
C7 C6 1_555 1_555
H6 C7 1_555 1_555
C8 C7 1_555 1_555
C9 C8 1_555 1_555
C10 C9 1_555 1_555
H7 C10 1_555 1_555
C11 N1 1_555 1_555
H8 C11 1_555 1_555
N3 C12 1_555 1_555
C12 H9 1_555 1_555
C13 C12 1_555 1_555
H10 C13 1_555 1_555
C14 C13 1_555 1_555
C15 C14 1_555 1_555
H11 C15 1_555 1_555
C16 N3 1_555 1_555
H12 C16 1_555 1_555
Mn1_2 N2 1_555 1_555
Mn1F O1F 1_555 1_555
O1F C1F 1_555 1_555
O1A Mn1 1_555 1_555
O2F C1F 1_555 1_555
O3F C5F 1_555 1_555
O4F H1F 1_555 1_555
O5A Mn1 1_555 1_555
H2A O5A 1_555 1_555
H3A O5A 1_555 1_555
N2_2 Mn1 1_555 1_555
C1F C2F 1_555 1_555
C2F C3F 1_555 1_555
C3F C4 1_555 1_555
C4F C3 1_555 1_555
H4F C4F 1_555 1_555
C5F O4F 1_555 1_555
C6A N2 1_555 1_555
H5A C6A 1_555 1_555
C7A C8 1_555 1_555
H6A C7A 1_555 1_555
C10A C9 1_555 1_555
H7A C10A 1_555 1_555
C11A N1 1_555 1_555
H8A C11A 1_555 1_555
N3D C12D 1_555 1_555
C12D H9D 1_555 1_555
C13D C12D 1_555 1_555
H10D C13D 1_555 1_555
C14D C14 1_555 1_555
C15D C14D 1_555 1_555
H11D C15D 1_555 1_555
C16D N3D 1_555 1_555
H12D C16D 1_555 1_555
C10 C11 1_555 1_555
C15 C16 1_555 1_555
C2F C4F 1_555 1_555
C3F C5F 1_555 1_555
C6A C7A 1_555 1_555
C10A C11A 1_555 1_555
C13D C14D 1_555 1_555
C15D C16D 1_555 1_555

#END
