
#######################################################################
#
#                 Cambridge Crystallographic Data Centre
#                                CCDC 
#
#######################################################################
#
# If this CIF has been generated from an entry in the Cambridge 
# Structural Database, then it will include bibliographic, chemical, 
# crystal, experimental, refinement or atomic coordinate data resulting 
# from the CCDC's data processing and validation procedures.
#
#######################################################################

data_NASDUI
_symmetry_cell_setting           orthorhombic
_symmetry_space_group_name_H-M   'P b c a'
_symmetry_Int_Tables_number      61
_space_group_name_Hall           '-P 2ac 2ab'
loop_
_symmetry_equiv_pos_site_id
_symmetry_equiv_pos_as_xyz
1 x,y,z
2 1/2-x,-y,1/2+z
3 1/2+x,1/2-y,-z
4 -x,1/2+y,1/2-z
5 -x,-y,-z
6 1/2+x,y,1/2-z
7 1/2-x,1/2+y,z
8 x,1/2-y,1/2+z
_cell_length_a                   9.117(3)
_cell_length_b                   15.460(4)
_cell_length_c                   17.355(5)
_cell_angle_alpha                90
_cell_angle_beta                 90
_cell_angle_gamma                90
_cell_volume                     2446.17
loop_
_atom_site_label
_atom_site_type_symbol
_atom_site_fract_x
_atom_site_fract_y
_atom_site_fract_z
O1 O 0.8733(13) 0.0955(7) 1.0306(6)
H1 H 0.9636 0.1036 1.0405
H2 H 0.8569 0.0430 1.0425
Co1 Co 0.85514(14) 0.25121(9) 0.74775(7)
O2 O 0.7195(9) 0.2037(5) 0.8343(4)
O3 O 0.5339(8) 0.2964(5) 0.8258(4)
O4 O 0.7141(7) 0.1990(5) 1.1639(4)
O5 O 0.5263(8) 0.2916(5) 1.1706(4)
O6 O 0.3795(8) 0.1283(5) 1.2037(4)
O7 O 0.2647(10) 0.0294(5) 1.1324(4)
O8 O 0.3412(9) 0.0066(5) 0.8561(4)
O9 O 0.3778(9) 0.1281(5) 0.7923(4)
Na1 Na 0.1130(5) 0.0754(3) 1.2425(2)
Na2 Na 0.8680(6) 0.0934(3) 0.8927(3)
O10 O -0.0444(9) -0.0242(5) 1.1837(5)
H3 H -0.1197 0.0038 1.1531
H4 H -0.0892 -0.0632 1.2206
C1 C 0.5969(12) 0.2323(7) 0.8567(6)
C2 C 0.5348(11) 0.1927(7) 0.9287(6)
C3 C 0.5857(11) 0.2224(7) 0.9983(5)
H5 H 0.6588 0.2643 0.9988
C4 C 0.5311(12) 0.1914(7) 1.0684(5)
C5 C 0.4249(11) 0.1274(7) 1.0676(5)
C6 C 0.3797(11) 0.0938(6) 0.9966(5)
H6 H 0.3124 0.0486 0.9959
C7 C 0.4316(11) 0.1255(7) 0.9275(5)
C8 C 0.3816(11) 0.0849(7) 0.8524(6)
C9 C 0.3486(11) 0.0915(7) 1.1386(5)
C10 C 0.5956(12) 0.2309(6) 1.1414(5)
Co1E Co 0.35514(14) 0.25121(9) 0.75225(7)
Co1G Co 0.85514(14) 0.24879(9) 1.24775(7)
Co1B Co 0.35514(14) 0.24879(9) 1.25225(7)
O3E O 1.0339(8) 0.2964(5) 0.6742(4)
O3B O 0.0339(8) 0.2036(5) 1.1742(4)
O4G O 0.7141(7) 0.3010(5) 0.6639(4)
O4E O 0.2141(7) 0.1990(5) 1.3361(4)
O5B O 1.0263(8) 0.2084(5) 0.8294(4)
O6B O 0.8795(8) 0.3717(5) 0.7963(4)
O6E O -0.1205(8) 0.1283(5) 1.2963(4)
O7D O 0.7353(10) -0.0294(5) 0.8676(4)
O8A O 0.1588(9) -0.0066(5) 1.3561(4)
O9E O 0.8778(9) 0.1281(5) 0.7077(4)
Na1B Na 0.6130(5) 0.4246(3) 0.7575(2)
Na1E Na 0.6130(5) 0.0754(3) 1.2575(2)
Na1A Na 0.3870(5) -0.0754(3) 0.7425(2)
Na2B Na 0.3680(6) 0.4066(3) 1.1073(3)
Na2D Na 0.1320(6) -0.0934(3) 1.1073(3)
O10D O 1.0444(9) 0.0242(5) 0.8163(5)
H3D H 1.1197 -0.0038 0.8469
H4D H 1.0892 0.0632 0.7794
loop_
_geom_bond_atom_site_label_1
_geom_bond_atom_site_label_2
_geom_bond_site_symmetry_1
_geom_bond_site_symmetry_2
O1 H1 1_555 1_555
H2 O1 1_555 1_555
Co1 O2 1_555 1_555
O2 Na2 1_555 1_555
O3 C1 1_555 1_555
O4 C10 1_555 1_555
O5 C10 1_555 1_555
O6 Na1 1_555 1_555
O7 Na1 1_555 1_555
O8 C8 1_555 1_555
O9 C8 1_555 1_555
Na1 O10 1_555 1_555
Na2 O1 1_555 1_555
O10 H3 1_555 1_555
H4 O10 1_555 1_555
C1 O2 1_555 1_555
C2 C1 1_555 1_555
C3 C2 1_555 1_555
H5 C3 1_555 1_555
C4 C3 1_555 1_555
C5 C4 1_555 1_555
C6 C5 1_555 1_555
H6 C6 1_555 1_555
C7 C2 1_555 1_555
C8 C7 1_555 1_555
C9 O6 1_555 1_555
C10 C4 1_555 1_555
Co1E O3 1_555 1_555
Co1G O4 1_555 1_555
Co1B O5 1_555 1_555
O3E Co1 1_555 1_555
O3B Na1 1_555 1_555
O4G Co1 1_555 1_555
O4E Na1 1_555 1_555
O5B Co1 1_555 1_555
O6B Co1 1_555 1_555
O6E Na1 1_555 1_555
O7D Na2 1_555 1_555
O8A Na1 1_555 1_555
O9E Co1 1_555 1_555
Na1B O3 1_555 1_555
Na1E O4 1_555 1_555
Na1A O8 1_555 1_555
Na2B O5 1_555 1_555
Na2D O7 1_555 1_555
O10D Na2 1_555 1_555
H3D O10D 1_555 1_555
H4D O10D 1_555 1_555
O6 Co1B 1_555 1_555
O6 Na1E 1_555 1_555
O7 C9 1_555 1_555
O9 Co1E 1_555 1_555
Na2 O5B 1_555 1_555
O10 Na2D 1_555 1_555
C5 C9 1_555 1_555
C6 C7 1_555 1_555
Co1B O4E 1_555 1_555
O4G Na1B 1_555 1_555
O6B Na1B 1_555 1_555

#END
