
#######################################################################
#
#                 Cambridge Crystallographic Data Centre
#                                CCDC 
#
#######################################################################
#
# If this CIF has been generated from an entry in the Cambridge 
# Structural Database, then it will include bibliographic, chemical, 
# crystal, experimental, refinement or atomic coordinate data resulting 
# from the CCDC's data processing and validation procedures.
#
#######################################################################

data_NASGIZ
_symmetry_cell_setting           orthorhombic
_symmetry_space_group_name_H-M   'P b c a'
_symmetry_Int_Tables_number      61
_space_group_name_Hall           '-P 2ac 2ab'
loop_
_symmetry_equiv_pos_site_id
_symmetry_equiv_pos_as_xyz
1 x,y,z
2 1/2-x,-y,1/2+z
3 1/2+x,1/2-y,-z
4 -x,1/2+y,1/2-z
5 -x,-y,-z
6 1/2+x,y,1/2-z
7 1/2-x,1/2+y,z
8 x,1/2-y,1/2+z
_cell_length_a                   7.9018(16)
_cell_length_b                   12.698(3)
_cell_length_c                   24.039(5)
_cell_angle_alpha                90
_cell_angle_beta                 90
_cell_angle_gamma                90
_cell_volume                     2412
loop_
_atom_site_label
_atom_site_type_symbol
_atom_site_fract_x
_atom_site_fract_y
_atom_site_fract_z
Cd1 Cd 0.16424(3) 0.237690(15) 0.081720(7)
Cd2 Cd 0.0000 0.0000 0.5000
O1 O 0.4385(3) 0.26057(16) 0.11556(9)
H1 H 0.4970 0.2045 0.1172
H2 H 0.4818 0.3120 0.0980
N1 N 0.2417(4) -0.10495(17) 0.52185(9)
N2 N 0.3394(3) -0.09176(18) 0.48436(10)
N3 N 0.4316(5) -0.0781(2) 0.44804(12)
N4 N 0.1454(3) 0.14533(18) 0.16418(9)
N5 N 0.0667(3) 0.04394(17) 0.36844(9)
N6 N 0.0113(3) -0.02725(18) 0.40487(9)
N7 N -0.0412(4) -0.11203(18) 0.37846(9)
N8 N -0.0197(4) -0.09874(19) 0.32393(10)
N9 N -0.3743(4) -0.1908(2) 0.56564(11)
N10 N -0.2766(3) -0.17146(16) 0.53197(9)
N11 N -0.1704(3) -0.15261(18) 0.49820(9)
C1 C 0.0711(5) 0.0508(2) 0.16657(11)
H3 H 0.0373 0.0181 0.1328
C2 C 0.0416(5) -0.0009(2) 0.21567(12)
H4 H -0.0092 -0.0687 0.2156
C3 C 0.0869(4) 0.0468(2) 0.26562(10)
C4 C 0.1683(4) 0.1434(2) 0.26329(11)
H5 H 0.2050 0.1773 0.2964
C5 C 0.1950(4) 0.1894(2) 0.21222(11)
H6 H 0.2513 0.2554 0.2109
C6 C 0.0473(4) -0.0031(2) 0.31927(11)
Cd1E Cd -0.33576(3) 0.237690(15) 0.418280(7)
Cd1A Cd 0.33576(3) -0.237690(15) 0.581720(7)
Cd1C Cd -0.16424(3) -0.262310(15) 0.418280(7)
Cd1A_2 Cd -0.66424(3) -0.237690(15) 0.581720(7)
Cd1D Cd -0.16424(3) -0.237690(15) 0.918280(7)
Cd1G Cd 0.16424(3) 0.262310(15) 0.581720(7)
Cd1E_2 Cd 0.66424(3) 0.237690(15) 0.418280(7)
O1D O -0.4385(3) -0.26057(16) 0.88444(9)
H1D H -0.4970 -0.2045 0.8828
H2D H -0.4818 -0.3120 0.9020
N1D N -0.2417(4) 0.10495(17) 0.47815(9)
N1A N 0.2583(4) 0.10495(17) 0.02185(9)
N1E N -0.2583(4) -0.10495(17) 0.97815(9)
N2D N -0.3394(3) 0.09176(18) 0.51564(10)
N3D N -0.4316(5) 0.0781(2) 0.55196(12)
N4D N -0.1454(3) -0.14533(18) 0.83582(9)
N5D N -0.0667(3) -0.04394(17) 0.63156(9)
N6D N -0.0113(3) 0.02725(18) 0.59513(9)
N7D N 0.0412(4) 0.11203(18) 0.62154(9)
N7C N 0.0412(4) 0.38797(18) 0.12154(9)
N7G N -0.0412(4) -0.38797(18) 0.87846(9)
N8D N 0.0197(4) 0.09874(19) 0.67607(10)
N9D N 0.3743(4) 0.1908(2) 0.43436(11)
N9A N -0.1257(4) 0.1908(2) 0.06564(11)
N9E N 0.1257(4) -0.1908(2) 0.93436(11)
N10D N 0.2766(3) 0.17146(16) 0.46803(9)
N11D N 0.1704(3) 0.15261(18) 0.50180(9)
N11C N 0.1704(3) 0.34739(18) 0.00180(9)
N11G N -0.1704(3) -0.34739(18) 0.99820(9)
C1D C -0.0711(5) -0.0508(2) 0.83343(11)
H3D H -0.0373 -0.0181 0.8672
C2D C -0.0416(5) 0.0009(2) 0.78433(12)
H4D H 0.0092 0.0687 0.7844
C3D C -0.0869(4) -0.0468(2) 0.73438(10)
C4D C -0.1683(4) -0.1434(2) 0.73671(11)
H5D H -0.2050 -0.1773 0.7036
C5D C -0.1950(4) -0.1894(2) 0.78778(11)
H6D H -0.2513 -0.2554 0.7891
C6D C -0.0473(4) 0.0031(2) 0.68073(11)
loop_
_geom_bond_atom_site_label_1
_geom_bond_atom_site_label_2
_geom_bond_site_symmetry_1
_geom_bond_site_symmetry_2
Cd1 O1 1_555 1_555
Cd2 N1 1_555 1_555
O1 H1 1_555 1_555
H2 O1 1_555 1_555
N1 N2 1_555 1_555
N2 N3 1_555 1_555
N4 Cd1 1_555 1_555
N5 N6 1_555 1_555
N6 Cd2 1_555 1_555
N7 N6 1_555 1_555
N8 N7 1_555 1_555
N9 N10 1_555 1_555
N10 N11 1_555 1_555
N11 Cd2 1_555 1_555
C1 N4 1_555 1_555
H3 C1 1_555 1_555
C2 C1 1_555 1_555
H4 C2 1_555 1_555
C3 C2 1_555 1_555
C4 C3 1_555 1_555
H5 C4 1_555 1_555
C5 N4 1_555 1_555
H6 C5 1_555 1_555
C6 N5 1_555 1_555
Cd1E N1D 1_555 1_555
Cd1A N1 1_555 1_555
Cd1C N7 1_555 1_555
Cd1A_2 N9 1_555 1_555
Cd1D O1D 1_555 1_555
Cd1G N7D 1_555 1_555
Cd1E_2 N9D 1_555 1_555
O1D H1D 1_555 1_555
H2D O1D 1_555 1_555
N1D Cd2 1_555 1_555
N1A Cd1 1_555 1_555
N1E Cd1D 1_555 1_555
N2D N1D 1_555 1_555
N3D N2D 1_555 1_555
N4D Cd1D 1_555 1_555
N5D N6D 1_555 1_555
N6D Cd2 1_555 1_555
N7D N6D 1_555 1_555
N7C Cd1 1_555 1_555
N7G Cd1D 1_555 1_555
N8D N7D 1_555 1_555
N9D N10D 1_555 1_555
N9A Cd1 1_555 1_555
N9E Cd1D 1_555 1_555
N10D N11D 1_555 1_555
N11D Cd2 1_555 1_555
N11C Cd1 1_555 1_555
N11G Cd1D 1_555 1_555
C1D N4D 1_555 1_555
H3D C1D 1_555 1_555
C2D C1D 1_555 1_555
H4D C2D 1_555 1_555
C3D C2D 1_555 1_555
C4D C3D 1_555 1_555
H5D C4D 1_555 1_555
C5D N4D 1_555 1_555
H6D C5D 1_555 1_555
C6D N5D 1_555 1_555
N8 C6 1_555 1_555
N11 Cd1C 1_555 1_555
C3 C6 1_555 1_555
C4 C5 1_555 1_555
Cd1G N11D 1_555 1_555
N8D C6D 1_555 1_555
C3D C6D 1_555 1_555
C4D C5D 1_555 1_555

#END
