
#######################################################################
#
#                 Cambridge Crystallographic Data Centre
#                                CCDC 
#
#######################################################################
#
# If this CIF has been generated from an entry in the Cambridge 
# Structural Database, then it will include bibliographic, chemical, 
# crystal, experimental, refinement or atomic coordinate data resulting 
# from the CCDC's data processing and validation procedures.
#
#######################################################################

data_NASGEV
_symmetry_cell_setting           orthorhombic
_symmetry_space_group_name_H-M   'P b c a'
_symmetry_Int_Tables_number      61
_space_group_name_Hall           '-P 2ac 2ab'
loop_
_symmetry_equiv_pos_site_id
_symmetry_equiv_pos_as_xyz
1 x,y,z
2 1/2-x,-y,1/2+z
3 1/2+x,1/2-y,-z
4 -x,1/2+y,1/2-z
5 -x,-y,-z
6 1/2+x,y,1/2-z
7 1/2-x,1/2+y,z
8 x,1/2-y,1/2+z
_cell_length_a                   7.9027(16)
_cell_length_b                   12.693(3)
_cell_length_c                   24.003(5)
_cell_angle_alpha                90
_cell_angle_beta                 90
_cell_angle_gamma                90
_cell_volume                     2407.72
loop_
_atom_site_label
_atom_site_type_symbol
_atom_site_fract_x
_atom_site_fract_y
_atom_site_fract_z
Zn1 Zn -0.16432(9) 0.73759(6) 0.91828(3)
Zn2 Zn 0.0000 0.5000 0.5000
N1 N -0.1468(10) 0.6436(7) 0.8360(3)
N2 N -0.0107(9) 0.4726(7) 0.5953(3)
N3 N -0.0670(11) 0.5423(7) 0.6307(3)
N4 N 0.0397(10) 0.3895(7) 0.6220(3)
N5 N -0.1702(9) 0.6515(7) 0.4980(3)
N6 N -0.2437(11) 0.3958(6) 0.4779(3)
N7 N 0.0204(11) 0.4032(7) 0.6756(3)
N8 N -0.2747(10) 0.6708(6) 0.5319(3)
N9 N -0.3765(11) 0.6902(9) 0.5660(4)
N10 N -0.3392(10) 0.4091(7) 0.5158(4)
N11 N -0.4299(15) 0.4236(8) 0.5522(4)
C1 C -0.1971(11) 0.6910(9) 0.7878(4)
H1 H -0.2506 0.7562 0.7894
C2 C -0.1698(10) 0.6437(9) 0.7361(4)
H2 H -0.2048 0.6770 0.7035
C3 C -0.0891(12) 0.5453(8) 0.7336(4)
C4 C -0.0434(14) 0.4997(8) 0.7850(4)
H3 H 0.0081 0.4338 0.7853
C5 C -0.0726(16) 0.5493(8) 0.8335(4)
H4 H -0.0399 0.5167 0.8665
C6 C -0.0505(14) 0.4961(8) 0.6804(4)
O1 O -0.4417(9) 0.7587(5) 0.8845(3)
H5 H -0.4915 0.8088 0.8677
H6 H -0.3361 0.7655 0.8789
Zn1D Zn 0.16432(9) 0.26241(6) 0.08172(3)
Zn1C Zn 0.16432(9) 0.23759(6) 0.58172(3)
Zn1G Zn -0.16432(9) 0.76241(6) 0.41828(3)
Zn1A Zn -0.33568(9) 0.26241(6) 0.41828(3)
Zn1E Zn -0.66432(9) 0.73759(6) 0.58172(3)
Zn1E_2 Zn 0.33568(9) 0.73759(6) 0.58172(3)
Zn1A_2 Zn 0.66432(9) 0.26241(6) 0.41828(3)
N1D N 0.1468(10) 0.3564(7) 0.1640(3)
N2D N 0.0107(9) 0.5274(7) 0.4047(3)
N3D N 0.0670(11) 0.4577(7) 0.3693(3)
N4D N -0.0397(10) 0.6105(7) 0.3780(3)
N4C N -0.0397(10) 0.8895(7) 0.8780(3)
N4G N 0.0397(10) 0.1105(7) 0.1220(3)
N5D N 0.1702(9) 0.3485(7) 0.5020(3)
N5G N -0.1702(9) 0.8485(7) 0.9980(3)
N5C N 0.1702(9) 0.1515(7) 0.0020(3)
N6D N 0.2437(11) 0.6042(6) 0.5221(3)
N6A N -0.2563(11) 0.6042(6) 0.9779(3)
N6E N 0.2563(11) 0.3958(6) 0.0221(3)
N7D N -0.0204(11) 0.5968(7) 0.3244(3)
N8D N 0.2747(10) 0.3292(6) 0.4681(3)
N9D N 0.3765(11) 0.3098(9) 0.4340(4)
N9E N 0.1235(11) 0.6902(9) 0.9340(4)
N9A N -0.1235(11) 0.3098(9) 0.0660(4)
N10D N 0.3392(10) 0.5909(7) 0.4842(4)
N11D N 0.4299(15) 0.5764(8) 0.4478(4)
C1D C 0.1971(11) 0.3090(9) 0.2122(4)
H1D H 0.2506 0.2438 0.2106
C2D C 0.1698(10) 0.3563(9) 0.2639(4)
H2D H 0.2048 0.3230 0.2965
C3D C 0.0891(12) 0.4547(8) 0.2664(4)
C4D C 0.0434(14) 0.5003(8) 0.2150(4)
H3D H -0.0081 0.5662 0.2147
C5D C 0.0726(16) 0.4507(8) 0.1665(4)
H4D H 0.0399 0.4833 0.1335
C6D C 0.0505(14) 0.5039(8) 0.3196(4)
O1D O 0.4417(9) 0.2413(5) 0.1155(3)
H5D H 0.4915 0.1912 0.1323
H6D H 0.3361 0.2345 0.1211
loop_
_geom_bond_atom_site_label_1
_geom_bond_atom_site_label_2
_geom_bond_site_symmetry_1
_geom_bond_site_symmetry_2
Zn1 N1 1_555 1_555
Zn2 N2 1_555 1_555
N1 C1 1_555 1_555
N2 N3 1_555 1_555
N3 C6 1_555 1_555
N4 N2 1_555 1_555
N5 Zn2 1_555 1_555
N6 Zn2 1_555 1_555
N7 N4 1_555 1_555
N8 N5 1_555 1_555
N9 N8 1_555 1_555
N10 N6 1_555 1_555
N11 N10 1_555 1_555
C1 H1 1_555 1_555
C2 C1 1_555 1_555
H2 C2 1_555 1_555
C3 C2 1_555 1_555
C4 C3 1_555 1_555
H3 C4 1_555 1_555
C5 N1 1_555 1_555
H4 C5 1_555 1_555
C6 N7 1_555 1_555
O1 Zn1 1_555 1_555
H5 O1 1_555 1_555
H6 O1 1_555 1_555
Zn1D N1D 1_555 1_555
Zn1C N4 1_555 1_555
Zn1G N5 1_555 1_555
Zn1A N6 1_555 1_555
Zn1E N9 1_555 1_555
Zn1E_2 N6D 1_555 1_555
Zn1A_2 N9D 1_555 1_555
N1D C1D 1_555 1_555
N2D Zn2 1_555 1_555
N3D N2D 1_555 1_555
N4D Zn1G 1_555 1_555
N4C Zn1 1_555 1_555
N4G Zn1D 1_555 1_555
N5D Zn2 1_555 1_555
N5G Zn1 1_555 1_555
N5C Zn1D 1_555 1_555
N6D Zn2 1_555 1_555
N6A Zn1 1_555 1_555
N6E Zn1D 1_555 1_555
N7D N4D 1_555 1_555
N8D N5D 1_555 1_555
N9D N8D 1_555 1_555
N9E Zn1 1_555 1_555
N9A Zn1D 1_555 1_555
N10D N6D 1_555 1_555
N11D N10D 1_555 1_555
C1D H1D 1_555 1_555
C2D C1D 1_555 1_555
H2D C2D 1_555 1_555
C3D C2D 1_555 1_555
C4D C3D 1_555 1_555
H3D C4D 1_555 1_555
C5D N1D 1_555 1_555
H4D C5D 1_555 1_555
C6D N3D 1_555 1_555
O1D Zn1D 1_555 1_555
H5D O1D 1_555 1_555
H6D O1D 1_555 1_555
C3 C6 1_555 1_555
C4 C5 1_555 1_555
Zn1C N5D 1_555 1_555
N2D N4D 1_555 1_555
N7D C6D 1_555 1_555
C3D C6D 1_555 1_555
C4D C5D 1_555 1_555

#END
