
#######################################################################
#
#                 Cambridge Crystallographic Data Centre
#                                CCDC 
#
#######################################################################
#
# If this CIF has been generated from an entry in the Cambridge 
# Structural Database, then it will include bibliographic, chemical, 
# crystal, experimental, refinement or atomic coordinate data resulting 
# from the CCDC's data processing and validation procedures.
#
#######################################################################

data_NASLOJ
_symmetry_cell_setting           triclinic
_symmetry_space_group_name_H-M   'P -1'
_symmetry_Int_Tables_number      2
_space_group_name_Hall           '-P 1'
loop_
_symmetry_equiv_pos_site_id
_symmetry_equiv_pos_as_xyz
1 x,y,z
2 -x,-y,-z
_cell_length_a                   7.7495(4)
_cell_length_b                   9.8432(6)
_cell_length_c                   10.9787(8)
_cell_angle_alpha                97.6(2)
_cell_angle_beta                 101.2(2)
_cell_angle_gamma                90.076(5)
_cell_volume                     813.974
loop_
_atom_site_label
_atom_site_type_symbol
_atom_site_fract_x
_atom_site_fract_y
_atom_site_fract_z
Cu1 Cu 0.21277(6) 0.22176(6) -0.00716(5)
N1 N 0.3996(4) 0.3253(4) 0.1153(3)
N2 N 0.7640(4) 0.6565(4) 0.1333(3)
N3 N 0.6953(9) 0.8427(6) 0.4008(5)
N4 N 0.9290(6) 0.6135(6) 0.6894(4)
N5 N 0.7084(7) 0.3240(6) 0.6593(4)
N6 N 0.7148(7) 0.1276(5) 0.2806(5)
C1 C 0.5082(5) 0.3977(4) 0.1781(4)
C2 C 0.7080(5) 0.5818(5) 0.1884(4)
C3 C 0.7238(8) 0.7357(6) 0.4297(5)
C4 C 0.8505(6) 0.6051(6) 0.5887(5)
C5 C 0.7059(6) 0.3405(6) 0.5565(5)
C6 C 0.7065(6) 0.2291(6) 0.3449(5)
C7 C 0.6967(5) 0.4810(5) 0.3837(4)
C8 C 0.6391(5) 0.4866(4) 0.2509(4)
C9 C 0.7558(5) 0.6026(5) 0.4643(4)
C10 C 0.6923(6) 0.3552(5) 0.4261(4)
N7 N 0.1663(4) 0.0922(4) 0.1167(3)
N8 N -0.0244(4) -0.0949(4) 0.1238(3)
C11 C 0.0385(4) -0.0006(4) 0.0656(4)
C12 C 0.2384(5) 0.0896(5) 0.2391(4)
C13 C 0.1788(6) -0.0037(5) 0.3056(4)
C14 C 0.0453(5) -0.0949(5) 0.2454(4)
O1 O -0.0126(4) 0.3663(4) 0.0475(3)
O2 O 0.4219(4) 0.0811(3) -0.0845(3)
H1 H 0.225(5) 0.000(4) 0.387(4)
H2 H 0.333(4) 0.152(4) 0.273(3)
H3 H -0.001(5) -0.153(5) 0.295(4)
H4 H -0.0028 0.4017 0.1178
H5 H 0.0008 0.4414 0.0186
H6 H 0.3695 0.0249 -0.1718
H7 H 0.4766 0.0188 -0.0568
Cu1A Cu 0.78723(6) 0.77824(6) 0.00716(5)
Cu1A_2 Cu -0.21277(6) -0.22176(6) 0.00716(5)
N1A N 0.6004(4) 0.6747(4) -0.1153(3)
N1A_2 N -0.3996(4) -0.3253(4) -0.1153(3)
N2A N 0.2360(4) 0.3435(4) -0.1333(3)
N2_2 N -0.2360(4) -0.3435(4) 0.1333(3)
N3A N 0.3047(9) 0.1573(6) -0.4008(5)
N4A N 0.0710(6) 0.3865(6) -0.6894(4)
N5A N 0.2916(7) 0.6760(6) -0.6593(4)
N6A N 0.2852(7) 0.8724(5) -0.2806(5)
C1A C 0.4918(5) 0.6023(4) -0.1781(4)
C2A C 0.2920(5) 0.4182(5) -0.1884(4)
C3A C 0.2762(8) 0.2643(6) -0.4297(5)
C4A C 0.1495(6) 0.3949(6) -0.5887(5)
C5A C 0.2941(6) 0.6595(6) -0.5565(5)
C6A C 0.2935(6) 0.7709(6) -0.3449(5)
C7A C 0.3033(5) 0.5190(5) -0.3837(4)
C8A C 0.3609(5) 0.5134(4) -0.2509(4)
C9A C 0.2442(5) 0.3974(5) -0.4643(4)
C10A C 0.3077(6) 0.6448(5) -0.4261(4)
N7A N -0.1663(4) -0.0922(4) -0.1167(3)
N8A N 0.0244(4) 0.0949(4) -0.1238(3)
C11A C -0.0385(4) 0.0006(4) -0.0656(4)
C12A C -0.2384(5) -0.0896(5) -0.2391(4)
C13A C -0.1788(6) 0.0037(5) -0.3056(4)
C14A C -0.0453(5) 0.0949(5) -0.2454(4)
O1A O 0.0126(4) -0.3663(4) -0.0475(3)
O2A O -0.4219(4) -0.0811(3) 0.0845(3)
H1A H -0.225(5) 0.000(4) -0.387(4)
H2A H -0.333(4) -0.152(4) -0.273(3)
H3A H 0.001(5) 0.153(5) -0.295(4)
H4A H 0.0028 -0.4017 -0.1178
H5A H -0.0008 -0.4414 -0.0186
H6A H -0.3695 -0.0249 0.1718
H7A H -0.4766 -0.0188 0.0568
O3 O -0.3301(4) 0.2735(5) -0.0999(3)
H8 H -0.3169 0.2791 -0.1905
H9 H -0.2244 0.3071 -0.0573
loop_
_geom_bond_atom_site_label_1
_geom_bond_atom_site_label_2
_geom_bond_site_symmetry_1
_geom_bond_site_symmetry_2
Cu1 N1 1_555 1_555
N1 C1 1_555 1_555
N2 C2 1_555 1_555
N3 C3 1_555 1_555
N4 C4 1_555 1_555
N5 C5 1_555 1_555
N6 C6 1_555 1_555
C1 C8 1_555 1_555
C2 C8 1_555 1_555
C3 C9 1_555 1_555
C4 C9 1_555 1_555
C5 C10 1_555 1_555
C6 C10 1_555 1_555
C7 C8 1_555 1_555
C9 C7 1_555 1_555
C10 C7 1_555 1_555
N7 Cu1 1_555 1_555
N8 C11 1_555 1_555
C11 N7 1_555 1_555
C12 N7 1_555 1_555
C13 C12 1_555 1_555
C14 N8 1_555 1_555
O1 Cu1 1_555 1_555
O2 Cu1 1_555 1_555
O3 H8 1_555 1_555
H1 C13 1_555 1_555
H2 C12 1_555 1_555
H3 C14 1_555 1_555
H4 O1 1_555 1_555
H5 O1 1_555 1_555
H6 O2 1_555 1_555
H7 O2 1_555 1_555
H9 O3 1_555 1_555
Cu1A N2 1_555 1_555
Cu1A_2 N8 1_555 1_555
N1A Cu1A 1_555 1_555
N1A_2 Cu1A_2 1_555 1_555
N2A Cu1 1_555 1_555
N2_2 Cu1A_2 1_555 1_555
N3A C3A 1_555 1_555
N4A C4A 1_555 1_555
N5A C5A 1_555 1_555
N6A C6A 1_555 1_555
C1A N1A 1_555 1_555
C2A N2A 1_555 1_555
C3A C9A 1_555 1_555
C4A C9A 1_555 1_555
C5A C10A 1_555 1_555
C6A C10A 1_555 1_555
C7A C8A 1_555 1_555
C8A C1A 1_555 1_555
C9A C7A 1_555 1_555
C10A C7A 1_555 1_555
N7A Cu1A_2 1_555 1_555
N8A Cu1 1_555 1_555
C11A C11 1_555 1_555
C12A N7A 1_555 1_555
C13A C12A 1_555 1_555
C14A N8A 1_555 1_555
O1A Cu1A_2 1_555 1_555
O2A Cu1A_2 1_555 1_555
H1A C13A 1_555 1_555
H2A C12A 1_555 1_555
H3A C14A 1_555 1_555
H4A O1A 1_555 1_555
H5A O1A 1_555 1_555
H6A O2A 1_555 1_555
H7A O2A 1_555 1_555
C13 C14 1_555 1_555
C2A C8A 1_555 1_555
N7A C11A 1_555 1_555
N8A C11A 1_555 1_555
C13A C14A 1_555 1_555

#END
