
#######################################################################
#
#                 Cambridge Crystallographic Data Centre
#                                CCDC 
#
#######################################################################
#
# If this CIF has been generated from an entry in the Cambridge 
# Structural Database, then it will include bibliographic, chemical, 
# crystal, experimental, refinement or atomic coordinate data resulting 
# from the CCDC's data processing and validation procedures.
#
#######################################################################

data_NASLUP
_symmetry_cell_setting           monoclinic
_symmetry_space_group_name_H-M   'P 21/n'
_symmetry_Int_Tables_number      14
_space_group_name_Hall           '-P 2yn'
loop_
_symmetry_equiv_pos_site_id
_symmetry_equiv_pos_as_xyz
1 x,y,z
2 1/2-x,1/2+y,1/2-z
3 -x,-y,-z
4 1/2+x,1/2-y,1/2+z
_cell_length_a                   7.3655(9)
_cell_length_b                   13.955(2)
_cell_length_c                   14.337(2)
_cell_angle_alpha                90
_cell_angle_beta                 94.72(1)
_cell_angle_gamma                90
_cell_volume                     1468.64
loop_
_atom_site_label
_atom_site_type_symbol
_atom_site_fract_x
_atom_site_fract_y
_atom_site_fract_z
Cu1 Cu 0.2414(2) 0.02949(9) 0.24411(9)
N1 N 0.025(1) 0.0983(6) 0.2868(6)
C1 C -0.085(1) 0.1371(7) 0.3234(7)
N2 N -0.546(1) 0.1391(6) 0.3129(7)
C2 C -0.404(1) 0.1625(7) 0.3373(7)
N3 N -0.549(1) 0.3827(7) 0.3383(7)
C3 C -0.439(1) 0.3592(8) 0.3927(7)
N4 N -0.293(1) 0.4039(6) 0.6211(6)
C4 C -0.295(1) 0.3718(8) 0.5477(7)
N5 N 0.146(1) 0.3949(7) 0.5726(7)
C5 C 0.079(1) 0.3305(9) 0.5352(8)
N6 N 0.160(1) 0.0883(7) 0.5190(6)
C6 C 0.086(1) 0.1622(8) 0.5062(7)
C7 C -0.180(1) 0.2549(7) 0.4388(7)
C8 C -0.222(1) 0.1866(7) 0.3673(7)
C9 C -0.301(1) 0.3276(7) 0.4593(6)
C10 C -0.010(2) 0.248(1) 0.4953(9)
N7 N 0.233(1) -0.0536(6) 0.3587(5)
N8 N 0.444(1) -0.0444(6) 0.1942(5)
C11 C 0.397(1) -0.1027(9) 0.3968(7)
C12 C 0.491(1) -0.1567(7) 0.3261(7)
C13 C 0.579(1) -0.0953(8) 0.2579(7)
H1 H 0.1441 -0.1015 0.3438
H2 H 0.1950 -0.0138 0.4070
H3 H 0.5108 -0.0003 0.1597
H4 H 0.3892 -0.0913 0.1529
H5 H 0.3636 -0.1465 0.4432
H6 H 0.4786 -0.0564 0.4247
H7 H 0.4049 -0.1968 0.2923
H8 H 0.5831 -0.1952 0.3580
H9 H 0.6538 -0.0494 0.2914
H10 H 0.6519 -0.1345 0.2218
N2_2 N 0.454(1) 0.1391(6) 0.3129(7)
N3A N 0.049(1) -0.1173(7) 0.1617(7)
N4C N 0.207(1) 0.0961(6) 0.1211(6)
Cu1_2 Cu -0.7586(2) 0.02949(9) 0.24411(9)
Cu1A Cu -0.7414(2) 0.52949(9) 0.25589(9)
Cu1C Cu -0.2586(2) 0.47051(9) 0.74411(9)
loop_
_geom_bond_atom_site_label_1
_geom_bond_atom_site_label_2
_geom_bond_site_symmetry_1
_geom_bond_site_symmetry_2
Cu1 N1 1_555 1_555
N1 C1 1_555 1_555
C1 C8 1_555 1_555
N2 C2 1_555 1_555
C2 C8 1_555 1_555
N3 C3 1_555 1_555
C3 C9 1_555 1_555
N4 C4 1_555 1_555
C4 C9 1_555 1_555
N5 C5 1_555 1_555
C5 C10 1_555 1_555
N6 C6 1_555 1_555
C6 C10 1_555 1_555
C7 C8 1_555 1_555
C9 C7 1_555 1_555
C10 C7 1_555 1_555
N7 Cu1 1_555 1_555
N8 Cu1 1_555 1_555
C11 N7 1_555 1_555
C12 C11 1_555 1_555
C13 N8 1_555 1_555
H1 N7 1_555 1_555
H2 N7 1_555 1_555
H3 N8 1_555 1_555
H4 N8 1_555 1_555
H5 C11 1_555 1_555
H6 C11 1_555 1_555
H7 C12 1_555 1_555
H8 C12 1_555 1_555
H9 C13 1_555 1_555
H10 C13 1_555 1_555
N2_2 Cu1 1_555 1_555
N3A Cu1 1_555 1_555
N4C Cu1 1_555 1_555
Cu1_2 N2 1_555 1_555
Cu1A N3 1_555 1_555
Cu1C N4 1_555 1_555
C12 C13 1_555 1_555

#END
