
#######################################################################
#
#                 Cambridge Crystallographic Data Centre
#                                CCDC 
#
#######################################################################
#
# If this CIF has been generated from an entry in the Cambridge 
# Structural Database, then it will include bibliographic, chemical, 
# crystal, experimental, refinement or atomic coordinate data resulting 
# from the CCDC's data processing and validation procedures.
#
#######################################################################

data_NASMAW
_symmetry_cell_setting           triclinic
_symmetry_space_group_name_H-M   'P -1'
_symmetry_Int_Tables_number      2
_space_group_name_Hall           '-P 1'
loop_
_symmetry_equiv_pos_site_id
_symmetry_equiv_pos_as_xyz
1 x,y,z
2 -x,-y,-z
_cell_length_a                   9.891(2)
_cell_length_b                   9.955(2)
_cell_length_c                   11.608(2)
_cell_angle_alpha                73.11(2)
_cell_angle_beta                 66.83(2)
_cell_angle_gamma                77.32(2)
_cell_volume                     998.248
loop_
_atom_site_label
_atom_site_type_symbol
_atom_site_fract_x
_atom_site_fract_y
_atom_site_fract_z
Cu1 Cu 0.5000 0.0000 1.0000
Cu2 Cu 0.0000 0.5000 1.5000
N1 N 0.4237(5) 0.0671(5) 1.2150(4)
N2 N 0.0600(5) 0.2310(5) 1.5173(4)
N3 N 0.2384(5) 0.1840(5) 1.7260(4)
C1 C 0.2677(5) -0.1727(6) 1.7819(4)
N4 N 0.5580(5) -0.3705(5) 1.6319(4)
N5 N 0.3805(5) -0.2821(5) 1.3305(4)
C2 C 0.3568(5) 0.0531(5) 1.3225(5)
C3 C 0.1583(5) 0.1452(5) 1.4907(4)
C4 C 0.2559(5) 0.0772(5) 1.7024(4)
N6 N 0.2516(5) -0.2614(5) 1.8722(4)
C5 C 0.4851(5) -0.2949(5) 1.5805(4)
C6 C 0.3898(5) -0.2443(5) 1.4108(5)
C7 C 0.3187(5) -0.0728(5) 1.5478(4)
C8 C 0.2786(5) 0.0382(5) 1.4560(4)
C9 C 0.2799(5) -0.0567(5) 1.6754(4)
C10 C 0.3959(5) -0.2019(5) 1.5140(4)
N7 N 0.3393(4) -0.1305(4) 1.0690(4)
N8 N 0.3587(4) 0.1651(4) 0.9491(4)
C11 C 0.1837(6) -0.0807(6) 1.1368(5)
C12 C 0.1287(6) 0.0531(6) 1.0608(5)
C13 C 0.2042(6) 0.1795(6) 1.0347(5)
N9 N 0.1539(4) 0.4920(4) 1.5768(4)
N10 N -0.1548(4) 0.4621(5) 1.6761(4)
C14 C 0.1158(6) 0.5515(6) 1.6895(5)
C15 C -0.0111(6) 0.4868(6) 1.8014(5)
C16 C -0.1567(6) 0.5202(7) 1.7801(5)
H1 H 0.3675 -0.2102 1.1271
H2 H 0.3408 -0.1594 0.9973
H3 H 0.3582 0.1596 0.8689
H4 H 0.3981 0.2487 0.9381
H5 H 0.1758 -0.0647 1.2162
H6 H 0.1240 -0.1517 1.1531
H7 H 0.0263 0.0747 1.1066
H8 H 0.1412 0.0368 0.9803
H9 H 0.1527 0.2607 0.9960
H10 H 0.2011 0.1913 1.1141
H11 H 0.2323 0.5398 1.5101
H12 H 0.1887 0.3949 1.6006
H13 H 0.0889 0.6505 1.6666
H14 H 0.1999 0.5339 1.7144
H15 H -0.0233 0.5205 1.8740
H16 H 0.0136 0.3870 1.8188
H17 H -0.2312 0.4816 1.8576
H18 H -0.1796 0.6200 1.7587
H19 H -0.1477 0.3623 1.7066
H20 H -0.2475 0.4963 1.6653
Cu2_2 Cu 1.0000 -0.5000 0.5000
N1A N 0.5763(5) -0.0671(5) 0.7850(4)
N2A N 0.9400(5) -0.2310(5) 0.4827(4)
N2A_2 N -0.0600(5) 0.7690(5) 1.4827(4)
N3A N 0.7616(5) -0.1840(5) 0.2740(4)
C1A C 0.7323(5) 0.1727(6) 0.2181(4)
N4A N 0.4420(5) 0.3705(5) 0.3681(4)
N5A N 0.6195(5) 0.2821(5) 0.6695(4)
C2A C 0.6432(5) -0.0531(5) 0.6775(5)
C3A C 0.8417(5) -0.1452(5) 0.5093(4)
C4A C 0.7441(5) -0.0772(5) 0.2976(4)
N6A N 0.7484(5) 0.2614(5) 0.1278(4)
C5A C 0.5149(5) 0.2949(5) 0.4195(4)
C6A C 0.6102(5) 0.2443(5) 0.5892(5)
C7A C 0.6813(5) 0.0728(5) 0.4522(4)
C8A C 0.7214(5) -0.0382(5) 0.5440(4)
C9A C 0.7201(5) 0.0567(5) 0.3246(4)
C10A C 0.6041(5) 0.2019(5) 0.4860(4)
N7A N 0.6607(4) 0.1305(4) 0.9310(4)
N8A N 0.6413(4) -0.1651(4) 1.0509(4)
C11A C 0.8163(6) 0.0807(6) 0.8632(5)
C12A C 0.8713(6) -0.0531(6) 0.9392(5)
C13A C 0.7958(6) -0.1795(6) 0.9653(5)
N9A N -0.1539(4) 0.5080(4) 1.4232(4)
N10A N 0.1548(4) 0.5379(5) 1.3239(4)
C14A C -0.1158(6) 0.4485(6) 1.3105(5)
C15A C 0.0111(6) 0.5132(6) 1.1986(5)
C16A C 0.1567(6) 0.4798(7) 1.2199(5)
H1A H 0.6325 0.2102 0.8729
H2A H 0.6592 0.1594 1.0027
H3A H 0.6418 -0.1596 1.1311
H4A H 0.6019 -0.2487 1.0619
H5A H 0.8242 0.0647 0.7838
H6A H 0.8760 0.1517 0.8469
H7A H 0.9737 -0.0747 0.8934
H8A H 0.8588 -0.0368 1.0197
H9A H 0.8473 -0.2607 1.0040
H10A H 0.7989 -0.1913 0.8859
H11A H -0.2323 0.4602 1.4899
H12A H -0.1887 0.6051 1.3994
H13A H -0.0889 0.3495 1.3334
H14A H -0.1999 0.4661 1.2856
H15A H 0.0233 0.4795 1.1260
H16A H -0.0136 0.6130 1.1812
H17A H 0.2312 0.5184 1.1424
H18A H 0.1796 0.3800 1.2413
H19A H 0.1477 0.6377 1.2934
H20A H 0.2475 0.5037 1.3347
O1 O 0.4599(5) 0.4514(4) 0.9041(4)
loop_
_geom_bond_atom_site_label_1
_geom_bond_atom_site_label_2
_geom_bond_site_symmetry_1
_geom_bond_site_symmetry_2
Cu1 N1 1_555 1_555
Cu2 N2 1_555 1_555
N1 C2 1_555 1_555
N2 C3 1_555 1_555
N3 C4 1_555 1_555
C1 N6 1_555 1_555
N4 C5 1_555 1_555
N5 C6 1_555 1_555
C2 C8 1_555 1_555
C3 C8 1_555 1_555
C4 C9 1_555 1_555
C5 C10 1_555 1_555
C6 C10 1_555 1_555
C7 C8 1_555 1_555
C9 C1 1_555 1_555
C10 C7 1_555 1_555
N7 Cu1 1_555 1_555
N8 Cu1 1_555 1_555
C11 N7 1_555 1_555
C12 C11 1_555 1_555
C13 N8 1_555 1_555
N9 Cu2 1_555 1_555
N10 Cu2 1_555 1_555
C14 N9 1_555 1_555
C15 C14 1_555 1_555
C16 N10 1_555 1_555
H1 N7 1_555 1_555
H2 N7 1_555 1_555
H3 N8 1_555 1_555
H4 N8 1_555 1_555
H5 C11 1_555 1_555
H6 C11 1_555 1_555
H7 C12 1_555 1_555
H8 C12 1_555 1_555
H9 C13 1_555 1_555
H10 C13 1_555 1_555
H11 N9 1_555 1_555
H12 N9 1_555 1_555
H13 C14 1_555 1_555
H14 C14 1_555 1_555
H15 C15 1_555 1_555
H16 C15 1_555 1_555
H17 C16 1_555 1_555
H18 C16 1_555 1_555
H19 N10 1_555 1_555
H20 N10 1_555 1_555
Cu2_2 N2A 1_555 1_555
N1A Cu1 1_555 1_555
N2A C3A 1_555 1_555
N2A_2 Cu2 1_555 1_555
N3A C4A 1_555 1_555
C1A N6A 1_555 1_555
N4A C5A 1_555 1_555
N5A C6A 1_555 1_555
C2A N1A 1_555 1_555
C3A C8A 1_555 1_555
C4A C9A 1_555 1_555
C5A C10A 1_555 1_555
C6A C10A 1_555 1_555
C7A C8A 1_555 1_555
C8A C2A 1_555 1_555
C9A C1A 1_555 1_555
C10A C7A 1_555 1_555
N7A Cu1 1_555 1_555
N8A Cu1 1_555 1_555
C11A N7A 1_555 1_555
C12A C11A 1_555 1_555
C13A N8A 1_555 1_555
N9A Cu2 1_555 1_555
N10A Cu2 1_555 1_555
C14A N9A 1_555 1_555
C15A C14A 1_555 1_555
C16A N10A 1_555 1_555
H1A N7A 1_555 1_555
H2A N7A 1_555 1_555
H3A N8A 1_555 1_555
H4A N8A 1_555 1_555
H5A C11A 1_555 1_555
H6A C11A 1_555 1_555
H7A C12A 1_555 1_555
H8A C12A 1_555 1_555
H9A C13A 1_555 1_555
H10A C13A 1_555 1_555
H11A N9A 1_555 1_555
H12A N9A 1_555 1_555
H13A C14A 1_555 1_555
H14A C14A 1_555 1_555
H15A C15A 1_555 1_555
H16A C15A 1_555 1_555
H17A C16A 1_555 1_555
H18A C16A 1_555 1_555
H19A N10A 1_555 1_555
H20A N10A 1_555 1_555
C7 C9 1_555 1_555
C12 C13 1_555 1_555
C15 C16 1_555 1_555
C7A C9A 1_555 1_555
C12A C13A 1_555 1_555
C15A C16A 1_555 1_555

#END
