
#######################################################################
#
#                 Cambridge Crystallographic Data Centre
#                                CCDC 
#
#######################################################################
#
# If this CIF has been generated from an entry in the Cambridge 
# Structural Database, then it will include bibliographic, chemical, 
# crystal, experimental, refinement or atomic coordinate data resulting 
# from the CCDC's data processing and validation procedures.
#
#######################################################################

data_NASMIF
_symmetry_cell_setting           triclinic
_symmetry_space_group_name_H-M   'P -1'
_symmetry_Int_Tables_number      2
_space_group_name_Hall           '-P 1'
loop_
_symmetry_equiv_pos_site_id
_symmetry_equiv_pos_as_xyz
1 x,y,z
2 -x,-y,-z
_cell_length_a                   10.1480(11)
_cell_length_b                   10.8845(12)
_cell_length_c                   13.8261(15)
_cell_angle_alpha                78.760(2)
_cell_angle_beta                 79.305(3)
_cell_angle_gamma                86.222(2)
_cell_volume                     1471.16
loop_
_atom_site_label
_atom_site_type_symbol
_atom_site_fract_x
_atom_site_fract_y
_atom_site_fract_z
Mn1 Mn 0.0000 -0.5000 0.0000
Gd1 Gd 0.320449(19) -0.076833(17) 0.796257(15)
C1 C 0.3139(4) -0.8134(4) -0.2472(3)
C2 C 0.3166(4) -0.6745(4) -0.2732(3)
C3 C 0.3354(4) -0.6192(4) -0.3738(3)
H1 H 0.3472 -0.6689 -0.4225
C4 C 0.3369(4) -0.4900(4) -0.4018(3)
C5 C 0.3228(4) -0.4172(4) -0.3287(3)
H2 H 0.3282 -0.3306 -0.3473
C6 C 0.3007(4) -0.4722(4) -0.2276(3)
C7 C 0.2982(4) -0.6020(4) -0.2002(3)
H3 H 0.2841 -0.6397 -0.1328
C8 C 0.2710(4) -0.3945(4) -0.1482(3)
C9 C 0.3332(5) -0.4811(4) -0.5799(4)
C10 C 0.3470(4) -0.3989(4) -0.6820(3)
C11 C 0.3546(5) -0.4573(5) -0.7631(4)
H4 H 0.3556 -0.5443 -0.7539
C12 C 0.3606(6) -0.3865(5) -0.8574(4)
H5 H 0.3657 -0.4275 -0.9111
C13 C 0.3530(5) -0.2056(5) -0.7976(4)
H6 H 0.3519 -0.1185 -0.8090
C14 C 0.3479(5) -0.2691(4) -0.7013(4)
H7 H 0.3451 -0.2256 -0.6493
C15 C -0.4055(4) -0.0977(4) 0.7152(3)
C16 C -0.2623(4) -0.1134(4) 0.6679(3)
C17 C -0.1579(4) -0.1028(4) 0.7160(3)
H8 H -0.1749 -0.0856 0.7806
C18 C -0.0262(4) -0.1180(4) 0.6675(3)
C19 C -0.0010(4) -0.1478(4) 0.5731(3)
H9 H 0.0869 -0.1588 0.5414
C20 C -0.1060(4) -0.1614(4) 0.5257(3)
C21 C -0.2360(4) -0.1422(4) 0.5716(3)
H10 H -0.3066 -0.1485 0.5386
C22 C 0.0915(4) -0.1063(4) 0.7161(3)
C23 C 0.0041(5) -0.2926(5) 0.4107(3)
C24 C 0.0081(4) -0.3349(4) 0.3134(3)
C25 C 0.0115(5) -0.4618(5) 0.3140(4)
H11 H 0.0101 -0.5192 0.3736
C26 C 0.0169(5) -0.5020(5) 0.2258(4)
H12 H 0.0172 -0.5878 0.2274
C27 C 0.0234(5) -0.3028(5) 0.1373(4)
H13 H 0.0309 -0.2476 0.0761
C28 C 0.0146(5) -0.2535(5) 0.2230(3)
H14 H 0.0130 -0.1673 0.2198
N1 N 0.3535(4) -0.4300(3) -0.5031(3)
H15 H 0.3790 -0.3538 -0.5170
N2 N 0.3594(5) -0.2611(4) -0.8757(3)
N3 N -0.0823(4) -0.1978(3) 0.4304(3)
H16 H -0.1242 -0.1584 0.3843
N4 N 0.0219(4) -0.4250(4) 0.1372(3)
O1 O 0.3271(4) -0.8695(3) -0.1611(2)
O2 O 0.2959(4) -0.8749(3) -0.3107(3)
O3 O 0.1995(3) -0.4374(3) -0.0669(2)
O4 O 0.3216(4) -0.2876(3) -0.1670(3)
O5 O 0.3056(5) -0.5891(3) -0.5710(3)
O6 O -0.4386(3) -0.0974(3) 0.8076(2)
O7 O -0.4960(3) -0.0858(4) 0.6627(2)
O8 O 0.0747(3) -0.0932(3) 0.8071(2)
O9 O 0.2079(3) -0.1112(3) 0.6663(2)
O10 O 0.0755(4) -0.3475(4) 0.4694(3)
O11 O 0.0724(4) -0.6903(3) 0.0692(2)
H17 H 0.1384 -0.7191 0.0317
H18 H 0.0102 -0.7430 0.0872
O12 O 0.2809(4) -0.0981(3) 0.9717(2)
H19 H 0.3117 -0.0367 0.9893
H20 H 0.3164 -0.1659 0.9988
Gd1A Gd -0.320449(19) 0.076833(17) 0.203743(15)
Gd1_2 Gd 0.320449(19) -0.076833(17) -0.203743(15)
Gd1_3 Gd -0.679551(19) -0.076833(17) 0.796257(15)
Gd1_4 Gd 0.320449(19) -1.076833(17) -0.203743(15)
Gd1A_2 Gd 0.679551(19) -0.923167(17) -0.796257(15)
Gd1A_3 Gd -0.320449(19) -0.923167(17) -0.796257(15)
Gd1A_4 Gd -0.320449(19) -0.923167(17) 0.203743(15)
C1A C -0.3139(4) -0.1866(4) 0.2472(3)
C2A C -0.3166(4) -0.3255(4) 0.2732(3)
C3A C -0.3354(4) -0.3808(4) 0.3738(3)
H1A H -0.3472 -0.3311 0.4225
C4A C -0.3369(4) -0.5100(4) 0.4018(3)
C5A C -0.3228(4) -0.5828(4) 0.3287(3)
H2A H -0.3282 -0.6694 0.3473
C6A C -0.3007(4) -0.5278(4) 0.2276(3)
C7A C -0.2982(4) -0.3980(4) 0.2002(3)
H3A H -0.2841 -0.3603 0.1328
C8A C -0.2710(4) -0.6055(4) 0.1482(3)
C9A C -0.3332(5) -0.5189(4) 0.5799(4)
C10A C -0.3470(4) -0.6011(4) 0.6820(3)
C11A C -0.3546(5) -0.5427(5) 0.7631(4)
H4A H -0.3556 -0.4557 0.7539
C12A C -0.3606(6) -0.6135(5) 0.8574(4)
H5A H -0.3657 -0.5725 0.9111
C13A C -0.3530(5) -0.7944(5) 0.7976(4)
H6A H -0.3519 -0.8815 0.8090
C14A C -0.3479(5) -0.7309(4) 0.7013(4)
H7A H -0.3451 -0.7744 0.6493
C15A C 0.4055(4) -0.9023(4) -0.7152(3)
C16A C 0.2623(4) -0.8866(4) -0.6679(3)
C17A C 0.1579(4) -0.8972(4) -0.7160(3)
H8A H 0.1749 -0.9144 -0.7806
C18A C 0.0262(4) -0.8820(4) -0.6675(3)
C19A C 0.0010(4) -0.8522(4) -0.5731(3)
H9A H -0.0869 -0.8412 -0.5414
C20A C 0.1060(4) -0.8386(4) -0.5257(3)
C21A C 0.2360(4) -0.8578(4) -0.5716(3)
H10A H 0.3066 -0.8515 -0.5386
C22A C -0.0915(4) -0.8937(4) -0.7161(3)
C23A C -0.0041(5) -0.7074(5) -0.4107(3)
C24A C -0.0081(4) -0.6651(4) -0.3134(3)
C25A C -0.0115(5) -0.5382(5) -0.3140(4)
H11A H -0.0101 -0.4808 -0.3736
C26A C -0.0169(5) -0.4980(5) -0.2258(4)
H12A H -0.0172 -0.4122 -0.2274
C27A C -0.0234(5) -0.6972(5) -0.1373(4)
H13A H -0.0309 -0.7524 -0.0761
C28A C -0.0146(5) -0.7465(5) -0.2230(3)
H14A H -0.0130 -0.8327 -0.2198
N1A N -0.3535(4) -0.5700(3) 0.5031(3)
H15A H -0.3790 -0.6462 0.5170
N2A N -0.3594(5) -0.7389(4) 0.8757(3)
N3A N 0.0823(4) -0.8022(3) -0.4304(3)
H16A H 0.1242 -0.8416 -0.3843
N4A N -0.0219(4) -0.5750(4) -0.1372(3)
O1A O -0.3271(4) -0.1305(3) 0.1611(2)
O1_2 O 0.3271(4) 0.1305(3) 0.8389(2)
O1A_2 O -0.3271(4) -1.1305(3) -0.8389(2)
O2A O -0.2959(4) -0.1251(3) 0.3107(3)
O2_2 O 0.2959(4) 0.1251(3) 0.6893(3)
O2A_2 O -0.2959(4) -1.1251(3) -0.6893(3)
O3A O -0.1995(3) -0.5626(3) 0.0669(2)
O4A O -0.3216(4) -0.7124(3) 0.1670(3)
O4_2 O 0.3216(4) -0.2876(3) 0.8330(3)
O4A_2 O -0.3216(4) -0.7124(3) -0.8330(3)
O5A O -0.3056(5) -0.4109(3) 0.5710(3)
O6A O 0.4386(3) -0.9026(3) -0.8076(2)
O6_2 O 0.5614(3) -0.0974(3) 0.8076(2)
O6A_2 O -0.5614(3) -0.9026(3) -0.8076(2)
O7A O 0.4960(3) -0.9142(4) -0.6627(2)
O7_2 O 0.5040(3) -0.0858(4) 0.6627(2)
O7A_2 O -0.5040(3) -0.9142(4) -0.6627(2)
O8A O -0.0747(3) -0.9068(3) -0.8071(2)
O9A O -0.2079(3) -0.8888(3) -0.6663(2)
O10A O -0.0755(4) -0.6525(4) -0.4694(3)
O11A O -0.0724(4) -0.3097(3) -0.0692(2)
H17A H -0.1384 -0.2809 -0.0317
H18A H -0.0102 -0.2570 -0.0872
O12A O -0.2809(4) -0.9019(3) -0.9717(2)
H19A H -0.3117 -0.9633 -0.9893
H20A H -0.3164 -0.8341 -0.9988
O13 O -0.5824(5) 0.8413(4) 0.4839(3)
H21 H -0.6671 0.8453 0.5015
H22 H -0.5580 0.8551 0.5363
O14 O -0.2986(5) 0.8412(5) 0.9659(3)
H23 H -0.3265 0.8595 1.0234
H24 H -0.3559 0.8683 0.9285
loop_
_geom_bond_atom_site_label_1
_geom_bond_atom_site_label_2
_geom_bond_site_symmetry_1
_geom_bond_site_symmetry_2
Mn1 N4 1_555 1_555
Gd1 O8 1_555 1_555
C1 C2 1_555 1_555
C2 C3 1_555 1_555
C3 H1 1_555 1_555
C4 C3 1_555 1_555
C5 C4 1_555 1_555
H2 C5 1_555 1_555
C6 C5 1_555 1_555
C7 C2 1_555 1_555
H3 C7 1_555 1_555
C8 C6 1_555 1_555
C9 C10 1_555 1_555
C10 C11 1_555 1_555
C11 H4 1_555 1_555
C12 C11 1_555 1_555
H5 C12 1_555 1_555
C13 H6 1_555 1_555
C14 C10 1_555 1_555
H7 C14 1_555 1_555
C15 C16 1_555 1_555
C16 C17 1_555 1_555
C17 H8 1_555 1_555
C18 C17 1_555 1_555
C19 C18 1_555 1_555
H9 C19 1_555 1_555
C20 C19 1_555 1_555
C21 C16 1_555 1_555
H10 C21 1_555 1_555
C22 C18 1_555 1_555
C23 C24 1_555 1_555
C24 C25 1_555 1_555
C25 H11 1_555 1_555
C26 C25 1_555 1_555
H12 C26 1_555 1_555
C27 H13 1_555 1_555
C28 C24 1_555 1_555
H14 C28 1_555 1_555
N1 C4 1_555 1_555
H15 N1 1_555 1_555
N2 C12 1_555 1_555
N3 C20 1_555 1_555
H16 N3 1_555 1_555
N4 C26 1_555 1_555
O1 C1 1_555 1_555
O2 C1 1_555 1_555
O3 Mn1 1_555 1_555
O4 C8 1_555 1_555
O5 C9 1_555 1_555
O6 C15 1_555 1_555
O7 C15 1_555 1_555
O8 C22 1_555 1_555
O9 Gd1 1_555 1_555
O10 C23 1_555 1_555
O11 Mn1 1_555 1_555
H17 O11 1_555 1_555
H18 O11 1_555 1_555
O12 Gd1 1_555 1_555
H19 O12 1_555 1_555
H20 O12 1_555 1_555
O13 H21 1_555 1_555
H22 O13 1_555 1_555
O14 H23 1_555 1_555
H24 O14 1_555 1_555
Gd1A O1A 1_555 1_555
Gd1_2 O4 1_555 1_555
Gd1_3 O6 1_555 1_555
Gd1_4 O1 1_555 1_555
Gd1A_2 O6A 1_555 1_555
Gd1A_3 O1A_2 1_555 1_555
Gd1A_4 O4A 1_555 1_555
C1A C2A 1_555 1_555
C2A C3A 1_555 1_555
C3A H1A 1_555 1_555
C4A C3A 1_555 1_555
C5A C4A 1_555 1_555
H2A C5A 1_555 1_555
C6A C5A 1_555 1_555
C7A C2A 1_555 1_555
H3A C7A 1_555 1_555
C8A C6A 1_555 1_555
C9A C10A 1_555 1_555
C10A C11A 1_555 1_555
C11A H4A 1_555 1_555
C12A C11A 1_555 1_555
H5A C12A 1_555 1_555
C13A H6A 1_555 1_555
C14A C10A 1_555 1_555
H7A C14A 1_555 1_555
C15A C16A 1_555 1_555
C16A C17A 1_555 1_555
C17A H8A 1_555 1_555
C18A C17A 1_555 1_555
C19A C18A 1_555 1_555
H9A C19A 1_555 1_555
C20A C19A 1_555 1_555
C21A C16A 1_555 1_555
H10A C21A 1_555 1_555
C22A C18A 1_555 1_555
C23A C24A 1_555 1_555
C24A C25A 1_555 1_555
C25A H11A 1_555 1_555
C26A C25A 1_555 1_555
H12A C26A 1_555 1_555
C27A H13A 1_555 1_555
C28A C24A 1_555 1_555
H14A C28A 1_555 1_555
N1A C4A 1_555 1_555
H15A N1A 1_555 1_555
N2A C12A 1_555 1_555
N3A C20A 1_555 1_555
H16A N3A 1_555 1_555
N4A Mn1 1_555 1_555
O1A C1A 1_555 1_555
O1_2 Gd1 1_555 1_555
O2A Gd1A 1_555 1_555
O2_2 Gd1 1_555 1_555
O2A_2 Gd1A_3 1_555 1_555
O3A Mn1 1_555 1_555
O4A C8A 1_555 1_555
O4_2 Gd1 1_555 1_555
O4A_2 Gd1A_3 1_555 1_555
O5A C9A 1_555 1_555
O6A C15A 1_555 1_555
O6_2 Gd1 1_555 1_555
O6A_2 Gd1A_3 1_555 1_555
O7A Gd1A_2 1_555 1_555
O7_2 Gd1 1_555 1_555
O7A_2 Gd1A_3 1_555 1_555
O8A Gd1A_3 1_555 1_555
O9A Gd1A_3 1_555 1_555
O10A C23A 1_555 1_555
O11A Mn1 1_555 1_555
H17A O11A 1_555 1_555
H18A O11A 1_555 1_555
O12A Gd1A_3 1_555 1_555
H19A O12A 1_555 1_555
H20A O12A 1_555 1_555
C6 C7 1_555 1_555
C8 O3 1_555 1_555
C9 N1 1_555 1_555
C13 C14 1_555 1_555
C13 N2 1_555 1_555
C20 C21 1_555 1_555
C22 O9 1_555 1_555
C23 N3 1_555 1_555
C27 C28 1_555 1_555
C27 N4 1_555 1_555
O2 Gd1_4 1_555 1_555
O7 Gd1_3 1_555 1_555
C1A O2A 1_555 1_555
C6A C7A 1_555 1_555
C8A O3A 1_555 1_555
C9A N1A 1_555 1_555
C13A C14A 1_555 1_555
C13A N2A 1_555 1_555
C15A O7A 1_555 1_555
C20A C21A 1_555 1_555
C22A O8A 1_555 1_555
C22A O9A 1_555 1_555
C23A N3A 1_555 1_555
C26A N4A 1_555 1_555
C27A C28A 1_555 1_555
C27A N4A 1_555 1_555

#END
