
#######################################################################
#
#                 Cambridge Crystallographic Data Centre
#                                CCDC 
#
#######################################################################
#
# If this CIF has been generated from an entry in the Cambridge 
# Structural Database, then it will include bibliographic, chemical, 
# crystal, experimental, refinement or atomic coordinate data resulting 
# from the CCDC's data processing and validation procedures.
#
#######################################################################

data_NASROO
_symmetry_cell_setting           orthorhombic
_symmetry_space_group_name_H-M   'I 2 2 2'
_symmetry_Int_Tables_number      23
_space_group_name_Hall           'I 2 2'
loop_
_symmetry_equiv_pos_site_id
_symmetry_equiv_pos_as_xyz
1 x,y,z
2 -x,-y,z
3 x,-y,-z
4 -x,y,-z
5 1/2+x,1/2+y,1/2+z
6 1/2-x,1/2-y,1/2+z
7 1/2+x,1/2-y,1/2-z
8 1/2-x,1/2+y,1/2-z
_cell_length_a                   5.711(1)
_cell_length_b                   7.804(1)
_cell_length_c                   24.101(7)
_cell_angle_alpha                90
_cell_angle_beta                 90
_cell_angle_gamma                90
_cell_volume                     1074.15
loop_
_atom_site_label
_atom_site_type_symbol
_atom_site_fract_x
_atom_site_fract_y
_atom_site_fract_z
Cl2 Cl 0.0000 0.0000 0.4085(3)
O1 O -0.2080(38) 0.0182(73) 0.4398(11)
O2 O -0.018(12) -0.1508(30) 0.3919(19)
O1A O 0.2080(38) -0.0182(73) 0.4398(11)
O2A O 0.018(12) 0.1508(30) 0.3919(19)
Pt1 Pt 0.0000 0.0000 0.0000
Cl1 Cl 0.4055(16) 0.0000 0.0000
N1 N 0.0284(62) 0.1742(15) 0.0634(5)
H1 H -0.0645 0.2734 0.0550
H2 H 0.1890 0.2075 0.0679
C1 C -0.0610(29) 0.0914(22) 0.1166(7)
C2 C -0.029(11) 0.1848(27) 0.1681(7)
C3 C 0.026(11) 0.0955(33) 0.2184(9)
H3 H -0.1333 0.0151 0.0904
H4 H -0.1734 0.2438 0.1750
H5 H 0.0936 0.2668 0.1619
H6 H 0.1809 0.0896 0.2336
H7 H -0.0861 0.0666 0.2467
Cl1A Cl -0.4055(16) 0.0000 0.0000
N1A N -0.0284(62) -0.1742(15) 0.0634(5)
N1B N 0.0284(62) -0.1742(15) -0.0634(5)
N1C N -0.0284(62) 0.1742(15) -0.0634(5)
Cl1A_2 Cl 0.5945(16) 0.0000 0.0000
C1A C 0.0610(29) -0.0914(22) 0.1166(7)
C3A C -0.026(11) -0.0955(33) 0.2184(9)
Cl3? Cl 0.5000 0.5000 0.1533(17)
loop_
_geom_bond_atom_site_label_1
_geom_bond_atom_site_label_2
_geom_bond_site_symmetry_1
_geom_bond_site_symmetry_2
Pt1 Cl1 1_555 1_555
Cl1 Cl1A_2 1_555 1_555
Cl2 O1 1_555 1_555
N1 Pt1 1_555 1_555
H1 N1 1_555 1_555
H2 N1 1_555 1_555
C1 N1 1_555 1_555
C2 C1 1_555 1_555
C3 C2 1_555 1_555
O2 Cl2 1_555 1_555
H3 C1 1_555 1_555
H4 C2 1_555 1_555
H5 C2 1_555 1_555
H6 C3 1_555 1_555
H7 C3 1_555 1_555
Cl1A Pt1 1_555 1_555
N1A Pt1 1_555 1_555
N1B Pt1 1_555 1_555
N1C Pt1 1_555 1_555
O1A Cl2 1_555 1_555
O2A Cl2 1_555 1_555
C1A C1 1_555 1_555
C3A C3 1_555 1_555
N1A C1A 1_555 1_555

#END
