
#######################################################################
#
#                 Cambridge Crystallographic Data Centre
#                                CCDC 
#
#######################################################################
#
# If this CIF has been generated from an entry in the Cambridge 
# Structural Database, then it will include bibliographic, chemical, 
# crystal, experimental, refinement or atomic coordinate data resulting 
# from the CCDC's data processing and validation procedures.
#
#######################################################################

data_NASSAB
_symmetry_cell_setting           orthorhombic
_symmetry_space_group_name_H-M   'I 2 2 2'
_symmetry_Int_Tables_number      23
_space_group_name_Hall           'I 2 2'
loop_
_symmetry_equiv_pos_site_id
_symmetry_equiv_pos_as_xyz
1 x,y,z
2 -x,-y,z
3 x,-y,-z
4 -x,y,-z
5 1/2+x,1/2+y,1/2+z
6 1/2-x,1/2-y,1/2+z
7 1/2+x,1/2-y,1/2-z
8 1/2-x,1/2+y,1/2-z
_cell_length_a                   5.379(2)
_cell_length_b                   7.028(2)
_cell_length_c                   23.884(4)
_cell_angle_alpha                90
_cell_angle_beta                 90
_cell_angle_gamma                90
_cell_volume                     902.901
loop_
_atom_site_label
_atom_site_type_symbol
_atom_site_fract_x
_atom_site_fract_y
_atom_site_fract_z
Br2 Br 0.5000 -0.5000 -0.0883(1)
Pt1 Pt 0.0000 0.0000 0.0000
Br1 Br 0.5357(10) 0.0000 0.0000
N1 N -0.0122(30) 0.1995(10) 0.0653(3)
H2 H -0.1353 0.2559 0.0414
C1 C -0.0297(29) 0.2120(14) 0.1695(3)
C2 C -0.0703(14) 0.0944(13) 0.1178(4)
C3 C -0.0768(22) 0.0955(17) 0.2213(4)
H3 H 0.1398 0.2549 0.1699
H4 H -0.1389 0.3200 0.1691
H7 H -0.2263 0.1056 0.2430
Br1_2 Br -0.4643(10) 0.0000 0.0000
Br1A Br -0.5357(10) 0.0000 0.0000
Br1A_2 Br 0.4643(10) 0.0000 0.0000
N1A N 0.0122(30) -0.1995(10) 0.0653(3)
N1B N -0.0122(30) -0.1995(10) -0.0653(3)
N1C N 0.0122(30) 0.1995(10) -0.0653(3)
Pt1_2 Pt 1.0000 0.0000 0.0000
C2A C 0.0703(14) -0.0944(13) 0.1178(4)
C3A C 0.0768(22) -0.0955(17) 0.2213(4)
H1? H 1.1384 0.1799 0.0445
H5? H 0.8853 -0.0020 0.0912
H6? H 1.0524 0.0405 0.2438
loop_
_geom_bond_atom_site_label_1
_geom_bond_atom_site_label_2
_geom_bond_site_symmetry_1
_geom_bond_site_symmetry_2
Pt1 Br1 1_555 1_555
Br1 Br1A_2 1_555 1_555
N1 Pt1 1_555 1_555
H2 N1 1_555 1_555
C1 C2 1_555 1_555
C2 N1 1_555 1_555
C3 C1 1_555 1_555
H3 C1 1_555 1_555
H4 C1 1_555 1_555
H7 C3 1_555 1_555
Br1_2 Pt1 1_555 1_555
Br1A Pt1 1_555 1_555
Br1A_2 Pt1 1_555 1_555
N1A Pt1 1_555 1_555
N1B Pt1 1_555 1_555
N1C Pt1 1_555 1_555
Pt1_2 Br1 1_555 1_555
C2A C2 1_555 1_555
C3A C3 1_555 1_555
Br1_2 Br1A 1_555 1_555
Br1A_2 Pt1_2 1_555 1_555
N1A C2A 1_555 1_555

#END
