
#######################################################################
#
#                 Cambridge Crystallographic Data Centre
#                                CCDC 
#
#######################################################################
#
# If this CIF has been generated from an entry in the Cambridge 
# Structural Database, then it will include bibliographic, chemical, 
# crystal, experimental, refinement or atomic coordinate data resulting 
# from the CCDC's data processing and validation procedures.
#
#######################################################################

data_NASWIO
_symmetry_cell_setting           hexagonal
_symmetry_space_group_name_H-M   'P 65 2 2'
_symmetry_Int_Tables_number      179
_space_group_name_Hall           "P 65 2' (0,0,1)"
loop_
_symmetry_equiv_pos_site_id
_symmetry_equiv_pos_as_xyz
1 x,y,z
2 -y,x-y,2/3+z
3 -x+y,-x,1/3+z
4 -x,-y,1/2+z
5 x-y,x,5/6+z
6 y,-x+y,1/6+z
7 y,x,2/3-z
8 x-y,-y,-z
9 -x,-x+y,1/3-z
10 -y,-x,1/6-z
11 -x+y,y,1/2-z
12 x,x-y,5/6-z
_cell_length_a                   12.756(3)
_cell_length_b                   12.756(3)
_cell_length_c                   61.89(3)
_cell_angle_alpha                90
_cell_angle_beta                 90
_cell_angle_gamma                120
_cell_volume                     8721.28
loop_
_atom_site_label
_atom_site_type_symbol
_atom_site_fract_x
_atom_site_fract_y
_atom_site_fract_z
Sm1 Sm 0.5317(2) 0.07565(18) 0.16141(2)
K1 K 0.3918(10) -0.2343(7) 0.12628(12)
O3 O 0.536(4) -0.161(3) 0.0912(6)
H4 H 0.4928 -0.1475 0.0800
H5 H 0.6112 -0.0878 0.0938
N1 N 0.738(2) 0.2375(19) 0.1446(3)
C1 C 0.765(3) 0.204(2) 0.1269(4)
C2 C 0.867(3) 0.286(2) 0.1141(5)
H6 H 0.8877 0.2586 0.1015
C3 C 0.932(3) 0.402(2) 0.1203(5)
H7 H 0.9994 0.4578 0.1119
C4 C 0.899(3) 0.440(3) 0.1395(4)
H8 H 0.9418 0.5219 0.1443
C5 C 0.803(3) 0.352(2) 0.1505(5)
H9 H 0.7803 0.3756 0.1635
C6 C 0.697(3) 0.073(2) 0.1210(4)
O4 O 0.6040(18) 0.0065(17) 0.1321(3)
O5 O 0.728(2) 0.0329(18) 0.1051(3)
N2 N 0.483(3) 0.160(2) 0.1257(3)
C7 C 0.496(3) 0.267(2) 0.1273(3)
C8 C 0.478(3) 0.329(3) 0.1097(4)
H10 H 0.4881 0.4072 0.1117
C9 C 0.448(3) 0.274(2) 0.0904(3)
H11 H 0.4357 0.3130 0.0784
C10 C 0.435(3) 0.157(3) 0.0882(3)
H12 H 0.4115 0.1134 0.0750
C11 C 0.459(3) 0.110(3) 0.1062(3)
H13 H 0.4572 0.0356 0.1046
C12 C 0.514(3) 0.319(2) 0.1496(3)
O6 O 0.525(2) 0.2597(18) 0.1649(2)
O7 O 0.470(2) -0.1059(18) 0.1814(3)
N3 N 0.332(2) 0.003(2) 0.1846(4)
C13 C 0.233(3) -0.085(3) 0.1767(4)
C14 C 0.122(2) -0.145(3) 0.1885(4)
H14 H 0.0513 -0.2114 0.1827
C15 C 0.125(3) -0.100(3) 0.2082(5)
H15 H 0.0539 -0.1358 0.2168
C16 C 0.233(3) 0.000(4) 0.2166(5)
H16 H 0.2381 0.0278 0.2310
C17 C 0.329(3) 0.054(3) 0.2028(4)
H17 H 0.3958 0.1307 0.2064
C18 C 0.244(3) -0.140(3) 0.1562(4)
O8 O 0.343(2) -0.076(2) 0.1460(3)
O9 O 0.158(2) -0.240(2) 0.1498(4)
N4 N 0.726(2) 0.062(2) 0.1766(3)
C19 C 0.766(3) 0.115(3) 0.1950(4)
C20 C 0.848(3) 0.098(3) 0.2080(4)
H18 H 0.8684 0.1288 0.2223
C21 C 0.896(3) 0.035(3) 0.1991(5)
H19 H 0.9615 0.0332 0.2059
C22 C 0.847(3) -0.028(3) 0.1793(5)
H20 H 0.8690 -0.0847 0.1739
C23 C 0.768(3) -0.004(3) 0.1687(5)
H21 H 0.7429 -0.0376 0.1547
C24 C 0.711(3) 0.185(3) 0.2038(4)
O10 O 0.621(2) 0.177(2) 0.1935(3)
O11 O 0.765(2) 0.261(3) 0.2190(3)
Sm1H Sm 0.4683(2) -0.45605(27) 0.17192(2)
Sm1H_2 Sm 0.4683(2) 0.54395(27) 0.17192(2)
K1H K 0.6082(10) 0.3739(12) 0.20705(12)
K1H_2 K 0.6082(10) -0.6261(12) 0.20705(12)
O3H O 0.464(4) 0.303(5) 0.2421(6)
H4H H 0.5072 0.3597 0.2533
H5H H 0.3888 0.3010 0.2395
N1H N 0.262(2) -0.5005(28) 0.1887(3)
C1H C 0.235(3) -0.561(4) 0.2064(4)
C2H C 0.133(3) -0.581(4) 0.2192(5)
H6H H 0.1123 -0.6291 0.2318
C3H C 0.068(3) -0.530(4) 0.2130(5)
H7H H 0.0006 -0.5416 0.2214
C4H C 0.101(3) -0.459(4) 0.1938(4)
H8H H 0.0582 -0.4199 0.1890
C5H C 0.197(3) -0.451(4) 0.1828(5)
H9H H 0.2197 -0.4047 0.1698
C6H C 0.303(3) -0.624(4) 0.2123(4)
O4H O 0.3960(18) -0.5975(25) 0.2012(3)
O4H_2 O 0.3960(18) 0.4025(25) 0.2012(3)
O5H O 0.272(2) -0.6951(27) 0.2282(3)
N2H N 0.517(3) -0.323(4) 0.2076(3)
C7H C 0.504(3) -0.229(4) 0.2060(3)
C8H C 0.522(3) -0.149(4) 0.2236(4)
H10H H 0.5119 -0.0809 0.2216
C9H C 0.552(3) -0.174(4) 0.2429(3)
H11H H 0.5643 -0.1227 0.2549
C10H C 0.565(3) -0.278(4) 0.2451(3)
H12H H 0.5885 -0.2981 0.2583
C11H C 0.541(3) -0.349(4) 0.2271(3)
H13H H 0.5428 -0.4216 0.2287
C12H C 0.486(3) -0.195(4) 0.1837(3)
O6H O 0.475(2) -0.2653(27) 0.1684(2)
O7H O 0.530(2) 0.4241(27) 0.1519(3)
O7H_2 O 0.530(2) -0.5759(27) 0.1519(3)
N3H N 0.668(2) -0.329(3) 0.1487(4)
C13H C 0.767(3) -0.318(4) 0.1566(4)
C14H C 0.878(2) -0.267(4) 0.1448(4)
H14H H 0.9487 -0.2627 0.1506
C15H C 0.875(3) -0.225(4) 0.1251(5)
H15H H 0.9461 -0.1897 0.1165
C16H C 0.767(3) -0.233(5) 0.1167(5)
H16H H 0.7619 -0.2103 0.1023
C17H C 0.671(3) -0.275(4) 0.1305(4)
H17H H 0.6042 -0.2651 0.1269
C18H C 0.756(3) -0.384(4) 0.1771(4)
O8H O 0.657(2) 0.581(3) 0.1873(3)
O8H_2 O 0.657(2) -0.419(3) 0.1873(3)
O9H O 0.842(2) -0.398(3) 0.1835(4)
N4H N 0.274(2) -0.664(3) 0.1567(3)
C19H C 0.234(3) -0.651(4) 0.1383(4)
C20H C 0.152(3) -0.750(4) 0.1253(4)
H18H H 0.1316 -0.7396 0.1110
C21H C 0.104(3) -0.861(4) 0.1342(5)
H19H H 0.0385 -0.9283 0.1274
C22H C 0.153(3) -0.875(4) 0.1540(5)
H20H H 0.1310 -0.9537 0.1594
C23H C 0.232(3) -0.772(4) 0.1646(5)
H21H H 0.2571 -0.7805 0.1786
C24H C 0.289(3) -0.526(4) 0.1295(4)
O10H O 0.379(2) -0.444(3) 0.1398(3)
O11H O 0.235(2) -0.504(4) 0.1143(3)
O2 O 0.259(4) -0.259(4) 0.0833
H3 H 0.1752 -0.2990 0.0875
H3I H 0.2990 -0.1752 0.0792
O12 O 0.9388(18) 0.0612(18) 0.0833
H22 H 0.8803 0.0556 0.0896
H22I H 0.9444 0.1197 0.0771
O13 O 0.541(2) 0.082(4) 0.2500
H23 H 0.5952 0.1295 0.2422
H23J H 0.5343 0.1295 0.2578
O14 O 0.268(5) -0.109(5) 0.0590(8)
O15 O -0.067(3) -0.134(7) 0.2500
O1? O 0.545(6) -0.217(6) 0.0947(8)
H1? H 0.5090 -0.2599 0.0817
H2? H 0.5869 -0.1312 0.0919
loop_
_geom_bond_atom_site_label_1
_geom_bond_atom_site_label_2
_geom_bond_site_symmetry_1
_geom_bond_site_symmetry_2
Sm1 N1 1_555 1_555
K1 O3 1_555 1_555
O2 H3 1_555 1_555
O3 H4 1_555 1_555
H5 O3 1_555 1_555
N1 C1 1_555 1_555
C1 C2 1_555 1_555
C2 H6 1_555 1_555
C3 C2 1_555 1_555
H7 C3 1_555 1_555
C4 C3 1_555 1_555
H8 C4 1_555 1_555
C5 N1 1_555 1_555
H9 C5 1_555 1_555
C6 C1 1_555 1_555
O4 Sm1 1_555 1_555
O5 C6 1_555 1_555
N2 Sm1 1_555 1_555
C7 N2 1_555 1_555
C8 C7 1_555 1_555
H10 C8 1_555 1_555
C9 C8 1_555 1_555
H11 C9 1_555 1_555
C10 C9 1_555 1_555
H12 C10 1_555 1_555
C11 N2 1_555 1_555
H13 C11 1_555 1_555
C12 C7 1_555 1_555
O6 Sm1 1_555 1_555
O7 Sm1 1_555 1_555
N3 Sm1 1_555 1_555
C13 N3 1_555 1_555
C14 C13 1_555 1_555
H14 C14 1_555 1_555
C15 C14 1_555 1_555
H15 C15 1_555 1_555
C16 C15 1_555 1_555
H16 C16 1_555 1_555
C17 N3 1_555 1_555
H17 C17 1_555 1_555
C18 C13 1_555 1_555
O8 Sm1 1_555 1_555
O9 C18 1_555 1_555
N4 Sm1 1_555 1_555
C19 N4 1_555 1_555
C20 C19 1_555 1_555
H18 C20 1_555 1_555
C21 C20 1_555 1_555
H19 C21 1_555 1_555
C22 C21 1_555 1_555
H20 C22 1_555 1_555
C23 N4 1_555 1_555
H21 C23 1_555 1_555
C24 C19 1_555 1_555
O10 Sm1 1_555 1_555
O11 C24 1_555 1_555
O12 H22 1_555 1_555
O13 H23 1_555 1_555
Sm1H N1H 1_555 1_555
Sm1H_2 O4H_2 1_555 1_555
K1H O6 1_555 1_555
K1H_2 O4H 1_555 1_555
H3I O2 1_555 1_555
O3H K1H 1_555 1_555
H4H O3H 1_555 1_555
H5H O3H 1_555 1_555
N1H C1H 1_555 1_555
C1H C2H 1_555 1_555
C2H H6H 1_555 1_555
C3H C2H 1_555 1_555
H7H C3H 1_555 1_555
C4H C3H 1_555 1_555
H8H C4H 1_555 1_555
C5H N1H 1_555 1_555
H9H C5H 1_555 1_555
C6H C1H 1_555 1_555
O4H Sm1H 1_555 1_555
O4H_2 K1H 1_555 1_555
O5H C6H 1_555 1_555
N2H Sm1H 1_555 1_555
C7H N2H 1_555 1_555
C8H C7H 1_555 1_555
H10H C8H 1_555 1_555
C9H C8H 1_555 1_555
H11H C9H 1_555 1_555
C10H C9H 1_555 1_555
H12H C10H 1_555 1_555
C11H N2H 1_555 1_555
H13H C11H 1_555 1_555
C12H O7 1_555 1_555
O6H K1 1_555 1_555
O7H C12 1_555 1_555
O7H_2 Sm1H 1_555 1_555
N3H Sm1H 1_555 1_555
C13H N3H 1_555 1_555
C14H C13H 1_555 1_555
H14H C14H 1_555 1_555
C15H C14H 1_555 1_555
H15H C15H 1_555 1_555
C16H C15H 1_555 1_555
H16H C16H 1_555 1_555
C17H N3H 1_555 1_555
H17H C17H 1_555 1_555
C18H C13H 1_555 1_555
O8H Sm1H_2 1_555 1_555
O8H_2 Sm1H 1_555 1_555
O9H C18H 1_555 1_555
N4H Sm1H 1_555 1_555
C19H N4H 1_555 1_555
C20H C19H 1_555 1_555
H18H C20H 1_555 1_555
C21H C20H 1_555 1_555
H19H C21H 1_555 1_555
C22H C21H 1_555 1_555
H20H C22H 1_555 1_555
C23H N4H 1_555 1_555
H21H C23H 1_555 1_555
C24H C19H 1_555 1_555
O10H K1 1_555 1_555
O11H C24H 1_555 1_555
H22I O12 1_555 1_555
H23J O13 1_555 1_555
K1 O4 1_555 1_555
K1 O8 1_555 1_555
C4 C5 1_555 1_555
C6 O4 1_555 1_555
C10 C11 1_555 1_555
C12 O6 1_555 1_555
C16 C17 1_555 1_555
C18 O8 1_555 1_555
C22 C23 1_555 1_555
C24 O10 1_555 1_555
O10 K1H 1_555 1_555
Sm1H O6H 1_555 1_555
Sm1H O10H 1_555 1_555
Sm1H_2 O7H 1_555 1_555
K1H O8H 1_555 1_555
K1H_2 O8H_2 1_555 1_555
C4H C5H 1_555 1_555
C6H O4H 1_555 1_555
C7H C12H 1_555 1_555
C10H C11H 1_555 1_555
C12H O6H 1_555 1_555
C16H C17H 1_555 1_555
C18H O8H_2 1_555 1_555
C22H C23H 1_555 1_555
C24H O10H 1_555 1_555

#END
