
#######################################################################
#
#                 Cambridge Crystallographic Data Centre
#                                CCDC 
#
#######################################################################
#
# If this CIF has been generated from an entry in the Cambridge 
# Structural Database, then it will include bibliographic, chemical, 
# crystal, experimental, refinement or atomic coordinate data resulting 
# from the CCDC's data processing and validation procedures.
#
#######################################################################

data_NASWAF
_symmetry_cell_setting           triclinic
_symmetry_space_group_name_H-M   'P -1'
_symmetry_Int_Tables_number      2
_space_group_name_Hall           '-P 1'
loop_
_symmetry_equiv_pos_site_id
_symmetry_equiv_pos_as_xyz
1 x,y,z
2 -x,-y,-z
_cell_length_a                   9.060(1)
_cell_length_b                   10.238(2)
_cell_length_c                   15.693(5)
_cell_angle_alpha                103.07(2)
_cell_angle_beta                 100.50(2)
_cell_angle_gamma                109.47(1)
_cell_volume                     1283.16
loop_
_atom_site_label
_atom_site_type_symbol
_atom_site_fract_x
_atom_site_fract_y
_atom_site_fract_z
O4 O 0.3473(3) 0.5276(3) 1.0597(2)
C8 C 0.2786(4) 0.4472(4) 1.1085(3)
C9 C 0.2070(5) 0.5070(4) 1.1702(3)
C10 C 0.1317(5) 0.4303(5) 1.2217(3)
C11 C 0.1240(6) 0.2905(5) 1.2147(3)
C12 C 0.1954(5) 0.2316(4) 1.1556(3)
C13 C 0.2739(4) 0.3063(4) 1.1020(3)
C14 C 0.3507(4) 0.2335(4) 1.0417(3)
O5 O 0.3419(3) 0.1090(3) 1.0397(2)
O6 O 0.4272(3) 0.2995(3) 0.9928(2)
N2 N 0.3533(4) -0.0874(4) 0.8565(2)
C20 C 0.3191(9) -0.2179(5) 0.7929(3)
C21 C 0.2462(6) -0.2163(5) 0.7109(3)
N3 N 0.2342(5) -0.0857(4) 0.7228(2)
C22 C 0.2995(6) -0.0121(5) 0.8111(3)
O7 O 0.3252(4) 0.4426(3) 0.8618(2)
C23 C 0.1569(6) 0.3867(7) 0.8449(4)
O8 O 0.6673(3) 0.1890(3) 0.9674(2)
C24 C 0.8323(6) 0.2296(5) 0.9775(4)
Mn2 Mn 0.5000 0.5000 1.0000
Mn3 Mn 0.5000 0.0000 1.0000
O5A O 0.6581(3) -0.1090(3) 0.9603(2)
C14A C 0.6493(4) -0.2335(4) 0.9583(3)
C13A C 0.7261(4) -0.3063(4) 0.8980(3)
C8A C 0.7214(4) -0.4472(4) 0.8915(3)
O4A O 0.6527(3) -0.5276(3) 0.9403(2)
Mn2A Mn 0.5000 -0.5000 1.0000
O4_2 O 0.3473(3) -0.4724(3) 1.0597(2)
C8_2 C 0.2786(4) -0.5528(4) 1.1085(3)
C9_2 C 0.2070(5) -0.4930(4) 1.1702(3)
C10_2 C 0.1317(5) -0.5697(5) 1.2217(3)
C11_2 C 0.1240(6) -0.7095(5) 1.2147(3)
C12_2 C 0.1954(5) -0.7684(4) 1.1556(3)
C13_2 C 0.2739(4) -0.6937(4) 1.1020(3)
C14_2 C 0.3507(4) -0.7665(4) 1.0417(3)
O5_2 O 0.3419(3) -0.8910(3) 1.0397(2)
Mn3_2 Mn 0.5000 -1.0000 1.0000
O6_2 O 0.4272(3) -0.7005(3) 0.9928(2)
O6A O 0.5728(3) -0.2995(3) 1.0072(2)
O7A O 0.6748(4) -0.4426(3) 1.1382(2)
C23A C 0.8431(6) -0.3867(7) 1.1551(4)
O7_2 O 0.3252(4) -0.5574(3) 0.8618(2)
C23_2 C 0.1569(6) -0.6133(7) 0.8449(4)
C9A C 0.7930(5) -0.5070(4) 0.8298(3)
C10A C 0.8683(5) -0.4303(5) 0.7783(3)
C11A C 0.8760(6) -0.2905(5) 0.7853(3)
C12A C 0.8046(5) -0.2316(4) 0.8444(3)
N2A N 0.6467(4) 0.0874(4) 1.1435(2)
C20A C 0.6809(9) 0.2179(5) 1.2071(3)
C21A C 0.7538(6) 0.2163(5) 1.2891(3)
N3A N 0.7658(5) 0.0857(4) 1.2772(2)
C22A C 0.7005(6) 0.0121(5) 1.1889(3)
O8A O 0.3327(3) -0.1890(3) 1.0326(2)
C24A C 0.1677(6) -0.2296(5) 1.0225(4)
O4A_2 O 0.6527(3) 0.4724(3) 0.9403(2)
C8A_2 C 0.7214(4) 0.5528(4) 0.8915(3)
C9A_2 C 0.7930(5) 0.4930(4) 0.8298(3)
C10A_2 C 0.8683(5) 0.5697(5) 0.7783(3)
C11A_2 C 0.8760(6) 0.7095(5) 0.7853(3)
C12A_2 C 0.8046(5) 0.7684(4) 0.8444(3)
C13A_2 C 0.7261(4) 0.6937(4) 0.8980(3)
C14A_2 C 0.6493(4) 0.7665(4) 0.9583(3)
O5A_2 O 0.6581(3) 0.8910(3) 0.9603(2)
Mn3A Mn 0.5000 1.0000 1.0000
O6A_2 O 0.5728(3) 0.7005(3) 1.0072(2)
O7A_2 O 0.6748(4) 0.5574(3) 1.1382(2)
C23A_2 C 0.8431(6) 0.6133(7) 1.1551(4)
O1 O -0.0348(4) -0.1778(3) 0.5223(2)
C1 C -0.1653(5) -0.3021(4) 0.4803(3)
C2 C -0.1839(6) -0.4144(4) 0.5206(3)
C3 C -0.3158(6) -0.5452(5) 0.4816(3)
C4 C -0.4304(6) -0.5714(5) 0.4025(4)
C5 C -0.4127(6) -0.4648(5) 0.3617(3)
C6 C -0.2801(5) -0.3299(4) 0.3989(3)
C7 C -0.2736(5) -0.2215(4) 0.3500(3)
O2 O -0.3625(4) -0.2565(3) 0.2720(2)
O3 O -0.1734(4) -0.0873(3) 0.3891(2)
N1 N 0.1810(4) -0.0389(4) 0.4173(2)
C15 C 0.2531(7) -0.1280(6) 0.4300(4)
C16 C 0.3563(8) -0.1561(6) 0.3827(5)
C17 C 0.3846(7) -0.0962(6) 0.3182(4)
C18 C 0.3123(7) -0.0054(6) 0.3023(4)
C19 C 0.2113(6) 0.0197(5) 0.3527(3)
Mn1 Mn 0.0000 0.0000 0.5000
O1A O 0.0348(4) 0.1778(3) 0.4777(2)
C1A C 0.1653(5) 0.3021(4) 0.5197(3)
C2A C 0.1839(6) 0.4144(4) 0.4794(3)
C3A C 0.3158(6) 0.5452(5) 0.5184(3)
C4A C 0.4304(6) 0.5714(5) 0.5975(4)
C5A C 0.4127(6) 0.4648(5) 0.6383(3)
C6A C 0.2801(5) 0.3299(4) 0.6011(3)
C7A C 0.2736(5) 0.2215(4) 0.6500(3)
O2A O 0.3625(4) 0.2565(3) 0.7280(2)
O3A O 0.1734(4) 0.0873(3) 0.6109(2)
N1A N -0.1810(4) 0.0389(4) 0.5827(2)
C15A C -0.2531(7) 0.1280(6) 0.5700(4)
C16A C -0.3563(8) 0.1561(6) 0.6173(5)
C17A C -0.3846(7) 0.0962(6) 0.6818(4)
C18A C -0.3123(7) 0.0054(6) 0.6977(4)
C19A C -0.2113(6) -0.0197(5) 0.6473(3)
loop_
_geom_bond_atom_site_label_1
_geom_bond_atom_site_label_2
_geom_bond_site_symmetry_1
_geom_bond_site_symmetry_2
O1 C1 1_555 1_555
C1 C2 1_555 1_555
C2 C3 1_555 1_555
C3 C4 1_555 1_555
C4 C5 1_555 1_555
C5 C6 1_555 1_555
C6 C1 1_555 1_555
C7 C6 1_555 1_555
O2 C7 1_555 1_555
O3 C7 1_555 1_555
O4 C8 1_555 1_555
C8 C9 1_555 1_555
C9 C10 1_555 1_555
C10 C11 1_555 1_555
C11 C12 1_555 1_555
C12 C13 1_555 1_555
C13 C8 1_555 1_555
C14 C13 1_555 1_555
O5 C14 1_555 1_555
O6 C14 1_555 1_555
N1 C15 1_555 1_555
C15 C16 1_555 1_555
C16 C17 1_555 1_555
C17 C18 1_555 1_555
C18 C19 1_555 1_555
C19 N1 1_555 1_555
N2 C20 1_555 1_555
C20 C21 1_555 1_555
C21 N3 1_555 1_555
N3 C22 1_555 1_555
C22 N2 1_555 1_555
O7 C23 1_555 1_555
O8 C24 1_555 1_555
Mn1 O1 1_555 1_555
Mn2 O4 1_555 1_555
Mn3 O5 1_555 1_555
O1A Mn1 1_555 1_555
C1A O1A 1_555 1_555
C2A C1A 1_555 1_555
C3A C2A 1_555 1_555
C4A C3A 1_555 1_555
C5A C4A 1_555 1_555
C6A C1A 1_555 1_555
C7A C6A 1_555 1_555
O2A C7A 1_555 1_555
O3A Mn1 1_555 1_555
N1A Mn1 1_555 1_555
C15A N1A 1_555 1_555
C16A C15A 1_555 1_555
C17A C16A 1_555 1_555
C18A C17A 1_555 1_555
C19A N1A 1_555 1_555
O5A Mn3 1_555 1_555
C14A O5A 1_555 1_555
C13A C14A 1_555 1_555
C8A C13A 1_555 1_555
O4A C8A 1_555 1_555
Mn2A O4A 1_555 1_555
O4_2 Mn2A 1_555 1_555
C8_2 O4_2 1_555 1_555
C9_2 C8_2 1_555 1_555
C10_2 C9_2 1_555 1_555
C11_2 C10_2 1_555 1_555
C12_2 C11_2 1_555 1_555
C13_2 C8_2 1_555 1_555
C14_2 C13_2 1_555 1_555
O5_2 C14_2 1_555 1_555
Mn3_2 O5_2 1_555 1_555
O6_2 Mn2A 1_555 1_555
O6A C14A 1_555 1_555
O7A Mn2A 1_555 1_555
C23A O7A 1_555 1_555
O7_2 Mn2A 1_555 1_555
C23_2 O7_2 1_555 1_555
C9A C8A 1_555 1_555
C10A C9A 1_555 1_555
C11A C10A 1_555 1_555
C12A C13A 1_555 1_555
N2A Mn3 1_555 1_555
C20A N2A 1_555 1_555
C21A C20A 1_555 1_555
N3A C21A 1_555 1_555
C22A N2A 1_555 1_555
O8A Mn3 1_555 1_555
C24A O8A 1_555 1_555
O4A_2 Mn2 1_555 1_555
C8A_2 O4A_2 1_555 1_555
C9A_2 C8A_2 1_555 1_555
C10A_2 C9A_2 1_555 1_555
C11A_2 C10A_2 1_555 1_555
C12A_2 C11A_2 1_555 1_555
C13A_2 C8A_2 1_555 1_555
C14A_2 C13A_2 1_555 1_555
O5A_2 C14A_2 1_555 1_555
Mn3A O5A_2 1_555 1_555
O6A_2 Mn2 1_555 1_555
O7A_2 Mn2 1_555 1_555
C23A_2 O7A_2 1_555 1_555
O3 Mn1 1_555 1_555
O6 Mn2 1_555 1_555
N1 Mn1 1_555 1_555
N2 Mn3 1_555 1_555
O7 Mn2 1_555 1_555
O8 Mn3 1_555 1_555
C5A C6A 1_555 1_555
C7A O3A 1_555 1_555
C18A C19A 1_555 1_555
Mn2A O6A 1_555 1_555
C12_2 C13_2 1_555 1_555
C14_2 O6_2 1_555 1_555
C11A C12A 1_555 1_555
N3A C22A 1_555 1_555
C12A_2 C13A_2 1_555 1_555
C14A_2 O6A_2 1_555 1_555

#END
