
#######################################################################
#
#                 Cambridge Crystallographic Data Centre
#                                CCDC 
#
#######################################################################
#
# If this CIF has been generated from an entry in the Cambridge 
# Structural Database, then it will include bibliographic, chemical, 
# crystal, experimental, refinement or atomic coordinate data resulting 
# from the CCDC's data processing and validation procedures.
#
#######################################################################

data_NASWEK
_symmetry_cell_setting           hexagonal
_symmetry_space_group_name_H-M   'P 61 2 2'
_symmetry_Int_Tables_number      178
_space_group_name_Hall           "P 61 2' (0,0,5)"
loop_
_symmetry_equiv_pos_site_id
_symmetry_equiv_pos_as_xyz
1 x,y,z
2 -y,x-y,1/3+z
3 -x+y,-x,2/3+z
4 -x,-y,1/2+z
5 x-y,x,1/6+z
6 y,-x+y,5/6+z
7 y,x,1/3-z
8 x-y,-y,-z
9 -x,-x+y,2/3-z
10 -y,-x,5/6-z
11 -x+y,y,1/2-z
12 x,x-y,1/6-z
_cell_length_a                   12.6743(9)
_cell_length_b                   12.6743(9)
_cell_length_c                   62.181(8)
_cell_angle_alpha                90
_cell_angle_beta                 90
_cell_angle_gamma                120
_cell_volume                     8650.4
loop_
_atom_site_label
_atom_site_type_symbol
_atom_site_fract_x
_atom_site_fract_y
_atom_site_fract_z
Dy1 Dy 0.46670(10) 0.92107(9) 0.838744(12)
K1 K 0.6147(5) 1.2364(4) 0.87377(6)
O2 O 0.742(4) 1.258(4) 0.9167
H3 H 0.8260 1.2990 0.9126
O3 O 0.476(3) 1.161(3) 0.9091(3)
H4 H 0.5193 1.1477 0.9203
H5 H 0.4009 1.0880 0.9065
N1 N 0.2678(12) 0.7573(11) 0.85541(17)
C1 C 0.2297(13) 0.7935(12) 0.8725(2)
C2 C 0.1308(16) 0.7106(15) 0.8844(3)
H6 H 0.1098 0.7367 0.8972
C3 C 0.0629(18) 0.5919(15) 0.8782(3)
H7 H -0.0057 0.5353 0.8863
C4 C 0.0970(16) 0.5564(15) 0.8596(3)
H8 H 0.0499 0.4760 0.8541
C5 C 0.2006(15) 0.6409(14) 0.8494(3)
H9 H 0.2265 0.6151 0.8371
C6 C 0.3060(15) 0.9246(13) 0.8790(2)
O4 O 0.3990(10) 0.9914(10) 0.86736(14)
O5 O 0.2731(12) 0.9642(11) 0.89413(16)
N2 N 0.5146(13) 0.8385(11) 0.87368(16)
C7 C 0.5103(15) 0.7307(12) 0.87193(18)
C8 C 0.5270(18) 0.6712(15) 0.8890(2)
H10 H 0.5194 0.5932 0.8871
C9 C 0.555(2) 0.7263(16) 0.9085(2)
H11 H 0.5674 0.6874 0.9205
C10 C 0.564(2) 0.8392(16) 0.9109(2)
H12 H 0.5828 0.8790 0.9245
C11 C 0.5464(19) 0.8916(15) 0.8931(2)
H13 H 0.5571 0.9709 0.8946
C12 C 0.4851(15) 0.6761(13) 0.8497(2)
O6 O 0.4785(10) 0.7409(10) 0.83476(14)
O7 O 0.4794(11) 0.5768(9) 0.84735(16)
N3 N 0.6572(12) 0.9832(13) 0.81574(18)
C13 C 0.7599(14) 1.0821(15) 0.8227(2)
C14 C 0.8663(15) 1.1385(17) 0.8106(2)
H14 H 0.9355 1.2102 0.8157
C15 C 0.8708(17) 1.0903(18) 0.7912(3)
H15 H 0.9428 1.1270 0.7827
C16 C 0.7670(18) 0.9858(19) 0.7843(3)
H16 H 0.7667 0.9481 0.7711
C17 C 0.6650(17) 0.9384(17) 0.7969(2)
H17 H 0.5942 0.8681 0.7918
C18 C 0.7517(15) 1.1335(16) 0.8439(2)
O8 O 0.6514(10) 1.0706(11) 0.85403(16)
O9 O 0.8373(12) 1.2310(13) 0.8502(2)
N4 N 0.2742(12) 0.9385(12) 0.82365(17)
C19 C 0.2303(15) 0.8818(16) 0.8049(2)
C20 C 0.1468(16) 0.8959(18) 0.7929(2)
H18 H 0.1198 0.8564 0.7794
C21 C 0.1037(18) 0.9672(18) 0.8007(3)
H19 H 0.0475 0.9796 0.7925
C22 C 0.1417(18) 1.022(2) 0.8206(3)
H20 H 0.1083 1.0670 0.8269
C23 C 0.2293(18) 1.0078(19) 0.8309(3)
H21 H 0.2604 1.0499 0.8441
C24 C 0.2878(15) 0.8108(15) 0.7970(2)
O10 O 0.3821(11) 0.8243(11) 0.80678(15)
O11 O 0.2419(15) 0.7411(15) 0.78153(19)
Dy1H Dy 0.53330(10) 1.45437(13) 0.827923(12)
Dy1H_2 Dy 0.53330(10) 0.45437(13) 0.827923(12)
K1H K 0.3853(5) 0.6217(6) 0.79290(6)
K1I K 0.7636(4) 1.3853(5) 0.95956(6)
K1H_2 K 0.3853(5) 1.6217(6) 0.79290(6)
O2E O 0.258(4) 0.516(6) 0.7500
H3I H 0.7010 1.1740 0.9207
H3E H 0.2990 0.4730 0.7459
H3H H 0.1740 0.4730 0.7541
O3H O 0.524(3) 0.685(4) 0.7576(3)
H4H H 0.4807 0.6284 0.7464
H5H H 0.5991 0.6871 0.7602
N1H N 0.7322(12) 1.4895(16) 0.81126(17)
C1H C 0.7703(13) 1.5638(18) 0.7942(2)
C2H C 0.8692(16) 1.5798(22) 0.7823(3)
H6H H 0.8902 1.6269 0.7695
C3H C 0.9371(18) 1.5290(23) 0.7885(3)
H7H H 1.0057 1.5410 0.7804
C4H C 0.9030(16) 1.4594(22) 0.8071(3)
H8H H 0.9501 1.4261 0.8126
C5H C 0.7994(15) 1.4403(21) 0.8173(3)
H9H H 0.7735 1.3886 0.8296
C6H C 0.6940(15) 1.6186(20) 0.7877(2)
O4H O 0.6010(10) 1.5924(14) 0.79931(14)
O4H_2 O 0.6010(10) 0.5924(14) 0.79931(14)
O5H O 0.7269(12) 1.6911(16) 0.77254(16)
N2H N 0.4854(13) 1.3239(17) 0.79299(16)
C7H C 0.4897(15) 1.2204(19) 0.79474(18)
C8H C 0.4730(18) 1.1442(23) 0.7777(2)
H10H H 0.4806 1.0738 0.7796
C9H C 0.445(2) 1.1713(26) 0.7582(2)
H11H H 0.4326 1.1200 0.7462
C10H C 0.436(2) 1.2752(26) 0.7558(2)
H12H H 0.4172 1.2962 0.7422
C11H C 0.4536(19) 1.3452(24) 0.7736(2)
H13H H 0.4429 1.4138 0.7721
C12H C 0.5149(15) 1.1910(20) 0.8170(2)
O6H O 0.5215(10) 1.2624(14) 0.83191(14)
O7H O 0.5206(11) 1.0974(14) 0.81932(16)
O7_2 O 0.4794(11) 1.5768(9) 0.84735(16)
N3H N 0.3428(12) 1.3260(18) 0.85093(18)
C13H C 0.2401(14) 1.3222(21) 0.8440(2)
C14H C 0.1337(15) 1.2722(23) 0.8561(2)
H14H H 0.0645 1.2747 0.8510
C15H C 0.1292(17) 1.2195(25) 0.8755(3)
H15H H 0.0572 1.1842 0.8840
C16H C 0.2330(18) 1.2188(26) 0.8824(3)
H16H H 0.2333 1.1814 0.8956
C17H C 0.3350(17) 1.2734(24) 0.8698(2)
H17H H 0.4058 1.2739 0.8749
C18H C 0.2483(15) 1.3818(22) 0.8228(2)
O8H O 0.3486(10) 1.4192(15) 0.81264(16)
O8H_2 O 0.3486(10) 0.4192(15) 0.81264(16)
O9H O 0.1627(12) 1.3937(18) 0.8165(2)
N4H N 0.7258(12) 1.6643(17) 0.84302(17)
C19H C 0.7697(15) 1.6515(22) 0.8618(2)
C20H C 0.8532(16) 1.7491(24) 0.8738(2)
H18H H 0.8802 1.7366 0.8873
C21H C 0.8963(18) 1.8635(25) 0.8660(3)
H19H H 0.9525 1.9321 0.8742
C22H C 0.8583(18) 1.8803(27) 0.8461(3)
H20H H 0.8917 1.9587 0.8398
C23H C 0.7707(18) 1.7785(26) 0.8358(3)
H21H H 0.7396 1.7895 0.8226
C24H C 0.7122(15) 1.5230(21) 0.8697(2)
O10H O 0.6179(11) 1.4422(16) 0.85989(15)
O11H O 0.7581(15) 1.4992(21) 0.88514(19)
O12 O 0.0619(9) 0.9381(9) 0.9167
H22 H 0.1203 0.9444 0.9104
H22I H 0.0556 0.8797 0.9229
O13 O 0.4556(13) 0.911(3) 0.7500
H23 H 0.4012 0.8705 0.7578
H23J H 0.4693 0.8705 0.7422
O14 O 0.741(3) 1.108(3) 0.9406(4)
O15 O 1.074(3) 1.149(5) 0.7500
O1? O 0.451(3) 1.198(4) 0.9055(4)
H1? H 0.4874 1.2407 0.9185
H2? H 0.4095 1.1121 0.9083
loop_
_geom_bond_atom_site_label_1
_geom_bond_atom_site_label_2
_geom_bond_site_symmetry_1
_geom_bond_site_symmetry_2
Dy1 N1 1_555 1_555
K1 O2 1_555 1_555
O2 H3 1_555 1_555
O3 K1 1_555 1_555
H4 O3 1_555 1_555
H5 O3 1_555 1_555
N1 C1 1_555 1_555
C1 C2 1_555 1_555
C2 H6 1_555 1_555
C3 C2 1_555 1_555
H7 C3 1_555 1_555
C4 C3 1_555 1_555
H8 C4 1_555 1_555
C5 N1 1_555 1_555
H9 C5 1_555 1_555
C6 C1 1_555 1_555
O4 Dy1 1_555 1_555
O5 C6 1_555 1_555
N2 Dy1 1_555 1_555
C7 N2 1_555 1_555
C8 C7 1_555 1_555
H10 C8 1_555 1_555
C9 C8 1_555 1_555
H11 C9 1_555 1_555
C10 C9 1_555 1_555
H12 C10 1_555 1_555
C11 N2 1_555 1_555
H13 C11 1_555 1_555
C12 C7 1_555 1_555
O6 Dy1 1_555 1_555
O7 C12 1_555 1_555
N3 Dy1 1_555 1_555
C13 N3 1_555 1_555
C14 C13 1_555 1_555
H14 C14 1_555 1_555
C15 C14 1_555 1_555
H15 C15 1_555 1_555
C16 C15 1_555 1_555
H16 C16 1_555 1_555
C17 N3 1_555 1_555
H17 C17 1_555 1_555
C18 C13 1_555 1_555
O8 Dy1 1_555 1_555
O9 C18 1_555 1_555
N4 Dy1 1_555 1_555
C19 N4 1_555 1_555
C20 C19 1_555 1_555
H18 C20 1_555 1_555
C21 C20 1_555 1_555
H19 C21 1_555 1_555
C22 C21 1_555 1_555
H20 C22 1_555 1_555
C23 N4 1_555 1_555
H21 C23 1_555 1_555
C24 C19 1_555 1_555
O10 Dy1 1_555 1_555
O11 C24 1_555 1_555
O12 H22 1_555 1_555
O13 H23 1_555 1_555
Dy1H N1H 1_555 1_555
Dy1H_2 O7 1_555 1_555
K1H O6 1_555 1_555
K1I O2 1_555 1_555
K1H_2 O4H 1_555 1_555
O2E K1H 1_555 1_555
H3I O2 1_555 1_555
H3E O2E 1_555 1_555
H3H O2E 1_555 1_555
O3H K1H 1_555 1_555
H4H O3H 1_555 1_555
H5H O3H 1_555 1_555
N1H C1H 1_555 1_555
C1H C2H 1_555 1_555
C2H H6H 1_555 1_555
C3H C2H 1_555 1_555
H7H C3H 1_555 1_555
C4H C3H 1_555 1_555
H8H C4H 1_555 1_555
C5H N1H 1_555 1_555
H9H C5H 1_555 1_555
C6H C1H 1_555 1_555
O4H Dy1H 1_555 1_555
O4H_2 Dy1H_2 1_555 1_555
O5H C6H 1_555 1_555
N2H Dy1H 1_555 1_555
C7H N2H 1_555 1_555
C8H C7H 1_555 1_555
H10H C8H 1_555 1_555
C9H C8H 1_555 1_555
H11H C9H 1_555 1_555
C10H C9H 1_555 1_555
H12H C10H 1_555 1_555
C11H N2H 1_555 1_555
H13H C11H 1_555 1_555
C12H C7H 1_555 1_555
O6H K1 1_555 1_555
O7H Dy1 1_555 1_555
O7_2 Dy1H 1_555 1_555
N3H Dy1H 1_555 1_555
C13H N3H 1_555 1_555
C14H C13H 1_555 1_555
H14H C14H 1_555 1_555
C15H C14H 1_555 1_555
H15H C15H 1_555 1_555
C16H C15H 1_555 1_555
H16H C16H 1_555 1_555
C17H N3H 1_555 1_555
H17H C17H 1_555 1_555
C18H C13H 1_555 1_555
O8H Dy1H 1_555 1_555
O8H_2 Dy1H_2 1_555 1_555
O9H C18H 1_555 1_555
N4H Dy1H 1_555 1_555
C19H N4H 1_555 1_555
C20H C19H 1_555 1_555
H18H C20H 1_555 1_555
C21H C20H 1_555 1_555
H19H C21H 1_555 1_555
C22H C21H 1_555 1_555
H20H C22H 1_555 1_555
C23H N4H 1_555 1_555
H21H C23H 1_555 1_555
C24H C19H 1_555 1_555
O10H K1 1_555 1_555
O11H K1 1_555 1_555
H22I O12 1_555 1_555
H23J O13 1_555 1_555
K1 O4 1_555 1_555
K1 O8 1_555 1_555
C4 C5 1_555 1_555
C6 O4 1_555 1_555
C10 C11 1_555 1_555
C12 O6 1_555 1_555
C16 C17 1_555 1_555
C18 O8 1_555 1_555
C22 C23 1_555 1_555
C24 O10 1_555 1_555
O10 K1H 1_555 1_555
O11 K1H 1_555 1_555
Dy1H O6H 1_555 1_555
Dy1H O10H 1_555 1_555
K1H O4H_2 1_555 1_555
K1H O8H_2 1_555 1_555
K1H_2 O8H 1_555 1_555
C4H C5H 1_555 1_555
C6H O4H 1_555 1_555
C10H C11H 1_555 1_555
C12H O6H 1_555 1_555
C12H O7H 1_555 1_555
C16H C17H 1_555 1_555
C18H O8H 1_555 1_555
C22H C23H 1_555 1_555
C24H O10H 1_555 1_555
C24H O11H 1_555 1_555

#END
