
#######################################################################
#
#                 Cambridge Crystallographic Data Centre
#                                CCDC 
#
#######################################################################
#
# If this CIF has been generated from an entry in the Cambridge 
# Structural Database, then it will include bibliographic, chemical, 
# crystal, experimental, refinement or atomic coordinate data resulting 
# from the CCDC's data processing and validation procedures.
#
#######################################################################

data_NASXOU
_symmetry_cell_setting           triclinic
_symmetry_space_group_name_H-M   'P -1'
_symmetry_Int_Tables_number      2
_space_group_name_Hall           '-P 1'
loop_
_symmetry_equiv_pos_site_id
_symmetry_equiv_pos_as_xyz
1 x,y,z
2 -x,-y,-z
_cell_length_a                   11.350(5)
_cell_length_b                   11.854(3)
_cell_length_c                   9.275(5)
_cell_angle_alpha                97.32(4)
_cell_angle_beta                 112.35(4)
_cell_angle_gamma                67.67(2)
_cell_volume                     1067.38
loop_
_atom_site_label
_atom_site_type_symbol
_atom_site_fract_x
_atom_site_fract_y
_atom_site_fract_z
I1 I -0.13997(3) 0.41074(3) -0.00213(4)
I2 I 0.26906(3) 0.18333(3) 0.02983(4)
Cu1 Cu 0.34192(7) 0.36838(6) 0.04979(8)
Cu2 Cu -0.06724(7) 0.60501(6) 0.08766(8)
S1 S 0.4755(1) 0.4126(1) 0.2896(2)
S2 S 0.6922(1) 0.2931(1) 0.5837(1)
S3 S 0.6468(1) 0.1472(1) 0.3104(1)
S4 S 0.9162(2) 0.0907(1) 0.7951(2)
S5 S 0.8666(1) -0.0827(1) 0.4563(2)
S6 S 0.0044(1) 0.3607(1) -0.3489(1)
S7 S -0.1933(1) 0.6187(1) -0.3737(1)
S8 S -0.2160(1) 0.4678(1) -0.6441(1)
S9 S -0.4280(1) 0.8395(1) -0.5384(2)
S10 S -0.4542(1) 0.6507(1) -0.8660(1)
C1 C 0.5994(5) 0.2885(4) 0.3896(5)
C2 C 0.7990(5) 0.1400(4) 0.6080(5)
C3 C 0.7791(5) 0.0708(4) 0.4779(6)
C4 C 0.961(2) -0.0688(8) 0.771(1)
C5 C 0.948(1) -0.1355(6) 0.6566(8)
C6 C -0.1292(5) 0.4786(4) -0.4490(5)
C7 C -0.3260(5) 0.6860(4) -0.5473(6)
C8 C -0.3354(5) 0.6158(4) -0.6738(5)
C9 C -0.4739(6) 0.8832(5) -0.7389(7)
C10 C -0.5530(6) 0.8132(6) -0.8573(7)
Cu2A Cu 0.06724(7) 0.39499(6) -0.08766(8)
I1A I 0.13997(3) 0.58926(3) 0.00213(4)
Cu1A Cu -0.34192(7) 0.63162(6) -1.04979(8)
S10A S 0.4542(1) 0.3493(1) -0.1340(1)
loop_
_geom_bond_atom_site_label_1
_geom_bond_atom_site_label_2
_geom_bond_site_symmetry_1
_geom_bond_site_symmetry_2
I1 Cu2 1_555 1_555
I2 Cu1 1_555 1_555
Cu1 S1 1_555 1_555
Cu2 I1A 1_555 1_555
S1 C1 1_555 1_555
S2 C1 1_555 1_555
S3 C1 1_555 1_555
S4 C2 1_555 1_555
S5 C3 1_555 1_555
S6 C6 1_555 1_555
S7 C6 1_555 1_555
S8 C6 1_555 1_555
S9 C7 1_555 1_555
S10 C8 1_555 1_555
C2 S2 1_555 1_555
C3 S3 1_555 1_555
C4 S4 1_555 1_555
C5 S5 1_555 1_555
C7 S7 1_555 1_555
C8 S8 1_555 1_555
C9 S9 1_555 1_555
C10 S10 1_555 1_555
Cu2A I1 1_555 1_555
I1A Cu1 1_555 1_555
Cu1A S10 1_555 1_555
S10A Cu1 1_555 1_555
I2 Cu2A 1_555 1_555
S6 Cu2A 1_555 1_555
C2 C3 1_555 1_555
C4 C5 1_555 1_555
C7 C8 1_555 1_555
C9 C10 1_555 1_555
Cu2A I1A 1_555 1_555

#END
