
#######################################################################
#
#                 Cambridge Crystallographic Data Centre
#                                CCDC 
#
#######################################################################
#
# If this CIF has been generated from an entry in the Cambridge 
# Structural Database, then it will include bibliographic, chemical, 
# crystal, experimental, refinement or atomic coordinate data resulting 
# from the CCDC's data processing and validation procedures.
#
#######################################################################

data_NASZAK
_symmetry_cell_setting           triclinic
_symmetry_space_group_name_H-M   'P -1'
_symmetry_Int_Tables_number      2
_space_group_name_Hall           '-P 1'
loop_
_symmetry_equiv_pos_site_id
_symmetry_equiv_pos_as_xyz
1 x,y,z
2 -x,-y,-z
_cell_length_a                   9.6935(6)
_cell_length_b                   10.0302(6)
_cell_length_c                   11.5844(7)
_cell_angle_alpha                65.9780(10)
_cell_angle_beta                 66.7680(10)
_cell_angle_gamma                63.3430(10)
_cell_volume                     887.931
loop_
_atom_site_label
_atom_site_type_symbol
_atom_site_fract_x
_atom_site_fract_y
_atom_site_fract_z
Bi1 Bi 0.27473(2) 0.38890(2) 0.265975(18)
O1 O 0.1148(5) 0.5874(4) 0.1238(4)
O2 O -0.1160(4) 0.7010(4) -0.2071(4)
O3 O 0.1486(6) 0.8328(6) -0.1375(6)
O4 O -0.1157(6) 0.9282(5) -0.1044(6)
O5 O -0.0709(5) 0.6800(5) 0.5286(4)
O6 O 0.1236(5) 0.5940(4) 0.3661(4)
O7 O 0.4289(5) 0.3477(5) 0.0501(4)
O8 O 0.5816(5) 0.4381(5) -0.1418(4)
O9 O 0.4494(6) 0.3385(6) 0.4004(5)
O10 O 0.4301(5) 0.0968(5) 0.3091(5)
N1 N 0.6927(6) 0.2352(7) 0.4370(6)
N2 N 0.5634(6) -0.1020(6) 0.2175(6)
C1 C 0.0638(6) 0.5521(6) 0.0597(5)
C2 C 0.0073(6) 0.6575(6) -0.0508(5)
C3 C -0.0609(6) 0.6133(6) -0.1095(5)
C4 C 0.0243(7) 0.8133(6) -0.1025(6)
C5 C -0.1163(11) 1.0894(9) -0.1547(10)
H1 H -0.2241 1.1604 -0.1509
H2 H -0.0529 1.1073 -0.2437
H3 H -0.0724 1.1052 -0.1021
C6 C 0.0148(6) 0.5798(6) 0.4697(5)
C7 C 0.5042(6) 0.4369(6) -0.0259(5)
C8 C 0.5728(8) 0.2271(9) 0.4199(7)
H4 H 0.5798 0.1305 0.4225
C9 C 0.6960(11) 0.3861(14) 0.4215(14)
H5 H 0.5972 0.4658 0.4059
H6 H 0.7832 0.4071 0.3488
H7 H 0.7099 0.3843 0.4998
C10 C 0.8331(9) 0.1016(12) 0.4617(10)
H8 H 0.8177 0.0096 0.4702
H9 H 0.8507 0.0919 0.5412
H10 H 0.9243 0.1144 0.3902
C11 C 0.4421(8) 0.0185(8) 0.2428(6)
H11 H 0.3567 0.0495 0.2089
C12 C 0.5655(10) -0.1892(10) 0.1417(10)
H12 H 0.4657 -0.1442 0.1189
H13 H 0.5807 -0.2954 0.1930
H14 H 0.6513 -0.1855 0.0634
C13 C 0.7056(9) -0.1535(10) 0.2620(9)
H15 H 0.6890 -0.0871 0.3104
H16 H 0.7961 -0.1487 0.1876
H17 H 0.7250 -0.2585 0.3171
Bi1A Bi -0.27473(2) 0.61110(2) -0.265975(18)
Bi1A_2 Bi -0.27473(2) 0.61110(2) 0.734025(18)
Bi1A_3 Bi 0.72527(2) 0.61110(2) -0.265975(18)
O1A O -0.1148(5) 0.4126(4) -0.1238(4)
O2A O 0.1160(4) 0.2990(4) 0.2071(4)
O3A O -0.1486(6) 0.1672(6) 0.1375(6)
O4A O 0.1157(6) 0.0718(5) 0.1044(6)
O5A O 0.0709(5) 0.3200(5) 0.4714(4)
O5_2 O -0.0709(5) 0.6800(5) -0.4714(4)
O6A O -0.1236(5) 0.4060(4) 0.6339(4)
O6A_2 O -0.1236(5) 0.4060(4) -0.3661(4)
O7A O 0.5711(5) 0.6523(5) -0.0501(4)
O7A_2 O -0.4289(5) 0.6523(5) -0.0501(4)
O8A O 0.4184(5) 0.5619(5) 0.1418(4)
O8_2 O -0.4184(5) 0.4381(5) -0.1418(4)
O9A O -0.4494(6) 0.6615(6) -0.4004(5)
O10A O -0.4301(5) 0.9032(5) -0.3091(5)
N1A N -0.6927(6) 0.7648(7) -0.4370(6)
N2A N -0.5634(6) 1.1020(6) -0.2175(6)
C1A C -0.0638(6) 0.4479(6) -0.0597(5)
C2A C -0.0073(6) 0.3425(6) 0.0508(5)
C3A C 0.0609(6) 0.3867(6) 0.1095(5)
C4A C -0.0243(7) 0.1867(6) 0.1025(6)
C5A C 0.1163(11) -0.0894(9) 0.1547(10)
H1A H 0.2241 -0.1604 0.1509
H2A H 0.0529 -0.1073 0.2437
H3A H 0.0724 -0.1052 0.1021
C6A C -0.0148(6) 0.4202(6) 0.5303(5)
C7A C 0.4958(6) 0.5631(6) 0.0259(5)
C8A C -0.5728(8) 0.7729(9) -0.4199(7)
H4A H -0.5798 0.8695 -0.4225
C9A C -0.6960(11) 0.6139(14) -0.4215(14)
H5A H -0.5972 0.5342 -0.4059
H6A H -0.7832 0.5929 -0.3488
H7A H -0.7099 0.6157 -0.4998
C10A C -0.8331(9) 0.8984(12) -0.4617(10)
H8A H -0.8177 0.9904 -0.4702
H9A H -0.8507 0.9081 -0.5412
H10A H -0.9243 0.8856 -0.3902
C11A C -0.4421(8) 0.9815(8) -0.2428(6)
H11A H -0.3567 0.9505 -0.2089
C12A C -0.5655(10) 1.1892(10) -0.1417(10)
H12A H -0.4657 1.1442 -0.1189
H13A H -0.5807 1.2954 -0.1930
H14A H -0.6513 1.1855 -0.0634
C13A C -0.7056(9) 1.1535(10) -0.2620(9)
H15A H -0.6890 1.0871 -0.3104
H16A H -0.7961 1.1487 -0.1876
H17A H -0.7250 1.2585 -0.3171
loop_
_geom_bond_atom_site_label_1
_geom_bond_atom_site_label_2
_geom_bond_site_symmetry_1
_geom_bond_site_symmetry_2
Bi1 O1 1_555 1_555
O1 C1 1_555 1_555
O2 C3 1_555 1_555
O3 C4 1_555 1_555
O4 C4 1_555 1_555
O5 C6 1_555 1_555
O6 Bi1 1_555 1_555
O7 Bi1 1_555 1_555
O8 C7 1_555 1_555
O9 Bi1 1_555 1_555
O10 Bi1 1_555 1_555
N1 C8 1_555 1_555
N2 C11 1_555 1_555
C1 C2 1_555 1_555
C2 C3 1_555 1_555
C3 C1A 1_555 1_555
C4 C2 1_555 1_555
C5 O4 1_555 1_555
H1 C5 1_555 1_555
H2 C5 1_555 1_555
H3 C5 1_555 1_555
C6 O6 1_555 1_555
C7 O7 1_555 1_555
C8 O9 1_555 1_555
H4 C8 1_555 1_555
C9 N1 1_555 1_555
H5 C9 1_555 1_555
H6 C9 1_555 1_555
H7 C9 1_555 1_555
C10 N1 1_555 1_555
H8 C10 1_555 1_555
H9 C10 1_555 1_555
H10 C10 1_555 1_555
C11 O10 1_555 1_555
H11 C11 1_555 1_555
C12 N2 1_555 1_555
H12 C12 1_555 1_555
H13 C12 1_555 1_555
H14 C12 1_555 1_555
C13 N2 1_555 1_555
H15 C13 1_555 1_555
H16 C13 1_555 1_555
H17 C13 1_555 1_555
Bi1A O2 1_555 1_555
Bi1A_2 O5 1_555 1_555
Bi1A_3 O8 1_555 1_555
O1A Bi1A 1_555 1_555
O2A Bi1 1_555 1_555
O3A C4A 1_555 1_555
O4A C4A 1_555 1_555
O5A Bi1 1_555 1_555
O5_2 Bi1A 1_555 1_555
O6A Bi1A_2 1_555 1_555
O6A_2 Bi1A 1_555 1_555
O7A Bi1A_3 1_555 1_555
O7A_2 Bi1A 1_555 1_555
O8A Bi1 1_555 1_555
O8_2 Bi1A 1_555 1_555
O9A Bi1A 1_555 1_555
O10A Bi1A 1_555 1_555
N1A C8A 1_555 1_555
N2A C11A 1_555 1_555
C1A O1A 1_555 1_555
C2A C1A 1_555 1_555
C3A C1 1_555 1_555
C4A C2A 1_555 1_555
C5A O4A 1_555 1_555
H1A C5A 1_555 1_555
H2A C5A 1_555 1_555
H3A C5A 1_555 1_555
C6A C6 1_555 1_555
C7A C7 1_555 1_555
C8A O9A 1_555 1_555
H4A C8A 1_555 1_555
C9A N1A 1_555 1_555
H5A C9A 1_555 1_555
H6A C9A 1_555 1_555
H7A C9A 1_555 1_555
C10A N1A 1_555 1_555
H8A C10A 1_555 1_555
H9A C10A 1_555 1_555
H10A C10A 1_555 1_555
C11A O10A 1_555 1_555
H11A C11A 1_555 1_555
C12A N2A 1_555 1_555
H12A C12A 1_555 1_555
H13A C12A 1_555 1_555
H14A C12A 1_555 1_555
C13A N2A 1_555 1_555
H15A C13A 1_555 1_555
H16A C13A 1_555 1_555
H17A C13A 1_555 1_555
O2A C3A 1_555 1_555
O5A C6A 1_555 1_555
O6A C6A 1_555 1_555
O7A C7A 1_555 1_555
O8A C7A 1_555 1_555
C2A C3A 1_555 1_555

#END
