
#######################################################################
#
#                 Cambridge Crystallographic Data Centre
#                                CCDC 
#
#######################################################################
#
# If this CIF has been generated from an entry in the Cambridge 
# Structural Database, then it will include bibliographic, chemical, 
# crystal, experimental, refinement or atomic coordinate data resulting 
# from the CCDC's data processing and validation procedures.
#
#######################################################################

data_NASZIQ
_symmetry_cell_setting           orthorhombic
_symmetry_space_group_name_H-M   'P 21 21 21'
_symmetry_Int_Tables_number      19
_space_group_name_Hall           'P 2ac 2ab'
loop_
_symmetry_equiv_pos_site_id
_symmetry_equiv_pos_as_xyz
1 x,y,z
2 1/2-x,-y,1/2+z
3 1/2+x,1/2-y,-z
4 -x,1/2+y,1/2-z
_cell_length_a                   11.486(5)
_cell_length_b                   16.186(5)
_cell_length_c                   17.754(9)
_cell_angle_alpha                90
_cell_angle_beta                 90
_cell_angle_gamma                90
_cell_volume                     3300.69
loop_
_atom_site_label
_atom_site_type_symbol
_atom_site_fract_x
_atom_site_fract_y
_atom_site_fract_z
Ag1 Ag 0.93847(5) 0.60812(4) 0.79331(3)
P1 P 1.0711(2) 0.65813(11) 0.88815(10)
P2 P 0.9037(2) 0.57347(11) 0.66362(11)
O2 O 0.7601(6) 0.5574(5) 0.8630(5)
O3 O 0.6760(6) 0.5928(6) 0.9624(4)
O4 O 0.7691(8) 0.6769(7) 0.9002(7)
O5 O 1.0011(6) 0.7847(3) 0.7669(3)
O6 O 1.0053(5) 0.9238(3) 0.7539(3)
N1 N 0.7339(7) 0.6095(7) 0.9108(5)
C2 C 1.0544(7) 0.7688(4) 0.8977(3)
H1 H 0.9762(7) 0.7807(4) 0.9153(3)
H2 H 1.1085(7) 0.7886(4) 0.9357(3)
C3 C 1.0754(8) 0.8152(4) 0.8258(4)
H3 H 1.1570(8) 0.8088(4) 0.8107(4)
C4 C 1.0445(7) 0.9074(4) 0.8287(4)
H4 H 0.9794(7) 0.9152(4) 0.8636(4)
C5 C 1.1399(6) 0.9655(4) 0.8493(4)
H5 H 1.2076(6) 0.9541(4) 0.8184(4)
H6 H 1.1615(6) 0.9567(4) 0.9015(4)
C6 C 0.9516(9) 0.8495(5) 0.7258(5)
C7 C 0.8233(10) 0.8530(7) 0.7386(9)
H7 H 0.8080(10) 0.8588(7) 0.7915(9)
H8 H 0.7880(10) 0.8031(7) 0.7204(9)
H9 H 0.7913(10) 0.8995(7) 0.7121(9)
C8 C 0.9863(11) 0.8412(5) 0.6455(5)
H10 H 1.0697(11) 0.8403(5) 0.6418(5)
H11 H 0.9564(11) 0.8871(5) 0.6173(5)
H12 H 0.9552(11) 0.7907(5) 0.6254(5)
C9 C 1.2232(7) 0.6412(5) 0.8674(5)
C10 C 1.3135(9) 0.6833(6) 0.9007(6)
H13 H 1.2981(9) 0.7236(6) 0.9367(6)
C11 C 1.4270(11) 0.6657(8) 0.8808(8)
H14 H 1.4874(11) 0.6944(8) 0.9039(8)
C12 C 1.4520(11) 0.6082(10) 0.8292(7)
H15 H 1.5290(11) 0.5982(10) 0.8158(7)
C13 C 1.3640(11) 0.5640(8) 0.7959(7)
H16 H 1.3800(11) 0.5225(8) 0.7612(7)
C14 C 1.2503(8) 0.5832(6) 0.8157(5)
H17 H 1.1900(8) 0.5548(6) 0.7922(5)
C15 C 1.0504(8) 0.6192(4) 0.9843(4)
C16 C 0.9802(8) 0.5528(5) 0.9934(5)
H18 H 0.9472(8) 0.5282(5) 0.9512(5)
C17 C 0.9570(9) 0.5213(7) 1.0623(7)
H19 H 0.9106(9) 0.4745(7) 1.0672(7)
C18 C 1.0018(11) 0.5585(9) 1.1243(8)
H20 H 0.9839(11) 0.5381(9) 1.1719(8)
C19 C 1.0718(12) 0.6244(8) 1.1175(5)
H21 H 1.1026(12) 0.6488(8) 1.1605(5)
C20 C 1.0990(9) 0.6569(6) 1.0466(5)
H22 H 1.1481(9) 0.7023(6) 1.0416(5)
C21 C 0.9681(7) 1.0829(4) 0.8970(4)
C22 C 0.8734(8) 1.1219(6) 0.8687(5)
H23 H 0.8783(8) 1.1484(6) 0.8223(5)
C23 C 0.7696(9) 1.1229(8) 0.9080(7)
H24 H 0.7062(9) 1.1517(8) 0.8886(7)
C24 C 0.7586(11) 1.0820(9) 0.9752(7)
H25 H 0.6875(11) 1.0796(9) 1.0000(7)
C25 C 0.8553(13) 1.0448(7) 1.0047(6)
H26 H 0.8502(13) 1.0194(7) 1.0515(6)
C26 C 0.9602(9) 1.0438(5) 0.9669(5)
H27 H 1.0246(9) 1.0175(5) 0.9876(5)
C27 C 1.2151(7) 1.1300(4) 0.8783(5)
C28 C 1.3055(9) 1.1522(5) 0.8328(6)
H28 H 1.3027(9) 1.1380(5) 0.7820(6)
C29 C 1.4015(9) 1.1952(6) 0.8596(8)
H29 H 1.4622(9) 1.2084(6) 0.8270(8)
C30 C 1.4074(12) 1.2178(8) 0.9324(10)
H30 H 1.4718(12) 1.2458(8) 0.9512(10)
C31 C 1.3163(12) 1.1984(8) 0.9772(8)
H31 H 1.3182(12) 1.2156(8) 1.0271(8)
C32 C 1.2220(9) 1.1549(6) 0.9530(6)
H32 H 1.1624(9) 1.1420(6) 0.9864(6)
P2C P 1.0963(2) 1.07347(11) 0.83638(11)
Ag1C Ag 1.06153(5) 1.10812(4) 0.70669(3)
O1 O 0.6452(25) 0.4173(16) 0.8147(16)
C1 C 0.6399(31) 0.3651(22) 0.8384(20)
loop_
_geom_bond_atom_site_label_1
_geom_bond_atom_site_label_2
_geom_bond_site_symmetry_1
_geom_bond_site_symmetry_2
Ag1 P1 1_555 1_555
P1 C2 1_555 1_555
P2 Ag1 1_555 1_555
O1 C1 1_555 1_555
O2 Ag1 1_555 1_555
O3 N1 1_555 1_555
O4 N1 1_555 1_555
O5 C3 1_555 1_555
O6 C4 1_555 1_555
N1 O2 1_555 1_555
C2 H1 1_555 1_555
H2 C2 1_555 1_555
C3 C2 1_555 1_555
H3 C3 1_555 1_555
C4 C3 1_555 1_555
H4 C4 1_555 1_555
C5 C4 1_555 1_555
H5 C5 1_555 1_555
H6 C5 1_555 1_555
C6 O5 1_555 1_555
C7 C6 1_555 1_555
H7 C7 1_555 1_555
H8 C7 1_555 1_555
H9 C7 1_555 1_555
C8 C6 1_555 1_555
H10 C8 1_555 1_555
H11 C8 1_555 1_555
H12 C8 1_555 1_555
C9 P1 1_555 1_555
C10 C9 1_555 1_555
H13 C10 1_555 1_555
C11 C10 1_555 1_555
H14 C11 1_555 1_555
C12 C11 1_555 1_555
H15 C12 1_555 1_555
C13 C12 1_555 1_555
H16 C13 1_555 1_555
C14 C9 1_555 1_555
H17 C14 1_555 1_555
C15 P1 1_555 1_555
C16 C15 1_555 1_555
H18 C16 1_555 1_555
C17 C16 1_555 1_555
H19 C17 1_555 1_555
C18 C17 1_555 1_555
H20 C18 1_555 1_555
C19 C18 1_555 1_555
H21 C19 1_555 1_555
C20 C15 1_555 1_555
H22 C20 1_555 1_555
C21 C22 1_555 1_555
C22 H23 1_555 1_555
C23 C22 1_555 1_555
H24 C23 1_555 1_555
C24 C23 1_555 1_555
H25 C24 1_555 1_555
C25 C24 1_555 1_555
H26 C25 1_555 1_555
C26 C21 1_555 1_555
H27 C26 1_555 1_555
C27 C28 1_555 1_555
C28 H28 1_555 1_555
C29 C28 1_555 1_555
H29 C29 1_555 1_555
C30 C29 1_555 1_555
H30 C30 1_555 1_555
C31 C30 1_555 1_555
H31 C31 1_555 1_555
C32 C27 1_555 1_555
H32 C32 1_555 1_555
P2C C5 1_555 1_555
Ag1C P2C 1_555 1_555
O6 C6 1_555 1_555
C13 C14 1_555 1_555
C19 C20 1_555 1_555
C21 P2C 1_555 1_555
C25 C26 1_555 1_555
C27 P2C 1_555 1_555
C31 C32 1_555 1_555

#END
