
#######################################################################
#
#                 Cambridge Crystallographic Data Centre
#                                CCDC 
#
#######################################################################
#
# If this CIF has been generated from an entry in the Cambridge 
# Structural Database, then it will include bibliographic, chemical, 
# crystal, experimental, refinement or atomic coordinate data resulting 
# from the CCDC's data processing and validation procedures.
#
#######################################################################

data_NASZEO
_symmetry_cell_setting           monoclinic
_symmetry_space_group_name_H-M   'P 21/n'
_symmetry_Int_Tables_number      14
_space_group_name_Hall           '-P 2yn'
loop_
_symmetry_equiv_pos_site_id
_symmetry_equiv_pos_as_xyz
1 x,y,z
2 1/2-x,1/2+y,1/2-z
3 -x,-y,-z
4 1/2+x,1/2-y,1/2+z
_cell_length_a                   10.1663(5)
_cell_length_b                   20.7198(10)
_cell_length_c                   11.3749(5)
_cell_angle_alpha                90
_cell_angle_beta                 112.5330(10)
_cell_angle_gamma                90
_cell_volume                     2213.13
loop_
_atom_site_label
_atom_site_type_symbol
_atom_site_fract_x
_atom_site_fract_y
_atom_site_fract_z
Bi1 Bi 0.46139(2) 0.903052(9) 0.187655(18)
O1 O 0.4605(4) 0.8046(2) 0.3155(4)
O2 O 0.6990(4) 0.85735(18) 0.3133(4)
O3 O 0.9632(4) 0.68728(19) 0.5609(4)
O4 O 0.7283(4) 0.63464(18) 0.5632(4)
O5 O 1.0397(8) 0.8463(4) 0.5206(8)
O6 O 1.0185(5) 0.7880(3) 0.3550(5)
O7 O 0.3643(6) 0.6597(4) 0.3369(6)
O8 O 0.4324(5) 0.6850(3) 0.5340(5)
O9 O 0.5918(6) 1.0044(3) 0.3020(6)
O10 O 0.2992(5) 0.9534(2) 0.2900(4)
O11 O 0.6040(4) 0.93431(18) 0.0776(4)
O12 O 0.6498(4) 1.01207(19) -0.0359(4)
C1 C 0.5821(5) 0.7148(3) 0.4340(5)
C2 C 0.5748(6) 0.7745(3) 0.3719(5)
C3 C 0.7129(6) 0.8058(3) 0.3737(5)
C4 C 0.8443(5) 0.7767(3) 0.4407(5)
C5 C 0.8502(5) 0.7177(3) 0.5028(5)
C6 C 0.7130(6) 0.6866(3) 0.5020(5)
C7 C 0.4482(7) 0.6831(3) 0.4281(7)
C8 C 0.9754(6) 0.8084(3) 0.4441(7)
C9 C 0.3084(8) 0.6534(5) 0.5421(8)
H1 H 0.3100 0.6582 0.6266
H2 H 0.3100 0.6083 0.5229
H3 H 0.2233 0.6727 0.4821
C10 C 1.1452(8) 0.8167(5) 0.3509(9)
H4 H 1.1654 0.7981 0.2823
H5 H 1.2237 0.8089 0.4299
H6 H 1.1314 0.8624 0.3376
C11 C 0.6309(13) 1.1313(6) 0.2534(10)
H7 H 0.6737 1.0956 0.2275
H8 H 0.7039 1.1602 0.3053
H9 H 0.5682 1.1539 0.1794
C12 C 0.4821(12) 1.1547(5) 0.3725(10)
H10 H 0.4342 1.1334 0.4197
H11 H 0.4139 1.1780 0.3027
H12 H 0.5513 1.1843 0.4272
C13 C 0.5390(9) 1.0473(4) 0.3436(9)
C14 C 0.1500(10) 1.0184(7) 0.4115(8)
H13 H 0.2465 1.0036 0.4517
H14 H 0.0926 0.9985 0.4515
H15 H 0.1473 1.0645 0.4200
C15 C -0.0501(8) 1.0209(6) 0.2049(9)
H16 H -0.0764 1.0071 0.1183
H17 H -0.0575 1.0670 0.2073
H18 H -0.1126 1.0015 0.2401
C16 C 0.1746(8) 0.9719(3) 0.2311(7)
H19 H 0.1349 0.9634 0.1442
C17 C 0.5734(5) 0.9843(3) 0.0119(5)
N1 N 0.5518(7) 1.1080(3) 0.3247(5)
N2 N 0.0956(6) 1.0015(3) 0.2788(6)
Bi1C Bi 0.96139(2) 0.596948(9) 0.687655(18)
Bi1B Bi 0.53861(2) 1.096948(9) -0.187655(18)
Bi1A Bi 0.03861(2) 1.403052(9) -0.687655(18)
O1B O 0.5395(4) 1.1954(2) -0.3155(4)
O2B O 0.3010(4) 1.14265(18) -0.3133(4)
O3C O 0.4632(4) 0.81272(19) 0.0609(4)
O3A O 0.5368(4) 1.18728(19) -0.0609(4)
O3B O 0.0368(4) 1.31272(19) -0.5609(4)
O4C O 0.2283(4) 0.86536(18) 0.0632(4)
O4A O 0.7717(4) 1.13464(18) -0.0632(4)
O4B O 0.2717(4) 1.36536(18) -0.5632(4)
O5B O -0.0397(8) 1.1537(4) -0.5206(8)
O6B O -0.0185(5) 1.2120(3) -0.3550(5)
O7B O 0.6357(6) 1.3403(4) -0.3369(6)
O8B O 0.5676(5) 1.3150(3) -0.5340(5)
O9B O 0.4082(6) 0.9956(3) -0.3020(6)
O10B O 0.7008(5) 1.0466(2) -0.2900(4)
O11B O 0.3960(4) 1.06569(18) -0.0776(4)
O12B O 0.3502(4) 0.98793(19) 0.0359(4)
C1B C 0.4179(5) 1.2852(3) -0.4340(5)
C2B C 0.4252(6) 1.2255(3) -0.3719(5)
C3B C 0.2871(6) 1.1942(3) -0.3737(5)
C4B C 0.1557(5) 1.2233(3) -0.4407(5)
C5B C 0.1498(5) 1.2823(3) -0.5028(5)
C6B C 0.2870(6) 1.3134(3) -0.5020(5)
C7B C 0.5518(7) 1.3169(3) -0.4281(7)
C8B C 0.0246(6) 1.1916(3) -0.4441(7)
C9B C 0.6916(8) 1.3466(5) -0.5421(8)
H1B H 0.6900 1.3418 -0.6266
H2B H 0.6900 1.3917 -0.5229
H3B H 0.7767 1.3273 -0.4821
C10B C -0.1452(8) 1.1833(5) -0.3509(9)
H4B H -0.1654 1.2019 -0.2823
H5B H -0.2237 1.1911 -0.4299
H6B H -0.1314 1.1376 -0.3376
C11B C 0.3691(13) 0.8687(6) -0.2534(10)
H7B H 0.3263 0.9044 -0.2275
H8B H 0.2961 0.8398 -0.3053
H9B H 0.4318 0.8461 -0.1794
C12B C 0.5179(12) 0.8453(5) -0.3725(10)
H10B H 0.5658 0.8666 -0.4197
H11B H 0.5861 0.8220 -0.3027
H12B H 0.4487 0.8157 -0.4272
C13B C 0.4610(9) 0.9527(4) -0.3436(9)
C14B C 0.8500(10) 0.9816(7) -0.4115(8)
H13B H 0.7535 0.9964 -0.4517
H14B H 0.9074 1.0015 -0.4515
H15B H 0.8527 0.9355 -0.4200
C15B C 1.0501(8) 0.9791(6) -0.2049(9)
H16B H 1.0764 0.9929 -0.1183
H17B H 1.0575 0.9330 -0.2073
H18B H 1.1126 0.9985 -0.2401
C16B C 0.8254(8) 1.0281(3) -0.2311(7)
H19B H 0.8651 1.0366 -0.1442
C17B C 0.4266(5) 1.0157(3) -0.0119(5)
N1B N 0.4482(7) 0.8920(3) -0.3247(5)
N2B N 0.9044(6) 0.9985(3) -0.2788(6)
loop_
_geom_bond_atom_site_label_1
_geom_bond_atom_site_label_2
_geom_bond_site_symmetry_1
_geom_bond_site_symmetry_2
Bi1 O1 1_555 1_555
O1 C2 1_555 1_555
O2 Bi1 1_555 1_555
O3 C5 1_555 1_555
O4 C6 1_555 1_555
O5 C8 1_555 1_555
O6 C8 1_555 1_555
O7 C7 1_555 1_555
O8 C7 1_555 1_555
O9 Bi1 1_555 1_555
O10 Bi1 1_555 1_555
O11 Bi1 1_555 1_555
O12 C17 1_555 1_555
C1 C2 1_555 1_555
C2 C3 1_555 1_555
C3 O2 1_555 1_555
C4 C3 1_555 1_555
C5 C4 1_555 1_555
C6 C1 1_555 1_555
C7 C1 1_555 1_555
C8 C4 1_555 1_555
C9 O8 1_555 1_555
H1 C9 1_555 1_555
H2 C9 1_555 1_555
H3 C9 1_555 1_555
C10 O6 1_555 1_555
H4 C10 1_555 1_555
H5 C10 1_555 1_555
H6 C10 1_555 1_555
C11 H7 1_555 1_555
H8 C11 1_555 1_555
H9 C11 1_555 1_555
C12 H10 1_555 1_555
H11 C12 1_555 1_555
H12 C12 1_555 1_555
C13 O9 1_555 1_555
C14 H13 1_555 1_555
H14 C14 1_555 1_555
H15 C14 1_555 1_555
C15 H16 1_555 1_555
H17 C15 1_555 1_555
H18 C15 1_555 1_555
C16 O10 1_555 1_555
H19 C16 1_555 1_555
C17 O11 1_555 1_555
N1 C11 1_555 1_555
N2 C14 1_555 1_555
Bi1C O3 1_555 1_555
Bi1B O12 1_555 1_555
Bi1A O3B 1_555 1_555
O1B Bi1B 1_555 1_555
O2B Bi1B 1_555 1_555
O3C Bi1 1_555 1_555
O3A Bi1B 1_555 1_555
O3B C5B 1_555 1_555
O4C Bi1 1_555 1_555
O4A Bi1B 1_555 1_555
O4B Bi1A 1_555 1_555
O5B C8B 1_555 1_555
O6B C8B 1_555 1_555
O7B C7B 1_555 1_555
O8B C7B 1_555 1_555
O9B Bi1B 1_555 1_555
O10B Bi1B 1_555 1_555
O11B Bi1B 1_555 1_555
O12B Bi1 1_555 1_555
C1B C2B 1_555 1_555
C2B O1B 1_555 1_555
C3B O2B 1_555 1_555
C4B C3B 1_555 1_555
C5B C4B 1_555 1_555
C6B O4B 1_555 1_555
C7B C1B 1_555 1_555
C8B C4B 1_555 1_555
C9B O8B 1_555 1_555
H1B C9B 1_555 1_555
H2B C9B 1_555 1_555
H3B C9B 1_555 1_555
C10B O6B 1_555 1_555
H4B C10B 1_555 1_555
H5B C10B 1_555 1_555
H6B C10B 1_555 1_555
C11B H7B 1_555 1_555
H8B C11B 1_555 1_555
H9B C11B 1_555 1_555
C12B H10B 1_555 1_555
H11B C12B 1_555 1_555
H12B C12B 1_555 1_555
C13B O9B 1_555 1_555
C14B H13B 1_555 1_555
H14B C14B 1_555 1_555
H15B C14B 1_555 1_555
C15B H16B 1_555 1_555
H17B C15B 1_555 1_555
H18B C15B 1_555 1_555
C16B O10B 1_555 1_555
H19B C16B 1_555 1_555
C17B C17 1_555 1_555
N1B C11B 1_555 1_555
N2B C14B 1_555 1_555
O4 Bi1C 1_555 1_555
C5 C6 1_555 1_555
C12 N1 1_555 1_555
C13 N1 1_555 1_555
C15 N2 1_555 1_555
C16 N2 1_555 1_555
O11B C17B 1_555 1_555
O12B C17B 1_555 1_555
C1B C6B 1_555 1_555
C2B C3B 1_555 1_555
C5B C6B 1_555 1_555
C12B N1B 1_555 1_555
C13B N1B 1_555 1_555
C15B N2B 1_555 1_555
C16B N2B 1_555 1_555

#END
