
#######################################################################
#
#                 Cambridge Crystallographic Data Centre
#                                CCDC 
#
#######################################################################
#
# If this CIF has been generated from an entry in the Cambridge 
# Structural Database, then it will include bibliographic, chemical, 
# crystal, experimental, refinement or atomic coordinate data resulting 
# from the CCDC's data processing and validation procedures.
#
#######################################################################

data_NATBIT
_symmetry_cell_setting           triclinic
_symmetry_space_group_name_H-M   'P -1'
_symmetry_Int_Tables_number      2
_space_group_name_Hall           '-P 1'
loop_
_symmetry_equiv_pos_site_id
_symmetry_equiv_pos_as_xyz
1 x,y,z
2 -x,-y,-z
_cell_length_a                   7.524(2)
_cell_length_b                   9.016(2)
_cell_length_c                   10.106(5)
_cell_angle_alpha                105.13(3)
_cell_angle_beta                 95.90(3)
_cell_angle_gamma                109.90(2)
_cell_volume                     608.247
loop_
_atom_site_label
_atom_site_type_symbol
_atom_site_fract_x
_atom_site_fract_y
_atom_site_fract_z
Fe1 Fe 1.0000 0.5000 0.5000
Cl1 Cl 0.6305(4) 0.3844(3) 0.6726(3)
O1 O 0.8048(9) 0.3870(9) 0.6256(7)
O2 O 0.6548(13) 0.3933(11) 0.8131(8)
O3 O 0.4795(12) 0.2365(11) 0.5898(10)
O4 O 0.5987(14) 0.5268(12) 0.6589(10)
O5 O 0.8655(9) 0.6584(7) 0.4633(6)
N1 N 0.8153(10) 0.3062(9) 0.3113(7)
C1 C 0.8051(13) 0.3343(12) 0.1885(10)
C2 C 0.6832(13) 0.2206(11) 0.0658(10)
C3 C 0.5640(11) 0.0637(10) 0.0644(8)
C4 C 0.5769(13) 0.0328(12) 0.1916(9)
C5 C 0.7035(13) 0.1528(11) 0.3093(10)
H1 H 0.8854(13) 0.4372(12) 0.1854(10)
H2 H 0.6805(13) 0.2488(11) -0.0164(10)
H3 H 0.4994(13) -0.0696(12) 0.1974(9)
H4 H 0.7123(13) 0.1266(11) 0.3922(10)
O1A O 1.1952(9) 0.6130(9) 0.3744(7)
Cl1A Cl 1.3695(4) 0.6156(3) 0.3274(3)
O2A O 1.3452(13) 0.6067(11) 0.1869(8)
O3A O 1.5205(12) 0.7635(11) 0.4102(10)
O4A O 1.4013(14) 0.4732(12) 0.3411(10)
O5A O 1.1345(9) 0.3416(7) 0.5367(6)
C3A C 0.4360(11) -0.0637(10) -0.0644(8)
C2A C 0.3168(13) -0.2206(11) -0.0658(10)
C1A C 0.1949(13) -0.3343(12) -0.1885(10)
N1A N 0.1847(10) -0.3062(9) -0.3113(7)
Fe1A Fe 0.0000 -0.5000 -0.5000
C5A C 0.2965(13) -0.1528(11) -0.3093(10)
C4A C 0.4231(13) -0.0328(12) -0.1916(9)
H3A H 0.5006(13) 0.0696(12) -0.1974(9)
H4A H 0.2877(13) -0.1266(11) -0.3922(10)
H1A H 0.1146(13) -0.4372(12) -0.1854(10)
H2A H 0.3195(13) -0.2488(11) 0.0164(10)
N1A_2 N 1.1847(10) 0.6938(9) 0.6887(7)
N2 N 0.9210(12) -0.2010(11) 0.2592(9)
C6 C 1.055(2) -0.0510(14) 0.2885(12)
C7 C 1.093(2) 0.0334(13) 0.1894(11)
C8 C 0.9843(13) -0.0418(11) 0.0544(9)
C9 C 0.846(2) -0.1977(13) 0.0255(11)
C10 C 0.821(2) -0.2703(14) 0.1302(11)
H5 H 1.129(2) 0.0016(14) 0.3794(12)
H6 H 1.189(2) 0.1390(13) 0.2146(11)
H7 H 0.770(2) -0.2545(13) -0.0642(11)
H8 H 0.726(2) -0.3764(14) 0.1073(11)
C8A C 1.0157(13) 0.0418(11) -0.0544(9)
C7A C 0.907(2) -0.0334(13) -0.1894(11)
C6A C 0.945(2) 0.0510(14) -0.2885(12)
N2A N 1.0790(12) 0.2010(11) -0.2592(9)
C10A C 1.179(2) 0.2703(14) -0.1302(11)
C9A C 1.154(2) 0.1977(13) -0.0255(11)
H7A H 1.230(2) 0.2545(13) 0.0642(11)
H8A H 1.274(2) 0.3764(14) -0.1073(11)
H5A H 0.871(2) -0.0016(14) -0.3794(12)
H6A H 0.811(2) -0.1390(13) -0.2146(11)
loop_
_geom_bond_atom_site_label_1
_geom_bond_atom_site_label_2
_geom_bond_site_symmetry_1
_geom_bond_site_symmetry_2
Fe1 O1 1_555 1_555
Cl1 O1 1_555 1_555
O2 Cl1 1_555 1_555
O3 Cl1 1_555 1_555
O4 Cl1 1_555 1_555
O5 Fe1 1_555 1_555
N1 Fe1 1_555 1_555
C1 N1 1_555 1_555
C2 C1 1_555 1_555
C3 C2 1_555 1_555
C4 C3 1_555 1_555
C5 N1 1_555 1_555
N2 C6 1_555 1_555
C6 C7 1_555 1_555
C7 C8 1_555 1_555
C8 C9 1_555 1_555
C9 C10 1_555 1_555
C10 N2 1_555 1_555
H1 C1 1_555 1_555
H2 C2 1_555 1_555
H3 C4 1_555 1_555
H4 C5 1_555 1_555
H5 C6 1_555 1_555
H6 C7 1_555 1_555
H7 C9 1_555 1_555
H8 C10 1_555 1_555
O1A Fe1 1_555 1_555
Cl1A O1A 1_555 1_555
O2A Cl1A 1_555 1_555
O3A Cl1A 1_555 1_555
O4A Cl1A 1_555 1_555
O5A Fe1 1_555 1_555
C3A C3 1_555 1_555
C2A C3A 1_555 1_555
C1A C2A 1_555 1_555
N1A C1A 1_555 1_555
Fe1A N1A 1_555 1_555
C5A N1A 1_555 1_555
C4A C3A 1_555 1_555
H3A C4A 1_555 1_555
H4A C5A 1_555 1_555
H1A C1A 1_555 1_555
H2A C2A 1_555 1_555
N1A_2 Fe1 1_555 1_555
C8A C8 1_555 1_555
C7A C8A 1_555 1_555
C6A C7A 1_555 1_555
N2A C6A 1_555 1_555
C10A N2A 1_555 1_555
C9A C8A 1_555 1_555
H7A C9A 1_555 1_555
H8A C10A 1_555 1_555
H5A C6A 1_555 1_555
H6A C7A 1_555 1_555
C4 C5 1_555 1_555
C5A C4A 1_555 1_555
C10A C9A 1_555 1_555

#END
