
#######################################################################
#
#                 Cambridge Crystallographic Data Centre
#                                CCDC 
#
#######################################################################
#
# If this CIF has been generated from an entry in the Cambridge 
# Structural Database, then it will include bibliographic, chemical, 
# crystal, experimental, refinement or atomic coordinate data resulting 
# from the CCDC's data processing and validation procedures.
#
#######################################################################

data_NATCER
_symmetry_cell_setting           monoclinic
_symmetry_space_group_name_H-M   'P 21'
_symmetry_Int_Tables_number      4
_space_group_name_Hall           'P 2yb'
loop_
_symmetry_equiv_pos_site_id
_symmetry_equiv_pos_as_xyz
1 x,y,z
2 -x,1/2+y,-z
_cell_length_a                   9.9906(8)
_cell_length_b                   7.2954(6)
_cell_length_c                   10.2946(9)
_cell_angle_alpha                90
_cell_angle_beta                 91.8930(10)
_cell_angle_gamma                90
_cell_volume                     749.917
loop_
_atom_site_label
_atom_site_type_symbol
_atom_site_fract_x
_atom_site_fract_y
_atom_site_fract_z
Zn1 Zn -0.29785(2) 0.51252(6) -0.262340(19)
N1 N -0.11715(19) 0.5412(3) -0.14051(18)
N2 N -0.37139(17) 0.4987(5) -0.07077(17)
O1 O -0.2898(2) -0.1897(4) -0.3154(2)
O2 O -0.1898(2) -0.3988(3) -0.42866(19)
O3 O -0.49418(19) 0.4869(4) -0.33809(19)
O4 O -0.2533(2) 0.2476(3) -0.3082(2)
C1 C 0.0089(2) 0.5569(4) -0.1766(3)
H1 H 0.0268 0.5550 -0.2646
C2 C 0.1153(3) 0.5762(5) -0.0860(4)
H2 H 0.2022 0.5867 -0.1147
C3 C 0.0934(3) 0.5797(5) 0.0421(4)
H3 H 0.1646 0.5937 0.1018
C4 C -0.0381(3) 0.5619(4) 0.0847(3)
C5 C -0.0741(4) 0.5593(5) 0.2183(3)
H4 H -0.0074 0.5744 0.2826
C6 C -0.2006(4) 0.5357(10) 0.2532(2)
H5 H -0.2198 0.5329 0.3410
C7 C -0.3069(3) 0.5146(7) 0.1581(2)
C8 C -0.4411(4) 0.4824(6) 0.1878(3)
H6 H -0.4657 0.4766 0.2740
C9 C -0.5349(3) 0.4597(5) 0.0908(3)
H7 H -0.6238 0.4379 0.1101
C10 C -0.4972(3) 0.4691(4) -0.0374(3)
H8 H -0.5626 0.4541 -0.1029
C11 C -0.2765(2) 0.5198(5) 0.02570(19)
C12 C -0.1405(2) 0.5424(4) -0.0120(2)
C13 C -0.2961(3) 0.1743(4) -0.4126(3)
C14 C -0.1933(3) 0.0820(5) -0.4922(3)
H9 H -0.1480 0.1573 -0.5489
C15 C -0.1589(3) -0.0917(5) -0.4924(3)
H10 H -0.0937 -0.1286 -0.5493
C16 C -0.2180(3) -0.2336(4) -0.4068(2)
H11 H -0.519(4) 0.559(6) -0.399(4)
O5 O -0.4128(2) 0.1849(4) -0.4582(2)
H12 H -0.476(5) 0.391(7) -0.380(5)
Zn1_2 Zn -0.29785(2) -0.48748(6) -0.262340(19)
O1_2 O -0.2898(2) 0.8103(4) -0.3154(2)
O2_2 O -0.1898(2) 0.6012(3) -0.42866(19)
loop_
_geom_bond_atom_site_label_1
_geom_bond_atom_site_label_2
_geom_bond_site_symmetry_1
_geom_bond_site_symmetry_2
Zn1 N1 1_555 1_555
N1 C1 1_555 1_555
N2 Zn1 1_555 1_555
O1 C16 1_555 1_555
O2 C16 1_555 1_555
O3 Zn1 1_555 1_555
O4 Zn1 1_555 1_555
C1 H1 1_555 1_555
C2 C1 1_555 1_555
H2 C2 1_555 1_555
C3 C2 1_555 1_555
H3 C3 1_555 1_555
C4 C3 1_555 1_555
C5 C4 1_555 1_555
H4 C5 1_555 1_555
C6 C5 1_555 1_555
H5 C6 1_555 1_555
C7 C6 1_555 1_555
C8 C7 1_555 1_555
H6 C8 1_555 1_555
C9 C8 1_555 1_555
H7 C9 1_555 1_555
C10 N2 1_555 1_555
H8 C10 1_555 1_555
C11 N2 1_555 1_555
C12 N1 1_555 1_555
C13 O4 1_555 1_555
C14 C13 1_555 1_555
H9 C14 1_555 1_555
C15 C14 1_555 1_555
H10 C15 1_555 1_555
C16 C15 1_555 1_555
H11 O3 1_555 1_555
O5 C13 1_555 1_555
H12 O3 1_555 1_555
Zn1_2 O1 1_555 1_555
O1_2 Zn1 1_555 1_555
O2_2 Zn1 1_555 1_555
O2 Zn1_2 1_555 1_555
C4 C12 1_555 1_555
C7 C11 1_555 1_555
C9 C10 1_555 1_555
C11 C12 1_555 1_555

#END
