
#######################################################################
#
#                 Cambridge Crystallographic Data Centre
#                                CCDC 
#
#######################################################################
#
# If this CIF has been generated from an entry in the Cambridge 
# Structural Database, then it will include bibliographic, chemical, 
# crystal, experimental, refinement or atomic coordinate data resulting 
# from the CCDC's data processing and validation procedures.
#
#######################################################################

data_NATETZ01
_symmetry_cell_setting           orthorhombic
_symmetry_space_group_name_H-M   'P m m a'
_symmetry_Int_Tables_number      51
_space_group_name_Hall           '-P 2a 2a'
loop_
_symmetry_equiv_pos_site_id
_symmetry_equiv_pos_as_xyz
1 x,y,z
2 1/2-x,-y,z
3 1/2+x,-y,-z
4 -x,y,-z
5 -x,-y,-z
6 1/2+x,y,-z
7 1/2-x,y,z
8 x,-y,z
_cell_length_a                   6.3995(16)
_cell_length_b                   5.8374(14)
_cell_length_c                   5.6083(15)
_cell_angle_alpha                90
_cell_angle_beta                 90
_cell_angle_gamma                90
_cell_volume                     209.506
loop_
_atom_site_label
_atom_site_type_symbol
_atom_site_fract_x
_atom_site_fract_y
_atom_site_fract_z
Na1 Na 0.5000 0.0000 0.0000
O1 O 0.2500 0.0000 0.3170(2)
N1 N 0.7500 0.38841(18) 0.36543(17)
N2 N 0.7500 0.31090(18) 0.13840(18)
C1 C 0.7500 0.5000 0.0068(3)
H1 H 0.7500 0.5000 -0.155(5)
H2 H 0.2500 0.110(3) 0.402(4)
Na1E Na 0.0000 0.0000 0.0000
Na1E_2 Na 1.0000 0.0000 0.0000
Na1_2 Na 0.5000 1.0000 0.0000
Na1E_3 Na 1.0000 1.0000 0.0000
O1E O 0.7500 0.0000 -0.3170(2)
N1G N 0.7500 0.61159(18) 0.36543(17)
N2G N 0.7500 0.68910(18) 0.13840(18)
N2E N 0.2500 0.31090(18) -0.13840(18)
N2G_2 N 0.7500 -0.31090(18) 0.13840(18)
N2D N 0.2500 -0.31090(18) -0.13840(18)
H2G H 0.2500 -0.110(3) 0.402(4)
H2E H 0.7500 0.110(3) -0.402(4)
H2D H 0.7500 -0.110(3) -0.402(4)
loop_
_geom_bond_atom_site_label_1
_geom_bond_atom_site_label_2
_geom_bond_site_symmetry_1
_geom_bond_site_symmetry_2
Na1 O1 1_555 1_555
O1 H2 1_555 1_555
N1 N2 1_555 1_555
N2 Na1 1_555 1_555
C1 N2 1_555 1_555
H1 C1 1_555 1_555
Na1E O1 1_555 1_555
Na1E_2 N2 1_555 1_555
Na1_2 N2G 1_555 1_555
Na1E_3 N2G 1_555 1_555
O1E Na1 1_555 1_555
N1G N1 1_555 1_555
N2G C1 1_555 1_555
N2E Na1 1_555 1_555
N2G_2 Na1 1_555 1_555
N2D Na1 1_555 1_555
H2G O1 1_555 1_555
H2E O1E 1_555 1_555
H2D O1E 1_555 1_555
Na1E N2E 1_555 1_555
Na1E N2D 1_555 1_555
Na1E_2 O1E 1_555 1_555
Na1E_2 N2G_2 1_555 1_555
N1G N2G 1_555 1_555

#END
