
#######################################################################
#
#                 Cambridge Crystallographic Data Centre
#                                CCDC 
#
#######################################################################
#
# If this CIF has been generated from an entry in the Cambridge 
# Structural Database, then it will include bibliographic, chemical, 
# crystal, experimental, refinement or atomic coordinate data resulting 
# from the CCDC's data processing and validation procedures.
#
#######################################################################

data_NATETZ02
_symmetry_cell_setting           orthorhombic
_symmetry_space_group_name_H-M   'P m c 21'
_symmetry_Int_Tables_number      26
_space_group_name_Hall           'P 2c -2'
loop_
_symmetry_equiv_pos_site_id
_symmetry_equiv_pos_as_xyz
1 x,y,z
2 -x,-y,1/2+z
3 x,-y,1/2+z
4 -x,y,z
_cell_length_a                   5.847(4)
_cell_length_b                   5.605(3)
_cell_length_c                   6.387(4)
_cell_angle_alpha                90
_cell_angle_beta                 90
_cell_angle_gamma                90
_cell_volume                     209.318
loop_
_atom_site_label
_atom_site_type_symbol
_atom_site_fract_x
_atom_site_fract_y
_atom_site_fract_z
Na1 Na 1.0000 0.5008(9) 0.6694(2)
O1 O 1.0000 0.81651(19) 0.4188(17)
N1 N 0.68934(14) 0.63851(14) 0.9187(13)
N2 N 0.61165(14) 0.86604(14) 0.9199(15)
C1 C 0.5000 0.5067(3) 0.9149(18)
H1 H 0.5000 0.3373 0.9101
H2 H 0.893(3) 0.905(3) 0.387(5)
H2C H 1.107(3) 0.905(3) 0.387(5)
N1C N 0.31066(14) 0.63851(14) 0.9187(13)
N2C N 0.38835(14) 0.86604(14) 0.9199(15)
Na1_2 Na 0.0000 0.5008(9) 0.6694(2)
Na1A Na 0.0000 0.4992(9) 1.1694(2)
Na1A_2 Na 1.0000 0.4992(9) 0.1694(2)
Na1A_3 Na 1.0000 0.4992(9) 1.1694(2)
O1A O 1.0000 0.18349(19) 0.9188(17)
N1A N 1.31066(14) 0.36149(14) 0.4187(13)
N1B N 0.68934(14) 0.36149(14) 0.4187(13)
N1C_2 N 1.31066(14) 0.63851(14) 0.9187(13)
loop_
_geom_bond_atom_site_label_1
_geom_bond_atom_site_label_2
_geom_bond_site_symmetry_1
_geom_bond_site_symmetry_2
Na1 O1 1_555 1_555
O1 H2 1_555 1_555
N1 Na1 1_555 1_555
N2 N1 1_555 1_555
C1 N1 1_555 1_555
H1 C1 1_555 1_555
H2C O1 1_555 1_555
N1C C1 1_555 1_555
N2C N2 1_555 1_555
Na1_2 N1C 1_555 1_555
Na1A N1C 1_555 1_555
Na1A_2 O1 1_555 1_555
Na1A_3 N1 1_555 1_555
O1A Na1 1_555 1_555
N1A Na1 1_555 1_555
N1B Na1 1_555 1_555
N1C_2 Na1 1_555 1_555
N1C N2C 1_555 1_555
Na1A_2 N1A 1_555 1_555
Na1A_2 N1B 1_555 1_555
Na1A_3 O1A 1_555 1_555
Na1A_3 N1C_2 1_555 1_555

#END
