
#######################################################################
#
#                 Cambridge Crystallographic Data Centre
#                                CCDC 
#
#######################################################################
#
# If this CIF has been generated from an entry in the Cambridge 
# Structural Database, then it will include bibliographic, chemical, 
# crystal, experimental, refinement or atomic coordinate data resulting 
# from the CCDC's data processing and validation procedures.
#
#######################################################################

data_NATGAR
_symmetry_cell_setting           monoclinic
_symmetry_space_group_name_H-M   'P 21/c'
_symmetry_Int_Tables_number      14
_space_group_name_Hall           '-P 2ybc'
loop_
_symmetry_equiv_pos_site_id
_symmetry_equiv_pos_as_xyz
1 x,y,z
2 -x,1/2+y,1/2-z
3 -x,-y,-z
4 x,1/2-y,1/2+z
_cell_length_a                   14.3102(8)
_cell_length_b                   7.6342(4)
_cell_length_c                   18.5783(10)
_cell_angle_alpha                90
_cell_angle_beta                 107.6370(10)
_cell_angle_gamma                90
_cell_volume                     1934.22
loop_
_atom_site_label
_atom_site_type_symbol
_atom_site_fract_x
_atom_site_fract_y
_atom_site_fract_z
Co1 Co 0.27886(4) 0.07942(7) 0.20241(3)
S1 S 0.35080(7) 0.02073(13) 0.66187(5)
N1 N 0.2302(3) 0.0600(5) 0.0823(2)
N2 N 0.1422(3) 0.2095(5) 0.1747(2)
O1 O 0.3189(3) 0.1193(4) 0.31668(17)
O2 O 0.2561(3) -0.1036(5) 0.36378(18)
O3 O 0.4614(3) 0.2985(5) 0.40386(18)
O4 O 0.4250(2) -0.1049(4) 0.70334(17)
O5 O 0.2545(2) -0.0571(4) 0.63356(16)
O6 O 0.3550(2) 0.1756(4) 0.70790(16)
O7 O 0.4068(2) -0.0418(4) 0.2064(2)
O8 O 0.2052(2) -0.1601(4) 0.21349(18)
C1 C 0.2747(4) -0.0182(7) 0.0378(3)
H1 H 0.3355 -0.0703 0.0596
C2 C 0.2333(4) -0.0250(8) -0.0406(3)
H2 H 0.2659 -0.0811 -0.0705
C3 C 0.1444(4) 0.0518(8) -0.0728(3)
H3 H 0.1160 0.0469 -0.1248
C4 C 0.0959(4) 0.1370(7) -0.0287(3)
C5 C 0.0012(4) 0.2183(8) -0.0563(3)
H4 H -0.0304 0.2190 -0.1081
C6 C -0.0433(4) 0.2933(8) -0.0102(4)
H5 H -0.1044 0.3454 -0.0304
C7 C 0.0023(3) 0.2940(7) 0.0699(3)
C8 C -0.0411(4) 0.3654(8) 0.1214(4)
H6 H -0.1024 0.4183 0.1042
C9 C 0.0063(4) 0.3573(9) 0.1961(4)
H7 H -0.0223 0.4035 0.2307
C10 C 0.0990(4) 0.2783(8) 0.2210(3)
H8 H 0.1313 0.2746 0.2726
C11 C 0.1427(3) 0.1377(6) 0.0505(2)
C12 C 0.0948(3) 0.2175(6) 0.0996(3)
C13 C 0.3070(3) 0.0305(6) 0.3710(2)
C14 C 0.3606(3) 0.0970(5) 0.4488(2)
C15 C 0.4350(3) 0.2231(6) 0.4601(2)
C16 C 0.4864(3) 0.2759(6) 0.5337(2)
H9 H 0.5378 0.3553 0.5415
C17 C 0.4615(3) 0.2118(6) 0.5942(2)
H10 H 0.4958 0.2481 0.6428
C18 C 0.3853(3) 0.0926(5) 0.5831(2)
C19 C 0.3366(3) 0.0331(5) 0.5110(2)
H11 H 0.2874 -0.0505 0.5042
H12 H 0.414(3) -0.1515(16) 0.205(3)
H13 H 0.224(4) -0.252(4) 0.197(2)
H14 H 0.220(4) -0.169(6) 0.2612(7)
H15 H 0.460(2) 0.003(5) 0.234(3)
H16 H 0.419(3) 0.262(7) 0.3645(19)
Co1C Co 0.27886(4) 0.42058(7) 0.70241(3)
O6C O 0.3550(2) 0.3244(4) 0.20790(16)
loop_
_geom_bond_atom_site_label_1
_geom_bond_atom_site_label_2
_geom_bond_site_symmetry_1
_geom_bond_site_symmetry_2
Co1 N1 1_555 1_555
S1 O4 1_555 1_555
N1 C1 1_555 1_555
N2 Co1 1_555 1_555
O1 Co1 1_555 1_555
O2 C13 1_555 1_555
O3 C15 1_555 1_555
O5 S1 1_555 1_555
O6 S1 1_555 1_555
O7 Co1 1_555 1_555
O8 Co1 1_555 1_555
C1 H1 1_555 1_555
C2 C1 1_555 1_555
H2 C2 1_555 1_555
C3 C2 1_555 1_555
H3 C3 1_555 1_555
C4 C3 1_555 1_555
C5 C4 1_555 1_555
H4 C5 1_555 1_555
C6 C5 1_555 1_555
H5 C6 1_555 1_555
C7 C6 1_555 1_555
C8 C7 1_555 1_555
H6 C8 1_555 1_555
C9 C8 1_555 1_555
H7 C9 1_555 1_555
C10 N2 1_555 1_555
H8 C10 1_555 1_555
C11 N1 1_555 1_555
C12 N2 1_555 1_555
C13 O1 1_555 1_555
C14 C13 1_555 1_555
C15 C14 1_555 1_555
C16 C15 1_555 1_555
H9 C16 1_555 1_555
C17 C16 1_555 1_555
H10 C17 1_555 1_555
C18 S1 1_555 1_555
C19 C14 1_555 1_555
H11 C19 1_555 1_555
H12 O7 1_555 1_555
H13 O8 1_555 1_555
H14 O8 1_555 1_555
H15 O7 1_555 1_555
H16 O3 1_555 1_555
Co1C O6 1_555 1_555
O6C Co1 1_555 1_555
C4 C11 1_555 1_555
C7 C12 1_555 1_555
C9 C10 1_555 1_555
C11 C12 1_555 1_555
C17 C18 1_555 1_555
C18 C19 1_555 1_555

#END
