
#######################################################################
#
#                 Cambridge Crystallographic Data Centre
#                                CCDC 
#
#######################################################################
#
# If this CIF has been generated from an entry in the Cambridge 
# Structural Database, then it will include bibliographic, chemical, 
# crystal, experimental, refinement or atomic coordinate data resulting 
# from the CCDC's data processing and validation procedures.
#
#######################################################################

data_NATKOJ
_symmetry_cell_setting           hexagonal
_symmetry_space_group_name_H-M   'P 65 2 2'
_symmetry_Int_Tables_number      179
_space_group_name_Hall           "P 65 2' (0,0,1)"
loop_
_symmetry_equiv_pos_site_id
_symmetry_equiv_pos_as_xyz
1 x,y,z
2 -y,x-y,2/3+z
3 -x+y,-x,1/3+z
4 -x,-y,1/2+z
5 y,-x+y,1/6+z
6 x-y,x,5/6+z
7 y,x,2/3-z
8 x-y,-y,-z
9 -x,-x+y,1/3-z
10 -y,-x,1/6-z
11 -x+y,y,1/2-z
12 x,x-y,5/6-z
_cell_length_a                   12.5718(17)
_cell_length_b                   12.5718(17)
_cell_length_c                   60.364(19)
_cell_angle_alpha                90
_cell_angle_beta                 90
_cell_angle_gamma                120
_cell_volume                     8262.35
loop_
_atom_site_label
_atom_site_type_symbol
_atom_site_fract_x
_atom_site_fract_y
_atom_site_fract_z
Eu1 Eu 0.52711(10) 0.09896(11) 0.162882(17)
Na1 Na 0.4159(8) -0.2006(7) 0.13180(13)
O1 O 0.4957(17) -0.1668(15) 0.0972(2)
H1 H 0.4479 -0.2399 0.0883
H2 H 0.5801 -0.1491 0.0980
N1 N 0.7269(16) 0.2576(15) 0.1439(2)
C1 C 0.7639(15) 0.2206(16) 0.1264(3)
C2 C 0.864(2) 0.294(2) 0.1143(4)
H3 H 0.8831 0.2634 0.1017
C3 C 0.9379(19) 0.416(2) 0.1208(4)
H4 H 1.0102 0.4676 0.1129
C4 C 0.904(2) 0.459(2) 0.1386(3)
H5 H 0.9518 0.5413 0.1431
C5 C 0.800(2) 0.378(2) 0.1498(4)
H6 H 0.7763 0.4077 0.1621
C6 C 0.6843(18) 0.086(2) 0.1218(4)
O2 O 0.5980(11) 0.0216(10) 0.13423(18)
O3 O 0.7123(12) 0.0428(12) 0.1048(2)
N2 N 0.4664(15) 0.1660(15) 0.1256(2)
C7 C 0.4811(17) 0.2809(17) 0.1248(3)
C8 C 0.462(2) 0.330(2) 0.1060(3)
H7 H 0.4716 0.4089 0.1062
C9 C 0.428(2) 0.260(2) 0.0866(4)
H8 H 0.4183 0.2942 0.0734
C10 C 0.409(2) 0.142(2) 0.0865(4)
H9 H 0.3830 0.0928 0.0737
C11 C 0.4305(19) 0.096(2) 0.1072(4)
H10 H 0.4193 0.0165 0.1077
C12 C 0.5107(18) 0.3433(18) 0.1467(3)
O4 O 0.4785(11) -0.0726(12) 0.18666(18)
O5 O 0.5157(12) 0.2875(12) 0.1634(2)
N3 N 0.3215(17) 0.0304(15) 0.1833(2)
C13 C 0.2244(19) -0.0761(17) 0.1769(3)
C14 C 0.116(2) -0.131(2) 0.1890(3)
H11 H 0.0485 -0.2046 0.1840
C15 C 0.107(2) -0.077(2) 0.2081(4)
H12 H 0.0332 -0.1140 0.2162
C16 C 0.206(2) 0.0312(19) 0.2152(4)
H13 H 0.2030 0.0681 0.2286
C17 C 0.311(2) 0.085(2) 0.2016(4)
H14 H 0.3769 0.1620 0.2055
C18 C 0.241(2) -0.127(2) 0.1567(4)
O6 O 0.3499(11) -0.0742(11) 0.14739(19)
O7 O 0.1585(13) -0.2260(15) 0.1499(3)
N4 N 0.7234(15) 0.0930(16) 0.1804(2)
C19 C 0.7620(19) 0.1491(18) 0.2004(4)
C20 C 0.8446(18) 0.136(2) 0.2134(4)
H15 H 0.8672 0.1722 0.2275
C21 C 0.892(3) 0.068(3) 0.2049(4)
H16 H 0.9516 0.0602 0.2131
C22 C 0.855(2) 0.010(2) 0.1846(4)
H17 H 0.8844 -0.0401 0.1791
C23 C 0.7732(19) 0.0290(19) 0.1730(3)
H18 H 0.7507 -0.0057 0.1588
C24 C 0.701(3) 0.225(2) 0.2062(4)
O8 O 0.6130(14) 0.2140(12) 0.1948(2)
O9 O 0.7515(17) 0.2996(18) 0.2222(3)
Eu1H Eu 0.47289(10) 0.57185(15) 0.170451(17)
Eu1H_2 Eu 0.47289(10) -0.42815(15) 0.170451(17)
Na1H Na 0.5841(8) 0.3835(11) 0.20153(13)
Na1H_2 Na 0.5841(8) -0.6165(11) 0.20153(13)
O1H O 0.5043(17) 0.3375(23) 0.2361(2)
H1H H 0.5521 0.3122 0.2450
H2H H 0.4199 0.2708 0.2353
N1H N 0.2731(16) -0.4693(22) 0.1894(2)
C1H C 0.2361(15) -0.5433(22) 0.2069(3)
C2H C 0.136(2) -0.570(3) 0.2190(4)
H3H H 0.1169 -0.6197 0.2316
C3H C 0.0621(19) -0.5219(28) 0.2125(4)
H4H H -0.0102 -0.5426 0.2204
C4H C 0.096(2) -0.445(3) 0.1947(3)
H5H H 0.0482 -0.4105 0.1902
C5H C 0.200(2) -0.422(3) 0.1835(4)
H6H H 0.2237 -0.3686 0.1712
C6H C 0.3157(18) -0.5983(27) 0.2115(4)
O2H O 0.4020(11) 0.4236(15) 0.19910(18)
O2H_2 O 0.4020(11) -0.5764(15) 0.19910(18)
O3H O 0.2877(12) -0.6695(17) 0.2285(2)
N2H N 0.5336(15) -0.3004(21) 0.2077(2)
C7H C 0.5189(17) -0.2002(24) 0.2085(3)
C8H C 0.538(2) -0.132(3) 0.2273(3)
H7H H 0.5284 -0.0627 0.2271
C9H C 0.572(2) -0.168(3) 0.2467(4)
H8H H 0.5817 -0.1241 0.2599
C10H C 0.591(2) -0.267(3) 0.2468(4)
H9H H 0.6170 -0.2902 0.2596
C11H C 0.5695(19) -0.3345(28) 0.2261(4)
H10H H 0.5807 -0.4028 0.2256
C12H C 0.4893(18) -0.1674(25) 0.1866(3)
O4H O 0.5215(11) 0.4489(16) 0.14667(18)
O4H_2 O 0.5215(11) -0.5511(16) 0.14667(18)
O5H O 0.4843(12) -0.2282(17) 0.1699(2)
N3H N 0.6785(17) -0.2911(23) 0.1500(2)
C13H C 0.7756(19) -0.3005(25) 0.1564(3)
C14H C 0.884(2) -0.247(3) 0.1443(3)
H11H H 0.9515 -0.2531 0.1493
C15H C 0.893(2) -0.184(3) 0.1252(4)
H12H H 0.9668 -0.1472 0.1171
C16H C 0.794(2) -0.1748(28) 0.1181(4)
H13H H 0.7970 -0.1349 0.1047
C17H C 0.689(2) -0.226(3) 0.1317(4)
H14H H 0.6231 -0.2149 0.1278
C18H C 0.759(2) -0.368(3) 0.1766(4)
O6H O 0.6501(11) 0.5759(16) 0.18594(19)
O6H_2 O 0.6501(11) -0.4241(16) 0.18594(19)
O7H O 0.8415(13) -0.3845(20) 0.1834(3)
N4H N 0.2766(15) -0.6304(22) 0.1529(2)
C19H C 0.2380(19) -0.6129(26) 0.1329(4)
C20H C 0.1554(18) -0.7086(27) 0.1199(4)
H15H H 0.1328 -0.6950 0.1058
C21H C 0.108(3) -0.824(4) 0.1284(4)
H16H H 0.0484 -0.8914 0.1202
C22H C 0.145(2) -0.845(3) 0.1487(4)
H17H H 0.1156 -0.9245 0.1542
C23H C 0.2268(19) -0.7442(27) 0.1603(3)
H18H H 0.2493 -0.7564 0.1745
C24H C 0.299(3) -0.476(4) 0.1271(4)
O8H O 0.3870(14) -0.3990(18) 0.1385(2)
O9H O 0.2485(17) -0.4519(25) 0.1111(3)
O10 O 0.0753(10) 0.1507(19) 0.2500
O11 O 0.735(3) 0.574(4) 0.2710(5)
loop_
_geom_bond_atom_site_label_1
_geom_bond_atom_site_label_2
_geom_bond_site_symmetry_1
_geom_bond_site_symmetry_2
Eu1 N1 1_555 1_555
Na1 O1 1_555 1_555
O1 H1 1_555 1_555
H2 O1 1_555 1_555
N1 C1 1_555 1_555
C1 C2 1_555 1_555
C2 H3 1_555 1_555
C3 C2 1_555 1_555
H4 C3 1_555 1_555
C4 C3 1_555 1_555
H5 C4 1_555 1_555
C5 N1 1_555 1_555
H6 C5 1_555 1_555
C6 C1 1_555 1_555
O2 Eu1 1_555 1_555
O3 C6 1_555 1_555
N2 Eu1 1_555 1_555
C7 N2 1_555 1_555
C8 C7 1_555 1_555
H7 C8 1_555 1_555
C9 C8 1_555 1_555
H8 C9 1_555 1_555
C10 C9 1_555 1_555
H9 C10 1_555 1_555
C11 N2 1_555 1_555
H10 C11 1_555 1_555
C12 C7 1_555 1_555
O4 Eu1 1_555 1_555
O5 Eu1 1_555 1_555
N3 Eu1 1_555 1_555
C13 N3 1_555 1_555
C14 C13 1_555 1_555
H11 C14 1_555 1_555
C15 C14 1_555 1_555
H12 C15 1_555 1_555
C16 C15 1_555 1_555
H13 C16 1_555 1_555
C17 N3 1_555 1_555
H14 C17 1_555 1_555
C18 C13 1_555 1_555
O6 Eu1 1_555 1_555
O7 C18 1_555 1_555
N4 Eu1 1_555 1_555
C19 N4 1_555 1_555
C20 C19 1_555 1_555
H15 C20 1_555 1_555
C21 C20 1_555 1_555
H16 C21 1_555 1_555
C22 C21 1_555 1_555
H17 C22 1_555 1_555
C23 N4 1_555 1_555
H18 C23 1_555 1_555
C24 C19 1_555 1_555
O8 Eu1 1_555 1_555
O9 C24 1_555 1_555
Eu1H O2H 1_555 1_555
Eu1H_2 N1H 1_555 1_555
Na1H O5 1_555 1_555
Na1H_2 O2H_2 1_555 1_555
O1H Na1H 1_555 1_555
H1H O1H 1_555 1_555
H2H O1H 1_555 1_555
N1H C1H 1_555 1_555
C1H C2H 1_555 1_555
C2H H3H 1_555 1_555
C3H C2H 1_555 1_555
H4H C3H 1_555 1_555
C4H C3H 1_555 1_555
H5H C4H 1_555 1_555
C5H N1H 1_555 1_555
H6H C5H 1_555 1_555
C6H C1H 1_555 1_555
O2H Na1H 1_555 1_555
O2H_2 Eu1H_2 1_555 1_555
O3H C6H 1_555 1_555
N2H Eu1H_2 1_555 1_555
C7H N2H 1_555 1_555
C8H C7H 1_555 1_555
H7H C8H 1_555 1_555
C9H C8H 1_555 1_555
H8H C9H 1_555 1_555
C10H C9H 1_555 1_555
H9H C10H 1_555 1_555
C11H N2H 1_555 1_555
H10H C11H 1_555 1_555
C12H O4 1_555 1_555
O4H C12 1_555 1_555
O4H_2 Eu1H_2 1_555 1_555
O5H Na1 1_555 1_555
N3H Eu1H_2 1_555 1_555
C13H N3H 1_555 1_555
C14H C13H 1_555 1_555
H11H C14H 1_555 1_555
C15H C14H 1_555 1_555
H12H C15H 1_555 1_555
C16H C15H 1_555 1_555
H13H C16H 1_555 1_555
C17H N3H 1_555 1_555
H14H C17H 1_555 1_555
C18H C13H 1_555 1_555
O6H Eu1H 1_555 1_555
O6H_2 Eu1H_2 1_555 1_555
O7H C18H 1_555 1_555
N4H Eu1H_2 1_555 1_555
C19H N4H 1_555 1_555
C20H C19H 1_555 1_555
H15H C20H 1_555 1_555
C21H C20H 1_555 1_555
H16H C21H 1_555 1_555
C22H C21H 1_555 1_555
H17H C22H 1_555 1_555
C23H N4H 1_555 1_555
H18H C23H 1_555 1_555
C24H C19H 1_555 1_555
O8H Na1 1_555 1_555
O9H C24H 1_555 1_555
Na1 O2 1_555 1_555
Na1 O6 1_555 1_555
C4 C5 1_555 1_555
C6 O2 1_555 1_555
C10 C11 1_555 1_555
C12 O5 1_555 1_555
C16 C17 1_555 1_555
C18 O6 1_555 1_555
C22 C23 1_555 1_555
C24 O8 1_555 1_555
O8 Na1H 1_555 1_555
Eu1H O4H 1_555 1_555
Eu1H_2 O5H 1_555 1_555
Eu1H_2 O8H 1_555 1_555
Na1H O6H 1_555 1_555
Na1H_2 O6H_2 1_555 1_555
C4H C5H 1_555 1_555
C6H O2H_2 1_555 1_555
C7H C12H 1_555 1_555
C10H C11H 1_555 1_555
C12H O5H 1_555 1_555
C16H C17H 1_555 1_555
C18H O6H_2 1_555 1_555
C22H C23H 1_555 1_555
C24H O8H 1_555 1_555

#END
