
#######################################################################
#
#                 Cambridge Crystallographic Data Centre
#                                CCDC 
#
#######################################################################
#
# If this CIF has been generated from an entry in the Cambridge 
# Structural Database, then it will include bibliographic, chemical, 
# crystal, experimental, refinement or atomic coordinate data resulting 
# from the CCDC's data processing and validation procedures.
#
#######################################################################

data_NATNOM
_symmetry_cell_setting           orthorhombic
_symmetry_space_group_name_H-M   'C c c m'
_symmetry_Int_Tables_number      66
_space_group_name_Hall           '-C 2 2n'
loop_
_symmetry_equiv_pos_site_id
_symmetry_equiv_pos_as_xyz
1 x,y,z
2 1/2+x,1/2+y,z
3 -x,-y,z
4 -x,y,1/2-z
5 x,-y,1/2-z
6 1/2-x,1/2-y,z
7 1/2-x,1/2+y,1/2-z
8 1/2+x,1/2-y,1/2-z
9 -x,-y,-z
10 1/2-x,1/2-y,-z
11 x,y,-z
12 x,-y,1/2+z
13 -x,y,1/2+z
14 1/2+x,1/2+y,-z
15 1/2+x,1/2-y,1/2+z
16 1/2-x,1/2+y,1/2+z
_cell_length_a                   11.3989(15)
_cell_length_b                   15.971(2)
_cell_length_c                   23.417(3)
_cell_angle_alpha                90
_cell_angle_beta                 90
_cell_angle_gamma                90
_cell_volume                     4263.11
loop_
_atom_site_label
_atom_site_type_symbol
_atom_site_fract_x
_atom_site_fract_y
_atom_site_fract_z
Cl1 Cl 0.5000 0.0000 0.5000
C8 C 0.0000 0.0000 0.4474(4)
H8 H 0.0000 0.0000 0.4069
C9 C -0.0850(6) 0.0489(5) 0.4689(4)
H9 H -0.1389 0.0798 0.4463
C8J C 0.0000 0.0000 0.5526(4)
H8J H 0.0000 0.0000 0.5931
C9J C -0.0850(6) 0.0489(5) 0.5311(4)
C9H C 0.0850(6) -0.0489(5) 0.5311(4)
C9B C 0.0850(6) -0.0489(5) 0.4689(4)
H9B H 0.1389 -0.0798 0.4463
H9H H 0.1389 -0.0798 0.5537
H9J H -0.1389 0.0798 0.5537
N2 N -0.2500 0.2500 0.3665(2)
O2 O -0.2500 0.2500 0.3129(2)
O3 O -0.1689(5) 0.2860(6) 0.3931(4)
O3E O -0.3311(5) 0.2140(6) 0.3931(4)
Cu1 Cu 0.0000 0.0000 0.2500
N1 N 0.0946(3) 0.07484(18) 0.30245(12)
O1 O 0.3798(9) 0.1848(6) 0.4509(4)
C1 C 0.0486(5) 0.1433(2) 0.32450(17)
H2 H -0.0222 0.1638 0.3083
C2 C 0.0964(4) 0.1868(2) 0.36930(16)
H3 H 0.0577 0.2351 0.3836
C3 C 0.1998(4) 0.1611(2) 0.39365(13)
C4 C 0.2503(4) 0.0906(3) 0.37034(16)
H4 H 0.3221 0.0695 0.3851
C5 C 0.1961(5) 0.0513(3) 0.32572(17)
H5 H 0.2337 0.0034 0.3101
C6 C 0.2565(4) 0.2020(2) 0.44572(13)
C7 C 0.1978(5) 0.1651(3) 0.5000
H6 H 0.1131 0.1788 0.5000
H7 H 0.2061 0.1034 0.5000
Cu1A Cu 0.5000 0.5000 0.2500
Cu1M Cu 0.5000 0.5000 0.7500
Cu1J Cu 0.0000 0.0000 0.7500
N1E N 0.4054(3) 0.42516(18) 0.30245(12)
N1I N 0.4054(3) 0.42516(18) 0.69755(12)
N1J N 0.0946(3) 0.07484(18) 0.69755(12)
N1B N -0.0946(3) -0.07484(18) 0.30245(12)
N1C N -0.0946(3) 0.07484(18) 0.19755(12)
N1D N 0.0946(3) -0.07484(18) 0.19755(12)
O1E O 0.1202(9) 0.3152(6) 0.4509(4)
O1I O 0.1202(9) 0.3152(6) 0.5491(4)
O1J O 0.3798(9) 0.1848(6) 0.5491(4)
C1E C 0.4514(5) 0.3567(2) 0.32450(17)
C1I C 0.4514(5) 0.3567(2) 0.67550(17)
C1J C 0.0486(5) 0.1433(2) 0.67550(17)
H2E H 0.5222 0.3362 0.3083
H2I H 0.5222 0.3362 0.6917
H2J H -0.0222 0.1638 0.6917
C2E C 0.4036(4) 0.3132(2) 0.36930(16)
C2I C 0.4036(4) 0.3132(2) 0.63070(16)
C2J C 0.0964(4) 0.1868(2) 0.63070(16)
H3E H 0.4423 0.2649 0.3836
H3I H 0.4423 0.2649 0.6164
H3J H 0.0577 0.2351 0.6164
C3E C 0.3002(4) 0.3389(2) 0.39365(13)
C3I C 0.3002(4) 0.3389(2) 0.60635(13)
C3J C 0.1998(4) 0.1611(2) 0.60635(13)
C4E C 0.2497(4) 0.4094(3) 0.37034(16)
C4I C 0.2497(4) 0.4094(3) 0.62966(16)
C4J C 0.2503(4) 0.0906(3) 0.62966(16)
H4E H 0.1779 0.4305 0.3851
H4I H 0.1779 0.4305 0.6149
H4J H 0.3221 0.0695 0.6149
C5E C 0.3039(5) 0.4487(3) 0.32572(17)
C5I C 0.3039(5) 0.4487(3) 0.67428(17)
C5J C 0.1961(5) 0.0513(3) 0.67428(17)
H5E H 0.2663 0.4966 0.3101
H5I H 0.2663 0.4966 0.6899
H5J H 0.2337 0.0034 0.6899
C6E C 0.2435(4) 0.2980(2) 0.44572(13)
C6I C 0.2435(4) 0.2980(2) 0.55428(13)
C6J C 0.2565(4) 0.2020(2) 0.55428(13)
C7I C 0.3022(5) 0.3349(3) 0.5000
H6I H 0.3869 0.3212 0.5000
H7I H 0.2939 0.3966 0.5000
H1? H 0.3981 0.1823 0.4856
loop_
_geom_bond_atom_site_label_1
_geom_bond_atom_site_label_2
_geom_bond_site_symmetry_1
_geom_bond_site_symmetry_2
Cu1 N1 1_555 1_555
N1 C1 1_555 1_555
O1 C6 1_555 1_555
C1 H2 1_555 1_555
C2 C1 1_555 1_555
H3 C2 1_555 1_555
C3 C2 1_555 1_555
C4 C3 1_555 1_555
H4 C4 1_555 1_555
C5 N1 1_555 1_555
H5 C5 1_555 1_555
C6 C3 1_555 1_555
C7 C6 1_555 1_555
H6 C7 1_555 1_555
H7 C7 1_555 1_555
C8 H8 1_555 1_555
C9 C8 1_555 1_555
H9 C9 1_555 1_555
N2 O2 1_555 1_555
O3 N2 1_555 1_555
Cu1A N1E 1_555 1_555
Cu1M N1I 1_555 1_555
Cu1J N1J 1_555 1_555
N1E C1E 1_555 1_555
N1I C1I 1_555 1_555
N1J C1J 1_555 1_555
N1B Cu1 1_555 1_555
N1C Cu1 1_555 1_555
N1D Cu1 1_555 1_555
O1E C6E 1_555 1_555
O1I C6I 1_555 1_555
O1J C6J 1_555 1_555
C1E H2E 1_555 1_555
C1I H2I 1_555 1_555
C1J H2J 1_555 1_555
C2E C1E 1_555 1_555
C2I C1I 1_555 1_555
C2J C1J 1_555 1_555
H3E C2E 1_555 1_555
H3I C2I 1_555 1_555
H3J C2J 1_555 1_555
C3E C2E 1_555 1_555
C3I C2I 1_555 1_555
C3J C2J 1_555 1_555
C4E C3E 1_555 1_555
C4I C3I 1_555 1_555
C4J C3J 1_555 1_555
H4E C4E 1_555 1_555
H4I C4I 1_555 1_555
H4J C4J 1_555 1_555
C5E N1E 1_555 1_555
C5I N1I 1_555 1_555
C5J N1J 1_555 1_555
H5E C5E 1_555 1_555
H5I C5I 1_555 1_555
H5J C5J 1_555 1_555
C6E C6 1_555 1_555
C6I C3I 1_555 1_555
C6J C7 1_555 1_555
C7I C6E 1_555 1_555
H6I C7I 1_555 1_555
H7I C7I 1_555 1_555
C8J H8J 1_555 1_555
C9J C9 1_555 1_555
C9H C8J 1_555 1_555
C9B C8 1_555 1_555
H9B C9B 1_555 1_555
H9H C9H 1_555 1_555
H9J C9J 1_555 1_555
O3E N2 1_555 1_555
C4 C5 1_555 1_555
C3E C6E 1_555 1_555
C3J C6J 1_555 1_555
C4E C5E 1_555 1_555
C4I C5I 1_555 1_555
C4J C5J 1_555 1_555
C6I C6J 1_555 1_555
C6I C7I 1_555 1_555
C8J C9J 1_555 1_555
C9H C9B 1_555 1_555

#END
