
#######################################################################
#
#                 Cambridge Crystallographic Data Centre
#                                CCDC 
#
#######################################################################
#
# If this CIF has been generated from an entry in the Cambridge 
# Structural Database, then it will include bibliographic, chemical, 
# crystal, experimental, refinement or atomic coordinate data resulting 
# from the CCDC's data processing and validation procedures.
#
#######################################################################

data_NATNIG
_symmetry_cell_setting           triclinic
_symmetry_space_group_name_H-M   'P -1'
_symmetry_Int_Tables_number      2
_space_group_name_Hall           '-P 1'
loop_
_symmetry_equiv_pos_site_id
_symmetry_equiv_pos_as_xyz
1 x,y,z
2 -x,-y,-z
_cell_length_a                   11.7743(9)
_cell_length_b                   13.4750(11)
_cell_length_c                   14.1520(11)
_cell_angle_alpha                97.3579(15)
_cell_angle_beta                 112.1095(16)
_cell_angle_gamma                113.4363(15)
_cell_volume                     1803.84
loop_
_atom_site_label
_atom_site_type_symbol
_atom_site_fract_x
_atom_site_fract_y
_atom_site_fract_z
Cu1 Cu -0.32541(7) -0.10902(6) -0.46471(6)
N1 N -0.2156(5) 0.0525(4) -0.4662(4)
N2 N 0.2389(5) 0.2152(4) -0.5404(4)
N3 N -0.3693(5) -0.0929(4) -0.3392(4)
N4 N -0.0337(11) -0.0781(12) 0.1322(6)
N5 N -0.4999(5) -0.1899(4) -0.6163(4)
N6 N -0.5771(9) -0.6019(7) -0.7552(7)
O1 O -0.1145(11) 0.3467(11) -0.6480(9)
H1 H -0.1066 0.3619 -0.7002
O2 O -0.2931(13) 0.1308(10) 0.0219(10)
H2 H -0.2732 0.1792 0.0754
O3 O -0.9729(12) -0.5297(10) -0.8387(9)
H3 H -1.0484 -0.5874 -0.8604
C1 C -0.2731(6) 0.0886(5) -0.5463(5)
H4 H -0.3586 0.0355 -0.6054
C2 C -0.2125(6) 0.1998(5) -0.5458(5)
H5 H -0.2577 0.2198 -0.6034
C3 C -0.0851(6) 0.2818(4) -0.4604(4)
C4 C -0.0257(6) 0.2455(5) -0.3783(5)
H6 H 0.0602 0.2970 -0.3187
C5 C -0.0936(6) 0.1319(5) -0.3838(5)
H7 H -0.0510 0.1104 -0.3265
C6 C -0.0134(7) 0.4033(5) -0.4561(5)
H8 H 0.0749 0.4450 -0.3885
C7 C -0.1021(7) 0.4625(5) -0.4587(5)
H9 H -0.1253 0.4575 -0.3999
H10 H -0.1891 0.4235 -0.5260
C8 C 0.0218(6) 0.4104(5) -0.5519(5)
C9 C 0.1046(6) 0.3486(5) -0.5495(5)
C10 C 0.2398(7) 0.3866(5) -0.4709(5)
H11 H 0.2897 0.4585 -0.4189
C11 C 0.3008(7) 0.3178(5) -0.4695(5)
H12 H 0.3916 0.3454 -0.4149
C12 C 0.0412(7) 0.2418(5) -0.6273(5)
H13 H -0.0481 0.2125 -0.6846
C13 C 0.1116(7) 0.1818(5) -0.6180(5)
H14 H 0.0665 0.1110 -0.6707
C14 C -0.3306(7) 0.0094(5) -0.2758(5)
H15 H -0.2805 0.0742 -0.2894
C15 C -0.3608(7) 0.0247(5) -0.1907(5)
H16 H -0.3320 0.0978 -0.1495
C16 C -0.4334(6) -0.0692(5) -0.1679(4)
C17 C -0.4727(7) -0.1764(5) -0.2325(5)
H17 H -0.5208 -0.2423 -0.2195
C18 C -0.4399(7) -0.1838(5) -0.3153(5)
H18 H -0.4681 -0.2562 -0.3577
C19 C -0.4780(6) -0.0618(6) -0.0803(5)
H19 H -0.5196 -0.1386 -0.0750
C20 C -0.5919(6) -0.0249(6) -0.1133(4)
H20 H -0.5539 0.0496 -0.1221
H21 H -0.6702 -0.0789 -0.1824
C21 C -0.3555(7) 0.0188(6) 0.0310(5)
C22 C -0.2430(7) -0.0153(7) 0.0658(5)
C23 C -0.2700(9) -0.1208(8) 0.0803(6)
H22 H -0.3588 -0.1734 0.0677
C24 C -0.1594(14) -0.1450(11) 0.1146(8)
H23 H -0.1775 -0.2151 0.1257
C25 C -0.1077(8) 0.0530(9) 0.0838(6)
H24 H -0.0835 0.1238 0.0734
C26 C -0.0105(10) 0.0187(12) 0.1159(7)
H25 H 0.0790 0.0677 0.1272
C27 C -0.6308(7) -0.2345(5) -0.6294(5)
H26 H -0.6442 -0.2175 -0.5699
C28 C -0.7457(6) -0.3042(5) -0.7272(6)
H27 H -0.8347 -0.3332 -0.7323
C29 C -0.7328(6) -0.3321(5) -0.8171(5)
C30 C -0.5970(6) -0.2832(5) -0.8044(5)
H28 H -0.5814 -0.2983 -0.8630
C31 C -0.4868(6) -0.2128(5) -0.7050(5)
H29 H -0.3973 -0.1788 -0.6988
C32 C -0.8540(7) -0.4157(5) -0.9249(6)
H30 H -0.8164 -0.4194 -0.9755
C33 C -0.9653(7) -0.3785(5) -0.9714(6)
H31 H -0.9219 -0.3028 -0.9768
H32 H -1.0060 -0.3750 -0.9238
C34 C -0.9194(7) -0.5359(6) -0.9163(6)
C35 C -0.8055(7) -0.5677(5) -0.8671(6)
C36 C -0.7717(10) -0.5785(8) -0.7649(8)
H33 H -0.8252 -0.5749 -0.7315
C37 C -0.6574(13) -0.5945(9) -0.7133(9)
H34 H -0.6361 -0.6005 -0.6447
C38 C -0.7247(9) -0.5772(7) -0.9109(6)
H35 H -0.7444 -0.5726 -0.9798
C39 C -0.6123(10) -0.5938(8) -0.8536(8)
H36 H -0.5586 -0.5996 -0.8860
Cu1A Cu 0.32541(7) 1.10902(6) -0.53529(6)
Cu1A_2 Cu 0.32541(7) 0.10902(6) -0.53529(6)
Cu1_2 Cu -0.32541(7) 0.89098(6) -0.46471(6)
Cu1A_3 Cu -0.67459(7) 0.10902(6) 0.46471(6)
Cu1A_4 Cu -1.67459(7) -0.89098(6) -1.53529(6)
N1A N 0.2156(5) 0.9475(4) -0.5338(4)
N2_2 N 0.2389(5) 1.2152(4) -0.5404(4)
N2A N -0.2389(5) -0.2152(4) -0.4596(4)
N2A_2 N -0.2389(5) 0.7848(4) -0.4596(4)
N3A N 0.3693(5) 1.0929(4) -0.6608(4)
N3A_2 N -0.6307(5) 0.0929(4) 0.3392(4)
N4A N -0.9663(11) 0.0781(12) -0.1322(6)
N5A N 0.4999(5) 1.1899(4) -0.3837(4)
N5A_2 N -1.5001(5) -0.8101(4) -1.3837(4)
N6A N -1.4229(9) -0.3981(7) -1.2448(7)
O1A O 0.1145(11) 0.6533(11) -0.3520(9)
H1A H 0.1066 0.6381 -0.2998
O2A O -0.7069(13) -0.1308(10) -0.0219(10)
H2A H -0.7268 -0.1792 -0.0754
O3A O -1.0271(12) -0.4703(10) -1.1613(9)
H3A H -0.9516 -0.4126 -1.1396
C1A C 0.2731(6) 0.9114(5) -0.4537(5)
H4A H 0.3586 0.9645 -0.3946
C2A C 0.2125(6) 0.8002(5) -0.4542(5)
H5A H 0.2577 0.7802 -0.3966
C3A C 0.0851(6) 0.7182(4) -0.5396(4)
C4A C 0.0257(6) 0.7545(5) -0.6217(5)
H6A H -0.0602 0.7030 -0.6813
C5A C 0.0936(6) 0.8681(5) -0.6162(5)
H7A H 0.0510 0.8896 -0.6735
C6A C 0.0134(7) 0.5967(5) -0.5439(5)
H8A H -0.0749 0.5550 -0.6115
C7A C 0.1021(7) 0.5375(5) -0.5413(5)
H9A H 0.1253 0.5425 -0.6001
H10A H 0.1891 0.5765 -0.4740
C8A C -0.0218(6) 0.5896(5) -0.4481(5)
C9A C -0.1046(6) 0.6514(5) -0.4505(5)
C10A C -0.2398(7) 0.6134(5) -0.5291(5)
H11A H -0.2897 0.5415 -0.5811
C11A C -0.3008(7) 0.6822(5) -0.5305(5)
H12A H -0.3916 0.6546 -0.5851
C12A C -0.0412(7) 0.7582(5) -0.3727(5)
H13A H 0.0481 0.7875 -0.3154
C13A C -0.1116(7) 0.8182(5) -0.3820(5)
H14A H -0.0665 0.8890 -0.3293
C14A C -0.6694(7) -0.0094(5) 0.2758(5)
H15A H -0.7195 -0.0742 0.2894
C15A C -0.6392(7) -0.0247(5) 0.1907(5)
H16A H -0.6680 -0.0978 0.1495
C16A C -0.5666(6) 0.0692(5) 0.1679(4)
C17A C -0.5273(7) 0.1764(5) 0.2325(5)
H17A H -0.4792 0.2423 0.2195
C18A C -0.5601(7) 0.1838(5) 0.3153(5)
H18A H -0.5319 0.2562 0.3577
C19A C -0.5220(6) 0.0618(6) 0.0803(5)
H19A H -0.4804 0.1386 0.0750
C20A C -0.4081(6) 0.0249(6) 0.1133(4)
H20A H -0.4461 -0.0496 0.1221
H21A H -0.3298 0.0789 0.1824
C21A C -0.6445(7) -0.0188(6) -0.0310(5)
C22A C -0.7570(7) 0.0153(7) -0.0658(5)
C23A C -0.7300(9) 0.1208(8) -0.0803(6)
H22A H -0.6412 0.1734 -0.0677
C24A C -0.8406(14) 0.1450(11) -0.1146(8)
H23A H -0.8225 0.2151 -0.1257
C25A C -0.8923(8) -0.0530(9) -0.0838(6)
H24A H -0.9165 -0.1238 -0.0734
C26A C -0.9895(10) -0.0187(12) -0.1159(7)
H25A H -1.0790 -0.0677 -0.1272
C27A C -1.3692(7) -0.7655(5) -1.3706(5)
H26A H -1.3558 -0.7825 -1.4301
C28A C -1.2543(6) -0.6958(5) -1.2728(6)
H27A H -1.1653 -0.6668 -1.2677
C29A C -1.2672(6) -0.6679(5) -1.1829(5)
C30A C -1.4030(6) -0.7168(5) -1.1956(5)
H28A H -1.4186 -0.7017 -1.1370
C31A C -1.5132(6) -0.7872(5) -1.2950(5)
H29A H -1.6027 -0.8212 -1.3012
C32A C -1.1460(7) -0.5843(5) -1.0751(6)
H30A H -1.1836 -0.5806 -1.0245
C33A C -1.0347(7) -0.6215(5) -1.0286(6)
H31A H -1.0781 -0.6972 -1.0232
H32A H -0.9940 -0.6250 -1.0762
C34A C -1.0806(7) -0.4641(6) -1.0837(6)
C35A C -1.1945(7) -0.4323(5) -1.1329(6)
C36A C -1.2283(10) -0.4215(8) -1.2351(8)
H33A H -1.1748 -0.4251 -1.2685
C37A C -1.3426(13) -0.4055(9) -1.2867(9)
H34A H -1.3639 -0.3995 -1.3553
C38A C -1.2753(9) -0.4228(7) -1.0891(6)
H35A H -1.2556 -0.4274 -1.0202
C39A C -1.3877(10) -0.4062(8) -1.1464(8)
H36A H -1.4414 -0.4004 -1.1140
N7 N -0.254(2) 0.3959(17) -0.8535(18)
O4 O -0.3692(16) 0.3554(12) -0.9324(11)
O5 O -0.2028(16) 0.3317(13) -0.8338(13)
O6 O -0.163(2) 0.4973(16) -0.8291(16)
loop_
_geom_bond_atom_site_label_1
_geom_bond_atom_site_label_2
_geom_bond_site_symmetry_1
_geom_bond_site_symmetry_2
Cu1 N1 1_555 1_555
N1 C1 1_555 1_555
N2 C11 1_555 1_555
N3 Cu1 1_555 1_555
N4 C24 1_555 1_555
N5 Cu1 1_555 1_555
N6 C37 1_555 1_555
O1 H1 1_555 1_555
O2 H2 1_555 1_555
O3 H3 1_555 1_555
C1 H4 1_555 1_555
C2 C1 1_555 1_555
H5 C2 1_555 1_555
C3 C2 1_555 1_555
C4 C3 1_555 1_555
H6 C4 1_555 1_555
C5 N1 1_555 1_555
H7 C5 1_555 1_555
C6 C3 1_555 1_555
H8 C6 1_555 1_555
C7 C6 1_555 1_555
H9 C7 1_555 1_555
H10 C7 1_555 1_555
C8 O1 1_555 1_555
C9 C8 1_555 1_555
C10 C9 1_555 1_555
H11 C10 1_555 1_555
C11 C10 1_555 1_555
H12 C11 1_555 1_555
C12 C9 1_555 1_555
H13 C12 1_555 1_555
C13 N2 1_555 1_555
H14 C13 1_555 1_555
C14 N3 1_555 1_555
H15 C14 1_555 1_555
C15 C14 1_555 1_555
H16 C15 1_555 1_555
C16 C15 1_555 1_555
C17 C16 1_555 1_555
H17 C17 1_555 1_555
C18 N3 1_555 1_555
H18 C18 1_555 1_555
C19 C16 1_555 1_555
H19 C19 1_555 1_555
C20 C19 1_555 1_555
H20 C20 1_555 1_555
H21 C20 1_555 1_555
C21 O2 1_555 1_555
C22 C21 1_555 1_555
C23 C22 1_555 1_555
H22 C23 1_555 1_555
C24 C23 1_555 1_555
H23 C24 1_555 1_555
C25 C22 1_555 1_555
H24 C25 1_555 1_555
C26 N4 1_555 1_555
H25 C26 1_555 1_555
C27 N5 1_555 1_555
H26 C27 1_555 1_555
C28 C27 1_555 1_555
H27 C28 1_555 1_555
C29 C28 1_555 1_555
C30 C29 1_555 1_555
H28 C30 1_555 1_555
C31 N5 1_555 1_555
H29 C31 1_555 1_555
C32 C29 1_555 1_555
H30 C32 1_555 1_555
C33 C32 1_555 1_555
H31 C33 1_555 1_555
H32 C33 1_555 1_555
C34 O3 1_555 1_555
C35 C34 1_555 1_555
C36 C35 1_555 1_555
H33 C36 1_555 1_555
C37 C36 1_555 1_555
H34 C37 1_555 1_555
C38 C35 1_555 1_555
H35 C38 1_555 1_555
C39 N6 1_555 1_555
H36 C39 1_555 1_555
N7 O4 1_555 1_555
O5 N7 1_555 1_555
O6 N7 1_555 1_555
Cu1A N1A 1_555 1_555
Cu1A_2 N2 1_555 1_555
Cu1_2 N2A_2 1_555 1_555
Cu1A_3 N3A_2 1_555 1_555
Cu1A_4 N5A_2 1_555 1_555
N1A C1A 1_555 1_555
N2_2 Cu1A 1_555 1_555
N2A Cu1 1_555 1_555
N2A_2 C11A 1_555 1_555
N3A Cu1A 1_555 1_555
N3A_2 C14A 1_555 1_555
N4A C24A 1_555 1_555
N5A Cu1A 1_555 1_555
N5A_2 C27A 1_555 1_555
N6A C37A 1_555 1_555
O1A H1A 1_555 1_555
O2A H2A 1_555 1_555
O3A H3A 1_555 1_555
C1A H4A 1_555 1_555
C2A C1A 1_555 1_555
H5A C2A 1_555 1_555
C3A C2A 1_555 1_555
C4A C3A 1_555 1_555
H6A C4A 1_555 1_555
C5A N1A 1_555 1_555
H7A C5A 1_555 1_555
C6A C3A 1_555 1_555
H8A C6A 1_555 1_555
C7A C8 1_555 1_555
H9A C7A 1_555 1_555
H10A C7A 1_555 1_555
C8A C7 1_555 1_555
C9A C8A 1_555 1_555
C10A C9A 1_555 1_555
H11A C10A 1_555 1_555
C11A C10A 1_555 1_555
H12A C11A 1_555 1_555
C12A C9A 1_555 1_555
H13A C12A 1_555 1_555
C13A N2A_2 1_555 1_555
H14A C13A 1_555 1_555
C14A H15A 1_555 1_555
C15A C14A 1_555 1_555
H16A C15A 1_555 1_555
C16A C15A 1_555 1_555
C17A C16A 1_555 1_555
H17A C17A 1_555 1_555
C18A N3A_2 1_555 1_555
H18A C18A 1_555 1_555
C19A C16A 1_555 1_555
H19A C19A 1_555 1_555
C20A C21 1_555 1_555
H20A C20A 1_555 1_555
H21A C20A 1_555 1_555
C21A C20 1_555 1_555
C22A C21A 1_555 1_555
C23A C22A 1_555 1_555
H22A C23A 1_555 1_555
C24A C23A 1_555 1_555
H23A C24A 1_555 1_555
C25A C22A 1_555 1_555
H24A C25A 1_555 1_555
C26A N4A 1_555 1_555
H25A C26A 1_555 1_555
C27A H26A 1_555 1_555
C28A C27A 1_555 1_555
H27A C28A 1_555 1_555
C29A C28A 1_555 1_555
C30A C29A 1_555 1_555
H28A C30A 1_555 1_555
C31A N5A_2 1_555 1_555
H29A C31A 1_555 1_555
C32A C29A 1_555 1_555
H30A C32A 1_555 1_555
C33A C34 1_555 1_555
H31A C33A 1_555 1_555
H32A C33A 1_555 1_555
C34A C33 1_555 1_555
C35A C34A 1_555 1_555
C36A C35A 1_555 1_555
H33A C36A 1_555 1_555
C37A C36A 1_555 1_555
H34A C37A 1_555 1_555
C38A C35A 1_555 1_555
H35A C38A 1_555 1_555
C39A N6A 1_555 1_555
H36A C39A 1_555 1_555
C4 C5 1_555 1_555
C6 C8 1_555 1_555
C12 C13 1_555 1_555
C17 C18 1_555 1_555
C19 C21 1_555 1_555
C25 C26 1_555 1_555
C30 C31 1_555 1_555
C32 C34 1_555 1_555
C38 C39 1_555 1_555
O1A C8A 1_555 1_555
O2A C21A 1_555 1_555
O3A C34A 1_555 1_555
C4A C5A 1_555 1_555
C6A C7A 1_555 1_555
C6A C8A 1_555 1_555
C12A C13A 1_555 1_555
C17A C18A 1_555 1_555
C19A C20A 1_555 1_555
C19A C21A 1_555 1_555
C25A C26A 1_555 1_555
C30A C31A 1_555 1_555
C32A C33A 1_555 1_555
C32A C34A 1_555 1_555
C38A C39A 1_555 1_555

#END
