
#######################################################################
#
#                 Cambridge Crystallographic Data Centre
#                                CCDC 
#
#######################################################################
#
# If this CIF has been generated from an entry in the Cambridge 
# Structural Database, then it will include bibliographic, chemical, 
# crystal, experimental, refinement or atomic coordinate data resulting 
# from the CCDC's data processing and validation procedures.
#
#######################################################################

data_NATPON
_symmetry_cell_setting           triclinic
_symmetry_space_group_name_H-M   'P -1'
_symmetry_Int_Tables_number      2
_space_group_name_Hall           '-P 1'
loop_
_symmetry_equiv_pos_site_id
_symmetry_equiv_pos_as_xyz
1 x,y,z
2 -x,-y,-z
_cell_length_a                   9.6868(8)
_cell_length_b                   10.551(1)
_cell_length_c                   11.559(1)
_cell_angle_alpha                76.350(9)
_cell_angle_beta                 82.037(9)
_cell_angle_gamma                71.481(9)
_cell_volume                     1085.98
loop_
_atom_site_label
_atom_site_type_symbol
_atom_site_fract_x
_atom_site_fract_y
_atom_site_fract_z
Ag1 Ag 0.10987(3) -0.85932(3) 0.46510(3)
N1 N -0.1140(3) -0.5593(3) 0.4566(3)
N2 N -0.6753(4) 0.0118(3) 0.4110(3)
C1 C -0.0285(4) -0.6632(3) 0.4640(3)
C2 C -0.5726(4) -0.0778(4) 0.4144(4)
C3 C -0.2261(3) -0.4336(3) 0.4456(3)
C4 C -0.3141(4) -0.4058(3) 0.5491(3)
C5 C -0.4264(4) -0.2846(4) 0.5357(3)
C6 C -0.4475(4) -0.1985(3) 0.4251(4)
C7 C -0.3548(4) -0.2258(4) 0.3255(4)
C8 C -0.2408(4) -0.3470(3) 0.3346(4)
C9 C -0.2895(4) -0.5047(4) 0.6676(4)
C10 C -0.3280(7) -0.4329(6) 0.7741(5)
C11 C -0.3719(8) -0.6090(7) 0.6777(6)
C12 C -0.1388(5) -0.3787(4) 0.2258(4)
C13 C -0.0677(6) -0.2655(6) 0.1756(5)
C14 C -0.2193(8) -0.4030(7) 0.1325(6)
H1 H -0.4895 -0.2605 0.6028
H2 H -0.3689 -0.1623 0.2515
H3 H -0.1884 -0.5530 0.6678
H4 H -0.2689 -0.3743 0.7669
H5 H -0.4279 -0.3807 0.7748
H6 H -0.3106 -0.4994 0.8461
H7 H -0.4730 -0.5634 0.6723
H8 H -0.3368 -0.6576 0.6146
H9 H -0.3561 -0.6715 0.7521
H10 H -0.0635 -0.4605 0.2510
H11 H -0.0132 -0.2580 0.2346
H12 H -0.0044 -0.2866 0.1078
H13 H -0.1411 -0.1814 0.1530
H14 H -0.2976 -0.3235 0.1085
H15 H -0.1535 -0.4221 0.0655
H16 H -0.2558 -0.4781 0.1658
Ag1_2 Ag -0.89013(3) 0.14068(3) 0.46510(3)
N2_2 N 0.3247(4) -0.9882(3) 0.4110(3)
S1 S -0.8175(1) -0.1334(1) 0.69478(9)
F1 F -1.0050(4) -0.2327(4) 0.8395(3)
F2 F -0.9699(5) -0.0637(4) 0.8857(3)
F3 F -0.8101(4) -0.2567(4) 0.9177(3)
O1 O -0.9379(3) -0.0459(3) 0.6254(3)
O2 O -0.7164(4) -0.0674(4) 0.7101(3)
O3 O -0.7562(4) -0.2647(3) 0.6643(3)
C15 C -0.9069(6) -0.1712(6) 0.8419(5)
C16 C -0.603(1) 0.039(2) 0.0820(7)
C17 C -0.489(2) 0.0833(10) 0.069(1)
C18 C -0.617(1) -0.048(1) 0.017(2)
H17 H -0.6809 0.0697 0.1382
H18 H -0.4812 0.1395 0.1188
H19 H -0.6981 -0.0836 0.0301
C18A C -0.383(1) 0.048(1) -0.017(2)
C16A C -0.397(1) -0.039(2) -0.0820(7)
C17A C -0.511(2) -0.0833(10) -0.069(1)
H18A H -0.5188 -0.1395 -0.1188
H17A H -0.3191 -0.0697 -0.1382
H19A H -0.3019 0.0836 -0.0301
loop_
_geom_bond_atom_site_label_1
_geom_bond_atom_site_label_2
_geom_bond_site_symmetry_1
_geom_bond_site_symmetry_2
Ag1 C1 1_555 1_555
S1 O1 1_555 1_555
F1 C15 1_555 1_555
F2 C15 1_555 1_555
F3 C15 1_555 1_555
O2 S1 1_555 1_555
O3 S1 1_555 1_555
N1 C1 1_555 1_555
N2 C2 1_555 1_555
C2 C6 1_555 1_555
C3 N1 1_555 1_555
C4 C3 1_555 1_555
C5 C4 1_555 1_555
C6 C5 1_555 1_555
C7 C6 1_555 1_555
C8 C3 1_555 1_555
C9 C4 1_555 1_555
C10 C9 1_555 1_555
C11 C9 1_555 1_555
C12 C8 1_555 1_555
C13 C12 1_555 1_555
C14 C12 1_555 1_555
C15 S1 1_555 1_555
C16 C17 1_555 1_555
C17 H18 1_555 1_555
C18 C16 1_555 1_555
H1 C5 1_555 1_555
H2 C7 1_555 1_555
H3 C9 1_555 1_555
H4 C10 1_555 1_555
H5 C10 1_555 1_555
H6 C10 1_555 1_555
H7 C11 1_555 1_555
H8 C11 1_555 1_555
H9 C11 1_555 1_555
H10 C12 1_555 1_555
H11 C13 1_555 1_555
H12 C13 1_555 1_555
H13 C13 1_555 1_555
H14 C14 1_555 1_555
H15 C14 1_555 1_555
H16 C14 1_555 1_555
H17 C16 1_555 1_555
H19 C18 1_555 1_555
Ag1_2 N2 1_555 1_555
N2_2 Ag1 1_555 1_555
C18A C17 1_555 1_555
C16A C18A 1_555 1_555
C17A C18 1_555 1_555
H18A C17A 1_555 1_555
H17A C16A 1_555 1_555
H19A C18A 1_555 1_555
C7 C8 1_555 1_555
C16A C17A 1_555 1_555

#END
