
#######################################################################
#
#                 Cambridge Crystallographic Data Centre
#                                CCDC 
#
#######################################################################
#
# If this CIF has been generated from an entry in the Cambridge 
# Structural Database, then it will include bibliographic, chemical, 
# crystal, experimental, refinement or atomic coordinate data resulting 
# from the CCDC's data processing and validation procedures.
#
#######################################################################

data_NATQUW
_symmetry_cell_setting           triclinic
_symmetry_space_group_name_H-M   'P -1'
_symmetry_Int_Tables_number      2
_space_group_name_Hall           '-P 1'
loop_
_symmetry_equiv_pos_site_id
_symmetry_equiv_pos_as_xyz
1 x,y,z
2 -x,-y,-z
_cell_length_a                   6.3507(3)
_cell_length_b                   9.2954(5)
_cell_length_c                   9.4835(5)
_cell_angle_alpha                88.3210(10)
_cell_angle_beta                 74.04
_cell_angle_gamma                76.67
_cell_volume                     523.404
loop_
_atom_site_label
_atom_site_type_symbol
_atom_site_fract_x
_atom_site_fract_y
_atom_site_fract_z
Eu1 Eu 0.34763(2) 0.440370(13) 0.219534(13)
O1 O 0.3533(3) 0.1837(2) 0.1461(2)
O2 O -0.0501(3) 0.3437(2) -0.2002(2)
O3 O -0.3499(3) 0.3746(2) -0.0118(2)
O4 O 0.1250(3) 0.3592(2) 0.0642(2)
O5 O 0.2694(3) 0.5994(2) 0.4308(2)
O6 O 0.4014(4) 0.7396(2) 0.6610(3)
O7 O 0.4157(4) 0.9732(2) 0.6982(3)
C1 C -0.1079(5) 0.9113(3) 0.4447(3)
C2 C 0.1015(4) 0.6765(3) 0.5215(3)
C3 C -0.1577(4) 0.2995(3) -0.0832(3)
O8 O -0.0398(4) 0.6265(2) 0.6172(2)
C4 C -0.0731(4) 0.1465(3) -0.0347(3)
C5 C 0.1659(4) -0.0367(3) 0.0725(3)
C6 C 0.1653(4) 0.9351(3) 0.5684(3)
C7 C 0.1959(4) 0.2249(3) 0.0843(3)
O9 O 0.6528(4) 0.5519(3) 0.2236(3)
H1 H 0.7610 0.4859 0.2386
H2 H 0.6970 0.5905 0.1416
C8 C 0.0945(4) 0.1095(3) 0.0386(3)
C9 C 0.3392(4) 0.8722(3) 0.6463(3)
C10 C 0.0569(4) 0.8440(3) 0.5125(3)
H3 H -0.1907 0.8521 0.3962
H4 H 0.2823 -0.0630 0.1202
H5 H 0.511(8) 0.923(5) 0.743(5)
Eu1A Eu -0.34763(2) -0.440370(13) -0.219534(13)
Eu1A_2 Eu -0.34763(2) 0.559630(13) -0.219534(13)
Eu1_2 Eu -0.65237(2) 0.440370(13) 0.219534(13)
Eu1A_3 Eu 0.65237(2) 0.559630(13) 0.780466(13)
Eu1A_4 Eu -0.34763(2) 0.559630(13) 0.780466(13)
Eu1_3 Eu 0.34763(2) -0.559630(13) 0.219534(13)
Eu1A_5 Eu 0.65237(2) -0.440370(13) -0.219534(13)
Eu1_4 Eu -0.65237(2) 1.440370(13) 0.219534(13)
Eu1A_6 Eu -0.34763(2) 1.559630(13) 0.780466(13)
Eu1_5 Eu 0.34763(2) 1.440370(13) 0.219534(13)
O1A O -0.3533(3) -0.1837(2) -0.1461(2)
O2A O 0.0501(3) -0.3437(2) 0.2002(2)
O2A_2 O 0.0501(3) 0.6563(2) 0.2002(2)
O2_2 O -0.0501(3) -0.6563(2) -0.2002(2)
O3A O 0.3499(3) -0.3746(2) 0.0118(2)
O3A_2 O 0.3499(3) 0.6254(2) 0.0118(2)
O3_2 O 0.6501(3) 0.3746(2) -0.0118(2)
O3_3 O -0.3499(3) -0.6254(2) -0.0118(2)
O3A_3 O -0.6501(3) -0.3746(2) 0.0118(2)
O4A O -0.1250(3) -0.3592(2) -0.0642(2)
O5A O -0.2694(3) 1.4006(2) 0.5692(2)
O5A_2 O -0.2694(3) -0.5994(2) -0.4308(2)
O6A O -0.4014(4) 1.2604(2) 0.3390(3)
O6A_2 O 0.5986(4) 0.2604(2) 0.3390(3)
O6_2 O -0.5986(4) -0.2604(2) -0.3390(3)
O7A O -0.4157(4) 1.0268(2) 0.3018(3)
C1A C 0.1079(5) 1.0887(3) 0.5553(3)
C2A C -0.1015(4) 1.3235(3) 0.4785(3)
C3A C 0.1577(4) -0.2995(3) 0.0832(3)
O8A O 0.0398(4) 1.3735(2) 0.3828(2)
O8A_2 O 0.0398(4) 0.3735(2) 0.3828(2)
O8_2 O -0.0398(4) -0.3735(2) -0.3828(2)
C4A C 0.0731(4) -0.1465(3) 0.0347(3)
C5A C -0.1659(4) 0.0367(3) -0.0725(3)
C6A C -0.1653(4) 1.0649(3) 0.4316(3)
C7A C -0.1959(4) -0.2249(3) -0.0843(3)
O9A O -0.6528(4) -0.5519(3) -0.2236(3)
H1A H -0.7610 -0.4859 -0.2386
H2A H -0.6970 -0.5905 -0.1416
C8A C -0.0945(4) -0.1095(3) -0.0386(3)
C9A C -0.3392(4) 1.1278(3) 0.3537(3)
C10A C -0.0569(4) 1.1560(3) 0.4875(3)
H3A H 0.1907 1.1479 0.6038
H4A H -0.2823 0.0630 -0.1202
H5A H -0.511(8) 1.077(5) 0.257(5)
loop_
_geom_bond_atom_site_label_1
_geom_bond_atom_site_label_2
_geom_bond_site_symmetry_1
_geom_bond_site_symmetry_2
Eu1 O1 1_555 1_555
O1 C7 1_555 1_555
O2 C3 1_555 1_555
O3 C3 1_555 1_555
O4 Eu1 1_555 1_555
O5 Eu1 1_555 1_555
O6 C9 1_555 1_555
O7 C9 1_555 1_555
C1 C10 1_555 1_555
C2 O5 1_555 1_555
C3 C4 1_555 1_555
O8 C2 1_555 1_555
C4 C8 1_555 1_555
C5 C8 1_555 1_555
C6 C9 1_555 1_555
C7 O4 1_555 1_555
O9 Eu1 1_555 1_555
H1 O9 1_555 1_555
H2 O9 1_555 1_555
C8 C7 1_555 1_555
C10 C2 1_555 1_555
H3 C1 1_555 1_555
H4 C5 1_555 1_555
H5 O7 1_555 1_555
Eu1A O1A 1_555 1_555
Eu1A_2 O2 1_555 1_555
Eu1_2 O3 1_555 1_555
Eu1A_3 O6 1_555 1_555
Eu1A_4 O8 1_555 1_555
Eu1_3 O2A 1_555 1_555
Eu1A_5 O3A 1_555 1_555
Eu1_4 O6A 1_555 1_555
Eu1A_6 O5A 1_555 1_555
Eu1_5 O8A 1_555 1_555
O1A C7A 1_555 1_555
O2A C3A 1_555 1_555
O2A_2 Eu1 1_555 1_555
O2_2 Eu1A 1_555 1_555
O3A Eu1_3 1_555 1_555
O3A_2 Eu1 1_555 1_555
O3_2 Eu1 1_555 1_555
O3_3 Eu1A 1_555 1_555
O3A_3 Eu1A 1_555 1_555
O4A Eu1A 1_555 1_555
O5A C2A 1_555 1_555
O5A_2 Eu1A 1_555 1_555
O6A C9A 1_555 1_555
O6A_2 Eu1 1_555 1_555
O6_2 Eu1A 1_555 1_555
O7A C9A 1_555 1_555
C1A C6 1_555 1_555
C2A O8A 1_555 1_555
C3A O3A 1_555 1_555
O8A_2 Eu1 1_555 1_555
O8_2 Eu1A 1_555 1_555
C4A C5 1_555 1_555
C5A C4 1_555 1_555
C6A C1 1_555 1_555
C7A O4A 1_555 1_555
O9A Eu1A 1_555 1_555
H1A O9A 1_555 1_555
H2A O9A 1_555 1_555
C8A C4A 1_555 1_555
C9A C6A 1_555 1_555
C10A C1A 1_555 1_555
H3A C1A 1_555 1_555
H4A C5A 1_555 1_555
H5A O7A 1_555 1_555
O3 Eu1A_2 1_555 1_555
C6 C10 1_555 1_555
C2A C10A 1_555 1_555
C3A C4A 1_555 1_555
C5A C8A 1_555 1_555
C6A C10A 1_555 1_555
C7A C8A 1_555 1_555

#END
