
#######################################################################
#
#                 Cambridge Crystallographic Data Centre
#                                CCDC 
#
#######################################################################
#
# If this CIF has been generated from an entry in the Cambridge 
# Structural Database, then it will include bibliographic, chemical, 
# crystal, experimental, refinement or atomic coordinate data resulting 
# from the CCDC's data processing and validation procedures.
#
#######################################################################

data_NATREH01
_symmetry_cell_setting           triclinic
_symmetry_space_group_name_H-M   'P -1'
_symmetry_Int_Tables_number      2
_space_group_name_Hall           '-P 1'
loop_
_symmetry_equiv_pos_site_id
_symmetry_equiv_pos_as_xyz
1 x,y,z
2 -x,-y,-z
_cell_length_a                   6.3969(13)
_cell_length_b                   9.3682(19)
_cell_length_c                   9.5776(19)
_cell_angle_alpha                88.35(3)
_cell_angle_beta                 74.54(3)
_cell_angle_gamma                76.72(3)
_cell_volume                     538.078
loop_
_atom_site_label
_atom_site_type_symbol
_atom_site_fract_x
_atom_site_fract_y
_atom_site_fract_z
Pr1 Pr 0.84920(3) 0.93988(2) 0.71995(2)
C1 C 0.6555(6) 1.2020(4) 0.5818(4)
C2 C 0.5718(5) 1.3538(4) 0.5344(4)
C3 C 0.6659(6) 1.4620(4) 0.5711(4)
H1 H 0.7782 1.4363 0.6183
C4 C 0.5960(5) 1.6081(4) 0.5388(4)
C5 C 0.6986(6) 1.7211(4) 0.5844(4)
C6 C 0.3948(6) 0.8203(4) 0.9769(4)
C7 C 0.4434(6) 0.6543(4) 0.9864(4)
C8 C 0.6056(6) 0.5890(4) 1.0557(4)
H2 H 0.6775 0.6480 1.0935
C9 C 0.6630(6) 0.4367(4) 1.0697(4)
C10 C 0.8338(6) 0.3748(4) 1.1471(4)
O1 O 0.8440(4) 1.1273(3) 0.5112(3)
O2 O 0.5478(4) 1.1587(3) 0.6974(3)
O3 O 0.8525(4) 1.6797(3) 0.6462(3)
O4 O 0.6296(4) 1.8536(3) 0.5620(3)
O5 O 0.5366(5) 0.8705(3) 0.8837(3)
O6 O 0.2324(5) 0.8961(3) 1.0679(3)
O7 O 0.8940(5) 0.2429(3) 1.1644(3)
O8 O 0.9133(5) 0.4739(3) 1.1984(4)
O9 O 1.1573(5) 1.0540(4) 0.7244(4)
H3 H 1.1886 1.0605 0.7899
H4 H 1.2335 1.0709 0.6572
C1A C 0.3445(6) 1.7980(4) 0.4182(4)
C2A C 0.4282(5) 1.6462(4) 0.4656(4)
C3A C 0.3341(6) 1.5380(4) 0.4289(4)
H1A H 0.2218 1.5637 0.3817
C4A C 0.4040(5) 1.3919(4) 0.4612(4)
C5A C 0.3014(6) 1.2789(4) 0.4156(4)
O1A O 0.1560(4) 1.8727(3) 0.4888(3)
O2A O 0.4522(4) 1.8413(3) 0.3026(3)
O3A O 0.1475(4) 1.3203(3) 0.3538(3)
O4A O 0.3704(4) 1.1464(3) 0.4380(3)
C6A C 0.6052(6) 0.1797(4) 1.0231(4)
C7A C 0.5566(6) 0.3457(4) 1.0136(4)
C8A C 0.3944(6) 0.4110(4) 0.9443(4)
H2A H 0.3225 0.3520 0.9065
C9A C 0.3370(6) 0.5633(4) 0.9303(4)
C10A C 0.1662(6) 0.6252(4) 0.8529(4)
O5A O 0.4634(5) 0.1295(3) 1.1163(3)
O6A O 0.7676(5) 0.1039(3) 0.9321(3)
O8A O 0.0867(5) 0.5261(3) 0.8016(4)
O7A O 0.1060(5) 0.7571(3) 0.8356(3)
Pr1A Pr 0.15080(3) 0.06012(2) 1.28005(2)
O9A O -0.1573(5) -0.0540(4) 1.2756(4)
H3A H -0.1886 -0.0605 1.2101
H4A H -0.2335 -0.0709 1.3428
Pr1_2 Pr -0.15080(3) 0.93988(2) 0.71995(2)
Pr1_3 Pr -0.15080(3) 1.93988(2) 0.71995(2)
Pr1_4 Pr 0.84920(3) -0.06012(2) 0.71995(2)
Pr1_5 Pr 0.84920(3) 1.93988(2) 0.71995(2)
Pr1A_2 Pr 0.15080(3) 1.06012(2) 0.28005(2)
Pr1A_3 Pr 0.15080(3) 1.06012(2) 1.28005(2)
Pr1A_4 Pr 0.15080(3) 2.06012(2) 0.28005(2)
Pr1A_5 Pr 1.15080(3) 0.06012(2) 1.28005(2)
Pr1A_6 Pr 1.15080(3) 1.06012(2) 0.28005(2)
O1_2 O -0.1560(4) 0.1273(3) 1.5112(3)
O1A_2 O 0.1560(4) -0.1273(3) 1.4888(3)
O1A_3 O 1.1560(4) 0.8727(3) 0.4888(3)
O2A_2 O 0.4522(4) -0.1587(3) 1.3026(3)
O3_2 O 0.8525(4) 0.6797(3) 0.6462(3)
O3A_2 O 0.1475(4) 0.3203(3) 1.3538(3)
O4_2 O 0.6296(4) 0.8536(3) 0.5620(3)
O4A_2 O 0.3704(4) 0.1464(3) 1.4380(3)
O6_2 O 0.2324(5) -0.1039(3) 1.0679(3)
O6A_2 O 0.7676(5) 1.1039(3) 0.9321(3)
O7_2 O -0.1060(5) 0.2429(3) 1.1644(3)
O7A_2 O 1.1060(5) 0.7571(3) 0.8356(3)
loop_
_geom_bond_atom_site_label_1
_geom_bond_atom_site_label_2
_geom_bond_site_symmetry_1
_geom_bond_site_symmetry_2
Pr1 O1 1_555 1_555
C1 C2 1_555 1_555
C2 C3 1_555 1_555
C3 H1 1_555 1_555
C4 C3 1_555 1_555
C5 C4 1_555 1_555
C6 C7 1_555 1_555
C7 C8 1_555 1_555
C8 H2 1_555 1_555
C9 C8 1_555 1_555
C10 C9 1_555 1_555
O1 C1 1_555 1_555
O2 Pr1 1_555 1_555
O3 C5 1_555 1_555
O4 C5 1_555 1_555
O5 Pr1 1_555 1_555
O6 C6 1_555 1_555
O7 C10 1_555 1_555
O8 C10 1_555 1_555
O9 Pr1 1_555 1_555
H3 O9 1_555 1_555
H4 O9 1_555 1_555
C1A C2A 1_555 1_555
C2A C4 1_555 1_555
C3A C2A 1_555 1_555
H1A C3A 1_555 1_555
C4A C2 1_555 1_555
C5A C4A 1_555 1_555
O1A C1A 1_555 1_555
O2A C1A 1_555 1_555
O3A C5A 1_555 1_555
O4A C5A 1_555 1_555
C6A C7A 1_555 1_555
C7A C9 1_555 1_555
C8A C7A 1_555 1_555
H2A C8A 1_555 1_555
C9A C7 1_555 1_555
C10A C9A 1_555 1_555
O5A C6A 1_555 1_555
O6A C6A 1_555 1_555
O8A C10A 1_555 1_555
O7A C10A 1_555 1_555
Pr1A O5A 1_555 1_555
O9A Pr1A 1_555 1_555
H3A O9A 1_555 1_555
H4A O9A 1_555 1_555
Pr1_2 O7A 1_555 1_555
Pr1_3 O1A 1_555 1_555
Pr1_4 O6A 1_555 1_555
Pr1_5 O3 1_555 1_555
Pr1A_2 O3A 1_555 1_555
Pr1A_3 O6 1_555 1_555
Pr1A_4 O1A 1_555 1_555
Pr1A_5 O7 1_555 1_555
Pr1A_6 O1 1_555 1_555
O1_2 Pr1A 1_555 1_555
O1A_2 Pr1A 1_555 1_555
O1A_3 Pr1 1_555 1_555
O2A_2 Pr1A 1_555 1_555
O3_2 Pr1 1_555 1_555
O3A_2 Pr1A 1_555 1_555
O4_2 Pr1 1_555 1_555
O4A_2 Pr1A 1_555 1_555
O6_2 Pr1A 1_555 1_555
O6A_2 Pr1 1_555 1_555
O7_2 Pr1A 1_555 1_555
O7A_2 Pr1 1_555 1_555
C1 O2 1_555 1_555
C6 O5 1_555 1_555
O4 Pr1_5 1_555 1_555
C3A C4A 1_555 1_555
O2A Pr1A_4 1_555 1_555
O4A Pr1A_2 1_555 1_555
C8A C9A 1_555 1_555
Pr1A_6 O1A_3 1_555 1_555

#END
