
#######################################################################
#
#                 Cambridge Crystallographic Data Centre
#                                CCDC 
#
#######################################################################
#
# If this CIF has been generated from an entry in the Cambridge 
# Structural Database, then it will include bibliographic, chemical, 
# crystal, experimental, refinement or atomic coordinate data resulting 
# from the CCDC's data processing and validation procedures.
#
#######################################################################

data_NATREH
_symmetry_cell_setting           triclinic
_symmetry_space_group_name_H-M   'P -1'
_symmetry_Int_Tables_number      2
_space_group_name_Hall           '-P 1'
loop_
_symmetry_equiv_pos_site_id
_symmetry_equiv_pos_as_xyz
1 x,y,z
2 -x,-y,-z
_cell_length_a                   6.4056(8)
_cell_length_b                   9.3802(12)
_cell_length_c                   9.5682(12)
_cell_angle_alpha                88.4570(10)
_cell_angle_beta                 74.4680(10)
_cell_angle_gamma                76.6700(10)
_cell_volume                     538.623
loop_
_atom_site_label
_atom_site_type_symbol
_atom_site_fract_x
_atom_site_fract_y
_atom_site_fract_z
Pr1 Pr -0.15163(3) 0.440370(19) -0.27960(2)
O1 O -0.5469(4) 0.3410(3) -0.6974(3)
O2 O -0.1468(5) 0.1797(3) -0.3542(3)
O3 O -0.3702(5) 0.3542(3) -0.4378(3)
O4 O -0.1044(5) 0.7431(3) 0.1625(3)
O5 O -0.8448(4) 0.3724(3) -0.5121(3)
O6 O -0.2329(5) 0.6039(3) -0.0677(3)
O7 O -0.0869(6) 0.9742(3) 0.1977(4)
C1 C -0.3948(6) 1.0886(4) 0.0554(4)
C2 C -0.6553(6) 0.2977(4) -0.5814(4)
O8 O -0.5362(5) 0.6293(3) 0.1162(3)
C3 C -0.5722(6) 0.1461(4) -0.5334(4)
C4 C -0.3976(6) 0.6791(4) 0.0221(4)
O9 O 0.1567(5) 0.5544(4) -0.2749(4)
H1 H -1.2467 -0.4963 -0.7636
H2 H -1.2244 -0.5703 -0.6389
C5 C -0.3017(6) 0.2209(4) -0.4169(4)
C6 C -0.4053(6) 0.1087(4) -0.4613(4)
C7 C -0.3348(6) -0.0375(4) -0.4287(4)
C8 C -0.1657(6) 0.8745(4) 0.1472(4)
C9 C -0.3371(6) 0.9369(4) 0.0689(4)
C10 C -0.4435(6) 0.8454(4) 0.0129(4)
H3 H -0.3174 1.1432 0.0876
H4 H -0.2099 -0.0628 -0.3914
H5 H -0.004(10) 0.931(7) 0.241(7)
Pr1A Pr 0.15163(3) 0.559630(19) 0.27960(2)
Pr1A_2 Pr -0.84837(3) 0.559630(19) 0.27960(2)
Pr1A_3 Pr -0.84837(3) 1.559630(19) 0.27960(2)
Pr1_2 Pr -0.15163(3) 1.440370(19) -0.27960(2)
Pr1_3 Pr -1.15163(3) 1.440370(19) -0.27960(2)
Pr1A_4 Pr -0.84837(3) 0.559630(19) -0.72040(2)
Pr1_4 Pr -1.15163(3) 0.440370(19) -0.27960(2)
Pr1_5 Pr -0.15163(3) -0.559630(19) -0.27960(2)
Pr1A_5 Pr 0.15163(3) -0.440370(19) -0.72040(2)
Pr1A_6 Pr -0.84837(3) -0.440370(19) -0.72040(2)
O1A O -0.4531(4) 0.6590(3) -0.3026(3)
O1A_2 O -0.4531(4) -0.3410(3) -0.3026(3)
O1_2 O -0.5469(4) -0.6590(3) -0.6974(3)
O2A O -0.8532(5) -0.1797(3) -0.6458(3)
O3A O -0.6298(5) -0.3542(3) -0.5622(3)
O4A O -0.8956(5) 1.2569(3) -0.1625(3)
O4A_2 O 0.1044(5) 0.2569(3) -0.1625(3)
O4_2 O -1.1044(5) -0.2569(3) -0.8375(3)
O5_2 O 0.1552(4) 0.3724(3) -0.5121(3)
O5A O -0.1552(4) 0.6276(3) -0.4879(3)
O5A_2 O -0.1552(4) -0.3724(3) -0.4879(3)
O5_3 O -0.8448(4) -0.6276(3) -0.5121(3)
O5A_3 O -1.1552(4) -0.3724(3) -0.4879(3)
O6A O -0.7671(5) 1.3961(3) 0.0677(3)
O6A_2 O -0.7671(5) -0.6039(3) -0.9323(3)
O7A O -0.9131(6) 1.0258(3) -0.1977(4)
C1A C -0.6052(6) 0.9114(4) -0.0554(4)
C2A C -0.3447(6) -0.2977(4) -0.4186(4)
O8A O -0.4638(5) 1.3707(3) -0.1162(3)
O8A_2 O -0.4638(5) 0.3707(3) -0.1162(3)
O8_2 O -0.5362(5) -0.3707(3) -0.8838(3)
C3A C -0.4278(6) -0.1461(4) -0.4666(4)
C4A C -0.6024(6) 1.3209(4) -0.0221(4)
O9A O -1.1567(5) -0.5544(4) -0.7251(4)
H1A H 0.2467 0.4963 -0.2364
H2A H 0.2244 0.5703 -0.3611
C5A C -0.6983(6) -0.2209(4) -0.5831(4)
C6A C -0.5947(6) -0.1087(4) -0.5387(4)
C7A C -0.6652(6) 0.0375(4) -0.5713(4)
C8A C -0.8343(6) 1.1255(4) -0.1472(4)
C9A C -0.6629(6) 1.0631(4) -0.0689(4)
C10A C -0.5565(6) 1.1546(4) -0.0129(4)
H3A H -0.6826 0.8568 -0.0876
H4A H -0.7901 0.0628 -0.6086
H5A H -0.996(10) 1.069(7) -0.241(7)
loop_
_geom_bond_atom_site_label_1
_geom_bond_atom_site_label_2
_geom_bond_site_symmetry_1
_geom_bond_site_symmetry_2
Pr1 O2 1_555 1_555
O1 C2 1_555 1_555
O2 C5 1_555 1_555
O3 Pr1 1_555 1_555
O4 C8 1_555 1_555
O5 C2 1_555 1_555
O6 Pr1 1_555 1_555
O7 C8 1_555 1_555
C1 C9 1_555 1_555
C2 C3 1_555 1_555
O8 C4 1_555 1_555
C3 C6 1_555 1_555
C4 O6 1_555 1_555
O9 Pr1 1_555 1_555
H1 O9A 1_555 1_555
H2 O9A 1_555 1_555
C5 O3 1_555 1_555
C6 C5 1_555 1_555
C7 C6 1_555 1_555
C8 C9 1_555 1_555
C9 C10 1_555 1_555
C10 C4 1_555 1_555
H3 C1 1_555 1_555
H4 C7 1_555 1_555
H5 O7 1_555 1_555
Pr1A O4 1_555 1_555
Pr1A_2 O8 1_555 1_555
Pr1A_3 O6A 1_555 1_555
Pr1_2 O8A 1_555 1_555
Pr1_3 O4A 1_555 1_555
Pr1A_4 O1 1_555 1_555
Pr1_4 O5 1_555 1_555
Pr1_5 O1A_2 1_555 1_555
Pr1A_5 O5A_2 1_555 1_555
Pr1A_6 O1_2 1_555 1_555
O1A Pr1 1_555 1_555
O1A_2 C2A 1_555 1_555
O2A Pr1A_6 1_555 1_555
O3A Pr1A_6 1_555 1_555
O4A C8A 1_555 1_555
O4A_2 Pr1 1_555 1_555
O4_2 Pr1A_6 1_555 1_555
O5_2 Pr1 1_555 1_555
O5A Pr1 1_555 1_555
O5A_2 Pr1_5 1_555 1_555
O5_3 Pr1A_6 1_555 1_555
O5A_3 Pr1A_6 1_555 1_555
O6A C4A 1_555 1_555
O6A_2 Pr1A_6 1_555 1_555
O7A C8A 1_555 1_555
C1A C10 1_555 1_555
C2A O5A_2 1_555 1_555
O8A C4A 1_555 1_555
O8A_2 Pr1 1_555 1_555
O8_2 Pr1A_6 1_555 1_555
C3A C7 1_555 1_555
C4A C10A 1_555 1_555
O9A Pr1A_6 1_555 1_555
H1A O9 1_555 1_555
H2A O9 1_555 1_555
C5A O2A 1_555 1_555
C6A C3A 1_555 1_555
C7A C3 1_555 1_555
C8A C9A 1_555 1_555
C9A C1A 1_555 1_555
C10A C1 1_555 1_555
H3A C1A 1_555 1_555
H4A C7A 1_555 1_555
H5A O7A 1_555 1_555
O5 Pr1A_4 1_555 1_555
O3A C5A 1_555 1_555
C2A C3A 1_555 1_555
C5A C6A 1_555 1_555
C6A C7A 1_555 1_555
C9A C10A 1_555 1_555

#END
