
#######################################################################
#
#                 Cambridge Crystallographic Data Centre
#                                CCDC 
#
#######################################################################
#
# If this CIF has been generated from an entry in the Cambridge 
# Structural Database, then it will include bibliographic, chemical, 
# crystal, experimental, refinement or atomic coordinate data resulting 
# from the CCDC's data processing and validation procedures.
#
#######################################################################

data_NATRUX
_symmetry_cell_setting           monoclinic
_symmetry_space_group_name_H-M   'C 2/c'
_symmetry_Int_Tables_number      15
_space_group_name_Hall           '-C 2yn'
loop_
_symmetry_equiv_pos_site_id
_symmetry_equiv_pos_as_xyz
1 x,y,z
2 -x,y,1/2-z
3 1/2+x,1/2+y,z
4 1/2-x,1/2+y,1/2-z
5 -x,-y,-z
6 x,-y,1/2+z
7 1/2-x,1/2-y,-z
8 1/2+x,1/2-y,1/2+z
_cell_length_a                   17.44(2)
_cell_length_b                   17.040(12)
_cell_length_c                   8.680(15)
_cell_angle_alpha                90
_cell_angle_beta                 111.258(13)
_cell_angle_gamma                90
_cell_volume                     2403.99
loop_
_atom_site_label
_atom_site_type_symbol
_atom_site_fract_x
_atom_site_fract_y
_atom_site_fract_z
Mn1 Mn 0.0000 -0.06339(4) 0.2500
C1 C 0.2451(2) 0.1362(2) 0.6796(4)
H1 H 0.2214 0.1513 0.7551
C2 C 0.2036(2) 0.08420(19) 0.5547(4)
C3 C 0.2405(3) 0.0600(2) 0.4465(5)
H2 H 0.2134 0.0243 0.3636
C4 C 0.3171(3) 0.0879(3) 0.4590(5)
C5 C 0.3558(3) 0.1414(2) 0.5825(5)
H3 H 0.4067 0.1615 0.5905
C6 C 0.3210(2) 0.1661(2) 0.6945(4)
C7 C 0.3617(2) 0.2249(2) 0.8226(4)
C8 C 0.3992(2) 0.2906(2) 0.7882(4)
H4 H 0.4013 0.2974 0.6834
C9 C 0.4336(3) 0.3460(2) 0.9091(5)
H5 H 0.4575 0.3901 0.8821
C10 C 0.3988(3) 0.2764(2) 1.0950(5)
H6 H 0.3991 0.2707 1.2018
C11 C 0.3617(3) 0.2191(2) 0.9819(5)
H7 H 0.3367 0.1765 1.0118
C12 C 0.1185(2) 0.0575(2) 0.5378(5)
C13 C 0.3581(3) 0.0601(3) 0.3417(6)
H8 H 0.3675 0.0045 0.3545
H9 H 0.4097 0.0867 0.3665
H10 H 0.3230 0.0713 0.2300
N1 N 0.43446(19) 0.33969(18) 1.0615(4)
O1 O 0.07770(16) 0.02094(15) 0.4097(3)
O2 O 0.09403(16) 0.07660(16) 0.6505(3)
Mn1B Mn -0.5000 0.43661(4) -0.7500
Mn1B_2 Mn 0.5000 0.43661(4) 1.2500
Mn1D Mn 0.0000 0.06339(4) -0.2500
Mn1D_2 Mn 0.0000 0.06339(4) 0.7500
C1A C -0.2451(2) 0.1362(2) -0.1796(4)
H1A H -0.2214 0.1513 -0.2551
C2A C -0.2036(2) 0.08420(19) -0.0547(4)
C3A C -0.2405(3) 0.0600(2) 0.0535(5)
H2A H -0.2134 0.0243 0.1364
C4A C -0.3171(3) 0.0879(3) 0.0410(5)
C5A C -0.3558(3) 0.1414(2) -0.0825(5)
H3A H -0.4067 0.1615 -0.0905
C6A C -0.3210(2) 0.1661(2) -0.1945(4)
C7A C -0.3617(2) 0.2249(2) -0.3226(4)
C8A C -0.3992(2) 0.2906(2) -0.2882(4)
H4A H -0.4013 0.2974 -0.1834
C9A C -0.4336(3) 0.3460(2) -0.4091(5)
H5A H -0.4575 0.3901 -0.3821
C10A C -0.3988(3) 0.2764(2) -0.5950(5)
H6A H -0.3991 0.2707 -0.7018
C11A C -0.3617(3) 0.2191(2) -0.4819(5)
H7A H -0.3367 0.1765 -0.5118
C12A C -0.1185(2) 0.0575(2) -0.0378(5)
C13A C -0.3581(3) 0.0601(3) 0.1583(6)
H8A H -0.3675 0.0045 0.1455
H9A H -0.4097 0.0867 0.1335
H10A H -0.3230 0.0713 0.2700
N1A N -0.43446(19) 0.33969(18) -0.5615(4)
N1B N -0.06554(19) -0.16031(18) 0.0615(4)
N1C N 0.06554(19) -0.16031(18) 0.4385(4)
O1A O -0.07770(16) 0.02094(15) 0.0903(3)
O2A O -0.09403(16) 0.07660(16) -0.1505(3)
O2D O -0.09403(16) -0.07660(16) 0.3495(3)
O2E O 0.09403(16) -0.07660(16) 0.1505(3)
loop_
_geom_bond_atom_site_label_1
_geom_bond_atom_site_label_2
_geom_bond_site_symmetry_1
_geom_bond_site_symmetry_2
Mn1 O1 1_555 1_555
C1 H1 1_555 1_555
C2 C1 1_555 1_555
C3 C2 1_555 1_555
H2 C3 1_555 1_555
C4 C3 1_555 1_555
C5 C4 1_555 1_555
H3 C5 1_555 1_555
C6 C1 1_555 1_555
C7 C6 1_555 1_555
C8 C7 1_555 1_555
H4 C8 1_555 1_555
C9 C8 1_555 1_555
H5 C9 1_555 1_555
C10 H6 1_555 1_555
C11 C7 1_555 1_555
H7 C11 1_555 1_555
C12 C2 1_555 1_555
C13 C4 1_555 1_555
H8 C13 1_555 1_555
H9 C13 1_555 1_555
H10 C13 1_555 1_555
N1 C9 1_555 1_555
O1 C12 1_555 1_555
O2 C12 1_555 1_555
Mn1B N1A 1_555 1_555
Mn1B_2 N1 1_555 1_555
Mn1D O2A 1_555 1_555
Mn1D_2 O2 1_555 1_555
C1A H1A 1_555 1_555
C2A C1A 1_555 1_555
C3A C2A 1_555 1_555
H2A C3A 1_555 1_555
C4A C3A 1_555 1_555
C5A C4A 1_555 1_555
H3A C5A 1_555 1_555
C6A C1A 1_555 1_555
C7A C6A 1_555 1_555
C8A C7A 1_555 1_555
H4A C8A 1_555 1_555
C9A C8A 1_555 1_555
H5A C9A 1_555 1_555
C10A H6A 1_555 1_555
C11A C7A 1_555 1_555
H7A C11A 1_555 1_555
C12A C2A 1_555 1_555
C13A C4A 1_555 1_555
H8A C13A 1_555 1_555
H9A C13A 1_555 1_555
H10A C13A 1_555 1_555
N1A C9A 1_555 1_555
N1B Mn1 1_555 1_555
N1C Mn1 1_555 1_555
O1A Mn1 1_555 1_555
O2A C12A 1_555 1_555
O2D Mn1 1_555 1_555
O2E Mn1 1_555 1_555
C5 C6 1_555 1_555
C10 C11 1_555 1_555
C10 N1 1_555 1_555
C5A C6A 1_555 1_555
C10A C11A 1_555 1_555
C10A N1A 1_555 1_555
C12A O1A 1_555 1_555

#END
