
#######################################################################
#
#                 Cambridge Crystallographic Data Centre
#                                CCDC 
#
#######################################################################
#
# If this CIF has been generated from an entry in the Cambridge 
# Structural Database, then it will include bibliographic, chemical, 
# crystal, experimental, refinement or atomic coordinate data resulting 
# from the CCDC's data processing and validation procedures.
#
#######################################################################

data_NATRAD
_symmetry_cell_setting           triclinic
_symmetry_space_group_name_H-M   'P -1'
_symmetry_Int_Tables_number      2
_space_group_name_Hall           '-P 1'
loop_
_symmetry_equiv_pos_site_id
_symmetry_equiv_pos_as_xyz
1 x,y,z
2 -x,-y,-z
_cell_length_a                   6.3361(3)
_cell_length_b                   9.2734(5)
_cell_length_c                   9.4607(5)
_cell_angle_alpha                88.3070(10)
_cell_angle_beta                 73.9970(10)
_cell_angle_gamma                76.6330(10)
_cell_volume                     519.519
loop_
_atom_site_label
_atom_site_type_symbol
_atom_site_fract_x
_atom_site_fract_y
_atom_site_fract_z
Gd1 Gd 1.347630(19) -1.059640(12) 0.219340(12)
O1 O 1.1247(3) -1.1402(2) 0.0647(2)
O2 O 1.3544(3) -1.3158(2) 0.1455(2)
O3 O 0.9499(3) -1.1558(2) -0.2009(2)
O4 O 0.6497(3) -1.1248(2) -0.0121(2)
O5 O 0.5974(4) -0.2384(2) 0.3386(2)
O6 O 0.7306(3) -0.0981(2) 0.5689(2)
O7 O 0.5842(4) -0.4728(2) 0.3017(3)
C1 C 0.8920(5) -0.5885(3) 0.4445(3)
O8 O 1.0406(4) -0.1264(2) 0.3824(2)
C2 C 0.8419(4) -1.2005(3) -0.0831(3)
C3 C 1.1965(4) -1.2746(3) 0.0845(3)
C4 C 0.8344(4) -0.4345(3) 0.4315(3)
C5 C 0.9270(4) -1.3530(3) -0.0352(3)
O9 O 1.6514(4) -0.9483(3) 0.2230(3)
H1 H 0.2571 -1.9931 -0.2614
H2 H 0.2802 -2.0682 -0.1354
C6 C 0.8979(4) -0.1755(3) 0.4785(3)
C7 C 1.1657(4) -1.5368(3) 0.0722(3)
C8 C 1.0947(4) -1.3898(3) 0.0384(3)
C9 C 0.9429(4) -0.3434(3) 0.4881(3)
C10 C 0.6601(5) -0.3716(3) 0.3538(3)
H3 H 0.8051 -0.6476 0.3997
H4 H 1.2787 -1.5611 0.1200
H5 H 0.494(8) -0.434(5) 0.259(5)
Gd1A Gd 0.652370(19) 0.059640(12) 0.780660(12)
Gd1_2 Gd 1.347630(19) -0.059640(12) 0.219340(12)
Gd1_3 Gd 0.347630(19) -1.059640(12) 0.219340(12)
Gd1A_2 Gd 0.652370(19) -0.940360(12) -0.219340(12)
Gd1A_3 Gd 1.652370(19) -0.940360(12) 0.780660(12)
Gd1_4 Gd 0.347630(19) -0.059640(12) 0.219340(12)
Gd1A_4 Gd 0.652370(19) -0.940360(12) 0.780660(12)
Gd1_5 Gd 1.347630(19) -2.059640(12) 0.219340(12)
Gd1A_5 Gd 1.652370(19) -1.940360(12) -0.219340(12)
Gd1A_6 Gd 0.652370(19) -1.940360(12) -0.219340(12)
O1A O 0.8753(3) -1.8598(2) -0.0647(2)
O2A O 0.6456(3) -1.6842(2) -0.1455(2)
O3A O 1.0501(3) -0.8442(2) 0.2009(2)
O3A_2 O 1.0501(3) -1.8442(2) 0.2009(2)
O3_2 O 0.9499(3) -2.1558(2) -0.2009(2)
O4_2 O 1.6497(3) -1.1248(2) -0.0121(2)
O4A O 1.3503(3) -0.8752(2) 0.0121(2)
O4A_2 O 1.3503(3) -1.8752(2) 0.0121(2)
O4_3 O 0.6497(3) -2.1248(2) -0.0121(2)
O4A_3 O 0.3503(3) -1.8752(2) 0.0121(2)
O5A O 1.4026(4) -0.7616(2) 0.6614(2)
O5_2 O 1.5974(4) -1.2384(2) 0.3386(2)
O5A_2 O 0.4026(4) -1.7616(2) -0.3386(2)
O6A O 1.2694(3) -0.9019(2) 0.4311(2)
O6_2 O 0.7306(3) -2.0981(2) -0.4311(2)
O7A O 1.4158(4) -0.5272(2) 0.6983(3)
C1A C 1.1080(5) -0.4115(3) 0.5555(3)
O8A O 0.9594(4) -0.8736(2) 0.6176(2)
O8_2 O 1.0406(4) -1.1264(2) 0.3824(2)
O8A_2 O 0.9594(4) -1.8736(2) -0.3824(2)
C2A C 1.1581(4) -1.7995(3) 0.0831(3)
C3A C 0.8035(4) -1.7254(3) -0.0845(3)
C4A C 1.1656(4) -0.5655(3) 0.5685(3)
C5A C 1.0730(4) -1.6470(3) 0.0352(3)
O9A O 0.3486(4) -2.0517(3) -0.2230(3)
H1A H 1.7429 -1.0069 0.2614
H2A H 1.7198 -0.9318 0.1354
C6A C 1.1021(4) -0.8245(3) 0.5215(3)
C7A C 0.8343(4) -1.4632(3) -0.0722(3)
C8A C 0.9053(4) -1.6102(3) -0.0384(3)
C9A C 1.0571(4) -0.6566(3) 0.5119(3)
C10A C 1.3399(5) -0.6284(3) 0.6462(3)
H3A H 1.1949 -0.3524 0.6003
H4A H 0.7213 -1.4389 -0.1200
H5A H 1.506(8) -0.566(5) 0.741(5)
loop_
_geom_bond_atom_site_label_1
_geom_bond_atom_site_label_2
_geom_bond_site_symmetry_1
_geom_bond_site_symmetry_2
Gd1 O1 1_555 1_555
O1 C3 1_555 1_555
O2 Gd1 1_555 1_555
O3 C2 1_555 1_555
O4 C2 1_555 1_555
O5 C10 1_555 1_555
O6 C6 1_555 1_555
O7 C10 1_555 1_555
C1 C4 1_555 1_555
O8 C6 1_555 1_555
C2 C5 1_555 1_555
C3 O2 1_555 1_555
C4 C9 1_555 1_555
C5 C8 1_555 1_555
O9 Gd1 1_555 1_555
H1 O9A 1_555 1_555
H2 O9A 1_555 1_555
C6 C9 1_555 1_555
C7 C8 1_555 1_555
C8 C3 1_555 1_555
C9 C1A 1_555 1_555
C10 C4 1_555 1_555
H3 C1 1_555 1_555
H4 C7 1_555 1_555
H5 O7 1_555 1_555
Gd1A O6 1_555 1_555
Gd1_2 O8 1_555 1_555
Gd1_3 O4 1_555 1_555
Gd1A_2 O3 1_555 1_555
Gd1A_3 O5A 1_555 1_555
Gd1_4 O5 1_555 1_555
Gd1A_4 O8A 1_555 1_555
Gd1_5 O3A_2 1_555 1_555
Gd1A_5 O4A_2 1_555 1_555
Gd1A_6 O1A 1_555 1_555
O1A C3A 1_555 1_555
O2A Gd1A_6 1_555 1_555
O3A Gd1 1_555 1_555
O3A_2 C2A 1_555 1_555
O3_2 Gd1A_6 1_555 1_555
O4_2 Gd1 1_555 1_555
O4A Gd1 1_555 1_555
O4A_2 Gd1_5 1_555 1_555
O4_3 Gd1A_6 1_555 1_555
O4A_3 Gd1A_6 1_555 1_555
O5A C10A 1_555 1_555
O5_2 Gd1 1_555 1_555
O5A_2 Gd1A_6 1_555 1_555
O6A Gd1 1_555 1_555
O6_2 Gd1A_6 1_555 1_555
O7A C10A 1_555 1_555
C1A C4A 1_555 1_555
O8A C6A 1_555 1_555
O8_2 Gd1 1_555 1_555
O8A_2 Gd1A_6 1_555 1_555
C2A O4A_2 1_555 1_555
C3A O2A 1_555 1_555
C4A C9A 1_555 1_555
C5A C7 1_555 1_555
O9A Gd1A_6 1_555 1_555
H1A O9 1_555 1_555
H2A O9 1_555 1_555
C6A O6A 1_555 1_555
C7A C5 1_555 1_555
C8A C3A 1_555 1_555
C9A C1 1_555 1_555
C10A C4A 1_555 1_555
H3A C1A 1_555 1_555
H4A C7A 1_555 1_555
H5A O7A 1_555 1_555
O4 Gd1A_2 1_555 1_555
C2A C5A 1_555 1_555
C5A C8A 1_555 1_555
C6A C9A 1_555 1_555
C7A C8A 1_555 1_555

#END
