
#######################################################################
#
#                 Cambridge Crystallographic Data Centre
#                                CCDC 
#
#######################################################################
#
# If this CIF has been generated from an entry in the Cambridge 
# Structural Database, then it will include bibliographic, chemical, 
# crystal, experimental, refinement or atomic coordinate data resulting 
# from the CCDC's data processing and validation procedures.
#
#######################################################################

data_NATXEN
_symmetry_cell_setting           triclinic
_symmetry_space_group_name_H-M   'P -1'
_symmetry_Int_Tables_number      2
_space_group_name_Hall           '-P 1'
loop_
_symmetry_equiv_pos_site_id
_symmetry_equiv_pos_as_xyz
1 x,y,z
2 -x,-y,-z
_cell_length_a                   6.2875(6)
_cell_length_b                   6.7396(6)
_cell_length_c                   13.3858(14)
_cell_angle_alpha                82.858(4)
_cell_angle_beta                 83.118(4)
_cell_angle_gamma                63.452(4)
_cell_volume                     502.16
loop_
_atom_site_label
_atom_site_type_symbol
_atom_site_fract_x
_atom_site_fract_y
_atom_site_fract_z
Ce1 Ce 0.25158(3) 0.84832(3) 0.288021(14)
C1 C 0.1793(7) 1.4010(6) 0.1944(3)
C2 C 0.0848(7) 1.4569(6) 0.0909(3)
C3 C -0.1191(7) 1.4355(6) 0.0770(3)
H1 H -0.1982 1.3915 0.1319
C4 C 0.7325(6) 0.9349(6) 0.1802(3)
C5 C 0.6080(6) 0.9739(6) 0.0845(3)
C6 C 0.6839(6) 1.0507(6) -0.0080(3)
H2 H 0.8124 1.0849 -0.0109
C7 C -0.2016(6) 0.9717(6) 0.4745(3)
C8 C -0.0984(6) 0.7217(6) 0.4873(3)
C9 C -0.1938(6) 0.6121(6) 0.5601(3)
H3 H -0.3289 0.6947 0.6004
H4 H 0.664(3) 0.372(3) 0.373(3)
H5 H 0.7250 0.5546 0.3398
N1 N 0.2037(6) 1.5227(6) 0.0145(3)
N2 N 0.4222(5) 0.9235(5) 0.0923(2)
N3 N 0.0951(5) 0.6095(5) 0.4268(2)
O1 O 0.1456(5) 1.2497(4) 0.2485(2)
O2 O 0.2830(5) 1.5099(5) 0.2170(2)
O3 O 0.6413(5) 0.8716(5) 0.25826(19)
O4 O 0.9189(4) 0.9612(5) 0.17276(19)
O5 O -0.1359(4) 1.0543(4) 0.39426(18)
O6 O -0.3359(4) 1.0773(4) 0.54539(18)
O7 O 0.6211(5) 0.5053(5) 0.3476(3)
Ce1A Ce 0.74842(3) 1.15168(3) -0.288021(14)
Ce1_2 Ce 0.25158(3) 1.84832(3) 0.288021(14)
Ce1_3 Ce 1.25158(3) 0.84832(3) 0.288021(14)
Ce1A_2 Ce -0.25158(3) 1.15168(3) 0.711979(14)
Ce1A_3 Ce -0.25158(3) 1.15168(3) -0.288021(14)
Ce1A_4 Ce -0.25158(3) 2.15168(3) -0.288021(14)
Ce1A_5 Ce -0.25158(3) 0.15168(3) 0.711979(14)
Ce1_4 Ce 0.25158(3) -0.15168(3) 0.288021(14)
C1A C -0.1793(7) 1.5990(6) -0.1944(3)
C2A C -0.0848(7) 1.5431(6) -0.0909(3)
C3A C 0.1191(7) 1.5645(6) -0.0770(3)
H1A H 0.1982 1.6085 -0.1319
C4A C 0.2675(6) 1.0651(6) -0.1802(3)
C5A C 0.3920(6) 1.0261(6) -0.0845(3)
C6A C 0.3161(6) 0.9493(6) 0.0080(3)
H2A H 0.1876 0.9151 0.0109
C7A C 0.2016(6) 0.0283(6) 0.5255(3)
C8A C 0.0984(6) 0.2783(6) 0.5127(3)
C9A C 0.1938(6) 0.3879(6) 0.4399(3)
H3A H 0.3289 0.3053 0.3996
H4A H 0.336(3) 1.628(3) -0.373(3)
H5A H 0.2750 1.4454 -0.3398
N1A N -0.2037(6) 1.4773(6) -0.0145(3)
N2A N 0.5778(5) 1.0765(5) -0.0923(2)
N3A N -0.0951(5) 0.3905(5) 0.5732(2)
N3A_2 N 0.9049(5) 1.3905(5) -0.4268(2)
O1A O -0.1456(5) 1.7503(4) -0.2485(2)
O1A_2 O 0.8544(5) 0.7503(4) -0.2485(2)
O2A O -0.2830(5) 1.4901(5) -0.2170(2)
O2_2 O 0.2830(5) 0.5099(5) 0.2170(2)
O2A_2 O 0.7170(5) 1.4901(5) -0.2170(2)
O3A O 0.3587(5) 1.1284(5) -0.25826(19)
O4A O 0.0811(4) 1.0388(5) -0.17276(19)
O4_2 O -0.0811(4) 0.9612(5) 0.17276(19)
O4A_2 O 1.0811(4) 1.0388(5) -0.17276(19)
O5A O 0.1359(4) -0.0543(4) 0.60574(18)
O5A_2 O 1.1359(4) 0.9457(4) -0.39426(18)
O6A O 0.3359(4) -0.0773(4) 0.45461(18)
O6A_2 O 0.3359(4) 0.9227(4) 0.45461(18)
O6_2 O 0.6641(4) 1.0773(4) -0.45461(18)
O7A O 0.3789(5) 1.4947(5) -0.3476(3)
loop_
_geom_bond_atom_site_label_1
_geom_bond_atom_site_label_2
_geom_bond_site_symmetry_1
_geom_bond_site_symmetry_2
Ce1 N2 1_555 1_555
C1 C2 1_555 1_555
C2 C3 1_555 1_555
C3 H1 1_555 1_555
C4 C5 1_555 1_555
C5 C6 1_555 1_555
C6 H2 1_555 1_555
C7 C8 1_555 1_555
C8 C9 1_555 1_555
C9 H3 1_555 1_555
H4 O7 1_555 1_555
H5 O7 1_555 1_555
N1 C2 1_555 1_555
N2 C5 1_555 1_555
N3 Ce1 1_555 1_555
O1 Ce1 1_555 1_555
O2 C1 1_555 1_555
O3 Ce1 1_555 1_555
O4 C4 1_555 1_555
O5 Ce1 1_555 1_555
O6 C7 1_555 1_555
O7 Ce1 1_555 1_555
Ce1A N2A 1_555 1_555
Ce1_2 O2 1_555 1_555
Ce1_3 O4 1_555 1_555
Ce1A_2 O6 1_555 1_555
Ce1A_3 O2A 1_555 1_555
Ce1A_4 O1A 1_555 1_555
Ce1A_5 N3A 1_555 1_555
Ce1_4 O6A 1_555 1_555
C1A C2A 1_555 1_555
C2A C3A 1_555 1_555
C3A N1 1_555 1_555
H1A C3A 1_555 1_555
C4A C5A 1_555 1_555
C5A C6A 1_555 1_555
C6A N2 1_555 1_555
H2A C6A 1_555 1_555
C7A C8A 1_555 1_555
C8A C9A 1_555 1_555
C9A N3 1_555 1_555
H3A C9A 1_555 1_555
H4A O7A 1_555 1_555
H5A O7A 1_555 1_555
N1A C3 1_555 1_555
N2A C6 1_555 1_555
N3A C9 1_555 1_555
N3A_2 Ce1A 1_555 1_555
O1A C1A 1_555 1_555
O1A_2 Ce1A 1_555 1_555
O2A C1A 1_555 1_555
O2_2 Ce1 1_555 1_555
O2A_2 Ce1A 1_555 1_555
O3A Ce1A 1_555 1_555
O4A Ce1A_3 1_555 1_555
O4_2 Ce1 1_555 1_555
O4A_2 Ce1A 1_555 1_555
O5A Ce1A_5 1_555 1_555
O5A_2 Ce1A 1_555 1_555
O6A C7A 1_555 1_555
O6A_2 Ce1 1_555 1_555
O6_2 Ce1A 1_555 1_555
O7A Ce1A 1_555 1_555
C1 O1 1_555 1_555
C4 O3 1_555 1_555
C7 O5 1_555 1_555
C8 N3 1_555 1_555
C2A N1A 1_555 1_555
C4A O3A 1_555 1_555
C4A O4A 1_555 1_555
C5A N2A 1_555 1_555
C7A O5A 1_555 1_555
C8A N3A 1_555 1_555

#END
