
#######################################################################
#
#                 Cambridge Crystallographic Data Centre
#                                CCDC 
#
#######################################################################
#
# If this CIF has been generated from an entry in the Cambridge 
# Structural Database, then it will include bibliographic, chemical, 
# crystal, experimental, refinement or atomic coordinate data resulting 
# from the CCDC's data processing and validation procedures.
#
#######################################################################

data_NATYAK
_symmetry_cell_setting           tetragonal
_symmetry_space_group_name_H-M   'P 4/n m m'
_symmetry_Int_Tables_number      129
_space_group_name_Hall           '-P 4a 2a'
loop_
_symmetry_equiv_pos_site_id
_symmetry_equiv_pos_as_xyz
1 x,y,z
2 1/2-x,1/2-y,z
3 1/2-y,x,z
4 y,1/2-x,z
5 -x,1/2+y,-z
6 1/2+x,-y,-z
7 1/2+y,1/2+x,-z
8 -y,-x,-z
9 -x,-y,-z
10 1/2+x,1/2+y,-z
11 1/2+y,-x,-z
12 -y,1/2+x,-z
13 x,1/2-y,z
14 1/2-x,y,z
15 1/2-y,1/2-x,z
16 y,x,z
_cell_length_a                   9.7103(2)
_cell_length_b                   9.7103(2)
_cell_length_c                   6.8553(3)
_cell_angle_alpha                90
_cell_angle_beta                 90
_cell_angle_gamma                90
_cell_volume                     646.386
loop_
_atom_site_label
_atom_site_type_symbol
_atom_site_fract_x
_atom_site_fract_y
_atom_site_fract_z
Cu1 Cu 0.7500 0.2500 0.0000
F1 F 0.7500 0.2500 -0.3340(3)
H1 H 0.7500 0.2500 -0.5000
N1 N 0.60128(15) 0.10128(15) 0.0000
C1 C 0.53543(18) 0.06574(17) 0.1644(2)
H2 H 0.5584 0.1106 0.2832
Cu1_2 Cu 0.7500 0.2500 -1.0000
Cu1B Cu 0.2500 -0.2500 0.0000
Cu1B_2 Cu 1.2500 0.7500 0.0000
F1F F 0.7500 0.2500 -0.6660(3)
F1F_2 F 0.7500 0.2500 0.3340(3)
N1H N 0.39872(15) -0.10128(15) 0.0000
N1A N 0.89872(15) 0.39872(15) 0.0000
N1I N 1.10128(15) 0.60128(15) 0.0000
N1J N 0.60128(15) 0.39872(15) 0.0000
N1K N 0.89872(15) 0.10128(15) 0.0000
C1N C 0.43426(17) -0.03543(18) 0.1644(2)
C1H C 0.46457(18) -0.06574(17) -0.1644(2)
C1F C 0.56574(17) 0.03543(18) -0.1644(2)
C1A C 0.96457(18) 0.43426(17) 0.1644(2)
C1O C 1.06574(17) 0.53543(18) 0.1644(2)
C1I C 1.03543(18) 0.56574(17) -0.1644(2)
C1G C 0.93426(17) 0.46457(18) -0.1644(2)
H2F H 0.6106 0.0584 -0.2832
H2H H 0.4416 -0.1106 -0.2832
H2N H 0.3894 -0.0584 0.2832
H2A H 0.9416 0.3894 0.2832
H2G H 0.8894 0.4416 -0.2832
H2I H 1.0584 0.6106 -0.2832
H2O H 1.1106 0.5584 0.2832
Ta1 Ta 0.2500 0.2500 0.55134(3)
F2 F 0.2500 0.2500 0.2761(6)
F3 F 0.2500 0.2500 0.8266(6)
F4 F 0.4458(2) 0.2500 0.5476(3)
F4A F 0.0542(2) 0.2500 0.5476(3)
F4B F 0.2500 0.4458(2) 0.5476(3)
F4C F 0.2500 0.0542(2) 0.5476(3)
loop_
_geom_bond_atom_site_label_1
_geom_bond_atom_site_label_2
_geom_bond_site_symmetry_1
_geom_bond_site_symmetry_2
Cu1 F1 1_555 1_555
F1 H1 1_555 1_555
H1 F1F 1_555 1_555
N1 Cu1 1_555 1_555
C1 N1 1_555 1_555
H2 C1 1_555 1_555
Ta1 F2 1_555 1_555
F3 Ta1 1_555 1_555
F4 Ta1 1_555 1_555
Cu1_2 F1F 1_555 1_555
Cu1B N1H 1_555 1_555
Cu1B_2 N1I 1_555 1_555
F1F_2 Cu1 1_555 1_555
N1H C1N 1_555 1_555
N1A Cu1 1_555 1_555
N1I C1O 1_555 1_555
N1J Cu1 1_555 1_555
N1K Cu1 1_555 1_555
C1N C1 1_555 1_555
C1H N1H 1_555 1_555
C1F N1 1_555 1_555
C1A N1A 1_555 1_555
C1O C1A 1_555 1_555
C1I N1I 1_555 1_555
C1G N1A 1_555 1_555
H2F C1F 1_555 1_555
H2H C1H 1_555 1_555
H2N C1N 1_555 1_555
H2A C1A 1_555 1_555
H2G C1G 1_555 1_555
H2I C1I 1_555 1_555
H2O C1O 1_555 1_555
F4A Ta1 1_555 1_555
F4B Ta1 1_555 1_555
F4C Ta1 1_555 1_555
C1H C1F 1_555 1_555
C1I C1G 1_555 1_555

#END
