
#######################################################################
#
#                 Cambridge Crystallographic Data Centre
#                                CCDC 
#
#######################################################################
#
# If this CIF has been generated from an entry in the Cambridge 
# Structural Database, then it will include bibliographic, chemical, 
# crystal, experimental, refinement or atomic coordinate data resulting 
# from the CCDC's data processing and validation procedures.
#
#######################################################################

data_NATYAK01
_symmetry_cell_setting           tetragonal
_symmetry_space_group_name_H-M   'P 4/m m m'
_symmetry_Int_Tables_number      123
_space_group_name_Hall           '-P 4 2'
loop_
_symmetry_equiv_pos_site_id
_symmetry_equiv_pos_as_xyz
1 x,y,z
2 -x,-y,z
3 -y,x,z
4 y,-x,z
5 -x,y,-z
6 x,-y,-z
7 y,x,-z
8 -y,-x,-z
9 -x,-y,-z
10 x,y,-z
11 y,-x,-z
12 -y,x,-z
13 x,-y,z
14 -x,y,z
15 -y,-x,z
16 y,x,z
_cell_length_a                   6.8615(1)
_cell_length_b                   6.8615(1)
_cell_length_c                   7.0268(1)
_cell_angle_alpha                90
_cell_angle_beta                 90
_cell_angle_gamma                90
_cell_volume                     330.823
loop_
_atom_site_label
_atom_site_type_symbol
_atom_site_fract_x
_atom_site_fract_y
_atom_site_fract_z
Cu1 Cu 0.5000 0.5000 0.5000
F1 F 0.5000 0.5000 0.1632(4)
H1 H 0.5000 0.5000 0.0000
N1 N 0.7983(3) 0.5000 0.5000
C1 C 0.8988(3) 0.5000 0.3378(3)
H2 H 0.8322 0.5000 0.2226
Cu1_2 Cu 0.5000 0.5000 -0.5000
Cu1_3 Cu 1.5000 0.5000 0.5000
Cu1_4 Cu -0.5000 0.5000 0.5000
F1D F 0.5000 0.5000 -0.1632(4)
F1D_2 F 0.5000 0.5000 0.8368(4)
N1A N 1.2017(3) 0.5000 0.5000
N1A_2 N 0.2017(3) 0.5000 0.5000
N1_2 N -0.2017(3) 0.5000 0.5000
N1B N 0.5000 0.7983(3) 0.5000
N1C N 0.5000 0.2017(3) 0.5000
C1A C 1.1012(3) 0.5000 0.3378(3)
C1D C 1.1012(3) 0.5000 0.6622(3)
C1E C 0.8988(3) 0.5000 0.6622(3)
C1A_2 C 0.1012(3) 0.5000 0.3378(3)
C1_2 C -0.1012(3) 0.5000 0.3378(3)
C1E_2 C -0.1012(3) 0.5000 0.6622(3)
C1D_2 C 0.1012(3) 0.5000 0.6622(3)
H2E H 0.8322 0.5000 0.7774
H2D H 1.1678 0.5000 0.7774
H2A H 1.1678 0.5000 0.2226
H2A_2 H 0.1678 0.5000 0.2226
H2D_2 H 0.1678 0.5000 0.7774
H2E_2 H -0.1678 0.5000 0.7774
H2_2 H -0.1678 0.5000 0.2226
Ta1 Ta 0.0000 0.0000 0.0000
F2 F 0.1941(4) 0.1941(4) 0.0000
F3 F 0.0000 0.0000 -0.2672(9)
F2A F -0.1941(4) -0.1941(4) 0.0000
F2B F -0.1941(4) 0.1941(4) 0.0000
F2C F 0.1941(4) -0.1941(4) 0.0000
F3D F 0.0000 0.0000 0.2672(9)
loop_
_geom_bond_atom_site_label_1
_geom_bond_atom_site_label_2
_geom_bond_site_symmetry_1
_geom_bond_site_symmetry_2
Cu1 F1 1_555 1_555
F1 H1 1_555 1_555
H1 F1D 1_555 1_555
N1 Cu1 1_555 1_555
C1 N1 1_555 1_555
H2 C1 1_555 1_555
Ta1 F2 1_555 1_555
F3 Ta1 1_555 1_555
Cu1_2 F1D 1_555 1_555
Cu1_3 N1A 1_555 1_555
Cu1_4 N1_2 1_555 1_555
F1D_2 Cu1 1_555 1_555
N1A C1A 1_555 1_555
N1A_2 Cu1 1_555 1_555
N1_2 C1_2 1_555 1_555
N1B Cu1 1_555 1_555
N1C Cu1 1_555 1_555
C1A C1 1_555 1_555
C1D N1A 1_555 1_555
C1E N1 1_555 1_555
C1A_2 N1A_2 1_555 1_555
C1_2 C1A_2 1_555 1_555
C1E_2 N1_2 1_555 1_555
C1D_2 N1A_2 1_555 1_555
H2E C1E 1_555 1_555
H2D C1D 1_555 1_555
H2A C1A 1_555 1_555
H2A_2 C1A_2 1_555 1_555
H2D_2 C1D_2 1_555 1_555
H2E_2 C1E_2 1_555 1_555
H2_2 C1_2 1_555 1_555
F2A Ta1 1_555 1_555
F2B Ta1 1_555 1_555
F2C Ta1 1_555 1_555
F3D Ta1 1_555 1_555
C1D C1E 1_555 1_555
C1E_2 C1D_2 1_555 1_555

#END
