
#######################################################################
#
#                 Cambridge Crystallographic Data Centre
#                                CCDC 
#
#######################################################################
#
# If this CIF has been generated from an entry in the Cambridge 
# Structural Database, then it will include bibliographic, chemical, 
# crystal, experimental, refinement or atomic coordinate data resulting 
# from the CCDC's data processing and validation procedures.
#
#######################################################################

data_NAVDEU
_symmetry_cell_setting           monoclinic
_symmetry_space_group_name_H-M   'P 21/n'
_symmetry_Int_Tables_number      14
_space_group_name_Hall           '-P 2yn'
loop_
_symmetry_equiv_pos_site_id
_symmetry_equiv_pos_as_xyz
1 x,y,z
2 1/2-x,1/2+y,1/2-z
3 -x,-y,-z
4 1/2+x,1/2-y,1/2+z
_cell_length_a                   13.1446(6)
_cell_length_b                   15.4921(8)
_cell_length_c                   17.2293(8)
_cell_angle_alpha                90
_cell_angle_beta                 100.4690(10)
_cell_angle_gamma                90
_cell_volume                     3450.13
loop_
_atom_site_label
_atom_site_type_symbol
_atom_site_fract_x
_atom_site_fract_y
_atom_site_fract_z
In1 In 0.44020(2) 0.366853(15) 0.097171(13)
In2 In 0.56010(2) 0.371242(14) -0.107319(13)
N1 N 0.5944(2) 0.3934(2) 0.1799(2)
N2 N 0.4135(2) 0.3593(2) 0.2279(2)
N3 N 0.3953(2) 0.3627(2) -0.1838(2)
N4 N 0.5679(2) 0.4135(2) -0.2362(2)
O1 O 0.4946(3) 0.3365(2) -0.0072(2)
O2 O 0.2760(2) 0.3587(2) 0.0710(2)
O3 O 0.2548(2) 0.4504(2) -0.0305(2)
O4 O 0.4579(2) 0.2302(2) 0.1305(2)
O5 O 0.4011(3) 0.1824(2) 0.0085(2)
O6 O 0.4662(4) -0.2040(2) 0.2563(2)
O7 O 0.4285(2) -0.2380(2) 0.1299(2)
O8 O -0.2767(2) 0.3861(2) -0.0930(2)
O9 O -0.2629(2) 0.3118(3) 0.0182(2)
O10 O 0.4481(2) 0.4995(2) 0.0692(2)
C1 C 0.2198(3) 0.4016(2) 0.0141(2)
C2 C 0.1053(3) 0.3882(2) 0.0046(2)
C3 C 0.0424(3) 0.4188(3) -0.0634(2)
C4 C 0.0600(3) 0.3475(3) 0.0616(2)
C5 C 0.4266(3) 0.1708(2) 0.0801(2)
C6 C 0.4267(3) 0.0796(2) 0.1116(2)
C7 C 0.4078(3) 0.0135(2) 0.0568(2)
C8 C 0.4128(3) -0.0718(2) 0.0820(2)
C9 C 0.4347(3) -0.0918(2) 0.1620(2)
C10 C 0.4498(3) -0.0246(2) 0.2170(2)
C11 C 0.4467(3) 0.0614(2) 0.1914(2)
C12 C 0.4460(3) -0.1856(2) 0.1879(2)
C13 C 0.6809(4) 0.4154(3) 0.1556(3)
C14 C 0.7741(4) 0.4245(4) 0.2080(4)
C15 C 0.7782(4) 0.4109(4) 0.2863(3)
C16 C 0.6878(4) 0.3872(3) 0.3138(2)
C17 C 0.6853(5) 0.3657(3) 0.3947(3)
C18 C 0.5983(5) 0.3401(3) 0.4170(3)
C19 C 0.5021(4) 0.3369(3) 0.3621(2)
C20 C 0.4083(4) 0.3109(3) 0.3824(3)
C21 C 0.3203(4) 0.3096(3) 0.3262(3)
C22 C 0.3257(4) 0.3348(3) 0.2493(3)
C23 C 0.5011(3) 0.3586(2) 0.2829(2)
C24 C 0.5962(3) 0.3811(2) 0.2576(2)
C25 C -0.2246(3) 0.3530(3) -0.0299(3)
C26 C -0.1092(3) 0.3681(3) -0.0171(2)
C27 C -0.0459(3) 0.3384(3) 0.0515(2)
C28 C -0.0632(3) 0.4085(3) -0.0734(3)
C29 C 0.3118(3) 0.3364(3) -0.1576(3)
C30 C 0.2169(4) 0.3240(3) -0.2076(4)
C31 C 0.2095(4) 0.3368(3) -0.2861(4)
C32 C 0.2961(4) 0.3634(3) -0.3165(3)
C33 C 0.2948(5) 0.3783(3) -0.3992(3)
C34 C 0.3785(6) 0.4043(4) -0.4237(3)
C35 C 0.4761(4) 0.4188(3) -0.3709(2)
C36 C 0.5681(5) 0.4431(4) -0.3946(3)
C37 C 0.6574(5) 0.4534(4) -0.3404(3)
C38 C 0.6530(4) 0.4369(3) -0.2611(3)
C39 C 0.4806(3) 0.4038(2) -0.2896(2)
C40 C 0.3884(3) 0.3764(2) -0.2623(2)
H1 H 0.0961(30) 0.3255(24) 0.1019(23)
H2 H 0.4525(27) 0.1027(24) 0.2275(20)
H3 H 0.4621(27) -0.0386(22) 0.2711(21)
H4 H 0.5968(31) 0.3182(26) 0.4700(25)
H5 H 0.4019(31) -0.1169(25) 0.0435(23)
H6 H 0.0714(31) 0.4524(28) -0.0989(23)
H7 H -0.0942(35) 0.4239(28) -0.1117(26)
H8 H 0.8454(42) 0.4194(34) 0.3264(31)
H9 H 0.8299(37) 0.4323(28) 0.1901(26)
H10 H 0.3979(58) 0.5034(44) 0.0269(48)
H11 H 0.2638(38) 0.2888(29) 0.3396(27)
H12 H 0.2706(32) 0.3284(26) 0.2074(24)
H13 H 0.4874(40) 0.2983(30) -0.0130(29)
H14 H 0.7412(53) 0.3671(39) 0.4321(38)
H15 H 0.7054(34) 0.4493(27) -0.2229(25)
H16 H 0.7207(38) 0.4747(28) -0.3576(28)
H17 H 0.3190(32) 0.3212(27) -0.1090(24)
H18 H 0.6718(34) 0.4243(29) 0.1059(26)
H19 H 0.4032(38) 0.2992(33) 0.4312(30)
H20 H 0.1532(40) 0.3241(34) -0.3187(30)
H21 H 0.3971(31) 0.0248(24) 0.0063(26)
H22 H -0.0734(31) 0.3061(27) 0.0871(24)
H23 H 0.1630(40) 0.3076(32) -0.1847(29)
H24 H 0.3771(44) 0.4200(35) -0.4712(34)
H25 H 0.5694(46) 0.4441(41) -0.4478(37)
In2B In 0.43990(2) -0.371242(14) 0.107319(13)
In2_2 In -0.43990(2) 0.371242(14) -0.107319(13)
In2B_2 In 0.43990(2) 0.628758(14) 0.107319(13)
O7B O 0.5715(2) 0.2380(2) -0.1299(2)
O8_2 O 0.7233(2) 0.3861(2) -0.0930(2)
O10B O 0.5519(2) 0.5005(2) -0.0692(2)
H10B H 0.6021(58) 0.4966(44) -0.0269(48)
loop_
_geom_bond_atom_site_label_1
_geom_bond_atom_site_label_2
_geom_bond_site_symmetry_1
_geom_bond_site_symmetry_2
In1 N1 1_555 1_555
In2 N3 1_555 1_555
N1 C13 1_555 1_555
N2 In1 1_555 1_555
N3 C29 1_555 1_555
N4 In2 1_555 1_555
O1 In1 1_555 1_555
O2 In1 1_555 1_555
O3 C1 1_555 1_555
O4 In1 1_555 1_555
O5 C5 1_555 1_555
O6 C12 1_555 1_555
O7 C12 1_555 1_555
O8 C25 1_555 1_555
O9 C25 1_555 1_555
O10 In1 1_555 1_555
C1 O2 1_555 1_555
C2 C1 1_555 1_555
C3 C2 1_555 1_555
C4 C2 1_555 1_555
C5 O4 1_555 1_555
C6 C5 1_555 1_555
C7 C6 1_555 1_555
C8 C7 1_555 1_555
C9 C8 1_555 1_555
C10 C9 1_555 1_555
C11 C6 1_555 1_555
C12 C9 1_555 1_555
C13 C14 1_555 1_555
C14 C15 1_555 1_555
C15 C16 1_555 1_555
C16 C17 1_555 1_555
C17 C18 1_555 1_555
C18 C19 1_555 1_555
C19 C20 1_555 1_555
C20 C21 1_555 1_555
C21 C22 1_555 1_555
C22 N2 1_555 1_555
C23 N2 1_555 1_555
C24 N1 1_555 1_555
C25 C26 1_555 1_555
C26 C27 1_555 1_555
C27 C4 1_555 1_555
C28 C3 1_555 1_555
C29 C30 1_555 1_555
C30 C31 1_555 1_555
C31 C32 1_555 1_555
C32 C33 1_555 1_555
C33 C34 1_555 1_555
C34 C35 1_555 1_555
C35 C36 1_555 1_555
C36 C37 1_555 1_555
C37 C38 1_555 1_555
C38 N4 1_555 1_555
C39 N4 1_555 1_555
C40 N3 1_555 1_555
H1 C4 1_555 1_555
H2 C11 1_555 1_555
H3 C10 1_555 1_555
H4 C18 1_555 1_555
H5 C8 1_555 1_555
H6 C3 1_555 1_555
H7 C28 1_555 1_555
H8 C15 1_555 1_555
H9 C14 1_555 1_555
H10 O10 1_555 1_555
H11 C21 1_555 1_555
H12 C22 1_555 1_555
H13 O1 1_555 1_555
H14 C17 1_555 1_555
H15 C38 1_555 1_555
H16 C37 1_555 1_555
H17 C29 1_555 1_555
H18 C13 1_555 1_555
H19 C20 1_555 1_555
H20 C31 1_555 1_555
H21 C7 1_555 1_555
H22 C27 1_555 1_555
H23 C30 1_555 1_555
H24 C34 1_555 1_555
H25 C36 1_555 1_555
In2B O7 1_555 1_555
In2_2 O8 1_555 1_555
In2B_2 O10 1_555 1_555
O7B In2 1_555 1_555
O8_2 In2 1_555 1_555
O10B In2 1_555 1_555
H10B O10B 1_555 1_555
In2 O1 1_555 1_555
C10 C11 1_555 1_555
C16 C24 1_555 1_555
C19 C23 1_555 1_555
C23 C24 1_555 1_555
C26 C28 1_555 1_555
C32 C40 1_555 1_555
C35 C39 1_555 1_555
C39 C40 1_555 1_555

#END
