
#######################################################################
#
#                 Cambridge Crystallographic Data Centre
#                                CCDC 
#
#######################################################################
#
# If this CIF has been generated from an entry in the Cambridge 
# Structural Database, then it will include bibliographic, chemical, 
# crystal, experimental, refinement or atomic coordinate data resulting 
# from the CCDC's data processing and validation procedures.
#
#######################################################################

data_NAVDIY
_symmetry_cell_setting           orthorhombic
_symmetry_space_group_name_H-M   'P b c a'
_symmetry_Int_Tables_number      61
_space_group_name_Hall           '-P 2ac 2ab'
loop_
_symmetry_equiv_pos_site_id
_symmetry_equiv_pos_as_xyz
1 x,y,z
2 1/2-x,-y,1/2+z
3 -x,1/2+y,1/2-z
4 1/2+x,1/2-y,-z
5 -x,-y,-z
6 1/2+x,y,1/2-z
7 x,1/2-y,1/2+z
8 1/2-x,1/2+y,z
_cell_length_a                   14.260(6)
_cell_length_b                   14.184(6)
_cell_length_c                   18.653(8)
_cell_angle_alpha                90
_cell_angle_beta                 90
_cell_angle_gamma                90
_cell_volume                     3772.83
loop_
_atom_site_label
_atom_site_type_symbol
_atom_site_fract_x
_atom_site_fract_y
_atom_site_fract_z
In1 In -0.49394(4) -0.29845(4) 0.06604(3)
N1 N -0.5421(5) -0.1747(6) -0.0029(4)
N2 N -0.4459(5) -0.3255(5) -0.0478(4)
O1 O -0.3691(4) -0.2378(5) 0.1062(4)
O2 O -0.0587(4) 0.0683(4) 0.0934(4)
O3 O -0.0560(4) -0.2254(4) 0.3459(3)
O4 O -0.6329(4) -0.3668(4) 0.0535(3)
O5 O -0.1708(5) -0.3244(5) 0.3150(3)
O6 O -0.2864(4) -0.1909(5) 0.0107(4)
O7 O -0.0323(6) 0.0826(5) 0.2102(4)
C1 C -0.5951(8) -0.1034(7) 0.0217(7)
H1 H -0.6144 -0.1053 0.0693
C2 C -0.6224(9) -0.0284(9) -0.0192(7)
H2 H -0.6577 0.0205 0.0001
C3 C -0.5960(9) -0.0281(9) -0.0894(7)
H3 H -0.6136 0.0219 -0.1188
C4 C -0.5424(8) -0.1028(8) -0.1181(6)
H4 H -0.5257 -0.1039 -0.1662
C5 C -0.5157(7) -0.1738(7) -0.0723(5)
C6 C -0.4589(6) -0.2562(7) -0.0968(5)
C7 C -0.4241(7) -0.2618(7) -0.1657(6)
H5 H -0.4349 -0.2143 -0.1992
C8 C -0.3726(8) -0.3412(8) -0.1828(6)
H6 H -0.3461 -0.3461 -0.2282
C9 C -0.3595(7) -0.4127(8) -0.1346(6)
H7 H -0.3261 -0.4666 -0.1470
C10 C -0.3978(7) -0.4022(7) -0.0665(6)
H8 H -0.3895 -0.4501 -0.0330
C11 C -0.2960(6) -0.2028(7) 0.0755(5)
C12 C -0.2212(6) -0.1725(6) 0.1281(5)
C13 C -0.1748(6) -0.0878(6) 0.1173(5)
H9 H -0.1858 -0.0526 0.0761
C14 C -0.2053(6) -0.2233(6) 0.1901(5)
H10 H -0.2385 -0.2787 0.1984
C15 C -0.0641(6) 0.0394(7) 0.1590(6)
C16 C -0.1223(6) -0.2538(7) 0.3039(5)
C17 C -0.1403(6) -0.1926(6) 0.2403(5)
C18 C -0.0961(6) -0.1074(7) 0.2300(5)
H11 H -0.0555 -0.0846 0.2650
C19 C -0.1111(6) -0.0557(6) 0.1691(5)
H12 H -0.6345 -0.3873 0.0045
H13 H -0.6517 -0.3541 0.1003
In1G In -0.00606(4) 0.20155(4) 0.06604(3)
In1E In 0.00606(4) -0.29845(4) 0.43396(3)
O2G O -0.4413(4) -0.4317(4) 0.0934(4)
O3E O -0.5560(4) -0.2254(4) 0.1541(3)
O8 O -0.1703(19) -0.5564(19) 0.8359(16)
loop_
_geom_bond_atom_site_label_1
_geom_bond_atom_site_label_2
_geom_bond_site_symmetry_1
_geom_bond_site_symmetry_2
In1 N1 1_555 1_555
N1 C1 1_555 1_555
N2 In1 1_555 1_555
O1 In1 1_555 1_555
O2 C15 1_555 1_555
O3 C16 1_555 1_555
O4 In1 1_555 1_555
O5 C16 1_555 1_555
O6 C11 1_555 1_555
O7 C15 1_555 1_555
C1 H1 1_555 1_555
C2 C1 1_555 1_555
H2 C2 1_555 1_555
C3 C2 1_555 1_555
H3 C3 1_555 1_555
C4 C3 1_555 1_555
H4 C4 1_555 1_555
C5 N1 1_555 1_555
C6 N2 1_555 1_555
C7 C6 1_555 1_555
H5 C7 1_555 1_555
C8 C7 1_555 1_555
H6 C8 1_555 1_555
C9 C8 1_555 1_555
H7 C9 1_555 1_555
C10 N2 1_555 1_555
H8 C10 1_555 1_555
C11 O1 1_555 1_555
C12 C11 1_555 1_555
C13 C12 1_555 1_555
H9 C13 1_555 1_555
C14 C12 1_555 1_555
H10 C14 1_555 1_555
C15 C19 1_555 1_555
C16 C17 1_555 1_555
C17 C14 1_555 1_555
C18 C17 1_555 1_555
H11 C18 1_555 1_555
C19 C13 1_555 1_555
H12 O4 1_555 1_555
H13 O4 1_555 1_555
In1G O2 1_555 1_555
In1E O3 1_555 1_555
O2G In1 1_555 1_555
O3E In1 1_555 1_555
C4 C5 1_555 1_555
C5 C6 1_555 1_555
C9 C10 1_555 1_555
C18 C19 1_555 1_555

#END
