
#######################################################################
#
#                 Cambridge Crystallographic Data Centre
#                                CCDC 
#
#######################################################################
#
# If this CIF has been generated from an entry in the Cambridge 
# Structural Database, then it will include bibliographic, chemical, 
# crystal, experimental, refinement or atomic coordinate data resulting 
# from the CCDC's data processing and validation procedures.
#
#######################################################################

data_NAVDAQ
_symmetry_cell_setting           orthorhombic
_symmetry_space_group_name_H-M   'P b c a'
_symmetry_Int_Tables_number      61
_space_group_name_Hall           '-P 2ac 2ab'
loop_
_symmetry_equiv_pos_site_id
_symmetry_equiv_pos_as_xyz
1 x,y,z
2 1/2-x,-y,1/2+z
3 -x,1/2+y,1/2-z
4 1/2+x,1/2-y,-z
5 -x,-y,-z
6 1/2+x,y,1/2-z
7 x,1/2-y,1/2+z
8 1/2-x,1/2+y,z
_cell_length_a                   13.4904(17)
_cell_length_b                   16.202(2)
_cell_length_c                   17.065(2)
_cell_angle_alpha                90
_cell_angle_beta                 90
_cell_angle_gamma                90
_cell_volume                     3729.92
loop_
_atom_site_label
_atom_site_type_symbol
_atom_site_fract_x
_atom_site_fract_y
_atom_site_fract_z
In1 In 0.64373(2) 0.156605(16) 0.441163(17)
O1 O 0.6711(3) 0.0736(2) 0.3160(2)
O2 O 0.5313(2) 0.0845(2) 0.3772(2)
O3 O 0.6565(2) 0.2643(2) 0.36121(19)
O4 O 0.5205(2) 0.26715(19) 0.42835(19)
O5 O 0.7323(2) 0.04930(17) 0.49153(18)
O6 O 0.8122(2) 0.14323(17) 0.42383(17)
N1 N 0.5295(2) 0.14119(19) 0.54397(19)
N2 N 0.6967(2) 0.23275(19) 0.5465(2)
C1 C 0.5815(4) 0.0558(3) 0.3224(3)
C2 C 0.5363(3) -0.0043(2) 0.2652(3)
C3 C 0.4383(4) -0.0271(3) 0.2709(3)
C4 C 0.5969(4) -0.0417(3) 0.2103(3)
C5 C 0.5742(3) 0.2969(3) 0.3766(3)
C6 C 0.5398(3) 0.3702(3) 0.3292(3)
C7 C 0.4012(4) -0.0898(3) 0.2237(3)
C8 C 0.5594(4) -0.1046(3) 0.1637(3)
C9 C 0.8129(3) 0.0785(3) 0.4635(2)
C10 C 0.9095(3) 0.0350(3) 0.4808(2)
C11 C 0.9122(3) -0.0371(3) 0.5230(3)
C12 C 0.9965(3) 0.0728(3) 0.4583(3)
C13 C 0.4448(3) 0.0991(3) 0.5389(3)
C14 C 0.3661(4) 0.1116(3) 0.5881(3)
C15 C 0.3731(3) 0.1715(3) 0.6446(3)
C16 C 0.4603(4) 0.2144(3) 0.6523(3)
C17 C 0.5375(3) 0.1983(3) 0.6014(3)
C18 C 0.6339(3) 0.2405(2) 0.6085(2)
C19 C 0.6614(4) 0.2846(3) 0.6744(3)
C20 C 0.7530(4) 0.3203(3) 0.6784(3)
C21 C 0.8167(4) 0.3123(3) 0.6158(3)
C22 C 0.7854(3) 0.2671(3) 0.5519(3)
H1 H 0.823(2) 0.259(2) 0.515(2)
H2 H 0.997(2) 0.118(2) 0.4267(19)
H3 H 0.773(4) 0.348(3) 0.717(3)
H4 H 0.848(3) -0.064(2) 0.543(2)
H5 H 0.880(3) 0.330(3) 0.623(3)
H6 H 0.438(3) 0.063(2) 0.498(2)
H7 H 0.398(3) 0.002(3) 0.302(2)
H8 H 0.657(3) -0.023(3) 0.201(2)
H9 H 0.336(3) -0.105(3) 0.227(3)
H10 H 0.602(4) -0.125(3) 0.130(3)
H11 H 0.461(3) 0.255(3) 0.687(2)
H12 H 0.322(3) 0.187(3) 0.684(3)
H13 H 0.623(3) 0.284(3) 0.706(3)
H14 H 0.307(3) 0.082(3) 0.582(2)
In1D In 1.35627(2) -0.156605(16) 0.558837(17)
In1B In 0.35627(2) -0.343395(16) 0.058837(17)
In1B_2 In 0.35627(2) 0.656605(16) 0.058837(17)
O1D O 1.3289(3) -0.0736(2) 0.6840(2)
O1B O 0.3289(3) 0.5736(2) 0.1840(2)
O2D O 1.4687(2) -0.0845(2) 0.6228(2)
O2B O 0.4687(2) 0.5845(2) 0.1228(2)
O3D O 1.3435(2) -0.2643(2) 0.63879(19)
O3B O 0.3435(2) -0.2357(2) 0.13879(19)
O4D O 1.4795(2) -0.26715(19) 0.57165(19)
O4B O 0.4795(2) -0.23285(19) 0.07165(19)
O5D O 1.2677(2) -0.04930(17) 0.50847(18)
O6D O 1.1878(2) -0.14323(17) 0.57617(17)
N1D N 1.4705(2) -0.14119(19) 0.45603(19)
N2D N 1.3033(2) -0.23275(19) 0.4535(2)
C1B C 0.4185(4) 0.5558(3) 0.1776(3)
C2B C 0.4637(3) 0.4957(2) 0.2348(3)
C3B C 0.5617(4) 0.4729(3) 0.2291(3)
C4B C 0.4031(4) 0.4583(3) 0.2897(3)
C5B C 0.4258(3) -0.2031(3) 0.1234(3)
C6B C 0.4602(3) -0.1298(3) 0.1708(3)
C7B C 0.5988(4) 0.4102(3) 0.2763(3)
C8B C 0.4406(4) 0.3954(3) 0.3363(3)
C9D C 1.1871(3) -0.0785(3) 0.5365(2)
C10D C 1.0905(3) -0.0350(3) 0.5192(2)
C11D C 1.0878(3) 0.0371(3) 0.4770(3)
C12D C 1.0035(3) -0.0728(3) 0.5417(3)
C13D C 1.5552(3) -0.0991(3) 0.4611(3)
C14D C 1.6339(4) -0.1116(3) 0.4119(3)
C15D C 1.6269(3) -0.1715(3) 0.3554(3)
C16D C 1.5397(4) -0.2144(3) 0.3477(3)
C17D C 1.4625(3) -0.1983(3) 0.3986(3)
C18D C 1.3661(3) -0.2405(2) 0.3915(2)
C19D C 1.3386(4) -0.2846(3) 0.3256(3)
C20D C 1.2470(4) -0.3203(3) 0.3216(3)
C21D C 1.1833(4) -0.3123(3) 0.3842(3)
C22D C 1.2146(3) -0.2671(3) 0.4481(3)
H1D H 1.177(2) -0.259(2) 0.485(2)
H2D H 1.003(2) -0.118(2) 0.5733(19)
H3D H 1.227(4) -0.348(3) 0.283(3)
H4D H 1.152(3) 0.064(2) 0.457(2)
H5D H 1.120(3) -0.330(3) 0.377(3)
H6D H 1.562(3) -0.063(2) 0.502(2)
H7B H 0.602(3) 0.502(3) 0.198(2)
H8B H 0.343(3) 0.477(3) 0.299(2)
H9B H 0.664(3) 0.395(3) 0.273(3)
H10B H 0.398(4) 0.375(3) 0.370(3)
H11D H 1.539(3) -0.255(3) 0.313(2)
H12D H 1.678(3) -0.187(3) 0.316(3)
H13D H 1.377(3) -0.284(3) 0.294(3)
H14D H 1.693(3) -0.082(3) 0.418(2)
loop_
_geom_bond_atom_site_label_1
_geom_bond_atom_site_label_2
_geom_bond_site_symmetry_1
_geom_bond_site_symmetry_2
In1 O1 1_555 1_555
O1 C1 1_555 1_555
O2 In1 1_555 1_555
O3 In1 1_555 1_555
O4 In1 1_555 1_555
O5 In1 1_555 1_555
O6 In1 1_555 1_555
N1 In1 1_555 1_555
N2 In1 1_555 1_555
C1 O2 1_555 1_555
C2 C1 1_555 1_555
C3 C2 1_555 1_555
C4 C2 1_555 1_555
C5 O3 1_555 1_555
C6 C5 1_555 1_555
C7 C3 1_555 1_555
C8 C4 1_555 1_555
C9 O5 1_555 1_555
C10 C9 1_555 1_555
C11 C10 1_555 1_555
C12 C10 1_555 1_555
C13 N1 1_555 1_555
C14 C13 1_555 1_555
C15 C14 1_555 1_555
C16 C15 1_555 1_555
C17 N1 1_555 1_555
C18 N2 1_555 1_555
C19 C18 1_555 1_555
C20 C19 1_555 1_555
C21 C20 1_555 1_555
C22 N2 1_555 1_555
H1 C22 1_555 1_555
H2 C12 1_555 1_555
H3 C20 1_555 1_555
H4 C11 1_555 1_555
H5 C21 1_555 1_555
H6 C13 1_555 1_555
H7 C3 1_555 1_555
H8 C4 1_555 1_555
H9 C7 1_555 1_555
H10 C8 1_555 1_555
H11 C16 1_555 1_555
H12 C15 1_555 1_555
H13 C19 1_555 1_555
H14 C14 1_555 1_555
In1D O1D 1_555 1_555
In1B O3B 1_555 1_555
In1B_2 O1B 1_555 1_555
O1B C1B 1_555 1_555
O2D In1D 1_555 1_555
O2B In1B_2 1_555 1_555
O3D In1D 1_555 1_555
O3B C5B 1_555 1_555
O4D In1D 1_555 1_555
O4B In1B 1_555 1_555
O5D In1D 1_555 1_555
O6D In1D 1_555 1_555
N1D In1D 1_555 1_555
N2D In1D 1_555 1_555
C1B O2B 1_555 1_555
C2B C1B 1_555 1_555
C3B C2B 1_555 1_555
C4B C2B 1_555 1_555
C5B O4B 1_555 1_555
C6B C7 1_555 1_555
C7B C6 1_555 1_555
C8B C6 1_555 1_555
C9D O5D 1_555 1_555
C10D C9D 1_555 1_555
C11D C12 1_555 1_555
C12D C11 1_555 1_555
C13D N1D 1_555 1_555
C14D C13D 1_555 1_555
C15D C14D 1_555 1_555
C16D C15D 1_555 1_555
C17D N1D 1_555 1_555
C18D N2D 1_555 1_555
C19D C18D 1_555 1_555
C20D C19D 1_555 1_555
C21D C20D 1_555 1_555
C22D N2D 1_555 1_555
H1D C22D 1_555 1_555
H2D C12D 1_555 1_555
H3D C20D 1_555 1_555
H4D C11D 1_555 1_555
H5D C21D 1_555 1_555
H6D C13D 1_555 1_555
H7B C3B 1_555 1_555
H8B C4B 1_555 1_555
H9B C7B 1_555 1_555
H10B C8B 1_555 1_555
H11D C16D 1_555 1_555
H12D C15D 1_555 1_555
H13D C19D 1_555 1_555
H14D C14D 1_555 1_555
O4 C5 1_555 1_555
O6 C9 1_555 1_555
C8 C6B 1_555 1_555
C16 C17 1_555 1_555
C17 C18 1_555 1_555
C21 C22 1_555 1_555
O6D C9D 1_555 1_555
C3B C7B 1_555 1_555
C4B C8B 1_555 1_555
C5B C6B 1_555 1_555
C10D C11D 1_555 1_555
C10D C12D 1_555 1_555
C16D C17D 1_555 1_555
C17D C18D 1_555 1_555
C21D C22D 1_555 1_555

#END
