
#######################################################################
#
#                 Cambridge Crystallographic Data Centre
#                                CCDC 
#
#######################################################################
#
# If this CIF has been generated from an entry in the Cambridge 
# Structural Database, then it will include bibliographic, chemical, 
# crystal, experimental, refinement or atomic coordinate data resulting 
# from the CCDC's data processing and validation procedures.
#
#######################################################################

data_NAVDEV
_symmetry_cell_setting           triclinic
_symmetry_space_group_name_H-M   'P -1'
_symmetry_Int_Tables_number      2
_space_group_name_Hall           '-P 1'
loop_
_symmetry_equiv_pos_site_id
_symmetry_equiv_pos_as_xyz
1 x,y,z
2 -x,-y,-z
_cell_length_a                   11.0429(4)
_cell_length_b                   13.0158(5)
_cell_length_c                   19.3149(6)
_cell_angle_alpha                83.064(2)
_cell_angle_beta                 79.563(2)
_cell_angle_gamma                82.125(2)
_cell_volume                     2691.34
loop_
_atom_site_label
_atom_site_type_symbol
_atom_site_fract_x
_atom_site_fract_y
_atom_site_fract_z
Na1 Na 0.19689(7) 0.04731(6) 0.62594(4)
Na2 Na 0.16204(8) 0.25052(6) 0.72798(4)
Na3 Na -0.43524(8) 0.46172(7) 0.91964(4)
O1 O 0.20965(14) -0.14508(11) 0.65301(7)
O2 O 0.13589(15) -0.34850(12) 0.68906(8)
O3 O 0.05765(13) 0.02326(11) 0.55462(7)
O4 O 0.37645(13) 0.00570(12) 0.53788(7)
O5 O 0.00265(13) 0.37096(12) 0.77817(7)
O6 O -0.24080(13) 0.40898(12) 0.85631(7)
O7 O 0.29128(13) 0.32606(11) 0.78557(7)
O8 O 0.48275(14) 0.42066(11) 0.82458(7)
N1 N 0.19945(17) 0.05875(14) 0.74959(9)
N2 N 0.15285(16) 0.24132(13) 0.60087(8)
N3 N -0.54008(17) 0.62314(14) 0.95324(9)
C1 C 0.1050(2) 0.04890(17) 0.80770(11)
C2 C 0.1049(2) 0.08640(18) 0.87338(11)
H1 H 0.1765 0.1135 0.8810
C3 C 0.0030(3) 0.0846(2) 0.92675(13)
H2 H 0.0057 0.1106 0.9703
C4 C -0.1021(3) 0.0458(2) 0.91774(15)
H3 H -0.1720 0.0453 0.9546
C5 C -0.1048(3) 0.0077(2) 0.85465(15)
H4 H -0.1768 -0.0199 0.8482
C6 C -0.0032(2) 0.00925(19) 0.80019(13)
H5 H -0.0073 -0.0172 0.7570
C7 C 0.3218(2) 0.04640(16) 0.75966(10)
C8 C 0.3697(2) -0.01237(17) 0.81708(11)
H6 H 0.3151 -0.0469 0.8533
C9 C 0.4940(2) -0.02092(19) 0.82192(13)
H7 H 0.5230 -0.0607 0.8615
C10 C 0.5774(2) 0.0278(2) 0.76972(14)
H8 H 0.6626 0.0226 0.7736
C11 C 0.5332(2) 0.0840(2) 0.71194(13)
H9 H 0.5890 0.1171 0.6755
C12 C 0.4089(2) 0.09244(17) 0.70677(11)
H10 H 0.3814 0.1305 0.6662
C13 C 0.02830(19) 0.27716(16) 0.60239(10)
C14 C -0.0192(2) 0.36441(18) 0.56028(11)
H11 H 0.0365 0.4065 0.5302
C15 C -0.1457(2) 0.3897(2) 0.56214(12)
H12 H -0.1752 0.4487 0.5332
C16 C -0.2298(2) 0.3306(2) 0.60522(13)
H13 H -0.3164 0.3486 0.6061
C17 C -0.1856(2) 0.2446(2) 0.64713(13)
H14 H -0.2425 0.2032 0.6769
C18 C -0.0598(2) 0.21837(18) 0.64597(11)
H15 H -0.0319 0.1592 0.6753
C19 C 0.24120(19) 0.30988(16) 0.58533(10)
C20 C 0.3630(2) 0.27187(17) 0.55478(10)
H16 H 0.3773 0.2045 0.5385
C21 C 0.4614(2) 0.32884(18) 0.54780(11)
H17 H 0.5418 0.3002 0.5272
C22 C 0.4442(2) 0.42772(18) 0.57056(11)
H18 H 0.5123 0.4666 0.5667
C23 C 0.3258(2) 0.46843(17) 0.59895(11)
H19 H 0.3128 0.5365 0.6140
C24 C 0.2253(2) 0.41222(16) 0.60602(11)
H20 H 0.1502 0.4554 0.5915
C25 C -0.6645(2) 0.63567(17) 0.94759(10)
C26 C -0.7331(2) 0.72994(18) 0.92546(11)
H21 H -0.6927 0.7911 0.9130
C27 C -0.8577(2) 0.7352(2) 0.92152(11)
H22 H -0.9015 0.8000 0.9071
C28 C -0.9199(2) 0.6472(2) 0.93831(12)
H23 H -1.0059 0.6514 0.9364
C29 C -0.8536(2) 0.5533(2) 0.95777(11)
H24 H -0.8943 0.4922 0.9684
C30 C -0.7285(2) 0.54691(18) 0.96206(11)
H25 H -0.6852 0.4812 0.9750
C31 C -0.4836(2) 0.70792(17) 0.96364(11)
C32 C -0.3569(2) 0.71157(19) 0.93732(12)
H26 H -0.3135 0.6597 0.9084
C33 C -0.2933(3) 0.7886(2) 0.95225(14)
H27 H -0.2075 0.7885 0.9338
C34 C -0.3537(3) 0.8658(2) 0.99391(15)
H28 H -0.3101 0.9188 1.0040
C35 C -0.4771(3) 0.86444(19) 1.02020(13)
H29 H -0.5192 0.9170 1.0489
C36 C -0.5417(2) 0.78796(17) 1.00571(11)
H30 H -0.6275 0.7894 1.0246
C37 C 0.2240(2) -0.20313(18) 0.72001(11)
H31 H 0.2155 -0.1544 0.7566
H32 H 0.3079 -0.2426 0.7164
C38 C 0.1280(3) -0.27733(19) 0.74121(12)
H33 H 0.1398 -0.3170 0.7870
H34 H 0.0444 -0.2374 0.7476
C39 C 0.1220(2) -0.29112(18) 0.62264(11)
H35 H 0.0381 -0.2518 0.6262
H36 H 0.1305 -0.3400 0.5861
C40 C 0.2174(2) -0.21687(17) 0.60113(11)
H37 H 0.3011 -0.2567 0.5947
H38 H 0.2053 -0.1775 0.5552
C41 C -0.0501(2) -0.03069(17) 0.56961(11)
H39 H -0.1255 0.0201 0.5771
H40 H -0.0479 -0.0784 0.6135
C42 C 0.0548(2) 0.09219(17) 0.49111(10)
H41 H -0.0189 0.1449 0.4975
H42 H 0.1297 0.1291 0.4806
C43 C 0.4761(2) -0.06100(17) 0.56425(11)
H43 H 0.4808 -0.1313 0.5486
H44 H 0.4599 -0.0675 0.6166
C44 C 0.4028(2) 0.01807(19) 0.46201(11)
H45 H 0.4058 -0.0503 0.4438
H46 H 0.3353 0.0658 0.4437
C45 C -0.0904(2) 0.44442(19) 0.75056(11)
H47 H -0.0766 0.4459 0.6984
H48 H -0.0832 0.5150 0.7625
C46 C -0.2183(2) 0.4165(2) 0.78023(11)
H49 H -0.2803 0.4702 0.7619
H50 H -0.2281 0.3490 0.7644
C47 C -0.1477(2) 0.33292(18) 0.88211(11)
H51 H -0.1531 0.2641 0.8666
H52 H -0.1623 0.3264 0.9345
C48 C -0.0213(2) 0.36513(19) 0.85438(10)
H53 H -0.0161 0.4340 0.8698
H54 H 0.0420 0.3140 0.8738
C49 C 0.3733(2) 0.27138(17) 0.83119(11)
H55 H 0.3841 0.1960 0.8253
H56 H 0.3369 0.2806 0.8811
C50 C 0.4962(2) 0.31226(17) 0.81361(11)
H57 H 0.5534 0.2723 0.8438
H58 H 0.5324 0.3032 0.7636
C51 C 0.4001(2) 0.47826(18) 0.77997(12)
H59 H 0.4381 0.4741 0.7297
H60 H 0.3872 0.5525 0.7892
C52 C 0.2771(2) 0.43588(16) 0.79347(12)
H61 H 0.2346 0.4479 0.8420
H62 H 0.2245 0.4737 0.7599
Na1A Na -0.19689(7) -0.04731(6) 0.37406(4)
Na1A_2 Na 0.80311(7) -0.04731(6) 0.37406(4)
Na2A Na -0.16204(8) -0.25052(6) 0.27202(4)
Na2_2 Na -0.83796(8) 0.25052(6) 0.72798(4)
Na3_2 Na 0.56476(8) 0.46172(7) 0.91964(4)
Na3A Na -0.56476(8) 0.53828(7) 1.08036(4)
Na3A_2 Na 0.43524(8) 0.53828(7) 1.08036(4)
Na3A_3 Na 0.43524(8) -0.46172(7) 0.08036(4)
O1A O -0.20965(14) 0.14508(11) 0.34699(7)
O2A O -0.13589(15) 0.34850(12) 0.31094(8)
O3A O -0.05765(13) -0.02326(11) 0.44538(7)
O4A O 0.62355(13) -0.00570(12) 0.46212(7)
O4A_2 O -0.37645(13) -0.00570(12) 0.46212(7)
O5A O -0.00265(13) -0.37096(12) 0.22183(7)
O6A O 0.24080(13) -0.40898(12) 0.14369(7)
O6_2 O 0.75920(13) 0.40898(12) 0.85631(7)
O7_2 O -0.70872(13) 0.32606(11) 0.78557(7)
O7A O -0.29128(13) -0.32606(11) 0.21443(7)
O8_2 O -0.51725(14) 0.42066(11) 0.82458(7)
N1A N -0.19945(17) -0.05875(14) 0.25041(9)
N2A N -0.15285(16) -0.24132(13) 0.39913(8)
N3A N -0.45992(17) 0.37686(14) 1.04676(9)
N3_2 N 0.45992(17) 0.62314(14) 0.95324(9)
N3A_2 N 0.54008(17) 0.37686(14) 1.04676(9)
C1A C -0.1050(2) -0.04890(17) 0.19230(11)
C2A C -0.1049(2) -0.08640(18) 0.12662(11)
H1A H -0.1765 -0.1135 0.1190
C3A C -0.0030(3) -0.0846(2) 0.07325(13)
H2A H -0.0057 -0.1106 0.0297
C4A C 0.1021(3) -0.0458(2) 0.08226(15)
H3A H 0.1720 -0.0453 0.0454
C5A C 0.1048(3) -0.0077(2) 0.14535(15)
H4A H 0.1768 0.0199 0.1518
C6A C 0.0032(2) -0.00925(19) 0.19981(13)
H5A H 0.0073 0.0172 0.2430
C7A C -0.3218(2) -0.04640(16) 0.24034(10)
C8A C -0.3697(2) 0.01237(17) 0.18292(11)
H6A H -0.3151 0.0469 0.1467
C9A C -0.4940(2) 0.02092(19) 0.17808(13)
H7A H -0.5230 0.0607 0.1385
C10A C -0.5774(2) -0.0278(2) 0.23028(14)
H8A H -0.6626 -0.0226 0.2264
C11A C -0.5332(2) -0.0840(2) 0.28806(13)
H9A H -0.5890 -0.1171 0.3245
C12A C -0.4089(2) -0.09244(17) 0.29323(11)
H10A H -0.3814 -0.1305 0.3338
C13A C -0.02830(19) -0.27716(16) 0.39761(10)
C14A C 0.0192(2) -0.36441(18) 0.43972(11)
H11A H -0.0365 -0.4065 0.4698
C15A C 0.1457(2) -0.3897(2) 0.43786(12)
H12A H 0.1752 -0.4487 0.4668
C16A C 0.2298(2) -0.3306(2) 0.39478(13)
H13A H 0.3164 -0.3486 0.3939
C17A C 0.1856(2) -0.2446(2) 0.35287(13)
H14A H 0.2425 -0.2032 0.3231
C18A C 0.0598(2) -0.21837(18) 0.35403(11)
H15A H 0.0319 -0.1592 0.3247
C19A C -0.24120(19) -0.30988(16) 0.41467(10)
C20A C -0.3630(2) -0.27187(17) 0.44522(10)
H16A H -0.3773 -0.2045 0.4615
C21A C -0.4614(2) -0.32884(18) 0.45220(11)
H17A H -0.5418 -0.3002 0.4728
C22A C -0.4442(2) -0.42772(18) 0.42944(11)
H18A H -0.5123 -0.4666 0.4333
C23A C -0.3258(2) -0.46843(17) 0.40105(11)
H19A H -0.3128 -0.5365 0.3860
C24A C -0.2253(2) -0.41222(16) 0.39398(11)
H20A H -0.1502 -0.4554 0.4085
C25A C -0.3355(2) 0.36433(17) 1.05241(10)
C26A C -0.2669(2) 0.27006(18) 1.07454(11)
H21A H -0.3073 0.2089 1.0870
C27A C -0.1423(2) 0.2648(2) 1.07848(11)
H22A H -0.0985 0.2000 1.0929
C28A C -0.0801(2) 0.3528(2) 1.06169(12)
H23A H 0.0059 0.3486 1.0636
C29A C -0.1464(2) 0.4467(2) 1.04223(11)
H24A H -0.1057 0.5078 1.0316
C30A C -0.2715(2) 0.45309(18) 1.03794(11)
H25A H -0.3148 0.5188 1.0250
C31A C -0.5164(2) 0.29208(17) 1.03636(11)
C32A C -0.6431(2) 0.28843(19) 1.06268(12)
H26A H -0.6865 0.3403 1.0916
C33A C -0.7067(3) 0.2114(2) 1.04775(14)
H27A H -0.7925 0.2115 1.0662
C34A C -0.6463(3) 0.1342(2) 1.00609(15)
H28A H -0.6899 0.0812 0.9960
C35A C -0.5229(3) 0.13556(19) 0.97980(13)
H29A H -0.4808 0.0830 0.9511
C36A C -0.4583(2) 0.21204(17) 0.99429(11)
H30A H -0.3725 0.2106 0.9754
C37A C -0.2240(2) 0.20313(18) 0.27999(11)
H31A H -0.2155 0.1544 0.2434
H32A H -0.3079 0.2426 0.2836
C38A C -0.1280(3) 0.27733(19) 0.25879(12)
H33A H -0.1398 0.3170 0.2130
H34A H -0.0444 0.2374 0.2524
C39A C -0.1220(2) 0.29112(18) 0.37736(11)
H35A H -0.0381 0.2518 0.3738
H36A H -0.1305 0.3400 0.4139
C40A C -0.2174(2) 0.21687(17) 0.39887(11)
H37A H -0.3011 0.2567 0.4053
H38A H -0.2053 0.1775 0.4448
C41A C 0.0501(2) 0.03069(17) 0.43039(11)
H39A H 0.1255 -0.0201 0.4229
H40A H 0.0479 0.0784 0.3865
C42A C -0.0548(2) -0.09219(17) 0.50889(10)
H41A H 0.0189 -0.1449 0.5025
H42A H -0.1297 -0.1291 0.5194
C43A C 0.5239(2) 0.06100(17) 0.43575(11)
H43A H 0.5192 0.1313 0.4514
H44A H 0.5401 0.0675 0.3834
C44A C 0.5972(2) -0.01807(19) 0.53799(11)
H45A H 0.5942 0.0503 0.5562
H46A H 0.6647 -0.0658 0.5563
C45A C 0.0904(2) -0.44442(19) 0.24944(11)
H47A H 0.0766 -0.4459 0.3016
H48A H 0.0832 -0.5150 0.2375
C46A C 0.2183(2) -0.4165(2) 0.21977(11)
H49A H 0.2803 -0.4702 0.2381
H50A H 0.2281 -0.3490 0.2356
C47A C 0.1477(2) -0.33292(18) 0.11789(11)
H51A H 0.1531 -0.2641 0.1334
H52A H 0.1623 -0.3264 0.0655
C48A C 0.0213(2) -0.36513(19) 0.14562(10)
H53A H 0.0161 -0.4340 0.1302
H54A H -0.0420 -0.3140 0.1262
C49_2 C -0.6267(2) 0.27138(17) 0.83119(11)
H55_2 H -0.6159 0.1960 0.8253
H56_2 H -0.6631 0.2806 0.8811
C50_2 C -0.5038(2) 0.31226(17) 0.81361(11)
H57_2 H -0.4466 0.2723 0.8438
H58_2 H -0.4676 0.3032 0.7636
C51_2 C -0.5999(2) 0.47826(18) 0.77997(12)
H59_2 H -0.5619 0.4741 0.7297
H60_2 H -0.6128 0.5525 0.7892
C52_2 C -0.7229(2) 0.43588(16) 0.79347(12)
H61_2 H -0.7654 0.4479 0.8420
H62_2 H -0.7755 0.4737 0.7599
O9 O -0.39614(18) 0.64248(14) 0.71333(9)
C53 C -0.3908(3) 0.7398(2) 0.73800(13)
H63 H -0.4147 0.7346 0.7901
H64 H -0.4504 0.7936 0.7175
O10 O -0.22627(17) 0.77943(13) 0.64249(9)
C54 C -0.2633(3) 0.7713(2) 0.71768(13)
H65 H -0.2612 0.8392 0.7353
H66 H -0.2043 0.7190 0.7399
C55 C -0.2320(3) 0.6818(2) 0.61687(13)
H67 H -0.1712 0.6278 0.6361
H68 H -0.2102 0.6882 0.5646
C56 C -0.3591(3) 0.6498(2) 0.63856(14)
H69 H -0.4187 0.7014 0.6162
H70 H -0.3610 0.5814 0.6215
loop_
_geom_bond_atom_site_label_1
_geom_bond_atom_site_label_2
_geom_bond_site_symmetry_1
_geom_bond_site_symmetry_2
Na1 O1 1_555 1_555
Na2 O5 1_555 1_555
Na3 O6 1_555 1_555
O1 C37 1_555 1_555
O2 C38 1_555 1_555
O3 Na1 1_555 1_555
O4 Na1 1_555 1_555
O5 C45 1_555 1_555
O6 C46 1_555 1_555
O7 Na2 1_555 1_555
O8 C50 1_555 1_555
N1 Na1 1_555 1_555
N2 Na1 1_555 1_555
N3 Na3 1_555 1_555
C1 N1 1_555 1_555
C2 C1 1_555 1_555
H1 C2 1_555 1_555
C3 C2 1_555 1_555
H2 C3 1_555 1_555
C4 C3 1_555 1_555
H3 C4 1_555 1_555
C5 C4 1_555 1_555
H4 C5 1_555 1_555
C6 C1 1_555 1_555
H5 C6 1_555 1_555
C7 N1 1_555 1_555
C8 C7 1_555 1_555
H6 C8 1_555 1_555
C9 C8 1_555 1_555
H7 C9 1_555 1_555
C10 C9 1_555 1_555
H8 C10 1_555 1_555
C11 C10 1_555 1_555
H9 C11 1_555 1_555
C12 C7 1_555 1_555
H10 C12 1_555 1_555
C13 N2 1_555 1_555
C14 C13 1_555 1_555
H11 C14 1_555 1_555
C15 C14 1_555 1_555
H12 C15 1_555 1_555
C16 C15 1_555 1_555
H13 C16 1_555 1_555
C17 C16 1_555 1_555
H14 C17 1_555 1_555
C18 C13 1_555 1_555
H15 C18 1_555 1_555
C19 N2 1_555 1_555
C20 C19 1_555 1_555
H16 C20 1_555 1_555
C21 C20 1_555 1_555
H17 C21 1_555 1_555
C22 C21 1_555 1_555
H18 C22 1_555 1_555
C23 C22 1_555 1_555
H19 C23 1_555 1_555
C24 C19 1_555 1_555
H20 C24 1_555 1_555
C25 N3 1_555 1_555
C26 C25 1_555 1_555
H21 C26 1_555 1_555
C27 C26 1_555 1_555
H22 C27 1_555 1_555
C28 C27 1_555 1_555
H23 C28 1_555 1_555
C29 C28 1_555 1_555
H24 C29 1_555 1_555
C30 C25 1_555 1_555
H25 C30 1_555 1_555
C31 N3 1_555 1_555
C32 C31 1_555 1_555
H26 C32 1_555 1_555
C33 C32 1_555 1_555
H27 C33 1_555 1_555
C34 C33 1_555 1_555
H28 C34 1_555 1_555
C35 C34 1_555 1_555
H29 C35 1_555 1_555
C36 C31 1_555 1_555
H30 C36 1_555 1_555
C37 H31 1_555 1_555
H32 C37 1_555 1_555
C38 C37 1_555 1_555
H33 C38 1_555 1_555
H34 C38 1_555 1_555
C39 O2 1_555 1_555
H35 C39 1_555 1_555
H36 C39 1_555 1_555
C40 O1 1_555 1_555
H37 C40 1_555 1_555
H38 C40 1_555 1_555
C41 O3 1_555 1_555
H39 C41 1_555 1_555
H40 C41 1_555 1_555
C42 O3 1_555 1_555
H41 C42 1_555 1_555
H42 C42 1_555 1_555
C43 O4 1_555 1_555
H43 C43 1_555 1_555
H44 C43 1_555 1_555
C44 O4 1_555 1_555
H45 C44 1_555 1_555
H46 C44 1_555 1_555
C45 H47 1_555 1_555
H48 C45 1_555 1_555
C46 C45 1_555 1_555
H49 C46 1_555 1_555
H50 C46 1_555 1_555
C47 O6 1_555 1_555
H51 C47 1_555 1_555
H52 C47 1_555 1_555
C48 O5 1_555 1_555
H53 C48 1_555 1_555
H54 C48 1_555 1_555
C49 O7 1_555 1_555
H55 C49 1_555 1_555
H56 C49 1_555 1_555
C50 C49 1_555 1_555
H57 C50 1_555 1_555
H58 C50 1_555 1_555
C51 O8 1_555 1_555
H59 C51 1_555 1_555
H60 C51 1_555 1_555
C52 O7 1_555 1_555
H61 C52 1_555 1_555
H62 C52 1_555 1_555
O9 C53 1_555 1_555
C53 H63 1_555 1_555
H64 C53 1_555 1_555
O10 C54 1_555 1_555
C54 C53 1_555 1_555
H65 C54 1_555 1_555
H66 C54 1_555 1_555
C55 O10 1_555 1_555
H67 C55 1_555 1_555
H68 C55 1_555 1_555
C56 O9 1_555 1_555
H69 C56 1_555 1_555
H70 C56 1_555 1_555
Na1A O1A 1_555 1_555
Na1A_2 O4A 1_555 1_555
Na2A O5A 1_555 1_555
Na2_2 O7_2 1_555 1_555
Na3_2 O8 1_555 1_555
Na3A N3 1_555 1_555
Na3A_2 N3_2 1_555 1_555
Na3A_3 O6A 1_555 1_555
O1A C37A 1_555 1_555
O2A C38A 1_555 1_555
O3A Na1A 1_555 1_555
O4A C43A 1_555 1_555
O4A_2 Na1A 1_555 1_555
O5A C45A 1_555 1_555
O6A C46A 1_555 1_555
O6_2 Na3_2 1_555 1_555
O7_2 C49_2 1_555 1_555
O7A Na2A 1_555 1_555
O8_2 Na3 1_555 1_555
N1A Na1A 1_555 1_555
N2A Na1A 1_555 1_555
N3A Na3 1_555 1_555
N3_2 Na3_2 1_555 1_555
N3A_2 Na3_2 1_555 1_555
C1A N1A 1_555 1_555
C2A C1A 1_555 1_555
H1A C2A 1_555 1_555
C3A C2A 1_555 1_555
H2A C3A 1_555 1_555
C4A C3A 1_555 1_555
H3A C4A 1_555 1_555
C5A C4A 1_555 1_555
H4A C5A 1_555 1_555
C6A C1A 1_555 1_555
H5A C6A 1_555 1_555
C7A N1A 1_555 1_555
C8A C7A 1_555 1_555
H6A C8A 1_555 1_555
C9A C8A 1_555 1_555
H7A C9A 1_555 1_555
C10A C9A 1_555 1_555
H8A C10A 1_555 1_555
C11A C10A 1_555 1_555
H9A C11A 1_555 1_555
C12A C7A 1_555 1_555
H10A C12A 1_555 1_555
C13A N2A 1_555 1_555
C14A C13A 1_555 1_555
H11A C14A 1_555 1_555
C15A C14A 1_555 1_555
H12A C15A 1_555 1_555
C16A C15A 1_555 1_555
H13A C16A 1_555 1_555
C17A C16A 1_555 1_555
H14A C17A 1_555 1_555
C18A C13A 1_555 1_555
H15A C18A 1_555 1_555
C19A N2A 1_555 1_555
C20A C19A 1_555 1_555
H16A C20A 1_555 1_555
C21A C20A 1_555 1_555
H17A C21A 1_555 1_555
C22A C21A 1_555 1_555
H18A C22A 1_555 1_555
C23A C22A 1_555 1_555
H19A C23A 1_555 1_555
C24A C19A 1_555 1_555
H20A C24A 1_555 1_555
C25A N3A 1_555 1_555
C26A C25A 1_555 1_555
H21A C26A 1_555 1_555
C27A C26A 1_555 1_555
H22A C27A 1_555 1_555
C28A C27A 1_555 1_555
H23A C28A 1_555 1_555
C29A C28A 1_555 1_555
H24A C29A 1_555 1_555
C30A C25A 1_555 1_555
H25A C30A 1_555 1_555
C31A N3A 1_555 1_555
C32A C31A 1_555 1_555
H26A C32A 1_555 1_555
C33A C32A 1_555 1_555
H27A C33A 1_555 1_555
C34A C33A 1_555 1_555
H28A C34A 1_555 1_555
C35A C34A 1_555 1_555
H29A C35A 1_555 1_555
C36A C31A 1_555 1_555
H30A C36A 1_555 1_555
C37A H31A 1_555 1_555
H32A C37A 1_555 1_555
C38A C37A 1_555 1_555
H33A C38A 1_555 1_555
H34A C38A 1_555 1_555
C39A O2A 1_555 1_555
H35A C39A 1_555 1_555
H36A C39A 1_555 1_555
C40A O1A 1_555 1_555
H37A C40A 1_555 1_555
H38A C40A 1_555 1_555
C41A C42 1_555 1_555
H39A C41A 1_555 1_555
H40A C41A 1_555 1_555
C42A C41 1_555 1_555
H41A C42A 1_555 1_555
H42A C42A 1_555 1_555
C43A C44 1_555 1_555
H43A C43A 1_555 1_555
H44A C43A 1_555 1_555
C44A C43 1_555 1_555
H45A C44A 1_555 1_555
H46A C44A 1_555 1_555
C45A H47A 1_555 1_555
H48A C45A 1_555 1_555
C46A C45A 1_555 1_555
H49A C46A 1_555 1_555
H50A C46A 1_555 1_555
C47A O6A 1_555 1_555
H51A C47A 1_555 1_555
H52A C47A 1_555 1_555
C48A O5A 1_555 1_555
H53A C48A 1_555 1_555
H54A C48A 1_555 1_555
C49_2 H55_2 1_555 1_555
H56_2 C49_2 1_555 1_555
C50_2 O8_2 1_555 1_555
H57_2 C50_2 1_555 1_555
H58_2 C50_2 1_555 1_555
C51_2 O8_2 1_555 1_555
H59_2 C51_2 1_555 1_555
H60_2 C51_2 1_555 1_555
C52_2 O7_2 1_555 1_555
H61_2 C52_2 1_555 1_555
H62_2 C52_2 1_555 1_555
Na2 N1 1_555 1_555
Na2 N2 1_555 1_555
C5 C6 1_555 1_555
C11 C12 1_555 1_555
C17 C18 1_555 1_555
C23 C24 1_555 1_555
C29 C30 1_555 1_555
C35 C36 1_555 1_555
C39 C40 1_555 1_555
C47 C48 1_555 1_555
C51 C52 1_555 1_555
C55 C56 1_555 1_555
Na2A N1A 1_555 1_555
Na2A N2A 1_555 1_555
Na3A N3A 1_555 1_555
Na3A_2 N3A_2 1_555 1_555
O3A C41A 1_555 1_555
O3A C42A 1_555 1_555
O4A C44A 1_555 1_555
C5A C6A 1_555 1_555
C11A C12A 1_555 1_555
C17A C18A 1_555 1_555
C23A C24A 1_555 1_555
C29A C30A 1_555 1_555
C35A C36A 1_555 1_555
C39A C40A 1_555 1_555
C47A C48A 1_555 1_555
C49_2 C50_2 1_555 1_555
C51_2 C52_2 1_555 1_555

#END
