
#######################################################################
#
#                 Cambridge Crystallographic Data Centre
#                                CCDC 
#
#######################################################################
#
# If this CIF has been generated from an entry in the Cambridge 
# Structural Database, then it will include bibliographic, chemical, 
# crystal, experimental, refinement or atomic coordinate data resulting 
# from the CCDC's data processing and validation procedures.
#
#######################################################################

data_NAVFAT
_symmetry_cell_setting           triclinic
_symmetry_space_group_name_H-M   'P -1'
_symmetry_Int_Tables_number      2
_space_group_name_Hall           '-P 1'
loop_
_symmetry_equiv_pos_site_id
_symmetry_equiv_pos_as_xyz
1 x,y,z
2 -x,-y,-z
_cell_length_a                   9.4064(12)
_cell_length_b                   10.3596(12)
_cell_length_c                   12.0414(17)
_cell_angle_alpha                74.692(6)
_cell_angle_beta                 70.217(6)
_cell_angle_gamma                80.756(6)
_cell_volume                     1061.68
loop_
_atom_site_label
_atom_site_type_symbol
_atom_site_fract_x
_atom_site_fract_y
_atom_site_fract_z
K1 K 0.01149(7) 0.36620(6) 0.90456(6)
K2 K -0.17202(7) 0.61219(6) 0.63579(6)
O1 O 0.1440(2) 0.1109(2) 0.9071(2)
N1 N -0.0832(2) 0.3469(2) 0.7107(2)
C1 C 0.1754(3) 0.3988(3) 0.6223(3)
H1 H 0.1460 0.4842 0.6418
C2 C 0.3264(4) 0.3670(3) 0.5671(3)
H2 H 0.3977 0.4304 0.5507
C3 C 0.3772(4) 0.2441(4) 0.5348(3)
H3 H 0.4815 0.2229 0.4961
C4 C 0.2699(3) 0.1543(3) 0.5613(3)
H4 H 0.3023 0.0694 0.5411
C5 C 0.1176(3) 0.1831(3) 0.6159(2)
H5 H 0.0485 0.1186 0.6304
C6 C 0.0605(3) 0.3090(3) 0.6517(2)
C7 C -0.1970(3) 0.2515(3) 0.7401(3)
H6 H -0.1509 0.1587 0.7642
C8 C -0.3304(3) 0.2808(3) 0.8470(3)
H7 H -0.2952 0.2730 0.9165
H8 H -0.4063 0.2164 0.8684
H9 H -0.3758 0.3721 0.8250
C9 C -0.2511(3) 0.2581(3) 0.6323(3)
H10 H -0.1645 0.2389 0.5641
H11 H -0.2983 0.3482 0.6086
H12 H -0.3253 0.1917 0.6551
N2 N 0.0968(2) 0.6317(2) 0.8435(2)
C10 C -0.1726(3) 0.6712(3) 0.8859(3)
H13 H -0.1849 0.5973 0.9538
C11 C -0.3003(3) 0.7420(3) 0.8622(3)
H14 H -0.3975 0.7161 0.9142
C12 C -0.2895(3) 0.8502(3) 0.7640(3)
H15 H -0.3778 0.8995 0.7486
C13 C -0.1462(3) 0.8845(3) 0.6889(3)
H16 H -0.1371 0.9579 0.6207
C14 C -0.0162(3) 0.8150(3) 0.7101(3)
H17 H 0.0796 0.8413 0.6553
C15 C -0.0209(3) 0.7047(3) 0.8118(2)
C16 C 0.2478(3) 0.6687(3) 0.7638(3)
H18 H 0.2498 0.6835 0.6778
C17 C 0.3645(3) 0.5537(3) 0.7882(3)
H19 H 0.3380 0.4715 0.7767
H20 H 0.3655 0.5397 0.8717
H21 H 0.4651 0.5759 0.7320
C18 C 0.2904(3) 0.7968(3) 0.7817(3)
H22 H 0.2124 0.8698 0.7712
H23 H 0.3882 0.8218 0.7219
H24 H 0.2981 0.7808 0.8635
C19 C 0.0744(3) 0.0079(3) 1.0056(3)
H25 H 0.0594 0.0321 1.0832
H26 H 0.1392 -0.0773 1.0036
C20 C 0.3028(4) 0.1084(3) 0.8834(3)
H27 H 0.3517 0.0235 0.8622
H28 H 0.3231 0.1167 0.9558
H29 H 0.3432 0.1834 0.8159
K1A K -0.01149(7) -0.36620(6) 1.09544(6)
K1A_2 K -0.01149(7) 0.63380(6) 1.09544(6)
K2A K 0.17202(7) -0.61219(6) 1.36421(6)
O1A O -0.1440(2) -0.1109(2) 1.0929(2)
N1A N 0.0832(2) -0.3469(2) 1.2893(2)
C1A C -0.1754(3) -0.3988(3) 1.3777(3)
H1A H -0.1460 -0.4842 1.3582
C2A C -0.3264(4) -0.3670(3) 1.4329(3)
H2A H -0.3977 -0.4304 1.4493
C3A C -0.3772(4) -0.2441(4) 1.4652(3)
H3A H -0.4815 -0.2229 1.5039
C4A C -0.2699(3) -0.1543(3) 1.4387(3)
H4A H -0.3023 -0.0694 1.4589
C5A C -0.1176(3) -0.1831(3) 1.3841(2)
H5A H -0.0485 -0.1186 1.3696
C6A C -0.0605(3) -0.3090(3) 1.3483(2)
C7A C 0.1970(3) -0.2515(3) 1.2599(3)
H6A H 0.1509 -0.1587 1.2358
C8A C 0.3304(3) -0.2808(3) 1.1530(3)
H7A H 0.2952 -0.2730 1.0835
H8A H 0.4063 -0.2164 1.1316
H9A H 0.3758 -0.3721 1.1750
C9A C 0.2511(3) -0.2581(3) 1.3677(3)
H10A H 0.1645 -0.2389 1.4359
H11A H 0.2983 -0.3482 1.3914
H12A H 0.3253 -0.1917 1.3449
N2A N -0.0968(2) 0.3683(2) 1.1565(2)
N2A_2 N -0.0968(2) -0.6317(2) 1.1565(2)
N2_2 N 0.0968(2) -0.3683(2) 0.8435(2)
C10A C 0.1726(3) 0.3288(3) 1.1141(3)
H13A H 0.1849 0.4027 1.0462
C11A C 0.3003(3) 0.2580(3) 1.1378(3)
H14A H 0.3975 0.2839 1.0858
C12A C 0.2895(3) 0.1498(3) 1.2360(3)
H15A H 0.3778 0.1005 1.2514
C13A C 0.1462(3) 0.1155(3) 1.3111(3)
H16A H 0.1371 0.0421 1.3793
C14A C 0.0162(3) 0.1850(3) 1.2899(3)
H17A H -0.0796 0.1587 1.3447
C15A C 0.0209(3) 0.2953(3) 1.1882(2)
C16A C -0.2478(3) 0.3313(3) 1.2362(3)
H18A H -0.2498 0.3165 1.3222
C17A C -0.3645(3) 0.4463(3) 1.2118(3)
H19A H -0.3380 0.5285 1.2233
H20A H -0.3655 0.4603 1.1283
H21A H -0.4651 0.4241 1.2680
C18A C -0.2904(3) 0.2032(3) 1.2183(3)
H22A H -0.2124 0.1302 1.2288
H23A H -0.3882 0.1782 1.2781
H24A H -0.2981 0.2192 1.1365
C19A C -0.0744(3) -0.0079(3) 0.9944(3)
H25A H -0.0594 -0.0321 0.9168
H26A H -0.1392 0.0773 0.9964
C20A C -0.3028(4) -0.1084(3) 1.1166(3)
H27A H -0.3517 -0.0235 1.1378
H28A H -0.3231 -0.1167 1.0442
H29A H -0.3432 -0.1834 1.1841
loop_
_geom_bond_atom_site_label_1
_geom_bond_atom_site_label_2
_geom_bond_site_symmetry_1
_geom_bond_site_symmetry_2
K1 O1 1_555 1_555
K2 N1 1_555 1_555
O1 C19 1_555 1_555
N1 K1 1_555 1_555
C1 H1 1_555 1_555
C2 C1 1_555 1_555
H2 C2 1_555 1_555
C3 C2 1_555 1_555
H3 C3 1_555 1_555
C4 C3 1_555 1_555
H4 C4 1_555 1_555
C5 C4 1_555 1_555
H5 C5 1_555 1_555
C6 N1 1_555 1_555
C7 N1 1_555 1_555
H6 C7 1_555 1_555
C8 C7 1_555 1_555
H7 C8 1_555 1_555
H8 C8 1_555 1_555
H9 C8 1_555 1_555
C9 C7 1_555 1_555
H10 C9 1_555 1_555
H11 C9 1_555 1_555
H12 C9 1_555 1_555
N2 K1 1_555 1_555
C10 H13 1_555 1_555
C11 C10 1_555 1_555
H14 C11 1_555 1_555
C12 C11 1_555 1_555
H15 C12 1_555 1_555
C13 C12 1_555 1_555
H16 C13 1_555 1_555
C14 C13 1_555 1_555
H17 C14 1_555 1_555
C15 N2 1_555 1_555
C16 N2 1_555 1_555
H18 C16 1_555 1_555
C17 C16 1_555 1_555
H19 C17 1_555 1_555
H20 C17 1_555 1_555
H21 C17 1_555 1_555
C18 C16 1_555 1_555
H22 C18 1_555 1_555
H23 C18 1_555 1_555
H24 C18 1_555 1_555
C19 H25 1_555 1_555
H26 C19 1_555 1_555
C20 O1 1_555 1_555
H27 C20 1_555 1_555
H28 C20 1_555 1_555
H29 C20 1_555 1_555
K1A O1A 1_555 1_555
K1A_2 N2 1_555 1_555
K2A N1A 1_555 1_555
O1A C19A 1_555 1_555
N1A K1A 1_555 1_555
C1A H1A 1_555 1_555
C2A C1A 1_555 1_555
H2A C2A 1_555 1_555
C3A C2A 1_555 1_555
H3A C3A 1_555 1_555
C4A C3A 1_555 1_555
H4A C4A 1_555 1_555
C5A C4A 1_555 1_555
H5A C5A 1_555 1_555
C6A N1A 1_555 1_555
C7A N1A 1_555 1_555
H6A C7A 1_555 1_555
C8A C7A 1_555 1_555
H7A C8A 1_555 1_555
H8A C8A 1_555 1_555
H9A C8A 1_555 1_555
C9A C7A 1_555 1_555
H10A C9A 1_555 1_555
H11A C9A 1_555 1_555
H12A C9A 1_555 1_555
N2A K1 1_555 1_555
N2A_2 K1A 1_555 1_555
N2_2 K1A 1_555 1_555
C10A H13A 1_555 1_555
C11A C10A 1_555 1_555
H14A C11A 1_555 1_555
C12A C11A 1_555 1_555
H15A C12A 1_555 1_555
C13A C12A 1_555 1_555
H16A C13A 1_555 1_555
C14A C13A 1_555 1_555
H17A C14A 1_555 1_555
C15A N2A 1_555 1_555
C16A N2A 1_555 1_555
H18A C16A 1_555 1_555
C17A C16A 1_555 1_555
H19A C17A 1_555 1_555
H20A C17A 1_555 1_555
H21A C17A 1_555 1_555
C18A C16A 1_555 1_555
H22A C18A 1_555 1_555
H23A C18A 1_555 1_555
H24A C18A 1_555 1_555
C19A C19 1_555 1_555
H25A C19A 1_555 1_555
H26A C19A 1_555 1_555
C20A O1A 1_555 1_555
H27A C20A 1_555 1_555
H28A C20A 1_555 1_555
H29A C20A 1_555 1_555
C1 C6 1_555 1_555
C5 C6 1_555 1_555
C10 C15 1_555 1_555
C14 C15 1_555 1_555
K1A_2 N2A 1_555 1_555
C1A C6A 1_555 1_555
C5A C6A 1_555 1_555
C10A C15A 1_555 1_555
C14A C15A 1_555 1_555

#END
