
#######################################################################
#
#                 Cambridge Crystallographic Data Centre
#                                CCDC 
#
#######################################################################
#
# If this CIF has been generated from an entry in the Cambridge 
# Structural Database, then it will include bibliographic, chemical, 
# crystal, experimental, refinement or atomic coordinate data resulting 
# from the CCDC's data processing and validation procedures.
#
#######################################################################

data_NAVPIK
_symmetry_cell_setting           tetragonal
_symmetry_space_group_name_H-M   'P 4/n'
_symmetry_Int_Tables_number      85
_space_group_name_Hall           '-P 4a'
loop_
_symmetry_equiv_pos_site_id
_symmetry_equiv_pos_as_xyz
1 x,y,z
2 1/2-y,x,z
3 y,1/2-x,z
4 1/2-x,1/2-y,z
5 -x,-y,-z
6 1/2+y,-x,-z
7 -y,1/2+x,-z
8 1/2+x,1/2+y,-z
_cell_length_a                   18.265(1)
_cell_length_b                   18.265(1)
_cell_length_c                   8.621(1)
_cell_angle_alpha                90
_cell_angle_beta                 90
_cell_angle_gamma                90
_cell_volume                     2876.05
loop_
_atom_site_label
_atom_site_type_symbol
_atom_site_fract_x
_atom_site_fract_y
_atom_site_fract_z
Hg1 Hg 0.2500 0.2500 0.40046(3)
Hg2 Hg 0.7500 0.2500 0.5000
Cl1 Cl 0.2500 0.2500 0.1372(2)
Cl2 Cl 0.2500 0.2500 0.6645(3)
Cl3 Cl 0.7500 0.2500 0.23243(14)
S1 S 0.38178(4) 0.41706(4) 0.33639(10)
O1 O 0.38613(12) 0.53537(12) 0.2467(3)
O2 O 0.66125(14) 0.37216(14) 0.5165(3)
H1 H 0.651(2) 0.397(2) 0.586(4)
O3 O 0.38065(13) 0.32872(13) 0.3915(3)
N1 N 0.50178(13) 0.48883(13) 0.2347(3)
N2 N 0.52342(13) 0.37353(13) 0.3252(3)
C1 C 0.47610(16) 0.42722(16) 0.2960(4)
C2 C 0.45223(16) 0.54181(16) 0.2103(4)
C3 C 0.47942(19) 0.61074(17) 0.1385(3)
C4 C 0.5529(2) 0.6188(2) 0.0997(4)
H2 H 0.585(2) 0.579(2) 0.116(4)
C5 C 0.5769(3) 0.6834(3) 0.0336(5)
H3 H 0.623(3) 0.689(3) 0.018(5)
C6 C 0.5289(4) 0.7396(3) 0.0068(5)
H4 H 0.545(3) 0.775(3) -0.036(6)
C7 C 0.4568(4) 0.7320(2) 0.0447(5)
H5 H 0.428(3) 0.763(3) 0.025(5)
C8 C 0.4314(2) 0.6682(2) 0.1115(4)
H6 H 0.384(2) 0.663(2) 0.138(4)
C9 C 0.59945(17) 0.3806(2) 0.2700(4)
H7 H 0.5999(18) 0.4080(18) 0.177(4)
H8 H 0.6159(19) 0.3321(19) 0.251(4)
C10 C 0.64945(19) 0.4178(2) 0.3846(4)
H9 H 0.694(2) 0.4241(18) 0.334(4)
H10 H 0.6270(17) 0.4628(18) 0.410(4)
C11 C 0.5072(2) 0.3053(2) 0.4089(5)
H11 H 0.503(2) 0.270(2) 0.337(4)
H12 H 0.544(2) 0.298(2) 0.477(5)
C12 C 0.4380(2) 0.3098(2) 0.4976(5)
H13 H 0.424(2) 0.264(2) 0.540(4)
H14 H 0.4400(19) 0.342(2) 0.574(4)
Hg2A Hg 0.2500 0.7500 0.5000
Hg2A_2 Hg 0.2500 -0.2500 0.5000
Hg2_2 Hg -0.2500 0.2500 0.5000
Cl3E Cl 0.7500 0.2500 0.76757(14)
S1A S 0.08294(4) 0.38178(4) 0.33639(10)
S1B S 0.41706(4) 0.11822(4) 0.33639(10)
S1C S 0.11822(4) 0.08294(4) 0.33639(10)
O1A O -0.03537(12) 0.38613(12) 0.2467(3)
O1B O 0.53537(12) 0.11387(12) 0.2467(3)
O1C O 0.11387(12) -0.03537(12) 0.2467(3)
O2A O 0.12784(14) 0.66125(14) 0.5165(3)
O2B O 0.37216(14) -0.16125(14) 0.5165(3)
O2C O -0.16125(14) 0.12784(14) 0.5165(3)
O2E O 0.87216(14) 0.33875(14) 0.4835(3)
O2F O 0.62784(14) 0.16125(14) 0.4835(3)
O2C_2 O 0.83875(14) 0.12784(14) 0.5165(3)
H1A H 0.103(2) 0.651(2) 0.586(4)
H1B H 0.397(2) -0.151(2) 0.586(4)
H1C H -0.151(2) 0.103(2) 0.586(4)
H1E H 0.897(2) 0.349(2) 0.414(4)
H1F H 0.603(2) 0.151(2) 0.414(4)
H1C_2 H 0.849(2) 0.103(2) 0.586(4)
O3A O 0.17128(13) 0.38065(13) 0.3915(3)
O3B O 0.32872(13) 0.11935(13) 0.3915(3)
O3C O 0.11935(13) 0.17128(13) 0.3915(3)
N1A N 0.01117(13) 0.50178(13) 0.2347(3)
N1B N 0.48883(13) -0.00178(13) 0.2347(3)
N1C N -0.00178(13) 0.01117(13) 0.2347(3)
N2A N 0.12647(13) 0.52342(13) 0.3252(3)
N2B N 0.37353(13) -0.02342(13) 0.3252(3)
N2C N -0.02342(13) 0.12647(13) 0.3252(3)
C1A C 0.07278(16) 0.47610(16) 0.2960(4)
C1B C 0.42722(16) 0.02390(16) 0.2960(4)
C1C C 0.02390(16) 0.07278(16) 0.2960(4)
C2A C -0.04181(16) 0.45223(16) 0.2103(4)
C2B C 0.54181(16) 0.04777(16) 0.2103(4)
C2C C 0.04777(16) -0.04181(16) 0.2103(4)
C3A C -0.11074(17) 0.47942(19) 0.1385(3)
C3B C 0.61074(17) 0.02058(19) 0.1385(3)
C3C C 0.02058(19) -0.11074(17) 0.1385(3)
C4A C -0.1188(2) 0.5529(2) 0.0997(4)
C4B C 0.6188(2) -0.0529(2) 0.0997(4)
C4C C -0.0529(2) -0.1188(2) 0.0997(4)
H2A H -0.079(2) 0.585(2) 0.116(4)
H2B H 0.579(2) -0.085(2) 0.116(4)
H2C H -0.085(2) -0.079(2) 0.116(4)
C5A C -0.1834(3) 0.5769(3) 0.0336(5)
C5B C 0.6834(3) -0.0769(3) 0.0336(5)
C5C C -0.0769(3) -0.1834(3) 0.0336(5)
H3A H -0.189(3) 0.623(3) 0.018(5)
H3B H 0.689(3) -0.123(3) 0.018(5)
H3C H -0.123(3) -0.189(3) 0.018(5)
C6A C -0.2396(3) 0.5289(4) 0.0068(5)
C6B C 0.7396(3) -0.0289(4) 0.0068(5)
C6C C -0.0289(4) -0.2396(3) 0.0068(5)
H4A H -0.275(3) 0.545(3) -0.036(6)
H4B H 0.775(3) -0.045(3) -0.036(6)
H4C H -0.045(3) -0.275(3) -0.036(6)
C7A C -0.2320(2) 0.4568(4) 0.0447(5)
C7B C 0.7320(2) 0.0432(4) 0.0447(5)
C7C C 0.0432(4) -0.2320(2) 0.0447(5)
H5A H -0.263(3) 0.428(3) 0.025(5)
H5B H 0.763(3) 0.072(3) 0.025(5)
H5C H 0.072(3) -0.263(3) 0.025(5)
C8A C -0.1682(2) 0.4314(2) 0.1115(4)
C8B C 0.6682(2) 0.0686(2) 0.1115(4)
C8C C 0.0686(2) -0.1682(2) 0.1115(4)
H6A H -0.163(2) 0.384(2) 0.138(4)
H6B H 0.663(2) 0.116(2) 0.138(4)
H6C H 0.116(2) -0.163(2) 0.138(4)
C9A C 0.1194(2) 0.59945(17) 0.2700(4)
C9B C 0.3806(2) -0.09945(17) 0.2700(4)
C9C C -0.09945(17) 0.1194(2) 0.2700(4)
H7A H 0.0920(18) 0.5999(18) 0.177(4)
H7B H 0.4080(18) -0.0999(18) 0.177(4)
H7C H -0.0999(18) 0.0920(18) 0.177(4)
H8A H 0.1679(19) 0.6159(19) 0.251(4)
H8B H 0.3321(19) -0.1159(19) 0.251(4)
H8C H -0.1159(19) 0.1679(19) 0.251(4)
C10A C 0.0822(2) 0.64945(19) 0.3846(4)
C10B C 0.4178(2) -0.14945(19) 0.3846(4)
C10C C -0.14945(19) 0.0822(2) 0.3846(4)
H9A H 0.0759(18) 0.694(2) 0.334(4)
H9B H 0.4241(18) -0.194(2) 0.334(4)
H9C H -0.194(2) 0.0759(18) 0.334(4)
H10A H 0.0372(18) 0.6270(17) 0.410(4)
H10B H 0.4628(18) -0.1270(17) 0.410(4)
H10C H -0.1270(17) 0.0372(18) 0.410(4)
C11A C 0.1947(2) 0.5072(2) 0.4089(5)
C11B C 0.3053(2) -0.0072(2) 0.4089(5)
C11C C -0.0072(2) 0.1947(2) 0.4089(5)
H11A H 0.230(2) 0.503(2) 0.337(4)
H11B H 0.270(2) -0.003(2) 0.337(4)
H11C H -0.003(2) 0.230(2) 0.337(4)
H12A H 0.202(2) 0.544(2) 0.477(5)
H12B H 0.298(2) -0.044(2) 0.477(5)
H12C H -0.044(2) 0.202(2) 0.477(5)
C12A C 0.1902(2) 0.4380(2) 0.4976(5)
C12B C 0.3098(2) 0.0620(2) 0.4976(5)
C12C C 0.0620(2) 0.1902(2) 0.4976(5)
H13A H 0.236(2) 0.424(2) 0.540(4)
H13B H 0.264(2) 0.076(2) 0.540(4)
H13C H 0.076(2) 0.236(2) 0.540(4)
H14A H 0.158(2) 0.4400(19) 0.574(4)
H14B H 0.342(2) 0.0600(19) 0.574(4)
H14C H 0.0600(19) 0.158(2) 0.574(4)
loop_
_geom_bond_atom_site_label_1
_geom_bond_atom_site_label_2
_geom_bond_site_symmetry_1
_geom_bond_site_symmetry_2
Hg1 Cl1 1_555 1_555
Hg2 Cl3 1_555 1_555
Cl2 Hg1 1_555 1_555
S1 O3 1_555 1_555
O1 C2 1_555 1_555
O2 Hg2 1_555 1_555
H1 O2 1_555 1_555
O3 Hg1 1_555 1_555
N1 C1 1_555 1_555
N2 C1 1_555 1_555
C1 S1 1_555 1_555
C2 N1 1_555 1_555
C3 C2 1_555 1_555
C4 C3 1_555 1_555
H2 C4 1_555 1_555
C5 C4 1_555 1_555
H3 C5 1_555 1_555
C6 C5 1_555 1_555
H4 C6 1_555 1_555
C7 C6 1_555 1_555
H5 C7 1_555 1_555
C8 C3 1_555 1_555
H6 C8 1_555 1_555
C9 N2 1_555 1_555
H7 C9 1_555 1_555
H8 C9 1_555 1_555
C10 O2 1_555 1_555
H9 C10 1_555 1_555
H10 C10 1_555 1_555
C11 N2 1_555 1_555
H11 C11 1_555 1_555
H12 C11 1_555 1_555
C12 O3 1_555 1_555
H13 C12 1_555 1_555
H14 C12 1_555 1_555
Hg2A O2A 1_555 1_555
Hg2A_2 O2B 1_555 1_555
Hg2_2 O2C 1_555 1_555
Cl3E Hg2 1_555 1_555
S1A O3A 1_555 1_555
S1B O3B 1_555 1_555
S1C O3C 1_555 1_555
O1A C2A 1_555 1_555
O1B C2B 1_555 1_555
O1C C2C 1_555 1_555
O2A H1A 1_555 1_555
O2B H1B 1_555 1_555
O2C H1C 1_555 1_555
O2E Hg2 1_555 1_555
O2F Hg2 1_555 1_555
O2C_2 Hg2 1_555 1_555
H1E O2E 1_555 1_555
H1F O2F 1_555 1_555
H1C_2 O2C_2 1_555 1_555
O3A Hg1 1_555 1_555
O3B Hg1 1_555 1_555
O3C Hg1 1_555 1_555
N1A C1A 1_555 1_555
N1B C1B 1_555 1_555
N1C C1C 1_555 1_555
N2A C1A 1_555 1_555
N2B C1B 1_555 1_555
N2C C1C 1_555 1_555
C1A S1A 1_555 1_555
C1B S1B 1_555 1_555
C1C S1C 1_555 1_555
C2A N1A 1_555 1_555
C2B N1B 1_555 1_555
C2C N1C 1_555 1_555
C3A C2A 1_555 1_555
C3B C2B 1_555 1_555
C3C C2C 1_555 1_555
C4A C3A 1_555 1_555
C4B C3B 1_555 1_555
C4C C3C 1_555 1_555
H2A C4A 1_555 1_555
H2B C4B 1_555 1_555
H2C C4C 1_555 1_555
C5A C4A 1_555 1_555
C5B C4B 1_555 1_555
C5C C4C 1_555 1_555
H3A C5A 1_555 1_555
H3B C5B 1_555 1_555
H3C C5C 1_555 1_555
C6A C5A 1_555 1_555
C6B C5B 1_555 1_555
C6C C5C 1_555 1_555
H4A C6A 1_555 1_555
H4B C6B 1_555 1_555
H4C C6C 1_555 1_555
C7A C6A 1_555 1_555
C7B C6B 1_555 1_555
C7C C6C 1_555 1_555
H5A C7A 1_555 1_555
H5B C7B 1_555 1_555
H5C C7C 1_555 1_555
C8A C3A 1_555 1_555
C8B C3B 1_555 1_555
C8C C3C 1_555 1_555
H6A C8A 1_555 1_555
H6B C8B 1_555 1_555
H6C C8C 1_555 1_555
C9A N2A 1_555 1_555
C9B N2B 1_555 1_555
C9C N2C 1_555 1_555
H7A C9A 1_555 1_555
H7B C9B 1_555 1_555
H7C C9C 1_555 1_555
H8A C9A 1_555 1_555
H8B C9B 1_555 1_555
H8C C9C 1_555 1_555
C10A O2A 1_555 1_555
C10B O2B 1_555 1_555
C10C O2C 1_555 1_555
H9A C10A 1_555 1_555
H9B C10B 1_555 1_555
H9C C10C 1_555 1_555
H10A C10A 1_555 1_555
H10B C10B 1_555 1_555
H10C C10C 1_555 1_555
C11A N2A 1_555 1_555
C11B N2B 1_555 1_555
C11C N2C 1_555 1_555
H11A C11A 1_555 1_555
H11B C11B 1_555 1_555
H11C C11C 1_555 1_555
H12A C11A 1_555 1_555
H12B C11B 1_555 1_555
H12C C11C 1_555 1_555
C12A O3A 1_555 1_555
C12B O3B 1_555 1_555
C12C O3C 1_555 1_555
H13A C12A 1_555 1_555
H13B C12B 1_555 1_555
H13C C12C 1_555 1_555
H14A C12A 1_555 1_555
H14B C12B 1_555 1_555
H14C C12C 1_555 1_555
C7 C8 1_555 1_555
C9 C10 1_555 1_555
C11 C12 1_555 1_555
C7A C8A 1_555 1_555
C7B C8B 1_555 1_555
C7C C8C 1_555 1_555
C9A C10A 1_555 1_555
C9B C10B 1_555 1_555
C9C C10C 1_555 1_555
C11A C12A 1_555 1_555
C11B C12B 1_555 1_555
C11C C12C 1_555 1_555

#END
