
#######################################################################
#
#                 Cambridge Crystallographic Data Centre
#                                CCDC 
#
#######################################################################
#
# If this CIF has been generated from an entry in the Cambridge 
# Structural Database, then it will include bibliographic, chemical, 
# crystal, experimental, refinement or atomic coordinate data resulting 
# from the CCDC's data processing and validation procedures.
#
#######################################################################

data_NAVWIR02
_symmetry_cell_setting           tetragonal
_symmetry_space_group_name_H-M   'I 41/a'
_symmetry_Int_Tables_number      88
_space_group_name_Hall           '-I 4ad'
loop_
_symmetry_equiv_pos_site_id
_symmetry_equiv_pos_as_xyz
1 x,y,z
2 3/4-y,1/4+x,1/4+z
3 1/4+y,1/4-x,1/4+z
4 1/2+x,1/2+y,1/2+z
5 1/4-y,3/4+x,3/4+z
6 -x,1/2-y,z
7 1/2-x,-y,1/2+z
8 3/4+y,3/4-x,3/4+z
9 -x,-y,-z
10 1/4+y,3/4-x,3/4-z
11 3/4-y,3/4+x,3/4-z
12 1/2-x,1/2-y,1/2-z
13 3/4+y,1/4-x,1/4-z
14 x,1/2+y,-z
15 1/2+x,y,1/2-z
16 1/4-y,1/4+x,1/4-z
_cell_length_a                   16.9462(15)
_cell_length_b                   16.9462(15)
_cell_length_c                   18.477(3)
_cell_angle_alpha                90
_cell_angle_beta                 90
_cell_angle_gamma                90
_cell_volume                     5306.11
loop_
_atom_site_label
_atom_site_type_symbol
_atom_site_fract_x
_atom_site_fract_y
_atom_site_fract_z
Zn1 Zn 0.0000 0.7500 0.11410(3)
N1 N -0.02708(17) 0.65822(17) 0.05029(15)
N2 N -0.47906(17) 0.34065(17) 0.06832(15)
O1 O -0.25890(15) 0.50354(15) -0.05610(13)
N3 N -0.31806(18) 0.48071(18) 0.05351(15)
H1 H -0.3158 0.4952 0.0992
C1 C -0.4163(2) 0.3863(2) 0.08183(18)
H2 H -0.3921 0.3828 0.1281
C2 C -0.3851(2) 0.4384(2) 0.03170(18)
N4 N -0.18995(18) 0.51911(18) 0.04937(15)
H3 H -0.1884 0.5037 0.0948
C3 C -0.4870(2) 0.3973(2) -0.0494(2)
H4 H -0.5129 0.4004 -0.0949
C4 C -0.0902(2) 0.6156(2) 0.06854(17)
H5 H -0.1130 0.6234 0.1149
C5 C -0.1240(2) 0.5601(2) 0.02250(17)
C6 C -0.4209(2) 0.4436(2) -0.03585(18)
H6 H -0.4007 0.4781 -0.0719
C7 C -0.0250(2) 0.5936(2) -0.0641(2)
H7 H -0.0011 0.5867 -0.1102
C8 C -0.0910(2) 0.5492(2) -0.04525(19)
H8 H -0.1130 0.5122 -0.0782
C9 C 0.0054(2) 0.6474(2) -0.0159(2)
H9 H 0.0502 0.6778 -0.0294
C10 C -0.25610(19) 0.5014(2) 0.01052(17)
C11 C -0.5147(2) 0.3469(2) 0.00291(19)
H10 H -0.5601 0.3157 -0.0069
Zn1L Zn -0.5000 0.2500 0.13590(3)
Zn1L_2 Zn 0.5000 1.2500 0.13590(3)
N1E N 0.02708(17) 0.84178(17) 0.05029(15)
N2E N 0.47906(17) 1.15935(17) 0.06832(15)
N2O N -0.09065(17) 0.77094(17) 0.18168(15)
N2L N 0.09065(17) 0.72906(17) 0.18168(15)
O1E O 0.25890(15) 0.99646(15) -0.05610(13)
N3E N 0.31806(18) 1.01929(18) 0.05351(15)
H1E H 0.3158 1.0048 0.0992
C1E C 0.4163(2) 1.1137(2) 0.08183(18)
H2E H 0.3921 1.1172 0.1281
C2E C 0.3851(2) 1.0616(2) 0.03170(18)
N4E N 0.18995(18) 0.98089(18) 0.04937(15)
H3E H 0.1884 0.9963 0.0948
C3E C 0.4870(2) 1.1027(2) -0.0494(2)
H4E H 0.5129 1.0996 -0.0949
C4E C 0.0902(2) 0.8844(2) 0.06854(17)
H5E H 0.1130 0.8766 0.1149
C5E C 0.1240(2) 0.9399(2) 0.02250(17)
C6E C 0.4209(2) 1.0564(2) -0.03585(18)
H6E H 0.4007 1.0219 -0.0719
C7E C 0.0250(2) 0.9064(2) -0.0641(2)
H7E H 0.0011 0.9133 -0.1102
C8E C 0.0910(2) 0.9508(2) -0.04525(19)
H8E H 0.1130 0.9878 -0.0782
C9E C -0.0054(2) 0.8526(2) -0.0159(2)
H9E H -0.0502 0.8222 -0.0294
C10E C 0.25610(19) 0.9986(2) 0.01052(17)
C11E C 0.5147(2) 1.1531(2) 0.00291(19)
H10E H 0.5601 1.1843 -0.0069
Cl1 Cl 0.25394(5) 0.74514(5) 0.00725(4)
O2 O 0.2943(2) 0.7407(2) -0.06031(17)
O3 O 0.2758(2) 0.6782(2) 0.05201(18)
O4 O 0.17013(18) 0.7430(2) -0.00447(19)
O5 O 0.2742(2) 0.8164(2) 0.0444(2)
loop_
_geom_bond_atom_site_label_1
_geom_bond_atom_site_label_2
_geom_bond_site_symmetry_1
_geom_bond_site_symmetry_2
Zn1 N1 1_555 1_555
Cl1 O2 1_555 1_555
N1 C4 1_555 1_555
N2 C1 1_555 1_555
O1 C10 1_555 1_555
N3 H1 1_555 1_555
C1 H2 1_555 1_555
C2 N3 1_555 1_555
N4 H3 1_555 1_555
C3 H4 1_555 1_555
C4 H5 1_555 1_555
C5 N4 1_555 1_555
C6 C2 1_555 1_555
H6 C6 1_555 1_555
C7 H7 1_555 1_555
C8 C5 1_555 1_555
H8 C8 1_555 1_555
C9 N1 1_555 1_555
H9 C9 1_555 1_555
C10 N3 1_555 1_555
C11 N2 1_555 1_555
H10 C11 1_555 1_555
O3 Cl1 1_555 1_555
O4 Cl1 1_555 1_555
O5 Cl1 1_555 1_555
Zn1L N2 1_555 1_555
Zn1L_2 N2E 1_555 1_555
N1E Zn1 1_555 1_555
N2E C1E 1_555 1_555
N2O Zn1 1_555 1_555
N2L Zn1 1_555 1_555
O1E C10E 1_555 1_555
N3E H1E 1_555 1_555
C1E H2E 1_555 1_555
C2E N3E 1_555 1_555
N4E H3E 1_555 1_555
C3E H4E 1_555 1_555
C4E N1E 1_555 1_555
H5E C4E 1_555 1_555
C5E N4E 1_555 1_555
C6E C2E 1_555 1_555
H6E C6E 1_555 1_555
C7E H7E 1_555 1_555
C8E C5E 1_555 1_555
H8E C8E 1_555 1_555
C9E N1E 1_555 1_555
H9E C9E 1_555 1_555
C10E N3E 1_555 1_555
C11E N2E 1_555 1_555
H10E C11E 1_555 1_555
C1 C2 1_555 1_555
N4 C10 1_555 1_555
C3 C6 1_555 1_555
C3 C11 1_555 1_555
C4 C5 1_555 1_555
C7 C8 1_555 1_555
C7 C9 1_555 1_555
C1E C2E 1_555 1_555
N4E C10E 1_555 1_555
C3E C6E 1_555 1_555
C3E C11E 1_555 1_555
C4E C5E 1_555 1_555
C7E C8E 1_555 1_555
C7E C9E 1_555 1_555

#END
