
#######################################################################
#
#                 Cambridge Crystallographic Data Centre
#                                CCDC 
#
#######################################################################
#
# If this CIF has been generated from an entry in the Cambridge 
# Structural Database, then it will include bibliographic, chemical, 
# crystal, experimental, refinement or atomic coordinate data resulting 
# from the CCDC's data processing and validation procedures.
#
#######################################################################

data_NAVWIR01
_symmetry_cell_setting           tetragonal
_symmetry_space_group_name_H-M   'I 41/a'
_symmetry_Int_Tables_number      88
_space_group_name_Hall           '-I 4ad'
loop_
_symmetry_equiv_pos_site_id
_symmetry_equiv_pos_as_xyz
1 x,y,z
2 3/4-y,1/4+x,1/4+z
3 1/2+x,1/2+y,1/2+z
4 1/4-y,3/4+x,3/4+z
5 1/4+y,1/4-x,1/4+z
6 1/2-x,-y,1/2+z
7 3/4+y,3/4-x,3/4+z
8 -x,1/2-y,z
9 -x,-y,-z
10 1/4+y,3/4-x,3/4-z
11 1/2-x,1/2-y,1/2-z
12 3/4+y,1/4-x,1/4-z
13 3/4-y,3/4+x,3/4-z
14 1/2+x,y,1/2-z
15 1/4-y,1/4+x,1/4-z
16 x,1/2+y,-z
_cell_length_a                   16.8992(7)
_cell_length_b                   16.8992(7)
_cell_length_c                   18.4603(14)
_cell_angle_alpha                90
_cell_angle_beta                 90
_cell_angle_gamma                90
_cell_volume                     5271.95
loop_
_atom_site_label
_atom_site_type_symbol
_atom_site_fract_x
_atom_site_fract_y
_atom_site_fract_z
Zn1 Zn 0.0000 0.7500 0.112519(13)
N1 N -0.02637(7) 0.65776(7) 0.04860(7)
C1 C -0.08973(9) 0.61484(8) 0.06688(8)
C2 C -0.12419(9) 0.55952(8) 0.02086(8)
C3 C -0.09083(9) 0.54832(9) -0.04729(9)
C4 C -0.02484(9) 0.59294(10) -0.06611(9)
C5 C 0.00594(9) 0.64712(9) -0.01771(9)
N2 N -0.18968(8) 0.51808(8) 0.04792(7)
C6 C -0.25691(8) 0.50182(8) 0.00936(8)
O1 O -0.26030(6) 0.50434(6) -0.05711(6)
N3 N -0.31908(8) 0.48143(8) 0.05305(7)
C7 C -0.38621(8) 0.43869(8) 0.03160(8)
C8 C -0.42224(9) 0.44332(9) -0.03583(8)
C9 C -0.48871(9) 0.39689(9) -0.04883(9)
C10 C -0.51657(9) 0.34656(9) 0.00409(8)
N4 N -0.48030(7) 0.34105(7) 0.06941(7)
C11 C -0.41754(8) 0.38678(9) 0.08266(8)
H1 H -0.1119(11) 0.6227(11) 0.1128(10)
H2 H -0.1123(11) 0.5107(11) -0.0796(11)
H3 H -0.0011(12) 0.5848(12) -0.1107(12)
H4 H 0.0487(11) 0.6790(10) -0.0287(10)
H5 H -0.1948(11) 0.5195(11) 0.0909(12)
H6 H -0.3111(12) 0.4841(12) 0.0973(13)
H7 H -0.4026(11) 0.4781(11) -0.0720(11)
H8 H -0.5154(11) 0.3991(12) -0.0935(11)
H9 H -0.5594(11) 0.3126(11) -0.0027(10)
H10 H -0.3931(11) 0.3841(11) 0.1293(10)
Zn1N Zn -0.5000 0.2500 0.137481(13)
Zn1N_2 Zn 0.5000 1.2500 0.137481(13)
N1G N 0.02637(7) 0.84224(7) 0.04860(7)
C1G C 0.08973(9) 0.88516(8) 0.06688(8)
C2G C 0.12419(9) 0.94048(8) 0.02086(8)
C3G C 0.09083(9) 0.95168(9) -0.04729(9)
C4G C 0.02484(9) 0.90706(10) -0.06611(9)
C5G C -0.00594(9) 0.85288(9) -0.01771(9)
N2G N 0.18968(8) 0.98192(8) 0.04792(7)
C6G C 0.25691(8) 0.99818(8) 0.00936(8)
O1G O 0.26030(6) 0.99566(6) -0.05711(6)
N3G N 0.31908(8) 1.01857(8) 0.05305(7)
C7G C 0.38621(8) 1.06131(8) 0.03160(8)
C8G C 0.42224(9) 1.05668(9) -0.03583(8)
C9G C 0.48871(9) 1.10311(9) -0.04883(9)
C10G C 0.51657(9) 1.15344(9) 0.00409(8)
N4G N 0.48030(7) 1.15895(7) 0.06941(7)
N4N N -0.09105(7) 0.76970(7) 0.18059(7)
N4K N 0.09105(7) 0.73030(7) 0.18059(7)
C11G C 0.41754(8) 1.11322(9) 0.08266(8)
H1G H 0.1119(11) 0.8773(11) 0.1128(10)
H2G H 0.1123(11) 0.9893(11) -0.0796(11)
H3G H 0.0011(12) 0.9152(12) -0.1107(12)
H4G H -0.0487(11) 0.8210(10) -0.0287(10)
H5G H 0.1948(11) 0.9805(11) 0.0909(12)
H6G H 0.3111(12) 1.0159(12) 0.0973(13)
H7G H 0.4026(11) 1.0219(11) -0.0720(11)
H8G H 0.5154(11) 1.1009(12) -0.0935(11)
H9G H 0.5594(11) 1.1874(11) -0.0027(10)
H10G H 0.3931(11) 1.1159(11) 0.1293(10)
Cl1 Cl 0.24547(2) 0.75500(2) 0.491752(19)
O2 O 0.22408(7) 0.68275(7) 0.45523(7)
O3 O 0.32988(7) 0.75626(8) 0.50391(7)
O4 O 0.20494(7) 0.75915(8) 0.56038(6)
O5 O 0.22358(7) 0.82183(7) 0.44756(7)
loop_
_geom_bond_atom_site_label_1
_geom_bond_atom_site_label_2
_geom_bond_site_symmetry_1
_geom_bond_site_symmetry_2
Zn1 N1 1_555 1_555
N1 C1 1_555 1_555
C1 C2 1_555 1_555
C2 C3 1_555 1_555
C3 C4 1_555 1_555
C4 C5 1_555 1_555
C5 N1 1_555 1_555
N2 C2 1_555 1_555
C6 N2 1_555 1_555
O1 C6 1_555 1_555
N3 C6 1_555 1_555
C7 N3 1_555 1_555
C8 C7 1_555 1_555
C9 C8 1_555 1_555
C10 C9 1_555 1_555
N4 C10 1_555 1_555
C11 C7 1_555 1_555
Cl1 O2 1_555 1_555
O3 Cl1 1_555 1_555
O4 Cl1 1_555 1_555
O5 Cl1 1_555 1_555
H1 C1 1_555 1_555
H2 C3 1_555 1_555
H3 C4 1_555 1_555
H4 C5 1_555 1_555
H5 N2 1_555 1_555
H6 N3 1_555 1_555
H7 C8 1_555 1_555
H8 C9 1_555 1_555
H9 C10 1_555 1_555
H10 C11 1_555 1_555
Zn1N N4 1_555 1_555
Zn1N_2 N4G 1_555 1_555
N1G Zn1 1_555 1_555
C1G N1G 1_555 1_555
C2G C1G 1_555 1_555
C3G C2G 1_555 1_555
C4G C3G 1_555 1_555
C5G N1G 1_555 1_555
N2G C2G 1_555 1_555
C6G N2G 1_555 1_555
O1G C6G 1_555 1_555
N3G C6G 1_555 1_555
C7G N3G 1_555 1_555
C8G C7G 1_555 1_555
C9G C8G 1_555 1_555
C10G C9G 1_555 1_555
N4G C10G 1_555 1_555
N4N Zn1 1_555 1_555
N4K Zn1 1_555 1_555
C11G C7G 1_555 1_555
H1G C1G 1_555 1_555
H2G C3G 1_555 1_555
H3G C4G 1_555 1_555
H4G C5G 1_555 1_555
H5G N2G 1_555 1_555
H6G N3G 1_555 1_555
H7G C8G 1_555 1_555
H8G C9G 1_555 1_555
H9G C10G 1_555 1_555
H10G C11G 1_555 1_555
N4 C11 1_555 1_555
C4G C5G 1_555 1_555
N4G C11G 1_555 1_555

#END
