
#######################################################################
#
#                 Cambridge Crystallographic Data Centre
#                                CCDC 
#
#######################################################################
#
# If this CIF has been generated from an entry in the Cambridge 
# Structural Database, then it will include bibliographic, chemical, 
# crystal, experimental, refinement or atomic coordinate data resulting 
# from the CCDC's data processing and validation procedures.
#
#######################################################################

data_NAVWIR
_symmetry_cell_setting           tetragonal
_symmetry_space_group_name_H-M   'P 42/n'
_symmetry_Int_Tables_number      86
_space_group_name_Hall           '-P 4bc'
loop_
_symmetry_equiv_pos_site_id
_symmetry_equiv_pos_as_xyz
1 x,y,z
2 -y,1/2+x,1/2+z
3 1/2+y,-x,1/2+z
4 1/2-x,1/2-y,z
5 -x,-y,-z
6 y,1/2-x,1/2-z
7 1/2-y,x,1/2-z
8 1/2+x,1/2+y,-z
_cell_length_a                   12.0544(10)
_cell_length_b                   12.0544(10)
_cell_length_c                   9.2802(15)
_cell_angle_alpha                90
_cell_angle_beta                 90
_cell_angle_gamma                90
_cell_volume                     1348.49
loop_
_atom_site_label
_atom_site_type_symbol
_atom_site_fract_x
_atom_site_fract_y
_atom_site_fract_z
Zn1 Zn 0.7500 0.7500 0.2500
N1 N 0.63348(18) 0.68532(19) 0.1194(2)
C1 C 0.6582(3) 0.6426(3) -0.0111(3)
C2 C 0.5765(3) 0.6187(3) -0.1099(4)
C3 C 0.4662(2) 0.6388(3) -0.0772(3)
C4 C 0.4406(2) 0.6826(2) 0.0579(3)
C5 C 0.5274(2) 0.7035(2) 0.1524(3)
N2 N 0.3339(2) 0.7062(2) 0.1067(3)
C6 C 0.2500 0.7500 0.0252(4)
O1 O 0.2500 0.7500 -0.1068(3)
H1 H 0.728(3) 0.629(3) -0.034(4)
H2 H 0.586(4) 0.588(4) -0.195(6)
H3 H 0.410(3) 0.616(3) -0.137(4)
H4 H 0.326(4) 0.710(4) 0.185(6)
H5 H 0.513(4) 0.731(4) 0.237(4)
Zn1_2 Zn -0.2500 0.7500 0.2500
Zn1_3 Zn 0.7500 1.7500 0.2500
N1C N -0.13348(18) 0.81468(19) 0.1194(2)
N1E N 0.68532(19) 0.86652(18) 0.3806(2)
N1F N 0.81468(19) 1.63348(18) 0.3806(2)
N1F_2 N 0.81468(19) 0.63348(18) 0.3806(2)
N1C_2 N 0.86652(18) 0.81468(19) 0.1194(2)
C1C C -0.1582(3) 0.8574(3) -0.0111(3)
C1E C 0.6426(3) 0.8418(3) 0.5111(3)
C1F C 0.8574(3) 1.6582(3) 0.5111(3)
C2C C -0.0765(3) 0.8813(3) -0.1099(4)
C2E C 0.6187(3) 0.9235(3) 0.6099(4)
C2F C 0.8813(3) 1.5765(3) 0.6099(4)
C3C C 0.0338(2) 0.8612(3) -0.0772(3)
C3E C 0.6388(3) 1.0338(2) 0.5772(3)
C3F C 0.8612(3) 1.4662(2) 0.5772(3)
C4C C 0.0594(2) 0.8174(2) 0.0579(3)
C4E C 0.6826(2) 1.0594(2) 0.4421(3)
C4F C 0.8174(2) 1.4406(2) 0.4421(3)
C5C C -0.0274(2) 0.7965(2) 0.1524(3)
C5E C 0.7035(2) 0.9726(2) 0.3476(3)
C5F C 0.7965(2) 1.5274(2) 0.3476(3)
N2C N 0.1661(2) 0.7938(2) 0.1067(3)
N2E N 0.7062(2) 1.1661(2) 0.3933(3)
N2F N 0.7938(2) 1.3339(2) 0.3933(3)
C6E C 0.7500 1.2500 0.4748(4)
O1E O 0.7500 1.2500 0.6068(3)
H1C H -0.228(3) 0.871(3) -0.034(4)
H1E H 0.629(3) 0.772(3) 0.534(4)
H1F H 0.871(3) 1.728(3) 0.534(4)
H2C H -0.086(4) 0.912(4) -0.195(6)
H2E H 0.588(4) 0.914(4) 0.695(6)
H2F H 0.912(4) 1.586(4) 0.695(6)
H3C H 0.090(3) 0.884(3) -0.137(4)
H3E H 0.616(3) 1.090(3) 0.637(4)
H3F H 0.884(3) 1.410(3) 0.637(4)
H4C H 0.174(4) 0.790(4) 0.185(6)
H4E H 0.710(4) 1.174(4) 0.315(6)
H4F H 0.790(4) 1.326(4) 0.315(6)
H5C H -0.013(4) 0.769(4) 0.237(4)
H5E H 0.731(4) 0.987(4) 0.263(4)
H5F H 0.769(4) 1.513(4) 0.263(4)
Cl1 Cl 0.5000 0.0000 0.0000
O2 O 0.5482(7) 0.0912(7) 0.1036(9)
O4 O 0.4038(9) -0.0423(8) 0.0727(11)
O2D O 0.4518(7) -0.0912(7) -0.1036(9)
O4D O 0.5962(9) 0.0423(8) -0.0727(11)
O3? O 0.5277(8) -0.0533(8) 0.1253(10)
O5? O 0.4103(9) 0.0741(10) -0.0024(12)
O6? O 0.4552(19) -0.0621(17) 0.126(2)
O7? O 0.4345(15) 0.0981(15) 0.046(2)
loop_
_geom_bond_atom_site_label_1
_geom_bond_atom_site_label_2
_geom_bond_site_symmetry_1
_geom_bond_site_symmetry_2
Zn1 N1 1_555 1_555
N1 C1 1_555 1_555
C1 C2 1_555 1_555
C2 C3 1_555 1_555
C3 C4 1_555 1_555
C4 C5 1_555 1_555
C5 N1 1_555 1_555
N2 C4 1_555 1_555
C6 N2 1_555 1_555
O1 C6 1_555 1_555
Cl1 O2 1_555 1_555
O4 Cl1 1_555 1_555
H1 C1 1_555 1_555
H2 C2 1_555 1_555
H3 C3 1_555 1_555
H4 N2 1_555 1_555
H5 C5 1_555 1_555
Zn1_2 N1C 1_555 1_555
Zn1_3 N1F 1_555 1_555
N1C C1C 1_555 1_555
N1E Zn1 1_555 1_555
N1F C1F 1_555 1_555
N1F_2 Zn1 1_555 1_555
N1C_2 Zn1 1_555 1_555
C1C C2C 1_555 1_555
C1E N1E 1_555 1_555
C1F C2F 1_555 1_555
C2C C3C 1_555 1_555
C2E C1E 1_555 1_555
C2F C3F 1_555 1_555
C3C C4C 1_555 1_555
C3E C2E 1_555 1_555
C3F C4F 1_555 1_555
C4C C5C 1_555 1_555
C4E C3E 1_555 1_555
C4F C5F 1_555 1_555
C5C N1C 1_555 1_555
C5E N1E 1_555 1_555
C5F N1F 1_555 1_555
N2C C6 1_555 1_555
N2E C4E 1_555 1_555
N2F C4F 1_555 1_555
C6E N2E 1_555 1_555
O1E C6E 1_555 1_555
O2D Cl1 1_555 1_555
O4D Cl1 1_555 1_555
H1C C1C 1_555 1_555
H1E C1E 1_555 1_555
H1F C1F 1_555 1_555
H2C C2C 1_555 1_555
H2E C2E 1_555 1_555
H2F C2F 1_555 1_555
H3C C3C 1_555 1_555
H3E C3E 1_555 1_555
H3F C3F 1_555 1_555
H4C N2C 1_555 1_555
H4E N2E 1_555 1_555
H4F N2F 1_555 1_555
H5C C5C 1_555 1_555
H5E C5E 1_555 1_555
H5F C5F 1_555 1_555
C4C N2C 1_555 1_555
C4E C5E 1_555 1_555
N2F C6E 1_555 1_555

#END
