
#######################################################################
#
#                 Cambridge Crystallographic Data Centre
#                                CCDC 
#
#######################################################################
#
# If this CIF has been generated from an entry in the Cambridge 
# Structural Database, then it will include bibliographic, chemical, 
# crystal, experimental, refinement or atomic coordinate data resulting 
# from the CCDC's data processing and validation procedures.
#
#######################################################################

data_NAVXIR
_symmetry_cell_setting           triclinic
_symmetry_space_group_name_H-M   'P -1'
_symmetry_Int_Tables_number      2
_space_group_name_Hall           '-P 1'
loop_
_symmetry_equiv_pos_site_id
_symmetry_equiv_pos_as_xyz
1 x,y,z
2 -x,-y,-z
_cell_length_a                   8.172(2)
_cell_length_b                   9.110(2)
_cell_length_c                   11.226(2)
_cell_angle_alpha                70.54(3)
_cell_angle_beta                 77.98(3)
_cell_angle_gamma                74.75(3)
_cell_volume                     753.538
loop_
_atom_site_label
_atom_site_type_symbol
_atom_site_fract_x
_atom_site_fract_y
_atom_site_fract_z
Tl1 Tl 0.1964(1) 0.9169(1) 0.6084(1)
O1 O -0.010(1) 0.742(2) 0.607(1)
O2 O -0.519(1) 0.640(1) 0.588(1)
N1 N -0.092(1) 0.671(1) 0.565(1)
N2 N -0.418(2) 0.872(2) 0.743(1)
N3 N -0.277(2) 0.523(1) 0.485(1)
N4 N -0.070(1) 1.020(1) 0.767(1)
N5 N 0.163(1) 0.740(1) 0.849(1)
C1 C -0.262(1) 0.699(1) 0.599(1)
C2 C -0.362(1) 0.620(1) 0.556(1)
C3 C -0.350(2) 0.794(2) 0.679(1)
C4 C -0.181(2) 1.155(2) 0.728(2)
C5 C -0.319(2) 1.210(2) 0.809(2)
C6 C -0.343(2) 1.124(2) 0.934(2)
C7 C -0.228(2) 0.977(2) 0.978(1)
C8 C -0.247(2) 0.880(2) 1.106(1)
C9 C -0.135(2) 0.742(2) 1.144(2)
C10 C 0.007(2) 0.688(2) 1.060(1)
C11 C 0.123(2) 0.543(2) 1.095(2)
C12 C 0.256(2) 0.504(2) 1.012(2)
C13 C 0.274(2) 0.606(2) 0.888(2)
C14 C 0.031(1) 0.784(1) 0.934(1)
C15 C -0.093(1) 0.930(1) 0.891(1)
H1 H -0.17(2) 0.49(2) 0.48(1)
H2 H -0.35(2) 0.47(2) 0.46(1)
O2_2 O 0.481(1) 0.640(1) 0.588(1)
Tl1_2 Tl -0.8036(1) 0.9169(1) 0.6084(1)
loop_
_geom_bond_atom_site_label_1
_geom_bond_atom_site_label_2
_geom_bond_site_symmetry_1
_geom_bond_site_symmetry_2
Tl1 O1 1_555 1_555
O1 N1 1_555 1_555
O2 C2 1_555 1_555
N1 C1 1_555 1_555
N2 C3 1_555 1_555
N3 C2 1_555 1_555
N4 Tl1 1_555 1_555
N5 Tl1 1_555 1_555
C1 C2 1_555 1_555
C3 C1 1_555 1_555
C4 N4 1_555 1_555
C5 C4 1_555 1_555
C6 C5 1_555 1_555
C7 C6 1_555 1_555
C8 C7 1_555 1_555
C9 C8 1_555 1_555
C10 C9 1_555 1_555
C11 C10 1_555 1_555
C12 C11 1_555 1_555
C13 N5 1_555 1_555
C14 N5 1_555 1_555
C15 N4 1_555 1_555
H1 N3 1_555 1_555
H2 N3 1_555 1_555
O2_2 Tl1 1_555 1_555
Tl1_2 O2 1_555 1_555
C7 C15 1_555 1_555
C10 C14 1_555 1_555
C12 C13 1_555 1_555
C14 C15 1_555 1_555

#END
