
#######################################################################
#
#                 Cambridge Crystallographic Data Centre
#                                CCDC 
#
#######################################################################
#
# If this CIF has been generated from an entry in the Cambridge 
# Structural Database, then it will include bibliographic, chemical, 
# crystal, experimental, refinement or atomic coordinate data resulting 
# from the CCDC's data processing and validation procedures.
#
#######################################################################

data_NAVYIU
_symmetry_cell_setting           monoclinic
_symmetry_space_group_name_H-M   'P 21/c'
_symmetry_Int_Tables_number      14
_space_group_name_Hall           '-P 2ybc'
loop_
_symmetry_equiv_pos_site_id
_symmetry_equiv_pos_as_xyz
1 x,y,z
2 -x,1/2+y,1/2-z
3 -x,-y,-z
4 x,1/2-y,1/2+z
_cell_length_a                   7.197(3)
_cell_length_b                   21.153(7)
_cell_length_c                   6.964(3)
_cell_angle_alpha                90
_cell_angle_beta                 104.650(7)
_cell_angle_gamma                90
_cell_volume                     1025.72
loop_
_atom_site_label
_atom_site_type_symbol
_atom_site_fract_x
_atom_site_fract_y
_atom_site_fract_z
Gd1 Gd 1.04164(3) 1.459106(10) 0.26118(3)
As1 As 0.76777(7) 1.58287(2) 0.18949(7)
C1 C 0.8406(8) 1.6690(2) 0.2005(8)
C2 C 1.0379(8) 1.6833(3) 0.2546(9)
H1 H 1.1276 1.6507 0.2759
C3 C 1.0988(9) 1.7448(3) 0.2760(10)
H2 H 1.2299 1.7532 0.3127
C4 C 0.9649(8) 1.7971(3) 0.2430(8)
C5 C 0.7700(8) 1.7808(2) 0.1882(8)
C6 C 0.7076(8) 1.7162(2) 0.1680(8)
H3 H 0.5773 1.7066 0.1330
N1 N 0.6243(7) 1.8272(2) 0.1531(8)
O1 O 0.8902(6) 1.54761(15) 0.4021(5)
O2 O 0.8704(5) 1.54167(15) 0.0332(5)
O3 O 0.5330(5) 1.57518(18) 0.1376(6)
O4 O 1.0298(6) 1.85272(19) 0.2692(7)
O5 O 0.6656(6) 1.88482(18) 0.1562(7)
O6 O 0.4558(7) 1.8115(2) 0.1230(11)
O7 O 1.3106(6) 1.52988(19) 0.3543(6)
H4 H 1.2704 1.5678 0.3461
H5 H 1.3832 1.5247 0.2765
O8 O 0.6989(6) 1.43519(19) 0.2288(6)
H6 H 0.6847 1.3956 0.2395
H7 H 0.6332 1.4475 0.1159
Gd1B Gd 0.95836(3) 1.540894(10) 0.73882(3)
Gd1B_2 Gd 0.95836(3) 1.540894(10) -0.26118(3)
Gd1A Gd 0.95836(3) 1.959106(10) 0.23882(3)
O1B O 1.1098(6) 1.45239(15) 0.5979(5)
O2B O 1.1296(5) 1.45833(15) -0.0332(5)
O4A O 0.9702(6) 1.35272(19) 0.2308(7)
O5A O 1.3344(6) 1.38482(18) 0.3438(7)
loop_
_geom_bond_atom_site_label_1
_geom_bond_atom_site_label_2
_geom_bond_site_symmetry_1
_geom_bond_site_symmetry_2
Gd1 O1 1_555 1_555
As1 C1 1_555 1_555
C1 C2 1_555 1_555
C2 H1 1_555 1_555
C3 C2 1_555 1_555
H2 C3 1_555 1_555
C4 C3 1_555 1_555
C5 C4 1_555 1_555
C6 C1 1_555 1_555
H3 C6 1_555 1_555
N1 C5 1_555 1_555
O1 As1 1_555 1_555
O2 Gd1 1_555 1_555
O3 As1 1_555 1_555
O4 C4 1_555 1_555
O5 N1 1_555 1_555
O6 N1 1_555 1_555
O7 Gd1 1_555 1_555
H4 O7 1_555 1_555
H5 O7 1_555 1_555
O8 Gd1 1_555 1_555
H6 O8 1_555 1_555
H7 O8 1_555 1_555
Gd1B O1 1_555 1_555
Gd1B_2 O2 1_555 1_555
Gd1A O4 1_555 1_555
O1B Gd1 1_555 1_555
O2B Gd1 1_555 1_555
O4A Gd1 1_555 1_555
O5A Gd1 1_555 1_555
As1 O2 1_555 1_555
C5 C6 1_555 1_555
O5 Gd1A 1_555 1_555
Gd1B O1B 1_555 1_555
Gd1B_2 O2B 1_555 1_555

#END
