
#######################################################################
#
#                 Cambridge Crystallographic Data Centre
#                                CCDC 
#
#######################################################################
#
# If this CIF has been generated from an entry in the Cambridge 
# Structural Database, then it will include bibliographic, chemical, 
# crystal, experimental, refinement or atomic coordinate data resulting 
# from the CCDC's data processing and validation procedures.
#
#######################################################################

data_NAVYUE
_symmetry_cell_setting           monoclinic
_symmetry_space_group_name_H-M   'P 21/c'
_symmetry_Int_Tables_number      14
_space_group_name_Hall           '-P 2ybc'
loop_
_symmetry_equiv_pos_site_id
_symmetry_equiv_pos_as_xyz
1 x,y,z
2 -x,1/2+y,1/2-z
3 -x,-y,-z
4 x,1/2-y,1/2+z
_cell_length_a                   9.459(2)
_cell_length_b                   17.844(4)
_cell_length_c                   12.397(2)
_cell_angle_alpha                90
_cell_angle_beta                 95.32(3)
_cell_angle_gamma                90
_cell_volume                     2083.43
loop_
_atom_site_label
_atom_site_type_symbol
_atom_site_fract_x
_atom_site_fract_y
_atom_site_fract_z
U1 U 1.0720(1) 0.18960(5) 0.31071(8)
S1 S 1.2367(7) 0.2757(3) 0.5591(4)
O1 O 0.979(1) 0.2687(8) 0.265(1)
O2 O 1.168(1) 0.1102(7) 0.358(1)
O3 O 1.295(1) 0.2606(7) 0.313(1)
O4 O 1.122(1) 0.2487(8) 0.480(1)
O5 O 0.878(1) 0.1604(8) 0.409(1)
O6 O 0.922(2) 0.1070(7) 0.205(1)
O7 O 1.170(1) 0.1811(8) 0.141(1)
O8 O 1.305(2) 0.2103(8) 0.609(1)
O9 O 1.335(1) 0.3234(9) 0.509(1)
N1 N 0.797(2) 0.034(1) 0.085(2)
N2 N 0.697(2) 0.132(1) 0.502(2)
C1 C 0.844(2) 0.100(1) 0.119(2)
C2 C 0.796(3) 0.167(1) 0.051(2)
C3 C 0.687(3) 0.018(2) -0.012(2)
C4 C 0.770(3) 0.008(2) -0.102(2)
C5 C 0.846(3) -0.032(1) 0.152(2)
C6 C 0.752(3) -0.048(2) 0.231(2)
C7 C 0.831(2) 0.129(1) 0.490(2)
C8 C 0.931(2) 0.092(1) 0.574(2)
C9 C 0.601(2) 0.171(1) 0.419(2)
C10 C 0.545(3) 0.120(1) 0.329(2)
C11 C 0.629(3) 0.098(1) 0.595(2)
C12 C 0.630(3) 0.153(1) 0.688(2)
H1 H 0.781 0.153 -0.024
H2 H 0.868 0.205 0.06
H3 H 0.717 0.182 0.077
H4 H 0.631 -0.026 -0.001
H5 H 0.625 0.06 -0.024
H6 H 0.71 -0.001 -0.168
H7 H 0.825 0.052 -0.11
H8 H 0.832 -0.034 -0.087
H9 H 0.849 -0.076 0.107
H10 H 0.94 -0.022 0.184
H11 H 0.729 -0.001 0.263
H12 H 0.796 -0.08 0.287
H13 H 0.677 -0.069 0.202
H14 H 0.925 0.038 0.567
H15 H 0.913 0.106 0.645
H16 H 1.015 0.109 0.555
H17 H 0.524 0.193 0.454
H18 H 0.653 0.211 0.391
H19 H 0.566 0.143 0.261
H20 H 0.444 0.118 0.329
H21 H 0.59 0.062 0.334
H22 H 0.672 0.051 0.615
H23 H 0.531 0.09 0.572
H24 H 0.725 0.172 0.701
H25 H 0.6 0.13 0.752
H26 H 0.563 0.191 0.658
O7C O 1.170(1) 0.3189(8) 0.641(1)
U1C U 1.0720(1) 0.31040(5) 0.81071(8)
loop_
_geom_bond_atom_site_label_1
_geom_bond_atom_site_label_2
_geom_bond_site_symmetry_1
_geom_bond_site_symmetry_2
U1 O1 1_555 1_555
S1 O4 1_555 1_555
O2 U1 1_555 1_555
O3 U1 1_555 1_555
O4 U1 1_555 1_555
O5 U1 1_555 1_555
O6 U1 1_555 1_555
O7 U1 1_555 1_555
O8 S1 1_555 1_555
O9 S1 1_555 1_555
N1 C1 1_555 1_555
N2 C7 1_555 1_555
C1 O6 1_555 1_555
C2 C1 1_555 1_555
C3 N1 1_555 1_555
C4 C3 1_555 1_555
C5 N1 1_555 1_555
C6 C5 1_555 1_555
C7 O5 1_555 1_555
C8 C7 1_555 1_555
C9 N2 1_555 1_555
C10 C9 1_555 1_555
C11 N2 1_555 1_555
C12 C11 1_555 1_555
H1 C2 1_555 1_555
H2 C2 1_555 1_555
H3 C2 1_555 1_555
H4 C3 1_555 1_555
H5 C3 1_555 1_555
H6 C4 1_555 1_555
H7 C4 1_555 1_555
H8 C4 1_555 1_555
H9 C5 1_555 1_555
H10 C5 1_555 1_555
H11 C6 1_555 1_555
H12 C6 1_555 1_555
H13 C6 1_555 1_555
H14 C8 1_555 1_555
H15 C8 1_555 1_555
H16 C8 1_555 1_555
H17 C9 1_555 1_555
H18 C9 1_555 1_555
H19 C10 1_555 1_555
H20 C10 1_555 1_555
H21 C10 1_555 1_555
H22 C11 1_555 1_555
H23 C11 1_555 1_555
H24 C12 1_555 1_555
H25 C12 1_555 1_555
H26 C12 1_555 1_555
O7C S1 1_555 1_555
U1C O7C 1_555 1_555

#END
