
#######################################################################
#
#                 Cambridge Crystallographic Data Centre
#                                CCDC 
#
#######################################################################
#
# If this CIF has been generated from an entry in the Cambridge 
# Structural Database, then it will include bibliographic, chemical, 
# crystal, experimental, refinement or atomic coordinate data resulting 
# from the CCDC's data processing and validation procedures.
#
#######################################################################

data_NAVYOA
_symmetry_cell_setting           monoclinic
_symmetry_space_group_name_H-M   'P 21/n'
_symmetry_Int_Tables_number      14
_space_group_name_Hall           '-P 2yn'
loop_
_symmetry_equiv_pos_site_id
_symmetry_equiv_pos_as_xyz
1 x,y,z
2 1/2-x,1/2+y,1/2-z
3 -x,-y,-z
4 1/2+x,1/2-y,1/2+z
_cell_length_a                   7.0720(11)
_cell_length_b                   21.151(2)
_cell_length_c                   7.6662(11)
_cell_angle_alpha                90
_cell_angle_beta                 108.421(8)
_cell_angle_gamma                90
_cell_volume                     1087.95
loop_
_atom_site_label
_atom_site_type_symbol
_atom_site_fract_x
_atom_site_fract_y
_atom_site_fract_z
Sm1 Sm 0.22158(5) 0.956466(15) 0.41458(4)
As1 As 0.25147(10) 1.10809(3) 0.52075(9)
C1 C 0.2500(11) 1.1819(3) 0.3794(10)
C2 C 0.2788(12) 1.1804(3) 0.2027(11)
H1 H 0.2954 1.1417 0.1517
C3 C 0.2825(12) 1.2350(3) 0.1074(10)
H2 H 0.2919 1.2321 -0.0106
C4 C 0.2723(10) 1.2959(3) 0.1824(10)
C5 C 0.2457(11) 1.2949(3) 0.3595(10)
C6 C 0.2351(11) 1.2388(3) 0.4549(10)
H3 H 0.2177 1.2408 0.5701
C7 C -0.0876(10) 0.9774(3) -0.0052(9)
N1 N 0.2337(11) 1.3513(3) 0.4545(9)
O1 O 0.0499(7) 1.06106(19) 0.4620(6)
O2 O 0.4316(7) 1.05723(19) 0.5205(6)
O3 O 0.2877(7) 1.1383(2) 0.7379(6)
H4 H 0.2304 1.1159 0.7927
O4 O 0.2334(13) 1.3478(3) 0.6152(8)
O5 O 0.2171(9) 1.4032(2) 0.3783(7)
O6 O 0.2848(8) 1.3458(2) 0.0908(7)
O7 O -0.0784(7) 0.9483(2) 0.1400(6)
O8 O -0.2233(7) 0.9731(2) -0.1556(6)
O9 O 0.3580(7) 0.9565(2) 0.7486(6)
H5 H 0.3776 0.9187 0.7871
H6 H 0.4680 0.9765 0.7809
Sm1B Sm -0.22158(5) 1.043534(15) 0.58542(4)
Sm1B_2 Sm 0.77842(5) 1.043534(15) 0.58542(4)
Sm1A Sm 0.27842(5) 1.456466(15) 0.08542(4)
Sm1B_3 Sm -0.22158(5) 1.043534(15) -0.41458(4)
Sm1_2 Sm -0.77842(5) 0.956466(15) 0.41458(4)
Sm1C Sm -0.27842(5) 0.543534(15) 0.91458(4)
As1B As -0.25147(10) 0.89191(3) 0.47925(9)
C1B C -0.2500(11) 0.8181(3) 0.6206(10)
C2B C -0.2788(12) 0.8196(3) 0.7973(11)
H1B H -0.2954 0.8583 0.8483
C3B C -0.2825(12) 0.7650(3) 0.8926(10)
H2B H -0.2919 0.7679 1.0106
C4B C -0.2723(10) 0.7041(3) 0.8176(10)
C5B C -0.2457(11) 0.7051(3) 0.6405(10)
C6B C -0.2351(11) 0.7612(3) 0.5451(10)
H3B H -0.2177 0.7592 0.4299
C7B C 0.0876(10) 1.0226(3) 0.0052(9)
N1B N -0.2337(11) 0.6487(3) 0.5455(9)
O1B O -0.0499(7) 0.93894(19) 0.5380(6)
O2B O -0.4316(7) 0.94277(19) 0.4795(6)
O2B_2 O 0.5684(7) 0.94277(19) 0.4795(6)
O2_2 O -0.5684(7) 1.05723(19) 0.5205(6)
O3B O -0.2877(7) 0.8617(2) 0.2621(6)
H4B H -0.2304 0.8841 0.2073
O4B O -0.2334(13) 0.6522(3) 0.3848(8)
O5B O -0.2171(9) 0.5968(2) 0.6217(7)
O5A O 0.2829(9) 0.9032(2) 0.1217(7)
O5C O -0.2829(9) 1.0968(2) 0.8783(7)
O6B O -0.2848(8) 0.6542(2) 0.9092(7)
O6A O 0.2152(8) 0.8458(2) 0.4092(7)
O6C O -0.2152(8) 1.1542(2) 0.5908(7)
O7B O 0.0784(7) 1.0517(2) -0.1400(6)
O7B_2 O 0.0784(7) 1.0517(2) 0.8600(6)
O8B O 0.2233(7) 1.0269(2) 0.1556(6)
O8_2 O -0.2233(7) 0.9731(2) 0.8444(6)
O9B O -0.3580(7) 1.0435(2) 0.2514(6)
H5B H -0.3776 1.0813 0.2129
H6B H -0.4680 1.0235 0.2191
loop_
_geom_bond_atom_site_label_1
_geom_bond_atom_site_label_2
_geom_bond_site_symmetry_1
_geom_bond_site_symmetry_2
Sm1 O1 1_555 1_555
As1 C1 1_555 1_555
C1 C2 1_555 1_555
C2 H1 1_555 1_555
C3 C2 1_555 1_555
H2 C3 1_555 1_555
C4 C3 1_555 1_555
C5 C4 1_555 1_555
C6 C1 1_555 1_555
H3 C6 1_555 1_555
C7 O7 1_555 1_555
N1 C5 1_555 1_555
O1 As1 1_555 1_555
O2 Sm1 1_555 1_555
O3 As1 1_555 1_555
H4 O3 1_555 1_555
O4 N1 1_555 1_555
O5 N1 1_555 1_555
O6 C4 1_555 1_555
O7 Sm1 1_555 1_555
O8 C7 1_555 1_555
O9 Sm1 1_555 1_555
H5 O9 1_555 1_555
H6 O9 1_555 1_555
Sm1B O1 1_555 1_555
Sm1B_2 O2 1_555 1_555
Sm1A O5 1_555 1_555
Sm1B_3 O8 1_555 1_555
Sm1_2 O2B 1_555 1_555
Sm1C O5B 1_555 1_555
As1B C1B 1_555 1_555
C1B C2B 1_555 1_555
C2B H1B 1_555 1_555
C3B C2B 1_555 1_555
H2B C3B 1_555 1_555
C4B C3B 1_555 1_555
C5B C4B 1_555 1_555
C6B C1B 1_555 1_555
H3B C6B 1_555 1_555
C7B C7 1_555 1_555
N1B C5B 1_555 1_555
O1B Sm1 1_555 1_555
O2B Sm1B 1_555 1_555
O2B_2 Sm1 1_555 1_555
O2_2 Sm1B 1_555 1_555
O3B As1B 1_555 1_555
H4B O3B 1_555 1_555
O4B N1B 1_555 1_555
O5B N1B 1_555 1_555
O5A Sm1 1_555 1_555
O5C Sm1B 1_555 1_555
O6B Sm1C 1_555 1_555
O6A Sm1 1_555 1_555
O6C Sm1B 1_555 1_555
O7B Sm1B_3 1_555 1_555
O7B_2 Sm1B 1_555 1_555
O8B Sm1 1_555 1_555
O8_2 Sm1B 1_555 1_555
O9B Sm1B 1_555 1_555
H5B O9B 1_555 1_555
H6B O9B 1_555 1_555
As1 O2 1_555 1_555
C5 C6 1_555 1_555
O6 Sm1A 1_555 1_555
Sm1B O1B 1_555 1_555
Sm1B_2 O2B_2 1_555 1_555
Sm1_2 O2_2 1_555 1_555
As1B O1B 1_555 1_555
As1B O2B 1_555 1_555
C4B O6B 1_555 1_555
C5B C6B 1_555 1_555
C7B O7B 1_555 1_555
C7B O8B 1_555 1_555

#END
