
#######################################################################
#
#                 Cambridge Crystallographic Data Centre
#                                CCDC 
#
#######################################################################
#
# If this CIF has been generated from an entry in the Cambridge 
# Structural Database, then it will include bibliographic, chemical, 
# crystal, experimental, refinement or atomic coordinate data resulting 
# from the CCDC's data processing and validation procedures.
#
#######################################################################

data_NAWPAC
_symmetry_cell_setting           monoclinic
_symmetry_space_group_name_H-M   'P 21/c'
_symmetry_Int_Tables_number      14
_space_group_name_Hall           '-P 2ybc'
loop_
_symmetry_equiv_pos_site_id
_symmetry_equiv_pos_as_xyz
1 x,y,z
2 -x,1/2+y,1/2-z
3 -x,-y,-z
4 x,1/2-y,1/2+z
_cell_length_a                   13.8717(12)
_cell_length_b                   11.6559(11)
_cell_length_c                   12.261(2)
_cell_angle_alpha                90
_cell_angle_beta                 93.202(10)
_cell_angle_gamma                90
_cell_volume                     1979.35
loop_
_atom_site_label
_atom_site_type_symbol
_atom_site_fract_x
_atom_site_fract_y
_atom_site_fract_z
Cd1 Cd 0.001899(14) 0.67945(2) -0.068911(15)
Cd2 Cd 0.0000 1.0000 0.0000
Cl1 Cl 0.12816(5) 0.84854(6) -0.04691(6)
Cl2 Cl -0.11823(5) 0.82300(6) 0.00916(5)
O1 O 0.1153(2) 0.5834(2) -0.1563(2)
O2 O 0.03347(15) 0.5398(2) -0.3122(2)
O3 O -0.12687(15) 0.5617(2) -0.0948(2)
O4 O -0.0593(2) 0.3879(2) -0.0979(2)
O5 O -0.0449(2) 0.7581(2) -0.2419(2)
H1 H 0.0007(2) 0.7932(2) -0.2657(2)
H2 H -0.0401(2) 0.6959(2) -0.2924(2)
N1 N 0.2856(2) 0.4773(2) -0.2317(2)
N2 N -0.2912(2) 0.4841(2) -0.2270(2)
C1 C 0.1093(2) 0.5474(2) -0.2525(2)
C2 C 0.2013(2) 0.5127(3) -0.3056(2)
H3 H 0.2215(2) 0.5766(3) -0.3496(2)
H4 H 0.1858(2) 0.4495(3) -0.3551(2)
C3 C 0.3310(3) 0.5767(3) -0.1717(3)
H5 H 0.3497(3) 0.6318(3) -0.2222(3)
H6 H 0.2864(3) 0.6093(3) -0.1260(3)
H7 H 0.3855(3) 0.5517(3) -0.1295(3)
C4 C 0.2558(3) 0.3880(3) -0.1528(3)
H8 H 0.2260(3) 0.3227(3) -0.1935(3)
H9 H 0.3130(3) 0.3610(3) -0.1085(3)
H10 H 0.2086(3) 0.4212(3) -0.1043(3)
C5 C 0.3589(2) 0.4267(4) -0.3037(3)
H11 H 0.3780(2) 0.4821(4) -0.3529(3)
H12 H 0.4125(2) 0.4021(4) -0.2607(3)
H13 H 0.3318(2) 0.3645(4) -0.3420(3)
C6 C -0.1261(2) 0.4580(2) -0.1187(2)
C7 C -0.2141(2) 0.4041(2) -0.1794(2)
H14 H -0.2441(2) 0.3524(2) -0.1295(2)
H15 H -0.1913(2) 0.3579(2) -0.2386(2)
C8 C -0.2488(2) 0.5695(3) -0.3023(3)
H16 H -0.2159(2) 0.5301(3) -0.3571(3)
H17 H -0.2990(2) 0.6150(3) -0.3358(3)
H18 H -0.2045(2) 0.6175(3) -0.2618(3)
C9 C -0.3615(2) 0.4124(3) -0.2945(3)
H19 H -0.3290(2) 0.3742(3) -0.3487(3)
H20 H -0.3899(2) 0.3585(3) -0.2497(3)
H21 H -0.4094(2) 0.4595(3) -0.3273(3)
C10 C -0.3429(2) 0.5452(3) -0.1406(3)
H22 H -0.3698(2) 0.4901(3) -0.0927(3)
H23 H -0.2982(2) 0.5936(3) -0.0994(3)
H24 H -0.3937(2) 0.5912(3) -0.1741(3)
O3B O 0.12687(15) 0.4383(2) 0.0948(2)
O4B O 0.0593(2) 0.6121(2) 0.0979(2)
N2B N 0.2912(2) 0.5159(2) 0.2270(2)
C6B C 0.1261(2) 0.5420(2) 0.1187(2)
C7B C 0.2141(2) 0.5959(2) 0.1794(2)
H14B H 0.2441(2) 0.6476(2) 0.1295(2)
H15B H 0.1913(2) 0.6421(2) 0.2386(2)
C8B C 0.2488(2) 0.4305(3) 0.3023(3)
H16B H 0.2159(2) 0.4699(3) 0.3571(3)
H17B H 0.2990(2) 0.3850(3) 0.3358(3)
H18B H 0.2045(2) 0.3825(3) 0.2618(3)
C9B C 0.3615(2) 0.5876(3) 0.2945(3)
H19B H 0.3290(2) 0.6258(3) 0.3487(3)
H20B H 0.3899(2) 0.6415(3) 0.2497(3)
H21B H 0.4094(2) 0.5405(3) 0.3273(3)
C10B C 0.3429(2) 0.4548(3) 0.1406(3)
H22B H 0.3698(2) 0.5099(3) 0.0927(3)
H23B H 0.2982(2) 0.4064(3) 0.0994(3)
H24B H 0.3937(2) 0.4088(3) 0.1741(3)
Cd1B Cd -0.001899(14) 0.32055(2) 0.068911(15)
Cd2A Cd 0.0000 0.5000 -0.5000
Cl1B Cl -0.12816(5) 1.15146(6) 0.04691(6)
Cl2B Cl 0.11823(5) 1.17700(6) -0.00916(5)
O1A O -0.1153(2) 1.0834(2) -0.3437(2)
O2A O -0.03347(15) 1.0398(2) -0.1878(2)
N1A N -0.2856(2) 0.9773(2) -0.2683(2)
C1A C -0.1093(2) 1.0474(2) -0.2475(2)
C2A C -0.2013(2) 1.0127(3) -0.1944(2)
H3A H -0.2215(2) 1.0766(3) -0.1504(2)
H4A H -0.1858(2) 0.9495(3) -0.1449(2)
C3A C -0.3310(3) 1.0767(3) -0.3283(3)
H5A H -0.3497(3) 1.1318(3) -0.2778(3)
H6A H -0.2864(3) 1.1093(3) -0.3740(3)
H7A H -0.3855(3) 1.0517(3) -0.3705(3)
C4A C -0.2558(3) 0.8880(3) -0.3472(3)
H8A H -0.2260(3) 0.8227(3) -0.3065(3)
H9A H -0.3130(3) 0.8610(3) -0.3915(3)
H10A H -0.2086(3) 0.9212(3) -0.3957(3)
C5A C -0.3589(2) 0.9267(4) -0.1963(3)
H11A H -0.3780(2) 0.9821(4) -0.1471(3)
H12A H -0.4125(2) 0.9021(4) -0.2393(3)
H13A H -0.3318(2) 0.8645(4) -0.1580(3)
O2C O 0.03347(15) 0.9602(2) 0.1878(2)
Cl1B_2 Cl -0.12816(5) 0.15146(6) 0.04691(6)
Cl2B_2 Cl 0.11823(5) 0.17700(6) -0.00916(5)
O1B O -0.1153(2) 0.4166(2) 0.1563(2)
O5B O 0.0449(2) 0.2419(2) 0.2419(2)
H1B H -0.0007(2) 0.2068(2) 0.2657(2)
H2B H 0.0401(2) 0.3041(2) 0.2924(2)
Cd1B_2 Cd -0.001899(14) 1.32055(2) 0.068911(15)
Cd1A Cd -0.001899(14) 1.17945(2) -0.431089(15)
Cl3 Cl 0.48228(6) 0.76583(9) 0.05190(7)
O6 O 0.3805(2) 0.7748(3) 0.0492(3)
O7 O 0.5202(3) 0.7996(4) 0.1559(4)
O8 O 0.5066(3) 0.6462(4) 0.0475(4)
O9 O 0.5185(4) 0.8239(7) -0.0297(6)
loop_
_geom_bond_atom_site_label_1
_geom_bond_atom_site_label_2
_geom_bond_site_symmetry_1
_geom_bond_site_symmetry_2
Cd1 Cl1 1_555 1_555
Cd2 Cl1 1_555 1_555
Cl2 Cd1 1_555 1_555
O1 Cd1 1_555 1_555
O2 C1 1_555 1_555
O3 Cd1 1_555 1_555
O4 C6 1_555 1_555
O5 Cd1 1_555 1_555
H1 O5 1_555 1_555
H2 O5 1_555 1_555
N1 C2 1_555 1_555
N2 C7 1_555 1_555
C1 O1 1_555 1_555
C2 C1 1_555 1_555
H3 C2 1_555 1_555
H4 C2 1_555 1_555
C3 N1 1_555 1_555
H5 C3 1_555 1_555
H6 C3 1_555 1_555
H7 C3 1_555 1_555
C4 N1 1_555 1_555
H8 C4 1_555 1_555
H9 C4 1_555 1_555
H10 C4 1_555 1_555
C5 N1 1_555 1_555
H11 C5 1_555 1_555
H12 C5 1_555 1_555
H13 C5 1_555 1_555
C6 O3 1_555 1_555
C7 C6 1_555 1_555
H14 C7 1_555 1_555
H15 C7 1_555 1_555
C8 N2 1_555 1_555
H16 C8 1_555 1_555
H17 C8 1_555 1_555
H18 C8 1_555 1_555
C9 N2 1_555 1_555
H19 C9 1_555 1_555
H20 C9 1_555 1_555
H21 C9 1_555 1_555
C10 N2 1_555 1_555
H22 C10 1_555 1_555
H23 C10 1_555 1_555
H24 C10 1_555 1_555
Cl3 O6 1_555 1_555
O7 Cl3 1_555 1_555
O8 Cl3 1_555 1_555
O9 Cl3 1_555 1_555
O3B C6B 1_555 1_555
O4B Cd1 1_555 1_555
N2B C7B 1_555 1_555
C6B O4B 1_555 1_555
C7B C6B 1_555 1_555
H14B C7B 1_555 1_555
H15B C7B 1_555 1_555
C8B N2B 1_555 1_555
H16B C8B 1_555 1_555
H17B C8B 1_555 1_555
H18B C8B 1_555 1_555
C9B N2B 1_555 1_555
H19B C9B 1_555 1_555
H20B C9B 1_555 1_555
H21B C9B 1_555 1_555
C10B N2B 1_555 1_555
H22B C10B 1_555 1_555
H23B C10B 1_555 1_555
H24B C10B 1_555 1_555
Cd1B O4 1_555 1_555
Cd2A O2 1_555 1_555
Cl1B Cd2 1_555 1_555
Cl2B Cd2 1_555 1_555
O1A C1A 1_555 1_555
O2A Cd2 1_555 1_555
N1A C2A 1_555 1_555
C1A O2A 1_555 1_555
C2A C1A 1_555 1_555
H3A C2A 1_555 1_555
H4A C2A 1_555 1_555
C3A N1A 1_555 1_555
H5A C3A 1_555 1_555
H6A C3A 1_555 1_555
H7A C3A 1_555 1_555
C4A N1A 1_555 1_555
H8A C4A 1_555 1_555
H9A C4A 1_555 1_555
H10A C4A 1_555 1_555
C5A N1A 1_555 1_555
H11A C5A 1_555 1_555
H12A C5A 1_555 1_555
H13A C5A 1_555 1_555
O2C Cd2 1_555 1_555
Cl1B_2 Cd1B 1_555 1_555
Cl2B_2 Cd1B 1_555 1_555
O1B Cd1B 1_555 1_555
O5B Cd1B 1_555 1_555
H1B O5B 1_555 1_555
H2B O5B 1_555 1_555
Cd1B_2 Cl1B 1_555 1_555
Cd1A O1A 1_555 1_555
Cd2 Cl2 1_555 1_555
O3B Cd1B 1_555 1_555
Cl2B Cd1B_2 1_555 1_555

#END
