
#######################################################################
#
#                 Cambridge Crystallographic Data Centre
#                                CCDC 
#
#######################################################################
#
# If this CIF has been generated from an entry in the Cambridge 
# Structural Database, then it will include bibliographic, chemical, 
# crystal, experimental, refinement or atomic coordinate data resulting 
# from the CCDC's data processing and validation procedures.
#
#######################################################################

data_NAWYOA
_symmetry_cell_setting           orthorhombic
_symmetry_space_group_name_H-M   'P 21 21 21'
_symmetry_Int_Tables_number      19
_space_group_name_Hall           'P 2ac 2ab'
loop_
_symmetry_equiv_pos_site_id
_symmetry_equiv_pos_as_xyz
1 x,y,z
2 1/2-x,-y,1/2+z
3 1/2+x,1/2-y,-z
4 -x,1/2+y,1/2-z
_cell_length_a                   6.3914(5)
_cell_length_b                   12.4452(13)
_cell_length_c                   18.482(3)
_cell_angle_alpha                90
_cell_angle_beta                 90
_cell_angle_gamma                90
_cell_volume                     1470.1
loop_
_atom_site_label
_atom_site_type_symbol
_atom_site_fract_x
_atom_site_fract_y
_atom_site_fract_z
Na1 Na 0.7932(3) 0.75926(10) 0.07587(7)
O1 O 0.6559(4) 0.59067(19) 0.12264(15)
H1 H 0.7106 0.5264 0.1237
H2 H 0.5283 0.5860 0.1069
O2 O 0.9189(4) 0.71892(19) -0.04088(13)
H3 H 0.8937 0.6516 -0.0499
H4 H 0.8340 0.7582 -0.0667
O3 O 1.1171(5) 0.6851(2) 0.12747(14)
H5 H 1.1240 0.6161 0.1269
H6 H 1.1605 0.7101 0.1685
N1 N 0.7763(5) 1.2427(2) 0.05235(14)
H7 H 0.7757 1.2917 0.0195
N2 N 0.7590(5) 1.3759(2) 0.14543(15)
N3 N 0.7599(5) 1.3680(2) 0.21782(16)
N4 N 0.7738(5) 1.2677(2) 0.23771(14)
N5 N 0.7834(5) 1.2052(2) 0.17856(14)
N6 N 0.7820(6) 1.1037(2) -0.03598(15)
N7 N 0.7861(6) 0.9946(2) -0.03131(15)
N8 N 0.7887(6) 0.9633(2) 0.03498(15)
N9 N 0.7843(5) 1.05317(19) 0.07572(14)
H8 H 0.7838 1.0555 0.1222
N10 N 0.7194(5) 0.6802(2) 0.26108(14)
H9 H 0.7101 0.6450 0.2212
N11 N 0.7193(5) 0.51789(19) 0.32842(15)
H10 H 0.7204 0.4741 0.2924
N12 N 0.7175(5) 0.4907(2) 0.39926(15)
N13 N 0.7169(5) 0.5791(2) 0.43517(15)
N14 N 0.7183(5) 0.6659(2) 0.38985(14)
N15 N 0.7438(5) 0.8427(2) 0.19631(14)
N16 N 0.7591(6) 0.9475(2) 0.21609(15)
N17 N 0.7579(5) 0.9580(2) 0.28525(15)
N18 N 0.7407(5) 0.85809(19) 0.31309(14)
H11 H 0.7352 0.8418 0.3583
C1 C 0.7723(5) 1.2738(2) 0.12406(17)
C2 C 0.7809(6) 1.1379(2) 0.03148(17)
C3 C 0.7191(5) 0.6243(2) 0.32442(17)
C4 C 0.7337(5) 0.7896(2) 0.25806(16)
Na1B Na 1.2932(3) 0.74074(10) -0.07587(7)
O2B O 0.4189(4) 0.78108(19) 0.04088(13)
H3B H 0.3937 0.8484 0.0499
H4B H 0.3340 0.7418 0.0667
loop_
_geom_bond_atom_site_label_1
_geom_bond_atom_site_label_2
_geom_bond_site_symmetry_1
_geom_bond_site_symmetry_2
Na1 O1 1_555 1_555
O1 H1 1_555 1_555
H2 O1 1_555 1_555
O2 Na1 1_555 1_555
H3 O2 1_555 1_555
H4 O2 1_555 1_555
O3 Na1 1_555 1_555
H5 O3 1_555 1_555
H6 O3 1_555 1_555
N1 H7 1_555 1_555
N2 N3 1_555 1_555
N3 N4 1_555 1_555
N4 N5 1_555 1_555
N5 C1 1_555 1_555
N6 N7 1_555 1_555
N7 N8 1_555 1_555
N8 Na1 1_555 1_555
N9 N8 1_555 1_555
H8 N9 1_555 1_555
N10 H9 1_555 1_555
N11 H10 1_555 1_555
N12 N11 1_555 1_555
N13 N12 1_555 1_555
N14 N13 1_555 1_555
N15 Na1 1_555 1_555
N16 N15 1_555 1_555
N17 N16 1_555 1_555
N18 N17 1_555 1_555
H11 N18 1_555 1_555
C1 N1 1_555 1_555
C2 N1 1_555 1_555
C3 N10 1_555 1_555
C4 N10 1_555 1_555
Na1B O2 1_555 1_555
O2B Na1 1_555 1_555
H3B O2B 1_555 1_555
H4B O2B 1_555 1_555
N2 C1 1_555 1_555
N6 C2 1_555 1_555
N9 C2 1_555 1_555
N11 C3 1_555 1_555
N14 C3 1_555 1_555
N15 C4 1_555 1_555
N18 C4 1_555 1_555

#END
