
#######################################################################
#
#                 Cambridge Crystallographic Data Centre
#                                CCDC 
#
#######################################################################
#
# If this CIF has been generated from an entry in the Cambridge 
# Structural Database, then it will include bibliographic, chemical, 
# crystal, experimental, refinement or atomic coordinate data resulting 
# from the CCDC's data processing and validation procedures.
#
#######################################################################

data_NAXHIE
_symmetry_cell_setting           triclinic
_symmetry_space_group_name_H-M   'P -1'
_symmetry_Int_Tables_number      2
_space_group_name_Hall           '-P 1'
loop_
_symmetry_equiv_pos_site_id
_symmetry_equiv_pos_as_xyz
1 x,y,z
2 -x,-y,-z
_cell_length_a                   9.7430(4)
_cell_length_b                   10.6165(4)
_cell_length_c                   19.9746(8)
_cell_angle_alpha                83.2940(10)
_cell_angle_beta                 84.4000(10)
_cell_angle_gamma                63.9830(10)
_cell_volume                     1841.54
loop_
_atom_site_label
_atom_site_type_symbol
_atom_site_fract_x
_atom_site_fract_y
_atom_site_fract_z
Ho1 Ho 0.214390(12) -0.091540(11) 0.254820(6)
Fe1 Fe -0.23135(4) 0.45495(4) 0.273170(19)
O1 O 0.3589(2) 0.0319(2) 0.26706(11)
H1 H 0.321(5) 0.111(4) 0.2662(19)
H2 H 0.406(5) 0.014(4) 0.3027(19)
O2 O 0.2125(3) -0.0770(2) 0.37266(11)
H3 H 0.220(5) -0.016(5) 0.380(2)
H4 H 0.255(5) -0.159(4) 0.397(2)
O3 O 0.1811(3) -0.2857(2) 0.31469(12)
H5 H 0.239(5) -0.328(5) 0.345(2)
H6 H 0.124(5) -0.326(4) 0.311(2)
O4 O 0.2380(3) 0.0139(3) 0.14841(11)
H7 H 0.234(5) 0.114(5) 0.135(2)
H8 H 0.219(6) -0.009(5) 0.115(2)
N1 N -0.0245(3) -0.0886(2) 0.21668(12)
N2 N 0.2558(3) -0.2580(3) 0.16532(12)
N3 N 0.4765(3) -0.2655(3) 0.27189(13)
N4 N -0.0022(3) 0.5786(3) 0.28948(14)
N5 N -0.3015(4) 0.4218(3) 0.42726(15)
N6 N -0.4642(4) 0.3407(4) 0.2549(2)
N7 N -0.1730(4) 0.4936(4) 0.11862(16)
N8 N 0.0253(3) 0.1513(2) 0.26905(13)
C1 C -0.1625(3) -0.0036(3) 0.24272(16)
H9 H -0.1676 0.0575 0.2737
C2 C -0.2979(4) -0.0023(4) 0.22587(19)
H10 H -0.3914 0.0588 0.2448
C3 C -0.2909(4) -0.0927(4) 0.1810(2)
H11 H -0.3799 -0.0948 0.1694
C4 C -0.1508(4) -0.1810(4) 0.15281(19)
H12 H -0.1448 -0.2421 0.1216
C5 C -0.0181(4) -0.1773(3) 0.17185(15)
C6 C 0.1349(4) -0.2689(3) 0.14345(15)
C7 C 0.1543(5) -0.3609(4) 0.0955(2)
H13 H 0.0697 -0.3673 0.0812
C8 C 0.2981(6) -0.4425(4) 0.0692(2)
H14 H 0.3120 -0.5051 0.0374
C9 C 0.4214(5) -0.4300(4) 0.09061(18)
H15 H 0.5200 -0.4835 0.0735
C10 C 0.3953(4) -0.3364(4) 0.13816(16)
H16 H 0.4785 -0.3271 0.1521
C11 C 0.5911(3) -0.3650(3) 0.27310(14)
C12 C -0.0885(3) 0.5345(3) 0.28431(14)
C13 C -0.2701(3) 0.4317(3) 0.37047(16)
C14 C -0.3760(3) 0.3801(3) 0.26085(17)
C15 C -0.1964(4) 0.4797(3) 0.17550(16)
C16 C -0.0657(3) 0.2657(3) 0.27173(14)
Fe1_2 Fe 0.76865(4) -0.54505(4) 0.273170(19)
C11_2 C -0.4089(3) 0.6350(3) 0.27310(14)
N9 N 0.2556(3) -0.8518(3) 0.41135(13)
N10 N 0.5435(3) -1.0498(3) 0.38330(15)
C17 C 0.1140(4) -0.7511(4) 0.41875(16)
H17 H 0.0329 -0.7728 0.4142
C18 C 0.0805(4) -0.6157(4) 0.43289(17)
H18 H -0.0202 -0.5484 0.4377
C19 C 0.1998(5) -0.5837(4) 0.4396(2)
H19 H 0.1814 -0.4938 0.4492
C20 C 0.3485(4) -0.6866(4) 0.43191(19)
H20 H 0.4309 -0.6662 0.4358
C21 C 0.3729(4) -0.8210(3) 0.41834(15)
C22 C 0.5301(4) -0.9375(3) 0.41203(15)
C23 C 0.6549(4) -0.9306(4) 0.4360(2)
H21 H 0.6434 -0.8509 0.4555
C24 C 0.7969(4) -1.0435(5) 0.4307(2)
H22 H 0.8827 -1.0396 0.4450
C25 C 0.8096(4) -1.1611(4) 0.40391(19)
H23 H 0.9028 -1.2404 0.4019
C26 C 0.6808(4) -1.1592(4) 0.3801(2)
H24 H 0.6900 -1.2383 0.3608
O5 O 0.2712(3) -0.6853(3) 0.24192(19)
H25 H 0.343(5) -0.674(5) 0.248(2)
H26 H 0.222(6) -0.642(6) 0.249(3)
O6 O 0.3602(4) -0.3471(4) 0.43406(13)
O8 O 0.0748(10) -0.5982(9) 0.0145(4)
O10 O 0.180(2) -0.7084(11) 0.1197(3)
N11 N 0.8081(5) -0.9653(4) -0.01811(15)
C27 C 0.6643(6) -0.8956(5) 0.0059(2)
H28 H 0.5866 -0.9020 -0.0150
C28 C 0.6248(7) -0.8139(5) 0.0604(2)
H29 H 0.5235 -0.7686 0.0763
C29 C 0.7387(7) -0.8018(5) 0.0901(2)
H30 H 0.7157 -0.7460 0.1259
C30 C 0.8880(6) -0.8737(4) 0.06625(19)
H31 H 0.9669 -0.8663 0.0857
C31 C 0.9200(5) -0.9578(4) 0.01263(16)
N11A N 1.1919(5) -1.0347(4) 0.01811(15)
C27A C 1.3357(6) -1.1044(5) -0.0059(2)
H28A H 1.4134 -1.0980 0.0150
C28A C 1.3752(7) -1.1861(5) -0.0604(2)
H29A H 1.4765 -1.2314 -0.0763
C29A C 1.2613(7) -1.1982(5) -0.0901(2)
H30A H 1.2843 -1.2540 -0.1259
C30A C 1.1120(6) -1.1263(4) -0.06625(19)
H31A H 1.0331 -1.1337 -0.0857
C31A C 1.0800(5) -1.0422(4) -0.01263(16)
H27? H 0.349(7) -0.355(6) 0.458(2)
O7? O 0.281(4) -0.722(5) 0.9765(12)
O9? O 0.276(3) -0.761(2) 0.1131(6)
loop_
_geom_bond_atom_site_label_1
_geom_bond_atom_site_label_2
_geom_bond_site_symmetry_1
_geom_bond_site_symmetry_2
Ho1 O1 1_555 1_555
Fe1 C12 1_555 1_555
O1 H1 1_555 1_555
H2 O1 1_555 1_555
O2 Ho1 1_555 1_555
H3 O2 1_555 1_555
H4 O2 1_555 1_555
O3 Ho1 1_555 1_555
H5 O3 1_555 1_555
H6 O3 1_555 1_555
O4 Ho1 1_555 1_555
H7 O4 1_555 1_555
H8 O4 1_555 1_555
N1 Ho1 1_555 1_555
N2 Ho1 1_555 1_555
N3 Ho1 1_555 1_555
N4 C12 1_555 1_555
N5 C13 1_555 1_555
N6 C14 1_555 1_555
N7 C15 1_555 1_555
N8 Ho1 1_555 1_555
N9 C17 1_555 1_555
N10 C22 1_555 1_555
C1 N1 1_555 1_555
H9 C1 1_555 1_555
C2 C1 1_555 1_555
H10 C2 1_555 1_555
C3 C2 1_555 1_555
H11 C3 1_555 1_555
C4 C3 1_555 1_555
H12 C4 1_555 1_555
C5 N1 1_555 1_555
C6 N2 1_555 1_555
C7 C6 1_555 1_555
H13 C7 1_555 1_555
C8 C7 1_555 1_555
H14 C8 1_555 1_555
C9 C8 1_555 1_555
H15 C9 1_555 1_555
C10 N2 1_555 1_555
H16 C10 1_555 1_555
C11 N3 1_555 1_555
C13 Fe1 1_555 1_555
C14 Fe1 1_555 1_555
C15 Fe1 1_555 1_555
C16 Fe1 1_555 1_555
C17 H17 1_555 1_555
C18 C17 1_555 1_555
H18 C18 1_555 1_555
C19 C18 1_555 1_555
H19 C19 1_555 1_555
C20 C19 1_555 1_555
H20 C20 1_555 1_555
C21 N9 1_555 1_555
C22 C21 1_555 1_555
C23 C22 1_555 1_555
H21 C23 1_555 1_555
C24 C23 1_555 1_555
H22 C24 1_555 1_555
C25 C24 1_555 1_555
H23 C25 1_555 1_555
C26 N10 1_555 1_555
H24 C26 1_555 1_555
O5 H25 1_555 1_555
H26 O5 1_555 1_555
N11 C27 1_555 1_555
C27 H28 1_555 1_555
C28 C27 1_555 1_555
H29 C28 1_555 1_555
C29 C28 1_555 1_555
H30 C29 1_555 1_555
C30 C29 1_555 1_555
H31 C30 1_555 1_555
C31 N11 1_555 1_555
Fe1_2 C11 1_555 1_555
C11_2 Fe1 1_555 1_555
N11A C27A 1_555 1_555
C27A H28A 1_555 1_555
C28A C27A 1_555 1_555
H29A C28A 1_555 1_555
C29A C28A 1_555 1_555
H30A C29A 1_555 1_555
C30A C29A 1_555 1_555
H31A C30A 1_555 1_555
C31A C31 1_555 1_555
N8 C16 1_555 1_555
C4 C5 1_555 1_555
C5 C6 1_555 1_555
C9 C10 1_555 1_555
C20 C21 1_555 1_555
C25 C26 1_555 1_555
C30 C31 1_555 1_555
N11A C31A 1_555 1_555
C30A C31A 1_555 1_555

#END
