
#######################################################################
#
#                 Cambridge Crystallographic Data Centre
#                                CCDC 
#
#######################################################################
#
# If this CIF has been generated from an entry in the Cambridge 
# Structural Database, then it will include bibliographic, chemical, 
# crystal, experimental, refinement or atomic coordinate data resulting 
# from the CCDC's data processing and validation procedures.
#
#######################################################################

data_NAXHEA
_symmetry_cell_setting           triclinic
_symmetry_space_group_name_H-M   'P -1'
_symmetry_Int_Tables_number      2
_space_group_name_Hall           '-P 1'
loop_
_symmetry_equiv_pos_site_id
_symmetry_equiv_pos_as_xyz
1 x,y,z
2 -x,-y,-z
_cell_length_a                   9.7403(8)
_cell_length_b                   10.6329(8)
_cell_length_c                   19.9447(16)
_cell_angle_alpha                83.2860(10)
_cell_angle_beta                 84.2840(10)
_cell_angle_gamma                63.9940(10)
_cell_volume                     1841.04
loop_
_atom_site_label
_atom_site_type_symbol
_atom_site_fract_x
_atom_site_fract_y
_atom_site_fract_z
Dy1 Dy 0.214856(12) 0.408826(11) 0.254887(6)
Fe1 Fe 0.76918(4) -0.04461(3) 0.273006(18)
O1 O 0.3598(2) 0.5330(2) 0.26705(11)
H1 H 0.409(4) 0.515(4) 0.3038(18)
H2 H 0.321(4) 0.605(4) 0.2635(18)
O2 O 0.2131(3) 0.4236(2) 0.37321(10)
H3 H 0.257(4) 0.352(4) 0.3946(18)
H4 H 0.235(4) 0.489(4) 0.3876(18)
O3 O 0.1817(3) 0.2138(2) 0.31531(12)
H5 H 0.236(5) 0.176(4) 0.349(2)
H6 H 0.141(5) 0.181(4) 0.308(2)
O4 O 0.2394(3) 0.5138(2) 0.14785(10)
H7 H 0.2250 0.5949 0.1511
H8 H 0.2222 0.5040 0.1208
N1 N 0.0249(3) 0.6527(2) 0.26922(12)
N2 N -0.0243(2) 0.4116(2) 0.21601(11)
N3 N 0.2558(3) 0.2421(2) 0.16513(11)
N4 N 0.4782(3) 0.2351(2) 0.27189(12)
N5 N 0.8280(4) -0.0061(3) 0.11852(15)
N6 N 0.9982(3) 0.0785(3) 0.28956(13)
N7 N 0.6986(3) -0.0781(3) 0.42709(14)
N8 N 0.5366(4) -0.1592(3) 0.25471(18)
C1 C -0.1620(3) 0.4956(3) 0.24179(15)
H9 H -0.1673 0.5568 0.2727
C2 C -0.2967(4) 0.4973(4) 0.22537(18)
H10 H -0.3898 0.5589 0.2444
C3 C -0.2915(4) 0.4077(4) 0.18084(19)
H11 H -0.3808 0.4060 0.1692
C4 C -0.1511(4) 0.3191(4) 0.15322(18)
H12 H -0.1451 0.2573 0.1225
C5 C -0.0171(3) 0.3224(3) 0.17147(14)
C6 C 0.1355(3) 0.2302(3) 0.14347(14)
C7 C 0.1558(5) 0.1378(4) 0.09549(18)
H13 H 0.0715 0.1307 0.0813
C8 C 0.2987(5) 0.0576(4) 0.06918(19)
H14 H 0.3127 -0.0046 0.0372
C9 C 0.4210(5) 0.0698(3) 0.09042(17)
H15 H 0.5196 0.0165 0.0731
C10 C 0.3953(4) 0.1630(3) 0.13806(15)
H16 H 0.4788 0.1715 0.1522
C11 C 0.5920(3) 0.1358(3) 0.27289(13)
C12 C 0.9120(3) 0.0348(3) 0.28427(13)
C13 C 0.7294(3) -0.0678(3) 0.37034(15)
C14 C 0.6251(3) -0.1198(3) 0.26076(15)
C15 C 0.8044(3) -0.0198(3) 0.17542(15)
C16 C -0.0661(3) 0.7667(3) 0.27153(13)
Fe1_2 Fe -0.23082(4) 0.95539(3) 0.273006(18)
C16_2 C 0.9339(3) -0.2333(3) 0.27153(13)
N9 N 0.2567(3) 0.6480(3) 0.41139(12)
N10 N 0.5435(3) 0.4511(3) 0.38300(14)
C17 C 0.1145(4) 0.7492(3) 0.41889(15)
H17 H 0.0335 0.7275 0.4141
C18 C 0.0806(4) 0.8838(3) 0.43334(16)
H18 H -0.0201 0.9507 0.4387
C19 C 0.2007(4) 0.9153(4) 0.43951(18)
H19 H 0.1825 1.0051 0.4489
C20 C 0.3488(4) 0.8133(3) 0.43173(17)
H20 H 0.4311 0.8340 0.4351
C21 C 0.3735(3) 0.6792(3) 0.41876(14)
C22 C 0.5297(4) 0.5635(3) 0.41225(14)
C23 C 0.6558(4) 0.5704(4) 0.43571(19)
H21 H 0.6448 0.6502 0.4548
C24 C 0.7972(4) 0.4576(4) 0.4304(2)
H22 H 0.8832 0.4611 0.4449
C25 C 0.8092(4) 0.3401(4) 0.40342(17)
H23 H 0.9024 0.2610 0.4012
C26 C 0.6812(4) 0.3420(4) 0.37995(18)
H24 H 0.6905 0.2628 0.3608
N11 N 0.1106(6) 0.3726(4) 0.93356(18)
C27 C 0.2630(6) 0.3004(4) 0.90981(19)
H25 H 0.2871 0.2440 0.8741
C28 C 0.3752(6) 0.3137(4) 0.9395(2)
H26 H 0.4770 0.2690 0.9239
C29 C 0.3330(6) 0.3964(5) 0.9938(2)
H27 H 0.4100 0.4039 1.0147
C30 C 0.1927(4) 0.4639(3) 1.01745(14)
H28 H 0.1713 0.5158 1.0547
C31 C 0.0806(5) 0.4574(3) 0.98729(15)
N11A N -0.1106(6) 0.6274(4) 1.06644(18)
C27A C -0.2630(6) 0.6996(4) 1.09019(19)
H25A H -0.2871 0.7560 1.1259
C28A C -0.3752(6) 0.6863(4) 1.0605(2)
H26A H -0.4770 0.7310 1.0761
C29A C -0.3330(6) 0.6036(5) 1.0062(2)
H27A H -0.4100 0.5961 0.9853
C30A C -0.1927(4) 0.5361(3) 0.98255(14)
H28A H -0.1713 0.4842 0.9453
C31A C -0.0806(5) 0.5426(3) 1.01271(15)
O5 O 0.3600(3) 0.1532(2) 0.43493(11)
O6 O 0.2721(3) 0.8154(3) 0.24145(17)
H29 H 0.347(5) 0.824(4) 0.2463(17)
H30 H 0.217(5) 0.864(5) 0.256(2)
O9 O 0.185(2) 0.7890(11) 0.1195(3)
O10 O 0.0710(8) 0.9050(8) 0.0146(3)
O7? O 0.280(3) 0.7372(18) 0.1112(6)
O8? O 0.281(2) 0.770(2) 0.9814(8)
loop_
_geom_bond_atom_site_label_1
_geom_bond_atom_site_label_2
_geom_bond_site_symmetry_1
_geom_bond_site_symmetry_2
Dy1 O1 1_555 1_555
Fe1 C11 1_555 1_555
O1 H1 1_555 1_555
H2 O1 1_555 1_555
O2 Dy1 1_555 1_555
H3 O2 1_555 1_555
H4 O2 1_555 1_555
O3 Dy1 1_555 1_555
H5 O3 1_555 1_555
H6 O3 1_555 1_555
O4 Dy1 1_555 1_555
H7 O4 1_555 1_555
H8 O4 1_555 1_555
N1 Dy1 1_555 1_555
N2 Dy1 1_555 1_555
N3 Dy1 1_555 1_555
N4 Dy1 1_555 1_555
N5 C15 1_555 1_555
N6 C12 1_555 1_555
N7 C13 1_555 1_555
N8 C14 1_555 1_555
N9 C17 1_555 1_555
N10 C22 1_555 1_555
N11 C27 1_555 1_555
C1 N2 1_555 1_555
H9 C1 1_555 1_555
C2 C1 1_555 1_555
H10 C2 1_555 1_555
C3 C2 1_555 1_555
H11 C3 1_555 1_555
C4 C3 1_555 1_555
H12 C4 1_555 1_555
C5 N2 1_555 1_555
C6 N3 1_555 1_555
C7 C6 1_555 1_555
H13 C7 1_555 1_555
C8 C7 1_555 1_555
H14 C8 1_555 1_555
C9 C8 1_555 1_555
H15 C9 1_555 1_555
C10 N3 1_555 1_555
H16 C10 1_555 1_555
C11 N4 1_555 1_555
C12 Fe1 1_555 1_555
C13 Fe1 1_555 1_555
C14 Fe1 1_555 1_555
C15 Fe1 1_555 1_555
C16 N1 1_555 1_555
C17 H17 1_555 1_555
C18 C17 1_555 1_555
H18 C18 1_555 1_555
C19 C18 1_555 1_555
H19 C19 1_555 1_555
C20 C19 1_555 1_555
H20 C20 1_555 1_555
C21 N9 1_555 1_555
C22 C21 1_555 1_555
C23 C22 1_555 1_555
H21 C23 1_555 1_555
C24 C23 1_555 1_555
H22 C24 1_555 1_555
C25 C24 1_555 1_555
H23 C25 1_555 1_555
C26 N10 1_555 1_555
H24 C26 1_555 1_555
C27 H25 1_555 1_555
C28 C27 1_555 1_555
H26 C28 1_555 1_555
C29 C28 1_555 1_555
H27 C29 1_555 1_555
C30 C29 1_555 1_555
H28 C30 1_555 1_555
C31 N11 1_555 1_555
O6 H29 1_555 1_555
H30 O6 1_555 1_555
Fe1_2 C16 1_555 1_555
N11A C27A 1_555 1_555
C16_2 Fe1 1_555 1_555
C27A H25A 1_555 1_555
C28A C27A 1_555 1_555
H26A C28A 1_555 1_555
C29A C28A 1_555 1_555
H27A C29A 1_555 1_555
C30A C29A 1_555 1_555
H28A C30A 1_555 1_555
C31A C31 1_555 1_555
C4 C5 1_555 1_555
C5 C6 1_555 1_555
C9 C10 1_555 1_555
C20 C21 1_555 1_555
C25 C26 1_555 1_555
C30 C31 1_555 1_555
N11A C31A 1_555 1_555
C30A C31A 1_555 1_555

#END
