
#######################################################################
#
#                 Cambridge Crystallographic Data Centre
#                                CCDC 
#
#######################################################################
#
# If this CIF has been generated from an entry in the Cambridge 
# Structural Database, then it will include bibliographic, chemical, 
# crystal, experimental, refinement or atomic coordinate data resulting 
# from the CCDC's data processing and validation procedures.
#
#######################################################################

data_NAXHUQ
_symmetry_cell_setting           triclinic
_symmetry_space_group_name_H-M   'P -1'
_symmetry_Int_Tables_number      2
_space_group_name_Hall           '-P 1'
loop_
_symmetry_equiv_pos_site_id
_symmetry_equiv_pos_as_xyz
1 x,y,z
2 -x,-y,-z
_cell_length_a                   9.7316(7)
_cell_length_b                   10.5930(7)
_cell_length_c                   19.9733(13)
_cell_angle_alpha                83.3560(10)
_cell_angle_beta                 84.5710(10)
_cell_angle_gamma                63.8080(10)
_cell_volume                     1832.97
loop_
_atom_site_label
_atom_site_type_symbol
_atom_site_fract_x
_atom_site_fract_y
_atom_site_fract_z
Tm1 Tm -0.214010(11) 0.591940(10) -0.254590(5)
Fe1 Fe 0.23189(4) 0.04543(3) -0.273160(17)
O1 O -0.2110(2) 0.57698(19) -0.37108(9)
H1 H -0.2418 0.6507 -0.3980
H2 H -0.2340 0.5194 -0.3864
O2 O -0.35800(19) 0.46998(18) -0.26662(9)
H3 H -0.3205 0.3774 -0.2638
H4 H -0.4013 0.4861 -0.3019
O3 O -0.2354(2) 0.4866(2) -0.14950(9)
H5 H -0.2060 0.5007 -0.1147
H6 H -0.2237 0.3945 -0.1441
O4 O -0.1816(2) 0.7853(2) -0.31377(10)
H7 H -0.1446 0.8353 -0.3029
H8 H -0.2439 0.8344 -0.3442
N1 N 0.0238(2) 0.5884(2) -0.21711(10)
N2 N -0.2565(3) 0.7577(2) -0.16532(11)
N3 N -0.4739(2) 0.7654(2) -0.27203(11)
N4 N 0.3013(3) 0.0787(3) -0.42712(13)
N5 N 0.0027(3) -0.0786(2) -0.28926(12)
N6 N 0.1747(4) 0.0061(3) -0.11860(14)
N7 N 0.4657(3) 0.1596(3) -0.25527(17)
N8 N -0.0262(2) 0.3500(2) -0.26873(11)
C1 C 0.1623(3) 0.5047(3) -0.24353(14)
H9 H 0.1675 0.4439 -0.2748
C2 C 0.2969(3) 0.5035(3) -0.22722(17)
H10 H 0.3901 0.4427 -0.2468
C3 C 0.2919(4) 0.5922(4) -0.18213(17)
H11 H 0.3815 0.5936 -0.1704
C4 C 0.1505(4) 0.6807(3) -0.15378(16)
H12 H 0.1444 0.7420 -0.1226
C5 C 0.0183(3) 0.6772(3) -0.17227(13)
C6 C -0.1355(3) 0.7686(3) -0.14370(13)
C7 C -0.1552(5) 0.8607(4) -0.09561(17)
H13 H -0.0707 0.8677 -0.0814
C8 C -0.2986(5) 0.9410(4) -0.06910(17)
H14 H -0.3123 1.0031 -0.0370
C9 C -0.4219(4) 0.9291(3) -0.09023(15)
H15 H -0.5205 0.9823 -0.0728
C10 C -0.3956(3) 0.8356(3) -0.13821(14)
H16 H -0.4790 0.8266 -0.1523
C11 C -0.5889(3) 0.8645(2) -0.27318(12)
C12 C 0.2709(3) 0.0687(3) -0.37047(14)
C13 C 0.0895(3) -0.0347(2) -0.28426(12)
C14 C 0.1975(3) 0.0200(3) -0.17553(14)
C15 C 0.3759(3) 0.1207(3) -0.26143(15)
C16 C 0.0652(3) 0.2351(3) -0.27150(12)
Fe1_2 Fe -0.76811(4) 1.04543(3) -0.273160(17)
C11_2 C 0.4111(3) -0.1355(2) -0.27318(12)
N9 N -0.5434(3) 0.5515(3) -0.38324(13)
N10 N -0.2552(3) 0.3524(2) -0.41092(11)
C17 C -0.6813(4) 0.6607(4) -0.38053(17)
H17 H -0.6905 0.7403 -0.3615
C18 C -0.8104(4) 0.6634(4) -0.40391(16)
H18 H -0.9040 0.7429 -0.4017
C19 C -0.7971(4) 0.5452(4) -0.43068(18)
H19 H -0.8831 0.5414 -0.4453
C20 C -0.6553(4) 0.4319(4) -0.43586(18)
H20 H -0.6441 0.3519 -0.4552
C21 C -0.5296(3) 0.4381(3) -0.41211(13)
C22 C -0.3722(3) 0.3213(3) -0.41821(13)
C23 C -0.3475(4) 0.1864(3) -0.43140(16)
H21 H -0.4299 0.1659 -0.4349
C24 C -0.1994(4) 0.0839(3) -0.43919(16)
H22 H -0.1810 -0.0063 -0.4487
C25 C -0.0793(4) 0.1155(3) -0.43282(14)
H23 H 0.0216 0.0480 -0.4381
C26 C -0.1123(3) 0.2501(3) -0.41840(14)
H24 H -0.0309 0.2714 -0.4136
O5 O -0.2710(2) 0.1862(2) -0.24193(12)
H25 H -0.3454 0.1626 -0.2472
H26 H -0.1830 0.1128 -0.2562
O6 O -0.3588(3) 0.8460(2) -0.43454(10)
H27 H -0.3424 0.8715 -0.4742
H28 H -0.4733 0.8981 -0.4278
O7 O -0.1797(16) 0.2094(8) -0.1197(2)
O8 O -0.0704(9) 0.0943(8) -0.0143(3)
N11 N -0.1930(4) 0.5346(3) -1.01886(13)
C27 C -0.3356(5) 0.6029(4) -0.99457(18)
H29 H -0.4129 0.5961 -1.0158
C28 C -0.3781(5) 0.6835(4) -0.93988(18)
H30 H -0.4798 0.7271 -0.9239
C29 C -0.2636(5) 0.6965(4) -0.91003(17)
H31 H -0.2872 0.7526 -0.8742
C30 C -0.1157(5) 0.6266(4) -0.93348(16)
H32 H -0.0378 0.6350 -0.9136
C31 C -0.0802(4) 0.5421(3) -0.98735(14)
N11A N 0.1930(4) 0.4654(3) -0.98114(13)
C27A C 0.3356(5) 0.3971(4) -1.00543(18)
H29A H 0.4129 0.4039 -0.9842
C28A C 0.3781(5) 0.3165(4) -1.06012(18)
H30A H 0.4798 0.2729 -1.0761
C29A C 0.2636(5) 0.3035(4) -1.08997(17)
H31A H 0.2872 0.2474 -1.1258
C30A C 0.1157(5) 0.3734(4) -1.06652(16)
H32A H 0.0378 0.3650 -1.0864
C31A C 0.0802(4) 0.4579(3) -1.01265(14)
O9? O -0.277(2) 0.2621(14) -0.1120(5)
O10? O -0.2830(15) 0.2327(14) -0.9802(6)
loop_
_geom_bond_atom_site_label_1
_geom_bond_atom_site_label_2
_geom_bond_site_symmetry_1
_geom_bond_site_symmetry_2
Tm1 O1 1_555 1_555
Fe1 C12 1_555 1_555
O1 H1 1_555 1_555
H2 O1 1_555 1_555
O2 Tm1 1_555 1_555
H3 O2 1_555 1_555
H4 O2 1_555 1_555
O3 Tm1 1_555 1_555
H5 O3 1_555 1_555
H6 O3 1_555 1_555
O4 Tm1 1_555 1_555
H7 O4 1_555 1_555
H8 O4 1_555 1_555
N1 Tm1 1_555 1_555
N2 Tm1 1_555 1_555
N3 Tm1 1_555 1_555
N4 C12 1_555 1_555
N5 C13 1_555 1_555
N6 C14 1_555 1_555
N7 C15 1_555 1_555
N8 Tm1 1_555 1_555
N9 C17 1_555 1_555
N10 C22 1_555 1_555
C1 N1 1_555 1_555
H9 C1 1_555 1_555
C2 C1 1_555 1_555
H10 C2 1_555 1_555
C3 C2 1_555 1_555
H11 C3 1_555 1_555
C4 C3 1_555 1_555
H12 C4 1_555 1_555
C5 N1 1_555 1_555
C6 N2 1_555 1_555
C7 C6 1_555 1_555
H13 C7 1_555 1_555
C8 C7 1_555 1_555
H14 C8 1_555 1_555
C9 C8 1_555 1_555
H15 C9 1_555 1_555
C10 N2 1_555 1_555
H16 C10 1_555 1_555
C11 N3 1_555 1_555
C13 Fe1 1_555 1_555
C14 Fe1 1_555 1_555
C15 Fe1 1_555 1_555
C16 Fe1 1_555 1_555
C17 H17 1_555 1_555
C18 C17 1_555 1_555
H18 C18 1_555 1_555
C19 C18 1_555 1_555
H19 C19 1_555 1_555
C20 C19 1_555 1_555
H20 C20 1_555 1_555
C21 N9 1_555 1_555
C22 C21 1_555 1_555
C23 C22 1_555 1_555
H21 C23 1_555 1_555
C24 C23 1_555 1_555
H22 C24 1_555 1_555
C25 C24 1_555 1_555
H23 C25 1_555 1_555
C26 N10 1_555 1_555
H24 C26 1_555 1_555
O5 H25 1_555 1_555
H26 O5 1_555 1_555
O6 H27 1_555 1_555
H28 O6 1_555 1_555
N11 C27 1_555 1_555
C27 H29 1_555 1_555
C28 C27 1_555 1_555
H30 C28 1_555 1_555
C29 C28 1_555 1_555
H31 C29 1_555 1_555
C30 C29 1_555 1_555
H32 C30 1_555 1_555
C31 N11 1_555 1_555
Fe1_2 C11 1_555 1_555
C11_2 Fe1 1_555 1_555
N11A C27A 1_555 1_555
C27A H29A 1_555 1_555
C28A C27A 1_555 1_555
H30A C28A 1_555 1_555
C29A C28A 1_555 1_555
H31A C29A 1_555 1_555
C30A C29A 1_555 1_555
H32A C30A 1_555 1_555
C31A C31 1_555 1_555
N8 C16 1_555 1_555
C4 C5 1_555 1_555
C5 C6 1_555 1_555
C9 C10 1_555 1_555
C20 C21 1_555 1_555
C25 C26 1_555 1_555
C30 C31 1_555 1_555
N11A C31A 1_555 1_555
C30A C31A 1_555 1_555

#END
