
#######################################################################
#
#                 Cambridge Crystallographic Data Centre
#                                CCDC 
#
#######################################################################
#
# If this CIF has been generated from an entry in the Cambridge 
# Structural Database, then it will include bibliographic, chemical, 
# crystal, experimental, refinement or atomic coordinate data resulting 
# from the CCDC's data processing and validation procedures.
#
#######################################################################

data_NAXJEC
_symmetry_cell_setting           triclinic
_symmetry_space_group_name_H-M   'P -1'
_symmetry_Int_Tables_number      2
_space_group_name_Hall           '-P 1'
loop_
_symmetry_equiv_pos_site_id
_symmetry_equiv_pos_as_xyz
1 x,y,z
2 -x,-y,-z
_cell_length_a                   9.7128(11)
_cell_length_b                   10.5886(12)
_cell_length_c                   20.017(2)
_cell_angle_alpha                83.262(2)
_cell_angle_beta                 84.258(2)
_cell_angle_gamma                64.088(2)
_cell_volume                     1836.15
loop_
_atom_site_label
_atom_site_type_symbol
_atom_site_fract_x
_atom_site_fract_y
_atom_site_fract_z
Tb1 Tb -0.212440(13) -0.408270(12) -0.255820(6)
Co1 Co -0.76629(4) 0.04543(4) -0.27415(2)
O1 O -0.1799(3) -0.2099(3) -0.31542(13)
H1 H -0.1360 -0.1590 -0.3077
H2 H -0.2401 -0.1690 -0.3470
O2 O -0.2122(3) -0.4210(2) -0.37436(12)
H3 H -0.2675 -0.3431 -0.3987
H4 H -0.2414 -0.4757 -0.3857
O3 O -0.3566(2) -0.5351(2) -0.26831(12)
H5 H -0.4115 -0.5002 -0.3013
H6 H -0.3200 -0.6249 -0.2671
O4 O -0.2337(3) -0.5169(3) -0.14855(13)
H7 H -0.2309 -0.5868 -0.1434
H8 H -0.2140 -0.4936 -0.1119
N1 N -0.2546(3) -0.2411(3) -0.16544(14)
N2 N 0.0271(3) -0.4101(3) -0.21619(14)
N3 N -0.0195(3) -0.6547(3) -0.27109(15)
N4 N -0.9941(3) -0.0760(3) -0.28986(16)
N5 N -0.6983(4) 0.0782(4) -0.42582(17)
N6 N -0.5368(4) 0.1599(4) -0.2558(2)
N7 N -0.8241(5) 0.0075(4) -0.12167(19)
N8 N -0.4793(3) -0.2334(3) -0.27153(16)
C1 C -0.3942(4) -0.1629(4) -0.13859(19)
H9 H -0.4773 -0.1722 -0.1528
C2 C -0.4216(6) -0.0691(4) -0.0910(2)
H10 H -0.5208 -0.0148 -0.0745
C3 C -0.2981(7) -0.0583(5) -0.0687(3)
H11 H -0.3124 0.0028 -0.0361
C4 C -0.1536(6) -0.1385(5) -0.0949(2)
H12 H -0.0693 -0.1318 -0.0803
C5 C -0.1336(4) -0.2298(4) -0.14339(17)
C6 C 0.0205(4) -0.3219(4) -0.17165(18)
C7 C 0.1532(5) -0.3183(5) -0.1524(2)
H13 H 0.1462 -0.2562 -0.1216
C8 C 0.2950(5) -0.4077(5) -0.1795(3)
H14 H 0.3843 -0.4067 -0.1672
C9 C 0.3015(4) -0.4974(5) -0.2247(2)
H15 H 0.3953 -0.5587 -0.2435
C10 C 0.1661(4) -0.4957(4) -0.24232(19)
H16 H 0.1715 -0.5563 -0.2736
C11 C 0.0725(3) -0.7691(3) -0.27327(16)
C12 C -0.9065(3) -0.0322(3) -0.28485(16)
C13 C -0.7287(4) 0.0684(3) -0.36902(18)
C14 C -0.6255(4) 0.1199(4) -0.2627(2)
C15 C -0.7998(4) 0.0212(4) -0.17919(18)
C16 C -0.5938(3) -0.1315(3) -0.27390(16)
Co1_2 Co 0.23371(4) -0.95457(4) -0.27415(2)
C11_2 C -0.9275(3) 0.2309(3) -0.27327(16)
N9 N -0.2548(3) -0.6476(3) -0.41201(15)
N10 N -0.5431(4) -0.4511(4) -0.38318(18)
C17 C -0.1121(4) -0.7485(4) -0.41948(19)
H17 H -0.0309 -0.7263 -0.4151
C18 C -0.0786(5) -0.8834(4) -0.4333(2)
H18 H 0.0224 -0.9505 -0.4383
C19 C -0.1988(5) -0.9163(4) -0.4396(2)
H19 H -0.1801 -1.0065 -0.4490
C20 C -0.3467(5) -0.8146(4) -0.4318(2)
H20 H -0.4290 -0.8358 -0.4352
C21 C -0.3722(4) -0.6793(4) -0.41874(17)
C22 C -0.5299(4) -0.5631(4) -0.41241(18)
C23 C -0.6552(5) -0.5712(5) -0.4355(3)
H21 H -0.6442 -0.6517 -0.4542
C24 C -0.7982(5) -0.4566(6) -0.4302(3)
H22 H -0.8843 -0.4601 -0.4448
C25 C -0.8107(5) -0.3396(5) -0.4035(2)
H23 H -0.9043 -0.2606 -0.4011
C26 C -0.6814(5) -0.3408(5) -0.3803(2)
H24 H -0.6905 -0.2611 -0.3615
O5 O -0.2699(3) -0.8175(3) -0.24218(17)
H25 H -0.336(6) -0.832(5) -0.247(3)
H26 H -0.1972(3) -0.8959(3) -0.25194(15)
O6 O -0.3591(3) -0.1514(3) -0.43569(15)
H27 H -0.4588 -0.0884 -0.4349
H28 H -0.3456 -0.1294 -0.4836
O7 O -0.1733(14) -0.7960(8) -0.1203(3)
O10 O -0.2762(17) -0.7777(13) -0.9790(6)
N11 N -0.1932(5) -0.4652(4) -1.01889(18)
C27 C -0.3368(7) -0.3964(6) -0.9950(3)
H29 H -0.4142 -0.4032 -1.0160
C28 C -0.3775(8) -0.3156(6) -0.9409(3)
H30 H -0.4794 -0.2714 -0.9252
C29 C -0.2653(8) -0.3017(5) -0.9109(2)
H31 H -0.2901 -0.2445 -0.8755
C30 C -0.1147(7) -0.3737(5) -0.9337(2)
H32 H -0.0367 -0.3661 -0.9135
C31 C -0.0801(6) -0.4580(4) -0.98731(19)
N11A N 0.1932(5) -0.5348(4) -0.98111(18)
C27A C 0.3368(7) -0.6036(6) -1.0050(3)
H29A H 0.4142 -0.5968 -0.9840
C28A C 0.3775(8) -0.6844(6) -1.0591(3)
H30A H 0.4794 -0.7286 -1.0748
C29A C 0.2653(8) -0.6983(5) -1.0891(2)
H31A H 0.2901 -0.7555 -1.1245
C30A C 0.1147(7) -0.6263(5) -1.0663(2)
H32A H 0.0367 -0.6339 -1.0865
C31A C 0.0801(6) -0.5420(4) -1.01269(19)
O8? O -0.275(3) -0.7414(18) -0.1135(7)
O9? O -0.0740(14) -0.9038(13) -0.0133(6)
loop_
_geom_bond_atom_site_label_1
_geom_bond_atom_site_label_2
_geom_bond_site_symmetry_1
_geom_bond_site_symmetry_2
Tb1 O1 1_555 1_555
Co1 C12 1_555 1_555
O1 H1 1_555 1_555
H2 O1 1_555 1_555
O2 Tb1 1_555 1_555
H3 O2 1_555 1_555
H4 O2 1_555 1_555
O3 Tb1 1_555 1_555
H5 O3 1_555 1_555
H6 O3 1_555 1_555
O4 Tb1 1_555 1_555
H7 O4 1_555 1_555
H8 O4 1_555 1_555
N1 Tb1 1_555 1_555
N2 Tb1 1_555 1_555
N3 Tb1 1_555 1_555
N4 C12 1_555 1_555
N5 C13 1_555 1_555
N6 C14 1_555 1_555
N7 C15 1_555 1_555
N8 Tb1 1_555 1_555
N9 C17 1_555 1_555
N10 C22 1_555 1_555
C1 N1 1_555 1_555
H9 C1 1_555 1_555
C2 C1 1_555 1_555
H10 C2 1_555 1_555
C3 C2 1_555 1_555
H11 C3 1_555 1_555
C4 C3 1_555 1_555
H12 C4 1_555 1_555
C5 N1 1_555 1_555
C6 N2 1_555 1_555
C7 C6 1_555 1_555
H13 C7 1_555 1_555
C8 C7 1_555 1_555
H14 C8 1_555 1_555
C9 C8 1_555 1_555
H15 C9 1_555 1_555
C10 N2 1_555 1_555
H16 C10 1_555 1_555
C11 N3 1_555 1_555
C13 Co1 1_555 1_555
C14 Co1 1_555 1_555
C15 Co1 1_555 1_555
C16 Co1 1_555 1_555
C17 H17 1_555 1_555
C18 C17 1_555 1_555
H18 C18 1_555 1_555
C19 C18 1_555 1_555
H19 C19 1_555 1_555
C20 C19 1_555 1_555
H20 C20 1_555 1_555
C21 N9 1_555 1_555
C22 C21 1_555 1_555
C23 C22 1_555 1_555
H21 C23 1_555 1_555
C24 C23 1_555 1_555
H22 C24 1_555 1_555
C25 C24 1_555 1_555
H23 C25 1_555 1_555
C26 N10 1_555 1_555
H24 C26 1_555 1_555
O5 H25 1_555 1_555
H26 O5 1_555 1_555
O6 H27 1_555 1_555
H28 O6 1_555 1_555
N11 C27 1_555 1_555
C27 H29 1_555 1_555
C28 C27 1_555 1_555
H30 C28 1_555 1_555
C29 C28 1_555 1_555
H31 C29 1_555 1_555
C30 C29 1_555 1_555
H32 C30 1_555 1_555
C31 N11 1_555 1_555
Co1_2 C11 1_555 1_555
C11_2 Co1 1_555 1_555
N11A C27A 1_555 1_555
C27A H29A 1_555 1_555
C28A C27A 1_555 1_555
H30A C28A 1_555 1_555
C29A C28A 1_555 1_555
H31A C29A 1_555 1_555
C30A C29A 1_555 1_555
H32A C30A 1_555 1_555
C31A C31 1_555 1_555
N8 C16 1_555 1_555
C4 C5 1_555 1_555
C5 C6 1_555 1_555
C9 C10 1_555 1_555
C20 C21 1_555 1_555
C25 C26 1_555 1_555
C30 C31 1_555 1_555
N11A C31A 1_555 1_555
C30A C31A 1_555 1_555

#END
