
#######################################################################
#
#                 Cambridge Crystallographic Data Centre
#                                CCDC 
#
#######################################################################
#
# If this CIF has been generated from an entry in the Cambridge 
# Structural Database, then it will include bibliographic, chemical, 
# crystal, experimental, refinement or atomic coordinate data resulting 
# from the CCDC's data processing and validation procedures.
#
#######################################################################

data_NAXJIG
_symmetry_cell_setting           triclinic
_symmetry_space_group_name_H-M   'P -1'
_symmetry_Int_Tables_number      2
_space_group_name_Hall           '-P 1'
loop_
_symmetry_equiv_pos_site_id
_symmetry_equiv_pos_as_xyz
1 x,y,z
2 -x,-y,-z
_cell_length_a                   9.7016(4)
_cell_length_b                   10.5779(5)
_cell_length_c                   20.0008(9)
_cell_angle_alpha                83.2540(10)
_cell_angle_beta                 84.3520(10)
_cell_angle_gamma                63.9710(10)
_cell_volume                     1829.05
loop_
_atom_site_label
_atom_site_type_symbol
_atom_site_fract_x
_atom_site_fract_y
_atom_site_fract_z
Dy1 Dy -0.212070(11) 0.591970(9) -0.255620(5)
Co1 Co 0.23411(3) 0.04572(3) -0.274030(16)
O1 O -0.1801(2) 0.78990(18) -0.31468(9)
H1 H -0.1231 0.8277 -0.3079
H2 H -0.2382 0.8338 -0.3466
O2 O -0.2108(2) 0.57857(18) -0.37370(8)
H3 H -0.2735 0.6592 -0.3952
H4 H -0.2567 0.5285 -0.3863
O3 O -0.35619(18) 0.46651(17) -0.26803(8)
H5 H -0.3097 0.3761 -0.2702
H6 H -0.4036 0.4879 -0.3047
O4 O -0.2335(2) 0.4837(2) -0.14892(9)
H7 H -0.2161 0.4015 -0.1523
H8 H -0.2139 0.5075 -0.1076
N1 N 0.0275(2) 0.5893(2) -0.21659(10)
N2 N -0.2540(2) 0.7583(2) -0.16534(10)
N3 N -0.4778(2) 0.7673(2) -0.27221(11)
N4 N 0.3017(3) 0.0788(3) -0.42573(12)
N5 N 0.0070(3) -0.0763(2) -0.28968(12)
N6 N 0.1776(3) 0.0077(3) -0.12184(13)
N7 N 0.4640(3) 0.1599(3) -0.25605(16)
N8 N -0.0192(2) 0.3464(2) -0.27099(11)
C1 C 0.1667(3) 0.5047(3) -0.24279(14)
H9 H 0.1721 0.4443 -0.2742
C2 C 0.3015(3) 0.5027(3) -0.22554(16)
H10 H 0.3954 0.4412 -0.2444
C3 C 0.2953(4) 0.5923(3) -0.18043(17)
H11 H 0.3848 0.5935 -0.1684
C4 C 0.1541(4) 0.6813(3) -0.15284(16)
H12 H 0.1478 0.7432 -0.1220
C5 C 0.0204(3) 0.6778(2) -0.17162(12)
C6 C -0.1331(3) 0.7697(3) -0.14368(12)
C7 C -0.1536(4) 0.8610(4) -0.09484(16)
H13 H -0.0692 0.8674 -0.0801
C8 C -0.2976(5) 0.9410(4) -0.06864(17)
H14 H -0.3118 1.0025 -0.0362
C9 C -0.4206(4) 0.9300(3) -0.09060(15)
H15 H -0.5197 0.9840 -0.0737
C10 C -0.3943(3) 0.8370(3) -0.13848(14)
H16 H -0.4779 0.8283 -0.1528
C11 C -0.5923(3) 0.8677(2) -0.27334(12)
C12 C 0.2716(3) 0.0685(2) -0.36891(13)
C13 C 0.0941(3) -0.0321(2) -0.28465(12)
C14 C 0.2009(3) 0.0211(3) -0.17896(14)
C15 C 0.3751(3) 0.1200(2) -0.26229(14)
C16 C 0.0722(2) 0.2317(2) -0.27318(12)
Co1_2 Co -0.76589(3) 1.04572(3) -0.274030(16)
C11_2 C 0.4077(3) -0.1323(2) -0.27334(12)
N9 N -0.5427(3) 0.5503(3) -0.38334(13)
N10 N -0.2542(2) 0.3524(2) -0.41197(11)
C17 C -0.6811(4) 0.6609(3) -0.38052(16)
H17 H -0.6902 0.7410 -0.3619
C18 C -0.8102(3) 0.6619(3) -0.40372(15)
H18 H -0.9040 0.7412 -0.4014
C19 C -0.7981(4) 0.5444(4) -0.43027(17)
H19 H -0.8846 0.5406 -0.4445
C20 C -0.6553(4) 0.4305(3) -0.43580(17)
H20 H -0.6440 0.3505 -0.4551
C21 C -0.5296(3) 0.4374(3) -0.41221(13)
C22 C -0.3716(3) 0.3209(3) -0.41851(12)
C23 C -0.3466(4) 0.1860(3) -0.43146(15)
H21 H -0.4292 0.1651 -0.4348
C24 C -0.1976(4) 0.0832(3) -0.43939(16)
H22 H -0.1790 -0.0070 -0.4489
C25 C -0.0783(3) 0.1157(3) -0.43316(14)
H23 H 0.0228 0.0482 -0.4382
C26 C -0.1112(3) 0.2512(3) -0.41915(14)
H24 H -0.0298 0.2729 -0.4145
O5 O -0.2699(2) 0.1834(2) -0.24209(11)
H25 H -0.1863 0.1109 -0.2596
H26 H -0.3428 0.1616 -0.2429
O6 O -0.3587(2) 0.8480(2) -0.43572(10)
H27 H -0.3405 0.8747 -0.4786
H28 H -0.4670 0.9205 -0.4304
O7 O -0.1736(11) 0.2045(6) -0.12054(19)
O9 O -0.0736(10) 0.0943(9) -0.0132(4)
N11 N -0.1933(4) 0.5344(3) -1.01905(13)
C27 C -0.3368(5) 0.6027(4) -0.99519(18)
H29 H -0.4141 0.5953 -1.0161
C28 C -0.3782(5) 0.6840(4) -0.94120(18)
H30 H -0.4804 0.7286 -0.9257
C29 C -0.2656(5) 0.6976(4) -0.91096(17)
H31 H -0.2903 0.7543 -0.8753
C30 C -0.1153(5) 0.6266(3) -0.93386(15)
H32 H -0.0372 0.6345 -0.9139
C31 C -0.0810(4) 0.5423(3) -0.98744(13)
N11A N 0.1933(4) 0.4656(3) -0.98095(13)
C27A C 0.3368(5) 0.3973(4) -1.00481(18)
H29A H 0.4141 0.4047 -0.9839
C28A C 0.3782(5) 0.3160(4) -1.05880(18)
H30A H 0.4804 0.2714 -1.0743
C29A C 0.2656(5) 0.3024(4) -1.08904(17)
H31A H 0.2903 0.2457 -1.1247
C30A C 0.1153(5) 0.3734(3) -1.06614(15)
H32A H 0.0372 0.3655 -1.0861
C31A C 0.0810(4) 0.4577(3) -1.01256(13)
O8? O -0.275(2) 0.2613(14) -0.1136(5)
O10? O -0.2768(12) 0.2238(9) -0.9791(4)
loop_
_geom_bond_atom_site_label_1
_geom_bond_atom_site_label_2
_geom_bond_site_symmetry_1
_geom_bond_site_symmetry_2
Dy1 O1 1_555 1_555
Co1 C12 1_555 1_555
O1 H1 1_555 1_555
H2 O1 1_555 1_555
O2 Dy1 1_555 1_555
H3 O2 1_555 1_555
H4 O2 1_555 1_555
O3 Dy1 1_555 1_555
H5 O3 1_555 1_555
H6 O3 1_555 1_555
O4 Dy1 1_555 1_555
H7 O4 1_555 1_555
H8 O4 1_555 1_555
N1 Dy1 1_555 1_555
N2 Dy1 1_555 1_555
N3 Dy1 1_555 1_555
N4 C12 1_555 1_555
N5 C13 1_555 1_555
N6 C14 1_555 1_555
N7 C15 1_555 1_555
N8 Dy1 1_555 1_555
N9 C17 1_555 1_555
N10 C22 1_555 1_555
C1 N1 1_555 1_555
H9 C1 1_555 1_555
C2 C1 1_555 1_555
H10 C2 1_555 1_555
C3 C2 1_555 1_555
H11 C3 1_555 1_555
C4 C3 1_555 1_555
H12 C4 1_555 1_555
C5 N1 1_555 1_555
C6 N2 1_555 1_555
C7 C6 1_555 1_555
H13 C7 1_555 1_555
C8 C7 1_555 1_555
H14 C8 1_555 1_555
C9 C8 1_555 1_555
H15 C9 1_555 1_555
C10 N2 1_555 1_555
H16 C10 1_555 1_555
C11 N3 1_555 1_555
C13 Co1 1_555 1_555
C14 Co1 1_555 1_555
C15 Co1 1_555 1_555
C16 Co1 1_555 1_555
C17 H17 1_555 1_555
C18 C17 1_555 1_555
H18 C18 1_555 1_555
C19 C18 1_555 1_555
H19 C19 1_555 1_555
C20 C19 1_555 1_555
H20 C20 1_555 1_555
C21 N9 1_555 1_555
C22 C21 1_555 1_555
C23 C22 1_555 1_555
H21 C23 1_555 1_555
C24 C23 1_555 1_555
H22 C24 1_555 1_555
C25 C24 1_555 1_555
H23 C25 1_555 1_555
C26 N10 1_555 1_555
H24 C26 1_555 1_555
O5 H25 1_555 1_555
H26 O5 1_555 1_555
O6 H27 1_555 1_555
H28 O6 1_555 1_555
N11 C27 1_555 1_555
C27 H29 1_555 1_555
C28 C27 1_555 1_555
H30 C28 1_555 1_555
C29 C28 1_555 1_555
H31 C29 1_555 1_555
C30 C29 1_555 1_555
H32 C30 1_555 1_555
C31 N11 1_555 1_555
Co1_2 C11 1_555 1_555
C11_2 Co1 1_555 1_555
N11A C27A 1_555 1_555
C27A H29A 1_555 1_555
C28A C27A 1_555 1_555
H30A C28A 1_555 1_555
C29A C28A 1_555 1_555
H31A C29A 1_555 1_555
C30A C29A 1_555 1_555
H32A C30A 1_555 1_555
C31A C31 1_555 1_555
N8 C16 1_555 1_555
C4 C5 1_555 1_555
C5 C6 1_555 1_555
C9 C10 1_555 1_555
C20 C21 1_555 1_555
C25 C26 1_555 1_555
C30 C31 1_555 1_555
N11A C31A 1_555 1_555
C30A C31A 1_555 1_555

#END
