
#######################################################################
#
#                 Cambridge Crystallographic Data Centre
#                                CCDC 
#
#######################################################################
#
# If this CIF has been generated from an entry in the Cambridge 
# Structural Database, then it will include bibliographic, chemical, 
# crystal, experimental, refinement or atomic coordinate data resulting 
# from the CCDC's data processing and validation procedures.
#
#######################################################################

data_NAXJOM
_symmetry_cell_setting           triclinic
_symmetry_space_group_name_H-M   'P -1'
_symmetry_Int_Tables_number      2
_space_group_name_Hall           '-P 1'
loop_
_symmetry_equiv_pos_site_id
_symmetry_equiv_pos_as_xyz
1 x,y,z
2 -x,-y,-z
_cell_length_a                   9.6954(4)
_cell_length_b                   10.5647(4)
_cell_length_c                   20.0042(7)
_cell_angle_alpha                83.3170(10)
_cell_angle_beta                 84.4510(10)
_cell_angle_gamma                63.8570(10)
_cell_volume                     1824.52
loop_
_atom_site_label
_atom_site_type_symbol
_atom_site_fract_x
_atom_site_fract_y
_atom_site_fract_z
Ho1 Ho -0.211880(13) -0.407810(12) -0.255390(6)
Co1 Co -0.76577(4) 0.04580(4) -0.273690(19)
O1 O -0.2329(3) -0.5162(3) -0.14994(11)
H1 H -0.2143 -0.4975 -0.1117
H2 H -0.2404 -0.5933 -0.1344
O2 O -0.3555(2) -0.5322(2) -0.26802(10)
H3 H -0.4148 -0.4984 -0.3001
H4 H -0.3216 -0.6216 -0.2638
O3 O -0.2099(3) -0.4210(2) -0.37318(10)
H5 H -0.2677 -0.3448 -0.4001
H6 H -0.2438 -0.4875 -0.3820
O4 O -0.1806(3) -0.2105(2) -0.31393(11)
H7 H -0.1219 -0.1769 -0.3059
H8 H -0.2373 -0.1679 -0.3475
N1 N -0.2544(3) -0.2417(3) -0.16557(13)
N2 N 0.0272(3) -0.4103(3) -0.21689(12)
N3 N -0.0206(3) -0.6529(3) -0.27042(13)
N4 N -0.9932(3) -0.0764(3) -0.28937(14)
N5 N -0.6982(3) 0.0792(3) -0.42523(15)
N6 N -0.5351(4) 0.1594(4) -0.25556(19)
N7 N -0.8227(4) 0.0078(4) -0.12133(16)
N8 N -0.4768(3) -0.2326(3) -0.27175(13)
C1 C -0.3945(4) -0.1634(4) -0.13798(17)
H9 H -0.4783 -0.1722 -0.1520
C2 C -0.4204(5) -0.0703(4) -0.08989(18)
H10 H -0.5195 -0.0165 -0.0726
C3 C -0.2966(6) -0.0591(5) -0.0683(2)
H11 H -0.3106 0.0023 -0.0358
C4 C -0.1524(5) -0.1390(4) -0.0947(2)
H12 H -0.0677 -0.1323 -0.0803
C5 C -0.1332(4) -0.2307(3) -0.14336(15)
C6 C 0.0209(4) -0.3225(3) -0.17172(15)
C7 C 0.1551(4) -0.3193(4) -0.1536(2)
H13 H 0.1489 -0.2576 -0.1226
C8 C 0.2959(4) -0.4069(4) -0.1814(2)
H14 H 0.3855 -0.4049 -0.1697
C9 C 0.3013(4) -0.4968(4) -0.22631(19)
H15 H 0.3952 -0.5584 -0.2453
C10 C 0.1667(3) -0.4954(4) -0.24336(17)
H16 H 0.1720 -0.5561 -0.2747
C11 C 0.0717(3) -0.7673(3) -0.27281(14)
C12 C -0.9058(3) -0.0321(3) -0.28441(15)
C13 C -0.7285(3) 0.0689(3) -0.36878(16)
C14 C -0.6248(3) 0.1205(3) -0.26186(17)
C15 C -0.7995(3) 0.0211(3) -0.17867(16)
C16 C -0.5912(3) -0.1325(3) -0.27285(14)
Co1_2 Co 0.23423(4) -0.95420(4) -0.273690(19)
C11_2 C -0.9283(3) 0.2327(3) -0.27281(14)
N9 N -0.5425(3) -0.4483(3) -0.38368(15)
N10 N -0.2543(3) -0.6468(3) -0.41176(13)
C17 C -0.6813(4) -0.3380(4) -0.3808(2)
H17 H -0.6902 -0.2579 -0.3621
C18 C -0.8111(4) -0.3361(5) -0.40374(18)
H18 H -0.9049 -0.2562 -0.4017
C19 C -0.7982(4) -0.4557(5) -0.4298(2)
H19 H -0.8849 -0.4603 -0.4434
C20 C -0.6562(4) -0.5686(4) -0.4356(2)
H20 H -0.6449 -0.6489 -0.4548
C21 C -0.5297(4) -0.5612(4) -0.41245(16)
C22 C -0.3716(4) -0.6792(3) -0.41827(15)
C23 C -0.3468(4) -0.8134(4) -0.43105(19)
H21 H -0.4294 -0.8344 -0.4343
C24 C -0.1974(4) -0.9165(4) -0.4390(2)
H22 H -0.1788 -1.0070 -0.4482
C25 C -0.0769(4) -0.8844(4) -0.43310(17)
H23 H 0.0244 -0.9519 -0.4385
C26 C -0.1106(4) -0.7491(4) -0.41900(16)
H24 H -0.0292 -0.7272 -0.4142
O5 O -0.2697(3) -0.8158(3) -0.24209(16)
H31 H -0.344(5) -0.834(4) -0.2509(19)
H32 H -0.204(5) -0.880(5) -0.252(2)
O6 O -0.3585(3) -0.1522(3) -0.43600(12)
H25 H -0.4635 -0.0911 -0.4290
H26 H -0.3372 -0.1226 -0.4738
O7 O -0.1752(14) -0.7946(8) -0.1206(2)
O9 O -0.2756(14) -0.7772(13) -0.9795(6)
N11 N -0.1151(6) -0.3729(4) -0.93313(19)
C27 C -0.2679(6) -0.3019(5) -0.9108(2)
H27 H -0.2943 -0.2439 -0.8756
C28 C -0.3800(7) -0.3180(5) -0.9412(2)
H28 H -0.4825 -0.2757 -0.9257
C29 C -0.3345(7) -0.3995(5) -0.9959(2)
H29 H -0.4105 -0.4074 -1.0177
C30 C -0.1926(5) -0.4658(4) -1.01884(16)
H30 H -0.1695 -0.5175 -1.0563
C31 C -0.0808(5) -0.4584(4) -0.98757(17)
N11A N 0.1151(6) -0.6271(4) -1.06687(19)
C27A C 0.2679(6) -0.6981(5) -1.0892(2)
H27A H 0.2943 -0.7561 -1.1244
C28A C 0.3800(7) -0.6820(5) -1.0588(2)
H28A H 0.4825 -0.7243 -1.0743
C29A C 0.3345(7) -0.6005(5) -1.0041(2)
H29A H 0.4105 -0.5926 -0.9823
C30A C 0.1926(5) -0.5342(4) -0.98116(16)
H30A H 0.1695 -0.4825 -0.9437
C31A C 0.0808(5) -0.5416(4) -1.01243(17)
O8? O -0.276(3) -0.7384(19) -0.1126(6)
O10? O -0.0738(12) -0.9046(11) -0.0132(5)
loop_
_geom_bond_atom_site_label_1
_geom_bond_atom_site_label_2
_geom_bond_site_symmetry_1
_geom_bond_site_symmetry_2
Ho1 O1 1_555 1_555
Co1 C12 1_555 1_555
O1 H1 1_555 1_555
H2 O1 1_555 1_555
O2 Ho1 1_555 1_555
H3 O2 1_555 1_555
H4 O2 1_555 1_555
O3 Ho1 1_555 1_555
H5 O3 1_555 1_555
H6 O3 1_555 1_555
O4 Ho1 1_555 1_555
H7 O4 1_555 1_555
H8 O4 1_555 1_555
N1 Ho1 1_555 1_555
N2 Ho1 1_555 1_555
N3 Ho1 1_555 1_555
N4 C12 1_555 1_555
N5 C13 1_555 1_555
N6 C14 1_555 1_555
N7 C15 1_555 1_555
N8 Ho1 1_555 1_555
N9 C17 1_555 1_555
N10 C22 1_555 1_555
C1 N1 1_555 1_555
H9 C1 1_555 1_555
C2 C1 1_555 1_555
H10 C2 1_555 1_555
C3 C2 1_555 1_555
H11 C3 1_555 1_555
C4 C3 1_555 1_555
H12 C4 1_555 1_555
C5 N1 1_555 1_555
C6 N2 1_555 1_555
C7 C6 1_555 1_555
H13 C7 1_555 1_555
C8 C7 1_555 1_555
H14 C8 1_555 1_555
C9 C8 1_555 1_555
H15 C9 1_555 1_555
C10 N2 1_555 1_555
H16 C10 1_555 1_555
C11 N3 1_555 1_555
C13 Co1 1_555 1_555
C14 Co1 1_555 1_555
C15 Co1 1_555 1_555
C16 Co1 1_555 1_555
C17 H17 1_555 1_555
C18 C17 1_555 1_555
H18 C18 1_555 1_555
C19 C18 1_555 1_555
H19 C19 1_555 1_555
C20 C19 1_555 1_555
H20 C20 1_555 1_555
C21 N9 1_555 1_555
C22 C21 1_555 1_555
C23 C22 1_555 1_555
H21 C23 1_555 1_555
C24 C23 1_555 1_555
H22 C24 1_555 1_555
C25 C24 1_555 1_555
H23 C25 1_555 1_555
C26 N10 1_555 1_555
H24 C26 1_555 1_555
O5 H31 1_555 1_555
O6 H25 1_555 1_555
H26 O6 1_555 1_555
N11 C27 1_555 1_555
C27 H27 1_555 1_555
C28 C27 1_555 1_555
H28 C28 1_555 1_555
C29 C28 1_555 1_555
H29 C29 1_555 1_555
C30 C29 1_555 1_555
H30 C30 1_555 1_555
C31 N11 1_555 1_555
H32 O5 1_555 1_555
Co1_2 C11 1_555 1_555
C11_2 Co1 1_555 1_555
N11A C27A 1_555 1_555
C27A H27A 1_555 1_555
C28A C27A 1_555 1_555
H28A C28A 1_555 1_555
C29A C28A 1_555 1_555
H29A C29A 1_555 1_555
C30A C29A 1_555 1_555
H30A C30A 1_555 1_555
C31A C31 1_555 1_555
N8 C16 1_555 1_555
C4 C5 1_555 1_555
C5 C6 1_555 1_555
C9 C10 1_555 1_555
C20 C21 1_555 1_555
C25 C26 1_555 1_555
C30 C31 1_555 1_555
N11A C31A 1_555 1_555
C30A C31A 1_555 1_555

#END
