
#######################################################################
#
#                 Cambridge Crystallographic Data Centre
#                                CCDC 
#
#######################################################################
#
# If this CIF has been generated from an entry in the Cambridge 
# Structural Database, then it will include bibliographic, chemical, 
# crystal, experimental, refinement or atomic coordinate data resulting 
# from the CCDC's data processing and validation procedures.
#
#######################################################################

data_NAXJAY
_symmetry_cell_setting           triclinic
_symmetry_space_group_name_H-M   'P -1'
_symmetry_Int_Tables_number      2
_space_group_name_Hall           '-P 1'
loop_
_symmetry_equiv_pos_site_id
_symmetry_equiv_pos_as_xyz
1 x,y,z
2 -x,-y,-z
_cell_length_a                   9.7263(6)
_cell_length_b                   10.6415(7)
_cell_length_c                   20.0284(13)
_cell_angle_alpha                83.0220(10)
_cell_angle_beta                 84.0010(10)
_cell_angle_gamma                64.2170(10)
_cell_volume                     1849.69
loop_
_atom_site_label
_atom_site_type_symbol
_atom_site_fract_x
_atom_site_fract_y
_atom_site_fract_z
Eu1 Eu -0.213240(13) 0.591240(12) -0.256020(6)
Co1 Co 0.23268(4) 0.04486(3) -0.273940(17)
O1 O -0.2366(3) 0.4824(2) -0.14717(10)
H1 H -0.2237 0.5105 -0.1107
H2 H -0.2272 0.3884 -0.1413
O2 O -0.3577(2) 0.46303(19) -0.26853(9)
H3 H -0.3157 0.3773 -0.2635
H4 H -0.4209 0.4857 -0.3020
O3 O -0.2131(2) 0.5788(2) -0.37609(9)
H5 H -0.2638 0.5301 -0.3847
H6 H -0.2757 0.6591 -0.4027
O4 O -0.1798(2) 0.7912(2) -0.31670(10)
H7 H -0.2447 0.8128 -0.3520
H8 H -0.1207 0.8237 -0.3077
N1 N 0.0273(3) 0.5902(2) -0.21545(11)
N2 N -0.2541(3) 0.7593(2) -0.16492(12)
N3 N -0.4837(3) 0.7673(2) -0.27211(12)
N4 N 0.3018(3) 0.0779(3) -0.42581(14)
N5 N 0.0057(3) -0.0759(3) -0.29012(13)
N6 N 0.1742(4) 0.0077(3) -0.12166(15)
N7 N 0.4614(3) 0.1595(3) -0.25569(17)
N8 N -0.0189(3) 0.3437(2) -0.27157(12)
C1 C 0.1659(3) 0.5049(3) -0.24040(15)
H9 H 0.1715 0.4439 -0.2712
C2 C 0.3006(4) 0.5024(4) -0.22312(18)
H10 H 0.3942 0.4404 -0.2414
C3 C 0.2941(4) 0.5924(4) -0.1788(2)
H11 H 0.3833 0.5936 -0.1668
C4 C 0.1518(4) 0.6829(4) -0.15147(18)
H12 H 0.1450 0.7449 -0.1210
C5 C 0.0206(3) 0.6787(3) -0.17058(14)
C6 C -0.1340(4) 0.7707(3) -0.14286(14)
C7 C -0.1543(5) 0.8624(4) -0.09486(18)
H13 H -0.0704 0.8698 -0.0805
C8 C -0.2988(5) 0.9419(4) -0.06882(19)
H14 H -0.3133 1.0030 -0.0365
C9 C -0.4212(5) 0.9310(4) -0.09056(17)
H15 H -0.5200 0.9843 -0.0737
C10 C -0.3941(4) 0.8383(3) -0.13842(15)
H16 H -0.4773 0.8302 -0.1531
C11 C -0.5954(3) 0.8672(3) -0.27302(13)
C12 C 0.2711(3) 0.0679(3) -0.36907(15)
C13 C 0.0924(3) -0.0325(3) -0.28471(13)
C14 C 0.1983(3) 0.0207(3) -0.17896(15)
C15 C 0.3733(3) 0.1192(3) -0.26228(15)
C16 C 0.0722(3) 0.2299(3) -0.27346(14)
Co1_2 Co -0.76732(4) 1.04486(3) -0.273940(17)
C11_2 C 0.4046(3) -0.1328(3) -0.27302(13)
N9 N -0.2559(3) 0.3521(3) -0.41237(12)
N10 N -0.5432(3) 0.5471(3) -0.38324(14)
C17 C -0.1136(4) 0.2523(3) -0.41994(15)
H17 H -0.0326 0.2747 -0.4158
C18 C -0.0804(4) 0.1175(3) -0.43365(16)
H18 H 0.0203 0.0509 -0.4387
C19 C -0.1991(4) 0.0846(3) -0.43963(18)
H19 H -0.1803 -0.0052 -0.4488
C20 C -0.3478(4) 0.1861(3) -0.43195(17)
H20 H -0.4300 0.1651 -0.4354
C21 C -0.3723(3) 0.3196(3) -0.41900(14)
C22 C -0.5302(3) 0.4355(3) -0.41244(14)
C23 C -0.6556(4) 0.4283(4) -0.43576(19)
H21 H -0.6441 0.3488 -0.4551
C24 C -0.7981(4) 0.5401(4) -0.43012(19)
H22 H -0.8840 0.5360 -0.4442
C25 C -0.8099(4) 0.6574(4) -0.40324(17)
H23 H -0.9030 0.7362 -0.4009
C26 C -0.6815(4) 0.6559(4) -0.37996(18)
H24 H -0.6908 0.7348 -0.3608
O5 O -0.2717(2) 0.1810(2) -0.24149(12)
H25 H -0.3671 0.1729 -0.2467
H26 H -0.2045 0.1138 -0.2597
O6 O -0.3596(3) 0.8488(2) -0.43596(11)
H27 H -0.4623 0.8945 -0.4261
H28 H -0.3323 0.8770 -0.4808
O7 O -0.1771(13) 0.2047(8) -0.1205(2)
O10 O -0.7202(14) 0.7756(11) -0.0214(5)
N11 N -0.1928(4) 0.5355(3) -1.01811(14)
C27 C -0.3370(6) 0.6055(5) -0.9942(2)
H29 H -0.4150 0.5995 -1.0149
C28 C -0.3754(6) 0.6864(4) -0.9404(2)
H30 H -0.4769 0.7312 -0.9244
C29 C -0.2627(6) 0.7001(4) -0.91078(19)
H31 H -0.2861 0.7569 -0.8756
C30 C -0.1136(6) 0.6276(4) -0.93448(17)
H32 H -0.0349 0.6353 -0.9153
C31 C -0.0802(5) 0.5424(3) -0.98731(15)
N11A N 0.1928(4) 0.4645(3) -0.98189(14)
C27A C 0.3370(6) 0.3945(5) -1.0058(2)
H29A H 0.4150 0.4005 -0.9851
C28A C 0.3754(6) 0.3136(4) -1.0596(2)
H30A H 0.4769 0.2688 -1.0756
C29A C 0.2627(6) 0.2999(4) -1.08922(19)
H31A H 0.2861 0.2431 -1.1244
C30A C 0.1136(6) 0.3724(4) -1.06552(17)
H32A H 0.0349 0.3647 -1.0847
C31A C 0.0802(5) 0.4576(3) -1.01269(15)
O8? O -0.276(2) 0.2591(14) -0.1120(5)
O9? O -0.0717(10) 0.0951(9) -0.0141(4)
loop_
_geom_bond_atom_site_label_1
_geom_bond_atom_site_label_2
_geom_bond_site_symmetry_1
_geom_bond_site_symmetry_2
Eu1 O1 1_555 1_555
Co1 C12 1_555 1_555
O1 H1 1_555 1_555
H2 O1 1_555 1_555
O2 Eu1 1_555 1_555
H3 O2 1_555 1_555
H4 O2 1_555 1_555
O3 Eu1 1_555 1_555
H5 O3 1_555 1_555
H6 O3 1_555 1_555
O4 Eu1 1_555 1_555
H7 O4 1_555 1_555
H8 O4 1_555 1_555
N1 Eu1 1_555 1_555
N2 Eu1 1_555 1_555
N3 Eu1 1_555 1_555
N4 C12 1_555 1_555
N5 C13 1_555 1_555
N6 C14 1_555 1_555
N7 C15 1_555 1_555
N8 Eu1 1_555 1_555
N9 C17 1_555 1_555
N10 C22 1_555 1_555
C1 N1 1_555 1_555
H9 C1 1_555 1_555
C2 C1 1_555 1_555
H10 C2 1_555 1_555
C3 C2 1_555 1_555
H11 C3 1_555 1_555
C4 C3 1_555 1_555
H12 C4 1_555 1_555
C5 N1 1_555 1_555
C6 N2 1_555 1_555
C7 C6 1_555 1_555
H13 C7 1_555 1_555
C8 C7 1_555 1_555
H14 C8 1_555 1_555
C9 C8 1_555 1_555
H15 C9 1_555 1_555
C10 N2 1_555 1_555
H16 C10 1_555 1_555
C11 N3 1_555 1_555
C13 Co1 1_555 1_555
C14 Co1 1_555 1_555
C15 Co1 1_555 1_555
C16 Co1 1_555 1_555
C17 H17 1_555 1_555
C18 C17 1_555 1_555
H18 C18 1_555 1_555
C19 C18 1_555 1_555
H19 C19 1_555 1_555
C20 C19 1_555 1_555
H20 C20 1_555 1_555
C21 N9 1_555 1_555
C22 C21 1_555 1_555
C23 C22 1_555 1_555
H21 C23 1_555 1_555
C24 C23 1_555 1_555
H22 C24 1_555 1_555
C25 C24 1_555 1_555
H23 C25 1_555 1_555
C26 N10 1_555 1_555
H24 C26 1_555 1_555
O5 H25 1_555 1_555
H26 O5 1_555 1_555
O6 H27 1_555 1_555
H28 O6 1_555 1_555
N11 C27 1_555 1_555
C27 H29 1_555 1_555
C28 C27 1_555 1_555
H30 C28 1_555 1_555
C29 C28 1_555 1_555
H31 C29 1_555 1_555
C30 C29 1_555 1_555
H32 C30 1_555 1_555
C31 N11 1_555 1_555
Co1_2 C11 1_555 1_555
C11_2 Co1 1_555 1_555
N11A C27A 1_555 1_555
C27A H29A 1_555 1_555
C28A C27A 1_555 1_555
H30A C28A 1_555 1_555
C29A C28A 1_555 1_555
H31A C29A 1_555 1_555
C30A C29A 1_555 1_555
H32A C30A 1_555 1_555
C31A C31 1_555 1_555
N8 C16 1_555 1_555
C4 C5 1_555 1_555
C5 C6 1_555 1_555
C9 C10 1_555 1_555
C20 C21 1_555 1_555
C25 C26 1_555 1_555
C30 C31 1_555 1_555
N11A C31A 1_555 1_555
C30A C31A 1_555 1_555

#END
