
#######################################################################
#
#                 Cambridge Crystallographic Data Centre
#                                CCDC 
#
#######################################################################
#
# If this CIF has been generated from an entry in the Cambridge 
# Structural Database, then it will include bibliographic, chemical, 
# crystal, experimental, refinement or atomic coordinate data resulting 
# from the CCDC's data processing and validation procedures.
#
#######################################################################

data_NAXLOO
_symmetry_cell_setting           triclinic
_symmetry_space_group_name_H-M   'P -1'
_symmetry_Int_Tables_number      2
_space_group_name_Hall           '-P 1'
loop_
_symmetry_equiv_pos_site_id
_symmetry_equiv_pos_as_xyz
1 x,y,z
2 -x,-y,-z
_cell_length_a                   9.0382(9)
_cell_length_b                   13.6616(10)
_cell_length_c                   13.7094(9)
_cell_angle_alpha                99.997(6)
_cell_angle_beta                 101.158(7)
_cell_angle_gamma                108.140(8)
_cell_volume                     1527.79
loop_
_atom_site_label
_atom_site_type_symbol
_atom_site_fract_x
_atom_site_fract_y
_atom_site_fract_z
Zn1 Zn 0.35661(4) 0.82039(3) 0.21054(3)
Zn2 Zn 0.05005(4) 0.94298(3) -0.14273(3)
P1 P 0.15807(10) 0.90967(6) 0.07873(6)
P2 P 0.69851(10) 0.85513(6) 0.16884(6)
O1 O 0.0426(3) 0.80712(18) 0.09886(19)
H1 H -0.036(5) 0.806(3) 0.127(3)
O3 O 0.3298(3) 0.92294(17) 0.13429(17)
O5 O 0.1452(3) 0.88912(19) -0.03561(17)
O6 O 0.1181(3) 1.00625(17) 0.12011(17)
O7 O 0.7681(3) 0.97511(18) 0.18432(17)
O8 O 0.8250(3) 0.80471(18) 0.19005(17)
O9 O 0.6020(3) 0.80154(18) 0.05176(17)
H2 H 0.5730 0.8322 0.0325
O10 O 0.5808(3) 0.82806(18) 0.23557(17)
N1 N 0.3059(3) 0.8694(2) 0.3426(2)
N2 N 0.2717(3) 0.9856(2) 0.4638(2)
N3 N 0.2479(3) 0.6637(2) 0.1538(2)
N4 N 0.2370(3) 0.5064(2) 0.06746(19)
N5 N -0.0687(3) 0.8134(2) -0.2628(2)
N6 N -0.1086(3) 0.6785(2) -0.3941(2)
C1 C 0.2652(4) 0.9543(2) 0.3641(2)
H3 H 0.2346 0.9895 0.3140
C2 C 0.2270(4) 1.0743(3) 0.5107(3)
H4 H 0.302(5) 1.111(3) 0.579(3)
H5 H 0.241(5) 1.120(3) 0.461(3)
C3 C 0.3197(4) 0.9163(2) 0.5132(2)
C4 C 0.3392(4) 0.8419(2) 0.4361(2)
C5 C 0.3855(4) 0.7582(3) 0.4585(2)
H6 H 0.3955 0.7068 0.4064
C6 C 0.4162(4) 0.7532(3) 0.5603(3)
H7 H 0.4486 0.6976 0.5786
C7 C 0.4000(4) 0.8295(3) 0.6372(3)
H8 H 0.4221 0.8238 0.7062
C8 C 0.3532(4) 0.9122(3) 0.6159(3)
H9 H 0.3443 0.9637 0.6685
C9 C 0.3115(4) 0.6119(3) 0.0921(2)
H10 H 0.4008 0.6466 0.0681
C10 C 0.2748(4) 0.4271(3) -0.0011(2)
H11 H 0.1796 0.3872 -0.0603
H12 H 0.2983 0.3757 0.0365
C11 C 0.4191(4) 0.4793(3) -0.0401(2)
H13 H 0.4228 0.4269 -0.0985
H14 H 0.4029 0.5393 -0.0663
C12 C 0.1119(4) 0.4852(3) 0.1153(2)
C13 C 0.1194(4) 0.5844(3) 0.1690(2)
C14 C 0.0067(4) 0.5920(3) 0.2233(2)
H15 H 0.0114 0.6589 0.2605
C15 C -0.1117(4) 0.4991(3) 0.2212(2)
H16 H -0.1916 0.5020 0.2565
C16 C -0.1170(4) 0.3987(3) 0.1674(2)
H17 H -0.1995 0.3360 0.1686
C17 C -0.0059(4) 0.3898(3) 0.1135(2)
H18 H -0.0093 0.3228 0.0775
C18 C -0.0124(4) 0.7769(3) -0.3379(3)
H19 H 0.0856 0.8162 -0.3509
C19 C -0.0800(5) 0.6160(3) -0.4831(3)
H20 H -0.0054 0.6648 -0.5124
H21 H -0.1834 0.5786 -0.5366
C20 C -0.0084(4) 0.5348(3) -0.4534(2)
H22 H 0.0990 0.5724 -0.4040
H23 H -0.0787 0.4894 -0.4192
C21 C -0.2371(4) 0.6463(3) -0.3505(3)
C22 C -0.2104(4) 0.7320(3) -0.2690(2)
C23 C -0.3196(4) 0.7285(3) -0.2093(2)
H24 H -0.3038 0.7877 -0.1553
C24 C -0.4508(4) 0.6360(3) -0.2317(3)
H25 H -0.5274 0.6313 -0.1924
C25 C -0.4743(4) 0.5478(3) -0.3118(3)
H26 H -0.5653 0.4847 -0.3244
C26 C -0.3675(4) 0.5511(3) -0.3727(3)
H27 H -0.3826 0.4918 -0.4265
C27 C 0.0712(6) 1.0341(4) 0.5459(5)
H28 H 0.0867 0.9917 0.5960
H29 H 0.0483 1.0957 0.5802
Zn1A Zn -0.35661(4) 1.17961(3) 0.78946(3)
Zn1A_2 Zn 0.64339(4) 0.17961(3) -0.21054(3)
Zn1A_3 Zn -0.35661(4) 1.17961(3) -0.21054(3)
Zn1A_4 Zn 0.64339(4) 1.17961(3) -0.21054(3)
Zn2A Zn -0.05005(4) 1.05702(3) 0.14273(3)
Zn2A_2 Zn 0.94995(4) 1.05702(3) 0.14273(3)
Zn2A_3 Zn -0.05005(4) 0.05702(3) -0.85727(3)
P1A P -0.15807(10) 1.09033(6) -0.07873(6)
P2A P 0.30149(10) 1.14487(6) -0.16884(6)
O1A O -0.0426(3) 1.19288(18) -0.09886(19)
H1A H 0.036(5) 1.194(3) -0.127(3)
O3A O -0.3298(3) 1.07706(17) -0.13429(17)
O3A_2 O -0.3298(3) 1.07706(17) 0.86571(17)
O5A O -0.1452(3) 1.11088(19) 0.03561(17)
O6A O -0.1181(3) 0.99375(17) -0.12011(17)
O7A O 0.2319(3) 1.02489(18) -0.18432(17)
O7_2 O -0.2319(3) 0.97511(18) 0.18432(17)
O8A O 0.1750(3) 1.19529(18) -0.19005(17)
O9A O 0.3980(3) 1.19846(18) -0.05176(17)
H2A H 0.4270 1.1678 -0.0325
O10A O 0.4192(3) 1.17194(18) -0.23557(17)
O10A_2 O -0.5808(3) 1.17194(18) 0.76443(17)
N1A N -0.3059(3) 1.1306(2) 0.6574(2)
N2A N -0.2717(3) 1.0144(2) 0.5362(2)
N3A N 0.7521(3) 0.3363(2) -0.1538(2)
N3A_2 N -0.2479(3) 1.3363(2) 0.8462(2)
N4A N 0.7630(3) 0.4936(2) -0.06746(19)
N5A N 0.0687(3) 0.1866(2) -0.7372(2)
N5A_2 N 0.0687(3) 1.1866(2) 0.2628(2)
N6A N 0.1086(3) 0.3215(2) -0.6059(2)
C1A C -0.2652(4) 1.0457(2) 0.6359(2)
H3A H -0.2346 1.0105 0.6860
C2A C -0.2270(4) 0.9257(3) 0.4893(3)
H4A H -0.302(5) 0.889(3) 0.421(3)
H5A H -0.241(5) 0.880(3) 0.539(3)
C3A C -0.3197(4) 1.0837(2) 0.4868(2)
C4A C -0.3392(4) 1.1581(2) 0.5639(2)
C5A C -0.3855(4) 1.2418(3) 0.5415(2)
H6A H -0.3955 1.2932 0.5936
C6A C -0.4162(4) 1.2468(3) 0.4397(3)
H7A H -0.4486 1.3024 0.4214
C7A C -0.4000(4) 1.1705(3) 0.3628(3)
H8A H -0.4221 1.1762 0.2938
C8A C -0.3532(4) 1.0878(3) 0.3841(3)
H9A H -0.3443 1.0363 0.3315
C9A C 0.6885(4) 0.3881(3) -0.0921(2)
H10A H 0.5992 0.3534 -0.0681
C10A C 0.7252(4) 0.5729(3) 0.0011(2)
H11A H 0.8204 0.6128 0.0603
H12A H 0.7017 0.6243 -0.0365
C11A C 0.5809(4) 0.5207(3) 0.0401(2)
H13A H 0.5772 0.5731 0.0985
H14A H 0.5971 0.4607 0.0663
C12A C 0.8881(4) 0.5148(3) -0.1153(2)
C13A C 0.8806(4) 0.4156(3) -0.1690(2)
C14A C 0.9933(4) 0.4080(3) -0.2233(2)
H15A H 0.9886 0.3411 -0.2605
C15A C 1.1117(4) 0.5009(3) -0.2212(2)
H16A H 1.1916 0.4980 -0.2565
C16A C 1.1170(4) 0.6013(3) -0.1674(2)
H17A H 1.1995 0.6640 -0.1686
C17A C 1.0059(4) 0.6102(3) -0.1135(2)
H18A H 1.0093 0.6772 -0.0775
C18A C 0.0124(4) 0.2231(3) -0.6621(3)
H19A H -0.0856 0.1838 -0.6491
C19A C 0.0800(5) 0.3840(3) -0.5169(3)
H20A H 0.0054 0.3352 -0.4876
H21A H 0.1834 0.4214 -0.4634
C20A C 0.0084(4) 0.4652(3) -0.5466(2)
H22A H -0.0990 0.4276 -0.5960
H23A H 0.0787 0.5106 -0.5808
C21A C 0.2371(4) 0.3537(3) -0.6495(3)
C22A C 0.2104(4) 0.2680(3) -0.7310(2)
C23A C 0.3196(4) 0.2715(3) -0.7907(2)
H24A H 0.3038 0.2123 -0.8447
C24A C 0.4508(4) 0.3640(3) -0.7683(3)
H25A H 0.5274 0.3687 -0.8076
C25A C 0.4743(4) 0.4522(3) -0.6882(3)
H26A H 0.5653 0.5153 -0.6756
C26A C 0.3675(4) 0.4489(3) -0.6273(3)
H27A H 0.3826 0.5082 -0.5735
C27A C -0.0712(6) 0.9659(4) 0.4541(5)
H28A H -0.0867 1.0083 0.4040
H29A H -0.0483 0.9043 0.4198
O2 O 0.4514(3) 0.88640(19) -0.08293(17)
O4 O 0.7382(3) 0.6938(2) 0.3321(2)
C28? C 0.0386(13) 1.0450(8) 0.4781(11)
H30? H 0.0110 1.1075 0.5043
H31? H -0.0015 1.0238 0.4023
loop_
_geom_bond_atom_site_label_1
_geom_bond_atom_site_label_2
_geom_bond_site_symmetry_1
_geom_bond_site_symmetry_2
Zn1 O3 1_555 1_555
Zn2 O5 1_555 1_555
P1 O1 1_555 1_555
P2 O7 1_555 1_555
O1 H1 1_555 1_555
O3 P1 1_555 1_555
O5 P1 1_555 1_555
O6 P1 1_555 1_555
O7 Zn2A_2 1_555 1_555
O8 P2 1_555 1_555
O9 P2 1_555 1_555
H2 O9 1_555 1_555
O10 Zn1 1_555 1_555
N1 Zn1 1_555 1_555
N2 C1 1_555 1_555
N3 Zn1 1_555 1_555
N4 C9 1_555 1_555
N5 Zn2 1_555 1_555
N6 C18 1_555 1_555
C1 N1 1_555 1_555
H3 C1 1_555 1_555
C2 N2 1_555 1_555
H4 C2 1_555 1_555
H5 C2 1_555 1_555
C3 N2 1_555 1_555
C4 N1 1_555 1_555
C5 C4 1_555 1_555
H6 C5 1_555 1_555
C6 C5 1_555 1_555
H7 C6 1_555 1_555
C7 C6 1_555 1_555
H8 C7 1_555 1_555
C8 C3 1_555 1_555
H9 C8 1_555 1_555
C9 N3 1_555 1_555
H10 C9 1_555 1_555
C10 N4 1_555 1_555
H11 C10 1_555 1_555
H12 C10 1_555 1_555
C11 C10 1_555 1_555
H13 C11 1_555 1_555
H14 C11 1_555 1_555
C12 N4 1_555 1_555
C13 N3 1_555 1_555
C14 C13 1_555 1_555
H15 C14 1_555 1_555
C15 C14 1_555 1_555
H16 C15 1_555 1_555
C16 C15 1_555 1_555
H17 C16 1_555 1_555
C17 C12 1_555 1_555
H18 C17 1_555 1_555
C18 N5 1_555 1_555
H19 C18 1_555 1_555
C19 N6 1_555 1_555
H20 C19 1_555 1_555
H21 C19 1_555 1_555
C20 C19 1_555 1_555
H22 C20 1_555 1_555
H23 C20 1_555 1_555
C21 N6 1_555 1_555
C22 N5 1_555 1_555
C23 C22 1_555 1_555
H24 C23 1_555 1_555
C24 C23 1_555 1_555
H25 C24 1_555 1_555
C25 C24 1_555 1_555
H26 C25 1_555 1_555
C26 C21 1_555 1_555
H27 C26 1_555 1_555
C27 C2 1_555 1_555
H28 C27 1_555 1_555
H29 C27 1_555 1_555
Zn1A O3A_2 1_555 1_555
Zn1A_2 N3A 1_555 1_555
Zn1A_3 O3A 1_555 1_555
Zn1A_4 O10A 1_555 1_555
Zn2A O6 1_555 1_555
Zn2A_3 N5A 1_555 1_555
P1A O1A 1_555 1_555
P2A O7A 1_555 1_555
O1A H1A 1_555 1_555
O3A P1A 1_555 1_555
O5A Zn2A 1_555 1_555
O6A Zn2 1_555 1_555
O7A Zn2 1_555 1_555
O7_2 Zn2A 1_555 1_555
O8A P2A 1_555 1_555
O9A P2A 1_555 1_555
H2A O9A 1_555 1_555
O10A P2A 1_555 1_555
O10A_2 Zn1A 1_555 1_555
N1A Zn1A 1_555 1_555
N2A C1A 1_555 1_555
N3A C9A 1_555 1_555
N3A_2 Zn1A 1_555 1_555
N4A C9A 1_555 1_555
N5A C18A 1_555 1_555
N5A_2 Zn2A 1_555 1_555
N6A C18A 1_555 1_555
C1A N1A 1_555 1_555
H3A C1A 1_555 1_555
C2A N2A 1_555 1_555
H4A C2A 1_555 1_555
H5A C2A 1_555 1_555
C3A N2A 1_555 1_555
C4A N1A 1_555 1_555
C5A C4A 1_555 1_555
H6A C5A 1_555 1_555
C6A C5A 1_555 1_555
H7A C6A 1_555 1_555
C7A C6A 1_555 1_555
H8A C7A 1_555 1_555
C8A C3A 1_555 1_555
H9A C8A 1_555 1_555
C9A H10A 1_555 1_555
C10A N4A 1_555 1_555
H11A C10A 1_555 1_555
H12A C10A 1_555 1_555
C11A C11 1_555 1_555
H13A C11A 1_555 1_555
H14A C11A 1_555 1_555
C12A N4A 1_555 1_555
C13A N3A 1_555 1_555
C14A C13A 1_555 1_555
H15A C14A 1_555 1_555
C15A C14A 1_555 1_555
H16A C15A 1_555 1_555
C16A C15A 1_555 1_555
H17A C16A 1_555 1_555
C17A C12A 1_555 1_555
H18A C17A 1_555 1_555
C18A H19A 1_555 1_555
C19A N6A 1_555 1_555
H20A C19A 1_555 1_555
H21A C19A 1_555 1_555
C20A C20 1_555 1_555
H22A C20A 1_555 1_555
H23A C20A 1_555 1_555
C21A N6A 1_555 1_555
C22A N5A 1_555 1_555
C23A C22A 1_555 1_555
H24A C23A 1_555 1_555
C24A C23A 1_555 1_555
H25A C24A 1_555 1_555
C25A C24A 1_555 1_555
H26A C25A 1_555 1_555
C26A C21A 1_555 1_555
H27A C26A 1_555 1_555
C27A C27 1_555 1_555
H28A C27A 1_555 1_555
H29A C27A 1_555 1_555
P2 O10 1_555 1_555
C3 C4 1_555 1_555
C7 C8 1_555 1_555
C12 C13 1_555 1_555
C16 C17 1_555 1_555
C21 C22 1_555 1_555
C25 C26 1_555 1_555
P1A O5A 1_555 1_555
P1A O6A 1_555 1_555
C2A C27A 1_555 1_555
C3A C4A 1_555 1_555
C7A C8A 1_555 1_555
C10A C11A 1_555 1_555
C12A C13A 1_555 1_555
C16A C17A 1_555 1_555
C19A C20A 1_555 1_555
C21A C22A 1_555 1_555
C25A C26A 1_555 1_555

#END
