
#######################################################################
#
#                 Cambridge Crystallographic Data Centre
#                                CCDC 
#
#######################################################################
#
# If this CIF has been generated from an entry in the Cambridge 
# Structural Database, then it will include bibliographic, chemical, 
# crystal, experimental, refinement or atomic coordinate data resulting 
# from the CCDC's data processing and validation procedures.
#
#######################################################################

data_NAXLUU
_symmetry_cell_setting           monoclinic
_symmetry_space_group_name_H-M   'P 21/c'
_symmetry_Int_Tables_number      14
_space_group_name_Hall           '-P 2ybc'
loop_
_symmetry_equiv_pos_site_id
_symmetry_equiv_pos_as_xyz
1 x,y,z
2 -x,1/2+y,1/2-z
3 -x,-y,-z
4 x,1/2-y,1/2+z
_cell_length_a                   14.9410(10)
_cell_length_b                   14.6445(7)
_cell_length_c                   15.8209(11)
_cell_angle_alpha                90
_cell_angle_beta                 109.503(6)
_cell_angle_gamma                90
_cell_volume                     3263.05
loop_
_atom_site_label
_atom_site_type_symbol
_atom_site_fract_x
_atom_site_fract_y
_atom_site_fract_z
Zn1 Zn 0.22105(4) 0.92538(3) 0.22755(3)
Zn2 Zn 0.08421(4) 0.91865(3) -0.05072(3)
Zn3 Zn 0.41247(4) 1.06842(3) 0.54922(3)
P1 P 0.25431(9) 0.82005(8) 0.07896(8)
P2 P 0.14939(8) 1.08348(8) 0.07910(8)
P3 P 0.37716(8) 0.90001(8) 0.41863(8)
P4 P 0.25239(8) 1.16753(8) 0.40093(8)
O1 O 0.3000(2) 0.8944(2) 0.0325(2)
H1 H 0.2843 0.9351 0.0303
O2 O 0.2914(2) 0.7291(2) 0.0592(2)
O3 O 0.2870(2) 0.8382(2) 0.1796(2)
O4 O 0.1468(2) 0.8280(2) 0.0394(2)
O5 O 0.1939(3) 1.1798(2) 0.0772(2)
H2 H 0.1878 1.2001 0.0326
O6 O 0.1613(2) 1.0261(2) 0.0029(2)
O7 O 0.2079(2) 1.0468(2) 0.1713(2)
O8 O 0.0470(2) 1.0934(3) 0.0693(3)
O9 O 0.4033(2) 0.9420(2) 0.5111(2)
O10 O 0.3485(2) 0.7981(2) 0.4244(2)
H3 H 0.3311 0.7864 0.4611
O11 O 0.2918(2) 0.9503(2) 0.3536(2)
O12 O 0.4588(2) 0.8967(2) 0.3822(2)
O13 O 0.1951(2) 1.0779(2) 0.4036(2)
H4 H 0.2160 1.0439 0.3943
O14 O 0.3570(2) 1.1494(2) 0.4472(2)
O15 O 0.2110(2) 1.2459(2) 0.4352(2)
O16 O 0.2347(2) 1.1900(2) 0.2983(2)
H5 H 0.2350 1.1506 0.2740
N1 N 0.1012(3) 0.8838(3) 0.8339(3)
N2 N 0.0681(3) 0.8414(2) 0.6943(2)
N3 N 0.0999(3) 0.8838(2) 0.2446(2)
N4 N 0.0093(3) 0.8411(2) 0.3214(2)
N5 N 0.3566(3) 1.0804(3) 0.6476(3)
N6 N 0.3531(3) 1.1083(3) 0.7827(2)
N7 N 0.5601(3) 1.1777(3) 1.3033(3)
H6 H 0.6053 1.1950 1.3447
N8 N 0.4754(3) 1.1714(2) 1.1641(2)
C1 C 0.0318(3) 0.8676(3) 0.7576(3)
H7 H -0.0339 0.8736 0.7489
C2 C 0.1644(3) 0.8415(3) 0.7312(3)
H8 H 0.2085 0.8266 0.7018
C3 C 0.1855(3) 0.8673(3) 0.8184(3)
H9 H 0.2474 0.8729 0.8612
C4 C 0.0148(3) 0.8290(3) 0.5985(3)
H10 H -0.0501 0.8074 0.5914
H11 H 0.0463 0.7815 0.5738
C5 C 0.0086(3) 0.9166(3) 0.5460(3)
C6 C 0.0168(3) 1.0007(3) 0.5900(3)
H12 H 0.023(4) 1.000(3) 0.647(4)
C7 C -0.0084(3) 0.9168(3) 0.4539(3)
C8 C -0.0185(3) 0.8273(3) 0.4016(3)
H13 H 0.0223 0.7799 0.4403
H14 H -0.0851 0.8059 0.3833
C9 C 0.0976(3) 0.8619(3) 0.3248(3)
H15 H 0.1516 0.8610 0.3779
C10 C 0.0082(3) 0.8757(3) 0.1867(3)
H16 H -0.0119 0.8868 0.1240
C11 C -0.0489(3) 0.8493(3) 0.2334(3)
H17 H -0.1154 0.8387 0.2102
C12 C 0.4043(3) 1.1151(3) 0.7268(3)
H18 H 0.4659 1.1411 0.7424
C13 C 0.2718(3) 1.0498(3) 0.6526(3)
H19 H 0.2228 1.0216 0.6051
C14 C 0.2690(3) 1.0659(3) 0.7353(3)
H20 H 0.2187 1.0510 0.7569
C15 C 0.3840(4) 1.1359(3) 0.8771(3)
H21 H 0.3273 1.1490 0.8941
H22 H 0.4212 1.1930 0.8843
C16 C 0.4438(3) 1.0644(3) 0.9405(3)
C17 C 0.4752(3) 1.0816(3) 1.0324(3)
C18 C 0.4695(3) 0.9832(3) 0.9101(3)
H23 H 0.448(3) 0.972(3) 0.850(3)
C19 C 0.4495(3) 1.1713(3) 1.0671(3)
H24 H 0.4827 1.2220 1.0486
H25 H 0.3804 1.1817 1.0400
C20 C 0.5571(3) 1.1992(3) 1.2214(3)
H26 H 0.6058 1.2297 1.2063
C21 C 0.4773(3) 1.1357(3) 1.2992(3)
H27 H 0.4608 1.1140 1.3486
C22 C 0.4235(3) 1.1307(3) 1.2126(3)
H28 H 0.3620 1.1045 1.1889
Zn1B Zn -0.22105(4) 1.07462(3) 0.77245(3)
Zn1B_2 Zn -0.22105(4) 1.07462(3) -0.22755(3)
Zn1B_3 Zn 0.77895(4) 1.07462(3) 0.77245(3)
Zn2B Zn -0.08421(4) 1.08135(3) 0.05072(3)
Zn2_2 Zn 0.08421(4) 0.91865(3) 0.94928(3)
Zn2B_2 Zn -0.08421(4) 1.08135(3) 1.05072(3)
Zn3B Zn 0.58753(4) 0.93158(3) 0.45078(3)
Zn3B_2 Zn 0.58753(4) 0.93158(3) 1.45078(3)
P1B P -0.25431(9) 1.17995(8) 0.92104(8)
P2B P -0.14939(8) 0.91652(8) -0.07910(8)
P3B P 0.62284(8) 1.09999(8) 0.58137(8)
P4B P 0.74761(8) 0.83247(8) 0.59907(8)
O1B O -0.3000(2) 1.1056(2) 0.9675(2)
H1B H -0.2843 1.0649 0.9697
O2B O -0.2914(2) 1.2709(2) 0.9408(2)
O3B O -0.2870(2) 1.1618(2) 0.8204(2)
O4B O -0.1468(2) 1.1720(2) 0.9606(2)
O4B_2 O -0.1468(2) 1.1720(2) -0.0394(2)
O5B O -0.1939(3) 0.8202(2) -0.0772(2)
H2B H -0.1878 0.7999 -0.0326
O6B O -0.1613(2) 0.9739(2) -0.0029(2)
O7B O -0.2079(2) 0.9532(2) -0.1713(2)
O7B_2 O -0.2079(2) 0.9532(2) 0.8287(2)
O8B O -0.0470(2) 0.9066(3) -0.0693(3)
O9B O 0.5967(2) 1.0580(2) 0.4889(2)
O10B O 0.6515(2) 1.2019(2) 0.5756(2)
H3B H 0.6689 1.2136 0.5389
O11B O 0.7082(2) 1.0497(2) 0.6464(2)
O11B_2 O -0.2918(2) 1.0497(2) 0.6464(2)
O12B O 0.5412(2) 1.1033(2) 0.6178(2)
O13B O 0.8049(2) 0.9221(2) 0.5964(2)
H4B H 0.7840 0.9561 0.6057
O14B O 0.6430(2) 0.8506(2) 0.5528(2)
O15B O 0.7890(2) 0.7541(2) 0.5648(2)
O16B O 0.7653(2) 0.8100(2) 0.7017(2)
H5B H 0.7650 0.8494 0.7260
N1B N -0.1012(3) 1.1162(3) 0.1661(3)
N1_2 N 0.1012(3) 0.8838(3) -0.1661(3)
N2B N -0.0681(3) 1.1586(2) 0.3057(2)
N3B N -0.0999(3) 1.1162(2) 0.7554(2)
N4B N -0.0093(3) 1.1589(2) 0.6786(2)
N5B N 0.6434(3) 0.9196(3) 1.3524(3)
N5B_2 N 0.6434(3) 0.9196(3) 0.3524(3)
N6B N 0.6469(3) 0.8917(3) 1.2173(2)
N7B N 0.4399(3) 0.8223(3) 0.6967(3)
H6B H 0.3947 0.8050 0.6553
N8B N 0.5246(3) 0.8286(2) 0.8359(2)
C1B C -0.0318(3) 1.1324(3) 0.2424(3)
H7B H 0.0339 1.1264 0.2511
C2B C -0.1644(3) 1.1585(3) 0.2688(3)
H8B H -0.2085 1.1734 0.2982
C3B C -0.1855(3) 1.1327(3) 0.1816(3)
H9B H -0.2474 1.1271 0.1388
C4B C -0.0148(3) 1.1710(3) 0.4015(3)
H10B H 0.0501 1.1926 0.4086
H11B H -0.0463 1.2185 0.4262
C5B C -0.0086(3) 1.0834(3) 0.4540(3)
C6B C -0.0168(3) 0.9993(3) 0.4100(3)
H12B H -0.023(4) 1.000(3) 0.353(4)
C7B C 0.0084(3) 1.0832(3) 0.5461(3)
C8B C 0.0185(3) 1.1727(3) 0.5984(3)
H13B H -0.0223 1.2201 0.5597
H14B H 0.0851 1.1941 0.6167
C9B C -0.0976(3) 1.1381(3) 0.6752(3)
H15B H -0.1516 1.1390 0.6221
C10B C -0.0082(3) 1.1243(3) 0.8133(3)
H16B H 0.0119 1.1132 0.8760
C11B C 0.0489(3) 1.1507(3) 0.7666(3)
H17B H 0.1154 1.1613 0.7898
C12B C 0.5957(3) 0.8849(3) 1.2732(3)
H18B H 0.5341 0.8589 1.2576
C13B C 0.7282(3) 0.9502(3) 1.3474(3)
H19B H 0.7772 0.9784 1.3949
C14B C 0.7310(3) 0.9341(3) 1.2647(3)
H20B H 0.7813 0.9490 1.2431
C15B C 0.6160(4) 0.8641(3) 1.1229(3)
H21B H 0.6727 0.8510 1.1059
H22B H 0.5788 0.8070 1.1157
C16B C 0.5562(3) 0.9356(3) 1.0595(3)
C17B C 0.5248(3) 0.9184(3) 0.9676(3)
C18B C 0.5305(3) 1.0168(3) 1.0899(3)
H23B H 0.552(3) 1.028(3) 1.150(3)
C19B C 0.5505(3) 0.8287(3) 0.9329(3)
H24B H 0.5173 0.7780 0.9514
H25B H 0.6196 0.8183 0.9600
C20B C 0.4429(3) 0.8008(3) 0.7786(3)
H26B H 0.3942 0.7703 0.7937
C21B C 0.5227(3) 0.8643(3) 0.7008(3)
H27B H 0.5392 0.8860 0.6514
C22B C 0.5765(3) 0.8693(3) 0.7874(3)
H28B H 0.6380 0.8955 0.8111
loop_
_geom_bond_atom_site_label_1
_geom_bond_atom_site_label_2
_geom_bond_site_symmetry_1
_geom_bond_site_symmetry_2
Zn1 O3 1_555 1_555
Zn2 O4 1_555 1_555
Zn3 O9 1_555 1_555
P1 O1 1_555 1_555
P2 O5 1_555 1_555
P3 O9 1_555 1_555
P4 O13 1_555 1_555
O1 H1 1_555 1_555
O2 P1 1_555 1_555
O3 P1 1_555 1_555
O4 P1 1_555 1_555
O5 H2 1_555 1_555
O6 Zn2 1_555 1_555
O7 Zn1 1_555 1_555
O8 P2 1_555 1_555
O10 P3 1_555 1_555
H3 O10 1_555 1_555
O11 Zn1 1_555 1_555
O12 P3 1_555 1_555
O13 H4 1_555 1_555
O14 Zn3 1_555 1_555
O15 P4 1_555 1_555
O16 P4 1_555 1_555
H5 O16 1_555 1_555
N1 C1 1_555 1_555
N2 C1 1_555 1_555
N3 Zn1 1_555 1_555
N4 C8 1_555 1_555
N5 Zn3 1_555 1_555
N6 C12 1_555 1_555
N7 H6 1_555 1_555
N8 C19 1_555 1_555
C1 H7 1_555 1_555
C2 N2 1_555 1_555
H8 C2 1_555 1_555
C3 N1 1_555 1_555
H9 C3 1_555 1_555
C4 N2 1_555 1_555
H10 C4 1_555 1_555
H11 C4 1_555 1_555
C5 C4 1_555 1_555
C6 C5 1_555 1_555
H12 C6 1_555 1_555
C7 C5 1_555 1_555
C8 C7 1_555 1_555
H13 C8 1_555 1_555
H14 C8 1_555 1_555
C9 N3 1_555 1_555
H15 C9 1_555 1_555
C10 N3 1_555 1_555
H16 C10 1_555 1_555
C11 N4 1_555 1_555
H17 C11 1_555 1_555
C12 N5 1_555 1_555
H18 C12 1_555 1_555
C13 N5 1_555 1_555
H19 C13 1_555 1_555
C14 N6 1_555 1_555
H20 C14 1_555 1_555
C15 N6 1_555 1_555
H21 C15 1_555 1_555
H22 C15 1_555 1_555
C16 C15 1_555 1_555
C17 C16 1_555 1_555
C18 C16 1_555 1_555
H23 C18 1_555 1_555
C19 C17 1_555 1_555
H24 C19 1_555 1_555
H25 C19 1_555 1_555
C20 N7 1_555 1_555
H26 C20 1_555 1_555
C21 N7 1_555 1_555
H27 C21 1_555 1_555
C22 N8 1_555 1_555
H28 C22 1_555 1_555
Zn1B O3B 1_555 1_555
Zn1B_2 O7B 1_555 1_555
Zn1B_3 O11B 1_555 1_555
Zn2B O8 1_555 1_555
Zn2_2 N1 1_555 1_555
Zn2B_2 O4B 1_555 1_555
Zn3B O12 1_555 1_555
Zn3B_2 N5B 1_555 1_555
P1B O1B 1_555 1_555
P2B O5B 1_555 1_555
P3B O9B 1_555 1_555
P4B O13B 1_555 1_555
O1B H1B 1_555 1_555
O2B P1B 1_555 1_555
O3B P1B 1_555 1_555
O4B P1B 1_555 1_555
O4B_2 Zn2B 1_555 1_555
O5B H2B 1_555 1_555
O6B Zn2B 1_555 1_555
O7B P2B 1_555 1_555
O7B_2 Zn1B 1_555 1_555
O8B Zn2 1_555 1_555
O9B Zn3B 1_555 1_555
O10B P3B 1_555 1_555
H3B O10B 1_555 1_555
O11B P3B 1_555 1_555
O11B_2 Zn1B 1_555 1_555
O12B Zn3 1_555 1_555
O13B H4B 1_555 1_555
O14B Zn3B 1_555 1_555
O15B P4B 1_555 1_555
O16B P4B 1_555 1_555
H5B O16B 1_555 1_555
N1B Zn2B 1_555 1_555
N1_2 Zn2 1_555 1_555
N2B C1B 1_555 1_555
N3B Zn1B 1_555 1_555
N4B C8B 1_555 1_555
N5B C12B 1_555 1_555
N5B_2 Zn3B 1_555 1_555
N6B C12B 1_555 1_555
N7B H6B 1_555 1_555
N8B C19B 1_555 1_555
C1B N1B 1_555 1_555
H7B C1B 1_555 1_555
C2B N2B 1_555 1_555
H8B C2B 1_555 1_555
C3B N1B 1_555 1_555
H9B C3B 1_555 1_555
C4B N2B 1_555 1_555
H10B C4B 1_555 1_555
H11B C4B 1_555 1_555
C5B C4B 1_555 1_555
C6B C7 1_555 1_555
H12B C6B 1_555 1_555
C7B C6 1_555 1_555
C8B C7B 1_555 1_555
H13B C8B 1_555 1_555
H14B C8B 1_555 1_555
C9B N3B 1_555 1_555
H15B C9B 1_555 1_555
C10B N3B 1_555 1_555
H16B C10B 1_555 1_555
C11B N4B 1_555 1_555
H17B C11B 1_555 1_555
C12B H18B 1_555 1_555
C13B N5B 1_555 1_555
H19B C13B 1_555 1_555
C14B N6B 1_555 1_555
H20B C14B 1_555 1_555
C15B N6B 1_555 1_555
H21B C15B 1_555 1_555
H22B C15B 1_555 1_555
C16B C15B 1_555 1_555
C17B C18 1_555 1_555
C18B C17 1_555 1_555
H23B C18B 1_555 1_555
C19B C17B 1_555 1_555
H24B C19B 1_555 1_555
H25B C19B 1_555 1_555
C20B N7B 1_555 1_555
H26B C20B 1_555 1_555
C21B N7B 1_555 1_555
H27B C21B 1_555 1_555
C22B N8B 1_555 1_555
H28B C22B 1_555 1_555
P2 O6 1_555 1_555
P2 O7 1_555 1_555
P3 O11 1_555 1_555
P4 O14 1_555 1_555
N4 C9 1_555 1_555
N8 C20 1_555 1_555
C2 C3 1_555 1_555
C10 C11 1_555 1_555
C13 C14 1_555 1_555
C21 C22 1_555 1_555
P2B O6B 1_555 1_555
P2B O8B 1_555 1_555
P3B O12B 1_555 1_555
P4B O14B 1_555 1_555
N4B C9B 1_555 1_555
N8B C20B 1_555 1_555
C2B C3B 1_555 1_555
C5B C6B 1_555 1_555
C5B C7B 1_555 1_555
C10B C11B 1_555 1_555
C13B C14B 1_555 1_555
C16B C17B 1_555 1_555
C16B C18B 1_555 1_555
C21B C22B 1_555 1_555

#END
