
#######################################################################
#
#                 Cambridge Crystallographic Data Centre
#                                CCDC 
#
#######################################################################
#
# If this CIF has been generated from an entry in the Cambridge 
# Structural Database, then it will include bibliographic, chemical, 
# crystal, experimental, refinement or atomic coordinate data resulting 
# from the CCDC's data processing and validation procedures.
#
#######################################################################

data_NAXMEF
_symmetry_cell_setting           monoclinic
_symmetry_space_group_name_H-M   'P 21/c'
_symmetry_Int_Tables_number      14
_space_group_name_Hall           '-P 2ybc'
loop_
_symmetry_equiv_pos_site_id
_symmetry_equiv_pos_as_xyz
1 x,y,z
2 -x,1/2+y,1/2-z
3 -x,-y,-z
4 x,1/2-y,1/2+z
_cell_length_a                   19.715(3)
_cell_length_b                   8.4865(10)
_cell_length_c                   9.9938(10)
_cell_angle_alpha                90
_cell_angle_beta                 95.485(9)
_cell_angle_gamma                90
_cell_volume                     1664.42
loop_
_atom_site_label
_atom_site_type_symbol
_atom_site_fract_x
_atom_site_fract_y
_atom_site_fract_z
Zn1 Zn 0.50250(3) 0.54818(7) 0.81872(6)
P1 P 0.51531(7) 0.77154(16) 1.06281(13)
O1 O 0.47229(19) 0.7010(4) 0.9415(3)
O2 O 0.54701(19) 0.6484(4) 1.1586(3)
O3 O 0.47197(19) 0.8905(4) 1.1332(3)
O4 O 0.5782(2) 0.8616(5) 1.0124(4)
N1 N 0.6024(2) 0.4982(5) 0.8295(4)
C1 C 0.6567(3) 0.5486(6) 0.9154(6)
H1 H 0.6540 0.6168 0.9901
N2 N 0.6954(2) 0.3957(5) 0.7637(5)
C2 C 0.7831(3) 0.4869(7) 0.5080(6)
C3 C 0.6279(3) 0.4061(6) 0.7394(6)
H2 H 0.6017 0.3548 0.6675
C4 C 0.7391(3) 0.3042(7) 0.6809(6)
H3 H 0.7107 0.2599 0.6028
H4 H 0.7594 0.2151 0.7346
C5 C 0.8383(3) 0.5737(7) 0.4569(6)
C6 C 0.9144(3) 0.4940(8) 0.6524(6)
C7 C 0.7958(3) 0.4023(7) 0.6306(6)
C8 C 0.7190(3) 0.4942(8) 0.4321(6)
H5 H 0.6816 0.4398 0.4639
C9 C 0.7150(3) 0.4850(7) 0.8763(6)
H6 H 0.7599 0.4992 0.9178
C10 C 0.8600(3) 0.4058(7) 0.7036(6)
C11 C 0.7089(4) 0.5765(8) 0.3149(7)
H7 H 0.6648 0.5800 0.2674
C12 C 0.9017(3) 0.5735(7) 0.5303(6)
H8 H 0.9380 0.6297 0.4960
C13 C 0.9797(3) 0.4953(9) 0.7264(6)
H9 H 1.0159 0.5509 0.6913
C14 C 0.9920(4) 0.4185(9) 0.8469(8)
H10 H 1.0360 0.4202 0.8947
C15 C 0.8261(4) 0.6558(8) 0.3310(6)
H11 H 0.8626 0.7098 0.2953
C16 C 0.9371(4) 0.3358(8) 0.8990(7)
H12 H 0.9445 0.2853 0.9840
C17 C 0.8748(3) 0.3281(8) 0.8297(6)
H13 H 0.8398 0.2693 0.8660
C18 C 0.7641(4) 0.6575(8) 0.2632(7)
H14 H 0.7569 0.7128 0.1804
H15 H 0.567(3) 0.919(7) 0.976(6)
Zn1B Zn 0.49750(3) 0.45182(7) 1.18128(6)
Zn1C Zn 0.50250(3) 0.95182(7) 1.31872(6)
O2B O 0.45299(19) 0.3516(4) 0.8414(3)
O3C O 0.47197(19) 0.6095(4) 0.6332(3)
loop_
_geom_bond_atom_site_label_1
_geom_bond_atom_site_label_2
_geom_bond_site_symmetry_1
_geom_bond_site_symmetry_2
Zn1 O1 1_555 1_555
P1 O1 1_555 1_555
O2 P1 1_555 1_555
O3 P1 1_555 1_555
O4 P1 1_555 1_555
N1 Zn1 1_555 1_555
C1 N1 1_555 1_555
H1 C1 1_555 1_555
N2 C3 1_555 1_555
C2 C5 1_555 1_555
C3 N1 1_555 1_555
H2 C3 1_555 1_555
C4 N2 1_555 1_555
H3 C4 1_555 1_555
H4 C4 1_555 1_555
C5 C12 1_555 1_555
C6 C10 1_555 1_555
C7 C2 1_555 1_555
C8 C2 1_555 1_555
H5 C8 1_555 1_555
C9 C1 1_555 1_555
H6 C9 1_555 1_555
C10 C7 1_555 1_555
C11 C8 1_555 1_555
H7 C11 1_555 1_555
C12 C6 1_555 1_555
H8 C12 1_555 1_555
C13 C6 1_555 1_555
H9 C13 1_555 1_555
C14 C13 1_555 1_555
H10 C14 1_555 1_555
C15 C5 1_555 1_555
H11 C15 1_555 1_555
C16 C14 1_555 1_555
H12 C16 1_555 1_555
C17 C10 1_555 1_555
H13 C17 1_555 1_555
C18 C11 1_555 1_555
H14 C18 1_555 1_555
H15 O4 1_555 1_555
Zn1B O2 1_555 1_555
Zn1C O3 1_555 1_555
O2B Zn1 1_555 1_555
O3C Zn1 1_555 1_555
N2 C9 1_555 1_555
C4 C7 1_555 1_555
C15 C18 1_555 1_555
C16 C17 1_555 1_555

#END
