
#######################################################################
#
#                 Cambridge Crystallographic Data Centre
#                                CCDC 
#
#######################################################################
#
# If this CIF has been generated from an entry in the Cambridge 
# Structural Database, then it will include bibliographic, chemical, 
# crystal, experimental, refinement or atomic coordinate data resulting 
# from the CCDC's data processing and validation procedures.
#
#######################################################################

data_NAXMIJ
_symmetry_cell_setting           monoclinic
_symmetry_space_group_name_H-M   'P 21/n'
_symmetry_Int_Tables_number      14
_space_group_name_Hall           '-P 2yn'
loop_
_symmetry_equiv_pos_site_id
_symmetry_equiv_pos_as_xyz
1 x,y,z
2 1/2-x,1/2+y,1/2-z
3 -x,-y,-z
4 1/2+x,1/2-y,1/2+z
_cell_length_a                   5.2956(6)
_cell_length_b                   20.243(2)
_cell_length_c                   7.5816(9)
_cell_angle_alpha                90
_cell_angle_beta                 100.041(10)
_cell_angle_gamma                90
_cell_volume                     800.29
loop_
_atom_site_label
_atom_site_type_symbol
_atom_site_fract_x
_atom_site_fract_y
_atom_site_fract_z
Zn1 Zn 0.23266(9) 0.19059(3) 0.89216(6)
P1 P 0.6930(2) 0.22095(6) 0.71977(14)
O1 O 0.4110(5) 0.19865(15) 0.6895(4)
O2 O 0.7120(2) 0.29103(7) 0.81817(17)
H1 H 0.7557 0.2883 0.9140
O3 O 0.7820(2) 0.23163(7) 0.54103(17)
O4 O 0.8655(2) 0.17200(7) 0.83659(17)
N1 N 0.3732(2) 0.11280(7) 1.04083(17)
N2 N 0.5910(2) 0.04925(7) 1.24747(17)
C1 C 0.5889(2) 0.10561(7) 1.15350(17)
H2 H 0.7265 0.1363 1.1671
C2 C 0.2259(8) 0.0586(2) 1.0653(6)
H3 H 0.0565 0.0508 1.0036
C3 C 0.3586(8) 0.0182(2) 1.1902(5)
H4 H 0.3035 -0.0229 1.2304
C4 C 0.7979(8) 0.0238(2) 1.3774(5)
C5 C 0.9661(8) 0.0683(2) 1.4773(5)
H5 H 0.9415 0.1146 1.4624
C6 C 0.8296(8) -0.0435(2) 1.4009(5)
H6 H 0.7109 -0.0730 1.3334
Zn1C Zn -0.26734(9) 0.30941(3) 1.39216(6)
Zn1C_2 Zn 0.73266(9) 0.30941(3) 0.39216(6)
Zn1_2 Zn 1.23266(9) 0.19059(3) 0.89216(6)
Zn1B Zn 1.76734(9) -0.19059(3) 2.10784(6)
Zn1C_3 Zn 0.73266(9) 0.30941(3) 1.39216(6)
P1C P 0.1930(2) 0.27905(6) 1.21977(14)
O1C O -0.0890(5) 0.30135(15) 1.1895(4)
O2C O 0.2120(2) 0.20897(7) 1.31817(17)
H1C H 0.2557 0.2117 1.4140
O3C O 0.2820(2) 0.26837(7) 1.04103(17)
O3_2 O -0.2180(2) 0.23163(7) 1.54103(17)
O4C O 0.3655(2) 0.32800(7) 1.33659(17)
O4_2 O -0.1345(2) 0.17200(7) 0.83659(17)
O4C_2 O -0.6345(2) 0.32800(7) 1.33659(17)
N1B N 1.6268(2) -0.11280(7) 1.95917(17)
N1C N -0.1268(2) 0.38720(7) 1.54083(17)
N2B N 1.4090(2) -0.04925(7) 1.75253(17)
C1B C 1.4111(2) -0.10561(7) 1.84650(17)
H2B H 1.2735 -0.1363 1.8329
C2B C 1.7741(8) -0.0586(2) 1.9347(6)
H3B H 1.9435 -0.0508 1.9964
C3B C 1.6414(8) -0.0182(2) 1.8098(5)
H4B H 1.6965 0.0229 1.7696
C4B C 1.2021(8) -0.0238(2) 1.6226(5)
C5B C 1.0339(8) -0.0683(2) 1.5227(5)
H5B H 1.0585 -0.1146 1.5376
C6B C 1.1704(8) 0.0435(2) 1.5991(5)
H6B H 1.2891 0.0730 1.6666
loop_
_geom_bond_atom_site_label_1
_geom_bond_atom_site_label_2
_geom_bond_site_symmetry_1
_geom_bond_site_symmetry_2
Zn1 O1 1_555 1_555
P1 O1 1_555 1_555
O2 P1 1_555 1_555
H1 O2 1_555 1_555
O3 P1 1_555 1_555
O4 P1 1_555 1_555
N1 Zn1 1_555 1_555
N2 C1 1_555 1_555
C1 N1 1_555 1_555
H2 C1 1_555 1_555
C2 N1 1_555 1_555
H3 C2 1_555 1_555
C3 N2 1_555 1_555
H4 C3 1_555 1_555
C4 N2 1_555 1_555
C5 C4 1_555 1_555
H5 C5 1_555 1_555
C6 C4 1_555 1_555
H6 C6 1_555 1_555
Zn1C O1C 1_555 1_555
Zn1C_2 O3 1_555 1_555
Zn1_2 O4 1_555 1_555
Zn1B N1B 1_555 1_555
Zn1C_3 O4C 1_555 1_555
P1C O1C 1_555 1_555
O2C P1C 1_555 1_555
H1C O2C 1_555 1_555
O3C Zn1 1_555 1_555
O3_2 Zn1C 1_555 1_555
O4C P1C 1_555 1_555
O4_2 Zn1 1_555 1_555
O4C_2 Zn1C 1_555 1_555
N1B C1B 1_555 1_555
N1C Zn1C 1_555 1_555
N2B C1B 1_555 1_555
C1B H2B 1_555 1_555
C2B N1B 1_555 1_555
H3B C2B 1_555 1_555
C3B N2B 1_555 1_555
H4B C3B 1_555 1_555
C4B N2B 1_555 1_555
C5B C6 1_555 1_555
H5B C5B 1_555 1_555
C6B C5 1_555 1_555
H6B C6B 1_555 1_555
C2 C3 1_555 1_555
P1C O3C 1_555 1_555
C2B C3B 1_555 1_555
C4B C5B 1_555 1_555
C4B C6B 1_555 1_555

#END
