
#######################################################################
#
#                 Cambridge Crystallographic Data Centre
#                                CCDC 
#
#######################################################################
#
# If this CIF has been generated from an entry in the Cambridge 
# Structural Database, then it will include bibliographic, chemical, 
# crystal, experimental, refinement or atomic coordinate data resulting 
# from the CCDC's data processing and validation procedures.
#
#######################################################################

data_NAXQOU
_symmetry_cell_setting           monoclinic
_symmetry_space_group_name_H-M   'P 21/c'
_symmetry_Int_Tables_number      14
_space_group_name_Hall           '-P 2ybc'
loop_
_symmetry_equiv_pos_site_id
_symmetry_equiv_pos_as_xyz
1 x,y,z
2 -x,1/2+y,1/2-z
3 -x,-y,-z
4 x,1/2-y,1/2+z
_cell_length_a                   12.382(2)
_cell_length_b                   13.967(2)
_cell_length_c                   10.3036(18)
_cell_angle_alpha                90
_cell_angle_beta                 91.409(4)
_cell_angle_gamma                90
_cell_volume                     1781.36
loop_
_atom_site_label
_atom_site_type_symbol
_atom_site_fract_x
_atom_site_fract_y
_atom_site_fract_z
Mn1 Mn 0.32659(5) 0.56534(5) 0.50607(6)
O1 O 0.4261(2) 0.5115(2) 0.6615(3)
O2 O 0.5700(3) 0.4150(2) 0.6541(3)
O3 O 0.2920(3) 0.4177(2) 0.4374(3)
N1 N 0.6320(3) 0.2200(2) 0.9474(3)
N2 N 0.6628(3) 0.2947(3) 1.0266(4)
N3 N 0.6092(3) 0.3715(3) 0.9963(4)
N4 N 0.5405(3) 0.3472(3) 0.8966(3)
N5 N 0.4995(3) 0.2056(3) 0.7781(4)
H1 H 0.5122 0.1442 0.7673
H2 H 0.4500 0.2346 0.7296
N6 N 0.1845(3) 0.5682(3) 0.6396(3)
N7 N 0.1810(3) 0.6103(3) 0.3867(3)
C1 C 0.5554(3) 0.2549(3) 0.8681(4)
C2 C 0.4616(4) 0.4128(3) 0.8406(4)
H3 H 0.4544 0.4683 0.8995
H4 H 0.3906 0.3802 0.8352
C3 C 0.4892(3) 0.4492(3) 0.7065(4)
C4 C 0.1911(4) 0.5467(4) 0.7666(4)
H5 H 0.2590 0.5282 0.8033
C5 C 0.1027(4) 0.5507(4) 0.8462(5)
H6 H 0.1101 0.5355 0.9359
C6 C 0.0046(4) 0.5767(4) 0.7938(5)
H7 H -0.0571 0.5797 0.8466
C7 C -0.0040(4) 0.5987(3) 0.6635(5)
H8 H -0.0718 0.6166 0.6258
C8 C 0.0871(3) 0.5945(3) 0.5879(4)
C9 C 0.1845(4) 0.6317(3) 0.2604(5)
H9 H 0.2514 0.6250 0.2182
C10 C 0.0965(4) 0.6629(4) 0.1886(5)
H10 H 0.1024 0.6790 0.0995
C11 C -0.0007(4) 0.6700(3) 0.2500(5)
H11 H -0.0637 0.6890 0.2023
C12 C -0.0066(4) 0.6495(3) 0.3805(5)
H12 H -0.0729 0.6561 0.4242
C13 C 0.0862(4) 0.6189(3) 0.4472(4)
H13 H 0.294(4) 0.408(3) 0.359(2)
H14 H 0.321(4) 0.374(3) 0.477(4)
Mn1B Mn 0.67341(5) 0.43466(5) 0.49393(6)
Mn1A Mn 0.67341(5) 0.06534(5) 0.99393(6)
O2B O 0.4300(3) 0.5850(2) 0.3459(3)
N1A N 0.3680(3) 0.7200(2) 0.5526(3)
Cl1 Cl 0.27222(9) 0.17726(9) 0.59558(11)
O4 O 0.3551(3) 0.2419(3) 0.5536(3)
O5 O 0.3225(4) 0.0886(3) 0.6297(5)
O6 O 0.2228(3) 0.2149(4) 0.7073(4)
O7 O 0.1944(3) 0.1657(4) 0.4926(4)
loop_
_geom_bond_atom_site_label_1
_geom_bond_atom_site_label_2
_geom_bond_site_symmetry_1
_geom_bond_site_symmetry_2
Mn1 O1 1_555 1_555
Cl1 O4 1_555 1_555
O1 C3 1_555 1_555
O2 C3 1_555 1_555
O3 Mn1 1_555 1_555
O5 Cl1 1_555 1_555
O6 Cl1 1_555 1_555
O7 Cl1 1_555 1_555
N1 N2 1_555 1_555
N2 N3 1_555 1_555
N3 N4 1_555 1_555
N4 C1 1_555 1_555
N5 H1 1_555 1_555
H2 N5 1_555 1_555
N6 Mn1 1_555 1_555
N7 Mn1 1_555 1_555
C1 N1 1_555 1_555
C2 N4 1_555 1_555
H3 C2 1_555 1_555
H4 C2 1_555 1_555
C3 C2 1_555 1_555
C4 N6 1_555 1_555
H5 C4 1_555 1_555
C5 C4 1_555 1_555
H6 C5 1_555 1_555
C6 C5 1_555 1_555
H7 C6 1_555 1_555
C7 C6 1_555 1_555
H8 C7 1_555 1_555
C8 N6 1_555 1_555
C9 N7 1_555 1_555
H9 C9 1_555 1_555
C10 C9 1_555 1_555
H10 C10 1_555 1_555
C11 C10 1_555 1_555
H11 C11 1_555 1_555
C12 C11 1_555 1_555
H12 C12 1_555 1_555
C13 N7 1_555 1_555
H13 O3 1_555 1_555
H14 O3 1_555 1_555
Mn1B O2 1_555 1_555
Mn1A N1 1_555 1_555
O2B Mn1 1_555 1_555
N1A Mn1 1_555 1_555
N5 C1 1_555 1_555
C7 C8 1_555 1_555
C8 C13 1_555 1_555
C12 C13 1_555 1_555

#END
