
#######################################################################
#
#                 Cambridge Crystallographic Data Centre
#                                CCDC 
#
#######################################################################
#
# If this CIF has been generated from an entry in the Cambridge 
# Structural Database, then it will include bibliographic, chemical, 
# crystal, experimental, refinement or atomic coordinate data resulting 
# from the CCDC's data processing and validation procedures.
#
#######################################################################

data_NAXQUA
_symmetry_cell_setting           monoclinic
_symmetry_space_group_name_H-M   'C 2/c'
_symmetry_Int_Tables_number      15
_space_group_name_Hall           '-C 2yn'
loop_
_symmetry_equiv_pos_site_id
_symmetry_equiv_pos_as_xyz
1 x,y,z
2 -x,y,1/2-z
3 1/2+x,1/2+y,z
4 1/2-x,1/2+y,1/2-z
5 -x,-y,-z
6 x,-y,1/2+z
7 1/2-x,1/2-y,-z
8 1/2+x,1/2-y,1/2+z
_cell_length_a                   18.769(4)
_cell_length_b                   6.5215(13)
_cell_length_c                   12.771(3)
_cell_angle_alpha                90
_cell_angle_beta                 120.19(3)
_cell_angle_gamma                90
_cell_volume                     1351.17
loop_
_atom_site_label
_atom_site_type_symbol
_atom_site_fract_x
_atom_site_fract_y
_atom_site_fract_z
Mn1 Mn 0.0000 0.0000 0.0000
O1 O 0.20530(17) 0.3032(4) 0.1262(2)
O2 O 0.10306(17) 0.1510(5) 0.1363(2)
O3 O -0.02982(17) 0.2537(4) -0.1297(2)
H1 H -0.0510 0.2327 -0.1993
H2 H -0.0080 0.3666 -0.1037
N1 N 0.15514(17) 0.2758(4) 0.3628(2)
N2 N 0.1126(2) 0.4398(5) 0.3682(3)
N3 N 0.0649(2) 0.3718(5) 0.4062(3)
N4 N 0.07412(18) 0.1655(4) 0.4261(3)
N5 N 0.15496(19) -0.0849(5) 0.3952(3)
H3 H 0.1596 -0.1653 0.4514
H4 H 0.1911 -0.0989 0.3781
C1 C 0.1684(2) 0.2485(5) 0.1795(3)
C2 C 0.2103(2) 0.2980(6) 0.3136(3)
H5 H 0.2572 0.2076 0.3574
H6 H 0.2307 0.4377 0.3264
C3 C 0.1296(2) 0.1074(5) 0.3958(3)
Mn1A Mn 0.0000 0.0000 0.5000
Mn1A_2 Mn 0.0000 0.0000 -0.5000
O1D O -0.20530(17) -0.3032(4) -0.1262(2)
O2D O -0.10306(17) -0.1510(5) -0.1363(2)
O3D O 0.02982(17) -0.2537(4) 0.1297(2)
H1D H 0.0510 -0.2327 0.1993
H2D H 0.0080 -0.3666 0.1037
N1D N -0.15514(17) -0.2758(4) -0.3628(2)
N2D N -0.1126(2) -0.4398(5) -0.3682(3)
N3D N -0.0649(2) -0.3718(5) -0.4062(3)
N4D N -0.07412(18) -0.1655(4) -0.4261(3)
N4A N -0.07412(18) 0.1655(4) 0.0739(3)
N4E N 0.07412(18) -0.1655(4) -0.0739(3)
N5D N -0.15496(19) 0.0849(5) -0.3952(3)
H3D H -0.1596 0.1653 -0.4514
H4D H -0.1911 0.0989 -0.3781
C1D C -0.1684(2) -0.2485(5) -0.1795(3)
C2D C -0.2103(2) -0.2980(6) -0.3136(3)
H5D H -0.2572 -0.2076 -0.3574
H6D H -0.2307 -0.4377 -0.3264
C3D C -0.1296(2) -0.1074(5) -0.3958(3)
loop_
_geom_bond_atom_site_label_1
_geom_bond_atom_site_label_2
_geom_bond_site_symmetry_1
_geom_bond_site_symmetry_2
Mn1 O2 1_555 1_555
O1 C1 1_555 1_555
O2 C1 1_555 1_555
O3 Mn1 1_555 1_555
H1 O3 1_555 1_555
H2 O3 1_555 1_555
N1 N2 1_555 1_555
N2 N3 1_555 1_555
N3 N4 1_555 1_555
N4 C3 1_555 1_555
N5 H3 1_555 1_555
H4 N5 1_555 1_555
C1 C2 1_555 1_555
C2 N1 1_555 1_555
H5 C2 1_555 1_555
H6 C2 1_555 1_555
C3 N1 1_555 1_555
Mn1A N4 1_555 1_555
Mn1A_2 N4D 1_555 1_555
O1D C1D 1_555 1_555
O2D Mn1 1_555 1_555
O3D Mn1 1_555 1_555
H1D O3D 1_555 1_555
H2D O3D 1_555 1_555
N1D N2D 1_555 1_555
N2D N3D 1_555 1_555
N3D N4D 1_555 1_555
N4D C3D 1_555 1_555
N4A Mn1 1_555 1_555
N4E Mn1 1_555 1_555
N5D H3D 1_555 1_555
H4D N5D 1_555 1_555
C1D O2D 1_555 1_555
C2D N1D 1_555 1_555
H5D C2D 1_555 1_555
H6D C2D 1_555 1_555
C3D N1D 1_555 1_555
N5 C3 1_555 1_555
N5D C3D 1_555 1_555
C1D C2D 1_555 1_555

#END
