
#######################################################################
#
#                 Cambridge Crystallographic Data Centre
#                                CCDC 
#
#######################################################################
#
# If this CIF has been generated from an entry in the Cambridge 
# Structural Database, then it will include bibliographic, chemical, 
# crystal, experimental, refinement or atomic coordinate data resulting 
# from the CCDC's data processing and validation procedures.
#
#######################################################################

data_NAXSUB
_symmetry_cell_setting           monoclinic
_symmetry_space_group_name_H-M   'P 21/n'
_symmetry_Int_Tables_number      14
_space_group_name_Hall           '-P 2yn'
loop_
_symmetry_equiv_pos_site_id
_symmetry_equiv_pos_as_xyz
1 x,y,z
2 1/2-x,1/2+y,1/2-z
3 -x,-y,-z
4 1/2+x,1/2-y,1/2+z
_cell_length_a                   4.728(5)
_cell_length_b                   14.84(2)
_cell_length_c                   13.48(3)
_cell_angle_alpha                90
_cell_angle_beta                 90.46(6)
_cell_angle_gamma                90
_cell_volume                     945.774
loop_
_atom_site_label
_atom_site_type_symbol
_atom_site_fract_x
_atom_site_fract_y
_atom_site_fract_z
Co1 Co 0.24954(4) 0.44309(2) 0.50083(2)
O1 O 0.6272(3) 0.44585(8) 0.59006(10)
O2 O 1.0210(3) 0.36152(9) 0.59105(9)
O3 O -0.0153(3) 0.13387(9) 0.90866(10)
O4 O 0.3829(3) 0.05219(8) 0.90696(10)
C1 C 0.7745(4) 0.3790(1) 0.6202(1)
C2 C 0.6442(4) 0.3159(1) 0.6942(1)
C3 C 0.6846(4) 0.2252(1) 0.6825(1)
C4 C 0.5519(4) 0.1629(1) 0.7451(1)
C5 C 0.3768(4) 0.1915(1) 0.8200(1)
C6 C 0.3400(4) 0.2856(1) 0.8376(1)
C7 C 0.4769(4) 0.3491(1) 0.7747(1)
C8 C 0.1854(5) 0.3192(1) 0.9199(2)
C9 C 0.1778(6) 0.4090(2) 0.9404(2)
C10 C 0.3166(5) 0.4713(2) 0.8798(2)
C11 C 0.4592(5) 0.4423(1) 0.7979(2)
C12 C 0.2371(4) 0.1216(1) 0.8832(1)
H1 H 0.8043 0.2041 0.6312
H2 H 0.5831 0.1003 0.7357
H3 H 0.0860 0.2783 0.9612
H4 H 0.0770 0.4297 0.9967
H5 H 0.3117 0.5337 0.8955
H6 H 0.5476 0.4851 0.7558
Co1B Co 0.75046(4) 0.55691(2) 0.49917(2)
Co1_2 Co 1.24954(4) 0.44309(2) 0.50083(2)
Co1C Co -0.25046(4) 0.05691(2) 1.00083(2)
Co1C_2 Co 0.74954(4) 0.05691(2) 1.00083(2)
Co1A Co 0.25046(4) -0.05691(2) 0.99917(2)
O1B O 0.3728(3) 0.55415(8) 0.40994(10)
O2_2 O 0.0210(3) 0.36152(9) 0.59105(9)
O3C O 0.4847(3) 0.36613(9) 0.40866(10)
O4C O -0.1171(3) 0.44781(8) 0.40696(10)
O4A O 0.1171(3) 0.55219(8) 0.59304(10)
loop_
_geom_bond_atom_site_label_1
_geom_bond_atom_site_label_2
_geom_bond_site_symmetry_1
_geom_bond_site_symmetry_2
Co1 O1 1_555 1_555
O1 C1 1_555 1_555
O2 C1 1_555 1_555
O3 C12 1_555 1_555
O4 C12 1_555 1_555
C1 C2 1_555 1_555
C2 C3 1_555 1_555
C3 C4 1_555 1_555
C4 C5 1_555 1_555
C5 C6 1_555 1_555
C6 C7 1_555 1_555
C7 C2 1_555 1_555
C8 C6 1_555 1_555
C9 C8 1_555 1_555
C10 C9 1_555 1_555
C11 C7 1_555 1_555
C12 C5 1_555 1_555
H1 C3 1_555 1_555
H2 C4 1_555 1_555
H3 C8 1_555 1_555
H4 C9 1_555 1_555
H5 C10 1_555 1_555
H6 C11 1_555 1_555
Co1B O1 1_555 1_555
Co1_2 O2 1_555 1_555
Co1C O3 1_555 1_555
Co1C_2 O4 1_555 1_555
Co1A O4 1_555 1_555
O1B Co1 1_555 1_555
O2_2 Co1 1_555 1_555
O3C Co1 1_555 1_555
O4C Co1 1_555 1_555
O4A Co1 1_555 1_555
C10 C11 1_555 1_555
Co1B O1B 1_555 1_555

#END
