
#######################################################################
#
#                 Cambridge Crystallographic Data Centre
#                                CCDC 
#
#######################################################################
#
# If this CIF has been generated from an entry in the Cambridge 
# Structural Database, then it will include bibliographic, chemical, 
# crystal, experimental, refinement or atomic coordinate data resulting 
# from the CCDC's data processing and validation procedures.
#
#######################################################################

data_NAXVOY
_symmetry_cell_setting           orthorhombic
_symmetry_space_group_name_H-M   'P c a 21'
_symmetry_Int_Tables_number      29
_space_group_name_Hall           'P 2c -2ac'
loop_
_symmetry_equiv_pos_site_id
_symmetry_equiv_pos_as_xyz
1 x,y,z
2 -x,-y,1/2+z
3 1/2+x,-y,z
4 1/2-x,y,1/2+z
_cell_length_a                   13.7716(16)
_cell_length_b                   7.5466(6)
_cell_length_c                   24.741(2)
_cell_angle_alpha                90
_cell_angle_beta                 90
_cell_angle_gamma                90
_cell_volume                     2571.3
loop_
_atom_site_label
_atom_site_type_symbol
_atom_site_fract_x
_atom_site_fract_y
_atom_site_fract_z
Mg1 Mg 0.45855(8) 0.14831(17) 0.17138(5)
Mg2 Mg 0.34253(9) -0.18207(17) 0.12471(5)
Mg3 Mg 0.33363(14) -0.51507(18) 0.20493(8)
Mg4 Mg 0.41923(14) 0.5208(2) 0.38723(7)
Mg5 Mg 0.59042(9) -0.18597(17) -0.03654(5)
Mg6 Mg 0.20757(8) -0.14772(17) -0.07759(5)
O1 O 0.5031(2) -0.0522(5) 0.22136(12)
C1 C 0.4760(3) -0.2097(5) 0.22567(17)
H1 H 0.4996 -0.2747 0.2548
O2 O 0.41855(19) -0.2877(4) 0.19314(11)
O3 O 0.3167(2) 0.0456(5) 0.17303(13)
C2 C 0.2399(3) 0.1259(5) 0.18765(17)
H2 H 0.1817 0.0636 0.1855
O4 O 0.2362(2) 0.2809(4) 0.20461(13)
O5 O 0.4566(3) -0.0143(4) 0.10494(17)
C3 C 0.5142(4) -0.0147(6) 0.0647(2)
H3 H 0.5679 0.0597 0.0664
O6 O 0.5047(2) -0.1045(4) 0.02402(11)
O7 O 0.74081(18) 0.3534(4) 0.15905(11)
C4 C 0.6506(3) 0.3477(5) 0.16681(17)
H4 H 0.6212 0.4467 0.1821
O8 O 0.59799(19) 0.2196(4) 0.15557(12)
O9 O 0.4002(2) 0.3751(4) 0.13569(11)
C5 C 0.4136(3) 0.4524(8) 0.09047(19)
H5 H 0.4439 0.3875 0.0633
O10 O 0.3896(2) 0.6068(4) 0.07960(13)
O11 O 0.4405(2) 0.3187(4) 0.23656(11)
C6 C 0.4800(3) 0.3145(5) 0.28296(17)
H6 H 0.5149 0.2134 0.2922
O12 O 0.4754(2) 0.4345(4) 0.31661(12)
O13 O 0.2615(2) -0.1065(4) 0.06122(12)
C7 C 0.2496(4) 0.0236(7) 0.0325(3)
H7 H 0.2735 0.1311 0.0452
O14 O 0.2075(3) 0.0246(5) -0.01326(17)
O15 O 0.33430(19) 0.2914(4) 0.39606(11)
C8 C 0.2740(3) 0.2099(6) 0.36601(17)
H8 H 0.2472 0.2731 0.3374
O16 O 0.2478(2) 0.0543(4) 0.37143(12)
O17 O 0.3508(2) 0.6226(4) 0.45635(11)
C9 C 0.3315(3) 0.5417(8) 0.5003(2)
H9 H 0.2992 0.6055 0.5269
O18 O 0.3522(2) 0.3849(4) 0.51062(13)
O19 O 0.4332(2) 0.9573(5) 0.41789(13)
C10 C 0.5107(3) 0.8789(5) 0.40360(19)
H10 H 0.5677 0.9448 0.4044
O20 O 0.5170(2) 0.7228(4) 0.38875(13)
O21 O 0.51114(18) 0.3573(4) 0.43179(11)
C11 C 0.6031(3) 0.3520(5) 0.42852(18)
H11 H 0.6354 0.4573 0.4209
O22 O 0.65271(19) 0.2174(4) 0.43466(12)
O23 O 0.3125(2) -0.3136(4) 0.35535(11)
C12 C 0.2709(3) -0.3097(6) 0.31000(17)
H12 H 0.2319 -0.2121 0.3025
O24 O 0.2777(2) -0.4250(4) 0.27451(12)
Mg2B Mg 0.84253(9) 0.18207(17) 0.12471(5)
Mg2_2 Mg 0.34253(9) 0.81793(17) 0.12471(5)
Mg3_2 Mg 0.33363(14) 0.48493(18) 0.20493(8)
Mg3B Mg 0.83363(14) 0.51507(18) 0.20493(8)
Mg4_2 Mg 0.41923(14) -0.4792(2) 0.38723(7)
Mg5B Mg 0.09042(9) 0.18597(17) -0.03654(5)
Mg5A Mg 0.40958(9) 0.18597(17) 0.46346(5)
Mg5A_2 Mg 0.40958(9) 1.18597(17) 0.46346(5)
Mg6C Mg 0.29243(8) -0.14772(17) 0.42241(5)
Mg6C_2 Mg 0.29243(8) 0.85228(17) 0.42241(5)
Mg6A Mg 0.79243(8) 0.14772(17) 0.42241(5)
O4_2 O 0.2362(2) -0.7191(4) 0.20461(13)
O7B O 0.24081(18) -0.3534(4) 0.15905(11)
O9_2 O 0.4002(2) -0.6249(4) 0.13569(11)
O10_2 O 0.3896(2) -0.3932(4) 0.07960(13)
O11_2 O 0.4405(2) -0.6813(4) 0.23656(11)
O14B O 0.7075(3) -0.0246(5) -0.01326(17)
O15A O 0.66570(19) -0.2914(4) -0.10394(11)
O16C O 0.2522(2) 0.0543(4) -0.12857(12)
O17C O 0.1492(2) -0.3774(4) -0.04365(11)
O18A O 0.6478(2) -0.3849(4) 0.01062(13)
O19A O 0.5668(2) 0.0427(5) -0.08211(13)
O19C O 0.0668(2) -0.0427(5) -0.08211(13)
O21A O 0.48886(18) -0.3573(4) -0.06821(11)
O22A O 0.34729(19) -0.2174(4) -0.06534(12)
O23_2 O 0.3125(2) 0.6864(4) 0.35535(11)
O23C O 0.1875(2) -0.3136(4) -0.14465(11)
loop_
_geom_bond_atom_site_label_1
_geom_bond_atom_site_label_2
_geom_bond_site_symmetry_1
_geom_bond_site_symmetry_2
Mg1 O1 1_555 1_555
Mg2 O2 1_555 1_555
Mg3 O2 1_555 1_555
Mg4 O12 1_555 1_555
Mg5 O6 1_555 1_555
Mg6 O14 1_555 1_555
O1 C1 1_555 1_555
C1 H1 1_555 1_555
O2 C1 1_555 1_555
O3 Mg1 1_555 1_555
C2 O3 1_555 1_555
H2 C2 1_555 1_555
O4 C2 1_555 1_555
O5 Mg1 1_555 1_555
C3 O5 1_555 1_555
H3 C3 1_555 1_555
O6 C3 1_555 1_555
O7 C4 1_555 1_555
C4 H4 1_555 1_555
O8 Mg1 1_555 1_555
O9 Mg1 1_555 1_555
C5 O9 1_555 1_555
H5 C5 1_555 1_555
O10 C5 1_555 1_555
O11 Mg1 1_555 1_555
C6 O11 1_555 1_555
H6 C6 1_555 1_555
O12 C6 1_555 1_555
O13 Mg2 1_555 1_555
C7 O13 1_555 1_555
H7 C7 1_555 1_555
O14 C7 1_555 1_555
O15 Mg4 1_555 1_555
C8 O15 1_555 1_555
H8 C8 1_555 1_555
O16 C8 1_555 1_555
O17 Mg4 1_555 1_555
C9 O17 1_555 1_555
H9 C9 1_555 1_555
O18 C9 1_555 1_555
O19 C10 1_555 1_555
C10 H10 1_555 1_555
O20 Mg4 1_555 1_555
O21 Mg4 1_555 1_555
C11 O21 1_555 1_555
H11 C11 1_555 1_555
O22 C11 1_555 1_555
O23 C12 1_555 1_555
C12 H12 1_555 1_555
O24 Mg3 1_555 1_555
Mg2B O7 1_555 1_555
Mg2_2 O10 1_555 1_555
Mg3_2 O4 1_555 1_555
Mg3B O7 1_555 1_555
Mg4_2 O23 1_555 1_555
Mg5B O14 1_555 1_555
Mg5A O15 1_555 1_555
Mg5A_2 O19 1_555 1_555
Mg6C O16 1_555 1_555
Mg6C_2 O17 1_555 1_555
Mg6A O22 1_555 1_555
O4_2 Mg3 1_555 1_555
O7B Mg2 1_555 1_555
O9_2 Mg3 1_555 1_555
O10_2 Mg2 1_555 1_555
O11_2 Mg3 1_555 1_555
O14B Mg5 1_555 1_555
O15A Mg5 1_555 1_555
O16C Mg6 1_555 1_555
O17C Mg6 1_555 1_555
O18A Mg5 1_555 1_555
O19A Mg5 1_555 1_555
O19C Mg6 1_555 1_555
O21A Mg5 1_555 1_555
O22A Mg6 1_555 1_555
O23_2 Mg4 1_555 1_555
O23C Mg6 1_555 1_555
Mg2 O3 1_555 1_555
Mg2 O5 1_555 1_555
Mg3 O7B 1_555 1_555
C4 O8 1_555 1_555
O9 Mg3_2 1_555 1_555
O11 Mg3_2 1_555 1_555
O18 Mg5A 1_555 1_555
O19 Mg6C_2 1_555 1_555
C10 O20 1_555 1_555
O21 Mg5A 1_555 1_555
O23 Mg6C 1_555 1_555
C12 O24 1_555 1_555
Mg5B O19C 1_555 1_555
Mg6C_2 O23_2 1_555 1_555

#END
