
#######################################################################
#
#                 Cambridge Crystallographic Data Centre
#                                CCDC 
#
#######################################################################
#
# If this CIF has been generated from an entry in the Cambridge 
# Structural Database, then it will include bibliographic, chemical, 
# crystal, experimental, refinement or atomic coordinate data resulting 
# from the CCDC's data processing and validation procedures.
#
#######################################################################

data_NAXWAL
_symmetry_cell_setting           monoclinic
_symmetry_space_group_name_H-M   'P 21/c'
_symmetry_Int_Tables_number      14
_space_group_name_Hall           '-P 2ybc'
loop_
_symmetry_equiv_pos_site_id
_symmetry_equiv_pos_as_xyz
1 x,y,z
2 -x,1/2+y,1/2-z
3 -x,-y,-z
4 x,1/2-y,1/2+z
_cell_length_a                   11.976(2)
_cell_length_b                   6.3151(13)
_cell_length_c                   14.953(3)
_cell_angle_alpha                90
_cell_angle_beta                 90.96(3)
_cell_angle_gamma                90
_cell_volume                     1130.73
loop_
_atom_site_label
_atom_site_type_symbol
_atom_site_fract_x
_atom_site_fract_y
_atom_site_fract_z
Br1 Br 0.39574(9) 0.57169(18) 0.25539(8)
Br2 Br 0.28119(11) 1.0675(2) 0.09631(8)
C1 C 0.1608(10) 1.077(2) 0.3783(7)
C2 C 0.1174(11) 0.889(2) 0.3413(8)
H1 H 0.1659 0.7817 0.3206
C3 C -0.0003(13) 0.864(3) 0.3352(10)
H2 H -0.0315 0.7376 0.3107
C4 C -0.0701(14) 1.026(3) 0.3659(10)
H3 H -0.1489 1.0088 0.3634
C5 C -0.0242(13) 1.213(3) 0.4000(10)
H4 H -0.072 1.3242 0.4182
C6 C 0.0908(12) 1.237(2) 0.4075(8)
H5 H 0.1215 1.363 0.4324
C7 C 0.3484(10) 0.906(2) 0.4681(8)
H6 H 0.3122 0.9294 0.5264
H7 H 0.3219 0.7689 0.4439
C8 C 0.4739(10) 0.8985(18) 0.4819(7)
H8 H 0.5086 0.8645 0.424
H9 H 0.4921 0.7817 0.5239
Hg1 Hg 0.38332(4) 1.01880(7) 0.24167(3)
S1 S 0.3076(2) 1.1203(4) 0.39035(17)
Br1A Br 0.60426(9) 1.07169(18) 0.24461(8)
Br1_2 Br 0.39574(9) 1.57169(18) 0.25539(8)
Br2A Br 0.71881(11) 1.5675(2) 0.40369(8)
C1B C 0.8392(10) 0.923(2) 0.6217(7)
C2B C 0.8826(11) 1.111(2) 0.6587(8)
H1B H 0.8341 1.2183 0.6794
C3B C 1.0003(13) 1.136(3) 0.6648(10)
H2B H 1.0315 1.2624 0.6893
C4B C 1.0701(14) 0.974(3) 0.6341(10)
H3B H 1.1489 0.9912 0.6366
C5B C 1.0242(13) 0.787(3) 0.6000(10)
H4B H 1.072 0.6758 0.5818
C6B C 0.9092(12) 0.763(2) 0.5925(8)
H5B H 0.8785 0.637 0.5676
C7B C 0.6516(10) 1.094(2) 0.5319(8)
H6B H 0.6878 1.0706 0.4736
H7B H 0.6781 1.2311 0.5561
C8B C 0.5261(10) 1.1015(18) 0.5181(7)
H8B H 0.4914 1.1355 0.576
H9B H 0.5079 1.2183 0.4761
Hg1A Hg 0.61668(4) 1.51880(7) 0.25833(3)
Hg1A_2 Hg 0.61668(4) 0.51880(7) 0.25833(3)
Hg1B Hg 0.61668(4) 0.98120(7) 0.75833(3)
S1B S 0.6924(2) 0.8797(4) 0.60965(17)
S1A S 0.6924(2) 1.6203(4) 0.10965(17)
loop_
_geom_bond_atom_site_label_1
_geom_bond_atom_site_label_2
_geom_bond_site_symmetry_1
_geom_bond_site_symmetry_2
Br1 Hg1 1_555 1_555
Br2 Hg1 1_555 1_555
C1 C2 1_555 1_555
C2 H1 1_555 1_555
C3 C2 1_555 1_555
H2 C3 1_555 1_555
C4 C3 1_555 1_555
H3 C4 1_555 1_555
C5 C4 1_555 1_555
H4 C5 1_555 1_555
C6 C1 1_555 1_555
H5 C6 1_555 1_555
C7 H6 1_555 1_555
H7 C7 1_555 1_555
C8 C7 1_555 1_555
H8 C8 1_555 1_555
H9 C8 1_555 1_555
Hg1 S1 1_555 1_555
S1 C1 1_555 1_555
Br1A Hg1 1_555 1_555
Br1_2 Hg1A 1_555 1_555
Br2A Hg1A 1_555 1_555
C1B C2B 1_555 1_555
C2B H1B 1_555 1_555
C3B C2B 1_555 1_555
H2B C3B 1_555 1_555
C4B C3B 1_555 1_555
H3B C4B 1_555 1_555
C5B C4B 1_555 1_555
H4B C5B 1_555 1_555
C6B C1B 1_555 1_555
H5B C6B 1_555 1_555
C7B H6B 1_555 1_555
H7B C7B 1_555 1_555
C8B C8 1_555 1_555
H8B C8B 1_555 1_555
H9B C8B 1_555 1_555
Hg1A Br1A 1_555 1_555
Hg1A_2 Br1 1_555 1_555
Hg1B S1B 1_555 1_555
S1B C1B 1_555 1_555
S1A Hg1A 1_555 1_555
C5 C6 1_555 1_555
C7 S1 1_555 1_555
C5B C6B 1_555 1_555
C7B C8B 1_555 1_555
C7B S1B 1_555 1_555

#END
