
#######################################################################
#
#                 Cambridge Crystallographic Data Centre
#                                CCDC 
#
#######################################################################
#
# If this CIF has been generated from an entry in the Cambridge 
# Structural Database, then it will include bibliographic, chemical, 
# crystal, experimental, refinement or atomic coordinate data resulting 
# from the CCDC's data processing and validation procedures.
#
#######################################################################

data_NAYBUK
_symmetry_cell_setting           orthorhombic
_symmetry_space_group_name_H-M   'P 21 21 21'
_symmetry_Int_Tables_number      19
_space_group_name_Hall           'P 2ac 2ab'
loop_
_symmetry_equiv_pos_site_id
_symmetry_equiv_pos_as_xyz
1 x,y,z
2 1/2-x,-y,1/2+z
3 1/2+x,1/2-y,-z
4 -x,1/2+y,1/2-z
_cell_length_a                   10.5771(9)
_cell_length_b                   13.9404(10)
_cell_length_c                   18.088(3)
_cell_angle_alpha                90
_cell_angle_beta                 90
_cell_angle_gamma                90
_cell_volume                     2667.06
loop_
_atom_site_label
_atom_site_type_symbol
_atom_site_fract_x
_atom_site_fract_y
_atom_site_fract_z
Ag1 Ag -0.3748(1) 0.2621(1) 0.6154(1)
N1 N -0.3790(6) 0.4328(4) 0.6232(4)
C1 C -0.2503(8) 0.4664(4) 0.6206(4)
C2 C -0.1608(7) 0.4082(4) 0.6682(4)
N2 N -0.1538(4) 0.3061(3) 0.6457(2)
C3 C -0.0801(6) 0.2908(5) 0.5775(3)
C4 C -0.1259(6) 0.2042(5) 0.5352(3)
N3 N -0.2583(5) 0.2155(4) 0.5124(3)
C5 C -0.1113(5) 0.2451(4) 0.7078(3)
C6 C 0.0124(6) 0.2732(5) 0.7453(3)
N4 N 0.0483(5) 0.2038(4) 0.8024(3)
Ag2 Ag 0.2007(1) 0.2580(1) 0.8789(1)
N5 N 0.1828(5) 0.4325(4) 0.8736(5)
C7 C 0.3055(6) 0.4749(5) 0.8789(5)
C8 C 0.4079(6) 0.4222(5) 0.8389(5)
N6 N 0.4235(4) 0.3214(3) 0.8584(3)
C9 C 0.4818(7) 0.3087(6) 0.9306(4)
C10 C 0.4449(7) 0.2196(6) 0.9689(4)
N7 N 0.3093(6) 0.2145(4) 0.9828(3)
C11 C 0.4955(6) 0.2717(5) 0.8010(3)
C12 C 0.4166(6) 0.2289(5) 0.7420(3)
N8 N -0.5095(6) 0.1785(5) 0.6865(4)
H1 H -0.4234(6) 0.4574(4) 0.5852(4)
H2 H -0.4159(6) 0.4513(4) 0.6657(4)
H3 H -0.2480(8) 0.5327(4) 0.6367(4)
H4 H -0.2210(8) 0.4644(4) 0.5698(4)
H5 H -0.0770(7) 0.4362(4) 0.6653(4)
H6 H -0.1884(7) 0.4118(4) 0.7192(4)
H7 H 0.0083(6) 0.2823(5) 0.5901(3)
H8 H -0.0869(6) 0.3472(5) 0.5463(3)
H9 H -0.0734(6) 0.1950(5) 0.4918(3)
H10 H -0.1179(6) 0.1476(5) 0.5660(3)
H11 H -0.2882(5) 0.1596(4) 0.4945(3)
H12 H -0.2643(5) 0.2602(4) 0.4767(3)
H13 H -0.1029(5) 0.1799(4) 0.6898(3)
H14 H -0.1774(5) 0.2449(4) 0.7450(3)
H15 H 0.0789(6) 0.2768(5) 0.7084(3)
H16 H 0.0033(6) 0.3362(5) 0.7674(3)
H17 H 0.0755(5) 0.1497(4) 0.7805(3)
H18 H -0.0205(5) 0.1890(4) 0.8294(3)
H19 H 0.1461(5) 0.4500(4) 0.8308(5)
H20 H 0.1339(5) 0.4534(4) 0.9110(5)
H21 H 0.3284(6) 0.4793(5) 0.9307(5)
H22 H 0.3012(6) 0.5397(5) 0.8596(5)
H23 H 0.3909(6) 0.4262(5) 0.7863(5)
H24 H 0.4873(6) 0.4549(5) 0.8480(5)
H25 H 0.4594(7) 0.3629(6) 0.9616(4)
H26 H 0.5729(7) 0.3091(6) 0.9246(4)
H27 H 0.4701(7) 0.1650(6) 0.9391(4)
H28 H 0.4897(7) 0.2157(6) 1.0157(4)
H29 H 0.2888(6) 0.2540(4) 1.0203(3)
H30 H 0.2879(6) 0.1544(4) 0.9959(3)
H31 H 0.5451(6) 0.2213(5) 0.8239(3)
H32 H 0.5540(6) 0.3168(5) 0.7786(3)
H33 H 0.3571(6) 0.1845(5) 0.7642(3)
H34 H 0.3683(6) 0.2793(5) 0.7181(3)
H35 H -0.5640(6) 0.1483(5) 0.6562(4)
H36 H -0.4646(6) 0.1328(5) 0.7099(4)
N8_2 N 0.4905(6) 0.1785(5) 0.6865(4)
Ag1_2 Ag 0.6252(1) 0.2621(1) 0.6154(1)
H35_2 H 0.4360(6) 0.1483(5) 0.6562(4)
H36_2 H 0.5354(6) 0.1328(5) 0.7099(4)
P1 P 0.1877(2) 0.0223(1) 0.6215(1)
F1 F 0.0991(5) 0.0152(5) 0.5517(3)
F2 F 0.1931(8) 0.1336(4) 0.6123(4)
F3 F 0.0702(5) 0.0318(5) 0.6743(3)
F4 F 0.1836(8) -0.0889(4) 0.6305(3)
F5 F 0.3051(6) 0.0141(7) 0.5694(3)
F6 F 0.2770(5) 0.0287(4) 0.6926(2)
P2 P 0.7529(2) 0.0248(1) 0.8730(1)
F7 F 0.6356(6) 0.0481(4) 0.8217(3)
F8 F 0.7773(7) 0.1345(3) 0.8851(4)
F9 F 0.6635(6) 0.0237(6) 0.9422(3)
F10 F 0.7291(8) -0.0851(3) 0.8603(4)
F11 F 0.8418(6) 0.0237(5) 0.8033(3)
F12 F 0.8669(6) -0.0001(5) 0.9249(3)
loop_
_geom_bond_atom_site_label_1
_geom_bond_atom_site_label_2
_geom_bond_site_symmetry_1
_geom_bond_site_symmetry_2
Ag1 N1 1_555 1_555
N1 C1 1_555 1_555
C1 C2 1_555 1_555
C2 N2 1_555 1_555
N2 Ag1 1_555 1_555
C3 N2 1_555 1_555
C4 C3 1_555 1_555
N3 Ag1 1_555 1_555
C5 N2 1_555 1_555
C6 C5 1_555 1_555
N4 C6 1_555 1_555
Ag2 N4 1_555 1_555
N5 Ag2 1_555 1_555
C7 N5 1_555 1_555
C8 C7 1_555 1_555
N6 Ag2 1_555 1_555
C9 N6 1_555 1_555
C10 C9 1_555 1_555
N7 Ag2 1_555 1_555
C11 N6 1_555 1_555
C12 C11 1_555 1_555
N8 Ag1 1_555 1_555
P1 F1 1_555 1_555
F2 P1 1_555 1_555
F3 P1 1_555 1_555
F4 P1 1_555 1_555
F5 P1 1_555 1_555
F6 P1 1_555 1_555
P2 F7 1_555 1_555
F8 P2 1_555 1_555
F9 P2 1_555 1_555
F10 P2 1_555 1_555
F11 P2 1_555 1_555
F12 P2 1_555 1_555
H1 N1 1_555 1_555
H2 N1 1_555 1_555
H3 C1 1_555 1_555
H4 C1 1_555 1_555
H5 C2 1_555 1_555
H6 C2 1_555 1_555
H7 C3 1_555 1_555
H8 C3 1_555 1_555
H9 C4 1_555 1_555
H10 C4 1_555 1_555
H11 N3 1_555 1_555
H12 N3 1_555 1_555
H13 C5 1_555 1_555
H14 C5 1_555 1_555
H15 C6 1_555 1_555
H16 C6 1_555 1_555
H17 N4 1_555 1_555
H18 N4 1_555 1_555
H19 N5 1_555 1_555
H20 N5 1_555 1_555
H21 C7 1_555 1_555
H22 C7 1_555 1_555
H23 C8 1_555 1_555
H24 C8 1_555 1_555
H25 C9 1_555 1_555
H26 C9 1_555 1_555
H27 C10 1_555 1_555
H28 C10 1_555 1_555
H29 N7 1_555 1_555
H30 N7 1_555 1_555
H31 C11 1_555 1_555
H32 C11 1_555 1_555
H33 C12 1_555 1_555
H34 C12 1_555 1_555
H35 N8 1_555 1_555
H36 N8 1_555 1_555
N8_2 C12 1_555 1_555
Ag1_2 N8_2 1_555 1_555
H35_2 N8_2 1_555 1_555
H36_2 N8_2 1_555 1_555
C4 N3 1_555 1_555
C8 N6 1_555 1_555
C10 N7 1_555 1_555

#END
