
#######################################################################
#
#                 Cambridge Crystallographic Data Centre
#                                CCDC 
#
#######################################################################
#
# If this CIF has been generated from an entry in the Cambridge 
# Structural Database, then it will include bibliographic, chemical, 
# crystal, experimental, refinement or atomic coordinate data resulting 
# from the CCDC's data processing and validation procedures.
#
#######################################################################

data_NAYBOE
_symmetry_cell_setting           monoclinic
_symmetry_space_group_name_H-M   'P 21/c'
_symmetry_Int_Tables_number      14
_space_group_name_Hall           '-P 2ybc'
loop_
_symmetry_equiv_pos_site_id
_symmetry_equiv_pos_as_xyz
1 x,y,z
2 -x,1/2+y,1/2-z
3 -x,-y,-z
4 x,1/2-y,1/2+z
_cell_length_a                   10.0482(8)
_cell_length_b                   14.776(3)
_cell_length_c                   14.9312(11)
_cell_angle_alpha                90
_cell_angle_beta                 93.586(12)
_cell_angle_gamma                90
_cell_volume                     2212.53
loop_
_atom_site_label
_atom_site_type_symbol
_atom_site_fract_x
_atom_site_fract_y
_atom_site_fract_z
Ag1 Ag -0.3513(1) 0.7571(1) 0.8735(1)
N1 N -0.3028(13) 0.6119(8) 0.9005(8)
C1 C -0.1582(15) 0.6001(8) 0.9110(10)
C2 C -0.0938(15) 0.6749(9) 0.9623(9)
N2 N -0.1107(11) 0.7607(7) 0.9152(8)
C3 C -0.0166(13) 0.7777(8) 0.8465(10)
C4 C -0.0707(13) 0.8509(9) 0.7828(10)
N3 N 0.0259(11) 0.8773(7) 0.7190(8)
Ag2 Ag 0.1369(1) 0.7726(1) 0.6539(1)
N4 N -0.8135(13) 0.6384(8) 0.5983(9)
C5 C -0.6692(15) 0.6313(8) 0.5909(9)
C6 C -0.6158(15) 0.7160(8) 0.5514(8)
N5 N -0.6315(10) 0.7938(7) 0.6121(7)
C7 C -0.5306(13) 0.7979(8) 0.6845(9)
C8 C -0.5738(13) 0.8586(8) 0.7588(9)
N6 N -0.4658(10) 0.8750(7) 0.8289(8)
H1 H -0.3400(13) 0.5939(8) 0.9509(8)
H2 H -0.3363(13) 0.5776(8) 0.8547(8)
H3 H -0.1224(15) 0.5970(8) 0.8523(10)
H4 H -0.1380(15) 0.5434(8) 0.9417(10)
H5 H -0.1319(15) 0.6794(9) 1.0203(9)
H6 H 0.0006(15) 0.6621(9) 0.9727(9)
H7 H -0.0976(11) 0.8050(7) 0.9572(8)
H8 H -0.0024(13) 0.7225(8) 0.8133(10)
H9 H 0.0685(13) 0.7967(8) 0.8747(10)
H10 H -0.1509(13) 0.8290(9) 0.7503(10)
H11 H -0.0945(13) 0.9035(9) 0.8173(10)
H12 H 0.0854(11) 0.9143(7) 0.7478(8)
H13 H -0.0176(11) 0.9102(7) 0.6757(8)
H14 H -0.8410(13) 0.5944(8) 0.6345(9)
H15 H -0.8558(13) 0.6314(8) 0.5439(9)
H16 H -0.6500(15) 0.5801(8) 0.5532(9)
H17 H -0.6257(15) 0.6212(8) 0.6498(9)
H18 H -0.5221(15) 0.7079(8) 0.5413(8)
H19 H -0.6629(15) 0.7280(8) 0.4939(8)
H20 H -0.6276(10) 0.8456(7) 0.5794(7)
H21 H -0.4484(13) 0.8208(8) 0.6623(9)
H22 H -0.5135(13) 0.7375(8) 0.7080(9)
H23 H -0.6033(13) 0.9161(8) 0.7334(9)
H24 H -0.6489(13) 0.8310(8) 0.7862(9)
H25 H -0.5020(10) 0.8996(7) 0.8769(8)
H26 H -0.4093(10) 0.9160(7) 0.8079(8)
Ag2_2 Ag -0.8631(1) 0.7726(1) 0.6539(1)
N3_2 N -0.9741(11) 0.8773(7) 0.7190(8)
H12_2 H -0.9146(11) 0.9143(7) 0.7478(8)
H13_2 H -1.0176(11) 0.9102(7) 0.6757(8)
P1 P -0.2248(3) 0.9325(2) 1.1080(2)
F1 F -0.2367(14) 1.0392(3) 1.1093(8)
F2 F -0.3391(9) 0.9280(8) 1.0306(6)
F3 F -0.3316(10) 0.9249(7) 1.1811(7)
F4 F -0.1090(10) 0.9369(9) 1.1849(7)
F5 F -0.1170(10) 0.9386(7) 1.0353(6)
F6 F -0.2128(14) 0.8258(3) 1.1068(8)
P2 P -0.2906(3) 1.0498(2) 0.6343(2)
F13 F -0.3459(17) 1.1451(6) 0.6568(10)
F14 F -0.3347(19) 1.0127(9) 0.7255(7)
F15 F -0.1522(10) 1.0750(11) 0.6807(11)
F16 F -0.2442(18) 1.0858(9) 0.5431(6)
F17 F -0.4286(10) 1.0236(12) 0.5881(12)
F18 F -0.2359(16) 0.9540(6) 0.6119(10)
F7? F -0.1986(31) 1.0382(5) 1.1073(19)
F8? F -0.3753(10) 0.9497(21) 1.0752(17)
F9? F -0.2634(27) 0.9391(19) 1.2088(7)
F10? F -0.0741(11) 0.9160(21) 1.1408(18)
F11? F -0.1864(27) 0.9272(19) 1.0070(7)
F12? F -0.2507(31) 0.8271(5) 1.1084(19)
F19? F -0.2756(17) 1.1529(5) 0.6545(11)
F20? F -0.2178(19) 1.0281(11) 0.7272(7)
F21? F -0.1547(12) 1.0502(11) 0.5895(13)
F22? F -0.3655(18) 1.0709(10) 0.5420(7)
F23? F -0.4266(11) 1.0491(11) 0.6794(12)
F24? F -0.3053(17) 0.9464(5) 0.6145(11)
loop_
_geom_bond_atom_site_label_1
_geom_bond_atom_site_label_2
_geom_bond_site_symmetry_1
_geom_bond_site_symmetry_2
Ag1 N1 1_555 1_555
N1 C1 1_555 1_555
C1 C2 1_555 1_555
C2 N2 1_555 1_555
N2 Ag1 1_555 1_555
C3 N2 1_555 1_555
C4 C3 1_555 1_555
N3 C4 1_555 1_555
Ag2 N3 1_555 1_555
N4 C5 1_555 1_555
C5 C6 1_555 1_555
C6 N5 1_555 1_555
N5 C7 1_555 1_555
C7 C8 1_555 1_555
C8 N6 1_555 1_555
N6 Ag1 1_555 1_555
P1 F1 1_555 1_555
F2 P1 1_555 1_555
F3 P1 1_555 1_555
F4 P1 1_555 1_555
F5 P1 1_555 1_555
F6 P1 1_555 1_555
P2 F13 1_555 1_555
F14 P2 1_555 1_555
F15 P2 1_555 1_555
F16 P2 1_555 1_555
F17 P2 1_555 1_555
F18 P2 1_555 1_555
H1 N1 1_555 1_555
H2 N1 1_555 1_555
H3 C1 1_555 1_555
H4 C1 1_555 1_555
H5 C2 1_555 1_555
H6 C2 1_555 1_555
H7 N2 1_555 1_555
H8 C3 1_555 1_555
H9 C3 1_555 1_555
H10 C4 1_555 1_555
H11 C4 1_555 1_555
H12 N3 1_555 1_555
H13 N3 1_555 1_555
H14 N4 1_555 1_555
H15 N4 1_555 1_555
H16 C5 1_555 1_555
H17 C5 1_555 1_555
H18 C6 1_555 1_555
H19 C6 1_555 1_555
H20 N5 1_555 1_555
H21 C7 1_555 1_555
H22 C7 1_555 1_555
H23 C8 1_555 1_555
H24 C8 1_555 1_555
H25 N6 1_555 1_555
H26 N6 1_555 1_555
Ag2_2 N4 1_555 1_555
N3_2 Ag2_2 1_555 1_555
H12_2 N3_2 1_555 1_555
H13_2 N3_2 1_555 1_555
N5 Ag2_2 1_555 1_555

#END
