
#######################################################################
#
#                 Cambridge Crystallographic Data Centre
#                                CCDC 
#
#######################################################################
#
# If this CIF has been generated from an entry in the Cambridge 
# Structural Database, then it will include bibliographic, chemical, 
# crystal, experimental, refinement or atomic coordinate data resulting 
# from the CCDC's data processing and validation procedures.
#
#######################################################################

data_NAYDAU
_symmetry_cell_setting           monoclinic
_symmetry_space_group_name_H-M   'P 21/c'
_symmetry_Int_Tables_number      14
_space_group_name_Hall           '-P 2ybc'
loop_
_symmetry_equiv_pos_site_id
_symmetry_equiv_pos_as_xyz
1 x,y,z
2 -x,1/2+y,1/2-z
3 -x,-y,-z
4 x,1/2-y,1/2+z
_cell_length_a                   16.3357(5)
_cell_length_b                   14.1196(5)
_cell_length_c                   18.3475(6)
_cell_angle_alpha                90
_cell_angle_beta                 104.841(2)
_cell_angle_gamma                90
_cell_volume                     4090.74
loop_
_atom_site_label
_atom_site_type_symbol
_atom_site_fract_x
_atom_site_fract_y
_atom_site_fract_z
C1 C 0.7648(2) 0.5606(3) 0.1851(2)
C2 C 0.6973(2) 0.4912(3) 0.1959(2)
H1 H 0.6420 0.5209 0.1801
H2 H 0.6971 0.4359 0.1646
C3 C 0.6413(2) 0.4545(2) 0.30152(18)
C4 C 0.5988(2) 0.5352(3) 0.31513(19)
C5 C 0.5312(2) 0.5231(3) 0.34712(19)
H3 H 0.5025 0.5764 0.3574
C6 C 0.5052(2) 0.4352(3) 0.3642(2)
C7 C 0.5502(2) 0.3566(3) 0.35079(19)
H4 H 0.5336 0.2967 0.3625
C8 C 0.6190(2) 0.3647(2) 0.32051(18)
C9 C 0.6249(2) 0.6334(3) 0.2974(2)
H5 H 0.6854 0.6363 0.3071
H6 H 0.6060 0.6788 0.3285
H7 H 0.5998 0.6475 0.2453
C10 C 0.4295(3) 0.4252(3) 0.3967(3)
H8 H 0.3958 0.4818 0.3866
H9 H 0.4485 0.4157 0.4502
H10 H 0.3960 0.3720 0.3740
C11 C 0.6675(2) 0.2788(2) 0.30343(18)
H11 H 0.7276 0.2961 0.3175
C12 C 0.6582(2) 0.1932(2) 0.3514(2)
C13 C 0.7063(2) 0.1880(3) 0.4250(2)
H12 H 0.7468 0.2343 0.4434
C14 C 0.6951(3) 0.1149(3) 0.4719(2)
H13 H 0.7276 0.1131 0.5215
C15 C 0.6370(3) 0.0458(3) 0.4461(3)
H14 H 0.6296 -0.0032 0.4777
C16 C 0.5896(3) 0.0493(3) 0.3732(3)
H15 H 0.5498 0.0022 0.3551
C17 C 0.6000(2) 0.1219(3) 0.3261(2)
H16 H 0.5674 0.1228 0.2765
C18 C 0.6443(2) 0.2573(2) 0.21893(19)
C19 C 0.5672(2) 0.2834(2) 0.1722(2)
H17 H 0.5290 0.3162 0.1928
C20 C 0.5445(2) 0.2626(3) 0.0960(2)
C21 C 0.5998(2) 0.2118(3) 0.0667(2)
H18 H 0.5843 0.1954 0.0159
C22 C 0.6783(2) 0.1841(3) 0.1106(2)
C23 C 0.7003(2) 0.2088(2) 0.1860(2)
C24 C 0.4612(2) 0.2974(3) 0.0463(2)
H19 H 0.4713 0.3504 0.0169
H20 H 0.4248 0.3166 0.0772
H21 H 0.4346 0.2474 0.0132
C25 C 0.7378(3) 0.1272(3) 0.0766(2)
H22 H 0.7875 0.1640 0.0776
H23 H 0.7099 0.1114 0.0253
H24 H 0.7538 0.0701 0.1051
C26 C 0.8424(2) 0.2567(3) 0.2302(2)
H25 H 0.8295 0.3120 0.2565
H26 H 0.8393 0.2749 0.1786
C27 C 0.9321(2) 0.2227(3) 0.2681(2)
C28 C 0.8475(3) 0.8824(3) 0.2227(2)
H27 H 0.8717 0.9006 0.1842
C29 C 0.8111(3) 0.9510(3) 0.2579(3)
H28 H 0.8101 1.0139 0.2427
C30 C 0.7764(3) 0.9251(4) 0.3159(3)
H29 H 0.7508 0.9696 0.3401
C31 C 0.7807(3) 0.8323(4) 0.3366(3)
H30 H 0.7587 0.8122 0.3760
C32 C 0.8179(3) 0.7689(3) 0.2984(2)
H31 H 0.8213 0.7059 0.3136
C33 C 0.7700(2) 0.8000(3) 0.0416(2)
H32 H 0.7309 0.7701 0.0628
C34 C 0.7423(3) 0.8714(3) -0.0096(2)
H33 H 0.6859 0.8904 -0.0221
C35 C 0.8001(3) 0.9141(3) -0.0418(2)
H34 H 0.7833 0.9628 -0.0765
C36 C 0.8823(3) 0.8844(3) -0.0224(2)
H35 H 0.9222 0.9114 -0.0443
C37 C 0.9044(2) 0.8145(3) 0.0295(2)
H36 H 0.9608 0.7954 0.0432
C38 C 0.8951(3) 0.5334(3) 0.0285(3)
H37 H 0.8698 0.5854 0.0006
C39 C 0.8989(3) 0.4485(4) -0.0092(3)
H38 H 0.8779 0.4444 -0.0613
C40 C 0.9346(3) 0.3705(4) 0.0325(4)
H39 H 0.9367 0.3121 0.0096
C41 C 0.9665(3) 0.3815(4) 0.1083(3)
H40 H 0.9917 0.3307 0.1378
C42 C 0.9613(2) 0.4682(3) 0.1407(3)
H41 H 0.9839 0.4743 0.1924
Cd1 Cd 0.897101(16) 0.675141(19) 0.168709(15)
N1 N 0.84942(19) 0.7922(2) 0.24124(18)
N2 N 0.85025(18) 0.7715(2) 0.06211(16)
N3 N 0.9257(2) 0.5437(2) 0.1023(2)
O1 O 0.83535(16) 0.56298(17) 0.23386(14)
O2 O 0.74703(16) 0.6096(2) 0.12721(16)
O3 O 0.71264(13) 0.46260(17) 0.27311(13)
O4 O 0.78113(14) 0.18389(17) 0.23057(13)
O5 O 0.95774(17) 0.1476(2) 0.25211(17)
O6 O 0.97775(17) 0.2807(2) 0.30937(18)
Cd1A Cd 1.102899(16) 0.175141(19) 0.331291(15)
O5A O 1.04226(17) 0.6476(2) 0.24789(17)
O6A O 1.02225(17) 0.7807(2) 0.19063(18)
O7 O 0.0591(2) 0.5640(3) 0.38736(19)
O8 O 0.07987(17) 0.94958(19) 0.14875(14)
O9 O 0.1171(2) 0.8494(2) 0.0283(2)
loop_
_geom_bond_atom_site_label_1
_geom_bond_atom_site_label_2
_geom_bond_site_symmetry_1
_geom_bond_site_symmetry_2
C1 C2 1_555 1_555
C2 H1 1_555 1_555
H2 C2 1_555 1_555
C3 C4 1_555 1_555
C4 C5 1_555 1_555
C5 H3 1_555 1_555
C6 C5 1_555 1_555
C7 C6 1_555 1_555
H4 C7 1_555 1_555
C8 C3 1_555 1_555
C9 C4 1_555 1_555
H5 C9 1_555 1_555
H6 C9 1_555 1_555
H7 C9 1_555 1_555
C10 C6 1_555 1_555
H8 C10 1_555 1_555
H9 C10 1_555 1_555
H10 C10 1_555 1_555
C11 C8 1_555 1_555
H11 C11 1_555 1_555
C12 C11 1_555 1_555
C13 C12 1_555 1_555
H12 C13 1_555 1_555
C14 C13 1_555 1_555
H13 C14 1_555 1_555
C15 C14 1_555 1_555
H14 C15 1_555 1_555
C16 C15 1_555 1_555
H15 C16 1_555 1_555
C17 C12 1_555 1_555
H16 C17 1_555 1_555
C18 C11 1_555 1_555
C19 C18 1_555 1_555
H17 C19 1_555 1_555
C20 C19 1_555 1_555
C21 C20 1_555 1_555
H18 C21 1_555 1_555
C22 C21 1_555 1_555
C23 C18 1_555 1_555
C24 C20 1_555 1_555
H19 C24 1_555 1_555
H20 C24 1_555 1_555
H21 C24 1_555 1_555
C25 C22 1_555 1_555
H22 C25 1_555 1_555
H23 C25 1_555 1_555
H24 C25 1_555 1_555
C26 H25 1_555 1_555
H26 C26 1_555 1_555
C27 C26 1_555 1_555
C28 H27 1_555 1_555
C29 C28 1_555 1_555
H28 C29 1_555 1_555
C30 C29 1_555 1_555
H29 C30 1_555 1_555
C31 C30 1_555 1_555
H30 C31 1_555 1_555
C32 C31 1_555 1_555
H31 C32 1_555 1_555
C33 H32 1_555 1_555
C34 C33 1_555 1_555
H33 C34 1_555 1_555
C35 C34 1_555 1_555
H34 C35 1_555 1_555
C36 C35 1_555 1_555
H35 C36 1_555 1_555
C37 C36 1_555 1_555
H36 C37 1_555 1_555
C38 H37 1_555 1_555
C39 C38 1_555 1_555
H38 C39 1_555 1_555
C40 C39 1_555 1_555
H39 C40 1_555 1_555
C41 C40 1_555 1_555
H40 C41 1_555 1_555
C42 C41 1_555 1_555
H41 C42 1_555 1_555
Cd1 N1 1_555 1_555
N1 C28 1_555 1_555
N2 C33 1_555 1_555
N3 C38 1_555 1_555
O1 C1 1_555 1_555
O2 C1 1_555 1_555
O3 C2 1_555 1_555
O4 C23 1_555 1_555
O5 C27 1_555 1_555
O6 C27 1_555 1_555
Cd1A O5 1_555 1_555
O5A Cd1 1_555 1_555
O6A Cd1 1_555 1_555
C3 O3 1_555 1_555
C7 C8 1_555 1_555
C16 C17 1_555 1_555
C22 C23 1_555 1_555
C26 O4 1_555 1_555
C32 N1 1_555 1_555
C37 N2 1_555 1_555
C42 N3 1_555 1_555
Cd1 N2 1_555 1_555
Cd1 N3 1_555 1_555
Cd1 O1 1_555 1_555
Cd1 O2 1_555 1_555
O6 Cd1A 1_555 1_555

#END
