
#######################################################################
#
#                 Cambridge Crystallographic Data Centre
#                                CCDC 
#
#######################################################################
#
# If this CIF has been generated from an entry in the Cambridge 
# Structural Database, then it will include bibliographic, chemical, 
# crystal, experimental, refinement or atomic coordinate data resulting 
# from the CCDC's data processing and validation procedures.
#
#######################################################################

data_NAYFIE
_symmetry_cell_setting           orthorhombic
_symmetry_space_group_name_H-M   'P b c a'
_symmetry_Int_Tables_number      61
_space_group_name_Hall           '-P 2ac 2ab'
loop_
_symmetry_equiv_pos_site_id
_symmetry_equiv_pos_as_xyz
1 x,y,z
2 1/2-x,-y,1/2+z
3 -x,1/2+y,1/2-z
4 1/2+x,1/2-y,-z
5 -x,-y,-z
6 1/2+x,y,1/2-z
7 x,1/2-y,1/2+z
8 1/2-x,1/2+y,z
_cell_length_a                   13.8855(4)
_cell_length_b                   12.4867(3)
_cell_length_c                   33.5892(11)
_cell_angle_alpha                90
_cell_angle_beta                 90
_cell_angle_gamma                90
_cell_volume                     5823.83
loop_
_atom_site_label
_atom_site_type_symbol
_atom_site_fract_x
_atom_site_fract_y
_atom_site_fract_z
K1 K 0.17566(7) 0.53868(6) 0.21126(2)
K2 K -0.00123(5) 0.77110(6) 0.23694(2)
C1 C -0.05612(17) 0.7358(2) 0.11340(7)
C2 C -0.0713(2) 0.8668(2) 0.06200(9)
H1 H -0.0911 0.9343 0.0536
C3 C 0.00183(18) 0.6991(2) 0.04774(8)
H2 H 0.0329 0.6538 0.0299
C4 C -0.08433(19) 0.8385(2) 0.10147(8)
C5 C -0.01149(17) 0.6654(2) 0.08701(7)
C6 C -0.02978(19) 0.7979(2) 0.03453(8)
C7 C -0.0192(2) 0.8304(3) -0.00856(10)
H3 H 0.0138 0.7750 -0.0229
H4 H 0.0171 0.8957 -0.0102
H5 H -0.0818 0.8413 -0.0200
C8 C -0.1263(3) 0.9162(3) 0.13112(11)
H6 H -0.1315 0.9857 0.1191
H7 H -0.0851 0.9204 0.1540
H8 H -0.1890 0.8921 0.1391
C9 C 0.02458(18) 0.5570(2) 0.10170(8)
H9 H 0.0310 0.5631 0.1307
C10 C 0.20476(18) 0.57910(19) 0.10358(7)
C11 C 0.29840(19) 0.5555(2) 0.09132(8)
C12 C 0.31004(19) 0.4832(2) 0.06035(9)
H10 H 0.3720 0.4672 0.0517
C13 C 0.12491(18) 0.53152(19) 0.08569(7)
C14 C 0.14037(19) 0.4597(2) 0.05456(8)
H11 H 0.0878 0.4282 0.0420
C15 C 0.2328(2) 0.4343(2) 0.04194(9)
C16 C 0.3853(2) 0.6010(3) 0.11244(10)
H12 H 0.4397 0.5550 0.1082
H13 H 0.3722 0.6060 0.1404
H14 H 0.3991 0.6710 0.1021
C17 C 0.2490(3) 0.3528(3) 0.00942(12)
H15 H 0.1888 0.3365 -0.0032
H16 H 0.2756 0.2886 0.0207
H17 H 0.2930 0.3814 -0.0099
C18 C -0.1047(2) 0.4634(3) 0.06041(9)
H18 H -0.1016 0.5198 0.0424
C19 C -0.04618(19) 0.4655(2) 0.09409(8)
C20 C -0.0567(2) 0.3783(2) 0.11990(10)
C21 C -0.1192(3) 0.2939(3) 0.11321(12)
H19 H -0.1238 0.2375 0.1312
C22 C -0.1742(3) 0.2954(3) 0.07938(12)
H20 H -0.2164 0.2392 0.0742
C23 C -0.1679(2) 0.3788(3) 0.05301(11)
H21 H -0.2058 0.3790 0.0302
C24 C 0.1938(2) 0.8089(2) 0.17275(8)
C25 C 0.1989(2) 0.7546(2) 0.13255(8)
H22 H 0.1476 0.7812 0.1156
H23 H 0.2599 0.7711 0.1199
C26 C -0.1460(3) 0.5831(3) 0.19841(10)
C27 C -0.1554(2) 0.6518(2) 0.16147(8)
H24 H -0.1732 0.6072 0.1390
H25 H -0.2060 0.7043 0.1654
O1 O -0.06679(13) 0.70584(15) 0.15283(5)
O2 O -0.0645(2) 0.5752(3) 0.21357(9)
O3 O 0.0815(3) 0.3948(3) 0.15733(10)
O4 O 0.18957(14) 0.64107(14) 0.13720(5)
O5 O 0.18391(17) 0.75237(16) 0.20318(6)
O6 O 0.19508(17) 0.3434(2) 0.26220(7)
O7 O -0.2217(2) 0.5408(2) 0.21000(9)
O8 O 0.0441(2) 0.9764(2) 0.21554(9)
O9 O 0.19783(19) 0.90861(16) 0.17208(7)
N1 N -0.0025(3) 0.3716(2) 0.15732(10)
O10 O -0.0462(4) 0.3461(4) 0.18691(11)
O11 O 0.0981(2) 0.6258(3) 0.28783(12)
H26 H 0.060(4) 1.003(4) 0.2388(9)
H27 H 0.094(3) 0.968(4) 0.2004(14)
K1E K -0.32434(7) 0.53868(6) 0.28874(2)
K1G K 0.32434(7) 1.03868(6) 0.21126(2)
K2B K 0.00123(5) 0.27110(6) 0.26306(2)
O6B O -0.19508(17) 0.8434(2) 0.23780(7)
O7E O 0.2783(2) 0.5408(2) 0.29000(9)
O9G O 0.30217(19) 0.40861(16) 0.17208(7)
O10B O 0.0462(4) 0.8461(4) 0.31309(11)
loop_
_geom_bond_atom_site_label_1
_geom_bond_atom_site_label_2
_geom_bond_site_symmetry_1
_geom_bond_site_symmetry_2
K1 O2 1_555 1_555
K2 O1 1_555 1_555
C1 C4 1_555 1_555
C2 H1 1_555 1_555
C3 H2 1_555 1_555
C4 C2 1_555 1_555
C5 C1 1_555 1_555
C6 C2 1_555 1_555
C7 C6 1_555 1_555
H3 C7 1_555 1_555
H4 C7 1_555 1_555
H5 C7 1_555 1_555
C8 C4 1_555 1_555
H6 C8 1_555 1_555
H7 C8 1_555 1_555
H8 C8 1_555 1_555
C9 C5 1_555 1_555
H9 C9 1_555 1_555
C10 C11 1_555 1_555
C11 C12 1_555 1_555
C12 H10 1_555 1_555
C13 C9 1_555 1_555
C14 C13 1_555 1_555
H11 C14 1_555 1_555
C15 C12 1_555 1_555
C16 C11 1_555 1_555
H12 C16 1_555 1_555
H13 C16 1_555 1_555
H14 C16 1_555 1_555
C17 C15 1_555 1_555
H15 C17 1_555 1_555
H16 C17 1_555 1_555
H17 C17 1_555 1_555
C18 H18 1_555 1_555
C19 C9 1_555 1_555
C20 C19 1_555 1_555
C21 C20 1_555 1_555
H19 C21 1_555 1_555
C22 C21 1_555 1_555
H20 C22 1_555 1_555
C23 C18 1_555 1_555
H21 C23 1_555 1_555
C24 C25 1_555 1_555
C25 H22 1_555 1_555
H23 C25 1_555 1_555
C26 C27 1_555 1_555
C27 H24 1_555 1_555
H25 C27 1_555 1_555
O1 C1 1_555 1_555
O2 K2 1_555 1_555
O3 K1 1_555 1_555
O4 K1 1_555 1_555
O5 K1 1_555 1_555
O6 K1 1_555 1_555
O7 C26 1_555 1_555
O8 K2 1_555 1_555
O9 C24 1_555 1_555
N1 C20 1_555 1_555
O10 N1 1_555 1_555
O11 K1 1_555 1_555
H26 O8 1_555 1_555
H27 O8 1_555 1_555
K1E O7 1_555 1_555
K1G O9 1_555 1_555
K2B O6 1_555 1_555
O6B K2 1_555 1_555
O7E K1 1_555 1_555
O9G K1 1_555 1_555
O10B K2 1_555 1_555
K2 O5 1_555 1_555
K2 O11 1_555 1_555
C3 C5 1_555 1_555
C3 C6 1_555 1_555
C10 C13 1_555 1_555
C10 O4 1_555 1_555
C14 C15 1_555 1_555
C18 C19 1_555 1_555
C22 C23 1_555 1_555
C24 O5 1_555 1_555
C25 O4 1_555 1_555
C26 O2 1_555 1_555
C27 O1 1_555 1_555
O3 N1 1_555 1_555
O10 K2B 1_555 1_555

#END
