
#######################################################################
#
#                 Cambridge Crystallographic Data Centre
#                                CCDC 
#
#######################################################################
#
# If this CIF has been generated from an entry in the Cambridge 
# Structural Database, then it will include bibliographic, chemical, 
# crystal, experimental, refinement or atomic coordinate data resulting 
# from the CCDC's data processing and validation procedures.
#
#######################################################################

data_NAYFUQ
_symmetry_cell_setting           monoclinic
_symmetry_space_group_name_H-M   'P 21/n'
_symmetry_Int_Tables_number      14
_space_group_name_Hall           '-P 2yn'
loop_
_symmetry_equiv_pos_site_id
_symmetry_equiv_pos_as_xyz
1 x,y,z
2 1/2-x,1/2+y,1/2-z
3 -x,-y,-z
4 1/2+x,1/2-y,1/2+z
_cell_length_a                   12.0700(7)
_cell_length_b                   15.6708(10)
_cell_length_c                   26.0946(16)
_cell_angle_alpha                90
_cell_angle_beta                 101.023(3)
_cell_angle_gamma                90
_cell_volume                     4844.64
loop_
_atom_site_label
_atom_site_type_symbol
_atom_site_fract_x
_atom_site_fract_y
_atom_site_fract_z
N1 N 0.1450(5) 0.1158(4) 0.2164(2)
C1 C 0.0558(6) 0.1649(5) 0.2265(3)
H1 H 0.0639 0.2237 0.2304
C2 C -0.0457(6) 0.1262(5) 0.2308(3)
H2 H -0.1054 0.1591 0.2376
C3 C -0.0578(6) 0.0383(5) 0.2250(3)
C4 C 0.0315(5) -0.0108(5) 0.2149(3)
H3 H 0.0234 -0.0696 0.2111
C5 C 0.1329(5) 0.0279(4) 0.2106(2)
H4 H 0.1926 -0.0050 0.2039
C6 C 0.3236(6) -0.3341(4) 0.0790(3)
C7 C 0.2739(7) -0.3833(4) 0.0365(3)
H5 H 0.2354 -0.3571 0.0063
C8 C 0.2818(8) -0.4718(4) 0.0390(4)
H6 H 0.2485 -0.5047 0.0106
C9 C 0.3393(8) -0.5110(4) 0.0841(4)
H7 H 0.3446 -0.5702 0.0858
C10 C 0.3890(8) -0.4618(4) 0.1266(4)
H8 H 0.4275 -0.4880 0.1568
C11 C 0.3812(7) -0.3733(4) 0.1241(3)
H9 H 0.4144 -0.3404 0.1525
C12 C 0.4841(8) 0.3261(4) 0.1689(4)
H10 H 0.4257 0.3631 0.1722
C13 C 0.5846(9) 0.3581(4) 0.1581(5)
H11 H 0.5935 0.4166 0.1544
C14 C 0.6719(8) 0.3028(5) 0.1531(6)
C15 C 0.6587(7) 0.2154(5) 0.1587(5)
H12 H 0.7172 0.1784 0.1554
C16 C 0.5583(6) 0.1833(4) 0.1695(4)
H13 H 0.5494 0.1249 0.1732
N2 N 0.4709(7) 0.2386(4) 0.1745(4)
Cd1 Cd 0.30351(10) 0.18404(8) 0.19350(5)
N3 N 0.1948(11) 0.2978(7) 0.1518(5)
C17 C 0.0572(15) 0.4308(12) 0.1042(8)
C18 C 0.1343(13) 0.2919(10) 0.1060(8)
H14 H 0.1364 0.2406 0.0883
C19 C 0.1871(17) 0.3732(12) 0.1727(7)
H15 H 0.2349 0.3820 0.2047
C20 C 0.1206(17) 0.4393(12) 0.1549(7)
H16 H 0.1167 0.4879 0.1749
C21 C 0.0665(14) 0.3557(13) 0.0809(8)
H17 H 0.0264 0.3466 0.0473
C22 C 0.1284(14) -0.1808(9) 0.0728(6)
C23 C 0.1969(17) -0.1783(10) -0.0064(7)
H18 H 0.2547 -0.1897 -0.0244
C24 C 0.2193(14) -0.1993(9) 0.0475(6)
C25 C 0.1025(19) -0.1441(12) -0.0347(7)
C26 C 0.0294(15) -0.1415(11) 0.0447(7)
C27 C 0.0203(19) -0.1260(11) -0.0074(8)
H19 H -0.0462 -0.1016 -0.0253
O1 O 0.3629(10) 0.0491(8) 0.1661(5)
O2 O 0.2579(12) 0.1204(8) 0.1022(6)
C28 C 0.4292(13) -0.2029(8) 0.0615(7)
C29 C 0.4645(12) -0.1201(9) 0.0747(6)
C30 C 0.3263(12) -0.2385(10) 0.0772(5)
H20 H 0.3307 -0.2201 0.1135
C31 C 0.5609(13) -0.0843(12) 0.0623(8)
C32 C 0.500(2) -0.2489(14) 0.0349(10)
H21 H 0.4812 -0.3054 0.0265
C33 C 0.3306(14) -0.0072(9) 0.0785(7)
H22 H 0.2573 -0.0300 0.0626
H23 H 0.3645 0.0178 0.0512
C34 C 0.3172(14) 0.0597(11) 0.1182(8)
O3 O 0.1453(9) -0.1929(7) 0.1270(4)
O4 O 0.4027(9) -0.0759(6) 0.1045(3)
C35 C 0.1027(15) -0.2728(10) 0.1419(6)
H24 H 0.1355 -0.3192 0.1252
H25 H 0.0215 -0.2747 0.1303
C36 C 0.1311(14) -0.2836(12) 0.1999(8)
O5 O 0.1879(11) -0.2301(9) 0.2273(4)
O6 O 0.0987(11) -0.3499(9) 0.2184(5)
C37 C -0.0157(17) 0.5017(15) 0.0784(9)
H26 H -0.0453 0.5333 0.1043
H27 H -0.0770 0.4784 0.0534
H28 H 0.0283 0.5389 0.0610
C38 C -0.168(3) 0.001(3) 0.2371(16)
H29 H -0.2201 -0.0101 0.2049
H30 H -0.2013 0.0405 0.2577
H31 H -0.1520 -0.0518 0.2560
C39 C 0.0860(19) -0.1248(15) -0.0894(7)
H32 H 0.0354 -0.1657 -0.1087
H33 H 0.1573 -0.1271 -0.1006
H34 H 0.0545 -0.0686 -0.0955
C40 C -0.0639(17) -0.1180(16) 0.0762(9)
H35 H -0.1106 -0.0734 0.0585
H36 H -0.0292 -0.0990 0.1105
H37 H -0.1095 -0.1674 0.0791
C41 C 0.624(2) -0.1362(15) 0.0342(11)
H38 H 0.6887 -0.1131 0.0251
C42 C 0.5979(16) 0.0027(13) 0.0759(9)
H39 H 0.5410 0.0421 0.0595
H40 H 0.6670 0.0137 0.0640
H41 H 0.6099 0.0098 0.1131
C43 C 0.597(2) -0.2156(15) 0.0199(13)
C44 C 0.774(2) 0.3481(18) 0.1355(14)
H42 H 0.7841 0.3251 0.1026
H43 H 0.8412 0.3389 0.1613
H44 H 0.7593 0.4083 0.1319
C45 C 0.688(4) -0.272(2) 0.006(3)
H45 H 0.7342 -0.2938 0.0376
H46 H 0.7340 -0.2401 -0.0131
H47 H 0.6540 -0.3192 -0.0147
Cd1A Cd 0.19649(10) -0.31596(8) 0.30650(5)
O5A O 0.3121(11) 0.2699(9) 0.2727(4)
O6A O 0.4013(11) 0.1501(9) 0.2816(5)
O7 O 0.1239(18) 0.3634(15) 0.2949(7)
C46? C 0.3973 0.2272 0.3581
C47? C 0.1311 -0.2836 0.1999
loop_
_geom_bond_atom_site_label_1
_geom_bond_atom_site_label_2
_geom_bond_site_symmetry_1
_geom_bond_site_symmetry_2
N1 C1 1_555 1_555
C1 H1 1_555 1_555
C2 C1 1_555 1_555
H2 C2 1_555 1_555
C3 C2 1_555 1_555
C4 C3 1_555 1_555
H3 C4 1_555 1_555
C5 N1 1_555 1_555
H4 C5 1_555 1_555
C6 C7 1_555 1_555
C7 H5 1_555 1_555
C8 C7 1_555 1_555
H6 C8 1_555 1_555
C9 C8 1_555 1_555
H7 C9 1_555 1_555
C10 C9 1_555 1_555
H8 C10 1_555 1_555
C11 C6 1_555 1_555
H9 C11 1_555 1_555
C12 H10 1_555 1_555
C13 C12 1_555 1_555
H11 C13 1_555 1_555
C14 C13 1_555 1_555
C15 C14 1_555 1_555
H12 C15 1_555 1_555
C16 C15 1_555 1_555
H13 C16 1_555 1_555
N2 C12 1_555 1_555
Cd1 N1 1_555 1_555
N3 Cd1 1_555 1_555
C17 C20 1_555 1_555
C18 N3 1_555 1_555
H14 C18 1_555 1_555
C19 N3 1_555 1_555
H15 C19 1_555 1_555
C20 C19 1_555 1_555
H16 C20 1_555 1_555
C21 C17 1_555 1_555
H17 C21 1_555 1_555
C22 C24 1_555 1_555
C23 H18 1_555 1_555
C24 C23 1_555 1_555
C25 C23 1_555 1_555
C26 C22 1_555 1_555
C27 C25 1_555 1_555
H19 C27 1_555 1_555
O1 Cd1 1_555 1_555
O2 Cd1 1_555 1_555
C28 C29 1_555 1_555
C29 C31 1_555 1_555
C30 C6 1_555 1_555
H20 C30 1_555 1_555
C31 C41 1_555 1_555
C32 C28 1_555 1_555
H21 C32 1_555 1_555
C33 H22 1_555 1_555
H23 C33 1_555 1_555
C34 O1 1_555 1_555
O3 C22 1_555 1_555
O4 C29 1_555 1_555
C35 O3 1_555 1_555
H24 C35 1_555 1_555
H25 C35 1_555 1_555
C36 C35 1_555 1_555
O5 C36 1_555 1_555
O6 C36 1_555 1_555
C37 C17 1_555 1_555
H26 C37 1_555 1_555
H27 C37 1_555 1_555
H28 C37 1_555 1_555
C38 C3 1_555 1_555
H29 C38 1_555 1_555
H30 C38 1_555 1_555
H31 C38 1_555 1_555
C39 C25 1_555 1_555
H32 C39 1_555 1_555
H33 C39 1_555 1_555
H34 C39 1_555 1_555
C40 C26 1_555 1_555
H35 C40 1_555 1_555
H36 C40 1_555 1_555
H37 C40 1_555 1_555
C41 H38 1_555 1_555
C42 C31 1_555 1_555
H39 C42 1_555 1_555
H40 C42 1_555 1_555
H41 C42 1_555 1_555
C43 C32 1_555 1_555
C44 C14 1_555 1_555
H42 C44 1_555 1_555
H43 C44 1_555 1_555
H44 C44 1_555 1_555
C45 C43 1_555 1_555
H45 C45 1_555 1_555
H46 C45 1_555 1_555
H47 C45 1_555 1_555
Cd1A O5 1_555 1_555
O5A Cd1 1_555 1_555
O6A Cd1 1_555 1_555
C4 C5 1_555 1_555
C10 C11 1_555 1_555
C16 N2 1_555 1_555
N2 Cd1 1_555 1_555
C18 C21 1_555 1_555
C24 C30 1_555 1_555
C26 C27 1_555 1_555
O2 C34 1_555 1_555
C28 C30 1_555 1_555
C33 C34 1_555 1_555
C33 O4 1_555 1_555
O6 Cd1A 1_555 1_555
C41 C43 1_555 1_555

#END
