
#######################################################################
#
#                 Cambridge Crystallographic Data Centre
#                                CCDC 
#
#######################################################################
#
# If this CIF has been generated from an entry in the Cambridge 
# Structural Database, then it will include bibliographic, chemical, 
# crystal, experimental, refinement or atomic coordinate data resulting 
# from the CCDC's data processing and validation procedures.
#
#######################################################################

data_NAYFEA
_symmetry_cell_setting           monoclinic
_symmetry_space_group_name_H-M   'P 21/c'
_symmetry_Int_Tables_number      14
_space_group_name_Hall           '-P 2ybc'
loop_
_symmetry_equiv_pos_site_id
_symmetry_equiv_pos_as_xyz
1 x,y,z
2 -x,1/2+y,1/2-z
3 -x,-y,-z
4 x,1/2-y,1/2+z
_cell_length_a                   17.4531(15)
_cell_length_b                   14.4853(13)
_cell_length_c                   11.8689(10)
_cell_angle_alpha                90
_cell_angle_beta                 78.186(4)
_cell_angle_gamma                90
_cell_volume                     2937.06
loop_
_atom_site_label
_atom_site_type_symbol
_atom_site_fract_x
_atom_site_fract_y
_atom_site_fract_z
C1 C 0.6769(3) 0.5065(3) 0.7834(4)
C2 C 0.4886(3) 0.5118(4) 0.6699(5)
H1 H 0.4863 0.4726 0.6055
H2 H 0.4652 0.5704 0.6596
H3 H 0.4607 0.4835 0.7393
K1 K 0.92203(7) 0.25205(9) 0.79873(10)
K2 K 0.93040(12) 0.52597(15) 0.61531(18)
C3 C 0.7258(3) 0.5592(3) 0.7002(4)
C4 C 0.7013(3) 0.5918(3) 0.6029(4)
C5 C 0.7060(3) 0.4690(3) 0.8879(4)
H4 H 0.7630 0.4625 0.8644
C6 C 0.6734(3) 0.3728(3) 0.9215(4)
C7 C 0.7045(3) 0.2957(3) 0.8591(4)
C8 C 0.6241(3) 0.5755(4) 0.5944(4)
H5 H 0.6065 0.5983 0.5310
C9 C 0.6761(3) 0.2072(4) 0.8861(4)
C10 C 0.6112(3) 0.3592(4) 1.0147(4)
H6 H 0.5892 0.4099 1.0574
C11 C 0.5723(3) 0.5259(4) 0.6780(4)
C12 C 0.6139(3) 0.1974(4) 0.9807(4)
H7 H 0.5939 0.1387 1.0005
C13 C 0.6908(3) 0.5373(3) 0.9881(4)
C14 C 0.5814(3) 0.2720(4) 1.0452(4)
C15 C 0.6007(3) 0.4910(4) 0.7705(4)
H8 H 0.5675 0.4560 0.8256
C16 C 0.6280(3) 0.5984(4) 1.0069(5)
H9 H 0.5932 0.5986 0.9570
C17 C 0.7560(4) 0.6427(5) 0.5078(5)
H10 H 0.7295 0.6556 0.4463
H11 H 0.8012 0.6053 0.4795
H12 H 0.7721 0.6997 0.5373
C18 C 0.7406(3) 0.5393(4) 1.0656(5)
H13 H 0.7829 0.4990 1.0557
C19 C 0.7105(3) 0.1236(4) 0.8196(5)
H14 H 0.6986 0.0697 0.8670
H15 H 0.7663 0.1306 0.7972
H16 H 0.6886 0.1170 0.7522
C20 C 0.6673(4) 0.6601(5) 1.1737(6)
H17 H 0.6596 0.7016 1.2348
C21 C 0.6167(4) 0.6590(4) 1.0990(6)
H18 H 0.5743 0.6993 1.1105
C22 C 0.7279(4) 0.6011(5) 1.1584(6)
H19 H 0.7617 0.6013 1.2097
C23 C 0.5177(4) 0.2582(5) 1.1509(6)
H20 H 0.4866 0.2055 1.1400
H21 H 0.4850 0.3121 1.1634
H22 H 0.5409 0.2482 1.2166
C24 C 0.7632(3) 0.3098(4) 0.6578(4)
H23 H 0.7211 0.3518 0.6506
H24 H 0.7497 0.2488 0.6343
C25 C 0.8388(3) 0.3418(3) 0.5811(4)
C26 C 0.8912(3) 0.6591(4) 0.8110(4)
C27 C 0.8130(3) 0.6605(3) 0.7711(5)
H25 H 0.7704 0.6678 0.8371
H26 H 0.8120 0.7124 0.7198
O1 O 0.80281(18) 0.5759(2) 0.7121(3)
O2 O 0.9281(2) 0.5849(3) 0.8061(3)
O3 O 0.77251(18) 0.3074(3) 0.7745(3)
O4 O 0.8955(2) 0.3643(3) 0.6256(3)
O5 O 0.8385(2) 0.3450(3) 0.4755(3)
O6 O 0.9380(3) 0.4110(3) 0.9113(4)
O7 O 0.9230(3) 0.0955(3) 0.6510(4)
O8 O 1.0293(2) 0.1895(3) 0.9579(3)
O9 O 0.9335(2) 0.4955(3) 0.4176(3)
O11 O 0.9117(2) 0.7350(3) 0.8453(4)
H29 H 0.908(3) 0.449(3) 0.418(5)
H30 H 0.923(3) 0.537(3) 0.370(4)
K1C K 0.92203(7) 0.24795(9) 0.29873(10)
K1A K 1.07797(7) 0.75205(9) 0.70127(10)
K2B K 1.06960(12) 0.47403(15) 0.38469(18)
K2A K 1.06960(12) 0.02597(15) 0.88469(18)
O5C O 0.8385(2) 0.1550(3) 0.9755(3)
O8A O 0.9707(2) 0.6895(3) 0.5421(3)
O9B O 1.0665(2) 0.5045(3) 0.5824(3)
O11A O 1.0883(2) 0.2350(3) 0.6547(4)
H29B H 1.092(3) 0.551(3) 0.582(5)
H30B H 1.077(3) 0.463(3) 0.630(4)
O10 O 1.0903(3) 0.3993(4) 0.7682(5)
H27 H 1.046(2) 0.403(6) 0.807(6)
H28 H 1.092(4) 0.345(2) 0.747(6)
loop_
_geom_bond_atom_site_label_1
_geom_bond_atom_site_label_2
_geom_bond_site_symmetry_1
_geom_bond_site_symmetry_2
C1 C3 1_555 1_555
C2 H1 1_555 1_555
H2 C2 1_555 1_555
H3 C2 1_555 1_555
K1 O3 1_555 1_555
K2 O1 1_555 1_555
C3 C4 1_555 1_555
C4 C8 1_555 1_555
C5 C1 1_555 1_555
H4 C5 1_555 1_555
C6 C5 1_555 1_555
C7 C6 1_555 1_555
C8 H5 1_555 1_555
C9 C7 1_555 1_555
C10 C6 1_555 1_555
H6 C10 1_555 1_555
C11 C2 1_555 1_555
C12 C9 1_555 1_555
H7 C12 1_555 1_555
C13 C5 1_555 1_555
C14 C10 1_555 1_555
C15 C1 1_555 1_555
H8 C15 1_555 1_555
C16 C13 1_555 1_555
H9 C16 1_555 1_555
C17 C4 1_555 1_555
H10 C17 1_555 1_555
H11 C17 1_555 1_555
H12 C17 1_555 1_555
C18 C13 1_555 1_555
H13 C18 1_555 1_555
C19 C9 1_555 1_555
H14 C19 1_555 1_555
H15 C19 1_555 1_555
H16 C19 1_555 1_555
C20 H17 1_555 1_555
C21 C16 1_555 1_555
H18 C21 1_555 1_555
C22 C18 1_555 1_555
H19 C22 1_555 1_555
C23 C14 1_555 1_555
H20 C23 1_555 1_555
H21 C23 1_555 1_555
H22 C23 1_555 1_555
C24 H23 1_555 1_555
H24 C24 1_555 1_555
C25 C24 1_555 1_555
C26 C27 1_555 1_555
C27 H25 1_555 1_555
H26 C27 1_555 1_555
O1 C3 1_555 1_555
O2 K2 1_555 1_555
O3 C7 1_555 1_555
O4 K1 1_555 1_555
O5 C25 1_555 1_555
O6 K1 1_555 1_555
O7 K1 1_555 1_555
O8 K1 1_555 1_555
O9 K2 1_555 1_555
O10 H27 1_555 1_555
O11 C26 1_555 1_555
H28 O10 1_555 1_555
H29 O9 1_555 1_555
H30 O9 1_555 1_555
K1C O5 1_555 1_555
K1A O11 1_555 1_555
K2B O9 1_555 1_555
K2A O8 1_555 1_555
O5C K1 1_555 1_555
O8A K2 1_555 1_555
O9B K2 1_555 1_555
O11A K1 1_555 1_555
H29B O9B 1_555 1_555
H30B O9B 1_555 1_555
K2 O4 1_555 1_555
C8 C11 1_555 1_555
C11 C15 1_555 1_555
C12 C14 1_555 1_555
C20 C21 1_555 1_555
C20 C22 1_555 1_555
C24 O3 1_555 1_555
C25 O4 1_555 1_555
C26 O2 1_555 1_555
C27 O1 1_555 1_555
K1A O8A 1_555 1_555
K2B O9B 1_555 1_555

#END
