
#######################################################################
#
#                 Cambridge Crystallographic Data Centre
#                                CCDC 
#
#######################################################################
#
# If this CIF has been generated from an entry in the Cambridge 
# Structural Database, then it will include bibliographic, chemical, 
# crystal, experimental, refinement or atomic coordinate data resulting 
# from the CCDC's data processing and validation procedures.
#
#######################################################################

data_NAYHUQ
_symmetry_cell_setting           triclinic
_symmetry_space_group_name_H-M   'P -1'
_symmetry_Int_Tables_number      2
_space_group_name_Hall           '-P 1'
loop_
_symmetry_equiv_pos_site_id
_symmetry_equiv_pos_as_xyz
1 x,y,z
2 -x,-y,-z
_cell_length_a                   7.017(2)
_cell_length_b                   9.662(2)
_cell_length_c                   10.279(3)
_cell_angle_alpha                111.12(2)
_cell_angle_beta                 99.56(2)
_cell_angle_gamma                107.34(2)
_cell_volume                     590.551
loop_
_atom_site_label
_atom_site_type_symbol
_atom_site_fract_x
_atom_site_fract_y
_atom_site_fract_z
Ni1 Ni 0.1939(1) 0.4940(1) 0.1058(1)
N1 N 0.0154(4) 0.3134(3) 0.1509(3)
C1 C -0.1291(6) 0.1702(4) 0.0499(4)
C2 C -0.2158(6) 0.0449(4) 0.0834(5)
C3 C -0.1528(7) 0.0670(5) 0.2247(5)
C4 C -0.0078(6) 0.2134(5) 0.3311(4)
C5 C 0.0742(5) 0.3369(4) 0.2908(4)
C6 C 0.2333(5) 0.4999(4) 0.3944(3)
C7 C 0.2967(6) 0.5525(5) 0.5437(4)
C8 C 0.4427(7) 0.7047(6) 0.6305(4)
C9 C 0.5248(6) 0.8028(5) 0.5674(4)
C10 C 0.4569(5) 0.7435(4) 0.4157(4)
N2 N 0.3140(4) 0.5939(3) 0.3310(3)
N3 N 0.0235(4) 0.3938(3) -0.1145(3)
N4 N 0.0368(5) 0.3027(3) -0.2227(3)
N5 N 0.0456(8) 0.2141(6) -0.3288(4)
N6 N 0.4194(4) 0.6870(3) 0.0935(3)
N7 N 0.5099(4) 0.6564(3) 0.0078(3)
N8 N 0.3998(5) 0.3675(3) 0.0783(3)
H1 H -0.173 0.155 -0.049
H2 H -0.319 -0.056 0.009
H3 H -0.209 -0.020 0.250
H4 H 0.036 0.231 0.431
H5 H 0.238 0.483 0.586
H6 H 0.489 0.743 0.735
H7 H 0.626 0.911 0.627
H8 H 0.514 0.810 0.370
Ni1A Ni -0.1939(1) 0.5060(1) -0.1058(1)
N3A N -0.0235(4) 0.6062(3) 0.1145(3)
N8A N 0.6002(5) 0.6325(3) -0.0783(3)
Ni1A_2 Ni 0.8061(1) 0.5060(1) -0.1058(1)
loop_
_geom_bond_atom_site_label_1
_geom_bond_atom_site_label_2
_geom_bond_site_symmetry_1
_geom_bond_site_symmetry_2
Ni1 N1 1_555 1_555
N1 C1 1_555 1_555
C1 C2 1_555 1_555
C2 C3 1_555 1_555
C3 C4 1_555 1_555
C4 C5 1_555 1_555
C5 N1 1_555 1_555
C6 C5 1_555 1_555
C7 C6 1_555 1_555
C8 C7 1_555 1_555
C9 C8 1_555 1_555
C10 C9 1_555 1_555
N2 Ni1 1_555 1_555
N3 Ni1 1_555 1_555
N4 N3 1_555 1_555
N5 N4 1_555 1_555
N6 Ni1 1_555 1_555
N7 N6 1_555 1_555
N8 Ni1 1_555 1_555
H1 C1 1_555 1_555
H2 C2 1_555 1_555
H3 C3 1_555 1_555
H4 C4 1_555 1_555
H5 C7 1_555 1_555
H6 C8 1_555 1_555
H7 C9 1_555 1_555
H8 C10 1_555 1_555
Ni1A N3 1_555 1_555
N3A Ni1 1_555 1_555
N8A N7 1_555 1_555
Ni1A_2 N8A 1_555 1_555
C6 N2 1_555 1_555
C10 N2 1_555 1_555
Ni1A N3A 1_555 1_555

#END
