
#######################################################################
#
#                 Cambridge Crystallographic Data Centre
#                                CCDC 
#
#######################################################################
#
# If this CIF has been generated from an entry in the Cambridge 
# Structural Database, then it will include bibliographic, chemical, 
# crystal, experimental, refinement or atomic coordinate data resulting 
# from the CCDC's data processing and validation procedures.
#
#######################################################################

data_NAYJUU
_symmetry_cell_setting           monoclinic
_symmetry_space_group_name_H-M   'P 21/n'
_symmetry_Int_Tables_number      14
_space_group_name_Hall           '-P 2yn'
loop_
_symmetry_equiv_pos_site_id
_symmetry_equiv_pos_as_xyz
1 x,y,z
2 1/2-x,1/2+y,1/2-z
3 -x,-y,-z
4 1/2+x,1/2-y,1/2+z
_cell_length_a                   18.255(4)
_cell_length_b                   9.3888(19)
_cell_length_c                   34.534(7)
_cell_angle_alpha                90
_cell_angle_beta                 99.624(6)
_cell_angle_gamma                90
_cell_volume                     5835.57
loop_
_atom_site_label
_atom_site_type_symbol
_atom_site_fract_x
_atom_site_fract_y
_atom_site_fract_z
C1 C 0.0923(9) 0.0678(14) 0.3674(5)
H1 H 0.0718 -0.0242 0.3614
C2 C 0.1607(9) 0.0800(13) 0.3902(5)
H2 H 0.1872 -0.0037 0.3995
C3 C 0.0826(9) 0.3124(13) 0.3621(4)
H3 H 0.0557 0.3956 0.3527
C4 C 0.1916(8) 0.2098(13) 0.3999(4)
C5 C 0.0531(9) 0.1850(13) 0.3531(4)
C6 C 0.1553(10) 0.3258(15) 0.3858(4)
H4 H 0.1769 0.4172 0.3913
C7 C 0.6208(8) -0.2585(14) 0.2888(3)
C8 C 0.5938(8) -0.1873(11) 0.3225(3)
O1 O 0.6711(6) -0.2019(10) 0.2752(2)
Cd1 Cd 0.65547(5) -0.34643(9) 0.21871(2)
Zn1 Zn 0.44090(11) 0.2492(2) 0.48083(5)
C9 C 0.5598(8) 0.3552(15) 0.5481(3)
C10 C 0.6038(8) 0.1608(14) 0.5077(3)
C11 C 0.3737(7) 0.4619(12) 0.5467(3)
C12 C 0.3259(9) 0.1695(15) 0.4088(4)
C13 C 0.5088(7) 0.0333(12) 0.4147(3)
C14 C 0.6149(7) 0.2554(13) 0.5390(3)
C15 C 0.6256(7) -0.0066(14) 0.4639(4)
H5 H 0.6473 -0.0812 0.4511
C16 C 0.4381(8) 0.0846(13) 0.4051(4)
C17 C 0.5715(9) 0.4641(15) 0.5783(4)
H6 H 0.6178 0.4904 0.5934
C18 C 0.6553(8) 0.0565(15) 0.4989(4)
H7 H 0.7019 0.0344 0.5145
C19 C 0.5052(7) 0.5210(14) 0.5811(3)
H8 H 0.4961 0.5954 0.5983
C20 C 0.2138(10) 0.3457(18) 0.4795(5)
H9 H 0.1623 0.3318 0.4701
C21 C 0.2730(10) 0.3003(15) 0.4605(4)
C22 C 0.4491(8) 0.4465(14) 0.5524(3)
C23 C 0.3204(7) 0.4054(14) 0.5166(4)
C24 C 0.2673(8) 0.2239(15) 0.4244(4)
C25 C 0.5580(8) 0.0594(12) 0.4509(3)
C26 C 0.3903(9) 0.0668(16) 0.3667(4)
H10 H 0.4051 0.0293 0.3437
C27 C 0.2431(9) 0.4126(17) 0.5136(4)
H11 H 0.2163 0.4559 0.5318
C28 C 0.3215(10) 0.113(2) 0.3701(5)
H12 H 0.2785 0.1091 0.3504
N1 N 0.4867(6) 0.3491(11) 0.5325(3)
N2 N 0.3398(6) 0.3301(11) 0.4849(3)
N3 N 0.3978(6) 0.1542(11) 0.4286(3)
N4 N 0.5427(6) 0.1580(10) 0.4789(3)
C29 C 0.5412(7) -0.0472(13) 0.3844(3)
C30 C 0.5353(7) -0.2429(12) 0.3377(3)
H13 H 0.5120 -0.3275 0.3267
C31 C 0.5090(8) -0.1772(12) 0.3694(4)
H14 H 0.4701 -0.2197 0.3805
C32 C 0.6274(9) -0.0655(16) 0.3398(4)
H15 H 0.6695 -0.0274 0.3306
C33 C 0.6010(10) 0.0006(15) 0.3696(4)
H16 H 0.6255 0.0840 0.3807
C34 C 0.3049(9) 0.6726(12) 0.5694(3)
H17 H 0.3009 0.7133 0.5440
C35 C 0.3429(7) 0.5462(14) 0.5779(3)
C36 C 0.2779(8) 0.6883(13) 0.6347(3)
C37 C 0.2721(7) 0.7411(11) 0.5984(3)
H18 H 0.2452 0.8269 0.5921
C38 C 0.3206(9) 0.5667(16) 0.6437(4)
H19 H 0.3289 0.5304 0.6697
C39 C 0.3503(10) 0.4998(17) 0.6152(4)
H20 H 0.3780 0.4152 0.6220
C40 C 0.2411(7) 0.7612(14) 0.6650(3)
O2 O 0.2041(6) 0.8691(10) 0.6563(2)
O3 O 0.2469(5) 0.7064(11) 0.6983(2)
C41 C -0.0226(8) 0.1736(12) 0.3274(4)
O4 O -0.0545(6) 0.2849(10) 0.3152(3)
O5 O -0.0479(5) 0.0512(8) 0.3180(2)
C42 C 0.6877(8) 0.2650(13) 0.5637(4)
C43 C 0.6982(10) 0.2501(19) 0.6051(4)
H21 H 0.6572 0.2247 0.6173
C44 C 0.7538(9) 0.2883(18) 0.5482(4)
H22 H 0.7509 0.2989 0.5206
C45 C 0.8300(11) 0.2966(16) 0.6124(6)
C46 C 0.8220(10) 0.296(2) 0.5718(6)
H23 H 0.8652 0.3011 0.5600
C47 C 0.7670(11) 0.2718(16) 0.6279(6)
H24 H 0.7707 0.2693 0.6557
C48 C 0.9072(12) 0.3058(16) 0.6359(7)
O6 O 0.9619(8) 0.3137(14) 0.6238(6)
O7 O 0.9092(10) 0.3069(15) 0.6717(6)
O8 O 0.5885(6) -0.3658(10) 0.2746(3)
O9 O 0.7153(8) -0.5469(14) 0.2385(3)
H25 H 0.741(14) -0.597(13) 0.225(4)
H26 H 0.708(13) -0.598(13) 0.258(5)
Cd1C Cd 0.15547(5) 0.84643(9) 0.71871(2)
Cd1A Cd -0.15547(5) 0.15357(9) 0.28129(2)
O2C O 0.7041(6) -0.3691(10) 0.1563(2)
O3C O 0.7469(5) -0.2064(11) 0.1983(2)
O4A O 0.5545(6) -0.2151(10) 0.1848(3)
O5A O 0.5479(5) -0.4488(8) 0.1820(2)
loop_
_geom_bond_atom_site_label_1
_geom_bond_atom_site_label_2
_geom_bond_site_symmetry_1
_geom_bond_site_symmetry_2
C1 H1 1_555 1_555
C2 C1 1_555 1_555
H2 C2 1_555 1_555
C3 H3 1_555 1_555
C4 C2 1_555 1_555
C5 C1 1_555 1_555
C6 C3 1_555 1_555
H4 C6 1_555 1_555
C7 C8 1_555 1_555
C8 C30 1_555 1_555
O1 C7 1_555 1_555
Cd1 O1 1_555 1_555
Zn1 N1 1_555 1_555
C9 C14 1_555 1_555
C10 C14 1_555 1_555
C11 C22 1_555 1_555
C12 C24 1_555 1_555
C13 C16 1_555 1_555
C14 C42 1_555 1_555
C15 H5 1_555 1_555
C16 C26 1_555 1_555
C17 C9 1_555 1_555
H6 C17 1_555 1_555
C18 C10 1_555 1_555
H7 C18 1_555 1_555
C19 C17 1_555 1_555
H8 C19 1_555 1_555
C20 H9 1_555 1_555
C21 C20 1_555 1_555
C22 C19 1_555 1_555
C23 C11 1_555 1_555
C24 C4 1_555 1_555
C25 C13 1_555 1_555
C26 H10 1_555 1_555
C27 C20 1_555 1_555
H11 C27 1_555 1_555
C28 C12 1_555 1_555
H12 C28 1_555 1_555
N1 C9 1_555 1_555
N2 Zn1 1_555 1_555
N3 Zn1 1_555 1_555
N4 Zn1 1_555 1_555
C29 C13 1_555 1_555
C30 H13 1_555 1_555
C31 C29 1_555 1_555
H14 C31 1_555 1_555
C32 C8 1_555 1_555
H15 C32 1_555 1_555
C33 C29 1_555 1_555
H16 C33 1_555 1_555
C34 H17 1_555 1_555
C35 C11 1_555 1_555
C36 C37 1_555 1_555
C37 C34 1_555 1_555
H18 C37 1_555 1_555
C38 C36 1_555 1_555
H19 C38 1_555 1_555
C39 C35 1_555 1_555
H20 C39 1_555 1_555
C40 C36 1_555 1_555
O2 C40 1_555 1_555
O3 C40 1_555 1_555
C41 C5 1_555 1_555
O4 C41 1_555 1_555
O5 C41 1_555 1_555
C42 C43 1_555 1_555
C43 H21 1_555 1_555
C44 C42 1_555 1_555
H22 C44 1_555 1_555
C45 C46 1_555 1_555
C46 C44 1_555 1_555
H23 C46 1_555 1_555
C47 C43 1_555 1_555
H24 C47 1_555 1_555
C48 C45 1_555 1_555
O6 C48 1_555 1_555
O7 C48 1_555 1_555
O8 C7 1_555 1_555
O9 Cd1 1_555 1_555
H25 O9 1_555 1_555
H26 O9 1_555 1_555
Cd1C O2 1_555 1_555
Cd1A O4 1_555 1_555
O2C Cd1 1_555 1_555
O3C Cd1 1_555 1_555
O4A Cd1 1_555 1_555
O5A Cd1 1_555 1_555
C3 C5 1_555 1_555
C4 C6 1_555 1_555
Cd1 O8 1_555 1_555
C10 N4 1_555 1_555
C12 N3 1_555 1_555
C15 C18 1_555 1_555
C15 C25 1_555 1_555
C16 N3 1_555 1_555
C21 C24 1_555 1_555
C21 N2 1_555 1_555
C22 N1 1_555 1_555
C23 C27 1_555 1_555
C23 N2 1_555 1_555
C25 N4 1_555 1_555
C26 C28 1_555 1_555
C30 C31 1_555 1_555
C32 C33 1_555 1_555
C34 C35 1_555 1_555
C38 C39 1_555 1_555
O3 Cd1C 1_555 1_555
O5 Cd1A 1_555 1_555
C45 C47 1_555 1_555

#END
