
#######################################################################
#
#                 Cambridge Crystallographic Data Centre
#                                CCDC 
#
#######################################################################
#
# If this CIF has been generated from an entry in the Cambridge 
# Structural Database, then it will include bibliographic, chemical, 
# crystal, experimental, refinement or atomic coordinate data resulting 
# from the CCDC's data processing and validation procedures.
#
#######################################################################

data_NAYJEE
_symmetry_cell_setting           orthorhombic
_symmetry_space_group_name_H-M   'P b c a'
_symmetry_Int_Tables_number      61
_space_group_name_Hall           '-P 2ac 2ab'
loop_
_symmetry_equiv_pos_site_id
_symmetry_equiv_pos_as_xyz
1 x,y,z
2 1/2-x,-y,1/2+z
3 -x,1/2+y,1/2-z
4 1/2+x,1/2-y,-z
5 -x,-y,-z
6 1/2+x,y,1/2-z
7 x,1/2-y,1/2+z
8 1/2-x,1/2+y,z
_cell_length_a                   30.1121(14)
_cell_length_b                   9.2525(4)
_cell_length_c                   41.8531(15)
_cell_angle_alpha                90
_cell_angle_beta                 90
_cell_angle_gamma                90
_cell_volume                     11660.8
loop_
_atom_site_label
_atom_site_type_symbol
_atom_site_fract_x
_atom_site_fract_y
_atom_site_fract_z
C1 C 0.7719(5) 0.4967(17) 0.2495(3)
H1 H 0.7580 0.4052 0.2518
C2 C 0.7725(5) 0.5633(17) 0.2197(3)
H2 H 0.7577 0.5177 0.2024
C3 C 0.7912(4) 0.5614(13) 0.2755(2)
C4 C 0.7922(4) 0.4810(13) 0.3064(3)
C5 C 0.8116(4) 0.6942(14) 0.2710(3)
H3 H 0.8244 0.7428 0.2888
C6 C 0.8135(4) 0.7562(13) 0.2413(3)
H4 H 0.8288 0.8453 0.2389
C7 C 0.7939(4) 0.6938(12) 0.2144(3)
C8 C 0.4828(8) 0.309(2) 0.3717(5)
O1 O 0.4668(5) 0.3098(17) 0.3450(5)
O2 O 0.4661(5) 0.3170(15) 0.3966(4)
C9 C 0.6285(2) 0.2714(11) 0.37367(18)
C10 C 0.6056(3) 0.3008(12) 0.40177(16)
H5 H 0.6214 0.3134 0.4212
C11 C 0.5595(3) 0.3116(13) 0.4014(2)
H6 H 0.5439 0.3317 0.4206
C12 C 0.5364(2) 0.2931(13) 0.3730(3)
C13 C 0.5593(3) 0.2638(12) 0.3449(2)
H7 H 0.5435 0.2511 0.3254
C14 C 0.6053(3) 0.2529(12) 0.34522(15)
H8 H 0.6210 0.2328 0.3260
Cd1 Cd 0.81350(3) -0.34535(9) 0.621330(17)
Fe1 Fe 0.79230(6) 0.2695(2) 0.37398(4)
O3 O 0.8186(3) -0.3659(9) 0.56196(19)
O4 O 0.8180(3) 0.8759(10) 0.1787(2)
O5 O 0.7811(3) 0.6966(10) 0.15938(18)
N1 N 0.7457(3) 0.3673(9) 0.3475(2)
N2 N 0.8386(3) 0.3518(11) 0.3452(2)
O6 O 0.7805(3) -0.1966(11) 0.58432(19)
N3 N 0.7461(3) 0.1742(10) 0.3984(2)
N4 N 0.8379(3) 0.1901(9) 0.4020(2)
C15 C 0.7908(4) 0.0553(12) 0.4397(2)
C16 C 0.7015(4) 0.3716(11) 0.3542(2)
C17 C 0.7116(4) 0.5387(12) 0.3162(2)
H9 H 0.7078 0.6143 0.3011
C18 C 0.6782(4) 0.2698(13) 0.3735(2)
C19 C 0.7010(4) 0.1686(13) 0.3921(3)
C20 C 0.7968(4) 0.7581(12) 0.1830(3)
C21 C 0.8840(4) 0.3357(16) 0.3478(3)
C22 C 0.9554(2) 0.2961(9) 0.3763(2)
C23 C 0.9811(3) 0.1722(7) 0.3732(2)
H10 H 0.9672 0.0808 0.3706
C24 C 1.0272(3) 0.1822(7) 0.3739(2)
H11 H 1.0448 0.0975 0.3718
C25 C 1.0475(2) 0.3160(9) 0.3777(2)
C26 C 1.0217(3) 0.4399(7) 0.3809(2)
H12 H 1.0356 0.5313 0.3835
C27 C 0.9757(3) 0.4299(7) 0.3802(2)
H13 H 0.9581 0.5146 0.3823
C28 C 0.9062(4) 0.2821(14) 0.3757(3)
C29 C 0.7914(3) -0.0333(8) 0.46998(13)
C30 C 0.7734(4) 0.0315(8) 0.49703(17)
H14 H 0.7601 0.1243 0.4955
C31 C 0.7750(4) -0.0396(9) 0.52628(14)
H15 H 0.7628 0.0047 0.5448
C32 C 0.7946(3) -0.1753(8) 0.52847(13)
C33 C 0.8125(3) -0.2401(7) 0.50142(17)
H16 H 0.8258 -0.3329 0.5029
C34 C 0.8109(3) -0.1691(8) 0.47217(14)
H17 H 0.8231 -0.2133 0.4537
C35 C 0.7976(4) -0.2513(15) 0.5600(3)
C36 C 0.8321(4) 0.1161(15) 0.4296(3)
C37 C 0.6803(4) 0.4798(14) 0.3351(3)
H18 H 0.6498 0.5054 0.3357
C38 C 0.8839(4) 0.2189(16) 0.4008(3)
C39 C 0.7520(4) 0.4630(13) 0.3238(2)
C40 C 0.8322(4) 0.4216(14) 0.3170(3)
C41 C 0.6793(4) 0.0597(13) 0.4113(3)
H19 H 0.6487 0.0345 0.4110
C42 C 0.7115(4) 0.0007(13) 0.4300(3)
H20 H 0.7073 -0.0731 0.4455
C43 C 0.8741(4) 0.4389(16) 0.3006(3)
H21 H 0.8786 0.4795 0.2800
C44 C 0.9047(4) 0.3874(16) 0.3197(3)
H22 H 0.9357 0.3852 0.3154
C45 C 0.7520(4) 0.0673(12) 0.4225(3)
C46 C 0.9035(5) 0.1689(15) 0.4303(3)
H23 H 0.9338 0.1793 0.4362
C47 C 0.8733(4) 0.1081(15) 0.4473(3)
H24 H 0.8772 0.0656 0.4678
O7 O 1.1197(3) 0.2162(10) 0.37689(18)
O8 O 1.1150(3) 0.4483(10) 0.37956(17)
C48 C 1.0977(5) 0.3266(12) 0.3783(3)
O9 O 0.7732(5) -0.5463(17) 0.6213(2)
Cd1F Cd 0.81350(3) 0.84535(9) 0.121330(17)
Cd1D Cd 1.18650(3) 0.34535(9) 0.378670(17)
O4F O 0.8180(3) -0.3759(10) 0.6787(2)
O5F O 0.7811(3) -0.1966(10) 0.65938(18)
O7D O 0.8803(3) -0.2162(10) 0.62311(18)
O8D O 0.8850(3) -0.4483(10) 0.62044(17)
loop_
_geom_bond_atom_site_label_1
_geom_bond_atom_site_label_2
_geom_bond_site_symmetry_1
_geom_bond_site_symmetry_2
C1 H1 1_555 1_555
C2 C1 1_555 1_555
H2 C2 1_555 1_555
C3 C1 1_555 1_555
C4 C3 1_555 1_555
C5 C3 1_555 1_555
H3 C5 1_555 1_555
C6 C5 1_555 1_555
H4 C6 1_555 1_555
C7 C2 1_555 1_555
C8 O1 1_555 1_555
O2 C8 1_555 1_555
C9 C10 1_555 1_555
C10 H5 1_555 1_555
C11 C10 1_555 1_555
H6 C11 1_555 1_555
C12 C8 1_555 1_555
C13 C12 1_555 1_555
H7 C13 1_555 1_555
C14 C9 1_555 1_555
H8 C14 1_555 1_555
Cd1 O3 1_555 1_555
Fe1 N1 1_555 1_555
O3 C35 1_555 1_555
O4 C20 1_555 1_555
O5 C20 1_555 1_555
N1 C16 1_555 1_555
N2 Fe1 1_555 1_555
O6 Cd1 1_555 1_555
N3 Fe1 1_555 1_555
N4 Fe1 1_555 1_555
C15 C29 1_555 1_555
C16 C18 1_555 1_555
C17 H9 1_555 1_555
C18 C9 1_555 1_555
C19 N3 1_555 1_555
C20 C7 1_555 1_555
C21 N2 1_555 1_555
C22 C23 1_555 1_555
C23 H10 1_555 1_555
C24 C23 1_555 1_555
H11 C24 1_555 1_555
C25 C24 1_555 1_555
C26 C25 1_555 1_555
H12 C26 1_555 1_555
C27 C22 1_555 1_555
H13 C27 1_555 1_555
C28 C21 1_555 1_555
C29 C30 1_555 1_555
C30 H14 1_555 1_555
C31 C30 1_555 1_555
H15 C31 1_555 1_555
C32 C31 1_555 1_555
C33 C32 1_555 1_555
H16 C33 1_555 1_555
C34 C29 1_555 1_555
H17 C34 1_555 1_555
C35 O6 1_555 1_555
C36 N4 1_555 1_555
C37 C16 1_555 1_555
H18 C37 1_555 1_555
C38 N4 1_555 1_555
C39 C4 1_555 1_555
C40 C4 1_555 1_555
C41 C19 1_555 1_555
H19 C41 1_555 1_555
C42 C41 1_555 1_555
H20 C42 1_555 1_555
C43 C40 1_555 1_555
H21 C43 1_555 1_555
C44 C21 1_555 1_555
H22 C44 1_555 1_555
C45 N3 1_555 1_555
C46 C38 1_555 1_555
H23 C46 1_555 1_555
C47 C36 1_555 1_555
H24 C47 1_555 1_555
O7 C48 1_555 1_555
O8 C48 1_555 1_555
C48 C25 1_555 1_555
O9 Cd1 1_555 1_555
Cd1F O4 1_555 1_555
Cd1D O7 1_555 1_555
O4F Cd1 1_555 1_555
O5F Cd1 1_555 1_555
O7D Cd1 1_555 1_555
O8D Cd1 1_555 1_555
C6 C7 1_555 1_555
C11 C12 1_555 1_555
C13 C14 1_555 1_555
O5 Cd1F 1_555 1_555
N1 C39 1_555 1_555
N2 C40 1_555 1_555
C15 C36 1_555 1_555
C15 C45 1_555 1_555
C17 C37 1_555 1_555
C17 C39 1_555 1_555
C18 C19 1_555 1_555
C22 C28 1_555 1_555
C26 C27 1_555 1_555
C28 C38 1_555 1_555
C32 C35 1_555 1_555
C33 C34 1_555 1_555
C42 C45 1_555 1_555
C43 C44 1_555 1_555
C46 C47 1_555 1_555
O8 Cd1D 1_555 1_555

#END
