
#######################################################################
#
#                 Cambridge Crystallographic Data Centre
#                                CCDC 
#
#######################################################################
#
# If this CIF has been generated from an entry in the Cambridge 
# Structural Database, then it will include bibliographic, chemical, 
# crystal, experimental, refinement or atomic coordinate data resulting 
# from the CCDC's data processing and validation procedures.
#
#######################################################################

data_NAYJII
_symmetry_cell_setting           orthorhombic
_symmetry_space_group_name_H-M   'P b c a'
_symmetry_Int_Tables_number      61
_space_group_name_Hall           '-P 2ac 2ab'
loop_
_symmetry_equiv_pos_site_id
_symmetry_equiv_pos_as_xyz
1 x,y,z
2 1/2-x,-y,1/2+z
3 -x,1/2+y,1/2-z
4 1/2+x,1/2-y,-z
5 -x,-y,-z
6 1/2+x,y,1/2-z
7 x,1/2-y,1/2+z
8 1/2-x,1/2+y,z
_cell_length_a                   59.431(2)
_cell_length_b                   9.3517(4)
_cell_length_c                   41.7871(17)
_cell_angle_alpha                90
_cell_angle_beta                 90
_cell_angle_gamma                90
_cell_volume                     23224.5
loop_
_atom_site_label
_atom_site_type_symbol
_atom_site_fract_x
_atom_site_fract_y
_atom_site_fract_z
C1 C 0.01799(18) 1.4600(11) 0.4356(2)
C2 C 0.03874(17) 1.4086(10) 0.4455(2)
C3 C 0.06052(18) 1.4250(11) 0.4293(2)
H1 H 0.0628 1.4647 0.4087
C4 C 0.07673(19) 1.3736(12) 0.4490(3)
H2 H 0.0924 1.3697 0.4448
C5 C 0.06530(18) 1.3254(10) 0.4779(3)
C6 C 0.0776(2) 1.2763(12) 0.5042(2)
C7 C 0.06493(19) 1.2087(11) 0.5303(3)
C8 C 0.07656(18) 1.1673(11) 0.5607(3)
H3 H 0.0918 1.1849 0.5664
C9 C 0.06089(18) 1.1004(11) 0.5779(2)
H4 H 0.0632 1.0593 0.5984
C10 C 0.03946(17) 1.0999(10) 0.5601(2)
C11 C 0.01957(17) 1.0345(11) 0.5690(2)
C12 C -0.00119(17) 1.0519(10) 0.55279(19)
C13 C -0.02148(17) 0.9799(10) 0.5595(2)
H5 H -0.0231 0.9056 0.5748
C14 C -0.03798(17) 1.0310(10) 0.5413(2)
H6 H -0.0533 1.0030 0.5411
C15 C -0.02719(16) 1.1389(11) 0.5220(2)
C16 C -0.0398(2) 1.2302(11) 0.50145(19)
C17 C -0.02825(17) 1.3304(11) 0.4813(2)
C18 C -0.03958(17) 1.4356(11) 0.4606(2)
H7 H -0.0552 1.4580 0.4601
C19 C -0.02327(17) 1.4932(9) 0.44248(19)
H8 H -0.0256 1.5650 0.4267
C20 C -0.00262(17) 1.4330(9) 0.44999(18)
C21 C 0.13891(11) 1.1782(6) 0.5049(2)
H9 H 0.1482 1.0956 0.5044
C22 C 0.14858(9) 1.3135(8) 0.5057(2)
C23 C 0.13497(12) 1.4344(6) 0.5064(2)
H10 H 0.1416 1.5268 0.5070
C24 C 0.11169(11) 1.4199(6) 0.5064(2)
H11 H 0.1024 1.5025 0.5069
C25 C 0.10202(9) 1.2846(7) 0.5056(2)
C26 C 0.11563(12) 1.1638(5) 0.5048(2)
H12 H 0.1090 1.0713 0.5043
C27 C 0.17389(18) 1.3262(11) 0.5054(3)
C28 C 0.01977(16) 0.9504(10) 0.5996(2)
C29 C 0.03366(17) 0.8330(10) 0.60381(19)
H13 H 0.0425 0.8003 0.5864
C30 C 0.03487(17) 0.7630(9) 0.6326(2)
H14 H 0.0444 0.6818 0.6348
C31 C 0.02244(15) 0.8093(10) 0.6585(2)
C32 C 0.00880(19) 0.9228(12) 0.6541(2)
H15 H 0.0001 0.9549 0.6718
C33 C 0.00670(19) 0.9945(12) 0.6258(2)
H16 H -0.0034 1.0727 0.6239
C34 C 0.02464(16) 0.7345(10) 0.6904(2)
C35 C -0.07693(11) 1.2481(8) 0.52890(11)
H17 H -0.0693 1.2671 0.5484
C36 C -0.10029(11) 1.2406(8) 0.52839(14)
H18 H -0.1086 1.2545 0.5475
C37 C -0.11146(8) 1.2127(8) 0.49984(17)
C38 C -0.09929(11) 1.1922(8) 0.47181(13)
H19 H -0.1069 1.1732 0.4523
C39 C -0.07593(10) 1.1997(8) 0.47233(11)
H20 H -0.0676 1.1858 0.4532
C40 C -0.06475(8) 1.2276(7) 0.50087(14)
C41 C -0.1361(3) 1.2014(13) 0.4993(4)
C42 C 0.23181(17) 0.9524(10) 0.6868(2)
C43 C 0.21065(17) 0.8905(10) 0.6964(3)
C44 C 0.19020(19) 0.8968(11) 0.6774(3)
H21 H 0.1885 0.9343 0.6564
C45 C 0.1740(2) 0.8370(11) 0.6963(3)
H22 H 0.1585 0.8276 0.6910
C46 C 0.18453(19) 0.7905(11) 0.7257(3)
C47 C 0.17392(19) 0.7275(9) 0.7520(3)
C48 C 0.1845(2) 0.6724(10) 0.7787(3)
C49 C 0.1730(2) 0.6234(12) 0.8075(3)
H23 H 0.1573 0.6267 0.8115
C50 C 0.18942(18) 0.5711(12) 0.8277(3)
H24 H 0.1874 0.5340 0.8487
C51 C 0.21039(18) 0.5845(11) 0.8103(2)
C52 C 0.23083(16) 0.5265(9) 0.8210(2)
C53 C 0.25146(18) 0.5461(11) 0.8055(2)
C54 C 0.27216(18) 0.4745(11) 0.8142(2)
H25 H 0.2742 0.4032 0.8301
C55 C 0.28827(19) 0.5321(11) 0.7944(3)
H26 H 0.3037 0.5053 0.7939
C56 C 0.27783(17) 0.6411(11) 0.7742(2)
C57 C 0.28937(19) 0.7353(10) 0.7542(2)
C58 C 0.27824(18) 0.8313(11) 0.7339(2)
C59 C 0.28942(19) 0.9355(11) 0.7142(2)
H27 H 0.3050 0.9575 0.7144
C60 C 0.27318(19) 0.9983(11) 0.6947(3)
H28 H 0.2754 1.0715 0.6793
C61 C 0.2519(2) 0.9278(11) 0.7030(2)
C62 C 0.23123(17) 1.0359(10) 0.6571(2)
C63 C 0.21781(18) 1.1575(10) 0.6534(2)
H29 H 0.2094 1.1918 0.6711
C64 C 0.21659(16) 1.2274(11) 0.6250(2)
H30 H 0.2072 1.3093 0.6235
C65 C 0.22840(19) 1.1848(12) 0.5981(2)
C66 C 0.2425(2) 1.0655(14) 0.6018(3)
H31 H 0.2511 1.0326 0.5841
C67 C 0.2442(2) 0.9952(13) 0.6307(3)
H32 H 0.2544 0.9174 0.6328
C68 C 0.22655(19) 1.2577(12) 0.5673(2)
C69 C 0.14832(8) 0.7143(7) 0.75078(18)
C70 C 0.13509(11) 0.8369(5) 0.75101(19)
H33 H 0.1420 0.9286 0.7511
C71 C 0.11178(10) 0.8254(5) 0.75107(19)
H34 H 0.1027 0.9092 0.7512
C72 C 0.10169(8) 0.6913(6) 0.75091(17)
C73 C 0.11492(11) 0.5687(5) 0.7507(2)
H35 H 0.1080 0.4771 0.7506
C74 C 0.13823(11) 0.5802(5) 0.7506(2)
H36 H 0.1473 0.4965 0.7505
C75 C 0.0767(2) 0.6804(11) 0.7521(2)
C76 C 0.23145(18) 0.4454(11) 0.8512(2)
C77 C 0.21837(18) 0.3203(9) 0.8558(3)
H37 H 0.2103 0.2812 0.8382
C78 C 0.21703(19) 0.2534(11) 0.8854(2)
H38 H 0.2078 0.1712 0.8876
C79 C 0.22880(17) 0.3032(10) 0.9118(2)
C80 C 0.2415(2) 0.4207(14) 0.9075(3)
H39 H 0.2493 0.4586 0.9254
C81 C 0.2437(2) 0.4907(13) 0.8778(2)
H40 H 0.2536 0.5697 0.8759
C82 C 0.3141(2) 0.7291(11) 0.7539(2)
C83 C 0.3267(2) 0.7495(12) 0.7826(2)
H41 H 0.3190 0.7715 0.8020
C84 C 0.3500(2) 0.7377(13) 0.7828(3)
H42 H 0.3579 0.7492 0.8024
C85 C 0.3621(2) 0.7089(11) 0.7544(3)
C86 C 0.3498(2) 0.6963(12) 0.7257(3)
H43 H 0.3576 0.6808 0.7062
C87 C 0.3263(2) 0.7058(13) 0.7253(3)
H44 H 0.3185 0.6966 0.7056
C88 C 0.3868(3) 0.7014(14) 0.7534(3)
C89 C 0.2270(2) 0.2320(16) 0.9428(2)
C90 C 0.02333(17) 1.7547(10) 0.3129(2)
C91 C 0.01777(17) 1.5443(10) 0.40466(19)
C92 C 0.00606(19) 1.4912(12) 0.3778(2)
H45 H -0.0030 1.4078 0.3796
C93 C 0.00782(18) 1.5608(12) 0.3492(2)
H46 H -0.0001 1.5243 0.3313
C94 C 0.02039(17) 1.6792(10) 0.34555(19)
C95 C 0.03223(17) 1.7361(9) 0.3726(2)
H47 H 0.0412 1.8197 0.3708
C96 C 0.03011(16) 1.6659(9) 0.40121(18)
H48 H 0.0376 1.7037 0.4194
Cd1 Cd 0.218770(14) 1.34783(8) 0.50515(2)
Cd2 Cd 0.031272(13) 0.65387(7) 0.752591(15)
Ni1 Ni 0.01913(7) 1.2473(4) 0.50223(9)
Ni2 Ni 0.23106(8) 0.7407(5) 0.75373(10)
N1 N -0.00473(13) 1.1490(8) 0.52868(15)
N2 N 0.04307(14) 1.1721(8) 0.53127(17)
N3 N 0.04271(14) 1.3405(8) 0.47464(17)
N4 N -0.00549(13) 1.3364(8) 0.47434(16)
N5 N 0.20741(15) 0.8220(8) 0.7245(2)
N6 N 0.20716(13) 0.6503(8) 0.7819(2)
N7 N 0.25486(14) 0.6447(8) 0.7806(2)
N8 N 0.25519(15) 0.8317(9) 0.7277(2)
O1 O 0.01359(13) 0.7857(8) 0.71402(15)
O2 O 0.03616(12) 0.6265(7) 0.69306(14)
O3 O 0.18534(14) 1.2133(8) 0.5044(2)
O4 O 0.18250(12) 1.4506(7) 0.50591(19)
O5 O -0.14648(14) 1.1950(10) 0.4722(3)
O6 O -0.14671(14) 1.2047(11) 0.5249(3)
O7 O 0.06750(12) 0.5542(6) 0.75206(14)
O8 O 0.06449(12) 0.7891(7) 0.75247(16)
O9 O 0.21432(14) 1.3659(7) 0.56436(17)
O10 O 0.23727(13) 1.2083(9) 0.54269(17)
O11 O 0.39681(15) 0.6933(9) 0.7281(3)
O12 O 0.39651(17) 0.6965(11) 0.7794(3)
O13 O 0.23631(15) 0.2935(10) 0.96649(17)
O14 O 0.21487(15) 0.1218(8) 0.94649(19)
O15 O 0.23814(16) 1.5510(10) 0.5046(2)
H49 H 0.2346 1.6094 0.4875
H50 H 0.2358 1.6045 0.5227
O16 O 0.03371(12) 1.8667(7) 0.31115(13)
O17 O 0.01272(13) 1.7005(9) 0.28937(15)
O18 O 0.01222(16) 0.4472(9) 0.75036(16)
H51 H 0.0181 0.3846 0.7636
H52 H -0.0018 0.4629 0.7559
Cd1F Cd 0.218770(14) 0.15217(8) 1.00515(2)
Cd2F Cd 0.031272(13) 1.84613(7) 0.252591(15)
O13F O 0.23631(15) 1.2065(10) 0.46649(17)
O14F O 0.21487(15) 1.3782(8) 0.44649(19)
O16F O 0.03371(12) 0.6333(7) 0.81115(13)
O17F O 0.01272(13) 0.7995(9) 0.78937(15)
loop_
_geom_bond_atom_site_label_1
_geom_bond_atom_site_label_2
_geom_bond_site_symmetry_1
_geom_bond_site_symmetry_2
C1 C2 1_555 1_555
C2 C3 1_555 1_555
C3 H1 1_555 1_555
C4 C3 1_555 1_555
H2 C4 1_555 1_555
C5 C4 1_555 1_555
C6 C5 1_555 1_555
C7 C6 1_555 1_555
C8 C7 1_555 1_555
H3 C8 1_555 1_555
C9 C8 1_555 1_555
H4 C9 1_555 1_555
C10 C9 1_555 1_555
C11 C10 1_555 1_555
C12 C11 1_555 1_555
C13 C12 1_555 1_555
H5 C13 1_555 1_555
C14 C13 1_555 1_555
H6 C14 1_555 1_555
C15 C14 1_555 1_555
C16 C15 1_555 1_555
C17 C16 1_555 1_555
C18 C17 1_555 1_555
H7 C18 1_555 1_555
C19 C18 1_555 1_555
H8 C19 1_555 1_555
C20 C1 1_555 1_555
C21 H9 1_555 1_555
C22 C21 1_555 1_555
C23 C22 1_555 1_555
H10 C23 1_555 1_555
C24 C23 1_555 1_555
H11 C24 1_555 1_555
C25 C6 1_555 1_555
C26 C21 1_555 1_555
H12 C26 1_555 1_555
C27 C22 1_555 1_555
C28 C11 1_555 1_555
C29 C28 1_555 1_555
H13 C29 1_555 1_555
C30 C29 1_555 1_555
H14 C30 1_555 1_555
C31 C30 1_555 1_555
C32 C31 1_555 1_555
H15 C32 1_555 1_555
C33 C28 1_555 1_555
H16 C33 1_555 1_555
C34 C31 1_555 1_555
C35 H17 1_555 1_555
C36 C35 1_555 1_555
H18 C36 1_555 1_555
C37 C36 1_555 1_555
C38 C37 1_555 1_555
H19 C38 1_555 1_555
C39 C38 1_555 1_555
H20 C39 1_555 1_555
C40 C16 1_555 1_555
C41 C37 1_555 1_555
C42 C43 1_555 1_555
C43 C44 1_555 1_555
C44 H21 1_555 1_555
C45 C44 1_555 1_555
H22 C45 1_555 1_555
C46 C45 1_555 1_555
C47 C46 1_555 1_555
C48 C47 1_555 1_555
C49 C48 1_555 1_555
H23 C49 1_555 1_555
C50 C49 1_555 1_555
H24 C50 1_555 1_555
C51 C50 1_555 1_555
C52 C51 1_555 1_555
C53 C52 1_555 1_555
C54 C53 1_555 1_555
H25 C54 1_555 1_555
C55 C54 1_555 1_555
H26 C55 1_555 1_555
C56 C55 1_555 1_555
C57 C56 1_555 1_555
C58 C57 1_555 1_555
C59 C58 1_555 1_555
H27 C59 1_555 1_555
C60 C59 1_555 1_555
H28 C60 1_555 1_555
C61 C42 1_555 1_555
C62 C42 1_555 1_555
C63 C62 1_555 1_555
H29 C63 1_555 1_555
C64 C63 1_555 1_555
H30 C64 1_555 1_555
C65 C64 1_555 1_555
C66 C65 1_555 1_555
H31 C66 1_555 1_555
C67 C62 1_555 1_555
H32 C67 1_555 1_555
C68 C65 1_555 1_555
C69 C47 1_555 1_555
C70 C69 1_555 1_555
H33 C70 1_555 1_555
C71 C70 1_555 1_555
H34 C71 1_555 1_555
C72 C71 1_555 1_555
C73 C72 1_555 1_555
H35 C73 1_555 1_555
C74 C69 1_555 1_555
H36 C74 1_555 1_555
C75 C72 1_555 1_555
C76 C52 1_555 1_555
C77 C76 1_555 1_555
H37 C77 1_555 1_555
C78 C77 1_555 1_555
H38 C78 1_555 1_555
C79 C78 1_555 1_555
C80 C79 1_555 1_555
H39 C80 1_555 1_555
C81 C76 1_555 1_555
H40 C81 1_555 1_555
C82 C57 1_555 1_555
C83 C82 1_555 1_555
H41 C83 1_555 1_555
C84 C83 1_555 1_555
H42 C84 1_555 1_555
C85 C84 1_555 1_555
C86 C85 1_555 1_555
H43 C86 1_555 1_555
C87 C82 1_555 1_555
H44 C87 1_555 1_555
C88 C85 1_555 1_555
C89 C79 1_555 1_555
C90 C94 1_555 1_555
C91 C1 1_555 1_555
C92 C91 1_555 1_555
H45 C92 1_555 1_555
C93 C92 1_555 1_555
H46 C93 1_555 1_555
C94 C93 1_555 1_555
C95 C94 1_555 1_555
H47 C95 1_555 1_555
C96 C91 1_555 1_555
H48 C96 1_555 1_555
Cd1 O3 1_555 1_555
Cd2 O1 1_555 1_555
Ni1 N1 1_555 1_555
Ni2 N5 1_555 1_555
N1 C12 1_555 1_555
N2 C7 1_555 1_555
N3 C2 1_555 1_555
N4 C17 1_555 1_555
N5 C43 1_555 1_555
N6 C48 1_555 1_555
N7 C53 1_555 1_555
N8 C58 1_555 1_555
O1 C34 1_555 1_555
O2 C34 1_555 1_555
O3 C27 1_555 1_555
O4 C27 1_555 1_555
O5 C41 1_555 1_555
O6 C41 1_555 1_555
O7 C75 1_555 1_555
O8 C75 1_555 1_555
O9 C68 1_555 1_555
O10 C68 1_555 1_555
O11 C88 1_555 1_555
O12 C88 1_555 1_555
O13 C89 1_555 1_555
O14 C89 1_555 1_555
O15 Cd1 1_555 1_555
H49 O15 1_555 1_555
H50 O15 1_555 1_555
O16 C90 1_555 1_555
O17 C90 1_555 1_555
O18 Cd2 1_555 1_555
H51 O18 1_555 1_555
H52 O18 1_555 1_555
Cd1F O13 1_555 1_555
Cd2F O16 1_555 1_555
O13F Cd1 1_555 1_555
O14F Cd1 1_555 1_555
O16F Cd2 1_555 1_555
O17F Cd2 1_555 1_555
C5 N3 1_555 1_555
C10 N2 1_555 1_555
C15 N1 1_555 1_555
C19 C20 1_555 1_555
C20 N4 1_555 1_555
C24 C25 1_555 1_555
C25 C26 1_555 1_555
C32 C33 1_555 1_555
C35 C40 1_555 1_555
C39 C40 1_555 1_555
C46 N5 1_555 1_555
C51 N6 1_555 1_555
C56 N7 1_555 1_555
C60 C61 1_555 1_555
C61 N8 1_555 1_555
C66 C67 1_555 1_555
C73 C74 1_555 1_555
C80 C81 1_555 1_555
C86 C87 1_555 1_555
C95 C96 1_555 1_555
Cd1 O4 1_555 1_555
Cd1 O9 1_555 1_555
Cd1 O10 1_555 1_555
Cd2 O2 1_555 1_555
Cd2 O7 1_555 1_555
Cd2 O8 1_555 1_555
Ni1 N2 1_555 1_555
Ni1 N3 1_555 1_555
Ni1 N4 1_555 1_555
Ni2 N6 1_555 1_555
Ni2 N7 1_555 1_555
Ni2 N8 1_555 1_555
O14 Cd1F 1_555 1_555
O17 Cd2F 1_555 1_555

#END
