
#######################################################################
#
#                 Cambridge Crystallographic Data Centre
#                                CCDC 
#
#######################################################################
#
# If this CIF has been generated from an entry in the Cambridge 
# Structural Database, then it will include bibliographic, chemical, 
# crystal, experimental, refinement or atomic coordinate data resulting 
# from the CCDC's data processing and validation procedures.
#
#######################################################################

data_NAYJAA
_symmetry_cell_setting           orthorhombic
_symmetry_space_group_name_H-M   'P b c a'
_symmetry_Int_Tables_number      61
_space_group_name_Hall           '-P 2ac 2ab'
loop_
_symmetry_equiv_pos_site_id
_symmetry_equiv_pos_as_xyz
1 x,y,z
2 1/2-x,-y,1/2+z
3 1/2+x,1/2-y,-z
4 -x,1/2+y,1/2-z
5 -x,-y,-z
6 1/2+x,y,1/2-z
7 1/2-x,1/2+y,z
8 x,1/2-y,1/2+z
_cell_length_a                   30.1991(9)
_cell_length_b                   9.2075(3)
_cell_length_c                   41.8863(13)
_cell_angle_alpha                90
_cell_angle_beta                 90
_cell_angle_gamma                90
_cell_volume                     11646.8
loop_
_atom_site_label
_atom_site_type_symbol
_atom_site_fract_x
_atom_site_fract_y
_atom_site_fract_z
C1 C 0.2534(11) 0.576(3) 0.4229(6)
C2 C 0.2122(10) 0.505(3) 0.4296(7)
H1 H 0.2082 0.4305 0.4443
C3 C 0.1806(9) 0.563(3) 0.4113(7)
H2 H 0.1509 0.5364 0.4106
C4 C 0.2017(10) 0.675(3) 0.3928(6)
C5 C 0.1795(11) 0.777(4) 0.3737(7)
C6 C 0.2022(9) 0.878(3) 0.3548(6)
C7 C 0.1812(10) 0.989(3) 0.3358(7)
H3 H 0.1516 1.0170 0.3365
C8 C 0.2129(9) 1.045(3) 0.3169(7)
H4 H 0.2093 1.1183 0.3018
C9 C 0.2540(10) 0.970(3) 0.3244(6)
C10 C 0.2929(10) 0.987(3) 0.3070(6)
C11 C 0.3325(10) 0.927(3) 0.3175(6)
C12 C 0.3746(10) 0.941(4) 0.3009(7)
H5 H 0.3787 0.9780 0.2804
C13 C 0.4062(11) 0.892(4) 0.3203(7)
H6 H 0.4364 0.8900 0.3163
C14 C 0.3840(10) 0.842(3) 0.3490(7)
C15 C 0.4058(11) 0.788(3) 0.3759(6)
C16 C 0.3834(10) 0.728(3) 0.4016(7)
C17 C 0.4045(11) 0.678(4) 0.4308(8)
H7 H 0.4343 0.6867 0.4361
C18 C 0.3729(10) 0.617(4) 0.4487(7)
H8 H 0.3765 0.5770 0.4689
C19 C 0.3320(10) 0.626(3) 0.4306(7)
C20 C 0.2924(9) 0.560(3) 0.4399(6)
C21 C 0.2940(11) 0.479(4) 0.4698(7)
C22 C 0.2769(17) 0.539(5) 0.4981(8)
H9 H 0.2653 0.6325 0.4977
C23 C 0.2768(16) 0.463(5) 0.5261(8)
H10 H 0.2635 0.5049 0.5439
C24 C 0.2952(10) 0.329(3) 0.5290(7)
C25 C 0.3115(12) 0.266(4) 0.5015(7)
H11 H 0.3243 0.1745 0.5025
C26 C 0.3093(14) 0.337(3) 0.4727(8)
H12 H 0.3184 0.2876 0.4545
C27 C 0.1297(11) 0.779(4) 0.3736(7)
C28 C 0.1055(12) 0.813(4) 0.4006(10)
H13 H 0.1201 0.8303 0.4197
C29 C 0.0597(14) 0.820(4) 0.3994(13)
H14 H 0.0441 0.8400 0.4180
C30 C 0.0364(14) 0.798(5) 0.3711(13)
C31 C 0.0603(12) 0.766(5) 0.3449(11)
H15 H 0.0459 0.7494 0.3256
C32 C 0.1065(11) 0.756(4) 0.3462(9)
H16 H 0.1219 0.7327 0.3277
C33 C -0.0123(17) 0.811(5) 0.370(2)
C34 C 0.4554(5) 0.797(2) 0.3768(5)
C35 C 0.4755(7) 0.9309(19) 0.3821(7)
H17 H 0.4582 1.0134 0.3851
C36 C 0.5214(7) 0.9413(18) 0.3830(7)
H18 H 0.5348 1.0308 0.3865
C37 C 0.5472(5) 0.818(2) 0.3785(5)
C38 C 0.5271(7) 0.6844(19) 0.3732(6)
H19 H 0.5444 0.6019 0.3702
C39 C 0.4812(7) 0.6739(18) 0.3724(6)
H20 H 0.4678 0.5845 0.3688
C40 C 0.2922(10) 1.066(3) 0.2760(7)
C41 C 0.2725(15) 0.999(4) 0.2498(8)
H21 H 0.2589 0.9094 0.2523
C42 C 0.2727(15) 1.064(5) 0.2203(7)
H22 H 0.2583 1.0188 0.2033
C43 C 0.2940(9) 1.195(3) 0.2152(7)
C44 C 0.3126(11) 1.261(4) 0.2414(7)
H23 H 0.3265 1.3505 0.2389
C45 C 0.3112(11) 1.199(4) 0.2713(8)
H24 H 0.3233 1.2480 0.2886
C46 C 0.2971(10) 1.261(4) 0.1830(7)
C47 C 0.2990(10) 0.252(4) 0.5602(7)
C48 C 0.5973(12) 0.827(3) 0.3785(7)
Cd1 Cd 0.31379(7) 1.3436(2) 0.12134(4)
Co1 Co 0.29330(19) 0.7764(6) 0.37429(11)
N1 N 0.2468(8) 0.874(2) 0.3487(5)
N2 N 0.3395(8) 0.859(3) 0.3463(5)
N3 N 0.3389(8) 0.699(3) 0.4026(5)
N4 N 0.2468(8) 0.678(2) 0.3987(5)
O1 O -0.0335(12) 0.820(3) 0.3957(14)
O2 O -0.0306(13) 0.811(5) 0.3432(16)
O3 O 0.2799(8) 1.196(3) 0.1599(5)
O4 O 0.3180(8) 1.377(3) 0.1791(5)
O5 O 0.2814(8) 0.307(3) 0.5842(5)
O6 O 0.3188(8) 0.134(2) 0.5619(5)
O7 O 0.6154(7) 0.950(3) 0.3801(5)
O8 O 0.6195(8) 0.714(3) 0.3768(5)
O9 O 0.2747(12) 1.546(4) 0.1209(6)
H25 H 0.2461 1.5265 0.1215
H26 H 0.2809 1.6015 0.1376
Cd1G Cd 0.31379(7) 0.1564(2) 0.62134(4)
Cd1C Cd 0.68621(7) 0.8436(2) 0.37866(4)
O5G O 0.2814(8) 1.193(3) 0.0842(5)
O6G O 0.3188(8) 1.366(2) 0.0619(5)
O7C O 0.3846(7) 1.450(3) 0.1199(5)
O8C O 0.3805(8) 1.214(3) 0.1232(5)
loop_
_geom_bond_atom_site_label_1
_geom_bond_atom_site_label_2
_geom_bond_site_symmetry_1
_geom_bond_site_symmetry_2
C1 C2 1_555 1_555
C2 H1 1_555 1_555
C3 C2 1_555 1_555
H2 C3 1_555 1_555
C4 C3 1_555 1_555
C5 C4 1_555 1_555
C6 C5 1_555 1_555
C7 C6 1_555 1_555
H3 C7 1_555 1_555
C8 C7 1_555 1_555
H4 C8 1_555 1_555
C9 C8 1_555 1_555
C10 C9 1_555 1_555
C11 C10 1_555 1_555
C12 C11 1_555 1_555
H5 C12 1_555 1_555
C13 C12 1_555 1_555
H6 C13 1_555 1_555
C14 C13 1_555 1_555
C15 C14 1_555 1_555
C16 C15 1_555 1_555
C17 C16 1_555 1_555
H7 C17 1_555 1_555
C18 C17 1_555 1_555
H8 C18 1_555 1_555
C19 C18 1_555 1_555
C20 C1 1_555 1_555
C21 C20 1_555 1_555
C22 C21 1_555 1_555
H9 C22 1_555 1_555
C23 C22 1_555 1_555
H10 C23 1_555 1_555
C24 C23 1_555 1_555
C25 C24 1_555 1_555
H11 C25 1_555 1_555
C26 C21 1_555 1_555
H12 C26 1_555 1_555
C27 C5 1_555 1_555
C28 C27 1_555 1_555
H13 C28 1_555 1_555
C29 C28 1_555 1_555
H14 C29 1_555 1_555
C30 C29 1_555 1_555
C31 C30 1_555 1_555
H15 C31 1_555 1_555
C32 C27 1_555 1_555
H16 C32 1_555 1_555
C33 C30 1_555 1_555
C34 C15 1_555 1_555
C35 C34 1_555 1_555
H17 C35 1_555 1_555
C36 C35 1_555 1_555
H18 C36 1_555 1_555
C37 C36 1_555 1_555
C38 C37 1_555 1_555
H19 C38 1_555 1_555
C39 C34 1_555 1_555
H20 C39 1_555 1_555
C40 C10 1_555 1_555
C41 C40 1_555 1_555
H21 C41 1_555 1_555
C42 C41 1_555 1_555
H22 C42 1_555 1_555
C43 C42 1_555 1_555
C44 C43 1_555 1_555
H23 C44 1_555 1_555
C45 C40 1_555 1_555
H24 C45 1_555 1_555
C46 C43 1_555 1_555
C47 C24 1_555 1_555
C48 C37 1_555 1_555
Cd1 O3 1_555 1_555
Co1 N1 1_555 1_555
N1 C6 1_555 1_555
N2 C11 1_555 1_555
N3 C16 1_555 1_555
N4 C1 1_555 1_555
O1 C33 1_555 1_555
O2 C33 1_555 1_555
O3 C46 1_555 1_555
O4 C46 1_555 1_555
O5 C47 1_555 1_555
O6 C47 1_555 1_555
O7 C48 1_555 1_555
O8 C48 1_555 1_555
O9 Cd1 1_555 1_555
H25 O9 1_555 1_555
H26 O9 1_555 1_555
Cd1G O5 1_555 1_555
Cd1C O7 1_555 1_555
O5G Cd1 1_555 1_555
O6G Cd1 1_555 1_555
O7C Cd1 1_555 1_555
O8C Cd1 1_555 1_555
C4 N4 1_555 1_555
C9 N1 1_555 1_555
C14 N2 1_555 1_555
C19 C20 1_555 1_555
C19 N3 1_555 1_555
C25 C26 1_555 1_555
C31 C32 1_555 1_555
C38 C39 1_555 1_555
C44 C45 1_555 1_555
Cd1 O4 1_555 1_555
Co1 N2 1_555 1_555
Co1 N3 1_555 1_555
Co1 N4 1_555 1_555
O6 Cd1G 1_555 1_555
O8 Cd1C 1_555 1_555

#END
