
#######################################################################
#
#                 Cambridge Crystallographic Data Centre
#                                CCDC 
#
#######################################################################
#
# If this CIF has been generated from an entry in the Cambridge 
# Structural Database, then it will include bibliographic, chemical, 
# crystal, experimental, refinement or atomic coordinate data resulting 
# from the CCDC's data processing and validation procedures.
#
#######################################################################

data_NAYJEC
_symmetry_cell_setting           triclinic
_symmetry_space_group_name_H-M   'P -1'
_symmetry_Int_Tables_number      2
_space_group_name_Hall           '-P 1'
loop_
_symmetry_equiv_pos_site_id
_symmetry_equiv_pos_as_xyz
1 x,y,z
2 -x,-y,-z
_cell_length_a                   7.448(32)
_cell_length_b                   9.195(3)
_cell_length_c                   10.020(3)
_cell_angle_alpha                111.00(2)
_cell_angle_beta                 104.07(2)
_cell_angle_gamma                101.53(2)
_cell_volume                     589.381
loop_
_atom_site_label
_atom_site_type_symbol
_atom_site_fract_x
_atom_site_fract_y
_atom_site_fract_z
Fe1 Fe 0.1122(1) 0.3983(1) 0.3887(1)
N1 N -0.1045(2) 0.1626(2) 0.3130(2)
C1 C -0.1544(3) 0.1010(3) 0.4062(2)
C2 C -0.2878(3) -0.0524(3) 0.3527(3)
C3 C -0.3756(3) -0.1444(3) 0.1980(3)
C4 C -0.3283(3) -0.0812(2) 0.1012(3)
C5 C -0.1900(2) 0.0719(2) 0.1613(2)
C6 C -0.1226(3) 0.1456(2) 0.0656(2)
C7 C -0.2022(3) 0.0719(3) -0.0921(2)
C8 C -0.1320(4) 0.1492(3) -0.1736(3)
C9 C 0.0171(4) 0.2947(3) -0.0961(3)
C10 C 0.0949(3) 0.3614(3) 0.0617(2)
N2 N 0.0251(2) 0.2888(2) 0.1419(2)
N3 N 0.1169(2) 0.4784(2) 0.6182(2)
N4 N 0.2594(2) 0.5216(2) 0.7270(2)
N5 N 0.3930(3) 0.5599(3) 0.8322(2)
N6 N 0.3261(3) 0.6095(2) 0.4165(2)
N7 N 0.4917(2) 0.6604(2) 0.4938(2)
N8 N 0.3446(2) 0.2822(2) 0.4305(2)
H1 H -0.095 0.168 0.513
H2 H -0.320 -0.094 0.422
H3 H -0.470 -0.252 0.160
H4 H -0.389 -0.144 -0.006
H5 H -0.305 -0.033 -0.144
H6 H -0.183 0.100 -0.282
H7 H 0.070 0.351 -0.150
H8 H 0.202 0.464 0.115
Fe1A Fe -0.1122(1) 0.6017(1) 0.6113(1)
N3A N -0.1169(2) 0.5216(2) 0.3818(2)
N8A N 0.6554(2) 0.7178(2) 0.5695(2)
Fe1A_2 Fe 0.8878(1) 0.6017(1) 0.6113(1)
loop_
_geom_bond_atom_site_label_1
_geom_bond_atom_site_label_2
_geom_bond_site_symmetry_1
_geom_bond_site_symmetry_2
Fe1 N1 1_555 1_555
N1 C1 1_555 1_555
C1 C2 1_555 1_555
C2 C3 1_555 1_555
C3 C4 1_555 1_555
C4 C5 1_555 1_555
C5 N1 1_555 1_555
C6 C5 1_555 1_555
C7 C6 1_555 1_555
C8 C7 1_555 1_555
C9 C8 1_555 1_555
C10 C9 1_555 1_555
N2 Fe1 1_555 1_555
N3 Fe1 1_555 1_555
N4 N3 1_555 1_555
N5 N4 1_555 1_555
N6 Fe1 1_555 1_555
N7 N6 1_555 1_555
N8 Fe1 1_555 1_555
H1 C1 1_555 1_555
H2 C2 1_555 1_555
H3 C3 1_555 1_555
H4 C4 1_555 1_555
H5 C7 1_555 1_555
H6 C8 1_555 1_555
H7 C9 1_555 1_555
H8 C10 1_555 1_555
Fe1A N3 1_555 1_555
N3A Fe1 1_555 1_555
N8A N7 1_555 1_555
Fe1A_2 N8A 1_555 1_555
C6 N2 1_555 1_555
C10 N2 1_555 1_555
Fe1A N3A 1_555 1_555

#END
