
#######################################################################
#
#                 Cambridge Crystallographic Data Centre
#                                CCDC 
#
#######################################################################
#
# If this CIF has been generated from an entry in the Cambridge 
# Structural Database, then it will include bibliographic, chemical, 
# crystal, experimental, refinement or atomic coordinate data resulting 
# from the CCDC's data processing and validation procedures.
#
#######################################################################

data_NAYJAY
_symmetry_cell_setting           triclinic
_symmetry_space_group_name_H-M   'P -1'
_symmetry_Int_Tables_number      2
_space_group_name_Hall           '-P 1'
loop_
_symmetry_equiv_pos_site_id
_symmetry_equiv_pos_as_xyz
1 x,y,z
2 -x,-y,-z
_cell_length_a                   7.311(2)
_cell_length_b                   9.243(3)
_cell_length_c                   10.061(4)
_cell_angle_alpha                110.93(3)
_cell_angle_beta                 102.61(3)
_cell_angle_gamma                102.93(3)
_cell_volume                     584.757
loop_
_atom_site_label
_atom_site_type_symbol
_atom_site_fract_x
_atom_site_fract_y
_atom_site_fract_z
Co1 Co 0.1086(1) 0.3961(1) 0.3891(1)
N1 N -0.1077(3) 0.1652(2) 0.3201(2)
C1 C -0.1594(4) 0.1045(3) 0.4136(3)
C2 C -0.2941(4) -0.0497(3) 0.3632(4)
C3 C -0.3817(4) -0.1439(3) 0.2099(4)
C4 C -0.3321(3) -0.0810(3) 0.1129(3)
C5 C -0.1926(3) 0.0727(2) 0.1705(2)
C6 C -0.1217(3) 0.1465(2) 0.0750(2)
C7 C -0.1965(4) 0.0720(3) -0.0813(3)
C8 C -0.1212(5) 0.1501(4) -0.1612(3)
C9 C 0.0267(5) 0.2980(4) -0.0856(3)
C10 C 0.1008(4) 0.3668(3) 0.0715(3)
N2 N 0.0269(3) 0.2927(2) 0.1504(2)
N3 N 0.1176(3) 0.4855(2) 0.6177(2)
N4 N 0.2594(3) 0.5284(2) 0.7248(2)
N5 N 0.3927(4) 0.5673(4) 0.8293(3)
N6 N 0.3335(3) 0.6098(3) 0.4224(3)
N7 N 0.4988(3) 0.6611(2) 0.4998(2)
N8 N 0.3341(3) 0.2800(2) 0.4226(2)
H1 H -0.100 0.172 0.520
H2 H -0.327 -0.092 0.433
H3 H -0.477 -0.252 0.172
H4 H -0.393 -0.144 0.006
H5 H -0.299 -0.033 -0.133
H6 H -0.173 0.101 -0.269
H7 H 0.080 0.355 -0.139
H8 H 0.208 0.469 0.125
Co1A Co -0.1086(1) 0.6039(1) 0.6109(1)
N3A N -0.1176(3) 0.5145(2) 0.3823(2)
N8A N 0.6659(3) 0.7200(2) 0.5774(2)
Co1A_2 Co 0.8914(1) 0.6039(1) 0.6109(1)
loop_
_geom_bond_atom_site_label_1
_geom_bond_atom_site_label_2
_geom_bond_site_symmetry_1
_geom_bond_site_symmetry_2
Co1 N1 1_555 1_555
N1 C1 1_555 1_555
C1 C2 1_555 1_555
C2 C3 1_555 1_555
C3 C4 1_555 1_555
C4 C5 1_555 1_555
C5 N1 1_555 1_555
C6 C5 1_555 1_555
C7 C6 1_555 1_555
C8 C7 1_555 1_555
C9 C8 1_555 1_555
C10 C9 1_555 1_555
N2 Co1 1_555 1_555
N3 Co1 1_555 1_555
N4 N3 1_555 1_555
N5 N4 1_555 1_555
N6 Co1 1_555 1_555
N7 N6 1_555 1_555
N8 Co1 1_555 1_555
H1 C1 1_555 1_555
H2 C2 1_555 1_555
H3 C3 1_555 1_555
H4 C4 1_555 1_555
H5 C7 1_555 1_555
H6 C8 1_555 1_555
H7 C9 1_555 1_555
H8 C10 1_555 1_555
Co1A N3 1_555 1_555
N3A Co1 1_555 1_555
N8A N7 1_555 1_555
Co1A_2 N8A 1_555 1_555
C6 N2 1_555 1_555
C10 N2 1_555 1_555
Co1A N3A 1_555 1_555

#END
