
#######################################################################
#
#                 Cambridge Crystallographic Data Centre
#                                CCDC 
#
#######################################################################
#
# If this CIF has been generated from an entry in the Cambridge 
# Structural Database, then it will include bibliographic, chemical, 
# crystal, experimental, refinement or atomic coordinate data resulting 
# from the CCDC's data processing and validation procedures.
#
#######################################################################

data_NAYKAB
_symmetry_cell_setting           tetragonal
_symmetry_space_group_name_H-M   'I 41/a'
_symmetry_Int_Tables_number      88
_space_group_name_Hall           '-I 4ad'
loop_
_symmetry_equiv_pos_site_id
_symmetry_equiv_pos_as_xyz
1 x,y,z
2 1/2-x,-y,1/2+z
3 3/4-y,1/4+x,1/4+z
4 3/4+y,3/4-x,3/4+z
5 1/2+x,1/2+y,1/2+z
6 -x,1/2-y,z
7 1/4-y,3/4+x,3/4+z
8 1/4+y,1/4-x,1/4+z
9 -x,-y,-z
10 1/2+x,y,1/2-z
11 1/4+y,3/4-x,3/4-z
12 1/4-y,1/4+x,1/4-z
13 1/2-x,1/2-y,1/2-z
14 x,1/2+y,-z
15 3/4+y,1/4-x,1/4-z
16 3/4-y,3/4+x,3/4-z
_cell_length_a                   18.967(2)
_cell_length_b                   18.967(2)
_cell_length_c                   61.245(15)
_cell_angle_alpha                90
_cell_angle_beta                 90
_cell_angle_gamma                90
_cell_volume                     22032.7
loop_
_atom_site_label
_atom_site_type_symbol
_atom_site_fract_x
_atom_site_fract_y
_atom_site_fract_z
C1 C -0.1145(17) 0.6654(13) 0.0383(4)
C2 C -0.0462(10) 0.6369(9) 0.0370(3)
C3 C -0.0030(12) 0.6217(11) 0.0554(3)
H1 H -0.0141 0.6293 0.0704
C4 C 0.0563(12) 0.5944(10) 0.0472(3)
H2 H 0.0956 0.5784 0.0555
C5 C 0.0503(11) 0.5937(9) 0.0240(3)
C6 C 0.1005(10) 0.5669(9) 0.0095(3)
C7 C 0.0929(11) 0.5632(9) -0.0134(3)
C8 C 0.1372(10) 0.5268(9) -0.0280(4)
H3 H 0.1766 0.4986 -0.0241
C9 C 0.1149(11) 0.5385(10) -0.0484(3)
H4 H 0.1353 0.5209 -0.0614
C10 C 0.0524(9) 0.5840(8) -0.0465(3)
C11 C 0.0154(10) 0.6084(9) -0.0646(3)
C12 C -0.0453(10) 0.6464(9) -0.0630(3)
C13 C -0.0868(12) 0.6731(10) -0.0808(3)
H5 H -0.0752 0.6692 -0.0958
C14 C -0.1439(10) 0.7041(10) -0.0728(3)
H6 H -0.1803 0.7260 -0.0810
C15 C -0.1403(10) 0.6984(9) -0.0492(3)
C16 C -0.1927(10) 0.7194(9) -0.0351(3)
C17 C -0.1946(10) 0.7093(10) -0.0128(4)
C18 C -0.2467(10) 0.7306(10) 0.0021(3)
H7 H -0.2903 0.7521 -0.0017
C19 C -0.2260(10) 0.7163(9) 0.0221(4)
H8 H -0.2515 0.7248 0.0352
C20 C -0.1583(10) 0.6856(10) 0.0202(3)
C21 C -0.1414(15) 0.6789(13) 0.0610(4)
C22 C -0.1785(14) 0.6285(13) 0.0715(3)
H9 H -0.1897 0.5863 0.0639
C23 C -0.2011(14) 0.6360(13) 0.0931(3)
H10 H -0.2271 0.6001 0.1003
C24 C -0.1834(15) 0.6988(13) 0.1035(4)
C25 C -0.1581(14) 0.7512(13) 0.0918(4)
H11 H -0.1565 0.7976 0.0976
C26 C -0.1345(14) 0.7380(13) 0.0713(3)
H12 H -0.1108 0.7752 0.0640
C27 C -0.2026(18) 0.7055(14) 0.1294(5)
C28 C 0.1692(11) 0.5420(10) 0.0187(3)
C29 C 0.1700(11) 0.4839(9) 0.0337(3)
H13 H 0.1280 0.4587 0.0369
C30 C 0.2320(12) 0.4657(10) 0.0432(3)
H14 H 0.2330 0.4278 0.0533
C31 C 0.2944(11) 0.5016(11) 0.0383(3)
C32 C 0.2931(12) 0.5541(12) 0.0231(3)
H15 H 0.3360 0.5765 0.0192
C33 C 0.2314(11) 0.5758(11) 0.0132(4)
H16 H 0.2316 0.6130 0.0028
C34 C 0.3602(12) 0.4828(13) 0.0513(4)
C35 C -0.2542(9) 0.7614(12) -0.0437(3)
C36 C -0.3195(12) 0.7270(11) -0.0473(3)
H17 H -0.3244 0.6777 -0.0452
C37 C -0.3761(10) 0.7678(12) -0.0542(3)
H18 H -0.4206 0.7464 -0.0568
C38 C -0.3679(12) 0.8385(11) -0.0572(3)
C39 C -0.3026(12) 0.8717(11) -0.0539(3)
H19 H -0.2971 0.9208 -0.0564
C40 C -0.2478(10) 0.8320(12) -0.0471(3)
H20 H -0.2035 0.8540 -0.0446
C41 C -0.4326(13) 0.8837(14) -0.0638(3)
C42 C 0.0475(12) 0.5907(10) -0.0867(3)
C43 C 0.1126(12) 0.6176(11) -0.0926(4)
H21 H 0.1346 0.6514 -0.0834
C44 C 0.1458(11) 0.5968(12) -0.1112(4)
H22 H 0.1892 0.6179 -0.1153
C45 C 0.1164(13) 0.5450(12) -0.1240(3)
C46 C 0.0496(14) 0.5215(11) -0.1193(3)
H23 H 0.0271 0.4898 -0.1291
C47 C 0.0136(11) 0.5430(11) -0.1003(4)
H24 H -0.0321 0.5255 -0.0970
C48 C 0.1573(16) 0.5164(14) -0.1434(3)
Cd1 Cd -0.22938(8) 0.72234(8) 0.17166(2)
Fe1 Fe -0.03684(14) 0.66462(14) -0.01236(4)
N1 N -0.1378(8) 0.6801(7) -0.0008(2)
N2 N -0.0133(8) 0.6212(7) 0.0180(2)
N3 N 0.0395(8) 0.5974(7) -0.0251(3)
N4 N -0.0802(8) 0.6639(7) -0.0437(2)
O1 O -0.2388(14) 0.6618(16) 0.1369(4)
O2 O -0.1970(15) 0.7617(13) 0.1362(3)
O3 O 0.3581(7) 0.4467(7) 0.0677(2)
O4 O 0.4159(9) 0.5095(11) 0.0443(3)
O5 O -0.4873(8) 0.8543(8) -0.0704(2)
O6 O -0.4255(7) 0.9490(10) -0.0625(2)
O7 O 0.0000 0.7500 -0.0109(2)
O8 O 0.1251(8) 0.4664(8) -0.1541(2)
O9 O 0.2140(10) 0.5377(9) -0.1479(3)
C1K C -0.4154(13) 0.1355(17) 0.2117(4)
C2K C -0.3869(9) 0.2038(10) 0.2130(3)
C3K C -0.3717(11) 0.2470(12) 0.1946(3)
H1K H -0.3793 0.2359 0.1796
C4K C -0.3444(10) 0.3063(12) 0.2028(3)
H2K H -0.3284 0.3456 0.1945
C5K C -0.3437(9) 0.3003(11) 0.2260(3)
C6K C -0.3169(9) 0.3505(10) 0.2405(3)
C7K C -0.3132(9) 0.3429(11) 0.2634(3)
C8K C -0.2768(9) 0.3872(10) 0.2780(4)
H3K H -0.2486 0.4266 0.2741
C9K C -0.2885(10) 0.3649(11) 0.2984(3)
H4K H -0.2709 0.3853 0.3114
C10K C -0.3340(8) 0.3024(9) 0.2965(3)
C11K C -0.3584(9) 0.2654(10) 0.3146(3)
C12K C -0.3964(9) 0.2047(10) 0.3130(3)
C13K C -0.4231(10) 0.1632(12) 0.3308(3)
H5K H -0.4192 0.1748 0.3458
C14K C -0.4541(10) 0.1061(10) 0.3228(3)
H6K H -0.4760 0.0697 0.3310
C15K C -0.4484(9) 0.1097(10) 0.2992(3)
C16K C -0.4694(9) 0.0573(10) 0.2851(3)
C17K C -0.4593(10) 0.0554(10) 0.2628(4)
C18K C -0.4806(10) 0.0033(10) 0.2479(3)
H7K H -0.5021 -0.0403 0.2517
C19K C -0.4663(9) 0.0240(10) 0.2279(4)
H8K H -0.4748 -0.0015 0.2148
C20K C -0.4356(10) 0.0917(10) 0.2298(3)
C21K C -0.4289(13) 0.1086(15) 0.1890(4)
C22K C -0.3785(13) 0.0715(14) 0.1785(3)
H9K H -0.3363 0.0603 0.1861
C23K C -0.3860(13) 0.0489(14) 0.1569(3)
H10K H -0.3501 0.0229 0.1497
C24K C -0.4488(13) 0.0666(15) 0.1465(4)
C25K C -0.5012(13) 0.0919(14) 0.1582(4)
H11K H -0.5476 0.0935 0.1524
C26K C -0.4880(13) 0.1155(14) 0.1787(3)
H12K H -0.5252 0.1392 0.1860
C27K C -0.4555(14) 0.0474(18) 0.1206(5)
C28K C -0.2920(10) 0.4192(11) 0.2313(3)
C29K C -0.2339(9) 0.4200(11) 0.2163(3)
H13K H -0.2087 0.3780 0.2131
C30K C -0.2157(10) 0.4820(12) 0.2068(3)
H14K H -0.1778 0.4830 0.1967
C31K C -0.2516(11) 0.5444(11) 0.2117(3)
C32K C -0.3041(12) 0.5431(12) 0.2269(3)
H15K H -0.3265 0.5860 0.2308
C33K C -0.3258(11) 0.4814(11) 0.2368(4)
H16K H -0.3630 0.4816 0.2472
C34K C -0.2328(13) 0.6102(12) 0.1987(4)
C35K C -0.5114(12) -0.0042(9) 0.2937(3)
C36K C -0.4770(11) -0.0695(12) 0.2973(3)
H17K H -0.4277 -0.0744 0.2952
C37K C -0.5178(12) -0.1261(10) 0.3042(3)
H18K H -0.4964 -0.1706 0.3068
C38K C -0.5885(11) -0.1179(12) 0.3072(3)
C39K C -0.6217(11) -0.0526(12) 0.3039(3)
H19K H -0.6708 -0.0471 0.3064
C40K C -0.5820(12) 0.0022(10) 0.2971(3)
H20K H -0.6040 0.0465 0.2946
C41K C -0.6337(14) -0.1826(13) 0.3138(3)
C42K C -0.3407(10) 0.2975(12) 0.3367(3)
C43K C -0.3676(11) 0.3626(12) 0.3426(4)
H21K H -0.4014 0.3846 0.3334
C44K C -0.3468(12) 0.3958(11) 0.3612(4)
H22K H -0.3679 0.4392 0.3653
C45K C -0.2950(12) 0.3664(13) 0.3740(3)
C46K C -0.2715(11) 0.2996(14) 0.3693(3)
H23K H -0.2398 0.2771 0.3791
C47K C -0.2930(11) 0.2636(11) 0.3503(4)
H24K H -0.2755 0.2179 0.3470
C48K C -0.2664(14) 0.4073(16) 0.3934(3)
Cd1K Cd -0.47234(8) 0.02062(8) 0.07834(2)
Cd1N Cd 0.47234(8) 0.47938(8) 0.07834(2)
Cd1C Cd -0.52766(8) 0.97938(8) -0.07834(2)
Cd1I Cd -0.72938(8) -0.27766(8) 0.32834(2)
Fe1K Fe -0.41462(14) 0.21316(14) 0.26236(4)
Fe1E Fe 0.03684(14) 0.83538(14) -0.01236(4)
N1K N -0.4301(7) 0.1122(8) 0.2508(2)
N2K N -0.3712(7) 0.2367(8) 0.2320(2)
N3K N -0.3474(7) 0.2895(8) 0.2751(3)
N4K N -0.4139(7) 0.1698(8) 0.2937(2)
O1K O -0.4118(16) 0.0112(14) 0.1131(4)
O2K O -0.5117(13) 0.0530(15) 0.1138(3)
O3K O -0.1967(7) 0.6081(7) 0.1823(2)
O3E O -0.3581(7) 0.0533(7) 0.0677(2)
O4K O -0.2595(11) 0.6659(9) 0.2057(3)
O4E O -0.4159(9) -0.0095(11) 0.0443(3)
O5K O -0.6043(8) -0.2373(8) 0.3204(2)
O5B O -0.1043(8) 0.7627(8) 0.1796(2)
O5H O -0.5127(8) 0.1457(8) 0.0704(2)
O6K O -0.6990(10) -0.1755(7) 0.3125(2)
O6B O -0.1990(10) 0.8245(7) 0.1875(2)
O6H O -0.5745(7) 0.0510(10) 0.0625(2)
O7K O -0.5000 0.2500 0.2609(2)
O8K O -0.2164(8) 0.3751(8) 0.4041(2)
O9K O -0.2877(9) 0.4640(10) 0.3979(3)
loop_
_geom_bond_atom_site_label_1
_geom_bond_atom_site_label_2
_geom_bond_site_symmetry_1
_geom_bond_site_symmetry_2
C1 C2 1_555 1_555
C2 C3 1_555 1_555
C3 H1 1_555 1_555
C4 C3 1_555 1_555
H2 C4 1_555 1_555
C5 C4 1_555 1_555
C6 C5 1_555 1_555
C7 C6 1_555 1_555
C8 C7 1_555 1_555
H3 C8 1_555 1_555
C9 C8 1_555 1_555
H4 C9 1_555 1_555
C10 C9 1_555 1_555
C11 C10 1_555 1_555
C12 C11 1_555 1_555
C13 C12 1_555 1_555
H5 C13 1_555 1_555
C14 C13 1_555 1_555
H6 C14 1_555 1_555
C15 C14 1_555 1_555
C16 C15 1_555 1_555
C17 C16 1_555 1_555
C18 C17 1_555 1_555
H7 C18 1_555 1_555
C19 C18 1_555 1_555
H8 C19 1_555 1_555
C20 C1 1_555 1_555
C21 C1 1_555 1_555
C22 C21 1_555 1_555
H9 C22 1_555 1_555
C23 C22 1_555 1_555
H10 C23 1_555 1_555
C24 C23 1_555 1_555
C25 C24 1_555 1_555
H11 C25 1_555 1_555
C26 C21 1_555 1_555
H12 C26 1_555 1_555
C27 C24 1_555 1_555
C28 C6 1_555 1_555
C29 C28 1_555 1_555
H13 C29 1_555 1_555
C30 C29 1_555 1_555
H14 C30 1_555 1_555
C31 C30 1_555 1_555
C32 C31 1_555 1_555
H15 C32 1_555 1_555
C33 C28 1_555 1_555
H16 C33 1_555 1_555
C34 C31 1_555 1_555
C35 C16 1_555 1_555
C36 C35 1_555 1_555
H17 C36 1_555 1_555
C37 C36 1_555 1_555
H18 C37 1_555 1_555
C38 C37 1_555 1_555
C39 C38 1_555 1_555
H19 C39 1_555 1_555
C40 C35 1_555 1_555
H20 C40 1_555 1_555
C41 C38 1_555 1_555
C42 C11 1_555 1_555
C43 C42 1_555 1_555
H21 C43 1_555 1_555
C44 C43 1_555 1_555
H22 C44 1_555 1_555
C45 C44 1_555 1_555
C46 C45 1_555 1_555
H23 C46 1_555 1_555
C47 C42 1_555 1_555
H24 C47 1_555 1_555
C48 C45 1_555 1_555
Cd1 O1 1_555 1_555
Fe1 N1 1_555 1_555
N1 C17 1_555 1_555
N2 C2 1_555 1_555
N3 C7 1_555 1_555
N4 C12 1_555 1_555
O1 C27 1_555 1_555
O2 C27 1_555 1_555
O3 C34 1_555 1_555
O4 C34 1_555 1_555
O5 C41 1_555 1_555
O6 C41 1_555 1_555
O7 Fe1 1_555 1_555
O8 C48 1_555 1_555
O9 C48 1_555 1_555
C1K C2K 1_555 1_555
C2K C3K 1_555 1_555
C3K H1K 1_555 1_555
C4K C3K 1_555 1_555
H2K C4K 1_555 1_555
C5K C4K 1_555 1_555
C6K C5K 1_555 1_555
C7K C6K 1_555 1_555
C8K C7K 1_555 1_555
H3K C8K 1_555 1_555
C9K C8K 1_555 1_555
H4K C9K 1_555 1_555
C10K C9K 1_555 1_555
C11K C10K 1_555 1_555
C12K C11K 1_555 1_555
C13K C12K 1_555 1_555
H5K C13K 1_555 1_555
C14K C13K 1_555 1_555
H6K C14K 1_555 1_555
C15K C14K 1_555 1_555
C16K C15K 1_555 1_555
C17K C16K 1_555 1_555
C18K C17K 1_555 1_555
H7K C18K 1_555 1_555
C19K C18K 1_555 1_555
H8K C19K 1_555 1_555
C20K C1K 1_555 1_555
C21K C1K 1_555 1_555
C22K C21K 1_555 1_555
H9K C22K 1_555 1_555
C23K C22K 1_555 1_555
H10K C23K 1_555 1_555
C24K C23K 1_555 1_555
C25K C24K 1_555 1_555
H11K C25K 1_555 1_555
C26K C21K 1_555 1_555
H12K C26K 1_555 1_555
C27K C24K 1_555 1_555
C28K C6K 1_555 1_555
C29K C28K 1_555 1_555
H13K C29K 1_555 1_555
C30K C29K 1_555 1_555
H14K C30K 1_555 1_555
C31K C30K 1_555 1_555
C32K C31K 1_555 1_555
H15K C32K 1_555 1_555
C33K C28K 1_555 1_555
H16K C33K 1_555 1_555
C34K C31K 1_555 1_555
C35K C16K 1_555 1_555
C36K C35K 1_555 1_555
H17K C36K 1_555 1_555
C37K C36K 1_555 1_555
H18K C37K 1_555 1_555
C38K C37K 1_555 1_555
C39K C38K 1_555 1_555
H19K C39K 1_555 1_555
C40K C35K 1_555 1_555
H20K C40K 1_555 1_555
C41K C38K 1_555 1_555
C42K C11K 1_555 1_555
C43K C42K 1_555 1_555
H21K C43K 1_555 1_555
C44K C43K 1_555 1_555
H22K C44K 1_555 1_555
C45K C44K 1_555 1_555
C46K C45K 1_555 1_555
H23K C46K 1_555 1_555
C47K C42K 1_555 1_555
H24K C47K 1_555 1_555
C48K C45K 1_555 1_555
Cd1K O1K 1_555 1_555
Cd1N O3 1_555 1_555
Cd1C O5 1_555 1_555
Cd1I O5K 1_555 1_555
Fe1K N1K 1_555 1_555
Fe1E O7 1_555 1_555
N1K C17K 1_555 1_555
N2K C2K 1_555 1_555
N3K C7K 1_555 1_555
N4K C12K 1_555 1_555
O1K C27K 1_555 1_555
O2K C27K 1_555 1_555
O3K Cd1 1_555 1_555
O3E Cd1K 1_555 1_555
O4K Cd1 1_555 1_555
O4E Cd1K 1_555 1_555
O5K C41K 1_555 1_555
O5B Cd1 1_555 1_555
O5H Cd1K 1_555 1_555
O6K C41K 1_555 1_555
O6B Cd1 1_555 1_555
O6H Cd1K 1_555 1_555
O7K Fe1K 1_555 1_555
O8K C48K 1_555 1_555
O9K C48K 1_555 1_555
C5 N2 1_555 1_555
C10 N3 1_555 1_555
C15 N4 1_555 1_555
C19 C20 1_555 1_555
C20 N1 1_555 1_555
C25 C26 1_555 1_555
C32 C33 1_555 1_555
C39 C40 1_555 1_555
C46 C47 1_555 1_555
Cd1 O2 1_555 1_555
Fe1 N2 1_555 1_555
Fe1 N3 1_555 1_555
Fe1 N4 1_555 1_555
O4 Cd1N 1_555 1_555
O6 Cd1C 1_555 1_555
C5K N2K 1_555 1_555
C10K N3K 1_555 1_555
C15K N4K 1_555 1_555
C19K C20K 1_555 1_555
C20K N1K 1_555 1_555
C25K C26K 1_555 1_555
C32K C33K 1_555 1_555
C34K O3K 1_555 1_555
C34K O4K 1_555 1_555
C39K C40K 1_555 1_555
C46K C47K 1_555 1_555
Cd1K O2K 1_555 1_555
Cd1I O6K 1_555 1_555
Fe1K N2K 1_555 1_555
Fe1K N3K 1_555 1_555
Fe1K N4K 1_555 1_555

#END
