
#######################################################################
#
#                 Cambridge Crystallographic Data Centre
#                                CCDC 
#
#######################################################################
#
# If this CIF has been generated from an entry in the Cambridge 
# Structural Database, then it will include bibliographic, chemical, 
# crystal, experimental, refinement or atomic coordinate data resulting 
# from the CCDC's data processing and validation procedures.
#
#######################################################################

data_NAYRIP
_symmetry_cell_setting           triclinic
_symmetry_space_group_name_H-M   'P 1'
_symmetry_Int_Tables_number      1
_space_group_name_Hall           'P 1'
loop_
_symmetry_equiv_pos_site_id
_symmetry_equiv_pos_as_xyz
1 x,y,z
_cell_length_a                   12.0594(2)
_cell_length_b                   12.3286(2)
_cell_length_c                   16.6189(3)
_cell_angle_alpha                81.743(1)
_cell_angle_beta                 85.883(1)
_cell_angle_gamma                83.934(1)
_cell_volume                     2427.49
loop_
_atom_site_label
_atom_site_type_symbol
_atom_site_fract_x
_atom_site_fract_y
_atom_site_fract_z
Re1 Re 0.07365(8) -1.13146(8) 0.84266(6)
Re2 Re 0.21127(9) -0.97720(7) 0.74967(6)
Re3 Re 0.30555(8) -1.13945(7) 0.87359(6)
Re4 Re 0.24108(8) -1.20505(7) 0.72632(6)
Te1 Te 0.40910(16) -1.08571(15) 0.73043(11)
Te2 Te 0.20318(17) -1.31769(14) 0.87143(11)
Te3 Te 0.15750(16) -0.97614(14) 0.90680(11)
Te4 Te 0.06215(16) -1.07331(14) 0.68391(11)
C1 C -0.045(2) -1.239(2) 0.826(2)
C2 C 0.017(3) -1.171(3) 0.9629(15)
C3 C -0.072(3) -1.026(2) 0.8432(16)
C4 C 0.089(3) -0.847(3) 0.7376(18)
C5 C 0.305(2) -0.850(2) 0.7643(15)
C6 C 0.246(3) -0.915(2) 0.6282(19)
C7 C 0.416(2) -1.0379(19) 0.9074(14)
C8 C 0.293(3) -1.185(2) 0.9979(18)
C9 C 0.445(2) -1.251(2) 0.8842(14)
C10 C 0.151(2) -1.329(2) 0.6886(16)
C11 C 0.281(2) -1.178(2) 0.6018(17)
C12 C 0.375(3) -1.330(2) 0.7180(19)
N1 N -0.110(3) -1.300(3) 0.819(2)
N2 N -0.019(2) -1.199(2) 1.0277(15)
N3 N -0.155(2) -0.972(2) 0.8398(18)
N4 N 0.028(3) -0.770(2) 0.732(2)
N5 N 0.356(3) -0.776(2) 0.7730(17)
N6 N 0.279(3) -0.876(2) 0.561(2)
N7 N 0.481(3) -0.992(2) 0.9331(17)
N8 N 0.283(3) -1.212(2) 1.0675(19)
N9 N 0.522(3) -1.314(3) 0.8944(18)
N10 N 0.109(2) -1.394(2) 0.6661(15)
N11 N 0.303(2) -1.175(2) 0.5338(15)
N12 N 0.442(2) -1.399(2) 0.7107(19)
Re5 Re 1.02162(9) -1.05228(7) 1.33849(6)
Re6 Re 1.16667(9) -0.90681(8) 1.24504(6)
Re7 Re 0.93429(8) -0.88660(7) 1.21378(6)
Re8 Re 1.00227(8) -0.82346(7) 1.36075(6)
Te5 Te 1.04727(17) -0.71529(14) 1.21499(12)
Te6 Te 0.82828(16) -0.93470(15) 1.35668(12)
Te7 Te 1.07394(16) -1.05674(14) 1.18202(11)
Te8 Te 1.17646(16) -0.96227(14) 1.40428(11)
C13 C 1.139(3) -1.1926(18) 1.3479(18)
C14 C 0.981(3) -1.117(2) 1.4591(14)
C15 C 0.916(3) -1.1736(19) 1.321(2)
C16 C 1.304(2) -1.027(2) 1.245(2)
C17 C 1.293(3) -0.811(3) 1.260(2)
C18 C 1.233(2) -0.867(2) 1.1237(19)
C19 C 0.812(3) -0.975(2) 1.1732(18)
C20 C 0.951(2) -0.841(2) 1.0834(15)
C21 C 0.796(4) -0.768(3) 1.202(2)
C22 C 1.097(2) -0.705(2) 1.3955(16)
C23 C 0.877(3) -0.693(2) 1.3671(15)
C24 C 0.962(3) -0.848(2) 1.4860(17)
N13 N 1.203(3) -1.268(2) 1.3563(15)
N14 N 0.962(2) -1.157(2) 1.5225(14)
N15 N 0.861(3) -1.239(3) 1.3211(19)
N16 N 1.384(2) -1.0926(18) 1.2485(15)
N17 N 1.368(2) -0.763(2) 1.270(2)
N18 N 1.266(3) -0.852(3) 1.059(2)
N19 N 0.748(2) -1.026(2) 1.1486(17)
N20 N 0.951(2) -0.818(2) 1.0153(13)
N21 N 0.718(3) -0.700(3) 1.195(2)
N22 N 1.140(3) -0.642(2) 1.4213(18)
N23 N 0.805(3) -0.622(3) 1.3735(18)
N24 N 0.936(4) -0.858(3) 1.5571(19)
Cu1 Cu 0.7405(3) -0.5728(2) 0.7567(2)
Cu2 Cu 0.6233(4) -1.0064(4) 1.0395(3)
Cu3 Cu 0.4700(3) -1.4787(2) 1.26447(17)
Cu4 Cu 0.1402(3) -1.5108(3) 1.5462(3)
N25 N 0.917(2) -0.525(2) 0.7725(14)
H1 H 0.9646 -0.5505 0.7343
H2 H 0.9392 -0.5549 0.8215
H3 H 0.9158 -0.4524 0.7677
N26 N 0.287(2) -1.515(2) 1.2486(18)
H4 H 0.2519 -1.4583 1.2182
H5 H 0.2507 -1.5264 1.2972
H6 H 0.2882 -1.5753 1.2242
C25 C 0.621(3) -0.584(2) 0.907(2)
H7 H 0.5520 -0.5953 0.8840
H8 H 0.6011 -0.5585 0.9598
C26 C 0.694(2) -0.689(2) 0.9187(19)
H9 H 0.7527 -0.6793 0.9542
C27 C 0.630(2) -0.7857(18) 0.9603(14)
H10 H 0.5713 -0.7953 0.9249
C28 C 0.576(3) -0.775(3) 1.044(2)
H11 H 0.6312 -0.7596 1.0796
H12 H 0.5177 -0.7142 1.0407
N27 N 0.678(3) -0.500(2) 0.8536(19)
H13 H 0.7337 -0.4785 0.8790
H14 H 0.6305 -0.4413 0.8379
N28 N 0.749(2) -0.7105(17) 0.8389(13)
H15 H 0.7148 -0.7628 0.8202
H16 H 0.8206 -0.7359 0.8455
N29 N 0.705(2) -0.8898(19) 0.9706(16)
H17 H 0.7670 -0.8794 0.9948
H18 H 0.7261 -0.9108 0.9217
N30 N 0.526(2) -0.880(2) 1.0807(15)
H19 H 0.4556 -0.8781 1.0654
H20 H 0.5241 -0.8869 1.1355
C29 C 0.555(2) -1.4358(19) 1.0970(14)
H21 H 0.4953 -1.4193 1.0596
H22 H 0.6239 -1.4538 1.0660
C30 C 0.566(2) -1.333(3) 1.1404(17)
H23 H 0.6317 -1.3472 1.1729
C31 C 0.5783(19) -1.2326(18) 1.0791(13)
H24 H 0.5281 -1.2350 1.0358
C32 C 0.692(2) -1.236(2) 1.0422(16)
H25 H 0.7071 -1.2994 1.0130
H26 H 0.7453 -1.2434 1.0843
N31 N 0.530(2) -1.5315(18) 1.1591(12)
H27 H 0.5928 -1.5771 1.1676
H28 H 0.4794 -1.5693 1.1407
N32 N 0.4619(16) -1.3283(15) 1.1971(10)
H29 H 0.3998 -1.3158 1.1688
H30 H 0.4623 -1.2750 1.2288
N33 N 0.5494(19) -1.1282(18) 1.1106(13)
H31 H 0.5716 -1.1339 1.1617
H32 H 0.4747 -1.1120 1.1121
N34 N 0.705(2) -1.133(2) 0.9852(14)
H33 H 0.6748 -1.1369 0.9378
H34 H 0.7774 -1.1229 0.9751
C33 C 0.365(3) -1.581(3) 1.5851(17)
H35 H 0.3684 -1.5491 1.6350
H36 H 0.4269 -1.6374 1.5827
C34 C 0.377(2) -1.493(2) 1.5143(14)
H37 H 0.4392 -1.4516 1.5233
C35 C 0.397(2) -1.5291(16) 1.4318(13)
H38 H 0.3315 -1.5640 1.4209
C36 C 0.500(2) -1.609(2) 1.4185(16)
H39 H 0.5635 -1.5825 1.4391
H40 H 0.4879 -1.6800 1.4495
N35 N 0.2575(19) -1.6325(17) 1.5878(14)
H41 H 0.2383 -1.6616 1.6391
H42 H 0.2645 -1.6865 1.5560
N36 N 0.2747(19) -1.4228(16) 1.5197(13)
H43 H 0.2661 -1.3787 1.4721
H44 H 0.2786 -1.3798 1.5587
N37 N 0.4069(17) -1.4273(14) 1.3676(10)
H45 H 0.4519 -1.3820 1.3841
H46 H 0.3392 -1.3902 1.3602
N38 N 0.524(2) -1.6221(15) 1.3355(12)
H47 H 0.4884 -1.6780 1.3233
H48 H 0.5975 -1.6379 1.3261
C37 C -0.082(3) -1.448(2) 1.497(2)
H49 H -0.0874 -1.4924 1.4536
H50 H -0.1412 -1.3879 1.4913
C38 C -0.0957(17) -1.5169(18) 1.5783(13)
H51 H -0.1005 -1.4680 1.6202
C39 C -0.201(2) -1.578(2) 1.5884(16)
H52 H -0.2037 -1.6186 1.5422
C40 C -0.305(2) -1.498(3) 1.592(2)
H53 H -0.3018 -1.4390 1.5466
H54 H -0.3707 -1.5353 1.5883
N39 N 0.0277(19) -1.4026(18) 1.4879(13)
H55 H 0.0220 -1.3388 1.5090
H56 H 0.0497 -1.3889 1.4348
N40 N 0.0073(19) -1.5910(17) 1.5878(12)
H57 H 0.0045 -1.6482 1.5602
H58 H 0.0137 -1.6177 1.6408
N41 N -0.2034(18) -1.6543(15) 1.6639(12)
H59 H -0.1342 -1.6870 1.6728
H60 H -0.2483 -1.7070 1.6600
N42 N -0.312(2) -1.453(2) 1.6659(16)
H61 H -0.3832 -1.4271 1.6776
H62 H -0.2692 -1.3968 1.6614
Cu1_2 Cu -0.2595(3) -1.5728(2) 1.7567(2)
N41_2 N 0.7966(18) -0.6543(15) 0.6639(12)
H59_2 H 0.8658 -0.6870 0.6728
H60_2 H 0.7517 -0.7070 0.6600
N42_2 N 0.688(2) -0.453(2) 0.6659(16)
H61_2 H 0.6168 -0.4271 0.6776
H62_2 H 0.7308 -0.3968 0.6614
O1 O 0.298(4) -1.678(3) -0.0768(16)
O2 O 0.042(4) -1.635(2) -0.077(3)
O3 O 0.619(2) -1.172(2) 0.2969(18)
O4 O 0.678(3) -0.417(3) 0.334(2)
O5 O 0.348(3) -1.549(3) 0.058(3)
O6 O 0.801(4) -1.252(4) 0.640(2)
O7 O 0.503(4) -1.240(4) 0.435(3)
O8 O 0.558(3) -0.941(4) 0.325(3)
O9 O 0.508(5) -0.910(5) 0.493(3)
loop_
_geom_bond_atom_site_label_1
_geom_bond_atom_site_label_2
_geom_bond_site_symmetry_1
_geom_bond_site_symmetry_2
Re1 Re2 1_555 1_555
Re2 Re3 1_555 1_555
Re3 Re1 1_555 1_555
Re4 Re1 1_555 1_555
Te1 Re2 1_555 1_555
Te2 Re1 1_555 1_555
Te3 Re1 1_555 1_555
Te4 Re1 1_555 1_555
C1 Re1 1_555 1_555
C2 Re1 1_555 1_555
C3 Re1 1_555 1_555
C4 Re2 1_555 1_555
C5 Re2 1_555 1_555
C6 Re2 1_555 1_555
C7 Re3 1_555 1_555
C8 Re3 1_555 1_555
C9 Re3 1_555 1_555
C10 Re4 1_555 1_555
C11 Re4 1_555 1_555
C12 Re4 1_555 1_555
N1 C1 1_555 1_555
N2 C2 1_555 1_555
N3 C3 1_555 1_555
N4 C4 1_555 1_555
N5 C5 1_555 1_555
N6 C6 1_555 1_555
N7 C7 1_555 1_555
N8 C8 1_555 1_555
N9 C9 1_555 1_555
N10 C10 1_555 1_555
N11 C11 1_555 1_555
N12 C12 1_555 1_555
Re5 Re6 1_555 1_555
Re6 Re7 1_555 1_555
Re7 Re5 1_555 1_555
Re8 Re5 1_555 1_555
Te5 Re6 1_555 1_555
Te6 Re5 1_555 1_555
Te7 Re5 1_555 1_555
Te8 Re5 1_555 1_555
C13 Re5 1_555 1_555
C14 Re5 1_555 1_555
C15 Re5 1_555 1_555
C16 Re6 1_555 1_555
C17 Re6 1_555 1_555
C18 Re6 1_555 1_555
C19 Re7 1_555 1_555
C20 Re7 1_555 1_555
C21 Re7 1_555 1_555
C22 Re8 1_555 1_555
C23 Re8 1_555 1_555
C24 Re8 1_555 1_555
N13 C13 1_555 1_555
N14 C14 1_555 1_555
N15 C15 1_555 1_555
N16 C16 1_555 1_555
N17 C17 1_555 1_555
N18 C18 1_555 1_555
N19 C19 1_555 1_555
N20 C20 1_555 1_555
N21 C21 1_555 1_555
N22 C22 1_555 1_555
N23 C23 1_555 1_555
N24 C24 1_555 1_555
Cu1 N25 1_555 1_555
Cu2 N7 1_555 1_555
Cu3 N26 1_555 1_555
Cu4 N35 1_555 1_555
N25 H1 1_555 1_555
H2 N25 1_555 1_555
H3 N25 1_555 1_555
N26 H4 1_555 1_555
H5 N26 1_555 1_555
H6 N26 1_555 1_555
C25 H7 1_555 1_555
H8 C25 1_555 1_555
C26 C25 1_555 1_555
H9 C26 1_555 1_555
C27 C26 1_555 1_555
H10 C27 1_555 1_555
C28 C27 1_555 1_555
H11 C28 1_555 1_555
H12 C28 1_555 1_555
N27 Cu1 1_555 1_555
H13 N27 1_555 1_555
H14 N27 1_555 1_555
N28 Cu1 1_555 1_555
H15 N28 1_555 1_555
H16 N28 1_555 1_555
N29 Cu2 1_555 1_555
H17 N29 1_555 1_555
H18 N29 1_555 1_555
N30 Cu2 1_555 1_555
H19 N30 1_555 1_555
H20 N30 1_555 1_555
C29 H21 1_555 1_555
H22 C29 1_555 1_555
C30 C29 1_555 1_555
H23 C30 1_555 1_555
C31 C30 1_555 1_555
H24 C31 1_555 1_555
C32 C31 1_555 1_555
H25 C32 1_555 1_555
H26 C32 1_555 1_555
N31 Cu3 1_555 1_555
H27 N31 1_555 1_555
H28 N31 1_555 1_555
N32 Cu3 1_555 1_555
H29 N32 1_555 1_555
H30 N32 1_555 1_555
N33 Cu2 1_555 1_555
H31 N33 1_555 1_555
H32 N33 1_555 1_555
N34 Cu2 1_555 1_555
H33 N34 1_555 1_555
H34 N34 1_555 1_555
C33 H35 1_555 1_555
H36 C33 1_555 1_555
C34 C33 1_555 1_555
H37 C34 1_555 1_555
C35 C34 1_555 1_555
H38 C35 1_555 1_555
C36 C35 1_555 1_555
H39 C36 1_555 1_555
H40 C36 1_555 1_555
N35 C33 1_555 1_555
H41 N35 1_555 1_555
H42 N35 1_555 1_555
N36 Cu4 1_555 1_555
H43 N36 1_555 1_555
H44 N36 1_555 1_555
N37 Cu3 1_555 1_555
H45 N37 1_555 1_555
H46 N37 1_555 1_555
N38 Cu3 1_555 1_555
H47 N38 1_555 1_555
H48 N38 1_555 1_555
C37 H49 1_555 1_555
H50 C37 1_555 1_555
C38 C37 1_555 1_555
H51 C38 1_555 1_555
C39 C38 1_555 1_555
H52 C39 1_555 1_555
C40 C39 1_555 1_555
H53 C40 1_555 1_555
H54 C40 1_555 1_555
N39 Cu4 1_555 1_555
H55 N39 1_555 1_555
H56 N39 1_555 1_555
N40 Cu4 1_555 1_555
H57 N40 1_555 1_555
H58 N40 1_555 1_555
N41 C39 1_555 1_555
H59 N41 1_555 1_555
H60 N41 1_555 1_555
N42 C40 1_555 1_555
H61 N42 1_555 1_555
H62 N42 1_555 1_555
Cu1_2 N41 1_555 1_555
N41_2 Cu1 1_555 1_555
H59_2 N41_2 1_555 1_555
H60_2 N41_2 1_555 1_555
N42_2 Cu1 1_555 1_555
H61_2 N42_2 1_555 1_555
H62_2 N42_2 1_555 1_555
Re2 Re4 1_555 1_555
Re2 Te3 1_555 1_555
Re2 Te4 1_555 1_555
Re3 Re4 1_555 1_555
Re3 Te1 1_555 1_555
Re3 Te2 1_555 1_555
Re3 Te3 1_555 1_555
Re4 Te1 1_555 1_555
Re4 Te2 1_555 1_555
Re4 Te4 1_555 1_555
Re6 Re8 1_555 1_555
Re6 Te7 1_555 1_555
Re6 Te8 1_555 1_555
Re7 Re8 1_555 1_555
Re7 Te5 1_555 1_555
Re7 Te6 1_555 1_555
Re7 Te7 1_555 1_555
Re8 Te5 1_555 1_555
Re8 Te6 1_555 1_555
Re8 Te8 1_555 1_555
N19 Cu2 1_555 1_555
C25 N27 1_555 1_555
C26 N28 1_555 1_555
C27 N29 1_555 1_555
C28 N30 1_555 1_555
C29 N31 1_555 1_555
C30 N32 1_555 1_555
C31 N33 1_555 1_555
C32 N34 1_555 1_555
C34 N36 1_555 1_555
C35 N37 1_555 1_555
C36 N38 1_555 1_555
C37 N39 1_555 1_555
C38 N40 1_555 1_555
N42 Cu1_2 1_555 1_555

#END
