
#######################################################################
#
#                 Cambridge Crystallographic Data Centre
#                                CCDC 
#
#######################################################################
#
# If this CIF has been generated from an entry in the Cambridge 
# Structural Database, then it will include bibliographic, chemical, 
# crystal, experimental, refinement or atomic coordinate data resulting 
# from the CCDC's data processing and validation procedures.
#
#######################################################################

data_NAYSOV01
_symmetry_cell_setting           orthorhombic
_symmetry_space_group_name_H-M   'P n m a'
_symmetry_Int_Tables_number      62
_space_group_name_Hall           '-P 2ac 2n'
loop_
_symmetry_equiv_pos_site_id
_symmetry_equiv_pos_as_xyz
1 x,y,z
2 1/2+x,y,1/2-z
3 x,1/2-y,z
4 1/2-x,1/2+y,1/2+z
5 -x,-y,-z
6 1/2-x,-y,1/2+z
7 -x,1/2+y,-z
8 1/2+x,1/2-y,1/2-z
_cell_length_a                   16.737(3)
_cell_length_b                   24.393(4)
_cell_length_c                   7.911(1)
_cell_angle_alpha                90
_cell_angle_beta                 90
_cell_angle_gamma                90
_cell_volume                     3229.79
loop_
_atom_site_label
_atom_site_type_symbol
_atom_site_fract_x
_atom_site_fract_y
_atom_site_fract_z
Ag1 Ag 0.91131(3) 0.7500 0.99800(6)
Ag2 Ag 1.0000 0.5000 1.0000
C1 C 0.9055(2) 0.66458(17) 0.9979(5)
N1 N 0.8397(2) 0.63483(14) 0.9916(4)
C2 C 0.7573(3) 0.6537(2) 0.9976(5)
H1 H 0.7301 0.6368 1.0940
H2 H 0.7300 0.6435 0.8928
H3 H 0.7564 0.6937 1.0103
C3 C 0.9370(3) 0.57397(16) 0.9932(5)
N2 N 0.8588(2) 0.58010(14) 0.9889(4)
C4 C 0.7976(3) 0.53801(19) 0.9785(5)
H4 H 0.7680 0.5421 0.8723
H5 H 0.7607 0.5418 1.0740
H6 H 0.8227 0.5017 0.9821
N3 N 0.9657(2) 0.62649(12) 0.9977(4)
C5 C 1.0510(3) 0.64105(19) 1.0115(5)
H7 H 1.0551 0.6819 1.0104
C6 C 1.0815(3) 0.6212(2) 1.1791(7)
H8 H 1.0477 0.6358 1.2698
H9 H 1.1366 0.6338 1.1952
H10 H 1.0801 0.5810 1.1818
C7 C 1.0962(3) 0.6194(2) 0.8602(7)
H11 H 1.0917 0.5794 0.8564
H12 H 1.1526 0.6298 0.8696
H13 H 1.0737 0.6351 0.7566
C1B C 0.9055(2) 0.83542(17) 0.9979(5)
N1B N 0.8397(2) 0.86517(14) 0.9916(4)
C2B C 0.7573(3) 0.8463(2) 0.9976(5)
H1B H 0.7301 0.8632 1.0940
H2B H 0.7300 0.8565 0.8928
H3B H 0.7564 0.8063 1.0103
C3B C 0.9370(3) 0.92603(16) 0.9932(5)
N2B N 0.8588(2) 0.91990(14) 0.9889(4)
C4B C 0.7976(3) 0.96199(19) 0.9785(5)
H4B H 0.7680 0.9579 0.8723
H5B H 0.7607 0.9582 1.0740
H6B H 0.8227 0.9983 0.9821
N3B N 0.9657(2) 0.87351(12) 0.9977(4)
C5B C 1.0510(3) 0.85895(19) 1.0115(5)
H7B H 1.0551 0.8181 1.0104
C6B C 1.0815(3) 0.8788(2) 1.1791(7)
H8B H 1.0477 0.8642 1.2698
H9B H 1.1366 0.8662 1.1952
H10B H 1.0801 0.9190 1.1818
C7B C 1.0962(3) 0.8806(2) 0.8602(7)
H11B H 1.0917 0.9206 0.8564
H12B H 1.1526 0.8702 0.8696
H13B H 1.0737 0.8649 0.7566
C3D C 1.0630(3) 0.42603(16) 1.0068(5)
Ag2B Ag 1.0000 1.0000 1.0000
S1 S 0.83165(8) 0.60225(5) 1.46622(13)
O1 O 0.7726(2) 0.57335(14) 1.3676(4)
O2 O 0.8070(2) 0.61759(15) 1.6313(4)
O3 O 0.8731(2) 0.64311(14) 1.3725(4)
C8 C 0.9062(3) 0.5504(3) 1.5052(6)
F1 F 0.9695(2) 0.57180(17) 1.5834(5)
F2 F 0.9314(3) 0.52708(18) 1.3657(4)
F3 F 0.8799(2) 0.51129(12) 1.6071(4)
N4 N 1.1870(5) 0.7500 1.2011(10)
C9 C 1.2201(6) 0.7500 1.0740(11)
C10 C 1.2599(6) 0.7500 0.9149(11)
H14 H 1.2203 0.7500 0.8238
H15 H 1.2934 0.7172 0.9058
H15B H 1.2934 0.7828 0.9058
N5 N 1.0671(8) 0.7500 0.7128(11)
C11 C 1.0343(7) 0.7500 0.5853(11)
C12 C 0.9944(5) 0.7500 0.4258(11)
H17 H 0.9618 0.7832 0.4156
H19 H 1.0340 0.7491 0.3347
H17B H 0.9618 0.7168 0.4156
H16? H 1.2934 0.7828 0.9058
H18? H 0.9599 0.7176 0.4177
loop_
_geom_bond_atom_site_label_1
_geom_bond_atom_site_label_2
_geom_bond_site_symmetry_1
_geom_bond_site_symmetry_2
Ag1 C1 1_555 1_555
Ag2 C3 1_555 1_555
C1 N1 1_555 1_555
N1 C2 1_555 1_555
C2 H1 1_555 1_555
H2 C2 1_555 1_555
H3 C2 1_555 1_555
C3 N2 1_555 1_555
N2 N1 1_555 1_555
C4 N2 1_555 1_555
H4 C4 1_555 1_555
H5 C4 1_555 1_555
H6 C4 1_555 1_555
N3 C1 1_555 1_555
C5 N3 1_555 1_555
H7 C5 1_555 1_555
C6 C5 1_555 1_555
H8 C6 1_555 1_555
H9 C6 1_555 1_555
H10 C6 1_555 1_555
C7 C5 1_555 1_555
H11 C7 1_555 1_555
H12 C7 1_555 1_555
H13 C7 1_555 1_555
S1 O1 1_555 1_555
O2 S1 1_555 1_555
O3 S1 1_555 1_555
C8 S1 1_555 1_555
F1 C8 1_555 1_555
F2 C8 1_555 1_555
F3 C8 1_555 1_555
N4 C9 1_555 1_555
C9 C10 1_555 1_555
C10 H14 1_555 1_555
H15 C10 1_555 1_555
N5 C11 1_555 1_555
C11 C12 1_555 1_555
C12 H17 1_555 1_555
H19 C12 1_555 1_555
H15B C10 1_555 1_555
H17B C12 1_555 1_555
C1B Ag1 1_555 1_555
N1B C1B 1_555 1_555
C2B N1B 1_555 1_555
H1B C2B 1_555 1_555
H2B C2B 1_555 1_555
H3B C2B 1_555 1_555
C3B N2B 1_555 1_555
N2B N1B 1_555 1_555
C4B N2B 1_555 1_555
H4B C4B 1_555 1_555
H5B C4B 1_555 1_555
H6B C4B 1_555 1_555
N3B C1B 1_555 1_555
C5B N3B 1_555 1_555
H7B C5B 1_555 1_555
C6B C5B 1_555 1_555
H8B C6B 1_555 1_555
H9B C6B 1_555 1_555
H10B C6B 1_555 1_555
C7B C5B 1_555 1_555
H11B C7B 1_555 1_555
H12B C7B 1_555 1_555
H13B C7B 1_555 1_555
C3D Ag2 1_555 1_555
Ag2B C3B 1_555 1_555
C3 N3 1_555 1_555
C3B N3B 1_555 1_555

#END
