
#######################################################################
#
#                 Cambridge Crystallographic Data Centre
#                                CCDC 
#
#######################################################################
#
# If this CIF has been generated from an entry in the Cambridge 
# Structural Database, then it will include bibliographic, chemical, 
# crystal, experimental, refinement or atomic coordinate data resulting 
# from the CCDC's data processing and validation procedures.
#
#######################################################################

data_NAYWIU
_symmetry_cell_setting           triclinic
_symmetry_space_group_name_H-M   'P -1'
_symmetry_Int_Tables_number      2
_space_group_name_Hall           '-P 1'
loop_
_symmetry_equiv_pos_site_id
_symmetry_equiv_pos_as_xyz
1 x,y,z
2 -x,-y,-z
_cell_length_a                   10.1050(10)
_cell_length_b                   11.095(2)
_cell_length_c                   12.677(2)
_cell_angle_alpha                84.697(2)
_cell_angle_beta                 79.043(2)
_cell_angle_gamma                73.712(2)
_cell_volume                     1338.21
loop_
_atom_site_label
_atom_site_type_symbol
_atom_site_fract_x
_atom_site_fract_y
_atom_site_fract_z
Ag1 Ag 0.21950(4) 0.45415(3) 0.22129(2)
P1 P 0.34817(10) 0.38525(8) 0.04594(7)
P2 P 0.06581(10) 0.37228(9) 0.36311(8)
F1 F 0.2104(7) 0.8813(5) 0.3130(5)
F2 F 0.4231(5) 0.8039(5) 0.3120(4)
F3 F 0.2782(5) 0.7814(4) 0.4492(3)
O1 O 0.2180(6) 0.6644(4) 0.2507(5)
O2 O 0.3824(8) 0.5613(7) 0.3244(7)
C1 C 0.3002(6) 0.6552(5) 0.3055(4)
C2 C 0.3024(5) 0.7819(5) 0.3448(3)
C3 C 0.4781(4) 0.2344(3) 0.0523(3)
C4 C 0.4525(5) 0.1499(4) 0.1365(4)
H1 H 0.3728 0.1721 0.1888
C5 C 0.5467(6) 0.0323(4) 0.1418(5)
H2 H 0.5302 -0.0244 0.1982
C6 C 0.6647(7) -0.0011(5) 0.0639(5)
H3 H 0.7270 -0.0805 0.0676
C7 C 0.6903(6) 0.0829(4) -0.0191(5)
H4 H 0.7703 0.0608 -0.0712
C8 C 0.5969(5) 0.2002(4) -0.0251(4)
H5 H 0.6141 0.2566 -0.0816
C9 C 0.2412(4) 0.3594(3) -0.0454(3)
C10 C 0.2912(5) 0.3437(5) -0.1541(3)
H6 H 0.3799 0.3525 -0.1830
C11 C 0.2117(5) 0.3152(5) -0.2203(4)
H7 H 0.2468 0.3048 -0.2932
C12 C 0.0799(5) 0.3021(5) -0.1784(4)
H8 H 0.0263 0.2816 -0.2225
C13 C 0.0283(5) 0.3197(5) -0.0708(4)
H9 H -0.0606 0.3111 -0.0422
C14 C 0.1078(4) 0.3501(4) -0.0046(4)
H10 H 0.0709 0.3642 0.0675
C15 C 0.4460(3) 0.4894(3) -0.0309(3)
H11 H 0.4937 0.4530 -0.0992
H12 H 0.3816 0.5696 -0.0457
C16 C -0.0550(4) 0.3099(3) 0.3111(3)
C17 C -0.1967(4) 0.3684(5) 0.3249(4)
H13 H -0.2332 0.4393 0.3660
C18 C -0.2851(6) 0.3220(5) 0.2780(5)
H14 H -0.3806 0.3612 0.2883
C19 C -0.2307(6) 0.2177(5) 0.2160(5)
H15 H -0.2894 0.1872 0.1837
C20 C -0.0890(6) 0.1587(6) 0.2018(5)
H16 H -0.0522 0.0886 0.1599
C21 C -0.0018(5) 0.2042(4) 0.2503(4)
H17 H 0.0932 0.1633 0.2419
C22 C 0.1582(4) 0.2431(4) 0.4422(3)
C23 C 0.0910(6) 0.1589(5) 0.5009(4)
H18 H -0.0011 0.1647 0.4953
C24 C 0.1595(7) 0.0665(5) 0.5676(5)
H19 H 0.1136 0.0105 0.6067
C25 C 0.2962(7) 0.0574(6) 0.5761(6)
H20 H 0.3428 -0.0049 0.6206
C26 C 0.3634(7) 0.1411(6) 0.5181(5)
H21 H 0.4553 0.1353 0.5240
C27 C 0.2948(4) 0.2340(5) 0.4509(4)
H22 H 0.3409 0.2900 0.4118
C28 C -0.0452(4) 0.4780(4) 0.4676(3)
H23 H -0.1042 0.5503 0.4344
H24 H -0.1053 0.4345 0.5155
Ag1A Ag 0.78050(4) 0.54585(3) -0.22129(2)
Ag1A_2 Ag -0.21950(4) 0.54585(3) 0.77871(2)
P1A P 0.65183(10) 0.61475(8) -0.04594(7)
P2A P -0.06581(10) 0.62772(9) 0.63689(8)
P2A_2 P 0.93419(10) 0.62772(9) -0.36311(8)
F1A F 0.7896(7) 0.1187(5) -0.3130(5)
F2A F 0.5769(5) 0.1961(5) -0.3120(4)
F3A F 0.7218(5) 0.2186(4) -0.4492(3)
O1A O 0.7820(6) 0.3356(4) -0.2507(5)
O2A O 0.6176(8) 0.4387(7) -0.3244(7)
C1A C 0.6998(6) 0.3448(5) -0.3055(4)
C2A C 0.6976(5) 0.2181(5) -0.3448(3)
C3A C 0.5219(4) 0.7656(3) -0.0523(3)
C4A C 0.5475(5) 0.8501(4) -0.1365(4)
H1A H 0.6272 0.8279 -0.1888
C5A C 0.4533(6) 0.9677(4) -0.1418(5)
H2A H 0.4698 1.0244 -0.1982
C6A C 0.3353(7) 1.0011(5) -0.0639(5)
H3A H 0.2730 1.0805 -0.0676
C7A C 0.3097(6) 0.9171(4) 0.0191(5)
H4A H 0.2297 0.9392 0.0712
C8A C 0.4031(5) 0.7998(4) 0.0251(4)
H5A H 0.3859 0.7434 0.0816
C9A C 0.7588(4) 0.6406(3) 0.0454(3)
C10A C 0.7088(5) 0.6563(5) 0.1541(3)
H6A H 0.6201 0.6475 0.1830
C11A C 0.7883(5) 0.6848(5) 0.2203(4)
H7A H 0.7532 0.6952 0.2932
C12A C 0.9201(5) 0.6979(5) 0.1784(4)
H8A H 0.9737 0.7184 0.2225
C13A C 0.9717(5) 0.6803(5) 0.0708(4)
H9A H 1.0606 0.6889 0.0422
C14A C 0.8922(4) 0.6499(4) 0.0046(4)
H10A H 0.9291 0.6358 -0.0675
C15A C 0.5540(3) 0.5106(3) 0.0309(3)
H11A H 0.5063 0.5470 0.0992
H12A H 0.6184 0.4304 0.0457
C16A C 0.0550(4) 0.6901(3) 0.6889(3)
C17A C 0.1967(4) 0.6316(5) 0.6751(4)
H13A H 0.2332 0.5607 0.6340
C18A C 0.2851(6) 0.6780(5) 0.7220(5)
H14A H 0.3806 0.6388 0.7117
C19A C 0.2307(6) 0.7823(5) 0.7840(5)
H15A H 0.2894 0.8128 0.8163
C20A C 0.0890(6) 0.8413(6) 0.7982(5)
H16A H 0.0522 0.9114 0.8401
C21A C 0.0018(5) 0.7958(4) 0.7497(4)
H17A H -0.0932 0.8367 0.7581
C22A C -0.1582(4) 0.7569(4) 0.5578(3)
C23A C -0.0910(6) 0.8411(5) 0.4991(4)
H18A H 0.0011 0.8353 0.5047
C24A C -0.1595(7) 0.9335(5) 0.4324(5)
H19A H -0.1136 0.9895 0.3933
C25A C -0.2962(7) 0.9426(6) 0.4239(6)
H20A H -0.3428 1.0049 0.3794
C26A C -0.3634(7) 0.8589(6) 0.4819(5)
H21A H -0.4553 0.8647 0.4760
C27A C -0.2948(4) 0.7660(5) 0.5491(4)
H22A H -0.3409 0.7100 0.5882
C28A C 0.0452(4) 0.5220(4) 0.5324(3)
H23A H 0.1042 0.4497 0.5656
H24A H 0.1053 0.5655 0.4845
loop_
_geom_bond_atom_site_label_1
_geom_bond_atom_site_label_2
_geom_bond_site_symmetry_1
_geom_bond_site_symmetry_2
Ag1 P1 1_555 1_555
P1 C3 1_555 1_555
P2 Ag1 1_555 1_555
F1 C2 1_555 1_555
F2 C2 1_555 1_555
F3 C2 1_555 1_555
O1 Ag1 1_555 1_555
O2 C1 1_555 1_555
C1 O1 1_555 1_555
C2 C1 1_555 1_555
C3 C4 1_555 1_555
C4 H1 1_555 1_555
C5 C4 1_555 1_555
H2 C5 1_555 1_555
C6 C5 1_555 1_555
H3 C6 1_555 1_555
C7 C6 1_555 1_555
H4 C7 1_555 1_555
C8 C3 1_555 1_555
H5 C8 1_555 1_555
C9 P1 1_555 1_555
C10 C9 1_555 1_555
H6 C10 1_555 1_555
C11 C10 1_555 1_555
H7 C11 1_555 1_555
C12 C11 1_555 1_555
H8 C12 1_555 1_555
C13 C12 1_555 1_555
H9 C13 1_555 1_555
C14 C9 1_555 1_555
H10 C14 1_555 1_555
C15 P1 1_555 1_555
H11 C15 1_555 1_555
H12 C15 1_555 1_555
C16 P2 1_555 1_555
C17 C16 1_555 1_555
H13 C17 1_555 1_555
C18 C17 1_555 1_555
H14 C18 1_555 1_555
C19 C18 1_555 1_555
H15 C19 1_555 1_555
C20 C19 1_555 1_555
H16 C20 1_555 1_555
C21 C16 1_555 1_555
H17 C21 1_555 1_555
C22 P2 1_555 1_555
C23 C22 1_555 1_555
H18 C23 1_555 1_555
C24 C23 1_555 1_555
H19 C24 1_555 1_555
C25 C24 1_555 1_555
H20 C25 1_555 1_555
C26 C25 1_555 1_555
H21 C26 1_555 1_555
C27 C22 1_555 1_555
H22 C27 1_555 1_555
C28 P2 1_555 1_555
H23 C28 1_555 1_555
H24 C28 1_555 1_555
Ag1A P1A 1_555 1_555
Ag1A_2 P2A 1_555 1_555
P1A C3A 1_555 1_555
P2A C16A 1_555 1_555
P2A_2 Ag1A 1_555 1_555
F1A C2A 1_555 1_555
F2A C2A 1_555 1_555
F3A C2A 1_555 1_555
O1A Ag1A 1_555 1_555
O2A C1A 1_555 1_555
C1A O1A 1_555 1_555
C2A C1A 1_555 1_555
C3A C4A 1_555 1_555
C4A H1A 1_555 1_555
C5A C4A 1_555 1_555
H2A C5A 1_555 1_555
C6A C5A 1_555 1_555
H3A C6A 1_555 1_555
C7A C6A 1_555 1_555
H4A C7A 1_555 1_555
C8A C3A 1_555 1_555
H5A C8A 1_555 1_555
C9A P1A 1_555 1_555
C10A C9A 1_555 1_555
H6A C10A 1_555 1_555
C11A C10A 1_555 1_555
H7A C11A 1_555 1_555
C12A C11A 1_555 1_555
H8A C12A 1_555 1_555
C13A C12A 1_555 1_555
H9A C13A 1_555 1_555
C14A C9A 1_555 1_555
H10A C14A 1_555 1_555
C15A C15 1_555 1_555
H11A C15A 1_555 1_555
H12A C15A 1_555 1_555
C16A C17A 1_555 1_555
C17A H13A 1_555 1_555
C18A C17A 1_555 1_555
H14A C18A 1_555 1_555
C19A C18A 1_555 1_555
H15A C19A 1_555 1_555
C20A C19A 1_555 1_555
H16A C20A 1_555 1_555
C21A C16A 1_555 1_555
H17A C21A 1_555 1_555
C22A P2A 1_555 1_555
C23A C22A 1_555 1_555
H18A C23A 1_555 1_555
C24A C23A 1_555 1_555
H19A C24A 1_555 1_555
C25A C24A 1_555 1_555
H20A C25A 1_555 1_555
C26A C25A 1_555 1_555
H21A C26A 1_555 1_555
C27A C22A 1_555 1_555
H22A C27A 1_555 1_555
C28A C28 1_555 1_555
H23A C28A 1_555 1_555
H24A C28A 1_555 1_555
C7 C8 1_555 1_555
C13 C14 1_555 1_555
C20 C21 1_555 1_555
C26 C27 1_555 1_555
P1A C15A 1_555 1_555
P2A C28A 1_555 1_555
C7A C8A 1_555 1_555
C13A C14A 1_555 1_555
C20A C21A 1_555 1_555
C26A C27A 1_555 1_555

#END
