
#######################################################################
#
#                 Cambridge Crystallographic Data Centre
#                                CCDC 
#
#######################################################################
#
# If this CIF has been generated from an entry in the Cambridge 
# Structural Database, then it will include bibliographic, chemical, 
# crystal, experimental, refinement or atomic coordinate data resulting 
# from the CCDC's data processing and validation procedures.
#
#######################################################################

data_NAZBAT
_symmetry_cell_setting           tetragonal
_symmetry_space_group_name_H-M   'I 41/a'
_symmetry_Int_Tables_number      88
_space_group_name_Hall           '-I 4ad'
loop_
_symmetry_equiv_pos_site_id
_symmetry_equiv_pos_as_xyz
1 x,y,z
2 3/4-y,1/4+x,1/4+z
3 1/2-x,-y,1/2+z
4 3/4+y,3/4-x,3/4+z
5 1/2+x,1/2+y,1/2+z
6 1/4-y,3/4+x,3/4+z
7 -x,1/2-y,z
8 1/4+y,1/4-x,1/4+z
9 -x,-y,-z
10 1/4+y,3/4-x,3/4-z
11 1/2+x,y,1/2-z
12 1/4-y,1/4+x,1/4-z
13 1/2-x,1/2-y,1/2-z
14 3/4+y,1/4-x,1/4-z
15 x,1/2+y,-z
16 3/4-y,3/4+x,3/4-z
_cell_length_a                   14.659(2)
_cell_length_b                   14.659(2)
_cell_length_c                   32.512(6)
_cell_angle_alpha                90
_cell_angle_beta                 90
_cell_angle_gamma                90
_cell_volume                     6986.38
loop_
_atom_site_label
_atom_site_type_symbol
_atom_site_fract_x
_atom_site_fract_y
_atom_site_fract_z
O1 O 0.4337(2) 0.1623(2) 0.08686(9)
C1 C 0.1870(3) 0.2013(3) -0.02023(11)
C2 C 0.1846(3) 0.1300(2) 0.00992(11)
C3 C 0.2467(3) 0.1354(3) 0.04389(11)
C4 C 0.3069(3) 0.2104(3) 0.04650(12)
C5 C 0.3066(4) 0.2777(3) 0.01727(14)
H1 H 0.3458 0.3272 0.0197
C6 C 0.2474(3) 0.2718(3) -0.01621(13)
H2 H 0.2491 0.3169 -0.0363
C7 C 0.1242(3) 0.0546(3) 0.00864(14)
H3 H 0.0839 0.0488 -0.0133
C8 C 0.1239(4) -0.0092(3) 0.03885(17)
H4 H 0.0836 -0.0581 0.0372
C9 C 0.1833(3) -0.0028(3) 0.07243(16)
H5 H 0.1817 -0.0464 0.0932
C10 C 0.2437(3) 0.0680(3) 0.07459(13)
H6 H 0.2835 0.0717 0.0968
C11 C 0.1209(3) 0.2081(3) -0.05606(11)
C12 C 0.3732(3) 0.2211(3) 0.08152(11)
In1 In 0.5000 0.2500 0.137109(8)
O2 O 0.0583(3) 0.1543(3) -0.06113(11)
O3 O 0.1282(2) 0.2744(2) -0.07944(9)
O4 O 0.3705(2) 0.2907(2) 0.10330(10)
O1A O 0.5877(2) 0.6837(2) 0.33686(9)
O1F O 0.5663(2) 0.3377(2) 0.08686(9)
C1A C 0.5487(3) 0.4370(3) 0.22977(11)
C2A C 0.6200(2) 0.4346(3) 0.25992(11)
C3A C 0.6146(3) 0.4967(3) 0.29389(11)
C4A C 0.5396(3) 0.5569(3) 0.29650(12)
C5A C 0.4723(3) 0.5566(4) 0.26727(14)
H1A H 0.4228 0.5958 0.2697
C6A C 0.4782(3) 0.4974(3) 0.23379(13)
H2A H 0.4331 0.4991 0.2137
C7A C 0.6954(3) 0.3742(3) 0.25864(14)
H3A H 0.7012 0.3339 0.2367
C8A C 0.7592(3) 0.3739(4) 0.28885(17)
H4A H 0.8081 0.3336 0.2872
C9A C 0.7528(3) 0.4333(3) 0.32243(16)
H5A H 0.7964 0.4317 0.3432
C10A C 0.6820(3) 0.4937(3) 0.32459(13)
H6A H 0.6783 0.5335 0.3468
C11A C 0.5419(3) 0.3709(3) 0.19394(11)
C12A C 0.5289(3) 0.6232(3) 0.33152(11)
In1C In 0.0000 0.2500 -0.112891(8)
In1A In 0.5000 0.7500 0.387109(8)
O2A O 0.5957(3) 0.3083(3) 0.18887(11)
O2G O 0.4043(3) 0.1917(3) 0.18887(11)
O3A O 0.4756(2) 0.3782(2) 0.17056(9)
O3G O 0.5244(2) 0.1218(2) 0.17056(9)
O4A O 0.4593(2) 0.6205(2) 0.35330(10)
O4F O 0.6295(2) 0.2093(2) 0.10330(10)
loop_
_geom_bond_atom_site_label_1
_geom_bond_atom_site_label_2
_geom_bond_site_symmetry_1
_geom_bond_site_symmetry_2
O1 C12 1_555 1_555
C1 C2 1_555 1_555
C2 C3 1_555 1_555
C3 C4 1_555 1_555
C4 C5 1_555 1_555
C5 H1 1_555 1_555
C6 C1 1_555 1_555
H2 C6 1_555 1_555
C7 C2 1_555 1_555
H3 C7 1_555 1_555
C8 C7 1_555 1_555
H4 C8 1_555 1_555
C9 C8 1_555 1_555
H5 C9 1_555 1_555
C10 C3 1_555 1_555
H6 C10 1_555 1_555
C11 C1 1_555 1_555
C12 C4 1_555 1_555
In1 O1 1_555 1_555
O2 C11 1_555 1_555
O3 C11 1_555 1_555
O4 C12 1_555 1_555
O1A C12A 1_555 1_555
O1F In1 1_555 1_555
C1A C2A 1_555 1_555
C2A C3A 1_555 1_555
C3A C4A 1_555 1_555
C4A C5A 1_555 1_555
C5A H1A 1_555 1_555
C6A C1A 1_555 1_555
H2A C6A 1_555 1_555
C7A C2A 1_555 1_555
H3A C7A 1_555 1_555
C8A C7A 1_555 1_555
H4A C8A 1_555 1_555
C9A C8A 1_555 1_555
H5A C9A 1_555 1_555
C10A C3A 1_555 1_555
H6A C10A 1_555 1_555
C11A C1A 1_555 1_555
C12A C4A 1_555 1_555
In1C O2 1_555 1_555
In1A O1A 1_555 1_555
O2A In1 1_555 1_555
O2G In1 1_555 1_555
O3A In1 1_555 1_555
O3G In1 1_555 1_555
O4A C12A 1_555 1_555
O4F In1 1_555 1_555
C5 C6 1_555 1_555
C9 C10 1_555 1_555
In1 O4 1_555 1_555
O3 In1C 1_555 1_555
C5A C6A 1_555 1_555
C9A C10A 1_555 1_555
C11A O2A 1_555 1_555
C11A O3A 1_555 1_555
In1A O4A 1_555 1_555

#END
