
#######################################################################
#
#                 Cambridge Crystallographic Data Centre
#                                CCDC 
#
#######################################################################
#
# If this CIF has been generated from an entry in the Cambridge 
# Structural Database, then it will include bibliographic, chemical, 
# crystal, experimental, refinement or atomic coordinate data resulting 
# from the CCDC's data processing and validation procedures.
#
#######################################################################

data_NAZHIH
_symmetry_cell_setting           monoclinic
_symmetry_space_group_name_H-M   'P 21/c'
_symmetry_Int_Tables_number      14
_space_group_name_Hall           '-P 2ybc'
loop_
_symmetry_equiv_pos_site_id
_symmetry_equiv_pos_as_xyz
1 x,y,z
2 -x,1/2+y,1/2-z
3 -x,-y,-z
4 x,1/2-y,1/2+z
_cell_length_a                   6.625(3)
_cell_length_b                   11.600(5)
_cell_length_c                   18.438(8)
_cell_angle_alpha                90
_cell_angle_beta                 99.992(7)
_cell_angle_gamma                90
_cell_volume                     1395.47
loop_
_atom_site_label
_atom_site_type_symbol
_atom_site_fract_x
_atom_site_fract_y
_atom_site_fract_z
C1 C 0.8980(4) 0.2733(2) 0.45722(14)
C2 C 1.1095(4) 0.0553(2) 0.35072(14)
C3 C 0.7423(4) 0.2164(2) 0.48418(14)
C4 C 0.9798(4) 0.1087(2) 0.40151(13)
N2 N 1.0162(3) 0.22144(18) 0.41563(11)
O1 O 1.0393(3) 0.05866(15) 0.28377(9)
O2 O 0.8995(3) -0.13746(14) 0.38760(9)
O3 O 0.6421(2) -0.11693(14) 0.45091(9)
N3 N 0.7088(3) 0.10492(17) 0.47001(11)
C5 C 0.8306(4) 0.0490(2) 0.43017(13)
C6 C 0.7907(4) -0.0791(2) 0.42098(13)
Cu1 Cu 0.5000 0.0000 0.5000
O4 O 1.2827(3) 0.01647(14) 0.38011(9)
H2 H 0.929(4) 0.353(2) 0.4691(13)
H4 H 0.661(4) 0.253(2) 0.5124(14)
C1B C 0.1020(4) -0.2733(2) 0.54278(14)
C2B C -0.1095(4) -0.0553(2) 0.64928(14)
C3B C 0.2577(4) -0.2164(2) 0.51582(14)
C4B C 0.0202(4) -0.1087(2) 0.59849(13)
N2B N -0.0162(3) -0.22144(18) 0.58437(11)
O1B O -0.0393(3) -0.05866(15) 0.71623(9)
O2B O 0.1005(3) 0.13746(14) 0.61240(9)
O3B O 0.3579(2) 0.11693(14) 0.54909(9)
N3B N 0.2912(3) -0.10492(17) 0.52999(11)
C5B C 0.1694(4) -0.0490(2) 0.56983(13)
C6B C 0.2093(4) 0.0791(2) 0.57902(13)
Cu1_2 Cu 1.5000 0.0000 0.5000
Cu1_3 Cu -0.5000 0.0000 0.5000
O4B O 0.7173(3) -0.01647(14) 0.61989(9)
O4_2 O 0.2827(3) 0.01647(14) 0.38011(9)
O4B_2 O -0.2827(3) -0.01647(14) 0.61989(9)
H2B H 0.071(4) -0.353(2) 0.5309(13)
H4B H 0.339(4) -0.253(2) 0.4876(14)
N1 N 0.1766(4) 0.7610(2) 0.28696(14)
N4 N 0.4049(3) 0.72474(18) 0.20894(12)
N5 N 0.4299(3) 0.89481(19) 0.27836(12)
C7 C 0.6621(4) 0.8664(2) 0.19853(15)
C8 C 0.3368(4) 0.7940(2) 0.25811(14)
C9 C 0.5905(4) 0.9325(2) 0.24892(14)
C10 C 0.5633(4) 0.7632(2) 0.18045(15)
H1 H 0.609(4) 0.715(2) 0.1467(14)
H3 H 0.643(4) 1.004(2) 0.2671(14)
H5 H 0.766(4) 0.887(2) 0.1763(15)
H6 H 0.125(4) 0.802(3) 0.3127(16)
H7 H 0.114(4) 0.705(3) 0.2678(16)
H14 H 0.387(5) 0.933(3) 0.3079(17)
O5 O 0.7539(3) 0.4822(2) 0.55349(12)
H8 H 0.716(5) 0.529(3) 0.5227(19)
H9 H 0.656(5) 0.456(3) 0.5616(16)
O6 O 0.6179(3) 0.6334(2) 0.43362(12)
H12 H 0.679(5) 0.607(3) 0.4088(19)
H13 H 0.640(6) 0.704(4) 0.439(2)
O7 O 0.1356(4) 0.01745(18) 0.14381(14)
H10 H 0.030(6) 0.019(3) 0.1205(19)
H11 H 0.122(6) 0.028(3) 0.184(2)
loop_
_geom_bond_atom_site_label_1
_geom_bond_atom_site_label_2
_geom_bond_site_symmetry_1
_geom_bond_site_symmetry_2
C1 C3 1_555 1_555
N1 C8 1_555 1_555
C2 C4 1_555 1_555
C3 N3 1_555 1_555
C4 N2 1_555 1_555
N2 C1 1_555 1_555
O1 C2 1_555 1_555
O2 C6 1_555 1_555
O3 C6 1_555 1_555
N3 C5 1_555 1_555
C5 C4 1_555 1_555
C6 C5 1_555 1_555
N4 C8 1_555 1_555
N5 C8 1_555 1_555
C7 C9 1_555 1_555
C9 N5 1_555 1_555
C10 N4 1_555 1_555
Cu1 O3 1_555 1_555
O4 C2 1_555 1_555
O5 H8 1_555 1_555
O6 H12 1_555 1_555
O7 H10 1_555 1_555
H1 C10 1_555 1_555
H2 C1 1_555 1_555
H3 C9 1_555 1_555
H4 C3 1_555 1_555
H5 C7 1_555 1_555
H6 N1 1_555 1_555
H7 N1 1_555 1_555
H9 O5 1_555 1_555
H11 O7 1_555 1_555
H13 O6 1_555 1_555
H14 N5 1_555 1_555
C1B C3B 1_555 1_555
C2B C4B 1_555 1_555
C3B N3B 1_555 1_555
C4B N2B 1_555 1_555
N2B C1B 1_555 1_555
O1B C2B 1_555 1_555
O2B C6B 1_555 1_555
O3B Cu1 1_555 1_555
N3B Cu1 1_555 1_555
C5B C4B 1_555 1_555
C6B O3B 1_555 1_555
Cu1_2 O4 1_555 1_555
Cu1_3 O4B_2 1_555 1_555
O4B Cu1 1_555 1_555
O4_2 Cu1 1_555 1_555
O4B_2 C2B 1_555 1_555
H2B C1B 1_555 1_555
H4B C3B 1_555 1_555
N3 Cu1 1_555 1_555
C7 C10 1_555 1_555
N3B C5B 1_555 1_555
C5B C6B 1_555 1_555

#END
