
#######################################################################
#
#                 Cambridge Crystallographic Data Centre
#                                CCDC 
#
#######################################################################
#
# If this CIF has been generated from an entry in the Cambridge 
# Structural Database, then it will include bibliographic, chemical, 
# crystal, experimental, refinement or atomic coordinate data resulting 
# from the CCDC's data processing and validation procedures.
#
#######################################################################

data_NAZHIG
_symmetry_cell_setting           orthorhombic
_symmetry_space_group_name_H-M   'I m m a'
_symmetry_Int_Tables_number      74
_space_group_name_Hall           '-I 2b 2'
loop_
_symmetry_equiv_pos_site_id
_symmetry_equiv_pos_as_xyz
1 x,y,z
2 1/2+x,1/2+y,1/2+z
3 -x,1/2-y,z
4 -x,1/2+y,-z
5 x,-y,-z
6 1/2-x,-y,1/2+z
7 1/2-x,y,1/2-z
8 1/2+x,1/2-y,1/2-z
9 -x,-y,-z
10 1/2-x,1/2-y,1/2-z
11 x,1/2+y,-z
12 x,1/2-y,z
13 -x,y,z
14 1/2+x,y,1/2-z
15 1/2+x,-y,1/2+z
16 1/2-x,1/2+y,1/2+z
_cell_length_a                   5.6677(8)
_cell_length_b                   10.8201(17)
_cell_length_c                   8.0399(14)
_cell_angle_alpha                90
_cell_angle_beta                 90
_cell_angle_gamma                90
_cell_volume                     493.048
loop_
_atom_site_label
_atom_site_type_symbol
_atom_site_fract_x
_atom_site_fract_y
_atom_site_fract_z
C1 C 0.5000 0.38064(9) -0.12948(13)
B1 B 0.5000 0.2500 -0.1374(2)
B2 B 0.5000 0.33282(11) -0.51249(15)
B3 B 0.5000 0.42591(10) -0.32277(14)
B4 B 0.25340(14) 0.42796(7) -0.05169(10)
B5 B 0.33936(14) 0.56906(7) -0.34037(10)
Li1 Li 0.5000 0.2500 0.1837(7)
C1K C 0.5000 0.11936(9) -0.12948(13)
C1M C 1.0000 0.38064(9) -0.37052(13)
C1M_2 C 0.0000 0.38064(9) -0.37052(13)
C1H C 0.5000 0.61936(9) 0.12948(13)
C1N C 0.0000 0.61936(9) -0.62948(13)
B2K B 0.5000 0.16718(11) -0.51249(15)
B2M B 0.0000 0.33282(11) 0.01249(15)
B2H B 0.5000 0.66718(11) -0.48751(15)
B2_2 B 0.5000 0.33282(11) 0.48751(15)
B2K_2 B 0.5000 0.16718(11) 0.48751(15)
B2M_2 B 1.0000 0.33282(11) 0.01249(15)
B2N B 0.0000 0.66718(11) -0.01249(15)
B2I B 0.0000 0.16718(11) 0.01249(15)
B2J B 0.5000 0.83282(11) -0.48751(15)
B3M B 0.0000 0.42591(10) -0.17723(14)
B3M_2 B 1.0000 0.42591(10) -0.17723(14)
B3K B 0.5000 0.07409(10) -0.32277(14)
B3H B 0.5000 0.57409(10) -0.67723(14)
B3N B 0.0000 0.57409(10) 0.17723(14)
B4L B 0.74660(14) 0.42796(7) -0.05169(10)
B4M B 0.75340(14) 0.42796(7) -0.44831(10)
B4F B 0.24660(14) 0.42796(7) -0.44831(10)
B4D B 0.25340(14) 0.57204(7) 0.05169(10)
B4E B 0.24660(14) 0.57204(7) -0.55169(10)
B4H B 0.74660(14) 0.57204(7) 0.05169(10)
B4K B 0.25340(14) 0.07204(7) -0.05169(10)
B4B B 0.74660(14) 0.07204(7) -0.05169(10)
B4I B 0.24660(14) 0.07204(7) -0.44831(10)
B4G B 0.75340(14) 0.07204(7) -0.44831(10)
B4N B 0.75340(14) 0.57204(7) -0.55169(10)
B4L_2 B -0.25340(14) 0.42796(7) -0.05169(10)
B5H B 0.66064(14) 0.43094(7) -0.65963(10)
B5D B 0.33936(14) 0.43094(7) -0.65963(10)
B5L B 0.66064(14) 0.56906(7) -0.34037(10)
B5E B 0.16064(14) 0.43094(7) 0.15963(10)
B5F B 0.16064(14) 0.56906(7) -0.15963(10)
B5J B 0.33936(14) 0.06906(7) 0.34037(10)
B5H_2 B 0.66064(14) 0.43094(7) 0.34037(10)
B5C B 0.66064(14) 0.06906(7) 0.34037(10)
B5D_2 B 0.33936(14) 0.43094(7) 0.34037(10)
B5M B 0.83936(14) 0.56906(7) -0.15963(10)
B5N B 0.83936(14) 0.43094(7) 0.15963(10)
B5J_2 B 0.33936(14) 0.06906(7) -0.65963(10)
B5C_2 B 0.66064(14) 0.06906(7) -0.65963(10)
B5N_2 B 0.83936(14) 0.43094(7) -0.84037(10)
B5E_2 B 0.16064(14) 0.43094(7) -0.84037(10)
B5N_3 B -0.16064(14) 0.43094(7) 0.15963(10)
B5M_2 B -0.16064(14) 0.56906(7) -0.15963(10)
Li1_2 Li 0.5000 0.2500 -0.8163(7)
Li1J Li 0.5000 0.7500 -0.1837(7)
Li1M Li 0.0000 0.2500 0.3163(7)
Li1M_2 Li 1.0000 0.2500 0.3163(7)
Li1A Li 0.0000 0.7500 -0.3163(7)
loop_
_geom_bond_atom_site_label_1
_geom_bond_atom_site_label_2
_geom_bond_site_symmetry_1
_geom_bond_site_symmetry_2
C1 B1 1_555 1_555
B1 Li1 1_555 1_555
B2 B3 1_555 1_555
B3 C1 1_555 1_555
B4 C1 1_555 1_555
B5 B3 1_555 1_555
Li1 B2_2 1_555 1_555
C1K B1 1_555 1_555
C1M B3M_2 1_555 1_555
C1M_2 B3M 1_555 1_555
C1H B4D 1_555 1_555
C1N B4E 1_555 1_555
B2K B2 1_555 1_555
B2M B4 1_555 1_555
B2H B5 1_555 1_555
B2_2 B2K_2 1_555 1_555
B2K_2 Li1 1_555 1_555
B2M_2 B3M_2 1_555 1_555
B2N B3N 1_555 1_555
B2I B2M 1_555 1_555
B2J B2H 1_555 1_555
B3M B4 1_555 1_555
B3M_2 B4L 1_555 1_555
B3K C1K 1_555 1_555
B3H B2H 1_555 1_555
B3N B4D 1_555 1_555
B4L C1 1_555 1_555
B4M B2 1_555 1_555
B4F B2 1_555 1_555
B4D B4 1_555 1_555
B4E B5 1_555 1_555
B4H C1H 1_555 1_555
B4K C1K 1_555 1_555
B4B C1K 1_555 1_555
B4I B2K 1_555 1_555
B4G B2K 1_555 1_555
B4N B2H 1_555 1_555
B4L_2 B2M 1_555 1_555
B5H B2 1_555 1_555
B5D B2 1_555 1_555
B5L B3 1_555 1_555
B5E B4 1_555 1_555
B5F B4 1_555 1_555
B5J Li1 1_555 1_555
B5H_2 Li1 1_555 1_555
B5C Li1 1_555 1_555
B5D_2 Li1 1_555 1_555
B5M B3M_2 1_555 1_555
B5N B2M_2 1_555 1_555
B5J_2 B2K 1_555 1_555
B5C_2 B2K 1_555 1_555
B5N_2 B5H 1_555 1_555
B5E_2 B5D 1_555 1_555
B5N_3 B2M 1_555 1_555
B5M_2 B2N 1_555 1_555
Li1_2 B2 1_555 1_555
Li1J B5 1_555 1_555
Li1M Li1 1_555 1_555
Li1M_2 Li1 1_555 1_555
Li1A B2N 1_555 1_555
B3 B4M 1_555 1_555
B3 B4F 1_555 1_555
B5 B4F 1_555 1_555
B5 B5L 1_555 1_555
B5 B5F 1_555 1_555
C1M B4M 1_555 1_555
C1M_2 B4F 1_555 1_555
B2K B3K 1_555 1_555
B2K Li1_2 1_555 1_555
B2M B3M 1_555 1_555
B2M B5E 1_555 1_555
B2M Li1M 1_555 1_555
B2H B4E 1_555 1_555
B2H B5L 1_555 1_555
B2H Li1J 1_555 1_555
B2_2 B5H_2 1_555 1_555
B2_2 B5D_2 1_555 1_555
B2K_2 B5J 1_555 1_555
B2K_2 B5C 1_555 1_555
B2M_2 B4L 1_555 1_555
B2M_2 Li1M_2 1_555 1_555
B2N B4D 1_555 1_555
B2N B5F 1_555 1_555
B2I B4K 1_555 1_555
B2I Li1M 1_555 1_555
B2J Li1J 1_555 1_555
B3M B4L_2 1_555 1_555
B3M B5F 1_555 1_555
B3M B5M_2 1_555 1_555
B3K B4I 1_555 1_555
B3K B4G 1_555 1_555
B3H B4E 1_555 1_555
B3H B4N 1_555 1_555
B3H B5H 1_555 1_555
B3H B5D 1_555 1_555
B3N B5E 1_555 1_555
B3N B5N_3 1_555 1_555
B4L B4H 1_555 1_555
B4L B5M 1_555 1_555
B4L B5N 1_555 1_555
B4M B4N 1_555 1_555
B4M B5H 1_555 1_555
B4M B5L 1_555 1_555
B4F B4E 1_555 1_555
B4F B5D 1_555 1_555
B4D B5E 1_555 1_555
B4D B5F 1_555 1_555
B4E B5D 1_555 1_555
B4H B5M 1_555 1_555
B4H B5N 1_555 1_555
B4I B5J_2 1_555 1_555
B4G B5C_2 1_555 1_555
B4N B5H 1_555 1_555
B4N B5L 1_555 1_555
B4L_2 B5N_3 1_555 1_555
B4L_2 B5M_2 1_555 1_555
B5H B5D 1_555 1_555
B5H Li1_2 1_555 1_555
B5D Li1_2 1_555 1_555
B5L B5M 1_555 1_555
B5L Li1J 1_555 1_555
B5E B5D_2 1_555 1_555
B5E B5N_3 1_555 1_555
B5E Li1M 1_555 1_555
B5F B5M_2 1_555 1_555
B5F Li1A 1_555 1_555
B5J B5C 1_555 1_555
B5H_2 B5D_2 1_555 1_555
B5H_2 B5N 1_555 1_555
B5N Li1M_2 1_555 1_555
B5J_2 B5C_2 1_555 1_555
B5J_2 Li1_2 1_555 1_555
B5C_2 Li1_2 1_555 1_555
B5N_3 Li1M 1_555 1_555
B5M_2 Li1A 1_555 1_555
Li1J Li1A 1_555 1_555

#END
