
#######################################################################
#
#                 Cambridge Crystallographic Data Centre
#                                CCDC 
#
#######################################################################
#
# If this CIF has been generated from an entry in the Cambridge 
# Structural Database, then it will include bibliographic, chemical, 
# crystal, experimental, refinement or atomic coordinate data resulting 
# from the CCDC's data processing and validation procedures.
#
#######################################################################

data_NAZKUW
_symmetry_cell_setting           orthorhombic
_symmetry_space_group_name_H-M   'P b c a'
_symmetry_Int_Tables_number      61
_space_group_name_Hall           '-P 2ac 2ab'
loop_
_symmetry_equiv_pos_site_id
_symmetry_equiv_pos_as_xyz
1 x,y,z
2 1/2-x,-y,1/2+z
3 1/2+x,1/2-y,-z
4 -x,1/2+y,1/2-z
5 -x,-y,-z
6 1/2+x,y,1/2-z
7 1/2-x,1/2+y,z
8 x,1/2-y,1/2+z
_cell_length_a                   17.099(2)
_cell_length_b                   25.266(3)
_cell_length_c                   8.0030(10)
_cell_angle_alpha                90
_cell_angle_beta                 90
_cell_angle_gamma                90
_cell_volume                     3457.48
loop_
_atom_site_label
_atom_site_type_symbol
_atom_site_fract_x
_atom_site_fract_y
_atom_site_fract_z
Cu1 Cu 0.13382(4) 0.16314(3) 0.32978(9)
S1 S 0.02597(9) 0.18698(7) 0.5728(2)
N1 N 0.2295(2) 0.19420(19) 0.4412(6)
N2 N 0.1729(3) 0.10126(18) 0.4479(6)
N3 N 0.0695(3) 0.10822(18) 0.1993(6)
N4 N 0.1044(3) 0.2746(2) 0.7026(7)
C1 C 0.2548(4) 0.2440(3) 0.4355(9)
H1 H 0.2260 0.2685 0.3743
C2 C 0.3219(4) 0.2612(3) 0.5161(9)
H2 H 0.3375 0.2965 0.5112
C3 C 0.3647(4) 0.2241(3) 0.6039(9)
H3 H 0.4110 0.2339 0.6565
C4 C 0.3390(4) 0.1730(3) 0.6133(9)
H4 H 0.3668 0.1481 0.6750
C5 C 0.2714(3) 0.1585(2) 0.5307(7)
C6 C 0.2368(4) 0.1048(2) 0.5276(8)
C7 C 0.1259(4) 0.0536(2) 0.4224(8)
H5 H 0.0808 0.0537 0.4960
H6 H 0.1567 0.0222 0.4446
C8 C 0.1004(4) 0.0550(3) 0.2421(9)
H7 H 0.1444 0.0467 0.1704
H8 H 0.0601 0.0286 0.2235
C9 C 0.0616(3) 0.1177(2) 0.0151(8)
H9 H 0.0348 0.1516 0.0003
C10 C 0.1418(4) 0.1225(3) -0.0665(9)
H10 H 0.1734 0.1468 -0.0037
H11 H 0.1359 0.1353 -0.1787
H12 H 0.1666 0.0884 -0.0684
C11 C 0.0122(4) 0.0755(3) -0.0691(9)
H13 H 0.0400 0.0425 -0.0691
H14 H 0.0013 0.0859 -0.1821
H15 H -0.0361 0.0714 -0.0093
C12 C 0.2763(4) 0.0598(3) 0.6160(9)
H16 H 0.2403 0.0308 0.6274
H17 H 0.2930 0.0712 0.7247
H18 H 0.3209 0.0485 0.5525
C13 C 0.0722(3) 0.2385(3) 0.6475(8)
H19 H 0.0219(19) 0.111(3) 0.245(8)
Cu1G Cu 0.13382(4) 0.33686(3) 0.82978(9)
N4G N 0.1044(3) 0.2254(2) 0.2026(7)
B1 B 0.8691(4) 0.0831(2) 0.3629(8)
F1 F 0.8841(9) 0.1259(4) 0.2708(19)
F2 F 0.9309(7) 0.0509(6) 0.368(3)
F3 F 0.8073(9) 0.0575(6) 0.305(2)
F4 F 0.8520(13) 0.0973(5) 0.5203(12)
B2? B 0.8691(4) 0.0831(2) 0.3629(8)
F5? F 0.8951(8) 0.1249(4) 0.2756(18)
F6? F 0.9161(14) 0.0759(7) 0.493(2)
F7? F 0.8716(16) 0.0406(4) 0.2641(16)
F8? F 0.7964(8) 0.0892(9) 0.411(4)
loop_
_geom_bond_atom_site_label_1
_geom_bond_atom_site_label_2
_geom_bond_site_symmetry_1
_geom_bond_site_symmetry_2
Cu1 S1 1_555 1_555
S1 C13 1_555 1_555
N1 Cu1 1_555 1_555
N2 Cu1 1_555 1_555
N3 Cu1 1_555 1_555
N4 C13 1_555 1_555
C1 N1 1_555 1_555
H1 C1 1_555 1_555
C2 C1 1_555 1_555
H2 C2 1_555 1_555
C3 C2 1_555 1_555
H3 C3 1_555 1_555
C4 C3 1_555 1_555
H4 C4 1_555 1_555
C5 N1 1_555 1_555
C6 N2 1_555 1_555
C7 N2 1_555 1_555
H5 C7 1_555 1_555
H6 C7 1_555 1_555
C8 N3 1_555 1_555
H7 C8 1_555 1_555
H8 C8 1_555 1_555
C9 N3 1_555 1_555
H9 C9 1_555 1_555
C10 C9 1_555 1_555
H10 C10 1_555 1_555
H11 C10 1_555 1_555
H12 C10 1_555 1_555
C11 C9 1_555 1_555
H13 C11 1_555 1_555
H14 C11 1_555 1_555
H15 C11 1_555 1_555
C12 C6 1_555 1_555
H16 C12 1_555 1_555
H17 C12 1_555 1_555
H18 C12 1_555 1_555
B1 F1 1_555 1_555
F2 B1 1_555 1_555
F3 B1 1_555 1_555
F4 B1 1_555 1_555
H19 N3 1_555 1_555
Cu1G N4 1_555 1_555
N4G Cu1 1_555 1_555
C4 C5 1_555 1_555
C5 C6 1_555 1_555
C7 C8 1_555 1_555

#END
