
#######################################################################
#
#                 Cambridge Crystallographic Data Centre
#                                CCDC 
#
#######################################################################
#
# If this CIF has been generated from an entry in the Cambridge 
# Structural Database, then it will include bibliographic, chemical, 
# crystal, experimental, refinement or atomic coordinate data resulting 
# from the CCDC's data processing and validation procedures.
#
#######################################################################

data_NAZNAF
_symmetry_cell_setting           triclinic
_symmetry_space_group_name_H-M   'P -1'
_symmetry_Int_Tables_number      2
_space_group_name_Hall           '-P 1'
loop_
_symmetry_equiv_pos_site_id
_symmetry_equiv_pos_as_xyz
1 x,y,z
2 -x,-y,-z
_cell_length_a                   6.9163(14)
_cell_length_b                   12.869(3)
_cell_length_c                   16.200(3)
_cell_angle_alpha                99.49(3)
_cell_angle_beta                 101.11(3)
_cell_angle_gamma                102.29(3)
_cell_volume                     1350.19
loop_
_atom_site_label
_atom_site_type_symbol
_atom_site_fract_x
_atom_site_fract_y
_atom_site_fract_z
C1 C 0.8626(15) -0.0971(8) 0.4535(6)
H1 H 0.7712 -0.1621 0.4239
C2 C 1.0595(13) -0.0724(7) 0.4412(6)
C3 C 1.1181(14) -0.1487(7) 0.3747(6)
O1 O 1.2865(13) -0.1210(6) 0.3584(6)
O2 O 0.9956(11) -0.2382(6) 0.3364(5)
Cd1 Cd 1.21489(9) -0.28140(5) 0.24940(4)
O3 O 0.9518(9) -0.2912(5) 0.1291(4)
O4 O 0.9648(9) -0.4429(5) 0.1734(4)
N1 N 1.4275(11) -0.3668(6) 0.3189(5)
N2 N 1.6698(11) -0.4490(6) 0.3517(5)
N3 N 1.7832(12) -0.6116(6) 0.3628(5)
N4 N 1.8452(14) -0.6255(8) 0.4450(6)
N5 N 1.7835(15) -0.7275(8) 0.4453(6)
N6 N 1.4307(11) -0.2094(6) 0.1732(5)
N7 N 1.6955(11) -0.1154(6) 0.1373(5)
N8 N 1.9430(11) 0.0504(6) 0.1400(5)
N9 N 1.9027(14) 0.0827(7) 0.0641(5)
N10 N 1.9574(14) 0.1900(7) 0.0814(6)
C4 C 0.8820(13) -0.3919(7) 0.1232(5)
C5 C 0.6847(13) -0.4486(7) 0.0580(5)
C6 C 0.6065(15) -0.5594(8) 0.0468(7)
H2 H 0.6810 -0.5999 0.0757
C7 C 0.5791(15) -0.3898(8) 0.0109(7)
H3 H 0.6321 -0.3158 0.0156
C8 C 1.5531(14) -0.4185(7) 0.2894(6)
H4 H 1.5607 -0.4333 0.2323
C9 C 1.4668(14) -0.3636(8) 0.4060(6)
H5 H 1.4030 -0.3313 0.4445
C10 C 1.6160(16) -0.4131(8) 0.4263(6)
H6 H 1.6671 -0.4238 0.4805
C11 C 1.8321(15) -0.5026(8) 0.3454(7)
H7 H 1.8531 -0.5069 0.2876
H8 H 1.9571 -0.4602 0.3856
C12 C 1.6797(14) -0.7087(8) 0.3101(7)
C13 C 1.5842(15) -0.7431(10) 0.2217(7)
H9 H 1.5796 -0.6936 0.1859
C14 C 1.4929(16) -0.8522(10) 0.1930(8)
H10 H 1.4298 -0.8779 0.1349
C15 C 1.4996(17) -0.9236(10) 0.2472(9)
H11 H 1.4362 -0.9963 0.2233
C16 C 1.5892(16) -0.8953(8) 0.3325(8)
H12 H 1.5900 -0.9460 0.3672
C17 C 1.6802(15) -0.7822(8) 0.3635(7)
C18 C 1.3659(14) -0.1812(8) 0.0952(6)
H13 H 1.2328 -0.1983 0.0636
C19 C 1.5267(14) -0.1240(8) 0.0735(6)
H14 H 1.5246 -0.0976 0.0234
C20 C 1.6305(13) -0.1673(7) 0.1949(6)
H15 H 1.7165 -0.1769 0.2432
C21 C 2.0213(12) 0.1377(7) 0.2064(6)
C22 C 2.0926(14) 0.1480(8) 0.2951(6)
H16 H 2.0851 0.0880 0.3202
C23 C 2.1754(16) 0.2527(9) 0.3435(7)
H17 H 2.2104 0.2592 0.4152
C24 C 2.1845(15) 0.3425(9) 0.3058(8)
H18 H 2.2470 0.4109 0.3406
C25 C 2.1127(15) 0.3332(8) 0.2189(8)
H19 H 2.1140 0.3953 0.1964
C26 C 2.0331(13) 0.2276(8) 0.1679(7)
C27 C 1.9073(14) -0.0662(7) 0.1376(6)
H20 H 1.9957 -0.0771 0.1874
H21 H 1.9390 -0.1026 0.0869
C28 C 0.8056(15) -0.0257(8) 0.5133(6)
H22 H 0.6754 -0.0441 0.5218
C1A C 1.1374(15) 0.0971(8) 0.5465(6)
H1A H 1.2288 0.1621 0.5761
C2A C 0.9405(13) 0.0724(7) 0.5588(6)
C3A C 0.8819(14) 0.1487(7) 0.6253(6)
O1A O 0.7135(13) 0.1210(6) 0.6416(6)
O2A O 1.0044(11) 0.2382(6) 0.6636(5)
Cd1A Cd 0.78511(9) 0.28140(5) 0.75060(4)
Cd1A_2 Cd -0.21489(9) -0.71860(5) -0.24940(4)
O3A O 0.0482(9) -0.7088(5) -0.1291(4)
O3A_2 O 1.0482(9) 0.2912(5) 0.8709(4)
O4A O 0.0352(9) -0.5571(5) -0.1734(4)
O4A_2 O 1.0352(9) 0.4429(5) 0.8266(4)
N1A N 0.5725(11) 0.3668(6) 0.6811(5)
N2A N 0.3302(11) 0.4490(6) 0.6483(5)
N3A N 0.2168(12) 0.6116(6) 0.6372(5)
N4A N 0.1548(14) 0.6255(8) 0.5550(6)
N5A N 0.2165(15) 0.7275(8) 0.5547(6)
N6A N 0.5693(11) 0.2094(6) 0.8268(5)
N7A N 0.3045(11) 0.1154(6) 0.8627(5)
N8A N 0.0570(11) -0.0504(6) 0.8600(5)
N9A N 0.0973(14) -0.0827(7) 0.9359(5)
N10A N 0.0426(14) -0.1900(7) 0.9186(6)
C4A C 0.1180(13) -0.6081(7) -0.1232(5)
C5A C 0.3153(13) -0.5514(7) -0.0580(5)
C6A C 0.3935(15) -0.4406(8) -0.0468(7)
H2A H 0.3190 -0.4001 -0.0757
C7A C 0.4209(15) -0.6102(8) -0.0109(7)
H3A H 0.3679 -0.6842 -0.0156
C8A C 0.4469(14) 0.4185(7) 0.7106(6)
H4A H 0.4393 0.4333 0.7677
C9A C 0.5332(14) 0.3636(8) 0.5940(6)
H5A H 0.5970 0.3313 0.5555
C10A C 0.3840(16) 0.4131(8) 0.5737(6)
H6A H 0.3329 0.4238 0.5195
C11A C 0.1679(15) 0.5026(8) 0.6546(7)
H7A H 0.1469 0.5069 0.7124
H8A H 0.0429 0.4602 0.6144
C12A C 0.3203(14) 0.7087(8) 0.6899(7)
C13A C 0.4158(15) 0.7431(10) 0.7783(7)
H9A H 0.4204 0.6936 0.8141
C14A C 0.5071(16) 0.8522(10) 0.8070(8)
H10A H 0.5702 0.8779 0.8651
C15A C 0.5004(17) 0.9236(10) 0.7528(9)
H11A H 0.5638 0.9963 0.7767
C16A C 0.4108(16) 0.8953(8) 0.6675(8)
H12A H 0.4100 0.9460 0.6328
C17A C 0.3198(15) 0.7822(8) 0.6365(7)
C18A C 0.6341(14) 0.1812(8) 0.9048(6)
H13A H 0.7672 0.1983 0.9364
C19A C 0.4733(14) 0.1240(8) 0.9265(6)
H14A H 0.4754 0.0976 0.9766
C20A C 0.3695(13) 0.1673(7) 0.8051(6)
H15A H 0.2835 0.1769 0.7568
C21A C -0.0213(12) -0.1377(7) 0.7936(6)
C22A C -0.0926(14) -0.1480(8) 0.7049(6)
H16A H -0.0851 -0.0880 0.6798
C23A C -0.1754(16) -0.2527(9) 0.6565(7)
H17A H -0.2104 -0.2592 0.5848
C24A C -0.1845(15) -0.3425(9) 0.6942(8)
H18A H -0.2470 -0.4109 0.6594
C25A C -0.1127(15) -0.3332(8) 0.7811(8)
H19A H -0.1140 -0.3953 0.8036
C26A C -0.0331(13) -0.2276(8) 0.8321(7)
C27A C 0.0927(14) 0.0662(7) 0.8624(6)
H20A H 0.0043 0.0771 0.8126
H21A H 0.0610 0.1026 0.9131
C28A C 1.1944(15) 0.0257(8) 0.4867(6)
H22A H 1.3246 0.0441 0.4782
loop_
_geom_bond_atom_site_label_1
_geom_bond_atom_site_label_2
_geom_bond_site_symmetry_1
_geom_bond_site_symmetry_2
C1 H1 1_555 1_555
C2 C1 1_555 1_555
C3 C2 1_555 1_555
O1 C3 1_555 1_555
O2 C3 1_555 1_555
Cd1 O1 1_555 1_555
O3 Cd1 1_555 1_555
O4 Cd1 1_555 1_555
N1 Cd1 1_555 1_555
N2 C8 1_555 1_555
N3 N4 1_555 1_555
N4 N5 1_555 1_555
N5 C17 1_555 1_555
N6 Cd1 1_555 1_555
N7 C19 1_555 1_555
N8 N9 1_555 1_555
N9 N10 1_555 1_555
N10 C26 1_555 1_555
C4 O3 1_555 1_555
C5 C4 1_555 1_555
C6 C5 1_555 1_555
H2 C6 1_555 1_555
C7 C5 1_555 1_555
H3 C7 1_555 1_555
C8 N1 1_555 1_555
H4 C8 1_555 1_555
C9 N1 1_555 1_555
H5 C9 1_555 1_555
C10 N2 1_555 1_555
H6 C10 1_555 1_555
C11 N2 1_555 1_555
H7 C11 1_555 1_555
H8 C11 1_555 1_555
C12 N3 1_555 1_555
C13 C12 1_555 1_555
H9 C13 1_555 1_555
C14 C13 1_555 1_555
H10 C14 1_555 1_555
C15 C14 1_555 1_555
H11 C15 1_555 1_555
C16 C15 1_555 1_555
H12 C16 1_555 1_555
C17 C12 1_555 1_555
C18 N6 1_555 1_555
H13 C18 1_555 1_555
C19 C18 1_555 1_555
H14 C19 1_555 1_555
C20 N6 1_555 1_555
H15 C20 1_555 1_555
C21 N8 1_555 1_555
C22 C21 1_555 1_555
H16 C22 1_555 1_555
C23 C22 1_555 1_555
H17 C23 1_555 1_555
C24 C23 1_555 1_555
H18 C24 1_555 1_555
C25 C24 1_555 1_555
H19 C25 1_555 1_555
C26 C21 1_555 1_555
C27 N7 1_555 1_555
H20 C27 1_555 1_555
H21 C27 1_555 1_555
C28 C1 1_555 1_555
H22 C28 1_555 1_555
C1A H1A 1_555 1_555
C2A C28 1_555 1_555
C3A C2A 1_555 1_555
O1A C3A 1_555 1_555
O2A C3A 1_555 1_555
Cd1A O1A 1_555 1_555
Cd1A_2 O3A 1_555 1_555
O3A C4A 1_555 1_555
O3A_2 Cd1A 1_555 1_555
O4A Cd1A_2 1_555 1_555
O4A_2 Cd1A 1_555 1_555
N1A Cd1A 1_555 1_555
N2A C8A 1_555 1_555
N3A N4A 1_555 1_555
N4A N5A 1_555 1_555
N5A C17A 1_555 1_555
N6A Cd1A 1_555 1_555
N7A C19A 1_555 1_555
N8A N9A 1_555 1_555
N9A N10A 1_555 1_555
N10A C26A 1_555 1_555
C4A O4A 1_555 1_555
C5A C4A 1_555 1_555
C6A C7 1_555 1_555
H2A C6A 1_555 1_555
C7A C6 1_555 1_555
H3A C7A 1_555 1_555
C8A N1A 1_555 1_555
H4A C8A 1_555 1_555
C9A N1A 1_555 1_555
H5A C9A 1_555 1_555
C10A N2A 1_555 1_555
H6A C10A 1_555 1_555
C11A N2A 1_555 1_555
H7A C11A 1_555 1_555
H8A C11A 1_555 1_555
C12A N3A 1_555 1_555
C13A C12A 1_555 1_555
H9A C13A 1_555 1_555
C14A C13A 1_555 1_555
H10A C14A 1_555 1_555
C15A C14A 1_555 1_555
H11A C15A 1_555 1_555
C16A C15A 1_555 1_555
H12A C16A 1_555 1_555
C17A C12A 1_555 1_555
C18A N6A 1_555 1_555
H13A C18A 1_555 1_555
C19A C18A 1_555 1_555
H14A C19A 1_555 1_555
C20A N6A 1_555 1_555
H15A C20A 1_555 1_555
C21A N8A 1_555 1_555
C22A C21A 1_555 1_555
H16A C22A 1_555 1_555
C23A C22A 1_555 1_555
H17A C23A 1_555 1_555
C24A C23A 1_555 1_555
H18A C24A 1_555 1_555
C25A C24A 1_555 1_555
H19A C25A 1_555 1_555
C26A C21A 1_555 1_555
C27A N7A 1_555 1_555
H20A C27A 1_555 1_555
H21A C27A 1_555 1_555
C28A C2 1_555 1_555
H22A C28A 1_555 1_555
O2 Cd1 1_555 1_555
O4 C4 1_555 1_555
N3 C11 1_555 1_555
N7 C20 1_555 1_555
N8 C27 1_555 1_555
C9 C10 1_555 1_555
C16 C17 1_555 1_555
C25 C26 1_555 1_555
C1A C2A 1_555 1_555
C1A C28A 1_555 1_555
O2A Cd1A 1_555 1_555
N3A C11A 1_555 1_555
N7A C20A 1_555 1_555
N8A C27A 1_555 1_555
C5A C6A 1_555 1_555
C5A C7A 1_555 1_555
C9A C10A 1_555 1_555
C16A C17A 1_555 1_555
C25A C26A 1_555 1_555

#END
