
#######################################################################
#
#                 Cambridge Crystallographic Data Centre
#                                CCDC 
#
#######################################################################
#
# If this CIF has been generated from an entry in the Cambridge 
# Structural Database, then it will include bibliographic, chemical, 
# crystal, experimental, refinement or atomic coordinate data resulting 
# from the CCDC's data processing and validation procedures.
#
#######################################################################

data_NAZNEJ
_symmetry_cell_setting           monoclinic
_symmetry_space_group_name_H-M   'C 2/c'
_symmetry_Int_Tables_number      15
_space_group_name_Hall           '-C 2yn'
loop_
_symmetry_equiv_pos_site_id
_symmetry_equiv_pos_as_xyz
1 x,y,z
2 -x,y,1/2-z
3 1/2+x,1/2+y,z
4 1/2-x,1/2+y,1/2-z
5 -x,-y,-z
6 x,-y,1/2+z
7 1/2-x,1/2-y,-z
8 1/2+x,1/2-y,1/2+z
_cell_length_a                   24.991(5)
_cell_length_b                   6.9693(14)
_cell_length_c                   18.575(4)
_cell_angle_alpha                90
_cell_angle_beta                 121.77(3)
_cell_angle_gamma                90
_cell_volume                     2750.47
loop_
_atom_site_label
_atom_site_type_symbol
_atom_site_fract_x
_atom_site_fract_y
_atom_site_fract_z
Zn1 Zn 0.0000 1.08859(11) 0.7500
O1 O -0.0510(3) 1.3320(8) 0.6421(3)
O2 O 0.0282(2) 1.1654(9) 0.6671(3)
N1 N 0.3124(2) 0.4919(7) 0.8956(4)
N2 N 0.2678(2) 0.4775(7) 0.9108(3)
N3 N 0.21134(19) 0.4800(6) 0.8357(3)
N4 N 0.13097(18) 0.6431(6) 0.8455(3)
N5 N 0.07152(18) 0.8979(6) 0.8159(2)
C1 C 0.2858(3) 0.5016(8) 0.8095(4)
C2 C 0.3133(4) 0.5128(9) 0.7608(6)
H1 H 0.3567 0.5150 0.7855
C3 C 0.2733(5) 0.5169(8) 0.6755(7)
H2 H 0.2902 0.5232 0.6414
C4 C 0.2078(4) 0.5139(9) 0.6371(5)
H3 H 0.1823 0.5190 0.5784
C5 C 0.1805(3) 0.5029(8) 0.6837(4)
H4 H 0.1370 0.5009 0.6584
C6 C 0.2209(2) 0.4958(7) 0.7706(3)
C7 C 0.1541(2) 0.4585(7) 0.8357(4)
H5 H 0.1621 0.3748 0.8821
H6 H 0.1222 0.3986 0.7833
C8 C 0.1547(2) 0.7465(7) 0.9190(3)
H7 H 0.1896 0.7154 0.9716
C9 C 0.1182(2) 0.9015(7) 0.9004(3)
H8 H 0.1232 0.9961 0.9389
C10 C 0.0810(2) 0.7394(8) 0.7854(3)
H9 H 0.0565 0.6995 0.7294
C11 C -0.0092(3) 1.2904(9) 0.6281(4)
C12 C -0.0045(2) 1.3954(8) 0.5607(3)
C13 C -0.0295(3) 1.5770(8) 0.5378(3)
H10 H -0.0498 1.6298 0.5626
C14 C 0.0251(3) 1.3194(8) 0.5221(3)
H11 H 0.0420 1.1965 0.5363
Zn1D Zn 0.0000 1.91141(11) 0.2500
O1D O 0.0510(3) 1.6680(8) 0.3579(3)
O1A O 0.0510(3) 1.3320(8) 0.8579(3)
O2D O -0.0282(2) 1.8346(9) 0.3329(3)
O2A O -0.0282(2) 1.1654(9) 0.8329(3)
N1A N -0.3124(2) 0.4919(7) 0.6044(4)
N2A N -0.2678(2) 0.4775(7) 0.5892(3)
N3A N -0.21134(19) 0.4800(6) 0.6643(3)
N4A N -0.13097(18) 0.6431(6) 0.6545(3)
N5A N -0.07152(18) 0.8979(6) 0.6841(2)
C1A C -0.2858(3) 0.5016(8) 0.6905(4)
C2A C -0.3133(4) 0.5128(9) 0.7392(6)
H1A H -0.3567 0.5150 0.7145
C3A C -0.2733(5) 0.5169(8) 0.8245(7)
H2A H -0.2902 0.5232 0.8586
C4A C -0.2078(4) 0.5139(9) 0.8629(5)
H3A H -0.1823 0.5190 0.9216
C5A C -0.1805(3) 0.5029(8) 0.8163(4)
H4A H -0.1370 0.5009 0.8416
C6A C -0.2209(2) 0.4958(7) 0.7294(3)
C7A C -0.1541(2) 0.4585(7) 0.6643(4)
H5A H -0.1621 0.3748 0.6179
H6A H -0.1222 0.3986 0.7167
C8A C -0.1547(2) 0.7465(7) 0.5810(3)
H7A H -0.1896 0.7154 0.5284
C9A C -0.1182(2) 0.9015(7) 0.5996(3)
H8A H -0.1232 0.9961 0.5611
C10A C -0.0810(2) 0.7394(8) 0.7146(3)
H9A H -0.0565 0.6995 0.7706
C11D C 0.0092(3) 1.7096(9) 0.3719(4)
C12D C 0.0045(2) 1.6046(8) 0.4393(3)
C13D C 0.0295(3) 1.4230(8) 0.4622(3)
H10D H 0.0498 1.3702 0.4374
C14D C -0.0251(3) 1.6806(8) 0.4779(3)
H11D H -0.0420 1.8035 0.4637
loop_
_geom_bond_atom_site_label_1
_geom_bond_atom_site_label_2
_geom_bond_site_symmetry_1
_geom_bond_site_symmetry_2
Zn1 O1 1_555 1_555
O1 C11 1_555 1_555
O2 Zn1 1_555 1_555
N1 N2 1_555 1_555
N2 N3 1_555 1_555
N3 C6 1_555 1_555
N4 C7 1_555 1_555
N5 Zn1 1_555 1_555
C1 N1 1_555 1_555
C2 C1 1_555 1_555
H1 C2 1_555 1_555
C3 C2 1_555 1_555
H2 C3 1_555 1_555
C4 C3 1_555 1_555
H3 C4 1_555 1_555
C5 C4 1_555 1_555
H4 C5 1_555 1_555
C6 C1 1_555 1_555
C7 N3 1_555 1_555
H5 C7 1_555 1_555
H6 C7 1_555 1_555
C8 N4 1_555 1_555
H7 C8 1_555 1_555
C9 N5 1_555 1_555
H8 C9 1_555 1_555
C10 N4 1_555 1_555
H9 C10 1_555 1_555
C11 O2 1_555 1_555
C12 C11 1_555 1_555
C13 C12 1_555 1_555
H10 C13 1_555 1_555
C14 C12 1_555 1_555
H11 C14 1_555 1_555
Zn1D O1D 1_555 1_555
O1D C11D 1_555 1_555
O1A Zn1 1_555 1_555
O2D Zn1D 1_555 1_555
O2A Zn1 1_555 1_555
N1A N2A 1_555 1_555
N2A N3A 1_555 1_555
N3A C6A 1_555 1_555
N4A C7A 1_555 1_555
N5A Zn1 1_555 1_555
C1A N1A 1_555 1_555
C2A C1A 1_555 1_555
H1A C2A 1_555 1_555
C3A C2A 1_555 1_555
H2A C3A 1_555 1_555
C4A C3A 1_555 1_555
H3A C4A 1_555 1_555
C5A C4A 1_555 1_555
H4A C5A 1_555 1_555
C6A C1A 1_555 1_555
C7A N3A 1_555 1_555
H5A C7A 1_555 1_555
H6A C7A 1_555 1_555
C8A N4A 1_555 1_555
H7A C8A 1_555 1_555
C9A N5A 1_555 1_555
H8A C9A 1_555 1_555
C10A N4A 1_555 1_555
H9A C10A 1_555 1_555
C11D O2D 1_555 1_555
C12D C11D 1_555 1_555
C13D C14 1_555 1_555
H10D C13D 1_555 1_555
C14D C13 1_555 1_555
H11D C14D 1_555 1_555
N5 C10 1_555 1_555
C5 C6 1_555 1_555
C8 C9 1_555 1_555
N5A C10A 1_555 1_555
C5A C6A 1_555 1_555
C8A C9A 1_555 1_555
C12D C13D 1_555 1_555
C12D C14D 1_555 1_555

#END
