
#######################################################################
#
#                 Cambridge Crystallographic Data Centre
#                                CCDC 
#
#######################################################################
#
# If this CIF has been generated from an entry in the Cambridge 
# Structural Database, then it will include bibliographic, chemical, 
# crystal, experimental, refinement or atomic coordinate data resulting 
# from the CCDC's data processing and validation procedures.
#
#######################################################################

data_NAZPIP
_symmetry_cell_setting           triclinic
_symmetry_space_group_name_H-M   'P -1'
_symmetry_Int_Tables_number      2
_space_group_name_Hall           '-P 1'
loop_
_symmetry_equiv_pos_site_id
_symmetry_equiv_pos_as_xyz
1 x,y,z
2 -x,-y,-z
_cell_length_a                   12.497(6)
_cell_length_b                   13.554(6)
_cell_length_c                   13.746(6)
_cell_angle_alpha                107.963(6)
_cell_angle_beta                 96.472(6)
_cell_angle_gamma                97.298(6)
_cell_volume                     2168.27
loop_
_atom_site_label
_atom_site_type_symbol
_atom_site_fract_x
_atom_site_fract_y
_atom_site_fract_z
Mn1 Mn 0.75007(7) 0.71545(8) 0.78325(8)
Mn2 Mn 1.25139(8) 0.80139(8) 0.70118(8)
O1 O 1.2132(4) 1.0576(4) 0.8477(5)
O2 O 1.0689(4) 1.1061(4) 0.9168(4)
O3 O 0.8776(4) 1.0414(4) 0.9119(4)
O4 O 0.7646(4) 0.8892(4) 0.8486(4)
O5 O 0.7373(4) 0.6531(4) 0.6131(4)
O6 O 0.6266(4) 0.5917(4) 0.4623(4)
O7 O 0.4362(4) 0.5857(4) 0.3995(4)
O8 O 0.2920(4) 0.6555(5) 0.4514(4)
O9 O 1.3340(4) 0.9584(4) 0.7158(4)
H1 H 1.2948 1.0043 0.7279
H2 H 1.3913 0.9800 0.6971
O10 O 1.1719(5) 0.7851(5) 0.5457(4)
H3 H 1.1472 0.8169 0.5174
H4 H 1.2122 0.7421 0.5145
O11 O 0.7868(4) 0.7233(4) 0.9441(4)
H5 H 0.7541 0.6869 0.9737
H6 H 0.8273 0.7760 0.9870
O12 O 0.7125(3) 0.5513(3) 0.7702(3)
H7 H 0.6691 0.5108 0.7188
H8 H 0.7408 0.5181 0.8047
N1 N 1.1021(4) 0.8396(4) 0.7716(4)
N2 N 0.9273(4) 0.7802(4) 0.7804(4)
N3 N 1.1437(4) 0.6450(4) 0.6751(4)
N4 N 0.4006(4) 0.7294(4) 0.6611(4)
N5 N 0.5744(4) 0.7187(4) 0.7209(4)
N6 N 0.3580(4) 0.8259(5) 0.8554(4)
C1 C 1.0556(5) 0.9268(5) 0.8219(5)
C2 C 0.9489(5) 0.8881(5) 0.8258(5)
C3 C 1.1176(6) 1.0346(6) 0.8619(5)
C4 C 0.8559(6) 0.9419(5) 0.8649(5)
C5 C 1.0229(5) 0.7567(5) 0.7507(5)
C6 C 1.0426(5) 0.6502(6) 0.6989(5)
C7 C 0.9637(6) 0.5597(6) 0.6730(6)
H9 H 0.8935 0.5643 0.6883
C8 C 0.9912(7) 0.4647(7) 0.6249(7)
H10 H 0.9397 0.4038 0.6087
C9 C 1.0931(7) 0.4574(6) 0.6001(7)
H11 H 1.1118 0.3925 0.5669
C10 C 1.1671(7) 0.5482(6) 0.6255(6)
H12 H 1.2366 0.5439 0.6083
C11 C 0.5552(5) 0.6751(5) 0.6145(5)
C12 C 0.4469(5) 0.6811(5) 0.5779(5)
C13 C 0.6449(6) 0.6379(6) 0.5606(6)
C14 C 0.3845(6) 0.6399(6) 0.4706(6)
C15 C 0.4801(4) 0.7503(4) 0.7452(5)
C16 C 0.4578(5) 0.8006(5) 0.8515(5)
C17 C 0.5343(6) 0.8231(6) 0.9386(5)
H13 H 0.6027 0.8036 0.9336
C18 C 0.5082(7) 0.8744(7) 1.0320(6)
H14 H 0.5600 0.8924 1.0916
C19 C 0.4053(6) 0.9000(7) 1.0391(6)
H15 H 0.3856 0.9331 1.1029
C20 C 0.3348(6) 0.8756(7) 0.9510(6)
H16 H 0.2657 0.8936 0.9553
Mn2_2 Mn 0.25139(8) 0.80139(8) 0.70118(8)
N4_2 N 1.4006(4) 0.7294(4) 0.6611(4)
N6_2 N 1.3580(4) 0.8259(5) 0.8554(4)
O13 O 0.6086(3) 0.9952(3) 0.4499(3)
N7 N 0.6345(3) 1.0421(3) 0.6214(3)
C21 C 0.6222(3) 0.9602(3) 0.6533(3)
H17 H 0.6892 0.9587 0.6941
H18 H 0.6035 0.8970 0.5944
H19 H 0.5649 0.9649 0.6946
C22 C 0.6433(3) 1.0542(3) 0.5260(3)
H20 H 0.6816 1.1178 0.5261
C23 C 0.6954(3) 1.1220(3) 0.7046(3)
H21 H 0.7185 1.0944 0.7584
H22 H 0.6518 1.1750 0.7301
H23 H 0.7584 1.1526 0.6833
N8 N 0.9139(3) 0.3617(3) 0.9313(3)
C24 C 0.8380(3) 0.3973(3) 0.8847(3)
H24 H 0.8380 0.3704 0.8137
C25 C 0.9276(3) 0.3374(3) 1.0333(3)
H25 H 0.9463 0.4021 1.0904
H26 H 0.9848 0.2964 1.0341
H27 H 0.8604 0.2985 1.0393
O14 O 0.7842(3) 0.4391(3) 0.8952(3)
C26 C 0.9895(3) 0.3180(3) 0.8604(3)
H28 H 0.9497 0.2601 0.8027
H29 H 1.0453 0.2939 0.8968
H30 H 1.0227 0.3716 0.8358
N9 N 0.1403(3) 0.1388(3) 0.5560(3)
O15 O 0.0969(3) -0.0399(3) 0.4921(3)
C27 C 0.1126(3) 0.1389(3) 0.4481(3)
H31 H 0.0617 0.1860 0.4460
H32 H 0.0802 0.0691 0.4038
H33 H 0.1778 0.1617 0.4246
C28 C 0.2087(3) 0.2177(3) 0.6303(3)
H34 H 0.1852 0.2258 0.6960
H35 H 0.2082 0.2820 0.6146
H36 H 0.2813 0.2016 0.6331
C29 C 0.1488(3) 0.0332(3) 0.5615(3)
H37 H 0.1923 0.0239 0.6164
O16? O 0.7038(3) 0.6029(3) 1.0502(3)
N10? N 0.5871(3) 0.5713(3) 1.1433(3)
C30? C 0.5859(3) 0.4863(3) 1.1733(3)
H38? H 0.5677 0.5023 1.2418
H39? H 0.6568 0.4660 1.1734
H40? H 0.5325 0.4295 1.1262
C31? C 0.6479(3) 0.6133(3) 1.0844(3)
H41? H 0.6218 0.6726 1.0780
C32? C 0.5024(3) 0.6380(3) 1.1822(3)
H42? H 0.4471 0.5975 1.2041
H43? H 0.4695 0.6600 1.1276
H44? H 0.5370 0.6989 1.2397
loop_
_geom_bond_atom_site_label_1
_geom_bond_atom_site_label_2
_geom_bond_site_symmetry_1
_geom_bond_site_symmetry_2
Mn1 O4 1_555 1_555
Mn2 O9 1_555 1_555
O1 C3 1_555 1_555
O2 C3 1_555 1_555
O3 C4 1_555 1_555
O4 C4 1_555 1_555
O5 Mn1 1_555 1_555
O6 C13 1_555 1_555
O7 C14 1_555 1_555
O8 C14 1_555 1_555
O9 H1 1_555 1_555
H2 O9 1_555 1_555
O10 Mn2 1_555 1_555
H3 O10 1_555 1_555
H4 O10 1_555 1_555
O11 Mn1 1_555 1_555
H5 O11 1_555 1_555
H6 O11 1_555 1_555
O12 Mn1 1_555 1_555
H7 O12 1_555 1_555
H8 O12 1_555 1_555
N1 Mn2 1_555 1_555
N2 Mn1 1_555 1_555
N3 Mn2 1_555 1_555
N4 C12 1_555 1_555
N5 Mn1 1_555 1_555
N6 C16 1_555 1_555
C1 N1 1_555 1_555
C2 N2 1_555 1_555
C3 C1 1_555 1_555
C4 C2 1_555 1_555
C5 N1 1_555 1_555
C6 N3 1_555 1_555
C7 C6 1_555 1_555
H9 C7 1_555 1_555
C8 C7 1_555 1_555
H10 C8 1_555 1_555
C9 C8 1_555 1_555
H11 C9 1_555 1_555
C10 N3 1_555 1_555
H12 C10 1_555 1_555
C11 N5 1_555 1_555
C12 C11 1_555 1_555
C13 O5 1_555 1_555
C14 C12 1_555 1_555
C15 N4 1_555 1_555
C16 C15 1_555 1_555
C17 C16 1_555 1_555
H13 C17 1_555 1_555
C18 C17 1_555 1_555
H14 C18 1_555 1_555
C19 C18 1_555 1_555
H15 C19 1_555 1_555
C20 N6 1_555 1_555
H16 C20 1_555 1_555
O13 C22 1_555 1_555
N7 C21 1_555 1_555
C21 H17 1_555 1_555
H18 C21 1_555 1_555
H19 C21 1_555 1_555
C22 N7 1_555 1_555
H20 C22 1_555 1_555
C23 N7 1_555 1_555
H21 C23 1_555 1_555
H22 C23 1_555 1_555
H23 C23 1_555 1_555
N8 C24 1_555 1_555
C24 H24 1_555 1_555
C25 N8 1_555 1_555
H25 C25 1_555 1_555
H26 C25 1_555 1_555
H27 C25 1_555 1_555
O14 C24 1_555 1_555
C26 N8 1_555 1_555
H28 C26 1_555 1_555
H29 C26 1_555 1_555
H30 C26 1_555 1_555
N9 C27 1_555 1_555
O15 C29 1_555 1_555
C27 H31 1_555 1_555
H32 C27 1_555 1_555
H33 C27 1_555 1_555
C28 N9 1_555 1_555
H34 C28 1_555 1_555
H35 C28 1_555 1_555
H36 C28 1_555 1_555
C29 N9 1_555 1_555
H37 C29 1_555 1_555
Mn2_2 N4 1_555 1_555
N4_2 Mn2 1_555 1_555
N6_2 Mn2 1_555 1_555
N2 C5 1_555 1_555
N5 C15 1_555 1_555
N6 Mn2_2 1_555 1_555
C1 C2 1_555 1_555
C5 C6 1_555 1_555
C9 C10 1_555 1_555
C11 C13 1_555 1_555
C19 C20 1_555 1_555

#END
