
#######################################################################
#
#                 Cambridge Crystallographic Data Centre
#                                CCDC 
#
#######################################################################
#
# If this CIF has been generated from an entry in the Cambridge 
# Structural Database, then it will include bibliographic, chemical, 
# crystal, experimental, refinement or atomic coordinate data resulting 
# from the CCDC's data processing and validation procedures.
#
#######################################################################

data_NAZRAJ
_symmetry_cell_setting           orthorhombic
_symmetry_space_group_name_H-M   'P n m a'
_symmetry_Int_Tables_number      62
_space_group_name_Hall           '-P 2ac 2n'
loop_
_symmetry_equiv_pos_site_id
_symmetry_equiv_pos_as_xyz
1 x,y,z
2 1/2-x,-y,1/2+z
3 -x,1/2+y,-z
4 1/2+x,1/2-y,1/2-z
5 -x,-y,-z
6 1/2+x,y,1/2-z
7 x,1/2-y,z
8 1/2-x,1/2+y,1/2+z
_cell_length_a                   10.640(2)
_cell_length_b                   16.377(3)
_cell_length_c                   10.504(2)
_cell_angle_alpha                90
_cell_angle_beta                 90
_cell_angle_gamma                90
_cell_volume                     1830.34
loop_
_atom_site_label
_atom_site_type_symbol
_atom_site_fract_x
_atom_site_fract_y
_atom_site_fract_z
Hg1 Hg -0.08957(4) 0.2500 0.03782(5)
I1 I -0.17335(11) 0.2500 -0.20122(11)
I2 I -0.18071(13) 0.2500 0.27272(13)
C1 C 0.1162(8) 0.3968(6) -0.0528(8)
H1 H 0.1217 0.3768 -0.1355
N1 N 0.0522(7) 0.3613(5) 0.0409(6)
C2 C 0.0732(7) 0.4125(6) 0.1393(8)
H2 H 0.0403 0.4033 0.2201
N2 N 0.1703(6) 0.4640(4) -0.0124(7)
N3 N 0.1429(7) 0.4756(5) 0.1130(7)
N4 N 0.3829(6) 0.5190(4) -0.0544(6)
C3 C 0.4176(8) 0.5519(7) 0.0692(10)
H3 H 0.3878 0.5159 0.1360
H4 H 0.3787 0.6049 0.0810
C4 C 0.4408(7) 0.4399(6) -0.0773(9)
H5 H 0.4172 0.4201 -0.1609
H6 H 0.4117 0.4009 -0.0144
C5 C 0.2525(7) 0.5226(6) -0.0822(9)
H7 H 0.2416 0.5134 -0.1728
H8 H 0.2232 0.5775 -0.0641
Hg1B Hg 1.08957(4) 0.7500 -0.03782(5)
C1D C 0.8838(8) 0.6032(6) 0.0528(8)
H1D H 0.8783 0.6232 0.1355
N1D N 0.9478(7) 0.6387(5) -0.0409(6)
N1F N 0.0522(7) 0.1387(5) 0.0409(6)
C2D C 0.9268(7) 0.5875(6) -0.1393(8)
H2D H 0.9597 0.5967 -0.2201
N2D N 0.8297(6) 0.5360(4) 0.0124(7)
N3D N 0.8571(7) 0.5244(5) -0.1130(7)
N4D N 0.6171(6) 0.4810(4) 0.0544(6)
C3D C 0.5824(8) 0.4481(7) -0.0692(10)
H3D H 0.6122 0.4841 -0.1360
H4D H 0.6213 0.3951 -0.0810
C4D C 0.5592(7) 0.5601(6) 0.0773(9)
H5D H 0.5828 0.5799 0.1609
H6D H 0.5883 0.5991 0.0144
C5D C 0.7475(7) 0.4774(6) 0.0822(9)
H7D H 0.7584 0.4866 0.1728
H8D H 0.7768 0.4225 0.0641
loop_
_geom_bond_atom_site_label_1
_geom_bond_atom_site_label_2
_geom_bond_site_symmetry_1
_geom_bond_site_symmetry_2
Hg1 I1 1_555 1_555
I2 Hg1 1_555 1_555
C1 H1 1_555 1_555
N1 Hg1 1_555 1_555
C2 N1 1_555 1_555
H2 C2 1_555 1_555
N2 C1 1_555 1_555
N3 C2 1_555 1_555
N4 C3 1_555 1_555
C3 H3 1_555 1_555
H4 C3 1_555 1_555
C4 N4 1_555 1_555
H5 C4 1_555 1_555
H6 C4 1_555 1_555
C5 N2 1_555 1_555
H7 C5 1_555 1_555
H8 C5 1_555 1_555
Hg1B N1D 1_555 1_555
C1D H1D 1_555 1_555
N1D C1D 1_555 1_555
N1F Hg1 1_555 1_555
C2D N1D 1_555 1_555
H2D C2D 1_555 1_555
N2D C1D 1_555 1_555
N3D C2D 1_555 1_555
N4D C3D 1_555 1_555
C3D C4 1_555 1_555
H3D C3D 1_555 1_555
H4D C3D 1_555 1_555
C4D C3 1_555 1_555
H5D C4D 1_555 1_555
H6D C4D 1_555 1_555
C5D N2D 1_555 1_555
H7D C5D 1_555 1_555
H8D C5D 1_555 1_555
C1 N1 1_555 1_555
N2 N3 1_555 1_555
N4 C5 1_555 1_555
N2D N3D 1_555 1_555
N4D C4D 1_555 1_555
N4D C5D 1_555 1_555

#END
