
#######################################################################
#
#                 Cambridge Crystallographic Data Centre
#                                CCDC 
#
#######################################################################
#
# If this CIF has been generated from an entry in the Cambridge 
# Structural Database, then it will include bibliographic, chemical, 
# crystal, experimental, refinement or atomic coordinate data resulting 
# from the CCDC's data processing and validation procedures.
#
#######################################################################

data_NAZSIS
_symmetry_cell_setting           monoclinic
_symmetry_space_group_name_H-M   'P 21/c'
_symmetry_Int_Tables_number      14
_space_group_name_Hall           '-P 2ybc'
loop_
_symmetry_equiv_pos_site_id
_symmetry_equiv_pos_as_xyz
1 x,y,z
2 -x,1/2+y,1/2-z
3 -x,-y,-z
4 x,1/2-y,1/2+z
_cell_length_a                   7.7597(7)
_cell_length_b                   13.2900(12)
_cell_length_c                   15.1375(13)
_cell_angle_alpha                90
_cell_angle_beta                 93.5350(10)
_cell_angle_gamma                90
_cell_volume                     1558.11
loop_
_atom_site_label
_atom_site_type_symbol
_atom_site_fract_x
_atom_site_fract_y
_atom_site_fract_z
Cu1 Cu 0.69615(3) 0.270245(17) -0.039457(14)
N1 N 0.6738(2) 0.41629(12) -0.07046(11)
N2 N 0.8092(2) 0.33335(15) 0.07272(12)
N3 N 0.6962(2) 0.13182(13) 0.00581(12)
H1 H 0.7098 0.0902 -0.0401
H2 H 0.5910 0.1195 0.0253
N4 N 0.9282(2) 0.24463(14) -0.11187(13)
N5 N 1.1983(2) 0.17213(14) -0.15865(12)
N6 N 1.4883(2) 0.23491(13) -0.11875(13)
C1 C 0.6036(3) 0.45348(17) -0.14599(15)
H3 H 0.5586 0.4092 -0.1890
C2 C 0.5950(3) 0.55599(19) -0.16280(19)
H4 H 0.5454 0.5801 -0.2162
C3 C 0.6611(4) 0.62101(19) -0.0992(2)
H5 H 0.6563 0.6901 -0.1087
C4 C 0.7351(3) 0.58281(18) -0.02065(19)
H6 H 0.7811 0.6261 0.0230
C5 C 0.7402(2) 0.48002(16) -0.00758(14)
C6 C 0.8185(3) 0.42917(17) 0.07280(14)
C7 C 0.8993(4) 0.4930(2) 0.14617(17)
H7 H 0.8104 0.5209 0.1802
H8 H 0.9639 0.5465 0.1214
H9 H 0.9751 0.4523 0.1838
C8 C 0.8874(4) 0.2754(2) 0.1479(2)
H10 H 0.8727 0.3125 0.2022
H11 H 1.0104 0.2689 0.1410
C9 C 0.8106(4) 0.1719(2) 0.15626(18)
H12 H 0.6894 0.1791 0.1672
H13 H 0.8668 0.1391 0.2076
C10 C 0.8251(4) 0.1040(2) 0.07698(19)
H14 H 0.9401 0.1095 0.0556
H15 H 0.8074 0.0346 0.0942
C11 C 1.0587(2) 0.21292(14) -0.13145(12)
C12 C 1.3490(2) 0.20812(14) -0.13475(13)
Cu1_2 Cu 1.69615(3) 0.270245(17) -0.039457(14)
N6_2 N 0.4883(2) 0.23491(13) -0.11875(13)
F1 F 0.4636(2) 0.03009(16) 0.14461(15)
F2 F 0.1807(2) 0.00713(13) 0.14092(12)
F3 F 0.2950(3) 0.14517(14) 0.20580(12)
F4 F 0.2915(3) 0.12924(16) 0.05863(11)
B1 B 0.3064(4) 0.0792(2) 0.13814(18)
loop_
_geom_bond_atom_site_label_1
_geom_bond_atom_site_label_2
_geom_bond_site_symmetry_1
_geom_bond_site_symmetry_2
Cu1 N1 1_555 1_555
F1 B1 1_555 1_555
F2 B1 1_555 1_555
F3 B1 1_555 1_555
F4 B1 1_555 1_555
N1 C1 1_555 1_555
N2 Cu1 1_555 1_555
N3 Cu1 1_555 1_555
H1 N3 1_555 1_555
H2 N3 1_555 1_555
N4 Cu1 1_555 1_555
N5 C11 1_555 1_555
N6 C12 1_555 1_555
C1 H3 1_555 1_555
C2 C1 1_555 1_555
H4 C2 1_555 1_555
C3 C2 1_555 1_555
H5 C3 1_555 1_555
C4 C3 1_555 1_555
H6 C4 1_555 1_555
C5 N1 1_555 1_555
C6 N2 1_555 1_555
C7 C6 1_555 1_555
H7 C7 1_555 1_555
H8 C7 1_555 1_555
H9 C7 1_555 1_555
C8 N2 1_555 1_555
H10 C8 1_555 1_555
H11 C8 1_555 1_555
C9 C8 1_555 1_555
H12 C9 1_555 1_555
H13 C9 1_555 1_555
C10 N3 1_555 1_555
H14 C10 1_555 1_555
H15 C10 1_555 1_555
C11 N4 1_555 1_555
C12 N5 1_555 1_555
Cu1_2 N6 1_555 1_555
N6_2 Cu1 1_555 1_555
C4 C5 1_555 1_555
C5 C6 1_555 1_555
C9 C10 1_555 1_555

#END
