
#######################################################################
#
#                 Cambridge Crystallographic Data Centre
#                                CCDC 
#
#######################################################################
#
# If this CIF has been generated from an entry in the Cambridge 
# Structural Database, then it will include bibliographic, chemical, 
# crystal, experimental, refinement or atomic coordinate data resulting 
# from the CCDC's data processing and validation procedures.
#
#######################################################################

data_NAZTOZ
_symmetry_cell_setting           monoclinic
_symmetry_space_group_name_H-M   'P 21/c'
_symmetry_Int_Tables_number      14
_space_group_name_Hall           '-P 2ybc'
loop_
_symmetry_equiv_pos_site_id
_symmetry_equiv_pos_as_xyz
1 x,y,z
2 -x,1/2+y,1/2-z
3 -x,-y,-z
4 x,1/2-y,1/2+z
_cell_length_a                   9.8407(9)
_cell_length_b                   16.1592(14)
_cell_length_c                   12.9919(11)
_cell_angle_alpha                90
_cell_angle_beta                 109.8800(10)
_cell_angle_gamma                90
_cell_volume                     1942.83
loop_
_atom_site_label
_atom_site_type_symbol
_atom_site_fract_x
_atom_site_fract_y
_atom_site_fract_z
Sn1 Sn 1.25862(4) 0.22658(3) 0.36153(4)
Sn2 Sn 0.74810(4) 0.11848(3) 0.33415(3)
O1 O 0.9565(4) 0.2034(3) 0.3756(4)
O2 O 0.4391(4) 0.5365(2) 0.2035(4)
C1 C 1.4073(7) 0.3243(4) 0.3773(6)
H1 H 1.3943 0.3652 0.4268
H2 H 1.3910 0.3491 0.3070
H3 H 1.5040 0.3030 0.4053
O3 O 1.1080(4) 0.3088(2) 0.4024(4)
C2 C 0.8807(8) 0.0197(4) 0.3146(7)
H4 H 0.9727 0.0413 0.3170
H5 H 0.8346 -0.0069 0.2454
H6 H 0.8947 -0.0197 0.3726
C3 C 0.9833(7) 0.2779(4) 0.3934(5)
C4 C 0.7554(7) 0.1395(4) 0.4956(5)
H7 H 0.7049 0.0959 0.5176
H8 H 0.7105 0.1916 0.4994
H9 H 0.8542 0.1406 0.5435
C5 C 0.8740(7) 0.3371(4) 0.4087(6)
H10 H 0.7838 0.3081 0.3975
H11 H 0.9083 0.3580 0.4832
C6 C 1.1162(7) 0.2092(4) 0.1996(5)
H12 H 1.1708 0.2056 0.1510
H13 H 1.0507 0.2552 0.1787
H14 H 1.0624 0.1591 0.1956
C7 C 0.6533(8) 0.1927(5) 0.1942(6)
H15 H 0.6161 0.2425 0.2149
H16 H 0.5759 0.1627 0.1421
H17 H 0.7248 0.2065 0.1619
C8 C 1.2900(7) 0.1480(4) 0.4973(5)
H18 H 1.3910 0.1458 0.5399
H19 H 1.2563 0.0934 0.4722
H20 H 1.2371 0.1690 0.5416
O4 O 0.5677(4) 0.6431(3) 0.1808(4)
C9 C 0.5570(6) 0.5685(4) 0.2003(5)
C10 C 0.7169(8) 0.4586(5) 0.3214(7)
H21 H 0.6359 0.4198 0.3071
C11 C 0.6827(7) 0.5118(4) 0.2220(6)
H22 H 0.7674 0.5449 0.2282
H23 H 0.6655 0.4761 0.1588
C12 C 0.8486(8) 0.4062(5) 0.3327(7)
H24 H 0.8397 0.3846 0.2610
H25 H 0.9330 0.4418 0.3558
C13 C 0.7317(9) 0.4997(5) 0.4279(7)
H26 H 0.7548 0.4590 0.4851
H27 H 0.6423 0.5263 0.4226
H28 H 0.8073 0.5403 0.4444
Sn1A Sn 0.74138(4) 0.72658(3) 0.13847(4)
Sn2A Sn 0.25190(4) 0.61848(3) 0.16585(3)
O2A O 0.5609(4) 0.0365(2) 0.2965(4)
O4A O 1.4323(4) 0.1431(3) 0.3192(4)
loop_
_geom_bond_atom_site_label_1
_geom_bond_atom_site_label_2
_geom_bond_site_symmetry_1
_geom_bond_site_symmetry_2
Sn1 C1 1_555 1_555
Sn2 O1 1_555 1_555
O1 C3 1_555 1_555
O2 C9 1_555 1_555
C1 H1 1_555 1_555
H2 C1 1_555 1_555
H3 C1 1_555 1_555
O3 Sn1 1_555 1_555
C2 Sn2 1_555 1_555
H4 C2 1_555 1_555
H5 C2 1_555 1_555
H6 C2 1_555 1_555
C3 O3 1_555 1_555
C4 Sn2 1_555 1_555
H7 C4 1_555 1_555
H8 C4 1_555 1_555
H9 C4 1_555 1_555
C5 C3 1_555 1_555
H10 C5 1_555 1_555
H11 C5 1_555 1_555
C6 Sn1 1_555 1_555
H12 C6 1_555 1_555
H13 C6 1_555 1_555
H14 C6 1_555 1_555
C7 Sn2 1_555 1_555
H15 C7 1_555 1_555
H16 C7 1_555 1_555
H17 C7 1_555 1_555
C8 Sn1 1_555 1_555
H18 C8 1_555 1_555
H19 C8 1_555 1_555
H20 C8 1_555 1_555
O4 C9 1_555 1_555
C9 C11 1_555 1_555
C10 H21 1_555 1_555
C11 C10 1_555 1_555
H22 C11 1_555 1_555
H23 C11 1_555 1_555
C12 C5 1_555 1_555
H24 C12 1_555 1_555
H25 C12 1_555 1_555
C13 C10 1_555 1_555
H26 C13 1_555 1_555
H27 C13 1_555 1_555
H28 C13 1_555 1_555
Sn1A O4 1_555 1_555
Sn2A O2 1_555 1_555
O2A Sn2 1_555 1_555
O4A Sn1 1_555 1_555
C10 C12 1_555 1_555

#END
