
#######################################################################
#
#                 Cambridge Crystallographic Data Centre
#                                CCDC 
#
#######################################################################
#
# If this CIF has been generated from an entry in the Cambridge 
# Structural Database, then it will include bibliographic, chemical, 
# crystal, experimental, refinement or atomic coordinate data resulting 
# from the CCDC's data processing and validation procedures.
#
#######################################################################

data_NAZTIT
_symmetry_cell_setting           triclinic
_symmetry_space_group_name_H-M   'P -1'
_symmetry_Int_Tables_number      2
_space_group_name_Hall           '-P 1'
loop_
_symmetry_equiv_pos_site_id
_symmetry_equiv_pos_as_xyz
1 x,y,z
2 -x,-y,-z
_cell_length_a                   9.3383(8)
_cell_length_b                   9.4705(9)
_cell_length_c                   9.9759(12)
_cell_angle_alpha                108.208(2)
_cell_angle_beta                 97.6470(10)
_cell_angle_gamma                95.9290(10)
_cell_volume                     820.73
loop_
_atom_site_label
_atom_site_type_symbol
_atom_site_fract_x
_atom_site_fract_y
_atom_site_fract_z
Sn1 Sn -0.06459(17) 0.23663(16) 0.80097(18)
Sn2 Sn 0.13133(18) 0.13146(17) 0.50626(18)
O1 O 0.1191(19) 0.3478(18) 0.7360(19)
O2 O 0.140(2) 0.555(2) 0.924(2)
O3 O 0.714(2) 0.875(2) 0.651(2)
O4 O 0.760(2) 1.079(2) 0.819(2)
O5 O -0.0368(19) 0.0829(17) 0.6166(18)
C1 C 0.186(3) 0.489(3) 0.810(3)
C2 C 0.305(3) 0.543(2) 0.742(3)
H1 H 0.2634 0.5488 0.6496
H2 H 0.3743 0.4721 0.7259
C3 C 0.383(2) 0.697(2) 0.840(2)
H3 H 0.3215 0.7729 0.8780
C4 C 0.501(3) 0.742(2) 0.761(3)
H4 H 0.5723 0.6735 0.7534
H5 H 0.4563 0.7337 0.6647
C5 C 0.576(3) 0.903(2) 0.842(3)
H6 H 0.5017 0.9679 0.8547
H7 H 0.6229 0.9075 0.9362
C6 C 0.688(3) 0.961(3) 0.770(3)
C7 C 0.480(3) 0.649(3) 0.949(3)
H8 H 0.4213 0.5800 0.9804
H9 H 0.5237 0.7355 1.0297
H10 H 0.5552 0.6002 0.9049
C8 C -0.212(3) 0.366(3) 0.748(3)
H11 H -0.1742 0.4159 0.6875
H12 H -0.2286 0.4388 0.8338
H13 H -0.3030 0.3021 0.6982
C9 C 0.071(3) 0.208(3) 0.971(3)
H14 H 0.0454 0.1085 0.9743
H15 H 0.0604 0.2808 1.0595
H16 H 0.1713 0.2216 0.9580
C10 C 0.321(3) 0.106(3) 0.641(4)
H17 H 0.3580 0.0170 0.5925
H18 H 0.3952 0.1923 0.6630
H19 H 0.2942 0.0989 0.7288
C11 C 0.037(3) 0.280(3) 0.414(3)
H20 H -0.0332 0.3254 0.4683
H21 H 0.1126 0.3575 0.4137
H22 H -0.0099 0.2257 0.3169
Sn1_2 Sn 0.93541(17) 1.23663(16) 0.80097(18)
Sn2A Sn -0.13133(18) -0.13146(17) 0.49374(18)
Sn2A_2 Sn 0.86867(18) 0.86854(17) 0.49374(18)
O3A O 0.286(2) 0.125(2) 0.349(2)
O4_2 O -0.240(2) 0.079(2) 0.819(2)
O5A O 0.0368(19) -0.0829(17) 0.3834(18)
loop_
_geom_bond_atom_site_label_1
_geom_bond_atom_site_label_2
_geom_bond_site_symmetry_1
_geom_bond_site_symmetry_2
Sn1 O1 1_555 1_555
Sn2 O1 1_555 1_555
O1 C1 1_555 1_555
O2 C1 1_555 1_555
O3 C6 1_555 1_555
O4 C6 1_555 1_555
O5 Sn1 1_555 1_555
C1 C2 1_555 1_555
C2 H1 1_555 1_555
H2 C2 1_555 1_555
C3 C2 1_555 1_555
H3 C3 1_555 1_555
C4 C3 1_555 1_555
H4 C4 1_555 1_555
H5 C4 1_555 1_555
C5 C4 1_555 1_555
H6 C5 1_555 1_555
H7 C5 1_555 1_555
C6 C5 1_555 1_555
C7 C3 1_555 1_555
H8 C7 1_555 1_555
H9 C7 1_555 1_555
H10 C7 1_555 1_555
C8 Sn1 1_555 1_555
H11 C8 1_555 1_555
H12 C8 1_555 1_555
H13 C8 1_555 1_555
C9 Sn1 1_555 1_555
H14 C9 1_555 1_555
H15 C9 1_555 1_555
H16 C9 1_555 1_555
C10 Sn2 1_555 1_555
H17 C10 1_555 1_555
H18 C10 1_555 1_555
H19 C10 1_555 1_555
C11 Sn2 1_555 1_555
H20 C11 1_555 1_555
H21 C11 1_555 1_555
H22 C11 1_555 1_555
Sn1_2 O4 1_555 1_555
Sn2A O5 1_555 1_555
Sn2A_2 O3 1_555 1_555
O3A Sn2 1_555 1_555
O4_2 Sn1 1_555 1_555
O5A Sn2 1_555 1_555
Sn2 O5 1_555 1_555
Sn2A O5A 1_555 1_555

#END
