
#######################################################################
#
#                 Cambridge Crystallographic Data Centre
#                                CCDC 
#
#######################################################################
#
# If this CIF has been generated from an entry in the Cambridge 
# Structural Database, then it will include bibliographic, chemical, 
# crystal, experimental, refinement or atomic coordinate data resulting 
# from the CCDC's data processing and validation procedures.
#
#######################################################################

data_NAZVIV
_symmetry_cell_setting           monoclinic
_symmetry_space_group_name_H-M   'C c'
_symmetry_Int_Tables_number      9
_space_group_name_Hall           'C -2yc'
loop_
_symmetry_equiv_pos_site_id
_symmetry_equiv_pos_as_xyz
1 x,y,z
2 x,-y,1/2+z
3 1/2+x,1/2+y,z
4 1/2+x,1/2-y,1/2+z
_cell_length_a                   28.0114(11)
_cell_length_b                   12.0468(5)
_cell_length_c                   18.7768(7)
_cell_angle_alpha                90
_cell_angle_beta                 110.8637(5)
_cell_angle_gamma                90
_cell_volume                     5920.73
loop_
_atom_site_label
_atom_site_type_symbol
_atom_site_fract_x
_atom_site_fract_y
_atom_site_fract_z
Ni1 Ni 0.112306(15) 0.48967(3) 0.19828(2)
Ni2 Ni 0.741573(16) 0.55553(3) 0.31809(2)
O1 O 0.07091(8) 0.45943(19) 0.07804(14)
O2 O 0.13437(9) 0.3528(2) 0.14664(14)
O3 O 0.01703(12) 0.2772(2) -0.18736(15)
O4 O 0.06634(9) 0.4016(2) -0.26648(14)
O5 O 0.05349(9) 0.5803(2) -0.26908(15)
O6 O 0.77828(9) 0.41750(19) 0.38268(15)
O7 O 0.81317(10) 0.58172(19) 0.40598(17)
O8 O 0.81881(10) 0.2803(2) 0.50700(14)
O9 O 0.77971(10) 0.43766(19) 0.73394(17)
O10 O 0.74028(9) 0.29732(19) 0.76329(15)
N1 N 0.16254(10) 0.4687(2) 0.30651(16)
N2 N 0.23066(9) 0.4048(2) 0.39737(16)
N3 N 0.63058(11) 0.6784(2) 0.3958(2)
N4 N 0.69783(11) 0.6064(3) 0.37958(19)
N5 N 0.15944(11) 0.5957(2) 0.16692(18)
N6 N 0.22055(11) 0.7140(2) 0.17284(19)
N7 N 0.60595(11) 0.4794(3) 0.13960(19)
N8 N 0.67772(11) 0.4918(3) 0.23695(19)
C1 C 0.10156(12) 0.3813(3) 0.08328(19)
C2 C 0.10041(13) 0.3212(3) 0.0119(2)
C3 C 0.14085(15) 0.2544(3) 0.0144(2)
H1 H 0.1690 0.2473 0.0593
C4 C 0.13902(19) 0.1979(3) -0.0510(3)
H2 H 0.1664 0.1533 -0.0501
C5 C 0.09706(19) 0.2072(3) -0.1172(3)
H3 H 0.0957 0.1672 -0.1603
C6 C 0.05754(15) 0.2752(3) -0.1195(2)
C7 C 0.05876(13) 0.3334(3) -0.05557(19)
H4 H 0.0320 0.3804 -0.0576
C8 C -0.01460(15) 0.3696(4) -0.2009(2)
C9 C -0.06025(19) 0.3607(6) -0.1877(3)
H5 H -0.0690 0.2937 -0.1710
C10 C -0.09285(18) 0.4510(7) -0.1991(3)
H6 H -0.1235 0.4447 -0.1907
C11 C -0.07973(19) 0.5466(7) -0.2221(3)
H7 H -0.1012 0.6076 -0.2282
C12 C -0.03525(16) 0.5584(5) -0.2373(3)
H8 H -0.0274 0.6266 -0.2536
C13 C -0.00226(13) 0.4702(3) -0.2286(2)
C14 C 0.04195(12) 0.4838(3) -0.25540(19)
C15 C 0.81534(13) 0.4789(3) 0.4197(2)
C16 C 0.86263(12) 0.4335(3) 0.4791(2)
C17 C 0.90879(15) 0.4879(3) 0.4921(3)
H9 H 0.9094 0.5506 0.4635
C18 C 0.95397(15) 0.4511(4) 0.5468(3)
H10 H 0.9845 0.4881 0.5545
C19 C 0.95296(14) 0.3593(3) 0.5894(2)
H11 H 0.9831 0.3340 0.6261
C20 C 0.90825(15) 0.3047(3) 0.5784(2)
H12 H 0.9077 0.2435 0.6084
C21 C 0.86367(12) 0.3406(3) 0.52258(19)
C22 C 0.80734(13) 0.2378(3) 0.5675(2)
C23 C 0.80201(16) 0.1261(3) 0.5715(2)
H13 H 0.8097 0.0797 0.5374
C24 C 0.78542(19) 0.0818(3) 0.6255(3)
H14 H 0.7820 0.0053 0.6280
C25 C 0.77375(16) 0.1492(3) 0.6762(2)
H15 H 0.7616 0.1185 0.7119
C26 C 0.78022(12) 0.2637(3) 0.6738(2)
C27 C 0.79765(13) 0.3080(3) 0.6188(2)
H16 H 0.8027 0.3841 0.6168
C28 C 0.76661(13) 0.3377(3) 0.7265(2)
C29 C 0.16207(13) 0.5047(3) 0.3751(2)
H17 H 0.1368 0.5489 0.3820
C30 C 0.20376(14) 0.4664(3) 0.4315(2)
H18 H 0.2125 0.4792 0.4834
C31 C 0.20445(12) 0.4090(3) 0.3223(2)
H19 H 0.2146 0.3741 0.2858
C32 C 0.27990(12) 0.3496(3) 0.4330(2)
H20 H 0.2776 0.2749 0.4128
H21 H 0.2871 0.3437 0.4873
C33 C 0.32369(12) 0.4087(3) 0.42061(18)
C34 C 0.32383(13) 0.5225(3) 0.4089(2)
H22 H 0.2949 0.5638 0.4045
C35 C 0.36584(13) 0.5752(3) 0.4037(2)
H23 H 0.3652 0.6518 0.3973
C36 C 0.40959(12) 0.5157(3) 0.40768(19)
C37 C 0.40889(13) 0.4029(3) 0.4175(2)
H24 H 0.4373 0.3610 0.4197
C38 C 0.36677(13) 0.3504(3) 0.4242(2)
H25 H 0.3676 0.2739 0.4314
C39 C 0.45496(12) 0.5743(3) 0.4013(2)
C40 C 0.48601(14) 0.5236(3) 0.3676(2)
H26 H 0.4786 0.4518 0.3488
C41 C 0.52807(14) 0.5782(3) 0.3616(2)
H27 H 0.5481 0.5429 0.3382
C42 C 0.54045(14) 0.6841(3) 0.3898(2)
C43 C 0.51011(15) 0.7341(3) 0.4239(2)
H28 H 0.5181 0.8053 0.4438
C44 C 0.46785(14) 0.6807(3) 0.4292(2)
H29 H 0.4477 0.7170 0.4520
C45 C 0.58484(16) 0.7469(3) 0.3813(3)
H30 H 0.5745 0.7766 0.3301
H31 H 0.5933 0.8090 0.4165
C46 C 0.65498(16) 0.6153(4) 0.4581(3)
H32 H 0.6450 0.6034 0.4997
C47 C 0.69645(15) 0.5736(3) 0.4477(2)
H33 H 0.7208 0.5286 0.4823
C48 C 0.65712(14) 0.6698(3) 0.3491(2)
H34 H 0.6481 0.7039 0.3017
C49 C 0.15704(16) 0.6197(4) 0.0955(2)
H35 H 0.1330 0.5913 0.0512
C50 C 0.19489(17) 0.6913(4) 0.0981(3)
H36 H 0.2019 0.7193 0.0568
C51 C 0.19812(14) 0.6534(3) 0.2121(2)
H37 H 0.2087 0.6523 0.2650
C52 C 0.26310(15) 0.7922(3) 0.2021(3)
H38 H 0.2730 0.7979 0.2570
H39 H 0.2521 0.8651 0.1806
C53 C 0.30803(14) 0.7568(3) 0.1830(2)
C54 C 0.33543(16) 0.6656(4) 0.2174(2)
H40 H 0.3259 0.6271 0.2532
C55 C 0.37714(15) 0.6284(4) 0.2004(2)
H41 H 0.3950 0.5659 0.2249
C56 C 0.39219(12) 0.6835(3) 0.1473(2)
C57 C 0.36488(14) 0.7771(3) 0.1122(2)
H42 H 0.3744 0.8162 0.0767
C58 C 0.32341(15) 0.8124(3) 0.1302(3)
H43 H 0.3054 0.8750 0.1062
C59 C 0.43660(13) 0.6407(3) 0.1291(2)
C60 C 0.44283(15) 0.5287(3) 0.1224(3)
H44 H 0.4196 0.4798 0.1306
C61 C 0.48305(16) 0.4866(3) 0.1036(3)
H45 H 0.4861 0.4104 0.0985
C62 C 0.51866(14) 0.5579(4) 0.0925(2)
C63 C 0.51248(16) 0.6700(4) 0.0998(3)
H46 H 0.5361 0.7190 0.0928
C64 C 0.47217(16) 0.7113(3) 0.1172(3)
H47 H 0.4687 0.7877 0.1210
C65 C 0.56278(15) 0.5130(4) 0.0717(2)
H48 H 0.5511 0.4496 0.0381
H49 H 0.5740 0.5697 0.0445
C66 C 0.61033(16) 0.3861(3) 0.1822(3)
H50 H 0.5872 0.3276 0.1717
C67 C 0.65379(15) 0.3936(3) 0.2419(3)
H51 H 0.6660 0.3412 0.2806
C68 C 0.64750(14) 0.5400(4) 0.1756(2)
H52 H 0.6540 0.6089 0.1587
Ni1A Ni 0.112306(15) 0.51033(3) -0.30172(2)
Ni2A Ni 0.741573(16) 0.44447(3) 0.81809(2)
O4A O 0.06634(9) 0.5984(2) 0.23352(14)
O5A O 0.05349(9) 0.4197(2) 0.23092(15)
O9A O 0.77971(10) 0.56234(19) 0.23394(17)
O10A O 0.74028(9) 0.70268(19) 0.26329(15)
O11 O 0.7281(2) 0.2213(4) 0.3798(3)
H53 H 0.7299 0.2911 0.3745
H54 H 0.7500 0.2028 0.4227
loop_
_geom_bond_atom_site_label_1
_geom_bond_atom_site_label_2
_geom_bond_site_symmetry_1
_geom_bond_site_symmetry_2
Ni1 O1 1_555 1_555
Ni2 O6 1_555 1_555
O1 C1 1_555 1_555
O2 Ni1 1_555 1_555
O3 C6 1_555 1_555
O4 C14 1_555 1_555
O5 C14 1_555 1_555
O6 C15 1_555 1_555
O7 Ni2 1_555 1_555
O8 C21 1_555 1_555
O9 C28 1_555 1_555
O10 C28 1_555 1_555
N1 Ni1 1_555 1_555
N2 C30 1_555 1_555
N3 C45 1_555 1_555
N4 Ni2 1_555 1_555
N5 Ni1 1_555 1_555
N6 C50 1_555 1_555
N7 C65 1_555 1_555
N8 Ni2 1_555 1_555
C1 O2 1_555 1_555
C2 C1 1_555 1_555
C3 C2 1_555 1_555
H1 C3 1_555 1_555
C4 C3 1_555 1_555
H2 C4 1_555 1_555
C5 C4 1_555 1_555
H3 C5 1_555 1_555
C6 C5 1_555 1_555
C7 C2 1_555 1_555
H4 C7 1_555 1_555
C8 O3 1_555 1_555
C9 C8 1_555 1_555
H5 C9 1_555 1_555
C10 C9 1_555 1_555
H6 C10 1_555 1_555
C11 C10 1_555 1_555
H7 C11 1_555 1_555
C12 C11 1_555 1_555
H8 C12 1_555 1_555
C13 C8 1_555 1_555
C14 C13 1_555 1_555
C15 O7 1_555 1_555
C16 C15 1_555 1_555
C17 C16 1_555 1_555
H9 C17 1_555 1_555
C18 C17 1_555 1_555
H10 C18 1_555 1_555
C19 C18 1_555 1_555
H11 C19 1_555 1_555
C20 C19 1_555 1_555
H12 C20 1_555 1_555
C21 C16 1_555 1_555
C22 O8 1_555 1_555
C23 C22 1_555 1_555
H13 C23 1_555 1_555
C24 C23 1_555 1_555
H14 C24 1_555 1_555
C25 C24 1_555 1_555
H15 C25 1_555 1_555
C26 C25 1_555 1_555
C27 C22 1_555 1_555
H16 C27 1_555 1_555
C28 C26 1_555 1_555
C29 N1 1_555 1_555
H17 C29 1_555 1_555
C30 C29 1_555 1_555
H18 C30 1_555 1_555
C31 N1 1_555 1_555
H19 C31 1_555 1_555
C32 N2 1_555 1_555
H20 C32 1_555 1_555
H21 C32 1_555 1_555
C33 C32 1_555 1_555
C34 C33 1_555 1_555
H22 C34 1_555 1_555
C35 C34 1_555 1_555
H23 C35 1_555 1_555
C36 C35 1_555 1_555
C37 C36 1_555 1_555
H24 C37 1_555 1_555
C38 C33 1_555 1_555
H25 C38 1_555 1_555
C39 C36 1_555 1_555
C40 C39 1_555 1_555
H26 C40 1_555 1_555
C41 C40 1_555 1_555
H27 C41 1_555 1_555
C42 C41 1_555 1_555
C43 C42 1_555 1_555
H28 C43 1_555 1_555
C44 C39 1_555 1_555
H29 C44 1_555 1_555
C45 C42 1_555 1_555
H30 C45 1_555 1_555
H31 C45 1_555 1_555
C46 N3 1_555 1_555
H32 C46 1_555 1_555
C47 N4 1_555 1_555
H33 C47 1_555 1_555
C48 N3 1_555 1_555
H34 C48 1_555 1_555
C49 N5 1_555 1_555
H35 C49 1_555 1_555
C50 C49 1_555 1_555
H36 C50 1_555 1_555
C51 N5 1_555 1_555
H37 C51 1_555 1_555
C52 N6 1_555 1_555
H38 C52 1_555 1_555
H39 C52 1_555 1_555
C53 C52 1_555 1_555
C54 C53 1_555 1_555
H40 C54 1_555 1_555
C55 C54 1_555 1_555
H41 C55 1_555 1_555
C56 C55 1_555 1_555
C57 C56 1_555 1_555
H42 C57 1_555 1_555
C58 C53 1_555 1_555
H43 C58 1_555 1_555
C59 C56 1_555 1_555
C60 C59 1_555 1_555
H44 C60 1_555 1_555
C61 C60 1_555 1_555
H45 C61 1_555 1_555
C62 C61 1_555 1_555
C63 C62 1_555 1_555
H46 C63 1_555 1_555
C64 C59 1_555 1_555
H47 C64 1_555 1_555
C65 C62 1_555 1_555
H48 C65 1_555 1_555
H49 C65 1_555 1_555
C66 N7 1_555 1_555
H50 C66 1_555 1_555
C67 N8 1_555 1_555
H51 C67 1_555 1_555
C68 N7 1_555 1_555
H52 C68 1_555 1_555
O11 H53 1_555 1_555
H54 O11 1_555 1_555
Ni1A O4 1_555 1_555
Ni2A O9 1_555 1_555
O4A Ni1 1_555 1_555
O5A Ni1 1_555 1_555
O9A Ni2 1_555 1_555
O10A Ni2 1_555 1_555
O5 Ni1A 1_555 1_555
O10 Ni2A 1_555 1_555
N2 C31 1_555 1_555
N4 C48 1_555 1_555
N6 C51 1_555 1_555
N8 C68 1_555 1_555
C6 C7 1_555 1_555
C12 C13 1_555 1_555
C20 C21 1_555 1_555
C26 C27 1_555 1_555
C37 C38 1_555 1_555
C43 C44 1_555 1_555
C46 C47 1_555 1_555
C57 C58 1_555 1_555
C63 C64 1_555 1_555
C66 C67 1_555 1_555

#END
