
#######################################################################
#
#                 Cambridge Crystallographic Data Centre
#                                CCDC 
#
#######################################################################
#
# If this CIF has been generated from an entry in the Cambridge 
# Structural Database, then it will include bibliographic, chemical, 
# crystal, experimental, refinement or atomic coordinate data resulting 
# from the CCDC's data processing and validation procedures.
#
#######################################################################

data_NAZWOC
_symmetry_cell_setting           monoclinic
_symmetry_space_group_name_H-M   'P 21/n'
_symmetry_Int_Tables_number      14
_space_group_name_Hall           '-P 2yn'
loop_
_symmetry_equiv_pos_site_id
_symmetry_equiv_pos_as_xyz
1 x,y,z
2 1/2-x,1/2+y,1/2-z
3 -x,-y,-z
4 1/2+x,1/2-y,1/2+z
_cell_length_a                   10.990(5)
_cell_length_b                   11.309(5)
_cell_length_c                   17.774(5)
_cell_angle_alpha                90
_cell_angle_beta                 90.146(5)
_cell_angle_gamma                90
_cell_volume                     2209.05
loop_
_atom_site_label
_atom_site_type_symbol
_atom_site_fract_x
_atom_site_fract_y
_atom_site_fract_z
Zn1 Zn -0.48793(4) 0.36068(3) 0.55333(2)
O1 O -0.5629(3) 0.1739(2) 0.34460(13)
O2 O -0.1774(2) 0.2777(2) 0.08588(15)
C1 C -0.1861(3) 0.1924(4) 0.1297(2)
C2 C -0.4553(3) 0.2827(3) 0.2475(2)
H1 H -0.5043 0.3489 0.2542
C3 C -0.2108(4) 0.0332(3) 0.5546(2)
C4 C -0.1185(4) -0.0598(3) 0.5543(2)
O3 O -0.5367(3) 0.3523(2) 0.44875(15)
O4 O -0.1119(2) 0.1071(2) 0.12849(15)
N1 N -0.1298(3) -0.1581(3) 0.51032(17)
H2 H -0.1882 -0.1744 0.4798
C5 C -0.2884(3) 0.1878(3) 0.1849(2)
C6 C -0.3630(3) 0.2838(3) 0.1953(2)
H3 H -0.3508 0.3513 0.1663
O5 O -0.6314(2) 0.5180(2) 0.41694(17)
C7 C -0.3085(3) 0.0879(3) 0.2285(2)
H4 H -0.2586 0.0221 0.2225
C8 C -0.4744(3) 0.1815(3) 0.29003(19)
C9 C -0.6708(4) 0.2315(3) 0.3301(2)
N2 N -0.3763(3) 0.2205(3) 0.55722(17)
C10 C -0.1924(4) 0.1326(3) 0.5992(2)
H5 H -0.1239 0.1375 0.6299
N3 N -0.0202(3) -0.0580(3) 0.59546(18)
C11 C -0.6986(4) 0.3435(3) 0.3595(2)
C12 C -0.4009(3) 0.0847(3) 0.2804(2)
H6 H -0.4137 0.0169 0.3089
C13 C -0.3151(4) 0.0316(3) 0.5120(2)
H7 H -0.3316 -0.0333 0.4815
C14 C -0.6155(4) 0.4080(4) 0.4120(2)
C15 C -0.0285(4) -0.2257(4) 0.5249(2)
C16 C 0.0384(4) -0.1631(4) 0.5779(3)
C17 C -0.3954(4) 0.1243(3) 0.5139(2)
H8 H -0.4652 0.1208 0.4842
C18 C -0.7560(5) 0.1731(4) 0.2871(2)
H9 H -0.7376 0.0988 0.2678
C19 C -0.8101(4) 0.3925(4) 0.3417(2)
H10 H -0.8286 0.4676 0.3597
C20 C -0.2748(4) 0.2231(3) 0.5981(2)
H11 H -0.2591 0.2896 0.6272
C21 C 0.0113(5) -0.3348(4) 0.4969(3)
H12 H -0.0324 -0.3755 0.4603
C22 C 0.1476(4) -0.2111(5) 0.6065(3)
H13 H 0.1939 -0.1711 0.6422
C23 C -0.8665(5) 0.2218(5) 0.2723(2)
H14 H -0.9238 0.1796 0.2446
C24 C 0.1824(5) -0.3192(6) 0.5793(4)
H15 H 0.2532 -0.3534 0.5980
C25 C 0.1175(6) -0.3787(4) 0.5260(4)
H16 H 0.1462 -0.4512 0.5089
C26 C -0.8942(4) 0.3348(5) 0.2986(3)
H17 H -0.9684 0.3701 0.2870
Zn1C Zn 0.01207(4) 0.13932(3) 0.05333(2)
Zn1B Zn -0.51207(4) 0.63932(3) 0.44667(2)
O4C O -0.6119(2) 0.3929(2) 0.62849(15)
O5B O -0.3686(2) 0.4820(2) 0.58306(17)
loop_
_geom_bond_atom_site_label_1
_geom_bond_atom_site_label_2
_geom_bond_site_symmetry_1
_geom_bond_site_symmetry_2
Zn1 O3 1_555 1_555
O1 C8 1_555 1_555
O2 C1 1_555 1_555
C1 O4 1_555 1_555
C2 H1 1_555 1_555
C3 C4 1_555 1_555
C4 N1 1_555 1_555
O3 C14 1_555 1_555
O4 Zn1C 1_555 1_555
N1 H2 1_555 1_555
C5 C1 1_555 1_555
C6 C2 1_555 1_555
H3 C6 1_555 1_555
O5 C14 1_555 1_555
C7 C5 1_555 1_555
H4 C7 1_555 1_555
C8 C2 1_555 1_555
C9 O1 1_555 1_555
N2 Zn1 1_555 1_555
C10 C3 1_555 1_555
H5 C10 1_555 1_555
N3 C4 1_555 1_555
C11 C9 1_555 1_555
C12 C7 1_555 1_555
H6 C12 1_555 1_555
C13 C3 1_555 1_555
H7 C13 1_555 1_555
C14 C11 1_555 1_555
C15 N1 1_555 1_555
C16 N3 1_555 1_555
C17 N2 1_555 1_555
H8 C17 1_555 1_555
C18 C9 1_555 1_555
H9 C18 1_555 1_555
C19 C11 1_555 1_555
H10 C19 1_555 1_555
C20 N2 1_555 1_555
H11 C20 1_555 1_555
C21 C15 1_555 1_555
H12 C21 1_555 1_555
C22 C16 1_555 1_555
H13 C22 1_555 1_555
C23 C18 1_555 1_555
H14 C23 1_555 1_555
C24 C22 1_555 1_555
H15 C24 1_555 1_555
C25 C21 1_555 1_555
H16 C25 1_555 1_555
C26 C19 1_555 1_555
H17 C26 1_555 1_555
Zn1B O5 1_555 1_555
O4C Zn1 1_555 1_555
O5B Zn1 1_555 1_555
C5 C6 1_555 1_555
C8 C12 1_555 1_555
C10 C20 1_555 1_555
C13 C17 1_555 1_555
C15 C16 1_555 1_555
C23 C26 1_555 1_555
C24 C25 1_555 1_555

#END
