
#######################################################################
#
#                 Cambridge Crystallographic Data Centre
#                                CCDC 
#
#######################################################################
#
# If this CIF has been generated from an entry in the Cambridge 
# Structural Database, then it will include bibliographic, chemical, 
# crystal, experimental, refinement or atomic coordinate data resulting 
# from the CCDC's data processing and validation procedures.
#
#######################################################################

data_NAZWUI
_symmetry_cell_setting           monoclinic
_symmetry_space_group_name_H-M   'C 2/c'
_symmetry_Int_Tables_number      15
_space_group_name_Hall           '-C 2yn'
loop_
_symmetry_equiv_pos_site_id
_symmetry_equiv_pos_as_xyz
1 x,y,z
2 -x,y,1/2-z
3 1/2+x,1/2+y,z
4 1/2-x,1/2+y,1/2-z
5 -x,-y,-z
6 x,-y,1/2+z
7 1/2-x,1/2-y,-z
8 1/2+x,1/2-y,1/2+z
_cell_length_a                   18.233
_cell_length_b                   7.531
_cell_length_c                   26.298
_cell_angle_alpha                90
_cell_angle_beta                 110.28
_cell_angle_gamma                90
_cell_volume                     3387.2
loop_
_atom_site_label
_atom_site_type_symbol
_atom_site_fract_x
_atom_site_fract_y
_atom_site_fract_z
Zn1 Zn 0.0000 0.0010(7) 0.2500
Zn2 Zn 0.0000 1.0000 0.0000
Ni1 Ni -0.0004(3) 0.5017(6) 0.1249(2)
N1 N -0.116(2) -0.001(4) 0.1894(12)
N2 N 0.117(2) 1.003(4) 0.0618(12)
C1 C -0.127(2) -0.010(5) 0.1342(14)
H1 H -0.0839 -0.0166 0.1236
C2 C 0.025(3) 0.321(5) 0.1760(18)
C3 C -0.026(3) 0.320(5) 0.0717(19)
C4 C 0.025(3) -0.321(5) 0.1762(18)
C5 C -0.027(3) 0.680(6) 0.0714(19)
C6 C 0.184(2) 1.002(4) 0.0502(15)
H2 H 0.1811 0.9915 0.0144
C7 C -0.180(2) 0.006(5) 0.2018(16)
H3 H -0.1758 0.0135 0.2380
N3 N -0.034(2) 0.793(4) 0.0447(14)
N4 N 0.033(2) -0.208(4) 0.2048(14)
N5 N -0.033(2) 0.204(4) 0.0444(14)
N6 N 0.035(2) 0.202(4) 0.2065(14)
N7 N 0.1975(19) 0.998(4) 0.1540(11)
N8 N -0.1977(19) -0.009(4) 0.0967(11)
C8 C -0.255(2) 0.003(5) 0.1606(15)
H4 H -0.3011 0.0155 0.1686
C9 C 0.259(2) 1.019(5) 0.0917(15)
H5 H 0.3032 1.0408 0.0833
C10 C 0.128(2) 1.001(4) 0.1156(14)
H6 H 0.0843 1.0010 0.1260
C11 C 0.262(2) 1.002(5) 0.1394(15)
C12 C 0.338(2) 0.989(5) 0.1904(13)
H7 H 0.3248 0.9982 0.2226
H8 H 0.3731 1.0831 0.1898
H9 H 0.3630 0.8764 0.1903
C13 C -0.257(2) -0.018(5) 0.1098(15)
C14 C -0.335(2) -0.002(5) 0.0689(13)
H10 H -0.3326 -0.0184 0.0335
H11 H -0.3560 0.1138 0.0713
H12 H -0.3690 -0.0907 0.0754
Zn2_2 Zn 0.0000 0.0000 0.0000
Zn2A Zn 0.0000 0.0000 0.5000
Zn2A_2 Zn 0.0000 1.0000 0.5000
Ni1A Ni 0.0004(3) 0.5017(6) 0.3751(2)
Ni1_2 Ni -0.0004(3) -0.4983(6) 0.1249(2)
Ni1A_2 Ni 0.0004(3) -0.4983(6) 0.3751(2)
N1A N 0.116(2) -0.001(4) 0.3106(12)
N2D N -0.117(2) 0.997(4) -0.0618(12)
C1A C 0.127(2) -0.010(5) 0.3658(14)
H1A H 0.0839 -0.0166 0.3764
C2A C -0.025(3) 0.321(5) 0.3240(18)
C3A C 0.026(3) 0.320(5) 0.4283(19)
C4A C -0.025(3) -0.321(5) 0.3238(18)
C4_2 C 0.025(3) 0.679(5) 0.1762(18)
C4A_2 C -0.025(3) 0.679(5) 0.3238(18)
C5A C 0.027(3) 0.680(6) 0.4286(19)
C6D C -0.184(2) 0.998(4) -0.0502(15)
H2D H -0.1811 1.0085 -0.0144
C7A C 0.180(2) 0.006(5) 0.2982(16)
H3A H 0.1758 0.0135 0.2620
N3A N 0.034(2) 0.793(4) 0.4553(14)
N3D N 0.034(2) 1.207(4) -0.0447(14)
N4A N -0.033(2) -0.208(4) 0.2952(14)
N5A N 0.033(2) 0.204(4) 0.4556(14)
N5_2 N -0.033(2) 1.204(4) 0.0444(14)
N5D N 0.033(2) 0.796(4) -0.0444(14)
N6A N -0.035(2) 0.202(4) 0.2935(14)
N7D N -0.1975(19) 1.002(4) -0.1540(11)
N8A N 0.1977(19) -0.009(4) 0.4033(11)
C8A C 0.255(2) 0.003(5) 0.3394(15)
H4A H 0.3011 0.0155 0.3314
C9D C -0.259(2) 0.981(5) -0.0917(15)
H5D H -0.3032 0.9592 -0.0833
C10D C -0.128(2) 0.999(4) -0.1156(14)
H6D H -0.0843 0.9990 -0.1260
C11D C -0.262(2) 0.998(5) -0.1394(15)
C12D C -0.338(2) 1.011(5) -0.1904(13)
H7D H -0.3248 1.0018 -0.2226
H8D H -0.3731 0.9169 -0.1898
H9D H -0.3630 1.1236 -0.1903
C13A C 0.257(2) -0.018(5) 0.3902(15)
C14A C 0.335(2) -0.002(5) 0.4311(13)
H10A H 0.3326 -0.0184 0.4665
H11A H 0.3560 0.1138 0.4287
H12A H 0.3690 -0.0907 0.4246
loop_
_geom_bond_atom_site_label_1
_geom_bond_atom_site_label_2
_geom_bond_site_symmetry_1
_geom_bond_site_symmetry_2
Zn1 N1 1_555 1_555
Zn2 N2 1_555 1_555
Ni1 C2 1_555 1_555
N1 C1 1_555 1_555
N2 C6 1_555 1_555
C1 H1 1_555 1_555
C2 N6 1_555 1_555
C3 Ni1 1_555 1_555
C4 N4 1_555 1_555
C5 Ni1 1_555 1_555
C6 H2 1_555 1_555
C7 N1 1_555 1_555
H3 C7 1_555 1_555
N3 Zn2 1_555 1_555
N4 Zn1 1_555 1_555
N5 C3 1_555 1_555
N6 Zn1 1_555 1_555
N7 C10 1_555 1_555
N8 C1 1_555 1_555
C8 C7 1_555 1_555
H4 C8 1_555 1_555
C9 C6 1_555 1_555
H5 C9 1_555 1_555
C10 N2 1_555 1_555
H6 C10 1_555 1_555
C11 N7 1_555 1_555
C12 C11 1_555 1_555
H7 C12 1_555 1_555
H8 C12 1_555 1_555
H9 C12 1_555 1_555
C13 N8 1_555 1_555
C14 C13 1_555 1_555
H10 C14 1_555 1_555
H11 C14 1_555 1_555
H12 C14 1_555 1_555
Zn2_2 N5 1_555 1_555
Zn2A N5A 1_555 1_555
Zn2A_2 N3A 1_555 1_555
Ni1A C2A 1_555 1_555
Ni1_2 C4 1_555 1_555
Ni1A_2 C4A 1_555 1_555
N1A Zn1 1_555 1_555
N2D Zn2 1_555 1_555
C1A N1A 1_555 1_555
H1A C1A 1_555 1_555
C2A N6A 1_555 1_555
C3A Ni1A 1_555 1_555
C4A N4A 1_555 1_555
C4_2 Ni1 1_555 1_555
C4A_2 Ni1A 1_555 1_555
C5A Ni1A 1_555 1_555
C6D N2D 1_555 1_555
H2D C6D 1_555 1_555
C7A N1A 1_555 1_555
H3A C7A 1_555 1_555
N3A C5A 1_555 1_555
N3D Zn2 1_555 1_555
N4A Zn1 1_555 1_555
N5A C3A 1_555 1_555
N5_2 Zn2 1_555 1_555
N5D Zn2 1_555 1_555
N6A Zn1 1_555 1_555
N7D C10D 1_555 1_555
N8A C1A 1_555 1_555
C8A C7A 1_555 1_555
H4A C8A 1_555 1_555
C9D C6D 1_555 1_555
H5D C9D 1_555 1_555
C10D N2D 1_555 1_555
H6D C10D 1_555 1_555
C11D N7D 1_555 1_555
C12D C11D 1_555 1_555
H7D C12D 1_555 1_555
H8D C12D 1_555 1_555
H9D C12D 1_555 1_555
C13A N8A 1_555 1_555
C14A C13A 1_555 1_555
H10A C14A 1_555 1_555
H11A C14A 1_555 1_555
H12A C14A 1_555 1_555
C5 N3 1_555 1_555
C8 C13 1_555 1_555
C9 C11 1_555 1_555
C8A C13A 1_555 1_555
C9D C11D 1_555 1_555

#END
