
#######################################################################
#
#                 Cambridge Crystallographic Data Centre
#                                CCDC 
#
#######################################################################
#
# If this CIF has been generated from an entry in the Cambridge 
# Structural Database, then it will include bibliographic, chemical, 
# crystal, experimental, refinement or atomic coordinate data resulting 
# from the CCDC's data processing and validation procedures.
#
#######################################################################

data_NAZWAO
_symmetry_cell_setting           monoclinic
_symmetry_space_group_name_H-M   'P 21/n'
_symmetry_Int_Tables_number      14
_space_group_name_Hall           '-P 2yn'
loop_
_symmetry_equiv_pos_site_id
_symmetry_equiv_pos_as_xyz
1 x,y,z
2 1/2-x,1/2+y,1/2-z
3 -x,-y,-z
4 1/2+x,1/2-y,1/2+z
_cell_length_a                   12.562(8)
_cell_length_b                   14.800(9)
_cell_length_c                   13.723(8)
_cell_angle_alpha                90
_cell_angle_beta                 97.257(10)
_cell_angle_gamma                90
_cell_volume                     2530.91
loop_
_atom_site_label
_atom_site_type_symbol
_atom_site_fract_x
_atom_site_fract_y
_atom_site_fract_z
Cd1 Cd 0.53716(3) 0.16223(2) 0.94116(2)
N1 N 1.0513(3) 0.3367(3) 1.0083(3)
N2 N 0.7141(3) 0.1704(2) 0.9150(3)
C1 C 0.7931(4) 0.3469(3) 1.1003(3)
N3 N 0.9824(3) 0.4127(3) 1.1262(3)
H1 H 0.9780 0.4498 1.1737
O1 O 0.4654(3) 0.2431(3) 0.8043(3)
C2 C 0.3154(3) 0.3809(3) 0.7080(3)
N4 N 0.6254(3) 0.2721(2) 1.0480(3)
C3 C 0.9030(4) 0.3553(3) 1.0845(3)
C4 C 0.2976(4) 0.3217(3) 0.7865(3)
C5 C 0.4172(4) 0.3961(3) 0.6774(3)
H2 H 0.4762 0.3632 0.7059
C6 C 0.2256(3) 0.4298(3) 0.6595(3)
C7 C 0.3796(3) 0.2702(3) 0.8393(3)
C8 C 0.7309(3) 0.2843(3) 1.0410(3)
C9 C 0.7426(4) 0.3975(3) 1.1676(4)
H3 H 0.7815 0.4392 1.2084
O2 O 0.3752(3) 0.2409(3) 0.9270(3)
C10 C 1.0696(4) 0.3995(3) 1.0774(3)
C11 C 0.8858(4) 0.2435(3) 0.9533(3)
C12 C 0.3426(4) 0.5089(4) 0.5611(4)
H4 H 0.3533 0.5526 0.5146
C13 C 0.1095(4) 0.3605(3) 0.7648(3)
H5 H 0.0419 0.3529 0.7846
C14 C 0.7781(4) 0.2312(3) 0.9686(3)
C15 C 0.2423(4) 0.4938(3) 0.5856(3)
H6 H 0.1843 0.5255 0.5536
C16 C 0.9472(4) 0.3093(3) 1.0127(3)
C17 C 0.7540(4) 0.1222(3) 0.8478(4)
H7 H 0.7096 0.0806 0.8117
C18 C 0.1979(4) 0.3142(3) 0.8143(4)
H8 H 0.1879 0.2775 0.8675
C19 C 1.1690(4) 0.4518(3) 1.0967(3)
C20 C 0.8600(4) 0.1304(4) 0.8282(4)
H9 H 0.8851 0.0953 0.7797
C21 C 0.4298(4) 0.4585(4) 0.6064(4)
H10 H 0.4976 0.4677 0.5877
C22 C 1.2759(5) 0.5727(4) 1.1756(4)
C23 C 0.6358(4) 0.3849(4) 1.1724(4)
H11 H 0.6008 0.4185 1.2160
C24 C 0.5799(4) 0.3212(3) 1.1116(4)
H12 H 0.5072 0.3128 1.1159
C25 C 1.1790(4) 0.5253(3) 1.1603(4)
H13 H 1.1215 0.5428 1.1926
C26 C 1.3505(5) 0.4788(4) 1.0623(4)
H14 H 1.4078 0.4632 1.0289
C27 C 0.9264(4) 0.1907(3) 0.8813(4)
H15 H 0.9975 0.1966 0.8700
C28 C 1.2564(4) 0.4288(4) 1.0483(4)
H16 H 1.2515 0.3794 1.0062
C29 C 0.1220(3) 0.4164(3) 0.6881(3)
O3 O 1.2948(4) 0.6437(3) 1.2391(4)
C30 C 1.3590(5) 0.5509(4) 1.1249(4)
H17 H 1.4215 0.5852 1.1330
C31 C 1.2261(6) 0.6583(5) 1.3084(6)
H18 H 1.2495 0.7102 1.3473
H19 H 1.2260 0.6062 1.3502
H20 H 1.1548 0.6686 1.2760
O4 O -0.0035(3) 0.5362(2) 0.6655(2)
C32 C 0.0254(3) 0.4619(3) 0.6322(3)
O5 O -0.0217(2) 0.4233(2) 0.5580(2)
Cd1A Cd -0.03716(3) 0.66223(2) 0.55884(2)
Cd1C Cd 0.03716(3) 0.33777(2) 0.44116(2)
O4A O 0.5035(3) 0.0362(2) 0.8345(2)
O5C O 0.4783(2) 0.0767(2) 1.0580(2)
loop_
_geom_bond_atom_site_label_1
_geom_bond_atom_site_label_2
_geom_bond_site_symmetry_1
_geom_bond_site_symmetry_2
Cd1 N2 1_555 1_555
N1 C10 1_555 1_555
N2 C14 1_555 1_555
C1 C3 1_555 1_555
N3 H1 1_555 1_555
O1 Cd1 1_555 1_555
C2 C4 1_555 1_555
N4 Cd1 1_555 1_555
C3 N3 1_555 1_555
C4 C7 1_555 1_555
C5 C2 1_555 1_555
H2 C5 1_555 1_555
C6 C2 1_555 1_555
C7 O1 1_555 1_555
C8 C1 1_555 1_555
C9 C1 1_555 1_555
H3 C9 1_555 1_555
O2 Cd1 1_555 1_555
C10 N3 1_555 1_555
C11 C14 1_555 1_555
C12 H4 1_555 1_555
C13 H5 1_555 1_555
C14 C8 1_555 1_555
C15 C6 1_555 1_555
H6 C15 1_555 1_555
C16 N1 1_555 1_555
C17 N2 1_555 1_555
H7 C17 1_555 1_555
C18 C4 1_555 1_555
H8 C18 1_555 1_555
C19 C10 1_555 1_555
C20 C17 1_555 1_555
H9 C20 1_555 1_555
C21 C5 1_555 1_555
H10 C21 1_555 1_555
C22 C25 1_555 1_555
C23 C9 1_555 1_555
H11 C23 1_555 1_555
C24 N4 1_555 1_555
H12 C24 1_555 1_555
C25 C19 1_555 1_555
H13 C25 1_555 1_555
C26 H14 1_555 1_555
C27 C11 1_555 1_555
H15 C27 1_555 1_555
C28 C19 1_555 1_555
H16 C28 1_555 1_555
C29 C6 1_555 1_555
O3 C22 1_555 1_555
C30 C22 1_555 1_555
H17 C30 1_555 1_555
C31 O3 1_555 1_555
H18 C31 1_555 1_555
H19 C31 1_555 1_555
H20 C31 1_555 1_555
O4 C32 1_555 1_555
C32 C29 1_555 1_555
O5 C32 1_555 1_555
Cd1A O4 1_555 1_555
Cd1C O5 1_555 1_555
O4A Cd1 1_555 1_555
O5C Cd1 1_555 1_555
N4 C8 1_555 1_555
C3 C16 1_555 1_555
C7 O2 1_555 1_555
C11 C16 1_555 1_555
C12 C15 1_555 1_555
C12 C21 1_555 1_555
C13 C18 1_555 1_555
C13 C29 1_555 1_555
C20 C27 1_555 1_555
C23 C24 1_555 1_555
C26 C28 1_555 1_555
C26 C30 1_555 1_555

#END
