
#######################################################################
#
#                 Cambridge Crystallographic Data Centre
#                                CCDC 
#
#######################################################################
#
# If this CIF has been generated from an entry in the Cambridge 
# Structural Database, then it will include bibliographic, chemical, 
# crystal, experimental, refinement or atomic coordinate data resulting 
# from the CCDC's data processing and validation procedures.
#
#######################################################################

data_NAZWIW
_symmetry_cell_setting           monoclinic
_symmetry_space_group_name_H-M   'P 21/c'
_symmetry_Int_Tables_number      14
_space_group_name_Hall           '-P 2ybc'
loop_
_symmetry_equiv_pos_site_id
_symmetry_equiv_pos_as_xyz
1 x,y,z
2 -x,1/2+y,1/2-z
3 -x,-y,-z
4 x,1/2-y,1/2+z
_cell_length_a                   17.275(5)
_cell_length_b                   14.316(5)
_cell_length_c                   17.465(5)
_cell_angle_alpha                90
_cell_angle_beta                 99.489(5)
_cell_angle_gamma                90
_cell_volume                     4260.15
loop_
_atom_site_label
_atom_site_type_symbol
_atom_site_fract_x
_atom_site_fract_y
_atom_site_fract_z
Zn1 Zn -0.36329(4) 0.37689(4) 0.12746(4)
Zn2 Zn -0.15658(4) -0.12136(4) 0.34800(4)
O1 O -0.3818(2) 0.3866(2) 0.3840(2)
O2 O -0.1242(2) -0.0991(3) 0.0661(2)
O3 O -0.1557(2) -0.1399(3) 0.2149(2)
O4 O -0.2613(2) 0.8041(3) 0.3526(2)
O5 O -0.4973(2) 0.3140(3) 0.1650(2)
O6 O -0.1506(3) 0.7267(3) 0.3692(2)
C1 C -0.3476(3) 0.4731(4) 0.3753(3)
C2 C -0.4635(4) 0.3527(4) 0.2238(4)
N1 N -0.3143(3) 0.5073(3) 0.1112(3)
N2 N -0.2058(3) 0.0126(3) 0.3534(3)
C3 C -0.4632(3) 0.3800(3) 0.3691(3)
C4 C -0.0838(4) -0.1310(4) 0.2349(4)
C5 C -0.3886(3) 0.5560(4) 0.3676(3)
H1 H -0.4428 0.5564 0.3651
C6 C -0.5023(3) 0.3603(3) 0.2952(3)
N3 N -0.1140(3) -0.0819(4) 0.4619(3)
C7 C -0.5022(3) 0.3857(4) 0.4312(3)
H2 H -0.4747 0.3976 0.4806
N4 N -0.4183(3) 0.4096(3) 0.0164(3)
C8 C -0.0478(3) -0.1241(4) 0.1006(3)
C9 C -0.0284(3) -0.1400(4) 0.1784(3)
C10 C -0.2245(4) 0.7287(4) 0.3630(3)
C11 C -0.1535(3) -0.0148(4) 0.0845(3)
O7 O -0.3973(3) 0.3902(3) 0.2269(2)
C12 C -0.5841(3) 0.3487(4) 0.2856(3)
H3 H -0.6118 0.3360 0.2364
C13 C -0.2284(3) 0.5533(4) 0.3752(3)
H4 H -0.1742 0.5523 0.3776
C14 C -0.3341(3) 0.5430(4) 0.0396(3)
C15 C -0.2683(3) 0.6397(4) 0.3679(3)
C16 C -0.3481(3) 0.6389(4) 0.3634(3)
H5 H -0.3757 0.6950 0.3575
C17 C -0.1077(3) 0.0582(4) 0.1166(3)
H6 H -0.0536 0.0511 0.1300
O8 O -0.2221(4) 0.3124(3) 0.1483(3)
C18 C -0.6240(3) 0.3555(4) 0.3466(3)
H7 H -0.6782 0.3481 0.3390
C19 C -0.3882(3) 0.4849(4) -0.0144(3)
C20 C -0.2212(4) 0.1554(4) 0.1110(3)
O9 O -0.0543(3) -0.1160(3) 0.3040(3)
C21 C -0.1392(3) -0.0009(4) 0.4841(4)
C22 C -0.3048(4) 0.6280(4) 0.0207(4)
H8 H -0.3171 0.6519 -0.0293
C23 C -0.1428(4) 0.1417(4) 0.1287(3)
H9 H -0.1113 0.1910 0.1499
C24 C -0.2600(6) 0.2446(5) 0.1228(4)
C25 C -0.5829(4) 0.3736(4) 0.4198(4)
H10 H -0.6096 0.3777 0.4618
C26 C -0.2680(3) 0.4710(4) 0.3788(3)
H11 H -0.2411 0.4145 0.3836
C27 C -0.1919(4) 0.0516(4) 0.4244(4)
C28 C 0.0046(4) -0.1351(4) 0.0504(3)
H12 H -0.0109 -0.1243 -0.0024
C29 C -0.2331(4) -0.0053(5) 0.0658(3)
H13 H -0.2640 -0.0553 0.0449
C30 C -0.2669(4) 0.0795(5) 0.0784(3)
H14 H -0.3209 0.0866 0.0650
C31 C -0.2261(4) 0.1338(5) 0.4386(5)
H15 H -0.2171 0.1595 0.4882
C32 C -0.2660(4) 0.5565(5) 0.1664(4)
H16 H -0.2516 0.5307 0.2156
O10 O -0.3348(4) 0.2474(3) 0.1068(3)
C33 C -0.2864(5) 0.1400(5) 0.3053(6)
H17 H -0.3176 0.1702 0.2642
C34 C 0.1026(4) -0.1786(5) 0.1582(4)
H18 H 0.1535 -0.1970 0.1785
C35 C -0.2739(5) 0.1790(5) 0.3795(6)
H19 H -0.2977 0.2351 0.3889
C36 C -0.4668(4) 0.3551(4) -0.0279(4)
H20 H -0.4855 0.3023 -0.0059
C37 C 0.0814(4) -0.1625(5) 0.0792(4)
H21 H 0.1178 -0.1699 0.0460
C38 C -0.2515(4) 0.0558(5) 0.2944(4)
H22 H -0.2598 0.0283 0.2455
C39 C 0.0483(3) -0.1672(4) 0.2056(3)
H23 H 0.0632 -0.1780 0.2585
C40 C -0.4109(4) 0.5062(5) -0.0922(4)
H24 H -0.3914 0.5591 -0.1133
C41 C -0.4918(4) 0.3718(5) -0.1060(4)
H25 H -0.5275 0.3324 -0.1359
C42 C -0.2563(4) 0.6770(5) 0.0785(5)
H26 H -0.2360 0.7346 0.0671
C43 C -0.0655(4) -0.1336(5) 0.5126(4)
H27 H -0.0485 -0.1907 0.4962
C44 C -0.0402(4) -0.1068(6) 0.5862(5)
H28 H -0.0066 -0.1448 0.6198
C45 C -0.2383(4) 0.6416(5) 0.1516(5)
H29 H -0.2075 0.6755 0.1907
C46 C -0.1158(5) 0.0310(5) 0.5598(4)
H30 H -0.1341 0.0875 0.5760
C47 C -0.4621(5) 0.4487(6) -0.1375(4)
H31 H -0.4768 0.4617 -0.1900
C48 C -0.0643(5) -0.0242(7) 0.6106(5)
H32 H -0.0466 -0.0040 0.6611
Zn2_2 Zn -0.15658(4) 0.87864(4) 0.34800(4)
O4_2 O -0.2613(2) -0.1959(3) 0.3526(2)
O6_2 O -0.1506(3) -0.2733(3) 0.3692(2)
loop_
_geom_bond_atom_site_label_1
_geom_bond_atom_site_label_2
_geom_bond_site_symmetry_1
_geom_bond_site_symmetry_2
Zn1 N1 1_555 1_555
Zn2 O3 1_555 1_555
O1 C1 1_555 1_555
O2 C8 1_555 1_555
O3 C4 1_555 1_555
O4 C10 1_555 1_555
O5 C2 1_555 1_555
O6 C10 1_555 1_555
C1 C5 1_555 1_555
C2 C6 1_555 1_555
N1 C14 1_555 1_555
N2 Zn2 1_555 1_555
C3 O1 1_555 1_555
C4 C9 1_555 1_555
C5 H1 1_555 1_555
C6 C3 1_555 1_555
N3 Zn2 1_555 1_555
C7 C3 1_555 1_555
H2 C7 1_555 1_555
N4 Zn1 1_555 1_555
C8 C9 1_555 1_555
C9 C39 1_555 1_555
C10 C15 1_555 1_555
C11 O2 1_555 1_555
O7 Zn1 1_555 1_555
C12 C6 1_555 1_555
H3 C12 1_555 1_555
C13 H4 1_555 1_555
C14 C19 1_555 1_555
C15 C13 1_555 1_555
C16 C5 1_555 1_555
H5 C16 1_555 1_555
C17 C11 1_555 1_555
H6 C17 1_555 1_555
O8 C24 1_555 1_555
C18 C12 1_555 1_555
H7 C18 1_555 1_555
C19 N4 1_555 1_555
C20 C23 1_555 1_555
O9 Zn2 1_555 1_555
C21 N3 1_555 1_555
C22 C14 1_555 1_555
H8 C22 1_555 1_555
C23 C17 1_555 1_555
H9 C23 1_555 1_555
C24 C20 1_555 1_555
C25 C7 1_555 1_555
H10 C25 1_555 1_555
C26 C1 1_555 1_555
H11 C26 1_555 1_555
C27 N2 1_555 1_555
C28 C8 1_555 1_555
H12 C28 1_555 1_555
C29 C11 1_555 1_555
H13 C29 1_555 1_555
C30 C20 1_555 1_555
H14 C30 1_555 1_555
C31 C27 1_555 1_555
H15 C31 1_555 1_555
C32 N1 1_555 1_555
H16 C32 1_555 1_555
O10 Zn1 1_555 1_555
C33 H17 1_555 1_555
C34 H18 1_555 1_555
C35 C31 1_555 1_555
H19 C35 1_555 1_555
C36 N4 1_555 1_555
H20 C36 1_555 1_555
C37 C28 1_555 1_555
H21 C37 1_555 1_555
C38 N2 1_555 1_555
H22 C38 1_555 1_555
C39 C34 1_555 1_555
H23 C39 1_555 1_555
C40 C19 1_555 1_555
H24 C40 1_555 1_555
C41 C36 1_555 1_555
H25 C41 1_555 1_555
C42 C22 1_555 1_555
H26 C42 1_555 1_555
C43 N3 1_555 1_555
H27 C43 1_555 1_555
C44 C43 1_555 1_555
H28 C44 1_555 1_555
C45 C32 1_555 1_555
H29 C45 1_555 1_555
C46 C21 1_555 1_555
H30 C46 1_555 1_555
C47 C40 1_555 1_555
H31 C47 1_555 1_555
C48 C44 1_555 1_555
H32 C48 1_555 1_555
Zn2_2 O4 1_555 1_555
O4_2 Zn2 1_555 1_555
O6_2 Zn2 1_555 1_555
O6 Zn2_2 1_555 1_555
C2 O7 1_555 1_555
C4 O9 1_555 1_555
C13 C26 1_555 1_555
C15 C16 1_555 1_555
C18 C25 1_555 1_555
C21 C27 1_555 1_555
C24 O10 1_555 1_555
C29 C30 1_555 1_555
C33 C35 1_555 1_555
C33 C38 1_555 1_555
C34 C37 1_555 1_555
C41 C47 1_555 1_555
C42 C45 1_555 1_555
C46 C48 1_555 1_555

#END
