
#######################################################################
#
#                 Cambridge Crystallographic Data Centre
#                                CCDC 
#
#######################################################################
#
# If this CIF has been generated from an entry in the Cambridge 
# Structural Database, then it will include bibliographic, chemical, 
# crystal, experimental, refinement or atomic coordinate data resulting 
# from the CCDC's data processing and validation procedures.
#
#######################################################################

data_NAZWES
_symmetry_cell_setting           monoclinic
_symmetry_space_group_name_H-M   'P 21/n'
_symmetry_Int_Tables_number      14
_space_group_name_Hall           '-P 2yn'
loop_
_symmetry_equiv_pos_site_id
_symmetry_equiv_pos_as_xyz
1 x,y,z
2 1/2-x,1/2+y,1/2-z
3 -x,-y,-z
4 1/2+x,1/2-y,1/2+z
_cell_length_a                   9.915(5)
_cell_length_b                   9.567(5)
_cell_length_c                   19.514(5)
_cell_angle_alpha                90
_cell_angle_beta                 95.972(5)
_cell_angle_gamma                90
_cell_volume                     1840.99
loop_
_atom_site_label
_atom_site_type_symbol
_atom_site_fract_x
_atom_site_fract_y
_atom_site_fract_z
Zn1 Zn 0.037526(19) 0.138112(19) 0.533393(10)
O1 O -0.24443(12) -0.30309(13) 0.63209(6)
O2 O -0.00320(15) 0.04093(14) 0.62073(7)
O3 O -0.82800(12) -0.17963(13) 0.48570(7)
O4 O -0.78345(13) 0.02920(13) 0.53467(7)
C1 C -0.36072(16) -0.24008(18) 0.60179(9)
N1 N 0.10517(14) 0.33044(14) 0.55900(7)
N2 N 0.16963(15) 0.54891(15) 0.54474(8)
H1 H 0.1925 0.6236 0.5243
O5 O -0.04386(14) -0.16632(14) 0.57052(6)
C2 C -0.07949(17) -0.14033(17) 0.68799(9)
C3 C -0.60804(16) -0.13797(17) 0.54202(9)
C4 C 0.16151(17) 0.53347(18) 0.61460(10)
C5 C -0.43541(17) -0.3171(2) 0.55112(10)
H2 H -0.4031 -0.4026 0.5372
C6 C -0.52713(18) -0.05885(18) 0.58940(9)
H3 H -0.5561 0.0296 0.6011
C7 C -0.40396(18) -0.10854(19) 0.61982(10)
H4 H -0.3511 -0.0545 0.6518
C8 C -0.55840(16) -0.26614(18) 0.52132(9)
H5 H -0.6085 -0.3177 0.4872
C9 C 0.12038(17) 0.39596(18) 0.62312(9)
C10 C -0.74948(17) -0.09141(18) 0.51829(9)
C11 C 0.13524(17) 0.42589(18) 0.51449(9)
H6 H 0.1330 0.4100 0.4674
C12 C 0.1841(2) 0.6257(2) 0.66974(12)
H7 H 0.2110 0.7176 0.6637
C13 C -0.01629(19) -0.0874(2) 0.74985(9)
H8 H 0.0500 -0.0188 0.7489
C14 C -0.17885(17) -0.24172(18) 0.69164(9)
C15 C 0.1001(2) 0.3455(2) 0.68798(11)
H9 H 0.0720 0.2540 0.6943
C16 C 0.1647(2) 0.5744(3) 0.73314(12)
H10 H 0.1793 0.6327 0.7713
C17 C -0.03954(17) -0.08499(19) 0.62094(9)
C18 C -0.2158(2) -0.2880(2) 0.75409(11)
H11 H -0.2837 -0.3547 0.7553
C19 C -0.0509(3) -0.1355(2) 0.81265(11)
H12 H -0.0064 -0.1010 0.8535
C20 C 0.1234(3) 0.4365(3) 0.74231(11)
H13 H 0.1113 0.4056 0.7864
C21 C -0.1515(3) -0.2347(3) 0.81463(11)
H14 H -0.1760 -0.2656 0.8568
Zn1B Zn -1.037526(19) -0.138112(19) 0.466607(10)
Zn1_2 Zn -0.962474(19) 0.138112(19) 0.533393(10)
Zn1B_2 Zn -0.037526(19) -0.138112(19) 0.466607(10)
O3B O -0.17200(12) 0.17963(13) 0.51430(7)
O4_2 O 0.21655(13) 0.02920(13) 0.53467(7)
O5B O 0.04386(14) 0.16632(14) 0.42948(6)
loop_
_geom_bond_atom_site_label_1
_geom_bond_atom_site_label_2
_geom_bond_site_symmetry_1
_geom_bond_site_symmetry_2
Zn1 O2 1_555 1_555
O1 C1 1_555 1_555
O2 C17 1_555 1_555
O3 C10 1_555 1_555
O4 C10 1_555 1_555
C1 C5 1_555 1_555
N1 Zn1 1_555 1_555
N2 H1 1_555 1_555
O5 C17 1_555 1_555
C2 C13 1_555 1_555
C3 C6 1_555 1_555
C4 N2 1_555 1_555
C5 H2 1_555 1_555
C6 H3 1_555 1_555
C7 C1 1_555 1_555
H4 C7 1_555 1_555
C8 C3 1_555 1_555
H5 C8 1_555 1_555
C9 N1 1_555 1_555
C10 C3 1_555 1_555
C11 N1 1_555 1_555
H6 C11 1_555 1_555
C12 C4 1_555 1_555
H7 C12 1_555 1_555
C13 H8 1_555 1_555
C14 O1 1_555 1_555
C15 C9 1_555 1_555
H9 C15 1_555 1_555
C16 C12 1_555 1_555
H10 C16 1_555 1_555
C17 C2 1_555 1_555
C18 C14 1_555 1_555
H11 C18 1_555 1_555
C19 C13 1_555 1_555
H12 C19 1_555 1_555
C20 C15 1_555 1_555
H13 C20 1_555 1_555
C21 C18 1_555 1_555
H14 C21 1_555 1_555
Zn1B O3 1_555 1_555
Zn1_2 O4 1_555 1_555
Zn1B_2 O5 1_555 1_555
O3B Zn1 1_555 1_555
O4_2 Zn1 1_555 1_555
O5B Zn1 1_555 1_555
N2 C11 1_555 1_555
C2 C14 1_555 1_555
C4 C9 1_555 1_555
C5 C8 1_555 1_555
C6 C7 1_555 1_555
C16 C20 1_555 1_555
C19 C21 1_555 1_555

#END
