
#######################################################################
#
#                 Cambridge Crystallographic Data Centre
#                                CCDC 
#
#######################################################################
#
# If this CIF has been generated from an entry in the Cambridge 
# Structural Database, then it will include bibliographic, chemical, 
# crystal, experimental, refinement or atomic coordinate data resulting 
# from the CCDC's data processing and validation procedures.
#
#######################################################################

data_NAZZUL
_symmetry_cell_setting           monoclinic
_symmetry_space_group_name_H-M   'P 21/n'
_symmetry_Int_Tables_number      14
_space_group_name_Hall           '-P 2yn'
loop_
_symmetry_equiv_pos_site_id
_symmetry_equiv_pos_as_xyz
1 x,y,z
2 1/2-x,1/2+y,1/2-z
3 -x,-y,-z
4 1/2+x,1/2-y,1/2+z
_cell_length_a                   7.2186(13)
_cell_length_b                   12.8491(11)
_cell_length_c                   13.7369(14)
_cell_angle_alpha                90
_cell_angle_beta                 98.938(12)
_cell_angle_gamma                90
_cell_volume                     1258.66
loop_
_atom_site_label
_atom_site_type_symbol
_atom_site_fract_x
_atom_site_fract_y
_atom_site_fract_z
S1 S 0.75721(18) 0.35897(9) 0.53923(9)
O1 O 0.9006(5) 0.2860(3) 0.5130(3)
O2 O 0.6251(5) 0.3054(3) 0.5907(3)
O3 O 0.8563(5) 0.4424(3) 0.6015(3)
O4 O 0.6550(5) 0.4074(3) 0.4485(3)
Cu1 Cu 1.26114(9) 0.28956(4) 0.56026(4)
O5 O 1.2890(6) 0.3660(3) 0.4373(3)
H1 H 1.396(11) 0.372(6) 0.434(5)
H2 H 1.236(11) 0.418(7) 0.413(5)
O6 O 1.2272(6) 0.4201(3) 0.6301(3)
H3 H 1.101(10) 0.432(5) 0.626(4)
H4 H 1.264(10) 0.458(5) 0.600(5)
N1 N 1.2768(6) 0.1533(3) 0.4961(3)
C1 C 1.3040(7) 0.1374(4) 0.4031(4)
H5 H 1.3236 0.1946 0.3644
C2 C 1.3041(8) 0.0399(4) 0.3629(4)
H6 H 1.3242 0.0312 0.2982
C3 C 1.2736(7) -0.0458(4) 0.4200(4)
H7 H 1.2767 -0.1127 0.3945
C4 C 1.2388(7) -0.0308(4) 0.5148(4)
C5 C 1.2442(7) 0.0723(4) 0.5523(4)
O7 O 1.1991(6) -0.1060(3) 0.5767(3)
H8 H 1.1993 -0.1627 0.5494
C6 C 1.2092(9) 0.0931(4) 0.6534(4)
H9 H 1.2879 0.0477 0.6987
H10 H 1.0795 0.0769 0.6577
N2 N 1.2475(6) 0.2029(3) 0.6837(3)
C7 C 1.4291(8) 0.2111(5) 0.7500(4)
H11 H 1.4527 0.2825 0.7684
H12 H 1.5276 0.1859 0.7167
H13 H 1.4248 0.1701 0.8081
C8 C 1.0991(8) 0.2394(4) 0.7401(4)
H14 H 1.1228 0.3105 0.7596
H15 H 1.1003 0.1969 0.7976
H16 H 0.9788 0.2344 0.6993
O2_2 O 1.6251(5) 0.3054(3) 0.5907(3)
Cu1_2 Cu 0.26114(9) 0.28956(4) 0.56026(4)
loop_
_geom_bond_atom_site_label_1
_geom_bond_atom_site_label_2
_geom_bond_site_symmetry_1
_geom_bond_site_symmetry_2
S1 O1 1_555 1_555
O1 Cu1 1_555 1_555
O2 S1 1_555 1_555
O3 S1 1_555 1_555
O4 S1 1_555 1_555
Cu1 O5 1_555 1_555
O5 H1 1_555 1_555
H2 O5 1_555 1_555
O6 Cu1 1_555 1_555
H3 O6 1_555 1_555
H4 O6 1_555 1_555
N1 Cu1 1_555 1_555
C1 N1 1_555 1_555
H5 C1 1_555 1_555
C2 C1 1_555 1_555
H6 C2 1_555 1_555
C3 C2 1_555 1_555
H7 C3 1_555 1_555
C4 C3 1_555 1_555
C5 N1 1_555 1_555
O7 C4 1_555 1_555
H8 O7 1_555 1_555
C6 C5 1_555 1_555
H9 C6 1_555 1_555
H10 C6 1_555 1_555
N2 Cu1 1_555 1_555
C7 N2 1_555 1_555
H11 C7 1_555 1_555
H12 C7 1_555 1_555
H13 C7 1_555 1_555
C8 N2 1_555 1_555
H14 C8 1_555 1_555
H15 C8 1_555 1_555
H16 C8 1_555 1_555
O2_2 Cu1 1_555 1_555
Cu1_2 O2 1_555 1_555
C4 C5 1_555 1_555
C6 N2 1_555 1_555

#END
