
#######################################################################
#
#                 Cambridge Crystallographic Data Centre
#                                CCDC 
#
#######################################################################
#
# If this CIF has been generated from an entry in the Cambridge 
# Structural Database, then it will include bibliographic, chemical, 
# crystal, experimental, refinement or atomic coordinate data resulting 
# from the CCDC's data processing and validation procedures.
#
#######################################################################

data_NEBHUZ
_symmetry_cell_setting           monoclinic
_symmetry_space_group_name_H-M   'P 21/c'
_symmetry_Int_Tables_number      14
_space_group_name_Hall           '-P 2ybc'
loop_
_symmetry_equiv_pos_site_id
_symmetry_equiv_pos_as_xyz
1 x,y,z
2 -x,1/2+y,1/2-z
3 -x,-y,-z
4 x,1/2-y,1/2+z
_cell_length_a                   5.5375(3)
_cell_length_b                   22.7259(14)
_cell_length_c                   13.4228(8)
_cell_angle_alpha                90
_cell_angle_beta                 99.1790(10)
_cell_angle_gamma                90
_cell_volume                     1667.56
loop_
_atom_site_label
_atom_site_type_symbol
_atom_site_fract_x
_atom_site_fract_y
_atom_site_fract_z
Zn1 Zn 0.07369(4) 0.627907(10) 0.727615(17)
Cl1 Cl 0.02922(11) 0.63318(3) 0.88923(4)
Cl2 Cl -0.22926(10) 0.62354(3) 0.59873(4)
N1 N 0.2933(3) 0.55588(7) 0.71837(12)
N2 N 0.9448(3) 0.40473(8) 0.77037(14)
N3 N 1.0958(4) 0.35616(8) 0.76066(16)
N4 N 1.7219(3) 0.20041(7) 0.79491(12)
C1 C 0.4081(4) 0.47262(9) 0.62948(15)
H1 H 0.3737 0.4480 0.5736
C2 C 0.2572(4) 0.51913(9) 0.64022(16)
H2 H 0.1225 0.5253 0.5903
C3 C 0.4888(4) 0.54571(10) 0.78821(16)
H3 H 0.5166 0.5706 0.8439
C4 C 0.6502(4) 0.50087(10) 0.78258(16)
H4 H 0.7855 0.4962 0.8328
C5 C 0.6110(3) 0.46215(8) 0.70126(14)
C6 C 0.7796(4) 0.41200(9) 0.69427(15)
C7 C 0.7500(5) 0.37488(11) 0.60212(19)
H5 H 0.8728 0.3447 0.6099
H6 H 0.7674 0.3989 0.5448
H7 H 0.5907 0.3571 0.5920
C8 C 1.3454(4) 0.39189(11) 0.91666(17)
H8 H 1.2265 0.4229 0.9122
H9 H 1.5041 0.4084 0.9145
H10 H 1.3482 0.3709 0.9789
C9 C 1.2797(4) 0.35066(9) 0.83036(15)
C10 C 1.4343(4) 0.29860(9) 0.81927(15)
C11 C 1.3818(4) 0.26158(10) 0.73648(18)
H11 H 1.2464 0.2690 0.6876
C12 C 1.5280(4) 0.21437(10) 0.72658(17)
H12 H 1.4908 0.1908 0.6696
C13 C 1.7721(4) 0.23507(10) 0.87515(16)
H13 H 1.9060 0.2259 0.9238
C14 C 1.6347(4) 0.28401(10) 0.88962(16)
H14 H 1.6773 0.3072 0.9468
Zn1A Zn 1.92631(4) 0.127907(10) 0.772385(17)
N4A N 0.2781(3) 0.70041(7) 0.70509(12)
loop_
_geom_bond_atom_site_label_1
_geom_bond_atom_site_label_2
_geom_bond_site_symmetry_1
_geom_bond_site_symmetry_2
Zn1 Cl1 1_555 1_555
Cl2 Zn1 1_555 1_555
N1 Zn1 1_555 1_555
N2 N3 1_555 1_555
N3 C9 1_555 1_555
N4 C12 1_555 1_555
C1 H1 1_555 1_555
C2 N1 1_555 1_555
H2 C2 1_555 1_555
C3 N1 1_555 1_555
H3 C3 1_555 1_555
C4 C3 1_555 1_555
H4 C4 1_555 1_555
C5 C1 1_555 1_555
C6 N2 1_555 1_555
C7 C6 1_555 1_555
H5 C7 1_555 1_555
H6 C7 1_555 1_555
H7 C7 1_555 1_555
C8 H8 1_555 1_555
H9 C8 1_555 1_555
H10 C8 1_555 1_555
C9 C8 1_555 1_555
C10 C9 1_555 1_555
C11 C10 1_555 1_555
H11 C11 1_555 1_555
C12 C11 1_555 1_555
H12 C12 1_555 1_555
C13 N4 1_555 1_555
H13 C13 1_555 1_555
C14 C10 1_555 1_555
H14 C14 1_555 1_555
Zn1A N4 1_555 1_555
N4A Zn1 1_555 1_555
C1 C2 1_555 1_555
C4 C5 1_555 1_555
C5 C6 1_555 1_555
C13 C14 1_555 1_555

#END
