
#######################################################################
#
#                 Cambridge Crystallographic Data Centre
#                                CCDC 
#
#######################################################################
#
# If this CIF has been generated from an entry in the Cambridge 
# Structural Database, then it will include bibliographic, chemical, 
# crystal, experimental, refinement or atomic coordinate data resulting 
# from the CCDC's data processing and validation procedures.
#
#######################################################################

data_NEBHOT
_symmetry_cell_setting           triclinic
_symmetry_space_group_name_H-M   'P -1'
_symmetry_Int_Tables_number      2
_space_group_name_Hall           '-P 1'
loop_
_symmetry_equiv_pos_site_id
_symmetry_equiv_pos_as_xyz
1 x,y,z
2 -x,-y,-z
_cell_length_a                   12.2189(12)
_cell_length_b                   12.4180(13)
_cell_length_c                   13.9465(15)
_cell_angle_alpha                65.574(7)
_cell_angle_beta                 85.464(7)
_cell_angle_gamma                78.041(7)
_cell_volume                     1884.89
loop_
_atom_site_label
_atom_site_type_symbol
_atom_site_fract_x
_atom_site_fract_y
_atom_site_fract_z
Ag1 Ag -0.09158(3) -0.03735(3) 0.10335(3)
N1 N 0.0257(3) -0.1929(3) 0.1055(3)
N2 N 0.3578(3) -0.5082(3) 0.1249(3)
N3 N 0.4365(3) -0.6014(3) 0.1125(3)
N4 N 0.7851(3) -0.8932(3) 0.1168(3)
C1 C 0.2046(4) -0.3223(4) 0.1458(4)
H1 H 0.2747 -0.3418 0.1767
C2 C 0.1288(4) -0.2264(4) 0.1494(4)
H2 H 0.1488 -0.1825 0.1832
C3 C -0.0010(4) -0.2594(4) 0.0601(4)
H3 H -0.0720 -0.2381 0.0304
C4 C 0.0706(4) -0.3583(4) 0.0545(4)
H4 H 0.0474 -0.4026 0.0228
C5 C 0.1786(4) -0.3911(4) 0.0969(4)
C6 C 0.2603(4) -0.4918(4) 0.0860(4)
C7 C 0.2259(4) -0.5624(4) 0.0338(5)
H5 H 0.2880 -0.6238 0.0332
H6 H 0.2026 -0.5098 -0.0372
H7 H 0.1650 -0.5993 0.0717
C8 C 0.5614(4) -0.5445(5) 0.2058(5)
H8 H 0.4966 -0.4869 0.2082
H9 H 0.6199 -0.5031 0.1681
H10 H 0.5865 -0.5976 0.2763
C9 C 0.5325(4) -0.6158(4) 0.1516(4)
C10 C 0.6201(4) -0.7115(4) 0.1389(4)
C11 C 0.5974(4) -0.7798(4) 0.0884(4)
H11 H 0.5263 -0.7656 0.0610
C12 C 0.6797(4) -0.8685(4) 0.0789(5)
H12 H 0.6626 -0.9136 0.0449
C13 C 0.8066(4) -0.8268(4) 0.1644(4)
H13 H 0.8786 -0.8420 0.1903
C14 C 0.7281(4) -0.7363(4) 0.1777(4)
H14 H 0.7473 -0.6926 0.2120
O8 O -0.2325(3) -0.0414(4) -0.0346(3)
H38 H -0.2196 -0.0511 -0.0915
H39 H -0.2817 -0.0818 -0.0005
Ag1_2 Ag 0.90842(3) -1.03735(3) 0.10335(3)
N4_2 N -0.2149(3) 0.1068(3) 0.1168(3)
Ag2 Ag 0.07925(3) 0.55600(3) 0.39167(3)
N5 N 0.2047(3) 0.4079(3) 0.3874(3)
N6 N 0.5587(3) 0.1165(3) 0.3981(3)
N7 N 0.6371(3) 0.0217(3) 0.3892(3)
N8 N 0.9735(3) -0.2817(3) 0.3920(3)
N12 N 0.1326(3) 0.5376(4) 0.6622(4)
C15 C 0.2677(4) 0.2532(4) 0.3255(4)
H15 H 0.2515 0.2118 0.2877
C16 C 0.1887(4) 0.3444(4) 0.3340(4)
H16 H 0.1199 0.3633 0.3008
C17 C 0.3051(4) 0.3765(4) 0.4351(4)
H17 H 0.3180 0.4178 0.4742
C18 C 0.3891(4) 0.2874(4) 0.4293(4)
H18 H 0.4573 0.2705 0.4628
C19 C 0.3718(4) 0.2220(4) 0.3730(4)
C20 C 0.4605(4) 0.1239(4) 0.3647(4)
C21 C 0.4306(4) 0.0445(5) 0.3177(5)
H19 H 0.4956 -0.0138 0.3171
H20 H 0.4038 0.0929 0.2469
H21 H 0.3733 0.0037 0.3590
C22 C 0.7793(4) 0.1012(4) 0.4458(4)
H22 H 0.7173 0.1615 0.4488
H23 H 0.8327 0.1394 0.3956
H24 H 0.8142 0.0576 0.5140
C23 C 0.7385(4) 0.0162(4) 0.4131(4)
C24 C 0.8204(4) -0.0849(4) 0.4041(4)
C25 C 0.9269(4) -0.1235(4) 0.4515(4)
H25 H 0.9488 -0.0834 0.4881
C26 C 0.9987(4) -0.2207(4) 0.4437(4)
H26 H 1.0685 -0.2451 0.4763
C27 C 0.8720(4) -0.2441(4) 0.3449(4)
H27 H 0.8530 -0.2847 0.3075
C28 C 0.7957(4) -0.1488(4) 0.3499(4)
H28 H 0.7266 -0.1267 0.3165
O4 O 0.0719(3) 0.4796(3) 0.7306(3)
O5 O 0.1570(3) 0.5158(3) 0.5822(3)
O6 O 0.1712(4) 0.6175(4) 0.6715(4)
Ag2_2 Ag 1.07925(3) -0.44400(3) 0.39167(3)
N8_2 N -0.0265(3) 0.7183(3) 0.3920(3)
N9 N 0.3962(3) 0.1614(4) -0.1017(3)
N10 N 0.4762(3) 0.4662(3) -0.4518(3)
C29 C 0.6567(4) 0.3194(4) -0.4228(4)
H29 H 0.6766 0.3760 -0.4900
H30 H 0.6593 0.2432 -0.4261
H31 H 0.7085 0.3095 -0.3701
C30 C 0.5399(4) 0.3660(4) -0.3949(4)
C31 C 0.4912(4) 0.2944(4) -0.2949(4)
C32 C 0.3810(4) 0.3301(4) -0.2693(4)
H32 H 0.3364 0.3994 -0.3166
C33 C 0.3381(4) 0.2623(5) -0.1734(4)
H33 H 0.2646 0.2885 -0.1581
C34 C 0.5010(4) 0.1279(5) -0.1267(4)
H34 H 0.5436 0.0586 -0.0774
C35 C 0.5513(4) 0.1881(4) -0.2201(4)
H35 H 0.6245 0.1583 -0.2333
N9A N 0.6038(3) 0.8386(4) -0.8983(3)
N10A N 0.5238(3) 0.5338(3) -0.5482(3)
C29A C 0.3433(4) 0.6806(4) -0.5772(4)
H29A H 0.3234 0.6240 -0.5100
H30A H 0.3407 0.7568 -0.5739
H31A H 0.2915 0.6905 -0.6299
C30A C 0.4601(4) 0.6340(4) -0.6051(4)
C31A C 0.5088(4) 0.7056(4) -0.7051(4)
C32A C 0.6190(4) 0.6699(4) -0.7307(4)
H32A H 0.6636 0.6006 -0.6834
C33A C 0.6619(4) 0.7377(5) -0.8266(4)
H33A H 0.7354 0.7115 -0.8419
C34A C 0.4990(4) 0.8721(5) -0.8733(4)
H34A H 0.4564 0.9414 -0.9226
C35A C 0.4487(4) 0.8119(4) -0.7799(4)
H35A H 0.3755 0.8417 -0.7667
N11 N 0.1085(4) 0.0376(5) 0.2625(4)
O1 O 0.0730(5) 0.0620(7) 0.1766(5)
O2 O 0.1851(4) -0.0511(5) 0.2913(4)
O3 O 0.0642(4) 0.0906(4) 0.3184(3)
O7 O 0.0037(3) 0.6533(4) -0.1658(3)
H36 H -0.0151 0.7252 -0.2114
H37 H 0.0223 0.6070 -0.1978
loop_
_geom_bond_atom_site_label_1
_geom_bond_atom_site_label_2
_geom_bond_site_symmetry_1
_geom_bond_site_symmetry_2
Ag1 N1 1_555 1_555
Ag2 N5 1_555 1_555
N1 C2 1_555 1_555
N2 N3 1_555 1_555
N3 C9 1_555 1_555
N4 C12 1_555 1_555
N5 C16 1_555 1_555
N6 N7 1_555 1_555
N7 C23 1_555 1_555
N8 C26 1_555 1_555
N9 C33 1_555 1_555
N10 C30 1_555 1_555
N11 O1 1_555 1_555
N12 O4 1_555 1_555
C1 H1 1_555 1_555
C2 C1 1_555 1_555
H2 C2 1_555 1_555
C3 N1 1_555 1_555
H3 C3 1_555 1_555
C4 C3 1_555 1_555
H4 C4 1_555 1_555
C5 C1 1_555 1_555
C6 N2 1_555 1_555
C7 C6 1_555 1_555
H5 C7 1_555 1_555
H6 C7 1_555 1_555
H7 C7 1_555 1_555
C8 H8 1_555 1_555
H9 C8 1_555 1_555
H10 C8 1_555 1_555
C9 C8 1_555 1_555
C10 C9 1_555 1_555
C11 C10 1_555 1_555
H11 C11 1_555 1_555
C12 C11 1_555 1_555
H12 C12 1_555 1_555
C13 N4 1_555 1_555
H13 C13 1_555 1_555
C14 C10 1_555 1_555
H14 C14 1_555 1_555
C15 H15 1_555 1_555
C16 C15 1_555 1_555
H16 C16 1_555 1_555
C17 N5 1_555 1_555
H17 C17 1_555 1_555
C18 C17 1_555 1_555
H18 C18 1_555 1_555
C19 C15 1_555 1_555
C20 N6 1_555 1_555
C21 C20 1_555 1_555
H19 C21 1_555 1_555
H20 C21 1_555 1_555
H21 C21 1_555 1_555
C22 H22 1_555 1_555
H23 C22 1_555 1_555
H24 C22 1_555 1_555
C23 C22 1_555 1_555
C24 C23 1_555 1_555
C25 C24 1_555 1_555
H25 C25 1_555 1_555
C26 C25 1_555 1_555
H26 C26 1_555 1_555
C27 N8 1_555 1_555
H27 C27 1_555 1_555
C28 C24 1_555 1_555
H28 C28 1_555 1_555
C29 H29 1_555 1_555
H30 C29 1_555 1_555
H31 C29 1_555 1_555
C30 C29 1_555 1_555
C31 C30 1_555 1_555
C32 C31 1_555 1_555
H32 C32 1_555 1_555
C33 C32 1_555 1_555
H33 C33 1_555 1_555
C34 N9 1_555 1_555
H34 C34 1_555 1_555
C35 C31 1_555 1_555
H35 C35 1_555 1_555
O2 N11 1_555 1_555
O3 N11 1_555 1_555
O5 Ag2 1_555 1_555
O6 N12 1_555 1_555
O7 H36 1_555 1_555
H37 O7 1_555 1_555
O8 Ag1 1_555 1_555
H38 O8 1_555 1_555
H39 O8 1_555 1_555
Ag1_2 N4 1_555 1_555
Ag2_2 N8 1_555 1_555
N4_2 Ag1 1_555 1_555
N8_2 Ag2 1_555 1_555
N9A C33A 1_555 1_555
N10A N10 1_555 1_555
C29A H29A 1_555 1_555
H30A C29A 1_555 1_555
H31A C29A 1_555 1_555
C30A N10A 1_555 1_555
C31A C30A 1_555 1_555
C32A C31A 1_555 1_555
H32A C32A 1_555 1_555
C33A C32A 1_555 1_555
H33A C33A 1_555 1_555
C34A N9A 1_555 1_555
H34A C34A 1_555 1_555
C35A C31A 1_555 1_555
H35A C35A 1_555 1_555
N12 O5 1_555 1_555
C4 C5 1_555 1_555
C5 C6 1_555 1_555
C13 C14 1_555 1_555
C18 C19 1_555 1_555
C19 C20 1_555 1_555
C27 C28 1_555 1_555
C34 C35 1_555 1_555
C29A C30A 1_555 1_555
C34A C35A 1_555 1_555

#END
