
#######################################################################
#
#                 Cambridge Crystallographic Data Centre
#                                CCDC 
#
#######################################################################
#
# If this CIF has been generated from an entry in the Cambridge 
# Structural Database, then it will include bibliographic, chemical, 
# crystal, experimental, refinement or atomic coordinate data resulting 
# from the CCDC's data processing and validation procedures.
#
#######################################################################

data_NEBKIO
_symmetry_cell_setting           triclinic
_symmetry_space_group_name_H-M   'P -1'
_symmetry_Int_Tables_number      2
_space_group_name_Hall           '-P 1'
loop_
_symmetry_equiv_pos_site_id
_symmetry_equiv_pos_as_xyz
1 x,y,z
2 -x,-y,-z
_cell_length_a                   8.893(2)
_cell_length_b                   11.733(2)
_cell_length_c                   13.272(2)
_cell_angle_alpha                75.480(13)
_cell_angle_beta                 82.93(2)
_cell_angle_gamma                88.43(2)
_cell_volume                     1330.39
loop_
_atom_site_label
_atom_site_type_symbol
_atom_site_fract_x
_atom_site_fract_y
_atom_site_fract_z
K1 K 0.12988(6) 0.77522(5) 0.62368(4)
N1 N 0.4297(2) 0.7157(2) 0.6572(2)
N2 N 0.1143(2) 0.5363(2) 0.73304(15)
N3 N 0.1183(2) 0.7482(2) 0.8546(2)
O1 O 0.0757(2) 0.9187(2) 0.4282(2)
H1 H 0.0221(2) 0.8816(2) 0.3980(2)
H2 H 0.0296(2) 0.9805(2) 0.4371(2)
N4 N 0.4194(2) 0.6858(2) 0.76407(15)
C1 C 0.5208(3) 0.7480(2) 0.7977(2)
C2 C 0.6014(3) 0.8185(2) 0.7110(2)
H3 H 0.6799(3) 0.8700(2) 0.7094(2)
C3 C 0.5403(3) 0.7967(2) 0.6251(2)
C4 C 0.5273(3) 0.7392(3) 0.9114(2)
H4 H 0.6123(3) 0.7836(3) 0.9191(2)
H5 H 0.5381(3) 0.6582(3) 0.9477(2)
H6 H 0.4356(3) 0.7702(3) 0.9404(2)
C5 C 0.5817(3) 0.8531(2) 0.5135(2)
C6 C 0.7099(3) 0.9243(2) 0.4842(2)
H7 H 0.7663(3) 0.9317(2) 0.5368(2)
N5 N 0.7585(3) 0.9833(2) 0.3856(2)
C7 C 0.6748(3) 0.9732(2) 0.3110(2)
H8 H 0.7051(3) 1.0140(2) 0.2422(2)
C8 C 0.5455(3) 0.9048(2) 0.3320(2)
H9 H 0.4904(3) 0.9000(2) 0.2780(2)
C9 C 0.4986(3) 0.8434(2) 0.4339(2)
H10 H 0.4124(3) 0.7962(2) 0.4490(2)
N6 N 0.2476(2) 0.5101(2) 0.77487(15)
C10 C 0.3025(3) 0.4057(2) 0.7601(2)
C11 C 0.2023(3) 0.3620(2) 0.7083(2)
H11 H 0.2097(3) 0.2917(2) 0.6876(2)
C12 C 0.0864(3) 0.4459(2) 0.6931(2)
C13 C 0.4482(3) 0.3538(3) 0.7967(2)
H12 H 0.4830(3) 0.2956(3) 0.7598(2)
H13 H 0.4319(3) 0.3177(3) 0.8706(2)
H14 H 0.5231(3) 0.4149(3) 0.7833(2)
C14 C -0.0510(3) 0.4451(2) 0.6415(2)
C15 C -0.0723(3) 0.3561(2) 0.5922(2)
H15 H 0.0000(3) 0.2969(2) 0.5961(2)
N7 N -0.1898(3) 0.3499(2) 0.5395(2)
C16 C -0.2918(3) 0.4357(2) 0.5340(2)
H16 H -0.3727(3) 0.4343(2) 0.4961(2)
C17 C -0.2832(3) 0.5270(2) 0.5820(2)
H17 H -0.3580(3) 0.5844(2) 0.5776(2)
C18 C -0.1616(3) 0.5313(2) 0.6364(2)
H18 H -0.1539(3) 0.5917(2) 0.6694(2)
N8 N 0.1880(2) 0.6455(2) 0.89885(15)
C19 C 0.1400(3) 0.6084(2) 1.0030(2)
C20 C 0.0362(3) 0.6889(2) 1.0278(2)
H19 H -0.0163(3) 0.6871(2) 1.0933(2)
C21 C 0.0260(3) 0.7742(2) 0.9339(2)
C22 C 0.1952(3) 0.4988(2) 1.0725(2)
H20 H 0.1309(3) 0.4800(2) 1.1381(2)
H21 H 0.2971(3) 0.5108(2) 1.0849(2)
H22 H 0.1933(3) 0.4351(2) 1.0393(2)
C23 C -0.0686(3) 0.8800(2) 0.9168(2)
C24 C -0.0724(3) 0.9541(2) 0.8178(2)
H23 H -0.0125(3) 0.9340(2) 0.7623(2)
N9 N -0.1558(3) 1.0525(2) 0.7955(2)
C25 C -0.2398(4) 1.0804(3) 0.8768(3)
H24 H -0.2976(4) 1.1486(3) 0.8640(3)
C26 C -0.2448(4) 1.0135(3) 0.9778(3)
H25 H -0.3048(4) 1.0363(3) 1.0318(3)
C27 C -0.1597(3) 0.9118(3) 0.9986(2)
H26 H -0.1631(3) 0.8650(3) 1.0667(2)
B1 B 0.3134(3) 0.5882(2) 0.8367(2)
H27 H 0.3739(3) 0.5379(2) 0.8871(2)
N5A N 0.2415(3) 1.0167(2) 0.6144(2)
N7A N 0.1898(3) 0.6501(2) 0.4605(2)
K1A K 0.87012(6) 1.22478(5) 0.37632(4)
K1A_2 K -0.12988(6) 0.22478(5) 0.37632(4)
loop_
_geom_bond_atom_site_label_1
_geom_bond_atom_site_label_2
_geom_bond_site_symmetry_1
_geom_bond_site_symmetry_2
K1 N1 1_555 1_555
N1 N4 1_555 1_555
N2 K1 1_555 1_555
N3 K1 1_555 1_555
O1 K1 1_555 1_555
H1 O1 1_555 1_555
H2 O1 1_555 1_555
N4 C1 1_555 1_555
C1 C2 1_555 1_555
C2 H3 1_555 1_555
C3 N1 1_555 1_555
C4 C1 1_555 1_555
H4 C4 1_555 1_555
H5 C4 1_555 1_555
H6 C4 1_555 1_555
C5 C3 1_555 1_555
C6 C5 1_555 1_555
H7 C6 1_555 1_555
N5 C6 1_555 1_555
C7 N5 1_555 1_555
H8 C7 1_555 1_555
C8 C7 1_555 1_555
H9 C8 1_555 1_555
C9 C5 1_555 1_555
H10 C9 1_555 1_555
N6 N2 1_555 1_555
C10 N6 1_555 1_555
C11 C10 1_555 1_555
H11 C11 1_555 1_555
C12 N2 1_555 1_555
C13 C10 1_555 1_555
H12 C13 1_555 1_555
H13 C13 1_555 1_555
H14 C13 1_555 1_555
C14 C12 1_555 1_555
C15 C14 1_555 1_555
H15 C15 1_555 1_555
N7 C15 1_555 1_555
C16 N7 1_555 1_555
H16 C16 1_555 1_555
C17 C16 1_555 1_555
H17 C17 1_555 1_555
C18 C14 1_555 1_555
H18 C18 1_555 1_555
N8 N3 1_555 1_555
C19 N8 1_555 1_555
C20 C19 1_555 1_555
H19 C20 1_555 1_555
C21 N3 1_555 1_555
C22 C19 1_555 1_555
H20 C22 1_555 1_555
H21 C22 1_555 1_555
H22 C22 1_555 1_555
C23 C21 1_555 1_555
C24 C23 1_555 1_555
H23 C24 1_555 1_555
N9 C24 1_555 1_555
C25 N9 1_555 1_555
H24 C25 1_555 1_555
C26 C25 1_555 1_555
H25 C26 1_555 1_555
C27 C23 1_555 1_555
H26 C27 1_555 1_555
B1 N4 1_555 1_555
H27 B1 1_555 1_555
N5A K1 1_555 1_555
N7A K1 1_555 1_555
K1A N5 1_555 1_555
K1A_2 N7 1_555 1_555
C2 C3 1_555 1_555
C8 C9 1_555 1_555
N6 B1 1_555 1_555
C11 C12 1_555 1_555
C17 C18 1_555 1_555
N8 B1 1_555 1_555
C20 C21 1_555 1_555
C26 C27 1_555 1_555

#END
