
#######################################################################
#
#                 Cambridge Crystallographic Data Centre
#                                CCDC 
#
#######################################################################
#
# If this CIF has been generated from an entry in the Cambridge 
# Structural Database, then it will include bibliographic, chemical, 
# crystal, experimental, refinement or atomic coordinate data resulting 
# from the CCDC's data processing and validation procedures.
#
#######################################################################

data_NEBNIS
_symmetry_cell_setting           orthorhombic
_symmetry_space_group_name_H-M   'P n m a'
_symmetry_Int_Tables_number      62
_space_group_name_Hall           '-P 2ac 2n'
loop_
_symmetry_equiv_pos_site_id
_symmetry_equiv_pos_as_xyz
1 x,y,z
2 1/2+x,1/2-y,1/2-z
3 -x,1/2+y,-z
4 1/2-x,-y,1/2+z
5 -x,-y,-z
6 1/2-x,1/2+y,1/2+z
7 x,1/2-y,z
8 1/2+x,y,1/2-z
_cell_length_a                   28.8687(10)
_cell_length_b                   17.4304(4)
_cell_length_c                   12.8504(4)
_cell_angle_alpha                90
_cell_angle_beta                 90
_cell_angle_gamma                90
_cell_volume                     6466.23
loop_
_atom_site_label
_atom_site_type_symbol
_atom_site_fract_x
_atom_site_fract_y
_atom_site_fract_z
Cu1 Cu 0.7822 0.4949 0.8222
Cu2 Cu 0.7426 0.1602 0.4475
Cu3 Cu 0.7112 0.2500 0.6646
Cu4 Cu 0.8045 0.3318 0.7432
Cl1 Cl 0.7457 0.2500 0.3188
Cl2 Cl 0.7978 0.2500 0.5780
Cl3 Cl 0.8473 0.2500 0.8468
S1 S 0.8418 0.4732 0.9360
S2 S 0.8394 0.4465 0.7137
S3 S 0.7746 0.0440 0.4307
S4 S 0.7760 0.0236 0.2071
S5 S 0.6762 0.1667 0.5471
S6 S 0.7269 0.3336 0.8011
N1 N 0.9143 0.4162 0.8317
N2 N 0.8466 0.0849 0.3111
N3 N 0.6275 0.2500 0.4119
N4 N 0.7319 0.2500 0.9765
C1 C 0.8722 0.4410 0.8293
C2 C 0.9373 0.3862 0.7375
C3 C 0.9702 0.4470 0.6925
C4 C 0.9476 0.4305 0.9427
C5 C 0.9389 0.3705 0.9602
C6 C 0.8051 0.0556 0.3140
C7 C 0.8708 0.1129 0.4045
C8 C 0.9045 0.0550 0.4442
C9 C 0.8722 0.0932 0.2100
C10 C 0.8578 0.1982 0.1695
C11 C 0.6123 0.1752 0.3589
C12 C 0.5675 0.1498 0.4008
C13 C 0.7294 0.2500 0.8755
C14 C 0.7320 0.3225 1.0374
C15 C 0.6845 0.3528 1.0586
C16 C 0.6554 0.2500 0.4892
H1 H 0.9144 0.3740 0.6870
H2 H 0.9543 0.3413 0.7545
H3 H 1.0002 0.4403 0.7217
H4 H 0.9719 0.4412 0.6190
H5 H 0.9590 0.4968 0.7088
H6 H 0.9358 0.4677 0.9899
H7 H 0.9795 0.4405 0.9299
H8 H 0.9640 0.3385 0.9408
H9 H 0.9338 0.3665 1.0331
H10 H 0.9118 0.3549 0.9241
H11 H 0.8870 0.1587 0.3874
H12 H 0.8486 0.1236 0.4572
H13 H 0.8892 0.0214 0.4913
H14 H 0.9291 0.0805 0.4791
H15 H 0.9166 0.0262 0.3876
H16 H 0.9041 0.0819 0.2194
H17 H 0.8595 0.0598 0.1591
H18 H 0.8305 0.2029 0.1285
H19 H 0.8837 0.2158 0.1306
H20 H 0.8546 0.2282 0.2308
H21 H 0.6094 0.1834 0.2862
H22 H 0.6349 0.1368 0.3714
H23 H 0.5726 0.1163 0.4579
H24 H 0.5506 0.1236 0.3483
H25 H 0.5503 0.1932 0.4234
H26 H 0.7470 0.3134 1.1020
H27 H 0.7488 0.3601 0.9993
H28 H 0.6753 0.3854 1.0031
H29 H 0.6848 0.3811 1.1217
H30 H 0.6634 0.3113 1.0644
Cu1F Cu 0.7822 0.0051 0.8222
Cu1E Cu 0.7178 -0.0051 0.3222
Cu1C Cu 0.7178 0.5051 0.3222
Cu2F Cu 0.7426 0.3398 0.4475
Cu4F Cu 0.8045 0.1682 0.7432
S1F S 0.8418 0.0268 0.9360
S2F S 0.8394 0.0535 0.7137
S3F S 0.7746 0.4560 0.4307
S3E S 0.7254 0.5440 0.9307
S3C S 0.7254 -0.0440 0.9307
S4F S 0.7760 0.4764 0.2071
S4E S 0.7240 0.5236 0.7071
S4C S 0.7240 -0.0236 0.7071
S5F S 0.6762 0.3333 0.5471
S6F S 0.7269 0.1664 0.8011
N1F N 0.9143 0.0838 0.8317
N2F N 0.8466 0.4151 0.3111
C1F C 0.8722 0.0590 0.8293
C2F C 0.9373 0.1138 0.7375
C3F C 0.9702 0.0530 0.6925
C4F C 0.9476 0.0695 0.9427
C5F C 0.9389 0.1295 0.9602
C6F C 0.8051 0.4444 0.3140
C7F C 0.8708 0.3871 0.4045
C8F C 0.9045 0.4450 0.4442
C9F C 0.8722 0.4068 0.2100
C10F C 0.8578 0.3018 0.1695
C11F C 0.6123 0.3248 0.3589
C12F C 0.5675 0.3502 0.4008
C14F C 0.7320 0.1775 1.0374
C15F C 0.6845 0.1472 1.0586
H1F H 0.9144 0.1260 0.6870
H2F H 0.9543 0.1587 0.7545
H3F H 1.0002 0.0597 0.7217
H4F H 0.9719 0.0588 0.6190
H5F H 0.9590 0.0032 0.7088
H6F H 0.9358 0.0323 0.9899
H7F H 0.9795 0.0595 0.9299
H8F H 0.9640 0.1615 0.9408
H9F H 0.9338 0.1335 1.0331
H10F H 0.9118 0.1451 0.9241
H11F H 0.8870 0.3413 0.3874
H12F H 0.8486 0.3764 0.4572
H13F H 0.8892 0.4786 0.4913
H14F H 0.9291 0.4195 0.4791
H15F H 0.9166 0.4738 0.3876
H16F H 0.9041 0.4181 0.2194
H17F H 0.8595 0.4402 0.1591
H18F H 0.8305 0.2971 0.1285
H19F H 0.8837 0.2842 0.1306
H20F H 0.8546 0.2718 0.2308
H21F H 0.6094 0.3166 0.2862
H22F H 0.6349 0.3632 0.3714
H23F H 0.5726 0.3837 0.4579
H24F H 0.5506 0.3764 0.3483
H25F H 0.5503 0.3068 0.4234
H26F H 0.7470 0.1866 1.1020
H27F H 0.7488 0.1399 0.9993
H28F H 0.6753 0.1146 1.0031
H29F H 0.6848 0.1189 1.1217
H30F H 0.6634 0.1887 1.0644
Fe1 Fe 0.5085 0.2500 0.0869
Cl4 Cl 0.4570 0.2500 -0.0372
Cl5 Cl 0.4728 0.2500 0.2361
Cl6 Cl 0.5510 0.3496 0.0733
Cl6F Cl 0.5510 0.1504 0.0733
loop_
_geom_bond_atom_site_label_1
_geom_bond_atom_site_label_2
_geom_bond_site_symmetry_1
_geom_bond_site_symmetry_2
Cu1 S1 1_555 1_555
Cu2 Cl1 1_555 1_555
Cu3 S5 1_555 1_555
Cu4 Cl2 1_555 1_555
Fe1 Cl4 1_555 1_555
Cl1 Cu2F 1_555 1_555
Cl2 Cu4F 1_555 1_555
Cl3 Cu4 1_555 1_555
Cl5 Fe1 1_555 1_555
Cl6 Fe1 1_555 1_555
S1 C1 1_555 1_555
S2 Cu1 1_555 1_555
S3 Cu2 1_555 1_555
S4 C6 1_555 1_555
S5 Cu2 1_555 1_555
S6 Cu3 1_555 1_555
N1 C1 1_555 1_555
N2 C6 1_555 1_555
N3 C11 1_555 1_555
N4 C13 1_555 1_555
C1 S2 1_555 1_555
C2 N1 1_555 1_555
C3 C2 1_555 1_555
C4 N1 1_555 1_555
C5 C4 1_555 1_555
C6 S3 1_555 1_555
C7 N2 1_555 1_555
C8 C7 1_555 1_555
C9 N2 1_555 1_555
C10 C9 1_555 1_555
C11 C12 1_555 1_555
C12 H23 1_555 1_555
C13 S6 1_555 1_555
C14 N4 1_555 1_555
C15 C14 1_555 1_555
C16 S5 1_555 1_555
H1 C2 1_555 1_555
H2 C2 1_555 1_555
H3 C3 1_555 1_555
H4 C3 1_555 1_555
H5 C3 1_555 1_555
H6 C4 1_555 1_555
H7 C4 1_555 1_555
H8 C5 1_555 1_555
H9 C5 1_555 1_555
H10 C5 1_555 1_555
H11 C7 1_555 1_555
H12 C7 1_555 1_555
H13 C8 1_555 1_555
H14 C8 1_555 1_555
H15 C8 1_555 1_555
H16 C9 1_555 1_555
H17 C9 1_555 1_555
H18 C10 1_555 1_555
H19 C10 1_555 1_555
H20 C10 1_555 1_555
H21 C11 1_555 1_555
H22 C11 1_555 1_555
H24 C12 1_555 1_555
H25 C12 1_555 1_555
H26 C14 1_555 1_555
H27 C14 1_555 1_555
H28 C15 1_555 1_555
H29 C15 1_555 1_555
H30 C15 1_555 1_555
Cu1F S1F 1_555 1_555
Cu1E S3 1_555 1_555
Cu1C S3F 1_555 1_555
Cu2F S3F 1_555 1_555
Cu4F Cl3 1_555 1_555
Cl6F Fe1 1_555 1_555
S1F C1F 1_555 1_555
S2F Cu1F 1_555 1_555
S3F C6F 1_555 1_555
S3E Cu1 1_555 1_555
S3C Cu1F 1_555 1_555
S4F Cu1C 1_555 1_555
S4E Cu1 1_555 1_555
S4C Cu1F 1_555 1_555
S5F Cu3 1_555 1_555
S6F Cu3 1_555 1_555
N1F C1F 1_555 1_555
N2F C6F 1_555 1_555
C1F S2F 1_555 1_555
C2F N1F 1_555 1_555
C3F C2F 1_555 1_555
C4F N1F 1_555 1_555
C5F C4F 1_555 1_555
C6F S4F 1_555 1_555
C7F N2F 1_555 1_555
C8F C7F 1_555 1_555
C9F N2F 1_555 1_555
C10F C9F 1_555 1_555
C11F N3 1_555 1_555
C12F C11F 1_555 1_555
C14F N4 1_555 1_555
C15F C14F 1_555 1_555
H1F C2F 1_555 1_555
H2F C2F 1_555 1_555
H3F C3F 1_555 1_555
H4F C3F 1_555 1_555
H5F C3F 1_555 1_555
H6F C4F 1_555 1_555
H7F C4F 1_555 1_555
H8F C5F 1_555 1_555
H9F C5F 1_555 1_555
H10F C5F 1_555 1_555
H11F C7F 1_555 1_555
H12F C7F 1_555 1_555
H13F C8F 1_555 1_555
H14F C8F 1_555 1_555
H15F C8F 1_555 1_555
H16F C9F 1_555 1_555
H17F C9F 1_555 1_555
H18F C10F 1_555 1_555
H19F C10F 1_555 1_555
H20F C10F 1_555 1_555
H21F C11F 1_555 1_555
H22F C11F 1_555 1_555
H23F C12F 1_555 1_555
H24F C12F 1_555 1_555
H25F C12F 1_555 1_555
H26F C14F 1_555 1_555
H27F C14F 1_555 1_555
H28F C15F 1_555 1_555
H29F C15F 1_555 1_555
H30F C15F 1_555 1_555
Cu4 S2 1_555 1_555
Cu4 S6 1_555 1_555
S4 Cu1E 1_555 1_555
N3 C16 1_555 1_555
C13 S6F 1_555 1_555
C16 S5F 1_555 1_555
Cu2F S5F 1_555 1_555
Cu4F S2F 1_555 1_555
Cu4F S6F 1_555 1_555

#END
