
#######################################################################
#
#                 Cambridge Crystallographic Data Centre
#                                CCDC 
#
#######################################################################
#
# If this CIF has been generated from an entry in the Cambridge 
# Structural Database, then it will include bibliographic, chemical, 
# crystal, experimental, refinement or atomic coordinate data resulting 
# from the CCDC's data processing and validation procedures.
#
#######################################################################

data_NEBPOA
_symmetry_cell_setting           triclinic
_symmetry_space_group_name_H-M   'P -1'
_symmetry_Int_Tables_number      2
_space_group_name_Hall           '-P 1'
loop_
_symmetry_equiv_pos_site_id
_symmetry_equiv_pos_as_xyz
1 x,y,z
2 -x,-y,-z
_cell_length_a                   5.6757(15)
_cell_length_b                   5.7121(15)
_cell_length_c                   9.447(2)
_cell_angle_alpha                95.284(5)
_cell_angle_beta                 91.557(5)
_cell_angle_gamma                100.248(5)
_cell_volume                     299.81
loop_
_atom_site_label
_atom_site_type_symbol
_atom_site_fract_x
_atom_site_fract_y
_atom_site_fract_z
Cu1 Cu -0.12287(10) 0.03551(10) 0.14229(6)
Cu2 Cu 0.0000 0.5000 0.0000
Mo1 Mo -0.47050(7) 0.55650(7) -0.18856(4)
O1 O -0.1244(6) 0.1481(6) -0.0525(4)
H1 H -0.253(6) 0.071(9) -0.090(5)
O2 O -0.1469(6) 0.5978(6) -0.1663(4)
O3 O 0.3604(6) 0.3389(6) -0.0906(4)
O4 O -0.4243(6) 0.1665(6) 0.1752(4)
O5 O -0.5318(6) 0.4358(6) -0.3618(4)
N1 N -0.0925(7) -0.0183(7) 0.3500(4)
H2 H -0.2325 -0.1220 0.3670
C1 C 0.1049(8) -0.1392(9) 0.3934(5)
H3 H 0.2605 -0.0347 0.3813
H4 H 0.0980 -0.2891 0.3306
C2 C -0.0900(9) 0.1975(8) 0.4510(5)
H5 H -0.2272 0.2738 0.4263
H6 H 0.0590 0.3135 0.4409
Cu1A Cu 0.12287(10) 0.96449(10) -0.14229(6)
Cu1A_2 Cu 0.12287(10) -0.03551(10) -0.14229(6)
Cu1A_3 Cu 0.12287(10) -0.03551(10) 0.85771(6)
Cu1_2 Cu -0.12287(10) 1.03551(10) 0.14229(6)
Cu1A_4 Cu -0.87713(10) 0.96449(10) -0.14229(6)
Mo1A Mo 0.47050(7) 0.44350(7) 0.18856(4)
Mo1_2 Mo 0.52950(7) 0.55650(7) -0.18856(4)
Mo1A_2 Mo -0.52950(7) 0.44350(7) 0.18856(4)
O1A O 0.1244(6) 0.8519(6) 0.0525(4)
O1A_2 O 0.1244(6) -0.1481(6) 0.0525(4)
O1_2 O -0.1244(6) 1.1481(6) -0.0525(4)
H1A H 0.253(6) 0.929(9) 0.090(5)
H1A_2 H 0.253(6) -0.071(9) 0.090(5)
H1_2 H -0.253(6) 1.071(9) -0.090(5)
O2A O 0.1469(6) 0.4022(6) 0.1663(4)
O3A O -0.3604(6) 0.6611(6) 0.0906(4)
O3A_2 O -0.3604(6) -0.3389(6) 0.0906(4)
O3_2 O -0.6396(6) 0.3389(6) -0.0906(4)
O3_3 O 0.3604(6) 1.3389(6) -0.0906(4)
O3A_3 O 0.6396(6) 0.6611(6) 0.0906(4)
O4A O -0.5757(6) 0.8335(6) -0.1752(4)
O4A_2 O 0.4243(6) 0.8335(6) -0.1752(4)
O4_2 O 0.5757(6) 0.1665(6) 0.1752(4)
O5A O 0.5318(6) 0.5642(6) 0.3618(4)
N1A N 0.0925(7) 0.0183(7) 0.6500(4)
N1A_2 N 0.0925(7) 1.0183(7) -0.3500(4)
H2A H 0.2325 0.1220 0.6330
H2A_2 H 0.2325 1.1220 -0.3670
C1A C -0.1049(8) 0.1392(9) 0.6066(5)
H3A H -0.2605 0.0347 0.6187
H4A H -0.0980 0.2891 0.6694
C2A C 0.0900(9) -0.1975(8) 0.5490(5)
H5A H 0.2272 -0.2738 0.5737
H6A H -0.0590 -0.3135 0.5591
loop_
_geom_bond_atom_site_label_1
_geom_bond_atom_site_label_2
_geom_bond_site_symmetry_1
_geom_bond_site_symmetry_2
Cu1 O1 1_555 1_555
Cu2 O1 1_555 1_555
Mo1 O2 1_555 1_555
O1 H1 1_555 1_555
O2 Cu2 1_555 1_555
O3 Cu2 1_555 1_555
O4 Cu1 1_555 1_555
O5 Mo1 1_555 1_555
N1 Cu1 1_555 1_555
H2 N1 1_555 1_555
C1 N1 1_555 1_555
H3 C1 1_555 1_555
H4 C1 1_555 1_555
C2 N1 1_555 1_555
H5 C2 1_555 1_555
H6 C2 1_555 1_555
Cu1A O2 1_555 1_555
Cu1A_2 O1 1_555 1_555
Cu1A_3 N1A 1_555 1_555
Cu1_2 O1A 1_555 1_555
Cu1A_4 O4A 1_555 1_555
Mo1A O2A 1_555 1_555
Mo1_2 O3 1_555 1_555
Mo1A_2 O4 1_555 1_555
O1A Cu2 1_555 1_555
O1A_2 Cu1 1_555 1_555
O1_2 Cu1A 1_555 1_555
H1A O1A 1_555 1_555
H1A_2 O1A_2 1_555 1_555
H1_2 O1_2 1_555 1_555
O2A Cu1 1_555 1_555
O3A Cu2 1_555 1_555
O3A_2 Cu1 1_555 1_555
O3_2 Mo1 1_555 1_555
O3_3 Cu1A 1_555 1_555
O3A_3 Mo1A 1_555 1_555
O4A Mo1 1_555 1_555
O4A_2 Cu1A 1_555 1_555
O4_2 Mo1A 1_555 1_555
O5A Mo1A 1_555 1_555
N1A H2A 1_555 1_555
N1A_2 Cu1A 1_555 1_555
H2A_2 N1A_2 1_555 1_555
C1A C2 1_555 1_555
H3A C1A 1_555 1_555
H4A C1A 1_555 1_555
C2A C1 1_555 1_555
H5A C2A 1_555 1_555
H6A C2A 1_555 1_555
Cu2 O2A 1_555 1_555
O3 Cu1A_2 1_555 1_555
Cu1A O1A 1_555 1_555
Cu1A_2 O1A_2 1_555 1_555
Cu1_2 O1_2 1_555 1_555
Cu1_2 O3A 1_555 1_555
Mo1_2 O4A_2 1_555 1_555
Mo1A_2 O3A 1_555 1_555
N1A C1A 1_555 1_555
N1A C2A 1_555 1_555

#END
