
#######################################################################
#
#                 Cambridge Crystallographic Data Centre
#                                CCDC 
#
#######################################################################
#
# If this CIF has been generated from an entry in the Cambridge 
# Structural Database, then it will include bibliographic, chemical, 
# crystal, experimental, refinement or atomic coordinate data resulting 
# from the CCDC's data processing and validation procedures.
#
#######################################################################

data_NEBPUH
_symmetry_cell_setting           monoclinic
_symmetry_space_group_name_H-M   'P 21/c'
_symmetry_Int_Tables_number      14
_space_group_name_Hall           '-P 2ybc'
loop_
_symmetry_equiv_pos_site_id
_symmetry_equiv_pos_as_xyz
1 x,y,z
2 -x,1/2+y,1/2-z
3 -x,-y,-z
4 x,1/2-y,1/2+z
_cell_length_a                   8.0059(10)
_cell_length_b                   17.198(2)
_cell_length_c                   14.0101(14)
_cell_angle_alpha                90
_cell_angle_beta                 123.152(5)
_cell_angle_gamma                90
_cell_volume                     1614.99
loop_
_atom_site_label
_atom_site_type_symbol
_atom_site_fract_x
_atom_site_fract_y
_atom_site_fract_z
Ba1 Ba 0.68335(6) 0.57748(2) -0.08604(3)
O1 O 0.8409(7) 0.6053(3) 0.1388(4)
O2 O 1.1429(8) 0.5929(3) 0.2951(5)
O3 O 1.4140(7) 0.6784(3) 0.4354(4)
H1 H 1.3290 0.6509 0.3836
O4 O 1.4755(7) 0.8029(3) 0.4689(4)
O5 O 0.7737(8) 0.9518(3) 0.2538(5)
H2 H 0.8029 0.9979 0.2464
O6 O 0.8933(7) 0.4040(3) -0.0390(4)
O7 O 0.5765(8) 0.4245(3) -0.1746(5)
O8 O 0.2863(7) 0.3527(3) -0.3292(4)
H3 H 0.3841 0.3777 -0.2817
O9 O 0.2193(6) 0.2329(3) -0.3938(4)
O10 O 0.7577(16) 0.0387(6) -0.1377(10)
H4 H 0.7740 -0.0108 -0.1286
O11 O 0.3307(11) 0.5344(4) -0.1137(9)
H5 H 0.2650 0.4921 -0.1328
H6 H 0.2496 0.5713 -0.1281
N1 N 0.8414(7) 0.7632(3) 0.1738(4)
H7 H 0.7279 0.7483 0.1164
N2 N 1.0785(8) 0.8410(3) 0.3016(5)
N3 N 0.8294(7) 0.2402(3) -0.0740(4)
H8 H 0.9455 0.2485 -0.0137
N4 N 0.5725(7) 0.1761(3) -0.2134(5)
C1 C 0.9930(10) 0.6317(4) 0.2226(5)
C2 C 1.0015(9) 0.7172(4) 0.2418(6)
C3 C 1.1478(9) 0.7665(4) 0.3202(5)
C4 C 1.3595(10) 0.7501(4) 0.4152(6)
C5 C 0.8925(10) 0.8374(4) 0.2130(6)
C6 C 0.7575(12) 0.9051(4) 0.1644(7)
H9 H 0.7920 0.9361 0.1197
H10 H 0.6210 0.8874 0.1143
C7 C 0.7269(10) 0.3799(4) -0.1129(6)
C8 C 0.6911(9) 0.2960(4) -0.1393(6)
C9 C 0.5303(9) 0.2549(4) -0.2259(5)
C10 C 0.3333(9) 0.2817(4) -0.3231(5)
C11 C 0.7525(10) 0.1696(4) -0.1216(6)
C12 C 0.859(2) 0.0967(6) -0.0687(12)
H11 H 0.9919 0.0987 -0.0552
H12 H 0.8732 0.0893 0.0039
Ba1C Ba 1.68335(6) 0.92252(2) 0.41396(3)
Ba1C_2 Ba 0.68335(6) 0.92252(2) 0.41396(3)
Ba1B Ba 1.31665(6) 0.42252(2) 0.08604(3)
Ba1A Ba 0.31665(6) 0.07748(2) -0.41396(3)
O4C O 0.4755(7) 0.6971(3) -0.0311(4)
O5C O 0.7737(8) 0.5482(3) -0.2462(5)
H2C H 0.8029 0.5021 -0.2536
O6B O 1.1067(7) 0.5960(3) 0.0390(4)
O9A O 0.7807(6) 0.7329(3) -0.1062(4)
N4A N 0.4275(7) 0.6761(3) -0.2866(5)
loop_
_geom_bond_atom_site_label_1
_geom_bond_atom_site_label_2
_geom_bond_site_symmetry_1
_geom_bond_site_symmetry_2
Ba1 O1 1_555 1_555
O1 C1 1_555 1_555
O2 C1 1_555 1_555
O3 H1 1_555 1_555
O4 C4 1_555 1_555
O5 H2 1_555 1_555
O6 Ba1 1_555 1_555
O7 Ba1 1_555 1_555
O8 H3 1_555 1_555
O9 C10 1_555 1_555
O10 H4 1_555 1_555
O11 Ba1 1_555 1_555
H5 O11 1_555 1_555
H6 O11 1_555 1_555
N1 H7 1_555 1_555
N2 C3 1_555 1_555
N3 H8 1_555 1_555
N4 C9 1_555 1_555
C1 C2 1_555 1_555
C2 N1 1_555 1_555
C3 C2 1_555 1_555
C4 O3 1_555 1_555
C5 N1 1_555 1_555
C6 O5 1_555 1_555
H9 C6 1_555 1_555
H10 C6 1_555 1_555
C7 O6 1_555 1_555
C8 N3 1_555 1_555
C9 C8 1_555 1_555
C10 O8 1_555 1_555
C11 N3 1_555 1_555
C12 O10 1_555 1_555
H11 C12 1_555 1_555
H12 C12 1_555 1_555
Ba1C O4 1_555 1_555
Ba1C_2 O5 1_555 1_555
Ba1B O6 1_555 1_555
Ba1A O9 1_555 1_555
O4C Ba1 1_555 1_555
O5C Ba1 1_555 1_555
H2C O5C 1_555 1_555
O6B Ba1 1_555 1_555
O9A Ba1 1_555 1_555
N4A Ba1 1_555 1_555
O7 C7 1_555 1_555
N2 C5 1_555 1_555
N4 C11 1_555 1_555
N4 Ba1A 1_555 1_555
C3 C4 1_555 1_555
C5 C6 1_555 1_555
C7 C8 1_555 1_555
C9 C10 1_555 1_555
C11 C12 1_555 1_555
Ba1B O6B 1_555 1_555

#END
