
#######################################################################
#
#                 Cambridge Crystallographic Data Centre
#                                CCDC 
#
#######################################################################
#
# If this CIF has been generated from an entry in the Cambridge 
# Structural Database, then it will include bibliographic, chemical, 
# crystal, experimental, refinement or atomic coordinate data resulting 
# from the CCDC's data processing and validation procedures.
#
#######################################################################

data_NEBQAO
_symmetry_cell_setting           monoclinic
_symmetry_space_group_name_H-M   'P 21/c'
_symmetry_Int_Tables_number      14
_space_group_name_Hall           '-P 2ybc'
loop_
_symmetry_equiv_pos_site_id
_symmetry_equiv_pos_as_xyz
1 x,y,z
2 -x,1/2+y,1/2-z
3 -x,-y,-z
4 x,1/2-y,1/2+z
_cell_length_a                   7.0034(5)
_cell_length_b                   16.9381(13)
_cell_length_c                   7.0666(5)
_cell_angle_alpha                90
_cell_angle_beta                 98.8110(10)
_cell_angle_gamma                90
_cell_volume                     828.378
loop_
_atom_site_label
_atom_site_type_symbol
_atom_site_fract_x
_atom_site_fract_y
_atom_site_fract_z
Ba1 Ba 0.25976(3) 0.416703(13) 0.56419(4)
O1 O -0.1074(6) 0.40970(18) 0.4110(7)
O2 O -0.7918(5) 0.23822(18) 0.0865(5)
N1 N -0.4483(5) 0.18256(19) 0.2711(4)
O3 O -0.4156(7) 0.4366(2) 0.3999(10)
O4 O -0.7335(5) 0.3602(2) 0.1901(4)
O5 O 0.0407(5) 0.1011(2) 0.3638(5)
H1 H 0.1078 0.1129 0.4653
C1 C -0.3266(6) 0.3047(2) 0.3487(6)
N2 N -0.1854(5) 0.24768(19) 0.3965(5)
H2 H -0.0676 0.2563 0.4472
C2 C -0.4891(6) 0.2632(2) 0.2683(5)
C3 C -0.6848(6) 0.2898(2) 0.1765(5)
C4 C -0.2639(6) 0.1769(2) 0.3503(5)
C5 C -0.2798(6) 0.3886(3) 0.3877(6)
C6 C -0.1563(7) 0.0984(3) 0.3894(7)
H3 H -0.1631 0.0824 0.5200
H4 H -0.2217 0.0585 0.3049
O6 O 0.4557(12) 0.4892(6) 0.9296(11)
Ba1C Ba 1.25976(3) 0.083297(13) 1.06419(4)
Ba1B Ba -0.25976(3) 0.583297(13) 0.43581(4)
Ba1C_2 Ba -0.74024(3) 0.083297(13) 0.06419(4)
Ba1_2 Ba -0.74024(3) 0.416703(13) 0.56419(4)
Ba1C_3 Ba 0.25976(3) 0.083297(13) 0.06419(4)
Ba1B_2 Ba 0.74024(3) 0.583297(13) 1.43581(4)
Ba1A Ba 0.74024(3) -0.083297(13) 0.93581(4)
Ba1C_4 Ba 0.25976(3) 0.083297(13) 1.06419(4)
Ba1_3 Ba 1.25976(3) 0.416703(13) 0.56419(4)
O1C O 0.8926(6) 0.09030(18) 0.9110(7)
O1B O 0.1074(6) 0.59030(18) 0.5890(7)
O1A O 1.1074(6) -0.09030(18) 1.0890(7)
O2C O 0.2082(5) 0.26178(18) 0.5865(5)
O2_2 O 1.2082(5) 0.23822(18) 1.0865(5)
N1C N 0.5517(5) 0.31744(19) 0.7711(4)
N1_2 N 1.5517(5) 0.18256(19) 1.2711(4)
O3C O 0.5844(7) 0.0634(2) 0.8999(10)
O3_2 O 0.5844(7) 0.4366(2) 0.3999(10)
O3B O 0.4156(7) 0.5634(2) 0.6001(10)
O3C_2 O 1.5844(7) 0.0634(2) 0.8999(10)
O3A O 1.4156(7) -0.0634(2) 1.1001(10)
O4C O 0.2665(5) 0.1398(2) 0.6901(4)
O4_2 O 0.2665(5) 0.3602(2) 0.1901(4)
O4C_2 O 1.2665(5) 0.1398(2) 0.6901(4)
O5C O 1.0407(5) 0.3989(2) 0.8638(5)
O5C_2 O 0.0407(5) 0.3989(2) 0.8638(5)
O5_2 O 1.0407(5) 0.1011(2) 1.3638(5)
H1C H 1.1078 0.3871 0.9653
H1C_2 H 0.1078 0.3871 0.9653
H1_2 H 1.1078 0.1129 1.4653
C1C C 0.6734(6) 0.1953(2) 0.8487(6)
N2C N 0.8146(5) 0.25232(19) 0.8965(5)
H2C H 0.9324 0.2437 0.9472
C2C C 0.5109(6) 0.2368(2) 0.7683(5)
C3C C 0.3152(6) 0.2102(2) 0.6765(5)
C4C C 0.7361(6) 0.3231(2) 0.8503(5)
C5C C 0.7202(6) 0.1114(3) 0.8877(6)
C6C C 0.8437(7) 0.4016(3) 0.8894(7)
H3C H 0.8369 0.4176 1.0200
H4C H 0.7783 0.4415 0.8049
O6B O 0.5443(12) 0.5108(6) 1.0704(11)
O6C O 1.4557(12) 0.0108(6) 1.4296(11)
loop_
_geom_bond_atom_site_label_1
_geom_bond_atom_site_label_2
_geom_bond_site_symmetry_1
_geom_bond_site_symmetry_2
Ba1 O1 1_555 1_555
O1 C5 1_555 1_555
O2 C3 1_555 1_555
N1 C2 1_555 1_555
O3 C5 1_555 1_555
O4 C3 1_555 1_555
O5 H1 1_555 1_555
C1 N2 1_555 1_555
N2 H2 1_555 1_555
C2 C1 1_555 1_555
C3 C2 1_555 1_555
C4 N1 1_555 1_555
C5 C1 1_555 1_555
C6 O5 1_555 1_555
H3 C6 1_555 1_555
H4 C6 1_555 1_555
O6 Ba1 1_555 1_555
Ba1C O1C 1_555 1_555
Ba1B O1 1_555 1_555
Ba1C_2 O2 1_555 1_555
Ba1_2 O3 1_555 1_555
Ba1C_3 O5 1_555 1_555
Ba1B_2 O6B 1_555 1_555
Ba1A O1C 1_555 1_555
Ba1C_4 O3C 1_555 1_555
Ba1_3 O5C 1_555 1_555
O1C C5C 1_555 1_555
O1B Ba1 1_555 1_555
O1A Ba1C 1_555 1_555
O2C Ba1 1_555 1_555
O2_2 Ba1C 1_555 1_555
N1C Ba1 1_555 1_555
N1_2 Ba1C 1_555 1_555
O3C Ba1A 1_555 1_555
O3_2 Ba1 1_555 1_555
O3B Ba1 1_555 1_555
O3C_2 Ba1C 1_555 1_555
O3A Ba1C 1_555 1_555
O4C Ba1C_4 1_555 1_555
O4_2 Ba1 1_555 1_555
O4C_2 Ba1C 1_555 1_555
O5C H1C 1_555 1_555
O5C_2 Ba1 1_555 1_555
O5_2 Ba1C 1_555 1_555
H1C_2 O5C_2 1_555 1_555
H1_2 O5_2 1_555 1_555
C1C N2C 1_555 1_555
N2C H2C 1_555 1_555
C2C N1C 1_555 1_555
C3C O2C 1_555 1_555
C4C N1C 1_555 1_555
C5C O3C 1_555 1_555
C6C O5C 1_555 1_555
H3C C6C 1_555 1_555
H4C C6C 1_555 1_555
O6B O6 1_555 1_555
O6C Ba1C 1_555 1_555
N1 Ba1C_2 1_555 1_555
O3 Ba1B 1_555 1_555
O4 Ba1_2 1_555 1_555
N2 C4 1_555 1_555
C4 C6 1_555 1_555
Ba1B O1B 1_555 1_555
Ba1A O1A 1_555 1_555
O4C C3C 1_555 1_555
C1C C2C 1_555 1_555
C1C C5C 1_555 1_555
N2C C4C 1_555 1_555
C2C C3C 1_555 1_555
C4C C6C 1_555 1_555

#END
