
#######################################################################
#
#                 Cambridge Crystallographic Data Centre
#                                CCDC 
#
#######################################################################
#
# If this CIF has been generated from an entry in the Cambridge 
# Structural Database, then it will include bibliographic, chemical, 
# crystal, experimental, refinement or atomic coordinate data resulting 
# from the CCDC's data processing and validation procedures.
#
#######################################################################

data_NEBQES
_symmetry_cell_setting           orthorhombic
_symmetry_space_group_name_H-M   'P n a 21'
_symmetry_Int_Tables_number      33
_space_group_name_Hall           'P 2c -2n'
loop_
_symmetry_equiv_pos_site_id
_symmetry_equiv_pos_as_xyz
1 x,y,z
2 -x,-y,1/2+z
3 1/2-x,1/2+y,1/2+z
4 1/2+x,1/2-y,z
_cell_length_a                   15.4200(2)
_cell_length_b                   10.7220(5)
_cell_length_c                   9.1370(2)
_cell_angle_alpha                90
_cell_angle_beta                 90
_cell_angle_gamma                90
_cell_volume                     1510.65
loop_
_atom_site_label
_atom_site_type_symbol
_atom_site_fract_x
_atom_site_fract_y
_atom_site_fract_z
O1 O 0.3918(5) -0.0248(6) 0.3003(9)
O2 O 0.2476(5) -0.0212(5) 0.3060(9)
O3 O 0.1251(4) 0.1077(7) 0.2093(8)
H1 H 0.1641 0.0613 0.2368
O4 O 0.1104(4) 0.2723(5) 0.0608(8)
O5 O 0.4872(5) 0.2120(7) -0.1863(8)
H2 H 0.5311 0.2009 -0.1310
N1 N 0.3918(4) 0.1487(6) 0.0735(9)
N2 N 0.2861(4) 0.2642(7) -0.0106(9)
H3 H 0.2593 0.3210 -0.0594
C1 C 0.3183(7) 0.0160(8) 0.2599(12)
C2 C 0.3174(6) 0.1145(8) 0.1416(10)
C3 C 0.2500(5) 0.1861(6) 0.0891(14)
C4 C 0.1568(5) 0.1915(7) 0.1205(11)
C5 C 0.3703(6) 0.2370(8) -0.0198(10)
C6 C 0.4290(8) 0.2983(10) -0.1249(14)
H4 H 0.3952 0.3367 -0.2022
H5 H 0.4613 0.3635 -0.0755
O6 O 0.7829(4) 0.4504(8) 0.6778(10)
O7 O 0.6489(6) 0.3805(9) 0.6681(10)
H6 H 0.6214 0.3247 0.6279
O8 O 0.5712(4) 0.2210(7) 0.5336(8)
O9 O 0.5927(5) 0.0805(7) 0.3616(8)
O10 O 0.9549(7) 0.0152(9) 0.4292(18)
H7 H 0.9144 0.0022 0.4903
N3 N 0.8469(5) 0.2665(8) 0.4971(10)
N4 N 0.7734(5) 0.1226(8) 0.3766(10)
H8 H 0.7635 0.0600 0.3202
C7 C 0.7328(6) 0.3731(10) 0.6284(15)
C8 C 0.7599(6) 0.2767(9) 0.5289(10)
C9 C 0.7138(6) 0.1886(8) 0.4525(10)
C10 C 0.6189(6) 0.1600(8) 0.4440(10)
C11 C 0.8512(7) 0.1734(11) 0.4061(14)
C12 C 0.9324(8) 0.1229(13) 0.3388(16)
H9 H 0.9783 0.1848 0.3408
H10 H 0.9223 0.0979 0.2382
Ba1 Ba 0.45602(3) 0.01654(4) 0.59813(13)
O1A O 0.6082(5) 0.0248(6) 0.8003(9)
O4B O 0.3896(4) -0.2277(5) 0.5608(8)
O5_2 O 0.4872(5) 0.2120(7) 0.8137(8)
H2_2 H 0.5311 0.2009 0.8690
N1A N 0.6082(4) -0.1487(6) 0.5735(9)
O6C O 0.2829(4) 0.0496(8) 0.6778(10)
O9A O 0.4073(5) -0.0805(7) 0.8616(8)
N3C N 0.3469(5) 0.2335(8) 0.4971(10)
Ba1A Ba 0.54398(3) -0.01654(4) 0.09813(13)
Ba1B Ba 0.04398(3) 0.51654(4) 0.09813(13)
Ba1_2 Ba 0.45602(3) 0.01654(4) -0.40187(13)
Ba1C Ba 0.95602(3) 0.48346(4) 0.59813(13)
loop_
_geom_bond_atom_site_label_1
_geom_bond_atom_site_label_2
_geom_bond_site_symmetry_1
_geom_bond_site_symmetry_2
O1 C1 1_555 1_555
O2 C1 1_555 1_555
O3 H1 1_555 1_555
O4 C4 1_555 1_555
O5 H2 1_555 1_555
N1 C2 1_555 1_555
N2 H3 1_555 1_555
C1 C2 1_555 1_555
C2 C3 1_555 1_555
C3 N2 1_555 1_555
C4 O3 1_555 1_555
C5 N1 1_555 1_555
C6 O5 1_555 1_555
H4 C6 1_555 1_555
H5 C6 1_555 1_555
O6 C7 1_555 1_555
O7 H6 1_555 1_555
O8 C10 1_555 1_555
O9 C10 1_555 1_555
O10 H7 1_555 1_555
N3 C8 1_555 1_555
N4 H8 1_555 1_555
C7 O7 1_555 1_555
C8 C7 1_555 1_555
C9 N4 1_555 1_555
C10 C9 1_555 1_555
C11 N3 1_555 1_555
C12 O10 1_555 1_555
H9 C12 1_555 1_555
H10 C12 1_555 1_555
Ba1 O1 1_555 1_555
O1A Ba1 1_555 1_555
O4B Ba1 1_555 1_555
O5_2 Ba1 1_555 1_555
H2_2 O5_2 1_555 1_555
N1A Ba1 1_555 1_555
O6C Ba1 1_555 1_555
O9A Ba1 1_555 1_555
N3C Ba1 1_555 1_555
Ba1A O1 1_555 1_555
Ba1B O4 1_555 1_555
Ba1_2 O5 1_555 1_555
Ba1C O6 1_555 1_555
N1 Ba1A 1_555 1_555
N2 C5 1_555 1_555
C3 C4 1_555 1_555
C5 C6 1_555 1_555
O8 Ba1 1_555 1_555
O9 Ba1 1_555 1_555
O9 Ba1A 1_555 1_555
N3 Ba1C 1_555 1_555
N4 C11 1_555 1_555
C8 C9 1_555 1_555
C11 C12 1_555 1_555

#END
