
#######################################################################
#
#                 Cambridge Crystallographic Data Centre
#                                CCDC 
#
#######################################################################
#
# If this CIF has been generated from an entry in the Cambridge 
# Structural Database, then it will include bibliographic, chemical, 
# crystal, experimental, refinement or atomic coordinate data resulting 
# from the CCDC's data processing and validation procedures.
#
#######################################################################

data_NEBRET
_symmetry_cell_setting           monoclinic
_symmetry_space_group_name_H-M   'C 2/c'
_symmetry_Int_Tables_number      15
_space_group_name_Hall           '-C 2yn'
loop_
_symmetry_equiv_pos_site_id
_symmetry_equiv_pos_as_xyz
1 x,y,z
2 -x,y,1/2-z
3 1/2+x,1/2+y,z
4 1/2-x,1/2+y,1/2-z
5 -x,-y,-z
6 x,-y,1/2+z
7 1/2-x,1/2-y,-z
8 1/2+x,1/2-y,1/2+z
_cell_length_a                   11.9080(9)
_cell_length_b                   11.4930(11)
_cell_length_c                   14.2810(11)
_cell_angle_alpha                90
_cell_angle_beta                 106.227(8)
_cell_angle_gamma                90
_cell_volume                     1876.62
loop_
_atom_site_label
_atom_site_type_symbol
_atom_site_fract_x
_atom_site_fract_y
_atom_site_fract_z
Cd1 Cd 0.402157(18) 0.116879(18) 0.544728(15)
C1 C 0.3681(3) 0.4468(3) 0.5636(2)
C2 C 0.5207(3) 0.3217(3) 0.6238(2)
C3 C 0.5956(3) 0.4202(3) 0.6634(3)
H1 H 0.6731 0.4081 0.6985
C4 C 0.2702(3) 0.6028(3) 0.5338(3)
H2 H 0.2061 0.6520 0.5119
N1 N 0.4373(2) 0.5411(2) 0.60001(18)
N2 N 0.3739(3) 0.6432(2) 0.5793(3)
C5 C 0.5527(3) 0.5278(3) 0.6494(2)
H3 H 0.5998 0.5920 0.6725
C6 C 0.4300(3) 0.1299(2) 0.3563(2)
C7 C 0.4380(3) 0.1325(3) 0.2534(2)
H4 H 0.3985 0.2015 0.2213
H5 H 0.3974 0.0652 0.2188
H6 H 0.264(4) 0.200(4) 0.661(3)
H7 H 0.351(4) 0.156(4) 0.726(3)
O1 O 0.55934(18) 0.21706(18) 0.63437(16)
N3 N 0.4080(2) 0.3380(2) 0.57359(19)
O2 O 0.3175(3) 0.1395(2) 0.6798(2)
O3 O 0.3577(2) 0.19393(19) 0.38050(16)
N4 N 0.2604(2) 0.4864(2) 0.51994(18)
O4 O 0.49627(19) 0.0633(2) 0.41726(15)
Cd1F Cd 0.097843(18) 0.383121(18) 0.455272(15)
Cd1D Cd 0.597843(18) -0.116879(18) 0.455272(15)
Cd1A Cd 0.597843(18) 0.116879(18) -0.044728(15)
Cd1E Cd 0.402157(18) -0.116879(18) 0.044728(15)
C1F C 0.1319(3) 0.0532(3) 0.4364(2)
C2F C -0.0207(3) 0.1783(3) 0.3762(2)
C3F C -0.0956(3) 0.0798(3) 0.3366(3)
H1F H -0.1731 0.0919 0.3015
C4F C 0.2298(3) -0.1028(3) 0.4662(3)
H2F H 0.2939 -0.1520 0.4881
N1F N 0.0627(2) -0.0411(2) 0.39999(18)
N2F N 0.1261(3) -0.1432(2) 0.4207(3)
C5F C -0.0527(3) -0.0278(3) 0.3506(2)
H3F H -0.0998 -0.0920 0.3275
C6A C 0.5700(3) 0.1299(2) 0.1437(2)
C7A C 0.5620(3) 0.1325(3) 0.2466(2)
H4A H 0.6015 0.2015 0.2787
H5A H 0.6026 0.0652 0.2812
H6F H 0.236(4) 0.300(4) 0.339(3)
H7F H 0.149(4) 0.344(4) 0.274(3)
O1F O -0.05934(18) 0.28294(18) 0.36563(16)
N3F N 0.0920(2) 0.1620(2) 0.42641(19)
O2F O 0.1825(3) 0.3605(2) 0.3202(2)
O3A O 0.6423(2) 0.19393(19) 0.11950(16)
O3F O 0.1423(2) 0.30607(19) 0.61950(16)
N4F N 0.2396(2) 0.0136(2) 0.48006(18)
O4A O 0.50373(19) 0.0633(2) 0.08274(15)
O4D O 0.50373(19) -0.0633(2) 0.58274(15)
O4F O 0.00373(19) 0.4367(2) 0.58274(15)
O4B O -0.00373(19) 0.5633(2) 0.41726(15)
loop_
_geom_bond_atom_site_label_1
_geom_bond_atom_site_label_2
_geom_bond_site_symmetry_1
_geom_bond_site_symmetry_2
Cd1 O1 1_555 1_555
C1 N1 1_555 1_555
C2 C3 1_555 1_555
C3 H1 1_555 1_555
C4 H2 1_555 1_555
N1 N2 1_555 1_555
N2 C4 1_555 1_555
C5 C3 1_555 1_555
H3 C5 1_555 1_555
C6 C7 1_555 1_555
C7 H4 1_555 1_555
H5 C7 1_555 1_555
H6 O2 1_555 1_555
H7 O2 1_555 1_555
O1 C2 1_555 1_555
N3 Cd1 1_555 1_555
O2 Cd1 1_555 1_555
O3 Cd1 1_555 1_555
N4 C1 1_555 1_555
O4 Cd1 1_555 1_555
Cd1F N4 1_555 1_555
Cd1D O4 1_555 1_555
Cd1A O3A 1_555 1_555
Cd1E O4A 1_555 1_555
C1F N1F 1_555 1_555
C2F C3F 1_555 1_555
C3F H1F 1_555 1_555
C4F H2F 1_555 1_555
N1F N2F 1_555 1_555
N2F C4F 1_555 1_555
C5F C3F 1_555 1_555
H3F C5F 1_555 1_555
C6A C7A 1_555 1_555
C7A C7 1_555 1_555
H4A C7A 1_555 1_555
H5A C7A 1_555 1_555
H6F O2F 1_555 1_555
H7F O2F 1_555 1_555
O1F Cd1F 1_555 1_555
N3F Cd1F 1_555 1_555
O2F Cd1F 1_555 1_555
O3A C6A 1_555 1_555
O3F Cd1F 1_555 1_555
N4F Cd1 1_555 1_555
O4A Cd1A 1_555 1_555
O4D Cd1 1_555 1_555
O4F Cd1F 1_555 1_555
O4B Cd1F 1_555 1_555
C1 N3 1_555 1_555
C2 N3 1_555 1_555
C4 N4 1_555 1_555
N1 C5 1_555 1_555
C6 O3 1_555 1_555
C6 O4 1_555 1_555
Cd1D O4D 1_555 1_555
C1F N3F 1_555 1_555
C1F N4F 1_555 1_555
C2F O1F 1_555 1_555
C2F N3F 1_555 1_555
C4F N4F 1_555 1_555
N1F C5F 1_555 1_555
C6A O4A 1_555 1_555

#END
