
#######################################################################
#
#                 Cambridge Crystallographic Data Centre
#                                CCDC 
#
#######################################################################
#
# If this CIF has been generated from an entry in the Cambridge 
# Structural Database, then it will include bibliographic, chemical, 
# crystal, experimental, refinement or atomic coordinate data resulting 
# from the CCDC's data processing and validation procedures.
#
#######################################################################

data_NEBROD
_symmetry_cell_setting           orthorhombic
_symmetry_space_group_name_H-M   'P 21 21 2'
_symmetry_Int_Tables_number      18
_space_group_name_Hall           'P 2 2ab'
loop_
_symmetry_equiv_pos_site_id
_symmetry_equiv_pos_as_xyz
1 x,y,z
2 -x,-y,z
3 1/2-x,1/2+y,-z
4 1/2+x,1/2-y,-z
_cell_length_a                   19.7573(12)
_cell_length_b                   19.757
_cell_length_c                   10.2813(6)
_cell_angle_alpha                90
_cell_angle_beta                 90
_cell_angle_gamma                90
_cell_volume                     4013.25
loop_
_atom_site_label
_atom_site_type_symbol
_atom_site_fract_x
_atom_site_fract_y
_atom_site_fract_z
Co1 Co -0.27536(3) -0.22393(3) 0.11093(6)
Co2 Co -0.21367(3) -0.28603(3) -0.11184(6)
O1 O -0.2631(2) -0.13339(19) 0.0205(4)
O2 O -0.21477(19) -0.18364(16) -0.1490(4)
O3 O -0.2252(3) 0.17467(17) -0.1497(4)
O4 O -0.2735(2) 0.12318(17) 0.0196(4)
O5 O -0.17419(17) -0.2270(2) 0.1483(4)
O6 O -0.12246(18) -0.2743(2) -0.0202(4)
O7 O 0.13448(19) -0.2645(2) -0.0191(4)
O8 O 0.18429(16) -0.2153(2) 0.1500(4)
N1 N -0.1878(2) -0.3120(2) -0.3007(4)
N2 N -0.1412(3) -0.3571(3) -0.4723(5)
N3 N -0.1483(4) -0.6323(4) -0.4465(5)
N4 N -0.1878(2) -0.6888(2) -0.2837(4)
C1 C -0.2358(3) -0.1326(2) -0.0887(5)
C2 C -0.2268(2) -0.0649(2) -0.1548(5)
C3 C -0.2031(3) -0.0646(2) -0.2834(5)
H3 H -0.1918 -0.1051 -0.3239
C4 C -0.1962(2) -0.0029(2) -0.3514(4)
C5 C -0.2111(3) 0.0565(2) -0.2846(5)
H4 H -0.2060 0.0976 -0.3274
C6 C -0.2332(3) 0.0567(2) -0.1578(5)
C7 C -0.2428(2) -0.0049(2) -0.0922(4)
H5 H -0.2596 -0.0054 -0.0078
C8 C -0.2451(3) 0.1225(2) -0.0904(5)
C9 C -0.1738(2) -0.0012(3) -0.4900(4)
C10 C -0.1216(3) -0.0419(3) -0.5324(5)
H6 H -0.1020 -0.0732 -0.4764
C11 C -0.0987(3) -0.0357(3) -0.6593(6)
H7 H -0.0637 -0.0634 -0.6881
C12 C -0.1272(3) 0.0112(3) -0.7447(5)
C13 C -0.1804(3) 0.0491(3) -0.7028(5)
H8 H -0.2018 0.0785 -0.7602
C14 C -0.2029(3) 0.0443(3) -0.5766(5)
H9 H -0.2381 0.0720 -0.5487
C15 C -0.1008(4) 0.0192(4) -0.8826(6)
H10 H -0.1277 0.0521 -0.9279
H11 H -0.1034 -0.0235 -0.9269
H12 H -0.0546 0.0341 -0.8800
C16 C -0.1225(2) -0.2459(3) 0.0891(5)
C17 C -0.0554(2) -0.2343(3) 0.1562(5)
C18 C -0.0566(2) -0.2117(3) 0.2858(5)
H13 H -0.0978 -0.2065 0.3284
C19 C 0.0035(2) -0.1970(2) 0.3506(4)
C20 C 0.0642(2) -0.2032(3) 0.2834(5)
H14 H 0.1044 -0.1909 0.3242
C21 C 0.0661(2) -0.2274(3) 0.1560(5)
C22 C 0.0048(2) -0.2435(2) 0.0923(4)
H15 H 0.0053 -0.2602 0.0077
C23 C 0.1334(2) -0.2363(2) 0.0923(5)
C24 C 0.0016(3) -0.1739(2) 0.4881(4)
C25 C 0.0413(3) -0.1214(3) 0.5314(6)
H16 H 0.0724 -0.1015 0.4754
C26 C 0.0351(3) -0.0978(3) 0.6586(6)
H17 H 0.0618 -0.0616 0.6857
C27 C -0.0100(3) -0.1270(3) 0.7459(5)
C28 C -0.0487(3) -0.1803(3) 0.7029(5)
H18 H -0.0784 -0.2013 0.7603
C29 C -0.0443(3) -0.2035(3) 0.5746(5)
H19 H -0.0720 -0.2388 0.5469
C30 C -0.0188(4) -0.1010(4) 0.8807(6)
H20 H 0.0227 -0.1064 0.9280
H21 H -0.0542 -0.1258 0.9233
H22 H -0.0307 -0.0539 0.8777
C31 C -0.2156(3) -0.2854(3) -0.4120(5)
H23 H -0.2497 -0.2530 -0.4144
C32 C -0.1867(3) -0.3130(3) -0.5153(5)
H24 H -0.1965 -0.3033 -0.6019
C33 C -0.1429(3) -0.3555(3) -0.3362(5)
H25 H -0.1161 -0.3814 -0.2808
C34 C -0.0923(5) -0.3949(4) -0.5497(8)
H26 H -0.0822 -0.3679 -0.6261
H27 H -0.0509 -0.3977 -0.4994
C35 C -0.1077(6) -0.4620(4) -0.5939(9)
H28 H -0.0717 -0.4768 -0.6514
H29 H -0.1491 -0.4602 -0.6447
C36 C -0.1161(6) -0.5122(4) -0.4918(9)
H30 H -0.1475 -0.4948 -0.4273
H31 H -0.0729 -0.5194 -0.4492
C37 C -0.1413(6) -0.5767(4) -0.5405(9)
H32 H -0.1112 -0.5917 -0.6092
H33 H -0.1853 -0.5689 -0.5796
C38 C -0.2001(4) -0.6346(4) -0.3484(6)
H34 H -0.2349 -0.6036 -0.3348
C39 C -0.1106(5) -0.6844(5) -0.4412(8)
H35 H -0.0760 -0.6967 -0.4978
C40 C -0.1311(4) -0.7157(4) -0.3408(7)
H36 H -0.1094 -0.7539 -0.3084
Co1B Co -0.22464(3) -0.72393(3) -0.11093(6)
Co1B_2 Co -0.22464(3) 0.27607(3) -0.11093(6)
Co1C Co 0.22464(3) -0.27607(3) -0.11093(6)
Co2B Co -0.28633(3) 0.21397(3) 0.11184(6)
Co2C Co 0.28633(3) -0.21397(3) 0.11184(6)
O3B O -0.2748(3) -0.32533(17) 0.1497(4)
O4B O -0.2265(2) -0.37682(17) -0.0196(4)
O7C O -0.36552(19) -0.2355(2) 0.0191(4)
O8C O -0.31571(16) -0.2847(2) -0.1500(4)
N4B N -0.3122(2) -0.1888(2) 0.2837(4)
O9 O -0.9105(6) -0.4103(6) -0.0236(11)
H1 H -0.9420 -0.3841 -0.0444
H2 H -0.8743 -0.3885 -0.0190
loop_
_geom_bond_atom_site_label_1
_geom_bond_atom_site_label_2
_geom_bond_site_symmetry_1
_geom_bond_site_symmetry_2
Co1 O1 1_555 1_555
Co2 O2 1_555 1_555
O1 C1 1_555 1_555
O2 C1 1_555 1_555
O3 C8 1_555 1_555
O4 C8 1_555 1_555
O5 Co1 1_555 1_555
O6 Co2 1_555 1_555
O7 C23 1_555 1_555
O8 C23 1_555 1_555
O9 H1 1_555 1_555
H2 O9 1_555 1_555
N1 Co2 1_555 1_555
N2 C32 1_555 1_555
N3 C37 1_555 1_555
N4 C38 1_555 1_555
C1 C2 1_555 1_555
C2 C3 1_555 1_555
C3 H3 1_555 1_555
C4 C3 1_555 1_555
C5 C4 1_555 1_555
H4 C5 1_555 1_555
C6 C5 1_555 1_555
C7 C2 1_555 1_555
H5 C7 1_555 1_555
C8 C6 1_555 1_555
C9 C4 1_555 1_555
C10 C9 1_555 1_555
H6 C10 1_555 1_555
C11 C10 1_555 1_555
H7 C11 1_555 1_555
C12 C11 1_555 1_555
C13 C12 1_555 1_555
H8 C13 1_555 1_555
C14 C9 1_555 1_555
H9 C14 1_555 1_555
C15 C12 1_555 1_555
H10 C15 1_555 1_555
H11 C15 1_555 1_555
H12 C15 1_555 1_555
C16 O5 1_555 1_555
C17 C16 1_555 1_555
C18 C17 1_555 1_555
H13 C18 1_555 1_555
C19 C18 1_555 1_555
C20 C19 1_555 1_555
H14 C20 1_555 1_555
C21 C20 1_555 1_555
C22 C17 1_555 1_555
H15 C22 1_555 1_555
C23 C21 1_555 1_555
C24 C19 1_555 1_555
C25 C24 1_555 1_555
H16 C25 1_555 1_555
C26 C25 1_555 1_555
H17 C26 1_555 1_555
C27 C26 1_555 1_555
C28 C27 1_555 1_555
H18 C28 1_555 1_555
C29 C24 1_555 1_555
H19 C29 1_555 1_555
C30 C27 1_555 1_555
H20 C30 1_555 1_555
H21 C30 1_555 1_555
H22 C30 1_555 1_555
C31 N1 1_555 1_555
H23 C31 1_555 1_555
C32 C31 1_555 1_555
H24 C32 1_555 1_555
C33 N1 1_555 1_555
H25 C33 1_555 1_555
C34 N2 1_555 1_555
H26 C34 1_555 1_555
H27 C34 1_555 1_555
C35 C34 1_555 1_555
H28 C35 1_555 1_555
H29 C35 1_555 1_555
C36 C35 1_555 1_555
H30 C36 1_555 1_555
H31 C36 1_555 1_555
C37 C36 1_555 1_555
H32 C37 1_555 1_555
H33 C37 1_555 1_555
C38 N3 1_555 1_555
H34 C38 1_555 1_555
C39 N3 1_555 1_555
H35 C39 1_555 1_555
C40 N4 1_555 1_555
H36 C40 1_555 1_555
Co1B N4 1_555 1_555
Co1B_2 O3 1_555 1_555
Co1C O7 1_555 1_555
Co2B O4 1_555 1_555
Co2C O8 1_555 1_555
O3B Co1 1_555 1_555
O4B Co2 1_555 1_555
O7C Co1 1_555 1_555
O8C Co2 1_555 1_555
N4B Co1 1_555 1_555
O6 C16 1_555 1_555
N2 C33 1_555 1_555
C6 C7 1_555 1_555
C13 C14 1_555 1_555
C21 C22 1_555 1_555
C28 C29 1_555 1_555
C39 C40 1_555 1_555

#END
