
#######################################################################
#
#                 Cambridge Crystallographic Data Centre
#                                CCDC 
#
#######################################################################
#
# If this CIF has been generated from an entry in the Cambridge 
# Structural Database, then it will include bibliographic, chemical, 
# crystal, experimental, refinement or atomic coordinate data resulting 
# from the CCDC's data processing and validation procedures.
#
#######################################################################

data_NEBTOF
_symmetry_cell_setting           triclinic
_symmetry_space_group_name_H-M   'P -1'
_symmetry_Int_Tables_number      2
_space_group_name_Hall           '-P 1'
loop_
_symmetry_equiv_pos_site_id
_symmetry_equiv_pos_as_xyz
1 x,y,z
2 -x,-y,-z
_cell_length_a                   7.694(3)
_cell_length_b                   12.172(5)
_cell_length_c                   12.337(5)
_cell_angle_alpha                80.08(3)
_cell_angle_beta                 75.94(3)
_cell_angle_gamma                86.75(3)
_cell_volume                     1103.87
loop_
_atom_site_label
_atom_site_type_symbol
_atom_site_fract_x
_atom_site_fract_y
_atom_site_fract_z
C1 C -0.1750(6) 0.0249(4) 0.7337(4)
H1 H -0.0717 0.0666 0.6936
C2 C -0.4254(7) -0.0594(4) 0.7750(4)
H2 H -0.5329 -0.0885 0.7672
C3 C -0.3722(7) -0.0703(5) 0.8721(4)
H3 H -0.4335 -0.1074 0.9444
C4 C -0.1023(6) -0.0084(5) 0.9233(3)
C5 C 0.0131(6) -0.0962(4) 0.9481(3)
C6 C 0.0325(8) -0.1940(5) 0.8964(4)
H4 H -0.0358 -0.2005 0.8433
C7 C 0.1466(9) -0.2772(6) 0.9220(5)
H5 H 0.1573 -0.3415 0.8867
C8 C 0.2510(8) -0.2704(5) 1.0009(5)
H6 H 0.3317 -0.3294 1.0173
C9 C 0.2355(7) -0.1798(5) 1.0528(4)
H7 H 0.3040 -0.1769 1.1066
C10 C -0.1190(6) 0.0890(4) 0.9715(3)
C11 C -0.0244(7) 0.1993(4) 0.4110(4)
C12 C 0.1022(7) 0.2928(4) 0.3516(4)
C13 C 0.2791(8) 0.2847(4) 0.3567(5)
H8 H 0.3193 0.2218 0.4020
C14 C 0.3991(8) 0.3664(5) 0.2971(5)
H9 H 0.5219 0.3591 0.2992
C15 C 0.0434(8) 0.3858(4) 0.2889(5)
H10 H -0.0789 0.3926 0.2855
C16 C 0.1612(9) 0.4687(5) 0.2311(5)
H11 H 0.1201 0.5333 0.1886
C17 C 0.3387(8) 0.4581(4) 0.2348(4)
C18 C 0.5035(7) 0.6186(4) 0.2266(4)
C19 C 0.4200(8) 0.6301(4) 0.3368(4)
H12 H 0.3287 0.5800 0.3798
C20 C 0.4698(7) 0.7142(4) 0.3837(4)
H13 H 0.4125 0.7216 0.4596
C21 C 0.6010(6) 0.7880(4) 0.3229(4)
C22 C 0.6856(7) 0.7746(4) 0.2126(5)
H14 H 0.7778 0.8243 0.1701
C23 C 0.6386(8) 0.6913(4) 0.1640(4)
H15 H 0.6975 0.6831 0.0886
C24 C 0.6494(7) 0.8800(4) 0.3751(5)
Cd1 Cd -0.25963(4) 0.02891(3) 0.49609(2)
N1 N -0.3018(5) 0.0000(3) 0.6884(3)
N2 N -0.2116(5) -0.0172(4) 0.8459(3)
O1 O 0.0248(5) 0.1217(3) 0.4800(3)
O2 O -0.1741(5) 0.1997(3) 0.3890(3)
O3 O 0.5565(5) 0.8926(3) 0.4742(3)
O4 O 0.7763(5) 0.9422(3) 0.3245(3)
O5 O 0.4604(6) 0.5389(3) 0.1712(3)
C1A C 0.1750(6) -0.0249(4) 1.2663(4)
H1A H 0.0717 -0.0666 1.3064
C2A C 0.4254(7) 0.0594(4) 1.2250(4)
H2A H 0.5329 0.0885 1.2328
C3A C 0.3722(7) 0.0703(5) 1.1279(4)
H3A H 0.4335 0.1074 1.0556
C4A C 0.1023(6) 0.0084(5) 1.0767(3)
C5A C -0.0131(6) 0.0962(4) 1.0519(3)
C6A C -0.0325(8) 0.1940(5) 1.1036(4)
H4A H 0.0358 0.2005 1.1567
C7A C -0.1466(9) 0.2772(6) 1.0780(5)
H5A H -0.1573 0.3415 1.1133
C8A C -0.2510(8) 0.2704(5) 0.9991(5)
H6A H -0.3317 0.3294 0.9827
C9A C -0.2355(7) 0.1798(5) 0.9472(4)
H7A H -0.3040 0.1769 0.8934
C10A C 0.1190(6) -0.0890(4) 1.0285(3)
C11_2 C -1.0244(7) -0.8007(4) 0.4110(4)
C12_2 C -0.8978(7) -0.7072(4) 0.3516(4)
C13_2 C -0.7209(8) -0.7153(4) 0.3567(5)
H8_2 H -0.6807 -0.7782 0.4020
C14_2 C -0.6009(8) -0.6336(5) 0.2971(5)
H9_2 H -0.4781 -0.6409 0.2992
C15_2 C -0.9566(8) -0.6142(4) 0.2889(5)
H10_2 H -1.0789 -0.6074 0.2855
C16_2 C -0.8388(9) -0.5313(5) 0.2311(5)
H11_2 H -0.8799 -0.4667 0.1886
C17_2 C -0.6613(8) -0.5419(4) 0.2348(4)
C18_2 C -0.4965(7) -0.3814(4) 0.2266(4)
C19_2 C -0.5800(8) -0.3699(4) 0.3368(4)
H12_2 H -0.6713 -0.4200 0.3798
C20_2 C -0.5302(7) -0.2858(4) 0.3837(4)
H13_2 H -0.5875 -0.2784 0.4596
C21_2 C -0.3990(6) -0.2120(4) 0.3229(4)
C22_2 C -0.3144(7) -0.2254(4) 0.2126(5)
H14_2 H -0.2222 -0.1757 0.1701
C23_2 C -0.3614(8) -0.3087(4) 0.1640(4)
H15_2 H -0.3025 -0.3169 0.0886
C24_2 C -0.3506(7) -0.1200(4) 0.3751(5)
Cd1A Cd 0.25963(4) -0.02891(3) 1.50391(2)
Cd1A_2 Cd 0.25963(4) -0.02891(3) 0.50391(2)
Cd1_2 Cd 0.74037(4) 1.02891(3) 0.49609(2)
Cd1A_3 Cd 0.25963(4) 0.97109(3) 0.50391(2)
Cd1_3 Cd -1.25963(4) -0.97109(3) 0.49609(2)
Cd1A_4 Cd -0.74037(4) -1.02891(3) 0.50391(2)
Cd1A_5 Cd -0.74037(4) -0.02891(3) 0.50391(2)
N1A N 0.3018(5) 0.0000(3) 1.3116(3)
N2A N 0.2116(5) 0.0172(4) 1.1541(3)
O1_2 O -0.9752(5) -0.8783(3) 0.4800(3)
O1A O -0.0248(5) -0.1217(3) 0.5200(3)
O1A_2 O -0.0248(5) -0.1217(3) 1.5200(3)
O1_3 O 0.0248(5) 0.1217(3) 1.4800(3)
O2_2 O -1.1741(5) -0.8003(3) 0.3890(3)
O2A O 0.1741(5) -0.1997(3) 1.6110(3)
O3_2 O -0.4435(5) -0.1074(3) 0.4742(3)
O3A O -0.5565(5) 0.1074(3) 0.5258(3)
O3A_2 O 0.4435(5) 0.1074(3) 1.5258(3)
O3_3 O 0.5565(5) -0.1074(3) 1.4742(3)
O4_2 O -0.2237(5) -0.0578(3) 0.3245(3)
O4A O 0.2237(5) 0.0578(3) 1.6755(3)
O5_2 O -0.5396(6) -0.4611(3) 0.1712(3)
loop_
_geom_bond_atom_site_label_1
_geom_bond_atom_site_label_2
_geom_bond_site_symmetry_1
_geom_bond_site_symmetry_2
C1 H1 1_555 1_555
C2 H2 1_555 1_555
C3 C2 1_555 1_555
H3 C3 1_555 1_555
C4 C5 1_555 1_555
C5 C6 1_555 1_555
C6 H4 1_555 1_555
C7 C6 1_555 1_555
H5 C7 1_555 1_555
C8 C7 1_555 1_555
H6 C8 1_555 1_555
C9 C8 1_555 1_555
H7 C9 1_555 1_555
C10 C4 1_555 1_555
C11 C12 1_555 1_555
C12 C13 1_555 1_555
C13 H8 1_555 1_555
C14 C13 1_555 1_555
H9 C14 1_555 1_555
C15 C12 1_555 1_555
H10 C15 1_555 1_555
C16 C15 1_555 1_555
H11 C16 1_555 1_555
C17 C14 1_555 1_555
C18 C19 1_555 1_555
C19 H12 1_555 1_555
C20 C19 1_555 1_555
H13 C20 1_555 1_555
C21 C20 1_555 1_555
C22 C21 1_555 1_555
H14 C22 1_555 1_555
C23 C18 1_555 1_555
H15 C23 1_555 1_555
C24 C21 1_555 1_555
Cd1 N1 1_555 1_555
N1 C1 1_555 1_555
N2 C1 1_555 1_555
O1 C11 1_555 1_555
O2 C11 1_555 1_555
O3 C24 1_555 1_555
O4 C24 1_555 1_555
O5 C17 1_555 1_555
C1A H1A 1_555 1_555
C2A H2A 1_555 1_555
C3A C2A 1_555 1_555
H3A C3A 1_555 1_555
C4A C5A 1_555 1_555
C5A C10 1_555 1_555
C6A C5A 1_555 1_555
H4A C6A 1_555 1_555
C7A C6A 1_555 1_555
H5A C7A 1_555 1_555
C8A C7A 1_555 1_555
H6A C8A 1_555 1_555
C9A C10 1_555 1_555
H7A C9A 1_555 1_555
C10A C5 1_555 1_555
C11_2 C12_2 1_555 1_555
C12_2 C13_2 1_555 1_555
C13_2 H8_2 1_555 1_555
C14_2 C13_2 1_555 1_555
H9_2 C14_2 1_555 1_555
C15_2 C12_2 1_555 1_555
H10_2 C15_2 1_555 1_555
C16_2 C15_2 1_555 1_555
H11_2 C16_2 1_555 1_555
C17_2 C14_2 1_555 1_555
C18_2 C19_2 1_555 1_555
C19_2 H12_2 1_555 1_555
C20_2 C19_2 1_555 1_555
H13_2 C20_2 1_555 1_555
C21_2 C20_2 1_555 1_555
C22_2 C21_2 1_555 1_555
H14_2 C22_2 1_555 1_555
C23_2 C18_2 1_555 1_555
H15_2 C23_2 1_555 1_555
C24_2 C21_2 1_555 1_555
Cd1A N1A 1_555 1_555
Cd1A_2 O1 1_555 1_555
Cd1_2 O3 1_555 1_555
Cd1A_3 O3 1_555 1_555
Cd1_3 O1_2 1_555 1_555
Cd1A_4 O1_2 1_555 1_555
Cd1A_5 O3_2 1_555 1_555
N1A C1A 1_555 1_555
N2A C1A 1_555 1_555
O1_2 C11_2 1_555 1_555
O1A Cd1 1_555 1_555
O1A_2 Cd1A 1_555 1_555
O1_3 Cd1A 1_555 1_555
O2_2 C11_2 1_555 1_555
O2A Cd1A 1_555 1_555
O3_2 Cd1 1_555 1_555
O3A Cd1 1_555 1_555
O3A_2 Cd1A 1_555 1_555
O3_3 Cd1A 1_555 1_555
O4_2 Cd1 1_555 1_555
O4A Cd1A 1_555 1_555
O5_2 C17_2 1_555 1_555
C2 N1 1_555 1_555
C3 N2 1_555 1_555
C4 N2 1_555 1_555
C9 C10A 1_555 1_555
C16 C17 1_555 1_555
C18 O5 1_555 1_555
C22 C23 1_555 1_555
Cd1 O1 1_555 1_555
Cd1 O2 1_555 1_555
O4 Cd1_2 1_555 1_555
C2A N1A 1_555 1_555
C3A N2A 1_555 1_555
C4A C10A 1_555 1_555
C4A N2A 1_555 1_555
C8A C9A 1_555 1_555
C16_2 C17_2 1_555 1_555
C18_2 O5_2 1_555 1_555
C22_2 C23_2 1_555 1_555
C24_2 O3_2 1_555 1_555
C24_2 O4_2 1_555 1_555
Cd1A_2 O1A 1_555 1_555
Cd1_3 O2_2 1_555 1_555
Cd1A_5 O3A 1_555 1_555

#END
