
#######################################################################
#
#                 Cambridge Crystallographic Data Centre
#                                CCDC 
#
#######################################################################
#
# If this CIF has been generated from an entry in the Cambridge 
# Structural Database, then it will include bibliographic, chemical, 
# crystal, experimental, refinement or atomic coordinate data resulting 
# from the CCDC's data processing and validation procedures.
#
#######################################################################

data_NEBVAT
_symmetry_cell_setting           triclinic
_symmetry_space_group_name_H-M   'P -1'
_symmetry_Int_Tables_number      2
_space_group_name_Hall           '-P 1'
loop_
_symmetry_equiv_pos_site_id
_symmetry_equiv_pos_as_xyz
1 x,y,z
2 -x,-y,-z
_cell_length_a                   9.6879(10)
_cell_length_b                   13.4937(15)
_cell_length_c                   14.8574(16)
_cell_angle_alpha                80.996(8)
_cell_angle_beta                 72.805(7)
_cell_angle_gamma                83.954(7)
_cell_volume                     1828.98
loop_
_atom_site_label
_atom_site_type_symbol
_atom_site_fract_x
_atom_site_fract_y
_atom_site_fract_z
C1 C 0.4267(6) 0.1567(4) 0.2649(4)
H1 H 0.4964 0.1661 0.2045
C2 C 0.2411(5) 0.1775(4) 0.3819(3)
H2 H 0.1532 0.2053 0.4202
C3 C 0.3156(5) 0.0918(4) 0.4082(4)
H3 H 0.2901 0.0493 0.4672
C4 C 0.5424(5) -0.0039(3) 0.3257(3)
C5 C 0.5046(5) -0.0956(4) 0.3099(3)
C6 C 0.3687(6) -0.1082(4) 0.2953(4)
H4 H 0.3001 -0.0525 0.2952
C7 C 0.3368(7) -0.1990(5) 0.2817(5)
H5 H 0.2457 -0.2063 0.2724
C8 C 0.4364(7) -0.2826(4) 0.2810(4)
H6 H 0.4125 -0.3457 0.2710
C9 C 0.5655(6) -0.2736(4) 0.2945(3)
H7 H 0.6313 -0.3310 0.2945
C10 C 0.6061(5) -0.1809(3) 0.3088(3)
C11 C 0.1323(5) 0.1992(4) 0.1039(3)
H8 H 0.0666 0.1787 0.1639
C12 C 0.2968(5) 0.2768(4) -0.0062(3)
H9 H 0.3701 0.3219 -0.0383
C13 C 0.2514(6) 0.2088(4) -0.0467(3)
H10 H 0.2851 0.1976 -0.1113
C14 C 0.0696(5) 0.0782(3) 0.0140(3)
C15 C -0.0700(5) 0.0979(4) 0.0057(3)
C16 C 0.1423(5) -0.0180(4) 0.0091(3)
C17 C 0.2833(6) -0.0379(4) 0.0197(4)
H11 H 0.3323 0.0146 0.0302
C18 C 0.3489(6) -0.1315(5) 0.0150(5)
H12 H 0.4439 -0.1434 0.0220
C19 C 0.2793(7) -0.2114(4) 0.0000(4)
H13 H 0.3274 -0.2764 -0.0031
C20 C -0.1442(6) 0.1956(4) 0.0099(4)
H14 H -0.0978 0.2499 0.0198
C21 C 0.9296(5) -0.6366(3) 0.3499(3)
C22 C 0.7717(4) -0.6152(3) 0.3532(3)
C23 C 0.7350(5) -0.5928(3) 0.2675(3)
H15 H 0.8097 -0.5921 0.2092
C24 C 0.5940(4) -0.5718(3) 0.2655(3)
C25 C 0.4822(4) -0.5705(3) 0.3521(3)
C26 C 0.3217(4) -0.5415(3) 0.3623(3)
C27 C 0.5202(5) -0.5951(3) 0.4361(3)
H16 H 0.4463 -0.5968 0.4948
C28 C 0.6621(5) -0.6173(4) 0.4372(3)
H17 H 0.6842 -0.6341 0.4961
C29 C 0.8553(5) -0.3110(3) 0.3995(3)
H18 H 0.7953 -0.3032 0.4617
C30 C 1.0194(6) -0.3655(4) 0.2842(3)
H19 H 1.0992 -0.4041 0.2492
C31 C 0.9472(6) -0.2864(4) 0.2464(4)
H20 H 0.9654 -0.2602 0.1811
C32 C 0.7408(5) -0.1661(4) 0.3195(3)
C33 C 0.7790(5) -0.0747(4) 0.3332(3)
C34 C 0.9169(6) -0.0618(4) 0.3452(4)
H21 H 0.9886 -0.1159 0.3404
C35 C 0.9446(7) 0.0282(5) 0.3636(5)
H22 H 1.0360 0.0358 0.3723
C36 C 0.8429(7) 0.1101(5) 0.3702(6)
H23 H 0.8656 0.1721 0.3835
C37 C 0.7120(6) 0.1013(4) 0.3578(4)
H24 H 0.6434 0.1575 0.3629
C38 C 0.6753(6) 0.0101(4) 0.3374(4)
Cd1 Cd 1.0000 -0.5000 0.5000
Cd2 Cd 0.24265(3) 0.35906(2) 0.20124(2)
N1 N 0.2220(4) 0.2713(3) 0.0876(3)
N2 N 0.1462(4) 0.1588(3) 0.0246(3)
N3 N 0.3128(4) 0.2171(3) 0.2917(3)
N4 N 0.4345(4) 0.0795(3) 0.3327(3)
N5 N 0.9601(4) -0.3814(3) 0.3804(2)
N6 N 0.8432(4) -0.2517(3) 0.3209(3)
O1 O 0.4927(3) -0.6305(2) 0.1384(2)
O2 O 0.2296(3) 0.5148(2) 0.1093(2)
O3 O 0.2748(3) -0.5339(2) 0.2918(2)
O4 O 1.0108(3) -0.6600(3) 0.2720(2)
O5 O 0.9670(3) -0.6344(2) 0.4231(2)
O6 O 0.7185(3) -0.5513(3) 0.0848(2)
O7 O 0.4958(3) -0.4500(2) 0.1365(2)
O8 O 0.2469(3) -0.5261(3) 0.4436(2)
S1 S 0.57179(12) -0.54749(9) 0.14729(7)
H25 H 0.2437 0.5116 0.0586
H26 H 0.3045 0.5315 0.1142
C1A C 1.5733(6) -1.1567(4) 0.7351(4)
H1A H 1.5036 -1.1661 0.7955
C2A C 1.7589(5) -1.1775(4) 0.6181(3)
H2A H 1.8468 -1.2053 0.5798
C3A C 1.6844(5) -1.0918(4) 0.5918(4)
H3A H 1.7099 -1.0493 0.5328
C4A C 1.4576(5) -0.9961(3) 0.6743(3)
C5A C 1.4954(5) -0.9044(4) 0.6901(3)
C6A C 1.6313(6) -0.8918(4) 0.7047(4)
H4A H 1.6999 -0.9475 0.7048
C7A C 1.6632(7) -0.8010(5) 0.7183(5)
H5A H 1.7543 -0.7937 0.7276
C8A C 1.5636(7) -0.7174(4) 0.7190(4)
H6A H 1.5875 -0.6543 0.7290
C9A C 1.4345(6) -0.7264(4) 0.7055(3)
H7A H 1.3687 -0.6690 0.7055
C10A C 1.3939(5) -0.8191(3) 0.6912(3)
C11A C -0.1323(5) -0.1992(4) -0.1039(3)
H8A H -0.0666 -0.1787 -0.1639
C12A C -0.2968(5) -0.2768(4) 0.0062(3)
H9A H -0.3701 -0.3219 0.0383
C13A C -0.2514(6) -0.2088(4) 0.0467(3)
H10A H -0.2851 -0.1976 0.1113
C14A C -0.0696(5) -0.0782(3) -0.0140(3)
C15A C 0.0700(5) -0.0979(4) -0.0057(3)
C16A C -0.1423(5) 0.0180(4) -0.0091(3)
C17A C -0.2833(6) 0.0379(4) -0.0197(4)
H11A H -0.3323 -0.0146 -0.0302
C18A C -0.3489(6) 0.1315(5) -0.0150(5)
H12A H -0.4439 0.1434 -0.0220
C19A C -0.2793(7) 0.2114(4) 0.0000(4)
H13A H -0.3274 0.2764 0.0031
C20A C 0.1442(6) -0.1956(4) -0.0099(4)
H14A H 0.0978 -0.2499 -0.0198
C21A C 1.0704(5) -0.3634(3) 0.6501(3)
C22A C 1.2283(4) -0.3848(3) 0.6468(3)
C23A C 1.2650(5) -0.4072(3) 0.7325(3)
H15A H 1.1903 -0.4079 0.7908
C24A C 1.4060(4) -0.4282(3) 0.7345(3)
C25A C 1.5178(4) -0.4295(3) 0.6479(3)
C26A C 1.6783(4) -0.4585(3) 0.6377(3)
C27A C 1.4798(5) -0.4049(3) 0.5639(3)
H16A H 1.5537 -0.4032 0.5052
C28A C 1.3379(5) -0.3827(4) 0.5628(3)
H17A H 1.3158 -0.3659 0.5039
C29A C 1.1447(5) -0.6890(3) 0.6005(3)
H18A H 1.2047 -0.6968 0.5383
C30A C 0.9806(6) -0.6345(4) 0.7158(3)
H19A H 0.9008 -0.5959 0.7508
C31A C 1.0528(6) -0.7136(4) 0.7536(4)
H20A H 1.0346 -0.7398 0.8189
C32A C 1.2592(5) -0.8339(4) 0.6805(3)
C33A C 1.2210(5) -0.9253(4) 0.6668(3)
C34A C 1.0831(6) -0.9382(4) 0.6548(4)
H21A H 1.0114 -0.8841 0.6596
C35A C 1.0554(7) -1.0282(5) 0.6364(5)
H22A H 0.9640 -1.0358 0.6277
C36A C 1.1571(7) -1.1101(5) 0.6298(6)
H23A H 1.1344 -1.1721 0.6165
C37A C 1.2880(6) -1.1013(4) 0.6422(4)
H24A H 1.3566 -1.1575 0.6371
C38A C 1.3247(6) -1.0101(4) 0.6626(4)
Cd1_2 Cd 0.0000 -0.5000 0.5000
Cd1_3 Cd 2.0000 -0.5000 0.5000
Cd2A Cd 1.75735(3) -1.35906(2) 0.79876(2)
Cd2_2 Cd 0.24265(3) -0.64094(2) 0.20124(2)
Cd2_3 Cd 1.24265(3) -0.64094(2) 0.20124(2)
Cd2A_2 Cd -0.24265(3) -0.35906(2) -0.20124(2)
Cd2A_3 Cd 1.75735(3) -0.35906(2) 0.79876(2)
Cd2A_4 Cd 0.75735(3) -0.35906(2) 0.79876(2)
N1A N -0.2220(4) -0.2713(3) -0.0876(3)
N1A_2 N 1.7780(4) -1.2713(3) 0.9124(3)
N2A N -0.1462(4) -0.1588(3) -0.0246(3)
N3A N 1.6872(4) -1.2171(3) 0.7083(3)
N4A N 1.5655(4) -1.0795(3) 0.6673(3)
N5A N 1.0399(4) -0.6186(3) 0.6196(2)
N6A N 1.1568(4) -0.7483(3) 0.6791(3)
O1A O 1.5073(3) -0.3695(2) 0.8616(2)
O1_2 O 0.4927(3) 0.3695(2) 0.1384(2)
O1A_2 O 1.5073(3) -1.3695(2) 0.8616(2)
O2A O 1.7704(3) -1.5148(2) 0.8907(2)
O3A O 1.7252(3) -0.4661(2) 0.7082(2)
O3_2 O 0.2748(3) 0.4661(2) 0.2918(2)
O3A_2 O 1.7252(3) -1.4661(2) 0.7082(2)
O4A O 0.9892(3) -0.3400(3) 0.7280(2)
O4_2 O 0.0108(3) 0.3400(3) 0.2720(2)
O4A_2 O 1.9892(3) -1.3400(3) 0.7280(2)
O5A O 1.0330(3) -0.3656(2) 0.5769(2)
O6A O 1.2815(3) -0.4487(3) 0.9152(2)
O7A O 1.5042(3) -0.5500(2) 0.8635(2)
O8A O 1.7531(3) -0.4739(3) 0.5564(2)
O8_2 O 1.2469(3) -0.5261(3) 0.4436(2)
O8A_2 O 0.7531(3) -0.4739(3) 0.5564(2)
S1A S 1.42821(12) -0.45251(9) 0.85271(7)
H25A H 1.7563 -1.5116 0.9414
H26A H 1.6955 -1.5315 0.8858
loop_
_geom_bond_atom_site_label_1
_geom_bond_atom_site_label_2
_geom_bond_site_symmetry_1
_geom_bond_site_symmetry_2
C1 H1 1_555 1_555
C2 H2 1_555 1_555
C3 C2 1_555 1_555
H3 C3 1_555 1_555
C4 C5 1_555 1_555
C5 C6 1_555 1_555
C6 H4 1_555 1_555
C7 C6 1_555 1_555
H5 C7 1_555 1_555
C8 C7 1_555 1_555
H6 C8 1_555 1_555
C9 C8 1_555 1_555
H7 C9 1_555 1_555
C10 C5 1_555 1_555
C11 H8 1_555 1_555
C12 H9 1_555 1_555
C13 C12 1_555 1_555
H10 C13 1_555 1_555
C14 C15 1_555 1_555
C15 C20 1_555 1_555
C16 C14 1_555 1_555
C17 C16 1_555 1_555
H11 C17 1_555 1_555
C18 C17 1_555 1_555
H12 C18 1_555 1_555
C19 C18 1_555 1_555
H13 C19 1_555 1_555
C20 H14 1_555 1_555
C21 C22 1_555 1_555
C22 C23 1_555 1_555
C23 H15 1_555 1_555
C24 C23 1_555 1_555
C25 C24 1_555 1_555
C26 C25 1_555 1_555
C27 C25 1_555 1_555
H16 C27 1_555 1_555
C28 C22 1_555 1_555
H17 C28 1_555 1_555
C29 H18 1_555 1_555
C30 H19 1_555 1_555
C31 C30 1_555 1_555
H20 C31 1_555 1_555
C32 C10 1_555 1_555
C33 C32 1_555 1_555
C34 C33 1_555 1_555
H21 C34 1_555 1_555
C35 C34 1_555 1_555
H22 C35 1_555 1_555
C36 C35 1_555 1_555
H23 C36 1_555 1_555
C37 C36 1_555 1_555
H24 C37 1_555 1_555
C38 C4 1_555 1_555
Cd1 N5 1_555 1_555
Cd2 N1 1_555 1_555
N1 C11 1_555 1_555
N2 C11 1_555 1_555
N3 C1 1_555 1_555
N4 C1 1_555 1_555
N5 C29 1_555 1_555
N6 C29 1_555 1_555
O1 S1 1_555 1_555
O2 Cd2 1_555 1_555
O3 C26 1_555 1_555
O4 C21 1_555 1_555
O5 C21 1_555 1_555
O6 S1 1_555 1_555
O7 S1 1_555 1_555
O8 C26 1_555 1_555
S1 C24 1_555 1_555
H25 O2 1_555 1_555
H26 O2 1_555 1_555
C1A H1A 1_555 1_555
C2A H2A 1_555 1_555
C3A C2A 1_555 1_555
H3A C3A 1_555 1_555
C4A C5A 1_555 1_555
C5A C6A 1_555 1_555
C6A H4A 1_555 1_555
C7A C6A 1_555 1_555
H5A C7A 1_555 1_555
C8A C7A 1_555 1_555
H6A C8A 1_555 1_555
C9A C8A 1_555 1_555
H7A C9A 1_555 1_555
C10A C5A 1_555 1_555
C11A H8A 1_555 1_555
C12A H9A 1_555 1_555
C13A C12A 1_555 1_555
H10A C13A 1_555 1_555
C14A C15A 1_555 1_555
C15A C16 1_555 1_555
C16A C15 1_555 1_555
C17A C16A 1_555 1_555
H11A C17A 1_555 1_555
C18A C17A 1_555 1_555
H12A C18A 1_555 1_555
C19A C20 1_555 1_555
H13A C19A 1_555 1_555
C20A C19 1_555 1_555
H14A C20A 1_555 1_555
C21A C22A 1_555 1_555
C22A C23A 1_555 1_555
C23A H15A 1_555 1_555
C24A C23A 1_555 1_555
C25A C24A 1_555 1_555
C26A C25A 1_555 1_555
C27A C25A 1_555 1_555
H16A C27A 1_555 1_555
C28A C22A 1_555 1_555
H17A C28A 1_555 1_555
C29A H18A 1_555 1_555
C30A H19A 1_555 1_555
C31A C30A 1_555 1_555
H20A C31A 1_555 1_555
C32A C10A 1_555 1_555
C33A C32A 1_555 1_555
C34A C33A 1_555 1_555
H21A C34A 1_555 1_555
C35A C34A 1_555 1_555
H22A C35A 1_555 1_555
C36A C35A 1_555 1_555
H23A C36A 1_555 1_555
C37A C36A 1_555 1_555
H24A C37A 1_555 1_555
C38A C4A 1_555 1_555
Cd1_2 O8 1_555 1_555
Cd1_3 O8A 1_555 1_555
Cd2A N1A_2 1_555 1_555
Cd2_2 O1 1_555 1_555
Cd2_3 O4 1_555 1_555
Cd2A_2 N1A 1_555 1_555
Cd2A_3 O1A 1_555 1_555
Cd2A_4 O4A 1_555 1_555
N1A C11A 1_555 1_555
N2A C11A 1_555 1_555
N3A C1A 1_555 1_555
N4A C1A 1_555 1_555
N5A Cd1 1_555 1_555
N6A C29A 1_555 1_555
O1A S1A 1_555 1_555
O1_2 Cd2 1_555 1_555
O1A_2 Cd2A 1_555 1_555
O2A Cd2A 1_555 1_555
O3A C26A 1_555 1_555
O3_2 Cd2 1_555 1_555
O3A_2 Cd2A 1_555 1_555
O4A C21A 1_555 1_555
O4_2 Cd2 1_555 1_555
O4A_2 Cd2A 1_555 1_555
O5A Cd1 1_555 1_555
O6A S1A 1_555 1_555
O7A S1A 1_555 1_555
O8A C26A 1_555 1_555
O8_2 Cd1 1_555 1_555
O8A_2 Cd1 1_555 1_555
S1A C24A 1_555 1_555
H25A O2A 1_555 1_555
H26A O2A 1_555 1_555
C2 N3 1_555 1_555
C3 N4 1_555 1_555
C4 N4 1_555 1_555
C9 C10 1_555 1_555
C12 N1 1_555 1_555
C13 N2 1_555 1_555
C14 N2 1_555 1_555
C27 C28 1_555 1_555
C30 N5 1_555 1_555
C31 N6 1_555 1_555
C32 N6 1_555 1_555
C33 C38 1_555 1_555
C37 C38 1_555 1_555
Cd1 O5 1_555 1_555
Cd2 N3 1_555 1_555
O3 Cd2_2 1_555 1_555
C2A N3A 1_555 1_555
C3A N4A 1_555 1_555
C4A N4A 1_555 1_555
C9A C10A 1_555 1_555
C12A N1A 1_555 1_555
C13A N2A 1_555 1_555
C14A C16A 1_555 1_555
C14A N2A 1_555 1_555
C15A C20A 1_555 1_555
C18A C19A 1_555 1_555
C21A O5A 1_555 1_555
C27A C28A 1_555 1_555
C29A N5A 1_555 1_555
C30A N5A 1_555 1_555
C31A N6A 1_555 1_555
C32A N6A 1_555 1_555
C33A C38A 1_555 1_555
C37A C38A 1_555 1_555
Cd2A N3A 1_555 1_555
Cd2A_3 O3A 1_555 1_555

#END
