
#######################################################################
#
#                 Cambridge Crystallographic Data Centre
#                                CCDC 
#
#######################################################################
#
# If this CIF has been generated from an entry in the Cambridge 
# Structural Database, then it will include bibliographic, chemical, 
# crystal, experimental, refinement or atomic coordinate data resulting 
# from the CCDC's data processing and validation procedures.
#
#######################################################################

data_NEBVOF
_symmetry_cell_setting           monoclinic
_symmetry_space_group_name_H-M   'P 21/n'
_symmetry_Int_Tables_number      14
_space_group_name_Hall           '-P 2yn'
loop_
_symmetry_equiv_pos_site_id
_symmetry_equiv_pos_as_xyz
1 x,y,z
2 1/2-x,1/2+y,1/2-z
3 -x,-y,-z
4 1/2+x,1/2-y,1/2+z
_cell_length_a                   9.242(3)
_cell_length_b                   13.695(2)
_cell_length_c                   14.010(2)
_cell_angle_alpha                90
_cell_angle_beta                 99.680(3)
_cell_angle_gamma                90
_cell_volume                     1747.99
loop_
_atom_site_label
_atom_site_type_symbol
_atom_site_fract_x
_atom_site_fract_y
_atom_site_fract_z
N1 N 0.5012(5) 0.1477(5) 0.5535(3)
N2 N 0.4133(5) 0.1481(4) 0.4671(3)
C1 C 0.2935(6) 0.0916(4) 0.4577(4)
N3 N 0.2612(6) 0.0321(4) 0.5275(4)
N4 N 0.3469(5) 0.0318(4) 0.6115(3)
C2 C 0.4621(6) 0.0922(4) 0.6222(4)
C3 C 0.1971(6) 0.0923(4) 0.3628(4)
C4 C 0.0550(6) 0.0550(5) 0.3514(4)
C5 C -0.0286(6) 0.0549(5) 0.2590(4)
N5 N 0.0198(5) 0.0877(4) 0.1824(3)
C6 C 0.1586(6) 0.1245(5) 0.1938(4)
C7 C 0.2475(6) 0.1273(4) 0.2826(4)
C8 C 0.5597(6) 0.0937(4) 0.7186(4)
C9 C 0.5129(6) 0.0588(5) 0.8004(4)
C10 C 0.6064(6) 0.0574(5) 0.8875(4)
N6 N 0.7475(5) 0.0894(4) 0.8960(3)
C11 C 0.7917(6) 0.1240(4) 0.8169(4)
C12 C 0.7056(6) 0.1281(4) 0.7272(4)
N7 N -0.1585(8) -0.1116(5) 0.0626(5)
C13 C -0.2056(8) -0.1869(6) 0.0739(5)
C14 C -0.2661(9) -0.2817(6) 0.0864(6)
Ag1 Ag -0.11135(5) 0.07663(4) 0.03699(3)
H1 H 0.0144(6) 0.0289(5) 0.4082(4)
H2 H -0.1311(6) 0.0289(5) 0.2505(4)
H3 H 0.1960(6) 0.1509(5) 0.1360(4)
H4 H 0.3493(6) 0.1543(4) 0.2890(4)
H5 H 0.4099(6) 0.0347(5) 0.7964(4)
H6 H 0.5709(6) 0.0313(5) 0.9461(4)
H7 H 0.8949(6) 0.1482(4) 0.8230(4)
H8 H 0.7439(6) 0.1548(4) 0.6699(4)
H9 H -0.2045(9) -0.3159(6) 0.1420(6)
H10 H -0.3683(9) -0.2740(6) 0.1001(6)
H11 H -0.2683(9) -0.3211(6) 0.0261(6)
Ag1_2 Ag 0.88865(5) 0.07663(4) 1.03699(3)
N6_2 N -0.2525(5) 0.0894(4) -0.1040(3)
Ag1B Ag 0.11135(5) -0.07663(4) -0.03699(3)
P1 P -0.4060(2) 0.2327(2) 0.1333(1)
F1 F -0.3405(6) 0.1287(5) 0.1423(6)
F2 F -0.2599(6) 0.2796(6) 0.1831(5)
F3 F -0.3709(8) 0.2513(5) 0.0330(4)
F4 F -0.5580(7) 0.1880(7) 0.0906(6)
F5 F -0.477(1) 0.3377(6) 0.1138(9)
F6 F -0.4588(9) 0.2235(9) 0.2310(6)
loop_
_geom_bond_atom_site_label_1
_geom_bond_atom_site_label_2
_geom_bond_site_symmetry_1
_geom_bond_site_symmetry_2
N1 N2 1_555 1_555
N2 C1 1_555 1_555
C1 N3 1_555 1_555
N3 N4 1_555 1_555
N4 C2 1_555 1_555
C2 N1 1_555 1_555
C3 C1 1_555 1_555
C4 C3 1_555 1_555
C5 C4 1_555 1_555
N5 C5 1_555 1_555
C6 N5 1_555 1_555
C7 C3 1_555 1_555
C8 C2 1_555 1_555
C9 C8 1_555 1_555
C10 C9 1_555 1_555
N6 C10 1_555 1_555
C11 N6 1_555 1_555
C12 C8 1_555 1_555
N7 C13 1_555 1_555
C13 C14 1_555 1_555
C14 H9 1_555 1_555
P1 F1 1_555 1_555
F2 P1 1_555 1_555
F3 P1 1_555 1_555
F4 P1 1_555 1_555
F5 P1 1_555 1_555
F6 P1 1_555 1_555
Ag1 N5 1_555 1_555
H1 C4 1_555 1_555
H2 C5 1_555 1_555
H3 C6 1_555 1_555
H4 C7 1_555 1_555
H5 C9 1_555 1_555
H6 C10 1_555 1_555
H7 C11 1_555 1_555
H8 C12 1_555 1_555
H10 C14 1_555 1_555
H11 C14 1_555 1_555
Ag1_2 N6 1_555 1_555
N6_2 Ag1 1_555 1_555
Ag1B Ag1 1_555 1_555
C6 C7 1_555 1_555
C11 C12 1_555 1_555
N7 Ag1 1_555 1_555

#END
