
#######################################################################
#
#                 Cambridge Crystallographic Data Centre
#                                CCDC 
#
#######################################################################
#
# If this CIF has been generated from an entry in the Cambridge 
# Structural Database, then it will include bibliographic, chemical, 
# crystal, experimental, refinement or atomic coordinate data resulting 
# from the CCDC's data processing and validation procedures.
#
#######################################################################

data_NEBVEV
_symmetry_cell_setting           hexagonal
_symmetry_space_group_name_H-M   'P 61 2 2'
_symmetry_Int_Tables_number      178
_space_group_name_Hall           "P 61 2' (0,0,5)"
loop_
_symmetry_equiv_pos_site_id
_symmetry_equiv_pos_as_xyz
1 x,y,z
2 x-y,x,1/6+z
3 -y,x-y,1/3+z
4 -x,-y,1/2+z
5 -x+y,-x,2/3+z
6 y,-x+y,5/6+z
7 x-y,-y,-z
8 -y,-x,5/6-z
9 -x,-x+y,2/3-z
10 -x+y,y,1/2-z
11 y,x,1/3-z
12 x,x-y,1/6-z
_cell_length_a                   8.865(4)
_cell_length_b                   8.865(4)
_cell_length_c                   31.08(2)
_cell_angle_alpha                90
_cell_angle_beta                 90
_cell_angle_gamma                120
_cell_volume                     2115.29
loop_
_atom_site_label
_atom_site_type_symbol
_atom_site_fract_x
_atom_site_fract_y
_atom_site_fract_z
Ag1 Ag 1.26720(3) 1.53439(5) 0.2500
N2 N 0.6084(4) 0.4476(4) 0.2699(1)
N3 N 0.6947(4) 0.6198(3) 0.2696(1)
C1 C 0.8493(3) 0.6987(5) 0.2500
C2 C 0.6838(3) 0.3676(6) 0.2500
C3 C 0.9459(3) 0.8917(6) 0.2500
C4 C 0.8967(6) 0.9841(5) 0.2767(1)
C5 C 0.9901(6) 1.1645(5) 0.2758(1)
N4 N 1.1268(3) 1.2535(5) 0.2500
C6 C 0.5873(3) 0.1746(6) 0.2500
C7 C 0.4874(6) 0.0848(5) 0.2848(1)
C8 C 0.3996(5) -0.0957(5) 0.2841(1)
N5 N 0.4077(3) -0.1847(6) 0.2500
H1 H 0.7959(6) 0.9212(5) 0.2968(1)
H2 H 0.9560(6) 1.2317(5) 0.2955(1)
H3 H 0.4795(6) 0.1503(5) 0.3100(1)
H4 H 0.3288(5) -0.1621(5) 0.3096(1)
N2I N 0.8392(6) 0.4476(4) 0.2301(1)
N3I N 0.9251(5) 0.6198(3) 0.2304(1)
Ag1_2 Ag 0.26720(3) -0.46561(5) 0.2500
N4_2 N 0.1268(3) -0.7465(5) 0.2500
C8I C 0.5047(7) -0.0957(5) 0.2159(1)
C7I C 0.5974(8) 0.0848(5) 0.2152(1)
H3I H 0.6708(8) 0.1503(5) 0.1900(1)
H4I H 0.5091(7) -0.1621(5) 0.1904(1)
C4I C 1.0874(8) 0.9841(5) 0.2233(1)
C5I C 1.1744(8) 1.1645(5) 0.2242(1)
H2I H 1.2757(8) 1.2317(5) 0.2045(1)
H1I H 1.1253(8) 0.9212(5) 0.2032(1)
N1 N 1.0000 1.5374(6) 0.3333
O1 O 1.1412(4) 1.5357(4) 0.3321(1)
O2 O 1.0000 1.6769(5) 0.3333
O1H O 0.8588(4) 1.3945(6) 0.3346(1)
loop_
_geom_bond_atom_site_label_1
_geom_bond_atom_site_label_2
_geom_bond_site_symmetry_1
_geom_bond_site_symmetry_2
Ag1 N4 1_555 1_555
N1 O1 1_555 1_555
O2 N1 1_555 1_555
N2 N3 1_555 1_555
N3 C1 1_555 1_555
C1 C3 1_555 1_555
C2 N2 1_555 1_555
C3 C4 1_555 1_555
C4 C5 1_555 1_555
C5 N4 1_555 1_555
N4 C5I 1_555 1_555
C6 C2 1_555 1_555
C7 C6 1_555 1_555
C8 C7 1_555 1_555
N5 C8 1_555 1_555
H1 C4 1_555 1_555
H2 C5 1_555 1_555
H3 C7 1_555 1_555
H4 C8 1_555 1_555
N2I C2 1_555 1_555
N3I C1 1_555 1_555
Ag1_2 N5 1_555 1_555
N4_2 Ag1_2 1_555 1_555
C8I N5 1_555 1_555
C7I C6 1_555 1_555
H3I C7I 1_555 1_555
H4I C8I 1_555 1_555
C4I C3 1_555 1_555
C5I C4I 1_555 1_555
H2I C5I 1_555 1_555
H1I C4I 1_555 1_555
O1H N1 1_555 1_555
N2I N3I 1_555 1_555
C8I C7I 1_555 1_555

#END
