
#######################################################################
#
#                 Cambridge Crystallographic Data Centre
#                                CCDC 
#
#######################################################################
#
# If this CIF has been generated from an entry in the Cambridge 
# Structural Database, then it will include bibliographic, chemical, 
# crystal, experimental, refinement or atomic coordinate data resulting 
# from the CCDC's data processing and validation procedures.
#
#######################################################################

data_NEBVIB
_symmetry_cell_setting           triclinic
_symmetry_space_group_name_H-M   'P -1'
_symmetry_Int_Tables_number      2
_space_group_name_Hall           '-P 1'
loop_
_symmetry_equiv_pos_site_id
_symmetry_equiv_pos_as_xyz
1 x,y,z
2 -x,-y,-z
_cell_length_a                   9.393(2)
_cell_length_b                   13.330(3)
_cell_length_c                   14.569(4)
_cell_angle_alpha                80.389(19)
_cell_angle_beta                 73.261(17)
_cell_angle_gamma                83.787(18)
_cell_volume                     1718.85
loop_
_atom_site_label
_atom_site_type_symbol
_atom_site_fract_x
_atom_site_fract_y
_atom_site_fract_z
C1 C 0.4203(7) 0.1604(4) 0.2568(4)
H1 H 0.4882 0.1685 0.1939
C2 C 0.2342(6) 0.1849(4) 0.3788(4)
H2 H 0.1458 0.2138 0.4187
C3 C 0.3122(7) 0.0974(4) 0.4061(4)
H3 H 0.2890 0.0552 0.4671
C4 C 0.5378(6) -0.0020(4) 0.3221(4)
C5 C 0.5003(6) -0.0948(4) 0.3055(4)
C6 C 0.3592(7) -0.1074(5) 0.2903(5)
H4 H 0.2893 -0.0504 0.2893
C7 C 0.3245(8) -0.1983(5) 0.2773(6)
H5 H 0.2311 -0.2044 0.2664
C8 C 0.4249(8) -0.2845(5) 0.2798(5)
H6 H 0.3989 -0.3482 0.2704
C9 C 0.5595(7) -0.2769(4) 0.2957(4)
H7 H 0.6254 -0.3359 0.2988
C10 C 0.6022(6) -0.1817(4) 0.3076(4)
C11 C 0.1298(7) 0.1974(4) 0.1149(4)
H8 H 0.0632 0.1734 0.1754
C12 C 0.2950(6) 0.2824(4) 0.0053(4)
H9 H 0.3675 0.3306 -0.0261
C13 C 0.2510(6) 0.2149(4) -0.0380(4)
H10 H 0.2866 0.2062 -0.1044
C14 C 0.0694(6) 0.0781(4) 0.0174(4)
C15 C -0.0730(6) 0.0988(4) 0.0046(4)
C16 C 0.1451(6) -0.0175(4) 0.0142(5)
C17 C 0.2871(7) -0.0393(5) 0.0295(5)
H11 H 0.3363 0.0134 0.0422
C18 C 0.3542(7) -0.1335(5) 0.0265(5)
H12 H 0.4494 -0.1463 0.0380
C19 C 0.2874(7) -0.2129(5) 0.0068(5)
H13 H 0.3387 -0.2782 0.0036
C20 C -0.1499(7) 0.1977(5) 0.0079(5)
H14 H -0.1047 0.2525 0.0203
C21 C 0.9355(5) -0.6312(4) 0.3499(4)
C22 C 0.7722(6) -0.6126(4) 0.3512(4)
C23 C 0.7323(6) -0.5955(4) 0.2650(4)
H15 H 0.8077 -0.5980 0.2056
C24 C 0.5838(6) -0.5746(4) 0.2637(4)
C25 C 0.4707(6) -0.5734(4) 0.3529(4)
C26 C 0.3065(6) -0.5458(4) 0.3612(4)
C27 C 0.5130(6) -0.5942(4) 0.4378(4)
H16 H 0.4382 -0.5943 0.4977
C28 C 0.6608(6) -0.6152(4) 0.4388(4)
H17 H 0.6857 -0.6311 0.4985
C29 C 0.8572(7) -0.3145(4) 0.4095(4)
H18 H 0.8001 -0.3028 0.4726
C30 C 1.0128(7) -0.3786(5) 0.2931(5)
H19 H 1.0889 -0.4219 0.2582
C31 C 0.9422(8) -0.2972(5) 0.2521(5)
H20 H 0.9583 -0.2736 0.1849
C32 C 0.7394(6) -0.1686(4) 0.3210(4)
C33 C 0.7796(6) -0.0766(5) 0.3349(5)
C34 C 0.9194(7) -0.0641(5) 0.3516(5)
H21 H 0.9907 -0.1205 0.3505
C35 C 0.9518(8) 0.0265(6) 0.3689(6)
H22 H 1.0464 0.0334 0.3778
C36 C 0.8465(9) 0.1100(5) 0.3739(6)
H23 H 0.8693 0.1724 0.3880
C37 C 0.7137(7) 0.1024(5) 0.3588(5)
H24 H 0.6439 0.1598 0.3630
C38 C 0.6746(7) 0.0101(4) 0.3366(4)
Ni1 Ni 1.0000 -0.5000 0.5000
Ni2 Ni 0.24103(7) 0.35283(5) 0.20397(5)
N1 N 0.2199(5) 0.2713(3) 0.1012(3)
N2 N 0.1446(5) 0.1610(4) 0.0321(3)
N3 N 0.3028(5) 0.2237(3) 0.2862(3)
N4 N 0.4308(5) 0.0835(3) 0.3270(4)
N5 N 0.9600(5) -0.3897(3) 0.3911(3)
N6 N 0.8438(5) -0.2564(4) 0.3265(3)
O1 O 0.4683(4) -0.6328(3) 0.1363(3)
O2 O 0.1989(4) 0.4911(3) 0.1185(3)
O3 O 0.2561(4) -0.5509(3) 0.2919(3)
O4 O 1.0196(4) -0.6578(3) 0.2719(3)
O5 O 0.9715(4) -0.6214(3) 0.4250(3)
O6 O 0.7036(4) -0.5558(3) 0.0787(3)
O7 O 0.4762(4) -0.4506(3) 0.1354(3)
O8 O 0.2302(4) -0.5136(3) 0.4393(3)
S1 S 0.55458(15) -0.55031(11) 0.14480(10)
H25 H 0.2359 0.5026 0.0492
H26 H 0.2822 0.5566 0.1000
C1A C 1.5797(7) -1.1604(4) 0.7432(4)
H1A H 1.5118 -1.1685 0.8061
C2A C 1.7658(6) -1.1849(4) 0.6212(4)
H2A H 1.8542 -1.2138 0.5813
C3A C 1.6878(7) -1.0974(4) 0.5939(4)
H3A H 1.7110 -1.0552 0.5329
C4A C 1.4622(6) -0.9980(4) 0.6779(4)
C5A C 1.4997(6) -0.9052(4) 0.6945(4)
C6A C 1.6408(7) -0.8926(5) 0.7097(5)
H4A H 1.7107 -0.9496 0.7107
C7A C 1.6755(8) -0.8017(5) 0.7227(6)
H5A H 1.7689 -0.7956 0.7336
C8A C 1.5751(8) -0.7155(5) 0.7202(5)
H6A H 1.6011 -0.6518 0.7296
C9A C 1.4405(7) -0.7231(4) 0.7043(4)
H7A H 1.3746 -0.6641 0.7012
C10A C 1.3978(6) -0.8183(4) 0.6924(4)
C11A C -0.1298(7) -0.1974(4) -0.1149(4)
H8A H -0.0632 -0.1734 -0.1754
C12A C -0.2950(6) -0.2824(4) -0.0053(4)
H9A H -0.3675 -0.3306 0.0261
C13A C -0.2510(6) -0.2149(4) 0.0380(4)
H10A H -0.2866 -0.2062 0.1044
C14A C -0.0694(6) -0.0781(4) -0.0174(4)
C15A C 0.0730(6) -0.0988(4) -0.0046(4)
C16A C -0.1451(6) 0.0175(4) -0.0142(5)
C17A C -0.2871(7) 0.0393(5) -0.0295(5)
H11A H -0.3363 -0.0134 -0.0422
C18A C -0.3542(7) 0.1335(5) -0.0265(5)
H12A H -0.4494 0.1463 -0.0380
C19A C -0.2874(7) 0.2129(5) -0.0068(5)
H13A H -0.3387 0.2782 -0.0036
C20A C 0.1499(7) -0.1977(5) -0.0079(5)
H14A H 0.1047 -0.2525 -0.0203
C21A C 1.0645(5) -0.3688(4) 0.6501(4)
C22A C 1.2278(6) -0.3874(4) 0.6488(4)
C23A C 1.2677(6) -0.4045(4) 0.7350(4)
H15A H 1.1923 -0.4020 0.7944
C24A C 1.4162(6) -0.4254(4) 0.7363(4)
C25A C 1.5293(6) -0.4266(4) 0.6471(4)
C26A C 1.6935(6) -0.4542(4) 0.6388(4)
C27A C 1.4870(6) -0.4058(4) 0.5622(4)
H16A H 1.5618 -0.4057 0.5023
C28A C 1.3392(6) -0.3848(4) 0.5612(4)
H17A H 1.3143 -0.3689 0.5015
C29A C 1.1428(7) -0.6855(4) 0.5905(4)
H18A H 1.1999 -0.6972 0.5274
C30A C 0.9872(7) -0.6214(5) 0.7069(5)
H19A H 0.9111 -0.5781 0.7418
C31A C 1.0578(8) -0.7028(5) 0.7479(5)
H20A H 1.0417 -0.7264 0.8151
C32A C 1.2606(6) -0.8314(4) 0.6790(4)
C33A C 1.2204(6) -0.9234(5) 0.6651(5)
C34A C 1.0806(7) -0.9359(5) 0.6484(5)
H21A H 1.0093 -0.8795 0.6495
C35A C 1.0482(8) -1.0265(6) 0.6311(6)
H22A H 0.9536 -1.0334 0.6222
C36A C 1.1535(9) -1.1100(5) 0.6261(6)
H23A H 1.1307 -1.1724 0.6120
C37A C 1.2863(7) -1.1024(5) 0.6412(5)
H24A H 1.3561 -1.1598 0.6370
C38A C 1.3254(7) -1.0101(4) 0.6634(4)
Ni1_2 Ni 0.0000 -0.5000 0.5000
Ni1_3 Ni 2.0000 -0.5000 0.5000
Ni2A Ni 1.75897(7) -1.35283(5) 0.79603(5)
Ni2_2 Ni 0.24103(7) -0.64717(5) 0.20397(5)
Ni2_3 Ni 1.24103(7) -0.64717(5) 0.20397(5)
Ni2A_2 Ni -0.24103(7) -0.35283(5) -0.20397(5)
Ni2A_3 Ni 1.75897(7) -0.35283(5) 0.79603(5)
Ni2A_4 Ni 0.75897(7) -0.35283(5) 0.79603(5)
N1A N -0.2199(5) -0.2713(3) -0.1012(3)
N1A_2 N 1.7801(5) -1.2713(3) 0.8988(3)
N2A N -0.1446(5) -0.1610(4) -0.0321(3)
N3A N 1.6972(5) -1.2237(3) 0.7138(3)
N4A N 1.5692(5) -1.0835(3) 0.6730(4)
N5A N 1.0400(5) -0.6103(3) 0.6089(3)
N6A N 1.1562(5) -0.7436(4) 0.6735(3)
O1A O 1.5317(4) -0.3672(3) 0.8637(3)
O1_2 O 0.4683(4) 0.3672(3) 0.1363(3)
O1A_2 O 1.5317(4) -1.3672(3) 0.8637(3)
O2A O 1.8011(4) -1.4911(3) 0.8815(3)
O3A O 1.7439(4) -0.4491(3) 0.7081(3)
O3_2 O 0.2561(4) 0.4491(3) 0.2919(3)
O3A_2 O 1.7439(4) -1.4491(3) 0.7081(3)
O4A O 0.9804(4) -0.3422(3) 0.7281(3)
O4_2 O 0.0196(4) 0.3422(3) 0.2719(3)
O4A_2 O 1.9804(4) -1.3422(3) 0.7281(3)
O5A O 1.0285(4) -0.3786(3) 0.5750(3)
O6A O 1.2964(4) -0.4442(3) 0.9213(3)
O7A O 1.5238(4) -0.5494(3) 0.8646(3)
O8A O 1.7698(4) -0.4864(3) 0.5607(3)
O8_2 O 1.2302(4) -0.5136(3) 0.4393(3)
O8A_2 O 0.7698(4) -0.4864(3) 0.5607(3)
S1A S 1.44542(15) -0.44969(11) 0.85520(10)
H25A H 1.7641 -1.5026 0.9508
H26A H 1.7178 -1.5566 0.9000
loop_
_geom_bond_atom_site_label_1
_geom_bond_atom_site_label_2
_geom_bond_site_symmetry_1
_geom_bond_site_symmetry_2
C1 H1 1_555 1_555
C2 H2 1_555 1_555
C3 C2 1_555 1_555
H3 C3 1_555 1_555
C4 C5 1_555 1_555
C5 C6 1_555 1_555
C6 H4 1_555 1_555
C7 C6 1_555 1_555
H5 C7 1_555 1_555
C8 C7 1_555 1_555
H6 C8 1_555 1_555
C9 C8 1_555 1_555
H7 C9 1_555 1_555
C10 C5 1_555 1_555
C11 H8 1_555 1_555
C12 H9 1_555 1_555
C13 C12 1_555 1_555
H10 C13 1_555 1_555
C14 C15 1_555 1_555
C15 C20 1_555 1_555
C16 C14 1_555 1_555
C17 C16 1_555 1_555
H11 C17 1_555 1_555
C18 C17 1_555 1_555
H12 C18 1_555 1_555
C19 C18 1_555 1_555
H13 C19 1_555 1_555
C20 H14 1_555 1_555
C21 C22 1_555 1_555
C22 C23 1_555 1_555
C23 H15 1_555 1_555
C24 C23 1_555 1_555
C25 C24 1_555 1_555
C26 C25 1_555 1_555
C27 C25 1_555 1_555
H16 C27 1_555 1_555
C28 C22 1_555 1_555
H17 C28 1_555 1_555
C29 H18 1_555 1_555
C30 H19 1_555 1_555
C31 C30 1_555 1_555
H20 C31 1_555 1_555
C32 C10 1_555 1_555
C33 C32 1_555 1_555
C34 C33 1_555 1_555
H21 C34 1_555 1_555
C35 C34 1_555 1_555
H22 C35 1_555 1_555
C36 C35 1_555 1_555
H23 C36 1_555 1_555
C37 C36 1_555 1_555
H24 C37 1_555 1_555
C38 C4 1_555 1_555
Ni1 N5 1_555 1_555
Ni2 N1 1_555 1_555
N1 C11 1_555 1_555
N2 C11 1_555 1_555
N3 C1 1_555 1_555
N4 C1 1_555 1_555
N5 C29 1_555 1_555
N6 C29 1_555 1_555
O1 S1 1_555 1_555
O2 Ni2 1_555 1_555
O3 C26 1_555 1_555
O4 C21 1_555 1_555
O5 C21 1_555 1_555
O6 S1 1_555 1_555
O7 S1 1_555 1_555
O8 C26 1_555 1_555
S1 C24 1_555 1_555
H25 O2 1_555 1_555
H26 O2 1_555 1_555
C1A H1A 1_555 1_555
C2A H2A 1_555 1_555
C3A C2A 1_555 1_555
H3A C3A 1_555 1_555
C4A C5A 1_555 1_555
C5A C6A 1_555 1_555
C6A H4A 1_555 1_555
C7A C6A 1_555 1_555
H5A C7A 1_555 1_555
C8A C7A 1_555 1_555
H6A C8A 1_555 1_555
C9A C8A 1_555 1_555
H7A C9A 1_555 1_555
C10A C5A 1_555 1_555
C11A H8A 1_555 1_555
C12A H9A 1_555 1_555
C13A C12A 1_555 1_555
H10A C13A 1_555 1_555
C14A C15A 1_555 1_555
C15A C16 1_555 1_555
C16A C15 1_555 1_555
C17A C16A 1_555 1_555
H11A C17A 1_555 1_555
C18A C17A 1_555 1_555
H12A C18A 1_555 1_555
C19A C20 1_555 1_555
H13A C19A 1_555 1_555
C20A C19 1_555 1_555
H14A C20A 1_555 1_555
C21A C22A 1_555 1_555
C22A C23A 1_555 1_555
C23A H15A 1_555 1_555
C24A C23A 1_555 1_555
C25A C24A 1_555 1_555
C26A C25A 1_555 1_555
C27A C25A 1_555 1_555
H16A C27A 1_555 1_555
C28A C22A 1_555 1_555
H17A C28A 1_555 1_555
C29A H18A 1_555 1_555
C30A H19A 1_555 1_555
C31A C30A 1_555 1_555
H20A C31A 1_555 1_555
C32A C10A 1_555 1_555
C33A C32A 1_555 1_555
C34A C33A 1_555 1_555
H21A C34A 1_555 1_555
C35A C34A 1_555 1_555
H22A C35A 1_555 1_555
C36A C35A 1_555 1_555
H23A C36A 1_555 1_555
C37A C36A 1_555 1_555
H24A C37A 1_555 1_555
C38A C4A 1_555 1_555
Ni1_2 O8 1_555 1_555
Ni1_3 O8A 1_555 1_555
Ni2A N1A_2 1_555 1_555
Ni2_2 O1 1_555 1_555
Ni2_3 O4 1_555 1_555
Ni2A_2 N1A 1_555 1_555
Ni2A_3 O1A 1_555 1_555
Ni2A_4 O4A 1_555 1_555
N1A C11A 1_555 1_555
N2A C11A 1_555 1_555
N3A C1A 1_555 1_555
N4A C1A 1_555 1_555
N5A Ni1 1_555 1_555
N6A C29A 1_555 1_555
O1A S1A 1_555 1_555
O1_2 Ni2 1_555 1_555
O1A_2 Ni2A 1_555 1_555
O2A Ni2A 1_555 1_555
O3A C26A 1_555 1_555
O3_2 Ni2 1_555 1_555
O3A_2 Ni2A 1_555 1_555
O4A C21A 1_555 1_555
O4_2 Ni2 1_555 1_555
O4A_2 Ni2A 1_555 1_555
O5A Ni1 1_555 1_555
O6A S1A 1_555 1_555
O7A S1A 1_555 1_555
O8A C26A 1_555 1_555
O8_2 Ni1 1_555 1_555
O8A_2 Ni1 1_555 1_555
S1A C24A 1_555 1_555
H25A O2A 1_555 1_555
H26A O2A 1_555 1_555
C2 N3 1_555 1_555
C3 N4 1_555 1_555
C4 N4 1_555 1_555
C9 C10 1_555 1_555
C12 N1 1_555 1_555
C13 N2 1_555 1_555
C14 N2 1_555 1_555
C27 C28 1_555 1_555
C30 N5 1_555 1_555
C31 N6 1_555 1_555
C32 N6 1_555 1_555
C33 C38 1_555 1_555
C37 C38 1_555 1_555
Ni1 O5 1_555 1_555
Ni2 N3 1_555 1_555
O3 Ni2_2 1_555 1_555
C2A N3A 1_555 1_555
C3A N4A 1_555 1_555
C4A N4A 1_555 1_555
C9A C10A 1_555 1_555
C12A N1A 1_555 1_555
C13A N2A 1_555 1_555
C14A C16A 1_555 1_555
C14A N2A 1_555 1_555
C15A C20A 1_555 1_555
C18A C19A 1_555 1_555
C21A O5A 1_555 1_555
C27A C28A 1_555 1_555
C29A N5A 1_555 1_555
C30A N5A 1_555 1_555
C31A N6A 1_555 1_555
C32A N6A 1_555 1_555
C33A C38A 1_555 1_555
C37A C38A 1_555 1_555
Ni2A N3A 1_555 1_555
Ni2A_3 O3A 1_555 1_555

#END
