
#######################################################################
#
#                 Cambridge Crystallographic Data Centre
#                                CCDC 
#
#######################################################################
#
# If this CIF has been generated from an entry in the Cambridge 
# Structural Database, then it will include bibliographic, chemical, 
# crystal, experimental, refinement or atomic coordinate data resulting 
# from the CCDC's data processing and validation procedures.
#
#######################################################################

data_NECBUS
_symmetry_cell_setting           monoclinic
_symmetry_space_group_name_H-M   'C 2/c'
_symmetry_Int_Tables_number      15
_space_group_name_Hall           '-C 2yn'
loop_
_symmetry_equiv_pos_site_id
_symmetry_equiv_pos_as_xyz
1 x,y,z
2 -x,y,1/2-z
3 1/2+x,1/2+y,z
4 1/2-x,1/2+y,1/2-z
5 -x,-y,-z
6 x,-y,1/2+z
7 1/2-x,1/2-y,-z
8 1/2+x,1/2-y,1/2+z
_cell_length_a                   19.514(2)
_cell_length_b                   10.526(2)
_cell_length_c                   12.276(1)
_cell_angle_alpha                90
_cell_angle_beta                 96.839(8)
_cell_angle_gamma                90
_cell_volume                     2503.6
loop_
_atom_site_label
_atom_site_type_symbol
_atom_site_fract_x
_atom_site_fract_y
_atom_site_fract_z
Cu1 Cu 1.0000 0.06139(6) 0.2500
O1 O 0.7935(1) -0.2205(3) 0.1999(2)
O2 O 0.8254(2) -0.4243(3) 0.6167(2)
N1 N 0.9312(1) -0.0492(3) 0.3171(2)
N2 N 1.0555(1) 0.1631(3) 0.3657(2)
C1 C 0.8001(2) -0.2711(3) 0.3004(3)
C2 C 0.8503(2) -0.2217(3) 0.3782(2)
C3 C 0.8599(2) -0.2713(3) 0.4866(2)
C4 C 0.8197(2) -0.3729(3) 0.5149(3)
C5 C 0.7691(2) -0.4211(3) 0.4348(3)
C6 C 0.7592(2) -0.3720(4) 0.3314(3)
C7 C 0.8951(2) -0.1241(3) 0.3450(2)
C8 C 1.0917(2) 0.2130(3) 0.4319(3)
H1 H 0.768(2) -0.250(5) 0.165(4)
H2 H 0.724(2) -0.413(4) 0.278(3)
H3 H 0.741(2) -0.485(4) 0.451(3)
H4 H 0.862(2) -0.442(4) 0.640(4)
C8D C 0.9083(2) -0.2130(3) 0.5681(3)
N2D N 0.9445(1) -0.1631(3) 0.6343(2)
Cu1D Cu 1.0000 -0.06139(6) 0.7500
N1D N 1.0688(1) 0.0492(3) 0.6829(2)
C7D C 1.1049(2) 0.1241(3) 0.6550(2)
C2D C 1.1497(2) 0.2217(3) 0.6218(2)
C1D C 1.1999(2) 0.2711(3) 0.6996(3)
O1D O 1.2065(1) 0.2205(3) 0.8001(2)
H1D H 1.232(2) 0.250(5) 0.835(4)
C6D C 1.2408(2) 0.3720(4) 0.6686(3)
C5D C 1.2309(2) 0.4211(3) 0.5652(3)
C4D C 1.1803(2) 0.3729(3) 0.4851(3)
O2D O 1.1746(2) 0.4243(3) 0.3833(2)
H4D H 1.138(2) 0.442(4) 0.360(4)
C3D C 1.1401(2) 0.2713(3) 0.5134(2)
N1A N 1.0688(1) -0.0492(3) 0.1829(2)
N2A N 0.9445(1) 0.1631(3) 0.1343(2)
H3D H 1.259(2) 0.485(4) 0.549(3)
H2D H 1.276(2) 0.413(4) 0.722(3)
Cl1 Cl 0.5000 0.0446(1) 0.2500
O3 O 0.5442(3) 0.1154(6) 0.2003(6)
O4 O 0.5375(2) -0.0383(6) 0.3221(5)
O3A O 0.4558(3) 0.1154(6) 0.2997(6)
O4A O 0.4625(2) -0.0383(6) 0.1779(5)
O5 O 0.1938(1) 0.1693(3) 0.0641(2)
C9 C 0.1368(2) 0.2145(3) 0.0421(3)
C10 C 0.1137(3) 0.3252(5) 0.1021(5)
C11 C 0.0863(2) 0.1565(5) -0.0431(4)
H5 H 0.150(2) 0.363(4) 0.151(4)
H6 H 0.105(2) 0.379(4) 0.035(4)
H7 H 0.074(2) 0.306(4) 0.130(4)
H8 H 0.047(2) 0.137(4) -0.007(3)
H9 H 0.072(2) 0.221(4) -0.091(4)
H10 H 0.103(2) 0.101(5) -0.078(4)
loop_
_geom_bond_atom_site_label_1
_geom_bond_atom_site_label_2
_geom_bond_site_symmetry_1
_geom_bond_site_symmetry_2
Cu1 N1 1_555 1_555
Cl1 O3 1_555 1_555
O1 C1 1_555 1_555
O2 C4 1_555 1_555
O4 Cl1 1_555 1_555
O5 C9 1_555 1_555
N1 C7 1_555 1_555
N2 Cu1 1_555 1_555
C1 C2 1_555 1_555
C2 C3 1_555 1_555
C3 C4 1_555 1_555
C4 C5 1_555 1_555
C5 C6 1_555 1_555
C6 C1 1_555 1_555
C7 C2 1_555 1_555
C8 N2 1_555 1_555
C9 C10 1_555 1_555
C10 H5 1_555 1_555
C11 C9 1_555 1_555
H1 O1 1_555 1_555
H2 C6 1_555 1_555
H3 C5 1_555 1_555
H4 O2 1_555 1_555
H6 C10 1_555 1_555
H7 C10 1_555 1_555
H8 C11 1_555 1_555
H9 C11 1_555 1_555
H10 C11 1_555 1_555
C8D C3 1_555 1_555
N2D C8D 1_555 1_555
Cu1D N2D 1_555 1_555
N1D Cu1D 1_555 1_555
C7D N1D 1_555 1_555
C2D C7D 1_555 1_555
C1D C2D 1_555 1_555
O1D C1D 1_555 1_555
H1D O1D 1_555 1_555
C6D C1D 1_555 1_555
C5D C6D 1_555 1_555
C4D C5D 1_555 1_555
O2D C4D 1_555 1_555
H4D O2D 1_555 1_555
C3D C8 1_555 1_555
N1A Cu1 1_555 1_555
N2A Cu1 1_555 1_555
H3D C5D 1_555 1_555
H2D C6D 1_555 1_555
O3A Cl1 1_555 1_555
O4A Cl1 1_555 1_555
C2D C3D 1_555 1_555
C4D C3D 1_555 1_555

#END
