
#######################################################################
#
#                 Cambridge Crystallographic Data Centre
#                                CCDC 
#
#######################################################################
#
# If this CIF has been generated from an entry in the Cambridge 
# Structural Database, then it will include bibliographic, chemical, 
# crystal, experimental, refinement or atomic coordinate data resulting 
# from the CCDC's data processing and validation procedures.
#
#######################################################################

data_NECBON
_symmetry_cell_setting           monoclinic
_symmetry_space_group_name_H-M   'P 21/c'
_symmetry_Int_Tables_number      14
_space_group_name_Hall           '-P 2ybc'
loop_
_symmetry_equiv_pos_site_id
_symmetry_equiv_pos_as_xyz
1 x,y,z
2 -x,1/2+y,1/2-z
3 -x,-y,-z
4 x,1/2-y,1/2+z
_cell_length_a                   8.9761(7)
_cell_length_b                   16.7310(13)
_cell_length_c                   8.0224(6)
_cell_angle_alpha                90
_cell_angle_beta                 114.4370(10)
_cell_angle_gamma                90
_cell_volume                     1096.87
loop_
_atom_site_label
_atom_site_type_symbol
_atom_site_fract_x
_atom_site_fract_y
_atom_site_fract_z
Cu1 Cu -0.66489(3) 0.147870(15) -0.52052(3)
N1 N -1.0041(3) 0.07148(15) -0.7601(3)
N2 N -0.7023(3) 0.22201(12) -0.3160(3)
N3 N -0.5877(2) 0.04893(10) -0.3547(2)
N4 N -0.4124(2) 0.16230(10) -0.4092(3)
C1 C -0.8826(3) 0.10050(14) -0.6680(3)
C2 C -0.6947(3) 0.26843(13) -0.2083(3)
C3 C -0.6867(3) -0.00679(13) -0.3340(3)
H1 H -0.8016 -0.0011 -0.4003
C4 C -0.6273(3) -0.07209(13) -0.2197(3)
H2 H -0.7002 -0.1108 -0.2087
C5 C -0.4607(3) -0.08006(14) -0.1221(3)
H3 H -0.4171 -0.1246 -0.0434
C6 C -0.3573(3) -0.02220(14) -0.1401(3)
H4 H -0.2422 -0.0262 -0.0727
C7 C -0.1563(3) 0.10666(16) -0.2053(4)
H5 H -0.0977 0.0659 -0.1212
C8 C -0.0732(3) 0.16837(18) -0.2455(4)
H6 H 0.0429 0.1705 -0.1891
C9 C -0.1612(3) 0.22640(16) -0.3681(4)
H7 H -0.1069 0.2691 -0.3980
C10 C -0.3294(3) 0.22142(15) -0.4466(4)
H8 H -0.3897 0.2617 -0.5312
C11 C -0.4250(3) 0.04131(12) -0.2579(3)
C12 C -0.3254(3) 0.10520(13) -0.2890(3)
Cu1C Cu -0.66489(3) 0.352130(15) -0.02052(3)
C2C C -0.6947(3) 0.23157(13) -0.7083(3)
loop_
_geom_bond_atom_site_label_1
_geom_bond_atom_site_label_2
_geom_bond_site_symmetry_1
_geom_bond_site_symmetry_2
Cu1 N2 1_555 1_555
N1 C1 1_555 1_555
N2 C2 1_555 1_555
N3 Cu1 1_555 1_555
N4 Cu1 1_555 1_555
C1 Cu1 1_555 1_555
C2 Cu1C 1_555 1_555
C3 N3 1_555 1_555
H1 C3 1_555 1_555
C4 C3 1_555 1_555
H2 C4 1_555 1_555
C5 C4 1_555 1_555
H3 C5 1_555 1_555
C6 C5 1_555 1_555
H4 C6 1_555 1_555
C7 H5 1_555 1_555
C8 C7 1_555 1_555
H6 C8 1_555 1_555
C9 C8 1_555 1_555
H7 C9 1_555 1_555
C10 N4 1_555 1_555
H8 C10 1_555 1_555
C11 N3 1_555 1_555
C12 N4 1_555 1_555
C2C Cu1 1_555 1_555
C6 C11 1_555 1_555
C7 C12 1_555 1_555
C9 C10 1_555 1_555
C11 C12 1_555 1_555

#END
