
#######################################################################
#
#                 Cambridge Crystallographic Data Centre
#                                CCDC 
#
#######################################################################
#
# If this CIF has been generated from an entry in the Cambridge 
# Structural Database, then it will include bibliographic, chemical, 
# crystal, experimental, refinement or atomic coordinate data resulting 
# from the CCDC's data processing and validation procedures.
#
#######################################################################

data_NECCAZ
_symmetry_cell_setting           orthorhombic
_symmetry_space_group_name_H-M   'P 21 21 21'
_symmetry_Int_Tables_number      19
_space_group_name_Hall           'P 2ac 2ab'
loop_
_symmetry_equiv_pos_site_id
_symmetry_equiv_pos_as_xyz
1 x,y,z
2 1/2-x,-y,1/2+z
3 1/2+x,1/2-y,-z
4 -x,1/2+y,1/2-z
_cell_length_a                   12.743(2)
_cell_length_b                   15.026(3)
_cell_length_c                   11.362(2)
_cell_angle_alpha                90
_cell_angle_beta                 90
_cell_angle_gamma                90
_cell_volume                     2175.55
loop_
_atom_site_label
_atom_site_type_symbol
_atom_site_fract_x
_atom_site_fract_y
_atom_site_fract_z
Cu1 Cu 0.25438(9) 0.51132(6) 0.2292(1)
N1 N 0.3244(7) 0.6019(6) 0.1260(8)
N2 N 0.1933(7) 0.4166(5) 0.1313(9)
N3 N 0.3534(6) 0.4533(6) 0.3444(8)
N4 N 0.1497(7) 0.5751(5) 0.3248(8)
C1 C 0.3562(7) 0.6627(6) 0.0818(10)
C2 C 0.3961(7) 0.7424(6) 0.0264(8)
C3 C 0.3528(8) 0.7764(7) -0.0766(9)
C4 C 0.3947(9) 0.8532(7) -0.1227(8)
C5 C 0.4734(8) 0.8982(6) -0.0742(9)
C6 C 0.5115(8) 0.8659(6) 0.0334(8)
C7 C 0.4758(8) 0.7868(6) 0.0831(8)
C8 C 0.5905(8) 0.9147(6) 0.1016(9)
C9 C -0.1574(8) 0.8562(6) 0.4181(9)
C10 C -0.1094(7) 0.7774(6) 0.4636(8)
C11 C -0.1424(8) 0.7462(7) 0.5766(9)
C12 C -0.1007(8) 0.6693(7) 0.6228(10)
C13 C -0.0238(9) 0.6251(7) 0.5542(7)
C14 C 0.0097(7) 0.6579(5) 0.4484(8)
C15 C -0.0335(7) 0.7340(6) 0.4009(7)
C16 C 0.0854(7) 0.6111(6) 0.3809(9)
H1 H 0.2983 0.7491 -0.1151
H2 H 0.3557 0.8778 -0.2143
H3 H 0.4995 0.9512 -0.1030
H4 H 0.5043 0.7628 0.1543
H5 H -0.1928 0.7768 0.6213
H6 H -0.1454 0.6383 0.7071
H7 H 0.0149 0.5761 0.5919
H8 H -0.0104 0.7559 0.3256
N3C N 0.6466(6) 0.9533(6) 0.1556(8)
Cu1C Cu 0.74562(9) 1.01132(6) 0.2708(1)
Cu1C_2 Cu -0.25438(9) 1.01132(6) 0.2708(1)
N2C N -0.1933(7) 0.9166(5) 0.3687(9)
P1 P 0.1317(2) 0.8927(2) 0.1640(3)
F2 F 0.1013 0.7922 0.1533
F4 F 0.0275 0.9015 0.2516
F6 F 0.1628 0.9308 0.2833
F8 F 0.1091 0.9725 0.0823
F10 F 0.2559 0.8977 0.1487
F11 F 0.1273 0.8622 0.0254
O1 O 0.3409(8) 0.2194(6) 0.1983(9)
C17 C 0.3592(8) 0.1433(8) 0.1762(9)
C18 C 0.350(1) 0.1114(10) 0.056(1)
C19 C 0.392(1) 0.0801(9) 0.264(2)
H9 H 0.3913 0.1438 0.0045
H10 H 0.2763 0.1174 0.0324
H11 H 0.3662 0.0493 0.0517
H12 H 0.3403 0.0771 0.3304
H13 H 0.4565 0.1027 0.3080
H14 H 0.4070 0.0229 0.2416
F1? F 0.1624 0.8052 0.2396
F3? F 0.0111 0.8699 0.1848
F5? F 0.0333 0.9183 0.0787
F7? F 0.1261 1.0006 0.1567
F9? F 0.2383 0.9040 0.0925
F12? F 0.1343 0.8122 0.0689
loop_
_geom_bond_atom_site_label_1
_geom_bond_atom_site_label_2
_geom_bond_site_symmetry_1
_geom_bond_site_symmetry_2
Cu1 N1 1_555 1_555
P1 F2 1_555 1_555
F4 P1 1_555 1_555
F6 P1 1_555 1_555
F8 P1 1_555 1_555
F10 P1 1_555 1_555
F11 P1 1_555 1_555
O1 C17 1_555 1_555
N1 C1 1_555 1_555
N2 Cu1 1_555 1_555
N3 Cu1 1_555 1_555
N4 Cu1 1_555 1_555
C1 C2 1_555 1_555
C2 C3 1_555 1_555
C3 C4 1_555 1_555
C4 C5 1_555 1_555
C5 C6 1_555 1_555
C6 C7 1_555 1_555
C7 C2 1_555 1_555
C8 C6 1_555 1_555
C9 C10 1_555 1_555
C10 C11 1_555 1_555
C11 C12 1_555 1_555
C12 C13 1_555 1_555
C13 C14 1_555 1_555
C14 C15 1_555 1_555
C15 C10 1_555 1_555
C16 N4 1_555 1_555
C17 C18 1_555 1_555
C18 H9 1_555 1_555
C19 C17 1_555 1_555
H1 C3 1_555 1_555
H2 C4 1_555 1_555
H3 C5 1_555 1_555
H4 C7 1_555 1_555
H5 C11 1_555 1_555
H6 C12 1_555 1_555
H7 C13 1_555 1_555
H8 C15 1_555 1_555
H10 C18 1_555 1_555
H11 C18 1_555 1_555
H12 C19 1_555 1_555
H13 C19 1_555 1_555
H14 C19 1_555 1_555
N3C C8 1_555 1_555
Cu1C N3C 1_555 1_555
Cu1C_2 N2C 1_555 1_555
N2C C9 1_555 1_555
C14 C16 1_555 1_555

#END
