
#######################################################################
#
#                 Cambridge Crystallographic Data Centre
#                                CCDC 
#
#######################################################################
#
# If this CIF has been generated from an entry in the Cambridge 
# Structural Database, then it will include bibliographic, chemical, 
# crystal, experimental, refinement or atomic coordinate data resulting 
# from the CCDC's data processing and validation procedures.
#
#######################################################################

data_NECDUV
_symmetry_cell_setting           monoclinic
_symmetry_space_group_name_H-M   'C 2/c'
_symmetry_Int_Tables_number      15
_space_group_name_Hall           '-C 2yn'
loop_
_symmetry_equiv_pos_site_id
_symmetry_equiv_pos_as_xyz
1 x,y,z
2 1/2+x,1/2+y,z
3 -x,y,1/2-z
4 1/2-x,1/2+y,1/2-z
5 -x,-y,-z
6 1/2-x,1/2-y,-z
7 x,-y,1/2+z
8 1/2+x,1/2-y,1/2+z
_cell_length_a                   23.041(4)
_cell_length_b                   13.368(4)
_cell_length_c                   17.186(3)
_cell_angle_alpha                90
_cell_angle_beta                 128.103(9)
_cell_angle_gamma                90
_cell_volume                     4165.47
loop_
_atom_site_label
_atom_site_type_symbol
_atom_site_fract_x
_atom_site_fract_y
_atom_site_fract_z
Mo1 Mo 0.51219(2) 0.93872(2) 0.47351(3)
S1 S 0.52189(9) 0.37056(9) 0.4232(1)
F1 F 0.6345(4) 0.7748(4) 0.7843(3)
F2 F 0.6843(5) 0.9071(6) 0.8379(5)
F3 F 0.5940(6) 0.8814(8) 0.8240(6)
F4 F 0.7271(4) 1.1816(8) 0.6717(4)
F5 F 0.7391(3) 1.0890(5) 0.5916(8)
F6 F 0.6837(3) 1.2129(5) 0.5314(5)
O1 O 0.5738(2) 0.8665(2) 0.6126(3)
O2 O 0.5476(2) 0.9952(2) 0.6687(3)
O3 O 0.6102(2) 1.0063(3) 0.5145(3)
O4 O 0.5844(2) 1.1364(2) 0.5695(3)
N1 N 0.5049(3) 0.7924(3) 0.3679(4)
C1 C 0.5465(3) 0.4615(3) 0.3786(4)
C2 C 0.4945(3) 0.5363(3) 0.3352(3)
C3 C 0.4352(3) 0.5204(4) 0.3402(3)
C4 C 0.4424(3) 0.4313(3) 0.3857(4)
C5 C 0.4978(3) 0.6253(3) 0.2878(3)
C6 C 0.4990(3) 0.7203(3) 0.3291(4)
C7 C 0.6170(3) 0.4537(4) 0.3931(5)
C8 C 0.3716(3) 0.5911(4) 0.2979(4)
C9 C 0.3930(4) 0.3862(4) 0.4041(5)
C10 C 0.5771(3) 0.9130(4) 0.6782(4)
C11 C 0.6217(5) 0.8656(6) 0.7810(5)
C12 C 0.6236(3) 1.0913(4) 0.5544(4)
C13 C 0.6940(3) 1.1433(6) 0.5874(5)
H1 H 0.6534 0.4212 0.4550
H2 H 0.6340 0.5195 0.3936
H3 H 0.6093 0.4154 0.3402
H4 H 0.3894 0.6539 0.3320
H5 H 0.3370 0.5632 0.3056
H6 H 0.3477 0.6013 0.2289
H7 H 0.3678 0.4384 0.4109
H8 H 0.4217 0.3473 0.4637
H9 H 0.3575 0.3439 0.3495
Mo1D Mo 0.48781(2) 1.06128(2) 0.52649(3)
Mo1B Mo 0.48781(2) 0.93872(2) 0.02649(3)
S1B S 0.47811(9) 0.37056(9) 0.0768(1)
F1D F 0.3655(4) 1.2252(4) 0.2157(3)
F2D F 0.3157(5) 1.0929(6) 0.1621(5)
F3D F 0.4060(6) 1.1186(8) 0.1760(6)
F4D F 0.2729(4) 0.8184(8) 0.3283(4)
F5D F 0.2609(3) 0.9110(5) 0.4084(8)
F6D F 0.3163(3) 0.7871(5) 0.4686(5)
O1D O 0.4262(2) 1.1335(2) 0.3874(3)
O2D O 0.4524(2) 1.0048(2) 0.3313(3)
O3D O 0.3898(2) 0.9937(3) 0.4855(3)
O4D O 0.4156(2) 0.8636(2) 0.4305(3)
N1B N 0.4951(3) 0.7924(3) 0.1321(4)
N1D N 0.4951(3) 1.2076(3) 0.6321(4)
C1B C 0.4535(3) 0.4615(3) 0.1214(4)
C2B C 0.5055(3) 0.5363(3) 0.1648(3)
C3B C 0.5648(3) 0.5204(4) 0.1598(3)
C4B C 0.5576(3) 0.4313(3) 0.1143(4)
C5B C 0.5022(3) 0.6253(3) 0.2122(3)
C6B C 0.5010(3) 0.7203(3) 0.1709(4)
C7B C 0.3830(3) 0.4537(4) 0.1069(5)
C8B C 0.6284(3) 0.5911(4) 0.2021(4)
C9B C 0.6070(4) 0.3862(4) 0.0959(5)
C10D C 0.4229(3) 1.0870(4) 0.3218(4)
C11D C 0.3783(5) 1.1344(6) 0.2190(5)
C12D C 0.3764(3) 0.9087(4) 0.4456(4)
C13D C 0.3060(3) 0.8567(6) 0.4126(5)
H1B H 0.3466 0.4212 0.0450
H2B H 0.3660 0.5195 0.1064
H3B H 0.3907 0.4154 0.1598
H4B H 0.6106 0.6539 0.1680
H5B H 0.6630 0.5632 0.1944
H6B H 0.6523 0.6013 0.2711
H7B H 0.6322 0.4384 0.0891
H8B H 0.5783 0.3473 0.0363
H9B H 0.6425 0.3439 0.1505
C14 C 0.7170(10) 0.782(1) 0.540(2)
C15 C 0.7006(8) 0.823(1) 0.460(2)
C16 C 0.7675(9) 0.705(1) 0.583(1)
H10 H 0.6946 0.8048 0.5679
H11 H 0.6646 0.8743 0.4292
H12 H 0.7799 0.6719 0.6401
C14E C 0.7830(10) 0.718(1) 0.460(2)
C15E C 0.7994(8) 0.677(1) 0.540(2)
C16E C 0.7325(9) 0.795(1) 0.417(1)
H10E H 0.8054 0.6952 0.4321
H11E H 0.8354 0.6257 0.5708
H12E H 0.7201 0.8281 0.3599
loop_
_geom_bond_atom_site_label_1
_geom_bond_atom_site_label_2
_geom_bond_site_symmetry_1
_geom_bond_site_symmetry_2
Mo1 O1 1_555 1_555
S1 C1 1_555 1_555
F1 C11 1_555 1_555
F2 C11 1_555 1_555
F3 C11 1_555 1_555
F4 C13 1_555 1_555
F5 C13 1_555 1_555
F6 C13 1_555 1_555
O1 C10 1_555 1_555
O2 C10 1_555 1_555
O3 Mo1 1_555 1_555
O4 C12 1_555 1_555
N1 Mo1 1_555 1_555
C1 C2 1_555 1_555
C2 C3 1_555 1_555
C3 C4 1_555 1_555
C4 S1 1_555 1_555
C5 C2 1_555 1_555
C6 N1 1_555 1_555
C7 C1 1_555 1_555
C8 C3 1_555 1_555
C9 C4 1_555 1_555
C10 C11 1_555 1_555
C12 O3 1_555 1_555
C13 C12 1_555 1_555
C14 C15 1_555 1_555
C15 H11 1_555 1_555
C16 C14 1_555 1_555
H1 C7 1_555 1_555
H2 C7 1_555 1_555
H3 C7 1_555 1_555
H4 C8 1_555 1_555
H5 C8 1_555 1_555
H6 C8 1_555 1_555
H7 C9 1_555 1_555
H8 C9 1_555 1_555
H9 C9 1_555 1_555
H10 C14 1_555 1_555
H12 C16 1_555 1_555
Mo1D Mo1 1_555 1_555
Mo1B N1B 1_555 1_555
S1B C1B 1_555 1_555
F1D C11D 1_555 1_555
F2D C11D 1_555 1_555
F3D C11D 1_555 1_555
F4D C13D 1_555 1_555
F5D C13D 1_555 1_555
F6D C13D 1_555 1_555
O1D Mo1D 1_555 1_555
O2D Mo1 1_555 1_555
O3D Mo1D 1_555 1_555
O4D Mo1 1_555 1_555
N1B C6B 1_555 1_555
N1D Mo1D 1_555 1_555
C1B C2B 1_555 1_555
C2B C3B 1_555 1_555
C3B C4B 1_555 1_555
C4B S1B 1_555 1_555
C5B C5 1_555 1_555
C6B C5B 1_555 1_555
C7B C1B 1_555 1_555
C8B C3B 1_555 1_555
C9B C4B 1_555 1_555
C10D O1D 1_555 1_555
C11D C10D 1_555 1_555
C12D O3D 1_555 1_555
C13D C12D 1_555 1_555
C14E C15E 1_555 1_555
C15E C16 1_555 1_555
C16E C15 1_555 1_555
H1B C7B 1_555 1_555
H2B C7B 1_555 1_555
H3B C7B 1_555 1_555
H4B C8B 1_555 1_555
H5B C8B 1_555 1_555
H6B C8B 1_555 1_555
H7B C9B 1_555 1_555
H8B C9B 1_555 1_555
H9B C9B 1_555 1_555
H10E C14E 1_555 1_555
H11E C15E 1_555 1_555
H12E C16E 1_555 1_555
O2 Mo1D 1_555 1_555
O4 Mo1D 1_555 1_555
C5 C6 1_555 1_555
O2D C10D 1_555 1_555
O4D C12D 1_555 1_555
C2B C5B 1_555 1_555
C14E C16E 1_555 1_555

#END
