
#######################################################################
#
#                 Cambridge Crystallographic Data Centre
#                                CCDC 
#
#######################################################################
#
# If this CIF has been generated from an entry in the Cambridge 
# Structural Database, then it will include bibliographic, chemical, 
# crystal, experimental, refinement or atomic coordinate data resulting 
# from the CCDC's data processing and validation procedures.
#
#######################################################################

data_NECFAD
_symmetry_cell_setting           triclinic
_symmetry_space_group_name_H-M   'P -1'
_symmetry_Int_Tables_number      2
_space_group_name_Hall           '-P 1'
loop_
_symmetry_equiv_pos_site_id
_symmetry_equiv_pos_as_xyz
1 x,y,z
2 -x,-y,-z
_cell_length_a                   11.970(1)
_cell_length_b                   12.500(2)
_cell_length_c                   13.099(2)
_cell_angle_alpha                112.821(4)
_cell_angle_beta                 107.223(3)
_cell_angle_gamma                95.176(3)
_cell_volume                     1678.05
loop_
_atom_site_label
_atom_site_type_symbol
_atom_site_fract_x
_atom_site_fract_y
_atom_site_fract_z
Mo1 Mo -0.43728(2) 0.05541(2) 0.08680(2)
Mo2 Mo -0.57935(2) -0.49894(2) -0.48004(2)
S1 S 0.00725(7) 0.17848(6) 0.77817(6)
S2 S 0.10355(7) 0.48926(6) 0.89309(6)
F1 F -0.8783(2) 0.0846(2) 0.0436(2)
F2 F -0.7523(2) 0.1805(2) 0.2226(2)
F3 F -0.8188(2) -0.0082(2) 0.1502(2)
F4 F -0.5912(2) 0.2957(2) -0.1478(3)
F5 F -0.4149(2) 0.2810(2) -0.1483(2)
F6 F -0.4391(2) 0.3953(2) 0.0084(2)
F7 F -0.3291(2) -0.4738(2) -0.1068(2)
F8 F -0.3203(2) -0.2901(2) -0.0695(2)
F9 F -0.1802(2) -0.3717(2) -0.1139(2)
F10 F -0.5429(2) -0.0913(2) -0.4050(3)
F11 F -0.3683(2) -0.0808(2) -0.4083(3)
F12 F -0.5173(3) -0.1521(2) -0.5689(2)
O1 O -0.5750(2) 0.1024(2) 0.1548(2)
O2 O -0.2916(2) 0.0143(2) 0.0280(2)
O3 O -0.4271(2) 0.2059(2) 0.0509(2)
O4 O -0.4398(2) -0.0897(2) 0.1324(2)
O5 O -0.5190(2) -0.5595(2) -0.7025(2)
O6 O -0.6876(2) -0.5547(2) -0.6606(2)
O7 O -0.4293(2) -0.6795(2) -0.5435(2)
O8 O -0.5991(2) -0.6779(2) -0.5038(2)
N1 N -0.2588(2) 0.1508(2) 0.2833(2)
N2 N -0.2258(2) 0.4776(2) 0.4302(2)
C1 C -0.1423(2) 0.2534(2) 0.5088(2)
C2 C -0.1062(2) 0.3849(2) 0.5594(2)
C3 C -0.2075(2) 0.1920(2) 0.3841(2)
C4 C -0.1692(2) 0.4389(2) 0.4888(2)
C5 C -0.0573(3) 0.2757(2) 0.7137(2)
C6 C -0.1135(2) 0.1965(2) 0.5801(2)
C7 C -0.1306(3) 0.0714(2) 0.5515(3)
C8 C -0.0710(3) 0.0516(2) 0.6459(3)
C9 C 0.0375(3) 0.3814(2) 0.7359(2)
C10 C -0.0246(2) 0.4504(2) 0.6716(2)
C11 C 0.0149(2) 0.5773(2) 0.7416(2)
C12 C 0.0795(3) 0.6077(2) 0.8571(3)
C13 C -0.1603(3) 0.3137(3) 0.7578(3)
C14 C -0.2035(3) -0.0271(3) 0.4307(3)
C15 C -0.0632(3) -0.0669(3) 0.6472(3)
C16 C 0.1416(3) 0.3446(3) 0.6939(3)
C17 C -0.0162(3) 0.6677(2) 0.6954(3)
C18 C 0.1298(3) 0.7312(3) 0.9562(3)
C19 C -0.6803(3) 0.0549(2) 0.0800(3)
C20 C -0.7841(3) 0.0785(3) 0.1236(3)
C21 C -0.4919(3) 0.1879(3) -0.0521(3)
C22 C -0.4851(3) 0.2921(3) -0.0855(3)
C23 C -0.6306(2) -0.5719(2) -0.7305(3)
C24 C -0.2981(3) -0.3907(3) -0.1379(3)
C25 C -0.5170(3) -0.7269(3) -0.5288(3)
C26 C -0.4780(3) -0.1477(3) -0.4631(3)
H1 H -0.1275 0.3644 0.8417
H2 H -0.2161 0.2441 0.7422
H3 H -0.2012 0.3564 0.7171
H4 H -0.2117 -0.1020 0.4355
H5 H -0.1637 -0.0299 0.3763
H6 H -0.2817 -0.0125 0.4033
H7 H -0.1421 -0.1113 0.6282
H8 H -0.0123 -0.0547 0.7247
H9 H -0.0301 -0.1106 0.5895
H10 H 0.1822 0.3022 0.7352
H11 H 0.1974 0.4146 0.7103
H12 H 0.1101 0.2939 0.6100
H13 H 0.0369 0.7442 0.7503
H14 H -0.0978 0.6727 0.6868
H15 H -0.0075 0.6439 0.6197
H16 H 0.1935 0.7298 1.0203
H17 H 0.0675 0.7597 0.9838
H18 H 0.1607 0.7833 0.9280
Mo1A Mo -0.56272(2) -0.05541(2) -0.08680(2)
Mo2A Mo -0.42065(2) 0.49894(2) 0.48004(2)
Mo2A_2 Mo -0.42065(2) -0.50106(2) -0.51996(2)
S1A S -1.00725(7) -0.17848(6) -0.77817(6)
S2A S -1.10355(7) -0.48926(6) -0.89309(6)
F1A F -0.1217(2) -0.0846(2) -0.0436(2)
F2A F -0.2477(2) -0.1805(2) -0.2226(2)
F3A F -0.1812(2) 0.0082(2) -0.1502(2)
F4A F -0.4088(2) -0.2957(2) 0.1478(3)
F5A F -0.5851(2) -0.2810(2) 0.1483(2)
F6A F -0.5609(2) -0.3953(2) -0.0084(2)
F7A F -0.6709(2) -0.5262(2) -0.8932(2)
F8A F -0.6797(2) -0.7099(2) -0.9305(2)
F9A F -0.8198(2) -0.6283(2) -0.8861(2)
F10A F -0.4571(2) -0.9087(2) -0.5950(3)
F11A F -0.6317(2) -0.9192(2) -0.5917(3)
F12A F -0.4827(3) -0.8479(2) -0.4311(2)
O1A O -0.4250(2) -0.1024(2) -0.1548(2)
O2A O -0.7084(2) -0.0143(2) -0.0280(2)
O3A O -0.5729(2) -0.2059(2) -0.0509(2)
O4A O -0.5602(2) 0.0897(2) -0.1324(2)
O5A O -0.4810(2) -0.4405(2) -0.2975(2)
O6A O -0.3124(2) -0.4453(2) -0.3394(2)
O7A O -0.5707(2) -0.3205(2) -0.4565(2)
O8A O -0.4009(2) -0.3221(2) -0.4962(2)
N1A N -0.7412(2) -0.1508(2) -0.2833(2)
N2A N -0.7742(2) -0.4776(2) -0.4302(2)
N2_2 N -0.2258(2) -0.5224(2) -0.5698(2)
C1A C -0.8577(2) -0.2534(2) -0.5088(2)
C2A C -0.8938(2) -0.3849(2) -0.5594(2)
C3A C -0.7925(2) -0.1920(2) -0.3841(2)
C4A C -0.8308(2) -0.4389(2) -0.4888(2)
C5A C -0.9427(3) -0.2757(2) -0.7137(2)
C6A C -0.8865(2) -0.1965(2) -0.5801(2)
C7A C -0.8694(3) -0.0714(2) -0.5515(3)
C8A C -0.9290(3) -0.0516(2) -0.6459(3)
C9A C -1.0375(3) -0.3814(2) -0.7359(2)
C10A C -0.9754(2) -0.4504(2) -0.6716(2)
C11A C -1.0149(2) -0.5773(2) -0.7416(2)
C12A C -1.0795(3) -0.6077(2) -0.8571(3)
C13A C -0.8397(3) -0.3137(3) -0.7578(3)
C14A C -0.7965(3) 0.0271(3) -0.4307(3)
C15A C -0.9368(3) 0.0669(3) -0.6472(3)
C16A C -1.1416(3) -0.3446(3) -0.6939(3)
C17A C -0.9838(3) -0.6677(2) -0.6954(3)
C18A C -1.1298(3) -0.7312(3) -0.9562(3)
C19A C -0.3197(3) -0.0549(2) -0.0800(3)
C20A C -0.2159(3) -0.0785(3) -0.1236(3)
C21A C -0.5081(3) -0.1879(3) 0.0521(3)
C22A C -0.5149(3) -0.2921(3) 0.0855(3)
C23A C -0.3694(2) -0.4281(2) -0.2695(3)
C24A C -0.7019(3) -0.6093(3) -0.8621(3)
C25A C -0.4830(3) -0.2731(3) -0.4712(3)
C26A C -0.5220(3) -0.8523(3) -0.5369(3)
H1A H -0.8725 -0.3644 -0.8417
H2A H -0.7839 -0.2441 -0.7422
H3A H -0.7988 -0.3564 -0.7171
H4A H -0.7883 0.1020 -0.4355
H5A H -0.8363 0.0299 -0.3763
H6A H -0.7183 0.0125 -0.4033
H7A H -0.8579 0.1113 -0.6282
H8A H -0.9877 0.0547 -0.7247
H9A H -0.9699 0.1106 -0.5895
H10A H -1.1822 -0.3022 -0.7352
H11A H -1.1974 -0.4146 -0.7103
H12A H -1.1101 -0.2939 -0.6100
H13A H -1.0369 -0.7442 -0.7503
H14A H -0.9022 -0.6727 -0.6868
H15A H -0.9925 -0.6439 -0.6197
H16A H -1.1935 -0.7298 -1.0203
H17A H -1.0675 -0.7597 -0.9838
H18A H -1.1607 -0.7833 -0.9280
loop_
_geom_bond_atom_site_label_1
_geom_bond_atom_site_label_2
_geom_bond_site_symmetry_1
_geom_bond_site_symmetry_2
Mo1 O1 1_555 1_555
Mo2 O6 1_555 1_555
S1 C5 1_555 1_555
S2 C9 1_555 1_555
F1 C20 1_555 1_555
F2 C20 1_555 1_555
F3 C20 1_555 1_555
F4 C22 1_555 1_555
F5 C22 1_555 1_555
F6 C22 1_555 1_555
F7 C24 1_555 1_555
F8 C24 1_555 1_555
F9 C24 1_555 1_555
F10 C26 1_555 1_555
F11 C26 1_555 1_555
F12 C26 1_555 1_555
O1 C19 1_555 1_555
O2 Mo1 1_555 1_555
O3 Mo1 1_555 1_555
O4 Mo1 1_555 1_555
O5 C23 1_555 1_555
O6 C23 1_555 1_555
O7 C25 1_555 1_555
O8 Mo2 1_555 1_555
N1 Mo1 1_555 1_555
N2 C4 1_555 1_555
C1 C2 1_555 1_555
C2 C4 1_555 1_555
C3 N1 1_555 1_555
C5 C6 1_555 1_555
C6 C1 1_555 1_555
C7 C6 1_555 1_555
C8 S1 1_555 1_555
C9 C5 1_555 1_555
C10 C2 1_555 1_555
C11 C10 1_555 1_555
C12 S2 1_555 1_555
C13 C5 1_555 1_555
C14 C7 1_555 1_555
C15 C8 1_555 1_555
C16 C9 1_555 1_555
C17 C11 1_555 1_555
C18 C12 1_555 1_555
C19 C20 1_555 1_555
C21 O3 1_555 1_555
C22 C21 1_555 1_555
C23 C24A 1_555 1_555
C24 C23A 1_555 1_555
C25 O8 1_555 1_555
C26 C25A 1_555 1_555
H1 C13 1_555 1_555
H2 C13 1_555 1_555
H3 C13 1_555 1_555
H4 C14 1_555 1_555
H5 C14 1_555 1_555
H6 C14 1_555 1_555
H7 C15 1_555 1_555
H8 C15 1_555 1_555
H9 C15 1_555 1_555
H10 C16 1_555 1_555
H11 C16 1_555 1_555
H12 C16 1_555 1_555
H13 C17 1_555 1_555
H14 C17 1_555 1_555
H15 C17 1_555 1_555
H16 C18 1_555 1_555
H17 C18 1_555 1_555
H18 C18 1_555 1_555
Mo1A Mo1 1_555 1_555
Mo2A N2 1_555 1_555
Mo2A_2 Mo2 1_555 1_555
S1A C5A 1_555 1_555
S2A C9A 1_555 1_555
F1A C20A 1_555 1_555
F2A C20A 1_555 1_555
F3A C20A 1_555 1_555
F4A C22A 1_555 1_555
F5A C22A 1_555 1_555
F6A C22A 1_555 1_555
F7A C24A 1_555 1_555
F8A C24A 1_555 1_555
F9A C24A 1_555 1_555
F10A C26A 1_555 1_555
F11A C26A 1_555 1_555
F12A C26A 1_555 1_555
O1A Mo1A 1_555 1_555
O2A C19 1_555 1_555
O3A Mo1A 1_555 1_555
O4A C21 1_555 1_555
O5A Mo2 1_555 1_555
O6A Mo2A_2 1_555 1_555
O7A Mo2 1_555 1_555
O8A Mo2A_2 1_555 1_555
N1A Mo1A 1_555 1_555
N2A Mo2 1_555 1_555
N2_2 Mo2A_2 1_555 1_555
C1A C2A 1_555 1_555
C2A C4A 1_555 1_555
C3A N1A 1_555 1_555
C4A N2A 1_555 1_555
C5A C6A 1_555 1_555
C6A C1A 1_555 1_555
C7A C6A 1_555 1_555
C8A S1A 1_555 1_555
C9A C5A 1_555 1_555
C10A C2A 1_555 1_555
C11A C10A 1_555 1_555
C12A S2A 1_555 1_555
C13A C5A 1_555 1_555
C14A C7A 1_555 1_555
C15A C8A 1_555 1_555
C16A C9A 1_555 1_555
C17A C11A 1_555 1_555
C18A C12A 1_555 1_555
C19A O2 1_555 1_555
C20A C19A 1_555 1_555
C21A O4 1_555 1_555
C22A C21A 1_555 1_555
C23A O5A 1_555 1_555
C25A O7A 1_555 1_555
C26A C25 1_555 1_555
H1A C13A 1_555 1_555
H2A C13A 1_555 1_555
H3A C13A 1_555 1_555
H4A C14A 1_555 1_555
H5A C14A 1_555 1_555
H6A C14A 1_555 1_555
H7A C15A 1_555 1_555
H8A C15A 1_555 1_555
H9A C15A 1_555 1_555
H10A C16A 1_555 1_555
H11A C16A 1_555 1_555
H12A C16A 1_555 1_555
H13A C17A 1_555 1_555
H14A C17A 1_555 1_555
H15A C17A 1_555 1_555
H16A C18A 1_555 1_555
H17A C18A 1_555 1_555
H18A C18A 1_555 1_555
O5 Mo2A_2 1_555 1_555
O7 Mo2A_2 1_555 1_555
C1 C3 1_555 1_555
C7 C8 1_555 1_555
C9 C10 1_555 1_555
C11 C12 1_555 1_555
Mo1A O2A 1_555 1_555
Mo1A O4A 1_555 1_555
O1A C19A 1_555 1_555
O3A C21A 1_555 1_555
O6A C23A 1_555 1_555
O8A C25A 1_555 1_555
C1A C3A 1_555 1_555
C7A C8A 1_555 1_555
C9A C10A 1_555 1_555
C11A C12A 1_555 1_555

#END
