
#######################################################################
#
#                 Cambridge Crystallographic Data Centre
#                                CCDC 
#
#######################################################################
#
# If this CIF has been generated from an entry in the Cambridge 
# Structural Database, then it will include bibliographic, chemical, 
# crystal, experimental, refinement or atomic coordinate data resulting 
# from the CCDC's data processing and validation procedures.
#
#######################################################################

data_NECFIL
_symmetry_cell_setting           monoclinic
_symmetry_space_group_name_H-M   'C 2/c'
_symmetry_Int_Tables_number      15
_space_group_name_Hall           '-C 2yn'
loop_
_symmetry_equiv_pos_site_id
_symmetry_equiv_pos_as_xyz
1 x,y,z
2 1/2+x,1/2+y,z
3 -x,y,1/2-z
4 1/2-x,1/2+y,1/2-z
5 -x,-y,-z
6 1/2-x,1/2-y,-z
7 x,-y,1/2+z
8 1/2+x,1/2-y,1/2+z
_cell_length_a                   20.381(4)
_cell_length_b                   13.723(2)
_cell_length_c                   16.296(3)
_cell_angle_alpha                90
_cell_angle_beta                 117.898(6)
_cell_angle_gamma                90
_cell_volume                     4028.1
loop_
_atom_site_label
_atom_site_type_symbol
_atom_site_fract_x
_atom_site_fract_y
_atom_site_fract_z
Rh1 Rh 0.99000(2) 0.93386(3) 0.54196(3)
S1 S 0.9551(1) 0.3688(1) 0.6291(1)
F1 F 0.7666(3) 1.1546(5) 0.3775(3)
F2 F 0.7682(2) 1.0775(3) 0.4918(3)
F3 F 0.8223(3) 1.2144(3) 0.5135(4)
F4 F 0.8565(4) 0.7709(4) 0.2624(4)
F5 F 0.9091(4) 0.8529(6) 0.2042(4)
F6 F 0.8148(4) 0.9068(4) 0.2057(4)
O1 O 0.8964(2) 1.0048(3) 0.5244(3)
O2 O 1.0844(2) 0.8705(3) 0.5531(3)
O3 O 0.9297(2) 0.8662(3) 0.4179(3)
O4 O 1.0520(2) 1.0095(3) 0.6609(3)
N1 N 0.9766(3) 0.8113(3) 0.6198(3)
C1 C 0.9659(6) 0.4725(5) 0.7065(5)
C2 C 0.9618(4) 0.5625(4) 0.6503(4)
C3 C 0.9271(4) 0.5427(4) 0.5527(4)
C4 C 0.9217(4) 0.4460(5) 0.5333(4)
C5 C 0.9836(3) 0.6464(4) 0.6992(4)
C6 C 0.9779(3) 0.7388(4) 0.6537(4)
C7 C 0.8964(4) 0.4713(5) 0.7294(5)
C8 C 0.8979(4) 0.6207(5) 0.4798(5)
C9 C 0.8887(4) 0.3985(5) 0.4396(5)
C10 C 0.8803(3) 1.0836(4) 0.4807(4)
C11 C 0.8080(4) 1.1323(5) 0.4659(5)
C12 C 0.9225(3) 0.9097(4) 0.3465(4)
C13 C 0.8745(5) 0.8597(5) 0.2535(5)
H1 H 0.8974 0.4121 0.7614
H2 H 0.8508 0.4750 0.6725
H3 H 0.9000 0.5262 0.7678
H4 H 0.8674 0.5916 0.4203
H5 H 0.9388 0.6541 0.4784
H6 H 0.8689 0.6661 0.4941
H7 H 0.9051 0.3321 0.4460
H8 H 0.9042 0.4330 0.4003
H9 H 0.8355 0.4001 0.4123
Rh1D Rh 1.01000(2) 1.06614(3) 0.45804(3)
Rh1F Rh 0.99000(2) 1.06614(3) 0.04196(3)
Rh1B Rh 1.01000(2) 0.93386(3) -0.04196(3)
Rh1B_2 Rh 1.01000(2) 0.93386(3) 0.95804(3)
S1D S 1.0449(1) 1.6312(1) 0.3709(1)
S1F S 0.9551(1) 1.6312(1) 0.1291(1)
S1B S 1.0449(1) 0.3688(1) 0.8709(1)
F1F F 0.7666(3) 0.8454(5) -0.1225(3)
F1B F 1.2334(3) 1.1546(5) 0.1225(3)
F1D F 1.2334(3) 0.8454(5) 0.6225(3)
F2F F 0.7682(2) 0.9225(3) -0.0082(3)
F2B F 1.2318(2) 1.0775(3) 0.0082(3)
F2D F 1.2318(2) 0.9225(3) 0.5082(3)
F3F F 0.8223(3) 0.7856(3) 0.0135(4)
F3B F 1.1777(3) 1.2144(3) -0.0135(4)
F3D F 1.1777(3) 0.7856(3) 0.4865(4)
F4F F 0.8565(4) 1.2291(4) -0.2376(4)
F4B F 1.1435(4) 0.7709(4) 0.2376(4)
F4D F 1.1435(4) 1.2291(4) 0.7376(4)
F5F F 0.9091(4) 1.1471(6) -0.2958(4)
F5B F 1.0909(4) 0.8529(6) 0.2958(4)
F5D F 1.0909(4) 1.1471(6) 0.7958(4)
F6F F 0.8148(4) 1.0932(4) -0.2943(4)
F6B F 1.1852(4) 0.9068(4) 0.2943(4)
F6D F 1.1852(4) 1.0932(4) 0.7943(4)
O1D O 1.1036(2) 0.9952(3) 0.4756(3)
O1B O 1.1036(2) 1.0048(3) -0.0244(3)
O1F O 0.8964(2) 0.9952(3) 0.0244(3)
O2D O 0.9156(2) 1.1295(3) 0.4469(3)
O2F O 1.0844(2) 1.1295(3) 0.0531(3)
O2B O 0.9156(2) 0.8705(3) -0.0531(3)
O3D O 1.0703(2) 1.1338(3) 0.5821(3)
O3B O 1.0703(2) 0.8662(3) 0.0821(3)
O3F O 0.9297(2) 1.1338(3) -0.0821(3)
O4D O 0.9480(2) 0.9905(3) 0.3391(3)
O4F O 1.0520(2) 0.9905(3) 0.1609(3)
O4B O 0.9480(2) 1.0095(3) -0.1609(3)
N1D N 1.0234(3) 1.1887(3) 0.3802(3)
N1F N 0.9766(3) 1.1887(3) 0.1198(3)
N1B N 1.0234(3) 0.8113(3) -0.1198(3)
N1B_2 N 1.0234(3) 0.8113(3) 0.8802(3)
C1D C 1.0341(6) 1.5275(5) 0.2935(5)
C1F C 0.9659(6) 1.5275(5) 0.2065(5)
C1B C 1.0341(6) 0.4725(5) 0.7935(5)
C2D C 1.0382(4) 1.4375(4) 0.3497(4)
C2F C 0.9618(4) 1.4375(4) 0.1503(4)
C2B C 1.0382(4) 0.5625(4) 0.8497(4)
C3D C 1.0729(4) 1.4573(4) 0.4473(4)
C3F C 0.9271(4) 1.4573(4) 0.0527(4)
C3B C 1.0729(4) 0.5427(4) 0.9473(4)
C4D C 1.0783(4) 1.5540(5) 0.4667(4)
C4F C 0.9217(4) 1.5540(5) 0.0333(4)
C4B C 1.0783(4) 0.4460(5) 0.9667(4)
C5D C 1.0164(3) 1.3536(4) 0.3008(4)
C5F C 0.9836(3) 1.3536(4) 0.1992(4)
C5B C 1.0164(3) 0.6464(4) 0.8008(4)
C6D C 1.0221(3) 1.2612(4) 0.3463(4)
C6F C 0.9779(3) 1.2612(4) 0.1537(4)
C6B C 1.0221(3) 0.7388(4) 0.8463(4)
C7F C 0.8964(4) 1.5287(5) 0.2294(5)
C7D C 1.1036(4) 1.5287(5) 0.2706(5)
C7B C 1.1036(4) 0.4713(5) 0.7706(5)
C8D C 1.1021(4) 1.3793(5) 0.5202(5)
C8F C 0.8979(4) 1.3793(5) -0.0202(5)
C8B C 1.1021(4) 0.6207(5) 1.0202(5)
C9D C 1.1113(4) 1.6015(5) 0.5604(5)
C9F C 0.8887(4) 1.6015(5) -0.0604(5)
C9B C 1.1113(4) 0.3985(5) 1.0604(5)
C10D C 1.1197(3) 0.9164(4) 0.5193(4)
C10B C 1.1197(3) 1.0836(4) 0.0193(4)
C10F C 0.8803(3) 0.9164(4) -0.0193(4)
C11F C 0.8080(4) 0.8677(5) -0.0341(5)
C11B C 1.1920(4) 1.1323(5) 0.0341(5)
C11D C 1.1920(4) 0.8677(5) 0.5341(5)
C12D C 1.0775(3) 1.0903(4) 0.6535(4)
C12B C 1.0775(3) 0.9097(4) 0.1535(4)
C12F C 0.9225(3) 1.0903(4) -0.1535(4)
C13F C 0.8745(5) 1.1403(5) -0.2465(5)
C13B C 1.1255(5) 0.8597(5) 0.2465(5)
C13D C 1.1255(5) 1.1403(5) 0.7465(5)
H1F H 0.8974 1.5879 0.2614
H1D H 1.1026 1.5879 0.2386
H1B H 1.1026 0.4121 0.7386
H2F H 0.8508 1.5250 0.1725
H2D H 1.1492 1.5250 0.3275
H2B H 1.1492 0.4750 0.8275
H3F H 0.9000 1.4738 0.2678
H3D H 1.1000 1.4738 0.2322
H3B H 1.1000 0.5262 0.7322
H4D H 1.1326 1.4084 0.5797
H4F H 0.8674 1.4084 -0.0797
H4B H 1.1326 0.5916 1.0797
H5D H 1.0612 1.3459 0.5216
H5F H 0.9388 1.3459 -0.0216
H5B H 1.0612 0.6541 1.0216
H6D H 1.1311 1.3339 0.5059
H6F H 0.8689 1.3339 -0.0059
H6B H 1.1311 0.6661 1.0059
H7D H 1.0949 1.6679 0.5540
H7F H 0.9051 1.6679 -0.0540
H7B H 1.0949 0.3321 1.0540
H8D H 1.0958 1.5670 0.5997
H8F H 0.9042 1.5670 -0.0997
H8B H 1.0958 0.4330 1.0997
H9D H 1.1645 1.5999 0.5877
H9F H 0.8355 1.5999 -0.0877
H9B H 1.1645 0.4001 1.0877
C14 C 0.7416(4) 0.6776(5) 0.5518(6)
C15 C 0.7818(4) 0.7599(5) 0.5972(5)
C16 C 0.7104(4) 0.6674(5) 0.4568(5)
C17 C 0.8144(5) 0.7721(7) 0.7000(5)
H10 H 0.7354 0.6269 0.5872
H11 H 0.6834 0.6101 0.4281
H12 H 0.7771 0.7967 0.7148
H13 H 0.8550 0.8173 0.7213
H14 H 0.8319 0.7103 0.7298
C14E C 0.7584(4) 0.8224(5) 0.4482(6)
C15E C 0.7182(4) 0.7401(5) 0.4028(5)
C16E C 0.7896(4) 0.8326(5) 0.5432(5)
C17E C 0.6856(5) 0.7279(7) 0.3000(5)
H10E H 0.7646 0.8731 0.4128
H11E H 0.8166 0.8899 0.5719
H12E H 0.7229 0.7033 0.2852
H13E H 0.6450 0.6827 0.2787
H14E H 0.6681 0.7897 0.2702
loop_
_geom_bond_atom_site_label_1
_geom_bond_atom_site_label_2
_geom_bond_site_symmetry_1
_geom_bond_site_symmetry_2
Rh1 O1 1_555 1_555
S1 C1 1_555 1_555
F1 C11 1_555 1_555
F2 C11 1_555 1_555
F3 C11 1_555 1_555
F4 C13 1_555 1_555
F5 C13 1_555 1_555
F6 C13 1_555 1_555
O1 C10 1_555 1_555
O2 Rh1 1_555 1_555
O3 Rh1 1_555 1_555
O4 Rh1 1_555 1_555
N1 Rh1 1_555 1_555
C1 C2 1_555 1_555
C2 C3 1_555 1_555
C3 C4 1_555 1_555
C4 S1 1_555 1_555
C5 C2 1_555 1_555
C6 N1 1_555 1_555
C7 C1 1_555 1_555
C8 C3 1_555 1_555
C9 C4 1_555 1_555
C10 C11 1_555 1_555
C12 O3 1_555 1_555
C13 C12 1_555 1_555
C14 C15 1_555 1_555
C15 C17 1_555 1_555
C16 C14 1_555 1_555
C17 H12 1_555 1_555
H1 C7 1_555 1_555
H2 C7 1_555 1_555
H3 C7 1_555 1_555
H4 C8 1_555 1_555
H5 C8 1_555 1_555
H6 C8 1_555 1_555
H7 C9 1_555 1_555
H8 C9 1_555 1_555
H9 C9 1_555 1_555
H10 C14 1_555 1_555
H11 C16 1_555 1_555
H13 C17 1_555 1_555
H14 C17 1_555 1_555
Rh1D Rh1 1_555 1_555
Rh1F Rh1B 1_555 1_555
Rh1B O1B 1_555 1_555
Rh1B_2 N1B_2 1_555 1_555
S1D C1D 1_555 1_555
S1F C1F 1_555 1_555
S1B C1B 1_555 1_555
F1F C11F 1_555 1_555
F1B C11B 1_555 1_555
F1D C11D 1_555 1_555
F2F C11F 1_555 1_555
F2B C11B 1_555 1_555
F2D C11D 1_555 1_555
F3F C11F 1_555 1_555
F3B C11B 1_555 1_555
F3D C11D 1_555 1_555
F4F C13F 1_555 1_555
F4B C13B 1_555 1_555
F4D C13D 1_555 1_555
F5F C13F 1_555 1_555
F5B C13B 1_555 1_555
F5D C13D 1_555 1_555
F6F C13F 1_555 1_555
F6B C13B 1_555 1_555
F6D C13D 1_555 1_555
O1D Rh1D 1_555 1_555
O1B C10B 1_555 1_555
O1F Rh1F 1_555 1_555
O2D C10 1_555 1_555
O2F Rh1F 1_555 1_555
O2B Rh1B 1_555 1_555
O3D Rh1D 1_555 1_555
O3B Rh1B 1_555 1_555
O3F Rh1F 1_555 1_555
O4D C12 1_555 1_555
O4F Rh1F 1_555 1_555
O4B Rh1B 1_555 1_555
N1D Rh1D 1_555 1_555
N1F Rh1F 1_555 1_555
N1B Rh1B 1_555 1_555
N1B_2 C6B 1_555 1_555
C1D C1F 1_555 1_555
C1F C2F 1_555 1_555
C1B C1 1_555 1_555
C2D C1D 1_555 1_555
C2F C3F 1_555 1_555
C2B C1B 1_555 1_555
C3D C2D 1_555 1_555
C3F C4F 1_555 1_555
C3B C2B 1_555 1_555
C4D S1D 1_555 1_555
C4F S1F 1_555 1_555
C4B S1B 1_555 1_555
C5D C2D 1_555 1_555
C5F C2F 1_555 1_555
C5B C5 1_555 1_555
C6D N1D 1_555 1_555
C6F N1F 1_555 1_555
C6B C5B 1_555 1_555
C7F C1F 1_555 1_555
C7D C1D 1_555 1_555
C7B C1B 1_555 1_555
C8D C3D 1_555 1_555
C8F C3F 1_555 1_555
C8B C3B 1_555 1_555
C9D C4D 1_555 1_555
C9F C4F 1_555 1_555
C9B C4B 1_555 1_555
C10D O2 1_555 1_555
C10B O2F 1_555 1_555
C10F O1F 1_555 1_555
C11F C10F 1_555 1_555
C11B C10B 1_555 1_555
C11D C10D 1_555 1_555
C12D O4 1_555 1_555
C12B O3B 1_555 1_555
C12F O3F 1_555 1_555
C13F C12F 1_555 1_555
C13B C12B 1_555 1_555
C13D C12D 1_555 1_555
C14E C15E 1_555 1_555
C15E C16 1_555 1_555
C16E C15 1_555 1_555
C17E C15E 1_555 1_555
H1F C7F 1_555 1_555
H1D C7D 1_555 1_555
H1B C7B 1_555 1_555
H2F C7F 1_555 1_555
H2D C7D 1_555 1_555
H2B C7B 1_555 1_555
H3F C7F 1_555 1_555
H3D C7D 1_555 1_555
H3B C7B 1_555 1_555
H4D C8D 1_555 1_555
H4F C8F 1_555 1_555
H4B C8B 1_555 1_555
H5D C8D 1_555 1_555
H5F C8F 1_555 1_555
H5B C8B 1_555 1_555
H6D C8D 1_555 1_555
H6F C8F 1_555 1_555
H6B C8B 1_555 1_555
H7D C9D 1_555 1_555
H7F C9F 1_555 1_555
H7B C9B 1_555 1_555
H8D C9D 1_555 1_555
H8F C9F 1_555 1_555
H8B C9B 1_555 1_555
H9D C9D 1_555 1_555
H9F C9F 1_555 1_555
H9B C9B 1_555 1_555
H10E C14E 1_555 1_555
H11E C16E 1_555 1_555
H12E C17E 1_555 1_555
H13E C17E 1_555 1_555
H14E C17E 1_555 1_555
C5 C6 1_555 1_555
Rh1D O2D 1_555 1_555
Rh1D O4D 1_555 1_555
O1D C10D 1_555 1_555
O2B C10F 1_555 1_555
O3D C12D 1_555 1_555
O4F C12B 1_555 1_555
O4B C12F 1_555 1_555
C2B C5B 1_555 1_555
C3D C4D 1_555 1_555
C3B C4B 1_555 1_555
C5D C5F 1_555 1_555
C5D C6D 1_555 1_555
C5F C6F 1_555 1_555
C14E C16E 1_555 1_555

#END
