
#######################################################################
#
#                 Cambridge Crystallographic Data Centre
#                                CCDC 
#
#######################################################################
#
# If this CIF has been generated from an entry in the Cambridge 
# Structural Database, then it will include bibliographic, chemical, 
# crystal, experimental, refinement or atomic coordinate data resulting 
# from the CCDC's data processing and validation procedures.
#
#######################################################################

data_NECHEK
_symmetry_cell_setting           trigonal
_symmetry_space_group_name_H-M   'P 31 2 1'
_symmetry_Int_Tables_number      152
_space_group_name_Hall           'P 31 2"'
loop_
_symmetry_equiv_pos_site_id
_symmetry_equiv_pos_as_xyz
1 x,y,z
2 -y,x-y,1/3+z
3 -x+y,-x,2/3+z
4 y,x,-z
5 x-y,-y,2/3-z
6 -x,-x+y,1/3-z
_cell_length_a                   11.2006(8)
_cell_length_b                   11.2006(8)
_cell_length_c                   14.1148(18)
_cell_angle_alpha                90
_cell_angle_beta                 90
_cell_angle_gamma                120
_cell_volume                     1533.51
loop_
_atom_site_label
_atom_site_type_symbol
_atom_site_fract_x
_atom_site_fract_y
_atom_site_fract_z
Co1 Co 0.5344(2) 0.5344(2) 0.0000
S1 S 0.7240(2) 0.5209(2) 0.16997(15)
C1 C 0.2188(11) 0.4064(12) 0.0115(6)
H1 H 0.2278 0.4089 -0.0540
C2 C 0.0908(12) 0.3519(11) 0.0478(6)
H2 H 0.0155 0.3211 0.0074
C3 C 0.0707(9) 0.3417(9) 0.1454(6)
C4 C 0.1863(10) 0.3906(9) 0.2002(6)
H3 H 0.1775 0.3854 0.2658
C5 C 0.3206(11) 0.4495(10) 0.1588(6)
H4 H 0.3977 0.4822 0.1977
C6 C 0.8571(12) 0.6349(10) 0.0026(6)
H5 H 0.8794 0.7208 0.0338
H6 H 0.9346 0.6521 -0.0372
C7 C 0.8366(9) 0.5304(10) 0.0757(6)
H7 H 0.9254 0.5532 0.1022
H8 H 0.7982 0.4407 0.0457
O1 O 0.5911(7) 0.4746(8) 0.1259(4)
O2 O 0.7726(9) 0.6539(8) 0.2042(5)
O3 O 0.7173(8) 0.4239(9) 0.2384(5)
N1 N 0.3360(8) 0.4580(9) 0.0647(5)
N2 N 0.7333(9) 0.5908(8) -0.0580(5)
H9 H 0.7227 0.5182 -0.0921
H10 H 0.7543 0.6596 -0.0995
Co1A Co -0.5344(2) 0.0000(3) 0.3333
S1C S 0.5209(2) 0.7240(2) -0.16997(15)
C1E C -0.2188(11) 0.1876(16) 0.3218(6)
H1E H -0.2278 0.1811 0.3873
C2E C -0.0908(12) 0.2611(16) 0.2855(6)
H2E H -0.0155 0.3056 0.3259
C3E C -0.0707(9) 0.2710(13) 0.1879(6)
C4E C -0.1863(10) 0.2043(13) 0.1331(6)
H3E H -0.1775 0.2079 0.0675
C5E C -0.3206(11) 0.1289(15) 0.1745(6)
H4E H -0.3977 0.0845 0.1356
C6C C 0.6349(10) 0.8571(12) -0.0026(6)
H5C H 0.7208 0.8794 -0.0338
H6C H 0.6521 0.9346 0.0372
C7C C 0.5304(10) 0.8366(9) -0.0757(6)
H7C H 0.5532 0.9254 -0.1022
H8C H 0.4407 0.7982 -0.0457
O1C O 0.4746(8) 0.5911(7) -0.1259(4)
O2C O 0.6539(8) 0.7726(9) -0.2042(5)
O3C O 0.4239(9) 0.7173(8) -0.2384(5)
N1E N -0.3360(8) 0.1220(12) 0.2686(5)
N1C N 0.4580(9) 0.3360(8) -0.0647(5)
N2C N 0.5908(8) 0.7333(9) 0.0580(5)
H9C H 0.5182 0.7227 0.0921
H10C H 0.6596 0.7543 0.0995
O4 O 0.9184(19) 0.9397(18) 0.2096(12)
loop_
_geom_bond_atom_site_label_1
_geom_bond_atom_site_label_2
_geom_bond_site_symmetry_1
_geom_bond_site_symmetry_2
Co1 O1 1_555 1_555
S1 C7 1_555 1_555
C1 H1 1_555 1_555
C2 C1 1_555 1_555
H2 C2 1_555 1_555
C3 C2 1_555 1_555
C4 C3 1_555 1_555
H3 C4 1_555 1_555
C5 C4 1_555 1_555
H4 C5 1_555 1_555
C6 H5 1_555 1_555
H6 C6 1_555 1_555
C7 C6 1_555 1_555
H7 C7 1_555 1_555
H8 C7 1_555 1_555
O1 S1 1_555 1_555
O2 S1 1_555 1_555
O3 S1 1_555 1_555
N1 Co1 1_555 1_555
N2 Co1 1_555 1_555
H9 N2 1_555 1_555
H10 N2 1_555 1_555
Co1A N1E 1_555 1_555
S1C C7C 1_555 1_555
C1E H1E 1_555 1_555
C2E C1E 1_555 1_555
H2E C2E 1_555 1_555
C3E C3 1_555 1_555
C4E C3E 1_555 1_555
H3E C4E 1_555 1_555
C5E C4E 1_555 1_555
H4E C5E 1_555 1_555
C6C H5C 1_555 1_555
H6C C6C 1_555 1_555
C7C C6C 1_555 1_555
H7C C7C 1_555 1_555
H8C C7C 1_555 1_555
O1C Co1 1_555 1_555
O2C S1C 1_555 1_555
O3C S1C 1_555 1_555
N1E C1E 1_555 1_555
N1C Co1 1_555 1_555
N2C Co1 1_555 1_555
H9C N2C 1_555 1_555
H10C N2C 1_555 1_555
C1 N1 1_555 1_555
C5 N1 1_555 1_555
C6 N2 1_555 1_555
S1C O1C 1_555 1_555
C2E C3E 1_555 1_555
C5E N1E 1_555 1_555
C6C N2C 1_555 1_555

#END
