
#######################################################################
#
#                 Cambridge Crystallographic Data Centre
#                                CCDC 
#
#######################################################################
#
# If this CIF has been generated from an entry in the Cambridge 
# Structural Database, then it will include bibliographic, chemical, 
# crystal, experimental, refinement or atomic coordinate data resulting 
# from the CCDC's data processing and validation procedures.
#
#######################################################################

data_NECJOV
_symmetry_cell_setting           orthorhombic
_symmetry_space_group_name_H-M   'P 21 21 21'
_symmetry_Int_Tables_number      19
_space_group_name_Hall           'P 2ac 2ab'
loop_
_symmetry_equiv_pos_site_id
_symmetry_equiv_pos_as_xyz
1 x,y,z
2 1/2-x,-y,1/2+z
3 -x,1/2+y,1/2-z
4 1/2+x,1/2-y,-z
_cell_length_a                   10.091(5)
_cell_length_b                   14.828(7)
_cell_length_c                   19.711(9)
_cell_angle_alpha                90
_cell_angle_beta                 90
_cell_angle_gamma                90
_cell_volume                     2949.34
loop_
_atom_site_label
_atom_site_type_symbol
_atom_site_fract_x
_atom_site_fract_y
_atom_site_fract_z
Zn1 Zn 0.51877(5) 0.64637(4) 0.44625(3)
Zn2 Zn -0.29049(5) 0.62855(3) 0.05793(3)
C1 C 0.4542(5) 0.6463(4) 0.5682(3)
C2 C 0.3913(6) 0.6432(5) 0.6383(3)
C3 C 0.4591(6) 0.5975(4) 0.6885(3)
H1 H 0.5395 0.5697 0.6788
C4 C 0.4065(6) 0.5931(4) 0.7538(3)
H2 H 0.4511 0.5620 0.7878
C5 C 0.2870(6) 0.6356(4) 0.7678(3)
H3 H 0.2521 0.6336 0.8114
C6 C 0.2201(8) 0.6807(4) 0.7175(3)
C7 C 0.2729(5) 0.6851(4) 0.6516(3)
C8 C 0.1805(6) 0.7226(4) 0.5991(3)
C9 C -0.0001(7) 0.6863(4) 0.7611(3)
C10 C -0.0747(5) 0.6180(4) 0.7242(3)
H4 H -0.0534 0.6017 0.6800
C11 C -0.1766(6) 0.5798(4) 0.7580(3)
H5 H -0.2251 0.5361 0.7350
C12 C -0.2183(6) 0.6012(4) 0.8282(3)
H6 H -0.2946 0.5772 0.8474
C13 C -0.1332(6) 0.6613(4) 0.8642(3)
C14 C -0.0288(6) 0.7109(4) 0.8294(3)
C15 C 0.0527(6) 0.7714(4) 0.8670(3)
C16 C -0.1588(5) 0.6855(4) 0.9348(3)
C17 C -0.1497(6) 0.6322(4) 0.1977(3)
H7 H -0.2352 0.6252 0.2146
C18 C -0.0522(5) 0.6394(5) 0.2398(3)
H8 H -0.0716 0.6340 0.2858
C19 C 0.0787(6) 0.6544(5) 0.2224(3)
C20 C 0.0969(6) 0.6623(5) 0.1530(3)
H9 H 0.1800 0.6775 0.1361
C21 C 0.0035(6) 0.6493(4) 0.1129(3)
H10 H 0.0275 0.6494 0.0673
C22 C 0.1875(5) 0.6554(4) 0.2710(3)
C23 C 0.1655(6) 0.7019(5) 0.3307(3)
H11 H 0.0851 0.7309 0.3382
C24 C 0.2654(6) 0.7048(4) 0.3797(3)
H12 H 0.2512 0.7359 0.4200
C25 C 0.4066(6) 0.6160(4) 0.3085(3)
H13 H 0.4876 0.5875 0.3013
C26 C 0.3078(5) 0.6122(4) 0.2589(3)
H14 H 0.3222 0.5814 0.2185
N1 N 0.3836(6) 0.6626(4) 0.3690(3)
N2 N -0.1295(5) 0.6348(3) 0.1248(2)
O1 O 0.5716(4) 0.6172(3) 0.5606(2)
O2 O 0.3920(4) 0.6790(3) 0.5206(2)
O3 O 0.1902(4) 0.8099(3) 0.59196(19)
O4 O 0.0994(4) 0.6800(3) 0.5741(2)
O5 O 0.1089(4) 0.7335(3) 0.7288(2)
O6 O 0.0511(4) 0.8550(3) 0.8520(2)
O7 O 0.1369(4) 0.7476(2) 0.91160(19)
O8 O -0.1623(4) 0.7651(3) 0.95533(19)
O9 O -0.1856(4) 0.6183(3) 0.97078(19)
O10 O 0.5248(4) 0.5116(3) 0.4347(2)
H15 H 0.4985 0.4949 0.4737
H16 H 0.6005 0.4864 0.4336
O11 O -0.3033(4) 0.4883(2) 0.07009(18)
H17 H -0.2398 0.4820 0.0981
H18 H -0.2730 0.4542 0.0390
O12 O -0.4565(4) 0.6323(3) -0.00925(17)
H19 H -0.5239 0.6095 0.0102
H20 H -0.4730 0.6865 -0.0202
Zn1C Zn 0.01877(5) 0.85363(4) 0.55375(3)
Zn2C Zn 0.20951(5) 0.87145(3) 0.94207(3)
Zn2_2 Zn -0.29049(5) 0.62855(3) 1.05793(3)
O3C O 0.6902(4) 0.6901(3) 0.40804(19)
O4C O 0.5994(4) 0.8200(3) 0.4259(2)
O6C O -0.4489(4) 0.6450(3) 0.1480(2)
O7C O -0.3631(4) 0.7524(2) 0.08840(19)
O9_2 O -0.1856(4) 0.6183(3) -0.02922(19)
O13 O 0.8302(4) 0.9848(3) 0.92380(19)
H21 H 0.8503 1.0340 0.9042
H22 H 0.8649 0.9409 0.9025
O14 O 0.9580(4) 0.9894(3) 0.09936(19)
H23 H 1.0072 0.9941 0.0645
H24 H 0.8923 0.9556 0.0903
loop_
_geom_bond_atom_site_label_1
_geom_bond_atom_site_label_2
_geom_bond_site_symmetry_1
_geom_bond_site_symmetry_2
Zn1 N1 1_555 1_555
Zn2 N2 1_555 1_555
C1 C2 1_555 1_555
C2 C3 1_555 1_555
C3 H1 1_555 1_555
C4 C3 1_555 1_555
H2 C4 1_555 1_555
C5 C4 1_555 1_555
H3 C5 1_555 1_555
C6 C5 1_555 1_555
C7 C2 1_555 1_555
C8 C7 1_555 1_555
C9 C10 1_555 1_555
C10 H4 1_555 1_555
C11 C10 1_555 1_555
H5 C11 1_555 1_555
C12 C11 1_555 1_555
H6 C12 1_555 1_555
C13 C12 1_555 1_555
C14 C9 1_555 1_555
C15 C14 1_555 1_555
C16 C13 1_555 1_555
C17 H7 1_555 1_555
C18 C17 1_555 1_555
H8 C18 1_555 1_555
C19 C18 1_555 1_555
C20 C19 1_555 1_555
H9 C20 1_555 1_555
C21 C20 1_555 1_555
H10 C21 1_555 1_555
C22 C19 1_555 1_555
C23 C22 1_555 1_555
H11 C23 1_555 1_555
C24 C23 1_555 1_555
H12 C24 1_555 1_555
C25 H13 1_555 1_555
C26 C22 1_555 1_555
H14 C26 1_555 1_555
N1 C24 1_555 1_555
N2 C17 1_555 1_555
O1 Zn1 1_555 1_555
O2 Zn1 1_555 1_555
O3 C8 1_555 1_555
O4 C8 1_555 1_555
O5 C6 1_555 1_555
O6 C15 1_555 1_555
O7 C15 1_555 1_555
O8 C16 1_555 1_555
O9 C16 1_555 1_555
O10 Zn1 1_555 1_555
H15 O10 1_555 1_555
H16 O10 1_555 1_555
O11 Zn2 1_555 1_555
H17 O11 1_555 1_555
H18 O11 1_555 1_555
O12 Zn2 1_555 1_555
H19 O12 1_555 1_555
H20 O12 1_555 1_555
O13 H21 1_555 1_555
H22 O13 1_555 1_555
O14 H23 1_555 1_555
H24 O14 1_555 1_555
Zn1C O3 1_555 1_555
Zn2C O6 1_555 1_555
Zn2_2 O9 1_555 1_555
O3C Zn1 1_555 1_555
O4C Zn1 1_555 1_555
O6C Zn2 1_555 1_555
O7C Zn2 1_555 1_555
O9_2 Zn2 1_555 1_555
C1 O1 1_555 1_555
C1 O2 1_555 1_555
C6 C7 1_555 1_555
C9 O5 1_555 1_555
C13 C14 1_555 1_555
C21 N2 1_555 1_555
C25 C26 1_555 1_555
C25 N1 1_555 1_555
O4 Zn1C 1_555 1_555
O7 Zn2C 1_555 1_555

#END
