
#######################################################################
#
#                 Cambridge Crystallographic Data Centre
#                                CCDC 
#
#######################################################################
#
# If this CIF has been generated from an entry in the Cambridge 
# Structural Database, then it will include bibliographic, chemical, 
# crystal, experimental, refinement or atomic coordinate data resulting 
# from the CCDC's data processing and validation procedures.
#
#######################################################################

data_NECJUB
_symmetry_cell_setting           monoclinic
_symmetry_space_group_name_H-M   'P 21'
_symmetry_Int_Tables_number      4
_space_group_name_Hall           'P 2yb'
loop_
_symmetry_equiv_pos_site_id
_symmetry_equiv_pos_as_xyz
1 x,y,z
2 -x,1/2+y,-z
_cell_length_a                   7.1328(15)
_cell_length_b                   20.059(4)
_cell_length_c                   10.117(2)
_cell_angle_alpha                90
_cell_angle_beta                 110.642(3)
_cell_angle_gamma                90
_cell_volume                     1354.58
loop_
_atom_site_label
_atom_site_type_symbol
_atom_site_fract_x
_atom_site_fract_y
_atom_site_fract_z
Cd1 Cd 0.70913(8) 0.65889(3) 0.77768(6)
Cd2 Cd 0.75549(8) 0.25531(3) 1.60924(6)
C1 C 0.2565(12) 0.6371(4) 0.5311(10)
C2 C 0.2553(12) 0.5665(4) 0.5819(9)
C3 C 0.3707(12) 0.5189(4) 0.5448(9)
H1 H 0.4486 0.5314 0.4921
C4 C 0.3699(12) 0.4533(5) 0.5859(9)
H2 H 0.4464 0.4218 0.5600
C5 C 0.2560(11) 0.4342(5) 0.6653(10)
H3 H 0.2569 0.3901 0.6936
C6 C 0.1397(12) 0.4812(5) 0.7027(10)
C7 C 0.1290(13) 0.5476(5) 0.6554(9)
C8 C 0.0005(11) 0.5953(4) 0.6972(9)
C9 C 0.1208(12) 0.4434(5) 0.9168(10)
C10 C 0.2211(12) 0.4906(5) 1.0174(10)
H4 H 0.2350 0.5344 0.9918
C11 C 0.2998(12) 0.4702(5) 1.1578(10)
H5 H 0.3631 0.5016 1.2268
C12 C 0.2877(12) 0.4062(5) 1.1980(9)
H6 H 0.3433 0.3941 1.2926
C13 C 0.1876(12) 0.3575(5) 1.0923(9)
C14 C 0.1028(11) 0.3765(4) 0.9544(10)
C15 C -0.0145(12) 0.3307(5) 0.8347(9)
C16 C 0.1852(12) 0.2872(5) 1.1327(10)
C17 C 0.7842(13) 0.3954(5) 1.4770(11)
H7 H 0.7726 0.4083 1.5621
C18 C 0.7953(12) 0.4450(5) 1.3821(9)
H8 H 0.8048 0.4895 1.4091
C19 C 0.7924(12) 0.4286(4) 1.2525(9)
C20 C 0.8014(13) 0.3606(5) 1.2215(10)
H9 H 0.8080 0.3471 1.1353
C21 C 0.8002(14) 0.3138(5) 1.3234(9)
H10 H 0.8071 0.2688 1.3037
C22 C 0.7879(12) 0.4793(5) 1.1429(9)
C23 C 0.8543(13) 0.5442(5) 1.1814(10)
H11 H 0.9104 0.5556 1.2764
C24 C 0.8374(12) 0.5906(5) 1.0809(9)
H12 H 0.8809 0.6337 1.1094
C25 C 0.7037(13) 0.5149(4) 0.9063(10)
H13 H 0.6559 0.5046 0.8105
C26 C 0.7100(12) 0.4645(4) 1.0000(10)
H14 H 0.6635 0.4220 0.9684
N1 N 0.7615(10) 0.5776(4) 0.9432(8)
N2 N 0.7894(10) 0.3314(4) 1.4503(8)
O1 O 0.4237(8) 0.6656(3) 0.5617(6)
O2 O 0.0970(8) 0.6646(3) 0.4584(7)
O3 O 0.0739(9) 0.6392(3) 0.7860(7)
O4 O -0.1856(10) 0.5886(3) 0.6386(7)
O5 O 0.0202(7) 0.4630(3) 0.7774(6)
O6 O -0.2029(10) 0.3295(3) 0.8013(7)
O7 O 0.0713(8) 0.2989(3) 0.7666(6)
O8 O 0.1092(9) 0.2425(3) 1.0429(6)
O9 O 0.2799(8) 0.2705(3) 1.2626(6)
O10 O 0.4195(8) 0.2867(3) 1.5480(6)
H15 H 0.3584 0.2533 1.5652
H16 H 0.3630 0.2951 1.4606
O11 O 0.7292(9) 0.1803(3) 1.7843(7)
H17 H 0.7284 0.2023 1.8559
H18 H 0.6212 0.1581 1.7509
O12 O 0.4578(8) 0.6841(3) 0.8758(6)
H19 H 0.5108 0.6863 0.9652
H20 H 0.3691 0.6538 0.8530
Cd1_2 Cd -0.29087(8) 0.65889(3) 0.77768(6)
Cd1A Cd 0.29087(8) 0.15889(3) 1.22232(6)
Cd2A Cd 0.24451(8) 0.75531(3) 0.39076(6)
Cd2_2 Cd -0.24451(8) 0.25531(3) 0.60924(6)
O1A O 0.5763(8) 0.1656(3) 1.4383(6)
O2A O 0.9030(8) 0.1646(3) 1.5416(7)
O3_2 O 1.0739(9) 0.6392(3) 0.7860(7)
O4_2 O 0.8144(10) 0.5886(3) 0.6386(7)
O6_2 O 0.7971(10) 0.3295(3) 1.8013(7)
O7_2 O 1.0713(8) 0.2989(3) 1.7666(6)
O8A O 0.8908(9) 0.7425(3) 0.9571(6)
O9A O 0.7201(8) 0.7705(3) 0.7374(6)
O13 O 0.6851(9) 0.6627(4) 0.3745(6)
H21 H 0.810(19) 0.662(8) 0.388(13)
H22 H 0.66(2) 0.632(8) 0.424(17)
O14 O 0.4888(9) 0.2764(3) 0.9060(6)
H23 H 0.5061 0.3096 0.8594
H24 H 0.3694 0.2764 0.9055
loop_
_geom_bond_atom_site_label_1
_geom_bond_atom_site_label_2
_geom_bond_site_symmetry_1
_geom_bond_site_symmetry_2
Cd1 N1 1_555 1_555
Cd2 N2 1_555 1_555
C1 C2 1_555 1_555
C2 C3 1_555 1_555
C3 H1 1_555 1_555
C4 C3 1_555 1_555
H2 C4 1_555 1_555
C5 C4 1_555 1_555
H3 C5 1_555 1_555
C6 C5 1_555 1_555
C7 C2 1_555 1_555
C8 C7 1_555 1_555
C9 C10 1_555 1_555
C10 H4 1_555 1_555
C11 C10 1_555 1_555
H5 C11 1_555 1_555
C12 C11 1_555 1_555
H6 C12 1_555 1_555
C13 C12 1_555 1_555
C14 C9 1_555 1_555
C15 C14 1_555 1_555
C16 C13 1_555 1_555
C17 H7 1_555 1_555
C18 C17 1_555 1_555
H8 C18 1_555 1_555
C19 C18 1_555 1_555
C20 C19 1_555 1_555
H9 C20 1_555 1_555
C21 C20 1_555 1_555
H10 C21 1_555 1_555
C22 C19 1_555 1_555
C23 C22 1_555 1_555
H11 C23 1_555 1_555
C24 C23 1_555 1_555
H12 C24 1_555 1_555
C25 H13 1_555 1_555
C26 C22 1_555 1_555
H14 C26 1_555 1_555
N1 C24 1_555 1_555
N2 C17 1_555 1_555
O1 Cd1 1_555 1_555
O2 C1 1_555 1_555
O3 C8 1_555 1_555
O4 C8 1_555 1_555
O5 C6 1_555 1_555
O6 C15 1_555 1_555
O7 C15 1_555 1_555
O8 C16 1_555 1_555
O9 C16 1_555 1_555
O10 Cd2 1_555 1_555
H15 O10 1_555 1_555
H16 O10 1_555 1_555
O11 Cd2 1_555 1_555
H17 O11 1_555 1_555
H18 O11 1_555 1_555
O12 Cd1 1_555 1_555
H19 O12 1_555 1_555
H20 O12 1_555 1_555
O13 H21 1_555 1_555
H22 O13 1_555 1_555
O14 H23 1_555 1_555
H24 O14 1_555 1_555
Cd1_2 O3 1_555 1_555
Cd1A O8 1_555 1_555
Cd2A O1 1_555 1_555
Cd2_2 O6 1_555 1_555
O1A Cd2 1_555 1_555
O2A Cd2 1_555 1_555
O3_2 Cd1 1_555 1_555
O4_2 Cd1 1_555 1_555
O6_2 Cd2 1_555 1_555
O7_2 Cd2 1_555 1_555
O8A Cd1 1_555 1_555
O9A Cd1 1_555 1_555
C1 O1 1_555 1_555
C6 C7 1_555 1_555
C9 O5 1_555 1_555
C13 C14 1_555 1_555
C21 N2 1_555 1_555
C25 C26 1_555 1_555
C25 N1 1_555 1_555
O2 Cd2A 1_555 1_555
O4 Cd1_2 1_555 1_555
O7 Cd2_2 1_555 1_555
O9 Cd1A 1_555 1_555
Cd1A O1A 1_555 1_555

#END
