
#######################################################################
#
#                 Cambridge Crystallographic Data Centre
#                                CCDC 
#
#######################################################################
#
# If this CIF has been generated from an entry in the Cambridge 
# Structural Database, then it will include bibliographic, chemical, 
# crystal, experimental, refinement or atomic coordinate data resulting 
# from the CCDC's data processing and validation procedures.
#
#######################################################################

data_NECNOZ
_symmetry_cell_setting           monoclinic
_symmetry_space_group_name_H-M   'P 21/n'
_symmetry_Int_Tables_number      14
_space_group_name_Hall           '-P 2yn'
loop_
_symmetry_equiv_pos_site_id
_symmetry_equiv_pos_as_xyz
1 x,y,z
2 1/2-x,1/2+y,1/2-z
3 -x,-y,-z
4 1/2+x,1/2-y,1/2+z
_cell_length_a                   6.9747(11)
_cell_length_b                   14.159(2)
_cell_length_c                   12.6361(19)
_cell_angle_alpha                90
_cell_angle_beta                 99.143(3)
_cell_angle_gamma                90
_cell_volume                     1232.02
loop_
_atom_site_label
_atom_site_type_symbol
_atom_site_fract_x
_atom_site_fract_y
_atom_site_fract_z
V1 V 0.30402(13) 0.35420(6) 0.76492(7)
Na1 Na 0.2542(3) 0.50428(15) 0.50447(17)
O1 O 0.3549(7) 0.2849(3) 0.8955(3)
O3 O 0.3208(7) 0.4753(3) 0.6984(3)
O4 O 0.4746(7) 0.3059(3) 0.7064(3)
O5 O 0.0879(6) 0.3154(3) 0.7068(3)
O6 O 0.0062(7) 0.3836(3) 0.4931(3)
H3 H 0.024(11) 0.364(4) 0.551(3)
H4 H -0.015(11) 0.343(3) 0.452(4)
O7 O 0.4847(7) 0.3827(3) 0.4864(4)
H5 H 0.472(11) 0.353(5) 0.536(4)
H6 H 0.431(10) 0.360(5) 0.435(3)
O8 O 0.2299(9) 0.5351(5) 0.3189(4)
H7 H 0.337(6) 0.525(6) 0.314(8)
H8 H 0.199(12) 0.585(4) 0.298(8)
N1 N 0.2689(7) 0.4532(3) 0.8843(3)
C1 C 0.2473(8) 0.5446(4) 0.8582(4)
C2 C 0.2236(9) 0.6112(4) 0.9356(5)
H9 H 0.2081 0.6755 0.9179
C3 C 0.2231(9) 0.5803(4) 1.0404(5)
H10 H 0.2069 0.6242 1.0941
C4 C 0.2466(9) 0.4849(4) 1.0661(5)
H11 H 0.2469 0.4636 1.1365
C5 C 0.2696(8) 0.4224(4) 0.9847(4)
C6 C 0.2946(9) 0.3184(4) 0.9901(5)
H12 H 0.3917 0.3017 1.0522
H13 H 0.1714 0.2884 0.9989
C7 C 0.2530(12) 0.5591(4) 0.7420(5)
H14 H 0.1228 0.5745 0.7046
H15 H 0.3397 0.6118 0.7325
Na1B Na -0.2542(3) 0.49572(15) 0.49553(17)
Na1B_2 Na 0.7458(3) 0.49572(15) 0.49553(17)
O6B O -0.0062(7) 0.6164(3) 0.5069(3)
H3B H -0.024(11) 0.636(4) 0.449(3)
H4B H 0.015(11) 0.657(3) 0.548(4)
O7B O 0.5153(7) 0.6173(3) 0.5136(4)
H5B H 0.528(11) 0.647(5) 0.464(4)
H6B H 0.569(10) 0.640(5) 0.565(3)
O2 O 0.1777(8) 0.7908(5) 1.1993(5)
H1 H 0.281(6) 0.773(6) 1.219(7)
H2 H 0.103(9) 0.764(6) 1.227(7)
loop_
_geom_bond_atom_site_label_1
_geom_bond_atom_site_label_2
_geom_bond_site_symmetry_1
_geom_bond_site_symmetry_2
V1 O1 1_555 1_555
Na1 O3 1_555 1_555
O1 C6 1_555 1_555
O2 H1 1_555 1_555
H2 O2 1_555 1_555
O3 V1 1_555 1_555
O4 V1 1_555 1_555
O5 V1 1_555 1_555
O6 Na1 1_555 1_555
H3 O6 1_555 1_555
H4 O6 1_555 1_555
O7 Na1 1_555 1_555
H5 O7 1_555 1_555
H6 O7 1_555 1_555
O8 Na1 1_555 1_555
H7 O8 1_555 1_555
H8 O8 1_555 1_555
N1 V1 1_555 1_555
C1 N1 1_555 1_555
C2 C1 1_555 1_555
H9 C2 1_555 1_555
C3 C2 1_555 1_555
H10 C3 1_555 1_555
C4 C3 1_555 1_555
H11 C4 1_555 1_555
C5 N1 1_555 1_555
C6 C5 1_555 1_555
H12 C6 1_555 1_555
H13 C6 1_555 1_555
C7 O3 1_555 1_555
H14 C7 1_555 1_555
H15 C7 1_555 1_555
Na1B O6 1_555 1_555
Na1B_2 O7 1_555 1_555
O6B Na1 1_555 1_555
H3B O6B 1_555 1_555
H4B O6B 1_555 1_555
O7B Na1 1_555 1_555
H5B O7B 1_555 1_555
H6B O7B 1_555 1_555
C1 C7 1_555 1_555
C4 C5 1_555 1_555
Na1B O6B 1_555 1_555
Na1B_2 O7B 1_555 1_555

#END
