
#######################################################################
#
#                 Cambridge Crystallographic Data Centre
#                                CCDC 
#
#######################################################################
#
# If this CIF has been generated from an entry in the Cambridge 
# Structural Database, then it will include bibliographic, chemical, 
# crystal, experimental, refinement or atomic coordinate data resulting 
# from the CCDC's data processing and validation procedures.
#
#######################################################################

data_NECSAQ
_symmetry_cell_setting           triclinic
_symmetry_space_group_name_H-M   'P -1'
_symmetry_Int_Tables_number      2
_space_group_name_Hall           '-P 1'
loop_
_symmetry_equiv_pos_site_id
_symmetry_equiv_pos_as_xyz
1 x,y,z
2 -x,-y,-z
_cell_length_a                   7.4787(4)
_cell_length_b                   8.1828(5)
_cell_length_c                   12.0259(7)
_cell_angle_alpha                97.8400(10)
_cell_angle_beta                 107.5400(10)
_cell_angle_gamma                109.1500(10)
_cell_volume                     639.886
loop_
_atom_site_label
_atom_site_type_symbol
_atom_site_fract_x
_atom_site_fract_y
_atom_site_fract_z
Zn1 Zn 0.64030(3) 0.17165(2) 0.735378(18)
S1 S 0.23005(8) 0.29941(7) 0.40730(5)
S2 S 0.81665(8) 0.75018(7) 0.96648(4)
N1 N 0.4594(2) -0.0333(2) 0.77340(14)
N2 N 0.2975(2) -0.3014(2) 0.78760(15)
N3 N -0.1091(2) -0.8676(2) 0.73039(14)
N4 N 0.4877(3) 0.2043(2) 0.58244(15)
N5 N 0.7224(3) 0.3942(2) 0.85927(16)
C1 C 0.4219(3) -0.2053(2) 0.73997(18)
H1 H 0.4755 -0.2533 0.6897
C2 C 0.2513(3) -0.1855(3) 0.8547(2)
H2 H 0.1667 -0.2147 0.8982
C3 C 0.3519(3) -0.0193(3) 0.84641(19)
H3 H 0.3487 0.0864 0.8838
C4 C 0.2288(3) -0.4963(3) 0.7713(2)
H4 H 0.2026 -0.5252 0.8419
H5 H 0.3365 -0.5335 0.7647
C5 C 0.0393(3) -0.5987(2) 0.66095(17)
H6 H 0.0633 -0.5647 0.5909
H7 H -0.0702 -0.5659 0.6696
C6 C -0.0265(3) -0.8005(3) 0.63974(19)
H8 H -0.1299 -0.8590 0.5594
H9 H 0.0894 -0.8315 0.6436
C7 C 0.3810(3) 0.2463(2) 0.51036(16)
C8 C 0.7620(3) 0.5422(2) 0.90444(16)
H10 H -0.133(3) -0.981(3) 0.7170(19)
H11 H -0.019(4) -0.822(3) 0.806(2)
Zn1_2 Zn -0.35970(3) -0.82835(2) 0.735378(18)
N3_2 N 0.8909(2) 0.1324(2) 0.73039(14)
H10_2 H 0.867(3) 0.019(3) 0.7170(19)
H11_2 H 0.981(4) 0.178(3) 0.806(2)
loop_
_geom_bond_atom_site_label_1
_geom_bond_atom_site_label_2
_geom_bond_site_symmetry_1
_geom_bond_site_symmetry_2
Zn1 N1 1_555 1_555
S1 C7 1_555 1_555
S2 C8 1_555 1_555
N1 C1 1_555 1_555
N2 C1 1_555 1_555
N3 C6 1_555 1_555
N4 Zn1 1_555 1_555
N5 Zn1 1_555 1_555
C1 H1 1_555 1_555
C2 N2 1_555 1_555
H2 C2 1_555 1_555
C3 N1 1_555 1_555
H3 C3 1_555 1_555
C4 N2 1_555 1_555
H4 C4 1_555 1_555
H5 C4 1_555 1_555
C5 C4 1_555 1_555
H6 C5 1_555 1_555
H7 C5 1_555 1_555
C6 C5 1_555 1_555
H8 C6 1_555 1_555
H9 C6 1_555 1_555
C7 N4 1_555 1_555
C8 N5 1_555 1_555
H10 N3 1_555 1_555
H11 N3 1_555 1_555
Zn1_2 N3 1_555 1_555
N3_2 Zn1 1_555 1_555
H10_2 N3_2 1_555 1_555
H11_2 N3_2 1_555 1_555
C2 C3 1_555 1_555

#END
