
#######################################################################
#
#                 Cambridge Crystallographic Data Centre
#                                CCDC 
#
#######################################################################
#
# If this CIF has been generated from an entry in the Cambridge 
# Structural Database, then it will include bibliographic, chemical, 
# crystal, experimental, refinement or atomic coordinate data resulting 
# from the CCDC's data processing and validation procedures.
#
#######################################################################

data_NECSEU
_symmetry_cell_setting           triclinic
_symmetry_space_group_name_H-M   'P -1'
_symmetry_Int_Tables_number      2
_space_group_name_Hall           '-P 1'
loop_
_symmetry_equiv_pos_site_id
_symmetry_equiv_pos_as_xyz
1 x,y,z
2 -x,-y,-z
_cell_length_a                   7.7860(12)
_cell_length_b                   8.8746(12)
_cell_length_c                   13.736(3)
_cell_angle_alpha                80.881(2)
_cell_angle_beta                 88.848(2)
_cell_angle_gamma                87.9620(10)
_cell_volume                     936.436
loop_
_atom_site_label
_atom_site_type_symbol
_atom_site_fract_x
_atom_site_fract_y
_atom_site_fract_z
Zn1 Zn 0.25014(7) 0.50077(5) 0.24965(4)
S1 S -0.23388(14) 0.69526(11) 0.40067(8)
S2 S 0.73469(14) 0.30618(11) 0.09927(8)
N1 N 0.3970(4) 0.7001(3) 0.1980(2)
N2 N 0.5967(4) 0.8460(3) 0.1170(2)
N3 N 1.0714(5) 0.5771(4) 0.1325(3)
N4 N 0.0986(5) 0.3022(3) 0.3010(2)
N5 N -0.0958(4) 0.1575(3) 0.3817(2)
N6 N -0.5701(4) 0.4258(3) 0.3673(3)
N7 N 0.1111(5) 0.6296(4) 0.3543(3)
N8 N 0.3927(5) 0.3725(4) 0.1437(3)
C1 C 0.5165(6) 0.7112(4) 0.1268(3)
H1 H 0.5419 0.6357 0.0884
C2 C 0.4018(5) 0.8366(4) 0.2347(3)
H2 H 0.3321 0.8625 0.2856
C3 C 0.5224(6) 0.9269(4) 0.1858(3)
H3 H 0.5498 1.0240 0.1965
C4 C 0.7321(6) 0.8961(4) 0.0457(3)
H4 H 0.7870 0.9828 0.0654
H5 H 0.6810 0.9298 -0.0183
C5 C 0.8693(5) 0.7697(4) 0.0363(3)
H6 H 0.8144 0.6829 0.0168
H7 H 0.9513 0.8073 -0.0152
C6 C 0.9645(6) 0.7179(4) 0.1321(3)
H8 H 1.0375 0.7991 0.1443
H9 H 0.8812 0.7012 0.1859
C7 C -0.0190(5) 0.2913(4) 0.3714(3)
H10 H -0.0453 0.3671 0.4094
C8 C 0.0993(6) 0.1665(4) 0.2643(3)
H11 H 0.1712 0.1409 0.2142
C9 C -0.0235(6) 0.0752(4) 0.3139(3)
H12 H -0.0517 -0.0220 0.3037
C10 C -0.2332(5) 0.1057(4) 0.4549(3)
H13 H -0.1823 0.0731 0.5190
H14 H -0.2885 0.0189 0.4357
C11 C -0.3673(5) 0.2329(4) 0.4622(3)
H15 H -0.4494 0.1976 0.5141
H16 H -0.3108 0.3196 0.4808
C12 C -0.4635(6) 0.2849(4) 0.3669(3)
H17 H -0.3809 0.3016 0.3128
H18 H -0.5369 0.2038 0.3551
C13 C -0.0317(5) 0.6575(4) 0.3751(3)
C14 C 0.5338(5) 0.3451(4) 0.1240(3)
H19 H 1.135(7) 0.602(5) 0.082(4)
H20 H 1.012(7) 0.515(5) 0.133(4)
H21 H -0.502(8) 0.510(6) 0.381(4)
H22 H -0.653(8) 0.428(6) 0.433(4)
Zn1_2 Zn 1.25014(7) 0.50077(5) 0.24965(4)
Zn1_3 Zn -0.74986(7) 0.50077(5) 0.24965(4)
N3_2 N 0.0714(5) 0.5771(4) 0.1325(3)
N6_2 N 0.4299(4) 0.4258(3) 0.3673(3)
H19_2 H 0.135(7) 0.602(5) 0.082(4)
H20_2 H 0.012(7) 0.515(5) 0.133(4)
H21_2 H 0.498(8) 0.510(6) 0.381(4)
H22_2 H 0.347(8) 0.428(6) 0.433(4)
loop_
_geom_bond_atom_site_label_1
_geom_bond_atom_site_label_2
_geom_bond_site_symmetry_1
_geom_bond_site_symmetry_2
Zn1 N1 1_555 1_555
S1 C13 1_555 1_555
S2 C14 1_555 1_555
N1 C1 1_555 1_555
N2 C1 1_555 1_555
N3 C6 1_555 1_555
N4 Zn1 1_555 1_555
N5 C7 1_555 1_555
N6 C12 1_555 1_555
N7 Zn1 1_555 1_555
N8 Zn1 1_555 1_555
C1 H1 1_555 1_555
C2 N1 1_555 1_555
H2 C2 1_555 1_555
C3 N2 1_555 1_555
H3 C3 1_555 1_555
C4 N2 1_555 1_555
H4 C4 1_555 1_555
H5 C4 1_555 1_555
C5 C4 1_555 1_555
H6 C5 1_555 1_555
H7 C5 1_555 1_555
C6 C5 1_555 1_555
H8 C6 1_555 1_555
H9 C6 1_555 1_555
C7 N4 1_555 1_555
H10 C7 1_555 1_555
C8 N4 1_555 1_555
H11 C8 1_555 1_555
C9 N5 1_555 1_555
H12 C9 1_555 1_555
C10 N5 1_555 1_555
H13 C10 1_555 1_555
H14 C10 1_555 1_555
C11 C10 1_555 1_555
H15 C11 1_555 1_555
H16 C11 1_555 1_555
C12 C11 1_555 1_555
H17 C12 1_555 1_555
H18 C12 1_555 1_555
C13 N7 1_555 1_555
C14 N8 1_555 1_555
H19 N3 1_555 1_555
H20 N3 1_555 1_555
H21 N6 1_555 1_555
H22 N6 1_555 1_555
Zn1_2 N3 1_555 1_555
Zn1_3 N6 1_555 1_555
N3_2 Zn1 1_555 1_555
N6_2 Zn1 1_555 1_555
H19_2 N3_2 1_555 1_555
H20_2 N3_2 1_555 1_555
H21_2 N6_2 1_555 1_555
H22_2 N6_2 1_555 1_555
C2 C3 1_555 1_555
C8 C9 1_555 1_555

#END
