
#######################################################################
#
#                 Cambridge Crystallographic Data Centre
#                                CCDC 
#
#######################################################################
#
# If this CIF has been generated from an entry in the Cambridge 
# Structural Database, then it will include bibliographic, chemical, 
# crystal, experimental, refinement or atomic coordinate data resulting 
# from the CCDC's data processing and validation procedures.
#
#######################################################################

data_NECWOJ
_symmetry_cell_setting           monoclinic
_symmetry_space_group_name_H-M   'P 21/n'
_symmetry_Int_Tables_number      14
_space_group_name_Hall           '-P 2yn'
loop_
_symmetry_equiv_pos_site_id
_symmetry_equiv_pos_as_xyz
1 x,y,z
2 1/2-x,1/2+y,1/2-z
3 -x,-y,-z
4 1/2+x,1/2-y,1/2+z
_cell_length_a                   13.3546(3)
_cell_length_b                   11.6352(6)
_cell_length_c                   23.1007(14)
_cell_angle_alpha                90
_cell_angle_beta                 92.171(3)
_cell_angle_gamma                90
_cell_volume                     3586.89
loop_
_atom_site_label
_atom_site_type_symbol
_atom_site_fract_x
_atom_site_fract_y
_atom_site_fract_z
Cu1 Cu 0.676487(11) 0.568435(13) 0.292817(6)
P1 P 0.50751(2) 0.58153(3) 0.271578(13)
C1 C 0.46783(9) 0.58615(11) 0.19343(5)
H1 H 0.3931 0.5796 0.191
C2 C 0.49582(10) 0.69888(11) 0.16316(5)
H2 H 0.466 0.7646 0.1836
H3 H 0.5695 0.7083 0.1652
C3 C 0.45840(10) 0.69945(12) 0.09962(5)
H4 H 0.3842 0.6975 0.0978
H5 H 0.48 0.7714 0.081
C4 C 0.49849(11) 0.59690(13) 0.06661(6)
H6 H 0.4692 0.5968 0.0266
H7 H 0.5722 0.6035 0.0644
C5 C 0.47248(11) 0.48472(13) 0.09651(6)
H8 H 0.5028 0.4197 0.0758
H9 H 0.3989 0.4741 0.0947
C6 C 0.51025(11) 0.48372(12) 0.15986(6)
H10 H 0.5844 0.4874 0.1616
H11 H 0.4899 0.411 0.1783
C7 C 0.43202(8) 0.46099(11) 0.30071(5)
H12 H 0.4276 0.4778 0.343
C8 C 0.48390(9) 0.34274(11) 0.29790(6)
H13 H 0.4878 0.3186 0.257
H14 H 0.5531 0.3489 0.3145
C9 C 0.42635(9) 0.25258(12) 0.33133(6)
H15 H 0.4594 0.1769 0.3275
H16 H 0.4281 0.2732 0.3729
C10 C 0.31750(10) 0.24356(12) 0.30906(7)
H17 H 0.3153 0.2156 0.2685
H18 H 0.2814 0.1875 0.3329
C11 C 0.26624(9) 0.36057(12) 0.31187(6)
H19 H 0.263 0.3849 0.3528
H20 H 0.1968 0.3541 0.2957
C12 C 0.32271(9) 0.45174(11) 0.27788(6)
H21 H 0.2892 0.5271 0.2817
H22 H 0.3212 0.4309 0.2363
C13 C 0.44155(9) 0.71200(11) 0.29840(5)
H23 H 0.3856 0.7299 0.2698
C14 C 0.39578(10) 0.69965(11) 0.35820(5)
H24 H 0.3482 0.6343 0.3575
H25 H 0.4496 0.683 0.3877
C15 C 0.34077(10) 0.80988(13) 0.37483(6)
H26 H 0.2842 0.8236 0.3467
H27 H 0.3129 0.8002 0.4136
C16 C 0.41065(12) 0.91362(12) 0.37556(6)
H28 H 0.4623 0.9044 0.4071
H29 H 0.3718 0.984 0.3835
C17 C 0.46162(11) 0.92675(12) 0.31774(6)
H30 H 0.4109 0.9487 0.2874
H31 H 0.5119 0.9892 0.321
C18 C 0.51327(9) 0.81568(11) 0.29985(5)
H32 H 0.5701 0.7997 0.3274
H33 H 0.5407 0.8261 0.261
P2 P 0.75160(2) 0.59522(3) 0.382996(13)
C19 C 0.88986(9) 0.61150(12) 0.38190(6)
H34 H 0.9008 0.6903 0.3661
C20 C 0.94644(9) 0.61062(14) 0.44090(6)
H35 H 0.9162 0.6681 0.4666
H36 H 0.9394 0.5341 0.459
C21 C 1.05783(10) 0.63778(16) 0.43535(7)
H37 H 1.0653 0.7186 0.4228
H38 H 1.0926 0.6294 0.4737
C22 C 1.10627(10) 0.56008(15) 0.39271(7)
H39 H 1.1071 0.4804 0.4078
H40 H 1.1765 0.5845 0.388
C23 C 1.04999(10) 0.56289(15) 0.33380(7)
H41 H 1.0815 0.5081 0.3072
H42 H 1.0548 0.6408 0.3169
C24 C 0.93899(10) 0.53104(13) 0.33968(6)
H43 H 0.9036 0.5362 0.3013
H44 H 0.9338 0.4509 0.3536
C25 C 0.70856(9) 0.72657(11) 0.42190(5)
H45 H 0.635 0.7319 0.4125
C26 C 0.71851(10) 0.73061(11) 0.48863(5)
H46 H 0.6852 0.6626 0.505
H47 H 0.7903 0.7281 0.501
C27 C 0.67078(11) 0.84042(12) 0.51183(6)
H48 H 0.5978 0.8393 0.5025
H49 H 0.6805 0.8428 0.5545
C28 C 0.71690(11) 0.94810(12) 0.48562(6)
H50 H 0.6826 1.0172 0.5001
H51 H 0.7886 0.9531 0.498
C29 C 0.70727(11) 0.94511(11) 0.41954(6)
H52 H 0.7411 1.0131 0.4035
H53 H 0.6356 0.9485 0.4071
C30 C 0.75410(10) 0.83560(11) 0.39594(6)
H54 H 0.8272 0.8366 0.4049
H55 H 0.7438 0.8338 0.3533
C31 C 0.72429(9) 0.47859(11) 0.43485(5)
H56 H 0.7505 0.5016 0.4743
C32 C 0.60913(9) 0.46741(11) 0.43600(6)
H57 H 0.5808 0.5406 0.4498
H58 H 0.5821 0.454 0.3961
C33 C 0.57551(10) 0.37003(12) 0.47479(6)
H59 H 0.5016 0.3635 0.4718
H60 H 0.5951 0.3879 0.5156
C34 C 0.62209(10) 0.25592(12) 0.45788(6)
H61 H 0.5971 0.2338 0.4186
H62 H 0.6023 0.1953 0.4852
C35 C 0.73614(9) 0.26616(11) 0.45895(6)
H63 H 0.7653 0.1923 0.4466
H64 H 0.7611 0.2819 0.4991
C36 C 0.77066(9) 0.36224(11) 0.41906(6)
H65 H 0.7512 0.3429 0.3784
H66 H 0.8446 0.3682 0.4221
S1 S 0.77180(2) 0.67120(3) 0.221843(15)
C37 C 0.77115(9) 0.81183(11) 0.23239(5)
N1 N 0.77528(8) 0.91106(9) 0.23648(5)
Cu1A Cu 0.823513(11) 1.068435(13) 0.207183(6)
N1A N 0.72472(8) 0.41106(9) 0.26352(5)
loop_
_geom_bond_atom_site_label_1
_geom_bond_atom_site_label_2
_geom_bond_site_symmetry_1
_geom_bond_site_symmetry_2
Cu1 P1 1_555 1_555
P1 C1 1_555 1_555
C1 H1 1_555 1_555
C2 C1 1_555 1_555
H2 C2 1_555 1_555
H3 C2 1_555 1_555
C3 C2 1_555 1_555
H4 C3 1_555 1_555
H5 C3 1_555 1_555
C4 C3 1_555 1_555
H6 C4 1_555 1_555
H7 C4 1_555 1_555
C5 C4 1_555 1_555
H8 C5 1_555 1_555
H9 C5 1_555 1_555
C6 C1 1_555 1_555
H10 C6 1_555 1_555
H11 C6 1_555 1_555
C7 P1 1_555 1_555
H12 C7 1_555 1_555
C8 C7 1_555 1_555
H13 C8 1_555 1_555
H14 C8 1_555 1_555
C9 C8 1_555 1_555
H15 C9 1_555 1_555
H16 C9 1_555 1_555
C10 C9 1_555 1_555
H17 C10 1_555 1_555
H18 C10 1_555 1_555
C11 C10 1_555 1_555
H19 C11 1_555 1_555
H20 C11 1_555 1_555
C12 C7 1_555 1_555
H21 C12 1_555 1_555
H22 C12 1_555 1_555
C13 P1 1_555 1_555
H23 C13 1_555 1_555
C14 C13 1_555 1_555
H24 C14 1_555 1_555
H25 C14 1_555 1_555
C15 C14 1_555 1_555
H26 C15 1_555 1_555
H27 C15 1_555 1_555
C16 C15 1_555 1_555
H28 C16 1_555 1_555
H29 C16 1_555 1_555
C17 C16 1_555 1_555
H30 C17 1_555 1_555
H31 C17 1_555 1_555
C18 C13 1_555 1_555
H32 C18 1_555 1_555
H33 C18 1_555 1_555
P2 Cu1 1_555 1_555
C19 P2 1_555 1_555
H34 C19 1_555 1_555
C20 C19 1_555 1_555
H35 C20 1_555 1_555
H36 C20 1_555 1_555
C21 C20 1_555 1_555
H37 C21 1_555 1_555
H38 C21 1_555 1_555
C22 C21 1_555 1_555
H39 C22 1_555 1_555
H40 C22 1_555 1_555
C23 C22 1_555 1_555
H41 C23 1_555 1_555
H42 C23 1_555 1_555
C24 C19 1_555 1_555
H43 C24 1_555 1_555
H44 C24 1_555 1_555
C25 P2 1_555 1_555
H45 C25 1_555 1_555
C26 C25 1_555 1_555
H46 C26 1_555 1_555
H47 C26 1_555 1_555
C27 C26 1_555 1_555
H48 C27 1_555 1_555
H49 C27 1_555 1_555
C28 C27 1_555 1_555
H50 C28 1_555 1_555
H51 C28 1_555 1_555
C29 C28 1_555 1_555
H52 C29 1_555 1_555
H53 C29 1_555 1_555
C30 C25 1_555 1_555
H54 C30 1_555 1_555
H55 C30 1_555 1_555
C31 P2 1_555 1_555
H56 C31 1_555 1_555
C32 C31 1_555 1_555
H57 C32 1_555 1_555
H58 C32 1_555 1_555
C33 C32 1_555 1_555
H59 C33 1_555 1_555
H60 C33 1_555 1_555
C34 C33 1_555 1_555
H61 C34 1_555 1_555
H62 C34 1_555 1_555
C35 C34 1_555 1_555
H63 C35 1_555 1_555
H64 C35 1_555 1_555
C36 C31 1_555 1_555
H65 C36 1_555 1_555
H66 C36 1_555 1_555
S1 Cu1 1_555 1_555
C37 S1 1_555 1_555
N1 C37 1_555 1_555
Cu1A N1 1_555 1_555
N1A Cu1 1_555 1_555
C5 C6 1_555 1_555
C11 C12 1_555 1_555
C17 C18 1_555 1_555
C23 C24 1_555 1_555
C29 C30 1_555 1_555
C35 C36 1_555 1_555

#END
