
#######################################################################
#
#                 Cambridge Crystallographic Data Centre
#                                CCDC 
#
#######################################################################
#
# If this CIF has been generated from an entry in the Cambridge 
# Structural Database, then it will include bibliographic, chemical, 
# crystal, experimental, refinement or atomic coordinate data resulting 
# from the CCDC's data processing and validation procedures.
#
#######################################################################

data_NEDBEE
_symmetry_cell_setting           monoclinic
_symmetry_space_group_name_H-M   'C 2/c'
_symmetry_Int_Tables_number      15
_space_group_name_Hall           '-C 2yn'
loop_
_symmetry_equiv_pos_site_id
_symmetry_equiv_pos_as_xyz
1 x,y,z
2 1/2+x,1/2+y,z
3 -x,y,1/2-z
4 1/2-x,1/2+y,1/2-z
5 -x,-y,-z
6 1/2-x,1/2-y,-z
7 x,-y,1/2+z
8 1/2+x,1/2-y,1/2+z
_cell_length_a                   28.7440(18)
_cell_length_b                   10.2680(8)
_cell_length_c                   14.7940(12)
_cell_angle_alpha                90
_cell_angle_beta                 113.535(5)
_cell_angle_gamma                90
_cell_volume                     4003.14
loop_
_atom_site_label
_atom_site_type_symbol
_atom_site_fract_x
_atom_site_fract_y
_atom_site_fract_z
Ag1 Ag 0.15614(2) 0.50895(5) 0.05991(4)
N1 N 0.08538(18) 0.6118(5) 0.0596(4)
N2 N 0.13951(19) 0.4250(5) 0.1952(3)
N3 N 0.26805(18) 0.0541(5) 0.4522(3)
N4 N 0.3389(2) -0.1197(5) 0.5677(4)
C1 C 0.0600(3) 0.7081(7) 0.0014(5)
H1 H 0.0731 0.7472 -0.0425
C2 C 0.0142(3) 0.7573(9) -0.0031(6)
H2 H -0.0010 0.8291 -0.0464
C3 C -0.0054(3) 0.6992(9) 0.0575(7)
H3 H -0.0380 0.7231 0.0559
C4 C 0.0206(3) 0.5997(8) 0.1199(6)
H4 H 0.0078 0.5620 0.1648
C5 C 0.0663(2) 0.5602(7) 0.1215(5)
C6 C 0.0966(3) 0.4611(7) 0.1908(5)
H5 H 0.0839 0.4239 0.2360
C7 C 0.1691(2) 0.3319(6) 0.2644(4)
C8 C 0.1497(2) 0.2371(7) 0.3062(5)
H6 H 0.1140 0.2348 0.2909
C9 C 0.1809(2) 0.1451(7) 0.3692(5)
H7 H 0.1670 0.0797 0.3977
C10 C 0.2325(2) 0.1468(6) 0.3921(4)
C11 C 0.2524(2) 0.2425(6) 0.3513(4)
H8 H 0.2880 0.2464 0.3661
C12 C 0.2210(2) 0.3336(7) 0.2887(5)
H9 H 0.2342 0.4018 0.2613
C13 C 0.2581(2) -0.0164(6) 0.5136(5)
H10 H 0.2259 -0.0091 0.5183
C14 C 0.2942(2) -0.1129(6) 0.5750(4)
C15 C 0.2822(3) -0.1922(7) 0.6379(5)
H11 H 0.2498 -0.1857 0.6424
C16 C 0.3169(3) -0.2805(7) 0.6952(5)
H12 H 0.3089 -0.3366 0.7388
C17 C 0.3635(3) -0.2891(7) 0.6891(5)
H13 H 0.3873 -0.3530 0.7289
C18 C 0.3722(3) -0.2047(7) 0.6242(5)
H14 H 0.4051 -0.2063 0.6220
Ag1C Ag 0.34386(2) 1.00895(5) 0.44009(4)
Ag1C_2 Ag 0.34386(2) 0.00895(5) 0.44009(4)
N1C N 0.41462(18) 1.1118(5) 0.4404(4)
N2C N 0.36049(19) 0.9250(5) 0.3048(3)
N3C N 0.23195(18) 0.5541(5) 0.0478(3)
N3_2 N 0.26805(18) 1.0541(5) 0.4522(3)
N4C N 0.1611(2) 0.3803(5) -0.0677(4)
N4_2 N 0.3389(2) 0.8803(5) 0.5677(4)
C1C C 0.4400(3) 1.2081(7) 0.4986(5)
H1C H 0.4269 1.2472 0.5425
C2C C 0.4858(3) 1.2573(9) 0.5031(6)
H2C H 0.5010 1.3291 0.5464
C3C C 0.5054(3) 1.1992(9) 0.4425(7)
H3C H 0.5380 1.2231 0.4441
C4C C 0.4794(3) 1.0997(8) 0.3801(6)
H4C H 0.4922 1.0620 0.3352
C5C C 0.4337(2) 1.0602(7) 0.3785(5)
C6C C 0.4034(3) 0.9611(7) 0.3092(5)
H5C H 0.4161 0.9239 0.2640
C7C C 0.3309(2) 0.8319(6) 0.2356(4)
C8C C 0.3503(2) 0.7371(7) 0.1938(5)
H6C H 0.3860 0.7348 0.2091
C9C C 0.3191(2) 0.6451(7) 0.1308(5)
H7C H 0.3330 0.5797 0.1023
C10C C 0.2675(2) 0.6468(6) 0.1079(4)
C11C C 0.2476(2) 0.7425(6) 0.1487(4)
H8C H 0.2120 0.7464 0.1339
C12C C 0.2790(2) 0.8336(7) 0.2113(5)
H9C H 0.2658 0.9018 0.2387
C13C C 0.2419(2) 0.4836(6) -0.0136(5)
H10C H 0.2741 0.4909 -0.0183
C14C C 0.2058(2) 0.3871(6) -0.0750(4)
C15C C 0.2178(3) 0.3078(7) -0.1379(5)
H11C H 0.2502 0.3143 -0.1424
C16C C 0.1831(3) 0.2195(7) -0.1952(5)
H12C H 0.1911 0.1634 -0.2388
C17C C 0.1365(3) 0.2109(7) -0.1891(5)
H13C H 0.1127 0.1470 -0.2289
C18C C 0.1278(3) 0.2953(7) -0.1242(5)
H14C H 0.0949 0.2937 -0.1220
Cl1 Cl 0.11943(7) 0.0417(2) 0.06319(13)
O1 O 0.0893(3) 0.0183(7) 0.1167(5)
O2 O 0.1300(4) 0.1746(7) 0.0673(5)
O3 O 0.0926(3) 0.0119(6) -0.0380(5)
O4 O 0.1632(3) -0.0228(10) 0.1043(8)
N5 N 0.0000 0.2761(18) 0.2500
C19 C 0.0000 0.028(2) 0.2500
H15 H 0.0126 -0.0189 0.3113
C20 C 0.0000 0.167(3) 0.2500
H15B H -0.0126 -0.0189 0.1887
loop_
_geom_bond_atom_site_label_1
_geom_bond_atom_site_label_2
_geom_bond_site_symmetry_1
_geom_bond_site_symmetry_2
Ag1 N1 1_555 1_555
Cl1 O1 1_555 1_555
O2 Cl1 1_555 1_555
O3 Cl1 1_555 1_555
O4 Cl1 1_555 1_555
N1 C1 1_555 1_555
N2 Ag1 1_555 1_555
N3 C10 1_555 1_555
N4 C14 1_555 1_555
N5 C20 1_555 1_555
C1 H1 1_555 1_555
C2 C1 1_555 1_555
H2 C2 1_555 1_555
C3 C2 1_555 1_555
H3 C3 1_555 1_555
C4 C3 1_555 1_555
H4 C4 1_555 1_555
C5 N1 1_555 1_555
C6 N2 1_555 1_555
H5 C6 1_555 1_555
C7 N2 1_555 1_555
C8 C7 1_555 1_555
H6 C8 1_555 1_555
C9 C8 1_555 1_555
H7 C9 1_555 1_555
C10 C9 1_555 1_555
C11 C10 1_555 1_555
H8 C11 1_555 1_555
C12 C7 1_555 1_555
H9 C12 1_555 1_555
C13 N3 1_555 1_555
H10 C13 1_555 1_555
C14 C13 1_555 1_555
C15 C14 1_555 1_555
H11 C15 1_555 1_555
C16 C15 1_555 1_555
H12 C16 1_555 1_555
C17 C16 1_555 1_555
H13 C17 1_555 1_555
C18 N4 1_555 1_555
H14 C18 1_555 1_555
C19 H15 1_555 1_555
C20 C19 1_555 1_555
Ag1C N1C 1_555 1_555
Ag1C_2 N3 1_555 1_555
N1C C1C 1_555 1_555
N2C Ag1C 1_555 1_555
N3C Ag1 1_555 1_555
N3_2 Ag1C 1_555 1_555
N4C Ag1 1_555 1_555
N4_2 Ag1C 1_555 1_555
C1C H1C 1_555 1_555
C2C C1C 1_555 1_555
H2C C2C 1_555 1_555
C3C C2C 1_555 1_555
H3C C3C 1_555 1_555
C4C C3C 1_555 1_555
H4C C4C 1_555 1_555
C5C N1C 1_555 1_555
C6C N2C 1_555 1_555
H5C C6C 1_555 1_555
C7C N2C 1_555 1_555
C8C C7C 1_555 1_555
H6C C8C 1_555 1_555
C9C C8C 1_555 1_555
H7C C9C 1_555 1_555
C10C N3C 1_555 1_555
C11C C10C 1_555 1_555
H8C C11C 1_555 1_555
C12C C7C 1_555 1_555
H9C C12C 1_555 1_555
C13C N3C 1_555 1_555
H10C C13C 1_555 1_555
C14C N4C 1_555 1_555
C15C C14C 1_555 1_555
H11C C15C 1_555 1_555
C16C C15C 1_555 1_555
H12C C16C 1_555 1_555
C17C C16C 1_555 1_555
H13C C17C 1_555 1_555
C18C N4C 1_555 1_555
H14C C18C 1_555 1_555
H15B C19 1_555 1_555
N4 Ag1C_2 1_555 1_555
C4 C5 1_555 1_555
C5 C6 1_555 1_555
C11 C12 1_555 1_555
C17 C18 1_555 1_555
C4C C5C 1_555 1_555
C5C C6C 1_555 1_555
C9C C10C 1_555 1_555
C11C C12C 1_555 1_555
C13C C14C 1_555 1_555
C17C C18C 1_555 1_555

#END
