
#######################################################################
#
#                 Cambridge Crystallographic Data Centre
#                                CCDC 
#
#######################################################################
#
# If this CIF has been generated from an entry in the Cambridge 
# Structural Database, then it will include bibliographic, chemical, 
# crystal, experimental, refinement or atomic coordinate data resulting 
# from the CCDC's data processing and validation procedures.
#
#######################################################################

data_NEDCAC
_symmetry_cell_setting           monoclinic
_symmetry_space_group_name_H-M   'P 21/c'
_symmetry_Int_Tables_number      14
_space_group_name_Hall           '-P 2ybc'
loop_
_symmetry_equiv_pos_site_id
_symmetry_equiv_pos_as_xyz
1 x,y,z
2 -x,1/2+y,1/2-z
3 -x,-y,-z
4 x,1/2-y,1/2+z
_cell_length_a                   8.0301(9)
_cell_length_b                   21.012(2)
_cell_length_c                   17.3295(17)
_cell_angle_alpha                90
_cell_angle_beta                 112.532(4)
_cell_angle_gamma                90
_cell_volume                     2700.78
loop_
_atom_site_label
_atom_site_type_symbol
_atom_site_fract_x
_atom_site_fract_y
_atom_site_fract_z
C1 C 1.1941(5) 0.93813(17) 0.1374(2)
C2 C 1.3029(5) 0.87707(18) 0.1611(2)
C3 C 1.2356(6) 0.82524(18) 0.1932(3)
H1 H 1.1244 0.8292 0.1979
C4 C 1.3299(6) 0.7697(2) 0.2175(3)
H2 H 1.2811 0.7355 0.2358
C5 C 1.4973(5) 0.76530(19) 0.2146(2)
C6 C 1.5756(5) 0.81441(18) 0.1860(2)
C7 C 1.4667(5) 0.8720(2) 0.1554(3)
H3 H 1.5096 0.9050 0.1323
C8 C 1.6032(6) 0.7063(2) 0.2419(2)
H4 H 1.5552 0.6713 0.2590
C9 C 1.7709(5) 0.70409(19) 0.2417(2)
C10 C 1.8419(6) 0.7562(2) 0.2134(3)
H5 H 1.9577 0.7537 0.2137
C11 C 1.7430(6) 0.8108(2) 0.1855(3)
H6 H 1.7907 0.8449 0.1664
C12 C 1.8894(5) 0.64615(18) 0.2721(2)
C13 C 0.6899(5) 1.02814(17) 0.2417(2)
H7 H 0.6303 1.0565 0.1988
C14 C 0.6035(5) 1.00823(17) 0.2921(2)
H8 H 0.4869 1.0221 0.2818
C15 C 0.6892(5) 0.96785(16) 0.3577(2)
C16 C 0.8625(5) 0.9499(2) 0.3694(3)
H9 H 0.9282 0.9240 0.4142
C17 C 0.9379(5) 0.9704(2) 0.3151(3)
H10 H 1.0536 0.9565 0.3234
C18 C 0.6038(4) 0.94397(16) 0.4145(2)
C19 C 0.4345(5) 0.91725(17) 0.3822(2)
H11 H 0.3724 0.9158 0.3246
C20 C 0.3547(5) 0.89245(18) 0.4337(2)
H12 H 0.2414 0.8736 0.4109
C21 C 0.4443(5) 0.89596(17) 0.5183(2)
C22 C 0.6125(4) 0.92306(16) 0.5528(2)
H13 H 0.6726 0.9256 0.6104
C23 C 0.6908(4) 0.94646(17) 0.5003(2)
H14 H 0.8053 0.9644 0.5233
C24 C 0.2271(5) 0.83474(18) 0.5487(2)
C25 C 0.0789(5) 0.84915(18) 0.5655(2)
H15 H 0.0744 0.8869 0.5928
C26 C -0.0643(5) 0.80729(18) 0.5418(2)
H16 H -0.1650 0.8173 0.5535
C27 C -0.0623(5) 0.75067(17) 0.5012(2)
C28 C 0.0927(5) 0.7359(2) 0.4880(2)
H17 H 0.0998 0.6975 0.4627
C29 C 0.2370(5) 0.7774(2) 0.5122(3)
H18 H 0.3411 0.7666 0.5038
C30 C -0.2174(5) 0.70690(17) 0.4765(2)
C31 C -0.3929(5) 0.72869(19) 0.4419(3)
H19 H -0.4163 0.7718 0.4312
C32 C -0.5325(5) 0.6861(2) 0.4233(3)
H20 H -0.6494 0.7018 0.3988
C33 C -0.3440(6) 0.6038(2) 0.4678(3)
H21 H -0.3247 0.5603 0.4766
C34 C -0.1959(5) 0.64227(18) 0.4866(3)
H22 H -0.0809 0.6246 0.5062
N1 N -0.5122(4) 0.62438(15) 0.4380(2)
N2 N 0.8547(4) 1.00893(13) 0.25111(17)
O1 O 1.1987(4) 0.97278(12) 0.08149(17)
O2 O 1.1015(3) 0.94989(11) 0.18113(15)
O3 O 1.8179(3) 0.59427(12) 0.28168(16)
O4 O 2.0514(4) 0.65113(13) 0.2864(2)
O5 O 0.7905(3) 1.05018(12) 0.06650(15)
O6 O 0.3711(3) 0.87649(12) 0.57500(15)
Zn1 Zn 0.98569(5) 1.033235(18) 0.17360(2)
H23 H 0.6943 1.0792 0.0594
H24 H 0.7898 1.0433 0.0152
O3A O 1.1821(3) 1.09427(12) 0.21832(16)
Zn1A Zn 2.01431(5) 0.533235(18) 0.32640(2)
loop_
_geom_bond_atom_site_label_1
_geom_bond_atom_site_label_2
_geom_bond_site_symmetry_1
_geom_bond_site_symmetry_2
C1 C2 1_555 1_555
C2 C3 1_555 1_555
C3 H1 1_555 1_555
C4 C3 1_555 1_555
H2 C4 1_555 1_555
C5 C4 1_555 1_555
C6 C5 1_555 1_555
C7 C2 1_555 1_555
H3 C7 1_555 1_555
C8 C5 1_555 1_555
H4 C8 1_555 1_555
C9 C8 1_555 1_555
C10 C9 1_555 1_555
H5 C10 1_555 1_555
C11 C6 1_555 1_555
H6 C11 1_555 1_555
C12 C9 1_555 1_555
C13 H7 1_555 1_555
C14 C13 1_555 1_555
H8 C14 1_555 1_555
C15 C14 1_555 1_555
C16 C15 1_555 1_555
H9 C16 1_555 1_555
C17 C16 1_555 1_555
H10 C17 1_555 1_555
C18 C15 1_555 1_555
C19 C18 1_555 1_555
H11 C19 1_555 1_555
C20 C19 1_555 1_555
H12 C20 1_555 1_555
C21 C20 1_555 1_555
C22 C21 1_555 1_555
H13 C22 1_555 1_555
C23 C18 1_555 1_555
H14 C23 1_555 1_555
C24 C25 1_555 1_555
C25 H15 1_555 1_555
C26 C25 1_555 1_555
H16 C26 1_555 1_555
C27 C26 1_555 1_555
C28 C27 1_555 1_555
H17 C28 1_555 1_555
C29 C24 1_555 1_555
H18 C29 1_555 1_555
C30 C27 1_555 1_555
C31 C30 1_555 1_555
H19 C31 1_555 1_555
C32 C31 1_555 1_555
H20 C32 1_555 1_555
C33 H21 1_555 1_555
C34 C30 1_555 1_555
H22 C34 1_555 1_555
N1 C32 1_555 1_555
N2 C13 1_555 1_555
O1 C1 1_555 1_555
O2 C1 1_555 1_555
O3 C12 1_555 1_555
O4 C12 1_555 1_555
O5 Zn1 1_555 1_555
O6 C21 1_555 1_555
Zn1 N2 1_555 1_555
H23 O5 1_555 1_555
H24 O5 1_555 1_555
O3A Zn1 1_555 1_555
Zn1A O3 1_555 1_555
C6 C7 1_555 1_555
C10 C11 1_555 1_555
C17 N2 1_555 1_555
C22 C23 1_555 1_555
C24 O6 1_555 1_555
C28 C29 1_555 1_555
C33 C34 1_555 1_555
C33 N1 1_555 1_555
O2 Zn1 1_555 1_555

#END
