
#######################################################################
#
#                 Cambridge Crystallographic Data Centre
#                                CCDC 
#
#######################################################################
#
# If this CIF has been generated from an entry in the Cambridge 
# Structural Database, then it will include bibliographic, chemical, 
# crystal, experimental, refinement or atomic coordinate data resulting 
# from the CCDC's data processing and validation procedures.
#
#######################################################################

data_NEDHIN
_symmetry_cell_setting           monoclinic
_symmetry_space_group_name_H-M   'P 21/c'
_symmetry_Int_Tables_number      14
_space_group_name_Hall           '-P 2ybc'
loop_
_symmetry_equiv_pos_site_id
_symmetry_equiv_pos_as_xyz
1 x,y,z
2 -x,1/2+y,1/2-z
3 -x,-y,-z
4 x,1/2-y,1/2+z
_cell_length_a                   8.5214(7)
_cell_length_b                   15.3737(18)
_cell_length_c                   9.9845(5)
_cell_angle_alpha                90
_cell_angle_beta                 100.905(5)
_cell_angle_gamma                90
_cell_volume                     1284.4
loop_
_atom_site_label
_atom_site_type_symbol
_atom_site_fract_x
_atom_site_fract_y
_atom_site_fract_z
Cu1 Cu -0.15672(4) 0.557320(19) 0.27803(3)
O1 O -0.1281(3) 0.44150(11) 0.3420(2)
N1 N -0.2491(3) 0.59617(14) 0.4287(2)
C1 C -0.1743(3) 0.40882(18) 0.4492(3)
O2 O -0.1799(2) 0.67730(12) 0.21878(18)
C2 C -0.1456(3) 0.31985(19) 0.4784(3)
H1 H -0.0867 0.2874 0.4286
N2 N -0.0552(2) 0.52470(14) 0.1165(2)
O3 O -0.2651(3) 0.80645(12) 0.2745(2)
C3 C -0.1925(4) 0.2805(2) 0.5877(3)
H2 H -0.1652 0.2180 0.6067
C4 C -0.2719(4) 0.3276(2) 0.6740(3)
H3 H -0.3073 0.2964 0.7534
O4 O 0.4240(2) 0.47084(14) -0.1293(2)
C5 C -0.3021(4) 0.4134(2) 0.6482(3)
H4 H -0.3597 0.4478 0.7048
C6 C -0.2537(3) 0.45676(17) 0.5387(3)
C7 C -0.2852(4) 0.54853(17) 0.5236(3)
H5 H -0.3384 0.5752 0.5934
C8 C -0.2862(4) 0.68884(17) 0.4229(3)
H6 H -0.2324 0.7212 0.5035
H7 H -0.3918 0.6984 0.4252
C9 C -0.2409(3) 0.72877(17) 0.2959(3)
C10 C -0.0755(3) 0.57500(18) 0.0054(3)
H8 H -0.1368 0.6239 0.0040
C11 C 0.0214(3) 0.44943(17) 0.1106(3)
H9 H 0.0347 0.4120 0.1895
C12 C 0.5194(4) 0.4139(2) -0.0361(3)
H10 H 0.6343 0.4155 -0.0546
H11 H 0.4796 0.3563 -0.0454
C13 C 0.5218(4) 0.4414(2) 0.1086(3)
H12 H 0.4136 0.4381 0.1357
H13 H 0.6007 0.3990 0.1629
C11B C -0.0214(3) 0.55057(17) -0.1106(3)
N2B N 0.0552(2) 0.47530(14) -0.1165(2)
Cu1B Cu 0.15672(4) 0.442680(19) -0.27803(3)
O1B O 0.1281(3) 0.55850(11) -0.3420(2)
C1B C 0.1743(3) 0.59118(18) -0.4492(3)
C2B C 0.1456(3) 0.68015(19) -0.4784(3)
H1B H 0.0867 0.7126 -0.4286
C3B C 0.1925(4) 0.7195(2) -0.5877(3)
H2B H 0.1652 0.7820 -0.6067
C4B C 0.2719(4) 0.6724(2) -0.6740(3)
H3B H 0.3073 0.7036 -0.7534
C5B C 0.3021(4) 0.5866(2) -0.6482(3)
H4B H 0.3597 0.5522 -0.7048
C6B C 0.2537(3) 0.54324(17) -0.5387(3)
C7B C 0.2852(4) 0.45147(17) -0.5236(3)
N1B N 0.2491(3) 0.40383(14) -0.4287(2)
O2B O 0.1799(2) 0.32270(12) -0.21878(18)
C9B C 0.2409(3) 0.27123(17) -0.2959(3)
O3B O 0.2651(3) 0.19355(12) -0.2745(2)
C8B C 0.2862(4) 0.31116(17) -0.4229(3)
H6B H 0.2324 0.2788 -0.5035
H7B H 0.3918 0.3016 -0.4252
O4B O -0.4240(2) 0.52916(14) 0.1293(2)
O4B_2 O 0.5760(2) 0.52916(14) 0.1293(2)
Cu1_2 Cu 0.84328(4) 0.557320(19) 0.27803(3)
C12B C 0.4806(4) 0.5861(2) 0.0361(3)
C13B C 0.4782(4) 0.5586(2) -0.1086(3)
H5B H 0.3384 0.4248 -0.5934
C10B C 0.0755(3) 0.42500(18) -0.0054(3)
H9B H -0.0347 0.5880 -0.1895
H12B H 0.5864 0.5619 -0.1357
H13B H 0.3993 0.6010 -0.1629
H10B H 0.3657 0.5845 0.0546
H11B H 0.5204 0.6437 0.0454
H8B H 0.1368 0.3761 -0.0040
loop_
_geom_bond_atom_site_label_1
_geom_bond_atom_site_label_2
_geom_bond_site_symmetry_1
_geom_bond_site_symmetry_2
Cu1 O1 1_555 1_555
O1 C1 1_555 1_555
N1 Cu1 1_555 1_555
C1 C2 1_555 1_555
O2 Cu1 1_555 1_555
C2 H1 1_555 1_555
N2 Cu1 1_555 1_555
O3 C9 1_555 1_555
C3 C2 1_555 1_555
H2 C3 1_555 1_555
C4 C3 1_555 1_555
H3 C4 1_555 1_555
O4 C12 1_555 1_555
C5 C4 1_555 1_555
H4 C5 1_555 1_555
C6 C1 1_555 1_555
C7 N1 1_555 1_555
H5 C7 1_555 1_555
C8 N1 1_555 1_555
H6 C8 1_555 1_555
H7 C8 1_555 1_555
C9 O2 1_555 1_555
C10 N2 1_555 1_555
H8 C10 1_555 1_555
C11 N2 1_555 1_555
H9 C11 1_555 1_555
C12 H10 1_555 1_555
H11 C12 1_555 1_555
C13 C12 1_555 1_555
H12 C13 1_555 1_555
H13 C13 1_555 1_555
C11B C10 1_555 1_555
N2B C11B 1_555 1_555
Cu1B O4 1_555 1_555
O1B Cu1B 1_555 1_555
C1B O1B 1_555 1_555
C2B C1B 1_555 1_555
H1B C2B 1_555 1_555
C3B C2B 1_555 1_555
H2B C3B 1_555 1_555
C4B C3B 1_555 1_555
H3B C4B 1_555 1_555
C5B C4B 1_555 1_555
H4B C5B 1_555 1_555
C6B C1B 1_555 1_555
C7B C6B 1_555 1_555
N1B Cu1B 1_555 1_555
O2B Cu1B 1_555 1_555
C9B O2B 1_555 1_555
O3B C9B 1_555 1_555
C8B N1B 1_555 1_555
H6B C8B 1_555 1_555
H7B C8B 1_555 1_555
O4B Cu1 1_555 1_555
O4B_2 C13 1_555 1_555
Cu1_2 O4B_2 1_555 1_555
C12B O4B_2 1_555 1_555
C13B O4 1_555 1_555
H5B C7B 1_555 1_555
C10B C11 1_555 1_555
H9B C11B 1_555 1_555
H12B C13B 1_555 1_555
H13B C13B 1_555 1_555
H10B C12B 1_555 1_555
H11B C12B 1_555 1_555
H8B C10B 1_555 1_555
C5 C6 1_555 1_555
C6 C7 1_555 1_555
C8 C9 1_555 1_555
N2B Cu1B 1_555 1_555
N2B C10B 1_555 1_555
C5B C6B 1_555 1_555
C7B N1B 1_555 1_555
C9B C8B 1_555 1_555
C12B C13B 1_555 1_555

#END
