
#######################################################################
#
#                 Cambridge Crystallographic Data Centre
#                                CCDC 
#
#######################################################################
#
# If this CIF has been generated from an entry in the Cambridge 
# Structural Database, then it will include bibliographic, chemical, 
# crystal, experimental, refinement or atomic coordinate data resulting 
# from the CCDC's data processing and validation procedures.
#
#######################################################################

data_NEDKUD
_symmetry_cell_setting           monoclinic
_symmetry_space_group_name_H-M   'C 2/c'
_symmetry_Int_Tables_number      15
_space_group_name_Hall           '-C 2yn'
loop_
_symmetry_equiv_pos_site_id
_symmetry_equiv_pos_as_xyz
1 x,y,z
2 1/2+x,1/2+y,z
3 -x,y,1/2-z
4 1/2-x,1/2+y,1/2-z
5 -x,-y,-z
6 1/2-x,1/2-y,-z
7 x,-y,1/2+z
8 1/2+x,1/2-y,1/2+z
_cell_length_a                   31.110(8)
_cell_length_b                   11.544(3)
_cell_length_c                   22.583(6)
_cell_angle_alpha                90
_cell_angle_beta                 112.419(3)
_cell_angle_gamma                90
_cell_volume                     7497.34
loop_
_atom_site_label
_atom_site_type_symbol
_atom_site_fract_x
_atom_site_fract_y
_atom_site_fract_z
N1 N 0.2240(3) 0.2555(8) 0.4102(4)
H1 H 0.2483 0.2274 0.4034
H2 H 0.2112 0.3127 0.3827
H3 H 0.2032 0.1995 0.4048
C15 C 0.2398(4) 0.3012(10) 0.4778(5)
H14 H 0.2137 0.3337 0.4856
H15 H 0.2630 0.3612 0.4847
N1E N 0.2760(3) 0.2445(8) 0.5898(4)
H1E H 0.2517 0.2726 0.5966
H2E H 0.2888 0.1873 0.6173
H3E H 0.2968 0.3005 0.5952
C15E C 0.2602(4) 0.1988(10) 0.5222(5)
H14E H 0.2863 0.1663 0.5144
H15E H 0.2370 0.1388 0.5153
N2 N 0.1308(4) 0.5210(10) 0.7303(5)
H4 H 0.1606 0.5052 0.7529
H5 H 0.1130 0.4733 0.7420
H6 H 0.1248 0.5939 0.7375
N3 N 0.1446(3) 0.5515(9) 0.5731(5)
H7 H 0.1580 0.4844 0.5710
H8 H 0.1566 0.6076 0.5572
H9 H 0.1141 0.5468 0.5505
C16 C 0.1208(4) 0.5052(10) 0.6609(6)
H16 H 0.0888 0.5267 0.6362
H17 H 0.1245 0.4241 0.6526
C17 C 0.1527(4) 0.5774(10) 0.6392(5)
H18 H 0.1470 0.6590 0.6435
H19 H 0.1848 0.5609 0.6661
O28 O 0.1840(3) 0.4720(9) 0.3663(4)
H24 H 0.1949 0.5217 0.3978
H25 H 0.1895 0.5031 0.3353
O29 O 0.2123(3) 0.6542(10) 0.5414(5)
H26 H 0.1985 0.6294 0.5027
H27 H 0.2351 0.6327 0.5546
O30 O 0.5000 0.5758(11) 0.7500
H28 H 0.4936 0.6362 0.7251
H28B H 0.5064 0.6362 0.7749
O31 O 0.5554(4) 0.3382(11) 0.5958(7)
H29 H 0.5844 0.3316 0.5998
H30 H 0.5462 0.2663 0.5944
O32 O 0.0689(4) 0.3271(10) 0.7253(7)
H31 H 0.0712 0.3713 0.7582
H32 H 0.0806 0.2609 0.7438
O33 O 0.1300(5) 0.7573(12) 0.7700(8)
H33 H 0.1022 0.7670 0.7371
H34 H 0.1491 0.7811 0.7540
O34 O 0.5428(5) 0.3534(15) 0.7374(7)
H35 H 0.5431 0.3557 0.7761
H36 H 0.5614 0.4104 0.7371
Bi1 Bi 0.629473(12) 0.58191(3) 0.902112(16)
Bi2 Bi 0.709411(11) 0.50772(3) 0.691069(16)
Bi3 Bi 0.547126(12) 0.07801(3) 0.897018(16)
O1 O 0.5589(3) 0.4614(7) 0.8814(4)
O2 O 0.6462(3) 0.3750(7) 0.9148(4)
O3 O 0.5308(2) 0.2828(6) 0.8794(4)
O4 O 0.6180(2) 0.1980(6) 0.9152(4)
O5 O 0.5576(3) 0.7019(6) 0.8562(4)
O6 O 0.6445(3) 0.7848(7) 0.9152(4)
O7 O 0.5286(2) 0.8815(6) 0.8522(4)
O8 O 0.6164(2) 0.9585(6) 0.9217(4)
O9 O 0.6967(3) 0.5683(9) 0.8746(4)
O10 O 0.6107(3) 0.5913(8) 0.7818(4)
O11 O 0.7252(2) 0.5298(8) 0.8001(3)
O12 O 0.6372(2) 0.5291(7) 0.7094(3)
O13 O 0.6131(3) 0.6091(9) 0.9953(4)
O14 O 0.6995(3) 0.5823(7) 0.9950(4)
O15 O 0.6423(3) 0.5890(7) 1.1010(4)
O16 O 0.7290(3) 0.5791(7) 1.1017(3)
O17 O 0.6964(2) 0.3249(6) 0.7229(4)
O18 O 0.7798(2) 0.4084(6) 0.7387(4)
O19 O 0.7278(3) 0.1639(7) 0.7743(4)
O20 O 0.8133(3) 0.2386(7) 0.7815(4)
O21 O 0.6815(2) 0.6404(7) 0.5878(4)
O22 O 0.6848(3) 0.8338(7) 0.5823(4)
O23 O 0.5887(3) 0.8364(7) 0.5285(4)
O24 O 0.4834(3) 0.1059(7) 0.9400(3)
O25 O 0.4549(3) 0.0675(6) 1.0138(4)
O26 O 0.5589(2) 0.0847(7) 0.7994(3)
O27 O 0.5254(2) 0.0869(6) 0.6927(3)
N4 N 0.5352(4) 0.5511(11) 0.6336(6)
H10 H 0.5315 0.4809 0.6160
H11 H 0.5185 0.5564 0.6579
H12 H 0.5651 0.5625 0.6577
N5 N 0.5906(3) 0.6495(9) 0.5585(5)
H13 H 0.606(3) 0.601(9) 0.575(3)
C1 C 0.5632(3) 0.3541(8) 0.8871(4)
C2 C 0.6134(3) 0.3046(9) 0.9076(5)
C3 C 0.5609(3) 0.8102(8) 0.8674(5)
C4 C 0.6120(3) 0.8530(8) 0.9048(4)
C5 C 0.6925(4) 0.5518(11) 0.8171(4)
C6 C 0.6423(3) 0.5579(10) 0.7650(5)
C7 C 0.6465(4) 0.5965(9) 1.0487(5)
C8 C 0.6957(4) 0.5869(9) 1.0486(5)
C9 C 0.7315(4) 0.2588(10) 0.7523(5)
C10 C 0.7794(3) 0.3044(9) 0.7582(4)
C11 C 0.6639(3) 0.7409(9) 0.5766(5)
C12 C 0.6097(3) 0.7468(9) 0.5520(5)
C13 C 0.5243(3) 0.0861(8) 0.7480(5)
C14 C 0.4824(3) 0.0496(9) 0.9870(4)
C18 C 0.5400(4) 0.6293(11) 0.5353(6)
H20 H 0.5247 0.6841 0.5011
H21 H 0.5336 0.5523 0.5168
C19 C 0.5194(4) 0.6394(13) 0.5827(7)
H22 H 0.4859 0.6340 0.5613
H23 H 0.5266 0.7154 0.6023
Bi1_2 Bi 0.629473(12) 1.58191(3) 0.902112(16)
Bi1F Bi 0.629473(12) 0.41809(3) 0.402112(16)
Bi1_3 Bi 0.629473(12) -0.41809(3) 0.902112(16)
Bi1F_2 Bi 0.629473(12) 0.41809(3) 1.402112(16)
Bi2F Bi 0.709411(11) 0.49228(3) 1.191069(16)
Bi2C Bi 0.790589(11) 0.00772(3) 0.808931(16)
Bi2C_2 Bi 0.790589(11) 1.00772(3) 0.808931(16)
Bi3_2 Bi 0.547126(12) 1.07801(3) 0.897018(16)
Bi3D Bi 0.452874(12) -0.07801(3) 1.102982(16)
Bi3B Bi 0.452874(12) 0.07801(3) 0.602982(16)
O1_2 O 0.5589(3) 1.4614(7) 0.8814(4)
O2_2 O 0.6462(3) 1.3750(7) 0.9148(4)
O3_2 O 0.5308(2) 1.2828(6) 0.8794(4)
O4_2 O 0.6180(2) 1.1980(6) 0.9152(4)
O5_2 O 0.5576(3) -0.2981(6) 0.8562(4)
O5_3 O 0.5576(3) 1.7019(6) 0.8562(4)
O6_2 O 0.6445(3) -0.2152(7) 0.9152(4)
O6_3 O 0.6445(3) 1.7848(7) 0.9152(4)
O7_2 O 0.5286(2) -0.1185(6) 0.8522(4)
O8_2 O 0.6164(2) -0.0415(6) 0.9217(4)
O9F O 0.6967(3) 0.4317(9) 1.3746(4)
O9_2 O 0.6967(3) 1.5683(9) 0.8746(4)
O10F O 0.6107(3) 0.4087(8) 1.2818(4)
O10_2 O 0.6107(3) 1.5913(8) 0.7818(4)
O11F O 0.7252(2) 0.4702(8) 1.3001(3)
O12F O 0.6372(2) 0.4709(7) 1.2094(3)
O13F O 0.6131(3) 0.3909(9) 0.4953(4)
O13_2 O 0.6131(3) 1.6091(9) 0.9953(4)
O14F O 0.6995(3) 0.4177(7) 0.4950(4)
O14_2 O 0.6995(3) 1.5823(7) 0.9950(4)
O15F O 0.6423(3) 0.4110(7) 0.6010(4)
O16F O 0.7290(3) 0.4209(7) 0.6017(3)
O17C O 0.8036(2) 0.8249(6) 0.7771(4)
O17F O 0.6964(2) 0.6751(6) 1.2229(4)
O18C O 0.7202(2) 0.9084(6) 0.7613(4)
O18F O 0.7798(2) 0.5916(6) 1.2387(4)
O19C O 0.7722(3) 0.6639(7) 0.7257(4)
O19E O 0.7722(3) 0.3361(7) 1.2257(4)
O20C O 0.6867(3) 0.7386(7) 0.7185(4)
O20E O 0.6867(3) 0.2614(7) 1.2185(4)
O21F O 0.6815(2) 0.3596(7) 1.0878(4)
O22F O 0.6848(3) 0.1662(7) 1.0823(4)
O23F O 0.5887(3) 0.1636(7) 1.0285(4)
O24D O 0.5166(3) -0.1059(7) 1.0600(3)
O24_2 O 0.4834(3) 1.1059(7) 0.9400(3)
O25D O 0.5451(3) -0.0675(6) 0.9862(4)
O25D_2 O 0.5451(3) 0.9325(6) 0.9862(4)
O26B O 0.4411(2) 0.0847(7) 0.7006(3)
O26_2 O 0.5589(2) 1.0847(7) 0.7994(3)
O27B O 0.4746(2) 0.0869(6) 0.8073(3)
O27B_2 O 0.4746(2) 1.0869(6) 0.8073(3)
N4F N 0.5352(4) 0.4489(11) 1.1336(6)
H10F H 0.5315 0.5191 1.1160
H11F H 0.5185 0.4436 1.1579
H12F H 0.5651 0.4375 1.1577
N5F N 0.5906(3) 0.3505(9) 1.0585(5)
H13F H 0.606(3) 0.399(9) 1.075(3)
C1_2 C 0.5632(3) 1.3541(8) 0.8871(4)
C2_2 C 0.6134(3) 1.3046(9) 0.9076(5)
C3_2 C 0.5609(3) -0.1898(8) 0.8674(5)
C4_2 C 0.6120(3) -0.1470(8) 0.9048(4)
C5F C 0.6925(4) 0.4482(11) 1.3171(4)
C6F C 0.6423(3) 0.4421(10) 1.2650(5)
C7F C 0.6465(4) 0.4035(9) 0.5487(5)
C8F C 0.6957(4) 0.4131(9) 0.5486(5)
C9C C 0.7685(4) 0.7588(10) 0.7477(5)
C10C C 0.7206(3) 0.8044(9) 0.7418(4)
C11F C 0.6639(3) 0.2591(9) 1.0766(5)
C12F C 0.6097(3) 0.2532(9) 1.0520(5)
C13B C 0.4757(3) 0.0861(8) 0.7520(5)
C14D C 0.5176(3) -0.0496(9) 1.0130(4)
C18F C 0.5400(4) 0.3707(11) 1.0353(6)
H20F H 0.5247 0.3159 1.0011
H21F H 0.5336 0.4477 1.0168
C19F C 0.5194(4) 0.3606(13) 1.0827(7)
H22F H 0.4859 0.3660 1.0613
H23F H 0.5266 0.2846 1.1023
loop_
_geom_bond_atom_site_label_1
_geom_bond_atom_site_label_2
_geom_bond_site_symmetry_1
_geom_bond_site_symmetry_2
Bi1 O1 1_555 1_555
Bi2 O11 1_555 1_555
Bi3 O3 1_555 1_555
O1 C1 1_555 1_555
O2 Bi1 1_555 1_555
O3 C1 1_555 1_555
O4 Bi3 1_555 1_555
O5 Bi1 1_555 1_555
O6 Bi1 1_555 1_555
O7 C3 1_555 1_555
O8 C4 1_555 1_555
O9 Bi1 1_555 1_555
O10 Bi1 1_555 1_555
O11 C5 1_555 1_555
O12 Bi2 1_555 1_555
O13 Bi1 1_555 1_555
O14 Bi1 1_555 1_555
O15 C7 1_555 1_555
O16 C8 1_555 1_555
O17 Bi2 1_555 1_555
O18 Bi2 1_555 1_555
O19 C9 1_555 1_555
O20 C10 1_555 1_555
O21 Bi2 1_555 1_555
O22 C11 1_555 1_555
O23 C12 1_555 1_555
O24 Bi3 1_555 1_555
O25 C14 1_555 1_555
O26 Bi3 1_555 1_555
O27 C13 1_555 1_555
N1 H1 1_555 1_555
H2 N1 1_555 1_555
H3 N1 1_555 1_555
N2 H4 1_555 1_555
H5 N2 1_555 1_555
H6 N2 1_555 1_555
N3 H7 1_555 1_555
H8 N3 1_555 1_555
H9 N3 1_555 1_555
N4 H10 1_555 1_555
H11 N4 1_555 1_555
H12 N4 1_555 1_555
N5 H13 1_555 1_555
C1 C2 1_555 1_555
C2 O2 1_555 1_555
C3 O5 1_555 1_555
C4 O6 1_555 1_555
C5 O9 1_555 1_555
C6 O10 1_555 1_555
C7 O13 1_555 1_555
C8 O14 1_555 1_555
C9 O17 1_555 1_555
C10 O18 1_555 1_555
C11 O21 1_555 1_555
C12 N5 1_555 1_555
C13 O26 1_555 1_555
C14 O24 1_555 1_555
C15 N1 1_555 1_555
H14 C15 1_555 1_555
H15 C15 1_555 1_555
C16 N2 1_555 1_555
H16 C16 1_555 1_555
H17 C16 1_555 1_555
C17 N3 1_555 1_555
H18 C17 1_555 1_555
H19 C17 1_555 1_555
C18 N5 1_555 1_555
H20 C18 1_555 1_555
H21 C18 1_555 1_555
C19 N4 1_555 1_555
H22 C19 1_555 1_555
H23 C19 1_555 1_555
O28 H24 1_555 1_555
H25 O28 1_555 1_555
O29 H26 1_555 1_555
H27 O29 1_555 1_555
O30 H28 1_555 1_555
O31 H29 1_555 1_555
H30 O31 1_555 1_555
O32 H31 1_555 1_555
H32 O32 1_555 1_555
O33 H33 1_555 1_555
H34 O33 1_555 1_555
O34 H35 1_555 1_555
H36 O34 1_555 1_555
Bi1_2 O1_2 1_555 1_555
Bi1F O13F 1_555 1_555
Bi1_3 O5_2 1_555 1_555
Bi1F_2 O9F 1_555 1_555
Bi2F O15 1_555 1_555
Bi2C O19 1_555 1_555
Bi2C_2 O17C 1_555 1_555
Bi3_2 O7 1_555 1_555
Bi3D O25 1_555 1_555
Bi3B O27 1_555 1_555
O1_2 C1_2 1_555 1_555
O2_2 Bi1_2 1_555 1_555
O3_2 Bi3_2 1_555 1_555
O4_2 Bi3_2 1_555 1_555
O5_2 C3_2 1_555 1_555
O5_3 Bi1_2 1_555 1_555
O6_2 Bi1_3 1_555 1_555
O6_3 Bi1_2 1_555 1_555
O7_2 Bi3 1_555 1_555
O8_2 Bi3 1_555 1_555
O9F C5F 1_555 1_555
O9_2 Bi1_2 1_555 1_555
O10F Bi1F_2 1_555 1_555
O10_2 Bi1_2 1_555 1_555
O11F Bi2F 1_555 1_555
O12F Bi2F 1_555 1_555
O13F C7F 1_555 1_555
O13_2 Bi1_2 1_555 1_555
O14F Bi1F 1_555 1_555
O14_2 Bi1_2 1_555 1_555
O15F Bi2 1_555 1_555
O16F Bi2 1_555 1_555
O17C C9C 1_555 1_555
O17F Bi2F 1_555 1_555
O18C Bi2C_2 1_555 1_555
O18F Bi2F 1_555 1_555
O19C Bi2 1_555 1_555
O19E Bi2F 1_555 1_555
O20C Bi2 1_555 1_555
O20E Bi2F 1_555 1_555
O21F Bi2F 1_555 1_555
O22F C11F 1_555 1_555
O23F C12F 1_555 1_555
O24D Bi3D 1_555 1_555
O24_2 Bi3_2 1_555 1_555
O25D Bi3 1_555 1_555
O25D_2 Bi3_2 1_555 1_555
O26B Bi3B 1_555 1_555
O26_2 Bi3_2 1_555 1_555
O27B Bi3 1_555 1_555
O27B_2 Bi3_2 1_555 1_555
N1E H1E 1_555 1_555
H2E N1E 1_555 1_555
H3E N1E 1_555 1_555
N4F H10F 1_555 1_555
H11F N4F 1_555 1_555
H12F N4F 1_555 1_555
N5F H13F 1_555 1_555
C1_2 O3_2 1_555 1_555
C2_2 O2_2 1_555 1_555
C3_2 O7_2 1_555 1_555
C4_2 O6_2 1_555 1_555
C5F O11F 1_555 1_555
C6F O10F 1_555 1_555
C7F O15F 1_555 1_555
C8F O14F 1_555 1_555
C9C O19C 1_555 1_555
C10C O18C 1_555 1_555
C11F O21F 1_555 1_555
C12F N5F 1_555 1_555
C13B C13 1_555 1_555
C14D C14 1_555 1_555
C15E C15 1_555 1_555
H14E C15E 1_555 1_555
H15E C15E 1_555 1_555
C18F N5F 1_555 1_555
H20F C18F 1_555 1_555
H21F C18F 1_555 1_555
C19F N4F 1_555 1_555
H22F C19F 1_555 1_555
H23F C19F 1_555 1_555
H28B O30 1_555 1_555
O4 C2 1_555 1_555
O8 Bi3_2 1_555 1_555
O12 C6 1_555 1_555
O16 Bi2F 1_555 1_555
O20 Bi2C 1_555 1_555
C3 C4 1_555 1_555
C5 C6 1_555 1_555
C7 C8 1_555 1_555
C9 C10 1_555 1_555
C11 C12 1_555 1_555
C16 C17 1_555 1_555
C18 C19 1_555 1_555
O4_2 C2_2 1_555 1_555
O8_2 C4_2 1_555 1_555
O12F C6F 1_555 1_555
O16F C8F 1_555 1_555
O20C C10C 1_555 1_555
O24D C14D 1_555 1_555
O25D C14D 1_555 1_555
O26B C13B 1_555 1_555
O27B C13B 1_555 1_555
N1E C15E 1_555 1_555
C1_2 C2_2 1_555 1_555
C3_2 C4_2 1_555 1_555
C5F C6F 1_555 1_555
C7F C8F 1_555 1_555
C9C C10C 1_555 1_555
C11F C12F 1_555 1_555
C18F C19F 1_555 1_555

#END
