
#######################################################################
#
#                 Cambridge Crystallographic Data Centre
#                                CCDC 
#
#######################################################################
#
# If this CIF has been generated from an entry in the Cambridge 
# Structural Database, then it will include bibliographic, chemical, 
# crystal, experimental, refinement or atomic coordinate data resulting 
# from the CCDC's data processing and validation procedures.
#
#######################################################################

data_NEDMIT
_symmetry_cell_setting           orthorhombic
_symmetry_space_group_name_H-M   'C m c 21'
_symmetry_Int_Tables_number      36
_space_group_name_Hall           'C 2n -2'
loop_
_symmetry_equiv_pos_site_id
_symmetry_equiv_pos_as_xyz
1 x,y,z
2 -x,-y,1/2+z
3 -x,y,z
4 x,-y,1/2+z
5 1/2+x,1/2+y,z
6 1/2-x,1/2-y,1/2+z
7 1/2-x,1/2+y,z
8 1/2+x,1/2-y,1/2+z
_cell_length_a                   23.013(3)
_cell_length_b                   13.058(2)
_cell_length_c                   6.6900(10)
_cell_angle_alpha                90
_cell_angle_beta                 90
_cell_angle_gamma                90
_cell_volume                     2010.37
loop_
_atom_site_label
_atom_site_type_symbol
_atom_site_fract_x
_atom_site_fract_y
_atom_site_fract_z
K1 K 0.0000 0.12530(19) 0.627(2)
S1 S -0.06967(7) -0.09346(14) 0.6247(14)
O1 O 0.1195(2) 0.2004(4) 0.619(2)
C1 C -0.1534(3) -0.2789(4) 0.618(3)
N1 N -0.1699(2) 0.0059(4) 0.623(3)
O2 O -0.1427(7) -0.3192(8) 0.7873(13)
O3 O -0.1457(9) -0.3178(8) 0.4576(12)
C2 C -0.1800(3) -0.1734(4) 0.622(3)
C3 C -0.2636(3) -0.0625(6) 0.619(4)
C4 C -0.2285(3) 0.0188(6) 0.624(4)
C5 C -0.2392(3) -0.1601(6) 0.628(4)
K2 K 0.0000 0.4583(4) 0.612(3)
C6 C -0.1434(3) -0.0882(5) 0.631(3)
O4 O -0.0879(3) 0.5025(15) 0.867(5)
O5 O 0.0000 0.314(2) 0.327(8)
O6 O 0.0000 0.2968(18) 0.886(4)
H1 H -0.2656 -0.2175 0.6249
H2 H -0.3023 -0.0576 0.6154
H3 H -0.2441 0.0948 0.6210
H4 H -0.1475 0.0706 0.6201
H5 H 0.1326 0.2340 0.7401
H6 H 0.1299 0.2368 0.5176
S1B S 0.06967(7) -0.09346(14) 0.6247(14)
O1B O -0.1195(2) 0.2004(4) 0.619(2)
C1B C 0.1534(3) -0.2789(4) 0.618(3)
N1B N 0.1699(2) 0.0059(4) 0.623(3)
O2B O 0.1427(7) -0.3192(8) 0.7873(13)
O3B O 0.1457(9) -0.3178(8) 0.4576(12)
C2B C 0.1800(3) -0.1734(4) 0.622(3)
C3B C 0.2636(3) -0.0625(6) 0.619(4)
C4B C 0.2285(3) 0.0188(6) 0.624(4)
C5B C 0.2392(3) -0.1601(6) 0.628(4)
K2A K 0.0000 0.5417(4) 0.112(3)
K2A_2 K 0.0000 0.5417(4) 1.112(3)
C6B C 0.1434(3) -0.0882(5) 0.631(3)
O4A O 0.0879(3) 0.4975(15) 0.367(5)
O4B O 0.0879(3) 0.5025(15) 0.867(5)
O4C O -0.0879(3) 0.4975(15) 0.367(5)
H1B H 0.2656 -0.2175 0.6249
H2B H 0.3023 -0.0576 0.6154
H3B H 0.2441 0.0948 0.6210
H4B H 0.1475 0.0706 0.6201
H5B H -0.1326 0.2340 0.7401
H6B H -0.1299 0.2368 0.5176
loop_
_geom_bond_atom_site_label_1
_geom_bond_atom_site_label_2
_geom_bond_site_symmetry_1
_geom_bond_site_symmetry_2
K1 S1 1_555 1_555
S1 C6 1_555 1_555
O1 K1 1_555 1_555
C1 O2 1_555 1_555
N1 C4 1_555 1_555
O3 C1 1_555 1_555
C2 C1 1_555 1_555
C3 C4 1_555 1_555
C4 H3 1_555 1_555
C5 C2 1_555 1_555
K2 O4 1_555 1_555
C6 N1 1_555 1_555
O4 K2A_2 1_555 1_555
O5 K1 1_555 1_555
O6 K1 1_555 1_555
H1 C5 1_555 1_555
H2 C3 1_555 1_555
H4 N1 1_555 1_555
H5 O1 1_555 1_555
H6 O1 1_555 1_555
S1B K1 1_555 1_555
O1B K1 1_555 1_555
C1B O2B 1_555 1_555
N1B C4B 1_555 1_555
O3B C1B 1_555 1_555
C2B C1B 1_555 1_555
C3B C4B 1_555 1_555
C4B H3B 1_555 1_555
C5B C2B 1_555 1_555
K2A O4A 1_555 1_555
K2A_2 O4B 1_555 1_555
C6B S1B 1_555 1_555
O4A K2 1_555 1_555
O4B K2 1_555 1_555
O4C K2 1_555 1_555
H1B C5B 1_555 1_555
H2B C3B 1_555 1_555
H4B N1B 1_555 1_555
H5B O1B 1_555 1_555
H6B O1B 1_555 1_555
C2 C6 1_555 1_555
C3 C5 1_555 1_555
K2 O5 1_555 1_555
K2 O6 1_555 1_555
N1B C6B 1_555 1_555
C2B C6B 1_555 1_555
C3B C5B 1_555 1_555
K2A O4C 1_555 1_555

#END
