
#######################################################################
#
#                 Cambridge Crystallographic Data Centre
#                                CCDC 
#
#######################################################################
#
# If this CIF has been generated from an entry in the Cambridge 
# Structural Database, then it will include bibliographic, chemical, 
# crystal, experimental, refinement or atomic coordinate data resulting 
# from the CCDC's data processing and validation procedures.
#
#######################################################################

data_NEDSIZ
_symmetry_cell_setting           orthorhombic
_symmetry_space_group_name_H-M   'P b c a'
_symmetry_Int_Tables_number      61
_space_group_name_Hall           '-P 2ac 2ab'
loop_
_symmetry_equiv_pos_site_id
_symmetry_equiv_pos_as_xyz
1 x,y,z
2 1/2-x,-y,1/2+z
3 -x,1/2+y,1/2-z
4 1/2+x,1/2-y,-z
5 -x,-y,-z
6 1/2+x,y,1/2-z
7 x,1/2-y,1/2+z
8 1/2-x,1/2+y,z
_cell_length_a                   16.2261(17)
_cell_length_b                   15.5944(16)
_cell_length_c                   16.3219(17)
_cell_angle_alpha                90
_cell_angle_beta                 90
_cell_angle_gamma                90
_cell_volume                     4130.03
loop_
_atom_site_label
_atom_site_type_symbol
_atom_site_fract_x
_atom_site_fract_y
_atom_site_fract_z
Cu1 Cu 0.01268(3) 0.95672(3) 0.34555(3)
O1 O -0.02149(16) 0.88145(15) 0.43655(15)
O2 O -0.0617(2) 0.8067(2) 0.32937(17)
N1 N -0.0816(2) 0.46069(19) 0.85140(19)
N2 N 0.0346(2) 0.4831(2) 0.73700(19)
N3 N 0.1210(2) 0.5993(2) 0.82372(18)
O7 O 0.0842(2) 1.0628(2) 0.4151(2)
H1 H 0.065(3) 1.080(3) 0.456(3)
H2 H 0.153(3) 1.064(3) 0.423(3)
C1 C -0.1443(3) 0.4594(3) 0.9044(3)
H3 H -0.1520 0.5065 0.9386
C2 C -0.1977(3) 0.3919(3) 0.9107(3)
H4 H -0.2402 0.3928 0.9489
C3 C -0.1876(4) 0.3233(3) 0.8598(3)
H5 H -0.2240 0.2773 0.8620
C4 C -0.1229(4) 0.3226(3) 0.8051(3)
H6 H -0.1149 0.2758 0.7706
C5 C -0.0702(3) 0.3917(2) 0.8019(2)
C6 C 0.0050(3) 0.3931(3) 0.7490(3)
H7 H 0.0482 0.3593 0.7745
H8 H -0.0076 0.3676 0.6963
C7 C 0.1244(3) 0.4863(3) 0.7221(3)
H9 H 0.1500 0.4354 0.7447
H10 H 0.1346 0.4869 0.6635
C8 C 0.1622(3) 0.5648(3) 0.7605(2)
C9 C 0.2384(3) 0.5975(3) 0.7371(3)
H11 H 0.2654 0.5752 0.6916
C10 C 0.2731(3) 0.6619(3) 0.7807(3)
H12 H 0.3242 0.6837 0.7657
C11 C 0.2319(3) 0.6951(3) 0.8476(3)
H13 H 0.2553 0.7385 0.8791
C12 C 0.1559(3) 0.6624(3) 0.8666(3)
H14 H 0.1275 0.6851 0.9111
C13 C -0.0534(2) 0.8137(2) 0.4038(2)
C14 C -0.0796(3) 0.7422(3) 0.4601(2)
H15 H -0.0826 0.6899 0.4281
H16 H -0.1349 0.7548 0.4792
C15 C -0.0266(3) 0.7247(2) 0.5341(2)
H17 H -0.0366 0.7684 0.5753
H18 H 0.0311 0.7277 0.5186
C16 C -0.0445(3) 0.6372(3) 0.5702(2)
H19 H -0.0351 0.5943 0.5282
H20 H -0.1025 0.6348 0.5847
C17 C 0.0060(3) 0.6130(2) 0.6457(2)
H21 H -0.0082 0.6501 0.6912
H22 H 0.0644 0.6196 0.6343
C18 C -0.0130(3) 0.5198(3) 0.6672(2)
H23 H -0.0028 0.4848 0.6191
H24 H -0.0713 0.5153 0.6799
Cu1F Cu 0.01268(3) 0.54328(3) 0.84555(3)
N1F N -0.0816(2) 1.03931(19) 0.35140(19)
N2F N 0.0346(2) 1.0169(2) 0.23700(19)
N3F N 0.1210(2) 0.9007(2) 0.32372(18)
Cl1 Cl -0.30744(7) 0.91200(8) 0.53705(8)
O3 O -0.2599(3) 0.9571(4) 0.5915(3)
O4 O -0.2581(3) 0.8587(3) 0.4901(3)
O5 O -0.3467(3) 0.9724(3) 0.4853(3)
O6 O -0.3691(3) 0.8650(3) 0.5787(3)
loop_
_geom_bond_atom_site_label_1
_geom_bond_atom_site_label_2
_geom_bond_site_symmetry_1
_geom_bond_site_symmetry_2
Cu1 O1 1_555 1_555
Cl1 O3 1_555 1_555
O1 C13 1_555 1_555
O2 C13 1_555 1_555
O4 Cl1 1_555 1_555
O5 Cl1 1_555 1_555
O6 Cl1 1_555 1_555
N1 C1 1_555 1_555
N2 C6 1_555 1_555
N3 C8 1_555 1_555
O7 Cu1 1_555 1_555
H1 O7 1_555 1_555
H2 O7 1_555 1_555
C1 H3 1_555 1_555
C2 C1 1_555 1_555
H4 C2 1_555 1_555
C3 C2 1_555 1_555
H5 C3 1_555 1_555
C4 C3 1_555 1_555
H6 C4 1_555 1_555
C5 N1 1_555 1_555
C6 C5 1_555 1_555
H7 C6 1_555 1_555
H8 C6 1_555 1_555
C7 N2 1_555 1_555
H9 C7 1_555 1_555
H10 C7 1_555 1_555
C8 C7 1_555 1_555
C9 C8 1_555 1_555
H11 C9 1_555 1_555
C10 C9 1_555 1_555
H12 C10 1_555 1_555
C11 C10 1_555 1_555
H13 C11 1_555 1_555
C12 N3 1_555 1_555
H14 C12 1_555 1_555
C13 C14 1_555 1_555
C14 H15 1_555 1_555
H16 C14 1_555 1_555
C15 C14 1_555 1_555
H17 C15 1_555 1_555
H18 C15 1_555 1_555
C16 C15 1_555 1_555
H19 C16 1_555 1_555
H20 C16 1_555 1_555
C17 C16 1_555 1_555
H21 C17 1_555 1_555
H22 C17 1_555 1_555
C18 N2 1_555 1_555
H23 C18 1_555 1_555
H24 C18 1_555 1_555
Cu1F N1 1_555 1_555
N1F Cu1 1_555 1_555
N2F Cu1 1_555 1_555
N3F Cu1 1_555 1_555
N2 Cu1F 1_555 1_555
N3 Cu1F 1_555 1_555
C4 C5 1_555 1_555
C11 C12 1_555 1_555
C17 C18 1_555 1_555

#END
