
#######################################################################
#
#                 Cambridge Crystallographic Data Centre
#                                CCDC 
#
#######################################################################
#
# If this CIF has been generated from an entry in the Cambridge 
# Structural Database, then it will include bibliographic, chemical, 
# crystal, experimental, refinement or atomic coordinate data resulting 
# from the CCDC's data processing and validation procedures.
#
#######################################################################

data_NEDXUR
_symmetry_cell_setting           orthorhombic
_symmetry_space_group_name_H-M   'P n n a'
_symmetry_Int_Tables_number      52
_space_group_name_Hall           '-P 2a 2bc'
loop_
_symmetry_equiv_pos_site_id
_symmetry_equiv_pos_as_xyz
1 x,y,z
2 1/2-x,-y,z
3 x,1/2-y,1/2-z
4 1/2-x,1/2+y,1/2-z
5 -x,-y,-z
6 1/2+x,y,-z
7 -x,1/2+y,1/2+z
8 1/2+x,1/2-y,1/2+z
_cell_length_a                   7.699(3)
_cell_length_b                   17.608(8)
_cell_length_c                   15.090(7)
_cell_angle_alpha                90
_cell_angle_beta                 90
_cell_angle_gamma                90
_cell_volume                     2045.66
loop_
_atom_site_label
_atom_site_type_symbol
_atom_site_fract_x
_atom_site_fract_y
_atom_site_fract_z
Zn1 Zn 0.57828(8) 0.2500 0.2500
O1 O 0.4708(3) 0.17834(17) 0.16910(19)
O2 O 0.3824(5) 0.1274(2) 0.2956(2)
C1 C 0.7463(5) 0.2059(2) 0.4214(2)
H1 H 0.6947 0.2502 0.4440
C2 C 0.9700(5) 0.0342(2) 0.5109(3)
H2 H 0.9739 0.0479 0.5711
N1 N 0.7416(4) 0.19409(17) 0.33423(19)
C3 C 0.2500 0.0000 0.0271(3)
C4 C 0.8236(4) 0.1561(2) 0.4805(2)
H3 H 0.8253 0.1671 0.5414
C5 C 0.8989(5) 0.0893(2) 0.4488(2)
C6 C 0.3188(5) 0.0618(2) 0.0698(3)
H4 H 0.3643 0.1029 0.0377
N2 N 0.2500 0.0000 -0.0702(3)
C7 C 0.2500 0.0000 0.2066(4)
H5 H 0.2500 0.0000 0.2689
C8 C 0.8969(6) 0.0784(2) 0.3578(3)
H6 H 0.9491 0.0351 0.3330
C9 C 0.3194(5) 0.0618(2) 0.1614(2)
O3 O 0.1799(5) -0.0528(3) -0.1085(2)
C10 C 0.3943(5) 0.1272(3) 0.2131(3)
C11 C 0.8186(6) 0.1309(3) 0.3043(3)
H7 H 0.8188 0.1221 0.2428
Zn1A Zn -0.07828(8) -0.2500 0.2500
Zn1D Zn 1.42172(8) -0.2500 0.7500
O1A O 0.0292(3) -0.17834(17) 0.16910(19)
O1B O 0.4708(3) 0.32166(17) 0.33090(19)
O2A O 0.1176(5) -0.1274(2) 0.2956(2)
C1D C 1.2537(5) -0.2059(2) 0.5786(2)
H1D H 1.3053 -0.2502 0.5560
C2D C 1.0300(5) -0.0342(2) 0.4891(3)
H2D H 1.0261 -0.0479 0.4289
N1D N 1.2584(4) -0.19409(17) 0.66577(19)
N1B N 0.7416(4) 0.30591(17) 0.16577(19)
C4D C 1.1764(4) -0.1561(2) 0.5195(2)
H3D H 1.1747 -0.1671 0.4586
C5D C 1.1011(5) -0.0893(2) 0.5512(2)
C6A C 0.1812(5) -0.0618(2) 0.0698(3)
H4A H 0.1357 -0.1029 0.0377
C8D C 1.1031(6) -0.0784(2) 0.6422(3)
H6D H 1.0509 -0.0351 0.6670
C9A C 0.1806(5) -0.0618(2) 0.1614(2)
O3A O 0.3201(5) 0.0528(3) -0.1085(2)
C10A C 0.1057(5) -0.1272(3) 0.2131(3)
C11D C 1.1814(6) -0.1309(3) 0.6957(3)
H7D H 1.1812 -0.1221 0.7572
loop_
_geom_bond_atom_site_label_1
_geom_bond_atom_site_label_2
_geom_bond_site_symmetry_1
_geom_bond_site_symmetry_2
Zn1 O1 1_555 1_555
O1 C10 1_555 1_555
O2 C10 1_555 1_555
C1 H1 1_555 1_555
C2 H2 1_555 1_555
N1 Zn1 1_555 1_555
C3 C6 1_555 1_555
C4 C1 1_555 1_555
H3 C4 1_555 1_555
C5 C2 1_555 1_555
C6 H4 1_555 1_555
N2 C3 1_555 1_555
C7 H5 1_555 1_555
C8 C5 1_555 1_555
H6 C8 1_555 1_555
C9 C6 1_555 1_555
O3 N2 1_555 1_555
C10 C9 1_555 1_555
C11 N1 1_555 1_555
H7 C11 1_555 1_555
Zn1A O1A 1_555 1_555
Zn1D N1D 1_555 1_555
O1A C10A 1_555 1_555
O1B Zn1 1_555 1_555
O2A C10A 1_555 1_555
C1D H1D 1_555 1_555
C2D C2 1_555 1_555
H2D C2D 1_555 1_555
N1D C1D 1_555 1_555
N1B Zn1 1_555 1_555
C4D C1D 1_555 1_555
H3D C4D 1_555 1_555
C5D C2D 1_555 1_555
C6A C3 1_555 1_555
H4A C6A 1_555 1_555
C8D C5D 1_555 1_555
H6D C8D 1_555 1_555
C9A C7 1_555 1_555
O3A N2 1_555 1_555
C10A C9A 1_555 1_555
C11D N1D 1_555 1_555
H7D C11D 1_555 1_555
C1 N1 1_555 1_555
C4 C5 1_555 1_555
C7 C9 1_555 1_555
C8 C11 1_555 1_555
C4D C5D 1_555 1_555
C6A C9A 1_555 1_555
C8D C11D 1_555 1_555

#END
