
#######################################################################
#
#                 Cambridge Crystallographic Data Centre
#                                CCDC 
#
#######################################################################
#
# If this CIF has been generated from an entry in the Cambridge 
# Structural Database, then it will include bibliographic, chemical, 
# crystal, experimental, refinement or atomic coordinate data resulting 
# from the CCDC's data processing and validation procedures.
#
#######################################################################

data_NEDXOJ01
_symmetry_cell_setting           monoclinic
_symmetry_space_group_name_H-M   'P 2/n'
_symmetry_Int_Tables_number      13
_space_group_name_Hall           '-P 2yac'
loop_
_symmetry_equiv_pos_site_id
_symmetry_equiv_pos_as_xyz
1 x,y,z
2 1/2-x,y,1/2-z
3 -x,-y,-z
4 1/2+x,-y,1/2+z
_cell_length_a                   7.6118(9)
_cell_length_b                   11.3569(9)
_cell_length_c                   10.8089(9)
_cell_angle_alpha                90
_cell_angle_beta                 92.276(7)
_cell_angle_gamma                90
_cell_volume                     933.654
loop_
_atom_site_label
_atom_site_type_symbol
_atom_site_fract_x
_atom_site_fract_y
_atom_site_fract_z
Co1 Co 0.2500 0.27961(4) 0.7500
O1 O 0.4158(2) 0.2817(2) 0.9131(2)
O2 O -0.2417(2) 0.3413(2) 0.8996(2)
O3 O 0.0347(2) 0.2913(2) 0.8705(2)
C1 C -0.1915(3) 0.1592(2) 0.8016(2)
C2 C -0.1384(3) 0.0527(2) 0.8530(2)
H1 H -0.0629(3) 0.0525(2) 0.9228(2)
C3 C -0.1950(4) -0.0531(2) 0.8030(3)
H2 H -0.1570(33) -0.1293(23) 0.8419(23)
C4 C -0.1289(3) 0.2730(2) 0.8605(2)
N1 N 0.2500 0.0916(2) 0.7500
N2 N 0.2500 -0.5312(2) 0.7500
C5 C 0.1855(3) 0.0303(2) 0.6524(2)
H3 H 0.1414(3) 0.0716(2) 0.5837(2)
C6 C 0.1814(3) -0.0916(2) 0.6492(2)
H4 H 0.1332(3) -0.1307(2) 0.5803(2)
C7 C 0.2500 -0.1549(3) 0.7500
C8 C 0.2500 -0.2853(3) 0.7500
C9 C 0.4032(3) -0.3483(2) 0.7752(2)
H5 H 0.5083(3) -0.3092(2) 0.7939(2)
C10 C 0.3981(3) -0.4699(2) 0.7723(2)
H6 H 0.5025(3) -0.5112(2) 0.7865(2)
H7 H 0.5095(45) 0.2990(31) 0.9088(33)
H8 H 0.3784(44) 0.3285(31) 0.9647(31)
Co1_2 Co 0.2500 -0.72039(4) 0.7500
Co1_3 Co -0.7500 0.27961(4) 0.7500
O1A O 0.0842(2) 0.2817(2) 0.5869(2)
O2A O -0.2583(2) 0.3413(2) 0.6004(2)
O3A O -0.5347(2) 0.2913(2) 0.6295(2)
O3A_2 O 0.4653(2) 0.2913(2) 0.6295(2)
C1A C -0.3085(3) 0.1592(2) 0.6984(2)
C2A C -0.3616(3) 0.0527(2) 0.6470(2)
H1A H -0.4371(3) 0.0525(2) 0.5772(2)
C3A C -0.3050(4) -0.0531(2) 0.6970(3)
H2A H -0.3430(33) -0.1293(23) 0.6581(23)
C4A C -0.3711(3) 0.2730(2) 0.6395(2)
N2_2 N 0.2500 0.4688(2) 0.7500
C5A C 0.3145(3) 0.0303(2) 0.8476(2)
H3A H 0.3586(3) 0.0716(2) 0.9163(2)
C6A C 0.3186(3) -0.0916(2) 0.8508(2)
H4A H 0.3668(3) -0.1307(2) 0.9197(2)
C9A C 0.0968(3) -0.3483(2) 0.7248(2)
H5A H -0.0083(3) -0.3092(2) 0.7061(2)
C10A C 0.1019(3) -0.4699(2) 0.7277(2)
H6A H -0.0025(3) -0.5112(2) 0.7135(2)
H7A H -0.0095(45) 0.2990(31) 0.5912(33)
H8A H 0.1216(44) 0.3285(31) 0.5353(31)
O4 O -0.2150(3) 0.5878(2) 0.9365(2)
H9 H -0.1234(44) 0.6099(30) 0.9886(31)
H10 H -0.2052(46) 0.5151(31) 0.9297(32)
loop_
_geom_bond_atom_site_label_1
_geom_bond_atom_site_label_2
_geom_bond_site_symmetry_1
_geom_bond_site_symmetry_2
Co1 O1 1_555 1_555
O1 H7 1_555 1_555
O2 C4 1_555 1_555
O3 Co1 1_555 1_555
C1 C2 1_555 1_555
C2 H1 1_555 1_555
C3 C2 1_555 1_555
H2 C3 1_555 1_555
C4 O3 1_555 1_555
N1 Co1 1_555 1_555
N2 C10 1_555 1_555
C5 N1 1_555 1_555
H3 C5 1_555 1_555
C6 C5 1_555 1_555
H4 C6 1_555 1_555
C7 C6 1_555 1_555
C8 C7 1_555 1_555
C9 C8 1_555 1_555
H5 C9 1_555 1_555
C10 C9 1_555 1_555
H6 C10 1_555 1_555
H8 O1 1_555 1_555
O4 H9 1_555 1_555
H10 O4 1_555 1_555
Co1_2 N2 1_555 1_555
Co1_3 O3A 1_555 1_555
O1A Co1 1_555 1_555
O2A C4A 1_555 1_555
O3A C4A 1_555 1_555
O3A_2 Co1 1_555 1_555
C1A C1 1_555 1_555
C2A C1A 1_555 1_555
H1A C2A 1_555 1_555
C3A C3 1_555 1_555
H2A C3A 1_555 1_555
C4A C1A 1_555 1_555
N2_2 Co1 1_555 1_555
C5A N1 1_555 1_555
H3A C5A 1_555 1_555
C6A C7 1_555 1_555
H4A C6A 1_555 1_555
C9A C8 1_555 1_555
H5A C9A 1_555 1_555
C10A N2 1_555 1_555
H6A C10A 1_555 1_555
H7A O1A 1_555 1_555
H8A O1A 1_555 1_555
C1 C4 1_555 1_555
C2A C3A 1_555 1_555
C5A C6A 1_555 1_555
C9A C10A 1_555 1_555

#END
