
#######################################################################
#
#                 Cambridge Crystallographic Data Centre
#                                CCDC 
#
#######################################################################
#
# If this CIF has been generated from an entry in the Cambridge 
# Structural Database, then it will include bibliographic, chemical, 
# crystal, experimental, refinement or atomic coordinate data resulting 
# from the CCDC's data processing and validation procedures.
#
#######################################################################

data_NEDXOJ02
_symmetry_cell_setting           monoclinic
_symmetry_space_group_name_H-M   'P 21'
_symmetry_Int_Tables_number      4
_space_group_name_Hall           'P 2yb'
loop_
_symmetry_equiv_pos_site_id
_symmetry_equiv_pos_as_xyz
1 x,y,z
2 -x,1/2+y,-z
_cell_length_a                   11.0975(6)
_cell_length_b                   8.4039(3)
_cell_length_c                   11.3732(6)
_cell_angle_alpha                90
_cell_angle_beta                 115.564(7)
_cell_angle_gamma                90
_cell_volume                     956.853
loop_
_atom_site_label
_atom_site_type_symbol
_atom_site_fract_x
_atom_site_fract_y
_atom_site_fract_z
Co1 Co 0.35427(3) 0.50053(6) 0.41073(2)
O1 O 0.0305(2) 0.2427(3) 0.2280(2)
O2 O 0.15083(17) 0.4560(2) 0.32261(18)
O3 O 0.39059(19) 0.2551(2) 0.42902(16)
O4 O 0.44053(15) 0.0217(2) 0.52815(15)
C1 C 0.1390(2) 0.2443(3) 0.4571(2)
C2 C 0.0448(3) 0.2621(3) 0.5065(3)
H1 H -0.0332 0.3187 0.4587
C3 C 0.0648(3) 0.1978(4) 0.6243(3)
H2 H 0.0012 0.2125 0.6561
C4 C 0.1780(3) 0.1122(4) 0.6954(3)
H3 H 0.1920 0.0696 0.7757
C5 C 0.2719(3) 0.0893(4) 0.6464(3)
H4 H 0.3469 0.0271 0.6927
C6 C 0.2552(2) 0.1586(3) 0.5287(2)
C7 C 0.1063(2) 0.3192(3) 0.3255(3)
C8 C 0.3688(2) 0.1452(3) 0.4906(2)
N1 N 0.37286(17) 0.5158(3) 0.60643(16)
N2 N 0.34412(18) 0.4913(4) 1.21618(16)
C9 C 0.2668(3) 0.5679(4) 0.6219(2)
H5 H 0.1949 0.6083 0.5493
C10 C 0.2578(3) 0.5651(3) 0.7385(2)
H6 H 0.1814 0.6027 0.7437
C11 C 0.3635(2) 0.5059(4) 0.84854(19)
C12 C 0.4757(3) 0.4573(3) 0.8339(2)
H7 H 0.5505 0.4203 0.9054
C13 C 0.4761(2) 0.4637(3) 0.7132(2)
H8 H 0.5523 0.4300 0.7057
C14 C 0.2767(3) 0.5978(4) 1.1257(2)
H9 H 0.2239 0.6707 1.1438
C15 C 0.2803(3) 0.6066(4) 1.0062(3)
H10 H 0.2326 0.6852 0.9468
C16 C 0.3556(2) 0.4975(4) 0.97543(19)
C17 C 0.4228(3) 0.3828(3) 1.0675(2)
H11 H 0.4732 0.3057 1.0503
C18 C 0.4148(3) 0.3834(3) 1.1853(2)
H12 H 0.4607 0.3053 1.2462
O5 O 0.30884(19) 0.74617(19) 0.39430(17)
H13 H 0.3694(9) 0.8086(14) 0.4445(19)
H14 H 0.2452(8) 0.8072(13) 0.3472(15)
Co1_2 Co 0.35427(3) 0.50053(6) 1.41073(2)
Co1A Co 0.64573(3) 0.00053(6) 0.58927(2)
O4A O 0.55947(15) 0.5217(2) 0.47185(15)
N2_2 N 0.34412(18) 0.4913(4) 0.21618(16)
O6 O 0.1079(2) 0.9216(3) 0.2094(3)
H15 H 0.1460(8) 0.947(2) 0.1613(9)
H16 H 0.0868(16) 1.0100(13) 0.232(2)
O7 O 0.1274(5) 0.9518(4) -0.0226(3)
H17 H 0.0890(15) 0.8997(18) -0.0931(9)
H18 H 0.093(2) 1.0440(12) -0.041(3)
O8 O -0.0925(4) 0.7527(6) 0.0073(3)
H19 H -0.0722(18) 0.788(4) -0.0518(11)
H20 H -0.0434(19) 0.8035(15) 0.0761(8)
loop_
_geom_bond_atom_site_label_1
_geom_bond_atom_site_label_2
_geom_bond_site_symmetry_1
_geom_bond_site_symmetry_2
Co1 O2 1_555 1_555
O1 C7 1_555 1_555
O2 C7 1_555 1_555
O3 Co1 1_555 1_555
O4 C8 1_555 1_555
C1 C2 1_555 1_555
C2 H1 1_555 1_555
C3 C2 1_555 1_555
H2 C3 1_555 1_555
C4 C3 1_555 1_555
H3 C4 1_555 1_555
C5 C4 1_555 1_555
H4 C5 1_555 1_555
C6 C1 1_555 1_555
C7 C1 1_555 1_555
C8 O3 1_555 1_555
N1 Co1 1_555 1_555
N2 C14 1_555 1_555
C9 N1 1_555 1_555
H5 C9 1_555 1_555
C10 C9 1_555 1_555
H6 C10 1_555 1_555
C11 C10 1_555 1_555
C12 C11 1_555 1_555
H7 C12 1_555 1_555
C13 N1 1_555 1_555
H8 C13 1_555 1_555
C14 H9 1_555 1_555
C15 C14 1_555 1_555
H10 C15 1_555 1_555
C16 C11 1_555 1_555
C17 C16 1_555 1_555
H11 C17 1_555 1_555
C18 N2 1_555 1_555
H12 C18 1_555 1_555
O5 Co1 1_555 1_555
H13 O5 1_555 1_555
H14 O5 1_555 1_555
O6 H15 1_555 1_555
H16 O6 1_555 1_555
O7 H17 1_555 1_555
H18 O7 1_555 1_555
O8 H19 1_555 1_555
H20 O8 1_555 1_555
Co1_2 N2 1_555 1_555
Co1A O4 1_555 1_555
O4A Co1 1_555 1_555
N2_2 Co1 1_555 1_555
C5 C6 1_555 1_555
C6 C8 1_555 1_555
C12 C13 1_555 1_555
C15 C16 1_555 1_555
C17 C18 1_555 1_555

#END
