
#######################################################################
#
#                 Cambridge Crystallographic Data Centre
#                                CCDC 
#
#######################################################################
#
# If this CIF has been generated from an entry in the Cambridge 
# Structural Database, then it will include bibliographic, chemical, 
# crystal, experimental, refinement or atomic coordinate data resulting 
# from the CCDC's data processing and validation procedures.
#
#######################################################################

data_NEDZIF
_symmetry_cell_setting           monoclinic
_symmetry_space_group_name_H-M   'P 21/a'
_symmetry_Int_Tables_number      14
_space_group_name_Hall           '-P 2yab'
loop_
_symmetry_equiv_pos_site_id
_symmetry_equiv_pos_as_xyz
1 x,y,z
2 1/2-x,1/2+y,-z
3 -x,-y,-z
4 1/2+x,1/2-y,z
_cell_length_a                   10.075(1)
_cell_length_b                   9.634(1)
_cell_length_c                   11.049(1)
_cell_angle_alpha                90
_cell_angle_beta                 65.8(1)
_cell_angle_gamma                90
_cell_volume                     978.198
loop_
_atom_site_label
_atom_site_type_symbol
_atom_site_fract_x
_atom_site_fract_y
_atom_site_fract_z
Gd1 Gd 0.16878 0.04349 0.19039
C1 C 0.07130 -0.02587 -0.05466
C2 C -0.49714 0.07123 -0.03280
C3 C -0.94199 -0.05249 0.49991
O1 O 0.18098 -0.02663 -0.02664
O2 O -0.37991 0.10299 -0.12682
O3 O -0.61157 0.14294 0.01138
O4 O -0.88206 0.28426 0.16571
O5 O -0.70187 0.18414 0.29551
O6 O -0.83651 -0.07335 0.39116
O7 O -0.96250 -0.10647 0.60858
O8 O -0.0668 0.06482 0.16049
O9 O -0.92666 -0.19087 0.20993
H1 H -0.98412 0.29948 0.20694
H2 H -0.83527 0.34113 0.20672
H3 H -1.02930 -0.18714 0.23868
H4 H -0.88456 -0.23568 0.12609
H5 H -0.75925 0.26282 0.33713
H6 H -0.68601 0.12970 0.36005
C1B C -0.07130 0.02587 0.05466
O1B O -0.18098 0.02663 0.02664
Gd1B Gd -0.16878 -0.04349 -0.19039
C2B C -0.50286 -0.07123 0.03280
O2B O -0.62009 -0.10299 0.12682
Gd1_2 Gd -0.83122 0.04349 0.19039
O1_2 O -0.81902 -0.02663 -0.02664
C3B C -1.05801 0.05249 0.50009
O6B O -1.16349 0.07335 0.60884
Gd1B_2 Gd -1.16878 -0.04349 0.80961
O7B O -1.03750 0.10647 0.39142
O8_2 O -1.0668 0.06482 0.16049
O3B O -0.38843 -0.14294 -0.01138
O4B O -0.11794 -0.28426 -0.16571
H1B H -0.01588 -0.29948 -0.20694
H2B H -0.16473 -0.34113 -0.20672
O5B O -0.29813 -0.18414 -0.29551
H5B H -0.24075 -0.26282 -0.33713
H6B H -0.31399 -0.12970 -0.36005
O6B_2 O -0.16349 0.07335 -0.39116
O7_2 O 0.03750 -0.10647 -0.39142
O8B O 0.0668 -0.06482 -0.16049
O9B O -0.07334 0.19087 -0.20993
H3B H 0.02930 0.18714 -0.23868
H4B H -0.11544 0.23568 -0.12609
loop_
_geom_bond_atom_site_label_1
_geom_bond_atom_site_label_2
_geom_bond_site_symmetry_1
_geom_bond_site_symmetry_2
Gd1 O1 1_555 1_555
C1 O1 1_555 1_555
C2 O2 1_555 1_555
C3 O6 1_555 1_555
O2 Gd1B 1_555 1_555
O3 C2 1_555 1_555
O4 H1 1_555 1_555
O5 H5 1_555 1_555
O6 Gd1_2 1_555 1_555
O7 C3 1_555 1_555
O8 Gd1 1_555 1_555
O9 H3 1_555 1_555
H2 O4 1_555 1_555
H4 O9 1_555 1_555
H6 O5 1_555 1_555
C1B C1 1_555 1_555
O1B C1B 1_555 1_555
Gd1B O1B 1_555 1_555
C2B C2 1_555 1_555
O2B C2B 1_555 1_555
Gd1_2 O3 1_555 1_555
O1_2 Gd1_2 1_555 1_555
C3B C3 1_555 1_555
O6B C3B 1_555 1_555
Gd1B_2 O7 1_555 1_555
O7B Gd1_2 1_555 1_555
O8_2 Gd1_2 1_555 1_555
O3B Gd1B 1_555 1_555
O4B Gd1B 1_555 1_555
H1B O4B 1_555 1_555
H2B O4B 1_555 1_555
O5B Gd1B 1_555 1_555
H5B O5B 1_555 1_555
H6B O5B 1_555 1_555
O6B_2 Gd1B 1_555 1_555
O7_2 Gd1B 1_555 1_555
O8B C1 1_555 1_555
O9B Gd1B 1_555 1_555
H3B O9B 1_555 1_555
H4B O9B 1_555 1_555
O4 Gd1_2 1_555 1_555
O5 Gd1_2 1_555 1_555
O8 C1B 1_555 1_555
O9 Gd1_2 1_555 1_555
Gd1B O8B 1_555 1_555
C2B O3B 1_555 1_555
O2B Gd1_2 1_555 1_555
C3B O7B 1_555 1_555
O6B Gd1B_2 1_555 1_555

#END
