
#######################################################################
#
#                 Cambridge Crystallographic Data Centre
#                                CCDC 
#
#######################################################################
#
# If this CIF has been generated from an entry in the Cambridge 
# Structural Database, then it will include bibliographic, chemical, 
# crystal, experimental, refinement or atomic coordinate data resulting 
# from the CCDC's data processing and validation procedures.
#
#######################################################################

data_NEFDIL
_symmetry_cell_setting           triclinic
_symmetry_space_group_name_H-M   'P -1'
_symmetry_Int_Tables_number      2
_space_group_name_Hall           '-P 1'
loop_
_symmetry_equiv_pos_site_id
_symmetry_equiv_pos_as_xyz
1 x,y,z
2 -x,-y,-z
_cell_length_a                   5.761(2)
_cell_length_b                   9.646(4)
_cell_length_c                   9.886(4)
_cell_angle_alpha                83.99(3)
_cell_angle_beta                 77.81(3)
_cell_angle_gamma                83.81(3)
_cell_volume                     531.952
loop_
_atom_site_label
_atom_site_type_symbol
_atom_site_fract_x
_atom_site_fract_y
_atom_site_fract_z
Cu1 Cu 0.2178(1) 0.5336(1) 0.0592(1)
N1 N 0.4837(6) 0.4121(4) 0.1190(4)
N2 N 0.4838(6) 0.3665(4) 0.2347(4)
N3 N 0.4901(9) 0.3203(6) 0.3453(5)
N4 N -0.0441(6) 0.6306(4) -0.0265(4)
N5 N -0.0563(7) 0.7455(5) -0.0807(6)
N6 N -0.0720(11) 0.8542(6) -0.1335(9)
N7 N 0.2130(6) 0.6792(4) 0.1953(4)
C1 C 0.0549(9) 0.6762(5) 0.3171(5)
C2 C 0.0653(13) 0.7700(6) 0.4132(6)
C3 C 0.2359(13) 0.8622(6) 0.3829(7)
C4 C 0.3995(10) 0.8669(5) 0.2588(8)
C5 C 0.3772(8) 0.7717(5) 0.1674(6)
C6 C -0.1278(10) 0.5729(6) 0.3399(6)
C7 C 0.5905(13) 0.9687(7) 0.2197(9)
H1 H -0.0434(13) 0.7697(6) 0.4974(6)
H2 H 0.2423(13) 0.9240(6) 0.4479(7)
H3 H 0.4823(8) 0.7724(5) 0.0819(6)
H4 H -0.2374(37) 0.5861(24) 0.4263(18)
H5 H -0.0504(11) 0.4797(6) 0.3429(35)
H6 H -0.2130(41) 0.5864(23) 0.2653(19)
H7 H 0.7097(65) 0.9368(39) 0.1432(48)
H8 H 0.6629(85) 0.9741(55) 0.2978(24)
H9 H 0.5199(25) 1.0595(18) 0.1934(69)
Cu1A Cu 0.7822(1) 0.4664(1) -0.0592(1)
N1A N 0.5163(6) 0.5879(4) -0.1190(4)
Cu1A_2 Cu -0.2178(1) 0.4664(1) -0.0592(1)
N4A N 0.0441(6) 0.3694(4) 0.0265(4)
loop_
_geom_bond_atom_site_label_1
_geom_bond_atom_site_label_2
_geom_bond_site_symmetry_1
_geom_bond_site_symmetry_2
Cu1 N1 1_555 1_555
N1 N2 1_555 1_555
N2 N3 1_555 1_555
N4 Cu1 1_555 1_555
N5 N4 1_555 1_555
N6 N5 1_555 1_555
N7 Cu1 1_555 1_555
C1 N7 1_555 1_555
C2 C1 1_555 1_555
C3 C2 1_555 1_555
C4 C3 1_555 1_555
C5 N7 1_555 1_555
C6 C1 1_555 1_555
C7 C4 1_555 1_555
H1 C2 1_555 1_555
H2 C3 1_555 1_555
H3 C5 1_555 1_555
H4 C6 1_555 1_555
H5 C6 1_555 1_555
H6 C6 1_555 1_555
H7 C7 1_555 1_555
H8 C7 1_555 1_555
H9 C7 1_555 1_555
Cu1A N1 1_555 1_555
N1A Cu1 1_555 1_555
Cu1A_2 N4 1_555 1_555
N4A Cu1 1_555 1_555
C4 C5 1_555 1_555
Cu1A N1A 1_555 1_555
Cu1A_2 N4A 1_555 1_555

#END
