
#######################################################################
#
#                 Cambridge Crystallographic Data Centre
#                                CCDC 
#
#######################################################################
#
# If this CIF has been generated from an entry in the Cambridge 
# Structural Database, then it will include bibliographic, chemical, 
# crystal, experimental, refinement or atomic coordinate data resulting 
# from the CCDC's data processing and validation procedures.
#
#######################################################################

data_NEFJUF
_symmetry_cell_setting           triclinic
_symmetry_space_group_name_H-M   'P -1'
_symmetry_Int_Tables_number      2
_space_group_name_Hall           '-P 1'
loop_
_symmetry_equiv_pos_site_id
_symmetry_equiv_pos_as_xyz
1 x,y,z
2 -x,-y,-z
_cell_length_a                   10.4784(14)
_cell_length_b                   17.878(2)
_cell_length_c                   18.9670(18)
_cell_angle_alpha                71.1980(10)
_cell_angle_beta                 87.749(3)
_cell_angle_gamma                76.002(2)
_cell_volume                     3260.76
loop_
_atom_site_label
_atom_site_type_symbol
_atom_site_fract_x
_atom_site_fract_y
_atom_site_fract_z
C1 C 0.4574(3) 0.36208(19) 0.30037(17)
C2 C 0.5920(3) 0.3414(2) 0.31661(18)
H1 H 0.6388 0.3816 0.3031
C3 C 0.6567(4) 0.2613(2) 0.3528(2)
H2 H 0.7467 0.2477 0.3638
C4 C 0.5859(3) 0.2011(2) 0.37276(19)
H3 H 0.6287 0.1472 0.3971
C5 C 0.4506(3) 0.2224(2) 0.3560(2)
H4 H 0.4034 0.1824 0.3690
C6 C 0.3860(3) 0.30297(19) 0.31987(16)
C7 C 0.2457(3) 0.3156(2) 0.30850(18)
H5 H 0.2092 0.2707 0.3222
C8 C 0.0315(3) 0.39852(19) 0.26136(19)
H6 H 0.0262 0.4043 0.2083
C9 C -0.0473(3) 0.4771(2) 0.26868(18)
H7 H -0.1306 0.4939 0.2407
H8 H -0.0652 0.4707 0.3206
C10 C -0.0302(3) 0.61737(18) 0.21184(15)
H9 H -0.1217 0.6315 0.2085
C11 C 0.0373(3) 0.68142(19) 0.18717(17)
C12 C -0.0464(3) 0.76128(19) 0.15737(17)
H10 H -0.1373 0.7690 0.1546
C13 C 0.0108(3) 0.8269(2) 0.13261(17)
H11 H -0.0429 0.8793 0.1139
C14 C 0.1456(3) 0.8164(2) 0.13516(18)
H12 H 0.1815 0.8614 0.1175
C15 C 0.2291(3) 0.73798(19) 0.16427(18)
H13 H 0.3199 0.7311 0.1665
C16 C 0.1738(3) 0.6695(2) 0.19024(16)
C17 C -0.0348(3) 0.33121(19) 0.30154(19)
H14 H 0.0031 0.2838 0.2876
H15 H -0.1272 0.3488 0.2882
H16 H -0.0224 0.3183 0.3544
C18 C 0.1403(3) 0.48976(18) 0.42164(16)
C19 C -0.1332(3) 0.5714(2) 0.41445(17)
C20 C -0.0472(3) 0.39568(19) 0.49123(15)
C21 C 0.1359(3) 0.49573(17) 0.07913(16)
C22 C -0.0546(3) 0.4024(2) 0.07496(17)
C23 C -0.1429(3) 0.5753(2) 0.04130(19)
Cr1 Cr 0.0000 0.5000 0.5000
Cr2 Cr 0.0000 0.5000 0.0000
Mn3 Mn 0.22274(4) 0.49356(3) 0.24863(3)
N1 N 0.1684(3) 0.38853(16) 0.27948(15)
N2 N 0.0303(2) 0.53901(16) 0.23914(15)
N3 N 0.2090(3) 0.48477(17) 0.37291(15)
N4 N -0.2066(3) 0.61417(16) 0.36532(15)
N5 N -0.0679(3) 0.33622(15) 0.48746(15)
N7 N -0.0873(2) 0.34837(15) 0.11889(14)
N8 N -0.2208(3) 0.61572(17) 0.06350(15)
N12 N 0.2034(2) 0.49387(17) 0.12505(15)
O1 O 0.40251(19) 0.44118(13) 0.26118(12)
O2 O 0.2578(2) 0.59676(13) 0.21833(12)
C1A C -0.4574(3) 0.63792(19) 0.69963(17)
C2A C -0.5920(3) 0.6586(2) 0.68339(18)
H1A H -0.6388 0.6184 0.6969
C3A C -0.6567(4) 0.7387(2) 0.6472(2)
H2A H -0.7467 0.7523 0.6362
C4A C -0.5859(3) 0.7989(2) 0.62724(19)
H3A H -0.6287 0.8528 0.6029
C5A C -0.4506(3) 0.7776(2) 0.6440(2)
H4A H -0.4034 0.8176 0.6310
C6A C -0.3860(3) 0.69703(19) 0.68013(16)
C7A C -0.2457(3) 0.6844(2) 0.69150(18)
H5A H -0.2092 0.7293 0.6778
C8A C -0.0315(3) 0.60148(19) 0.73864(19)
H6A H -0.0262 0.5957 0.7917
C9A C 0.0473(3) 0.5229(2) 0.73132(18)
H7A H 0.1306 0.5061 0.7593
H8A H 0.0652 0.5293 0.6794
C10A C 0.0302(3) 0.38263(18) 0.78816(15)
H9A H 0.1217 0.3685 0.7915
C11A C -0.0373(3) 0.31858(19) 0.81283(17)
C12A C 0.0464(3) 0.23872(19) 0.84263(17)
H10A H 0.1373 0.2310 0.8454
C13A C -0.0108(3) 0.1731(2) 0.86739(17)
H11A H 0.0429 0.1207 0.8861
C14A C -0.1456(3) 0.1836(2) 0.86484(18)
H12A H -0.1815 0.1386 0.8825
C15A C -0.2291(3) 0.26202(19) 0.83573(18)
H13A H -0.3199 0.2689 0.8335
C16A C -0.1738(3) 0.3305(2) 0.80976(16)
C17A C 0.0348(3) 0.66879(19) 0.69846(19)
H14A H -0.0031 0.7162 0.7124
H15A H 0.1272 0.6512 0.7118
H16A H 0.0224 0.6817 0.6456
C18A C -0.1403(3) 0.51024(18) 0.57836(16)
C19A C 0.1332(3) 0.4286(2) 0.58555(17)
C20A C 0.0472(3) 0.60432(19) 0.50877(15)
C21A C -0.1359(3) 0.50427(17) 0.92087(16)
C21A_2 C -0.1359(3) 0.50427(17) -0.07913(16)
C22A C 0.0546(3) 0.5976(2) -0.07496(17)
C23A C 0.1429(3) 0.4247(2) -0.04130(19)
Cr2_2 Cr 0.0000 0.5000 1.0000
Mn3A Mn -0.22274(4) 0.50644(3) 0.75137(3)
N1A N -0.1684(3) 0.61147(16) 0.72052(15)
N2A N -0.0303(2) 0.46099(16) 0.76086(15)
N3A N -0.2090(3) 0.51523(17) 0.62709(15)
N4A N 0.2066(3) 0.38583(16) 0.63468(15)
N5A N 0.0679(3) 0.66378(15) 0.51254(15)
N7A N 0.0873(2) 0.65163(15) -0.11889(14)
N8A N 0.2208(3) 0.38428(17) -0.06350(15)
N12A N -0.2034(2) 0.50613(17) 0.87495(15)
O1A O -0.40251(19) 0.55882(13) 0.73882(12)
O2A O -0.2578(2) 0.40324(13) 0.78167(12)
C24 C 0.5192(3) 0.8671(2) 0.43646(19)
C25 C 0.5610(3) 0.9328(2) 0.44439(18)
H17 H 0.5034 0.9841 0.4315
C26 C 0.6850(3) 0.9221(2) 0.47065(18)
H18 H 0.7110 0.9674 0.4734
C27 C 0.7733(3) 0.8483(2) 0.49323(19)
H19 H 0.8572 0.8434 0.5113
C28 C 0.7354(3) 0.7799(2) 0.48873(17)
H20 H 0.7935 0.7287 0.5044
C29 C 0.6069(3) 0.7898(2) 0.45982(19)
C30 C 0.5717(3) 0.71499(19) 0.46148(17)
H21 H 0.6315 0.6656 0.4839
C31 C 0.4457(3) 0.6311(2) 0.44006(19)
H22 H 0.5310 0.5967 0.4341
C32 C 0.3515(3) 0.6427(2) 0.37590(19)
H23 H 0.3998 0.6433 0.3311
H24 H 0.3078 0.5984 0.3882
C33 C 0.1295(3) 0.7303(2) 0.34635(17)
H25 H 0.1035 0.6840 0.3468
C34 C 0.0302(3) 0.8065(2) 0.32668(18)
C35 C -0.0977(3) 0.8002(2) 0.31756(18)
H26 H -0.1166 0.7497 0.3272
C36 C -0.1958(3) 0.8715(2) 0.29371(19)
H27 H -0.2819 0.8684 0.2879
C37 C -0.1692(3) 0.9475(2) 0.27818(18)
H28 H -0.2368 0.9944 0.2613
C38 C -0.0397(3) 0.9537(2) 0.28803(18)
H29 H -0.0202 1.0043 0.2761
C39 C 0.0593(3) 0.8811(2) 0.31642(18)
C40 C 0.4020(3) 0.59673(19) 0.51453(18)
H30 H 0.4732 0.5832 0.5503
H31 H 0.3741 0.5484 0.5177
H32 H 0.3297 0.6358 0.5249
C41 C 0.4209(3) 0.8796(2) 0.21318(18)
H33 H 0.3299 0.9079 0.2101
H34 H 0.4389 0.8581 0.1726
H35 H 0.4751 0.9167 0.2105
C42 C 0.1264(3) 0.87811(19) 0.49870(18)
H36 H 0.1913 0.9093 0.4918
H37 H 0.0981 0.8667 0.5490
H38 H 0.0523 0.9086 0.4648
Mn2 Mn 0.32111(5) 0.80841(3) 0.38044(3)
N9 N 0.4629(3) 0.71374(16) 0.43367(15)
N10 N 0.2528(3) 0.72160(16) 0.36350(15)
O3 O 0.3974(2) 0.88000(13) 0.40868(12)
O4 O 0.1819(2) 0.89090(13) 0.32460(12)
O5 O 0.4486(2) 0.81559(13) 0.28094(12)
H61 H 0.4541 0.7720 0.2709
O6 O 0.1907(2) 0.79158(13) 0.48239(12)
H62 H 0.1287 0.7715 0.4751
C43 C 0.4640(3) 0.1354(2) 0.19748(18)
C44 C 0.4291(3) 0.0665(2) 0.25163(18)
H39 H 0.4923 0.0185 0.2736
C45 C 0.2970(3) 0.0743(2) 0.27005(18)
H40 H 0.2721 0.0302 0.3041
C46 C 0.2010(3) 0.14701(19) 0.23850(19)
H41 H 0.1145 0.1502 0.2529
C47 C 0.2314(3) 0.2128(2) 0.18743(19)
H42 H 0.1663 0.2600 0.1659
C48 C 0.3651(3) 0.20816(19) 0.16742(19)
C49 C 0.3947(3) 0.2816(2) 0.11617(17)
H43 H 0.3271 0.3288 0.1025
C50 C 0.5258(3) 0.3649(2) 0.03889(18)
H44 H 0.4413 0.3965 0.0127
C51 C 0.6249(3) 0.3486(2) -0.01821(19)
H45 H 0.6630 0.3950 -0.0397
H46 H 0.5822 0.3394 -0.0580
C52 C 0.8546(3) 0.2688(2) 0.00682(18)
H47 H 0.8770 0.3141 -0.0268
C53 C 0.9573(3) 0.1972(2) 0.03950(19)
C54 C 1.0867(3) 0.2055(2) 0.02149(17)
H48 H 1.1009 0.2558 -0.0065
C55 C 1.1895(3) 0.13968(19) 0.04528(17)
H49 H 1.2746 0.1454 0.0342
C56 C 1.1694(3) 0.0623(2) 0.08671(18)
H50 H 1.2411 0.0175 0.1013
C57 C 1.0439(3) 0.0525(2) 0.10584(18)
H51 H 1.0313 0.0016 0.1335
C58 C 0.9346(3) 0.1214(2) 0.08250(19)
C59 C 0.5657(3) 0.4110(2) 0.08546(19)
H52 H 0.5293 0.3956 0.1338
H53 H 0.5332 0.4685 0.0612
H54 H 0.6600 0.3981 0.0909
C60 C 0.6041(3) 0.05944(19) 0.03301(19)
H55 H 0.6962 0.0378 0.0464
H56 H 0.5844 0.0481 -0.0110
H57 H 0.5536 0.0346 0.0732
C61 C 0.8662(4) 0.1716(2) 0.2292(2)
H58 H 0.9036 0.1945 0.2603
H59 H 0.9338 0.1499 0.2005
H60 H 0.8284 0.1288 0.2598
Mn1 Mn 0.66407(5) 0.19216(3) 0.10117(3)
N6 N 0.7316(2) 0.27326(16) 0.02196(14)
N11 N 0.5091(3) 0.28584(16) 0.08806(14)
O7 O 0.5891(2) 0.12509(13) 0.18045(12)
O8 O 0.8165(2) 0.11029(14) 0.10210(13)
O9 O 0.5673(2) 0.15633(13) 0.01693(12)
H63 H 0.4726 0.1757 0.0176
O10 O 0.7733(2) 0.22907(14) 0.18362(12)
H64 H 0.8075 0.2674 0.1583
O11 O 0.0826(5) 0.0668(3) 0.3971(3)
H65 H 0.0730 0.0519 0.3597
H66 H 0.1272 0.1026 0.3853
O12 O 0.6148(4) 0.7502(3) 0.0963(2)
H67 H 0.5960 0.7052 0.1199
H68 H 0.6473 0.7674 0.1266
O13 O 0.5848(4) 0.5436(3) 0.2222(3)
H69 H 0.5728 0.5724 0.1764
H70 H 0.5729 0.5746 0.2489
H71? H 0.6816 0.6988 0.2285
H72? H 0.6049 0.6428 0.2411
O14? O 0.6132(4) 0.6856(2) 0.2490(2)
loop_
_geom_bond_atom_site_label_1
_geom_bond_atom_site_label_2
_geom_bond_site_symmetry_1
_geom_bond_site_symmetry_2
C1 C2 1_555 1_555
C2 H1 1_555 1_555
C3 C2 1_555 1_555
H2 C3 1_555 1_555
C4 C3 1_555 1_555
H3 C4 1_555 1_555
C5 C4 1_555 1_555
H4 C5 1_555 1_555
C6 C1 1_555 1_555
C7 C6 1_555 1_555
H5 C7 1_555 1_555
C8 H6 1_555 1_555
C9 C8 1_555 1_555
H7 C9 1_555 1_555
H8 C9 1_555 1_555
C10 H9 1_555 1_555
C11 C10 1_555 1_555
C12 C11 1_555 1_555
H10 C12 1_555 1_555
C13 C12 1_555 1_555
H11 C13 1_555 1_555
C14 C13 1_555 1_555
H12 C14 1_555 1_555
C15 C14 1_555 1_555
H13 C15 1_555 1_555
C16 C11 1_555 1_555
C17 C8 1_555 1_555
H14 C17 1_555 1_555
H15 C17 1_555 1_555
H16 C17 1_555 1_555
C18 Cr1 1_555 1_555
C19 Cr1 1_555 1_555
C20 Cr1 1_555 1_555
C21 Cr2 1_555 1_555
C22 Cr2 1_555 1_555
C23 Cr2 1_555 1_555
C24 C25 1_555 1_555
C25 H17 1_555 1_555
C26 C25 1_555 1_555
H18 C26 1_555 1_555
C27 C26 1_555 1_555
H19 C27 1_555 1_555
C28 C27 1_555 1_555
H20 C28 1_555 1_555
C29 C24 1_555 1_555
C30 C29 1_555 1_555
H21 C30 1_555 1_555
C31 H22 1_555 1_555
C32 C31 1_555 1_555
H23 C32 1_555 1_555
H24 C32 1_555 1_555
C33 H25 1_555 1_555
C34 C33 1_555 1_555
C35 C34 1_555 1_555
H26 C35 1_555 1_555
C36 C35 1_555 1_555
H27 C36 1_555 1_555
C37 C36 1_555 1_555
H28 C37 1_555 1_555
C38 C37 1_555 1_555
H29 C38 1_555 1_555
C39 C34 1_555 1_555
C40 C31 1_555 1_555
H30 C40 1_555 1_555
H31 C40 1_555 1_555
H32 C40 1_555 1_555
C41 H33 1_555 1_555
H34 C41 1_555 1_555
H35 C41 1_555 1_555
C42 H36 1_555 1_555
H37 C42 1_555 1_555
H38 C42 1_555 1_555
C43 C44 1_555 1_555
C44 H39 1_555 1_555
C45 C44 1_555 1_555
H40 C45 1_555 1_555
C46 C45 1_555 1_555
H41 C46 1_555 1_555
C47 C46 1_555 1_555
H42 C47 1_555 1_555
C48 C43 1_555 1_555
C49 C48 1_555 1_555
H43 C49 1_555 1_555
C50 H44 1_555 1_555
C51 C50 1_555 1_555
H45 C51 1_555 1_555
H46 C51 1_555 1_555
C52 H47 1_555 1_555
C53 C52 1_555 1_555
C54 C53 1_555 1_555
H48 C54 1_555 1_555
C55 C54 1_555 1_555
H49 C55 1_555 1_555
C56 C55 1_555 1_555
H50 C56 1_555 1_555
C57 C56 1_555 1_555
H51 C57 1_555 1_555
C58 C53 1_555 1_555
C59 C50 1_555 1_555
H52 C59 1_555 1_555
H53 C59 1_555 1_555
H54 C59 1_555 1_555
C60 H55 1_555 1_555
H56 C60 1_555 1_555
H57 C60 1_555 1_555
C61 H58 1_555 1_555
H59 C61 1_555 1_555
H60 C61 1_555 1_555
Cr1 C18A 1_555 1_555
Cr2 C21A_2 1_555 1_555
Mn1 N6 1_555 1_555
Mn2 N9 1_555 1_555
Mn3 N1 1_555 1_555
N1 C7 1_555 1_555
N2 C9 1_555 1_555
N3 C18 1_555 1_555
N4 C19 1_555 1_555
N5 C20 1_555 1_555
N6 C51 1_555 1_555
N7 C22 1_555 1_555
N8 C23 1_555 1_555
N9 C30 1_555 1_555
N10 C32 1_555 1_555
N11 C49 1_555 1_555
N12 C21 1_555 1_555
O1 C1 1_555 1_555
O2 C16 1_555 1_555
O3 C24 1_555 1_555
O4 C39 1_555 1_555
O5 C41 1_555 1_555
H61 O5 1_555 1_555
O6 C42 1_555 1_555
H62 O6 1_555 1_555
O7 C43 1_555 1_555
O8 C58 1_555 1_555
O9 C60 1_555 1_555
H63 O9 1_555 1_555
O10 C61 1_555 1_555
H64 O10 1_555 1_555
O11 H65 1_555 1_555
H66 O11 1_555 1_555
O12 H67 1_555 1_555
H68 O12 1_555 1_555
O13 H69 1_555 1_555
H70 O13 1_555 1_555
C1A C2A 1_555 1_555
C2A H1A 1_555 1_555
C3A C2A 1_555 1_555
H2A C3A 1_555 1_555
C4A C3A 1_555 1_555
H3A C4A 1_555 1_555
C5A C4A 1_555 1_555
H4A C5A 1_555 1_555
C6A C1A 1_555 1_555
C7A C6A 1_555 1_555
H5A C7A 1_555 1_555
C8A H6A 1_555 1_555
C9A C8A 1_555 1_555
H7A C9A 1_555 1_555
H8A C9A 1_555 1_555
C10A H9A 1_555 1_555
C11A C10A 1_555 1_555
C12A C11A 1_555 1_555
H10A C12A 1_555 1_555
C13A C12A 1_555 1_555
H11A C13A 1_555 1_555
C14A C13A 1_555 1_555
H12A C14A 1_555 1_555
C15A C14A 1_555 1_555
H13A C15A 1_555 1_555
C16A C11A 1_555 1_555
C17A C8A 1_555 1_555
H14A C17A 1_555 1_555
H15A C17A 1_555 1_555
H16A C17A 1_555 1_555
C18A N3A 1_555 1_555
C19A Cr1 1_555 1_555
C20A Cr1 1_555 1_555
C21A Cr2_2 1_555 1_555
C22A Cr2 1_555 1_555
C23A Cr2 1_555 1_555
Mn3A N1A 1_555 1_555
N1A C7A 1_555 1_555
N2A C9A 1_555 1_555
N3A Mn3A 1_555 1_555
N4A C19A 1_555 1_555
N5A C20A 1_555 1_555
N7A C22A 1_555 1_555
N8A C23A 1_555 1_555
N12A C21A 1_555 1_555
O1A C1A 1_555 1_555
O2A C16A 1_555 1_555
C5 C6 1_555 1_555
C8 N1 1_555 1_555
C10 N2 1_555 1_555
C15 C16 1_555 1_555
C28 C29 1_555 1_555
C31 N9 1_555 1_555
C33 N10 1_555 1_555
C38 C39 1_555 1_555
C47 C48 1_555 1_555
C50 N11 1_555 1_555
C52 N6 1_555 1_555
C57 C58 1_555 1_555
Mn1 N11 1_555 1_555
Mn1 O7 1_555 1_555
Mn1 O8 1_555 1_555
Mn1 O9 1_555 1_555
Mn1 O10 1_555 1_555
Mn2 N10 1_555 1_555
Mn2 O3 1_555 1_555
Mn2 O4 1_555 1_555
Mn2 O5 1_555 1_555
Mn2 O6 1_555 1_555
Mn3 N2 1_555 1_555
Mn3 N3 1_555 1_555
Mn3 N12 1_555 1_555
Mn3 O1 1_555 1_555
Mn3 O2 1_555 1_555
C5A C6A 1_555 1_555
C8A N1A 1_555 1_555
C10A N2A 1_555 1_555
C15A C16A 1_555 1_555
Mn3A N2A 1_555 1_555
Mn3A N12A 1_555 1_555
Mn3A O1A 1_555 1_555
Mn3A O2A 1_555 1_555

#END
