
#######################################################################
#
#                 Cambridge Crystallographic Data Centre
#                                CCDC 
#
#######################################################################
#
# If this CIF has been generated from an entry in the Cambridge 
# Structural Database, then it will include bibliographic, chemical, 
# crystal, experimental, refinement or atomic coordinate data resulting 
# from the CCDC's data processing and validation procedures.
#
#######################################################################

data_NEFQAR
_symmetry_cell_setting           monoclinic
_symmetry_space_group_name_H-M   'P 21/n'
_symmetry_Int_Tables_number      14
_space_group_name_Hall           '-P 2yn'
loop_
_symmetry_equiv_pos_site_id
_symmetry_equiv_pos_as_xyz
1 x,y,z
2 1/2-x,1/2+y,1/2-z
3 -x,-y,-z
4 1/2+x,1/2-y,1/2+z
_cell_length_a                   9.0723(5)
_cell_length_b                   15.1897(8)
_cell_length_c                   16.6524(9)
_cell_angle_alpha                90
_cell_angle_beta                 91.8860(10)
_cell_angle_gamma                90
_cell_volume                     2293.55
loop_
_atom_site_label
_atom_site_type_symbol
_atom_site_fract_x
_atom_site_fract_y
_atom_site_fract_z
C1 C -0.1103(3) 0.28392(15) 0.07613(14)
H1 H -0.0219 0.2911 0.0501
C2 C -0.2400(3) 0.29249(16) 0.03144(15)
H2 H -0.2386 0.3057 -0.0231
C3 C -0.3715(3) 0.28119(14) 0.06883(16)
H3 H -0.4609 0.2857 0.0401
C4 C -0.3675(3) 0.26319(15) 0.14910(16)
H4 H -0.4545 0.2555 0.1762
C5 C -0.2340(3) 0.25659(14) 0.18927(14)
H5 H -0.2333 0.2449 0.2441
C6 C 0.3616(3) 0.29492(16) 0.32772(14)
H6 H 0.3152 0.3495 0.3266
C7 C 0.4910(3) 0.28624(18) 0.37249(14)
H7 H 0.5302 0.3338 0.4011
C8 C 0.5613(3) 0.20643(19) 0.37424(15)
H8 H 0.6484 0.1985 0.4044
C9 C 0.5001(3) 0.13842(17) 0.33039(14)
H9 H 0.5460 0.0837 0.3297
C10 C 0.3699(3) 0.15199(16) 0.28735(13)
H10 H 0.3294 0.1052 0.2581
C11 C -0.0073(3) 0.13249(15) 0.35274(14)
H11 H 0.0316 0.1785 0.3836
C12 C -0.0809(3) 0.06672(17) 0.39078(16)
H12 H -0.0932 0.0684 0.4460
C13 C -0.1363(3) -0.00209(18) 0.3452(2)
H13 H -0.1877 -0.0476 0.3691
C14 C -0.1149(3) -0.00271(16) 0.26429(18)
H14 H -0.1496 -0.0490 0.2324
C15 C -0.0411(3) 0.06655(15) 0.23119(15)
H15 H -0.0272 0.0661 0.1761
C16 C 0.2371(2) 0.19310(15) 0.06644(12)
C17 C 0.2821(2) 0.11976(14) 0.01114(12)
C18 C 0.2480(3) 0.03284(15) 0.02536(14)
H16 H 0.1959 0.0180 0.0706
C19 C 0.2902(3) -0.03237(15) -0.02684(15)
H17 H 0.2669 -0.0908 -0.0165
C20 C 0.3673(3) -0.01087(15) -0.09455(14)
H18 H 0.3959 -0.0550 -0.1294
C21 C 0.4019(2) 0.07581(13) -0.11053(12)
C22 C 0.3590(2) 0.13961(14) -0.05730(11)
H19 H 0.3825 0.1981 -0.0676
C23 C 0.4862(2) 0.10101(15) -0.18384(13)
H20 H 0.115(3) 0.3905(15) 0.1643(15)
H21 H 0.211(4) 0.350(2) 0.123(2)
N1 N -0.1041(2) 0.26605(11) 0.15418(11)
N2 N 0.01153(19) 0.13409(11) 0.27380(11)
N3 N 0.2992(2) 0.22878(12) 0.28557(11)
Ni1 Ni 0.09974(3) 0.247460(19) 0.219975(15)
O1 O 0.17270(16) 0.16992(9) 0.12911(8)
O2 O 0.26464(17) 0.27053(9) 0.04662(9)
O3 O 0.52068(16) 0.18125(9) -0.18790(8)
O4 O 0.5149(2) 0.04519(10) -0.23416(11)
O5 O 0.1940(3) 0.36099(13) 0.17545(12)
Ni1C Ni 0.59974(3) 0.252540(19) -0.280025(15)
O3C O 0.02068(16) 0.31875(9) 0.31210(8)
loop_
_geom_bond_atom_site_label_1
_geom_bond_atom_site_label_2
_geom_bond_site_symmetry_1
_geom_bond_site_symmetry_2
C1 H1 1_555 1_555
C2 C1 1_555 1_555
H2 C2 1_555 1_555
C3 C2 1_555 1_555
H3 C3 1_555 1_555
C4 C3 1_555 1_555
H4 C4 1_555 1_555
C5 C4 1_555 1_555
H5 C5 1_555 1_555
C6 H6 1_555 1_555
C7 C6 1_555 1_555
H7 C7 1_555 1_555
C8 C7 1_555 1_555
H8 C8 1_555 1_555
C9 C8 1_555 1_555
H9 C9 1_555 1_555
C10 C9 1_555 1_555
H10 C10 1_555 1_555
C11 H11 1_555 1_555
C12 C11 1_555 1_555
H12 C12 1_555 1_555
C13 C12 1_555 1_555
H13 C13 1_555 1_555
C14 C13 1_555 1_555
H14 C14 1_555 1_555
C15 C14 1_555 1_555
H15 C15 1_555 1_555
C16 C17 1_555 1_555
C17 C18 1_555 1_555
C18 H16 1_555 1_555
C19 C18 1_555 1_555
H17 C19 1_555 1_555
C20 C19 1_555 1_555
H18 C20 1_555 1_555
C21 C20 1_555 1_555
C22 C17 1_555 1_555
H19 C22 1_555 1_555
C23 C21 1_555 1_555
H20 O5 1_555 1_555
H21 O5 1_555 1_555
N1 C1 1_555 1_555
N2 C11 1_555 1_555
N3 C6 1_555 1_555
Ni1 N1 1_555 1_555
O1 C16 1_555 1_555
O2 C16 1_555 1_555
O3 C23 1_555 1_555
O4 C23 1_555 1_555
O5 Ni1 1_555 1_555
Ni1C O3 1_555 1_555
O3C Ni1 1_555 1_555
C5 N1 1_555 1_555
C10 N3 1_555 1_555
C15 N2 1_555 1_555
C21 C22 1_555 1_555
N2 Ni1 1_555 1_555
N3 Ni1 1_555 1_555
Ni1 O1 1_555 1_555

#END
