
#######################################################################
#
#                 Cambridge Crystallographic Data Centre
#                                CCDC 
#
#######################################################################
#
# If this CIF has been generated from an entry in the Cambridge 
# Structural Database, then it will include bibliographic, chemical, 
# crystal, experimental, refinement or atomic coordinate data resulting 
# from the CCDC's data processing and validation procedures.
#
#######################################################################

data_NEFTOJ
_symmetry_cell_setting           orthorhombic
_symmetry_space_group_name_H-M   'P b c n'
_symmetry_Int_Tables_number      60
_space_group_name_Hall           '-P 2n 2ab'
loop_
_symmetry_equiv_pos_site_id
_symmetry_equiv_pos_as_xyz
1 x,y,z
2 1/2-x,1/2-y,1/2+z
3 1/2+x,1/2-y,-z
4 -x,y,1/2-z
5 -x,-y,-z
6 1/2+x,1/2+y,1/2-z
7 1/2-x,1/2+y,z
8 x,-y,1/2+z
_cell_length_a                   12.0546(7)
_cell_length_b                   14.5444(7)
_cell_length_c                   20.4026(11)
_cell_angle_alpha                90
_cell_angle_beta                 90
_cell_angle_gamma                90
_cell_volume                     3577.13
loop_
_atom_site_label
_atom_site_type_symbol
_atom_site_fract_x
_atom_site_fract_y
_atom_site_fract_z
Cu1 Cu 0.42745(5) 0.36510(5) 0.70022(3)
O1 O 0.3550(4) 0.4638(3) 0.7532(2)
O2 O 0.4722(4) 0.4572(3) 0.8381(2)
O3 O 0.1464(4) 0.7701(3) 0.7531(2)
O4 O 0.0283(4) 0.7718(3) 0.8368(2)
N1 N 0.3206(4) 0.6315(3) 1.1171(3)
N2 N 0.2593(5) 0.6257(3) 1.0155(3)
N3 N 0.2048(5) 0.6337(4) 1.1190(3)
C1 C 0.3865(6) 0.4866(4) 0.8077(3)
C2 C 0.3196(5) 0.5554(4) 0.8454(3)
C3 C 0.1126(6) 0.7466(4) 0.8075(3)
C4 C 0.2548(6) 0.6206(4) 0.9458(3)
C5 C 0.1847(6) 0.6793(4) 0.9128(3)
H1 H 0.1384 0.7193 0.9355
C6 C 0.3221(5) 0.5579(4) 0.9124(3)
H2 H 0.3682 0.5183 0.9355
C7 C 0.2498(6) 0.6160(4) 0.8096(3)
H3 H 0.2482 0.6141 0.7640
C8 C 0.1845(5) 0.6775(4) 0.8435(3)
C9 C 0.1728(6) 0.6322(6) 1.0585(3)
H4 H 0.0989 0.6353 1.0457
C10 C 0.3501(6) 0.6253(5) 1.0556(3)
H5 H 0.4231 0.6211 1.0411
Cu1C Cu 0.57255(5) 0.36510(5) 0.79978(3)
Cu1F Cu 0.07255(5) 0.86510(5) 0.70022(3)
Cu1E Cu -0.07255(5) 0.86510(5) 0.79978(3)
Cu1G Cu 0.42745(5) 0.63490(5) 1.20022(3)
O2C O 0.5278(4) 0.4572(3) 0.6619(2)
O3F O 0.3536(4) 0.2701(3) 0.7531(2)
O4E O 0.5283(4) 0.2718(3) 0.6632(2)
N1G N 0.3206(4) 0.3685(3) 0.6171(3)
loop_
_geom_bond_atom_site_label_1
_geom_bond_atom_site_label_2
_geom_bond_site_symmetry_1
_geom_bond_site_symmetry_2
Cu1 O1 1_555 1_555
O1 C1 1_555 1_555
O2 C1 1_555 1_555
O3 C3 1_555 1_555
O4 C3 1_555 1_555
N1 N3 1_555 1_555
N2 C4 1_555 1_555
N3 C9 1_555 1_555
C1 C2 1_555 1_555
C2 C6 1_555 1_555
C3 C8 1_555 1_555
C4 C5 1_555 1_555
C5 H1 1_555 1_555
C6 C4 1_555 1_555
H2 C6 1_555 1_555
C7 C2 1_555 1_555
H3 C7 1_555 1_555
C8 C5 1_555 1_555
C9 N2 1_555 1_555
H4 C9 1_555 1_555
C10 N1 1_555 1_555
H5 C10 1_555 1_555
Cu1C O2 1_555 1_555
Cu1F O3 1_555 1_555
Cu1E O4 1_555 1_555
Cu1G N1 1_555 1_555
O2C Cu1 1_555 1_555
O3F Cu1 1_555 1_555
O4E Cu1 1_555 1_555
N1G Cu1 1_555 1_555
N2 C10 1_555 1_555
C7 C8 1_555 1_555

#END
