
#######################################################################
#
#                 Cambridge Crystallographic Data Centre
#                                CCDC 
#
#######################################################################
#
# If this CIF has been generated from an entry in the Cambridge 
# Structural Database, then it will include bibliographic, chemical, 
# crystal, experimental, refinement or atomic coordinate data resulting 
# from the CCDC's data processing and validation procedures.
#
#######################################################################

data_NEFTOI
_symmetry_cell_setting           triclinic
_symmetry_space_group_name_H-M   'P -1'
_symmetry_Int_Tables_number      2
_space_group_name_Hall           '-P 1'
loop_
_symmetry_equiv_pos_site_id
_symmetry_equiv_pos_as_xyz
1 x,y,z
2 -x,-y,-z
_cell_length_a                   7.5264(4)
_cell_length_b                   10.0492(6)
_cell_length_c                   10.4543(5)
_cell_angle_alpha                87.806(4)
_cell_angle_beta                 82.513(3)
_cell_angle_gamma                86.215(3)
_cell_volume                     781.9
loop_
_atom_site_label
_atom_site_type_symbol
_atom_site_fract_x
_atom_site_fract_y
_atom_site_fract_z
Lu1 Lu 0.22057(2) 0.264446(15) 0.547240(16)
O1 O 0.2223(4) 0.2431(3) 0.3245(3)
O2 O 0.2636(4) 0.4468(3) 0.3769(3)
C1 C 0.2439(5) 0.3665(4) 0.2916(4)
C2 C 0.2450(5) 0.4078(4) 0.1533(4)
C3 C 0.2705(6) 0.5392(4) 0.1114(4)
H1 H 0.2900 0.6027 0.1696
C4 C 0.2666(6) 0.5747(4) -0.0180(4)
H2 H 0.2857 0.6622 -0.0459
C5 C 0.2350(5) 0.4827(4) -0.1067(4)
C6 C 0.2298(5) 0.5198(4) -0.2464(4)
C7 C 0.2097(7) 0.3517(4) -0.0635(4)
H3 H 0.1889 0.2884 -0.1216
C8 C 0.2153(7) 0.3148(4) 0.0647(4)
H4 H 0.1990 0.2267 0.0919
O3 O 0.2108(5) 0.4298(3) -0.3228(3)
O4 O 0.2382(5) 0.6404(3) -0.2820(3)
O5 O 0.3594(4) 0.1474(3) 0.7030(3)
O6 O 0.6562(4) 0.1476(3) 0.6806(3)
C9 C 0.5077(5) 0.1225(4) 0.7447(4)
C10 C 0.5056(5) 0.0586(4) 0.8764(4)
C11 C 0.3546(5) -0.0050(4) 0.9319(4)
H5 H 0.2565 -0.0086 0.8867
C12 C 0.6497(6) 0.0632(4) 0.9455(4)
H6 H 0.7510 0.1059 0.9091
O7 O 0.5171(4) 0.2686(3) 0.4829(3)
O8 O 0.2015(5) 0.0435(3) 0.5028(3)
O9 O -0.0691(4) 0.3410(3) 0.5129(3)
O10 O 0.0077(4) 0.1785(3) 0.7120(3)
H7 H 0.5701 0.2296 0.5384
H8 H 0.5785 0.3141 0.4298
H9 H 0.1743 -0.0031 0.5676
H10 H 0.2596 0.0007 0.4445
H11 H -0.1072 0.3812 0.5787
H12 H -0.0997 0.3551 0.4409
H13 H 0.0457 0.1025 0.7292
H14 H -0.1003 0.1765 0.7085
Lu1_2 Lu 0.22057(2) 0.264446(15) 1.547240(16)
Lu1_3 Lu 0.22057(2) 0.264446(15) -0.452760(16)
Lu1A Lu 0.77943(2) -0.264446(15) 1.452760(16)
O1_2 O 0.2223(4) 0.2431(3) 1.3245(3)
O2_2 O 0.2636(4) 0.4468(3) 1.3769(3)
C1_2 C 0.2439(5) 0.3665(4) 1.2916(4)
C2_2 C 0.2450(5) 0.4078(4) 1.1533(4)
C3_2 C 0.2705(6) 0.5392(4) 1.1114(4)
H1_2 H 0.2900 0.6027 1.1696
C4_2 C 0.2666(6) 0.5747(4) 0.9820(4)
H2_2 H 0.2857 0.6622 0.9541
C5_2 C 0.2350(5) 0.4827(4) 0.8933(4)
C6_2 C 0.2298(5) 0.5198(4) 0.7536(4)
C7_2 C 0.2097(7) 0.3517(4) 0.9365(4)
H3_2 H 0.1889 0.2884 0.8784
C8_2 C 0.2153(7) 0.3148(4) 1.0647(4)
H4_2 H 0.1990 0.2267 1.0919
O3_2 O 0.2108(5) 0.4298(3) 0.6772(3)
O3_3 O 0.2108(5) 0.4298(3) 1.6772(3)
O4_2 O 0.2382(5) 0.6404(3) 0.7180(3)
O5A O 0.6406(4) -0.1474(3) 1.2970(3)
O5_2 O 0.3594(4) 0.1474(3) 1.7030(3)
O6A O 0.3438(4) -0.1476(3) 1.3194(3)
C9A C 0.4923(5) -0.1225(4) 1.2553(4)
C10A C 0.4944(5) -0.0586(4) 1.1236(4)
C11A C 0.6454(5) 0.0050(4) 1.0681(4)
H5A H 0.7435 0.0086 1.1133
C12A C 0.3503(6) -0.0632(4) 1.0545(4)
H6A H 0.2490 -0.1059 1.0909
O7_2 O 0.5171(4) 0.2686(3) 1.4829(3)
O8_2 O 0.2015(5) 0.0435(3) 1.5028(3)
O9_2 O -0.0691(4) 0.3410(3) 1.5129(3)
O10_2 O 0.0077(4) 0.1785(3) 1.7120(3)
H7_2 H 0.5701 0.2296 1.5384
H8_2 H 0.5785 0.3141 1.4298
H9_2 H 0.1743 -0.0031 1.5676
H10_2 H 0.2596 0.0007 1.4445
H11_2 H -0.1072 0.3812 1.5787
H12_2 H -0.0997 0.3551 1.4409
H13_2 H 0.0457 0.1025 1.7292
H14_2 H -0.1003 0.1765 1.7085
O11 O 0.0707(4) 0.8968(3) 0.7239(4)
H15 H 0.1231 0.8259 0.7422
H16 H -0.0237 0.8609 0.7222
loop_
_geom_bond_atom_site_label_1
_geom_bond_atom_site_label_2
_geom_bond_site_symmetry_1
_geom_bond_site_symmetry_2
Lu1 O1 1_555 1_555
O1 C1 1_555 1_555
O2 Lu1 1_555 1_555
C1 O2 1_555 1_555
C2 C1 1_555 1_555
C3 C2 1_555 1_555
H1 C3 1_555 1_555
C4 C3 1_555 1_555
H2 C4 1_555 1_555
C5 C4 1_555 1_555
C6 C5 1_555 1_555
C7 C5 1_555 1_555
H3 C7 1_555 1_555
C8 C2 1_555 1_555
H4 C8 1_555 1_555
O3 C6 1_555 1_555
O4 C6 1_555 1_555
O5 Lu1 1_555 1_555
O6 C9 1_555 1_555
C9 O5 1_555 1_555
C10 C9 1_555 1_555
C11 C10 1_555 1_555
H5 C11 1_555 1_555
C12 C10 1_555 1_555
H6 C12 1_555 1_555
O7 Lu1 1_555 1_555
O8 Lu1 1_555 1_555
O9 Lu1 1_555 1_555
O10 Lu1 1_555 1_555
O11 H15 1_555 1_555
H7 O7 1_555 1_555
H8 O7 1_555 1_555
H9 O8 1_555 1_555
H10 O8 1_555 1_555
H11 O9 1_555 1_555
H12 O9 1_555 1_555
H13 O10 1_555 1_555
H14 O10 1_555 1_555
H16 O11 1_555 1_555
Lu1_2 O1_2 1_555 1_555
Lu1_3 O3 1_555 1_555
Lu1A O5A 1_555 1_555
O1_2 C1_2 1_555 1_555
O2_2 Lu1_2 1_555 1_555
C1_2 O2_2 1_555 1_555
C2_2 C1_2 1_555 1_555
C3_2 C2_2 1_555 1_555
H1_2 C3_2 1_555 1_555
C4_2 C3_2 1_555 1_555
H2_2 C4_2 1_555 1_555
C5_2 C4_2 1_555 1_555
C6_2 C5_2 1_555 1_555
C7_2 C5_2 1_555 1_555
H3_2 C7_2 1_555 1_555
C8_2 C2_2 1_555 1_555
H4_2 C8_2 1_555 1_555
O3_2 Lu1 1_555 1_555
O3_3 Lu1_2 1_555 1_555
O4_2 C6_2 1_555 1_555
O5A C9A 1_555 1_555
O5_2 Lu1_2 1_555 1_555
O6A C9A 1_555 1_555
C9A C10A 1_555 1_555
C10A C11A 1_555 1_555
C11A C12 1_555 1_555
H5A C11A 1_555 1_555
C12A C11 1_555 1_555
H6A C12A 1_555 1_555
O7_2 Lu1_2 1_555 1_555
O8_2 Lu1_2 1_555 1_555
O9_2 Lu1_2 1_555 1_555
O10_2 Lu1_2 1_555 1_555
H7_2 O7_2 1_555 1_555
H8_2 O7_2 1_555 1_555
H9_2 O8_2 1_555 1_555
H10_2 O8_2 1_555 1_555
H11_2 O9_2 1_555 1_555
H12_2 O9_2 1_555 1_555
H13_2 O10_2 1_555 1_555
H14_2 O10_2 1_555 1_555
C7 C8 1_555 1_555
C6_2 O3_2 1_555 1_555
C7_2 C8_2 1_555 1_555
C10A C12A 1_555 1_555

#END
