
#######################################################################
#
#                 Cambridge Crystallographic Data Centre
#                                CCDC 
#
#######################################################################
#
# If this CIF has been generated from an entry in the Cambridge 
# Structural Database, then it will include bibliographic, chemical, 
# crystal, experimental, refinement or atomic coordinate data resulting 
# from the CCDC's data processing and validation procedures.
#
#######################################################################

data_NEFVUP
_symmetry_cell_setting           triclinic
_symmetry_space_group_name_H-M   'P -1'
_symmetry_Int_Tables_number      2
_space_group_name_Hall           '-P 1'
loop_
_symmetry_equiv_pos_site_id
_symmetry_equiv_pos_as_xyz
1 x,y,z
2 -x,-y,-z
_cell_length_a                   8.591(5)
_cell_length_b                   9.308(4)
_cell_length_c                   10.571(4)
_cell_angle_alpha                95.58(2)
_cell_angle_beta                 94.96(3)
_cell_angle_gamma                95.78(4)
_cell_volume                     833.064
loop_
_atom_site_label
_atom_site_type_symbol
_atom_site_fract_x
_atom_site_fract_y
_atom_site_fract_z
Pb1 Pb -0.2503(1) -0.0163(1) 0.0190(1)
O1 O -0.5167(1) -0.1720(10) -0.0147(9)
C1 C -0.5757(16) -0.2690(13) 0.0459(12)
C2 C -0.7343(15) -0.3127(14) 0.0722(13)
C3 C -0.6780(17) -0.4239(15) 0.1469(13)
C4 C -0.5172(16) -0.3819(15) 0.1193(13)
O2 O -0.8642(11) -0.2674(11) 0.0407(10)
N1 N -0.7454(14) -0.5205(13) 0.2125(11)
C5 C -0.9142(20) -0.5331(19) 0.2252(18)
C6 C -0.6565(20) -0.6255(16) 0.2719(16)
O3 O -0.3880(12) -0.4237(11) 0.1513(11)
O4 O 0.0145(11) 0.0464(11) 0.1557(9)
C7 C 0.0699(15) -0.0175(14) 0.2468(12)
C8 C 0.0109(16) -0.0893(15) 0.3514(12)
C9 C 0.1706(16) -0.1216(14) 0.3890(12)
C10 C 0.2288(16) -0.0450(15) 0.2877(11)
O5 O -0.1192(12) -0.1181(12) 0.3924(10)
N2 N 0.2335(15) -0.1985(13) 0.4727(12)
C11 C 0.1398(20) -0.2664(18) 0.5641(14)
C12 C 0.4000(17) -0.2177(18) 0.4833(15)
O6 O 0.3587(11) -0.0141(12) 0.2438(9)
O7 O -0.3290(12) -0.0154(13) 0.2349(10)
O8 O -0.1730(12) -0.2589(12) 0.0481(13)
H1 H -0.9411(20) -0.6106(19) 0.2771(18)
H2 H -0.9717(20) -0.5547(19) 0.1413(18)
H3 H -0.9417(20) -0.4422(19) 0.2656(18)
H4 H -0.7259(20) -0.6877(16) 0.3161(16)
H5 H -0.5731(20) -0.5746(16) 0.3325(16)
H6 H -0.6111(20) -0.6841(16) 0.2068(16)
H7 H 0.2060(20) -0.3186(18) 0.6182(14)
H8 H 0.0553(20) -0.3336(18) 0.5184(14)
H9 H 0.0959(20) -0.1921(18) 0.6164(14)
H10 H 0.4225(17) -0.2781(18) 0.5510(15)
H11 H 0.4616(17) -0.1237(18) 0.5030(15)
H12 H 0.4268(17) -0.2641(18) 0.4031(15)
O1A O -0.4833(1) 0.1720(10) 0.0147(9)
O2A O -0.1358(11) 0.2674(11) -0.0407(10)
O4A O -0.0145(11) -0.0464(11) -0.1557(9)
O6A O -0.3587(11) 0.0141(12) -0.2438(9)
Pb1A Pb -0.7497(1) 0.0163(1) -0.0190(1)
Pb1A_2 Pb 0.2503(1) 0.0163(1) -0.0190(1)
O9 O -0.2629(18) -0.4021(15) 0.4113(13)
loop_
_geom_bond_atom_site_label_1
_geom_bond_atom_site_label_2
_geom_bond_site_symmetry_1
_geom_bond_site_symmetry_2
Pb1 O1 1_555 1_555
O1 C1 1_555 1_555
C1 C2 1_555 1_555
C2 C3 1_555 1_555
C3 C4 1_555 1_555
C4 C1 1_555 1_555
O2 C2 1_555 1_555
N1 C3 1_555 1_555
C5 N1 1_555 1_555
C6 N1 1_555 1_555
O3 C4 1_555 1_555
O4 Pb1 1_555 1_555
C7 O4 1_555 1_555
C8 C7 1_555 1_555
C9 C8 1_555 1_555
C10 C7 1_555 1_555
O5 C8 1_555 1_555
N2 C9 1_555 1_555
C11 N2 1_555 1_555
C12 N2 1_555 1_555
O6 C10 1_555 1_555
O7 Pb1 1_555 1_555
O8 Pb1 1_555 1_555
H1 C5 1_555 1_555
H2 C5 1_555 1_555
H3 C5 1_555 1_555
H4 C6 1_555 1_555
H5 C6 1_555 1_555
H6 C6 1_555 1_555
H7 C11 1_555 1_555
H8 C11 1_555 1_555
H9 C11 1_555 1_555
H10 C12 1_555 1_555
H11 C12 1_555 1_555
H12 C12 1_555 1_555
O1A Pb1 1_555 1_555
O2A Pb1 1_555 1_555
O4A Pb1 1_555 1_555
O6A Pb1 1_555 1_555
Pb1A O1 1_555 1_555
Pb1A_2 O4 1_555 1_555
O2 Pb1A 1_555 1_555
C9 C10 1_555 1_555
O6 Pb1A_2 1_555 1_555
O1A Pb1A 1_555 1_555
O4A Pb1A_2 1_555 1_555

#END
