
#######################################################################
#
#                 Cambridge Crystallographic Data Centre
#                                CCDC 
#
#######################################################################
#
# If this CIF has been generated from an entry in the Cambridge 
# Structural Database, then it will include bibliographic, chemical, 
# crystal, experimental, refinement or atomic coordinate data resulting 
# from the CCDC's data processing and validation procedures.
#
#######################################################################

data_NEFZUU
_symmetry_cell_setting           orthorhombic
_symmetry_space_group_name_H-M   'P n a 21'
_symmetry_Int_Tables_number      33
_space_group_name_Hall           'P 2c -2n'
loop_
_symmetry_equiv_pos_site_id
_symmetry_equiv_pos_as_xyz
1 x,y,z
2 -x,-y,1/2+z
3 1/2-x,1/2+y,1/2+z
4 1/2+x,1/2-y,z
_cell_length_a                   13.3899(18)
_cell_length_b                   14.2532(16)
_cell_length_c                   37.468(5)
_cell_angle_alpha                90
_cell_angle_beta                 90
_cell_angle_gamma                90
_cell_volume                     7150.73
loop_
_atom_site_label
_atom_site_type_symbol
_atom_site_fract_x
_atom_site_fract_y
_atom_site_fract_z
Sb1 Sb 0.70253(5) 0.24740(6) 0.45985(2)
F1 F 0.7516(9) 0.1391(8) 0.4811(3)
F2 F 0.8278(7) 0.3035(10) 0.4592(3)
F3 F 0.6820(7) 0.3001(8) 0.5046(2)
F4 F 0.5753(6) 0.1946(8) 0.4600(3)
F5 F 0.7246(10) 0.1914(8) 0.4156(2)
F6 F 0.6543(9) 0.3521(7) 0.4381(4)
Sb2 Sb 0.48203(5) 0.67118(4) 0.391641(18)
F7 F 0.5826(5) 0.5824(5) 0.38441(18)
F8 F 0.4877(4) 0.6497(5) 0.44105(18)
F9 F 0.5777(7) 0.7652(7) 0.3974(2)
F10 F 0.4753(6) 0.6980(6) 0.34273(19)
F11 F 0.3891(4) 0.5733(5) 0.38668(17)
F12 F 0.3772(7) 0.7539(6) 0.4015(2)
Sb3 Sb 0.28518(5) 0.25177(6) 0.13907(2)
F13 F 0.4131(7) 0.2024(10) 0.1381(3)
F14 F 0.3028(11) 0.2982(15) 0.1845(3)
F15 F 0.3416(12) 0.3553(8) 0.1200(5)
F16 F 0.2708(7) 0.2139(11) 0.0933(2)
F17 F 0.2356(19) 0.1506(10) 0.1602(6)
F18 F 0.1606(6) 0.3024(9) 0.1381(3)
Sb4 Sb 0.06176(5) -0.16760(5) 0.209493(19)
F19 F 0.1652(10) -0.2512(7) 0.2028(3)
F20 F 0.1504(5) -0.0698(6) 0.2118(2)
F21 F 0.0666(7) -0.1815(7) 0.25846(19)
F22 F -0.0270(10) -0.2663(7) 0.2059(3)
F23 F 0.0553(5) -0.1531(5) 0.15938(18)
F24 F -0.0411(4) -0.0807(5) 0.21415(19)
Cu1 Cu 0.23032(8) -0.24819(8) 0.50903(3)
Cu2 Cu -0.01916(8) -0.53310(8) 0.39023(4)
Cu3 Cu 0.05248(8) -0.53204(8) 0.21011(4)
Cu4 Cu 0.30839(7) -0.25459(8) 0.09123(3)
N1 N -0.2244(5) -0.3609(5) 0.4728(2)
N2 N -0.1246(5) -0.2581(5) 0.5228(2)
N3 N 0.0842(5) -0.2560(5) 0.5227(2)
N4 N 0.1868(5) -0.3564(5) 0.47261(19)
N5 N 0.0826(5) -0.4710(5) 0.42344(19)
N6 N -0.1191(5) -0.4713(5) 0.4228(2)
N7 N -0.0016(6) -0.5035(5) 0.33697(19)
N8 N -0.0251(5) -0.6665(5) 0.3728(2)
N9 N -0.0347(5) -0.8381(5) 0.3351(2)
N10 N -0.0009(6) -0.8374(5) 0.2616(2)
N11 N 0.0352(5) -0.6670(5) 0.2268(2)
N12 N 0.0310(5) -0.5026(5) 0.2624(2)
N13 N -0.0492(5) -0.4684(5) 0.1763(2)
N14 N 0.1543(5) -0.4673(5) 0.17862(18)
N15 N 0.2631(5) -0.3607(5) 0.12831(18)
N16 N 0.1650(5) -0.2591(5) 0.07793(19)
N17 N -0.0481(5) -0.2546(5) 0.0780(2)
N18 N -0.1511(5) -0.3557(5) 0.1270(2)
C1 C -0.0723(7) -0.2134(9) 0.5469(3)
H1 H -0.1057 -0.1820 0.5651
C2 C 0.0326(7) -0.2112(8) 0.5462(3)
H2 H 0.0661 -0.1762 0.5634
C3 C 0.2325(7) -0.4080(7) 0.4478(2)
H3 H 0.3019 -0.4066 0.4468
C4 C 0.1819(7) -0.4637(6) 0.4235(3)
H4 H 0.2184 -0.4970 0.4066
C5 C -0.2193(6) -0.4660(6) 0.4240(2)
H5 H -0.2557 -0.5000 0.4073
C6 C -0.2716(6) -0.4125(7) 0.4490(2)
H6 H -0.3411 -0.4131 0.4488
C7 C -0.0705(5) -0.3090(6) 0.4995(2)
C8 C 0.0327(5) -0.3088(6) 0.4992(2)
C9 C 0.0860(6) -0.3636(6) 0.4724(2)
C10 C 0.0347(6) -0.4180(6) 0.4488(2)
C11 C -0.0727(6) -0.4186(6) 0.4482(2)
C12 C -0.1265(6) -0.3652(5) 0.4730(2)
C13 C 0.0131(7) -0.4242(6) 0.3192(2)
H7 H 0.0138 -0.3677 0.3317
C14 C 0.0276(8) -0.4232(7) 0.2822(3)
H8 H 0.0353 -0.3657 0.2708
C15 C 0.0374(7) -0.7477(6) 0.2093(3)
H9 H 0.0534 -0.7483 0.1852
C16 C 0.0158(8) -0.8322(8) 0.2267(3)
H10 H 0.0131 -0.8870 0.2133
C17 C -0.0500(8) -0.8325(7) 0.3701(3)
H11 H -0.0654 -0.8872 0.3825
C18 C -0.0441(6) -0.7484(7) 0.3891(3)
H12 H -0.0536 -0.7492 0.4137
C19 C 0.0021(6) -0.5846(6) 0.3183(2)
C20 C 0.0181(6) -0.5842(6) 0.2819(2)
C21 C 0.0191(5) -0.6718(6) 0.2630(2)
C22 C 0.0012(5) -0.7554(6) 0.2793(2)
C23 C -0.0174(6) -0.7565(5) 0.3180(2)
C24 C -0.0136(5) -0.6714(5) 0.3370(2)
C25 C -0.1482(7) -0.4653(8) 0.1754(3)
H13 H -0.1852 -0.5021 0.1911
C26 C -0.1985(7) -0.4058(7) 0.1505(3)
H14 H -0.2679 -0.4029 0.1511
C27 C 0.0069(7) -0.2098(8) 0.0523(3)
H15 H -0.0254 -0.1750 0.0348
C28 C 0.1118(7) -0.2160(8) 0.0522(2)
H16 H 0.1463 -0.1887 0.0333
C29 C 0.3066(6) -0.4097(7) 0.1540(2)
H17 H 0.3759 -0.4085 0.1558
C30 C 0.2528(7) -0.4628(7) 0.1786(2)
H18 H 0.2877 -0.4967 0.1958
C31 C 0.0000(6) -0.4175(6) 0.1520(2)
C32 C -0.0504(6) -0.3602(5) 0.1275(2)
C33 C 0.0033(5) -0.3055(6) 0.1015(2)
C34 C 0.1093(5) -0.3082(5) 0.10184(19)
C35 C 0.1619(6) -0.3628(6) 0.1281(2)
C36 C 0.1087(6) -0.4175(6) 0.1529(2)
Cu1C Cu -0.26968(8) -0.25181(8) 0.50903(3)
Cu4C Cu -0.19161(7) -0.24541(8) 0.09123(3)
N1C N 0.2756(5) -0.1391(5) 0.4728(2)
N2C N 0.3754(5) -0.2419(5) 0.5228(2)
N17C N 0.4519(5) -0.2454(5) 0.0780(2)
N18C N 0.3489(5) -0.1443(5) 0.1270(2)
C37 C 0.3636(8) -0.4985(11) 0.5360(4)
H19 H 0.2988 -0.4980 0.5271
C38 C 0.3798(10) -0.4984(11) 0.5726(4)
H20 H 0.3257 -0.4978 0.5882
C39 C 0.4766(12) -0.4992(12) 0.5860(4)
H21 H 0.4874 -0.4992 0.6105
C40 C 0.5574(9) -0.5001(14) 0.5626(4)
H22 H 0.6222 -0.5007 0.5716
C41 C 0.5412(9) -0.5002(12) 0.5260(4)
H23 H 0.5952 -0.5008 0.5104
C42 C 0.4444(10) -0.4994(10) 0.5127(4)
H24 H 0.4336 -0.4995 0.4881
C43 C 0.7404(7) 0.4454(6) 0.2849(3)
H25 H 0.7426 0.5045 0.2744
C44 C 0.7570(7) 0.3657(8) 0.2644(2)
H26 H 0.7702 0.3715 0.2401
C45 C 0.7537(6) 0.2774(6) 0.2801(3)
H27 H 0.7648 0.2241 0.2663
C46 C 0.7339(7) 0.2687(6) 0.3163(3)
H28 H 0.7317 0.2097 0.3268
C47 C 0.7174(6) 0.3484(8) 0.3369(2)
H29 H 0.7042 0.3426 0.3612
C48 C 0.7207(7) 0.4367(6) 0.3212(3)
H30 H 0.7096 0.4900 0.3350
C49 C 0.5419(6) -0.0619(5) 0.02185(16)
H31 H 0.5441 -0.1032 0.0027
C50 C 0.6301(6) -0.0302(5) 0.03724(16)
H32 H 0.6913 -0.0502 0.0283
C51 C 0.6268(5) 0.0315(5) 0.06595(16)
H33 H 0.6858 0.0528 0.0762
C52 C 0.5353(5) 0.0615(4) 0.07926(14)
H34 H 0.5331 0.1028 0.0985
C53 C 0.4471(5) 0.0297(4) 0.06386(16)
H35 H 0.3859 0.0498 0.0728
C54 C 0.4504(6) -0.0320(5) 0.03516(17)
H36 H 0.3914 -0.0532 0.0249
N19 N 0.2905(4) 0.4872(3) 0.29294(14)
O1 O 0.2383(5) 0.4797(4) 0.32057(15)
O2 O 0.2631(4) 0.4541(4) 0.26360(15)
C55 C 0.3887(4) 0.5349(4) 0.29310(16)
H37 H 0.4345 0.5010 0.2782
H38 H 0.4142 0.5369 0.3170
H39 H 0.3812 0.5976 0.2842
N20 N 0.2748(16) -0.2393(14) 0.2916(5)
O3 O 0.250(2) -0.3162(16) 0.2753(6)
O4 O 0.3279(13) -0.1807(12) 0.2791(4)
C56 C 0.2261(16) -0.2288(14) 0.3262(5)
H40 H 0.2640 -0.1862 0.3407
H41 H 0.2225 -0.2888 0.3378
H42 H 0.1599 -0.2045 0.3228
loop_
_geom_bond_atom_site_label_1
_geom_bond_atom_site_label_2
_geom_bond_site_symmetry_1
_geom_bond_site_symmetry_2
Sb1 F1 1_555 1_555
Sb2 F7 1_555 1_555
Sb3 F13 1_555 1_555
Sb4 F19 1_555 1_555
Cu1 N3 1_555 1_555
Cu2 N5 1_555 1_555
Cu3 N11 1_555 1_555
Cu4 N15 1_555 1_555
F2 Sb1 1_555 1_555
F3 Sb1 1_555 1_555
F4 Sb1 1_555 1_555
F5 Sb1 1_555 1_555
F6 Sb1 1_555 1_555
F8 Sb2 1_555 1_555
F9 Sb2 1_555 1_555
F10 Sb2 1_555 1_555
F11 Sb2 1_555 1_555
F12 Sb2 1_555 1_555
F14 Sb3 1_555 1_555
F15 Sb3 1_555 1_555
F16 Sb3 1_555 1_555
F17 Sb3 1_555 1_555
F18 Sb3 1_555 1_555
F20 Sb4 1_555 1_555
F21 Sb4 1_555 1_555
F22 Sb4 1_555 1_555
F23 Sb4 1_555 1_555
F24 Sb4 1_555 1_555
N1 C6 1_555 1_555
N2 C1 1_555 1_555
N3 C2 1_555 1_555
N4 Cu1 1_555 1_555
N5 C4 1_555 1_555
N6 Cu2 1_555 1_555
N7 Cu2 1_555 1_555
N8 Cu2 1_555 1_555
N9 C17 1_555 1_555
N10 C16 1_555 1_555
N11 C15 1_555 1_555
N12 Cu3 1_555 1_555
N13 Cu3 1_555 1_555
N14 Cu3 1_555 1_555
N15 C29 1_555 1_555
N16 Cu4 1_555 1_555
N17 C27 1_555 1_555
N18 C26 1_555 1_555
C1 H1 1_555 1_555
C2 C1 1_555 1_555
H2 C2 1_555 1_555
C3 N4 1_555 1_555
H3 C3 1_555 1_555
C4 C3 1_555 1_555
H4 C4 1_555 1_555
C5 N6 1_555 1_555
H5 C5 1_555 1_555
C6 C5 1_555 1_555
H6 C6 1_555 1_555
C7 N2 1_555 1_555
C8 N3 1_555 1_555
C9 N4 1_555 1_555
C10 N5 1_555 1_555
C11 N6 1_555 1_555
C12 N1 1_555 1_555
C13 N7 1_555 1_555
H7 C13 1_555 1_555
C14 N12 1_555 1_555
H8 C14 1_555 1_555
C15 H9 1_555 1_555
C16 C15 1_555 1_555
H10 C16 1_555 1_555
C17 H11 1_555 1_555
C18 N8 1_555 1_555
H12 C18 1_555 1_555
C19 N7 1_555 1_555
C20 N12 1_555 1_555
C21 N11 1_555 1_555
C22 N10 1_555 1_555
C23 N9 1_555 1_555
C24 N8 1_555 1_555
C25 N13 1_555 1_555
H13 C25 1_555 1_555
C26 C25 1_555 1_555
H14 C26 1_555 1_555
C27 H15 1_555 1_555
C28 N16 1_555 1_555
H16 C28 1_555 1_555
C29 H17 1_555 1_555
C30 N14 1_555 1_555
H18 C30 1_555 1_555
C31 N13 1_555 1_555
C32 N18 1_555 1_555
C33 N17 1_555 1_555
C34 N16 1_555 1_555
C35 N15 1_555 1_555
C36 N14 1_555 1_555
C37 H19 1_555 1_555
C38 C37 1_555 1_555
H20 C38 1_555 1_555
C39 C38 1_555 1_555
H21 C39 1_555 1_555
C40 C39 1_555 1_555
H22 C40 1_555 1_555
C41 C40 1_555 1_555
H23 C41 1_555 1_555
C42 C37 1_555 1_555
H24 C42 1_555 1_555
C43 H25 1_555 1_555
C44 C43 1_555 1_555
H26 C44 1_555 1_555
C45 C44 1_555 1_555
H27 C45 1_555 1_555
C46 C45 1_555 1_555
H28 C46 1_555 1_555
C47 C46 1_555 1_555
H29 C47 1_555 1_555
C48 C43 1_555 1_555
H30 C48 1_555 1_555
C49 H31 1_555 1_555
C50 C49 1_555 1_555
H32 C50 1_555 1_555
C51 C50 1_555 1_555
H33 C51 1_555 1_555
C52 C51 1_555 1_555
H34 C52 1_555 1_555
C53 C52 1_555 1_555
H35 C53 1_555 1_555
C54 C49 1_555 1_555
H36 C54 1_555 1_555
N19 O1 1_555 1_555
O2 N19 1_555 1_555
C55 N19 1_555 1_555
H37 C55 1_555 1_555
H38 C55 1_555 1_555
H39 C55 1_555 1_555
N20 O3 1_555 1_555
O4 N20 1_555 1_555
C56 N20 1_555 1_555
H40 C56 1_555 1_555
H41 C56 1_555 1_555
H42 C56 1_555 1_555
Cu1C N1 1_555 1_555
Cu4C N17 1_555 1_555
N1C Cu1 1_555 1_555
N2C Cu1 1_555 1_555
N17C Cu4 1_555 1_555
N18C Cu4 1_555 1_555
N2 Cu1C 1_555 1_555
N18 Cu4C 1_555 1_555
C7 C8 1_555 1_555
C7 C12 1_555 1_555
C8 C9 1_555 1_555
C9 C10 1_555 1_555
C10 C11 1_555 1_555
C11 C12 1_555 1_555
C13 C14 1_555 1_555
C17 C18 1_555 1_555
C19 C20 1_555 1_555
C19 C24 1_555 1_555
C20 C21 1_555 1_555
C21 C22 1_555 1_555
C22 C23 1_555 1_555
C23 C24 1_555 1_555
C27 C28 1_555 1_555
C29 C30 1_555 1_555
C31 C32 1_555 1_555
C31 C36 1_555 1_555
C32 C33 1_555 1_555
C33 C34 1_555 1_555
C34 C35 1_555 1_555
C35 C36 1_555 1_555
C41 C42 1_555 1_555
C47 C48 1_555 1_555
C53 C54 1_555 1_555

#END
