
#######################################################################
#
#                 Cambridge Crystallographic Data Centre
#                                CCDC 
#
#######################################################################
#
# If this CIF has been generated from an entry in the Cambridge 
# Structural Database, then it will include bibliographic, chemical, 
# crystal, experimental, refinement or atomic coordinate data resulting 
# from the CCDC's data processing and validation procedures.
#
#######################################################################

data_NEFZII
_symmetry_cell_setting           monoclinic
_symmetry_space_group_name_H-M   'P 21/c'
_symmetry_Int_Tables_number      14
_space_group_name_Hall           '-P 2ybc'
loop_
_symmetry_equiv_pos_site_id
_symmetry_equiv_pos_as_xyz
1 x,y,z
2 -x,1/2+y,1/2-z
3 -x,-y,-z
4 x,1/2-y,1/2+z
_cell_length_a                   16.766(12)
_cell_length_b                   13.565(13)
_cell_length_c                   24.967(19)
_cell_angle_alpha                90
_cell_angle_beta                 103.80(4)
_cell_angle_gamma                90
_cell_volume                     5514.36
loop_
_atom_site_label
_atom_site_type_symbol
_atom_site_fract_x
_atom_site_fract_y
_atom_site_fract_z
Cu1 Cu 0.33539(4) -0.35442(5) 0.14048(3)
Cu2 Cu 0.28384(5) 0.13268(5) 0.07970(3)
Cu3 Cu 0.17122(5) -0.66013(6) 0.30028(3)
N1 N 0.2762(3) -0.4167(3) 0.19448(19)
N2 N 0.3277(3) -0.4880(4) 0.1078(2)
N3 N 0.4473(3) -0.2942(4) 0.1741(2)
N4 N 0.3081(3) -0.2203(3) 0.1120(2)
N5 N 0.5845(3) -0.1742(4) 0.2138(3)
N6 N 0.5719(3) 0.0296(4) 0.1918(2)
N7 N 0.2923(3) -0.0177(4) 0.0901(2)
N8 N 0.4243(3) 0.1034(4) 0.1246(2)
N9 N 0.2534(3) -0.8172(3) 0.1500(2)
N10 N 0.3218(3) -0.6916(4) 0.0855(2)
N11 N 0.2513(3) 0.1528(3) -0.0023(2)
N12 N 0.1221(3) 0.1275(4) 0.0481(2)
N13 N -0.0396(3) 0.1250(4) -0.0157(2)
N14 N -0.0701(3) 0.1305(4) -0.1298(2)
N15 N 0.0633(3) 0.1519(4) -0.1792(2)
N16 N 0.2167(3) 0.1636(4) -0.1177(2)
N17 N 0.2113(3) -0.5442(4) 0.2618(2)
N18 N 0.2019(3) -0.7393(3) 0.2414(2)
C1 C 0.2474(4) -0.3836(4) 0.2365(3)
H1 H 0.2484 -0.3162 0.2435
C2 C 0.2705(3) -0.5146(4) 0.1851(2)
C3 C 0.2984(3) -0.5532(4) 0.1390(2)
C4 C 0.2945(4) -0.6537(4) 0.1279(2)
C5 C 0.3495(5) -0.6272(5) 0.0548(3)
H2 H 0.3683 -0.6504 0.0250
C6 C 0.3522(4) -0.5254(5) 0.0649(3)
H3 H 0.3713 -0.4833 0.0413
C7 C 0.5162(4) -0.3307(5) 0.2035(3)
H4 H 0.5200 -0.3977 0.2118
C8 C 0.5832(4) -0.2700(6) 0.2224(4)
H5 H 0.6312 -0.2991 0.2426
C9 C 0.2389(3) -0.1801(4) 0.0827(2)
H6 H 0.1942 -0.2207 0.0685
C10 C 0.2316(4) -0.0796(4) 0.0728(3)
H7 H 0.1814 -0.0550 0.0531
C11 C 0.3707(3) -0.1559(4) 0.1301(2)
C12 C 0.4460(3) -0.1965(4) 0.1635(2)
C13 C 0.5133(4) -0.1360(4) 0.1835(3)
C14 C 0.5077(4) -0.0302(4) 0.1714(2)
C15 C 0.4334(3) 0.0075(4) 0.1388(2)
C16 C 0.3647(3) -0.0564(4) 0.1191(2)
C17 C 0.5607(4) 0.1238(5) 0.1775(3)
H8 H 0.6033 0.1679 0.1909
C18 C 0.4885(4) 0.1600(5) 0.1437(3)
H9 H 0.4855 0.2264 0.1341
C19 C 0.0582(4) 0.1198(5) 0.0703(3)
H10 H 0.0672 0.1144 0.1084
C20 C -0.0213(4) 0.1195(5) 0.0386(3)
H11 H -0.0640 0.1153 0.0564
C21 C 0.3092(4) 0.1653(5) -0.0293(3)
H12 H 0.3633 0.1711 -0.0092
C22 C 0.2927(4) 0.1703(5) -0.0868(3)
H13 H 0.3360 0.1784 -0.1038
C23 C 0.1055(3) 0.1354(4) -0.0073(2)
C24 C 0.1734(3) 0.1455(4) -0.0333(2)
C25 C 0.1573(3) 0.1521(4) -0.0904(2)
C26 C 0.0740(3) 0.1470(4) -0.1236(2)
C27 C 0.0081(3) 0.1367(4) -0.0993(2)
C28 C 0.0246(3) 0.1319(4) -0.0398(3)
C29 C -0.0789(4) 0.1358(5) -0.1834(3)
H14 H -0.1317 0.1322 -0.2059
C30 C -0.0131(4) 0.1467(5) -0.2088(3)
H15 H -0.0235 0.1503 -0.2471
C31 C 0.2159(3) -0.4471(4) 0.2704(3)
H16 H 0.1976 -0.4210 0.2998
C32 C 0.2389(3) -0.5776(4) 0.2186(2)
C33 C 0.2335(3) -0.6815(4) 0.2072(2)
C34 C 0.2601(3) -0.7192(4) 0.1620(2)
C35 C 0.1970(4) -0.8349(5) 0.2292(3)
H17 H 0.1767 -0.8779 0.2518
C36 C 0.2217(4) -0.8729(5) 0.1833(3)
H18 H 0.2156 -0.9401 0.1760
Cu2_2 Cu 0.28384(5) -0.86732(5) 0.07970(3)
Cu3C Cu 0.17122(5) 0.16013(6) -0.19972(3)
N9_2 N 0.2534(3) 0.1828(3) 0.1500(2)
N10_2 N 0.3218(3) 0.3084(4) 0.0855(2)
N15C N 0.0633(3) -0.6519(4) 0.3208(2)
N16C N 0.2167(3) -0.6636(4) 0.3823(2)
F1 F 0.3696(4) -0.0210(4) 0.2515(2)
F2 F 0.2764(4) -0.1315(5) 0.2135(2)
F3 F 0.3575(8) -0.1625(5) 0.2938(4)
F4 F 0.2658(5) -0.0512(6) 0.2872(3)
B1 B 0.3205(6) -0.0953(7) 0.2621(4)
F5 F 0.0181(3) -0.7843(4) 0.1796(2)
F6 F -0.1010(4) -0.7945(5) 0.1997(4)
F7 F -0.0049(6) -0.8878(6) 0.2434(3)
F8 F -0.0628(4) -0.9188(4) 0.1562(2)
B2 B -0.0344(5) -0.8511(7) 0.1937(4)
F9 F 0.5712(7) -0.6467(8) -0.0109(4)
F10 F 0.5013(6) -0.7675(7) 0.0233(4)
F11 F 0.6020(5) -0.8035(6) -0.0149(3)
F12 F 0.4773(6) -0.7433(8) -0.0671(4)
B3 B 0.5347(10) -0.7373(11) -0.0172(6)
O1 O 0.1757(14) -1.0248(18) 0.4345(9)
O2 O 0.1532(7) -0.8759(9) 0.4413(5)
N19 N 0.1637(9) -0.9391(11) 0.4136(6)
C43 C 0.1492(14) -0.9311(17) 0.3600(9)
H25 H 0.1359 -0.9947 0.3435
H26 H 0.1971 -0.9056 0.3500
H27 H 0.1039 -0.8869 0.3472
O3 O 0.3298(9) -0.9171(10) 0.4323(6)
O4 O 0.3418(8) -0.8699(9) 0.3556(5)
N20 N 0.3652(9) -0.9212(11) 0.3931(6)
C44 C 0.4285(11) -1.0056(13) 0.4001(7)
H28 H 0.4140 -1.0563 0.4228
H29 H 0.4821 -0.9806 0.4171
H30 H 0.4288 -1.0325 0.3645
O7 O 0.2208(8) -0.4081(11) 0.4549(6)
O8 O 0.2939(9) -0.4092(11) 0.3966(6)
N22 N 0.2541(9) -0.3616(11) 0.4214(6)
C46 C 0.2482(14) -0.2563(17) 0.4145(9)
O11 O 0.5090(18) -1.087(2) 0.3411(12)
C37 C 0.0611(5) -0.4352(9) 0.1362(4)
H19 H 0.0507 -0.3921 0.1627
C38 C 0.0520(6) -0.5330(11) 0.1422(5)
H20 H 0.0344 -0.5559 0.1725
C39 C 0.0673(7) -0.5976(9) 0.1062(6)
H21 H 0.0615 -0.6646 0.1120
C40 C 0.0920(7) -0.5661(11) 0.0601(6)
H22 H 0.1017 -0.6107 0.0341
C41 C 0.1020(6) -0.4631(11) 0.0539(5)
H23 H 0.1200 -0.4388 0.0239
C42 C 0.0849(5) -0.3996(7) 0.0925(5)
H24 H 0.0898 -0.3319 0.0884
F13? F 0.4864(11) -0.6231(13) -0.0208(7)
F14? F 0.5957(8) -0.7019(10) -0.0243(5)
F15? F 0.4804(8) -0.7790(12) -0.0665(6)
F16? F 0.5065(12) -0.7453(14) 0.0301(8)
O5? O 0.4413(8) -0.5015(9) 0.4353(6)
O6? O 0.4028(11) -0.4682(14) 0.5064(7)
O9? O 0.2027(9) -0.2748(11) 0.4571(6)
O10? O 0.2236(11) -0.4328(14) 0.4348(8)
N21? N 0.4609(6) -0.4935(7) 0.4807(4)
N23? N 0.2331(12) -0.3413(15) 0.4372(8)
C45? C 0.4609(6) -0.4935(7) 0.4807(4)
H31? H 0.3005 -0.2268 0.4306
H32? H 0.2077 -0.2311 0.4324
H33? H 0.2325 -0.2407 0.3759
C47? C 0.2945(12) -0.3054(15) 0.4032(8)
H34? H 0.2761 -0.2434 0.3860
H35? H 0.2970 -0.3532 0.3753
H36? H 0.3480 -0.2975 0.4272
B4? B 0.507(2) -0.717(3) -0.0255(14)
loop_
_geom_bond_atom_site_label_1
_geom_bond_atom_site_label_2
_geom_bond_site_symmetry_1
_geom_bond_site_symmetry_2
Cu1 N1 1_555 1_555
Cu2 N7 1_555 1_555
Cu3 N17 1_555 1_555
F1 B1 1_555 1_555
F2 B1 1_555 1_555
F3 B1 1_555 1_555
F4 B1 1_555 1_555
F5 B2 1_555 1_555
F6 B2 1_555 1_555
F7 B2 1_555 1_555
F8 B2 1_555 1_555
F9 B3 1_555 1_555
F10 B3 1_555 1_555
F11 B3 1_555 1_555
F12 B3 1_555 1_555
O1 N19 1_555 1_555
O2 N19 1_555 1_555
O3 N20 1_555 1_555
O4 N20 1_555 1_555
O7 N22 1_555 1_555
O8 N22 1_555 1_555
N1 C1 1_555 1_555
N2 Cu1 1_555 1_555
N3 Cu1 1_555 1_555
N4 Cu1 1_555 1_555
N5 C8 1_555 1_555
N6 C14 1_555 1_555
N7 C10 1_555 1_555
N8 Cu2 1_555 1_555
N9 C34 1_555 1_555
N10 C4 1_555 1_555
N11 Cu2 1_555 1_555
N12 C19 1_555 1_555
N13 C20 1_555 1_555
N14 C27 1_555 1_555
N15 C26 1_555 1_555
N16 C22 1_555 1_555
N17 C31 1_555 1_555
N18 Cu3 1_555 1_555
N19 C43 1_555 1_555
N20 C44 1_555 1_555
N22 C46 1_555 1_555
C1 H1 1_555 1_555
C2 N1 1_555 1_555
C3 N2 1_555 1_555
C4 C3 1_555 1_555
C5 N10 1_555 1_555
H2 C5 1_555 1_555
C6 N2 1_555 1_555
H3 C6 1_555 1_555
C7 N3 1_555 1_555
H4 C7 1_555 1_555
C8 C7 1_555 1_555
H5 C8 1_555 1_555
C9 N4 1_555 1_555
H6 C9 1_555 1_555
C10 C9 1_555 1_555
H7 C10 1_555 1_555
C11 N4 1_555 1_555
C12 N3 1_555 1_555
C13 N5 1_555 1_555
C14 C13 1_555 1_555
C15 N8 1_555 1_555
C16 N7 1_555 1_555
C17 N6 1_555 1_555
H8 C17 1_555 1_555
C18 N8 1_555 1_555
H9 C18 1_555 1_555
C19 H10 1_555 1_555
C20 C19 1_555 1_555
H11 C20 1_555 1_555
C21 N11 1_555 1_555
H12 C21 1_555 1_555
C22 C21 1_555 1_555
H13 C22 1_555 1_555
C23 N12 1_555 1_555
C24 N11 1_555 1_555
C25 N16 1_555 1_555
C26 C25 1_555 1_555
C27 C26 1_555 1_555
C28 N13 1_555 1_555
C29 N14 1_555 1_555
H14 C29 1_555 1_555
C30 N15 1_555 1_555
H15 C30 1_555 1_555
C31 C1 1_555 1_555
H16 C31 1_555 1_555
C32 N17 1_555 1_555
C33 N18 1_555 1_555
C34 C4 1_555 1_555
C35 N18 1_555 1_555
H17 C35 1_555 1_555
C36 N9 1_555 1_555
H18 C36 1_555 1_555
C37 H19 1_555 1_555
C38 C37 1_555 1_555
H20 C38 1_555 1_555
C39 C38 1_555 1_555
H21 C39 1_555 1_555
C40 C39 1_555 1_555
H22 C40 1_555 1_555
C41 C40 1_555 1_555
H23 C41 1_555 1_555
C42 C37 1_555 1_555
H24 C42 1_555 1_555
C43 H25 1_555 1_555
H26 C43 1_555 1_555
H27 C43 1_555 1_555
C44 H28 1_555 1_555
H29 C44 1_555 1_555
H30 C44 1_555 1_555
Cu2_2 N9 1_555 1_555
Cu3C N15 1_555 1_555
N9_2 Cu2 1_555 1_555
N10_2 Cu2 1_555 1_555
N15C Cu3 1_555 1_555
N16C Cu3 1_555 1_555
N10 Cu2_2 1_555 1_555
N16 Cu3C 1_555 1_555
C2 C3 1_555 1_555
C2 C32 1_555 1_555
C5 C6 1_555 1_555
C11 C12 1_555 1_555
C11 C16 1_555 1_555
C12 C13 1_555 1_555
C14 C15 1_555 1_555
C15 C16 1_555 1_555
C17 C18 1_555 1_555
C23 C24 1_555 1_555
C23 C28 1_555 1_555
C24 C25 1_555 1_555
C27 C28 1_555 1_555
C29 C30 1_555 1_555
C32 C33 1_555 1_555
C33 C34 1_555 1_555
C35 C36 1_555 1_555
C41 C42 1_555 1_555

#END
