
#######################################################################
#
#                 Cambridge Crystallographic Data Centre
#                                CCDC 
#
#######################################################################
#
# If this CIF has been generated from an entry in the Cambridge 
# Structural Database, then it will include bibliographic, chemical, 
# crystal, experimental, refinement or atomic coordinate data resulting 
# from the CCDC's data processing and validation procedures.
#
#######################################################################

data_NEGDIN
_symmetry_cell_setting           triclinic
_symmetry_space_group_name_H-M   'P -1'
_symmetry_Int_Tables_number      2
_space_group_name_Hall           '-P 1'
loop_
_symmetry_equiv_pos_site_id
_symmetry_equiv_pos_as_xyz
1 x,y,z
2 -x,-y,-z
_cell_length_a                   8.1061(9)
_cell_length_b                   9.9873(11)
_cell_length_c                   11.0040(12)
_cell_angle_alpha                80.155(13)
_cell_angle_beta                 87.947(13)
_cell_angle_gamma                87.234(13)
_cell_volume                     876.377
loop_
_atom_site_label
_atom_site_type_symbol
_atom_site_fract_x
_atom_site_fract_y
_atom_site_fract_z
Ag1 Ag -0.69755(3) 0.47125(2) 0.46671(2)
N1 N -0.5558(3) 0.3253(2) 0.37868(18)
C1 C -0.4731(3) 0.2202(2) 0.4460(2)
H1 H -0.4797 0.2110 0.5316
C2 C -0.3789(3) 0.1251(2) 0.3938(2)
H2 H -0.3222 0.0542 0.4433
C3 C -0.5459(3) 0.3362(2) 0.2549(2)
H3 H -0.6033 0.4085 0.2076
C4 C -0.4547(3) 0.2454(2) 0.1947(2)
H4 H -0.4504 0.2565 0.1090
C5 C -0.3696(3) 0.1368(2) 0.2658(2)
C6 C -0.2673(3) 0.0327(2) 0.2104(2)
O1 O -0.1613(3) -0.04020(18) 0.26449(16)
O2 O -0.3079(2) 0.03129(16) 0.09450(14)
C7 C -0.2185(3) -0.0686(2) 0.0328(2)
H5 H -0.1019 -0.0723 0.0505
H6 H -0.2614 -0.1582 0.0597
C8 C -0.2445(3) -0.0224(2) -0.1021(2)
H7 H -0.2008 0.0668 -0.1293
H8 H -0.3611 -0.0183 -0.1199
O3 O -0.1557(2) -0.12348(16) -0.16207(14)
C9 C -0.1613(3) -0.1030(2) -0.2847(2)
O4 O -0.2381(2) -0.01095(17) -0.34539(15)
C10 C -0.0600(3) -0.2093(2) -0.3392(2)
C11 C 0.0127(3) -0.3232(2) -0.2680(2)
H9 H -0.0023 -0.3383 -0.1826
C12 C 0.1080(3) -0.4141(2) -0.3254(2)
H10 H 0.1551 -0.4910 -0.2771
C13 C -0.0354(3) -0.1916(2) -0.4668(2)
H11 H -0.0844 -0.1171 -0.5172
C14 C 0.0623(3) -0.2856(2) -0.5176(2)
H12 H 0.0787 -0.2727 -0.6028
N2 N 0.1351(3) -0.3957(2) -0.44828(19)
Ag1A Ag -0.30245(3) 0.52875(2) 0.53329(2)
Ag1_2 Ag 0.30245(3) -0.52875(2) -0.53329(2)
N2_2 N -0.8649(3) 0.6043(2) 0.55172(19)
N3 N -0.4673(3) 0.3279(2) 0.7752(2)
O5 O -0.4934(3) 0.3193(2) 0.88820(17)
O6 O -0.3223(3) 0.3304(2) 0.73328(19)
O7 O -0.5858(3) 0.3372(2) 0.70538(19)
O8 O -0.8002(3) 1.4312(2) 0.9619(2)
O9 O -1.1125(3) 1.3321(3) 0.9493(3)
loop_
_geom_bond_atom_site_label_1
_geom_bond_atom_site_label_2
_geom_bond_site_symmetry_1
_geom_bond_site_symmetry_2
Ag1 N1 1_555 1_555
N1 C1 1_555 1_555
C1 H1 1_555 1_555
C2 C1 1_555 1_555
H2 C2 1_555 1_555
C3 N1 1_555 1_555
H3 C3 1_555 1_555
C4 C3 1_555 1_555
H4 C4 1_555 1_555
C5 C2 1_555 1_555
C6 C5 1_555 1_555
O1 C6 1_555 1_555
O2 C6 1_555 1_555
C7 O2 1_555 1_555
H5 C7 1_555 1_555
H6 C7 1_555 1_555
C8 C7 1_555 1_555
H7 C8 1_555 1_555
H8 C8 1_555 1_555
O3 C8 1_555 1_555
C9 O3 1_555 1_555
O4 C9 1_555 1_555
C10 C9 1_555 1_555
C11 C10 1_555 1_555
H9 C11 1_555 1_555
C12 C11 1_555 1_555
H10 C12 1_555 1_555
C13 C10 1_555 1_555
H11 C13 1_555 1_555
C14 C13 1_555 1_555
H12 C14 1_555 1_555
N2 C12 1_555 1_555
N3 O5 1_555 1_555
O6 N3 1_555 1_555
O7 N3 1_555 1_555
Ag1A Ag1 1_555 1_555
Ag1_2 N2 1_555 1_555
N2_2 Ag1 1_555 1_555
C4 C5 1_555 1_555
C14 N2 1_555 1_555

#END
