
#######################################################################
#
#                 Cambridge Crystallographic Data Centre
#                                CCDC 
#
#######################################################################
#
# If this CIF has been generated from an entry in the Cambridge 
# Structural Database, then it will include bibliographic, chemical, 
# crystal, experimental, refinement or atomic coordinate data resulting 
# from the CCDC's data processing and validation procedures.
#
#######################################################################

data_NEGDOT
_symmetry_cell_setting           monoclinic
_symmetry_space_group_name_H-M   'P 21/n'
_symmetry_Int_Tables_number      14
_space_group_name_Hall           '-P 2yn'
loop_
_symmetry_equiv_pos_site_id
_symmetry_equiv_pos_as_xyz
1 x,y,z
2 1/2-x,1/2+y,1/2-z
3 -x,-y,-z
4 1/2+x,1/2-y,1/2+z
_cell_length_a                   11.6742(8)
_cell_length_b                   11.0728(6)
_cell_length_c                   12.1813(9)
_cell_angle_alpha                90
_cell_angle_beta                 99.019(6)
_cell_angle_gamma                90
_cell_volume                     1555.16
loop_
_atom_site_label
_atom_site_type_symbol
_atom_site_fract_x
_atom_site_fract_y
_atom_site_fract_z
Ag1 Ag -0.273580(17) 0.156610(19) -0.68455(2)
N1 N -0.0844(2) 0.1401(2) -0.6177(2)
C1 C -0.0251(2) 0.2266(2) -0.5557(2)
H1 H -0.0651 0.2945 -0.5376
C2 C 0.0929(2) 0.2195(2) -0.5176(2)
H2 H 0.1313 0.2817 -0.4757
C3 C -0.0258(2) 0.0424(2) -0.6417(2)
H3 H -0.0660 -0.0183 -0.6844
C4 C 0.0917(2) 0.0272(2) -0.6060(2)
H4 H 0.1294 -0.0425 -0.6236
C5 C 0.1521(2) 0.1180(2) -0.5433(2)
C6 C 0.2789(2) 0.0994(2) -0.5048(2)
O1 O 0.32603(19) 0.0034(2) -0.5047(3)
O2 O 0.33097(16) 0.20227(18) -0.47086(18)
C7 C 0.4540(2) 0.1920(3) -0.4298(3)
H5 H 0.4943 0.1541 -0.4846
H6 H 0.4676 0.1452 -0.3617
C8 C 0.4933(2) 0.3212(3) -0.4090(3)
H7 H 0.4854 0.3665 -0.4779
H8 H 0.4492 0.3610 -0.3584
O3 O 0.61386(15) 0.30913(18) -0.36003(17)
C9 C 0.6729(2) 0.4122(2) -0.3485(2)
O4 O 0.63152(17) 0.51128(17) -0.36391(18)
C10 C 0.7993(2) 0.3901(2) -0.3112(2)
C11 C 0.8423(2) 0.2841(2) -0.2596(2)
H9 H 0.7924 0.2216 -0.2475
C12 C 0.9606(2) 0.2730(2) -0.2264(2)
H10 H 0.9891 0.2022 -0.1911
C13 C 0.8767(2) 0.4798(2) -0.3280(3)
H11 H 0.8506 0.5521 -0.3619
C14 C 0.9935(2) 0.4606(2) -0.2938(3)
H12 H 1.0452 0.5209 -0.3069
N2 N 1.0360(2) 0.3598(2) -0.2429(2)
N3 N -0.26150(18) 0.4322(2) -0.6393(2)
O5 O -0.2941(3) 0.3605(2) -0.5723(2)
O6 O -0.24638(19) 0.3940(2) -0.73331(18)
O7 O -0.2444(2) 0.5393(2) -0.6152(2)
Ag1C Ag 1.226420(17) 0.343390(19) -0.18455(2)
N2C N -0.4640(2) 0.1402(2) -0.7429(2)
loop_
_geom_bond_atom_site_label_1
_geom_bond_atom_site_label_2
_geom_bond_site_symmetry_1
_geom_bond_site_symmetry_2
Ag1 N1 1_555 1_555
N1 C1 1_555 1_555
C1 H1 1_555 1_555
C2 C1 1_555 1_555
H2 C2 1_555 1_555
C3 N1 1_555 1_555
H3 C3 1_555 1_555
C4 C3 1_555 1_555
H4 C4 1_555 1_555
C5 C2 1_555 1_555
C6 C5 1_555 1_555
O1 C6 1_555 1_555
O2 C6 1_555 1_555
C7 O2 1_555 1_555
H5 C7 1_555 1_555
H6 C7 1_555 1_555
C8 C7 1_555 1_555
H7 C8 1_555 1_555
H8 C8 1_555 1_555
O3 C8 1_555 1_555
C9 O3 1_555 1_555
O4 C9 1_555 1_555
C10 C9 1_555 1_555
C11 C10 1_555 1_555
H9 C11 1_555 1_555
C12 C11 1_555 1_555
H10 C12 1_555 1_555
C13 C10 1_555 1_555
H11 C13 1_555 1_555
C14 C13 1_555 1_555
H12 C14 1_555 1_555
N2 C12 1_555 1_555
N3 O5 1_555 1_555
O5 Ag1 1_555 1_555
O6 N3 1_555 1_555
O7 N3 1_555 1_555
Ag1C N2 1_555 1_555
N2C Ag1 1_555 1_555
C4 C5 1_555 1_555
C14 N2 1_555 1_555

#END
