
#######################################################################
#
#                 Cambridge Crystallographic Data Centre
#                                CCDC 
#
#######################################################################
#
# If this CIF has been generated from an entry in the Cambridge 
# Structural Database, then it will include bibliographic, chemical, 
# crystal, experimental, refinement or atomic coordinate data resulting 
# from the CCDC's data processing and validation procedures.
#
#######################################################################

data_NEGDEJ
_symmetry_cell_setting           orthorhombic
_symmetry_space_group_name_H-M   'C c c a'
_symmetry_Int_Tables_number      68
_space_group_name_Hall           '-C 2b 2bc'
loop_
_symmetry_equiv_pos_site_id
_symmetry_equiv_pos_as_xyz
1 x,y,z
2 1/2+x,1/2+y,z
3 1/2-x,-y,z
4 -x,y,1/2-z
5 1/2+x,-y,1/2-z
6 -x,1/2-y,z
7 1/2-x,1/2+y,1/2-z
8 x,1/2-y,1/2-z
9 -x,-y,-z
10 1/2-x,1/2-y,-z
11 1/2+x,y,-z
12 x,-y,1/2+z
13 1/2-x,y,1/2+z
14 x,1/2+y,-z
15 1/2+x,1/2-y,1/2+z
16 -x,1/2+y,1/2+z
_cell_length_a                   17.463(4)
_cell_length_b                   19.599(4)
_cell_length_c                   21.204(4)
_cell_angle_alpha                90
_cell_angle_beta                 90
_cell_angle_gamma                90
_cell_volume                     7257.22
loop_
_atom_site_label
_atom_site_type_symbol
_atom_site_fract_x
_atom_site_fract_y
_atom_site_fract_z
Ag1 Ag 0.33098(2) 0.21723(2) 0.48992(3)
N1 N 0.2649(2) 0.1478(2) 0.43160(18)
C1 C 0.2222(3) 0.0967(2) 0.4569(2)
H1 H 0.2226 0.0912 0.5004
C2 C 0.1792(2) 0.0531(2) 0.4220(2)
H2 H 0.1500 0.0195 0.4416
C3 C 0.1792(2) 0.0595(2) 0.35620(19)
C4 C 0.2227(2) 0.1120(2) 0.32965(19)
H3 H 0.2241 0.1177 0.2861
C5 C 0.2633(3) 0.1548(3) 0.3680(2)
H4 H 0.2909 0.1902 0.3497
C6 C 0.1338(2) 0.0097(2) 0.31905(19)
O1 O 0.0917(2) -0.03259(19) 0.34122(18)
O2 O 0.14699(19) 0.01617(16) 0.25702(13)
C7 C 0.1129(3) -0.0348(2) 0.2170(2)
H5 H 0.0581 -0.0368 0.2243
H6 H 0.1345 -0.0793 0.2266
C8 C 0.1284(3) -0.0169(2) 0.1504(2)
H7 H 0.1203 -0.0562 0.1235
H8 H 0.1811 -0.0020 0.1456
O3 O 0.07678(16) 0.03737(15) 0.13294(14)
C9 C 0.0799(3) 0.0561(2) 0.07183(19)
O4 O 0.1248(3) 0.0323(2) 0.03514(17)
C10 C 0.0225(2) 0.1089(2) 0.05552(18)
C11 C -0.0172(2) 0.1464(2) 0.09979(18)
H9 H -0.0087 0.1391 0.1426
C12 C -0.0692(2) 0.1945(2) 0.0804(2)
H10 H -0.0955 0.2193 0.1109
C13 C 0.0073(3) 0.1211(3) -0.00832(19)
H11 H 0.0325 0.0967 -0.0397
C14 C -0.0458(3) 0.1702(3) -0.0234(2)
H12 H -0.0560 0.1780 -0.0658
N2 N -0.0837(2) 0.2073(2) 0.0190(2)
Ag1I Ag 0.16902(2) 0.28277(2) 0.51008(3)
Ag1N Ag -0.16902(2) 0.28277(2) -0.01008(3)
N2N N 0.4163(2) 0.2927(2) 0.5190(2)
O5 O 0.0791(3) 0.1784(4) 0.2463(3)
N3 N 0.2621(2) 0.1669(2) 0.63002(17)
O6 O 0.2061(3) 0.1744(2) 0.5961(3)
O7 O 0.3263(3) 0.1763(3) 0.6100(4)
O8 O 0.2554(5) 0.1486(5) 0.6825(2)
loop_
_geom_bond_atom_site_label_1
_geom_bond_atom_site_label_2
_geom_bond_site_symmetry_1
_geom_bond_site_symmetry_2
Ag1 N1 1_555 1_555
N1 C1 1_555 1_555
C1 H1 1_555 1_555
C2 C1 1_555 1_555
H2 C2 1_555 1_555
C3 C2 1_555 1_555
C4 C3 1_555 1_555
H3 C4 1_555 1_555
C5 N1 1_555 1_555
H4 C5 1_555 1_555
C6 C3 1_555 1_555
O1 C6 1_555 1_555
O2 C6 1_555 1_555
C7 O2 1_555 1_555
H5 C7 1_555 1_555
H6 C7 1_555 1_555
C8 C7 1_555 1_555
H7 C8 1_555 1_555
H8 C8 1_555 1_555
O3 C8 1_555 1_555
C9 O3 1_555 1_555
O4 C9 1_555 1_555
C10 C9 1_555 1_555
C11 C10 1_555 1_555
H9 C11 1_555 1_555
C12 C11 1_555 1_555
H10 C12 1_555 1_555
C13 C10 1_555 1_555
H11 C13 1_555 1_555
C14 C13 1_555 1_555
H12 C14 1_555 1_555
N2 C12 1_555 1_555
N3 O6 1_555 1_555
O7 N3 1_555 1_555
O8 N3 1_555 1_555
Ag1I Ag1 1_555 1_555
Ag1N N2 1_555 1_555
N2N Ag1 1_555 1_555
C4 C5 1_555 1_555
C14 N2 1_555 1_555

#END
