
#######################################################################
#
#                 Cambridge Crystallographic Data Centre
#                                CCDC 
#
#######################################################################
#
# If this CIF has been generated from an entry in the Cambridge 
# Structural Database, then it will include bibliographic, chemical, 
# crystal, experimental, refinement or atomic coordinate data resulting 
# from the CCDC's data processing and validation procedures.
#
#######################################################################

data_NEGDUA
_symmetry_cell_setting           orthorhombic
_symmetry_space_group_name_H-M   'P 21 21 21'
_symmetry_Int_Tables_number      19
_space_group_name_Hall           'P 2ac 2ab'
loop_
_symmetry_equiv_pos_site_id
_symmetry_equiv_pos_as_xyz
1 x,y,z
2 1/2-x,-y,1/2+z
3 1/2+x,1/2-y,-z
4 -x,1/2+y,1/2-z
_cell_length_a                   7.238(2)
_cell_length_b                   13.431(5)
_cell_length_c                   19.309(7)
_cell_angle_alpha                90
_cell_angle_beta                 90
_cell_angle_gamma                90
_cell_volume                     1877.1
loop_
_atom_site_label
_atom_site_type_symbol
_atom_site_fract_x
_atom_site_fract_y
_atom_site_fract_z
Cu1 Cu 0.94461(8) 0.17692(4) 0.03686(3)
O1 O 0.8831(5) 0.0884(2) -0.03773(18)
N1 N 0.9803(5) 0.0680(3) 0.10261(18)
O2 O 0.8831(5) -0.7019(2) -0.01424(17)
C1 C 0.9422(6) -0.1718(3) 0.0165(2)
H1 H 0.9660 -0.2090 0.0573
C2 C 0.9316(6) -0.3332(3) -0.0490(2)
C3 C 0.8960(6) -0.0076(3) -0.0383(2)
C4 C 0.9345(6) -0.0675(3) 0.0214(2)
C5 C 0.8801(6) -0.1660(3) -0.1042(2)
H2 H 0.8617 -0.1982 -0.1474
C6 C 0.9667(6) -0.5420(3) -0.0520(2)
C7 C 0.9944(6) -0.3819(3) -0.1082(2)
H3 H 1.0239 -0.3442 -0.1484
C8 C 1.0145(6) -0.4842(3) -0.1093(2)
H4 H 1.0615 -0.5157 -0.1497
C9 C 1.0044(6) 0.1057(3) 0.1744(2)
H5 H 0.8801 0.1262 0.1919
C10 C 0.8874(7) -0.3913(3) 0.0084(2)
H6 H 0.8475 -0.3600 0.0500
C11 C 0.9167(6) -0.2231(3) -0.0453(2)
C12 C 0.8703(7) -0.0623(3) -0.1004(2)
O3 O 1.1190(5) -0.6892(3) -0.0883(2)
N2 N 1.0455(7) 0.2621(3) 0.1141(2)
H7 H 0.9543 0.3032 0.1238
H8 H 1.1182 0.3019 0.0903
C13 C 0.9936(6) -0.6533(3) -0.0527(2)
C14 C 1.2226(9) 0.1795(5) 0.2917(3)
H9 H 1.2284 0.2121 0.3376
H10 H 1.3505 0.1643 0.2769
C15 C 0.9010(7) -0.4944(3) 0.0057(2)
H11 H 0.8640 -0.5327 0.0446
C16 C 1.0852(9) 0.0338(4) 0.2261(2)
H12 H 1.2057 0.0094 0.2087
H13 H 1.0019 -0.0242 0.2309
C17 C 1.1216(7) 0.1984(3) 0.1687(2)
H14 H 1.2489 0.1779 0.1546
C18 C 1.1126(9) 0.0830(5) 0.2974(3)
H15 H 0.9904 0.0972 0.3182
H16 H 1.1786 0.0362 0.3284
C19 C 1.1346(8) 0.2494(4) 0.2402(3)
H17 H 1.2093 0.3109 0.2364
H18 H 1.0094 0.2681 0.2563
N3 N 0.8437(9) -0.0127(4) -0.1648(3)
O5 O 0.8770(10) -0.0511(5) -0.2189(3)
C20 C 0.9694(7) -0.0250(3) 0.0889(2)
H19 H 0.9856 -0.0700 0.1264
O6 O 0.7462(14) 0.0648(7) -0.1630(4)
Cu1_2 Cu 0.94461(8) -0.82308(4) 0.03686(3)
O2_2 O 0.8831(5) 0.2981(2) -0.01424(17)
O4 O 1.1745(12) -0.8337(8) -0.1837(6)
H20 H 1.1474 -0.7725 -0.1736
H21 H 1.1015 -0.8698 -0.1603
loop_
_geom_bond_atom_site_label_1
_geom_bond_atom_site_label_2
_geom_bond_site_symmetry_1
_geom_bond_site_symmetry_2
Cu1 O1 1_555 1_555
O1 C3 1_555 1_555
N1 Cu1 1_555 1_555
O2 C13 1_555 1_555
C1 H1 1_555 1_555
C2 C7 1_555 1_555
C3 C4 1_555 1_555
C4 C1 1_555 1_555
C5 H2 1_555 1_555
C6 C8 1_555 1_555
C7 H3 1_555 1_555
C8 C7 1_555 1_555
H4 C8 1_555 1_555
C9 N1 1_555 1_555
H5 C9 1_555 1_555
C10 C2 1_555 1_555
H6 C10 1_555 1_555
C11 C1 1_555 1_555
C12 C3 1_555 1_555
O3 C13 1_555 1_555
N2 Cu1 1_555 1_555
H7 N2 1_555 1_555
H8 N2 1_555 1_555
C13 C6 1_555 1_555
C14 H9 1_555 1_555
H10 C14 1_555 1_555
C15 C6 1_555 1_555
H11 C15 1_555 1_555
C16 C9 1_555 1_555
H12 C16 1_555 1_555
H13 C16 1_555 1_555
C17 C9 1_555 1_555
H14 C17 1_555 1_555
C18 C14 1_555 1_555
H15 C18 1_555 1_555
H16 C18 1_555 1_555
C19 C14 1_555 1_555
H17 C19 1_555 1_555
H18 C19 1_555 1_555
O4 H20 1_555 1_555
N3 C12 1_555 1_555
O5 N3 1_555 1_555
C20 N1 1_555 1_555
H19 C20 1_555 1_555
O6 N3 1_555 1_555
H21 O4 1_555 1_555
Cu1_2 O2 1_555 1_555
O2_2 Cu1 1_555 1_555
C2 C11 1_555 1_555
C4 C20 1_555 1_555
C5 C11 1_555 1_555
C5 C12 1_555 1_555
C10 C15 1_555 1_555
N2 C17 1_555 1_555
C16 C18 1_555 1_555
C17 C19 1_555 1_555

#END
