
#######################################################################
#
#                 Cambridge Crystallographic Data Centre
#                                CCDC 
#
#######################################################################
#
# If this CIF has been generated from an entry in the Cambridge 
# Structural Database, then it will include bibliographic, chemical, 
# crystal, experimental, refinement or atomic coordinate data resulting 
# from the CCDC's data processing and validation procedures.
#
#######################################################################

data_NEGDAF
_symmetry_cell_setting           monoclinic
_symmetry_space_group_name_H-M   'C c'
_symmetry_Int_Tables_number      9
_space_group_name_Hall           'C -2yc'
loop_
_symmetry_equiv_pos_site_id
_symmetry_equiv_pos_as_xyz
1 x,y,z
2 x,-y,1/2+z
3 1/2+x,1/2+y,z
4 1/2+x,1/2-y,1/2+z
_cell_length_a                   22.975(9)
_cell_length_b                   21.168(8)
_cell_length_c                   10.860(4)
_cell_angle_alpha                90
_cell_angle_beta                 112.372(5)
_cell_angle_gamma                90
_cell_volume                     4884.06
loop_
_atom_site_label
_atom_site_type_symbol
_atom_site_fract_x
_atom_site_fract_y
_atom_site_fract_z
Si1 Si 0.66753(7) 0.31614(7) 0.55887(14)
Na1 Na 0.63120(9) 0.26950(10) 0.7898(2)
Na2 Na 0.88618(9) 0.15906(10) 0.8593(2)
N1 N 0.78984(19) 0.2038(2) 0.8333(4)
N2 N 0.71022(19) 0.2713(2) 0.6936(4)
N3 N 0.59701(19) 0.3192(2) 0.5763(4)
N4 N 0.48709(18) 0.31265(19) 0.5064(4)
C1 C 0.7558(3) 0.1969(3) 0.9189(6)
C2 C 0.7040(3) 0.1566(3) 0.8845(7)
C3 C 0.6726(4) 0.1499(4) 0.9728(10)
H1 H 0.6377 0.1228 0.9510
C4 C 0.6929(5) 0.1826(6) 1.0900(10)
H2 H 0.6718 0.1780 1.1485
C5 C 0.7432(4) 0.2217(5) 1.1226(7)
H3 H 0.7568 0.2433 1.2042
C6 C 0.7750(3) 0.2305(3) 1.0391(6)
C7 C 0.6822(4) 0.1216(4) 0.7542(10)
H4 H 0.7024 0.0806 0.7673
H5 H 0.6932 0.1456 0.6900
H6 H 0.6369 0.1161 0.7211
C8 C 0.8298(3) 0.2751(5) 1.0748(7)
H7 H 0.8369 0.2945 1.1603
H8 H 0.8207 0.3077 1.0072
H9 H 0.8671 0.2520 1.0801
C9 C 0.7641(2) 0.2409(2) 0.7292(5)
C10 C 0.8040(2) 0.2470(3) 0.6464(5)
C11 C 0.8454(3) 0.2974(4) 0.6668(7)
H10 H 0.8488 0.3269 0.7340
C12 C 0.8803(4) 0.3052(6) 0.5946(13)
H11 H 0.9079 0.3398 0.6111
C13 C 0.8762(5) 0.2639(8) 0.4982(13)
H12 H 0.9007 0.2701 0.4469
C14 C 0.8381(5) 0.2143(6) 0.4741(7)
H13 H 0.8358 0.1857 0.4062
C15 C 0.8011(3) 0.2046(4) 0.5504(6)
H14 H 0.7746 0.1692 0.5350
C16 C 0.7061(3) 0.3953(3) 0.5694(8)
H15 H 0.7143 0.4025 0.4892
H16 H 0.7456 0.3961 0.6462
H17 H 0.6785 0.4281 0.5783
C17 C 0.6582(3) 0.2793(4) 0.3953(6)
H18 H 0.6750 0.3076 0.3467
H19 H 0.6139 0.2718 0.3436
H20 H 0.6809 0.2396 0.4111
C18 C 0.5389(2) 0.3317(2) 0.4920(5)
C19 C 0.5267(2) 0.3717(2) 0.3689(5)
C20 C 0.5530(2) 0.4305(3) 0.3799(6)
H21 H 0.5770 0.4467 0.4647
C21 C 0.5444(3) 0.4670(3) 0.2659(8)
H22 H 0.5635 0.5069 0.2745
C22 C 0.5081(3) 0.4440(4) 0.1420(7)
H23 H 0.5014 0.4684 0.0654
C23 C 0.4820(3) 0.3858(4) 0.1313(6)
H24 H 0.4576 0.3697 0.0467
C24 C 0.4908(3) 0.3498(3) 0.2440(6)
H25 H 0.4718 0.3098 0.2345
C25 C 0.4953(2) 0.2733(2) 0.6155(6)
C26 C 0.4936(3) 0.2989(3) 0.7336(6)
C27 C 0.5003(3) 0.2601(3) 0.8386(7)
H26 H 0.5000 0.2775 0.9180
C28 C 0.5073(3) 0.1968(4) 0.8301(9)
H27 H 0.5115 0.1707 0.9032
C29 C 0.5083(3) 0.1707(3) 0.7156(9)
H28 H 0.5120 0.1267 0.7099
C30 C 0.5038(3) 0.2082(3) 0.6081(7)
C31 C 0.4862(4) 0.3697(4) 0.7415(8)
H29 H 0.4425 0.3797 0.7236
H30 H 0.4990 0.3904 0.6761
H31 H 0.5124 0.3845 0.8299
C32 C 0.5070(4) 0.1799(3) 0.4859(8)
H32 H 0.5128 0.1346 0.4976
H33 H 0.5421 0.1981 0.4694
H34 H 0.4682 0.1886 0.4108
O1 O 0.6483(2) 0.3525(3) 0.9395(5)
C33 C 0.6382(5) 0.3613(5) 1.0581(9)
H35 H 0.6474 0.3221 1.1101
H36 H 0.5942 0.3726 1.0378
C34 C 0.6796(7) 0.4118(7) 1.1344(11)
H37 H 0.6554 0.4503 1.1314
H38 H 0.7013 0.3991 1.2276
C35 C 0.7230(6) 0.4221(5) 1.0746(12)
H39 H 0.7621 0.3991 1.1222
H40 H 0.7326 0.4672 1.0747
C36 C 0.6914(4) 0.3976(4) 0.9326(8)
H41 H 0.6699 0.4319 0.8716
H42 H 0.7224 0.3784 0.9021
O2 O 0.8599(3) 0.0546(3) 0.8084(8)
C37 C 0.8758(11) 0.0104(8) 0.734(3)
H43 H 0.8741 0.0290 0.6504
H44 H 0.9186 -0.0052 0.7835
C38 C 0.8285(10) -0.0433(7) 0.707(2)
H45 H 0.7977 -0.0417 0.6154
H46 H 0.8498 -0.0844 0.7230
C39 C 0.7968(10) -0.0321(8) 0.806(3)
H47 H 0.7526 -0.0198 0.7595
H48 H 0.7988 -0.0699 0.8592
C40 C 0.8354(10) 0.0219(7) 0.8923(14)
H49 H 0.8695 0.0054 0.9714
H50 H 0.8088 0.0497 0.9206
Na2C Na 0.38618(9) 0.34094(10) 0.3593(2)
N4C N 0.98709(18) 0.18735(19) 1.0064(4)
C24C C 0.9908(3) 0.1502(3) 0.7440(6)
H25C H 0.9718 0.1902 0.7345
O3 O 0.6237(12) 0.9653(9) 0.9174(16)
C41 C 0.6360(12) 0.9215(12) 0.827(3)
H51 H 0.6492 0.8804 0.8696
H52 H 0.6695 0.9379 0.8005
C42 C 0.5771(13) 0.9151(14) 0.709(3)
H53 H 0.5840 0.9202 0.6260
H54 H 0.5565 0.8745 0.7083
C43 C 0.5436(13) 0.9644(18) 0.730(2)
H55 H 0.5316 0.9919 0.6520
H56 H 0.5046 0.9470 0.7333
C44 C 0.5692(8) 0.9999(8) 0.835(3)
H57 H 0.5403 1.0063 0.8813
H58 H 0.5810 1.0412 0.8112
O4 O 0.9101(13) 0.5311(7) 0.348(3)
C45 C 0.8719(9) 0.5485(6) 0.415(2)
H59 H 0.8409 0.5798 0.3630
H60 H 0.8974 0.5673 0.5012
C46 C 0.8387(8) 0.4901(11) 0.436(3)
H61 H 0.7959 0.4871 0.3685
H62 H 0.8371 0.4898 0.5246
C47 C 0.8799(14) 0.4368(6) 0.420(3)
H63 H 0.9094 0.4223 0.5076
H64 H 0.8541 0.4010 0.3727
C48 C 0.9143(12) 0.4656(8) 0.342(2)
H65 H 0.9585 0.4525 0.3788
H66 H 0.8956 0.4514 0.2491
loop_
_geom_bond_atom_site_label_1
_geom_bond_atom_site_label_2
_geom_bond_site_symmetry_1
_geom_bond_site_symmetry_2
Si1 N2 1_555 1_555
Na1 N2 1_555 1_555
Na2 N1 1_555 1_555
N1 C1 1_555 1_555
N2 C9 1_555 1_555
N3 Si1 1_555 1_555
N4 C18 1_555 1_555
C1 Na1 1_555 1_555
C2 Na1 1_555 1_555
C3 C2 1_555 1_555
H1 C3 1_555 1_555
C4 C3 1_555 1_555
H2 C4 1_555 1_555
C5 C4 1_555 1_555
H3 C5 1_555 1_555
C6 C1 1_555 1_555
C7 C2 1_555 1_555
H4 C7 1_555 1_555
H5 C7 1_555 1_555
H6 C7 1_555 1_555
C8 C6 1_555 1_555
H7 C8 1_555 1_555
H8 C8 1_555 1_555
H9 C8 1_555 1_555
C9 N1 1_555 1_555
C10 Na2 1_555 1_555
C11 C10 1_555 1_555
H10 C11 1_555 1_555
C12 C11 1_555 1_555
H11 C12 1_555 1_555
C13 C12 1_555 1_555
H12 C13 1_555 1_555
C14 C13 1_555 1_555
H13 C14 1_555 1_555
C15 C10 1_555 1_555
H14 C15 1_555 1_555
C16 Si1 1_555 1_555
H15 C16 1_555 1_555
H16 C16 1_555 1_555
H17 C16 1_555 1_555
C17 Si1 1_555 1_555
H18 C17 1_555 1_555
H19 C17 1_555 1_555
H20 C17 1_555 1_555
C18 N3 1_555 1_555
C19 C18 1_555 1_555
C20 C19 1_555 1_555
H21 C20 1_555 1_555
C21 C20 1_555 1_555
H22 C21 1_555 1_555
C22 C21 1_555 1_555
H23 C22 1_555 1_555
C23 C22 1_555 1_555
H24 C23 1_555 1_555
C24 C19 1_555 1_555
H25 C24 1_555 1_555
C25 Na1 1_555 1_555
C26 Na1 1_555 1_555
C27 C26 1_555 1_555
H26 C27 1_555 1_555
C28 C27 1_555 1_555
H27 C28 1_555 1_555
C29 C28 1_555 1_555
H28 C29 1_555 1_555
C30 Na1 1_555 1_555
C31 C26 1_555 1_555
H29 C31 1_555 1_555
H30 C31 1_555 1_555
H31 C31 1_555 1_555
C32 C30 1_555 1_555
H32 C32 1_555 1_555
H33 C32 1_555 1_555
H34 C32 1_555 1_555
O1 Na1 1_555 1_555
C33 O1 1_555 1_555
H35 C33 1_555 1_555
H36 C33 1_555 1_555
C34 C33 1_555 1_555
H37 C34 1_555 1_555
H38 C34 1_555 1_555
C35 C34 1_555 1_555
H39 C35 1_555 1_555
H40 C35 1_555 1_555
C36 O1 1_555 1_555
H41 C36 1_555 1_555
H42 C36 1_555 1_555
O2 Na2 1_555 1_555
C37 O2 1_555 1_555
H43 C37 1_555 1_555
H44 C37 1_555 1_555
C38 C37 1_555 1_555
H45 C38 1_555 1_555
H46 C38 1_555 1_555
C39 C38 1_555 1_555
H47 C39 1_555 1_555
H48 C39 1_555 1_555
C40 O2 1_555 1_555
H49 C40 1_555 1_555
H50 C40 1_555 1_555
O3 C41 1_555 1_555
C41 H51 1_555 1_555
H52 C41 1_555 1_555
C42 C41 1_555 1_555
H53 C42 1_555 1_555
H54 C42 1_555 1_555
C43 C42 1_555 1_555
H55 C43 1_555 1_555
H56 C43 1_555 1_555
C44 O3 1_555 1_555
H57 C44 1_555 1_555
H58 C44 1_555 1_555
O4 C45 1_555 1_555
C45 H59 1_555 1_555
H60 C45 1_555 1_555
C46 C45 1_555 1_555
H61 C46 1_555 1_555
H62 C46 1_555 1_555
C47 C46 1_555 1_555
H63 C47 1_555 1_555
H64 C47 1_555 1_555
C48 O4 1_555 1_555
H65 C48 1_555 1_555
H66 C48 1_555 1_555
Na2C N4 1_555 1_555
N4C Na2 1_555 1_555
C24C Na2 1_555 1_555
H25C C24C 1_555 1_555
Na1 N3 1_555 1_555
N4 C25 1_555 1_555
C1 C2 1_555 1_555
C5 C6 1_555 1_555
C9 C10 1_555 1_555
C14 C15 1_555 1_555
C23 C24 1_555 1_555
C24 Na2C 1_555 1_555
C25 C26 1_555 1_555
C25 C30 1_555 1_555
C29 C30 1_555 1_555
C35 C36 1_555 1_555
C39 C40 1_555 1_555
C43 C44 1_555 1_555
C47 C48 1_555 1_555

#END
