
#######################################################################
#
#                 Cambridge Crystallographic Data Centre
#                                CCDC 
#
#######################################################################
#
# If this CIF has been generated from an entry in the Cambridge 
# Structural Database, then it will include bibliographic, chemical, 
# crystal, experimental, refinement or atomic coordinate data resulting 
# from the CCDC's data processing and validation procedures.
#
#######################################################################

data_NEGMOD
_symmetry_cell_setting           monoclinic
_symmetry_space_group_name_H-M   'P 21/c'
_symmetry_Int_Tables_number      14
_space_group_name_Hall           '-P 2ybc'
loop_
_symmetry_equiv_pos_site_id
_symmetry_equiv_pos_as_xyz
1 x,y,z
2 -x,1/2+y,1/2-z
3 -x,-y,-z
4 x,1/2-y,1/2+z
_cell_length_a                   14.980(3)
_cell_length_b                   5.4012(11)
_cell_length_c                   10.613(2)
_cell_angle_alpha                90
_cell_angle_beta                 107.143(4)
_cell_angle_gamma                90
_cell_volume                     820.547
loop_
_atom_site_label
_atom_site_type_symbol
_atom_site_fract_x
_atom_site_fract_y
_atom_site_fract_z
Br1 Br 0.82565(4) -0.30194(13) 0.76620(6)
C1 C 0.9172(4) 0.0261(13) 0.6383(7)
H1 H 0.9744 -0.0357 0.6891
C2 C 0.8339(4) -0.0518(12) 0.6438(6)
C3 C 0.7552(4) 0.0686(11) 0.5592(6)
C4 C 0.7836(4) 0.2414(11) 0.4876(6)
H2 H 0.7426 0.3414 0.4255
Co1 Co 0.5000 0.5000 0.5000
Co2 Co 0.56920(5) -0.29957(16) 0.28385(8)
O1 O 0.5804(3) 0.2233(8) 0.4637(4)
O2 O 0.6084(3) -0.2378(8) 0.4779(4)
O3 O 0.6294(3) 0.0100(8) 0.6873(4)
O4 O 0.5462(3) 0.4720(8) 0.7030(4)
H3 H 0.5941 0.3796 0.7287
P1 P 0.63580(11) 0.0157(3) 0.54557(15)
S1 S 0.90276(11) 0.2587(3) 0.52267(15)
Br1B Br 0.17435(4) 1.30194(13) 0.23380(6)
C1B C 0.0828(4) 0.9739(13) 0.3617(7)
H1B H 0.0256 1.0357 0.3109
C2B C 0.1661(4) 1.0518(12) 0.3562(6)
C3B C 0.2448(4) 0.9314(11) 0.4408(6)
C4B C 0.2164(4) 0.7586(11) 0.5124(6)
H2B H 0.2574 0.6586 0.5745
Co1_2 Co 0.5000 -0.5000 0.5000
Co1_3 Co 0.5000 1.5000 0.5000
Co2B Co 0.43080(5) 1.29957(16) 0.71615(8)
Co2C Co 0.56920(5) -0.20043(16) 0.78385(8)
Co2C_2 Co 0.56920(5) 0.79957(16) 0.78385(8)
Co2B_2 Co 0.43080(5) 0.29957(16) 0.71615(8)
Co2A Co 0.43080(5) 1.20043(16) 0.21615(8)
Co2A_2 Co 0.43080(5) 0.20043(16) 0.21615(8)
Co2_2 Co 0.56920(5) 0.70043(16) 0.28385(8)
O1B O 0.4196(3) 0.7767(8) 0.5363(4)
O2B O 0.3916(3) 1.2378(8) 0.5221(4)
O2_2 O 0.6084(3) 0.7622(8) 0.4779(4)
O2B_2 O 0.3916(3) 0.2378(8) 0.5221(4)
O3B O 0.3706(3) 0.9900(8) 0.3127(4)
O3C O 0.6294(3) -0.5100(8) 0.1873(4)
O3A O 0.3706(3) 1.5100(8) 0.8127(4)
O4B O 0.4538(3) 0.5280(8) 0.2970(4)
O4C O 0.5462(3) 0.0280(8) 0.2030(4)
O4B_2 O 0.4538(3) -0.4720(8) 0.2970(4)
O4A O 0.4538(3) 0.9720(8) 0.7970(4)
O4_2 O 0.5462(3) 1.4720(8) 0.7030(4)
H3B H 0.4059 0.6204 0.2713
H3C H 0.5941 0.1204 0.2287
H3B_2 H 0.4059 -0.3796 0.2713
H3A H 0.4059 0.8796 0.7713
H3_2 H 0.5941 1.3796 0.7287
P1B P 0.36420(11) 0.9843(3) 0.45443(15)
S1B S 0.09724(11) 0.7413(3) 0.47733(15)
loop_
_geom_bond_atom_site_label_1
_geom_bond_atom_site_label_2
_geom_bond_site_symmetry_1
_geom_bond_site_symmetry_2
Br1 C2 1_555 1_555
C1 H1 1_555 1_555
C2 C1 1_555 1_555
C3 C2 1_555 1_555
C4 C3 1_555 1_555
H2 C4 1_555 1_555
Co1 O1 1_555 1_555
Co2 O2 1_555 1_555
O1 P1 1_555 1_555
O2 P1 1_555 1_555
O3 P1 1_555 1_555
O4 Co1 1_555 1_555
H3 O4 1_555 1_555
P1 C3 1_555 1_555
S1 C1 1_555 1_555
Br1B C2B 1_555 1_555
C1B H1B 1_555 1_555
C2B C1B 1_555 1_555
C3B C2B 1_555 1_555
C4B C3B 1_555 1_555
H2B C4B 1_555 1_555
Co1_2 O2 1_555 1_555
Co1_3 O2B 1_555 1_555
Co2B O2B 1_555 1_555
Co2C O3 1_555 1_555
Co2C_2 O4 1_555 1_555
Co2B_2 O4 1_555 1_555
Co2A O3B 1_555 1_555
Co2A_2 O4B 1_555 1_555
Co2_2 O2_2 1_555 1_555
O1B Co1 1_555 1_555
O2B P1B 1_555 1_555
O2_2 Co1 1_555 1_555
O2B_2 Co1 1_555 1_555
O3B P1B 1_555 1_555
O3C Co2 1_555 1_555
O3A Co2B 1_555 1_555
O4B Co1 1_555 1_555
O4C Co2 1_555 1_555
O4B_2 Co2 1_555 1_555
O4A Co2B 1_555 1_555
O4_2 Co1_3 1_555 1_555
H3B O4B 1_555 1_555
H3C O4C 1_555 1_555
H3B_2 O4B_2 1_555 1_555
H3A O4A 1_555 1_555
H3_2 O4_2 1_555 1_555
P1B C3B 1_555 1_555
S1B C1B 1_555 1_555
C4 S1 1_555 1_555
C4B S1B 1_555 1_555
Co1_2 O4B_2 1_555 1_555
Co2B O4_2 1_555 1_555
Co2C_2 O4A 1_555 1_555
Co2B_2 O2B_2 1_555 1_555
Co2A_2 O4C 1_555 1_555
Co2_2 O4B 1_555 1_555
O1B P1B 1_555 1_555

#END
