
#######################################################################
#
#                 Cambridge Crystallographic Data Centre
#                                CCDC 
#
#######################################################################
#
# If this CIF has been generated from an entry in the Cambridge 
# Structural Database, then it will include bibliographic, chemical, 
# crystal, experimental, refinement or atomic coordinate data resulting 
# from the CCDC's data processing and validation procedures.
#
#######################################################################

data_NEGREY
_symmetry_cell_setting           orthorhombic
_symmetry_space_group_name_H-M   'P b c a'
_symmetry_Int_Tables_number      61
_space_group_name_Hall           '-P 2ac 2ab'
loop_
_symmetry_equiv_pos_site_id
_symmetry_equiv_pos_as_xyz
1 x,y,z
2 1/2-x,-y,1/2+z
3 -x,1/2+y,1/2-z
4 1/2+x,1/2-y,-z
5 -x,-y,-z
6 1/2+x,y,1/2-z
7 x,1/2-y,1/2+z
8 1/2-x,1/2+y,z
_cell_length_a                   18.3190(18)
_cell_length_b                   8.4965(9)
_cell_length_c                   21.474(2)
_cell_angle_alpha                90
_cell_angle_beta                 90
_cell_angle_gamma                90
_cell_volume                     3342.37
loop_
_atom_site_label
_atom_site_type_symbol
_atom_site_fract_x
_atom_site_fract_y
_atom_site_fract_z
Cu1 Cu 1.0000 0.5000 0.0000
Cl1 Cl 0.91577(4) 0.35335(8) 0.08463(3)
N1 N 0.96378(12) 0.8779(2) 0.11794(10)
N2 N 1.02623(14) 0.9343(3) 0.09232(13)
N3 N 0.99939(12) 0.6973(2) 0.05355(10)
N4 N 0.84125(12) 0.7821(3) 0.39342(10)
N5 N 0.79589(13) 0.8970(3) 0.41510(11)
N6 N 0.90746(12) 0.9197(3) 0.45753(10)
C1 C 1.04498(16) 0.8217(3) 0.05374(15)
H1 H 1.0863 0.8273 0.0286
C2 C 0.94916(15) 0.7369(3) 0.09489(12)
H2 H 0.9095 0.6749 0.1061
C3 C 0.83829(16) 0.9748(4) 0.45375(14)
H3 H 0.8220 1.0608 0.4767
C4 C 0.90666(14) 0.7986(3) 0.41891(12)
H4 H 0.9465 0.7340 0.4108
C5 C 0.85927(14) 0.8977(3) 0.19300(12)
C6 C 0.86912(14) 0.8109(3) 0.24802(13)
C7 C 0.80861(14) 0.7594(3) 0.28214(12)
C8 C 0.73775(14) 0.7906(3) 0.26005(12)
C9 C 0.73051(15) 0.8692(3) 0.20372(13)
H5 H 0.6838 0.8862 0.1882
C10 C 0.78926(15) 0.9233(3) 0.16968(13)
C11 C 0.92410(16) 0.9766(3) 0.16303(13)
H6 H 0.9075 1.0710 0.1420
H7 H 0.9578 1.0088 0.1955
C12 C 0.94598(16) 0.7740(4) 0.26989(15)
H8 H 0.9638 0.8592 0.2950
H9 H 0.9773 0.7604 0.2344
H10 H 0.9455 0.6790 0.2941
C13 C 0.81846(15) 0.6750(3) 0.34331(13)
H11 H 0.7728 0.6250 0.3549
H12 H 0.8549 0.5931 0.3384
C14 C 0.67015(15) 0.7394(4) 0.29477(15)
H13 H 0.6276 0.7742 0.2726
H14 H 0.6704 0.7848 0.3357
H15 H 0.6695 0.6268 0.2981
C15 C 0.77636(19) 1.0074(4) 0.10829(14)
H16 H 0.7253 1.0048 0.0984
H17 H 0.8035 0.9559 0.0759
H18 H 0.7922 1.1148 0.1117
Cu1B Cu 1.0000 1.0000 0.5000
Cu1B_2 Cu 1.0000 0.0000 -0.5000
Cl1D Cl 1.08423(4) 0.64665(8) -0.08463(3)
N1D N 1.03622(12) 0.1221(2) -0.11794(10)
N2D N 0.97377(14) 0.0657(3) -0.09232(13)
N3D N 1.00061(12) 0.3027(2) -0.05355(10)
N4D N 1.15875(12) 0.2179(3) -0.39342(10)
N5D N 1.20411(13) 0.1030(3) -0.41510(11)
N6D N 1.09254(12) 0.0803(3) -0.45753(10)
N6B N 1.09254(12) 0.4197(3) 0.04247(10)
N6F N 0.90746(12) 0.5803(3) -0.04247(10)
C1D C 0.95502(16) 0.1783(3) -0.05374(15)
H1D H 0.9137 0.1727 -0.0286
C2D C 1.05084(15) 0.2631(3) -0.09489(12)
H2D H 1.0905 0.3251 -0.1061
C3D C 1.16171(16) 0.0252(4) -0.45375(14)
H3D H 1.1780 -0.0608 -0.4767
C4D C 1.09334(14) 0.2014(3) -0.41891(12)
H4D H 1.0535 0.2660 -0.4108
C5D C 1.14073(14) 0.1023(3) -0.19300(12)
C6D C 1.13088(14) 0.1891(3) -0.24802(13)
C7D C 1.19139(14) 0.2406(3) -0.28214(12)
C8D C 1.26225(14) 0.2094(3) -0.26005(12)
C9D C 1.26949(15) 0.1308(3) -0.20372(13)
H5D H 1.3162 0.1138 -0.1882
C10D C 1.21074(15) 0.0767(3) -0.16968(13)
C11D C 1.07590(16) 0.0234(3) -0.16303(13)
H6D H 1.0925 -0.0710 -0.1420
H7D H 1.0422 -0.0088 -0.1955
C12D C 1.05402(16) 0.2260(4) -0.26989(15)
H8D H 1.0362 0.1408 -0.2950
H9D H 1.0227 0.2396 -0.2344
H10D H 1.0545 0.3210 -0.2941
C13D C 1.18154(15) 0.3250(3) -0.34331(13)
H11D H 1.2272 0.3750 -0.3549
H12D H 1.1451 0.4069 -0.3384
C14D C 1.32985(15) 0.2606(4) -0.29477(15)
H13D H 1.3724 0.2258 -0.2726
H14D H 1.3296 0.2152 -0.3357
H15D H 1.3305 0.3732 -0.2981
C15D C 1.22364(19) -0.0074(4) -0.10829(14)
H16D H 1.2747 -0.0048 -0.0984
H17D H 1.1965 0.0441 -0.0759
H18D H 1.2078 -0.1148 -0.1117
loop_
_geom_bond_atom_site_label_1
_geom_bond_atom_site_label_2
_geom_bond_site_symmetry_1
_geom_bond_site_symmetry_2
Cu1 Cl1 1_555 1_555
N1 N2 1_555 1_555
N2 C1 1_555 1_555
N3 Cu1 1_555 1_555
N4 N5 1_555 1_555
N5 C3 1_555 1_555
N6 C3 1_555 1_555
C1 N3 1_555 1_555
H1 C1 1_555 1_555
C2 N1 1_555 1_555
H2 C2 1_555 1_555
C3 H3 1_555 1_555
C4 N4 1_555 1_555
H4 C4 1_555 1_555
C5 C6 1_555 1_555
C6 C7 1_555 1_555
C7 C8 1_555 1_555
C8 C9 1_555 1_555
C9 H5 1_555 1_555
C10 C5 1_555 1_555
C11 N1 1_555 1_555
H6 C11 1_555 1_555
H7 C11 1_555 1_555
C12 C6 1_555 1_555
H8 C12 1_555 1_555
H9 C12 1_555 1_555
H10 C12 1_555 1_555
C13 N4 1_555 1_555
H11 C13 1_555 1_555
H12 C13 1_555 1_555
C14 C8 1_555 1_555
H13 C14 1_555 1_555
H14 C14 1_555 1_555
H15 C14 1_555 1_555
C15 C10 1_555 1_555
H16 C15 1_555 1_555
H17 C15 1_555 1_555
H18 C15 1_555 1_555
Cu1B N6 1_555 1_555
Cu1B_2 N6D 1_555 1_555
Cl1D Cu1 1_555 1_555
N1D N2D 1_555 1_555
N2D C1D 1_555 1_555
N3D Cu1 1_555 1_555
N4D N5D 1_555 1_555
N5D C3D 1_555 1_555
N6D C3D 1_555 1_555
N6B Cu1 1_555 1_555
N6F Cu1 1_555 1_555
C1D N3D 1_555 1_555
H1D C1D 1_555 1_555
C2D N1D 1_555 1_555
H2D C2D 1_555 1_555
C3D H3D 1_555 1_555
C4D N4D 1_555 1_555
H4D C4D 1_555 1_555
C5D C6D 1_555 1_555
C6D C7D 1_555 1_555
C7D C8D 1_555 1_555
C8D C9D 1_555 1_555
C9D H5D 1_555 1_555
C10D C5D 1_555 1_555
C11D N1D 1_555 1_555
H6D C11D 1_555 1_555
H7D C11D 1_555 1_555
C12D C6D 1_555 1_555
H8D C12D 1_555 1_555
H9D C12D 1_555 1_555
H10D C12D 1_555 1_555
C13D N4D 1_555 1_555
H11D C13D 1_555 1_555
H12D C13D 1_555 1_555
C14D C8D 1_555 1_555
H13D C14D 1_555 1_555
H14D C14D 1_555 1_555
H15D C14D 1_555 1_555
C15D C10D 1_555 1_555
H16D C15D 1_555 1_555
H17D C15D 1_555 1_555
H18D C15D 1_555 1_555
N3 C2 1_555 1_555
N6 C4 1_555 1_555
C5 C11 1_555 1_555
C7 C13 1_555 1_555
C9 C10 1_555 1_555
N3D C2D 1_555 1_555
N6D C4D 1_555 1_555
C5D C11D 1_555 1_555
C7D C13D 1_555 1_555
C9D C10D 1_555 1_555

#END
