
#######################################################################
#
#                 Cambridge Crystallographic Data Centre
#                                CCDC 
#
#######################################################################
#
# If this CIF has been generated from an entry in the Cambridge 
# Structural Database, then it will include bibliographic, chemical, 
# crystal, experimental, refinement or atomic coordinate data resulting 
# from the CCDC's data processing and validation procedures.
#
#######################################################################

data_NEGRIC
_symmetry_cell_setting           monoclinic
_symmetry_space_group_name_H-M   'P 21/n'
_symmetry_Int_Tables_number      14
_space_group_name_Hall           '-P 2yn'
loop_
_symmetry_equiv_pos_site_id
_symmetry_equiv_pos_as_xyz
1 x,y,z
2 1/2-x,1/2+y,1/2-z
3 -x,-y,-z
4 1/2+x,1/2-y,1/2+z
_cell_length_a                   15.934(7)
_cell_length_b                   11.519(5)
_cell_length_c                   23.519(11)
_cell_angle_alpha                90
_cell_angle_beta                 109.216(6)
_cell_angle_gamma                90
_cell_volume                     4076.25
loop_
_atom_site_label
_atom_site_type_symbol
_atom_site_fract_x
_atom_site_fract_y
_atom_site_fract_z
Cu1 Cu -0.281036(17) 0.08894(2) -0.006461(10)
Cl1 Cl -0.45030(4) 0.12839(6) -0.04322(3)
N1 N -0.24633(12) 0.25200(16) 0.02321(8)
N2 N -0.26376(12) 0.12793(16) -0.08576(7)
N3 N -0.22046(12) 0.54697(17) 0.42321(7)
N4 N -0.19763(12) 0.42164(15) -0.46736(8)
N5 N -0.18442(13) 0.49266(17) 0.34635(8)
N6 N -0.25235(12) 0.42216(15) 0.06127(8)
N7 N -0.27153(14) 0.5215(2) 0.32365(9)
N8 N -0.17031(14) 0.41606(18) 0.05658(10)
N9 N -0.29925(15) 0.1664(2) -0.18447(9)
N10 N -0.21227(13) 0.18630(18) -0.15531(8)
N11 N -0.14427(13) 0.24064(17) -0.44639(8)
N12 N -0.22225(12) 0.25258(16) -0.43477(8)
C1 C -0.21650(15) 0.5600(2) 0.14654(9)
C2 C -0.20901(15) 0.49104(19) 0.19739(9)
C3 C -0.14709(16) 0.5226(2) 0.25310(9)
C4 C -0.09603(17) 0.6210(3) 0.25826(10)
C5 C -0.16464(17) 0.6600(2) 0.15140(10)
C6 C -0.10594(19) 0.6889(3) 0.20756(11)
H1 H -0.0720 0.7560 0.2115
C7 C -0.1715(2) 0.7373(3) 0.09868(13)
H2 H -0.1300 0.8002 0.1115
H3 H -0.2308 0.7678 0.0828
H4 H -0.1582 0.6934 0.0680
C8 C -0.2657(2) 0.3856(3) 0.19205(12)
H5 H -0.2867(5) 0.3786(10) 0.2234(3)
H6 H -0.2382(6) 0.3151(5) 0.1920(7)
H7 H -0.3163(5) 0.3815(9) 0.1602(4)
C9 C -0.0291(2) 0.6594(4) 0.31818(13)
H8 H -0.0010 0.7302 0.3125
H9 H 0.0150 0.6002 0.3329
H10 H -0.0594 0.6722 0.3468
C10 C -0.28039(16) 0.5263(2) 0.08612(9)
H11 H -0.3384 0.5124 0.0899
H12 H -0.2861 0.5903 0.0583
C11 C -0.15567(16) 0.5088(2) 0.40495(9)
H13 H -0.0978 0.4952 0.4300
C12 C -0.16955(17) 0.3114(2) 0.03324(11)
H14 H -0.1208 0.2817 0.0246
C13 C -0.29687(15) 0.3264(2) 0.04114(9)
H15 H -0.3551 0.3124 0.0396
C14 C -0.13643(18) 0.4465(3) 0.30737(10)
H16 H -0.1578 0.3689 0.2941
H17 H -0.0738 0.4410 0.3306
C15 C -0.29022(17) 0.5547(3) 0.37160(10)
H18 H -0.3461 0.5809 0.3702
C16 C -0.0506(2) 0.0149(3) -0.17021(12)
H19 H -0.0212 -0.0561 -0.1738
H20 H -0.0876 0.0020 -0.1458
H21 H -0.0070 0.0731 -0.1517
C17 C -0.2646(2) 0.2990(2) -0.30933(12)
H22 H -0.2956 0.3092 -0.3516
H23 H -0.2265 0.3645 -0.2943
H24 H -0.3068 0.2929 -0.2883
C18 C -0.1608(2) -0.0612(3) -0.39038(13)
H25 H -0.1513(7) -0.0248(10) -0.4229(3)
H26 H -0.2155(7) -0.0985(9) -0.4087(5)
H27 H -0.1224(7) -0.1214(8) -0.3810(5)
C19 C -0.15441(18) 0.2317(2) -0.18799(11)
H28 H -0.0938 0.2358 -0.1606
H29 H -0.1732 0.3098 -0.2019
C20 C -0.26284(17) 0.1557(2) -0.41227(10)
H30 H -0.2689 0.0894 -0.4388
H31 H -0.3219 0.1782 -0.4131
C21 C -0.15704(15) 0.1565(2) -0.24149(9)
C22 C -0.20971(15) 0.1904(2) -0.29971(10)
C23 C -0.20818(15) 0.1206(2) -0.34864(9)
C24 C -0.15999(17) 0.0186(2) -0.33953(10)
C25 C -0.11060(18) -0.0118(2) -0.28190(12)
H32 H -0.0779 -0.0802 -0.2757
C26 C -0.10766(17) 0.0558(2) -0.23252(11)
C27 C -0.32823(17) 0.1313(2) -0.14032(10)
H33 H -0.3870 0.1110 -0.1463
C28 C -0.19249(16) 0.1646(2) -0.09755(9)
H34 H -0.1364 0.1736 -0.0690
C29 C -0.13224(15) 0.3459(2) -0.46563(9)
H35 H -0.0833 0.3654 -0.4769
C30 C -0.25308(15) 0.3590(2) -0.44768(9)
H36 H -0.3057 0.3865 -0.4437
O1 O -0.11074(11) 0.03233(18) 0.03366(7)
H40 H -0.0731 0.0839 0.0357
H41 H -0.0942 -0.0343 0.0346
Cu1A Cu -0.218964(17) 0.58894(2) 0.506461(10)
Cu1A_2 Cu -0.218964(17) 0.58894(2) -0.493539(10)
N3A N -0.27954(12) 0.04697(17) 0.07679(7)
N4A N -0.30237(12) -0.07836(15) -0.03264(8)
Cl2 Cl 0.02874(5) 0.19598(8) 0.01010(5)
C31 C -0.0004(4) 0.6571(6) -0.1998(3)
C32 C -0.0397(5) 0.5751(7) -0.1800(3)
H37 H -0.0268 0.5840 -0.1374
H38 H -0.0185 0.5010 -0.1881
H39 H -0.1027 0.5799 -0.1999
N13 N 0.0322(4) 0.7257(6) -0.2232(3)
O2 O -0.5088(2) -0.4144(3) -0.05686(18)
H42 H -0.4628 -0.3733 -0.0544
H43 H -0.4927 -0.4823 -0.0435
O3 O -0.4485(3) 0.6497(4) 0.0982(3)
H44 H -0.4279(9) 0.7167(9) 0.097(2)
H45 H -0.5015(6) 0.6614(16) 0.0767(15)
O4 O -0.3922(4) 0.6407(5) 0.2155(2)
H46 H -0.375(3) 0.6639(14) 0.2511(4)
H47 H -0.3755(18) 0.5715(9) 0.2190(9)
O5 O 0.0000 0.5000 0.0000
O6? O -0.0723(5) 0.4501(6) -0.0649(3)
loop_
_geom_bond_atom_site_label_1
_geom_bond_atom_site_label_2
_geom_bond_site_symmetry_1
_geom_bond_site_symmetry_2
Cu1 Cl1 1_555 1_555
N1 Cu1 1_555 1_555
N2 Cu1 1_555 1_555
N3 C11 1_555 1_555
N4 C29 1_555 1_555
N5 N7 1_555 1_555
N6 N8 1_555 1_555
N7 C15 1_555 1_555
N8 C12 1_555 1_555
N9 N10 1_555 1_555
N10 C19 1_555 1_555
N11 N12 1_555 1_555
N12 C20 1_555 1_555
C1 C2 1_555 1_555
C2 C3 1_555 1_555
C3 C4 1_555 1_555
C4 C6 1_555 1_555
C5 C1 1_555 1_555
C6 C5 1_555 1_555
H1 C6 1_555 1_555
C7 C5 1_555 1_555
H2 C7 1_555 1_555
H3 C7 1_555 1_555
H4 C7 1_555 1_555
C8 C2 1_555 1_555
H5 C8 1_555 1_555
H6 C8 1_555 1_555
H7 C8 1_555 1_555
C9 C4 1_555 1_555
H8 C9 1_555 1_555
H9 C9 1_555 1_555
H10 C9 1_555 1_555
C10 N6 1_555 1_555
H11 C10 1_555 1_555
H12 C10 1_555 1_555
C11 N5 1_555 1_555
H13 C11 1_555 1_555
C12 N1 1_555 1_555
H14 C12 1_555 1_555
C13 N1 1_555 1_555
H15 C13 1_555 1_555
C14 N5 1_555 1_555
H16 C14 1_555 1_555
H17 C14 1_555 1_555
C15 N3 1_555 1_555
H18 C15 1_555 1_555
C16 H19 1_555 1_555
H20 C16 1_555 1_555
H21 C16 1_555 1_555
C17 H22 1_555 1_555
H23 C17 1_555 1_555
H24 C17 1_555 1_555
C18 H25 1_555 1_555
H26 C18 1_555 1_555
H27 C18 1_555 1_555
C19 H28 1_555 1_555
H29 C19 1_555 1_555
C20 H30 1_555 1_555
H31 C20 1_555 1_555
C21 C19 1_555 1_555
C22 C17 1_555 1_555
C23 C20 1_555 1_555
C24 C18 1_555 1_555
C25 C24 1_555 1_555
H32 C25 1_555 1_555
C26 C16 1_555 1_555
C27 N2 1_555 1_555
H33 C27 1_555 1_555
C28 N2 1_555 1_555
H34 C28 1_555 1_555
C29 N11 1_555 1_555
H35 C29 1_555 1_555
C30 N4 1_555 1_555
H36 C30 1_555 1_555
C31 C32 1_555 1_555
C32 H37 1_555 1_555
H38 C32 1_555 1_555
H39 C32 1_555 1_555
N13 C31 1_555 1_555
O1 Cu1 1_555 1_555
H40 O1 1_555 1_555
H41 O1 1_555 1_555
O2 H42 1_555 1_555
H43 O2 1_555 1_555
O3 H44 1_555 1_555
H45 O3 1_555 1_555
O4 H46 1_555 1_555
H47 O4 1_555 1_555
Cu1A N3 1_555 1_555
Cu1A_2 N4 1_555 1_555
N3A Cu1 1_555 1_555
N4A Cu1 1_555 1_555
N6 C13 1_555 1_555
N9 C27 1_555 1_555
N10 C28 1_555 1_555
N12 C30 1_555 1_555
C1 C10 1_555 1_555
C3 C14 1_555 1_555
C21 C22 1_555 1_555
C21 C26 1_555 1_555
C22 C23 1_555 1_555
C23 C24 1_555 1_555
C25 C26 1_555 1_555

#END
