
#######################################################################
#
#                 Cambridge Crystallographic Data Centre
#                                CCDC 
#
#######################################################################
#
# If this CIF has been generated from an entry in the Cambridge 
# Structural Database, then it will include bibliographic, chemical, 
# crystal, experimental, refinement or atomic coordinate data resulting 
# from the CCDC's data processing and validation procedures.
#
#######################################################################

data_NEGSUP
_symmetry_cell_setting           monoclinic
_symmetry_space_group_name_H-M   'C 2/c'
_symmetry_Int_Tables_number      15
_space_group_name_Hall           '-C 2yn'
loop_
_symmetry_equiv_pos_site_id
_symmetry_equiv_pos_as_xyz
1 x,y,z
2 -x,y,1/2-z
3 1/2+x,1/2+y,z
4 1/2-x,1/2+y,1/2-z
5 -x,-y,-z
6 x,-y,1/2+z
7 1/2-x,1/2-y,-z
8 1/2+x,1/2-y,1/2+z
_cell_length_a                   22.656(7)
_cell_length_b                   8.645(2)
_cell_length_c                   15.634(4)
_cell_angle_alpha                90
_cell_angle_beta                 102.471(6)
_cell_angle_gamma                90
_cell_volume                     2989.84
loop_
_atom_site_label
_atom_site_type_symbol
_atom_site_fract_x
_atom_site_fract_y
_atom_site_fract_z
O1 O 0.2914(3) 0.6831(9) 0.7797(5)
O2 O 0.3599(4) 0.5720(9) 0.7207(5)
C1 C 0.3434(5) 0.6231(12) 0.7874(8)
O3 O 0.1631(3) 0.5727(9) 0.5092(5)
S1 S 0.14696(11) 0.5334(3) 0.41512(18)
C2 C 0.3242(5) 0.4244(12) 0.9325(7)
C3 C 0.3722(5) 0.5451(12) 0.9483(7)
C4 C 0.3855(5) 0.6265(12) 0.8756(7)
C5 C 0.4071(5) 0.5648(12) 1.0322(7)
H1 H 0.3976 0.5142 1.0800
C6 C 0.5372(5) 0.7997(14) 1.0866(8)
H2 H 0.5707 0.8458 1.1224
C7 C 0.4710(5) 0.7372(13) 0.9698(7)
C8 C 0.4571(5) 0.6635(12) 1.0424(8)
N1 N 0.4996(4) 0.7079(11) 1.1167(6)
O4 O 0.1776(3) 0.5452(9) 0.7054(5)
H3 H 0.1464 0.5986 0.7072
H4 H 0.1836 0.4596 0.7326
O5 O 0.5000 0.4648(16) 1.2500
O6 O 0.1809(4) 0.6316(9) 0.3653(5)
O7 O 0.2979(3) 0.3867(8) 0.9936(5)
O8 O 0.3129(4) 0.3571(8) 0.8592(5)
Pr1 Pr 0.25330(2) 0.64147(7) 0.61792(4)
Ni1 Ni 0.5000 0.7047(3) 1.2500
O9 O 0.2603(4) 0.3585(8) 0.6155(5)
H5 H 0.2297 0.3050 0.5913
H6 H 0.2933 0.3138 0.6388
O10 O 0.0821(3) 0.5609(10) 0.3829(5)
N2 N 0.5224(4) 0.8196(11) 1.0005(6)
H7 H 0.5417 0.8745 0.9697
O11 O 0.5000 0.9429(15) 1.2500
C9 C 0.4351(5) 0.7227(13) 0.8855(7)
H8 H 0.4443 0.7755 0.8382
O12 O 0.4074(4) 0.7157(10) 1.2286(5)
O13 O 0.1606(4) 0.3706(9) 0.4021(6)
H9 H 0.479(5) 1.011(10) 1.219(7)
H10 H 0.391(5) 0.628(8) 1.230(8)
H11 H 0.394(6) 0.763(11) 1.187(8)
H12 H 0.468(3) 0.418(14) 1.227(9)
O1A O 0.7086(3) 0.6831(9) 1.7203(5)
O2A O 0.6401(4) 0.5720(9) 1.7793(5)
C1A C 0.6566(5) 0.6231(12) 1.7126(8)
O3F O 0.3369(3) 0.9273(9) 0.4908(5)
O3A O 0.8369(3) 0.5727(9) 1.9908(5)
S1F S 0.35304(11) 0.9666(3) 0.58488(18)
C2A C 0.6758(5) 0.4244(12) 1.5675(7)
C3A C 0.6278(5) 0.5451(12) 1.5517(7)
C4A C 0.6145(5) 0.6265(12) 1.6244(7)
C5A C 0.5929(5) 0.5648(12) 1.4678(7)
H1A H 0.6024 0.5142 1.4200
C6A C 0.4628(5) 0.7997(14) 1.4134(8)
H2A H 0.4293 0.8458 1.3776
C7A C 0.5290(5) 0.7372(13) 1.5302(7)
C8A C 0.5429(5) 0.6635(12) 1.4576(8)
N1A N 0.5004(4) 0.7079(11) 1.3833(6)
O4A O 0.8224(3) 0.5452(9) 1.7946(5)
H3A H 0.8536 0.5986 1.7928
H4A H 0.8164 0.4596 1.7674
O6F O 0.3191(4) 0.8684(9) 0.6347(5)
O6G O 0.6809(4) 0.8684(9) 1.8653(5)
O7A O 0.7021(3) 0.3867(8) 1.5064(5)
O7C O 0.2021(3) 0.8867(8) 0.5064(5)
O7E O 0.2979(3) 0.6133(8) 0.4936(5)
O7B O 0.7979(3) 0.8867(8) 1.9936(5)
O7D O 0.7021(3) 0.6133(8) 2.0064(5)
O8A O 0.6871(4) 0.3571(8) 1.6408(5)
O8C O 0.1871(4) 0.8571(8) 0.6408(5)
O8B O 0.8129(4) 0.8571(8) 1.8592(5)
Pr1A Pr 0.74670(2) 0.64147(7) 1.88208(4)
Pr1F Pr 0.24670(2) 0.85853(7) 0.38208(4)
Pr1C Pr 0.24670(2) 0.14147(7) 0.88208(4)
Pr1E Pr 0.25330(2) 0.35853(7) 1.11792(4)
Pr1B Pr 0.75330(2) 0.14147(7) 1.61792(4)
Pr1D Pr 0.74670(2) 0.35853(7) 1.38208(4)
O9A O 0.7397(4) 0.3585(8) 1.8845(5)
H5A H 0.7703 0.3050 1.9087
H6A H 0.7067 0.3138 1.8612
O10F O 0.4179(3) 0.9391(10) 0.6171(5)
N2A N 0.4776(4) 0.8196(11) 1.4995(6)
H7A H 0.4583 0.8745 1.5303
C9A C 0.5649(5) 0.7227(13) 1.6145(7)
H8A H 0.5557 0.7755 1.6618
O12A O 0.5926(4) 0.7157(10) 1.2714(5)
O13F O 0.3394(4) 1.1294(9) 0.5979(6)
H9A H 0.521(5) 1.011(10) 1.281(7)
H10A H 0.609(5) 0.628(8) 1.270(8)
H11A H 0.606(6) 0.763(11) 1.313(8)
H12A H 0.532(3) 0.418(14) 1.273(9)
loop_
_geom_bond_atom_site_label_1
_geom_bond_atom_site_label_2
_geom_bond_site_symmetry_1
_geom_bond_site_symmetry_2
O1 C1 1_555 1_555
O2 C1 1_555 1_555
C1 C4 1_555 1_555
O3 S1 1_555 1_555
S1 O6 1_555 1_555
C2 C3 1_555 1_555
C3 C4 1_555 1_555
C4 C9 1_555 1_555
C5 C3 1_555 1_555
H1 C5 1_555 1_555
C6 H2 1_555 1_555
C7 C8 1_555 1_555
C8 C5 1_555 1_555
N1 C6 1_555 1_555
O4 H3 1_555 1_555
H4 O4 1_555 1_555
O5 Ni1 1_555 1_555
O6 Pr1F 1_555 1_555
O7 C2 1_555 1_555
O8 C2 1_555 1_555
Pr1 O1 1_555 1_555
Ni1 N1 1_555 1_555
O9 Pr1 1_555 1_555
H5 O9 1_555 1_555
H6 O9 1_555 1_555
O10 S1 1_555 1_555
N2 C6 1_555 1_555
H7 N2 1_555 1_555
O11 Ni1 1_555 1_555
C9 C7 1_555 1_555
H8 C9 1_555 1_555
O12 Ni1 1_555 1_555
O13 S1 1_555 1_555
H9 O11 1_555 1_555
H10 O12 1_555 1_555
H11 O12 1_555 1_555
H12 O5 1_555 1_555
O1A C1A 1_555 1_555
O2A C1A 1_555 1_555
C1A C4A 1_555 1_555
O3F S1F 1_555 1_555
O3A Pr1A 1_555 1_555
S1F O6F 1_555 1_555
C2A C3A 1_555 1_555
C3A C4A 1_555 1_555
C4A C9A 1_555 1_555
C5A C3A 1_555 1_555
H1A C5A 1_555 1_555
C6A H2A 1_555 1_555
C7A C8A 1_555 1_555
C8A C5A 1_555 1_555
N1A Ni1 1_555 1_555
O4A H3A 1_555 1_555
H4A O4A 1_555 1_555
O6F Pr1 1_555 1_555
O6G Pr1A 1_555 1_555
O7A C2A 1_555 1_555
O7C Pr1 1_555 1_555
O7E Pr1 1_555 1_555
O7B Pr1A 1_555 1_555
O7D Pr1A 1_555 1_555
O8A C2A 1_555 1_555
O8C Pr1 1_555 1_555
O8B Pr1A 1_555 1_555
Pr1A O1A 1_555 1_555
Pr1F O3F 1_555 1_555
Pr1C O7 1_555 1_555
Pr1E O7 1_555 1_555
Pr1B O7A 1_555 1_555
Pr1D O7A 1_555 1_555
O9A Pr1A 1_555 1_555
H5A O9A 1_555 1_555
H6A O9A 1_555 1_555
O10F S1F 1_555 1_555
N2A C6A 1_555 1_555
H7A N2A 1_555 1_555
C9A C7A 1_555 1_555
H8A C9A 1_555 1_555
O12A Ni1 1_555 1_555
O13F S1F 1_555 1_555
H9A O11 1_555 1_555
H10A O12A 1_555 1_555
H11A O12A 1_555 1_555
H12A O5 1_555 1_555
O2 Pr1 1_555 1_555
O3 Pr1 1_555 1_555
C7 N2 1_555 1_555
C8 N1 1_555 1_555
O4 Pr1 1_555 1_555
O8 Pr1C 1_555 1_555
O2A Pr1A 1_555 1_555
C6A N1A 1_555 1_555
C7A N2A 1_555 1_555
C8A N1A 1_555 1_555
O4A Pr1A 1_555 1_555
O7C Pr1F 1_555 1_555
O7E Pr1F 1_555 1_555
O8A Pr1B 1_555 1_555

#END
