
#######################################################################
#
#                 Cambridge Crystallographic Data Centre
#                                CCDC 
#
#######################################################################
#
# If this CIF has been generated from an entry in the Cambridge 
# Structural Database, then it will include bibliographic, chemical, 
# crystal, experimental, refinement or atomic coordinate data resulting 
# from the CCDC's data processing and validation procedures.
#
#######################################################################

data_NEGTOK
_symmetry_cell_setting           monoclinic
_symmetry_space_group_name_H-M   'C 2/c'
_symmetry_Int_Tables_number      15
_space_group_name_Hall           '-C 2yn'
loop_
_symmetry_equiv_pos_site_id
_symmetry_equiv_pos_as_xyz
1 x,y,z
2 -x,y,1/2-z
3 1/2+x,1/2+y,z
4 1/2-x,1/2+y,1/2-z
5 -x,-y,-z
6 x,-y,1/2+z
7 1/2-x,1/2-y,-z
8 1/2+x,1/2-y,1/2+z
_cell_length_a                   22.761(9)
_cell_length_b                   8.521(3)
_cell_length_c                   15.455(5)
_cell_angle_alpha                90
_cell_angle_beta                 102.513(9)
_cell_angle_gamma                90
_cell_volume                     2926.24
loop_
_atom_site_label
_atom_site_type_symbol
_atom_site_fract_x
_atom_site_fract_y
_atom_site_fract_z
O1 O 0.2038(4) 0.6061(10) 0.0016(5)
O2 O 0.1892(4) 0.6493(9) 0.1366(6)
C1 C 0.1777(5) 0.5746(14) 0.0644(8)
Tb1 Tb 0.24718(2) 0.36115(7) 0.38230(4)
Ni1 Ni 0.0000 0.2897(3) -0.2500
S1 S 0.34993(13) 0.4609(4) 0.5851(2)
O3 O 0.0000 0.0479(17) -0.2500
O4 O 0.1418(4) 0.4326(11) 0.2823(6)
O5 O 0.3341(4) 0.4206(10) 0.4898(5)
N1 N -0.0217(5) 0.1800(13) 0.0036(7)
H1 H -0.0409 0.1257 0.0354
O6 O 0.1846(4) 0.1381(10) 0.3647(6)
O7 O 0.2109(4) 0.3227(10) 0.2240(6)
C2 C 0.1584(6) 0.3814(14) 0.2155(8)
O8 O -0.0924(4) 0.2786(12) -0.2704(6)
O9 O 0.3211(4) 0.4565(10) 0.2984(6)
H2 H 0.3100 0.4761 0.2434
H3 H 0.3576 0.4697 0.3247
C3 C 0.1165(5) 0.3746(14) 0.1265(8)
C4 C 0.0302(5) 0.2627(15) 0.0339(8)
N2 N 0.0011(5) 0.2878(13) -0.1159(7)
C5 C -0.0373(6) 0.1988(15) -0.0840(9)
H4 H -0.0715 0.1541 -0.1193
C6 C 0.0941(5) 0.4311(15) -0.0321(8)
H5 H 0.1036 0.4800 -0.0811
C7 C 0.1295(5) 0.4538(14) 0.0519(8)
C8 C 0.0438(6) 0.3329(15) -0.0417(9)
O10 O 0.0000 0.5329(18) -0.2500
C9 C 0.0665(5) 0.2795(15) 0.1179(8)
H6 H 0.0575 0.2286 0.1667
O11 O 0.4146(4) 0.4318(11) 0.6193(6)
O12 O 0.3364(4) 0.6270(10) 0.5979(6)
O13 O 0.2413(4) 0.6358(9) 0.3824(6)
H7 H 0.2179 0.6831 0.3401
H8 H 0.2625 0.6880 0.4247
H9 H -0.107(5) 0.370(7) -0.270(8)
H10 H -0.110(5) 0.234(12) -0.317(5)
H11 H 0.023(5) -0.006(13) -0.211(6)
H12 H 0.027(5) 0.592(14) -0.221(9)
O1A O -0.2038(4) 0.6061(10) -0.5016(5)
O1C O 0.2962(4) 0.1061(10) 0.4984(5)
O1E O 0.2038(4) 0.3939(10) 0.5016(5)
O1B O -0.2962(4) 0.1061(10) -0.9984(5)
O1D O -0.2038(4) 0.3939(10) -1.0016(5)
O2A O -0.1892(4) 0.6493(9) -0.6366(6)
O2C O 0.3108(4) 0.1493(9) 0.3634(6)
O2B O -0.3108(4) 0.1493(9) -0.8634(6)
C1A C -0.1777(5) 0.5746(14) -0.5644(8)
Tb1B Tb -0.25282(2) 0.86115(7) -0.61770(4)
Tb1E Tb 0.24718(2) 0.63885(7) -0.11770(4)
Tb1C Tb 0.25282(2) 0.86115(7) 0.11770(4)
Tb1D Tb -0.24718(2) 0.63885(7) -0.38230(4)
Tb1A Tb -0.24718(2) 0.36115(7) -0.88230(4)
Tb1F Tb 0.25282(2) 0.13885(7) 0.61770(4)
S1F S 0.15007(13) 0.0391(4) 0.4149(2)
O4A O -0.1418(4) 0.4326(11) -0.7823(6)
O5A O -0.3341(4) 0.4206(10) -0.9898(5)
O5F O 0.1659(4) 0.0794(10) 0.5102(5)
N1A N 0.0217(5) 0.1800(13) -0.5036(7)
H1A H 0.0409 0.1257 -0.5354
O6A O -0.1846(4) 0.1381(10) -0.8647(6)
O6F O 0.3154(4) 0.3619(10) 0.6353(6)
O7A O -0.2109(4) 0.3227(10) -0.7240(6)
C2A C -0.1584(6) 0.3814(14) -0.7155(8)
O8A O 0.0924(4) 0.2786(12) -0.2296(6)
O9A O -0.3211(4) 0.4565(10) -0.7984(6)
H2A H -0.3100 0.4761 -0.7434
H3A H -0.3576 0.4697 -0.8247
C3A C -0.1165(5) 0.3746(14) -0.6265(8)
C4A C -0.0302(5) 0.2627(15) -0.5339(8)
N2A N -0.0011(5) 0.2878(13) -0.3841(7)
C5A C 0.0373(6) 0.1988(15) -0.4160(9)
H4A H 0.0715 0.1541 -0.3807
C6A C -0.0941(5) 0.4311(15) -0.4679(8)
H5A H -0.1036 0.4800 -0.4189
C7A C -0.1295(5) 0.4538(14) -0.5519(8)
C8A C -0.0438(6) 0.3329(15) -0.4583(9)
C9A C -0.0665(5) 0.2795(15) -0.6179(8)
H6A H -0.0575 0.2286 -0.6667
O11F O 0.0854(4) 0.0682(11) 0.3807(6)
O12F O 0.1636(4) -0.1270(10) 0.4021(6)
O13A O -0.2413(4) 0.6358(9) -0.8824(6)
H7A H -0.2179 0.6831 -0.8401
H8A H -0.2625 0.6880 -0.9247
H9A H 0.107(5) 0.370(7) -0.230(8)
H10A H 0.110(5) 0.234(12) -0.183(5)
H11A H -0.023(5) -0.006(13) -0.289(6)
H12A H -0.027(5) 0.592(14) -0.279(9)
loop_
_geom_bond_atom_site_label_1
_geom_bond_atom_site_label_2
_geom_bond_site_symmetry_1
_geom_bond_site_symmetry_2
O1 C1 1_555 1_555
O2 C1 1_555 1_555
C1 C7 1_555 1_555
Tb1 O4 1_555 1_555
Ni1 O3 1_555 1_555
S1 O5 1_555 1_555
O3 H11 1_555 1_555
O4 C2 1_555 1_555
O5 Tb1 1_555 1_555
N1 H1 1_555 1_555
O6 Tb1 1_555 1_555
O7 Tb1 1_555 1_555
C2 O7 1_555 1_555
O8 Ni1 1_555 1_555
O9 Tb1 1_555 1_555
H2 O9 1_555 1_555
H3 O9 1_555 1_555
C3 C2 1_555 1_555
C4 N1 1_555 1_555
N2 Ni1 1_555 1_555
C5 N1 1_555 1_555
H4 C5 1_555 1_555
C6 H5 1_555 1_555
C7 C3 1_555 1_555
C8 C4 1_555 1_555
O10 Ni1 1_555 1_555
C9 C3 1_555 1_555
H6 C9 1_555 1_555
O11 S1 1_555 1_555
O12 S1 1_555 1_555
O13 Tb1 1_555 1_555
H7 O13 1_555 1_555
H8 O13 1_555 1_555
H9 O8 1_555 1_555
H10 O8 1_555 1_555
H12 O10 1_555 1_555
O1A C1A 1_555 1_555
O1C Tb1 1_555 1_555
O1E Tb1 1_555 1_555
O1B Tb1A 1_555 1_555
O1D Tb1A 1_555 1_555
O2A C1A 1_555 1_555
O2C Tb1 1_555 1_555
O2B Tb1A 1_555 1_555
C1A C7A 1_555 1_555
Tb1B O1A 1_555 1_555
Tb1E O1 1_555 1_555
Tb1C O1 1_555 1_555
Tb1D O1A 1_555 1_555
Tb1A O4A 1_555 1_555
Tb1F O1C 1_555 1_555
S1F O6 1_555 1_555
O4A C2A 1_555 1_555
O5A Tb1A 1_555 1_555
O5F Tb1F 1_555 1_555
N1A H1A 1_555 1_555
O6A Tb1A 1_555 1_555
O6F S1 1_555 1_555
O7A Tb1A 1_555 1_555
C2A O7A 1_555 1_555
O8A Ni1 1_555 1_555
O9A Tb1A 1_555 1_555
H2A O9A 1_555 1_555
H3A O9A 1_555 1_555
C3A C2A 1_555 1_555
C4A N1A 1_555 1_555
N2A Ni1 1_555 1_555
C5A N1A 1_555 1_555
H4A C5A 1_555 1_555
C6A H5A 1_555 1_555
C7A C3A 1_555 1_555
C8A C4A 1_555 1_555
C9A C3A 1_555 1_555
H6A C9A 1_555 1_555
O11F S1F 1_555 1_555
O12F S1F 1_555 1_555
O13A Tb1A 1_555 1_555
H7A O13A 1_555 1_555
H8A O13A 1_555 1_555
H9A O8A 1_555 1_555
H10A O8A 1_555 1_555
H11A O3 1_555 1_555
H12A O10 1_555 1_555
O2 Tb1C 1_555 1_555
C4 C9 1_555 1_555
N2 C5 1_555 1_555
N2 C8 1_555 1_555
C6 C7 1_555 1_555
C6 C8 1_555 1_555
O1E Tb1F 1_555 1_555
O2A Tb1B 1_555 1_555
Tb1F O6F 1_555 1_555
S1F O5F 1_555 1_555
C4A C9A 1_555 1_555
N2A C5A 1_555 1_555
N2A C8A 1_555 1_555
C6A C7A 1_555 1_555
C6A C8A 1_555 1_555

#END
