
#######################################################################
#
#                 Cambridge Crystallographic Data Centre
#                                CCDC 
#
#######################################################################
#
# If this CIF has been generated from an entry in the Cambridge 
# Structural Database, then it will include bibliographic, chemical, 
# crystal, experimental, refinement or atomic coordinate data resulting 
# from the CCDC's data processing and validation procedures.
#
#######################################################################

data_NEGTIE
_symmetry_cell_setting           monoclinic
_symmetry_space_group_name_H-M   'C 2/c'
_symmetry_Int_Tables_number      15
_space_group_name_Hall           '-C 2yn'
loop_
_symmetry_equiv_pos_site_id
_symmetry_equiv_pos_as_xyz
1 x,y,z
2 -x,y,1/2-z
3 1/2+x,1/2+y,z
4 1/2-x,1/2+y,1/2-z
5 -x,-y,-z
6 x,-y,1/2+z
7 1/2-x,1/2-y,-z
8 1/2+x,1/2-y,1/2+z
_cell_length_a                   22.339(4)
_cell_length_b                   8.7332(17)
_cell_length_c                   15.413(3)
_cell_angle_alpha                90
_cell_angle_beta                 102.23(3)
_cell_angle_gamma                90
_cell_volume                     2938.69
loop_
_atom_site_label
_atom_site_type_symbol
_atom_site_fract_x
_atom_site_fract_y
_atom_site_fract_z
O1 O 0.26196(19) -0.1290(4) -0.3931(4)
H1 H 0.2855 -0.1778 -0.3517
H2 H 0.2418 -0.1769 -0.4379
O2 O 0.31186(17) -0.1485(3) -0.14125(19)
O3 O 0.29697(13) -0.1201(4) -0.00542(19)
C1 C 0.32343(18) -0.0795(5) -0.0671(2)
Gd1 Gd 0.252920(8) 0.14358(2) -0.382900(11)
S1 S 0.14946(4) 0.03587(11) -0.58618(6)
O4 O 0.35429(16) 0.0676(4) -0.28218(18)
N1 N 0.49964(14) 0.2046(4) 0.1159(2)
C2 C 0.33869(18) 0.1215(4) -0.2154(2)
O5 O 0.18235(16) 0.0228(4) -0.30282(19)
H3 H 0.1942 -0.0002 -0.2483
H4 H 0.1458 0.0038 -0.3296
O6 O 0.16782(15) -0.1181(4) -0.6024(3)
C3 C 0.38194(17) 0.1251(4) -0.1272(2)
C4 C 0.45550(17) 0.1629(4) 0.0411(3)
O7 O 0.28749(14) 0.1824(5) -0.2225(2)
O8 O 0.16560(13) 0.0701(5) -0.49054(19)
C5 C 0.53778(17) 0.2951(5) 0.0850(3)
H5 H 0.5724 0.3386 0.1208
O9 O 0.31969(19) 0.3564(4) -0.3652(2)
C6 C 0.46916(16) 0.2357(4) -0.0332(2)
C7 C 0.37004(16) 0.0430(5) -0.0529(2)
O10 O 0.08321(13) 0.0503(5) -0.6174(2)
C8 C 0.40601(17) 0.0631(5) 0.0314(2)
H6 H 0.3973 0.0113 0.0800
C9 C 0.43191(16) 0.2215(4) -0.1178(2)
H7 H 0.4404 0.2748 -0.1660
Ni1 Ni 0.5000 0.20175(8) 0.2500
O11 O 0.59341(12) 0.2140(4) 0.27262(18)
H8 H 0.6146 0.1325 0.2777
H9 H 0.6110 0.3008 0.2768
O12 O 0.5000 0.4379(5) 0.2500
H10 H 0.5238 0.4692 0.2944
O13 O 0.5000 -0.0370(5) 0.2500
H11 H 0.4965 -0.0683 0.1990
N2 N 0.52186(15) 0.3180(4) -0.0027(2)
H12 H 0.5410 0.3736 -0.0340
O1A O 0.73804(19) -0.1290(4) 0.8931(4)
H1A H 0.7145 -0.1778 0.8517
H2A H 0.7582 -0.1769 0.9379
O2A O 0.68814(17) -0.1485(3) 0.64125(19)
O2C O 0.18814(17) 0.3515(3) -0.35875(19)
O2B O 0.81186(17) 0.3515(3) 0.85875(19)
O3A O 0.70303(13) -0.1201(4) 0.50542(19)
O3C O 0.20303(13) 0.3799(4) -0.49458(19)
O3E O 0.29697(13) 0.1201(4) -0.50542(19)
O3B O 0.79697(13) 0.3799(4) 0.99458(19)
O3D O 0.70303(13) 0.1201(4) 1.00542(19)
C1A C 0.67657(18) -0.0795(5) 0.5671(2)
Gd1B Gd 0.752920(8) -0.35642(2) 0.617100(11)
Gd1E Gd 0.252920(8) -0.14358(2) 0.117100(11)
Gd1C Gd 0.247080(8) -0.35642(2) -0.117100(11)
Gd1D Gd 0.747080(8) -0.14358(2) 0.382900(11)
Gd1A Gd 0.747080(8) 0.14358(2) 0.882900(11)
Gd1F Gd 0.247080(8) 0.35642(2) -0.617100(11)
S1F S 0.35054(4) 0.46413(11) -0.41382(6)
O4A O 0.64571(16) 0.0676(4) 0.78218(18)
N1A N 0.50036(14) 0.2046(4) 0.3841(2)
C2A C 0.66131(18) 0.1215(4) 0.7154(2)
O5A O 0.81765(16) 0.0228(4) 0.80282(19)
H3A H 0.8058 -0.0002 0.7483
H4A H 0.8542 0.0038 0.8296
O6F O 0.33218(15) 0.6181(4) -0.3976(3)
C3A C 0.61806(17) 0.1251(4) 0.6272(2)
C4A C 0.54450(17) 0.1629(4) 0.4589(3)
O7A O 0.71251(14) 0.1824(5) 0.7225(2)
O8A O 0.83440(13) 0.0701(5) 0.99054(19)
O8F O 0.33440(13) 0.4299(5) -0.50946(19)
C5A C 0.46222(17) 0.2951(5) 0.4150(3)
H5A H 0.4276 0.3386 0.3792
O9A O 0.68031(19) 0.3564(4) 0.8652(2)
O9F O 0.18031(19) 0.1436(4) -0.6348(2)
C6A C 0.53084(16) 0.2357(4) 0.5332(2)
C7A C 0.62996(16) 0.0430(5) 0.5529(2)
O10F O 0.41679(13) 0.4497(5) -0.3826(2)
C8A C 0.59399(17) 0.0631(5) 0.4686(2)
H6A H 0.6027 0.0113 0.4200
C9A C 0.56809(16) 0.2215(4) 0.6178(2)
H7A H 0.5596 0.2748 0.6660
O11A O 0.40659(12) 0.2140(4) 0.22738(18)
H8A H 0.3854 0.1325 0.2223
H9A H 0.3890 0.3008 0.2232
H10A H 0.4762 0.4692 0.2056
H11A H 0.5035 -0.0683 0.3010
N2A N 0.47814(15) 0.3180(4) 0.5027(2)
H12A H 0.4590 0.3736 0.5340
loop_
_geom_bond_atom_site_label_1
_geom_bond_atom_site_label_2
_geom_bond_site_symmetry_1
_geom_bond_site_symmetry_2
O1 H1 1_555 1_555
H2 O1 1_555 1_555
O2 C1 1_555 1_555
O3 C1 1_555 1_555
C1 C7 1_555 1_555
Gd1 O1 1_555 1_555
S1 O6 1_555 1_555
O4 Gd1 1_555 1_555
N1 C4 1_555 1_555
C2 O4 1_555 1_555
O5 Gd1 1_555 1_555
H3 O5 1_555 1_555
H4 O5 1_555 1_555
C3 C2 1_555 1_555
C4 C6 1_555 1_555
O7 Gd1 1_555 1_555
O8 Gd1 1_555 1_555
C5 N1 1_555 1_555
H5 C5 1_555 1_555
O9 Gd1 1_555 1_555
C6 C9 1_555 1_555
C7 C3 1_555 1_555
O10 S1 1_555 1_555
C8 C4 1_555 1_555
H6 C8 1_555 1_555
C9 C3 1_555 1_555
H7 C9 1_555 1_555
Ni1 N1 1_555 1_555
O11 Ni1 1_555 1_555
H8 O11 1_555 1_555
H9 O11 1_555 1_555
O12 Ni1 1_555 1_555
H10 O12 1_555 1_555
O13 Ni1 1_555 1_555
H11 O13 1_555 1_555
N2 C5 1_555 1_555
H12 N2 1_555 1_555
O1A H1A 1_555 1_555
H2A O1A 1_555 1_555
O2A C1A 1_555 1_555
O2C Gd1 1_555 1_555
O2B Gd1A 1_555 1_555
O3A C1A 1_555 1_555
O3C Gd1 1_555 1_555
O3E Gd1 1_555 1_555
O3B Gd1A 1_555 1_555
O3D Gd1A 1_555 1_555
C1A C7A 1_555 1_555
Gd1B O2A 1_555 1_555
Gd1E O3 1_555 1_555
Gd1C O2 1_555 1_555
Gd1D O3A 1_555 1_555
Gd1A O1A 1_555 1_555
Gd1F O3C 1_555 1_555
S1F O9 1_555 1_555
O4A Gd1A 1_555 1_555
N1A Ni1 1_555 1_555
C2A O4A 1_555 1_555
O5A Gd1A 1_555 1_555
H3A O5A 1_555 1_555
H4A O5A 1_555 1_555
O6F S1F 1_555 1_555
C3A C2A 1_555 1_555
C4A N1A 1_555 1_555
O7A Gd1A 1_555 1_555
O8A Gd1A 1_555 1_555
O8F Gd1F 1_555 1_555
C5A N1A 1_555 1_555
H5A C5A 1_555 1_555
O9A Gd1A 1_555 1_555
O9F S1 1_555 1_555
C6A C4A 1_555 1_555
C7A C3A 1_555 1_555
O10F S1F 1_555 1_555
C8A C4A 1_555 1_555
H6A C8A 1_555 1_555
C9A C3A 1_555 1_555
H7A C9A 1_555 1_555
O11A Ni1 1_555 1_555
H8A O11A 1_555 1_555
H9A O11A 1_555 1_555
H10A O12 1_555 1_555
H11A O13 1_555 1_555
N2A C5A 1_555 1_555
H12A N2A 1_555 1_555
O3 Gd1C 1_555 1_555
S1 O8 1_555 1_555
C2 O7 1_555 1_555
C6 N2 1_555 1_555
C7 C8 1_555 1_555
O3A Gd1B 1_555 1_555
O3E Gd1F 1_555 1_555
Gd1F O9F 1_555 1_555
S1F O8F 1_555 1_555
C2A O7A 1_555 1_555
C6A C9A 1_555 1_555
C6A N2A 1_555 1_555
C7A C8A 1_555 1_555

#END
