
#######################################################################
#
#                 Cambridge Crystallographic Data Centre
#                                CCDC 
#
#######################################################################
#
# If this CIF has been generated from an entry in the Cambridge 
# Structural Database, then it will include bibliographic, chemical, 
# crystal, experimental, refinement or atomic coordinate data resulting 
# from the CCDC's data processing and validation procedures.
#
#######################################################################

data_NEGTAW
_symmetry_cell_setting           monoclinic
_symmetry_space_group_name_H-M   'C 2/c'
_symmetry_Int_Tables_number      15
_space_group_name_Hall           '-C 2yn'
loop_
_symmetry_equiv_pos_site_id
_symmetry_equiv_pos_as_xyz
1 x,y,z
2 -x,y,1/2-z
3 1/2+x,1/2+y,z
4 1/2-x,1/2+y,1/2-z
5 -x,-y,-z
6 x,-y,1/2+z
7 1/2-x,1/2-y,-z
8 1/2+x,1/2-y,1/2+z
_cell_length_a                   22.704(8)
_cell_length_b                   8.590(2)
_cell_length_c                   15.513(4)
_cell_angle_alpha                90
_cell_angle_beta                 102.450(6)
_cell_angle_gamma                90
_cell_volume                     2954.31
loop_
_atom_site_label
_atom_site_type_symbol
_atom_site_fract_x
_atom_site_fract_y
_atom_site_fract_z
O1 O 0.1831(2) 0.3653(6) -0.1348(4)
N1 N -0.0220(3) 0.3196(7) -0.4980(5)
H1 H -0.0412 0.3745 -0.4666
O2 O 0.2403(3) -0.1374(6) -0.1154(4)
O3 O 0.0926(3) 0.2176(7) -0.7291(4)
O4 O 0.0836(2) 0.4351(6) -0.1187(4)
O5 O 0.1620(3) 0.6277(6) -0.0982(4)
O6 O 0.1415(2) 0.0700(6) -0.2184(3)
O7 O 0.2102(2) 0.1806(6) -0.2779(4)
C1 C 0.1582(3) 0.1219(8) -0.2853(5)
Sm1 Sm 0.247070(17) 0.14099(4) -0.11753(3)
Ni1 Ni 0.0000 0.20622(16) -0.7500
O8 O 0.1879(2) -0.1462(5) -0.3609(4)
O9 O 0.1645(2) 0.4241(6) 0.0096(3)
O10 O 0.0000 -0.0360(11) -0.7500
O11 O 0.2029(2) -0.1110(5) -0.4958(3)
C2 C 0.1158(3) 0.1260(8) -0.3741(5)
C3 C 0.0437(4) 0.1655(8) -0.5419(5)
O12 O 0.3218(3) 0.0424(7) -0.2025(4)
C4 C -0.0375(4) 0.2996(9) -0.5851(6)
H2 H -0.0716 0.3442 -0.6206
C5 C 0.0299(3) 0.2372(9) -0.4674(5)
C6 C 0.0936(3) 0.0659(9) -0.5320(5)
H3 H 0.1027 0.0150 -0.5804
N2 N 0.0011(3) 0.2088(7) -0.6162(4)
C7 C 0.1765(3) -0.0750(8) -0.4340(5)
C8 C 0.1288(3) 0.0452(8) -0.4481(5)
C9 C 0.0661(3) 0.2223(9) -0.3835(5)
H4 H 0.0573 0.2750 -0.3355
O13 O 0.0000 0.4458(10) -0.7500
S1 S 0.14848(8) 0.4638(2) -0.08505(13)
H5 H 0.260(3) -0.177(7) -0.148(4)
H6 H 0.023(3) 0.502(7) -0.714(4)
H7 H 0.109(3) 0.130(4) -0.731(4)
H8 H 0.112(3) 0.262(7) -0.683(3)
H9 H 0.220(3) -0.204(6) -0.096(5)
H10 H 0.337(3) 0.122(5) -0.221(4)
H11 H 0.314(3) -0.019(6) -0.246(3)
H12 H 0.0348(19) -0.074(9) -0.738(6)
O1F O 0.3169(2) 0.1347(6) 0.1348(4)
O1A O -0.1831(2) 0.3653(6) -1.3652(4)
N1A N 0.0220(3) 0.3196(7) -1.0020(5)
H1A H 0.0412 0.3745 -1.0334
O2A O -0.2403(3) -0.1374(6) -1.3846(4)
O3A O -0.0926(3) 0.2176(7) -0.7709(4)
O4F O 0.4164(2) 0.0649(6) 0.1187(4)
O5F O 0.3380(3) -0.1277(6) 0.0982(4)
O6A O -0.1415(2) 0.0700(6) -1.2816(3)
O7A O -0.2102(2) 0.1806(6) -1.2221(4)
C1A C -0.1582(3) 0.1219(8) -1.2147(5)
Sm1A Sm -0.247070(17) 0.14099(4) -1.38247(3)
Sm1C Sm 0.252930(17) -0.35901(4) -0.38247(3)
Sm1F Sm 0.252930(17) 0.35901(4) 0.11753(3)
Sm1E Sm 0.247070(17) -0.14099(4) -0.61753(3)
Sm1B Sm -0.252930(17) -0.35901(4) -1.11753(3)
Sm1D Sm -0.247070(17) -0.14099(4) -0.88247(3)
O8A O -0.1879(2) -0.1462(5) -1.1391(4)
O8C O 0.3121(2) 0.3538(5) -0.1391(4)
O8B O -0.3121(2) 0.3538(5) -1.3609(4)
O9F O 0.3355(2) 0.0759(6) -0.0096(3)
O9G O -0.3355(2) 0.0759(6) -1.4904(3)
O11A O -0.2029(2) -0.1110(5) -1.0042(3)
O11C O 0.2971(2) 0.3890(5) -0.0042(3)
O11E O 0.2029(2) 0.1110(5) 0.0042(3)
O11B O -0.2971(2) 0.3890(5) -1.4958(3)
O11D O -0.2029(2) 0.1110(5) -1.5042(3)
C2A C -0.1158(3) 0.1260(8) -1.1259(5)
C3A C -0.0437(4) 0.1655(8) -0.9581(5)
O12A O -0.3218(3) 0.0424(7) -1.2975(4)
C4A C 0.0375(4) 0.2996(9) -0.9149(6)
H2A H 0.0716 0.3442 -0.8794
C5A C -0.0299(3) 0.2372(9) -1.0326(5)
C6A C -0.0936(3) 0.0659(9) -0.9680(5)
H3A H -0.1027 0.0150 -0.9196
N2A N -0.0011(3) 0.2088(7) -0.8838(4)
C7A C -0.1765(3) -0.0750(8) -1.0660(5)
C8A C -0.1288(3) 0.0452(8) -1.0519(5)
C9A C -0.0661(3) 0.2223(9) -1.1165(5)
H4A H -0.0573 0.2750 -1.1645
S1F S 0.35152(8) 0.0362(2) 0.08505(13)
H5A H -0.260(3) -0.177(7) -1.352(4)
H6A H -0.023(3) 0.502(7) -0.786(4)
H7A H -0.109(3) 0.130(4) -0.769(4)
H8A H -0.112(3) 0.262(7) -0.817(3)
H9A H -0.220(3) -0.204(6) -1.404(5)
H10A H -0.337(3) 0.122(5) -1.279(4)
H11A H -0.314(3) -0.019(6) -1.254(3)
H12A H -0.0348(19) -0.074(9) -0.762(6)
loop_
_geom_bond_atom_site_label_1
_geom_bond_atom_site_label_2
_geom_bond_site_symmetry_1
_geom_bond_site_symmetry_2
O1 Sm1 1_555 1_555
N1 H1 1_555 1_555
O2 Sm1 1_555 1_555
O3 Ni1 1_555 1_555
O4 S1 1_555 1_555
O5 S1 1_555 1_555
O6 C1 1_555 1_555
O7 C1 1_555 1_555
C1 C2 1_555 1_555
Sm1 O6 1_555 1_555
Ni1 O10 1_555 1_555
O8 C7 1_555 1_555
O9 S1 1_555 1_555
O10 H12 1_555 1_555
O11 C7 1_555 1_555
C2 C8 1_555 1_555
C3 C5 1_555 1_555
O12 Sm1 1_555 1_555
C4 N1 1_555 1_555
H2 C4 1_555 1_555
C5 N1 1_555 1_555
C6 C3 1_555 1_555
H3 C6 1_555 1_555
N2 Ni1 1_555 1_555
C7 C8 1_555 1_555
C8 C6 1_555 1_555
C9 C2 1_555 1_555
H4 C9 1_555 1_555
O13 Ni1 1_555 1_555
S1 O1 1_555 1_555
H5 O2 1_555 1_555
H6 O13 1_555 1_555
H7 O3 1_555 1_555
H8 O3 1_555 1_555
H9 O2 1_555 1_555
H10 O12 1_555 1_555
H11 O12 1_555 1_555
O1F Sm1F 1_555 1_555
O1A Sm1A 1_555 1_555
N1A H1A 1_555 1_555
O2A Sm1A 1_555 1_555
O3A Ni1 1_555 1_555
O4F S1F 1_555 1_555
O5F S1F 1_555 1_555
O6A C1A 1_555 1_555
O7A C1A 1_555 1_555
C1A C2A 1_555 1_555
Sm1A O6A 1_555 1_555
Sm1C O8 1_555 1_555
Sm1F O9 1_555 1_555
Sm1E O11 1_555 1_555
Sm1B O8A 1_555 1_555
Sm1D O11A 1_555 1_555
O8A C7A 1_555 1_555
O8C Sm1 1_555 1_555
O8B Sm1A 1_555 1_555
O9F Sm1 1_555 1_555
O9G Sm1A 1_555 1_555
O11A Sm1B 1_555 1_555
O11C Sm1 1_555 1_555
O11E Sm1 1_555 1_555
O11B Sm1A 1_555 1_555
O11D Sm1A 1_555 1_555
C2A C8A 1_555 1_555
C3A C5A 1_555 1_555
O12A Sm1A 1_555 1_555
C4A N1A 1_555 1_555
H2A C4A 1_555 1_555
C5A N1A 1_555 1_555
C6A C3A 1_555 1_555
H3A C6A 1_555 1_555
N2A Ni1 1_555 1_555
C7A O11A 1_555 1_555
C8A C6A 1_555 1_555
C9A C2A 1_555 1_555
H4A C9A 1_555 1_555
S1F O1F 1_555 1_555
H5A O2A 1_555 1_555
H6A O13 1_555 1_555
H7A O3A 1_555 1_555
H8A O3A 1_555 1_555
H9A O2A 1_555 1_555
H10A O12A 1_555 1_555
H11A O12A 1_555 1_555
H12A O10 1_555 1_555
O7 Sm1 1_555 1_555
O11 Sm1C 1_555 1_555
C3 N2 1_555 1_555
C4 N2 1_555 1_555
C5 C9 1_555 1_555
O7A Sm1A 1_555 1_555
Sm1F O11C 1_555 1_555
Sm1F O11E 1_555 1_555
O9F S1F 1_555 1_555
C3A N2A 1_555 1_555
C4A N2A 1_555 1_555
C5A C9A 1_555 1_555
C7A C8A 1_555 1_555

#END
