
#######################################################################
#
#                 Cambridge Crystallographic Data Centre
#                                CCDC 
#
#######################################################################
#
# If this CIF has been generated from an entry in the Cambridge 
# Structural Database, then it will include bibliographic, chemical, 
# crystal, experimental, refinement or atomic coordinate data resulting 
# from the CCDC's data processing and validation procedures.
#
#######################################################################

data_NEGVEC
_symmetry_cell_setting           monoclinic
_symmetry_space_group_name_H-M   'P 21/c'
_symmetry_Int_Tables_number      14
_space_group_name_Hall           '-P 2ybc'
loop_
_symmetry_equiv_pos_site_id
_symmetry_equiv_pos_as_xyz
1 x,y,z
2 -x,1/2+y,1/2-z
3 -x,-y,-z
4 x,1/2-y,1/2+z
_cell_length_a                   15.420(3)
_cell_length_b                   8.6010(17)
_cell_length_c                   24.344(8)
_cell_angle_alpha                90
_cell_angle_beta                 115.62(2)
_cell_angle_gamma                90
_cell_volume                     2911.24
loop_
_atom_site_label
_atom_site_type_symbol
_atom_site_fract_x
_atom_site_fract_y
_atom_site_fract_z
Er1 Er 0.141206(15) 0.64464(2) 0.257103(9)
Er2 Er 0.370793(15) 0.86647(2) 0.251750(9)
Ni1 Ni 0.24442(4) 1.20972(8) -0.00071(3)
S1 S 0.26628(9) 0.96806(14) 0.35166(5)
S2 S 0.24108(9) 0.55186(14) 0.15449(5)
O1 O 0.0680(3) 0.8607(4) 0.19911(15)
O2 O 0.2130(2) 0.9132(4) 0.20546(14)
O3 O -0.1246(3) 1.0440(4) 0.15623(15)
O4 O -0.0138(2) 1.2094(4) 0.21191(14)
O5 O -0.0048(3) 0.5254(4) 0.19183(15)
H1 H -0.0077 0.4276 0.1851
H2 H -0.0564 0.5793 0.1746
O6 O 0.1763(3) 0.3770(4) 0.25602(16)
H3 H 0.1850 0.3618 0.2268
H4 H 0.1776 0.3081 0.2747
O7 O 0.3718(3) 1.1360(4) 0.23744(15)
H5 H 0.3868 1.1989 0.2672
H6 H 0.3593 1.1737 0.2020
O8 O 0.5247(3) 0.9661(4) 0.32488(14)
H7 H 0.5580 0.9145 0.3569
H8 H 0.5453 1.0529 0.3186
O9 O 0.3059(2) 0.6347(4) 0.29803(14)
O10 O 0.4579(2) 0.6652(4) 0.31745(15)
O11 O 0.5144(3) 0.3471(4) 0.28847(15)
O12 O 0.6458(2) 0.4319(4) 0.36478(15)
O13 O 0.3452(2) 0.9527(4) 0.33309(14)
O14 O 0.1997(3) 0.8356(4) 0.32954(16)
O15 O 0.3096(2) 0.9691(4) 0.41877(14)
O16 O 0.2121(3) 1.1126(4) 0.32801(16)
O17 O 0.3287(2) 0.6453(4) 0.18932(15)
O18 O 0.1620(2) 0.6034(4) 0.16863(14)
O19 O 0.2614(3) 0.3863(4) 0.17073(16)
O20 O 0.2137(3) 0.5721(4) 0.08926(14)
O21 O 0.2502(2) 0.9669(4) 0.00792(15)
H9 H 0.1906 0.9449 -0.0090
H10 H 0.2745 0.9382 0.0450
O22 O 0.3169(2) 1.2348(4) 0.09362(14)
H11 H 0.2788 1.2719 0.1071
H12 H 0.3384 1.1476 0.1104
O23 O 0.2344(3) 1.4498(4) -0.00644(14)
H13 H 0.2415 1.5031 0.0247
H14 H 0.2636 1.4936 -0.0249
O24 O 0.1743(2) 1.2125(4) -0.09222(14)
H15 H 0.2093 1.2619 -0.1053
H16 H 0.1573 1.1261 -0.1108
N1 N 0.1099(3) 1.2112(5) -0.00053(17)
N2 N -0.0327(3) 1.3160(5) -0.02258(18)
H17 H -0.0844 1.3688 -0.0419
N3 N 0.5191(3) 0.1775(5) 0.52048(17)
H18 H 0.5694 0.1212 0.5394
N4 N 0.3781(3) 0.2898(5) 0.49832(17)
C1 C 0.1236(3) 0.9370(5) 0.1828(2)
C2 C 0.0803(3) 1.0511(5) 0.1325(2)
C3 C 0.1262(4) 1.0743(6) 0.0953(2)
H19 H 0.1852 1.0280 0.1040
C4 C 0.0814(4) 1.1690(6) 0.0446(2)
C5 C 0.0387(4) 1.2961(6) -0.0393(2)
H20 H 0.0380 1.3379 -0.0748
C6 C -0.0081(4) 1.2363(5) 0.0314(2)
C7 C -0.0525(4) 1.2205(6) 0.0694(2)
H21 H -0.1102 1.2708 0.0612
C8 C -0.0080(4) 1.1266(5) 0.1206(2)
C9 C -0.0506(4) 1.1228(5) 0.1657(2)
C10 C 0.3931(3) 0.5914(6) 0.3259(2)
C11 C 0.4224(4) 0.4654(5) 0.3717(2)
C12 C 0.3724(4) 0.4414(5) 0.4067(2)
H22 H 0.3152 0.4936 0.3981
C13 C 0.4105(4) 0.3367(6) 0.4552(2)
C14 C 0.4463(4) 0.1966(6) 0.5356(2)
H23 H 0.4438 0.1488 0.5691
C15 C 0.4986(4) 0.2648(5) 0.4690(2)
C16 C 0.5481(4) 0.2822(6) 0.4334(2)
H24 H 0.6052 0.2292 0.4423
C17 C 0.5088(4) 0.3815(5) 0.3842(2)
C18 C 0.5596(4) 0.3905(5) 0.3439(2)
Er1A Er -0.141206(15) 1.14464(2) 0.242897(9)
Er2A Er 0.629207(15) 0.36647(2) 0.248250(9)
Ni1C Ni 0.24442(4) 0.29028(8) 0.49929(3)
O3A O 0.1246(3) 0.5440(4) 0.34377(15)
O4A O 0.0138(2) 0.7094(4) 0.28809(14)
O11A O 0.4856(3) 0.8471(4) 0.21153(15)
O12A O 0.3542(2) 0.9319(4) 0.13522(15)
N4C N 0.3781(3) 1.2102(5) -0.00168(17)
loop_
_geom_bond_atom_site_label_1
_geom_bond_atom_site_label_2
_geom_bond_site_symmetry_1
_geom_bond_site_symmetry_2
Er1 O1 1_555 1_555
Er2 O2 1_555 1_555
Ni1 O21 1_555 1_555
S1 O13 1_555 1_555
S2 O17 1_555 1_555
O1 C1 1_555 1_555
O2 C1 1_555 1_555
O3 C9 1_555 1_555
O4 C9 1_555 1_555
O5 Er1 1_555 1_555
H1 O5 1_555 1_555
H2 O5 1_555 1_555
O6 Er1 1_555 1_555
H3 O6 1_555 1_555
H4 O6 1_555 1_555
O7 Er2 1_555 1_555
H5 O7 1_555 1_555
H6 O7 1_555 1_555
O8 Er2 1_555 1_555
H7 O8 1_555 1_555
H8 O8 1_555 1_555
O9 Er1 1_555 1_555
O10 Er2 1_555 1_555
O11 C18 1_555 1_555
O12 C18 1_555 1_555
O13 Er2 1_555 1_555
O14 Er1 1_555 1_555
O15 S1 1_555 1_555
O16 S1 1_555 1_555
O17 Er2 1_555 1_555
O18 Er1 1_555 1_555
O19 S2 1_555 1_555
O20 S2 1_555 1_555
O21 H9 1_555 1_555
H10 O21 1_555 1_555
O22 Ni1 1_555 1_555
H11 O22 1_555 1_555
H12 O22 1_555 1_555
O23 Ni1 1_555 1_555
H13 O23 1_555 1_555
H14 O23 1_555 1_555
O24 Ni1 1_555 1_555
H15 O24 1_555 1_555
H16 O24 1_555 1_555
N1 Ni1 1_555 1_555
N2 H17 1_555 1_555
N3 H18 1_555 1_555
N4 C13 1_555 1_555
C1 C2 1_555 1_555
C2 C3 1_555 1_555
C3 H19 1_555 1_555
C4 N1 1_555 1_555
C5 N1 1_555 1_555
H20 C5 1_555 1_555
C6 N2 1_555 1_555
C7 C6 1_555 1_555
H21 C7 1_555 1_555
C8 C2 1_555 1_555
C9 C8 1_555 1_555
C10 O9 1_555 1_555
C11 C10 1_555 1_555
C12 C11 1_555 1_555
H22 C12 1_555 1_555
C13 C12 1_555 1_555
C14 N3 1_555 1_555
H23 C14 1_555 1_555
C15 N3 1_555 1_555
C16 C15 1_555 1_555
H24 C16 1_555 1_555
C17 C11 1_555 1_555
C18 C17 1_555 1_555
Er1A O3 1_555 1_555
Er2A O11 1_555 1_555
Ni1C N4 1_555 1_555
O3A Er1 1_555 1_555
O4A Er1 1_555 1_555
O11A Er2 1_555 1_555
O12A Er2 1_555 1_555
N4C Ni1 1_555 1_555
Er2 O9 1_555 1_555
S1 O14 1_555 1_555
S2 O18 1_555 1_555
O4 Er1A 1_555 1_555
O10 C10 1_555 1_555
O12 Er2A 1_555 1_555
N2 C5 1_555 1_555
N4 C14 1_555 1_555
C3 C4 1_555 1_555
C4 C6 1_555 1_555
C7 C8 1_555 1_555
C13 C15 1_555 1_555
C16 C17 1_555 1_555

#END
