
#######################################################################
#
#                 Cambridge Crystallographic Data Centre
#                                CCDC 
#
#######################################################################
#
# If this CIF has been generated from an entry in the Cambridge 
# Structural Database, then it will include bibliographic, chemical, 
# crystal, experimental, refinement or atomic coordinate data resulting 
# from the CCDC's data processing and validation procedures.
#
#######################################################################

data_NEGVOM
_symmetry_cell_setting           monoclinic
_symmetry_space_group_name_H-M   'P 21/c'
_symmetry_Int_Tables_number      14
_space_group_name_Hall           '-P 2ybc'
loop_
_symmetry_equiv_pos_site_id
_symmetry_equiv_pos_as_xyz
1 x,y,z
2 -x,1/2+y,1/2-z
3 -x,-y,-z
4 x,1/2-y,1/2+z
_cell_length_a                   14.710(6)
_cell_length_b                   13.941(6)
_cell_length_c                   8.914(4)
_cell_angle_alpha                90
_cell_angle_beta                 98.046(8)
_cell_angle_gamma                90
_cell_volume                     1810.02
loop_
_atom_site_label
_atom_site_type_symbol
_atom_site_fract_x
_atom_site_fract_y
_atom_site_fract_z
C1 C 0.3084(3) 0.4638(3) 1.2156(4)
C2 C 0.2496(4) 0.5000(4) 1.3228(6)
H1 H 0.2540 0.5693 1.3295
H2 H 0.2690 0.4734 1.4227
C3 C 0.1516(7) 0.4703(9) 1.2664(13)
H3 H 0.1503 0.4016 1.2499
H4 H 0.1142 0.4838 1.3453
C4 C 0.1103(8) 0.5168(12) 1.1285(12)
H5 H 0.0557 0.4828 1.0874
H6 H 0.1529 0.5166 1.0562
H7 H 0.0949 0.5817 1.1502
C5 C 0.2630(3) 0.3627(3) 0.7609(5)
C6 C 0.1793(3) 0.3312(4) 0.6430(6)
H8 H 0.1755 0.3730 0.5554
H9 H 0.1898 0.2664 0.6095
C7 C 0.0863(8) 0.3341(10) 0.7069(15)
H10 H 0.0937 0.3115 0.8108
H11 H 0.0619 0.3989 0.7037
C8 C 0.0235(11) 0.2684(12) 0.6050(17)
H12 H -0.0389 0.2791 0.6209
H13 H 0.0399 0.2029 0.6281
H14 H 0.0295 0.2814 0.5011
C9 C 0.4285(3) 0.6089(3) 0.7945(5)
C10 C 0.3399(4) 0.6155(4) 0.6944(7)
H15 H 0.3205 0.5525 0.6563
H16 H 0.3455 0.6570 0.6089
C11 C 0.2626(8) 0.6613(9) 0.7997(13)
H17 H 0.2608 0.6228 0.8899
H18 H 0.2789 0.7265 0.8302
C12 C 0.1734(16) 0.6592(18) 0.703(3)
H19 H 0.1274 0.6855 0.7581
H20 H 0.1579 0.5942 0.6752
H21 H 0.1766 0.6967 0.6140
C13 C 0.39163(19) 0.1121(2) 0.9558(4)
H22 H 0.3356 0.0793 0.9674
H23 H 0.4398 0.0906 1.0324
H24 H 0.4080 0.0985 0.8575
Dy1 Dy 0.407635(12) 0.390341(9) 0.983166(14)
O1 O 0.3442(2) 0.5173(2) 1.1245(3)
O2 O 0.3256(2) 0.37276(16) 1.2064(3)
O3 O 0.2458(3) 0.3968(3) 0.8909(5)
O4 O 0.33851(18) 0.36338(18) 0.7254(3)
O5 O 0.4496(2) 0.53361(16) 0.8730(2)
O6 O 0.4846(2) 0.67741(19) 0.8093(3)
O7 O 0.3772(2) 0.22662(17) 0.9729(3)
O8 O 0.5315(2) 0.33671(18) 0.8610(3)
Dy1B Dy 0.592365(12) 0.609659(9) 1.016834(14)
O5B O 0.5504(2) 0.46639(16) 1.1270(2)
O6B O 0.5154(2) 0.32259(19) 1.1907(3)
loop_
_geom_bond_atom_site_label_1
_geom_bond_atom_site_label_2
_geom_bond_site_symmetry_1
_geom_bond_site_symmetry_2
C1 C2 1_555 1_555
C2 H1 1_555 1_555
H2 C2 1_555 1_555
C3 C2 1_555 1_555
H3 C3 1_555 1_555
H4 C3 1_555 1_555
C4 C3 1_555 1_555
H5 C4 1_555 1_555
H6 C4 1_555 1_555
H7 C4 1_555 1_555
C5 C6 1_555 1_555
C6 H8 1_555 1_555
H9 C6 1_555 1_555
C7 C6 1_555 1_555
H10 C7 1_555 1_555
H11 C7 1_555 1_555
C8 C7 1_555 1_555
H12 C8 1_555 1_555
H13 C8 1_555 1_555
H14 C8 1_555 1_555
C9 C10 1_555 1_555
C10 H15 1_555 1_555
H16 C10 1_555 1_555
C11 C10 1_555 1_555
H17 C11 1_555 1_555
H18 C11 1_555 1_555
C12 C11 1_555 1_555
H19 C12 1_555 1_555
H20 C12 1_555 1_555
H21 C12 1_555 1_555
C13 H22 1_555 1_555
H23 C13 1_555 1_555
H24 C13 1_555 1_555
Dy1 O1 1_555 1_555
O1 C1 1_555 1_555
O2 C1 1_555 1_555
O3 C5 1_555 1_555
O4 C5 1_555 1_555
O5 C9 1_555 1_555
O6 C9 1_555 1_555
O7 C13 1_555 1_555
O8 Dy1 1_555 1_555
Dy1B O5 1_555 1_555
O5B Dy1 1_555 1_555
O6B Dy1 1_555 1_555
Dy1 O2 1_555 1_555
Dy1 O3 1_555 1_555
Dy1 O4 1_555 1_555
Dy1 O5 1_555 1_555
Dy1 O7 1_555 1_555
O6 Dy1B 1_555 1_555
Dy1B O5B 1_555 1_555

#END
