
#######################################################################
#
#                 Cambridge Crystallographic Data Centre
#                                CCDC 
#
#######################################################################
#
# If this CIF has been generated from an entry in the Cambridge 
# Structural Database, then it will include bibliographic, chemical, 
# crystal, experimental, refinement or atomic coordinate data resulting 
# from the CCDC's data processing and validation procedures.
#
#######################################################################

data_NEGVAY
_symmetry_cell_setting           monoclinic
_symmetry_space_group_name_H-M   'C 2/c'
_symmetry_Int_Tables_number      15
_space_group_name_Hall           '-C 2yn'
loop_
_symmetry_equiv_pos_site_id
_symmetry_equiv_pos_as_xyz
1 x,y,z
2 -x,y,1/2-z
3 1/2+x,1/2+y,z
4 1/2-x,1/2+y,1/2-z
5 -x,-y,-z
6 x,-y,1/2+z
7 1/2-x,1/2-y,-z
8 1/2+x,1/2-y,1/2+z
_cell_length_a                   22.488(2)
_cell_length_b                   8.6668(9)
_cell_length_c                   15.4291(16)
_cell_angle_alpha                90
_cell_angle_beta                 102.904(2)
_cell_angle_gamma                90
_cell_volume                     2931.17
loop_
_atom_site_label
_atom_site_type_symbol
_atom_site_fract_x
_atom_site_fract_y
_atom_site_fract_z
Ho1 Ho 0.752589(16) 0.36047(4) 0.11703(2)
Ni1 Ni 1.0000 0.29276(17) 0.7500
C1 C 0.9304(4) 0.2825(9) 0.3826(5)
H1 H 0.9382 0.2290 0.3340
C2 C 0.8812(3) 0.3795(8) 0.3730(5)
C3 C 0.8689(3) 0.4578(8) 0.4479(4)
C4 C 0.9052(4) 0.4341(9) 0.5316(5)
H2 H 0.8965 0.4838 0.5807
C5 C 0.9551(3) 0.3350(9) 0.5416(5)
C6 C 0.9683(4) 0.2660(8) 0.4659(5)
C7 C 1.0376(4) 0.2039(10) 0.5844(5)
H3 H 1.0726 0.1608 0.6197
C8 C 0.8369(4) 0.3847(8) 0.2847(5)
C9 C 0.8221(3) 0.5771(9) 0.4362(5)
N1 N 1.0206(3) 0.1845(8) 0.4963(4)
H4 H 1.0395 0.1300 0.4644
N2 N 0.9990(3) 0.2912(7) 0.6158(4)
O1 O 0.7867(2) 0.3187(6) 0.2762(3)
O2 O 0.8528(3) 0.4416(7) 0.2180(3)
O3 O 0.8101(2) 0.6519(6) 0.3640(3)
O4 O 0.7959(2) 0.6123(6) 0.4989(3)
O5 O 0.8192(3) 0.1526(6) 0.1354(3)
O6 O 0.8341(2) 0.0770(6) -0.0091(3)
O7 O 0.8323(3) -0.1112(6) 0.1038(4)
O8 O 0.9158(2) 0.0622(7) 0.1181(4)
O9 O 0.7585(3) 0.6325(6) 0.1073(5)
H5 H 0.7813 0.6832 0.1490
H6 H 0.7380 0.6794 0.0620
O10 O 0.6820(3) 0.4711(6) 0.1982(4)
H7 H 0.6940 0.4929 0.2530
H8 H 0.6452 0.4880 0.1717
O11 O 1.0000 0.5337(10) 0.7500
H9 H 0.9665 0.5828 0.7415
O12 O 0.9068(3) 0.2822(6) 0.7265(3)
H10 H 0.8860 0.3648 0.7212
H11 H 0.8890 0.1951 0.7220
O13 O 1.0000 0.0569(9) 0.7500
H12 H 0.9728 -0.0076 0.7256
S1 S 0.85008(9) 0.0447(2) 0.08651(12)
Ho1A Ho 1.247411(16) 0.36047(4) 1.38297(2)
Ho1C Ho 0.747411(16) 0.86047(4) 0.38297(2)
Ho1E Ho 0.752589(16) 0.63953(4) 0.61703(2)
Ho1F Ho 0.747411(16) 0.13953(4) -0.11703(2)
Ho1B Ho 1.252589(16) 0.86047(4) 1.11703(2)
Ho1D Ho 1.247411(16) 0.63953(4) 0.88297(2)
C1A C 1.0696(4) 0.2825(9) 1.1174(5)
H1A H 1.0618 0.2290 1.1660
C2A C 1.1188(3) 0.3795(8) 1.1270(5)
C3A C 1.1311(3) 0.4578(8) 1.0521(4)
C4A C 1.0948(4) 0.4341(9) 0.9684(5)
H2A H 1.1035 0.4838 0.9193
C5A C 1.0449(3) 0.3350(9) 0.9584(5)
C6A C 1.0317(4) 0.2660(8) 1.0341(5)
C7A C 0.9624(4) 0.2039(10) 0.9156(5)
H3A H 0.9274 0.1608 0.8803
C8A C 1.1631(4) 0.3847(8) 1.2153(5)
C9A C 1.1779(3) 0.5771(9) 1.0638(5)
N1A N 0.9794(3) 0.1845(8) 1.0037(4)
H4A H 0.9605 0.1300 1.0356
N2A N 1.0010(3) 0.2912(7) 0.8842(4)
O1A O 1.2133(2) 0.3187(6) 1.2238(3)
O2A O 1.1472(3) 0.4416(7) 1.2820(3)
O3A O 1.1899(2) 0.6519(6) 1.1360(3)
O3C O 0.6899(2) 0.1519(6) 0.1360(3)
O3B O 1.3101(2) 0.1519(6) 1.3640(3)
O4A O 1.2041(2) 0.6123(6) 1.0011(3)
O4C O 0.7041(2) 0.1123(6) 0.0011(3)
O4E O 0.7959(2) 0.3877(6) -0.0011(3)
O4B O 1.2959(2) 0.1123(6) 1.4989(3)
O4D O 1.2041(2) 0.3877(6) 1.5011(3)
O5F O 0.6808(3) 0.3474(6) -0.1354(3)
O5A O 1.1808(3) 0.1526(6) 1.3646(3)
O6F O 0.6659(2) 0.4230(6) 0.0091(3)
O6G O 1.3341(2) 0.4230(6) 1.4909(3)
O7F O 0.6677(3) 0.6112(6) -0.1038(4)
O8F O 0.5842(2) 0.4378(7) -0.1181(4)
O9A O 1.2415(3) 0.6325(6) 1.3927(5)
H5A H 1.2187 0.6832 1.3510
H6A H 1.2620 0.6794 1.4380
O10A O 1.3180(3) 0.4711(6) 1.3018(4)
H7A H 1.3060 0.4929 1.2470
H8A H 1.3548 0.4880 1.3283
H9A H 1.0335 0.5828 0.7585
O12A O 1.0932(3) 0.2822(6) 0.7735(3)
H10A H 1.1140 0.3648 0.7788
H11A H 1.1110 0.1951 0.7780
H12A H 1.0272 -0.0076 0.7744
S1F S 0.64992(9) 0.4553(2) -0.08651(12)
loop_
_geom_bond_atom_site_label_1
_geom_bond_atom_site_label_2
_geom_bond_site_symmetry_1
_geom_bond_site_symmetry_2
Ho1 O1 1_555 1_555
Ni1 N2 1_555 1_555
C1 H1 1_555 1_555
C2 C1 1_555 1_555
C3 C2 1_555 1_555
C4 C3 1_555 1_555
H2 C4 1_555 1_555
C5 C4 1_555 1_555
C6 C1 1_555 1_555
C7 H3 1_555 1_555
C8 C2 1_555 1_555
C9 C3 1_555 1_555
N1 C6 1_555 1_555
H4 N1 1_555 1_555
N2 C5 1_555 1_555
O1 C8 1_555 1_555
O2 Ho1 1_555 1_555
O3 C9 1_555 1_555
O4 C9 1_555 1_555
O5 Ho1 1_555 1_555
O6 S1 1_555 1_555
O7 S1 1_555 1_555
O8 S1 1_555 1_555
O9 Ho1 1_555 1_555
H5 O9 1_555 1_555
H6 O9 1_555 1_555
O10 Ho1 1_555 1_555
H7 O10 1_555 1_555
H8 O10 1_555 1_555
O11 Ni1 1_555 1_555
H9 O11 1_555 1_555
O12 Ni1 1_555 1_555
H10 O12 1_555 1_555
H11 O12 1_555 1_555
O13 Ni1 1_555 1_555
H12 O13 1_555 1_555
S1 O5 1_555 1_555
Ho1A O1A 1_555 1_555
Ho1C O3 1_555 1_555
Ho1E O4 1_555 1_555
Ho1F O6 1_555 1_555
Ho1B O3A 1_555 1_555
Ho1D O4A 1_555 1_555
C1A H1A 1_555 1_555
C2A C1A 1_555 1_555
C3A C2A 1_555 1_555
C4A C3A 1_555 1_555
H2A C4A 1_555 1_555
C5A C4A 1_555 1_555
C6A C1A 1_555 1_555
C7A H3A 1_555 1_555
C8A C2A 1_555 1_555
C9A C3A 1_555 1_555
N1A C6A 1_555 1_555
H4A N1A 1_555 1_555
N2A Ni1 1_555 1_555
O1A C8A 1_555 1_555
O2A Ho1A 1_555 1_555
O3A C9A 1_555 1_555
O3C Ho1 1_555 1_555
O3B Ho1A 1_555 1_555
O4A Ho1B 1_555 1_555
O4C Ho1 1_555 1_555
O4E Ho1 1_555 1_555
O4B Ho1A 1_555 1_555
O4D Ho1A 1_555 1_555
O5F Ho1F 1_555 1_555
O5A Ho1A 1_555 1_555
O6F Ho1 1_555 1_555
O6G Ho1A 1_555 1_555
O7F S1F 1_555 1_555
O8F S1F 1_555 1_555
O9A Ho1A 1_555 1_555
H5A O9A 1_555 1_555
H6A O9A 1_555 1_555
O10A Ho1A 1_555 1_555
H7A O10A 1_555 1_555
H8A O10A 1_555 1_555
H9A O11 1_555 1_555
O12A Ni1 1_555 1_555
H10A O12A 1_555 1_555
H11A O12A 1_555 1_555
H12A O13 1_555 1_555
S1F O5F 1_555 1_555
C5 C6 1_555 1_555
C7 N1 1_555 1_555
C7 N2 1_555 1_555
C8 O2 1_555 1_555
O4 Ho1C 1_555 1_555
Ho1F O4C 1_555 1_555
Ho1F O4E 1_555 1_555
C5A C6A 1_555 1_555
C5A N2A 1_555 1_555
C7A N1A 1_555 1_555
C7A N2A 1_555 1_555
C8A O2A 1_555 1_555
C9A O4A 1_555 1_555
O6F S1F 1_555 1_555

#END
