
#######################################################################
#
#                 Cambridge Crystallographic Data Centre
#                                CCDC 
#
#######################################################################
#
# If this CIF has been generated from an entry in the Cambridge 
# Structural Database, then it will include bibliographic, chemical, 
# crystal, experimental, refinement or atomic coordinate data resulting 
# from the CCDC's data processing and validation procedures.
#
#######################################################################

data_NEGVIG
_symmetry_cell_setting           monoclinic
_symmetry_space_group_name_H-M   'P 21/c'
_symmetry_Int_Tables_number      14
_space_group_name_Hall           '-P 2ybc'
loop_
_symmetry_equiv_pos_site_id
_symmetry_equiv_pos_as_xyz
1 x,y,z
2 -x,1/2+y,1/2-z
3 -x,-y,-z
4 x,1/2-y,1/2+z
_cell_length_a                   15.408(3)
_cell_length_b                   8.5449(13)
_cell_length_c                   24.386(4)
_cell_angle_alpha                90
_cell_angle_beta                 115.573(9)
_cell_angle_gamma                90
_cell_volume                     2896.13
loop_
_atom_site_label
_atom_site_type_symbol
_atom_site_fract_x
_atom_site_fract_y
_atom_site_fract_z
Yb1 Yb 0.358438(12) 0.35749(2) 0.242104(8)
Yb2 Yb 0.127243(12) 0.13278(2) 0.246527(8)
Ni1 Ni 0.25775(3) -0.21395(8) 0.50153(2)
S1 S 0.23437(6) 0.03395(13) 0.14867(4)
S2 S 0.25742(6) 0.44619(13) 0.34355(4)
O1 O 0.62155(19) -0.0378(4) 0.34139(12)
O2 O 0.51440(18) -0.2117(4) 0.28774(12)
O3 O 0.4250(2) 0.1388(3) 0.29832(14)
O4 O 0.28232(19) 0.0796(4) 0.29441(12)
O5 O 0.19461(19) 0.3664(3) 0.20229(13)
O6 O 0.0426(2) 0.3338(4) 0.18164(13)
O7 O -0.0184(2) 0.6496(4) 0.20972(13)
O8 O -0.14776(19) 0.5632(4) 0.13152(13)
O9 O 0.2911(2) -0.1091(4) 0.17357(14)
O10 O 0.19067(19) 0.0290(4) 0.08175(12)
O11 O 0.15550(18) 0.0475(4) 0.16738(12)
O12 O 0.2992(2) 0.1696(4) 0.16929(14)
O13 O 0.33674(19) 0.3934(4) 0.32967(13)
O14 O 0.1696(2) 0.3516(3) 0.30902(13)
O15 O 0.2367(2) 0.6127(4) 0.32644(13)
O16 O 0.28441(19) 0.4285(4) 0.40861(12)
O17 O 0.1839(2) -0.2403(4) 0.40619(12)
O18 O 0.2685(2) -0.4557(4) 0.50731(12)
H1 H 0.2451 -0.5110 0.4752
H2 H 0.2965 -0.4996 0.5419
O19 O 0.32791(19) -0.2168(4) 0.59313(12)
H3 H 0.3426 -0.3037 0.6119
H4 H 0.3429 -0.1314 0.6129
O20 O 0.25200(18) 0.0302(4) 0.49311(12)
H5 H 0.2253 0.0721 0.4581
H6 H 0.2764 0.0873 0.5247
O21 O 0.50269(19) 0.4751(4) 0.30727(12)
H7 H 0.5187 0.4780 0.3453
H8 H 0.5392 0.5151 0.2931
O22 O 0.3223(2) 0.6236(4) 0.24459(14)
H9 H 0.2703 0.6503 0.2461
H10 H 0.3614 0.6932 0.2440
O23 O 0.1214(2) -0.1352(3) 0.26088(14)
H11 H 0.1692 -0.1925 0.2656
H12 H 0.0714 -0.1758 0.2614
O24 O -0.02680(19) 0.0387(4) 0.17471(13)
N1 N 0.3918(2) -0.2125(5) 0.50079(15)
N2 N 0.5355(2) -0.3168(5) 0.52227(15)
H13 H 0.5879 -0.3683 0.5415
N3 N 0.1243(2) 0.7147(5) 0.00228(14)
N4 N -0.0188(2) 0.8243(5) -0.02086(16)
H14 H -0.0700 0.8787 -0.0403
C1 C 0.5489(3) -0.1213(5) 0.33300(19)
C2 C 0.5070(3) -0.1270(5) 0.37839(19)
C3 C 0.5529(3) -0.2213(5) 0.42907(18)
H15 H 0.6106 -0.2711 0.4367
C4 C 0.5088(3) -0.2383(5) 0.46824(17)
C5 C 0.4644(3) -0.2974(6) 0.53963(18)
H16 H 0.4660 -0.3393 0.5752
C6 C 0.4193(3) -0.1697(5) 0.45567(18)
C7 C 0.3735(3) -0.0754(5) 0.40447(17)
H17 H 0.3143 -0.0295 0.3959
C8 C 0.4183(3) -0.0519(5) 0.36675(17)
C9 C 0.3725(3) 0.0613(5) 0.31557(17)
C10 C 0.1078(3) 0.4075(5) 0.17386(18)
C11 C 0.0784(3) 0.5367(5) 0.12804(17)
C12 C 0.1296(3) 0.5610(5) 0.09384(17)
H18 H 0.1874 0.5093 0.1031
C13 C 0.0913(3) 0.6663(5) 0.04482(18)
C14 C 0.0554(3) 0.8075(5) -0.03543(18)
H19 H 0.0582 0.8562 -0.0687
C15 C 0.0025(3) 0.7379(6) 0.03066(17)
C16 C -0.0479(3) 0.7190(5) 0.06580(17)
H20 H -0.1052 0.7718 0.0567
C17 C -0.0091(3) 0.6182(5) 0.11481(19)
C18 C -0.0611(3) 0.6071(5) 0.15445(19)
H21 H -0.066(2) 0.108(3) 0.1530(17)
H22 H -0.061(2) -0.029(3) 0.1823(18)
H23 H 0.213(3) -0.284(4) 0.3882(16)
H24 H 0.163(3) -0.154(3) 0.3885(17)
Yb1A Yb 0.641562(12) -0.14251(2) 0.257896(8)
Yb2A Yb -0.127243(12) 0.63278(2) 0.253473(8)
Ni1C Ni 0.25775(3) 0.71395(8) 0.00153(2)
O1A O 0.37845(19) 0.4622(4) 0.15861(12)
O2A O 0.48560(18) 0.2883(4) 0.21226(12)
O7A O 0.0184(2) 0.1496(4) 0.29028(13)
O8A O 0.14776(19) 0.0632(4) 0.36848(13)
N3C N 0.1243(2) -0.2147(5) 0.50228(14)
loop_
_geom_bond_atom_site_label_1
_geom_bond_atom_site_label_2
_geom_bond_site_symmetry_1
_geom_bond_site_symmetry_2
Yb1 O3 1_555 1_555
Yb2 O4 1_555 1_555
Ni1 O17 1_555 1_555
S1 O9 1_555 1_555
S2 O13 1_555 1_555
O1 C1 1_555 1_555
O2 C1 1_555 1_555
O3 C9 1_555 1_555
O4 C9 1_555 1_555
O5 Yb1 1_555 1_555
O6 Yb2 1_555 1_555
O7 C18 1_555 1_555
O8 C18 1_555 1_555
O10 S1 1_555 1_555
O11 Yb2 1_555 1_555
O12 Yb1 1_555 1_555
O13 Yb1 1_555 1_555
O14 Yb2 1_555 1_555
O15 S2 1_555 1_555
O16 S2 1_555 1_555
O17 H23 1_555 1_555
O18 Ni1 1_555 1_555
H1 O18 1_555 1_555
H2 O18 1_555 1_555
O19 Ni1 1_555 1_555
H3 O19 1_555 1_555
H4 O19 1_555 1_555
O20 Ni1 1_555 1_555
H5 O20 1_555 1_555
H6 O20 1_555 1_555
O21 Yb1 1_555 1_555
H7 O21 1_555 1_555
H8 O21 1_555 1_555
O22 Yb1 1_555 1_555
H9 O22 1_555 1_555
H10 O22 1_555 1_555
O23 Yb2 1_555 1_555
H11 O23 1_555 1_555
H12 O23 1_555 1_555
O24 Yb2 1_555 1_555
N1 Ni1 1_555 1_555
N2 H13 1_555 1_555
N3 C13 1_555 1_555
N4 H14 1_555 1_555
C1 C2 1_555 1_555
C2 C3 1_555 1_555
C3 H15 1_555 1_555
C4 N2 1_555 1_555
C5 N1 1_555 1_555
H16 C5 1_555 1_555
C6 N1 1_555 1_555
C7 C6 1_555 1_555
H17 C7 1_555 1_555
C8 C2 1_555 1_555
C9 C8 1_555 1_555
C10 O5 1_555 1_555
C11 C10 1_555 1_555
C12 C11 1_555 1_555
H18 C12 1_555 1_555
C13 C12 1_555 1_555
C14 N3 1_555 1_555
H19 C14 1_555 1_555
C15 N4 1_555 1_555
C16 C15 1_555 1_555
H20 C16 1_555 1_555
C17 C11 1_555 1_555
C18 C17 1_555 1_555
H21 O24 1_555 1_555
H22 O24 1_555 1_555
H24 O17 1_555 1_555
Yb1A O1 1_555 1_555
Yb2A O7 1_555 1_555
Ni1C N3 1_555 1_555
O1A Yb1 1_555 1_555
O2A Yb1 1_555 1_555
O7A Yb2 1_555 1_555
O8A Yb2 1_555 1_555
N3C Ni1 1_555 1_555
Yb2 O5 1_555 1_555
S1 O11 1_555 1_555
S1 O12 1_555 1_555
S2 O14 1_555 1_555
O2 Yb1A 1_555 1_555
O6 C10 1_555 1_555
O8 Yb2A 1_555 1_555
N2 C5 1_555 1_555
N4 C14 1_555 1_555
C3 C4 1_555 1_555
C4 C6 1_555 1_555
C7 C8 1_555 1_555
C13 C15 1_555 1_555
C16 C17 1_555 1_555

#END
