
#######################################################################
#
#                 Cambridge Crystallographic Data Centre
#                                CCDC 
#
#######################################################################
#
# If this CIF has been generated from an entry in the Cambridge 
# Structural Database, then it will include bibliographic, chemical, 
# crystal, experimental, refinement or atomic coordinate data resulting 
# from the CCDC's data processing and validation procedures.
#
#######################################################################

data_NEGWEB
_symmetry_cell_setting           monoclinic
_symmetry_space_group_name_H-M   'C c'
_symmetry_Int_Tables_number      9
_space_group_name_Hall           'C -2yc'
loop_
_symmetry_equiv_pos_site_id
_symmetry_equiv_pos_as_xyz
1 x,y,z
2 x,-y,1/2+z
3 1/2+x,1/2+y,z
4 1/2+x,1/2-y,1/2+z
_cell_length_a                   15.786(4)
_cell_length_b                   9.314(2)
_cell_length_c                   13.182(3)
_cell_angle_alpha                90
_cell_angle_beta                 119.37(2)
_cell_angle_gamma                90
_cell_volume                     1689.05
loop_
_atom_site_label
_atom_site_type_symbol
_atom_site_fract_x
_atom_site_fract_y
_atom_site_fract_z
Cd1 Cd 0.0000 0.2071(1) 0.5000
Br1 Br 0.0003(1) 0.4857(1) 0.4468(1)
Br2 Br -0.1724(1) 0.1843(1) 0.4789(1)
O1 O 0.1527(4) 0.1821(6) 0.5223(5)
O2 O 0.2508(4) 0.3188(7) 0.6746(5)
O3 O 0.0284(3) -0.0424(6) 0.5297(4)
O4 O 0.0424(4) 0.1129(7) -0.1248(5)
N1 N 0.2527(4) 0.2566(7) 0.3996(5)
N2 N 0.1929(5) 0.2110(6) 0.1833(6)
C1 C 0.2250(5) 0.2615(9) 0.5780(7)
C2 C 0.2914(6) 0.2903(8) 0.5273(7)
C3 C 0.3282(6) 0.3063(8) 0.3676(7)
C4 C 0.2803(5) 0.3092(9) 0.2351(7)
C5 C 0.2344(5) 0.0981(8) 0.3726(6)
C6 C 0.2223(5) 0.0723(8) 0.2518(7)
C7 C 0.1602(6) 0.3393(8) 0.3245(7)
C8 C 0.1148(5) 0.2800(8) 0.2014(6)
C9 C 0.1621(5) 0.1902(8) 0.0571(7)
C10 C 0.0692(5) 0.1079(8) -0.0184(7)
O5 O 0.0840(5) 0.2539(9) 0.7058(5)
O6 O -0.0499(4) 0.1471(6) 0.3041(5)
O3A O 0.0284(3) 0.0424(6) 0.0297(4)
Cd1A Cd 0.0000 -0.2071(1) 0.0000
O7 O -0.0939(7) 0.4993(10) 0.1591(7)
loop_
_geom_bond_atom_site_label_1
_geom_bond_atom_site_label_2
_geom_bond_site_symmetry_1
_geom_bond_site_symmetry_2
Cd1 Br1 1_555 1_555
Br2 Cd1 1_555 1_555
O1 Cd1 1_555 1_555
O2 C1 1_555 1_555
O3 Cd1 1_555 1_555
O4 C10 1_555 1_555
N1 C2 1_555 1_555
N2 C4 1_555 1_555
C1 O1 1_555 1_555
C2 C1 1_555 1_555
C3 N1 1_555 1_555
C4 C3 1_555 1_555
C5 N1 1_555 1_555
C6 N2 1_555 1_555
C7 N1 1_555 1_555
C8 N2 1_555 1_555
C9 N2 1_555 1_555
C10 C9 1_555 1_555
O5 Cd1 1_555 1_555
O6 Cd1 1_555 1_555
O3A C10 1_555 1_555
Cd1A O3A 1_555 1_555
C5 C6 1_555 1_555
C7 C8 1_555 1_555

#END
