
#######################################################################
#
#                 Cambridge Crystallographic Data Centre
#                                CCDC 
#
#######################################################################
#
# If this CIF has been generated from an entry in the Cambridge 
# Structural Database, then it will include bibliographic, chemical, 
# crystal, experimental, refinement or atomic coordinate data resulting 
# from the CCDC's data processing and validation procedures.
#
#######################################################################

data_NEGXEC
_symmetry_cell_setting           monoclinic
_symmetry_space_group_name_H-M   'P 21/c'
_symmetry_Int_Tables_number      14
_space_group_name_Hall           '-P 2ybc'
loop_
_symmetry_equiv_pos_site_id
_symmetry_equiv_pos_as_xyz
1 x,y,z
2 -x,1/2+y,1/2-z
3 -x,-y,-z
4 x,1/2-y,1/2+z
_cell_length_a                   5.524(1)
_cell_length_b                   10.007(2)
_cell_length_c                   14.406(2)
_cell_angle_alpha                90
_cell_angle_beta                 91.11(1)
_cell_angle_gamma                90
_cell_volume                     796.195
loop_
_atom_site_label
_atom_site_type_symbol
_atom_site_fract_x
_atom_site_fract_y
_atom_site_fract_z
O1 O 0.3766(5) 0.5053(3) 0.4067(2)
O2 O 0.0249(4) 0.4644(3) 0.3339(2)
O3 O 0.0798(6) 0.6926(3) 0.0474(2)
O4 O 0.3970(5) 0.6663(3) 0.1414(2)
N1 N 0.2666(5) 0.3868(3) 0.1682(2)
C1 C 0.2487(6) 0.4678(3) 0.3387(2)
C2 C 0.4015(6) 0.4262(3) 0.2566(2)
C3 C 0.0944(5) 0.4936(3) 0.1306(2)
C4 C 0.2055(7) 0.6291(3) 0.1052(2)
C5 C 0.4505(7) 0.3578(4) 0.0952(2)
C6 C 0.1252(7) 0.2620(4) 0.1839(2)
Ag1 Ag 0.2111(1) 0.5841(1) 0.5382(1)
Ag1B Ag -0.2111(1) 0.4159(1) 0.4618(1)
O2B O -0.0249(4) 0.5356(3) 0.6661(2)
Ag1B_2 Ag 0.7889(1) 0.4159(1) 0.4618(1)
O1B O 0.6234(5) 0.4947(3) 0.5933(2)
O3C O 0.0798(6) 0.8074(3) 0.5474(2)
Ag1C Ag 0.2111(1) 0.9159(1) 0.0382(1)
loop_
_geom_bond_atom_site_label_1
_geom_bond_atom_site_label_2
_geom_bond_site_symmetry_1
_geom_bond_site_symmetry_2
O1 C1 1_555 1_555
O2 C1 1_555 1_555
O3 C4 1_555 1_555
O4 C4 1_555 1_555
N1 C2 1_555 1_555
C1 C2 1_555 1_555
C3 N1 1_555 1_555
C4 C3 1_555 1_555
C5 N1 1_555 1_555
C6 N1 1_555 1_555
Ag1 O1 1_555 1_555
Ag1B O2 1_555 1_555
O2B Ag1 1_555 1_555
Ag1B_2 O1 1_555 1_555
O1B Ag1 1_555 1_555
O3C Ag1 1_555 1_555
Ag1C O3 1_555 1_555
Ag1 Ag1B 1_555 1_555
Ag1B_2 O1B 1_555 1_555

#END
