
#######################################################################
#
#                 Cambridge Crystallographic Data Centre
#                                CCDC 
#
#######################################################################
#
# If this CIF has been generated from an entry in the Cambridge 
# Structural Database, then it will include bibliographic, chemical, 
# crystal, experimental, refinement or atomic coordinate data resulting 
# from the CCDC's data processing and validation procedures.
#
#######################################################################

data_NEGYII
_symmetry_cell_setting           monoclinic
_symmetry_space_group_name_H-M   'C 2/c'
_symmetry_Int_Tables_number      15
_space_group_name_Hall           '-C 2yn'
loop_
_symmetry_equiv_pos_site_id
_symmetry_equiv_pos_as_xyz
1 x,y,z
2 1/2+x,1/2+y,z
3 -x,y,1/2-z
4 1/2-x,1/2+y,1/2-z
5 -x,-y,-z
6 1/2-x,1/2-y,-z
7 x,-y,1/2+z
8 1/2+x,1/2-y,1/2+z
_cell_length_a                   27.525(6)
_cell_length_b                   12.360(3)
_cell_length_c                   16.298(3)
_cell_angle_alpha                90.00
_cell_angle_beta                 116.18(3)
_cell_angle_gamma                90.00
_cell_volume                     4975.91
loop_
_atom_site_label
_atom_site_type_symbol
_atom_site_fract_x
_atom_site_fract_y
_atom_site_fract_z
U1 U 0.194709(10) 0.57676(2) 0.164851(16)
U2 U 0.316070(10) 0.36693(2) 0.275470(17)
U3 U 0.175920(10) 0.22306(2) 0.166140(17)
K1 K -0.22148(7) 0.60239(18) -0.41819(12)
N1 N -0.1001(3) 0.4455(9) -0.3179(5)
N2 N 0.6436(3) 0.6196(7) 0.4217(5)
O1 O 0.1083(2) 0.5057(5) 0.0621(4)
O2 O 0.1026(2) 0.3261(6) 0.0551(4)
O3 O -0.1148(3) 0.5362(8) -0.3504(4)
O4 O -0.1197(3) 0.3607(8) -0.3567(5)
O5 O 0.4074(2) 0.4424(5) 0.3384(5)
O6 O 0.4023(2) 0.6136(6) 0.3770(5)
O7 O 0.6707(3) 0.5444(7) 0.4150(5)
O8 O 0.6601(3) 0.7112(6) 0.4391(5)
O9 O 0.2041(2) 0.6158(5) 0.0673(4)
O10 O 0.1871(2) 0.5299(5) 0.2620(3)
O11 O 0.21883(19) 0.3922(4) 0.1510(3)
O12 O 0.13241(19) 0.7193(4) 0.1400(4)
O13 O 0.23642(19) 0.7233(4) 0.2417(4)
O14 O 0.3044(2) 0.4077(5) 0.3703(4)
O15 O 0.3282(2) 0.3345(5) 0.1806(4)
O16 O 0.29621(19) 0.5555(4) 0.2358(3)
O17 O 0.1626(2) 0.2791(5) 0.2538(4)
O18 O 0.1868(2) 0.1666(5) 0.0758(4)
O19 O -0.2306(2) 0.3847(6) -0.4890(4)
C1 C 0.0857(3) 0.4207(7) 0.0265(5)
C2 C 0.0339(3) 0.4266(7) -0.0606(5)
C3 C 0.0134(3) 0.5255(7) -0.0968(5)
H1 H 0.0302 0.5882 -0.0658
C4 C -0.0323(3) 0.5324(8) -0.1793(6)
H2 H -0.0475 0.5993 -0.2031
C5 C -0.0548(3) 0.4393(8) -0.2251(5)
C6 C -0.0358(3) 0.3394(9) -0.1907(6)
H3 H -0.0527 0.2775 -0.2230
C7 C 0.0094(3) 0.3316(8) -0.1067(5)
H4 H 0.0230 0.2643 -0.0816
C8 C 0.4267(3) 0.5337(7) 0.3649(5)
C9 C 0.4848(3) 0.5551(7) 0.3845(5)
C10 C 0.5067(4) 0.6549(9) 0.4075(9)
H5 H 0.4862 0.7108 0.4144
C11 C 0.5594(4) 0.6749(9) 0.4211(9)
H6 H 0.5743 0.7436 0.4378
C12 C 0.5886(3) 0.5946(8) 0.4099(6)
C13 C 0.5688(3) 0.4941(9) 0.3859(8)
H7 H 0.5899 0.4396 0.3788
C14 C 0.5161(4) 0.4733(9) 0.3720(8)
H8 H 0.5015 0.4046 0.3543
U2C U 0.183930(10) 0.86693(2) 0.224530(17)
U3C U 0.324080(10) 0.72306(2) 0.333860(17)
K1E K -0.27852(7) 0.89761(18) -0.58181(12)
K1_2 K 0.77852(7) 0.60239(18) 0.58181(12)
K1E_2 K 0.72148(7) 0.89761(18) 0.41819(12)
K1B K 0.22148(7) 0.60239(18) -0.08181(12)
K1D K 0.22148(7) 0.39761(18) 0.41819(12)
O6C O 0.0977(2) 0.1136(6) 0.1230(5)
O7_2 O -0.3293(3) 0.5444(7) -0.5850(5)
O8_2 O -0.3399(3) 0.7112(6) -0.5609(5)
O8E O -0.1601(3) 0.7888(6) -0.4391(5)
O9B O -0.2041(2) 0.6158(5) -0.5673(4)
O10D O -0.1871(2) 0.4701(5) -0.2620(3)
O12C O 0.36759(19) 0.2193(4) 0.3600(4)
O13C O 0.26358(19) 0.2233(4) 0.2583(4)
O14D O -0.3044(2) 0.5923(5) -0.3703(4)
O16C O 0.20379(19) 0.0555(4) 0.2642(3)
O17D O -0.1626(2) 0.7209(5) -0.2538(4)
loop_
_geom_bond_atom_site_label_1
_geom_bond_atom_site_label_2
_geom_bond_site_symmetry_1
_geom_bond_site_symmetry_2
U1 O1 1_555 1_555
U2 O5 1_555 1_555
U3 O2 1_555 1_555
K1 O3 1_555 1_555
N1 O3 1_555 1_555
N2 O7 1_555 1_555
O1 C1 1_555 1_555
O2 C1 1_555 1_555
O4 N1 1_555 1_555
O5 C8 1_555 1_555
O6 C8 1_555 1_555
O7 K1_2 1_555 1_555
O8 N2 1_555 1_555
O9 U1 1_555 1_555
O10 U1 1_555 1_555
O11 U1 1_555 1_555
O12 U1 1_555 1_555
O13 U1 1_555 1_555
O14 U2 1_555 1_555
O15 U2 1_555 1_555
O16 U1 1_555 1_555
O17 U3 1_555 1_555
O18 U3 1_555 1_555
O19 K1 1_555 1_555
C1 C2 1_555 1_555
C2 C3 1_555 1_555
C3 H1 1_555 1_555
C4 C3 1_555 1_555
H2 C4 1_555 1_555
C5 N1 1_555 1_555
C6 C5 1_555 1_555
H3 C6 1_555 1_555
C7 C2 1_555 1_555
H4 C7 1_555 1_555
C8 C9 1_555 1_555
C9 C10 1_555 1_555
C10 H5 1_555 1_555
C11 C10 1_555 1_555
H6 C11 1_555 1_555
C12 N2 1_555 1_555
C13 C12 1_555 1_555
H7 C13 1_555 1_555
C14 C9 1_555 1_555
H8 C14 1_555 1_555
U2C O12 1_555 1_555
U3C O6 1_555 1_555
K1E O8_2 1_555 1_555
K1_2 O8 1_555 1_555
K1E_2 O8 1_555 1_555
K1B O9 1_555 1_555
K1D O10 1_555 1_555
O6C U3 1_555 1_555
O7_2 K1 1_555 1_555
O8_2 K1 1_555 1_555
O8E K1 1_555 1_555
O9B K1 1_555 1_555
O10D K1 1_555 1_555
O12C U2 1_555 1_555
O13C U2 1_555 1_555
O14D K1 1_555 1_555
O16C U3 1_555 1_555
O17D K1 1_555 1_555
U2 O11 1_555 1_555
U2 O16 1_555 1_555
U3 O11 1_555 1_555
U3 O13C 1_555 1_555
O13 U2C 1_555 1_555
O13 U3C 1_555 1_555
O14 K1D 1_555 1_555
O16 U3C 1_555 1_555
O17 K1D 1_555 1_555
C4 C5 1_555 1_555
C6 C7 1_555 1_555
C11 C12 1_555 1_555
C13 C14 1_555 1_555
K1E O8E 1_555 1_555

#END
