
#######################################################################
#
#                 Cambridge Crystallographic Data Centre
#                                CCDC 
#
#######################################################################
#
# If this CIF has been generated from an entry in the Cambridge 
# Structural Database, then it will include bibliographic, chemical, 
# crystal, experimental, refinement or atomic coordinate data resulting 
# from the CCDC's data processing and validation procedures.
#
#######################################################################

data_NEGZUW
_symmetry_cell_setting           orthorhombic
_symmetry_space_group_name_H-M   'P b c n'
_symmetry_Int_Tables_number      60
_space_group_name_Hall           '-P 2n 2ab'
loop_
_symmetry_equiv_pos_site_id
_symmetry_equiv_pos_as_xyz
1 x,y,z
2 1/2-x,1/2-y,1/2+z
3 1/2+x,1/2-y,-z
4 -x,y,1/2-z
5 -x,-y,-z
6 1/2+x,1/2+y,1/2-z
7 1/2-x,1/2+y,z
8 x,-y,1/2+z
_cell_length_a                   24.677(3)
_cell_length_b                   18.0396(19)
_cell_length_c                   17.2999(18)
_cell_angle_alpha                90
_cell_angle_beta                 90
_cell_angle_gamma                90
_cell_volume                     7701.28
loop_
_atom_site_label
_atom_site_type_symbol
_atom_site_fract_x
_atom_site_fract_y
_atom_site_fract_z
Zn1 Zn 0.332710(19) -0.34922(2) 0.30139(3)
Zn2 Zn 0.167750(17) -0.15052(2) 0.14919(2)
Zn3 Zn 0.296286(18) -0.07078(2) 0.09564(2)
V1 V 0.09232(2) -0.30552(3) 0.16317(3)
V2 V -0.02313(2) -0.30175(4) 0.09580(3)
V3 V 0.0000 -0.39299(4) 0.2500
V4 V 0.11506(2) -0.38637(3) 0.31821(4)
V5 V 0.0000 -0.21193(4) 0.2500
V6 V 0.11444(2) -0.21670(4) 0.31794(3)
O1 O 0.05039(11) -0.15513(14) 0.27948(15)
O2 O 0.02880(9) -0.23420(13) 0.14883(13)
O3 O 0.05087(10) -0.44884(14) 0.27966(15)
O4 O 0.15240(10) -0.30154(15) 0.33874(15)
O5 O 0.02876(9) -0.37103(13) 0.14835(13)
O6 O -0.07348(10) -0.37597(15) 0.09221(14)
O7 O 0.05043(9) -0.30227(12) 0.27869(13)
O8 O -0.07320(11) -0.22719(16) 0.09249(14)
O9 O 0.13006(9) -0.37736(14) 0.21017(15)
O10 O 0.11641(11) -0.30260(16) 0.07687(16)
O11 O 0.12860(9) -0.22664(14) 0.20939(14)
N1 N 0.30449(13) -0.26265(18) 0.24380(19)
N2 N 0.19228(15) 0.06100(19) 0.2443(2)
N3 N 0.18762(15) -0.04732(18) 0.1860(2)
O12 O 0.15697(12) -0.45030(17) 0.34097(19)
O13 O 0.36155(15) -0.1284(2) 0.0371(2)
N4 N 0.19096(15) -0.1490(2) 0.03709(19)
O14 O 0.00108(13) -0.30125(18) 0.00934(16)
N5 N 0.23664(14) -0.01520(18) 0.1665(2)
C1 C 0.16314(18) -0.0005(2) 0.2311(3)
H1 H 0.1282 -0.0089 0.2525
N6 N 0.29203(13) -0.16556(18) 0.16775(19)
N7 N 0.24209(13) -0.19480(17) 0.1869(2)
C2 C 0.25166(16) -0.2519(2) 0.2313(2)
H2 H 0.2240 -0.2825 0.2525
O15 O 0.29987(17) 0.0211(2) 0.0189(2)
N8 N 0.23863(14) -0.11584(19) 0.01585(18)
N9 N 0.19347(16) -0.1465(2) -0.0901(2)
O16 O 0.35999(15) -0.0243(2) 0.1618(2)
C3 C 0.23761(18) 0.0483(2) 0.2027(3)
H3 H 0.2671 0.0820 0.2001
C4 C 0.23871(17) -0.1153(2) -0.0601(2)
H4 H 0.2673 -0.0954 -0.0905
O17 O 0.08647(14) -0.1126(2) 0.1105(2)
O18 O 0.15553(13) -0.15108(17) 0.33963(19)
C5 C 0.32800(16) -0.2077(2) 0.2029(2)
H5 H 0.3661 -0.2003 0.1998
C6 C 0.16555(19) -0.1661(3) -0.0269(2)
H6 H 0.1312 -0.1898 -0.0284
N10 N 0.3390(3) 0.0939(3) -0.0719(3)
O19 O 0.4134(2) -0.3467(4) 0.3057(4)
C7 C 0.3396(3) 0.0499(4) -0.0112(4)
H7 H 0.3739 0.0395 0.0114
C8 C 0.2875(4) 0.1062(5) -0.1185(6)
H8 H 0.2571 0.0812 -0.0930
H9 H 0.2922 0.0860 -0.1706
H10 H 0.2800 0.1595 -0.1218
C9 C 0.3872(5) 0.1237(6) -0.1036(6)
H11 H 0.4186 0.1040 -0.0755
H12 H 0.3866 0.1778 -0.0991
H13 H 0.3899 0.1097 -0.1583
Zn1C Zn -0.332710(19) -0.34922(2) 0.19861(3)
Zn1F Zn 0.167290(19) 0.15078(2) 0.30139(3)
Zn1A Zn 0.167290(19) -0.15078(2) -0.19861(3)
Zn1E Zn -0.167290(19) 0.15078(2) 0.19861(3)
Zn1B Zn -0.167290(19) -0.15078(2) 0.69861(3)
Zn2C Zn -0.167750(17) -0.15052(2) 0.35081(2)
Zn3C Zn -0.296286(18) -0.07078(2) 0.40436(2)
V1C V -0.09232(2) -0.30552(3) 0.33683(3)
V2C V 0.02313(2) -0.30175(4) 0.40420(3)
V4C V -0.11506(2) -0.38637(3) 0.18179(4)
V6C V -0.11444(2) -0.21670(4) 0.18206(3)
O1C O -0.05039(11) -0.15513(14) 0.22052(15)
O2C O -0.02880(9) -0.23420(13) 0.35117(13)
O3C O -0.05087(10) -0.44884(14) 0.22034(15)
O4C O -0.15240(10) -0.30154(15) 0.16126(15)
O5C O -0.02876(9) -0.37103(13) 0.35165(13)
O6C O 0.07348(10) -0.37597(15) 0.40779(14)
O7C O -0.05043(9) -0.30227(12) 0.22131(13)
O8C O 0.07320(11) -0.22719(16) 0.40751(14)
O9C O -0.13006(9) -0.37736(14) 0.28983(15)
O10C O -0.11641(11) -0.30260(16) 0.42313(16)
O11C O -0.12860(9) -0.22664(14) 0.29061(14)
N1C N -0.30449(13) -0.26265(18) 0.25620(19)
N2C N -0.19228(15) 0.06100(19) 0.2557(2)
N2F N 0.30772(15) -0.43900(19) 0.2443(2)
N2E N -0.30772(15) -0.43900(19) 0.2557(2)
N3C N -0.18762(15) -0.04732(18) 0.3140(2)
O12C O -0.15697(12) -0.45030(17) 0.15903(19)
O13C O -0.36155(15) -0.1284(2) 0.4629(2)
N4C N -0.19096(15) -0.1490(2) 0.46291(19)
O14C O -0.00108(13) -0.30125(18) 0.49066(16)
N5C N -0.23664(14) -0.01520(18) 0.3335(2)
C1C C -0.16314(18) -0.0005(2) 0.2689(3)
H1C H -0.1282 -0.0089 0.2475
N6C N -0.29203(13) -0.16556(18) 0.33225(19)
N7C N -0.24209(13) -0.19480(17) 0.3131(2)
C2C C -0.25166(16) -0.2519(2) 0.2687(2)
H2C H -0.2240 -0.2825 0.2475
O15C O -0.29987(17) 0.0211(2) 0.4811(2)
N8C N -0.23863(14) -0.11584(19) 0.48415(18)
N9C N -0.19347(16) -0.1465(2) 0.5901(2)
N9A N 0.30653(16) -0.3535(2) 0.4099(2)
N9B N -0.30653(16) -0.3535(2) 0.0901(2)
O16C O -0.35999(15) -0.0243(2) 0.3382(2)
C3C C -0.23761(18) 0.0483(2) 0.2973(3)
H3C H -0.2671 0.0820 0.2999
C4C C -0.23871(17) -0.1153(2) 0.5601(2)
H4C H -0.2673 -0.0954 0.5905
O17C O -0.08647(14) -0.1126(2) 0.3895(2)
O18C O -0.15553(13) -0.15108(17) 0.16037(19)
C5C C -0.32800(16) -0.2077(2) 0.2971(2)
H5C H -0.3661 -0.2003 0.3002
C6C C -0.16555(19) -0.1661(3) 0.5269(2)
H6C H -0.1312 -0.1898 0.5284
N10C N -0.3390(3) 0.0939(3) 0.5719(3)
O19C O -0.4134(2) -0.3467(4) 0.1943(4)
C7C C -0.3396(3) 0.0499(4) 0.5112(4)
H7C H -0.3739 0.0395 0.4886
C8C C -0.2875(4) 0.1062(5) 0.6185(6)
H8C H -0.2571 0.0812 0.5930
H9C H -0.2922 0.0860 0.6706
H10C H -0.2800 0.1595 0.6218
C9C C -0.3872(5) 0.1237(6) 0.6036(6)
H11C H -0.4186 0.1040 0.5755
H12C H -0.3866 0.1778 0.5991
H13C H -0.3899 0.1097 0.6583
O20 O -0.0325(4) -0.5072(5) 0.4288(6)
O21 O 0.1370(10) -0.2188(8) 0.5389(8)
loop_
_geom_bond_atom_site_label_1
_geom_bond_atom_site_label_2
_geom_bond_site_symmetry_1
_geom_bond_site_symmetry_2
Zn1 N1 1_555 1_555
Zn2 O11 1_555 1_555
Zn3 O13 1_555 1_555
V1 O2 1_555 1_555
V2 O2 1_555 1_555
V3 O3 1_555 1_555
V4 O3 1_555 1_555
V5 O1 1_555 1_555
V6 O1 1_555 1_555
O2 V5 1_555 1_555
O4 V4 1_555 1_555
O5 V1 1_555 1_555
O6 V2 1_555 1_555
O7 V1 1_555 1_555
O8 V2 1_555 1_555
O9 V1 1_555 1_555
O10 V1 1_555 1_555
O11 V1 1_555 1_555
N1 C2 1_555 1_555
N2 C1 1_555 1_555
N3 Zn2 1_555 1_555
O12 V4 1_555 1_555
N4 Zn2 1_555 1_555
O14 V2 1_555 1_555
N5 Zn3 1_555 1_555
C1 N3 1_555 1_555
H1 C1 1_555 1_555
N6 Zn3 1_555 1_555
N7 Zn2 1_555 1_555
C2 N7 1_555 1_555
H2 C2 1_555 1_555
O15 Zn3 1_555 1_555
N8 Zn3 1_555 1_555
N9 C4 1_555 1_555
O16 Zn3 1_555 1_555
C3 N2 1_555 1_555
H3 C3 1_555 1_555
C4 N8 1_555 1_555
H4 C4 1_555 1_555
O17 Zn2 1_555 1_555
O18 V6 1_555 1_555
C5 N1 1_555 1_555
H5 C5 1_555 1_555
C6 N4 1_555 1_555
H6 C6 1_555 1_555
N10 C7 1_555 1_555
O19 Zn1 1_555 1_555
C7 O15 1_555 1_555
H7 C7 1_555 1_555
C8 N10 1_555 1_555
H8 C8 1_555 1_555
H9 C8 1_555 1_555
H10 C8 1_555 1_555
C9 N10 1_555 1_555
H11 C9 1_555 1_555
H12 C9 1_555 1_555
H13 C9 1_555 1_555
Zn1C N1C 1_555 1_555
Zn1F N2 1_555 1_555
Zn1A N9 1_555 1_555
Zn1E N2C 1_555 1_555
Zn1B N9C 1_555 1_555
Zn2C O11C 1_555 1_555
Zn3C O13C 1_555 1_555
V1C O2C 1_555 1_555
V2C O7 1_555 1_555
V4C O6 1_555 1_555
V6C O8 1_555 1_555
O1C V5 1_555 1_555
O2C V5 1_555 1_555
O3C V3 1_555 1_555
O4C V4C 1_555 1_555
O5C V3 1_555 1_555
O6C V4 1_555 1_555
O7C V2 1_555 1_555
O8C V6 1_555 1_555
O9C V1C 1_555 1_555
O10C V1C 1_555 1_555
O11C V1C 1_555 1_555
N1C C2C 1_555 1_555
N2C C1C 1_555 1_555
N2F Zn1 1_555 1_555
N2E Zn1C 1_555 1_555
N3C Zn2C 1_555 1_555
O12C V4C 1_555 1_555
N4C Zn2C 1_555 1_555
O14C V2C 1_555 1_555
N5C Zn3C 1_555 1_555
C1C N3C 1_555 1_555
H1C C1C 1_555 1_555
N6C Zn3C 1_555 1_555
N7C Zn2C 1_555 1_555
C2C N7C 1_555 1_555
H2C C2C 1_555 1_555
O15C Zn3C 1_555 1_555
N8C Zn3C 1_555 1_555
N9C C4C 1_555 1_555
N9A Zn1 1_555 1_555
N9B Zn1C 1_555 1_555
O16C Zn3C 1_555 1_555
C3C N2C 1_555 1_555
H3C C3C 1_555 1_555
C4C N8C 1_555 1_555
H4C C4C 1_555 1_555
O17C Zn2C 1_555 1_555
O18C V6C 1_555 1_555
C5C N1C 1_555 1_555
H5C C5C 1_555 1_555
C6C N4C 1_555 1_555
H6C C6C 1_555 1_555
N10C C7C 1_555 1_555
O19C Zn1C 1_555 1_555
C7C O15C 1_555 1_555
H7C C7C 1_555 1_555
C8C N10C 1_555 1_555
H8C C8C 1_555 1_555
H9C C8C 1_555 1_555
H10C C8C 1_555 1_555
C9C N10C 1_555 1_555
H11C C9C 1_555 1_555
H12C C9C 1_555 1_555
H13C C9C 1_555 1_555
V2 O5 1_555 1_555
V3 O5 1_555 1_555
V3 O7 1_555 1_555
V3 O7C 1_555 1_555
V4 O7 1_555 1_555
V4 O9 1_555 1_555
V5 O7 1_555 1_555
V5 O7C 1_555 1_555
V6 O4 1_555 1_555
V6 O7 1_555 1_555
V6 O11 1_555 1_555
N3 N5 1_555 1_555
N4 N8 1_555 1_555
N5 C3 1_555 1_555
N6 N7 1_555 1_555
N6 C5 1_555 1_555
N9 C6 1_555 1_555
V1C O5C 1_555 1_555
V1C O7C 1_555 1_555
V2C O2C 1_555 1_555
V2C O5C 1_555 1_555
V2C O6C 1_555 1_555
V2C O8C 1_555 1_555
V4C O3C 1_555 1_555
V4C O7C 1_555 1_555
V4C O9C 1_555 1_555
V6C O1C 1_555 1_555
V6C O4C 1_555 1_555
V6C O7C 1_555 1_555
V6C O11C 1_555 1_555
N3C N5C 1_555 1_555
N4C N8C 1_555 1_555
N5C C3C 1_555 1_555
N6C N7C 1_555 1_555
N6C C5C 1_555 1_555
N9C C6C 1_555 1_555

#END
