
#######################################################################
#
#                 Cambridge Crystallographic Data Centre
#                                CCDC 
#
#######################################################################
#
# If this CIF has been generated from an entry in the Cambridge 
# Structural Database, then it will include bibliographic, chemical, 
# crystal, experimental, refinement or atomic coordinate data resulting 
# from the CCDC's data processing and validation procedures.
#
#######################################################################

data_NEHCAG
_symmetry_cell_setting           triclinic
_symmetry_space_group_name_H-M   'P -1'
_symmetry_Int_Tables_number      2
_space_group_name_Hall           '-P 1'
loop_
_symmetry_equiv_pos_site_id
_symmetry_equiv_pos_as_xyz
1 x,y,z
2 -x,-y,-z
_cell_length_a                   9.3209(11)
_cell_length_b                   10.2037(16)
_cell_length_c                   13.366(2)
_cell_angle_alpha                83.037(7)
_cell_angle_beta                 70.710(6)
_cell_angle_gamma                72.124(6)
_cell_volume                     1141.64
loop_
_atom_site_label
_atom_site_type_symbol
_atom_site_fract_x
_atom_site_fract_y
_atom_site_fract_z
Zn1 Zn 0.66730(4) 0.12466(3) 0.44561(3)
O1 O 0.6378(3) 0.3450(3) 0.44606(19)
O2 O 0.7878(3) 0.9216(3) 0.42057(18)
O3 O 0.8787(3) 0.2025(3) 0.3914(2)
O4 O 0.5792(3) 0.8429(3) 0.50232(19)
O5 O 1.2449(3) 0.4938(3) 0.2939(3)
N1 N 0.6494(4) 0.1432(3) 1.2881(3)
N2 N 0.6661(4) 0.1042(3) 0.6061(3)
C1 C 0.5075(4) 0.0973(4) 1.0231(3)
C2 C 0.7572(4) 0.5740(4) 0.4306(3)
C3 C 0.9872(4) 0.6601(4) 0.3707(3)
C4 C 0.4745(4) 0.2192(4) 1.1832(3)
C5 C 0.6377(4) 0.0433(4) 0.8214(3)
C6 C 0.6137(4) -0.0066(4) 0.9344(3)
C7 C 0.5752(4) 0.1230(4) 1.1050(3)
C8 C 0.5358(4) 0.1679(4) 0.6834(3)
C9 C 0.5160(4) 0.2253(4) 1.2723(3)
C10 C 0.7861(4) 0.3224(4) 0.4129(3)
C11 C 1.0173(4) 0.4183(4) 0.3533(3)
C12 C 0.7862(4) 0.0158(4) 0.6352(3)
C13 C 0.8553(4) 0.4418(4) 0.3977(3)
C14 C 0.8240(4) 0.6814(4) 0.4164(3)
C15 C 0.7521(4) 0.0589(4) 1.2103(3)
C16 C 1.0836(4) 0.5280(4) 0.3394(3)
C17 C 0.5161(4) 0.1407(4) 0.7903(3)
C18 C 0.7758(4) -0.0160(4) 0.7414(3)
C19 C 0.7197(4) 0.0460(4) 1.1166(3)
C21 C 1.3211(4) 0.5960(4) 0.2938(4)
C24 C 0.7204(4) 0.8263(4) 0.4499(3)
H1 H 0.7173 -0.0610 0.9464
H2 H 0.4528 0.1882 0.9968
H3 H 0.6461 0.5896 0.4622
H4 H 1.0319 0.7346 0.3611
H5 H 0.3786 0.2797 1.1749
H6 H 0.4531 0.2351 0.6634
H7 H 0.4465 0.2907 1.3246
H8 H 1.0834 0.3283 0.3323
H9 H 0.8813 -0.0265 0.5818
H10 H 0.8510 0.0054 1.2185
H11 H 0.4214 0.1875 0.8419
H12 H 0.8634 -0.0785 0.7592
H13 H 0.7956 -0.0144 1.0627
H14 H 1.2804 0.6777 0.2535
H15 H 1.4357 0.5591 0.2609
H16 H 1.2992 0.6213 0.3669
Zn1A Zn 0.33270(4) -0.12466(3) 0.55439(3)
Zn1_2 Zn 0.66730(4) -0.87534(3) 0.44561(3)
Zn1_3 Zn 0.66730(4) 0.12466(3) 1.44561(3)
Zn1_4 Zn 0.66730(4) 1.12466(3) 0.44561(3)
Zn1A_2 Zn 0.33270(4) -1.12466(3) 0.55439(3)
Zn1A_3 Zn 0.33270(4) -0.12466(3) 1.55439(3)
Zn1A_4 Zn 0.33270(4) 0.87534(3) 0.55439(3)
O1A O 0.3622(3) -0.3450(3) 0.55394(19)
O2A O 0.2122(3) -0.9216(3) 0.57943(18)
O2_2 O 0.7878(3) -0.0784(3) 0.42057(18)
O2A_2 O 0.2122(3) 0.0784(3) 0.57943(18)
O3A O 0.1213(3) -0.2025(3) 0.6086(2)
O4A O 0.4208(3) -0.8429(3) 0.49768(19)
O4_2 O 0.5792(3) -0.1571(3) 0.50232(19)
O4A_2 O 0.4208(3) 0.1571(3) 0.49768(19)
O5A O -0.2449(3) -0.4938(3) 0.7061(3)
N1A N 0.3506(4) -0.1432(3) 0.7119(3)
N1_2 N 0.6494(4) 0.1432(3) 0.2881(3)
N2A N 0.3339(4) -0.1042(3) 1.3939(3)
N2A_2 N 0.3339(4) -0.1042(3) 0.3939(3)
C1A C 0.4925(4) -0.0973(4) 0.9769(3)
C2A C 0.2428(4) -0.5740(4) 0.5694(3)
C3A C 0.0128(4) -0.6601(4) 0.6293(3)
C4A C 0.5255(4) -0.2192(4) 0.8168(3)
C5A C 0.3623(4) -0.0433(4) 1.1786(3)
C6A C 0.3863(4) 0.0066(4) 1.0656(3)
C7A C 0.4248(4) -0.1230(4) 0.8950(3)
C8A C 0.4642(4) -0.1679(4) 1.3166(3)
C9A C 0.4840(4) -0.2253(4) 0.7277(3)
C10A C 0.2139(4) -0.3224(4) 0.5871(3)
C11A C -0.0173(4) -0.4183(4) 0.6467(3)
C12A C 0.2138(4) -0.0158(4) 1.3648(3)
C13A C 0.1447(4) -0.4418(4) 0.6023(3)
C14A C 0.1760(4) -0.6814(4) 0.5836(3)
C15A C 0.2479(4) -0.0589(4) 0.7897(3)
C16A C -0.0836(4) -0.5280(4) 0.6606(3)
C17A C 0.4839(4) -0.1407(4) 1.2097(3)
C18A C 0.2242(4) 0.0160(4) 1.2586(3)
C19A C 0.2803(4) -0.0460(4) 0.8834(3)
C21A C -0.3211(4) -0.5960(4) 0.7062(4)
C24A C 0.2796(4) -0.8263(4) 0.5501(3)
H1A H 0.2827 0.0610 1.0536
H2A H 0.5472 -0.1882 1.0032
H3A H 0.3539 -0.5896 0.5378
H4A H -0.0319 -0.7346 0.6389
H5A H 0.6214 -0.2797 0.8251
H6A H 0.5469 -0.2351 1.3366
H7A H 0.5535 -0.2907 0.6754
H8A H -0.0834 -0.3283 0.6677
H9A H 0.1187 0.0265 1.4182
H10A H 0.1490 -0.0054 0.7815
H11A H 0.5786 -0.1875 1.1581
H12A H 0.1366 0.0785 1.2408
H13A H 0.2044 0.0144 0.9373
H14A H -0.2804 -0.6777 0.7465
H15A H -0.4357 -0.5591 0.7391
H16A H -0.2992 -0.6213 0.6331
O6 O 0.8567(4) 0.7231(4) 0.0154(4)
N3 N 1.1217(5) 0.6153(4) -0.0254(4)
C20 C 0.9813(10) 0.6709(7) 0.0453(7)
C22 C 1.1514(16) 0.6034(11) -0.1313(6)
C23 C 1.2531(10) 0.5536(9) 0.0187(7)
H17 H 1.1210 0.6950 -0.1635
H18 H 1.0899 0.5469 -0.1421
H19 H 1.2647 0.5596 -0.1644
H20 H 1.3480 0.5784 -0.0268
H21 H 1.2749 0.4532 0.0223
H22 H 1.2241 0.5882 0.0901
H23 H 0.9731 0.6721 0.1180
loop_
_geom_bond_atom_site_label_1
_geom_bond_atom_site_label_2
_geom_bond_site_symmetry_1
_geom_bond_site_symmetry_2
Zn1 O1 1_555 1_555
O1 C10 1_555 1_555
O2 C24 1_555 1_555
O3 Zn1 1_555 1_555
O4 C24 1_555 1_555
O5 C16 1_555 1_555
O6 C20 1_555 1_555
N1 C9 1_555 1_555
N2 Zn1 1_555 1_555
N3 C20 1_555 1_555
C1 C6 1_555 1_555
C2 C13 1_555 1_555
C3 C14 1_555 1_555
C4 C7 1_555 1_555
C5 C6 1_555 1_555
C6 H1 1_555 1_555
C7 C1 1_555 1_555
C8 N2 1_555 1_555
C9 C4 1_555 1_555
C10 O3 1_555 1_555
C11 C13 1_555 1_555
C12 N2 1_555 1_555
C13 C10 1_555 1_555
C14 C2 1_555 1_555
C15 N1 1_555 1_555
C16 C3 1_555 1_555
C17 C5 1_555 1_555
C18 C5 1_555 1_555
C19 C7 1_555 1_555
C20 H23 1_555 1_555
C21 O5 1_555 1_555
C22 N3 1_555 1_555
C23 N3 1_555 1_555
C24 C14 1_555 1_555
H2 C1 1_555 1_555
H3 C2 1_555 1_555
H4 C3 1_555 1_555
H5 C4 1_555 1_555
H6 C8 1_555 1_555
H7 C9 1_555 1_555
H8 C11 1_555 1_555
H9 C12 1_555 1_555
H10 C15 1_555 1_555
H11 C17 1_555 1_555
H12 C18 1_555 1_555
H13 C19 1_555 1_555
H14 C21 1_555 1_555
H15 C21 1_555 1_555
H16 C21 1_555 1_555
H17 C22 1_555 1_555
H18 C22 1_555 1_555
H19 C22 1_555 1_555
H20 C23 1_555 1_555
H21 C23 1_555 1_555
H22 C23 1_555 1_555
Zn1A O1A 1_555 1_555
Zn1_2 O4A 1_555 1_555
Zn1_3 N1 1_555 1_555
Zn1_4 O2 1_555 1_555
Zn1A_2 O2A 1_555 1_555
Zn1A_3 N2A 1_555 1_555
Zn1A_4 O4 1_555 1_555
O1A C10A 1_555 1_555
O2A C24A 1_555 1_555
O2_2 Zn1 1_555 1_555
O2A_2 Zn1A 1_555 1_555
O3A Zn1A 1_555 1_555
O4A C24A 1_555 1_555
O4_2 Zn1A 1_555 1_555
O4A_2 Zn1 1_555 1_555
O5A C16A 1_555 1_555
N1A Zn1A 1_555 1_555
N1_2 Zn1 1_555 1_555
N2A C8A 1_555 1_555
N2A_2 Zn1A 1_555 1_555
C1A C6 1_555 1_555
C2A C13A 1_555 1_555
C3A C14A 1_555 1_555
C4A C7A 1_555 1_555
C5A C6A 1_555 1_555
C6A C1 1_555 1_555
C7A C1A 1_555 1_555
C8A C17A 1_555 1_555
C9A N1A 1_555 1_555
C10A O3A 1_555 1_555
C11A C13A 1_555 1_555
C12A N2A 1_555 1_555
C13A C10A 1_555 1_555
C14A C2A 1_555 1_555
C15A N1A 1_555 1_555
C16A C3A 1_555 1_555
C17A C5A 1_555 1_555
C18A C5A 1_555 1_555
C19A C7A 1_555 1_555
C21A O5A 1_555 1_555
C24A C14A 1_555 1_555
H1A C6A 1_555 1_555
H2A C1A 1_555 1_555
H3A C2A 1_555 1_555
H4A C3A 1_555 1_555
H5A C4A 1_555 1_555
H6A C8A 1_555 1_555
H7A C9A 1_555 1_555
H8A C11A 1_555 1_555
H9A C12A 1_555 1_555
H10A C15A 1_555 1_555
H11A C17A 1_555 1_555
H12A C18A 1_555 1_555
H13A C19A 1_555 1_555
H14A C21A 1_555 1_555
H15A C21A 1_555 1_555
H16A C21A 1_555 1_555
C8 C17 1_555 1_555
C11 C16 1_555 1_555
C12 C18 1_555 1_555
C15 C19 1_555 1_555
C1A C6A 1_555 1_555
C4A C9A 1_555 1_555
C11A C16A 1_555 1_555
C12A C18A 1_555 1_555
C15A C19A 1_555 1_555

#END
