
#######################################################################
#
#                 Cambridge Crystallographic Data Centre
#                                CCDC 
#
#######################################################################
#
# If this CIF has been generated from an entry in the Cambridge 
# Structural Database, then it will include bibliographic, chemical, 
# crystal, experimental, refinement or atomic coordinate data resulting 
# from the CCDC's data processing and validation procedures.
#
#######################################################################

data_NEHKUI
_symmetry_cell_setting           triclinic
_symmetry_space_group_name_H-M   'P -1'
_symmetry_Int_Tables_number      2
_space_group_name_Hall           '-P 1'
loop_
_symmetry_equiv_pos_site_id
_symmetry_equiv_pos_as_xyz
1 x,y,z
2 -x,-y,-z
_cell_length_a                   9.5200(19)
_cell_length_b                   10.160(2)
_cell_length_c                   11.490(2)
_cell_angle_alpha                102.50(3)
_cell_angle_beta                 110.19(3)
_cell_angle_gamma                94.42(3)
_cell_volume                     1004.27
loop_
_atom_site_label
_atom_site_type_symbol
_atom_site_fract_x
_atom_site_fract_y
_atom_site_fract_z
N1 N 0.2937(3) 0.6012(3) 0.3022(3)
C17 C 0.3255(4) 0.5856(4) 0.1952(3)
H9 H 0.4260 0.6016 0.2022
C18 C 0.2124(4) 0.5466(4) 0.0763(3)
H10 H 0.2364 0.5371 0.0033
C19 C 0.1513(4) 0.5742(4) 0.2930(3)
H11 H 0.1307 0.5833 0.3675
C20 C 0.0347(4) 0.5335(3) 0.1773(3)
H12 H -0.0641 0.5138 0.1733
C21 C 0.0629(4) 0.5211(3) 0.0639(3)
C22 C 0.4180(5) 0.6453(6) 0.4296(4)
H13 H 0.3765 0.6506 0.4954
H14 H 0.4714 0.7336 0.4395
H15 H 0.4868 0.5805 0.4368
N1A N -0.2937(3) 0.3988(3) -0.3022(3)
C17A C -0.3255(4) 0.4144(4) -0.1952(3)
H9A H -0.4260 0.3984 -0.2022
C18A C -0.2124(4) 0.4534(4) -0.0763(3)
H10A H -0.2364 0.4629 -0.0033
C19A C -0.1513(4) 0.4258(4) -0.2930(3)
H11A H -0.1307 0.4167 -0.3675
C20A C -0.0347(4) 0.4665(3) -0.1773(3)
H12A H 0.0641 0.4862 -0.1733
C21A C -0.0629(4) 0.4789(3) -0.0639(3)
C22A C -0.4180(5) 0.3547(6) -0.4296(4)
H13A H -0.3765 0.3494 -0.4954
H14A H -0.4714 0.2664 -0.4395
H15A H -0.4868 0.4195 -0.4368
Zn1 Zn 0.67792(4) -0.73292(3) 0.25371(3)
Zn2 Zn 0.5000 0.0000 0.0000
O1 O 0.6812(3) -0.5099(2) 0.2029(2)
O2 O 0.7700(3) -0.55548(19) 0.39038(19)
O3 O 0.6083(2) -0.0409(2) 0.18051(17)
O4 O 0.7036(3) 0.13197(19) 0.35853(18)
O5 O 0.8408(2) 0.2315(2) 0.18576(18)
O6 O 0.6912(2) 0.0931(2) -0.00550(18)
O7 O 1.4744(2) 0.19866(19) 0.11231(18)
O8 O 1.4097(3) 0.3070(3) 0.26969(19)
C1 C 0.7776(3) -0.3223(3) 0.3866(3)
C2 C 0.8691(4) -0.2733(3) 0.5159(3)
H1 H 0.9130 -0.3334 0.5629
C3 C 0.8943(5) -0.1364(3) 0.5737(3)
H2 H 0.9562 -0.1038 0.6600
C4 C 0.8291(5) -0.0464(3) 0.5058(3)
H3 H 0.8449 0.0459 0.5472
C5 C 0.7399(4) -0.0923(3) 0.3760(3)
C6 C 0.7162(3) -0.2300(3) 0.3179(2)
H4 H 0.6577 -0.2619 0.2307
C7 C 0.7407(3) -0.4714(3) 0.3211(3)
C8 C 0.6769(3) 0.0073(3) 0.2980(3)
C9 C 0.9444(3) 0.1682(3) 0.0268(2)
C10 C 1.0937(3) 0.2051(3) 0.1122(2)
H5 H 1.1148 0.2286 0.2001
C11 C 1.2121(3) 0.2075(3) 0.0681(2)
C12 C 1.1792(3) 0.1815(3) -0.0636(3)
H6 H 1.2576 0.1865 -0.0941
C13 C 1.0301(3) 0.1482(3) -0.1490(3)
H7 H 1.0086 0.1329 -0.2366
C14 C 0.9133(3) 0.1376(3) -0.1047(3)
H8 H 0.8136 0.1099 -0.1628
C15 C 0.8157(3) 0.1634(3) 0.0728(3)
C16 C 1.3742(3) 0.2399(3) 0.1586(3)
Zn1A Zn 0.32208(4) 0.73292(3) -0.25371(3)
Zn1_2 Zn 0.67792(4) 0.26708(3) 0.25371(3)
Zn1_3 Zn 1.67792(4) 0.26708(3) 0.25371(3)
Zn1A_2 Zn 0.32208(4) -0.26708(3) -0.25371(3)
Zn1A_3 Zn -0.67792(4) -0.26708(3) -0.25371(3)
Zn2_2 Zn 1.5000 0.0000 0.0000
Zn2_3 Zn -0.5000 0.0000 0.0000
O1A O 0.3188(3) 0.5099(2) -0.2029(2)
O2A O 0.2300(3) 0.55548(19) -0.39038(19)
O3A O 0.3917(2) 0.0409(2) -0.18051(17)
O4A O 0.2964(3) -0.13197(19) -0.35853(18)
O4_2 O 0.7036(3) -0.86803(19) 0.35853(18)
O4A_2 O 0.2964(3) 0.86803(19) -0.35853(18)
O5A O 0.1592(2) -0.2315(2) -0.18576(18)
O5_2 O 0.8408(2) -0.7685(2) 0.18576(18)
O5A_2 O 0.1592(2) 0.7685(2) -0.18576(18)
O6A O 0.3088(2) -0.0931(2) 0.00550(18)
O7A O -0.4744(2) -0.19866(19) -0.11231(18)
O7_2 O 0.4744(2) -0.80134(19) 0.11231(18)
O7_3 O 0.4744(2) 0.19866(19) 0.11231(18)
O7A_2 O 0.5256(2) -0.19866(19) -0.11231(18)
O7A_3 O 0.5256(2) 0.80134(19) -0.11231(18)
O8A O -0.4097(3) -0.3070(3) -0.26969(19)
C1A C 0.2224(3) 0.3223(3) -0.3866(3)
C2A C 0.1309(4) 0.2733(3) -0.5159(3)
H1A H 0.0870 0.3334 -0.5629
C3A C 0.1057(5) 0.1364(3) -0.5737(3)
H2A H 0.0438 0.1038 -0.6600
C4A C 0.1709(5) 0.0464(3) -0.5058(3)
H3A H 0.1551 -0.0459 -0.5472
C5A C 0.2601(4) 0.0923(3) -0.3760(3)
C6A C 0.2838(3) 0.2300(3) -0.3179(2)
H4A H 0.3423 0.2619 -0.2307
C7A C 0.2593(3) 0.4714(3) -0.3211(3)
C8A C 0.3231(3) -0.0073(3) -0.2980(3)
C9A C 0.0556(3) -0.1682(3) -0.0268(2)
C10A C -0.0937(3) -0.2051(3) -0.1122(2)
H5A H -0.1148 -0.2286 -0.2001
C11A C -0.2121(3) -0.2075(3) -0.0681(2)
C12A C -0.1792(3) -0.1815(3) 0.0636(3)
H6A H -0.2576 -0.1865 0.0941
C13A C -0.0301(3) -0.1482(3) 0.1490(3)
H7A H -0.0086 -0.1329 0.2366
C14A C 0.0867(3) -0.1376(3) 0.1047(3)
H8A H 0.1864 -0.1099 0.1628
C15A C 0.1843(3) -0.1634(3) -0.0728(3)
C16A C -0.3742(3) -0.2399(3) -0.1586(3)
loop_
_geom_bond_atom_site_label_1
_geom_bond_atom_site_label_2
_geom_bond_site_symmetry_1
_geom_bond_site_symmetry_2
N1 C17 1_555 1_555
Zn1 O1 1_555 1_555
Zn2 O3 1_555 1_555
O1 C7 1_555 1_555
O2 Zn1 1_555 1_555
O3 C8 1_555 1_555
O4 C8 1_555 1_555
O5 C15 1_555 1_555
O6 Zn2 1_555 1_555
O7 C16 1_555 1_555
O8 C16 1_555 1_555
C1 C2 1_555 1_555
C2 H1 1_555 1_555
C3 C2 1_555 1_555
H2 C3 1_555 1_555
C4 C3 1_555 1_555
H3 C4 1_555 1_555
C5 C4 1_555 1_555
C6 C1 1_555 1_555
H4 C6 1_555 1_555
C7 O2 1_555 1_555
C8 C5 1_555 1_555
C9 C10 1_555 1_555
C10 H5 1_555 1_555
C11 C10 1_555 1_555
C12 C11 1_555 1_555
H6 C12 1_555 1_555
C13 C12 1_555 1_555
H7 C13 1_555 1_555
C14 C9 1_555 1_555
H8 C14 1_555 1_555
C15 O6 1_555 1_555
C16 C11 1_555 1_555
C17 H9 1_555 1_555
C18 C17 1_555 1_555
H10 C18 1_555 1_555
C19 N1 1_555 1_555
H11 C19 1_555 1_555
C20 C19 1_555 1_555
H12 C20 1_555 1_555
C21 C18 1_555 1_555
C22 N1 1_555 1_555
H13 C22 1_555 1_555
H14 C22 1_555 1_555
H15 C22 1_555 1_555
N1A C17A 1_555 1_555
Zn1A O1A 1_555 1_555
Zn1_2 O4 1_555 1_555
Zn1_3 O7 1_555 1_555
Zn1A_2 O4A 1_555 1_555
Zn1A_3 O7A 1_555 1_555
Zn2_2 O7 1_555 1_555
Zn2_3 O7A 1_555 1_555
O1A C7A 1_555 1_555
O2A Zn1A 1_555 1_555
O3A Zn2 1_555 1_555
O4A C8A 1_555 1_555
O4_2 Zn1 1_555 1_555
O4A_2 Zn1A 1_555 1_555
O5A Zn1A_2 1_555 1_555
O5_2 Zn1 1_555 1_555
O5A_2 Zn1A 1_555 1_555
O6A Zn2 1_555 1_555
O7A C16A 1_555 1_555
O7_2 Zn1 1_555 1_555
O7_3 Zn2 1_555 1_555
O7A_2 Zn2 1_555 1_555
O7A_3 Zn1A 1_555 1_555
O8A C16A 1_555 1_555
C1A C2A 1_555 1_555
C2A H1A 1_555 1_555
C3A C2A 1_555 1_555
H2A C3A 1_555 1_555
C4A C3A 1_555 1_555
H3A C4A 1_555 1_555
C5A C4A 1_555 1_555
C6A C1A 1_555 1_555
H4A C6A 1_555 1_555
C7A O2A 1_555 1_555
C8A O3A 1_555 1_555
C9A C10A 1_555 1_555
C10A H5A 1_555 1_555
C11A C10A 1_555 1_555
C12A C11A 1_555 1_555
H6A C12A 1_555 1_555
C13A C12A 1_555 1_555
H7A C13A 1_555 1_555
C14A C9A 1_555 1_555
H8A C14A 1_555 1_555
C15A O5A 1_555 1_555
C16A C11A 1_555 1_555
C17A H9A 1_555 1_555
C18A C17A 1_555 1_555
H10A C18A 1_555 1_555
C19A N1A 1_555 1_555
H11A C19A 1_555 1_555
C20A C19A 1_555 1_555
H12A C20A 1_555 1_555
C21A C21 1_555 1_555
C22A N1A 1_555 1_555
H13A C22A 1_555 1_555
H14A C22A 1_555 1_555
H15A C22A 1_555 1_555
O5 Zn1_2 1_555 1_555
C1 C7 1_555 1_555
C5 C6 1_555 1_555
C9 C15 1_555 1_555
C13 C14 1_555 1_555
C20 C21 1_555 1_555
Zn1_2 O7_3 1_555 1_555
Zn1A_2 O7A_2 1_555 1_555
O6A C15A 1_555 1_555
C1A C7A 1_555 1_555
C5A C6A 1_555 1_555
C5A C8A 1_555 1_555
C9A C15A 1_555 1_555
C13A C14A 1_555 1_555
C18A C21A 1_555 1_555
C20A C21A 1_555 1_555

#END
