
#######################################################################
#
#                 Cambridge Crystallographic Data Centre
#                                CCDC 
#
#######################################################################
#
# If this CIF has been generated from an entry in the Cambridge 
# Structural Database, then it will include bibliographic, chemical, 
# crystal, experimental, refinement or atomic coordinate data resulting 
# from the CCDC's data processing and validation procedures.
#
#######################################################################

data_NEHLOC
_symmetry_cell_setting           monoclinic
_symmetry_space_group_name_H-M   'P 21/n'
_symmetry_Int_Tables_number      14
_space_group_name_Hall           '-P 2yn'
loop_
_symmetry_equiv_pos_site_id
_symmetry_equiv_pos_as_xyz
1 x,y,z
2 1/2-x,1/2+y,1/2-z
3 -x,-y,-z
4 1/2+x,1/2-y,1/2+z
_cell_length_a                   11.147(2)
_cell_length_b                   25.605(4)
_cell_length_c                   13.295(3)
_cell_angle_alpha                90
_cell_angle_beta                 107.341(9)
_cell_angle_gamma                90
_cell_volume                     3622.17
loop_
_atom_site_label
_atom_site_type_symbol
_atom_site_fract_x
_atom_site_fract_y
_atom_site_fract_z
Ag1 Ag 0.09470(3) 0.07819(1) 0.15404(4)
N1 N 0.2703(3) 0.0293(1) 0.1620(3)
N2 N 0.9625(3) 0.0176(1) 0.2184(3)
N3 N 1.1205(4) -0.1014(2) 0.4164(4)
N4 N 0.7666(4) -0.3508(2) 0.2242(4)
N5 N 0.4300(4) -0.3431(1) 0.2593(3)
N6 N 0.0955(3) -0.0981(1) 0.0064(3)
C1 C 0.6097(3) -0.1090(1) 0.2135(3)
C2 C 0.6729(3) -0.1578(1) 0.2386(3)
C3 C 0.5393(3) -0.1565(1) 0.1999(3)
C4 C 0.6135(3) -0.0561(1) 0.2070(3)
C5 C 0.7813(3) -0.1854(1) 0.2739(3)
C6 C 0.4279(3) -0.1822(1) 0.1704(3)
C7 C 0.4972(3) -0.0255(1) 0.1923(3)
C8 C 0.4074(4) -0.0412(2) 0.2400(3)
C9 C 0.2975(4) -0.0132(2) 0.2232(4)
C10 C 0.3564(4) 0.0444(2) 0.1161(4)
C11 C 0.4696(4) 0.0188(2) 0.1297(3)
C12 C 0.7335(3) -0.0301(1) 0.2123(3)
C13 C 0.7690(4) 0.0176(1) 0.2627(3)
C14 C 0.8833(4) 0.0392(2) 0.2649(3)
C15 C 0.9272(4) -0.0278(2) 0.1690(3)
C16 C 0.8170(3) -0.0529(1) 0.1650(3)
C17 C 0.8992(3) -0.1579(2) 0.3244(3)
C18 C 0.8999(4) -0.1135(2) 0.3851(4)
C19 C 1.0110(5) -0.0870(2) 0.4281(4)
C20 C 1.1202(4) -0.1445(2) 0.3614(5)
C21 C 1.0142(4) -0.1739(2) 0.3143(4)
C22 C 0.7782(3) -0.2425(1) 0.2597(3)
C23 C 0.8566(4) -0.2764(2) 0.3319(4)
C24 C 0.8458(5) -0.3298(2) 0.3092(5)
C25 C 0.6940(5) -0.3183(2) 0.1575(4)
C26 C 0.6953(4) -0.2645(2) 0.1703(4)
C27 C 0.4252(3) -0.2378(1) 0.1983(3)
C28 C 0.5013(4) -0.2550(2) 0.2953(3)
C29 C 0.5006(4) -0.3069(2) 0.3217(4)
C30 C 0.3573(4) -0.3266(2) 0.1662(4)
C31 C 0.3514(4) -0.2754(2) 0.1325(4)
C32 C 0.3133(3) -0.1543(1) 0.1137(3)
C33 C 0.1961(4) -0.1657(2) 0.1267(3)
C34 C 0.0925(4) -0.1367(2) 0.0733(4)
C35 C 0.2076(4) -0.0872(2) -0.0063(3)
C36 C 0.3164(4) -0.1138(2) 0.0450(3)
H1 H 0.4219 -0.0713 0.2842
H2 H 0.2373 -0.0245 0.2566
H3 H 0.3388 0.0746 0.0718
H4 H 0.5288 0.0317 0.0963
H5 H 0.7149 0.0352 0.2952
H6 H 0.9079 0.0710 0.3026
H7 H 0.9817 -0.0437 0.1342
H8 H 0.7977 -0.0859 0.1301
H9 H 0.8242 -0.1016 0.3975
H10 H 1.0091 -0.0561 0.4682
H11 H 1.1995 -0.1561 0.3535
H12 H 1.0200 -0.2049 0.2755
H13 H 0.9150 -0.2634 0.3952
H14 H 0.9009 -0.3529 0.3583
H15 H 0.6352 -0.3326 0.0945
H16 H 0.6394 -0.2426 0.1191
H17 H 0.5541 -0.2310 0.3435
H18 H 0.5548 -0.3175 0.3893
H19 H 0.3064 -0.3518 0.1193
H20 H 0.2975 -0.2659 0.0641
H21 H 0.1886 -0.1931 0.1733
H22 H 0.0141 -0.1446 0.0850
H23 H 0.2129 -0.0595 -0.0532
H24 H 0.3942 -0.1042 0.0336
Ag1_2 Ag 1.09470(3) 0.07819(1) 0.15404(4)
Ag1A Ag 0.40530(3) -0.42181(1) 0.34596(4)
Ag1B Ag -0.09470(3) -0.07819(1) -0.15404(4)
N2_2 N -0.0375(3) 0.0176(1) 0.2184(3)
N5A N 0.0700(4) 0.1569(1) 0.2407(3)
N6B N -0.0955(3) 0.0981(1) -0.0064(3)
Cl1 Cl 0.2919(1) 0.18584(5) 0.0701(1)
O1 O 0.3821(4) 0.1709(2) 0.0177(4)
O2 O 0.1853(5) 0.1581(3) 0.0273(6)
O3 O 0.2802(9) 0.2388(2) 0.0716(7)
O4 O 0.3390(7) 0.1686(3) 0.1778(4)
S1 S 0.5260(2) 0.14699(8) 0.5019(2)
O5 O 0.4097(6) 0.1426(2) 0.5350(4)
C37 C 0.511(1) 0.1016(4) 0.3970(10)
C38 C 0.5104(7) 0.2044(3) 0.4252(6)
H25 H 0.4372 0.1102 0.3367
H26 H 0.5818 0.1028 0.3702
H27 H 0.4996 0.0668 0.4166
H28 H 0.4366 0.2024 0.3661
H29 H 0.5817 0.2086 0.4007
H30 H 0.5036 0.2341 0.4666
O6 O 0.262(1) 0.0249(5) 0.4733(9)
C39 C 0.330(1) 0.0427(6) 0.5530(9)
H31 H 0.1937 0.0409 0.4197
H32 H 0.4145 0.0409 0.5521
H33 H 0.3085 0.0783 0.5609
H34 H 0.3211 0.0233 0.6118
C40? C 0.311(1) -0.0248(6) 0.481(1)
H35? H 0.3029 -0.0418 0.5439
H36? H 0.2661 -0.0458 0.4220
H37? H 0.3971 -0.0243 0.4849
loop_
_geom_bond_atom_site_label_1
_geom_bond_atom_site_label_2
_geom_bond_site_symmetry_1
_geom_bond_site_symmetry_2
Ag1 N1 1_555 1_555
Cl1 O1 1_555 1_555
S1 O5 1_555 1_555
O2 Cl1 1_555 1_555
O3 Cl1 1_555 1_555
O4 Cl1 1_555 1_555
O6 C39 1_555 1_555
N1 C9 1_555 1_555
N2 C14 1_555 1_555
N3 C19 1_555 1_555
N4 C24 1_555 1_555
N5 C29 1_555 1_555
N6 C34 1_555 1_555
C1 C2 1_555 1_555
C2 C3 1_555 1_555
C3 C1 1_555 1_555
C4 C1 1_555 1_555
C5 C2 1_555 1_555
C6 C3 1_555 1_555
C7 C4 1_555 1_555
C8 C7 1_555 1_555
C9 C8 1_555 1_555
C10 N1 1_555 1_555
C11 C7 1_555 1_555
C12 C4 1_555 1_555
C13 C12 1_555 1_555
C14 C13 1_555 1_555
C15 N2 1_555 1_555
C16 C12 1_555 1_555
C17 C5 1_555 1_555
C18 C17 1_555 1_555
C19 C18 1_555 1_555
C20 N3 1_555 1_555
C21 C17 1_555 1_555
C22 C5 1_555 1_555
C23 C22 1_555 1_555
C24 C23 1_555 1_555
C25 N4 1_555 1_555
C26 C22 1_555 1_555
C27 C6 1_555 1_555
C28 C27 1_555 1_555
C29 C28 1_555 1_555
C30 N5 1_555 1_555
C31 C27 1_555 1_555
C32 C6 1_555 1_555
C33 C32 1_555 1_555
C34 C33 1_555 1_555
C35 N6 1_555 1_555
C36 C32 1_555 1_555
C37 S1 1_555 1_555
C38 S1 1_555 1_555
C39 H32 1_555 1_555
H1 C8 1_555 1_555
H2 C9 1_555 1_555
H3 C10 1_555 1_555
H4 C11 1_555 1_555
H5 C13 1_555 1_555
H6 C14 1_555 1_555
H7 C15 1_555 1_555
H8 C16 1_555 1_555
H9 C18 1_555 1_555
H10 C19 1_555 1_555
H11 C20 1_555 1_555
H12 C21 1_555 1_555
H13 C23 1_555 1_555
H14 C24 1_555 1_555
H15 C25 1_555 1_555
H16 C26 1_555 1_555
H17 C28 1_555 1_555
H18 C29 1_555 1_555
H19 C30 1_555 1_555
H20 C31 1_555 1_555
H21 C33 1_555 1_555
H22 C34 1_555 1_555
H23 C35 1_555 1_555
H24 C36 1_555 1_555
H25 C37 1_555 1_555
H26 C37 1_555 1_555
H27 C37 1_555 1_555
H28 C38 1_555 1_555
H29 C38 1_555 1_555
H30 C38 1_555 1_555
H31 O6 1_555 1_555
H33 C39 1_555 1_555
H34 C39 1_555 1_555
Ag1_2 N2 1_555 1_555
Ag1A N5 1_555 1_555
Ag1B N6 1_555 1_555
N2_2 Ag1 1_555 1_555
N5A Ag1 1_555 1_555
N6B Ag1 1_555 1_555
C10 C11 1_555 1_555
C15 C16 1_555 1_555
C20 C21 1_555 1_555
C25 C26 1_555 1_555
C30 C31 1_555 1_555
C35 C36 1_555 1_555

#END
