
#######################################################################
#
#                 Cambridge Crystallographic Data Centre
#                                CCDC 
#
#######################################################################
#
# If this CIF has been generated from an entry in the Cambridge 
# Structural Database, then it will include bibliographic, chemical, 
# crystal, experimental, refinement or atomic coordinate data resulting 
# from the CCDC's data processing and validation procedures.
#
#######################################################################

data_NEHMET
_symmetry_cell_setting           orthorhombic
_symmetry_space_group_name_H-M   'P b c a'
_symmetry_Int_Tables_number      61
_space_group_name_Hall           '-P 2ac 2ab'
loop_
_symmetry_equiv_pos_site_id
_symmetry_equiv_pos_as_xyz
1 x,y,z
2 1/2-x,-y,1/2+z
3 -x,1/2+y,1/2-z
4 1/2+x,1/2-y,-z
5 -x,-y,-z
6 1/2+x,y,1/2-z
7 x,1/2-y,1/2+z
8 1/2-x,1/2+y,z
_cell_length_a                   15.1129(15)
_cell_length_b                   12.4966(11)
_cell_length_c                   16.8480(16)
_cell_angle_alpha                90
_cell_angle_beta                 90
_cell_angle_gamma                90
_cell_volume                     3181.91
loop_
_atom_site_label
_atom_site_type_symbol
_atom_site_fract_x
_atom_site_fract_y
_atom_site_fract_z
Cd1 Cd 0.10359(3) 1.01264(3) 0.42593(2)
O1 O 0.2086(4) 0.8651(4) 0.4512(3)
O2 O 0.2030(4) 1.0068(4) 0.5257(3)
O3 O 0.4807(3) 0.6243(3) 0.5056(2)
O4 O 0.4980(3) 0.5847(4) 0.6330(3)
O5 O 0.4047(4) 0.8488(4) 0.8344(3)
O6 O 0.3255(3) 0.9872(4) 0.7979(3)
C1 C 0.2320(4) 0.9158(5) 0.5102(4)
C2 C 0.2976(4) 0.8671(5) 0.5666(3)
C3 C 0.3479(4) 0.7792(5) 0.5459(4)
H1 H 0.3443 0.7523 0.4945
C4 C 0.4643(4) 0.6397(5) 0.5775(4)
C5 C 0.4045(4) 0.7296(5) 0.6009(4)
C6 C 0.4075(4) 0.7690(4) 0.6783(3)
H2 H 0.4436 0.7360 0.7157
C7 C 0.3618(4) 0.9006(5) 0.7838(4)
C8 C 0.3571(4) 0.8572(5) 0.7000(3)
C9 C 0.3039(4) 0.9069(5) 0.6439(4)
H3 H 0.2720 0.9677 0.6579
Cd1G Cd 0.39641(3) 0.51264(3) 0.42593(2)
Cd1C Cd 0.60359(3) 0.48736(3) 0.57407(2)
Cd1A Cd 0.39641(3) 0.98736(3) 0.92593(2)
O3G O 0.0193(3) 1.1243(3) 0.5056(2)
O4C O -0.0020(3) 0.9153(4) 0.3670(3)
O5A O 0.0953(4) 1.1512(4) 0.3344(3)
O6A O 0.1745(3) 1.0128(4) 0.2979(3)
N1 N 0.1228(6) 0.9021(10) 0.7913(9)
N2 N 0.1204(5) 0.7758(7) 0.7056(6)
C10 C 0.1087(10) 0.7125(12) 0.6332(9)
H4 H 0.0897 0.7584 0.5908
H5 H 0.0648 0.6582 0.6421
H6 H 0.1638 0.6794 0.6191
C11 C 0.1005(6) 0.8807(10) 0.7158(9)
H7 H 0.0767 0.9276 0.6786
C12 C 0.1525(7) 0.7424(10) 0.7775(8)
H8 H 0.1706 0.6728 0.7884
C13 C 0.1546(8) 0.8211(12) 0.8291(10)
H9 H 0.1745 0.8189 0.8813
C14 C 0.1148(10) 1.0145(14) 0.8310(13)
H10 H 0.0790 1.0626 0.7991
H11 H 0.1725 1.0464 0.8396
C15 C 0.0677(15) 0.987(2) 0.9125(14)
H12 H 0.0079 0.9649 0.9025
H13 H 0.0676 1.0491 0.9459
H14 H 0.0991 0.9301 0.9384
loop_
_geom_bond_atom_site_label_1
_geom_bond_atom_site_label_2
_geom_bond_site_symmetry_1
_geom_bond_site_symmetry_2
Cd1 O1 1_555 1_555
O1 C1 1_555 1_555
O2 Cd1 1_555 1_555
O3 C4 1_555 1_555
O4 C4 1_555 1_555
O5 C7 1_555 1_555
O6 C7 1_555 1_555
N1 C11 1_555 1_555
N2 C10 1_555 1_555
C1 O2 1_555 1_555
C2 C1 1_555 1_555
C3 C2 1_555 1_555
H1 C3 1_555 1_555
C4 C5 1_555 1_555
C5 C3 1_555 1_555
C6 C5 1_555 1_555
H2 C6 1_555 1_555
C7 C8 1_555 1_555
C8 C6 1_555 1_555
C9 C2 1_555 1_555
H3 C9 1_555 1_555
C10 H4 1_555 1_555
H5 C10 1_555 1_555
H6 C10 1_555 1_555
C11 N2 1_555 1_555
H7 C11 1_555 1_555
C12 N2 1_555 1_555
H8 C12 1_555 1_555
C13 N1 1_555 1_555
H9 C13 1_555 1_555
C14 N1 1_555 1_555
H10 C14 1_555 1_555
H11 C14 1_555 1_555
C15 C14 1_555 1_555
H12 C15 1_555 1_555
H13 C15 1_555 1_555
H14 C15 1_555 1_555
Cd1G O3 1_555 1_555
Cd1C O4 1_555 1_555
Cd1A O5 1_555 1_555
O3G Cd1 1_555 1_555
O4C Cd1 1_555 1_555
O5A Cd1 1_555 1_555
O6A Cd1 1_555 1_555
O6 Cd1A 1_555 1_555
C8 C9 1_555 1_555
C12 C13 1_555 1_555

#END
