
#######################################################################
#
#                 Cambridge Crystallographic Data Centre
#                                CCDC 
#
#######################################################################
#
# If this CIF has been generated from an entry in the Cambridge 
# Structural Database, then it will include bibliographic, chemical, 
# crystal, experimental, refinement or atomic coordinate data resulting 
# from the CCDC's data processing and validation procedures.
#
#######################################################################

data_NEHRIB
_symmetry_cell_setting           monoclinic
_symmetry_space_group_name_H-M   'P 21/c'
_symmetry_Int_Tables_number      14
_space_group_name_Hall           '-P 2ybc'
loop_
_symmetry_equiv_pos_site_id
_symmetry_equiv_pos_as_xyz
1 x,y,z
2 -x,1/2+y,1/2-z
3 -x,-y,-z
4 x,1/2-y,1/2+z
_cell_length_a                   13.958(3)
_cell_length_b                   8.814(2)
_cell_length_c                   16.215(3)
_cell_angle_alpha                90
_cell_angle_beta                 104.21(3)
_cell_angle_gamma                90
_cell_volume                     1933.83
loop_
_atom_site_label
_atom_site_type_symbol
_atom_site_fract_x
_atom_site_fract_y
_atom_site_fract_z
O1 O 0.5452(5) 0.1632(7) 0.0954(4)
O2 O 0.6963(5) 0.1429(7) 0.1790(4)
O3 O 0.5270(5) -0.1787(7) 0.0838(4)
O4 O 0.6893(4) -0.1924(7) 0.1391(4)
O5 O 0.7807(4) -0.4348(7) 0.4408(3)
O6 O 0.3515(3) 0.0000(8) 0.0156(3)
O7 O 0.8107(5) 0.2229(8) 0.0587(4)
N1 N 0.8829(5) -0.0655(9) 0.1524(4)
N2 N 0.7667(8) 0.4510(11) -0.0071(7)
C1 C 0.5941(7) -0.6522(10) 0.2031(5)
C2 C 0.6557(7) -0.6358(10) 0.2940(5)
C3 C 0.6333(5) -0.4872(11) 0.3332(4)
C4 C 0.6524(7) -0.3536(10) 0.2783(5)
C5 C 0.5882(7) -0.3661(10) 0.1874(5)
C6 C 0.6096(6) -0.5149(11) 0.1492(4)
C7 C 0.3866(7) 0.7970(10) -0.1569(5)
C8 C 0.6018(7) -0.2339(10) 0.1324(5)
C9 C 0.6929(6) -0.4702(8) 0.4247(5)
C10 C 0.9549(7) -0.0533(12) 0.1137(6)
C11 C 1.0497(8) -0.1045(17) 0.1489(8)
C12 C 1.0692(9) -0.1758(16) 0.2258(8)
C13 C 0.9940(9) -0.1870(15) 0.2673(7)
C14 C 0.9021(7) -0.1322(13) 0.2289(6)
C15 C 0.7507(8) 0.3136(11) 0.0150(6)
C16 C 0.6884(11) 0.5428(13) -0.0584(8)
C17 C 0.8623(12) 0.5112(20) 0.0188(14)
Zn1 Zn 0.5000 -0.5000 0.5000
Zn2 Zn 0.7417(1) -0.5036(2) 0.5987(1)
H1 H 0.4756(7) 0.6531(10) -0.2049(5)
H2 H 0.2747(7) 0.6394(10) -0.2945(5)
H3 H 0.3583(7) 0.7199(10) -0.3278(5)
H4 H 0.5631(5) -0.4867(11) 0.3330(4)
H5 H 0.6381(7) -0.2590(10) 0.3033(5)
H6 H 0.7216(7) -0.3527(10) 0.2771(5)
H7 H 0.4811(7) 0.3674(10) -0.1904(5)
H8 H 0.3227(6) 0.5146(11) -0.1440(4)
H9 H 0.4334(6) 0.5247(11) -0.0926(4)
H10 H 0.9415(7) -0.0081(12) 0.0603(6)
H11 H 1.0994(8) -0.0905(17) 0.1206(8)
H12 H 1.1315(9) -0.2159(16) 0.2497(8)
H13 H 1.0058(9) -0.2314(15) 0.3209(7)
H14 H 0.8515(7) -0.1415(13) 0.2567(6)
H15 H 0.6863(8) 0.2784(11) -0.0043(6)
H16 H 0.7142(11) 0.6403(13) -0.0681(8)
H17 H 0.6369(11) 0.5556(13) -0.0291(8)
H18 H 0.6621(11) 0.4934(13) -0.1119(8)
H19 H 0.8625(12) 0.6130(20) -0.0022(14)
H20 H 0.9070(12) 0.4499(20) -0.0034(14)
H21 H 0.8828(12) 0.5120(20) 0.0798(14)
O6A O 0.6485(3) -0.5000(8) 0.4844(3)
Zn1A Zn 0.5000 0.0000 0.0000
Zn2C Zn 0.7417(1) 0.0036(2) 0.0987(1)
O6B O 0.6485(3) 0.0000(8) -0.0156(3)
Zn1B Zn 0.5000 0.5000 -0.5000
O1B O 0.4548(5) -0.1632(7) -0.0954(4)
O2B O 0.3037(5) -0.1429(7) -0.1790(4)
Zn2A Zn 0.2583(1) -0.0036(2) -0.0987(1)
O4B O 0.3107(4) 0.1924(7) -0.1391(4)
C8B C 0.3982(7) 0.2339(10) -0.1324(5)
O3B O 0.4730(5) 0.1787(7) -0.0838(4)
O7B O 0.1893(5) -0.2229(8) -0.0587(4)
C15B C 0.2493(8) -0.3136(11) -0.0150(6)
N2B N 0.2333(8) -0.4510(11) 0.0071(7)
C16B C 0.3116(11) -0.5428(13) 0.0584(8)
H16B H 0.2858(11) -0.6403(13) 0.0681(8)
H17B H 0.3631(11) -0.5556(13) 0.0291(8)
H18B H 0.3379(11) -0.4934(13) 0.1119(8)
C17B C 0.1377(12) -0.5112(20) -0.0188(14)
H19B H 0.1375(12) -0.6130(20) 0.0022(14)
H20B H 0.0930(12) -0.4499(20) 0.0034(14)
H21B H 0.1172(12) -0.5120(20) -0.0798(14)
H15B H 0.3137(8) -0.2784(11) 0.0043(6)
N1B N 0.1171(5) 0.0655(9) -0.1524(4)
C10B C 0.0451(7) 0.0533(12) -0.1137(6)
C11B C -0.0497(8) 0.1045(17) -0.1489(8)
C12B C -0.0692(9) 0.1758(16) -0.2258(8)
C13B C 0.0060(9) 0.1870(15) -0.2673(7)
C14B C 0.0979(7) 0.1322(13) -0.2289(6)
H14B H 0.1485(7) 0.1415(13) -0.2567(6)
H13B H -0.0058(9) 0.2314(15) -0.3209(7)
H12B H -0.1315(9) 0.2159(16) -0.2497(8)
H11B H -0.0994(8) 0.0905(17) -0.1206(8)
H10B H 0.0585(7) 0.0081(12) -0.0603(6)
C5B C 0.4118(7) 0.3661(10) -0.1874(5)
C4B C 0.3476(7) 0.3536(10) -0.2783(5)
C3B C 0.3667(5) 0.4872(11) -0.3332(4)
C2B C 0.3443(7) 0.6358(10) -0.2940(5)
C1B C 0.4059(7) 0.6522(10) -0.2031(5)
C6B C 0.3904(6) 0.5149(11) -0.1492(4)
O1B_2 O 0.4548(5) 0.8368(7) -0.0954(4)
Zn1C Zn 0.5000 1.0000 0.0000
O2B_2 O 0.3037(5) 0.8571(7) -0.1790(4)
Zn2A_2 Zn 0.2583(1) 0.9964(2) -0.0987(1)
C9B C 0.3071(6) 0.4702(8) -0.4247(5)
O5B O 0.2193(4) 0.4348(7) -0.4408(3)
O6C O 0.3515(3) 0.5000(8) -0.4844(3)
Zn2B Zn 0.2583(1) 0.5036(2) -0.5987(1)
H4B H 0.4369(5) 0.4867(11) -0.3330(4)
H5B H 0.3619(7) 0.2590(10) -0.3033(5)
H6B H 0.2784(7) 0.3527(10) -0.2771(5)
H7B H 0.5189(7) -0.3674(10) 0.1904(5)
H8B H 0.6773(6) -0.5146(11) 0.1440(4)
H9B H 0.5666(6) -0.5247(11) 0.0926(4)
C7B C 0.6134(7) -0.7970(10) 0.1569(5)
O1_2 O 0.5452(5) -0.8368(7) 0.0954(4)
Zn1A_2 Zn 0.5000 -1.0000 0.0000
O2_2 O 0.6963(5) -0.8571(7) 0.1790(4)
Zn2C_2 Zn 0.7417(1) -0.9964(2) 0.0987(1)
H1B H 0.5244(7) -0.6531(10) 0.2049(5)
H2B H 0.7253(7) -0.6394(10) 0.2945(5)
H3B H 0.6417(7) -0.7199(10) 0.3278(5)
loop_
_geom_bond_atom_site_label_1
_geom_bond_atom_site_label_2
_geom_bond_site_symmetry_1
_geom_bond_site_symmetry_2
O1 Zn1A 1_555 1_555
O2 Zn2C 1_555 1_555
O3 C8 1_555 1_555
O4 C8 1_555 1_555
O5 C9 1_555 1_555
O6 Zn1A 1_555 1_555
O7 C15 1_555 1_555
N1 C10 1_555 1_555
N2 C15 1_555 1_555
C1 C2 1_555 1_555
C2 C3 1_555 1_555
C3 C4 1_555 1_555
C4 C5 1_555 1_555
C5 C6 1_555 1_555
C6 C1 1_555 1_555
C7 C1B 1_555 1_555
C8 C5 1_555 1_555
C9 C3 1_555 1_555
C10 C11 1_555 1_555
C11 C12 1_555 1_555
C12 C13 1_555 1_555
C13 C14 1_555 1_555
C14 N1 1_555 1_555
C15 H15 1_555 1_555
C16 N2 1_555 1_555
C17 N2 1_555 1_555
Zn1 O6A 1_555 1_555
Zn2 O6A 1_555 1_555
H1 C1B 1_555 1_555
H2 C2B 1_555 1_555
H3 C2B 1_555 1_555
H4 C3 1_555 1_555
H5 C4 1_555 1_555
H6 C4 1_555 1_555
H7 C5B 1_555 1_555
H8 C6B 1_555 1_555
H9 C6B 1_555 1_555
H10 C10 1_555 1_555
H11 C11 1_555 1_555
H12 C12 1_555 1_555
H13 C13 1_555 1_555
H14 C14 1_555 1_555
H16 C16 1_555 1_555
H17 C16 1_555 1_555
H18 C16 1_555 1_555
H19 C17 1_555 1_555
H20 C17 1_555 1_555
H21 C17 1_555 1_555
O6A C9 1_555 1_555
Zn1A O3 1_555 1_555
Zn2C O4 1_555 1_555
O6B Zn1A 1_555 1_555
Zn1B O6C 1_555 1_555
O1B Zn1A 1_555 1_555
O2B Zn2A 1_555 1_555
Zn2A O6 1_555 1_555
O4B Zn2A 1_555 1_555
C8B O4B 1_555 1_555
O3B Zn1A 1_555 1_555
O7B Zn2A 1_555 1_555
C15B O7B 1_555 1_555
N2B C15B 1_555 1_555
C16B N2B 1_555 1_555
H16B C16B 1_555 1_555
H17B C16B 1_555 1_555
H18B C16B 1_555 1_555
C17B N2B 1_555 1_555
H19B C17B 1_555 1_555
H20B C17B 1_555 1_555
H21B C17B 1_555 1_555
H15B C15B 1_555 1_555
N1B Zn2A 1_555 1_555
C10B N1B 1_555 1_555
C11B C10B 1_555 1_555
C12B C11B 1_555 1_555
C13B C12B 1_555 1_555
C14B N1B 1_555 1_555
H14B C14B 1_555 1_555
H13B C13B 1_555 1_555
H12B C12B 1_555 1_555
H11B C11B 1_555 1_555
H10B C10B 1_555 1_555
C5B C8B 1_555 1_555
C4B C5B 1_555 1_555
C3B C4B 1_555 1_555
C2B C3B 1_555 1_555
C1B C2B 1_555 1_555
C6B C5B 1_555 1_555
O1B_2 C7 1_555 1_555
Zn1C O1B_2 1_555 1_555
O2B_2 C7 1_555 1_555
Zn2A_2 O2B_2 1_555 1_555
C9B C3B 1_555 1_555
O5B C9B 1_555 1_555
O6C C9B 1_555 1_555
Zn2B O6C 1_555 1_555
H4B C3B 1_555 1_555
H5B C4B 1_555 1_555
H6B C4B 1_555 1_555
H7B C5 1_555 1_555
H8B C6 1_555 1_555
H9B C6 1_555 1_555
C7B C1 1_555 1_555
O1_2 C7B 1_555 1_555
Zn1A_2 O1_2 1_555 1_555
O2_2 C7B 1_555 1_555
Zn2C_2 O2_2 1_555 1_555
H1B C1 1_555 1_555
H2B C2 1_555 1_555
H3B C2 1_555 1_555
O7 Zn2C 1_555 1_555
N1 Zn2C 1_555 1_555
Zn2C O6B 1_555 1_555
C8B O3B 1_555 1_555
C13B C14B 1_555 1_555
C1B C6B 1_555 1_555

#END
