
#######################################################################
#
#                 Cambridge Crystallographic Data Centre
#                                CCDC 
#
#######################################################################
#
# If this CIF has been generated from an entry in the Cambridge 
# Structural Database, then it will include bibliographic, chemical, 
# crystal, experimental, refinement or atomic coordinate data resulting 
# from the CCDC's data processing and validation procedures.
#
#######################################################################

data_NEHXON
_symmetry_cell_setting           orthorhombic
_symmetry_space_group_name_H-M   'I b a m'
_symmetry_Int_Tables_number      72
_space_group_name_Hall           '-I 2 2c'
loop_
_symmetry_equiv_pos_site_id
_symmetry_equiv_pos_as_xyz
1 x,y,z
2 1/2+x,1/2+y,1/2+z
3 x,y,-z
4 1/2+x,1/2+y,1/2-z
5 x,-y,1/2+z
6 1/2+x,1/2-y,z
7 -x,y,1/2+z
8 1/2-x,1/2+y,z
9 -x,-y,-z
10 1/2-x,1/2-y,1/2-z
11 -x,-y,z
12 1/2-x,1/2-y,1/2+z
13 -x,y,1/2-z
14 1/2-x,1/2+y,-z
15 x,-y,1/2-z
16 1/2+x,1/2-y,-z
_cell_length_a                   7.515(2)
_cell_length_b                   14.604(4)
_cell_length_c                   7.359(1)
_cell_angle_alpha                90
_cell_angle_beta                 90
_cell_angle_gamma                90
_cell_volume                     807.643
loop_
_atom_site_label
_atom_site_type_symbol
_atom_site_fract_x
_atom_site_fract_y
_atom_site_fract_z
Fe1 Fe 0.5000 0.0000 0.7500
N1 N 0.6568(2) 0.0804(1) 0.9075(2)
C1 C 0.8584(4) 0.1820(2) 1.0000
C2 C 0.7783(3) 0.1415(1) 0.8534(3)
H1 H 0.9487 0.2289 1.0000
H2 H 0.8070 0.1547 0.7285
N1B N 0.6568(2) 0.0804(1) 1.0925(2)
C2B C 0.7783(3) 0.1415(1) 1.1466(3)
H2B H 0.8070 0.1547 1.2715
N1J N 0.3432(2) -0.0804(1) 0.9075(2)
C1J C 0.1416(4) -0.1820(2) 1.0000
C2J C 0.2217(3) -0.1415(1) 0.8534(3)
H1J H 0.0513 -0.2289 1.0000
H2J H 0.1930 -0.1547 0.7285
N1H N 0.3432(2) -0.0804(1) 1.0925(2)
C2H C 0.2217(3) -0.1415(1) 1.1466(3)
H2H H 0.1930 -0.1547 1.2715
N1L N 0.3432(2) 0.0804(1) 0.5925(2)
N1N N 0.6568(2) -0.0804(1) 0.5925(2)
Fe1B Fe 0.5000 0.0000 1.2500
loop_
_geom_bond_atom_site_label_1
_geom_bond_atom_site_label_2
_geom_bond_site_symmetry_1
_geom_bond_site_symmetry_2
Fe1 N1 1_555 1_555
N1 C2 1_555 1_555
C1 C2 1_555 1_555
C2 H2 1_555 1_555
H1 C1 1_555 1_555
N1B N1 1_555 1_555
C2B C1 1_555 1_555
H2B C2B 1_555 1_555
N1J Fe1 1_555 1_555
C1J C2J 1_555 1_555
C2J N1J 1_555 1_555
H1J C1J 1_555 1_555
H2J C2J 1_555 1_555
N1H N1J 1_555 1_555
C2H C1J 1_555 1_555
H2H C2H 1_555 1_555
N1L Fe1 1_555 1_555
N1N Fe1 1_555 1_555
Fe1B N1B 1_555 1_555
N1B C2B 1_555 1_555
N1H C2H 1_555 1_555
N1H Fe1B 1_555 1_555

#END
