
#######################################################################
#
#                 Cambridge Crystallographic Data Centre
#                                CCDC 
#
#######################################################################
#
# If this CIF has been generated from an entry in the Cambridge 
# Structural Database, then it will include bibliographic, chemical, 
# crystal, experimental, refinement or atomic coordinate data resulting 
# from the CCDC's data processing and validation procedures.
#
#######################################################################

data_NEHYEE
_symmetry_cell_setting           monoclinic
_symmetry_space_group_name_H-M   'P 2/n'
_symmetry_Int_Tables_number      13
_space_group_name_Hall           '-P 2yac'
loop_
_symmetry_equiv_pos_site_id
_symmetry_equiv_pos_as_xyz
1 x,y,z
2 1/2+x,-y,1/2+z
3 -x,-y,-z
4 1/2-x,y,1/2-z
_cell_length_a                   13.5777(4)
_cell_length_b                   14.8711(2)
_cell_length_c                   14.1776(4)
_cell_angle_alpha                90
_cell_angle_beta                 102.196(1)
_cell_angle_gamma                90
_cell_volume                     2798.07
loop_
_atom_site_label
_atom_site_type_symbol
_atom_site_fract_x
_atom_site_fract_y
_atom_site_fract_z
As1 As -0.2500 0.13753(2) 0.2500
C7 C -0.1676(2) 0.06315(16) 0.1883(2)
C8 C -0.0638(2) 0.07455(18) 0.2059(2)
H1 H -0.0320 0.1193 0.2497
C9 C -0.0069(2) 0.01960(18) 0.1585(2)
H2 H 0.0641 0.0270 0.1698
C10 C -0.0536(2) -0.04593(18) 0.0950(2)
H3 H -0.0144 -0.0833 0.0628
C11 C -0.1575(2) -0.05726(18) 0.0782(2)
H4 H -0.1891 -0.1025 0.0348
C12 C -0.2151(2) -0.00259(17) 0.1247(2)
H5 H -0.2862 -0.0099 0.1133
C13 C -0.3297(2) 0.21797(16) 0.1608(2)
C14 C -0.3256(2) 0.21764(17) 0.0636(2)
H6 H -0.2900 0.1717 0.0382
C15 C -0.3742(2) 0.28554(17) 0.0044(2)
H7 H -0.3728 0.2859 -0.0623
C16 C -0.4249(2) 0.35288(17) 0.0423(2)
H8 H -0.4569 0.3998 0.0015
C17 C -0.4295(2) 0.35262(18) 0.1389(2)
H9 H -0.4654 0.3986 0.1639
C18 C -0.3818(2) 0.28527(17) 0.1991(2)
H10 H -0.3844 0.2848 0.2655
C7C C -0.3324(2) 0.06315(16) 0.3117(2)
C8C C -0.4362(2) 0.07455(18) 0.2941(2)
H1C H -0.4680 0.1193 0.2503
C9C C -0.4931(2) 0.01960(18) 0.3415(2)
H2C H -0.5641 0.0270 0.3302
C10C C -0.4464(2) -0.04593(18) 0.4050(2)
H3C H -0.4856 -0.0833 0.4372
C11C C -0.3425(2) -0.05726(18) 0.4218(2)
H4C H -0.3109 -0.1025 0.4652
C12C C -0.2849(2) -0.00259(17) 0.3753(2)
H5C H -0.2138 -0.0099 0.3867
C13C C -0.1703(2) 0.21797(16) 0.3392(2)
C14C C -0.1744(2) 0.21764(17) 0.4364(2)
H6C H -0.2100 0.1717 0.4618
C15C C -0.1258(2) 0.28554(17) 0.4956(2)
H7C H -0.1272 0.2859 0.5623
C16C C -0.0751(2) 0.35288(17) 0.4577(2)
H8C H -0.0431 0.3998 0.4985
C17C C -0.0705(2) 0.35262(18) 0.3611(2)
H9C H -0.0346 0.3986 0.3361
C18C C -0.1182(2) 0.28527(17) 0.3009(2)
H10C H -0.1156 0.2848 0.2345
As2 As -0.2500 -0.34802(2) 0.2500
C19 C -0.1696(2) -0.26920(17) 0.3406(2)
C20 C -0.1686(2) -0.27593(17) 0.4381(2)
H11 H -0.2035 -0.3235 0.4618
C21 C -0.1162(2) -0.21244(17) 0.5011(2)
H12 H -0.1149 -0.2165 0.5682
C22 C -0.0656(2) -0.14297(17) 0.4662(2)
H13 H -0.0302 -0.0993 0.5094
C23 C -0.0668(2) -0.13721(18) 0.3683(2)
H14 H -0.0316 -0.0898 0.3447
C24 C -0.1185(2) -0.19980(18) 0.3052(2)
H15 H -0.1195 -0.1958 0.2381
C25 C -0.3310(2) -0.42315(17) 0.3122(2)
C26 C -0.4322(2) -0.4054(2) 0.3052(2)
H16 H -0.4634 -0.3556 0.2687
C27 C -0.4875(3) -0.4619(2) 0.3525(2)
H17 H -0.5570 -0.4505 0.3488
C28 C -0.4419(2) -0.53466(19) 0.4048(2)
H18 H -0.4805 -0.5732 0.4364
C29 C -0.3408(2) -0.55164(19) 0.4115(2)
H19 H -0.3098 -0.6017 0.4477
C30 C -0.2848(2) -0.49572(18) 0.3656(2)
H20 H -0.2150 -0.5068 0.3705
C19C C -0.3304(2) -0.26920(17) 0.1594(2)
C20C C -0.3314(2) -0.27593(17) 0.0619(2)
H11C H -0.2965 -0.3235 0.0382
C21C C -0.3838(2) -0.21244(17) -0.0011(2)
H12C H -0.3851 -0.2165 -0.0682
C22C C -0.4344(2) -0.14297(17) 0.0338(2)
H13C H -0.4698 -0.0993 -0.0094
C23C C -0.4332(2) -0.13721(18) 0.1317(2)
H14C H -0.4684 -0.0898 0.1553
C24C C -0.3815(2) -0.19980(18) 0.1948(2)
H15C H -0.3805 -0.1958 0.2619
C25C C -0.1690(2) -0.42315(17) 0.1878(2)
C26C C -0.0678(2) -0.4054(2) 0.1948(2)
H16C H -0.0366 -0.3556 0.2313
C27C C -0.0125(3) -0.4619(2) 0.1475(2)
H17C H 0.0570 -0.4505 0.1512
C28C C -0.0581(2) -0.53466(19) 0.0952(2)
H18C H -0.0195 -0.5732 0.0636
C29C C -0.1592(2) -0.55164(19) 0.0885(2)
H19C H -0.1902 -0.6017 0.0523
C30C C -0.2152(2) -0.49572(18) 0.1344(2)
H20C H -0.2850 -0.5068 0.1295
Co1 Co 0.2500 0.22513(3) 0.2500
Co2 Co 0.2500 -0.27528(3) 0.2500
N1 N 0.30767(18) 0.11941(13) 0.17694(17)
N2 N 0.3439(2) -0.02679(13) 0.11118(18)
N3 N 0.32056(19) -0.17204(14) 0.18640(17)
N4 N 0.31006(19) 0.32837(14) 0.17685(18)
N5 N 0.3506(2) 0.47514(14) 0.11498(19)
N6 N 0.31691(18) 0.61990(13) 0.18485(17)
N7 N 0.11570(19) 0.22680(15) 0.13925(18)
N8 N -0.0601(2) 0.2356(2) 0.0481(2)
N9 N -0.1316(2) 0.27131(15) -0.12308(18)
C1 C 0.3225(2) 0.04892(16) 0.14877(19)
C2 C 0.3294(2) -0.10202(16) 0.15421(19)
C3 C 0.3271(2) 0.39901(16) 0.15104(19)
C4 C 0.3299(2) 0.55013(16) 0.1544(2)
C5 C 0.0358(2) 0.23233(18) 0.0912(2)
C6 C -0.0928(2) 0.25494(19) -0.0443(2)
N1C N 0.19233(18) 0.11941(13) 0.32306(17)
N2C N 0.1561(2) -0.02679(13) 0.38882(18)
N3C N 0.17944(19) -0.17204(14) 0.31360(17)
C1C C 0.1775(2) 0.04892(16) 0.35123(19)
C2C C 0.1706(2) -0.10202(16) 0.34579(19)
N4C N 0.18994(19) 0.32837(14) 0.32315(18)
N5C N 0.1494(2) 0.47514(14) 0.38502(19)
N6C N 0.18309(18) 0.61990(13) 0.31515(17)
C3C C 0.1729(2) 0.39901(16) 0.34896(19)
C4C C 0.1701(2) 0.55013(16) 0.3456(2)
N7C N 0.38430(19) 0.22680(15) 0.36075(18)
N8C N 0.5601(2) 0.2356(2) 0.4519(2)
N9C N 0.6316(2) 0.27131(15) 0.62308(18)
C5C C 0.4642(2) 0.23233(18) 0.4088(2)
C6C C 0.5928(2) 0.25494(19) 0.5443(2)
N6_2 N 0.31691(18) -0.38010(13) 0.18485(17)
N6C_2 N 0.18309(18) -0.38010(13) 0.31515(17)
N9A N 0.3684(2) -0.27131(15) 0.37692(18)
N9B N 0.1316(2) -0.27131(15) 0.12308(18)
Co2_2 Co 0.2500 0.72472(3) 0.2500
Co2A Co -0.2500 0.27528(3) -0.2500
Co2A_2 Co 0.7500 0.27528(3) 0.7500
loop_
_geom_bond_atom_site_label_1
_geom_bond_atom_site_label_2
_geom_bond_site_symmetry_1
_geom_bond_site_symmetry_2
As1 C7 1_555 1_555
As2 C19 1_555 1_555
Co1 N1 1_555 1_555
Co2 N3 1_555 1_555
N1 C1 1_555 1_555
N2 C1 1_555 1_555
N3 C2 1_555 1_555
N4 Co1 1_555 1_555
N5 C3 1_555 1_555
N6 C4 1_555 1_555
N7 Co1 1_555 1_555
N8 C5 1_555 1_555
N9 C6 1_555 1_555
C2 N2 1_555 1_555
C3 N4 1_555 1_555
C4 N5 1_555 1_555
C5 N7 1_555 1_555
C6 N8 1_555 1_555
C7 C8 1_555 1_555
C8 H1 1_555 1_555
C9 C8 1_555 1_555
H2 C9 1_555 1_555
C10 C9 1_555 1_555
H3 C10 1_555 1_555
C11 C10 1_555 1_555
H4 C11 1_555 1_555
C12 C7 1_555 1_555
H5 C12 1_555 1_555
C13 As1 1_555 1_555
C14 C13 1_555 1_555
H6 C14 1_555 1_555
C15 C14 1_555 1_555
H7 C15 1_555 1_555
C16 C15 1_555 1_555
H8 C16 1_555 1_555
C17 C16 1_555 1_555
H9 C17 1_555 1_555
C18 C13 1_555 1_555
H10 C18 1_555 1_555
C19 C20 1_555 1_555
C20 H11 1_555 1_555
C21 C20 1_555 1_555
H12 C21 1_555 1_555
C22 C21 1_555 1_555
H13 C22 1_555 1_555
C23 C22 1_555 1_555
H14 C23 1_555 1_555
C24 C19 1_555 1_555
H15 C24 1_555 1_555
C25 As2 1_555 1_555
C26 C25 1_555 1_555
H16 C26 1_555 1_555
C27 C26 1_555 1_555
H17 C27 1_555 1_555
C28 C27 1_555 1_555
H18 C28 1_555 1_555
C29 C28 1_555 1_555
H19 C29 1_555 1_555
C30 C25 1_555 1_555
H20 C30 1_555 1_555
C7C As1 1_555 1_555
C8C C7C 1_555 1_555
H1C C8C 1_555 1_555
C9C C8C 1_555 1_555
H2C C9C 1_555 1_555
C10C C9C 1_555 1_555
H3C C10C 1_555 1_555
C11C C10C 1_555 1_555
H4C C11C 1_555 1_555
C12C C7C 1_555 1_555
H5C C12C 1_555 1_555
C13C As1 1_555 1_555
C14C C13C 1_555 1_555
H6C C14C 1_555 1_555
C15C C14C 1_555 1_555
H7C C15C 1_555 1_555
C16C C15C 1_555 1_555
H8C C16C 1_555 1_555
C17C C16C 1_555 1_555
H9C C17C 1_555 1_555
C18C C13C 1_555 1_555
H10C C18C 1_555 1_555
C19C As2 1_555 1_555
C20C C19C 1_555 1_555
H11C C20C 1_555 1_555
C21C C20C 1_555 1_555
H12C C21C 1_555 1_555
C22C C21C 1_555 1_555
H13C C22C 1_555 1_555
C23C C22C 1_555 1_555
H14C C23C 1_555 1_555
C24C C19C 1_555 1_555
H15C C24C 1_555 1_555
C25C As2 1_555 1_555
C26C C25C 1_555 1_555
H16C C26C 1_555 1_555
C27C C26C 1_555 1_555
H17C C27C 1_555 1_555
C28C C27C 1_555 1_555
H18C C28C 1_555 1_555
C29C C28C 1_555 1_555
H19C C29C 1_555 1_555
C30C C25C 1_555 1_555
H20C C30C 1_555 1_555
N1C Co1 1_555 1_555
N2C C1C 1_555 1_555
N3C Co2 1_555 1_555
C1C N1C 1_555 1_555
C2C N2C 1_555 1_555
N4C Co1 1_555 1_555
N5C C3C 1_555 1_555
N6C C4C 1_555 1_555
C3C N4C 1_555 1_555
C4C N5C 1_555 1_555
N7C Co1 1_555 1_555
N8C C5C 1_555 1_555
N9C C6C 1_555 1_555
C5C N7C 1_555 1_555
C6C N8C 1_555 1_555
N6_2 Co2 1_555 1_555
N6C_2 Co2 1_555 1_555
N9A Co2 1_555 1_555
N9B Co2 1_555 1_555
Co2_2 N6 1_555 1_555
Co2A N9 1_555 1_555
Co2A_2 N9C 1_555 1_555
C11 C12 1_555 1_555
C17 C18 1_555 1_555
C23 C24 1_555 1_555
C29 C30 1_555 1_555
C11C C12C 1_555 1_555
C17C C18C 1_555 1_555
C23C C24C 1_555 1_555
C29C C30C 1_555 1_555
N3C C2C 1_555 1_555
N6C Co2_2 1_555 1_555

#END
