
#######################################################################
#
#                 Cambridge Crystallographic Data Centre
#                                CCDC 
#
#######################################################################
#
# If this CIF has been generated from an entry in the Cambridge 
# Structural Database, then it will include bibliographic, chemical, 
# crystal, experimental, refinement or atomic coordinate data resulting 
# from the CCDC's data processing and validation procedures.
#
#######################################################################

data_NEHYII
_symmetry_cell_setting           monoclinic
_symmetry_space_group_name_H-M   'P 2/n'
_symmetry_Int_Tables_number      13
_space_group_name_Hall           '-P 2yac'
loop_
_symmetry_equiv_pos_site_id
_symmetry_equiv_pos_as_xyz
1 x,y,z
2 1/2+x,-y,1/2+z
3 -x,-y,-z
4 1/2-x,y,1/2-z
_cell_length_a                   13.6963(5)
_cell_length_b                   14.7418(3)
_cell_length_c                   14.1266(5)
_cell_angle_alpha                90
_cell_angle_beta                 103.315(1)
_cell_angle_gamma                90
_cell_volume                     2775.6
loop_
_atom_site_label
_atom_site_type_symbol
_atom_site_fract_x
_atom_site_fract_y
_atom_site_fract_z
As1 As -0.2500 0.13796(2) 0.2500
C7 C -0.1683(2) 0.06285(16) 0.18844(19)
C8 C -0.0652(2) 0.07492(16) 0.2064(2)
H1 H -0.0333 0.1202 0.2507
C9 C -0.0093(2) 0.02014(16) 0.1590(2)
H2 H 0.0613 0.0280 0.1706
C10 C -0.0564(2) -0.04640(16) 0.09462(19)
H3 H -0.0179 -0.0841 0.0626
C11 C -0.1591(2) -0.05772(17) 0.0771(2)
H4 H -0.1910 -0.1031 0.0329
C12 C -0.2159(2) -0.00297(16) 0.1240(2)
H5 H -0.2866 -0.0106 0.1120
C13 C -0.32993(19) 0.21931(15) 0.15939(19)
C14 C -0.32583(19) 0.21921(15) 0.06191(19)
H6 H -0.2898 0.1734 0.0370
C15 C -0.3752(2) 0.28723(16) 0.0018(2)
H7 H -0.3743 0.2876 -0.0653
C16 C -0.4259(2) 0.35439(16) 0.0389(2)
H8 H -0.4583 0.4014 -0.0027
C17 C -0.4301(2) 0.35429(16) 0.1360(2)
H9 H -0.4658 0.4006 0.1605
C18 C -0.3823(2) 0.28661(16) 0.1969(2)
H10 H -0.3849 0.2858 0.2635
C7C C -0.3317(2) 0.06285(16) 0.31156(19)
C8C C -0.4348(2) 0.07492(16) 0.2936(2)
H1C H -0.4667 0.1202 0.2493
C9C C -0.4907(2) 0.02014(16) 0.3410(2)
H2C H -0.5613 0.0280 0.3294
C10C C -0.4436(2) -0.04640(16) 0.40538(19)
H3C H -0.4821 -0.0841 0.4374
C11C C -0.3409(2) -0.05772(17) 0.4229(2)
H4C H -0.3090 -0.1031 0.4671
C12C C -0.2841(2) -0.00297(16) 0.3760(2)
H5C H -0.2134 -0.0106 0.3880
C13C C -0.17007(19) 0.21931(15) 0.34061(19)
C14C C -0.17417(19) 0.21921(15) 0.43809(19)
H6C H -0.2102 0.1734 0.4630
C15C C -0.1248(2) 0.28723(16) 0.4982(2)
H7C H -0.1257 0.2876 0.5653
C16C C -0.0741(2) 0.35439(16) 0.4611(2)
H8C H -0.0417 0.4014 0.5027
C17C C -0.0699(2) 0.35429(16) 0.3640(2)
H9C H -0.0342 0.4006 0.3395
C18C C -0.1177(2) 0.28661(16) 0.3031(2)
H10C H -0.1151 0.2858 0.2365
As2 As -0.2500 -0.34351(2) 0.2500
C19 C -0.1689(2) -0.26432(16) 0.34269(19)
C20 C -0.1667(2) -0.27227(16) 0.44074(19)
H11 H -0.2019 -0.3200 0.4635
C21 C -0.1126(2) -0.20987(16) 0.5052(2)
H12 H -0.1105 -0.2146 0.5727
C22 C -0.0617(2) -0.14045(16) 0.4713(2)
H13 H -0.0250 -0.0975 0.5157
C23 C -0.0637(2) -0.13314(16) 0.3728(2)
H14 H -0.0281 -0.0856 0.3501
C24 C -0.1174(2) -0.19492(16) 0.3080(2)
H15 H -0.1193 -0.1903 0.2405
C25 C -0.3293(2) -0.41929(16) 0.3125(2)
C26 C -0.4297(2) -0.40047(18) 0.3064(2)
H16 H -0.4612 -0.3499 0.2701
C27 C -0.4834(2) -0.45706(18) 0.3545(2)
H17 H -0.5520 -0.4446 0.3521
C28 C -0.4376(2) -0.53137(17) 0.4059(2)
H18 H -0.4754 -0.5703 0.4375
C29 C -0.3378(2) -0.54949(18) 0.4119(2)
H19 H -0.3066 -0.6003 0.4480
C30 C -0.2827(2) -0.49316(17) 0.3647(2)
H20 H -0.2138 -0.5052 0.3682
C19C C -0.3311(2) -0.26432(16) 0.15731(19)
C20C C -0.3333(2) -0.27227(16) 0.05926(19)
H11C H -0.2981 -0.3200 0.0365
C21C C -0.3874(2) -0.20987(16) -0.0052(2)
H12C H -0.3895 -0.2146 -0.0727
C22C C -0.4383(2) -0.14045(16) 0.0287(2)
H13C H -0.4750 -0.0975 -0.0157
C23C C -0.4363(2) -0.13314(16) 0.1272(2)
H14C H -0.4719 -0.0856 0.1499
C24C C -0.3826(2) -0.19492(16) 0.1920(2)
H15C H -0.3807 -0.1903 0.2595
C25C C -0.1707(2) -0.41929(16) 0.1875(2)
C26C C -0.0703(2) -0.40047(18) 0.1936(2)
H16C H -0.0388 -0.3499 0.2299
C27C C -0.0166(2) -0.45706(18) 0.1455(2)
H17C H 0.0520 -0.4446 0.1479
C28C C -0.0624(2) -0.53137(17) 0.0941(2)
H18C H -0.0246 -0.5703 0.0625
C29C C -0.1622(2) -0.54949(18) 0.0881(2)
H19C H -0.1934 -0.6003 0.0520
C30C C -0.2173(2) -0.49316(17) 0.1353(2)
H20C H -0.2862 -0.5052 0.1318
Ni1 Ni 0.2500 0.22458(2) 0.2500
Ni2 Ni 0.2500 -0.27590(2) 0.2500
N1 N 0.30496(17) 0.12024(12) 0.17776(16)
N2 N 0.34136(19) -0.02725(12) 0.11343(17)
N3 N 0.32062(17) -0.17360(13) 0.18986(16)
N4 N 0.30729(17) 0.32676(13) 0.17782(16)
N5 N 0.3513(2) 0.47457(13) 0.11876(18)
N6 N 0.31731(17) 0.62052(12) 0.18843(16)
N7 N 0.11645(17) 0.22620(13) 0.14163(16)
N8 N -0.05937(18) 0.23762(17) 0.04976(18)
N9 N -0.13557(17) 0.27222(13) -0.12220(17)
C1 C 0.3197(2) 0.04900(15) 0.15060(19)
C2 C 0.32794(19) -0.10335(16) 0.15692(18)
C3 C 0.32579(19) 0.39772(16) 0.15344(18)
C4 C 0.3302(2) 0.55019(15) 0.15800(19)
C5 C 0.0366(2) 0.23299(16) 0.0925(2)
C6 C -0.0939(2) 0.25592(16) -0.0432(2)
N1C N 0.19504(17) 0.12024(12) 0.32224(16)
N2C N 0.15864(19) -0.02725(12) 0.38657(17)
N3C N 0.17938(17) -0.17360(13) 0.31014(16)
C1C C 0.1803(2) 0.04900(15) 0.34940(19)
C2C C 0.17206(19) -0.10335(16) 0.34308(18)
N4C N 0.19271(17) 0.32676(13) 0.32218(16)
N5C N 0.1487(2) 0.47457(13) 0.38124(18)
N6C N 0.18269(17) 0.62052(12) 0.31157(16)
C3C C 0.17421(19) 0.39772(16) 0.34656(18)
C4C C 0.1698(2) 0.55019(15) 0.34200(19)
N7C N 0.38355(17) 0.22620(13) 0.35837(16)
N8C N 0.55937(18) 0.23762(17) 0.45024(18)
N9C N 0.63557(17) 0.27222(13) 0.62220(17)
C5C C 0.4634(2) 0.23299(16) 0.4075(2)
C6C C 0.5939(2) 0.25592(16) 0.5432(2)
N6_2 N 0.31731(17) -0.37948(12) 0.18843(16)
N6C_2 N 0.18269(17) -0.37948(12) 0.31157(16)
N9A N 0.36443(17) -0.27222(13) 0.37780(17)
N9B N 0.13557(17) -0.27222(13) 0.12220(17)
Ni2_2 Ni 0.2500 0.72410(2) 0.2500
Ni2A Ni -0.2500 0.27590(2) -0.2500
Ni2A_2 Ni 0.7500 0.27590(2) 0.7500
loop_
_geom_bond_atom_site_label_1
_geom_bond_atom_site_label_2
_geom_bond_site_symmetry_1
_geom_bond_site_symmetry_2
As1 C7 1_555 1_555
As2 C19 1_555 1_555
Ni1 N1 1_555 1_555
Ni2 N3 1_555 1_555
N1 C1 1_555 1_555
N2 C1 1_555 1_555
N3 C2 1_555 1_555
N4 Ni1 1_555 1_555
N5 C3 1_555 1_555
N6 C4 1_555 1_555
N7 Ni1 1_555 1_555
N8 C5 1_555 1_555
N9 C6 1_555 1_555
C2 N2 1_555 1_555
C3 N4 1_555 1_555
C4 N5 1_555 1_555
C5 N7 1_555 1_555
C6 N8 1_555 1_555
C7 C8 1_555 1_555
C8 H1 1_555 1_555
C9 C8 1_555 1_555
H2 C9 1_555 1_555
C10 C9 1_555 1_555
H3 C10 1_555 1_555
C11 C10 1_555 1_555
H4 C11 1_555 1_555
C12 C7 1_555 1_555
H5 C12 1_555 1_555
C13 As1 1_555 1_555
C14 C13 1_555 1_555
H6 C14 1_555 1_555
C15 C14 1_555 1_555
H7 C15 1_555 1_555
C16 C15 1_555 1_555
H8 C16 1_555 1_555
C17 C16 1_555 1_555
H9 C17 1_555 1_555
C18 C13 1_555 1_555
H10 C18 1_555 1_555
C19 C20 1_555 1_555
C20 H11 1_555 1_555
C21 C20 1_555 1_555
H12 C21 1_555 1_555
C22 C21 1_555 1_555
H13 C22 1_555 1_555
C23 C22 1_555 1_555
H14 C23 1_555 1_555
C24 C19 1_555 1_555
H15 C24 1_555 1_555
C25 As2 1_555 1_555
C26 C25 1_555 1_555
H16 C26 1_555 1_555
C27 C26 1_555 1_555
H17 C27 1_555 1_555
C28 C27 1_555 1_555
H18 C28 1_555 1_555
C29 C28 1_555 1_555
H19 C29 1_555 1_555
C30 C25 1_555 1_555
H20 C30 1_555 1_555
C7C As1 1_555 1_555
C8C C7C 1_555 1_555
H1C C8C 1_555 1_555
C9C C8C 1_555 1_555
H2C C9C 1_555 1_555
C10C C9C 1_555 1_555
H3C C10C 1_555 1_555
C11C C10C 1_555 1_555
H4C C11C 1_555 1_555
C12C C7C 1_555 1_555
H5C C12C 1_555 1_555
C13C As1 1_555 1_555
C14C C13C 1_555 1_555
H6C C14C 1_555 1_555
C15C C14C 1_555 1_555
H7C C15C 1_555 1_555
C16C C15C 1_555 1_555
H8C C16C 1_555 1_555
C17C C16C 1_555 1_555
H9C C17C 1_555 1_555
C18C C13C 1_555 1_555
H10C C18C 1_555 1_555
C19C As2 1_555 1_555
C20C C19C 1_555 1_555
H11C C20C 1_555 1_555
C21C C20C 1_555 1_555
H12C C21C 1_555 1_555
C22C C21C 1_555 1_555
H13C C22C 1_555 1_555
C23C C22C 1_555 1_555
H14C C23C 1_555 1_555
C24C C19C 1_555 1_555
H15C C24C 1_555 1_555
C25C As2 1_555 1_555
C26C C25C 1_555 1_555
H16C C26C 1_555 1_555
C27C C26C 1_555 1_555
H17C C27C 1_555 1_555
C28C C27C 1_555 1_555
H18C C28C 1_555 1_555
C29C C28C 1_555 1_555
H19C C29C 1_555 1_555
C30C C25C 1_555 1_555
H20C C30C 1_555 1_555
N1C Ni1 1_555 1_555
N2C C1C 1_555 1_555
N3C Ni2 1_555 1_555
C1C N1C 1_555 1_555
C2C N2C 1_555 1_555
N4C Ni1 1_555 1_555
N5C C3C 1_555 1_555
N6C C4C 1_555 1_555
C3C N4C 1_555 1_555
C4C N5C 1_555 1_555
N7C Ni1 1_555 1_555
N8C C5C 1_555 1_555
N9C C6C 1_555 1_555
C5C N7C 1_555 1_555
C6C N8C 1_555 1_555
N6_2 Ni2 1_555 1_555
N6C_2 Ni2 1_555 1_555
N9A Ni2 1_555 1_555
N9B Ni2 1_555 1_555
Ni2_2 N6 1_555 1_555
Ni2A N9 1_555 1_555
Ni2A_2 N9C 1_555 1_555
C11 C12 1_555 1_555
C17 C18 1_555 1_555
C23 C24 1_555 1_555
C29 C30 1_555 1_555
C11C C12C 1_555 1_555
C17C C18C 1_555 1_555
C23C C24C 1_555 1_555
C29C C30C 1_555 1_555
N3C C2C 1_555 1_555
N6C Ni2_2 1_555 1_555

#END
