
#######################################################################
#
#                 Cambridge Crystallographic Data Centre
#                                CCDC 
#
#######################################################################
#
# If this CIF has been generated from an entry in the Cambridge 
# Structural Database, then it will include bibliographic, chemical, 
# crystal, experimental, refinement or atomic coordinate data resulting 
# from the CCDC's data processing and validation procedures.
#
#######################################################################

data_NEHZEF
_symmetry_cell_setting           triclinic
_symmetry_space_group_name_H-M   'P -1'
_symmetry_Int_Tables_number      2
_space_group_name_Hall           '-P 1'
loop_
_symmetry_equiv_pos_site_id
_symmetry_equiv_pos_as_xyz
1 x,y,z
2 -x,-y,-z
_cell_length_a                   9.903(3)
_cell_length_b                   11.165(2)
_cell_length_c                   8.778(2)
_cell_angle_alpha                111.97(1)
_cell_angle_beta                 97.77(2)
_cell_angle_gamma                69.86(2)
_cell_volume                     845.017
loop_
_atom_site_label
_atom_site_type_symbol
_atom_site_fract_x
_atom_site_fract_y
_atom_site_fract_z
Mn1 Mn 0.27524(4) 0.41361(4) 0.62281(5)
Cl1 Cl 0.18510(9) 0.67416(9) 1.2484(1)
Cl2 Cl 0.6939(1) 0.07035(9) 0.8184(1)
O1 O 0.2257(2) 0.5224(2) 0.8886(3)
O2 O -0.0730(2) 0.6190(2) 1.3198(2)
O3 O 0.4479(3) 0.2610(2) 0.7009(3)
O4 O 0.7159(2) -0.2029(2) 0.5615(3)
O5 O 0.1232(3) 0.5935(3) 0.5825(3)
N1 N 0.3876(3) 0.3985(3) 0.3889(3)
N2 N 0.5565(3) 0.4641(2) 0.2969(3)
C1 C 0.1221(3) 0.5162(3) 0.9482(3)
C2 C -0.0324(3) 0.5669(3) 1.1732(3)
C3 C 0.0845(3) 0.5787(3) 1.1141(3)
C4 C 0.4778(3) 0.1379(3) 0.6134(3)
C5 C 0.6168(3) -0.1036(3) 0.5406(3)
C6 C 0.5879(3) 0.0322(3) 0.6454(4)
C7 C 0.3586(4) 0.3324(4) 0.2321(4)
C8 C 0.4271(4) 0.3290(4) 0.1035(4)
C9 C 0.5273(3) 0.3955(3) 0.1407(4)
C10 C 0.4845(3) 0.4616(3) 0.4131(3)
H1 H 0.0774 0.5975 0.4945
H2 H 0.0695 0.6581 0.6746
H3 H 0.2947 0.2817 0.2215
H4 H 0.4070 0.2800 -0.0074
H5 H 0.5819 0.4008 0.0593
C2A C 0.0324(3) 0.4331(3) 0.8268(3)
O2A O 0.0730(2) 0.3810(2) 0.6802(2)
C3A C -0.0845(3) 0.4213(3) 0.8859(3)
Cl1A Cl -0.18510(9) 0.32584(9) 0.7516(1)
C1A C -0.1221(3) 0.4838(3) 1.0518(3)
O1A O -0.2257(2) 0.4776(2) 1.1114(3)
C5A C 0.3832(3) 0.1036(3) 0.4594(3)
O4A O 0.2841(2) 0.2029(2) 0.4385(3)
C6A C 0.4121(3) -0.0322(3) 0.3546(4)
Cl2A Cl 0.3061(1) -0.07035(9) 0.1816(1)
C4A C 0.5222(3) -0.1379(3) 0.3866(3)
O3A O 0.5521(3) -0.2610(2) 0.2991(3)
C10A C 0.5155(3) 0.5384(3) 0.5869(3)
N1A N 0.6124(3) 0.6015(3) 0.6111(3)
C7A C 0.6414(4) 0.6676(4) 0.7679(4)
C8A C 0.5729(4) 0.6710(4) 0.8965(4)
C9A C 0.4727(3) 0.6045(3) 0.8593(4)
N2A N 0.4435(3) 0.5359(2) 0.7031(3)
H5A H 0.4181 0.5992 0.9407
H4A H 0.5930 0.7200 1.0074
H3A H 0.7053 0.7183 0.7785
Mn1A Mn -0.27524(4) 0.58639(4) 1.37719(5)
O5A O -0.1232(3) 0.4065(3) 1.4175(3)
H1A H -0.0774 0.4025 1.5055
H2A H -0.0695 0.3419 1.3254
Mn1A_2 Mn 0.72476(4) -0.41361(4) 0.37719(5)
Mn1A_3 Mn 0.72476(4) 0.58639(4) 0.37719(5)
O3A_2 O -0.4479(3) 0.7390(2) 1.2991(3)
O4_2 O -0.2841(2) 0.7971(2) 1.5615(3)
N1A_2 N -0.3876(3) 0.6015(3) 1.6111(3)
N2_2 N -0.4435(3) 0.4641(2) 1.2969(3)
O6 O 0.0640(4) 0.2225(4) 0.1802(5)
H11 H 0.1486 0.1666 0.2491
H12 H 0.0627 0.1617 0.0552
O7 O 0.068(1) 0.041(2) 0.858(2)
C11 C 0.251(2) -0.080(2) 0.706(2)
C12 C 0.170(2) 0.057(2) 0.764(4)
H6 H 0.3377 -0.1068 0.6438
H7 H 0.2939 -0.1180 0.7999
H8 H 0.1986 -0.1415 0.6429
H9 H 0.2324 0.1081 0.8326
H10 H 0.1362 0.0844 0.6764
H13 H 0.0745 -0.0410 0.8244
loop_
_geom_bond_atom_site_label_1
_geom_bond_atom_site_label_2
_geom_bond_site_symmetry_1
_geom_bond_site_symmetry_2
Mn1 O1 1_555 1_555
Cl1 C3 1_555 1_555
Cl2 C6 1_555 1_555
O1 C1 1_555 1_555
O2 C2 1_555 1_555
O3 Mn1 1_555 1_555
O4 C5 1_555 1_555
O5 Mn1 1_555 1_555
O6 H11 1_555 1_555
O7 C12 1_555 1_555
N1 Mn1 1_555 1_555
N2 C9 1_555 1_555
C1 C3 1_555 1_555
C2 C3 1_555 1_555
C4 O3 1_555 1_555
C5 C6 1_555 1_555
C6 C4 1_555 1_555
C7 N1 1_555 1_555
C8 C7 1_555 1_555
C9 C8 1_555 1_555
C10 N1 1_555 1_555
C11 C12 1_555 1_555
C12 H9 1_555 1_555
H1 O5 1_555 1_555
H2 O5 1_555 1_555
H3 C7 1_555 1_555
H4 C8 1_555 1_555
H5 C9 1_555 1_555
H6 C11 1_555 1_555
H7 C11 1_555 1_555
H8 C11 1_555 1_555
H10 C12 1_555 1_555
H12 O6 1_555 1_555
H13 O7 1_555 1_555
C2A C1 1_555 1_555
O2A Mn1 1_555 1_555
C3A C2A 1_555 1_555
Cl1A C3A 1_555 1_555
C1A C2 1_555 1_555
O1A C1A 1_555 1_555
C5A C4 1_555 1_555
O4A Mn1 1_555 1_555
C6A C5A 1_555 1_555
Cl2A C6A 1_555 1_555
C4A C5 1_555 1_555
O3A C4A 1_555 1_555
C10A C10 1_555 1_555
N1A C10A 1_555 1_555
C7A N1A 1_555 1_555
C8A C7A 1_555 1_555
C9A C8A 1_555 1_555
N2A Mn1 1_555 1_555
H5A C9A 1_555 1_555
H4A C8A 1_555 1_555
H3A C7A 1_555 1_555
Mn1A O2 1_555 1_555
O5A Mn1A 1_555 1_555
H1A O5A 1_555 1_555
H2A O5A 1_555 1_555
Mn1A_2 O4 1_555 1_555
Mn1A_3 N2 1_555 1_555
O3A_2 Mn1A 1_555 1_555
O4_2 Mn1A 1_555 1_555
N1A_2 Mn1A 1_555 1_555
N2_2 Mn1A 1_555 1_555
N2 C10 1_555 1_555
C2A O2A 1_555 1_555
C3A C1A 1_555 1_555
O1A Mn1A 1_555 1_555
C5A O4A 1_555 1_555
C6A C4A 1_555 1_555
O3A Mn1A_2 1_555 1_555
C10A N2A 1_555 1_555
N1A Mn1A_3 1_555 1_555
C9A N2A 1_555 1_555

#END
