
#######################################################################
#
#                 Cambridge Crystallographic Data Centre
#                                CCDC 
#
#######################################################################
#
# If this CIF has been generated from an entry in the Cambridge 
# Structural Database, then it will include bibliographic, chemical, 
# crystal, experimental, refinement or atomic coordinate data resulting 
# from the CCDC's data processing and validation procedures.
#
#######################################################################

data_NEHZAB
_symmetry_cell_setting           triclinic
_symmetry_space_group_name_H-M   'P -1'
_symmetry_Int_Tables_number      2
_space_group_name_Hall           '-P 1'
loop_
_symmetry_equiv_pos_site_id
_symmetry_equiv_pos_as_xyz
1 x,y,z
2 -x,-y,-z
_cell_length_a                   10.259(2)
_cell_length_b                   10.250(2)
_cell_length_c                   9.997(2)
_cell_angle_alpha                98.00(2)
_cell_angle_beta                 113.76(1)
_cell_angle_gamma                85.17(2)
_cell_volume                     952.309
loop_
_atom_site_label
_atom_site_type_symbol
_atom_site_fract_x
_atom_site_fract_y
_atom_site_fract_z
Mn1 Mn 0.81707(7) 0.26677(6) 0.19368(7)
Cl1 Cl 1.2893(1) 0.0104(1) 0.4569(1)
Cl2 Cl 0.8568(2) 0.3192(1) -0.3038(1)
O1 O 1.0177(3) 0.1693(3) 0.3242(3)
O2 O 1.2232(3) -0.1542(3) 0.6446(4)
O3 O 0.8352(3) 0.3035(3) -0.0158(3)
O4 O 1.0341(3) 0.5593(3) -0.2380(3)
N1 N 0.7594(4) 0.0670(4) 0.0364(4)
N2 N 0.5799(4) 0.2629(3) 0.0599(4)
N3 N 0.7069(4) 0.4374(4) 0.2903(4)
C1 C 1.0173(4) 0.0886(4) 0.4077(5)
C2 C 1.1228(5) -0.0811(4) 0.5729(4)
C3 C 1.1309(4) 0.0075(4) 0.4815(5)
C4 C 0.9128(4) 0.3914(4) -0.0163(5)
C5 C 1.0145(4) 0.5248(4) -0.1321(5)
C6 C 0.9333(4) 0.4187(4) -0.1389(5)
C7 C 0.8527(5) -0.0284(5) 0.0300(6)
C8 C 0.8181(6) -0.1341(5) -0.0793(7)
C9 C 0.6815(6) -0.1433(5) -0.1830(5)
C10 C 0.5823(5) -0.0452(5) -0.1765(5)
C11 C 0.6260(5) 0.0600(4) -0.0663(5)
C12 C 0.5259(5) 0.1697(4) -0.0547(5)
C13 C 0.3836(5) 0.1776(5) -0.1526(5)
C14 C 0.2987(5) 0.2808(5) -0.1315(5)
C15 C 0.3539(5) 0.3752(5) -0.0105(6)
C16 C 0.4957(5) 0.3621(4) 0.0847(5)
C17 C 0.5644(5) 0.4539(5) 0.2199(5)
C18 C 0.4891(5) 0.5521(5) 0.2726(6)
C19 C 0.5605(6) 0.6337(6) 0.3982(7)
C20 C 0.7058(6) 0.6164(5) 0.4709(6)
C21 C 0.7743(5) 0.5161(5) 0.4132(5)
H1 H 0.9539 -0.0202 0.1096
H2 H 0.8898 -0.1836 -0.0758
H3 H 0.6538 -0.2146 -0.2674
H4 H 0.4820 -0.0546 -0.2387
H5 H 0.3467 0.1069 -0.2306
H6 H 0.1894 0.2755 -0.1949
H7 H 0.2928 0.4539 0.0062
H8 H 0.3883 0.5486 0.2181
H9 H 0.5057 0.6968 0.4472
H10 H 0.7673 0.6746 0.5650
H11 H 0.8693 0.5084 0.4559
C2A C 0.8772(5) 0.0811(4) 0.4271(4)
O2A O 0.7768(3) 0.1542(3) 0.3554(4)
C3A C 0.8691(4) -0.0075(4) 0.5185(5)
Cl1A Cl 0.7107(1) -0.0104(1) 0.5431(1)
C1A C 0.9827(4) -0.0886(4) 0.5923(5)
O1A O 0.9823(3) -0.1693(3) 0.6758(3)
C5A C 0.9855(4) 0.4752(4) 0.1321(5)
O4A O 0.9659(3) 0.4407(3) 0.2380(3)
C6A C 1.0667(4) 0.5813(4) 0.1389(5)
Cl2A Cl 1.1432(2) 0.6808(1) 0.3038(1)
C4A C 1.0872(4) 0.6086(4) 0.0163(5)
O3A O 1.1648(3) 0.6965(3) 0.0158(3)
Mn1A Mn 1.18293(7) -0.26677(6) 0.80632(7)
N1A N 1.2406(4) -0.0670(4) 0.9636(4)
N2A N 1.4201(4) -0.2629(3) 0.9401(4)
N3A N 1.2931(4) -0.4374(4) 0.7097(4)
C7A C 1.1473(5) 0.0284(5) 0.9700(6)
C8A C 1.1819(6) 0.1341(5) 1.0793(7)
C9A C 1.3185(6) 0.1433(5) 1.1830(5)
C10A C 1.4177(5) 0.0452(5) 1.1765(5)
C11A C 1.3740(5) -0.0600(4) 1.0663(5)
C12A C 1.4741(5) -0.1697(4) 1.0547(5)
C13A C 1.6164(5) -0.1776(5) 1.1526(5)
C14A C 1.7013(5) -0.2808(5) 1.1315(5)
C15A C 1.6461(5) -0.3752(5) 1.0105(6)
C16A C 1.5043(5) -0.3621(4) 0.9153(5)
C17A C 1.4356(5) -0.4539(5) 0.7801(5)
C18A C 1.5109(5) -0.5521(5) 0.7274(6)
C19A C 1.4395(6) -0.6337(6) 0.6018(7)
C20A C 1.2942(6) -0.6164(5) 0.5291(6)
C21A C 1.2257(5) -0.5161(5) 0.5868(5)
H1A H 1.0461 0.0202 0.8904
H2A H 1.1102 0.1836 1.0758
H3A H 1.3462 0.2146 1.2674
H4A H 1.5180 0.0546 1.2387
H5A H 1.6533 -0.1069 1.2306
H6A H 1.8106 -0.2755 1.1949
H7A H 1.7072 -0.4539 0.9938
H8A H 1.6117 -0.5486 0.7819
H9A H 1.4943 -0.6968 0.5528
H10A H 1.2327 -0.6746 0.4350
H11A H 1.1307 -0.5084 0.5441
Mn1A_2 Mn 1.18293(7) 0.73323(6) -0.19368(7)
O3A_2 O 1.1648(3) -0.3035(3) 1.0158(3)
O4_2 O 1.0341(3) -0.4407(3) 0.7620(3)
loop_
_geom_bond_atom_site_label_1
_geom_bond_atom_site_label_2
_geom_bond_site_symmetry_1
_geom_bond_site_symmetry_2
Mn1 O1 1_555 1_555
Cl1 C3 1_555 1_555
Cl2 C6 1_555 1_555
O1 C1 1_555 1_555
O2 C2 1_555 1_555
O3 Mn1 1_555 1_555
O4 C5 1_555 1_555
N1 Mn1 1_555 1_555
N2 Mn1 1_555 1_555
N3 Mn1 1_555 1_555
C1 C3 1_555 1_555
C2 C3 1_555 1_555
C4 O3 1_555 1_555
C5 C6 1_555 1_555
C6 C4 1_555 1_555
C7 N1 1_555 1_555
C8 C7 1_555 1_555
C9 C8 1_555 1_555
C10 C9 1_555 1_555
C11 N1 1_555 1_555
C12 N2 1_555 1_555
C13 C12 1_555 1_555
C14 C13 1_555 1_555
C15 C14 1_555 1_555
C16 N2 1_555 1_555
C17 N3 1_555 1_555
C18 C17 1_555 1_555
C19 C18 1_555 1_555
C20 C19 1_555 1_555
C21 N3 1_555 1_555
H1 C7 1_555 1_555
H2 C8 1_555 1_555
H3 C9 1_555 1_555
H4 C10 1_555 1_555
H5 C13 1_555 1_555
H6 C14 1_555 1_555
H7 C15 1_555 1_555
H8 C18 1_555 1_555
H9 C19 1_555 1_555
H10 C20 1_555 1_555
H11 C21 1_555 1_555
C2A C1 1_555 1_555
O2A Mn1 1_555 1_555
C3A C2A 1_555 1_555
Cl1A C3A 1_555 1_555
C1A C2 1_555 1_555
O1A C1A 1_555 1_555
C5A C4 1_555 1_555
O4A Mn1 1_555 1_555
C6A C5A 1_555 1_555
Cl2A C6A 1_555 1_555
C4A C5 1_555 1_555
O3A C4A 1_555 1_555
Mn1A O2 1_555 1_555
N1A Mn1A 1_555 1_555
N2A Mn1A 1_555 1_555
N3A Mn1A 1_555 1_555
C7A N1A 1_555 1_555
C8A C7A 1_555 1_555
C9A C8A 1_555 1_555
C10A C9A 1_555 1_555
C11A N1A 1_555 1_555
C12A N2A 1_555 1_555
C13A C12A 1_555 1_555
C14A C13A 1_555 1_555
C15A C14A 1_555 1_555
C16A N2A 1_555 1_555
C17A N3A 1_555 1_555
C18A C17A 1_555 1_555
C19A C18A 1_555 1_555
C20A C19A 1_555 1_555
C21A N3A 1_555 1_555
H1A C7A 1_555 1_555
H2A C8A 1_555 1_555
H3A C9A 1_555 1_555
H4A C10A 1_555 1_555
H5A C13A 1_555 1_555
H6A C14A 1_555 1_555
H7A C15A 1_555 1_555
H8A C18A 1_555 1_555
H9A C19A 1_555 1_555
H10A C20A 1_555 1_555
H11A C21A 1_555 1_555
Mn1A_2 O4 1_555 1_555
O3A_2 Mn1A 1_555 1_555
O4_2 Mn1A 1_555 1_555
C10 C11 1_555 1_555
C11 C12 1_555 1_555
C15 C16 1_555 1_555
C16 C17 1_555 1_555
C20 C21 1_555 1_555
C2A O2A 1_555 1_555
C3A C1A 1_555 1_555
O1A Mn1A 1_555 1_555
C5A O4A 1_555 1_555
C6A C4A 1_555 1_555
O3A Mn1A_2 1_555 1_555
C10A C11A 1_555 1_555
C11A C12A 1_555 1_555
C15A C16A 1_555 1_555
C16A C17A 1_555 1_555
C20A C21A 1_555 1_555

#END
