
#######################################################################
#
#                 Cambridge Crystallographic Data Centre
#                                CCDC 
#
#######################################################################
#
# If this CIF has been generated from an entry in the Cambridge 
# Structural Database, then it will include bibliographic, chemical, 
# crystal, experimental, refinement or atomic coordinate data resulting 
# from the CCDC's data processing and validation procedures.
#
#######################################################################

data_NEJBAF01
_symmetry_cell_setting           monoclinic
_symmetry_space_group_name_H-M   'P 21/n'
_symmetry_Int_Tables_number      14
_space_group_name_Hall           '-P 2yn'
loop_
_symmetry_equiv_pos_site_id
_symmetry_equiv_pos_as_xyz
1 x,y,z
2 1/2-x,1/2+y,1/2-z
3 -x,-y,-z
4 1/2+x,1/2-y,1/2+z
_cell_length_a                   8.626(2)
_cell_length_b                   28.871(8)
_cell_length_c                   8.868(3)
_cell_angle_alpha                90
_cell_angle_beta                 99.02(2)
_cell_angle_gamma                90
_cell_volume                     2181.19
loop_
_atom_site_label
_atom_site_type_symbol
_atom_site_fract_x
_atom_site_fract_y
_atom_site_fract_z
Zn1 Zn 0.3766 0.10455 0.4451
O1 O 0.40265 0.04545 0.32695
O2 O 0.1564 0.05875 0.3237
O3 O 0.27855 0.16465 0.3807
O4 O 0.3472 0.10235 0.66220
N1 N 0.6127 0.11995 0.48105
C1 C 0.26205 0.03625 0.2767
C2 C 0.27595 0.1753 0.24315
C3 C 0.2951 0.07475 0.7503
C4 C 0.67145 0.1628 0.4682
C5 C 0.716 0.0849 0.51155
C6 C 0.2311 -0.00030 0.1591
O5 O 0.3374 0.1504 0.15385
C7 C 0.19755 0.2199 0.18915
O6 O 0.2784 0.08605 0.8828
C8 C 0.2552 0.02615 0.69985
C9 C 0.8296 0.17120 0.4867
C10 C 0.87435 0.09155 0.52915
Zn2 Zn 0.36455 0.1493 -0.06510
C11 C 0.93365 0.13510 0.51655
O7 O 0.3963 0.21215 -0.17870
O8 O 0.16295 0.1895 -0.19330
N2 N 0.60040 0.13330 -0.02655
C12 C 0.25935 0.2165 -0.23535
C13 C 0.69880 0.15255 -0.11150
C14 C 0.6615 0.1041 0.084
C15 C 0.2082 0.25235 -0.35235
C16 C 0.85755 0.14375 -0.08780
C17 C 0.81495 0.09350 0.11525
C18 C 0.91815 0.1142 0.02365
Zn2_2 Zn 0.36455 0.1493 0.93490
O6_2 O 0.2784 0.08605 -0.1172
loop_
_geom_bond_atom_site_label_1
_geom_bond_atom_site_label_2
_geom_bond_site_symmetry_1
_geom_bond_site_symmetry_2
Zn1 O1 1_555 1_555
O1 C1 1_555 1_555
O2 Zn1 1_555 1_555
O3 Zn1 1_555 1_555
O4 Zn1 1_555 1_555
N1 Zn1 1_555 1_555
C1 O2 1_555 1_555
C2 O3 1_555 1_555
C3 O4 1_555 1_555
C4 N1 1_555 1_555
C5 N1 1_555 1_555
C6 C1 1_555 1_555
O5 C2 1_555 1_555
C7 C2 1_555 1_555
O6 C3 1_555 1_555
C8 C3 1_555 1_555
C9 C4 1_555 1_555
C10 C5 1_555 1_555
Zn2 O5 1_555 1_555
C11 C9 1_555 1_555
O7 Zn2 1_555 1_555
O8 Zn2 1_555 1_555
N2 Zn2 1_555 1_555
C12 O7 1_555 1_555
C13 N2 1_555 1_555
C14 N2 1_555 1_555
C15 C12 1_555 1_555
C16 C13 1_555 1_555
C17 C14 1_555 1_555
C18 C16 1_555 1_555
Zn2_2 O6 1_555 1_555
O6_2 Zn2 1_555 1_555
C10 C11 1_555 1_555
O8 C12 1_555 1_555
C17 C18 1_555 1_555

#END
