
#######################################################################
#
#                 Cambridge Crystallographic Data Centre
#                                CCDC 
#
#######################################################################
#
# If this CIF has been generated from an entry in the Cambridge 
# Structural Database, then it will include bibliographic, chemical, 
# crystal, experimental, refinement or atomic coordinate data resulting 
# from the CCDC's data processing and validation procedures.
#
#######################################################################

data_NEJHOA
_symmetry_cell_setting           hexagonal
_symmetry_space_group_name_H-M   'P 6 c c'
_symmetry_Int_Tables_number      184
_space_group_name_Hall           "P 6 -2'c"
loop_
_symmetry_equiv_pos_site_id
_symmetry_equiv_pos_as_xyz
1 x,y,z
2 -y,x-y,z
3 -x+y,-x,z
4 -x,-y,z
5 y,-x+y,z
6 x-y,x,z
7 -y,-x,1/2+z
8 -x+y,y,1/2+z
9 x,x-y,1/2+z
10 y,x,1/2+z
11 x-y,-y,1/2+z
12 -x,-x+y,1/2+z
_cell_length_a                   19.6312(3)
_cell_length_b                   19.6312(3)
_cell_length_c                   28.7145(10)
_cell_angle_alpha                90
_cell_angle_beta                 90
_cell_angle_gamma                120
_cell_volume                     9583.53
loop_
_atom_site_label
_atom_site_type_symbol
_atom_site_fract_x
_atom_site_fract_y
_atom_site_fract_z
Cl2 Cl 0.6456(5) 0.2497(4) -0.5389(3)
C21 C 0.6667 0.3333 -0.5717(6)
Cl2B Cl 0.6041(6) 0.3544(5) -0.5389(3)
Cl2A Cl 0.7503(4) 0.3959(6) -0.5389(3)
Cu1 Cu 0.5000 0.0000 -0.15237(4)
Cl1 Cl 0.48460(11) 0.18512(10) -0.16698(7)
O1 O 0.5177(2) 0.1367(2) -0.15073(15)
O2 O 0.5379(3) 0.2668(3) -0.1590(2)
O3 O 0.4688(3) 0.1718(4) -0.21608(19)
O4 O 0.4084(3) 0.1544(4) -0.1406(2)
Si1 Si 0.33250(10) 0.11215(9) -0.48838(5)
Si2 Si 0.20916(10) -0.13420(10) -0.31073(5)
N1 N 0.4496(3) 0.0336(2) -0.60220(12)
N2 N 0.4176(3) -0.0370(3) -0.20214(14)
C1 C 0.4615(4) 0.1057(3) -0.60101(19)
H1 H 0.4937 0.1424 -0.6241
C2 C 0.4285(4) 0.1287(3) -0.56721(18)
H2 H 0.4397 0.1817 -0.5676
C3 C 0.3813(3) 0.0815(3) -0.53335(16)
C4 C 0.3675(3) 0.0014(3) -0.53646(16)
H3 H 0.3337 -0.0371 -0.5146
C5 C 0.4024(3) -0.0184(3) -0.57003(18)
H4 H 0.3934 -0.0706 -0.5710
C6 C 0.4067(4) 0.2104(3) -0.4687(2)
H5 H 0.3839 0.2288 -0.4449
H6 H 0.4245 0.2468 -0.4951
H7 H 0.4516 0.2082 -0.4554
C7 C 0.2512(4) 0.1164(4) -0.5171(2)
H8 H 0.2243 0.1321 -0.4944
H9 H 0.2139 0.0645 -0.5298
H10 H 0.2720 0.1549 -0.5425
C8 C 0.2971(3) 0.0401(3) -0.43910(16)
C9 C 0.2223(3) 0.0125(3) -0.42034(17)
H11 H 0.1883 0.0286 -0.4336
C10 C 0.1969(3) -0.0386(4) -0.38219(16)
H12 H 0.1450 -0.0576 -0.3709
C11 C 0.2441(3) -0.0631(3) -0.36004(16)
C12 C 0.3209(3) -0.0314(3) -0.37896(17)
H13 H 0.3565 -0.0448 -0.3650
C13 C 0.3455(3) 0.0183(3) -0.41699(18)
H14 H 0.3976 0.0381 -0.4283
C14 C 0.1232(4) -0.1394(6) -0.2833(3)
H15 H 0.0798 -0.1593 -0.3057
H16 H 0.1359 -0.0868 -0.2729
H17 H 0.1076 -0.1749 -0.2564
C15 C 0.1882(5) -0.2308(4) -0.3305(2)
H18 H 0.1453 -0.2511 -0.3533
H19 H 0.1725 -0.2667 -0.3038
H20 H 0.2353 -0.2267 -0.3449
C16 C 0.2924(4) -0.0949(3) -0.26720(17)
C17 C 0.2994(4) -0.0447(4) -0.23387(17)
H21 H 0.2616 -0.0279 -0.2325
C18 C 0.3597(4) -0.0155(4) -0.2007(2)
H22 H 0.3613 0.0191 -0.1771
C19 C 0.4069(4) -0.0917(4) -0.23498(19)
H23 H 0.4426 -0.1111 -0.2356
C20 C 0.3489(4) -0.1194(4) -0.26629(19)
H24 H 0.3456 -0.1566 -0.2886
Cu1G Cu 0.5000 0.0000 -0.65237(4)
Cl1C Cl 0.51540(11) -0.18512(10) -0.16698(7)
O1C O 0.4823(2) -0.1367(2) -0.15073(15)
O2C O 0.4621(3) -0.2668(3) -0.1590(2)
O3C O 0.5312(3) -0.1718(4) -0.21608(19)
O4C O 0.5916(3) -0.1544(4) -0.1406(2)
Si1C Si 0.66750(10) -0.11215(9) -0.48838(5)
Si2C Si 0.79084(10) 0.13420(10) -0.31073(5)
N1C N 0.5504(3) -0.0336(2) -0.60220(12)
N1G N 0.5840(4) 0.0336(2) -0.10220(12)
N1J N 0.4160(4) -0.0336(2) -0.10220(12)
N2C N 0.5824(3) 0.0370(3) -0.20214(14)
C1C C 0.5385(4) -0.1057(3) -0.60101(19)
H1C H 0.5063 -0.1424 -0.6241
C2C C 0.5715(4) -0.1287(3) -0.56721(18)
H2C H 0.5603 -0.1817 -0.5676
C3C C 0.6187(3) -0.0815(3) -0.53335(16)
C4C C 0.6325(3) -0.0014(3) -0.53646(16)
H3C H 0.6663 0.0371 -0.5146
C5C C 0.5976(3) 0.0184(3) -0.57003(18)
H4C H 0.6066 0.0706 -0.5710
C6C C 0.5933(4) -0.2104(3) -0.4687(2)
H5C H 0.6161 -0.2288 -0.4449
H6C H 0.5755 -0.2468 -0.4951
H7C H 0.5484 -0.2082 -0.4554
C7C C 0.7488(4) -0.1164(4) -0.5171(2)
H8C H 0.7757 -0.1321 -0.4944
H9C H 0.7861 -0.0645 -0.5298
H10C H 0.7280 -0.1549 -0.5425
C8C C 0.7029(3) -0.0401(3) -0.43910(16)
C9C C 0.7777(3) -0.0125(3) -0.42034(17)
H11C H 0.8117 -0.0286 -0.4336
C10C C 0.8031(3) 0.0386(4) -0.38219(16)
H12C H 0.8550 0.0576 -0.3709
C11C C 0.7559(3) 0.0631(3) -0.36004(16)
C12C C 0.6791(3) 0.0314(3) -0.37896(17)
H13C H 0.6435 0.0448 -0.3650
C13C C 0.6545(3) -0.0183(3) -0.41699(18)
H14C H 0.6024 -0.0381 -0.4283
C14C C 0.8768(4) 0.1394(6) -0.2833(3)
H15C H 0.9202 0.1593 -0.3057
H16C H 0.8641 0.0868 -0.2729
H17C H 0.8924 0.1749 -0.2564
C15C C 0.8118(5) 0.2308(4) -0.3305(2)
H18C H 0.8547 0.2511 -0.3533
H19C H 0.8275 0.2667 -0.3038
H20C H 0.7647 0.2267 -0.3449
C16C C 0.7076(4) 0.0949(3) -0.26720(17)
C17C C 0.7006(4) 0.0447(4) -0.23387(17)
H21C H 0.7384 0.0279 -0.2325
C18C C 0.6403(4) 0.0155(4) -0.2007(2)
H22C H 0.6387 -0.0191 -0.1771
C19C C 0.5931(4) 0.0917(4) -0.23498(19)
H23C H 0.5574 0.1111 -0.2356
C20C C 0.6511(4) 0.1194(4) -0.26629(19)
H24C H 0.6544 0.1566 -0.2886
loop_
_geom_bond_atom_site_label_1
_geom_bond_atom_site_label_2
_geom_bond_site_symmetry_1
_geom_bond_site_symmetry_2
Cu1 O1 1_555 1_555
Cl1 O1 1_555 1_555
O2 Cl1 1_555 1_555
O3 Cl1 1_555 1_555
O4 Cl1 1_555 1_555
Si1 C3 1_555 1_555
Si2 C11 1_555 1_555
N1 C1 1_555 1_555
N2 Cu1 1_555 1_555
C1 H1 1_555 1_555
C2 C1 1_555 1_555
H2 C2 1_555 1_555
C3 C2 1_555 1_555
C4 C3 1_555 1_555
H3 C4 1_555 1_555
C5 N1 1_555 1_555
H4 C5 1_555 1_555
C6 Si1 1_555 1_555
H5 C6 1_555 1_555
H6 C6 1_555 1_555
H7 C6 1_555 1_555
C7 Si1 1_555 1_555
H8 C7 1_555 1_555
H9 C7 1_555 1_555
H10 C7 1_555 1_555
C8 Si1 1_555 1_555
C9 C8 1_555 1_555
H11 C9 1_555 1_555
C10 C9 1_555 1_555
H12 C10 1_555 1_555
C11 C10 1_555 1_555
C12 C11 1_555 1_555
H13 C12 1_555 1_555
C13 C8 1_555 1_555
H14 C13 1_555 1_555
C14 Si2 1_555 1_555
H15 C14 1_555 1_555
H16 C14 1_555 1_555
H17 C14 1_555 1_555
C15 Si2 1_555 1_555
H18 C15 1_555 1_555
H19 C15 1_555 1_555
H20 C15 1_555 1_555
C16 Si2 1_555 1_555
C17 C16 1_555 1_555
H21 C17 1_555 1_555
C18 N2 1_555 1_555
H22 C18 1_555 1_555
C19 N2 1_555 1_555
H23 C19 1_555 1_555
C20 C16 1_555 1_555
H24 C20 1_555 1_555
Cl2 C21 1_555 1_555
C21 Cl2B 1_555 1_555
Cu1G N1 1_555 1_555
Cl1C O1C 1_555 1_555
O1C Cu1 1_555 1_555
O2C Cl1C 1_555 1_555
O3C Cl1C 1_555 1_555
O4C Cl1C 1_555 1_555
Si1C C3C 1_555 1_555
Si2C C11C 1_555 1_555
N1C Cu1G 1_555 1_555
N1G Cu1 1_555 1_555
N1J Cu1 1_555 1_555
N2C Cu1 1_555 1_555
C1C N1C 1_555 1_555
H1C C1C 1_555 1_555
C2C C1C 1_555 1_555
H2C C2C 1_555 1_555
C3C C2C 1_555 1_555
C4C C3C 1_555 1_555
H3C C4C 1_555 1_555
C5C N1C 1_555 1_555
H4C C5C 1_555 1_555
C6C Si1C 1_555 1_555
H5C C6C 1_555 1_555
H6C C6C 1_555 1_555
H7C C6C 1_555 1_555
C7C Si1C 1_555 1_555
H8C C7C 1_555 1_555
H9C C7C 1_555 1_555
H10C C7C 1_555 1_555
C8C Si1C 1_555 1_555
C9C C8C 1_555 1_555
H11C C9C 1_555 1_555
C10C C9C 1_555 1_555
H12C C10C 1_555 1_555
C11C C10C 1_555 1_555
C12C C11C 1_555 1_555
H13C C12C 1_555 1_555
C13C C8C 1_555 1_555
H14C C13C 1_555 1_555
C14C Si2C 1_555 1_555
H15C C14C 1_555 1_555
H16C C14C 1_555 1_555
H17C C14C 1_555 1_555
C15C Si2C 1_555 1_555
H18C C15C 1_555 1_555
H19C C15C 1_555 1_555
H20C C15C 1_555 1_555
C16C Si2C 1_555 1_555
C17C C16C 1_555 1_555
H21C C17C 1_555 1_555
C18C N2C 1_555 1_555
H22C C18C 1_555 1_555
C19C N2C 1_555 1_555
H23C C19C 1_555 1_555
C20C C16C 1_555 1_555
H24C C20C 1_555 1_555
Cl2A C21 1_555 1_555
C4 C5 1_555 1_555
C12 C13 1_555 1_555
C17 C18 1_555 1_555
C19 C20 1_555 1_555
C4C C5C 1_555 1_555
C12C C13C 1_555 1_555
C17C C18C 1_555 1_555
C19C C20C 1_555 1_555

#END
