
#######################################################################
#
#                 Cambridge Crystallographic Data Centre
#                                CCDC 
#
#######################################################################
#
# If this CIF has been generated from an entry in the Cambridge 
# Structural Database, then it will include bibliographic, chemical, 
# crystal, experimental, refinement or atomic coordinate data resulting 
# from the CCDC's data processing and validation procedures.
#
#######################################################################

data_NEJHIU
_symmetry_cell_setting           orthorhombic
_symmetry_space_group_name_H-M   'P b c m'
_symmetry_Int_Tables_number      57
_space_group_name_Hall           '-P 2c 2b'
loop_
_symmetry_equiv_pos_site_id
_symmetry_equiv_pos_as_xyz
1 x,y,z
2 -x,-y,1/2+z
3 -x,1/2+y,1/2-z
4 x,1/2-y,-z
5 -x,-y,-z
6 x,y,1/2-z
7 x,1/2-y,1/2+z
8 -x,1/2+y,z
_cell_length_a                   4.61720(10)
_cell_length_b                   9.1822(4)
_cell_length_c                   7.3525(3)
_cell_angle_alpha                90
_cell_angle_beta                 90
_cell_angle_gamma                90
_cell_volume                     311.717
loop_
_atom_site_label
_atom_site_type_symbol
_atom_site_fract_x
_atom_site_fract_y
_atom_site_fract_z
Rb1 Rb 0.05845(19) 0.2500 0.0000
C1 C -0.390(2) 0.0481(13) -0.2500
H1 H -0.5454 -0.0199 -0.2500
O1 O -0.4550(15) 0.1790(9) -0.2500
O2 O -0.1357(16) -0.0034(8) -0.2500
Rb1E Rb 0.05845(19) 0.2500 -0.5000
Rb1E_2 Rb 0.05845(19) 0.2500 0.5000
Rb1_2 Rb -0.94155(19) 0.2500 0.0000
Rb1E_3 Rb -0.94155(19) 0.2500 -0.5000
Rb1G Rb -0.05845(19) -0.2500 0.0000
Rb1A Rb -0.05845(19) -0.2500 -0.5000
O1_2 O 0.5450(15) 0.1790(9) -0.2500
O1F O -0.4550(15) 0.3210(9) 0.2500
O1F_2 O 0.5450(15) 0.3210(9) 0.2500
O2F O -0.1357(16) 0.5034(8) 0.2500
O2G O 0.1357(16) 0.4966(8) -0.2500
O2D O 0.1357(16) 0.0034(8) 0.2500
loop_
_geom_bond_atom_site_label_1
_geom_bond_atom_site_label_2
_geom_bond_site_symmetry_1
_geom_bond_site_symmetry_2
Rb1 O1 1_555 1_555
C1 H1 1_555 1_555
O1 C1 1_555 1_555
O2 Rb1 1_555 1_555
Rb1E O1 1_555 1_555
Rb1E_2 O1F 1_555 1_555
Rb1_2 O1 1_555 1_555
Rb1E_3 O1 1_555 1_555
Rb1G O2 1_555 1_555
Rb1A O2 1_555 1_555
O1_2 Rb1 1_555 1_555
O1F Rb1 1_555 1_555
O1F_2 Rb1 1_555 1_555
O2F Rb1 1_555 1_555
O2G Rb1 1_555 1_555
O2D Rb1 1_555 1_555
C1 O2 1_555 1_555
O2 Rb1E 1_555 1_555
Rb1E O1_2 1_555 1_555
Rb1E O2G 1_555 1_555
Rb1E_2 O1F_2 1_555 1_555
Rb1E_2 O2F 1_555 1_555
Rb1E_2 O2D 1_555 1_555
Rb1_2 O1F 1_555 1_555
Rb1G O2D 1_555 1_555

#END
