
#######################################################################
#
#                 Cambridge Crystallographic Data Centre
#                                CCDC 
#
#######################################################################
#
# If this CIF has been generated from an entry in the Cambridge 
# Structural Database, then it will include bibliographic, chemical, 
# crystal, experimental, refinement or atomic coordinate data resulting 
# from the CCDC's data processing and validation procedures.
#
#######################################################################

data_NEJXEH
_symmetry_cell_setting           monoclinic
_symmetry_space_group_name_H-M   'P 21/c'
_symmetry_Int_Tables_number      14
_space_group_name_Hall           '-P 2ybc'
loop_
_symmetry_equiv_pos_site_id
_symmetry_equiv_pos_as_xyz
1 x,y,z
2 -x,1/2+y,1/2-z
3 -x,-y,-z
4 x,1/2-y,1/2+z
_cell_length_a                   17.8488(10)
_cell_length_b                   20.9067(12)
_cell_length_c                   15.3851(9)
_cell_angle_alpha                90
_cell_angle_beta                 107.8770(10)
_cell_angle_gamma                90
_cell_volume                     5463.9
loop_
_atom_site_label
_atom_site_type_symbol
_atom_site_fract_x
_atom_site_fract_y
_atom_site_fract_z
Cd1 Cd 0.374104(12) 0.872824(10) 0.549216(15)
Cd2 Cd 0.349351(12) 0.835997(10) 0.776883(14)
Cd3 Cd 0.376784(13) 1.045176(10) 0.546127(15)
Cd4 Cd 0.567468(12) 0.842086(10) 0.691263(15)
Cd5 Cd 0.440480(12) 0.787110(10) 1.017830(15)
C1 C 0.20599(17) 0.90836(13) 0.8426(2)
C2 C 0.21694(17) 0.92388(14) 0.9354(2)
H1 H 0.2598 0.9505 0.9668
C3 C 0.16763(18) 0.90167(14) 0.9806(2)
H2 H 0.1764 0.9136 1.0425
C4 C 0.10405(18) 0.86141(14) 0.9377(2)
C5 C 0.05342(19) 0.83724(15) 0.9847(2)
H3 H 0.0614 0.8493 1.0464
C6 C -0.00666(19) 0.79690(16) 0.9426(2)
H4 H -0.0403 0.7809 0.9750
C7 C -0.01883(19) 0.77891(16) 0.8513(2)
H5 H -0.0609 0.7509 0.8220
C8 C 0.02957(18) 0.80161(15) 0.8042(2)
H6 H 0.0208 0.7885 0.7427
C9 C 0.09240(18) 0.84407(14) 0.8450(2)
C10 C 0.14387(17) 0.86789(14) 0.7966(2)
C11 C 0.12589(17) 0.85060(14) 0.6973(2)
C12 C 0.05922(17) 0.88219(15) 0.6347(2)
C13 C 0.00661(19) 0.92115(16) 0.6645(2)
H7 H 0.0178 0.9297 0.7278
C14 C -0.0598(2) 0.94659(18) 0.6041(3)
H8 H -0.0947 0.9711 0.6264
C15 C -0.0769(2) 0.93698(19) 0.5099(3)
H9 H -0.1238 0.9539 0.4687
C16 C -0.0256(2) 0.90296(17) 0.4780(2)
H10 H -0.0360 0.8979 0.4140
C17 C 0.04319(18) 0.87492(15) 0.5388(2)
C18 C 0.09679(19) 0.83841(16) 0.5073(2)
H11 H 0.0905 0.8366 0.4438
C19 C 0.15646(18) 0.80627(15) 0.5665(2)
H12 H 0.1904 0.7812 0.5432
C20 C 0.17023(16) 0.80862(14) 0.6621(2)
C21 C 0.32606(17) 0.97186(14) 0.8578(2)
H13 H 0.3030 1.0072 0.8840
H14 H 0.3557 0.9912 0.8195
C22 C 0.38341(17) 0.93494(14) 0.9355(2)
C23 C 0.22859(18) 0.96763(14) 0.7127(2)
H15 H 0.2271 1.0138 0.7263
H16 H 0.1738 0.9533 0.6832
C24 C 0.27571(17) 0.95806(14) 0.6466(2)
C25 C 0.21640(17) 0.73802(14) 0.7977(2)
H17 H 0.1845 0.6992 0.7758
H18 H 0.1847 0.7675 0.8226
C26 C 0.29065(17) 0.71933(14) 0.8743(2)
C27 C 0.26153(17) 0.71765(14) 0.6700(2)
H19 H 0.2150 0.6990 0.6240
H20 H 0.2853 0.6834 0.7143
C28 C 0.32071(17) 0.73651(14) 0.6217(2)
C29 C 0.67183(17) 0.94864(13) 0.8170(2)
C30 C 0.65752(18) 1.00759(14) 0.7680(2)
H21 H 0.6049 1.0226 0.7446
C31 C 0.71603(19) 1.04283(13) 0.7536(2)
H22 H 0.7035 1.0811 0.7189
C32 C 0.79503(18) 1.02390(14) 0.7890(2)
C33 C 0.8572(2) 1.06050(15) 0.7756(2)
H23 H 0.8453 1.0980 0.7391
C34 C 0.9341(2) 1.04306(16) 0.8138(3)
H24 H 0.9752 1.0687 0.8053
C35 C 0.9514(2) 0.98695(16) 0.8658(3)
H25 H 1.0048 0.9751 0.8938
C36 C 0.89239(18) 0.94861(15) 0.8770(2)
H26 H 0.9057 0.9098 0.9104
C37 C 0.81224(18) 0.96595(14) 0.8396(2)
C38 C 0.74865(17) 0.92613(14) 0.8489(2)
C39 C 0.77243(17) 0.86093(14) 0.8903(2)
C40 C 0.80908(17) 0.85631(14) 0.9870(2)
C41 C 0.82264(18) 0.91144(15) 1.0438(2)
H27 H 0.8048 0.9519 1.0175
C42 C 0.86061(18) 0.90753(17) 1.1352(2)
H28 H 0.8682 0.9449 1.1719
C43 C 0.88857(19) 0.84815(17) 1.1752(2)
H29 H 0.9176 0.8457 1.2382
C44 C 0.87382(18) 0.79430(16) 1.1233(2)
H30 H 0.8916 0.7543 1.1513
C45 C 0.83287(17) 0.79607(14) 1.0292(2)
C46 C 0.81526(18) 0.74094(15) 0.9738(2)
H31 H 0.8275 0.7000 1.0013
C47 C 0.78098(17) 0.74527(14) 0.8816(2)
H32 H 0.7704 0.7072 0.8462
C48 C 0.76065(16) 0.80546(14) 0.8371(2)
C49 C 0.53346(17) 0.95740(14) 0.8114(2)
H33 H 0.5530 0.9994 0.8387
H34 H 0.5005 0.9393 0.8466
C50 C 0.48178(17) 0.96829(14) 0.7144(2)
C51 C 0.60958(17) 0.87210(14) 0.9027(2)
H35 H 0.6121 0.8988 0.9566
H36 H 0.6593 0.8475 0.9165
C52 C 0.54057(17) 0.82537(15) 0.8861(2)
C53 C 0.76474(17) 0.85042(14) 0.6905(2)
H37 H 0.7979 0.8238 0.6636
H38 H 0.7999 0.8803 0.7343
C54 C 0.70783(18) 0.88865(14) 0.6152(2)
C55 C 0.70724(18) 0.74670(14) 0.6920(2)
H39 H 0.7554 0.7201 0.7093
H40 H 0.6929 0.7548 0.6255
C56 C 0.64133(18) 0.70922(15) 0.7111(2)
N1 N 0.26140(14) 0.93255(12) 0.79879(16)
N2 N 0.23343(14) 0.76909(11) 0.71963(16)
N3 N 0.60269(13) 0.91439(11) 0.82298(16)
N4 N 0.72530(15) 0.80835(12) 0.74043(17)
O1 O 0.41474(14) 0.96242(10) 1.00805(15)
O2 O 0.39719(12) 0.87707(9) 0.91744(14)
O3 O 0.26738(13) 0.99861(11) 0.58629(16)
O4 O 0.31910(12) 0.90807(10) 0.65693(14)
O5 O 0.28247(12) 0.67669(10) 0.92758(15)
O6 O 0.35283(11) 0.74984(10) 0.87917(14)
O7 O 0.32814(12) 0.70056(10) 0.56096(14)
O8 O 0.36151(12) 0.78657(9) 0.64969(14)
O9 O 0.43751(12) 1.01592(10) 0.70113(15)
O10 O 0.48490(12) 0.92819(10) 0.65380(14)
O11 O 0.54104(12) 0.79274(11) 0.95406(16)
O12 O 0.49034(12) 0.82234(10) 0.80764(15)
O13 O 0.73735(13) 0.92256(12) 0.56833(16)
O14 O 0.63424(12) 0.88392(10) 0.60070(15)
O15 O 0.64419(13) 0.64951(10) 0.70516(17)
O16 O 0.58719(12) 0.73942(10) 0.72937(16)
O17 O 0.37647(12) 0.95729(9) 0.46736(14)
H41 H 0.4176 0.9564 0.4505
O18 O 0.47839(11) 0.81126(9) 0.55762(13)
H42 H 0.4965 0.8250 0.5160
O19 O 0.50057(12) 1.08935(10) 0.57092(15)
H43 H 0.5247 1.0801 0.6259
H44 H 0.4929 1.1264 0.5844
O20 O 0.35912(16) 1.14034(13) 0.61235(19)
H45 H 0.4042 1.1554 0.6409
H46 H 0.3356 1.1325 0.6515
O21 O 0.48880(13) 0.86754(10) 1.12008(14)
H47 H 0.5382 0.8710 1.1444
H48 H 0.4759 0.9021 1.0901
Cd1C Cd 0.374104(12) 0.627176(10) 1.049216(15)
Cd3B Cd 0.623216(13) 0.954824(10) 0.453873(15)
Cd5C Cd 0.440480(12) 0.712890(10) 0.517830(15)
O5C O 0.28247(12) 0.82331(10) 0.42758(15)
O7C O 0.32814(12) 0.79944(10) 1.06096(14)
O13B O 0.26265(13) 1.07744(12) 0.43167(16)
O18C O 0.47839(11) 0.68874(9) 1.05762(13)
H42C H 0.4965 0.6750 1.0160
O22 O 0.44669(15) 0.66740(12) 0.77826(17)
H49 H 0.4644 0.6529 0.7369
H50 H 0.4687 0.7035 0.7950
loop_
_geom_bond_atom_site_label_1
_geom_bond_atom_site_label_2
_geom_bond_site_symmetry_1
_geom_bond_site_symmetry_2
Cd1 O4 1_555 1_555
Cd2 N1 1_555 1_555
Cd3 O3 1_555 1_555
Cd4 N3 1_555 1_555
Cd5 O2 1_555 1_555
C1 C2 1_555 1_555
C2 H1 1_555 1_555
C3 C2 1_555 1_555
H2 C3 1_555 1_555
C4 C3 1_555 1_555
C5 C4 1_555 1_555
H3 C5 1_555 1_555
C6 C5 1_555 1_555
H4 C6 1_555 1_555
C7 C6 1_555 1_555
H5 C7 1_555 1_555
C8 C7 1_555 1_555
H6 C8 1_555 1_555
C9 C4 1_555 1_555
C10 C1 1_555 1_555
C11 C10 1_555 1_555
C12 C11 1_555 1_555
C13 C12 1_555 1_555
H7 C13 1_555 1_555
C14 C13 1_555 1_555
H8 C14 1_555 1_555
C15 C14 1_555 1_555
H9 C15 1_555 1_555
C16 C15 1_555 1_555
H10 C16 1_555 1_555
C17 C12 1_555 1_555
C18 C17 1_555 1_555
H11 C18 1_555 1_555
C19 C18 1_555 1_555
H12 C19 1_555 1_555
C20 C11 1_555 1_555
C21 H13 1_555 1_555
H14 C21 1_555 1_555
C22 C21 1_555 1_555
C23 H15 1_555 1_555
H16 C23 1_555 1_555
C24 C23 1_555 1_555
C25 H17 1_555 1_555
H18 C25 1_555 1_555
C26 C25 1_555 1_555
C27 H19 1_555 1_555
H20 C27 1_555 1_555
C28 C27 1_555 1_555
C29 C30 1_555 1_555
C30 H21 1_555 1_555
C31 C30 1_555 1_555
H22 C31 1_555 1_555
C32 C31 1_555 1_555
C33 C32 1_555 1_555
H23 C33 1_555 1_555
C34 C33 1_555 1_555
H24 C34 1_555 1_555
C35 C34 1_555 1_555
H25 C35 1_555 1_555
C36 C35 1_555 1_555
H26 C36 1_555 1_555
C37 C32 1_555 1_555
C38 C29 1_555 1_555
C39 C38 1_555 1_555
C40 C39 1_555 1_555
C41 C40 1_555 1_555
H27 C41 1_555 1_555
C42 C41 1_555 1_555
H28 C42 1_555 1_555
C43 C42 1_555 1_555
H29 C43 1_555 1_555
C44 C43 1_555 1_555
H30 C44 1_555 1_555
C45 C40 1_555 1_555
C46 C45 1_555 1_555
H31 C46 1_555 1_555
C47 C46 1_555 1_555
H32 C47 1_555 1_555
C48 C39 1_555 1_555
C49 H33 1_555 1_555
H34 C49 1_555 1_555
C50 C49 1_555 1_555
C51 H35 1_555 1_555
H36 C51 1_555 1_555
C52 C51 1_555 1_555
C53 H37 1_555 1_555
H38 C53 1_555 1_555
C54 C53 1_555 1_555
C55 H39 1_555 1_555
H40 C55 1_555 1_555
C56 C55 1_555 1_555
N1 C1 1_555 1_555
N2 Cd2 1_555 1_555
N3 C29 1_555 1_555
N4 C48 1_555 1_555
O1 C22 1_555 1_555
O2 Cd2 1_555 1_555
O3 C24 1_555 1_555
O4 Cd2 1_555 1_555
O5 C26 1_555 1_555
O6 Cd2 1_555 1_555
O7 C28 1_555 1_555
O8 Cd1 1_555 1_555
O9 Cd3 1_555 1_555
O10 Cd1 1_555 1_555
O11 Cd5 1_555 1_555
O12 Cd2 1_555 1_555
O13 C54 1_555 1_555
O14 Cd4 1_555 1_555
O15 C56 1_555 1_555
O16 Cd4 1_555 1_555
O17 Cd1 1_555 1_555
H41 O17 1_555 1_555
O18 Cd1 1_555 1_555
H42 O18 1_555 1_555
O19 Cd3 1_555 1_555
H43 O19 1_555 1_555
H44 O19 1_555 1_555
O20 Cd3 1_555 1_555
H45 O20 1_555 1_555
H46 O20 1_555 1_555
O21 Cd5 1_555 1_555
H47 O21 1_555 1_555
H48 O21 1_555 1_555
O22 H49 1_555 1_555
H50 O22 1_555 1_555
Cd1C O5 1_555 1_555
Cd3B O13 1_555 1_555
Cd5C O7 1_555 1_555
O5C Cd1 1_555 1_555
O7C Cd5 1_555 1_555
O13B Cd3 1_555 1_555
O18C Cd5 1_555 1_555
H42C O18C 1_555 1_555
Cd2 O8 1_555 1_555
Cd3 O17 1_555 1_555
Cd4 O10 1_555 1_555
Cd4 O12 1_555 1_555
Cd4 O18 1_555 1_555
Cd5 O6 1_555 1_555
C8 C9 1_555 1_555
C9 C10 1_555 1_555
C16 C17 1_555 1_555
C19 C20 1_555 1_555
C20 N2 1_555 1_555
C21 N1 1_555 1_555
C22 O2 1_555 1_555
C23 N1 1_555 1_555
C24 O4 1_555 1_555
C25 N2 1_555 1_555
C26 O6 1_555 1_555
C27 N2 1_555 1_555
C28 O8 1_555 1_555
C36 C37 1_555 1_555
C37 C38 1_555 1_555
C44 C45 1_555 1_555
C47 C48 1_555 1_555
C49 N3 1_555 1_555
C50 O9 1_555 1_555
C50 O10 1_555 1_555
C51 N3 1_555 1_555
C52 O11 1_555 1_555
C52 O12 1_555 1_555
C53 N4 1_555 1_555
C54 O14 1_555 1_555
C55 N4 1_555 1_555
C56 O16 1_555 1_555
O18 Cd5C 1_555 1_555
Cd1C O18C 1_555 1_555

#END
