
#######################################################################
#
#                 Cambridge Crystallographic Data Centre
#                                CCDC 
#
#######################################################################
#
# If this CIF has been generated from an entry in the Cambridge 
# Structural Database, then it will include bibliographic, chemical, 
# crystal, experimental, refinement or atomic coordinate data resulting 
# from the CCDC's data processing and validation procedures.
#
#######################################################################

data_NEJXIL
_symmetry_cell_setting           orthorhombic
_symmetry_space_group_name_H-M   'P b c a'
_symmetry_Int_Tables_number      61
_space_group_name_Hall           '-P 2ac 2ab'
loop_
_symmetry_equiv_pos_site_id
_symmetry_equiv_pos_as_xyz
1 x,y,z
2 1/2-x,-y,1/2+z
3 -x,1/2+y,1/2-z
4 1/2+x,1/2-y,-z
5 -x,-y,-z
6 1/2+x,y,1/2-z
7 x,1/2-y,1/2+z
8 1/2-x,1/2+y,z
_cell_length_a                   10.5254(7)
_cell_length_b                   14.8582(10)
_cell_length_c                   38.821(3)
_cell_angle_alpha                90
_cell_angle_beta                 90
_cell_angle_gamma                90
_cell_volume                     6071.16
loop_
_atom_site_label
_atom_site_type_symbol
_atom_site_fract_x
_atom_site_fract_y
_atom_site_fract_z
Zn1 Zn 0.55870(3) 0.84356(2) 0.159195(8)
Zn2 Zn 0.32239(3) 0.50890(2) 0.214656(8)
C1 C 0.5598(3) 0.93595(18) 0.08484(7)
C2 C 0.6498(3) 0.9755(2) 0.06235(8)
H1 H 0.7055 1.0207 0.0709
C3 C 0.6580(3) 0.9501(2) 0.02875(7)
H2 H 0.7205 0.9767 0.0143
C4 C 0.5750(3) 0.8847(2) 0.01494(7)
C5 C 0.5824(3) 0.8561(2) -0.01997(8)
H3 H 0.6481 0.8788 -0.0343
C6 C 0.4971(4) 0.7969(2) -0.03315(8)
H4 H 0.5024 0.7795 -0.0567
C7 C 0.4009(4) 0.7614(2) -0.01203(9)
H5 H 0.3414 0.7200 -0.0213
C8 C 0.3926(3) 0.7861(2) 0.02185(8)
H6 H 0.3279 0.7606 0.0359
C9 C 0.4782(3) 0.84888(19) 0.03649(7)
C10 C 0.4721(3) 0.87511(19) 0.07221(7)
C11 C 0.3613(3) 0.83918(19) 0.09247(7)
C12 C 0.3662(3) 0.76693(18) 0.11537(7)
C13 C 0.2517(3) 0.7357(2) 0.13094(7)
H7 H 0.2551 0.6871 0.1468
C14 C 0.1372(3) 0.7742(2) 0.12351(8)
H8 H 0.0625 0.7509 0.1339
C15 C 0.1274(3) 0.84822(19) 0.10066(8)
C16 C 0.0096(3) 0.8887(2) 0.09266(8)
H9 H -0.0663 0.8660 0.1027
C17 C 0.0039(3) 0.9601(2) 0.07066(9)
H10 H -0.0757 0.9871 0.0655
C18 C 0.1150(3) 0.9938(2) 0.05560(9)
H11 H 0.1105 1.0442 0.0406
C19 C 0.2303(3) 0.9546(2) 0.06240(8)
H12 H 0.3046 0.9779 0.0517
C20 C 0.2408(3) 0.88022(19) 0.08498(7)
C21 C 0.6824(3) 1.00193(19) 0.13256(7)
H13 H 0.6873 1.0643 0.1237
H14 H 0.7537 0.9676 0.1224
C22 C 0.6978(3) 1.00341(19) 0.17153(7)
C23 C 0.4525(3) 1.02115(19) 0.13083(7)
H15 H 0.3966 1.0289 0.1105
H16 H 0.4867 1.0811 0.1370
C24 C 0.3733(3) 0.98624(19) 0.16074(7)
C25 C 0.5865(3) 0.70855(19) 0.10196(7)
H17 H 0.5679 0.7401 0.0801
H18 H 0.5869 0.6431 0.0972
C26 C 0.7183(3) 0.73701(19) 0.11480(8)
C27 C 0.4766(3) 0.65395(18) 0.15211(7)
H19 H 0.5545 0.6170 0.1501
H20 H 0.4036 0.6154 0.1457
C28 C 0.4612(3) 0.68299(19) 0.18958(7)
N1 N 0.5604(2) 0.96105(15) 0.12121(6)
N2 N 0.4849(2) 0.72907(15) 0.12727(6)
O1 O 0.6483(2) 0.93802(13) 0.18834(5)
O2 O 0.7600(2) 1.06510(15) 0.18439(5)
O3 O 0.3872(2) 0.90683(13) 0.17054(5)
O4 O 0.2954(2) 1.04064(14) 0.17341(5)
O5 O 0.8112(2) 0.70492(15) 0.10014(7)
O6 O 0.7229(2) 0.79299(14) 0.13984(5)
O7 O 0.5097(2) 0.75880(13) 0.19788(5)
O8 O 0.4123(2) 0.63190(14) 0.21081(5)
O9 O 0.18792(19) 0.56881(13) 0.24785(5)
H21 H 0.2031 0.5663 0.2694
H22 H 0.1691 0.6231 0.2433
O10 O 0.45786(19) 0.47282(13) 0.25015(5)
H23 H 0.4268 0.4672 0.2703
H24 H 0.5268 0.5017 0.2522
O11 O 0.2370(2) 0.38336(13) 0.23198(5)
H25 H 0.1823 0.3730 0.2164
H26 H 0.2905 0.3420 0.2283
O12 O 0.4378(3) 0.44358(16) 0.17761(6)
H27 H 0.5152 0.4515 0.1826
H28 H 0.4382 0.3868 0.1774
Zn2G Zn 0.17761(3) 1.00890(2) 0.214656(8)
O4G O 0.2046(2) 0.54064(14) 0.17341(5)
O13 O 0.0947(2) 0.74260(13) 0.23528(5)
H29 H 0.0587 0.7560 0.2543
H30 H 0.0377 0.7352 0.2199
O14 O 0.8882(2) 0.81702(17) 0.19777(6)
H31 H 0.8505 0.8614 0.2071
H32 H 0.8397 0.8127 0.1803
O15 O 0.8465(18) 0.1306(10) 0.0279(4)
H33 H 0.8076 0.1494 0.0460
H34 H 0.9114 0.1636 0.0248
loop_
_geom_bond_atom_site_label_1
_geom_bond_atom_site_label_2
_geom_bond_site_symmetry_1
_geom_bond_site_symmetry_2
Zn1 N1 1_555 1_555
Zn2 O8 1_555 1_555
C1 C2 1_555 1_555
C2 H1 1_555 1_555
C3 C2 1_555 1_555
H2 C3 1_555 1_555
C4 C3 1_555 1_555
C5 C4 1_555 1_555
H3 C5 1_555 1_555
C6 C5 1_555 1_555
H4 C6 1_555 1_555
C7 C6 1_555 1_555
H5 C7 1_555 1_555
C8 C7 1_555 1_555
H6 C8 1_555 1_555
C9 C4 1_555 1_555
C10 C1 1_555 1_555
C11 C10 1_555 1_555
C12 C11 1_555 1_555
C13 C12 1_555 1_555
H7 C13 1_555 1_555
C14 C13 1_555 1_555
H8 C14 1_555 1_555
C15 C14 1_555 1_555
C16 C15 1_555 1_555
H9 C16 1_555 1_555
C17 C16 1_555 1_555
H10 C17 1_555 1_555
C18 C17 1_555 1_555
H11 C18 1_555 1_555
C19 C18 1_555 1_555
H12 C19 1_555 1_555
C20 C11 1_555 1_555
C21 H13 1_555 1_555
H14 C21 1_555 1_555
C22 C21 1_555 1_555
C23 H15 1_555 1_555
H16 C23 1_555 1_555
C24 C23 1_555 1_555
C25 H17 1_555 1_555
H18 C25 1_555 1_555
C26 C25 1_555 1_555
C27 H19 1_555 1_555
H20 C27 1_555 1_555
C28 C27 1_555 1_555
N1 C1 1_555 1_555
N2 Zn1 1_555 1_555
O1 Zn1 1_555 1_555
O2 C22 1_555 1_555
O3 Zn1 1_555 1_555
O4 C24 1_555 1_555
O5 C26 1_555 1_555
O6 Zn1 1_555 1_555
O7 Zn1 1_555 1_555
O8 C28 1_555 1_555
O9 Zn2 1_555 1_555
H21 O9 1_555 1_555
H22 O9 1_555 1_555
O10 Zn2 1_555 1_555
H23 O10 1_555 1_555
H24 O10 1_555 1_555
O11 Zn2 1_555 1_555
H25 O11 1_555 1_555
H26 O11 1_555 1_555
O12 Zn2 1_555 1_555
H27 O12 1_555 1_555
H28 O12 1_555 1_555
O13 H29 1_555 1_555
H30 O13 1_555 1_555
O14 H31 1_555 1_555
H32 O14 1_555 1_555
O15 H33 1_555 1_555
H34 O15 1_555 1_555
Zn2G O4 1_555 1_555
O4G Zn2 1_555 1_555
C8 C9 1_555 1_555
C9 C10 1_555 1_555
C12 N2 1_555 1_555
C15 C20 1_555 1_555
C19 C20 1_555 1_555
C21 N1 1_555 1_555
C22 O1 1_555 1_555
C23 N1 1_555 1_555
C24 O3 1_555 1_555
C25 N2 1_555 1_555
C26 O6 1_555 1_555
C27 N2 1_555 1_555
C28 O7 1_555 1_555

#END
