
#######################################################################
#
#                 Cambridge Crystallographic Data Centre
#                                CCDC 
#
#######################################################################
#
# If this CIF has been generated from an entry in the Cambridge 
# Structural Database, then it will include bibliographic, chemical, 
# crystal, experimental, refinement or atomic coordinate data resulting 
# from the CCDC's data processing and validation procedures.
#
#######################################################################

data_NEJYIM
_symmetry_cell_setting           monoclinic
_symmetry_space_group_name_H-M   'P 2/n'
_symmetry_Int_Tables_number      13
_space_group_name_Hall           '-P 2yac'
loop_
_symmetry_equiv_pos_site_id
_symmetry_equiv_pos_as_xyz
1 x,y,z
2 1/2-x,y,1/2-z
3 -x,-y,-z
4 1/2+x,-y,1/2+z
_cell_length_a                   16.783(4)
_cell_length_b                   7.768(5)
_cell_length_c                   22.077(2)
_cell_angle_alpha                90
_cell_angle_beta                 107.828(5)
_cell_angle_gamma                90
_cell_volume                     2739.98
loop_
_atom_site_label
_atom_site_type_symbol
_atom_site_fract_x
_atom_site_fract_y
_atom_site_fract_z
Zn1 Zn 0.50580(2) 0.01095(4) 0.255732(16)
O1 O 0.57069(12) -0.1135(3) 0.21163(10)
O2 O 0.64121(14) 0.0944(3) 0.18021(12)
O3 O 0.46895(12) -0.1798(3) 0.29925(10)
O4 O 0.37441(15) 0.0033(2) 0.31395(12)
N1 N 0.92483(15) -0.8180(3) 0.18182(12)
N2 N 0.84038(16) -0.5929(3) 0.15182(12)
N3 N 0.09045(14) -0.8766(3) 0.31015(12)
N4 N 0.20346(15) -0.7113(3) 0.34340(12)
C1 C 0.87191(19) -0.7126(4) 0.19671(15)
H1 H 0.8580 -0.7205 0.2343
C2 C 0.92740(17) -0.7637(4) 0.12180(14)
C3 C 0.97001(19) -0.8299(4) 0.08183(15)
H2 H 1.0052 -0.9246 0.0937
C4 C 0.9580(2) -0.7496(5) 0.02403(16)
H3 H 0.9862 -0.7905 -0.0033
C5 C 0.9042(2) -0.6079(5) 0.00544(16)
H4 H 0.8973 -0.5573 -0.0340
C6 C 0.8614(2) -0.5420(4) 0.04438(16)
H5 H 0.8255 -0.4484 0.0322
C7 C 0.87446(18) -0.6220(4) 0.10255(14)
C8 C 0.7845(2) -0.4568(4) 0.15648(15)
C9 C 0.80530(19) -0.2869(4) 0.14958(15)
H6 H 0.8541 -0.2601 0.1400
C10 C 0.75263(18) -0.1583(4) 0.15705(14)
H7 H 0.7649 -0.0441 0.1510
C11 C 0.68040(18) -0.1982(4) 0.17381(14)
C12 C 0.66110(19) -0.3704(4) 0.17987(14)
H8 H 0.6130 -0.3981 0.1903
C13 C 0.7117(2) -0.4998(4) 0.17068(15)
H9 H 0.6976 -0.6145 0.1739
C14 C 0.62774(19) -0.0561(4) 0.18864(15)
C15 C 0.13027(18) -0.7414(4) 0.29800(14)
H10 H 0.1100 -0.6737 0.2618
C16 C 0.14070(18) -0.9398(4) 0.36863(15)
C17 C 0.12874(19) -1.0786(4) 0.40468(15)
H11 H 0.0814 -1.1478 0.3911
C18 C 0.1901(2) -1.1090(4) 0.46141(16)
H12 H 0.1837 -1.2005 0.4867
C19 C 0.2624(2) -1.0052(4) 0.48226(17)
H13 H 0.3023 -1.0294 0.5210
C20 C 0.27511(19) -0.8692(4) 0.44647(15)
H14 H 0.3232 -0.8020 0.4596
C21 C 0.21249(18) -0.8372(4) 0.38979(15)
C22 C 0.25718(19) -0.5689(4) 0.34272(14)
C23 C 0.34005(18) -0.5974(4) 0.34488(14)
H15 H 0.3625 -0.7079 0.3506
C24 C 0.38805(19) -0.4589(4) 0.33837(14)
H16 H 0.4435 -0.4764 0.3400
C25 C 0.35503(18) -0.2939(4) 0.32944(14)
C26 C 0.27329(19) -0.2673(4) 0.33023(15)
H17 H 0.2515 -0.1563 0.3262
C27 C 0.2243(2) -0.4044(4) 0.33691(15)
H18 H 0.1698 -0.3863 0.3375
C28 C 0.40167(18) -0.1432(4) 0.31389(15)
Zn1A Zn -0.00580(2) -0.98905(4) 0.244268(16)
Zn1A_2 Zn 0.99420(2) -0.98905(4) 0.244268(16)
N1A N 0.57517(15) 0.1820(3) 0.31818(12)
N3A N 0.40955(14) 0.1234(3) 0.18985(12)
O5 O 0.44771(17) -0.4855(3) 0.11987(15)
N5 N 0.44907(18) -0.6578(4) 0.03856(14)
C29 C 0.4779(2) -0.6037(5) 0.09726(19)
H19 H 0.5248 -0.6589 0.1239
C30 C 0.3723(3) -0.5842(7) -0.0039(2)
H20 H 0.3357 -0.6752 -0.0252
H21 H 0.3857 -0.5125 -0.0349
H22 H 0.3451 -0.5165 0.0203
C31 C 0.4877(3) -0.7936(6) 0.0147(3)
H23 H 0.5068 -0.7510 -0.0193
H24 H 0.4479 -0.8844 -0.0010
H25 H 0.5344 -0.8371 0.0482
O6 O -0.00614(19) -0.4829(4) 0.25225(15)
H26 H 0.0300 -0.4665 0.2329
H27 H 0.0092 -0.4813 0.2928
loop_
_geom_bond_atom_site_label_1
_geom_bond_atom_site_label_2
_geom_bond_site_symmetry_1
_geom_bond_site_symmetry_2
Zn1 O1 1_555 1_555
O1 C14 1_555 1_555
O2 C14 1_555 1_555
O3 Zn1 1_555 1_555
O4 C28 1_555 1_555
O5 C29 1_555 1_555
N1 C1 1_555 1_555
N2 C1 1_555 1_555
N3 C15 1_555 1_555
N4 C15 1_555 1_555
N5 C29 1_555 1_555
C1 H1 1_555 1_555
C2 N1 1_555 1_555
C3 C2 1_555 1_555
H2 C3 1_555 1_555
C4 C3 1_555 1_555
H3 C4 1_555 1_555
C5 C4 1_555 1_555
H4 C5 1_555 1_555
C6 C5 1_555 1_555
H5 C6 1_555 1_555
C7 N2 1_555 1_555
C8 N2 1_555 1_555
C9 C8 1_555 1_555
H6 C9 1_555 1_555
C10 C9 1_555 1_555
H7 C10 1_555 1_555
C11 C10 1_555 1_555
C12 C11 1_555 1_555
H8 C12 1_555 1_555
C13 C8 1_555 1_555
H9 C13 1_555 1_555
C14 C11 1_555 1_555
C15 H10 1_555 1_555
C16 N3 1_555 1_555
C17 C16 1_555 1_555
H11 C17 1_555 1_555
C18 C17 1_555 1_555
H12 C18 1_555 1_555
C19 C18 1_555 1_555
H13 C19 1_555 1_555
C20 C19 1_555 1_555
H14 C20 1_555 1_555
C21 N4 1_555 1_555
C22 N4 1_555 1_555
C23 C22 1_555 1_555
H15 C23 1_555 1_555
C24 C23 1_555 1_555
H16 C24 1_555 1_555
C25 C24 1_555 1_555
C26 C25 1_555 1_555
H17 C26 1_555 1_555
C27 C22 1_555 1_555
H18 C27 1_555 1_555
C28 O3 1_555 1_555
C29 H19 1_555 1_555
C30 N5 1_555 1_555
H20 C30 1_555 1_555
H21 C30 1_555 1_555
H22 C30 1_555 1_555
C31 N5 1_555 1_555
H23 C31 1_555 1_555
H24 C31 1_555 1_555
H25 C31 1_555 1_555
O6 H26 1_555 1_555
H27 O6 1_555 1_555
Zn1A N3 1_555 1_555
Zn1A_2 N1 1_555 1_555
N1A Zn1 1_555 1_555
N3A Zn1 1_555 1_555
C2 C7 1_555 1_555
C6 C7 1_555 1_555
C12 C13 1_555 1_555
C16 C21 1_555 1_555
C20 C21 1_555 1_555
C25 C28 1_555 1_555
C26 C27 1_555 1_555

#END
