
#######################################################################
#
#                 Cambridge Crystallographic Data Centre
#                                CCDC 
#
#######################################################################
#
# If this CIF has been generated from an entry in the Cambridge 
# Structural Database, then it will include bibliographic, chemical, 
# crystal, experimental, refinement or atomic coordinate data resulting 
# from the CCDC's data processing and validation procedures.
#
#######################################################################

data_NEJYEI
_symmetry_cell_setting           orthorhombic
_symmetry_space_group_name_H-M   'P c c n'
_symmetry_Int_Tables_number      56
_space_group_name_Hall           '-P 2ab 2ac'
loop_
_symmetry_equiv_pos_site_id
_symmetry_equiv_pos_as_xyz
1 x,y,z
2 1/2-x,1/2-y,z
3 1/2+x,-y,1/2-z
4 -x,1/2+y,1/2-z
5 -x,-y,-z
6 1/2+x,1/2+y,-z
7 1/2-x,y,1/2+z
8 x,1/2-y,1/2+z
_cell_length_a                   8.1533(3)
_cell_length_b                   12.4592(5)
_cell_length_c                   17.8938(6)
_cell_angle_alpha                90
_cell_angle_beta                 90
_cell_angle_gamma                90
_cell_volume                     1817.72
loop_
_atom_site_label
_atom_site_type_symbol
_atom_site_fract_x
_atom_site_fract_y
_atom_site_fract_z
Co1 Co 0.2500 0.2500 0.33928(3)
N1 N 0.1050(3) 0.20237(19) 0.43345(13)
C1 C 0.1693(3) 0.2231(2) 0.50119(15)
N2 N 0.5842(4) -0.1927(2) 0.24076(15)
N3 N 0.3609(3) 0.0966(2) 0.33866(15)
C2 C -0.0415(3) 0.1543(2) 0.42957(17)
H1 H -0.0850 0.1404 0.3825
C3 C -0.1325(4) 0.1240(2) 0.49159(18)
C4 C 0.5119(5) -0.1398(3) 0.27940(19)
C5 C -0.0644(4) 0.1448(3) 0.56033(19)
H2 H -0.1206 0.1255 0.6035
C6 C 0.0863(4) 0.1941(3) 0.56573(17)
H3 H 0.1321 0.2078 0.6124
C7 C -0.2964(4) 0.0707(3) 0.4820(2)
H4 H -0.3207 0.0639 0.4297
H5 H -0.3796 0.1133 0.5057
H6 H -0.2937 0.0007 0.5045
C8 C 0.3953(5) 0.0106(3) 0.32963(19)
N4 N 0.4231(7) -0.0923(3) 0.3287(3)
Co1B Co -0.2500 0.7500 0.16072(3)
Co1B_2 Co 0.7500 -0.2500 0.16072(3)
N1A N 0.3950(3) 0.29763(19) 0.43345(13)
C1A C 0.3307(3) 0.2769(2) 0.50119(15)
N2A N -0.0842(4) 0.6927(2) 0.24076(15)
N2B N 0.0842(4) 0.1927(2) 0.25924(15)
N2C N 0.4158(4) 0.3073(2) 0.25924(15)
N3A N 0.1391(3) 0.4034(2) 0.33866(15)
C2A C 0.5415(3) 0.3457(2) 0.42957(17)
H1A H 0.5850 0.3596 0.3825
C3A C 0.6325(4) 0.3760(2) 0.49159(18)
C4A C -0.0119(5) 0.6398(3) 0.27940(19)
C5A C 0.5644(4) 0.3552(3) 0.56033(19)
H2A H 0.6206 0.3745 0.6035
C6A C 0.4137(4) 0.3059(3) 0.56573(17)
H3A H 0.3679 0.2922 0.6124
C7A C 0.7964(4) 0.4293(3) 0.4820(2)
H4A H 0.8207 0.4361 0.4297
H5A H 0.8796 0.3867 0.5057
H6A H 0.7937 0.4993 0.5045
C8A C 0.1047(5) 0.4894(3) 0.32963(19)
N4A N 0.0769(7) 0.5923(3) 0.3287(3)
loop_
_geom_bond_atom_site_label_1
_geom_bond_atom_site_label_2
_geom_bond_site_symmetry_1
_geom_bond_site_symmetry_2
Co1 N1 1_555 1_555
N1 C1 1_555 1_555
C1 C6 1_555 1_555
N2 C4 1_555 1_555
N3 Co1 1_555 1_555
C2 N1 1_555 1_555
H1 C2 1_555 1_555
C3 C2 1_555 1_555
C4 N4 1_555 1_555
C5 C3 1_555 1_555
H2 C5 1_555 1_555
C6 C5 1_555 1_555
H3 C6 1_555 1_555
C7 C3 1_555 1_555
H4 C7 1_555 1_555
H5 C7 1_555 1_555
H6 C7 1_555 1_555
C8 N3 1_555 1_555
N4 C8 1_555 1_555
Co1B N2A 1_555 1_555
Co1B_2 N2 1_555 1_555
N1A Co1 1_555 1_555
C1A C1 1_555 1_555
N2A C4A 1_555 1_555
N2B Co1 1_555 1_555
N2C Co1 1_555 1_555
N3A Co1 1_555 1_555
C2A N1A 1_555 1_555
H1A C2A 1_555 1_555
C3A C2A 1_555 1_555
C4A N4A 1_555 1_555
C5A C3A 1_555 1_555
H2A C5A 1_555 1_555
C6A C1A 1_555 1_555
H3A C6A 1_555 1_555
C7A C3A 1_555 1_555
H4A C7A 1_555 1_555
H5A C7A 1_555 1_555
H6A C7A 1_555 1_555
C8A N3A 1_555 1_555
N4A C8A 1_555 1_555
N1A C1A 1_555 1_555
C5A C6A 1_555 1_555

#END
