
#######################################################################
#
#                 Cambridge Crystallographic Data Centre
#                                CCDC 
#
#######################################################################
#
# If this CIF has been generated from an entry in the Cambridge 
# Structural Database, then it will include bibliographic, chemical, 
# crystal, experimental, refinement or atomic coordinate data resulting 
# from the CCDC's data processing and validation procedures.
#
#######################################################################

data_NEJZIN
_symmetry_cell_setting           monoclinic
_symmetry_space_group_name_H-M   'P 21/n'
_symmetry_Int_Tables_number      14
_space_group_name_Hall           '-P 2yn'
loop_
_symmetry_equiv_pos_site_id
_symmetry_equiv_pos_as_xyz
1 x,y,z
2 1/2-x,1/2+y,1/2-z
3 -x,-y,-z
4 1/2+x,1/2-y,1/2+z
_cell_length_a                   17.553(5)
_cell_length_b                   7.236(4)
_cell_length_c                   19.006(3)
_cell_angle_alpha                90
_cell_angle_beta                 96.063(5)
_cell_angle_gamma                90
_cell_volume                     2400.52
loop_
_atom_site_label
_atom_site_type_symbol
_atom_site_fract_x
_atom_site_fract_y
_atom_site_fract_z
Cd1 Cd 0.129630(16) 0.17204(4) 0.454238(14)
O1 O 0.73082(17) 0.1754(4) 0.45833(16)
O2 O 0.70105(17) 0.4718(4) 0.46909(16)
O3 O 0.55922(16) 0.3439(4) 0.84413(15)
O4 O 0.49344(16) 0.3024(4) 0.93548(14)
N1 N 0.2446(2) 0.1084(5) 0.41290(18)
N2 N 0.3690(2) 0.1099(5) 0.39816(18)
N3 N 0.1557(2) 0.2079(5) 0.57460(17)
N4 N 0.22516(19) 0.2435(5) 0.67879(16)
C1 C 0.3095(3) 0.1905(6) 0.4272(2)
H1 H 0.3153 0.2962 0.4551
C2 C 0.2601(3) -0.0437(6) 0.3709(2)
C3 C 0.2116(3) -0.1781(6) 0.3390(2)
H2 H 0.1596 -0.1783 0.3448
C4 C 0.2423(3) -0.3110(7) 0.2987(3)
H3 H 0.2110 -0.4044 0.2782
C5 C 0.3207(3) -0.3082(7) 0.2877(3)
H4 H 0.3396 -0.3977 0.2591
C6 C 0.3695(3) -0.1767(6) 0.3184(3)
H5 H 0.4211 -0.1746 0.3112
C7 C 0.3380(3) -0.0456(6) 0.3609(2)
C8 C 0.4475(2) 0.1596(6) 0.4101(2)
C9 C 0.5030(2) 0.0224(7) 0.4194(2)
H6 H 0.4891 -0.1016 0.4165
C10 C 0.5793(3) 0.0725(7) 0.4331(2)
H7 H 0.6168 -0.0188 0.4378
C11 C 0.6009(2) 0.2577(6) 0.4400(2)
C12 C 0.5446(3) 0.3914(7) 0.4301(2)
H8 H 0.5583 0.5153 0.4344
C13 C 0.4675(3) 0.3449(6) 0.4139(2)
H9 H 0.4303 0.4364 0.4060
C14 C 0.6846(2) 0.3045(6) 0.4577(2)
C15 C 0.2236(2) 0.2006(6) 0.6088(2)
H10 H 0.2672 0.1690 0.5875
C16 C 0.1073(2) 0.2615(6) 0.6247(2)
C17 C 0.0297(2) 0.2999(6) 0.6161(2)
H11 H 0.0014 0.2883 0.5721
C18 C -0.0044(3) 0.3558(6) 0.6746(2)
H12 H -0.0565 0.3821 0.6703
C19 C 0.0389(2) 0.3733(6) 0.7405(2)
H13 H 0.0143 0.4102 0.7792
C20 C 0.1161(2) 0.3382(5) 0.7501(2)
H14 H 0.1447 0.3512 0.7939
C21 C 0.1491(2) 0.2816(5) 0.6899(2)
C22 C 0.2925(2) 0.2650(6) 0.7271(2)
C23 C 0.3582(2) 0.3411(5) 0.7032(2)
H15 H 0.3576 0.3804 0.6566
C24 C 0.4239(2) 0.3577(5) 0.7492(2)
H16 H 0.4680 0.4052 0.7330
C25 C 0.4250(2) 0.3043(5) 0.8198(2)
C26 C 0.3586(2) 0.2311(6) 0.8432(2)
H17 H 0.3586 0.1962 0.8903
C27 C 0.2929(2) 0.2100(5) 0.7973(2)
H18 H 0.2491 0.1593 0.8131
C28 C 0.4974(2) 0.3197(5) 0.8694(2)
O5 O 0.1633(2) 0.4799(4) 0.45061(16)
O6 O 0.12426(17) -0.1443(4) 0.48270(16)
H19 H 0.202(3) 0.493(9) 0.483(3)
H20 H 0.149(4) 0.590(4) 0.445(3)
H21 H 0.089(3) -0.152(8) 0.509(3)
H22 H 0.1704(15) -0.154(5) 0.502(3)
Cd1C Cd 0.629630(16) 0.32796(4) 0.954238(14)
O3C O 0.05922(16) 0.1561(4) 0.34413(15)
O4C O -0.00656(16) 0.1976(4) 0.43548(14)
loop_
_geom_bond_atom_site_label_1
_geom_bond_atom_site_label_2
_geom_bond_site_symmetry_1
_geom_bond_site_symmetry_2
Cd1 N1 1_555 1_555
O1 C14 1_555 1_555
O2 C14 1_555 1_555
O3 C28 1_555 1_555
O4 C28 1_555 1_555
N1 C1 1_555 1_555
N2 C1 1_555 1_555
N3 Cd1 1_555 1_555
N4 C15 1_555 1_555
C1 H1 1_555 1_555
C2 N1 1_555 1_555
C3 C2 1_555 1_555
H2 C3 1_555 1_555
C4 C3 1_555 1_555
H3 C4 1_555 1_555
C5 C4 1_555 1_555
H4 C5 1_555 1_555
C6 C5 1_555 1_555
H5 C6 1_555 1_555
C7 N2 1_555 1_555
C8 N2 1_555 1_555
C9 C8 1_555 1_555
H6 C9 1_555 1_555
C10 C9 1_555 1_555
H7 C10 1_555 1_555
C11 C10 1_555 1_555
C12 C11 1_555 1_555
H8 C12 1_555 1_555
C13 C8 1_555 1_555
H9 C13 1_555 1_555
C14 C11 1_555 1_555
C15 N3 1_555 1_555
H10 C15 1_555 1_555
C16 N3 1_555 1_555
C17 C16 1_555 1_555
H11 C17 1_555 1_555
C18 C17 1_555 1_555
H12 C18 1_555 1_555
C19 C18 1_555 1_555
H13 C19 1_555 1_555
C20 C19 1_555 1_555
H14 C20 1_555 1_555
C21 N4 1_555 1_555
C22 N4 1_555 1_555
C23 C22 1_555 1_555
H15 C23 1_555 1_555
C24 C23 1_555 1_555
H16 C24 1_555 1_555
C25 C24 1_555 1_555
C26 C25 1_555 1_555
H17 C26 1_555 1_555
C27 C22 1_555 1_555
H18 C27 1_555 1_555
C28 C25 1_555 1_555
O5 Cd1 1_555 1_555
O6 Cd1 1_555 1_555
H19 O5 1_555 1_555
H20 O5 1_555 1_555
H21 O6 1_555 1_555
H22 O6 1_555 1_555
Cd1C O3 1_555 1_555
O3C Cd1 1_555 1_555
O4C Cd1 1_555 1_555
O4 Cd1C 1_555 1_555
C2 C7 1_555 1_555
C6 C7 1_555 1_555
C12 C13 1_555 1_555
C16 C21 1_555 1_555
C20 C21 1_555 1_555
C26 C27 1_555 1_555

#END
