
#######################################################################
#
#                 Cambridge Crystallographic Data Centre
#                                CCDC 
#
#######################################################################
#
# If this CIF has been generated from an entry in the Cambridge 
# Structural Database, then it will include bibliographic, chemical, 
# crystal, experimental, refinement or atomic coordinate data resulting 
# from the CCDC's data processing and validation procedures.
#
#######################################################################

data_NEJZAF
_symmetry_cell_setting           triclinic
_symmetry_space_group_name_H-M   'P -1'
_symmetry_Int_Tables_number      2
_space_group_name_Hall           '-P 1'
loop_
_symmetry_equiv_pos_site_id
_symmetry_equiv_pos_as_xyz
1 x,y,z
2 -x,-y,-z
_cell_length_a                   8.648(4)
_cell_length_b                   11.819(5)
_cell_length_c                   14.428(6)
_cell_angle_alpha                112.677(4)
_cell_angle_beta                 92.944(7)
_cell_angle_gamma                108.849(5)
_cell_volume                     1261.32
loop_
_atom_site_label
_atom_site_type_symbol
_atom_site_fract_x
_atom_site_fract_y
_atom_site_fract_z
Cd1 Cd -0.29457(4) 0.06341(3) 0.08458(2)
Cl1 Cl -0.58857(12) 0.05405(11) 0.11301(8)
O1 O -0.0214(4) 0.1578(3) 0.0720(2)
O2 O -0.1734(4) 0.2832(3) 0.0961(3)
O3 O 0.7774(4) 0.4278(4) 0.6332(3)
O4 O 0.8302(4) 0.3985(3) 0.4769(2)
N1 N -0.1858(4) 0.1540(3) 0.2632(3)
N2 N 0.0365(4) 0.2127(4) 0.3827(3)
N3 N 0.5435(4) 0.6965(3) 0.1223(3)
N4 N 0.6817(4) 0.8671(3) 0.0891(3)
C1 C -0.0353(5) 0.2648(4) 0.0866(3)
C2 C 0.1171(5) 0.3797(4) 0.0988(3)
C3 C 0.1067(5) 0.4969(4) 0.1055(3)
H1 H 0.0029 0.5044 0.1025
C4 C 0.2467(5) 0.6034(4) 0.1166(3)
H2 H 0.2382 0.6822 0.1223
C5 C 0.4019(5) 0.5895(4) 0.1191(3)
C6 C 0.4159(5) 0.4745(4) 0.1134(3)
H3 H 0.5195 0.4668 0.1152
C7 C 0.2745(5) 0.3697(4) 0.1049(3)
H4 H 0.2841 0.2928 0.1032
C8 C 0.5351(5) 0.7798(4) 0.0803(3)
H5 H 0.4357 0.7755 0.0485
C9 C 0.7967(5) 0.8414(4) 0.1404(3)
C10 C 0.9709(5) 0.9046(4) 0.1689(3)
H6 H 1.0271 0.9740 0.1527
C11 C 1.0554(5) 0.8602(4) 0.2217(3)
H7 H 1.1710 0.9002 0.2416
C12 C 0.9700(5) 0.7548(4) 0.2461(3)
H8 H 1.0307 0.7285 0.2832
C13 C 0.7988(5) 0.6894(4) 0.2165(3)
H9 H 0.7434 0.6188 0.2316
C14 C 0.7139(5) 0.7346(4) 0.1630(3)
C15 C -0.0256(5) 0.2195(4) 0.2969(3)
H10 H 0.0405 0.2667 0.2653
C16 C -0.2356(5) 0.0949(4) 0.3300(3)
C17 C -0.3912(5) 0.0080(4) 0.3264(3)
H11 H -0.4833 -0.0158 0.2769
C18 C -0.4038(6) -0.0416(5) 0.3994(4)
H12 H -0.5060 -0.1013 0.3980
C19 C -0.2666(6) -0.0043(5) 0.4751(4)
H13 H -0.2796 -0.0395 0.5231
C20 C -0.1107(5) 0.0845(4) 0.4801(3)
H14 H -0.0195 0.1112 0.5311
C21 C -0.0991(5) 0.1307(4) 0.4054(3)
C22 C 0.2091(5) 0.2586(4) 0.4231(3)
C23 C 0.2704(6) 0.3206(4) 0.5291(3)
H15 H 0.1984 0.3332 0.5745
C24 C 0.4405(5) 0.3632(4) 0.5655(3)
H16 H 0.4820 0.4025 0.6358
C25 C 0.5491(5) 0.3478(4) 0.4983(3)
C26 C 0.4855(6) 0.2857(5) 0.3920(3)
H17 H 0.5574 0.2747 0.3464
C27 C 0.3178(5) 0.2414(4) 0.3557(3)
H18 H 0.2761 0.1995 0.2853
C28 C 0.7318(5) 0.3937(4) 0.5335(3)
H21 H 0.870(9) 0.444(7) 0.647(5)
Cd1A Cd -0.70543(4) -0.06341(3) -0.08458(2)
Cd1_2 Cd 0.70543(4) 1.06341(3) 0.08458(2)
Cl1A Cl -0.41143(12) -0.05405(11) -0.11301(8)
N4_2 N -0.3183(4) -0.1329(3) 0.0891(3)
O5 O 1.1100(4) 0.5223(3) 0.6891(3)
H19 H 1.1052 0.5327 0.6353
H20 H 1.1555 0.5919 0.7454
loop_
_geom_bond_atom_site_label_1
_geom_bond_atom_site_label_2
_geom_bond_site_symmetry_1
_geom_bond_site_symmetry_2
Cd1 Cl1 1_555 1_555
Cl1 Cd1A 1_555 1_555
O1 Cd1 1_555 1_555
O2 Cd1 1_555 1_555
O3 C28 1_555 1_555
O4 C28 1_555 1_555
N1 Cd1 1_555 1_555
N2 C15 1_555 1_555
N3 C5 1_555 1_555
N4 C8 1_555 1_555
C1 O1 1_555 1_555
C2 C1 1_555 1_555
C3 C2 1_555 1_555
H1 C3 1_555 1_555
C4 C3 1_555 1_555
H2 C4 1_555 1_555
C5 C4 1_555 1_555
C6 C5 1_555 1_555
H3 C6 1_555 1_555
C7 C2 1_555 1_555
H4 C7 1_555 1_555
C8 N3 1_555 1_555
H5 C8 1_555 1_555
C9 N4 1_555 1_555
C10 C9 1_555 1_555
H6 C10 1_555 1_555
C11 C10 1_555 1_555
H7 C11 1_555 1_555
C12 C11 1_555 1_555
H8 C12 1_555 1_555
C13 C12 1_555 1_555
H9 C13 1_555 1_555
C14 N3 1_555 1_555
C15 N1 1_555 1_555
H10 C15 1_555 1_555
C16 N1 1_555 1_555
C17 C16 1_555 1_555
H11 C17 1_555 1_555
C18 C17 1_555 1_555
H12 C18 1_555 1_555
C19 C18 1_555 1_555
H13 C19 1_555 1_555
C20 C19 1_555 1_555
H14 C20 1_555 1_555
C21 N2 1_555 1_555
C22 N2 1_555 1_555
C23 C22 1_555 1_555
H15 C23 1_555 1_555
C24 C23 1_555 1_555
H16 C24 1_555 1_555
C25 C24 1_555 1_555
C26 C25 1_555 1_555
H17 C26 1_555 1_555
C27 C22 1_555 1_555
H18 C27 1_555 1_555
C28 C25 1_555 1_555
O5 H19 1_555 1_555
H20 O5 1_555 1_555
H21 O3 1_555 1_555
Cd1A Cl1A 1_555 1_555
Cd1_2 N4 1_555 1_555
Cl1A Cd1 1_555 1_555
N4_2 Cd1 1_555 1_555
O2 C1 1_555 1_555
C6 C7 1_555 1_555
C9 C14 1_555 1_555
C13 C14 1_555 1_555
C16 C21 1_555 1_555
C20 C21 1_555 1_555
C26 C27 1_555 1_555

#END
