
#######################################################################
#
#                 Cambridge Crystallographic Data Centre
#                                CCDC 
#
#######################################################################
#
# If this CIF has been generated from an entry in the Cambridge 
# Structural Database, then it will include bibliographic, chemical, 
# crystal, experimental, refinement or atomic coordinate data resulting 
# from the CCDC's data processing and validation procedures.
#
#######################################################################

data_NEJZEJ
_symmetry_cell_setting           triclinic
_symmetry_space_group_name_H-M   'P -1'
_symmetry_Int_Tables_number      2
_space_group_name_Hall           '-P 1'
loop_
_symmetry_equiv_pos_site_id
_symmetry_equiv_pos_as_xyz
1 x,y,z
2 -x,-y,-z
_cell_length_a                   10.413(5)
_cell_length_b                   10.436(3)
_cell_length_c                   11.438(2)
_cell_angle_alpha                65.403(4)
_cell_angle_beta                 81.473(5)
_cell_angle_gamma                72.198(3)
_cell_volume                     1075.75
loop_
_atom_site_label
_atom_site_type_symbol
_atom_site_fract_x
_atom_site_fract_y
_atom_site_fract_z
Cd1 Cd 0.97013(3) 0.33057(3) 0.11685(3)
O1 O 1.0261(3) 0.1051(3) 0.1020(3)
O2 O 1.1914(3) 0.1918(3) 0.1102(3)
O3 O 0.9332(3) 0.2124(3) 0.3424(3)
N1 N 1.7401(3) -0.5875(3) 0.1187(3)
N2 N 1.5355(3) -0.4375(3) 0.1247(3)
N3 N 0.7597(4) 0.2310(4) 0.4855(3)
C1 C 1.6687(4) -0.4510(4) 0.0910(4)
H1 H 1.7054 -0.3717 0.0525
C2 C 1.6483(4) -0.6715(4) 0.1747(4)
C3 C 1.6710(4) -0.8231(4) 0.2218(4)
H2 H 1.7570 -0.8847 0.2211
C4 C 1.5603(4) -0.8776(5) 0.2694(4)
H3 H 1.5720 -0.9780 0.3008
C5 C 1.4303(4) -0.7849(5) 0.2716(4)
H4 H 1.3579 -0.8254 0.3040
C6 C 1.4076(4) -0.6338(4) 0.2264(4)
H5 H 1.3219 -0.5723 0.2284
C7 C 1.5188(4) -0.5793(4) 0.1782(4)
C8 C 1.4383(4) -0.3034(4) 0.1147(4)
C9 C 1.3040(4) -0.2807(4) 0.0928(4)
H6 H 1.2765 -0.3523 0.0827
C10 C 1.2113(4) -0.1505(4) 0.0860(4)
H7 H 1.1212 -0.1343 0.0709
C11 C 1.2522(4) -0.0442(4) 0.1015(4)
C12 C 1.3868(4) -0.0664(4) 0.1210(4)
H8 H 1.4144 0.0063 0.1287
C13 C 1.4800(4) -0.1964(4) 0.1288(4)
H9 H 1.5701 -0.2121 0.1435
C14 C 1.1496(4) 0.0946(4) 0.1035(4)
C15 C 0.8390(4) 0.2862(5) 0.3886(4)
H10 H 0.8238 0.3874 0.3519
C16 C 0.6493(5) 0.3241(6) 0.5320(5)
H11 H 0.6606 0.2981 0.6216
H12 H 0.5653 0.3111 0.5209
H13 H 0.6493 0.4246 0.4843
C17 C 0.7758(5) 0.0731(5) 0.5468(4)
H14 H 0.7646 0.0438 0.6383
H15 H 0.8643 0.0224 0.5268
H16 H 0.7092 0.0495 0.5155
Cl1 Cl 1.02371(9) 0.53936(10) 0.14045(9)
Cd1_2 Cd 1.97013(3) -0.66943(3) 0.11685(3)
Cd1A Cd 1.02987(3) 0.66943(3) -0.11685(3)
N1_2 N 0.7401(3) 0.4125(3) 0.1187(3)
Cl1A Cl 0.97629(9) 0.46064(10) -0.14045(9)
O4 O 0.7046(4) 0.6523(4) 0.3487(4)
N4 N 0.8677(4) 0.7323(4) 0.3889(3)
C18 C 0.7896(5) 0.7214(5) 0.3137(4)
H17 H 0.8003 0.7710 0.2256
C19 C 0.8634(5) 0.6528(6) 0.5270(5)
H18 H 0.8460 0.7199 0.5684
H19 H 0.9484 0.5813 0.5542
H20 H 0.7929 0.6044 0.5499
C20 C 0.9703(5) 0.8103(6) 0.3359(5)
H21 H 0.9614 0.8780 0.3752
H22 H 0.9595 0.8630 0.2447
H23 H 1.0581 0.7417 0.3525
loop_
_geom_bond_atom_site_label_1
_geom_bond_atom_site_label_2
_geom_bond_site_symmetry_1
_geom_bond_site_symmetry_2
Cd1 O1 1_555 1_555
O1 C14 1_555 1_555
O2 Cd1 1_555 1_555
O3 Cd1 1_555 1_555
O4 C18 1_555 1_555
N1 C1 1_555 1_555
N2 C1 1_555 1_555
N3 C15 1_555 1_555
N4 C18 1_555 1_555
C1 H1 1_555 1_555
C2 N1 1_555 1_555
C3 C2 1_555 1_555
H2 C3 1_555 1_555
C4 C3 1_555 1_555
H3 C4 1_555 1_555
C5 C4 1_555 1_555
H4 C5 1_555 1_555
C6 C5 1_555 1_555
H5 C6 1_555 1_555
C7 N2 1_555 1_555
C8 N2 1_555 1_555
C9 C8 1_555 1_555
H6 C9 1_555 1_555
C10 C9 1_555 1_555
H7 C10 1_555 1_555
C11 C10 1_555 1_555
C12 C11 1_555 1_555
H8 C12 1_555 1_555
C13 C8 1_555 1_555
H9 C13 1_555 1_555
C14 O2 1_555 1_555
C15 O3 1_555 1_555
H10 C15 1_555 1_555
C16 N3 1_555 1_555
H11 C16 1_555 1_555
H12 C16 1_555 1_555
H13 C16 1_555 1_555
C17 N3 1_555 1_555
H14 C17 1_555 1_555
H15 C17 1_555 1_555
H16 C17 1_555 1_555
C18 H17 1_555 1_555
C19 N4 1_555 1_555
H18 C19 1_555 1_555
H19 C19 1_555 1_555
H20 C19 1_555 1_555
C20 N4 1_555 1_555
H21 C20 1_555 1_555
H22 C20 1_555 1_555
H23 C20 1_555 1_555
Cl1 Cd1 1_555 1_555
Cd1_2 N1 1_555 1_555
Cd1A Cl1 1_555 1_555
N1_2 Cd1 1_555 1_555
Cl1A Cd1 1_555 1_555
C2 C7 1_555 1_555
C6 C7 1_555 1_555
C11 C14 1_555 1_555
C12 C13 1_555 1_555
Cd1A Cl1A 1_555 1_555

#END
