
#######################################################################
#
#                 Cambridge Crystallographic Data Centre
#                                CCDC 
#
#######################################################################
#
# If this CIF has been generated from an entry in the Cambridge 
# Structural Database, then it will include bibliographic, chemical, 
# crystal, experimental, refinement or atomic coordinate data resulting 
# from the CCDC's data processing and validation procedures.
#
#######################################################################

data_NEKGIT
_symmetry_cell_setting           monoclinic
_symmetry_space_group_name_H-M   'P 21/c'
_symmetry_Int_Tables_number      14
_space_group_name_Hall           '-P 2ybc'
loop_
_symmetry_equiv_pos_site_id
_symmetry_equiv_pos_as_xyz
1 x,y,z
2 x,1/2-y,1/2+z
3 -x,-y,-z
4 -x,1/2+y,1/2-z
_cell_length_a                   8.509(3)
_cell_length_b                   20.937(8)
_cell_length_c                   10.376(3)
_cell_angle_alpha                90
_cell_angle_beta                 109.77(2)
_cell_angle_gamma                90
_cell_volume                     1739.56
loop_
_atom_site_label
_atom_site_type_symbol
_atom_site_fract_x
_atom_site_fract_y
_atom_site_fract_z
V1 V -0.23464(6) 0.38248(2) 0.07910(5)
Ca1 Ca 0.26527(8) 0.34506(3) 0.48919(7)
O1 O -0.3956(3) 0.41994(10) -0.1009(2)
O2 O -0.4075(3) 0.4999(1) -0.2450(2)
O3 O -0.3219(3) 0.45221(10) 0.1580(2)
O4 O 0.1402(3) 0.4481(1) 0.4173(2)
O5 O -0.0392(3) 0.38699(10) 0.2631(2)
O6 O -0.4311(3) 0.3378(1) 0.1193(2)
O7 O 0.4094(3) 0.2486(1) 0.5867(2)
O8 O -0.1502(3) 0.2953(1) 0.0977(2)
O9 O 0.0415(3) 0.3516(1) -0.1696(3)
O10 O -0.0632(3) 0.39455(10) -0.0202(2)
O11 O -0.0037(3) 0.3309(1) 0.5271(2)
O12 O 0.1646(3) 0.2678(1) 0.3122(2)
O13 O 0.3585(3) 0.3714(1) 0.2950(2)
O14 O 0.5287(3) 0.3965(1) 0.5784(2)
O15 O 0.3058(3) 0.3743(1) 0.7231(2)
N1 N -0.2013(3) 0.4773(1) 0.1115(3)
N2 N -0.2668(3) 0.3023(1) -0.0314(3)
C1 C -0.3648(4) 0.4775(2) -0.1285(3)
C2 C -0.2692(4) 0.5186(1) -0.0085(3)
C3 C -0.0534(4) 0.4984(1) 0.2235(3)
C4 C 0.0223(4) 0.4410(2) 0.3090(3)
C5 C -0.4855(4) 0.2850(2) 0.0613(3)
C6 C -0.4150(4) 0.2642(1) -0.0481(3)
C7 C -0.1936(4) 0.3013(2) -0.1395(3)
C8 C -0.0595(4) 0.3524(1) -0.1071(3)
H1 H -0.3418 0.5494 0.0085
H2 H -0.1807 0.5396 -0.0274
H3 H -0.0844 0.5291 0.2779
H4 H 0.0249 0.5168 0.1873
H5 H -0.4949 0.2712 -0.1365
H6 H -0.3862 0.2202 -0.0375
H7 H -0.2771 0.3099 -0.2253
H8 H -0.1456 0.2606 -0.1426
H9 H -0.0694 0.3628 0.4951
H10 H -0.0204 0.3166 0.5993
H11 H 0.0868 0.2899 0.2541
H12 H 0.1255 0.2313 0.3237
H13 H 0.3839 0.4096 0.2781
H14 H 0.3798 0.3453 0.2392
H15 H 0.5848 0.4052 0.5254
H16 H 0.5872 0.4061 0.6614
H17 H 0.3969 0.3908 0.7770
H18 H 0.2391 0.3671 0.7679
O7A O -0.5906(3) 0.2514(1) 0.0867(2)
Ca1A Ca -0.73473(8) 0.15494(3) -0.01081(7)
O16 O 0.7545(3) 0.4340(1) 0.4517(2)
H19 H 0.7037 0.4405 0.3664
H20 H 0.7775 0.4701 0.4941
loop_
_geom_bond_atom_site_label_1
_geom_bond_atom_site_label_2
_geom_bond_site_symmetry_1
_geom_bond_site_symmetry_2
V1 O1 1_555 1_555
Ca1 O4 1_555 1_555
O1 C1 1_555 1_555
O2 C1 1_555 1_555
O3 V1 1_555 1_555
O4 C4 1_555 1_555
O5 V1 1_555 1_555
O6 V1 1_555 1_555
O7 Ca1 1_555 1_555
O8 V1 1_555 1_555
O9 C8 1_555 1_555
O10 V1 1_555 1_555
O11 Ca1 1_555 1_555
O12 Ca1 1_555 1_555
O13 Ca1 1_555 1_555
O14 Ca1 1_555 1_555
O15 Ca1 1_555 1_555
O16 H19 1_555 1_555
N1 V1 1_555 1_555
N2 V1 1_555 1_555
C1 C2 1_555 1_555
C2 N1 1_555 1_555
C3 N1 1_555 1_555
C4 O5 1_555 1_555
C5 O6 1_555 1_555
C6 N2 1_555 1_555
C7 N2 1_555 1_555
C8 O10 1_555 1_555
H1 C2 1_555 1_555
H2 C2 1_555 1_555
H3 C3 1_555 1_555
H4 C3 1_555 1_555
H5 C6 1_555 1_555
H6 C6 1_555 1_555
H7 C7 1_555 1_555
H8 C7 1_555 1_555
H9 O11 1_555 1_555
H10 O11 1_555 1_555
H11 O12 1_555 1_555
H12 O12 1_555 1_555
H13 O13 1_555 1_555
H14 O13 1_555 1_555
H15 O14 1_555 1_555
H16 O14 1_555 1_555
H17 O15 1_555 1_555
H18 O15 1_555 1_555
H20 O16 1_555 1_555
O7A C5 1_555 1_555
Ca1A O7A 1_555 1_555
O3 N1 1_555 1_555
O8 N2 1_555 1_555
C3 C4 1_555 1_555
C5 C6 1_555 1_555
C7 C8 1_555 1_555

#END
