
#######################################################################
#
#                 Cambridge Crystallographic Data Centre
#                                CCDC 
#
#######################################################################
#
# If this CIF has been generated from an entry in the Cambridge 
# Structural Database, then it will include bibliographic, chemical, 
# crystal, experimental, refinement or atomic coordinate data resulting 
# from the CCDC's data processing and validation procedures.
#
#######################################################################

data_NEKKAR
_symmetry_cell_setting           triclinic
_symmetry_space_group_name_H-M   'P -1'
_symmetry_Int_Tables_number      2
_space_group_name_Hall           '-P 1'
loop_
_symmetry_equiv_pos_site_id
_symmetry_equiv_pos_as_xyz
1 x,y,z
2 -x,-y,-z
_cell_length_a                   10.2109(3)
_cell_length_b                   13.5526(5)
_cell_length_c                   15.4806(5)
_cell_angle_alpha                89.220(3)
_cell_angle_beta                 81.646(3)
_cell_angle_gamma                83.857(3)
_cell_volume                     2107.37
loop_
_atom_site_label
_atom_site_type_symbol
_atom_site_fract_x
_atom_site_fract_y
_atom_site_fract_z
C1 C 0.4251(3) 0.3903(2) 0.8714(2)
C2 C 0.3840(4) 0.3229(4) 0.9469(2)
H1 H 0.2882 0.3367 0.9664
H2 H 0.4327 0.3347 0.9952
H3 H 0.4045 0.2535 0.928
C3 C 0.5738(3) 0.3731(3) 0.8424(3)
H4 H 0.5982 0.3037 0.8243
H5 H 0.6207 0.3875 0.8909
H6 H 0.5987 0.4168 0.7932
C4 C 0.3827(4) 0.4981(3) 0.8947(3)
H7 H 0.4103 0.5399 0.8446
H8 H 0.4247 0.5161 0.9445
H9 H 0.2857 0.5083 0.9101
C5 C -0.0081(3) 0.3153(3) 0.8858(2)
C6 C -0.0694(3) 0.2809(3) 0.8086(3)
H10 H -0.0794 0.3359 0.7676
H11 H -0.1569 0.2592 0.8297
H12 H -0.0113 0.2255 0.7791
C7 C 0.0101(4) 0.2314(3) 0.9508(3)
H13 H 0.0697 0.1763 0.9219
H14 H -0.0765 0.2085 0.9724
H15 H 0.0488 0.2554 0.9999
C8 C -0.0925(3) 0.4033(3) 0.9310(2)
H16 H -0.0491 0.426 0.9784
H17 H -0.1802 0.3838 0.955
H18 H -0.1031 0.4571 0.8888
C9 C 0.1927(3) 0.4501(2) 0.6499(2)
C10 C 0.1059(3) 0.4470(3) 0.5778(2)
H19 H 0.1481 0.3979 0.5336
H20 H 0.0958 0.5126 0.5505
H21 H 0.0181 0.4286 0.6028
C11 C 0.1231(4) 0.5214(2) 0.7213(2)
H22 H 0.0374 0.4988 0.7457
H23 H 0.1081 0.5879 0.6966
H24 H 0.1788 0.5234 0.7676
C12 C 0.3075(3) -0.1610(2) 0.8143(2)
C13 C 0.3284(3) 0.4821(3) 0.6136(2)
H25 H 0.3856 0.4772 0.6594
H26 H 0.3175 0.5509 0.5932
H27 H 0.3694 0.4388 0.5646
C14 C 0.1895(3) -0.0864(3) 0.8468(2)
H28 H 0.2193 -0.0339 0.8798
H29 H 0.1226 -0.1199 0.8848
H30 H 0.1505 -0.0572 0.7969
C15 C 0.2649(4) -0.2439(3) 0.7633(3)
H31 H 0.2202 -0.2155 0.7154
H32 H 0.2035 -0.2812 0.8022
H33 H 0.3434 -0.2885 0.7395
C16 C 0.3747(3) -0.2023(3) 0.8909(2)
H34 H 0.4536 -0.2475 0.869
H35 H 0.3123 -0.2384 0.9301
H36 H 0.4013 -0.1475 0.9227
C17 C 0.6964(3) -0.0358(2) 0.8465(2)
C18 C 0.5999(4) 0.0564(3) 0.8545(3)
H37 H 0.5937 0.0843 0.7963
H38 H 0.631 0.1051 0.8909
H39 H 0.5121 0.0398 0.8815
C19 C 0.8263(4) -0.0160(3) 0.7917(3)
H40 H 0.8878 -0.077 0.7866
H41 H 0.8658 0.0358 0.8196
H42 H 0.8094 0.0061 0.7334
C20 C 0.7206(5) -0.0768(3) 0.9348(3)
H43 H 0.6353 -0.0877 0.9696
H44 H 0.7643 -0.0293 0.9649
H45 H 0.7777 -0.1398 0.927
C21 C 0.7048(3) -0.3143(2) 0.6952(2)
C22 C 0.6729(4) -0.4038(2) 0.6468(2)
H46 H 0.5935 -0.4296 0.6785
H47 H 0.7484 -0.4556 0.6429
H48 H 0.6565 -0.3839 0.5879
C23 C 0.7276(4) -0.3440(3) 0.7878(2)
H49 H 0.7461 -0.2857 0.819
H50 H 0.8036 -0.3951 0.7852
H51 H 0.6478 -0.3701 0.8186
C24 C 0.8245(3) -0.2702(3) 0.6459(2)
H52 H 0.8059 -0.2499 0.5875
H53 H 0.9023 -0.32 0.6406
H54 H 0.8427 -0.2123 0.6777
C25 C 0.0960(3) 0.0293(2) 0.6171(2)
H55 H 0.0745 0.0444 0.6803
H56 H 0.0446 -0.0254 0.6044
C26 C 0.0555(3) 0.1200(2) 0.5655(2)
H57 H 0.0744 0.104 0.5024
H58 H 0.1095 0.1737 0.5766
C27 C -0.0916(3) 0.1567(2) 0.5891(2)
H59 H -0.1097 0.174 0.6519
H60 H -0.1451 0.1022 0.5795
C28 C -0.1364(3) 0.2474(2) 0.5361(2)
H61 H -0.159 0.2243 0.4802
H62 H -0.0613 0.2882 0.5222
C29 C -0.2571(3) 0.3125(2) 0.5836(2)
H63 H -0.234 0.3345 0.6397
H64 H -0.2735 0.3725 0.548
C30 C -0.3865(3) 0.2635(2) 0.6025(2)
H65 H -0.3693 0.2007 0.6345
H66 H -0.453 0.3077 0.641
C31 C -0.4443(3) 0.2412(2) 0.5208(2)
H67 H -0.4495 0.3016 0.4842
H68 H -0.3848 0.1888 0.4866
Cd1 Cd 0.39559(2) 0.086773(16) 0.646315(14)
N1 N 0.2407(3) -0.0032(2) 0.5953(2)
N2 N -0.5793(3) 0.2081(2) 0.54288(18)
O1 O 0.3655(2) 0.37112(16) 0.79531(13)
O2 O 0.11949(19) 0.35040(16) 0.85541(13)
O3 O 0.2115(2) 0.34841(15) 0.68121(13)
O4 O 0.39716(19) -0.10635(15) 0.75433(13)
O5 O 0.6432(2) -0.11418(15) 0.80415(13)
O6 O 0.5875(2) -0.24393(15) 0.69802(14)
S1 S 0.27499(8) 0.15757(6) 0.78314(5)
S2 S 0.60169(7) -0.03215(5) 0.61878(5)
Si1 Si 0.24130(8) 0.31108(6) 0.77906(5)
Si2 Si 0.55832(8) -0.12681(6) 0.72501(5)
H69 H -0.601(3) 0.186(2) 0.494(2)
H70 H 0.262(3) -0.012(3) 0.541(3)
H71 H 0.260(4) -0.064(3) 0.621(3)
H72 H -0.634(4) 0.257(3) 0.563(3)
Cd1_2 Cd -0.60441(2) 0.086773(16) 0.646315(14)
N2_2 N 0.4207(3) 0.2081(2) 0.54288(18)
loop_
_geom_bond_atom_site_label_1
_geom_bond_atom_site_label_2
_geom_bond_site_symmetry_1
_geom_bond_site_symmetry_2
C1 C2 1_555 1_555
C2 H1 1_555 1_555
H2 C2 1_555 1_555
H3 C2 1_555 1_555
C3 C1 1_555 1_555
H4 C3 1_555 1_555
H5 C3 1_555 1_555
H6 C3 1_555 1_555
C4 C1 1_555 1_555
H7 C4 1_555 1_555
H8 C4 1_555 1_555
H9 C4 1_555 1_555
C5 C6 1_555 1_555
C6 H10 1_555 1_555
H11 C6 1_555 1_555
H12 C6 1_555 1_555
C7 C5 1_555 1_555
H13 C7 1_555 1_555
H14 C7 1_555 1_555
H15 C7 1_555 1_555
C8 C5 1_555 1_555
H16 C8 1_555 1_555
H17 C8 1_555 1_555
H18 C8 1_555 1_555
C9 C10 1_555 1_555
C10 H19 1_555 1_555
H20 C10 1_555 1_555
H21 C10 1_555 1_555
C11 C9 1_555 1_555
H22 C11 1_555 1_555
H23 C11 1_555 1_555
H24 C11 1_555 1_555
C12 C14 1_555 1_555
C13 C9 1_555 1_555
H25 C13 1_555 1_555
H26 C13 1_555 1_555
H27 C13 1_555 1_555
C14 H28 1_555 1_555
H29 C14 1_555 1_555
H30 C14 1_555 1_555
C15 C12 1_555 1_555
H31 C15 1_555 1_555
H32 C15 1_555 1_555
H33 C15 1_555 1_555
C16 C12 1_555 1_555
H34 C16 1_555 1_555
H35 C16 1_555 1_555
H36 C16 1_555 1_555
C17 C18 1_555 1_555
C18 H37 1_555 1_555
H38 C18 1_555 1_555
H39 C18 1_555 1_555
C19 C17 1_555 1_555
H40 C19 1_555 1_555
H41 C19 1_555 1_555
H42 C19 1_555 1_555
C20 C17 1_555 1_555
H43 C20 1_555 1_555
H44 C20 1_555 1_555
H45 C20 1_555 1_555
C21 C22 1_555 1_555
C22 H46 1_555 1_555
H47 C22 1_555 1_555
H48 C22 1_555 1_555
C23 C21 1_555 1_555
H49 C23 1_555 1_555
H50 C23 1_555 1_555
H51 C23 1_555 1_555
C24 C21 1_555 1_555
H52 C24 1_555 1_555
H53 C24 1_555 1_555
H54 C24 1_555 1_555
C25 H55 1_555 1_555
H56 C25 1_555 1_555
C26 C25 1_555 1_555
H57 C26 1_555 1_555
H58 C26 1_555 1_555
C27 C26 1_555 1_555
H59 C27 1_555 1_555
H60 C27 1_555 1_555
C28 C27 1_555 1_555
H61 C28 1_555 1_555
H62 C28 1_555 1_555
C29 C28 1_555 1_555
H63 C29 1_555 1_555
H64 C29 1_555 1_555
C30 C29 1_555 1_555
H65 C30 1_555 1_555
H66 C30 1_555 1_555
C31 C30 1_555 1_555
H67 C31 1_555 1_555
H68 C31 1_555 1_555
Cd1 N1 1_555 1_555
N1 C25 1_555 1_555
N2 C31 1_555 1_555
O1 C1 1_555 1_555
O2 C5 1_555 1_555
O3 C9 1_555 1_555
O4 C12 1_555 1_555
O5 C17 1_555 1_555
O6 C21 1_555 1_555
S1 Cd1 1_555 1_555
S2 Cd1 1_555 1_555
Si1 O1 1_555 1_555
Si2 O4 1_555 1_555
H69 N2 1_555 1_555
H70 N1 1_555 1_555
H71 N1 1_555 1_555
H72 N2 1_555 1_555
Cd1_2 N2 1_555 1_555
N2_2 Cd1 1_555 1_555
O2 Si1 1_555 1_555
O3 Si1 1_555 1_555
O5 Si2 1_555 1_555
O6 Si2 1_555 1_555
S1 Si1 1_555 1_555
S2 Si2 1_555 1_555

#END
