
#######################################################################
#
#                 Cambridge Crystallographic Data Centre
#                                CCDC 
#
#######################################################################
#
# If this CIF has been generated from an entry in the Cambridge 
# Structural Database, then it will include bibliographic, chemical, 
# crystal, experimental, refinement or atomic coordinate data resulting 
# from the CCDC's data processing and validation procedures.
#
#######################################################################

data_NEKLOE
_symmetry_cell_setting           monoclinic
_symmetry_space_group_name_H-M   'P 21/c'
_symmetry_Int_Tables_number      14
_space_group_name_Hall           '-P 2ybc'
loop_
_symmetry_equiv_pos_site_id
_symmetry_equiv_pos_as_xyz
1 x,y,z
2 -x,1/2+y,1/2-z
3 -x,-y,-z
4 x,1/2-y,1/2+z
_cell_length_a                   9.619(3)
_cell_length_b                   13.797(5)
_cell_length_c                   7.049(4)
_cell_angle_alpha                90
_cell_angle_beta                 92.13(4)
_cell_angle_gamma                90
_cell_volume                     934.85
loop_
_atom_site_label
_atom_site_type_symbol
_atom_site_fract_x
_atom_site_fract_y
_atom_site_fract_z
Cu1 Cu 0.0000 0.5000 0.0000
N1 N 0.1843(2) 0.56277(13) 0.0021(3)
C1 C 0.2528(2) 0.6127(2) 0.1339(3)
N2 N 0.3791(2) 0.6346(2) 0.0731(3)
H1 H 0.4421(2) 0.6668(2) 0.1356(3)
C2 C 0.3910(3) 0.5981(2) -0.1009(5)
H2 H 0.4683(3) 0.6025(2) -0.1759(5)
C3 C 0.2719(3) 0.5544(2) -0.1462(4)
H3 H 0.2509(3) 0.5230(2) -0.2604(4)
C4 C 0.2042(3) 0.6441(2) 0.3181(4)
H4 H 0.2763(13) 0.6449(14) 0.4035(16)
H5 H 0.1386(19) 0.6026(11) 0.3571(16)
H6 H 0.1676(20) 0.7041(12) 0.3072(7)
N3 N -0.0897(2) 0.62285(13) 0.0906(3)
N4 N -0.0438(2) 0.56660(15) -0.3175(3)
N5 N -0.4241(2) 0.8147(2) -0.1044(4)
C5 C -0.1331(2) 0.6991(2) 0.0736(3)
C6 C -0.1865(2) 0.79195(15) 0.0555(3)
C7 C -0.1096(2) 0.8704(2) 0.1235(3)
C8 C -0.3183(2) 0.8051(2) -0.0322(3)
N1B N -0.1843(2) 0.43723(13) -0.0021(3)
C1B C -0.2528(2) 0.3873(2) -0.1339(3)
N2B N -0.3791(2) 0.3654(2) -0.0731(3)
H1B H -0.4421(2) 0.3332(2) -0.1356(3)
C2B C -0.3910(3) 0.4019(2) 0.1009(5)
H2B H -0.4683(3) 0.3975(2) 0.1759(5)
C3B C -0.2719(3) 0.4456(2) 0.1462(4)
H3B H -0.2509(3) 0.4770(2) 0.2604(4)
C4B C -0.2042(3) 0.3559(2) -0.3181(4)
H4B H -0.2763(13) 0.3551(14) -0.4035(16)
H5B H -0.1386(19) 0.3974(11) -0.3571(16)
H6B H -0.1676(20) 0.2959(12) -0.3072(7)
N4C N -0.0438(2) 0.93340(15) 0.1825(3)
Cu1C Cu 0.0000 1.0000 0.5000
Cu1C_2 Cu 0.0000 0.0000 0.5000
N3A N 0.0897(2) 0.12285(13) 0.4094(3)
C5A C 0.1331(2) 0.1991(2) 0.4264(3)
C6A C 0.1865(2) 0.29195(15) 0.4445(3)
C7A C 0.1096(2) 0.3704(2) 0.3765(3)
N4B N 0.0438(2) 0.43340(15) 0.3175(3)
N3B N 0.0897(2) 0.37715(13) -0.0906(3)
C8A C 0.3183(2) 0.3051(2) 0.5322(3)
N5A N 0.4241(2) 0.3147(2) 0.6044(4)
loop_
_geom_bond_atom_site_label_1
_geom_bond_atom_site_label_2
_geom_bond_site_symmetry_1
_geom_bond_site_symmetry_2
Cu1 N1 1_555 1_555
N1 C1 1_555 1_555
C1 N2 1_555 1_555
N2 H1 1_555 1_555
C2 N2 1_555 1_555
H2 C2 1_555 1_555
C3 N1 1_555 1_555
H3 C3 1_555 1_555
C4 C1 1_555 1_555
H4 C4 1_555 1_555
H5 C4 1_555 1_555
H6 C4 1_555 1_555
N3 Cu1 1_555 1_555
N4 Cu1 1_555 1_555
N5 C8 1_555 1_555
C5 N3 1_555 1_555
C6 C5 1_555 1_555
C7 C6 1_555 1_555
C8 C6 1_555 1_555
N1B Cu1 1_555 1_555
C1B N1B 1_555 1_555
N2B C1B 1_555 1_555
H1B N2B 1_555 1_555
C2B N2B 1_555 1_555
H2B C2B 1_555 1_555
C3B N1B 1_555 1_555
H3B C3B 1_555 1_555
C4B C1B 1_555 1_555
H4B C4B 1_555 1_555
H5B C4B 1_555 1_555
H6B C4B 1_555 1_555
N4C C7 1_555 1_555
Cu1C N4C 1_555 1_555
Cu1C_2 N3A 1_555 1_555
N3A C5A 1_555 1_555
C5A C6A 1_555 1_555
C6A C7A 1_555 1_555
C7A N4B 1_555 1_555
N4B Cu1 1_555 1_555
N3B Cu1 1_555 1_555
C8A C6A 1_555 1_555
N5A C8A 1_555 1_555
C2 C3 1_555 1_555
C2B C3B 1_555 1_555

#END
