
#######################################################################
#
#                 Cambridge Crystallographic Data Centre
#                                CCDC 
#
#######################################################################
#
# If this CIF has been generated from an entry in the Cambridge 
# Structural Database, then it will include bibliographic, chemical, 
# crystal, experimental, refinement or atomic coordinate data resulting 
# from the CCDC's data processing and validation procedures.
#
#######################################################################

data_NEKMIB
_symmetry_cell_setting           orthorhombic
_symmetry_space_group_name_H-M   'P n a 21'
_symmetry_Int_Tables_number      33
_space_group_name_Hall           'P 2c -2n'
loop_
_symmetry_equiv_pos_site_id
_symmetry_equiv_pos_as_xyz
1 x,y,z
2 -x,-y,1/2+z
3 1/2-x,1/2+y,1/2+z
4 1/2+x,1/2-y,z
_cell_length_a                   30.823(5)
_cell_length_b                   4.976(5)
_cell_length_c                   10.190(5)
_cell_angle_alpha                90
_cell_angle_beta                 90
_cell_angle_gamma                90
_cell_volume                     1562.89
loop_
_atom_site_label
_atom_site_type_symbol
_atom_site_fract_x
_atom_site_fract_y
_atom_site_fract_z
Mn1 Mn 0.211142(11) -0.21407(7) 0.24615(5)
O1 O 0.17596(7) -0.4966(4) 0.35767(18)
O2 O 0.21453(6) -0.8735(4) 0.38584(19)
O3 O 0.17239(7) -1.4370(4) 0.7733(2)
O4 O 0.10553(7) -1.4039(4) 0.8490(2)
H1 H 0.1142 -1.5230 0.8980
O5 O 0.03846(6) -0.6363(4) 0.6033(2)
O6 O -0.13965(8) -1.2653(5) 0.5121(2)
O7 O -0.15676(6) -0.9730(4) 0.6662(2)
C1 C 0.18194(9) -0.7245(5) 0.4065(3)
C2 C 0.14724(10) -0.8220(6) 0.4984(3)
C3 C 0.10720(9) -0.6977(5) 0.5043(3)
H2 H 0.1009 -0.5550 0.4484
C4 C 0.07631(9) -0.7860(5) 0.5937(3)
C5 C 0.08463(9) -0.9976(5) 0.6777(3)
H3 H 0.0635 -1.0566 0.7363
C6 C 0.12495(9) -1.1204(5) 0.6733(3)
C7 C 0.13640(9) -1.3354(6) 0.7689(3)
C8 C 0.15574(9) -1.0365(5) 0.5827(3)
H4 H 0.1823 -1.1243 0.5781
C9 C -0.00096(9) -0.7704(5) 0.6061(3)
C10 C -0.03260(10) -0.6654(6) 0.6870(3)
H5 H -0.0262 -0.5242 0.7435
C11 C -0.07397(10) -0.7732(6) 0.6830(3)
H6 H -0.0955 -0.7028 0.7368
C12 C -0.08365(9) -0.9851(5) 0.5994(3)
C13 C -0.12970(9) -1.0821(6) 0.5926(3)
C14 C -0.05094(10) -1.0913(6) 0.5222(3)
H7 H -0.0569 -1.2367 0.4678
C15 C -0.00967(10) -0.9850(7) 0.5248(3)
H8 H 0.0121 -1.0573 0.4722
O8 O 0.21525(8) -0.4944(4) 0.0759(2)
O9 O 0.25581(8) 0.0175(4) 0.1240(2)
O10 O 0.27147(8) -0.3895(5) 0.3284(2)
H9 H 0.2327(10) -0.452(7) 0.017(3)
H10 H 0.2401(12) 0.180(7) 0.118(3)
H11 H 0.2629(14) -0.532(6) 0.359(4)
H12 H 0.1915(7) -0.551(6) 0.051(3)
H13 H 0.2817(12) 0.038(7) 0.164(4)
H14 H 0.2976(7) -0.345(9) 0.337(5)
Mn1_2 Mn 0.211142(11) -1.21407(7) 0.24615(5)
Mn1A Mn -0.211142(11) -0.78593(7) 0.74615(5)
O2_2 O 0.21453(6) 0.1265(4) 0.38584(19)
O7A O 0.15676(6) -0.0270(4) 0.1662(2)
loop_
_geom_bond_atom_site_label_1
_geom_bond_atom_site_label_2
_geom_bond_site_symmetry_1
_geom_bond_site_symmetry_2
Mn1 O1 1_555 1_555
O1 C1 1_555 1_555
O2 C1 1_555 1_555
O3 C7 1_555 1_555
O4 H1 1_555 1_555
O5 C4 1_555 1_555
O6 C13 1_555 1_555
O7 C13 1_555 1_555
C1 C2 1_555 1_555
C2 C3 1_555 1_555
C3 H2 1_555 1_555
C4 C3 1_555 1_555
C5 C4 1_555 1_555
H3 C5 1_555 1_555
C6 C5 1_555 1_555
C7 O4 1_555 1_555
C8 C2 1_555 1_555
H4 C8 1_555 1_555
C9 O5 1_555 1_555
C10 C9 1_555 1_555
H5 C10 1_555 1_555
C11 C10 1_555 1_555
H6 C11 1_555 1_555
C12 C11 1_555 1_555
C13 C12 1_555 1_555
C14 C12 1_555 1_555
H7 C14 1_555 1_555
C15 C9 1_555 1_555
H8 C15 1_555 1_555
O8 Mn1 1_555 1_555
O9 Mn1 1_555 1_555
O10 Mn1 1_555 1_555
H9 O8 1_555 1_555
H10 O9 1_555 1_555
H11 O10 1_555 1_555
H12 O8 1_555 1_555
H13 O9 1_555 1_555
H14 O10 1_555 1_555
Mn1_2 O2 1_555 1_555
Mn1A O7 1_555 1_555
O2_2 Mn1 1_555 1_555
O7A Mn1 1_555 1_555
C6 C7 1_555 1_555
C6 C8 1_555 1_555
C14 C15 1_555 1_555

#END
