
#######################################################################
#
#                 Cambridge Crystallographic Data Centre
#                                CCDC 
#
#######################################################################
#
# If this CIF has been generated from an entry in the Cambridge 
# Structural Database, then it will include bibliographic, chemical, 
# crystal, experimental, refinement or atomic coordinate data resulting 
# from the CCDC's data processing and validation procedures.
#
#######################################################################

data_NEKNOI
_symmetry_cell_setting           triclinic
_symmetry_space_group_name_H-M   'P -1'
_symmetry_Int_Tables_number      2
_space_group_name_Hall           '-P 1'
loop_
_symmetry_equiv_pos_site_id
_symmetry_equiv_pos_as_xyz
1 x,y,z
2 -x,-y,-z
_cell_length_a                   8.7692(18)
_cell_length_b                   11.736(2)
_cell_length_c                   15.474(3)
_cell_angle_alpha                95.84(3)
_cell_angle_beta                 105.41(3)
_cell_angle_gamma                106.62(3)
_cell_volume                     1443.63
loop_
_atom_site_label
_atom_site_type_symbol
_atom_site_fract_x
_atom_site_fract_y
_atom_site_fract_z
Co1 Co 0.74097(4) 0.26539(3) 0.77587(2)
C1 C 1.0541(3) 0.8992(2) 0.69293(16)
H1 H 1.0443 0.8180 0.6789
C2 C 1.1145(3) 0.9790(2) 0.64027(16)
C3 C 1.1281(3) 1.1001(2) 0.66138(16)
H2 H 1.1671 1.1537 0.6257
C4 C 1.0840(3) 1.1417(2) 0.73523(16)
C5 C 1.0204(3) 1.0620(2) 0.78676(16)
H3 H 0.9860 1.0894 0.8345
C6 C 1.0077(3) 0.9398(2) 0.76696(16)
C7 C 1.1565(3) 0.9333(2) 0.55789(16)
C8 C 1.1011(3) 1.2726(2) 0.75637(16)
C9 C 0.9382(3) 0.8600(2) 0.82661(16)
C10 C 1.2765(3) 1.4781(2) 0.76138(18)
C11 C 1.1557(3) 1.5313(2) 0.72930(18)
H4 H 1.0498 1.4819 0.6927
C12 C 1.4680(4) 1.6758(2) 0.8285(2)
H5 H 1.5753 1.7280 0.8602
C13 C 1.4355(3) 1.5519(2) 0.8105(2)
H6 H 1.5201 1.5190 0.8314
C14 C 1.3387(4) 1.7202(2) 0.7987(2)
H7 H 1.3595 1.8030 0.8142
C15 C 0.8595(3) 0.5408(2) 0.82439(17)
H8 H 0.8699 0.5283 0.7662
C16 C 0.9021(3) 0.6595(2) 0.86931(17)
C17 C 0.8866(3) 0.6789(2) 0.95598(17)
H9 H 0.9147 0.7569 0.9886
C18 C 0.8281(3) 0.5785(2) 0.99221(17)
H10 H 0.8150 0.5885 1.0499
C19 C 0.7891(3) 0.4633(2) 0.94318(17)
H11 H 0.7506 0.3972 0.9692
C20 C 1.3114(3) 1.0137(2) 0.45111(16)
C21 C 1.3892(3) 1.1216(2) 0.42832(17)
H12 H 1.4069 1.1950 0.4649
C22 C 1.2852(3) 0.9059(2) 0.39332(15)
H13 H 1.2346 0.8326 0.4081
C23 C 1.4403(3) 1.1201(2) 0.35178(18)
H14 H 1.4959 1.1920 0.3370
C24 C 1.4075(3) 1.0100(2) 0.29744(17)
H15 H 1.4401 1.0090 0.2450
C25 C 0.6309(3) 0.1582(2) 0.88751(15)
C26 C 0.5642(3) 0.0780(2) 0.94729(15)
C27 C 0.6580(3) 0.0117(2) 0.99200(16)
H16 H 0.7635 0.0195 0.9867
C28 C 0.5933(3) -0.0658(2) 1.04426(16)
H17 H 0.6557 -0.1104 1.0741
C29 C 0.5622(3) 0.3440(2) 0.62936(15)
C30 C 0.5303(3) 0.4252(2) 0.56229(15)
C31 C 0.6609(3) 0.4984(2) 0.53786(18)
H18 H 0.7693 0.4975 0.5632
C32 C 0.3696(3) 0.4277(2) 0.52397(18)
H19 H 0.2815 0.3790 0.5401
N1 N 1.1849(3) 1.65062(19) 0.74863(17)
N2 N 0.8043(2) 0.44321(17) 0.85984(13)
N3 N 1.3307(2) 0.90456(17) 0.31707(13)
O1 O 0.7121(2) 0.35025(14) 0.66580(11)
O2 O 0.4398(2) 0.27442(15) 0.64564(12)
O3 O 0.5362(2) 0.20120(15) 0.83344(11)
O4 O 0.7809(2) 0.17937(14) 0.88892(11)
O5 O 1.0947(2) 0.82771(15) 0.51837(12)
O6 O 0.8660(3) 0.89253(16) 0.87632(13)
O7 O 1.00040(19) 1.30938(13) 0.78421(11)
N4 N 1.2650(3) 1.02011(18) 0.53130(14)
H20 H 1.307(3) 1.088(2) 0.5637(19)
N5 N 0.9626(3) 0.75039(18) 0.82224(14)
H21 H 1.308(4) 1.325(2) 0.7324(19)
N6 N 1.2356(3) 1.34995(18) 0.74385(16)
H22 H 1.017(4) 0.735(3) 0.789(2)
Co1A Co 0.25903(4) -0.26539(3) 1.22413(2)
Co1_2 Co -0.25903(4) -0.73461(3) 1.77587(2)
Co1_3 Co 0.74097(4) 1.26539(3) 0.77587(2)
Co1A_2 Co 0.25903(4) -1.26539(3) 1.22413(2)
Co1A_3 Co 0.25903(4) 0.73461(3) 0.22413(2)
Co1A_4 Co 1.25903(4) 0.73461(3) 0.22413(2)
C1A C -0.0541(3) -0.8992(2) 1.30707(16)
H1A H -0.0443 -0.8180 1.3211
C2A C -0.1145(3) -0.9790(2) 1.35973(16)
C3A C -0.1281(3) -1.1001(2) 1.33862(16)
H2A H -0.1671 -1.1537 1.3743
C4A C -0.0840(3) -1.1417(2) 1.26477(16)
C5A C -0.0204(3) -1.0620(2) 1.21324(16)
H3A H 0.0140 -1.0894 1.1655
C6A C -0.0077(3) -0.9398(2) 1.23304(16)
C7A C -0.1565(3) -0.9333(2) 1.44211(16)
C8A C -0.1011(3) -1.2726(2) 1.24363(16)
C9A C 0.0618(3) -0.8600(2) 1.17339(16)
C10A C -0.2765(3) -1.4781(2) 1.23862(18)
C11A C -0.1557(3) -1.5313(2) 1.27070(18)
H4A H -0.0498 -1.4819 1.3073
C12A C -0.4680(4) -1.6758(2) 1.1715(2)
H5A H -0.5753 -1.7280 1.1398
C13A C -0.4355(3) -1.5519(2) 1.1895(2)
H6A H -0.5201 -1.5190 1.1686
C14A C -0.3387(4) -1.7202(2) 1.2013(2)
H7A H -0.3595 -1.8030 1.1858
C15A C 0.1405(3) -0.5408(2) 1.17561(17)
H8A H 0.1301 -0.5283 1.2338
C16A C 0.0979(3) -0.6595(2) 1.13069(17)
C17A C 0.1134(3) -0.6789(2) 1.04402(17)
H9A H 0.0853 -0.7569 1.0114
C18A C 0.1719(3) -0.5785(2) 1.00779(17)
H10A H 0.1850 -0.5885 0.9501
C19A C 0.2109(3) -0.4633(2) 1.05682(17)
H11A H 0.2494 -0.3972 1.0308
C20A C -0.3114(3) -1.0137(2) 1.54889(16)
C21A C -0.3892(3) -1.1216(2) 1.57168(17)
H12A H -0.4069 -1.1950 1.5351
C22A C -0.2852(3) -0.9059(2) 1.60668(15)
H13A H -0.2346 -0.8326 1.5919
C23A C -0.4403(3) -1.1201(2) 1.64822(18)
H14A H -0.4959 -1.1920 1.6630
C24A C -0.4075(3) -1.0100(2) 1.70256(17)
H15A H -0.4401 -1.0090 1.7550
C25A C 0.3691(3) -0.1582(2) 1.11249(15)
C26A C 0.4358(3) -0.0780(2) 1.05271(15)
C27A C 0.3420(3) -0.0117(2) 1.00800(16)
H16A H 0.2365 -0.0195 1.0133
C28A C 0.4067(3) 0.0658(2) 0.95574(16)
H17A H 0.3443 0.1104 0.9259
C29A C 0.4378(3) 0.6560(2) 0.37064(15)
C30A C 0.4697(3) 0.5748(2) 0.43771(15)
C31A C 0.3391(3) 0.5016(2) 0.46214(18)
H18A H 0.2307 0.5025 0.4368
C32A C 0.6304(3) 0.5723(2) 0.47603(18)
H19A H 0.7185 0.6210 0.4599
N1A N -0.1849(3) -1.65062(19) 1.25137(17)
N2A N 0.1957(2) -0.44321(17) 1.14016(13)
N3A N -0.3307(2) -0.90456(17) 1.68293(13)
N3_2 N 0.3307(2) -0.09544(17) 1.31707(13)
N3A_2 N 0.6693(2) 0.09544(17) 0.68293(13)
O1A O 0.2879(2) 0.64975(14) 0.33420(11)
O1A_2 O 0.2879(2) -0.35025(14) 1.33420(11)
O2A O 0.5602(2) 0.72558(15) 0.35436(12)
O3A O 0.4638(2) -0.20120(15) 1.16656(11)
O4A O 0.2191(2) -0.17937(14) 1.11108(11)
O5A O -0.0947(2) -0.82771(15) 1.48163(12)
O6A O 0.1340(3) -0.89253(16) 1.12368(13)
O7A O -0.00040(19) -1.30938(13) 1.21579(11)
O7_2 O 1.00040(19) 0.30938(13) 0.78421(11)
O7A_2 O -0.00040(19) -0.30938(13) 1.21579(11)
N4A N -0.2650(3) -1.02011(18) 1.46870(14)
H20A H -0.307(3) -1.088(2) 1.4363(19)
N5A N 0.0374(3) -0.75039(18) 1.17776(14)
H21A H -0.308(4) -1.325(2) 1.2676(19)
N6A N -0.2356(3) -1.34995(18) 1.25615(16)
H22A H -0.017(4) -0.735(3) 1.211(2)
loop_
_geom_bond_atom_site_label_1
_geom_bond_atom_site_label_2
_geom_bond_site_symmetry_1
_geom_bond_site_symmetry_2
Co1 N2 1_555 1_555
C1 H1 1_555 1_555
C2 C1 1_555 1_555
C3 C2 1_555 1_555
H2 C3 1_555 1_555
C4 C3 1_555 1_555
C5 C4 1_555 1_555
H3 C5 1_555 1_555
C6 C1 1_555 1_555
C7 C2 1_555 1_555
C8 C4 1_555 1_555
C9 C6 1_555 1_555
C10 C11 1_555 1_555
C11 H4 1_555 1_555
C12 H5 1_555 1_555
C13 C10 1_555 1_555
H6 C13 1_555 1_555
C14 C12 1_555 1_555
H7 C14 1_555 1_555
C15 H8 1_555 1_555
C16 C15 1_555 1_555
C17 C16 1_555 1_555
H9 C17 1_555 1_555
C18 C17 1_555 1_555
H10 C18 1_555 1_555
C19 C18 1_555 1_555
H11 C19 1_555 1_555
C20 C21 1_555 1_555
C21 H12 1_555 1_555
C22 C20 1_555 1_555
H13 C22 1_555 1_555
C23 C21 1_555 1_555
H14 C23 1_555 1_555
C24 C23 1_555 1_555
H15 C24 1_555 1_555
C25 C26 1_555 1_555
C26 C27 1_555 1_555
C27 H16 1_555 1_555
C28 C27 1_555 1_555
H17 C28 1_555 1_555
C29 C30 1_555 1_555
C30 C31 1_555 1_555
C31 H18 1_555 1_555
C32 C30 1_555 1_555
H19 C32 1_555 1_555
N1 C11 1_555 1_555
N2 C15 1_555 1_555
N3 C22 1_555 1_555
O1 Co1 1_555 1_555
O2 C29 1_555 1_555
O3 Co1 1_555 1_555
O4 Co1 1_555 1_555
O5 C7 1_555 1_555
O6 C9 1_555 1_555
O7 C8 1_555 1_555
N4 C7 1_555 1_555
H20 N4 1_555 1_555
N5 C9 1_555 1_555
H21 N6 1_555 1_555
N6 C8 1_555 1_555
H22 N5 1_555 1_555
Co1A N2A 1_555 1_555
Co1_2 N3A 1_555 1_555
Co1_3 O7 1_555 1_555
Co1A_2 O7A 1_555 1_555
Co1A_3 O1A 1_555 1_555
Co1A_4 N3 1_555 1_555
C1A H1A 1_555 1_555
C2A C1A 1_555 1_555
C3A C2A 1_555 1_555
H2A C3A 1_555 1_555
C4A C3A 1_555 1_555
C5A C4A 1_555 1_555
H3A C5A 1_555 1_555
C6A C1A 1_555 1_555
C7A C2A 1_555 1_555
C8A C4A 1_555 1_555
C9A C6A 1_555 1_555
C10A C11A 1_555 1_555
C11A H4A 1_555 1_555
C12A H5A 1_555 1_555
C13A C10A 1_555 1_555
H6A C13A 1_555 1_555
C14A C12A 1_555 1_555
H7A C14A 1_555 1_555
C15A H8A 1_555 1_555
C16A C15A 1_555 1_555
C17A C16A 1_555 1_555
H9A C17A 1_555 1_555
C18A C17A 1_555 1_555
H10A C18A 1_555 1_555
C19A C18A 1_555 1_555
H11A C19A 1_555 1_555
C20A C21A 1_555 1_555
C21A H12A 1_555 1_555
C22A C20A 1_555 1_555
H13A C22A 1_555 1_555
C23A C21A 1_555 1_555
H14A C23A 1_555 1_555
C24A C23A 1_555 1_555
H15A C24A 1_555 1_555
C25A C26A 1_555 1_555
C26A C28 1_555 1_555
C27A C26A 1_555 1_555
H16A C27A 1_555 1_555
C28A C26 1_555 1_555
H17A C28A 1_555 1_555
C29A C30A 1_555 1_555
C30A C31A 1_555 1_555
C31A C32 1_555 1_555
H18A C31A 1_555 1_555
C32A C31 1_555 1_555
H19A C32A 1_555 1_555
N1A C11A 1_555 1_555
N2A C15A 1_555 1_555
N3A C22A 1_555 1_555
N3_2 Co1A 1_555 1_555
N3A_2 Co1 1_555 1_555
O1A C29A 1_555 1_555
O1A_2 Co1A 1_555 1_555
O2A C29A 1_555 1_555
O3A Co1A 1_555 1_555
O4A Co1A 1_555 1_555
O5A C7A 1_555 1_555
O6A C9A 1_555 1_555
O7A C8A 1_555 1_555
O7_2 Co1 1_555 1_555
O7A_2 Co1A 1_555 1_555
N4A C7A 1_555 1_555
H20A N4A 1_555 1_555
N5A C9A 1_555 1_555
H21A N6A 1_555 1_555
N6A C8A 1_555 1_555
H22A N5A 1_555 1_555
C5 C6 1_555 1_555
C10 N6 1_555 1_555
C12 C13 1_555 1_555
C14 N1 1_555 1_555
C16 N5 1_555 1_555
C19 N2 1_555 1_555
C20 N4 1_555 1_555
C24 N3 1_555 1_555
C25 O3 1_555 1_555
C25 O4 1_555 1_555
C29 O1 1_555 1_555
C5A C6A 1_555 1_555
C10A N6A 1_555 1_555
C12A C13A 1_555 1_555
C14A N1A 1_555 1_555
C16A N5A 1_555 1_555
C19A N2A 1_555 1_555
C20A N4A 1_555 1_555
C24A N3A 1_555 1_555
C25A O3A 1_555 1_555
C25A O4A 1_555 1_555
C27A C28A 1_555 1_555
C30A C32A 1_555 1_555

#END
