
#######################################################################
#
#                 Cambridge Crystallographic Data Centre
#                                CCDC 
#
#######################################################################
#
# If this CIF has been generated from an entry in the Cambridge 
# Structural Database, then it will include bibliographic, chemical, 
# crystal, experimental, refinement or atomic coordinate data resulting 
# from the CCDC's data processing and validation procedures.
#
#######################################################################

data_NEKNEW
_symmetry_cell_setting           monoclinic
_symmetry_space_group_name_H-M   'P 21/c'
_symmetry_Int_Tables_number      14
_space_group_name_Hall           '-P 2ybc'
loop_
_symmetry_equiv_pos_site_id
_symmetry_equiv_pos_as_xyz
1 x,y,z
2 -x,1/2+y,1/2-z
3 -x,-y,-z
4 x,1/2-y,1/2+z
_cell_length_a                   9.690(8)
_cell_length_b                   10.28(1)
_cell_length_c                   21.48(2)
_cell_angle_alpha                90
_cell_angle_beta                 96.55(9)
_cell_angle_gamma                90
_cell_volume                     2125.73
loop_
_atom_site_label
_atom_site_type_symbol
_atom_site_fract_x
_atom_site_fract_y
_atom_site_fract_z
Sn1 Sn 0.09141(4) 0.30840(3) 0.25493(2)
O1 O 0.2105(4) 0.4760(3) 0.2935(2)
O2 O -0.0429(4) 0.1222(3) 0.2253(2)
O3 O 0.3481(4) 0.7878(4) 0.4709(2)
C1 C 0.1538(6) 0.5834(5) 0.3053(2)
C2 C 0.2210(6) 0.6599(5) 0.3582(3)
C3 C 0.3379(6) 0.6237(5) 0.3908(3)
C4 C 0.4100(6) 0.6865(6) 0.4447(3)
C5 C 0.4390(7) 0.8257(7) 0.5211(3)
C6 C 0.5489(8) 0.7551(8) 0.5273(4)
C7 C 0.5302(7) 0.6642(7) 0.4788(4)
C8 C 0.1044(5) 0.3560(5) 0.1599(2)
C9 C 0.1154(6) 0.4822(5) 0.1394(3)
C10 C 0.1370(7) 0.5089(6) 0.0778(3)
C11 C 0.1490(7) 0.4094(8) 0.0372(3)
C12 C 0.1400(8) 0.2833(7) 0.0568(3)
C13 C 0.1171(6) 0.2571(6) 0.1176(3)
C14 C 0.2565(5) 0.1816(5) 0.2873(2)
C15 C 0.2441(6) 0.0900(6) 0.3335(3)
C16 C 0.3521(9) 0.0067(6) 0.3532(3)
C17 C 0.4735(8) 0.0129(7) 0.3269(4)
C18 C 0.4881(7) 0.1015(8) 0.2806(4)
C19 C 0.3809(6) 0.1855(7) 0.2620(3)
C20 C -0.0570(5) 0.3438(4) 0.3179(3)
C21 C -0.0114(6) 0.3604(6) 0.3808(3)
C22 C -0.1039(9) 0.3856(6) 0.4242(3)
C23 C -0.2420(9) 0.3930(6) 0.4051(4)
C24 C -0.2892(7) 0.3770(7) 0.3429(4)
C25 C -0.1983(6) 0.3532(6) 0.2993(3)
H1 H 0.1775 0.7402 0.3693
H2 H 0.3809 0.5463 0.3765
H3 H 0.4222 0.8978 0.5485
H4 H 0.6275 0.7632 0.5591
H5 H 0.5946 0.5952 0.4715
H6 H 0.1094 0.5533 0.1685
H7 H 0.1431 0.5971 0.0638
H8 H 0.1626 0.4285 -0.0059
H9 H 0.1501 0.2123 0.0279
H10 H 0.1100 0.1673 0.1309
H11 H 0.1584 0.0830 0.3518
H12 H 0.3416 -0.0539 0.3866
H13 H 0.5479 -0.0484 0.3406
H14 H 0.5746 0.1067 0.2613
H15 H 0.3928 0.2490 0.2297
H16 H 0.0872 0.3563 0.3947
H17 H -0.0696 0.3953 0.4682
H18 H -0.3074 0.4110 0.4352
H19 H -0.3882 0.3834 0.3292
H20 H -0.2333 0.3415 0.2556
O2A O 0.0429(4) 0.6222(3) 0.2747(2)
Sn1A Sn -0.09141(4) 0.80840(3) 0.24507(2)
loop_
_geom_bond_atom_site_label_1
_geom_bond_atom_site_label_2
_geom_bond_site_symmetry_1
_geom_bond_site_symmetry_2
Sn1 O1 1_555 1_555
O1 C1 1_555 1_555
O2 Sn1 1_555 1_555
O3 C4 1_555 1_555
C1 C2 1_555 1_555
C2 C3 1_555 1_555
C3 C4 1_555 1_555
C4 C7 1_555 1_555
C5 O3 1_555 1_555
C6 C5 1_555 1_555
C7 C6 1_555 1_555
C8 Sn1 1_555 1_555
C9 C8 1_555 1_555
C10 C9 1_555 1_555
C11 C10 1_555 1_555
C12 C11 1_555 1_555
C13 C8 1_555 1_555
C14 Sn1 1_555 1_555
C15 C14 1_555 1_555
C16 C15 1_555 1_555
C17 C16 1_555 1_555
C18 C17 1_555 1_555
C19 C14 1_555 1_555
C20 Sn1 1_555 1_555
C21 C20 1_555 1_555
C22 C21 1_555 1_555
C23 C22 1_555 1_555
C24 C23 1_555 1_555
C25 C20 1_555 1_555
H1 C2 1_555 1_555
H2 C3 1_555 1_555
H3 C5 1_555 1_555
H4 C6 1_555 1_555
H5 C7 1_555 1_555
H6 C9 1_555 1_555
H7 C10 1_555 1_555
H8 C11 1_555 1_555
H9 C12 1_555 1_555
H10 C13 1_555 1_555
H11 C15 1_555 1_555
H12 C16 1_555 1_555
H13 C17 1_555 1_555
H14 C18 1_555 1_555
H15 C19 1_555 1_555
H16 C21 1_555 1_555
H17 C22 1_555 1_555
H18 C23 1_555 1_555
H19 C24 1_555 1_555
H20 C25 1_555 1_555
O2A C1 1_555 1_555
Sn1A O2A 1_555 1_555
C12 C13 1_555 1_555
C18 C19 1_555 1_555
C24 C25 1_555 1_555

#END
