
#######################################################################
#
#                 Cambridge Crystallographic Data Centre
#                                CCDC 
#
#######################################################################
#
# If this CIF has been generated from an entry in the Cambridge 
# Structural Database, then it will include bibliographic, chemical, 
# crystal, experimental, refinement or atomic coordinate data resulting 
# from the CCDC's data processing and validation procedures.
#
#######################################################################

data_NEKNUO
_symmetry_cell_setting           triclinic
_symmetry_space_group_name_H-M   'P -1'
_symmetry_Int_Tables_number      2
_space_group_name_Hall           '-P 1'
loop_
_symmetry_equiv_pos_site_id
_symmetry_equiv_pos_as_xyz
1 x,y,z
2 -x,-y,-z
_cell_length_a                   8.6957(17)
_cell_length_b                   11.849(2)
_cell_length_c                   16.089(3)
_cell_angle_alpha                97.21(3)
_cell_angle_beta                 104.71(3)
_cell_angle_gamma                108.56(3)
_cell_volume                     1481.03
loop_
_atom_site_label
_atom_site_type_symbol
_atom_site_fract_x
_atom_site_fract_y
_atom_site_fract_z
Cd1 Cd 0.23045(2) 0.275612(14) 0.270590(11)
C1 C 0.1000(3) 0.36561(19) 0.12864(14)
C2 C 0.0479(3) 0.4357(2) 0.06233(15)
C3 C -0.1179(3) 0.4337(2) 0.03599(17)
H1 H -0.1976 0.3891 0.0601
C4 C 0.1656(3) 0.5025(2) 0.02584(17)
H2 H 0.2770 0.5044 0.0430
C5 C 0.1210(3) 0.1581(2) 0.38873(15)
C6 C 0.0598(3) 0.0779(2) 0.44763(14)
C7 C -0.0976(3) 0.0628(2) 0.46029(15)
H3 H -0.1630 0.1048 0.4336
C8 C 0.1575(3) 0.0147(2) 0.48744(15)
H4 H 0.2625 0.0243 0.4791
C9 C 0.6260(3) 0.2996(2) 0.25743(15)
C10 C 0.7947(3) 0.5087(2) 0.25991(16)
C11 C 0.6702(3) 0.5560(2) 0.22883(17)
H5 H 0.5638 0.5027 0.1917
C12 C 0.9857(3) 0.7118(2) 0.3308(2)
H6 H 1.0937 0.7676 0.3637
C13 C 0.8522(3) 0.7499(2) 0.30117(19)
H7 H 0.8714 0.8325 0.3177
C14 C 0.9551(3) 0.5873(2) 0.31025(19)
H8 H 1.0419 0.5581 0.3304
C15 C 0.5261(3) -0.0325(2) 0.26469(15)
C16 C 0.5437(3) 0.0894(2) 0.28487(15)
H9 H 0.5133 0.1180 0.3324
C17 C 0.5681(3) -0.0754(2) 0.19196(15)
H10 H 0.5561 -0.1570 0.1781
C18 C 0.6276(3) 0.0029(2) 0.14008(15)
C19 C 0.6463(3) 0.1247(2) 0.16182(15)
H11 H 0.6860 0.1774 0.1273
C20 C 0.6063(3) 0.1689(2) 0.23442(15)
C21 C 0.4600(3) -0.1108(2) 0.32416(15)
C22 C 0.6619(3) -0.0472(2) 0.05895(15)
C23 C 0.8183(3) 0.0263(2) -0.04592(15)
C24 C 0.7877(3) -0.0845(2) -0.10030(15)
H12 H 0.7339 -0.1568 -0.0853
C25 C 0.9010(3) 0.1331(2) -0.06867(17)
H13 H 0.9225 0.2086 -0.0338
C26 C 0.3644(3) -0.4321(2) 0.31858(16)
H14 H 0.3679 -0.4479 0.2611
C27 C 0.4152(3) -0.3112(2) 0.36203(15)
C28 C 0.4100(3) -0.2871(2) 0.44768(16)
H15 H 0.4430 -0.2074 0.4792
C29 C 0.3057(3) -0.5033(2) 0.43696(16)
H16 H 0.2683 -0.5681 0.4631
C30 C 0.3543(3) -0.3854(2) 0.48465(17)
H17 H 0.3494 -0.3722 0.5420
C31 C 0.9512(4) 0.1267(2) -0.14317(18)
H18 H 1.0092 0.1975 -0.1585
C32 C 0.9140(3) 0.0136(2) -0.19443(16)
H19 H 0.9459 0.0092 -0.2454
N1 N 0.6964(3) 0.67516(18) 0.24999(15)
N2 N 0.3108(2) -0.52711(17) 0.35446(13)
N3 N 0.8337(2) -0.09006(16) -0.17379(12)
O1 O 0.2722(2) 0.18208(14) 0.38717(11)
O2 O 0.0194(2) 0.19635(16) 0.34038(11)
O3 O 0.2506(2) 0.36862(14) 0.14943(10)
O4 O -0.0091(2) 0.30652(15) 0.16167(11)
O5 O 0.53067(19) 0.33246(13) 0.29166(10)
O6 O 0.5928(2) -0.15429(15) 0.02084(12)
O7 O 0.3977(2) -0.07440(15) 0.37670(12)
N4 N 0.7561(3) 0.38042(18) 0.23978(14)
H20 H 0.830(4) 0.360(2) 0.2285(18)
N5 N 0.4732(3) -0.22246(17) 0.31521(13)
H21 H 0.525(3) -0.241(2) 0.2814(18)
N6 N 0.7740(3) 0.03827(19) 0.03208(13)
H22 H 0.825(3) 0.106(2) 0.0647(18)
Cd1A Cd -0.23045(2) -0.275612(14) 0.729410(11)
Cd1_2 Cd -0.76955(2) 0.275612(14) 1.270590(11)
Cd1_3 Cd 0.23045(2) -0.724388(14) 0.270590(11)
Cd1A_2 Cd -0.23045(2) 0.724388(14) -0.270590(11)
Cd1A_3 Cd -0.23045(2) 0.724388(14) 0.729410(11)
Cd1A_4 Cd 0.76955(2) -0.275612(14) -0.270590(11)
C1A C -0.1000(3) 0.63439(19) -0.12864(14)
C1A_2 C -0.1000(3) -0.36561(19) 0.87136(14)
C2A C -0.0479(3) 0.5643(2) -0.06233(15)
C3A C 0.1179(3) 0.5663(2) -0.03599(17)
H1A H 0.1976 0.6109 -0.0601
C4A C -0.1656(3) 0.4975(2) -0.02584(17)
H2A H -0.2770 0.4956 -0.0430
C5A C -0.1210(3) -0.1581(2) 0.61127(15)
C6A C -0.0598(3) -0.0779(2) 0.55237(14)
C7A C 0.0976(3) -0.0628(2) 0.53971(15)
H3A H 0.1630 -0.1048 0.5664
C8A C -0.1575(3) -0.0147(2) 0.51256(15)
H4A H -0.2625 -0.0243 0.5209
C9A C -0.6260(3) -0.2996(2) 0.74257(15)
C10A C -0.7947(3) -0.5087(2) 0.74009(16)
C11A C -0.6702(3) -0.5560(2) 0.77117(17)
H5A H -0.5638 -0.5027 0.8083
C12A C -0.9857(3) -0.7118(2) 0.6692(2)
H6A H -1.0937 -0.7676 0.6363
C13A C -0.8522(3) -0.7499(2) 0.69883(19)
H7A H -0.8714 -0.8325 0.6823
C14A C -0.9551(3) -0.5873(2) 0.68975(19)
H8A H -1.0419 -0.5581 0.6696
C15A C -0.5261(3) 0.0325(2) 0.73531(15)
C16A C -0.5437(3) -0.0894(2) 0.71513(15)
H9A H -0.5133 -0.1180 0.6676
C17A C -0.5681(3) 0.0754(2) 0.80804(15)
H10A H -0.5561 0.1570 0.8219
C18A C -0.6276(3) -0.0029(2) 0.85992(15)
C19A C -0.6463(3) -0.1247(2) 0.83818(15)
H11A H -0.6860 -0.1774 0.8727
C20A C -0.6063(3) -0.1689(2) 0.76558(15)
C21A C -0.4600(3) 0.1108(2) 0.67584(15)
C22A C -0.6619(3) 0.0472(2) 0.94105(15)
C23A C -0.8183(3) -0.0263(2) 1.04592(15)
C24A C -0.7877(3) 0.0845(2) 1.10030(15)
H12A H -0.7339 0.1568 1.0853
C25A C -0.9010(3) -0.1331(2) 1.06867(17)
H13A H -0.9225 -0.2086 1.0338
C26A C -0.3644(3) 0.4321(2) 0.68142(16)
H14A H -0.3679 0.4479 0.7389
C27A C -0.4152(3) 0.3112(2) 0.63797(15)
C28A C -0.4100(3) 0.2871(2) 0.55232(16)
H15A H -0.4430 0.2074 0.5208
C29A C -0.3057(3) 0.5033(2) 0.56304(16)
H16A H -0.2683 0.5681 0.5369
C30A C -0.3543(3) 0.3854(2) 0.51535(17)
H17A H -0.3494 0.3722 0.4580
C31A C -0.9512(4) -0.1267(2) 1.14317(18)
H18A H -1.0092 -0.1975 1.1585
C32A C -0.9140(3) -0.0136(2) 1.19443(16)
H19A H -0.9459 -0.0092 1.2454
N1A N -0.6964(3) -0.67516(18) 0.75001(15)
N2A N -0.3108(2) 0.52711(17) 0.64554(13)
N2_2 N 0.3108(2) 0.47289(17) 0.35446(13)
N2A_2 N -0.3108(2) -0.47289(17) 0.64554(13)
N3A N -0.8337(2) 0.09006(16) 1.17379(12)
N3_2 N -0.1663(2) -0.09006(16) 0.82621(12)
N3A_2 N 0.1663(2) 0.09006(16) 0.17379(12)
O1A O -0.2722(2) -0.18208(14) 0.61283(11)
O2A O -0.0194(2) -0.19635(16) 0.65962(11)
O3A O -0.2506(2) 0.63138(14) -0.14943(10)
O3A_2 O -0.2506(2) -0.36862(14) 0.85057(10)
O4A O 0.0091(2) 0.69348(15) -0.16167(11)
O4A_2 O 0.0091(2) -0.30652(15) 0.83833(11)
O5A O -0.53067(19) -0.33246(13) 0.70834(10)
O6A O -0.5928(2) 0.15429(15) 0.97916(12)
O7A O -0.3977(2) 0.07440(15) 0.62330(12)
N4A N -0.7561(3) -0.38042(18) 0.76022(14)
H20A H -0.830(4) -0.360(2) 0.7715(18)
N5A N -0.4732(3) 0.22246(17) 0.68479(13)
H21A H -0.525(3) 0.241(2) 0.7186(18)
N6A N -0.7740(3) -0.03827(19) 0.96792(13)
H22A H -0.825(3) -0.106(2) 0.9353(18)
O8 O 0.4755(17) 0.3930(10) 0.0340(11)
O9 O 0.083(3) -0.363(2) 0.5635(15)
loop_
_geom_bond_atom_site_label_1
_geom_bond_atom_site_label_2
_geom_bond_site_symmetry_1
_geom_bond_site_symmetry_2
Cd1 O1 1_555 1_555
C1 C2 1_555 1_555
C2 C3 1_555 1_555
C3 H1 1_555 1_555
C4 C2 1_555 1_555
H2 C4 1_555 1_555
C5 C6 1_555 1_555
C6 C7 1_555 1_555
C7 H3 1_555 1_555
C8 C6 1_555 1_555
H4 C8 1_555 1_555
C9 C20 1_555 1_555
C10 C11 1_555 1_555
C11 H5 1_555 1_555
C12 H6 1_555 1_555
C13 C12 1_555 1_555
H7 C13 1_555 1_555
C14 C10 1_555 1_555
H8 C14 1_555 1_555
C15 C16 1_555 1_555
C16 H9 1_555 1_555
C17 C15 1_555 1_555
H10 C17 1_555 1_555
C18 C17 1_555 1_555
C19 C18 1_555 1_555
H11 C19 1_555 1_555
C20 C16 1_555 1_555
C21 C15 1_555 1_555
C22 C18 1_555 1_555
C23 C24 1_555 1_555
C24 H12 1_555 1_555
C25 C23 1_555 1_555
H13 C25 1_555 1_555
C26 H14 1_555 1_555
C27 C26 1_555 1_555
C28 C27 1_555 1_555
H15 C28 1_555 1_555
C29 H16 1_555 1_555
C30 C28 1_555 1_555
H17 C30 1_555 1_555
C31 C25 1_555 1_555
H18 C31 1_555 1_555
C32 C31 1_555 1_555
H19 C32 1_555 1_555
N1 C11 1_555 1_555
N2 C26 1_555 1_555
N3 C24 1_555 1_555
O1 C5 1_555 1_555
O2 Cd1 1_555 1_555
O3 Cd1 1_555 1_555
O4 Cd1 1_555 1_555
O5 Cd1 1_555 1_555
O6 C22 1_555 1_555
O7 C21 1_555 1_555
N4 C9 1_555 1_555
H20 N4 1_555 1_555
N5 C21 1_555 1_555
H21 N5 1_555 1_555
N6 C22 1_555 1_555
H22 N6 1_555 1_555
Cd1A N2A_2 1_555 1_555
Cd1_2 N3A 1_555 1_555
Cd1_3 N2 1_555 1_555
Cd1A_2 O3A 1_555 1_555
Cd1A_3 N2A 1_555 1_555
Cd1A_4 N3 1_555 1_555
C1A C2A 1_555 1_555
C1A_2 O3A_2 1_555 1_555
C2A C3A 1_555 1_555
C3A C4 1_555 1_555
H1A C3A 1_555 1_555
C4A C3 1_555 1_555
H2A C4A 1_555 1_555
C5A C6A 1_555 1_555
C6A C7A 1_555 1_555
C7A C8 1_555 1_555
H3A C7A 1_555 1_555
C8A C7 1_555 1_555
H4A C8A 1_555 1_555
C9A C20A 1_555 1_555
C10A C11A 1_555 1_555
C11A H5A 1_555 1_555
C12A H6A 1_555 1_555
C13A C12A 1_555 1_555
H7A C13A 1_555 1_555
C14A C10A 1_555 1_555
H8A C14A 1_555 1_555
C15A C16A 1_555 1_555
C16A H9A 1_555 1_555
C17A C15A 1_555 1_555
H10A C17A 1_555 1_555
C18A C17A 1_555 1_555
C19A C18A 1_555 1_555
H11A C19A 1_555 1_555
C20A C16A 1_555 1_555
C21A C15A 1_555 1_555
C22A C18A 1_555 1_555
C23A C24A 1_555 1_555
C24A H12A 1_555 1_555
C25A C23A 1_555 1_555
H13A C25A 1_555 1_555
C26A H14A 1_555 1_555
C27A C26A 1_555 1_555
C28A C27A 1_555 1_555
H15A C28A 1_555 1_555
C29A H16A 1_555 1_555
C30A C28A 1_555 1_555
H17A C30A 1_555 1_555
C31A C25A 1_555 1_555
H18A C31A 1_555 1_555
C32A C31A 1_555 1_555
H19A C32A 1_555 1_555
N1A C11A 1_555 1_555
N2A C26A 1_555 1_555
N2_2 Cd1 1_555 1_555
N3A C24A 1_555 1_555
N3_2 Cd1A 1_555 1_555
N3A_2 Cd1 1_555 1_555
O1A Cd1A 1_555 1_555
O2A Cd1A 1_555 1_555
O3A C1A 1_555 1_555
O3A_2 Cd1A 1_555 1_555
O4A Cd1A_2 1_555 1_555
O4A_2 Cd1A 1_555 1_555
O5A Cd1A 1_555 1_555
O6A C22A 1_555 1_555
O7A C21A 1_555 1_555
N4A C9A 1_555 1_555
H20A N4A 1_555 1_555
N5A C21A 1_555 1_555
H21A N5A 1_555 1_555
N6A C22A 1_555 1_555
H22A N6A 1_555 1_555
C1 O3 1_555 1_555
C1 O4 1_555 1_555
C5 O2 1_555 1_555
C9 O5 1_555 1_555
C10 N4 1_555 1_555
C12 C14 1_555 1_555
C13 N1 1_555 1_555
C19 C20 1_555 1_555
C23 N6 1_555 1_555
C27 N5 1_555 1_555
C29 C30 1_555 1_555
C29 N2 1_555 1_555
C32 N3 1_555 1_555
C1A O4A 1_555 1_555
C1A_2 O4A_2 1_555 1_555
C2A C4A 1_555 1_555
C5A O1A 1_555 1_555
C5A O2A 1_555 1_555
C6A C8A 1_555 1_555
C9A O5A 1_555 1_555
C10A N4A 1_555 1_555
C12A C14A 1_555 1_555
C13A N1A 1_555 1_555
C19A C20A 1_555 1_555
C23A N6A 1_555 1_555
C27A N5A 1_555 1_555
C29A C30A 1_555 1_555
C29A N2A 1_555 1_555
C32A N3A 1_555 1_555

#END
