
#######################################################################
#
#                 Cambridge Crystallographic Data Centre
#                                CCDC 
#
#######################################################################
#
# If this CIF has been generated from an entry in the Cambridge 
# Structural Database, then it will include bibliographic, chemical, 
# crystal, experimental, refinement or atomic coordinate data resulting 
# from the CCDC's data processing and validation procedures.
#
#######################################################################

data_NEKPUQ
_symmetry_cell_setting           orthorhombic
_symmetry_space_group_name_H-M   'P c c n'
_symmetry_Int_Tables_number      56
_space_group_name_Hall           '-P 2ab 2ac'
loop_
_symmetry_equiv_pos_site_id
_symmetry_equiv_pos_as_xyz
1 x,y,z
2 1/2-x,1/2-y,z
3 -x,1/2+y,1/2-z
4 1/2+x,-y,1/2-z
5 -x,-y,-z
6 1/2+x,1/2+y,-z
7 x,1/2-y,1/2+z
8 1/2-x,y,1/2+z
_cell_length_a                   7.6056(14)
_cell_length_b                   10.486(2)
_cell_length_c                   22.851(4)
_cell_angle_alpha                90
_cell_angle_beta                 90
_cell_angle_gamma                90
_cell_volume                     1822.42
loop_
_atom_site_label
_atom_site_type_symbol
_atom_site_fract_x
_atom_site_fract_y
_atom_site_fract_z
Co1 Co 0.2500 0.2500 0.30241(3)
N1 N 0.2500 0.2500 0.3966(2)
N2 N 0.2500 0.2500 0.7066(2)
C1 C 0.1915(6) 0.1495(5) 0.42704(19)
H1 H 0.1509 0.0787 0.4066
C2 C 0.1887(6) 0.1461(5) 0.48783(18)
H2 H 0.1461 0.0746 0.5073
C3 C 0.2500 0.2500 0.5191(3)
C4 C 0.2500 0.2500 0.5841(3)
C5 C 0.1107(8) 0.2024(7) 0.6160(2)
H3 H 0.0144 0.1673 0.5968
C6 C 0.1142(8) 0.2066(7) 0.6761(2)
H4 H 0.0162 0.1776 0.6964
C7 C -0.1357(5) 0.3657(4) 0.31125(17)
C8 C -0.1530(6) 0.3586(4) 0.42137(19)
C9 C -0.2015(6) 0.3055(5) 0.47407(19)
H5 H -0.1693 0.3440 0.5091
O1 O 0.1017(4) 0.0809(3) 0.29964(13)
O2 O 0.0266(4) 0.3704(3) 0.30173(13)
C10 C -0.1977(5) 0.3048(4) 0.36793(17)
O3 O -0.2501(4) 0.4086(4) 0.27743(16)
F1 F -0.0613(8) 0.4676(6) 0.4226(3)
H6 H 0.1397 0.0218 0.2792
H7 H -0.0190 0.0816 0.2927
Co1_2 Co -0.7500 0.2500 0.30241(3)
Co1F Co 0.2500 0.2500 0.80241(3)
N2F N 0.2500 0.2500 0.2066(2)
C1A C 0.3085(6) 0.3505(5) 0.42704(19)
H1A H 0.3491 0.4213 0.4066
C2A C 0.3113(6) 0.3539(5) 0.48783(18)
H2A H 0.3539 0.4254 0.5073
C5A C 0.3893(8) 0.2976(7) 0.6160(2)
H3A H 0.4856 0.3327 0.5968
C6A C 0.3858(8) 0.2934(7) 0.6761(2)
H4A H 0.4838 0.3224 0.6964
C7A C -0.3643(5) 0.1343(4) 0.31125(17)
C8A C -0.3470(6) 0.1414(4) 0.42137(19)
C9A C -0.2985(6) 0.1945(5) 0.47407(19)
H5A H -0.3307 0.1560 0.5091
O1A O 0.3983(4) 0.4191(3) 0.29964(13)
O2A O -0.5266(4) 0.1296(3) 0.30173(13)
O2A_2 O 0.4734(4) 0.1296(3) 0.30173(13)
C10A C -0.3023(5) 0.1952(4) 0.36793(17)
O3A O -0.2499(4) 0.0914(4) 0.27743(16)
F1A F -0.4387(8) 0.0324(6) 0.4226(3)
H6A H 0.3603 0.4782 0.2792
H7A H 0.5190 0.4184 0.2927
O4 O 0.191(3) 0.619(2) 0.3628(15)
loop_
_geom_bond_atom_site_label_1
_geom_bond_atom_site_label_2
_geom_bond_site_symmetry_1
_geom_bond_site_symmetry_2
Co1 N1 1_555 1_555
N1 C1 1_555 1_555
N2 C6 1_555 1_555
C1 H1 1_555 1_555
C2 C1 1_555 1_555
H2 C2 1_555 1_555
C3 C2 1_555 1_555
C4 C3 1_555 1_555
C5 C4 1_555 1_555
H3 C5 1_555 1_555
C6 C5 1_555 1_555
H4 C6 1_555 1_555
C7 O2 1_555 1_555
C8 C9 1_555 1_555
C9 H5 1_555 1_555
O1 Co1 1_555 1_555
O2 Co1 1_555 1_555
C10 C7 1_555 1_555
O3 C7 1_555 1_555
F1 C8 1_555 1_555
H6 O1 1_555 1_555
H7 O1 1_555 1_555
Co1_2 O2A 1_555 1_555
Co1F N2 1_555 1_555
N2F Co1 1_555 1_555
C1A N1 1_555 1_555
H1A C1A 1_555 1_555
C2A C3 1_555 1_555
H2A C2A 1_555 1_555
C5A C4 1_555 1_555
H3A C5A 1_555 1_555
C6A N2 1_555 1_555
H4A C6A 1_555 1_555
C7A O2A 1_555 1_555
C8A C9A 1_555 1_555
C9A C9 1_555 1_555
H5A C9A 1_555 1_555
O1A Co1 1_555 1_555
O2A_2 Co1 1_555 1_555
C10A C10 1_555 1_555
O3A C7A 1_555 1_555
F1A C8A 1_555 1_555
H6A O1A 1_555 1_555
H7A O1A 1_555 1_555
C8 C10 1_555 1_555
C1A C2A 1_555 1_555
C5A C6A 1_555 1_555
C7A C10A 1_555 1_555
C8A C10A 1_555 1_555

#END
