
#######################################################################
#
#                 Cambridge Crystallographic Data Centre
#                                CCDC 
#
#######################################################################
#
# If this CIF has been generated from an entry in the Cambridge 
# Structural Database, then it will include bibliographic, chemical, 
# crystal, experimental, refinement or atomic coordinate data resulting 
# from the CCDC's data processing and validation procedures.
#
#######################################################################

data_NEKPOK
_symmetry_cell_setting           triclinic
_symmetry_space_group_name_H-M   'P -1'
_symmetry_Int_Tables_number      2
_space_group_name_Hall           '-P 1'
loop_
_symmetry_equiv_pos_site_id
_symmetry_equiv_pos_as_xyz
1 x,y,z
2 -x,-y,-z
_cell_length_a                   8.9935(5)
_cell_length_b                   11.0788(10)
_cell_length_c                   11.1233(6)
_cell_angle_alpha                102.346(4)
_cell_angle_beta                 111.175(3)
_cell_angle_gamma                107.926(4)
_cell_volume                     914.949
loop_
_atom_site_label
_atom_site_type_symbol
_atom_site_fract_x
_atom_site_fract_y
_atom_site_fract_z
Zn1 Zn 0.16151(3) 0.35099(3) -0.02556(3)
O1 O 0.0412(2) 0.30623(18) 0.09122(19)
N1 N -0.0869(3) 0.2017(2) -0.2023(2)
C1 C -0.1805(3) 0.5019(3) 0.1792(3)
F1 F 0.0598(4) 0.1967(3) 0.3390(3)
O2 O 0.2303(3) 0.4783(3) 0.2940(2)
N2 N 0.2838(3) 0.2185(2) -0.0222(2)
C2 C -0.1630(3) 0.4103(2) 0.2608(3)
O3 O -0.1075(2) 0.50708(19) 0.1021(2)
C3 C -0.2652(4) 0.3855(3) 0.3285(3)
H1 H -0.3403 0.4280 0.3257
O4 O -0.2686(3) 0.5683(2) 0.1875(3)
C4 C -0.2562(6) 0.2981(4) 0.4003(4)
H2 H -0.3230 0.2840 0.4475
O5 O 0.3946(2) 0.5138(2) 0.1444(2)
C5 C -0.1510(7) 0.2329(5) 0.4024(5)
H3 H -0.1471 0.1720 0.4482
C6 C -0.0497(5) 0.2591(4) 0.3349(4)
C7 C -0.0484(3) 0.3484(3) 0.2661(3)
C8 C 0.0856(3) 0.3821(3) 0.2120(3)
C9 C -0.2200(3) 0.2384(3) -0.2290(3)
H4 H -0.2026 0.3188 -0.1673
C10 C -0.3824(3) 0.1627(3) -0.3438(3)
H5 H -0.4703 0.1935 -0.3586
C11 C -0.4146(3) 0.0413(2) -0.4368(2)
C12 C -0.2762(5) 0.0023(3) -0.4065(3)
H6 H -0.2913 -0.0796 -0.4642
C13 C -0.1173(5) 0.0844(3) -0.2914(3)
H7 H -0.0264 0.0569 -0.2748
C14 C 0.2448(5) 0.1207(4) 0.0269(5)
H8 H 0.1595 0.1110 0.0572
C15 C 0.3245(6) 0.0328(4) 0.0352(6)
H9 H 0.2902 -0.0357 0.0684
C16 C 0.4538(3) 0.0452(2) -0.0050(3)
C17 C 0.4975(5) 0.1492(4) -0.0512(4)
H10 H 0.5863 0.1638 -0.0780
C18 C 0.4105(5) 0.2325(3) -0.0583(4)
H11 H 0.4431 0.3024 -0.0904
H12 H 0.4977 0.5170 0.1661
H13 H 0.3522 0.4968 0.2025
Zn1A Zn -0.16151(3) 0.64901(3) 0.02556(3)
Zn1A_2 Zn -1.16151(3) -0.35099(3) -0.97444(3)
Zn1A_3 Zn 0.83849(3) -0.35099(3) 0.02556(3)
O1A O -0.0412(2) 0.69377(18) -0.09122(19)
N1A N -0.9131(3) -0.2017(2) -0.7977(2)
N1A_2 N 0.0869(3) 0.7983(2) 0.2023(2)
C1A C 0.1805(3) 0.4981(3) -0.1792(3)
F1A F -0.0598(4) 0.8033(3) -0.3390(3)
O2A O -0.2303(3) 0.5217(3) -0.2940(2)
N2A N 0.7162(3) -0.2185(2) 0.0222(2)
N2A_2 N -0.2838(3) 0.7815(2) 0.0222(2)
C2A C 0.1630(3) 0.5897(2) -0.2608(3)
O3A O 0.1075(2) 0.49292(19) -0.1021(2)
C3A C 0.2652(4) 0.6145(3) -0.3285(3)
H1A H 0.3403 0.5720 -0.3257
O4A O 0.2686(3) 0.4317(2) -0.1875(3)
C4A C 0.2562(6) 0.7019(4) -0.4003(4)
H2A H 0.3230 0.7160 -0.4475
O5A O -0.3946(2) 0.4862(2) -0.1444(2)
C5A C 0.1510(7) 0.7671(5) -0.4024(5)
H3A H 0.1471 0.8280 -0.4482
C6A C 0.0497(5) 0.7409(4) -0.3349(4)
C7A C 0.0484(3) 0.6516(3) -0.2661(3)
C8A C -0.0856(3) 0.6179(3) -0.2120(3)
C9A C -0.7800(3) -0.2384(3) -0.7710(3)
H4A H -0.7974 -0.3188 -0.8327
C10A C -0.6176(3) -0.1627(3) -0.6562(3)
H5A H -0.5297 -0.1935 -0.6414
C11A C -0.5854(3) -0.0413(2) -0.5632(2)
C12A C -0.7238(5) -0.0023(3) -0.5935(3)
H6A H -0.7087 0.0796 -0.5358
C13A C -0.8827(5) -0.0844(3) -0.7086(3)
H7A H -0.9736 -0.0569 -0.7252
C14A C 0.7552(5) -0.1207(4) -0.0269(5)
H8A H 0.8405 -0.1110 -0.0572
C15A C 0.6755(6) -0.0328(4) -0.0352(6)
H9A H 0.7098 0.0357 -0.0684
C16A C 0.5462(3) -0.0452(2) 0.0050(3)
C17A C 0.5025(5) -0.1492(4) 0.0512(4)
H10A H 0.4137 -0.1638 0.0780
C18A C 0.5895(5) -0.2325(3) 0.0583(4)
H11A H 0.5569 -0.3024 0.0904
H12A H -0.4977 0.4830 -0.1661
H13A H -0.3522 0.5032 -0.2025
O6 O -0.5678(5) 0.3650(3) 0.4927(4)
O7 O -0.2364(5) -0.2226(3) -0.6132(4)
loop_
_geom_bond_atom_site_label_1
_geom_bond_atom_site_label_2
_geom_bond_site_symmetry_1
_geom_bond_site_symmetry_2
Zn1 O1 1_555 1_555
O1 C8 1_555 1_555
N1 Zn1 1_555 1_555
C1 C2 1_555 1_555
F1 C6 1_555 1_555
O2 C8 1_555 1_555
N2 Zn1 1_555 1_555
C2 C3 1_555 1_555
O3 C1 1_555 1_555
C3 H1 1_555 1_555
O4 C1 1_555 1_555
C4 C3 1_555 1_555
H2 C4 1_555 1_555
O5 Zn1 1_555 1_555
C5 C4 1_555 1_555
H3 C5 1_555 1_555
C6 C5 1_555 1_555
C7 C2 1_555 1_555
C8 C7 1_555 1_555
C9 N1 1_555 1_555
H4 C9 1_555 1_555
C10 C9 1_555 1_555
H5 C10 1_555 1_555
C11 C10 1_555 1_555
C12 C11 1_555 1_555
H6 C12 1_555 1_555
C13 N1 1_555 1_555
H7 C13 1_555 1_555
C14 N2 1_555 1_555
H8 C14 1_555 1_555
C15 C14 1_555 1_555
H9 C15 1_555 1_555
C16 C15 1_555 1_555
C17 C16 1_555 1_555
H10 C17 1_555 1_555
C18 N2 1_555 1_555
H11 C18 1_555 1_555
H12 O5 1_555 1_555
H13 O5 1_555 1_555
Zn1A O3 1_555 1_555
Zn1A_2 N1A 1_555 1_555
Zn1A_3 N2A 1_555 1_555
O1A Zn1A 1_555 1_555
N1A C9A 1_555 1_555
N1A_2 Zn1A 1_555 1_555
C1A C2A 1_555 1_555
F1A C6A 1_555 1_555
O2A C8A 1_555 1_555
N2A C14A 1_555 1_555
N2A_2 Zn1A 1_555 1_555
C2A C3A 1_555 1_555
O3A Zn1 1_555 1_555
C3A H1A 1_555 1_555
O4A C1A 1_555 1_555
C4A C3A 1_555 1_555
H2A C4A 1_555 1_555
O5A Zn1A 1_555 1_555
C5A C4A 1_555 1_555
H3A C5A 1_555 1_555
C6A C5A 1_555 1_555
C7A C2A 1_555 1_555
C8A O1A 1_555 1_555
C9A H4A 1_555 1_555
C10A C9A 1_555 1_555
H5A C10A 1_555 1_555
C11A C11 1_555 1_555
C12A C11A 1_555 1_555
H6A C12A 1_555 1_555
C13A N1A 1_555 1_555
H7A C13A 1_555 1_555
C14A H8A 1_555 1_555
C15A C14A 1_555 1_555
H9A C15A 1_555 1_555
C16A C16 1_555 1_555
C17A C16A 1_555 1_555
H10A C17A 1_555 1_555
C18A N2A 1_555 1_555
H11A C18A 1_555 1_555
H12A O5A 1_555 1_555
H13A O5A 1_555 1_555
C6 C7 1_555 1_555
C12 C13 1_555 1_555
C17 C18 1_555 1_555
C1A O3A 1_555 1_555
C6A C7A 1_555 1_555
C7A C8A 1_555 1_555
C10A C11A 1_555 1_555
C12A C13A 1_555 1_555
C15A C16A 1_555 1_555
C17A C18A 1_555 1_555

#END
