
#######################################################################
#
#                 Cambridge Crystallographic Data Centre
#                                CCDC 
#
#######################################################################
#
# If this CIF has been generated from an entry in the Cambridge 
# Structural Database, then it will include bibliographic, chemical, 
# crystal, experimental, refinement or atomic coordinate data resulting 
# from the CCDC's data processing and validation procedures.
#
#######################################################################

data_NEKQEB
_symmetry_cell_setting           monoclinic
_symmetry_space_group_name_H-M   'P 2/c'
_symmetry_Int_Tables_number      13
_space_group_name_Hall           '-P 2yc'
loop_
_symmetry_equiv_pos_site_id
_symmetry_equiv_pos_as_xyz
1 x,y,z
2 -x,y,1/2-z
3 -x,-y,-z
4 x,-y,1/2+z
_cell_length_a                   7.6921(5)
_cell_length_b                   11.6169(8)
_cell_length_c                   13.2364(7)
_cell_angle_alpha                90
_cell_angle_beta                 123.437(3)
_cell_angle_gamma                90
_cell_volume                     987.023
loop_
_atom_site_label
_atom_site_type_symbol
_atom_site_fract_x
_atom_site_fract_y
_atom_site_fract_z
O6 O 0.1474(3) 0.90870(16) 0.93519(17)
H10 H 0.139(5) 0.9821(14) 0.930(3)
H11 H 0.105(5) 0.891(2) 0.982(2)
C1 C 0.5243(3) 0.53449(16) 0.34278(17)
H1 H 0.5423 0.5749 0.4086
C2 C 0.5244(3) 0.41544(15) 0.34675(17)
H2 H 0.5404 0.3775 0.4133
C3 C 0.5000 0.3535(2) 0.2500
C4 C 0.5000 0.2261(2) 0.2500
C5 C 0.3737(3) 0.16422(16) 0.2752(2)
H3 H 0.2878 0.2023 0.2934
C6 C 0.3773(3) 0.04580(16) 0.2731(2)
H4 H 0.2899 0.0055 0.2885
O1 O 0.155(3) 0.7934(12) 0.1254(17)
C10 C -0.002(2) 0.4652(3) 0.2114(13)
H6 H 0.0004 0.3933 0.1815
C12 C 0.0093(18) 0.5812(6) 0.1402(9)
C13 C 0.010(2) 0.6804(3) 0.1993(10)
F1 F -0.0024(4) 0.5824(3) 0.0412(2)
C14 C 0.0048(15) 0.7805(19) 0.1335(19)
O4 O -0.133(3) 0.8648(12) 0.1084(15)
Mn1 Mn 0.5000 0.78983(3) 0.2500
N1 N 0.5000 0.59456(17) 0.2500
N2 N 0.5000 -0.01434(18) 0.2500
O5 O 0.5017(2) 0.78976(11) 0.08448(13)
H8 H 0.608(3) 0.8093(19) 0.086(2)
H9 H 0.398(3) 0.8295(19) 0.0285(18)
C1A C 0.4757(3) 0.53449(16) 0.15722(17)
H1A H 0.4577 0.5749 0.0914
C2A C 0.4756(3) 0.41544(15) 0.15325(17)
H2A H 0.4596 0.3775 0.0867
C5A C 0.6263(3) 0.16422(16) 0.2248(2)
H3A H 0.7122 0.2023 0.2066
C6A C 0.6227(3) 0.04580(16) 0.2269(2)
H4A H 0.7101 0.0055 0.2115
O1A O -0.155(3) 0.7934(12) 0.3746(17)
O1A_2 O 0.845(3) 0.7934(12) 0.3746(17)
C10A C 0.002(2) 0.4652(3) 0.2886(13)
H6A H -0.0004 0.3933 0.3185
C12A C -0.0093(18) 0.5812(6) 0.3598(9)
C13A C -0.010(2) 0.6804(3) 0.3007(10)
F1A F 0.0024(4) 0.5824(3) 0.4588(2)
C14A C -0.0048(15) 0.7805(19) 0.3665(19)
O4A O 0.133(3) 0.8648(12) 0.3916(15)
Mn1_2 Mn 0.5000 -0.21017(3) 0.2500
Mn1_3 Mn -0.5000 0.78983(3) 0.2500
N2_2 N 0.5000 0.98566(18) 0.2500
O5A O 0.4983(2) 0.78976(11) 0.41552(13)
H8A H 0.392(3) 0.8093(19) 0.414(2)
H9A H 0.602(3) 0.8295(19) 0.4715(18)
C7? C 0.0079(15) 0.7940(18) 0.1471(18)
O2? O -0.158(2) 0.8407(12) 0.0926(13)
C8? C -0.007(2) 0.6719(4) 0.1969(10)
C9? C -0.0033(15) 0.5644(6) 0.1522(8)
H5? H -0.0013 0.5587 0.0828
C11? C -0.005(3) 0.4736(3) 0.3151(13)
H7? H -0.0045 0.4073 0.3547
O3? O -0.166(3) 0.8184(12) 0.3576(18)
loop_
_geom_bond_atom_site_label_1
_geom_bond_atom_site_label_2
_geom_bond_site_symmetry_1
_geom_bond_site_symmetry_2
C1 H1 1_555 1_555
C2 C1 1_555 1_555
H2 C2 1_555 1_555
C3 C2 1_555 1_555
C4 C3 1_555 1_555
C5 C4 1_555 1_555
H3 C5 1_555 1_555
C6 C5 1_555 1_555
H4 C6 1_555 1_555
O1 C14 1_555 1_555
C10 H6 1_555 1_555
C12 C10 1_555 1_555
C13 C12 1_555 1_555
F1 C12 1_555 1_555
C14 C13 1_555 1_555
O4 C14 1_555 1_555
Mn1 O1 1_555 1_555
N1 C1 1_555 1_555
N2 C6 1_555 1_555
O5 Mn1 1_555 1_555
H8 O5 1_555 1_555
H9 O5 1_555 1_555
O6 H10 1_555 1_555
H11 O6 1_555 1_555
C1A N1 1_555 1_555
H1A C1A 1_555 1_555
C2A C3 1_555 1_555
H2A C2A 1_555 1_555
C5A C4 1_555 1_555
H3A C5A 1_555 1_555
C6A N2 1_555 1_555
H4A C6A 1_555 1_555
O1A C14A 1_555 1_555
O1A_2 Mn1 1_555 1_555
C10A C10 1_555 1_555
H6A C10A 1_555 1_555
C12A C10A 1_555 1_555
C13A C13 1_555 1_555
F1A C12A 1_555 1_555
C14A C13A 1_555 1_555
O4A C14A 1_555 1_555
Mn1_2 N2 1_555 1_555
Mn1_3 O1A 1_555 1_555
N2_2 Mn1 1_555 1_555
O5A Mn1 1_555 1_555
H8A O5A 1_555 1_555
H9A O5A 1_555 1_555
Mn1 N1 1_555 1_555
C1A C2A 1_555 1_555
C5A C6A 1_555 1_555
C12A C13A 1_555 1_555

#END
