
#######################################################################
#
#                 Cambridge Crystallographic Data Centre
#                                CCDC 
#
#######################################################################
#
# If this CIF has been generated from an entry in the Cambridge 
# Structural Database, then it will include bibliographic, chemical, 
# crystal, experimental, refinement or atomic coordinate data resulting 
# from the CCDC's data processing and validation procedures.
#
#######################################################################

data_NEKQAX
_symmetry_cell_setting           monoclinic
_symmetry_space_group_name_H-M   'P 21/c'
_symmetry_Int_Tables_number      14
_space_group_name_Hall           '-P 2ybc'
loop_
_symmetry_equiv_pos_site_id
_symmetry_equiv_pos_as_xyz
1 x,y,z
2 -x,1/2+y,1/2-z
3 -x,-y,-z
4 x,1/2-y,1/2+z
_cell_length_a                   6.140(2)
_cell_length_b                   10.142(3)
_cell_length_c                   18.888(6)
_cell_angle_alpha                90
_cell_angle_beta                 93.185(5)
_cell_angle_gamma                90
_cell_volume                     1174.37
loop_
_atom_site_label
_atom_site_type_symbol
_atom_site_fract_x
_atom_site_fract_y
_atom_site_fract_z
C1 C 0.7221(6) 0.7566(4) -0.03243(19)
H1 H 0.7081 0.6847 -0.0646
C2 C 0.8863(6) 0.8459(3) -0.04069(19)
H2 H 0.9824 0.8345 -0.0779
C3 C 0.9131(5) 0.9509(3) 0.00405(19)
C4 C 0.7684(9) 0.9596(5) 0.0569(3)
H3 H 0.7806 1.0298 0.0902
C5 C 0.6063(8) 0.8671(5) 0.0618(3)
H4 H 0.5068 0.8765 0.0982
C6 C 0.1054(5) 0.6186(3) 0.11760(18)
C7 C -0.0591(5) 0.6216(3) 0.17222(17)
C8 C -0.2387(5) 0.5361(3) 0.16906(17)
C9 C -0.2786(5) 0.4302(3) 0.11392(17)
C10 C -0.3875(5) 0.5529(4) 0.22035(19)
C11 C -0.3694(6) 0.6460(4) 0.27300(19)
H5 H -0.4791 0.6551 0.3062
C12 C -0.1876(6) 0.7261(4) 0.27640(19)
H6 H -0.1682 0.7892 0.3134
C13 C -0.0338(6) 0.7148(4) 0.22627(18)
H7 H 0.0903 0.7709 0.2286
Cu1 Cu 0.36280(6) 0.62799(4) 0.03122(2)
F1 F -0.5668(3) 0.4745(2) 0.21691(11)
N1 N 0.5825(4) 0.7656(3) 0.01805(15)
O1 O 0.1077(4) 0.5298(2) 0.07140(12)
O2 O 0.2487(4) 0.7089(2) 0.11634(13)
O3 O -0.2265(4) 0.3168(2) 0.12620(13)
O4 O -0.3784(3) 0.4709(2) 0.05591(11)
C1B C 1.2779(6) 1.2434(4) 0.03243(19)
H1B H 1.2919 1.3153 0.0646
C2B C 1.1137(6) 1.1541(3) 0.04069(19)
H2B H 1.0176 1.1655 0.0779
C3B C 1.0869(5) 1.0491(3) -0.00405(19)
C4B C 1.2316(9) 1.0404(5) -0.0569(3)
H3B H 1.2194 0.9702 -0.0902
C5B C 1.3937(8) 1.1329(5) -0.0618(3)
H4B H 1.4932 1.1235 -0.0982
C6B C -0.1054(5) 0.3814(3) -0.11760(18)
C7B C 0.0591(5) 0.3784(3) -0.17222(17)
C8B C 0.2387(5) 0.4639(3) -0.16906(17)
C9B C 0.2786(5) 0.5698(3) -0.11392(17)
C10B C 0.3875(5) 0.4471(4) -0.22035(19)
C11B C 0.3694(6) 0.3540(4) -0.27300(19)
H5B H 0.4791 0.3449 -0.3062
C12B C 0.1876(6) 0.2739(4) -0.27640(19)
H6B H 0.1682 0.2108 -0.3134
C13B C 0.0338(6) 0.2852(4) -0.22627(18)
H7B H -0.0903 0.2291 -0.2286
Cu1B Cu -0.36280(6) 0.37201(4) -0.03122(2)
Cu1_2 Cu -0.63720(6) 0.62799(4) 0.03122(2)
Cu1B_2 Cu 0.63720(6) 0.37201(4) -0.03122(2)
Cu1B_3 Cu 1.63720(6) 1.37201(4) -0.03122(2)
F1B F 0.5668(3) 0.5255(2) -0.21691(11)
N1B N 1.4175(4) 1.2344(3) -0.01805(15)
N1B_2 N -0.5825(4) 0.2344(3) -0.01805(15)
O1B O -0.1077(4) 0.4702(2) -0.07140(12)
O2B O -0.2487(4) 0.2911(2) -0.11634(13)
O3B O 0.2265(4) 0.6832(2) -0.12620(13)
O4B O 0.3784(3) 0.5291(2) -0.05591(11)
O4_2 O 0.6216(3) 0.4709(2) 0.05591(11)
O4B_2 O -0.6216(3) 0.5291(2) -0.05591(11)
loop_
_geom_bond_atom_site_label_1
_geom_bond_atom_site_label_2
_geom_bond_site_symmetry_1
_geom_bond_site_symmetry_2
C1 H1 1_555 1_555
C2 C1 1_555 1_555
H2 C2 1_555 1_555
C3 C2 1_555 1_555
C4 C3 1_555 1_555
H3 C4 1_555 1_555
C5 C4 1_555 1_555
H4 C5 1_555 1_555
C6 C7 1_555 1_555
C7 C8 1_555 1_555
C8 C9 1_555 1_555
C9 O3 1_555 1_555
C10 C8 1_555 1_555
C11 C10 1_555 1_555
H5 C11 1_555 1_555
C12 C11 1_555 1_555
H6 C12 1_555 1_555
C13 C7 1_555 1_555
H7 C13 1_555 1_555
Cu1 N1 1_555 1_555
F1 C10 1_555 1_555
N1 C1 1_555 1_555
O1 C6 1_555 1_555
O2 C6 1_555 1_555
O4 C9 1_555 1_555
C1B H1B 1_555 1_555
C2B C1B 1_555 1_555
H2B C2B 1_555 1_555
C3B C3 1_555 1_555
C4B C3B 1_555 1_555
H3B C4B 1_555 1_555
C5B C4B 1_555 1_555
H4B C5B 1_555 1_555
C6B C7B 1_555 1_555
C7B C8B 1_555 1_555
C8B C9B 1_555 1_555
C9B O3B 1_555 1_555
C10B C8B 1_555 1_555
C11B C10B 1_555 1_555
H5B C11B 1_555 1_555
C12B C11B 1_555 1_555
H6B C12B 1_555 1_555
C13B C7B 1_555 1_555
H7B C13B 1_555 1_555
Cu1B O4 1_555 1_555
Cu1_2 O4 1_555 1_555
Cu1B_2 O4B 1_555 1_555
Cu1B_3 N1B 1_555 1_555
F1B C10B 1_555 1_555
N1B C1B 1_555 1_555
N1B_2 Cu1B 1_555 1_555
O1B C6B 1_555 1_555
O2B C6B 1_555 1_555
O4B Cu1 1_555 1_555
O4_2 Cu1 1_555 1_555
O4B_2 Cu1B 1_555 1_555
C5 N1 1_555 1_555
C12 C13 1_555 1_555
Cu1 O1 1_555 1_555
Cu1 O2 1_555 1_555
C2B C3B 1_555 1_555
C5B N1B 1_555 1_555
C9B O4B 1_555 1_555
C12B C13B 1_555 1_555
Cu1B O1B 1_555 1_555
Cu1B O2B 1_555 1_555
Cu1_2 O4B_2 1_555 1_555
Cu1B_2 O4_2 1_555 1_555

#END
