
#######################################################################
#
#                 Cambridge Crystallographic Data Centre
#                                CCDC 
#
#######################################################################
#
# If this CIF has been generated from an entry in the Cambridge 
# Structural Database, then it will include bibliographic, chemical, 
# crystal, experimental, refinement or atomic coordinate data resulting 
# from the CCDC's data processing and validation procedures.
#
#######################################################################

data_NEKREC
_symmetry_cell_setting           triclinic
_symmetry_space_group_name_H-M   'P -1'
_symmetry_Int_Tables_number      2
_space_group_name_Hall           '-P 1'
loop_
_symmetry_equiv_pos_site_id
_symmetry_equiv_pos_as_xyz
1 x,y,z
2 -x,-y,-z
_cell_length_a                   9.7077(5)
_cell_length_b                   13.8542(7)
_cell_length_c                   17.3724(9)
_cell_angle_alpha                77.6890(10)
_cell_angle_beta                 88.0980(10)
_cell_angle_gamma                70.7160(10)
_cell_volume                     2152.9
loop_
_atom_site_label
_atom_site_type_symbol
_atom_site_fract_x
_atom_site_fract_y
_atom_site_fract_z
Co1 Co 0.55646(5) 0.31858(4) 0.40587(2)
Co2 Co 0.5000 0.5000 0.5000
Co3 Co 0.91154(5) 0.26630(4) 0.95256(3)
Co4 Co 1.0000 0.0000 1.0000
O1 O 0.5946(3) 0.23838(19) 0.51844(13)
O3 O 0.5790(3) 0.36355(19) 0.58376(14)
O5 O 0.8807(3) 0.23494(19) 0.84601(13)
O6 O 0.9942(3) 0.0633(2) 0.88078(13)
O7 O 0.3600(3) 0.4502(2) 0.43958(16)
O8 O 0.3349(3) 0.3174(2) 0.40141(17)
O9 O -0.1728(3) 0.2982(2) 0.4005(2)
O10 O -0.3541(2) 0.4332(2) 0.41927(13)
O11 O 0.8307(2) 0.14527(19) 1.01155(14)
O12 O 0.6462(3) 0.2872(2) 0.97091(15)
O13 O 0.1366(3) 0.2328(2) 0.96488(18)
O14 O 0.1380(3) 0.0755(3) 1.02829(17)
N1 N 0.6369(3) 0.1952(2) 0.35079(16)
N2 N 0.5334(3) 0.3943(2) 0.28599(16)
N3 N 0.8625(3) 0.4259(2) 0.90497(16)
N4 N 0.8932(3) 0.3320(2) 1.05467(16)
C1 C 0.6894(4) 0.1864(3) 0.64778(19)
C2 C 0.7576(4) 0.2073(3) 0.70837(18)
H5 H 0.7516 0.2757 0.7083
C3 C 0.8341(4) 0.1264(3) 0.76869(18)
C4 C 0.8363(4) 0.0257(3) 0.7691(2)
H6 H 0.8891 -0.0291 0.8091
C5 C 0.7629(5) 0.0044(3) 0.7119(2)
C6 C 0.6918(5) 0.0860(3) 0.6504(2)
H7 H 0.6447 0.0726 0.6102
C7 C 0.6148(4) 0.2695(3) 0.57784(19)
C8 C 0.9087(4) 0.1436(3) 0.83693(19)
C9 C 0.7570(8) -0.1042(4) 0.7163(3)
H8 H 0.7538 -0.1376 0.7704
H9 H 0.8423 -0.1445 0.6935
H10 H 0.6712 -0.0995 0.6878
C10 C 0.1199(4) 0.4601(3) 0.40819(19)
C11 C 0.0282(4) 0.4027(3) 0.4081(2)
H11 H 0.0665 0.3306 0.4124
C12 C -0.1212(3) 0.4527(3) 0.40146(19)
C13 C -0.1764(4) 0.5608(3) 0.3906(2)
H12 H -0.2769 0.5945 0.3851
C14 C -0.0847(4) 0.6195(3) 0.3877(2)
C15 C 0.0635(4) 0.5676(3) 0.3983(2)
H13 H 0.1265 0.6056 0.3989
C16 C 0.2817(4) 0.4041(3) 0.4186(2)
C17 C -0.2194(4) 0.3892(3) 0.4082(2)
C18 C -0.1448(6) 0.7365(4) 0.3767(3)
H14 H -0.2491 0.7596 0.3691
H15 H -0.1035 0.7682 0.3313
H16 H -0.1202 0.7567 0.4226
C19 C 0.5912(3) 0.1345(3) 1.03332(18)
C20 C 0.4451(3) 0.1723(3) 1.00713(19)
H17 H 0.4088 0.2353 0.9706
C21 C 0.3541(3) 0.1148(3) 1.0362(2)
C22 C 0.4095(4) 0.0224(3) 1.0922(2)
H18 H 0.3481 -0.0157 1.1115
C23 C 0.5524(4) -0.0146(3) 1.1200(2)
C24 C 0.6430(3) 0.0422(3) 1.08799(18)
H19 H 0.7412 0.0168 1.1041
C25 C 0.1982(4) 0.1441(3) 1.0065(2)
C26 C 0.6923(3) 0.1934(3) 1.00178(18)
C27 C 0.6082(5) -0.1142(3) 1.1803(2)
H20 H 0.5304 -0.1422 1.1943
H21 H 0.6444 -0.1008 1.2263
H22 H 0.6857 -0.1637 1.1590
C28 C 0.7041(5) 0.0975(3) 0.3881(2)
H23 H 0.7031 0.0813 0.4429
C29 C 0.7757(6) 0.0185(3) 0.3498(3)
H24 H 0.8227 -0.0495 0.3776
C30 C 0.7752(5) 0.0435(4) 0.2697(3)
H25 H 0.8226 -0.0079 0.2420
C31 C 0.7059(5) 0.1431(3) 0.2298(2)
H26 H 0.7050 0.1599 0.1750
C32 C 0.6369(4) 0.2191(3) 0.2714(2)
C33 C 0.5714(4) 0.3312(3) 0.2350(2)
C34 C 0.5551(4) 0.3717(3) 0.1543(2)
H27 H 0.5786 0.3272 0.1191
C35 C 0.5041(4) 0.4776(3) 0.1274(2)
H28 H 0.4930 0.5060 0.0735
C36 C 0.4695(4) 0.5418(3) 0.1800(2)
H29 H 0.4367 0.6142 0.1625
C37 C 0.4840(4) 0.4976(3) 0.2589(2)
H30 H 0.4585 0.5411 0.2948
C38 C 0.8488(4) 0.4689(3) 0.8280(2)
H31 H 0.8700 0.4248 0.7924
C39 C 0.8051(4) 0.5747(3) 0.7989(2)
H32 H 0.7970 0.6020 0.7449
C40 C 0.7737(4) 0.6394(3) 0.8514(3)
H33 H 0.7413 0.7117 0.8334
C41 C 0.7903(4) 0.5970(3) 0.9303(3)
H34 H 0.7720 0.6399 0.9666
C42 C 0.8344(3) 0.4897(3) 0.9556(2)
C43 C 0.8548(4) 0.4368(3) 1.0404(2)
C44 C 0.8387(4) 0.4897(4) 1.1007(2)
H35 H 0.8124 0.5623 1.0898
C45 C 0.8622(4) 0.4331(4) 1.1775(3)
H36 H 0.8511 0.4672 1.2192
C46 C 0.9018(4) 0.3274(4) 1.1917(2)
H37 H 0.9187 0.2880 1.2431
C47 C 0.9166(4) 0.2788(3) 1.1292(2)
H38 H 0.9440 0.2062 1.1393
Co1A Co -0.55646(5) 0.68142(4) 0.59413(2)
Co1_2 Co -0.44354(5) 0.31858(4) 0.40587(2)
Co1A_2 Co 0.44354(5) 0.68142(4) 0.59413(2)
Co2_2 Co -0.5000 0.5000 0.5000
Co3A Co -0.91154(5) 0.73370(4) 0.04744(3)
Co3_2 Co -0.08846(5) 0.26630(4) 0.95256(3)
Co3A_2 Co 0.08846(5) 0.73370(4) 0.04744(3)
Co4_2 Co -1.0000 1.0000 0.0000
Co4_3 Co 0.0000 0.0000 1.0000
Co4_4 Co 0.0000 1.0000 0.0000
O1A O -0.5946(3) 0.76162(19) 0.48156(13)
O3A O -0.5790(3) 0.63645(19) 0.41624(14)
O3A_2 O 0.4210(3) 0.63645(19) 0.41624(14)
O5A O -0.8807(3) 0.76506(19) 0.15399(13)
O6A O -0.9942(3) 0.9367(2) 0.11922(13)
O6A_2 O 1.0058(3) -0.0633(2) 1.11922(13)
O7A O -0.3600(3) 0.5498(2) 0.56042(16)
O7A_2 O 0.6400(3) 0.5498(2) 0.56042(16)
O8A O -0.3349(3) 0.6826(2) 0.59859(17)
O9A O 0.1728(3) 0.7018(2) 0.5995(2)
O10A O 0.3541(2) 0.5668(2) 0.58073(13)
O10_2 O 0.6459(2) 0.4332(2) 0.41927(13)
O10A_2 O -0.6459(2) 0.5668(2) 0.58073(13)
O11A O -0.8307(2) 0.85473(19) -0.01155(14)
O11A_2 O 1.1693(2) -0.14527(19) 0.98845(14)
O12A O -0.6462(3) 0.7128(2) 0.02909(15)
O13A O -0.1366(3) 0.7672(2) 0.03512(18)
O13_2 O 1.1366(3) 0.2328(2) 0.96488(18)
O13A_2 O -1.1366(3) 0.7672(2) 0.03512(18)
O14A O -0.1380(3) 0.9245(3) -0.02829(17)
O14_2 O 1.1380(3) 0.0755(3) 1.02829(17)
O14A_2 O 0.8620(3) -0.0755(3) 0.97171(17)
N1A N -0.6369(3) 0.8048(2) 0.64921(16)
N2A N -0.5334(3) 0.6057(2) 0.71401(16)
N3A N -0.8625(3) 0.5741(2) 0.09503(16)
N4A N -0.8932(3) 0.6680(2) -0.05467(16)
C1A C -0.6894(4) 0.8136(3) 0.35222(19)
C2A C -0.7576(4) 0.7927(3) 0.29163(18)
H5A H -0.7516 0.7243 0.2917
C3A C -0.8341(4) 0.8736(3) 0.23131(18)
C4A C -0.8363(4) 0.9743(3) 0.2309(2)
H6A H -0.8891 1.0291 0.1909
C5A C -0.7629(5) 0.9956(3) 0.2881(2)
C6A C -0.6918(5) 0.9140(3) 0.3496(2)
H7A H -0.6447 0.9274 0.3898
C7A C -0.6148(4) 0.7305(3) 0.42216(19)
C8A C -0.9087(4) 0.8564(3) 0.16307(19)
C9A C -0.7570(8) 1.1042(4) 0.2837(3)
H8A H -0.7538 1.1376 0.2296
H9A H -0.8423 1.1445 0.3065
H10A H -0.6712 1.0995 0.3122
C10A C -0.1199(4) 0.5399(3) 0.59181(19)
C11A C -0.0282(4) 0.5973(3) 0.5919(2)
H11A H -0.0665 0.6694 0.5876
C12A C 0.1212(3) 0.5473(3) 0.59854(19)
C13A C 0.1764(4) 0.4392(3) 0.6094(2)
H12A H 0.2769 0.4055 0.6149
C14A C 0.0847(4) 0.3805(3) 0.6123(2)
C15A C -0.0635(4) 0.4324(3) 0.6017(2)
H13A H -0.1265 0.3944 0.6011
C16A C -0.2817(4) 0.5959(3) 0.5814(2)
C17A C 0.2194(4) 0.6108(3) 0.5918(2)
C18A C 0.1448(6) 0.2635(4) 0.6233(3)
H14A H 0.2491 0.2404 0.6309
H15A H 0.1035 0.2318 0.6687
H16A H 0.1202 0.2433 0.5774
C19A C -0.5912(3) 0.8655(3) -0.03332(18)
C20A C -0.4451(3) 0.8277(3) -0.00713(19)
H17A H -0.4088 0.7647 0.0294
C21A C -0.3541(3) 0.8852(3) -0.0362(2)
C22A C -0.4095(4) 0.9776(3) -0.0922(2)
H18A H -0.3481 1.0157 -0.1115
C23A C -0.5524(4) 1.0146(3) -0.1200(2)
C24A C -0.6430(3) 0.9578(3) -0.08799(18)
H19A H -0.7412 0.9832 -0.1041
C25A C -0.1982(4) 0.8559(3) -0.0065(2)
C26A C -0.6923(3) 0.8066(3) -0.00178(18)
C27A C -0.6082(5) 1.1142(3) -0.1803(2)
H20A H -0.5304 1.1422 -0.1943
H21A H -0.6444 1.1008 -0.2263
H22A H -0.6857 1.1637 -0.1590
C28A C -0.7041(5) 0.9025(3) 0.6119(2)
H23A H -0.7031 0.9187 0.5571
C29A C -0.7757(6) 0.9815(3) 0.6502(3)
H24A H -0.8227 1.0495 0.6224
C30A C -0.7752(5) 0.9565(4) 0.7303(3)
H25A H -0.8226 1.0079 0.7580
C31A C -0.7059(5) 0.8569(3) 0.7702(2)
H26A H -0.7050 0.8401 0.8250
C32A C -0.6369(4) 0.7809(3) 0.7286(2)
C33A C -0.5714(4) 0.6688(3) 0.7650(2)
C34A C -0.5551(4) 0.6283(3) 0.8457(2)
H27A H -0.5786 0.6728 0.8809
C35A C -0.5041(4) 0.5224(3) 0.8726(2)
H28A H -0.4930 0.4940 0.9265
C36A C -0.4695(4) 0.4582(3) 0.8200(2)
H29A H -0.4367 0.3858 0.8375
C37A C -0.4840(4) 0.5024(3) 0.7411(2)
H30A H -0.4585 0.4589 0.7052
C38A C -0.8488(4) 0.5311(3) 0.1720(2)
H31A H -0.8700 0.5752 0.2076
C39A C -0.8051(4) 0.4253(3) 0.2011(2)
H32A H -0.7970 0.3980 0.2551
C40A C -0.7737(4) 0.3606(3) 0.1486(3)
H33A H -0.7413 0.2883 0.1666
C41A C -0.7903(4) 0.4030(3) 0.0697(3)
H34A H -0.7720 0.3601 0.0334
C42A C -0.8344(3) 0.5103(3) 0.0444(2)
C43A C -0.8548(4) 0.5632(3) -0.0404(2)
C44A C -0.8387(4) 0.5103(4) -0.1007(2)
H35A H -0.8124 0.4377 -0.0898
C45A C -0.8622(4) 0.5669(4) -0.1775(3)
H36A H -0.8511 0.5328 -0.2192
C46A C -0.9018(4) 0.6726(4) -0.1917(2)
H37A H -0.9187 0.7120 -0.2431
C47A C -0.9166(4) 0.7212(3) -0.1292(2)
H38A H -0.9440 0.7938 -0.1393
O2 O 0.9553(6) -0.0970(5) 0.5250(5)
H1 H 1.041(4) -0.125(7) 0.510(5)
H2 H 0.874(5) -0.103(8) 0.540(6)
O4 O 0.6451(7) -0.0939(4) 0.5211(4)
H3 H 0.570(6) -0.080(6) 0.492(4)
H4 H 0.651(9) -0.157(2) 0.541(4)
loop_
_geom_bond_atom_site_label_1
_geom_bond_atom_site_label_2
_geom_bond_site_symmetry_1
_geom_bond_site_symmetry_2
Co1 O1 1_555 1_555
Co2 O3 1_555 1_555
Co3 O5 1_555 1_555
Co4 O6 1_555 1_555
O1 C7 1_555 1_555
O2 H1 1_555 1_555
H2 O2 1_555 1_555
O3 C7 1_555 1_555
O4 H3 1_555 1_555
H4 O4 1_555 1_555
O5 C8 1_555 1_555
O6 C8 1_555 1_555
O7 Co1 1_555 1_555
O8 Co1 1_555 1_555
O9 C17 1_555 1_555
O10 C17 1_555 1_555
O11 Co3 1_555 1_555
O12 C26 1_555 1_555
O13 C25 1_555 1_555
O14 C25 1_555 1_555
N1 Co1 1_555 1_555
N2 Co1 1_555 1_555
N3 Co3 1_555 1_555
N4 Co3 1_555 1_555
C1 C2 1_555 1_555
C2 H5 1_555 1_555
C3 C2 1_555 1_555
C4 C3 1_555 1_555
H6 C4 1_555 1_555
C5 C4 1_555 1_555
C6 C1 1_555 1_555
H7 C6 1_555 1_555
C7 C1 1_555 1_555
C8 C3 1_555 1_555
C9 C5 1_555 1_555
H8 C9 1_555 1_555
H9 C9 1_555 1_555
H10 C9 1_555 1_555
C10 C11 1_555 1_555
C11 H11 1_555 1_555
C12 C11 1_555 1_555
C13 C12 1_555 1_555
H12 C13 1_555 1_555
C14 C13 1_555 1_555
C15 C10 1_555 1_555
H13 C15 1_555 1_555
C16 O7 1_555 1_555
C17 C12 1_555 1_555
C18 C14 1_555 1_555
H14 C18 1_555 1_555
H15 C18 1_555 1_555
H16 C18 1_555 1_555
C19 C20 1_555 1_555
C20 H17 1_555 1_555
C21 C20 1_555 1_555
C22 C21 1_555 1_555
H18 C22 1_555 1_555
C23 C22 1_555 1_555
C24 C19 1_555 1_555
H19 C24 1_555 1_555
C25 C21 1_555 1_555
C26 O11 1_555 1_555
C27 C23 1_555 1_555
H20 C27 1_555 1_555
H21 C27 1_555 1_555
H22 C27 1_555 1_555
C28 N1 1_555 1_555
H23 C28 1_555 1_555
C29 C28 1_555 1_555
H24 C29 1_555 1_555
C30 C29 1_555 1_555
H25 C30 1_555 1_555
C31 C30 1_555 1_555
H26 C31 1_555 1_555
C32 N1 1_555 1_555
C33 N2 1_555 1_555
C34 C33 1_555 1_555
H27 C34 1_555 1_555
C35 C34 1_555 1_555
H28 C35 1_555 1_555
C36 C35 1_555 1_555
H29 C36 1_555 1_555
C37 N2 1_555 1_555
H30 C37 1_555 1_555
C38 N3 1_555 1_555
H31 C38 1_555 1_555
C39 C38 1_555 1_555
H32 C39 1_555 1_555
C40 C39 1_555 1_555
H33 C40 1_555 1_555
C41 C40 1_555 1_555
H34 C41 1_555 1_555
C42 N3 1_555 1_555
C43 N4 1_555 1_555
C44 C43 1_555 1_555
H35 C44 1_555 1_555
C45 C44 1_555 1_555
H36 C45 1_555 1_555
C46 C45 1_555 1_555
H37 C46 1_555 1_555
C47 N4 1_555 1_555
H38 C47 1_555 1_555
Co1A O1A 1_555 1_555
Co1_2 O10 1_555 1_555
Co1A_2 O7A_2 1_555 1_555
Co2_2 O10 1_555 1_555
Co3A O5A 1_555 1_555
Co3_2 O13 1_555 1_555
Co3A_2 O13A 1_555 1_555
Co4_2 O6A 1_555 1_555
Co4_3 O14 1_555 1_555
Co4_4 O14A 1_555 1_555
O1A C7A 1_555 1_555
O3A Co2_2 1_555 1_555
O3A_2 Co2 1_555 1_555
O5A C8A 1_555 1_555
O6A C8A 1_555 1_555
O6A_2 Co4 1_555 1_555
O7A Co1A 1_555 1_555
O7A_2 Co2 1_555 1_555
O8A Co1A 1_555 1_555
O9A C17A 1_555 1_555
O10A Co2 1_555 1_555
O10_2 Co1 1_555 1_555
O10A_2 Co1A 1_555 1_555
O11A Co3A 1_555 1_555
O11A_2 Co4 1_555 1_555
O12A C26A 1_555 1_555
O13A C25A 1_555 1_555
O13_2 Co3 1_555 1_555
O13A_2 Co3A 1_555 1_555
O14A C25A 1_555 1_555
O14_2 Co4 1_555 1_555
O14A_2 Co4 1_555 1_555
N1A Co1A 1_555 1_555
N2A Co1A 1_555 1_555
N3A Co3A 1_555 1_555
N4A Co3A 1_555 1_555
C1A C2A 1_555 1_555
C2A H5A 1_555 1_555
C3A C2A 1_555 1_555
C4A C3A 1_555 1_555
H6A C4A 1_555 1_555
C5A C4A 1_555 1_555
C6A C1A 1_555 1_555
H7A C6A 1_555 1_555
C7A O3A 1_555 1_555
C8A C3A 1_555 1_555
C9A C5A 1_555 1_555
H8A C9A 1_555 1_555
H9A C9A 1_555 1_555
H10A C9A 1_555 1_555
C10A C11A 1_555 1_555
C11A H11A 1_555 1_555
C12A C11A 1_555 1_555
C13A C12A 1_555 1_555
H12A C13A 1_555 1_555
C14A C13A 1_555 1_555
C15A C10A 1_555 1_555
H13A C15A 1_555 1_555
C16A O7A 1_555 1_555
C17A O10A 1_555 1_555
C18A C14A 1_555 1_555
H14A C18A 1_555 1_555
H15A C18A 1_555 1_555
H16A C18A 1_555 1_555
C19A C20A 1_555 1_555
C20A H17A 1_555 1_555
C21A C20A 1_555 1_555
C22A C21A 1_555 1_555
H18A C22A 1_555 1_555
C23A C22A 1_555 1_555
C24A C19A 1_555 1_555
H19A C24A 1_555 1_555
C25A C21A 1_555 1_555
C26A O11A 1_555 1_555
C27A C23A 1_555 1_555
H20A C27A 1_555 1_555
H21A C27A 1_555 1_555
H22A C27A 1_555 1_555
C28A N1A 1_555 1_555
H23A C28A 1_555 1_555
C29A C28A 1_555 1_555
H24A C29A 1_555 1_555
C30A C29A 1_555 1_555
H25A C30A 1_555 1_555
C31A C30A 1_555 1_555
H26A C31A 1_555 1_555
C32A N1A 1_555 1_555
C33A N2A 1_555 1_555
C34A C33A 1_555 1_555
H27A C34A 1_555 1_555
C35A C34A 1_555 1_555
H28A C35A 1_555 1_555
C36A C35A 1_555 1_555
H29A C36A 1_555 1_555
C37A N2A 1_555 1_555
H30A C37A 1_555 1_555
C38A N3A 1_555 1_555
H31A C38A 1_555 1_555
C39A C38A 1_555 1_555
H32A C39A 1_555 1_555
C40A C39A 1_555 1_555
H33A C40A 1_555 1_555
C41A C40A 1_555 1_555
H34A C41A 1_555 1_555
C42A N3A 1_555 1_555
C43A N4A 1_555 1_555
C44A C43A 1_555 1_555
H35A C44A 1_555 1_555
C45A C44A 1_555 1_555
H36A C45A 1_555 1_555
C46A C45A 1_555 1_555
H37A C46A 1_555 1_555
C47A N4A 1_555 1_555
H38A C47A 1_555 1_555
Co2 O7 1_555 1_555
Co2 O10_2 1_555 1_555
Co4 O11 1_555 1_555
O8 C16 1_555 1_555
C5 C6 1_555 1_555
C10 C16 1_555 1_555
C14 C15 1_555 1_555
C19 C26 1_555 1_555
C23 C24 1_555 1_555
C31 C32 1_555 1_555
C32 C33 1_555 1_555
C36 C37 1_555 1_555
C41 C42 1_555 1_555
C42 C43 1_555 1_555
C46 C47 1_555 1_555
Co1A_2 O10A 1_555 1_555
Co2_2 O7A 1_555 1_555
Co2_2 O10A_2 1_555 1_555
Co4_2 O11A 1_555 1_555
O8A C16A 1_555 1_555
C1A C7A 1_555 1_555
C5A C6A 1_555 1_555
C10A C16A 1_555 1_555
C12A C17A 1_555 1_555
C14A C15A 1_555 1_555
C19A C26A 1_555 1_555
C23A C24A 1_555 1_555
C31A C32A 1_555 1_555
C32A C33A 1_555 1_555
C36A C37A 1_555 1_555
C41A C42A 1_555 1_555
C42A C43A 1_555 1_555
C46A C47A 1_555 1_555

#END
