
#######################################################################
#
#                 Cambridge Crystallographic Data Centre
#                                CCDC 
#
#######################################################################
#
# If this CIF has been generated from an entry in the Cambridge 
# Structural Database, then it will include bibliographic, chemical, 
# crystal, experimental, refinement or atomic coordinate data resulting 
# from the CCDC's data processing and validation procedures.
#
#######################################################################

data_NEKROM
_symmetry_cell_setting           triclinic
_symmetry_space_group_name_H-M   'P -1'
_symmetry_Int_Tables_number      2
_space_group_name_Hall           '-P 1'
loop_
_symmetry_equiv_pos_site_id
_symmetry_equiv_pos_as_xyz
1 x,y,z
2 -x,-y,-z
_cell_length_a                   9.1258(4)
_cell_length_b                   9.5473(4)
_cell_length_c                   11.7644(5)
_cell_angle_alpha                85.291(1)
_cell_angle_beta                 69.763(1)
_cell_angle_gamma                65.111(1)
_cell_volume                     869.971
loop_
_atom_site_label
_atom_site_type_symbol
_atom_site_fract_x
_atom_site_fract_y
_atom_site_fract_z
Ni1 Ni 0.54889(3) 0.49681(2) 0.292085(17)
O1 O 0.48625(15) 0.71100(13) 0.37799(11)
O2 O 0.32207(15) 0.69345(13) 0.28697(11)
O3 O -0.09408(17) 1.18894(15) 0.19524(12)
O4 O -0.24858(15) 1.37258(14) 0.34735(11)
O5 O 0.39504(16) 0.44355(14) 0.44667(11)
H1 H 0.450(3) 0.374(2) 0.4840(19)
H2 H 0.336(3) 0.520(2) 0.4976(18)
N1 N 0.68612(18) 0.53754(16) 0.12581(13)
N2 N 0.55387(18) 0.33416(16) 0.18904(13)
C1 C 0.2395(2) 0.94008(18) 0.38035(14)
C2 C 0.1197(2) 1.01581(18) 0.32382(14)
H3 H 0.1125 0.9614 0.2633
C3 C 0.0104(2) 1.17114(18) 0.35575(14)
C4 C 0.0201(2) 1.24813(18) 0.44584(15)
H4 H -0.0557 1.3543 0.4682
C5 C 0.1384(2) 1.17339(19) 0.50428(15)
C6 C 0.2499(2) 1.01911(19) 0.46869(15)
H5 H 0.3345 0.9670 0.5054
C7 C 0.3543(2) 0.77264(18) 0.34663(14)
C8 C -0.1193(2) 1.24812(18) 0.29271(15)
C9 C 0.1407(3) 1.2550(2) 0.60736(18)
H6 H 0.2600 1.2284 0.5995
H7 H 0.0831 1.2227 0.6848
H8 H 0.0803 1.3672 0.6050
C10 C 0.7478(2) 0.6447(2) 0.10140(17)
H9 H 0.7349 0.7058 0.1670
C11 C 0.8300(3) 0.6703(2) -0.01576(18)
H10 H 0.8742 0.7467 -0.0308
C12 C 0.8465(3) 0.5822(2) -0.11049(18)
H11 H 0.9013 0.5980 -0.1921
C13 C 0.7831(2) 0.4714(2) -0.08604(16)
H12 H 0.7930 0.4101 -0.1503
C14 C 0.7043(2) 0.45067(19) 0.03387(15)
C15 C 0.6362(2) 0.33220(19) 0.07003(15)
C16 C 0.6589(2) 0.2228(2) -0.01201(16)
H13 H 0.7136 0.2254 -0.0966
C17 C 0.6011(3) 0.1102(2) 0.03056(19)
H14 H 0.6186 0.0320 -0.0240
C18 C 0.5173(3) 0.1121(2) 0.15347(19)
H15 H 0.4761 0.0356 0.1850
C19 C 0.4950(2) 0.2271(2) 0.22926(17)
H16 H 0.4350 0.2301 0.3137
Ni1_2 Ni -0.45111(3) 1.49681(2) 0.292085(17)
O4_2 O 0.75142(15) 0.37258(14) 0.34735(11)
O6 O -0.0521(5) 0.9057(4) 0.0913(4)
H17 H -0.066(8) 0.987(4) 0.125(4)
H18 H 0.001(8) 0.899(7) 0.0157(14)
loop_
_geom_bond_atom_site_label_1
_geom_bond_atom_site_label_2
_geom_bond_site_symmetry_1
_geom_bond_site_symmetry_2
Ni1 O1 1_555 1_555
O1 C7 1_555 1_555
O2 Ni1 1_555 1_555
O3 C8 1_555 1_555
O4 C8 1_555 1_555
O5 Ni1 1_555 1_555
H1 O5 1_555 1_555
H2 O5 1_555 1_555
N1 Ni1 1_555 1_555
N2 Ni1 1_555 1_555
C1 C2 1_555 1_555
C2 H3 1_555 1_555
C3 C2 1_555 1_555
C4 C3 1_555 1_555
H4 C4 1_555 1_555
C5 C4 1_555 1_555
C6 C1 1_555 1_555
H5 C6 1_555 1_555
C7 O2 1_555 1_555
C8 C3 1_555 1_555
C9 C5 1_555 1_555
H6 C9 1_555 1_555
H7 C9 1_555 1_555
H8 C9 1_555 1_555
C10 N1 1_555 1_555
H9 C10 1_555 1_555
C11 C10 1_555 1_555
H10 C11 1_555 1_555
C12 C11 1_555 1_555
H11 C12 1_555 1_555
C13 C12 1_555 1_555
H12 C13 1_555 1_555
C14 N1 1_555 1_555
C15 N2 1_555 1_555
C16 C15 1_555 1_555
H13 C16 1_555 1_555
C17 C16 1_555 1_555
H14 C17 1_555 1_555
C18 C17 1_555 1_555
H15 C18 1_555 1_555
C19 N2 1_555 1_555
H16 C19 1_555 1_555
O6 H17 1_555 1_555
H18 O6 1_555 1_555
Ni1_2 O4 1_555 1_555
O4_2 Ni1 1_555 1_555
C1 C7 1_555 1_555
C5 C6 1_555 1_555
C13 C14 1_555 1_555
C14 C15 1_555 1_555
C18 C19 1_555 1_555

#END
