
#######################################################################
#
#                 Cambridge Crystallographic Data Centre
#                                CCDC 
#
#######################################################################
#
# If this CIF has been generated from an entry in the Cambridge 
# Structural Database, then it will include bibliographic, chemical, 
# crystal, experimental, refinement or atomic coordinate data resulting 
# from the CCDC's data processing and validation procedures.
#
#######################################################################

data_NEKSAZ
_symmetry_cell_setting           triclinic
_symmetry_space_group_name_H-M   'P -1'
_symmetry_Int_Tables_number      2
_space_group_name_Hall           '-P 1'
loop_
_symmetry_equiv_pos_site_id
_symmetry_equiv_pos_as_xyz
1 x,y,z
2 -x,-y,-z
_cell_length_a                   10.1241(5)
_cell_length_b                   11.1747(5)
_cell_length_c                   11.8998(5)
_cell_angle_alpha                81.934(1)
_cell_angle_beta                 65.219(1)
_cell_angle_gamma                84.761(1)
_cell_volume                     1209.42
loop_
_atom_site_label
_atom_site_type_symbol
_atom_site_fract_x
_atom_site_fract_y
_atom_site_fract_z
Cu1 Cu 0.5000 0.0000 0.5000
Cu2 Cu 0.81395(3) 0.18222(2) 0.27678(2)
O1 O 0.41869(16) 0.08234(14) 0.38874(13)
O2 O 0.64491(16) 0.07992(13) 0.24181(14)
O3 O 0.07632(18) 0.43038(15) 0.13558(16)
O4 O 0.01774(16) 0.28907(14) 0.29956(14)
O5 O 0.69462(16) -0.67706(13) 0.26111(14)
O6 O 0.81008(16) -0.50446(14) 0.22171(15)
O7 O 0.52681(16) -0.15276(13) 0.42544(14)
O8 O 0.29048(16) -0.16479(13) 0.54158(13)
N1 N 0.93848(19) 0.03670(16) 0.29139(16)
N2 N 0.95548(19) 0.18811(16) 0.09871(16)
C1 C 0.4582(2) 0.18721(18) 0.19253(19)
C2 C 0.3116(2) 0.22071(19) 0.23159(19)
H1 H 0.2433 0.1884 0.3110
C3 C 0.2650(2) 0.30104(19) 0.15505(19)
C4 C 0.3640(2) 0.3472(2) 0.03770(19)
H2 H 0.3308 0.4020 -0.0144
C5 C 0.5120(2) 0.3137(2) -0.00407(19)
C6 C 0.5562(2) 0.23381(19) 0.07521(19)
H3 H 0.6563 0.2103 0.0485
C7 C 0.5133(2) 0.10982(18) 0.27883(19)
C8 C 0.1078(2) 0.33969(19) 0.20366(19)
C9 C 0.6198(3) 0.3665(2) -0.1287(2)
H4 H 0.7187 0.3490 -0.1341
H5 H 0.6022 0.4543 -0.1386
H6 H 0.6087 0.3308 -0.1948
C10 C 0.5537(2) -0.50186(18) 0.32997(17)
C11 C 0.5475(2) -0.38275(18) 0.35400(17)
H7 H 0.6336 -0.3380 0.3212
C12 C 0.4144(2) -0.32941(18) 0.42645(17)
C13 C 0.2884(2) -0.39457(18) 0.47182(18)
H8 H 0.1975 -0.3571 0.5195
C14 C 0.2931(2) -0.51357(19) 0.44864(18)
C15 C 0.4268(2) -0.56580(18) 0.37764(18)
H9 H 0.4317 -0.6473 0.3612
C16 C 0.6992(2) -0.56478(18) 0.26463(18)
C17 C 0.4105(2) -0.20817(18) 0.46682(18)
C18 C 0.1599(3) -0.5887(2) 0.5068(2)
H10 H 0.0868 -0.5519 0.5786
H11 H 0.1864 -0.6706 0.5343
H12 H 0.1199 -0.5926 0.4454
C19 C 0.9210(3) -0.0348(2) 0.3969(2)
H13 H 0.8322 -0.0287 0.4685
C20 C 1.0286(3) -0.1172(2) 0.4045(2)
H14 H 1.0137 -0.1676 0.4797
C21 C 1.1574(3) -0.1243(2) 0.3008(3)
H15 H 1.2345 -0.1775 0.3048
C22 C 1.1745(3) -0.0539(2) 0.1910(2)
H16 H 1.2622 -0.0594 0.1182
C23 C 1.0617(2) 0.0250(2) 0.1886(2)
C24 C 1.0652(2) 0.10337(19) 0.0767(2)
C25 C 1.1677(3) 0.0898(2) -0.0432(2)
H17 H 1.2432 0.0291 -0.0574
C26 C 1.1580(3) 0.1656(2) -0.1410(2)
H18 H 1.2264 0.1572 -0.2238
C27 C 1.0488(3) 0.2539(2) -0.1183(2)
H19 H 1.0417 0.3078 -0.1850
C28 C 0.9496(3) 0.2630(2) 0.0033(2)
H20 H 0.8749 0.3246 0.0192
H21 H -0.015(4) 0.444(4) 0.169(4)
Cu2A Cu 0.18605(3) -0.18222(2) 0.72322(2)
Cu2_2 Cu -0.18605(3) 0.18222(2) 0.27678(2)
Cu2_3 Cu 0.81395(3) -0.81778(2) 0.27678(2)
Cu2A_2 Cu 1.18605(3) -0.18222(2) 0.72322(2)
Cu2A_3 Cu 0.18605(3) 0.81778(2) 0.72322(2)
O1A O 0.58131(16) -0.08234(14) 0.61126(13)
O2A O 0.35509(16) -0.07992(13) 0.75819(14)
O3A O 0.92368(18) -0.43038(15) 0.86442(16)
O4A O 0.98226(16) -0.28907(14) 0.70044(14)
O4_2 O 1.01774(16) 0.28907(14) 0.29956(14)
O4A_2 O -0.01774(16) -0.28907(14) 0.70044(14)
O5A O 0.30538(16) 0.67706(13) 0.73889(14)
O5_2 O 0.69462(16) 0.32294(13) 0.26111(14)
O5A_2 O 0.30538(16) -0.32294(13) 0.73889(14)
O6A O 0.18992(16) 0.50446(14) 0.77829(15)
O7A O 0.47319(16) 0.15276(13) 0.57456(14)
O8A O 0.70952(16) 0.16479(13) 0.45842(13)
N1A N 0.06152(19) -0.03670(16) 0.70861(16)
N2A N 0.04452(19) -0.18811(16) 0.90129(16)
C1A C 0.5418(2) -0.18721(18) 0.80747(19)
C2A C 0.6884(2) -0.22071(19) 0.76841(19)
H1A H 0.7567 -0.1884 0.6890
C3A C 0.7350(2) -0.30104(19) 0.84495(19)
C4A C 0.6360(2) -0.3472(2) 0.96230(19)
H2A H 0.6692 -0.4020 1.0144
C5A C 0.4880(2) -0.3137(2) 1.00407(19)
C6A C 0.4438(2) -0.23381(19) 0.92479(19)
H3A H 0.3437 -0.2103 0.9515
C7A C 0.4867(2) -0.10982(18) 0.72117(19)
C8A C 0.8922(2) -0.33969(19) 0.79634(19)
C9A C 0.3802(3) -0.3665(2) 1.1287(2)
H4A H 0.2813 -0.3490 1.1341
H5A H 0.3978 -0.4543 1.1386
H6A H 0.3913 -0.3308 1.1948
C10A C 0.4463(2) 0.50186(18) 0.67003(17)
C11A C 0.4525(2) 0.38275(18) 0.64600(17)
H7A H 0.3664 0.3380 0.6788
C12A C 0.5856(2) 0.32941(18) 0.57355(17)
C13A C 0.7116(2) 0.39457(18) 0.52818(18)
H8A H 0.8025 0.3571 0.4805
C14A C 0.7069(2) 0.51357(19) 0.55136(18)
C15A C 0.5732(2) 0.56580(18) 0.62236(18)
H9A H 0.5683 0.6473 0.6388
C16A C 0.3008(2) 0.56478(18) 0.73537(18)
C17A C 0.5895(2) 0.20817(18) 0.53318(18)
C18A C 0.8401(3) 0.5887(2) 0.4932(2)
H10A H 0.9132 0.5519 0.4214
H11A H 0.8136 0.6706 0.4657
H12A H 0.8801 0.5926 0.5546
C19A C 0.0790(3) 0.0348(2) 0.6031(2)
H13A H 0.1678 0.0287 0.5315
C20A C -0.0286(3) 0.1172(2) 0.5955(2)
H14A H -0.0137 0.1676 0.5203
C21A C -0.1574(3) 0.1243(2) 0.6992(3)
H15A H -0.2345 0.1775 0.6952
C22A C -0.1745(3) 0.0539(2) 0.8090(2)
H16A H -0.2622 0.0594 0.8818
C23A C -0.0617(2) -0.0250(2) 0.8114(2)
C24A C -0.0652(2) -0.10337(19) 0.9233(2)
C25A C -0.1677(3) -0.0898(2) 1.0432(2)
H17A H -0.2432 -0.0291 1.0574
C26A C -0.1580(3) -0.1656(2) 1.1410(2)
H18A H -0.2264 -0.1572 1.2238
C27A C -0.0488(3) -0.2539(2) 1.1183(2)
H19A H -0.0417 -0.3078 1.1850
C28A C 0.0504(3) -0.2630(2) 0.9967(2)
H20A H 0.1251 -0.3246 0.9808
H21A H 1.015(4) -0.444(4) 0.831(4)
loop_
_geom_bond_atom_site_label_1
_geom_bond_atom_site_label_2
_geom_bond_site_symmetry_1
_geom_bond_site_symmetry_2
Cu1 O1 1_555 1_555
Cu2 O2 1_555 1_555
O1 C7 1_555 1_555
O2 C7 1_555 1_555
O3 C8 1_555 1_555
O4 C8 1_555 1_555
O5 C16 1_555 1_555
O6 C16 1_555 1_555
O7 Cu1 1_555 1_555
O8 C17 1_555 1_555
N1 Cu2 1_555 1_555
N2 Cu2 1_555 1_555
C1 C2 1_555 1_555
C2 H1 1_555 1_555
C3 C2 1_555 1_555
C4 C3 1_555 1_555
H2 C4 1_555 1_555
C5 C4 1_555 1_555
C6 C1 1_555 1_555
H3 C6 1_555 1_555
C7 C1 1_555 1_555
C8 C3 1_555 1_555
C9 C5 1_555 1_555
H4 C9 1_555 1_555
H5 C9 1_555 1_555
H6 C9 1_555 1_555
C10 C11 1_555 1_555
C11 H7 1_555 1_555
C12 C11 1_555 1_555
C13 C12 1_555 1_555
H8 C13 1_555 1_555
C14 C13 1_555 1_555
C15 C10 1_555 1_555
H9 C15 1_555 1_555
C16 C10 1_555 1_555
C17 O7 1_555 1_555
C18 C14 1_555 1_555
H10 C18 1_555 1_555
H11 C18 1_555 1_555
H12 C18 1_555 1_555
C19 N1 1_555 1_555
H13 C19 1_555 1_555
C20 C19 1_555 1_555
H14 C20 1_555 1_555
C21 C20 1_555 1_555
H15 C21 1_555 1_555
C22 C21 1_555 1_555
H16 C22 1_555 1_555
C23 N1 1_555 1_555
C24 N2 1_555 1_555
C25 C24 1_555 1_555
H17 C25 1_555 1_555
C26 C25 1_555 1_555
H18 C26 1_555 1_555
C27 C26 1_555 1_555
H19 C27 1_555 1_555
C28 N2 1_555 1_555
H20 C28 1_555 1_555
H21 O3 1_555 1_555
Cu2A O8 1_555 1_555
Cu2_2 O4 1_555 1_555
Cu2_3 O5 1_555 1_555
Cu2A_2 O4A 1_555 1_555
Cu2A_3 O5A 1_555 1_555
O1A Cu1 1_555 1_555
O2A Cu2A 1_555 1_555
O3A C8A 1_555 1_555
O4A C8A 1_555 1_555
O4_2 Cu2 1_555 1_555
O4A_2 Cu2A 1_555 1_555
O5A C16A 1_555 1_555
O5_2 Cu2 1_555 1_555
O5A_2 Cu2A 1_555 1_555
O6A C16A 1_555 1_555
O7A Cu1 1_555 1_555
O8A Cu2 1_555 1_555
N1A Cu2A 1_555 1_555
N2A Cu2A 1_555 1_555
C1A C2A 1_555 1_555
C2A H1A 1_555 1_555
C3A C2A 1_555 1_555
C4A C3A 1_555 1_555
H2A C4A 1_555 1_555
C5A C4A 1_555 1_555
C6A C1A 1_555 1_555
H3A C6A 1_555 1_555
C7A O1A 1_555 1_555
C8A C3A 1_555 1_555
C9A C5A 1_555 1_555
H4A C9A 1_555 1_555
H5A C9A 1_555 1_555
H6A C9A 1_555 1_555
C10A C11A 1_555 1_555
C11A H7A 1_555 1_555
C12A C11A 1_555 1_555
C13A C12A 1_555 1_555
H8A C13A 1_555 1_555
C14A C13A 1_555 1_555
C15A C10A 1_555 1_555
H9A C15A 1_555 1_555
C16A C10A 1_555 1_555
C17A O7A 1_555 1_555
C18A C14A 1_555 1_555
H10A C18A 1_555 1_555
H11A C18A 1_555 1_555
H12A C18A 1_555 1_555
C19A N1A 1_555 1_555
H13A C19A 1_555 1_555
C20A C19A 1_555 1_555
H14A C20A 1_555 1_555
C21A C20A 1_555 1_555
H15A C21A 1_555 1_555
C22A C21A 1_555 1_555
H16A C22A 1_555 1_555
C23A N1A 1_555 1_555
C24A N2A 1_555 1_555
C25A C24A 1_555 1_555
H17A C25A 1_555 1_555
C26A C25A 1_555 1_555
H18A C26A 1_555 1_555
C27A C26A 1_555 1_555
H19A C27A 1_555 1_555
C28A N2A 1_555 1_555
H20A C28A 1_555 1_555
H21A O3A 1_555 1_555
C5 C6 1_555 1_555
C12 C17 1_555 1_555
C14 C15 1_555 1_555
C22 C23 1_555 1_555
C23 C24 1_555 1_555
C27 C28 1_555 1_555
O2A C7A 1_555 1_555
O8A C17A 1_555 1_555
C1A C7A 1_555 1_555
C5A C6A 1_555 1_555
C12A C17A 1_555 1_555
C14A C15A 1_555 1_555
C22A C23A 1_555 1_555
C23A C24A 1_555 1_555
C27A C28A 1_555 1_555

#END
