
#######################################################################
#
#                 Cambridge Crystallographic Data Centre
#                                CCDC 
#
#######################################################################
#
# If this CIF has been generated from an entry in the Cambridge 
# Structural Database, then it will include bibliographic, chemical, 
# crystal, experimental, refinement or atomic coordinate data resulting 
# from the CCDC's data processing and validation procedures.
#
#######################################################################

data_NEKSED
_symmetry_cell_setting           triclinic
_symmetry_space_group_name_H-M   'P -1'
_symmetry_Int_Tables_number      2
_space_group_name_Hall           '-P 1'
loop_
_symmetry_equiv_pos_site_id
_symmetry_equiv_pos_as_xyz
1 x,y,z
2 -x,-y,-z
_cell_length_a                   8.4538(4)
_cell_length_b                   13.0424(6)
_cell_length_c                   13.1171(6)
_cell_angle_alpha                111.201(10)
_cell_angle_beta                 97.688(1)
_cell_angle_gamma                103.576(1)
_cell_volume                     1271.98
loop_
_atom_site_label
_atom_site_type_symbol
_atom_site_fract_x
_atom_site_fract_y
_atom_site_fract_z
Cu1 Cu 0.67666(4) 1.06329(3) 0.26390(2)
Cu2 Cu 0.5000 1.0000 0.0000
O1 O 0.4958(2) 1.13292(17) 0.27122(15)
O2 O 0.3658(2) 1.07524(16) 0.09006(15)
O3 O -0.1652(2) 1.18741(18) 0.00382(17)
O4 O -0.2931(2) 1.11760(16) 0.11236(15)
O5 O 0.5655(2) 0.91826(15) 0.13340(15)
O6 O 0.4863(3) 0.86936(18) 0.26729(17)
O7 O 0.0972(3) 0.4713(2) 0.1491(2)
O8 O 0.0802(3) 0.33917(18) -0.01853(19)
H1 H 0.0049 0.2999 -0.0025
N1 N 0.8871(3) 1.01845(18) 0.28424(18)
N2 N 0.7832(3) 1.17404(19) 0.42600(18)
C1 C 0.2633(3) 1.1929(2) 0.2277(2)
C2 C 0.1150(3) 1.1633(2) 0.1494(2)
H2 H 0.0966 1.1075 0.0768
C3 C -0.0057(3) 1.2161(2) 0.1784(2)
C4 C 0.0256(3) 1.3035(2) 0.2846(2)
H3 H -0.0554 1.3395 0.3039
C5 C 0.1766(3) 1.3377(2) 0.3624(2)
C6 C 0.2931(3) 1.2800(2) 0.3338(2)
H4 H 0.3926 1.3000 0.3865
C7 C 0.3861(3) 1.1285(2) 0.1939(2)
C8 C -0.1670(3) 1.1728(2) 0.0908(2)
C9 C 0.2158(4) 1.4366(3) 0.4758(3)
H5 H 0.3323 1.4583 0.5117
H6 H 0.1486 1.4133 0.5218
H7 H 0.1913 1.5013 0.4663
C10 C 0.4274(3) 0.7210(2) 0.0844(2)
C11 C 0.3223(3) 0.6411(2) 0.1101(2)
H8 H 0.2946 0.6635 0.1794
C12 C 0.2573(3) 0.5266(2) 0.0322(2)
C13 C 0.3014(4) 0.4942(2) -0.0699(2)
H9 H 0.2602 0.4173 -0.1211
C14 C 0.4050(4) 0.5734(2) -0.0976(2)
C15 C 0.4686(3) 0.6876(2) -0.0191(2)
H10 H 0.5395 0.7421 -0.0362
C16 C 0.4953(3) 0.8443(2) 0.1689(2)
C17 C 0.1384(4) 0.4445(2) 0.0624(3)
C18 C 0.4490(5) 0.5386(3) -0.2103(3)
H11 H 0.4207 0.4560 -0.2460
H12 H 0.5671 0.5725 -0.1997
H13 H 0.3874 0.5653 -0.2571
C19 C 0.9366(4) 0.9396(2) 0.2109(2)
H14 H 0.8684 0.8968 0.1385
C20 C 1.0874(4) 0.9186(3) 0.2383(3)
H15 H 1.1188 0.8631 0.1843
C21 C 1.1888(4) 0.9789(3) 0.3439(3)
H16 H 1.2895 0.9652 0.3626
C22 C 1.1397(3) 1.0617(2) 0.4239(2)
C23 C 1.2338(4) 1.1295(3) 0.5383(3)
H17 H 1.3351 1.1192 0.5626
C24 C 1.1783(4) 1.2075(3) 0.6112(2)
H18 H 1.2418 1.2495 0.6850
C25 C 1.0244(4) 1.2276(2) 0.5781(2)
C26 C 0.9581(4) 1.3071(3) 0.6486(2)
H19 H 1.0154 1.3523 0.7234
C27 C 0.8102(4) 1.3177(3) 0.6071(3)
H20 H 0.7657 1.3706 0.6533
C28 C 0.7248(4) 1.2495(3) 0.4954(2)
H21 H 0.6227 1.2573 0.4686
C29 C 0.9311(3) 1.1629(2) 0.4664(2)
C30 C 0.9877(3) 1.0789(2) 0.3895(2)
Cu1A Cu 0.32334(4) 0.93671(3) -0.26390(2)
Cu1_2 Cu -0.32334(4) 1.06329(3) 0.26390(2)
Cu1A_2 Cu 1.32334(4) 0.93671(3) -0.26390(2)
Cu2_2 Cu -0.5000 1.0000 0.0000
Cu2_3 Cu 1.5000 1.0000 0.0000
O1A O 0.5042(2) 0.86708(17) -0.27122(15)
O2A O 0.6342(2) 0.92476(16) -0.09006(15)
O3A O 1.1652(2) 0.81259(18) -0.00382(17)
O4A O 1.2931(2) 0.88240(16) -0.11236(15)
O4_2 O 0.7069(2) 1.11760(16) 0.11236(15)
O4A_2 O 0.2931(2) 0.88240(16) -0.11236(15)
O5A O 0.4345(2) 1.08174(15) -0.13340(15)
O6A O 0.5137(3) 1.13064(18) -0.26729(17)
O7A O 0.9028(3) 1.5287(2) -0.1491(2)
O8A O 0.9198(3) 1.66083(18) 0.01853(19)
H1A H 0.9951 1.7001 0.0025
N1A N 0.1129(3) 0.98155(18) -0.28424(18)
N2A N 0.2168(3) 0.82596(19) -0.42600(18)
C1A C 0.7367(3) 0.8071(2) -0.2277(2)
C2A C 0.8850(3) 0.8367(2) -0.1494(2)
H2A H 0.9034 0.8925 -0.0768
C3A C 1.0057(3) 0.7839(2) -0.1784(2)
C4A C 0.9744(3) 0.6965(2) -0.2846(2)
H3A H 1.0554 0.6605 -0.3039
C5A C 0.8234(3) 0.6623(2) -0.3624(2)
C6A C 0.7069(3) 0.7200(2) -0.3338(2)
H4A H 0.6074 0.7000 -0.3865
C7A C 0.6139(3) 0.8715(2) -0.1939(2)
C8A C 1.1670(3) 0.8272(2) -0.0908(2)
C9A C 0.7842(4) 0.5634(3) -0.4758(3)
H5A H 0.6677 0.5417 -0.5117
H6A H 0.8514 0.5867 -0.5218
H7A H 0.8087 0.4987 -0.4663
C10A C 0.5726(3) 1.2790(2) -0.0844(2)
C11A C 0.6777(3) 1.3589(2) -0.1101(2)
H8A H 0.7054 1.3365 -0.1794
C12A C 0.7427(3) 1.4734(2) -0.0322(2)
C13A C 0.6986(4) 1.5058(2) 0.0699(2)
H9A H 0.7398 1.5827 0.1211
C14A C 0.5950(4) 1.4266(2) 0.0976(2)
C15A C 0.5314(3) 1.3124(2) 0.0191(2)
H10A H 0.4605 1.2579 0.0362
C16A C 0.5047(3) 1.1557(2) -0.1689(2)
C17A C 0.8616(4) 1.5555(2) -0.0624(3)
C18A C 0.5510(5) 1.4614(3) 0.2103(3)
H11A H 0.5793 1.5440 0.2460
H12A H 0.4329 1.4275 0.1997
H13A H 0.6126 1.4347 0.2571
C19A C 0.0634(4) 1.0604(2) -0.2109(2)
H14A H 0.1316 1.1032 -0.1385
C20A C -0.0874(4) 1.0814(3) -0.2383(3)
H15A H -0.1188 1.1369 -0.1843
C21A C -0.1888(4) 1.0211(3) -0.3439(3)
H16A H -0.2895 1.0348 -0.3626
C22A C -0.1397(3) 0.9383(2) -0.4239(2)
C23A C -0.2338(4) 0.8705(3) -0.5383(3)
H17A H -0.3351 0.8808 -0.5626
C24A C -0.1783(4) 0.7925(3) -0.6112(2)
H18A H -0.2418 0.7505 -0.6850
C25A C -0.0244(4) 0.7724(2) -0.5781(2)
C26A C 0.0419(4) 0.6929(3) -0.6486(2)
H19A H -0.0154 0.6477 -0.7234
C27A C 0.1898(4) 0.6823(3) -0.6071(3)
H20A H 0.2343 0.6294 -0.6533
C28A C 0.2752(4) 0.7505(3) -0.4954(2)
H21A H 0.3773 0.7427 -0.4686
C29A C 0.0689(3) 0.8371(2) -0.4664(2)
C30A C 0.0123(3) 0.9211(2) -0.3895(2)
loop_
_geom_bond_atom_site_label_1
_geom_bond_atom_site_label_2
_geom_bond_site_symmetry_1
_geom_bond_site_symmetry_2
Cu1 O1 1_555 1_555
Cu2 O2 1_555 1_555
O1 C7 1_555 1_555
O2 C7 1_555 1_555
O3 C8 1_555 1_555
O4 C8 1_555 1_555
O5 Cu1 1_555 1_555
O6 C16 1_555 1_555
O7 C17 1_555 1_555
O8 H1 1_555 1_555
N1 Cu1 1_555 1_555
N2 Cu1 1_555 1_555
C1 C2 1_555 1_555
C2 H2 1_555 1_555
C3 C2 1_555 1_555
C4 C3 1_555 1_555
H3 C4 1_555 1_555
C5 C4 1_555 1_555
C6 C1 1_555 1_555
H4 C6 1_555 1_555
C7 C1 1_555 1_555
C8 C3 1_555 1_555
C9 C5 1_555 1_555
H5 C9 1_555 1_555
H6 C9 1_555 1_555
H7 C9 1_555 1_555
C10 C11 1_555 1_555
C11 H8 1_555 1_555
C12 C11 1_555 1_555
C13 C12 1_555 1_555
H9 C13 1_555 1_555
C14 C13 1_555 1_555
C15 C10 1_555 1_555
H10 C15 1_555 1_555
C16 O5 1_555 1_555
C17 O8 1_555 1_555
C18 C14 1_555 1_555
H11 C18 1_555 1_555
H12 C18 1_555 1_555
H13 C18 1_555 1_555
C19 N1 1_555 1_555
H14 C19 1_555 1_555
C20 C19 1_555 1_555
H15 C20 1_555 1_555
C21 C20 1_555 1_555
H16 C21 1_555 1_555
C22 C21 1_555 1_555
C23 C22 1_555 1_555
H17 C23 1_555 1_555
C24 C23 1_555 1_555
H18 C24 1_555 1_555
C25 C24 1_555 1_555
C26 C25 1_555 1_555
H19 C26 1_555 1_555
C27 C26 1_555 1_555
H20 C27 1_555 1_555
C28 N2 1_555 1_555
H21 C28 1_555 1_555
C29 N2 1_555 1_555
C30 N1 1_555 1_555
Cu1A O1A 1_555 1_555
Cu1_2 O4 1_555 1_555
Cu1A_2 O4A 1_555 1_555
Cu2_2 O4 1_555 1_555
Cu2_3 O4A 1_555 1_555
O1A C7A 1_555 1_555
O2A Cu2 1_555 1_555
O3A C8A 1_555 1_555
O4A C8A 1_555 1_555
O4_2 Cu1 1_555 1_555
O4A_2 Cu2 1_555 1_555
O5A Cu2 1_555 1_555
O6A C16A 1_555 1_555
O7A C17A 1_555 1_555
O8A H1A 1_555 1_555
N1A Cu1A 1_555 1_555
N2A Cu1A 1_555 1_555
C1A C2A 1_555 1_555
C2A H2A 1_555 1_555
C3A C2A 1_555 1_555
C4A C3A 1_555 1_555
H3A C4A 1_555 1_555
C5A C4A 1_555 1_555
C6A C1A 1_555 1_555
H4A C6A 1_555 1_555
C7A O2A 1_555 1_555
C8A C3A 1_555 1_555
C9A C5A 1_555 1_555
H5A C9A 1_555 1_555
H6A C9A 1_555 1_555
H7A C9A 1_555 1_555
C10A C11A 1_555 1_555
C11A H8A 1_555 1_555
C12A C11A 1_555 1_555
C13A C12A 1_555 1_555
H9A C13A 1_555 1_555
C14A C13A 1_555 1_555
C15A C10A 1_555 1_555
H10A C15A 1_555 1_555
C16A O5A 1_555 1_555
C17A O8A 1_555 1_555
C18A C14A 1_555 1_555
H11A C18A 1_555 1_555
H12A C18A 1_555 1_555
H13A C18A 1_555 1_555
C19A N1A 1_555 1_555
H14A C19A 1_555 1_555
C20A C19A 1_555 1_555
H15A C20A 1_555 1_555
C21A C20A 1_555 1_555
H16A C21A 1_555 1_555
C22A C21A 1_555 1_555
C23A C22A 1_555 1_555
H17A C23A 1_555 1_555
C24A C23A 1_555 1_555
H18A C24A 1_555 1_555
C25A C24A 1_555 1_555
C26A C25A 1_555 1_555
H19A C26A 1_555 1_555
C27A C26A 1_555 1_555
H20A C27A 1_555 1_555
C28A N2A 1_555 1_555
H21A C28A 1_555 1_555
C29A N2A 1_555 1_555
C30A N1A 1_555 1_555
Cu2 O5 1_555 1_555
Cu2 O4_2 1_555 1_555
C5 C6 1_555 1_555
C10 C16 1_555 1_555
C12 C17 1_555 1_555
C14 C15 1_555 1_555
C22 C30 1_555 1_555
C25 C29 1_555 1_555
C27 C28 1_555 1_555
C29 C30 1_555 1_555
Cu1A O4A_2 1_555 1_555
Cu1A O5A 1_555 1_555
C1A C7A 1_555 1_555
C5A C6A 1_555 1_555
C10A C16A 1_555 1_555
C12A C17A 1_555 1_555
C14A C15A 1_555 1_555
C22A C30A 1_555 1_555
C25A C29A 1_555 1_555
C27A C28A 1_555 1_555
C29A C30A 1_555 1_555

#END
