
#######################################################################
#
#                 Cambridge Crystallographic Data Centre
#                                CCDC 
#
#######################################################################
#
# If this CIF has been generated from an entry in the Cambridge 
# Structural Database, then it will include bibliographic, chemical, 
# crystal, experimental, refinement or atomic coordinate data resulting 
# from the CCDC's data processing and validation procedures.
#
#######################################################################

data_NEKSUT
_symmetry_cell_setting           monoclinic
_symmetry_space_group_name_H-M   'P 21/c'
_symmetry_Int_Tables_number      14
_space_group_name_Hall           '-P 2ybc'
loop_
_symmetry_equiv_pos_site_id
_symmetry_equiv_pos_as_xyz
1 x,y,z
2 -x,1/2+y,1/2-z
3 -x,-y,-z
4 x,1/2-y,1/2+z
_cell_length_a                   9.7952(4)
_cell_length_b                   17.3004(7)
_cell_length_c                   14.9976(4)
_cell_angle_alpha                90
_cell_angle_beta                 138.927(1)
_cell_angle_gamma                90
_cell_volume                     1669.82
loop_
_atom_site_label
_atom_site_type_symbol
_atom_site_fract_x
_atom_site_fract_y
_atom_site_fract_z
Cu1 Cu 1.68820(4) 0.651460(15) 0.71583(3)
Cu2 Cu 0.5000 0.5000 0.5000
O1 O 1.4543(3) 0.68269(10) 0.67076(19)
O2 O 1.3830(3) 0.57156(11) 0.7049(2)
O3 O 0.7027(2) 0.55217(9) 0.52431(18)
O4 O 0.5424(3) 0.66013(11) 0.4850(2)
O5 O 0.6137(3) 0.54586(10) 0.66198(19)
H1 H 0.535(5) 0.537(2) 0.668(4)
N1 N 1.7930(3) 0.76132(11) 0.76506(19)
N2 N 1.9760(3) 0.63403(11) 0.8135(2)
C1 C 1.1633(3) 0.67899(13) 0.6211(2)
C2 C 1.0107(3) 0.63487(13) 0.5862(2)
H2 H 1.0226 0.5801 0.5931
C3 C 0.8407(3) 0.67047(13) 0.5410(2)
C4 C 0.8218(4) 0.75032(13) 0.5284(2)
H3 H 0.7029 0.7743 0.4951
C5 C 0.9736(4) 0.79558(13) 0.5636(3)
C6 C 1.1442(4) 0.75869(14) 0.6106(2)
H4 H 1.2507 0.7888 0.6363
C7 C 1.3481(4) 0.63950(14) 0.6707(2)
C8 C 0.6803(3) 0.62503(13) 0.5120(2)
C9 C 0.9553(5) 0.88230(15) 0.5538(3)
H5 H 0.8101 0.8969 0.4723
H6 H 1.0419 0.9034 0.5485
H7 H 1.0021 0.9030 0.6343
C10 C 1.6939(3) 0.82360(14) 0.7470(2)
H8 H 1.5621 0.8171 0.7097
C11 C 1.7756(4) 0.89725(14) 0.7807(2)
H9 H 1.7029 0.9405 0.7683
C12 C 1.9651(4) 0.90646(14) 0.8325(2)
H10 H 2.0236 0.9566 0.8550
C13 C 2.0692(4) 0.84292(13) 0.8516(2)
H11 H 2.1995 0.8485 0.8867
C14 C 1.9806(3) 0.77057(13) 0.8188(2)
C15 C 2.0845(3) 0.69805(13) 0.8460(2)
C16 C 2.2782(3) 0.69373(14) 0.9025(2)
H12 H 2.3526 0.7394 0.9243
C17 C 2.3617(4) 0.62184(15) 0.9269(3)
H13 H 2.4940 0.6173 0.9644
C18 C 2.2524(4) 0.55657(14) 0.8966(3)
H14 H 2.3101 0.5067 0.9158
C19 C 2.0583(4) 0.56481(14) 0.8382(3)
H15 H 1.9808 0.5199 0.8148
Cu1B Cu -0.68820(4) 0.348540(15) 0.28417(3)
Cu1_2 Cu 0.68820(4) 0.651460(15) 0.71583(3)
Cu1B_2 Cu 0.31180(4) 0.348540(15) 0.28417(3)
O1B O -0.4543(3) 0.31731(10) 0.32924(19)
O2B O -0.3830(3) 0.42844(11) 0.2951(2)
O3B O 0.2973(2) 0.44783(9) 0.47569(18)
O4B O 0.4576(3) 0.33987(11) 0.5150(2)
O5B O 0.3863(3) 0.45414(10) 0.33802(19)
O5_2 O 1.6137(3) 0.54586(10) 0.66198(19)
O5B_2 O -0.6137(3) 0.45414(10) 0.33802(19)
H1B H 0.465(5) 0.463(2) 0.332(4)
H1_2 H 1.535(5) 0.537(2) 0.668(4)
H1B_2 H -0.535(5) 0.463(2) 0.332(4)
N1B N -0.7930(3) 0.23868(11) 0.23494(19)
N2B N -0.9760(3) 0.36597(11) 0.1865(2)
C1B C -0.1633(3) 0.32101(13) 0.3789(2)
C2B C -0.0107(3) 0.36513(13) 0.4138(2)
H2B H -0.0226 0.4199 0.4069
C3B C 0.1593(3) 0.32953(13) 0.4590(2)
C4B C 0.1782(4) 0.24968(13) 0.4716(2)
H3B H 0.2971 0.2257 0.5049
C5B C 0.0264(4) 0.20442(13) 0.4364(3)
C6B C -0.1442(4) 0.24131(14) 0.3894(2)
H4B H -0.2507 0.2112 0.3637
C7B C -0.3481(4) 0.36050(14) 0.3293(2)
C8B C 0.3197(3) 0.37497(13) 0.4880(2)
C9B C 0.0447(5) 0.11770(15) 0.4462(3)
H5B H 0.1899 0.1031 0.5277
H6B H -0.0419 0.0966 0.4515
H7B H -0.0021 0.0970 0.3657
C10B C -0.6939(3) 0.17640(14) 0.2530(2)
H8B H -0.5621 0.1829 0.2903
C11B C -0.7756(4) 0.10275(14) 0.2193(2)
H9B H -0.7029 0.0595 0.2317
C12B C -0.9651(4) 0.09354(14) 0.1675(2)
H10B H -1.0236 0.0434 0.1450
C13B C -1.0692(4) 0.15708(13) 0.1484(2)
H11B H -1.1995 0.1515 0.1133
C14B C -0.9806(3) 0.22943(13) 0.1812(2)
C15B C -1.0845(3) 0.30195(13) 0.1540(2)
C16B C -1.2782(3) 0.30627(14) 0.0975(2)
H12B H -1.3526 0.2606 0.0757
C17B C -1.3617(4) 0.37816(15) 0.0731(3)
H13B H -1.4940 0.3827 0.0356
C18B C -1.2524(4) 0.44343(14) 0.1034(3)
H14B H -1.3101 0.4933 0.0842
C19B C -1.0583(4) 0.43519(14) 0.1618(3)
H15B H -0.9808 0.4801 0.1852
loop_
_geom_bond_atom_site_label_1
_geom_bond_atom_site_label_2
_geom_bond_site_symmetry_1
_geom_bond_site_symmetry_2
Cu1 O1 1_555 1_555
Cu2 O3 1_555 1_555
O1 C7 1_555 1_555
O2 C7 1_555 1_555
O3 C8 1_555 1_555
O4 C8 1_555 1_555
O5 Cu2 1_555 1_555
H1 O5 1_555 1_555
N1 Cu1 1_555 1_555
N2 Cu1 1_555 1_555
C1 C2 1_555 1_555
C2 H2 1_555 1_555
C3 C2 1_555 1_555
C4 C3 1_555 1_555
H3 C4 1_555 1_555
C5 C4 1_555 1_555
C6 C1 1_555 1_555
H4 C6 1_555 1_555
C7 C1 1_555 1_555
C8 C3 1_555 1_555
C9 C5 1_555 1_555
H5 C9 1_555 1_555
H6 C9 1_555 1_555
H7 C9 1_555 1_555
C10 N1 1_555 1_555
H8 C10 1_555 1_555
C11 C10 1_555 1_555
H9 C11 1_555 1_555
C12 C11 1_555 1_555
H10 C12 1_555 1_555
C13 C12 1_555 1_555
H11 C13 1_555 1_555
C14 N1 1_555 1_555
C15 N2 1_555 1_555
C16 C15 1_555 1_555
H12 C16 1_555 1_555
C17 C16 1_555 1_555
H13 C17 1_555 1_555
C18 C17 1_555 1_555
H14 C18 1_555 1_555
C19 N2 1_555 1_555
H15 C19 1_555 1_555
Cu1B O1B 1_555 1_555
Cu1_2 O5 1_555 1_555
Cu1B_2 O5B 1_555 1_555
O1B C7B 1_555 1_555
O2B C7B 1_555 1_555
O3B Cu2 1_555 1_555
O4B C8B 1_555 1_555
O5B Cu2 1_555 1_555
O5_2 Cu1 1_555 1_555
O5B_2 Cu1B 1_555 1_555
H1B O5B 1_555 1_555
H1_2 O5_2 1_555 1_555
H1B_2 O5B_2 1_555 1_555
N1B Cu1B 1_555 1_555
N2B Cu1B 1_555 1_555
C1B C2B 1_555 1_555
C2B H2B 1_555 1_555
C3B C2B 1_555 1_555
C4B C3B 1_555 1_555
H3B C4B 1_555 1_555
C5B C4B 1_555 1_555
C6B C1B 1_555 1_555
H4B C6B 1_555 1_555
C7B C1B 1_555 1_555
C8B O3B 1_555 1_555
C9B C5B 1_555 1_555
H5B C9B 1_555 1_555
H6B C9B 1_555 1_555
H7B C9B 1_555 1_555
C10B N1B 1_555 1_555
H8B C10B 1_555 1_555
C11B C10B 1_555 1_555
H9B C11B 1_555 1_555
C12B C11B 1_555 1_555
H10B C12B 1_555 1_555
C13B C12B 1_555 1_555
H11B C13B 1_555 1_555
C14B N1B 1_555 1_555
C15B N2B 1_555 1_555
C16B C15B 1_555 1_555
H12B C16B 1_555 1_555
C17B C16B 1_555 1_555
H13B C17B 1_555 1_555
C18B C17B 1_555 1_555
H14B C18B 1_555 1_555
C19B N2B 1_555 1_555
H15B C19B 1_555 1_555
C5 C6 1_555 1_555
C13 C14 1_555 1_555
C14 C15 1_555 1_555
C18 C19 1_555 1_555
C3B C8B 1_555 1_555
C5B C6B 1_555 1_555
C13B C14B 1_555 1_555
C14B C15B 1_555 1_555
C18B C19B 1_555 1_555

#END
