
#######################################################################
#
#                 Cambridge Crystallographic Data Centre
#                                CCDC 
#
#######################################################################
#
# If this CIF has been generated from an entry in the Cambridge 
# Structural Database, then it will include bibliographic, chemical, 
# crystal, experimental, refinement or atomic coordinate data resulting 
# from the CCDC's data processing and validation procedures.
#
#######################################################################

data_NEKSIH
_symmetry_cell_setting           triclinic
_symmetry_space_group_name_H-M   'P -1'
_symmetry_Int_Tables_number      2
_space_group_name_Hall           '-P 1'
loop_
_symmetry_equiv_pos_site_id
_symmetry_equiv_pos_as_xyz
1 x,y,z
2 -x,-y,-z
_cell_length_a                   8.6409(4)
_cell_length_b                   11.9867(5)
_cell_length_c                   16.5066(7)
_cell_angle_alpha                89.304(1)
_cell_angle_beta                 89.792(1)
_cell_angle_gamma                73.497(1)
_cell_volume                     1639.13
loop_
_atom_site_label
_atom_site_type_symbol
_atom_site_fract_x
_atom_site_fract_y
_atom_site_fract_z
Zn1 Zn 0.76165(3) 0.67122(3) 0.704007(15)
Zn2 Zn 0.87847(3) 0.33966(3) 0.786101(15)
O1 O 0.7292(2) 0.50199(16) 0.73209(10)
O2 O 0.6096(2) 0.71238(16) 0.61545(10)
O3 O 0.5411(2) 0.89316(17) 0.66022(11)
O4 O 0.1650(2) 0.74860(16) 0.31098(10)
O5 O 0.3283(2) 0.61072(16) 0.38666(10)
O6 O 0.6405(2) 0.73229(16) 0.80443(10)
O7 O 0.5036(2) 0.60468(16) 0.82989(10)
O8 O 0.3063(2) 0.65424(17) 1.12634(10)
O9 O 0.1032(2) 0.81024(17) 1.13304(11)
N1 N 0.9858(2) 0.57975(19) 0.65160(12)
N2 N 0.9127(2) 0.7745(2) 0.73109(12)
N3 N 1.1276(2) 0.29591(19) 0.76102(11)
N4 N 0.9622(2) 0.45278(19) 0.86178(12)
C1 C 0.4062(3) 0.8530(2) 0.54535(13)
C2 C 0.3826(3) 0.7706(2) 0.49310(14)
H1 H 0.4399 0.6910 0.5009
C3 C 0.2754(3) 0.8038(2) 0.42916(13)
C4 C 0.1892(3) 0.9197(2) 0.41966(13)
H2 H 0.1161 0.9424 0.3756
C5 C 0.2075(3) 1.0030(2) 0.47313(14)
C6 C 0.3181(3) 0.9679(2) 0.53526(14)
H3 H 0.3337 1.0243 0.5719
C7 C 0.5266(3) 0.8195(2) 0.61296(14)
C8 C 0.2548(3) 0.7140(2) 0.37168(14)
C9 C 0.1129(3) 1.1277(2) 0.46421(15)
H4 H 0.0951 1.1636 0.5177
H5 H 0.0086 1.1328 0.4390
H6 H 0.1728 1.1685 0.4301
C10 C 0.4466(3) 0.7758(2) 0.90672(13)
C11 C 0.3908(3) 0.7290(2) 0.97422(14)
H7 H 0.4168 0.6470 0.9819
C12 C 0.2967(3) 0.8035(2) 1.03016(14)
C13 C 0.2597(3) 0.9215(2) 1.01854(14)
H8 H 0.1900 0.9716 1.0558
C14 C 0.3214(3) 0.9694(2) 0.95387(14)
C15 C 0.4151(3) 0.8945(2) 0.89850(14)
H9 H 0.4589 0.9255 0.8536
C16 C 0.5359(3) 0.6969(2) 0.84211(14)
C17 C 0.2313(3) 0.7531(2) 1.10118(14)
C18 C 0.2831(3) 1.0984(2) 0.94324(17)
H10 H 0.3076 1.1327 0.9935
H11 H 0.1683 1.1307 0.9304
H12 H 0.3483 1.1163 0.8989
C19 C 1.0123(3) 0.4844(3) 0.60771(16)
H13 H 0.9249 0.4529 0.5981
C20 C 1.1608(4) 0.4291(3) 0.57552(18)
H14 H 1.1760 0.3614 0.5436
C21 C 1.2870(4) 0.4746(3) 0.59088(19)
H15 H 1.3916 0.4376 0.5704
C22 C 1.2610(3) 0.5728(3) 0.63547(18)
H16 H 1.3472 0.6052 0.6463
C23 C 1.1084(3) 0.6250(2) 0.66480(14)
C24 C 1.0670(3) 0.7346(2) 0.70923(14)
C25 C 1.1758(3) 0.7966(3) 0.72383(16)
H17 H 1.2859 0.7663 0.7089
C26 C 1.1230(4) 0.9019(3) 0.75996(17)
H18 H 1.1961 0.9461 0.7703
C27 C 0.9642(4) 0.9439(3) 0.78147(16)
H19 H 0.9249 1.0181 0.8058
C28 C 0.8629(3) 0.8765(3) 0.76702(16)
H20 H 0.7533 0.9040 0.7834
C29 C 1.2079(3) 0.2033(2) 0.71993(15)
H21 H 1.1486 0.1594 0.6926
C30 C 1.3731(3) 0.1680(3) 0.71509(16)
H22 H 1.4278 0.1001 0.6862
C31 C 1.4571(3) 0.2336(3) 0.75312(16)
H23 H 1.5716 0.2116 0.7505
C32 C 1.3762(3) 0.3308(3) 0.79487(15)
H24 H 1.4333 0.3774 0.8208
C33 C 1.2102(3) 0.3595(2) 0.79842(14)
C34 C 1.1120(3) 0.4572(2) 0.84661(14)
C35 C 1.1680(3) 0.5467(3) 0.87477(16)
H25 H 1.2743 0.5497 0.8627
C36 C 1.0662(3) 0.6305(3) 0.92041(16)
H26 H 1.1006 0.6940 0.9396
C37 C 0.9154(3) 0.6233(2) 0.93852(16)
H27 H 0.8449 0.6800 0.9716
C38 C 0.8674(3) 0.5328(2) 0.90812(14)
H28 H 0.7625 0.5273 0.9208
H29 H 0.698(4) 0.464(3) 0.6951(15)
H30 H 0.654(3) 0.524(3) 0.7674(17)
Zn1A Zn 0.23835(3) 0.32878(3) 0.295993(15)
Zn2A Zn 0.12153(3) 0.66034(3) 0.213899(15)
Zn2_2 Zn 0.87847(3) 0.33966(3) -0.213899(15)
Zn2A_2 Zn 0.12153(3) 0.66034(3) 1.213899(15)
O1A O 0.2708(2) 0.49801(16) 0.26791(10)
O2A O 0.3904(2) 0.28762(16) 0.38455(10)
O3A O 0.4589(2) 0.10684(17) 0.33978(11)
O4A O 0.8350(2) 0.25140(16) 0.68902(10)
O5A O 0.6717(2) 0.38928(16) 0.61334(10)
O6A O 0.3595(2) 0.26771(16) 0.19557(10)
O7A O 0.4964(2) 0.39532(16) 0.17011(10)
O8A O 0.6937(2) 0.34576(17) -0.12634(10)
O8_2 O 0.3063(2) 0.65424(17) 0.12634(10)
O8A_2 O 0.6937(2) 0.34576(17) 0.87366(10)
O9A O 0.8968(2) 0.18976(17) -0.13304(11)
O9_2 O 0.1032(2) 0.81024(17) 0.13304(11)
O9A_2 O 0.8968(2) 0.18976(17) 0.86696(11)
N1A N 0.0142(2) 0.42025(19) 0.34840(12)
N2A N 0.0873(2) 0.2255(2) 0.26891(12)
N3A N -0.1276(2) 0.70409(19) 0.23898(11)
N4A N 0.0378(2) 0.54722(19) 0.13822(12)
C1A C 0.5938(3) 0.1470(2) 0.45465(13)
C2A C 0.6174(3) 0.2294(2) 0.50690(14)
H1A H 0.5601 0.3090 0.4991
C3A C 0.7246(3) 0.1962(2) 0.57084(13)
C4A C 0.8108(3) 0.0803(2) 0.58034(13)
H2A H 0.8839 0.0576 0.6244
C5A C 0.7925(3) -0.0030(2) 0.52687(14)
C6A C 0.6819(3) 0.0321(2) 0.46474(14)
H3A H 0.6663 -0.0243 0.4281
C7A C 0.4734(3) 0.1805(2) 0.38704(14)
C8A C 0.7452(3) 0.2860(2) 0.62832(14)
C9A C 0.8871(3) -0.1277(2) 0.53579(15)
H4A H 0.9049 -0.1636 0.4823
H5A H 0.9914 -0.1328 0.5610
H6A H 0.8272 -0.1685 0.5699
C10A C 0.5534(3) 0.2242(2) 0.09328(13)
C11A C 0.6092(3) 0.2710(2) 0.02578(14)
H7A H 0.5832 0.3530 0.0181
C12A C 0.7033(3) 0.1965(2) -0.03016(14)
C13A C 0.7403(3) 0.0785(2) -0.01854(14)
H8A H 0.8100 0.0284 -0.0558
C14A C 0.6786(3) 0.0306(2) 0.04613(14)
C15A C 0.5849(3) 0.1055(2) 0.10150(14)
H9A H 0.5411 0.0745 0.1464
C16A C 0.4641(3) 0.3031(2) 0.15789(14)
C17A C 0.7687(3) 0.2469(2) -0.10118(14)
C17_2 C 0.2313(3) 0.7531(2) 0.10118(14)
C17A_2 C 0.7687(3) 0.2469(2) 0.89882(14)
C18A C 0.7169(3) -0.0984(2) 0.05676(17)
H10A H 0.6924 -0.1327 0.0065
H11A H 0.8317 -0.1307 0.0696
H12A H 0.6517 -0.1163 0.1011
C19A C -0.0123(3) 0.5156(3) 0.39229(16)
H13A H 0.0751 0.5471 0.4019
C20A C -0.1608(4) 0.5709(3) 0.42448(18)
H14A H -0.1760 0.6386 0.4564
C21A C -0.2870(4) 0.5254(3) 0.40912(19)
H15A H -0.3916 0.5624 0.4296
C22A C -0.2610(3) 0.4272(3) 0.36453(18)
H16A H -0.3472 0.3948 0.3537
C23A C -0.1084(3) 0.3750(2) 0.33520(14)
C24A C -0.0670(3) 0.2654(2) 0.29077(14)
C25A C -0.1758(3) 0.2034(3) 0.27617(16)
H17A H -0.2859 0.2337 0.2911
C26A C -0.1230(4) 0.0981(3) 0.24004(17)
H18A H -0.1961 0.0539 0.2297
C27A C 0.0358(4) 0.0561(3) 0.21853(16)
H19A H 0.0751 -0.0181 0.1942
C28A C 0.1371(3) 0.1235(3) 0.23298(16)
H20A H 0.2467 0.0960 0.2166
C29A C -0.2079(3) 0.7967(2) 0.28007(15)
H21A H -0.1486 0.8406 0.3074
C30A C -0.3731(3) 0.8320(3) 0.28491(16)
H22A H -0.4278 0.8999 0.3138
C31A C -0.4571(3) 0.7664(3) 0.24688(16)
H23A H -0.5716 0.7884 0.2495
C32A C -0.3762(3) 0.6692(3) 0.20513(15)
H24A H -0.4333 0.6226 0.1792
C33A C -0.2102(3) 0.6405(2) 0.20158(14)
C34A C -0.1120(3) 0.5428(2) 0.15339(14)
C35A C -0.1680(3) 0.4533(3) 0.12523(16)
H25A H -0.2743 0.4503 0.1373
C36A C -0.0662(3) 0.3695(3) 0.07959(16)
H26A H -0.1006 0.3060 0.0604
C37A C 0.0846(3) 0.3767(2) 0.06148(16)
H27A H 0.1551 0.3200 0.0284
C38A C 0.1326(3) 0.4672(2) 0.09188(14)
H28A H 0.2375 0.4727 0.0792
H29A H 0.302(4) 0.536(3) 0.3049(15)
H30A H 0.346(3) 0.476(3) 0.2326(17)
loop_
_geom_bond_atom_site_label_1
_geom_bond_atom_site_label_2
_geom_bond_site_symmetry_1
_geom_bond_site_symmetry_2
Zn1 O1 1_555 1_555
Zn2 O1 1_555 1_555
O1 H29 1_555 1_555
O2 Zn1 1_555 1_555
O3 C7 1_555 1_555
O4 C8 1_555 1_555
O5 C8 1_555 1_555
O6 Zn1 1_555 1_555
O7 C16 1_555 1_555
O8 C17 1_555 1_555
O9 C17 1_555 1_555
N1 Zn1 1_555 1_555
N2 Zn1 1_555 1_555
N3 Zn2 1_555 1_555
N4 Zn2 1_555 1_555
C1 C2 1_555 1_555
C2 H1 1_555 1_555
C3 C2 1_555 1_555
C4 C3 1_555 1_555
H2 C4 1_555 1_555
C5 C4 1_555 1_555
C6 C1 1_555 1_555
H3 C6 1_555 1_555
C7 O2 1_555 1_555
C8 C3 1_555 1_555
C9 C5 1_555 1_555
H4 C9 1_555 1_555
H5 C9 1_555 1_555
H6 C9 1_555 1_555
C10 C11 1_555 1_555
C11 H7 1_555 1_555
C12 C11 1_555 1_555
C13 C12 1_555 1_555
H8 C13 1_555 1_555
C14 C13 1_555 1_555
C15 C10 1_555 1_555
H9 C15 1_555 1_555
C16 O6 1_555 1_555
C17 C12 1_555 1_555
C18 C14 1_555 1_555
H10 C18 1_555 1_555
H11 C18 1_555 1_555
H12 C18 1_555 1_555
C19 N1 1_555 1_555
H13 C19 1_555 1_555
C20 C19 1_555 1_555
H14 C20 1_555 1_555
C21 C20 1_555 1_555
H15 C21 1_555 1_555
C22 C21 1_555 1_555
H16 C22 1_555 1_555
C23 N1 1_555 1_555
C24 N2 1_555 1_555
C25 C24 1_555 1_555
H17 C25 1_555 1_555
C26 C25 1_555 1_555
H18 C26 1_555 1_555
C27 C26 1_555 1_555
H19 C27 1_555 1_555
C28 N2 1_555 1_555
H20 C28 1_555 1_555
C29 N3 1_555 1_555
H21 C29 1_555 1_555
C30 C29 1_555 1_555
H22 C30 1_555 1_555
C31 C30 1_555 1_555
H23 C31 1_555 1_555
C32 C31 1_555 1_555
H24 C32 1_555 1_555
C33 N3 1_555 1_555
C34 N4 1_555 1_555
C35 C34 1_555 1_555
H25 C35 1_555 1_555
C36 C35 1_555 1_555
H26 C36 1_555 1_555
C37 C36 1_555 1_555
H27 C37 1_555 1_555
C38 N4 1_555 1_555
H28 C38 1_555 1_555
H30 O1 1_555 1_555
Zn1A O1A 1_555 1_555
Zn2A O4 1_555 1_555
Zn2_2 O8A 1_555 1_555
Zn2A_2 O8 1_555 1_555
O1A Zn2A 1_555 1_555
O2A Zn1A 1_555 1_555
O3A C7A 1_555 1_555
O4A Zn2 1_555 1_555
O5A C8A 1_555 1_555
O6A Zn1A 1_555 1_555
O7A C16A 1_555 1_555
O8A C17A 1_555 1_555
O8_2 Zn2A 1_555 1_555
O8A_2 Zn2 1_555 1_555
O9A Zn2_2 1_555 1_555
O9_2 Zn2A 1_555 1_555
O9A_2 Zn2 1_555 1_555
N1A Zn1A 1_555 1_555
N2A Zn1A 1_555 1_555
N3A Zn2A 1_555 1_555
N4A Zn2A 1_555 1_555
C1A C2A 1_555 1_555
C2A H1A 1_555 1_555
C3A C2A 1_555 1_555
C4A C3A 1_555 1_555
H2A C4A 1_555 1_555
C5A C4A 1_555 1_555
C6A C1A 1_555 1_555
H3A C6A 1_555 1_555
C7A O2A 1_555 1_555
C8A O4A 1_555 1_555
C9A C5A 1_555 1_555
H4A C9A 1_555 1_555
H5A C9A 1_555 1_555
H6A C9A 1_555 1_555
C10A C11A 1_555 1_555
C11A H7A 1_555 1_555
C12A C11A 1_555 1_555
C13A C12A 1_555 1_555
H8A C13A 1_555 1_555
C14A C13A 1_555 1_555
C15A C10A 1_555 1_555
H9A C15A 1_555 1_555
C16A O6A 1_555 1_555
C17A O9A 1_555 1_555
C17_2 O8_2 1_555 1_555
C17A_2 O8A_2 1_555 1_555
C18A C14A 1_555 1_555
H10A C18A 1_555 1_555
H11A C18A 1_555 1_555
H12A C18A 1_555 1_555
C19A N1A 1_555 1_555
H13A C19A 1_555 1_555
C20A C19A 1_555 1_555
H14A C20A 1_555 1_555
C21A C20A 1_555 1_555
H15A C21A 1_555 1_555
C22A C21A 1_555 1_555
H16A C22A 1_555 1_555
C23A N1A 1_555 1_555
C24A N2A 1_555 1_555
C25A C24A 1_555 1_555
H17A C25A 1_555 1_555
C26A C25A 1_555 1_555
H18A C26A 1_555 1_555
C27A C26A 1_555 1_555
H19A C27A 1_555 1_555
C28A N2A 1_555 1_555
H20A C28A 1_555 1_555
C29A N3A 1_555 1_555
H21A C29A 1_555 1_555
C30A C29A 1_555 1_555
H22A C30A 1_555 1_555
C31A C30A 1_555 1_555
H23A C31A 1_555 1_555
C32A C31A 1_555 1_555
H24A C32A 1_555 1_555
C33A N3A 1_555 1_555
C34A N4A 1_555 1_555
C35A C34A 1_555 1_555
H25A C35A 1_555 1_555
C36A C35A 1_555 1_555
H26A C36A 1_555 1_555
C37A C36A 1_555 1_555
H27A C37A 1_555 1_555
C38A N4A 1_555 1_555
H28A C38A 1_555 1_555
H29A O1A 1_555 1_555
H30A O1A 1_555 1_555
O9 Zn2A_2 1_555 1_555
C1 C7 1_555 1_555
C5 C6 1_555 1_555
C10 C16 1_555 1_555
C14 C15 1_555 1_555
C22 C23 1_555 1_555
C23 C24 1_555 1_555
C27 C28 1_555 1_555
C32 C33 1_555 1_555
C33 C34 1_555 1_555
C37 C38 1_555 1_555
O9_2 C17_2 1_555 1_555
O9A_2 C17A_2 1_555 1_555
C1A C7A 1_555 1_555
C3A C8A 1_555 1_555
C5A C6A 1_555 1_555
C10A C16A 1_555 1_555
C12A C17A 1_555 1_555
C14A C15A 1_555 1_555
C22A C23A 1_555 1_555
C23A C24A 1_555 1_555
C27A C28A 1_555 1_555
C32A C33A 1_555 1_555
C33A C34A 1_555 1_555
C37A C38A 1_555 1_555

#END
