
#######################################################################
#
#                 Cambridge Crystallographic Data Centre
#                                CCDC 
#
#######################################################################
#
# If this CIF has been generated from an entry in the Cambridge 
# Structural Database, then it will include bibliographic, chemical, 
# crystal, experimental, refinement or atomic coordinate data resulting 
# from the CCDC's data processing and validation procedures.
#
#######################################################################

data_NEKSON
_symmetry_cell_setting           monoclinic
_symmetry_space_group_name_H-M   'C 2/c'
_symmetry_Int_Tables_number      15
_space_group_name_Hall           '-C 2yn'
loop_
_symmetry_equiv_pos_site_id
_symmetry_equiv_pos_as_xyz
1 x,y,z
2 -x,y,1/2-z
3 1/2+x,1/2+y,z
4 1/2-x,1/2+y,1/2-z
5 -x,-y,-z
6 x,-y,1/2+z
7 1/2-x,1/2-y,-z
8 1/2+x,1/2-y,1/2+z
_cell_length_a                   37.8339(17)
_cell_length_b                   21.0751(10)
_cell_length_c                   17.8468(8)
_cell_angle_alpha                90
_cell_angle_beta                 101.727(1)
_cell_angle_gamma                90
_cell_volume                     13933.2
loop_
_atom_site_label
_atom_site_type_symbol
_atom_site_fract_x
_atom_site_fract_y
_atom_site_fract_z
Zn1 Zn 0.091640(7) 0.339067(13) 0.324817(15)
Zn2 Zn 0.149654(8) 0.345450(13) 0.172584(15)
Zn3 Zn 0.160252(8) 0.144161(13) 0.676209(15)
Zn4 Zn 0.099706(8) 0.142788(13) 0.827035(15)
O1 O 0.13698(5) 0.28504(9) 0.34286(10)
O2 O 0.17472(5) 0.29449(9) 0.26178(10)
O3 O 0.22593(6) 0.10991(11) 0.59990(12)
O4 O 0.17640(5) 0.16978(8) 0.58354(10)
O5 O 0.10984(5) 0.18544(9) 0.65184(10)
O6 O 0.08270(5) 0.20950(8) 0.74912(10)
O7 O 0.02869(5) 0.37808(10) 0.40087(11)
O8 O 0.07485(5) 0.31024(9) 0.41522(10)
O9 O 0.06219(5) 0.28211(9) 0.24416(10)
O10 O 0.09993(5) 0.30661(10) 0.16931(11)
O11 O 0.09116(6) 0.18211(10) -0.07613(11)
O12 O 0.04180(9) 0.13335(19) -0.11978(18)
O13 O 0.18129(5) 0.21245(8) -0.24861(10)
O14 O 0.15304(5) 0.16959(9) -0.16299(10)
O15 O 0.15826(6) 0.29441(10) 0.08081(11)
O16 O 0.20006(7) 0.36674(13) 0.10966(13)
N1 N 0.12693(6) 0.41413(10) 0.38661(12)
N2 N 0.07076(6) 0.42493(10) 0.26891(12)
N3 N 0.17131(6) 0.43164(10) 0.23112(12)
N4 N 0.11792(6) 0.41961(10) 0.10822(12)
N5 N 0.19254(6) 0.07233(10) 0.74505(12)
N6 N 0.13314(6) 0.05702(10) 0.63634(13)
N7 N 0.12336(6) 0.05517(10) 0.87100(12)
N8 N 0.06727(6) 0.07134(10) 0.75524(12)
C1 C 0.19504(6) 0.24082(11) 0.37775(13)
C2 C 0.18766(6) 0.21605(11) 0.44528(13)
H1 H 0.1651 0.2243 0.4587
C3 C 0.21348(6) 0.17903(11) 0.49330(14)
C4 C 0.24654(6) 0.16815(11) 0.47307(14)
H2 H 0.2640 0.1424 0.5051
C5 C 0.25468(6) 0.19423(11) 0.40661(14)
C6 C 0.22870(6) 0.23071(11) 0.35951(13)
H3 H 0.2339 0.2490 0.3143
C7 C 0.16648(7) 0.27657(11) 0.32298(13)
C8 C 0.20550(7) 0.15008(11) 0.56524(14)
C9 C 0.29048(7) 0.18240(12) 0.38490(15)
H4 H 0.2913 0.2048 0.3372
H5 H 0.2935 0.1368 0.3777
H6 H 0.3099 0.1979 0.4257
C10 C 0.05955(6) 0.25411(11) 0.62864(13)
C11 C 0.06564(6) 0.27352(11) 0.55797(13)
H7 H 0.0868 0.2602 0.5415
C12 C 0.04072(6) 0.31256(11) 0.51109(13)
C13 C 0.00915(7) 0.32989(12) 0.53485(14)
H8 H -0.0078 0.3566 0.5031
C14 C 0.00202(7) 0.30878(12) 0.60406(14)
C15 C 0.02769(7) 0.27168(12) 0.65083(14)
H9 H 0.0235 0.2580 0.6990
C16 C 0.08650(6) 0.21320(11) 0.68054(14)
C17 C 0.04773(7) 0.33610(11) 0.43597(14)
C18 C -0.03257(7) 0.32550(14) 0.62901(16)
H10 H -0.0362 0.2964 0.6695
H11 H -0.0529 0.3219 0.5853
H12 H -0.0311 0.3691 0.6484
C19 C 0.05143(6) 0.23876(11) 0.11917(13)
C20 C 0.06569(7) 0.22269(12) 0.05557(14)
H13 H 0.0889 0.2376 0.0512
C21 C 0.04568(7) 0.18467(13) -0.00152(14)
C22 C 0.01171(7) 0.16411(13) 0.00510(15)
H14 H -0.0019 0.1385 -0.0343
C23 C -0.00309(7) 0.17999(12) 0.06792(15)
C24 C 0.01740(6) 0.21765(11) 0.12495(14)
H15 H 0.0079 0.2290 0.1684
C25 C 0.07307(6) 0.27817(11) 0.18197(14)
C26 C 0.06033(9) 0.16485(16) -0.07046(17)
C27 C -0.04000(7) 0.15744(14) 0.07412(17)
H16 H -0.0552 0.1538 0.0228
H17 H -0.0508 0.1879 0.1043
H18 H -0.0381 0.1159 0.0993
C28 C 0.19406(6) 0.25352(11) -0.12335(13)
C29 C 0.18097(7) 0.26541(12) -0.05692(14)
H19 H 0.1595 0.2455 -0.0491
C30 C 0.19978(7) 0.30669(13) -0.00244(14)
C31 C 0.23156(8) 0.33435(13) -0.01393(16)
H20 H 0.2443 0.3623 0.0238
C32 C 0.24518(7) 0.32228(13) -0.07892(15)
C33 C 0.22565(7) 0.28192(12) -0.13373(15)
H21 H 0.2342 0.2737 -0.1793
C34 C 0.17418(6) 0.20889(11) -0.18249(14)
C35 C 0.18555(9) 0.32332(15) 0.06760(16)
C36 C 0.28001(8) 0.35159(16) -0.08966(19)
H22 H 0.2950 0.3618 -0.0396
H23 H 0.2749 0.3905 -0.1200
H24 H 0.2929 0.3216 -0.1164
C37 C 0.15428(7) 0.40786(13) 0.44588(15)
H25 H 0.1615 0.3663 0.4631
C38 C 0.17282(8) 0.45937(15) 0.48402(17)
H26 H 0.1921 0.4527 0.5266
C39 C 0.16308(8) 0.51950(15) 0.45965(16)
H27 H 0.1755 0.5550 0.4851
C40 C 0.13455(7) 0.52850(13) 0.39677(16)
C41 C 0.12254(8) 0.58948(13) 0.36610(17)
H28 H 0.1343 0.6268 0.3885
C42 C 0.09478(8) 0.59435(13) 0.30586(18)
H29 H 0.0875 0.6352 0.2861
C43 C 0.07595(7) 0.53970(12) 0.27071(16)
C44 C 0.04594(8) 0.54217(14) 0.20872(17)
H30 H 0.0374 0.5818 0.1869
C45 C 0.02926(8) 0.48719(15) 0.18045(16)
H31 H 0.0088 0.4884 0.1396
C46 C 0.04248(7) 0.42927(13) 0.21189(15)
H32 H 0.0307 0.3914 0.1915
C47 C 0.08706(7) 0.47889(12) 0.29873(14)
C48 C 0.11702(7) 0.47365(12) 0.36254(14)
C49 C 0.19944(7) 0.43683(14) 0.28904(16)
H33 H 0.2103 0.3991 0.3121
C50 C 0.21367(8) 0.49490(16) 0.31750(18)
H34 H 0.2342 0.4965 0.3582
C51 C 0.19765(8) 0.54990(15) 0.28589(18)
H35 H 0.2064 0.5900 0.3059
C52 C 0.16789(7) 0.54631(13) 0.22315(17)
C53 C 0.14921(8) 0.60058(13) 0.1861(2)
H36 H 0.1565 0.6418 0.2046
C54 C 0.12167(8) 0.59450(13) 0.12591(19)
H37 H 0.1099 0.6314 0.1024
C55 C 0.10970(8) 0.53308(13) 0.09649(17)
C56 C 0.08141(8) 0.52290(15) 0.03345(17)
H38 H 0.0688 0.5580 0.0072
C57 C 0.07203(8) 0.46240(15) 0.00980(17)
H39 H 0.0528 0.4552 -0.0327
C58 C 0.09085(8) 0.41157(14) 0.04851(16)
H40 H 0.0842 0.3697 0.0318
C59 C 0.12713(7) 0.47930(12) 0.13239(15)
C60 C 0.15641(7) 0.48547(12) 0.19742(15)
C61 C 0.22225(8) 0.08051(15) 0.79817(16)
H41 H 0.2313 0.1224 0.8084
C62 C 0.24083(9) 0.03064(17) 0.83962(18)
H42 H 0.2621 0.0385 0.8770
C63 C 0.22821(9) -0.02948(17) 0.82597(18)
H43 H 0.2402 -0.0638 0.8549
C64 C 0.19750(9) -0.04063(14) 0.76915(18)
C65 C 0.18298(10) -0.10221(15) 0.7485(2)
H44 H 0.1939 -0.1381 0.7759
C66 C 0.15428(10) -0.11067(15) 0.6915(2)
H45 H 0.1457 -0.1524 0.6784
C67 C 0.13639(9) -0.05738(14) 0.64993(19)
C68 C 0.10626(10) -0.06224(17) 0.5896(2)
H46 H 0.0969 -0.1028 0.5728
C69 C 0.09034(10) -0.00868(18) 0.5551(2)
H47 H 0.0700 -0.0116 0.5141
C70 C 0.10444(8) 0.05036(16) 0.58081(18)
H48 H 0.0929 0.0874 0.5574
C71 C 0.14907(7) 0.00386(12) 0.67038(16)
C72 C 0.18055(7) 0.01249(12) 0.72988(15)
C73 C 0.15106(8) 0.04865(14) 0.92867(17)
H49 H 0.1627 0.0857 0.9518
C74 C 0.16392(9) -0.01058(16) 0.9571(2)
H50 H 0.1837 -0.0136 0.9993
C75 C 0.14763(9) -0.06407(15) 0.9234(2)
H51 H 0.1559 -0.1047 0.9425
C76 C 0.11870(8) -0.05907(13) 0.86057(17)
C77 C 0.10063(9) -0.11268(14) 0.82080(19)
H52 H 0.1088 -0.1543 0.8355
C78 C 0.07205(9) -0.10453(13) 0.76275(18)
H53 H 0.0603 -0.1406 0.7371
C79 C 0.05899(8) -0.04223(14) 0.73892(17)
C80 C 0.02857(9) -0.03073(17) 0.68075(18)
H54 H 0.0155 -0.0652 0.6541
C81 C 0.01785(9) 0.03001(17) 0.66284(18)
H55 H -0.0031 0.0383 0.6248
C82 C 0.03805(8) 0.07979(15) 0.70109(16)
H56 H 0.0305 0.1220 0.6877
C83 C 0.07719(7) 0.01108(12) 0.77487(14)
C84 C 0.10727(7) 0.00233(12) 0.83690(15)
Zn3_2 Zn 0.160252(8) 0.144161(13) -0.323791(15)
Zn4_2 Zn 0.099706(8) 0.142788(13) -0.172965(15)
O11_2 O 0.09116(6) 0.18211(10) 0.92387(11)
O13_2 O 0.18129(5) 0.21245(8) 0.75139(10)
O14_2 O 0.15304(5) 0.16959(9) 0.83701(10)
loop_
_geom_bond_atom_site_label_1
_geom_bond_atom_site_label_2
_geom_bond_site_symmetry_1
_geom_bond_site_symmetry_2
Zn1 O1 1_555 1_555
Zn2 O2 1_555 1_555
Zn3 O4 1_555 1_555
Zn4 O6 1_555 1_555
O1 C7 1_555 1_555
O2 C7 1_555 1_555
O3 C8 1_555 1_555
O4 C8 1_555 1_555
O5 Zn3 1_555 1_555
O6 C16 1_555 1_555
O7 C17 1_555 1_555
O8 Zn1 1_555 1_555
O9 Zn1 1_555 1_555
O10 Zn2 1_555 1_555
O11 C26 1_555 1_555
O12 C26 1_555 1_555
O13 C34 1_555 1_555
O14 C34 1_555 1_555
O15 Zn2 1_555 1_555
O16 C35 1_555 1_555
N1 Zn1 1_555 1_555
N2 Zn1 1_555 1_555
N3 Zn2 1_555 1_555
N4 Zn2 1_555 1_555
N5 Zn3 1_555 1_555
N6 Zn3 1_555 1_555
N7 Zn4 1_555 1_555
N8 Zn4 1_555 1_555
C1 C2 1_555 1_555
C2 H1 1_555 1_555
C3 C2 1_555 1_555
C4 C3 1_555 1_555
H2 C4 1_555 1_555
C5 C4 1_555 1_555
C6 C1 1_555 1_555
H3 C6 1_555 1_555
C7 C1 1_555 1_555
C8 C3 1_555 1_555
C9 C5 1_555 1_555
H4 C9 1_555 1_555
H5 C9 1_555 1_555
H6 C9 1_555 1_555
C10 C11 1_555 1_555
C11 H7 1_555 1_555
C12 C11 1_555 1_555
C13 C12 1_555 1_555
H8 C13 1_555 1_555
C14 C13 1_555 1_555
C15 C10 1_555 1_555
H9 C15 1_555 1_555
C16 O5 1_555 1_555
C17 O8 1_555 1_555
C18 C14 1_555 1_555
H10 C18 1_555 1_555
H11 C18 1_555 1_555
H12 C18 1_555 1_555
C19 C20 1_555 1_555
C20 H13 1_555 1_555
C21 C20 1_555 1_555
C22 C21 1_555 1_555
H14 C22 1_555 1_555
C23 C22 1_555 1_555
C24 C19 1_555 1_555
H15 C24 1_555 1_555
C25 O9 1_555 1_555
C26 C21 1_555 1_555
C27 C23 1_555 1_555
H16 C27 1_555 1_555
H17 C27 1_555 1_555
H18 C27 1_555 1_555
C28 C29 1_555 1_555
C29 H19 1_555 1_555
C30 C29 1_555 1_555
C31 C30 1_555 1_555
H20 C31 1_555 1_555
C32 C31 1_555 1_555
C33 C28 1_555 1_555
H21 C33 1_555 1_555
C34 C28 1_555 1_555
C35 O15 1_555 1_555
C36 C32 1_555 1_555
H22 C36 1_555 1_555
H23 C36 1_555 1_555
H24 C36 1_555 1_555
C37 N1 1_555 1_555
H25 C37 1_555 1_555
C38 C37 1_555 1_555
H26 C38 1_555 1_555
C39 C38 1_555 1_555
H27 C39 1_555 1_555
C40 C39 1_555 1_555
C41 C40 1_555 1_555
H28 C41 1_555 1_555
C42 C41 1_555 1_555
H29 C42 1_555 1_555
C43 C42 1_555 1_555
C44 C43 1_555 1_555
H30 C44 1_555 1_555
C45 C44 1_555 1_555
H31 C45 1_555 1_555
C46 N2 1_555 1_555
H32 C46 1_555 1_555
C47 N2 1_555 1_555
C48 N1 1_555 1_555
C49 N3 1_555 1_555
H33 C49 1_555 1_555
C50 C49 1_555 1_555
H34 C50 1_555 1_555
C51 C50 1_555 1_555
H35 C51 1_555 1_555
C52 C51 1_555 1_555
C53 C52 1_555 1_555
H36 C53 1_555 1_555
C54 C53 1_555 1_555
H37 C54 1_555 1_555
C55 C54 1_555 1_555
C56 C55 1_555 1_555
H38 C56 1_555 1_555
C57 C56 1_555 1_555
H39 C57 1_555 1_555
C58 N4 1_555 1_555
H40 C58 1_555 1_555
C59 N4 1_555 1_555
C60 N3 1_555 1_555
C61 N5 1_555 1_555
H41 C61 1_555 1_555
C62 C61 1_555 1_555
H42 C62 1_555 1_555
C63 C62 1_555 1_555
H43 C63 1_555 1_555
C64 C63 1_555 1_555
C65 C64 1_555 1_555
H44 C65 1_555 1_555
C66 C65 1_555 1_555
H45 C66 1_555 1_555
C67 C66 1_555 1_555
C68 C67 1_555 1_555
H46 C68 1_555 1_555
C69 C68 1_555 1_555
H47 C69 1_555 1_555
C70 N6 1_555 1_555
H48 C70 1_555 1_555
C71 N6 1_555 1_555
C72 N5 1_555 1_555
C73 N7 1_555 1_555
H49 C73 1_555 1_555
C74 C73 1_555 1_555
H50 C74 1_555 1_555
C75 C74 1_555 1_555
H51 C75 1_555 1_555
C76 C75 1_555 1_555
C77 C76 1_555 1_555
H52 C77 1_555 1_555
C78 C77 1_555 1_555
H53 C78 1_555 1_555
C79 C78 1_555 1_555
C80 C79 1_555 1_555
H54 C80 1_555 1_555
C81 C80 1_555 1_555
H55 C81 1_555 1_555
C82 N8 1_555 1_555
H56 C82 1_555 1_555
C83 N8 1_555 1_555
C84 N7 1_555 1_555
Zn3_2 O13 1_555 1_555
Zn4_2 O11 1_555 1_555
O11_2 Zn4 1_555 1_555
O13_2 Zn3 1_555 1_555
O14_2 Zn4 1_555 1_555
O10 C25 1_555 1_555
O14 Zn4_2 1_555 1_555
C5 C6 1_555 1_555
C10 C16 1_555 1_555
C12 C17 1_555 1_555
C14 C15 1_555 1_555
C19 C25 1_555 1_555
C23 C24 1_555 1_555
C30 C35 1_555 1_555
C32 C33 1_555 1_555
C40 C48 1_555 1_555
C43 C47 1_555 1_555
C45 C46 1_555 1_555
C47 C48 1_555 1_555
C52 C60 1_555 1_555
C55 C59 1_555 1_555
C57 C58 1_555 1_555
C59 C60 1_555 1_555
C64 C72 1_555 1_555
C67 C71 1_555 1_555
C69 C70 1_555 1_555
C71 C72 1_555 1_555
C76 C84 1_555 1_555
C79 C83 1_555 1_555
C81 C82 1_555 1_555
C83 C84 1_555 1_555

#END
