
#######################################################################
#
#                 Cambridge Crystallographic Data Centre
#                                CCDC 
#
#######################################################################
#
# If this CIF has been generated from an entry in the Cambridge 
# Structural Database, then it will include bibliographic, chemical, 
# crystal, experimental, refinement or atomic coordinate data resulting 
# from the CCDC's data processing and validation procedures.
#
#######################################################################

data_NEKTEE
_symmetry_cell_setting           triclinic
_symmetry_space_group_name_H-M   'P -1'
_symmetry_Int_Tables_number      2
_space_group_name_Hall           '-P 1'
loop_
_symmetry_equiv_pos_site_id
_symmetry_equiv_pos_as_xyz
1 x,y,z
2 -x,-y,-z
_cell_length_a                   8.3494(14)
_cell_length_b                   12.8390(16)
_cell_length_c                   13.4258(14)
_cell_angle_alpha                70.827(10)
_cell_angle_beta                 72.940(12)
_cell_angle_gamma                84.669(12)
_cell_volume                     1299.56
loop_
_atom_site_label
_atom_site_type_symbol
_atom_site_fract_x
_atom_site_fract_y
_atom_site_fract_z
Mn1 Mn 0.13933(9) 0.89088(6) 0.09579(5)
O1 O 0.1980(4) 0.7059(3) 0.1452(2)
O2 O 0.3414(4) 0.8216(3) 0.1756(2)
C6 C 0.3122(6) 0.7238(4) 0.1826(3)
C7 C 0.4059(6) 0.6305(4) 0.2400(3)
C8 C 0.3792(6) 0.5244(4) 0.2414(4)
H5 H 0.3103 0.5133 0.2024
C9 C 0.4569(7) 0.4341(4) 0.3021(4)
H6 H 0.4390 0.3630 0.3041
C10 C 0.5587(7) 0.4517(4) 0.3581(4)
H7 H 0.6066 0.3918 0.4005
C11 C 0.5916(7) 0.5574(4) 0.3526(4)
H8 H 0.6658 0.5692 0.3877
C12 C 0.5111(6) 0.6467(4) 0.2932(3)
H9 H 0.5304 0.7179 0.2906
N3 N -0.0438(5) 0.8849(3) 0.2623(3)
C13 C -0.1505(6) 0.7985(4) 0.3198(4)
H10 H -0.1460 0.7417 0.2904
C14 C -0.2653(6) 0.7906(4) 0.4196(4)
H11 H -0.3387 0.7311 0.4557
C15 C -0.2686(6) 0.8741(4) 0.4651(4)
C16 C -0.1600(7) 0.9617(4) 0.4100(4)
H12 H -0.1598 1.0178 0.4396
C17 C -0.0497(7) 0.9642(4) 0.3082(4)
H13 H 0.0232 1.0239 0.2704
N4 N -0.3869(5) 0.8576(3) 0.5726(3)
N5 N -0.3900(5) 0.9427(3) 0.6027(3)
C18 C -0.5041(6) 0.9244(4) 0.7126(4)
C19 C -0.6252(6) 0.8434(4) 0.7659(4)
H14 H -0.6423 0.7952 0.7312
C20 C -0.7214(6) 0.8347(4) 0.8717(4)
H15 H -0.8020 0.7793 0.9077
N6 N -0.7018(5) 0.9044(3) 0.9245(3)
C21 C -0.5842(6) 0.9872(4) 0.8680(4)
H16 H -0.5722 1.0371 0.9023
C22 C -0.4834(6) 0.9997(4) 0.7630(4)
H17 H -0.4046 1.0562 0.7270
O3 O -0.0749(4) 0.8636(3) 0.0576(2)
C23 C -0.1517(6) 0.8600(4) -0.0088(4)
O4 O -0.1956(4) 0.9431(3) -0.0766(2)
C24 C -0.2006(6) 0.7489(4) -0.0076(4)
C25 C -0.3000(6) 0.7430(4) -0.0716(4)
H18 H -0.3373 0.8071 -0.1157
C26 C -0.3437(7) 0.6401(4) -0.0693(4)
H19 H -0.4131 0.6357 -0.1108
C27 C -0.2852(6) 0.5435(4) -0.0059(4)
H20 H -0.3136 0.4751 -0.0058
C28 C -0.1834(6) 0.5509(4) 0.0573(4)
H21 H -0.1436 0.4868 0.0998
C29 C -0.1410(6) 0.6519(4) 0.0577(4)
H22 H -0.0739 0.6562 0.1006
Mn1A Mn -0.13933(9) 1.10912(6) -0.09579(5)
Mn1_2 Mn -0.86067(9) 0.89088(6) 1.09579(5)
Mn1A_2 Mn 0.86067(9) 1.10912(6) -1.09579(5)
O1A O -0.1980(4) 1.2941(3) -0.1452(2)
O2A O -0.3414(4) 1.1784(3) -0.1756(2)
C6A C -0.3122(6) 1.2762(4) -0.1826(3)
C7A C -0.4059(6) 1.3695(4) -0.2400(3)
C8A C -0.3792(6) 1.4756(4) -0.2414(4)
H5A H -0.3103 1.4867 -0.2024
C9A C -0.4569(7) 1.5659(4) -0.3021(4)
H6A H -0.4390 1.6370 -0.3041
C10A C -0.5587(7) 1.5483(4) -0.3581(4)
H7A H -0.6066 1.6082 -0.4005
C11A C -0.5916(7) 1.4426(4) -0.3526(4)
H8A H -0.6658 1.4308 -0.3877
C12A C -0.5111(6) 1.3533(4) -0.2932(3)
H9A H -0.5304 1.2821 -0.2906
N3A N 0.0438(5) 1.1151(3) -0.2623(3)
C13A C 0.1505(6) 1.2015(4) -0.3198(4)
H10A H 0.1460 1.2583 -0.2904
C14A C 0.2653(6) 1.2094(4) -0.4196(4)
H11A H 0.3387 1.2689 -0.4557
C15A C 0.2686(6) 1.1259(4) -0.4651(4)
C16A C 0.1600(7) 1.0383(4) -0.4100(4)
H12A H 0.1598 0.9822 -0.4396
C17A C 0.0497(7) 1.0358(4) -0.3082(4)
H13A H -0.0232 0.9761 -0.2704
N4A N 0.3869(5) 1.1424(3) -0.5726(3)
N5A N 0.3900(5) 1.0573(3) -0.6027(3)
C18A C 0.5041(6) 1.0756(4) -0.7126(4)
C19A C 0.6252(6) 1.1566(4) -0.7659(4)
H14A H 0.6423 1.2048 -0.7312
C20A C 0.7214(6) 1.1653(4) -0.8717(4)
H15A H 0.8020 1.2207 -0.9077
N6A N 0.7018(5) 1.0956(3) -0.9245(3)
N6_2 N 0.2982(5) 0.9044(3) -0.0755(3)
N6A_2 N -0.2982(5) 1.0956(3) 0.0755(3)
C21A C 0.5842(6) 1.0128(4) -0.8680(4)
H16A H 0.5722 0.9629 -0.9023
C22A C 0.4834(6) 1.0003(4) -0.7630(4)
H17A H 0.4046 0.9438 -0.7270
O3A O 0.0749(4) 1.1364(3) -0.0576(2)
C23A C 0.1517(6) 1.1400(4) 0.0088(4)
O4A O 0.1956(4) 1.0569(3) 0.0766(2)
C24A C 0.2006(6) 1.2511(4) 0.0076(4)
C25A C 0.3000(6) 1.2570(4) 0.0716(4)
H18A H 0.3373 1.1929 0.1157
C26A C 0.3437(7) 1.3599(4) 0.0693(4)
H19A H 0.4131 1.3643 0.1108
C27A C 0.2852(6) 1.4565(4) 0.0059(4)
H20A H 0.3136 1.5249 0.0058
C28A C 0.1834(6) 1.4491(4) -0.0573(4)
H21A H 0.1436 1.5132 -0.0998
C29A C 0.1410(6) 1.3481(4) -0.0577(4)
H22A H 0.0739 1.3438 -0.1006
N1 N 0.8952(6) 0.2305(4) 0.3781(3)
C1 C 0.9572(7) 0.3253(5) 0.3025(4)
H1 H 0.9834 0.3288 0.2292
C2 C 0.9856(6) 0.4188(4) 0.3244(4)
H2 H 1.0246 0.4837 0.2680
C3 C 0.9540(6) 0.4125(4) 0.4336(4)
C4 C 0.8886(7) 0.3163(5) 0.5139(4)
H3 H 0.8636 0.3112 0.5875
C5 C 0.8603(7) 0.2276(5) 0.4851(4)
H4 H 0.8158 0.1633 0.5405
N2 N 0.9859(5) 0.5102(3) 0.4545(3)
N1A N 1.1048(6) 0.7695(4) 0.6219(3)
C1A C 1.0428(7) 0.6747(5) 0.6975(4)
H1A H 1.0166 0.6712 0.7708
C2A C 1.0144(6) 0.5812(4) 0.6756(4)
H2A H 0.9754 0.5163 0.7320
C3A C 1.0460(6) 0.5875(4) 0.5664(4)
C4A C 1.1114(7) 0.6837(5) 0.4861(4)
H3A H 1.1364 0.6888 0.4125
C5A C 1.1397(7) 0.7724(5) 0.5149(4)
H4A H 1.1842 0.8367 0.4595
N2A N 1.0141(5) 0.4898(3) 0.5455(3)
loop_
_geom_bond_atom_site_label_1
_geom_bond_atom_site_label_2
_geom_bond_site_symmetry_1
_geom_bond_site_symmetry_2
Mn1 O1 1_555 1_555
N1 C1 1_555 1_555
C1 H1 1_555 1_555
C2 C1 1_555 1_555
H2 C2 1_555 1_555
C3 C2 1_555 1_555
C4 C3 1_555 1_555
H3 C4 1_555 1_555
C5 N1 1_555 1_555
H4 C5 1_555 1_555
N2 C3 1_555 1_555
O1 C6 1_555 1_555
O2 Mn1 1_555 1_555
C6 O2 1_555 1_555
C7 C6 1_555 1_555
C8 C7 1_555 1_555
H5 C8 1_555 1_555
C9 C8 1_555 1_555
H6 C9 1_555 1_555
C10 C9 1_555 1_555
H7 C10 1_555 1_555
C11 C10 1_555 1_555
H8 C11 1_555 1_555
C12 C7 1_555 1_555
H9 C12 1_555 1_555
N3 Mn1 1_555 1_555
C13 N3 1_555 1_555
H10 C13 1_555 1_555
C14 C13 1_555 1_555
H11 C14 1_555 1_555
C15 C14 1_555 1_555
C16 C15 1_555 1_555
H12 C16 1_555 1_555
C17 N3 1_555 1_555
H13 C17 1_555 1_555
N4 C15 1_555 1_555
N5 N4 1_555 1_555
C18 N5 1_555 1_555
C19 C18 1_555 1_555
H14 C19 1_555 1_555
C20 C19 1_555 1_555
H15 C20 1_555 1_555
N6 C20 1_555 1_555
C21 N6 1_555 1_555
H16 C21 1_555 1_555
C22 C18 1_555 1_555
H17 C22 1_555 1_555
O3 Mn1 1_555 1_555
C23 O3 1_555 1_555
O4 C23 1_555 1_555
C24 C23 1_555 1_555
C25 C24 1_555 1_555
H18 C25 1_555 1_555
C26 C25 1_555 1_555
H19 C26 1_555 1_555
C27 C26 1_555 1_555
H20 C27 1_555 1_555
C28 C27 1_555 1_555
H21 C28 1_555 1_555
C29 C24 1_555 1_555
H22 C29 1_555 1_555
Mn1A O4 1_555 1_555
Mn1_2 N6 1_555 1_555
Mn1A_2 N6A 1_555 1_555
N1A C1A 1_555 1_555
C1A H1A 1_555 1_555
C2A C1A 1_555 1_555
H2A C2A 1_555 1_555
C3A C2A 1_555 1_555
C4A C3A 1_555 1_555
H3A C4A 1_555 1_555
C5A N1A 1_555 1_555
H4A C5A 1_555 1_555
N2A N2 1_555 1_555
O1A Mn1A 1_555 1_555
O2A Mn1A 1_555 1_555
C6A O1A 1_555 1_555
C7A C6A 1_555 1_555
C8A C7A 1_555 1_555
H5A C8A 1_555 1_555
C9A C8A 1_555 1_555
H6A C9A 1_555 1_555
C10A C9A 1_555 1_555
H7A C10A 1_555 1_555
C11A C10A 1_555 1_555
H8A C11A 1_555 1_555
C12A C7A 1_555 1_555
H9A C12A 1_555 1_555
N3A Mn1A 1_555 1_555
C13A N3A 1_555 1_555
H10A C13A 1_555 1_555
C14A C13A 1_555 1_555
H11A C14A 1_555 1_555
C15A C14A 1_555 1_555
C16A C15A 1_555 1_555
H12A C16A 1_555 1_555
C17A N3A 1_555 1_555
H13A C17A 1_555 1_555
N4A C15A 1_555 1_555
N5A N4A 1_555 1_555
C18A N5A 1_555 1_555
C19A C18A 1_555 1_555
H14A C19A 1_555 1_555
C20A C19A 1_555 1_555
H15A C20A 1_555 1_555
N6A C20A 1_555 1_555
N6_2 Mn1 1_555 1_555
N6A_2 Mn1A 1_555 1_555
C21A N6A 1_555 1_555
H16A C21A 1_555 1_555
C22A C18A 1_555 1_555
H17A C22A 1_555 1_555
O3A Mn1A 1_555 1_555
C23A O3A 1_555 1_555
O4A Mn1 1_555 1_555
C24A C23A 1_555 1_555
C25A C24A 1_555 1_555
H18A C25A 1_555 1_555
C26A C25A 1_555 1_555
H19A C26A 1_555 1_555
C27A C26A 1_555 1_555
H20A C27A 1_555 1_555
C28A C27A 1_555 1_555
H21A C28A 1_555 1_555
C29A C24A 1_555 1_555
H22A C29A 1_555 1_555
C4 C5 1_555 1_555
C11 C12 1_555 1_555
C16 C17 1_555 1_555
C21 C22 1_555 1_555
C28 C29 1_555 1_555
C3A N2A 1_555 1_555
C4A C5A 1_555 1_555
O2A C6A 1_555 1_555
C11A C12A 1_555 1_555
C16A C17A 1_555 1_555
C21A C22A 1_555 1_555
C23A O4A 1_555 1_555
C28A C29A 1_555 1_555

#END
