
#######################################################################
#
#                 Cambridge Crystallographic Data Centre
#                                CCDC 
#
#######################################################################
#
# If this CIF has been generated from an entry in the Cambridge 
# Structural Database, then it will include bibliographic, chemical, 
# crystal, experimental, refinement or atomic coordinate data resulting 
# from the CCDC's data processing and validation procedures.
#
#######################################################################

data_NEKTON
_symmetry_cell_setting           tetragonal
_symmetry_space_group_name_H-M   'P 4/n'
_symmetry_Int_Tables_number      85
_space_group_name_Hall           '-P 4a'
loop_
_symmetry_equiv_pos_site_id
_symmetry_equiv_pos_as_xyz
1 x,y,z
2 1/2-y,x,z
3 y,1/2-x,z
4 1/2-x,1/2-y,z
5 -x,-y,-z
6 1/2+y,-x,-z
7 -y,1/2+x,-z
8 1/2+x,1/2+y,-z
_cell_length_a                   27.560(5)
_cell_length_b                   27.560(5)
_cell_length_c                   10.5496(10)
_cell_angle_alpha                90
_cell_angle_beta                 90
_cell_angle_gamma                90
_cell_volume                     8012.99
loop_
_atom_site_label
_atom_site_type_symbol
_atom_site_fract_x
_atom_site_fract_y
_atom_site_fract_z
Mo1 Mo 0.518856(16) 0.632720(16) 0.21467(4)
Mo2 Mo 0.423252(16) 0.620539(15) 0.31684(4)
Mn1 Mn 0.36960(3) 0.54493(3) 0.03911(7)
S1 S 0.56634(5) 0.70689(5) 0.20074(15)
S2 S 0.59535(5) 0.60116(6) 0.29185(13)
S3 S 0.49179(5) 0.57274(5) 0.35429(12)
S4 S 0.45846(5) 0.69200(5) 0.24100(13)
S5 S 0.39875(5) 0.57800(5) 0.50724(12)
S6 S 0.37092(5) 0.68247(5) 0.40500(13)
O1 O 0.51238(12) 0.61051(13) 0.0632(3)
O2 O 0.39238(12) 0.59276(12) 0.1941(3)
O3 O 0.44211(13) 0.55311(14) -0.0457(3)
N1 N 0.34443(15) 0.61458(15) -0.0510(4)
N2 N 0.29548(15) 0.53421(15) 0.1292(4)
N3 N 0.02441(15) 0.39116(16) 0.1380(4)
N4 N 0.34450(16) 0.50762(16) -0.1430(4)
C1 C 0.6297(3) 0.6906(3) 0.2320(10)
H1 H 0.6504 0.7082 0.1706
H2 H 0.6383 0.7024 0.3177
C2 C 0.6412(2) 0.6418(3) 0.2254(8)
H3 H 0.6722 0.6364 0.2707
H4 H 0.6464 0.6330 0.1354
C3 C 0.3517(2) 0.6135(2) 0.5852(6)
H5 H 0.3274 0.5910 0.6214
H6 H 0.3665 0.6315 0.6565
C4 C 0.3270(2) 0.6476(3) 0.5036(6)
H7 H 0.3078 0.6704 0.5560
H8 H 0.3043 0.6299 0.4475
C5 C 0.37163(19) 0.65562(18) -0.0458(4)
H9 H 0.4023 0.6543 -0.0049
C6 C 0.35680(19) 0.69890(19) -0.0971(5)
H10 H 0.3771 0.7267 -0.0906
C7 C 0.31143(19) 0.70243(19) -0.1596(5)
C8 C 0.28384(19) 0.66035(19) -0.1651(5)
H11 H 0.2531 0.6605 -0.2060
C9 C 0.30143(18) 0.61791(18) -0.1104(4)
H12 H 0.2819 0.5896 -0.1153
C10 C 0.2970(2) 0.7499(2) -0.2206(5)
H13 H 0.3236 0.7602 -0.2778
H14 H 0.2943 0.7748 -0.1531
C11 C 0.2500 0.7500 -0.2959(7)
H15 H 0.2500 0.7789 -0.3515
C12 C 0.2874(2) 0.5494(2) 0.2496(5)
H16 H 0.3129 0.5656 0.2930
C13 C 0.2441(2) 0.5426(2) 0.3119(5)
H17 H 0.2405 0.5538 0.3965
C14 C 0.20527(19) 0.51918(18) 0.2522(5)
C15 C 0.21313(19) 0.5036(2) 0.1277(5)
H18 H 0.1880 0.4879 0.0820
C16 C 0.25782(19) 0.51132(19) 0.0719(5)
H19 H 0.2625 0.4999 -0.0122
C17 C 0.1583(2) 0.5098(2) 0.3214(6)
H20 H 0.1319 0.5055 0.2587
H21 H 0.1502 0.5384 0.3741
C18 C 0.1607(2) 0.4647(2) 0.4065(5)
H22 H 0.1906 0.4665 0.4581
H23 H 0.1327 0.4654 0.4654
C19 C 0.1603(2) 0.4163(2) 0.3350(5)
H24 H 0.1874 0.4160 0.2734
H25 H 0.1657 0.3896 0.3960
C20 C 0.11322(19) 0.40754(18) 0.2650(5)
C21 C 0.0689(2) 0.4033(2) 0.3304(5)
H26 H 0.0682 0.4060 0.4201
C22 C 0.02659(19) 0.3951(2) 0.2649(5)
H27 H -0.0027 0.3921 0.3118
C23 C 0.11076(19) 0.40421(19) 0.1339(5)
H28 H 0.1394 0.4076 0.0845
C24 C 0.06645(19) 0.39598(19) 0.0751(5)
H29 H 0.0659 0.3936 -0.0147
C25 C 0.3309(2) 0.49738(19) -0.2412(6)
C26 C 0.3130(2) 0.4844(2) -0.3687(5)
H30 H 0.2811 0.4991 -0.3823
H31 H 0.3104 0.4491 -0.3756
H32 H 0.3358 0.4965 -0.4328
C27 C 0.4647(2) 0.5271(2) -0.1482(5)
H33 H 0.4595 0.4922 -0.1367
H34 H 0.4995 0.5340 -0.1490
H35 H 0.4503 0.5374 -0.2288
H36 H 0.4677(16) 0.5714(19) -0.002(5)
Mo1C Mo -0.018856(16) 0.867280(16) 0.21467(4)
Mo2C Mo 0.076748(16) 0.879461(15) 0.31684(4)
Mn1C Mn 0.13040(3) 0.95507(3) 0.03911(7)
Mn1A Mn -0.04493(3) 0.36960(3) 0.03911(7)
Mn1B Mn 0.54493(3) 0.13040(3) 0.03911(7)
S1C S -0.06634(5) 0.79311(5) 0.20074(15)
S2C S -0.09535(5) 0.89884(6) 0.29185(13)
S3C S 0.00821(5) 0.92726(5) 0.35429(12)
S4C S 0.04154(5) 0.80800(5) 0.24100(13)
S5C S 0.10125(5) 0.92200(5) 0.50724(12)
S6C S 0.12908(5) 0.81753(5) 0.40500(13)
O1C O -0.01238(12) 0.88949(13) 0.0632(3)
O2C O 0.10762(12) 0.90724(12) 0.1941(3)
O3C O 0.05789(13) 0.94689(14) -0.0457(3)
N1C N 0.15557(15) 0.88542(15) -0.0510(4)
N2B N 0.53421(15) 0.20452(15) 0.1292(4)
N2C N 0.20452(15) 0.96579(15) 0.1292(4)
N3B N 0.39116(16) 0.47559(15) 0.1380(4)
N3A N 0.10884(16) 1.02441(15) 0.1380(4)
N4C N 0.15550(16) 0.99238(16) -0.1430(4)
C1C C -0.1297(3) 0.8094(3) 0.2320(10)
H1C H -0.1504 0.7918 0.1706
H2C H -0.1383 0.7976 0.3177
C2C C -0.1412(2) 0.8582(3) 0.2254(8)
H3C H -0.1722 0.8636 0.2707
H4C H -0.1464 0.8670 0.1354
C3C C 0.1483(2) 0.8865(2) 0.5852(6)
H5C H 0.1726 0.9090 0.6214
H6C H 0.1335 0.8685 0.6565
C4C C 0.1730(2) 0.8524(3) 0.5036(6)
H7C H 0.1922 0.8296 0.5560
H8C H 0.1957 0.8701 0.4475
C5C C 0.12837(19) 0.84438(18) -0.0458(4)
H9C H 0.0977 0.8457 -0.0049
C6C C 0.14320(19) 0.80110(19) -0.0971(5)
H10C H 0.1229 0.7733 -0.0906
C7C C 0.18857(19) 0.79757(19) -0.1596(5)
C8C C 0.21616(19) 0.83965(19) -0.1651(5)
H11C H 0.2469 0.8395 -0.2060
C9C C 0.19857(18) 0.88209(18) -0.1104(4)
H12C H 0.2181 0.9104 -0.1153
C10C C 0.2030(2) 0.7501(2) -0.2206(5)
H13C H 0.1764 0.7398 -0.2778
H14C H 0.2057 0.7252 -0.1531
H15C H 0.2500 0.7211 -0.3515
C12B C 0.5494(2) 0.2126(2) 0.2496(5)
H16B H 0.5656 0.1871 0.2930
C13B C 0.5426(2) 0.2559(2) 0.3119(5)
H17B H 0.5538 0.2595 0.3965
C14B C 0.51918(18) 0.29473(19) 0.2522(5)
C15B C 0.5036(2) 0.28687(19) 0.1277(5)
H18B H 0.4879 0.3120 0.0820
C16B C 0.51132(19) 0.24218(19) 0.0719(5)
H19B H 0.4999 0.2375 -0.0122
C17B C 0.5098(2) 0.3417(2) 0.3214(6)
H20B H 0.5055 0.3681 0.2587
H21B H 0.5384 0.3498 0.3741
C18B C 0.4647(2) 0.3393(2) 0.4065(5)
H22B H 0.4665 0.3094 0.4581
H23B H 0.4654 0.3673 0.4654
C19B C 0.4163(2) 0.3397(2) 0.3350(5)
H24B H 0.4160 0.3126 0.2734
H25B H 0.3896 0.3343 0.3960
C20B C 0.40754(18) 0.38678(19) 0.2650(5)
C21B C 0.4033(2) 0.4311(2) 0.3304(5)
H26B H 0.4060 0.4318 0.4201
C22B C 0.3951(2) 0.47341(19) 0.2649(5)
H27B H 0.3921 0.5027 0.3118
C23B C 0.40421(19) 0.38924(19) 0.1339(5)
H28B H 0.4076 0.3606 0.0845
C24B C 0.39598(19) 0.43355(19) 0.0751(5)
H29B H 0.3936 0.4341 -0.0147
C25C C 0.1691(2) 1.00262(19) -0.2412(6)
C26C C 0.1870(2) 1.0156(2) -0.3687(5)
H30C H 0.2189 1.0009 -0.3823
H31C H 0.1896 1.0509 -0.3756
H32C H 0.1642 1.0035 -0.4328
C27C C 0.0353(2) 0.9729(2) -0.1482(5)
H33C H 0.0405 1.0078 -0.1367
H34C H 0.0005 0.9660 -0.1490
H35C H 0.0497 0.9626 -0.2288
H36C H 0.0323(16) 0.9286(19) -0.002(5)
loop_
_geom_bond_atom_site_label_1
_geom_bond_atom_site_label_2
_geom_bond_site_symmetry_1
_geom_bond_site_symmetry_2
Mo1 Mo2 1_555 1_555
Mo2 S3 1_555 1_555
Mn1 O2 1_555 1_555
S1 Mo1 1_555 1_555
S2 Mo1 1_555 1_555
S3 Mo1 1_555 1_555
S4 Mo1 1_555 1_555
S5 Mo2 1_555 1_555
S6 Mo2 1_555 1_555
O1 Mo1 1_555 1_555
O2 Mo2 1_555 1_555
O3 Mn1 1_555 1_555
N1 Mn1 1_555 1_555
N2 Mn1 1_555 1_555
N3 C22 1_555 1_555
N4 Mn1 1_555 1_555
C1 S1 1_555 1_555
H1 C1 1_555 1_555
H2 C1 1_555 1_555
C2 S2 1_555 1_555
H3 C2 1_555 1_555
H4 C2 1_555 1_555
C3 S5 1_555 1_555
H5 C3 1_555 1_555
H6 C3 1_555 1_555
C4 S6 1_555 1_555
H7 C4 1_555 1_555
H8 C4 1_555 1_555
C5 N1 1_555 1_555
H9 C5 1_555 1_555
C6 C5 1_555 1_555
H10 C6 1_555 1_555
C7 C6 1_555 1_555
C8 C7 1_555 1_555
H11 C8 1_555 1_555
C9 N1 1_555 1_555
H12 C9 1_555 1_555
C10 C7 1_555 1_555
H13 C10 1_555 1_555
H14 C10 1_555 1_555
C11 C10 1_555 1_555
H15 C11 1_555 1_555
C12 N2 1_555 1_555
H16 C12 1_555 1_555
C13 C12 1_555 1_555
H17 C13 1_555 1_555
C14 C13 1_555 1_555
C15 C14 1_555 1_555
H18 C15 1_555 1_555
C16 N2 1_555 1_555
H19 C16 1_555 1_555
C17 C14 1_555 1_555
H20 C17 1_555 1_555
H21 C17 1_555 1_555
C18 C17 1_555 1_555
H22 C18 1_555 1_555
H23 C18 1_555 1_555
C19 C18 1_555 1_555
H24 C19 1_555 1_555
H25 C19 1_555 1_555
C20 C19 1_555 1_555
C21 C20 1_555 1_555
H26 C21 1_555 1_555
C22 C21 1_555 1_555
H27 C22 1_555 1_555
C23 C20 1_555 1_555
H28 C23 1_555 1_555
C24 N3 1_555 1_555
H29 C24 1_555 1_555
C25 N4 1_555 1_555
C26 C25 1_555 1_555
H30 C26 1_555 1_555
H31 C26 1_555 1_555
H32 C26 1_555 1_555
C27 O3 1_555 1_555
H33 C27 1_555 1_555
H34 C27 1_555 1_555
H35 C27 1_555 1_555
H36 O3 1_555 1_555
Mo1C Mo2C 1_555 1_555
Mo2C S3C 1_555 1_555
Mn1C O2C 1_555 1_555
Mn1A N3 1_555 1_555
Mn1B N2B 1_555 1_555
S1C Mo1C 1_555 1_555
S2C Mo1C 1_555 1_555
S3C Mo1C 1_555 1_555
S4C Mo1C 1_555 1_555
S5C Mo2C 1_555 1_555
S6C Mo2C 1_555 1_555
O1C Mo1C 1_555 1_555
O2C Mo2C 1_555 1_555
O3C Mn1C 1_555 1_555
N1C Mn1C 1_555 1_555
N2B C12B 1_555 1_555
N2C Mn1C 1_555 1_555
N3B Mn1 1_555 1_555
N3A Mn1C 1_555 1_555
N4C Mn1C 1_555 1_555
C1C S1C 1_555 1_555
H1C C1C 1_555 1_555
H2C C1C 1_555 1_555
C2C S2C 1_555 1_555
H3C C2C 1_555 1_555
H4C C2C 1_555 1_555
C3C S5C 1_555 1_555
H5C C3C 1_555 1_555
H6C C3C 1_555 1_555
C4C S6C 1_555 1_555
H7C C4C 1_555 1_555
H8C C4C 1_555 1_555
C5C N1C 1_555 1_555
H9C C5C 1_555 1_555
C6C C5C 1_555 1_555
H10C C6C 1_555 1_555
C7C C6C 1_555 1_555
C8C C7C 1_555 1_555
H11C C8C 1_555 1_555
C9C N1C 1_555 1_555
H12C C9C 1_555 1_555
C10C C11 1_555 1_555
H13C C10C 1_555 1_555
H14C C10C 1_555 1_555
H15C C11 1_555 1_555
C12B H16B 1_555 1_555
C13B C12B 1_555 1_555
H17B C13B 1_555 1_555
C14B C13B 1_555 1_555
C15B C14B 1_555 1_555
H18B C15B 1_555 1_555
C16B N2B 1_555 1_555
H19B C16B 1_555 1_555
C17B C14B 1_555 1_555
H20B C17B 1_555 1_555
H21B C17B 1_555 1_555
C18B C17B 1_555 1_555
H22B C18B 1_555 1_555
H23B C18B 1_555 1_555
C19B C18B 1_555 1_555
H24B C19B 1_555 1_555
H25B C19B 1_555 1_555
C20B C19B 1_555 1_555
C21B C20B 1_555 1_555
H26B C21B 1_555 1_555
C22B N3B 1_555 1_555
H27B C22B 1_555 1_555
C23B C20B 1_555 1_555
H28B C23B 1_555 1_555
C24B N3B 1_555 1_555
H29B C24B 1_555 1_555
C25C N4C 1_555 1_555
C26C C25C 1_555 1_555
H30C C26C 1_555 1_555
H31C C26C 1_555 1_555
H32C C26C 1_555 1_555
C27C O3C 1_555 1_555
H33C C27C 1_555 1_555
H34C C27C 1_555 1_555
H35C C27C 1_555 1_555
H36C O3C 1_555 1_555
Mo2 S4 1_555 1_555
C1 C2 1_555 1_555
C3 C4 1_555 1_555
C8 C9 1_555 1_555
C15 C16 1_555 1_555
C23 C24 1_555 1_555
Mo2C S4C 1_555 1_555
C1C C2C 1_555 1_555
C3C C4C 1_555 1_555
C7C C10C 1_555 1_555
C8C C9C 1_555 1_555
C15B C16B 1_555 1_555
C21B C22B 1_555 1_555
C23B C24B 1_555 1_555

#END
