
#######################################################################
#
#                 Cambridge Crystallographic Data Centre
#                                CCDC 
#
#######################################################################
#
# If this CIF has been generated from an entry in the Cambridge 
# Structural Database, then it will include bibliographic, chemical, 
# crystal, experimental, refinement or atomic coordinate data resulting 
# from the CCDC's data processing and validation procedures.
#
#######################################################################

data_NEKTOO
_symmetry_cell_setting           triclinic
_symmetry_space_group_name_H-M   'P -1'
_symmetry_Int_Tables_number      2
_space_group_name_Hall           '-P 1'
loop_
_symmetry_equiv_pos_site_id
_symmetry_equiv_pos_as_xyz
1 x,y,z
2 -x,-y,-z
_cell_length_a                   10.434(6)
_cell_length_b                   10.453(6)
_cell_length_c                   11.808(7)
_cell_angle_alpha                107.420(8)
_cell_angle_beta                 94.260(9)
_cell_angle_gamma                99.140(8)
_cell_volume                     1203
loop_
_atom_site_label
_atom_site_type_symbol
_atom_site_fract_x
_atom_site_fract_y
_atom_site_fract_z
Mn1 Mn 0.12092(11) 0.42107(11) 0.08044(10)
O1 O 0.2639(6) 0.3083(6) 0.1427(5)
C1 C 0.2555(9) 0.3679(8) 0.2493(8)
O2 O 0.1812(7) 0.4527(7) 0.2789(6)
C2 C 0.3373(8) 0.3377(7) 0.3461(7)
C3 C 0.4205(9) 0.2436(8) 0.3166(8)
H1 H 0.4254 0.1973 0.2369
C4 C 0.4956(11) 0.2201(10) 0.4074(9)
H2 H 0.5535 0.1601 0.3884
C5 C 0.4850(10) 0.2851(10) 0.5262(9)
H3 H 0.5323 0.2660 0.5871
C6 C 0.4032(9) 0.3785(9) 0.5530(7)
C7 C 0.3271(9) 0.4046(8) 0.4653(7)
H4 H 0.2702 0.4655 0.4852
N1 N 0.3898(8) 0.4494(9) 0.6782(7)
O3 O 0.3151(9) 0.5300(8) 0.6991(6)
O4 O 0.4555(10) 0.4240(10) 0.7562(6)
O5 O 0.1454(7) 0.3112(6) -0.1030(5)
C8 C 0.0759(8) 0.3477(8) -0.1713(7)
O6 O 0.0076(7) 0.4371(6) -0.1344(6)
C9 C 0.0738(8) 0.2823(7) -0.3051(6)
C10 C -0.0006(10) 0.3204(10) -0.3854(8)
H5 H -0.0495 0.3877 -0.3576
C11 C -0.0040(14) 0.2607(13) -0.5062(10)
H6 H -0.0549 0.2877 -0.5597
C12 C 0.0682(13) 0.1606(13) -0.5485(9)
H7 H 0.0667 0.1191 -0.6303
C13 C 0.1404(11) 0.1249(9) -0.4686(9)
C14 C 0.1496(10) 0.1828(8) -0.3451(8)
H8 H 0.2028 0.1570 -0.2924
N2 N 0.2188(14) 0.0207(10) -0.5148(12)
O7 O 0.2888(15) -0.0090(13) -0.4406(15)
O8 O 0.2078(13) -0.0299(10) -0.6243(12)
N3 N 0.2808(7) 0.5995(7) 0.0891(6)
C15 C 0.3662(10) 0.5913(10) 0.0113(8)
H9 H 0.3568 0.5088 -0.0499
C16 C 0.4660(11) 0.6913(12) 0.0123(10)
H10 H 0.5207 0.6790 -0.0472
C17 C 0.4840(9) 0.8157(9) 0.1073(10)
C18 C 0.3961(10) 0.8230(9) 0.1915(9)
H11 H 0.4059 0.9023 0.2564
C19 C 0.2974(9) 0.7186(8) 0.1814(9)
H12 H 0.2396 0.7279 0.2384
N4 N 0.5896(10) 0.9304(10) 0.1269(11)
N5 N 0.6306(8) 0.9311(8) 0.0510(9)
C20 C 0.7381(10) 1.0457(9) 0.0646(12)
C21 C 0.8198(12) 1.0337(10) -0.0218(12)
H13 H 0.8054 0.9538 -0.0865
C22 C 0.9228(11) 1.1368(10) -0.0156(11)
H14 H 0.9778 1.1233 -0.0748
N6 N 0.9461(7) 1.2553(6) 0.0727(7)
C23 C 0.8706(11) 1.2747(11) 0.1565(10)
H15 H 0.8853 1.3587 0.2166
C24 C 0.7678(12) 1.1724(13) 0.1584(12)
H16 H 0.7182 1.1874 0.2217
Mn1A Mn -0.12092(11) 0.57893(11) -0.08044(10)
Mn1_2 Mn 1.12092(11) 1.42107(11) 0.08044(10)
Mn1A_2 Mn -1.12092(11) -0.42107(11) -0.08044(10)
O1A O -0.2639(6) 0.6917(6) -0.1427(5)
C1A C -0.2555(9) 0.6321(8) -0.2493(8)
O2A O -0.1812(7) 0.5473(7) -0.2789(6)
C2A C -0.3373(8) 0.6623(7) -0.3461(7)
C3A C -0.4205(9) 0.7564(8) -0.3166(8)
H1A H -0.4254 0.8027 -0.2369
C4A C -0.4956(11) 0.7799(10) -0.4074(9)
H2A H -0.5535 0.8399 -0.3884
C5A C -0.4850(10) 0.7149(10) -0.5262(9)
H3A H -0.5323 0.7340 -0.5871
C6A C -0.4032(9) 0.6215(9) -0.5530(7)
C7A C -0.3271(9) 0.5954(8) -0.4653(7)
H4A H -0.2702 0.5345 -0.4852
N1A N -0.3898(8) 0.5506(9) -0.6782(7)
O3A O -0.3151(9) 0.4700(8) -0.6991(6)
O4A O -0.4555(10) 0.5760(10) -0.7562(6)
O5A O -0.1454(7) 0.6888(6) 0.1030(5)
C8A C -0.0759(8) 0.6523(8) 0.1713(7)
O6A O -0.0076(7) 0.5629(6) 0.1344(6)
C9A C -0.0738(8) 0.7177(7) 0.3051(6)
C10A C 0.0006(10) 0.6796(10) 0.3854(8)
H5A H 0.0495 0.6123 0.3576
C11A C 0.0040(14) 0.7393(13) 0.5062(10)
H6A H 0.0549 0.7123 0.5597
C12A C -0.0682(13) 0.8394(13) 0.5485(9)
H7A H -0.0667 0.8809 0.6303
C13A C -0.1404(11) 0.8751(9) 0.4686(9)
C14A C -0.1496(10) 0.8172(8) 0.3451(8)
H8A H -0.2028 0.8430 0.2924
N2A N -0.2188(14) 0.9793(10) 0.5148(12)
O7A O -0.2888(15) 1.0090(13) 0.4406(15)
O8A O -0.2078(13) 1.0299(10) 0.6243(12)
N3A N -0.2808(7) 0.4005(7) -0.0891(6)
C15A C -0.3662(10) 0.4087(10) -0.0113(8)
H9A H -0.3568 0.4912 0.0499
C16A C -0.4660(11) 0.3087(12) -0.0123(10)
H10A H -0.5207 0.3210 0.0472
C17A C -0.4840(9) 0.1843(9) -0.1073(10)
C18A C -0.3961(10) 0.1770(9) -0.1915(9)
H11A H -0.4059 0.0977 -0.2564
C19A C -0.2974(9) 0.2814(8) -0.1814(9)
H12A H -0.2396 0.2721 -0.2384
N4A N -0.5896(10) 0.0696(10) -0.1269(11)
N5A N -0.6306(8) 0.0689(8) -0.0510(9)
C20A C -0.7381(10) -0.0457(9) -0.0646(12)
C21A C -0.8198(12) -0.0337(10) 0.0218(12)
H13A H -0.8054 0.0462 0.0865
C22A C -0.9228(11) -0.1368(10) 0.0156(11)
H14A H -0.9778 -0.1233 0.0748
N6A N -0.9461(7) -0.2553(6) -0.0727(7)
N6_2 N -0.0539(7) 0.2553(6) 0.0727(7)
N6A_2 N 0.0539(7) 0.7447(6) -0.0727(7)
C23A C -0.8706(11) -0.2747(11) -0.1565(10)
H15A H -0.8853 -0.3587 -0.2166
C24A C -0.7678(12) -0.1724(13) -0.1584(12)
H16A H -0.7182 -0.1874 -0.2217
loop_
_geom_bond_atom_site_label_1
_geom_bond_atom_site_label_2
_geom_bond_site_symmetry_1
_geom_bond_site_symmetry_2
Mn1 O1 1_555 1_555
O1 C1 1_555 1_555
C1 O2 1_555 1_555
O2 Mn1 1_555 1_555
C2 C1 1_555 1_555
C3 C2 1_555 1_555
H1 C3 1_555 1_555
C4 C3 1_555 1_555
H2 C4 1_555 1_555
C5 C4 1_555 1_555
H3 C5 1_555 1_555
C6 C5 1_555 1_555
C7 C2 1_555 1_555
H4 C7 1_555 1_555
N1 C6 1_555 1_555
O3 N1 1_555 1_555
O4 N1 1_555 1_555
O5 Mn1 1_555 1_555
C8 O5 1_555 1_555
O6 C8 1_555 1_555
C9 C8 1_555 1_555
C10 C9 1_555 1_555
H5 C10 1_555 1_555
C11 C10 1_555 1_555
H6 C11 1_555 1_555
C12 C11 1_555 1_555
H7 C12 1_555 1_555
C13 C12 1_555 1_555
C14 C9 1_555 1_555
H8 C14 1_555 1_555
N2 C13 1_555 1_555
O7 N2 1_555 1_555
O8 N2 1_555 1_555
N3 Mn1 1_555 1_555
C15 N3 1_555 1_555
H9 C15 1_555 1_555
C16 C15 1_555 1_555
H10 C16 1_555 1_555
C17 C16 1_555 1_555
C18 C17 1_555 1_555
H11 C18 1_555 1_555
C19 N3 1_555 1_555
H12 C19 1_555 1_555
N4 C17 1_555 1_555
N5 N4 1_555 1_555
C20 N5 1_555 1_555
C21 C20 1_555 1_555
H13 C21 1_555 1_555
C22 C21 1_555 1_555
H14 C22 1_555 1_555
N6 C22 1_555 1_555
C23 N6 1_555 1_555
H15 C23 1_555 1_555
C24 C20 1_555 1_555
H16 C24 1_555 1_555
Mn1A O6 1_555 1_555
Mn1_2 N6 1_555 1_555
Mn1A_2 N6A 1_555 1_555
O1A Mn1A 1_555 1_555
C1A O1A 1_555 1_555
O2A Mn1A 1_555 1_555
C2A C1A 1_555 1_555
C3A C2A 1_555 1_555
H1A C3A 1_555 1_555
C4A C3A 1_555 1_555
H2A C4A 1_555 1_555
C5A C4A 1_555 1_555
H3A C5A 1_555 1_555
C6A C5A 1_555 1_555
C7A C2A 1_555 1_555
H4A C7A 1_555 1_555
N1A C6A 1_555 1_555
O3A N1A 1_555 1_555
O4A N1A 1_555 1_555
O5A Mn1A 1_555 1_555
C8A O5A 1_555 1_555
O6A Mn1 1_555 1_555
C9A C8A 1_555 1_555
C10A C9A 1_555 1_555
H5A C10A 1_555 1_555
C11A C10A 1_555 1_555
H6A C11A 1_555 1_555
C12A C11A 1_555 1_555
H7A C12A 1_555 1_555
C13A C12A 1_555 1_555
C14A C9A 1_555 1_555
H8A C14A 1_555 1_555
N2A C13A 1_555 1_555
O7A N2A 1_555 1_555
O8A N2A 1_555 1_555
N3A Mn1A 1_555 1_555
C15A N3A 1_555 1_555
H9A C15A 1_555 1_555
C16A C15A 1_555 1_555
H10A C16A 1_555 1_555
C17A C16A 1_555 1_555
C18A C17A 1_555 1_555
H11A C18A 1_555 1_555
C19A N3A 1_555 1_555
H12A C19A 1_555 1_555
N4A C17A 1_555 1_555
N5A N4A 1_555 1_555
C20A N5A 1_555 1_555
C21A C20A 1_555 1_555
H13A C21A 1_555 1_555
C22A C21A 1_555 1_555
H14A C22A 1_555 1_555
N6A C22A 1_555 1_555
N6_2 Mn1 1_555 1_555
N6A_2 Mn1A 1_555 1_555
C23A N6A 1_555 1_555
H15A C23A 1_555 1_555
C24A C20A 1_555 1_555
H16A C24A 1_555 1_555
C6 C7 1_555 1_555
C13 C14 1_555 1_555
C18 C19 1_555 1_555
C23 C24 1_555 1_555
C1A O2A 1_555 1_555
C6A C7A 1_555 1_555
C8A O6A 1_555 1_555
C13A C14A 1_555 1_555
C18A C19A 1_555 1_555
C23A C24A 1_555 1_555

#END
