
#######################################################################
#
#                 Cambridge Crystallographic Data Centre
#                                CCDC 
#
#######################################################################
#
# If this CIF has been generated from an entry in the Cambridge 
# Structural Database, then it will include bibliographic, chemical, 
# crystal, experimental, refinement or atomic coordinate data resulting 
# from the CCDC's data processing and validation procedures.
#
#######################################################################

data_NEKWAC
_symmetry_cell_setting           triclinic
_symmetry_space_group_name_H-M   'P -1'
_symmetry_Int_Tables_number      2
_space_group_name_Hall           '-P 1'
loop_
_symmetry_equiv_pos_site_id
_symmetry_equiv_pos_as_xyz
1 x,y,z
2 -x,-y,-z
_cell_length_a                   11.5768(6)
_cell_length_b                   12.7908(6)
_cell_length_c                   15.2079(7)
_cell_angle_alpha                99.3930(10)
_cell_angle_beta                 101.4570(10)
_cell_angle_gamma                109.8780(10)
_cell_volume                     2009.47
loop_
_atom_site_label
_atom_site_type_symbol
_atom_site_fract_x
_atom_site_fract_y
_atom_site_fract_z
I1 I 1.007140(17) 0.969008(15) 0.738074(13)
I2 I 0.587529(18) 0.826534(15) 0.672965(14)
Cu1 Cu 0.79513(4) 1.01793(3) 0.71325(3)
Cu2 Cu 0.80371(4) 0.78398(3) 0.71270(2)
N1 N 0.7966(2) 1.09159(19) 0.60371(16)
S1 S 0.99141(8) 1.64579(7) 0.70302(6)
S2 S 0.95982(9) 1.29329(7) 0.80498(6)
S3 S 0.61619(9) 1.15101(8) 0.64709(7)
S4 S 0.65328(12) 1.54217(8) 0.75512(6)
N2 N 0.7837(2) 1.65560(19) 0.60404(15)
N3 N 0.8048(2) 1.75175(19) 0.84196(16)
N4 N 0.8104(2) 1.11123(19) 0.84245(17)
C1 C 0.7331(3) 1.6524(2) 0.85570(19)
N5 N 0.7149(3) 1.6339(2) 0.93624(19)
N6 N 0.8331(3) 1.4959(2) 0.54693(18)
N7 N 0.8937(4) 1.2830(2) 0.9625(2)
C2 C 0.8796(3) 1.2242(2) 0.8784(2)
C3 C 0.8560(3) 1.5930(2) 0.60712(19)
C4 C 0.6821(3) 1.6174(3) 0.5298(2)
H1 H 0.6309 1.6596 0.5230
C5 C 0.7527(4) 1.0558(3) 0.8988(2)
H2 H 0.7043 0.9774 0.8772
C6 C 0.7292(3) 1.1568(2) 0.5855(2)
C7 C 0.4559(3) 1.2647(2) 0.6502(2)
C8 C 1.1556(3) 1.5544(2) 0.77457(19)
C9 C 1.1411(3) 1.5133(2) 0.8527(2)
C10 C 0.8795(3) 1.0910(3) 0.5538(2)
H3 H 0.9271 1.0460 0.5631
C11 C 0.7273(3) 1.4584(3) 0.4761(2)
H4 H 0.7053 1.3886 0.4340
C12 C 1.0447(3) 1.5269(3) 0.6916(2)
H5 H 0.9758 1.4562 0.6890
H6 H 1.0709 1.5171 0.6351
N8 N 0.7416(3) 1.2212(3) 0.5257(2)
C13 C 0.8638(3) 1.8386(3) 0.9172(2)
H7 H 0.9154 1.9093 0.9110
C14 C 0.6510(3) 1.5183(3) 0.4635(2)
H8 H 0.5806 1.4932 0.4120
C15 C 1.2773(3) 1.6239(3) 0.7738(2)
H9 H 1.2875 1.6526 0.7222
C16 C 0.5715(3) 1.2666(3) 0.6178(3)
H10 H 0.6420 1.3398 0.6472
H11 H 0.5523 1.2574 0.5512
C17 C 0.8968(4) 1.1543(4) 0.4893(3)
H12 H 0.9541 1.1526 0.4546
C18 C 0.7742(4) 1.7228(3) 1.0092(2)
H13 H 0.7628 1.7137 1.0667
C19 C 1.0132(4) 1.4452(3) 0.8635(3)
H14 H 0.9513 1.4752 0.8377
H15 H 1.0185 1.4529 0.9289
C20 C 0.4615(3) 1.3360(2) 0.7317(2)
C21 C 1.2493(4) 1.5419(3) 0.9246(2)
H16 H 1.2407 1.5136 0.9765
C22 C 0.3388(3) 1.1895(3) 0.5934(2)
H17 H 0.3351 1.1401 0.5398
C23 C 1.3684(4) 1.6101(3) 0.9225(3)
H18 H 1.4390 1.6278 0.9723
C24 C 0.8518(4) 1.8282(3) 1.0029(2)
H19 H 0.8942 1.8897 1.0549
C25 C 1.3823(3) 1.6516(3) 0.8464(3)
H20 H 1.4625 1.6984 0.8441
C26 C 0.2285(4) 1.1851(4) 0.6133(3)
H21 H 0.1506 1.1334 0.5734
C27 C 0.3460(5) 1.3311(3) 0.7500(3)
H22 H 0.3470 1.3796 0.8031
C28 C 0.7614(5) 1.1092(3) 0.9864(3)
H23 H 0.7204 1.0693 1.0246
C29 C 0.8269(4) 1.2191(4) 0.4788(3)
H24 H 0.8387 1.2645 0.4368
C30 C 0.5856(4) 1.4166(3) 0.7991(3)
H25 H 0.6446 1.3781 0.8076
H26 H 0.5717 1.4405 0.8587
C31 C 0.2313(4) 1.2551(4) 0.6901(4)
H27 H 0.1552 1.2523 0.7030
C32 C 0.8328(6) 1.2231(4) 1.0150(3)
H28 H 0.8397 1.2617 1.0744
Cu2_2 Cu 0.80371(4) 1.78398(3) 0.71270(2)
N2_2 N 0.7837(2) 0.65560(19) 0.60404(15)
N3_2 N 0.8048(2) 0.75175(19) 0.84196(16)
C33 C 0.5976(7) 0.9294(7) 0.1471(8)
C34 C 0.6343(7) 1.0108(7) 0.2335(6)
H29 H 0.6692 1.0871 0.2253
H30 H 0.6975 0.9984 0.2772
H31 H 0.5609 1.0020 0.2565
N9 N 0.5750(9) 0.8683(9) 0.0798(9)
loop_
_geom_bond_atom_site_label_1
_geom_bond_atom_site_label_2
_geom_bond_site_symmetry_1
_geom_bond_site_symmetry_2
I1 Cu1 1_555 1_555
I2 Cu1 1_555 1_555
Cu1 N1 1_555 1_555
Cu2 I1 1_555 1_555
N1 C6 1_555 1_555
S1 C3 1_555 1_555
S2 C2 1_555 1_555
S3 C6 1_555 1_555
S4 C1 1_555 1_555
N2 C3 1_555 1_555
N3 C1 1_555 1_555
N4 Cu1 1_555 1_555
C1 N5 1_555 1_555
N5 C18 1_555 1_555
N6 C3 1_555 1_555
N7 C2 1_555 1_555
C2 N4 1_555 1_555
C4 N2 1_555 1_555
H1 C4 1_555 1_555
C5 N4 1_555 1_555
H2 C5 1_555 1_555
C6 N8 1_555 1_555
C7 C16 1_555 1_555
C8 C9 1_555 1_555
C9 C19 1_555 1_555
C10 N1 1_555 1_555
H3 C10 1_555 1_555
C11 N6 1_555 1_555
H4 C11 1_555 1_555
C12 S1 1_555 1_555
H5 C12 1_555 1_555
H6 C12 1_555 1_555
N8 C29 1_555 1_555
C13 N3 1_555 1_555
H7 C13 1_555 1_555
C14 C4 1_555 1_555
H8 C14 1_555 1_555
C15 C8 1_555 1_555
H9 C15 1_555 1_555
C16 S3 1_555 1_555
H10 C16 1_555 1_555
H11 C16 1_555 1_555
C17 C10 1_555 1_555
H12 C17 1_555 1_555
C18 H13 1_555 1_555
C19 S2 1_555 1_555
H14 C19 1_555 1_555
H15 C19 1_555 1_555
C20 C7 1_555 1_555
C21 C9 1_555 1_555
H16 C21 1_555 1_555
C22 C7 1_555 1_555
H17 C22 1_555 1_555
C23 C21 1_555 1_555
H18 C23 1_555 1_555
C24 C13 1_555 1_555
H19 C24 1_555 1_555
C25 C15 1_555 1_555
H20 C25 1_555 1_555
C26 C22 1_555 1_555
H21 C26 1_555 1_555
C27 C20 1_555 1_555
H22 C27 1_555 1_555
C28 C5 1_555 1_555
H23 C28 1_555 1_555
C29 C17 1_555 1_555
H24 C29 1_555 1_555
C30 S4 1_555 1_555
H25 C30 1_555 1_555
H26 C30 1_555 1_555
C31 C26 1_555 1_555
H27 C31 1_555 1_555
C32 N7 1_555 1_555
H28 C32 1_555 1_555
C33 C34 1_555 1_555
C34 H29 1_555 1_555
H30 C34 1_555 1_555
H31 C34 1_555 1_555
N9 C33 1_555 1_555
Cu2_2 N2 1_555 1_555
N2_2 Cu2 1_555 1_555
N3_2 Cu2 1_555 1_555
I2 Cu2 1_555 1_555
N3 Cu2_2 1_555 1_555
C8 C12 1_555 1_555
C11 C14 1_555 1_555
C18 C24 1_555 1_555
C20 C30 1_555 1_555
C23 C25 1_555 1_555
C27 C31 1_555 1_555
C28 C32 1_555 1_555

#END
