
#######################################################################
#
#                 Cambridge Crystallographic Data Centre
#                                CCDC 
#
#######################################################################
#
# If this CIF has been generated from an entry in the Cambridge 
# Structural Database, then it will include bibliographic, chemical, 
# crystal, experimental, refinement or atomic coordinate data resulting 
# from the CCDC's data processing and validation procedures.
#
#######################################################################

data_NEKXEH
_symmetry_cell_setting           monoclinic
_symmetry_space_group_name_H-M   'C 2/c'
_symmetry_Int_Tables_number      15
_space_group_name_Hall           '-C 2yn'
loop_
_symmetry_equiv_pos_site_id
_symmetry_equiv_pos_as_xyz
1 x,y,z
2 1/2+x,1/2+y,z
3 -x,y,1/2-z
4 1/2-x,1/2+y,1/2-z
5 -x,-y,-z
6 1/2-x,1/2-y,-z
7 x,-y,1/2+z
8 1/2+x,1/2-y,1/2+z
_cell_length_a                   11.7761(14)
_cell_length_b                   17.229(2)
_cell_length_c                   10.4611(13)
_cell_angle_alpha                90
_cell_angle_beta                 97.777(2)
_cell_angle_gamma                90
_cell_volume                     2102.94
loop_
_atom_site_label
_atom_site_type_symbol
_atom_site_fract_x
_atom_site_fract_y
_atom_site_fract_z
C1 C 0.9011(3) 0.47952(17) 1.4224(3)
H1 H 0.8342 0.4662 1.3690
Cu1 Cu 1.0000 0.14235(3) 1.2500
Cu2 Cu 1.0000 -0.03291(4) 1.2500
S1 S 1.15238(6) 0.06035(4) 1.17900(6)
S2 S 0.91921(7) 0.27840(4) 1.41704(8)
N1 N 1.0771(2) 0.06357(14) 0.9136(2)
N2 N 1.08426(18) 0.17832(12) 1.4221(2)
C2 C 1.1079(2) 0.06233(14) 1.0228(3)
N3 N 1.0837(2) 0.25253(15) 1.6139(2)
C3 C 1.0422(2) 0.23298(14) 1.4943(2)
C4 C 1.1769(2) 0.14025(16) 1.4803(3)
H2 H 1.2089 0.1014 1.4348
C5 C 0.9523(3) 0.55052(17) 1.4059(3)
H3 H 0.9192 0.5844 1.3422
C6 C 0.8900(3) 0.35161(17) 1.5336(3)
H4 H 0.8079 0.3597 1.5263
H5 H 0.9157 0.3324 1.6198
C7 C 0.9473(2) 0.42838(16) 1.5165(3)
C8 C 1.2256(3) 0.15620(18) 1.6031(3)
H6 H 1.2898 0.1295 1.6420
C9 C 1.1751(3) 0.2137(2) 1.6663(3)
H7 H 1.2067 0.2260 1.7502
C1D C 1.0989(3) 0.52048(17) 1.5776(3)
H1D H 1.1658 0.5338 1.6310
Cu1F Cu 1.0000 0.85765(3) 1.7500
Cu2F Cu 1.0000 0.03291(4) 0.7500
Cu2F_2 Cu 1.0000 0.03291(4) 1.7500
S1B S 0.84762(6) 0.06035(4) 1.32100(6)
S2D S 1.08079(7) 0.72160(4) 1.58296(8)
N1B N 0.9229(2) 0.06357(14) 1.5864(2)
N1F N 1.0771(2) -0.06357(14) 1.4136(2)
N1D N 0.9229(2) -0.06357(14) 1.0864(2)
N2D N 0.91574(18) 0.82168(12) 1.5779(2)
N2B N 0.91574(18) 0.17832(12) 1.0779(2)
C2B C 0.8921(2) 0.06233(14) 1.4772(3)
N3D N 0.9163(2) 0.74747(15) 1.3861(2)
C3D C 0.9578(2) 0.76702(14) 1.5057(2)
C4D C 0.8231(2) 0.85975(16) 1.5197(3)
H2D H 0.7911 0.8986 1.5652
C5D C 1.0477(3) 0.44948(17) 1.5941(3)
H3D H 1.0808 0.4156 1.6578
C6D C 1.1100(3) 0.64839(17) 1.4664(3)
H4D H 1.1921 0.6403 1.4737
H5D H 1.0843 0.6676 1.3802
C7D C 1.0527(2) 0.57162(16) 1.4835(3)
C8D C 0.7744(3) 0.84380(18) 1.3969(3)
H6D H 0.7102 0.8705 1.3580
C9D C 0.8249(3) 0.7863(2) 1.3337(3)
H7D H 0.7933 0.7740 1.2498
loop_
_geom_bond_atom_site_label_1
_geom_bond_atom_site_label_2
_geom_bond_site_symmetry_1
_geom_bond_site_symmetry_2
C1 H1 1_555 1_555
Cu1 S1 1_555 1_555
Cu2 S1 1_555 1_555
S1 C2 1_555 1_555
S2 C3 1_555 1_555
N1 C2 1_555 1_555
N2 Cu1 1_555 1_555
N3 C3 1_555 1_555
C3 N2 1_555 1_555
C4 N2 1_555 1_555
H2 C4 1_555 1_555
C5 C1 1_555 1_555
H3 C5 1_555 1_555
C6 S2 1_555 1_555
H4 C6 1_555 1_555
H5 C6 1_555 1_555
C7 C1 1_555 1_555
C8 C4 1_555 1_555
H6 C8 1_555 1_555
C9 N3 1_555 1_555
H7 C9 1_555 1_555
C1D H1D 1_555 1_555
Cu1F N2D 1_555 1_555
Cu2F N1 1_555 1_555
Cu2F_2 N1B 1_555 1_555
S1B Cu1 1_555 1_555
S2D C3D 1_555 1_555
N1B C2B 1_555 1_555
N1F Cu2 1_555 1_555
N1D Cu2 1_555 1_555
N2D C3D 1_555 1_555
N2B Cu1 1_555 1_555
C2B S1B 1_555 1_555
N3D C3D 1_555 1_555
C4D N2D 1_555 1_555
H2D C4D 1_555 1_555
C5D C7 1_555 1_555
H3D C5D 1_555 1_555
C6D S2D 1_555 1_555
H4D C6D 1_555 1_555
H5D C6D 1_555 1_555
C7D C5 1_555 1_555
C8D C4D 1_555 1_555
H6D C8D 1_555 1_555
C9D N3D 1_555 1_555
H7D C9D 1_555 1_555
Cu2 S1B 1_555 1_555
C6 C7 1_555 1_555
C8 C9 1_555 1_555
C1D C5D 1_555 1_555
C1D C7D 1_555 1_555
C6D C7D 1_555 1_555
C8D C9D 1_555 1_555

#END
