
#######################################################################
#
#                 Cambridge Crystallographic Data Centre
#                                CCDC 
#
#######################################################################
#
# If this CIF has been generated from an entry in the Cambridge 
# Structural Database, then it will include bibliographic, chemical, 
# crystal, experimental, refinement or atomic coordinate data resulting 
# from the CCDC's data processing and validation procedures.
#
#######################################################################

data_NEKXAD
_symmetry_cell_setting           monoclinic
_symmetry_space_group_name_H-M   'P 21/c'
_symmetry_Int_Tables_number      14
_space_group_name_Hall           '-P 2ybc'
loop_
_symmetry_equiv_pos_site_id
_symmetry_equiv_pos_as_xyz
1 x,y,z
2 -x,1/2+y,1/2-z
3 -x,-y,-z
4 x,1/2-y,1/2+z
_cell_length_a                   4.3816(5)
_cell_length_b                   16.8590(19)
_cell_length_c                   13.1538(14)
_cell_angle_alpha                90
_cell_angle_beta                 93.384(2)
_cell_angle_gamma                90
_cell_volume                     969.969
loop_
_atom_site_label
_atom_site_type_symbol
_atom_site_fract_x
_atom_site_fract_y
_atom_site_fract_z
C1 C 1.0927(12) 0.7451(3) 0.2587(3)
H1 H 1.1394 0.7134 0.2039
C2 C 1.1965(11) 0.8217(3) 0.2620(3)
H2 H 1.3211 0.8415 0.2131
I1 I 0.34245(5) 0.945525(15) 0.623920(18)
Cu1 Cu 0.80568(13) 0.91719(4) 0.51974(5)
S1 S 0.6530(3) 0.72566(6) 0.50522(8)
N1 N 0.9325(7) 0.83960(18) 0.4134(2)
C3 C 0.7902(9) 0.5621(2) 0.4816(3)
C4 C 0.8604(8) 0.7622(2) 0.4056(3)
C5 C 0.8785(9) 0.5386(2) 0.5801(3)
H3 H 0.7972 0.5646 0.6347
N2 N 0.9285(9) 0.71429(19) 0.3303(3)
C6 C 0.9136(9) 0.5229(2) 0.4011(3)
H4 H 0.8577 0.5377 0.3344
C7 C 1.1072(9) 0.8681(3) 0.3414(3)
H5 H 1.1702 0.9208 0.3452
C8 C 0.5548(9) 0.6258(2) 0.4616(4)
H6 H 0.3701 0.6098 0.4933
H7 H 0.5065 0.6280 0.3887
C1B C 0.9073(12) 0.2549(3) 0.7413(3)
H1B H 0.8606 0.2866 0.7961
C2B C 0.8035(11) 0.1783(3) 0.7380(3)
H2B H 0.6789 0.1585 0.7869
I1_2 I 1.34245(5) 0.945525(15) 0.623920(18)
I1B I 0.65755(5) 1.054475(15) 0.376080(18)
I1_3 I 2.34245(5) 0.945525(15) 0.623920(18)
I1B_2 I 1.65755(5) 1.054475(15) 0.376080(18)
Cu1_2 Cu 1.80568(13) 0.91719(4) 0.51974(5)
Cu1_3 Cu -0.19432(13) 0.91719(4) 0.51974(5)
Cu1B Cu 0.19432(13) 1.08281(4) 0.48026(5)
Cu1B_2 Cu 1.19432(13) 0.08281(4) 0.48026(5)
Cu1B_3 Cu 1.19432(13) 1.08281(4) 0.48026(5)
S1B S 1.3470(3) 0.27434(6) 0.49478(8)
N1B N 1.0675(7) 0.16040(18) 0.5866(2)
N1_2 N 1.9325(7) 0.83960(18) 0.4134(2)
C3B C 1.2098(9) 0.4379(2) 0.5184(3)
C4B C 1.1396(8) 0.2378(2) 0.5944(3)
C5B C 1.1215(9) 0.4614(2) 0.4199(3)
H3B H 1.2028 0.4354 0.3653
N2B N 1.0715(9) 0.28571(19) 0.6697(3)
C6B C 1.0864(9) 0.4771(2) 0.5989(3)
H4B H 1.1423 0.4623 0.6656
C7B C 0.8928(9) 0.1319(3) 0.6586(3)
H5B H 0.8298 0.0792 0.6548
C8B C 1.4452(9) 0.3742(2) 0.5384(4)
H6B H 1.6299 0.3902 0.5067
H7B H 1.4935 0.3720 0.6113
loop_
_geom_bond_atom_site_label_1
_geom_bond_atom_site_label_2
_geom_bond_site_symmetry_1
_geom_bond_site_symmetry_2
C1 H1 1_555 1_555
C2 C1 1_555 1_555
H2 C2 1_555 1_555
I1 Cu1 1_555 1_555
Cu1 N1 1_555 1_555
S1 C4 1_555 1_555
N1 C4 1_555 1_555
C3 C5 1_555 1_555
C4 N2 1_555 1_555
C5 H3 1_555 1_555
N2 C1 1_555 1_555
C6 C3 1_555 1_555
H4 C6 1_555 1_555
C7 C2 1_555 1_555
H5 C7 1_555 1_555
C8 S1 1_555 1_555
H6 C8 1_555 1_555
H7 C8 1_555 1_555
C1B H1B 1_555 1_555
C2B C1B 1_555 1_555
H2B C2B 1_555 1_555
I1_2 Cu1 1_555 1_555
I1B Cu1 1_555 1_555
I1_3 Cu1_2 1_555 1_555
I1B_2 Cu1_2 1_555 1_555
Cu1_2 I1_2 1_555 1_555
Cu1_3 I1 1_555 1_555
Cu1B I1 1_555 1_555
Cu1B_2 N1B 1_555 1_555
Cu1B_3 I1_2 1_555 1_555
S1B C4B 1_555 1_555
N1B C4B 1_555 1_555
N1_2 Cu1_2 1_555 1_555
C3B C5B 1_555 1_555
C4B N2B 1_555 1_555
C5B C6 1_555 1_555
H3B C5B 1_555 1_555
N2B C1B 1_555 1_555
C6B C5 1_555 1_555
H4B C6B 1_555 1_555
C7B C2B 1_555 1_555
H5B C7B 1_555 1_555
C8B S1B 1_555 1_555
H6B C8B 1_555 1_555
H7B C8B 1_555 1_555
N1 C7 1_555 1_555
C3 C8 1_555 1_555
I1B Cu1B 1_555 1_555
I1B Cu1B_3 1_555 1_555
I1B_2 Cu1B_3 1_555 1_555
N1B C7B 1_555 1_555
C3B C6B 1_555 1_555
C3B C8B 1_555 1_555

#END
