
#######################################################################
#
#                 Cambridge Crystallographic Data Centre
#                                CCDC 
#
#######################################################################
#
# If this CIF has been generated from an entry in the Cambridge 
# Structural Database, then it will include bibliographic, chemical, 
# crystal, experimental, refinement or atomic coordinate data resulting 
# from the CCDC's data processing and validation procedures.
#
#######################################################################

data_NEKYIN
_symmetry_cell_setting           monoclinic
_symmetry_space_group_name_H-M   'P 21/n'
_symmetry_Int_Tables_number      14
_space_group_name_Hall           '-P 2yn'
loop_
_symmetry_equiv_pos_site_id
_symmetry_equiv_pos_as_xyz
1 x,y,z
2 1/2-x,1/2+y,1/2-z
3 -x,-y,-z
4 1/2+x,1/2-y,1/2+z
_cell_length_a                   5.004(5)
_cell_length_b                   10.086(14)
_cell_length_c                   15.469(18)
_cell_angle_alpha                90
_cell_angle_beta                 92.03(10)
_cell_angle_gamma                90
_cell_volume                     780.236
loop_
_atom_site_label
_atom_site_type_symbol
_atom_site_fract_x
_atom_site_fract_y
_atom_site_fract_z
Eu1 Eu 0.01831(3) 0.504975(11) 0.245838(8)
S1 S -0.00097(12) 0.20762(6) 0.38451(4)
S2 S 0.46707(12) 0.30457(6) 0.61669(4)
O1 O 0.5110(3) 0.4071(2) 0.24542(13)
O2 O -0.1027(3) 0.34302(17) 0.37202(12)
O3 O -0.2105(3) 0.10787(18) 0.37860(12)
O4 O 0.2212(4) 0.18256(19) 0.32815(12)
O5 O 0.2385(3) 0.32493(18) 0.67197(12)
O6 O 0.6679(4) 0.40832(18) 0.62520(12)
O7 O 0.5774(3) 0.17108(18) 0.62841(11)
C1 C 0.1338(5) 0.2009(2) 0.49189(16)
H1 H -0.0099 0.2086 0.5321
H2 H 0.2204 0.1159 0.5016
C2 C 0.3353(5) 0.3115(2) 0.50896(16)
H3 H 0.2492 0.3966 0.4990
H4 H 0.4798 0.3035 0.4691
H5 H 0.505(7) 0.344(4) 0.208(3)
H6 H 0.523(8) 0.373(4) 0.292(3)
Eu1_2 Eu 1.01831(3) 0.504975(11) 0.245838(8)
Eu1A Eu -0.51831(3) 0.004975(11) 0.254162(8)
Eu1A_2 Eu 0.48169(3) 0.004975(11) 0.254162(8)
Eu1B Eu -0.01831(3) 0.495025(11) 0.754162(8)
Eu1B_2 Eu 0.98169(3) 0.495025(11) 0.754162(8)
Eu1C Eu 0.51831(3) -0.004975(11) 0.745838(8)
O1_2 O -0.4890(3) 0.4071(2) 0.24542(13)
O3A O -0.2895(3) 0.60787(18) 0.12140(12)
O4A O 0.2788(4) 0.68256(19) 0.17185(12)
O5B O -0.2385(3) 0.67507(18) 0.32803(12)
O6B O 0.3321(4) 0.59168(18) 0.37480(12)
O7C O 0.0774(3) 0.32892(18) 0.12841(11)
H5_2 H -0.495(7) 0.344(4) 0.208(3)
H6_2 H -0.477(8) 0.373(4) 0.292(3)
loop_
_geom_bond_atom_site_label_1
_geom_bond_atom_site_label_2
_geom_bond_site_symmetry_1
_geom_bond_site_symmetry_2
Eu1 O1 1_555 1_555
S1 O2 1_555 1_555
S2 O5 1_555 1_555
O1 H5 1_555 1_555
O2 Eu1 1_555 1_555
O3 S1 1_555 1_555
O4 S1 1_555 1_555
O5 Eu1B 1_555 1_555
O6 S2 1_555 1_555
O7 S2 1_555 1_555
C1 S1 1_555 1_555
H1 C1 1_555 1_555
H2 C1 1_555 1_555
C2 S2 1_555 1_555
H3 C2 1_555 1_555
H4 C2 1_555 1_555
H6 O1 1_555 1_555
Eu1_2 O1 1_555 1_555
Eu1A O3 1_555 1_555
Eu1A_2 O4 1_555 1_555
Eu1B_2 O6 1_555 1_555
Eu1C O7 1_555 1_555
O1_2 Eu1 1_555 1_555
O3A Eu1 1_555 1_555
O4A Eu1 1_555 1_555
O5B Eu1 1_555 1_555
O6B Eu1 1_555 1_555
O7C Eu1 1_555 1_555
H5_2 O1_2 1_555 1_555
H6_2 O1_2 1_555 1_555
C1 C2 1_555 1_555

#END
