
#######################################################################
#
#                 Cambridge Crystallographic Data Centre
#                                CCDC 
#
#######################################################################
#
# If this CIF has been generated from an entry in the Cambridge 
# Structural Database, then it will include bibliographic, chemical, 
# crystal, experimental, refinement or atomic coordinate data resulting 
# from the CCDC's data processing and validation procedures.
#
#######################################################################

data_NELBUD
_symmetry_cell_setting           monoclinic
_symmetry_space_group_name_H-M   'P 21/c'
_symmetry_Int_Tables_number      14
_space_group_name_Hall           '-P 2ybc'
loop_
_symmetry_equiv_pos_site_id
_symmetry_equiv_pos_as_xyz
1 x,y,z
2 -x,1/2+y,1/2-z
3 -x,-y,-z
4 x,1/2-y,1/2+z
_cell_length_a                   8.7454(7)
_cell_length_b                   13.2025(8)
_cell_length_c                   12.9538(12)
_cell_angle_alpha                90
_cell_angle_beta                 123.591(6)
_cell_angle_gamma                90
_cell_volume                     1245.9
loop_
_atom_site_label
_atom_site_type_symbol
_atom_site_fract_x
_atom_site_fract_y
_atom_site_fract_z
C1 C 0.2774(6) 0.4404(3) 0.0935(3)
H1 H 0.2384 0.3736 0.0847
C2 C 0.2722(7) 0.4859(3) -0.0043(4)
H2 H 0.2269 0.4512 -0.0783
C3 C 0.3357(6) 0.5838(3) 0.0099(3)
H3 H 0.3351 0.6159 -0.0542
C4 C 0.4011(4) 0.6341(2) 0.1219(3)
C5 C 0.3981(4) 0.58374(19) 0.2149(3)
C6 C 0.4822(4) 0.7381(2) 0.1365(3)
C7 C 0.4699(4) 0.6316(2) 0.3399(3)
C8 C 0.9699(5) 1.0329(2) 0.1515(4)
H4 H 0.9135 1.0935 0.1486
C9 C 1.1263(5) 1.0248(3) 0.1566(4)
H5 H 1.1976 1.0776 0.1576
C10 C 1.0226(4) 0.8737(3) 0.1543(3)
C11 C 1.0099(7) 0.7617(3) 0.1525(6)
H6 H 1.0135 0.7391 0.2243
H7 H 1.1112 0.7330 0.1531
H8 H 0.8967 0.7405 0.0790
N1 N 0.3359(4) 0.48808(18) 0.2003(2)
N2 N 0.9053(3) 0.93832(19) 0.1510(3)
N3 N 1.1604(4) 0.9239(2) 0.1602(3)
H9 H 1.2540 0.8970 0.1654
O1 O 0.6476(3) 0.74341(16) 0.1778(2)
O2 O 0.3767(3) 0.81253(16) 0.0963(2)
O3 O 0.4726(3) 0.57433(15) 0.41889(19)
O4 O 0.5182(5) 0.71934(18) 0.3565(3)
Cd1 Cd 0.63696(3) 0.910620(14) 0.12819(2)
N1A N 0.6641(4) 0.98808(18) 0.2997(2)
O3A O 0.5274(3) 1.07433(15) 0.08111(19)
O3C O 0.4726(3) 0.92567(15) -0.08111(19)
Cd1A Cd 0.36304(3) 0.410620(14) 0.37181(2)
Cd1C Cd 0.63696(3) 0.589380(14) 0.62819(2)
loop_
_geom_bond_atom_site_label_1
_geom_bond_atom_site_label_2
_geom_bond_site_symmetry_1
_geom_bond_site_symmetry_2
C1 H1 1_555 1_555
C2 C1 1_555 1_555
H2 C2 1_555 1_555
C3 C2 1_555 1_555
H3 C3 1_555 1_555
C4 C3 1_555 1_555
C5 C4 1_555 1_555
C6 C4 1_555 1_555
C7 C5 1_555 1_555
C8 H4 1_555 1_555
C9 C8 1_555 1_555
H5 C9 1_555 1_555
C10 C11 1_555 1_555
C11 H6 1_555 1_555
H7 C11 1_555 1_555
H8 C11 1_555 1_555
N1 C1 1_555 1_555
N2 C8 1_555 1_555
N3 C9 1_555 1_555
H9 N3 1_555 1_555
O1 C6 1_555 1_555
O2 C6 1_555 1_555
O3 C7 1_555 1_555
O4 C7 1_555 1_555
Cd1 N2 1_555 1_555
N1A Cd1 1_555 1_555
O3A Cd1 1_555 1_555
O3C Cd1 1_555 1_555
Cd1A N1 1_555 1_555
Cd1C O3 1_555 1_555
C5 N1 1_555 1_555
C10 N2 1_555 1_555
C10 N3 1_555 1_555
O1 Cd1 1_555 1_555
O2 Cd1 1_555 1_555
O3 Cd1A 1_555 1_555

#END
