
#######################################################################
#
#                 Cambridge Crystallographic Data Centre
#                                CCDC 
#
#######################################################################
#
# If this CIF has been generated from an entry in the Cambridge 
# Structural Database, then it will include bibliographic, chemical, 
# crystal, experimental, refinement or atomic coordinate data resulting 
# from the CCDC's data processing and validation procedures.
#
#######################################################################

data_NELCEN
_symmetry_cell_setting           monoclinic
_symmetry_space_group_name_H-M   'P 21/c'
_symmetry_Int_Tables_number      14
_space_group_name_Hall           '-P 2ybc'
loop_
_symmetry_equiv_pos_site_id
_symmetry_equiv_pos_as_xyz
1 x,y,z
2 -x,1/2+y,1/2-z
3 -x,-y,-z
4 x,1/2-y,1/2+z
_cell_length_a                   9.0054(14)
_cell_length_b                   6.1591(10)
_cell_length_c                   17.402(3)
_cell_angle_alpha                90
_cell_angle_beta                 100.392(2)
_cell_angle_gamma                90
_cell_volume                     949.372
loop_
_atom_site_label
_atom_site_type_symbol
_atom_site_fract_x
_atom_site_fract_y
_atom_site_fract_z
Cu1 Cu 0.97022(6) 0.83104(13) 0.17043(3)
Cu2 Cu 1.0000 1.0000 0.0000
O1 O 1.1915(3) 0.8235(8) 0.16982(19)
O2 O 1.2078(3) 0.9526(8) 0.0502(2)
N1 N 1.7442(4) 0.8574(9) 0.1648(2)
N2 N 0.9350(4) 0.7482(9) 0.0577(2)
N3 N 0.8240(5) 0.6440(10) 0.0277(3)
N4 N 0.7211(6) 0.5434(12) -0.0001(4)
N5 N 0.9854(4) 1.4718(9) 0.2226(2)
N6 N 0.9946(4) 1.3531(10) 0.1704(2)
N7 N 0.9998(6) 1.2387(12) 0.1193(3)
C1 C 1.6626(6) 0.7133(13) 0.1962(3)
H1 H 1.712(6) 0.599(12) 0.223(3)
C2 C 1.5064(6) 0.7182(13) 0.1838(3)
H2 H 1.458(6) 0.592(11) 0.209(3)
C3 C 1.4320(5) 0.8749(11) 0.1355(3)
C4 C 1.5143(6) 1.0267(13) 0.1045(3)
H3 H 1.481(6) 1.143(11) 0.080(3)
C5 C 1.6694(6) 1.0163(13) 0.1200(3)
H4 H 1.720(6) 1.130(12) 0.096(3)
C6 C 1.2602(5) 0.8805(10) 0.1170(3)
Cu1B Cu 1.02978(6) 1.16896(13) -0.17043(3)
Cu1_2 Cu 1.97022(6) 0.83104(13) 0.17043(3)
Cu1_3 Cu 0.97022(6) 1.83104(13) 0.17043(3)
Cu1A Cu 1.02978(6) 1.33104(13) 0.32957(3)
Cu1B_2 Cu 0.02978(6) 1.16896(13) -0.17043(3)
Cu1C Cu 0.97022(6) 0.66896(13) -0.32957(3)
Cu1B_3 Cu 1.02978(6) 0.16896(13) -0.17043(3)
O1B O 0.8085(3) 1.1765(8) -0.16982(19)
O2B O 0.7922(3) 1.0474(8) -0.0502(2)
N1B N 0.2558(4) 1.1426(9) -0.1648(2)
N1_2 N 0.7442(4) 0.8574(9) 0.1648(2)
N1B_2 N 1.2558(4) 1.1426(9) -0.1648(2)
N2B N 1.0650(4) 1.2518(9) -0.0577(2)
N3B N 1.1760(5) 1.3560(10) -0.0277(3)
N4B N 1.2789(6) 1.4566(12) 0.0001(4)
N5B N 1.0146(4) 0.5282(9) -0.2226(2)
N5_2 N 0.9854(4) 0.4718(9) 0.2226(2)
N5A N 1.0146(4) 0.9718(9) 0.2774(2)
N5C N 0.9854(4) 1.0282(9) -0.2774(2)
N5B_2 N 1.0146(4) 1.5282(9) -0.2226(2)
N6B N 1.0054(4) 0.6469(10) -0.1704(2)
N7B N 1.0002(6) 0.7613(12) -0.1193(3)
C1B C 0.3374(6) 1.2867(13) -0.1962(3)
H1B H 0.288(6) 1.401(12) -0.223(3)
C2B C 0.4936(6) 1.2818(13) -0.1838(3)
H2B H 0.542(6) 1.408(11) -0.209(3)
C3B C 0.5680(5) 1.1251(11) -0.1355(3)
C4B C 0.4857(6) 0.9733(13) -0.1045(3)
H3B H 0.519(6) 0.857(11) -0.080(3)
C5B C 0.3306(6) 0.9837(13) -0.1200(3)
H4B H 0.280(6) 0.870(12) -0.096(3)
C6B C 0.7398(5) 1.1195(10) -0.1170(3)
loop_
_geom_bond_atom_site_label_1
_geom_bond_atom_site_label_2
_geom_bond_site_symmetry_1
_geom_bond_site_symmetry_2
Cu1 O1 1_555 1_555
Cu2 O2 1_555 1_555
O1 C6 1_555 1_555
O2 C6 1_555 1_555
N1 C1 1_555 1_555
N2 Cu1 1_555 1_555
N3 N2 1_555 1_555
N4 N3 1_555 1_555
N5 N6 1_555 1_555
N6 N7 1_555 1_555
N7 Cu2 1_555 1_555
C1 H1 1_555 1_555
C2 C1 1_555 1_555
H2 C2 1_555 1_555
C3 C2 1_555 1_555
C4 C3 1_555 1_555
H3 C4 1_555 1_555
C5 N1 1_555 1_555
H4 C5 1_555 1_555
C6 C3 1_555 1_555
Cu1B O1B 1_555 1_555
Cu1_2 N1 1_555 1_555
Cu1_3 N5 1_555 1_555
Cu1A N5 1_555 1_555
Cu1B_2 N1B 1_555 1_555
Cu1C N5B 1_555 1_555
Cu1B_3 N5B 1_555 1_555
O1B C6B 1_555 1_555
O2B Cu2 1_555 1_555
N1B C1B 1_555 1_555
N1_2 Cu1 1_555 1_555
N1B_2 Cu1B 1_555 1_555
N2B Cu2 1_555 1_555
N3B N2B 1_555 1_555
N4B N3B 1_555 1_555
N5B N6B 1_555 1_555
N5_2 Cu1 1_555 1_555
N5A Cu1 1_555 1_555
N5C Cu1B 1_555 1_555
N5B_2 Cu1B 1_555 1_555
N6B N7B 1_555 1_555
N7B Cu2 1_555 1_555
C1B H1B 1_555 1_555
C2B C1B 1_555 1_555
H2B C2B 1_555 1_555
C3B C2B 1_555 1_555
C4B C3B 1_555 1_555
H3B C4B 1_555 1_555
C5B N1B 1_555 1_555
H4B C5B 1_555 1_555
C6B O2B 1_555 1_555
Cu2 N2 1_555 1_555
C4 C5 1_555 1_555
Cu1B N2B 1_555 1_555
Cu1A N5A 1_555 1_555
Cu1C N5C 1_555 1_555
C3B C6B 1_555 1_555
C4B C5B 1_555 1_555

#END
