
#######################################################################
#
#                 Cambridge Crystallographic Data Centre
#                                CCDC 
#
#######################################################################
#
# If this CIF has been generated from an entry in the Cambridge 
# Structural Database, then it will include bibliographic, chemical, 
# crystal, experimental, refinement or atomic coordinate data resulting 
# from the CCDC's data processing and validation procedures.
#
#######################################################################

data_NELFUF
_symmetry_cell_setting           triclinic
_symmetry_space_group_name_H-M   'P -1'
_symmetry_Int_Tables_number      2
_space_group_name_Hall           '-P 1'
loop_
_symmetry_equiv_pos_site_id
_symmetry_equiv_pos_as_xyz
1 x,y,z
2 -x,-y,-z
_cell_length_a                   7.1761(4)
_cell_length_b                   9.5955(6)
_cell_length_c                   12.9480(8)
_cell_angle_alpha                74.515(3)
_cell_angle_beta                 83.904(3)
_cell_angle_gamma                68.133(3)
_cell_volume                     797.371
loop_
_atom_site_label
_atom_site_type_symbol
_atom_site_fract_x
_atom_site_fract_y
_atom_site_fract_z
Mn1 Mn 0.0000 0.0000 0.0000
Ag1 Ag -0.28669(3) 0.55334(2) 0.047307(15)
N1 N 0.4446(3) 0.2417(2) -0.52417(14)
N2 N 0.0862(3) 0.0849(2) -0.17161(13)
N3 N 0.1299(3) 0.3336(2) -0.57459(14)
O1 O -0.0605(3) 0.3842(2) -0.57093(15)
C1 C 0.0253(3) 0.1611(3) -0.36079(17)
H1 H -0.0543 0.1724 -0.4169
C2 C 0.4490(3) 0.3291(3) -0.63958(16)
O2 O 0.6038(2) 0.1695(2) -0.46847(14)
C3 C 0.1945(3) 0.2022(2) -0.38064(16)
C4 C -0.0222(3) 0.1031(2) -0.25567(17)
H2 H -0.1351 0.0752 -0.2427
C5 C 0.2484(3) 0.1254(3) -0.19195(17)
H3 H 0.3246 0.1139 -0.1344
C6 C 0.3083(3) 0.1830(3) -0.29368(17)
H4 H 0.4229 0.2087 -0.3042
C7 C 0.2455(3) 0.3404(2) -0.67816(16)
C8 C 0.6328(4) 0.2402(3) -0.6956(2)
H5 H 0.7513 0.2364 -0.6650
H6 H 0.6276 0.2909 -0.7705
H7 H 0.6363 0.1367 -0.6868
C9 C 0.2555(3) 0.2594(3) -0.49067(16)
C10 C 0.1376(4) 0.4885(3) -0.76033(19)
H8 H 0.1163 0.5760 -0.7319
H9 H 0.0105 0.4881 -0.7767
H10 H 0.2178 0.4952 -0.8244
C11 C 0.2552(4) 0.1989(3) -0.7151(2)
H11 H 0.3232 0.1062 -0.6621
H12 H 0.3271 0.1975 -0.7819
H13 H 0.1215 0.2043 -0.7243
C12 C 0.4564(4) 0.4851(3) -0.6365(2)
H14 H 0.3404 0.5386 -0.5989
H15 H 0.4577 0.5464 -0.7084
H16 H 0.5757 0.4683 -0.6002
N4 N 0.0101(3) 0.2119(2) 0.03936(16)
C13 C -0.0816(3) 0.3341(3) 0.04655(18)
C14 C 0.4690(3) -0.2465(3) 0.0458(2)
N5 N 0.3249(3) -0.1411(2) 0.04062(16)
N1A N -0.4446(3) -0.2417(2) 0.52417(14)
N2A N -0.0862(3) -0.0849(2) 0.17161(13)
N3A N -0.1299(3) -0.3336(2) 0.57459(14)
O1A O 0.0605(3) -0.3842(2) 0.57093(15)
C1A C -0.0253(3) -0.1611(3) 0.36079(17)
H1A H 0.0543 -0.1724 0.4169
C2A C -0.4490(3) -0.3291(3) 0.63958(16)
O2A O -0.6038(2) -0.1695(2) 0.46847(14)
C3A C -0.1945(3) -0.2022(2) 0.38064(16)
C4A C 0.0222(3) -0.1031(2) 0.25567(17)
H2A H 0.1351 -0.0752 0.2427
C5A C -0.2484(3) -0.1254(3) 0.19195(17)
H3A H -0.3246 -0.1139 0.1344
C6A C -0.3083(3) -0.1830(3) 0.29368(17)
H4A H -0.4229 -0.2087 0.3042
C7A C -0.2455(3) -0.3404(2) 0.67816(16)
C8A C -0.6328(4) -0.2402(3) 0.6956(2)
H5A H -0.7513 -0.2364 0.6650
H6A H -0.6276 -0.2909 0.7705
H7A H -0.6363 -0.1367 0.6868
C9A C -0.2555(3) -0.2594(3) 0.49067(16)
C10A C -0.1376(4) -0.4885(3) 0.76033(19)
H8A H -0.1163 -0.5760 0.7319
H9A H -0.0105 -0.4881 0.7767
H10A H -0.2178 -0.4952 0.8244
C11A C -0.2552(4) -0.1989(3) 0.7151(2)
H11A H -0.3232 -0.1062 0.6621
H12A H -0.3271 -0.1975 0.7819
H13A H -0.1215 -0.2043 0.7243
C12A C -0.4564(4) -0.4851(3) 0.6365(2)
H14A H -0.3404 -0.5386 0.5989
H15A H -0.4577 -0.5464 0.7084
H16A H -0.5757 -0.4683 0.6002
N4A N -0.0101(3) -0.2119(2) -0.03936(16)
C13A C 0.0816(3) -0.3341(3) -0.04655(18)
C14A C -0.4690(3) 0.2465(3) -0.0458(2)
N5A N -0.3249(3) 0.1411(2) -0.04062(16)
Ag1A Ag 0.28669(3) -0.55334(2) -0.047307(15)
C14_2 C -0.5310(3) 0.7535(3) 0.0458(2)
Ag1_2 Ag 0.71331(3) -0.44666(2) 0.047307(15)
Ag1A_2 Ag -0.71331(3) 0.44666(2) -0.047307(15)
C14A_2 C 0.5310(3) -0.7535(3) -0.0458(2)
loop_
_geom_bond_atom_site_label_1
_geom_bond_atom_site_label_2
_geom_bond_site_symmetry_1
_geom_bond_site_symmetry_2
Mn1 N2 1_555 1_555
Ag1 C13 1_555 1_555
N1 C2 1_555 1_555
N2 C4 1_555 1_555
N3 O1 1_555 1_555
C1 H1 1_555 1_555
C2 C7 1_555 1_555
O2 N1 1_555 1_555
C3 C1 1_555 1_555
C4 C1 1_555 1_555
H2 C4 1_555 1_555
C5 N2 1_555 1_555
H3 C5 1_555 1_555
C6 C3 1_555 1_555
H4 C6 1_555 1_555
C7 N3 1_555 1_555
C8 C2 1_555 1_555
H5 C8 1_555 1_555
H6 C8 1_555 1_555
H7 C8 1_555 1_555
C9 N1 1_555 1_555
C10 C7 1_555 1_555
H8 C10 1_555 1_555
H9 C10 1_555 1_555
H10 C10 1_555 1_555
C11 C7 1_555 1_555
H11 C11 1_555 1_555
H12 C11 1_555 1_555
H13 C11 1_555 1_555
C12 C2 1_555 1_555
H14 C12 1_555 1_555
H15 C12 1_555 1_555
H16 C12 1_555 1_555
N4 Mn1 1_555 1_555
C13 N4 1_555 1_555
C14 N5 1_555 1_555
N5 Mn1 1_555 1_555
N1A C2A 1_555 1_555
N2A Mn1 1_555 1_555
N3A O1A 1_555 1_555
C1A H1A 1_555 1_555
C2A C7A 1_555 1_555
O2A N1A 1_555 1_555
C3A C1A 1_555 1_555
C4A N2A 1_555 1_555
H2A C4A 1_555 1_555
C5A N2A 1_555 1_555
H3A C5A 1_555 1_555
C6A C3A 1_555 1_555
H4A C6A 1_555 1_555
C7A N3A 1_555 1_555
C8A C2A 1_555 1_555
H5A C8A 1_555 1_555
H6A C8A 1_555 1_555
H7A C8A 1_555 1_555
C9A N1A 1_555 1_555
C10A C7A 1_555 1_555
H8A C10A 1_555 1_555
H9A C10A 1_555 1_555
H10A C10A 1_555 1_555
C11A C7A 1_555 1_555
H11A C11A 1_555 1_555
H12A C11A 1_555 1_555
H13A C11A 1_555 1_555
C12A C2A 1_555 1_555
H14A C12A 1_555 1_555
H15A C12A 1_555 1_555
H16A C12A 1_555 1_555
N4A Mn1 1_555 1_555
C13A N4A 1_555 1_555
C14A N5A 1_555 1_555
N5A Mn1 1_555 1_555
Ag1A C13A 1_555 1_555
C14_2 Ag1 1_555 1_555
Ag1_2 C14 1_555 1_555
Ag1A_2 C14A 1_555 1_555
C14A_2 Ag1A 1_555 1_555
N3 C9 1_555 1_555
C3 C9 1_555 1_555
C5 C6 1_555 1_555
N3A C9A 1_555 1_555
C1A C4A 1_555 1_555
C3A C9A 1_555 1_555
C5A C6A 1_555 1_555

#END
