
#######################################################################
#
#                 Cambridge Crystallographic Data Centre
#                                CCDC 
#
#######################################################################
#
# If this CIF has been generated from an entry in the Cambridge 
# Structural Database, then it will include bibliographic, chemical, 
# crystal, experimental, refinement or atomic coordinate data resulting 
# from the CCDC's data processing and validation procedures.
#
#######################################################################

data_NELHUJ
_symmetry_cell_setting           monoclinic
_symmetry_space_group_name_H-M   'P 21/c'
_symmetry_Int_Tables_number      14
_space_group_name_Hall           '-P 2ybc'
loop_
_symmetry_equiv_pos_site_id
_symmetry_equiv_pos_as_xyz
1 x,y,z
2 -x,1/2+y,1/2-z
3 -x,-y,-z
4 x,1/2-y,1/2+z
_cell_length_a                   15.4651(8)
_cell_length_b                   17.3942(9)
_cell_length_c                   13.6197(7)
_cell_angle_alpha                90
_cell_angle_beta                 115.9100(10)
_cell_angle_gamma                90
_cell_volume                     3295.47
loop_
_atom_site_label
_atom_site_type_symbol
_atom_site_fract_x
_atom_site_fract_y
_atom_site_fract_z
Zn1 Zn -0.079947(15) 0.338441(13) 0.621149(18)
Zn2 Zn -0.349200(15) 0.338650(12) 0.437140(18)
N1 N -0.34743(13) -0.14234(11) 0.41494(13)
H1 H -0.3956 -0.1680 0.3571
N2 N -0.10242(11) 0.39113(9) 0.47308(13)
N3 N -0.10089(12) 0.46022(10) 0.64687(13)
N4 N -0.36489(12) 0.45787(10) 0.45781(14)
N5 N -0.36887(11) 0.38755(10) 0.28493(13)
O1 O -0.12319(10) 0.23110(8) 0.55501(12)
O2 O -0.26715(11) 0.25711(8) 0.41950(12)
O3 O -0.05490(10) -0.17041(9) 0.77624(12)
O4 O -0.10833(10) -0.21018(10) 0.89455(11)
O5 O -0.53695(10) -0.28717(9) 0.56951(12)
O6 O -0.47497(11) -0.25174(10) 0.74460(12)
O7 O -0.13171(11) 0.31251(10) 0.73339(13)
O8 O -0.27885(15) 0.33052(12) 0.60699(15)
C1 C -0.32747(14) -0.16724(10) 0.51945(15)
C2 C -0.23598(14) -0.16345(11) 0.60750(15)
H4 H -0.1846 -0.1439 0.5972
C3 C -0.22157(13) -0.18894(11) 0.71094(15)
C4 C -0.29859(13) -0.21564(11) 0.72864(15)
H5 H -0.2897 -0.2292 0.7985
C5 C -0.38922(13) -0.22179(10) 0.64018(15)
C6 C -0.40213(13) -0.19841(11) 0.53760(15)
H6 H -0.4625 -0.2037 0.4790
C7 C -0.27229(16) -0.11443(12) 0.38672(16)
H7 H -0.2914 -0.1237 0.3098
H8 H -0.2136 -0.1430 0.4280
C8 C -0.25292(14) -0.02944(11) 0.41023(15)
C9 C -0.32564(15) 0.02398(13) 0.36027(17)
H9 H -0.3866 0.0071 0.3121
C10 C -0.30953(15) 0.10153(12) 0.38053(17)
H10 H -0.3591 0.1364 0.3454
C11 C -0.21914(13) 0.12779(11) 0.45350(15)
C12 C -0.14578(14) 0.07497(12) 0.50304(16)
H11 H -0.0849 0.0919 0.5514
C13 C -0.16218(15) -0.00272(12) 0.48136(16)
H12 H -0.1120 -0.0375 0.5147
C14 C -0.20119(14) 0.21168(11) 0.47902(15)
C15 C -0.12115(13) -0.19075(11) 0.80239(16)
C16 C -0.47280(13) -0.25586(11) 0.65475(16)
C17 C -0.09957(16) 0.35264(13) 0.38908(17)
H13 H -0.0866 0.3002 0.3968
C18 C -0.11512(16) 0.38766(15) 0.29179(18)
H14 H -0.1127 0.3596 0.2349
C19 C -0.13432(17) 0.46500(15) 0.28132(19)
H15 H -0.1450 0.4903 0.2168
C20 C -0.13766(17) 0.50525(14) 0.36727(19)
H16 H -0.1513 0.5576 0.3607
C21 C -0.12042(13) 0.46684(11) 0.46317(16)
C22 C -0.11984(13) 0.50608(12) 0.56017(16)
C23 C -0.13520(18) 0.58400(14) 0.5645(2)
H17 H -0.1487 0.6148 0.5037
C24 C -0.1304(2) 0.61566(15) 0.6595(2)
H18 H -0.1408 0.6680 0.6634
C25 C -0.10984(19) 0.56893(16) 0.7484(2)
H19 H -0.1054 0.5892 0.8136
C26 C -0.09609(16) 0.49199(14) 0.73923(19)
H20 H -0.0829 0.4604 0.7992
C27 C -0.36726(18) 0.48938(16) 0.5467(2)
H21 H -0.3512 0.4592 0.6087
C28 C -0.3926(2) 0.56470(18) 0.5488(3)
H22 H -0.3940 0.5850 0.6113
C29 C -0.4158(2) 0.60941(17) 0.4590(3)
H23 H -0.4344 0.6602 0.4591
C30 C -0.4116(2) 0.57920(15) 0.3683(2)
H24 H -0.4256 0.6096 0.3070
C31 C -0.38599(15) 0.50247(12) 0.36928(17)
C32 C -0.38134(14) 0.46384(12) 0.27476(17)
C33 C -0.38867(18) 0.50251(15) 0.18202(19)
H25 H -0.3976 0.5555 0.1761
C34 C -0.38251(18) 0.46137(18) 0.0994(2)
H26 H -0.3862 0.4864 0.0373
C35 C -0.37085(16) 0.38311(17) 0.10893(19)
H27 H -0.3670 0.3544 0.0534
C36 C -0.36497(16) 0.34775(13) 0.20234(19)
H28 H -0.3581 0.2946 0.2084
C37 C -0.22000(16) 0.31429(14) 0.69808(17)
H29 H -0.2442 0.3016 0.7476
Zn1A Zn 0.079947(15) -0.161559(13) 0.878851(18)
Zn2B Zn -0.650800(15) -0.338650(12) 0.562860(18)
O3A O 0.05490(10) 0.32959(9) 0.72376(12)
O5B O -0.46305(10) 0.28717(9) 0.43049(12)
O9 O 0.03205(15) 0.16362(11) 0.45809(18)
H2 H 0.0451 0.2069 0.5102
H3 H -0.0165 0.1809 0.3863
loop_
_geom_bond_atom_site_label_1
_geom_bond_atom_site_label_2
_geom_bond_site_symmetry_1
_geom_bond_site_symmetry_2
Zn1 N2 1_555 1_555
Zn2 N4 1_555 1_555
N1 H1 1_555 1_555
N2 C17 1_555 1_555
N3 Zn1 1_555 1_555
N4 C27 1_555 1_555
N5 Zn2 1_555 1_555
O1 Zn1 1_555 1_555
O2 Zn2 1_555 1_555
O3 C15 1_555 1_555
O4 C15 1_555 1_555
O5 C16 1_555 1_555
O6 C16 1_555 1_555
O7 Zn1 1_555 1_555
O8 Zn2 1_555 1_555
O9 H2 1_555 1_555
H3 O9 1_555 1_555
C1 N1 1_555 1_555
C2 C1 1_555 1_555
H4 C2 1_555 1_555
C3 C2 1_555 1_555
C4 C3 1_555 1_555
H5 C4 1_555 1_555
C5 C4 1_555 1_555
C6 C1 1_555 1_555
H6 C6 1_555 1_555
C7 N1 1_555 1_555
H7 C7 1_555 1_555
H8 C7 1_555 1_555
C8 C7 1_555 1_555
C9 C8 1_555 1_555
H9 C9 1_555 1_555
C10 C9 1_555 1_555
H10 C10 1_555 1_555
C11 C10 1_555 1_555
C12 C11 1_555 1_555
H11 C12 1_555 1_555
C13 C8 1_555 1_555
H12 C13 1_555 1_555
C14 O1 1_555 1_555
C15 C3 1_555 1_555
C16 C5 1_555 1_555
C17 H13 1_555 1_555
C18 C17 1_555 1_555
H14 C18 1_555 1_555
C19 C18 1_555 1_555
H15 C19 1_555 1_555
C20 C19 1_555 1_555
H16 C20 1_555 1_555
C21 N2 1_555 1_555
C22 N3 1_555 1_555
C23 C22 1_555 1_555
H17 C23 1_555 1_555
C24 C23 1_555 1_555
H18 C24 1_555 1_555
C25 C24 1_555 1_555
H19 C25 1_555 1_555
C26 N3 1_555 1_555
H20 C26 1_555 1_555
C27 H21 1_555 1_555
C28 C27 1_555 1_555
H22 C28 1_555 1_555
C29 C28 1_555 1_555
H23 C29 1_555 1_555
C30 C29 1_555 1_555
H24 C30 1_555 1_555
C31 N4 1_555 1_555
C32 N5 1_555 1_555
C33 C32 1_555 1_555
H25 C33 1_555 1_555
C34 C33 1_555 1_555
H26 C34 1_555 1_555
C35 C34 1_555 1_555
H27 C35 1_555 1_555
C36 N5 1_555 1_555
H28 C36 1_555 1_555
C37 O7 1_555 1_555
H29 C37 1_555 1_555
Zn1A O3 1_555 1_555
Zn2B O5 1_555 1_555
O3A Zn1 1_555 1_555
O5B Zn2 1_555 1_555
O2 C14 1_555 1_555
O8 C37 1_555 1_555
C5 C6 1_555 1_555
C11 C14 1_555 1_555
C12 C13 1_555 1_555
C20 C21 1_555 1_555
C21 C22 1_555 1_555
C25 C26 1_555 1_555
C30 C31 1_555 1_555
C31 C32 1_555 1_555
C35 C36 1_555 1_555

#END
