
#######################################################################
#
#                 Cambridge Crystallographic Data Centre
#                                CCDC 
#
#######################################################################
#
# If this CIF has been generated from an entry in the Cambridge 
# Structural Database, then it will include bibliographic, chemical, 
# crystal, experimental, refinement or atomic coordinate data resulting 
# from the CCDC's data processing and validation procedures.
#
#######################################################################

data_NELHES
_symmetry_cell_setting           monoclinic
_symmetry_space_group_name_H-M   'P 21/n'
_symmetry_Int_Tables_number      14
_space_group_name_Hall           '-P 2yn'
loop_
_symmetry_equiv_pos_site_id
_symmetry_equiv_pos_as_xyz
1 x,y,z
2 1/2-x,1/2+y,1/2-z
3 -x,-y,-z
4 1/2+x,1/2-y,1/2+z
_cell_length_a                   12.485(2)
_cell_length_b                   12.624(2)
_cell_length_c                   15.718(3)
_cell_angle_alpha                90
_cell_angle_beta                 90.42(3)
_cell_angle_gamma                90
_cell_volume                     2477.26
loop_
_atom_site_label
_atom_site_type_symbol
_atom_site_fract_x
_atom_site_fract_y
_atom_site_fract_z
Cu1 Cu 0.8241(1) 0.3596(1) 0.2876(1)
O1 O 0.8701(3) 0.2177(3) 0.3093(2)
O2 O 0.9734(3) 0.3885(4) 0.2508(3)
O3 O 0.9767(4) 0.4047(4) 0.3875(3)
O4 O 1.1228(4) 0.4170(6) 0.3165(3)
O5 O 0.6969(3) 0.3481(4) 0.3591(3)
O6 O 0.5241(4) 0.3428(5) 0.3463(4)
O7 O 0.6239(4) 0.2886(5) 0.2451(4)
N1 N 0.7961(5) 0.2073(5) 0.4957(3)
H1 H 0.781(5) 0.238(5) 0.468(4)
N2 N 0.7307(4) -0.0198(4) 0.2786(3)
N3 N 0.7830(4) 0.0720(4) 0.2507(2)
N4 N 1.0261(4) 0.4038(4) 0.3199(4)
N5 N 0.6113(5) 0.3262(5) 0.3158(4)
C1 C 0.8072(4) 0.1087(4) 0.4777(3)
C2 C 0.8377(4) 0.0370(4) 0.5471(3)
C3 C 0.8854(4) -0.0618(5) 0.5301(4)
H2 H 0.899 -0.082 0.474
C4 C 0.9128(5) -0.1285(5) 0.5959(4)
H3 H 0.943 -0.195 0.585
C5 C 0.8959(6) -0.0969(6) 0.6778(4)
H4 H 0.915 -0.142 0.722
C6 C 0.8513(5) -0.0003(6) 0.6960(4)
H5 H 0.841 0.019 0.752
C7 C 0.8220(4) 0.0688(5) 0.6304(3)
C8 C 0.7734(5) 0.1755(5) 0.6457(4)
H6 H 0.793 0.200 0.702
H7 H 0.696 0.170 0.643
C9 C 0.8103(5) 0.2565(5) 0.5808(3)
C10 C 0.9269(5) 0.2869(6) 0.5920(4)
H8 H 0.971 0.224 0.591
H9 H 0.937 0.322 0.646
H10 H 0.948 0.334 0.547
C11 C 0.7391(6) 0.3541(6) 0.5825(4)
H11 H 0.666 0.333 0.575
H12 H 0.759 0.401 0.537
H13 H 0.748 0.390 0.636
C12 C 0.7895(4) 0.0730(4) 0.3907(3)
C13 C 0.8177(4) 0.1318(5) 0.3183(3)
C14 C 0.7376(4) -0.0186(4) 0.3626(3)
C15 C 0.6868(5) -0.1079(5) 0.4098(4)
H14 H 0.659 -0.159 0.370
H15 H 0.630 -0.081 0.444
H16 H 0.739 -0.142 0.446
C16 C 0.7917(5) 0.0934(5) 0.1619(3)
C17 C 0.7002(5) 0.1009(5) 0.1124(3)
H17 H 0.633 0.095 0.137
C18 C 0.7102(6) 0.1170(5) 0.0254(4)
H18 H 0.649 0.119 -0.009
C19 C 0.8085(6) 0.1294(5) -0.0103(4)
H19 H 0.815 0.142 -0.068
C20 C 0.8985(6) 0.1233(6) 0.0397(4)
H20 H 0.965 0.131 0.015
C21 C 0.8925(5) 0.1062(5) 0.1257(4)
H21 H 0.954 0.103 0.159
N2A N 0.7693(4) 0.4802(4) 0.2214(3)
Cu1A Cu 0.6759(1) -0.1404(1) 0.2124(1)
N6 N 0.5576(6) 0.1324(7) 0.4876(6)
C22 C 0.5051(7) 0.1185(6) 0.4298(7)
C23 C 0.435(1) 0.100(1) 0.3596(8)
H22 H 0.398 0.16 0.351
H23 H 0.383 0.048 0.380
H24 H 0.464 0.108 0.296
loop_
_geom_bond_atom_site_label_1
_geom_bond_atom_site_label_2
_geom_bond_site_symmetry_1
_geom_bond_site_symmetry_2
Cu1 O1 1_555 1_555
O1 C13 1_555 1_555
O2 Cu1 1_555 1_555
O3 Cu1 1_555 1_555
O4 N4 1_555 1_555
O5 Cu1 1_555 1_555
O6 N5 1_555 1_555
O7 N5 1_555 1_555
N1 H1 1_555 1_555
N2 N3 1_555 1_555
N3 C13 1_555 1_555
N4 O2 1_555 1_555
N5 O5 1_555 1_555
N6 C22 1_555 1_555
C1 N1 1_555 1_555
C2 C1 1_555 1_555
C3 C2 1_555 1_555
H2 C3 1_555 1_555
C4 C3 1_555 1_555
H3 C4 1_555 1_555
C5 C4 1_555 1_555
H4 C5 1_555 1_555
C6 C5 1_555 1_555
H5 C6 1_555 1_555
C7 C2 1_555 1_555
C8 C7 1_555 1_555
H6 C8 1_555 1_555
H7 C8 1_555 1_555
C9 N1 1_555 1_555
C10 C9 1_555 1_555
H8 C10 1_555 1_555
H9 C10 1_555 1_555
H10 C10 1_555 1_555
C11 C9 1_555 1_555
H11 C11 1_555 1_555
H12 C11 1_555 1_555
H13 C11 1_555 1_555
C12 C1 1_555 1_555
C13 C12 1_555 1_555
C14 N2 1_555 1_555
C15 C14 1_555 1_555
H14 C15 1_555 1_555
H15 C15 1_555 1_555
H16 C15 1_555 1_555
C16 N3 1_555 1_555
C17 C16 1_555 1_555
H17 C17 1_555 1_555
C18 C17 1_555 1_555
H18 C18 1_555 1_555
C19 C18 1_555 1_555
H19 C19 1_555 1_555
C20 C19 1_555 1_555
H20 C20 1_555 1_555
C21 C16 1_555 1_555
H21 C21 1_555 1_555
C22 C23 1_555 1_555
C23 H22 1_555 1_555
H23 C23 1_555 1_555
H24 C23 1_555 1_555
N2A Cu1 1_555 1_555
Cu1A N2 1_555 1_555
O3 N4 1_555 1_555
C6 C7 1_555 1_555
C8 C9 1_555 1_555
C12 C14 1_555 1_555
C20 C21 1_555 1_555

#END
