
#######################################################################
#
#                 Cambridge Crystallographic Data Centre
#                                CCDC 
#
#######################################################################
#
# If this CIF has been generated from an entry in the Cambridge 
# Structural Database, then it will include bibliographic, chemical, 
# crystal, experimental, refinement or atomic coordinate data resulting 
# from the CCDC's data processing and validation procedures.
#
#######################################################################

data_NELHOD
_symmetry_cell_setting           triclinic
_symmetry_space_group_name_H-M   'P -1'
_symmetry_Int_Tables_number      2
_space_group_name_Hall           '-P 1'
loop_
_symmetry_equiv_pos_site_id
_symmetry_equiv_pos_as_xyz
1 x,y,z
2 -x,-y,-z
_cell_length_a                   10.1673(7)
_cell_length_b                   10.5369(7)
_cell_length_c                   13.9530(9)
_cell_angle_alpha                89.8220(10)
_cell_angle_beta                 70.6160(10)
_cell_angle_gamma                64.9480(10)
_cell_volume                     1260.8
loop_
_atom_site_label
_atom_site_type_symbol
_atom_site_fract_x
_atom_site_fract_y
_atom_site_fract_z
Cd1 Cd -0.141934(18) 0.600600(16) 0.817012(12)
N1 N 0.3271(3) -0.2293(3) 0.52863(18)
H1 H 0.3778 -0.1876 0.5497
N2 N -0.2280(2) 0.8369(2) 0.78816(16)
N3 N -0.2449(2) 0.7464(2) 0.97450(16)
O1 O -0.0877(2) 0.40377(17) 0.90603(14)
O2 O -0.0762(2) 0.23864(18) 1.00573(13)
H2 H -0.1003 0.3115 1.0538
O3 O 0.8903(2) -0.4994(2) 0.29846(13)
O4 O 0.89080(19) -0.59908(18) 0.16123(13)
O5 O 0.3646(2) -0.5638(2) 0.16830(14)
O6 O 0.1938(2) -0.5304(2) 0.32254(14)
C1 C 0.4044(3) -0.3333(2) 0.44236(17)
C2 C 0.5660(3) -0.3853(3) 0.39296(18)
H7 H 0.6201 -0.3552 0.4221
C3 C 0.6469(3) -0.4805(2) 0.30159(17)
C4 C 0.5671(3) -0.5271(2) 0.25748(17)
H8 H 0.6197 -0.5877 0.1947
C5 C 0.4078(3) -0.4818(2) 0.30858(17)
C6 C 0.3270(3) -0.3869(2) 0.40116(17)
H9 H 0.2213 -0.3594 0.4355
C7 C 0.1616(3) -0.1690(3) 0.58077(19)
H10 H 0.1107 -0.1316 0.5322
H11 H 0.1332 -0.2424 0.6081
C8 C 0.1058(3) -0.0515(3) 0.66758(18)
C9 C 0.0833(3) -0.0789(3) 0.76757(19)
H12 H 0.1054 -0.1708 0.7807
C10 C 0.0286(3) 0.0281(2) 0.84753(19)
H13 H 0.0133 0.0080 0.9142
C11 C -0.0039(3) 0.1660(2) 0.82937(17)
C12 C 0.0211(3) 0.1945(3) 0.72941(19)
H14 H 0.0015 0.2861 0.7163
C13 C 0.0752(3) 0.0867(3) 0.64939(19)
H15 H 0.0914 0.1065 0.5826
C14 C -0.0605(3) 0.2818(2) 0.91528(18)
C15 C 0.8194(3) -0.5298(2) 0.25028(17)
C16 C 0.3178(3) -0.5296(2) 0.26339(18)
C17 C -0.2246(3) 0.8811(3) 0.6987(2)
H16 H -0.1899 0.8145 0.6413
C18 C -0.2710(4) 1.0234(3) 0.6869(3)
H17 H -0.2681 1.0506 0.6231
C19 C -0.3202(3) 1.1215(3) 0.7697(3)
H18 H -0.3506 1.2165 0.7626
C20 C -0.3254(3) 1.0800(3) 0.8662(2)
C21 C -0.3758(3) 1.1771(3) 0.9573(3)
H19 H -0.4063 1.2730 0.9536
C22 C -0.3796(3) 1.1320(3) 1.0474(3)
H20 H -0.4109 1.1971 1.1049
C23 C -0.3363(3) 0.9852(3) 1.0574(2)
C24 C -0.3440(3) 0.9357(3) 1.1509(2)
H21 H -0.3768 0.9981 1.2104
C25 C -0.3029(3) 0.7943(3) 1.1547(2)
H22 H -0.3078 0.7598 1.2165
C26 C -0.2537(3) 0.7034(3) 1.0645(2)
H23 H -0.2257 0.6077 1.0678
C27 C -0.2857(3) 0.8858(2) 0.96968(18)
C28 C -0.2783(3) 0.9340(2) 0.8713(2)
Cd1A Cd 1.141934(18) -0.600600(16) 0.182988(12)
Cd1A_2 Cd 0.141934(18) -0.600600(16) 0.182988(12)
O3A O 0.1097(2) 0.4994(2) 0.70154(13)
O4A O 0.10920(19) 0.59908(18) 0.83877(13)
O5A O -0.3646(2) 0.5638(2) 0.83170(14)
O6A O -0.1938(2) 0.5304(2) 0.67746(14)
O7 O 0.8308(3) 0.6546(2) 0.49759(16)
H3 H 0.8265 0.5981 0.5517
H4 H 0.8735 0.5971 0.4349
O8 O 0.4669(4) 0.1139(4) 0.4294(3)
H5 H 0.3718 0.1749 0.4565
H6 H 0.4746 0.0316 0.4330
loop_
_geom_bond_atom_site_label_1
_geom_bond_atom_site_label_2
_geom_bond_site_symmetry_1
_geom_bond_site_symmetry_2
Cd1 N2 1_555 1_555
N1 H1 1_555 1_555
N2 C17 1_555 1_555
N3 Cd1 1_555 1_555
O1 Cd1 1_555 1_555
O2 H2 1_555 1_555
O3 C15 1_555 1_555
O4 C15 1_555 1_555
O5 C16 1_555 1_555
O6 C16 1_555 1_555
O7 H3 1_555 1_555
H4 O7 1_555 1_555
O8 H5 1_555 1_555
H6 O8 1_555 1_555
C1 N1 1_555 1_555
C2 C1 1_555 1_555
H7 C2 1_555 1_555
C3 C2 1_555 1_555
C4 C3 1_555 1_555
H8 C4 1_555 1_555
C5 C4 1_555 1_555
C6 C1 1_555 1_555
H9 C6 1_555 1_555
C7 N1 1_555 1_555
H10 C7 1_555 1_555
H11 C7 1_555 1_555
C8 C7 1_555 1_555
C9 C8 1_555 1_555
H12 C9 1_555 1_555
C10 C9 1_555 1_555
H13 C10 1_555 1_555
C11 C10 1_555 1_555
C12 C11 1_555 1_555
H14 C12 1_555 1_555
C13 C8 1_555 1_555
H15 C13 1_555 1_555
C14 O1 1_555 1_555
C15 C3 1_555 1_555
C16 C5 1_555 1_555
C17 H16 1_555 1_555
C18 C17 1_555 1_555
H17 C18 1_555 1_555
C19 C18 1_555 1_555
H18 C19 1_555 1_555
C20 C19 1_555 1_555
C21 C20 1_555 1_555
H19 C21 1_555 1_555
C22 C21 1_555 1_555
H20 C22 1_555 1_555
C23 C22 1_555 1_555
C24 C23 1_555 1_555
H21 C24 1_555 1_555
C25 C24 1_555 1_555
H22 C25 1_555 1_555
C26 N3 1_555 1_555
H23 C26 1_555 1_555
C27 N3 1_555 1_555
C28 N2 1_555 1_555
Cd1A O3 1_555 1_555
Cd1A_2 O5 1_555 1_555
O3A Cd1 1_555 1_555
O4A Cd1 1_555 1_555
O5A Cd1 1_555 1_555
O6A Cd1 1_555 1_555
O2 C14 1_555 1_555
O4 Cd1A 1_555 1_555
O6 Cd1A_2 1_555 1_555
C5 C6 1_555 1_555
C11 C14 1_555 1_555
C12 C13 1_555 1_555
C20 C28 1_555 1_555
C23 C27 1_555 1_555
C25 C26 1_555 1_555
C27 C28 1_555 1_555

#END
