
#######################################################################
#
#                 Cambridge Crystallographic Data Centre
#                                CCDC 
#
#######################################################################
#
# If this CIF has been generated from an entry in the Cambridge 
# Structural Database, then it will include bibliographic, chemical, 
# crystal, experimental, refinement or atomic coordinate data resulting 
# from the CCDC's data processing and validation procedures.
#
#######################################################################

data_NELJOF
_symmetry_cell_setting           triclinic
_symmetry_space_group_name_H-M   'P -1'
_symmetry_Int_Tables_number      2
_space_group_name_Hall           '-P 1'
loop_
_symmetry_equiv_pos_site_id
_symmetry_equiv_pos_as_xyz
1 x,y,z
2 -x,-y,-z
_cell_length_a                   6.693(2)
_cell_length_b                   10.696(3)
_cell_length_c                   10.769(3)
_cell_angle_alpha                114.11(5)
_cell_angle_beta                 94.05(4)
_cell_angle_gamma                100.50(4)
_cell_volume                     682.799
loop_
_atom_site_label
_atom_site_type_symbol
_atom_site_fract_x
_atom_site_fract_y
_atom_site_fract_z
Cu1 Cu 0.131196(17) 0.362757(12) 0.310654(11)
P1 P 0.27590(3) 0.54440(2) 0.64664(2)
P2 P 0.95056(4) 0.87997(3) 0.61921(3)
O1 O 0.25409(11) 0.53358(7) 0.50243(7)
O2 O 0.09110(10) 0.55563(8) 0.72062(7)
O3 O 0.36762(11) 0.42181(7) 0.65554(7)
H1 H 0.2776 0.3458 0.6181
O4 O 1.06354(11) 0.79053(8) 0.66198(8)
O5 O 0.88387(12) 0.82453(8) 0.46399(8)
O6 O 1.08005(12) 1.03489(8) 0.68097(8)
H2 H 1.0774 1.0652 0.6203
N1 N 0.63594(12) 0.73104(8) 0.67126(8)
H3 H 0.5736 0.6865 0.5793
N2 N 0.75427(12) 0.64398(8) 0.85928(8)
C1 C 0.47881(13) 0.70394(9) 0.75372(9)
H4 H 0.4135 0.7862 0.7891
C2 C 0.72064(14) 0.88483(9) 0.70471(10)
C3 C 0.79153(17) 0.97058(10) 0.86071(10)
H5 H 0.8863 0.9267 0.8936
H6 H 0.8619 1.0669 0.8800
H7 H 0.6716 0.9729 0.9081
C4 C 0.56481(16) 0.94609(11) 0.65067(12)
H8 H 0.4454 0.9462 0.6984
H9 H 0.6289 1.0428 0.6675
H10 H 0.5201 0.8886 0.5514
C5 C 0.57837(13) 0.68874(9) 0.87573(9)
C6 C 0.84830(15) 0.62071(10) 0.96015(10)
H11 H 0.9721 0.5888 0.9478
C7 C 0.77020(15) 0.64185(11) 1.08142(10)
H12 H 0.8391 0.6245 1.1509
C8 C 0.58882(16) 0.68903(11) 1.09928(10)
H13 H 0.5322 0.7047 1.1814
C9 C 0.49186(15) 0.71279(10) 0.99499(9)
H14 H 0.3681 0.7450 1.0050
Cu1A Cu -0.131196(17) 0.637243(12) 0.689346(11)
Cu1A_2 Cu 0.868804(17) 0.637243(12) 0.689346(11)
O2A O -0.09110(10) 0.44437(8) 0.27938(7)
O4A O -0.06354(11) 0.20947(8) 0.33802(8)
N1A N 0.36406(12) 0.26896(8) 0.32874(8)
H3A H 0.4264 0.3135 0.4207
N2A N 0.24573(12) 0.35602(8) 0.14072(8)
O7 O 0.74910(17) 0.28593(11) 0.67158(12)
H15 H 0.723(3) 0.3515(16) 0.654(2)
H16 H 0.852(2) 0.2610(19) 0.637(2)
loop_
_geom_bond_atom_site_label_1
_geom_bond_atom_site_label_2
_geom_bond_site_symmetry_1
_geom_bond_site_symmetry_2
Cu1 O1 1_555 1_555
P1 O1 1_555 1_555
P2 O4 1_555 1_555
O2 P1 1_555 1_555
O3 P1 1_555 1_555
H1 O3 1_555 1_555
O4 Cu1A_2 1_555 1_555
O5 P2 1_555 1_555
O6 P2 1_555 1_555
H2 O6 1_555 1_555
N1 H3 1_555 1_555
N2 C5 1_555 1_555
C1 P1 1_555 1_555
H4 C1 1_555 1_555
C2 P2 1_555 1_555
C3 C2 1_555 1_555
H5 C3 1_555 1_555
H6 C3 1_555 1_555
H7 C3 1_555 1_555
C4 C2 1_555 1_555
H8 C4 1_555 1_555
H9 C4 1_555 1_555
H10 C4 1_555 1_555
C5 C1 1_555 1_555
C6 N2 1_555 1_555
H11 C6 1_555 1_555
C7 C6 1_555 1_555
H12 C7 1_555 1_555
C8 C7 1_555 1_555
H13 C8 1_555 1_555
C9 C5 1_555 1_555
H14 C9 1_555 1_555
O7 H15 1_555 1_555
H16 O7 1_555 1_555
Cu1A O2 1_555 1_555
Cu1A_2 N1 1_555 1_555
O2A Cu1 1_555 1_555
O4A Cu1 1_555 1_555
N1A Cu1 1_555 1_555
H3A N1A 1_555 1_555
N2A Cu1 1_555 1_555
N1 C1 1_555 1_555
N1 C2 1_555 1_555
N2 Cu1A_2 1_555 1_555
C8 C9 1_555 1_555

#END
