
#######################################################################
#
#                 Cambridge Crystallographic Data Centre
#                                CCDC 
#
#######################################################################
#
# If this CIF has been generated from an entry in the Cambridge 
# Structural Database, then it will include bibliographic, chemical, 
# crystal, experimental, refinement or atomic coordinate data resulting 
# from the CCDC's data processing and validation procedures.
#
#######################################################################

data_NELJAR
_symmetry_cell_setting           triclinic
_symmetry_space_group_name_H-M   'P -1'
_symmetry_Int_Tables_number      2
_space_group_name_Hall           '-P 1'
loop_
_symmetry_equiv_pos_site_id
_symmetry_equiv_pos_as_xyz
1 x,y,z
2 -x,-y,-z
_cell_length_a                   9.8345(4)
_cell_length_b                   10.6926(5)
_cell_length_c                   13.0913(6)
_cell_angle_alpha                109.1470(10)
_cell_angle_beta                 103.1760(10)
_cell_angle_gamma                90.1140(10)
_cell_volume                     1261.83
loop_
_atom_site_label
_atom_site_type_symbol
_atom_site_fract_x
_atom_site_fract_y
_atom_site_fract_z
Zn1 Zn 1.05632(3) 0.99279(2) 0.77905(2)
Zn2 Zn 1.00721(3) 0.84819(2) 0.96763(2)
N1 N 0.4872(2) 0.2017(2) 0.48754(18)
H1 H 0.4000 0.2054 0.4494
N2 N 0.8780(2) 0.68276(18) 0.95821(16)
N3 N 1.1013(2) 0.68161(19) 0.87480(16)
O1 O 0.97295(19) 0.81494(17) 0.67776(15)
O2 O 0.84765(18) 0.83266(16) 0.80211(14)
O3 O 0.1761(2) 0.0690(3) 0.7064(2)
O4 O 0.3172(3) -0.0126(3) 0.8142(3)
O5 O 0.81922(17) 0.13235(16) 0.90462(14)
O6 O 0.90817(17) 0.11323(18) 0.75891(15)
O7 O 1.09711(15) 1.00611(14) 0.93826(12)
H2 H 1.1900 1.0090 0.9681
C1 C 0.5104(2) 0.1639(2) 0.58002(19)
C2 C 0.3952(2) 0.1286(2) 0.6159(2)
H7 H 0.3044 0.1301 0.5758
C3 C 0.4159(2) 0.0920(2) 0.7092(2)
C4 C 0.5498(2) 0.0938(2) 0.7727(2)
H8 H 0.5632 0.0744 0.8384
C5 C 0.6638(2) 0.1249(2) 0.73712(18)
C6 C 0.6451(2) 0.1582(2) 0.64116(18)
H9 H 0.7227 0.1767 0.6175
C7 C 0.5987(3) 0.2468(2) 0.44974(19)
H10 H 0.5619 0.2434 0.3735
H11 H 0.6710 0.1851 0.4492
C8 C 0.6661(2) 0.3858(2) 0.51809(18)
C9 C 0.7782(3) 0.4334(2) 0.4894(2)
H12 H 0.8103 0.3794 0.4295
C10 C 0.8430(3) 0.5598(2) 0.5484(2)
H13 H 0.9161 0.5909 0.5264
C11 C 0.7994(2) 0.6402(2) 0.63995(18)
C12 C 0.6867(2) 0.5935(2) 0.66897(19)
H14 H 0.6559 0.6466 0.7300
C13 C 0.6202(2) 0.4684(2) 0.6074(2)
H15 H 0.5433 0.4393 0.6264
C14 C 0.8765(2) 0.7721(2) 0.71150(19)
C15 C 0.2956(3) 0.0456(3) 0.7461(3)
C16 C 0.8074(2) 0.1223(2) 0.80546(19)
C17 C 0.7630(3) 0.6908(3) 0.9966(2)
H16 H 0.7433 0.7732 1.0407
C18 C 0.6715(3) 0.5807(3) 0.9734(3)
H17 H 0.5918 0.5889 1.0013
C19 C 0.7011(4) 0.4600(3) 0.9085(3)
H18 H 0.6418 0.3845 0.8919
C20 C 0.8184(3) 0.4511(3) 0.8683(3)
H19 H 0.8394 0.3693 0.8241
C21 C 0.9059(3) 0.5639(2) 0.89330(19)
C22 C 1.0333(3) 0.5621(2) 0.85099(19)
C23 C 1.0834(4) 0.4463(3) 0.7921(3)
H20 H 1.0350 0.3644 0.7750
C24 C 1.2058(4) 0.4541(3) 0.7591(3)
H21 H 1.2397 0.3775 0.7182
C25 C 1.2767(4) 0.5746(3) 0.7869(3)
H22 H 1.3612 0.5811 0.7676
C26 C 1.2210(3) 0.6874(3) 0.8444(2)
H23 H 1.2686 0.7699 0.8624
Zn1_2 Zn 0.05632(3) -0.00721(2) 0.77905(2)
Zn1_3 Zn 1.05632(3) -0.00721(2) 0.77905(2)
Zn2A Zn 0.99279(3) 0.15181(2) 1.03237(2)
Zn2A_2 Zn 0.99279(3) 1.15181(2) 1.03237(2)
O3_2 O 1.1761(2) 1.0690(3) 0.7064(2)
O5A O 1.18078(17) 0.86765(16) 1.09538(14)
O6_2 O 0.90817(17) 1.11323(18) 0.75891(15)
O7A O 0.90289(15) 0.99389(14) 1.06174(12)
H2A H 0.8100 0.9910 1.0319
O8 O 1.0267(5) 0.8133(4) 0.4543(3)
H3 H 1.0142 0.8218 0.5197
H4 H 0.9589 0.8528 0.4253
O9 O 0.5695(6) 0.8586(6) 0.8911(6)
H5 H 0.4982 0.8876 0.8554
H6 H 0.6415 0.8888 0.8727
loop_
_geom_bond_atom_site_label_1
_geom_bond_atom_site_label_2
_geom_bond_site_symmetry_1
_geom_bond_site_symmetry_2
Zn1 O1 1_555 1_555
Zn2 N2 1_555 1_555
N1 H1 1_555 1_555
N2 C17 1_555 1_555
N3 Zn2 1_555 1_555
O1 C14 1_555 1_555
O2 Zn2 1_555 1_555
O3 C15 1_555 1_555
O4 C15 1_555 1_555
O5 C16 1_555 1_555
O6 C16 1_555 1_555
O7 Zn1 1_555 1_555
H2 O7 1_555 1_555
O8 H3 1_555 1_555
H4 O8 1_555 1_555
O9 H5 1_555 1_555
H6 O9 1_555 1_555
C1 N1 1_555 1_555
C2 C1 1_555 1_555
H7 C2 1_555 1_555
C3 C2 1_555 1_555
C4 C3 1_555 1_555
H8 C4 1_555 1_555
C5 C4 1_555 1_555
C6 C1 1_555 1_555
H9 C6 1_555 1_555
C7 N1 1_555 1_555
H10 C7 1_555 1_555
H11 C7 1_555 1_555
C8 C7 1_555 1_555
C9 C8 1_555 1_555
H12 C9 1_555 1_555
C10 C9 1_555 1_555
H13 C10 1_555 1_555
C11 C10 1_555 1_555
C12 C11 1_555 1_555
H14 C12 1_555 1_555
C13 C8 1_555 1_555
H15 C13 1_555 1_555
C14 O2 1_555 1_555
C15 C3 1_555 1_555
C16 C5 1_555 1_555
C17 H16 1_555 1_555
C18 C17 1_555 1_555
H17 C18 1_555 1_555
C19 C18 1_555 1_555
H18 C19 1_555 1_555
C20 C19 1_555 1_555
H19 C20 1_555 1_555
C21 N2 1_555 1_555
C22 N3 1_555 1_555
C23 C22 1_555 1_555
H20 C23 1_555 1_555
C24 C23 1_555 1_555
H21 C24 1_555 1_555
C25 C24 1_555 1_555
H22 C25 1_555 1_555
C26 N3 1_555 1_555
H23 C26 1_555 1_555
Zn1_2 O3 1_555 1_555
Zn1_3 O6 1_555 1_555
Zn2A O5 1_555 1_555
Zn2A_2 O7 1_555 1_555
O3_2 Zn1 1_555 1_555
O5A Zn2 1_555 1_555
O6_2 Zn1 1_555 1_555
O7A Zn2 1_555 1_555
H2A O7A 1_555 1_555
Zn2 O7 1_555 1_555
C5 C6 1_555 1_555
C11 C14 1_555 1_555
C12 C13 1_555 1_555
C20 C21 1_555 1_555
C21 C22 1_555 1_555
C25 C26 1_555 1_555
Zn2A_2 O7A 1_555 1_555

#END
