
#######################################################################
#
#                 Cambridge Crystallographic Data Centre
#                                CCDC 
#
#######################################################################
#
# If this CIF has been generated from an entry in the Cambridge 
# Structural Database, then it will include bibliographic, chemical, 
# crystal, experimental, refinement or atomic coordinate data resulting 
# from the CCDC's data processing and validation procedures.
#
#######################################################################

data_NELJUJ
_symmetry_cell_setting           triclinic
_symmetry_space_group_name_H-M   'P -1'
_symmetry_Int_Tables_number      2
_space_group_name_Hall           '-P 1'
loop_
_symmetry_equiv_pos_site_id
_symmetry_equiv_pos_as_xyz
1 x,y,z
2 -x,-y,-z
_cell_length_a                   6.2760(10)
_cell_length_b                   6.2900(10)
_cell_length_c                   10.809(2)
_cell_angle_alpha                93.60(3)
_cell_angle_beta                 103.66(3)
_cell_angle_gamma                109.34(3)
_cell_volume                     386.576
loop_
_atom_site_label
_atom_site_type_symbol
_atom_site_fract_x
_atom_site_fract_y
_atom_site_fract_z
Co1 Co 0.0000 0.0000 0.0000
O1 O -0.0273(4) 0.1573(3) 0.16453(19)
N1 N 0.3064(4) 0.3061(3) -0.0007(2)
C1 C 0.4432(7) -0.2318(7) 0.2860(3)
H1 H 0.4717 -0.3109 0.2163
H2 H 0.3713 -0.3395 0.3365
H3 H 0.5893 -0.1240 0.3392
C2 C 0.2820(5) -0.1076(5) 0.2323(3)
C3 C 0.2152(7) 0.0201(6) 0.3156(3)
H4 H 0.2728 0.0225 0.4034
C4 C 0.0691(6) 0.1454(5) 0.2788(3)
C5 C 0.0187(8) 0.2773(8) 0.3828(4)
H5 H -0.0827 0.3545 0.3439
H6 H 0.1632 0.3872 0.4363
H7 H -0.0565 0.1741 0.4344
C6 C 0.5286(5) 0.3227(4) 0.0521(3)
H8 H 0.5543 0.1998 0.0880
C7 C 0.2766(3) 0.4846(2) -0.05575(14)
H9 H 0.1263 0.4795 -0.0962
O2 O 0.2194(3) -0.1286(2) 0.11272(14)
C7A C 0.7234(3) 0.5154(2) 0.05575(14)
N1A N 0.6936(4) 0.6939(3) 0.0007(2)
C6A C 0.4714(5) 0.6773(4) -0.0521(3)
H8A H 0.4457 0.8002 -0.0880
H9A H 0.8737 0.5205 0.0962
O1A O 0.0273(4) -0.1573(3) -0.16453(19)
C1A C -0.4432(7) 0.2318(7) -0.2860(3)
H1A H -0.4717 0.3109 -0.2163
H2A H -0.3713 0.3395 -0.3365
H3A H -0.5893 0.1240 -0.3392
C2A C -0.2820(5) 0.1076(5) -0.2323(3)
C3A C -0.2152(7) -0.0201(6) -0.3156(3)
H4A H -0.2728 -0.0225 -0.4034
C4A C -0.0691(6) -0.1454(5) -0.2788(3)
C5A C -0.0187(8) -0.2773(8) -0.3828(4)
H5A H 0.0827 -0.3545 -0.3439
H6A H -0.1632 -0.3872 -0.4363
H7A H 0.0565 -0.1741 -0.4344
O2A O -0.2194(3) 0.1286(2) -0.11272(14)
N1A_2 N -0.3064(4) -0.3061(3) 0.0007(2)
Co1_2 Co 1.0000 1.0000 0.0000
loop_
_geom_bond_atom_site_label_1
_geom_bond_atom_site_label_2
_geom_bond_site_symmetry_1
_geom_bond_site_symmetry_2
Co1 O1 1_555 1_555
O1 C4 1_555 1_555
N1 Co1 1_555 1_555
C1 H1 1_555 1_555
H2 C1 1_555 1_555
H3 C1 1_555 1_555
C2 C1 1_555 1_555
C3 C2 1_555 1_555
H4 C3 1_555 1_555
C4 C3 1_555 1_555
C5 C4 1_555 1_555
H5 C5 1_555 1_555
H6 C5 1_555 1_555
H7 C5 1_555 1_555
C6 N1 1_555 1_555
H8 C6 1_555 1_555
C7 N1 1_555 1_555
H9 C7 1_555 1_555
O2 Co1 1_555 1_555
C7A C6 1_555 1_555
N1A C7A 1_555 1_555
C6A C7 1_555 1_555
H8A C6A 1_555 1_555
H9A C7A 1_555 1_555
O1A Co1 1_555 1_555
C1A H1A 1_555 1_555
H2A C1A 1_555 1_555
H3A C1A 1_555 1_555
C2A C1A 1_555 1_555
C3A C2A 1_555 1_555
H4A C3A 1_555 1_555
C4A O1A 1_555 1_555
C5A C4A 1_555 1_555
H5A C5A 1_555 1_555
H6A C5A 1_555 1_555
H7A C5A 1_555 1_555
O2A Co1 1_555 1_555
N1A_2 Co1 1_555 1_555
Co1_2 N1A 1_555 1_555
C2 O2 1_555 1_555
N1A C6A 1_555 1_555
C2A O2A 1_555 1_555
C3A C4A 1_555 1_555

#END
