
#######################################################################
#
#                 Cambridge Crystallographic Data Centre
#                                CCDC 
#
#######################################################################
#
# If this CIF has been generated from an entry in the Cambridge 
# Structural Database, then it will include bibliographic, chemical, 
# crystal, experimental, refinement or atomic coordinate data resulting 
# from the CCDC's data processing and validation procedures.
#
#######################################################################

data_NELKOE
_symmetry_cell_setting           monoclinic
_symmetry_space_group_name_H-M   'P 21/c'
_symmetry_Int_Tables_number      14
_space_group_name_Hall           '-P 2ybc'
loop_
_symmetry_equiv_pos_site_id
_symmetry_equiv_pos_as_xyz
1 x,y,z
2 x,1/2-y,1/2+z
3 -x,-y,-z
4 -x,1/2+y,1/2-z
_cell_length_a                   15.616(2)
_cell_length_b                   6.702(2)
_cell_length_c                   7.208(6)
_cell_angle_alpha                90
_cell_angle_beta                 91.87(3)
_cell_angle_gamma                90
_cell_volume                     753.976
loop_
_atom_site_label
_atom_site_type_symbol
_atom_site_fract_x
_atom_site_fract_y
_atom_site_fract_z
Cu1 Cu 0.0000 0.5000 0.5000
Cl1 Cl -0.05746(3) 0.71706(7) 0.28493(7)
N1 N 0.20604(11) 0.8732(3) 0.4690(3)
N2 N 0.24478(14) 0.6972(3) 0.4424(4)
N3 N 0.18738(13) 0.5609(3) 0.4586(4)
N4 N 0.11123(10) 0.6469(3) 0.4928(2)
C1 C 0.12436(13) 0.8398(3) 0.4984(3)
H1 H 0.0832 0.9367 0.5196
C2 C 0.25272(17) 1.0620(4) 0.4532(5)
H2 H 0.2165 1.1709 0.4920
H3 H 0.2664 1.0841 0.3245
C3 C 0.33252(18) 1.0609(5) 0.5685(5)
H4 H 0.3692 0.9516 0.5327
H5 H 0.3198 1.0459 0.6986
N5 N 0.37491(16) 1.2541(4) 0.5364(5)
N6 N 0.44506(17) 1.2736(4) 0.6084(4)
N7 N 0.5109(2) 1.3094(7) 0.6666(6)
Cl1A Cl -0.05746(3) 0.78294(7) 0.78493(7)
N1B N -0.20604(11) 0.1268(3) 0.5310(3)
N2B N -0.24478(14) 0.3028(3) 0.5576(4)
N3B N -0.18738(13) 0.4391(3) 0.5414(4)
N4B N -0.11123(10) 0.3531(3) 0.5072(2)
C1B C -0.12436(13) 0.1602(3) 0.5016(3)
H1B H -0.0832 0.0633 0.4804
C2B C -0.25272(17) -0.0620(4) 0.5468(5)
H2B H -0.2165 -0.1709 0.5080
H3B H -0.2664 -0.0841 0.6755
C3B C -0.33252(18) -0.0609(5) 0.4315(5)
H4B H -0.3692 0.0484 0.4673
H5B H -0.3198 -0.0459 0.3014
N5B N -0.37491(16) -0.2541(4) 0.4636(5)
N6B N -0.44506(17) -0.2736(4) 0.3916(4)
N7B N -0.5109(2) -0.3094(7) 0.3334(6)
Cl1B Cl 0.05746(3) 0.28294(7) 0.71507(7)
Cl1C Cl 0.05746(3) 0.21706(7) 0.21507(7)
Cu1A Cu 0.0000 1.0000 0.0000
Cu1A_2 Cu 0.0000 1.0000 1.0000
loop_
_geom_bond_atom_site_label_1
_geom_bond_atom_site_label_2
_geom_bond_site_symmetry_1
_geom_bond_site_symmetry_2
Cu1 Cl1 1_555 1_555
Cl1 Cu1A 1_555 1_555
N1 N2 1_555 1_555
N2 N3 1_555 1_555
N3 N4 1_555 1_555
N4 Cu1 1_555 1_555
C1 N1 1_555 1_555
H1 C1 1_555 1_555
C2 N1 1_555 1_555
H2 C2 1_555 1_555
H3 C2 1_555 1_555
C3 C2 1_555 1_555
H4 C3 1_555 1_555
H5 C3 1_555 1_555
N5 C3 1_555 1_555
N6 N5 1_555 1_555
N7 N6 1_555 1_555
Cl1A Cu1 1_555 1_555
N1B N2B 1_555 1_555
N2B N3B 1_555 1_555
N3B N4B 1_555 1_555
N4B Cu1 1_555 1_555
C1B N1B 1_555 1_555
H1B C1B 1_555 1_555
C2B N1B 1_555 1_555
H2B C2B 1_555 1_555
H3B C2B 1_555 1_555
C3B C2B 1_555 1_555
H4B C3B 1_555 1_555
H5B C3B 1_555 1_555
N5B C3B 1_555 1_555
N6B N5B 1_555 1_555
N7B N6B 1_555 1_555
Cl1B Cu1 1_555 1_555
Cl1C Cu1 1_555 1_555
Cu1A_2 Cl1A 1_555 1_555
N4 C1 1_555 1_555
N4B C1B 1_555 1_555

#END
