
#######################################################################
#
#                 Cambridge Crystallographic Data Centre
#                                CCDC 
#
#######################################################################
#
# If this CIF has been generated from an entry in the Cambridge 
# Structural Database, then it will include bibliographic, chemical, 
# crystal, experimental, refinement or atomic coordinate data resulting 
# from the CCDC's data processing and validation procedures.
#
#######################################################################

data_NELKAQ01
_symmetry_cell_setting           triclinic
_symmetry_space_group_name_H-M   'P -1'
_symmetry_Int_Tables_number      2
_space_group_name_Hall           '-P 1'
loop_
_symmetry_equiv_pos_site_id
_symmetry_equiv_pos_as_xyz
1 x,y,z
2 -x,-y,-z
_cell_length_a                   6.9386(8)
_cell_length_b                   10.3463(14)
_cell_length_c                   10.8572(17)
_cell_angle_alpha                69.734(11)
_cell_angle_beta                 81.354(11)
_cell_angle_gamma                75.687(10)
_cell_volume                     706.682
loop_
_atom_site_label
_atom_site_type_symbol
_atom_site_fract_x
_atom_site_fract_y
_atom_site_fract_z
Cu1 Cu 0.15033(6) 0.08981(4) 0.36424(3)
N1 N 0.2745(4) -0.0801(2) 0.3101(2)
N2 N 0.0796(4) 0.1709(2) 0.1762(2)
O1 O 0.1911(3) -0.0021(2) 0.55507(19)
H1 H 0.1759 0.0793 0.5821
H2 H 0.3086 -0.0793 0.6021
O2 O 0.0352(4) 0.2691(2) 0.3882(2)
O3 O 0.1231(4) 0.2393(2) 0.5869(2)
C1 C 0.3639(5) -0.2088(3) 0.3815(3)
H3 H 0.3716 -0.2284 0.4711
C2 C 0.4464(5) -0.3151(3) 0.3256(4)
H4 H 0.5054 -0.4043 0.3784
C3 C 0.4408(5) -0.2889(4) 0.1940(4)
H5 H 0.4953 -0.3597 0.1568
C4 C 0.3516(5) -0.1535(3) 0.1153(3)
C5 C 0.2672(4) -0.0542(3) 0.1794(3)
C6 C 0.1656(4) 0.0833(3) 0.1063(3)
C7 C 0.1580(5) 0.1208(4) -0.0300(3)
C8 C 0.2541(5) 0.0198(4) -0.0939(3)
H6 H 0.2537 0.0449 -0.1848
C9 C 0.3458(5) -0.1119(4) -0.0245(3)
H7 H 0.4059 -0.1761 -0.0683
C10 C 0.0518(5) 0.2576(4) -0.0943(3)
H8 H 0.0451 0.2891 -0.1852
C11 C -0.0408(6) 0.3434(4) -0.0225(3)
H9 H -0.1156 0.4323 -0.0639
C12 C -0.0237(5) 0.2980(3) 0.1135(3)
H10 H -0.0862 0.3581 0.1611
C13 C 0.0592(5) 0.3144(3) 0.4787(3)
C14 C 0.0011(6) 0.4727(3) 0.4451(3)
H11 H 0.0931 0.5141 0.3743
H12 H -0.1307 0.5045 0.4121
N3 N 0.4717(4) 0.2984(3) 0.2653(3)
O4 O 0.4801(4) 0.1664(2) 0.3169(2)
O5 O 0.5383(6) 0.3596(3) 0.3210(3)
O6 O 0.3978(5) 0.3612(3) 0.1596(3)
O1A O -0.1911(3) 0.0021(2) 0.44493(19)
Cu1A Cu -0.15033(6) -0.08981(4) 0.63576(3)
C14A C -0.0011(6) 0.5273(3) 0.5549(3)
N1A N -0.2745(4) 0.0801(2) 0.6899(2)
N2A N -0.0796(4) -0.1709(2) 0.8238(2)
O2A O -0.0352(4) -0.2691(2) 0.6118(2)
O4A O -0.4801(4) -0.1664(2) 0.6831(2)
C13A C -0.0592(5) 0.6856(3) 0.5213(3)
H11A H -0.0931 0.4859 0.6257
H12A H 0.1307 0.4955 0.5879
C1A C -0.3639(5) 0.2088(3) 0.6185(3)
C5A C -0.2672(4) 0.0542(3) 0.8206(3)
C6A C -0.1656(4) -0.0833(3) 0.8937(3)
C12A C 0.0237(5) -0.2980(3) 0.8865(3)
N3A N -0.4717(4) -0.2984(3) 0.7347(3)
O2A_2 O -0.0352(4) 0.7309(2) 0.6118(2)
O3A O -0.1231(4) 0.7607(2) 0.4131(2)
Cu1A_2 Cu -0.15033(6) 0.91019(4) 0.63576(3)
C11A C 0.0408(6) -0.3434(4) 1.0225(3)
H10A H 0.0862 -0.3581 0.8389
C7A C -0.1580(5) -0.1208(4) 1.0300(3)
C4A C -0.3516(5) 0.1535(3) 0.8847(3)
H3A H -0.3716 0.2284 0.5289
C2A C -0.4464(5) 0.3151(3) 0.6744(4)
O5A O -0.5383(6) -0.3596(3) 0.6790(3)
O6A O -0.3978(5) -0.3612(3) 0.8404(3)
C10A C -0.0518(5) -0.2576(4) 1.0943(3)
H9A H 0.1156 -0.4323 1.0639
C8A C -0.2541(5) -0.0198(4) 1.0939(3)
C3A C -0.4408(5) 0.2889(4) 0.8060(4)
C9A C -0.3458(5) 0.1119(4) 1.0245(3)
H4A H -0.5054 0.4043 0.6216
H5A H -0.4953 0.3597 0.8432
H8A H -0.0451 -0.2891 1.1852
H6A H -0.2537 -0.0449 1.1848
H7A H -0.4059 0.1761 1.0683
H1A H -0.1759 -0.0793 0.4179
H2A H -0.3086 0.0793 0.3979
loop_
_geom_bond_atom_site_label_1
_geom_bond_atom_site_label_2
_geom_bond_site_symmetry_1
_geom_bond_site_symmetry_2
Cu1 N1 1_555 1_555
N1 C1 1_555 1_555
N2 Cu1 1_555 1_555
O1 Cu1 1_555 1_555
H1 O1 1_555 1_555
H2 O1 1_555 1_555
O2 Cu1 1_555 1_555
O3 C13 1_555 1_555
C1 H3 1_555 1_555
C2 C1 1_555 1_555
H4 C2 1_555 1_555
C3 C2 1_555 1_555
H5 C3 1_555 1_555
C4 C3 1_555 1_555
C5 N1 1_555 1_555
C6 N2 1_555 1_555
C7 C6 1_555 1_555
C8 C7 1_555 1_555
H6 C8 1_555 1_555
C9 C4 1_555 1_555
H7 C9 1_555 1_555
C10 C7 1_555 1_555
H8 C10 1_555 1_555
C11 C10 1_555 1_555
H9 C11 1_555 1_555
C12 N2 1_555 1_555
H10 C12 1_555 1_555
C13 O2 1_555 1_555
C14 C13 1_555 1_555
H11 C14 1_555 1_555
H12 C14 1_555 1_555
N3 O4 1_555 1_555
O4 Cu1 1_555 1_555
O5 N3 1_555 1_555
O6 N3 1_555 1_555
O1A Cu1 1_555 1_555
Cu1A O1 1_555 1_555
C14A C14 1_555 1_555
N1A Cu1A 1_555 1_555
N2A Cu1A 1_555 1_555
O2A Cu1A 1_555 1_555
O4A Cu1A 1_555 1_555
C13A C14A 1_555 1_555
H11A C14A 1_555 1_555
H12A C14A 1_555 1_555
C1A N1A 1_555 1_555
C5A N1A 1_555 1_555
C6A N2A 1_555 1_555
C12A N2A 1_555 1_555
N3A O4A 1_555 1_555
O2A_2 C13A 1_555 1_555
O3A C13A 1_555 1_555
Cu1A_2 O2A_2 1_555 1_555
C11A C12A 1_555 1_555
H10A C12A 1_555 1_555
C7A C6A 1_555 1_555
C4A C5A 1_555 1_555
H3A C1A 1_555 1_555
C2A C1A 1_555 1_555
O5A N3A 1_555 1_555
O6A N3A 1_555 1_555
C10A C11A 1_555 1_555
H9A C11A 1_555 1_555
C8A C7A 1_555 1_555
C3A C4A 1_555 1_555
C9A C4A 1_555 1_555
H4A C2A 1_555 1_555
H5A C3A 1_555 1_555
H8A C10A 1_555 1_555
H6A C8A 1_555 1_555
H7A C9A 1_555 1_555
H1A O1A 1_555 1_555
H2A O1A 1_555 1_555
C4 C5 1_555 1_555
C5 C6 1_555 1_555
C8 C9 1_555 1_555
C11 C12 1_555 1_555
O1A Cu1A 1_555 1_555
C5A C6A 1_555 1_555
C7A C10A 1_555 1_555
C2A C3A 1_555 1_555
C8A C9A 1_555 1_555

#END
