
#######################################################################
#
#                 Cambridge Crystallographic Data Centre
#                                CCDC 
#
#######################################################################
#
# If this CIF has been generated from an entry in the Cambridge 
# Structural Database, then it will include bibliographic, chemical, 
# crystal, experimental, refinement or atomic coordinate data resulting 
# from the CCDC's data processing and validation procedures.
#
#######################################################################

data_NELKAQ
_symmetry_cell_setting           triclinic
_symmetry_space_group_name_H-M   'P -1'
_symmetry_Int_Tables_number      2
_space_group_name_Hall           '-P 1'
loop_
_symmetry_equiv_pos_site_id
_symmetry_equiv_pos_as_xyz
1 x,y,z
2 -x,-y,-z
_cell_length_a                   6.9400(10)
_cell_length_b                   10.351(2)
_cell_length_c                   10.857(2)
_cell_angle_alpha                69.72(3)
_cell_angle_beta                 81.28(3)
_cell_angle_gamma                75.75(3)
_cell_volume                     707.178
loop_
_atom_site_label
_atom_site_type_symbol
_atom_site_fract_x
_atom_site_fract_y
_atom_site_fract_z
Cu1 Cu 0.65020(10) 0.08976(6) 0.36415(6)
O1 O 0.5357(6) 0.2694(3) 0.3883(3)
O2 O 0.6231(6) 0.2392(3) 0.5867(3)
O3 O 0.9797(6) 0.1662(3) 0.3173(4)
O4 O 0.8967(7) 0.3609(4) 0.1595(4)
O5 O 1.0398(9) 0.3593(5) 0.3205(5)
O6 O 0.6898(5) -0.0011(3) 0.5547(3)
N1 N 0.5800(6) 0.1714(4) 0.1755(4)
N2 N 0.7751(6) -0.0800(4) 0.3097(4)
N3 N 0.9717(7) 0.2993(4) 0.2643(4)
C1 C 0.4775(8) 0.2977(5) 0.1135(5)
C2 C 0.4601(9) 0.3422(5) -0.0231(5)
C3 C 0.5521(8) 0.2574(5) -0.0938(5)
C4 C 0.6587(7) 0.1208(5) -0.0300(5)
C5 C 0.7555(8) 0.0196(6) -0.0939(5)
C6 C 0.8453(8) -0.1113(6) -0.0239(5)
C7 C 0.8522(7) -0.1534(5) 0.1147(5)
C8 C 0.9410(8) -0.2886(5) 0.1945(6)
C9 C 0.9458(8) -0.3146(5) 0.3253(5)
C10 C 0.8657(8) -0.2099(5) 0.3808(5)
C11 C 0.7683(7) -0.0551(5) 0.1796(5)
C12 C 0.6650(7) 0.0838(5) 0.1063(4)
C13 C 0.5588(8) 0.3146(5) 0.4784(5)
C14 C 0.5011(9) 0.4724(5) 0.4451(5)
H1 H 0.7031 0.0657 0.5956
H2 H 0.8046 -0.0788 0.5705
H3 H 0.4158 0.3581 0.1609
H4 H 0.3847 0.4306 -0.0646
H5 H 0.5455 0.2889 -0.1846
H6 H 0.7564 0.0444 -0.1849
H7 H 0.9044 -0.1759 -0.0676
H8 H 0.9961 -0.3595 0.1576
H9 H 1.0036 -0.4040 0.3781
H10 H 0.8746 -0.2298 0.4703
H11 H 0.5931 0.5138 0.3741
H12 H 0.3694 0.5041 0.4122
C14A C 0.4989(9) 0.5276(5) 0.5549(5)
C13A C 0.4412(8) 0.6854(5) 0.5216(5)
O1A O 0.4643(6) 0.7306(3) 0.6117(3)
Cu1A Cu 0.34980(10) 0.91024(6) 0.63585(6)
O3A O 0.0203(6) 0.8338(3) 0.6827(4)
N3A N 0.0283(7) 0.7007(4) 0.7357(4)
O4A O 0.1033(7) 0.6391(4) 0.8405(4)
O5A O -0.0398(9) 0.6407(5) 0.6795(5)
O6A O 0.3102(5) 1.0011(3) 0.4453(3)
O6_2 O 0.6898(5) 0.9989(3) 0.5547(3)
N1A N 0.4200(6) 0.8286(4) 0.8245(4)
C1A C 0.5225(8) 0.7023(5) 0.8865(5)
C2A C 0.5399(9) 0.6578(5) 1.0231(5)
C3A C 0.4479(8) 0.7426(5) 1.0938(5)
C4A C 0.3413(7) 0.8792(5) 1.0300(5)
C5A C 0.2445(8) 0.9804(6) 1.0939(5)
C6A C 0.1547(8) 1.1113(6) 1.0239(5)
C7A C 0.1478(7) 1.1534(5) 0.8853(5)
C8A C 0.0590(8) 1.2886(5) 0.8055(6)
C9A C 0.0542(8) 1.3146(5) 0.6747(5)
C10A C 0.1343(8) 1.2099(5) 0.6192(5)
N2A N 0.2249(6) 1.0800(4) 0.6903(4)
C11A C 0.2317(7) 1.0551(5) 0.8204(5)
C12A C 0.3350(7) 0.9162(5) 0.8937(4)
H10A H 0.1254 1.2298 0.5297
H9A H -0.0036 1.4040 0.6219
H8A H 0.0039 1.3595 0.8424
H7A H 0.0956 1.1759 1.0676
H6A H 0.2436 0.9556 1.1849
H5A H 0.4545 0.7111 1.1846
H4A H 0.6153 0.5694 1.0646
H3A H 0.5842 0.6419 0.8391
H1_2 H 0.7031 1.0657 0.5956
H2_2 H 0.8046 0.9212 0.5705
H1A H 0.2969 0.9343 0.4044
H2A H 0.1954 1.0788 0.4295
O2A O 0.3769(6) 0.7608(3) 0.4133(3)
H11A H 0.4069 0.4862 0.6259
H12A H 0.6306 0.4959 0.5878
O6A_2 O 0.3102(5) 0.0011(3) 0.4453(3)
Cu1A_2 Cu 0.34980(10) -0.08976(6) 0.63585(6)
H1A_2 H 0.2969 -0.0657 0.4044
H2A_2 H 0.1954 0.0788 0.4295
loop_
_geom_bond_atom_site_label_1
_geom_bond_atom_site_label_2
_geom_bond_site_symmetry_1
_geom_bond_site_symmetry_2
Cu1 O1 1_555 1_555
O1 C13 1_555 1_555
O2 C13 1_555 1_555
O3 Cu1 1_555 1_555
O4 N3 1_555 1_555
O5 N3 1_555 1_555
O6 Cu1 1_555 1_555
N1 Cu1 1_555 1_555
N2 Cu1 1_555 1_555
N3 O3 1_555 1_555
C1 N1 1_555 1_555
C2 C1 1_555 1_555
C3 C2 1_555 1_555
C4 C3 1_555 1_555
C5 C4 1_555 1_555
C6 C5 1_555 1_555
C7 C6 1_555 1_555
C8 C7 1_555 1_555
C9 C8 1_555 1_555
C10 N2 1_555 1_555
C11 N2 1_555 1_555
C12 N1 1_555 1_555
C13 C14 1_555 1_555
C14 H11 1_555 1_555
H1 O6 1_555 1_555
H2 O6 1_555 1_555
H3 C1 1_555 1_555
H4 C2 1_555 1_555
H5 C3 1_555 1_555
H6 C5 1_555 1_555
H7 C6 1_555 1_555
H8 C8 1_555 1_555
H9 C9 1_555 1_555
H10 C10 1_555 1_555
H12 C14 1_555 1_555
C14A C14 1_555 1_555
C13A C14A 1_555 1_555
O1A C13A 1_555 1_555
Cu1A O1A 1_555 1_555
O3A Cu1A 1_555 1_555
N3A O3A 1_555 1_555
O4A N3A 1_555 1_555
O5A N3A 1_555 1_555
O6A Cu1A 1_555 1_555
O6_2 Cu1A 1_555 1_555
N1A Cu1A 1_555 1_555
C1A N1A 1_555 1_555
C2A C1A 1_555 1_555
C3A C2A 1_555 1_555
C4A C3A 1_555 1_555
C5A C4A 1_555 1_555
C6A C5A 1_555 1_555
C7A C6A 1_555 1_555
C8A C7A 1_555 1_555
C9A C8A 1_555 1_555
C10A C9A 1_555 1_555
N2A Cu1A 1_555 1_555
C11A C7A 1_555 1_555
C12A N1A 1_555 1_555
H10A C10A 1_555 1_555
H9A C9A 1_555 1_555
H8A C8A 1_555 1_555
H7A C6A 1_555 1_555
H6A C5A 1_555 1_555
H5A C3A 1_555 1_555
H4A C2A 1_555 1_555
H3A C1A 1_555 1_555
H1_2 O6_2 1_555 1_555
H2_2 O6_2 1_555 1_555
H1A O6A 1_555 1_555
H2A O6A 1_555 1_555
O2A C13A 1_555 1_555
H11A C14A 1_555 1_555
H12A C14A 1_555 1_555
O6A_2 Cu1 1_555 1_555
Cu1A_2 O6 1_555 1_555
H1A_2 O6A_2 1_555 1_555
H2A_2 O6A_2 1_555 1_555
C4 C12 1_555 1_555
C7 C11 1_555 1_555
C9 C10 1_555 1_555
C11 C12 1_555 1_555
C4A C12A 1_555 1_555
C10A N2A 1_555 1_555
N2A C11A 1_555 1_555
C11A C12A 1_555 1_555
O6A_2 Cu1A_2 1_555 1_555

#END
