
#######################################################################
#
#                 Cambridge Crystallographic Data Centre
#                                CCDC 
#
#######################################################################
#
# If this CIF has been generated from an entry in the Cambridge 
# Structural Database, then it will include bibliographic, chemical, 
# crystal, experimental, refinement or atomic coordinate data resulting 
# from the CCDC's data processing and validation procedures.
#
#######################################################################

data_NELLAR
_symmetry_cell_setting           triclinic
_symmetry_space_group_name_H-M   'P -1'
_symmetry_Int_Tables_number      2
_space_group_name_Hall           '-P 1'
loop_
_symmetry_equiv_pos_site_id
_symmetry_equiv_pos_as_xyz
1 x,y,z
2 -x,-y,-z
_cell_length_a                   11.206(4)
_cell_length_b                   12.811(2)
_cell_length_c                   16.208(4)
_cell_angle_alpha                96.032(17)
_cell_angle_beta                 103.54(2)
_cell_angle_gamma                113.191(16)
_cell_volume                     2028.06
loop_
_atom_site_label
_atom_site_type_symbol
_atom_site_fract_x
_atom_site_fract_y
_atom_site_fract_z
Ce1 Ce 0.61246(5) 0.26956(4) 0.74206(3)
Sr1 Sr 1.04074(9) 0.76492(7) 0.70599(5)
O1 O 0.7898(6) 0.4275(5) 0.7162(4)
O2 O 0.9951(7) 0.5786(6) 0.7610(5)
O3 O 0.6286(6) 0.1792(5) 0.8616(4)
O4 O 0.7337(10) 0.1544(8) 0.9868(5)
O5 O 0.7215(7) 0.1568(5) 0.7066(4)
O6 O 0.7816(8) 0.0542(7) 0.6188(5)
O7 O 0.4842(6) 0.3372(5) 0.6464(4)
O8 O 0.3865(8) 0.3557(6) 0.5154(5)
O9 O 0.6379(6) 0.4326(5) 0.8366(4)
O10 O 0.5650(8) 0.5369(6) 0.9133(5)
O11 O 0.4236(6) 0.0872(5) 0.6909(4)
O12 O 0.2268(7) -0.0492(5) 0.6922(4)
O13 O 1.1493(7) 0.6548(6) 0.6245(4)
O14 O 1.1693(8) 0.5763(6) 0.5038(5)
H1 H 1.2366 0.5752 0.5364
O15 O 0.9144(7) 0.8780(6) 0.6250(4)
O16 O 0.8281(8) 0.9274(6) 0.5051(5)
H2 H 0.8278 0.9795 0.5390
O17 O 1.2506(10) 0.8192(9) 0.8348(6)
O18 O 0.9714(11) 0.8467(9) 0.8291(7)
O19 O 0.7816(8) 0.6227(7) 0.6421(5)
N1 N 0.8427(7) 0.3472(6) 0.8542(4)
N2 N 0.5871(7) 0.2118(5) 0.5835(4)
N3 N 0.4121(7) 0.2464(6) 0.7947(4)
N4 N 0.9986(7) 0.7485(6) 0.5349(5)
C1 C 0.9095(10) 0.4871(7) 0.7682(6)
C2 C 0.9485(9) 0.4375(7) 0.8443(6)
C3 C 1.0780(10) 0.4792(8) 0.9021(6)
H3 H 1.1507 0.5413 0.8947
C4 C 1.0967(11) 0.4264(10) 0.9709(6)
H4 H 1.1829 0.4530 1.0105
C5 C 0.9875(10) 0.3337(9) 0.9814(6)
H5 H 0.9988 0.2972 1.0274
C6 C 0.8611(10) 0.2976(8) 0.9209(6)
C7 C 0.7318(11) 0.2023(9) 0.9240(7)
C8 C 0.7232(9) 0.1149(7) 0.6321(6)
C9 C 0.6459(8) 0.1464(7) 0.5579(6)
C10 C 0.6330(10) 0.1119(8) 0.4714(6)
H6 H 0.6758 0.0677 0.4548
C11 C 0.5557(12) 0.1445(9) 0.4114(6)
H7 H 0.5444 0.1220 0.3526
C12 C 0.4935(10) 0.2113(9) 0.4373(6)
H8 H 0.4397 0.2332 0.3965
C13 C 0.5132(9) 0.2443(7) 0.5248(6)
C14 C 0.4551(9) 0.3180(7) 0.5631(6)
C15 C 0.5489(10) 0.4461(8) 0.8672(6)
C16 C 0.4160(9) 0.3360(8) 0.8483(6)
C17 C 0.3071(10) 0.3265(9) 0.8779(6)
H9 H 0.3089 0.3902 0.9123
C18 C 0.1957(12) 0.2200(9) 0.8549(7)
H10 H 0.1228 0.2110 0.8761
C19 C 0.1900(9) 0.1251(8) 0.8003(6)
H11 H 0.1143 0.0533 0.7841
C20 C 0.3016(8) 0.1424(7) 0.7712(5)
C21 C 0.3160(9) 0.0505(7) 0.7140(5)
C22 C 1.1247(10) 0.6358(7) 0.5467(7)
C23 C 1.0408(9) 0.6826(7) 0.4902(6)
C24 C 1.0095(11) 0.6598(9) 0.4026(7)
H12 H 1.0387 0.6126 0.3734
C25 C 0.9309(14) 0.7103(11) 0.3574(7)
H13 H 0.9050 0.6954 0.2969
C26 C 0.8932(12) 0.7805(10) 0.4023(7)
H14 H 0.8442 0.8169 0.3735
C27 C 0.9284(10) 0.7970(7) 0.4911(6)
C28 C 0.8911(9) 0.8725(8) 0.5494(7)
O12_2 O 1.2268(7) 0.9508(5) 0.6922(4)
Sr1_2 Sr 0.04074(9) -0.23508(7) 0.70599(5)
O20 O 0.6640(10) 0.4769(8) 0.4002(7)
O21 O 0.5936(9) 0.3508(9) 0.0563(7)
O22 O 0.7036(17) 0.4313(14) 0.2391(8)
O23 O 0.5650(14) 0.8877(13) 0.0167(10)
O24 O 0.8501(17) 0.9880(13) 0.0117(9)
O25 O 0.7706(17) 0.7504(12) 0.9061(12)
O26 O 0.1684(18) 0.9865(17) 0.1906(13)
O27 O 0.4813(17) 0.0791(13) 0.1659(12)
loop_
_geom_bond_atom_site_label_1
_geom_bond_atom_site_label_2
_geom_bond_site_symmetry_1
_geom_bond_site_symmetry_2
Ce1 O1 1_555 1_555
Sr1 O2 1_555 1_555
O1 C1 1_555 1_555
O2 C1 1_555 1_555
O3 Ce1 1_555 1_555
O4 C7 1_555 1_555
O5 Ce1 1_555 1_555
O6 C8 1_555 1_555
O7 Ce1 1_555 1_555
O8 C14 1_555 1_555
O9 Ce1 1_555 1_555
O10 C15 1_555 1_555
O11 Ce1 1_555 1_555
O12 C21 1_555 1_555
O13 Sr1 1_555 1_555
O14 H1 1_555 1_555
O15 Sr1 1_555 1_555
O16 H2 1_555 1_555
O17 Sr1 1_555 1_555
O18 Sr1 1_555 1_555
O19 Sr1 1_555 1_555
N1 Ce1 1_555 1_555
N2 Ce1 1_555 1_555
N3 Ce1 1_555 1_555
N4 Sr1 1_555 1_555
C1 C2 1_555 1_555
C2 N1 1_555 1_555
C3 C2 1_555 1_555
H3 C3 1_555 1_555
C4 C3 1_555 1_555
H4 C4 1_555 1_555
C5 C4 1_555 1_555
H5 C5 1_555 1_555
C6 N1 1_555 1_555
C7 O3 1_555 1_555
C8 O5 1_555 1_555
C9 N2 1_555 1_555
C10 C9 1_555 1_555
H6 C10 1_555 1_555
C11 C10 1_555 1_555
H7 C11 1_555 1_555
C12 C11 1_555 1_555
H8 C12 1_555 1_555
C13 N2 1_555 1_555
C14 O7 1_555 1_555
C15 O9 1_555 1_555
C16 N3 1_555 1_555
C17 C16 1_555 1_555
H9 C17 1_555 1_555
C18 C17 1_555 1_555
H10 C18 1_555 1_555
C19 C18 1_555 1_555
H11 C19 1_555 1_555
C20 N3 1_555 1_555
C21 O11 1_555 1_555
C22 O13 1_555 1_555
C23 N4 1_555 1_555
C24 C23 1_555 1_555
H12 C24 1_555 1_555
C25 C24 1_555 1_555
H13 C25 1_555 1_555
C26 C25 1_555 1_555
H14 C26 1_555 1_555
C27 N4 1_555 1_555
C28 O15 1_555 1_555
O12_2 Sr1 1_555 1_555
Sr1_2 O12 1_555 1_555
O14 C22 1_555 1_555
O16 C28 1_555 1_555
C5 C6 1_555 1_555
C6 C7 1_555 1_555
C8 C9 1_555 1_555
C12 C13 1_555 1_555
C13 C14 1_555 1_555
C15 C16 1_555 1_555
C19 C20 1_555 1_555
C20 C21 1_555 1_555
C22 C23 1_555 1_555
C26 C27 1_555 1_555
C27 C28 1_555 1_555

#END
