
#######################################################################
#
#                 Cambridge Crystallographic Data Centre
#                                CCDC 
#
#######################################################################
#
# If this CIF has been generated from an entry in the Cambridge 
# Structural Database, then it will include bibliographic, chemical, 
# crystal, experimental, refinement or atomic coordinate data resulting 
# from the CCDC's data processing and validation procedures.
#
#######################################################################

data_NELMIA01
_symmetry_cell_setting           monoclinic
_symmetry_space_group_name_H-M   'P 21/c'
_symmetry_Int_Tables_number      14
_space_group_name_Hall           '-P 2ybc'
loop_
_symmetry_equiv_pos_site_id
_symmetry_equiv_pos_as_xyz
1 x,y,z
2 -x,1/2+y,1/2-z
3 -x,-y,-z
4 x,1/2-y,1/2+z
_cell_length_a                   9.1985(4)
_cell_length_b                   7.5867(2)
_cell_length_c                   9.7196(4)
_cell_angle_alpha                90
_cell_angle_beta                 101.7928(5)
_cell_angle_gamma                90
_cell_volume                     663.978
loop_
_atom_site_label
_atom_site_type_symbol
_atom_site_fract_x
_atom_site_fract_y
_atom_site_fract_z
Cu1 Cu 0.5000 0.0000 0.5000
N1 N 0.70991(14) 0.07618(19) 0.55130(14)
N2 N 0.92296(16) 0.2002(2) 0.54533(17)
N3 N 0.47328(17) 0.0613(2) 0.69354(16)
N4 N 0.41504(16) 0.1845(2) 0.90833(15)
N5 N 0.19053(17) 0.1208(2) 0.99970(18)
C1 C 0.78451(19) 0.1697(2) 0.47436(19)
C2 C 0.9381(2) 0.1220(3) 0.6727(2)
C3 C 0.8070(2) 0.0454(2) 0.6770(2)
C4 C 0.44005(17) 0.1151(2) 0.79297(17)
C5 C 0.29401(17) 0.1439(2) 0.95258(16)
H1 H 0.9973 0.2651 0.5123
H2 H 0.7454 0.2097 0.3816
H3 H 1.0247 0.1212 0.7453
H4 H 0.7851 -0.0192 0.7540
Cu1A Cu 0.5000 0.5000 1.0000
Cu1A_2 Cu 0.5000 -0.5000 0.0000
N1B N 0.29009(14) -0.07618(19) 0.44870(14)
N2B N 0.07704(16) -0.2002(2) 0.45467(17)
N3B N 0.52672(17) -0.0613(2) 0.30646(16)
N4B N 0.58496(16) -0.1845(2) 0.09167(15)
N4A N 0.58496(16) -0.3155(2) 0.59167(15)
N4C N 0.41504(16) 0.3155(2) 0.40833(15)
N5B N 0.80947(17) -0.1208(2) 0.00030(18)
C1B C 0.21549(19) -0.1697(2) 0.52564(19)
C2B C 0.0619(2) -0.1220(3) 0.3273(2)
C3B C 0.1930(2) -0.0454(2) 0.3230(2)
C4B C 0.55995(17) -0.1151(2) 0.20703(17)
C5B C 0.70599(17) -0.1439(2) 0.04742(16)
H1B H 0.0027 -0.2651 0.4877
H2B H 0.2546 -0.2097 0.6184
H3B H -0.0247 -0.1212 0.2547
H4B H 0.2149 0.0192 0.2460
loop_
_geom_bond_atom_site_label_1
_geom_bond_atom_site_label_2
_geom_bond_site_symmetry_1
_geom_bond_site_symmetry_2
Cu1 N1 1_555 1_555
N1 C1 1_555 1_555
N2 C1 1_555 1_555
N3 Cu1 1_555 1_555
N4 C4 1_555 1_555
N5 C5 1_555 1_555
C1 H2 1_555 1_555
C2 N2 1_555 1_555
C3 N1 1_555 1_555
C4 N3 1_555 1_555
C5 N4 1_555 1_555
H1 N2 1_555 1_555
H3 C2 1_555 1_555
H4 C3 1_555 1_555
Cu1A N4 1_555 1_555
Cu1A_2 N4B 1_555 1_555
N1B Cu1 1_555 1_555
N2B C1B 1_555 1_555
N3B Cu1 1_555 1_555
N4B C4B 1_555 1_555
N4A Cu1 1_555 1_555
N4C Cu1 1_555 1_555
N5B C5B 1_555 1_555
C1B N1B 1_555 1_555
C2B N2B 1_555 1_555
C3B N1B 1_555 1_555
C4B N3B 1_555 1_555
C5B N4B 1_555 1_555
H1B N2B 1_555 1_555
H2B C1B 1_555 1_555
H3B C2B 1_555 1_555
H4B C3B 1_555 1_555
C2 C3 1_555 1_555
C2B C3B 1_555 1_555

#END
