
#######################################################################
#
#                 Cambridge Crystallographic Data Centre
#                                CCDC 
#
#######################################################################
#
# If this CIF has been generated from an entry in the Cambridge 
# Structural Database, then it will include bibliographic, chemical, 
# crystal, experimental, refinement or atomic coordinate data resulting 
# from the CCDC's data processing and validation procedures.
#
#######################################################################

data_NELMAT
_symmetry_cell_setting           orthorhombic
_symmetry_space_group_name_H-M   'I b c a'
_symmetry_Int_Tables_number      73
_space_group_name_Hall           '-I 2b 2c'
loop_
_symmetry_equiv_pos_site_id
_symmetry_equiv_pos_as_xyz
1 x,y,z
2 -x,1/2-y,z
3 x,-y,1/2-z
4 -x,1/2+y,1/2-z
5 1/2+x,1/2+y,1/2+z
6 1/2-x,-y,1/2+z
7 1/2+x,1/2-y,-z
8 1/2-x,y,-z
9 -x,-y,-z
10 x,1/2+y,-z
11 -x,y,1/2+z
12 x,1/2-y,1/2+z
13 1/2-x,1/2-y,1/2-z
14 1/2+x,y,1/2-z
15 1/2-x,1/2+y,z
16 1/2+x,-y,z
_cell_length_a                   16.151(3)
_cell_length_b                   17.348(3)
_cell_length_c                   30.585(6)
_cell_angle_alpha                90
_cell_angle_beta                 90
_cell_angle_gamma                90
_cell_volume                     8569.54
loop_
_atom_site_label
_atom_site_type_symbol
_atom_site_fract_x
_atom_site_fract_y
_atom_site_fract_z
Ag1 Ag 0.00000 0.25000 0.02716(4)
Ag2 Ag 0.25000 -0.09832(6) 0.00000
O1 O 0.2352(6) -0.1685(5) -0.0817(3)
O2 O 0.1561(5) -0.1964(6) -0.0290(3)
O3 O 0.1368(7) -0.2505(6) -0.0901(3)
N1 N 0.1433(5) -0.0008(5) -0.0005(3)
N3 N 0.0592(4) 0.1346(4) 0.0137(2)
N5 N 0.1776(6) -0.2059(5) -0.0674(3)
C3 C 0.1450(5) 0.0560(5) -0.0300(3)
C4 C 0.1033(6) 0.1256(5) -0.0230(3)
C5 C 0.0561(5) 0.0764(5) 0.0428(3)
C7 C 0.0973(5) 0.0098(5) 0.0355(3)
C10 C 0.1943(7) 0.0433(6) -0.0714(3)
C13 C 0.0949(6) -0.0568(6) 0.0673(3)
C15 C 0.1072(7) 0.1893(6) -0.0558(3)
C16 C 0.0060(6) 0.0920(6) 0.0835(3)
H4 H 0.219 -0.007 -0.071
H5 H 0.158 0.047 -0.096
H6 H 0.237 0.082 -0.074
H13 H 0.128 -0.099 0.056
H14 H 0.118 -0.040 0.095
H15 H 0.039 -0.074 0.072
H19 H 0.075 0.232 -0.046
H20 H 0.164 0.205 -0.060
H21 H 0.086 0.172 -0.083
H22 H -0.018 0.143 0.082
H23 H -0.038 0.055 0.086
H24 H 0.041 0.089 0.109
Ag2A Ag -0.25000 0.59832(6) 0.00000
O1G O 0.2648(6) -0.1685(5) 0.0817(3)
O2G O 0.3439(5) -0.1964(6) 0.0290(3)
O3G O 0.3632(7) -0.2505(6) 0.0901(3)
N1A N -0.1433(5) 0.5008(5) -0.0005(3)
N1G N 0.3567(5) -0.0008(5) 0.0005(3)
N3A N -0.0592(4) 0.3654(4) 0.0137(2)
N5G N 0.3224(6) -0.2059(5) 0.0674(3)
C3A C -0.1450(5) 0.4440(5) -0.0300(3)
C4A C -0.1033(6) 0.3744(5) -0.0230(3)
C5A C -0.0561(5) 0.4236(5) 0.0428(3)
C7A C -0.0973(5) 0.4902(5) 0.0355(3)
C10A C -0.1943(7) 0.4567(6) -0.0714(3)
C13A C -0.0949(6) 0.5568(6) 0.0673(3)
C15A C -0.1072(7) 0.3107(6) -0.0558(3)
C16A C -0.0060(6) 0.4080(6) 0.0835(3)
H4A H -0.219 0.507 -0.071
H5A H -0.158 0.453 -0.096
H6A H -0.237 0.418 -0.074
H13A H -0.128 0.599 0.056
H14A H -0.118 0.540 0.095
H15A H -0.039 0.574 0.072
H19A H -0.075 0.268 -0.046
H20A H -0.164 0.295 -0.060
H21A H -0.086 0.328 -0.083
H22A H 0.018 0.357 0.082
H23A H 0.038 0.445 0.086
H24A H -0.041 0.411 0.109
Ag3 Ag 0.63509(6) 0.00000 0.25000
Ag4 Ag 0.50000 0.25000 0.22991(4)
O4 O 0.5433(7) 0.1045(6) 0.2188(3)
O5 O 0.5500(7) 0.0101(5) 0.1777(3)
O6 O 0.4718(8) 0.1039(8) 0.1602(3)
N2 N 0.7391(4) 0.1016(4) 0.2512(2)
N4 N 0.8768(4) 0.1944(4) 0.2582(2)
N6 N 0.5185(6) 0.0736(6) 0.1847(3)
C1 C 0.8657(5) 0.1501(5) 0.2225(3)
C2 C 0.7489(5) 0.1479(5) 0.2857(2)
C6 C 0.8172(5) 0.1946(5) 0.2892(3)
C8 C 0.7963(6) 0.1044(5) 0.2194(3)
C9 C 0.7824(7) 0.0552(6) 0.1796(3)
C11 C 0.6825(6) 0.1443(5) 0.3203(3)
C12 C 0.9302(6) 0.1515(6) 0.1875(3)
C14 C 0.8331(6) 0.2470(6) 0.3282(3)
H1 H 0.731 0.028 0.183
H2 H 0.780 0.087 0.154
H3 H 0.827 0.019 0.177
H7 H 0.640 0.109 0.311
H8 H 0.707 0.127 0.347
H9 H 0.659 0.195 0.325
H10 H 0.974 0.186 0.196
H11 H 0.952 0.101 0.184
H12 H 0.906 0.168 0.161
H16 H 0.885 0.274 0.324
H17 H 0.789 0.284 0.331
H18 H 0.836 0.217 0.355
Ag4L Ag 1.00000 0.25000 0.27009(4)
Ag4B Ag 0.50000 -0.25000 0.27009(4)
Ag4N Ag 1.00000 -0.25000 0.22991(4)
O4B O 0.5433(7) -0.1045(6) 0.2812(3)
O4A O 0.4567(7) 0.3955(6) 0.2188(3)
O5B O 0.5500(7) -0.0101(5) 0.3223(3)
O6B O 0.4718(8) -0.1039(8) 0.3398(3)
N2B N 0.7391(4) -0.1016(4) 0.2488(2)
N4B N 0.8768(4) -0.1944(4) 0.2418(2)
N4L N 0.6232(4) 0.3056(4) 0.2418(2)
N4M N 0.3768(4) 0.1944(4) 0.2418(2)
N6B N 0.5185(6) -0.0736(6) 0.3153(3)
C1B C 0.8657(5) -0.1501(5) 0.2775(3)
C2B C 0.7489(5) -0.1479(5) 0.2143(2)
C6B C 0.8172(5) -0.1946(5) 0.2108(3)
C8B C 0.7963(6) -0.1044(5) 0.2806(3)
C9B C 0.7824(7) -0.0552(6) 0.3204(3)
C11B C 0.6825(6) -0.1443(5) 0.1797(3)
C12B C 0.9302(6) -0.1515(6) 0.3125(3)
C14B C 0.8331(6) -0.2470(6) 0.1718(3)
H1B H 0.731 -0.028 0.317
H2B H 0.780 -0.087 0.346
H3B H 0.827 -0.019 0.323
H7B H 0.640 -0.109 0.189
H8B H 0.707 -0.127 0.153
H9B H 0.659 -0.195 0.175
H10B H 0.974 -0.186 0.304
H11B H 0.952 -0.101 0.316
H12B H 0.906 -0.168 0.339
H16B H 0.885 -0.274 0.176
H17B H 0.789 -0.284 0.169
H18B H 0.836 -0.217 0.145
loop_
_geom_bond_atom_site_label_1
_geom_bond_atom_site_label_2
_geom_bond_site_symmetry_1
_geom_bond_site_symmetry_2
Ag1 N3 1_555 1_555
Ag2 O2 1_555 1_555
Ag3 O4 1_555 1_555
Ag4 O4 1_555 1_555
O1 N5 1_555 1_555
O2 N5 1_555 1_555
O3 N5 1_555 1_555
O4 N6 1_555 1_555
O5 Ag3 1_555 1_555
O6 N6 1_555 1_555
N1 Ag2 1_555 1_555
N2 Ag3 1_555 1_555
N3 C4 1_555 1_555
N4 C1 1_555 1_555
N6 O5 1_555 1_555
C1 C8 1_555 1_555
C2 N2 1_555 1_555
C3 N1 1_555 1_555
C4 C3 1_555 1_555
C5 N3 1_555 1_555
C6 N4 1_555 1_555
C7 N1 1_555 1_555
C8 N2 1_555 1_555
C9 C8 1_555 1_555
C10 C3 1_555 1_555
C11 C2 1_555 1_555
C12 C1 1_555 1_555
C13 C7 1_555 1_555
C14 C6 1_555 1_555
C15 C4 1_555 1_555
C16 C5 1_555 1_555
H1 C9 1_555 1_555
H2 C9 1_555 1_555
H3 C9 1_555 1_555
H4 C10 1_555 1_555
H5 C10 1_555 1_555
H6 C10 1_555 1_555
H7 C11 1_555 1_555
H8 C11 1_555 1_555
H9 C11 1_555 1_555
H10 C12 1_555 1_555
H11 C12 1_555 1_555
H12 C12 1_555 1_555
H13 C13 1_555 1_555
H14 C13 1_555 1_555
H15 C13 1_555 1_555
H16 C14 1_555 1_555
H17 C14 1_555 1_555
H18 C14 1_555 1_555
H19 C15 1_555 1_555
H20 C15 1_555 1_555
H21 C15 1_555 1_555
H22 C16 1_555 1_555
H23 C16 1_555 1_555
H24 C16 1_555 1_555
Ag2A N1A 1_555 1_555
Ag4L N4 1_555 1_555
Ag4B O4B 1_555 1_555
Ag4N N4B 1_555 1_555
O1G N5G 1_555 1_555
O2G Ag2 1_555 1_555
O3G N5G 1_555 1_555
O4B Ag3 1_555 1_555
O4A Ag4 1_555 1_555
O5B Ag3 1_555 1_555
O6B N6B 1_555 1_555
N1A C3A 1_555 1_555
N1G Ag2 1_555 1_555
N2B Ag3 1_555 1_555
N3A Ag1 1_555 1_555
N4B C1B 1_555 1_555
N4L Ag4 1_555 1_555
N4M Ag4 1_555 1_555
N5G O2G 1_555 1_555
N6B O4B 1_555 1_555
C1B C8B 1_555 1_555
C2B N2B 1_555 1_555
C3A C4A 1_555 1_555
C4A N3A 1_555 1_555
C5A N3A 1_555 1_555
C6B N4B 1_555 1_555
C7A N1A 1_555 1_555
C8B N2B 1_555 1_555
C9B C8B 1_555 1_555
C10A C3A 1_555 1_555
C11B C2B 1_555 1_555
C12B C1B 1_555 1_555
C13A C7A 1_555 1_555
C14B C6B 1_555 1_555
C15A C4A 1_555 1_555
C16A C5A 1_555 1_555
H1B C9B 1_555 1_555
H2B C9B 1_555 1_555
H3B C9B 1_555 1_555
H4A C10A 1_555 1_555
H5A C10A 1_555 1_555
H6A C10A 1_555 1_555
H7B C11B 1_555 1_555
H8B C11B 1_555 1_555
H9B C11B 1_555 1_555
H10B C12B 1_555 1_555
H11B C12B 1_555 1_555
H12B C12B 1_555 1_555
H13A C13A 1_555 1_555
H14A C13A 1_555 1_555
H15A C13A 1_555 1_555
H16B C14B 1_555 1_555
H17B C14B 1_555 1_555
H18B C14B 1_555 1_555
H19A C15A 1_555 1_555
H20A C15A 1_555 1_555
H21A C15A 1_555 1_555
H22A C16A 1_555 1_555
H23A C16A 1_555 1_555
H24A C16A 1_555 1_555
C2 C6 1_555 1_555
C5 C7 1_555 1_555
O5B N6B 1_555 1_555
C2B C6B 1_555 1_555
C5A C7A 1_555 1_555

#END
