
#######################################################################
#
#                 Cambridge Crystallographic Data Centre
#                                CCDC 
#
#######################################################################
#
# If this CIF has been generated from an entry in the Cambridge 
# Structural Database, then it will include bibliographic, chemical, 
# crystal, experimental, refinement or atomic coordinate data resulting 
# from the CCDC's data processing and validation procedures.
#
#######################################################################

data_NELMOG
_symmetry_cell_setting           orthorhombic
_symmetry_space_group_name_H-M   'P n a 21'
_symmetry_Int_Tables_number      33
_space_group_name_Hall           'P 2c -2n'
loop_
_symmetry_equiv_pos_site_id
_symmetry_equiv_pos_as_xyz
1 x,y,z
2 -x,-y,1/2+z
3 1/2+x,1/2-y,z
4 1/2-x,1/2+y,1/2+z
_cell_length_a                   8.0762(11)
_cell_length_b                   9.9366(13)
_cell_length_c                   14.1558(19)
_cell_angle_alpha                90
_cell_angle_beta                 90
_cell_angle_gamma                90
_cell_volume                     1136
loop_
_atom_site_label
_atom_site_type_symbol
_atom_site_fract_x
_atom_site_fract_y
_atom_site_fract_z
Cu1 Cu 0.12533(13) 0.43841(8) 0.13972(12)
N1 N 0.2076(10) 0.5805(6) 0.2270(5)
N2 N 0.0617(10) 0.6035(6) 0.0650(5)
C1 C -0.1771(14) 0.2853(10) 0.1817(6)
C2 C -0.0935(15) 0.2347(9) 0.0896(8)
C3 C 0.2798(14) 0.5587(9) 0.3112(6)
H1 H 0.2996 0.4706 0.3301
H2 H 0.3792 0.6410 0.4255
H3 H 0.3125 0.8607 0.3876
H4 H 0.1987 0.9018 0.2380
H5 H 0.0677 0.9232 0.0968
H6 H -0.0537 0.9206 -0.0497
H7 H -0.1046 0.7167 -0.1245
H8 H -0.0245 0.5232 -0.0497
C4 C 0.3246(14) 0.6604(12) 0.3692(8)
C5 C 0.2896(18) 0.7907(12) 0.3463(9)
C6 C 0.2177(13) 0.8146(8) 0.2582(8)
C7 C 0.1746(13) 0.7099(10) 0.2020(7)
C8 C 0.0942(13) 0.7189(9) 0.1094(6)
C9 C 0.0485(13) 0.8425(8) 0.0659(7)
C10 C -0.0240(14) 0.8408(9) -0.0207(8)
C11 C -0.0542(18) 0.7206(11) -0.0654(8)
C12 C -0.0070(13) 0.6056(9) -0.0195(7)
O1 O -0.1316(9) 0.3954(5) 0.2147(5)
O2 O -0.2902(9) 0.2118(6) 0.2169(4)
O3 O 0.0154(8) 0.3104(5) 0.0536(4)
O4 O -0.1353(8) 0.1231(5) 0.0591(4)
C1B C 0.3229(14) 0.2147(10) 0.1817(6)
C2B C 0.4065(15) 0.2653(9) 0.0896(8)
O1B O 0.3684(9) 0.1046(5) 0.2147(5)
O2B O 0.2098(9) 0.2882(6) 0.2169(4)
O3B O 0.5154(8) 0.1896(5) 0.0536(4)
O4B O 0.3647(8) 0.3769(5) 0.0591(4)
Cu1B Cu 0.62533(13) 0.06159(8) 0.13972(12)
Cu1B_2 Cu -0.37467(13) 0.06159(8) 0.13972(12)
N1B N -0.2924(10) -0.0805(6) 0.2270(5)
N2B N -0.4383(10) -0.1035(6) 0.0650(5)
O1B_2 O -0.6316(9) 0.1046(5) 0.2147(5)
O3B_2 O -0.4846(8) 0.1896(5) 0.0536(4)
C8B C -0.4058(13) -0.2189(9) 0.1094(6)
C12B C -0.5070(13) -0.1056(9) -0.0195(7)
C3B C -0.2202(14) -0.0587(9) 0.3112(6)
C7B C -0.3254(13) -0.2099(10) 0.2020(7)
C9B C -0.4515(13) -0.3425(8) 0.0659(7)
C6B C -0.2823(13) -0.3146(8) 0.2582(8)
H1B H -0.2004 0.0294 0.3301
C4B C -0.1754(14) -0.1604(12) 0.3692(8)
H8B H -0.5245 -0.0232 -0.0497
C11B C -0.5542(18) -0.2206(11) -0.0654(8)
H7B H -0.6046 -0.2167 -0.1245
C10B C -0.5240(14) -0.3408(9) -0.0207(8)
H5B H -0.4323 -0.4232 0.0968
H4B H -0.3013 -0.4018 0.2380
C5B C -0.2104(18) -0.2907(12) 0.3463(9)
H2B H -0.1208 -0.1410 0.4255
H6B H -0.5537 -0.4206 -0.0497
H3B H -0.1875 -0.3607 0.3876
loop_
_geom_bond_atom_site_label_1
_geom_bond_atom_site_label_2
_geom_bond_site_symmetry_1
_geom_bond_site_symmetry_2
Cu1 N1 1_555 1_555
N1 C3 1_555 1_555
N2 Cu1 1_555 1_555
C1 C2 1_555 1_555
C2 O3 1_555 1_555
C3 H1 1_555 1_555
H2 C4 1_555 1_555
H3 C5 1_555 1_555
H4 C6 1_555 1_555
H5 C9 1_555 1_555
H6 C10 1_555 1_555
H7 C11 1_555 1_555
H8 C12 1_555 1_555
C4 C3 1_555 1_555
C5 C4 1_555 1_555
C6 C5 1_555 1_555
C7 N1 1_555 1_555
C8 N2 1_555 1_555
C9 C8 1_555 1_555
C10 C9 1_555 1_555
C11 C10 1_555 1_555
C12 N2 1_555 1_555
O1 Cu1 1_555 1_555
O2 C1 1_555 1_555
O3 Cu1 1_555 1_555
O4 C2 1_555 1_555
C1B C2B 1_555 1_555
C2B O3B 1_555 1_555
O1B C1B 1_555 1_555
O2B Cu1 1_555 1_555
O3B Cu1B 1_555 1_555
O4B Cu1 1_555 1_555
Cu1B O1B 1_555 1_555
Cu1B_2 O2 1_555 1_555
N1B Cu1B_2 1_555 1_555
N2B Cu1B_2 1_555 1_555
O1B_2 Cu1B_2 1_555 1_555
O3B_2 Cu1B_2 1_555 1_555
C8B N2B 1_555 1_555
C12B N2B 1_555 1_555
C3B N1B 1_555 1_555
C7B N1B 1_555 1_555
C9B C8B 1_555 1_555
C6B C7B 1_555 1_555
H1B C3B 1_555 1_555
C4B C3B 1_555 1_555
H8B C12B 1_555 1_555
C11B C12B 1_555 1_555
H7B C11B 1_555 1_555
C10B C9B 1_555 1_555
H5B C9B 1_555 1_555
H4B C6B 1_555 1_555
C5B C6B 1_555 1_555
H2B C4B 1_555 1_555
H6B C10B 1_555 1_555
H3B C5B 1_555 1_555
C1 O1 1_555 1_555
C6 C7 1_555 1_555
C7 C8 1_555 1_555
C11 C12 1_555 1_555
O4 Cu1B_2 1_555 1_555
C1B O2B 1_555 1_555
C2B O4B 1_555 1_555
C8B C7B 1_555 1_555
C4B C5B 1_555 1_555
C11B C10B 1_555 1_555

#END
