
#######################################################################
#
#                 Cambridge Crystallographic Data Centre
#                                CCDC 
#
#######################################################################
#
# If this CIF has been generated from an entry in the Cambridge 
# Structural Database, then it will include bibliographic, chemical, 
# crystal, experimental, refinement or atomic coordinate data resulting 
# from the CCDC's data processing and validation procedures.
#
#######################################################################

data_NELNOH
_symmetry_cell_setting           monoclinic
_symmetry_space_group_name_H-M   'P 2/n'
_symmetry_Int_Tables_number      13
_space_group_name_Hall           '-P 2yac'
loop_
_symmetry_equiv_pos_site_id
_symmetry_equiv_pos_as_xyz
1 x,y,z
2 1/2-x,y,1/2-z
3 -x,-y,-z
4 1/2+x,-y,1/2+z
_cell_length_a                   8.6089(5)
_cell_length_b                   12.2249(7)
_cell_length_c                   17.3057(11)
_cell_angle_alpha                90
_cell_angle_beta                 100.860(2)
_cell_angle_gamma                90
_cell_volume                     1788.68
loop_
_atom_site_label
_atom_site_type_symbol
_atom_site_fract_x
_atom_site_fract_y
_atom_site_fract_z
Mn1 Mn 0.55181(4) 0.29828(2) 0.665720(19)
N1 N 0.5089(2) 0.15142(13) 0.73708(10)
C1 C 0.4444(3) 0.15319(19) 0.80083(14)
H1 H 0.4226 0.2205 0.8215
C2 C 0.4080(3) 0.0580(2) 0.83802(16)
H2 H 0.3626 0.0622 0.8826
C3 C 0.4392(3) -0.0414(2) 0.80862(16)
H3 H 0.4154 -0.1052 0.8332
C4 C 0.5074(3) -0.04704(18) 0.74131(15)
C5 C 0.5391(2) 0.05284(16) 0.70725(13)
C6 C 0.6064(2) 0.05264(16) 0.63720(13)
C7 C 0.6417(3) -0.04739(18) 0.60364(15)
C8 C 0.7048(3) -0.0412(2) 0.53496(16)
H4 H 0.7292 -0.1050 0.5105
C9 C 0.7307(3) 0.0582(2) 0.50378(16)
H5 H 0.7736 0.0627 0.4584
C10 C 0.6921(3) 0.15286(19) 0.54078(14)
H6 H 0.7100 0.2203 0.5191
N2 N 0.6313(2) 0.15085(14) 0.60519(10)
C11 C 0.5449(3) -0.14692(18) 0.70512(17)
H7 H 0.5244 -0.2133 0.7275
C12 C 0.6081(3) -0.14759(19) 0.64033(17)
H8 H 0.6308 -0.2140 0.6187
O1 O 0.44395(18) 0.39574(12) 0.56142(9)
O2 O 0.29368(18) 0.26756(13) 0.59626(9)
C13 C 0.3145(3) 0.34409(17) 0.55151(13)
C14 C 0.1856(2) 0.37423(16) 0.48376(12)
C15 C 0.0470(2) 0.31323(16) 0.46922(13)
H9 H 0.0341 0.2551 0.5021
C16 C -0.0724(2) 0.33829(16) 0.40601(13)
O3 O -0.2052(2) 0.27397(13) 0.39314(11)
H10 H -0.283(3) 0.314(2) 0.3836(16)
C17 C -0.0532(2) 0.42466(16) 0.35709(13)
H11 H -0.1329 0.4415 0.3146
C18 C 0.0851(2) 0.48653(16) 0.37121(12)
C19 C 0.2035(2) 0.46190(16) 0.43540(12)
H12 H 0.2948 0.5043 0.4459
C20 C 0.1076(3) 0.57772(16) 0.31654(13)
O4 O 0.01327(18) 0.58274(11) 0.25046(9)
O5 O 0.21740(17) 0.64449(11) 0.33730(9)
Mn1C Mn 0.05181(4) 0.70172(2) 0.165720(19)
O4C O 0.51327(18) 0.41726(11) 0.75046(9)
O5B O 0.78260(17) 0.35551(11) 0.66270(9)
Mn1B Mn 0.44819(4) 0.70172(2) 0.334280(19)
O6 O -0.9587(2) 0.59854(16) -1.14652(19)
H13 H -0.957(4) 0.575(3) -1.104(2)
H14 H -0.973(4) 0.550(3) -1.186(2)
loop_
_geom_bond_atom_site_label_1
_geom_bond_atom_site_label_2
_geom_bond_site_symmetry_1
_geom_bond_site_symmetry_2
Mn1 N1 1_555 1_555
N1 C1 1_555 1_555
C1 H1 1_555 1_555
C2 C1 1_555 1_555
H2 C2 1_555 1_555
C3 C2 1_555 1_555
H3 C3 1_555 1_555
C4 C3 1_555 1_555
C5 N1 1_555 1_555
C6 C5 1_555 1_555
C7 C6 1_555 1_555
C8 C7 1_555 1_555
H4 C8 1_555 1_555
C9 C8 1_555 1_555
H5 C9 1_555 1_555
C10 C9 1_555 1_555
H6 C10 1_555 1_555
N2 Mn1 1_555 1_555
C11 C4 1_555 1_555
H7 C11 1_555 1_555
C12 C7 1_555 1_555
H8 C12 1_555 1_555
O1 Mn1 1_555 1_555
O2 C13 1_555 1_555
C13 O1 1_555 1_555
C14 C13 1_555 1_555
C15 C14 1_555 1_555
H9 C15 1_555 1_555
C16 C15 1_555 1_555
O3 C16 1_555 1_555
H10 O3 1_555 1_555
C17 C16 1_555 1_555
H11 C17 1_555 1_555
C18 C17 1_555 1_555
C19 C14 1_555 1_555
H12 C19 1_555 1_555
C20 C18 1_555 1_555
O4 C20 1_555 1_555
O5 C20 1_555 1_555
O6 H13 1_555 1_555
H14 O6 1_555 1_555
Mn1C O4 1_555 1_555
O4C Mn1 1_555 1_555
O5B Mn1 1_555 1_555
Mn1B O5 1_555 1_555
C4 C5 1_555 1_555
C6 N2 1_555 1_555
C10 N2 1_555 1_555
C11 C12 1_555 1_555
C18 C19 1_555 1_555

#END
