
#######################################################################
#
#                 Cambridge Crystallographic Data Centre
#                                CCDC 
#
#######################################################################
#
# If this CIF has been generated from an entry in the Cambridge 
# Structural Database, then it will include bibliographic, chemical, 
# crystal, experimental, refinement or atomic coordinate data resulting 
# from the CCDC's data processing and validation procedures.
#
#######################################################################

data_NELQUR
_symmetry_cell_setting           triclinic
_symmetry_space_group_name_H-M   'P -1'
_symmetry_Int_Tables_number      2
_space_group_name_Hall           '-P 1'
loop_
_symmetry_equiv_pos_site_id
_symmetry_equiv_pos_as_xyz
1 x,y,z
2 -x,-y,-z
_cell_length_a                   7.5391(2)
_cell_length_b                   10.0533(3)
_cell_length_c                   10.4578(3)
_cell_angle_alpha                87.7870(10)
_cell_angle_beta                 82.5510(11)
_cell_angle_gamma                86.2800(16)
_cell_volume                     783.916
loop_
_atom_site_label
_atom_site_type_symbol
_atom_site_fract_x
_atom_site_fract_y
_atom_site_fract_z
Er1 Er 0.279180(19) 0.235376(15) 0.452670(15)
O1 O 0.2782(4) 0.2561(3) 0.6751(3)
O2 O 0.2364(4) 0.0527(3) 0.6241(3)
O3 O 0.4936(4) 0.3227(3) 0.2879(3)
O4 O 0.1399(4) 0.3520(3) 0.2966(3)
O5 O 0.2900(5) 0.0691(3) 1.3225(3)
O6 O 0.5707(4) 0.1582(3) 0.4874(3)
O7 O 0.2991(5) 0.4584(3) 0.4976(3)
C1 C -0.0055(5) 0.4430(4) 0.1240(4)
O8 O -0.1573(4) 0.3524(3) 0.3183(3)
C2 C 0.2562(5) 0.1341(4) 0.7082(4)
C3 C 0.2643(5) 0.0167(4) 1.1058(4)
O9 O -0.0203(4) 0.2305(4) 0.5180(4)
O10 O 0.2616(5) -0.1411(3) 1.2812(3)
C4 C 0.2721(5) -0.0215(4) 1.2450(4)
C5 C 0.2563(5) 0.0915(4) 0.8467(4)
C6 C -0.1506(6) 0.4366(5) 0.0548(4)
H1 H -0.2513 0.3934 0.0913
C7 C 0.2279(6) -0.0384(4) 0.8891(4)
H2 H 0.2053 -0.1011 0.8310
C8 C -0.0083(5) 0.3780(4) 0.2550(4)
C9 C 0.1455(5) 0.5059(5) 0.0677(4)
H3 H 0.2436 0.5093 0.1127
C10 C 0.2329(6) -0.0759(4) 1.0187(4)
H4 H 0.2151 -0.1636 1.0464
C11 C 0.2866(6) 0.1840(4) 0.9346(4)
H5 H 0.3045 0.2717 0.9071
C12 C 0.2906(7) 0.1472(4) 1.0636(4)
H6 H 0.3110 0.2104 1.1218
Er1_2 Er 0.279180(19) 0.235376(15) -0.547330(15)
Er1_3 Er 0.279180(19) 0.235376(15) 1.452670(15)
Er1A Er -0.279180(19) 0.764624(15) -0.452670(15)
O1_2 O 0.2782(4) 0.2561(3) -0.3249(3)
O2_2 O 0.2364(4) 0.0527(3) -0.3759(3)
O3_2 O 0.4936(4) 0.3227(3) -0.7121(3)
O4A O -0.1399(4) 0.6480(3) -0.2966(3)
O4_2 O 0.1399(4) 0.3520(3) -0.7034(3)
O5_2 O 0.2900(5) 0.0691(3) 0.3225(3)
O5_3 O 0.2900(5) 0.0691(3) -0.6775(3)
O6_2 O 0.5707(4) 0.1582(3) -0.5126(3)
O7_2 O 0.2991(5) 0.4584(3) -0.5024(3)
C1A C 0.0055(5) 0.5570(4) -0.1240(4)
O8A O 0.1573(4) 0.6476(3) -0.3183(3)
C2_2 C 0.2562(5) 0.1341(4) -0.2918(4)
C3_2 C 0.2643(5) 0.0167(4) 0.1058(4)
O9_2 O -0.0203(4) 0.2305(4) -0.4820(4)
O10_2 O 0.2616(5) -0.1411(3) 0.2812(3)
C4_2 C 0.2721(5) -0.0215(4) 0.2450(4)
C5_2 C 0.2563(5) 0.0915(4) -0.1533(4)
C6A C 0.1506(6) 0.5634(5) -0.0548(4)
H1A H 0.2513 0.6066 -0.0913
C7_2 C 0.2279(6) -0.0384(4) -0.1109(4)
H2_2 H 0.2053 -0.1011 -0.1690
C8A C 0.0083(5) 0.6220(4) -0.2550(4)
C9A C -0.1455(5) 0.4941(5) -0.0677(4)
H3A H -0.2436 0.4907 -0.1127
C10_2 C 0.2329(6) -0.0759(4) 0.0187(4)
H4_2 H 0.2151 -0.1636 0.0464
C11_2 C 0.2866(6) 0.1840(4) -0.0654(4)
H5_2 H 0.3045 0.2717 -0.0929
C12_2 C 0.2906(7) 0.1472(4) 0.0636(4)
H6_2 H 0.3110 0.2104 0.1218
O11 O 0.4290(5) 0.6042(3) 0.2759(4)
loop_
_geom_bond_atom_site_label_1
_geom_bond_atom_site_label_2
_geom_bond_site_symmetry_1
_geom_bond_site_symmetry_2
Er1 O1 1_555 1_555
O1 C2 1_555 1_555
O2 Er1 1_555 1_555
O3 Er1 1_555 1_555
O4 Er1 1_555 1_555
O5 C4 1_555 1_555
O6 Er1 1_555 1_555
O7 Er1 1_555 1_555
C1 C6 1_555 1_555
O8 C8 1_555 1_555
C2 O2 1_555 1_555
C3 C4 1_555 1_555
O9 Er1 1_555 1_555
O10 C4 1_555 1_555
C5 C2 1_555 1_555
C6 H1 1_555 1_555
C7 C5 1_555 1_555
H2 C7 1_555 1_555
C8 O4 1_555 1_555
C9 C1 1_555 1_555
H3 C9 1_555 1_555
C10 C3 1_555 1_555
H4 C10 1_555 1_555
C11 C5 1_555 1_555
H5 C11 1_555 1_555
C12 C3 1_555 1_555
H6 C12 1_555 1_555
Er1_2 O1_2 1_555 1_555
Er1_3 O5 1_555 1_555
Er1A O4A 1_555 1_555
O1_2 C2_2 1_555 1_555
O2_2 Er1_2 1_555 1_555
O3_2 Er1_2 1_555 1_555
O4A C8A 1_555 1_555
O4_2 Er1_2 1_555 1_555
O5_2 Er1 1_555 1_555
O5_3 Er1_2 1_555 1_555
O6_2 Er1_2 1_555 1_555
O7_2 Er1_2 1_555 1_555
C1A C6A 1_555 1_555
O8A C8A 1_555 1_555
C2_2 O2_2 1_555 1_555
C3_2 C4_2 1_555 1_555
O9_2 Er1_2 1_555 1_555
O10_2 C4_2 1_555 1_555
C4_2 O5_2 1_555 1_555
C5_2 C2_2 1_555 1_555
C6A C9 1_555 1_555
H1A C6A 1_555 1_555
C7_2 C5_2 1_555 1_555
H2_2 C7_2 1_555 1_555
C8A C1A 1_555 1_555
C9A C6 1_555 1_555
H3A C9A 1_555 1_555
C10_2 C3_2 1_555 1_555
H4_2 C10_2 1_555 1_555
C11_2 C5_2 1_555 1_555
H5_2 C11_2 1_555 1_555
C12_2 C3_2 1_555 1_555
H6_2 C12_2 1_555 1_555
C1 C8 1_555 1_555
C7 C10 1_555 1_555
C11 C12 1_555 1_555
C1A C9A 1_555 1_555
C7_2 C10_2 1_555 1_555
C11_2 C12_2 1_555 1_555

#END
