
#######################################################################
#
#                 Cambridge Crystallographic Data Centre
#                                CCDC 
#
#######################################################################
#
# If this CIF has been generated from an entry in the Cambridge 
# Structural Database, then it will include bibliographic, chemical, 
# crystal, experimental, refinement or atomic coordinate data resulting 
# from the CCDC's data processing and validation procedures.
#
#######################################################################

data_NELREC
_symmetry_cell_setting           triclinic
_symmetry_space_group_name_H-M   'P -1'
_symmetry_Int_Tables_number      2
_space_group_name_Hall           '-P 1'
loop_
_symmetry_equiv_pos_site_id
_symmetry_equiv_pos_as_xyz
1 x,y,z
2 -x,-y,-z
_cell_length_a                   6.87760(10)
_cell_length_b                   11.0420(2)
_cell_length_c                   18.5675(3)
_cell_angle_alpha                84.7240(6)
_cell_angle_beta                 81.8380(6)
_cell_angle_gamma                84.1770(8)
_cell_volume                     1384.26
loop_
_atom_site_label
_atom_site_type_symbol
_atom_site_fract_x
_atom_site_fract_y
_atom_site_fract_z
Er1 Er 0.79981(2) 0.919885(14) 0.120792(9)
Er2 Er 0.76175(2) 1.334190(15) 0.652900(9)
O1 O 1.0827(5) 0.7793(3) 0.1218(2)
O2 O 0.4876(5) 0.9037(4) 0.0905(2)
O3 O 0.7729(5) 1.1418(3) 0.7156(2)
O4 O 1.0966(5) 1.2724(3) 0.6644(2)
O5 O 0.5842(5) 1.4876(3) 0.5816(2)
O6 O 0.9611(5) 1.3656(4) 0.5399(2)
O8 O 0.8740(5) 0.9580(3) 0.23957(18)
O9 O 0.5582(5) 0.9775(3) 0.22944(18)
O10 O 0.6338(5) 1.2207(3) 0.57716(19)
O11 O 0.3564(5) 1.3050(4) 0.5379(2)
C1 C 0.6956(6) 0.9883(4) 0.2655(2)
C2 C 0.6492(6) 1.0433(4) 0.3375(2)
C3 C 0.7888(7) 1.0418(5) 0.3845(3)
H1 H 0.9145 1.0033 0.3726
C4 C 0.4627(7) 1.1015(5) 0.3554(3)
H2 H 0.3674 1.1001 0.3246
C5 C 0.7410(7) 1.0980(5) 0.4494(3)
H3 H 0.8328 1.0930 0.4821
C6 C 0.4171(7) 1.1617(6) 0.4187(3)
H4 H 0.2926 1.2023 0.4296
C7 C 0.5575(7) 1.1616(4) 0.4660(2)
C8 C 0.5111(7) 1.2326(4) 0.5320(3)
O12 O 0.8467(5) 0.8450(3) 0.00895(18)
O13 O 0.9159(5) 0.9788(3) -0.08655(18)
O14 O 0.8551(5) 0.5270(3) -0.32135(18)
O15 O 0.8223(5) 0.3899(3) -0.22919(18)
C9 C 0.8778(6) 0.8735(4) -0.0585(2)
C10 C 0.8684(6) 0.7760(3) -0.1091(2)
C11 C 0.8661(7) 0.6540(4) -0.0821(2)
H5 H 0.8669 0.6330 -0.0325
C12 C 0.8683(7) 0.8068(4) -0.1835(3)
H6 H 0.8704 0.8880 -0.2020
C13 C 0.8625(7) 0.5643(4) -0.1290(2)
H7 H 0.8613 0.4830 -0.1108
C14 C 0.8651(7) 0.7155(4) -0.2301(2)
H8 H 0.8659 0.7358 -0.2799
C15 C 0.8606(6) 0.5945(4) -0.2027(2)
C16 C 0.8478(6) 0.4987(4) -0.2531(2)
O16 O 0.6334(5) 1.2351(3) -0.0014(2)
O17 O 0.6944(5) 1.1169(3) 0.0977(2)
O18 O 0.5422(5) 1.6510(3) 0.28538(18)
O19 O 0.7171(5) 1.7396(3) 0.1893(2)
C17 C 0.6579(6) 1.2185(4) 0.0647(3)
C18 C 0.6455(6) 1.3306(4) 0.1059(2)
C19 C 0.6488(6) 1.4453(4) 0.0676(3)
H9 H 0.6541 1.4520 0.0170
C20 C 0.6350(6) 1.3213(4) 0.1811(2)
H10 H 0.6351 1.2448 0.2067
C21 C 0.6443(7) 1.5491(4) 0.1044(2)
H11 H 0.6502 1.6252 0.0785
C22 C 0.6242(6) 1.4255(4) 0.2188(2)
H12 H 0.6126 1.4189 0.2695
C23 C 0.6309(6) 1.5397(4) 0.1805(2)
C24 C 0.6280(6) 1.6517(4) 0.2202(2)
Er1A Er 1.20019(2) 1.080115(14) -0.120792(9)
Er1_2 Er 0.79981(2) 1.919885(14) 0.120792(9)
Er2_2 Er 0.76175(2) 0.334190(15) -0.347100(9)
Er2A Er 0.23825(2) 1.665810(15) 0.347100(9)
O13A O 1.0841(5) 1.0212(3) 0.08655(18)
O14_2 O 0.8551(5) 1.5270(3) 0.67865(18)
O15_2 O 0.8223(5) 1.3899(3) 0.77081(18)
O18A O 0.4578(5) 1.3490(3) 0.71462(18)
O19_2 O 0.7171(5) 0.7396(3) 0.1893(2)
O7 O 1.1774(6) 1.6068(5) 0.5932(2)
loop_
_geom_bond_atom_site_label_1
_geom_bond_atom_site_label_2
_geom_bond_site_symmetry_1
_geom_bond_site_symmetry_2
Er1 O1 1_555 1_555
Er2 O3 1_555 1_555
O2 Er1 1_555 1_555
O4 Er2 1_555 1_555
O5 Er2 1_555 1_555
O6 Er2 1_555 1_555
O8 Er1 1_555 1_555
O9 Er1 1_555 1_555
O10 Er2 1_555 1_555
O11 C8 1_555 1_555
C1 O8 1_555 1_555
C2 C1 1_555 1_555
C3 C2 1_555 1_555
H1 C3 1_555 1_555
C4 C2 1_555 1_555
H2 C4 1_555 1_555
C5 C3 1_555 1_555
H3 C5 1_555 1_555
C6 C4 1_555 1_555
H4 C6 1_555 1_555
C7 C5 1_555 1_555
C8 O10 1_555 1_555
O12 Er1 1_555 1_555
O13 C9 1_555 1_555
O14 C16 1_555 1_555
O15 C16 1_555 1_555
C9 O12 1_555 1_555
C10 C9 1_555 1_555
C11 C10 1_555 1_555
H5 C11 1_555 1_555
C12 C10 1_555 1_555
H6 C12 1_555 1_555
C13 C11 1_555 1_555
H7 C13 1_555 1_555
C14 C12 1_555 1_555
H8 C14 1_555 1_555
C15 C13 1_555 1_555
C16 C15 1_555 1_555
O16 C17 1_555 1_555
O17 Er1 1_555 1_555
O18 C24 1_555 1_555
O19 C24 1_555 1_555
C17 O17 1_555 1_555
C18 C17 1_555 1_555
C19 C18 1_555 1_555
H9 C19 1_555 1_555
C20 C18 1_555 1_555
H10 C20 1_555 1_555
C21 C19 1_555 1_555
H11 C21 1_555 1_555
C22 C20 1_555 1_555
H12 C22 1_555 1_555
C23 C21 1_555 1_555
C24 C23 1_555 1_555
Er1A O13 1_555 1_555
Er1_2 O19 1_555 1_555
Er2_2 O14 1_555 1_555
Er2A O18 1_555 1_555
O13A Er1 1_555 1_555
O14_2 Er2 1_555 1_555
O15_2 Er2 1_555 1_555
O18A Er2 1_555 1_555
O19_2 Er1 1_555 1_555
O9 C1 1_555 1_555
C6 C7 1_555 1_555
C7 C8 1_555 1_555
O15 Er2_2 1_555 1_555
C14 C15 1_555 1_555
C22 C23 1_555 1_555

#END
