
#######################################################################
#
#                 Cambridge Crystallographic Data Centre
#                                CCDC 
#
#######################################################################
#
# If this CIF has been generated from an entry in the Cambridge 
# Structural Database, then it will include bibliographic, chemical, 
# crystal, experimental, refinement or atomic coordinate data resulting 
# from the CCDC's data processing and validation procedures.
#
#######################################################################

data_NELVAD
_symmetry_cell_setting           monoclinic
_symmetry_space_group_name_H-M   'P 21/a'
_symmetry_Int_Tables_number      14
_space_group_name_Hall           '-P 2yab'
loop_
_symmetry_equiv_pos_site_id
_symmetry_equiv_pos_as_xyz
1 x,y,z
2 1/2-x,1/2+y,-z
3 -x,-y,-z
4 1/2+x,1/2-y,z
_cell_length_a                   7.9463(3)
_cell_length_b                   13.3296(5)
_cell_length_c                   17.4073(8)
_cell_angle_alpha                90
_cell_angle_beta                 91.949(4)
_cell_angle_gamma                90
_cell_volume                     1842.73
loop_
_atom_site_label
_atom_site_type_symbol
_atom_site_fract_x
_atom_site_fract_y
_atom_site_fract_z
C1 C 0.1697(12) 0.8583(6) 0.7413(5)
C2 C 0.2087(10) 0.9660(6) 0.5646(5)
C3 C 0.1935(11) 0.9542(6) 0.4815(5)
H1 H 0.2181 1.0101 0.4519
C4 C 0.1470(10) 0.8699(7) 0.4433(6)
C5 C 0.1407(11) 0.8632(6) 0.3581(5)
C6 C 0.0624(12) 0.7810(7) 0.3228(6)
H2 H 0.0155 0.7315 0.3531
C7 C 0.0531(12) 0.7713(8) 0.2446(6)
H3 H 0.0018 0.7157 0.2216
C8 C 0.1219(14) 0.8465(9) 0.1999(6)
H4 H 0.1185 0.8395 0.1467
C9 C 0.1951(13) 0.9311(8) 0.2321(5)
H5 H 0.2379 0.9814 0.2013
C10 C 0.2033(13) 0.9393(7) 0.3122(6)
H6 H 0.2509 0.9961 0.3351
C11 C 0.2762(13) 1.0169(7) 0.8299(5)
H7 H 0.3767 1.0188 0.7998
H8 H 0.1899 1.0560 0.8028
C12 C 0.3141(12) 1.0639(6) 0.9070(6)
C13 C 0.1814(13) 1.0713(9) 0.9601(7)
H9 H 0.0736 1.0482 0.9473
C14 C 0.2194(15) 1.1151(8) 1.0330(7)
H10 H 0.1352 1.1192 1.0687
C15 C 0.3727(16) 1.1506(8) 1.0519(7)
H11 H 0.3940 1.1794 1.0999
C16 C 0.4992(15) 1.1442(7) 0.9997(7)
H12 H 0.6057 1.1687 1.0133
C17 C 0.4714(13) 1.1014(7) 0.9259(6)
H13 H 0.5574 1.0986 0.8911
C18 C 0.2784(11) 1.0654(6) 0.5943(5)
H14 H 0.2079 1.0906 0.6337
H15 H 0.2808 1.1128 0.5529
H16 H 0.3905 1.0556 0.6153
O1 O 0.0396(7) 0.6203(4) 0.5814(4)
O2 O -0.1524(7) 0.7838(5) 0.5843(3)
O3 O 0.1039(7) 0.7866(4) 0.4807(4)
S1 S 0.1052(3) 0.73609(16) 0.72149(13)
S2 S 0.2052(4) 0.88807(18) 0.83703(14)
Mo1 Mo 0.04846(8) 0.74787(5) 0.58489(4)
N1 N 0.2007(9) 0.9249(5) 0.6908(4)
N2 N 0.1639(8) 0.8967(5) 0.6142(4)
O2C O 0.3476(7) 0.7162(5) 0.5843(3)
Mo1C Mo -0.45154(8) 0.75213(5) 0.58489(4)
loop_
_geom_bond_atom_site_label_1
_geom_bond_atom_site_label_2
_geom_bond_site_symmetry_1
_geom_bond_site_symmetry_2
C1 S1 1_555 1_555
C2 C3 1_555 1_555
C3 H1 1_555 1_555
C4 C3 1_555 1_555
C5 C4 1_555 1_555
C6 C5 1_555 1_555
H2 C6 1_555 1_555
C7 C6 1_555 1_555
H3 C7 1_555 1_555
C8 C7 1_555 1_555
H4 C8 1_555 1_555
C9 C8 1_555 1_555
H5 C9 1_555 1_555
C10 C5 1_555 1_555
H6 C10 1_555 1_555
C11 H7 1_555 1_555
H8 C11 1_555 1_555
C12 C11 1_555 1_555
C13 C12 1_555 1_555
H9 C13 1_555 1_555
C14 C13 1_555 1_555
H10 C14 1_555 1_555
C15 C14 1_555 1_555
H11 C15 1_555 1_555
C16 C15 1_555 1_555
H12 C16 1_555 1_555
C17 C12 1_555 1_555
H13 C17 1_555 1_555
C18 C2 1_555 1_555
H14 C18 1_555 1_555
H15 C18 1_555 1_555
H16 C18 1_555 1_555
O1 Mo1 1_555 1_555
O2 Mo1 1_555 1_555
O3 C4 1_555 1_555
S1 Mo1 1_555 1_555
S2 C1 1_555 1_555
Mo1 O3 1_555 1_555
N1 C1 1_555 1_555
N2 C2 1_555 1_555
O2C Mo1 1_555 1_555
Mo1C O2 1_555 1_555
C9 C10 1_555 1_555
C11 S2 1_555 1_555
C16 C17 1_555 1_555
Mo1 N2 1_555 1_555
N1 N2 1_555 1_555

#END
