
#######################################################################
#
#                 Cambridge Crystallographic Data Centre
#                                CCDC 
#
#######################################################################
#
# If this CIF has been generated from an entry in the Cambridge 
# Structural Database, then it will include bibliographic, chemical, 
# crystal, experimental, refinement or atomic coordinate data resulting 
# from the CCDC's data processing and validation procedures.
#
#######################################################################

data_NELXUX
_symmetry_cell_setting           monoclinic
_symmetry_space_group_name_H-M   'P 21/n'
_symmetry_Int_Tables_number      14
_space_group_name_Hall           '-P 2yn'
loop_
_symmetry_equiv_pos_site_id
_symmetry_equiv_pos_as_xyz
1 x,y,z
2 1/2+x,1/2-y,1/2+z
3 -x,-y,-z
4 1/2-x,1/2+y,1/2-z
_cell_length_a                   8.4953(11)
_cell_length_b                   9.6732(13)
_cell_length_c                   14.0313(18)
_cell_angle_alpha                90
_cell_angle_beta                 90.412(2)
_cell_angle_gamma                90
_cell_volume                     1153.02
loop_
_atom_site_label
_atom_site_type_symbol
_atom_site_fract_x
_atom_site_fract_y
_atom_site_fract_z
Cd1 Cd 1.0000 -1.0000 0.5000
S1 S 0.35438(5) -0.13087(5) 0.35921(3)
O1 O 0.49140(18) -0.04613(17) 0.33978(12)
O2 O 0.24230(19) -0.05887(19) 0.41927(12)
O3 O 0.2836(2) -0.18948(17) 0.27392(11)
N1 N 0.8466(2) -1.0821(2) 0.37706(12)
H1 H 0.7446 -1.0828 0.3939
H2 H 0.8753 -1.1688 0.3618
N2 N 0.9906(2) -0.80954(18) 0.39618(13)
H3 H 0.9177 -1.1903 0.6370
C1 C 0.4244(2) -0.65516(19) 0.43470(13)
H4 H 0.3647 -0.6755 0.3807
C2 C 0.4535(2) -0.51510(17) 0.45915(13)
C3 C 0.3931(2) -0.40449(19) 0.40339(12)
H5 H 0.3313 -0.4229 0.3499
C4 C 0.4258(2) -0.27039(18) 0.42841(12)
C5 C 0.5172(2) -0.2391(2) 0.51066(13)
H6 H 0.5373 -0.1476 0.5273
C6 C 0.8705(3) -0.9889(3) 0.29573(17)
H7 H 0.9719 -1.0076 0.2671
H8 H 0.7895 -1.0054 0.2480
C7 C 0.8641(3) -0.8396(3) 0.32757(17)
H9 H 1.1257 -1.2204 0.7274
H10 H 1.2370 -1.1788 0.6433
C8 C 1.0253(4) -1.3285(3) 0.5615(2)
H11 H 1.0274 -1.3967 0.6112
H12 H 0.9376 -1.3459 0.5197
H13 H 1.1213 -1.3331 0.5260
C5B C 0.4828(2) -0.7609(2) 0.48934(13)
C4B C 0.5742(2) -0.72961(18) 0.57159(12)
S1B S 0.64562(5) -0.86913(5) 0.64079(3)
O1B O 0.50860(18) -0.95387(17) 0.66022(12)
O2B O 0.75770(19) -0.94113(19) 0.58073(12)
Cd1_2 Cd 0.0000 0.0000 0.5000
O2_2 O 1.24230(19) -1.05887(19) 0.41927(12)
N1B N 1.1534(2) -0.9179(2) 0.62294(12)
H1B H 1.2554 -0.9172 0.6061
H2B H 1.1247 -0.8312 0.6382
C6B C 1.1295(3) -1.0111(3) 0.70427(17)
H7B H 1.0281 -0.9924 0.7329
H8B H 1.2105 -0.9946 0.7520
C7B C 1.1359(3) -1.1604(3) 0.67243(17)
N2B N 1.0094(2) -1.19046(18) 0.60382(13)
H3B H 1.0823 -0.8097 0.3630
C8B C 0.9747(4) -0.6715(3) 0.4385(2)
H11B H 0.9726 -0.6033 0.3888
H12B H 1.0624 -0.6541 0.4803
H13B H 0.8787 -0.6669 0.4740
H9B H 0.8743 -0.7796 0.2726
H10B H 0.7630 -0.8212 0.3567
O3B O 0.7164(2) -0.81052(17) 0.72608(11)
C3B C 0.6069(2) -0.59551(19) 0.59661(12)
C2B C 0.5465(2) -0.48490(17) 0.54085(13)
C1B C 0.5756(2) -0.34484(19) 0.56530(13)
H4B H 0.6353 -0.3245 0.6193
H5B H 0.6687 -0.5771 0.6501
H6B H 0.4627 -0.8524 0.4727
O4 O 0.9944(2) 0.6643(2) 0.30008(14)
loop_
_geom_bond_atom_site_label_1
_geom_bond_atom_site_label_2
_geom_bond_site_symmetry_1
_geom_bond_site_symmetry_2
Cd1 N1 1_555 1_555
S1 O1 1_555 1_555
O2 S1 1_555 1_555
O3 S1 1_555 1_555
N1 H1 1_555 1_555
H2 N1 1_555 1_555
N2 Cd1 1_555 1_555
H3 N2B 1_555 1_555
C1 H4 1_555 1_555
C2 C1 1_555 1_555
C3 C2 1_555 1_555
H5 C3 1_555 1_555
C4 S1 1_555 1_555
C5 C4 1_555 1_555
H6 C5 1_555 1_555
C6 N1 1_555 1_555
H7 C6 1_555 1_555
H8 C6 1_555 1_555
C7 N2 1_555 1_555
H9 C7B 1_555 1_555
H10 C7B 1_555 1_555
C8 H11 1_555 1_555
H12 C8 1_555 1_555
H13 C8 1_555 1_555
C5B C1 1_555 1_555
C4B C5B 1_555 1_555
S1B C4B 1_555 1_555
O1B S1B 1_555 1_555
O2B Cd1 1_555 1_555
Cd1_2 O2 1_555 1_555
O2_2 Cd1 1_555 1_555
N1B Cd1 1_555 1_555
H1B N1B 1_555 1_555
H2B N1B 1_555 1_555
C6B N1B 1_555 1_555
H7B C6B 1_555 1_555
H8B C6B 1_555 1_555
C7B C6B 1_555 1_555
N2B Cd1 1_555 1_555
H3B N2 1_555 1_555
C8B N2 1_555 1_555
H11B C8B 1_555 1_555
H12B C8B 1_555 1_555
H13B C8B 1_555 1_555
H9B C7 1_555 1_555
H10B C7 1_555 1_555
O3B S1B 1_555 1_555
C3B C4B 1_555 1_555
C2B C2 1_555 1_555
C1B C5 1_555 1_555
H4B C1B 1_555 1_555
H5B C3B 1_555 1_555
H6B C5B 1_555 1_555
C3 C4 1_555 1_555
C6 C7 1_555 1_555
C8 N2B 1_555 1_555
S1B O2B 1_555 1_555
C7B N2B 1_555 1_555
C3B C2B 1_555 1_555
C2B C1B 1_555 1_555

#END
