
#######################################################################
#
#                 Cambridge Crystallographic Data Centre
#                                CCDC 
#
#######################################################################
#
# If this CIF has been generated from an entry in the Cambridge 
# Structural Database, then it will include bibliographic, chemical, 
# crystal, experimental, refinement or atomic coordinate data resulting 
# from the CCDC's data processing and validation procedures.
#
#######################################################################

data_NELXIL
_symmetry_cell_setting           triclinic
_symmetry_space_group_name_H-M   'P -1'
_symmetry_Int_Tables_number      2
_space_group_name_Hall           '-P 1'
loop_
_symmetry_equiv_pos_site_id
_symmetry_equiv_pos_as_xyz
1 x,y,z
2 -x,-y,-z
_cell_length_a                   8.4306(14)
_cell_length_b                   8.5243(14)
_cell_length_c                   8.5607(14)
_cell_angle_alpha                87.652(3)
_cell_angle_beta                 67.476(2)
_cell_angle_gamma                88.910(3)
_cell_volume                     567.805
loop_
_atom_site_label
_atom_site_type_symbol
_atom_site_fract_x
_atom_site_fract_y
_atom_site_fract_z
Cd1 Cd 0.5000 1.0000 0.5000
S1 S 0.75686(8) 0.81217(7) 0.71305(8)
N1 N 0.2832(3) 0.8169(3) 0.6512(3)
H1 H 0.1921 0.8379 0.6214
N2 N 0.3721(3) 1.1117(3) 0.7669(3)
H2 H 0.4397 1.0892 0.8261
O1 O 0.9019(3) 0.8994(2) 0.7152(3)
O2 O 0.7079(3) 0.8628(3) 0.5727(3)
O3 O 0.6123(3) 0.8054(3) 0.8737(3)
C1 C 0.8049(4) 0.3403(3) 0.7537(3)
H3 H 0.7482 0.2617 0.8330
C2 C 0.7501(3) 0.4974(3) 0.7837(3)
H4 H 0.6585 0.5217 0.8827
C3 C 0.8311(3) 0.6142(3) 0.6676(3)
C4 C 0.9726(3) 0.5801(3) 0.5139(3)
C5 C 0.9396(3) 0.3016(3) 0.6102(3)
H5 H 0.9745 0.1974 0.5932
C6 C 0.3184(5) 0.6492(4) 0.6330(6)
H6 H 0.2177 0.5915 0.7024
H7 H 0.4112 0.6220 0.6679
H8 H 0.3495 0.6237 0.5168
C7 C 0.2298(4) 0.8543(4) 0.8306(4)
H9 H 0.3159 0.8164 0.8725
H10 H 0.1225 0.8018 0.8964
C8 C 0.2072(4) 1.0277(4) 0.8521(4)
H11 H 0.1252 1.0662 0.8051
H12 H 0.1614 1.0491 0.9717
C9 C 0.3401(5) 1.2811(4) 0.7706(5)
H13 H 0.2880 1.3120 0.8859
H14 H 0.2645 1.3067 0.7132
H15 H 0.4468 1.3356 0.7150
N1A N 0.7168(3) 1.1831(3) 0.3488(3)
H1A H 0.8079 1.1621 0.3786
C6A C 0.6816(5) 1.3508(4) 0.3670(6)
H6A H 0.7823 1.4085 0.2976
H7A H 0.5888 1.3780 0.3321
H8A H 0.6505 1.3763 0.4832
C7A C 0.7702(4) 1.1457(4) 0.1694(4)
H9A H 0.6841 1.1836 0.1275
H10A H 0.8775 1.1982 0.1036
C8A C 0.7928(4) 0.9723(4) 0.1479(4)
N2A N 0.6279(3) 0.8883(3) 0.2331(3)
C4A C 1.0274(3) 0.4199(3) 0.4861(3)
C3A C 1.1689(3) 0.3858(3) 0.3324(3)
S1A S 1.24314(8) 0.18783(7) 0.28695(8)
O1A O 1.0981(3) 0.1006(2) 0.2848(3)
O2A O 1.2921(3) 0.1372(3) 0.4273(3)
Cd1A Cd 1.5000 0.0000 0.5000
O3A O 1.3877(3) 0.1946(3) 0.1263(3)
C2A C 1.2499(3) 0.5026(3) 0.2163(3)
C1A C 1.1951(4) 0.6597(3) 0.2463(3)
H3A H 1.2518 0.7383 0.1670
C5A C 1.0604(3) 0.6984(3) 0.3898(3)
H5A H 1.0255 0.8026 0.4068
H4A H 1.3415 0.4783 0.1173
O2A_2 O 0.2921(3) 1.1372(3) 0.4273(3)
H2A H 0.5603 0.9108 0.1739
C9A C 0.6599(5) 0.7189(4) 0.2294(5)
H13A H 0.7120 0.6880 0.1141
H14A H 0.7355 0.6933 0.2868
H15A H 0.5532 0.6644 0.2850
H11A H 0.8748 0.9338 0.1949
H12A H 0.8386 0.9509 0.0283
loop_
_geom_bond_atom_site_label_1
_geom_bond_atom_site_label_2
_geom_bond_site_symmetry_1
_geom_bond_site_symmetry_2
Cd1 N1 1_555 1_555
S1 O1 1_555 1_555
N1 H1 1_555 1_555
N2 Cd1 1_555 1_555
H2 N2 1_555 1_555
O2 Cd1 1_555 1_555
O3 S1 1_555 1_555
C1 H3 1_555 1_555
C2 C1 1_555 1_555
H4 C2 1_555 1_555
C3 S1 1_555 1_555
C4 C3 1_555 1_555
C5 C1 1_555 1_555
H5 C5 1_555 1_555
C6 N1 1_555 1_555
H6 C6 1_555 1_555
H7 C6 1_555 1_555
H8 C6 1_555 1_555
C7 N1 1_555 1_555
H9 C7 1_555 1_555
H10 C7 1_555 1_555
C8 N2 1_555 1_555
H11 C8 1_555 1_555
H12 C8 1_555 1_555
C9 N2 1_555 1_555
H13 C9 1_555 1_555
H14 C9 1_555 1_555
H15 C9 1_555 1_555
N1A Cd1 1_555 1_555
H1A N1A 1_555 1_555
C6A N1A 1_555 1_555
H6A C6A 1_555 1_555
H7A C6A 1_555 1_555
H8A C6A 1_555 1_555
C7A N1A 1_555 1_555
H9A C7A 1_555 1_555
H10A C7A 1_555 1_555
C8A C7A 1_555 1_555
N2A Cd1 1_555 1_555
C4A C4 1_555 1_555
C3A C4A 1_555 1_555
S1A C3A 1_555 1_555
O1A S1A 1_555 1_555
O2A S1A 1_555 1_555
Cd1A O2A 1_555 1_555
O3A S1A 1_555 1_555
C2A C3A 1_555 1_555
C1A C2A 1_555 1_555
H3A C1A 1_555 1_555
C5A C4 1_555 1_555
H5A C5A 1_555 1_555
H4A C2A 1_555 1_555
O2A_2 Cd1 1_555 1_555
H2A N2A 1_555 1_555
C9A N2A 1_555 1_555
H13A C9A 1_555 1_555
H14A C9A 1_555 1_555
H15A C9A 1_555 1_555
H11A C8A 1_555 1_555
H12A C8A 1_555 1_555
S1 O2 1_555 1_555
C2 C3 1_555 1_555
C5 C4A 1_555 1_555
C7 C8 1_555 1_555
C8A N2A 1_555 1_555
C1A C5A 1_555 1_555

#END
