
#######################################################################
#
#                 Cambridge Crystallographic Data Centre
#                                CCDC 
#
#######################################################################
#
# If this CIF has been generated from an entry in the Cambridge 
# Structural Database, then it will include bibliographic, chemical, 
# crystal, experimental, refinement or atomic coordinate data resulting 
# from the CCDC's data processing and validation procedures.
#
#######################################################################

data_NELXOR
_symmetry_cell_setting           triclinic
_symmetry_space_group_name_H-M   'P -1'
_symmetry_Int_Tables_number      2
_space_group_name_Hall           '-P 1'
loop_
_symmetry_equiv_pos_site_id
_symmetry_equiv_pos_as_xyz
1 x,y,z
2 -x,-y,-z
_cell_length_a                   7.6031(10)
_cell_length_b                   9.0127(12)
_cell_length_c                   9.5933(13)
_cell_angle_alpha                73.237(2)
_cell_angle_beta                 84.119(2)
_cell_angle_gamma                72.192(2)
_cell_volume                     599.209
loop_
_atom_site_label
_atom_site_type_symbol
_atom_site_fract_x
_atom_site_fract_y
_atom_site_fract_z
Cd1 Cd 0.5000 0.0000 0.0000
S1 S -0.02648(6) 0.83448(6) 0.88331(5)
O1 O -0.1965(2) 0.8278(2) 0.96798(19)
O2 O -0.0295(3) 0.9974(2) 0.7981(2)
O3 O 0.1378(2) 0.7502(2) 0.97066(19)
N1 N 0.6231(3) -0.0005(3) 0.2112(2)
H1 H 0.7417 0.0017 0.1893
N2 N 0.4274(3) -0.2217(2) 0.1690(2)
H2 H 0.6958 0.2061 -0.1621
C1 C -0.0189(3) 0.7239(2) 0.7552(2)
C2 C -0.0702(3) 0.5817(3) 0.7975(2)
H3 H -0.1102 0.5450 0.8925
C3 C -0.0616(3) 0.4949(3) 0.6980(2)
H4 H -0.0956 0.3997 0.7280
C4 C -0.0033(3) 0.5463(2) 0.5536(2)
C5 C 0.0472(3) 0.6893(3) 0.5143(2)
H5 H 0.0863 0.7271 0.4191
C6 C 0.0404(3) 0.7768(3) 0.6138(2)
H6 H 0.0760 0.8713 0.5850
C7 C 0.5355(4) 0.1318(4) 0.2767(4)
H7 H 0.6009 0.1164 0.3627
H8 H 0.5384 0.2327 0.2085
H9 H 0.4096 0.1335 0.3023
C8 C 0.6326(4) -0.1609(4) 0.3116(3)
H10 H 0.7351 -0.2419 0.2829
H11 H 0.6552 -0.1608 0.4093
C9 C 0.4567(4) -0.2043(4) 0.3118(3)
H12 H 0.5374 0.3051 -0.3857
H13 H 0.6468 0.1205 -0.3357
C10 C 0.4774(4) 0.3827(3) -0.1507(4)
H14 H 0.5176 0.4626 -0.2257
H15 H 0.3465 0.4034 -0.1571
H16 H 0.5056 0.3877 -0.0572
C4A C 0.0033(3) 0.4537(2) 0.4464(2)
C3A C 0.0616(3) 0.5051(3) 0.3020(2)
C2A C 0.0702(3) 0.4183(3) 0.2025(2)
C1A C 0.0189(3) 0.2761(2) 0.2448(2)
S1A S 0.02648(6) 0.16552(6) 0.11669(5)
O1A O 0.1965(2) 0.1722(2) 0.03202(19)
Cd1_2 Cd -0.5000 1.0000 1.0000
O1_2 O 0.8035(2) -0.1722(2) -0.03202(19)
N1A N 0.3769(3) 0.0005(3) -0.2112(2)
H1A H 0.2583 -0.0017 -0.1893
C7A C 0.4645(4) -0.1318(4) -0.2767(4)
H7A H 0.3991 -0.1164 -0.3627
H8A H 0.4616 -0.2327 -0.2085
H9A H 0.5904 -0.1335 -0.3023
C8A C 0.3674(4) 0.1609(4) -0.3116(3)
H10A H 0.2649 0.2419 -0.2829
H11A H 0.3448 0.1608 -0.4093
C9A C 0.5433(4) 0.2043(4) -0.3118(3)
N2A N 0.5726(3) 0.2217(2) -0.1690(2)
H2A H 0.3042 -0.2061 0.1621
C10A C 0.5226(4) -0.3827(3) 0.1507(4)
H14A H 0.4824 -0.4626 0.2257
H15A H 0.6535 -0.4034 0.1571
H16A H 0.4944 -0.3877 0.0572
H12A H 0.4626 -0.3051 0.3857
H13A H 0.3532 -0.1205 0.3357
O2A O 0.0295(3) 0.0026(2) 0.2019(2)
O3A O -0.1378(2) 0.2498(2) 0.02934(19)
C6A C -0.0404(3) 0.2232(3) 0.3862(2)
C5A C -0.0472(3) 0.3107(3) 0.4857(2)
H5A H -0.0863 0.2729 0.5809
H6A H -0.0760 0.1287 0.4150
H3A H 0.1102 0.4550 0.1075
H4A H 0.0956 0.6003 0.2720
loop_
_geom_bond_atom_site_label_1
_geom_bond_atom_site_label_2
_geom_bond_site_symmetry_1
_geom_bond_site_symmetry_2
Cd1 N1 1_555 1_555
S1 O1 1_555 1_555
O1 Cd1_2 1_555 1_555
O2 S1 1_555 1_555
O3 S1 1_555 1_555
N1 H1 1_555 1_555
N2 Cd1 1_555 1_555
H2 N2A 1_555 1_555
C1 S1 1_555 1_555
C2 C1 1_555 1_555
H3 C2 1_555 1_555
C3 C2 1_555 1_555
H4 C3 1_555 1_555
C4 C3 1_555 1_555
C5 C4 1_555 1_555
H5 C5 1_555 1_555
C6 C1 1_555 1_555
H6 C6 1_555 1_555
C7 N1 1_555 1_555
H7 C7 1_555 1_555
H8 C7 1_555 1_555
H9 C7 1_555 1_555
C8 N1 1_555 1_555
H10 C8 1_555 1_555
H11 C8 1_555 1_555
C9 N2 1_555 1_555
H12 C9A 1_555 1_555
H13 C9A 1_555 1_555
C10 H14 1_555 1_555
H15 C10 1_555 1_555
H16 C10 1_555 1_555
C4A C4 1_555 1_555
C3A C4A 1_555 1_555
C2A C3A 1_555 1_555
C1A C2A 1_555 1_555
S1A C1A 1_555 1_555
O1A Cd1 1_555 1_555
O1_2 Cd1 1_555 1_555
N1A Cd1 1_555 1_555
H1A N1A 1_555 1_555
C7A N1A 1_555 1_555
H7A C7A 1_555 1_555
H8A C7A 1_555 1_555
H9A C7A 1_555 1_555
C8A N1A 1_555 1_555
H10A C8A 1_555 1_555
H11A C8A 1_555 1_555
C9A C8A 1_555 1_555
N2A Cd1 1_555 1_555
H2A N2 1_555 1_555
C10A N2 1_555 1_555
H14A C10A 1_555 1_555
H15A C10A 1_555 1_555
H16A C10A 1_555 1_555
H12A C9 1_555 1_555
H13A C9 1_555 1_555
O2A S1A 1_555 1_555
O3A S1A 1_555 1_555
C6A C1A 1_555 1_555
C5A C4A 1_555 1_555
H5A C5A 1_555 1_555
H6A C6A 1_555 1_555
H3A C2A 1_555 1_555
H4A C3A 1_555 1_555
C5 C6 1_555 1_555
C8 C9 1_555 1_555
C10 N2A 1_555 1_555
S1A O1A 1_555 1_555
C9A N2A 1_555 1_555
C6A C5A 1_555 1_555

#END
