
#######################################################################
#
#                 Cambridge Crystallographic Data Centre
#                                CCDC 
#
#######################################################################
#
# If this CIF has been generated from an entry in the Cambridge 
# Structural Database, then it will include bibliographic, chemical, 
# crystal, experimental, refinement or atomic coordinate data resulting 
# from the CCDC's data processing and validation procedures.
#
#######################################################################

data_NEMJOF
_symmetry_cell_setting           orthorhombic
_symmetry_space_group_name_H-M   'F d d 2'
_symmetry_Int_Tables_number      43
_space_group_name_Hall           'F 2 -2d'
loop_
_symmetry_equiv_pos_site_id
_symmetry_equiv_pos_as_xyz
1 x,y,z
2 -x,-y,z
3 1/4-x,1/4+y,1/4+z
4 1/4+x,1/4-y,1/4+z
5 x,1/2+y,1/2+z
6 -x,1/2-y,1/2+z
7 1/4-x,3/4+y,3/4+z
8 1/4+x,3/4-y,3/4+z
9 1/2+x,y,1/2+z
10 1/2-x,-y,1/2+z
11 3/4-x,1/4+y,3/4+z
12 3/4+x,1/4-y,3/4+z
13 1/2+x,1/2+y,z
14 1/2-x,1/2-y,z
15 3/4-x,3/4+y,1/4+z
16 3/4+x,3/4-y,1/4+z
_cell_length_a                   18.230(2)
_cell_length_b                   9.8294(11)
_cell_length_c                   15.8794(17)
_cell_angle_alpha                90
_cell_angle_beta                 90
_cell_angle_gamma                90
_cell_volume                     2845.43
loop_
_atom_site_label
_atom_site_type_symbol
_atom_site_fract_x
_atom_site_fract_y
_atom_site_fract_z
Zn1 Zn 0.0000 0.0000 0.089109(11)
Cl1 Cl -0.076681(19) 0.13264(4) 0.16057(2)
N1 N 0.06024(7) 0.11094(13) 0.00510(8)
C1 C 0.02785(8) 0.21473(14) -0.03479(9)
H1 H -0.0198 0.2424 -0.0176
C2 C 0.12718(9) 0.06985(15) -0.01977(10)
H2 H 0.1504 -0.0030 0.0092
O1 O 0.0000 0.5000 -0.01622(9)
N2 N 0.02696(7) 0.39422(12) -0.14033(7)
H3 H 0.0223 0.3956 -0.1955
C3 C 0.0000 0.5000 -0.09301(13)
C4 C 0.06207(7) 0.28351(14) -0.10088(9)
C5 C 0.16299(9) 0.13096(18) -0.08636(14)
H4 H 0.2098 0.0990 -0.1036
C6 C 0.13030(9) 0.23905(15) -0.12789(11)
H5 H 0.1542 0.2819 -0.1740
Zn1_2 Zn 0.0000 1.0000 0.089109(11)
Cl1A Cl 0.076681(19) -0.13264(4) 0.16057(2)
N1A N -0.06024(7) 0.88906(13) 0.00510(8)
N1A_2 N -0.06024(7) -0.11094(13) 0.00510(8)
C1A C -0.02785(8) 0.78527(14) -0.03479(9)
H1A H 0.0198 0.7576 -0.0176
C2A C -0.12718(9) 0.93015(15) -0.01977(10)
H2A H -0.1504 1.0030 0.0092
N2A N -0.02696(7) 0.60578(12) -0.14033(7)
H3A H -0.0223 0.6044 -0.1955
C4A C -0.06207(7) 0.71649(14) -0.10088(9)
C5A C -0.16299(9) 0.86904(18) -0.08636(14)
H4A H -0.2098 0.9010 -0.1036
C6A C -0.13030(9) 0.76095(15) -0.12789(11)
H5A H -0.1542 0.7181 -0.1740
loop_
_geom_bond_atom_site_label_1
_geom_bond_atom_site_label_2
_geom_bond_site_symmetry_1
_geom_bond_site_symmetry_2
Zn1 Cl1 1_555 1_555
N1 Zn1 1_555 1_555
C1 N1 1_555 1_555
H1 C1 1_555 1_555
C2 N1 1_555 1_555
H2 C2 1_555 1_555
O1 C3 1_555 1_555
N2 H3 1_555 1_555
C3 N2 1_555 1_555
C4 C1 1_555 1_555
C5 C2 1_555 1_555
H4 C5 1_555 1_555
C6 C4 1_555 1_555
H5 C6 1_555 1_555
Zn1_2 N1A 1_555 1_555
Cl1A Zn1 1_555 1_555
N1A C1A 1_555 1_555
N1A_2 Zn1 1_555 1_555
C1A H1A 1_555 1_555
C2A N1A 1_555 1_555
H2A C2A 1_555 1_555
N2A C3 1_555 1_555
H3A N2A 1_555 1_555
C4A C1A 1_555 1_555
C5A C2A 1_555 1_555
H4A C5A 1_555 1_555
C6A C4A 1_555 1_555
H5A C6A 1_555 1_555
N2 C4 1_555 1_555
C5 C6 1_555 1_555
N2A C4A 1_555 1_555
C5A C6A 1_555 1_555

#END
