
#######################################################################
#
#                 Cambridge Crystallographic Data Centre
#                                CCDC 
#
#######################################################################
#
# If this CIF has been generated from an entry in the Cambridge 
# Structural Database, then it will include bibliographic, chemical, 
# crystal, experimental, refinement or atomic coordinate data resulting 
# from the CCDC's data processing and validation procedures.
#
#######################################################################

data_NEMKIZ
_symmetry_cell_setting           triclinic
_symmetry_space_group_name_H-M   'P -1'
_symmetry_Int_Tables_number      2
_space_group_name_Hall           '-P 1'
loop_
_symmetry_equiv_pos_site_id
_symmetry_equiv_pos_as_xyz
1 x,y,z
2 -x,-y,-z
_cell_length_a                   5.6871(9)
_cell_length_b                   5.8940(13)
_cell_length_c                   14.1924(13)
_cell_angle_alpha                83.237(12)
_cell_angle_beta                 82.716(10)
_cell_angle_gamma                73.564(16)
_cell_volume                     450.924
loop_
_atom_site_label
_atom_site_type_symbol
_atom_site_fract_x
_atom_site_fract_y
_atom_site_fract_z
I1 I 0.5000 0.5000 0.0000
Rb1 Rb 0.5000 0.5000 0.5000
O1 O 0.8295(6) 0.5911(6) 0.3408(2)
N1 N 0.9537(4) 0.9509(4) 0.20220(18)
C1 C 1.1382(6) 0.7669(6) 0.2573(2)
H1 H 1.2128 0.8492 0.2952
H2 H 1.2675 0.6857 0.2117
C2 C 1.0495(7) 0.5778(6) 0.3238(2)
C3 C 0.8381(6) 0.8344(6) 0.1393(2)
H3 H 0.9644 0.7390 0.0977
H4 H 0.7274 0.9540 0.1018
H5 H 0.7486 0.7356 0.1780
C4 C 1.0917(7) 1.1067(6) 0.1403(3)
H6 H 0.9795 1.2247 0.1028
H7 H 1.2182 1.0113 0.0989
H8 H 1.1652 1.1835 0.1799
C5 C 0.7563(7) 1.1018(7) 0.2656(3)
H9 H 0.8297 1.1753 0.3065
H10 H 0.6636 1.0049 0.3037
H11 H 0.6485 1.2223 0.2273
O2 O 0.7540(10) -0.0157(7) 0.5355(3)
H12 H 0.775(16) -0.151(8) 0.570(5)
H13 H 0.908(5) -0.089(13) 0.528(7)
O3 O 1.2249(6) 0.4163(5) 0.3534(2)
O1A O 0.1705(6) 0.4089(6) 0.6592(2)
N1A N 0.0463(4) 0.0491(4) 0.79780(18)
C1A C -0.1382(6) 0.2331(6) 0.7427(2)
H1A H -0.2128 0.1508 0.7048
H2A H -0.2675 0.3143 0.7883
C2A C -0.0495(7) 0.4222(6) 0.6762(2)
C3A C 0.1619(6) 0.1656(6) 0.8607(2)
H3A H 0.0356 0.2610 0.9023
H4A H 0.2726 0.0460 0.8982
H5A H 0.2514 0.2644 0.8220
C4A C -0.0917(7) -0.1067(6) 0.8597(3)
H6A H 0.0205 -0.2247 0.8972
H7A H -0.2182 -0.0113 0.9011
H8A H -0.1652 -0.1835 0.8201
C5A C 0.2437(7) -0.1018(7) 0.7344(3)
H9A H 0.1703 -0.1753 0.6935
H10A H 0.3364 -0.0049 0.6963
H11A H 0.3515 -0.2223 0.7727
O3A O -0.2249(6) 0.5837(5) 0.6466(2)
O2A O 0.2460(10) 1.0157(7) 0.4645(3)
H12A H 0.225(16) 1.151(8) 0.430(5)
H13A H 0.092(5) 1.089(13) 0.472(7)
O3_2 O 0.2249(6) 0.4163(5) 0.3534(2)
O3A_2 O 0.7751(6) 0.5837(5) 0.6466(2)
Rb1_2 Rb 1.5000 0.5000 0.5000
Rb1_3 Rb -0.5000 0.5000 0.5000
loop_
_geom_bond_atom_site_label_1
_geom_bond_atom_site_label_2
_geom_bond_site_symmetry_1
_geom_bond_site_symmetry_2
Rb1 O1 1_555 1_555
O1 C2 1_555 1_555
N1 C1 1_555 1_555
C1 H1 1_555 1_555
H2 C1 1_555 1_555
C2 C1 1_555 1_555
C3 N1 1_555 1_555
H3 C3 1_555 1_555
H4 C3 1_555 1_555
H5 C3 1_555 1_555
C4 N1 1_555 1_555
H6 C4 1_555 1_555
H7 C4 1_555 1_555
H8 C4 1_555 1_555
C5 N1 1_555 1_555
H9 C5 1_555 1_555
H10 C5 1_555 1_555
H11 C5 1_555 1_555
O2 Rb1 1_555 1_555
H12 O2 1_555 1_555
H13 O2 1_555 1_555
O3 C2 1_555 1_555
O1A Rb1 1_555 1_555
N1A C1A 1_555 1_555
C1A H1A 1_555 1_555
H2A C1A 1_555 1_555
C2A O1A 1_555 1_555
C3A N1A 1_555 1_555
H3A C3A 1_555 1_555
H4A C3A 1_555 1_555
H5A C3A 1_555 1_555
C4A N1A 1_555 1_555
H6A C4A 1_555 1_555
H7A C4A 1_555 1_555
H8A C4A 1_555 1_555
C5A N1A 1_555 1_555
H9A C5A 1_555 1_555
H10A C5A 1_555 1_555
H11A C5A 1_555 1_555
O3A C2A 1_555 1_555
O2A Rb1 1_555 1_555
H12A O2A 1_555 1_555
H13A O2A 1_555 1_555
O3_2 Rb1 1_555 1_555
O3A_2 Rb1 1_555 1_555
Rb1_2 O3 1_555 1_555
Rb1_3 O3A 1_555 1_555
C1A C2A 1_555 1_555

#END
