
#######################################################################
#
#                 Cambridge Crystallographic Data Centre
#                                CCDC 
#
#######################################################################
#
# If this CIF has been generated from an entry in the Cambridge 
# Structural Database, then it will include bibliographic, chemical, 
# crystal, experimental, refinement or atomic coordinate data resulting 
# from the CCDC's data processing and validation procedures.
#
#######################################################################

data_NEMNUO
_symmetry_cell_setting           monoclinic
_symmetry_space_group_name_H-M   'P 2/c'
_symmetry_Int_Tables_number      13
_space_group_name_Hall           '-P 2yc'
loop_
_symmetry_equiv_pos_site_id
_symmetry_equiv_pos_as_xyz
1 x,y,z
2 -x,y,1/2-z
3 -x,-y,-z
4 x,-y,1/2+z
_cell_length_a                   21.242(2)
_cell_length_b                   4.7550(10)
_cell_length_c                   9.3660(10)
_cell_angle_alpha                90
_cell_angle_beta                 93.1320(10)
_cell_angle_gamma                90
_cell_volume                     944.606
loop_
_atom_site_label
_atom_site_type_symbol
_atom_site_fract_x
_atom_site_fract_y
_atom_site_fract_z
Zn1 Zn 0.73993(2) 0.53454(10) 0.18452(5)
O1 O 0.76233(15) 0.5126(7) -0.0156(3)
O2 O 0.81631(14) 0.5844(7) -0.2048(3)
O3 O 0.71849(14) 0.9335(6) 0.1993(4)
O4 O 0.66471(14) 1.3211(6) 0.2252(4)
C1 C 0.8100(2) 0.6066(9) -0.0723(4)
C2 C 0.8618(2) 0.7465(13) 0.0169(5)
C3 C 0.9185(2) 0.8385(14) -0.0605(5)
C4 C 0.9708(2) 0.9576(14) 0.0400(6)
C5 C 0.67185(19) 1.0592(9) 0.2455(5)
C6 C 0.6237(2) 0.9041(9) 0.3265(5)
C7 C 0.5745(2) 1.0861(10) 0.3937(5)
C8 C 0.5250(2) 0.9103(10) 0.4660(5)
H1 H 0.8376 0.9118 0.0582
H2 H 0.8664 0.6026 0.0908
H3 H 0.9333 0.6738 -0.1213
H4 H 0.9051 0.9845 -0.1350
H5 H 0.9879 0.7695 0.0984
H6 H 0.9615 1.1225 0.1115
H7 H 0.6017 0.7617 0.2553
H8 H 0.6486 0.7760 0.4001
H9 H 0.5992 1.1935 0.4796
H10 H 0.5589 1.2321 0.3230
H11 H 0.5476 0.8352 0.5458
H12 H 0.4999 0.7845 0.3739
C4B C 1.0292(2) 1.0424(14) -0.0400(6)
C3B C 1.0815(2) 1.1615(14) 0.0605(5)
C2B C 1.1382(2) 1.2535(13) -0.0169(5)
C1B C 1.1900(2) 1.3934(9) 0.0723(4)
O1B O 1.23767(15) 1.4874(7) 0.0156(3)
O2B O 1.18369(14) 1.4156(7) 0.2048(3)
H1B H 1.1624 1.0882 -0.0582
H2B H 1.1336 1.3974 -0.0908
H3B H 1.0667 1.3262 0.1213
H4B H 1.0949 1.0155 0.1350
H5B H 1.0121 1.2305 -0.0984
H6B H 1.0385 0.8775 -0.1115
C8B C 0.4750(2) 1.0897(10) 0.5340(5)
C7B C 0.4255(2) 0.9139(10) 0.6063(5)
C6B C 0.3763(2) 1.0959(9) 0.6735(5)
C5B C 0.32815(19) 0.9408(9) 0.7545(5)
O3B O 0.28151(14) 1.0665(6) 0.8007(4)
O4B O 0.33529(14) 0.6789(6) 0.7748(4)
H7B H 0.3983 1.2383 0.7447
H8B H 0.3514 1.2240 0.5999
H9B H 0.4008 0.8065 0.5204
H10B H 0.4411 0.7679 0.6770
H11B H 0.4524 1.1648 0.4542
H12B H 0.5001 1.2155 0.6261
Zn1B Zn 1.26007(2) 1.46546(10) -0.18452(5)
O2C O 0.81631(14) 0.4156(7) 0.2952(3)
O4_2 O 0.66471(14) 0.3211(6) 0.2252(4)
Zn1C Zn 0.73993(2) 0.46546(10) -0.31548(5)
Zn1_2 Zn 0.73993(2) 1.53454(10) 0.18452(5)
Zn1A Zn 1.26007(2) 1.53454(10) 0.31548(5)
Zn1B_2 Zn 0.26007(2) 1.46546(10) 0.81548(5)
Zn1B_3 Zn 0.26007(2) 0.46546(10) 0.81548(5)
O2A O 1.18369(14) 1.5844(7) -0.2952(3)
O3B_2 O 1.28151(14) 1.0665(6) -0.1993(4)
O4B_2 O 1.33529(14) 1.6789(6) -0.2252(4)
loop_
_geom_bond_atom_site_label_1
_geom_bond_atom_site_label_2
_geom_bond_site_symmetry_1
_geom_bond_site_symmetry_2
Zn1 O1 1_555 1_555
O1 C1 1_555 1_555
O2 C1 1_555 1_555
O3 Zn1 1_555 1_555
O4 C5 1_555 1_555
C1 C2 1_555 1_555
C2 C3 1_555 1_555
C3 C4 1_555 1_555
C4 H5 1_555 1_555
C5 O3 1_555 1_555
C6 C5 1_555 1_555
C7 C6 1_555 1_555
C8 C7 1_555 1_555
H1 C2 1_555 1_555
H2 C2 1_555 1_555
H3 C3 1_555 1_555
H4 C3 1_555 1_555
H6 C4 1_555 1_555
H7 C6 1_555 1_555
H8 C6 1_555 1_555
H9 C7 1_555 1_555
H10 C7 1_555 1_555
H11 C8 1_555 1_555
H12 C8 1_555 1_555
C4B C4 1_555 1_555
C3B C4B 1_555 1_555
C2B C3B 1_555 1_555
C1B C2B 1_555 1_555
O1B C1B 1_555 1_555
O2B C1B 1_555 1_555
H1B C2B 1_555 1_555
H2B C2B 1_555 1_555
H3B C3B 1_555 1_555
H4B C3B 1_555 1_555
H5B C4B 1_555 1_555
H6B C4B 1_555 1_555
C8B C8 1_555 1_555
C7B C8B 1_555 1_555
C6B C7B 1_555 1_555
C5B C6B 1_555 1_555
O3B C5B 1_555 1_555
O4B C5B 1_555 1_555
H7B C6B 1_555 1_555
H8B C6B 1_555 1_555
H9B C7B 1_555 1_555
H10B C7B 1_555 1_555
H11B C8B 1_555 1_555
H12B C8B 1_555 1_555
Zn1B O1B 1_555 1_555
O2C Zn1 1_555 1_555
O4_2 Zn1 1_555 1_555
Zn1C O2 1_555 1_555
Zn1_2 O4 1_555 1_555
Zn1A O2B 1_555 1_555
Zn1B_2 O3B 1_555 1_555
Zn1B_3 O4B 1_555 1_555
O2A Zn1B 1_555 1_555
O3B_2 Zn1B 1_555 1_555
O4B_2 Zn1B 1_555 1_555

#END
