
#######################################################################
#
#                 Cambridge Crystallographic Data Centre
#                                CCDC 
#
#######################################################################
#
# If this CIF has been generated from an entry in the Cambridge 
# Structural Database, then it will include bibliographic, chemical, 
# crystal, experimental, refinement or atomic coordinate data resulting 
# from the CCDC's data processing and validation procedures.
#
#######################################################################

data_NEMNOI01
_symmetry_cell_setting           triclinic
_symmetry_space_group_name_H-M   'P -1'
_symmetry_Int_Tables_number      2
_space_group_name_Hall           '-P 1'
loop_
_symmetry_equiv_pos_site_id
_symmetry_equiv_pos_as_xyz
1 x,y,z
2 -x,-y,-z
_cell_length_a                   4.8406(3)
_cell_length_b                   8.3305(5)
_cell_length_c                   17.2399(10)
_cell_angle_alpha                100.514(4)
_cell_angle_beta                 96.251(4)
_cell_angle_gamma                98.453(4)
_cell_volume                     669.48
loop_
_atom_site_label
_atom_site_type_symbol
_atom_site_fract_x
_atom_site_fract_y
_atom_site_fract_z
Mn1 Mn 1.21685(9) 0.30876(6) 0.12678(3)
O1 O 1.0034(4) 0.3401(3) 0.23067(12)
O2 O 1.3466(5) 0.3229(3) 0.00988(14)
H1 H 1.261(8) 0.382(4) -0.014(2)
H2 H 1.438(8) 0.276(5) -0.024(2)
O3 O 0.6249(4) 0.4398(3) 0.18883(12)
O4 O 0.8559(5) 0.1260(3) 0.06188(14)
H3 H 0.702(5) 0.116(5) 0.0809(19)
H4 H 0.807(7) 0.127(5) 0.0142(12)
O5 O 0.6749(5) 0.1837(3) 0.90045(14)
O6 O 1.0175(5) 0.5181(3) 0.09577(13)
H5 H 1.113(7) 0.612(3) 0.108(2)
H6 H 0.899(6) 0.513(4) 0.1265(19)
O7 O 0.6009(4) -0.0887(3) 0.86226(13)
C1 C 0.7710(6) 0.3836(4) 0.24067(17)
C2 C 0.6574(7) 0.3744(4) 0.31760(18)
H7 H 0.4700 0.3081 0.3052
H8 H 0.6373 0.4854 0.3427
C3 C 0.8282(7) 0.3036(4) 0.37779(18)
H9 H 1.0139 0.3715 0.3926
H10 H 0.8522 0.1929 0.3534
C4 C 0.6912(7) 0.2956(5) 0.45210(18)
H11 H 0.5063 0.2269 0.4369
H12 H 0.6644 0.4062 0.4756
C5 C 0.8571(7) 0.2275(5) 0.51468(19)
H13 H 1.0424 0.2957 0.5299
H14 H 0.8829 0.1164 0.4916
C6 C 0.7161(8) 0.2216(5) 0.58893(19)
H15 H 0.6891 0.3328 0.6114
H16 H 0.5309 0.1534 0.5733
C7 C 0.8749(8) 0.1552(5) 0.65324(19)
H17 H 0.9113 0.0463 0.6303
H18 H 1.0557 0.2271 0.6715
C8 C 0.7227(7) 0.1422(5) 0.72346(18)
H19 H 0.5402 0.0721 0.7051
H20 H 0.6898 0.2514 0.7470
C9 C 0.8800(7) 0.0718(4) 0.78758(18)
H21 H 0.9197 -0.0359 0.7641
H22 H 1.0585 0.1444 0.8085
C10 C 0.7091(6) 0.0547(4) 0.85499(17)
Mn1_2 Mn 0.21685(9) 0.30876(6) 0.12678(3)
Mn1A Mn 0.78315(9) -0.30876(6) 0.87322(3)
O3_2 O 1.6249(4) 0.4398(3) 0.18883(12)
O7A O 1.3991(4) 0.0887(3) 0.13774(13)
loop_
_geom_bond_atom_site_label_1
_geom_bond_atom_site_label_2
_geom_bond_site_symmetry_1
_geom_bond_site_symmetry_2
Mn1 O1 1_555 1_555
O1 C1 1_555 1_555
O2 Mn1 1_555 1_555
H1 O2 1_555 1_555
H2 O2 1_555 1_555
O3 C1 1_555 1_555
O4 Mn1 1_555 1_555
H3 O4 1_555 1_555
H4 O4 1_555 1_555
O5 C10 1_555 1_555
O6 Mn1 1_555 1_555
H5 O6 1_555 1_555
H6 O6 1_555 1_555
O7 C10 1_555 1_555
C1 C2 1_555 1_555
C2 H7 1_555 1_555
H8 C2 1_555 1_555
C3 C2 1_555 1_555
H9 C3 1_555 1_555
H10 C3 1_555 1_555
C4 C3 1_555 1_555
H11 C4 1_555 1_555
H12 C4 1_555 1_555
C5 C4 1_555 1_555
H13 C5 1_555 1_555
H14 C5 1_555 1_555
C6 C5 1_555 1_555
H15 C6 1_555 1_555
H16 C6 1_555 1_555
C7 C6 1_555 1_555
H17 C7 1_555 1_555
H18 C7 1_555 1_555
C8 C7 1_555 1_555
H19 C8 1_555 1_555
H20 C8 1_555 1_555
C9 C8 1_555 1_555
H21 C9 1_555 1_555
H22 C9 1_555 1_555
C10 C9 1_555 1_555
Mn1_2 O3 1_555 1_555
Mn1A O7 1_555 1_555
O3_2 Mn1 1_555 1_555
O7A Mn1 1_555 1_555

#END
