
#######################################################################
#
#                 Cambridge Crystallographic Data Centre
#                                CCDC 
#
#######################################################################
#
# If this CIF has been generated from an entry in the Cambridge 
# Structural Database, then it will include bibliographic, chemical, 
# crystal, experimental, refinement or atomic coordinate data resulting 
# from the CCDC's data processing and validation procedures.
#
#######################################################################

data_NEMSOP
_symmetry_cell_setting           triclinic
_symmetry_space_group_name_H-M   'P 1'
_symmetry_Int_Tables_number      1
_space_group_name_Hall           'P 1'
loop_
_symmetry_equiv_pos_site_id
_symmetry_equiv_pos_as_xyz
1 x,y,z
_cell_length_a                   6.6990(5)
_cell_length_b                   10.1529(7)
_cell_length_c                   13.6935(9)
_cell_angle_alpha                81.884(2)
_cell_angle_beta                 87.260(2)
_cell_angle_gamma                84.399(2)
_cell_volume                     917.076
loop_
_atom_site_label
_atom_site_type_symbol
_atom_site_fract_x
_atom_site_fract_y
_atom_site_fract_z
Pb1 Pb 0.74590(6) 0.43342(4) 0.01749(4)
Pb2 Pb 0.40367(7) 0.76579(5) 0.02947(4)
Pb3 Pb 0.28404(7) 0.17265(5) 0.07760(5)
C1 C 0.618(2) 0.0049(14) 0.5589(12)
C2 C 0.690(2) 0.0897(15) 0.4693(12)
C3 C 0.686(2) 0.0726(14) 0.3716(12)
H1 H 0.6294 -0.0022 0.3532
C4 C 0.766(2) 0.1665(15) 0.2997(12)
C5 C 0.855(2) 0.2750(14) 0.3297(11)
H2 H 0.9163 0.3362 0.2812
C6 C 0.855(2) 0.2938(14) 0.4283(13)
H3 H 0.9108 0.3686 0.4473
C7 C 0.773(2) 0.2006(15) 0.4978(11)
C8 C 0.744(2) 0.1915(15) 0.6081(12)
C9 C 0.794(2) 0.2781(15) 0.6705(12)
H4 H 0.8667 0.3528 0.6470
C10 C 0.733(2) 0.2506(14) 0.7696(11)
H5 H 0.7653 0.3078 0.8145
C11 C 0.626(2) 0.1416(16) 0.8042(12)
C12 C 0.586(2) 0.0494(14) 0.7405(11)
H6 H 0.5192 -0.0282 0.7638
C13 C 0.647(2) 0.0786(15) 0.6429(12)
C14 C 0.751(2) 0.1578(15) 0.1918(12)
C15 C 0.539(3) 0.1320(17) 0.9058(13)
C16 C 0.287(2) 0.3404(15) 0.5605(11)
C17 C 0.364(3) 0.4243(15) 0.4719(12)
C18 C 0.370(2) 0.4015(13) 0.3739(11)
H7 H 0.3149 0.3259 0.3558
C19 C 0.460(2) 0.4934(15) 0.3018(12)
C20 C 0.536(2) 0.6052(15) 0.3319(12)
H8 H 0.5977 0.6665 0.2837
C21 C 0.525(2) 0.6287(15) 0.4294(12)
H9 H 0.5743 0.7059 0.4477
C22 C 0.439(2) 0.5370(15) 0.4994(11)
C23 C 0.410(2) 0.5295(15) 0.6074(11)
C24 C 0.465(3) 0.6143(15) 0.6714(12)
H10 H 0.5333 0.6906 0.6474
C25 C 0.415(2) 0.5834(15) 0.7725(12)
H11 H 0.4536 0.6384 0.8177
C26 C 0.310(2) 0.4729(15) 0.8073(11)
C27 C 0.259(2) 0.3872(14) 0.7449(12)
H12 H 0.1915 0.3107 0.7692
C28 C 0.311(2) 0.4163(14) 0.6457(11)
C29 C 0.487(3) 0.4673(16) 0.1992(12)
C30 C 0.250(2) 0.4476(16) 0.9156(11)
C31 C 0.960(2) 0.6758(15) -0.4433(11)
C32 C 1.034(2) 0.7670(15) -0.5286(13)
C33 C 1.053(2) 0.7503(14) -0.6263(11)
H13 H 1.0096 0.6736 -0.6485
C34 C 1.138(2) 0.8499(16) -0.6928(13)
C35 C 1.199(2) 0.9634(14) -0.6589(11)
H14 H 1.2552 1.0302 -0.7047
C36 C 1.178(2) 0.9801(14) -0.5592(11)
H15 H 1.2169 1.0577 -0.5364
C37 C 1.100(2) 0.8794(14) -0.4956(11)
C38 C 1.072(2) 0.8629(15) -0.3872(12)
C39 C 1.118(3) 0.9447(15) -0.3182(12)
H16 H 1.1814 1.0245 -0.3385
C40 C 1.069(2) 0.9045(14) -0.2185(11)
H17 H 1.1034 0.9566 -0.1704
C41 C 0.969(2) 0.7880(15) -0.1874(11)
C42 C 0.925(2) 0.7060(14) -0.2557(11)
H18 H 0.8596 0.6271 -0.2356
C43 C 0.980(2) 0.7442(15) -0.3547(12)
C44 C 1.187(2) 0.8278(14) -0.7972(11)
C45 C 0.906(3) 0.7532(15) -0.0810(12)
O1 O 0.5524(16) -0.1038(10) 0.5609(9)
O2 O 0.6316(19) 0.0819(11) 0.1674(10)
O3 O 0.8618(18) 0.2296(12) 0.1317(8)
O4 O 0.445(2) 0.0303(12) 0.9430(9)
O5 O 0.5505(18) 0.2270(11) 0.9535(8)
O6 O 0.2227(17) 0.2313(10) 0.5649(8)
O7 O 0.4406(17) 0.3606(10) 0.1739(8)
O8 O 0.5704(16) 0.5551(11) 0.1375(8)
O9 O 0.1296(19) 0.3620(11) 0.9441(9)
O10 O 0.3223(17) 0.5170(11) 0.9743(9)
O11 O 0.9022(17) 0.5649(10) -0.4438(8)
O12 O 1.1778(17) 0.7139(10) -0.8215(8)
O13 O 1.2599(19) 0.9199(11) -0.8554(8)
O14 O 0.7692(17) 0.6776(12) -0.0637(9)
O15 O 0.9834(18) 0.8066(10) -0.0153(9)
O16 O 1.0062(19) 0.5020(11) 0.1131(8)
O17 O 0.679(2) 0.8263(12) 0.1179(10)
O18 O 0.007(2) 0.0859(14) -0.0168(11)
Pb2_2 Pb 1.40367(7) 0.76579(5) -0.97053(4)
Pb3_2 Pb 0.28404(7) 0.17265(5) 1.07760(5)
Pb3_3 Pb 1.28404(7) 1.17265(5) -0.92240(5)
O4_2 O 0.445(2) 0.0303(12) -0.0570(9)
O5_2 O 0.5505(18) 0.2270(11) -0.0465(8)
O9_2 O 0.1296(19) 0.3620(11) -0.0559(9)
O12_2 O 0.1778(17) 0.7139(10) 0.1785(8)
O13_2 O 0.2599(19) 0.9199(11) 0.1446(8)
O13_3 O 0.2599(19) -0.0801(11) 0.1446(8)
loop_
_geom_bond_atom_site_label_1
_geom_bond_atom_site_label_2
_geom_bond_site_symmetry_1
_geom_bond_site_symmetry_2
Pb1 O3 1_555 1_555
Pb2 O8 1_555 1_555
Pb3 O2 1_555 1_555
C1 C2 1_555 1_555
C2 C3 1_555 1_555
C3 H1 1_555 1_555
C4 C3 1_555 1_555
C5 C4 1_555 1_555
H2 C5 1_555 1_555
C6 C5 1_555 1_555
H3 C6 1_555 1_555
C7 C2 1_555 1_555
C8 C7 1_555 1_555
C9 C8 1_555 1_555
H4 C9 1_555 1_555
C10 C9 1_555 1_555
H5 C10 1_555 1_555
C11 C10 1_555 1_555
C12 C11 1_555 1_555
H6 C12 1_555 1_555
C13 C1 1_555 1_555
C14 C4 1_555 1_555
C15 C11 1_555 1_555
C16 C17 1_555 1_555
C17 C18 1_555 1_555
C18 H7 1_555 1_555
C19 C18 1_555 1_555
C20 C19 1_555 1_555
H8 C20 1_555 1_555
C21 C20 1_555 1_555
H9 C21 1_555 1_555
C22 C17 1_555 1_555
C23 C22 1_555 1_555
C24 C23 1_555 1_555
H10 C24 1_555 1_555
C25 C24 1_555 1_555
H11 C25 1_555 1_555
C26 C25 1_555 1_555
C27 C26 1_555 1_555
H12 C27 1_555 1_555
C28 C16 1_555 1_555
C29 C19 1_555 1_555
C30 C26 1_555 1_555
C31 C32 1_555 1_555
C32 C33 1_555 1_555
C33 H13 1_555 1_555
C34 C33 1_555 1_555
C35 C34 1_555 1_555
H14 C35 1_555 1_555
C36 C35 1_555 1_555
H15 C36 1_555 1_555
C37 C32 1_555 1_555
C38 C37 1_555 1_555
C39 C38 1_555 1_555
H16 C39 1_555 1_555
C40 C39 1_555 1_555
H17 C40 1_555 1_555
C41 C40 1_555 1_555
C42 C41 1_555 1_555
H18 C42 1_555 1_555
C43 C31 1_555 1_555
C44 C34 1_555 1_555
C45 C41 1_555 1_555
O1 C1 1_555 1_555
O2 C14 1_555 1_555
O3 C14 1_555 1_555
O4 C15 1_555 1_555
O5 C15 1_555 1_555
O6 C16 1_555 1_555
O7 C29 1_555 1_555
O8 Pb1 1_555 1_555
O9 C30 1_555 1_555
O10 C30 1_555 1_555
O11 C31 1_555 1_555
O12 C44 1_555 1_555
O13 C44 1_555 1_555
O14 Pb1 1_555 1_555
O15 C45 1_555 1_555
O16 Pb1 1_555 1_555
O17 Pb2 1_555 1_555
O18 Pb3 1_555 1_555
Pb2_2 O12 1_555 1_555
Pb3_2 O4 1_555 1_555
Pb3_3 O13 1_555 1_555
O4_2 Pb3 1_555 1_555
O5_2 Pb3 1_555 1_555
O9_2 Pb3 1_555 1_555
O12_2 Pb2 1_555 1_555
O13_2 Pb2 1_555 1_555
O13_3 Pb3 1_555 1_555
C6 C7 1_555 1_555
C8 C13 1_555 1_555
C12 C13 1_555 1_555
C21 C22 1_555 1_555
C23 C28 1_555 1_555
C27 C28 1_555 1_555
C29 O8 1_555 1_555
C36 C37 1_555 1_555
C38 C43 1_555 1_555
C42 C43 1_555 1_555
C45 O14 1_555 1_555
O5 Pb3_2 1_555 1_555
O9 Pb3_2 1_555 1_555
O13 Pb2_2 1_555 1_555

#END
