
#######################################################################
#
#                 Cambridge Crystallographic Data Centre
#                                CCDC 
#
#######################################################################
#
# If this CIF has been generated from an entry in the Cambridge 
# Structural Database, then it will include bibliographic, chemical, 
# crystal, experimental, refinement or atomic coordinate data resulting 
# from the CCDC's data processing and validation procedures.
#
#######################################################################

data_NEMVAC01
_symmetry_cell_setting           monoclinic
_symmetry_space_group_name_H-M   'P 21/n'
_symmetry_Int_Tables_number      14
_space_group_name_Hall           '-P 2yn'
loop_
_symmetry_equiv_pos_site_id
_symmetry_equiv_pos_as_xyz
1 x,y,z
2 1/2+x,1/2-y,1/2+z
3 -x,-y,-z
4 1/2-x,1/2+y,1/2-z
_cell_length_a                   11.202(2)
_cell_length_b                   7.3068(15)
_cell_length_c                   14.668(3)
_cell_angle_alpha                90
_cell_angle_beta                 98.07(3)
_cell_angle_gamma                90
_cell_volume                     1188.7
loop_
_atom_site_label
_atom_site_type_symbol
_atom_site_fract_x
_atom_site_fract_y
_atom_site_fract_z
Co1 Co 0.5000 0.5000 0.5000
Na1 Na 0.06044(8) 0.2278(1) 0.48245(6)
Na2 Na 0.64308(8) -0.3524(1) 0.32467(6)
O1 O 0.4270(1) 0.3184(2) 0.3970(1)
O2 O 0.2321(1) 0.3113(2) 0.4120(1)
O3 O 0.4772(1) -0.2872(2) 0.4040(1)
O4 O 0.3243(1) -0.1350(2) 0.4504(1)
O5 O -0.1032(2) 0.2653(3) 0.3280(1)
O6 O -0.0570(2) 0.5017(3) 0.4107(1)
O7 O -0.1723(2) 0.5310(3) 0.2808(1)
O8 O 0.0696(1) -0.0825(3) 0.4247(1)
O9 O 0.2434(2) 0.1064(3) 0.5913(1)
O10 O 0.5525(2) -0.6263(2) 0.2526(1)
O11 O 0.6738(1) 0.4570(2) 0.4590(1)
N1 N -0.1111(2) 0.4330(3) 0.3404(1)
C1 C 0.3205(2) 0.2577(3) 0.3765(1)
C2 C 0.3033(2) 0.1118(3) 0.3019(1)
C3 C 0.4005(2) -0.0365(3) 0.3135(1)
C4 C 0.3994(2) -0.1609(3) 0.3961(1)
H1 H 0.036(2) -0.087(3) 0.370(1)
H2 H 0.143(1) -0.114(3) 0.427(2)
H3 H 0.220(2) 0.037(4) 0.631(2)
H4 H 0.288(2) 0.045(4) 0.560(1)
H5 H 0.510(2) -0.666(3) 0.293(1)
H6 H 0.611(2) -0.696(3) 0.249(2)
H7 H 0.708(3) 0.501(2) 0.511(1)
H8 H 0.684(4) 0.344(2) 0.459(1)
H9 H 0.3031 0.1701 0.2424
H10 H 0.2252 0.0546 0.3021
H11 H 0.3913 -0.1114 0.2583
H12 H 0.4787 0.0224 0.3183
O1B O 0.5730(1) 0.6816(2) 0.6030(1)
O2B O 0.7679(1) 0.6887(2) 0.5880(1)
O3B O 0.5228(1) 1.2872(2) 0.5960(1)
O4B O 0.6757(1) 1.1350(2) 0.5496(1)
C1B C 0.6795(2) 0.7423(3) 0.6235(1)
C2B C 0.6967(2) 0.8882(3) 0.6981(1)
C3B C 0.5995(2) 1.0365(3) 0.6865(1)
C4B C 0.6006(2) 1.1609(3) 0.6039(1)
H9B H 0.6969 0.8299 0.7576
H10B H 0.7748 0.9454 0.6979
H11B H 0.6087 1.1114 0.7417
H12B H 0.5213 0.9776 0.6817
O11B O 0.3262(1) 0.5430(2) 0.5410(1)
H7B H 0.292(3) 0.499(2) 0.489(1)
H8B H 0.316(4) 0.656(2) 0.541(1)
Na1B Na 0.93956(8) 0.7722(1) 0.51755(6)
Na2B Na 0.35692(8) 1.3524(1) 0.67533(6)
O5B O 0.1032(2) 0.7347(3) 0.6720(1)
O6B O 0.0570(2) 0.4983(3) 0.5893(1)
O7B O 0.1723(2) 0.4690(3) 0.7192(1)
N1B N 0.1111(2) 0.5670(3) 0.6596(1)
O8B O -0.0696(1) 0.0825(3) 0.5753(1)
H1B H -0.036(2) 0.087(3) 0.630(1)
H2B H -0.143(1) 0.114(3) 0.573(2)
O9B O 0.7566(2) -0.1064(3) 0.4087(1)
H3B H 0.780(2) -0.037(4) 0.369(2)
H4B H 0.712(2) -0.045(4) 0.440(1)
O10B O 0.4475(2) 1.6263(2) 0.7474(1)
H5B H 0.490(2) 1.666(3) 0.707(1)
H6B H 0.389(2) 1.696(3) 0.751(2)
O3_2 O 0.4772(1) 0.7128(2) 0.4040(1)
O3B_2 O 0.5228(1) 0.2872(2) 0.5960(1)
O5C O 0.6032(2) -0.2347(3) 0.1720(1)
O7_2 O 0.8277(2) -0.4690(3) 0.2808(1)
O11_2 O 0.6738(1) -0.5430(2) 0.4590(1)
Co1_2 Co 0.5000 -0.5000 0.5000
Na2C Na -0.14308(8) 0.1476(1) 0.17533(6)
Na1B_2 Na -0.06044(8) 0.7722(1) 0.51755(6)
Na2_2 Na -0.35692(8) 0.6476(1) 0.32467(6)
Na1B_3 Na -0.06044(8) -0.2278(1) 0.51755(6)
Na2B_2 Na 0.35692(8) 0.3524(1) 0.67533(6)
Na2_3 Na 0.64308(8) 0.6476(1) 0.32467(6)
Co1_3 Co 0.5000 1.5000 0.5000
O6_2 O 0.9430(2) 0.5017(3) 0.4107(1)
O6B_2 O 1.0570(2) 0.4983(3) 0.5893(1)
O8_2 O 1.0696(1) 0.9175(3) 0.4247(1)
O8B_2 O 0.9304(1) 1.0825(3) 0.5753(1)
O9B_2 O 0.7566(2) 0.8936(3) 0.4087(1)
O5A O 0.3968(2) 1.2347(3) 0.8280(1)
O7B_2 O 0.1723(2) 1.4690(3) 0.7192(1)
O9_2 O 0.2434(2) 1.1064(3) 0.5913(1)
O11B_2 O 0.3262(1) 1.5430(2) 0.5410(1)
Na2A Na 0.14308(8) 0.8524(1) 0.82467(6)
Na1B_4 Na 0.93956(8) -0.2278(1) 0.51755(6)
H7_2 H 0.708(3) -0.499(2) 0.511(1)
H8_2 H 0.684(4) -0.656(2) 0.459(1)
H1_2 H 1.036(2) 0.913(3) 0.370(1)
H2_2 H 1.143(1) 0.886(3) 0.427(2)
H1B_2 H 0.964(2) 1.087(3) 0.630(1)
H2B_2 H 0.857(1) 1.114(3) 0.573(2)
H3B_2 H 0.780(2) 0.963(4) 0.369(2)
H4B_2 H 0.712(2) 0.955(4) 0.440(1)
H3_2 H 0.220(2) 1.037(4) 0.631(2)
H4_2 H 0.288(2) 1.045(4) 0.560(1)
H7B_2 H 0.292(3) 1.499(2) 0.489(1)
H8B_2 H 0.316(4) 1.656(2) 0.541(1)
loop_
_geom_bond_atom_site_label_1
_geom_bond_atom_site_label_2
_geom_bond_site_symmetry_1
_geom_bond_site_symmetry_2
Co1 O1 1_555 1_555
Na1 O2 1_555 1_555
Na2 O3 1_555 1_555
O1 C1 1_555 1_555
O2 C1 1_555 1_555
O3 C4 1_555 1_555
O4 C4 1_555 1_555
O5 N1 1_555 1_555
O6 Na1 1_555 1_555
O7 N1 1_555 1_555
O8 Na1 1_555 1_555
O9 Na1 1_555 1_555
O10 Na2 1_555 1_555
O11 Co1 1_555 1_555
N1 O6 1_555 1_555
C1 C2 1_555 1_555
C2 C3 1_555 1_555
C3 C4 1_555 1_555
H1 O8 1_555 1_555
H2 O8 1_555 1_555
H3 O9 1_555 1_555
H4 O9 1_555 1_555
H5 O10 1_555 1_555
H6 O10 1_555 1_555
H7 O11 1_555 1_555
H8 O11 1_555 1_555
H9 C2 1_555 1_555
H10 C2 1_555 1_555
H11 C3 1_555 1_555
H12 C3 1_555 1_555
O1B Co1 1_555 1_555
O2B C1B 1_555 1_555
O3B C4B 1_555 1_555
O4B C4B 1_555 1_555
C1B O1B 1_555 1_555
C2B C1B 1_555 1_555
C3B C2B 1_555 1_555
C4B C3B 1_555 1_555
H9B C2B 1_555 1_555
H10B C2B 1_555 1_555
H11B C3B 1_555 1_555
H12B C3B 1_555 1_555
O11B Co1 1_555 1_555
H7B O11B 1_555 1_555
H8B O11B 1_555 1_555
Na1B O2B 1_555 1_555
Na2B O3B 1_555 1_555
O5B N1B 1_555 1_555
O6B Na1 1_555 1_555
O7B N1B 1_555 1_555
N1B O6B 1_555 1_555
O8B Na1 1_555 1_555
H1B O8B 1_555 1_555
H2B O8B 1_555 1_555
O9B Na2 1_555 1_555
H3B O9B 1_555 1_555
H4B O9B 1_555 1_555
O10B Na2B 1_555 1_555
H5B O10B 1_555 1_555
H6B O10B 1_555 1_555
O3_2 Co1 1_555 1_555
O3B_2 Co1 1_555 1_555
O5C Na2 1_555 1_555
O7_2 Na2 1_555 1_555
O11_2 Na2 1_555 1_555
Co1_2 O3 1_555 1_555
Na2C O5 1_555 1_555
Na1B_2 O6 1_555 1_555
Na2_2 O7 1_555 1_555
Na1B_3 O8 1_555 1_555
Na2B_2 O9 1_555 1_555
Na2_3 O11 1_555 1_555
Co1_3 O3B 1_555 1_555
O6_2 Na1B 1_555 1_555
O6B_2 Na1B 1_555 1_555
O8_2 Na1B 1_555 1_555
O8B_2 Na1B 1_555 1_555
O9B_2 Na1B 1_555 1_555
O5A Na2B 1_555 1_555
O7B_2 Na2B 1_555 1_555
O9_2 Na2B 1_555 1_555
O11B_2 Na2B 1_555 1_555
Na2A O5B 1_555 1_555
Na1B_4 O9B 1_555 1_555
H7_2 O11_2 1_555 1_555
H8_2 O11_2 1_555 1_555
H1_2 O8_2 1_555 1_555
H2_2 O8_2 1_555 1_555
H1B_2 O8B_2 1_555 1_555
H2B_2 O8B_2 1_555 1_555
H3B_2 O9B_2 1_555 1_555
H4B_2 O9B_2 1_555 1_555
H3_2 O9_2 1_555 1_555
H4_2 O9_2 1_555 1_555
H7B_2 O11B_2 1_555 1_555
H8B_2 O11B_2 1_555 1_555
O11B Na2B_2 1_555 1_555
O6B Na1B_2 1_555 1_555
O7B Na2B_2 1_555 1_555
O8B Na1B_3 1_555 1_555
O3_2 Na2_3 1_555 1_555
O3B_2 Na2B_2 1_555 1_555
O11_2 Co1_2 1_555 1_555
Na2_3 O9B_2 1_555 1_555
Co1_3 O11B_2 1_555 1_555

#END
