
#######################################################################
#
#                 Cambridge Crystallographic Data Centre
#                                CCDC 
#
#######################################################################
#
# If this CIF has been generated from an entry in the Cambridge 
# Structural Database, then it will include bibliographic, chemical, 
# crystal, experimental, refinement or atomic coordinate data resulting 
# from the CCDC's data processing and validation procedures.
#
#######################################################################

data_NEMXIM
_symmetry_cell_setting           monoclinic
_symmetry_space_group_name_H-M   'P 21/c'
_symmetry_Int_Tables_number      14
_space_group_name_Hall           '-P 2ybc'
loop_
_symmetry_equiv_pos_site_id
_symmetry_equiv_pos_as_xyz
1 x,y,z
2 -x,1/2+y,1/2-z
3 -x,-y,-z
4 x,1/2-y,1/2+z
_cell_length_a                   11.461(3)
_cell_length_b                   7.7829(12)
_cell_length_c                   19.295(4)
_cell_angle_alpha                90
_cell_angle_beta                 100.81(3)
_cell_angle_gamma                90
_cell_volume                     1690.57
loop_
_atom_site_label
_atom_site_type_symbol
_atom_site_fract_x
_atom_site_fract_y
_atom_site_fract_z
Cu1 Cu -0.25068(3) 0.17479(4) 0.122370(15)
N1 N -0.1828(2) 0.1720(3) 0.22789(11)
N2 N -0.0748(2) 0.1669(3) 0.12054(12)
C1 C -0.2464(3) 0.1739(5) 0.27916(15)
H1 H -0.3287 0.1827 0.2674
C2 C -0.0645(3) 0.1592(4) 0.24443(15)
C3 C -0.0269(3) 0.1704(5) 0.06253(18)
H2 H -0.0766 0.1755 0.0186
C4 C -0.0029(3) 0.1589(4) 0.18410(16)
C5 C 0.1188(3) 0.1534(6) 0.1909(2)
H3 H 0.1674 0.1473 0.2352
C6 C -0.1923(4) 0.1630(6) 0.34999(17)
H4 H -0.2374 0.1664 0.3853
C7 C -0.0060(3) 0.1469(6) 0.31394(18)
H5 H 0.0763 0.1384 0.3249
C8 C 0.1667(3) 0.1569(7) 0.1312(2)
H6 H 0.2487 0.1526 0.1347
C9 C 0.0944(4) 0.1668(7) 0.0662(2)
H7 H 0.1265 0.1709 0.0254
C10 C -0.0724(4) 0.1475(7) 0.36636(18)
H8 H -0.0349 0.1371 0.4133
O1 O -0.24441(18) 0.4684(3) 0.12408(10)
O2 O -0.25930(19) 0.8788(3) 0.12660(9)
O3 O -0.3823(2) 0.4633(3) -0.03920(10)
O4 O -0.39833(18) 0.8820(3) -0.03596(10)
C11 C -0.3507(2) 0.5805(4) 0.00600(13)
C12 C -0.2871(2) 0.5791(4) 0.07982(13)
C13 C -0.3577(2) 0.7655(4) 0.00742(14)
C14 C -0.2938(2) 0.7667(4) 0.08063(14)
O5 O -0.41612(16) 0.1861(3) 0.13855(11)
O6 O -0.2974(2) 0.1698(3) 0.01710(10)
H9 H -0.4353 0.3118 0.1547
H10 H -0.3384 0.2824 0.0009
H11 H -0.3403 0.0659 0.0017
H12 H -0.4765 0.1645 0.1073
O2_2 O -0.25930(19) -0.1212(3) 0.12660(9)
Cu1_2 Cu -0.25068(3) 1.17479(4) 0.122370(15)
O7 O -0.50987(19) 0.4818(3) 0.17693(10)
H13 H -0.4564 0.5735 0.1939
H14 H -0.538(4) 0.503(6) 0.1339
O8 O -0.3920(3) 0.7694(4) 0.23116(15)
H15 H -0.3493 0.8196 0.2027
H16 H -0.4316 0.8595 0.2444
loop_
_geom_bond_atom_site_label_1
_geom_bond_atom_site_label_2
_geom_bond_site_symmetry_1
_geom_bond_site_symmetry_2
Cu1 N1 1_555 1_555
N1 C1 1_555 1_555
N2 Cu1 1_555 1_555
C1 H1 1_555 1_555
C2 N1 1_555 1_555
C3 N2 1_555 1_555
H2 C3 1_555 1_555
C4 N2 1_555 1_555
C5 C4 1_555 1_555
H3 C5 1_555 1_555
C6 C1 1_555 1_555
H4 C6 1_555 1_555
C7 C2 1_555 1_555
H5 C7 1_555 1_555
C8 C5 1_555 1_555
H6 C8 1_555 1_555
C9 C3 1_555 1_555
H7 C9 1_555 1_555
C10 C6 1_555 1_555
H8 C10 1_555 1_555
O1 Cu1 1_555 1_555
O2 C14 1_555 1_555
O3 C11 1_555 1_555
O4 C13 1_555 1_555
C11 C12 1_555 1_555
C12 O1 1_555 1_555
C13 C11 1_555 1_555
C14 C12 1_555 1_555
O5 Cu1 1_555 1_555
O6 Cu1 1_555 1_555
H9 O5 1_555 1_555
H10 O6 1_555 1_555
H11 O6 1_555 1_555
H12 O5 1_555 1_555
O7 H13 1_555 1_555
H14 O7 1_555 1_555
O8 H15 1_555 1_555
H16 O8 1_555 1_555
O2_2 Cu1 1_555 1_555
Cu1_2 O2 1_555 1_555
C2 C4 1_555 1_555
C7 C10 1_555 1_555
C8 C9 1_555 1_555
C13 C14 1_555 1_555

#END
