
#######################################################################
#
#                 Cambridge Crystallographic Data Centre
#                                CCDC 
#
#######################################################################
#
# If this CIF has been generated from an entry in the Cambridge 
# Structural Database, then it will include bibliographic, chemical, 
# crystal, experimental, refinement or atomic coordinate data resulting 
# from the CCDC's data processing and validation procedures.
#
#######################################################################

data_NEMXEI
_symmetry_cell_setting           monoclinic
_symmetry_space_group_name_H-M   'P 21/c'
_symmetry_Int_Tables_number      14
_space_group_name_Hall           '-P 2ybc'
loop_
_symmetry_equiv_pos_site_id
_symmetry_equiv_pos_as_xyz
1 x,y,z
2 -x,1/2+y,1/2-z
3 -x,-y,-z
4 x,1/2-y,1/2+z
_cell_length_a                   9.7580(10)
_cell_length_b                   12.0970(10)
_cell_length_c                   21.381(4)
_cell_angle_alpha                90
_cell_angle_beta                 95.080(10)
_cell_angle_gamma                90
_cell_volume                     2513.95
loop_
_atom_site_label
_atom_site_type_symbol
_atom_site_fract_x
_atom_site_fract_y
_atom_site_fract_z
Eu1 Eu 0.265613(15) 0.025290(14) 0.504517(7)
O1 O 0.1884(3) 0.2217(2) 0.50492(11)
O2 O 0.3694(2) 0.1833(2) 0.45444(11)
O3 O 0.1918(4) 0.6395(3) 0.5275(2)
O4 O 0.3915(2) 0.1153(2) 0.59211(10)
O5 O 0.5898(2) 0.0617(2) 0.55997(11)
O6 O 0.5261(3) 0.3071(3) 0.80163(13)
O7 O 0.1014(2) 0.0546(2) 0.41705(10)
O8 O -0.0983(2) -0.0287(2) 0.42647(10)
O9 O 0.0870(3) 0.1799(3) 0.19849(15)
O10 O 0.3691(3) -0.1279(2) 0.57077(12)
O11 O 0.1356(3) -0.1479(2) 0.48245(14)
C1 C 0.2870(4) 0.2530(3) 0.47522(17)
C2 C 0.3094(4) 0.3738(3) 0.46546(17)
C3 C 0.3979(4) 0.4118(4) 0.42413(19)
H1 H 0.4462 0.3626 0.4009
C4 C 0.4145(5) 0.5263(4) 0.4176(2)
H2 H 0.4736 0.5530 0.3893
C5 C 0.3455(5) 0.5992(4) 0.4520(3)
H3 H 0.3583 0.6749 0.4473
C6 C 0.2571(5) 0.5607(4) 0.4935(2)
C7 C 0.2378(4) 0.4478(3) 0.5006(2)
H4 H 0.1776 0.4217 0.5286
C8 C 0.1114(6) 0.6055(5) 0.5751(3)
H5 H 0.0374 0.5598 0.5574
H6 H 0.0743 0.6692 0.5944
H7 H 0.1673 0.5643 0.6061
C9 C 0.5191(3) 0.1057(3) 0.60028(15)
C10 C 0.5916(3) 0.1464(3) 0.66041(14)
C11 C 0.7279(3) 0.1198(3) 0.67642(16)
H8 H 0.7765 0.0788 0.6490
C12 C 0.7915(4) 0.1543(3) 0.73322(19)
H9 H 0.8828 0.1352 0.7443
C13 C 0.7212(4) 0.2170(3) 0.77383(18)
H10 H 0.7650 0.2408 0.8118
C14 C 0.5851(4) 0.2441(3) 0.75761(16)
C15 C 0.5190(4) 0.2088(3) 0.70122(16)
H11 H 0.4272 0.2265 0.6907
C16 C 0.3885(5) 0.3396(5) 0.7881(2)
H12 H 0.3807 0.3847 0.7510
H13 H 0.3592 0.3812 0.8228
H14 H 0.3316 0.2753 0.7814
C17 C -0.0150(3) 0.0220(3) 0.39485(15)
C18 C -0.0542(3) 0.0386(3) 0.32663(15)
C19 C -0.1699(4) -0.0135(4) 0.29762(18)
H15 H -0.2267 -0.0561 0.3208
C20 C -0.1986(5) -0.0005(4) 0.2337(2)
H16 H -0.2756 -0.0351 0.2137
C21 C -0.1161(5) 0.0623(4) 0.19867(18)
H17 H -0.1372 0.0697 0.1556
C22 C -0.0020(4) 0.1142(4) 0.22780(18)
C23 C 0.0281(4) 0.1022(3) 0.29166(16)
H18 H 0.1049 0.1373 0.3114
C24 C 0.0542(6) 0.2069(4) 0.1352(2)
H19 H 0.0406 0.1403 0.1110
H20 H 0.1281 0.2488 0.1201
H21 H -0.0286 0.2502 0.1311
H22 H 0.365(4) -0.131(4) 0.6084(6)
H23 H 0.443(3) -0.153(4) 0.563(2)
H24 H 0.0527(11) -0.143(3) 0.4787(19)
H25 H 0.152(4) -0.2105(14) 0.4948(16)
O5B O 0.4102(2) -0.0617(2) 0.44003(11)
O8B O 0.0983(2) 0.0287(2) 0.57353(10)
Eu1B Eu 0.734387(15) -0.025290(14) 0.495483(7)
Eu1B_2 Eu -0.265613(15) -0.025290(14) 0.495483(7)
loop_
_geom_bond_atom_site_label_1
_geom_bond_atom_site_label_2
_geom_bond_site_symmetry_1
_geom_bond_site_symmetry_2
Eu1 O1 1_555 1_555
O1 C1 1_555 1_555
O2 Eu1 1_555 1_555
O3 C6 1_555 1_555
O4 Eu1 1_555 1_555
O5 C9 1_555 1_555
O6 C14 1_555 1_555
O7 Eu1 1_555 1_555
O8 C17 1_555 1_555
O9 C22 1_555 1_555
O10 Eu1 1_555 1_555
O11 Eu1 1_555 1_555
C1 O2 1_555 1_555
C2 C1 1_555 1_555
C3 C2 1_555 1_555
H1 C3 1_555 1_555
C4 C3 1_555 1_555
H2 C4 1_555 1_555
C5 C4 1_555 1_555
H3 C5 1_555 1_555
C6 C5 1_555 1_555
C7 C2 1_555 1_555
H4 C7 1_555 1_555
C8 O3 1_555 1_555
H5 C8 1_555 1_555
H6 C8 1_555 1_555
H7 C8 1_555 1_555
C9 O4 1_555 1_555
C10 C9 1_555 1_555
C11 C10 1_555 1_555
H8 C11 1_555 1_555
C12 C11 1_555 1_555
H9 C12 1_555 1_555
C13 C12 1_555 1_555
H10 C13 1_555 1_555
C14 C13 1_555 1_555
C15 C10 1_555 1_555
H11 C15 1_555 1_555
C16 O6 1_555 1_555
H12 C16 1_555 1_555
H13 C16 1_555 1_555
H14 C16 1_555 1_555
C17 O7 1_555 1_555
C18 C17 1_555 1_555
C19 C18 1_555 1_555
H15 C19 1_555 1_555
C20 C19 1_555 1_555
H16 C20 1_555 1_555
C21 C20 1_555 1_555
H17 C21 1_555 1_555
C22 C21 1_555 1_555
C23 C18 1_555 1_555
H18 C23 1_555 1_555
C24 O9 1_555 1_555
H19 C24 1_555 1_555
H20 C24 1_555 1_555
H21 C24 1_555 1_555
H22 O10 1_555 1_555
H23 O10 1_555 1_555
H24 O11 1_555 1_555
H25 O11 1_555 1_555
O5B Eu1 1_555 1_555
O8B Eu1 1_555 1_555
Eu1B O5 1_555 1_555
Eu1B_2 O8 1_555 1_555
C6 C7 1_555 1_555
C14 C15 1_555 1_555
C22 C23 1_555 1_555

#END
