
#######################################################################
#
#                 Cambridge Crystallographic Data Centre
#                                CCDC 
#
#######################################################################
#
# If this CIF has been generated from an entry in the Cambridge 
# Structural Database, then it will include bibliographic, chemical, 
# crystal, experimental, refinement or atomic coordinate data resulting 
# from the CCDC's data processing and validation procedures.
#
#######################################################################

data_NEMYUA
_symmetry_cell_setting           triclinic
_symmetry_space_group_name_H-M   'P 1'
_symmetry_Int_Tables_number      1
_space_group_name_Hall           'P 1'
loop_
_symmetry_equiv_pos_site_id
_symmetry_equiv_pos_as_xyz
1 x,y,z
_cell_length_a                   8.63000(10)
_cell_length_b                   11.35010(10)
_cell_length_c                   11.43080(10)
_cell_angle_alpha                65.2210(10)
_cell_angle_beta                 89.7530(10)
_cell_angle_gamma                82.5270(10)
_cell_volume                     1006.37
loop_
_atom_site_label
_atom_site_type_symbol
_atom_site_fract_x
_atom_site_fract_y
_atom_site_fract_z
O1 O -0.2935(4) 0.1037(3) -0.0027(3)
C1 C -0.3145(5) -0.0135(4) 0.0454(4)
C2 C -0.4300(6) -0.4144(4) 0.0802(5)
H1 H -0.5157 -0.4615 0.0883
Yb1 Yb -0.206900(9) 0.296610(8) -0.075110(8)
S2 S -0.01062(16) 0.13832(11) -0.25050(11)
C3 C -0.1761(7) -0.0995(6) 0.2634(7)
H2 H -0.0897 -0.0571 0.2234
C4 C -0.1706(7) -0.1723(6) 0.3972(6)
H3 H -0.0796 -0.1819 0.4488
C5 C -0.2998(7) -0.2301(5) 0.4533(6)
C6 C -0.3084(5) -0.0893(4) 0.1890(4)
C7 C -0.4348(6) -0.2142(4) 0.3825(4)
H4 H -0.5243 -0.2500 0.4237
C8 C -0.4384(6) -0.1440(4) 0.2481(4)
H5 H -0.5302 -0.1338 0.1972
C10 C -0.2778(6) -0.5032(4) 0.5503(4)
C11 C -0.1450(6) -0.5081(5) 0.4860(4)
H6 H -0.0609 -0.4659 0.4955
C12 C -0.2844(5) -0.4391(4) 0.6417(4)
C13 C -0.4022(6) -0.5658(4) 0.5396(4)
H7 H -0.4917 -0.5663 0.5883
C14 C -0.3936(5) -0.6275(4) 0.4567(4)
H8 H -0.4788 -0.6680 0.4460
N1 N -0.2907(6) -0.3087(5) 0.5920(5)
O2 O -0.2822(4) -0.5061(3) 0.7604(3)
C15 C 0.1815(8) 0.1926(7) -0.2852(6)
O3 O -0.1001(5) 0.2473(3) -0.2315(3)
O4 O -0.0606(4) 0.1268(3) -0.3626(3)
F1 F 0.1750(6) 0.3061(6) -0.3872(6)
F2 F 0.2428(4) 0.2066(5) -0.1859(4)
F3 F 0.2782(5) 0.1049(5) -0.3079(4)
O8 O 0.0132(4) 0.1426(3) 0.0404(3)
N2 N -0.3530(5) -0.0712(3) -0.0286(3)
C16 C -0.3300(5) -0.2114(4) 0.0182(4)
C17 C -0.1783(6) -0.2769(4) 0.0486(4)
H9 H -0.0923 -0.2291 0.0354
N3 N -0.2494(5) -0.6940(3) 0.3053(3)
C18 C -0.2549(5) -0.6300(4) 0.1788(4)
C19 C -0.2588(6) -0.6292(4) 0.3894(4)
C20 C -0.2799(5) -0.4819(4) 0.1189(4)
C21 C -0.1529(6) -0.4129(4) 0.0985(4)
H10 H -0.0492 -0.4585 0.1187
C22 C -0.4556(6) -0.2788(4) 0.0298(5)
H11 H -0.5585 -0.2327 0.0035
C23 C -0.2360(7) -0.8392(4) 0.3642(5)
H12 H -0.3343 -0.8653 0.3471
H13 H -0.2147 -0.8732 0.4575
H14 H -0.1503 -0.8750 0.3267
C24 C -0.3791(7) 0.0033(4) -0.1696(4)
H15 H -0.4095 0.0965 -0.1905
H16 H -0.4626 -0.0291 -0.2006
H17 H -0.2824 -0.0079 -0.2114
C25 C -0.1314(6) -0.5737(4) 0.4070(4)
H18 H -0.0370 -0.5806 0.3658
C26 C -0.2887(6) -0.2414(4) 0.6783(4)
H19 H -0.3067 -0.3023 0.7665
H20 H -0.3714 -0.1657 0.6486
H21 H -0.1868 -0.2117 0.6769
O9 O 0.0178(5) 0.0201(3) -0.1334(3)
O10 O -0.2437(5) -0.6893(3) 0.1081(3)
O14 O -0.0153(4) 0.4190(3) -0.0796(3)
O15 O -0.4760(4) 0.3344(3) -0.0903(3)
Yb1_2 Yb -0.206900(9) -0.703390(8) -0.075110(8)
Yb1_3 Yb -0.206900(9) -0.703390(8) 0.924890(8)
O2_2 O -0.2822(4) 0.4939(3) -0.2396(3)
O10_2 O -0.2437(5) 0.3107(3) 0.1081(3)
S1 S -0.71932(15) -0.73410(11) 0.19576(12)
C9 C -0.7453(7) -0.8758(5) 0.3442(5)
O5 O -0.6827(5) -0.7894(4) 0.1024(4)
O6 O -0.5996(8) -0.6776(6) 0.2275(6)
O7 O -0.8694(5) -0.6563(4) 0.1618(4)
F4 F -0.8387(6) -0.9490(4) 0.3220(4)
F5 F -0.8116(6) -0.8373(4) 0.4274(3)
F6 F -0.6142(5) -0.9492(4) 0.3961(4)
S3 S -0.78100(18) -0.36501(13) 0.67363(18)
C27 C -0.8030(9) -0.2229(7) 0.7071(9)
O11 O -0.9285(4) -0.4077(3) 0.6938(3)
O12 O -0.6604(8) -0.4470(5) 0.7548(12)
O13 O -0.7433(13) -0.3166(9) 0.5440(10)
F7 F -0.6700(7) -0.1726(6) 0.6969(9)
F8 F -0.9044(6) -0.1317(4) 0.6221(7)
F9 F -0.8509(12) -0.2454(9) 0.8155(8)
N4 N -0.8301(7) -0.1560(7) 0.1459(6)
C28 C -0.7987(8) -0.2623(9) 0.2140(7)
C29 C -0.7567(10) -0.3998(7) 0.3010(9)
H22 H -0.7950 -0.4542 0.2629
H23 H -0.8043 -0.4173 0.3837
H24 H -0.6426 -0.4206 0.3152
loop_
_geom_bond_atom_site_label_1
_geom_bond_atom_site_label_2
_geom_bond_site_symmetry_1
_geom_bond_site_symmetry_2
O1 C1 1_555 1_555
C1 C6 1_555 1_555
C2 H1 1_555 1_555
Yb1 O1 1_555 1_555
S1 C9 1_555 1_555
S2 C15 1_555 1_555
C3 H2 1_555 1_555
C4 C3 1_555 1_555
H3 C4 1_555 1_555
C5 C4 1_555 1_555
C6 C3 1_555 1_555
C7 C5 1_555 1_555
H4 C7 1_555 1_555
C8 C6 1_555 1_555
H5 C8 1_555 1_555
C9 F4 1_555 1_555
C10 C11 1_555 1_555
C11 H6 1_555 1_555
C12 C10 1_555 1_555
C13 C10 1_555 1_555
H7 C13 1_555 1_555
C14 C13 1_555 1_555
H8 C14 1_555 1_555
N1 C5 1_555 1_555
O2 C12 1_555 1_555
C15 F1 1_555 1_555
O3 Yb1 1_555 1_555
O4 S2 1_555 1_555
F2 C15 1_555 1_555
F3 C15 1_555 1_555
O5 S1 1_555 1_555
O6 S1 1_555 1_555
O7 S1 1_555 1_555
F5 C9 1_555 1_555
F6 C9 1_555 1_555
O8 Yb1 1_555 1_555
N2 C1 1_555 1_555
C16 N2 1_555 1_555
C17 C16 1_555 1_555
H9 C17 1_555 1_555
N3 C18 1_555 1_555
C18 C20 1_555 1_555
C19 C14 1_555 1_555
C20 C2 1_555 1_555
C21 C17 1_555 1_555
H10 C21 1_555 1_555
C22 C2 1_555 1_555
H11 C22 1_555 1_555
C23 N3 1_555 1_555
H12 C23 1_555 1_555
H13 C23 1_555 1_555
H14 C23 1_555 1_555
C24 N2 1_555 1_555
H15 C24 1_555 1_555
H16 C24 1_555 1_555
H17 C24 1_555 1_555
C25 C11 1_555 1_555
H18 C25 1_555 1_555
C26 N1 1_555 1_555
H19 C26 1_555 1_555
H20 C26 1_555 1_555
H21 C26 1_555 1_555
O9 S2 1_555 1_555
O10 C18 1_555 1_555
S3 C27 1_555 1_555
C27 F7 1_555 1_555
O11 S3 1_555 1_555
O12 S3 1_555 1_555
O13 S3 1_555 1_555
F8 C27 1_555 1_555
F9 C27 1_555 1_555
O14 Yb1 1_555 1_555
O15 Yb1 1_555 1_555
N4 C28 1_555 1_555
C28 C29 1_555 1_555
C29 H22 1_555 1_555
H23 C29 1_555 1_555
H24 C29 1_555 1_555
Yb1_2 O10 1_555 1_555
Yb1_3 O2 1_555 1_555
O2_2 Yb1 1_555 1_555
O10_2 Yb1 1_555 1_555
S2 O3 1_555 1_555
C7 C8 1_555 1_555
C12 N1 1_555 1_555
C16 C22 1_555 1_555
N3 C19 1_555 1_555
C19 C25 1_555 1_555
C20 C21 1_555 1_555

#END
