
#######################################################################
#
#                 Cambridge Crystallographic Data Centre
#                                CCDC 
#
#######################################################################
#
# If this CIF has been generated from an entry in the Cambridge 
# Structural Database, then it will include bibliographic, chemical, 
# crystal, experimental, refinement or atomic coordinate data resulting 
# from the CCDC's data processing and validation procedures.
#
#######################################################################

data_NEMZIQ
_symmetry_cell_setting           triclinic
_symmetry_space_group_name_H-M   'P -1'
_symmetry_Int_Tables_number      2
_space_group_name_Hall           '-P 1'
loop_
_symmetry_equiv_pos_site_id
_symmetry_equiv_pos_as_xyz
1 x,y,z
2 -x,-y,-z
_cell_length_a                   8.2299(7)
_cell_length_b                   8.6086(8)
_cell_length_c                   12.2813(11)
_cell_angle_alpha                80.656(1)
_cell_angle_beta                 88.742(1)
_cell_angle_gamma                65.724(1)
_cell_volume                     781.671
loop_
_atom_site_label
_atom_site_type_symbol
_atom_site_fract_x
_atom_site_fract_y
_atom_site_fract_z
Ag1 Ag 0.03500(4) 0.85394(4) 0.20878(3)
Ag2 Ag 0.64673(4) 1.21947(4) 0.33643(3)
C1 C 0.3153(5) 1.3701(5) 0.1623(3)
H1 H 0.3150 1.4443 0.2130
H2 H 0.2083 1.4253 0.1156
H3 H 0.4173 1.3482 0.1178
C2 C 0.3240(5) 1.2027(4) 0.2257(3)
C3 C 0.2022(5) 1.1363(4) 0.2041(3)
H4 H 0.1087 1.2013 0.1521
C4 C 0.3477(4) 0.8951(4) 0.3318(3)
C5 C 0.4660(5) 0.9618(4) 0.3573(3)
H5 H 0.5544 0.8996 0.4128
C6 C 0.3661(5) 0.7174(4) 0.3865(3)
C7 C -0.0354(5) 0.5340(4) 0.3327(3)
H6 H 0.0627 0.5210 0.3754
C8 C -0.1010(4) 0.4100(4) 0.3523(3)
C9 C -0.0077(5) 0.2466(4) 0.4344(3)
C10 C -0.3179(5) 0.5654(5) 0.2159(3)
H7 H -0.4182 0.5795 0.1749
C11 C -0.2496(4) 0.6902(4) 0.1931(3)
C12 C -0.3312(5) 0.8424(5) 0.1035(3)
H8 H -0.3350 0.9439 0.1283
H9 H -0.4502 0.8582 0.0847
H10 H -0.2609 0.8233 0.0395
N1 N 0.4560(4) 1.1147(4) 0.3035(2)
N2 N 0.2148(4) 0.9829(4) 0.2553(2)
N3 N -0.1089(4) 0.6751(4) 0.2529(2)
N4 N -0.2452(4) 0.4267(4) 0.2941(2)
N5 N 0.1990(4) 0.7913(4) -0.0251(3)
O1 O 0.4817(3) 0.6502(3) 0.4680(2)
H11 H 0.4864 0.5546 0.4945
O2 O 0.2814(4) 0.6485(3) 0.3496(2)
O3 O 0.1290(3) 0.2225(3) 0.4840(2)
O4 O -0.0820(3) 0.1388(3) 0.4424(2)
O5 O 0.0595(5) 0.7896(6) 0.0143(3)
O6 O 0.3250(5) 0.7572(6) 0.0373(3)
O7 O 0.2031(5) 0.8296(4) -0.1270(3)
Ag1A Ag -0.03500(4) 1.14606(4) -0.20878(3)
Ag2_2 Ag -0.35327(4) 0.21947(4) 0.33643(3)
N4_2 N 0.7548(4) 1.4267(4) 0.2941(2)
O4_2 O 0.9180(3) 1.1388(3) 0.4424(2)
O7A O -0.2031(5) 1.1704(4) 0.1270(3)
loop_
_geom_bond_atom_site_label_1
_geom_bond_atom_site_label_2
_geom_bond_site_symmetry_1
_geom_bond_site_symmetry_2
Ag1 N2 1_555 1_555
Ag2 N1 1_555 1_555
C1 H1 1_555 1_555
H2 C1 1_555 1_555
H3 C1 1_555 1_555
C2 C1 1_555 1_555
C3 C2 1_555 1_555
H4 C3 1_555 1_555
C4 C5 1_555 1_555
C5 H5 1_555 1_555
C6 C4 1_555 1_555
C7 H6 1_555 1_555
C8 C7 1_555 1_555
C9 C8 1_555 1_555
C10 H7 1_555 1_555
C11 C10 1_555 1_555
C12 C11 1_555 1_555
H8 C12 1_555 1_555
H9 C12 1_555 1_555
H10 C12 1_555 1_555
N1 C2 1_555 1_555
N2 C3 1_555 1_555
N3 Ag1 1_555 1_555
N4 C8 1_555 1_555
N5 O5 1_555 1_555
O1 C6 1_555 1_555
H11 O1 1_555 1_555
O2 Ag1 1_555 1_555
O3 C9 1_555 1_555
O4 C9 1_555 1_555
O5 Ag1 1_555 1_555
O6 N5 1_555 1_555
O7 N5 1_555 1_555
Ag1A O7 1_555 1_555
Ag2_2 N4 1_555 1_555
N4_2 Ag2 1_555 1_555
O4_2 Ag2 1_555 1_555
O7A Ag1 1_555 1_555
C4 N2 1_555 1_555
C5 N1 1_555 1_555
C6 O2 1_555 1_555
C7 N3 1_555 1_555
C10 N4 1_555 1_555
C11 N3 1_555 1_555
O4 Ag2_2 1_555 1_555

#END
