
#######################################################################
#
#                 Cambridge Crystallographic Data Centre
#                                CCDC 
#
#######################################################################
#
# If this CIF has been generated from an entry in the Cambridge 
# Structural Database, then it will include bibliographic, chemical, 
# crystal, experimental, refinement or atomic coordinate data resulting 
# from the CCDC's data processing and validation procedures.
#
#######################################################################

data_NEMZOW
_symmetry_cell_setting           monoclinic
_symmetry_space_group_name_H-M   'P 21/n'
_symmetry_Int_Tables_number      14
_space_group_name_Hall           '-P 2yn'
loop_
_symmetry_equiv_pos_site_id
_symmetry_equiv_pos_as_xyz
1 x,y,z
2 1/2-x,1/2+y,1/2-z
3 -x,-y,-z
4 1/2+x,1/2-y,1/2+z
_cell_length_a                   9.7562(9)
_cell_length_b                   10.0567(9)
_cell_length_c                   13.6136(13)
_cell_angle_alpha                90
_cell_angle_beta                 100.534(1)
_cell_angle_gamma                90
_cell_volume                     1313.19
loop_
_atom_site_label
_atom_site_type_symbol
_atom_site_fract_x
_atom_site_fract_y
_atom_site_fract_z
O1 O -0.3381(3) 0.4908(3) 0.2186(2)
Ag1 Ag -0.57036(3) 0.37921(3) 0.14933(2)
Ag2 Ag -0.36715(4) 0.36664(4) 0.53117(2)
N1 N -0.0577(3) 0.7180(3) 0.4118(2)
C1 C -0.9612(5) 0.6564(6) -0.1626(3)
C2 C -0.8962(4) 0.7043(4) 0.1078(3)
C3 C -0.7975(4) 0.6093(4) 0.1418(3)
C4 C -0.1375(4) 0.6032(4) 0.5417(3)
N2 N -0.2216(3) 0.5247(3) 0.4787(2)
C5 C 0.0422(6) 0.7859(5) 0.5801(4)
O2 O -0.3616(3) 0.3500(3) 0.3401(2)
N3 N -0.9511(3) 0.7204(3) 0.0107(2)
N4 N -0.7513(3) 0.5269(3) 0.0776(2)
C6 C -0.8044(4) 0.5444(4) -0.0189(3)
C7 C -0.9043(4) 0.6396(4) -0.0542(3)
C8 C -0.2243(4) 0.5433(4) 0.3807(3)
C9 C -0.7401(4) 0.5938(4) 0.2530(3)
O3 O -0.6540(3) 0.5061(3) 0.2803(2)
C10 C -0.3177(4) 0.4531(4) 0.3071(3)
C11 C -0.1430(4) 0.6408(4) 0.3480(3)
O4 O -0.7836(3) 0.6743(3) 0.3094(2)
C12 C -0.0537(4) 0.6991(4) 0.5096(3)
H1 H -0.155(4) 0.644(4) 0.274(3)
H2 H -0.131(4) 0.591(4) 0.610(3)
H3 H -0.916(4) 0.757(4) 0.149(3)
H4 H -0.777(4) 0.493(4) -0.060(3)
H5 H -0.946(5) 0.741(6) -0.187(4)
H6 H -1.059(5) 0.655(4) -0.177(3)
H7 H -0.931(6) 0.586(6) -0.203(4)
H8 H 0.034(5) 0.864(5) 0.553(4)
H9 H 0.127(6) 0.762(5) 0.580(4)
H10 H 0.017(4) 0.786(4) 0.639(3)
Ag1A Ag 0.07036(3) 0.87921(3) 0.35067(2)
Ag1A_2 Ag -0.92964(3) 0.87921(3) 0.35067(2)
Ag2A Ag -1.13285(4) 0.86664(4) -0.03117(2)
Ag2B Ag -0.63285(4) 0.63336(4) 0.46883(2)
N1A N -0.4423(3) 0.2180(3) 0.0882(2)
N3A N -0.5489(3) 0.2204(3) 0.4893(2)
O3B O -0.3460(3) 0.4939(3) 0.7197(2)
O4A O -0.7164(3) 0.1743(3) 0.1906(2)
O4B O -0.2164(3) 0.3257(3) 0.6906(2)
loop_
_geom_bond_atom_site_label_1
_geom_bond_atom_site_label_2
_geom_bond_site_symmetry_1
_geom_bond_site_symmetry_2
O1 Ag1 1_555 1_555
Ag1 N4 1_555 1_555
Ag2 N2 1_555 1_555
N1 C11 1_555 1_555
C1 C7 1_555 1_555
C2 C3 1_555 1_555
C3 N4 1_555 1_555
C4 N2 1_555 1_555
N2 C8 1_555 1_555
C5 C12 1_555 1_555
O2 Ag2 1_555 1_555
N3 C2 1_555 1_555
N4 C6 1_555 1_555
C6 C7 1_555 1_555
C7 N3 1_555 1_555
C8 C10 1_555 1_555
C9 C3 1_555 1_555
O3 Ag1 1_555 1_555
C10 O1 1_555 1_555
C11 C8 1_555 1_555
O4 C9 1_555 1_555
C12 N1 1_555 1_555
H1 C11 1_555 1_555
H2 C4 1_555 1_555
H3 C2 1_555 1_555
H4 C6 1_555 1_555
H5 C1 1_555 1_555
H6 C1 1_555 1_555
H7 C1 1_555 1_555
H8 C5 1_555 1_555
H9 C5 1_555 1_555
H10 C5 1_555 1_555
Ag1A N1 1_555 1_555
Ag1A_2 O4 1_555 1_555
Ag2A N3 1_555 1_555
Ag2B O3 1_555 1_555
N1A Ag1 1_555 1_555
N3A Ag2 1_555 1_555
O3B Ag2 1_555 1_555
O4A Ag1 1_555 1_555
O4B Ag2 1_555 1_555
C4 C12 1_555 1_555
O2 C10 1_555 1_555
C9 O3 1_555 1_555
O4 Ag2B 1_555 1_555

#END
