
#######################################################################
#
#                 Cambridge Crystallographic Data Centre
#                                CCDC 
#
#######################################################################
#
# If this CIF has been generated from an entry in the Cambridge 
# Structural Database, then it will include bibliographic, chemical, 
# crystal, experimental, refinement or atomic coordinate data resulting 
# from the CCDC's data processing and validation procedures.
#
#######################################################################

data_NENBAK
_symmetry_cell_setting           monoclinic
_symmetry_space_group_name_H-M   'P 21/c'
_symmetry_Int_Tables_number      14
_space_group_name_Hall           '-P 2ybc'
loop_
_symmetry_equiv_pos_site_id
_symmetry_equiv_pos_as_xyz
1 x,y,z
2 -x,1/2+y,1/2-z
3 -x,-y,-z
4 x,1/2-y,1/2+z
_cell_length_a                   15.976(6)
_cell_length_b                   7.232(3)
_cell_length_c                   13.109(5)
_cell_angle_alpha                90
_cell_angle_beta                 95.374(4)
_cell_angle_gamma                90
_cell_volume                     1507.94
loop_
_atom_site_label
_atom_site_type_symbol
_atom_site_fract_x
_atom_site_fract_y
_atom_site_fract_z
Pb1 Pb 0.05266(2) 0.27425(6) 0.60801(3)
S1 S 0.12208(19) 0.5430(4) 0.9566(2)
S2 S 0.08736(18) -0.0932(4) 0.7308(2)
N1 N 0.1967(6) 0.3543(14) 0.5606(7)
N2 N 0.5539(10) 0.406(2) 0.2281(14)
N3 N 0.1334(6) 0.3518(16) 0.7753(7)
N4 N 0.0332(7) -0.3697(14) 0.5928(7)
C1 C 0.6042(13) 0.2602(19) 0.3824(15)
H1 H 0.5943 0.2149 0.4466
C2 C 0.6814(12) 0.247(2) 0.346(2)
H2 H 0.7249 0.1888 0.3862
C3 C 0.6962(10) 0.315(2) 0.2529(18)
H3 H 0.7497 0.3099 0.2304
C4 C 0.6330(13) 0.390(3) 0.1952(15)
H4 H 0.6421 0.4324 0.1302
C5 C 0.5427(8) 0.343(2) 0.3202(13)
C6 C 0.4578(9) 0.370(3) 0.3560(14)
H5 H 0.4173 0.4313 0.3127
C7 C 0.4375(10) 0.315(2) 0.4429(13)
H6 H 0.4788 0.2550 0.4856
C8 C 0.3530(8) 0.337(2) 0.4817(11)
C9 C 0.2847(9) 0.4300(19) 0.4317(10)
H7 H 0.2905 0.4890 0.3697
C10 C 0.2076(8) 0.4352(19) 0.4733(9)
H8 H 0.1628 0.4976 0.4384
C11 C 0.2632(10) 0.2696(18) 0.6119(12)
H9 H 0.2571 0.2165 0.6754
C12 C 0.3388(9) 0.2604(18) 0.5729(15)
H10 H 0.3827 0.1988 0.6102
C13 C 0.1297(6) 0.4309(15) 0.8507(8)
C14 C 0.0546(7) -0.2558(14) 0.6499(11)
Pb1_2 Pb 0.05266(2) -0.72575(6) 0.60801(3)
N4_2 N 0.0332(7) 0.6303(14) 0.5928(7)
loop_
_geom_bond_atom_site_label_1
_geom_bond_atom_site_label_2
_geom_bond_site_symmetry_1
_geom_bond_site_symmetry_2
Pb1 S2 1_555 1_555
S1 C13 1_555 1_555
S2 C14 1_555 1_555
N1 Pb1 1_555 1_555
N2 C4 1_555 1_555
N3 Pb1 1_555 1_555
N4 C14 1_555 1_555
C1 H1 1_555 1_555
C2 C1 1_555 1_555
H2 C2 1_555 1_555
C3 C2 1_555 1_555
H3 C3 1_555 1_555
C4 C3 1_555 1_555
H4 C4 1_555 1_555
C5 N2 1_555 1_555
C6 C5 1_555 1_555
H5 C6 1_555 1_555
C7 C6 1_555 1_555
H6 C7 1_555 1_555
C8 C7 1_555 1_555
C9 C8 1_555 1_555
H7 C9 1_555 1_555
C10 N1 1_555 1_555
H8 C10 1_555 1_555
C11 N1 1_555 1_555
H9 C11 1_555 1_555
C12 C8 1_555 1_555
H10 C12 1_555 1_555
C13 N3 1_555 1_555
Pb1_2 N4 1_555 1_555
N4_2 Pb1 1_555 1_555
C1 C5 1_555 1_555
C9 C10 1_555 1_555
C11 C12 1_555 1_555

#END
