
#######################################################################
#
#                 Cambridge Crystallographic Data Centre
#                                CCDC 
#
#######################################################################
#
# If this CIF has been generated from an entry in the Cambridge 
# Structural Database, then it will include bibliographic, chemical, 
# crystal, experimental, refinement or atomic coordinate data resulting 
# from the CCDC's data processing and validation procedures.
#
#######################################################################

data_NENBUF
_symmetry_cell_setting           monoclinic
_symmetry_space_group_name_H-M   'P 21/n'
_symmetry_Int_Tables_number      14
_space_group_name_Hall           '-P 2yn'
loop_
_symmetry_equiv_pos_site_id
_symmetry_equiv_pos_as_xyz
1 x,y,z
2 1/2-x,1/2+y,1/2-z
3 -x,-y,-z
4 1/2+x,1/2-y,1/2+z
_cell_length_a                   28.0037(3)
_cell_length_b                   8.4476(1)
_cell_length_c                   28.9991(3)
_cell_angle_alpha                90
_cell_angle_beta                 114.453(1)
_cell_angle_gamma                90
_cell_volume                     6244.8
loop_
_atom_site_label
_atom_site_type_symbol
_atom_site_fract_x
_atom_site_fract_y
_atom_site_fract_z
Zn1 Zn -0.382690(18) 0.20022(6) -0.034370(18)
Zn2 Zn -0.515230(17) 0.25568(5) 0.005230(17)
S1 S -0.51816(5) 0.30035(16) -0.17269(4)
S2 S -0.33471(5) 0.18893(15) 0.14606(4)
P1 P -0.47798(4) 0.45839(13) -0.07053(4)
P2 P -0.41224(4) 0.03608(13) 0.05107(4)
N1 N -0.34480(13) 0.1273(4) -0.08043(13)
N2 N -0.30628(13) 0.3071(4) 0.00301(13)
C1 C -0.57125(18) 0.3176(6) -0.23345(16)
C2 C -0.6200(2) 0.2643(7) -0.2408(2)
H1 H -0.6263 0.2281 -0.2135
C3 C -0.6595(2) 0.2649(8) -0.2887(3)
H2 H -0.6926 0.2277 -0.2940
C4 C -0.6503(3) 0.3201(8) -0.3286(2)
H3 H -0.6773 0.3205 -0.3610
C5 C -0.6025(3) 0.3737(9) -0.3216(2)
H4 H -0.5967 0.4114 -0.3489
C6 C -0.5614(2) 0.3728(7) -0.2730(2)
H5 H -0.5282 0.4089 -0.2678
C7 C -0.52008(16) 0.4704(5) -0.13862(15)
H6 H -0.5560 0.4882 -0.1431
H7 H -0.5094 0.5609 -0.1526
C8 C -0.31267(18) 0.1723(6) 0.21243(16)
C9 C -0.2685(2) 0.0864(7) 0.23994(19)
H8 H -0.2532 0.0238 0.2233
C10 C -0.2466(3) 0.0923(8) 0.2919(2)
H9 H -0.2164 0.0346 0.3105
C11 C -0.2691(3) 0.1819(9) 0.3157(2)
H10 H -0.2535 0.1876 0.3509
C12 C -0.3138(3) 0.2642(9) 0.2898(3)
H11 H -0.3294 0.3229 0.3070
C13 C -0.3359(2) 0.2596(7) 0.2372(2)
H12 H -0.3665 0.3158 0.2188
C14 C -0.37190(15) 0.0175(5) 0.11947(14)
H13 H -0.3946 -0.0042 0.1365
H14 H -0.3483 -0.0717 0.1254
C15 C -0.36432(19) 0.0397(6) -0.12216(18)
H15 H -0.3990 0.0059 -0.1342
C16 C -0.3341(2) -0.0033(6) -0.14859(19)
H16 H -0.3487 -0.0662 -0.1774
C17 C -0.2838(2) 0.0463(6) -0.1323(2)
H17 H -0.2637 0.0178 -0.1496
C18 C -0.26271(17) 0.1403(5) -0.08923(17)
C19 C -0.21003(19) 0.1989(6) -0.0698(2)
H18 H -0.1888 0.1745 -0.0864
C20 C -0.19083(18) 0.2897(6) -0.0274(2)
H19 H -0.1564 0.3261 -0.0153
C21 C -0.22177(16) 0.3301(5) -0.00141(17)
C22 C -0.20474(19) 0.4229(6) 0.04184(19)
H20 H -0.1710 0.4646 0.0551
C23 C -0.2374(2) 0.4531(6) 0.06491(19)
H21 H -0.2258 0.5133 0.0944
C24 C -0.28857(19) 0.3929(6) 0.04407(18)
H22 H -0.3106 0.4149 0.0600
C25 C -0.27383(16) 0.2746(5) -0.01951(16)
C26 C -0.29442(15) 0.1778(5) -0.06395(15)
O1 O -0.51071(11) 0.3734(4) -0.04829(10)
O2 O -0.46670(11) 0.6288(3) -0.05352(10)
O3 O -0.42921(10) 0.3726(3) -0.06619(10)
O4 O -0.53010(14) 0.1665(4) -0.14837(12)
O5 O -0.47098(13) 0.3000(6) -0.17988(14)
O6 O -0.46257(11) 0.1118(4) 0.04726(10)
O7 O -0.38058(11) 0.1330(4) 0.03033(10)
O8 O -0.42009(10) -0.1313(3) 0.03079(11)
O9 O -0.36904(17) 0.3232(4) 0.13088(13)
O10 O -0.28946(14) 0.1869(6) 0.13591(13)
O21 O -0.44306(12) 0.0164(4) -0.07406(11)
Zn2B Zn -0.484770(17) -0.25568(5) -0.005230(17)
Zn2B_2 Zn -0.484770(17) 0.74432(5) -0.005230(17)
O2B O -0.53330(11) 0.3712(3) 0.05352(10)
O8B O -0.57991(10) 0.1313(3) -0.03079(11)
Zn3 Zn 0.153790(18) 0.20401(6) 0.026060(18)
Zn4 Zn -0.010050(17) 0.24219(5) 0.009810(17)
S3 S 0.06279(5) 0.28999(15) -0.13353(4)
S4 S 0.14058(5) -0.06638(15) 0.18545(4)
P3 P 0.05551(4) 0.43678(13) -0.04072(4)
P4 P 0.08312(4) 0.02812(13) 0.07059(4)
N3 N 0.21865(13) 0.1779(4) 0.00746(13)
N4 N 0.21302(13) 0.3389(4) 0.08519(13)
C27 C 0.03232(18) 0.3104(5) -0.19997(16)
C28 C 0.0591(2) 0.3775(6) -0.2251(2)
H23 H 0.0921 0.4215 -0.2075
C29 C 0.0352(3) 0.3781(8) -0.2778(3)
H24 H 0.0530 0.4213 -0.2956
C30 C -0.0135(4) 0.3170(9) -0.3036(2)
H25 H -0.0288 0.3190 -0.3388
C31 C -0.0397(3) 0.2530(8) -0.2779(2)
H26 H -0.0731 0.2114 -0.2956
C32 C -0.0172(2) 0.2495(6) -0.22612(19)
H27 H -0.0354 0.2060 -0.2086
C33 C 0.04115(16) 0.4522(5) -0.10855(15)
H28 H 0.0035 0.4632 -0.1275
H29 H 0.0574 0.5478 -0.1138
C34 C 0.1287(2) 0.1295(6) 0.19945(17)
C35 C 0.0826(3) 0.1651(8) 0.2021(2)
H30 H 0.0573 0.0868 0.1959
C36 C 0.0728(3) 0.3174(10) 0.2142(3)
H31 H 0.0416 0.3417 0.2166
C37 C 0.1098(4) 0.4287(9) 0.2222(3)
H32 H 0.1028 0.5319 0.2287
C38 C 0.1565(4) 0.3969(9) 0.2211(3)
H33 H 0.1816 0.4762 0.2279
C39 C 0.1670(3) 0.2411(8) 0.2096(2)
H34 H 0.1990 0.2156 0.2090
C40 C 0.09331(17) -0.1055(5) 0.12350(15)
H35 H 0.1015 -0.2087 0.1140
H36 H 0.0598 -0.1158 0.1256
C41 C 0.22100(19) 0.1013(6) -0.03098(19)
H37 H 0.1913 0.0473 -0.0527
C42 C 0.2657(2) 0.0964(7) -0.0411(2)
H38 H 0.2658 0.0398 -0.0685
C43 C 0.3087(2) 0.1762(7) -0.0097(2)
H39 H 0.3386 0.1764 -0.0162
C44 C 0.30894(18) 0.2590(6) 0.0325(2)
C45 C 0.35235(18) 0.3457(6) 0.0668(2)
H40 H 0.3833 0.3474 0.0621
C46 C 0.35021(18) 0.4247(7) 0.1054(2)
H41 H 0.3795 0.4810 0.1269
C47 C 0.30363(17) 0.4253(6) 0.11484(18)
C48 C 0.2985(2) 0.5032(7) 0.1547(2)
H42 H 0.3268 0.5576 0.1785
C49 C 0.2510(2) 0.4998(7) 0.1588(2)
H43 H 0.2471 0.5527 0.1852
C50 C 0.2094(2) 0.4168(7) 0.12342(18)
H44 H 0.1777 0.4154 0.1265
C51 C 0.25943(16) 0.3421(5) 0.08063(17)
C52 C 0.26224(16) 0.2563(5) 0.03928(17)
O11 O 0.05116(11) 0.6059(4) -0.02657(12)
O12 O 0.11053(10) 0.3753(3) -0.01448(10)
O13 O 0.01420(11) 0.3276(4) -0.03833(11)
O14 O 0.04250(14) 0.1459(4) -0.12146(12)
O15 O 0.11829(12) 0.3038(5) -0.11841(13)
O16 O 0.13496(10) 0.0989(3) 0.07739(10)
O17 O 0.06196(10) -0.0803(3) 0.02453(10)
O18 O 0.04348(10) 0.1511(4) 0.07058(10)
O19 O 0.19211(12) -0.0735(5) 0.18633(13)
O20 O 0.12919(14) -0.1701(4) 0.21894(12)
O22 O 0.11428(11) 0.0191(3) -0.02896(10)
Zn4B Zn 0.010050(17) -0.24219(5) -0.009810(17)
Zn4B_2 Zn 0.010050(17) 0.75781(5) -0.009810(17)
O11B O -0.05116(11) 0.3941(4) 0.02657(12)
O17B O -0.06196(10) 0.0803(3) -0.02453(10)
O23 O -0.35725(18) 1.6313(5) 0.1002(2)
O24 O -0.0846(2) -0.4848(8) -0.1002(3)
loop_
_geom_bond_atom_site_label_1
_geom_bond_atom_site_label_2
_geom_bond_site_symmetry_1
_geom_bond_site_symmetry_2
Zn1 N1 1_555 1_555
Zn2 O1 1_555 1_555
Zn3 N3 1_555 1_555
Zn4 O13 1_555 1_555
S1 C1 1_555 1_555
S2 C8 1_555 1_555
S3 C27 1_555 1_555
S4 C34 1_555 1_555
P1 C7 1_555 1_555
P2 C14 1_555 1_555
P3 C33 1_555 1_555
P4 C40 1_555 1_555
N1 C15 1_555 1_555
N2 Zn1 1_555 1_555
N3 C41 1_555 1_555
N4 Zn3 1_555 1_555
C1 C2 1_555 1_555
C2 H1 1_555 1_555
C3 C2 1_555 1_555
H2 C3 1_555 1_555
C4 C3 1_555 1_555
H3 C4 1_555 1_555
C5 C4 1_555 1_555
H4 C5 1_555 1_555
C6 C1 1_555 1_555
H5 C6 1_555 1_555
C7 S1 1_555 1_555
H6 C7 1_555 1_555
H7 C7 1_555 1_555
C8 C9 1_555 1_555
C9 H8 1_555 1_555
C10 C9 1_555 1_555
H9 C10 1_555 1_555
C11 C10 1_555 1_555
H10 C11 1_555 1_555
C12 C11 1_555 1_555
H11 C12 1_555 1_555
C13 C8 1_555 1_555
H12 C13 1_555 1_555
C14 S2 1_555 1_555
H13 C14 1_555 1_555
H14 C14 1_555 1_555
C15 H15 1_555 1_555
C16 C15 1_555 1_555
H16 C16 1_555 1_555
C17 C16 1_555 1_555
H17 C17 1_555 1_555
C18 C17 1_555 1_555
C19 C18 1_555 1_555
H18 C19 1_555 1_555
C20 C19 1_555 1_555
H19 C20 1_555 1_555
C21 C20 1_555 1_555
C22 C21 1_555 1_555
H20 C22 1_555 1_555
C23 C22 1_555 1_555
H21 C23 1_555 1_555
C24 N2 1_555 1_555
H22 C24 1_555 1_555
C25 N2 1_555 1_555
C26 N1 1_555 1_555
C27 C28 1_555 1_555
C28 H23 1_555 1_555
C29 C28 1_555 1_555
H24 C29 1_555 1_555
C30 C29 1_555 1_555
H25 C30 1_555 1_555
C31 C30 1_555 1_555
H26 C31 1_555 1_555
C32 C27 1_555 1_555
H27 C32 1_555 1_555
C33 S3 1_555 1_555
H28 C33 1_555 1_555
H29 C33 1_555 1_555
C34 C35 1_555 1_555
C35 H30 1_555 1_555
C36 C35 1_555 1_555
H31 C36 1_555 1_555
C37 C36 1_555 1_555
H32 C37 1_555 1_555
C38 C37 1_555 1_555
H33 C38 1_555 1_555
C39 C34 1_555 1_555
H34 C39 1_555 1_555
C40 S4 1_555 1_555
H35 C40 1_555 1_555
H36 C40 1_555 1_555
C41 H37 1_555 1_555
C42 C41 1_555 1_555
H38 C42 1_555 1_555
C43 C42 1_555 1_555
H39 C43 1_555 1_555
C44 C43 1_555 1_555
C45 C44 1_555 1_555
H40 C45 1_555 1_555
C46 C45 1_555 1_555
H41 C46 1_555 1_555
C47 C46 1_555 1_555
C48 C47 1_555 1_555
H42 C48 1_555 1_555
C49 C48 1_555 1_555
H43 C49 1_555 1_555
C50 N4 1_555 1_555
H44 C50 1_555 1_555
C51 N4 1_555 1_555
C52 N3 1_555 1_555
O1 P1 1_555 1_555
O2 P1 1_555 1_555
O3 Zn1 1_555 1_555
O4 S1 1_555 1_555
O5 S1 1_555 1_555
O6 Zn2 1_555 1_555
O7 Zn1 1_555 1_555
O8 P2 1_555 1_555
O9 S2 1_555 1_555
O10 S2 1_555 1_555
O11 P3 1_555 1_555
O12 Zn3 1_555 1_555
O13 P3 1_555 1_555
O14 S3 1_555 1_555
O15 S3 1_555 1_555
O16 Zn3 1_555 1_555
O17 P4 1_555 1_555
O18 Zn4 1_555 1_555
O19 S4 1_555 1_555
O20 S4 1_555 1_555
O21 Zn1 1_555 1_555
O22 Zn3 1_555 1_555
Zn2B O8 1_555 1_555
Zn2B_2 O2 1_555 1_555
Zn4B O17 1_555 1_555
Zn4B_2 O11 1_555 1_555
O2B Zn2 1_555 1_555
O8B Zn2 1_555 1_555
O11B Zn4 1_555 1_555
O17B Zn4 1_555 1_555
P1 O3 1_555 1_555
P2 O6 1_555 1_555
P2 O7 1_555 1_555
P3 O12 1_555 1_555
P4 O16 1_555 1_555
P4 O18 1_555 1_555
C5 C6 1_555 1_555
C12 C13 1_555 1_555
C18 C26 1_555 1_555
C21 C25 1_555 1_555
C23 C24 1_555 1_555
C25 C26 1_555 1_555
C31 C32 1_555 1_555
C38 C39 1_555 1_555
C44 C52 1_555 1_555
C47 C51 1_555 1_555
C49 C50 1_555 1_555
C51 C52 1_555 1_555

#END
