
#######################################################################
#
#                 Cambridge Crystallographic Data Centre
#                                CCDC 
#
#######################################################################
#
# If this CIF has been generated from an entry in the Cambridge 
# Structural Database, then it will include bibliographic, chemical, 
# crystal, experimental, refinement or atomic coordinate data resulting 
# from the CCDC's data processing and validation procedures.
#
#######################################################################

data_NENBOX01
_symmetry_cell_setting           triclinic
_symmetry_space_group_name_H-M   'P -1'
_symmetry_Int_Tables_number      2
_space_group_name_Hall           '-P 1'
loop_
_symmetry_equiv_pos_site_id
_symmetry_equiv_pos_as_xyz
1 x,y,z
2 -x,-y,-z
_cell_length_a                   7.491(2)
_cell_length_b                   8.250(2)
_cell_length_c                   10.292(1)
_cell_angle_alpha                83.19(1)
_cell_angle_beta                 86.09(1)
_cell_angle_gamma                71.18(2)
_cell_volume                     597.497
loop_
_atom_site_label
_atom_site_type_symbol
_atom_site_fract_x
_atom_site_fract_y
_atom_site_fract_z
Mn1 Mn 0.5000 0.5000 0.5000
Cr1 Cr 0.96181(14) 0.20231(11) 0.43787(8)
O1 O 0.6721(5) 0.5513(4) 0.6465(3)
H1 H 0.7498 0.5929 0.6090
H2 H 0.7070 0.4878 0.7229
O2 O 0.7353(5) 0.3002(5) 0.4298(3)
O3 O 0.9915(13) -0.0264(9) 0.4362(7)
O4 O 1.0537(9) 0.2935(13) 0.5196(7)
O5 O 1.0604(9) 0.2051(11) 0.3007(5)
N1 N 0.5808(6) 0.6981(5) 0.3584(3)
N2 N 0.7666(7) 1.3233(6) -0.1230(4)
C1 C 0.7026(8) 0.6532(6) 0.2576(4)
H3 H 0.7589 0.5366 0.2490
C2 C 0.7492(8) 0.7697(6) 0.1662(4)
H4 H 0.8335 0.7304 0.0975
C3 C 0.6722(7) 0.9446(6) 0.1750(3)
C4 C 0.7100(7) 1.0745(6) 0.0745(4)
C5 C 0.7677(8) 1.0370(7) -0.0542(4)
H5 H 0.7888 0.9265 -0.0770
C6 C 0.7931(8) 1.1626(7) -0.1461(4)
H6 H 0.8316 1.1330 -0.2304
C7 C 0.7175(9) 1.3576(7) 0.0014(5)
H7 H 0.7020 1.4683 0.0218
C8 C 0.6887(8) 1.2417(7) 0.0999(4)
H8 H 0.6549 1.2744 0.1838
C9 C 0.5481(7) 0.9930(6) 0.2820(4)
H9 H 0.4941 1.1088 0.2946
C10 C 0.5060(7) 0.8683(6) 0.3688(4)
H10 H 0.4215 0.9037 0.4382
Cr1A Cr 0.03819(14) 0.79769(11) 0.56213(8)
Cr1A_2 Cr 1.03819(14) -0.20231(11) 0.56213(8)
O1A O 0.3279(5) 0.4487(4) 0.3535(3)
H1A H 0.2502 0.4071 0.3910
H2A H 0.2930 0.5122 0.2771
O2A O 0.2647(5) 0.6998(5) 0.5702(3)
O3A O 1.0085(13) 0.0264(9) 0.5638(7)
O3A_2 O 0.0085(13) 1.0264(9) 0.5638(7)
O3_2 O -0.0085(13) 0.9736(9) 0.4362(7)
O4A O -0.0537(9) 0.7065(13) 0.4804(7)
O5A O -0.0604(9) 0.7949(11) 0.6993(5)
N1A N 0.4192(6) 0.3019(5) 0.6416(3)
N2A N 0.2334(7) -0.3233(6) 1.1230(4)
C1A C 0.2974(8) 0.3468(6) 0.7424(4)
H3A H 0.2411 0.4634 0.7510
C2A C 0.2508(8) 0.2303(6) 0.8338(4)
H4A H 0.1665 0.2696 0.9025
C3A C 0.3278(7) 0.0554(6) 0.8250(3)
C4A C 0.2900(7) -0.0745(6) 0.9255(4)
C5A C 0.2323(8) -0.0370(7) 1.0542(4)
H5A H 0.2112 0.0735 1.0770
C6A C 0.2069(8) -0.1626(7) 1.1461(4)
H6A H 0.1684 -0.1330 1.2304
C7A C 0.2825(9) -0.3576(7) 0.9986(5)
H7A H 0.2980 -0.4683 0.9782
C8A C 0.3113(8) -0.2417(7) 0.9001(4)
H8A H 0.3451 -0.2744 0.8162
C9A C 0.4519(7) 0.0070(6) 0.7180(4)
H9A H 0.5059 -0.1088 0.7054
C10A C 0.4940(7) 0.1317(6) 0.6312(4)
H10A H 0.5785 0.0963 0.5618
loop_
_geom_bond_atom_site_label_1
_geom_bond_atom_site_label_2
_geom_bond_site_symmetry_1
_geom_bond_site_symmetry_2
Mn1 O1 1_555 1_555
Cr1 O2 1_555 1_555
O1 H1 1_555 1_555
H2 O1 1_555 1_555
O2 Mn1 1_555 1_555
O3 Cr1 1_555 1_555
O4 Cr1 1_555 1_555
O5 Cr1 1_555 1_555
N1 Mn1 1_555 1_555
N2 C6 1_555 1_555
C1 N1 1_555 1_555
H3 C1 1_555 1_555
C2 C1 1_555 1_555
H4 C2 1_555 1_555
C3 C2 1_555 1_555
C4 C3 1_555 1_555
C5 C4 1_555 1_555
H5 C5 1_555 1_555
C6 C5 1_555 1_555
H6 C6 1_555 1_555
C7 N2 1_555 1_555
H7 C7 1_555 1_555
C8 C4 1_555 1_555
H8 C8 1_555 1_555
C9 C3 1_555 1_555
H9 C9 1_555 1_555
C10 N1 1_555 1_555
H10 C10 1_555 1_555
Cr1A O2A 1_555 1_555
Cr1A_2 O3 1_555 1_555
O1A Mn1 1_555 1_555
H1A O1A 1_555 1_555
H2A O1A 1_555 1_555
O2A Mn1 1_555 1_555
O3A Cr1 1_555 1_555
O3A_2 Cr1A 1_555 1_555
O3_2 Cr1A 1_555 1_555
O4A Cr1A 1_555 1_555
O5A Cr1A 1_555 1_555
N1A Mn1 1_555 1_555
N2A C6A 1_555 1_555
C1A N1A 1_555 1_555
H3A C1A 1_555 1_555
C2A C1A 1_555 1_555
H4A C2A 1_555 1_555
C3A C2A 1_555 1_555
C4A C3A 1_555 1_555
C5A C4A 1_555 1_555
H5A C5A 1_555 1_555
C6A C5A 1_555 1_555
H6A C6A 1_555 1_555
C7A N2A 1_555 1_555
H7A C7A 1_555 1_555
C8A C4A 1_555 1_555
H8A C8A 1_555 1_555
C9A C3A 1_555 1_555
H9A C9A 1_555 1_555
C10A N1A 1_555 1_555
H10A C10A 1_555 1_555
O3 O3A 1_555 1_555
C7 C8 1_555 1_555
C9 C10 1_555 1_555
Cr1A_2 O3A 1_555 1_555
O3A_2 O3_2 1_555 1_555
C7A C8A 1_555 1_555
C9A C10A 1_555 1_555

#END
