
#######################################################################
#
#                 Cambridge Crystallographic Data Centre
#                                CCDC 
#
#######################################################################
#
# If this CIF has been generated from an entry in the Cambridge 
# Structural Database, then it will include bibliographic, chemical, 
# crystal, experimental, refinement or atomic coordinate data resulting 
# from the CCDC's data processing and validation procedures.
#
#######################################################################

data_NENCAK02
_symmetry_cell_setting           monoclinic
_symmetry_space_group_name_H-M   'C 2/c'
_symmetry_Int_Tables_number      15
_space_group_name_Hall           '-C 2yn'
loop_
_symmetry_equiv_pos_site_id
_symmetry_equiv_pos_as_xyz
1 x,y,z
2 1/2+x,1/2+y,z
3 x,-y,1/2+z
4 1/2+x,1/2-y,1/2+z
5 -x,-y,-z
6 1/2-x,1/2-y,-z
7 -x,y,1/2-z
8 1/2-x,1/2+y,1/2-z
_cell_length_a                   21.512(8)
_cell_length_b                   15.328(6)
_cell_length_c                   16.904(6)
_cell_angle_alpha                90
_cell_angle_beta                 127.176(6)
_cell_angle_gamma                90
_cell_volume                     4441.15
loop_
_atom_site_label
_atom_site_type_symbol
_atom_site_fract_x
_atom_site_fract_y
_atom_site_fract_z
Co1 Co -0.86515(4) 0.25131(4) -0.87867(4)
Cr1 Cr -0.57188(5) 0.26574(5) -0.49582(6)
Cr2 Cr -0.66640(5) 0.20518(6) -0.72286(6)
O1 O -0.5947(3) 0.3663(3) -0.5173(3)
O2 O -0.5735(2) 0.2342(3) -0.4069(3)
O3 O -0.48482(19) 0.2513(2) -0.4667(2)
O4 O -0.6424(2) 0.2026(3) -0.6020(3)
O5 O -0.5966(2) 0.2472(3) -0.7203(3)
O6 O -0.6821(3) 0.1076(3) -0.7630(3)
O7 O -0.7463(2) 0.2636(2) -0.7957(3)
N1 N -0.8598(2) 0.3424(2) -0.7807(3)
N2 N -0.8777(2) 0.6395(2) -0.4724(3)
N3 N -0.8672(2) -0.1626(2) -0.4779(3)
N4 N -0.8672(2) 0.1427(2) -0.7940(3)
C1 C -0.9095(3) 0.6555(3) -0.5687(4)
H1 H -0.9361 0.7077 -0.5966
C2 C -0.9045(3) 0.5989(3) -0.6271(4)
H2 H -0.9238 0.6151 -0.6912
C3 C -0.8443(3) 0.4965(3) -0.4953(4)
H3 H -0.8244 0.4413 -0.4693
C4 C -0.8706(3) 0.5168(3) -0.5909(4)
C5 C -0.8478(3) 0.5585(3) -0.4390(4)
H4 H -0.8285 0.5440 -0.3745
C6 C -0.9187(3) 0.3983(3) -0.8155(4)
H5 H -0.9587 0.3985 -0.8834
C7 C -0.9235(3) 0.4552(3) -0.7571(4)
H6 H -0.9655 0.4935 -0.7857
C8 C -0.8650(3) 0.4559(3) -0.6535(4)
C9 C -0.8029(3) 0.3993(3) -0.6167(4)
H7 H -0.7619 0.3979 -0.5491
C10 C -0.8026(3) 0.3450(4) -0.6819(4)
H8 H -0.7602 0.3078 -0.6560
C11 C -0.9249(3) -0.1034(3) -0.5312(3)
H9 H -0.9639 -0.1011 -0.5230
C12 C -0.9289(3) -0.0464(3) -0.5969(3)
H10 H -0.9683 -0.0047 -0.6292
C13 C -0.8739(3) -0.0509(3) -0.6151(3)
C14 C -0.8161(3) -0.1159(3) -0.5631(3)
H11 H -0.7792 -0.1239 -0.5744
C15 C -0.8149(3) -0.1671(3) -0.4959(3)
H12 H -0.7749 -0.2078 -0.4604
C16 C -0.8732(3) 0.0129(3) -0.6801(3)
C17 C -0.8983(3) 0.0983(3) -0.6856(3)
H13 H -0.9169 0.1139 -0.6502
C18 C -0.8957(3) 0.1586(3) -0.7424(4)
H14 H -0.9146 0.2143 -0.7461
C19 C -0.8438(3) 0.0599(3) -0.7896(3)
H15 H -0.8244 0.0462 -0.8245
C20 C -0.8472(3) -0.0053(3) -0.7363(3)
H16 H -0.8320 -0.0617 -0.7378
Co1C Co -0.36515(4) 0.24869(4) -0.37867(4)
O3C O -0.98482(19) 0.2487(2) -0.9667(2)
Co1B Co -0.86515(4) 0.74869(4) -0.37867(4)
Co1B_2 Co -0.86515(4) -0.25131(4) -0.37867(4)
N2B N -0.8777(2) 0.3605(2) -0.9724(3)
N3B N -0.8672(2) 0.1626(2) -0.9779(3)
loop_
_geom_bond_atom_site_label_1
_geom_bond_atom_site_label_2
_geom_bond_site_symmetry_1
_geom_bond_site_symmetry_2
Co1 O7 1_555 1_555
Cr1 O1 1_555 1_555
Cr2 O4 1_555 1_555
O2 Cr1 1_555 1_555
O3 Cr1 1_555 1_555
O4 Cr1 1_555 1_555
O5 Cr2 1_555 1_555
O6 Cr2 1_555 1_555
O7 Cr2 1_555 1_555
N1 Co1 1_555 1_555
N2 C1 1_555 1_555
N3 C11 1_555 1_555
N4 Co1 1_555 1_555
C1 H1 1_555 1_555
C2 C1 1_555 1_555
H2 C2 1_555 1_555
C3 H3 1_555 1_555
C4 C2 1_555 1_555
C5 N2 1_555 1_555
H4 C5 1_555 1_555
C6 N1 1_555 1_555
H5 C6 1_555 1_555
C7 C6 1_555 1_555
H6 C7 1_555 1_555
C8 C4 1_555 1_555
C9 C8 1_555 1_555
H7 C9 1_555 1_555
C10 N1 1_555 1_555
H8 C10 1_555 1_555
C11 H9 1_555 1_555
C12 C11 1_555 1_555
H10 C12 1_555 1_555
C13 C12 1_555 1_555
C14 C13 1_555 1_555
H11 C14 1_555 1_555
C15 N3 1_555 1_555
H12 C15 1_555 1_555
C16 C13 1_555 1_555
C17 C16 1_555 1_555
H13 C17 1_555 1_555
C18 N4 1_555 1_555
H14 C18 1_555 1_555
C19 N4 1_555 1_555
H15 C19 1_555 1_555
C20 C16 1_555 1_555
H16 C20 1_555 1_555
Co1C O3 1_555 1_555
O3C Co1 1_555 1_555
Co1B N2 1_555 1_555
Co1B_2 N3 1_555 1_555
N2B Co1 1_555 1_555
N3B Co1 1_555 1_555
C3 C5 1_555 1_555
C3 C4 1_555 1_555
C7 C8 1_555 1_555
C9 C10 1_555 1_555
C14 C15 1_555 1_555
C17 C18 1_555 1_555
C19 C20 1_555 1_555

#END
