
#######################################################################
#
#                 Cambridge Crystallographic Data Centre
#                                CCDC 
#
#######################################################################
#
# If this CIF has been generated from an entry in the Cambridge 
# Structural Database, then it will include bibliographic, chemical, 
# crystal, experimental, refinement or atomic coordinate data resulting 
# from the CCDC's data processing and validation procedures.
#
#######################################################################

data_NENCAK
_symmetry_cell_setting           monoclinic
_symmetry_space_group_name_H-M   'C 2/c'
_symmetry_Int_Tables_number      15
_space_group_name_Hall           '-C 2yn'
loop_
_symmetry_equiv_pos_site_id
_symmetry_equiv_pos_as_xyz
1 x,y,z
2 x,-y,1/2+z
3 1/2+x,1/2+y,z
4 1/2+x,1/2-y,1/2+z
5 -x,-y,-z
6 -x,y,1/2-z
7 1/2-x,1/2-y,-z
8 1/2-x,1/2+y,1/2-z
_cell_length_a                   21.3569(3)
_cell_length_b                   15.3164(2)
_cell_length_c                   16.8602(2)
_cell_angle_alpha                90
_cell_angle_beta                 127.4016(5)
_cell_angle_gamma                90
_cell_volume                     4381.23
loop_
_atom_site_label
_atom_site_type_symbol
_atom_site_fract_x
_atom_site_fract_y
_atom_site_fract_z
Co1 Co 0.13506(3) -0.25151(3) 0.12157(4)
Cr1 Cr -0.07325(4) -0.23541(5) 0.00518(5)
Cr2 Cr -0.16609(4) -0.29586(5) -0.22202(5)
O1 O 0.0145(2) -0.2477(2) 0.0334(2)
O2 O -0.0985(2) -0.1345(2) -0.0172(3)
O3 O -0.0735(2) -0.2685(2) 0.0954(3)
O4 O -0.1435(2) -0.3001(2) -0.1017(2)
O5 O -0.2447(2) -0.2340(2) -0.2955(2)
O6 O -0.0940(2) -0.2565(2) -0.2158(3)
O7 O -0.1836(2) -0.3938(2) -0.2647(3)
N1 N 0.1334(2) -0.1619(2) 0.0238(3)
N2 N 0.1209(2) -0.3614(2) 0.0261(3)
N3 N 0.1409(2) -0.6575(2) -0.2795(3)
N4 N 0.1332(2) 0.1425(2) -0.2935(3)
C1 C 0.0754(3) -0.1025(3) -0.0291(3)
C2 C 0.0702(3) -0.0462(3) -0.0964(3)
C3 C 0.1260(3) -0.0514(3) -0.1153(3)
C4 C 0.1842(3) -0.1158(3) -0.0636(3)
C5 C 0.1863(3) -0.1672(3) 0.0050(3)
C6 C 0.1270(3) 0.0130(3) -0.1787(3)
C7 C 0.1989(3) -0.6557(3) -0.1812(3)
C8 C 0.0765(3) -0.5435(3) -0.2573(3)
C9 C 0.0809(3) -0.6009(3) -0.3164(3)
C10 C 0.1977(3) -0.6011(3) -0.1166(3)
C11 C 0.1351(3) -0.5438(3) -0.1550(3)
C12 C 0.1301(3) -0.4824(3) -0.0909(3)
C13 C 0.1558(3) -0.5039(3) 0.0054(3)
C14 C 0.1509(3) -0.4414(3) 0.0606(3)
C15 C 0.0908(3) -0.3429(3) -0.0685(3)
C16 C 0.0963(3) -0.3997(3) -0.1280(3)
C17 C 0.1537(3) -0.0061(3) -0.2361(3)
C18 C 0.1574(3) 0.0600(3) -0.2886(3)
C19 C 0.1055(3) 0.1603(3) -0.2406(3)
C20 C 0.1021(3) 0.0984(3) -0.1842(3)
H1 H 0.166(2) -0.067(3) -0.243(3)
H2 H 0.023(3) -0.005(3) -0.142(3)
H3 H 0.037(3) -0.107(3) -0.014(3)
H4 H 0.233(3) -0.213(3) 0.059(4)
H5 H 0.228(2) -0.125(2) -0.070(3)
H6 H 0.042(3) -0.594(3) -0.385(4)
H7 H 0.030(3) -0.494(3) -0.281(4)
H8 H 0.089(3) 0.106(4) -0.138(4)
H9 H 0.177(3) -0.568(3) 0.037(4)
H10 H 0.082(3) -0.382(3) -0.188(4)
H11 H 0.2388 -0.6982 -0.1648
H12 H 0.2356 -0.6052 -0.0498
N3A N 0.1409(2) -0.3425(2) 0.2205(3)
N4A N 0.1332(2) -0.1425(2) 0.2065(3)
Co1A Co 0.13506(3) -0.74849(3) -0.37843(4)
Co1A_2 Co 0.13506(3) 0.25151(3) -0.37843(4)
O5C O 0.2553(2) -0.2660(2) 0.2045(2)
Co1C Co -0.36494(3) -0.24849(3) -0.37843(4)
loop_
_geom_bond_atom_site_label_1
_geom_bond_atom_site_label_2
_geom_bond_site_symmetry_1
_geom_bond_site_symmetry_2
Co1 O1 1_555 1_555
Cr1 O1 1_555 1_555
Cr2 O4 1_555 1_555
O2 Cr1 1_555 1_555
O3 Cr1 1_555 1_555
O4 Cr1 1_555 1_555
O5 Cr2 1_555 1_555
O6 Cr2 1_555 1_555
O7 Cr2 1_555 1_555
N1 Co1 1_555 1_555
N2 Co1 1_555 1_555
N3 C7 1_555 1_555
N4 C18 1_555 1_555
C1 N1 1_555 1_555
C2 C1 1_555 1_555
C3 C2 1_555 1_555
C4 C3 1_555 1_555
C5 N1 1_555 1_555
C6 C3 1_555 1_555
C7 C10 1_555 1_555
C8 C9 1_555 1_555
C9 N3 1_555 1_555
C10 C11 1_555 1_555
C11 C8 1_555 1_555
C12 C11 1_555 1_555
C13 C12 1_555 1_555
C14 N2 1_555 1_555
C15 N2 1_555 1_555
C16 C12 1_555 1_555
C17 C6 1_555 1_555
C18 C17 1_555 1_555
C19 N4 1_555 1_555
C20 C6 1_555 1_555
H1 C17 1_555 1_555
H2 C2 1_555 1_555
H3 C1 1_555 1_555
H4 C5 1_555 1_555
H5 C4 1_555 1_555
H6 C9 1_555 1_555
H7 C8 1_555 1_555
H8 C20 1_555 1_555
H9 C13 1_555 1_555
H10 C16 1_555 1_555
H11 C7 1_555 1_555
H12 C10 1_555 1_555
N3A Co1 1_555 1_555
N4A Co1 1_555 1_555
Co1A N3 1_555 1_555
Co1A_2 N4 1_555 1_555
O5C Co1 1_555 1_555
Co1C O5 1_555 1_555
C4 C5 1_555 1_555
C13 C14 1_555 1_555
C15 C16 1_555 1_555
C19 C20 1_555 1_555

#END
