
#######################################################################
#
#                 Cambridge Crystallographic Data Centre
#                                CCDC 
#
#######################################################################
#
# If this CIF has been generated from an entry in the Cambridge 
# Structural Database, then it will include bibliographic, chemical, 
# crystal, experimental, refinement or atomic coordinate data resulting 
# from the CCDC's data processing and validation procedures.
#
#######################################################################

data_NENDAL
_symmetry_cell_setting           monoclinic
_symmetry_space_group_name_H-M   'P 21'
_symmetry_Int_Tables_number      4
_space_group_name_Hall           'P 2yb'
loop_
_symmetry_equiv_pos_site_id
_symmetry_equiv_pos_as_xyz
1 x,y,z
2 -x,1/2+y,-z
_cell_length_a                   10.9099(7)
_cell_length_b                   8.7952(7)
_cell_length_c                   11.1315(10)
_cell_angle_alpha                90
_cell_angle_beta                 92.344(2)
_cell_angle_gamma                90
_cell_volume                     1067.23
loop_
_atom_site_label
_atom_site_type_symbol
_atom_site_fract_x
_atom_site_fract_y
_atom_site_fract_z
Ni1 Ni 1.50236(4) 0.25760(11) 1.25167(4)
O1 O 1.3388(2) 0.3600(3) 1.2908(2)
O2 O 1.3801(2) 0.4367(4) 1.4792(2)
O3 O 1.6663(2) 0.1558(3) 1.2116(2)
O4 O 1.6173(2) 0.0684(4) 1.0277(2)
O5 O 1.5563(2) 0.2239(3) 1.4322(2)
H1 H 1.5012 0.2560 1.4763
H2 H 1.5781 0.1374 1.4692
O6 O 1.4543(2) 0.2921(3) 1.0705(2)
H3 H 1.5090 0.2560 1.0280
H4 H 1.4264 0.3777 1.0318
N1 N 0.7266(3) 0.6356(4) 1.3249(3)
N2 N 0.5913(3) 0.4636(4) 1.2653(3)
N3 N 2.2695(3) -0.1127(4) 1.1760(3)
N4 N 2.4045(3) 0.0559(4) 1.2427(3)
C1 C 0.8293(3) 0.7086(6) 1.3899(5)
H5 H 0.8077 0.7211 1.4749
H6 H 0.8402 0.8116 1.3560
C2 C 0.6978(3) 0.4876(4) 1.3222(3)
H7 H 0.7479 0.4096 1.3570
C3 C 0.5498(3) 0.6054(4) 1.2312(3)
H8 H 0.4743 0.6249 1.1885
C4 C 0.6315(3) 0.7132(4) 1.2670(4)
H9 H 0.6248 0.8198 1.2549
C5 C 2.1768(3) -0.1832(5) 1.0961(4)
H10 H 2.1725 -0.2931 1.1146
H11 H 2.2019 -0.1727 1.0120
C6 C 2.3415(3) 0.0054(5) 1.1479(3)
H12 H 2.3462 0.0469 1.0694
C7 C 2.3696(3) -0.0324(4) 1.3366(3)
H13 H 2.3995 -0.0223 1.4176
C8 C 2.2859(3) -0.1365(5) 1.2963(4)
H14 H 2.2466 -0.2111 1.3429
C9 C 0.9502(3) 0.6260(5) 1.3873(4)
C10 C 0.9879(3) 0.5443(5) 1.2895(4)
H15 H 0.9337 0.5331 1.2211
C11 C 1.1035(3) 0.4781(5) 1.2892(3)
H16 H 1.1271 0.4216 1.2212
C12 C 1.1851(3) 0.4941(4) 1.3879(3)
C13 C 1.1475(3) 0.5758(4) 1.4864(3)
H17 H 1.2015 0.5876 1.5549
C14 C 1.0311(3) 0.6404(5) 1.4855(4)
H18 H 1.0066 0.6956 1.5539
C15 C 1.3117(3) 0.4256(5) 1.3859(3)
C16 C 2.0503(3) -0.1137(5) 1.1069(3)
C17 C 2.0267(3) 0.0040(5) 1.1854(3)
H19 H 2.0911 0.0435 1.2363
C18 C 1.9088(3) 0.0647(5) 1.1898(3)
H20 H 1.8930 0.1438 1.2452
C19 C 1.8150(3) 0.0108(5) 1.1145(3)
C20 C 1.8386(3) -0.1051(5) 1.0352(3)
H21 H 1.7749 -0.1422 0.9823
C21 C 1.9549(3) -0.1676(5) 1.0325(4)
H22 H 1.9697 -0.2488 0.9787
C22 C 1.6888(3) 0.0838(5) 1.1176(3)
N2_2 N 1.5913(3) 0.4636(4) 1.2653(3)
N4_2 N 1.4045(3) 0.0559(4) 1.2427(3)
Ni1_2 Ni 0.50236(4) 0.25760(11) 1.25167(4)
Ni1_3 Ni 2.50236(4) 0.25760(11) 1.25167(4)
loop_
_geom_bond_atom_site_label_1
_geom_bond_atom_site_label_2
_geom_bond_site_symmetry_1
_geom_bond_site_symmetry_2
Ni1 O1 1_555 1_555
O1 C15 1_555 1_555
O2 C15 1_555 1_555
O3 Ni1 1_555 1_555
O4 C22 1_555 1_555
O5 Ni1 1_555 1_555
H1 O5 1_555 1_555
H2 O5 1_555 1_555
O6 Ni1 1_555 1_555
H3 O6 1_555 1_555
H4 O6 1_555 1_555
N1 C1 1_555 1_555
N2 C2 1_555 1_555
N3 C5 1_555 1_555
N4 C6 1_555 1_555
C1 H5 1_555 1_555
H6 C1 1_555 1_555
C2 N1 1_555 1_555
H7 C2 1_555 1_555
C3 N2 1_555 1_555
H8 C3 1_555 1_555
C4 N1 1_555 1_555
H9 C4 1_555 1_555
C5 H10 1_555 1_555
H11 C5 1_555 1_555
C6 N3 1_555 1_555
H12 C6 1_555 1_555
C7 N4 1_555 1_555
H13 C7 1_555 1_555
C8 N3 1_555 1_555
H14 C8 1_555 1_555
C9 C1 1_555 1_555
C10 C9 1_555 1_555
H15 C10 1_555 1_555
C11 C10 1_555 1_555
H16 C11 1_555 1_555
C12 C11 1_555 1_555
C13 C12 1_555 1_555
H17 C13 1_555 1_555
C14 C9 1_555 1_555
H18 C14 1_555 1_555
C15 C12 1_555 1_555
C16 C5 1_555 1_555
C17 C16 1_555 1_555
H19 C17 1_555 1_555
C18 C17 1_555 1_555
H20 C18 1_555 1_555
C19 C18 1_555 1_555
C20 C19 1_555 1_555
H21 C20 1_555 1_555
C21 C16 1_555 1_555
H22 C21 1_555 1_555
C22 O3 1_555 1_555
N2_2 Ni1 1_555 1_555
N4_2 Ni1 1_555 1_555
Ni1_2 N2 1_555 1_555
Ni1_3 N4 1_555 1_555
C3 C4 1_555 1_555
C7 C8 1_555 1_555
C13 C14 1_555 1_555
C19 C22 1_555 1_555
C20 C21 1_555 1_555

#END
