
#######################################################################
#
#                 Cambridge Crystallographic Data Centre
#                                CCDC 
#
#######################################################################
#
# If this CIF has been generated from an entry in the Cambridge 
# Structural Database, then it will include bibliographic, chemical, 
# crystal, experimental, refinement or atomic coordinate data resulting 
# from the CCDC's data processing and validation procedures.
#
#######################################################################

data_NENGIW
_symmetry_cell_setting           orthorhombic
_symmetry_space_group_name_H-M   'P c a 21'
_symmetry_Int_Tables_number      29
_space_group_name_Hall           'P 2c -2ac'
loop_
_symmetry_equiv_pos_site_id
_symmetry_equiv_pos_as_xyz
1 x,y,z
2 -x,-y,1/2+z
3 1/2-x,y,1/2+z
4 1/2+x,-y,z
_cell_length_a                   11.125(4)
_cell_length_b                   9.149(3)
_cell_length_c                   15.180(4)
_cell_angle_alpha                90
_cell_angle_beta                 90
_cell_angle_gamma                90
_cell_volume                     1545.06
loop_
_atom_site_label
_atom_site_type_symbol
_atom_site_fract_x
_atom_site_fract_y
_atom_site_fract_z
Cu1 Cu 0.0843(1) 0.6327(1) 0.5990(1)
N1 N -0.0535(3) 0.4893(4) 0.6050(4)
N2 N -0.2329(3) 0.3839(4) 0.6073(4)
N3 N 0.0879(4) 0.5975(6) 0.4698(3)
N4 N 0.0498(4) 0.8686(4) 0.5753(3)
N5 N 0.0651(5) 0.6482(6) 0.7297(4)
C1 C -0.0425(5) 0.3555(6) 0.6418(5)
C2 C -0.1509(5) 0.2925(6) 0.6445(5)
C3 C -0.1696(4) 0.5000(5) 0.5859(4)
C4 C 0.1586(6) 0.6946(7) 0.4143(4)
C5 C 0.1119(7) 0.8441(8) 0.4163(5)
C6 C 0.1221(6) 0.9251(7) 0.5016(6)
C7 C 0.0774(5) 0.9610(7) 0.6522(5)
C8 C 0.0282(6) 0.9118(8) 0.7372(5)
C9 C 0.0891(6) 0.7860(9) 0.7790(5)
C10 C -0.0782(5) 0.8823(7) 0.5545(6)
H1 H 0.0116 0.5987 0.4502
H2 H 0.1163 0.5065 0.4612
H3 H 0.1120 0.5787 0.7536
H4 H -0.0114 0.6231 0.7417
H5 H 0.0312 0.3118 0.6614
H6 H -0.1687 0.1986 0.6696
H7 H -0.2045 0.5857 0.5598
H8 H 0.1573 0.6607 0.3545
H9 H 0.2405 0.6946 0.4341
H10 H 0.0282 0.8399 0.4010
H11 H 0.1518 0.8998 0.3714
H12 H 0.2052 0.9265 0.5186
H13 H 0.0977 1.0245 0.4920
H14 H 0.0480 1.0577 0.6402
H15 H 0.1631 0.9673 0.6583
H16 H -0.0544 0.8850 0.7283
H17 H 0.0293 0.9924 0.7777
H18 H 0.1740 0.8041 0.7809
H19 H 0.0606 0.7765 0.8384
H20 H -0.0980 0.9828 0.5438
H21 H -0.0957 0.8255 0.5029
H22 H -0.1248 0.8465 0.6032
N2C N 0.2671(3) 0.6161(4) 0.6073(4)
Cu1C Cu -0.4157(1) 0.3673(1) 0.5990(1)
Cl1 Cl 0.2601(1) 0.2959(2) 0.3360(1)
O1 O 0.3554(5) 0.3832(6) 0.3611(5)
O2 O 0.1724(7) 0.2952(8) 0.4019(6)
O3 O 0.2925(6) 0.1546(6) 0.3273(8)
O4 O 0.2135(8) 0.3531(12) 0.2635(6)
loop_
_geom_bond_atom_site_label_1
_geom_bond_atom_site_label_2
_geom_bond_site_symmetry_1
_geom_bond_site_symmetry_2
Cu1 N1 1_555 1_555
N1 C1 1_555 1_555
N2 C2 1_555 1_555
N3 Cu1 1_555 1_555
N4 Cu1 1_555 1_555
N5 Cu1 1_555 1_555
C1 C2 1_555 1_555
C2 H6 1_555 1_555
C3 N1 1_555 1_555
C4 N3 1_555 1_555
C5 C4 1_555 1_555
C6 N4 1_555 1_555
C7 N4 1_555 1_555
C8 C7 1_555 1_555
C9 N5 1_555 1_555
C10 N4 1_555 1_555
Cl1 O1 1_555 1_555
O2 Cl1 1_555 1_555
O3 Cl1 1_555 1_555
O4 Cl1 1_555 1_555
H1 N3 1_555 1_555
H2 N3 1_555 1_555
H3 N5 1_555 1_555
H4 N5 1_555 1_555
H5 C1 1_555 1_555
H7 C3 1_555 1_555
H8 C4 1_555 1_555
H9 C4 1_555 1_555
H10 C5 1_555 1_555
H11 C5 1_555 1_555
H12 C6 1_555 1_555
H13 C6 1_555 1_555
H14 C7 1_555 1_555
H15 C7 1_555 1_555
H16 C8 1_555 1_555
H17 C8 1_555 1_555
H18 C9 1_555 1_555
H19 C9 1_555 1_555
H20 C10 1_555 1_555
H21 C10 1_555 1_555
H22 C10 1_555 1_555
N2C Cu1 1_555 1_555
Cu1C N2 1_555 1_555
N2 C3 1_555 1_555
C5 C6 1_555 1_555
C8 C9 1_555 1_555

#END
