
#######################################################################
#
#                 Cambridge Crystallographic Data Centre
#                                CCDC 
#
#######################################################################
#
# If this CIF has been generated from an entry in the Cambridge 
# Structural Database, then it will include bibliographic, chemical, 
# crystal, experimental, refinement or atomic coordinate data resulting 
# from the CCDC's data processing and validation procedures.
#
#######################################################################

data_NENHEV
_symmetry_cell_setting           monoclinic
_symmetry_space_group_name_H-M   'P 21/n'
_symmetry_Int_Tables_number      14
_space_group_name_Hall           '-P 2yn'
loop_
_symmetry_equiv_pos_site_id
_symmetry_equiv_pos_as_xyz
1 x,y,z
2 1/2-x,1/2+y,1/2-z
3 -x,-y,-z
4 1/2+x,1/2-y,1/2+z
_cell_length_a                   7.5059(15)
_cell_length_b                   7.1342(14)
_cell_length_c                   18.318(4)
_cell_angle_alpha                90
_cell_angle_beta                 97.26(3)
_cell_angle_gamma                90
_cell_volume                     973.039
loop_
_atom_site_label
_atom_site_type_symbol
_atom_site_fract_x
_atom_site_fract_y
_atom_site_fract_z
H1 H 0.588(6) 1.278(3) 0.234(3)
H2 H 0.694(4) 1.151(6) 0.204(2)
Gd1 Gd 0.362653(16) 0.972982(14) 0.257057(6)
C1 C 0.4644(3) 1.3802(3) 0.43941(12)
C2 C 0.4858(3) 1.5720(3) 0.42900(12)
C3 C 0.4787(3) 1.3091(3) 0.51065(12)
H3 H 0.4644 1.1813 0.5180
C4 C 0.4315(3) 1.2447(3) 0.37659(12)
C5 C 0.4598(3) 1.6684(3) 0.35575(12)
C6 C 0.4597(3) 0.6398(3) 0.14583(13)
C7 C 0.4852(4) 0.5672(4) 0.07071(13)
C8 C 0.5390(4) 0.6858(4) 0.01780(14)
H4 H 0.5653 0.8105 0.0293
C9 C 0.4463(4) 0.3813(4) 0.05252(14)
H5 H 0.4101 0.3008 0.0877
O1 O 0.3779(2) 1.3072(2) 0.31195(8)
O2 O 0.6026(3) 1.1628(3) 0.22568(13)
O3 O 0.4562(3) 1.0747(2) 0.38688(9)
O4 O 0.2970(2) 1.6895(2) 0.32510(8)
O5 O 0.5855(3) 1.7454(2) 0.32986(9)
O6 O 0.4803(3) 0.8119(2) 0.15895(9)
O7 O 0.4112(3) 0.5245(2) 0.19186(9)
H1B H 0.412(6) -0.278(3) -0.234(3)
H2B H 0.306(4) -0.151(6) -0.204(2)
Gd1B Gd 0.637347(16) 2.027018(14) 0.742943(6)
Gd1A Gd 0.137347(16) 1.472982(14) 0.242943(6)
Gd1_2 Gd 0.362653(16) 1.972982(14) 0.257057(6)
Gd1A_2 Gd 0.137347(16) 0.472982(14) 0.242943(6)
Gd1C Gd 0.862653(16) 1.527018(14) 0.757057(6)
Gd1B_2 Gd 0.637347(16) 1.027018(14) 0.742943(6)
Gd1B_3 Gd 0.637347(16) 0.027018(14) -0.257057(6)
Gd1C_2 Gd 0.862653(16) 0.527018(14) -0.242943(6)
C1B C 0.5356(3) 1.6198(3) 0.56059(12)
C2B C 0.5142(3) 1.4280(3) 0.57100(12)
C3B C 0.5213(3) 1.6909(3) 0.48935(12)
H3B H 0.5356 1.8187 0.4820
C4B C 0.5685(3) 1.7553(3) 0.62341(12)
C5B C 0.5402(3) 1.3316(3) 0.64425(12)
C6B C 0.5403(3) 0.3602(3) -0.14583(13)
C7B C 0.5148(4) 0.4328(4) -0.07071(13)
C8B C 0.4610(4) 0.3142(4) -0.01780(14)
H4B H 0.4347 0.1895 -0.0293
C9B C 0.5537(4) 0.6187(4) -0.05252(14)
H5B H 0.5899 0.6992 -0.0877
O1B O 0.6221(2) 1.6928(2) 0.68805(8)
O1A O 0.1221(2) 0.8072(2) 0.18805(8)
O1B_2 O 0.6221(2) -0.3072(2) -0.31195(8)
O1C O 0.8779(2) 0.1928(2) -0.18805(8)
O2B O 0.3974(3) -0.1628(3) -0.22568(13)
O3B O 0.5438(3) 1.9253(2) 0.61312(9)
O3B_2 O 0.5438(3) -0.0747(2) -0.38688(9)
O4B O 0.7030(2) 1.3105(2) 0.67490(8)
O4_2 O 0.2970(2) 0.6895(2) 0.32510(8)
O4A O 0.2030(2) 1.1895(2) 0.17490(8)
O4B_2 O 0.7030(2) 0.3105(2) -0.32510(8)
O4C O 0.7970(2) -0.1895(2) -0.17490(8)
O5B O 0.4145(3) 1.2546(2) 0.67014(9)
O5_2 O 0.5855(3) 0.7454(2) 0.32986(9)
O5B_2 O 0.4145(3) 0.2546(2) -0.32986(9)
O6B O 0.5197(3) 0.1881(2) -0.15895(9)
O7B O 0.5888(3) 0.4755(2) -0.19186(9)
O7A O 0.0888(3) 1.0245(2) 0.30814(9)
O7C O 0.9112(3) -0.0245(2) -0.30814(9)
loop_
_geom_bond_atom_site_label_1
_geom_bond_atom_site_label_2
_geom_bond_site_symmetry_1
_geom_bond_site_symmetry_2
H1 O2 1_555 1_555
H2 O2 1_555 1_555
Gd1 O1 1_555 1_555
C1 C2 1_555 1_555
C2 C5 1_555 1_555
C3 C1 1_555 1_555
H3 C3 1_555 1_555
C4 C1 1_555 1_555
C5 O4 1_555 1_555
C6 C7 1_555 1_555
C7 C8 1_555 1_555
C8 H4 1_555 1_555
C9 C7 1_555 1_555
H5 C9 1_555 1_555
O1 C4 1_555 1_555
O2 Gd1 1_555 1_555
O3 Gd1 1_555 1_555
O4 Gd1A 1_555 1_555
O5 C5 1_555 1_555
O6 Gd1 1_555 1_555
O7 C6 1_555 1_555
H1B O2B 1_555 1_555
H2B O2B 1_555 1_555
Gd1B O1B 1_555 1_555
Gd1A O1 1_555 1_555
Gd1_2 O4 1_555 1_555
Gd1A_2 O7 1_555 1_555
Gd1C O1B 1_555 1_555
Gd1B_2 O4B 1_555 1_555
Gd1B_3 O1B_2 1_555 1_555
Gd1C_2 O1C 1_555 1_555
C1B C2B 1_555 1_555
C2B C3 1_555 1_555
C3B C2 1_555 1_555
H3B C3B 1_555 1_555
C4B C1B 1_555 1_555
C5B C2B 1_555 1_555
C6B C7B 1_555 1_555
C7B C8B 1_555 1_555
C8B C9 1_555 1_555
H4B C8B 1_555 1_555
C9B C8 1_555 1_555
H5B C9B 1_555 1_555
O1B C4B 1_555 1_555
O1A Gd1 1_555 1_555
O1C Gd1B_3 1_555 1_555
O2B Gd1B_3 1_555 1_555
O3B Gd1B 1_555 1_555
O3B_2 Gd1B_3 1_555 1_555
O4B Gd1C 1_555 1_555
O4_2 Gd1 1_555 1_555
O4A Gd1 1_555 1_555
O4B_2 Gd1B_3 1_555 1_555
O4C Gd1B_3 1_555 1_555
O5B Gd1B_2 1_555 1_555
O5_2 Gd1 1_555 1_555
O5B_2 Gd1B_3 1_555 1_555
O6B Gd1B_3 1_555 1_555
O7B Gd1C_2 1_555 1_555
O7A Gd1 1_555 1_555
O7C Gd1B_3 1_555 1_555
C4 O3 1_555 1_555
C6 O6 1_555 1_555
O5 Gd1_2 1_555 1_555
Gd1A O4A 1_555 1_555
Gd1A_2 O1A 1_555 1_555
Gd1A_2 O4_2 1_555 1_555
Gd1C_2 O4B_2 1_555 1_555
C1B C3B 1_555 1_555
C4B O3B 1_555 1_555
C5B O4B 1_555 1_555
C5B O5B 1_555 1_555
C6B O6B 1_555 1_555
C6B O7B 1_555 1_555
C7B C9B 1_555 1_555

#END
