
#######################################################################
#
#                 Cambridge Crystallographic Data Centre
#                                CCDC 
#
#######################################################################
#
# If this CIF has been generated from an entry in the Cambridge 
# Structural Database, then it will include bibliographic, chemical, 
# crystal, experimental, refinement or atomic coordinate data resulting 
# from the CCDC's data processing and validation procedures.
#
#######################################################################

data_NENHIZ
_symmetry_cell_setting           triclinic
_symmetry_space_group_name_H-M   'P -1'
_symmetry_Int_Tables_number      2
_space_group_name_Hall           '-P 1'
loop_
_symmetry_equiv_pos_site_id
_symmetry_equiv_pos_as_xyz
1 x,y,z
2 -x,-y,-z
_cell_length_a                   6.8718(8)
_cell_length_b                   8.0440(9)
_cell_length_c                   8.9898(10)
_cell_angle_alpha                98.048(2)
_cell_angle_beta                 100.044(1)
_cell_angle_gamma                97.818(1)
_cell_volume                     477.887
loop_
_atom_site_label
_atom_site_type_symbol
_atom_site_fract_x
_atom_site_fract_y
_atom_site_fract_z
H1 H -0.648(6) 0.370(5) 0.030(6)
H2 H -0.656(7) 0.223(5) 0.089(7)
Tb1 Tb -0.29747(4) 0.20879(3) -0.02063(3)
O1 O -0.0130(5) 0.1969(5) 0.1496(4)
O2 O -0.5780(5) 0.3047(5) 0.0703(5)
O3 O 0.2166(5) 0.0312(5) 0.1611(4)
O4 O -0.3781(5) 0.0100(5) 0.1418(4)
O5 O -0.4720(5) -0.2031(5) 0.2562(4)
O6 O 0.1995(5) 0.5063(5) -0.0931(4)
O7 O -0.0789(6) 0.3139(5) -0.1645(4)
C1 C 0.0755(7) 0.0900(7) 0.2103(6)
C2 C -0.3480(8) -0.0757(7) 0.2507(6)
C3 C 0.0278(7) 0.0417(6) 0.3574(6)
C4 C -0.1625(7) -0.0266(7) 0.3773(6)
C5 C 0.1857(7) 0.0658(7) 0.4813(6)
H3 H 0.3132 0.1097 0.4690
C6 C 0.0476(8) 0.4253(7) -0.1920(6)
C7 C 0.0229(8) 0.4642(7) -0.3529(6)
C8 C -0.1623(9) 0.4238(8) -0.4485(6)
H4 H -0.2716 0.3722 -0.4141
C9 C 0.1859(8) 0.5409(8) -0.4046(6)
H5 H 0.3113 0.5677 -0.3406
H1A H 0.648(6) -0.370(5) 0.970(6)
H2A H 0.656(7) -0.223(5) 0.911(7)
Tb1A Tb 0.29747(4) -0.20879(3) 1.02063(3)
Tb1A_2 Tb 0.29747(4) -0.20879(3) 0.02063(3)
Tb1A_3 Tb -0.70253(4) -0.20879(3) 0.02063(3)
Tb1A_4 Tb 0.29747(4) 0.79121(3) 0.02063(3)
Tb1_2 Tb -0.29747(4) 0.20879(3) 0.97937(3)
Tb1_3 Tb 0.70253(4) 0.20879(3) 0.97937(3)
Tb1_4 Tb -0.29747(4) 0.20879(3) -1.02063(3)
Tb1A_5 Tb 0.29747(4) 0.79121(3) -0.97937(3)
O1A O 0.0130(5) -0.1969(5) 0.8504(4)
O2A O 0.5780(5) -0.3047(5) 0.9297(5)
O3A O -0.2166(5) -0.0312(5) 0.8389(4)
O3A_2 O -0.2166(5) -0.0312(5) -0.1611(4)
O3_2 O 0.2166(5) 0.0312(5) 1.1611(4)
O4A O 0.3781(5) -0.0100(5) 0.8582(4)
O4A_2 O -0.6219(5) -0.0100(5) -0.1418(4)
O4_2 O 0.6219(5) 0.0100(5) 1.1418(4)
O5A O 0.4720(5) 0.2031(5) 0.7438(4)
O5A_2 O -0.5280(5) 0.2031(5) -0.2562(4)
O5_2 O 0.5280(5) -0.2031(5) 1.2562(4)
O6A O -0.1995(5) 0.4937(5) -0.9069(4)
O6A_2 O -0.1995(5) 0.4937(5) 0.0931(4)
O6_2 O 0.1995(5) -0.4937(5) 0.9069(4)
O7A O 0.0789(6) 0.6861(5) -0.8355(4)
O7A_2 O 0.0789(6) -0.3139(5) 1.1645(4)
C1A C -0.0755(7) -0.0900(7) 0.7897(6)
C2A C 0.3480(8) 0.0757(7) 0.7493(6)
C3A C -0.0278(7) -0.0417(6) 0.6426(6)
C4A C 0.1625(7) 0.0266(7) 0.6227(6)
C5A C -0.1857(7) -0.0658(7) 0.5187(6)
H3A H -0.3132 -0.1097 0.5310
C6A C -0.0476(8) 0.5747(7) -0.8080(6)
C7A C -0.0229(8) 0.5358(7) -0.6471(6)
C8A C 0.1623(9) 0.5762(8) -0.5515(6)
H4A H 0.2716 0.6278 -0.5859
C9A C -0.1859(8) 0.4591(8) -0.5954(6)
H5A H -0.3113 0.4323 -0.6594
loop_
_geom_bond_atom_site_label_1
_geom_bond_atom_site_label_2
_geom_bond_site_symmetry_1
_geom_bond_site_symmetry_2
H1 O2 1_555 1_555
H2 O2 1_555 1_555
Tb1 O1 1_555 1_555
O1 C1 1_555 1_555
O2 Tb1 1_555 1_555
O3 C1 1_555 1_555
O4 Tb1 1_555 1_555
O5 C2 1_555 1_555
O6 C6 1_555 1_555
O7 Tb1 1_555 1_555
C1 C3 1_555 1_555
C2 O4 1_555 1_555
C3 C4 1_555 1_555
C4 C2 1_555 1_555
C5 C3 1_555 1_555
H3 C5 1_555 1_555
C6 O7 1_555 1_555
C7 C6 1_555 1_555
C8 C7 1_555 1_555
H4 C8 1_555 1_555
C9 C7 1_555 1_555
H5 C9 1_555 1_555
H1A O2A 1_555 1_555
H2A O2A 1_555 1_555
Tb1A O1A 1_555 1_555
Tb1A_2 O3 1_555 1_555
Tb1A_3 O4 1_555 1_555
Tb1A_4 O6 1_555 1_555
Tb1_2 O3A 1_555 1_555
Tb1_3 O4A 1_555 1_555
Tb1_4 O6A 1_555 1_555
Tb1A_5 O7A 1_555 1_555
O1A C1A 1_555 1_555
O2A Tb1A 1_555 1_555
O3A C1A 1_555 1_555
O3A_2 Tb1 1_555 1_555
O3_2 Tb1A 1_555 1_555
O4A Tb1A 1_555 1_555
O4A_2 Tb1 1_555 1_555
O4_2 Tb1A 1_555 1_555
O5A Tb1_3 1_555 1_555
O5A_2 Tb1 1_555 1_555
O5_2 Tb1A 1_555 1_555
O6A C6A 1_555 1_555
O6A_2 Tb1 1_555 1_555
O6_2 Tb1A 1_555 1_555
O7A C6A 1_555 1_555
O7A_2 Tb1A 1_555 1_555
C1A C3A 1_555 1_555
C2A O4A 1_555 1_555
C3A C4A 1_555 1_555
C4A C5 1_555 1_555
C5A C4 1_555 1_555
H3A C5A 1_555 1_555
C6A C7A 1_555 1_555
C7A C8A 1_555 1_555
C8A C9 1_555 1_555
H4A C8A 1_555 1_555
C9A C8 1_555 1_555
H5A C9A 1_555 1_555
O5 Tb1A_3 1_555 1_555
Tb1A_3 O4A_2 1_555 1_555
Tb1_3 O4_2 1_555 1_555
O5A C2A 1_555 1_555
C2A C4A 1_555 1_555
C3A C5A 1_555 1_555
C7A C9A 1_555 1_555

#END
