
#######################################################################
#
#                 Cambridge Crystallographic Data Centre
#                                CCDC 
#
#######################################################################
#
# If this CIF has been generated from an entry in the Cambridge 
# Structural Database, then it will include bibliographic, chemical, 
# crystal, experimental, refinement or atomic coordinate data resulting 
# from the CCDC's data processing and validation procedures.
#
#######################################################################

data_NENHAR
_symmetry_cell_setting           monoclinic
_symmetry_space_group_name_H-M   'P 21/n'
_symmetry_Int_Tables_number      14
_space_group_name_Hall           '-P 2yn'
loop_
_symmetry_equiv_pos_site_id
_symmetry_equiv_pos_as_xyz
1 x,y,z
2 1/2-x,1/2+y,1/2-z
3 -x,-y,-z
4 1/2+x,1/2-y,1/2+z
_cell_length_a                   7.5565(15)
_cell_length_b                   7.1648(14)
_cell_length_c                   18.342(4)
_cell_angle_alpha                90
_cell_angle_beta                 97.25(3)
_cell_angle_gamma                90
_cell_volume                     985.111
loop_
_atom_site_label
_atom_site_type_symbol
_atom_site_fract_x
_atom_site_fract_y
_atom_site_fract_z
H1 H 0.297(8) 0.352(11) 0.290(7)
H2 H 0.413(10) 0.218(3) 0.272(4)
C1 C 1.0405(8) 0.3140(8) 0.0181(3)
H3 H 1.0685 0.1903 0.0298
Eu1 Eu 0.63643(3) 0.52685(3) 0.243012(11)
O1 O 0.9092(6) 0.4744(5) 0.1912(2)
O2 O 0.4143(5) 0.7553(5) 0.16991(19)
O3 O 0.6207(5) 1.1922(5) 0.18761(17)
C2 C 0.5147(7) 0.9273(7) 0.0711(3)
C3 C 0.9598(6) 0.3611(7) 0.1455(3)
O4 O 0.7032(4) 0.8108(5) 0.17469(18)
C4 C 0.5348(6) 1.1202(7) 0.0604(3)
C5 C 0.9853(7) 0.4325(8) 0.0707(3)
O5 O 0.9819(5) 0.1881(5) 0.1586(2)
C6 C 0.5410(6) 0.8327(6) 0.1442(2)
O6 O 0.5439(6) 1.4238(5) 0.1129(2)
C7 C 0.5665(7) 1.2546(7) 0.1230(3)
C8 C 1.0539(9) 0.3811(8) -0.0527(3)
H4 H 1.0892 0.3011 -0.0881
O7 O 0.3971(6) 0.3349(7) 0.2751(3)
C9 C 0.4797(7) 0.8095(7) 0.0107(3)
H5 H 0.4660 0.6822 0.0180
H1B H 1.703(8) 0.648(11) -0.290(7)
H2B H 1.587(10) 0.782(3) -0.272(4)
C1B C 0.9595(8) 0.6860(8) -0.0181(3)
H3B H 0.9315 0.8097 -0.0298
Eu1B Eu 1.36357(3) 0.47315(3) -0.243012(11)
Eu1_2 Eu 0.63643(3) 1.52685(3) 0.243012(11)
Eu1A Eu 0.86357(3) 1.02685(3) 0.256988(11)
Eu1A_2 Eu 0.86357(3) 0.02685(3) 0.256988(11)
Eu1C Eu 1.13643(3) 0.97315(3) -0.256988(11)
Eu1B_2 Eu 0.36357(3) 0.47315(3) -0.243012(11)
Eu1C_2 Eu 0.13643(3) 0.97315(3) -0.256988(11)
Eu1B_3 Eu 0.36357(3) 1.47315(3) -0.243012(11)
O1B O 1.0908(6) 0.5256(5) -0.1912(2)
O2B O 0.5857(5) 1.2447(5) -0.16991(19)
O2B_2 O 1.5857(5) 0.2447(5) -0.16991(19)
O3B O 0.3793(5) 0.8078(5) -0.18761(17)
O3_2 O 0.6207(5) 0.1922(5) 0.18761(17)
O3A O 0.8793(5) 0.6922(5) 0.31239(17)
O3B_2 O 1.3793(5) 0.8078(5) -0.18761(17)
O3C O 1.1207(5) 0.3078(5) -0.31239(17)
C2B C 0.4853(7) 1.0727(7) -0.0711(3)
C3B C 1.0402(6) 0.6389(7) -0.1455(3)
O4B O 0.2968(4) 1.1892(5) -0.17469(18)
O4A O 0.7968(4) 0.3108(5) 0.32531(18)
O4B_2 O 1.2968(4) 0.1892(5) -0.17469(18)
O4C O 1.2032(4) 0.6892(5) -0.32531(18)
C4B C 0.4652(6) 0.8798(7) -0.0604(3)
C5B C 1.0147(7) 0.5675(8) -0.0707(3)
O5B O 1.0181(5) 0.8119(5) -0.1586(2)
O5A O 0.5181(5) 0.6881(5) 0.3414(2)
O5C O 1.4819(5) 0.3119(5) -0.3414(2)
C6B C 0.4590(6) 1.1673(6) -0.1442(2)
O6B O 0.4561(6) 0.5762(5) -0.1129(2)
O6_2 O 0.5439(6) 0.4238(5) 0.1129(2)
O6B_2 O 1.4561(6) 0.5762(5) -0.1129(2)
C7B C 0.4335(7) 0.7454(7) -0.1230(3)
C8B C 0.9461(9) 0.6189(8) 0.0527(3)
H4B H 0.9108 0.6989 0.0881
O7B O 1.6029(6) 0.6651(7) -0.2751(3)
C9B C 0.5203(7) 1.1905(7) -0.0107(3)
H5B H 0.5340 1.3178 -0.0180
loop_
_geom_bond_atom_site_label_1
_geom_bond_atom_site_label_2
_geom_bond_site_symmetry_1
_geom_bond_site_symmetry_2
H1 O7 1_555 1_555
H2 O7 1_555 1_555
C1 H3 1_555 1_555
Eu1 O1 1_555 1_555
O1 C3 1_555 1_555
O2 Eu1 1_555 1_555
O3 C7 1_555 1_555
C2 C4 1_555 1_555
C3 C5 1_555 1_555
O4 Eu1 1_555 1_555
C4 C7 1_555 1_555
C5 C1 1_555 1_555
O5 C3 1_555 1_555
C6 O2 1_555 1_555
O6 C7 1_555 1_555
C8 C1 1_555 1_555
H4 C8 1_555 1_555
O7 Eu1 1_555 1_555
C9 C2 1_555 1_555
H5 C9 1_555 1_555
H1B O7B 1_555 1_555
H2B O7B 1_555 1_555
C1B H3B 1_555 1_555
Eu1B O1B 1_555 1_555
Eu1_2 O3 1_555 1_555
Eu1A O3 1_555 1_555
Eu1A_2 O5 1_555 1_555
Eu1C O3B_2 1_555 1_555
Eu1B_2 O3B 1_555 1_555
Eu1C_2 O3B 1_555 1_555
Eu1B_3 O2B 1_555 1_555
O1B C3B 1_555 1_555
O2B C6B 1_555 1_555
O2B_2 Eu1B 1_555 1_555
O3B C7B 1_555 1_555
O3_2 Eu1 1_555 1_555
O3A Eu1 1_555 1_555
O3B_2 Eu1B 1_555 1_555
O3C Eu1B 1_555 1_555
C2B C4B 1_555 1_555
C3B C5B 1_555 1_555
O4B Eu1C_2 1_555 1_555
O4A Eu1 1_555 1_555
O4B_2 Eu1B 1_555 1_555
O4C Eu1B 1_555 1_555
C4B C9 1_555 1_555
C5B C8 1_555 1_555
O5B Eu1C 1_555 1_555
O5A Eu1 1_555 1_555
O5C Eu1B 1_555 1_555
C6B C2B 1_555 1_555
O6B Eu1B_2 1_555 1_555
O6_2 Eu1 1_555 1_555
O6B_2 Eu1B 1_555 1_555
C7B C4B 1_555 1_555
C8B C5 1_555 1_555
H4B C8B 1_555 1_555
O7B Eu1B 1_555 1_555
C9B C4 1_555 1_555
H5B C9B 1_555 1_555
C2 C6 1_555 1_555
O4 C6 1_555 1_555
O4 Eu1A 1_555 1_555
O6 Eu1_2 1_555 1_555
C1B C5B 1_555 1_555
C1B C8B 1_555 1_555
Eu1A O3A 1_555 1_555
Eu1A_2 O3_2 1_555 1_555
Eu1A_2 O4A 1_555 1_555
Eu1C O4C 1_555 1_555
Eu1B_3 O4B 1_555 1_555
C2B C9B 1_555 1_555
C3B O5B 1_555 1_555
O4B C6B 1_555 1_555
O6B C7B 1_555 1_555

#END
