
#######################################################################
#
#                 Cambridge Crystallographic Data Centre
#                                CCDC 
#
#######################################################################
#
# If this CIF has been generated from an entry in the Cambridge 
# Structural Database, then it will include bibliographic, chemical, 
# crystal, experimental, refinement or atomic coordinate data resulting 
# from the CCDC's data processing and validation procedures.
#
#######################################################################

data_NENJIB01
_symmetry_cell_setting           triclinic
_symmetry_space_group_name_H-M   'P -1'
_symmetry_Int_Tables_number      2
_space_group_name_Hall           '-P 1'
loop_
_symmetry_equiv_pos_site_id
_symmetry_equiv_pos_as_xyz
1 x,y,z
2 -x,-y,-z
_cell_length_a                   9.989(2)
_cell_length_b                   10.460(2)
_cell_length_c                   10.625(2)
_cell_angle_alpha                103.92(3)
_cell_angle_beta                 100.62(3)
_cell_angle_gamma                106.48(3)
_cell_volume                     994.522
loop_
_atom_site_label
_atom_site_type_symbol
_atom_site_fract_x
_atom_site_fract_y
_atom_site_fract_z
Zn1 Zn 0.88858(4) 1.11585(5) 0.46733(4)
C1 C 0.8768(4) 1.0298(5) 0.1593(4)
H1 H 0.9754 1.0817 0.1881
C2 C 0.8105(5) 0.9719(5) 0.0233(4)
H2 H 0.8647 0.9837 -0.0381
C3 C 0.6655(5) 0.8972(5) -0.0217(4)
H3 H 0.6196 0.8584 -0.1135
C4 C 0.5880(4) 0.8803(4) 0.0727(4)
C5 C 0.6635(4) 0.9390(4) 0.2069(4)
H4 H 0.6125 0.9251 0.2702
C6 C 0.4322(4) 0.8102(4) 0.0366(4)
C7 C 0.2212(4) 0.7483(4) 0.0581(4)
C8 C 0.0982(4) 0.7316(4) 0.1144(4)
C9 C 0.1277(4) 0.7923(4) 0.2510(4)
H5 H 0.2241 0.8413 0.2994
C10 C -0.1109(4) 0.7132(4) 0.2467(4)
H6 H -0.1831 0.7058 0.2914
C11 C -0.1498(4) 0.6499(5) 0.1101(4)
H7 H -0.2468 0.6014 0.0636
C12 C -0.0450(4) 0.6586(5) 0.0424(4)
H8 H -0.0697 0.6162 -0.0503
C13 C 0.8145(4) 0.8326(4) 0.5465(4)
C14 C 0.6855(4) 0.7576(4) 0.5844(3)
C15 C 0.5579(4) 0.7872(4) 0.5561(4)
H9 H 0.5554 0.8580 0.5178
C16 C 0.4348(4) 0.7127(4) 0.5843(4)
C17 C 0.4387(4) 0.6097(4) 0.6435(4)
H10 H 0.3562 0.5581 0.6617
C18 C 0.5672(4) 0.5847(4) 0.6752(4)
C19 C 0.6905(4) 0.6561(4) 0.6455(3)
H11 H 0.7753 0.6361 0.6665
C20 C 0.2967(4) 0.7438(5) 0.5531(4)
N1 N 0.8032(3) 1.0138(4) 0.2517(3)
N2 N 0.3558(3) 0.8232(4) 0.1294(3)
N3 N 0.3519(4) 0.7315(4) -0.0865(3)
N4 N 0.2185(4) 0.6936(4) -0.0698(3)
H12 H 0.1413 0.6409 -0.1331
N5 N 0.0276(3) 0.7855(3) 0.3185(3)
N6 N 0.5735(4) 0.4796(4) 0.7431(4)
O1 O 0.9225(3) 0.7943(3) 0.5657(3)
O2 O 0.8076(3) 0.9273(3) 0.4968(3)
O3 O 0.6879(4) 0.4611(4) 0.7733(4)
O4 O 0.4639(4) 0.4153(4) 0.7657(4)
O5 O 0.3061(3) 0.8586(3) 0.5338(3)
O6 O 0.1813(3) 0.6567(4) 0.5485(3)
Zn1A Zn 0.11142(4) 0.88415(5) 0.53267(4)
Zn1A_2 Zn 1.11142(4) 0.88415(5) 0.53267(4)
N5A N 0.9724(3) 1.2145(3) 0.6815(3)
O1A O 1.0775(3) 1.2057(3) 0.4343(3)
O5A O 0.6939(3) 1.1414(3) 0.4662(3)
O7 O -0.0005(4) 0.5611(4) 0.6971(3)
H13 H -0.048(5) 0.482(3) 0.652(4)
H14 H 0.053(5) 0.598(5) 0.658(5)
loop_
_geom_bond_atom_site_label_1
_geom_bond_atom_site_label_2
_geom_bond_site_symmetry_1
_geom_bond_site_symmetry_2
Zn1 N1 1_555 1_555
C1 H1 1_555 1_555
C2 C1 1_555 1_555
H2 C2 1_555 1_555
C3 C2 1_555 1_555
H3 C3 1_555 1_555
C4 C3 1_555 1_555
C5 C4 1_555 1_555
H4 C5 1_555 1_555
C6 C4 1_555 1_555
C7 C8 1_555 1_555
C8 C9 1_555 1_555
C9 H5 1_555 1_555
C10 H6 1_555 1_555
C11 C10 1_555 1_555
H7 C11 1_555 1_555
C12 C8 1_555 1_555
H8 C12 1_555 1_555
C13 C14 1_555 1_555
C14 C15 1_555 1_555
C15 H9 1_555 1_555
C16 C15 1_555 1_555
C17 C16 1_555 1_555
H10 C17 1_555 1_555
C18 C17 1_555 1_555
C19 C14 1_555 1_555
H11 C19 1_555 1_555
C20 C16 1_555 1_555
N1 C1 1_555 1_555
N2 C6 1_555 1_555
N3 C6 1_555 1_555
N4 C7 1_555 1_555
H12 N4 1_555 1_555
N5 C9 1_555 1_555
N6 C18 1_555 1_555
O1 C13 1_555 1_555
O2 Zn1 1_555 1_555
O3 N6 1_555 1_555
O4 N6 1_555 1_555
O5 C20 1_555 1_555
O6 C20 1_555 1_555
O7 H13 1_555 1_555
H14 O7 1_555 1_555
Zn1A N5 1_555 1_555
Zn1A_2 O1 1_555 1_555
N5A Zn1 1_555 1_555
O1A Zn1 1_555 1_555
O5A Zn1 1_555 1_555
C5 N1 1_555 1_555
C7 N2 1_555 1_555
C10 N5 1_555 1_555
C11 C12 1_555 1_555
C13 O2 1_555 1_555
C18 C19 1_555 1_555
N3 N4 1_555 1_555
O5 Zn1A 1_555 1_555

#END
