
#######################################################################
#
#                 Cambridge Crystallographic Data Centre
#                                CCDC 
#
#######################################################################
#
# If this CIF has been generated from an entry in the Cambridge 
# Structural Database, then it will include bibliographic, chemical, 
# crystal, experimental, refinement or atomic coordinate data resulting 
# from the CCDC's data processing and validation procedures.
#
#######################################################################

data_NENJOH
_symmetry_cell_setting           triclinic
_symmetry_space_group_name_H-M   'P -1'
_symmetry_Int_Tables_number      2
_space_group_name_Hall           '-P 1'
loop_
_symmetry_equiv_pos_site_id
_symmetry_equiv_pos_as_xyz
1 x,y,z
2 -x,-y,-z
_cell_length_a                   8.8309(10)
_cell_length_b                   10.2181(11)
_cell_length_c                   12.3881(14)
_cell_angle_alpha                73.695(1)
_cell_angle_beta                 84.418(1)
_cell_angle_gamma                68.103(1)
_cell_volume                     995.445
loop_
_atom_site_label
_atom_site_type_symbol
_atom_site_fract_x
_atom_site_fract_y
_atom_site_fract_z
Zn1 Zn 0.35093(3) 0.42548(2) 0.189081(19)
C1 C 0.6806(3) 0.4237(2) 0.14516(19)
C2 C 0.8483(3) 0.3720(3) 0.1428(2)
C3 C 0.9348(3) 0.2371(3) 0.21259(19)
C4 C 0.8493(3) 0.1571(2) 0.28430(17)
C5 C 0.6815(3) 0.2173(2) 0.28361(18)
C6 C 0.9392(3) 0.0113(2) 0.35661(18)
C7 C 0.9970(3) -0.1973(2) 0.47132(17)
C8 C 0.9923(3) -0.3288(2) 0.55563(17)
C9 C 1.1280(3) -0.4587(3) 0.5804(2)
C10 C 1.1164(3) -0.5763(3) 0.6632(2)
C11 C 0.9711(3) -0.5621(2) 0.7203(2)
C12 C 0.8512(3) -0.3230(2) 0.61744(18)
C13 C 0.3409(2) 1.1985(2) 0.13276(18)
C14 C 0.3124(3) 1.0985(2) 0.07567(17)
C15 C 0.2569(3) 1.1495(2) -0.0354(2)
C16 C 0.2244(4) 1.0577(3) -0.0852(2)
C17 C 0.2461(3) 0.9157(3) -0.0259(2)
C18 C 0.3019(3) 0.8630(2) 0.08507(18)
C19 C 0.3347(3) 0.9556(2) 0.13461(18)
C20 C 0.3267(3) 0.7084(2) 0.15000(19)
N1 N 0.5967(2) 0.34816(18) 0.21422(15)
N2 N 0.8685(2) -0.0825(2) 0.42180(15)
N3 N 1.1003(2) -0.0396(2) 0.36298(16)
N4 N 1.1349(2) -0.1729(2) 0.43655(16)
N5 N 0.8397(2) -0.43757(19) 0.69874(15)
O1 O 0.3930(2) 1.15204(16) 0.23174(13)
O2 O 0.2958(2) 0.62923(16) 0.09791(13)
O3 O 0.3749(3) 0.66175(19) 0.24864(15)
O4 O 0.3042(2) 1.33299(16) 0.07918(13)
H1 H 0.614(3) 0.515(3) 0.095(2)
H2 H 0.901(3) 0.423(3) 0.100(2)
H3 H 1.043(3) 0.195(3) 0.217(2)
H4 H 0.616(3) 0.168(2) 0.3303(19)
H5 H 1.219(4) -0.462(3) 0.542(2)
H6 H 1.206(4) -0.667(3) 0.681(2)
H7 H 0.961(3) -0.636(3) 0.775(2)
H8 H 0.763(3) -0.238(3) 0.6033(18)
H9 H 0.250(3) 1.245(3) -0.078(2)
H10 H 0.186(4) 1.088(3) -0.160(3)
H11 H 0.225(3) 0.852(3) -0.062(2)
H12 H 0.372(3) 0.925(3) 0.208(2)
H13 H 1.238(4) -0.227(3) 0.452(3)
Zn1A Zn 0.64907(3) -0.42548(2) 0.810919(19)
Zn1_2 Zn 0.35093(3) 1.42548(2) 0.189081(19)
N5A N 0.1603(2) 0.43757(19) 0.30126(15)
O4_2 O 0.3042(2) 0.33299(16) 0.07918(13)
O5 O 0.5380(3) 0.3337(3) 0.5379(2)
H14 H 0.501(5) 0.274(4) 0.554(3)
H15 H 0.549(8) 0.372(7) 0.580(5)
O6 O 0.4374(4) 0.1079(3) 0.6094(3)
H16 H 0.355(5) 0.096(4) 0.602(3)
H17 H 0.487(6) 0.042(5) 0.643(4)
loop_
_geom_bond_atom_site_label_1
_geom_bond_atom_site_label_2
_geom_bond_site_symmetry_1
_geom_bond_site_symmetry_2
Zn1 N1 1_555 1_555
C1 C2 1_555 1_555
C2 C3 1_555 1_555
C3 C4 1_555 1_555
C4 C5 1_555 1_555
C5 N1 1_555 1_555
C6 C4 1_555 1_555
C7 C8 1_555 1_555
C8 C9 1_555 1_555
C9 C10 1_555 1_555
C10 C11 1_555 1_555
C11 N5 1_555 1_555
C12 C8 1_555 1_555
C13 C14 1_555 1_555
C14 C15 1_555 1_555
C15 C16 1_555 1_555
C16 C17 1_555 1_555
C17 C18 1_555 1_555
C18 C19 1_555 1_555
C19 C14 1_555 1_555
C20 C18 1_555 1_555
N1 C1 1_555 1_555
N2 C6 1_555 1_555
N3 C6 1_555 1_555
N4 C7 1_555 1_555
N5 C12 1_555 1_555
O1 C13 1_555 1_555
O2 Zn1 1_555 1_555
O3 C20 1_555 1_555
O4 C13 1_555 1_555
H1 C1 1_555 1_555
H2 C2 1_555 1_555
H3 C3 1_555 1_555
H4 C5 1_555 1_555
H5 C9 1_555 1_555
H6 C10 1_555 1_555
H7 C11 1_555 1_555
H8 C12 1_555 1_555
H9 C15 1_555 1_555
H10 C16 1_555 1_555
H11 C17 1_555 1_555
H12 C19 1_555 1_555
H13 N4 1_555 1_555
O5 H14 1_555 1_555
H15 O5 1_555 1_555
O6 H16 1_555 1_555
H17 O6 1_555 1_555
Zn1A N5 1_555 1_555
Zn1_2 O4 1_555 1_555
N5A Zn1 1_555 1_555
O4_2 Zn1 1_555 1_555
C7 N2 1_555 1_555
C20 O2 1_555 1_555
N3 N4 1_555 1_555

#END
