
#######################################################################
#
#                 Cambridge Crystallographic Data Centre
#                                CCDC 
#
#######################################################################
#
# If this CIF has been generated from an entry in the Cambridge 
# Structural Database, then it will include bibliographic, chemical, 
# crystal, experimental, refinement or atomic coordinate data resulting 
# from the CCDC's data processing and validation procedures.
#
#######################################################################

data_NENJUN
_symmetry_cell_setting           triclinic
_symmetry_space_group_name_H-M   'P -1'
_symmetry_Int_Tables_number      2
_space_group_name_Hall           '-P 1'
loop_
_symmetry_equiv_pos_site_id
_symmetry_equiv_pos_as_xyz
1 x,y,z
2 -x,-y,-z
_cell_length_a                   8.0748(9)
_cell_length_b                   9.9497(11)
_cell_length_c                   11.4746(13)
_cell_angle_alpha                110.088(1)
_cell_angle_beta                 90.193(1)
_cell_angle_gamma                96.973(2)
_cell_volume                     858.4
loop_
_atom_site_label
_atom_site_type_symbol
_atom_site_fract_x
_atom_site_fract_y
_atom_site_fract_z
Zn1 Zn 0.5000 1.0000 0.0000
C1 C 1.2150(4) 0.6501(4) 0.5233(3)
C2 C 1.1455(4) 0.7580(4) 0.4999(3)
C3 C 1.0481(4) 0.7235(3) 0.3919(3)
H1 H 1.0001 0.7946 0.3734
C4 C 1.0228(3) 0.5822(3) 0.3116(3)
C5 C 1.0971(4) 0.4785(3) 0.3427(3)
C6 C 0.9234(3) 0.5375(3) 0.1934(2)
C7 C 0.7772(3) 0.5455(3) 0.0447(2)
C8 C 0.6772(3) 0.5921(3) -0.0383(2)
C9 C 0.6154(4) 0.4994(3) -0.1555(3)
C10 C 0.5202(4) 0.5519(3) -0.2265(3)
C11 C 0.4906(4) 0.6942(3) -0.1789(3)
H2 H 0.4281 0.7294 -0.2275
C12 C 0.6394(3) 0.7321(3) 0.0027(2)
H3 H 0.6793 0.7933 0.0816
C13 C 0.4139(3) 0.9283(3) 0.2356(2)
C14 C 0.4538(3) 0.9672(3) 0.3741(2)
C15 C 0.5425(3) 0.8758(3) 0.4112(2)
C16 C 0.4120(3) 1.0926(3) 0.4635(2)
C17 C 0.3142(3) 1.1931(3) 0.4277(2)
N1 N 0.5481(3) 0.7837(3) -0.0655(2)
N2 N 0.8523(3) 0.6315(2) 0.1527(2)
N3 N 0.8976(3) 0.4010(3) 0.1176(2)
N4 N 0.8037(3) 0.4091(3) 0.0228(2)
N5 N 1.1918(3) 0.5127(3) 0.4469(2)
O1 O 0.4967(3) 1.0058(2) 0.18452(17)
O2 O 0.3095(3) 0.8211(2) 0.18509(19)
O3 O 0.2133(3) 1.1518(2) 0.3404(2)
O4 O 0.3495(3) 1.3273(2) 0.4987(2)
O5 O 0.7668(3) 1.0667(2) 0.0409(2)
H4 H 0.8101 1.0477 0.0986
H5 H 0.7838 1.1576 0.0642
H8 H 1.282(5) 0.668(4) 0.594(4)
H9 H 1.155(4) 0.852(4) 0.555(3)
H10 H 1.084(4) 0.373(4) 0.288(3)
H11 H 0.644(4) 0.395(3) -0.191(3)
H12 H 0.486(4) 0.489(4) -0.307(3)
H13 H 0.580(4) 0.789(3) 0.346(3)
H14 H 0.298(6) 1.381(5) 0.470(4)
H15 H 0.766(4) 0.328(4) -0.044(3)
Zn1_2 Zn 0.5000 1.0000 1.0000
C1A C -0.2150(4) 1.3499(4) -0.5233(3)
C2A C -0.1455(4) 1.2420(4) -0.4999(3)
C3A C -0.0481(4) 1.2765(3) -0.3919(3)
H1A H -0.0001 1.2054 -0.3734
C4A C -0.0228(3) 1.4178(3) -0.3116(3)
C5A C -0.0971(4) 1.5215(3) -0.3427(3)
C6A C 0.0766(3) 1.4625(3) -0.1934(2)
C7A C 0.2228(3) 1.4545(3) -0.0447(2)
C8A C 0.3228(3) 1.4079(3) 0.0383(2)
C9A C 0.3846(4) 1.5006(3) 0.1555(3)
C10A C 0.4798(4) 1.4481(3) 0.2265(3)
C11A C 0.5094(4) 1.3058(3) 0.1789(3)
H2A H 0.5719 1.2706 0.2275
C12A C 0.3606(3) 1.2679(3) -0.0027(2)
H3A H 0.3207 1.2067 -0.0816
C13A C 0.5861(3) 1.0717(3) 0.7644(2)
C14A C 0.5462(3) 1.0328(3) 0.6259(2)
C15A C 0.4575(3) 1.1242(3) 0.5888(2)
C16A C 0.5880(3) 0.9074(3) 0.5365(2)
C17A C 0.6858(3) 0.8069(3) 0.5723(2)
N1A N 0.4519(3) 1.2163(3) 0.0655(2)
N2A N 0.1477(3) 1.3685(2) -0.1527(2)
N3A N 0.1024(3) 1.5990(3) -0.1176(2)
N4A N 0.1963(3) 1.5909(3) -0.0228(2)
N5A N -0.1918(3) 1.4873(3) -0.4469(2)
O1A O 0.5033(3) 0.9942(2) 0.81548(17)
O1A_2 O 0.5033(3) 0.9942(2) -0.18452(17)
O2A O 0.6905(3) 1.1789(2) 0.81491(19)
O3A O 0.7867(3) 0.8482(2) 0.6596(2)
O4A O 0.6505(3) 0.6727(2) 0.5013(2)
O5A O 0.2332(3) 0.9333(2) -0.0409(2)
H4A H 0.1899 0.9523 -0.0986
H5A H 0.2162 0.8424 -0.0642
H8A H -0.282(5) 1.332(4) -0.594(4)
H9A H -0.155(4) 1.148(4) -0.555(3)
H10A H -0.084(4) 1.627(4) -0.288(3)
H11A H 0.356(4) 1.605(3) 0.191(3)
H12A H 0.514(4) 1.511(4) 0.307(3)
H13A H 0.420(4) 1.211(3) 0.654(3)
H14A H 0.702(6) 0.619(5) 0.530(4)
H15A H 0.234(4) 1.672(4) 0.044(3)
O6 O 0.9699(4) 0.9483(3) 0.1717(4)
H6 H 0.9852 1.0228 0.2393
H7 H 1.0035 0.8823 0.1934
loop_
_geom_bond_atom_site_label_1
_geom_bond_atom_site_label_2
_geom_bond_site_symmetry_1
_geom_bond_site_symmetry_2
Zn1 N1 1_555 1_555
C1 C2 1_555 1_555
C2 C3 1_555 1_555
C3 H1 1_555 1_555
C4 C3 1_555 1_555
C5 C4 1_555 1_555
C6 C4 1_555 1_555
C7 C8 1_555 1_555
C8 C9 1_555 1_555
C9 C10 1_555 1_555
C10 C11 1_555 1_555
C11 H2 1_555 1_555
C12 C8 1_555 1_555
H3 C12 1_555 1_555
C13 C14 1_555 1_555
C14 C15 1_555 1_555
C15 H13 1_555 1_555
C16 C14 1_555 1_555
C17 C16 1_555 1_555
N1 C11 1_555 1_555
N2 C6 1_555 1_555
N3 C6 1_555 1_555
N4 C7 1_555 1_555
N5 C1 1_555 1_555
O1 Zn1 1_555 1_555
O2 C13 1_555 1_555
O3 C17 1_555 1_555
O4 C17 1_555 1_555
O5 Zn1 1_555 1_555
H4 O5 1_555 1_555
H5 O5 1_555 1_555
O6 H6 1_555 1_555
H7 O6 1_555 1_555
H8 C1 1_555 1_555
H9 C2 1_555 1_555
H10 C5 1_555 1_555
H11 C9 1_555 1_555
H12 C10 1_555 1_555
H14 O4 1_555 1_555
H15 N4 1_555 1_555
Zn1_2 O1A 1_555 1_555
C1A C2A 1_555 1_555
C2A C3A 1_555 1_555
C3A H1A 1_555 1_555
C4A C3A 1_555 1_555
C5A C4A 1_555 1_555
C6A C4A 1_555 1_555
C7A C8A 1_555 1_555
C8A C9A 1_555 1_555
C9A C10A 1_555 1_555
C10A C11A 1_555 1_555
C11A H2A 1_555 1_555
C12A C8A 1_555 1_555
H3A C12A 1_555 1_555
C13A C14A 1_555 1_555
C14A C15A 1_555 1_555
C15A C16 1_555 1_555
C16A C15 1_555 1_555
C17A C16A 1_555 1_555
N1A Zn1 1_555 1_555
N2A C6A 1_555 1_555
N3A C6A 1_555 1_555
N4A C7A 1_555 1_555
N5A C1A 1_555 1_555
O1A C13A 1_555 1_555
O1A_2 Zn1 1_555 1_555
O2A C13A 1_555 1_555
O3A C17A 1_555 1_555
O4A C17A 1_555 1_555
O5A Zn1 1_555 1_555
H4A O5A 1_555 1_555
H5A O5A 1_555 1_555
H8A C1A 1_555 1_555
H9A C2A 1_555 1_555
H10A C5A 1_555 1_555
H11A C9A 1_555 1_555
H12A C10A 1_555 1_555
H13A C15A 1_555 1_555
H14A O4A 1_555 1_555
H15A N4A 1_555 1_555
C5 N5 1_555 1_555
C7 N2 1_555 1_555
C12 N1 1_555 1_555
C13 O1 1_555 1_555
N3 N4 1_555 1_555
C5A N5A 1_555 1_555
C7A N2A 1_555 1_555
C11A N1A 1_555 1_555
C12A N1A 1_555 1_555
C14A C16A 1_555 1_555
N3A N4A 1_555 1_555

#END
