
#######################################################################
#
#                 Cambridge Crystallographic Data Centre
#                                CCDC 
#
#######################################################################
#
# If this CIF has been generated from an entry in the Cambridge 
# Structural Database, then it will include bibliographic, chemical, 
# crystal, experimental, refinement or atomic coordinate data resulting 
# from the CCDC's data processing and validation procedures.
#
#######################################################################

data_NENLIB
_symmetry_cell_setting           trigonal
_symmetry_space_group_name_H-M   'P 31 2 1'
_symmetry_Int_Tables_number      152
_space_group_name_Hall           'P 31 2"'
loop_
_symmetry_equiv_pos_site_id
_symmetry_equiv_pos_as_xyz
1 x,y,z
2 -y,x-y,1/3+z
3 -x+y,-x,2/3+z
4 y,x,-z
5 x-y,-y,2/3-z
6 -x,-x+y,1/3-z
_cell_length_a                   7.2250(6)
_cell_length_b                   7.2250(6)
_cell_length_c                   16.438(2)
_cell_angle_alpha                90
_cell_angle_beta                 90
_cell_angle_gamma                120
_cell_volume                     743.114
loop_
_atom_site_label
_atom_site_type_symbol
_atom_site_fract_x
_atom_site_fract_y
_atom_site_fract_z
Mo1 Mo 0.55770(5) 0.55770(5) 0.0000
Zn1 Zn 1.0000 0.77602(8) 0.1667
F1 F 0.4911(4) 0.6992(4) 0.08530(13)
F2 F 0.8539(3) 0.7021(3) 0.05467(10)
O1 O 0.4844(5) 0.3265(4) 0.05673(19)
O2 O 1.2857(4) 0.9113(4) 0.10597(13)
N1 N 1.0000 0.4706(5) 0.1667
N2 N 1.0000 0.0823(5) 0.1667
C1 C 0.9536(6) 0.1572(6) 0.09953(16)
C2 C 0.9546(6) 0.3505(5) 0.09979(16)
H1 H 0.9193 0.0764 0.0507
H2 H 0.9219 0.3984 0.0509
H3 H 1.3597 0.8592 0.1041
H4 H 1.3767 1.0567 0.1028
C1E C 1.0464(6) 0.2036(8) 0.23380(16)
C2E C 1.0454(6) 0.3959(8) 0.23354(16)
H2E H 1.0781 0.4765 0.2824
H1E H 1.0807 0.1571 0.2826
F1C F 0.6992(4) 0.4911(4) -0.08530(13)
F2C F 0.7021(3) 0.8539(3) -0.05467(10)
O1C O 0.3265(4) 0.4844(5) -0.05673(19)
O2E O 0.7143(4) 0.6256(6) 0.22736(13)
H3E H 0.6403 0.4995 0.2292
H4E H 0.6233 0.6800 0.2305
F2E F 1.1461(3) 0.8482(4) 0.27866(10)
N2_2 N 1.0000 1.0823(5) 0.1667
Zn1_2 Zn 1.0000 -0.22398(8) 0.1667
Zn1B Zn 0.77602(8) 1.0000 -0.1666
loop_
_geom_bond_atom_site_label_1
_geom_bond_atom_site_label_2
_geom_bond_site_symmetry_1
_geom_bond_site_symmetry_2
Mo1 F1 1_555 1_555
Zn1 F2 1_555 1_555
F2 Mo1 1_555 1_555
O1 Mo1 1_555 1_555
O2 Zn1 1_555 1_555
N1 Zn1 1_555 1_555
N2 C1 1_555 1_555
C1 C2 1_555 1_555
C2 N1 1_555 1_555
H1 C1 1_555 1_555
H2 C2 1_555 1_555
H3 O2 1_555 1_555
H4 O2 1_555 1_555
C1E N2 1_555 1_555
C2E N1 1_555 1_555
H2E C2E 1_555 1_555
H1E C1E 1_555 1_555
F1C Mo1 1_555 1_555
F2C Mo1 1_555 1_555
O1C Mo1 1_555 1_555
O2E Zn1 1_555 1_555
H3E O2E 1_555 1_555
H4E O2E 1_555 1_555
F2E Zn1 1_555 1_555
N2_2 Zn1 1_555 1_555
Zn1_2 N2 1_555 1_555
Zn1B F2C 1_555 1_555
C1E C2E 1_555 1_555

#END
