
#######################################################################
#
#                 Cambridge Crystallographic Data Centre
#                                CCDC 
#
#######################################################################
#
# If this CIF has been generated from an entry in the Cambridge 
# Structural Database, then it will include bibliographic, chemical, 
# crystal, experimental, refinement or atomic coordinate data resulting 
# from the CCDC's data processing and validation procedures.
#
#######################################################################

data_NENLEZ
_symmetry_cell_setting           monoclinic
_symmetry_space_group_name_H-M   'C 2/c'
_symmetry_Int_Tables_number      15
_space_group_name_Hall           '-C 2yn'
loop_
_symmetry_equiv_pos_site_id
_symmetry_equiv_pos_as_xyz
1 x,y,z
2 -x,y,1/2-z
3 1/2+x,1/2+y,z
4 1/2-x,1/2+y,1/2-z
5 -x,-y,-z
6 x,-y,1/2+z
7 1/2-x,1/2-y,-z
8 1/2+x,1/2-y,1/2+z
_cell_length_a                   9.2751(8)
_cell_length_b                   9.2968(8)
_cell_length_c                   18.3506(14)
_cell_angle_alpha                90
_cell_angle_beta                 115.722(10)
_cell_angle_gamma                90
_cell_volume                     1425.56
loop_
_atom_site_label
_atom_site_type_symbol
_atom_site_fract_x
_atom_site_fract_y
_atom_site_fract_z
K1 K 0.09767(6) 0.28626(5) 0.07370(3)
S1 S 0.12010(8) 0.44058(7) -0.08370(4)
N1 N 0.3539(3) 0.6513(3) -0.05493(14)
C1 C 0.2585(3) 0.5641(3) -0.06559(12)
N2 N 0.0463(2) 0.1285(2) 0.19693(11)
C2 C -0.0901(3) 0.0355(3) 0.14828(12)
H1 H -0.1800 0.0952 0.1142
H2 H -0.0614 -0.0244 0.1133
N3 N -0.1387(2) -0.0569(2) 0.19869(11)
C3 C 0.1798(3) 0.0363(3) 0.24852(14)
H3 H 0.2702 0.0962 0.2816
H4 H 0.2118 -0.0232 0.2146
C4 C 0.0000 0.2165(3) 0.2500
H5 H -0.0889 0.2779 0.2169
C5 C 0.0000 -0.1443(4) 0.2500
H6 H -0.0296 -0.2057 0.2841
K1D K -0.09767(6) 0.71374(5) -0.07370(3)
K1F K 0.40233(6) 0.21374(5) -0.07370(3)
K1B K 0.59767(6) 0.78626(5) 0.07370(3)
K1B_2 K -0.40233(6) -0.21374(5) 0.07370(3)
K1A K -0.09767(6) 0.28626(5) 0.42630(3)
K1C K 0.40233(6) -0.21374(5) 0.42630(3)
K1B_3 K -0.40233(6) 0.78626(5) 0.07370(3)
K1F_2 K -0.59767(6) 0.21374(5) -0.07370(3)
S1D S -0.12010(8) 0.55942(7) 0.08370(4)
S1F S 0.37990(8) 0.05942(7) 0.08370(4)
S1B S -0.37990(8) 0.94058(7) -0.08370(4)
N1D N -0.3539(3) 0.3487(3) 0.05493(14)
N1B N -0.1461(3) 0.1513(3) -0.05493(14)
N1F N 0.1461(3) 0.8487(3) 0.05493(14)
C1D C -0.2585(3) 0.4359(3) 0.06559(12)
N2A N -0.0463(2) 0.1285(2) 0.30307(11)
N2D N -0.0463(2) 0.8715(2) -0.19693(11)
C2A C 0.0901(3) 0.0355(3) 0.35172(12)
H1A H 0.1800 0.0952 0.3858
H2A H 0.0614 -0.0244 0.3867
N3A N 0.1387(2) -0.0569(2) 0.30131(11)
N3B N 0.3613(2) 0.4431(2) 0.19869(11)
N3F N -0.3613(2) 0.5569(2) -0.19869(11)
C3A C -0.1798(3) 0.0363(3) 0.25148(14)
H3A H -0.2702 0.0962 0.2184
H4A H -0.2118 -0.0232 0.2854
H5A H 0.0889 0.2779 0.2831
H6A H 0.0296 -0.2057 0.2159
loop_
_geom_bond_atom_site_label_1
_geom_bond_atom_site_label_2
_geom_bond_site_symmetry_1
_geom_bond_site_symmetry_2
K1 S1 1_555 1_555
S1 C1 1_555 1_555
N1 C1 1_555 1_555
N2 K1 1_555 1_555
C2 N2 1_555 1_555
H1 C2 1_555 1_555
H2 C2 1_555 1_555
N3 C2 1_555 1_555
C3 N2 1_555 1_555
H3 C3 1_555 1_555
H4 C3 1_555 1_555
C4 N2 1_555 1_555
H5 C4 1_555 1_555
C5 N3 1_555 1_555
H6 C5 1_555 1_555
K1D S1 1_555 1_555
K1F S1 1_555 1_555
K1B N1 1_555 1_555
K1B_2 N3 1_555 1_555
K1A N2A 1_555 1_555
K1C N3A 1_555 1_555
K1B_3 S1D 1_555 1_555
K1F_2 N1D 1_555 1_555
S1D K1 1_555 1_555
S1F K1 1_555 1_555
S1B K1D 1_555 1_555
N1D C1D 1_555 1_555
N1B K1 1_555 1_555
N1F K1D 1_555 1_555
C1D S1D 1_555 1_555
N2A C4 1_555 1_555
N2D K1D 1_555 1_555
C2A N2A 1_555 1_555
H1A C2A 1_555 1_555
H2A C2A 1_555 1_555
N3A C3 1_555 1_555
N3B K1 1_555 1_555
N3F K1D 1_555 1_555
C3A N3 1_555 1_555
H3A C3A 1_555 1_555
H4A C3A 1_555 1_555
H5A C4 1_555 1_555
H6A C5 1_555 1_555
C5 N3A 1_555 1_555
K1D S1D 1_555 1_555
K1F S1F 1_555 1_555
K1B_3 S1B 1_555 1_555
N2A C3A 1_555 1_555
C2A N3A 1_555 1_555

#END
