
#######################################################################
#
#                 Cambridge Crystallographic Data Centre
#                                CCDC 
#
#######################################################################
#
# If this CIF has been generated from an entry in the Cambridge 
# Structural Database, then it will include bibliographic, chemical, 
# crystal, experimental, refinement or atomic coordinate data resulting 
# from the CCDC's data processing and validation procedures.
#
#######################################################################

data_NENMAV
_symmetry_cell_setting           monoclinic
_symmetry_space_group_name_H-M   'C c'
_symmetry_Int_Tables_number      9
_space_group_name_Hall           'C -2yc'
loop_
_symmetry_equiv_pos_site_id
_symmetry_equiv_pos_as_xyz
1 x,y,z
2 x,-y,1/2+z
3 1/2+x,1/2+y,z
4 1/2+x,1/2-y,1/2+z
_cell_length_a                   12.265(3)
_cell_length_b                   12.542(2)
_cell_length_c                   10.980(2)
_cell_angle_alpha                90
_cell_angle_beta                 93.59(2)
_cell_angle_gamma                90
_cell_volume                     1685.71
loop_
_atom_site_label
_atom_site_type_symbol
_atom_site_fract_x
_atom_site_fract_y
_atom_site_fract_z
Sn1 Sn 0.50000(2) 0.44082(2) 0.50000(2)
Cl1 Cl 0.4201(2) 0.15500(10) 0.1878(2)
O1 O 0.4860(3) 0.3352(3) 0.3431(3)
O2 O 0.5038(3) 0.4551(2) 0.1968(3)
C1 C 0.5018(2) 0.3059(2) 0.6185(2)
C2 C 0.5867(2) 0.2929(2) 0.7072(3)
C3 C 0.5868(3) 0.2061(3) 0.7860(3)
C4 C 0.5020(4) 0.1325(3) 0.7762(3)
C5 C 0.4171(3) 0.1455(2) 0.6875(4)
C6 C 0.4170(2) 0.2323(2) 0.6086(3)
C7 C 0.3441(2) 0.5121(2) 0.4625(2)
C8 C 0.3264(2) 0.5880(2) 0.3712(2)
C9 C 0.2253(2) 0.6379(2) 0.3547(3)
C10 C 0.1420(2) 0.6118(3) 0.4295(3)
C11 C 0.1597(2) 0.5359(3) 0.5209(3)
C12 C 0.2607(2) 0.4860(2) 0.5374(2)
C13 C 0.6517(4) 0.5184(5) 0.4772(5)
C14 C 0.7336(6) 0.4594(7) 0.4074(8)
C15 C 0.4816(3) 0.3650(3) 0.2329(3)
C16 C 0.4447(8) 0.2825(4) 0.1362(5)
H1 H 0.6434 0.3421 0.7138
H2 H 0.6435 0.1974 0.8454
H3 H 0.5021 0.0744 0.8289
H4 H 0.3604 0.0962 0.6808
H5 H 0.3602 0.2410 0.5493
H6 H 0.3822 0.6054 0.3211
H7 H 0.2135 0.6887 0.2936
H8 H 0.0744 0.6452 0.4185
H9 H 0.1039 0.5185 0.5709
H10 H 0.2726 0.4352 0.5985
H11 H 0.6365 0.5859 0.4364
H12 H 0.6850 0.5344 0.5576
H13 H 0.7984 0.5018 0.4035
H14 H 0.7033 0.4454 0.3262
H15 H 0.7515 0.3932 0.4477
H16 H 0.3784 0.3085 0.0933
H17 H 0.5002 0.2782 0.0772
Sn1A Sn 0.50000(2) 0.55918(2) 0.00000(2)
O2A O 0.5038(3) 0.5449(2) 0.6968(3)
loop_
_geom_bond_atom_site_label_1
_geom_bond_atom_site_label_2
_geom_bond_site_symmetry_1
_geom_bond_site_symmetry_2
Sn1 O1 1_555 1_555
Cl1 C16 1_555 1_555
O1 C15 1_555 1_555
O2 C15 1_555 1_555
C1 Sn1 1_555 1_555
C2 C1 1_555 1_555
C3 C2 1_555 1_555
C4 C3 1_555 1_555
C5 C4 1_555 1_555
C6 C1 1_555 1_555
C7 Sn1 1_555 1_555
C8 C7 1_555 1_555
C9 C8 1_555 1_555
C10 C9 1_555 1_555
C11 C10 1_555 1_555
C12 C7 1_555 1_555
C13 Sn1 1_555 1_555
C14 C13 1_555 1_555
C15 C16 1_555 1_555
C16 H16 1_555 1_555
H1 C2 1_555 1_555
H2 C3 1_555 1_555
H3 C4 1_555 1_555
H4 C5 1_555 1_555
H5 C6 1_555 1_555
H6 C8 1_555 1_555
H7 C9 1_555 1_555
H8 C10 1_555 1_555
H9 C11 1_555 1_555
H10 C12 1_555 1_555
H11 C13 1_555 1_555
H12 C13 1_555 1_555
H13 C14 1_555 1_555
H14 C14 1_555 1_555
H15 C14 1_555 1_555
H17 C16 1_555 1_555
Sn1A O2 1_555 1_555
O2A Sn1 1_555 1_555
C5 C6 1_555 1_555
C11 C12 1_555 1_555

#END
