
#######################################################################
#
#                 Cambridge Crystallographic Data Centre
#                                CCDC 
#
#######################################################################
#
# If this CIF has been generated from an entry in the Cambridge 
# Structural Database, then it will include bibliographic, chemical, 
# crystal, experimental, refinement or atomic coordinate data resulting 
# from the CCDC's data processing and validation procedures.
#
#######################################################################

data_NENMAV01
_symmetry_cell_setting           hexagonal
_symmetry_space_group_name_H-M   'P 61'
_symmetry_Int_Tables_number      169
_space_group_name_Hall           'P 61'
loop_
_symmetry_equiv_pos_site_id
_symmetry_equiv_pos_as_xyz
1 x,y,z
2 -x,-y,1/2+z
3 -y,x-y,1/3+z
4 y,-x+y,5/6+z
5 -x+y,-x,2/3+z
6 x-y,x,1/6+z
_cell_length_a                   10.81050(10)
_cell_length_b                   10.81050(10)
_cell_length_c                   25.8402(3)
_cell_angle_alpha                90
_cell_angle_beta                 90
_cell_angle_gamma                120
_cell_volume                     2615.28
loop_
_atom_site_label
_atom_site_type_symbol
_atom_site_fract_x
_atom_site_fract_y
_atom_site_fract_z
Sn1 Sn 0.66134(4) 1.06225(5) 0.691650(19)
Cl1 Cl 0.5507(2) 1.3340(2) 0.56975(7)
O1 O 0.6883(6) 1.2251(6) 0.63484(18)
O2 O 0.8787(5) 1.2760(5) 0.58624(18)
C1 C 0.6084(6) 0.9093(6) 0.63104(16)
C2 C 0.5283(6) 0.9093(5) 0.58898(18)
H1 H 0.5020 0.9807 0.5862
C3 C 0.4868(6) 0.8049(7) 0.55101(18)
H2 H 0.4320 0.8049 0.5223
C4 C 0.5253(8) 0.7004(6) 0.5551(2)
H3 H 0.4969 0.6290 0.5292
C5 C 0.6055(9) 0.7003(7) 0.5972(3)
H4 H 0.6318 0.6289 0.6000
C6 C 0.6470(7) 0.8048(8) 0.6351(2)
H5 H 0.7018 0.8048 0.6639
C7 C 0.4956(4) 1.0872(6) 0.72441(14)
C8 C 0.3993(5) 1.1013(7) 0.69280(12)
H6 H 0.4082 1.1007 0.6562
C9 C 0.2901(5) 1.1163(8) 0.71469(17)
H7 H 0.2243 1.1259 0.6931
C10 C 0.2771(5) 1.1172(7) 0.76819(18)
H8 H 0.2025 1.1274 0.7831
C11 C 0.3734(5) 1.1031(7) 0.79980(12)
H9 H 0.3646 1.1038 0.8364
C12 C 0.4827(5) 1.0881(6) 0.77791(13)
H10 H 0.5485 1.0785 0.7995
C13 C 0.8699(8) 1.1793(11) 0.7246(3)
H11 H 0.9140 1.1181 0.7251
H12 H 0.9300 1.2633 0.7026
C14 C 0.8666(10) 1.2300(11) 0.7802(3)
H13 H 0.9642 1.2838 0.7937
H14 H 0.8095 1.1469 0.8023
H15 H 0.8239 1.2914 0.7798
C15 C 0.7679(7) 1.2802(7) 0.5960(2)
C16 C 0.7243(9) 1.3631(10) 0.5591(3)
H16 H 0.7307 1.3357 0.5231
H17 H 0.7933 1.4665 0.5628
Sn1C Sn 1.06225(5) 1.40091(6) 0.524983(19)
O2E O 0.6027(7) 0.8787(5) 0.75291(18)
loop_
_geom_bond_atom_site_label_1
_geom_bond_atom_site_label_2
_geom_bond_site_symmetry_1
_geom_bond_site_symmetry_2
Sn1 O1 1_555 1_555
Cl1 C16 1_555 1_555
O1 C15 1_555 1_555
O2 C15 1_555 1_555
C1 Sn1 1_555 1_555
C2 C1 1_555 1_555
H1 C2 1_555 1_555
C3 C2 1_555 1_555
H2 C3 1_555 1_555
C4 C3 1_555 1_555
H3 C4 1_555 1_555
C5 C4 1_555 1_555
H4 C5 1_555 1_555
C6 C1 1_555 1_555
H5 C6 1_555 1_555
C7 Sn1 1_555 1_555
C8 C7 1_555 1_555
H6 C8 1_555 1_555
C9 C8 1_555 1_555
H7 C9 1_555 1_555
C10 C9 1_555 1_555
H8 C10 1_555 1_555
C11 C10 1_555 1_555
H9 C11 1_555 1_555
C12 C7 1_555 1_555
H10 C12 1_555 1_555
C13 Sn1 1_555 1_555
H11 C13 1_555 1_555
H12 C13 1_555 1_555
C14 C13 1_555 1_555
H13 C14 1_555 1_555
H14 C14 1_555 1_555
H15 C14 1_555 1_555
C15 C16 1_555 1_555
C16 H16 1_555 1_555
H17 C16 1_555 1_555
Sn1C O2 1_555 1_555
O2E Sn1 1_555 1_555
C5 C6 1_555 1_555
C11 C12 1_555 1_555

#END
