
#######################################################################
#
#                 Cambridge Crystallographic Data Centre
#                                CCDC 
#
#######################################################################
#
# If this CIF has been generated from an entry in the Cambridge 
# Structural Database, then it will include bibliographic, chemical, 
# crystal, experimental, refinement or atomic coordinate data resulting 
# from the CCDC's data processing and validation procedures.
#
#######################################################################

data_NENNOK
_symmetry_cell_setting           monoclinic
_symmetry_space_group_name_H-M   'P 21/c'
_symmetry_Int_Tables_number      14
_space_group_name_Hall           '-P 2ybc'
loop_
_symmetry_equiv_pos_site_id
_symmetry_equiv_pos_as_xyz
1 x,y,z
2 -x,1/2+y,1/2-z
3 -x,-y,-z
4 x,1/2-y,1/2+z
_cell_length_a                   6.193(3)
_cell_length_b                   9.152(4)
_cell_length_c                   11.167(5)
_cell_angle_alpha                90
_cell_angle_beta                 90.908(5)
_cell_angle_gamma                90
_cell_volume                     632.848
loop_
_atom_site_label
_atom_site_type_symbol
_atom_site_fract_x
_atom_site_fract_y
_atom_site_fract_z
Ni1 Ni 0.34379(11) 0.53169(8) 0.25378(6)
N1 N 0.1207(8) 0.5209(6) 0.1045(4)
N2 N 0.1255(8) 0.5073(5) 0.3980(4)
N3 N 0.4725(8) 0.7275(8) 0.2504(4)
C1 C 0.1828(10) 0.5718(8) 0.0000(6)
C2 C -0.0655(10) 0.4494(8) 0.1027(6)
C3 C -0.0618(10) 0.5781(8) 0.4071(6)
C4 C 0.1843(10) 0.4293(8) 0.4934(6)
C5 C 0.5375(8) 0.8401(5) 0.2479(5)
H1 H -0.101(9) 0.635(6) 0.341(4)
H2 H 0.304(9) 0.640(7) -0.005(6)
H3 H -0.144(9) 0.423(7) 0.175(4)
H4 H 0.307(9) 0.360(7) 0.484(6)
Ni1B Ni -0.34379(11) 0.46831(8) -0.25378(6)
Ni1A Ni 0.65621(11) 1.03169(8) 0.24622(6)
Ni1B_2 Ni -0.34379(11) 0.46831(8) 0.74622(6)
Ni1A_2 Ni 0.65621(11) 0.03169(8) 0.24622(6)
N1B N -0.1207(8) 0.4791(6) -0.1045(4)
N2B N -0.1255(8) 0.4927(5) 0.6020(4)
N2B_2 N -0.1255(8) 0.4927(5) -0.3980(4)
N3A N 0.5275(8) 0.2275(8) 0.2496(4)
N3B N -0.4725(8) 0.2725(8) -0.2504(4)
C1B C -0.1828(10) 0.4282(8) 0.0000(6)
C2B C 0.0655(10) 0.5506(8) -0.1027(6)
C3B C 0.0618(10) 0.4219(8) 0.5929(6)
C4B C -0.1843(10) 0.5707(8) 0.5066(6)
C5A C 0.4625(8) 0.3401(5) 0.2521(5)
C5C C -0.4625(8) 0.6599(5) -0.2521(5)
H1B H 0.101(9) 0.365(6) 0.659(4)
H2B H -0.304(9) 0.360(7) 0.005(6)
H3B H 0.144(9) 0.577(7) -0.175(4)
H4B H -0.307(9) 0.640(7) 0.516(6)
loop_
_geom_bond_atom_site_label_1
_geom_bond_atom_site_label_2
_geom_bond_site_symmetry_1
_geom_bond_site_symmetry_2
Ni1 N1 1_555 1_555
N1 C1 1_555 1_555
N2 Ni1 1_555 1_555
N3 Ni1 1_555 1_555
C1 H2 1_555 1_555
C2 N1 1_555 1_555
C3 N2 1_555 1_555
C4 N2 1_555 1_555
C5 N3 1_555 1_555
H1 C3 1_555 1_555
H3 C2 1_555 1_555
H4 C4 1_555 1_555
Ni1B N1B 1_555 1_555
Ni1A C5 1_555 1_555
Ni1B_2 N2B 1_555 1_555
Ni1A_2 N3A 1_555 1_555
N1B C1B 1_555 1_555
N2B C3B 1_555 1_555
N2B_2 Ni1B 1_555 1_555
N3A C5A 1_555 1_555
N3B Ni1B 1_555 1_555
C1B C2 1_555 1_555
C2B C1 1_555 1_555
C3B C4 1_555 1_555
C4B C3 1_555 1_555
C5A Ni1 1_555 1_555
C5C Ni1B 1_555 1_555
H1B C3B 1_555 1_555
H2B C1B 1_555 1_555
H3B C2B 1_555 1_555
H4B C4B 1_555 1_555
N1B C2B 1_555 1_555
N2B C4B 1_555 1_555

#END
