
#######################################################################
#
#                 Cambridge Crystallographic Data Centre
#                                CCDC 
#
#######################################################################
#
# If this CIF has been generated from an entry in the Cambridge 
# Structural Database, then it will include bibliographic, chemical, 
# crystal, experimental, refinement or atomic coordinate data resulting 
# from the CCDC's data processing and validation procedures.
#
#######################################################################

data_NENRED
_symmetry_cell_setting           monoclinic
_symmetry_space_group_name_H-M   'P 21/c'
_symmetry_Int_Tables_number      14
_space_group_name_Hall           '-P 2ybc'
loop_
_symmetry_equiv_pos_site_id
_symmetry_equiv_pos_as_xyz
1 x,y,z
2 x,1/2-y,1/2+z
3 -x,-y,-z
4 -x,1/2+y,1/2-z
_cell_length_a                   5.7620(8)
_cell_length_b                   22.125(3)
_cell_length_c                   20.413(2)
_cell_angle_alpha                90
_cell_angle_beta                 94.241(3)
_cell_angle_gamma                90
_cell_volume                     2595.21
loop_
_atom_site_label
_atom_site_type_symbol
_atom_site_fract_x
_atom_site_fract_y
_atom_site_fract_z
Ag1 Ag -0.0656(1) 0.26772(4) -0.06169(4)
Ag2 Ag 0.3363(1) 0.24309(3) -0.25762(4)
S1 S -0.1528(4) 0.1814(1) -0.2087(1)
S2 S -0.5746(4) 0.3308(1) -0.1132(1)
F1 F 0.157(1) 0.1010(3) -0.2312(4)
F2 F -0.109(1) 0.0687(3) -0.1731(4)
F3 F -0.181(2) 0.0818(4) -0.2769(4)
F4 F -0.605(2) 0.4452(3) -0.1457(4)
F5 F -0.879(1) 0.4130(3) -0.0901(4)
F6 F -0.544(2) 0.4296(4) -0.0428(4)
O1 O -0.025(1) 0.1960(4) -0.1483(4)
O2 O -0.081(1) 0.2140(3) -0.2657(4)
O3 O -0.400(1) 0.1784(4) -0.2042(4)
O4 O -0.700(1) 0.3187(4) -0.1762(4)
O5 O -0.325(1) 0.3321(4) -0.1157(4)
O6 O -0.654(1) 0.2986(3) -0.0585(4)
N1 N -0.005(1) 0.2264(3) 0.0430(3)
N2 N 0.277(1) 0.2237(3) 0.1340(4)
N3 N 0.128(1) 0.1321(3) 0.0868(3)
C1 C 0.139(2) 0.2545(4) 0.0904(4)
C2 C 0.278(1) 0.1624(4) 0.1275(4)
C3 C -0.021(2) 0.1661(4) 0.0478(4)
C4 C 0.144(1) 0.3209(4) 0.0904(4)
C5 C -0.049(2) 0.3539(4) 0.0643(4)
C6 C -0.042(2) 0.4169(4) 0.0663(5)
C7 C 0.153(2) 0.4463(4) 0.0918(5)
C8 C 0.342(2) 0.4146(4) 0.1185(5)
C9 C 0.336(2) 0.3515(4) 0.1175(4)
C10 C 0.456(1) 0.1288(4) 0.1673(4)
C11 C 0.660(1) 0.1565(4) 0.1926(4)
C12 C 0.825(2) 0.1225(5) 0.2305(5)
C13 C 0.788(2) 0.0630(5) 0.2425(5)
C14 C 0.586(2) 0.0351(4) 0.2177(5)
C15 C 0.419(2) 0.0672(4) 0.1803(5)
C16 C -0.199(1) 0.1345(4) 0.0069(4)
C17 C -0.173(2) 0.0727(4) -0.0060(5)
C18 C -0.346(2) 0.0422(4) -0.0453(5)
C19 C -0.540(2) 0.0731(5) -0.0700(5)
C20 C -0.567(2) 0.1345(5) -0.0575(5)
C21 C -0.399(2) 0.1645(4) -0.0183(4)
C22 C -0.067(2) 0.1038(5) -0.2230(5)
C23 C -0.654(2) 0.4092(5) -0.0971(5)
H1 H -0.1883 0.3322 0.0473
H2 H -0.1718 0.4405 0.0486
H3 H 0.1569 0.4894 0.0929
H4 H 0.4762 0.4362 0.1358
H5 H 0.4668 0.3280 0.1378
H6 H 0.6849 0.1980 0.1838
H7 H 0.9647 0.1424 0.2475
H8 H 0.9030 0.0397 0.2682
H9 H 0.5604 -0.0074 0.2262
H10 H 0.2781 0.0476 0.1645
H11 H -0.0400 0.0511 0.0139
H12 H -0.3283 0.0006 -0.0561
H13 H -0.6549 0.0521 -0.0981
H14 H -0.7031 0.1553 -0.0763
H15 H -0.4212 0.2068 -0.0063
O6_2 O 0.346(1) 0.2986(3) -0.0585(4)
O3_2 O 0.600(1) 0.1784(4) -0.2042(4)
O4_2 O 0.300(1) 0.3187(4) -0.1762(4)
N2A N 0.277(1) 0.2763(3) -0.3660(4)
Ag2_2 Ag -0.6637(1) 0.24309(3) -0.25762(4)
Ag1_2 Ag -1.0656(1) 0.26772(4) -0.06169(4)
Ag2A Ag 0.3363(1) 0.25691(3) 0.24238(4)
loop_
_geom_bond_atom_site_label_1
_geom_bond_atom_site_label_2
_geom_bond_site_symmetry_1
_geom_bond_site_symmetry_2
Ag1 O1 1_555 1_555
Ag2 O2 1_555 1_555
S1 O1 1_555 1_555
S2 O4 1_555 1_555
F1 C22 1_555 1_555
F2 C22 1_555 1_555
F3 C22 1_555 1_555
F4 C23 1_555 1_555
F5 C23 1_555 1_555
F6 C23 1_555 1_555
O2 S1 1_555 1_555
O3 S1 1_555 1_555
O4 Ag2_2 1_555 1_555
O5 Ag1 1_555 1_555
O6 S2 1_555 1_555
N1 Ag1 1_555 1_555
N2 C1 1_555 1_555
N3 C2 1_555 1_555
C1 N1 1_555 1_555
C2 N2 1_555 1_555
C3 N1 1_555 1_555
C4 C1 1_555 1_555
C5 C4 1_555 1_555
C6 C5 1_555 1_555
C7 C6 1_555 1_555
C8 C7 1_555 1_555
C9 C4 1_555 1_555
C10 C2 1_555 1_555
C11 C10 1_555 1_555
C12 C11 1_555 1_555
C13 C12 1_555 1_555
C14 C13 1_555 1_555
C15 C10 1_555 1_555
C16 C3 1_555 1_555
C17 C16 1_555 1_555
C18 C17 1_555 1_555
C19 C18 1_555 1_555
C20 C19 1_555 1_555
C21 C16 1_555 1_555
C22 S1 1_555 1_555
C23 S2 1_555 1_555
H1 C5 1_555 1_555
H2 C6 1_555 1_555
H3 C7 1_555 1_555
H4 C8 1_555 1_555
H5 C9 1_555 1_555
H6 C11 1_555 1_555
H7 C12 1_555 1_555
H8 C13 1_555 1_555
H9 C14 1_555 1_555
H10 C15 1_555 1_555
H11 C17 1_555 1_555
H12 C18 1_555 1_555
H13 C19 1_555 1_555
H14 C20 1_555 1_555
H15 C21 1_555 1_555
O6_2 Ag1 1_555 1_555
O3_2 Ag2 1_555 1_555
O4_2 Ag2 1_555 1_555
N2A Ag2 1_555 1_555
Ag2_2 O3 1_555 1_555
Ag1_2 O6 1_555 1_555
Ag2A N2 1_555 1_555
S2 O5 1_555 1_555
N3 C3 1_555 1_555
C8 C9 1_555 1_555
C14 C15 1_555 1_555
C20 C21 1_555 1_555

#END
