
#######################################################################
#
#                 Cambridge Crystallographic Data Centre
#                                CCDC 
#
#######################################################################
#
# If this CIF has been generated from an entry in the Cambridge 
# Structural Database, then it will include bibliographic, chemical, 
# crystal, experimental, refinement or atomic coordinate data resulting 
# from the CCDC's data processing and validation procedures.
#
#######################################################################

data_NENRIJ
_symmetry_cell_setting           triclinic
_symmetry_space_group_name_H-M   'P -1'
_symmetry_Int_Tables_number      2
_space_group_name_Hall           '-P 1'
loop_
_symmetry_equiv_pos_site_id
_symmetry_equiv_pos_as_xyz
1 x,y,z
2 -x,-y,-z
_cell_length_a                   9.4575(11)
_cell_length_b                   14.5504(16)
_cell_length_c                   15.6961(16)
_cell_angle_alpha                106.655(3)
_cell_angle_beta                 94.615(3)
_cell_angle_gamma                98.566(3)
_cell_volume                     2028.89
loop_
_atom_site_label
_atom_site_type_symbol
_atom_site_fract_x
_atom_site_fract_y
_atom_site_fract_z
Ag1 Ag 0.38306(7) -0.09613(5) 0.99101(5)
Ag2 Ag 0.10127(9) -0.52990(8) 1.56522(6)
N1 N 0.5013(8) -0.1537(5) 1.0819(5)
N2 N 0.2593(8) -0.4705(6) 1.4979(5)
N3 N 0.2207(7) -0.0318(5) 0.9368(5)
N4 N -0.0294(9) 0.3886(6) 0.6325(6)
C1 C 0.5681(10) -0.1021(6) 1.1600(6)
H1 H 0.5709 -0.0351 1.1764
C2 C 0.6344(10) -0.1385(6) 1.2199(6)
H2 H 0.6785 -0.0978 1.2758
C3 C 0.6346(9) -0.2392(6) 1.1952(6)
C4 C 0.5658(13) -0.2921(7) 1.1145(6)
H3 H 0.5630 -0.3592 1.0959
C5 C 0.4996(14) -0.2505(7) 1.0585(6)
H4 H 0.4522 -0.2899 1.0029
C6 C 0.6932(11) -0.2843(8) 1.2643(6)
H5 H 0.7705 -0.2377 1.3057
H6 H 0.7319 -0.3414 1.2343
C7 C 0.5734(10) -0.3131(7) 1.3156(6)
H7 H 0.4928 -0.3542 1.2729
H8 H 0.5407 -0.2546 1.3487
C8 C 0.6160(10) -0.3658(7) 1.3794(6)
H9 H 0.6588 -0.4203 1.3479
H10 H 0.6886 -0.3222 1.4266
C9 C 0.4900(9) -0.4031(6) 1.4211(5)
C10 C 0.4596(11) -0.3484(8) 1.5051(6)
H11 H 0.5156 -0.2879 1.5357
C11 C 0.3468(12) -0.3861(8) 1.5400(6)
H12 H 0.3295 -0.3510 1.5966
C12 C 0.2870(12) -0.5197(7) 1.4173(7)
H13 H 0.2264 -0.5784 1.3866
C13 C 0.3978(11) -0.4887(7) 1.3780(6)
H14 H 0.4119 -0.5257 1.3213
C14 C 0.1887(10) 0.0548(6) 0.9835(6)
H15 H 0.2424 0.0874 1.0391
C15 C 0.0849(11) 0.0966(8) 0.9550(7)
H16 H 0.0717 0.1578 0.9891
C16 C -0.0033(10) 0.0480(8) 0.8738(8)
C17 C 0.0331(11) -0.0412(7) 0.8238(7)
H17 H -0.0182 -0.0757 0.7678
C18 C 0.1418(10) -0.0759(7) 0.8575(6)
H18 H 0.1632 -0.1344 0.8230
C19 C -0.1302(14) 0.0833(9) 0.8410(10)
H19 H -0.1802 0.1113 0.8910
H20 H -0.1965 0.0288 0.7990
C20 C -0.0885(13) 0.1514(10) 0.7999(9)
H21 H -0.0133 0.2017 0.8395
H22 H -0.0486 0.1211 0.7460
C21 C -0.2227(13) 0.2018(10) 0.7733(10)
H23 H -0.2581 0.2382 0.8268
H24 H -0.3014 0.1525 0.7361
C22 C -0.1623(9) 0.2677(8) 0.7235(9)
C23 C -0.0975(12) 0.3646(8) 0.7641(8)
H25 H -0.1008 0.3925 0.8250
C24 C -0.0306(11) 0.4190(8) 0.7182(7)
H26 H 0.0173 0.4817 0.7496
C25 C -0.0984(14) 0.2991(11) 0.5901(7)
H27 H -0.1049 0.2779 0.5279
C26 C -0.1617(14) 0.2346(10) 0.6318(9)
H28 H -0.2027 0.1708 0.5990
Ag1A Ag 0.61694(7) 0.09613(5) 1.00899(5)
Ag2A Ag -0.10127(9) -0.47010(8) 1.43478(6)
Ag2_2 Ag 0.10127(9) 0.47010(8) 0.56522(6)
N4_2 N -0.0294(9) -0.6114(6) 1.6325(6)
S1 S 0.5242(2) -0.17699(13) 0.77337(12)
O1 O 0.2502(5) -0.2919(4) 0.8724(3)
O2 O 0.2248(6) -0.4013(5) 0.7380(4)
O3 O 0.5362(7) -0.1000(4) 0.8560(4)
O4 O 0.3797(6) -0.2050(5) 0.7272(4)
O5 O 0.6322(7) -0.1579(5) 0.7192(5)
O6 O 0.9891(5) -0.3009(5) 0.8509(4)
H29 H 0.9694 -0.3163 0.7963
O7 O 0.9435(6) -0.4091(5) 0.9241(4)
C27 C 0.2974(7) -0.3474(5) 0.8065(5)
C28 C 0.4579(6) -0.3475(5) 0.8209(4)
C29 C 0.5625(7) -0.2785(5) 0.8063(4)
C30 C 0.7086(7) -0.2837(5) 0.8250(5)
H30 H 0.7794 -0.2384 0.8141
C31 C 0.7488(7) -0.3546(5) 0.8592(5)
C32 C 0.6419(7) -0.4242(5) 0.8733(5)
H31 H 0.6686 -0.4729 0.8953
C33 C 0.4992(8) -0.4219(5) 0.8552(5)
H32 H 0.4292 -0.4685 0.8651
C34 C 0.9060(7) -0.3575(6) 0.8814(5)
O8 O 0.9534(11) 0.3010(8) 0.3542(7)
H33 H 0.8935 0.2670 0.3088
H34 H 0.9530 0.3611 0.3617
O9 O 0.7983(9) 0.4908(10) 0.0429(8)
H35 H 0.8811 0.4849 0.0269
H36 H 0.7336 0.4561 0.0004
O10 O 0.1712(10) 0.2152(8) 0.4034(6)
H37 H 0.2529 0.2504 0.4070
H38 H 0.1333 0.1930 0.3489
O11 O 0.242(4) 0.881(2) 0.6113(13)
H39 H 0.2528 0.8304 0.6263
H40 H 0.2644 0.8743 0.5589
O12 O 0.955(4) 0.007(3) 0.406(2)
H41 H 1.0267 -0.0224 0.4035
H42 H 0.9807 0.0625 0.3991
O13 O 0.264(5) 0.043(3) 0.499(3)
H43 H 0.3004 0.0488 0.5519
H44 H 0.1733 0.0422 0.4979
O14? O 0.501(2) 0.0304(12) 0.4714(12)
H45? H 0.5439 0.0844 0.4674
H46? H 0.4827 -0.0289 0.4750
loop_
_geom_bond_atom_site_label_1
_geom_bond_atom_site_label_2
_geom_bond_site_symmetry_1
_geom_bond_site_symmetry_2
Ag1 N1 1_555 1_555
Ag2 N2 1_555 1_555
N1 C1 1_555 1_555
N2 C11 1_555 1_555
N3 Ag1 1_555 1_555
N4 C24 1_555 1_555
C1 H1 1_555 1_555
C2 C1 1_555 1_555
H2 C2 1_555 1_555
C3 C2 1_555 1_555
C4 C3 1_555 1_555
H3 C4 1_555 1_555
C5 N1 1_555 1_555
H4 C5 1_555 1_555
C6 C3 1_555 1_555
H5 C6 1_555 1_555
H6 C6 1_555 1_555
C7 C6 1_555 1_555
H7 C7 1_555 1_555
H8 C7 1_555 1_555
C8 C7 1_555 1_555
H9 C8 1_555 1_555
H10 C8 1_555 1_555
C9 C8 1_555 1_555
C10 C9 1_555 1_555
H11 C10 1_555 1_555
C11 C10 1_555 1_555
H12 C11 1_555 1_555
C12 N2 1_555 1_555
H13 C12 1_555 1_555
C13 C9 1_555 1_555
H14 C13 1_555 1_555
C14 N3 1_555 1_555
H15 C14 1_555 1_555
C15 C14 1_555 1_555
H16 C15 1_555 1_555
C16 C15 1_555 1_555
C17 C16 1_555 1_555
H17 C17 1_555 1_555
C18 N3 1_555 1_555
H18 C18 1_555 1_555
C19 C16 1_555 1_555
H19 C19 1_555 1_555
H20 C19 1_555 1_555
C20 C19 1_555 1_555
H21 C20 1_555 1_555
H22 C20 1_555 1_555
C21 C20 1_555 1_555
H23 C21 1_555 1_555
H24 C21 1_555 1_555
C22 C21 1_555 1_555
C23 C22 1_555 1_555
H25 C23 1_555 1_555
C24 C23 1_555 1_555
H26 C24 1_555 1_555
C25 N4 1_555 1_555
H27 C25 1_555 1_555
C26 C22 1_555 1_555
H28 C26 1_555 1_555
S1 O3 1_555 1_555
O1 C27 1_555 1_555
O2 C27 1_555 1_555
O4 S1 1_555 1_555
O5 S1 1_555 1_555
O6 H29 1_555 1_555
O7 C34 1_555 1_555
C27 C28 1_555 1_555
C28 C29 1_555 1_555
C29 S1 1_555 1_555
C30 C29 1_555 1_555
H30 C30 1_555 1_555
C31 C30 1_555 1_555
C32 C31 1_555 1_555
H31 C32 1_555 1_555
C33 C28 1_555 1_555
H32 C33 1_555 1_555
C34 O6 1_555 1_555
O8 H33 1_555 1_555
H34 O8 1_555 1_555
O9 H35 1_555 1_555
H36 O9 1_555 1_555
O10 H37 1_555 1_555
H38 O10 1_555 1_555
O11 H39 1_555 1_555
H40 O11 1_555 1_555
O12 H41 1_555 1_555
H42 O12 1_555 1_555
O13 H43 1_555 1_555
H44 O13 1_555 1_555
Ag1A Ag1 1_555 1_555
Ag2A Ag2 1_555 1_555
Ag2_2 N4 1_555 1_555
N4_2 Ag2 1_555 1_555
C4 C5 1_555 1_555
C12 C13 1_555 1_555
C17 C18 1_555 1_555
C25 C26 1_555 1_555
C31 C34 1_555 1_555
C32 C33 1_555 1_555

#END
