
#######################################################################
#
#                 Cambridge Crystallographic Data Centre
#                                CCDC 
#
#######################################################################
#
# If this CIF has been generated from an entry in the Cambridge 
# Structural Database, then it will include bibliographic, chemical, 
# crystal, experimental, refinement or atomic coordinate data resulting 
# from the CCDC's data processing and validation procedures.
#
#######################################################################

data_NENRAB
_symmetry_cell_setting           monoclinic
_symmetry_space_group_name_H-M   'P 21/c'
_symmetry_Int_Tables_number      14
_space_group_name_Hall           '-P 2ybc'
loop_
_symmetry_equiv_pos_site_id
_symmetry_equiv_pos_as_xyz
1 x,y,z
2 -x,1/2+y,1/2-z
3 -x,-y,-z
4 x,1/2-y,1/2+z
_cell_length_a                   11.2121(10)
_cell_length_b                   11.3456(10)
_cell_length_c                   10.8965(10)
_cell_angle_alpha                90
_cell_angle_beta                 118.7680(10)
_cell_angle_gamma                90
_cell_volume                     1215.04
loop_
_atom_site_label
_atom_site_type_symbol
_atom_site_fract_x
_atom_site_fract_y
_atom_site_fract_z
Ag1 Ag 0.83150(8) 0.79660(8) 1.33316(8)
Ag2 Ag 0.98179(8) 0.69594(7) 1.12863(8)
Ag3 Ag 0.85341(9) 0.97883(12) 1.09807(10)
S1 S 1.1641(2) 0.97607(16) 1.2085(2)
O1 O 1.0337(7) 0.7954(5) 1.3494(7)
O2 O 1.1295(6) 0.8795(5) 1.5620(6)
O3 O 1.0697(7) 1.0242(5) 1.2523(7)
O4 O 1.0985(7) 0.8878(5) 1.0964(6)
O5 O 1.2347(7) 1.0678(6) 1.1740(7)
O6 O 1.6684(7) 0.8581(6) 1.3742(7)
O7 O 1.7556(7) 0.7632(6) 1.5783(7)
N1 N 0.6369(9) 0.9944(7) 1.0402(9)
C1 C 1.1318(8) 0.8428(7) 1.4574(9)
C2 C 1.2667(9) 0.8464(7) 1.4584(9)
C3 C 1.2923(8) 0.9004(7) 1.3566(8)
C4 C 1.4190(8) 0.8918(6) 1.3655(8)
H1 H 1.4337 0.9269 1.2969
C5 C 1.5259(9) 0.8314(7) 1.4754(9)
C6 C 1.5019(9) 0.7825(7) 1.5770(9)
H2 H 1.5718 0.7428 1.6517
C7 C 1.3760(9) 0.7911(7) 1.5706(9)
H3 H 1.3639 0.7593 1.6425
C8 C 1.6608(8) 0.8168(7) 1.4762(9)
C9 C 0.5928(9) 1.0372(8) 1.1242(10)
H4 H 0.6562 1.0626 1.2132
C10 C 0.5423(10) 0.9545(8) 0.9150(10)
H5 H 0.5690 0.9209 0.8542
Ag1_2 Ag -0.16850(8) 0.79660(8) 1.33316(8)
Ag1C Ag 0.83150(8) 0.70340(8) 0.83316(8)
Ag1_3 Ag 1.83150(8) 0.79660(8) 1.33316(8)
Ag1C_2 Ag 1.83150(8) 0.70340(8) 1.83316(8)
Ag1C_3 Ag 0.83150(8) 0.70340(8) 1.83316(8)
Ag1C_4 Ag -0.16850(8) 0.70340(8) 0.83316(8)
Ag2_2 Ag -0.01821(8) 0.69594(7) 1.12863(8)
Ag2C Ag 0.98179(8) 0.80406(7) 1.62863(8)
Ag2A Ag 1.01821(8) 1.19594(7) 1.37137(8)
Ag2C_2 Ag 1.98179(8) 0.80406(7) 1.62863(8)
Ag2C_3 Ag -0.01821(8) 0.80406(7) 1.62863(8)
Ag2A_2 Ag 0.01821(8) 1.19594(7) 1.37137(8)
Ag3_2 Ag -0.14659(9) 0.97883(12) 1.09807(10)
Ag3B Ag 0.14659(9) 1.02117(12) 0.90193(10)
S1_2 S 0.1641(2) 0.97607(16) 1.2085(2)
O1_2 O 0.0337(7) 0.7954(5) 1.3494(7)
O2_2 O 0.1295(6) 0.8795(5) 1.5620(6)
O2C O 1.1295(6) 0.6205(5) 1.0620(6)
O2C_2 O 0.1295(6) 0.6205(5) 1.0620(6)
O3_2 O 0.0697(7) 1.0242(5) 1.2523(7)
O3A O 0.9303(7) 0.5242(5) 1.2477(7)
O3A_2 O -0.0697(7) 0.5242(5) 1.2477(7)
O4_2 O 0.0985(7) 0.8878(5) 1.0964(6)
O5_2 O 0.2347(7) 1.0678(6) 1.1740(7)
O6_2 O 0.6684(7) 0.8581(6) 1.3742(7)
O6_3 O -0.3316(7) 0.8581(6) 1.3742(7)
O7_2 O 0.7556(7) 0.7632(6) 1.5783(7)
O7C O 0.7556(7) 0.7368(6) 1.0783(7)
O7C_2 O -0.2444(7) 0.7368(6) 1.0783(7)
N1B N 0.3631(9) 1.0056(7) 0.9598(9)
N1_2 N -0.3631(9) 0.9944(7) 1.0402(9)
C1_2 C 0.1318(8) 0.8428(7) 1.4574(9)
C2_2 C 0.2667(9) 0.8464(7) 1.4584(9)
C3_2 C 0.2923(8) 0.9004(7) 1.3566(8)
C4_2 C 0.4190(8) 0.8918(6) 1.3655(8)
H1_2 H 0.4337 0.9269 1.2969
C5_2 C 0.5259(9) 0.8314(7) 1.4754(9)
C6_2 C 0.5019(9) 0.7825(7) 1.5770(9)
H2_2 H 0.5718 0.7428 1.6517
C7_2 C 0.3760(9) 0.7911(7) 1.5706(9)
H3_2 H 0.3639 0.7593 1.6425
C8_2 C 0.6608(8) 0.8168(7) 1.4762(9)
C9B C 0.4072(9) 0.9628(8) 0.8758(10)
H4B H 0.3438 0.9374 0.7868
C10B C 0.4577(10) 1.0455(8) 1.0850(10)
H5B H 0.4310 1.0791 1.1458
loop_
_geom_bond_atom_site_label_1
_geom_bond_atom_site_label_2
_geom_bond_site_symmetry_1
_geom_bond_site_symmetry_2
Ag1 Ag3 1_555 1_555
Ag2 O1 1_555 1_555
Ag3 O3 1_555 1_555
S1 O3 1_555 1_555
O1 Ag1 1_555 1_555
O2 C1 1_555 1_555
O3 Ag2A 1_555 1_555
O4 S1 1_555 1_555
O5 S1 1_555 1_555
O6 C8 1_555 1_555
O7 C8 1_555 1_555
N1 Ag3 1_555 1_555
C1 O1 1_555 1_555
C2 C1 1_555 1_555
C3 S1 1_555 1_555
C4 C3 1_555 1_555
H1 C4 1_555 1_555
C5 C4 1_555 1_555
C6 C5 1_555 1_555
H2 C6 1_555 1_555
C7 C2 1_555 1_555
H3 C7 1_555 1_555
C8 C5 1_555 1_555
C9 N1 1_555 1_555
H4 C9 1_555 1_555
C10 N1 1_555 1_555
H5 C10 1_555 1_555
Ag1_2 Ag2C_3 1_555 1_555
Ag1C Ag2 1_555 1_555
Ag1_3 O6 1_555 1_555
Ag1C_2 O7 1_555 1_555
Ag1C_3 O7_2 1_555 1_555
Ag1C_4 Ag2_2 1_555 1_555
Ag2_2 O1_2 1_555 1_555
Ag2C Ag1 1_555 1_555
Ag2C_2 O7 1_555 1_555
Ag2C_3 O2_2 1_555 1_555
Ag2A_2 O3_2 1_555 1_555
Ag3_2 Ag1_2 1_555 1_555
Ag3B N1B 1_555 1_555
S1_2 O3_2 1_555 1_555
O1_2 Ag1_2 1_555 1_555
O2_2 C1_2 1_555 1_555
O2C Ag2 1_555 1_555
O2C_2 Ag2_2 1_555 1_555
O3_2 Ag3_2 1_555 1_555
O3A Ag2 1_555 1_555
O3A_2 Ag2_2 1_555 1_555
O4_2 S1_2 1_555 1_555
O5_2 S1_2 1_555 1_555
O6_2 Ag1 1_555 1_555
O6_3 Ag1_2 1_555 1_555
O7_2 Ag2C 1_555 1_555
O7C Ag1 1_555 1_555
O7C_2 Ag1_2 1_555 1_555
N1B C9B 1_555 1_555
N1_2 Ag3_2 1_555 1_555
C1_2 O1_2 1_555 1_555
C2_2 C1_2 1_555 1_555
C3_2 S1_2 1_555 1_555
C4_2 C3_2 1_555 1_555
H1_2 C4_2 1_555 1_555
C5_2 C4_2 1_555 1_555
C6_2 C5_2 1_555 1_555
H2_2 C6_2 1_555 1_555
C7_2 C2_2 1_555 1_555
H3_2 C7_2 1_555 1_555
C8_2 O6_2 1_555 1_555
C9B C10 1_555 1_555
H4B C9B 1_555 1_555
C10B C9 1_555 1_555
H5B C10B 1_555 1_555
Ag2 O7C 1_555 1_555
O2 Ag2C 1_555 1_555
C2 C3 1_555 1_555
C6 C7 1_555 1_555
Ag1_3 Ag2C_2 1_555 1_555
Ag2_2 O7C_2 1_555 1_555
O7_2 C8_2 1_555 1_555
N1B C10B 1_555 1_555
C2_2 C3_2 1_555 1_555
C5_2 C8_2 1_555 1_555
C6_2 C7_2 1_555 1_555

#END
