
#######################################################################
#
#                 Cambridge Crystallographic Data Centre
#                                CCDC 
#
#######################################################################
#
# If this CIF has been generated from an entry in the Cambridge 
# Structural Database, then it will include bibliographic, chemical, 
# crystal, experimental, refinement or atomic coordinate data resulting 
# from the CCDC's data processing and validation procedures.
#
#######################################################################

data_NENREF01
_symmetry_cell_setting           triclinic
_symmetry_space_group_name_H-M   'P -1'
_symmetry_Int_Tables_number      2
_space_group_name_Hall           '-P 1'
loop_
_symmetry_equiv_pos_site_id
_symmetry_equiv_pos_as_xyz
1 x,y,z
2 -x,-y,-z
_cell_length_a                   8.2103(7)
_cell_length_b                   10.7063(9)
_cell_length_c                   11.4312(10)
_cell_angle_alpha                103.9380(10)
_cell_angle_beta                 98.7000(10)
_cell_angle_gamma                102.1900(10)
_cell_volume                     931.364
loop_
_atom_site_label
_atom_site_type_symbol
_atom_site_fract_x
_atom_site_fract_y
_atom_site_fract_z
Ag1 Ag 0.86617(6) 0.05166(5) 0.94761(4)
Ag2 Ag 0.87394(6) 0.62282(4) 0.99967(4)
S1 S 0.55547(16) 0.27728(12) 0.90200(11)
O1 O 0.2518(5) 0.0011(4) 0.9035(4)
O2 O 0.0434(5) 0.0845(4) 0.8317(4)
O3 O 0.4390(5) 0.2909(4) 0.9852(4)
O4 O 0.6725(6) 0.2007(5) 0.9330(4)
O5 O 0.6383(6) 0.4027(4) 0.8848(4)
O6 O 0.5916(6) 0.2643(5) 0.4421(4)
O7 O 0.3879(6) 0.0895(5) 0.3189(4)
N1 N 0.8913(6) 0.6475(5) 0.8172(4)
N2 N 0.8829(6) 0.6105(4) 0.1879(4)
C1 C 0.1838(7) 0.0571(5) 0.8331(5)
C2 C 0.2737(6) 0.0864(5) 0.7346(5)
C3 C 0.4293(6) 0.1819(5) 0.7546(5)
C4 C 0.4883(7) 0.2074(5) 0.6532(5)
H1 H 0.5874 0.2742 0.6654
C5 C 0.4025(6) 0.1352(5) 0.5336(5)
C6 C 0.2530(7) 0.0372(5) 0.5152(5)
H2 H 0.1970 -0.0141 0.4357
C7 C 0.1894(7) 0.0163(5) 0.6126(5)
H3 H 0.0860 -0.0466 0.5987
C8 C 0.4719(6) 0.1700(5) 0.4302(5)
C9 C 1.0365(7) 0.6826(5) 0.7812(5)
H4 H 1.1386 0.7103 0.8394
C10 C 1.0411(7) 0.6795(5) 0.6602(5)
H5 H 1.1453 0.7046 0.6385
C11 C 0.8877(6) 0.6383(5) 0.5689(5)
C12 C 0.7395(7) 0.6064(6) 0.6105(5)
H6 H 0.6345 0.5799 0.5556
C13 C 0.7462(8) 0.6137(7) 0.7332(6)
H7 H 0.6440 0.5940 0.7589
C14 C 0.8872(6) 0.6277(5) 0.4379(5)
C15 C 0.7442(7) 0.5574(5) 0.3434(5)
H8 H 0.6463 0.5125 0.3625
C16 C 0.7469(7) 0.5540(6) 0.2214(6)
H9 H 0.6483 0.5099 0.1612
C17 C 1.0249(7) 0.6786(6) 0.2765(5)
H10 H 1.1209 0.7208 0.2534
C18 C 1.0316(7) 0.6875(5) 0.4005(5)
H11 H 1.1318 0.7330 0.4586
Ag1_2 Ag -0.13383(6) 0.05166(5) 0.94761(4)
Ag1A Ag 0.13383(6) -0.05166(5) 1.05239(4)
Ag1A_2 Ag 1.13383(6) -0.05166(5) 1.05239(4)
Ag2_2 Ag 0.87394(6) 0.62282(4) -0.00033(4)
O1A O 0.7482(5) -0.0011(4) 1.0965(4)
O2_2 O 1.0434(5) 0.0845(4) 0.8317(4)
N2_2 N 0.8829(6) 0.6105(4) 1.1879(4)
O8 O 0.5158(8) 0.1435(6) 0.1478(5)
H12 H 0.5477 0.1862 0.2238
H13 H 0.4548 0.1831 0.1107
loop_
_geom_bond_atom_site_label_1
_geom_bond_atom_site_label_2
_geom_bond_site_symmetry_1
_geom_bond_site_symmetry_2
Ag1 O4 1_555 1_555
Ag2 O5 1_555 1_555
S1 O3 1_555 1_555
O1 C1 1_555 1_555
O2 C1 1_555 1_555
O4 S1 1_555 1_555
O5 S1 1_555 1_555
O6 C8 1_555 1_555
O7 C8 1_555 1_555
N1 Ag2 1_555 1_555
N2 C16 1_555 1_555
C1 C2 1_555 1_555
C2 C3 1_555 1_555
C3 S1 1_555 1_555
C4 C3 1_555 1_555
H1 C4 1_555 1_555
C5 C4 1_555 1_555
C6 C5 1_555 1_555
H2 C6 1_555 1_555
C7 C2 1_555 1_555
H3 C7 1_555 1_555
C8 C5 1_555 1_555
C9 N1 1_555 1_555
H4 C9 1_555 1_555
C10 C9 1_555 1_555
H5 C10 1_555 1_555
C11 C10 1_555 1_555
C12 C11 1_555 1_555
H6 C12 1_555 1_555
C13 N1 1_555 1_555
H7 C13 1_555 1_555
C14 C11 1_555 1_555
C15 C14 1_555 1_555
H8 C15 1_555 1_555
C16 C15 1_555 1_555
H9 C16 1_555 1_555
C17 N2 1_555 1_555
H10 C17 1_555 1_555
C18 C14 1_555 1_555
H11 C18 1_555 1_555
O8 H12 1_555 1_555
H13 O8 1_555 1_555
Ag1_2 O2 1_555 1_555
Ag1A O1 1_555 1_555
Ag1A_2 Ag1 1_555 1_555
Ag2_2 N2 1_555 1_555
O1A Ag1 1_555 1_555
O2_2 Ag1 1_555 1_555
N2_2 Ag2 1_555 1_555
C6 C7 1_555 1_555
C12 C13 1_555 1_555
C17 C18 1_555 1_555
Ag1_2 Ag1A 1_555 1_555

#END
