
#######################################################################
#
#                 Cambridge Crystallographic Data Centre
#                                CCDC 
#
#######################################################################
#
# If this CIF has been generated from an entry in the Cambridge 
# Structural Database, then it will include bibliographic, chemical, 
# crystal, experimental, refinement or atomic coordinate data resulting 
# from the CCDC's data processing and validation procedures.
#
#######################################################################

data_NENROP
_symmetry_cell_setting           monoclinic
_symmetry_space_group_name_H-M   'P 21/c'
_symmetry_Int_Tables_number      14
_space_group_name_Hall           '-P 2ybc'
loop_
_symmetry_equiv_pos_site_id
_symmetry_equiv_pos_as_xyz
1 x,y,z
2 -x,1/2+y,1/2-z
3 -x,-y,-z
4 x,1/2-y,1/2+z
_cell_length_a                   13.4241(9)
_cell_length_b                   20.5030(16)
_cell_length_c                   18.7327(14)
_cell_angle_alpha                90
_cell_angle_beta                 109.413(2)
_cell_angle_gamma                90
_cell_volume                     4862.76
loop_
_atom_site_label
_atom_site_type_symbol
_atom_site_fract_x
_atom_site_fract_y
_atom_site_fract_z
Ag1 Ag -0.83618(4) -0.40893(3) -0.96604(4)
Ag2 Ag 0.11890(4) -0.41325(3) -0.39700(4)
N1 N -0.6909(4) -0.4048(3) -0.8715(3)
N2 N -0.0233(4) -0.4174(3) -0.4950(3)
N3 N 0.2871(4) -0.4242(3) -0.3386(3)
N4 N 0.9991(4) -0.4202(3) -0.0303(3)
C1 C -0.5976(6) -0.4054(3) -0.8825(4)
H1 H -0.5971 -0.4048 -0.9320
C2 C -0.5034(6) -0.4068(3) -0.8254(4)
H2 H -0.4407 -0.4073 -0.8364
C3 C -0.5009(6) -0.4076(3) -0.7501(4)
C4 C -0.5983(6) -0.4064(4) -0.7394(4)
H3 H -0.6019 -0.4060 -0.6907
C5 C -0.6878(6) -0.4057(4) -0.7998(4)
H4 H -0.7518 -0.4060 -0.7907
C6 C -0.4024(5) -0.4104(3) -0.6847(4)
H5 H -0.4096 -0.4113 -0.6370
C7 C -0.3071(6) -0.4119(3) -0.6866(4)
H6 H -0.2990 -0.4107 -0.7340
C8 C -0.2109(5) -0.4153(3) -0.6205(4)
C9 C -0.1111(6) -0.4068(4) -0.6276(4)
H7 H -0.1049 -0.4006 -0.6751
C10 C -0.0228(6) -0.4075(4) -0.5648(5)
H8 H 0.0420 -0.4006 -0.5714
C11 C -0.1188(6) -0.4260(4) -0.4875(4)
H9 H -0.1218 -0.4319 -0.4390
C12 C -0.2106(6) -0.4264(3) -0.5462(4)
H10 H -0.2738 -0.4342 -0.5375
C13 C 0.3587(6) -0.4271(3) -0.3728(4)
H11 H 0.3346 -0.4266 -0.4254
C14 C 0.4641(6) -0.4307(4) -0.3373(5)
H12 H 0.5097 -0.4339 -0.3651
C15 C 0.5037(6) -0.4294(3) -0.2585(5)
C16 C 0.4286(7) -0.4278(4) -0.2210(5)
H13 H 0.4499 -0.4289 -0.1684
C17 C 0.3228(6) -0.4246(3) -0.2635(4)
H14 H 0.2739 -0.4227 -0.2381
C18 C 0.6211(7) -0.4302(4) -0.2205(5)
H15 H 0.6632 -0.4320 -0.2510
C19 C 0.6654(8) -0.4285(4) -0.1513(6)
H16 H 0.6229 -0.4285 -0.1209
C20 C 0.7822(6) -0.4264(3) -0.1128(5)
C21 C 0.8592(7) -0.4331(4) -0.1478(5)
H17 H 0.8392 -0.4410 -0.1995
C22 C 0.9644(6) -0.4279(4) -0.1051(4)
H18 H 1.0139 -0.4299 -0.1299
C23 C 0.9251(6) -0.4170(3) 0.0026(5)
H19 H 0.9469 -0.4123 0.0549
C24 C 0.8188(6) -0.4200(4) -0.0360(5)
H20 H 0.7712 -0.4178 -0.0096
Ag1_2 Ag 1.16382(4) -0.40893(3) 0.03396(4)
N4_2 N -1.0009(4) -0.4202(3) -1.0303(3)
Ag3 Ag 0.20903(4) -0.25746(3) -0.39754(3)
N5 N 0.3710(4) -0.2603(3) -0.3286(3)
N6 N 1.0494(4) -0.2484(3) 0.0311(3)
C25 C 0.4504(5) -0.2589(3) -0.3556(4)
H21 H 0.4353 -0.2575 -0.4078
C26 C 0.5528(5) -0.2594(3) -0.3103(4)
H22 H 0.6055 -0.2573 -0.3323
C27 C 0.5811(5) -0.2630(3) -0.2325(4)
C28 C 0.4975(5) -0.2636(4) -0.2045(4)
H23 H 0.5101 -0.2637 -0.1526
C29 C 0.3974(5) -0.2640(4) -0.2537(4)
H24 H 0.3429 -0.2671 -0.2335
C30 C 0.6901(5) -0.2615(3) -0.1839(4)
H25 H 0.7405 -0.2661 -0.2077
C31 C 0.7263(5) -0.2545(4) -0.1106(4)
H26 H 0.6765 -0.2502 -0.0862
C32 C 0.8377(5) -0.2527(3) -0.0626(4)
C33 C 0.9209(5) -0.2636(3) -0.0906(4)
H27 H 0.9069 -0.2721 -0.1418
C34 C 1.0210(5) -0.2616(4) -0.0431(4)
H28 H 1.0745 -0.2699 -0.0631
C35 C 0.9692(6) -0.2378(4) 0.0571(4)
H29 H 0.9854 -0.2278 0.1082
C36 C 0.8663(5) -0.2408(4) 0.0140(4)
H30 H 0.8144 -0.2348 0.0361
Ag3C Ag -0.79097(4) -0.24254(3) -0.89754(3)
Ag3C_2 Ag 1.20903(4) -0.24254(3) 0.10246(3)
N5C N -0.6290(4) -0.2397(3) -0.8286(3)
N6C N 0.0494(4) -0.2516(3) -0.4689(3)
N6_2 N -0.9506(4) -0.2484(3) -0.9689(3)
C25C C -0.5496(5) -0.2411(3) -0.8556(4)
H21C H -0.5647 -0.2425 -0.9078
C26C C -0.4472(5) -0.2406(3) -0.8103(4)
H22C H -0.3945 -0.2427 -0.8323
C27C C -0.4189(5) -0.2370(3) -0.7325(4)
C28C C -0.5025(5) -0.2364(4) -0.7045(4)
H23C H -0.4899 -0.2363 -0.6526
C29C C -0.6026(5) -0.2360(4) -0.7537(4)
H24C H -0.6571 -0.2329 -0.7335
C30C C -0.3099(5) -0.2385(3) -0.6839(4)
H25C H -0.2595 -0.2339 -0.7077
C31C C -0.2737(5) -0.2455(4) -0.6106(4)
H26C H -0.3235 -0.2498 -0.5862
C32C C -0.1623(5) -0.2473(3) -0.5626(4)
C33C C -0.0791(5) -0.2364(3) -0.5906(4)
H27C H -0.0931 -0.2279 -0.6418
C34C C 0.0210(5) -0.2384(4) -0.5431(4)
H28C H 0.0745 -0.2301 -0.5631
C35C C -0.0308(6) -0.2622(4) -0.4429(4)
H29C H -0.0146 -0.2722 -0.3918
C36C C -0.1337(5) -0.2592(4) -0.4860(4)
H30C H -0.1856 -0.2652 -0.4639
S1 S 0.30819(13) -0.29091(8) -0.07516(9)
O1 O 0.1461(4) -0.3162(2) -0.2902(3)
O2 O 0.0510(4) -0.3357(2) -0.2157(3)
O3 O 0.3022(4) -0.3457(2) -0.1247(3)
O4 O 0.2619(4) -0.3038(2) -0.0166(3)
O5 O 0.4153(3) -0.2651(2) -0.0443(3)
O6 O 0.3250(5) -0.0368(3) -0.0624(3)
O7 O 0.1858(5) 0.0043(2) -0.1531(4)
C37 C 0.1138(5) -0.3029(3) -0.2373(4)
C38 C 0.1478(5) -0.2379(3) -0.1988(4)
C39 C 0.2329(5) -0.2266(3) -0.1314(3)
C40 C 0.2594(5) -0.1626(3) -0.1051(4)
H31 H 0.3152 -0.1558 -0.0604
C41 C 0.2040(5) -0.1094(3) -0.1443(4)
C42 C 0.1177(5) -0.1198(3) -0.2090(4)
H32 H 0.0778 -0.0846 -0.2344
C43 C 0.0912(5) -0.1826(3) -0.2354(4)
H33 H 0.0336 -0.1886 -0.2793
C44 C 0.2409(6) -0.0420(3) -0.1174(4)
O8 O 0.2607(7) -0.4623(3) -0.0660(4)
H34 H 0.2405 -0.4830 -0.0339
H35 H 0.2800 -0.4241 -0.0495
O9 O 0.0262(4) -0.4571(2) -0.2908(3)
H36 H -0.0397 -0.4550 -0.3148
H37 H 0.0462 -0.4223 -0.2654
O10 O 0.1258(6) -0.5421(3) -0.1710(4)
H38 H 0.0837 -0.5330 -0.2149
H39 H 0.1354 -0.5084 -0.1431
O11 O 0.2864(5) -0.8760(3) -0.1270(4)
H40 H 0.3251 -0.8995 -0.1445
H41 H 0.2487 -0.9003 -0.1095
O12 O 0.5299(11) -0.0515(7) -0.0221(8)
H42 H 0.5304 -0.0697 0.0188
H43 H 0.4773 -0.0653 -0.0585
O13 O 0.8508(5) -0.2826(3) -0.2976(4)
H44 H 0.7862 -0.2880 -0.3237
H45 H 0.8805 -0.3195 -0.2858
O14 O 0.7674(7) -0.3396(3) -0.8443(5)
H46 H 0.7047 -0.3429 -0.8434
H47 H 0.8037 -0.3720 -0.8214
O15 O 0.5943(7) -0.3512(5) -0.9838(6)
H48 H 0.5338 -0.3539 -0.9788
H49 H 0.6297 -0.3854 -0.9661
O16 O 0.5568(11) -0.1554(8) -0.0109(7)
H50 H 0.5054 -0.1666 -0.0497
H51 H 0.6125 -0.1521 -0.0227
O17 O 0.5000 -0.5000 0.0000
H52 H 0.4972 -0.5063 -0.0455
H52B H 0.5028 -0.4937 0.0455
O18? O 0.421(2) -0.5287(12) -0.0067(15)
H53? H 0.4168 -0.5366 -0.0521
H54? H 0.4495 -0.5609 0.0213
H55? H 0.4648 -0.5344 -0.0169
loop_
_geom_bond_atom_site_label_1
_geom_bond_atom_site_label_2
_geom_bond_site_symmetry_1
_geom_bond_site_symmetry_2
Ag1 N1 1_555 1_555
Ag2 N2 1_555 1_555
N1 C1 1_555 1_555
N2 C10 1_555 1_555
N3 Ag2 1_555 1_555
N4 C22 1_555 1_555
C1 H1 1_555 1_555
C2 C1 1_555 1_555
H2 C2 1_555 1_555
C3 C2 1_555 1_555
C4 C3 1_555 1_555
H3 C4 1_555 1_555
C5 N1 1_555 1_555
H4 C5 1_555 1_555
C6 C3 1_555 1_555
H5 C6 1_555 1_555
C7 C6 1_555 1_555
H6 C7 1_555 1_555
C8 C7 1_555 1_555
C9 C8 1_555 1_555
H7 C9 1_555 1_555
C10 C9 1_555 1_555
H8 C10 1_555 1_555
C11 N2 1_555 1_555
H9 C11 1_555 1_555
C12 C8 1_555 1_555
H10 C12 1_555 1_555
C13 N3 1_555 1_555
H11 C13 1_555 1_555
C14 C13 1_555 1_555
H12 C14 1_555 1_555
C15 C14 1_555 1_555
C16 C15 1_555 1_555
H13 C16 1_555 1_555
C17 N3 1_555 1_555
H14 C17 1_555 1_555
C18 C15 1_555 1_555
H15 C18 1_555 1_555
C19 C18 1_555 1_555
H16 C19 1_555 1_555
C20 C19 1_555 1_555
C21 C20 1_555 1_555
H17 C21 1_555 1_555
C22 C21 1_555 1_555
H18 C22 1_555 1_555
C23 N4 1_555 1_555
H19 C23 1_555 1_555
C24 C20 1_555 1_555
H20 C24 1_555 1_555
Ag3 N5 1_555 1_555
N5 C25 1_555 1_555
N6 C34 1_555 1_555
C25 H21 1_555 1_555
C26 C25 1_555 1_555
H22 C26 1_555 1_555
C27 C26 1_555 1_555
C28 C27 1_555 1_555
H23 C28 1_555 1_555
C29 N5 1_555 1_555
H24 C29 1_555 1_555
C30 C27 1_555 1_555
H25 C30 1_555 1_555
C31 C30 1_555 1_555
H26 C31 1_555 1_555
C32 C31 1_555 1_555
C33 C32 1_555 1_555
H27 C33 1_555 1_555
C34 C33 1_555 1_555
H28 C34 1_555 1_555
C35 N6 1_555 1_555
H29 C35 1_555 1_555
C36 C32 1_555 1_555
H30 C36 1_555 1_555
S1 O3 1_555 1_555
O1 C37 1_555 1_555
O2 C37 1_555 1_555
O4 S1 1_555 1_555
O5 S1 1_555 1_555
O6 C44 1_555 1_555
O7 C44 1_555 1_555
C37 C38 1_555 1_555
C38 C39 1_555 1_555
C39 S1 1_555 1_555
C40 C39 1_555 1_555
H31 C40 1_555 1_555
C41 C40 1_555 1_555
C42 C41 1_555 1_555
H32 C42 1_555 1_555
C43 C38 1_555 1_555
H33 C43 1_555 1_555
C44 C41 1_555 1_555
O8 H34 1_555 1_555
H35 O8 1_555 1_555
O9 H36 1_555 1_555
H37 O9 1_555 1_555
O10 H38 1_555 1_555
H39 O10 1_555 1_555
O11 H40 1_555 1_555
H41 O11 1_555 1_555
O12 H42 1_555 1_555
H43 O12 1_555 1_555
O13 H44 1_555 1_555
H45 O13 1_555 1_555
O14 H46 1_555 1_555
H47 O14 1_555 1_555
O15 H48 1_555 1_555
H49 O15 1_555 1_555
O16 H50 1_555 1_555
H51 O16 1_555 1_555
O17 H52 1_555 1_555
Ag1_2 N4 1_555 1_555
N4_2 Ag1 1_555 1_555
Ag3C N5C 1_555 1_555
Ag3C_2 N6 1_555 1_555
N5C C25C 1_555 1_555
N6C Ag3 1_555 1_555
N6_2 Ag3C 1_555 1_555
C25C H21C 1_555 1_555
C26C C25C 1_555 1_555
H22C C26C 1_555 1_555
C27C C26C 1_555 1_555
C28C C27C 1_555 1_555
H23C C28C 1_555 1_555
C29C N5C 1_555 1_555
H24C C29C 1_555 1_555
C30C C27C 1_555 1_555
H25C C30C 1_555 1_555
C31C C30C 1_555 1_555
H26C C31C 1_555 1_555
C32C C31C 1_555 1_555
C33C C32C 1_555 1_555
H27C C33C 1_555 1_555
C34C N6C 1_555 1_555
H28C C34C 1_555 1_555
C35C N6C 1_555 1_555
H29C C35C 1_555 1_555
C36C C32C 1_555 1_555
H30C C36C 1_555 1_555
H52B O17 1_555 1_555
C4 C5 1_555 1_555
C11 C12 1_555 1_555
C16 C17 1_555 1_555
C23 C24 1_555 1_555
C28 C29 1_555 1_555
C35 C36 1_555 1_555
C42 C43 1_555 1_555
C28C C29C 1_555 1_555
C33C C34C 1_555 1_555
C35C C36C 1_555 1_555

#END
