
#######################################################################
#
#                 Cambridge Crystallographic Data Centre
#                                CCDC 
#
#######################################################################
#
# If this CIF has been generated from an entry in the Cambridge 
# Structural Database, then it will include bibliographic, chemical, 
# crystal, experimental, refinement or atomic coordinate data resulting 
# from the CCDC's data processing and validation procedures.
#
#######################################################################

data_NENREF
_symmetry_cell_setting           triclinic
_symmetry_space_group_name_H-M   'P -1'
_symmetry_Int_Tables_number      2
_space_group_name_Hall           '-P 1'
loop_
_symmetry_equiv_pos_site_id
_symmetry_equiv_pos_as_xyz
1 x,y,z
2 -x,-y,-z
_cell_length_a                   8.2103(7)
_cell_length_b                   10.7063(9)
_cell_length_c                   11.4312(10)
_cell_angle_alpha                103.9380(10)
_cell_angle_beta                 98.7000(10)
_cell_angle_gamma                102.1900(10)
_cell_volume                     931.364
loop_
_atom_site_label
_atom_site_type_symbol
_atom_site_fract_x
_atom_site_fract_y
_atom_site_fract_z
Ag1 Ag 0.86619(6) 0.05166(5) 0.94760(5)
Ag2 Ag 0.12604(6) -0.62282(5) 1.00031(4)
S1 S 0.44456(17) -0.27726(13) 1.09804(12)
O1 O 0.7481(6) -0.0010(5) 1.0968(5)
O2 O 0.9568(5) -0.0844(5) 1.1685(4)
O3 O 0.5609(5) -0.2910(4) 1.0149(4)
O4 O 0.3274(6) -0.2005(5) 1.0672(4)
O5 O 0.3616(7) -0.4027(5) 1.1150(4)
O6 O 0.4086(6) -0.2642(5) 1.5578(4)
O7 O 0.6127(6) -0.0894(5) 1.6805(4)
H1 H 0.5695 -0.1132 1.7343
N1 N 0.1087(6) -0.6476(5) 1.1828(4)
N2 N 0.1170(6) -0.6106(5) 1.8123(4)
C1 C 0.8162(7) -0.0570(5) 1.1669(5)
C2 C 0.7262(6) -0.0864(5) 1.2654(5)
C3 C 0.5708(6) -0.1817(5) 1.2454(5)
C4 C 0.5116(7) -0.2073(5) 1.3471(5)
H2 H 0.4124 -0.2741 1.3349
C5 C 0.5975(7) -0.1352(5) 1.4665(5)
C6 C 0.7471(7) -0.0372(6) 1.4849(6)
H3 H 0.8034 0.0139 1.5644
C7 C 0.8107(7) -0.0165(6) 1.3871(5)
H4 H 0.9140 0.0463 1.4008
C8 C 0.5279(7) -0.1700(6) 1.5699(5)
C9 C -0.0362(7) -0.6826(5) 1.2191(5)
H5 H -0.1383 -0.7103 1.1609
C10 C -0.0410(7) -0.6795(5) 1.3397(5)
H6 H -0.1453 -0.7045 1.3614
C11 C 0.1124(7) -0.6384(5) 1.4312(5)
C12 C 0.2604(7) -0.6062(7) 1.3893(6)
H7 H 0.3654 -0.5791 1.4442
C13 C 0.2535(8) -0.6140(7) 1.2666(6)
H8 H 0.3558 -0.5947 1.2409
C14 C 0.1126(6) -0.6277(5) 1.5622(5)
C15 C 0.2560(7) -0.5570(6) 1.6569(5)
H9 H 0.3537 -0.5119 1.6378
C16 C 0.2532(7) -0.5539(6) 1.7786(6)
H10 H 0.3518 -0.5099 1.8388
C17 C -0.0252(7) -0.6787(6) 1.7236(5)
H11 H -0.1213 -0.7207 1.7466
C18 C -0.0316(7) -0.6874(5) 1.5996(5)
H12 H -0.1317 -0.7329 1.5415
Ag1A Ag 1.13381(6) -0.05166(5) 1.05240(5)
Ag1A_2 Ag 0.13381(6) -0.05166(5) 1.05240(5)
Ag2_2 Ag 0.12604(6) -0.62282(5) 2.00031(4)
O2A O 1.0432(5) 0.0844(5) 0.8315(4)
O4A O 0.6726(6) 0.2005(5) 0.9328(4)
N2_2 N 0.1170(6) -0.6106(5) 0.8123(4)
O8 O 0.5160(8) 0.1433(6) 0.1474(5)
H13 H 0.5480 0.1860 0.2235
H14 H 0.4550 0.1829 0.1103
loop_
_geom_bond_atom_site_label_1
_geom_bond_atom_site_label_2
_geom_bond_site_symmetry_1
_geom_bond_site_symmetry_2
Ag1 O1 1_555 1_555
Ag2 O5 1_555 1_555
S1 O3 1_555 1_555
O1 C1 1_555 1_555
O2 C1 1_555 1_555
O4 S1 1_555 1_555
O5 S1 1_555 1_555
O6 C8 1_555 1_555
O7 H1 1_555 1_555
N1 Ag2 1_555 1_555
N2 C16 1_555 1_555
C1 C2 1_555 1_555
C2 C3 1_555 1_555
C3 S1 1_555 1_555
C4 C3 1_555 1_555
H2 C4 1_555 1_555
C5 C4 1_555 1_555
C6 C5 1_555 1_555
H3 C6 1_555 1_555
C7 C2 1_555 1_555
H4 C7 1_555 1_555
C8 O7 1_555 1_555
C9 N1 1_555 1_555
H5 C9 1_555 1_555
C10 C9 1_555 1_555
H6 C10 1_555 1_555
C11 C10 1_555 1_555
C12 C11 1_555 1_555
H7 C12 1_555 1_555
C13 N1 1_555 1_555
H8 C13 1_555 1_555
C14 C11 1_555 1_555
C15 C14 1_555 1_555
H9 C15 1_555 1_555
C16 C15 1_555 1_555
H10 C16 1_555 1_555
C17 N2 1_555 1_555
H11 C17 1_555 1_555
C18 C14 1_555 1_555
H12 C18 1_555 1_555
O8 H13 1_555 1_555
H14 O8 1_555 1_555
Ag1A Ag1 1_555 1_555
Ag1A_2 O4 1_555 1_555
Ag2_2 N2 1_555 1_555
O2A Ag1 1_555 1_555
O4A Ag1 1_555 1_555
N2_2 Ag2 1_555 1_555
O2 Ag1A 1_555 1_555
C5 C8 1_555 1_555
C6 C7 1_555 1_555
C12 C13 1_555 1_555
C17 C18 1_555 1_555

#END
