
#######################################################################
#
#                 Cambridge Crystallographic Data Centre
#                                CCDC 
#
#######################################################################
#
# If this CIF has been generated from an entry in the Cambridge 
# Structural Database, then it will include bibliographic, chemical, 
# crystal, experimental, refinement or atomic coordinate data resulting 
# from the CCDC's data processing and validation procedures.
#
#######################################################################

data_NENTIJ
_symmetry_cell_setting           triclinic
_symmetry_space_group_name_H-M   'P -1'
_symmetry_Int_Tables_number      2
_space_group_name_Hall           '-P 1'
loop_
_symmetry_equiv_pos_site_id
_symmetry_equiv_pos_as_xyz
1 x,y,z
2 -x,-y,-z
_cell_length_a                   11.6767(8)
_cell_length_b                   10.8680(8)
_cell_length_c                   11.4232(8)
_cell_angle_alpha                92.301(2)
_cell_angle_beta                 106.932(2)
_cell_angle_gamma                103.2390(10)
_cell_volume                     1341.02
loop_
_atom_site_label
_atom_site_type_symbol
_atom_site_fract_x
_atom_site_fract_y
_atom_site_fract_z
P1 P 0.15863(9) 0.18909(9) -0.61061(9)
Mn1 Mn -0.22147(6) 0.55967(6) -0.21075(6)
C1 C 0.0721(3) 0.2478(3) -0.5241(3)
C2 C 0.0953(4) 0.2425(4) -0.3975(4)
H1 H 0.1538 0.2014 -0.3551
C3 C 0.0313(4) 0.2986(4) -0.3349(4)
H2 H 0.0502 0.2980 -0.2501
C4 C -0.0597(4) 0.3550(4) -0.3964(4)
C5 C -0.0839(4) 0.3580(4) -0.5229(4)
H3 H -0.1459 0.3949 -0.5657
C6 C -0.0182(4) 0.3076(4) -0.5855(4)
H4 H -0.0340 0.3133 -0.6695
C7 C -0.1255(4) 0.4215(4) -0.3291(4)
O1 O -0.0644(3) 0.4836(3) -0.2249(3)
O2 O -0.2371(3) 0.4166(3) -0.3795(3)
C8 C 0.2706(3) 0.1202(4) -0.5081(3)
C9 C 0.2487(4) -0.0070(4) -0.4871(4)
H5 H 0.1720 -0.0621 -0.5273
C10 C 0.3393(4) -0.0526(4) -0.4074(4)
H6 H 0.3237 -0.1384 -0.3960
C11 C 0.4544(4) 0.0293(4) -0.3436(4)
C12 C 0.4769(4) 0.1557(4) -0.3654(4)
H7 H 0.5537 0.2108 -0.3254
C13 C 0.3866(4) 0.2009(4) -0.4460(4)
H8 H 0.4032 0.2862 -0.4591
C14 C 0.5534(4) -0.0128(5) -0.2524(4)
O3 O 0.6493(4) 0.0604(4) -0.1932(4)
O4 O 0.5266(3) -0.1353(4) -0.2394(4)
H9 H 0.5857 -0.1520 -0.1893
C15 C 0.0501(3) 0.0633(4) -0.7253(3)
C16 C 0.0998(4) -0.0034(4) -0.7969(4)
H10 H 0.1850 0.0143 -0.7812
C17 C 0.0221(4) -0.0958(4) -0.8911(4)
H11 H 0.0559 -0.1412 -0.9371
C18 C -0.1062(4) -0.1218(4) -0.9183(3)
C19 C -0.1544(4) -0.0553(4) -0.8470(4)
H12 H -0.2397 -0.0713 -0.8646
C20 C -0.0779(4) 0.0353(4) -0.7493(4)
H13 H -0.1119 0.0768 -0.7004
C21 C -0.1915(4) -0.2228(4) -1.0237(4)
O5 O -0.3030(3) -0.2244(3) -1.0640(3)
O6 O -0.1379(3) -0.2975(3) -1.0614(3)
O7 O 0.2239(3) 0.2934(3) -0.6664(3)
N1 N -0.2596(3) 0.4088(3) -0.0843(3)
C22 C -0.1721(5) 0.3587(5) -0.0152(4)
H14 H -0.0917 0.3851 -0.0190
C23 C -0.1982(6) 0.2683(5) 0.0620(4)
H15 H -0.1363 0.2342 0.1095
C24 C -0.3169(7) 0.2302(6) 0.0672(5)
H16 H -0.3363 0.1691 0.1178
C25 C -0.4071(6) 0.2827(5) -0.0029(5)
H17 H -0.4878 0.2581 0.0002
C26 C -0.3754(4) 0.3729(4) -0.0783(4)
C27 C -0.4651(4) 0.4339(4) -0.1588(4)
C28 C -0.5849(5) 0.4216(5) -0.1542(5)
H18 H -0.6127 0.3737 -0.0976
C29 C -0.6622(5) 0.4810(6) -0.2344(6)
H19 H -0.7426 0.4737 -0.2326
C30 C -0.6187(5) 0.5510(6) -0.3169(6)
H20 H -0.6695 0.5913 -0.3722
C31 C -0.4995(4) 0.5609(5) -0.3165(5)
H21 H -0.4705 0.6083 -0.3727
N2 N -0.4238(3) 0.5052(3) -0.2391(3)
O7A O -0.2239(3) 0.7066(3) -0.3336(3)
O6_2 O -0.1379(3) 0.7025(3) -0.0614(3)
Mn1A Mn 0.22147(6) 0.44033(6) -0.78925(6)
Mn1_2 Mn -0.22147(6) -0.44033(6) -1.21075(6)
loop_
_geom_bond_atom_site_label_1
_geom_bond_atom_site_label_2
_geom_bond_site_symmetry_1
_geom_bond_site_symmetry_2
P1 C1 1_555 1_555
Mn1 O1 1_555 1_555
C1 C2 1_555 1_555
C2 H1 1_555 1_555
C3 C2 1_555 1_555
H2 C3 1_555 1_555
C4 C3 1_555 1_555
C5 C4 1_555 1_555
H3 C5 1_555 1_555
C6 C1 1_555 1_555
H4 C6 1_555 1_555
C7 C4 1_555 1_555
O1 C7 1_555 1_555
O2 Mn1 1_555 1_555
C8 P1 1_555 1_555
C9 C8 1_555 1_555
H5 C9 1_555 1_555
C10 C9 1_555 1_555
H6 C10 1_555 1_555
C11 C10 1_555 1_555
C12 C11 1_555 1_555
H7 C12 1_555 1_555
C13 C8 1_555 1_555
H8 C13 1_555 1_555
C14 C11 1_555 1_555
O3 C14 1_555 1_555
O4 C14 1_555 1_555
H9 O4 1_555 1_555
C15 P1 1_555 1_555
C16 C15 1_555 1_555
H10 C16 1_555 1_555
C17 C16 1_555 1_555
H11 C17 1_555 1_555
C18 C17 1_555 1_555
C19 C18 1_555 1_555
H12 C19 1_555 1_555
C20 C15 1_555 1_555
H13 C20 1_555 1_555
C21 C18 1_555 1_555
O5 C21 1_555 1_555
O6 C21 1_555 1_555
O7 P1 1_555 1_555
N1 Mn1 1_555 1_555
C22 N1 1_555 1_555
H14 C22 1_555 1_555
C23 C22 1_555 1_555
H15 C23 1_555 1_555
C24 C23 1_555 1_555
H16 C24 1_555 1_555
C25 C24 1_555 1_555
H17 C25 1_555 1_555
C26 N1 1_555 1_555
C27 C26 1_555 1_555
C28 C27 1_555 1_555
H18 C28 1_555 1_555
C29 C28 1_555 1_555
H19 C29 1_555 1_555
C30 C29 1_555 1_555
H20 C30 1_555 1_555
C31 C30 1_555 1_555
H21 C31 1_555 1_555
N2 Mn1 1_555 1_555
O7A Mn1 1_555 1_555
O6_2 Mn1 1_555 1_555
Mn1A O7 1_555 1_555
Mn1_2 O6 1_555 1_555
C5 C6 1_555 1_555
C7 O2 1_555 1_555
C12 C13 1_555 1_555
C19 C20 1_555 1_555
C25 C26 1_555 1_555
C27 N2 1_555 1_555
C31 N2 1_555 1_555

#END
