
#######################################################################
#
#                 Cambridge Crystallographic Data Centre
#                                CCDC 
#
#######################################################################
#
# If this CIF has been generated from an entry in the Cambridge 
# Structural Database, then it will include bibliographic, chemical, 
# crystal, experimental, refinement or atomic coordinate data resulting 
# from the CCDC's data processing and validation procedures.
#
#######################################################################

data_NENVAE
_symmetry_cell_setting           trigonal
_symmetry_space_group_name_H-M   'P -3'
_symmetry_Int_Tables_number      147
_space_group_name_Hall           '-P 3'
loop_
_symmetry_equiv_pos_site_id
_symmetry_equiv_pos_as_xyz
1 x,y,z
2 -y,x-y,z
3 -x+y,-x,z
4 -x,-y,-z
5 y,-x+y,-z
6 x-y,x,-z
_cell_length_a                   18.6380(5)
_cell_length_b                   18.6380(5)
_cell_length_c                   11.5817(6)
_cell_angle_alpha                90
_cell_angle_beta                 90
_cell_angle_gamma                120
_cell_volume                     3484.19
loop_
_atom_site_label
_atom_site_type_symbol
_atom_site_fract_x
_atom_site_fract_y
_atom_site_fract_z
C1 C 0.37995(19) 0.19341(18) -0.0279(3)
H1 H 0.3863 0.2268 0.0407
H2 H 0.3462 0.2017 -0.0854
H3 H 0.4346 0.2103 -0.0607
C2 C 0.2503(2) 0.0743(2) 0.0551(3)
H4 H 0.2245 0.0164 0.0801
H5 H 0.2160 0.0796 -0.0046
H6 H 0.2553 0.1093 0.1212
C3 C 0.3302(2) 0.0503(2) -0.1020(3)
H7 H 0.3856 0.0639 -0.1277
H8 H 0.3023 0.0629 -0.1639
H9 H 0.2979 -0.0088 -0.0829
C4 C 0.33742(17) 0.10198(17) 0.0056(2)
C5 C 0.38642(16) 0.09154(16) 0.1047(2)
C6 C 0.40152(17) 0.02530(17) 0.1081(2)
H10 H 0.3823 -0.0128 0.0455
C7 C 0.44330(16) 0.01169(16) 0.1983(2)
C8 C 0.44619(16) -0.06717(16) 0.2044(2)
C9 C 0.41782(17) -0.12618(16) 0.1149(2)
H11 H 0.3974 -0.1161 0.0453
C10 C 0.41969(17) -0.19912(17) 0.1287(2)
H12 H 0.3994 -0.2392 0.0687
C11 C 0.45047(17) -0.21446(16) 0.2280(2)
H13 H 0.4519 -0.2645 0.2356
C12 C 0.47971(16) -0.15631(15) 0.3177(2)
C13 C 0.47576(16) -0.08363(16) 0.3055(2)
H14 H 0.4935 -0.0449 0.3672
C14 C 0.51627(16) -0.16926(15) 0.4252(2)
C15 C 0.56834(18) -0.20308(17) 0.4142(2)
H15 H 0.5763 -0.2188 0.3394
C16 C 0.60902(17) -0.21485(16) 0.5068(2)
C17 C 0.6698(2) -0.2470(2) 0.4890(3)
C18 C 0.6905(3) -0.2519(3) 0.3630(3)
H16 H 0.7151 -0.1967 0.3280
H17 H 0.6398 -0.2901 0.3214
H18 H 0.7300 -0.2720 0.3586
C19 C 0.6285(3) -0.3337(3) 0.5437(4)
H19 H 0.5787 -0.3713 0.4998
H20 H 0.6132 -0.3305 0.6237
H21 H 0.6674 -0.3547 0.5426
C20 C 0.7496(3) -0.1898(3) 0.5548(4)
H22 H 0.7867 -0.2130 0.5525
H23 H 0.7362 -0.1851 0.6352
H24 H 0.7771 -0.1349 0.5188
C21 C 0.58896(16) 0.26551(16) 0.1572(2)
H25 H 0.5816 0.2123 0.1280
H26 H 0.5424 0.2715 0.1278
C22 C 0.65676(15) 0.25462(15) 0.3262(2)
H27 H 0.6567 0.2539 0.4117
H28 H 0.6499 0.2012 0.2988
O1 O 0.40723(13) 0.14548(12) 0.18457(16)
O2 O 0.47913(12) 0.06133(12) 0.28191(16)
O3 O 0.49893(11) -0.14485(11) 0.51785(15)
O4 O 0.59959(13) -0.20165(13) 0.61053(16)
Cu1 Cu 0.457837(19) 0.147752(19) 0.33145(3)
N1 N 0.58624(13) 0.26330(13) 0.28481(18)
N2 N 0.6667 0.3333 0.1129(3)
C1C C 0.62005(19) -0.19341(18) 1.0279(3)
C1A C 0.80659(18) 0.18654(26) -0.0279(3)
H1C H 0.6137 -0.2268 0.9593
H1A H 0.7732 0.1595 0.0407
H2C H 0.6538 -0.2017 1.0854
H2A H 0.7983 0.1445 -0.0854
H3C H 0.5654 -0.2103 1.0607
H3A H 0.7897 0.2243 -0.0607
C2C C 0.7497(2) -0.0743(2) 0.9449(3)
C2A C 0.9257(2) 0.1760(3) 0.0551(3)
H4C H 0.7755 -0.0164 0.9199
H4A H 0.9836 0.2081 0.0801
H5C H 0.7840 -0.0796 1.0046
H5A H 0.9204 0.1364 -0.0046
H6C H 0.7447 -0.1093 0.8788
H6A H 0.8907 0.1460 0.1212
C3C C 0.6698(2) -0.0503(2) 1.1020(3)
C3A C 0.9497(2) 0.2799(3) -0.1020(3)
H7C H 0.6144 -0.0639 1.1277
H7A H 0.9361 0.3217 -0.1277
H8C H 0.6977 -0.0629 1.1639
H8A H 0.9371 0.2394 -0.1639
H9C H 0.7021 0.0088 1.0829
H9A H 1.0088 0.3067 -0.0829
C4C C 0.66258(17) -0.10198(17) 0.9944(2)
C4A C 0.89802(17) 0.23544(24) 0.0056(2)
C5C C 0.61358(16) -0.09154(16) 0.8953(2)
C5A C 0.90846(16) 0.29488(23) 0.1047(2)
C6C C 0.59848(17) -0.02530(17) 0.8919(2)
C6A C 0.97470(17) 0.37622(24) 0.1081(2)
H10C H 0.6177 0.0128 0.9545
H10A H 1.0128 0.3951 0.0455
C7C C 0.55670(16) -0.01169(16) 0.8017(2)
C7A C 0.98831(16) 0.43161(23) 0.1983(2)
C8C C 0.55381(16) 0.06717(16) 0.7956(2)
C8A C 1.06717(16) 0.51336(23) 0.2044(2)
C9C C 0.58218(17) 0.12618(16) 0.8851(2)
C9A C 1.12618(16) 0.54400(23) 0.1149(2)
H11C H 0.6026 0.1161 0.9547
H11A H 1.1161 0.5135 0.0453
C10C C 0.58031(17) 0.19912(17) 0.8713(2)
C10A C 1.19912(17) 0.61881(24) 0.1287(2)
H12C H 0.6006 0.2392 0.9313
H12A H 1.2392 0.6386 0.0687
C11C C 0.54953(17) 0.21446(16) 0.7720(2)
C11A C 1.21446(16) 0.66493(23) 0.2280(2)
H13C H 0.5481 0.2645 0.7644
H13A H 1.2645 0.7164 0.2356
C12C C 0.52029(16) 0.15631(15) 0.6823(2)
C12A C 1.15631(15) 0.63602(22) 0.3177(2)
C13C C 0.52424(16) 0.08363(16) 0.6945(2)
C13A C 1.08363(16) 0.55939(23) 0.3055(2)
H14C H 0.5065 0.0449 0.6328
H14A H 1.0449 0.5384 0.3672
C14C C 0.48373(16) 0.16926(15) 0.5748(2)
C14A C 1.16926(15) 0.68553(22) 0.4252(2)
C15C C 0.43166(18) 0.20308(17) 0.5858(2)
C15A C 1.20308(17) 0.77142(25) 0.4142(2)
H15C H 0.4237 0.2188 0.6606
H15A H 1.2188 0.7951 0.3394
C16C C 0.39098(17) 0.21485(16) 0.4932(2)
C16A C 1.21485(16) 0.82387(23) 0.5068(2)
C17C C 0.3302(2) 0.2470(2) 0.5110(3)
C17A C 1.2470(2) 0.9168(3) 0.4890(3)
C18C C 0.3095(3) 0.2519(3) 0.6370(3)
C18A C 1.2519(3) 0.9424(4) 0.3630(3)
H16C H 0.2849 0.1967 0.6720
H16A H 1.1967 0.9118 0.3280
H17C H 0.3602 0.2901 0.6786
H17A H 1.2901 0.9299 0.3214
H18C H 0.2700 0.2720 0.6414
H18A H 1.2720 1.0020 0.3586
C19C C 0.3715(3) 0.3337(3) 0.4563(4)
C19A C 1.3337(3) 0.9622(4) 0.5437(4)
H19C H 0.4213 0.3713 0.5002
H19A H 1.3713 0.9500 0.4998
H20C H 0.3868 0.3305 0.3763
H20A H 1.3305 0.9437 0.6237
H21C H 0.3326 0.3547 0.4574
H21A H 1.3547 1.0221 0.5426
C20C C 0.2504(3) 0.1898(3) 0.4452(4)
C20A C 1.1898(3) 0.9394(4) 0.5548(4)
H22C H 0.2133 0.2130 0.4475
H22A H 1.2130 0.9997 0.5525
H23C H 0.2638 0.1851 0.3648
H23A H 1.1851 0.9213 0.6352
H24C H 0.2229 0.1349 0.4812
H24A H 1.1349 0.9120 0.5188
C21A C 0.73449(16) 0.32345(23) 0.1572(2)
C21B C 0.67655(23) 0.41104(16) 0.1572(2)
H25A H 0.7877 0.3693 0.1280
H25B H 0.6307 0.4184 0.1280
H26A H 0.7285 0.2709 0.1278
H26B H 0.7291 0.4576 0.1278
C22B C 0.59786(21) 0.34324(15) 0.3262(2)
C22A C 0.74538(15) 0.40214(21) 0.3262(2)
H27B H 0.5972 0.3433 0.4117
H27A H 0.7461 0.4028 0.4117
H28B H 0.5513 0.3501 0.2988
H28A H 0.7988 0.4487 0.2988
O1C O 0.59277(13) -0.14548(12) 0.81543(16)
O1A O 0.85452(12) 0.26175(18) 0.18457(16)
O2C O 0.52087(12) -0.06133(12) 0.71809(16)
O2A O 0.93867(12) 0.41780(17) 0.28191(16)
O3C O 0.50107(11) 0.14485(11) 0.48215(15)
O3A O 1.14485(11) 0.64378(16) 0.51785(15)
O3D O 0.85515(11) 0.35622(16) 0.48215(15)
O4C O 0.40041(13) 0.20165(13) 0.38947(16)
O4A O 1.20165(13) 0.80124(18) 0.61053(16)
O4D O 0.79835(13) 0.19876(18) 0.38947(16)
Cu1C Cu 0.542163(19) -0.147752(19) 0.66855(3)
Cu1A Cu 0.852248(19) 0.310085(27) 0.33145(3)
Cu1B Cu 0.689915(27) 0.542163(19) 0.33145(3)
Cu1D Cu 1.147752(19) 0.689915(27) 0.66855(3)
N1A N 0.73670(13) 0.32294(18) 0.28481(18)
N1B N 0.67706(18) 0.41376(13) 0.28481(18)
N1C N 0.41376(13) -0.26330(13) 0.71519(18)
loop_
_geom_bond_atom_site_label_1
_geom_bond_atom_site_label_2
_geom_bond_site_symmetry_1
_geom_bond_site_symmetry_2
C1 H1 1_555 1_555
H2 C1 1_555 1_555
H3 C1 1_555 1_555
C2 H4 1_555 1_555
H5 C2 1_555 1_555
H6 C2 1_555 1_555
C3 H7 1_555 1_555
H8 C3 1_555 1_555
H9 C3 1_555 1_555
C4 C1 1_555 1_555
C5 C4 1_555 1_555
C6 C5 1_555 1_555
H10 C6 1_555 1_555
C7 C6 1_555 1_555
C8 C7 1_555 1_555
C9 C8 1_555 1_555
H11 C9 1_555 1_555
C10 C9 1_555 1_555
H12 C10 1_555 1_555
C11 C10 1_555 1_555
H13 C11 1_555 1_555
C12 C11 1_555 1_555
C13 C8 1_555 1_555
H14 C13 1_555 1_555
C14 C12 1_555 1_555
C15 C14 1_555 1_555
H15 C15 1_555 1_555
C16 C15 1_555 1_555
C17 C16 1_555 1_555
C18 C17 1_555 1_555
H16 C18 1_555 1_555
H17 C18 1_555 1_555
H18 C18 1_555 1_555
C19 C17 1_555 1_555
H19 C19 1_555 1_555
H20 C19 1_555 1_555
H21 C19 1_555 1_555
C20 C17 1_555 1_555
H22 C20 1_555 1_555
H23 C20 1_555 1_555
H24 C20 1_555 1_555
C21 H25 1_555 1_555
H26 C21 1_555 1_555
C22 H27 1_555 1_555
H28 C22 1_555 1_555
O1 C5 1_555 1_555
O2 C7 1_555 1_555
O3 C14 1_555 1_555
O4 C16 1_555 1_555
Cu1 O1 1_555 1_555
N1 C21 1_555 1_555
N2 C21 1_555 1_555
C1C H1C 1_555 1_555
C1A H1A 1_555 1_555
H2C C1C 1_555 1_555
H2A C1A 1_555 1_555
H3C C1C 1_555 1_555
H3A C1A 1_555 1_555
C2C H4C 1_555 1_555
C2A H4A 1_555 1_555
H5C C2C 1_555 1_555
H5A C2A 1_555 1_555
H6C C2C 1_555 1_555
H6A C2A 1_555 1_555
C3C H7C 1_555 1_555
C3A H7A 1_555 1_555
H8C C3C 1_555 1_555
H8A C3A 1_555 1_555
H9C C3C 1_555 1_555
H9A C3A 1_555 1_555
C4C C1C 1_555 1_555
C4A C1A 1_555 1_555
C5C C4C 1_555 1_555
C5A C4A 1_555 1_555
C6C C5C 1_555 1_555
C6A C5A 1_555 1_555
H10C C6C 1_555 1_555
H10A C6A 1_555 1_555
C7C C6C 1_555 1_555
C7A C6A 1_555 1_555
C8C C7C 1_555 1_555
C8A C7A 1_555 1_555
C9C C8C 1_555 1_555
C9A C8A 1_555 1_555
H11C C9C 1_555 1_555
H11A C9A 1_555 1_555
C10C C9C 1_555 1_555
C10A C9A 1_555 1_555
H12C C10C 1_555 1_555
H12A C10A 1_555 1_555
C11C C10C 1_555 1_555
C11A C10A 1_555 1_555
H13C C11C 1_555 1_555
H13A C11A 1_555 1_555
C12C C11C 1_555 1_555
C12A C11A 1_555 1_555
C13C C8C 1_555 1_555
C13A C8A 1_555 1_555
H14C C13C 1_555 1_555
H14A C13A 1_555 1_555
C14C C12C 1_555 1_555
C14A C12A 1_555 1_555
C15C C14C 1_555 1_555
C15A C14A 1_555 1_555
H15C C15C 1_555 1_555
H15A C15A 1_555 1_555
C16C C15C 1_555 1_555
C16A C15A 1_555 1_555
C17C C16C 1_555 1_555
C17A C16A 1_555 1_555
C18C C17C 1_555 1_555
C18A C17A 1_555 1_555
H16C C18C 1_555 1_555
H16A C18A 1_555 1_555
H17C C18C 1_555 1_555
H17A C18A 1_555 1_555
H18C C18C 1_555 1_555
H18A C18A 1_555 1_555
C19C C17C 1_555 1_555
C19A C17A 1_555 1_555
H19C C19C 1_555 1_555
H19A C19A 1_555 1_555
H20C C19C 1_555 1_555
H20A C19A 1_555 1_555
H21C C19C 1_555 1_555
H21A C19A 1_555 1_555
C20C C17C 1_555 1_555
C20A C17A 1_555 1_555
H22C C20C 1_555 1_555
H22A C20A 1_555 1_555
H23C C20C 1_555 1_555
H23A C20A 1_555 1_555
H24C C20C 1_555 1_555
H24A C20A 1_555 1_555
C21A N2 1_555 1_555
C21B N2 1_555 1_555
H25A C21A 1_555 1_555
H25B C21B 1_555 1_555
H26A C21A 1_555 1_555
H26B C21B 1_555 1_555
C22B N1 1_555 1_555
C22A H27A 1_555 1_555
H27B C22B 1_555 1_555
H28B C22B 1_555 1_555
H28A C22A 1_555 1_555
O1C C5C 1_555 1_555
O1A C5A 1_555 1_555
O2C C7C 1_555 1_555
O2A C7A 1_555 1_555
O3C Cu1 1_555 1_555
O3A C14A 1_555 1_555
O3D Cu1A 1_555 1_555
O4C Cu1 1_555 1_555
O4A C16A 1_555 1_555
O4D Cu1A 1_555 1_555
Cu1C O3 1_555 1_555
Cu1A O1A 1_555 1_555
Cu1B N1B 1_555 1_555
Cu1D O3A 1_555 1_555
N1A C22 1_555 1_555
N1B C21B 1_555 1_555
N1C Cu1C 1_555 1_555
C2 C4 1_555 1_555
C3 C4 1_555 1_555
C12 C13 1_555 1_555
C22 N1 1_555 1_555
O2 Cu1 1_555 1_555
O4 Cu1C 1_555 1_555
Cu1 N1 1_555 1_555
C2C C4C 1_555 1_555
C2A C4A 1_555 1_555
C3C C4C 1_555 1_555
C3A C4A 1_555 1_555
C12C C13C 1_555 1_555
C12A C13A 1_555 1_555
C14C O3C 1_555 1_555
C16C O4C 1_555 1_555
C21A N1A 1_555 1_555
C22B N1B 1_555 1_555
C22A N1A 1_555 1_555
C22A N1B 1_555 1_555
O1C Cu1C 1_555 1_555
O2C Cu1C 1_555 1_555
O2A Cu1A 1_555 1_555
O4A Cu1D 1_555 1_555
Cu1A N1A 1_555 1_555

#END
