
#######################################################################
#
#                 Cambridge Crystallographic Data Centre
#                                CCDC 
#
#######################################################################
#
# If this CIF has been generated from an entry in the Cambridge 
# Structural Database, then it will include bibliographic, chemical, 
# crystal, experimental, refinement or atomic coordinate data resulting 
# from the CCDC's data processing and validation procedures.
#
#######################################################################

data_NENWUZ
_symmetry_cell_setting           triclinic
_symmetry_space_group_name_H-M   'P -1'
_symmetry_Int_Tables_number      2
_space_group_name_Hall           '-P 1'
loop_
_symmetry_equiv_pos_site_id
_symmetry_equiv_pos_as_xyz
1 x,y,z
2 -x,-y,-z
_cell_length_a                   6.5324(3)
_cell_length_b                   7.4879(4)
_cell_length_c                   9.1313(6)
_cell_angle_alpha                100.167(3)
_cell_angle_beta                 95.164(4)
_cell_angle_gamma                107.418(3)
_cell_volume                     414.595
loop_
_atom_site_label
_atom_site_type_symbol
_atom_site_fract_x
_atom_site_fract_y
_atom_site_fract_z
Co1 Co 0.0000 0.5000 0.5000
Co2 Co 0.0000 0.0000 0.5000
C1 C 0.2039(4) 0.3920(4) 0.9355(3)
C2 C 0.2730(4) 0.5809(4) 1.0139(3)
H1 H 0.2978 0.6794 0.9616
C3 C 0.3051(4) 0.6235(4) 1.1686(3)
H2 H 0.3524 0.7506 1.2206
C4 C 0.2121(5) 0.2959(4) 1.1726(3)
H3 H 0.1952 0.2000 1.2272
C5 C 0.1806(4) 0.2504(4) 1.0184(3)
H4 H 0.1431 0.1229 0.9687
C6 C 0.1396(4) 0.3363(4) 0.7663(3)
N1 N 0.2681(3) 0.4817(3) 1.2449(2)
N2 N -0.1129(4) 0.2032(3) 0.4085(2)
N3 N -0.2632(4) 0.1366(3) 0.3075(3)
N4 N -0.4065(5) 0.0721(4) 0.2112(3)
O1 O 0.1724(3) 0.4690(3) 0.69613(19)
O2 O 0.0512(3) 0.1596(3) 0.71347(18)
O3 O 0.2880(3) 0.5255(3) 1.39649(18)
O4 O 0.3327(4) 0.1481(4) 0.4811(2)
H5 H 0.422(6) 0.277(3) 0.515(4)
H6 H 0.400(8) 0.089(6) 0.410(5)
Co1_2 Co 0.0000 0.5000 1.5000
Co1_3 Co 0.0000 0.5000 -0.5000
Co2_2 Co 0.0000 1.0000 0.5000
C1A C -0.2039(4) 0.6080(4) 0.0645(3)
C2A C -0.2730(4) 0.4191(4) -0.0139(3)
H1A H -0.2978 0.3206 0.0384
C3A C -0.3051(4) 0.3765(4) -0.1686(3)
H2A H -0.3524 0.2494 -0.2206
C4A C -0.2121(5) 0.7041(4) -0.1726(3)
H3A H -0.1952 0.8000 -0.2272
C5A C -0.1806(4) 0.7496(4) -0.0184(3)
H4A H -0.1431 0.8771 0.0313
C6A C -0.1396(4) 0.6637(4) 0.2337(3)
N1A N -0.2681(3) 0.5183(3) -0.2449(2)
N2A N 0.1129(4) 0.7968(3) 0.5915(2)
N2A_2 N 0.1129(4) -0.2032(3) 0.5915(2)
N3A N 0.2632(4) 0.8634(3) 0.6925(3)
N4A N 0.4065(5) 0.9279(4) 0.7888(3)
O1A O -0.1724(3) 0.5310(3) 0.30387(19)
O2A O -0.0512(3) 0.8404(3) 0.28653(18)
O2A_2 O -0.0512(3) -0.1596(3) 0.28653(18)
O3A O -0.2880(3) 0.4745(3) -0.39649(18)
O3_2 O 0.2880(3) 0.5255(3) 0.39649(18)
O3A_2 O -0.2880(3) 0.4745(3) 0.60351(18)
O4A O -0.3327(4) -0.1481(4) 0.5189(2)
H5A H -0.422(6) -0.277(3) 0.485(4)
H6A H -0.400(8) -0.089(6) 0.590(5)
loop_
_geom_bond_atom_site_label_1
_geom_bond_atom_site_label_2
_geom_bond_site_symmetry_1
_geom_bond_site_symmetry_2
Co1 N2 1_555 1_555
Co2 N2 1_555 1_555
C1 C2 1_555 1_555
C2 H1 1_555 1_555
C3 C2 1_555 1_555
H2 C3 1_555 1_555
C4 H3 1_555 1_555
C5 C1 1_555 1_555
H4 C5 1_555 1_555
C6 C1 1_555 1_555
N1 C3 1_555 1_555
N2 N3 1_555 1_555
N3 N4 1_555 1_555
O1 Co1 1_555 1_555
O2 Co2 1_555 1_555
O3 N1 1_555 1_555
O4 Co2 1_555 1_555
H5 O4 1_555 1_555
H6 O4 1_555 1_555
Co1_2 O3 1_555 1_555
Co1_3 O3A 1_555 1_555
Co2_2 N2A 1_555 1_555
C1A C2A 1_555 1_555
C2A H1A 1_555 1_555
C3A C2A 1_555 1_555
H2A C3A 1_555 1_555
C4A H3A 1_555 1_555
C5A C1A 1_555 1_555
H4A C5A 1_555 1_555
C6A C1A 1_555 1_555
N1A C3A 1_555 1_555
N2A Co1 1_555 1_555
N2A_2 Co2 1_555 1_555
N3A N2A 1_555 1_555
N4A N3A 1_555 1_555
O1A Co1 1_555 1_555
O2A Co2_2 1_555 1_555
O2A_2 Co2 1_555 1_555
O3A N1A 1_555 1_555
O3_2 Co1 1_555 1_555
O3A_2 Co1 1_555 1_555
O4A Co2 1_555 1_555
H5A O4A 1_555 1_555
H6A O4A 1_555 1_555
C4 C5 1_555 1_555
C4 N1 1_555 1_555
C6 O1 1_555 1_555
C6 O2 1_555 1_555
C4A C5A 1_555 1_555
C4A N1A 1_555 1_555
C6A O1A 1_555 1_555
C6A O2A 1_555 1_555

#END
