
#######################################################################
#
#                 Cambridge Crystallographic Data Centre
#                                CCDC 
#
#######################################################################
#
# If this CIF has been generated from an entry in the Cambridge 
# Structural Database, then it will include bibliographic, chemical, 
# crystal, experimental, refinement or atomic coordinate data resulting 
# from the CCDC's data processing and validation procedures.
#
#######################################################################

data_NENWOT
_symmetry_cell_setting           triclinic
_symmetry_space_group_name_H-M   'P -1'
_symmetry_Int_Tables_number      2
_space_group_name_Hall           '-P 1'
loop_
_symmetry_equiv_pos_site_id
_symmetry_equiv_pos_as_xyz
1 x,y,z
2 -x,-y,-z
_cell_length_a                   6.5436(3)
_cell_length_b                   7.7601(3)
_cell_length_c                   9.2478(4)
_cell_angle_alpha                99.6752(18)
_cell_angle_beta                 95.8453(18)
_cell_angle_gamma                108.7248(16)
_cell_volume                     432.266
loop_
_atom_site_label
_atom_site_type_symbol
_atom_site_fract_x
_atom_site_fract_y
_atom_site_fract_z
Mn1 Mn 0.0000 0.5000 0.5000
Mn2 Mn 0.0000 0.0000 0.5000
C1 C 0.2061(3) 0.3966(3) 0.9368(2)
C2 C 0.2745(3) 0.5814(3) 1.0093(2)
H1 H 0.2976 0.6742 0.9547
C3 C 0.3087(4) 0.6282(3) 1.1626(2)
H2 H 0.3540 0.7527 1.2111
C4 C 0.2223(4) 0.3149(3) 1.1749(2)
H3 H 0.2091 0.2249 1.2317
C5 C 0.1863(4) 0.2642(3) 1.0226(2)
H4 H 0.1483 0.1395 0.9766
C6 C 0.1452(4) 0.3380(3) 0.7694(2)
N1 N 0.2768(3) 0.4954(2) 1.24205(18)
N2 N -0.1175(3) 0.1993(2) 0.39734(19)
N3 N -0.2678(3) 0.1336(2) 0.2963(2)
N4 N -0.4132(4) 0.0690(3) 0.2004(3)
O1 O 0.1750(3) 0.4637(2) 0.69751(16)
O2 O 0.0626(3) 0.1661(2) 0.71734(16)
O3 O 0.2996(3) 0.5421(2) 1.39033(16)
O4 O 0.3463(3) 0.1409(3) 0.4747(2)
H5 H 0.457(4) 0.255(3) 0.524(3)
H6 H 0.393(7) 0.092(5) 0.393(3)
Mn1_2 Mn 0.0000 0.5000 1.5000
Mn1_3 Mn 0.0000 0.5000 -0.5000
Mn2_2 Mn 0.0000 1.0000 0.5000
C1A C -0.2061(3) 0.6034(3) 0.0632(2)
C2A C -0.2745(3) 0.4186(3) -0.0093(2)
H1A H -0.2976 0.3258 0.0453
C3A C -0.3087(4) 0.3718(3) -0.1626(2)
H2A H -0.3540 0.2473 -0.2111
C4A C -0.2223(4) 0.6851(3) -0.1749(2)
H3A H -0.2091 0.7751 -0.2317
C5A C -0.1863(4) 0.7358(3) -0.0226(2)
H4A H -0.1483 0.8605 0.0234
C6A C -0.1452(4) 0.6620(3) 0.2306(2)
N1A N -0.2768(3) 0.5046(2) -0.24205(18)
N2A N 0.1175(3) 0.8007(2) 0.60266(19)
N2A_2 N 0.1175(3) -0.1993(2) 0.60266(19)
N3A N 0.2678(3) 0.8664(2) 0.7037(2)
N4A N 0.4132(4) 0.9310(3) 0.7996(3)
O1A O -0.1750(3) 0.5363(2) 0.30249(16)
O2A O -0.0626(3) 0.8339(2) 0.28266(16)
O2A_2 O -0.0626(3) -0.1661(2) 0.28266(16)
O3A O -0.2996(3) 0.4579(2) -0.39033(16)
O3_2 O 0.2996(3) 0.5421(2) 0.39033(16)
O3A_2 O -0.2996(3) 0.4579(2) 0.60967(16)
O4A O -0.3463(3) -0.1409(3) 0.5253(2)
H5A H -0.457(4) -0.255(3) 0.476(3)
H6A H -0.393(7) -0.092(5) 0.607(3)
loop_
_geom_bond_atom_site_label_1
_geom_bond_atom_site_label_2
_geom_bond_site_symmetry_1
_geom_bond_site_symmetry_2
Mn1 N2 1_555 1_555
Mn2 N2 1_555 1_555
C1 C2 1_555 1_555
C2 H1 1_555 1_555
C3 C2 1_555 1_555
H2 C3 1_555 1_555
C4 H3 1_555 1_555
C5 C1 1_555 1_555
H4 C5 1_555 1_555
C6 C1 1_555 1_555
N1 C3 1_555 1_555
N2 N3 1_555 1_555
N3 N4 1_555 1_555
O1 Mn1 1_555 1_555
O2 Mn2 1_555 1_555
O3 N1 1_555 1_555
O4 Mn2 1_555 1_555
H5 O4 1_555 1_555
H6 O4 1_555 1_555
Mn1_2 O3 1_555 1_555
Mn1_3 O3A 1_555 1_555
Mn2_2 N2A 1_555 1_555
C1A C2A 1_555 1_555
C2A H1A 1_555 1_555
C3A C2A 1_555 1_555
H2A C3A 1_555 1_555
C4A H3A 1_555 1_555
C5A C1A 1_555 1_555
H4A C5A 1_555 1_555
C6A C1A 1_555 1_555
N1A C3A 1_555 1_555
N2A Mn1 1_555 1_555
N2A_2 Mn2 1_555 1_555
N3A N2A 1_555 1_555
N4A N3A 1_555 1_555
O1A Mn1 1_555 1_555
O2A Mn2_2 1_555 1_555
O2A_2 Mn2 1_555 1_555
O3A N1A 1_555 1_555
O3_2 Mn1 1_555 1_555
O3A_2 Mn1 1_555 1_555
O4A Mn2 1_555 1_555
H5A O4A 1_555 1_555
H6A O4A 1_555 1_555
C4 C5 1_555 1_555
C4 N1 1_555 1_555
C6 O1 1_555 1_555
C6 O2 1_555 1_555
C4A C5A 1_555 1_555
C4A N1A 1_555 1_555
C6A O1A 1_555 1_555
C6A O2A 1_555 1_555

#END
