
#######################################################################
#
#                 Cambridge Crystallographic Data Centre
#                                CCDC 
#
#######################################################################
#
# If this CIF has been generated from an entry in the Cambridge 
# Structural Database, then it will include bibliographic, chemical, 
# crystal, experimental, refinement or atomic coordinate data resulting 
# from the CCDC's data processing and validation procedures.
#
#######################################################################

data_NENXOU
_symmetry_cell_setting           monoclinic
_symmetry_space_group_name_H-M   'C 2/c'
_symmetry_Int_Tables_number      15
_space_group_name_Hall           '-C 2yn'
loop_
_symmetry_equiv_pos_site_id
_symmetry_equiv_pos_as_xyz
1 x,y,z
2 1/2+x,1/2+y,z
3 -x,y,1/2-z
4 1/2-x,1/2+y,1/2-z
5 -x,-y,-z
6 1/2-x,1/2-y,-z
7 x,-y,1/2+z
8 1/2+x,1/2-y,1/2+z
_cell_length_a                   16.3442(5)
_cell_length_b                   6.9380(2)
_cell_length_c                   14.6374(6)
_cell_angle_alpha                90
_cell_angle_beta                 105.4085(12)
_cell_angle_gamma                90
_cell_volume                     1600.16
loop_
_atom_site_label
_atom_site_type_symbol
_atom_site_fract_x
_atom_site_fract_y
_atom_site_fract_z
Cu1 Cu 0.232872(18) 0.16356(4) 0.73537(2)
C1 C 0.15085(14) 0.4082(3) 0.96571(16)
C2 C 0.15069(14) 0.5760(3) 1.01658(16)
H1 H 0.1772 0.6860 1.0021
C3 C 0.07319(15) 0.4215(3) 1.11042(17)
H2 H 0.0469 0.4267 1.1595
C4 C 0.07263(15) 0.2520(4) 1.06112(17)
H3 H 0.0461 0.1432 1.0770
C5 C 0.11179(15) 0.2441(3) 0.98757(16)
H4 H 0.1117 0.1305 0.9538
C6 C 0.19297(15) 0.4088(3) 0.88508(16)
N1 N 0.11175(12) 0.5802(3) 1.08785(13)
N2 N 0.30234(12) 0.4010(3) 0.73654(14)
N3 N 0.36191(13) 0.3875(3) 0.70124(14)
N4 N 0.41817(14) 0.3719(3) 0.66937(17)
O1 O 0.19538(10) 0.2502(2) 0.84547(11)
O2 O 0.22051(11) 0.5675(2) 0.86622(12)
O3 O 0.11158(10) 0.7432(2) 1.13555(11)
Cu1C Cu 0.267128(18) -0.33644(4) 0.76463(2)
Cu1C_2 Cu 0.267128(18) 0.66356(4) 0.76463(2)
Cu1F Cu 0.232872(18) 0.83644(4) 1.23537(2)
Cu1E Cu 0.267128(18) 0.33644(4) 0.26463(2)
C1C C 0.34915(14) -0.0918(3) 0.53429(16)
C2C C 0.34931(14) 0.0760(3) 0.48342(16)
H1C H 0.3228 0.1860 0.4979
C3C C 0.42681(15) -0.0785(3) 0.38958(17)
H2C H 0.4531 -0.0733 0.3405
C4C C 0.42737(15) -0.2480(4) 0.43888(17)
H3C H 0.4539 -0.3568 0.4230
C5C C 0.38821(15) -0.2559(3) 0.51243(16)
H4C H 0.3883 -0.3695 0.5462
C6C C 0.30703(15) -0.0912(3) 0.61492(16)
N1C N 0.38825(12) 0.0802(3) 0.41215(13)
N2C N 0.19766(12) -0.0990(3) 0.76346(14)
N2_2 N 0.30234(12) -0.5990(3) 0.73654(14)
N3C N 0.13809(13) -0.1125(3) 0.79876(14)
N4C N 0.08183(14) -0.1281(3) 0.83063(17)
O1C O 0.30462(10) -0.2498(2) 0.65453(11)
O2C O 0.27949(11) 0.0675(2) 0.63378(12)
O2_2 O 0.22051(11) -0.4325(2) 0.86622(12)
O3C O 0.38842(10) 0.2432(2) 0.36445(11)
O3F O 0.11158(10) 0.2568(2) 0.63555(11)
O3E O 0.38842(10) -0.2432(2) 0.86445(11)
O4 O 0.0000 0.3458(4) 0.7500
H5 H 0.028(2) 0.272(5) 0.722(3)
H5B H -0.028(2) 0.272(5) 0.778(3)
loop_
_geom_bond_atom_site_label_1
_geom_bond_atom_site_label_2
_geom_bond_site_symmetry_1
_geom_bond_site_symmetry_2
Cu1 N2 1_555 1_555
C1 C2 1_555 1_555
C2 H1 1_555 1_555
C3 H2 1_555 1_555
C4 C3 1_555 1_555
H3 C4 1_555 1_555
C5 C1 1_555 1_555
H4 C5 1_555 1_555
C6 C1 1_555 1_555
N1 C2 1_555 1_555
N2 N3 1_555 1_555
N3 N4 1_555 1_555
O1 Cu1 1_555 1_555
O2 C6 1_555 1_555
O3 N1 1_555 1_555
O4 H5 1_555 1_555
Cu1C N2C 1_555 1_555
Cu1C_2 N2 1_555 1_555
Cu1F O3 1_555 1_555
Cu1E O3C 1_555 1_555
C1C C2C 1_555 1_555
C2C H1C 1_555 1_555
C3C H2C 1_555 1_555
C4C C3C 1_555 1_555
H3C C4C 1_555 1_555
C5C C1C 1_555 1_555
H4C C5C 1_555 1_555
C6C C1C 1_555 1_555
N1C C2C 1_555 1_555
N2C Cu1 1_555 1_555
N2_2 Cu1C 1_555 1_555
N3C N2C 1_555 1_555
N4C N3C 1_555 1_555
O1C Cu1C 1_555 1_555
O2C Cu1 1_555 1_555
O2_2 Cu1C 1_555 1_555
O3C N1C 1_555 1_555
O3F Cu1 1_555 1_555
O3E Cu1C 1_555 1_555
H5B O4 1_555 1_555
C3 N1 1_555 1_555
C4 C5 1_555 1_555
C6 O1 1_555 1_555
O2 Cu1C_2 1_555 1_555
C3C N1C 1_555 1_555
C4C C5C 1_555 1_555
C6C O1C 1_555 1_555
C6C O2C 1_555 1_555

#END
