
#######################################################################
#
#                 Cambridge Crystallographic Data Centre
#                                CCDC 
#
#######################################################################
#
# If this CIF has been generated from an entry in the Cambridge 
# Structural Database, then it will include bibliographic, chemical, 
# crystal, experimental, refinement or atomic coordinate data resulting 
# from the CCDC's data processing and validation procedures.
#
#######################################################################

data_NENXEK
_symmetry_cell_setting           monoclinic
_symmetry_space_group_name_H-M   'P 21/c'
_symmetry_Int_Tables_number      14
_space_group_name_Hall           '-P 2ybc'
loop_
_symmetry_equiv_pos_site_id
_symmetry_equiv_pos_as_xyz
1 x,y,z
2 -x,1/2+y,1/2-z
3 -x,-y,-z
4 x,1/2-y,1/2+z
_cell_length_a                   11.1894(5)
_cell_length_b                   7.5509(3)
_cell_length_c                   20.0081(10)
_cell_angle_alpha                90
_cell_angle_beta                 92.3801(15)
_cell_angle_gamma                90
_cell_volume                     1689.03
loop_
_atom_site_label
_atom_site_type_symbol
_atom_site_fract_x
_atom_site_fract_y
_atom_site_fract_z
Co1 Co 0.50890(6) 0.10479(7) 0.24768(3)
Co2 Co 1.0000 0.0000 0.5000
Co3 Co 1.0000 -0.5000 0.5000
C1 C 0.9044(4) 0.2592(5) 0.3099(2)
C2 C 0.8162(4) 0.1376(5) 0.2918(2)
H1 H 0.7900 0.0568 0.3230
C3 C 0.8072(4) 0.2460(6) 0.1821(2)
H2 H 0.7745 0.2407 0.1387
C4 C 0.8960(5) 0.3665(6) 0.1985(3)
H3 H 0.9245 0.4413 0.1658
C5 C 0.9423(4) 0.3767(6) 0.2627(2)
H4 H 0.9990 0.4624 0.2744
C6 C 0.9528(4) 0.2578(6) 0.3821(2)
C7 C 0.5951(4) -0.1491(5) 0.4427(2)
C8 C 0.6868(4) -0.0365(5) 0.4635(2)
H5 H 0.7122 0.0511 0.4346
C9 C 0.7036(4) -0.1730(6) 0.5683(3)
H6 H 0.7419 -0.1828 0.6103
C10 C 0.6097(4) -0.2829(6) 0.5506(3)
H7 H 0.5820 -0.3638 0.5814
C11 C 0.5564(4) -0.2737(6) 0.4876(3)
H8 H 0.4947 -0.3509 0.4751
C12 C 0.5474(4) -0.1420(6) 0.3708(2)
N1 N 0.7683(3) 0.1363(4) 0.22915(19)
N2 N 0.7395(3) -0.0518(5) 0.52469(19)
N3 N 0.4407(3) -0.1421(4) 0.2082(2)
N4 N 0.3871(4) -0.1324(4) 0.1549(2)
N5 N 0.3359(4) -0.1233(5) 0.1043(2)
N6 N 0.9435(4) -0.2517(4) 0.4567(2)
N7 N 0.8882(4) -0.2617(4) 0.4027(2)
N8 N 0.8365(4) -0.2724(5) 0.3519(2)
O1 O 0.9352(3) 0.1162(4) 0.41299(15)
O2 O 1.0012(3) 0.3958(4) 0.40315(15)
O3 O 0.6771(3) 0.0247(4) 0.21345(15)
O4 O 0.5556(3) 0.0036(4) 0.34141(16)
O5 O 0.5059(3) -0.2837(4) 0.34834(16)
O6 O 0.8336(3) 0.0531(4) 0.54177(15)
O7 O 0.3283(3) 0.1774(4) 0.2654(2)
O8 O 1.1781(3) -0.4099(4) 0.48919(17)
H9 H 1.234(5) -0.431(6) 0.524(2)
H10 H 0.297(4) 0.165(6) 0.2230(13)
H11 H 1.165(3) -0.288(3) 0.4870(19)
H12 H 0.285(15) 0.11(3) 0.295(3)
Co1B Co 1.49110(6) -0.10479(7) 0.75232(3)
Co1A Co 0.49110(6) -0.39521(7) 0.25232(3)
Co1C Co 1.50890(6) 0.39521(7) 0.74768(3)
Co1A_2 Co 0.49110(6) 0.60479(7) 0.25232(3)
Co3_2 Co 1.0000 0.5000 0.5000
C1B C 1.0956(4) -0.2592(5) 0.6901(2)
C2B C 1.1838(4) -0.1376(5) 0.7082(2)
H1B H 1.2100 -0.0568 0.6770
C3B C 1.1928(4) -0.2460(6) 0.8179(2)
H2B H 1.2255 -0.2407 0.8613
C4B C 1.1040(5) -0.3665(6) 0.8015(3)
H3B H 1.0755 -0.4413 0.8342
C5B C 1.0577(4) -0.3767(6) 0.7373(2)
H4B H 1.0010 -0.4624 0.7256
C6B C 1.0472(4) -0.2578(6) 0.6179(2)
C7B C 1.4049(4) 0.1491(5) 0.5573(2)
C8B C 1.3132(4) 0.0365(5) 0.5365(2)
H5B H 1.2878 -0.0511 0.5654
C9B C 1.2964(4) 0.1730(6) 0.4317(3)
H6B H 1.2581 0.1828 0.3897
C10B C 1.3903(4) 0.2829(6) 0.4494(3)
H7B H 1.4180 0.3638 0.4186
C11B C 1.4436(4) 0.2737(6) 0.5124(3)
H8B H 1.5053 0.3509 0.5249
C12B C 1.4526(4) 0.1420(6) 0.6292(2)
N1B N 1.2317(3) -0.1363(4) 0.77085(19)
N2B N 1.2605(3) 0.0518(5) 0.47531(19)
N3A N 0.5593(3) 0.3579(4) 0.2918(2)
N3C N 1.4407(3) -0.3579(4) 0.7082(2)
N3B N 1.5593(3) 0.1421(4) 0.7918(2)
N4A N 0.6129(4) 0.3676(4) 0.3451(2)
N5A N 0.6641(4) 0.3767(5) 0.3957(2)
N6B N 1.0565(4) 0.2517(4) 0.5433(2)
N6B_2 N 1.0565(4) -0.7483(4) 0.5433(2)
N7B N 1.1118(4) 0.2617(4) 0.5973(2)
N8B N 1.1635(4) 0.2724(5) 0.6481(2)
O1B O 1.0648(3) -0.1162(4) 0.58701(15)
O2B O 0.9988(3) -0.3958(4) 0.59685(15)
O2_2 O 1.0012(3) -0.6042(4) 0.40315(15)
O3B O 1.3229(3) -0.0247(4) 0.78655(15)
O4B O 1.4444(3) -0.0036(4) 0.65859(16)
O5B O 1.4941(3) 0.2837(4) 0.65166(16)
O5A O 0.4941(3) 0.2163(4) 0.15166(16)
O5C O 1.5059(3) -0.2163(4) 0.84834(16)
O6B O 1.1664(3) -0.0531(4) 0.45823(15)
O7B O 1.6717(3) -0.1774(4) 0.7346(2)
O8B O 0.8219(3) -0.5901(4) 0.51081(17)
H9B H 0.766(5) -0.569(6) 0.476(2)
H10B H 1.703(4) -0.165(6) 0.7770(13)
H11B H 0.835(3) -0.712(3) 0.5130(19)
H12B H 1.715(15) -0.11(3) 0.705(3)
loop_
_geom_bond_atom_site_label_1
_geom_bond_atom_site_label_2
_geom_bond_site_symmetry_1
_geom_bond_site_symmetry_2
Co1 N3 1_555 1_555
Co2 N6 1_555 1_555
Co3 N6 1_555 1_555
C1 C2 1_555 1_555
C2 H1 1_555 1_555
C3 H2 1_555 1_555
C4 C3 1_555 1_555
H3 C4 1_555 1_555
C5 C1 1_555 1_555
H4 C5 1_555 1_555
C6 C1 1_555 1_555
C7 C8 1_555 1_555
C8 H5 1_555 1_555
C9 H6 1_555 1_555
C10 C9 1_555 1_555
H7 C10 1_555 1_555
C11 C7 1_555 1_555
H8 C11 1_555 1_555
C12 C7 1_555 1_555
N1 C2 1_555 1_555
N2 C8 1_555 1_555
N3 N4 1_555 1_555
N4 N5 1_555 1_555
N6 N7 1_555 1_555
N7 N8 1_555 1_555
O1 Co2 1_555 1_555
O2 C6 1_555 1_555
O3 Co1 1_555 1_555
O4 Co1 1_555 1_555
O5 C12 1_555 1_555
O6 Co2 1_555 1_555
O7 Co1 1_555 1_555
O8 Co3 1_555 1_555
H9 O8 1_555 1_555
H10 O7 1_555 1_555
H11 O8 1_555 1_555
H12 O7 1_555 1_555
Co1B N3C 1_555 1_555
Co1A N3 1_555 1_555
Co1C N3B 1_555 1_555
Co1A_2 N3A 1_555 1_555
Co3_2 O2 1_555 1_555
C1B C2B 1_555 1_555
C2B H1B 1_555 1_555
C3B H2B 1_555 1_555
C4B C3B 1_555 1_555
H3B C4B 1_555 1_555
C5B C1B 1_555 1_555
H4B C5B 1_555 1_555
C6B C1B 1_555 1_555
C7B C8B 1_555 1_555
C8B H5B 1_555 1_555
C9B H6B 1_555 1_555
C10B C9B 1_555 1_555
H7B C10B 1_555 1_555
C11B C7B 1_555 1_555
H8B C11B 1_555 1_555
C12B C7B 1_555 1_555
N1B C2B 1_555 1_555
N2B C8B 1_555 1_555
N3A Co1 1_555 1_555
N3B Co1B 1_555 1_555
N4A N3A 1_555 1_555
N5A N4A 1_555 1_555
N6B Co2 1_555 1_555
N6B_2 Co3 1_555 1_555
N7B N6B 1_555 1_555
N8B N7B 1_555 1_555
O1B Co2 1_555 1_555
O2B Co3 1_555 1_555
O2_2 Co3 1_555 1_555
O3B Co1B 1_555 1_555
O4B Co1B 1_555 1_555
O5B Co1C 1_555 1_555
O5A Co1 1_555 1_555
O5C Co1B 1_555 1_555
O6B Co2 1_555 1_555
O7B Co1B 1_555 1_555
O8B Co3 1_555 1_555
H9B O8B 1_555 1_555
H10B O7B 1_555 1_555
H11B O8B 1_555 1_555
H12B O7B 1_555 1_555
C3 N1 1_555 1_555
C4 C5 1_555 1_555
C6 O1 1_555 1_555
C9 N2 1_555 1_555
C10 C11 1_555 1_555
C12 O4 1_555 1_555
N1 O3 1_555 1_555
N2 O6 1_555 1_555
O5 Co1A 1_555 1_555
Co3_2 N6B 1_555 1_555
C3B N1B 1_555 1_555
C4B C5B 1_555 1_555
C6B O1B 1_555 1_555
C6B O2B 1_555 1_555
C9B N2B 1_555 1_555
C10B C11B 1_555 1_555
C12B O4B 1_555 1_555
C12B O5B 1_555 1_555
N1B O3B 1_555 1_555
N2B O6B 1_555 1_555

#END
