
#######################################################################
#
#                 Cambridge Crystallographic Data Centre
#                                CCDC 
#
#######################################################################
#
# If this CIF has been generated from an entry in the Cambridge 
# Structural Database, then it will include bibliographic, chemical, 
# crystal, experimental, refinement or atomic coordinate data resulting 
# from the CCDC's data processing and validation procedures.
#
#######################################################################

data_NENXAG
_symmetry_cell_setting           monoclinic
_symmetry_space_group_name_H-M   'P 21/c'
_symmetry_Int_Tables_number      14
_space_group_name_Hall           '-P 2ybc'
loop_
_symmetry_equiv_pos_site_id
_symmetry_equiv_pos_as_xyz
1 x,y,z
2 -x,1/2+y,1/2-z
3 -x,-y,-z
4 x,1/2-y,1/2+z
_cell_length_a                   11.1762(4)
_cell_length_b                   7.7306(3)
_cell_length_c                   20.1033(8)
_cell_angle_alpha                90
_cell_angle_beta                 91.0044(12)
_cell_angle_gamma                90
_cell_volume                     1736.63
loop_
_atom_site_label
_atom_site_type_symbol
_atom_site_fract_x
_atom_site_fract_y
_atom_site_fract_z
Mn1 Mn 0.50807(7) 0.10995(8) 0.24808(5)
Mn2 Mn 1.0000 0.0000 0.5000
Mn3 Mn 1.0000 -0.5000 0.5000
C1 C 0.9051(5) 0.2604(6) 0.3088(3)
C2 C 0.8203(5) 0.1360(6) 0.2905(3)
H1 H 0.7964 0.0529 0.3209
C3 C 0.8089(5) 0.2504(6) 0.1823(3)
H2 H 0.7754 0.2474 0.1396
C4 C 0.8947(5) 0.3710(7) 0.1980(3)
H3 H 0.9225 0.4462 0.1657
C5 C 0.9395(5) 0.3796(7) 0.2627(3)
H4 H 0.9931 0.4666 0.2747
C6 C 0.9509(5) 0.2590(7) 0.3796(3)
C7 C 0.5932(5) -0.1478(6) 0.4438(3)
C8 C 0.6808(4) -0.0323(6) 0.4644(3)
H5 H 0.7039 0.0568 0.4364
C9 C 0.6980(5) -0.1710(7) 0.5686(3)
H6 H 0.7335 -0.1775 0.6108
C10 C 0.6095(5) -0.2863(7) 0.5500(3)
H7 H 0.5855 -0.3717 0.5795
C11 C 0.5564(5) -0.2753(7) 0.4879(3)
H8 H 0.4962 -0.3525 0.4754
C12 C 0.5441(5) -0.1387(7) 0.3728(3)
N1 N 0.7732(4) 0.1372(5) 0.2280(2)
N2 N 0.7327(4) -0.0487(5) 0.5252(2)
N3 N 0.4359(4) -0.1386(5) 0.2064(2)
N4 N 0.3856(4) -0.1282(5) 0.1533(3)
N5 N 0.3357(4) -0.1194(5) 0.1019(3)
N6 N 0.9375(4) -0.2494(5) 0.4548(2)
N7 N 0.8855(4) -0.2582(5) 0.4010(3)
N8 N 0.8359(5) -0.2694(6) 0.3508(3)
O1 O 0.9359(3) 0.1203(4) 0.41109(18)
O2 O 1.0023(3) 0.3930(4) 0.40027(18)
O3 O 0.6849(3) 0.0263(4) 0.21260(18)
O4 O 0.5555(3) 0.0055(4) 0.34385(18)
O5 O 0.4977(3) -0.2733(4) 0.35018(19)
O6 O 0.8229(3) 0.0562(4) 0.54306(18)
O7 O 0.3202(3) 0.1845(5) 0.2650(2)
O8 O 1.1850(3) -0.4036(5) 0.4872(2)
H9 H 1.220(4) -0.427(6) 0.5281(15)
H10 H 0.266(5) 0.161(7) 0.230(3)
H11 H 1.190(6) -0.282(3) 0.480(3)
H12 H 0.319(5) 0.305(3) 0.273(3)
Mn1B Mn 1.49193(7) -0.10995(8) 0.75192(5)
Mn1A Mn 0.49193(7) -0.39005(8) 0.25192(5)
Mn1C Mn 1.50807(7) 0.39005(8) 0.74808(5)
Mn1A_2 Mn 0.49193(7) 0.60995(8) 0.25192(5)
Mn3_2 Mn 1.0000 0.5000 0.5000
C1B C 1.0949(5) -0.2604(6) 0.6912(3)
C2B C 1.1797(5) -0.1360(6) 0.7095(3)
H1B H 1.2036 -0.0529 0.6791
C3B C 1.1911(5) -0.2504(6) 0.8177(3)
H2B H 1.2246 -0.2474 0.8604
C4B C 1.1053(5) -0.3710(7) 0.8020(3)
H3B H 1.0775 -0.4462 0.8343
C5B C 1.0605(5) -0.3796(7) 0.7373(3)
H4B H 1.0069 -0.4666 0.7253
C6B C 1.0491(5) -0.2590(7) 0.6204(3)
C7B C 1.4068(5) 0.1478(6) 0.5562(3)
C8B C 1.3192(4) 0.0323(6) 0.5356(3)
H5B H 1.2961 -0.0568 0.5636
C9B C 1.3020(5) 0.1710(7) 0.4314(3)
H6B H 1.2665 0.1775 0.3892
C10B C 1.3905(5) 0.2863(7) 0.4500(3)
H7B H 1.4145 0.3717 0.4205
C11B C 1.4436(5) 0.2753(7) 0.5121(3)
H8B H 1.5038 0.3525 0.5246
C12B C 1.4559(5) 0.1387(7) 0.6272(3)
N1B N 1.2268(4) -0.1372(5) 0.7720(2)
N2B N 1.2673(4) 0.0487(5) 0.4748(2)
N3A N 0.5641(4) 0.3614(5) 0.2936(2)
N3C N 1.4359(4) -0.3614(5) 0.7064(2)
N3B N 1.5641(4) 0.1386(5) 0.7936(2)
N4A N 0.6144(4) 0.3718(5) 0.3467(3)
N5A N 0.6643(4) 0.3806(5) 0.3981(3)
N6B N 1.0625(4) 0.2494(5) 0.5452(2)
N6B_2 N 1.0625(4) -0.7506(5) 0.5452(2)
N7B N 1.1145(4) 0.2582(5) 0.5990(3)
N8B N 1.1641(5) 0.2694(6) 0.6492(3)
O1B O 1.0641(3) -0.1203(4) 0.58891(18)
O2B O 0.9977(3) -0.3930(4) 0.59973(18)
O2_2 O 1.0023(3) -0.6070(4) 0.40027(18)
O3B O 1.3151(3) -0.0263(4) 0.78740(18)
O4B O 1.4445(3) -0.0055(4) 0.65615(18)
O5B O 1.5023(3) 0.2733(4) 0.64982(19)
O5A O 0.5023(3) 0.2267(4) 0.14982(19)
O5C O 1.4977(3) -0.2267(4) 0.85018(19)
O6B O 1.1771(3) -0.0562(4) 0.45694(18)
O7B O 1.6798(3) -0.1845(5) 0.7350(2)
O8B O 0.8150(3) -0.5964(5) 0.5128(2)
H9B H 0.780(4) -0.573(6) 0.4719(15)
H10B H 1.734(5) -0.161(7) 0.770(3)
H11B H 0.810(6) -0.718(3) 0.520(3)
H12B H 1.681(5) -0.305(3) 0.727(3)
loop_
_geom_bond_atom_site_label_1
_geom_bond_atom_site_label_2
_geom_bond_site_symmetry_1
_geom_bond_site_symmetry_2
Mn1 N3 1_555 1_555
Mn2 N6 1_555 1_555
Mn3 N6 1_555 1_555
C1 C2 1_555 1_555
C2 H1 1_555 1_555
C3 H2 1_555 1_555
C4 C3 1_555 1_555
H3 C4 1_555 1_555
C5 C1 1_555 1_555
H4 C5 1_555 1_555
C6 C1 1_555 1_555
C7 C8 1_555 1_555
C8 H5 1_555 1_555
C9 H6 1_555 1_555
C10 C9 1_555 1_555
H7 C10 1_555 1_555
C11 C7 1_555 1_555
H8 C11 1_555 1_555
C12 C7 1_555 1_555
N1 C2 1_555 1_555
N2 C8 1_555 1_555
N3 N4 1_555 1_555
N4 N5 1_555 1_555
N6 N7 1_555 1_555
N7 N8 1_555 1_555
O1 Mn2 1_555 1_555
O2 C6 1_555 1_555
O3 Mn1 1_555 1_555
O4 Mn1 1_555 1_555
O5 C12 1_555 1_555
O6 Mn2 1_555 1_555
O7 Mn1 1_555 1_555
O8 Mn3 1_555 1_555
H9 O8 1_555 1_555
H10 O7 1_555 1_555
H11 O8 1_555 1_555
H12 O7 1_555 1_555
Mn1B N3C 1_555 1_555
Mn1A N3 1_555 1_555
Mn1C N3B 1_555 1_555
Mn1A_2 N3A 1_555 1_555
Mn3_2 O2 1_555 1_555
C1B C2B 1_555 1_555
C2B H1B 1_555 1_555
C3B H2B 1_555 1_555
C4B C3B 1_555 1_555
H3B C4B 1_555 1_555
C5B C1B 1_555 1_555
H4B C5B 1_555 1_555
C6B C1B 1_555 1_555
C7B C8B 1_555 1_555
C8B H5B 1_555 1_555
C9B H6B 1_555 1_555
C10B C9B 1_555 1_555
H7B C10B 1_555 1_555
C11B C7B 1_555 1_555
H8B C11B 1_555 1_555
C12B C7B 1_555 1_555
N1B C2B 1_555 1_555
N2B C8B 1_555 1_555
N3A Mn1 1_555 1_555
N3B Mn1B 1_555 1_555
N4A N3A 1_555 1_555
N5A N4A 1_555 1_555
N6B Mn2 1_555 1_555
N6B_2 Mn3 1_555 1_555
N7B N6B 1_555 1_555
N8B N7B 1_555 1_555
O1B Mn2 1_555 1_555
O2B Mn3 1_555 1_555
O2_2 Mn3 1_555 1_555
O3B Mn1B 1_555 1_555
O4B Mn1B 1_555 1_555
O5B Mn1C 1_555 1_555
O5A Mn1 1_555 1_555
O5C Mn1B 1_555 1_555
O6B Mn2 1_555 1_555
O7B Mn1B 1_555 1_555
O8B Mn3 1_555 1_555
H9B O8B 1_555 1_555
H10B O7B 1_555 1_555
H11B O8B 1_555 1_555
H12B O7B 1_555 1_555
C3 N1 1_555 1_555
C4 C5 1_555 1_555
C6 O1 1_555 1_555
C9 N2 1_555 1_555
C10 C11 1_555 1_555
C12 O4 1_555 1_555
N1 O3 1_555 1_555
N2 O6 1_555 1_555
O5 Mn1A 1_555 1_555
Mn3_2 N6B 1_555 1_555
C3B N1B 1_555 1_555
C4B C5B 1_555 1_555
C6B O1B 1_555 1_555
C6B O2B 1_555 1_555
C9B N2B 1_555 1_555
C10B C11B 1_555 1_555
C12B O4B 1_555 1_555
C12B O5B 1_555 1_555
N1B O3B 1_555 1_555
N2B O6B 1_555 1_555

#END
