
#######################################################################
#
#                 Cambridge Crystallographic Data Centre
#                                CCDC 
#
#######################################################################
#
# If this CIF has been generated from an entry in the Cambridge 
# Structural Database, then it will include bibliographic, chemical, 
# crystal, experimental, refinement or atomic coordinate data resulting 
# from the CCDC's data processing and validation procedures.
#
#######################################################################

data_NEPDAP
_symmetry_cell_setting           triclinic
_symmetry_space_group_name_H-M   'P -1'
_symmetry_Int_Tables_number      2
_space_group_name_Hall           '-P 1'
loop_
_symmetry_equiv_pos_site_id
_symmetry_equiv_pos_as_xyz
1 x,y,z
2 -x,-y,-z
_cell_length_a                   6.444(3)
_cell_length_b                   7.527(3)
_cell_length_c                   17.570(8)
_cell_angle_alpha                90.391(14)
_cell_angle_beta                 99.196(14)
_cell_angle_gamma                97.017(14)
_cell_volume                     834.659
loop_
_atom_site_label
_atom_site_type_symbol
_atom_site_fract_x
_atom_site_fract_y
_atom_site_fract_z
K1 K 0.46032(12) 0.73028(11) 0.05960(4)
O1 O 0.6455(4) 0.7769(4) 0.21875(15)
O2 O 0.2735(4) 0.9445(4) -0.05784(16)
O3 O -0.4217(4) 0.6355(3) -0.07747(14)
O4 O -0.1273(4) 0.6338(4) 0.05099(15)
N1 N -0.3204(5) 0.8191(4) -0.16796(17)
H1 H -0.4508 0.7993 -0.1932
O5 O 0.0438(4) 0.5401(4) 0.17795(15)
N2 N 0.0057(5) 0.7320(4) 0.01566(17)
N3 N 0.2409(5) 0.6243(4) 0.19087(17)
O6 O -0.2283(5) 0.9886(4) -0.26481(15)
O7 O 0.1150(5) 0.3947(5) 0.31581(17)
O8 O 0.7092(5) 0.6314(5) 0.46900(16)
N4 N 0.0218(4) 0.9627(4) -0.16051(17)
H2 H 0.1145 1.0331 -0.1818
C1 C 0.5662(6) 0.7006(5) 0.2698(2)
C2 C 0.0923(5) 0.9004(5) -0.0890(2)
N5 N 0.6748(5) 0.7011(4) 0.34362(17)
H3 H 0.8032 0.7603 0.3523
C3 C -0.2803(5) 0.7380(5) -0.09754(19)
N6 N 0.4103(5) 0.5183(5) 0.39140(17)
H4 H 0.3665 0.4619 0.4307
C4 C -0.1779(6) 0.9267(5) -0.2022(2)
C5 C 0.2768(6) 0.4966(6) 0.3215(2)
C6 C -0.0678(5) 0.7848(5) -0.05456(19)
C7 C 0.3508(5) 0.6012(5) 0.25840(19)
C8 C 0.6015(6) 0.6177(6) 0.4052(2)
K1A K 0.53968(12) 1.26972(11) -0.05960(4)
K1_2 K -0.53968(12) 0.73028(11) 0.05960(4)
K1A_2 K -0.46032(12) 0.26972(11) -0.05960(4)
O2A O 0.7265(4) 1.0555(4) 0.05784(16)
O3_2 O 0.5783(4) 0.6355(3) -0.07747(14)
O3A O 0.4217(4) 0.3645(3) 0.07747(14)
O4_2 O 0.8727(4) 0.6338(4) 0.05099(15)
O9 O 0.6892(5) 0.2924(5) 0.27052(19)
H5 H 0.8086 0.3245 0.2582
C9 C 0.7138(8) 0.1938(7) 0.3381(3)
H6 H 0.7908 0.2715 0.3810
H7 H 0.7937 0.0940 0.3308
H8 H 0.5740 0.1469 0.3498
O10 O 0.0922(5) 0.8365(6) 0.37962(19)
H9 H 0.1454 0.8889 0.3439
C10 C 0.2034(9) 0.9027(10) 0.4501(3)
H10 H 0.3552 0.8992 0.4509
H11 H 0.1562 0.8292 0.4915
H12 H 0.1774 1.0266 0.4579
loop_
_geom_bond_atom_site_label_1
_geom_bond_atom_site_label_2
_geom_bond_site_symmetry_1
_geom_bond_site_symmetry_2
K1 O1 1_555 1_555
O1 C1 1_555 1_555
O2 K1 1_555 1_555
O3 C3 1_555 1_555
O4 N2 1_555 1_555
N1 H1 1_555 1_555
O5 N3 1_555 1_555
N2 K1 1_555 1_555
N3 K1 1_555 1_555
O6 C4 1_555 1_555
O7 C5 1_555 1_555
O8 C8 1_555 1_555
N4 H2 1_555 1_555
C1 N5 1_555 1_555
C2 O2 1_555 1_555
N5 H3 1_555 1_555
C3 N1 1_555 1_555
N6 H4 1_555 1_555
C4 N1 1_555 1_555
C5 N6 1_555 1_555
C6 N2 1_555 1_555
C7 N3 1_555 1_555
C8 N5 1_555 1_555
O9 H5 1_555 1_555
C9 O9 1_555 1_555
H6 C9 1_555 1_555
H7 C9 1_555 1_555
H8 C9 1_555 1_555
O10 H9 1_555 1_555
C10 O10 1_555 1_555
H10 C10 1_555 1_555
H11 C10 1_555 1_555
H12 C10 1_555 1_555
K1A O2 1_555 1_555
K1_2 O3 1_555 1_555
K1A_2 O3 1_555 1_555
O2A K1 1_555 1_555
O3_2 K1 1_555 1_555
O3A K1 1_555 1_555
O4_2 K1 1_555 1_555
O4 K1_2 1_555 1_555
N4 C2 1_555 1_555
N4 C4 1_555 1_555
C1 C7 1_555 1_555
C2 C6 1_555 1_555
C3 C6 1_555 1_555
N6 C8 1_555 1_555
C5 C7 1_555 1_555
K1A O2A 1_555 1_555

#END
