
#######################################################################
#
#                 Cambridge Crystallographic Data Centre
#                                CCDC 
#
#######################################################################
#
# If this CIF has been generated from an entry in the Cambridge 
# Structural Database, then it will include bibliographic, chemical, 
# crystal, experimental, refinement or atomic coordinate data resulting 
# from the CCDC's data processing and validation procedures.
#
#######################################################################

data_NEPFAQ
_symmetry_cell_setting           monoclinic
_symmetry_space_group_name_H-M   'C 2/c'
_symmetry_Int_Tables_number      15
_space_group_name_Hall           '-C 2yn'
loop_
_symmetry_equiv_pos_site_id
_symmetry_equiv_pos_as_xyz
1 x,y,z
2 1/2+x,1/2+y,z
3 -x,y,1/2-z
4 1/2-x,1/2+y,1/2-z
5 -x,-y,-z
6 1/2-x,1/2-y,-z
7 x,-y,1/2+z
8 1/2+x,1/2-y,1/2+z
_cell_length_a                   17.180(3)
_cell_length_b                   15.269(3)
_cell_length_c                   12.1374(19)
_cell_angle_alpha                90
_cell_angle_beta                 108.606(3)
_cell_angle_gamma                90
_cell_volume                     3017.49
loop_
_atom_site_label
_atom_site_type_symbol
_atom_site_fract_x
_atom_site_fract_y
_atom_site_fract_z
Cd1 Cd 0.267780(19) 0.22574(2) 0.35194(3)
Br1 Br 0.23164(4) 0.12998(3) 0.53432(4)
Br2 Br 0.40635(3) 0.16159(5) 0.36674(6)
N1 N 0.1050(2) 0.2899(2) 0.1728(3)
C1 C 0.0000 0.4784(4) 0.2500
H1 H 0.0000 0.5394 0.2500
N2 N 0.0000 0.2993(3) 0.2500
C2 C 0.1613(2) 0.3245(3) 0.1197(3)
N3 N 0.1569(2) 0.1506(2) 0.2349(3)
C3 C 0.0514(2) 0.3439(3) 0.2092(3)
N4 N 0.2398(2) 0.3038(2) 0.1720(3)
C4 C 0.0934(2) 0.1974(3) 0.1701(3)
C5 C 0.0544(3) 0.4343(3) 0.2078(4)
H2 H 0.0915 0.4640 0.1797
C6 C 0.1933(3) 0.4038(3) -0.0278(4)
H3 H 0.1780 0.4383 -0.0945
C7 C 0.0202(3) 0.1597(3) 0.1051(3)
H4 H -0.0229 0.1938 0.0594
C8 C 0.1353(3) 0.3739(3) 0.0190(4)
H5 H 0.0800 0.3866 -0.0161
C9 C 0.1496(3) 0.0630(3) 0.2340(4)
H6 H 0.1946 0.0296 0.2761
C10 C 0.0126(3) 0.0700(3) 0.1096(4)
H7 H -0.0368 0.0429 0.0697
C11 C 0.2951(3) 0.3323(3) 0.1226(4)
H8 H 0.3499 0.3170 0.1569
C12 C 0.2745(3) 0.3821(3) 0.0253(4)
H9 H 0.3146 0.4014 -0.0053
C13 C 0.0787(3) 0.0211(3) 0.1735(4)
H10 H 0.0751 -0.0396 0.1756
Cd1E Cd 0.232220(19) 0.27426(2) 0.64806(3)
Cd1B Cd -0.267780(19) 0.22574(2) 0.14806(3)
Br1E Br 0.26836(4) 0.37002(3) 0.46568(4)
Br2E Br 0.09365(3) 0.33841(5) 0.63326(6)
N1B N -0.1050(2) 0.2899(2) 0.3272(3)
C2B C -0.1613(2) 0.3245(3) 0.3803(3)
N3B N -0.1569(2) 0.1506(2) 0.2651(3)
N3E N 0.3431(2) 0.3494(2) 0.7651(3)
C3B C -0.0514(2) 0.3439(3) 0.2908(3)
N4B N -0.2398(2) 0.3038(2) 0.3280(3)
N4E N 0.2602(2) 0.1962(2) 0.8280(3)
C4B C -0.0934(2) 0.1974(3) 0.3299(3)
C5B C -0.0544(3) 0.4343(3) 0.2922(4)
H2B H -0.0915 0.4640 0.3203
C6B C -0.1933(3) 0.4038(3) 0.5278(4)
H3B H -0.1780 0.4383 0.5945
C7B C -0.0202(3) 0.1597(3) 0.3949(3)
H4B H 0.0229 0.1938 0.4406
C8B C -0.1353(3) 0.3739(3) 0.4810(4)
H5B H -0.0800 0.3866 0.5161
C9B C -0.1496(3) 0.0630(3) 0.2660(4)
H6B H -0.1946 0.0296 0.2239
C10B C -0.0126(3) 0.0700(3) 0.3904(4)
H7B H 0.0368 0.0429 0.4303
C11B C -0.2951(3) 0.3323(3) 0.3774(4)
H8B H -0.3499 0.3170 0.3431
C12B C -0.2745(3) 0.3821(3) 0.4747(4)
H9B H -0.3146 0.4014 0.5053
C13B C -0.0787(3) 0.0211(3) 0.3265(4)
H10B H -0.0751 -0.0396 0.3244
O1 O 0.5000 0.3123(8) 0.2500
H11 H 0.5375 0.2809 0.2452
H11B H 0.4625 0.2809 0.2548
loop_
_geom_bond_atom_site_label_1
_geom_bond_atom_site_label_2
_geom_bond_site_symmetry_1
_geom_bond_site_symmetry_2
Cd1 Br1 1_555 1_555
Br1 Cd1E 1_555 1_555
Br2 Cd1 1_555 1_555
N1 C2 1_555 1_555
C1 H1 1_555 1_555
N2 C3 1_555 1_555
C2 N4 1_555 1_555
N3 Cd1 1_555 1_555
C3 N1 1_555 1_555
N4 Cd1 1_555 1_555
C4 N1 1_555 1_555
C5 C1 1_555 1_555
H2 C5 1_555 1_555
C6 H3 1_555 1_555
C7 C4 1_555 1_555
H4 C7 1_555 1_555
C8 C2 1_555 1_555
H5 C8 1_555 1_555
C9 N3 1_555 1_555
H6 C9 1_555 1_555
C10 C7 1_555 1_555
H7 C10 1_555 1_555
C11 N4 1_555 1_555
H8 C11 1_555 1_555
C12 C6 1_555 1_555
H9 C12 1_555 1_555
C13 C9 1_555 1_555
H10 C13 1_555 1_555
O1 H11 1_555 1_555
Cd1E Br1E 1_555 1_555
Cd1B N3B 1_555 1_555
Br1E Cd1 1_555 1_555
Br2E Cd1E 1_555 1_555
N1B C2B 1_555 1_555
C2B N4B 1_555 1_555
N3B C4B 1_555 1_555
N3E Cd1E 1_555 1_555
C3B N2 1_555 1_555
N4B Cd1B 1_555 1_555
N4E Cd1E 1_555 1_555
C4B N1B 1_555 1_555
C5B C1 1_555 1_555
H2B C5B 1_555 1_555
C6B H3B 1_555 1_555
C7B C4B 1_555 1_555
H4B C7B 1_555 1_555
C8B C2B 1_555 1_555
H5B C8B 1_555 1_555
C9B N3B 1_555 1_555
H6B C9B 1_555 1_555
C10B C7B 1_555 1_555
H7B C10B 1_555 1_555
C11B N4B 1_555 1_555
H8B C11B 1_555 1_555
C12B C6B 1_555 1_555
H9B C12B 1_555 1_555
C13B C9B 1_555 1_555
H10B C13B 1_555 1_555
H11B O1 1_555 1_555
N3 C4 1_555 1_555
C3 C5 1_555 1_555
C6 C8 1_555 1_555
C10 C13 1_555 1_555
C11 C12 1_555 1_555
N1B C3B 1_555 1_555
C3B C5B 1_555 1_555
C6B C8B 1_555 1_555
C10B C13B 1_555 1_555
C11B C12B 1_555 1_555

#END
