
#######################################################################
#
#                 Cambridge Crystallographic Data Centre
#                                CCDC 
#
#######################################################################
#
# If this CIF has been generated from an entry in the Cambridge 
# Structural Database, then it will include bibliographic, chemical, 
# crystal, experimental, refinement or atomic coordinate data resulting 
# from the CCDC's data processing and validation procedures.
#
#######################################################################

data_NEPFEU
_symmetry_cell_setting           orthorhombic
_symmetry_space_group_name_H-M   'P b c a'
_symmetry_Int_Tables_number      61
_space_group_name_Hall           '-P 2ac 2ab'
loop_
_symmetry_equiv_pos_site_id
_symmetry_equiv_pos_as_xyz
1 x,y,z
2 1/2-x,-y,1/2+z
3 -x,1/2+y,1/2-z
4 1/2+x,1/2-y,-z
5 -x,-y,-z
6 1/2+x,y,1/2-z
7 x,1/2-y,1/2+z
8 1/2-x,1/2+y,z
_cell_length_a                   17.360(9)
_cell_length_b                   15.178(8)
_cell_length_c                   24.457(13)
_cell_angle_alpha                90
_cell_angle_beta                 90
_cell_angle_gamma                90
_cell_volume                     6444.18
loop_
_atom_site_label
_atom_site_type_symbol
_atom_site_fract_x
_atom_site_fract_y
_atom_site_fract_z
I1 I -0.33806(3) 0.24014(3) 0.299610(16)
Cd1 Cd -0.28195(2) 0.20280(3) 0.198250(17)
I2 I -0.34122(3) 0.07754(3) 0.127940(17)
I3 I -0.39127(3) 0.35003(3) 0.144130(17)
I4 I -0.34245(3) 0.21421(4) -0.032500(19)
Cd2 Cd -0.42921(3) 0.25166(3) 0.055830(18)
N1 N -0.1097(3) 0.2933(3) 0.32483(18)
N2 N -0.0964(3) 0.3054(3) 0.41746(18)
N3 N -0.0374(3) 0.1694(3) 0.43381(18)
C1 C -0.1086(3) 0.3481(3) 0.3670(2)
C2 C -0.1118(3) 0.1722(4) 0.2450(2)
N4 N -0.1721(3) 0.1235(3) 0.2310(2)
C3 C -0.0475(4) 0.1383(4) 0.2697(3)
H1 H -0.0062 0.1745 0.2787
C4 C -0.1167(3) 0.3261(3) 0.2747(2)
C5 C -0.1044(4) 0.0344(4) 0.4269(3)
H2 H -0.1046 -0.0266 0.4306
C6 C -0.1145(4) 0.4388(4) 0.3615(3)
H3 H -0.1136 0.4761 0.3917
N5 N -0.0184(3) 0.3429(3) 0.4914(2)
N6 N -0.1193(3) 0.2634(3) 0.23242(19)
C7 C -0.0870(4) 0.3511(4) 0.4683(2)
C8 C -0.1009(3) 0.2114(3) 0.4190(2)
N7 N -0.1865(3) 0.2757(3) 0.15023(19)
C9 C -0.1696(4) 0.0784(5) 0.4101(3)
H4 H -0.2143 0.0475 0.4017
C10 C -0.1896(4) 0.2955(5) 0.0966(2)
H5 H -0.2357 0.2860 0.0782
C11 C -0.1220(5) 0.4709(4) 0.3086(3)
H6 H -0.1259 0.5315 0.3034
C12 C -0.1678(3) 0.1682(4) 0.4061(3)
H7 H -0.2112 0.1994 0.3948
C13 C -0.1202(3) 0.2875(4) 0.1761(2)
C14 C -0.0403(4) 0.0814(4) 0.4379(3)
H8 H 0.0039 0.0515 0.4488
C15 C -0.1238(4) 0.4168(4) 0.2640(3)
H9 H -0.1294 0.4387 0.2287
C16 C -0.0456(4) 0.0497(4) 0.2810(3)
H10 H -0.0029 0.0248 0.2979
C17 C -0.1688(4) 0.0372(4) 0.2415(3)
H11 H -0.2100 0.0018 0.2311
C18 C -0.1455(4) 0.3989(5) 0.4915(3)
H12 H -0.1929 0.4045 0.4741
C19 C -0.0561(4) 0.3184(5) 0.1498(3)
H13 H -0.0098 0.3249 0.1686
C20 C -0.0067(5) 0.3819(5) 0.5407(3)
H14 H 0.0407 0.3750 0.5579
C21 C -0.0613(4) 0.3400(5) 0.0944(3)
H15 H -0.0186 0.3619 0.0758
C22 C -0.1071(5) -0.0012(5) 0.2670(3)
H16 H -0.1072 -0.0613 0.2746
C23 C -0.1318(5) 0.4390(5) 0.5417(3)
H17 H -0.1702 0.4715 0.5588
C24 C -0.0612(5) 0.4298(5) 0.5655(3)
H18 H -0.0509 0.4567 0.5988
C25 C -0.1291(5) 0.3287(5) 0.0679(3)
H19 H -0.1341 0.3432 0.0312
Cd2E Cd 0.07079(3) 0.25166(3) 0.444170(18)
N3E N -0.5374(3) 0.1694(3) 0.06619(18)
N5E N -0.5184(3) 0.3429(3) 0.0086(2)
loop_
_geom_bond_atom_site_label_1
_geom_bond_atom_site_label_2
_geom_bond_site_symmetry_1
_geom_bond_site_symmetry_2
I1 Cd1 1_555 1_555
Cd1 I2 1_555 1_555
I3 Cd1 1_555 1_555
I4 Cd2 1_555 1_555
Cd2 I3 1_555 1_555
N1 C1 1_555 1_555
N2 C1 1_555 1_555
N3 C8 1_555 1_555
C1 C6 1_555 1_555
C2 N4 1_555 1_555
N4 Cd1 1_555 1_555
C3 C2 1_555 1_555
H1 C3 1_555 1_555
C4 N1 1_555 1_555
C5 H2 1_555 1_555
C6 H3 1_555 1_555
N5 C7 1_555 1_555
N6 C2 1_555 1_555
C7 N2 1_555 1_555
C8 N2 1_555 1_555
N7 Cd1 1_555 1_555
C9 C5 1_555 1_555
H4 C9 1_555 1_555
C10 N7 1_555 1_555
H5 C10 1_555 1_555
C11 C6 1_555 1_555
H6 C11 1_555 1_555
C12 C8 1_555 1_555
H7 C12 1_555 1_555
C13 N6 1_555 1_555
C14 N3 1_555 1_555
H8 C14 1_555 1_555
C15 C4 1_555 1_555
H9 C15 1_555 1_555
C16 C3 1_555 1_555
H10 C16 1_555 1_555
C17 N4 1_555 1_555
H11 C17 1_555 1_555
C18 C7 1_555 1_555
H12 C18 1_555 1_555
C19 C13 1_555 1_555
H13 C19 1_555 1_555
C20 N5 1_555 1_555
H14 C20 1_555 1_555
C21 C19 1_555 1_555
H15 C21 1_555 1_555
C22 C16 1_555 1_555
H16 C22 1_555 1_555
C23 C18 1_555 1_555
H17 C23 1_555 1_555
C24 C20 1_555 1_555
H18 C24 1_555 1_555
C25 C10 1_555 1_555
H19 C25 1_555 1_555
Cd2E N3 1_555 1_555
N3E Cd2 1_555 1_555
N5E Cd2 1_555 1_555
C4 N6 1_555 1_555
C5 C14 1_555 1_555
N5 Cd2E 1_555 1_555
N7 C13 1_555 1_555
C9 C12 1_555 1_555
C11 C15 1_555 1_555
C17 C22 1_555 1_555
C21 C25 1_555 1_555
C23 C24 1_555 1_555

#END
