
#######################################################################
#
#                 Cambridge Crystallographic Data Centre
#                                CCDC 
#
#######################################################################
#
# If this CIF has been generated from an entry in the Cambridge 
# Structural Database, then it will include bibliographic, chemical, 
# crystal, experimental, refinement or atomic coordinate data resulting 
# from the CCDC's data processing and validation procedures.
#
#######################################################################

data_NEPGUL
_symmetry_cell_setting           monoclinic
_symmetry_space_group_name_H-M   'P 21'
_symmetry_Int_Tables_number      4
_space_group_name_Hall           'P 2yb'
loop_
_symmetry_equiv_pos_site_id
_symmetry_equiv_pos_as_xyz
1 x,y,z
2 -x,1/2+y,-z
_cell_length_a                   8.3120(10)
_cell_length_b                   8.4940(10)
_cell_length_c                   15.985(2)
_cell_angle_alpha                90
_cell_angle_beta                 99.981(2)
_cell_angle_gamma                90
_cell_volume                     1111.49
loop_
_atom_site_label
_atom_site_type_symbol
_atom_site_fract_x
_atom_site_fract_y
_atom_site_fract_z
Br1 Br 1.19189(8) 0.00000 0.65464(4)
Br2 Br 1.29785(8) -0.02925(9) 0.14434(3)
N1 N 0.6272(7) 0.1799(6) 0.6939(3)
C1 C 0.7254(8) 0.2250(7) 0.6294(4)
C2 C 0.6653(8) 0.3690(7) 0.5771(4)
N2 N 0.6972(6) 0.5133(6) 0.6279(3)
C3 C 0.6161(8) 0.6518(7) 0.5829(4)
C4 C 0.6551(8) 0.8025(7) 0.6341(4)
N3 N 0.6013(7) 0.8082(6) 0.7173(3)
N4 N 1.0436(7) 0.5933(7) 0.5534(3)
C5 C 1.1650(7) 0.4672(9) 0.5595(3)
C6 C 1.2575(7) 0.4565(9) 0.6501(4)
N5 N 1.1430(7) 0.4106(6) 0.7072(3)
C7 C 1.2012(7) 0.4567(9) 0.7965(4)
C8 C 1.1770(9) 0.6341(8) 0.8075(4)
N6 N 1.0112(8) 0.6831(7) 0.7708(4)
N7 N 0.4840(8) 0.0792(7) 0.8515(4)
C9 C 0.4749(18) -0.045(2) 0.9192(9)
C11 C 0.6200(15) -0.0881(15) 0.9637(6)
N8 N 0.7547(7) -0.1142(7) 0.9200(3)
C12 C 0.8831(16) -0.006(2) 0.9651(7)
C14 C 0.9944(14) 0.0517(16) 0.9212(7)
N9 N 0.9335(8) 0.0960(7) 0.8328(4)
Li1 Li 0.6859(12) 0.0046(13) 0.7944(6)
Li2 Li 0.9437(13) 0.5578(13) 0.6622(7)
H1 H 0.52777 0.14395 0.66388
H2 H 0.61197 0.26842 0.72245
H3 H 0.83577 0.24149 0.65795
H4 H 0.72986 0.13295 0.59227
H5 H 0.54827 0.35365 0.55925
H6 H 0.71457 0.37084 0.52861
H7 H 0.65946 0.49615 0.67830
H8 H 0.64969 0.65846 0.52939
H9 H 0.50003 0.63230 0.57377
H10 H 0.60769 0.88403 0.60055
H11 H 0.77176 0.81012 0.64393
H12 H 0.48729 0.80518 0.70727
H13 H 0.63501 0.71246 0.74669
H14 H 0.96698 0.58077 0.50384
H15 H 1.09427 0.68649 0.55311
H16 H 1.10775 0.36517 0.54458
H17 H 1.23716 0.48081 0.52089
H18 H 1.30756 0.55058 0.66858
H19 H 1.34455 0.37451 0.65439
H20 H 1.11470 0.30050 0.69989
H21 H 1.14309 0.39692 0.83362
H22 H 1.31537 0.42915 0.81254
H23 H 1.25270 0.68396 0.78054
H24 H 1.19738 0.65307 0.86690
H25 H 0.93975 0.65686 0.80825
H26 H 1.00801 0.78449 0.75950
H27 H 0.48987 0.18107 0.86216
H28 H 0.38726 0.05191 0.81601
H29 H 0.40525 -0.01550 0.95604
H30 H 0.42706 -0.14468 0.89031
H33 H 0.65444 -0.00742 1.00403
H34 H 0.60888 -0.18453 0.99577
H37 H 0.77072 -0.22440 0.91221
H38 H 0.82807 0.08005 0.98222
H39 H 0.94046 -0.06202 1.01252
H42 H 1.04109 0.13783 0.95119
H43 H 1.07539 -0.03173 0.92278
H46 H 0.93225 0.19905 0.82675
H47 H 1.00034 0.04860 0.79787
N3_2 N 0.6013(7) -0.1918(6) 0.7173(3)
Li1_2 Li 0.6859(12) 1.0046(13) 0.7944(6)
C10? C 0.508(2) 0.042(2) 0.9421(9)
C13? C 0.9298(19) -0.088(2) 0.9537(8)
H31? H 0.40410 0.01017 0.95481
H32? H 0.54666 0.13026 0.97173
H35? H 0.56040 -0.18528 0.96079
H36? H 0.67060 -0.07374 1.02288
H40? H 0.94803 -0.08536 1.01433
H41? H 0.99456 -0.17950 0.93885
H44? H 1.10914 0.03641 0.92875
H45? H 0.96787 0.13124 0.95657
loop_
_geom_bond_atom_site_label_1
_geom_bond_atom_site_label_2
_geom_bond_site_symmetry_1
_geom_bond_site_symmetry_2
N1 C1 1_555 1_555
C1 C2 1_555 1_555
C2 N2 1_555 1_555
N2 C3 1_555 1_555
C3 C4 1_555 1_555
C4 N3 1_555 1_555
N3 H12 1_555 1_555
N4 C5 1_555 1_555
C5 C6 1_555 1_555
C6 N5 1_555 1_555
N5 C7 1_555 1_555
C7 C8 1_555 1_555
C8 N6 1_555 1_555
N6 Li2 1_555 1_555
N7 C9 1_555 1_555
C9 C11 1_555 1_555
C11 N8 1_555 1_555
N8 C12 1_555 1_555
C12 C14 1_555 1_555
C14 N9 1_555 1_555
N9 Li1 1_555 1_555
Li1 N1 1_555 1_555
Li2 N2 1_555 1_555
H1 N1 1_555 1_555
H2 N1 1_555 1_555
H3 C1 1_555 1_555
H4 C1 1_555 1_555
H5 C2 1_555 1_555
H6 C2 1_555 1_555
H7 N2 1_555 1_555
H8 C3 1_555 1_555
H9 C3 1_555 1_555
H10 C4 1_555 1_555
H11 C4 1_555 1_555
H13 N3 1_555 1_555
H14 N4 1_555 1_555
H15 N4 1_555 1_555
H16 C5 1_555 1_555
H17 C5 1_555 1_555
H18 C6 1_555 1_555
H19 C6 1_555 1_555
H20 N5 1_555 1_555
H21 C7 1_555 1_555
H22 C7 1_555 1_555
H23 C8 1_555 1_555
H24 C8 1_555 1_555
H25 N6 1_555 1_555
H26 N6 1_555 1_555
H27 N7 1_555 1_555
H28 N7 1_555 1_555
H29 C9 1_555 1_555
H30 C9 1_555 1_555
H33 C11 1_555 1_555
H34 C11 1_555 1_555
H37 N8 1_555 1_555
H38 C12 1_555 1_555
H39 C12 1_555 1_555
H42 C14 1_555 1_555
H43 C14 1_555 1_555
H46 N9 1_555 1_555
H47 N9 1_555 1_555
N3_2 Li1 1_555 1_555
Li1_2 N3 1_555 1_555
N4 Li2 1_555 1_555
N5 Li2 1_555 1_555
N7 Li1 1_555 1_555
N8 Li1 1_555 1_555

#END
