
#######################################################################
#
#                 Cambridge Crystallographic Data Centre
#                                CCDC 
#
#######################################################################
#
# If this CIF has been generated from an entry in the Cambridge 
# Structural Database, then it will include bibliographic, chemical, 
# crystal, experimental, refinement or atomic coordinate data resulting 
# from the CCDC's data processing and validation procedures.
#
#######################################################################

data_NEPGIZ
_symmetry_cell_setting           monoclinic
_symmetry_space_group_name_H-M   'C 2/c'
_symmetry_Int_Tables_number      15
_space_group_name_Hall           '-C 2yn'
loop_
_symmetry_equiv_pos_site_id
_symmetry_equiv_pos_as_xyz
1 x,y,z
2 1/2+x,1/2+y,z
3 -x,y,1/2-z
4 1/2-x,1/2+y,1/2-z
5 -x,-y,-z
6 1/2-x,1/2-y,-z
7 x,-y,1/2+z
8 1/2+x,1/2-y,1/2+z
_cell_length_a                   17.0876(17)
_cell_length_b                   14.9487(15)
_cell_length_c                   12.0009(12)
_cell_angle_alpha                90
_cell_angle_beta                 109.473(2)
_cell_angle_gamma                90
_cell_volume                     2890.13
loop_
_atom_site_label
_atom_site_type_symbol
_atom_site_fract_x
_atom_site_fract_y
_atom_site_fract_z
C1 C 0.29621(18) 0.3349(2) 0.1231(3)
H1 H 0.3515 0.3186 0.1583
C2 C 0.2751(2) 0.3857(2) 0.0230(3)
H2 H 0.3156 0.4049 -0.0076
C3 C 0.1934(2) 0.4081(2) -0.0319(3)
H3 H 0.1776 0.4429 -0.1000
C4 C 0.13493(19) 0.3778(2) 0.0157(3)
H4 H 0.0789 0.3905 -0.0208
C5 C 0.16141(16) 0.32844(18) 0.1184(2)
C6 C 0.09232(17) 0.19945(18) 0.1694(2)
C7 C 0.01758(18) 0.1614(2) 0.1030(2)
H5 H -0.0258 0.1966 0.0562
C8 C 0.0088(2) 0.0701(2) 0.1080(3)
H6 H -0.0416 0.0431 0.0670
C9 C 0.0752(2) 0.0190(2) 0.1740(3)
H7 H 0.0709 -0.0429 0.1764
C10 C 0.1473(2) 0.0614(2) 0.2358(3)
H8 H 0.1924 0.0270 0.2798
C11 C 0.05142(15) 0.34929(17) 0.2086(2)
C12 C 0.05445(17) 0.44221(18) 0.2065(3)
H9 H 0.0911 0.4725 0.1774
C13 C 0.0000 0.4873(3) 0.2500
H10 H 0.0000 0.5495 0.2500
Cd1 Cd 0.268616(13) 0.226798(15) 0.355746(17)
Cl1 Cl 0.23302(6) 0.13527(5) 0.53054(7)
Cl2 Cl 0.40249(5) 0.16444(7) 0.37219(9)
N1 N 0.24079(14) 0.30726(17) 0.1733(2)
N2 N 0.10441(14) 0.29416(15) 0.1716(2)
N3 N 0.15623(15) 0.15085(15) 0.2357(2)
N4 N 0.0000 0.3046(2) 0.2500
C1B C -0.29621(18) 0.3349(2) 0.3769(3)
H1B H -0.3515 0.3186 0.3417
C2B C -0.2751(2) 0.3857(2) 0.4770(3)
H2B H -0.3156 0.4049 0.5076
C3B C -0.1934(2) 0.4081(2) 0.5319(3)
H3B H -0.1776 0.4429 0.6000
C4B C -0.13493(19) 0.3778(2) 0.4843(3)
H4B H -0.0789 0.3905 0.5208
C5B C -0.16141(16) 0.32844(18) 0.3816(2)
C6B C -0.09232(17) 0.19945(18) 0.3306(2)
C7B C -0.01758(18) 0.1614(2) 0.3970(2)
H5B H 0.0258 0.1966 0.4438
C8B C -0.0088(2) 0.0701(2) 0.3920(3)
H6B H 0.0416 0.0431 0.4330
C9B C -0.0752(2) 0.0190(2) 0.3260(3)
H7B H -0.0709 -0.0429 0.3236
C10B C -0.1473(2) 0.0614(2) 0.2642(3)
H8B H -0.1924 0.0270 0.2202
C11B C -0.05142(15) 0.34929(17) 0.2914(2)
C12B C -0.05445(17) 0.44221(18) 0.2935(3)
H9B H -0.0911 0.4725 0.3226
Cd1E Cd 0.231384(13) 0.273202(15) 0.644254(17)
Cd1B Cd -0.268616(13) 0.226798(15) 0.144254(17)
Cl1E Cl 0.26698(6) 0.36473(5) 0.46946(7)
Cl2E Cl 0.09751(5) 0.33556(7) 0.62781(9)
N1B N -0.24079(14) 0.30726(17) 0.3267(2)
N1E N 0.25921(14) 0.19274(17) 0.8267(2)
N2B N -0.10441(14) 0.29416(15) 0.3284(2)
N3B N -0.15623(15) 0.15085(15) 0.2643(2)
N3E N 0.34377(15) 0.34915(15) 0.7643(2)
O1 O 0.5000 0.2970(4) 0.2500
H11 H 0.5469 0.2744 0.2563
H11B H 0.4531 0.2744 0.2437
loop_
_geom_bond_atom_site_label_1
_geom_bond_atom_site_label_2
_geom_bond_site_symmetry_1
_geom_bond_site_symmetry_2
C1 H1 1_555 1_555
C2 C1 1_555 1_555
H2 C2 1_555 1_555
C3 C2 1_555 1_555
H3 C3 1_555 1_555
C4 C3 1_555 1_555
H4 C4 1_555 1_555
C5 C4 1_555 1_555
C6 C7 1_555 1_555
C7 H5 1_555 1_555
C8 C7 1_555 1_555
H6 C8 1_555 1_555
C9 C8 1_555 1_555
H7 C9 1_555 1_555
C10 C9 1_555 1_555
H8 C10 1_555 1_555
C11 C12 1_555 1_555
C12 H9 1_555 1_555
C13 C12 1_555 1_555
H10 C13 1_555 1_555
Cd1 Cl1 1_555 1_555
Cl1 Cd1E 1_555 1_555
Cl2 Cd1 1_555 1_555
N1 C1 1_555 1_555
N2 C5 1_555 1_555
N3 C6 1_555 1_555
N4 C11 1_555 1_555
O1 H11 1_555 1_555
C1B H1B 1_555 1_555
C2B C1B 1_555 1_555
H2B C2B 1_555 1_555
C3B C2B 1_555 1_555
H3B C3B 1_555 1_555
C4B C3B 1_555 1_555
H4B C4B 1_555 1_555
C5B C4B 1_555 1_555
C6B C7B 1_555 1_555
C7B H5B 1_555 1_555
C8B C7B 1_555 1_555
H6B C8B 1_555 1_555
C9B C8B 1_555 1_555
H7B C9B 1_555 1_555
C10B C9B 1_555 1_555
H8B C10B 1_555 1_555
C11B N4 1_555 1_555
C12B C13 1_555 1_555
H9B C12B 1_555 1_555
Cd1E Cl1E 1_555 1_555
Cd1B N1B 1_555 1_555
Cl1E Cd1 1_555 1_555
Cl2E Cd1E 1_555 1_555
N1B C1B 1_555 1_555
N1E Cd1E 1_555 1_555
N2B C5B 1_555 1_555
N3B C6B 1_555 1_555
N3E Cd1E 1_555 1_555
H11B O1 1_555 1_555
C5 N1 1_555 1_555
C6 N2 1_555 1_555
C10 N3 1_555 1_555
C11 N2 1_555 1_555
Cd1 N1 1_555 1_555
Cd1 N3 1_555 1_555
C5B N1B 1_555 1_555
C6B N2B 1_555 1_555
C10B N3B 1_555 1_555
C11B C12B 1_555 1_555
C11B N2B 1_555 1_555
Cd1B N3B 1_555 1_555

#END
