
#######################################################################
#
#                 Cambridge Crystallographic Data Centre
#                                CCDC 
#
#######################################################################
#
# If this CIF has been generated from an entry in the Cambridge 
# Structural Database, then it will include bibliographic, chemical, 
# crystal, experimental, refinement or atomic coordinate data resulting 
# from the CCDC's data processing and validation procedures.
#
#######################################################################

data_NEPHIZ
_symmetry_cell_setting           monoclinic
_symmetry_space_group_name_H-M   'P 21/c'
_symmetry_Int_Tables_number      14
_space_group_name_Hall           '-P 2ybc'
loop_
_symmetry_equiv_pos_site_id
_symmetry_equiv_pos_as_xyz
1 x,y,z
2 x,1/2-y,1/2+z
3 -x,-y,-z
4 -x,1/2+y,1/2-z
_cell_length_a                   11.0925(2)
_cell_length_b                   8.4883(2)
_cell_length_c                   17.6297(4)
_cell_angle_alpha                90
_cell_angle_beta                 99.0826(6)
_cell_angle_gamma                90
_cell_volume                     1639.14
loop_
_atom_site_label
_atom_site_type_symbol
_atom_site_fract_x
_atom_site_fract_y
_atom_site_fract_z
Ag1 Ag 0.54526(4) 0.36264(5) 0.05441(3)
N1 N 0.6783(5) 0.4923(6) 0.1287(3)
N2 N 1.4098(4) 0.2904(6) 0.4957(3)
C1 C 0.6620(6) 0.5120(8) 0.2021(4)
H1 H 0.5874 0.4784 0.2168
C2 C 0.7495(6) 0.5793(8) 0.2569(4)
H2 H 0.7340 0.5924 0.3080
C3 C 0.8605(6) 0.6280(6) 0.2373(3)
C4 C 0.8770(5) 0.6079(6) 0.1616(3)
H3 H 0.9509 0.6407 0.1457
C5 C 0.7856(6) 0.5401(6) 0.1093(3)
H4 H 0.7988 0.5267 0.0578
C6 C 0.9605(6) 0.6944(7) 0.2966(3)
H5 H 0.9236 0.7562 0.3347
H6 H 1.0119 0.7664 0.2712
C7 C 1.0409(5) 0.5633(6) 0.3383(3)
H7 H 0.9911 0.4961 0.3673
H8 H 1.0731 0.4964 0.3001
C8 C 1.1475(6) 0.6346(7) 0.3937(4)
H9 H 1.1900 0.7126 0.3656
H10 H 1.1146 0.6912 0.4351
C9 C 1.2391(5) 0.5129(7) 0.4296(3)
C10 C 1.4201(6) 0.3598(7) 0.4291(4)
H11 H 1.4872 0.3325 0.4043
C11 C 1.3372(6) 0.4698(7) 0.3948(4)
H12 H 1.3477 0.5158 0.3471
C12 C 1.2287(6) 0.4387(8) 0.4978(4)
H13 H 1.1627 0.4650 0.5238
C13 C 1.3128(7) 0.3268(8) 0.5290(4)
H14 H 1.3015 0.2746 0.5751
N2A N 0.4098(4) 0.2096(6) -0.0043(3)
Ag1A Ag 1.54526(4) 0.13736(5) 0.55441(3)
P1 P 0.73497(16) 0.3818(2) -0.13891(10)
F1 F 0.6505(7) 0.5286(9) -0.1571(6)
F2 F 0.6301(5) 0.2816(10) -0.1831(4)
F3 F 0.8388(5) 0.4903(7) -0.0929(3)
F4 F 0.8209(9) 0.2399(8) -0.1150(5)
F5 F 0.7917(6) 0.3908(14) -0.2102(4)
F6 F 0.6804(7) 0.3720(12) -0.0634(4)
loop_
_geom_bond_atom_site_label_1
_geom_bond_atom_site_label_2
_geom_bond_site_symmetry_1
_geom_bond_site_symmetry_2
Ag1 N1 1_555 1_555
N1 C1 1_555 1_555
N2 C10 1_555 1_555
C1 H1 1_555 1_555
C2 C1 1_555 1_555
H2 C2 1_555 1_555
C3 C2 1_555 1_555
C4 C3 1_555 1_555
H3 C4 1_555 1_555
C5 N1 1_555 1_555
H4 C5 1_555 1_555
C6 C3 1_555 1_555
H5 C6 1_555 1_555
H6 C6 1_555 1_555
C7 C6 1_555 1_555
H7 C7 1_555 1_555
H8 C7 1_555 1_555
C8 C7 1_555 1_555
H9 C8 1_555 1_555
H10 C8 1_555 1_555
C9 C8 1_555 1_555
C10 H11 1_555 1_555
C11 C9 1_555 1_555
H12 C11 1_555 1_555
C12 C9 1_555 1_555
H13 C12 1_555 1_555
C13 N2 1_555 1_555
H14 C13 1_555 1_555
P1 F1 1_555 1_555
F2 P1 1_555 1_555
F3 P1 1_555 1_555
F4 P1 1_555 1_555
F5 P1 1_555 1_555
F6 P1 1_555 1_555
N2A Ag1 1_555 1_555
Ag1A N2 1_555 1_555
C4 C5 1_555 1_555
C10 C11 1_555 1_555
C12 C13 1_555 1_555

#END
