
#######################################################################
#
#                 Cambridge Crystallographic Data Centre
#                                CCDC 
#
#######################################################################
#
# If this CIF has been generated from an entry in the Cambridge 
# Structural Database, then it will include bibliographic, chemical, 
# crystal, experimental, refinement or atomic coordinate data resulting 
# from the CCDC's data processing and validation procedures.
#
#######################################################################

data_NEPHEV01
_symmetry_cell_setting           orthorhombic
_symmetry_space_group_name_H-M   'C m c a'
_symmetry_Int_Tables_number      64
_space_group_name_Hall           '-C 2ac 2'
loop_
_symmetry_equiv_pos_site_id
_symmetry_equiv_pos_as_xyz
1 x,y,z
2 -x,1/2-y,1/2+z
3 -x,1/2+y,1/2-z
4 x,-y,-z
5 1/2+x,1/2+y,z
6 1/2-x,-y,1/2+z
7 1/2-x,y,1/2-z
8 1/2+x,1/2-y,-z
9 -x,-y,-z
10 x,1/2+y,1/2-z
11 x,1/2-y,1/2+z
12 -x,y,z
13 1/2-x,1/2-y,-z
14 1/2+x,y,1/2-z
15 1/2+x,-y,1/2+z
16 1/2-x,1/2+y,z
_cell_length_a                   7.1013(8)
_cell_length_b                   15.0391(9)
_cell_length_c                   27.3815(18)
_cell_angle_alpha                90
_cell_angle_beta                 90
_cell_angle_gamma                90
_cell_volume                     2924.27
loop_
_atom_site_label
_atom_site_type_symbol
_atom_site_fract_x
_atom_site_fract_y
_atom_site_fract_z
Ag1 Ag 0.5000 0.22127(3) 0.395143(18)
C1 C 0.3418(6) 0.1440(2) 0.48858(15)
H1 H 0.2286 0.1582 0.4734
C2 C 0.3359(6) 0.1017(2) 0.53381(15)
H2 H 0.2205 0.0887 0.5482
C3 C 0.5000 0.0793(4) 0.5572(2)
C4 C 0.5000 0.0315(3) 0.6058(3)
H3 H 0.610(9) -0.002(4) 0.608(3)
C5 C 0.5000 0.1010(4) 0.6482(2)
H4 H 0.374(10) 0.135(4) 0.646(2)
C6 C 0.5000 0.0485(4) 0.6962(2)
H5 H 0.609(9) 0.019(4) 0.695(3)
C7 C 0.5000 0.1057(3) 0.7416(2)
C8 C 0.5000 0.0671(3) 0.7872(2)
H6 H 0.5000 0.0054 0.7895
C9 C 0.5000 0.1163(4) 0.8290(2)
H7 H 0.5000 0.0872 0.8590
C10 C 0.5000 0.2450(3) 0.7845(2)
H8 H 0.5000 0.3068 0.7832
C11 C 0.5000 0.1996(3) 0.7410(2)
H9 H 0.5000 0.2302 0.7115
N1 N 0.5000 0.1647(3) 0.46632(18)
N2 N 0.5000 0.2071(3) 0.82812(16)
C1K C 0.6582(6) 0.1440(2) 0.48858(15)
H1K H 0.7714 0.1582 0.4734
C2K C 0.6641(6) 0.1017(2) 0.53381(15)
H2K H 0.7795 0.0887 0.5482
H3K H 0.390(9) -0.002(4) 0.608(3)
H4K H 0.626(10) 0.135(4) 0.646(2)
H5K H 0.391(9) 0.019(4) 0.695(3)
Ag1A Ag 0.5000 0.27873(3) 0.895143(18)
N2A N 0.5000 0.2929(3) 0.32812(16)
Cl1 Cl 0.5000 0.12972(9) 0.12342(6)
O1 O 0.6610(5) 0.13072(17) 0.15305(11)
O2 O 0.5000 0.0517(2) 0.09364(15)
O3 O 0.5000 0.20625(19) 0.09271(13)
O1K O 0.3390(5) 0.13072(17) 0.15305(11)
loop_
_geom_bond_atom_site_label_1
_geom_bond_atom_site_label_2
_geom_bond_site_symmetry_1
_geom_bond_site_symmetry_2
Ag1 N1 1_555 1_555
C1 H1 1_555 1_555
C2 C1 1_555 1_555
H2 C2 1_555 1_555
C3 C2 1_555 1_555
C4 C3 1_555 1_555
H3 C4 1_555 1_555
C5 C4 1_555 1_555
H4 C5 1_555 1_555
C6 C5 1_555 1_555
H5 C6 1_555 1_555
C7 C6 1_555 1_555
C8 C7 1_555 1_555
H6 C8 1_555 1_555
C9 C8 1_555 1_555
H7 C9 1_555 1_555
C10 H8 1_555 1_555
C11 C7 1_555 1_555
H9 C11 1_555 1_555
N1 C1 1_555 1_555
N2 C9 1_555 1_555
Cl1 O1 1_555 1_555
O2 Cl1 1_555 1_555
O3 Cl1 1_555 1_555
C1K N1 1_555 1_555
H1K C1K 1_555 1_555
C2K C3 1_555 1_555
H2K C2K 1_555 1_555
H3K C4 1_555 1_555
H4K C5 1_555 1_555
H5K C6 1_555 1_555
Ag1A N2 1_555 1_555
N2A Ag1 1_555 1_555
O1K Cl1 1_555 1_555
C10 C11 1_555 1_555
C10 N2 1_555 1_555
C1K C2K 1_555 1_555

#END
