
#######################################################################
#
#                 Cambridge Crystallographic Data Centre
#                                CCDC 
#
#######################################################################
#
# If this CIF has been generated from an entry in the Cambridge 
# Structural Database, then it will include bibliographic, chemical, 
# crystal, experimental, refinement or atomic coordinate data resulting 
# from the CCDC's data processing and validation procedures.
#
#######################################################################

data_NEPHEV
_symmetry_cell_setting           monoclinic
_symmetry_space_group_name_H-M   'P 21/n'
_symmetry_Int_Tables_number      14
_space_group_name_Hall           '-P 2yn'
loop_
_symmetry_equiv_pos_site_id
_symmetry_equiv_pos_as_xyz
1 x,y,z
2 1/2-x,1/2+y,1/2-z
3 -x,-y,-z
4 1/2+x,1/2-y,1/2+z
_cell_length_a                   16.8826(2)
_cell_length_b                   8.6694(2)
_cell_length_c                   19.9505(2)
_cell_angle_alpha                90
_cell_angle_beta                 93.545(2)
_cell_angle_gamma                90
_cell_volume                     2914.41
loop_
_atom_site_label
_atom_site_type_symbol
_atom_site_fract_x
_atom_site_fract_y
_atom_site_fract_z
Ag1 Ag 0.07272(3) 0.37965(6) 0.00698(2)
N1 N 0.1435(3) 0.5211(6) 0.0754(2)
N2 N 0.5115(3) 0.2912(6) 0.4460(2)
C1 C 0.1220(3) 0.5475(7) 0.1380(3)
H1 H 0.0703 0.5177 0.1493
C2 C 0.1718(3) 0.6161(7) 0.1863(3)
H2 H 0.1541 0.6324 0.2301
C3 C 0.2475(3) 0.6618(7) 0.1720(3)
C4 C 0.2680(3) 0.6400(7) 0.1067(3)
H3 H 0.3183 0.6737 0.0936
C5 C 0.2157(3) 0.5693(7) 0.0604(3)
H4 H 0.2315 0.5543 0.0160
C6 C 0.5441(3) 0.3470(7) 0.3909(3)
H5 H 0.5930 0.3047 0.3784
C7 C 0.5095(3) 0.4628(8) 0.3522(3)
H6 H 0.5349 0.4993 0.3141
C8 C 0.4379(3) 0.5268(7) 0.3681(3)
C9 C 0.4038(3) 0.4673(7) 0.4238(3)
H7 H 0.3538 0.5049 0.4361
C10 C 0.4424(3) 0.3534(7) 0.4615(3)
H8 H 0.4187 0.3172 0.5006
C11 C 0.3986(3) 0.6526(7) 0.3260(3)
H9 H 0.3698 0.7221 0.3555
H10 H 0.4400 0.7141 0.3053
C12 C 0.3402(3) 0.5910(7) 0.2705(3)
H11 H 0.2966 0.5353 0.2911
H12 H 0.3679 0.5170 0.2423
C13 C 0.3054(3) 0.7215(7) 0.2265(3)
H13 H 0.3490 0.7768 0.2057
H14 H 0.2781 0.7959 0.2548
N2C N 0.0115(3) 0.2088(6) -0.0540(2)
Ag1C Ag 0.57272(3) 0.12035(6) 0.50698(2)
Ag2 Ag 0.53162(3) 0.25707(6) -0.01473(2)
N3 N 0.4717(3) 0.4207(6) -0.0787(2)
N4 N 0.0971(3) 0.4001(6) -0.4522(2)
C14 C 0.0620(3) 0.4749(7) -0.4025(3)
H15 H 0.0068 0.4608 -0.3980
C15 C 0.1035(3) 0.5701(7) -0.3585(3)
H16 H 0.0769 0.6190 -0.3237
C16 C 0.1832(3) 0.5964(7) -0.3638(3)
C17 C 0.2188(3) 0.5201(8) -0.4153(3)
H17 H 0.2739 0.5336 -0.4209
C18 C 0.1745(4) 0.4252(8) -0.4580(3)
H18 H 0.1999 0.3752 -0.4932
C19 C 0.5077(3) 0.5018(7) -0.1253(3)
H19 H 0.5636 0.4924 -0.1276
C20 C 0.4665(3) 0.5987(7) -0.1703(3)
H20 H 0.4939 0.6544 -0.2027
C21 C 0.3853(3) 0.6141(7) -0.1678(3)
C22 C 0.3491(3) 0.5331(7) -0.1176(3)
H21 H 0.2936 0.5429 -0.1130
C23 C 0.3936(3) 0.4394(7) -0.0749(3)
H22 H 0.3678 0.3851 -0.0411
C24 C 0.3357(3) 0.7075(7) -0.2184(3)
H23 H 0.3711 0.7707 -0.2451
H24 H 0.3012 0.7784 -0.1945
C25 C 0.2841(3) 0.6040(7) -0.2658(3)
H25 H 0.3188 0.5365 -0.2913
H26 H 0.2507 0.5370 -0.2389
C26 C 0.2307(3) 0.6981(7) -0.3151(3)
H27 H 0.1941 0.7615 -0.2898
H28 H 0.2639 0.7689 -0.3404
N4C N 0.5971(3) 0.0999(6) 0.0478(2)
Ag2C Ag 0.03162(3) 0.24293(6) -0.51473(2)
Cl1 Cl 0.10968(9) 0.6120(2) -0.13617(7)
O1 O 0.0789(5) 0.5785(16) -0.1996(3)
O2 O 0.0449(2) 0.6411(6) -0.0960(2)
O3 O 0.1609(4) 0.7342(8) -0.1360(6)
O4 O 0.1536(3) 0.4819(6) -0.1118(3)
Cl2 Cl 0.66552(9) 0.82325(19) -0.09841(7)
O5 O 0.6046(2) 0.7826(6) -0.0546(2)
O6 O 0.6541(4) 0.9807(6) -0.1184(3)
O7 O 0.7405(3) 0.8054(7) -0.0636(3)
O8 O 0.6602(3) 0.7252(6) -0.1562(2)
loop_
_geom_bond_atom_site_label_1
_geom_bond_atom_site_label_2
_geom_bond_site_symmetry_1
_geom_bond_site_symmetry_2
Ag1 N1 1_555 1_555
N1 C1 1_555 1_555
N2 C6 1_555 1_555
C1 H1 1_555 1_555
C2 C1 1_555 1_555
H2 C2 1_555 1_555
C3 C2 1_555 1_555
C4 C3 1_555 1_555
H3 C4 1_555 1_555
C5 N1 1_555 1_555
H4 C5 1_555 1_555
C6 H5 1_555 1_555
C7 C6 1_555 1_555
H6 C7 1_555 1_555
C8 C7 1_555 1_555
C9 C8 1_555 1_555
H7 C9 1_555 1_555
C10 N2 1_555 1_555
H8 C10 1_555 1_555
C11 C8 1_555 1_555
H9 C11 1_555 1_555
H10 C11 1_555 1_555
C12 C11 1_555 1_555
H11 C12 1_555 1_555
H12 C12 1_555 1_555
C13 C3 1_555 1_555
H13 C13 1_555 1_555
H14 C13 1_555 1_555
Ag2 N3 1_555 1_555
N3 C19 1_555 1_555
N4 C14 1_555 1_555
C14 H15 1_555 1_555
C15 C14 1_555 1_555
H16 C15 1_555 1_555
C16 C15 1_555 1_555
C17 C16 1_555 1_555
H17 C17 1_555 1_555
C18 N4 1_555 1_555
H18 C18 1_555 1_555
C19 H19 1_555 1_555
C20 C19 1_555 1_555
H20 C20 1_555 1_555
C21 C20 1_555 1_555
C22 C21 1_555 1_555
H21 C22 1_555 1_555
C23 N3 1_555 1_555
H22 C23 1_555 1_555
C24 C21 1_555 1_555
H23 C24 1_555 1_555
H24 C24 1_555 1_555
C25 C24 1_555 1_555
H25 C25 1_555 1_555
H26 C25 1_555 1_555
C26 C16 1_555 1_555
H27 C26 1_555 1_555
H28 C26 1_555 1_555
Cl1 O1 1_555 1_555
O2 Cl1 1_555 1_555
O3 Cl1 1_555 1_555
O4 Cl1 1_555 1_555
Cl2 O5 1_555 1_555
O6 Cl2 1_555 1_555
O7 Cl2 1_555 1_555
O8 Cl2 1_555 1_555
N2C Ag1 1_555 1_555
Ag1C N2 1_555 1_555
N4C Ag2 1_555 1_555
Ag2C N4 1_555 1_555
C4 C5 1_555 1_555
C9 C10 1_555 1_555
C12 C13 1_555 1_555
C17 C18 1_555 1_555
C22 C23 1_555 1_555
C25 C26 1_555 1_555

#END
