
#######################################################################
#
#                 Cambridge Crystallographic Data Centre
#                                CCDC 
#
#######################################################################
#
# If this CIF has been generated from an entry in the Cambridge 
# Structural Database, then it will include bibliographic, chemical, 
# crystal, experimental, refinement or atomic coordinate data resulting 
# from the CCDC's data processing and validation procedures.
#
#######################################################################

data_NEPJAU
_symmetry_cell_setting           triclinic
_symmetry_space_group_name_H-M   'P -1'
_symmetry_Int_Tables_number      2
_space_group_name_Hall           '-P 1'
loop_
_symmetry_equiv_pos_site_id
_symmetry_equiv_pos_as_xyz
1 x,y,z
2 -x,-y,-z
_cell_length_a                   10.6525(9)
_cell_length_b                   11.9329(10)
_cell_length_c                   17.2054(15)
_cell_angle_alpha                96.0140(10)
_cell_angle_beta                 97.8620(10)
_cell_angle_gamma                103.5960(10)
_cell_volume                     2084.4
loop_
_atom_site_label
_atom_site_type_symbol
_atom_site_fract_x
_atom_site_fract_y
_atom_site_fract_z
Br1 Br 0.25435(5) 0.55490(5) 0.14794(3)
Br2 Br 0.25125(5) 1.01775(5) -0.02105(3)
Br3 Br 0.40619(6) 0.16808(5) 0.39018(3)
Br4 Br -0.17095(6) 0.56791(5) 0.35679(3)
N1 N -0.5928(4) 0.2925(4) 0.1087(3)
C1 C -0.5067(6) 0.3516(6) 0.0597(4)
C2 C -0.4181(6) 0.2773(7) 0.0334(3)
N2 N -0.3361(4) 0.2524(4) 0.1016(2)
C3 C -0.2211(5) 0.3471(4) 0.1347(3)
C4 C -0.1257(5) 0.3071(4) 0.1922(3)
N3 N -0.0113(4) 0.3979(4) 0.2344(2)
N4 N 0.5880(4) 0.6841(4) 0.2357(2)
C5 C 0.6920(6) 0.7450(5) 0.1958(3)
C6 C 0.7465(5) 0.6670(4) 0.1441(3)
N5 N 0.8449(4) 0.7328(4) 0.1027(2)
C7 C 0.8784(6) 0.6526(6) 0.0431(4)
C8 C 0.9826(7) 0.7152(6) 0.0032(4)
N6 N 1.1031(5) 0.7657(4) 0.0603(3)
N7 N 0.0300(5) 0.3814(4) 0.4270(3)
C9 C -0.0401(12) 0.2663(8) 0.4290(6)
C10 C 0.0135(9) 0.1778(7) 0.4096(5)
N8 N 0.0814(4) 0.1833(4) 0.3408(3)
C11 C 0.0251(5) 0.0902(4) 0.2738(4)
C12 C 0.1048(5) 0.1028(4) 0.2085(3)
N9 N 0.0551(5) 0.0055(4) 0.1447(3)
N10 N 0.3108(4) 0.4267(4) 0.3240(3)
C13 C 0.3973(5) 0.5093(5) 0.3903(4)
C14 C 0.3416(5) 0.6072(5) 0.4156(3)
N11 N 0.3285(4) 0.6841(3) 0.3542(2)
C15 C 0.2580(6) 0.7705(5) 0.3787(3)
C16 C 0.2083(6) 0.8288(5) 0.3111(4)
N12 N 0.0971(4) 0.7553(4) 0.2545(3)
N13 N 0.6650(4) 0.7850(4) 0.4196(2)
C17 C 0.7410(5) 0.9043(5) 0.4217(3)
C18 C 0.6495(5) 0.9840(4) 0.4142(3)
N14 N 0.5579(4) 0.9515(3) 0.3378(3)
C19 C 0.6142(6) 1.0016(4) 0.2721(4)
C20 C 0.5184(8) 0.9735(5) 0.1946(4)
N15 N 0.4489(7) 1.0525(5) 0.1825(4)
Li1 Li 0.1137(8) 0.3607(7) 0.3262(5)
Li2 Li 0.5149(8) 0.7666(7) 0.3261(5)
Li3 Li 0.0340(9) -0.1703(8) 0.1565(5)
Li4 Li -0.4662(9) 0.2263(8) 0.1824(5)
O1 O -0.3959(5) 0.3130(4) 0.2864(2)
H1 H -0.65991 0.23414 0.07931
H2 H -0.62811 0.34386 0.13757
H3 H -0.45434 0.42307 0.08913
H4 H -0.55795 0.36694 0.01432
H5 H -0.36322 0.31791 0.00080
H6 H -0.47052 0.20601 0.00394
H7 H -0.30773 0.18663 0.08894
H8 H -0.24834 0.40844 0.16176
H9 H -0.17863 0.37456 0.09274
H10 H -0.09449 0.25002 0.16329
H11 H -0.17206 0.27292 0.23075
H12 H 0.03887 0.42284 0.19698
H13 H -0.04265 0.45815 0.25520
H14 H 0.51711 0.65117 0.19636
H15 H 0.61859 0.62598 0.25699
H16 H 0.76157 0.79054 0.23534
H17 H 0.65722 0.79456 0.16406
H18 H 0.67701 0.61847 0.10579
H19 H 0.78626 0.62019 0.17582
H20 H 0.80595 0.78529 0.07966
H21 H 0.80267 0.61706 0.00465
H22 H 0.90819 0.59432 0.06834
H23 H 0.95425 0.77545 -0.02035
H24 H 0.99952 0.66207 -0.03675
H25 H 1.15826 0.82503 0.04157
H26 H 1.14697 0.71069 0.07272
H27 H -0.02538 0.42995 0.42189
H28 H 0.09267 0.40989 0.47145
H29 H -0.12046 0.25303 0.39449
H30 H -0.05534 0.26253 0.48208
H31 H -0.05557 0.10836 0.39864
H32 H 0.07451 0.17332 0.45396
H33 H 0.16151 0.17250 0.36142
H34 H -0.06148 0.09367 0.25414
H35 H 0.02276 0.01696 0.29142
H36 H 0.19298 0.10537 0.22919
H37 H 0.10146 0.17316 0.18811
H38 H 0.10947 0.02016 0.10769
H39 H -0.02727 0.01114 0.12404
H40 H 0.31648 0.46531 0.27749
H41 H 0.34827 0.36108 0.31586
H42 H 0.47878 0.54011 0.37422
H43 H 0.41092 0.46870 0.43407
H44 H 0.39730 0.65266 0.46157
H45 H 0.25733 0.57598 0.42796
H46 H 0.27662 0.63983 0.30892
H47 H 0.31592 0.82880 0.41776
H48 H 0.18542 0.73245 0.40084
H49 H 0.27816 0.85397 0.28307
H50 H 0.18226 0.89445 0.33320
H51 H 0.02742 0.73479 0.28103
H52 H 0.12016 0.68890 0.23579
H53 H 0.71432 0.73262 0.41040
H54 H 0.63310 0.77498 0.46619
H55 H 0.78890 0.90804 0.37895
H56 H 0.80004 0.92830 0.47045
H57 H 0.69998 1.06196 0.41734
H58 H 0.60044 0.97862 0.45648
H59 H 0.48113 0.97349 0.34092
H60 H 0.68741 0.97168 0.26439
H61 H 0.64228 1.08383 0.28591
H62 H 0.45806 0.90054 0.19472
H63 H 0.56570 0.96772 0.15239
H64 H 0.39660 1.04922 0.22081
H65 H 0.39725 1.02615 0.13335
H66 H -0.33387 0.38368 0.29521
H67 H -0.43350 0.30478 0.33212
N5_2 N -0.1551(4) -0.2672(4) 0.1027(2)
N6_2 N 0.1031(5) -0.2343(4) 0.0603(3)
N12_2 N 0.0971(4) -0.2447(4) 0.2545(3)
N15_2 N -0.5511(7) 0.0525(5) 0.1825(4)
Li3_2 Li 1.0340(9) 0.8297(8) 0.1565(5)
Li3_3 Li 0.0340(9) 0.8297(8) 0.1565(5)
Li4_2 Li 0.5338(9) 1.2263(8) 0.1824(5)
H20_2 H -0.19405 -0.21471 0.07966
H25_2 H 0.15826 -0.17497 0.04157
H26_2 H 0.14697 -0.28931 0.07272
H51_2 H 0.02742 -0.26521 0.28103
H52_2 H 0.12016 -0.31110 0.23579
H64_2 H -0.60340 0.04922 0.22081
H65_2 H -0.60275 0.02615 0.13335
loop_
_geom_bond_atom_site_label_1
_geom_bond_atom_site_label_2
_geom_bond_site_symmetry_1
_geom_bond_site_symmetry_2
N1 C1 1_555 1_555
C1 C2 1_555 1_555
C2 N2 1_555 1_555
N2 C3 1_555 1_555
C3 C4 1_555 1_555
C4 N3 1_555 1_555
N3 Li1 1_555 1_555
N4 C5 1_555 1_555
C5 C6 1_555 1_555
C6 N5 1_555 1_555
N5 C7 1_555 1_555
C7 C8 1_555 1_555
C8 N6 1_555 1_555
N6 H25 1_555 1_555
N7 C9 1_555 1_555
C9 C10 1_555 1_555
C10 N8 1_555 1_555
N8 C11 1_555 1_555
C11 C12 1_555 1_555
C12 N9 1_555 1_555
N9 Li3 1_555 1_555
N10 C13 1_555 1_555
C13 C14 1_555 1_555
C14 N11 1_555 1_555
N11 C15 1_555 1_555
C15 C16 1_555 1_555
C16 N12 1_555 1_555
N12 H51 1_555 1_555
N13 C17 1_555 1_555
C17 C18 1_555 1_555
C18 N14 1_555 1_555
N14 C19 1_555 1_555
C19 C20 1_555 1_555
C20 N15 1_555 1_555
N15 H64 1_555 1_555
Li1 N7 1_555 1_555
Li2 N4 1_555 1_555
Li3 N5_2 1_555 1_555
Li4 N1 1_555 1_555
O1 Li4 1_555 1_555
H1 N1 1_555 1_555
H2 N1 1_555 1_555
H3 C1 1_555 1_555
H4 C1 1_555 1_555
H5 C2 1_555 1_555
H6 C2 1_555 1_555
H7 N2 1_555 1_555
H8 C3 1_555 1_555
H9 C3 1_555 1_555
H10 C4 1_555 1_555
H11 C4 1_555 1_555
H12 N3 1_555 1_555
H13 N3 1_555 1_555
H14 N4 1_555 1_555
H15 N4 1_555 1_555
H16 C5 1_555 1_555
H17 C5 1_555 1_555
H18 C6 1_555 1_555
H19 C6 1_555 1_555
H20 N5 1_555 1_555
H21 C7 1_555 1_555
H22 C7 1_555 1_555
H23 C8 1_555 1_555
H24 C8 1_555 1_555
H26 N6 1_555 1_555
H27 N7 1_555 1_555
H28 N7 1_555 1_555
H29 C9 1_555 1_555
H30 C9 1_555 1_555
H31 C10 1_555 1_555
H32 C10 1_555 1_555
H33 N8 1_555 1_555
H34 C11 1_555 1_555
H35 C11 1_555 1_555
H36 C12 1_555 1_555
H37 C12 1_555 1_555
H38 N9 1_555 1_555
H39 N9 1_555 1_555
H40 N10 1_555 1_555
H41 N10 1_555 1_555
H42 C13 1_555 1_555
H43 C13 1_555 1_555
H44 C14 1_555 1_555
H45 C14 1_555 1_555
H46 N11 1_555 1_555
H47 C15 1_555 1_555
H48 C15 1_555 1_555
H49 C16 1_555 1_555
H50 C16 1_555 1_555
H52 N12 1_555 1_555
H53 N13 1_555 1_555
H54 N13 1_555 1_555
H55 C17 1_555 1_555
H56 C17 1_555 1_555
H57 C18 1_555 1_555
H58 C18 1_555 1_555
H59 N14 1_555 1_555
H60 C19 1_555 1_555
H61 C19 1_555 1_555
H62 C20 1_555 1_555
H63 C20 1_555 1_555
H65 N15 1_555 1_555
H66 O1 1_555 1_555
H67 O1 1_555 1_555
N5_2 H20_2 1_555 1_555
N6_2 Li3 1_555 1_555
N12_2 Li3 1_555 1_555
N15_2 Li4 1_555 1_555
Li3_2 N5 1_555 1_555
Li3_3 N12 1_555 1_555
Li4_2 N15 1_555 1_555
H25_2 N6_2 1_555 1_555
H26_2 N6_2 1_555 1_555
H51_2 N12_2 1_555 1_555
H52_2 N12_2 1_555 1_555
H64_2 N15_2 1_555 1_555
H65_2 N15_2 1_555 1_555
N2 Li4 1_555 1_555
N6 Li3_2 1_555 1_555
N8 Li1 1_555 1_555
N10 Li1 1_555 1_555
N11 Li2 1_555 1_555
N13 Li2 1_555 1_555
N14 Li2 1_555 1_555

#END
