
#######################################################################
#
#                 Cambridge Crystallographic Data Centre
#                                CCDC 
#
#######################################################################
#
# If this CIF has been generated from an entry in the Cambridge 
# Structural Database, then it will include bibliographic, chemical, 
# crystal, experimental, refinement or atomic coordinate data resulting 
# from the CCDC's data processing and validation procedures.
#
#######################################################################

data_NEPKUP
_symmetry_cell_setting           triclinic
_symmetry_space_group_name_H-M   'P -1'
_symmetry_Int_Tables_number      2
_space_group_name_Hall           '-P 1'
loop_
_symmetry_equiv_pos_site_id
_symmetry_equiv_pos_as_xyz
1 x,y,z
2 -x,-y,-z
_cell_length_a                   7.061(3)
_cell_length_b                   11.138(4)
_cell_length_c                   12.887(5)
_cell_angle_alpha                110.810(5)
_cell_angle_beta                 90.422(6)
_cell_angle_gamma                101.183(6)
_cell_volume                     926.178
loop_
_atom_site_label
_atom_site_type_symbol
_atom_site_fract_x
_atom_site_fract_y
_atom_site_fract_z
Cu1 Cu 0.5000 1.0000 0.5000
Cu2 Cu -0.11363(12) 0.77550(8) 0.64284(7)
O1 O -0.3960(7) 0.3976(5) 0.5414(4)
O2 O -0.2816(7) 0.6087(4) 0.6472(4)
O3 O 0.2588(7) 0.8796(5) 0.4314(4)
O5 O -0.1264(9) 0.8670(5) 0.7974(4)
O6 O 0.1537(10) 0.8186(6) 0.8247(5)
N1 N -0.0993(7) 0.6601(5) 0.4947(4)
N2 N 0.0895(8) 0.8965(5) 0.5882(4)
N3 N 0.3507(8) 1.0853(5) 0.6282(5)
C1 C -0.3043(9) 0.5104(6) 0.5566(6)
C2 C -0.2033(9) 0.5371(6) 0.4624(5)
C3 C -0.2026(10) 0.4538(6) 0.3555(6)
H1 H -0.2784 0.3692 0.3313
C4 C -0.0901(10) 0.4950(7) 0.2839(6)
H2 H -0.0897 0.4386 0.2107
C5 C 0.0249(10) 0.6224(7) 0.3207(6)
H3 H 0.1050 0.6517 0.2738
C6 C 0.0144(9) 0.7015(6) 0.4281(5)
C7 C 0.1349(9) 0.8382(6) 0.4860(5)
C8 C 0.1793(10) 1.0282(6) 0.6518(6)
C9 C 0.0812(11) 1.0963(7) 0.7391(6)
H4 H -0.0405 1.0566 0.7515
C10 C 0.1659(12) 1.2236(7) 0.8076(7)
H5 H 0.1051 1.2689 0.8687
C11 C 0.3417(12) 1.2818(7) 0.7834(7)
H6 H 0.4022 1.3672 0.8273
C12 C 0.4248(11) 1.2106(7) 0.6931(6)
H7 H 0.5408 1.2517 0.6754
C13 C 0.0158(15) 0.8677(7) 0.8594(7)
C14 C -0.0005(19) 0.9278(5) 0.9810(7)
H8 H 0.1066 0.9152 1.0208
H9 H -0.1197 0.8830 0.9997
Cu2A Cu 1.11363(12) 1.22450(8) 0.35716(7)
Cu2A_2 Cu 0.11363(12) 1.22450(8) 1.35716(7)
O1A O 1.3960(7) 1.6024(5) 0.4586(4)
O2A O 1.2816(7) 1.3913(4) 0.3528(4)
O3A O 0.7412(7) 1.1204(5) 0.5686(4)
O5A O 0.1264(9) 1.1330(5) 1.2026(4)
O5A_2 O 1.1264(9) 1.1330(5) 0.2026(4)
O6A O -0.1537(10) 1.1814(6) 1.1753(5)
N1A N 1.0993(7) 1.3399(5) 0.5053(4)
N2A N 0.9105(8) 1.1035(5) 0.4118(4)
N3A N 0.6493(8) 0.9147(5) 0.3718(5)
C1A C 1.3043(9) 1.4896(6) 0.4434(6)
C2A C 1.2033(9) 1.4629(6) 0.5376(5)
C3A C 1.2026(10) 1.5462(6) 0.6445(6)
H1A H 1.2784 1.6308 0.6687
C4A C 1.0901(10) 1.5050(7) 0.7161(6)
H2A H 1.0897 1.5614 0.7893
C5A C 0.9751(10) 1.3776(7) 0.6793(6)
H3A H 0.8950 1.3483 0.7262
C6A C 0.9856(9) 1.2985(6) 0.5719(5)
C7A C 0.8651(9) 1.1618(6) 0.5140(5)
C8A C 0.8207(10) 0.9718(6) 0.3482(6)
C9A C 0.9188(11) 0.9037(7) 0.2609(6)
H4A H 1.0405 0.9434 0.2485
C10A C 0.8341(12) 0.7764(7) 0.1924(7)
H5A H 0.8949 0.7311 0.1313
C11A C 0.6583(12) 0.7182(7) 0.2166(7)
H6A H 0.5978 0.6328 0.1727
C12A C 0.5752(11) 0.7894(7) 0.3069(6)
H7A H 0.4592 0.7483 0.3246
C13A C -0.0158(15) 1.1323(7) 1.1406(7)
C14A C 0.0005(19) 1.0722(5) 1.0190(7)
H8A H -0.1066 1.0848 0.9792
H9A H 0.1197 1.1170 1.0003
O4 O 0.5978(7) 0.8469(5) 0.5980(4)
O7 O 0.6538(12) 0.6016(7) 0.8650(7)
O8 O 0.5222(11) 0.9733(8) 0.8244(6)
O9 O 0.3992(12) 0.7647(8) 0.9873(7)
O10 O 0.1800(12) 0.5579(9) 0.0527(7)
loop_
_geom_bond_atom_site_label_1
_geom_bond_atom_site_label_2
_geom_bond_site_symmetry_1
_geom_bond_site_symmetry_2
Cu1 O3 1_555 1_555
Cu2 O2 1_555 1_555
O1 C1 1_555 1_555
O2 C1 1_555 1_555
O3 C7 1_555 1_555
O5 Cu2 1_555 1_555
O6 C13 1_555 1_555
N1 Cu2 1_555 1_555
N2 Cu2 1_555 1_555
N3 Cu1 1_555 1_555
C1 C2 1_555 1_555
C2 N1 1_555 1_555
C3 C2 1_555 1_555
H1 C3 1_555 1_555
C4 C3 1_555 1_555
H2 C4 1_555 1_555
C5 C4 1_555 1_555
H3 C5 1_555 1_555
C6 N1 1_555 1_555
C7 N2 1_555 1_555
C8 N2 1_555 1_555
C9 C8 1_555 1_555
H4 C9 1_555 1_555
C10 C9 1_555 1_555
H5 C10 1_555 1_555
C11 C10 1_555 1_555
H6 C11 1_555 1_555
C12 N3 1_555 1_555
H7 C12 1_555 1_555
C13 O5 1_555 1_555
C14 C13 1_555 1_555
H8 C14 1_555 1_555
H9 C14 1_555 1_555
Cu2A O2A 1_555 1_555
Cu2A_2 O5A 1_555 1_555
O1A C1A 1_555 1_555
O2A C1A 1_555 1_555
O3A Cu1 1_555 1_555
O5A C13A 1_555 1_555
O5A_2 Cu2A 1_555 1_555
O6A C13A 1_555 1_555
N1A Cu2A 1_555 1_555
N2A Cu2A 1_555 1_555
N3A Cu1 1_555 1_555
C1A C2A 1_555 1_555
C2A N1A 1_555 1_555
C3A C2A 1_555 1_555
H1A C3A 1_555 1_555
C4A C3A 1_555 1_555
H2A C4A 1_555 1_555
C5A C4A 1_555 1_555
H3A C5A 1_555 1_555
C6A N1A 1_555 1_555
C7A O3A 1_555 1_555
C8A N2A 1_555 1_555
C9A C8A 1_555 1_555
H4A C9A 1_555 1_555
C10A C9A 1_555 1_555
H5A C10A 1_555 1_555
C11A C10A 1_555 1_555
H6A C11A 1_555 1_555
C12A N3A 1_555 1_555
H7A C12A 1_555 1_555
C13A C14A 1_555 1_555
C14A C14 1_555 1_555
H8A C14A 1_555 1_555
H9A C14A 1_555 1_555
N3 C8 1_555 1_555
C5 C6 1_555 1_555
C6 C7 1_555 1_555
C11 C12 1_555 1_555
N2A C7A 1_555 1_555
N3A C8A 1_555 1_555
C5A C6A 1_555 1_555
C6A C7A 1_555 1_555
C11A C12A 1_555 1_555

#END
