
#######################################################################
#
#                 Cambridge Crystallographic Data Centre
#                                CCDC 
#
#######################################################################
#
# If this CIF has been generated from an entry in the Cambridge 
# Structural Database, then it will include bibliographic, chemical, 
# crystal, experimental, refinement or atomic coordinate data resulting 
# from the CCDC's data processing and validation procedures.
#
#######################################################################

data_NEPKID
_symmetry_cell_setting           monoclinic
_symmetry_space_group_name_H-M   'P 21/c'
_symmetry_Int_Tables_number      14
_space_group_name_Hall           '-P 2ybc'
loop_
_symmetry_equiv_pos_site_id
_symmetry_equiv_pos_as_xyz
1 x,y,z
2 -x,1/2+y,1/2-z
3 -x,-y,-z
4 x,1/2-y,1/2+z
_cell_length_a                   9.0223(2)
_cell_length_b                   17.9202(5)
_cell_length_c                   12.3827(2)
_cell_angle_alpha                90
_cell_angle_beta                 95.9450(10)
_cell_angle_gamma                90
_cell_volume                     1991.29
loop_
_atom_site_label
_atom_site_type_symbol
_atom_site_fract_x
_atom_site_fract_y
_atom_site_fract_z
Cd1 Cd 0.40105(3) 0.005185(14) 0.35171(2)
C1 C 0.6386(4) 0.10106(19) 0.4040(3)
O1 O 0.5682(3) 0.06514(17) 0.4715(2)
O2 O 0.6062(4) 0.0925(2) 0.3056(2)
N1 N 0.5253(3) -0.09882(17) 0.2890(2)
C2 C 0.9074(4) 0.15972(19) 0.4005(3)
C3 C 0.3772(4) -0.0806(2) 0.0000(3)
C4 C 0.4969(4) -0.11494(19) 0.1812(3)
C5 C 0.7561(4) 0.1558(2) 0.4508(3)
H1 H 0.7785 0.1442 0.5290
H2 H 0.7113 0.2062 0.4459
N2 N 0.3404(4) -0.00617(16) 0.1593(3)
C6 C 0.6483(4) -0.2267(2) 0.2051(3)
H3 H 0.6883 -0.2711 0.1776
C7 C 0.4022(4) -0.0660(2) 0.1124(3)
C8 C 0.5573(4) -0.1792(2) 0.1359(3)
C9 C 0.2212(5) 0.0275(3) -0.0160(4)
H4 H 0.1576 0.0611 -0.0582
C10 C 1.0096(4) 0.2116(2) 0.4742(3)
H5 H 1.0124 0.1939 0.5501
H6 H 1.1121 0.2085 0.4527
C11 C 0.4422(5) -0.1460(2) -0.0433(3)
H7 H 0.4255 -0.1561 -0.1189
C12 C 0.5262(5) -0.1928(2) 0.0219(3)
H8 H 0.5661 -0.2361 -0.0085
C13 C 0.6782(5) -0.2081(2) 0.3122(4)
H9 H 0.7417 -0.2387 0.3595
C14 C 0.9678(4) 0.0794(2) 0.4031(4)
H10 H 0.9616 0.0602 0.4775
H11 H 0.8975 0.0494 0.3541
C15 C 0.8931(4) 0.1908(2) 0.2846(3)
H12 H 0.8206 0.1601 0.2384
H13 H 0.9907 0.1867 0.2552
C16 C 0.2525(5) 0.0379(2) 0.0965(3)
H14 H 0.2075 0.0789 0.1291
C17 C 0.8422(5) 0.2726(3) 0.2790(4)
H15 H 0.8419 0.2910 0.2035
H16 H 0.7392 0.2761 0.2993
C18 C 0.2836(5) -0.0313(3) -0.0630(3)
H17 H 0.2639 -0.0392 -0.1390
C19 C 0.9599(5) 0.2929(3) 0.4692(5)
H18 H 0.8629 0.2974 0.4994
H19 H 1.0335 0.3236 0.5144
C20 C 0.6143(4) -0.1434(2) 0.3516(3)
H20 H 0.6358 -0.1311 0.4262
C21 C 0.9448(6) 0.3220(2) 0.3551(5)
H21 H 1.0445 0.3241 0.3285
H22 H 0.9042 0.3733 0.3543
O3 O 1.1541(4) -0.00661(15) 0.3681(3)
O4 O 1.2204(3) 0.10937(18) 0.3594(4)
C22 C 1.1247(4) 0.0616(2) 0.3738(3)
Cd1B Cd 0.59895(3) -0.005185(14) 0.64829(2)
Cd1_2 Cd 1.40105(3) 0.005185(14) 0.35171(2)
O1B O 0.4318(3) -0.06514(17) 0.5285(2)
O3_2 O 0.1541(4) -0.00661(15) 0.3681(3)
O4_2 O 0.2204(3) 0.10937(18) 0.3594(4)
loop_
_geom_bond_atom_site_label_1
_geom_bond_atom_site_label_2
_geom_bond_site_symmetry_1
_geom_bond_site_symmetry_2
Cd1 O1 1_555 1_555
C1 O1 1_555 1_555
O1 Cd1B 1_555 1_555
O2 Cd1 1_555 1_555
N1 Cd1 1_555 1_555
C2 C5 1_555 1_555
C3 C7 1_555 1_555
C4 N1 1_555 1_555
C5 C1 1_555 1_555
H1 C5 1_555 1_555
H2 C5 1_555 1_555
N2 Cd1 1_555 1_555
C6 H3 1_555 1_555
C7 C4 1_555 1_555
C8 C4 1_555 1_555
C9 H4 1_555 1_555
C10 C2 1_555 1_555
H5 C10 1_555 1_555
H6 C10 1_555 1_555
C11 C3 1_555 1_555
H7 C11 1_555 1_555
C12 C8 1_555 1_555
H8 C12 1_555 1_555
C13 C6 1_555 1_555
H9 C13 1_555 1_555
C14 C2 1_555 1_555
H10 C14 1_555 1_555
H11 C14 1_555 1_555
C15 C2 1_555 1_555
H12 C15 1_555 1_555
H13 C15 1_555 1_555
C16 N2 1_555 1_555
H14 C16 1_555 1_555
C17 C15 1_555 1_555
H15 C17 1_555 1_555
H16 C17 1_555 1_555
C18 C3 1_555 1_555
H17 C18 1_555 1_555
C19 C10 1_555 1_555
H18 C19 1_555 1_555
H19 C19 1_555 1_555
C20 N1 1_555 1_555
H20 C20 1_555 1_555
C21 C17 1_555 1_555
H21 C21 1_555 1_555
H22 C21 1_555 1_555
O3 C22 1_555 1_555
O4 C22 1_555 1_555
C22 C14 1_555 1_555
Cd1B O1B 1_555 1_555
Cd1_2 O3 1_555 1_555
O1B Cd1 1_555 1_555
O3_2 Cd1 1_555 1_555
O4_2 Cd1 1_555 1_555
C1 O2 1_555 1_555
N2 C7 1_555 1_555
C6 C8 1_555 1_555
C9 C16 1_555 1_555
C9 C18 1_555 1_555
C11 C12 1_555 1_555
C13 C20 1_555 1_555
C19 C21 1_555 1_555
O4 Cd1_2 1_555 1_555

#END
