
#######################################################################
#
#                 Cambridge Crystallographic Data Centre
#                                CCDC 
#
#######################################################################
#
# If this CIF has been generated from an entry in the Cambridge 
# Structural Database, then it will include bibliographic, chemical, 
# crystal, experimental, refinement or atomic coordinate data resulting 
# from the CCDC's data processing and validation procedures.
#
#######################################################################

data_NEPKOJ
_symmetry_cell_setting           monoclinic
_symmetry_space_group_name_H-M   'C 2/c'
_symmetry_Int_Tables_number      15
_space_group_name_Hall           '-C 2yn'
loop_
_symmetry_equiv_pos_site_id
_symmetry_equiv_pos_as_xyz
1 x,y,z
2 1/2+x,1/2+y,z
3 -x,y,1/2-z
4 1/2-x,1/2+y,1/2-z
5 -x,-y,-z
6 1/2-x,1/2-y,-z
7 x,-y,1/2+z
8 1/2+x,1/2-y,1/2+z
_cell_length_a                   24.032(3)
_cell_length_b                   21.5373(18)
_cell_length_c                   8.1631(8)
_cell_angle_alpha                90
_cell_angle_beta                 99.285(5)
_cell_angle_gamma                90
_cell_volume                     4169.74
loop_
_atom_site_label
_atom_site_type_symbol
_atom_site_fract_x
_atom_site_fract_y
_atom_site_fract_z
Cd1 Cd 0.399897(16) 0.175084(17) 0.93988(5)
O1 O 0.43424(17) 0.18733(18) 1.2490(5)
N1 N 0.39450(17) 0.0655(2) 0.9281(5)
O2 O 0.4045(2) 0.26527(19) 1.0864(5)
N2 N 0.31660(19) 0.1398(2) 1.0367(5)
C1 C 0.3439(2) -0.0263(3) 0.9895(7)
C2 C 0.4283(3) -0.0350(3) 0.8734(8)
H1 H 0.4562 -0.0594 0.8332
C3 C 0.4323(2) 0.0296(3) 0.8742(7)
H2 H 0.4633 0.0485 0.8345
C4 C 0.3503(2) 0.0381(2) 0.9840(6)
C5 C 0.2621(2) 0.0503(3) 1.0978(7)
C6 C 0.4397(2) 0.2897(3) 1.3682(7)
H3 H 0.4620 0.3242 1.3312
H4 H 0.4640 0.2681 1.4602
C7 C 0.3847(3) -0.0629(3) 0.9300(7)
H5 H 0.3817 -0.1069 0.9296
C8 C 0.3669(3) 0.2283(3) 1.6368(7)
O3 O 0.4160(2) 0.2081(3) 1.6758(6)
O4 O 0.3317(2) 0.2195(3) 1.7286(6)
C9 C 0.2583(3) -0.0151(3) 1.1070(8)
H6 H 0.2280 -0.0333 1.1514
C10 C 0.2233(3) 0.0908(4) 1.1513(8)
H7 H 0.1913 0.0745 1.1914
C11 C 0.3489(2) 0.2652(3) 1.4781(7)
H8 H 0.3118 0.2842 1.4845
H9 H 0.3432 0.2355 1.3843
C12 C 0.2311(3) 0.1538(4) 1.1466(8)
H10 H 0.2047 0.1815 1.1824
C13 C 0.2971(3) -0.0521(3) 1.0537(8)
H11 H 0.2932 -0.0959 1.0590
O5 O 0.49693(17) 0.15624(19) 0.9644(6)
H12 H 0.5109 0.1529 1.0652
C14 C 0.2782(3) 0.1759(3) 1.0884(8)
H13 H 0.2835 0.2196 1.0853
C15 C 0.3888(2) 0.3175(3) 1.4354(6)
C16 C 0.3090(2) 0.0777(2) 1.0411(6)
C17 C 0.4096(3) 0.3573(3) 1.5885(7)
H14 H 0.3767 0.3701 1.6395
H15 H 0.4344 0.3318 1.6707
C18 C 0.3535(3) 0.3592(3) 1.3052(7)
H16 H 0.3426 0.3350 1.2020
H17 H 0.3185 0.3712 1.3464
C19 C 0.4252(2) 0.2448(3) 1.2265(7)
C20 C 0.3840(3) 0.4182(3) 1.2642(9)
H18 H 0.3577 0.4443 1.1876
H19 H 0.4159 0.4067 1.2073
C21 C 0.4414(3) 0.4145(4) 1.5508(9)
H20 H 0.4763 0.4019 1.5100
H21 H 0.4523 0.4387 1.6541
C22 C 0.4062(4) 0.4554(3) 1.4211(10)
H22 H 0.4296 0.4903 1.3921
H23 H 0.3741 0.4729 1.4677
H24 H 0.517(3) 0.169(3) 0.910(8)
Cd1_2 Cd 0.399897(16) 0.175084(17) 1.93988(5)
O3_2 O 0.4160(2) 0.2081(3) 0.6758(6)
O4_2 O 0.3317(2) 0.2195(3) 0.7286(6)
loop_
_geom_bond_atom_site_label_1
_geom_bond_atom_site_label_2
_geom_bond_site_symmetry_1
_geom_bond_site_symmetry_2
Cd1 O1 1_555 1_555
O1 C19 1_555 1_555
N1 Cd1 1_555 1_555
O2 Cd1 1_555 1_555
N2 Cd1 1_555 1_555
C1 C4 1_555 1_555
C2 H1 1_555 1_555
C3 N1 1_555 1_555
H2 C3 1_555 1_555
C4 N1 1_555 1_555
C5 C9 1_555 1_555
C6 H3 1_555 1_555
H4 C6 1_555 1_555
C7 C1 1_555 1_555
H5 C7 1_555 1_555
C8 O3 1_555 1_555
O3 Cd1_2 1_555 1_555
O4 C8 1_555 1_555
C9 H6 1_555 1_555
C10 C5 1_555 1_555
H7 C10 1_555 1_555
C11 C8 1_555 1_555
H8 C11 1_555 1_555
H9 C11 1_555 1_555
C12 C10 1_555 1_555
H10 C12 1_555 1_555
C13 C1 1_555 1_555
H11 C13 1_555 1_555
O5 Cd1 1_555 1_555
H12 O5 1_555 1_555
C14 N2 1_555 1_555
H13 C14 1_555 1_555
C15 C6 1_555 1_555
C16 N2 1_555 1_555
C17 C15 1_555 1_555
H14 C17 1_555 1_555
H15 C17 1_555 1_555
C18 C15 1_555 1_555
H16 C18 1_555 1_555
H17 C18 1_555 1_555
C19 O2 1_555 1_555
C20 C18 1_555 1_555
H18 C20 1_555 1_555
H19 C20 1_555 1_555
C21 C17 1_555 1_555
H20 C21 1_555 1_555
H21 C21 1_555 1_555
C22 C20 1_555 1_555
H22 C22 1_555 1_555
H23 C22 1_555 1_555
H24 O5 1_555 1_555
Cd1_2 O4 1_555 1_555
O3_2 Cd1 1_555 1_555
O4_2 Cd1 1_555 1_555
C2 C3 1_555 1_555
C2 C7 1_555 1_555
C4 C16 1_555 1_555
C5 C16 1_555 1_555
C6 C19 1_555 1_555
C9 C13 1_555 1_555
C11 C15 1_555 1_555
C12 C14 1_555 1_555
C21 C22 1_555 1_555

#END
