
#######################################################################
#
#                 Cambridge Crystallographic Data Centre
#                                CCDC 
#
#######################################################################
#
# If this CIF has been generated from an entry in the Cambridge 
# Structural Database, then it will include bibliographic, chemical, 
# crystal, experimental, refinement or atomic coordinate data resulting 
# from the CCDC's data processing and validation procedures.
#
#######################################################################

data_NEPLOK
_symmetry_cell_setting           monoclinic
_symmetry_space_group_name_H-M   'C 2/c'
_symmetry_Int_Tables_number      15
_space_group_name_Hall           '-C 2yn'
loop_
_symmetry_equiv_pos_site_id
_symmetry_equiv_pos_as_xyz
1 x,y,z
2 1/2+x,1/2+y,z
3 -x,y,1/2-z
4 1/2-x,1/2+y,1/2-z
5 -x,-y,-z
6 1/2-x,1/2-y,-z
7 x,-y,1/2+z
8 1/2+x,1/2-y,1/2+z
_cell_length_a                   39.542(13)
_cell_length_b                   5.0760(18)
_cell_length_c                   15.341(5)
_cell_angle_alpha                90
_cell_angle_beta                 111.260(6)
_cell_angle_gamma                90
_cell_volume                     2869.62
loop_
_atom_site_label
_atom_site_type_symbol
_atom_site_fract_x
_atom_site_fract_y
_atom_site_fract_z
Cd1 Cd 0.2500 0.7500 0.5000
N1 N 0.20918(7) 0.7098(6) 0.5666(2)
N2 N 0.15707(7) 0.7054(5) 0.58674(19)
N3 N 0.04299(7) 0.7546(6) 0.5156(2)
N4 N 0.29353(8) 1.2631(7) 0.61008(19)
C1 C 0.17447(9) 0.7717(7) 0.5287(2)
H1 H 0.1636 0.8498 0.4703
C2 C 0.21424(10) 0.6050(8) 0.6529(3)
H2 H 0.2363 0.5456 0.6956
C3 C 0.18241(9) 0.6015(8) 0.6663(2)
H3 H 0.1784 0.5408 0.7189
C4 C 0.11843(8) 0.7222(7) 0.5639(2)
C5 C 0.10432(9) 0.8997(7) 0.6113(2)
C6 C 0.12570(10) 1.0713(7) 0.6839(2)
H4 H 0.1509 1.0647 0.7044
C7 C 0.10923(11) 1.2443(8) 0.7231(2)
H5 H 0.1234 1.3547 0.7707
C8 C 0.07101(10) 1.2602(8) 0.6931(3)
H6 H 0.0604 1.3835 0.7200
C9 C 0.04971(10) 1.0973(7) 0.6253(3)
H7 H 0.0246 1.1081 0.6068
C10 C 0.06546(9) 0.9098(7) 0.5823(2)
C11 C 0.05749(9) 0.5820(7) 0.4730(2)
C12 C 0.03371(10) 0.4126(8) 0.4039(3)
H8 H 0.0088 0.4232 0.3901
C13 C 0.04683(11) 0.2369(8) 0.3584(3)
H9 H 0.0309 0.1289 0.3130
C14 C 0.08456(11) 0.2151(8) 0.3789(3)
H10 H 0.0931 0.0922 0.3469
C15 C 0.10835(10) 0.3701(8) 0.4442(2)
H11 H 0.1331 0.3534 0.4565
C16 C 0.09587(9) 0.5588(6) 0.4943(2)
O1 O 0.26506(9) 1.1423(7) 0.5948(3)
O2 O 0.32205(9) 1.1461(8) 0.6221(2)
O3 O 0.29421(8) 1.5081(6) 0.6194(2)
Cd1_2 Cd 0.2500 1.7500 0.5000
Cd1_3 Cd 0.2500 -0.2500 0.5000
N1E N 0.29082(7) 0.7902(6) 0.4334(2)
N2E N 0.34293(7) 0.7946(5) 0.41326(19)
N3E N 0.45701(7) 0.7454(6) 0.4844(2)
N4E N 0.20647(8) 0.2369(7) 0.38992(19)
C1E C 0.32553(9) 0.7283(7) 0.4713(2)
H1E H 0.3364 0.6502 0.5297
C2E C 0.28576(10) 0.8950(8) 0.3471(3)
H2E H 0.2637 0.9544 0.3044
C3E C 0.31759(9) 0.8985(8) 0.3337(2)
H3E H 0.3216 0.9592 0.2811
C4E C 0.38157(8) 0.7778(7) 0.4361(2)
C5E C 0.39568(9) 0.6003(7) 0.3887(2)
C6E C 0.37430(10) 0.4287(7) 0.3161(2)
H4E H 0.3491 0.4353 0.2956
C7E C 0.39077(11) 0.2557(8) 0.2769(2)
H5E H 0.3766 0.1453 0.2293
C8E C 0.42899(10) 0.2398(8) 0.3069(3)
H6E H 0.4396 0.1165 0.2800
C9E C 0.45029(10) 0.4027(7) 0.3747(3)
H7E H 0.4754 0.3919 0.3932
C10E C 0.43454(9) 0.5902(7) 0.4177(2)
C11E C 0.44251(9) 0.9180(7) 0.5270(2)
C12E C 0.46629(10) 1.0874(8) 0.5961(3)
H8E H 0.4912 1.0768 0.6099
C13E C 0.45317(11) 1.2631(8) 0.6416(3)
H9E H 0.4691 1.3711 0.6870
C14E C 0.41544(11) 1.2849(8) 0.6211(3)
H10E H 0.4069 1.4078 0.6531
C15E C 0.39165(10) 1.1299(8) 0.5558(2)
H11E H 0.3669 1.1466 0.5435
C16E C 0.40413(9) 0.9412(6) 0.5057(2)
O1E O 0.23494(9) 0.3577(7) 0.4052(3)
O2E O 0.17795(9) 0.3539(8) 0.3779(2)
O3E O 0.20579(8) -0.0081(6) 0.3806(2)
O3_2 O 0.29421(8) 0.5081(6) 0.6194(2)
O3E_2 O 0.20579(8) 0.9919(6) 0.3806(2)
loop_
_geom_bond_atom_site_label_1
_geom_bond_atom_site_label_2
_geom_bond_site_symmetry_1
_geom_bond_site_symmetry_2
Cd1 N1 1_555 1_555
N1 C1 1_555 1_555
N2 C1 1_555 1_555
N3 C10 1_555 1_555
N4 O1 1_555 1_555
C1 H1 1_555 1_555
C2 N1 1_555 1_555
H2 C2 1_555 1_555
C3 N2 1_555 1_555
H3 C3 1_555 1_555
C4 N2 1_555 1_555
C5 C4 1_555 1_555
C6 C5 1_555 1_555
H4 C6 1_555 1_555
C7 C6 1_555 1_555
H5 C7 1_555 1_555
C8 C7 1_555 1_555
H6 C8 1_555 1_555
C9 C8 1_555 1_555
H7 C9 1_555 1_555
C10 C5 1_555 1_555
C11 N3 1_555 1_555
C12 C11 1_555 1_555
H8 C12 1_555 1_555
C13 C12 1_555 1_555
H9 C13 1_555 1_555
C14 C13 1_555 1_555
H10 C14 1_555 1_555
C15 C14 1_555 1_555
H11 C15 1_555 1_555
C16 C4 1_555 1_555
O1 Cd1 1_555 1_555
O2 N4 1_555 1_555
O3 N4 1_555 1_555
Cd1_2 O3 1_555 1_555
Cd1_3 O3E 1_555 1_555
N1E Cd1 1_555 1_555
N2E C1E 1_555 1_555
N3E C10E 1_555 1_555
N4E O1E 1_555 1_555
C1E N1E 1_555 1_555
H1E C1E 1_555 1_555
C2E N1E 1_555 1_555
H2E C2E 1_555 1_555
C3E N2E 1_555 1_555
H3E C3E 1_555 1_555
C4E N2E 1_555 1_555
C5E C4E 1_555 1_555
C6E C5E 1_555 1_555
H4E C6E 1_555 1_555
C7E C6E 1_555 1_555
H5E C7E 1_555 1_555
C8E C7E 1_555 1_555
H6E C8E 1_555 1_555
C9E C8E 1_555 1_555
H7E C9E 1_555 1_555
C10E C5E 1_555 1_555
C11E N3E 1_555 1_555
C12E C11E 1_555 1_555
H8E C12E 1_555 1_555
C13E C12E 1_555 1_555
H9E C13E 1_555 1_555
C14E C13E 1_555 1_555
H10E C14E 1_555 1_555
C15E C14E 1_555 1_555
H11E C15E 1_555 1_555
C16E C4E 1_555 1_555
O1E Cd1 1_555 1_555
O2E N4E 1_555 1_555
O3E N4E 1_555 1_555
O3_2 Cd1 1_555 1_555
O3E_2 Cd1 1_555 1_555
C2 C3 1_555 1_555
C9 C10 1_555 1_555
C11 C16 1_555 1_555
C15 C16 1_555 1_555
C2E C3E 1_555 1_555
C9E C10E 1_555 1_555
C11E C16E 1_555 1_555
C15E C16E 1_555 1_555

#END
