
#######################################################################
#
#                 Cambridge Crystallographic Data Centre
#                                CCDC 
#
#######################################################################
#
# If this CIF has been generated from an entry in the Cambridge 
# Structural Database, then it will include bibliographic, chemical, 
# crystal, experimental, refinement or atomic coordinate data resulting 
# from the CCDC's data processing and validation procedures.
#
#######################################################################

data_NEPLEA
_symmetry_cell_setting           orthorhombic
_symmetry_space_group_name_H-M   'C m c m'
_symmetry_Int_Tables_number      63
_space_group_name_Hall           '-C 2n 2'
loop_
_symmetry_equiv_pos_site_id
_symmetry_equiv_pos_as_xyz
1 x,y,z
2 1/2+x,1/2+y,z
3 -x,-y,1/2+z
4 -x,y,1/2-z
5 x,-y,-z
6 1/2-x,1/2-y,1/2+z
7 1/2-x,1/2+y,1/2-z
8 1/2+x,1/2-y,-z
9 -x,-y,-z
10 1/2-x,1/2-y,-z
11 x,y,1/2-z
12 x,-y,1/2+z
13 -x,y,z
14 1/2+x,1/2+y,1/2-z
15 1/2+x,1/2-y,1/2+z
16 1/2-x,1/2+y,z
_cell_length_a                   16.797(5)
_cell_length_b                   20.728(6)
_cell_length_c                   15.626(5)
_cell_angle_alpha                90
_cell_angle_beta                 90
_cell_angle_gamma                90
_cell_volume                     5440.48
loop_
_atom_site_label
_atom_site_type_symbol
_atom_site_fract_x
_atom_site_fract_y
_atom_site_fract_z
N6 N 0.0000 0.4934(10) 0.2500
N7 N 0.0000 0.6036(14) 0.2069(16)
N8 N 0.0000 0.7051(18) 0.2500
C11 C 0.0000 0.5465(14) 0.2500
C12 C 0.0000 0.6564(13) 0.2500
N7J N 0.0000 0.6036(14) 0.2931(16)
Cl1 Cl 0.0000 0.1970(3) 0.2500
O1 O 0.0000 0.1253(7) 0.2500
O2 O -0.0821(9) 0.2182(10) 0.2500
O3 O 0.0408(11) 0.2186(10) 0.1730(6)
O2L O 0.0821(9) 0.2182(10) 0.2500
O3J O 0.0408(11) 0.2186(10) 0.3270(6)
O3L O -0.0408(11) 0.2186(10) 0.1730(6)
O3C O -0.0408(11) 0.2186(10) 0.3270(6)
O4 O 0.5000 0.5031(17) 0.2500
H10 H 0.5000 0.4795(17) 0.20552(6)
H10J H 0.5000 0.4795(17) 0.29448(6)
O5 O 0.5000 0.4620(13) 0.0794(19)
H12 H 0.4743 0.4866 0.0459
H12L H 0.5257 0.4866 0.0459
O6 O -0.1483(7) 0.7710(6) 0.2500
H13 H -0.103(5) 0.752(8) 0.2500
C13 C -0.1389(12) 0.8392(9) 0.2500
H14 H -0.1119 0.8547 0.1998
H15 H -0.1928 0.8546 0.2500
H14J H -0.1119 0.8547 0.3002
Co1 Co 0.2500 0.2500 0.0000
N1 N 0.3689(4) 0.2770(4) 0.0234(5)
N2 N 0.5000 0.3216(7) 0.0521(10)
N3 N 0.2113(4) 0.3340(3) 0.0660(4)
N4 N 0.2002(4) 0.4348(3) 0.1089(4)
N5 N 0.2611(5) 0.7012(4) 0.1285(5)
H1 H 0.222(4) 0.721(4) 0.161(5)
H2 H 0.310(3) 0.706(5) 0.156(5)
C1 C 0.4321(5) 0.2940(5) 0.0347(6)
C2 C 0.2459(5) 0.3903(4) 0.0698(5)
H3 H 0.2963 0.3988 0.0480
C3 C 0.1391(6) 0.3422(5) 0.1059(6)
H4 H 0.1012 0.3101 0.1138
C4 C 0.1317(6) 0.4035(5) 0.1317(6)
H5 H 0.0882 0.4214 0.1599
C5 C 0.2168(6) 0.5019(4) 0.1184(5)
C6 C 0.1551(6) 0.5458(5) 0.1127(6)
H6 H 0.1033 0.5312 0.1041
C7 C 0.1698(6) 0.6112(4) 0.1196(6)
H7 H 0.1279 0.6404 0.1170
C8 C 0.2463(5) 0.6331(4) 0.1303(5)
C9 C 0.3080(6) 0.5893(5) 0.1365(6)
H8 H 0.3598 0.6040 0.1447
C10 C 0.2935(6) 0.5241(5) 0.1306(6)
H9 H 0.3354 0.4949 0.1349
Co1L Co 0.7500 0.2500 0.0000
Co1O Co 0.2500 0.7500 0.0000
Co1L_2 Co -0.2500 0.2500 0.0000
Co1O_2 Co 0.2500 -0.2500 0.0000
N1L N 0.6311(4) 0.2770(4) 0.0234(5)
N1I N 0.1311(4) 0.2230(4) -0.0234(5)
N1G N -0.1311(4) 0.2230(4) -0.0234(5)
N1G_2 N 0.8689(4) 0.2230(4) -0.0234(5)
N2I N 0.0000 0.1784(7) -0.0521(10)
N3I N 0.2887(4) 0.1660(3) -0.0660(4)
N3O N 0.2887(4) -0.1660(3) 0.0660(4)
N3D N 0.2113(4) 0.6660(3) -0.0660(4)
N3L N 0.7887(4) 0.3340(3) 0.0660(4)
N3G N 0.7113(4) 0.1660(3) -0.0660(4)
N4I N 0.2998(4) 0.0652(3) -0.1089(4)
N4O N 0.2998(4) -0.0652(3) 0.1089(4)
N4D N 0.2002(4) 0.5652(3) -0.1089(4)
N5I N 0.2389(5) -0.2012(4) -0.1285(5)
N5O N 0.2389(5) 0.2012(4) 0.1285(5)
N5D N 0.2611(5) 0.2988(4) -0.1285(5)
N5A N 0.7611(5) 0.2012(4) 0.1285(5)
N5H N 0.7389(5) 0.2988(4) -0.1285(5)
H1I H 0.278(4) -0.221(4) -0.161(5)
H1O H 0.278(4) 0.221(4) 0.161(5)
H1D H 0.222(4) 0.279(4) -0.161(5)
H1A H 0.722(4) 0.221(4) 0.161(5)
H1H H 0.778(4) 0.279(4) -0.161(5)
H2I H 0.190(3) -0.206(5) -0.156(5)
H2O H 0.190(3) 0.206(5) 0.156(5)
H2D H 0.310(3) 0.294(5) -0.156(5)
H2A H 0.810(3) 0.206(5) 0.156(5)
H2H H 0.690(3) 0.294(5) -0.156(5)
C1L C 0.5679(5) 0.2940(5) 0.0347(6)
C1I C 0.0679(5) 0.2060(5) -0.0347(6)
C1G C -0.0679(5) 0.2060(5) -0.0347(6)
C2I C 0.2541(5) 0.1097(4) -0.0698(5)
C2O C 0.2541(5) -0.1097(4) 0.0698(5)
C2D C 0.2459(5) 0.6097(4) -0.0698(5)
H3I H 0.2037 0.1012 -0.0480
H3O H 0.2037 -0.1012 0.0480
H3D H 0.2963 0.6012 -0.0480
C3I C 0.3609(6) 0.1578(5) -0.1059(6)
C3O C 0.3609(6) -0.1578(5) 0.1059(6)
C3D C 0.1391(6) 0.6578(5) -0.1059(6)
H4I H 0.3988 0.1899 -0.1138
H4O H 0.3988 -0.1899 0.1138
H4D H 0.1012 0.6899 -0.1138
C4I C 0.3683(6) 0.0965(5) -0.1317(6)
C4O C 0.3683(6) -0.0965(5) 0.1317(6)
C4D C 0.1317(6) 0.5965(5) -0.1317(6)
H5I H 0.4118 0.0786 -0.1599
H5O H 0.4118 -0.0786 0.1599
H5D H 0.0882 0.5786 -0.1599
C5I C 0.2832(6) -0.0019(4) -0.1184(5)
C5O C 0.2832(6) 0.0019(4) 0.1184(5)
C5D C 0.2168(6) 0.4981(4) -0.1184(5)
C6I C 0.3449(6) -0.0458(5) -0.1127(6)
C6O C 0.3449(6) 0.0458(5) 0.1127(6)
C6D C 0.1551(6) 0.4542(5) -0.1127(6)
H6I H 0.3967 -0.0312 -0.1041
H6O H 0.3967 0.0312 0.1041
H6D H 0.1033 0.4688 -0.1041
C7I C 0.3302(6) -0.1112(4) -0.1196(6)
C7O C 0.3302(6) 0.1112(4) 0.1196(6)
C7D C 0.1698(6) 0.3888(4) -0.1196(6)
H7I H 0.3721 -0.1404 -0.1170
H7O H 0.3721 0.1404 0.1170
H7D H 0.1279 0.3596 -0.1170
C8I C 0.2537(5) -0.1331(4) -0.1303(5)
C8O C 0.2537(5) 0.1331(4) 0.1303(5)
C8D C 0.2463(5) 0.3669(4) -0.1303(5)
C9I C 0.1920(6) -0.0893(5) -0.1365(6)
C9O C 0.1920(6) 0.0893(5) 0.1365(6)
C9D C 0.3080(6) 0.4107(5) -0.1365(6)
H8I H 0.1402 -0.1040 -0.1447
H8O H 0.1402 0.1040 0.1447
H8D H 0.3598 0.3960 -0.1447
C10I C 0.2065(6) -0.0241(5) -0.1306(6)
C10O C 0.2065(6) 0.0241(5) 0.1306(6)
C10D C 0.2935(6) 0.4759(5) -0.1306(6)
H9I H 0.1646 0.0051 -0.1349
H9O H 0.1646 -0.0051 0.1349
H9D H 0.3354 0.5051 -0.1349
H11? H 0.5000 0.4214 0.0716
loop_
_geom_bond_atom_site_label_1
_geom_bond_atom_site_label_2
_geom_bond_site_symmetry_1
_geom_bond_site_symmetry_2
Co1 N1 1_555 1_555
N1 C1 1_555 1_555
N2 C1 1_555 1_555
N3 Co1 1_555 1_555
N4 C2 1_555 1_555
N5 H1 1_555 1_555
H2 N5 1_555 1_555
C2 N3 1_555 1_555
H3 C2 1_555 1_555
C3 N3 1_555 1_555
H4 C3 1_555 1_555
C4 N4 1_555 1_555
H5 C4 1_555 1_555
C5 N4 1_555 1_555
C6 C5 1_555 1_555
H6 C6 1_555 1_555
C7 C6 1_555 1_555
H7 C7 1_555 1_555
C8 N5 1_555 1_555
C9 C8 1_555 1_555
H8 C9 1_555 1_555
C10 C5 1_555 1_555
H9 C10 1_555 1_555
N6 C11 1_555 1_555
N7 C11 1_555 1_555
N8 C12 1_555 1_555
C11 N7J 1_555 1_555
C12 N7 1_555 1_555
Cl1 O1 1_555 1_555
O2 Cl1 1_555 1_555
O3 Cl1 1_555 1_555
O4 H10 1_555 1_555
O5 H12 1_555 1_555
O6 H13 1_555 1_555
C13 O6 1_555 1_555
H14 C13 1_555 1_555
H15 C13 1_555 1_555
Co1L N1L 1_555 1_555
Co1O N5 1_555 1_555
Co1L_2 N1G 1_555 1_555
Co1O_2 N3O 1_555 1_555
N1L C1L 1_555 1_555
N1I Co1 1_555 1_555
N1G C1G 1_555 1_555
N1G_2 Co1L 1_555 1_555
N2I C1I 1_555 1_555
N3I Co1 1_555 1_555
N3O C2O 1_555 1_555
N3D Co1O 1_555 1_555
N3L Co1L 1_555 1_555
N3G Co1L 1_555 1_555
N4I C2I 1_555 1_555
N4O C2O 1_555 1_555
N4D C2D 1_555 1_555
N5I Co1O_2 1_555 1_555
N5O Co1 1_555 1_555
N5D Co1 1_555 1_555
N5A Co1L 1_555 1_555
N5H Co1L 1_555 1_555
H1I N5I 1_555 1_555
H1O N5O 1_555 1_555
H1D N5D 1_555 1_555
H1A N5A 1_555 1_555
H1H N5H 1_555 1_555
H2I N5I 1_555 1_555
H2O N5O 1_555 1_555
H2D N5D 1_555 1_555
H2A N5A 1_555 1_555
H2H N5H 1_555 1_555
C1L N2 1_555 1_555
C1I N1I 1_555 1_555
C1G N2I 1_555 1_555
C2I N3I 1_555 1_555
C2O H3O 1_555 1_555
C2D N3D 1_555 1_555
H3I C2I 1_555 1_555
H3D C2D 1_555 1_555
C3I N3I 1_555 1_555
C3O N3O 1_555 1_555
C3D N3D 1_555 1_555
H4I C3I 1_555 1_555
H4O C3O 1_555 1_555
H4D C3D 1_555 1_555
C4I N4I 1_555 1_555
C4O N4O 1_555 1_555
C4D N4D 1_555 1_555
H5I C4I 1_555 1_555
H5O C4O 1_555 1_555
H5D C4D 1_555 1_555
C5I N4I 1_555 1_555
C5O N4O 1_555 1_555
C5D N4D 1_555 1_555
C6I C5I 1_555 1_555
C6O C5O 1_555 1_555
C6D C5D 1_555 1_555
H6I C6I 1_555 1_555
H6O C6O 1_555 1_555
H6D C6D 1_555 1_555
C7I C6I 1_555 1_555
C7O C6O 1_555 1_555
C7D C6D 1_555 1_555
H7I C7I 1_555 1_555
H7O C7O 1_555 1_555
H7D C7D 1_555 1_555
C8I N5I 1_555 1_555
C8O N5O 1_555 1_555
C8D N5D 1_555 1_555
C9I C8I 1_555 1_555
C9O C8O 1_555 1_555
C9D C8D 1_555 1_555
H8I C9I 1_555 1_555
H8O C9O 1_555 1_555
H8D C9D 1_555 1_555
C10I C5I 1_555 1_555
C10O C5O 1_555 1_555
C10D C5D 1_555 1_555
H9I C10I 1_555 1_555
H9O C10O 1_555 1_555
H9D C10D 1_555 1_555
N7J N7 1_555 1_555
O2L Cl1 1_555 1_555
O3J Cl1 1_555 1_555
O3L Cl1 1_555 1_555
O3C Cl1 1_555 1_555
H10J O4 1_555 1_555
H12L O5 1_555 1_555
H14J C13 1_555 1_555
C3 C4 1_555 1_555
C7 C8 1_555 1_555
C9 C10 1_555 1_555
C12 N7J 1_555 1_555
C3I C4I 1_555 1_555
C3O C4O 1_555 1_555
C3D C4D 1_555 1_555
C7I C8I 1_555 1_555
C7O C8O 1_555 1_555
C7D C8D 1_555 1_555
C9I C10I 1_555 1_555
C9O C10O 1_555 1_555
C9D C10D 1_555 1_555

#END
