
#######################################################################
#
#                 Cambridge Crystallographic Data Centre
#                                CCDC 
#
#######################################################################
#
# If this CIF has been generated from an entry in the Cambridge 
# Structural Database, then it will include bibliographic, chemical, 
# crystal, experimental, refinement or atomic coordinate data resulting 
# from the CCDC's data processing and validation procedures.
#
#######################################################################

data_NEPNUR
_symmetry_cell_setting           monoclinic
_symmetry_space_group_name_H-M   'P 21/n'
_symmetry_Int_Tables_number      14
_space_group_name_Hall           '-P 2yn'
loop_
_symmetry_equiv_pos_site_id
_symmetry_equiv_pos_as_xyz
1 x,y,z
2 1/2+x,1/2-y,1/2+z
3 -x,-y,-z
4 1/2-x,1/2+y,1/2-z
_cell_length_a                   11.2361(5)
_cell_length_b                   10.7196(5)
_cell_length_c                   16.0005(7)
_cell_angle_alpha                90
_cell_angle_beta                 100.4040(10)
_cell_angle_gamma                90
_cell_volume                     1895.52
loop_
_atom_site_label
_atom_site_type_symbol
_atom_site_fract_x
_atom_site_fract_y
_atom_site_fract_z
Mn1 Mn 0.39140(5) 0.44293(5) 0.05515(4)
N1 N 0.2273(3) 0.4947(4) -0.0412(2)
C1 C 0.2047(5) 0.4386(5) -0.1180(4)
H1 H 0.2612 0.3822 -0.1316
C2 C 0.1015(5) 0.4614(6) -0.1773(4)
H2 H 0.0886 0.4215 -0.2298
C3 C 0.0200(5) 0.5431(6) -0.1572(4)
H3 H -0.0509 0.5590 -0.1955
C4 C 0.0413(4) 0.6021(5) -0.0811(4)
H4 H -0.0140 0.6600 -0.0678
C5 C 0.1461(4) 0.5760(4) -0.0228(3)
C6 C 0.1754(4) 0.6278(4) 0.0614(3)
C7 C 0.1317(4) 0.7344(5) 0.1021(4)
Br1 Br 0.01475(7) 0.85129(7) 0.05458(5)
C8 C 0.1913(5) 0.7353(5) 0.1813(4)
H5 H 0.1808 0.7931 0.2227
C9 C 0.3490(6) 0.6018(7) 0.2698(4)
H6 H 0.3650 0.6715 0.3078
H7 H 0.4237 0.5720 0.2560
H8 H 0.3112 0.5364 0.2965
N2 N 0.2615(3) 0.5733(4) 0.1198(2)
N3 N 0.2685(4) 0.6408(4) 0.1920(3)
O1 O 0.3301(3) 0.2547(2) 0.05091(19)
O2 O 0.4360(3) 0.1632(3) 0.16604(19)
C10 C 0.3761(3) 0.1616(3) 0.0915(2)
C11 C 0.3615(3) 0.0368(3) 0.0471(2)
C12 C 0.4236(3) -0.0670(3) 0.0848(2)
H9 H 0.4682 -0.0607 0.1395
C13 C 0.4199(3) -0.1803(3) 0.0416(2)
C14 C 0.4933(3) -0.2878(3) 0.0827(2)
O3 O 0.5484(3) -0.2753(3) 0.15615(19)
O4 O 0.4946(2) -0.3888(2) 0.03885(17)
C15 C 0.3493(3) -0.1907(3) -0.0394(2)
H10 H 0.3446 -0.2663 -0.0684
C16 C 0.2858(3) -0.0868(3) -0.0769(2)
C17 C 0.2101(4) -0.0935(4) -0.1637(2)
O5 O 0.2031(3) -0.2049(3) -0.1978(2)
H11 H 0.1325 -0.2201 -0.2189
O6 O 0.1610(4) -0.0036(3) -0.1985(2)
C18 C 0.2937(3) 0.0263(3) -0.0343(2)
H12 H 0.2533 0.0957 -0.0603
O7 O 0.5045(4) 0.3974(4) 0.1718(2)
H13 H 0.566(7) 0.438(7) 0.192(5)
H14 H 0.499(6) 0.330(7) 0.176(4)
O4_2 O 0.4946(2) 0.6112(2) 0.03885(17)
Mn1_2 Mn 0.39140(5) -0.55707(5) 0.05515(4)
Mn1B Mn 0.60860(5) -0.44293(5) -0.05515(4)
O4B O 0.5054(2) 0.3888(2) -0.03885(17)
loop_
_geom_bond_atom_site_label_1
_geom_bond_atom_site_label_2
_geom_bond_site_symmetry_1
_geom_bond_site_symmetry_2
Mn1 N1 1_555 1_555
N1 C1 1_555 1_555
C1 H1 1_555 1_555
C2 C1 1_555 1_555
H2 C2 1_555 1_555
C3 C2 1_555 1_555
H3 C3 1_555 1_555
C4 C3 1_555 1_555
H4 C4 1_555 1_555
C5 N1 1_555 1_555
C6 C5 1_555 1_555
C7 C6 1_555 1_555
Br1 C7 1_555 1_555
C8 C7 1_555 1_555
H5 C8 1_555 1_555
C9 H6 1_555 1_555
H7 C9 1_555 1_555
H8 C9 1_555 1_555
N2 Mn1 1_555 1_555
N3 C8 1_555 1_555
O1 Mn1 1_555 1_555
O2 C10 1_555 1_555
C10 O1 1_555 1_555
C11 C10 1_555 1_555
C12 C11 1_555 1_555
H9 C12 1_555 1_555
C13 C12 1_555 1_555
C14 C13 1_555 1_555
O3 C14 1_555 1_555
O4 C14 1_555 1_555
C15 C13 1_555 1_555
H10 C15 1_555 1_555
C16 C15 1_555 1_555
C17 C16 1_555 1_555
O5 C17 1_555 1_555
H11 O5 1_555 1_555
O6 C17 1_555 1_555
C18 C11 1_555 1_555
H12 C18 1_555 1_555
O7 Mn1 1_555 1_555
H13 O7 1_555 1_555
H14 O7 1_555 1_555
O4_2 Mn1 1_555 1_555
Mn1_2 O4 1_555 1_555
Mn1B O4 1_555 1_555
O4B Mn1 1_555 1_555
C4 C5 1_555 1_555
C6 N2 1_555 1_555
C9 N3 1_555 1_555
N2 N3 1_555 1_555
C16 C18 1_555 1_555

#END
