
#######################################################################
#
#                 Cambridge Crystallographic Data Centre
#                                CCDC 
#
#######################################################################
#
# If this CIF has been generated from an entry in the Cambridge 
# Structural Database, then it will include bibliographic, chemical, 
# crystal, experimental, refinement or atomic coordinate data resulting 
# from the CCDC's data processing and validation procedures.
#
#######################################################################

data_NEPNIG
_symmetry_cell_setting           monoclinic
_symmetry_space_group_name_H-M   'C 2/c'
_symmetry_Int_Tables_number      15
_space_group_name_Hall           '-C 2yn'
loop_
_symmetry_equiv_pos_site_id
_symmetry_equiv_pos_as_xyz
1 x,y,z
2 1/2+x,1/2+y,z
3 -x,y,1/2-z
4 1/2-x,1/2+y,1/2-z
5 -x,-y,-z
6 1/2-x,1/2-y,-z
7 x,-y,1/2+z
8 1/2+x,1/2-y,1/2+z
_cell_length_a                   15.831(5)
_cell_length_b                   17.299(5)
_cell_length_c                   26.573(8)
_cell_angle_alpha                90
_cell_angle_beta                 98.956(3)
_cell_angle_gamma                90
_cell_volume                     7188.57
loop_
_atom_site_label
_atom_site_type_symbol
_atom_site_fract_x
_atom_site_fract_y
_atom_site_fract_z
Ag1 Ag 0.26878(2) 0.72741(1) 0.71247(1)
S1 S 0.39525(5) 0.59531(5) 0.70594(3)
S2 S 0.62645(5) 0.33833(5) 0.68729(3)
S3 S 0.33191(5) 0.79651(5) 0.82772(3)
F1 F 0.4841(1) 0.4202(2) 0.49318(8)
F2 F 0.4496(2) 0.3079(1) 0.51780(8)
F3 F 0.3275(2) 0.4290(1) 0.45349(7)
F4 F 0.2917(1) 0.3383(1) 0.5022(1)
F5 F 0.3131(2) 0.5334(1) 0.51852(8)
F6 F 0.2338(1) 0.4485(2) 0.54879(8)
F7 F 0.2916(2) 0.6625(1) 0.86283(9)
F8 F 0.3851(2) 0.7258(1) 0.91354(8)
F9 F 0.2532(2) 0.7604(2) 0.9036(1)
O1 O 0.2482(1) 0.8009(1) 0.79678(8)
O2 O 0.3944(2) 0.7560(1) 0.80371(9)
O3 O 0.3605(2) 0.8671(1) 0.8533(1)
N1 N 0.2148(2) 0.6242(2) 0.7425(1)
N2 N 0.8123(2) 0.3139(2) 0.6631(1)
C1 C 0.3810(2) 0.4555(2) 0.5856(1)
C2 C 0.4466(2) 0.4115(2) 0.5760(1)
C3 C 0.4323(2) 0.3831(2) 0.5217(1)
C4 C 0.3388(2) 0.4025(2) 0.5013(1)
C5 C 0.3134(2) 0.4617(2) 0.5393(1)
C6 C 0.4310(2) 0.5519(2) 0.6548(1)
C7 C 0.3721(2) 0.4999(2) 0.6318(1)
C8 C 0.2978(2) 0.4947(2) 0.6559(1)
C9 C 0.3009(2) 0.5428(2) 0.6965(1)
C10 C 0.5164(2) 0.5742(2) 0.6420(1)
C11 C 0.2354(2) 0.5522(2) 0.7296(1)
C12 C 0.1939(2) 0.4877(2) 0.7454(1)
C13 C 0.1294(3) 0.4979(2) 0.7739(2)
C14 C 0.1082(2) 0.5715(2) 0.7874(2)
C15 C 0.1530(2) 0.6325(2) 0.7717(1)
C16 C 0.5237(2) 0.3595(2) 0.6587(1)
C17 C 0.5240(2) 0.3882(2) 0.6103(1)
C18 C 0.6074(2) 0.3909(2) 0.5967(1)
C19 C 0.6698(2) 0.3658(2) 0.6343(1)
C20 C 0.4492(2) 0.3431(2) 0.6852(1)
C21 C 0.7622(2) 0.3629(2) 0.6323(1)
C22 C 0.7955(2) 0.4110(3) 0.5982(2)
C23 C 0.8818(3) 0.4074(3) 0.5955(2)
C24 C 0.9329(2) 0.3572(3) 0.6269(2)
C25 C 0.8968(2) 0.3126(2) 0.6602(2)
C26 C 0.3148(2) 0.7329(2) 0.8796(1)
H1 H 0.2511 0.4612 0.6447
H2 H 0.5524 0.5299 0.6442
H3 H 0.5095 0.5943 0.6083
H4 H 0.5415 0.6124 0.6653
H5 H 0.2100 0.4372 0.7365
H6 H 0.0996 0.4545 0.7842
H7 H 0.0638 0.5798 0.8071
H8 H 0.1397 0.6831 0.7818
H9 H 0.6185 0.4085 0.5644
H10 H 0.4182 0.3895 0.6880
H11 H 0.4130 0.3061 0.6662
H12 H 0.4691 0.3233 0.7182
H13 H 0.7594 0.4458 0.5771
H14 H 0.9057 0.4392 0.5721
H15 H 0.9923 0.3536 0.6254
H16 H 0.9327 0.2790 0.6823
Ag1A Ag 0.76878(2) 0.22741(1) 0.71247(1)
N2A N 0.3123(2) 0.8139(2) 0.6631(1)
C27 C 0.533(1) 0.1419(7) 0.6269(4)
C28 C 0.5711(10) 0.079(1) 0.6122(7)
C29 C 0.5530(7) 0.0584(8) 0.5659(7)
C30 C 0.4728(7) 0.0906(9) 0.5350(5)
C31 C 0.4325(7) 0.1359(6) 0.5587(8)
C32 C 0.4692(8) 0.1683(5) 0.6024(5)
C33 C 0.6721(6) 0.2358(5) 0.5177(5)
C34 C 0.6742(6) 0.2808(5) 0.4736(5)
C35 C 0.7481(7) 0.2045(4) 0.5441(4)
C33E C 0.8279(6) 0.2642(5) 0.4823(5)
C34E C 0.8258(6) 0.2192(5) 0.5264(5)
C35E C 0.7519(7) 0.2955(4) 0.4559(4)
loop_
_geom_bond_atom_site_label_1
_geom_bond_atom_site_label_2
_geom_bond_site_symmetry_1
_geom_bond_site_symmetry_2
Ag1 O1 1_555 1_555
S1 C6 1_555 1_555
S2 C16 1_555 1_555
S3 O1 1_555 1_555
F1 C3 1_555 1_555
F2 C3 1_555 1_555
F3 C4 1_555 1_555
F4 C4 1_555 1_555
F5 C5 1_555 1_555
F6 C5 1_555 1_555
F7 C26 1_555 1_555
F8 C26 1_555 1_555
F9 C26 1_555 1_555
O2 S3 1_555 1_555
O3 S3 1_555 1_555
N1 Ag1 1_555 1_555
N2 C21 1_555 1_555
C1 C2 1_555 1_555
C2 C3 1_555 1_555
C3 C4 1_555 1_555
C4 C5 1_555 1_555
C5 C1 1_555 1_555
C6 C7 1_555 1_555
C7 C1 1_555 1_555
C8 C7 1_555 1_555
C9 S1 1_555 1_555
C10 C6 1_555 1_555
C11 N1 1_555 1_555
C12 C11 1_555 1_555
C13 C12 1_555 1_555
C14 C13 1_555 1_555
C15 N1 1_555 1_555
C16 C17 1_555 1_555
C17 C2 1_555 1_555
C18 C17 1_555 1_555
C19 S2 1_555 1_555
C20 C16 1_555 1_555
C21 C19 1_555 1_555
C22 C21 1_555 1_555
C23 C22 1_555 1_555
C24 C23 1_555 1_555
C25 N2 1_555 1_555
C26 S3 1_555 1_555
C27 C28 1_555 1_555
C28 C29 1_555 1_555
C29 C30 1_555 1_555
C30 C31 1_555 1_555
C31 C32 1_555 1_555
C32 C27 1_555 1_555
C33 C34 1_555 1_555
C34 C35E 1_555 1_555
C35 C33 1_555 1_555
H1 C8 1_555 1_555
H2 C10 1_555 1_555
H3 C10 1_555 1_555
H4 C10 1_555 1_555
H5 C12 1_555 1_555
H6 C13 1_555 1_555
H7 C14 1_555 1_555
H8 C15 1_555 1_555
H9 C18 1_555 1_555
H10 C20 1_555 1_555
H11 C20 1_555 1_555
H12 C20 1_555 1_555
H13 C22 1_555 1_555
H14 C23 1_555 1_555
H15 C24 1_555 1_555
H16 C25 1_555 1_555
Ag1A N2 1_555 1_555
N2A Ag1 1_555 1_555
C33E C34E 1_555 1_555
C34E C35 1_555 1_555
C35E C33E 1_555 1_555
C8 C9 1_555 1_555
C9 C11 1_555 1_555
C14 C15 1_555 1_555
C18 C19 1_555 1_555
C24 C25 1_555 1_555

#END
