
#######################################################################
#
#                 Cambridge Crystallographic Data Centre
#                                CCDC 
#
#######################################################################
#
# If this CIF has been generated from an entry in the Cambridge 
# Structural Database, then it will include bibliographic, chemical, 
# crystal, experimental, refinement or atomic coordinate data resulting 
# from the CCDC's data processing and validation procedures.
#
#######################################################################

data_NEPPAZ
_symmetry_cell_setting           triclinic
_symmetry_space_group_name_H-M   'P -1'
_symmetry_Int_Tables_number      2
_space_group_name_Hall           '-P 1'
loop_
_symmetry_equiv_pos_site_id
_symmetry_equiv_pos_as_xyz
1 x,y,z
2 -x,-y,-z
_cell_length_a                   10.2993(4)
_cell_length_b                   17.0138(6)
_cell_length_c                   17.1149(6)
_cell_angle_alpha                60.2420(10)
_cell_angle_beta                 88.9900(10)
_cell_angle_gamma                83.1820(10)
_cell_volume                     2582.18
loop_
_atom_site_label
_atom_site_type_symbol
_atom_site_fract_x
_atom_site_fract_y
_atom_site_fract_z
Zn1 Zn 0.66974(3) -0.28928(2) 0.804472(19)
O1 O 0.6527(2) -0.19219(13) 0.67336(13)
O2 O 0.6665(2) -0.10704(15) 0.73635(13)
C1 C 0.6616(3) -0.11582(18) 0.66824(17)
C2 C 0.6717(3) -0.03606(17) 0.57621(16)
C3 C 0.6678(3) -0.04529(17) 0.50014(17)
H1 H 0.6592 -0.1019 0.5064
C4 C 0.6768(3) 0.02950(17) 0.41417(16)
C5 C 0.6728(3) 0.01752(19) 0.33313(17)
O3 O 0.6689(2) 0.08989(13) 0.25575(12)
O4 O 0.6767(2) -0.05969(15) 0.34259(15)
C6 C 0.6915(3) 0.11372(17) 0.40575(16)
H2 H 0.6982 0.1637 0.3489
C7 C 0.6963(3) 0.12372(17) 0.48129(16)
C8 C 0.7139(3) 0.21481(18) 0.47132(18)
O5 O 0.6992(2) 0.22258(14) 0.54114(13)
O6 O 0.7425(2) 0.27735(13) 0.39770(14)
C9 C 0.6848(3) 0.04880(18) 0.56626(17)
H3 H 0.6858 0.0557 0.6169
O7 O 0.6591(2) -0.39812(12) 0.78817(12)
O8 O 0.7284(3) -0.49203(15) 0.92885(14)
C10 C 0.6925(3) -0.47786(18) 0.85449(17)
C11 C 0.6900(3) -0.55728(17) 0.83904(16)
C12 C 0.6953(3) -0.64502(18) 0.91201(17)
H4 H 0.6996 -0.6541 0.9702
C13 C 0.6942(3) -0.71951(18) 0.89936(17)
O9 O 0.6703(3) -0.82349(14) 1.05358(14)
O10 O 0.7221(5) -0.87908(18) 0.96441(19)
C14 C 0.6966(4) -0.8155(2) 0.9776(2)
C15 C 0.6923(3) -0.70613(19) 0.81222(18)
H5 H 0.6959 -0.7561 0.8035
C16 C 0.6851(3) -0.61891(18) 0.73853(16)
C17 C 0.6823(3) -0.60521(18) 0.64468(17)
O11 O 0.7173(2) -0.67403(14) 0.63691(13)
O12 O 0.6498(2) -0.52783(14) 0.57942(13)
C18 C 0.6827(3) -0.54487(17) 0.75233(16)
H6 H 0.6762 -0.4861 0.7029
N1 N 0.7235(3) -0.31905(16) 0.93657(15)
C19 C 0.6369(4) -0.3261(2) 0.9994(2)
H7 H 0.5497 -0.3026 0.9813
C20 C 0.6744(5) -0.3669(3) 1.0891(2)
H8 H 0.6132 -0.3722 1.1315
C21 C 0.8032(5) -0.3997(3) 1.1151(3)
H9 H 0.8301 -0.4276 1.1756
C22 C 0.8931(4) -0.3914(3) 1.0517(2)
H10 H 0.9812 -0.4124 1.0685
C23 C 0.8494(3) -0.3511(2) 0.9625(2)
C24 C 0.9359(3) -0.3412(2) 0.8904(2)
N2 N 0.8802(2) -0.30590(19) 0.80797(17)
N3 N 0.9784(3) -0.3059(2) 0.7550(2)
C25 C 0.9525(4) -0.2714(4) 0.6598(3)
H11 H 0.9495 -0.2061 0.6277
H12 H 0.8701 -0.2876 0.6510
H13 H 1.0209 -0.2975 0.6376
C26 C 1.0921(4) -0.3404(4) 0.8021(3)
H14 H 1.1730 -0.3469 0.7795
C27 C 1.0687(4) -0.3651(3) 0.8910(3)
H15 H 1.1289 -0.3918 0.9399
O13 O 0.4733(2) -0.26759(15) 0.82117(16)
H16 H 0.4356 -0.3184 0.8553
H17 H 0.4303 -0.2165 0.8046
Zn2 Zn 0.68339(4) 0.05282(2) 0.15931(2)
N4 N 0.7289(3) -0.05376(17) 0.12827(17)
C28 C 0.6442(6) -0.0878(3) 0.0974(3)
H18 H 0.5557 -0.0754 0.1043
C29 C 0.6749(10) -0.1367(4) 0.0587(4)
H19 H 0.6108 -0.1563 0.0373
C30 C 0.8022(9) -0.1574(4) 0.0511(4)
H20 H 0.8277 -0.1945 0.0265
C31 C 0.8948(6) -0.1249(3) 0.0791(3)
H21 H 0.9831 -0.1379 0.0720
C32 C 0.8565(4) -0.0723(2) 0.1182(2)
C33 C 0.9490(4) -0.0317(2) 0.1477(2)
N5 N 0.8959(3) 0.0233(2) 0.17734(19)
N6 N 0.9999(4) 0.0508(3) 0.2004(2)
C34 C 0.9827(6) 0.1089(4) 0.2379(4)
H22 H 0.9100 0.1552 0.2070
H23 H 1.0606 0.1371 0.2314
H24 H 0.9659 0.0737 0.3007
C35 C 1.1189(5) 0.0143(4) 0.1840(3)
H25 H 1.2028 0.0237 0.1939
C36 C 1.0838(4) -0.0393(3) 0.1495(3)
H26 H 1.1400 -0.0735 0.1312
O14 O 0.4798(2) 0.0341(2) 0.17228(19)
H27 H 0.5063 0.0766 0.1298
H28 H 0.4422 0.0622 0.2012
Zn3 Zn 0.72533(3) 0.35063(2) 0.510612(19)
N7 N 0.7847(3) 0.47988(16) 0.41466(15)
C37 C 0.7034(5) 0.5582(3) 0.3665(2)
H29 H 0.6140 0.5542 0.3709
C38 C 0.7389(6) 0.6400(3) 0.3138(3)
H30 H 0.6786 0.6921 0.2837
C39 C 0.8732(6) 0.6421(4) 0.3068(3)
H31 H 0.9038 0.6977 0.2696
C40 C 0.9622(5) 0.5661(3) 0.3522(3)
H32 H 1.0517 0.5690 0.3460
C41 C 0.9134(3) 0.4834(2) 0.4085(2)
C42 C 0.9973(3) 0.3982(2) 0.4636(2)
N8 N 0.9367(3) 0.32567(19) 0.51425(18)
N9 N 1.0335(3) 0.2566(2) 0.5561(2)
C43 C 1.0077(6) 0.1688(4) 0.6171(4)
H33 H 0.9490 0.1708 0.6605
H34 H 1.0880 0.1314 0.6475
H35 H 0.9682 0.1436 0.5856
C44 C 1.1569(4) 0.2855(4) 0.5328(3)
H36 H 1.2378 0.2499 0.5535
C45 C 1.1339(4) 0.3767(3) 0.4734(3)
H37 H 1.1958 0.4165 0.4452
O15 O 0.5324(2) 0.38655(19) 0.4663(2)
H38 H 0.4942 0.3527 0.4572
H39 H 0.4776 0.4315 0.4572
O9_2 O 0.6703(3) 0.17651(14) 0.05358(14)
Zn2_2 Zn 0.68339(4) -0.94718(2) 1.15931(2)
Zn3_2 Zn 0.72533(3) -0.64937(2) 0.510612(19)
O11_2 O 0.7173(2) 0.32597(14) 0.63691(13)
O16 O 0.4109(3) 0.2978(2) 0.4016(2)
H40 H 0.4108 0.3150 0.3386
H41 H 0.4122 0.2416 0.4010
O17 O 0.3916(3) -0.4290(2) 0.9119(3)
H42 H 0.3519 -0.4754 0.9605
H43 H 0.4595 -0.4213 0.8806
O18 O 0.4907(4) -0.1575(3) 0.3126(3)
H44 H 0.5443 -0.1268 0.3201
H45 H 0.4360 -0.1996 0.3165
O19 O 0.3757(4) -0.4387(3) 0.7464(3)
H46 H 0.3982 -0.3881 0.7546
H47 H 0.4721 -0.4462 0.7549
loop_
_geom_bond_atom_site_label_1
_geom_bond_atom_site_label_2
_geom_bond_site_symmetry_1
_geom_bond_site_symmetry_2
Zn1 O1 1_555 1_555
O1 C1 1_555 1_555
O2 C1 1_555 1_555
C1 C2 1_555 1_555
C2 C3 1_555 1_555
C3 H1 1_555 1_555
C4 C3 1_555 1_555
C5 C4 1_555 1_555
O3 C5 1_555 1_555
O4 C5 1_555 1_555
C6 C4 1_555 1_555
H2 C6 1_555 1_555
C7 C6 1_555 1_555
C8 C7 1_555 1_555
O5 C8 1_555 1_555
O6 C8 1_555 1_555
C9 C2 1_555 1_555
H3 C9 1_555 1_555
O7 Zn1 1_555 1_555
O8 C10 1_555 1_555
C10 O7 1_555 1_555
C11 C10 1_555 1_555
C12 C11 1_555 1_555
H4 C12 1_555 1_555
C13 C12 1_555 1_555
O9 C14 1_555 1_555
O10 C14 1_555 1_555
C14 C13 1_555 1_555
C15 C13 1_555 1_555
H5 C15 1_555 1_555
C16 C15 1_555 1_555
C17 C16 1_555 1_555
O11 C17 1_555 1_555
O12 C17 1_555 1_555
C18 C11 1_555 1_555
H6 C18 1_555 1_555
N1 Zn1 1_555 1_555
C19 N1 1_555 1_555
H7 C19 1_555 1_555
C20 C19 1_555 1_555
H8 C20 1_555 1_555
C21 C20 1_555 1_555
H9 C21 1_555 1_555
C22 C21 1_555 1_555
H10 C22 1_555 1_555
C23 N1 1_555 1_555
C24 C23 1_555 1_555
N2 Zn1 1_555 1_555
N3 N2 1_555 1_555
C25 N3 1_555 1_555
H11 C25 1_555 1_555
H12 C25 1_555 1_555
H13 C25 1_555 1_555
C26 N3 1_555 1_555
H14 C26 1_555 1_555
C27 C24 1_555 1_555
H15 C27 1_555 1_555
O13 Zn1 1_555 1_555
H16 O13 1_555 1_555
H17 O13 1_555 1_555
Zn2 O3 1_555 1_555
N4 Zn2 1_555 1_555
C28 N4 1_555 1_555
H18 C28 1_555 1_555
C29 C28 1_555 1_555
H19 C29 1_555 1_555
C30 C29 1_555 1_555
H20 C30 1_555 1_555
C31 C30 1_555 1_555
H21 C31 1_555 1_555
C32 N4 1_555 1_555
C33 C32 1_555 1_555
N5 Zn2 1_555 1_555
N6 N5 1_555 1_555
C34 N6 1_555 1_555
H22 C34 1_555 1_555
H23 C34 1_555 1_555
H24 C34 1_555 1_555
C35 N6 1_555 1_555
H25 C35 1_555 1_555
C36 C33 1_555 1_555
H26 C36 1_555 1_555
O14 Zn2 1_555 1_555
H27 O14 1_555 1_555
H28 O14 1_555 1_555
Zn3 O5 1_555 1_555
N7 Zn3 1_555 1_555
C37 N7 1_555 1_555
H29 C37 1_555 1_555
C38 C37 1_555 1_555
H30 C38 1_555 1_555
C39 C38 1_555 1_555
H31 C39 1_555 1_555
C40 C39 1_555 1_555
H32 C40 1_555 1_555
C41 N7 1_555 1_555
C42 C41 1_555 1_555
N8 Zn3 1_555 1_555
N9 N8 1_555 1_555
C43 N9 1_555 1_555
H33 C43 1_555 1_555
H34 C43 1_555 1_555
H35 C43 1_555 1_555
C44 N9 1_555 1_555
H36 C44 1_555 1_555
C45 C42 1_555 1_555
H37 C45 1_555 1_555
O15 Zn3 1_555 1_555
H38 O15 1_555 1_555
H39 O15 1_555 1_555
O16 H40 1_555 1_555
H41 O16 1_555 1_555
O17 H42 1_555 1_555
H43 O17 1_555 1_555
O18 H44 1_555 1_555
H45 O18 1_555 1_555
O19 H46 1_555 1_555
H47 O19 1_555 1_555
O9_2 Zn2 1_555 1_555
Zn2_2 O9 1_555 1_555
Zn3_2 O11 1_555 1_555
O11_2 Zn3 1_555 1_555
C7 C9 1_555 1_555
C16 C18 1_555 1_555
C22 C23 1_555 1_555
C24 N2 1_555 1_555
C26 C27 1_555 1_555
C31 C32 1_555 1_555
C33 N5 1_555 1_555
C35 C36 1_555 1_555
C40 C41 1_555 1_555
C42 N8 1_555 1_555
C44 C45 1_555 1_555

#END
