
#######################################################################
#
#                 Cambridge Crystallographic Data Centre
#                                CCDC 
#
#######################################################################
#
# If this CIF has been generated from an entry in the Cambridge 
# Structural Database, then it will include bibliographic, chemical, 
# crystal, experimental, refinement or atomic coordinate data resulting 
# from the CCDC's data processing and validation procedures.
#
#######################################################################

data_NEPPED
_symmetry_cell_setting           triclinic
_symmetry_space_group_name_H-M   'P -1'
_symmetry_Int_Tables_number      2
_space_group_name_Hall           '-P 1'
loop_
_symmetry_equiv_pos_site_id
_symmetry_equiv_pos_as_xyz
1 x,y,z
2 -x,-y,-z
_cell_length_a                   9.4079(8)
_cell_length_b                   9.4247(8)
_cell_length_c                   11.7321(9)
_cell_angle_alpha                66.756(2)
_cell_angle_beta                 80.184(2)
_cell_angle_gamma                79.824(2)
_cell_volume                     934.919
loop_
_atom_site_label
_atom_site_type_symbol
_atom_site_fract_x
_atom_site_fract_y
_atom_site_fract_z
Zn1 Zn 0.04558(5) -0.51626(6) 0.29361(5)
N1 N 0.1708(4) -0.4084(5) 0.1132(4)
C1 C 0.2259(9) -0.2756(9) 0.0735(9)
H1 H 0.1915 -0.2236 0.1275
C2 C 0.305(2) -0.204(2) -0.0091(17)
H2 H 0.3354 -0.1087 -0.0232
C3 C 0.3429(14) -0.2965(18) -0.0825(12)
H3 H 0.4029 -0.2535 -0.1559
C4 C 0.3041(9) -0.4441(11) -0.0620(6)
H4 H 0.3391 -0.4990 -0.1138
C5 C 0.2077(6) -0.4962(7) 0.0448(5)
C6 C 0.1423(6) -0.6414(6) 0.0930(5)
C7 C 0.1451(9) -0.7508(9) 0.0415(7)
H5 H 0.1951 -0.7524 -0.0337
C8 C 0.0530(10) -0.8626(9) 0.1306(9)
H6 H 0.0308 -0.9524 0.1260
N2 N 0.0052(6) -0.8049(5) 0.2248(5)
C9 C -0.0905(10) -0.8766(9) 0.3266(8)
H7 H -0.0415 -0.9195 0.4005
H8 H -0.1259 -0.9585 0.3144
H9 H -0.1707 -0.8018 0.3357
N3 N 0.0598(4) -0.6722(4) 0.2013(4)
O1 O 0.1551(3) -0.4103(3) 0.3654(3)
O2 O 0.3457(3) -0.5787(3) 0.3491(3)
C10 C 0.2913(4) -0.4565(4) 0.3615(4)
C11 C 0.3887(4) -0.3450(4) 0.3607(4)
C12 C 0.5390(4) -0.3776(4) 0.3362(4)
H10 H 0.5776 -0.4719 0.3288
C13 C 0.6310(4) -0.2711(4) 0.3228(4)
C14 C 0.7940(4) -0.3019(5) 0.2927(4)
O3 O 0.8393(3) -0.4399(3) 0.2976(3)
O4 O 0.8707(3) -0.1996(4) 0.2680(4)
C15 C 0.5736(4) -0.1327(4) 0.3384(4)
H11 H 0.6347 -0.0603 0.3289
C16 C 0.4251(4) -0.1025(4) 0.3681(4)
C17 C 0.3607(4) 0.0424(5) 0.3895(4)
O5 O 0.4530(3) 0.1446(4) 0.3581(4)
H12 H 0.414(7) 0.226(7) 0.365(6)
O6 O 0.2368(3) 0.0637(4) 0.4332(4)
C18 C 0.3324(4) -0.2092(4) 0.3792(4)
H13 H 0.2330 -0.1887 0.3991
O7 O 0.0230(4) -0.7027(4) 0.4645(3)
H14 H -0.016(5) -0.688(5) 0.527(4)
H15 H 0.094(7) -0.762(7) 0.485(6)
O3_2 O -0.1607(3) -0.4399(3) 0.2976(3)
Zn1_2 Zn 1.04558(5) -0.51626(6) 0.29361(5)
loop_
_geom_bond_atom_site_label_1
_geom_bond_atom_site_label_2
_geom_bond_site_symmetry_1
_geom_bond_site_symmetry_2
Zn1 N1 1_555 1_555
N1 C1 1_555 1_555
C1 H1 1_555 1_555
C2 C1 1_555 1_555
H2 C2 1_555 1_555
C3 C2 1_555 1_555
H3 C3 1_555 1_555
C4 C3 1_555 1_555
H4 C4 1_555 1_555
C5 N1 1_555 1_555
C6 C5 1_555 1_555
C7 C6 1_555 1_555
H5 C7 1_555 1_555
C8 C7 1_555 1_555
H6 C8 1_555 1_555
N2 C8 1_555 1_555
C9 N2 1_555 1_555
H7 C9 1_555 1_555
H8 C9 1_555 1_555
H9 C9 1_555 1_555
N3 Zn1 1_555 1_555
O1 Zn1 1_555 1_555
O2 C10 1_555 1_555
C10 O1 1_555 1_555
C11 C10 1_555 1_555
C12 C11 1_555 1_555
H10 C12 1_555 1_555
C13 C12 1_555 1_555
C14 C13 1_555 1_555
O3 C14 1_555 1_555
O4 C14 1_555 1_555
C15 C13 1_555 1_555
H11 C15 1_555 1_555
C16 C15 1_555 1_555
C17 C16 1_555 1_555
O5 C17 1_555 1_555
H12 O5 1_555 1_555
O6 C17 1_555 1_555
C18 C11 1_555 1_555
H13 C18 1_555 1_555
O7 Zn1 1_555 1_555
H14 O7 1_555 1_555
H15 O7 1_555 1_555
O3_2 Zn1 1_555 1_555
Zn1_2 O3 1_555 1_555
C4 C5 1_555 1_555
C6 N3 1_555 1_555
N2 N3 1_555 1_555
C16 C18 1_555 1_555

#END
