
#######################################################################
#
#                 Cambridge Crystallographic Data Centre
#                                CCDC 
#
#######################################################################
#
# If this CIF has been generated from an entry in the Cambridge 
# Structural Database, then it will include bibliographic, chemical, 
# crystal, experimental, refinement or atomic coordinate data resulting 
# from the CCDC's data processing and validation procedures.
#
#######################################################################

data_NEPQII
_symmetry_cell_setting           monoclinic
_symmetry_space_group_name_H-M   'P 21/c'
_symmetry_Int_Tables_number      14
_space_group_name_Hall           '-P 2ybc'
loop_
_symmetry_equiv_pos_site_id
_symmetry_equiv_pos_as_xyz
1 x,y,z
2 x,1/2-y,1/2+z
3 -x,-y,-z
4 -x,1/2+y,1/2-z
_cell_length_a                   10.0113(7)
_cell_length_b                   15.0119(7)
_cell_length_c                   15.6030(7)
_cell_angle_alpha                90
_cell_angle_beta                 95.3080(10)
_cell_angle_gamma                90
_cell_volume                     2334.9
loop_
_atom_site_label
_atom_site_type_symbol
_atom_site_fract_x
_atom_site_fract_y
_atom_site_fract_z
Co1 Co 0.28784(3) 0.33952(2) 0.05874(2)
N1 N 0.3027(2) 0.22491(15) 0.14062(15)
C1 C 0.3206(3) 0.1412(2) 0.1150(2)
H1 H 0.3293 0.1305 0.0570
C2 C 0.3267(4) 0.0702(2) 0.1706(2)
H2 H 0.3373 0.0126 0.1504
C3 C 0.3170(4) 0.0855(2) 0.2569(2)
H3 H 0.3223 0.0385 0.2958
C4 C 0.2994(3) 0.1716(2) 0.2848(2)
H4 H 0.2919 0.1834 0.3426
C5 C 0.2930(3) 0.23974(19) 0.22507(18)
C6 C 0.2781(3) 0.33423(18) 0.24613(18)
N2 N 0.2970(2) 0.39333(14) 0.18498(14)
N3 N 0.2731(2) 0.47388(15) 0.21969(15)
C7 C 0.2382(3) 0.4664(2) 0.30148(18)
C8 C 0.2419(3) 0.3766(2) 0.32007(19)
H5 H 0.2239 0.3497 0.3715
C9 C 0.2945(4) 0.5519(2) 0.1675(2)
H6 H 0.3395 0.5345 0.1184
H7 H 0.3487 0.5943 0.2011
H8 H 0.2096 0.5783 0.1486
C10 C 0.2013(4) 0.5434(2) 0.3580(2)
C11 C 0.0927(7) 0.6008(4) 0.3156(4)
H9 H 0.0100 0.5682 0.3098
H10 H 0.1159 0.6183 0.2597
H11 H 0.0825 0.6530 0.3500
C12 C 0.1524(10) 0.5078(4) 0.4376(4)
H12 H 0.1219 0.5560 0.4712
H13 H 0.2239 0.4769 0.4704
H14 H 0.0796 0.4673 0.4231
C13 C 0.3211(7) 0.6000(6) 0.3816(6)
H15 H 0.3022 0.6404 0.4266
H16 H 0.3425 0.6332 0.3321
H17 H 0.3957 0.5628 0.4012
O1 O 0.07213(18) 0.35428(14) 0.05697(13)
O2 O 0.14961(18) 0.26146(14) -0.03361(13)
C14 C 0.0522(3) 0.29794(19) -0.00289(18)
C15 C -0.0887(2) 0.27626(17) -0.03739(17)
C16 C -0.1136(3) 0.22625(18) -0.11173(17)
H18 H -0.0422 0.2041 -0.1393
C17 C -0.2451(3) 0.20876(18) -0.14575(17)
C18 C -0.2650(3) 0.16039(19) -0.22953(18)
O3 O -0.1758(2) 0.12387(16) -0.26232(15)
O4 O -0.3905(2) 0.16128(17) -0.26386(15)
H19 H -0.397(4) 0.140(2) -0.314(3)
C19 C -0.3515(3) 0.24044(17) -0.10328(17)
H20 H -0.4392 0.2279 -0.1249
C20 C -0.3276(2) 0.29100(17) -0.02841(17)
C21 C -0.4423(3) 0.32721(18) 0.01733(17)
O5 O -0.55418(18) 0.29118(13) 0.00030(13)
O6 O -0.42055(18) 0.39085(13) 0.06937(12)
C22 C -0.1961(3) 0.30869(18) 0.00343(17)
H21 H -0.1798 0.3429 0.0530
O7 O 0.2775(3) 0.45177(16) -0.02267(15)
H22 H 0.193(4) 0.465(2) -0.051(2)
H23 H 0.329(3) 0.490(2) -0.029(2)
O5_2 O 0.44582(18) 0.29118(13) 0.00030(13)
Co1_2 Co -0.71216(3) 0.33952(2) 0.05874(2)
O8 O 0.9474(3) 0.49945(18) 0.1211(2)
H24 H 0.988(5) 0.459(3) 0.092(4)
H25 H 0.926(4) 0.474(3) 0.162(3)
loop_
_geom_bond_atom_site_label_1
_geom_bond_atom_site_label_2
_geom_bond_site_symmetry_1
_geom_bond_site_symmetry_2
Co1 N1 1_555 1_555
N1 C1 1_555 1_555
C1 H1 1_555 1_555
C2 C1 1_555 1_555
H2 C2 1_555 1_555
C3 C2 1_555 1_555
H3 C3 1_555 1_555
C4 C3 1_555 1_555
H4 C4 1_555 1_555
C5 N1 1_555 1_555
C6 C5 1_555 1_555
N2 Co1 1_555 1_555
N3 N2 1_555 1_555
C7 N3 1_555 1_555
C8 C6 1_555 1_555
H5 C8 1_555 1_555
C9 N3 1_555 1_555
H6 C9 1_555 1_555
H7 C9 1_555 1_555
H8 C9 1_555 1_555
C10 C7 1_555 1_555
C11 C10 1_555 1_555
H9 C11 1_555 1_555
H10 C11 1_555 1_555
H11 C11 1_555 1_555
C12 C10 1_555 1_555
H12 C12 1_555 1_555
H13 C12 1_555 1_555
H14 C12 1_555 1_555
C13 C10 1_555 1_555
H15 C13 1_555 1_555
H16 C13 1_555 1_555
H17 C13 1_555 1_555
O1 Co1 1_555 1_555
O2 Co1 1_555 1_555
C14 O1 1_555 1_555
C15 C14 1_555 1_555
C16 C15 1_555 1_555
H18 C16 1_555 1_555
C17 C16 1_555 1_555
C18 C17 1_555 1_555
O3 C18 1_555 1_555
O4 C18 1_555 1_555
H19 O4 1_555 1_555
C19 C17 1_555 1_555
H20 C19 1_555 1_555
C20 C19 1_555 1_555
C21 C20 1_555 1_555
O5 C21 1_555 1_555
O6 C21 1_555 1_555
C22 C15 1_555 1_555
H21 C22 1_555 1_555
O7 Co1 1_555 1_555
H22 O7 1_555 1_555
H23 O7 1_555 1_555
O8 H24 1_555 1_555
H25 O8 1_555 1_555
O5_2 Co1 1_555 1_555
Co1_2 O5 1_555 1_555
C4 C5 1_555 1_555
C6 N2 1_555 1_555
C7 C8 1_555 1_555
O2 C14 1_555 1_555
C20 C22 1_555 1_555

#END
