
#######################################################################
#
#                 Cambridge Crystallographic Data Centre
#                                CCDC 
#
#######################################################################
#
# If this CIF has been generated from an entry in the Cambridge 
# Structural Database, then it will include bibliographic, chemical, 
# crystal, experimental, refinement or atomic coordinate data resulting 
# from the CCDC's data processing and validation procedures.
#
#######################################################################

data_NEPQEE
_symmetry_cell_setting           monoclinic
_symmetry_space_group_name_H-M   'P 21/c'
_symmetry_Int_Tables_number      14
_space_group_name_Hall           '-P 2ybc'
loop_
_symmetry_equiv_pos_site_id
_symmetry_equiv_pos_as_xyz
1 x,y,z
2 x,1/2-y,1/2+z
3 -x,-y,-z
4 -x,1/2+y,1/2-z
_cell_length_a                   9.9726(4)
_cell_length_b                   15.0501(6)
_cell_length_c                   15.6492(7)
_cell_angle_alpha                90
_cell_angle_beta                 94.7300(10)
_cell_angle_gamma                90
_cell_volume                     2340.77
loop_
_atom_site_label
_atom_site_type_symbol
_atom_site_fract_x
_atom_site_fract_y
_atom_site_fract_z
Zn1 Zn 0.28435(3) 0.34160(3) 0.05791(2)
N1 N 0.2998(3) 0.22732(19) 0.14076(17)
C1 C 0.3165(5) 0.1435(3) 0.1158(3)
H1 H 0.3242 0.1323 0.0580
C2 C 0.3228(6) 0.0732(3) 0.1721(3)
H2 H 0.3338 0.0155 0.1526
C3 C 0.3126(5) 0.0897(3) 0.2578(3)
H3 H 0.3170 0.0432 0.2971
C4 C 0.2959(5) 0.1755(2) 0.2847(2)
H4 H 0.2888 0.1881 0.3423
C5 C 0.2899(3) 0.2430(2) 0.2243(2)
C6 C 0.2752(3) 0.3376(2) 0.2456(2)
N2 N 0.2948(3) 0.39660(18) 0.18495(17)
N3 N 0.2721(3) 0.47691(19) 0.21999(18)
C7 C 0.2385(4) 0.4688(2) 0.3015(2)
C8 C 0.2418(4) 0.3791(2) 0.3194(2)
H5 H 0.2249 0.3520 0.3708
C9 C 0.2944(5) 0.5552(3) 0.1683(3)
H6 H 0.3572 0.5411 0.1270
H7 H 0.3301 0.6023 0.2047
H8 H 0.2107 0.5738 0.1391
C10 C 0.2015(5) 0.5460(3) 0.3578(3)
C11 C 0.0910(9) 0.6016(6) 0.3180(5)
H9 H 0.0121 0.5657 0.3060
H10 H 0.1176 0.6266 0.2656
H11 H 0.0715 0.6486 0.3566
C12 C 0.1633(13) 0.5109(5) 0.4391(4)
H12 H 0.1306 0.5584 0.4727
H13 H 0.2403 0.4841 0.4698
H14 H 0.0939 0.4672 0.4285
C13 C 0.3219(9) 0.6035(6) 0.3782(6)
H15 H 0.2998 0.6499 0.4167
H16 H 0.3492 0.6292 0.3262
H17 H 0.3941 0.5682 0.4047
O1 O 0.0699(2) 0.34829(16) 0.05225(16)
O2 O 0.1451(2) 0.2550(2) -0.03904(17)
C14 C 0.0496(3) 0.2920(2) -0.0066(2)
C15 C -0.0927(3) 0.2723(2) -0.04019(19)
C16 C -0.1181(3) 0.2226(2) -0.1143(2)
H18 H -0.0468 0.1996 -0.1421
C17 C -0.2505(3) 0.2069(2) -0.14734(19)
C18 C -0.2704(3) 0.1589(2) -0.2309(2)
O3 O -0.1811(3) 0.1213(2) -0.26351(18)
O4 O -0.3958(3) 0.1602(2) -0.26505(17)
H19 H -0.400(6) 0.141(4) -0.319(4)
C19 C -0.3573(3) 0.2394(2) -0.10491(19)
H20 H -0.4453 0.2277 -0.1262
C20 C -0.3325(3) 0.2896(2) -0.03044(18)
C21 C -0.4465(3) 0.3284(2) 0.01546(19)
O5 O -0.5607(2) 0.29558(17) -0.00435(16)
O6 O -0.4225(2) 0.38988(17) 0.06798(14)
C22 C -0.2005(3) 0.3061(2) 0.00180(19)
H21 H -0.1838 0.3398 0.0514
O7 O 0.2731(3) 0.4562(2) -0.0192(2)
H22 H 0.204(5) 0.470(3) -0.042(3)
H23 H 0.323(5) 0.501(3) -0.026(3)
O5_2 O 0.4393(2) 0.29558(17) -0.00435(16)
Zn1_2 Zn -0.71565(3) 0.34160(3) 0.05791(2)
O8 O 0.9501(3) 0.4952(2) 0.1179(2)
H24 H 0.988(6) 0.452(4) 0.084(4)
H25 H 0.931(6) 0.477(4) 0.160(4)
loop_
_geom_bond_atom_site_label_1
_geom_bond_atom_site_label_2
_geom_bond_site_symmetry_1
_geom_bond_site_symmetry_2
Zn1 N1 1_555 1_555
N1 C1 1_555 1_555
C1 H1 1_555 1_555
C2 C1 1_555 1_555
H2 C2 1_555 1_555
C3 C2 1_555 1_555
H3 C3 1_555 1_555
C4 C3 1_555 1_555
H4 C4 1_555 1_555
C5 N1 1_555 1_555
C6 C5 1_555 1_555
N2 Zn1 1_555 1_555
N3 N2 1_555 1_555
C7 N3 1_555 1_555
C8 C6 1_555 1_555
H5 C8 1_555 1_555
C9 N3 1_555 1_555
H6 C9 1_555 1_555
H7 C9 1_555 1_555
H8 C9 1_555 1_555
C10 C7 1_555 1_555
C11 C10 1_555 1_555
H9 C11 1_555 1_555
H10 C11 1_555 1_555
H11 C11 1_555 1_555
C12 C10 1_555 1_555
H12 C12 1_555 1_555
H13 C12 1_555 1_555
H14 C12 1_555 1_555
C13 C10 1_555 1_555
H15 C13 1_555 1_555
H16 C13 1_555 1_555
H17 C13 1_555 1_555
O1 Zn1 1_555 1_555
O2 Zn1 1_555 1_555
C14 O1 1_555 1_555
C15 C14 1_555 1_555
C16 C15 1_555 1_555
H18 C16 1_555 1_555
C17 C16 1_555 1_555
C18 C17 1_555 1_555
O3 C18 1_555 1_555
O4 C18 1_555 1_555
H19 O4 1_555 1_555
C19 C17 1_555 1_555
H20 C19 1_555 1_555
C20 C19 1_555 1_555
C21 C20 1_555 1_555
O5 C21 1_555 1_555
O6 C21 1_555 1_555
C22 C15 1_555 1_555
H21 C22 1_555 1_555
O7 Zn1 1_555 1_555
H22 O7 1_555 1_555
H23 O7 1_555 1_555
O8 H24 1_555 1_555
H25 O8 1_555 1_555
O5_2 Zn1 1_555 1_555
Zn1_2 O5 1_555 1_555
C4 C5 1_555 1_555
C6 N2 1_555 1_555
C7 C8 1_555 1_555
O2 C14 1_555 1_555
C20 C22 1_555 1_555

#END
