
#######################################################################
#
#                 Cambridge Crystallographic Data Centre
#                                CCDC 
#
#######################################################################
#
# If this CIF has been generated from an entry in the Cambridge 
# Structural Database, then it will include bibliographic, chemical, 
# crystal, experimental, refinement or atomic coordinate data resulting 
# from the CCDC's data processing and validation procedures.
#
#######################################################################

data_NEPQAA
_symmetry_cell_setting           monoclinic
_symmetry_space_group_name_H-M   'P 21/n'
_symmetry_Int_Tables_number      14
_space_group_name_Hall           '-P 2yn'
loop_
_symmetry_equiv_pos_site_id
_symmetry_equiv_pos_as_xyz
1 x,y,z
2 1/2+x,1/2-y,1/2+z
3 -x,-y,-z
4 1/2-x,1/2+y,1/2-z
_cell_length_a                   29.906(2)
_cell_length_b                   11.1569(8)
_cell_length_c                   27.756(2)
_cell_angle_alpha                90
_cell_angle_beta                 62.2390(10)
_cell_angle_gamma                90
_cell_volume                     8195.06
loop_
_atom_site_label
_atom_site_type_symbol
_atom_site_fract_x
_atom_site_fract_y
_atom_site_fract_z
Zn1 Zn 0.12287(2) 0.12222(6) -0.12162(3)
Zn2 Zn 0.12630(3) 0.17243(6) 0.38051(3)
Zn3 Zn 0.12645(3) 0.28901(6) -0.25960(3)
Zn4 Zn 0.12120(3) 0.01145(6) 0.24716(3)
O1 O 0.16598(16) 0.1042(4) -0.08616(17)
O2 O 0.10503(17) 0.1927(4) -0.01371(17)
C1 C 0.1454(3) 0.1355(6) -0.0369(3)
C2 C 0.1715(2) 0.1010(5) -0.0042(2)
C3 C 0.1456(2) 0.0945(5) 0.0516(2)
H1 H 0.1114 0.1144 0.0693
C4 C 0.1691(3) 0.0591(5) 0.0823(2)
C5 C 0.2199(3) 0.0393(5) 0.0564(2)
H2 H 0.2361 0.0171 0.0766
C6 C 0.2476(2) 0.0518(5) 0.0006(2)
C7 C 0.2234(3) 0.0791(5) -0.0301(2)
H3 H 0.2417 0.0828 -0.0678
C8 C 0.1398(3) 0.0538(6) 0.1433(3)
O3 O 0.16081(16) 0.0029(4) 0.16771(15)
O4 O 0.09786(18) 0.1028(5) 0.16607(16)
C9 C 0.3035(3) 0.0417(6) -0.0259(3)
O5 O 0.32636(17) 0.0599(5) -0.07794(19)
H4 H 0.3570 0.0534 -0.0894
O6 O 0.32587(16) 0.0165(4) 0.00123(18)
O7 O 0.13176(14) 0.2972(3) -0.14523(15)
O8 O 0.17341(14) 0.3494(3) -0.23257(15)
C10 C 0.1685(2) 0.3440(5) -0.1849(2)
C11 C 0.2108(2) 0.3942(5) -0.1776(2)
C12 C 0.2122(2) 0.3819(5) -0.1281(2)
H5 H 0.1855 0.3449 -0.0988
C13 C 0.2529(2) 0.4241(5) -0.1223(2)
C14 C 0.2924(2) 0.4826(5) -0.1655(2)
H6 H 0.3197 0.5110 -0.1616
C15 C 0.2910(2) 0.4986(5) -0.2146(2)
C16 C 0.2503(2) 0.4525(5) -0.2198(2)
H7 H 0.2496 0.4613 -0.2528
C17 C 0.2541(3) 0.4019(5) -0.0700(2)
O9 O 0.21520(16) 0.3679(4) -0.02977(16)
O10 O 0.29704(16) 0.4187(4) -0.07064(15)
H8 H 0.2939 0.4084 -0.0400
C18 C 0.3318(2) 0.5631(5) -0.2615(2)
O11 O 0.36690(14) 0.6108(3) -0.25569(14)
O12 O 0.32920(14) 0.5602(3) -0.30553(14)
N1 N 0.04461(17) 0.1413(5) -0.08655(17)
C19 C 0.0220(2) 0.2490(6) -0.0776(2)
H9 H 0.0420 0.3176 -0.0884
C20 C -0.0299(3) 0.2610(7) -0.0528(2)
H10 H -0.0448 0.3364 -0.0469
C21 C -0.0590(3) 0.1591(8) -0.0372(2)
H11 H -0.0940 0.1652 -0.0213
C22 C -0.0368(2) 0.0485(7) -0.0450(2)
H12 H -0.0563 -0.0208 -0.0336
C23 C 0.0152(2) 0.0426(6) -0.0703(2)
C24 C 0.0421(3) -0.0693(7) -0.0798(2)
C25 C 0.0272(3) -0.1905(7) -0.0732(3)
H13 H -0.0054 -0.2201 -0.0605
C26 C 0.0703(4) -0.2551(7) -0.0891(3)
C27 C 0.0773(5) -0.3845(10) -0.0911(4)
F1 F 0.1072(2) -0.4239(4) -0.1425(2)
F2 F 0.1001(2) -0.4256(4) -0.06400(19)
F3 F 0.0347(3) -0.4431(5) -0.0742(3)
N2 N 0.1091(2) -0.1788(6) -0.1044(2)
C28 C 0.1634(3) -0.2000(7) -0.1240(3)
H14 H 0.1683 -0.2784 -0.1130
H15 H 0.1765 -0.1408 -0.1089
H16 H 0.1809 -0.1947 -0.1630
N3 N 0.0922(2) -0.0653(5) -0.09857(19)
O13 O 0.12976(14) -0.0028(3) 0.35660(15)
O14 O 0.17193(14) -0.0499(3) 0.26819(15)
C29 C 0.2092(2) -0.1033(5) 0.3227(2)
C30 C 0.2087(2) -0.1018(5) 0.3730(2)
H17 H 0.1815 -0.0671 0.4027
C31 C 0.2478(2) -0.1511(5) 0.3796(2)
C32 C 0.2873(2) -0.2054(5) 0.3355(2)
H18 H 0.3138 -0.2386 0.3397
C33 C 0.2882(2) -0.2114(5) 0.2845(2)
C34 C 0.2486(2) -0.1583(5) 0.2801(2)
H19 H 0.2488 -0.1599 0.2465
C35 C 0.1665(2) -0.0468(5) 0.3166(3)
C36 C 0.2465(3) -0.1451(5) 0.4340(2)
O15 O 0.20531(16) -0.1220(4) 0.47502(16)
O16 O 0.28748(16) -0.1663(4) 0.43494(15)
H20 H 0.2840 -0.1529 0.4655
C37 C 0.3302(2) -0.2711(5) 0.2364(2)
O17 O 0.32515(14) -0.2736(3) 0.19398(15)
O18 O 0.36732(14) -0.3111(3) 0.24074(14)
O19 O 0.17078(17) 0.1673(4) -0.58471(17)
O20 O 0.10241(19) 0.2025(4) -0.50724(19)
C38 C 0.1482(3) 0.1885(6) -0.5342(3)
C39 C 0.1818(3) 0.1968(5) -0.5064(2)
C40 C 0.1590(3) 0.2273(5) -0.4517(2)
H21 H 0.1243 0.2408 -0.4332
C41 C 0.1879(3) 0.2378(6) -0.4243(3)
C42 C 0.2387(3) 0.2083(6) -0.4521(3)
H22 H 0.2580 0.2119 -0.4339
C43 C 0.2616(3) 0.1737(6) -0.5064(3)
C44 C 0.1616(5) 0.2700(7) -0.3640(4)
O21 O 0.1150(3) 0.2819(6) -0.3413(2)
O22 O 0.1863(3) 0.2828(5) -0.3405(2)
C45 C 0.3141(3) 0.1289(7) -0.5344(4)
O23 O 0.33683(19) 0.1222(6) -0.5034(2)
H23 H 0.3668 0.1058 -0.5224
O24 O 0.33424(19) 0.0985(5) -0.5813(2)
C46 C 0.2324(3) 0.1713(5) -0.5330(2)
H24 H 0.2474 0.1518 -0.5698
N4 N 0.0475(2) 0.1612(6) 0.41691(19)
C47 C 0.0217(3) 0.0583(7) 0.4290(2)
H25 H 0.0397 -0.0132 0.4191
C48 C -0.0303(3) 0.0528(7) 0.4555(3)
H26 H -0.0473 -0.0202 0.4644
C49 C -0.0562(3) 0.1602(9) 0.4681(3)
H27 H -0.0913 0.1604 0.4845
C50 C -0.0303(3) 0.2666(7) 0.4565(3)
H28 H -0.0475 0.3392 0.4655
C51 C 0.0217(3) 0.2637(7) 0.4314(2)
C52 C 0.0522(3) 0.3720(7) 0.4191(2)
C53 C 0.0401(3) 0.4932(7) 0.4234(2)
H29 H 0.0081 0.5269 0.4362
C54 C 0.0840(3) 0.5510(7) 0.4054(3)
C55 C 0.0955(4) 0.6746(10) 0.3978(3)
F4 F 0.12070(18) 0.7198(4) 0.42318(17)
F5 F 0.1243(2) 0.7080(4) 0.3454(2)
F6 F 0.0537(2) 0.7438(5) 0.4148(2)
N5 N 0.1222(2) 0.4691(6) 0.3903(2)
C56 C 0.1756(3) 0.4852(7) 0.3696(3)
H30 H 0.1910 0.4097 0.3697
H31 H 0.1817 0.5412 0.3922
H32 H 0.1899 0.5156 0.3331
N6 N 0.1013(2) 0.3581(5) 0.39901(19)
N7 N 0.04754(18) 0.2686(5) -0.21554(18)
C57 C 0.0243(2) 0.1621(6) -0.2030(2)
H33 H 0.0440 0.0931 -0.2129
C58 C -0.0274(3) 0.1499(6) -0.1761(2)
H34 H -0.0425 0.0746 -0.1685
C59 C -0.0564(3) 0.2540(7) -0.1606(2)
H35 H -0.0915 0.2490 -0.1417
C60 C -0.0336(2) 0.3620(6) -0.1732(2)
H36 H -0.0528 0.4320 -0.1631
C61 C 0.0191(2) 0.3676(6) -0.2015(2)
C62 C 0.0469(3) 0.4796(6) -0.2190(3)
C63 C 0.0322(3) 0.5989(7) -0.2086(3)
H37 H -0.0004 0.6283 -0.1881
C64 C 0.0754(4) 0.6639(7) -0.2349(3)
C65 C 0.0843(4) 0.7910(9) -0.2366(4)
F7 F 0.1075(2) 0.8363(4) -0.2871(2)
F8 F 0.1124(2) 0.8266(4) -0.21339(19)
F9 F 0.0405(3) 0.8516(5) -0.2116(3)
N8 N 0.1136(2) 0.5855(6) -0.2593(2)
C66 C 0.1678(3) 0.6051(7) -0.2921(3)
H38 H 0.1859 0.5384 -0.2877
H39 H 0.1774 0.6773 -0.2804
H40 H 0.1758 0.6124 -0.3297
N9 N 0.0968(2) 0.4731(5) -0.2499(2)
N10 N 0.04352(18) 0.0271(5) 0.29337(18)
C67 C 0.0199(3) 0.1327(7) 0.3065(3)
H41 H 0.0392 0.2024 0.2962
C68 C -0.0316(3) 0.1426(8) 0.3346(3)
H42 H -0.0470 0.2174 0.3438
C69 C -0.0601(3) 0.0401(11) 0.3489(3)
H43 H -0.0951 0.0443 0.3676
C70 C -0.0360(3) -0.0695(8) 0.3352(3)
H44 H -0.0549 -0.1398 0.3447
C71 C 0.0156(3) -0.0750(7) 0.3076(2)
C72 C 0.0438(3) -0.1859(7) 0.2901(3)
C73 C 0.0315(3) -0.3082(8) 0.2998(3)
H45 H -0.0002 -0.3406 0.3221
C74 C 0.0741(4) -0.3681(8) 0.2705(4)
N11 N 0.1120(3) -0.2878(7) 0.2434(2)
C75 C 0.0841(5) -0.4943(11) 0.2662(5)
N12 N 0.0928(2) -0.1763(5) 0.2555(2)
C76 C 0.1654(3) -0.3096(7) 0.2064(3)
H46 H 0.1683 -0.3711 0.1808
H47 H 0.1822 -0.3349 0.2268
H48 H 0.1806 -0.2371 0.1870
F10 F 0.0414(3) -0.5565(5) 0.2961(3)
F11 F 0.1044(3) -0.5387(4) 0.2165(3)
F12 F 0.1163(2) -0.5294(4) 0.2843(2)
O11C O 0.13310(14) 0.1108(3) -0.24431(14)
O12C O 0.17080(14) 0.0602(3) -0.19447(14)
O17C O 0.17485(14) 0.2264(3) 0.30602(15)
O18C O 0.13268(14) 0.1889(3) 0.25926(14)
Zn3C Zn 0.37355(3) 0.78901(6) -0.24040(3)
Zn1C Zn 0.37713(2) 0.62222(6) -0.37838(3)
Zn2C Zn 0.37370(3) -0.32757(6) 0.11949(3)
Zn4C Zn 0.37880(3) -0.48855(6) 0.25284(3)
O19_2 O 0.17078(17) 0.1673(4) 0.41529(17)
Zn2_2 Zn 0.12630(3) 0.17243(6) -0.61949(3)
O25 O 0.42099(16) -0.0686(4) -0.03486(19)
O26 O 0.09161(17) 0.4424(5) 0.0396(2)
O27 O 0.09471(18) 0.3409(4) 0.13060(19)
O28 O 0.42194(18) -0.0121(6) -0.1342(2)
loop_
_geom_bond_atom_site_label_1
_geom_bond_atom_site_label_2
_geom_bond_site_symmetry_1
_geom_bond_site_symmetry_2
Zn1 O1 1_555 1_555
Zn2 O13 1_555 1_555
Zn3 O8 1_555 1_555
Zn4 O3 1_555 1_555
O1 C1 1_555 1_555
O2 C1 1_555 1_555
C1 C2 1_555 1_555
C2 C3 1_555 1_555
C3 H1 1_555 1_555
C4 C3 1_555 1_555
C5 C4 1_555 1_555
H2 C5 1_555 1_555
C6 C5 1_555 1_555
C7 C2 1_555 1_555
H3 C7 1_555 1_555
C8 C4 1_555 1_555
O3 C8 1_555 1_555
O4 C8 1_555 1_555
C9 C6 1_555 1_555
O5 C9 1_555 1_555
H4 O5 1_555 1_555
O6 C9 1_555 1_555
O7 Zn1 1_555 1_555
O8 C10 1_555 1_555
C10 O7 1_555 1_555
C11 C10 1_555 1_555
C12 C11 1_555 1_555
H5 C12 1_555 1_555
C13 C12 1_555 1_555
C14 C13 1_555 1_555
H6 C14 1_555 1_555
C15 C14 1_555 1_555
C16 C11 1_555 1_555
H7 C16 1_555 1_555
C17 C13 1_555 1_555
O9 C17 1_555 1_555
O10 C17 1_555 1_555
H8 O10 1_555 1_555
C18 C15 1_555 1_555
O11 C18 1_555 1_555
O12 C18 1_555 1_555
N1 Zn1 1_555 1_555
C19 N1 1_555 1_555
H9 C19 1_555 1_555
C20 C19 1_555 1_555
H10 C20 1_555 1_555
C21 C20 1_555 1_555
H11 C21 1_555 1_555
C22 C21 1_555 1_555
H12 C22 1_555 1_555
C23 N1 1_555 1_555
C24 C23 1_555 1_555
C25 C24 1_555 1_555
H13 C25 1_555 1_555
C26 C25 1_555 1_555
C27 C26 1_555 1_555
F1 C27 1_555 1_555
F2 C27 1_555 1_555
F3 C27 1_555 1_555
N2 C26 1_555 1_555
C28 N2 1_555 1_555
H14 C28 1_555 1_555
H15 C28 1_555 1_555
H16 C28 1_555 1_555
N3 Zn1 1_555 1_555
O13 C35 1_555 1_555
O14 Zn4 1_555 1_555
C29 C30 1_555 1_555
C30 H17 1_555 1_555
C31 C30 1_555 1_555
C32 C31 1_555 1_555
H18 C32 1_555 1_555
C33 C32 1_555 1_555
C34 C29 1_555 1_555
H19 C34 1_555 1_555
C35 O14 1_555 1_555
C36 C31 1_555 1_555
O15 C36 1_555 1_555
O16 C36 1_555 1_555
H20 O16 1_555 1_555
C37 C33 1_555 1_555
O17 C37 1_555 1_555
O18 C37 1_555 1_555
O19 C38 1_555 1_555
O20 C38 1_555 1_555
C38 C39 1_555 1_555
C39 C40 1_555 1_555
C40 H21 1_555 1_555
C41 C40 1_555 1_555
C42 C41 1_555 1_555
H22 C42 1_555 1_555
C43 C42 1_555 1_555
C44 C41 1_555 1_555
O21 Zn3 1_555 1_555
O22 Zn3 1_555 1_555
C45 C43 1_555 1_555
O23 C45 1_555 1_555
H23 O23 1_555 1_555
O24 C45 1_555 1_555
C46 C39 1_555 1_555
H24 C46 1_555 1_555
N4 Zn2 1_555 1_555
C47 N4 1_555 1_555
H25 C47 1_555 1_555
C48 C47 1_555 1_555
H26 C48 1_555 1_555
C49 C48 1_555 1_555
H27 C49 1_555 1_555
C50 C49 1_555 1_555
H28 C50 1_555 1_555
C51 N4 1_555 1_555
C52 C51 1_555 1_555
C53 C52 1_555 1_555
H29 C53 1_555 1_555
C54 C53 1_555 1_555
C55 C54 1_555 1_555
F4 C55 1_555 1_555
F5 C55 1_555 1_555
F6 C55 1_555 1_555
N5 C54 1_555 1_555
C56 N5 1_555 1_555
H30 C56 1_555 1_555
H31 C56 1_555 1_555
H32 C56 1_555 1_555
N6 Zn2 1_555 1_555
N7 Zn3 1_555 1_555
C57 N7 1_555 1_555
H33 C57 1_555 1_555
C58 C57 1_555 1_555
H34 C58 1_555 1_555
C59 C58 1_555 1_555
H35 C59 1_555 1_555
C60 C59 1_555 1_555
H36 C60 1_555 1_555
C61 N7 1_555 1_555
C62 C61 1_555 1_555
C63 C62 1_555 1_555
H37 C63 1_555 1_555
C64 C63 1_555 1_555
C65 C64 1_555 1_555
F7 C65 1_555 1_555
F8 C65 1_555 1_555
F9 C65 1_555 1_555
N8 C64 1_555 1_555
C66 N8 1_555 1_555
H38 C66 1_555 1_555
H39 C66 1_555 1_555
H40 C66 1_555 1_555
N9 Zn3 1_555 1_555
N10 Zn4 1_555 1_555
C67 N10 1_555 1_555
H41 C67 1_555 1_555
C68 C67 1_555 1_555
H42 C68 1_555 1_555
C69 C68 1_555 1_555
H43 C69 1_555 1_555
C70 C69 1_555 1_555
H44 C70 1_555 1_555
C71 N10 1_555 1_555
C72 C71 1_555 1_555
C73 C72 1_555 1_555
H45 C73 1_555 1_555
C74 C73 1_555 1_555
N11 C74 1_555 1_555
C75 C74 1_555 1_555
N12 Zn4 1_555 1_555
C76 N11 1_555 1_555
H46 C76 1_555 1_555
H47 C76 1_555 1_555
H48 C76 1_555 1_555
F10 C75 1_555 1_555
F11 C75 1_555 1_555
F12 C75 1_555 1_555
O11C Zn3 1_555 1_555
O12C Zn1 1_555 1_555
O17C Zn2 1_555 1_555
O18C Zn4 1_555 1_555
Zn3C O11 1_555 1_555
Zn1C O12 1_555 1_555
Zn2C O17 1_555 1_555
Zn4C O18 1_555 1_555
O19_2 Zn2 1_555 1_555
Zn2_2 O19 1_555 1_555
C6 C7 1_555 1_555
C15 C16 1_555 1_555
C22 C23 1_555 1_555
C24 N3 1_555 1_555
N2 N3 1_555 1_555
C29 C35 1_555 1_555
C33 C34 1_555 1_555
C43 C46 1_555 1_555
C44 O21 1_555 1_555
C44 O22 1_555 1_555
C50 C51 1_555 1_555
C52 N6 1_555 1_555
N5 N6 1_555 1_555
C60 C61 1_555 1_555
C62 N9 1_555 1_555
N8 N9 1_555 1_555
C70 C71 1_555 1_555
C72 N12 1_555 1_555
N11 N12 1_555 1_555

#END
