
#######################################################################
#
#                 Cambridge Crystallographic Data Centre
#                                CCDC 
#
#######################################################################
#
# If this CIF has been generated from an entry in the Cambridge 
# Structural Database, then it will include bibliographic, chemical, 
# crystal, experimental, refinement or atomic coordinate data resulting 
# from the CCDC's data processing and validation procedures.
#
#######################################################################

data_NEPQOO
_symmetry_cell_setting           monoclinic
_symmetry_space_group_name_H-M   'P 21/n'
_symmetry_Int_Tables_number      14
_space_group_name_Hall           '-P 2yn'
loop_
_symmetry_equiv_pos_site_id
_symmetry_equiv_pos_as_xyz
1 x,y,z
2 1/2+x,1/2-y,1/2+z
3 -x,-y,-z
4 1/2-x,1/2+y,1/2-z
_cell_length_a                   15.1118(7)
_cell_length_b                   10.8511(5)
_cell_length_c                   15.2521(7)
_cell_angle_alpha                90
_cell_angle_beta                 108.6160(10)
_cell_angle_gamma                90
_cell_volume                     2370.18
loop_
_atom_site_label
_atom_site_type_symbol
_atom_site_fract_x
_atom_site_fract_y
_atom_site_fract_z
Co1 Co 0.42993(2) 0.07411(2) 0.046424(19)
N1 N 0.51794(13) 0.03819(16) 0.18442(12)
C1 C 0.60433(18) 0.0817(2) 0.21942(17)
H1 H 0.6299 0.1248 0.1806
C2 C 0.6578(2) 0.0658(3) 0.31048(19)
H2 H 0.7180 0.0975 0.3327
C3 C 0.6204(2) 0.0024(3) 0.3674(2)
H3 H 0.6550 -0.0092 0.4293
C4 C 0.5313(2) -0.0443(3) 0.33300(19)
H4 H 0.5050 -0.0880 0.3709
C5 C 0.48153(17) -0.0246(2) 0.24044(15)
C6 C 0.38309(17) -0.0584(2) 0.19716(16)
N2 N 0.33598(13) 0.00096(16) 0.12011(13)
N3 N 0.24705(14) -0.04009(19) 0.09571(14)
C7 C 0.2350(2) -0.1264(3) 0.1541(2)
C8 C 0.3220(2) -0.1384(3) 0.2200(2)
C9 C 0.17935(19) 0.0242(3) 0.0190(2)
H5 H 0.1628 -0.0272 -0.0350
H6 H 0.2063 0.0995 0.0064
H7 H 0.1244 0.0425 0.0353
C10 C 0.1434(3) -0.1962(3) 0.1404(3)
C11 C 0.0686(4) -0.1082(7) 0.1495(6)
H8 H 0.0351 -0.0748 0.0898
H9 H 0.0974 -0.0424 0.1908
H10 H 0.0261 -0.1517 0.1736
C12 C 0.1099(5) -0.2537(8) 0.0510(5)
H11 H 0.0539 -0.2991 0.0459
H12 H 0.1566 -0.3088 0.0435
H13 H 0.0967 -0.1915 0.0037
C13 C 0.1553(5) -0.2821(9) 0.2156(7)
H14 H 0.1059 -0.2709 0.2418
H15 H 0.2143 -0.2676 0.2622
H16 H 0.1534 -0.3648 0.1927
N4 N 0.3503(3) -0.2188(4) 0.3006(3)
O1 O 0.3369(4) -0.1840(5) 0.3688(3)
O2 O 0.3925(4) -0.3057(4) 0.3015(3)
O3 O 0.43509(11) 0.25280(12) 0.08374(11)
O4 O 0.31561(12) 0.34053(14) -0.02389(13)
C14 C 0.38924(15) 0.34518(18) 0.04206(15)
C15 C 0.43107(14) 0.46919(17) 0.07605(14)
C16 C 0.39369(14) 0.57638(17) 0.02804(14)
H17 H 0.3390 0.5722 -0.0220
C17 C 0.43744(14) 0.68955(16) 0.05436(14)
C18 C 0.39712(15) 0.80247(17) -0.00084(14)
O5 O 0.31444(11) 0.80195(14) -0.04966(12)
O6 O 0.45205(10) 0.89620(12) 0.00714(10)
C19 C 0.51774(14) 0.69655(17) 0.13106(14)
H18 H 0.5473 0.7719 0.1490
C20 C 0.55365(14) 0.58996(17) 0.18083(13)
C21 C 0.63794(15) 0.59134(19) 0.26404(15)
O7 O 0.66970(14) 0.70209(16) 0.29275(14)
H19 H 0.710(2) 0.696(3) 0.335(2)
O8 O 0.67450(13) 0.49863(15) 0.30218(13)
C22 C 0.51137(14) 0.47711(18) 0.15209(14)
H20 H 0.5371 0.4059 0.1841
O9 O 0.33427(12) 0.11633(17) -0.08048(12)
H21 H 0.300(2) 0.073(3) -0.109(2)
H22 H 0.321(3) 0.189(4) -0.073(3)
O6_2 O 0.45205(10) -0.10380(12) 0.00714(10)
Co1_2 Co 0.42993(2) 1.07411(2) 0.046424(19)
Co1B Co 0.57007(2) 0.92589(2) -0.046424(19)
O6B O 0.54795(10) 0.10380(12) -0.00714(10)
loop_
_geom_bond_atom_site_label_1
_geom_bond_atom_site_label_2
_geom_bond_site_symmetry_1
_geom_bond_site_symmetry_2
Co1 N1 1_555 1_555
N1 C1 1_555 1_555
C1 H1 1_555 1_555
C2 C1 1_555 1_555
H2 C2 1_555 1_555
C3 C2 1_555 1_555
H3 C3 1_555 1_555
C4 C3 1_555 1_555
H4 C4 1_555 1_555
C5 N1 1_555 1_555
C6 C5 1_555 1_555
N2 Co1 1_555 1_555
N3 N2 1_555 1_555
C7 N3 1_555 1_555
C8 C6 1_555 1_555
C9 N3 1_555 1_555
H5 C9 1_555 1_555
H6 C9 1_555 1_555
H7 C9 1_555 1_555
C10 C7 1_555 1_555
C11 C10 1_555 1_555
H8 C11 1_555 1_555
H9 C11 1_555 1_555
H10 C11 1_555 1_555
C12 C10 1_555 1_555
H11 C12 1_555 1_555
H12 C12 1_555 1_555
H13 C12 1_555 1_555
C13 C10 1_555 1_555
H14 C13 1_555 1_555
H15 C13 1_555 1_555
H16 C13 1_555 1_555
N4 C8 1_555 1_555
O1 N4 1_555 1_555
O2 N4 1_555 1_555
O3 Co1 1_555 1_555
O4 C14 1_555 1_555
C14 O3 1_555 1_555
C15 C14 1_555 1_555
C16 C15 1_555 1_555
H17 C16 1_555 1_555
C17 C16 1_555 1_555
C18 C17 1_555 1_555
O5 C18 1_555 1_555
O6 C18 1_555 1_555
C19 C17 1_555 1_555
H18 C19 1_555 1_555
C20 C19 1_555 1_555
C21 C20 1_555 1_555
O7 C21 1_555 1_555
H19 O7 1_555 1_555
O8 C21 1_555 1_555
C22 C15 1_555 1_555
H20 C22 1_555 1_555
O9 Co1 1_555 1_555
H21 O9 1_555 1_555
H22 O9 1_555 1_555
O6_2 Co1 1_555 1_555
Co1_2 O6 1_555 1_555
Co1B O6 1_555 1_555
O6B Co1 1_555 1_555
C4 C5 1_555 1_555
C6 N2 1_555 1_555
C7 C8 1_555 1_555
C20 C22 1_555 1_555

#END
