
#######################################################################
#
#                 Cambridge Crystallographic Data Centre
#                                CCDC 
#
#######################################################################
#
# If this CIF has been generated from an entry in the Cambridge 
# Structural Database, then it will include bibliographic, chemical, 
# crystal, experimental, refinement or atomic coordinate data resulting 
# from the CCDC's data processing and validation procedures.
#
#######################################################################

data_NEPRUW
_symmetry_cell_setting           triclinic
_symmetry_space_group_name_H-M   'P -1'
_symmetry_Int_Tables_number      2
_space_group_name_Hall           '-P 1'
loop_
_symmetry_equiv_pos_site_id
_symmetry_equiv_pos_as_xyz
1 x,y,z
2 -x,-y,-z
_cell_length_a                   8.3189(19)
_cell_length_b                   9.672(2)
_cell_length_c                   10.780(2)
_cell_angle_alpha                71.522(4)
_cell_angle_beta                 82.222(4)
_cell_angle_gamma                78.459(4)
_cell_volume                     803.596
loop_
_atom_site_label
_atom_site_type_symbol
_atom_site_fract_x
_atom_site_fract_y
_atom_site_fract_z
Pb1 Pb 0.28102(3) 0.46204(3) 0.44119(2)
I1 I 0.02328(6) 0.25735(5) 0.49997(4)
I2 I 0.44377(7) 0.31888(6) 0.70877(4)
N1 N 0.4746(7) 0.2732(5) 0.3606(5)
N2 N 0.5664(7) 0.1543(5) 0.2145(5)
N3 N 0.3661(6) 0.3697(5) 0.1431(5)
N4 N 0.2709(7) 0.4669(6) 0.1845(5)
C1 C 0.5896(8) 0.1527(7) 0.4135(7)
H1 H 0.6234 0.1248 0.4980
C2 C 0.6467(9) 0.0801(8) 0.3219(7)
H2 H 0.7260 -0.0046 0.3323
C3 C 0.4635(8) 0.2690(7) 0.2395(6)
C4 C 0.5887(10) 0.1180(8) 0.0890(7)
H3 H 0.5145 0.1879 0.0288
H4 H 0.5659 0.0202 0.1045
H5 H 0.7000 0.1225 0.0522
C5 C 0.1749(8) 0.5736(6) 0.0881(6)
C6 C 0.1863(8) 0.5770(7) -0.0412(6)
H6 H 0.2600 0.5058 -0.0704
C7 C 0.0854(9) 0.6892(7) -0.1289(6)
H7 H 0.0920 0.6904 -0.2160
C8 C -0.0233(8) 0.7976(7) -0.0888(6)
C9 C -0.0384(9) 0.7911(8) 0.0422(7)
H8 H -0.1153 0.8597 0.0723
C10 C 0.0638(9) 0.6796(7) 0.1293(7)
H9 H 0.0564 0.6773 0.2168
C11 C -0.1303(9) 0.9167(7) -0.1839(7)
H10 H -0.1981 0.9816 -0.1391
H11 H -0.1988 0.8725 -0.2199
H12 H -0.0622 0.9721 -0.2534
Pb1A Pb -0.28102(3) 0.53796(3) 0.55881(2)
Pb1A_2 Pb 0.71898(3) 0.53796(3) 0.55881(2)
I1A I -0.02328(6) 0.74265(5) 0.50003(4)
I2A I 0.55623(7) 0.68112(6) 0.29123(4)
loop_
_geom_bond_atom_site_label_1
_geom_bond_atom_site_label_2
_geom_bond_site_symmetry_1
_geom_bond_site_symmetry_2
Pb1 I1 1_555 1_555
I1 Pb1A 1_555 1_555
I2 Pb1 1_555 1_555
N1 Pb1 1_555 1_555
N2 C2 1_555 1_555
N3 N4 1_555 1_555
N4 Pb1 1_555 1_555
C1 N1 1_555 1_555
H1 C1 1_555 1_555
C2 C1 1_555 1_555
H2 C2 1_555 1_555
C3 N1 1_555 1_555
C4 N2 1_555 1_555
H3 C4 1_555 1_555
H4 C4 1_555 1_555
H5 C4 1_555 1_555
C5 N4 1_555 1_555
C6 C5 1_555 1_555
H6 C6 1_555 1_555
C7 C6 1_555 1_555
H7 C7 1_555 1_555
C8 C7 1_555 1_555
C9 C8 1_555 1_555
H8 C9 1_555 1_555
C10 C5 1_555 1_555
H9 C10 1_555 1_555
C11 C8 1_555 1_555
H10 C11 1_555 1_555
H11 C11 1_555 1_555
H12 C11 1_555 1_555
Pb1A I1A 1_555 1_555
Pb1A_2 I2 1_555 1_555
I1A Pb1 1_555 1_555
I2A Pb1 1_555 1_555
N2 C3 1_555 1_555
N3 C3 1_555 1_555
C9 C10 1_555 1_555
Pb1A_2 I2A 1_555 1_555

#END
