
#######################################################################
#
#                 Cambridge Crystallographic Data Centre
#                                CCDC 
#
#######################################################################
#
# If this CIF has been generated from an entry in the Cambridge 
# Structural Database, then it will include bibliographic, chemical, 
# crystal, experimental, refinement or atomic coordinate data resulting 
# from the CCDC's data processing and validation procedures.
#
#######################################################################

data_NEPRUX
_symmetry_cell_setting           monoclinic
_symmetry_space_group_name_H-M   'P 21'
_symmetry_Int_Tables_number      4
_space_group_name_Hall           'P 2yb'
loop_
_symmetry_equiv_pos_site_id
_symmetry_equiv_pos_as_xyz
1 x,y,z
2 -x,1/2+y,-z
_cell_length_a                   4.62730(10)
_cell_length_b                   15.8565(3)
_cell_length_c                   6.1719(2)
_cell_angle_alpha                90
_cell_angle_beta                 95.598(2)
_cell_angle_gamma                90
_cell_volume                     450.69
loop_
_atom_site_label
_atom_site_type_symbol
_atom_site_fract_x
_atom_site_fract_y
_atom_site_fract_z
O1 O 0.5316(3) 0.40681(8) 0.6101(2)
O2 O 0.4586(3) 0.48672(8) 0.0630(2)
C1 C 0.4874(4) 0.27654(10) 0.4273(3)
N1 N 0.5051(4) 0.14644(9) 0.2348(2)
N2 N 0.6499(3) 0.31421(9) 0.2871(2)
N3 N 0.1867(3) 0.47658(9) 0.0539(2)
O3 O 0.2330(4) 0.31513(9) 0.7378(3)
C2 C 0.2425(4) 0.13507(11) 0.5462(3)
C3 C 0.4152(4) 0.19074(10) 0.4027(3)
O4 O 0.0838(3) 0.43786(9) 0.2022(3)
O5 O 0.0354(3) 0.50501(10) -0.1046(2)
C4 C 0.6615(4) 0.18550(12) 0.0970(3)
H1 H 0.7223 0.1559 -0.0205
C5 C 0.4118(4) 0.33782(11) 0.6048(3)
C6 C 0.7368(5) 0.27000(11) 0.1245(3)
H2 H 0.8500 0.2957 0.0269
Li1 Li 0.7058(7) 0.44849(19) 0.3298(5)
Li2 Li 0.6097(7) 0.5133(2) 0.7756(5)
O6 O 0.2524(3) 0.05895(8) 0.5143(2)
O7 O 0.1008(4) 0.16985(8) 0.6880(3)
H3 H 0.153(8) 0.252(2) 0.713(6)
O2_2 O 0.4586(3) 0.48672(8) 1.0630(2)
N1A N 0.4949(4) 0.64644(9) 0.7652(2)
O4_2 O 1.0838(3) 0.43786(9) 0.2022(3)
O5_2 O 1.0354(3) 0.50501(10) 0.8954(2)
Li1_2 Li -0.2942(7) 0.44849(19) 0.3298(5)
Li1A Li 0.2942(7) -0.05151(19) 0.6702(5)
Li2_2 Li 0.6097(7) 0.5133(2) -0.2244(5)
Li2A Li 0.3903(7) 0.0133(2) 0.2244(5)
Li2_3 Li -0.3903(7) 0.5133(2) -0.2244(5)
O6A O 0.7476(3) 0.55895(8) 0.4857(2)
loop_
_geom_bond_atom_site_label_1
_geom_bond_atom_site_label_2
_geom_bond_site_symmetry_1
_geom_bond_site_symmetry_2
O1 C5 1_555 1_555
O2 N3 1_555 1_555
C1 N2 1_555 1_555
N1 C3 1_555 1_555
N2 C6 1_555 1_555
N3 O4 1_555 1_555
O3 C5 1_555 1_555
C2 C3 1_555 1_555
C3 C1 1_555 1_555
O4 Li1_2 1_555 1_555
O5 N3 1_555 1_555
C4 N1 1_555 1_555
H1 C4 1_555 1_555
C5 C1 1_555 1_555
C6 C4 1_555 1_555
H2 C6 1_555 1_555
Li1 O1 1_555 1_555
Li2 O1 1_555 1_555
O6 C2 1_555 1_555
O7 C2 1_555 1_555
H3 O3 1_555 1_555
O2_2 Li2 1_555 1_555
N1A Li2 1_555 1_555
O4_2 Li1 1_555 1_555
O5_2 Li2 1_555 1_555
Li1A O6 1_555 1_555
Li2_2 O2 1_555 1_555
Li2A N1 1_555 1_555
Li2_3 O5 1_555 1_555
O6A Li1 1_555 1_555
O2 Li1 1_555 1_555
N2 Li1 1_555 1_555
Li2 O6A 1_555 1_555
O6 Li2A 1_555 1_555

#END
