
#######################################################################
#
#                 Cambridge Crystallographic Data Centre
#                                CCDC 
#
#######################################################################
#
# If this CIF has been generated from an entry in the Cambridge 
# Structural Database, then it will include bibliographic, chemical, 
# crystal, experimental, refinement or atomic coordinate data resulting 
# from the CCDC's data processing and validation procedures.
#
#######################################################################

data_NEPSAD
_symmetry_cell_setting           triclinic
_symmetry_space_group_name_H-M   'P -1'
_symmetry_Int_Tables_number      2
_space_group_name_Hall           '-P 1'
loop_
_symmetry_equiv_pos_site_id
_symmetry_equiv_pos_as_xyz
1 x,y,z
2 -x,-y,-z
_cell_length_a                   7.6184(2)
_cell_length_b                   8.2028(2)
_cell_length_c                   19.1793(7)
_cell_angle_alpha                95.0490(10)
_cell_angle_beta                 95.8990(10)
_cell_angle_gamma                107.527(2)
_cell_volume                     1127.89
loop_
_atom_site_label
_atom_site_type_symbol
_atom_site_fract_x
_atom_site_fract_y
_atom_site_fract_z
Co1 Co 0.0000 0.0000 0.5000
Co2 Co 0.0000 0.5000 0.5000
O1 O 0.1090(2) 0.2775(2) 0.47986(10)
H1 H 0.203(4) 0.313(4) 0.4955(18)
H2 H 0.102(5) 0.236(5) 0.423(2)
O2 O 0.0313(3) 0.5841(3) 0.40175(10)
H3 H -0.013(4) 0.513(4) 0.3616(18)
H4 H 0.007(4) 0.669(5) 0.3957(18)
O3 O -0.2688(2) 0.3637(3) 0.46531(11)
H5 H -0.308(4) 0.283(4) 0.4234(19)
H6 H -0.331(5) 0.374(5) 0.490(2)
O5 O 0.2623(2) -0.0073(2) 0.49670(11)
H7 H 0.348(5) 0.004(5) 0.538(2)
H8 H 0.307(5) -0.037(4) 0.465(2)
O7 O -0.0584(2) -0.0977(2) 0.39406(9)
O9 O 0.0796(2) 0.1441(2) 0.34981(9)
O13 O 0.0821(2) 0.1095(2) 0.20990(9)
O14 O -0.3407(2) -0.3671(2) 0.07613(9)
N2 N -0.1296(3) -0.1285(3) 0.14345(11)
C2 C -0.0182(3) -0.0115(3) 0.34245(13)
C7 C -0.2593(3) -0.2796(3) 0.14052(14)
C8 C -0.0519(3) -0.0440(3) 0.20729(13)
C9 C -0.1005(3) -0.1057(3) 0.27096(13)
C10 C -0.3204(3) -0.3557(3) 0.19914(14)
H16 H -0.414(4) -0.461(4) 0.1961(15)
C11 C -0.2381(3) -0.2655(3) 0.26414(14)
H17 H -0.280(3) -0.308(3) 0.3001(15)
C15 C -0.2767(4) -0.2882(4) 0.01556(16)
H25 H -0.302(4) -0.173(4) 0.0155(16)
H26 H -0.147(4) -0.276(4) 0.0178(17)
H27 H -0.341(5) -0.368(5) -0.0224(19)
C16 C 0.1263(4) 0.1727(4) 0.14455(15)
H28 H 0.027(4) 0.203(4) 0.1246(17)
H29 H 0.233(4) 0.281(4) 0.1622(15)
H30 H 0.166(4) 0.093(4) 0.1214(17)
Co2_2 Co 0.0000 -0.5000 0.5000
O1A O -0.1090(2) -0.2775(2) 0.52014(10)
O1A_2 O -0.1090(2) 0.7225(2) 0.52014(10)
H1A H -0.203(4) -0.313(4) 0.5045(18)
H1A_2 H -0.203(4) 0.687(4) 0.5045(18)
H2A H -0.102(5) -0.236(5) 0.577(2)
H2A_2 H -0.102(5) 0.764(5) 0.577(2)
O2A O -0.0313(3) 0.4159(3) 0.59825(10)
H3A H 0.013(4) 0.487(4) 0.6384(18)
H4A H -0.007(4) 0.331(5) 0.6043(18)
O3A O 0.2688(2) 0.6363(3) 0.53469(11)
H5A H 0.308(4) 0.717(4) 0.5766(19)
H6A H 0.331(5) 0.626(5) 0.510(2)
O5A O -0.2623(2) 0.0073(2) 0.50330(11)
H7A H -0.348(5) -0.004(5) 0.462(2)
H8A H -0.307(5) 0.037(4) 0.535(2)
O7A O 0.0584(2) 0.0977(2) 0.60594(9)
O9A O -0.0796(2) -0.1441(2) 0.65019(9)
O13A O -0.0821(2) -0.1095(2) 0.79010(9)
O14A O 0.3407(2) 0.3671(2) 0.92387(9)
N2A N 0.1296(3) 0.1285(3) 0.85655(11)
C2A C 0.0182(3) 0.0115(3) 0.65755(13)
C7A C 0.2593(3) 0.2796(3) 0.85948(14)
C8A C 0.0519(3) 0.0440(3) 0.79271(13)
C9A C 0.1005(3) 0.1057(3) 0.72904(13)
C10A C 0.3204(3) 0.3557(3) 0.80086(14)
H16A H 0.414(4) 0.461(4) 0.8039(15)
C11A C 0.2381(3) 0.2655(3) 0.73586(14)
H17A H 0.280(3) 0.308(3) 0.6999(15)
C15A C 0.2767(4) 0.2882(4) 0.98444(16)
H25A H 0.302(4) 0.173(4) 0.9845(16)
H26A H 0.147(4) 0.276(4) 0.9822(17)
H27A H 0.341(5) 0.368(5) 1.0224(19)
C16A C -0.1263(4) -0.1727(4) 0.85545(15)
H28A H -0.027(4) -0.203(4) 0.8754(17)
H29A H -0.233(4) -0.281(4) 0.8378(15)
H30A H -0.166(4) -0.093(4) 0.8786(17)
O4 O -0.3872(2) 0.1549(2) 0.34395(9)
O8 O -0.4239(2) 0.1222(2) 0.20250(9)
O10 O -0.5310(2) -0.0762(2) 0.39262(9)
O12 O -0.8417(2) -0.3687(2) 0.07742(9)
N1 N -0.6312(3) -0.1239(3) 0.14107(11)
C1 C -0.5883(3) -0.0926(3) 0.26839(13)
C3 C -0.5501(3) -0.0345(3) 0.20341(13)
C4 C -0.4952(3) 0.0028(3) 0.33895(13)
C5 C -0.8094(3) -0.3489(3) 0.20090(14)
H15 H -0.902(4) -0.456(4) 0.1996(15)
C6 C -0.7572(3) -0.2770(3) 0.14077(14)
C12 C -0.3803(4) 0.1732(4) 0.13517(15)
H18 H -0.480(4) 0.186(4) 0.1121(16)
H19 H -0.334(4) 0.095(4) 0.1115(17)
H20 H -0.275(4) 0.289(4) 0.1488(15)
C13 C -0.7214(3) -0.2545(3) 0.26457(14)
H21 H -0.751(3) -0.293(3) 0.3015(16)
C14 C -0.7818(4) -0.2953(4) 0.01541(15)
H22 H -0.655(4) -0.283(4) 0.0145(16)
H23 H -0.803(4) -0.186(4) 0.0154(16)
H24 H -0.857(4) -0.375(4) -0.0227(18)
O6 O -0.5852(3) 0.3892(3) 0.31863(12)
H9 H -0.520(6) 0.321(5) 0.313(2)
H10 H -0.702(6) 0.307(5) 0.309(2)
O11 O -0.4735(2) 0.6330(3) 0.44099(11)
H11 H -0.493(5) 0.712(5) 0.415(2)
H12 H -0.500(5) 0.555(5) 0.406(2)
O15 O -0.0895(3) 0.3647(3) 0.28344(10)
H13 H -0.026(5) 0.300(5) 0.2858(18)
H14 H -0.185(5) 0.302(4) 0.2851(18)
loop_
_geom_bond_atom_site_label_1
_geom_bond_atom_site_label_2
_geom_bond_site_symmetry_1
_geom_bond_site_symmetry_2
Co1 O1 1_555 1_555
Co2 O1 1_555 1_555
O1 H1 1_555 1_555
H2 O1 1_555 1_555
O2 Co2 1_555 1_555
H3 O2 1_555 1_555
H4 O2 1_555 1_555
O3 Co2 1_555 1_555
H5 O3 1_555 1_555
H6 O3 1_555 1_555
O4 C4 1_555 1_555
O5 Co1 1_555 1_555
H7 O5 1_555 1_555
H8 O5 1_555 1_555
O6 H9 1_555 1_555
H10 O6 1_555 1_555
O7 Co1 1_555 1_555
O8 C3 1_555 1_555
O9 C2 1_555 1_555
O10 C4 1_555 1_555
O11 H11 1_555 1_555
H12 O11 1_555 1_555
O12 C6 1_555 1_555
O13 C8 1_555 1_555
O14 C7 1_555 1_555
O15 H13 1_555 1_555
H14 O15 1_555 1_555
N1 C3 1_555 1_555
N2 C7 1_555 1_555
C1 C3 1_555 1_555
C2 O7 1_555 1_555
C4 C1 1_555 1_555
C5 H15 1_555 1_555
C6 N1 1_555 1_555
C7 C10 1_555 1_555
C8 N2 1_555 1_555
C9 C2 1_555 1_555
C10 H16 1_555 1_555
C11 C9 1_555 1_555
H17 C11 1_555 1_555
C12 O8 1_555 1_555
H18 C12 1_555 1_555
H19 C12 1_555 1_555
H20 C12 1_555 1_555
C13 C1 1_555 1_555
H21 C13 1_555 1_555
C14 O12 1_555 1_555
H22 C14 1_555 1_555
H23 C14 1_555 1_555
H24 C14 1_555 1_555
C15 O14 1_555 1_555
H25 C15 1_555 1_555
H26 C15 1_555 1_555
H27 C15 1_555 1_555
C16 O13 1_555 1_555
H28 C16 1_555 1_555
H29 C16 1_555 1_555
H30 C16 1_555 1_555
Co2_2 O1A 1_555 1_555
O1A Co1 1_555 1_555
O1A_2 Co2 1_555 1_555
H1A O1A 1_555 1_555
H1A_2 O1A_2 1_555 1_555
H2A O1A 1_555 1_555
H2A_2 O1A_2 1_555 1_555
O2A Co2 1_555 1_555
H3A O2A 1_555 1_555
H4A O2A 1_555 1_555
O3A Co2 1_555 1_555
H5A O3A 1_555 1_555
H6A O3A 1_555 1_555
O5A Co1 1_555 1_555
H7A O5A 1_555 1_555
H8A O5A 1_555 1_555
O7A Co1 1_555 1_555
O9A C2A 1_555 1_555
O13A C8A 1_555 1_555
O14A C7A 1_555 1_555
N2A C7A 1_555 1_555
C2A O7A 1_555 1_555
C7A C10A 1_555 1_555
C8A N2A 1_555 1_555
C9A C2A 1_555 1_555
C10A H16A 1_555 1_555
C11A C9A 1_555 1_555
H17A C11A 1_555 1_555
C15A O14A 1_555 1_555
H25A C15A 1_555 1_555
H26A C15A 1_555 1_555
H27A C15A 1_555 1_555
C16A O13A 1_555 1_555
H28A C16A 1_555 1_555
H29A C16A 1_555 1_555
H30A C16A 1_555 1_555
C5 C6 1_555 1_555
C5 C13 1_555 1_555
C8 C9 1_555 1_555
C10 C11 1_555 1_555
C8A C9A 1_555 1_555
C10A C11A 1_555 1_555

#END
