
#######################################################################
#
#                 Cambridge Crystallographic Data Centre
#                                CCDC 
#
#######################################################################
#
# If this CIF has been generated from an entry in the Cambridge 
# Structural Database, then it will include bibliographic, chemical, 
# crystal, experimental, refinement or atomic coordinate data resulting 
# from the CCDC's data processing and validation procedures.
#
#######################################################################

data_NEPWEK
_symmetry_cell_setting           monoclinic
_symmetry_space_group_name_H-M   'P 21'
_symmetry_Int_Tables_number      4
_space_group_name_Hall           'P 2yb'
loop_
_symmetry_equiv_pos_site_id
_symmetry_equiv_pos_as_xyz
1 x,y,z
2 -x,1/2+y,-z
_cell_length_a                   9.9730(2)
_cell_length_b                   32.1410(6)
_cell_length_c                   11.2750(2)
_cell_angle_alpha                90
_cell_angle_beta                 110.8010(8)
_cell_angle_gamma                90
_cell_volume                     3378.54
loop_
_atom_site_label
_atom_site_type_symbol
_atom_site_fract_x
_atom_site_fract_y
_atom_site_fract_z
N1 N 0.3771(7) 0.4391(3) 0.1055(6)
N2 N 0.6010(8) 0.3894(3) 0.0806(7)
N3 N 0.6428(7) 0.4480(3) -0.0969(6)
N4 N 0.4173(8) 0.4998(2) -0.0704(7)
C1 C 0.3125(10) 0.5198(3) -0.0420(8)
C2 C 0.2473(10) 0.5070(3) 0.0444(8)
C3 C 0.2800(10) 0.4686(3) 0.1134(9)
C4 C 0.2211(10) 0.4580(3) 0.2066(8)
H1 H 0.1511 0.4732 0.2277
C5 C 0.2841(11) 0.4218(3) 0.2600(9)
H2 H 0.2667 0.4071 0.3262
C6 C 0.3810(10) 0.4098(3) 0.1992(8)
C7 C 0.4703(10) 0.3753(3) 0.2265(8)
C8 C 0.5691(11) 0.3651(3) 0.1691(9)
C9 C 0.6588(12) 0.3279(3) 0.1962(10)
H3 H 0.6577 0.3064 0.2534
C10 C 0.7428(11) 0.3293(3) 0.1267(9)
H4 H 0.8124 0.3093 0.1258
C11 C 0.7071(11) 0.3674(3) 0.0531(9)
C12 C 0.7696(10) 0.3824(3) -0.0325(8)
C13 C 0.7370(9) 0.4181(3) -0.1028(8)
C14 C 0.7961(10) 0.4301(3) -0.2000(9)
H5 H 0.8646 0.4152 -0.2240
C15 C 0.7339(10) 0.4666(3) -0.2487(9)
H6 H 0.7506 0.4821 -0.3139
C16 C 0.6377(10) 0.4780(3) -0.1843(8)
C17 C 0.5487(10) 0.5137(3) -0.2141(8)
C18 C 0.4444(11) 0.5234(3) -0.1611(9)
C19 C 0.3556(11) 0.5596(4) -0.1873(10)
H7 H 0.3529 0.5809 -0.2464
C20 C 0.2754(11) 0.5577(3) -0.1117(9)
H8 H 0.2079 0.5778 -0.1064
C21 C 0.1363(11) 0.5337(3) 0.0646(8)
C22 C 0.1795(11) 0.5707(3) 0.1282(9)
H9 H 0.2782 0.5781 0.1603
C23 C 0.0768(12) 0.5976(4) 0.1452(10)
H10 H 0.1047 0.6243 0.1821
C24 C -0.0670(11) 0.5851(3) 0.1080(9)
C25 C -0.1105(11) 0.5477(3) 0.0420(10)
H11 H -0.2089 0.5400 0.0096
C26 C -0.0075(10) 0.5221(3) 0.0250(9)
H12 H -0.0355 0.4958 -0.0148
C27 C -0.1705(12) 0.6124(4) 0.1307(11)
O1 O -0.1371(9) 0.6474(3) 0.1873(7)
O2 O -0.3006(9) 0.6000(3) 0.0924(8)
H13 H -0.3803 0.6018 0.0118
C28 C 0.4590(10) 0.3462(3) 0.3281(9)
C29 C 0.5798(10) 0.3377(3) 0.4330(8)
H14 H 0.6696 0.3495 0.4399
C30 C 0.5698(10) 0.3121(3) 0.5274(9)
H15 H 0.6519 0.3075 0.6014
C31 C 0.4404(11) 0.2929(3) 0.5155(8)
C32 C 0.3230(11) 0.3002(3) 0.4129(8)
H16 H 0.2348 0.2874 0.4061
C33 C 0.3286(11) 0.3263(3) 0.3164(9)
H17 H 0.2454 0.3308 0.2433
C34 C 0.4285(12) 0.2629(3) 0.6157(9)
O3 O 0.3175(9) 0.2472(2) 0.6100(7)
O4 O 0.5499(7) 0.2578(3) 0.7133(6)
H18 H 0.5263 0.2438 0.7765
C35 C 0.8796(11) 0.3538(3) -0.0523(9)
C36 C 1.0225(11) 0.3659(4) -0.0089(9)
H19 H 1.0515 0.3912 0.0365
C37 C 1.1240(12) 0.3400(3) -0.0329(9)
H20 H 1.221(9) 0.349(3) -0.007(8)
C38 C 1.0831(12) 0.3021(3) -0.0942(10)
C39 C 0.9439(13) 0.2909(3) -0.1377(11)
H21 H 0.9153 0.2660 -0.1854
C40 C 0.8419(11) 0.3153(3) -0.1137(9)
H22 H 0.7456 0.3058 -0.1390
C41 C 1.1909(15) 0.2733(3) -0.1221(11)
O5 O 1.1563(10) 0.2423(2) -0.1761(9)
O6 O 1.3254(9) 0.2892(3) -0.0762(9)
H23 H 1.3870 0.2680 -0.0903
C42 C 0.5590(10) 0.5421(3) -0.3160(8)
C43 C 0.4416(10) 0.5483(3) -0.4260(9)
H24 H 0.3554 0.5335 -0.4373
C44 C 0.4462(12) 0.5758(3) -0.5215(10)
H25 H 0.3626 0.5806 -0.5939
C45 C 0.5723(10) 0.5954(3) -0.5094(10)
C46 C 0.6963(12) 0.5875(3) -0.3988(10)
H26 H 0.7851 0.6005 -0.3894
C47 C 0.6866(11) 0.5607(4) -0.3053(10)
H27 H 0.7696 0.5551 -0.2329
C48 C 0.5862(11) 0.6227(3) -0.6074(9)
O7 O 0.6992(8) 0.6399(2) -0.6007(6)
O8 O 0.4660(7) 0.6298(2) -0.7010(7)
H28 H 0.4855 0.6406 -0.7717
Zn1 Zn 0.50765(13) 0.44397(10) 0.00530(11)
Na1 Na -0.2181(3) 0.69430(15) 0.3035(2)
C49 C -0.4753(16) 0.6587(4) -0.1419(12)
H29 H -0.4769 0.6330 -0.1008
C50 C -0.468(2) 0.6578(5) -0.2590(14)
H30 H -0.4561 0.6320 -0.2956
C51 C -0.4770(11) 0.6964(5) -0.3288(9)
H31 H -0.4754 0.6966 -0.4125
C52 C -0.4878(17) 0.7304(5) -0.2720(12)
H32 H -0.4901 0.7563 -0.3137
C53 C -0.496(2) 0.7303(5) -0.1487(13)
H33 H -0.5123 0.7555 -0.1120
C54 C -0.4806(7) 0.6932(4) -0.0821(5)
C55 C -0.4872(6) 0.6938(4) 0.0481(5)
O9 O -0.4804(10) 0.6598(3) 0.1052(7)
O10 O -0.5005(10) 0.7281(3) 0.0946(8)
C56 C 0.1473(13) 0.6739(4) 0.8236(11)
H34 H 0.2315 0.6618 0.8175
C57 C 0.1276(13) 0.6756(4) 0.9411(11)
H35 H 0.1995 0.6653 1.0157
C58 C 0.0020(12) 0.6924(6) 0.9462(10)
H36 H -0.0063 0.7020 1.0231
C59 C -0.1054(14) 0.6941(10) 0.8366(13)
H37 H -0.2003 0.6929 0.8371
C60 C -0.0874(11) 0.6976(8) 0.7209(10)
H38 H -0.1659 0.7050 0.6468
C61 C 0.0403(8) 0.6905(6) 0.7147(7)
C62 C 0.0563(10) 0.6929(7) 0.5883(9)
O11 O -0.0361(7) 0.6961(5) 0.4910(6)
O12 O 0.1828(9) 0.6735(3) 0.5922(8)
C63 C 0.203(3) 0.6714(7) 0.4581(18)
H39 H 0.2939 0.6574 0.4659
H40 H 0.1224 0.6562 0.3954
C64 C 0.2046(17) 0.7125(5) 0.422(2)
H41 H 0.1076 0.7241 0.3968
H42 H 0.2385 0.7140 0.3507
H43 H 0.2691 0.7285 0.4938
Na1A Na 0.2181(3) 0.19430(15) 0.6965(2)
Na1A_2 Na 1.2181(3) 0.19430(15) -0.3035(2)
Na1_2 Na 0.7819(3) 0.69430(15) -0.6965(2)
O3A O -0.3175(9) 0.7472(2) 0.3900(7)
O5A O -0.1563(10) 0.7423(2) 0.1761(9)
O7_2 O -0.3008(8) 0.6399(2) 0.3993(6)
C65 C 0.7206(10) 0.4474(4) 0.4238(9)
H44 H 0.7351 0.4287 0.4926
C66 C 0.6176(10) 0.4791(3) 0.4016(9)
H45 H 0.5604 0.4810 0.4531
C67 C 0.5997(13) 0.5070(3) 0.3064(11)
H46 H 0.5291 0.5281 0.2920
C68 C 0.6809(12) 0.5052(4) 0.2309(12)
H47 H 0.6675 0.5253 0.1657
C69 C 0.7799(13) 0.4750(4) 0.2495(10)
H48 H 0.8371 0.4747 0.1978
C70 C 0.8028(9) 0.4429(4) 0.3454(8)
C71 C 0.9083(12) 0.4123(3) 0.3575(10)
O13 O 0.9890(8) 0.4106(3) 0.2991(8)
O14 O 0.9143(7) 0.3843(2) 0.4492(7)
C72 C 1.0212(11) 0.3514(3) 0.4680(11)
H49 H 1.1196 0.3630 0.5012
H50 H 1.0073 0.3366 0.3876
C73 C 0.9953(13) 0.3227(4) 0.5640(17)
H51 H 1.0082 0.3382 0.6422
H52 H 1.0637 0.2996 0.5826
H53 H 0.8973 0.3118 0.5294
C74 C 0.2966(9) 0.4387(3) 0.5882(8)
H54 H 0.2825 0.4586 0.5227
C75 C 0.3981(12) 0.4076(4) 0.6078(11)
H55 H 0.4536 0.4062 0.5547
C76 C 0.4201(12) 0.3784(4) 0.7043(10)
H56 H 0.4892 0.3569 0.7171
C77 C 0.3374(12) 0.3817(3) 0.7816(9)
H57 H 0.3511 0.3620 0.8478
C78 C 0.2345(11) 0.4133(3) 0.7638(10)
H58 H 0.1804 0.4158 0.8179
C79 C 0.2157(10) 0.4402(4) 0.6659(8)
C80 C 0.1033(13) 0.4749(4) 0.6475(10)
O15 O 0.0281(9) 0.4762(3) 0.7096(8)
O16 O 0.1032(7) 0.5034(2) 0.5609(7)
C81 C 0.0006(11) 0.5366(4) 0.5434(14)
H59 H 0.0172 0.5506 0.6255
H60 H -0.0976 0.5249 0.5132
C82 C 0.0138(14) 0.5672(5) 0.4500(14)
H61 H -0.0642 0.5875 0.4312
H62 H 0.0081 0.5528 0.3718
H63 H 0.1062 0.5816 0.4852
loop_
_geom_bond_atom_site_label_1
_geom_bond_atom_site_label_2
_geom_bond_site_symmetry_1
_geom_bond_site_symmetry_2
N1 C3 1_555 1_555
N2 C8 1_555 1_555
N3 C13 1_555 1_555
N4 C1 1_555 1_555
C1 C2 1_555 1_555
C2 C3 1_555 1_555
C3 C4 1_555 1_555
C4 H1 1_555 1_555
C5 C4 1_555 1_555
H2 C5 1_555 1_555
C6 N1 1_555 1_555
C7 C6 1_555 1_555
C8 C7 1_555 1_555
C9 C8 1_555 1_555
H3 C9 1_555 1_555
C10 C9 1_555 1_555
H4 C10 1_555 1_555
C11 N2 1_555 1_555
C12 C11 1_555 1_555
C13 C12 1_555 1_555
C14 C13 1_555 1_555
H5 C14 1_555 1_555
C15 C14 1_555 1_555
H6 C15 1_555 1_555
C16 N3 1_555 1_555
C17 C16 1_555 1_555
C18 N4 1_555 1_555
C19 C18 1_555 1_555
H7 C19 1_555 1_555
C20 C1 1_555 1_555
H8 C20 1_555 1_555
C21 C2 1_555 1_555
C22 C21 1_555 1_555
H9 C22 1_555 1_555
C23 C22 1_555 1_555
H10 C23 1_555 1_555
C24 C23 1_555 1_555
C25 C24 1_555 1_555
H11 C25 1_555 1_555
C26 C21 1_555 1_555
H12 C26 1_555 1_555
C27 C24 1_555 1_555
O1 C27 1_555 1_555
O2 C27 1_555 1_555
H13 O2 1_555 1_555
C28 C7 1_555 1_555
C29 C28 1_555 1_555
H14 C29 1_555 1_555
C30 C29 1_555 1_555
H15 C30 1_555 1_555
C31 C30 1_555 1_555
C32 C31 1_555 1_555
H16 C32 1_555 1_555
C33 C28 1_555 1_555
H17 C33 1_555 1_555
C34 C31 1_555 1_555
O3 C34 1_555 1_555
O4 C34 1_555 1_555
H18 O4 1_555 1_555
C35 C12 1_555 1_555
C36 C35 1_555 1_555
H19 C36 1_555 1_555
C37 C36 1_555 1_555
H20 C37 1_555 1_555
C38 C37 1_555 1_555
C39 C38 1_555 1_555
H21 C39 1_555 1_555
C40 C35 1_555 1_555
H22 C40 1_555 1_555
C41 C38 1_555 1_555
O5 C41 1_555 1_555
O6 C41 1_555 1_555
H23 O6 1_555 1_555
C42 C17 1_555 1_555
C43 C42 1_555 1_555
H24 C43 1_555 1_555
C44 C43 1_555 1_555
H25 C44 1_555 1_555
C45 C44 1_555 1_555
C46 C45 1_555 1_555
H26 C46 1_555 1_555
C47 C42 1_555 1_555
H27 C47 1_555 1_555
C48 C45 1_555 1_555
O7 C48 1_555 1_555
O8 C48 1_555 1_555
H28 O8 1_555 1_555
Zn1 N1 1_555 1_555
Na1 O1 1_555 1_555
C49 H29 1_555 1_555
C50 C49 1_555 1_555
H30 C50 1_555 1_555
C51 C50 1_555 1_555
H31 C51 1_555 1_555
C52 C51 1_555 1_555
H32 C52 1_555 1_555
C53 C52 1_555 1_555
H33 C53 1_555 1_555
C54 C49 1_555 1_555
C55 C54 1_555 1_555
O9 Na1 1_555 1_555
O10 C55 1_555 1_555
C56 H34 1_555 1_555
C57 C56 1_555 1_555
H35 C57 1_555 1_555
C58 C57 1_555 1_555
H36 C58 1_555 1_555
C59 C58 1_555 1_555
H37 C59 1_555 1_555
C60 C59 1_555 1_555
H38 C60 1_555 1_555
C61 C56 1_555 1_555
C62 C61 1_555 1_555
O11 Na1 1_555 1_555
O12 C62 1_555 1_555
C63 O12 1_555 1_555
H39 C63 1_555 1_555
H40 C63 1_555 1_555
C64 C63 1_555 1_555
H41 C64 1_555 1_555
H42 C64 1_555 1_555
H43 C64 1_555 1_555
C65 H44 1_555 1_555
C66 C65 1_555 1_555
H45 C66 1_555 1_555
C67 C66 1_555 1_555
H46 C67 1_555 1_555
C68 C67 1_555 1_555
H47 C68 1_555 1_555
C69 C68 1_555 1_555
H48 C69 1_555 1_555
C70 C65 1_555 1_555
C71 C70 1_555 1_555
O13 C71 1_555 1_555
O14 C71 1_555 1_555
C72 O14 1_555 1_555
H49 C72 1_555 1_555
H50 C72 1_555 1_555
C73 C72 1_555 1_555
H51 C73 1_555 1_555
H52 C73 1_555 1_555
H53 C73 1_555 1_555
C74 H54 1_555 1_555
C75 C74 1_555 1_555
H55 C75 1_555 1_555
C76 C75 1_555 1_555
H56 C76 1_555 1_555
C77 C76 1_555 1_555
H57 C77 1_555 1_555
C78 C77 1_555 1_555
H58 C78 1_555 1_555
C79 C74 1_555 1_555
C80 C79 1_555 1_555
O15 C80 1_555 1_555
O16 C80 1_555 1_555
C81 O16 1_555 1_555
H59 C81 1_555 1_555
H60 C81 1_555 1_555
C82 C81 1_555 1_555
H61 C82 1_555 1_555
H62 C82 1_555 1_555
H63 C82 1_555 1_555
Na1A O3 1_555 1_555
Na1A_2 O5 1_555 1_555
Na1_2 O7 1_555 1_555
O3A Na1 1_555 1_555
O5A Na1 1_555 1_555
O7_2 Na1 1_555 1_555
N2 Zn1 1_555 1_555
N3 Zn1 1_555 1_555
N4 Zn1 1_555 1_555
C5 C6 1_555 1_555
C10 C11 1_555 1_555
C15 C16 1_555 1_555
C17 C18 1_555 1_555
C19 C20 1_555 1_555
C25 C26 1_555 1_555
C32 C33 1_555 1_555
C39 C40 1_555 1_555
C46 C47 1_555 1_555
C53 C54 1_555 1_555
C55 O9 1_555 1_555
C60 C61 1_555 1_555
C62 O11 1_555 1_555
C69 C70 1_555 1_555
C78 C79 1_555 1_555

#END
