
#######################################################################
#
#                 Cambridge Crystallographic Data Centre
#                                CCDC 
#
#######################################################################
#
# If this CIF has been generated from an entry in the Cambridge 
# Structural Database, then it will include bibliographic, chemical, 
# crystal, experimental, refinement or atomic coordinate data resulting 
# from the CCDC's data processing and validation procedures.
#
#######################################################################

data_NEPWIO
_symmetry_cell_setting           triclinic
_symmetry_space_group_name_H-M   'P -1'
_symmetry_Int_Tables_number      2
_space_group_name_Hall           '-P 1'
loop_
_symmetry_equiv_pos_site_id
_symmetry_equiv_pos_as_xyz
1 x,y,z
2 -x,-y,-z
_cell_length_a                   13.7460(2)
_cell_length_b                   15.5400(2)
_cell_length_c                   18.2670(4)
_cell_angle_alpha                108.4220(6)
_cell_angle_beta                 93.2230(7)
_cell_angle_gamma                108.6700(12)
_cell_volume                     3453.11
loop_
_atom_site_label
_atom_site_type_symbol
_atom_site_fract_x
_atom_site_fract_y
_atom_site_fract_z
C50 C 0.1118(3) 0.0458(4) 0.1313(3)
H32 H 0.1619 0.0775 0.1783
C51 C 0.0451(3) -0.0453(4) 0.1162(3)
H33 H 0.0482 -0.0761 0.1532
C52 C -0.0315(3) -0.0972(3) 0.0446(3)
C53 C -0.0354(3) -0.0483(3) -0.0096(2)
C54 C 0.1088(3) 0.0951(3) 0.0785(2)
C55 C 0.1745(3) 0.1907(4) 0.0913(3)
H34 H 0.2244 0.2247 0.1383
N5 N 0.1706(3) 0.2360(3) 0.0410(3)
C56 C -0.1018(4) -0.1904(3) 0.0253(3)
H35 H -0.1010 -0.2235 0.0610
C53A C 0.0354(3) 0.0483(3) 0.0096(2)
C52A C 0.0315(3) 0.0972(3) -0.0446(3)
C51A C -0.0451(3) 0.0453(4) -0.1162(3)
C50A C -0.1118(3) -0.0458(4) -0.1313(3)
H32A H -0.1619 -0.0775 -0.1783
C54A C -0.1088(3) -0.0951(3) -0.0785(2)
C55A C -0.1745(3) -0.1907(4) -0.0913(3)
H34A H -0.2244 -0.2247 -0.1383
N5A N -0.1706(3) -0.2360(3) -0.0410(3)
H33A H -0.0482 0.0761 -0.1532
C56A C 0.1018(4) 0.1904(3) -0.0253(3)
H35A H 0.1010 0.2235 -0.0610
N1 N -0.2738(2) -0.04400(19) 0.08094(16)
N2 N -0.1396(2) 0.1547(2) 0.11415(17)
N3 N -0.0210(2) 0.1493(2) 0.24743(17)
N4 N -0.1543(2) -0.0502(2) 0.21286(17)
C1 C -0.2297(3) -0.1416(2) 0.1926(2)
C2 C -0.3133(2) -0.1824(2) 0.1288(2)
C3 C -0.3281(2) -0.1376(2) 0.0747(2)
C4 C -0.4001(2) -0.1871(3) 0.0016(2)
H1 H -0.4472 -0.2525 -0.0167
C5 C -0.3884(2) -0.1234(3) -0.0362(2)
H2 H -0.4241 -0.1362 -0.0867
C6 C -0.3119(2) -0.0328(2) 0.0143(2)
C7 C -0.2815(2) 0.0548(2) -0.0007(2)
C8 C -0.2037(3) 0.1433(3) 0.0487(2)
C9 C -0.1833(3) 0.2359(3) 0.0400(2)
H3 H -0.2179 0.2484 0.0002
C10 C -0.1066(3) 0.3015(3) 0.0986(2)
H4 H -0.0764 0.3689 0.1077
C11 C -0.0781(2) 0.2515(2) 0.1453(2)
C12 C 0.0019(2) 0.2936(2) 0.2108(2)
C13 C 0.0309(2) 0.2443(3) 0.2552(2)
C14 C 0.1248(3) 0.2826(3) 0.3122(2)
H5 H 0.1755 0.3463 0.3281
C15 C 0.1278(3) 0.2114(3) 0.3388(2)
H6 H 0.1807 0.2156 0.3770
C16 C 0.0360(2) 0.1283(3) 0.2984(2)
C17 C 0.0083(3) 0.0388(3) 0.3102(2)
C18 C -0.0815(2) -0.0424(3) 0.2720(2)
C19 C -0.1135(3) -0.1301(3) 0.2902(2)
H7 H -0.0767 -0.1435 0.3282
C20 C -0.2058(3) -0.1896(3) 0.2430(2)
H8 H -0.2471 -0.2516 0.2431
C21 C -0.3925(3) -0.2793(2) 0.1173(2)
C22 C -0.4973(3) -0.2911(3) 0.1139(2)
H9 H -0.5187 -0.2375 0.1183
C23 C -0.5715(3) -0.3821(3) 0.1038(3)
H10 H -0.6434 -0.3906 0.0994
C24 C -0.5404(4) -0.4602(3) 0.1004(3)
C25 C -0.4373(4) -0.4484(3) 0.1025(3)
H11 H -0.4159 -0.5017 0.0992
C26 C -0.3641(3) -0.3607(3) 0.1094(2)
H12 H -0.2933 -0.3549 0.1089
C27 C -0.6141(5) -0.5589(4) 0.0968(4)
O1 O -0.7068(3) -0.5751(3) 0.0624(2)
H13 H -0.7492 -0.6401 0.0546
O2 O -0.5887(4) -0.6122(2) 0.1220(3)
C28 C -0.3369(3) 0.0560(2) -0.0728(2)
C29 C -0.2826(2) 0.0863(3) -0.1280(2)
H14 H -0.2087 0.1064 -0.1199
C30 C -0.3350(2) 0.0876(2) -0.1943(2)
H15 H -0.2963 0.1088 -0.2307
C31 C -0.4431(2) 0.0584(2) -0.20881(19)
C32 C -0.4968(2) 0.0288(3) -0.1538(2)
H16 H -0.5707 0.0085 -0.1621
C33 C -0.4447(3) 0.0283(3) -0.0873(2)
H17 H -0.4836 0.0085 -0.0503
C34 C -0.4998(2) 0.0600(2) -0.2800(2)
O3 O -0.44987(17) 0.10726(17) -0.31888(14)
O4 O -0.59666(17) 0.01263(19) -0.29855(15)
C35 C 0.0648(3) 0.3995(3) 0.2344(2)
C36 C 0.0719(3) 0.4631(3) 0.3087(2)
H18 H 0.0322 0.4400 0.3440
C37 C 0.1357(3) 0.5599(3) 0.3329(2)
H19 H 0.1406 0.6025 0.3846
C38 C 0.1926(3) 0.5944(3) 0.2808(2)
C39 C 0.1841(3) 0.5320(3) 0.2058(3)
H20 H 0.2216 0.5555 0.1698
C40 C 0.1208(3) 0.4346(3) 0.1828(3)
H21 H 0.1159 0.3919 0.1312
C41 C 0.2656(3) 0.6960(3) 0.3081(2)
O5 O 0.2892(2) 0.74903(19) 0.37721(17)
O6 O 0.3062(2) 0.72406(19) 0.25253(16)
H22 H 0.3621 0.8008 0.2828
C42 C 0.0833(3) 0.0301(3) 0.3676(2)
C43 C 0.1583(4) -0.0067(4) 0.3447(3)
H23 H 0.1600 -0.0310 0.2902
C44 C 0.2321(3) -0.0106(4) 0.3964(3)
H24 H 0.2848 -0.0346 0.3776
C45 C 0.2295(3) 0.0198(3) 0.4743(2)
C46 C 0.1551(6) 0.0563(7) 0.4976(3)
H25 H 0.1517 0.0782 0.5519
C47 C 0.0834(5) 0.0629(7) 0.4453(3)
H26 H 0.0336 0.0909 0.4644
C48 C 0.3078(3) 0.0141(3) 0.5304(2)
O7 O 0.38294(17) -0.00781(19) 0.51135(15)
O8 O 0.2901(2) 0.0356(3) 0.60159(16)
H27 H 0.3329 0.0268 0.6393
Zn1 Zn -0.15983(3) 0.05859(3) 0.17345(2)
O9 O -0.25604(18) 0.11145(18) 0.25060(16)
H28 H -0.3077 0.0681 0.2675
C49 C -0.2699(15) 0.1895(6) 0.2668(13)
H29 H -0.2078 0.2418 0.3014
H30 H -0.3304 0.1865 0.2932
H31 H -0.2825 0.2021 0.2185
Na1 Na -0.44555(10) 0.11978(10) -0.44128(9)
O5A O -0.2892(2) 0.25097(19) -0.37721(17)
C41A C -0.2656(3) 0.3040(3) -0.3081(2)
C38A C -0.1926(3) 0.4056(3) -0.2808(2)
C37A C -0.1357(3) 0.4401(3) -0.3329(2)
C36A C -0.0719(3) 0.5369(3) -0.3087(2)
C35A C -0.0648(3) 0.6005(3) -0.2344(2)
C12A C -0.0019(2) 0.7064(2) -0.2108(2)
C11A C 0.0781(2) 0.7485(2) -0.1453(2)
N2A N 0.1396(2) 0.8453(2) -0.11415(17)
C8A C 0.2037(3) 0.8567(3) -0.0487(2)
C7A C 0.2815(2) 0.9452(2) 0.0007(2)
C6A C 0.3119(2) 1.0328(2) -0.0143(2)
N1A N 0.2738(2) 1.04400(19) -0.08094(16)
C3A C 0.3281(2) 1.1376(2) -0.0747(2)
C2A C 0.3133(2) 1.1824(2) -0.1288(2)
C1A C 0.2297(3) 1.1416(2) -0.1926(2)
N4A N 0.1543(2) 1.0502(2) -0.21286(17)
C18A C 0.0815(2) 1.0424(3) -0.2720(2)
C17A C -0.0083(3) 0.9612(3) -0.3102(2)
C16A C -0.0360(2) 0.8717(3) -0.2984(2)
N3A N 0.0210(2) 0.8507(2) -0.24743(17)
C13A C -0.0309(2) 0.7557(3) -0.2552(2)
C14A C -0.1248(3) 0.7174(3) -0.3122(2)
H5A H -0.1755 0.6537 -0.3281
C15A C -0.1278(3) 0.7886(3) -0.3388(2)
H6A H -0.1807 0.7844 -0.3770
Zn1A Zn 0.15983(3) 0.94141(3) -0.17345(2)
O9A O 0.25604(18) 0.88855(18) -0.25060(16)
H28A H 0.3077 0.9319 -0.2675
C49A C 0.2699(15) 0.8105(6) -0.2668(13)
H29A H 0.2078 0.7582 -0.3014
H30A H 0.3304 0.8135 -0.2932
H31A H 0.2825 0.7979 -0.2185
C42A C -0.0833(3) 0.9699(3) -0.3676(2)
C43A C -0.1583(4) 1.0067(4) -0.3447(3)
H23A H -0.1600 1.0310 -0.2902
C44A C -0.2321(3) 1.0106(4) -0.3964(3)
H24A H -0.2848 1.0346 -0.3776
C45A C -0.2295(3) 0.9802(3) -0.4743(2)
C46A C -0.1551(6) 0.9437(7) -0.4976(3)
H25A H -0.1517 0.9218 -0.5519
C47A C -0.0834(5) 0.9371(7) -0.4453(3)
H26A H -0.0336 0.9091 -0.4644
C48A C -0.3078(3) 0.9859(3) -0.5304(2)
O7A O -0.38294(17) 1.00781(19) -0.51135(15)
Na1A Na -0.55445(10) 0.88022(10) -0.55872(9)
O3A O -0.55013(17) 0.89274(17) -0.68112(14)
C34A C -0.5002(2) 0.9400(2) -0.7200(2)
C31A C -0.5569(2) 0.9416(2) -0.79119(19)
C30A C -0.6650(2) 0.9124(2) -0.8057(2)
C29A C -0.7174(2) 0.9137(3) -0.8720(2)
C28A C -0.6631(3) 0.9440(2) -0.9272(2)
C7A_2 C -0.7185(2) 0.9452(2) -0.9993(2)
C6A_2 C -0.6881(2) 1.0328(2) -1.0143(2)
C8A_2 C -0.7963(3) 0.8567(3) -1.0487(2)
C33A C -0.5553(3) 0.9717(3) -0.9127(2)
C32A C -0.5032(2) 0.9712(3) -0.8462(2)
H16A H -0.4293 0.9915 -0.8379
H17A H -0.5164 0.9915 -0.9497
H14A H -0.7913 0.8936 -0.8801
H15A H -0.7037 0.8912 -0.7693
O4A O -0.40334(17) 0.98737(19) -0.70145(15)
O5_2 O -0.7108(2) 0.74903(19) -0.62279(17)
C41_2 C -0.7344(3) 0.6960(3) -0.6919(2)
C38_2 C -0.8074(3) 0.5944(3) -0.7192(2)
C37_2 C -0.8643(3) 0.5599(3) -0.6671(2)
C36_2 C -0.9281(3) 0.4631(3) -0.6913(2)
C35_2 C -0.9352(3) 0.3995(3) -0.7656(2)
C12_2 C -0.9981(2) 0.2936(2) -0.7892(2)
C11_2 C -1.0781(2) 0.2515(2) -0.8547(2)
C13_2 C -0.9691(2) 0.2443(3) -0.7448(2)
C40_2 C -0.8792(3) 0.4346(3) -0.8172(3)
C39_2 C -0.8159(3) 0.5320(3) -0.7942(3)
H20_2 H -0.7784 0.5555 -0.8302
H21_2 H -0.8841 0.3919 -0.8688
H18_2 H -0.9678 0.4400 -0.6560
H19_2 H -0.8594 0.6025 -0.6154
O6_2 O -0.6938(2) 0.72406(19) -0.74747(16)
H22_2 H -0.6379 0.8008 -0.7172
O7_2 O -0.61706(17) 0.99219(19) -0.48865(15)
C48_2 C -0.6922(3) 1.0141(3) -0.4696(2)
C45_2 C -0.7705(3) 1.0198(3) -0.5257(2)
C44_2 C -0.7679(3) 0.9894(4) -0.6036(3)
C43_2 C -0.8417(4) 0.9933(4) -0.6553(3)
C42_2 C -0.9167(3) 1.0301(3) -0.6324(2)
C17_2 C -0.9917(3) 1.0388(3) -0.6898(2)
C16_2 C -0.9640(2) 1.1283(3) -0.7016(2)
C18_2 C -1.0815(2) 0.9576(3) -0.7280(2)
C47_2 C -0.9166(5) 1.0629(7) -0.5547(3)
C46_2 C -0.8449(6) 1.0563(7) -0.5024(3)
H25_2 H -0.8483 1.0782 -0.4481
H26_2 H -0.9664 1.0909 -0.5356
H23_2 H -0.8400 0.9690 -0.7098
H24_2 H -0.7152 0.9654 -0.6224
O8_2 O -0.7099(2) 1.0356(3) -0.39841(16)
H27_2 H -0.6671 1.0268 -0.3607
Na1_2 Na -0.44555(10) 1.11978(10) -0.44128(9)
O3_2 O -0.44987(17) 1.10726(17) -0.31888(14)
O5A_2 O -0.2892(2) 1.25097(19) -0.37721(17)
O8A O -0.2901(2) 0.9644(3) -0.60159(16)
H27A H -0.3329 0.9732 -0.6393
C19A C 0.1135(3) 1.1301(3) -0.2902(2)
H7A H 0.0767 1.1435 -0.3282
C20A C 0.2058(3) 1.1896(3) -0.2430(2)
H8A H 0.2471 1.2516 -0.2431
C21A C 0.3925(3) 1.2793(2) -0.1173(2)
C22A C 0.4973(3) 1.2911(3) -0.1139(2)
H9A H 0.5187 1.2375 -0.1183
C23A C 0.5715(3) 1.3821(3) -0.1038(3)
H10A H 0.6434 1.3906 -0.0994
C24A C 0.5404(4) 1.4602(3) -0.1004(3)
C25A C 0.4373(4) 1.4484(3) -0.1025(3)
H11A H 0.4159 1.5017 -0.0992
C26A C 0.3641(3) 1.3607(3) -0.1094(2)
H12A H 0.2933 1.3549 -0.1089
C27A C 0.6141(5) 1.5589(4) -0.0968(4)
O1A O 0.7068(3) 1.5751(3) -0.0624(2)
H13A H 0.7492 1.6401 -0.0546
O2A O 0.5887(4) 1.6122(2) -0.1220(3)
C4A C 0.4001(2) 1.1871(3) -0.0016(2)
H1A H 0.4472 1.2525 0.0167
C5A C 0.3884(2) 1.1234(3) 0.0362(2)
H2A H 0.4241 1.1362 0.0867
C28A_2 C 0.3369(3) 0.9440(2) 0.0728(2)
C9A C 0.1833(3) 0.7641(3) -0.0400(2)
H3A H 0.2179 0.7516 -0.0002
C10A C 0.1066(3) 0.6985(3) -0.0986(2)
H4A H 0.0764 0.6311 -0.1077
C40A C -0.1208(3) 0.5654(3) -0.1828(3)
C39A C -0.1841(3) 0.4680(3) -0.2058(3)
H20A H -0.2216 0.4445 -0.1698
H21A H -0.1159 0.6081 -0.1312
H18A H -0.0322 0.5600 -0.3440
H19A H -0.1406 0.3975 -0.3846
O6A O -0.3062(2) 0.27594(19) -0.25253(16)
H22A H -0.3621 0.1992 -0.2828
O7_3 O -0.61706(17) -0.00781(19) -0.48865(15)
O7A_2 O -0.38294(17) 0.00781(19) -0.51135(15)
Na1A_2 Na 0.44555(10) 0.88022(10) 0.44128(9)
Na1_3 Na 0.55445(10) 0.11978(10) 0.55872(9)
Na1A_3 Na 0.44555(10) -0.11978(10) 0.44128(9)
loop_
_geom_bond_atom_site_label_1
_geom_bond_atom_site_label_2
_geom_bond_site_symmetry_1
_geom_bond_site_symmetry_2
N1 C3 1_555 1_555
N2 C8 1_555 1_555
N3 C13 1_555 1_555
N4 C1 1_555 1_555
C1 C2 1_555 1_555
C2 C3 1_555 1_555
C3 C4 1_555 1_555
C4 H1 1_555 1_555
C5 C4 1_555 1_555
H2 C5 1_555 1_555
C6 N1 1_555 1_555
C7 C6 1_555 1_555
C8 C7 1_555 1_555
C9 C8 1_555 1_555
H3 C9 1_555 1_555
C10 C9 1_555 1_555
H4 C10 1_555 1_555
C11 N2 1_555 1_555
C12 C11 1_555 1_555
C13 C12 1_555 1_555
C14 C13 1_555 1_555
H5 C14 1_555 1_555
C15 C14 1_555 1_555
H6 C15 1_555 1_555
C16 N3 1_555 1_555
C17 C16 1_555 1_555
C18 N4 1_555 1_555
C19 C18 1_555 1_555
H7 C19 1_555 1_555
C20 C1 1_555 1_555
H8 C20 1_555 1_555
C21 C2 1_555 1_555
C22 C21 1_555 1_555
H9 C22 1_555 1_555
C23 C22 1_555 1_555
H10 C23 1_555 1_555
C24 C23 1_555 1_555
C25 C24 1_555 1_555
H11 C25 1_555 1_555
C26 C21 1_555 1_555
H12 C26 1_555 1_555
C27 C24 1_555 1_555
O1 C27 1_555 1_555
H13 O1 1_555 1_555
O2 C27 1_555 1_555
C28 C7 1_555 1_555
C29 C28 1_555 1_555
H14 C29 1_555 1_555
C30 C29 1_555 1_555
H15 C30 1_555 1_555
C31 C30 1_555 1_555
C32 C31 1_555 1_555
H16 C32 1_555 1_555
C33 C28 1_555 1_555
H17 C33 1_555 1_555
C34 C31 1_555 1_555
O3 C34 1_555 1_555
O4 C34 1_555 1_555
C35 C12 1_555 1_555
C36 C35 1_555 1_555
H18 C36 1_555 1_555
C37 C36 1_555 1_555
H19 C37 1_555 1_555
C38 C37 1_555 1_555
C39 C38 1_555 1_555
H20 C39 1_555 1_555
C40 C35 1_555 1_555
H21 C40 1_555 1_555
C41 C38 1_555 1_555
O5 C41 1_555 1_555
O6 C41 1_555 1_555
H22 O6 1_555 1_555
C42 C17 1_555 1_555
C43 C42 1_555 1_555
H23 C43 1_555 1_555
C44 C43 1_555 1_555
H24 C44 1_555 1_555
C45 C44 1_555 1_555
C46 C45 1_555 1_555
H25 C46 1_555 1_555
C47 C42 1_555 1_555
H26 C47 1_555 1_555
C48 C45 1_555 1_555
O7 C48 1_555 1_555
O8 C48 1_555 1_555
H27 O8 1_555 1_555
Zn1 N1 1_555 1_555
O9 Zn1 1_555 1_555
H28 O9 1_555 1_555
C49 O9 1_555 1_555
H29 C49 1_555 1_555
H30 C49 1_555 1_555
H31 C49 1_555 1_555
Na1 O3 1_555 1_555
C50 H32 1_555 1_555
C51 C50 1_555 1_555
H33 C51 1_555 1_555
C52 C51 1_555 1_555
C53 C52 1_555 1_555
C54 C50 1_555 1_555
C55 C54 1_555 1_555
H34 C55 1_555 1_555
N5 C55 1_555 1_555
C56 C52 1_555 1_555
H35 C56 1_555 1_555
O5A Na1 1_555 1_555
C41A O5A 1_555 1_555
C38A C41A 1_555 1_555
C37A C38A 1_555 1_555
C36A C37A 1_555 1_555
C35A C36A 1_555 1_555
C12A C35A 1_555 1_555
C11A C12A 1_555 1_555
N2A C11A 1_555 1_555
C8A N2A 1_555 1_555
C7A C8A 1_555 1_555
C6A C7A 1_555 1_555
N1A C6A 1_555 1_555
C3A N1A 1_555 1_555
C2A C3A 1_555 1_555
C1A C2A 1_555 1_555
N4A C1A 1_555 1_555
C18A N4A 1_555 1_555
C17A C18A 1_555 1_555
C16A C17A 1_555 1_555
N3A C16A 1_555 1_555
C13A C12A 1_555 1_555
C14A C13A 1_555 1_555
H5A C14A 1_555 1_555
C15A C16A 1_555 1_555
H6A C15A 1_555 1_555
Zn1A N2A 1_555 1_555
O9A Zn1A 1_555 1_555
H28A O9A 1_555 1_555
C49A O9A 1_555 1_555
H29A C49A 1_555 1_555
H30A C49A 1_555 1_555
H31A C49A 1_555 1_555
C42A C17A 1_555 1_555
C43A C42A 1_555 1_555
H23A C43A 1_555 1_555
C44A C43A 1_555 1_555
H24A C44A 1_555 1_555
C45A C44A 1_555 1_555
C46A C45A 1_555 1_555
H25A C46A 1_555 1_555
C47A C42A 1_555 1_555
H26A C47A 1_555 1_555
C48A C45A 1_555 1_555
O7A C48A 1_555 1_555
Na1A O7A 1_555 1_555
O3A Na1A 1_555 1_555
C34A O3A 1_555 1_555
C31A C34A 1_555 1_555
C30A C31A 1_555 1_555
C29A C30A 1_555 1_555
C28A C29A 1_555 1_555
C7A_2 C28A 1_555 1_555
C6A_2 C7A_2 1_555 1_555
C8A_2 C7A_2 1_555 1_555
C33A C28A 1_555 1_555
C32A C31A 1_555 1_555
H16A C32A 1_555 1_555
H17A C33A 1_555 1_555
H14A C29A 1_555 1_555
H15A C30A 1_555 1_555
O4A C34A 1_555 1_555
O5_2 Na1A 1_555 1_555
C41_2 O5_2 1_555 1_555
C38_2 C41_2 1_555 1_555
C37_2 C38_2 1_555 1_555
C36_2 C37_2 1_555 1_555
C35_2 C36_2 1_555 1_555
C12_2 C35_2 1_555 1_555
C11_2 C12_2 1_555 1_555
C13_2 C12_2 1_555 1_555
C40_2 C35_2 1_555 1_555
C39_2 C38_2 1_555 1_555
H20_2 C39_2 1_555 1_555
H21_2 C40_2 1_555 1_555
H18_2 C36_2 1_555 1_555
H19_2 C37_2 1_555 1_555
O6_2 C41_2 1_555 1_555
H22_2 O6_2 1_555 1_555
O7_2 Na1A 1_555 1_555
C48_2 O7_2 1_555 1_555
C45_2 C48_2 1_555 1_555
C44_2 C45_2 1_555 1_555
C43_2 C44_2 1_555 1_555
C42_2 C43_2 1_555 1_555
C17_2 C42_2 1_555 1_555
C16_2 C17_2 1_555 1_555
C18_2 C17_2 1_555 1_555
C47_2 C42_2 1_555 1_555
C46_2 C45_2 1_555 1_555
H25_2 C46_2 1_555 1_555
H26_2 C47_2 1_555 1_555
H23_2 C43_2 1_555 1_555
H24_2 C44_2 1_555 1_555
O8_2 C48_2 1_555 1_555
H27_2 O8_2 1_555 1_555
Na1_2 O7A 1_555 1_555
O3_2 Na1_2 1_555 1_555
O5A_2 Na1_2 1_555 1_555
O8A C48A 1_555 1_555
H27A O8A 1_555 1_555
C19A C18A 1_555 1_555
H7A C19A 1_555 1_555
C20A C1A 1_555 1_555
H8A C20A 1_555 1_555
C21A C2A 1_555 1_555
C22A C21A 1_555 1_555
H9A C22A 1_555 1_555
C23A C22A 1_555 1_555
H10A C23A 1_555 1_555
C24A C23A 1_555 1_555
C25A C24A 1_555 1_555
H11A C25A 1_555 1_555
C26A C21A 1_555 1_555
H12A C26A 1_555 1_555
C27A C24A 1_555 1_555
O1A C27A 1_555 1_555
H13A O1A 1_555 1_555
O2A C27A 1_555 1_555
C4A C3A 1_555 1_555
H1A C4A 1_555 1_555
C5A C6A 1_555 1_555
H2A C5A 1_555 1_555
C28A_2 C7A 1_555 1_555
C9A C8A 1_555 1_555
H3A C9A 1_555 1_555
C10A C11A 1_555 1_555
H4A C10A 1_555 1_555
C40A C35A 1_555 1_555
C39A C38A 1_555 1_555
H20A C39A 1_555 1_555
H21A C40A 1_555 1_555
H18A C36A 1_555 1_555
H19A C37A 1_555 1_555
O6A C41A 1_555 1_555
H22A O6A 1_555 1_555
O7_3 Na1 1_555 1_555
O7A_2 Na1 1_555 1_555
Na1A_2 O5 1_555 1_555
Na1_3 O7 1_555 1_555
Na1A_3 O7 1_555 1_555
C53A C53 1_555 1_555
C52A C53A 1_555 1_555
C51A C52A 1_555 1_555
C50A C51A 1_555 1_555
H32A C50A 1_555 1_555
C54A C53 1_555 1_555
C55A C54A 1_555 1_555
H34A C55A 1_555 1_555
N5A C56 1_555 1_555
H33A C51A 1_555 1_555
C56A N5 1_555 1_555
H35A C56A 1_555 1_555
N2 Zn1 1_555 1_555
N3 Zn1 1_555 1_555
N4 Zn1 1_555 1_555
C5 C6 1_555 1_555
C10 C11 1_555 1_555
C15 C16 1_555 1_555
C17 C18 1_555 1_555
C19 C20 1_555 1_555
C25 C26 1_555 1_555
C32 C33 1_555 1_555
C39 C40 1_555 1_555
C46 C47 1_555 1_555
C54 C53A 1_555 1_555
N1A Zn1A 1_555 1_555
N4A Zn1A 1_555 1_555
N3A C13A 1_555 1_555
N3A Zn1A 1_555 1_555
C14A C15A 1_555 1_555
C46A C47A 1_555 1_555
C33A C32A 1_555 1_555
C40_2 C39_2 1_555 1_555
O7_2 Na1_2 1_555 1_555
C47_2 C46_2 1_555 1_555
C19A C20A 1_555 1_555
C25A C26A 1_555 1_555
C4A C5A 1_555 1_555
C9A C10A 1_555 1_555
C40A C39A 1_555 1_555
C52A C56A 1_555 1_555
C50A C54A 1_555 1_555
C55A N5A 1_555 1_555

#END
