
#######################################################################
#
#                 Cambridge Crystallographic Data Centre
#                                CCDC 
#
#######################################################################
#
# If this CIF has been generated from an entry in the Cambridge 
# Structural Database, then it will include bibliographic, chemical, 
# crystal, experimental, refinement or atomic coordinate data resulting 
# from the CCDC's data processing and validation procedures.
#
#######################################################################

data_NEQCUI
_symmetry_cell_setting           monoclinic
_symmetry_space_group_name_H-M   'C 2/c'
_symmetry_Int_Tables_number      15
_space_group_name_Hall           '-C 2yn'
loop_
_symmetry_equiv_pos_site_id
_symmetry_equiv_pos_as_xyz
1 x,y,z
2 1/2+x,1/2+y,z
3 -x,y,1/2-z
4 1/2-x,1/2+y,1/2-z
5 -x,-y,-z
6 1/2-x,1/2-y,-z
7 x,-y,1/2+z
8 1/2+x,1/2-y,1/2+z
_cell_length_a                   15.977(2)
_cell_length_b                   12.4892(18)
_cell_length_c                   25.713(4)
_cell_angle_alpha                90.00
_cell_angle_beta                 100.952(3)
_cell_angle_gamma                90.00
_cell_volume                     5037.32
loop_
_atom_site_label
_atom_site_type_symbol
_atom_site_fract_x
_atom_site_fract_y
_atom_site_fract_z
Cu1 Cu 0.5000 0.82725(6) 0.7500
O1 O 0.5000 1.0092(4) 0.7500
C1 C 0.1005(4) 0.3814(6) 0.4660(3)
H1 H 0.0848 0.4323 0.4915
H2 H 0.0936 0.3081 0.4782
H3 H 0.0636 0.3921 0.4313
C2 C 0.1895(4) 0.3986(4) 0.4614(2)
N1 N 0.2168(3) 0.4172(4) 0.41632(18)
C3 C 0.3038(4) 0.4235(5) 0.4295(2)
H4 H 0.3407 0.4366 0.4052
C4 C 0.3295(4) 0.4082(5) 0.4823(2)
H5 H 0.3865 0.4082 0.5015
N2 N 0.2578(3) 0.3927(4) 0.50251(18)
C5 C 0.2544(5) 0.3614(5) 0.5568(2)
H6 H 0.3107 0.3314 0.5729
H7 H 0.2122 0.3029 0.5552
C6 C 0.2320(3) 0.4479(4) 0.59398(19)
C7 C 0.1905(4) 0.5418(4) 0.57759(19)
H8 H 0.1760 0.5572 0.5408
C8 C 0.1696(3) 0.6141(4) 0.61345(18)
H9 H 0.1415 0.6788 0.6011
C9 C 0.1896(3) 0.5930(4) 0.66843(18)
C10 C 0.2312(3) 0.4976(4) 0.68429(18)
H10 H 0.2460 0.4816 0.7210
C11 C 0.2515(3) 0.4266(4) 0.64865(19)
H11 H 0.2793 0.3616 0.6608
C12 C 0.1718(3) 0.6751(4) 0.7078(2)
H12 H 0.1164 0.7103 0.6943
H13 H 0.1683 0.6395 0.7418
N3 N 0.2410(2) 0.7572(3) 0.71682(14)
C13 C 0.2438(3) 0.8435(4) 0.68412(17)
H14 H 0.1984 0.8704 0.6581
C14 C 0.3239(3) 0.8822(3) 0.69645(16)
H15 H 0.3444 0.9431 0.6806
N4 N 0.3713(2) 0.8201(3) 0.73549(13)
C15 C 0.3183(3) 0.7455(4) 0.74721(16)
C16 C 0.3407(4) 0.6609(4) 0.7884(2)
H16 H 0.3735 0.6044 0.7750
H17 H 0.2884 0.6304 0.7968
H18 H 0.3750 0.6923 0.8204
C17 C 0.4184(4) 0.6372(4) 0.6541(2)
H19 H 0.4290 0.6304 0.6927
H20 H 0.4426 0.5751 0.6388
H21 H 0.3569 0.6403 0.6405
C18 C 0.4589(3) 0.7361(4) 0.63927(16)
N5 N 0.4940(2) 0.8136(3) 0.67189(13)
C19 C 0.5225(3) 0.8894(4) 0.64124(17)
H22 H 0.5503 0.9541 0.6541
C20 C 0.5052(3) 0.8588(4) 0.58993(19)
H23 H 0.5178 0.8970 0.5604
N6 N 0.4656(2) 0.7608(3) 0.58918(13)
C21 C 0.4284(3) 0.7011(5) 0.54120(18)
H24 H 0.4326 0.6235 0.5490
H25 H 0.4617 0.7161 0.5133
C22 C 0.3362(3) 0.7297(4) 0.52082(15)
C23 C 0.2890(3) 0.7987(4) 0.54638(16)
H26 H 0.3157 0.8333 0.5781
C24 C 0.2954(3) 0.6825(4) 0.47351(17)
H27 H 0.3268 0.6366 0.4548
H30 H 0.460(4) 1.063(4) 0.731(3)
Cu1G Cu 0.0000 0.67275(6) 0.2500
C1B C 0.8995(4) 0.3814(6) 1.0340(3)
H1B H 0.9152 0.4323 1.0085
H2B H 0.9064 0.3081 1.0218
H3B H 0.9364 0.3921 1.0687
C2B C 0.8105(4) 0.3986(4) 1.0386(2)
N1B N 0.7832(3) 0.4172(4) 1.08368(18)
C3B C 0.6962(4) 0.4235(5) 1.0705(2)
H4B H 0.6593 0.4366 1.0948
C4B C 0.6705(4) 0.4082(5) 1.0177(2)
H5B H 0.6135 0.4082 0.9985
N2B N 0.7422(3) 0.3927(4) 0.99749(18)
C5B C 0.7456(5) 0.3614(5) 0.9432(2)
H6B H 0.6893 0.3314 0.9271
H7B H 0.7878 0.3029 0.9448
C6B C 0.7680(3) 0.4479(4) 0.90602(19)
C7B C 0.8095(4) 0.5418(4) 0.92241(19)
H8B H 0.8240 0.5572 0.9592
C8B C 0.8304(3) 0.6141(4) 0.88655(18)
H9B H 0.8585 0.6788 0.8989
C9B C 0.8104(3) 0.5930(4) 0.83157(18)
C10B C 0.7688(3) 0.4976(4) 0.81571(18)
H10B H 0.7540 0.4816 0.7790
C11B C 0.7485(3) 0.4266(4) 0.85135(19)
H11B H 0.7207 0.3616 0.8392
C12B C 0.8282(3) 0.6751(4) 0.7922(2)
H12B H 0.8836 0.7103 0.8057
H13B H 0.8317 0.6395 0.7582
N3B N 0.7590(2) 0.7572(3) 0.78318(14)
C13B C 0.7562(3) 0.8435(4) 0.81588(17)
H14B H 0.8016 0.8704 0.8419
C14B C 0.6761(3) 0.8822(3) 0.80355(16)
H15B H 0.6556 0.9431 0.8194
N4B N 0.6287(2) 0.8201(3) 0.76451(13)
C15B C 0.6817(3) 0.7455(4) 0.75279(16)
C16B C 0.6593(4) 0.6609(4) 0.7116(2)
H16B H 0.6265 0.6044 0.7250
H17B H 0.7116 0.6304 0.7032
H18B H 0.6250 0.6923 0.6796
C17E C 0.0816(4) 0.8628(4) 0.3459(2)
H19E H 0.0710 0.8696 0.3073
H20E H 0.0574 0.9249 0.3612
H21E H 0.1431 0.8597 0.3595
C18E C 0.0411(3) 0.7639(4) 0.36073(16)
N5E N 0.0060(2) 0.6864(3) 0.32811(13)
N5B N 0.5060(2) 0.8136(3) 0.82811(13)
C19E C -0.0225(3) 0.6106(4) 0.35876(17)
H22E H -0.0503 0.5459 0.3459
C20E C -0.0052(3) 0.6412(4) 0.41007(19)
H23E H -0.0178 0.6030 0.4396
N6E N 0.0344(2) 0.7392(3) 0.41082(13)
C21E C 0.0716(3) 0.7989(5) 0.45880(18)
H24E H 0.0674 0.8765 0.4510
H25E H 0.0383 0.7839 0.4867
C22E C 0.1638(3) 0.7703(4) 0.47918(15)
C23E C 0.2110(3) 0.7013(4) 0.45362(16)
H26E H 0.1843 0.6667 0.4219
C24E C 0.2046(3) 0.8175(4) 0.52649(17)
H27E H 0.1732 0.8634 0.5452
H30B H 0.540(4) 1.063(4) 0.769(3)
O2 O 0.4011(3) 1.1416(3) 0.67610(16)
H28 H 0.4183(19) 1.2176(9) 0.6717(12)
H29 H 0.350(4) 1.132(4) 0.647(2)
O3 O 0.5000 0.4663(13) 0.7500
O4 O 0.5547(6) 0.4472(7) 0.6227(5)
N7 N 0.5089(5) 0.3667(7) 0.6186(3)
O5 O 0.4989(10) 0.3152(11) 0.5768(4)
O6 O 0.4738(6) 0.3378(7) 0.6551(4)
O7? O 0.5496(12) 0.4111(16) 0.6583(5)
N8? N 0.5075(4) 0.3744(5) 0.6167(2)
O8? O 0.5125(10) 0.4222(13) 0.5752(4)
O9? O 0.4626(16) 0.2940(15) 0.6173(10)
loop_
_geom_bond_atom_site_label_1
_geom_bond_atom_site_label_2
_geom_bond_site_symmetry_1
_geom_bond_site_symmetry_2
Cu1 O1 1_555 1_555
O1 H30 1_555 1_555
O2 H28 1_555 1_555
C1 H1 1_555 1_555
H2 C1 1_555 1_555
H3 C1 1_555 1_555
C2 C1 1_555 1_555
N1 C2 1_555 1_555
C3 N1 1_555 1_555
H4 C3 1_555 1_555
C4 C3 1_555 1_555
H5 C4 1_555 1_555
N2 C2 1_555 1_555
C5 N2 1_555 1_555
H6 C5 1_555 1_555
H7 C5 1_555 1_555
C6 C5 1_555 1_555
C7 C6 1_555 1_555
H8 C7 1_555 1_555
C8 C7 1_555 1_555
H9 C8 1_555 1_555
C9 C8 1_555 1_555
C10 C9 1_555 1_555
H10 C10 1_555 1_555
C11 C6 1_555 1_555
H11 C11 1_555 1_555
C12 C9 1_555 1_555
H12 C12 1_555 1_555
H13 C12 1_555 1_555
N3 C12 1_555 1_555
C13 N3 1_555 1_555
H14 C13 1_555 1_555
C14 C13 1_555 1_555
H15 C14 1_555 1_555
N4 Cu1 1_555 1_555
C15 N3 1_555 1_555
C16 C15 1_555 1_555
H16 C16 1_555 1_555
H17 C16 1_555 1_555
H18 C16 1_555 1_555
C17 H19 1_555 1_555
H20 C17 1_555 1_555
H21 C17 1_555 1_555
C18 C17 1_555 1_555
N5 Cu1 1_555 1_555
C19 N5 1_555 1_555
H22 C19 1_555 1_555
C20 C19 1_555 1_555
H23 C20 1_555 1_555
N6 C18 1_555 1_555
C21 N6 1_555 1_555
H24 C21 1_555 1_555
H25 C21 1_555 1_555
C22 C21 1_555 1_555
C23 C22 1_555 1_555
H26 C23 1_555 1_555
C24 C22 1_555 1_555
H27 C24 1_555 1_555
O4 N7 1_555 1_555
N7 O5 1_555 1_555
O6 N7 1_555 1_555
H29 O2 1_555 1_555
Cu1G N5E 1_555 1_555
C1B H1B 1_555 1_555
H2B C1B 1_555 1_555
H3B C1B 1_555 1_555
C2B C1B 1_555 1_555
N1B C2B 1_555 1_555
C3B N1B 1_555 1_555
H4B C3B 1_555 1_555
C4B C3B 1_555 1_555
H5B C4B 1_555 1_555
N2B C2B 1_555 1_555
C5B N2B 1_555 1_555
H6B C5B 1_555 1_555
H7B C5B 1_555 1_555
C6B C5B 1_555 1_555
C7B C6B 1_555 1_555
H8B C7B 1_555 1_555
C8B C7B 1_555 1_555
H9B C8B 1_555 1_555
C9B C8B 1_555 1_555
C10B C9B 1_555 1_555
H10B C10B 1_555 1_555
C11B C6B 1_555 1_555
H11B C11B 1_555 1_555
C12B C9B 1_555 1_555
H12B C12B 1_555 1_555
H13B C12B 1_555 1_555
N3B C12B 1_555 1_555
C13B N3B 1_555 1_555
H14B C13B 1_555 1_555
C14B C13B 1_555 1_555
H15B C14B 1_555 1_555
N4B Cu1 1_555 1_555
C15B N3B 1_555 1_555
C16B C15B 1_555 1_555
H16B C16B 1_555 1_555
H17B C16B 1_555 1_555
H18B C16B 1_555 1_555
C17E H19E 1_555 1_555
H20E C17E 1_555 1_555
H21E C17E 1_555 1_555
C18E C17E 1_555 1_555
N5E C18E 1_555 1_555
N5B Cu1 1_555 1_555
C19E N5E 1_555 1_555
H22E C19E 1_555 1_555
C20E C19E 1_555 1_555
H23E C20E 1_555 1_555
N6E C18E 1_555 1_555
C21E N6E 1_555 1_555
H24E C21E 1_555 1_555
H25E C21E 1_555 1_555
C22E C21E 1_555 1_555
C23E C24 1_555 1_555
H26E C23E 1_555 1_555
C24E C23 1_555 1_555
H27E C24E 1_555 1_555
H30B O1 1_555 1_555
C4 N2 1_555 1_555
C10 C11 1_555 1_555
C14 N4 1_555 1_555
N4 C15 1_555 1_555
C18 N5 1_555 1_555
C20 N6 1_555 1_555
C4B N2B 1_555 1_555
C10B C11B 1_555 1_555
C14B N4B 1_555 1_555
N4B C15B 1_555 1_555
C20E N6E 1_555 1_555
C22E C23E 1_555 1_555
C22E C24E 1_555 1_555

#END
