
#######################################################################
#
#                 Cambridge Crystallographic Data Centre
#                                CCDC 
#
#######################################################################
#
# If this CIF has been generated from an entry in the Cambridge 
# Structural Database, then it will include bibliographic, chemical, 
# crystal, experimental, refinement or atomic coordinate data resulting 
# from the CCDC's data processing and validation procedures.
#
#######################################################################

data_NEQDOC
_symmetry_cell_setting           triclinic
_symmetry_space_group_name_H-M   'P -1'
_symmetry_Int_Tables_number      2
_space_group_name_Hall           '-P 1'
loop_
_symmetry_equiv_pos_site_id
_symmetry_equiv_pos_as_xyz
1 x,y,z
2 -x,-y,-z
_cell_length_a                   5.4785(2)
_cell_length_b                   14.1940(5)
_cell_length_c                   16.0682(6)
_cell_angle_alpha                81.9822(19)
_cell_angle_beta                 89.4348(17)
_cell_angle_gamma                79.679(2)
_cell_volume                     1217.11
loop_
_atom_site_label
_atom_site_type_symbol
_atom_site_fract_x
_atom_site_fract_y
_atom_site_fract_z
Zn1 Zn 0.64412(6) 0.04252(3) 0.07681(2)
P1 P 0.19035(13) -0.08381(5) 0.12214(5)
P2 P 0.12421(13) 0.12582(6) 0.14166(5)
O1 O 0.3600(4) -0.06003(15) 0.04973(13)
O2 O -0.0820(4) -0.07248(15) 0.10060(14)
O3 O 0.2919(4) -0.18646(15) 0.16617(14)
O4 O 0.3171(4) 0.14102(15) 0.07567(13)
O5 O -0.1419(4) 0.13723(16) 0.11299(14)
O6 O 0.1375(4) 0.19551(17) 0.20828(15)
H1 H 0.2622 0.2198 0.2007
O7 O 0.4910(4) -0.00303(17) 0.20659(14)
H2 H 0.548(8) -0.047(3) 0.232(3)
C1 C 0.2262(5) 0.0022(2) 0.19479(18)
C2 C 0.0969(6) -0.0172(3) 0.2784(2)
H3 H 0.1405 -0.0845 0.3005
H4 H -0.0796 -0.0002 0.2698
H5 H 0.1485 0.0210 0.3175
O1A O 0.6400(4) 0.06003(15) -0.04973(13)
O2_2 O 0.9180(4) -0.07248(15) 0.10060(14)
O5_2 O 0.8581(4) 0.13723(16) 0.11299(14)
Zn1A Zn 0.35588(6) -0.04252(3) -0.07681(2)
P1A P 0.80965(13) 0.08381(5) -0.12214(5)
Zn1_2 Zn -0.35588(6) 0.04252(3) 0.07681(2)
O2A O 1.0820(4) 0.07248(15) -0.10060(14)
O3A O 0.7081(4) 0.18646(15) -0.16617(14)
C1A C 0.7738(5) -0.0022(2) -0.19479(18)
Zn1A_2 Zn 1.35588(6) -0.04252(3) -0.07681(2)
P2A P 0.87579(13) -0.12582(6) -0.14166(5)
O7A O 0.5090(4) 0.00303(17) -0.20659(14)
C2A C 0.9031(6) 0.0172(3) -0.2784(2)
O4A O 0.6829(4) -0.14102(15) -0.07567(13)
O5A O 1.1419(4) -0.13723(16) -0.11299(14)
O6A O 0.8625(4) -0.19551(17) -0.20828(15)
H2A H 0.452(8) 0.047(3) -0.232(3)
H3A H 0.8595 0.0845 -0.3005
H4A H 1.0796 0.0002 -0.2698
H5A H 0.8515 -0.0210 -0.3175
H1A H 0.7378 -0.2198 -0.2007
O2A_2 O 0.0820(4) 0.07248(15) -0.10060(14)
O5A_2 O 0.1419(4) -0.13723(16) -0.11299(14)
Zn2 Zn 0.71340(6) -0.40877(3) 0.44212(2)
P3 P 0.20793(14) -0.35592(6) 0.34458(5)
P4 P 0.48300(14) -0.56871(6) 0.37126(5)
O8 O 0.4397(4) -0.32458(16) 0.37390(15)
O9 O 1.0249(4) -0.37034(17) 0.41322(14)
O10 O 0.0775(4) -0.28014(18) 0.27247(15)
H6 H 0.1823 -0.2574 0.2433
O11 O 0.7015(4) -0.53178(16) 0.40482(15)
O12 O 0.3026(4) -0.59617(17) 0.43985(14)
O13 O 0.5729(4) -0.65277(17) 0.32402(15)
O14 O 0.0763(5) -0.5007(2) 0.27384(17)
H7 H -0.0005 -0.5169 0.3159
C3 C 0.3010(6) -0.4693(2) 0.2987(2)
C4 C 0.4511(7) -0.4490(3) 0.2207(2)
H8 H 0.4900 -0.5064 0.1942
H9 H 0.6021 -0.4299 0.2360
H10 H 0.3564 -0.3980 0.1823
O9_2 O 0.0249(4) -0.37034(17) 0.41322(14)
O12A O 0.6974(4) -0.40383(17) 0.56015(14)
P3_2 P 1.20793(14) -0.35592(6) 0.34458(5)
Zn2_2 Zn -0.28660(6) -0.40877(3) 0.44212(2)
Zn2A Zn 0.28660(6) -0.59123(3) 0.55788(2)
O8_2 O 1.4397(4) -0.32458(16) 0.37390(15)
O10_2 O 1.0775(4) -0.28014(18) 0.27247(15)
C3_2 C 1.3010(6) -0.4693(2) 0.2987(2)
Zn2_3 Zn 1.71340(6) -0.40877(3) 0.44212(2)
H6_2 H 1.1823 -0.2574 0.2433
P4_2 P 1.48300(14) -0.56871(6) 0.37126(5)
O14_2 O 1.0763(5) -0.5007(2) 0.27384(17)
C4_2 C 1.4511(7) -0.4490(3) 0.2207(2)
O11_2 O 1.7015(4) -0.53178(16) 0.40482(15)
O12_2 O 1.3026(4) -0.59617(17) 0.43985(14)
O13_2 O 1.5729(4) -0.65277(17) 0.32402(15)
H7_2 H 0.9995 -0.5169 0.3159
H8_2 H 1.4900 -0.5064 0.1942
H9_2 H 1.6021 -0.4299 0.2360
H10_2 H 1.3564 -0.3980 0.1823
Zn2A_2 Zn 1.28660(6) -0.59123(3) 0.55788(2)
O9_3 O 2.0249(4) -0.37034(17) 0.41322(14)
O12A_2 O 1.6974(4) -0.40383(17) 0.56015(14)
O15 O -0.3454(5) -0.15876(18) 0.32118(18)
H11 H -0.181(3) -0.191(2) 0.311(3)
H12 H -0.439(6) -0.2096(19) 0.334(3)
O16 O -0.4968(5) -0.7185(2) 0.17961(18)
H13 H -0.433(8) -0.7817(12) 0.210(2)
H14 H -0.463(9) -0.675(2) 0.218(2)
N1 N 0.2535(5) 0.2429(2) -0.0873(2)
H15 H 0.1670 0.2138 -0.1192
H16 H 0.2818 0.2074 -0.0370
H17 H 0.3975 0.2493 -0.1116
C5 C 0.1121(14) 0.3388(5) -0.0776(5)
H18 H -0.0452 0.3316 -0.0516
H19 H 0.0774 0.3767 -0.1327
C6 C 0.2517(14) 0.3918(5) -0.0247(5)
H20 H 0.4164 0.3920 -0.0474
H21 H 0.2707 0.3570 0.0319
C7 C 0.1252(14) 0.4963(5) -0.0206(5)
H22 H 0.228(7) 0.5258(16) 0.013(3)
H23 H 0.116(10) 0.5311(14) -0.0774(11)
C7A C -0.1252(14) 0.5037(5) 0.0206(5)
C6A C -0.2517(14) 0.6082(5) 0.0247(5)
H22A H -0.228(7) 0.4742(16) -0.013(3)
H23A H -0.116(10) 0.4689(14) 0.0774(11)
C5A C -0.1121(14) 0.6612(5) 0.0776(5)
H20A H -0.4164 0.6080 0.0474
H21A H -0.2707 0.6430 -0.0319
N1A N -0.2535(5) 0.7571(2) 0.0873(2)
H18A H 0.0452 0.6684 0.0516
H19A H -0.0774 0.6233 0.1327
H15A H -0.1670 0.7862 0.1192
H16A H -0.2818 0.7926 0.0370
H17A H -0.3975 0.7507 0.1116
N2 N -0.9490(5) -0.7308(2) 0.3758(2)
H24 H -0.8806 -0.6874 0.3979
H25 H -1.1089 -0.7073 0.3646
H26 H -0.8722 -0.7435 0.3285
C8 C -0.9247(7) -0.8210(3) 0.4364(2)
H27 H -1.0270 -0.8632 0.4175
H28 H -0.9838 -0.8054 0.4908
C9 C -0.6576(7) -0.8729(3) 0.4450(3)
H29 H -0.5597 -0.8339 0.4708
H30 H -0.5921 -0.8804 0.3895
C10 C -0.6320(7) -0.9723(3) 0.4979(3)
H31 H -0.6872 -0.9643 0.5545
H32 H -0.7391 -1.0096 0.4743
C10A C -0.3680(7) -1.0277(3) 0.5021(3)
C9A C -0.3424(7) -1.1271(3) 0.5550(3)
H31A H -0.3128 -1.0357 0.4455
H32A H -0.2609 -0.9904 0.5257
C8A C -0.0753(7) -1.1790(3) 0.5636(2)
H29A H -0.4403 -1.1661 0.5292
H30A H -0.4079 -1.1196 0.6105
N2A N -0.0510(5) -1.2692(2) 0.6242(2)
H27A H 0.0270 -1.1368 0.5825
H28A H -0.0162 -1.1946 0.5092
H24A H -0.1194 -1.3126 0.6021
H25A H 0.1089 -1.2927 0.6354
H26A H -0.1278 -1.2565 0.6715
C11? C 1.215(2) 1.3391(7) -0.0623(8)
H33? H 1.2136 1.3862 -0.1123
H34? H 1.3549 1.3436 -0.0274
C12? C 0.9817(18) 1.3650(7) -0.0154(7)
H35? H 0.9598 1.3109 0.0262
H36? H 0.8409 1.3790 -0.0541
C13? C 0.993(2) 1.4538(8) 0.0283(7)
H37? H 1.101(5) 1.457(6) 0.075(3)
H38? H 0.925(9) 1.395(2) 0.039(5)
loop_
_geom_bond_atom_site_label_1
_geom_bond_atom_site_label_2
_geom_bond_site_symmetry_1
_geom_bond_site_symmetry_2
Zn1 O1 1_555 1_555
P1 O1 1_555 1_555
P2 O4 1_555 1_555
O1 Zn1A 1_555 1_555
O2 P1 1_555 1_555
O3 P1 1_555 1_555
O4 Zn1 1_555 1_555
O5 P2 1_555 1_555
O6 P2 1_555 1_555
H1 O6 1_555 1_555
O7 Zn1 1_555 1_555
H2 O7 1_555 1_555
C1 P1 1_555 1_555
C2 C1 1_555 1_555
H3 C2 1_555 1_555
H4 C2 1_555 1_555
H5 C2 1_555 1_555
Zn2 O8 1_555 1_555
P3 O8 1_555 1_555
P4 O11 1_555 1_555
O9 Zn2 1_555 1_555
O10 P3 1_555 1_555
H6 O10 1_555 1_555
O11 Zn2 1_555 1_555
O12 P4 1_555 1_555
O13 P4 1_555 1_555
O14 H7 1_555 1_555
C3 P3 1_555 1_555
C4 C3 1_555 1_555
H8 C4 1_555 1_555
H9 C4 1_555 1_555
H10 C4 1_555 1_555
O15 H11 1_555 1_555
H12 O15 1_555 1_555
O16 H13 1_555 1_555
H14 O16 1_555 1_555
N1 H15 1_555 1_555
H16 N1 1_555 1_555
H17 N1 1_555 1_555
C5 N1 1_555 1_555
H18 C5 1_555 1_555
H19 C5 1_555 1_555
C6 C5 1_555 1_555
H20 C6 1_555 1_555
H21 C6 1_555 1_555
C7 C6 1_555 1_555
H22 C7 1_555 1_555
H23 C7 1_555 1_555
N2 H24 1_555 1_555
H25 N2 1_555 1_555
H26 N2 1_555 1_555
C8 N2 1_555 1_555
H27 C8 1_555 1_555
H28 C8 1_555 1_555
C9 C8 1_555 1_555
H29 C9 1_555 1_555
H30 C9 1_555 1_555
C10 C9 1_555 1_555
H31 C10 1_555 1_555
H32 C10 1_555 1_555
O1A Zn1 1_555 1_555
O2_2 Zn1 1_555 1_555
O5_2 Zn1 1_555 1_555
Zn1A O1A 1_555 1_555
P1A O1A 1_555 1_555
Zn1_2 O2 1_555 1_555
O2A P1A 1_555 1_555
O3A P1A 1_555 1_555
C1A P1A 1_555 1_555
Zn1A_2 O2A 1_555 1_555
P2A C1A 1_555 1_555
O7A Zn1A 1_555 1_555
C2A C1A 1_555 1_555
O4A Zn1A 1_555 1_555
O5A Zn1A_2 1_555 1_555
O6A P2A 1_555 1_555
H2A O7A 1_555 1_555
H3A C2A 1_555 1_555
H4A C2A 1_555 1_555
H5A C2A 1_555 1_555
H1A O6A 1_555 1_555
O2A_2 Zn1A 1_555 1_555
O5A_2 Zn1A 1_555 1_555
O9_2 P3 1_555 1_555
O12A Zn2 1_555 1_555
P3_2 O9 1_555 1_555
Zn2_2 O9_2 1_555 1_555
Zn2A O12 1_555 1_555
O8_2 P3_2 1_555 1_555
O10_2 P3_2 1_555 1_555
C3_2 P3_2 1_555 1_555
Zn2_3 O8_2 1_555 1_555
H6_2 O10_2 1_555 1_555
P4_2 C3_2 1_555 1_555
O14_2 C3_2 1_555 1_555
C4_2 C3_2 1_555 1_555
O11_2 Zn2_3 1_555 1_555
O12_2 P4_2 1_555 1_555
O13_2 P4_2 1_555 1_555
H7_2 O14_2 1_555 1_555
H8_2 C4_2 1_555 1_555
H9_2 C4_2 1_555 1_555
H10_2 C4_2 1_555 1_555
Zn2A_2 O12_2 1_555 1_555
O9_3 Zn2_3 1_555 1_555
O12A_2 Zn2_3 1_555 1_555
C7A C7 1_555 1_555
C6A C7A 1_555 1_555
H22A C7A 1_555 1_555
H23A C7A 1_555 1_555
C5A C6A 1_555 1_555
H20A C6A 1_555 1_555
H21A C6A 1_555 1_555
N1A C5A 1_555 1_555
H18A C5A 1_555 1_555
H19A C5A 1_555 1_555
H15A N1A 1_555 1_555
H16A N1A 1_555 1_555
H17A N1A 1_555 1_555
C10A C10 1_555 1_555
C9A C10A 1_555 1_555
H31A C10A 1_555 1_555
H32A C10A 1_555 1_555
C8A C9A 1_555 1_555
H29A C9A 1_555 1_555
H30A C9A 1_555 1_555
N2A C8A 1_555 1_555
H27A C8A 1_555 1_555
H28A C8A 1_555 1_555
H24A N2A 1_555 1_555
H25A N2A 1_555 1_555
H26A N2A 1_555 1_555
P2 C1 1_555 1_555
O5 Zn1_2 1_555 1_555
O7 C1 1_555 1_555
P4 C3 1_555 1_555
O14 C3 1_555 1_555
C1A O7A 1_555 1_555
P2A O4A 1_555 1_555
P2A O5A 1_555 1_555
P4_2 O11_2 1_555 1_555

#END
