
#######################################################################
#
#                 Cambridge Crystallographic Data Centre
#                                CCDC 
#
#######################################################################
#
# If this CIF has been generated from an entry in the Cambridge 
# Structural Database, then it will include bibliographic, chemical, 
# crystal, experimental, refinement or atomic coordinate data resulting 
# from the CCDC's data processing and validation procedures.
#
#######################################################################

data_NEQDIX
_symmetry_cell_setting           monoclinic
_symmetry_space_group_name_H-M   'P 21/n'
_symmetry_Int_Tables_number      14
_space_group_name_Hall           '-P 2yn'
loop_
_symmetry_equiv_pos_site_id
_symmetry_equiv_pos_as_xyz
1 x,y,z
2 1/2-x,1/2+y,1/2-z
3 -x,-y,-z
4 1/2+x,1/2-y,1/2+z
_cell_length_a                   11.5035(14)
_cell_length_b                   13.3651(16)
_cell_length_c                   11.7868(14)
_cell_angle_alpha                90
_cell_angle_beta                 90.452(2)
_cell_angle_gamma                90
_cell_volume                     1812.11
loop_
_atom_site_label
_atom_site_type_symbol
_atom_site_fract_x
_atom_site_fract_y
_atom_site_fract_z
Cd1 Cd 0.0000 0.0000 0.0000
Cl1 Cl -0.20813(5) 0.06831(4) -0.01092(5)
N1 N 0.07409(17) 0.11785(14) -0.13523(16)
C1 C 0.0339(2) 0.21074(17) -0.17350(19)
C2 C -0.0526(2) 0.27313(18) -0.1301(2)
H1 H -0.0941 0.2558 -0.0636
C3 C -0.0753(2) 0.36099(18) -0.1881(2)
H2 H -0.1345 0.4043 -0.1614
C4 C -0.0129(2) 0.38798(19) -0.2856(2)
H3 H -0.0316 0.4487 -0.3235
C5 C 0.0751(2) 0.32817(18) -0.3278(2)
H4 H 0.1187 0.3468 -0.3926
C6 C 0.0960(2) 0.23930(18) -0.2698(2)
N2 N 0.17569(18) 0.16332(14) -0.28818(16)
C7 C 0.1591(2) 0.09501(18) -0.2052(2)
H5 H 0.2044 0.0359 -0.1980
C8 C 0.2662(2) 0.16014(18) -0.3750(2)
H6 H 0.3433 0.1582 -0.3372
H7 H 0.2621 0.2221 -0.4208
C9 C 0.2547(2) 0.07107(18) -0.45265(19)
C10 C 0.1616(2) 0.06240(18) -0.5287(2)
H8 H 0.1028 0.1123 -0.5303
C11 C 0.1545(2) -0.01866(18) -0.6021(2)
H9 H 0.0905 -0.0242 -0.6532
C12 C 0.2410(2) -0.09236(17) -0.60137(19)
C13 C 0.3333(2) -0.08395(18) -0.5258(2)
H10 H 0.3924 -0.1336 -0.5243
C14 C 0.3396(2) -0.00267(17) -0.4518(2)
H11 H 0.4031 0.0023 -0.4001
C15 C 0.2251(2) -0.18043(18) -0.6803(2)
H12 H 0.1559 -0.2187 -0.6562
H13 H 0.2094 -0.1549 -0.7578
N3 N 0.32439(17) -0.24836(14) -0.68458(16)
C16 C 0.3422(2) -0.33129(17) -0.6206(2)
H14 H 0.2876 -0.3546 -0.5666
N4 N 0.44156(17) -0.37675(14) -0.63975(16)
C17 C 0.4937(2) -0.32032(17) -0.72466(19)
C18 C 0.5982(2) -0.33375(18) -0.7826(2)
H15 H 0.6484 -0.3881 -0.7651
C19 C 0.6258(2) -0.26568(19) -0.8659(2)
H16 H 0.6960 -0.2738 -0.9068
C20 C 0.5529(2) -0.1848(2) -0.8919(2)
H17 H 0.5759 -0.1387 -0.9489
C21 C 0.4486(2) -0.17002(18) -0.8369(2)
H18 H 0.3986 -0.1157 -0.8551
C22 C 0.4212(2) -0.23949(17) -0.75333(19)
Cd1C Cd 0.5000 -0.5000 -0.5000
Cd1C_2 Cd -0.5000 0.5000 0.5000
Cl1B Cl 0.20813(5) -0.06831(4) 0.01092(5)
N1B N -0.07409(17) -0.11785(14) 0.13523(16)
C1B C -0.0339(2) -0.21074(17) 0.17350(19)
C2B C 0.0526(2) -0.27313(18) 0.1301(2)
H1B H 0.0941 -0.2558 0.0636
C3B C 0.0753(2) -0.36099(18) 0.1881(2)
H2B H 0.1345 -0.4043 0.1614
C4B C 0.0129(2) -0.38798(19) 0.2856(2)
H3B H 0.0316 -0.4487 0.3235
C5B C -0.0751(2) -0.32817(18) 0.3278(2)
H4B H -0.1187 -0.3468 0.3926
C6B C -0.0960(2) -0.23930(18) 0.2698(2)
N2B N -0.17569(18) -0.16332(14) 0.28818(16)
C7B C -0.1591(2) -0.09501(18) 0.2052(2)
H5B H -0.2044 -0.0359 0.1980
C8B C -0.2662(2) -0.16014(18) 0.3750(2)
H6B H -0.3433 -0.1582 0.3372
H7B H -0.2621 -0.2221 0.4208
C9B C -0.2547(2) -0.07107(18) 0.45265(19)
C10B C -0.1616(2) -0.06240(18) 0.5287(2)
H8B H -0.1028 -0.1123 0.5303
C11B C -0.1545(2) 0.01866(18) 0.6021(2)
H9B H -0.0905 0.0242 0.6532
C12B C -0.2410(2) 0.09236(17) 0.60137(19)
C13B C -0.3333(2) 0.08395(18) 0.5258(2)
H10B H -0.3924 0.1336 0.5243
C14B C -0.3396(2) 0.00267(17) 0.4518(2)
H11B H -0.4031 -0.0023 0.4001
C15B C -0.2251(2) 0.18043(18) 0.6803(2)
H12B H -0.1559 0.2187 0.6562
H13B H -0.2094 0.1549 0.7578
N3B N -0.32439(17) 0.24836(14) 0.68458(16)
C16B C -0.3422(2) 0.33129(17) 0.6206(2)
H14B H -0.2876 0.3546 0.5666
N4B N -0.44156(17) 0.37675(14) 0.63975(16)
N4C N -0.05844(17) -0.12325(14) -0.13975(16)
N4A N 0.05844(17) 0.12325(14) 0.13975(16)
C17B C -0.4937(2) 0.32032(17) 0.72466(19)
C18B C -0.5982(2) 0.33375(18) 0.7826(2)
H15B H -0.6484 0.3881 0.7651
C19B C -0.6258(2) 0.26568(19) 0.8659(2)
H16B H -0.6960 0.2738 0.9068
C20B C -0.5529(2) 0.1848(2) 0.8919(2)
H17B H -0.5759 0.1387 0.9489
C21B C -0.4486(2) 0.17002(18) 0.8369(2)
H18B H -0.3986 0.1157 0.8551
C22B C -0.4212(2) 0.23949(17) 0.75333(19)
loop_
_geom_bond_atom_site_label_1
_geom_bond_atom_site_label_2
_geom_bond_site_symmetry_1
_geom_bond_site_symmetry_2
Cd1 Cl1 1_555 1_555
N1 Cd1 1_555 1_555
C1 N1 1_555 1_555
C2 C1 1_555 1_555
H1 C2 1_555 1_555
C3 C2 1_555 1_555
H2 C3 1_555 1_555
C4 C3 1_555 1_555
H3 C4 1_555 1_555
C5 C4 1_555 1_555
H4 C5 1_555 1_555
C6 C1 1_555 1_555
N2 C6 1_555 1_555
C7 N1 1_555 1_555
H5 C7 1_555 1_555
C8 N2 1_555 1_555
H6 C8 1_555 1_555
H7 C8 1_555 1_555
C9 C8 1_555 1_555
C10 C9 1_555 1_555
H8 C10 1_555 1_555
C11 C10 1_555 1_555
H9 C11 1_555 1_555
C12 C11 1_555 1_555
C13 C12 1_555 1_555
H10 C13 1_555 1_555
C14 C9 1_555 1_555
H11 C14 1_555 1_555
C15 C12 1_555 1_555
H12 C15 1_555 1_555
H13 C15 1_555 1_555
N3 C15 1_555 1_555
C16 N3 1_555 1_555
H14 C16 1_555 1_555
N4 C16 1_555 1_555
C17 N4 1_555 1_555
C18 C17 1_555 1_555
H15 C18 1_555 1_555
C19 C18 1_555 1_555
H16 C19 1_555 1_555
C20 C19 1_555 1_555
H17 C20 1_555 1_555
C21 C20 1_555 1_555
H18 C21 1_555 1_555
C22 N3 1_555 1_555
Cd1C N4 1_555 1_555
Cd1C_2 N4B 1_555 1_555
Cl1B Cd1 1_555 1_555
N1B Cd1 1_555 1_555
C1B N1B 1_555 1_555
C2B C1B 1_555 1_555
H1B C2B 1_555 1_555
C3B C2B 1_555 1_555
H2B C3B 1_555 1_555
C4B C3B 1_555 1_555
H3B C4B 1_555 1_555
C5B C4B 1_555 1_555
H4B C5B 1_555 1_555
C6B C1B 1_555 1_555
N2B C6B 1_555 1_555
C7B N1B 1_555 1_555
H5B C7B 1_555 1_555
C8B N2B 1_555 1_555
H6B C8B 1_555 1_555
H7B C8B 1_555 1_555
C9B C8B 1_555 1_555
C10B C9B 1_555 1_555
H8B C10B 1_555 1_555
C11B C10B 1_555 1_555
H9B C11B 1_555 1_555
C12B C11B 1_555 1_555
C13B C12B 1_555 1_555
H10B C13B 1_555 1_555
C14B C9B 1_555 1_555
H11B C14B 1_555 1_555
C15B C12B 1_555 1_555
H12B C15B 1_555 1_555
H13B C15B 1_555 1_555
N3B C15B 1_555 1_555
C16B N3B 1_555 1_555
H14B C16B 1_555 1_555
N4B C16B 1_555 1_555
N4C Cd1 1_555 1_555
N4A Cd1 1_555 1_555
C17B N4B 1_555 1_555
C18B C17B 1_555 1_555
H15B C18B 1_555 1_555
C19B C18B 1_555 1_555
H16B C19B 1_555 1_555
C20B C19B 1_555 1_555
H17B C20B 1_555 1_555
C21B C20B 1_555 1_555
H18B C21B 1_555 1_555
C22B N3B 1_555 1_555
C5 C6 1_555 1_555
N2 C7 1_555 1_555
C13 C14 1_555 1_555
C17 C22 1_555 1_555
C21 C22 1_555 1_555
C5B C6B 1_555 1_555
N2B C7B 1_555 1_555
C13B C14B 1_555 1_555
C17B C22B 1_555 1_555
C21B C22B 1_555 1_555

#END
