
#######################################################################
#
#                 Cambridge Crystallographic Data Centre
#                                CCDC 
#
#######################################################################
#
# If this CIF has been generated from an entry in the Cambridge 
# Structural Database, then it will include bibliographic, chemical, 
# crystal, experimental, refinement or atomic coordinate data resulting 
# from the CCDC's data processing and validation procedures.
#
#######################################################################

data_NEQDET
_symmetry_cell_setting           trigonal
_symmetry_space_group_name_H-M   'P -3'
_symmetry_Int_Tables_number      147
_space_group_name_Hall           '-P 3'
loop_
_symmetry_equiv_pos_site_id
_symmetry_equiv_pos_as_xyz
1 x,y,z
2 -y,x-y,z
3 -x+y,-x,z
4 -x,-y,-z
5 y,-x+y,-z
6 x-y,x,-z
_cell_length_a                   14.2551(11)
_cell_length_b                   14.2551(11)
_cell_length_c                   7.7890(12)
_cell_angle_alpha                90
_cell_angle_beta                 90
_cell_angle_gamma                120
_cell_volume                     1370.73
loop_
_atom_site_label
_atom_site_type_symbol
_atom_site_fract_x
_atom_site_fract_y
_atom_site_fract_z
Ag1 Ag 0.0000 1.0000 0.70700(6)
C1 C -0.2028(4) 0.6689(4) 0.8821(5)
H1 H -0.2117 0.6073 0.9434
N1 N -0.1299(3) 0.8301(3) 0.7527(4)
N2 N -0.2846(3) 0.6837(3) 0.8138(4)
C2 C -0.2362(3) 0.7813(3) 0.7378(5)
C3 C -0.3918(3) 0.5363(3) 0.5269(5)
H2 H -0.3170 0.5614 0.5447
C4 C -0.1101(4) 0.7575(3) 0.8448(5)
H3 H -0.0404 0.7699 0.8761
C5 C -0.4005(3) 0.6057(3) 0.8233(5)
H4 H -0.4384 0.6433 0.8667
H5 H -0.4123 0.5487 0.9073
C6 C -0.4509(3) 0.5522(3) 0.6535(5)
C7 C -0.2970(4) 0.8261(4) 0.6464(6)
H6 H -0.3747 0.7737 0.6514
H7 H -0.2736 0.8402 0.5263
H8 H -0.2826 0.8938 0.7015
C8 C -0.5597(3) 0.5155(3) 0.6241(5)
H9 H -0.6013 0.5262 0.7090
Ag1C Ag -1.0000 0.0000 0.29300(6)
Ag1C_2 Ag 1.0000 1.0000 0.29300(6)
Ag1C_3 Ag 0.0000 2.0000 0.29300(6)
C1C C -0.7972(4) 0.3311(4) 0.1179(5)
C1A C 0.3311(4) 1.1283(6) 0.8821(5)
C1D C 0.6689(4) 0.8717(6) 0.1179(5)
C1B C -0.1283(6) 1.2028(4) 0.8821(5)
C1E C 0.1283(6) 1.7972(4) 0.1179(5)
H1C H -0.7883 0.3927 0.0566
H1A H 0.3927 1.1810 0.9434
H1D H 0.6073 0.8190 0.0566
H1B H -0.1810 1.2117 0.9434
H1E H 0.1810 1.7883 0.0566
N1C N -0.8701(3) 0.1699(3) 0.2473(4)
N1A N 0.1699(3) 1.0400(4) 0.7527(4)
N1D N 0.8301(3) 0.9600(4) 0.2473(4)
N1B N -0.0400(4) 1.1299(3) 0.7527(4)
N1E N 0.0400(4) 1.8701(3) 0.2473(4)
N1D_2 N -1.1699(3) -0.0400(4) 0.2473(4)
N1E_2 N -0.9600(4) -0.1299(3) 0.2473(4)
N2C N -0.7154(3) 0.3163(3) 0.1862(4)
N2A N 0.3163(3) 1.0317(4) 0.8138(4)
N2D N 0.6837(3) 0.9683(4) 0.1862(4)
N2B N -0.0317(4) 1.2846(3) 0.8138(4)
N2E N 0.0317(4) 1.7154(3) 0.1862(4)
C2C C -0.7638(3) 0.2187(3) 0.2622(5)
C2A C 0.2187(3) 0.9825(4) 0.7378(5)
C2D C 0.7813(3) 1.0175(4) 0.2622(5)
C2B C 0.0175(4) 1.2362(3) 0.7378(5)
C2E C -0.0175(4) 1.7638(3) 0.2622(5)
C3C C -0.6082(3) 0.4637(3) 0.4731(5)
C3A C 0.4637(3) 1.0719(4) 0.5269(5)
C3D C 0.5363(3) 0.9281(4) 0.4731(5)
C3B C -0.0719(4) 1.3918(3) 0.5269(5)
C3E C 0.0719(4) 1.6082(3) 0.4731(5)
H2C H -0.6830 0.4386 0.4553
H2A H 0.4386 1.1216 0.5447
H2D H 0.5614 0.8784 0.4553
H2B H -0.1216 1.3170 0.5447
H2E H 0.1216 1.6830 0.4553
C4C C -0.8899(4) 0.2425(3) 0.1552(5)
C4A C 0.2425(3) 1.1324(5) 0.8448(5)
C4D C 0.7575(3) 0.8676(5) 0.1552(5)
C4B C -0.1324(5) 1.1101(4) 0.8448(5)
C4E C 0.1324(5) 1.8899(4) 0.1552(5)
H3C H -0.9596 0.2301 0.1239
H3A H 0.2301 1.1897 0.8761
H3D H 0.7699 0.8103 0.1239
H3B H -0.1897 1.0404 0.8761
H3E H 0.1897 1.9596 0.1239
C5C C -0.5995(3) 0.3943(3) 0.1767(5)
C5A C 0.3943(3) 0.9938(4) 0.8233(5)
C5D C 0.6057(3) 1.0062(4) 0.1767(5)
C5B C 0.0062(4) 1.4005(3) 0.8233(5)
C5E C -0.0062(4) 1.5995(3) 0.1767(5)
H4C H -0.5616 0.3567 0.1333
H4A H 0.3567 0.9183 0.8667
H4D H 0.6433 1.0817 0.1333
H4B H 0.0817 1.4384 0.8667
H4E H -0.0817 1.5616 0.1333
H5C H -0.5877 0.4513 0.0927
H5A H 0.4513 1.0390 0.9073
H5D H 0.5487 0.9610 0.0927
H5B H -0.0390 1.4123 0.9073
H5E H 0.0390 1.5877 0.0927
C6C C -0.5491(3) 0.4478(3) 0.3465(5)
C6A C 0.4478(3) 0.9969(4) 0.6535(5)
C6D C 0.5522(3) 1.0031(4) 0.3465(5)
C6B C 0.0031(4) 1.4509(3) 0.6535(5)
C6E C -0.0031(4) 1.5491(3) 0.3465(5)
C7C C -0.7030(4) 0.1739(4) 0.3536(6)
C7A C 0.1739(4) 0.8769(6) 0.6464(6)
C7D C 0.8261(4) 1.1231(6) 0.3536(6)
C7B C 0.1231(6) 1.2970(4) 0.6464(6)
C7E C -0.1231(6) 1.7030(4) 0.3536(6)
H6C H -0.6253 0.2263 0.3486
H6A H 0.2263 0.8516 0.6514
H6D H 0.7737 1.1484 0.3486
H6B H 0.1484 1.3747 0.6514
H6E H -0.1484 1.6253 0.3486
H7C H -0.7264 0.1598 0.4737
H7A H 0.1598 0.8862 0.5263
H7D H 0.8402 1.1138 0.4737
H7B H 0.1138 1.2736 0.5263
H7E H -0.1138 1.7264 0.4737
H8C H -0.7174 0.1062 0.2985
H8A H 0.1062 0.8236 0.7015
H8D H 0.8938 1.1764 0.2985
H8B H 0.1764 1.2826 0.7015
H8E H -0.1764 1.7174 0.2985
C8C C -0.4403(3) 0.4845(3) 0.3759(5)
C8A C 0.4845(3) 0.9248(4) 0.6241(5)
C8D C 0.5155(3) 1.0752(4) 0.3759(5)
C8B C 0.0752(4) 1.5597(3) 0.6241(5)
C8E C -0.0752(4) 1.4403(3) 0.3759(5)
H9C H -0.3987 0.4738 0.2910
H9A H 0.4738 0.8725 0.7090
H9D H 0.5262 1.1275 0.2910
H9B H 0.1275 1.6013 0.7090
H9E H -0.1275 1.3987 0.2910
S1 S 0.3333 0.6667 0.9564(3)
O1 O 0.2896(4) 0.5551(3) 0.9113(6)
C9 C 0.3333 0.6667 1.1893(15)
F1 F 0.4106(3) 0.6510(4) 1.2532(6)
O1A O 0.4449(3) 0.7345(5) 0.9113(6)
O1B O 0.2655(5) 0.7104(4) 0.9113(6)
F1A F 0.3490(4) 0.7596(5) 1.2532(6)
F1B F 0.2404(5) 0.5894(3) 1.2532(6)
loop_
_geom_bond_atom_site_label_1
_geom_bond_atom_site_label_2
_geom_bond_site_symmetry_1
_geom_bond_site_symmetry_2
Ag1 N1 1_555 1_555
C1 H1 1_555 1_555
N1 C2 1_555 1_555
N2 C1 1_555 1_555
C2 N2 1_555 1_555
C3 H2 1_555 1_555
C4 C1 1_555 1_555
H3 C4 1_555 1_555
C5 N2 1_555 1_555
H4 C5 1_555 1_555
H5 C5 1_555 1_555
C6 C3 1_555 1_555
C7 C2 1_555 1_555
H6 C7 1_555 1_555
H7 C7 1_555 1_555
H8 C7 1_555 1_555
C8 C6 1_555 1_555
H9 C8 1_555 1_555
S1 O1 1_555 1_555
C9 S1 1_555 1_555
F1 C9 1_555 1_555
Ag1C N1C 1_555 1_555
Ag1C_2 N1D 1_555 1_555
Ag1C_3 N1E 1_555 1_555
C1C H1C 1_555 1_555
C1A H1A 1_555 1_555
C1D H1D 1_555 1_555
C1B H1B 1_555 1_555
C1E H1E 1_555 1_555
N1C C2C 1_555 1_555
N1A Ag1 1_555 1_555
N1D C2D 1_555 1_555
N1B Ag1 1_555 1_555
N1E C2E 1_555 1_555
N1D_2 Ag1C 1_555 1_555
N1E_2 Ag1C 1_555 1_555
N2C C1C 1_555 1_555
N2A C1A 1_555 1_555
N2D C1D 1_555 1_555
N2B C1B 1_555 1_555
N2E C1E 1_555 1_555
C2C N2C 1_555 1_555
C2A N1A 1_555 1_555
C2D N2D 1_555 1_555
C2B N1B 1_555 1_555
C2E N2E 1_555 1_555
C3C C8 1_555 1_555
C3A H2A 1_555 1_555
C3D H2D 1_555 1_555
C3B H2B 1_555 1_555
C3E H2E 1_555 1_555
H2C C3C 1_555 1_555
C4C C1C 1_555 1_555
C4A C1A 1_555 1_555
C4D C1D 1_555 1_555
C4B C1B 1_555 1_555
C4E C1E 1_555 1_555
H3C C4C 1_555 1_555
H3A C4A 1_555 1_555
H3D C4D 1_555 1_555
H3B C4B 1_555 1_555
H3E C4E 1_555 1_555
C5C N2C 1_555 1_555
C5A N2A 1_555 1_555
C5D N2D 1_555 1_555
C5B N2B 1_555 1_555
C5E N2E 1_555 1_555
H4C C5C 1_555 1_555
H4A C5A 1_555 1_555
H4D C5D 1_555 1_555
H4B C5B 1_555 1_555
H4E C5E 1_555 1_555
H5C C5C 1_555 1_555
H5A C5A 1_555 1_555
H5D C5D 1_555 1_555
H5B C5B 1_555 1_555
H5E C5E 1_555 1_555
C6C C3C 1_555 1_555
C6A C3A 1_555 1_555
C6D C3D 1_555 1_555
C6B C3B 1_555 1_555
C6E C3E 1_555 1_555
C7C C2C 1_555 1_555
C7A C2A 1_555 1_555
C7D C2D 1_555 1_555
C7B C2B 1_555 1_555
C7E C2E 1_555 1_555
H6C C7C 1_555 1_555
H6A C7A 1_555 1_555
H6D C7D 1_555 1_555
H6B C7B 1_555 1_555
H6E C7E 1_555 1_555
H7C C7C 1_555 1_555
H7A C7A 1_555 1_555
H7D C7D 1_555 1_555
H7B C7B 1_555 1_555
H7E C7E 1_555 1_555
H8C C7C 1_555 1_555
H8A C7A 1_555 1_555
H8D C7D 1_555 1_555
H8B C7B 1_555 1_555
H8E C7E 1_555 1_555
C8C C3 1_555 1_555
C8A C3D 1_555 1_555
C8D C3A 1_555 1_555
C8B C3E 1_555 1_555
C8E C3B 1_555 1_555
H9C C8C 1_555 1_555
H9A C8A 1_555 1_555
H9D C8D 1_555 1_555
H9B C8B 1_555 1_555
H9E C8E 1_555 1_555
O1A S1 1_555 1_555
O1B S1 1_555 1_555
F1A C9 1_555 1_555
F1B C9 1_555 1_555
N1 C4 1_555 1_555
C5 C6 1_555 1_555
N1C C4C 1_555 1_555
N1A C4A 1_555 1_555
N1D C4D 1_555 1_555
N1B C4B 1_555 1_555
N1E C4E 1_555 1_555
N2A C2A 1_555 1_555
N2B C2B 1_555 1_555
C5C C6C 1_555 1_555
C5A C6A 1_555 1_555
C5D C6D 1_555 1_555
C5B C6B 1_555 1_555
C5E C6E 1_555 1_555
C6C C8C 1_555 1_555
C6A C8A 1_555 1_555
C6D C8D 1_555 1_555
C6B C8B 1_555 1_555
C6E C8E 1_555 1_555

#END
