
#######################################################################
#
#                 Cambridge Crystallographic Data Centre
#                                CCDC 
#
#######################################################################
#
# If this CIF has been generated from an entry in the Cambridge 
# Structural Database, then it will include bibliographic, chemical, 
# crystal, experimental, refinement or atomic coordinate data resulting 
# from the CCDC's data processing and validation procedures.
#
#######################################################################

data_NEQDIW
_symmetry_cell_setting           monoclinic
_symmetry_space_group_name_H-M   'P 21/n'
_symmetry_Int_Tables_number      14
_space_group_name_Hall           '-P 2yn'
loop_
_symmetry_equiv_pos_site_id
_symmetry_equiv_pos_as_xyz
1 x,y,z
2 1/2+x,1/2-y,1/2+z
3 -x,-y,-z
4 1/2-x,1/2+y,1/2-z
_cell_length_a                   5.5251(2)
_cell_length_b                   12.5968(3)
_cell_length_c                   16.1705(5)
_cell_angle_alpha                90
_cell_angle_beta                 99.1821(16)
_cell_angle_gamma                90
_cell_volume                     1111.02
loop_
_atom_site_label
_atom_site_type_symbol
_atom_site_fract_x
_atom_site_fract_y
_atom_site_fract_z
O8 O 0.2293(4) 0.3427(2) 0.3031(2)
H3 H 0.382(5) 0.310(3) 0.300(3)
H4 H 0.124(6) 0.287(3) 0.312(3)
N1 N 0.1771(5) 0.24659(19) 0.07143(17)
H8 H 0.2737 0.2903 0.1051
H9 H 0.0514 0.2268 0.0961
H10 H 0.1211 0.2797 0.0236
C3 C 0.316(2) 0.1537(8) 0.0542(9)
H11 H 0.3823 0.1206 0.1072
H12 H 0.4530 0.1767 0.0281
C4 C 0.174(3) 0.0708(10) -0.0013(9)
H13 H 0.1124 0.1035 -0.0548
H14 H 0.2874 0.0153 -0.0115
C5 C -0.037(5) 0.020(2) 0.0312(19)
C4B C -0.174(3) -0.0708(10) 0.0013(9)
C3B C -0.316(2) -0.1537(8) -0.0542(9)
N1B N -0.1771(5) -0.24659(19) -0.07143(17)
H8B H -0.2737 -0.2903 -0.1051
H9B H -0.0514 -0.2268 -0.0961
H10B H -0.1211 -0.2797 -0.0236
H11B H -0.3823 -0.1206 -0.1072
H12B H -0.4530 -0.1767 -0.0281
H13B H -0.1124 -0.1035 0.0548
H14B H -0.2874 -0.0153 0.0115
C5B C 0.037(5) -0.020(2) -0.0312(19)
Zn1 Zn 0.78377(5) 0.43789(2) -0.081400(17)
P1 P 0.23033(11) 0.34479(5) -0.15245(4)
P2 P -0.70793(11) 0.57888(5) -0.11671(4)
O1 O 0.5012(3) 0.33394(14) -0.12035(13)
O2 O 0.0609(3) 0.33397(13) -0.08735(11)
O3 O -0.8566(4) 0.26570(16) -0.22310(13)
H1 H -0.7604 0.2659 -0.2568
O4 O -0.4325(3) 0.56688(13) -0.09918(12)
O5 O -0.8458(3) 0.56234(13) -0.04383(11)
O6 O -0.7781(3) 0.69060(14) -0.15319(11)
O7 O -1.0953(3) 0.48695(15) -0.20670(12)
H2 H -1.124(6) 0.539(2) -0.2361(19)
C1 C -0.8304(4) 0.47945(18) -0.19521(14)
C2 C -0.7317(5) 0.4931(2) -0.27755(16)
H5 H -0.7721 0.5627 -0.2997
H6 H -0.5568 0.4844 -0.2677
H7 H -0.8041 0.4407 -0.3170
Zn1B Zn 0.21623(5) 0.56211(2) 0.081400(17)
O5B O 0.8458(3) 0.43766(13) 0.04383(11)
Zn1B_2 Zn -0.78377(5) 0.56211(2) 0.081400(17)
Zn1_2 Zn -0.21623(5) 0.43789(2) -0.081400(17)
O1_2 O -0.4988(3) 0.33394(14) -0.12035(13)
P1_2 P -0.76967(11) 0.34479(5) -0.15245(4)
O2_2 O -0.9391(3) 0.33397(13) -0.08735(11)
Zn1_3 Zn -1.21623(5) 0.43789(2) -0.081400(17)
O5B_2 O -0.1542(3) 0.43766(13) 0.04383(11)
O7_2 O -0.0953(3) 0.48695(15) -0.20670(12)
O3_2 O 0.1434(4) 0.26570(16) -0.22310(13)
H1_2 H 0.2396 0.2659 -0.2568
C1_2 C 0.1696(4) 0.47945(18) -0.19521(14)
O2_3 O 1.0609(3) 0.33397(13) -0.08735(11)
O4_2 O 0.5675(3) 0.56688(13) -0.09918(12)
O7_3 O 0.9047(3) 0.48695(15) -0.20670(12)
O5_2 O 0.1542(3) 0.56234(13) -0.04383(11)
P2_2 P 0.29207(11) 0.57888(5) -0.11671(4)
C2_2 C 0.2683(5) 0.4931(2) -0.27755(16)
H5_2 H 0.2279 0.5627 -0.2997
H6_2 H 0.4432 0.4844 -0.2677
H7_2 H 0.1959 0.4407 -0.3170
H2_2 H -0.124(6) 0.539(2) -0.2361(19)
O6_2 O 0.2219(3) 0.69060(14) -0.15319(11)
H2_3 H 0.876(6) 0.539(2) -0.2361(19)
C6? C 1.209(2) 0.1305(7) 0.0645(10)
H15? H 1.2489 0.0988 0.1197
H16? H 1.3410 0.1149 0.0332
C7? C 0.969(2) 0.0872(9) 0.0192(10)
H17? H 0.8461 0.0959 0.0555
H18? H 0.9183 0.1305 -0.0302
C8? C 0.967(5) -0.0262(14) -0.008(2)
C9? C 1.083(3) 0.1359(7) 0.0638(9)
H19? H 1.0710 0.1097 0.1194
H20? H 0.9194 0.1368 0.0317
C10? C 1.235(2) 0.0607(9) 0.0236(10)
H21? H 1.3828 0.0459 0.0629
H22? H 1.2839 0.0956 -0.0245
C11? C 1.117(5) -0.0434(15) -0.005(2)
C12? C 1.298(2) 0.1475(7) 0.0896(10)
H23? H 1.3319 0.1403 0.1501
H24? H 1.4555 0.1520 0.0704
C13? C 1.178(3) 0.0474(8) 0.0553(10)
H25? H 1.1400 0.0067 0.1025
H26? H 1.2997 0.0072 0.0313
C14? C 0.950(5) 0.051(2) -0.0089(18)
loop_
_geom_bond_atom_site_label_1
_geom_bond_atom_site_label_2
_geom_bond_site_symmetry_1
_geom_bond_site_symmetry_2
Zn1 O1 1_555 1_555
P1 O1 1_555 1_555
P2 O4 1_555 1_555
O2 P1 1_555 1_555
O3 H1 1_555 1_555
O4 Zn1_2 1_555 1_555
O5 P2 1_555 1_555
O6 P2 1_555 1_555
O7 H2 1_555 1_555
O8 H3 1_555 1_555
H4 O8 1_555 1_555
C1 P2 1_555 1_555
C2 C1 1_555 1_555
H5 C2 1_555 1_555
H6 C2 1_555 1_555
H7 C2 1_555 1_555
N1 H8 1_555 1_555
H9 N1 1_555 1_555
H10 N1 1_555 1_555
C3 N1 1_555 1_555
H11 C3 1_555 1_555
H12 C3 1_555 1_555
C4 C3 1_555 1_555
H13 C4 1_555 1_555
H14 C4 1_555 1_555
C5 C4 1_555 1_555
Zn1B O5_2 1_555 1_555
O5B Zn1 1_555 1_555
Zn1B_2 O5 1_555 1_555
Zn1_2 O2 1_555 1_555
O1_2 Zn1_2 1_555 1_555
P1_2 O3 1_555 1_555
O2_2 P1_2 1_555 1_555
Zn1_3 O7 1_555 1_555
O5B_2 Zn1_2 1_555 1_555
O7_2 Zn1_2 1_555 1_555
O3_2 P1 1_555 1_555
H1_2 O3_2 1_555 1_555
C1_2 P1 1_555 1_555
O2_3 Zn1 1_555 1_555
O4_2 Zn1 1_555 1_555
O7_3 Zn1 1_555 1_555
O5_2 P2_2 1_555 1_555
C4B C5 1_555 1_555
C3B C4B 1_555 1_555
N1B C3B 1_555 1_555
H8B N1B 1_555 1_555
H9B N1B 1_555 1_555
H10B N1B 1_555 1_555
H11B C3B 1_555 1_555
H12B C3B 1_555 1_555
H13B C4B 1_555 1_555
H14B C4B 1_555 1_555
C5B C4 1_555 1_555
P2_2 C1_2 1_555 1_555
C2_2 C1_2 1_555 1_555
H5_2 C2_2 1_555 1_555
H6_2 C2_2 1_555 1_555
H7_2 C2_2 1_555 1_555
H2_2 O7_2 1_555 1_555
O6_2 P2_2 1_555 1_555
H2_3 O7_3 1_555 1_555
O7 C1 1_555 1_555
C1 P1_2 1_555 1_555
C5 C5B 1_555 1_555
O1_2 P1_2 1_555 1_555
O2_2 Zn1_3 1_555 1_555
O7_2 C1_2 1_555 1_555
O4_2 P2_2 1_555 1_555
C4B C5B 1_555 1_555

#END
