
#######################################################################
#
#                 Cambridge Crystallographic Data Centre
#                                CCDC 
#
#######################################################################
#
# If this CIF has been generated from an entry in the Cambridge 
# Structural Database, then it will include bibliographic, chemical, 
# crystal, experimental, refinement or atomic coordinate data resulting 
# from the CCDC's data processing and validation procedures.
#
#######################################################################

data_NEQNAZ01
_symmetry_cell_setting           monoclinic
_symmetry_space_group_name_H-M   'P 21/n'
_symmetry_Int_Tables_number      14
_space_group_name_Hall           '-P 2yn'
loop_
_symmetry_equiv_pos_site_id
_symmetry_equiv_pos_as_xyz
1 x,y,z
2 1/2-x,1/2+y,1/2-z
3 -x,-y,-z
4 1/2+x,1/2-y,1/2+z
_cell_length_a                   5.586(6)
_cell_length_b                   15.748(9)
_cell_length_c                   10.832(6)
_cell_angle_alpha                90
_cell_angle_beta                 93.94(3)
_cell_angle_gamma                90
_cell_volume                     950.621
loop_
_atom_site_label
_atom_site_type_symbol
_atom_site_fract_x
_atom_site_fract_y
_atom_site_fract_z
Cd1 Cd 0.07189(6) 0.372955(14) 0.31158(2)
O1 O 0.3289(6) 0.28668(14) 0.2181(2)
O2 O 0.4160(6) 0.15343(17) 0.1696(2)
O3 O 0.3399(7) -0.01740(17) 0.3172(3)
O4 O 0.1098(7) -0.00334(19) 0.1449(3)
O5 O 0.2872(7) 0.34613(18) 0.5126(2)
H1 H 0.3989 0.3785 0.5318
H2 H 0.1887 0.3401 0.5663
O6 O -0.2530(6) 0.37407(15) 0.1551(3)
H3 H -0.3683 0.3410 0.1640
H4 H -0.3071 0.4212 0.1323
O7 O -0.1846(8) 0.4335(2) 0.4320(3)
H5 H -0.3095 0.4581 0.4013
H6 H -0.1945 0.4277 0.5076
N1 N -0.0445(7) 0.23327(16) 0.3472(3)
N2 N -0.1324(7) 0.06150(18) 0.3781(3)
C1 C 0.0905(7) 0.17535(19) 0.2954(3)
C2 C 0.0436(7) 0.0893(2) 0.3109(3)
C3 C -0.2626(8) 0.1201(2) 0.4287(3)
H7 H -0.3866 0.1031 0.4763
C4 C -0.2215(8) 0.2060(2) 0.4137(3)
H8 H -0.3187 0.2453 0.4505
C5 C 0.2939(8) 0.2074(2) 0.2211(3)
C6 C 0.1817(9) 0.0189(2) 0.2531(4)
Cd1A Cd 0.42811(6) -0.127045(14) 0.18842(2)
O3A O 0.1601(7) 0.48260(17) 0.1828(3)
O4A O 0.3902(7) 0.49666(19) 0.3551(3)
loop_
_geom_bond_atom_site_label_1
_geom_bond_atom_site_label_2
_geom_bond_site_symmetry_1
_geom_bond_site_symmetry_2
Cd1 O1 1_555 1_555
O1 C5 1_555 1_555
O2 C5 1_555 1_555
O3 C6 1_555 1_555
O4 C6 1_555 1_555
O5 Cd1 1_555 1_555
H1 O5 1_555 1_555
H2 O5 1_555 1_555
O6 Cd1 1_555 1_555
H3 O6 1_555 1_555
H4 O6 1_555 1_555
O7 Cd1 1_555 1_555
H5 O7 1_555 1_555
H6 O7 1_555 1_555
N1 Cd1 1_555 1_555
N2 C2 1_555 1_555
C1 N1 1_555 1_555
C2 C1 1_555 1_555
C3 N2 1_555 1_555
H7 C3 1_555 1_555
C4 N1 1_555 1_555
H8 C4 1_555 1_555
C5 C1 1_555 1_555
C6 C2 1_555 1_555
Cd1A O3 1_555 1_555
O3A Cd1 1_555 1_555
O4A Cd1 1_555 1_555
O4 Cd1A 1_555 1_555
C3 C4 1_555 1_555

#END
