
#######################################################################
#
#                 Cambridge Crystallographic Data Centre
#                                CCDC 
#
#######################################################################
#
# If this CIF has been generated from an entry in the Cambridge 
# Structural Database, then it will include bibliographic, chemical, 
# crystal, experimental, refinement or atomic coordinate data resulting 
# from the CCDC's data processing and validation procedures.
#
#######################################################################

data_NEQNAZ
_symmetry_cell_setting           orthorhombic
_symmetry_space_group_name_H-M   'P 21 21 21'
_symmetry_Int_Tables_number      19
_space_group_name_Hall           'P 2ac 2ab'
loop_
_symmetry_equiv_pos_site_id
_symmetry_equiv_pos_as_xyz
1 x,y,z
2 1/2-x,-y,1/2+z
3 -x,1/2+y,1/2-z
4 1/2+x,1/2-y,-z
_cell_length_a                   5.7365(12)
_cell_length_b                   10.903(3)
_cell_length_c                   15.362(3)
_cell_angle_alpha                90
_cell_angle_beta                 90
_cell_angle_gamma                90
_cell_volume                     960.817
loop_
_atom_site_label
_atom_site_type_symbol
_atom_site_fract_x
_atom_site_fract_y
_atom_site_fract_z
Cd1 Cd 0.06672(8) 0.08596(4) 0.14635(3)
C1 C -0.2393(13) 0.1676(6) 0.3209(4)
H1 H -0.3384 0.2066 0.2818
C2 C -0.2852(12) 0.1728(6) 0.4091(4)
H2 H -0.4161 0.2154 0.4282
C3 C 0.0384(11) 0.0590(5) 0.4373(4)
C4 C 0.0861(10) 0.0501(5) 0.3484(4)
C5 C 0.1886(11) 0.0037(6) 0.5080(4)
C6 C 0.2936(12) -0.0200(6) 0.3136(4)
N1 N -0.1469(10) 0.1184(5) 0.4685(3)
N2 N -0.0524(10) 0.1066(4) 0.2917(3)
O1 O 0.3467(8) 0.0683(4) 0.5399(3)
O2 O 0.1379(9) -0.1017(4) 0.5365(3)
O3 O 0.4116(10) -0.0760(5) 0.3676(3)
O4 O 0.3288(9) -0.0154(5) 0.2324(3)
O5 O -0.2450(8) -0.0777(5) 0.1561(3)
H3 H -0.366(8) -0.041(7) 0.175(5)
H4 H -0.280(13) -0.119(7) 0.111(3)
O6 O -0.2024(11) 0.1832(5) 0.0699(5)
H5 H -0.336(9) 0.160(8) 0.054(8)
H6 H -0.191(16) 0.260(2) 0.067(8)
O7 O 0.2091(12) 0.2857(5) 0.1813(4)
H7 H 0.182(14) 0.315(8) 0.231(3)
H8 H 0.347(7) 0.302(10) 0.166(5)
Cd1A Cd 0.43328(8) -0.08596(4) 0.64635(3)
O1A O 0.1533(8) -0.0683(4) 0.0399(3)
O2A O 0.3621(9) 0.1017(4) 0.0365(3)
loop_
_geom_bond_atom_site_label_1
_geom_bond_atom_site_label_2
_geom_bond_site_symmetry_1
_geom_bond_site_symmetry_2
Cd1 N2 1_555 1_555
C1 H1 1_555 1_555
C2 C1 1_555 1_555
H2 C2 1_555 1_555
C3 C4 1_555 1_555
C4 C6 1_555 1_555
C5 C3 1_555 1_555
C6 O3 1_555 1_555
N1 C2 1_555 1_555
N2 C1 1_555 1_555
O1 C5 1_555 1_555
O2 C5 1_555 1_555
O4 Cd1 1_555 1_555
O5 Cd1 1_555 1_555
H3 O5 1_555 1_555
H4 O5 1_555 1_555
O6 Cd1 1_555 1_555
H5 O6 1_555 1_555
H6 O6 1_555 1_555
O7 Cd1 1_555 1_555
H7 O7 1_555 1_555
H8 O7 1_555 1_555
Cd1A O1 1_555 1_555
O1A Cd1 1_555 1_555
O2A Cd1 1_555 1_555
C3 N1 1_555 1_555
C4 N2 1_555 1_555
C6 O4 1_555 1_555
O2 Cd1A 1_555 1_555

#END
