
#######################################################################
#
#                 Cambridge Crystallographic Data Centre
#                                CCDC 
#
#######################################################################
#
# If this CIF has been generated from an entry in the Cambridge 
# Structural Database, then it will include bibliographic, chemical, 
# crystal, experimental, refinement or atomic coordinate data resulting 
# from the CCDC's data processing and validation procedures.
#
#######################################################################

data_NEQPUV
_symmetry_cell_setting           triclinic
_symmetry_space_group_name_H-M   'P -1'
_symmetry_Int_Tables_number      2
_space_group_name_Hall           '-P 1'
loop_
_symmetry_equiv_pos_site_id
_symmetry_equiv_pos_as_xyz
1 x,y,z
2 -x,-y,-z
_cell_length_a                   9.640(4)
_cell_length_b                   13.651(4)
_cell_length_c                   15.952(5)
_cell_angle_alpha                84.309(4)
_cell_angle_beta                 78.972(4)
_cell_angle_gamma                82.091(2)
_cell_volume                     2035.11
loop_
_atom_site_label
_atom_site_type_symbol
_atom_site_fract_x
_atom_site_fract_y
_atom_site_fract_z
Na1 Na 0.5000 0.0000 0.5000
Mo1 Mo 0.12760(8) -0.06625(5) 0.64755(5)
Mo2 Mo 0.26405(8) -0.21494(5) 0.49942(5)
Mo3 Mo 0.21953(8) -0.03747(5) 0.35330(5)
Mo4 Mo 0.08165(7) 0.10838(5) 0.50154(4)
O1 O 0.2918(7) -0.0291(5) 0.6346(4)
O2 O 0.0687(8) -0.0817(5) 0.7543(4)
O3 O 0.3047(7) -0.3399(5) 0.4988(4)
O4 O 0.4204(7) -0.1706(4) 0.5000(4)
O5 O 0.3763(6) -0.0037(4) 0.3686(4)
O6 O 0.2279(8) -0.0330(5) 0.2462(4)
O7 O 0.2490(6) 0.1365(5) 0.5025(4)
O8 O 0.0271(6) -0.2221(4) 0.4979(4)
O9 O 0.0206(6) 0.0652(4) 0.6226(4)
O10 O 0.1763(6) -0.1988(4) 0.6176(4)
O11 O 0.2484(6) -0.1758(4) 0.3828(4)
O12 O -0.0970(6) -0.0894(4) 0.6198(3)
O13 O 0.1348(6) -0.0507(4) 0.5008(3)
Mo1A Mo 0.87240(8) 0.06625(5) 0.35245(5)
Mo1A_2 Mo -0.12760(8) 0.06625(5) 0.35245(5)
Mo2A Mo 0.73595(8) 0.21494(5) 0.50058(5)
Mo2A_2 Mo -0.26405(8) 0.21494(5) 0.50058(5)
Mo3A Mo 0.78047(8) 0.03747(5) 0.64670(5)
Mo3A_2 Mo -0.21953(8) 0.03747(5) 0.64670(5)
Mo4A Mo 0.91835(7) -0.10838(5) 0.49846(4)
Mo4A_2 Mo -0.08165(7) -0.10838(5) 0.49846(4)
O1A O 0.7082(7) 0.0291(5) 0.3654(4)
O2A O 0.9313(8) 0.0817(5) 0.2457(4)
O3A O 0.6953(7) 0.3399(5) 0.5012(4)
O4A O 0.5796(7) 0.1706(4) 0.5000(4)
O5A O 0.6237(6) 0.0037(4) 0.6314(4)
O6A O 0.7721(8) 0.0330(5) 0.7538(4)
O7A O 0.7510(6) -0.1365(5) 0.4975(4)
O8A O -0.0271(6) 0.2221(4) 0.5021(4)
O8A_2 O 0.9729(6) 0.2221(4) 0.5021(4)
O8_2 O 1.0271(6) -0.2221(4) 0.4979(4)
O9A O -0.0206(6) -0.0652(4) 0.3774(4)
O9A_2 O 0.9794(6) -0.0652(4) 0.3774(4)
O9_2 O 1.0206(6) 0.0652(4) 0.6226(4)
O10A O 0.8237(6) 0.1988(4) 0.3824(4)
O11A O 0.7516(6) 0.1758(4) 0.6172(4)
O12A O 0.0970(6) 0.0894(4) 0.3802(3)
O12A_2 O 1.0970(6) 0.0894(4) 0.3802(3)
O12_2 O 0.9030(6) -0.0894(4) 0.6198(3)
O13A O -0.1348(6) 0.0507(4) 0.4992(3)
O13A_2 O 0.8652(6) 0.0507(4) 0.4992(3)
O13_2 O 1.1348(6) -0.0507(4) 0.5008(3)
Cu1 Cu 0.15672(12) -0.47962(8) 1.03995(7)
Cu2 Cu 0.20685(13) -0.63161(8) 0.96552(8)
O14 O 0.1798(8) -0.4021(5) 0.9368(4)
O15 O 0.1838(7) -0.7097(5) 1.0691(4)
N1 N 0.2523(9) -0.7366(6) 0.8788(5)
N2 N 0.2166(8) -0.5415(6) 0.8673(5)
N3 N 0.1066(8) -0.3712(6) 1.1254(5)
N4 N 0.1379(8) -0.5696(6) 1.1384(5)
C1 C 0.2751(13) -0.8348(8) 0.8871(9)
H1 H 0.2665 -0.8660 0.9421
C2 C 0.3111(15) -0.8930(10) 0.8185(11)
H2 H 0.3215 -0.9618 0.8279
C3 C 0.3312(13) -0.8508(9) 0.7378(11)
H3 H 0.3595 -0.8897 0.6915
C4 C 0.3085(11) -0.7456(8) 0.7246(8)
C5 C 0.2710(9) -0.6932(7) 0.7982(6)
C6 C 0.3266(11) -0.6882(11) 0.6415(8)
H4 H 0.3544 -0.7212 0.5916
C7 C 0.3040(11) -0.5898(9) 0.6362(6)
H5 H 0.3142 -0.5553 0.5825
C8 C 0.2640(9) -0.5349(8) 0.7120(6)
C9 C 0.2493(10) -0.5865(7) 0.7914(6)
C10 C 0.2425(10) -0.4308(8) 0.7103(6)
H6 H 0.2485 -0.3932 0.6581
C11 C 0.2127(10) -0.3848(8) 0.7848(7)
H7 H 0.1989 -0.3159 0.7838
C12 C 0.2031(9) -0.4437(6) 0.8648(6)
C13 C 0.0947(10) -0.2732(7) 1.1154(7)
H8 H 0.1096 -0.2423 1.0603
C14 C 0.0603(11) -0.2144(7) 1.1857(8)
H9 H 0.0513 -0.1456 1.1774
C15 C 0.0399(11) -0.2605(8) 1.2675(8)
H10 H 0.0159 -0.2217 1.3140
C16 C 0.0542(9) -0.3629(8) 1.2823(6)
C17 C 0.0907(9) -0.4184(7) 1.2052(6)
C18 C 0.0391(10) -0.4182(9) 1.3615(7)
H11 H 0.0189 -0.3848 1.4113
C19 C 0.0529(10) -0.5184(8) 1.3682(6)
H12 H 0.0406 -0.5523 1.4221
C20 C 0.0866(10) -0.5738(7) 1.2923(6)
C21 C 0.1043(9) -0.5210(6) 1.2136(6)
C22 C 0.1044(10) -0.6793(7) 1.2941(6)
H13 H 0.0958 -0.7167 1.3464
C23 C 0.1332(10) -0.7252(7) 1.2213(7)
H14 H 0.1425 -0.7940 1.2226
C24 C 0.1495(10) -0.6657(7) 1.1406(6)
Cu3 Cu 0.49671(12) -0.57473(8) 0.04740(7)
O16 O 0.5300(7) -0.6559(4) -0.0441(4)
N5 N 0.5140(8) -0.3210(5) -0.1481(5)
N6 N 0.5465(7) -0.5183(5) -0.1339(5)
C25 C 0.4933(12) -0.2228(7) -0.1523(7)
H15 H 0.4704 -0.1909 -0.1017
C26 C 0.5050(13) -0.1656(7) -0.2307(8)
H16 H 0.4963 -0.0968 -0.2317
C27 C 0.5295(11) -0.2119(7) -0.3072(8)
H17 H 0.5293 -0.1749 -0.3594
C28 C 0.5545(9) -0.3157(7) -0.3033(6)
C29 C 0.5429(9) -0.3674(6) -0.2231(5)
C30 C 0.5857(10) -0.3719(8) -0.3773(6)
H18 H 0.5922 -0.3387 -0.4314
C31 C 0.6056(10) -0.4705(8) -0.3701(6)
H19 H 0.6266 -0.5043 -0.4197
C32 C 0.5957(9) -0.5270(7) -0.2882(6)
C33 C 0.5613(9) -0.4720(7) -0.2157(6)
C34 C 0.6120(9) -0.6279(7) -0.2745(6)
H20 H 0.6380 -0.6662 -0.3213
C35 C 0.5913(9) -0.6741(7) -0.1936(6)
H21 H 0.6009 -0.7430 -0.1857
C36 C 0.5542(9) -0.6147(7) -0.1206(6)
Cu3A Cu 0.50329(12) -0.42527(8) -0.04740(7)
O16A O 0.4700(7) -0.3441(4) 0.0441(4)
N5A N 0.4860(8) -0.6790(5) 0.1481(5)
N6A N 0.4535(7) -0.4817(5) 0.1339(5)
C25A C 0.5067(12) -0.7772(7) 0.1523(7)
H15A H 0.5296 -0.8091 0.1017
C26A C 0.4950(13) -0.8344(7) 0.2307(8)
H16A H 0.5037 -0.9032 0.2317
C27A C 0.4705(11) -0.7881(7) 0.3072(8)
H17A H 0.4707 -0.8251 0.3594
C28A C 0.4455(9) -0.6843(7) 0.3033(6)
C29A C 0.4571(9) -0.6326(6) 0.2231(5)
C30A C 0.4143(10) -0.6281(8) 0.3773(6)
H18A H 0.4078 -0.6613 0.4314
C31A C 0.3944(10) -0.5295(8) 0.3701(6)
H19A H 0.3734 -0.4957 0.4197
C32A C 0.4043(9) -0.4730(7) 0.2882(6)
C33A C 0.4387(9) -0.5280(7) 0.2157(6)
C34A C 0.3880(9) -0.3721(7) 0.2745(6)
H20A H 0.3620 -0.3338 0.3213
C35A C 0.4087(9) -0.3259(7) 0.1936(6)
H21A H 0.3991 -0.2570 0.1857
C36A C 0.4458(9) -0.3853(7) 0.1206(6)
O17 O 0.371(8) -0.038(5) 0.040(5)
O18 O 0.028(6) -0.138(4) 0.925(3)
loop_
_geom_bond_atom_site_label_1
_geom_bond_atom_site_label_2
_geom_bond_site_symmetry_1
_geom_bond_site_symmetry_2
Na1 O1 1_555 1_555
Mo1 O1 1_555 1_555
Mo2 O3 1_555 1_555
Mo3 O5 1_555 1_555
Mo4 O7 1_555 1_555
Cu1 Cu2 1_555 1_555
Cu2 O15 1_555 1_555
Cu3 O16 1_555 1_555
O2 Mo1 1_555 1_555
O4 Na1 1_555 1_555
O5 Na1 1_555 1_555
O6 Mo3 1_555 1_555
O7 Na1 1_555 1_555
O8 Mo2 1_555 1_555
O9 Mo1 1_555 1_555
O10 Mo1 1_555 1_555
O11 Mo2 1_555 1_555
O12 Mo1 1_555 1_555
O13 Mo1 1_555 1_555
O14 Cu1 1_555 1_555
O15 C24 1_555 1_555
O16 C36 1_555 1_555
N1 Cu2 1_555 1_555
N2 Cu2 1_555 1_555
N3 Cu1 1_555 1_555
N4 Cu1 1_555 1_555
N5 C25 1_555 1_555
N6 C33 1_555 1_555
C1 N1 1_555 1_555
H1 C1 1_555 1_555
C2 C1 1_555 1_555
H2 C2 1_555 1_555
C3 C2 1_555 1_555
H3 C3 1_555 1_555
C4 C3 1_555 1_555
C5 N1 1_555 1_555
C6 C4 1_555 1_555
H4 C6 1_555 1_555
C7 C6 1_555 1_555
H5 C7 1_555 1_555
C8 C7 1_555 1_555
C9 N2 1_555 1_555
C10 C8 1_555 1_555
H6 C10 1_555 1_555
C11 C10 1_555 1_555
H7 C11 1_555 1_555
C12 O14 1_555 1_555
C13 N3 1_555 1_555
H8 C13 1_555 1_555
C14 C13 1_555 1_555
H9 C14 1_555 1_555
C15 C14 1_555 1_555
H10 C15 1_555 1_555
C16 C15 1_555 1_555
C17 N3 1_555 1_555
C18 C16 1_555 1_555
H11 C18 1_555 1_555
C19 C18 1_555 1_555
H12 C19 1_555 1_555
C20 C19 1_555 1_555
C21 N4 1_555 1_555
C22 C20 1_555 1_555
H13 C22 1_555 1_555
C23 C22 1_555 1_555
H14 C23 1_555 1_555
C24 N4 1_555 1_555
C25 H15 1_555 1_555
C26 C25 1_555 1_555
H16 C26 1_555 1_555
C27 C26 1_555 1_555
H17 C27 1_555 1_555
C28 C27 1_555 1_555
C29 N5 1_555 1_555
C30 C28 1_555 1_555
H18 C30 1_555 1_555
C31 C30 1_555 1_555
H19 C31 1_555 1_555
C32 C31 1_555 1_555
C33 C29 1_555 1_555
C34 C32 1_555 1_555
H20 C34 1_555 1_555
C35 C34 1_555 1_555
H21 C35 1_555 1_555
C36 N6 1_555 1_555
Mo1A O1A 1_555 1_555
Mo1A_2 O9A 1_555 1_555
Mo2A O3A 1_555 1_555
Mo2A_2 O8A 1_555 1_555
Mo3A O5A 1_555 1_555
Mo3A_2 O9 1_555 1_555
Mo4A O7A 1_555 1_555
Mo4A_2 O8 1_555 1_555
Cu3A Cu3 1_555 1_555
O1A Na1 1_555 1_555
O2A Mo1A 1_555 1_555
O4A Na1 1_555 1_555
O5A Na1 1_555 1_555
O6A Mo3A 1_555 1_555
O7A Na1 1_555 1_555
O8A Mo4 1_555 1_555
O8A_2 Mo2A 1_555 1_555
O8_2 Mo4A 1_555 1_555
O9A Mo3 1_555 1_555
O9A_2 Mo1A 1_555 1_555
O9_2 Mo3A 1_555 1_555
O10A Mo1A 1_555 1_555
O11A Mo2A 1_555 1_555
O12A Mo3 1_555 1_555
O12A_2 Mo1A 1_555 1_555
O12_2 Mo3A 1_555 1_555
O13A Mo4 1_555 1_555
O13A_2 Mo1A 1_555 1_555
O13_2 Mo4A 1_555 1_555
O16A Cu3A 1_555 1_555
N5A Cu3 1_555 1_555
N6A Cu3 1_555 1_555
C25A N5A 1_555 1_555
H15A C25A 1_555 1_555
C26A C25A 1_555 1_555
H16A C26A 1_555 1_555
C27A C26A 1_555 1_555
H17A C27A 1_555 1_555
C28A C27A 1_555 1_555
C29A N5A 1_555 1_555
C30A C28A 1_555 1_555
H18A C30A 1_555 1_555
C31A C30A 1_555 1_555
H19A C31A 1_555 1_555
C32A C31A 1_555 1_555
C33A N6A 1_555 1_555
C34A C32A 1_555 1_555
H20A C34A 1_555 1_555
C35A C34A 1_555 1_555
H21A C35A 1_555 1_555
C36A O16A 1_555 1_555
Mo2 O4 1_555 1_555
Mo2 O10 1_555 1_555
Mo2 O13 1_555 1_555
Mo3 O11 1_555 1_555
Mo3 O13 1_555 1_555
Mo4 O9 1_555 1_555
Mo4 O13 1_555 1_555
Mo4 O12A 1_555 1_555
O12 Mo3A_2 1_555 1_555
O12 Mo4A_2 1_555 1_555
O13 Mo4A_2 1_555 1_555
N2 C12 1_555 1_555
N5 Cu3A 1_555 1_555
N6 Cu3A 1_555 1_555
C4 C5 1_555 1_555
C5 C9 1_555 1_555
C8 C9 1_555 1_555
C11 C12 1_555 1_555
C16 C17 1_555 1_555
C17 C21 1_555 1_555
C20 C21 1_555 1_555
C23 C24 1_555 1_555
C28 C29 1_555 1_555
C32 C33 1_555 1_555
C35 C36 1_555 1_555
Mo1A_2 O12A 1_555 1_555
Mo1A_2 O13A 1_555 1_555
Mo2A O4A 1_555 1_555
Mo2A O10A 1_555 1_555
Mo2A O13A_2 1_555 1_555
Mo2A_2 O13A 1_555 1_555
Mo3A O11A 1_555 1_555
Mo3A O13A_2 1_555 1_555
Mo3A_2 O13A 1_555 1_555
Mo4A O9A_2 1_555 1_555
Mo4A O12_2 1_555 1_555
Mo4A O13A_2 1_555 1_555
Mo4A_2 O9A 1_555 1_555
Mo4A_2 O13A 1_555 1_555
N6A C36A 1_555 1_555
C28A C29A 1_555 1_555
C29A C33A 1_555 1_555
C32A C33A 1_555 1_555
C35A C36A 1_555 1_555

#END
