
#######################################################################
#
#                 Cambridge Crystallographic Data Centre
#                                CCDC 
#
#######################################################################
#
# If this CIF has been generated from an entry in the Cambridge 
# Structural Database, then it will include bibliographic, chemical, 
# crystal, experimental, refinement or atomic coordinate data resulting 
# from the CCDC's data processing and validation procedures.
#
#######################################################################

data_NEQQAC
_symmetry_cell_setting           monoclinic
_symmetry_space_group_name_H-M   'P 21/c'
_symmetry_Int_Tables_number      14
_space_group_name_Hall           '-P 2ybc'
loop_
_symmetry_equiv_pos_site_id
_symmetry_equiv_pos_as_xyz
1 x,y,z
2 -x,1/2+y,1/2-z
3 -x,-y,-z
4 x,1/2-y,1/2+z
_cell_length_a                   17.732(4)
_cell_length_b                   7.2796(15)
_cell_length_c                   8.0624(16)
_cell_angle_alpha                90
_cell_angle_beta                 95.20(3)
_cell_angle_gamma                90
_cell_volume                     1036.43
loop_
_atom_site_label
_atom_site_type_symbol
_atom_site_fract_x
_atom_site_fract_y
_atom_site_fract_z
Cd1 Cd 0.5000 0.5000 0.5000
Cl1 Cl 0.19368(5) 0.22155(11) 0.89006(12)
Cl2 Cl 0.03194(5) 0.75657(18) 0.56464(13)
O1 O 0.39859(10) 0.3625(2) 0.3421(2)
O2 O 0.41620(10) 0.5279(2) 0.6954(2)
O3 O 0.48058(10) 0.7367(2) 0.8494(2)
O4 O 0.31310(10) 0.4832(2) 0.9207(2)
C1 C 0.42726(12) 0.6245(3) 0.8233(3)
C2 C 0.37555(13) 0.6019(3) 0.9608(3)
C3 C 0.25100(13) 0.5549(3) 0.8301(3)
C4 C 0.18795(14) 0.4398(4) 0.8072(3)
C5 C 0.12080(17) 0.5004(4) 0.7243(4)
C6 C 0.11655(16) 0.6760(5) 0.6643(3)
C7 C 0.17785(16) 0.7917(4) 0.6833(3)
C8 C 0.24551(15) 0.7307(3) 0.7659(3)
H1 H 0.4165(16) 0.291(3) 0.274(3)
H2 H 0.3614(12) 0.316(4) 0.384(4)
H3 H 0.4049 0.5547 1.0589
H4 H 0.3565 0.7219 0.9887
H5 H 0.0791 0.4226 0.7096
H6 H 0.1742 0.9106 0.6410
H7 H 0.2872 0.8086 0.7780
Cd1C Cd 0.5000 1.0000 1.0000
Cd1C_2 Cd 0.5000 0.0000 0.0000
Cl1B Cl 0.80632(5) 0.77845(11) 0.10994(12)
Cl2B Cl 0.96806(5) 0.24343(18) 0.43536(13)
O1B O 0.60141(10) 0.6375(2) 0.6579(2)
O2B O 0.58380(10) 0.4721(2) 0.3046(2)
O3B O 0.51942(10) 0.2633(2) 0.1506(2)
O3C O 0.48058(10) 0.7633(2) 0.3494(2)
O3A O 0.51942(10) 0.2367(2) 0.6506(2)
O4B O 0.68690(10) 0.5168(2) 0.0793(2)
C1B C 0.57274(12) 0.3755(3) 0.1767(3)
C2B C 0.62445(13) 0.3981(3) 0.0392(3)
C3B C 0.74900(13) 0.4451(3) 0.1699(3)
C4B C 0.81205(14) 0.5602(4) 0.1928(3)
C5B C 0.87920(17) 0.4996(4) 0.2757(4)
C6B C 0.88345(16) 0.3240(5) 0.3357(3)
C7B C 0.82215(16) 0.2083(4) 0.3167(3)
C8B C 0.75449(15) 0.2693(3) 0.2341(3)
H1B H 0.5835(16) 0.709(3) 0.726(3)
H2B H 0.6386(12) 0.684(4) 0.616(4)
H3B H 0.5951 0.4453 -0.0589
H4B H 0.6435 0.2781 0.0113
H5B H 0.9209 0.5774 0.2904
H6B H 0.8258 0.0894 0.3590
H7B H 0.7128 0.1914 0.2220
loop_
_geom_bond_atom_site_label_1
_geom_bond_atom_site_label_2
_geom_bond_site_symmetry_1
_geom_bond_site_symmetry_2
Cd1 O1 1_555 1_555
Cl1 C4 1_555 1_555
Cl2 C6 1_555 1_555
O1 H1 1_555 1_555
O2 Cd1 1_555 1_555
O3 C1 1_555 1_555
O4 C2 1_555 1_555
C1 O2 1_555 1_555
C2 C1 1_555 1_555
C3 O4 1_555 1_555
C4 C3 1_555 1_555
C5 C4 1_555 1_555
C6 C5 1_555 1_555
C7 C6 1_555 1_555
C8 C3 1_555 1_555
H2 O1 1_555 1_555
H3 C2 1_555 1_555
H4 C2 1_555 1_555
H5 C5 1_555 1_555
H6 C7 1_555 1_555
H7 C8 1_555 1_555
Cd1C O3 1_555 1_555
Cd1C_2 O3B 1_555 1_555
Cl1B C4B 1_555 1_555
Cl2B C6B 1_555 1_555
O1B Cd1 1_555 1_555
O2B Cd1 1_555 1_555
O3B C1B 1_555 1_555
O3C Cd1 1_555 1_555
O3A Cd1 1_555 1_555
O4B C2B 1_555 1_555
C1B O2B 1_555 1_555
C2B C1B 1_555 1_555
C3B O4B 1_555 1_555
C4B C3B 1_555 1_555
C5B C4B 1_555 1_555
C6B C5B 1_555 1_555
C7B C6B 1_555 1_555
C8B C3B 1_555 1_555
H1B O1B 1_555 1_555
H2B O1B 1_555 1_555
H3B C2B 1_555 1_555
H4B C2B 1_555 1_555
H5B C5B 1_555 1_555
H6B C7B 1_555 1_555
H7B C8B 1_555 1_555
C7 C8 1_555 1_555
C7B C8B 1_555 1_555

#END
