
#######################################################################
#
#                 Cambridge Crystallographic Data Centre
#                                CCDC 
#
#######################################################################
#
# If this CIF has been generated from an entry in the Cambridge 
# Structural Database, then it will include bibliographic, chemical, 
# crystal, experimental, refinement or atomic coordinate data resulting 
# from the CCDC's data processing and validation procedures.
#
#######################################################################

data_NEQSUY
_symmetry_cell_setting           triclinic
_symmetry_space_group_name_H-M   'P -1'
_symmetry_Int_Tables_number      2
_space_group_name_Hall           '-P 1'
loop_
_symmetry_equiv_pos_site_id
_symmetry_equiv_pos_as_xyz
1 x,y,z
2 -x,-y,-z
_cell_length_a                   6.457(5)
_cell_length_b                   9.741(5)
_cell_length_c                   10.384(5)
_cell_angle_alpha                79.959(5)
_cell_angle_beta                 89.571(5)
_cell_angle_gamma                71.133(5)
_cell_volume                     607.733
loop_
_atom_site_label
_atom_site_type_symbol
_atom_site_fract_x
_atom_site_fract_y
_atom_site_fract_z
O1 O 0.4061(3) 0.4799(2) 0.65756(19)
O2 O 0.0736(3) 0.6188(2) 0.68644(19)
O3 O 0.0647(3) 0.8547(2) 0.8291(2)
O4 O 0.0889(3) 0.6516(2) 0.96694(19)
O5 O -0.4523(3) 0.6052(2) 1.05179(19)
O6 O -0.4807(4) 0.7948(2) 0.8968(2)
O7 O 0.7492(3) 0.5203(2) 0.80455(19)
H1 H 0.8260 0.5623 0.7698
H2 H 0.8112 0.4646 0.8692
O8 O 0.4192(3) 0.7800(2) 0.63939(19)
H3 H 0.5129 0.8193 0.6383
H4 H 0.3842 0.7747 0.5651
C1 C 0.2022(4) 0.5244(3) 0.6266(2)
C2 C 0.1206(4) 0.4635(3) 0.5207(3)
H5 H 0.1481 0.3568 0.5519
H6 H 0.2076 0.4736 0.4429
C3 C 0.0028(4) 0.7909(3) 0.9312(2)
C4 C -0.1651(4) 0.8771(3) 1.0150(3)
H7 H -0.2729 0.9615 0.9577
H8 H -0.0907 0.9172 1.0748
C5 C -0.2862(4) 0.7836(3) 1.0958(2)
H9 H -0.1791 0.6998 1.1541
H10 H -0.3886 0.8441 1.1515
C6 C -0.4124(4) 0.7252(3) 1.0101(2)
Yb1 Yb 0.374655(14) 0.625982(10) 0.822076(9)
O1A O -0.4061(3) 0.5201(2) 0.34244(19)
O2A O -0.0736(3) 0.3812(2) 0.31356(19)
O3_2 O 1.0647(3) 0.8547(2) 0.8291(2)
O3A O -0.0647(3) 0.1453(2) 0.1709(2)
O4_2 O 1.0889(3) 0.6516(2) 0.96694(19)
O4A O -0.0889(3) 0.3484(2) 0.03306(19)
O5_2 O 0.5477(3) 0.6052(2) 1.05179(19)
O5A O 0.4523(3) 0.3948(2) 0.94821(19)
O5_3 O -0.4523(3) 0.6052(2) 0.05179(19)
O5A_2 O -0.5477(3) 0.3948(2) -0.05179(19)
O6_2 O 0.5193(4) 0.7948(2) 0.8968(2)
O6A O -0.5193(4) 0.2052(2) 0.1032(2)
O7A O -0.7492(3) 0.4797(2) 0.19545(19)
H1A H -0.8260 0.4377 0.2302
H2A H -0.8112 0.5354 0.1308
O8A O -0.4192(3) 0.2200(2) 0.36061(19)
H3A H -0.5129 0.1807 0.3617
H4A H -0.3842 0.2253 0.4349
C1A C -0.2022(4) 0.4756(3) 0.3734(2)
C2A C -0.1206(4) 0.5365(3) 0.4793(3)
H5A H -0.1481 0.6432 0.4481
H6A H -0.2076 0.5264 0.5571
C3_2 C 1.0028(4) 0.7909(3) 0.9312(2)
C4_2 C 0.8349(4) 0.8771(3) 1.0150(3)
H7_2 H 0.7271 0.9615 0.9577
H8_2 H 0.9093 0.9172 1.0748
C5_2 C 0.7138(4) 0.7836(3) 1.0958(2)
H9_2 H 0.8209 0.6998 1.1541
H10_2 H 0.6114 0.8441 1.1515
C6_2 C 0.5876(4) 0.7252(3) 1.0101(2)
Yb1A Yb -0.374655(14) 0.374018(10) 0.177924(9)
Yb1_2 Yb -0.625345(14) 0.625982(10) 0.822076(9)
Yb1A_2 Yb -0.374655(14) 0.374018(10) 1.177924(9)
Yb1_3 Yb 1.374655(14) 0.625982(10) 0.822076(9)
Yb1A_3 Yb 0.625345(14) 0.374018(10) 1.177924(9)
O9 O 0.7253(4) 0.9190(2) 0.6092(2)
H11 H 0.6992 1.0149 0.6285
H12 H 0.8479 0.8647 0.6664
O10 O 0.3216(4) 0.7853(2) 0.3887(2)
H13 H 0.3953 0.7000 0.3606
H14 H 0.1889 0.8018 0.3712
O11 O -0.1228(4) 0.8914(2) 0.3504(2)
H15 H -0.1447 0.9706 0.3035
H16 H -0.1657 0.9024 0.4175
loop_
_geom_bond_atom_site_label_1
_geom_bond_atom_site_label_2
_geom_bond_site_symmetry_1
_geom_bond_site_symmetry_2
O1 C1 1_555 1_555
O2 C1 1_555 1_555
O3 C3 1_555 1_555
O4 C3 1_555 1_555
O5 C6 1_555 1_555
O6 C6 1_555 1_555
O7 H1 1_555 1_555
H2 O7 1_555 1_555
O8 H3 1_555 1_555
H4 O8 1_555 1_555
C1 C2 1_555 1_555
C2 H5 1_555 1_555
H6 C2 1_555 1_555
C3 C4 1_555 1_555
C4 H7 1_555 1_555
H8 C4 1_555 1_555
C5 C4 1_555 1_555
H9 C5 1_555 1_555
H10 C5 1_555 1_555
C6 C5 1_555 1_555
Yb1 O1 1_555 1_555
O9 H11 1_555 1_555
H12 O9 1_555 1_555
O10 H13 1_555 1_555
H14 O10 1_555 1_555
O11 H15 1_555 1_555
H16 O11 1_555 1_555
O1A C1A 1_555 1_555
O2A C1A 1_555 1_555
O3_2 C3_2 1_555 1_555
O3A Yb1A 1_555 1_555
O4_2 C3_2 1_555 1_555
O4A Yb1A 1_555 1_555
O5_2 Yb1 1_555 1_555
O5A Yb1 1_555 1_555
O5_3 Yb1A 1_555 1_555
O5A_2 Yb1A 1_555 1_555
O6_2 Yb1 1_555 1_555
O6A Yb1A 1_555 1_555
O7A H1A 1_555 1_555
H2A O7A 1_555 1_555
O8A H3A 1_555 1_555
H4A O8A 1_555 1_555
C1A C2A 1_555 1_555
C2A C2 1_555 1_555
H5A C2A 1_555 1_555
H6A C2A 1_555 1_555
C3_2 C4_2 1_555 1_555
C4_2 H7_2 1_555 1_555
H8_2 C4_2 1_555 1_555
C5_2 C4_2 1_555 1_555
H9_2 C5_2 1_555 1_555
H10_2 C5_2 1_555 1_555
C6_2 O5_2 1_555 1_555
Yb1A O1A 1_555 1_555
Yb1_2 O5 1_555 1_555
Yb1A_2 O5 1_555 1_555
Yb1_3 O3_2 1_555 1_555
Yb1A_3 O5_2 1_555 1_555
O2 Yb1 1_555 1_555
O3 Yb1 1_555 1_555
O4 Yb1 1_555 1_555
O6 Yb1_2 1_555 1_555
O7 Yb1 1_555 1_555
O8 Yb1 1_555 1_555
O2A Yb1A 1_555 1_555
O4_2 Yb1_3 1_555 1_555
O5A Yb1A_3 1_555 1_555
O6_2 C6_2 1_555 1_555
O7A Yb1A 1_555 1_555
O8A Yb1A 1_555 1_555
C5_2 C6_2 1_555 1_555

#END
