
#######################################################################
#
#                 Cambridge Crystallographic Data Centre
#                                CCDC 
#
#######################################################################
#
# If this CIF has been generated from an entry in the Cambridge 
# Structural Database, then it will include bibliographic, chemical, 
# crystal, experimental, refinement or atomic coordinate data resulting 
# from the CCDC's data processing and validation procedures.
#
#######################################################################

data_NEQSUY01
_symmetry_cell_setting           triclinic
_symmetry_space_group_name_H-M   'P -1'
_symmetry_Int_Tables_number      2
_space_group_name_Hall           '-P 1'
loop_
_symmetry_equiv_pos_site_id
_symmetry_equiv_pos_as_xyz
1 x,y,z
2 -x,-y,-z
_cell_length_a                   6.4849(11)
_cell_length_b                   9.8116(17)
_cell_length_c                   10.4416(18)
_cell_angle_alpha                80.528(2)
_cell_angle_beta                 89.595(2)
_cell_angle_gamma                71.398(2)
_cell_volume                     620.343
loop_
_atom_site_label
_atom_site_type_symbol
_atom_site_fract_x
_atom_site_fract_y
_atom_site_fract_z
Yb1 Yb 0.37204(4) 0.12498(3) 0.32101(2)
O1 O 0.0605(9) 0.3524(6) 0.3281(5)
O2 O 0.0964(9) 0.1560(6) 0.4688(5)
O3 O -0.4839(10) 0.2876(6) 0.4027(5)
O4 O -0.4422(9) 0.1005(6) 0.5561(6)
O5 O 0.4015(9) -0.0186(7) 0.1549(5)
O6 O 0.0734(8) 0.1144(6) 0.1885(5)
O7 O 0.4206(10) 0.2781(7) 0.1421(5)
H1 H 0.393(15) 0.275(10) 0.064(3)
H2 H 0.526(13) 0.311(12) 0.142(11)
O8 O 0.7449(8) 0.0179(7) 0.3047(5)
H3 H 0.804(12) -0.048(7) 0.369(5)
H4 H 0.808(13) 0.071(8) 0.259(7)
C1 C 0.0037(12) 0.2909(8) 0.4309(7)
C2 C -0.1685(14) 0.3782(9) 0.5104(8)
H5 H -0.067(18) 0.406(12) 0.585(11)
H6 H -0.262(13) 0.461(9) 0.464(7)
C3 C -0.2857(13) 0.2836(10) 0.5937(7)
H7 H -0.188(17) 0.210(11) 0.656(10)
H8 H -0.390(18) 0.352(12) 0.647(11)
C4 C -0.4098(12) 0.2204(8) 0.5127(8)
C5 C 0.2005(12) 0.0237(8) 0.1273(7)
C6 C 0.1197(13) -0.0366(10) 0.0219(9)
H9 H 0.148(19) -0.157(13) 0.073(11)
H10 H 0.224(17) -0.043(11) -0.047(10)
O5A O -0.4015(9) 0.0186(7) -0.1549(5)
O6A O -0.0734(8) -0.1144(6) -0.1885(5)
C5A C -0.2005(12) -0.0237(8) -0.1273(7)
C6A C -0.1197(13) 0.0366(10) -0.0219(9)
H9A H -0.148(19) 0.157(13) -0.073(11)
H10A H -0.224(17) 0.043(11) 0.047(10)
Yb1A Yb -0.37204(4) -0.12498(3) -0.32101(2)
O1A O -0.0605(9) -0.3524(6) -0.3281(5)
O2A O -0.0964(9) -0.1560(6) -0.4688(5)
O3A O 0.4839(10) -0.2876(6) -0.4027(5)
O4A O 0.4422(9) -0.1005(6) -0.5561(6)
O7A O -0.4206(10) -0.2781(7) -0.1421(5)
H1A H -0.393(15) -0.275(10) -0.064(3)
H2A H -0.526(13) -0.311(12) -0.142(11)
O8A O -0.7449(8) -0.0179(7) -0.3047(5)
H3A H -0.804(12) 0.048(7) -0.369(5)
H4A H -0.808(13) -0.071(8) -0.259(7)
C1A C -0.0037(12) -0.2909(8) -0.4309(7)
C2A C 0.1685(14) -0.3782(9) -0.5104(8)
H5A H 0.067(18) -0.406(12) -0.585(11)
H6A H 0.262(13) -0.461(9) -0.464(7)
C3A C 0.2857(13) -0.2836(10) -0.5937(7)
H7A H 0.188(17) -0.210(11) -0.656(10)
H8A H 0.390(18) -0.352(12) -0.647(11)
C4A C 0.4098(12) -0.2204(8) -0.5127(8)
Yb1_2 Yb -0.62796(4) 0.12498(3) 0.32101(2)
Yb1_3 Yb 0.37204(4) 0.12498(3) -0.67899(2)
Yb1A_2 Yb -0.37204(4) -0.12498(3) 0.67899(2)
Yb1A_3 Yb 0.62796(4) -0.12498(3) -0.32101(2)
O3_2 O 0.5161(10) 0.2876(6) 0.4027(5)
O3A_2 O -0.5161(10) -0.2876(6) -0.4027(5)
O4_2 O -0.4422(9) 0.1005(6) -0.4439(6)
O4_3 O 0.5578(9) 0.1005(6) 0.5561(6)
O4A_2 O -0.5578(9) -0.1005(6) -0.5561(6)
O4A_3 O 0.4422(9) -0.1005(6) 0.4439(6)
O9 O 0.1183(13) 0.6067(8) 0.1486(8)
H11 H 0.144(17) 0.578(11) 0.076(5)
H12 H 0.12(3) 0.528(10) 0.198(13)
O10 O 0.3243(12) 0.2829(8) -0.1091(6)
H13 H 0.393(14) 0.197(4) -0.122(9)
H14 H 0.202(10) 0.340(12) -0.143(12)
O11 O -0.2800(11) 0.4193(8) 0.1125(7)
H15 H -0.322(14) 0.502(5) 0.136(8)
H16 H -0.153(8) 0.378(12) 0.148(11)
loop_
_geom_bond_atom_site_label_1
_geom_bond_atom_site_label_2
_geom_bond_site_symmetry_1
_geom_bond_site_symmetry_2
Yb1 O1 1_555 1_555
O1 C1 1_555 1_555
O2 Yb1 1_555 1_555
O3 C4 1_555 1_555
O4 C4 1_555 1_555
O5 Yb1 1_555 1_555
O6 Yb1 1_555 1_555
O7 Yb1 1_555 1_555
H1 O7 1_555 1_555
H2 O7 1_555 1_555
O8 Yb1 1_555 1_555
H3 O8 1_555 1_555
H4 O8 1_555 1_555
C1 O2 1_555 1_555
C2 C1 1_555 1_555
H5 C2 1_555 1_555
H6 C2 1_555 1_555
C3 C2 1_555 1_555
H7 C3 1_555 1_555
H8 C3 1_555 1_555
C4 C3 1_555 1_555
C5 O5 1_555 1_555
C6 C5 1_555 1_555
H9 C6 1_555 1_555
H10 C6 1_555 1_555
O9 H11 1_555 1_555
H12 O9 1_555 1_555
O10 H13 1_555 1_555
H14 O10 1_555 1_555
O11 H15 1_555 1_555
H16 O11 1_555 1_555
O5A C5A 1_555 1_555
O6A C5A 1_555 1_555
C5A C6A 1_555 1_555
C6A C6 1_555 1_555
H9A C6A 1_555 1_555
H10A C6A 1_555 1_555
Yb1A O5A 1_555 1_555
O1A Yb1A 1_555 1_555
O2A Yb1A 1_555 1_555
O3A C4A 1_555 1_555
O4A C4A 1_555 1_555
O7A Yb1A 1_555 1_555
H1A O7A 1_555 1_555
H2A O7A 1_555 1_555
O8A Yb1A 1_555 1_555
H3A O8A 1_555 1_555
H4A O8A 1_555 1_555
C1A O1A 1_555 1_555
C2A C1A 1_555 1_555
H5A C2A 1_555 1_555
H6A C2A 1_555 1_555
C3A C2A 1_555 1_555
H7A C3A 1_555 1_555
H8A C3A 1_555 1_555
C4A C3A 1_555 1_555
Yb1_2 O3 1_555 1_555
Yb1_3 O4A 1_555 1_555
Yb1A_2 O4 1_555 1_555
Yb1A_3 O3A 1_555 1_555
O3_2 Yb1 1_555 1_555
O3A_2 Yb1A 1_555 1_555
O4_2 Yb1A 1_555 1_555
O4_3 Yb1 1_555 1_555
O4A_2 Yb1A 1_555 1_555
O4A_3 Yb1 1_555 1_555
O4 Yb1_2 1_555 1_555
O6 C5 1_555 1_555
O6A Yb1A 1_555 1_555
O2A C1A 1_555 1_555
O4A Yb1A_3 1_555 1_555

#END
