
#######################################################################
#
#                 Cambridge Crystallographic Data Centre
#                                CCDC 
#
#######################################################################
#
# If this CIF has been generated from an entry in the Cambridge 
# Structural Database, then it will include bibliographic, chemical, 
# crystal, experimental, refinement or atomic coordinate data resulting 
# from the CCDC's data processing and validation procedures.
#
#######################################################################

data_NEQZOA
_symmetry_cell_setting           triclinic
_symmetry_space_group_name_H-M   'P -1'
_symmetry_Int_Tables_number      2
_space_group_name_Hall           '-P 1'
loop_
_symmetry_equiv_pos_site_id
_symmetry_equiv_pos_as_xyz
1 x,y,z
2 -x,-y,-z
_cell_length_a                   10.6610(3)
_cell_length_b                   10.8820(4)
_cell_length_c                   14.4380(6)
_cell_angle_alpha                109.088(4)
_cell_angle_beta                 98.976(3)
_cell_angle_gamma                94.75
_cell_volume                     1547.36
loop_
_atom_site_label
_atom_site_type_symbol
_atom_site_fract_x
_atom_site_fract_y
_atom_site_fract_z
Ni1 Ni 0.68852(4) 0.14576(4) 0.30385(3)
C1 C 0.7780(4) -0.1186(4) 0.2117(3)
C2 C 0.9047(4) -0.0756(4) 0.2842(3)
C3 C 0.9885(4) -0.1639(5) 0.2829(4)
H1 H 0.9672 -0.2479 0.2354
C4 C 1.1059(4) -0.1323(5) 0.3508(4)
H2 H 1.1613 -0.1944 0.3487
C5 C 1.1362(4) -0.0111(5) 0.4186(4)
H3 H 1.2130 0.0106 0.4648
C6 C 0.9399(4) 0.0568(4) 0.3546(3)
C7 C 1.0953(4) 0.2160(5) 0.4955(3)
H4 H 1.1525 0.2126 0.5536
H5 H 1.0194 0.2499 0.5171
C8 C 1.1612(4) 0.3081(4) 0.4539(3)
C9 C 1.2913(4) 0.3103(4) 0.4520(3)
H6 H 1.3360 0.2513 0.4730
C10 C 1.3545(4) 0.3987(4) 0.4194(3)
H7 H 1.4410 0.3968 0.4167
C11 C 1.2918(4) 0.4899(4) 0.3907(3)
C12 C 1.1607(4) 0.4846(4) 0.3885(3)
H8 H 1.1159 0.5424 0.3659
C13 C 1.0957(4) 0.3942(4) 0.4198(3)
H9 H 1.0079 0.3915 0.4177
C14 C 1.3652(4) 0.5905(4) 0.3626(3)
C15 C 1.4115(5) 0.5514(4) 0.2740(4)
H10 H 1.3913 0.4641 0.2321
C16 C 1.4859(5) 0.6376(5) 0.2461(4)
H11 H 1.5154 0.6086 0.1864
C17 C 1.5164(5) 0.7668(5) 0.3073(4)
H12 H 1.5687 0.8253 0.2902
C18 C 1.4690(4) 0.8092(4) 0.3942(3)
H13 H 1.4876 0.8975 0.4341
C19 C 1.3942(3) 0.7235(4) 0.4239(3)
C20 C 1.3556(3) 0.7764(4) 0.5231(3)
C21 C 0.4287(4) 0.1830(4) 0.1976(3)
H14 H 0.4677 0.2445 0.1751
C22 C 0.2817(4) 0.0574(5) 0.2259(4)
H15 H 0.2032 0.0149 0.2276
C23 C 0.3984(4) 0.0421(5) 0.2670(4)
H16 H 0.4138 -0.0141 0.3028
C24 C 0.2015(4) 0.2053(4) 0.1335(4)
H17 H 0.2391 0.2532 0.0961
H18 H 0.1663 0.2670 0.1847
C25 C 0.0958(4) 0.1003(4) 0.0645(3)
C26 C -0.0154(4) 0.0690(5) 0.0944(3)
H19 H -0.0269 0.1153 0.1584
C27 C 0.1097(4) 0.0299(5) -0.0309(3)
H20 H 0.1839 0.0494 -0.0528
C28 C 0.7347(4) 0.2438(5) 0.1316(3)
H21 H 0.7252 0.1592 0.0854
C29 C 0.7619(5) 0.4565(5) 0.1957(4)
H22 H 0.7744 0.5452 0.2036
C30 C 0.7476(5) 0.4048(4) 0.2674(4)
H23 H 0.7493 0.4530 0.3341
C31 C 0.7620(5) 0.3588(6) 0.0107(4)
H24 H 0.6913 0.4007 -0.0100
H25 H 0.7515 0.2700 -0.0367
C32 C 0.8860(5) 0.4327(7) 0.0066(5)
C33 C 1.0000(5) 0.4350(6) 0.0642(5)
H26 H 1.0031 0.3935 0.1113
C34 C 0.8870(5) 0.5007(9) -0.0535(7)
H27 H 0.8094 0.5064 -0.0904
N1 N 1.0573(3) 0.0803(4) 0.4211(3)
N2 N 0.4916(3) 0.1209(3) 0.2490(2)
N3 N 0.3015(3) 0.1478(3) 0.1810(2)
N4 N 0.7301(3) 0.2701(3) 0.2265(3)
N5 N 0.7544(3) 0.3524(4) 0.1090(3)
O1 O 0.7544(3) -0.2356(3) 0.1576(3)
O2 O 0.7042(2) -0.0340(3) 0.2067(2)
O3 O 0.8798(2) 0.1515(3) 0.3622(2)
O4 O 1.3300(2) 0.6992(3) 0.5692(2)
O5 O 1.3541(2) 0.8979(2) 0.56239(19)
Ni1A Ni -0.68852(4) -0.14576(4) -0.30385(3)
Ni1A_2 Ni 1.31148(4) 0.85424(4) 0.69615(3)
Ni1A_3 Ni 1.31148(4) 0.85424(4) -0.30385(3)
C1A C 1.2220(4) 1.1186(4) 0.7883(3)
C2A C 1.0953(4) 1.0756(4) 0.7158(3)
C3A C 1.0115(4) 1.1639(5) 0.7171(4)
H1A H 1.0328 1.2479 0.7646
C4A C 0.8941(4) 1.1323(5) 0.6492(4)
H2A H 0.8387 1.1944 0.6513
C5A C 0.8638(4) 1.0111(5) 0.5814(4)
H3A H 0.7870 0.9894 0.5352
C6A C 1.0601(4) 0.9432(4) 0.6454(3)
C7A C 0.9047(4) 0.7840(5) 0.5045(3)
H4A H 0.8475 0.7874 0.4464
H5A H 0.9806 0.7501 0.4829
C8A C 0.8388(4) 0.6919(4) 0.5461(3)
C9A C 0.7087(4) 0.6897(4) 0.5480(3)
H6A H 0.6640 0.7487 0.5270
C10A C 0.6455(4) 0.6013(4) 0.5806(3)
H7A H 0.5590 0.6032 0.5833
C11A C 0.7082(4) 0.5101(4) 0.6093(3)
C12A C 0.8393(4) 0.5154(4) 0.6115(3)
H8A H 0.8841 0.4576 0.6341
C13A C 0.9043(4) 0.6058(4) 0.5802(3)
H9A H 0.9921 0.6085 0.5823
C14A C 0.6348(4) 0.4095(4) 0.6374(3)
C15A C 0.5885(5) 0.4486(4) 0.7260(4)
H10A H 0.6087 0.5359 0.7679
C16A C 0.5141(5) 0.3624(5) 0.7539(4)
H11A H 0.4846 0.3914 0.8136
C17A C 0.4836(5) 0.2332(5) 0.6927(4)
H12A H 0.4313 0.1747 0.7098
C18A C 0.5310(4) 0.1908(4) 0.6058(3)
H13A H 0.5124 0.1025 0.5659
C19A C 0.6058(3) 0.2765(4) 0.5761(3)
C20A C 0.6444(3) 0.2236(4) 0.4769(3)
C21A C -0.4287(4) -0.1830(4) -0.1976(3)
H14A H -0.4677 -0.2445 -0.1751
C22A C -0.2817(4) -0.0574(5) -0.2259(4)
H15A H -0.2032 -0.0149 -0.2276
C23A C -0.3984(4) -0.0421(5) -0.2670(4)
H16A H -0.4138 0.0141 -0.3028
C24A C -0.2015(4) -0.2053(4) -0.1335(4)
H17A H -0.2391 -0.2532 -0.0961
H18A H -0.1663 -0.2670 -0.1847
C25A C -0.0958(4) -0.1003(4) -0.0645(3)
C26A C 0.0154(4) -0.0690(5) -0.0944(3)
H19A H 0.0269 -0.1153 -0.1584
C27A C -0.1097(4) -0.0299(5) 0.0309(3)
H20A H -0.1839 -0.0494 0.0528
C28A C 1.2653(4) 0.7562(5) -0.1316(3)
H21A H 1.2748 0.8408 -0.0854
C29A C 1.2381(5) 0.5435(5) -0.1957(4)
H22A H 1.2256 0.4548 -0.2036
C30A C 1.2524(5) 0.5952(4) -0.2674(4)
H23A H 1.2507 0.5470 -0.3341
C31A C 1.2380(5) 0.6412(6) -0.0107(4)
H24A H 1.3087 0.5993 0.0100
H25A H 1.2485 0.7300 0.0367
C32A C 1.1140(5) 0.5673(7) -0.0066(5)
C33A C 1.0000(5) 0.5650(6) -0.0642(5)
H26A H 0.9969 0.6065 -0.1113
C34A C 1.1130(5) 0.4993(9) 0.0535(7)
H27A H 1.1906 0.4936 0.0904
N1A N 0.9427(3) 0.9197(4) 0.5789(3)
N2A N -0.4916(3) -0.1209(3) -0.2490(2)
N2A_2 N 1.5084(3) 0.8791(3) 0.7510(2)
N3A N -0.3015(3) -0.1478(3) -0.1810(2)
N4A N 1.2699(3) 0.7299(3) -0.2265(3)
N4A_2 N 1.2699(3) 0.7299(3) 0.7735(3)
N5A N 1.2456(3) 0.6476(4) -0.1090(3)
O1A O 1.2456(3) 1.2356(3) 0.8424(3)
O2A O 1.2958(2) 1.0340(3) 0.7933(2)
O3A O 1.1202(2) 0.8485(3) 0.6378(2)
O4A O 0.6700(2) 0.3008(3) 0.4308(2)
O5A O 0.6459(2) 0.1021(2) 0.43761(19)
O6 O 0.5137(4) -0.1087(5) 0.0335(3)
O7 O 0.5682(4) -0.3743(4) -0.0082(3)
loop_
_geom_bond_atom_site_label_1
_geom_bond_atom_site_label_2
_geom_bond_site_symmetry_1
_geom_bond_site_symmetry_2
Ni1 N2 1_555 1_555
C1 C2 1_555 1_555
C2 C3 1_555 1_555
C3 H1 1_555 1_555
C4 C3 1_555 1_555
H2 C4 1_555 1_555
C5 C4 1_555 1_555
H3 C5 1_555 1_555
C6 C2 1_555 1_555
C7 H4 1_555 1_555
H5 C7 1_555 1_555
C8 C7 1_555 1_555
C9 C8 1_555 1_555
H6 C9 1_555 1_555
C10 C9 1_555 1_555
H7 C10 1_555 1_555
C11 C10 1_555 1_555
C12 C11 1_555 1_555
H8 C12 1_555 1_555
C13 C8 1_555 1_555
H9 C13 1_555 1_555
C14 C11 1_555 1_555
C15 C14 1_555 1_555
H10 C15 1_555 1_555
C16 C15 1_555 1_555
H11 C16 1_555 1_555
C17 C16 1_555 1_555
H12 C17 1_555 1_555
C18 C17 1_555 1_555
H13 C18 1_555 1_555
C19 C14 1_555 1_555
C20 C19 1_555 1_555
C21 H14 1_555 1_555
C22 H15 1_555 1_555
C23 C22 1_555 1_555
H16 C23 1_555 1_555
C24 H17 1_555 1_555
H18 C24 1_555 1_555
C25 C24 1_555 1_555
C26 C25 1_555 1_555
H19 C26 1_555 1_555
C27 C25 1_555 1_555
H20 C27 1_555 1_555
C28 H21 1_555 1_555
C29 H22 1_555 1_555
C30 C29 1_555 1_555
H23 C30 1_555 1_555
C31 H24 1_555 1_555
H25 C31 1_555 1_555
C32 C31 1_555 1_555
C33 C32 1_555 1_555
H26 C33 1_555 1_555
C34 C32 1_555 1_555
H27 C34 1_555 1_555
N1 C5 1_555 1_555
N2 C21 1_555 1_555
N3 C21 1_555 1_555
N4 Ni1 1_555 1_555
N5 C28 1_555 1_555
O1 C1 1_555 1_555
O2 Ni1 1_555 1_555
O3 Ni1 1_555 1_555
O4 C20 1_555 1_555
O5 C20 1_555 1_555
Ni1A N2A 1_555 1_555
Ni1A_2 O4 1_555 1_555
Ni1A_3 N4A 1_555 1_555
C1A C2A 1_555 1_555
C2A C3A 1_555 1_555
C3A H1A 1_555 1_555
C4A C3A 1_555 1_555
H2A C4A 1_555 1_555
C5A C4A 1_555 1_555
H3A C5A 1_555 1_555
C6A C2A 1_555 1_555
C7A H4A 1_555 1_555
H5A C7A 1_555 1_555
C8A C7A 1_555 1_555
C9A C8A 1_555 1_555
H6A C9A 1_555 1_555
C10A C9A 1_555 1_555
H7A C10A 1_555 1_555
C11A C10A 1_555 1_555
C12A C11A 1_555 1_555
H8A C12A 1_555 1_555
C13A C8A 1_555 1_555
H9A C13A 1_555 1_555
C14A C11A 1_555 1_555
C15A C14A 1_555 1_555
H10A C15A 1_555 1_555
C16A C15A 1_555 1_555
H11A C16A 1_555 1_555
C17A C16A 1_555 1_555
H12A C17A 1_555 1_555
C18A C17A 1_555 1_555
H13A C18A 1_555 1_555
C19A C14A 1_555 1_555
C20A C19A 1_555 1_555
C21A H14A 1_555 1_555
C22A H15A 1_555 1_555
C23A C22A 1_555 1_555
H16A C23A 1_555 1_555
C24A H17A 1_555 1_555
H18A C24A 1_555 1_555
C25A C24A 1_555 1_555
C26A C27 1_555 1_555
H19A C26A 1_555 1_555
C27A C26 1_555 1_555
H20A C27A 1_555 1_555
C28A H21A 1_555 1_555
C29A H22A 1_555 1_555
C30A C29A 1_555 1_555
H23A C30A 1_555 1_555
C31A H24A 1_555 1_555
H25A C31A 1_555 1_555
C32A C31A 1_555 1_555
C33A C34 1_555 1_555
H26A C33A 1_555 1_555
C34A C33 1_555 1_555
H27A C34A 1_555 1_555
N1A C5A 1_555 1_555
N2A C21A 1_555 1_555
N2A_2 Ni1A_2 1_555 1_555
N3A C21A 1_555 1_555
N4A C28A 1_555 1_555
N4A_2 Ni1A_2 1_555 1_555
N5A C28A 1_555 1_555
O1A C1A 1_555 1_555
O2A Ni1A_2 1_555 1_555
O3A Ni1A_2 1_555 1_555
O4A Ni1 1_555 1_555
O5A Ni1 1_555 1_555
C1 O2 1_555 1_555
C6 N1 1_555 1_555
C6 O3 1_555 1_555
C7 N1 1_555 1_555
C12 C13 1_555 1_555
C18 C19 1_555 1_555
C22 N3 1_555 1_555
C23 N2 1_555 1_555
C24 N3 1_555 1_555
C28 N4 1_555 1_555
C29 N5 1_555 1_555
C30 N4 1_555 1_555
C31 N5 1_555 1_555
O5 Ni1A_2 1_555 1_555
C1A O2A 1_555 1_555
C6A N1A 1_555 1_555
C6A O3A 1_555 1_555
C7A N1A 1_555 1_555
C12A C13A 1_555 1_555
C18A C19A 1_555 1_555
C20A O4A 1_555 1_555
C20A O5A 1_555 1_555
C22A N3A 1_555 1_555
C23A N2A 1_555 1_555
C24A N3A 1_555 1_555
C25A C26A 1_555 1_555
C25A C27A 1_555 1_555
C29A N5A 1_555 1_555
C30A N4A 1_555 1_555
C31A N5A 1_555 1_555
C32A C33A 1_555 1_555
C32A C34A 1_555 1_555

#END
