
#######################################################################
#
#                 Cambridge Crystallographic Data Centre
#                                CCDC 
#
#######################################################################
#
# If this CIF has been generated from an entry in the Cambridge 
# Structural Database, then it will include bibliographic, chemical, 
# crystal, experimental, refinement or atomic coordinate data resulting 
# from the CCDC's data processing and validation procedures.
#
#######################################################################

data_NEQZIT
_symmetry_cell_setting           orthorhombic
_symmetry_space_group_name_H-M   'P n a 21'
_symmetry_Int_Tables_number      33
_space_group_name_Hall           'P 2c -2n'
loop_
_symmetry_equiv_pos_site_id
_symmetry_equiv_pos_as_xyz
1 x,y,z
2 -x,-y,1/2+z
3 1/2-x,1/2+y,1/2+z
4 1/2+x,1/2-y,z
_cell_length_a                   23.383(3)
_cell_length_b                   9.082(2)
_cell_length_c                   10.929(2)
_cell_angle_alpha                90
_cell_angle_beta                 90
_cell_angle_gamma                90
_cell_volume                     2320.93
loop_
_atom_site_label
_atom_site_type_symbol
_atom_site_fract_x
_atom_site_fract_y
_atom_site_fract_z
Ni1 Ni 0.42068(4) 0.64121(12) 0.5000
S1 S 0.33028(12) 1.0928(4) 0.5843(3)
S2 S 0.32505(11) 0.6448(3) 0.1302(3)
N1 N 0.3782(3) 0.8445(8) 0.5259(8)
N2 N 0.4074(3) 0.9404(11) 0.7155(8)
H1 H 0.4298 0.8671 0.7296
H2 H 0.4046 1.0105 0.7681
N3 N 0.3731(3) 0.6545(8) 0.3411(7)
N4 N 0.3922(3) 0.4376(9) 0.2348(8)
H3 H 0.4115 0.4022 0.2950
H4 H 0.3881 0.3870 0.1689
N5 N 0.4941(3) 0.7383(9) 0.4081(8)
H5 H 0.5262 0.6955 0.4363
H6 H 0.4917 0.7193 0.3274
N6 N 0.3534(3) 0.5133(10) 0.5959(8)
H7 H 0.3576 0.4174 0.5774
H8 H 0.3583 0.5233 0.6771
O1 O 0.4540(3) 1.4355(7) 0.4567(7)
O2 O 0.5111(3) 1.3925(9) 0.6155(8)
O3 O 0.1260(3) 0.7145(10) 0.3235(8)
O4 O 0.1179(2) 0.8499(8) 0.4894(8)
O5 O 0.4673(3) 0.6481(7) 0.6604(6)
H9 H 0.4942 0.5971 0.6806
H10 H 0.4463 0.6327 0.7213
C1 C 0.3771(4) 0.9453(11) 0.6121(9)
C2 C 0.3122(4) 1.0087(13) 0.4467(10)
H11 H 0.2858 1.0455 0.3911
C3 C 0.3418(4) 0.8828(11) 0.4319(11)
C4 C 0.3405(4) 0.7841(12) 0.3303(10)
C5 C 0.3125(4) 0.7986(13) 0.2234(11)
H12 H 0.2897 0.8786 0.2021
C6 C 0.3687(3) 0.5711(11) 0.2438(9)
C7 C 0.4865(4) 1.3548(11) 0.5186(10)
C8 C 0.4935(3) 1.1944(11) 0.4787(10)
C9 C 0.4611(4) 1.1371(11) 0.3872(10)
H13 H 0.4363 1.1977 0.3437
C10 C 0.4650(4) 0.9866(12) 0.3577(10)
H14 H 0.4446 0.9500 0.2913
C11 C 0.4983(4) 0.8932(11) 0.4254(9)
C12 C 0.5323(4) 0.9534(11) 0.5171(10)
H15 H 0.5564 0.8928 0.5624
C13 C 0.5304(4) 1.1026(12) 0.5414(9)
H16 H 0.5544 1.1419 0.6009
C14 C 0.1417(4) 0.7487(12) 0.4264(9)
C15 C 0.1934(4) 0.6732(10) 0.4820(10)
C16 C 0.2189(4) 0.5548(12) 0.4209(9)
H17 H 0.2012 0.5142 0.3525
C17 C 0.2704(4) 0.4978(13) 0.4620(10)
H18 H 0.2876 0.4197 0.4211
C18 C 0.2961(4) 0.5585(12) 0.5646(9)
C19 C 0.2697(4) 0.6674(13) 0.6276(10)
H19 H 0.2864 0.7031 0.6989
C20 C 0.2183(4) 0.7267(12) 0.5882(11)
H20 H 0.2008 0.8016 0.6324
Ni1_2 Ni 0.42068(4) 1.64121(12) 0.5000
O1_2 O 0.4540(3) 0.4355(7) 0.4567(7)
O6 O 0.3927(3) 0.5971(10) 0.8529(8)
H21 H 0.4089 0.5153 0.8790
H22 H 0.3679 0.6317 0.9104
loop_
_geom_bond_atom_site_label_1
_geom_bond_atom_site_label_2
_geom_bond_site_symmetry_1
_geom_bond_site_symmetry_2
Ni1 N1 1_555 1_555
S1 C1 1_555 1_555
S2 C5 1_555 1_555
N1 C1 1_555 1_555
N2 H1 1_555 1_555
H2 N2 1_555 1_555
N3 Ni1 1_555 1_555
N4 H3 1_555 1_555
H4 N4 1_555 1_555
N5 Ni1 1_555 1_555
H5 N5 1_555 1_555
H6 N5 1_555 1_555
N6 Ni1 1_555 1_555
H7 N6 1_555 1_555
H8 N6 1_555 1_555
O1 C7 1_555 1_555
O2 C7 1_555 1_555
O3 C14 1_555 1_555
O4 C14 1_555 1_555
O5 Ni1 1_555 1_555
H9 O5 1_555 1_555
H10 O5 1_555 1_555
C1 N2 1_555 1_555
C2 S1 1_555 1_555
H11 C2 1_555 1_555
C3 N1 1_555 1_555
C4 N3 1_555 1_555
C5 C4 1_555 1_555
H12 C5 1_555 1_555
C6 S2 1_555 1_555
C7 C8 1_555 1_555
C8 C9 1_555 1_555
C9 H13 1_555 1_555
C10 C9 1_555 1_555
H14 C10 1_555 1_555
C11 N5 1_555 1_555
C12 C11 1_555 1_555
H15 C12 1_555 1_555
C13 C8 1_555 1_555
H16 C13 1_555 1_555
C14 C15 1_555 1_555
C15 C16 1_555 1_555
C16 H17 1_555 1_555
C17 C16 1_555 1_555
H18 C17 1_555 1_555
C18 N6 1_555 1_555
C19 C18 1_555 1_555
H19 C19 1_555 1_555
C20 C15 1_555 1_555
H20 C20 1_555 1_555
O6 H21 1_555 1_555
H22 O6 1_555 1_555
Ni1_2 O1 1_555 1_555
O1_2 Ni1 1_555 1_555
N3 C6 1_555 1_555
N4 C6 1_555 1_555
C2 C3 1_555 1_555
C3 C4 1_555 1_555
C10 C11 1_555 1_555
C12 C13 1_555 1_555
C17 C18 1_555 1_555
C19 C20 1_555 1_555

#END
