
#######################################################################
#
#                 Cambridge Crystallographic Data Centre
#                                CCDC 
#
#######################################################################
#
# If this CIF has been generated from an entry in the Cambridge 
# Structural Database, then it will include bibliographic, chemical, 
# crystal, experimental, refinement or atomic coordinate data resulting 
# from the CCDC's data processing and validation procedures.
#
#######################################################################

data_NERBIX
_symmetry_cell_setting           monoclinic
_symmetry_space_group_name_H-M   'P 21/c'
_symmetry_Int_Tables_number      14
_space_group_name_Hall           '-P 2ybc'
loop_
_symmetry_equiv_pos_site_id
_symmetry_equiv_pos_as_xyz
1 x,y,z
2 -x,1/2+y,1/2-z
3 -x,-y,-z
4 x,1/2-y,1/2+z
_cell_length_a                   10.7718(4)
_cell_length_b                   15.5626(5)
_cell_length_c                   23.4500(10)
_cell_angle_alpha                90
_cell_angle_beta                 101.975(4)
_cell_angle_gamma                90
_cell_volume                     3845.55
loop_
_atom_site_label
_atom_site_type_symbol
_atom_site_fract_x
_atom_site_fract_y
_atom_site_fract_z
Ni1 Ni 0.76916(4) 0.07405(3) 0.32585(2)
C1 C 0.4919(3) 0.0646(2) 0.27003(17)
C2 C 0.5049(3) -0.0241(2) 0.24630(15)
C3 C 0.3999(3) -0.0642(2) 0.21532(17)
H1 H 0.3243 -0.0335 0.2061
C4 C 0.4009(4) -0.1494(3) 0.19676(19)
H2 H 0.3281 -0.1752 0.1753
C5 C 0.5105(4) -0.1928(2) 0.21092(18)
H3 H 0.5121 -0.2504 0.2007
C6 C 0.6229(3) -0.0704(2) 0.25745(15)
C7 C 0.7360(3) -0.2068(2) 0.25505(17)
H4 H 0.7135 -0.2672 0.2535
H5 H 0.7776 -0.1935 0.2948
C8 C 0.8285(3) -0.1915(2) 0.21573(17)
C9 C 0.8103(4) -0.2296(3) 0.16187(19)
H6 H 0.7408 -0.2653 0.1495
C10 C 0.8953(4) -0.2151(3) 0.12552(18)
H7 H 0.8826 -0.2422 0.0894
C11 C 0.9979(3) -0.1613(2) 0.14220(17)
C12 C 1.0183(3) -0.1278(3) 0.19768(19)
H8 H 1.0901 -0.0945 0.2110
C13 C 0.9348(4) -0.1425(3) 0.23394(19)
H9 H 0.9509 -0.1189 0.2712
C14 C 1.0771(3) -0.1351(2) 0.10025(16)
C15 C 1.1394(3) -0.1939(2) 0.07086(16)
C16 C 1.1980(4) -0.1634(3) 0.0276(2)
H10 H 1.2369 -0.2022 0.0067
C17 C 1.2001(5) -0.0763(3) 0.0145(2)
H11 H 1.2409 -0.0572 -0.0144
C18 C 1.1422(4) -0.0192(3) 0.0443(2)
H12 H 1.1442 0.0392 0.0363
C19 C 1.0801(4) -0.0485(2) 0.0866(2)
H13 H 1.0394 -0.0092 0.1064
C20 C 1.1504(3) -0.2887(2) 0.08510(18)
C21 C 0.8177(4) 0.1589(3) 0.21257(19)
H14 H 0.7335 0.1766 0.2068
C22 C 0.8857(4) 0.1794(3) 0.17086(19)
H15 H 0.8480 0.2097 0.1376
C23 C 1.0098(4) 0.1543(2) 0.17940(19)
H16 H 1.0579 0.1670 0.1518
C24 C 1.0629(3) 0.1099(2) 0.22949(17)
H17 H 1.1476 0.0932 0.2364
C25 C 0.9888(3) 0.0904(2) 0.26931(16)
C26 C 1.0320(3) 0.0379(2) 0.32222(15)
C27 C 1.1473(3) -0.0046(2) 0.33680(15)
H18 H 1.2103 0.0058 0.3159
C28 C 1.1689(3) -0.0629(2) 0.38272(15)
C29 C 1.0729(3) -0.0737(2) 0.41418(15)
H19 H 1.0836 -0.1125 0.4450
C30 C 0.9625(3) -0.0267(2) 0.39936(16)
C31 C 0.8522(3) -0.0352(2) 0.42774(17)
C32 C 0.8576(4) -0.0807(2) 0.47884(18)
H20 H 0.9326 -0.1069 0.4976
C33 C 0.7493(4) -0.0865(3) 0.5014(2)
H21 H 0.7508 -0.1161 0.5360
C34 C 0.6409(4) -0.0486(3) 0.4729(2)
H22 H 0.5668 -0.0532 0.4872
C35 C 0.6414(4) -0.0030(3) 0.4221(2)
H23 H 0.5669 0.0232 0.4028
C36 C 1.2830(3) -0.1188(2) 0.39534(16)
C37 C 1.3446(3) -0.1443(2) 0.35210(17)
H24 H 1.3216 -0.1198 0.3152
C38 C 1.4399(3) -0.2055(2) 0.36235(18)
H25 H 1.4789 -0.2217 0.3321
C39 C 1.4783(3) -0.2429(2) 0.41660(17)
C40 C 1.4210(3) -0.2142(2) 0.46044(17)
H26 H 1.4479 -0.2362 0.4978
C41 C 1.3245(3) -0.1535(2) 0.45055(17)
H27 H 1.2875 -0.1360 0.4811
C42 C 1.5753(4) -0.3171(3) 0.42605(19)
C43 C 1.6835(5) -0.2971(4) 0.3977(3)
H28 H 1.7254 -0.2459 0.4145
H29 H 1.6523 -0.2884 0.3566
H30 H 1.7425 -0.3441 0.4035
C44 C 1.5088(6) -0.3970(3) 0.4007(3)
H31 H 1.4396 -0.4090 0.4195
H32 H 1.5673 -0.4443 0.4067
H33 H 1.4768 -0.3891 0.3597
C45 C 1.6280(6) -0.3316(4) 0.4891(3)
H34 H 1.6708 -0.2806 0.5059
H35 H 1.6871 -0.3786 0.4936
H36 H 1.5603 -0.3450 0.5085
N1 N 0.6186(3) -0.15539(16) 0.23962(13)
N2 N 0.8661(3) 0.11519(18) 0.26076(14)
N3 N 0.9437(2) 0.02699(17) 0.35417(13)
N4 N 0.7460(3) 0.00454(18) 0.40017(14)
O1 O 0.3822(2) 0.09132(17) 0.26700(15)
O2 O 0.5885(2) 0.10724(15) 0.29287(13)
O4 O 0.7293(2) -0.04174(14) 0.28226(12)
O5 O 1.1167(3) -0.33941(17) 0.04495(13)
O6 O 1.1994(2) -0.30704(15) 0.13714(12)
Ni1A Ni 1.23084(4) -0.42595(3) 0.17415(2)
O6A O 0.8006(2) 0.19296(15) 0.36286(12)
O3 O 1.5277(12) 0.6641(7) 0.1045(4)
loop_
_geom_bond_atom_site_label_1
_geom_bond_atom_site_label_2
_geom_bond_site_symmetry_1
_geom_bond_site_symmetry_2
Ni1 N2 1_555 1_555
C1 C2 1_555 1_555
C2 C3 1_555 1_555
C3 H1 1_555 1_555
C4 C3 1_555 1_555
H2 C4 1_555 1_555
C5 C4 1_555 1_555
H3 C5 1_555 1_555
C6 C2 1_555 1_555
C7 H4 1_555 1_555
H5 C7 1_555 1_555
C8 C7 1_555 1_555
C9 C8 1_555 1_555
H6 C9 1_555 1_555
C10 C9 1_555 1_555
H7 C10 1_555 1_555
C11 C10 1_555 1_555
C12 C11 1_555 1_555
H8 C12 1_555 1_555
C13 C8 1_555 1_555
H9 C13 1_555 1_555
C14 C11 1_555 1_555
C15 C14 1_555 1_555
C16 C15 1_555 1_555
H10 C16 1_555 1_555
C17 C16 1_555 1_555
H11 C17 1_555 1_555
C18 C17 1_555 1_555
H12 C18 1_555 1_555
C19 C14 1_555 1_555
H13 C19 1_555 1_555
C20 C15 1_555 1_555
C21 H14 1_555 1_555
C22 C21 1_555 1_555
H15 C22 1_555 1_555
C23 C22 1_555 1_555
H16 C23 1_555 1_555
C24 C23 1_555 1_555
H17 C24 1_555 1_555
C25 C24 1_555 1_555
C26 C25 1_555 1_555
C27 C26 1_555 1_555
H18 C27 1_555 1_555
C28 C27 1_555 1_555
C29 C28 1_555 1_555
H19 C29 1_555 1_555
C30 C29 1_555 1_555
C31 C30 1_555 1_555
C32 C31 1_555 1_555
H20 C32 1_555 1_555
C33 C32 1_555 1_555
H21 C33 1_555 1_555
C34 C33 1_555 1_555
H22 C34 1_555 1_555
C35 C34 1_555 1_555
H23 C35 1_555 1_555
C36 C28 1_555 1_555
C37 C36 1_555 1_555
H24 C37 1_555 1_555
C38 C37 1_555 1_555
H25 C38 1_555 1_555
C39 C38 1_555 1_555
C40 C39 1_555 1_555
H26 C40 1_555 1_555
C41 C36 1_555 1_555
H27 C41 1_555 1_555
C42 C39 1_555 1_555
C43 C42 1_555 1_555
H28 C43 1_555 1_555
H29 C43 1_555 1_555
H30 C43 1_555 1_555
C44 C42 1_555 1_555
H31 C44 1_555 1_555
H32 C44 1_555 1_555
H33 C44 1_555 1_555
C45 C42 1_555 1_555
H34 C45 1_555 1_555
H35 C45 1_555 1_555
H36 C45 1_555 1_555
N1 C5 1_555 1_555
N2 C21 1_555 1_555
N3 Ni1 1_555 1_555
N4 Ni1 1_555 1_555
O1 C1 1_555 1_555
O2 Ni1 1_555 1_555
O4 Ni1 1_555 1_555
O5 C20 1_555 1_555
O6 C20 1_555 1_555
Ni1A O6 1_555 1_555
O6A Ni1 1_555 1_555
C1 O2 1_555 1_555
C6 N1 1_555 1_555
C6 O4 1_555 1_555
C7 N1 1_555 1_555
C12 C13 1_555 1_555
C18 C19 1_555 1_555
C25 N2 1_555 1_555
C26 N3 1_555 1_555
C30 N3 1_555 1_555
C31 N4 1_555 1_555
C35 N4 1_555 1_555
C40 C41 1_555 1_555

#END
