
#######################################################################
#
#                 Cambridge Crystallographic Data Centre
#                                CCDC 
#
#######################################################################
#
# If this CIF has been generated from an entry in the Cambridge 
# Structural Database, then it will include bibliographic, chemical, 
# crystal, experimental, refinement or atomic coordinate data resulting 
# from the CCDC's data processing and validation procedures.
#
#######################################################################

data_NERBUJ
_symmetry_cell_setting           orthorhombic
_symmetry_space_group_name_H-M   'P b c a'
_symmetry_Int_Tables_number      61
_space_group_name_Hall           '-P 2ac 2ab'
loop_
_symmetry_equiv_pos_site_id
_symmetry_equiv_pos_as_xyz
1 x,y,z
2 1/2-x,-y,1/2+z
3 1/2+x,1/2-y,-z
4 -x,1/2+y,1/2-z
5 -x,-y,-z
6 1/2+x,y,1/2-z
7 1/2-x,1/2+y,z
8 x,1/2-y,1/2+z
_cell_length_a                   11.5379(4)
_cell_length_b                   16.2173(5)
_cell_length_c                   27.8815(8)
_cell_angle_alpha                90
_cell_angle_beta                 90
_cell_angle_gamma                90
_cell_volume                     5217.01
loop_
_atom_site_label
_atom_site_type_symbol
_atom_site_fract_x
_atom_site_fract_y
_atom_site_fract_z
Cd1 Cd 0.11790(2) 0.049627(16) 0.549665(9)
C1 C 0.0933(3) 0.0754(3) 0.44746(14)
C2 C 0.0798(3) 0.1083(2) 0.39735(12)
C3 C 0.1599(3) 0.1616(2) 0.37949(13)
H1 H 0.2200 0.1792 0.3992
C4 C 0.1544(3) 0.1907(3) 0.33223(13)
H2 H 0.2117 0.2251 0.3200
C5 C 0.0639(4) 0.1672(2) 0.30515(13)
H3 H 0.0595 0.1853 0.2736
C6 C -0.0178(3) 0.0829(2) 0.36848(12)
C7 C -0.1248(3) 0.0991(2) 0.29320(12)
H4 H -0.1025 0.0970 0.2597
H5 H -0.1553 0.0455 0.3020
C8 C -0.2187(3) 0.1637(2) 0.29974(11)
C9 C -0.2067(4) 0.2405(3) 0.27854(13)
H6 H -0.1401 0.2522 0.2610
C10 C -0.2915(4) 0.2996(2) 0.28290(13)
H7 H -0.2800 0.3512 0.2691
C11 C -0.3944(3) 0.2839(2) 0.30758(12)
C12 C -0.4052(3) 0.2074(2) 0.32946(12)
H8 H -0.4718 0.1954 0.3469
C13 C -0.3187(3) 0.1486(2) 0.32576(12)
H9 H -0.3279 0.0980 0.3410
C14 C -0.4882(3) 0.3473(2) 0.30673(13)
C15 C -0.5072(4) 0.3917(3) 0.26455(15)
H10 H -0.4596 0.3823 0.2382
C16 C -0.5946(5) 0.4492(3) 0.2610(2)
H11 H -0.6050 0.4784 0.2327
C17 C -0.6663(5) 0.4633(3) 0.2993(2)
H12 H -0.7258 0.5018 0.2970
C18 C -0.6496(4) 0.4201(3) 0.34107(19)
H13 H -0.6988 0.4298 0.3669
C19 C -0.5612(3) 0.3624(2) 0.34595(15)
C20 C -0.5461(4) 0.3229(2) 0.39488(15)
C21 C 0.3267(4) 0.1582(3) 0.59690(13)
H14 H 0.2677 0.1963 0.6020
C22 C 0.4387(4) 0.1785(3) 0.61112(16)
H15 H 0.4538 0.2293 0.6252
C23 C 0.5256(4) 0.1233(3) 0.60416(17)
H16 H 0.6010 0.1364 0.6132
C24 C 0.5014(4) 0.0463(3) 0.58328(14)
C25 C 0.3866(3) 0.0309(2) 0.56976(12)
C26 C 0.5871(4) -0.0156(3) 0.57477(18)
H17 H 0.6635 -0.0054 0.5835
C27 C 0.5600(4) -0.0878(3) 0.55450(17)
H18 H 0.6175 -0.1271 0.5498
C28 C 0.4444(4) -0.1054(2) 0.54006(13)
C29 C 0.3584(3) -0.0461(2) 0.54645(12)
C30 C 0.4117(4) -0.1797(3) 0.51814(15)
H19 H 0.4660 -0.2215 0.5140
C31 C 0.3010(4) -0.1908(3) 0.50295(15)
H20 H 0.2786 -0.2399 0.4884
C32 C 0.2221(4) -0.1271(2) 0.50961(13)
H21 H 0.1470 -0.1343 0.4983
N1 N -0.0217(3) 0.11746(18) 0.32275(9)
N2 N 0.3011(3) 0.08730(18) 0.57656(10)
N3 N 0.2477(3) -0.05676(18) 0.53121(10)
O1 O 0.1387(3) 0.12061(16) 0.47771(9)
O2 O 0.0630(2) 0.00242(17) 0.45550(9)
O3 O -0.0979(2) 0.03718(16) 0.38087(8)
O4 O -0.4518(3) 0.33708(16) 0.41613(9)
O5 O -0.6267(3) 0.2808(2) 0.41004(12)
Cd1D Cd -0.11790(2) -0.049627(16) 0.450335(9)
Cd1B Cd -0.38210(2) 0.450373(16) 0.450335(9)
O2D O -0.0630(2) -0.00242(17) 0.54450(9)
O3D O 0.0979(2) -0.03718(16) 0.61913(8)
O4B O 0.0482(3) 0.16292(16) 0.58387(9)
loop_
_geom_bond_atom_site_label_1
_geom_bond_atom_site_label_2
_geom_bond_site_symmetry_1
_geom_bond_site_symmetry_2
Cd1 N2 1_555 1_555
C1 C2 1_555 1_555
C2 C3 1_555 1_555
C3 H1 1_555 1_555
C4 C3 1_555 1_555
H2 C4 1_555 1_555
C5 C4 1_555 1_555
H3 C5 1_555 1_555
C6 C2 1_555 1_555
C7 H4 1_555 1_555
H5 C7 1_555 1_555
C8 C7 1_555 1_555
C9 C8 1_555 1_555
H6 C9 1_555 1_555
C10 C9 1_555 1_555
H7 C10 1_555 1_555
C11 C10 1_555 1_555
C12 C11 1_555 1_555
H8 C12 1_555 1_555
C13 C8 1_555 1_555
H9 C13 1_555 1_555
C14 C11 1_555 1_555
C15 C14 1_555 1_555
H10 C15 1_555 1_555
C16 C15 1_555 1_555
H11 C16 1_555 1_555
C17 C16 1_555 1_555
H12 C17 1_555 1_555
C18 C17 1_555 1_555
H13 C18 1_555 1_555
C19 C14 1_555 1_555
C20 C19 1_555 1_555
C21 H14 1_555 1_555
C22 C21 1_555 1_555
H15 C22 1_555 1_555
C23 C22 1_555 1_555
H16 C23 1_555 1_555
C24 C23 1_555 1_555
C25 C24 1_555 1_555
C26 C24 1_555 1_555
H17 C26 1_555 1_555
C27 C26 1_555 1_555
H18 C27 1_555 1_555
C28 C27 1_555 1_555
C29 C25 1_555 1_555
C30 C28 1_555 1_555
H19 C30 1_555 1_555
C31 C30 1_555 1_555
H20 C31 1_555 1_555
C32 C31 1_555 1_555
H21 C32 1_555 1_555
N1 C5 1_555 1_555
N2 C21 1_555 1_555
N3 Cd1 1_555 1_555
O1 Cd1 1_555 1_555
O2 C1 1_555 1_555
O3 C6 1_555 1_555
O4 C20 1_555 1_555
O5 C20 1_555 1_555
Cd1D O2 1_555 1_555
Cd1B O4 1_555 1_555
O2D Cd1 1_555 1_555
O3D Cd1 1_555 1_555
O4B Cd1 1_555 1_555
C1 O1 1_555 1_555
C6 N1 1_555 1_555
C7 N1 1_555 1_555
C12 C13 1_555 1_555
C18 C19 1_555 1_555
C25 N2 1_555 1_555
C28 C29 1_555 1_555
C29 N3 1_555 1_555
C32 N3 1_555 1_555
O3 Cd1D 1_555 1_555

#END
