
#######################################################################
#
#                 Cambridge Crystallographic Data Centre
#                                CCDC 
#
#######################################################################
#
# If this CIF has been generated from an entry in the Cambridge 
# Structural Database, then it will include bibliographic, chemical, 
# crystal, experimental, refinement or atomic coordinate data resulting 
# from the CCDC's data processing and validation procedures.
#
#######################################################################

data_NERBAP
_symmetry_cell_setting           monoclinic
_symmetry_space_group_name_H-M   'P 21/n'
_symmetry_Int_Tables_number      14
_space_group_name_Hall           '-P 2yn'
loop_
_symmetry_equiv_pos_site_id
_symmetry_equiv_pos_as_xyz
1 x,y,z
2 1/2-x,1/2+y,1/2-z
3 -x,-y,-z
4 1/2+x,1/2-y,1/2+z
_cell_length_a                   15.635(2)
_cell_length_b                   14.6280(18)
_cell_length_c                   17.886(3)
_cell_angle_alpha                90
_cell_angle_beta                 114.791(16)
_cell_angle_gamma                90
_cell_volume                     3713.7
loop_
_atom_site_label
_atom_site_type_symbol
_atom_site_fract_x
_atom_site_fract_y
_atom_site_fract_z
Cd1 Cd 0.51636(3) 0.18073(4) 0.67392(3)
C1 C 0.5186(4) 0.3849(6) 0.6250(4)
C2 C 0.5835(4) 0.3570(4) 0.5860(4)
C3 C 0.5626(5) 0.3711(5) 0.5047(4)
H1 H 0.5076 0.4017 0.4716
C4 C 0.6236(6) 0.3399(6) 0.4708(5)
H2 H 0.6074 0.3467 0.4148
C5 C 0.7047(5) 0.3004(5) 0.5193(5)
H3 H 0.7455 0.2805 0.4969
C6 C 0.6706(4) 0.3150(5) 0.6383(4)
C7 C 0.8186(4) 0.2462(5) 0.6519(4)
H4 H 0.8246 0.1905 0.6249
H5 H 0.8181 0.2289 0.7040
C8 C 0.9041(4) 0.3051(5) 0.6689(4)
C9 C 0.9002(5) 0.3926(5) 0.6419(4)
H6 H 0.8417 0.4192 0.6118
C10 C 0.9809(5) 0.4430(5) 0.6580(4)
H7 H 0.9757 0.5025 0.6383
C11 C 1.0692(4) 0.4058(5) 0.7030(4)
C12 C 1.0732(5) 0.3180(6) 0.7315(4)
H8 H 1.1314 0.2913 0.7625
C13 C 0.9920(5) 0.2691(5) 0.7149(4)
H9 H 0.9967 0.2099 0.7353
C14 C 1.1557(4) 0.4591(5) 0.7160(4)
C15 C 1.1736(4) 0.5453(5) 0.7511(4)
C16 C 1.2525(5) 0.5928(5) 0.7546(5)
H10 H 1.2644 0.6515 0.7765
C17 C 1.3133(5) 0.5531(7) 0.7257(5)
H11 H 1.3665 0.5851 0.7300
C18 C 1.2967(5) 0.4695(7) 0.6916(5)
H12 H 1.3371 0.4440 0.6712
C19 C 1.2187(5) 0.4222(6) 0.6876(4)
H13 H 1.2077 0.3637 0.6652
C20 C 1.1109(4) 0.5884(6) 0.7863(5)
C21 C 0.6448(4) 0.1563(4) 0.8709(4)
H14 H 0.5958 0.1905 0.8733
C22 C 0.7162(5) 0.1291(5) 0.9433(4)
H15 H 0.7154 0.1432 0.9937
C23 C 0.7885(4) 0.0806(5) 0.9392(4)
H16 H 0.8380 0.0607 0.9873
C24 C 0.7883(4) 0.0614(4) 0.8641(4)
H17 H 0.8385 0.0302 0.8609
C25 C 0.7121(4) 0.0890(4) 0.7929(4)
C26 C 0.7049(4) 0.0668(4) 0.7102(4)
C27 C 0.7717(4) 0.0167(4) 0.6952(4)
H18 H 0.8243 -0.0054 0.7395
C28 C 0.7618(4) -0.0012(4) 0.6152(4)
C29 C 0.6809(4) 0.0340(4) 0.5519(4)
H19 H 0.6712 0.0250 0.4975
C30 C 0.6145(4) 0.0823(4) 0.5688(4)
C31 C 0.5255(4) 0.1191(4) 0.5042(4)
C32 C 0.5013(4) 0.1066(4) 0.4213(4)
H20 H 0.5409 0.0752 0.4034
C33 C 0.4168(5) 0.1419(5) 0.3659(4)
H21 H 0.3988 0.1342 0.3097
C34 C 0.3594(4) 0.1882(5) 0.3931(4)
H22 H 0.3026 0.2132 0.3563
C35 C 0.3884(4) 0.1963(4) 0.4762(4)
H23 H 0.3490 0.2267 0.4951
C36 C 0.8321(4) -0.0532(4) 0.5976(4)
C37 C 0.9197(4) -0.0703(5) 0.6575(4)
H24 H 0.9340 -0.0513 0.7111
C38 C 0.9877(5) -0.1146(5) 0.6416(4)
H25 H 1.0463 -0.1253 0.6847
C39 C 0.9715(4) -0.1436(5) 0.5639(4)
C40 C 0.8811(5) -0.1307(5) 0.5045(4)
H26 H 0.8651 -0.1538 0.4519
C41 C 0.8136(5) -0.0848(5) 0.5203(4)
H27 H 0.7544 -0.0752 0.4777
C42 C 1.0453(5) -0.1896(6) 0.5421(4)
C43 C 1.1413(5) -0.1884(7) 0.6145(5)
H28 H 1.1864 -0.2180 0.5992
H29 H 1.1379 -0.2202 0.6602
H30 H 1.1603 -0.1263 0.6301
C44 C 1.0527(6) -0.1367(6) 0.4725(6)
H31 H 1.0990 -0.1647 0.4578
H32 H 1.0709 -0.0748 0.4898
H33 H 0.9927 -0.1369 0.4257
C45 C 1.0198(6) -0.2894(6) 0.5165(6)
H34 H 1.0677 -0.3165 0.5034
H35 H 0.9604 -0.2919 0.4692
H36 H 1.0153 -0.3225 0.5611
N1 N 0.7287(3) 0.2889(4) 0.6009(3)
N2 N 0.4690(3) 0.1637(3) 0.5315(3)
N3 N 0.6272(3) 0.0982(3) 0.6469(3)
N4 N 0.6416(3) 0.1365(4) 0.7973(3)
O1 O 0.5048(3) 0.4685(4) 0.6273(3)
O2 O 0.4832(3) 0.3255(3) 0.6526(3)
O3 O 0.6964(3) 0.3019(3) 0.7132(3)
O4 O 1.0814(3) 0.6674(4) 0.7607(3)
O5 O 1.0900(3) 0.5466(4) 0.8362(3)
Cd1A Cd 0.98364(3) 0.68073(4) 0.82608(3)
O4A O 0.4186(3) 0.1674(4) 0.7393(3)
O5A O 0.4100(3) 0.0466(4) 0.6638(3)
loop_
_geom_bond_atom_site_label_1
_geom_bond_atom_site_label_2
_geom_bond_site_symmetry_1
_geom_bond_site_symmetry_2
Cd1 N2 1_555 1_555
C1 C2 1_555 1_555
C2 C3 1_555 1_555
C3 H1 1_555 1_555
C4 C3 1_555 1_555
H2 C4 1_555 1_555
C5 C4 1_555 1_555
H3 C5 1_555 1_555
C6 C2 1_555 1_555
C7 H4 1_555 1_555
H5 C7 1_555 1_555
C8 C7 1_555 1_555
C9 C8 1_555 1_555
H6 C9 1_555 1_555
C10 C9 1_555 1_555
H7 C10 1_555 1_555
C11 C10 1_555 1_555
C12 C11 1_555 1_555
H8 C12 1_555 1_555
C13 C8 1_555 1_555
H9 C13 1_555 1_555
C14 C11 1_555 1_555
C15 C14 1_555 1_555
C16 C15 1_555 1_555
H10 C16 1_555 1_555
C17 C16 1_555 1_555
H11 C17 1_555 1_555
C18 C17 1_555 1_555
H12 C18 1_555 1_555
C19 C14 1_555 1_555
H13 C19 1_555 1_555
C20 C15 1_555 1_555
C21 H14 1_555 1_555
C22 C21 1_555 1_555
H15 C22 1_555 1_555
C23 C22 1_555 1_555
H16 C23 1_555 1_555
C24 C23 1_555 1_555
H17 C24 1_555 1_555
C25 C24 1_555 1_555
C26 C25 1_555 1_555
C27 C26 1_555 1_555
H18 C27 1_555 1_555
C28 C27 1_555 1_555
C29 C28 1_555 1_555
H19 C29 1_555 1_555
C30 C29 1_555 1_555
C31 C30 1_555 1_555
C32 C31 1_555 1_555
H20 C32 1_555 1_555
C33 C32 1_555 1_555
H21 C33 1_555 1_555
C34 C33 1_555 1_555
H22 C34 1_555 1_555
C35 C34 1_555 1_555
H23 C35 1_555 1_555
C36 C28 1_555 1_555
C37 C36 1_555 1_555
H24 C37 1_555 1_555
C38 C37 1_555 1_555
H25 C38 1_555 1_555
C39 C38 1_555 1_555
C40 C39 1_555 1_555
H26 C40 1_555 1_555
C41 C36 1_555 1_555
H27 C41 1_555 1_555
C42 C39 1_555 1_555
C43 C42 1_555 1_555
H28 C43 1_555 1_555
H29 C43 1_555 1_555
H30 C43 1_555 1_555
C44 C42 1_555 1_555
H31 C44 1_555 1_555
H32 C44 1_555 1_555
H33 C44 1_555 1_555
C45 C42 1_555 1_555
H34 C45 1_555 1_555
H35 C45 1_555 1_555
H36 C45 1_555 1_555
N1 C5 1_555 1_555
N2 C31 1_555 1_555
N3 Cd1 1_555 1_555
N4 Cd1 1_555 1_555
O1 C1 1_555 1_555
O2 Cd1 1_555 1_555
O3 C6 1_555 1_555
O4 C20 1_555 1_555
O5 C20 1_555 1_555
Cd1A O4 1_555 1_555
O4A Cd1 1_555 1_555
O5A Cd1 1_555 1_555
C1 O2 1_555 1_555
C6 N1 1_555 1_555
C7 N1 1_555 1_555
C12 C13 1_555 1_555
C18 C19 1_555 1_555
C21 N4 1_555 1_555
C25 N4 1_555 1_555
C26 N3 1_555 1_555
C30 N3 1_555 1_555
C35 N2 1_555 1_555
C40 C41 1_555 1_555
O5 Cd1A 1_555 1_555

#END
