
#######################################################################
#
#                 Cambridge Crystallographic Data Centre
#                                CCDC 
#
#######################################################################
#
# If this CIF has been generated from an entry in the Cambridge 
# Structural Database, then it will include bibliographic, chemical, 
# crystal, experimental, refinement or atomic coordinate data resulting 
# from the CCDC's data processing and validation procedures.
#
#######################################################################

data_NERCOE
_symmetry_cell_setting           monoclinic
_symmetry_space_group_name_H-M   'P 21/c'
_symmetry_Int_Tables_number      14
_space_group_name_Hall           '-P 2ybc'
loop_
_symmetry_equiv_pos_site_id
_symmetry_equiv_pos_as_xyz
1 x,y,z
2 -x,1/2+y,1/2-z
3 -x,-y,-z
4 x,1/2-y,1/2+z
_cell_length_a                   10.9474(10)
_cell_length_b                   17.5098(16)
_cell_length_c                   13.2387(12)
_cell_angle_alpha                90
_cell_angle_beta                 101.696(2)
_cell_angle_gamma                90
_cell_volume                     2484.99
loop_
_atom_site_label
_atom_site_type_symbol
_atom_site_fract_x
_atom_site_fract_y
_atom_site_fract_z
Gd1 Gd 0.671460(15) 0.043110(10) -0.411720(13)
Gd2 Gd 0.158420(15) 0.254650(10) -0.404560(13)
N1 N 0.1460(3) 0.12920(18) -0.3146(2)
N2 N 0.6277(3) 0.11876(18) -0.2590(2)
N3 N -0.2897(3) 0.11953(17) -0.5683(2)
O1 O 0.1715(3) 0.20761(17) -0.0674(2)
O2 O 0.1754(3) 0.26127(15) -0.2199(2)
O3 O 0.1289(3) 0.13808(15) -0.5149(2)
O4 O 0.1562(2) 0.01114(14) -0.5262(2)
O5 O 0.8617(3) 0.02804(19) -0.0760(2)
O6 O 0.7948(2) 0.00969(15) -0.2453(2)
O7 O 0.5161(2) 0.14942(15) -0.4490(2)
O8 O 0.3610(3) 0.21070(18) -0.3976(2)
O9 O -0.0536(3) 0.23563(16) -0.4244(2)
O10 O -0.1761(2) 0.14594(16) -0.3768(2)
O11 O -0.4562(2) 0.00856(15) -0.5881(2)
O12 O -0.5066(3) 0.0243(2) -0.7592(2)
O13 O 0.6686(2) -0.09960(16) -0.3893(2)
H1 H 0.7318 -0.1262 -0.3951
H2 H 0.6078 -0.1211 -0.4294
O14 O 0.0439(3) 0.37926(15) -0.4230(2)
H3 H 0.0766 0.4235 -0.4161
H4 H -0.0285 0.3864 -0.4595
O15 O 0.2994(3) 0.35902(18) -0.3372(3)
H5 H 0.3556 0.3800 -0.3637
H6 H 0.3137 0.3748 -0.2752
C1 C 0.1663(4) 0.2052(2) -0.1628(3)
C2 C 0.1456(4) 0.1282(2) -0.2137(3)
C3 C 0.1242(4) 0.0622(2) -0.1620(3)
H7 H 0.1256 0.0628 -0.0916
C4 C 0.1008(4) -0.0047(2) -0.2182(3)
H8 H 0.0842 -0.0496 -0.1860
C5 C 0.1022(4) -0.0047(2) -0.3217(3)
H9 H 0.0865 -0.0492 -0.3605
C6 C 0.1277(3) 0.0634(2) -0.3671(3)
C7 C 0.1372(3) 0.0709(2) -0.4784(3)
C8 C 0.7928(4) 0.0428(2) -0.1612(3)
C9 C 0.6937(4) 0.1039(2) -0.1638(3)
C10 C 0.6663(4) 0.1383(3) -0.0776(3)
H10 H 0.7135 0.1274 -0.0125
C11 C 0.5672(5) 0.1895(3) -0.0886(4)
H11 H 0.5476 0.2135 -0.0313
C12 C 0.4980(4) 0.2040(3) -0.1871(3)
H12 H 0.4305 0.2373 -0.1969
C13 C 0.5321(3) 0.1677(2) -0.2700(3)
C14 C 0.4643(3) 0.1769(2) -0.3803(3)
C15 C -0.1376(3) 0.1848(2) -0.4429(3)
C16 C -0.1998(3) 0.1728(2) -0.5555(3)
C17 C -0.1656(4) 0.2110(2) -0.6368(4)
H13 H -0.1015 0.2468 -0.6250
C18 C -0.2287(4) 0.1951(3) -0.7361(4)
H14 H -0.2085 0.2205 -0.7921
C19 C -0.3227(4) 0.1404(2) -0.7507(3)
H15 H -0.3670 0.1288 -0.8165
C20 C -0.3489(3) 0.1035(2) -0.6649(3)
C21 C -0.4449(4) 0.0401(2) -0.6734(3)
Gd1B Gd 0.328540(15) -0.043110(10) -0.588280(13)
Gd1_2 Gd -0.328540(15) 0.043110(10) -0.411720(13)
Gd1B_2 Gd -0.671460(15) -0.043110(10) -0.588280(13)
Gd2C Gd 0.158420(15) 0.245350(10) 0.095440(13)
N3_2 N 0.7103(3) 0.11953(17) -0.5683(2)
O1C O 0.1715(3) 0.29239(17) -0.5674(2)
O4B O 0.8438(2) -0.01114(14) -0.4738(2)
O10_2 O 0.8239(2) 0.14594(16) -0.3768(2)
O11B O 0.4562(2) -0.00856(15) -0.4119(2)
O11_2 O 0.5438(2) 0.00856(15) -0.5881(2)
O16 O 0.4227(13) 0.4399(6) -0.4677(9)
H16 H 0.3987 0.4567 -0.5288
H17 H 0.4844 0.4681 -0.4418
loop_
_geom_bond_atom_site_label_1
_geom_bond_atom_site_label_2
_geom_bond_site_symmetry_1
_geom_bond_site_symmetry_2
Gd1 N2 1_555 1_555
Gd2 N1 1_555 1_555
N1 C2 1_555 1_555
N2 C9 1_555 1_555
N3 C16 1_555 1_555
O1 C1 1_555 1_555
O2 Gd2 1_555 1_555
O3 Gd2 1_555 1_555
O4 C7 1_555 1_555
O5 C8 1_555 1_555
O6 Gd1 1_555 1_555
O7 Gd1 1_555 1_555
O8 Gd2 1_555 1_555
O9 Gd2 1_555 1_555
O10 C15 1_555 1_555
O11 C21 1_555 1_555
O12 C21 1_555 1_555
O13 Gd1 1_555 1_555
H1 O13 1_555 1_555
H2 O13 1_555 1_555
O14 Gd2 1_555 1_555
H3 O14 1_555 1_555
H4 O14 1_555 1_555
O15 Gd2 1_555 1_555
H5 O15 1_555 1_555
H6 O15 1_555 1_555
C1 O2 1_555 1_555
C2 C1 1_555 1_555
C3 C2 1_555 1_555
H7 C3 1_555 1_555
C4 C3 1_555 1_555
H8 C4 1_555 1_555
C5 C4 1_555 1_555
H9 C5 1_555 1_555
C6 N1 1_555 1_555
C7 O3 1_555 1_555
C8 O6 1_555 1_555
C9 C8 1_555 1_555
C10 C9 1_555 1_555
H10 C10 1_555 1_555
C11 C10 1_555 1_555
H11 C11 1_555 1_555
C12 C11 1_555 1_555
H12 C12 1_555 1_555
C13 N2 1_555 1_555
C14 O7 1_555 1_555
C15 O9 1_555 1_555
C16 C15 1_555 1_555
C17 C16 1_555 1_555
H13 C17 1_555 1_555
C18 C17 1_555 1_555
H14 C18 1_555 1_555
C19 C18 1_555 1_555
H15 C19 1_555 1_555
C20 N3 1_555 1_555
C21 C20 1_555 1_555
O16 H16 1_555 1_555
H17 O16 1_555 1_555
Gd1B O4 1_555 1_555
Gd1_2 N3 1_555 1_555
Gd1B_2 O11 1_555 1_555
Gd2C O1 1_555 1_555
N3_2 Gd1 1_555 1_555
O1C Gd2 1_555 1_555
O4B Gd1 1_555 1_555
O10_2 Gd1 1_555 1_555
O11B Gd1 1_555 1_555
O11_2 Gd1 1_555 1_555
O8 C14 1_555 1_555
O10 Gd1_2 1_555 1_555
O11 Gd1_2 1_555 1_555
C5 C6 1_555 1_555
C6 C7 1_555 1_555
C12 C13 1_555 1_555
C13 C14 1_555 1_555
C19 C20 1_555 1_555
Gd1B O11B 1_555 1_555
Gd1B O11_2 1_555 1_555

#END
