
#######################################################################
#
#                 Cambridge Crystallographic Data Centre
#                                CCDC 
#
#######################################################################
#
# If this CIF has been generated from an entry in the Cambridge 
# Structural Database, then it will include bibliographic, chemical, 
# crystal, experimental, refinement or atomic coordinate data resulting 
# from the CCDC's data processing and validation procedures.
#
#######################################################################

data_NERCEU
_symmetry_cell_setting           triclinic
_symmetry_space_group_name_H-M   'P -1'
_symmetry_Int_Tables_number      2
_space_group_name_Hall           '-P 1'
loop_
_symmetry_equiv_pos_site_id
_symmetry_equiv_pos_as_xyz
1 x,y,z
2 -x,-y,-z
_cell_length_a                   14.4840(5)
_cell_length_b                   15.2760(6)
_cell_length_c                   17.6280(7)
_cell_angle_alpha                112.514(4)
_cell_angle_beta                 105.357(3)
_cell_angle_gamma                93.378(3)
_cell_volume                     3417.68
loop_
_atom_site_label
_atom_site_type_symbol
_atom_site_fract_x
_atom_site_fract_y
_atom_site_fract_z
Cd1 Cd 0.05183(3) -0.21307(3) 0.33414(3)
Cd2 Cd 0.33349(4) -0.35522(3) 0.32208(3)
Cd3 Cd -0.26787(4) -0.88338(4) -0.24554(3)
C1 C 0.1506(5) -0.3566(4) 0.2111(4)
C2 C 0.0702(5) -0.3590(4) 0.1363(4)
C3 C 0.0904(5) -0.3745(5) 0.0617(4)
H1 H 0.1539 -0.3777 0.0606
C4 C 0.0171(6) -0.3861(5) -0.0141(5)
H2 H 0.0317 -0.3959 -0.0647
C5 C -0.0741(6) -0.3824(5) -0.0110(5)
H3 H -0.1236 -0.3913 -0.0607
C6 C -0.0253(5) -0.3497(4) 0.1404(4)
C7 C -0.1993(5) -0.3638(5) 0.0610(5)
H4 H -0.2011 -0.3184 0.1167
H5 H -0.2317 -0.3415 0.0178
C8 C -0.2541(5) -0.4635(5) 0.0400(4)
C9 C -0.3231(6) -0.5151(6) -0.0417(5)
H6 H -0.3347 -0.4906 -0.0836
C10 C -0.3740(6) -0.6052(6) -0.0582(6)
H7 H -0.4190 -0.6411 -0.1124
C11 C -0.3595(5) -0.6424(5) 0.0037(4)
C12 C -0.2852(6) -0.5953(6) 0.0767(5)
H8 H -0.2675 -0.6235 0.1154
C13 C -0.2331(6) -0.5047(6) 0.0965(5)
H9 H -0.1838 -0.4730 0.1489
C14 C -0.4197(5) -0.7319(5) -0.0096(4)
C15 C -0.4244(5) -0.8247(5) -0.0706(4)
C16 C -0.4831(5) -0.9035(5) -0.0735(5)
H10 H -0.4865 -0.9651 -0.1145
C17 C -0.5354(5) -0.8905(6) -0.0167(5)
H11 H -0.5734 -0.9430 -0.0186
C18 C -0.5310(6) -0.7993(7) 0.0428(6)
H12 H -0.5660 -0.7902 0.0817
C19 C -0.4761(6) -0.7218(6) 0.0457(5)
H13 H -0.4760 -0.6605 0.0855
C20 C -0.3662(6) -0.8467(5) -0.1323(5)
C21 C 0.0757(5) -0.1054(5) 0.2141(4)
C22 C -0.0317(5) -0.1070(4) 0.1882(4)
C23 C -0.0797(6) -0.1062(5) 0.1109(5)
H14 H -0.0445 -0.1025 0.0747
C24 C -0.1807(6) -0.1108(5) 0.0842(5)
H15 H -0.2130 -0.1121 0.0305
C25 C -0.2288(6) -0.1131(5) 0.1380(6)
H16 H -0.2957 -0.1154 0.1213
C26 C -0.0854(5) -0.1115(4) 0.2451(5)
C27 C -0.2415(5) -0.1124(5) 0.2752(5)
H17 H -0.3010 -0.0887 0.2591
H18 H -0.2041 -0.0681 0.3337
C28 C -0.2676(4) -0.2103(4) 0.2742(4)
C29 C -0.3513(5) -0.2738(5) 0.2146(4)
H19 H -0.3900 -0.2579 0.1721
C30 C -0.3779(5) -0.3610(5) 0.2178(4)
H20 H -0.4330 -0.4039 0.1763
C31 C -0.3228(5) -0.3846(4) 0.2824(4)
C32 C -0.2377(5) -0.3221(5) 0.3398(4)
H21 H -0.1978 -0.3383 0.3814
C33 C -0.2116(5) -0.2355(5) 0.3358(4)
H22 H -0.1549 -0.1937 0.3758
C34 C -0.3495(5) -0.4792(4) 0.2844(4)
C35 C -0.4420(5) -0.5135(4) 0.2833(4)
C36 C -0.4620(6) -0.6063(5) 0.2781(5)
H23 H -0.5237 -0.6297 0.2762
C37 C -0.3936(7) -0.6638(5) 0.2757(5)
H24 H -0.4085 -0.7254 0.2725
C38 C -0.3034(7) -0.6307(6) 0.2779(5)
H25 H -0.2563 -0.6697 0.2763
C39 C -0.2814(6) -0.5397(5) 0.2825(5)
H26 H -0.2192 -0.5179 0.2844
C40 C -0.5197(5) -0.4539(5) 0.2930(4)
C41 C -0.3650(5) 0.1551(5) 0.5862(5)
C42 C -0.3800(4) 0.0506(4) 0.5263(4)
C43 C -0.4171(4) 0.0245(5) 0.4377(4)
H27 H -0.4319 0.0716 0.4174
C44 C -0.4320(5) -0.0706(5) 0.3796(4)
H28 H -0.4600 -0.0874 0.3208
C45 C -0.4064(4) -0.1395(5) 0.4075(4)
H29 H -0.4139 -0.2029 0.3680
C46 C -0.3579(4) -0.0218(4) 0.5568(4)
C47 C -0.3356(5) -0.1882(4) 0.5248(5)
H30 H -0.3607 -0.2517 0.4780
H31 H -0.3616 -0.1852 0.5709
C48 C -0.2263(5) -0.1747(4) 0.5576(4)
C49 C -0.1648(5) -0.1108(4) 0.5469(4)
H32 H -0.1909 -0.0712 0.5210
C50 C -0.0658(5) -0.1049(4) 0.5740(4)
H33 H -0.0263 -0.0619 0.5651
C51 C -0.0226(5) -0.1612(5) 0.6143(4)
C52 C -0.0868(6) -0.2227(5) 0.6271(5)
H34 H -0.0613 -0.2606 0.6551
C53 C -0.1850(6) -0.2288(5) 0.5999(5)
H35 H -0.2248 -0.2703 0.6101
C54 C 0.0834(5) -0.1534(4) 0.6464(4)
C55 C 0.1433(5) -0.1538(4) 0.5958(4)
C56 C 0.2438(5) -0.1401(4) 0.6313(5)
H36 H 0.2835 -0.1395 0.5978
C57 C 0.2849(6) -0.1275(5) 0.7148(5)
H37 H 0.3522 -0.1185 0.7375
C58 C 0.2280(6) -0.1280(5) 0.7648(5)
H38 H 0.2556 -0.1206 0.8214
C59 C 0.1279(6) -0.1398(5) 0.7297(5)
H39 H 0.0892 -0.1384 0.7646
C60 C 0.1053(5) -0.1726(5) 0.5013(4)
C61 C 0.3190(7) -0.4850(6) 0.4347(6)
H40 H 0.3722 -0.5141 0.4263
C62 C 0.2646(8) -0.4952(7) 0.4839(6)
H41 H 0.2730 -0.5340 0.5142
C63 C 0.2093(6) -0.3977(6) 0.4302(5)
H42 H 0.1716 -0.3548 0.4175
C64 C 0.1185(7) -0.4258(7) 0.5223(6)
H43 H 0.0915 -0.3698 0.5203
H44 H 0.1462 -0.4141 0.5826
C65 C 0.0429(8) -0.5083(7) 0.4803(7)
H45 H 0.0186 -0.5227 0.4192
H46 H 0.0690 -0.5632 0.4861
N1 N -0.0961(4) -0.3661(4) 0.0627(4)
N2 N -0.1844(4) -0.1124(4) 0.2162(4)
N3 N -0.3695(4) -0.1153(4) 0.4940(4)
N4 N 0.2808(5) -0.4234(4) 0.3995(4)
N5 N 0.1959(5) -0.4388(5) 0.4811(5)
O1 O 0.2231(4) -0.3879(4) 0.1957(3)
O2 O 0.1442(3) -0.3228(3) 0.2873(3)
O4 O -0.0526(3) -0.3272(3) 0.2070(3)
O6 O -0.3952(4) -0.9225(3) -0.2007(3)
O8 O -0.2925(4) -0.7894(4) -0.1191(3)
O10 O 0.1261(4) -0.0680(4) 0.1812(4)
O12 O 0.1167(3) -0.1407(3) 0.2640(3)
O14 O -0.0518(3) -0.1133(3) 0.3174(3)
O16 O -0.4998(4) -0.3668(3) 0.3419(4)
O18 O -0.6064(4) -0.4945(4) 0.2518(4)
O20 O -0.3841(4) 0.2129(3) 0.5508(3)
O22 O -0.3356(3) 0.1840(3) 0.6667(3)
O23 O -0.3284(3) -0.0128(3) 0.6332(3)
O24 O 0.0386(3) -0.2421(3) 0.4504(3)
O25 O 0.1463(4) -0.1204(4) 0.4755(3)
Cd1_2 Cd -0.94817(3) -0.21307(3) 0.33414(3)
Cd1_3 Cd 1.05183(3) -0.21307(3) 0.33414(3)
Cd1A Cd -0.05183(3) 0.21307(3) 0.66586(3)
Cd2_2 Cd -0.66651(4) -0.35522(3) 0.32208(3)
Cd2A Cd -0.33349(4) 0.35522(3) 0.67792(3)
Cd2A_2 Cd -0.33349(4) -0.64478(3) 0.67792(3)
Cd3A Cd 0.26787(4) -0.11662(4) 0.24554(3)
Cd3_2 Cd -0.26787(4) 0.11662(4) 0.75446(3)
Cd3A_2 Cd 1.26787(4) -0.11662(4) 0.24554(3)
Cd3_3 Cd -1.26787(4) -0.88338(4) -0.24554(3)
C1_2 C -0.8494(5) -0.3566(4) 0.2111(4)
C2_2 C -0.9298(5) -0.3590(4) 0.1363(4)
C3_2 C -0.9096(5) -0.3745(5) 0.0617(4)
H1_2 H -0.8461 -0.3777 0.0606
C4_2 C -0.9829(6) -0.3861(5) -0.0141(5)
H2_2 H -0.9683 -0.3959 -0.0647
C5_2 C -1.0741(6) -0.3824(5) -0.0110(5)
H3_2 H -1.1236 -0.3913 -0.0607
C6_2 C -1.0253(5) -0.3497(4) 0.1404(4)
C7_2 C -1.1993(5) -0.3638(5) 0.0610(5)
H4_2 H -1.2011 -0.3184 0.1167
H5_2 H -1.2317 -0.3415 0.0178
C8_2 C -1.2541(5) -0.4635(5) 0.0400(4)
C9_2 C -1.3231(6) -0.5151(6) -0.0417(5)
H6_2 H -1.3347 -0.4906 -0.0836
C10_2 C -1.3740(6) -0.6052(6) -0.0582(6)
H7_2 H -1.4190 -0.6411 -0.1124
C11_2 C -1.3595(5) -0.6424(5) 0.0037(4)
C12_2 C -1.2852(6) -0.5953(6) 0.0767(5)
H8_2 H -1.2675 -0.6235 0.1154
C13_2 C -1.2331(6) -0.5047(6) 0.0965(5)
H9_2 H -1.1838 -0.4730 0.1489
C14_2 C -1.4197(5) -0.7319(5) -0.0096(4)
C15_2 C -1.4244(5) -0.8247(5) -0.0706(4)
C16_2 C -1.4831(5) -0.9035(5) -0.0735(5)
H10_2 H -1.4865 -0.9651 -0.1145
C17_2 C -1.5354(5) -0.8905(6) -0.0167(5)
H11_2 H -1.5734 -0.9430 -0.0186
C18_2 C -1.5310(6) -0.7993(7) 0.0428(6)
H12_2 H -1.5660 -0.7902 0.0817
C19_2 C -1.4761(6) -0.7218(6) 0.0457(5)
H13_2 H -1.4760 -0.6605 0.0855
C20_2 C -1.3662(6) -0.8467(5) -0.1323(5)
C21_2 C 1.0757(5) -0.1054(5) 0.2141(4)
C22_2 C 0.9683(5) -0.1070(4) 0.1882(4)
C23_2 C 0.9203(6) -0.1062(5) 0.1109(5)
H14_2 H 0.9555 -0.1025 0.0747
C24_2 C 0.8193(6) -0.1108(5) 0.0842(5)
H15_2 H 0.7870 -0.1121 0.0305
C25_2 C 0.7712(6) -0.1131(5) 0.1380(6)
H16_2 H 0.7043 -0.1154 0.1213
C26_2 C 0.9146(5) -0.1115(4) 0.2451(5)
C27_2 C 0.7585(5) -0.1124(5) 0.2752(5)
H17_2 H 0.6990 -0.0887 0.2591
H18_2 H 0.7959 -0.0681 0.3337
C28_2 C 0.7324(4) -0.2103(4) 0.2742(4)
C29_2 C 0.6487(5) -0.2738(5) 0.2146(4)
H19_2 H 0.6100 -0.2579 0.1721
C30_2 C 0.6221(5) -0.3610(5) 0.2178(4)
H20_2 H 0.5670 -0.4039 0.1763
C31_2 C 0.6772(5) -0.3846(4) 0.2824(4)
C32_2 C 0.7623(5) -0.3221(5) 0.3398(4)
H21_2 H 0.8022 -0.3383 0.3814
C33_2 C 0.7884(5) -0.2355(5) 0.3358(4)
H22_2 H 0.8451 -0.1937 0.3758
C34_2 C 0.6505(5) -0.4792(4) 0.2844(4)
C35_2 C 0.5580(5) -0.5135(4) 0.2833(4)
C36_2 C 0.5380(6) -0.6063(5) 0.2781(5)
H23_2 H 0.4763 -0.6297 0.2762
C37_2 C 0.6064(7) -0.6638(5) 0.2757(5)
H24_2 H 0.5915 -0.7254 0.2725
C38_2 C 0.6966(7) -0.6307(6) 0.2779(5)
H25_2 H 0.7437 -0.6697 0.2763
C39_2 C 0.7186(6) -0.5397(5) 0.2825(5)
H26_2 H 0.7808 -0.5179 0.2844
C40_2 C 0.4803(5) -0.4539(5) 0.2930(4)
C41A C 0.3650(5) -0.1551(5) 0.4138(5)
C42A C 0.3800(4) -0.0506(4) 0.4737(4)
C43A C 0.4171(4) -0.0245(5) 0.5623(4)
H27A H 0.4319 -0.0716 0.5826
C44A C 0.4320(5) 0.0706(5) 0.6204(4)
H28A H 0.4600 0.0874 0.6792
C45A C 0.4064(4) 0.1395(5) 0.5925(4)
H29A H 0.4139 0.2029 0.6320
C46A C 0.3579(4) 0.0218(4) 0.4432(4)
C47A C 0.3356(5) 0.1882(4) 0.4752(5)
H30A H 0.3607 0.2517 0.5220
H31A H 0.3616 0.1852 0.4291
C48A C 0.2263(5) 0.1747(4) 0.4424(4)
C49A C 0.1648(5) 0.1108(4) 0.4531(4)
H32A H 0.1909 0.0712 0.4790
C50A C 0.0658(5) 0.1049(4) 0.4260(4)
H33A H 0.0263 0.0619 0.4349
C51A C 0.0226(5) 0.1612(5) 0.3857(4)
C52A C 0.0868(6) 0.2227(5) 0.3729(5)
H34A H 0.0613 0.2606 0.3449
C53A C 0.1850(6) 0.2288(5) 0.4001(5)
H35A H 0.2248 0.2703 0.3899
C54A C -0.0834(5) 0.1534(4) 0.3536(4)
C55A C -0.1433(5) 0.1538(4) 0.4042(4)
C56A C -0.2438(5) 0.1401(4) 0.3687(5)
H36A H -0.2835 0.1395 0.4022
C57A C -0.2849(6) 0.1275(5) 0.2852(5)
H37A H -0.3522 0.1185 0.2625
C58A C -0.2280(6) 0.1280(5) 0.2352(5)
H38A H -0.2556 0.1206 0.1786
C59A C -0.1279(6) 0.1398(5) 0.2703(5)
H39A H -0.0892 0.1384 0.2354
C60A C -0.1053(5) 0.1726(5) 0.4987(4)
C61A C -0.3190(7) -0.5150(6) 0.5653(6)
H40A H -0.3722 -0.4859 0.5737
C62A C -0.2646(8) -0.5048(7) 0.5161(6)
H41A H -0.2730 -0.4660 0.4858
C63A C -0.2093(6) -0.6023(6) 0.5698(5)
H42A H -0.1716 -0.6452 0.5825
C64A C -0.1185(7) -0.5742(7) 0.4777(6)
H43A H -0.0915 -0.6302 0.4797
H44A H -0.1462 -0.5859 0.4174
C65A C -0.0429(8) -0.4917(7) 0.5197(7)
H45A H -0.0186 -0.4773 0.5808
H46A H -0.0690 -0.4368 0.5139
N1_2 N -1.0961(4) -0.3661(4) 0.0627(4)
N2_2 N 0.8156(4) -0.1124(4) 0.2162(4)
N3A N 0.3695(4) 0.1153(4) 0.5060(4)
N4A N -0.2808(5) -0.5766(4) 0.6005(4)
N4_2 N -0.7192(5) -0.4234(4) 0.3995(4)
N5A N -0.1959(5) -0.5612(5) 0.5189(5)
O1_2 O -0.7769(4) -0.3879(4) 0.1957(3)
O2_2 O -0.8558(3) -0.3228(3) 0.2873(3)
O4_2 O -1.0526(3) -0.3272(3) 0.2070(3)
O6_2 O -1.3952(4) -0.9225(3) -0.2007(3)
O6A O 0.3952(4) -0.0775(3) 0.2007(3)
O8_2 O -1.2925(4) -0.7894(4) -0.1191(3)
O8A O 0.2925(4) -0.2106(4) 0.1191(3)
O10_2 O 1.1261(4) -0.0680(4) 0.1812(4)
O10A O -0.1261(4) -0.9320(4) -0.1812(4)
O12_2 O 1.1167(3) -0.1407(3) 0.2640(3)
O12A O -0.1167(3) -0.8593(3) -0.2640(3)
O12_3 O -0.8833(3) -0.1407(3) 0.2640(3)
O14_2 O 0.9482(3) -0.1133(3) 0.3174(3)
O14_3 O -1.0518(3) -0.1133(3) 0.3174(3)
O16_2 O 0.5002(4) -0.3668(3) 0.3419(4)
O18_2 O 0.3936(4) -0.4945(4) 0.2518(4)
O20A O 0.3841(4) -0.2129(3) 0.4492(3)
O20A_2 O -0.6159(4) -0.2129(3) 0.4492(3)
O22A O 0.3356(3) -0.1840(3) 0.3333(3)
O22_2 O -0.3356(3) -0.8160(3) -0.3333(3)
O22A_2 O -0.6644(3) -0.1840(3) 0.3333(3)
O23A O 0.3284(3) 0.0128(3) 0.3668(3)
O23_2 O -0.3284(3) -1.0128(3) -0.3668(3)
O24A O -0.0386(3) 0.2421(3) 0.5496(3)
O24_2 O -0.9614(3) -0.2421(3) 0.4504(3)
O25A O -0.1463(4) 0.1204(4) 0.5245(3)
O25_2 O -0.8537(4) -0.1204(4) 0.4755(3)
O3 O 0.7059(6) -0.1606(6) -0.1377(5)
O5 O 0.4486(5) 0.1195(5) 0.2451(4)
O7 O 0.1621(16) -0.192(2) -0.0508(12)
O9 O 0.1131(10) 0.0843(11) 0.1276(12)
O11 O -0.4694(6) 0.2561(6) 0.4142(5)
O13 O -0.109(2) -0.347(2) 0.774(2)
O15 O 0.061(3) -0.127(5) -0.067(4)
O17 O 0.2606(7) -0.6599(6) 0.1443(6)
O19 O -0.0308(12) -0.4730(19) 0.2874(15)
O21 O -0.054(3) -0.636(2) 0.217(2)
loop_
_geom_bond_atom_site_label_1
_geom_bond_atom_site_label_2
_geom_bond_site_symmetry_1
_geom_bond_site_symmetry_2
Cd1 O2 1_555 1_555
Cd2 N4 1_555 1_555
Cd3 O6 1_555 1_555
C1 C2 1_555 1_555
C2 C3 1_555 1_555
C3 H1 1_555 1_555
C4 C3 1_555 1_555
H2 C4 1_555 1_555
C5 C4 1_555 1_555
H3 C5 1_555 1_555
C6 C2 1_555 1_555
C7 H4 1_555 1_555
H5 C7 1_555 1_555
C8 C7 1_555 1_555
C9 C8 1_555 1_555
H6 C9 1_555 1_555
C10 C9 1_555 1_555
H7 C10 1_555 1_555
C11 C10 1_555 1_555
C12 C11 1_555 1_555
H8 C12 1_555 1_555
C13 C8 1_555 1_555
H9 C13 1_555 1_555
C14 C11 1_555 1_555
C15 C14 1_555 1_555
C16 C15 1_555 1_555
H10 C16 1_555 1_555
C17 C16 1_555 1_555
H11 C17 1_555 1_555
C18 C17 1_555 1_555
H12 C18 1_555 1_555
C19 C14 1_555 1_555
H13 C19 1_555 1_555
C20 C15 1_555 1_555
C21 C22 1_555 1_555
C22 C23 1_555 1_555
C23 H14 1_555 1_555
C24 C23 1_555 1_555
H15 C24 1_555 1_555
C25 C24 1_555 1_555
H16 C25 1_555 1_555
C26 C22 1_555 1_555
C27 H17 1_555 1_555
H18 C27 1_555 1_555
C28 C27 1_555 1_555
C29 C28 1_555 1_555
H19 C29 1_555 1_555
C30 C29 1_555 1_555
H20 C30 1_555 1_555
C31 C30 1_555 1_555
C32 C31 1_555 1_555
H21 C32 1_555 1_555
C33 C28 1_555 1_555
H22 C33 1_555 1_555
C34 C31 1_555 1_555
C35 C34 1_555 1_555
C36 C35 1_555 1_555
H23 C36 1_555 1_555
C37 C36 1_555 1_555
H24 C37 1_555 1_555
C38 C37 1_555 1_555
H25 C38 1_555 1_555
C39 C34 1_555 1_555
H26 C39 1_555 1_555
C40 C35 1_555 1_555
C41 C42 1_555 1_555
C42 C43 1_555 1_555
C43 H27 1_555 1_555
C44 C43 1_555 1_555
H28 C44 1_555 1_555
C45 C44 1_555 1_555
H29 C45 1_555 1_555
C46 C42 1_555 1_555
C47 H30 1_555 1_555
H31 C47 1_555 1_555
C48 C47 1_555 1_555
C49 C48 1_555 1_555
H32 C49 1_555 1_555
C50 C49 1_555 1_555
H33 C50 1_555 1_555
C51 C50 1_555 1_555
C52 C51 1_555 1_555
H34 C52 1_555 1_555
C53 C48 1_555 1_555
H35 C53 1_555 1_555
C54 C51 1_555 1_555
C55 C54 1_555 1_555
C56 C55 1_555 1_555
H36 C56 1_555 1_555
C57 C56 1_555 1_555
H37 C57 1_555 1_555
C58 C57 1_555 1_555
H38 C58 1_555 1_555
C59 C54 1_555 1_555
H39 C59 1_555 1_555
C60 C55 1_555 1_555
C61 H40 1_555 1_555
C62 C61 1_555 1_555
H41 C62 1_555 1_555
C63 H42 1_555 1_555
C64 H43 1_555 1_555
H44 C64 1_555 1_555
C65 C64 1_555 1_555
H45 C65 1_555 1_555
H46 C65 1_555 1_555
N1 C5 1_555 1_555
N2 C25 1_555 1_555
N3 C45 1_555 1_555
N4 C61 1_555 1_555
N5 C62 1_555 1_555
O1 Cd2 1_555 1_555
O2 C1 1_555 1_555
O4 Cd1 1_555 1_555
O6 C20 1_555 1_555
O8 Cd3 1_555 1_555
O10 C21 1_555 1_555
O12 Cd1 1_555 1_555
O14 Cd1 1_555 1_555
O16 C40 1_555 1_555
O18 C40 1_555 1_555
O20 C41 1_555 1_555
O22 C41 1_555 1_555
O23 C46 1_555 1_555
O24 Cd1 1_555 1_555
O25 Cd1 1_555 1_555
Cd1_2 O2_2 1_555 1_555
Cd1_3 O12_2 1_555 1_555
Cd1A O24A 1_555 1_555
Cd2_2 O16 1_555 1_555
Cd2A O20 1_555 1_555
Cd2A_2 N4A 1_555 1_555
Cd3A O10 1_555 1_555
Cd3_2 O22 1_555 1_555
Cd3A_2 O10_2 1_555 1_555
Cd3_3 O6_2 1_555 1_555
C1_2 C2_2 1_555 1_555
C2_2 C3_2 1_555 1_555
C3_2 H1_2 1_555 1_555
C4_2 C3_2 1_555 1_555
H2_2 C4_2 1_555 1_555
C5_2 C4_2 1_555 1_555
H3_2 C5_2 1_555 1_555
C6_2 C2_2 1_555 1_555
C7_2 H4_2 1_555 1_555
H5_2 C7_2 1_555 1_555
C8_2 C7_2 1_555 1_555
C9_2 C8_2 1_555 1_555
H6_2 C9_2 1_555 1_555
C10_2 C9_2 1_555 1_555
H7_2 C10_2 1_555 1_555
C11_2 C10_2 1_555 1_555
C12_2 C11_2 1_555 1_555
H8_2 C12_2 1_555 1_555
C13_2 C8_2 1_555 1_555
H9_2 C13_2 1_555 1_555
C14_2 C11_2 1_555 1_555
C15_2 C14_2 1_555 1_555
C16_2 C15_2 1_555 1_555
H10_2 C16_2 1_555 1_555
C17_2 C16_2 1_555 1_555
H11_2 C17_2 1_555 1_555
C18_2 C17_2 1_555 1_555
H12_2 C18_2 1_555 1_555
C19_2 C14_2 1_555 1_555
H13_2 C19_2 1_555 1_555
C20_2 C15_2 1_555 1_555
C21_2 C22_2 1_555 1_555
C22_2 C23_2 1_555 1_555
C23_2 H14_2 1_555 1_555
C24_2 C23_2 1_555 1_555
H15_2 C24_2 1_555 1_555
C25_2 C24_2 1_555 1_555
H16_2 C25_2 1_555 1_555
C26_2 C22_2 1_555 1_555
C27_2 H17_2 1_555 1_555
H18_2 C27_2 1_555 1_555
C28_2 C27_2 1_555 1_555
C29_2 C28_2 1_555 1_555
H19_2 C29_2 1_555 1_555
C30_2 C29_2 1_555 1_555
H20_2 C30_2 1_555 1_555
C31_2 C30_2 1_555 1_555
C32_2 C31_2 1_555 1_555
H21_2 C32_2 1_555 1_555
C33_2 C28_2 1_555 1_555
H22_2 C33_2 1_555 1_555
C34_2 C31_2 1_555 1_555
C35_2 C34_2 1_555 1_555
C36_2 C35_2 1_555 1_555
H23_2 C36_2 1_555 1_555
C37_2 C36_2 1_555 1_555
H24_2 C37_2 1_555 1_555
C38_2 C37_2 1_555 1_555
H25_2 C38_2 1_555 1_555
C39_2 C34_2 1_555 1_555
H26_2 C39_2 1_555 1_555
C40_2 C35_2 1_555 1_555
C41A C42A 1_555 1_555
C42A C43A 1_555 1_555
C43A H27A 1_555 1_555
C44A C43A 1_555 1_555
H28A C44A 1_555 1_555
C45A C44A 1_555 1_555
H29A C45A 1_555 1_555
C46A C42A 1_555 1_555
C47A H30A 1_555 1_555
H31A C47A 1_555 1_555
C48A C47A 1_555 1_555
C49A C48A 1_555 1_555
H32A C49A 1_555 1_555
C50A C49A 1_555 1_555
H33A C50A 1_555 1_555
C51A C50A 1_555 1_555
C52A C51A 1_555 1_555
H34A C52A 1_555 1_555
C53A C48A 1_555 1_555
H35A C53A 1_555 1_555
C54A C51A 1_555 1_555
C55A C54A 1_555 1_555
C56A C55A 1_555 1_555
H36A C56A 1_555 1_555
C57A C56A 1_555 1_555
H37A C57A 1_555 1_555
C58A C57A 1_555 1_555
H38A C58A 1_555 1_555
C59A C54A 1_555 1_555
H39A C59A 1_555 1_555
C60A C55A 1_555 1_555
C61A H40A 1_555 1_555
C62A C61A 1_555 1_555
H41A C62A 1_555 1_555
C63A H42A 1_555 1_555
C64A H43A 1_555 1_555
H44A C64A 1_555 1_555
C65A C65 1_555 1_555
H45A C65A 1_555 1_555
H46A C65A 1_555 1_555
N1_2 C5_2 1_555 1_555
N2_2 C25_2 1_555 1_555
N3A C45A 1_555 1_555
N4A C61A 1_555 1_555
N4_2 Cd2_2 1_555 1_555
N5A C62A 1_555 1_555
O1_2 Cd2_2 1_555 1_555
O2_2 C1_2 1_555 1_555
O4_2 Cd1_2 1_555 1_555
O6_2 C20_2 1_555 1_555
O6A Cd3A 1_555 1_555
O8_2 Cd3_3 1_555 1_555
O8A Cd3A 1_555 1_555
O10_2 C21_2 1_555 1_555
O10A Cd3 1_555 1_555
O12_2 Cd3A_2 1_555 1_555
O12A Cd3 1_555 1_555
O12_3 Cd1_2 1_555 1_555
O14_2 Cd1_3 1_555 1_555
O14_3 Cd1_2 1_555 1_555
O16_2 Cd2 1_555 1_555
O18_2 Cd2 1_555 1_555
O20A Cd2 1_555 1_555
O20A_2 Cd2_2 1_555 1_555
O22A Cd2 1_555 1_555
O22_2 Cd3 1_555 1_555
O22A_2 Cd2_2 1_555 1_555
O23A Cd3A 1_555 1_555
O23_2 Cd3 1_555 1_555
O24A C60A 1_555 1_555
O24_2 Cd1_2 1_555 1_555
O25A Cd1A 1_555 1_555
O25_2 Cd1_2 1_555 1_555
C1 O1 1_555 1_555
C6 N1 1_555 1_555
C6 O4 1_555 1_555
C7 N1 1_555 1_555
C12 C13 1_555 1_555
C18 C19 1_555 1_555
C20 O8 1_555 1_555
C21 O12 1_555 1_555
C26 N2 1_555 1_555
C26 O14 1_555 1_555
C27 N2 1_555 1_555
C32 C33 1_555 1_555
C38 C39 1_555 1_555
C46 N3 1_555 1_555
C47 N3 1_555 1_555
C52 C53 1_555 1_555
C58 C59 1_555 1_555
C60 O24 1_555 1_555
C60 O25 1_555 1_555
C63 N4 1_555 1_555
C63 N5 1_555 1_555
C64 N5 1_555 1_555
O12 Cd3A 1_555 1_555
O18 Cd2_2 1_555 1_555
O22 Cd2A 1_555 1_555
O23 Cd3_2 1_555 1_555
Cd3A O22A 1_555 1_555
C1_2 O1_2 1_555 1_555
C6_2 N1_2 1_555 1_555
C6_2 O4_2 1_555 1_555
C7_2 N1_2 1_555 1_555
C12_2 C13_2 1_555 1_555
C18_2 C19_2 1_555 1_555
C20_2 O8_2 1_555 1_555
C21_2 O12_2 1_555 1_555
C26_2 N2_2 1_555 1_555
C26_2 O14_2 1_555 1_555
C27_2 N2_2 1_555 1_555
C32_2 C33_2 1_555 1_555
C38_2 C39_2 1_555 1_555
C40_2 O16_2 1_555 1_555
C40_2 O18_2 1_555 1_555
C41A O20A 1_555 1_555
C41A O22A 1_555 1_555
C46A N3A 1_555 1_555
C46A O23A 1_555 1_555
C47A N3A 1_555 1_555
C52A C53A 1_555 1_555
C58A C59A 1_555 1_555
C60A O25A 1_555 1_555
C63A N4A 1_555 1_555
C63A N5A 1_555 1_555
C64A C65A 1_555 1_555
C64A N5A 1_555 1_555

#END
