
#######################################################################
#
#                 Cambridge Crystallographic Data Centre
#                                CCDC 
#
#######################################################################
#
# If this CIF has been generated from an entry in the Cambridge 
# Structural Database, then it will include bibliographic, chemical, 
# crystal, experimental, refinement or atomic coordinate data resulting 
# from the CCDC's data processing and validation procedures.
#
#######################################################################

data_NERCAQ
_symmetry_cell_setting           triclinic
_symmetry_space_group_name_H-M   'P -1'
_symmetry_Int_Tables_number      2
_space_group_name_Hall           '-P 1'
loop_
_symmetry_equiv_pos_site_id
_symmetry_equiv_pos_as_xyz
1 x,y,z
2 -x,-y,-z
_cell_length_a                   13.982(5)
_cell_length_b                   14.039(5)
_cell_length_c                   14.557(5)
_cell_angle_alpha                101.286(5)
_cell_angle_beta                 101.660(5)
_cell_angle_gamma                99.890(5)
_cell_volume                     2677.11
loop_
_atom_site_label
_atom_site_type_symbol
_atom_site_fract_x
_atom_site_fract_y
_atom_site_fract_z
Cd1 Cd 0.55097(2) 0.32665(2) 0.78535(2)
Cd2 Cd 0.19393(2) 0.80782(2) 1.12331(2)
Cd3 Cd 0.18970(2) 0.67529(3) 1.36207(2)
C1 C 0.1507(3) 0.5922(3) 1.1677(3)
C2 C 0.1331(3) 0.5912(3) 0.9875(3)
C3 C 0.0958(3) 0.4304(4) 0.8759(3)
H1 H 0.0855 0.3945 0.8126
C4 C 0.0874(3) 0.3806(4) 0.9457(3)
H2 H 0.0695 0.3114 0.9309
C5 C 0.1067(3) 0.4369(3) 1.0410(3)
H3 H 0.1035 0.4042 1.0904
C6 C 0.1302(3) 0.5392(3) 1.0630(3)
C7 C 0.1327(3) 0.5802(4) 0.8176(3)
H4 H 0.0980 0.5349 0.7559
H5 H 0.1028 0.6378 0.8242
C8 C 0.2416(3) 0.6134(3) 0.8182(3)
C9 C 0.3190(3) 0.6008(3) 0.8870(3)
H6 H 0.3050 0.5759 0.9386
C10 C 0.4178(3) 0.6247(3) 0.8803(3)
H7 H 0.4687 0.6138 0.9264
C11 C 0.4413(3) 0.6646(3) 0.8058(3)
C12 C 0.3628(3) 0.6798(4) 0.7382(3)
H8 H 0.3769 0.7083 0.6886
C13 C 0.2650(3) 0.6535(4) 0.7433(3)
H9 H 0.2139 0.6626 0.6962
C14 C 0.5479(3) 0.6957(3) 0.8027(3)
C15 C 0.5846(4) 0.7930(4) 0.8001(4)
H10 H 0.5415 0.8366 0.7982
C16 C 0.6829(4) 0.8271(4) 0.8001(5)
H11 H 0.7055 0.8923 0.7968
C17 C 0.7473(4) 0.7637(4) 0.8052(4)
H12 H 0.8143 0.7866 0.8069
C18 C 0.7137(3) 0.6670(4) 0.8079(3)
H13 H 0.7580 0.6247 0.8109
C19 C 0.6145(3) 0.6316(3) 0.8060(3)
C20 C 0.5836(3) 0.5225(3) 0.8031(3)
C21 C 0.6399(3) 0.1908(4) 0.6430(3)
C22 C 0.5624(3) 0.1017(4) 0.6416(3)
C23 C 0.5825(4) 0.0095(4) 0.6205(3)
H14 H 0.6466 0.0041 0.6150
C24 C 0.5092(4) -0.0778(4) 0.6066(3)
H15 H 0.5243 -0.1404 0.5947
C25 C 0.4170(4) -0.0672(4) 0.6112(3)
H16 H 0.3664 -0.1240 0.5975
C26 C 0.4652(3) 0.1115(3) 0.6547(3)
C27 C 0.2905(3) 0.0295(4) 0.6395(3)
H17 H 0.2929 0.0877 0.6892
H18 H 0.2594 -0.0287 0.6579
C28 C 0.2271(3) 0.0364(3) 0.5454(3)
C29 C 0.1510(4) -0.0397(5) 0.4915(5)
H19 H 0.1379 -0.0980 0.5124
C30 C 0.0920(5) -0.0317(5) 0.4054(5)
H20 H 0.0418 -0.0861 0.3687
C31 C 0.1051(3) 0.0520(3) 0.3735(3)
C32 C 0.1856(4) 0.1262(4) 0.4248(4)
H21 H 0.2007 0.1830 0.4020
C33 C 0.2447(4) 0.1185(4) 0.5097(4)
H22 H 0.2983 0.1709 0.5436
C34 C 0.0359(3) 0.0665(3) 0.2875(3)
C35 C 0.0247(3) 0.0139(3) 0.1928(3)
C36 C -0.0413(3) 0.0342(4) 0.1181(3)
H23 H -0.0491 -0.0020 0.0552
C37 C -0.0955(4) 0.1061(4) 0.1339(4)
H24 H -0.1375 0.1203 0.0825
C38 C -0.0864(4) 0.1566(4) 0.2275(5)
H25 H -0.1232 0.2047 0.2400
C39 C -0.0231(4) 0.1358(4) 0.3017(4)
H26 H -0.0193 0.1695 0.3646
C40 C 0.0845(3) -0.0624(4) 0.1676(3)
C41 C 0.6129(3) 0.1578(3) 0.8931(3)
C42 C 0.5062(3) 0.1304(3) 0.8979(3)
C43 C 0.4658(3) 0.0357(4) 0.8987(3)
H27 H 0.5054 -0.0111 0.8957
C44 C 0.3661(4) 0.0058(4) 0.9039(4)
H28 H 0.3390 -0.0599 0.9028
C45 C 0.3119(4) 0.0757(4) 0.9106(4)
H29 H 0.2462 0.0578 0.9153
C46 C 0.4462(3) 0.2046(4) 0.9028(3)
C47 C 0.2858(3) 0.2458(4) 0.9182(3)
H30 H 0.3239 0.3054 0.9664
H31 H 0.2279 0.2196 0.9401
C48 C 0.2507(3) 0.2733(4) 0.8237(3)
C49 C 0.1671(3) 0.2165(4) 0.7551(3)
H32 H 0.1322 0.1591 0.7664
C50 C 0.1340(3) 0.2437(4) 0.6694(3)
H33 H 0.0778 0.2039 0.6238
C51 C 0.1844(3) 0.3301(3) 0.6512(3)
C52 C 0.2689(3) 0.3861(3) 0.7204(3)
H34 H 0.3050 0.4431 0.7093
C53 C 0.3002(3) 0.3587(4) 0.8053(3)
H35 H 0.3561 0.3986 0.8514
C54 C 0.1549(3) 0.3595(3) 0.5590(3)
C55 C 0.0563(3) 0.3621(3) 0.5154(3)
C56 C 0.0367(4) 0.3863(4) 0.4258(3)
H36 H -0.0286 0.3875 0.3969
C57 C 0.1098(4) 0.4080(4) 0.3791(4)
H37 H 0.0948 0.4238 0.3194
C58 C 0.2063(5) 0.4061(5) 0.4221(4)
H38 H 0.2572 0.4205 0.3912
C59 C 0.2282(4) 0.3831(4) 0.5106(4)
H39 H 0.2942 0.3834 0.5388
C60 C -0.0302(3) 0.3433(3) 0.5602(3)
N1 N 0.1186(2) 0.5303(3) 0.8957(2)
N2 N 0.3941(3) 0.0229(3) 0.6349(2)
N3 N 0.3489(2) 0.1709(3) 0.9107(2)
O1 O 0.1650(2) 0.5426(2) 1.22958(19)
O2 O 0.1526(2) 0.6845(2) 1.19314(18)
O3 O 0.3003(3) 0.6377(4) 1.4841(3)
O4 O 0.1477(2) 0.6822(2) 0.99367(19)
O6 O 0.6287(2) 0.4884(2) 0.8667(2)
O7 O 0.5159(2) 0.4665(2) 0.7324(2)
O8 O 0.7152(2) 0.1725(3) 0.6136(2)
O9 O 0.6311(2) 0.2789(2) 0.6707(2)
O10 O 0.4389(2) 0.1912(2) 0.6831(2)
O11 O 0.1701(2) -0.0545(3) 0.2163(2)
O12 O 0.0467(3) -0.1331(3) 0.0944(3)
O13 O 0.6712(2) 0.1054(3) 0.9215(3)
O14 O 0.64281(19) 0.2294(2) 0.8578(2)
O15 O 0.4720(2) 0.2924(2) 0.89963(19)
O16 O -0.0192(2) 0.3759(3) 0.6481(2)
O17 O -0.1138(2) 0.2980(3) 0.5065(2)
H40 H 0.254(5) 0.625(8) 1.517(6)
H41 H 0.354(4) 0.611(7) 1.480(6)
Cd2_2 Cd 0.19393(2) -0.19218(2) 0.12331(2)
Cd2A Cd 0.80607(2) 0.19218(2) 0.87669(2)
Cd3A Cd 0.81030(2) 0.32471(3) 0.63793(2)
Cd3A_2 Cd -0.18970(2) 0.32471(3) 0.63793(2)
O8A O 0.2848(2) 0.8275(3) 1.3864(2)
O9A O 0.3689(2) 0.7211(2) 1.3293(2)
O11_2 O 0.1701(2) 0.9455(3) 1.2163(2)
O12_2 O 0.0467(3) 0.8669(3) 1.0944(3)
O13A O 0.3288(2) 0.8946(3) 1.0785(3)
O14A O 0.35719(19) 0.7706(2) 1.1422(2)
O16A O 0.0192(2) 0.6241(3) 1.3519(2)
O17A O 0.1138(2) 0.7020(3) 1.4935(2)
O5 O 0.5354(6) 0.4350(7) 0.5462(4)
O18? O 0.4889(10) 0.3626(12) 0.5022(10)
loop_
_geom_bond_atom_site_label_1
_geom_bond_atom_site_label_2
_geom_bond_site_symmetry_1
_geom_bond_site_symmetry_2
Cd1 O6 1_555 1_555
Cd2 O2 1_555 1_555
Cd3 O1 1_555 1_555
C1 C6 1_555 1_555
C2 C6 1_555 1_555
C3 H1 1_555 1_555
C4 C3 1_555 1_555
H2 C4 1_555 1_555
C5 C4 1_555 1_555
H3 C5 1_555 1_555
C6 C5 1_555 1_555
C7 H4 1_555 1_555
H5 C7 1_555 1_555
C8 C7 1_555 1_555
C9 C8 1_555 1_555
H6 C9 1_555 1_555
C10 C9 1_555 1_555
H7 C10 1_555 1_555
C11 C10 1_555 1_555
C12 C11 1_555 1_555
H8 C12 1_555 1_555
C13 C8 1_555 1_555
H9 C13 1_555 1_555
C14 C11 1_555 1_555
C15 C14 1_555 1_555
H10 C15 1_555 1_555
C16 C15 1_555 1_555
H11 C16 1_555 1_555
C17 C16 1_555 1_555
H12 C17 1_555 1_555
C18 C17 1_555 1_555
H13 C18 1_555 1_555
C19 C14 1_555 1_555
C20 C19 1_555 1_555
C21 C22 1_555 1_555
C22 C23 1_555 1_555
C23 H14 1_555 1_555
C24 C23 1_555 1_555
H15 C24 1_555 1_555
C25 C24 1_555 1_555
H16 C25 1_555 1_555
C26 C22 1_555 1_555
C27 H17 1_555 1_555
H18 C27 1_555 1_555
C28 C27 1_555 1_555
C29 C28 1_555 1_555
H19 C29 1_555 1_555
C30 C29 1_555 1_555
H20 C30 1_555 1_555
C31 C30 1_555 1_555
C32 C31 1_555 1_555
H21 C32 1_555 1_555
C33 C28 1_555 1_555
H22 C33 1_555 1_555
C34 C31 1_555 1_555
C35 C34 1_555 1_555
C36 C35 1_555 1_555
H23 C36 1_555 1_555
C37 C36 1_555 1_555
H24 C37 1_555 1_555
C38 C37 1_555 1_555
H25 C38 1_555 1_555
C39 C34 1_555 1_555
H26 C39 1_555 1_555
C40 C35 1_555 1_555
C41 C42 1_555 1_555
C42 C43 1_555 1_555
C43 H27 1_555 1_555
C44 C43 1_555 1_555
H28 C44 1_555 1_555
C45 C44 1_555 1_555
H29 C45 1_555 1_555
C46 C42 1_555 1_555
C47 H30 1_555 1_555
H31 C47 1_555 1_555
C48 C47 1_555 1_555
C49 C48 1_555 1_555
H32 C49 1_555 1_555
C50 C49 1_555 1_555
H33 C50 1_555 1_555
C51 C50 1_555 1_555
C52 C51 1_555 1_555
H34 C52 1_555 1_555
C53 C48 1_555 1_555
H35 C53 1_555 1_555
C54 C51 1_555 1_555
C55 C54 1_555 1_555
C56 C55 1_555 1_555
H36 C56 1_555 1_555
C57 C56 1_555 1_555
H37 C57 1_555 1_555
C58 C57 1_555 1_555
H38 C58 1_555 1_555
C59 C54 1_555 1_555
H39 C59 1_555 1_555
C60 C55 1_555 1_555
N1 C2 1_555 1_555
N2 C25 1_555 1_555
N3 C45 1_555 1_555
O1 C1 1_555 1_555
O2 Cd3 1_555 1_555
O3 Cd3 1_555 1_555
O4 Cd2 1_555 1_555
O6 C20 1_555 1_555
O7 Cd1 1_555 1_555
O8 C21 1_555 1_555
O9 Cd1 1_555 1_555
O10 Cd1 1_555 1_555
O11 C40 1_555 1_555
O12 C40 1_555 1_555
O13 C41 1_555 1_555
O14 Cd1 1_555 1_555
O15 Cd1 1_555 1_555
O16 C60 1_555 1_555
O17 C60 1_555 1_555
H40 O3 1_555 1_555
H41 O3 1_555 1_555
Cd2_2 O11 1_555 1_555
Cd2A O13 1_555 1_555
Cd3A O8 1_555 1_555
Cd3A_2 O16 1_555 1_555
O8A Cd3 1_555 1_555
O9A Cd3 1_555 1_555
O11_2 Cd2 1_555 1_555
O12_2 Cd2 1_555 1_555
O13A Cd2 1_555 1_555
O14A Cd2 1_555 1_555
O16A Cd3 1_555 1_555
O17A Cd3 1_555 1_555
C1 O2 1_555 1_555
C2 O4 1_555 1_555
C3 N1 1_555 1_555
C7 N1 1_555 1_555
C12 C13 1_555 1_555
C18 C19 1_555 1_555
C20 O7 1_555 1_555
C21 O9 1_555 1_555
C26 N2 1_555 1_555
C26 O10 1_555 1_555
C27 N2 1_555 1_555
C32 C33 1_555 1_555
C38 C39 1_555 1_555
C41 O14 1_555 1_555
C46 N3 1_555 1_555
C46 O15 1_555 1_555
C47 N3 1_555 1_555
C52 C53 1_555 1_555
C58 C59 1_555 1_555
O9 Cd3A 1_555 1_555
O12 Cd2_2 1_555 1_555
O14 Cd2A 1_555 1_555
O17 Cd3A_2 1_555 1_555

#END
