
#######################################################################
#
#                 Cambridge Crystallographic Data Centre
#                                CCDC 
#
#######################################################################
#
# If this CIF has been generated from an entry in the Cambridge 
# Structural Database, then it will include bibliographic, chemical, 
# crystal, experimental, refinement or atomic coordinate data resulting 
# from the CCDC's data processing and validation procedures.
#
#######################################################################

data_NERCES01
_symmetry_cell_setting           orthorhombic
_symmetry_space_group_name_H-M   'F d d d'
_symmetry_Int_Tables_number      70
_space_group_name_Hall           '-F 2uv 2vw'
loop_
_symmetry_equiv_pos_site_id
_symmetry_equiv_pos_as_xyz
1 x,y,z
2 x,1/2+y,1/2+z
3 x,1/4-y,1/4-z
4 1/2+x,y,1/2+z
5 1/4-x,y,1/4-z
6 1/2+x,1/2+y,z
7 1/4-x,1/4-y,z
8 3/4-x,3/4-y,z
9 3/4-x,y,3/4-z
10 x,3/4-y,3/4-z
11 3/4-x,1/4-y,1/2+z
12 3/4-x,1/2+y,1/4-z
13 1/4-x,3/4-y,1/2+z
14 1/2+x,3/4-y,1/4-z
15 1/4-x,1/2+y,3/4-z
16 1/2+x,1/4-y,3/4-z
17 -x,-y,-z
18 -x,1/2-y,1/2-z
19 -x,3/4+y,3/4+z
20 1/2-x,-y,1/2-z
21 3/4+x,-y,3/4+z
22 1/2-x,1/2-y,-z
23 3/4+x,3/4+y,-z
24 1/4+x,1/4+y,-z
25 1/4+x,-y,1/4+z
26 -x,1/4+y,1/4+z
27 1/4+x,3/4+y,1/2-z
28 1/4+x,1/2-y,3/4+z
29 3/4+x,1/4+y,1/2-z
30 1/2-x,1/4+y,3/4+z
31 3/4+x,1/2-y,1/4+z
32 1/2-x,3/4+y,1/4+z
_cell_length_a                   15.9145(14)
_cell_length_b                   17.3638(14)
_cell_length_c                   27.620(3)
_cell_angle_alpha                90
_cell_angle_beta                 90
_cell_angle_gamma                90
_cell_volume                     7632.41
loop_
_atom_site_label
_atom_site_type_symbol
_atom_site_fract_x
_atom_site_fract_y
_atom_site_fract_z
C1 C 0.5794(2) 0.63949(18) 0.30788(11)
H1 H 0.5792 0.6957 0.3110
C2 C 0.5333(2) 0.6168(2) 0.26148(12)
H2 H 0.5263 0.5613 0.2607
H3 H 0.4779 0.6400 0.2614
C3 C 0.5811(2) 0.6425(2) 0.21637(12)
H4 H 0.5510 0.6262 0.1876
H5 H 0.5852 0.6982 0.2159
Cl1 Cl 0.59350(6) 0.40628(5) 0.30643(3)
Co1 Co 0.52357(4) 0.3750 0.3750
O1 O 0.47362(14) 0.47664(13) 0.38712(8)
N1 N 0.53463(17) 0.60572(15) 0.34925(9)
H6 H 0.5251 0.5571 0.3472
C4 C 0.4507(2) 0.51774(18) 0.42362(11)
C5 C 0.4648(2) 0.59649(19) 0.42521(12)
H7 H 0.4451 0.6232 0.4521
C6 C 0.5069(2) 0.63900(19) 0.38913(12)
C7 C 0.4070(2) 0.4785(2) 0.46501(12)
H8 H 0.4027 0.4324 0.4592
H9 H 0.3520 0.5003 0.4691
H10 H 0.4389 0.4856 0.4941
C8 C 0.5216(3) 0.7239(2) 0.39674(16)
H11 H 0.5509 0.7447 0.3693
H12 H 0.5548 0.7314 0.4254
H13 H 0.4686 0.7497 0.4004
C1F C 0.6706(2) 0.61051(18) 0.30788(11)
H1F H 0.6708 0.5543 0.3110
C2F C 0.7167(2) 0.6332(2) 0.26148(12)
H2F H 0.7237 0.6887 0.2607
H3F H 0.7721 0.6100 0.2614
C3F C 0.6689(2) 0.6075(2) 0.21637(12)
H4F H 0.6990 0.6238 0.1876
H5F H 0.6648 0.5518 0.2159
Cl1I Cl 0.59350(6) 0.34372(5) 0.44357(3)
Co1F Co 0.72643(4) 0.8750 0.3750
O1F O 0.77638(14) 0.77336(13) 0.38712(8)
O1I O 0.47362(14) 0.27336(13) 0.36288(8)
N1F N 0.71537(17) 0.64428(15) 0.34925(9)
H6F H 0.7249 0.6929 0.3472
C4F C 0.7993(2) 0.73226(18) 0.42362(11)
C5F C 0.7852(2) 0.65351(19) 0.42521(12)
H7F H 0.8049 0.6268 0.4521
C6F C 0.7431(2) 0.61100(19) 0.38913(12)
C7F C 0.8430(2) 0.7715(2) 0.46501(12)
H8F H 0.8473 0.8176 0.4592
H9F H 0.8980 0.7497 0.4691
H10F H 0.8111 0.7644 0.4941
C8F C 0.7284(3) 0.5261(2) 0.39674(16)
H11F H 0.6991 0.5053 0.3693
H12F H 0.6952 0.5186 0.4254
H13F H 0.7814 0.5003 0.4004
loop_
_geom_bond_atom_site_label_1
_geom_bond_atom_site_label_2
_geom_bond_site_symmetry_1
_geom_bond_site_symmetry_2
C1 H1 1_555 1_555
C2 C1 1_555 1_555
H2 C2 1_555 1_555
H3 C2 1_555 1_555
C3 C2 1_555 1_555
H4 C3 1_555 1_555
H5 C3 1_555 1_555
Cl1 Co1 1_555 1_555
Co1 O1 1_555 1_555
O1 C4 1_555 1_555
N1 C1 1_555 1_555
H6 N1 1_555 1_555
C4 C5 1_555 1_555
C5 H7 1_555 1_555
C6 N1 1_555 1_555
C7 C4 1_555 1_555
H8 C7 1_555 1_555
H9 C7 1_555 1_555
H10 C7 1_555 1_555
C8 C6 1_555 1_555
H11 C8 1_555 1_555
H12 C8 1_555 1_555
H13 C8 1_555 1_555
C1F C1 1_555 1_555
H1F C1F 1_555 1_555
C2F C1F 1_555 1_555
H2F C2F 1_555 1_555
H3F C2F 1_555 1_555
C3F C3 1_555 1_555
H4F C3F 1_555 1_555
H5F C3F 1_555 1_555
Cl1I Co1 1_555 1_555
Co1F O1F 1_555 1_555
O1F C4F 1_555 1_555
O1I Co1 1_555 1_555
N1F C1F 1_555 1_555
H6F N1F 1_555 1_555
C4F C5F 1_555 1_555
C5F H7F 1_555 1_555
C6F N1F 1_555 1_555
C7F C4F 1_555 1_555
H8F C7F 1_555 1_555
H9F C7F 1_555 1_555
H10F C7F 1_555 1_555
C8F C6F 1_555 1_555
H11F C8F 1_555 1_555
H12F C8F 1_555 1_555
H13F C8F 1_555 1_555
C5 C6 1_555 1_555
C2F C3F 1_555 1_555
C5F C6F 1_555 1_555

#END
