
#######################################################################
#
#                 Cambridge Crystallographic Data Centre
#                                CCDC 
#
#######################################################################
#
# If this CIF has been generated from an entry in the Cambridge 
# Structural Database, then it will include bibliographic, chemical, 
# crystal, experimental, refinement or atomic coordinate data resulting 
# from the CCDC's data processing and validation procedures.
#
#######################################################################

data_NERCIY
_symmetry_cell_setting           monoclinic
_symmetry_space_group_name_H-M   'P 21/c'
_symmetry_Int_Tables_number      14
_space_group_name_Hall           '-P 2ybc'
loop_
_symmetry_equiv_pos_site_id
_symmetry_equiv_pos_as_xyz
1 x,y,z
2 -x,1/2+y,1/2-z
3 -x,-y,-z
4 x,1/2-y,1/2+z
_cell_length_a                   10.995(4)
_cell_length_b                   17.520(7)
_cell_length_c                   13.590(5)
_cell_angle_alpha                90
_cell_angle_beta                 100.308(6)
_cell_angle_gamma                90
_cell_volume                     2575.62
loop_
_atom_site_label
_atom_site_type_symbol
_atom_site_fract_x
_atom_site_fract_y
_atom_site_fract_z
La1 La 0.656538(17) 0.237397(11) 0.093106(13)
La2 La 1.172860(17) 0.459020(11) 0.094140(13)
N1 N 1.1246(3) 0.37786(16) 0.2472(2)
N2 N 0.2129(3) 0.37769(16) -0.0650(2)
N3 N 0.6423(3) 0.36975(16) 0.1826(2)
O1 O 1.3535(3) 0.46371(16) 0.4274(2)
O2 O 1.2925(2) 0.48681(15) 0.26533(18)
O3 O 1.0152(2) 0.34920(14) 0.06172(18)
O4 O 0.8691(3) 0.28140(18) 0.1126(2)
O5 O -0.0080(3) 0.46953(18) -0.2450(2)
O6 O 0.0510(2) 0.48917(14) -0.08263(17)
O7 O 0.3243(2) 0.34962(15) 0.12035(18)
O8 O 0.4368(2) 0.25678(15) 0.0713(2)
O9 O 0.6515(2) 0.48472(13) -0.02580(17)
O10 O 0.6273(3) 0.35925(14) -0.01203(17)
O11 O 0.6725(3) 0.23900(14) 0.28010(18)
O12 O 0.6755(3) 0.29704(17) 0.42584(18)
O13 O 1.1630(2) 0.60858(15) 0.10471(18)
H1 H 1.1086 0.6269 0.0584
H2 H 1.2294 0.6336 0.1055
O14 O 0.7953(3) 0.12756(18) 0.1595(3)
H3 H 0.8739 0.1291 0.1708
H4 H 0.7733 0.0934 0.1970
O15 O 0.5406(2) 0.10834(14) 0.06915(19)
H5 H 0.4695 0.1035 0.0329
H6 H 0.5746 0.0646 0.0746
C1 C 1.2868(3) 0.4517(2) 0.3452(3)
C2 C 1.1862(3) 0.3923(2) 0.3393(2)
C3 C 1.1551(4) 0.3571(2) 0.4225(3)
H7 H 1.2000 0.3671 0.4860
C4 C 1.0570(4) 0.3073(3) 0.4102(3)
H8 H 1.0339 0.2837 0.4654
C5 C 0.9933(4) 0.2925(2) 0.3154(3)
H9 H 0.9273 0.2586 0.3051
C6 C 1.0304(3) 0.3297(2) 0.2351(3)
C7 C 0.9661(3) 0.3191(2) 0.1288(3)
C8 C 0.0598(3) 0.4554(2) -0.1645(3)
C9 C 0.1554(3) 0.3942(2) -0.1578(3)
C10 C 0.1833(4) 0.3574(2) -0.2413(3)
H10 H 0.1401 0.3687 -0.3049
C11 C 0.2760(4) 0.3037(2) -0.2280(3)
H11 H 0.2979 0.2790 -0.2828
C12 C 0.3359(4) 0.2871(2) -0.1329(3)
H12 H 0.3988 0.2509 -0.1225
C13 C 0.3012(3) 0.3248(2) -0.0524(3)
C14 C 0.3592(3) 0.3100(2) 0.0550(3)
C15 C 0.6341(3) 0.4257(2) 0.0215(2)
C16 C 0.6241(3) 0.4346(2) 0.1305(2)
C17 C 0.6008(3) 0.5028(2) 0.1728(3)
H13 H 0.5871 0.5469 0.1344
C18 C 0.5980(4) 0.5044(2) 0.2743(3)
H14 H 0.5812 0.5497 0.3049
C19 C 0.6203(4) 0.4389(2) 0.3290(3)
H15 H 0.6209 0.4392 0.3975
C20 C 0.6418(3) 0.3722(2) 0.2808(2)
C21 C 0.6642(4) 0.2963(2) 0.3323(2)
La1C La 0.656538(17) 0.262603(11) 0.593106(13)
La2_2 La 0.172860(17) 0.459020(11) 0.094140(13)
La2B La -0.172860(17) 0.540980(11) -0.094140(13)
La2B_2 La 0.827140(17) 0.540980(11) -0.094140(13)
N2_2 N 1.2129(3) 0.37769(16) -0.0650(2)
O6_2 O 1.0510(2) 0.48917(14) -0.08263(17)
O6B O 0.9490(2) 0.51083(14) 0.08263(17)
O7_2 O 1.3243(2) 0.34962(15) 0.12035(18)
O9B O 1.3485(2) 0.51528(13) 0.02580(17)
O12C O 0.6755(3) 0.20296(17) -0.07416(18)
O16 O -0.0307(15) 0.4404(9) 0.5587(11)
H16 H 0.0538 0.4818 0.5540
H17 H -0.0820 0.4495 0.4910
loop_
_geom_bond_atom_site_label_1
_geom_bond_atom_site_label_2
_geom_bond_site_symmetry_1
_geom_bond_site_symmetry_2
La1 N3 1_555 1_555
La2 N1 1_555 1_555
N1 C2 1_555 1_555
N2 C9 1_555 1_555
N3 C16 1_555 1_555
O1 C1 1_555 1_555
O2 La2 1_555 1_555
O3 La2 1_555 1_555
O4 La1 1_555 1_555
O5 C8 1_555 1_555
O6 C8 1_555 1_555
O7 C14 1_555 1_555
O8 La1 1_555 1_555
O9 C15 1_555 1_555
O10 La1 1_555 1_555
O11 La1 1_555 1_555
O12 C21 1_555 1_555
O13 La2 1_555 1_555
H1 O13 1_555 1_555
H2 O13 1_555 1_555
O14 La1 1_555 1_555
H3 O14 1_555 1_555
H4 O14 1_555 1_555
O15 La1 1_555 1_555
H5 O15 1_555 1_555
H6 O15 1_555 1_555
C1 O2 1_555 1_555
C2 C1 1_555 1_555
C3 C2 1_555 1_555
H7 C3 1_555 1_555
C4 C3 1_555 1_555
H8 C4 1_555 1_555
C5 C4 1_555 1_555
H9 C5 1_555 1_555
C6 N1 1_555 1_555
C7 O3 1_555 1_555
C8 C9 1_555 1_555
C9 C10 1_555 1_555
C10 H10 1_555 1_555
C11 C10 1_555 1_555
H11 C11 1_555 1_555
C12 C11 1_555 1_555
H12 C12 1_555 1_555
C13 N2 1_555 1_555
C14 O8 1_555 1_555
C15 O10 1_555 1_555
C16 C15 1_555 1_555
C17 C16 1_555 1_555
H13 C17 1_555 1_555
C18 C17 1_555 1_555
H14 C18 1_555 1_555
C19 C18 1_555 1_555
H15 C19 1_555 1_555
C20 N3 1_555 1_555
C21 O11 1_555 1_555
O16 H16 1_555 1_555
H17 O16 1_555 1_555
La1C O12 1_555 1_555
La2_2 N2 1_555 1_555
La2B O6 1_555 1_555
La2B_2 O9 1_555 1_555
N2_2 La2 1_555 1_555
O6_2 La2 1_555 1_555
O6B La2 1_555 1_555
O7_2 La2 1_555 1_555
O9B La2 1_555 1_555
O12C La1 1_555 1_555
O4 C7 1_555 1_555
O6 La2_2 1_555 1_555
O7 La2_2 1_555 1_555
C5 C6 1_555 1_555
C6 C7 1_555 1_555
C12 C13 1_555 1_555
C13 C14 1_555 1_555
C19 C20 1_555 1_555
C20 C21 1_555 1_555
La2B_2 O6_2 1_555 1_555
La2B_2 O6B 1_555 1_555

#END
