
#######################################################################
#
#                 Cambridge Crystallographic Data Centre
#                                CCDC 
#
#######################################################################
#
# If this CIF has been generated from an entry in the Cambridge 
# Structural Database, then it will include bibliographic, chemical, 
# crystal, experimental, refinement or atomic coordinate data resulting 
# from the CCDC's data processing and validation procedures.
#
#######################################################################

data_NERCES
_symmetry_cell_setting           monoclinic
_symmetry_space_group_name_H-M   'C 2/c'
_symmetry_Int_Tables_number      15
_space_group_name_Hall           '-C 2yn'
loop_
_symmetry_equiv_pos_site_id
_symmetry_equiv_pos_as_xyz
1 x,y,z
2 1/2+x,1/2+y,z
3 -x,y,1/2-z
4 1/2-x,1/2+y,1/2-z
5 -x,-y,-z
6 1/2-x,1/2-y,-z
7 x,-y,1/2+z
8 1/2+x,1/2-y,1/2+z
_cell_length_a                   15.8275(19)
_cell_length_b                   17.263(2)
_cell_length_c                   15.865(2)
_cell_angle_alpha                90
_cell_angle_beta                 119.856(2)
_cell_angle_gamma                90
_cell_volume                     3759.48
loop_
_atom_site_label
_atom_site_type_symbol
_atom_site_fract_x
_atom_site_fract_y
_atom_site_fract_z
Co1 Co 0.14775(4) -0.37496(3) 0.25002(4)
Cl1 Cl 0.28685(7) -0.40654(6) 0.38706(8)
Cl2 Cl 0.14973(8) -0.34348(6) 0.11292(8)
O1 O 0.1096(2) -0.27347(16) 0.2746(2)
C1 C 0.1222(3) -0.2719(2) 0.4306(3)
H1 H 0.0571 -0.2930 0.4088
H2 H 0.1388 -0.2347 0.4833
H3 H 0.1700 -0.3141 0.4542
C2 C 0.1234(3) -0.2318(2) 0.3475(3)
C3 C 0.1404(3) -0.1532(2) 0.3514(3)
H4 H 0.1486 -0.1259 0.4069
C4 C 0.1464(3) -0.1105(2) 0.2792(3)
C5 C 0.1696(4) -0.0257(3) 0.2947(4)
H5 H 0.2338 -0.0164 0.3015
H6 H 0.1699 -0.0088 0.3538
H7 H 0.1202 0.0034 0.2388
N1 N 0.1329(3) -0.1445(2) 0.1985(3)
H8 H 0.124(4) -0.194(3) 0.198(4)
C6 C 0.1370(3) -0.1101(2) 0.1161(3)
H9 H 0.1402 -0.0525 0.1228
C7 C 0.0445(3) -0.1328(3) 0.0228(3)
H10 H 0.0363 -0.1897 0.0211
H11 H -0.0125 -0.1088 0.0225
C8 C 0.0476(3) -0.1071(2) -0.0671(3)
H12 H -0.0129 -0.1235 -0.1261
H13 H 0.0519 -0.0499 -0.0679
C9 C 0.1345(3) -0.1425(2) -0.0673(3)
H14 H 0.1358 -0.1262 -0.1264
H15 H 0.1294 -0.1997 -0.0682
C10 C 0.2285(3) -0.1170(3) 0.0229(3)
H16 H 0.2848 -0.1415 0.0225
H17 H 0.2355 -0.0601 0.0212
C11 C 0.2286(3) -0.1394(2) 0.1161(3)
H18 H 0.2317 -0.1971 0.1226
N2 N 0.3155(2) -0.1057(2) 0.1984(3)
H19 H 0.321(4) -0.056(3) 0.199(4)
C12 C 0.3750(4) -0.2245(3) 0.2947(4)
H20 H 0.3159 -0.2340 0.2984
H21 H 0.4322 -0.2409 0.3555
H22 H 0.3718 -0.2540 0.2404
C13 C 0.3828(3) -0.1399(2) 0.2789(3)
C14 C 0.4611(3) -0.0969(2) 0.3517(3)
H23 H 0.5083 -0.1241 0.4074
C15 C 0.4741(3) -0.0182(2) 0.3477(3)
C16 C 0.5586(3) 0.0217(2) 0.4311(3)
H24 H 0.6022 0.0426 0.4094
H25 H 0.5943 -0.0154 0.4838
H26 H 0.5346 0.0642 0.4545
O2 O 0.4149(2) 0.02341(16) 0.2743(2)
O2C O 0.0851(2) -0.47659(16) 0.2257(2)
Co1C Co 0.35225(4) 0.12504(3) 0.24998(4)
loop_
_geom_bond_atom_site_label_1
_geom_bond_atom_site_label_2
_geom_bond_site_symmetry_1
_geom_bond_site_symmetry_2
Co1 Cl1 1_555 1_555
Cl2 Co1 1_555 1_555
O1 Co1 1_555 1_555
C1 H1 1_555 1_555
H2 C1 1_555 1_555
H3 C1 1_555 1_555
C2 O1 1_555 1_555
C3 C2 1_555 1_555
H4 C3 1_555 1_555
C4 C3 1_555 1_555
C5 C4 1_555 1_555
H5 C5 1_555 1_555
H6 C5 1_555 1_555
H7 C5 1_555 1_555
N1 C4 1_555 1_555
H8 N1 1_555 1_555
C6 N1 1_555 1_555
H9 C6 1_555 1_555
C7 C6 1_555 1_555
H10 C7 1_555 1_555
H11 C7 1_555 1_555
C8 C7 1_555 1_555
H12 C8 1_555 1_555
H13 C8 1_555 1_555
C9 C8 1_555 1_555
H14 C9 1_555 1_555
H15 C9 1_555 1_555
C10 C9 1_555 1_555
H16 C10 1_555 1_555
H17 C10 1_555 1_555
C11 C6 1_555 1_555
H18 C11 1_555 1_555
N2 C11 1_555 1_555
H19 N2 1_555 1_555
C12 H20 1_555 1_555
H21 C12 1_555 1_555
H22 C12 1_555 1_555
C13 N2 1_555 1_555
C14 C13 1_555 1_555
H23 C14 1_555 1_555
C15 C14 1_555 1_555
C16 C15 1_555 1_555
H24 C16 1_555 1_555
H25 C16 1_555 1_555
H26 C16 1_555 1_555
O2 C15 1_555 1_555
O2C Co1 1_555 1_555
Co1C O2 1_555 1_555
C1 C2 1_555 1_555
C10 C11 1_555 1_555
C12 C13 1_555 1_555

#END
