
#######################################################################
#
#                 Cambridge Crystallographic Data Centre
#                                CCDC 
#
#######################################################################
#
# If this CIF has been generated from an entry in the Cambridge 
# Structural Database, then it will include bibliographic, chemical, 
# crystal, experimental, refinement or atomic coordinate data resulting 
# from the CCDC's data processing and validation procedures.
#
#######################################################################

data_NERDAR
_symmetry_cell_setting           monoclinic
_symmetry_space_group_name_H-M   'P 21/c'
_symmetry_Int_Tables_number      14
_space_group_name_Hall           '-P 2ybc'
loop_
_symmetry_equiv_pos_site_id
_symmetry_equiv_pos_as_xyz
1 x,y,z
2 -x,1/2+y,1/2-z
3 -x,-y,-z
4 x,1/2-y,1/2+z
_cell_length_a                   10.9503(5)
_cell_length_b                   17.4717(8)
_cell_length_c                   13.2878(6)
_cell_angle_alpha                90
_cell_angle_beta                 101.526(1)
_cell_angle_gamma                90
_cell_volume                     2490.96
loop_
_atom_site_label
_atom_site_type_symbol
_atom_site_fract_x
_atom_site_fract_y
_atom_site_fract_z
Sm1 Sm 0.671616(12) 0.042971(8) 0.089063(10)
Sm2 Sm 0.157710(12) 0.256250(8) 0.094480(10)
N1 N 0.6269(2) 0.11940(13) 0.24187(17)
N2 N -0.2894(2) 0.12023(13) -0.06766(18)
N3 N 0.1447(2) 0.12927(13) 0.18464(17)
O1 O 0.8599(2) 0.02974(14) 0.42438(16)
O2 O 0.79412(18) 0.01092(12) 0.25611(15)
O3 O 0.51572(17) 0.14969(11) 0.05228(14)
O4 O 0.3624(2) 0.21220(14) 0.10359(17)
O5 O -0.5067(2) 0.02520(15) -0.25687(17)
O6 O -0.45496(17) 0.00898(11) -0.08722(14)
O7 O -0.17621(18) 0.14741(12) 0.12211(15)
O8 O -0.05578(19) 0.23740(12) 0.07416(17)
O9 O 0.1718(2) 0.20666(13) 0.43055(15)
O10 O 0.1740(2) 0.26138(11) 0.27956(15)
O11 O 0.12881(19) 0.13826(11) -0.01450(14)
O12 O 0.15534(17) 0.01188(11) -0.02609(14)
O13 O 0.66818(18) -0.10115(12) 0.11006(15)
H1 H 0.6098 -0.1231 0.0682
H2 H 0.7351 -0.1256 0.1095
O14 O 0.04320(18) 0.38165(12) 0.07488(16)
H3 H -0.0314 0.3874 0.0423
H4 H 0.0774 0.4255 0.0813
O15 O 0.2983(2) 0.36134(13) 0.16234(19)
H5 H 0.3022 0.3855 0.2184
H6 H 0.3513 0.3811 0.1313
C1 C 0.7913(3) 0.04426(17) 0.3397(2)
C2 C 0.6920(3) 0.10455(17) 0.3360(2)
C3 C 0.6638(3) 0.13917(19) 0.4223(2)
H7 H 0.7108 0.1287 0.4871
C4 C 0.5648(3) 0.1895(2) 0.4106(3)
H8 H 0.5441 0.2131 0.4676
C5 C 0.4962(3) 0.20463(19) 0.3127(2)
H9 H 0.4289 0.2382 0.3029
C6 C 0.5313(3) 0.16807(16) 0.2303(2)
C7 C 0.4643(3) 0.17747(16) 0.1203(2)
C8 C -0.4438(3) 0.04146(17) -0.1722(2)
C9 C -0.3485(3) 0.10394(17) -0.1635(2)
C10 C -0.3217(3) 0.14071(19) -0.2492(2)
H10 H -0.3660 0.1293 -0.3147
C11 C -0.2279(3) 0.1945(2) -0.2347(3)
H11 H -0.2069 0.2194 -0.2907
C12 C -0.1655(3) 0.21116(18) -0.1364(3)
H12 H -0.1017 0.2472 -0.1251
C13 C -0.1998(3) 0.17305(16) -0.0549(2)
C14 C -0.1386(2) 0.18591(16) 0.0564(2)
C15 C 0.1646(3) 0.20494(18) 0.3357(2)
C16 C 0.1438(3) 0.12812(17) 0.2853(2)
C17 C 0.1228(3) 0.06191(18) 0.3358(2)
H13 H 0.1241 0.0624 0.4060
C18 C 0.0998(3) -0.00495(19) 0.2804(2)
H14 H 0.0830 -0.0500 0.3123
C19 C 0.1019(3) -0.00433(17) 0.1763(2)
H15 H 0.0869 -0.0488 0.1373
C20 C 0.1266(3) 0.06342(16) 0.1322(2)
C21 C 0.1363(2) 0.07151(16) 0.0212(2)
Sm1B Sm 0.328384(12) -0.042971(8) -0.089063(10)
Sm1B_2 Sm -0.671616(12) -0.042971(8) -0.089063(10)
Sm1_2 Sm -0.328384(12) 0.042971(8) 0.089063(10)
Sm2C Sm 0.157710(12) 0.243750(8) 0.594480(10)
N2_2 N 0.7106(2) 0.12023(13) -0.06766(18)
O6_2 O 0.54504(17) 0.00898(11) -0.08722(14)
O6B O 0.45496(17) -0.00898(11) 0.08722(14)
O7_2 O 0.82379(18) 0.14741(12) 0.12211(15)
O9C O 0.1718(2) 0.29334(13) -0.06945(15)
O12B O 0.84466(17) -0.01188(11) 0.02609(14)
O16 O 0.4274(9) 0.0575(5) 0.5306(7)
H16 H 0.4972 0.0351 0.5495
H17 H 0.3962 0.0421 0.4702
loop_
_geom_bond_atom_site_label_1
_geom_bond_atom_site_label_2
_geom_bond_site_symmetry_1
_geom_bond_site_symmetry_2
Sm1 N1 1_555 1_555
Sm2 N3 1_555 1_555
N1 C2 1_555 1_555
N2 C9 1_555 1_555
N3 C16 1_555 1_555
O1 C1 1_555 1_555
O2 Sm1 1_555 1_555
O3 Sm1 1_555 1_555
O4 Sm2 1_555 1_555
O5 C8 1_555 1_555
O6 C8 1_555 1_555
O7 C14 1_555 1_555
O8 Sm2 1_555 1_555
O9 C15 1_555 1_555
O10 Sm2 1_555 1_555
O11 Sm2 1_555 1_555
O12 C21 1_555 1_555
O13 Sm1 1_555 1_555
H1 O13 1_555 1_555
H2 O13 1_555 1_555
O14 Sm2 1_555 1_555
H3 O14 1_555 1_555
H4 O14 1_555 1_555
O15 Sm2 1_555 1_555
H5 O15 1_555 1_555
H6 O15 1_555 1_555
C1 O2 1_555 1_555
C2 C1 1_555 1_555
C3 C2 1_555 1_555
H7 C3 1_555 1_555
C4 C3 1_555 1_555
H8 C4 1_555 1_555
C5 C4 1_555 1_555
H9 C5 1_555 1_555
C6 N1 1_555 1_555
C7 O3 1_555 1_555
C8 C9 1_555 1_555
C9 C10 1_555 1_555
C10 H10 1_555 1_555
C11 C10 1_555 1_555
H11 C11 1_555 1_555
C12 C11 1_555 1_555
H12 C12 1_555 1_555
C13 N2 1_555 1_555
C14 O8 1_555 1_555
C15 O10 1_555 1_555
C16 C15 1_555 1_555
C17 C16 1_555 1_555
H13 C17 1_555 1_555
C18 C17 1_555 1_555
H14 C18 1_555 1_555
C19 C18 1_555 1_555
H15 C19 1_555 1_555
C20 N3 1_555 1_555
C21 O11 1_555 1_555
O16 H16 1_555 1_555
H17 O16 1_555 1_555
Sm1B O12 1_555 1_555
Sm1B_2 O6 1_555 1_555
Sm1_2 N2 1_555 1_555
Sm2C O9 1_555 1_555
N2_2 Sm1 1_555 1_555
O6_2 Sm1 1_555 1_555
O6B Sm1 1_555 1_555
O7_2 Sm1 1_555 1_555
O9C Sm2 1_555 1_555
O12B Sm1 1_555 1_555
O4 C7 1_555 1_555
O6 Sm1_2 1_555 1_555
O7 Sm1_2 1_555 1_555
C5 C6 1_555 1_555
C6 C7 1_555 1_555
C12 C13 1_555 1_555
C13 C14 1_555 1_555
C19 C20 1_555 1_555
C20 C21 1_555 1_555
Sm1B O6_2 1_555 1_555
Sm1B O6B 1_555 1_555

#END
