
#######################################################################
#
#                 Cambridge Crystallographic Data Centre
#                                CCDC 
#
#######################################################################
#
# If this CIF has been generated from an entry in the Cambridge 
# Structural Database, then it will include bibliographic, chemical, 
# crystal, experimental, refinement or atomic coordinate data resulting 
# from the CCDC's data processing and validation procedures.
#
#######################################################################

data_NERDIX
_symmetry_cell_setting           monoclinic
_symmetry_space_group_name_H-M   'P 21'
_symmetry_Int_Tables_number      4
_space_group_name_Hall           'P 2yb'
loop_
_symmetry_equiv_pos_site_id
_symmetry_equiv_pos_as_xyz
1 x,y,z
2 -x,1/2+y,-z
_cell_length_a                   10.2910(10)
_cell_length_b                   9.597(2)
_cell_length_c                   11.006(2)
_cell_angle_alpha                90
_cell_angle_beta                 107.590(10)
_cell_angle_gamma                90
_cell_volume                     1036.16
loop_
_atom_site_label
_atom_site_type_symbol
_atom_site_fract_x
_atom_site_fract_y
_atom_site_fract_z
Cu1 Cu 0.67747(4) 0.16041(4) 0.68401(4)
O1 O 0.5683(3) 0.0791(4) 0.7766(3)
O2 O 0.9792(3) 0.3887(4) 0.6359(4)
O3 O 0.7890(3) 0.2666(4) 0.6006(3)
N1 N 0.8062(3) 0.2367(4) 0.8380(3)
N2 N 1.0586(5) -0.0886(6) 0.6315(4)
H1 H 1.0872 -0.1237 0.5723
N3 N 0.6334(3) 0.0137(4) 0.5374(3)
N4 N 0.5051(4) -0.1639(5) 0.4010(4)
N5 N 0.4323(4) -0.0705(5) 0.5609(4)
H2 H 0.3619 -0.1237 0.5374
H3 H 0.4426 -0.0145 0.6241
C1 C 0.7911(4) 0.2414(5) 0.9494(4)
H4 H 0.8584 0.2857 1.0136
C2 C 0.6773(4) 0.1830(6) 0.9821(4)
C3 C 0.6726(5) 0.2026(6) 1.1097(4)
H5 H 0.7423 0.2513 1.1678
C4 C 0.5685(6) 0.1514(8) 1.1470(5)
H6 H 0.5641 0.1696 1.2287
C5 C 0.4682(6) 0.0717(7) 1.0635(5)
H7 H 0.399 0.0331 1.091
C6 C 0.4695(5) 0.0486(6) 0.9396(5)
H8 H 0.4004 -0.0037 0.8845
C7 C 0.5738(4) 0.1032(5) 0.8966(4)
C8 C 0.9298(4) 0.2920(5) 0.8173(4)
H9 H 0.9547 0.3794 0.8646
C9 C 1.0501(4) 0.1899(6) 0.8594(4)
H10 H 1.1323 0.2379 0.8573
H11 H 1.062 0.1628 0.947
C10 C 1.0347(4) 0.0607(6) 0.7798(4)
C11 C 1.0944(5) 0.0393(6) 0.6871(5)
H12 H 1.1515 0.1024 0.6644
C12 C 0.9704(6) -0.1510(6) 0.6852(5)
C13 C 0.9002(8) -0.2759(6) 0.6568(6)
H13 H 0.9139 -0.3354 0.5951
C14 C 0.8102(8) -0.3093(7) 0.7217(8)
H14 H 0.7609 -0.3919 0.7026
C15 C 0.7910(6) -0.2221(7) 0.8159(6)
H15 H 0.7294 -0.247 0.8589
C16 C 0.8620(5) -0.1003(6) 0.8458(5)
H16 H 0.8497 -0.044 0.9102
C17 C 0.9531(5) -0.0593(6) 0.7802(4)
C18 C 0.8991(4) 0.3211(5) 0.6741(4)
C19 C 0.7290(4) 0.0015(6) 0.4773(4)
H17 H 0.8068 0.0566 0.5046
C20 C 0.7169(4) -0.0883(6) 0.3778(5)
H18 H 0.7836 -0.0949 0.3369
C21 C 0.6013(5) -0.1680(6) 0.3419(5)
H19 H 0.5889 -0.228 0.273
C22 C 0.5251(4) -0.0748(6) 0.4994(5)
N4A N 0.4949(4) 0.3361(5) 0.5990(4)
Cu1A Cu 0.32253(4) -0.33959(4) 0.31599(4)
loop_
_geom_bond_atom_site_label_1
_geom_bond_atom_site_label_2
_geom_bond_site_symmetry_1
_geom_bond_site_symmetry_2
Cu1 O1 1_555 1_555
O1 C7 1_555 1_555
O2 C18 1_555 1_555
O3 Cu1 1_555 1_555
N1 Cu1 1_555 1_555
N2 H1 1_555 1_555
N3 Cu1 1_555 1_555
N4 C21 1_555 1_555
N5 H2 1_555 1_555
H3 N5 1_555 1_555
C1 N1 1_555 1_555
H4 C1 1_555 1_555
C2 C1 1_555 1_555
C3 C2 1_555 1_555
H5 C3 1_555 1_555
C4 C3 1_555 1_555
H6 C4 1_555 1_555
C5 C4 1_555 1_555
H7 C5 1_555 1_555
C6 C5 1_555 1_555
H8 C6 1_555 1_555
C7 C2 1_555 1_555
C8 N1 1_555 1_555
H9 C8 1_555 1_555
C9 C8 1_555 1_555
H10 C9 1_555 1_555
H11 C9 1_555 1_555
C10 C9 1_555 1_555
C11 N2 1_555 1_555
H12 C11 1_555 1_555
C12 N2 1_555 1_555
C13 C12 1_555 1_555
H13 C13 1_555 1_555
C14 C13 1_555 1_555
H14 C14 1_555 1_555
C15 C14 1_555 1_555
H15 C15 1_555 1_555
C16 C15 1_555 1_555
H16 C16 1_555 1_555
C17 C10 1_555 1_555
C18 O3 1_555 1_555
C19 N3 1_555 1_555
H17 C19 1_555 1_555
C20 C19 1_555 1_555
H18 C20 1_555 1_555
C21 C20 1_555 1_555
H19 C21 1_555 1_555
C22 N3 1_555 1_555
N4A Cu1 1_555 1_555
Cu1A N4 1_555 1_555
N4 C22 1_555 1_555
N5 C22 1_555 1_555
C6 C7 1_555 1_555
C8 C18 1_555 1_555
C10 C11 1_555 1_555
C12 C17 1_555 1_555
C16 C17 1_555 1_555

#END
