
#######################################################################
#
#                 Cambridge Crystallographic Data Centre
#                                CCDC 
#
#######################################################################
#
# If this CIF has been generated from an entry in the Cambridge 
# Structural Database, then it will include bibliographic, chemical, 
# crystal, experimental, refinement or atomic coordinate data resulting 
# from the CCDC's data processing and validation procedures.
#
#######################################################################

data_NERHOJ
_symmetry_cell_setting           monoclinic
_symmetry_space_group_name_H-M   'P 21/n'
_symmetry_Int_Tables_number      14
_space_group_name_Hall           '-P 2yn'
loop_
_symmetry_equiv_pos_site_id
_symmetry_equiv_pos_as_xyz
1 x,y,z
2 1/2-x,1/2+y,1/2-z
3 -x,-y,-z
4 1/2+x,1/2-y,1/2+z
_cell_length_a                   7.3059(18)
_cell_length_b                   19.905(5)
_cell_length_c                   11.479(3)
_cell_angle_alpha                90
_cell_angle_beta                 95.750(4)
_cell_angle_gamma                90
_cell_volume                     1660.92
loop_
_atom_site_label
_atom_site_type_symbol
_atom_site_fract_x
_atom_site_fract_y
_atom_site_fract_z
O1 O -0.4729(3) 0.15824(11) 0.9470(2)
O2 O -0.6680(4) 0.23756(12) 0.9819(2)
C1 C -0.5064(5) 0.21523(18) 0.9894(3)
N1 N -0.2444(4) 0.31596(14) 1.2278(3)
C2 C -0.3811(5) 0.28691(17) 1.1573(3)
H1 H -0.5005 0.2894 1.1784
C3 C -0.3512(5) 0.25328(16) 1.0539(3)
Co1 Co -0.77205(7) 0.14454(2) 0.90019(4)
S1 S -0.72291(19) 0.05371(7) 1.28395(10)
O3 O -0.0399(4) 0.16402(12) 0.9129(2)
N2 N -0.7566(4) 0.09728(15) 1.0747(3)
O4 O -0.2007(4) 0.24458(14) 0.8145(3)
N3 N -0.7723(4) 0.04226(14) 0.8597(3)
N4 N -0.7647(5) -0.06325(16) 0.9207(3)
H2 H -0.7592 -0.0970 0.9677
C4 C -0.1730(5) 0.25082(16) 1.0188(3)
C5 C -0.1359(5) 0.2177(2) 0.9056(4)
C6 C -0.7782(5) 0.00050(17) 0.7622(4)
C7 C -0.0337(6) 0.28234(19) 1.0902(4)
H3 H 0.0862 0.2826 1.0695
C8 C -0.7642(5) 0.00161(18) 0.9512(4)
C9 C -0.7513(5) 0.02803(19) 1.0698(4)
C10 C -0.7356(6) -0.0036(2) 1.1731(4)
H4 H -0.7322 -0.0500 1.1830
C11 C -0.7423(6) 0.1170(2) 1.1836(4)
H5 H -0.7426 0.1620 1.2048
C12 C -0.7756(6) -0.06612(19) 0.8004(4)
C13 C -0.7904(7) 0.0148(2) 0.6437(4)
H6 H -0.7957 0.0589 0.6166
C14 C -0.7924(7) -0.1047(2) 0.6058(4)
H7 H -0.7979 -0.1393 0.5511
C15 C -0.7826(7) -0.1196(2) 0.7226(4)
H8 H -0.7807 -0.1638 0.7488
C16 C -0.7943(7) -0.0385(2) 0.5678(4)
H9 H -0.7983 -0.0299 0.4879
C17 C -0.0746(6) 0.31300(19) 1.1912(3)
H10 H 0.0213 0.3332 1.2378
N1C N -0.7444(4) 0.18404(14) 0.7278(3)
Co1C Co -0.27205(7) 0.35546(2) 1.40019(4)
Co1_2 Co 0.22795(7) 0.14454(2) 0.90019(4)
O3_2 O -1.0399(4) 0.16402(12) 0.9129(2)
loop_
_geom_bond_atom_site_label_1
_geom_bond_atom_site_label_2
_geom_bond_site_symmetry_1
_geom_bond_site_symmetry_2
O1 C1 1_555 1_555
O2 C1 1_555 1_555
C1 C3 1_555 1_555
N1 C2 1_555 1_555
C2 H1 1_555 1_555
C3 C2 1_555 1_555
Co1 O1 1_555 1_555
S1 C10 1_555 1_555
O3 C5 1_555 1_555
N2 Co1 1_555 1_555
O4 C5 1_555 1_555
N3 Co1 1_555 1_555
N4 H2 1_555 1_555
C4 C3 1_555 1_555
C5 C4 1_555 1_555
C6 N3 1_555 1_555
C7 C4 1_555 1_555
H3 C7 1_555 1_555
C8 N3 1_555 1_555
C9 N2 1_555 1_555
C10 C9 1_555 1_555
H4 C10 1_555 1_555
C11 S1 1_555 1_555
H5 C11 1_555 1_555
C12 N4 1_555 1_555
C13 C6 1_555 1_555
H6 C13 1_555 1_555
C14 H7 1_555 1_555
C15 C12 1_555 1_555
H8 C15 1_555 1_555
C16 C13 1_555 1_555
H9 C16 1_555 1_555
C17 N1 1_555 1_555
H10 C17 1_555 1_555
N1C Co1 1_555 1_555
Co1C N1 1_555 1_555
Co1_2 O3 1_555 1_555
O3_2 Co1 1_555 1_555
O2 Co1 1_555 1_555
N2 C11 1_555 1_555
N4 C8 1_555 1_555
C6 C12 1_555 1_555
C7 C17 1_555 1_555
C8 C9 1_555 1_555
C14 C15 1_555 1_555
C14 C16 1_555 1_555

#END
