
#######################################################################
#
#                 Cambridge Crystallographic Data Centre
#                                CCDC 
#
#######################################################################
#
# If this CIF has been generated from an entry in the Cambridge 
# Structural Database, then it will include bibliographic, chemical, 
# crystal, experimental, refinement or atomic coordinate data resulting 
# from the CCDC's data processing and validation procedures.
#
#######################################################################

data_NERHID
_symmetry_cell_setting           monoclinic
_symmetry_space_group_name_H-M   'P 21/c'
_symmetry_Int_Tables_number      14
_space_group_name_Hall           '-P 2ybc'
loop_
_symmetry_equiv_pos_site_id
_symmetry_equiv_pos_as_xyz
1 x,y,z
2 -x,1/2+y,1/2-z
3 -x,-y,-z
4 x,1/2-y,1/2+z
_cell_length_a                   10.155(2)
_cell_length_b                   14.530(4)
_cell_length_c                   19.951(5)
_cell_angle_alpha                90
_cell_angle_beta                 94.931(4)
_cell_angle_gamma                90
_cell_volume                     2932.92
loop_
_atom_site_label
_atom_site_type_symbol
_atom_site_fract_x
_atom_site_fract_y
_atom_site_fract_z
Zn1 Zn 0.67387(4) 0.43164(3) 0.39990(2)
Zn2 Zn 0.68810(4) 0.17182(3) 0.39752(2)
N1 N 0.8928(3) 0.18067(19) 0.40699(14)
N2 N 1.0805(3) 0.1313(2) 0.46041(15)
H1 H 1.1346 0.1099 0.4921
N3 N 0.7421(3) 0.1447(2) 0.50765(15)
N4 N 0.7513(3) 0.3979(2) 0.50602(17)
N5 N 0.8769(3) 0.4287(2) 0.39693(15)
N6 N 1.0789(3) 0.3977(2) 0.44323(15)
H2 H 1.1405 0.3819 0.4733
O1 O 0.5020(3) 0.3780(2) 0.42699(16)
O2 O 0.5257(3) 0.2266(2) 0.43221(15)
O3 O 0.6490(3) 0.22599(17) 0.30456(13)
O4 O 0.6410(3) 0.37913(18) 0.30554(14)
O5 O 0.3953(2) 0.05549(16) 0.12152(14)
O6 O 0.2450(3) 0.13048(17) 0.05623(13)
O7 O 0.2168(2) 0.46684(17) 0.06497(13)
O8 O 0.3672(2) 0.54507(15) 0.12943(12)
S1 S 0.81183(12) 0.34027(8) 0.62503(6)
S2 S 0.77924(12) 0.08981(9) 0.62857(6)
C1 C 0.9924(4) 0.1883(2) 0.36328(19)
C2 C 0.9876(5) 0.2212(3) 0.2976(2)
H3 H 0.9095 0.2429 0.2753
C3 C 1.1054(5) 0.2200(3) 0.2668(2)
H4 H 1.1066 0.2413 0.2229
C4 C 1.2222(5) 0.1873(3) 0.3009(3)
H5 H 1.2991 0.1873 0.2788
C5 C 1.2279(4) 0.1552(3) 0.3656(3)
H6 H 1.3062 0.1334 0.3876
C6 C 1.1115(4) 0.1568(3) 0.3967(2)
C7 C 0.9513(3) 0.1460(2) 0.46370(17)
C8 C 0.8752(3) 0.1288(2) 0.52039(17)
C9 C 0.9129(4) 0.0980(3) 0.58301(19)
H7 H 0.9992 0.0834 0.5989
C10 C 0.6815(4) 0.1277(3) 0.5602(2)
H8 H 0.5908 0.1355 0.5610
C11 C 0.9677(4) 0.4442(2) 0.34839(18)
C12 C 0.9484(4) 0.4762(3) 0.2831(2)
H9 H 0.8648 0.4914 0.2634
C13 C 1.0598(5) 0.4845(3) 0.24868(19)
H10 H 1.0501 0.5042 0.2042
C14 C 1.1817(5) 0.4652(3) 0.2767(2)
H11 H 1.2534 0.4737 0.2513
C15 C 1.2044(4) 0.4331(3) 0.3421(2)
H12 H 1.2888 0.4189 0.3612
C16 C 1.0948(4) 0.4239(2) 0.37672(18)
C17 C 0.9495(3) 0.4021(2) 0.45097(18)
C18 C 0.8849(4) 0.3823(2) 0.51197(18)
C19 C 0.9356(4) 0.3513(3) 0.5733(2)
H13 H 1.0242 0.3382 0.5851
C20 C 0.7020(4) 0.3793(3) 0.5619(2)
H14 H 0.6126 0.3866 0.5674
C21 C 0.4644(4) 0.2990(3) 0.4385(2)
C22 C 0.6117(3) 0.3021(2) 0.28070(17)
C23 C 0.4819(3) 0.2182(2) 0.18649(16)
H15 H 0.5185 0.1633 0.2033
C24 C 0.3881(3) 0.2170(2) 0.13154(16)
C25 C 0.3346(3) 0.2996(2) 0.10648(16)
H16 H 0.2707 0.2987 0.0702
C26 C 0.3753(3) 0.3835(2) 0.13494(16)
C27 C 0.4693(3) 0.3835(2) 0.18991(16)
H17 H 0.4977 0.4391 0.2091
C28 C 0.5213(3) 0.3018(2) 0.21646(15)
C29 C 0.3380(3) 0.1278(2) 0.09969(16)
C30 C 0.3147(3) 0.4716(2) 0.10664(16)
Zn1A Zn 0.32613(4) -0.06836(3) 0.10010(2)
Zn2A Zn 0.31190(4) 0.67182(3) 0.10248(2)
O5A O 0.6047(2) 0.55549(16) 0.37848(14)
O8A O 0.6328(2) 0.04507(15) 0.37057(12)
loop_
_geom_bond_atom_site_label_1
_geom_bond_atom_site_label_2
_geom_bond_site_symmetry_1
_geom_bond_site_symmetry_2
Zn1 N4 1_555 1_555
Zn2 N1 1_555 1_555
N1 C1 1_555 1_555
N2 H1 1_555 1_555
N3 Zn2 1_555 1_555
N4 C18 1_555 1_555
N5 Zn1 1_555 1_555
N6 H2 1_555 1_555
O1 Zn1 1_555 1_555
O2 Zn2 1_555 1_555
O3 Zn2 1_555 1_555
O4 Zn1 1_555 1_555
O5 C29 1_555 1_555
O6 C29 1_555 1_555
O7 C30 1_555 1_555
O8 C30 1_555 1_555
S1 C19 1_555 1_555
S2 C9 1_555 1_555
C1 C2 1_555 1_555
C2 H3 1_555 1_555
C3 C2 1_555 1_555
H4 C3 1_555 1_555
C4 C3 1_555 1_555
H5 C4 1_555 1_555
C5 C4 1_555 1_555
H6 C5 1_555 1_555
C6 N2 1_555 1_555
C7 N1 1_555 1_555
C8 N3 1_555 1_555
C9 C8 1_555 1_555
H7 C9 1_555 1_555
C10 N3 1_555 1_555
H8 C10 1_555 1_555
C11 N5 1_555 1_555
C12 C11 1_555 1_555
H9 C12 1_555 1_555
C13 C12 1_555 1_555
H10 C13 1_555 1_555
C14 C13 1_555 1_555
H11 C14 1_555 1_555
C15 C14 1_555 1_555
H12 C15 1_555 1_555
C16 N6 1_555 1_555
C17 N5 1_555 1_555
C18 C17 1_555 1_555
C19 C18 1_555 1_555
H13 C19 1_555 1_555
C20 N4 1_555 1_555
H14 C20 1_555 1_555
C21 O1 1_555 1_555
C22 O3 1_555 1_555
C23 H15 1_555 1_555
C24 C23 1_555 1_555
C25 C24 1_555 1_555
H16 C25 1_555 1_555
C26 C25 1_555 1_555
C27 C26 1_555 1_555
H17 C27 1_555 1_555
C28 C22 1_555 1_555
C29 C24 1_555 1_555
C30 C26 1_555 1_555
Zn1A O5 1_555 1_555
Zn2A O8 1_555 1_555
O5A Zn1 1_555 1_555
O8A Zn2 1_555 1_555
N2 C7 1_555 1_555
N6 C17 1_555 1_555
O2 C21 1_555 1_555
O4 C22 1_555 1_555
S1 C20 1_555 1_555
S2 C10 1_555 1_555
C1 C6 1_555 1_555
C5 C6 1_555 1_555
C7 C8 1_555 1_555
C11 C16 1_555 1_555
C15 C16 1_555 1_555
C23 C28 1_555 1_555
C27 C28 1_555 1_555

#END
