
#######################################################################
#
#                 Cambridge Crystallographic Data Centre
#                                CCDC 
#
#######################################################################
#
# If this CIF has been generated from an entry in the Cambridge 
# Structural Database, then it will include bibliographic, chemical, 
# crystal, experimental, refinement or atomic coordinate data resulting 
# from the CCDC's data processing and validation procedures.
#
#######################################################################

data_NERHEZ
_symmetry_cell_setting           triclinic
_symmetry_space_group_name_H-M   'P -1'
_symmetry_Int_Tables_number      2
_space_group_name_Hall           '-P 1'
loop_
_symmetry_equiv_pos_site_id
_symmetry_equiv_pos_as_xyz
1 x,y,z
2 -x,-y,-z
_cell_length_a                   10.0682(16)
_cell_length_b                   17.027(3)
_cell_length_c                   21.284(3)
_cell_angle_alpha                101.045(2)
_cell_angle_beta                 94.039(2)
_cell_angle_gamma                95.694(2)
_cell_volume                     3548.51
loop_
_atom_site_label
_atom_site_type_symbol
_atom_site_fract_x
_atom_site_fract_y
_atom_site_fract_z
Zn1 Zn 0.58106(5) 0.50612(3) 0.67906(2)
Zn2 Zn 0.89413(5) 0.47255(3) 0.81540(2)
Zn3 Zn 0.72092(5) 0.82726(3) 0.49422(2)
Zn4 Zn 0.78449(5) 0.17531(3) 1.01396(2)
N1 N 0.9842(4) 0.2197(2) 1.06250(16)
N2 N 0.9013(3) 0.0978(2) 0.96312(15)
N3 N 1.1045(3) 0.0614(2) 0.94601(16)
H1 H 1.1901 0.0615 0.9507
N4 N 0.9179(3) 0.53030(19) 0.91026(15)
N5 N 1.1305(4) 0.4979(2) 0.84179(16)
N6 N 1.0384(4) 0.60969(19) 0.99426(15)
H2 H 1.1073 0.6353 1.0184
N7 N 0.5903(3) 0.43733(19) 0.58874(14)
N8 N 0.5022(4) 0.3723(2) 0.49170(15)
H3 H 0.4443 0.3555 0.4590
N9 N 0.3615(4) 0.4952(2) 0.62577(17)
N10 N 0.5946(3) 0.90269(19) 0.54063(15)
N11 N 0.3888(3) 0.93990(19) 0.54640(16)
H4 H 0.3053 0.9419 0.5360
N12 N 0.5368(3) 0.79013(19) 0.43297(15)
O1 O 0.6064(3) 0.15101(17) 0.94281(13)
O2 O 0.7470(3) 0.26074(17) 0.95514(13)
O3 O 0.6874(3) 0.45307(16) 0.80767(12)
O4 O 0.5240(3) 0.42020(16) 0.72760(12)
O5 O 0.7844(3) 0.53801(16) 0.68776(12)
O6 O 0.9258(3) 0.57097(16) 0.77694(13)
O7 O 0.5387(3) 0.60611(17) 0.73404(13)
O8 O 0.5530(3) 0.65270(18) 0.64381(13)
O9 O 0.8969(3) 0.85252(17) 0.57040(14)
O10 O 0.7453(3) 0.74659(18) 0.55544(13)
O11 O 1.1791(3) 0.10361(18) 0.56914(14)
O12 O 1.1725(3) 0.2340(2) 0.58040(15)
O13 O 0.3126(3) 0.88875(17) 0.91980(13)
O14 O 0.3101(4) 0.75850(18) 0.90804(14)
O15 O 0.9126(3) 0.3369(2) 0.83773(17)
O16 O 0.9310(3) 0.38012(19) 0.74774(15)
S1 S 1.20542(15) 0.27931(8) 1.12731(7)
S2 S 1.38108(13) 0.54585(8) 0.85710(7)
S3 S 0.13300(14) 0.50478(9) 0.57055(8)
S4 S 0.34131(13) 0.74782(7) 0.34695(6)
C1 C 0.7746(5) -0.0070(3) 0.8729(2)
H9 H 0.6893 0.0078 0.8792
C2 C 0.7967(5) -0.0699(3) 0.8248(2)
H10 H 0.7233 -0.0980 0.7981
C3 C 0.9226(5) -0.0934(3) 0.8140(2)
H11 H 0.9309 -0.1365 0.7809
C4 C 1.0346(5) -0.0543(3) 0.8515(2)
H12 H 1.1193 -0.0697 0.8449
C5 C 1.0152(4) 0.0096(2) 0.89978(19)
C6 C 0.8870(4) 0.0325(2) 0.91123(19)
C7 C 1.0307(4) 0.1112(2) 0.98193(19)
C8 C 1.0807(4) 0.1760(2) 1.0364(2)
C9 C 1.2076(5) 0.2003(3) 1.0640(2)
H13 H 1.2838 0.1776 1.0507
C10 C 1.0376(5) 0.2753(3) 1.1110(2)
H14 H 0.9868 0.3105 1.1352
C11 C 0.6419(4) 0.2171(2) 0.92774(18)
C12 C 0.5583(4) 0.2446(2) 0.87602(17)
C13 C 0.4375(4) 0.2015(2) 0.85055(19)
H15 H 0.4065 0.1557 0.8655
C14 C 0.3611(4) 0.2265(2) 0.80218(19)
H16 H 0.2792 0.1975 0.7849
C15 C 0.4078(4) 0.2944(2) 0.77999(19)
H17 H 0.3563 0.3113 0.7481
C16 C 0.5298(4) 0.3375(2) 0.80458(17)
C17 C 0.6054(4) 0.3123(2) 0.85415(17)
H18 H 0.6868 0.3415 0.8720
C18 C 0.5874(4) 0.4097(2) 0.77828(18)
C19 C 0.8299(4) 0.5583(2) 0.95502(18)
C20 C 0.6900(4) 0.5443(3) 0.9540(2)
H19 H 0.6381 0.5100 0.9199
C21 C 0.6333(5) 0.5840(3) 1.0063(2)
H20 H 0.5407 0.5765 1.0070
C22 C 0.7057(5) 0.6326(3) 1.0558(2)
H21 H 0.6610 0.6574 1.0896
C23 C 0.8429(5) 0.6481(3) 1.0599(2)
H22 H 0.8917 0.6822 1.0952
C24 C 0.9039(4) 0.6095(2) 1.00781(19)
C25 C 1.0381(4) 0.5622(2) 0.93655(18)
C26 C 1.1566(4) 0.5487(2) 0.9001(2)
C27 C 1.2846(5) 0.5798(3) 0.9178(2)
H23 H 1.3160 0.6141 0.9566
C28 C 1.2408(5) 0.4921(3) 0.8143(2)
H24 H 1.2433 0.4605 0.7737
C29 C 0.8768(4) 0.5819(2) 0.72323(18)
C30 C 0.9410(4) 0.6557(2) 0.70172(17)
C31 C 0.8725(4) 0.6861(2) 0.65462(17)
H25 H 0.7902 0.6597 0.6352
C32 C 0.9257(4) 0.7554(2) 0.63625(17)
C33 C 1.0492(4) 0.7933(2) 0.6642(2)
H26 H 1.0851 0.8401 0.6521
C34 C 1.1203(4) 0.7619(3) 0.7102(2)
H27 H 1.2042 0.7870 0.7283
C35 C 1.0663(4) 0.6940(2) 0.72854(19)
H28 H 1.1138 0.6732 0.7594
C36 C 0.8511(4) 0.7870(2) 0.58416(19)
C37 C 0.5950(4) 0.9609(2) 0.59691(19)
C38 C 0.4646(4) 0.9847(2) 0.60081(19)
C39 C 0.4349(5) 1.0428(2) 0.6508(2)
H29 H 0.3500 1.0597 0.6523
C40 C 0.5357(5) 1.0746(3) 0.6980(2)
H30 H 0.5186 1.1140 0.7323
C41 C 0.6626(5) 1.0497(3) 0.6962(2)
H31 H 0.7272 1.0715 0.7301
C42 C 0.6965(4) 0.9932(3) 0.6453(2)
H32 H 0.7825 0.9779 0.6437
C43 C 0.4700(4) 0.8927(2) 0.51298(19)
C44 C 0.4364(4) 0.8355(2) 0.45244(18)
C45 C 0.3230(4) 0.8203(2) 0.41119(19)
H33 H 0.2464 0.8461 0.4175
C46 C 0.5007(5) 0.7417(2) 0.3779(2)
H34 H 0.5567 0.7068 0.3572
C47 C 1.1451(4) 0.1684(3) 0.5994(2)
C48 C 1.0766(4) 0.1697(2) 0.6605(2)
C49 C 1.0612(4) 0.1024(3) 0.6877(2)
H35 H 1.0854 0.0535 0.6667
C50 C 1.0093(5) 0.1089(3) 0.7465(2)
H36 H 1.0011 0.0644 0.7660
C51 C 0.9697(4) 0.1802(3) 0.7765(2)
H37 H 0.9352 0.1836 0.8162
C52 C 0.9800(4) 0.2467(3) 0.7489(2)
C53 C 1.0356(4) 0.2411(3) 0.6904(2)
H38 H 1.0451 0.2859 0.6714
C54 C 0.9365(4) 0.3257(3) 0.7815(3)
C55 C 0.6886(4) 0.3940(2) 0.55844(18)
C56 C 0.8187(4) 0.3855(3) 0.5804(2)
H39 H 0.8571 0.4130 0.6206
C57 C 0.8882(5) 0.3346(3) 0.5398(2)
H40 H 0.9757 0.3277 0.5529
C58 C 0.8309(5) 0.2940(3) 0.4806(2)
H41 H 0.8807 0.2596 0.4550
C59 C 0.7034(5) 0.3020(3) 0.4576(2)
H42 H 0.6660 0.2741 0.4173
C60 C 0.6336(5) 0.3536(2) 0.49718(19)
C61 C 0.4824(4) 0.4212(2) 0.54656(18)
C62 C 0.3597(4) 0.4548(2) 0.5631(2)
C63 C 0.2492(5) 0.5247(3) 0.6352(2)
H43 H 0.2332 0.5548 0.6747
C64 C 0.2435(5) 0.4527(3) 0.5260(2)
H44 H 0.2265 0.4271 0.4831
C65 C 0.5333(4) 0.6617(3) 0.7011(2)
C66 C 0.4957(4) 0.7413(2) 0.73580(18)
C67 C 0.5051(4) 0.8079(3) 0.70869(19)
H45 H 0.5372 0.8045 0.6684
C68 C 0.4683(4) 0.8797(3) 0.7393(2)
H46 H 0.4758 0.9241 0.7197
C69 C 0.4206(4) 0.8868(2) 0.7986(2)
H47 H 0.3977 0.9360 0.8195
C70 C 0.4064(4) 0.8189(2) 0.82781(18)
C71 C 0.4444(4) 0.7475(2) 0.79665(18)
H48 H 0.4364 0.7027 0.8157
C72 C 0.3415(4) 0.8233(3) 0.88881(19)
Zn3A Zn 1.27908(5) 0.17274(3) 0.50578(2)
Zn4A Zn 0.21551(5) 0.82469(3) 0.98604(2)
O11A O 0.8209(3) 0.89639(18) 0.43086(14)
O12A O 0.8275(3) 0.7660(2) 0.41960(15)
O13A O 0.6874(3) 0.11125(17) 1.08020(13)
O14A O 0.6899(4) 0.24150(18) 1.09196(14)
O17 O 0.3758(3) 0.0545(2) 0.9646(2)
H5 H 0.4488 0.0766 0.9548
H6 H 0.3683 0.0044 0.9483
O18 O 0.1177(3) 0.9382(2) 0.52237(19)
H7 H 0.0517 0.9171 0.5386
H8 H 0.1305 0.9883 0.5387
loop_
_geom_bond_atom_site_label_1
_geom_bond_atom_site_label_2
_geom_bond_site_symmetry_1
_geom_bond_site_symmetry_2
Zn1 N7 1_555 1_555
Zn2 N4 1_555 1_555
Zn3 N10 1_555 1_555
Zn4 N1 1_555 1_555
N1 C8 1_555 1_555
N2 Zn4 1_555 1_555
N3 H1 1_555 1_555
N4 C19 1_555 1_555
N5 Zn2 1_555 1_555
N6 H2 1_555 1_555
N7 C55 1_555 1_555
N8 H3 1_555 1_555
N9 Zn1 1_555 1_555
N10 C37 1_555 1_555
N11 H4 1_555 1_555
N12 Zn3 1_555 1_555
O1 Zn4 1_555 1_555
O2 Zn4 1_555 1_555
O3 Zn2 1_555 1_555
O4 Zn1 1_555 1_555
O5 Zn1 1_555 1_555
O6 Zn2 1_555 1_555
O7 Zn1 1_555 1_555
O8 C65 1_555 1_555
O9 Zn3 1_555 1_555
O10 Zn3 1_555 1_555
O11 C47 1_555 1_555
O12 C47 1_555 1_555
O13 C72 1_555 1_555
O14 C72 1_555 1_555
O15 C54 1_555 1_555
O16 Zn2 1_555 1_555
O17 H5 1_555 1_555
H6 O17 1_555 1_555
O18 H7 1_555 1_555
H8 O18 1_555 1_555
S1 C9 1_555 1_555
S2 C27 1_555 1_555
S3 C63 1_555 1_555
S4 C45 1_555 1_555
C1 H9 1_555 1_555
C2 C1 1_555 1_555
H10 C2 1_555 1_555
C3 C2 1_555 1_555
H11 C3 1_555 1_555
C4 C3 1_555 1_555
H12 C4 1_555 1_555
C5 N3 1_555 1_555
C6 N2 1_555 1_555
C7 N2 1_555 1_555
C8 C7 1_555 1_555
C9 C8 1_555 1_555
H13 C9 1_555 1_555
C10 N1 1_555 1_555
H14 C10 1_555 1_555
C11 O1 1_555 1_555
C12 C11 1_555 1_555
C13 C12 1_555 1_555
H15 C13 1_555 1_555
C14 C13 1_555 1_555
H16 C14 1_555 1_555
C15 C14 1_555 1_555
H17 C15 1_555 1_555
C16 C15 1_555 1_555
C17 C12 1_555 1_555
H18 C17 1_555 1_555
C18 O3 1_555 1_555
C19 C20 1_555 1_555
C20 H19 1_555 1_555
C21 C20 1_555 1_555
H20 C21 1_555 1_555
C22 C21 1_555 1_555
H21 C22 1_555 1_555
C23 C22 1_555 1_555
H22 C23 1_555 1_555
C24 N6 1_555 1_555
C25 N4 1_555 1_555
C26 N5 1_555 1_555
C27 C26 1_555 1_555
H23 C27 1_555 1_555
C28 N5 1_555 1_555
H24 C28 1_555 1_555
C29 O5 1_555 1_555
C30 C29 1_555 1_555
C31 C30 1_555 1_555
H25 C31 1_555 1_555
C32 C31 1_555 1_555
C33 C32 1_555 1_555
H26 C33 1_555 1_555
C34 C33 1_555 1_555
H27 C34 1_555 1_555
C35 C30 1_555 1_555
H28 C35 1_555 1_555
C36 O9 1_555 1_555
C37 C38 1_555 1_555
C38 N11 1_555 1_555
C39 C38 1_555 1_555
H29 C39 1_555 1_555
C40 C39 1_555 1_555
H30 C40 1_555 1_555
C41 C40 1_555 1_555
H31 C41 1_555 1_555
C42 C37 1_555 1_555
H32 C42 1_555 1_555
C43 N10 1_555 1_555
C44 N12 1_555 1_555
C45 C44 1_555 1_555
H33 C45 1_555 1_555
C46 N12 1_555 1_555
H34 C46 1_555 1_555
C47 C48 1_555 1_555
C48 C49 1_555 1_555
C49 H35 1_555 1_555
C50 C49 1_555 1_555
H36 C50 1_555 1_555
C51 C50 1_555 1_555
H37 C51 1_555 1_555
C52 C51 1_555 1_555
C53 C48 1_555 1_555
H38 C53 1_555 1_555
C54 O16 1_555 1_555
C55 C56 1_555 1_555
C56 H39 1_555 1_555
C57 C56 1_555 1_555
H40 C57 1_555 1_555
C58 C57 1_555 1_555
H41 C58 1_555 1_555
C59 C58 1_555 1_555
H42 C59 1_555 1_555
C60 N8 1_555 1_555
C61 N7 1_555 1_555
C62 N9 1_555 1_555
C63 N9 1_555 1_555
H43 C63 1_555 1_555
C64 S3 1_555 1_555
H44 C64 1_555 1_555
C65 O7 1_555 1_555
C66 C65 1_555 1_555
C67 C66 1_555 1_555
H45 C67 1_555 1_555
C68 C67 1_555 1_555
H46 C68 1_555 1_555
C69 C68 1_555 1_555
H47 C69 1_555 1_555
C70 C69 1_555 1_555
C71 C66 1_555 1_555
H48 C71 1_555 1_555
C72 C70 1_555 1_555
Zn3A O11 1_555 1_555
Zn4A O13 1_555 1_555
O11A Zn3 1_555 1_555
O12A Zn3 1_555 1_555
O13A Zn4 1_555 1_555
O14A Zn4 1_555 1_555
N3 C7 1_555 1_555
N6 C25 1_555 1_555
N8 C61 1_555 1_555
N11 C43 1_555 1_555
O2 C11 1_555 1_555
O4 C18 1_555 1_555
O6 C29 1_555 1_555
O10 C36 1_555 1_555
O12 Zn3A 1_555 1_555
O14 Zn4A 1_555 1_555
S1 C10 1_555 1_555
S2 C28 1_555 1_555
S4 C46 1_555 1_555
C1 C6 1_555 1_555
C4 C5 1_555 1_555
C5 C6 1_555 1_555
C16 C17 1_555 1_555
C16 C18 1_555 1_555
C19 C24 1_555 1_555
C23 C24 1_555 1_555
C25 C26 1_555 1_555
C32 C36 1_555 1_555
C34 C35 1_555 1_555
C41 C42 1_555 1_555
C43 C44 1_555 1_555
C52 C53 1_555 1_555
C52 C54 1_555 1_555
C55 C60 1_555 1_555
C59 C60 1_555 1_555
C61 C62 1_555 1_555
C62 C64 1_555 1_555
C70 C71 1_555 1_555

#END
