
#######################################################################
#
#                 Cambridge Crystallographic Data Centre
#                                CCDC 
#
#######################################################################
#
# If this CIF has been generated from an entry in the Cambridge 
# Structural Database, then it will include bibliographic, chemical, 
# crystal, experimental, refinement or atomic coordinate data resulting 
# from the CCDC's data processing and validation procedures.
#
#######################################################################

data_NERLOL
_symmetry_cell_setting           monoclinic
_symmetry_space_group_name_H-M   'P 2/n'
_symmetry_Int_Tables_number      13
_space_group_name_Hall           '-P 2yac'
loop_
_symmetry_equiv_pos_site_id
_symmetry_equiv_pos_as_xyz
1 x,y,z
2 1/2+x,-y,1/2+z
3 -x,-y,-z
4 1/2-x,y,1/2-z
_cell_length_a                   6.8319(2)
_cell_length_b                   11.0582(3)
_cell_length_c                   21.9995(7)
_cell_angle_alpha                90
_cell_angle_beta                 97.2546(18)
_cell_angle_gamma                90
_cell_volume                     1648.72
loop_
_atom_site_label
_atom_site_type_symbol
_atom_site_fract_x
_atom_site_fract_y
_atom_site_fract_z
Cu1 Cu 0.2500 0.22626(5) 0.2500
O1 O 0.1370(4) 0.20832(19) 0.16365(10)
N1 N 0.1016(4) 0.2918(2) 0.11967(12)
N3 N 0.2500 0.0463(3) 0.2500
N4 N 0.2500 -0.5939(3) 0.2500
C1 C -0.0713(5) 0.2875(3) 0.08402(16)
H1 H -0.1643 0.2295 0.0912
C2 C -0.1122(5) 0.3681(3) 0.03680(16)
H2 H -0.2331 0.3636 0.0122
C3 C 0.0207(5) 0.4551(3) 0.02500(15)
C4 C 0.1995(6) 0.4548(4) 0.06263(17)
H3 H 0.2956 0.5111 0.0559
C5 C 0.2374(6) 0.3736(3) 0.10940(17)
H4 H 0.3582 0.3752 0.1342
C11 C 0.0915(5) -0.0169(3) 0.22538(15)
H9 H -0.0191 0.0253 0.2079
C12 C 0.0855(5) -0.1415(3) 0.22487(15)
H10 H -0.0282 -0.1814 0.2078
C13 C 0.2500 -0.2077(3) 0.2500
C14 C 0.2500 -0.3419(4) 0.2500
C15 C 0.0757(5) -0.4076(3) 0.23857(17)
H11 H -0.0446 -0.3676 0.2311
C16 C 0.0815(6) -0.5319(3) 0.23841(17)
H12 H -0.0363 -0.5744 0.2299
C3B C -0.0207(5) 0.5449(3) -0.02500(15)
C2B C 0.1122(5) 0.6319(3) -0.03680(16)
C1B C 0.0713(5) 0.7125(3) -0.08402(16)
N1B N -0.1016(4) 0.7082(2) -0.11967(12)
O1B O -0.1370(4) 0.79168(19) -0.16365(10)
C5B C -0.2374(6) 0.6264(3) -0.10940(17)
C4B C -0.1995(6) 0.5452(4) -0.06263(17)
H3B H -0.2956 0.4889 -0.0559
H4B H -0.3582 0.6248 -0.1342
H1B H 0.1643 0.7705 -0.0912
H2B H 0.2331 0.6364 -0.0122
C12C C 0.4145(5) -0.1415(3) 0.27513(15)
C11C C 0.4085(5) -0.0169(3) 0.27462(15)
H9C H 0.5191 0.0253 0.2921
H10C H 0.5282 -0.1814 0.2922
C16C C 0.4185(6) -0.5319(3) 0.26159(17)
C15C C 0.4243(5) -0.4076(3) 0.26143(17)
H11C H 0.5446 -0.3676 0.2689
H12C H 0.5363 -0.5744 0.2701
O1C O 0.3630(4) 0.20832(19) 0.33635(10)
N4_2 N 0.2500 0.4061(3) 0.2500
Cu1_2 Cu 0.2500 -0.77374(5) 0.2500
Cu1A Cu -0.2500 0.77374(5) -0.2500
Cl1 Cl 0.67397(15) 0.64733(9) 0.11294(5)
O4 O 0.5480(5) 0.6640(4) 0.05759(17)
O5 O 0.6310(5) 0.7281(3) 0.16039(18)
O6 O 0.8739(4) 0.6750(3) 0.10202(15)
O7 O 0.6634(4) 0.5257(2) 0.13391(15)
O2 O 0.6377(4) 1.0709(3) 0.11873(13)
N2 N 0.4650(5) 1.0492(3) 0.08576(14)
C6 C 0.4009(6) 1.1208(3) 0.03798(19)
H5 H 0.4799 1.1843 0.0278
C7 C 0.2230(6) 1.1021(3) 0.00427(18)
H6 H 0.1836 1.1527 -0.0288
C8 C 0.0983(5) 1.0095(3) 0.01779(16)
C9 C 0.1729(6) 0.9354(3) 0.06618(17)
H7 H 0.0982 0.8700 0.0765
C10 C 0.3532(6) 0.9559(3) 0.09912(18)
H8 H 0.3987 0.9044 0.1312
C8B C -0.0983(5) 0.9905(3) -0.01779(16)
C7B C -0.2230(6) 0.8979(3) -0.00427(18)
C6B C -0.4009(6) 0.8792(3) -0.03798(19)
N2B N -0.4650(5) 0.9508(3) -0.08576(14)
O2B O -0.6377(4) 0.9291(3) -0.11873(13)
C10B C -0.3532(6) 1.0441(3) -0.09912(18)
C9B C -0.1729(6) 1.0646(3) -0.06618(17)
H7B H -0.0982 1.1300 -0.0765
H8B H -0.3987 1.0956 -0.1312
H5B H -0.4799 0.8157 -0.0278
H6B H -0.1836 0.8473 0.0288
O3 O 0.5915(5) 1.2331(4) 0.20597(17)
H13 H 0.619(6) 1.167(2) 0.1801(17)
H14 H 0.650(7) 1.301(2) 0.1868(19)
loop_
_geom_bond_atom_site_label_1
_geom_bond_atom_site_label_2
_geom_bond_site_symmetry_1
_geom_bond_site_symmetry_2
Cu1 O1 1_555 1_555
Cl1 O4 1_555 1_555
O1 N1 1_555 1_555
O2 N2 1_555 1_555
O3 H13 1_555 1_555
O5 Cl1 1_555 1_555
O6 Cl1 1_555 1_555
O7 Cl1 1_555 1_555
N1 C1 1_555 1_555
N2 C6 1_555 1_555
N3 Cu1 1_555 1_555
N4 C16 1_555 1_555
C1 H1 1_555 1_555
C2 C1 1_555 1_555
H2 C2 1_555 1_555
C3 C2 1_555 1_555
C4 C3 1_555 1_555
H3 C4 1_555 1_555
C5 N1 1_555 1_555
H4 C5 1_555 1_555
C6 H5 1_555 1_555
C7 C6 1_555 1_555
H6 C7 1_555 1_555
C8 C7 1_555 1_555
C9 C8 1_555 1_555
H7 C9 1_555 1_555
C10 N2 1_555 1_555
H8 C10 1_555 1_555
C11 N3 1_555 1_555
H9 C11 1_555 1_555
C12 C11 1_555 1_555
H10 C12 1_555 1_555
C13 C12 1_555 1_555
C14 C13 1_555 1_555
C15 C14 1_555 1_555
H11 C15 1_555 1_555
C16 C15 1_555 1_555
H12 C16 1_555 1_555
H14 O3 1_555 1_555
C3B C3 1_555 1_555
C2B C3B 1_555 1_555
C1B C2B 1_555 1_555
N1B C1B 1_555 1_555
O1B N1B 1_555 1_555
C5B N1B 1_555 1_555
C4B C3B 1_555 1_555
H3B C4B 1_555 1_555
H4B C5B 1_555 1_555
H1B C1B 1_555 1_555
H2B C2B 1_555 1_555
C8B C8 1_555 1_555
C7B C8B 1_555 1_555
C6B C7B 1_555 1_555
N2B C6B 1_555 1_555
O2B N2B 1_555 1_555
C10B N2B 1_555 1_555
C9B C8B 1_555 1_555
H7B C9B 1_555 1_555
H8B C10B 1_555 1_555
H5B C6B 1_555 1_555
H6B C7B 1_555 1_555
C12C C13 1_555 1_555
C11C N3 1_555 1_555
H9C C11C 1_555 1_555
H10C C12C 1_555 1_555
C16C N4 1_555 1_555
C15C C14 1_555 1_555
H11C C15C 1_555 1_555
H12C C16C 1_555 1_555
O1C Cu1 1_555 1_555
N4_2 Cu1 1_555 1_555
Cu1_2 N4 1_555 1_555
Cu1A O1B 1_555 1_555
C4 C5 1_555 1_555
C9 C10 1_555 1_555
C5B C4B 1_555 1_555
C10B C9B 1_555 1_555
C12C C11C 1_555 1_555
C16C C15C 1_555 1_555

#END
