
#######################################################################
#
#                 Cambridge Crystallographic Data Centre
#                                CCDC 
#
#######################################################################
#
# If this CIF has been generated from an entry in the Cambridge 
# Structural Database, then it will include bibliographic, chemical, 
# crystal, experimental, refinement or atomic coordinate data resulting 
# from the CCDC's data processing and validation procedures.
#
#######################################################################

data_NERNIH
_symmetry_cell_setting           monoclinic
_symmetry_space_group_name_H-M   'C 2'
_symmetry_Int_Tables_number      5
_space_group_name_Hall           'C 2y'
loop_
_symmetry_equiv_pos_site_id
_symmetry_equiv_pos_as_xyz
1 x,y,z
2 -x,y,-z
3 1/2+x,1/2+y,z
4 1/2-x,1/2+y,-z
_cell_length_a                   34.565(7)
_cell_length_b                   17.060(2)
_cell_length_c                   12.646(2)
_cell_angle_alpha                90
_cell_angle_beta                 99.88(2)
_cell_angle_gamma                90
_cell_volume                     7346.49
loop_
_atom_site_label
_atom_site_type_symbol
_atom_site_fract_x
_atom_site_fract_y
_atom_site_fract_z
Dy1 Dy 0.760587(14) 0.39337(3) 0.06605(6)
Co1 Co 1.0000 0.8929(3) 0.5000
Co2 Co 0.5000 -0.1094(2) 0.0000
N1 N 0.9600(5) 0.8035(9) 0.4192(15)
C1 C 0.9518(4) 0.7391(7) 0.4766(13)
H1 H 0.9618(4) 0.7362(7) 0.5505(13)
C2 C 0.9295(5) 0.6794(9) 0.4279(15)
H2 H 0.9251(5) 0.6344(9) 0.4671(15)
C3 C 0.9133(5) 0.6854(9) 0.3200(14)
C4 C 0.9211(4) 0.7512(8) 0.2632(12)
H3 H 0.9107(4) 0.7564(8) 0.1898(12)
C5 C 0.9445(4) 0.8087(8) 0.3170(14)
H4 H 0.9496(4) 0.8537(8) 0.2789(14)
N2 N 0.8910(4) 0.6218(7) 0.2651(11)
C6 C 0.9056(4) 0.5471(9) 0.2792(15)
H5 H 0.9305(4) 0.5388(9) 0.3214(15)
C7 C 0.8847(4) 0.4850(8) 0.2330(16)
H6 H 0.8952(4) 0.4343(8) 0.2450(16)
C8 C 0.8473(4) 0.4944(7) 0.1671(13)
O1 O 0.8266(3) 0.4356(6) 0.1292(11)
C9 C 0.8333(5) 0.5714(9) 0.1550(16)
H7 H 0.8081(5) 0.5811(9) 0.1159(16)
C10 C 0.8565(4) 0.6343(8) 0.2005(15)
H8 H 0.8478(4) 0.6859(8) 0.1855(15)
N3 N 0.9576(5) 0.9801(10) 0.4309(15)
C11 C 0.9190(4) 0.9664(7) 0.4307(13)
H9 H 0.9119(4) 0.9223(7) 0.4675(13)
C12 C 0.8893(4) 1.0148(8) 0.3784(13)
H10 H 0.8629(4) 1.0042(8) 0.3822(13)
C13 C 0.8989(5) 1.0777(9) 0.3215(15)
C14 C 0.9382(5) 1.0937(8) 0.3212(14)
H11 H 0.9457(5) 1.1383(8) 0.2858(14)
C15 C 0.9666(4) 1.0425(8) 0.3743(15)
H12 H 0.9931(4) 1.0520(8) 0.3706(15)
N4 N 0.8692(4) 1.1267(7) 0.2645(12)
C16 C 0.8369(4) 1.0955(7) 0.2052(13)
H13 H 0.8346(4) 1.0406(7) 0.2014(13)
C17 C 0.8077(4) 1.1392(8) 0.1510(14)
H14 H 0.7852(4) 1.1146(8) 0.1126(14)
C18 C 0.8105(5) 1.2232(7) 0.1515(14)
O2 O 0.7846(3) 1.2658(5) 0.0963(10)
C19 C 0.8447(5) 1.2545(8) 0.2116(16)
H15 H 0.8486(5) 1.3090(8) 0.2128(16)
C20 C 0.8732(5) 1.2057(9) 0.2704(17)
H16 H 0.8953(5) 1.2278(9) 0.3140(17)
N5 N 0.5446(4) -0.0179(8) 0.0337(14)
C21 C 0.5439(4) 0.0410(8) -0.0374(14)
H17 H 0.5249(4) 0.0404(8) -0.1001(14)
C22 C 0.5703(4) 0.1022(8) -0.0214(14)
H18 H 0.5696(4) 0.1422(8) -0.0727(14)
C23 C 0.5987(5) 0.1036(9) 0.0740(15)
C24 C 0.5985(5) 0.0435(9) 0.1494(15)
H19 H 0.6169(5) 0.0424(9) 0.2134(15)
C25 C 0.5703(4) -0.0140(8) 0.1263(13)
H20 H 0.5690(4) -0.0528(8) 0.1784(13)
N6 N 0.6270(4) 0.1665(7) 0.0915(12)
C26 C 0.6137(5) 0.2428(10) 0.0791(23)
H21 H 0.5868(5) 0.2532(10) 0.0578(23)
C27 C 0.6389(5) 0.3003(10) 0.0974(26)
H22 H 0.6292(5) 0.3514(10) 0.1021(26)
O3 O 0.7046(3) 0.3471(6) 0.1242(11)
C28 C 0.6798(4) 0.2897(9) 0.1104(14)
C29 C 0.6912(6) 0.2114(10) 0.1254(22)
H23 H 0.7181(6) 0.1993(10) 0.1430(22)
C30 C 0.6645(5) 0.1522(9) 0.1152(19)
H24 H 0.6733(5) 0.1001(9) 0.1254(19)
N7 N 0.5468(5) 0.8056(10) 0.0325(16)
C31 C 0.5817(4) 0.8224(8) -0.0048(13)
H25 H 0.5823(4) 0.8660(8) -0.0499(13)
C32 C 0.6153(4) 0.7784(8) 0.0213(13)
H26 H 0.6388(4) 0.7936(8) -0.0005(13)
C33 C 0.6133(5) 0.7111(9) 0.0808(15)
C34 C 0.5804(4) 0.6931(8) 0.1179(15)
H27 H 0.5790(4) 0.6482(8) 0.1602(15)
C35 C 0.5476(4) 0.7442(8) 0.0913(16)
H28 H 0.5247(4) 0.7321(8) 0.1190(16)
N8 N 0.6471(4) 0.6607(7) 0.1046(12)
C36 C 0.6837(4) 0.6901(8) 0.1224(13)
H29 H 0.6869(4) 0.7446(8) 0.1301(13)
C37 C 0.7167(4) 0.6439(8) 0.1300(15)
H30 H 0.7418(4) 0.6668(8) 0.1418(15)
C38 C 0.7124(5) 0.5599(8) 0.1195(13)
O4 O 0.7424(3) 0.5168(5) 0.1186(11)
C39 C 0.6742(5) 0.5331(9) 0.1071(19)
H31 H 0.6698(5) 0.4787(9) 0.1068(19)
C40 C 0.6427(5) 0.5817(10) 0.0955(16)
H32 H 0.6173(5) 0.5603(10) 0.0808(16)
N9 N 0.9734(3) 0.8911(14) 0.6316(11)
C41 C 0.9543(5) 0.9156(11) 0.6941(16)
S1 S 0.9266(4) 0.9484(10) 0.7778(12)
N10 N 0.5067(3) -0.1138(10) -0.1543(10)
C42 C 0.5160(5) -0.1342(10) -0.2330(18)
S2 S 0.5330(2) -0.1687(5) -0.3403(6)
N11 N 0.7998(5) 0.4424(10) -0.1191(15)
O5 O 0.7826(3) 0.4936(6) -0.0676(13)
O6 O 0.7972(4) 0.3724(6) -0.0830(13)
O7 O 0.8191(6) 0.4584(10) -0.1844(16)
N12 N 0.6990(5) 0.3568(13) -0.1274(17)
O8 O 0.7062(4) 0.4253(10) -0.0881(15)
O9 O 0.7201(4) 0.3043(8) -0.0830(13)
O10 O 0.6740(6) 0.3445(16) -0.2040(16)
O11 O 0.7743(4) 0.3834(10) 0.2638(11)
N1A N 1.0400(5) 0.8035(9) 0.5808(15)
C1A C 1.0482(4) 0.7391(7) 0.5234(13)
H1A H 1.0382(4) 0.7362(7) 0.4495(13)
C2A C 1.0705(5) 0.6794(9) 0.5721(15)
H2A H 1.0749(5) 0.6344(9) 0.5329(15)
C3A C 1.0867(5) 0.6854(9) 0.6800(14)
C4A C 1.0789(4) 0.7512(8) 0.7368(12)
H3A H 1.0893(4) 0.7564(8) 0.8102(12)
C5A C 1.0555(4) 0.8087(8) 0.6830(14)
H4A H 1.0504(4) 0.8537(8) 0.7211(14)
N2A N 1.1090(4) 0.6218(7) 0.7349(11)
C6A C 1.0944(4) 0.5471(9) 0.7208(15)
H5A H 1.0695(4) 0.5388(9) 0.6786(15)
C7A C 1.1153(4) 0.4850(8) 0.7670(16)
H6A H 1.1048(4) 0.4343(8) 0.7550(16)
C8A C 1.1527(4) 0.4944(7) 0.8329(13)
O1A O 1.1734(3) 0.4356(6) 0.8708(11)
C9A C 1.1667(5) 0.5714(9) 0.8450(16)
H7A H 1.1919(5) 0.5811(9) 0.8841(16)
C10A C 1.1435(4) 0.6343(8) 0.7995(15)
H8A H 1.1522(4) 0.6859(8) 0.8145(15)
N3A N 1.0424(5) 0.9801(10) 0.5691(15)
C11A C 1.0810(4) 0.9664(7) 0.5693(13)
H9A H 1.0881(4) 0.9223(7) 0.5325(13)
C12A C 1.1107(4) 1.0148(8) 0.6216(13)
H10A H 1.1371(4) 1.0042(8) 0.6178(13)
C13A C 1.1011(5) 1.0777(9) 0.6785(15)
C14A C 1.0618(5) 1.0937(8) 0.6788(14)
H11A H 1.0543(5) 1.1383(8) 0.7142(14)
C15A C 1.0334(4) 1.0425(8) 0.6257(15)
H12A H 1.0069(4) 1.0520(8) 0.6294(15)
N4A N 1.1308(4) 1.1267(7) 0.7355(12)
C16A C 1.1631(4) 1.0955(7) 0.7948(13)
H13A H 1.1654(4) 1.0406(7) 0.7986(13)
C17A C 1.1923(4) 1.1392(8) 0.8490(14)
H14A H 1.2148(4) 1.1146(8) 0.8874(14)
C18A C 1.1895(5) 1.2232(7) 0.8485(14)
O2A O 1.2154(3) 1.2658(5) 0.9037(10)
C19A C 1.1553(5) 1.2545(8) 0.7884(16)
H15A H 1.1514(5) 1.3090(8) 0.7872(16)
C20A C 1.1268(5) 1.2057(9) 0.7296(17)
H16A H 1.1047(5) 1.2278(9) 0.6860(17)
N9A N 1.0266(3) 0.8911(14) 0.3684(11)
C41A C 1.0457(5) 0.9156(11) 0.3059(16)
S1A S 1.0734(4) 0.9484(10) 0.2222(12)
Dy1A Dy 1.239413(14) 0.39337(3) 0.93395(6)
N5A N 1.4554(4) -0.0179(8) 0.9663(14)
C21A C 1.4561(4) 0.0410(8) 1.0374(14)
H17A H 1.4751(4) 0.0404(8) 1.1001(14)
C22A C 1.4297(4) 0.1022(8) 1.0214(14)
H18A H 1.4304(4) 0.1422(8) 1.0727(14)
C23A C 1.4013(5) 0.1036(9) 0.9260(15)
C24A C 1.4015(5) 0.0435(9) 0.8506(15)
H19A H 1.3831(5) 0.0424(9) 0.7866(15)
C25A C 1.4297(4) -0.0140(8) 0.8737(13)
H20A H 1.4310(4) -0.0528(8) 0.8216(13)
N6A N 1.3730(4) 0.1665(7) 0.9085(12)
C26A C 1.3863(5) 0.2428(10) 0.9209(23)
H21A H 1.4132(5) 0.2532(10) 0.9422(23)
C27A C 1.3611(5) 0.3003(10) 0.9026(26)
H22A H 1.3708(5) 0.3514(10) 0.8979(26)
O3A O 1.2954(3) 0.3471(6) 0.8758(11)
C28A C 1.3202(4) 0.2897(9) 0.8896(14)
C29A C 1.3088(6) 0.2114(10) 0.8746(22)
H23A H 1.2819(6) 0.1993(10) 0.8570(22)
C30A C 1.3355(5) 0.1522(9) 0.8848(19)
H24A H 1.3267(5) 0.1001(9) 0.8746(19)
N7A N 1.4532(5) 0.8056(10) 0.9675(16)
C31A C 1.4183(4) 0.8224(8) 1.0048(13)
H25A H 1.4177(4) 0.8660(8) 1.0499(13)
C32A C 1.3847(4) 0.7784(8) 0.9787(13)
H26A H 1.3612(4) 0.7936(8) 1.0005(13)
C33A C 1.3867(5) 0.7111(9) 0.9192(15)
C34A C 1.4196(4) 0.6931(8) 0.8821(15)
H27A H 1.4210(4) 0.6482(8) 0.8398(15)
C35A C 1.4524(4) 0.7442(8) 0.9087(16)
H28A H 1.4753(4) 0.7321(8) 0.8810(16)
N8A N 1.3529(4) 0.6607(7) 0.8954(12)
C36A C 1.3163(4) 0.6901(8) 0.8776(13)
H29A H 1.3131(4) 0.7446(8) 0.8699(13)
C37A C 1.2833(4) 0.6439(8) 0.8700(15)
H30A H 1.2582(4) 0.6668(8) 0.8582(15)
C38A C 1.2876(5) 0.5599(8) 0.8805(13)
O4A O 1.2576(3) 0.5168(5) 0.8814(11)
C39A C 1.3258(5) 0.5331(9) 0.8929(19)
H31A H 1.3302(5) 0.4787(9) 0.8932(19)
C40A C 1.3573(5) 0.5817(10) 0.9045(16)
H32A H 1.3827(5) 0.5603(10) 0.9192(16)
N11A N 1.2002(5) 0.4424(10) 1.1191(15)
O5A O 1.2174(3) 0.4936(6) 1.0676(13)
O6A O 1.2028(4) 0.3724(6) 1.0830(13)
O7A O 1.1809(6) 0.4584(10) 1.1844(16)
N12A N 1.3010(5) 0.3568(13) 1.1274(17)
O8A O 1.2938(4) 0.4253(10) 1.0881(15)
O9A O 1.2799(4) 0.3043(8) 1.0830(13)
O10A O 1.3260(6) 0.3445(16) 1.2040(16)
O11A O 1.2257(4) 0.3834(10) 0.7362(11)
N10A N 0.4933(3) -0.1138(10) 0.1543(10)
C42A C 0.4840(5) -0.1342(10) 0.2330(18)
S2A S 0.4670(2) -0.1687(5) 0.3403(6)
O2_2 O 0.7846(3) 0.2658(5) 0.0963(10)
N5A_2 N 0.4554(4) -0.0179(8) -0.0337(14)
N7_2 N 0.5468(5) -0.1944(10) 0.0325(16)
N7A_2 N 0.4532(5) -0.1944(10) -0.0325(16)
Dy1_2 Dy 0.760587(14) 1.39337(3) 0.06605(6)
Co2_2 Co 0.5000 0.8906(2) 0.0000
Dy1A_2 Dy 1.239413(14) 1.39337(3) 0.93395(6)
O2A_2 O 1.2154(3) 0.2658(5) 0.9037(10)
Co2_3 Co 1.5000 -0.1094(2) 1.0000
Co2_4 Co 1.5000 0.8906(2) 1.0000
Co3 Co 1.0000 0.7866(2) 0.0000
N13 N 0.9582(5) 0.8512(10) 0.0390(16)
C43 C 0.9382(5) 0.9005(22) 0.0637(14)
S3 S 0.9084(3) 0.9604(6) 0.1025(6)
N14 N 1.0150(6) 0.7161(13) 0.1205(22)
C44 C 1.0156(5) 0.6741(12) 0.1957(19)
S4 S 1.0163(2) 0.6139(3) 0.2943(4)
N13A N 1.0418(5) 0.8512(10) -0.0390(16)
C43A C 1.0618(5) 0.9005(22) -0.0637(14)
S3A S 1.0916(3) 0.9604(6) -0.1025(6)
N14A N 0.9850(6) 0.7161(13) -0.1205(22)
C44A C 0.9844(5) 0.6741(12) -0.1957(19)
S4A S 0.9837(2) 0.6139(3) -0.2943(4)
O12 O 0.4870(16) 0.5860(29) 0.0751(42)
H33 H 0.4797(16) 0.5464(29) 0.0391(42)
C45 C 0.5131(20) 0.5650(40) 0.1586(56)
H34 H 0.5365(20) 0.5953(40) 0.1546(56)
H35 H 0.5189(20) 0.5096(40) 0.1546(56)
H36 H 0.5043(20) 0.5760(40) 0.2259(56)
O13 O 0.5682(26) -0.0616(51) 0.4298(71)
H37 H 0.5635(26) -0.0399(51) 0.4850(71)
C46 C 0.5977(38) -0.0538(81) 0.458(11)
H38 H 0.6019(38) -0.0677(81) 0.386(11)
H39 H 0.6136(38) -0.0874(81) 0.510(11)
H40 H 0.6052(38) 0.0004(81) 0.472(11)
O14 O 1.0541(24) 0.1987(51) 0.4213(67)
H41 H 1.0512(24) 0.1542(51) 0.3946(67)
C47 C 1.0862(22) 0.2161(47) 0.4648(64)
H42 H 1.1009(22) 0.1918(47) 0.4148(64)
H43 H 1.0947(22) 0.1945(47) 0.5360(64)
H44 H 1.0907(22) 0.2722(47) 0.4663(64)
O15 O 0.7046(29) 0.5494(65) 0.5643(85)
O16 O 0.7245(29) 0.4803(64) 0.6219(81)
O17 O 0.8506(31) 0.1506(68) 0.6023(91)
O18 O 0.8363(36) -0.0783(80) 0.635(10)
O19 O 0.6576(63) 0.297(14) 0.460(18)
O20 O 0.7106(58) 0.236(13) 0.659(18)
loop_
_geom_bond_atom_site_label_1
_geom_bond_atom_site_label_2
_geom_bond_site_symmetry_1
_geom_bond_site_symmetry_2
Dy1 O1 1_555 1_555
Co1 N1 1_555 1_555
Co2 N5 1_555 1_555
N1 C1 1_555 1_555
C1 H1 1_555 1_555
C2 C1 1_555 1_555
H2 C2 1_555 1_555
C3 C2 1_555 1_555
C4 C3 1_555 1_555
H3 C4 1_555 1_555
C5 N1 1_555 1_555
H4 C5 1_555 1_555
N2 C3 1_555 1_555
C6 N2 1_555 1_555
H5 C6 1_555 1_555
C7 C6 1_555 1_555
H6 C7 1_555 1_555
C8 C7 1_555 1_555
O1 C8 1_555 1_555
C9 C8 1_555 1_555
H7 C9 1_555 1_555
C10 N2 1_555 1_555
H8 C10 1_555 1_555
N3 Co1 1_555 1_555
C11 N3 1_555 1_555
H9 C11 1_555 1_555
C12 C11 1_555 1_555
H10 C12 1_555 1_555
C13 C12 1_555 1_555
C14 C13 1_555 1_555
H11 C14 1_555 1_555
C15 N3 1_555 1_555
H12 C15 1_555 1_555
N4 C13 1_555 1_555
C16 N4 1_555 1_555
H13 C16 1_555 1_555
C17 C16 1_555 1_555
H14 C17 1_555 1_555
C18 C17 1_555 1_555
O2 C18 1_555 1_555
C19 C18 1_555 1_555
H15 C19 1_555 1_555
C20 N4 1_555 1_555
H16 C20 1_555 1_555
N5 C21 1_555 1_555
C21 H17 1_555 1_555
C22 C21 1_555 1_555
H18 C22 1_555 1_555
C23 C22 1_555 1_555
C24 C23 1_555 1_555
H19 C24 1_555 1_555
C25 N5 1_555 1_555
H20 C25 1_555 1_555
N6 C23 1_555 1_555
C26 N6 1_555 1_555
H21 C26 1_555 1_555
C27 C26 1_555 1_555
H22 C27 1_555 1_555
O3 Dy1 1_555 1_555
C28 C27 1_555 1_555
C29 C28 1_555 1_555
H23 C29 1_555 1_555
C30 N6 1_555 1_555
H24 C30 1_555 1_555
N7 C31 1_555 1_555
C31 H25 1_555 1_555
C32 C31 1_555 1_555
H26 C32 1_555 1_555
C33 C32 1_555 1_555
C34 C33 1_555 1_555
H27 C34 1_555 1_555
C35 N7 1_555 1_555
H28 C35 1_555 1_555
N8 C33 1_555 1_555
C36 N8 1_555 1_555
H29 C36 1_555 1_555
C37 C36 1_555 1_555
H30 C37 1_555 1_555
C38 C37 1_555 1_555
O4 Dy1 1_555 1_555
C39 C38 1_555 1_555
H31 C39 1_555 1_555
C40 N8 1_555 1_555
H32 C40 1_555 1_555
N9 Co1 1_555 1_555
C41 N9 1_555 1_555
S1 C41 1_555 1_555
N10 Co2 1_555 1_555
C42 N10 1_555 1_555
S2 C42 1_555 1_555
N11 O5 1_555 1_555
O5 Dy1 1_555 1_555
O6 Dy1 1_555 1_555
O7 N11 1_555 1_555
N12 O8 1_555 1_555
O8 Dy1 1_555 1_555
O9 Dy1 1_555 1_555
O10 N12 1_555 1_555
O11 Dy1 1_555 1_555
Co3 N13 1_555 1_555
N13 C43 1_555 1_555
C43 S3 1_555 1_555
N14 Co3 1_555 1_555
C44 N14 1_555 1_555
S4 C44 1_555 1_555
O12 H33 1_555 1_555
C45 O12 1_555 1_555
H34 C45 1_555 1_555
H35 C45 1_555 1_555
H36 C45 1_555 1_555
O13 H37 1_555 1_555
C46 O13 1_555 1_555
H38 C46 1_555 1_555
H39 C46 1_555 1_555
H40 C46 1_555 1_555
O14 H41 1_555 1_555
C47 O14 1_555 1_555
H42 C47 1_555 1_555
H43 C47 1_555 1_555
H44 C47 1_555 1_555
N1A Co1 1_555 1_555
C1A N1A 1_555 1_555
H1A C1A 1_555 1_555
C2A C1A 1_555 1_555
H2A C2A 1_555 1_555
C3A C2A 1_555 1_555
C4A C3A 1_555 1_555
H3A C4A 1_555 1_555
C5A N1A 1_555 1_555
H4A C5A 1_555 1_555
N2A C3A 1_555 1_555
C6A N2A 1_555 1_555
H5A C6A 1_555 1_555
C7A C6A 1_555 1_555
H6A C7A 1_555 1_555
C8A C7A 1_555 1_555
O1A C8A 1_555 1_555
C9A C8A 1_555 1_555
H7A C9A 1_555 1_555
C10A N2A 1_555 1_555
H8A C10A 1_555 1_555
N3A Co1 1_555 1_555
C11A N3A 1_555 1_555
H9A C11A 1_555 1_555
C12A C11A 1_555 1_555
H10A C12A 1_555 1_555
C13A C12A 1_555 1_555
C14A C13A 1_555 1_555
H11A C14A 1_555 1_555
C15A N3A 1_555 1_555
H12A C15A 1_555 1_555
N4A C13A 1_555 1_555
C16A N4A 1_555 1_555
H13A C16A 1_555 1_555
C17A C16A 1_555 1_555
H14A C17A 1_555 1_555
C18A C17A 1_555 1_555
O2A C18A 1_555 1_555
C19A C18A 1_555 1_555
H15A C19A 1_555 1_555
C20A N4A 1_555 1_555
H16A C20A 1_555 1_555
N9A Co1 1_555 1_555
C41A N9A 1_555 1_555
S1A C41A 1_555 1_555
Dy1A O1A 1_555 1_555
N5A C21A 1_555 1_555
C21A H17A 1_555 1_555
C22A C21A 1_555 1_555
H18A C22A 1_555 1_555
C23A C22A 1_555 1_555
C24A C23A 1_555 1_555
H19A C24A 1_555 1_555
C25A N5A 1_555 1_555
H20A C25A 1_555 1_555
N6A C23A 1_555 1_555
C26A N6A 1_555 1_555
H21A C26A 1_555 1_555
C27A C26A 1_555 1_555
H22A C27A 1_555 1_555
O3A Dy1A 1_555 1_555
C28A C27A 1_555 1_555
C29A C28A 1_555 1_555
H23A C29A 1_555 1_555
C30A N6A 1_555 1_555
H24A C30A 1_555 1_555
N7A C31A 1_555 1_555
C31A H25A 1_555 1_555
C32A C31A 1_555 1_555
H26A C32A 1_555 1_555
C33A C32A 1_555 1_555
C34A C33A 1_555 1_555
H27A C34A 1_555 1_555
C35A N7A 1_555 1_555
H28A C35A 1_555 1_555
N8A C33A 1_555 1_555
C36A N8A 1_555 1_555
H29A C36A 1_555 1_555
C37A C36A 1_555 1_555
H30A C37A 1_555 1_555
C38A C37A 1_555 1_555
O4A Dy1A 1_555 1_555
C39A C38A 1_555 1_555
H31A C39A 1_555 1_555
C40A N8A 1_555 1_555
H32A C40A 1_555 1_555
N11A O5A 1_555 1_555
O5A Dy1A 1_555 1_555
O6A Dy1A 1_555 1_555
O7A N11A 1_555 1_555
N12A O8A 1_555 1_555
O8A Dy1A 1_555 1_555
O9A Dy1A 1_555 1_555
O10A N12A 1_555 1_555
O11A Dy1A 1_555 1_555
N10A Co2 1_555 1_555
C42A N10A 1_555 1_555
S2A C42A 1_555 1_555
N13A Co3 1_555 1_555
C43A N13A 1_555 1_555
S3A C43A 1_555 1_555
N14A Co3 1_555 1_555
C44A N14A 1_555 1_555
S4A C44A 1_555 1_555
O2_2 Dy1 1_555 1_555
N5A_2 Co2 1_555 1_555
N7_2 Co2 1_555 1_555
N7A_2 Co2 1_555 1_555
Dy1_2 O2 1_555 1_555
Co2_2 N7 1_555 1_555
Dy1A_2 O2A 1_555 1_555
O2A_2 Dy1A 1_555 1_555
Co2_3 N5A 1_555 1_555
Co2_4 N7A 1_555 1_555
C4 C5 1_555 1_555
C9 C10 1_555 1_555
C14 C15 1_555 1_555
C19 C20 1_555 1_555
C24 C25 1_555 1_555
O3 C28 1_555 1_555
C29 C30 1_555 1_555
C34 C35 1_555 1_555
C38 O4 1_555 1_555
C39 C40 1_555 1_555
N11 O6 1_555 1_555
N12 O9 1_555 1_555
C4A C5A 1_555 1_555
C9A C10A 1_555 1_555
C14A C15A 1_555 1_555
C19A C20A 1_555 1_555
C24A C25A 1_555 1_555
O3A C28A 1_555 1_555
C29A C30A 1_555 1_555
C34A C35A 1_555 1_555
C38A O4A 1_555 1_555
C39A C40A 1_555 1_555
N11A O6A 1_555 1_555
N12A O9A 1_555 1_555

#END
