
#######################################################################
#
#                 Cambridge Crystallographic Data Centre
#                                CCDC 
#
#######################################################################
#
# If this CIF has been generated from an entry in the Cambridge 
# Structural Database, then it will include bibliographic, chemical, 
# crystal, experimental, refinement or atomic coordinate data resulting 
# from the CCDC's data processing and validation procedures.
#
#######################################################################

data_NERNON
_symmetry_cell_setting           monoclinic
_symmetry_space_group_name_H-M   'P 21/n'
_symmetry_Int_Tables_number      14
_space_group_name_Hall           '-P 2yn'
loop_
_symmetry_equiv_pos_site_id
_symmetry_equiv_pos_as_xyz
1 x,y,z
2 1/2+x,1/2-y,1/2+z
3 -x,-y,-z
4 1/2-x,1/2+y,1/2-z
_cell_length_a                   15.169(4)
_cell_length_b                   19.067(2)
_cell_length_c                   24.303(3)
_cell_angle_alpha                90
_cell_angle_beta                 92.657(13)
_cell_angle_gamma                90
_cell_volume                     7021.53
loop_
_atom_site_label
_atom_site_type_symbol
_atom_site_fract_x
_atom_site_fract_y
_atom_site_fract_z
Yb1 Yb 0.21482(5) 0.47482(3) -0.06471(2)
Ni1 Ni 0.23243(13) 0.51261(9) 0.43661(7)
N1 N 0.2168(8) 0.5076(5) 0.3490(4)
C1 C 0.1905(10) 0.5623(6) 0.3176(5)
H1 H 0.1804(10) 0.6052(6) 0.3353(5)
C2 C 0.1775(11) 0.5601(7) 0.2620(5)
H2 H 0.1592(11) 0.6000(7) 0.2419(5)
C3 C 0.1919(9) 0.4968(6) 0.2359(4)
C4 C 0.2181(10) 0.4396(6) 0.2666(4)
H3 H 0.2269(10) 0.3959(6) 0.2498(4)
C5 C 0.2309(9) 0.4475(6) 0.3220(5)
H4 H 0.2509(9) 0.4085(6) 0.3427(5)
N2 N 0.1777(12) 0.4915(9) 0.1767(5)
C6 C 0.0984(12) 0.5084(13) 0.1505(6)
H5 H 0.0526(12) 0.5262(13) 0.1712(6)
C7 C 0.0847(12) 0.5000(12) 0.0954(6)
H6 H 0.0303(12) 0.5139(12) 0.0788(6)
C8 C 0.1489(14) 0.4712(13) 0.0619(7)
C9 C 0.2297(13) 0.4554(12) 0.0909(6)
H7 H 0.2764(13) 0.4375(12) 0.0710(6)
C10 C 0.2429(12) 0.4648(13) 0.1456(6)
H8 H 0.2977(12) 0.4528(13) 0.1627(6)
O1 O 0.1367(12) 0.4637(10) 0.0099(5)
N4 N 0.6518(7) 0.0784(6) -0.0582(4)
C16 C 0.5715(9) 0.0799(6) -0.0825(5)
H13 H 0.5522(9) 0.0409(6) -0.1034(5)
C17 C 0.5160(8) 0.1355(6) -0.0783(6)
H14 H 0.4599(8) 0.1350(6) -0.0964(6)
C18 C 0.5430(8) 0.1920(6) -0.0473(5)
C19 C 0.6256(9) 0.1918(6) -0.0218(6)
H15 H 0.6457(9) 0.2302(6) -0.0003(6)
C20 C 0.6786(9) 0.1338(7) -0.0284(5)
H16 H 0.7355(9) 0.1333(7) -0.0114(5)
N5 N 0.4907(13) 0.2546(9) -0.0399(6)
C21 C 0.4458(14) 0.2832(10) -0.0840(6)
H17 H 0.4507(14) 0.2627(10) -0.1189(6)
C22 C 0.3952(12) 0.3394(9) -0.0788(6)
H18 H 0.3654(12) 0.3581(9) -0.1103(6)
C23 C 0.3850(12) 0.3720(9) -0.0268(6)
C24 C 0.4361(12) 0.3423(8) 0.0167(6)
H19 H 0.4334(12) 0.3624(8) 0.0519(6)
C25 C 0.4888(15) 0.2866(10) 0.0103(6)
H20 H 0.5241(15) 0.2696(10) 0.0403(6)
O3 O 0.3366(9) 0.4259(7) -0.0222(5)
N7 N 0.2461(8) 0.5139(6) -0.4758(4)
C31 C 0.1738(9) 0.5109(8) -0.4467(4)
H25 H 0.1184(9) 0.5144(8) -0.4654(4)
C32 C 0.1771(9) 0.5031(9) -0.3909(5)
H26 H 0.1252(9) 0.5021(9) -0.3712(5)
C33 C 0.2593(10) 0.4968(7) -0.3642(5)
C34 C 0.3338(9) 0.5039(8) -0.3932(5)
H27 H 0.3900(9) 0.5031(8) -0.3751(5)
C35 C 0.3248(10) 0.5122(8) -0.4490(5)
H28 H 0.3758(10) 0.5168(8) -0.4693(5)
N8 N 0.2727(15) 0.4922(14) -0.3039(6)
C36 C 0.3331(16) 0.4475(13) -0.2788(7)
H29 H 0.3681(16) 0.4191(13) -0.3007(7)
C37 C 0.3434(16) 0.4435(13) -0.2234(7)
H30 H 0.3866(16) 0.4131(13) -0.2080(7)
C38 C 0.2921(16) 0.4829(13) -0.1875(8)
C39 C 0.2320(14) 0.5280(12) -0.2152(7)
H31 H 0.1948(14) 0.5556(12) -0.1942(7)
C40 C 0.2251(14) 0.5335(12) -0.2708(6)
H32 H 0.1864(14) 0.5669(12) -0.2869(6)
O5 O 0.3015(14) 0.4784(12) -0.1344(7)
N10 N -0.1880(8) 0.8970(6) -0.0685(4)
C46 C -0.2024(9) 0.8393(6) -0.0400(5)
H37 H -0.2496(9) 0.8392(6) -0.0162(5)
C47 C -0.1525(10) 0.7798(6) -0.0432(5)
H38 H -0.1633(10) 0.7404(6) -0.0212(5)
C48 C -0.0857(9) 0.7795(6) -0.0799(5)
C49 C -0.0695(10) 0.8379(6) -0.1103(6)
H39 H -0.0249(10) 0.8382(6) -0.1358(6)
C50 C -0.1207(10) 0.8962(6) -0.1024(6)
H40 H -0.1080(10) 0.9374(6) -0.1217(6)
N11 N -0.0481(12) 0.7099(7) -0.0897(6)
C51 C -0.0147(15) 0.6734(10) -0.0444(6)
H41 H -0.0270(15) 0.6890(10) -0.0089(6)
C52 C 0.0347(14) 0.6162(10) -0.0503(6)
H42 H 0.0548(14) 0.5916(10) -0.0186(6)
C53 C 0.0580(13) 0.5913(9) -0.1026(6)
C54 C 0.0215(13) 0.6306(9) -0.1472(6)
H43 H 0.0324(13) 0.6162(9) -0.1833(6)
C55 C -0.0285(13) 0.6883(8) -0.1399(6)
H44 H -0.0499(13) 0.7137(8) -0.1709(6)
O7 O 0.1061(12) 0.5381(8) -0.1082(6)
N13 N 0.3404(10) 0.4501(7) 0.4345(5)
C61 C 0.4006(13) 0.4145(10) 0.4416(6)
S1 S 0.4869(5) 0.3621(4) 0.4499(3)
N14 N 0.1214(11) 0.5765(7) 0.4383(6)
C62 C 0.0605(13) 0.6048(10) 0.4208(8)
S2 S -0.0258(4) 0.6439(4) 0.3920(3)
N15 N 0.3121(16) 0.5973(9) -0.0453(10)
O9 O 0.3243(13) 0.5621(9) -0.0874(7)
O10 O 0.2655(12) 0.5719(9) -0.0086(7)
O11 O 0.3518(17) 0.6533(10) -0.0374(10)
N17 N 0.1125(12) 0.3505(10) -0.0826(8)
O15 O 0.0899(12) 0.4089(10) -0.1031(7)
O16 O 0.1874(9) 0.3481(7) -0.0580(5)
O17 O 0.0669(14) 0.2981(9) -0.0882(8)
N4A N 0.1518(7) 0.4216(6) 0.4418(4)
N7_2 N 0.2461(8) 0.5139(6) 0.5242(4)
N10A N 0.3120(8) 0.6030(6) 0.4315(4)
Ni1A Ni 0.73243(13) -0.01261(9) -0.06339(7)
Ni1_2 Ni 0.23243(13) 0.51261(9) -0.56339(7)
Ni1A_2 Ni -0.26757(13) 0.98739(9) -0.06339(7)
N19 N 0.5002(24) 0.8263(19) 0.2186(14)
O21 O 0.5144(35) 0.8907(20) 0.2169(21)
O22 O 0.5654(30) 0.7847(28) 0.2211(26)
O23 O 0.4241(26) 0.8026(24) 0.2185(20)
O27 O 0.5222(41) 0.3637(31) 0.1514(23)
H49 H 0.4785(41) 0.3416(31) 0.1613(23)
C63 C 0.5989(58) 0.3315(45) 0.1750(34)
H50 H 0.5995(58) 0.3312(45) 0.2149(34)
H51 H 0.6500(58) 0.3568(45) 0.1630(34)
H52 H 0.6005(58) 0.2836(45) 0.1616(34)
O28 O 0.3544(19) 0.3203(13) 0.6395(10)
H53 H 0.3594(19) 0.2861(13) 0.6605(10)
C64 C 0.3135(27) 0.3031(22) 0.5939(17)
H54 H 0.3061(27) 0.2525(22) 0.5936(17)
H55 H 0.3474(27) 0.3171(22) 0.5629(17)
H56 H 0.2560(27) 0.3254(22) 0.5912(17)
O29 O 0.4646(20) 0.4983(20) 0.3001(14)
H57 H 0.5136(20) 0.5115(20) 0.3127(14)
C65 C 0.4666(31) 0.4205(32) 0.2913(19)
H58 H 0.5056(31) 0.4103(32) 0.2618(19)
H59 H 0.4076(31) 0.4040(32) 0.2811(19)
H60 H 0.4880(31) 0.3969(32) 0.3247(19)
O30 O 0.1967(26) 0.7713(16) 0.3399(16)
H61 H 0.1603(26) 0.7417(16) 0.3493(16)
C66 C 0.1676(31) 0.8063(21) 0.3056(16)
H62 H 0.1308(31) 0.7779(21) 0.2806(16)
H63 H 0.2135(31) 0.8286(21) 0.2854(16)
H64 H 0.1318(31) 0.8419(21) 0.3223(16)
O31 O 0.1048(24) 0.7224(18) 0.2211(13)
H65 H 0.1320(24) 0.6993(18) 0.1984(13)
C67 C 0.0009(32) 0.7007(27) 0.2217(22)
H66 H -0.0017(32) 0.6511(27) 0.2304(22)
H67 H -0.0261(32) 0.7086(27) 0.1852(22)
H68 H -0.0307(32) 0.7271(27) 0.2486(22)
O32 O 0.7811(36) 0.8118(25) 0.1374(20)
H69 H 0.7675(36) 0.7725(25) 0.1251(20)
C68 C 0.7228(57) 0.8213(47) 0.1705(35)
H70 H 0.6758(57) 0.8467(47) 0.1507(35)
H71 H 0.7507(57) 0.8517(47) 0.1982(35)
H72 H 0.6984(57) 0.7806(47) 0.1883(35)
O33 O 0.7059(52) 0.2536(41) 0.2002(31)
H73 H 0.6870(52) 0.2129(41) 0.2027(31)
C69 C 0.7892(59) 0.2600(48) 0.2279(37)
H74 H 0.8233(59) 0.2968(48) 0.2114(37)
H75 H 0.8201(59) 0.2157(48) 0.2251(37)
H76 H 0.7816(59) 0.2709(48) 0.2664(37)
O36 O 0.6643(30) 0.7528(26) 0.6150(19)
N3? N 0.1730(21) 0.4894(13) 0.1782(6)
C11? C 0.1164(17) 0.5362(13) 0.1526(7)
H9? H 0.0840(17) 0.5674(13) 0.1739(7)
C12? C 0.1067(16) 0.5379(13) 0.0982(7)
H10? H 0.0639(16) 0.5680(13) 0.0819(7)
C13? C 0.1580(17) 0.4965(13) 0.0635(8)
C14? C 0.2133(18) 0.4468(13) 0.0921(8)
H11? H 0.2452(18) 0.4144(13) 0.0717(8)
C15? C 0.2212(18) 0.4449(13) 0.1474(7)
H12? H 0.2601(18) 0.4128(13) 0.1650(7)
O2? O 0.1486(16) 0.4979(12) 0.0122(7)
N6? N -0.0228(15) 0.2525(12) 0.4573(9)
C26? C -0.0759(17) 0.2338(14) 0.4125(8)
H21? H -0.0672(17) 0.2545(14) 0.3781(8)
C27? C -0.1412(15) 0.1857(13) 0.4176(8)
H22? H -0.1750(15) 0.1722(13) 0.3859(8)
C28? C -0.1598(16) 0.1556(13) 0.4681(9)
C29? C -0.1063(15) 0.1799(12) 0.5128(8)
H23? H -0.1155(15) 0.1616(12) 0.5480(8)
C30? C -0.0425(17) 0.2281(14) 0.5075(8)
H24? H -0.0113(17) 0.2450(14) 0.5391(8)
O4? O -0.2220(15) 0.1102(12) 0.4752(9)
N9? N 0.2584(14) 0.4832(13) 0.6932(6)
C41? C 0.2039(18) 0.4322(14) 0.7125(7)
H33? H 0.1650(18) 0.4082(14) 0.6879(7)
C42? C 0.2061(20) 0.4166(15) 0.7660(8)
H34? H 0.1696(20) 0.3804(15) 0.7782(8)
C43? C 0.2611(12) 0.4523(10) 0.8049(7)
C44? C 0.3114(18) 0.5075(14) 0.7829(8)
H35? H 0.3503(18) 0.5329(14) 0.8066(8)
C45? C 0.3050(20) 0.5245(14) 0.7289(8)
H36? H 0.3330(20) 0.5651(14) 0.7163(8)
O6? O 0.2642(11) 0.4370(9) 0.8550(5)
N12? N 0.4834(12) 0.7736(9) 0.4182(7)
C56? C 0.5183(16) 0.8071(11) 0.4622(7)
H45? H 0.5049(16) 0.7921(11) 0.4977(7)
C57? C 0.5729(15) 0.8626(11) 0.4563(7)
H46? H 0.5962(15) 0.8853(11) 0.4881(7)
C58? C 0.5961(14) 0.8876(10) 0.4043(8)
C59? C 0.5592(16) 0.8478(11) 0.3593(8)
H47? H 0.5713(16) 0.8617(11) 0.3234(8)
C60? C 0.5086(16) 0.7921(12) 0.3659(7)
H48? H 0.4897(16) 0.7651(12) 0.3352(7)
O8? O 0.6451(14) 0.9394(11) 0.3969(9)
N16? N 0.3051(23) 0.5938(15) -0.0246(15)
O12? O 0.3298(18) 0.5327(13) -0.0132(11)
O13? O 0.2407(21) 0.6031(17) -0.0576(13)
O14? O 0.3460(21) 0.6453(14) -0.0051(13)
N18? N 0.1005(25) 0.3698(21) -0.1013(13)
O18? O 0.1610(17) 0.3907(14) -0.1305(10)
O19? O 0.0912(18) 0.3966(15) -0.0550(10)
O20? O 0.0498(25) 0.3218(20) -0.1176(16)
N20? N 0.4636(26) 0.5005(22) 0.1214(16)
O24? O 0.4800(49) 0.4373(25) 0.1314(26)
O25? O 0.4710(41) 0.5242(30) 0.0747(20)
O26? O 0.4285(62) 0.5366(38) 0.1577(26)
O34? O 0.5256(16) 0.9447(15) 0.2180(8)
O35? O 0.5864(40) 0.8490(33) 0.2015(23)
O37? O 0.6242(60) 0.7140(49) 0.4937(37)
loop_
_geom_bond_atom_site_label_1
_geom_bond_atom_site_label_2
_geom_bond_site_symmetry_1
_geom_bond_site_symmetry_2
Yb1 O1 1_555 1_555
Ni1 N1 1_555 1_555
N1 C1 1_555 1_555
C1 H1 1_555 1_555
C2 C1 1_555 1_555
H2 C2 1_555 1_555
C3 C2 1_555 1_555
C4 C3 1_555 1_555
H3 C4 1_555 1_555
C5 N1 1_555 1_555
H4 C5 1_555 1_555
N2 C3 1_555 1_555
C6 N2 1_555 1_555
H5 C6 1_555 1_555
C7 C6 1_555 1_555
H6 C7 1_555 1_555
C8 C7 1_555 1_555
C9 C8 1_555 1_555
H7 C9 1_555 1_555
C10 N2 1_555 1_555
H8 C10 1_555 1_555
O1 C8 1_555 1_555
N4 C16 1_555 1_555
C16 H13 1_555 1_555
C17 C16 1_555 1_555
H14 C17 1_555 1_555
C18 C17 1_555 1_555
C19 C18 1_555 1_555
H15 C19 1_555 1_555
C20 N4 1_555 1_555
H16 C20 1_555 1_555
N5 C18 1_555 1_555
C21 N5 1_555 1_555
H17 C21 1_555 1_555
C22 C21 1_555 1_555
H18 C22 1_555 1_555
C23 C22 1_555 1_555
C24 C23 1_555 1_555
H19 C24 1_555 1_555
C25 N5 1_555 1_555
H20 C25 1_555 1_555
O3 Yb1 1_555 1_555
N7 C31 1_555 1_555
C31 H25 1_555 1_555
C32 C31 1_555 1_555
H26 C32 1_555 1_555
C33 C32 1_555 1_555
C34 C33 1_555 1_555
H27 C34 1_555 1_555
C35 N7 1_555 1_555
H28 C35 1_555 1_555
N8 C33 1_555 1_555
C36 N8 1_555 1_555
H29 C36 1_555 1_555
C37 C36 1_555 1_555
H30 C37 1_555 1_555
C38 C37 1_555 1_555
C39 C38 1_555 1_555
H31 C39 1_555 1_555
C40 N8 1_555 1_555
H32 C40 1_555 1_555
O5 Yb1 1_555 1_555
N10 C46 1_555 1_555
C46 H37 1_555 1_555
C47 C46 1_555 1_555
H38 C47 1_555 1_555
C48 C47 1_555 1_555
C49 C48 1_555 1_555
H39 C49 1_555 1_555
C50 N10 1_555 1_555
H40 C50 1_555 1_555
N11 C48 1_555 1_555
C51 N11 1_555 1_555
H41 C51 1_555 1_555
C52 C51 1_555 1_555
H42 C52 1_555 1_555
C53 C52 1_555 1_555
C54 C53 1_555 1_555
H43 C54 1_555 1_555
C55 N11 1_555 1_555
H44 C55 1_555 1_555
O7 Yb1 1_555 1_555
N13 Ni1 1_555 1_555
C61 N13 1_555 1_555
S1 C61 1_555 1_555
N14 Ni1 1_555 1_555
C62 N14 1_555 1_555
S2 C62 1_555 1_555
N15 O9 1_555 1_555
O9 Yb1 1_555 1_555
O10 Yb1 1_555 1_555
O11 N15 1_555 1_555
N17 O15 1_555 1_555
O15 Yb1 1_555 1_555
O16 Yb1 1_555 1_555
O17 N17 1_555 1_555
N19 O21 1_555 1_555
O22 N19 1_555 1_555
O23 N19 1_555 1_555
O27 H49 1_555 1_555
C63 O27 1_555 1_555
H50 C63 1_555 1_555
H51 C63 1_555 1_555
H52 C63 1_555 1_555
O28 H53 1_555 1_555
C64 O28 1_555 1_555
H54 C64 1_555 1_555
H55 C64 1_555 1_555
H56 C64 1_555 1_555
O29 H57 1_555 1_555
C65 O29 1_555 1_555
H58 C65 1_555 1_555
H59 C65 1_555 1_555
H60 C65 1_555 1_555
O30 H61 1_555 1_555
C66 O30 1_555 1_555
H62 C66 1_555 1_555
H63 C66 1_555 1_555
H64 C66 1_555 1_555
O31 H65 1_555 1_555
C67 O31 1_555 1_555
H66 C67 1_555 1_555
H67 C67 1_555 1_555
H68 C67 1_555 1_555
O32 H69 1_555 1_555
C68 O32 1_555 1_555
H70 C68 1_555 1_555
H71 C68 1_555 1_555
H72 C68 1_555 1_555
O33 H73 1_555 1_555
C69 O33 1_555 1_555
H74 C69 1_555 1_555
H75 C69 1_555 1_555
H76 C69 1_555 1_555
N4A Ni1 1_555 1_555
N7_2 Ni1 1_555 1_555
N10A Ni1 1_555 1_555
Ni1A N4 1_555 1_555
Ni1_2 N7 1_555 1_555
Ni1A_2 N10 1_555 1_555
C4 C5 1_555 1_555
C9 C10 1_555 1_555
C19 C20 1_555 1_555
C23 O3 1_555 1_555
C24 C25 1_555 1_555
C34 C35 1_555 1_555
C38 O5 1_555 1_555
C39 C40 1_555 1_555
C49 C50 1_555 1_555
C53 O7 1_555 1_555
C54 C55 1_555 1_555
N15 O10 1_555 1_555
N17 O16 1_555 1_555

#END
