
#######################################################################
#
#                 Cambridge Crystallographic Data Centre
#                                CCDC 
#
#######################################################################
#
# If this CIF has been generated from an entry in the Cambridge 
# Structural Database, then it will include bibliographic, chemical, 
# crystal, experimental, refinement or atomic coordinate data resulting 
# from the CCDC's data processing and validation procedures.
#
#######################################################################

data_NERQAE
_symmetry_cell_setting           monoclinic
_symmetry_space_group_name_H-M   'C 2/m'
_symmetry_Int_Tables_number      12
_space_group_name_Hall           '-C 2y'
loop_
_symmetry_equiv_pos_site_id
_symmetry_equiv_pos_as_xyz
1 x,y,z
2 -x,y,-z
3 1/2+x,1/2+y,z
4 1/2-x,1/2+y,-z
5 -x,-y,-z
6 x,-y,z
7 1/2-x,1/2-y,-z
8 1/2+x,1/2-y,z
_cell_length_a                   6.9114(4)
_cell_length_b                   14.2740(7)
_cell_length_c                   7.1941(4)
_cell_angle_alpha                90
_cell_angle_beta                 92.313(5)
_cell_angle_gamma                90
_cell_volume                     709.144
loop_
_atom_site_label
_atom_site_type_symbol
_atom_site_fract_x
_atom_site_fract_y
_atom_site_fract_z
N1 N 0.08954(14) 0.04619(7) 0.36195(13)
C1 C 0.0000 0.09005(11) 0.5000
C2 C 0.0000 0.19233(11) 0.5000
N2 N 0.03519(15) 0.24435(7) 0.35044(13)
N3 N 0.02055(15) 0.33229(7) 0.41139(14)
O1 O 0.25398(13) 0.13518(6) 0.02453(14)
Na1 Na 0.0000 0.24757(4) 0.0000
H1 H 0.229(3) 0.1148(12) 0.124(3)
H2 H 0.275(2) 0.0896(14) -0.038(2)
N1E N 0.08954(14) -0.04619(7) 0.36195(13)
N1D N -0.08954(14) -0.04619(7) 0.63805(13)
N1A N -0.08954(14) 0.04619(7) 0.63805(13)
C1D C 0.0000 -0.09005(11) 0.5000
C2D C 0.0000 -0.19233(11) 0.5000
N2A N -0.03519(15) 0.24435(7) 0.64956(13)
N2E N 0.03519(15) -0.24435(7) 0.35044(13)
N2D N -0.03519(15) -0.24435(7) 0.64956(13)
N2A_2 N -0.03519(15) 0.24435(7) -0.35044(13)
N2_2 N 0.03519(15) 0.24435(7) 1.35044(13)
N3A N -0.02055(15) 0.33229(7) 0.58861(14)
N3E N 0.02055(15) -0.33229(7) 0.41139(14)
N3D N -0.02055(15) -0.33229(7) 0.58861(14)
O1F O 0.24602(13) 0.36482(6) -0.02453(14)
O1A O -0.25398(13) 0.13518(6) -0.02453(14)
O1G O -0.24602(13) 0.36482(6) 0.02453(14)
O1A_2 O -0.25398(13) 0.13518(6) 0.97547(14)
O1G_2 O -0.24602(13) 0.36482(6) 1.02453(14)
O1_2 O 0.25398(13) 0.13518(6) 1.02453(14)
O1F_2 O 0.24602(13) 0.36482(6) 0.97547(14)
Na1_2 Na 0.0000 0.24757(4) 1.0000
Na1F Na 0.5000 0.25243(4) 0.0000
Na1D Na 0.0000 -0.24757(4) 0.0000
Na1D_2 Na 0.0000 -0.24757(4) 1.0000
Na1F_2 Na -0.5000 0.25243(4) 0.0000
H1F H 0.271(3) 0.3852(12) -0.124(3)
H1A H -0.229(3) 0.1148(12) -0.124(3)
H1G H -0.271(3) 0.3852(12) 0.124(3)
H1A_2 H -0.229(3) 0.1148(12) 0.876(3)
H1G_2 H -0.271(3) 0.3852(12) 1.124(3)
H1_2 H 0.229(3) 0.1148(12) 1.124(3)
H1F_2 H 0.271(3) 0.3852(12) 0.876(3)
H2F H 0.225(2) 0.4104(14) 0.038(2)
H2A H -0.275(2) 0.0896(14) 0.038(2)
H2G H -0.225(2) 0.4104(14) -0.038(2)
H2A_2 H -0.275(2) 0.0896(14) 1.038(2)
H2G_2 H -0.225(2) 0.4104(14) 0.962(2)
H2_2 H 0.275(2) 0.0896(14) 0.962(2)
H2F_2 H 0.225(2) 0.4104(14) 1.038(2)
O2 O 0.1424(2) 0.5000 0.24688(18)
H3 H 0.093(3) 0.4516(11) 0.296(3)
H3E H 0.093(3) 0.5484(11) 0.296(3)
loop_
_geom_bond_atom_site_label_1
_geom_bond_atom_site_label_2
_geom_bond_site_symmetry_1
_geom_bond_site_symmetry_2
N1 C1 1_555 1_555
C1 C2 1_555 1_555
C2 N2 1_555 1_555
N2 N3 1_555 1_555
N3 N3A 1_555 1_555
O1 Na1 1_555 1_555
O2 H3 1_555 1_555
Na1 N2 1_555 1_555
H1 O1 1_555 1_555
H2 O1 1_555 1_555
N1E N1 1_555 1_555
N1D N1A 1_555 1_555
N1A C1 1_555 1_555
C1D N1E 1_555 1_555
C2D C1D 1_555 1_555
N2A C2 1_555 1_555
N2E C2D 1_555 1_555
N2D C2D 1_555 1_555
N2A_2 Na1 1_555 1_555
N2_2 Na1_2 1_555 1_555
N3A N2A 1_555 1_555
N3E N2E 1_555 1_555
N3D N2D 1_555 1_555
O1F Na1 1_555 1_555
O1A Na1 1_555 1_555
O1G Na1 1_555 1_555
O1A_2 Na1_2 1_555 1_555
O1G_2 Na1_2 1_555 1_555
O1_2 Na1_2 1_555 1_555
O1F_2 Na1_2 1_555 1_555
Na1_2 N2A 1_555 1_555
Na1F O1 1_555 1_555
Na1D N2E 1_555 1_555
Na1D_2 N2D 1_555 1_555
Na1F_2 O1A 1_555 1_555
H1F O1F 1_555 1_555
H1A O1A 1_555 1_555
H1G O1G 1_555 1_555
H1A_2 O1A_2 1_555 1_555
H1G_2 O1G_2 1_555 1_555
H1_2 O1_2 1_555 1_555
H1F_2 O1F_2 1_555 1_555
H2F O1F 1_555 1_555
H2A O1A 1_555 1_555
H2G O1G 1_555 1_555
H2A_2 O1A_2 1_555 1_555
H2G_2 O1G_2 1_555 1_555
H2_2 O1_2 1_555 1_555
H2F_2 O1F_2 1_555 1_555
H3E O2 1_555 1_555
N1D C1D 1_555 1_555
N3E N3D 1_555 1_555
O1F Na1F 1_555 1_555
O1G Na1F_2 1_555 1_555

#END
