
#######################################################################
#
#                 Cambridge Crystallographic Data Centre
#                                CCDC 
#
#######################################################################
#
# If this CIF has been generated from an entry in the Cambridge 
# Structural Database, then it will include bibliographic, chemical, 
# crystal, experimental, refinement or atomic coordinate data resulting 
# from the CCDC's data processing and validation procedures.
#
#######################################################################

data_NERQOS
_symmetry_cell_setting           triclinic
_symmetry_space_group_name_H-M   'P -1'
_symmetry_Int_Tables_number      2
_space_group_name_Hall           '-P 1'
loop_
_symmetry_equiv_pos_site_id
_symmetry_equiv_pos_as_xyz
1 x,y,z
2 -x,-y,-z
_cell_length_a                   8.3992(16)
_cell_length_b                   8.8380(15)
_cell_length_c                   9.3355(17)
_cell_angle_alpha                101.08(2)
_cell_angle_beta                 111.94(2)
_cell_angle_gamma                111.86(2)
_cell_volume                     550.638
loop_
_atom_site_label
_atom_site_type_symbol
_atom_site_fract_x
_atom_site_fract_y
_atom_site_fract_z
Bi1 Bi 0.04981(4) 0.12907(3) 0.23351(3)
O1 O 0.1840(9) 0.0288(8) 0.4612(8)
O2 O 0.4061(11) 0.2970(10) 0.5181(10)
O3 O 0.9067(9) 0.1304(8) 0.9178(8)
O4 O 0.7732(10) 0.1609(8) 1.0774(8)
C1 C 0.3521(14) 0.1600(12) 0.5468(12)
C2 C 0.4967(13) 0.1500(12) 0.6896(12)
C3 C 0.6196(13) 0.1486(12) 0.8060(12)
C4 C 0.7765(12) 0.1452(10) 0.9431(10)
O5 O 0.3380(10) 0.2247(8) 0.1091(9)
O6 O 0.1994(10) 0.1404(8) -0.1709(9)
C5 C 0.3202(13) 0.2510(10) -0.0208(12)
C6 C 0.4508(15) 0.4282(12) -0.0060(12)
O7 O 0.1989(10) 0.4524(8) 0.3143(10)
O8 O -0.0447(9) 0.2125(8) 0.4172(8)
Bi1_2 Bi -0.95019(4) 0.12907(3) -0.76649(3)
Bi1_3 Bi 1.04981(4) 0.12907(3) 1.23351(3)
Bi1A Bi 0.95019(4) -0.12907(3) 0.76649(3)
Bi1A_2 Bi -0.04981(4) -0.12907(3) -0.23351(3)
Bi1A_3 Bi 0.95019(4) 0.87093(3) -0.23351(3)
Bi1_4 Bi 1.04981(4) 1.12907(3) 0.23351(3)
O1_2 O -0.8160(9) 0.0288(8) -0.5388(8)
O2_2 O -0.5939(11) 0.2970(10) -0.4819(10)
O3_2 O -0.0933(9) 0.1304(8) -0.0822(8)
O3A O 0.0933(9) -0.1304(8) 0.0822(8)
O3_3 O -1.0933(9) 0.1304(8) -1.0822(8)
O3A_2 O -0.9067(9) -0.1304(8) -0.9178(8)
O4_2 O -0.2268(10) 0.1609(8) 0.0774(8)
O4_3 O -1.2268(10) 0.1609(8) -0.9226(8)
C1_2 C -0.6479(14) 0.1600(12) -0.4532(12)
C2_2 C -0.5033(13) 0.1500(12) -0.3104(12)
C3_2 C -0.3804(13) 0.1486(12) -0.1940(12)
C4_2 C -0.2235(12) 0.1452(10) -0.0569(10)
O5A O 0.6620(10) 0.7753(8) -0.1091(9)
O5_2 O -0.6620(10) 0.2247(8) -0.8909(9)
O6A O 0.8006(10) 0.8596(8) 0.1709(9)
O6A_2 O -0.1994(10) -0.1404(8) 0.1709(9)
O6A_3 O -1.1994(10) -0.1404(8) -0.8291(9)
C5A C 0.6798(13) 0.7490(10) 0.0208(12)
C6A C 0.5492(15) 0.5718(12) 0.0060(12)
O7_2 O -0.8011(10) 0.4524(8) -0.6857(10)
O8_2 O -1.0447(9) 0.2125(8) -0.5828(8)
O9 O 0.7455(12) 0.3789(10) 0.3500(10)
O10 O 0.0324(15) 0.4184(13) -0.2018(15)
loop_
_geom_bond_atom_site_label_1
_geom_bond_atom_site_label_2
_geom_bond_site_symmetry_1
_geom_bond_site_symmetry_2
Bi1 O1 1_555 1_555
O1 C1 1_555 1_555
O2 Bi1 1_555 1_555
O3 C4 1_555 1_555
O4 C4 1_555 1_555
C1 O2 1_555 1_555
C2 C1 1_555 1_555
C3 C2 1_555 1_555
C4 C3 1_555 1_555
O5 Bi1 1_555 1_555
O6 C5 1_555 1_555
C5 O5 1_555 1_555
C6 C5 1_555 1_555
O7 Bi1 1_555 1_555
O8 Bi1 1_555 1_555
Bi1_2 O1_2 1_555 1_555
Bi1_3 O3 1_555 1_555
Bi1A O3 1_555 1_555
Bi1A_2 O6 1_555 1_555
Bi1A_3 O5A 1_555 1_555
Bi1_4 O6A 1_555 1_555
O1_2 C1_2 1_555 1_555
O2_2 Bi1_2 1_555 1_555
O3_2 Bi1 1_555 1_555
O3A Bi1 1_555 1_555
O3_3 Bi1_2 1_555 1_555
O3A_2 Bi1_2 1_555 1_555
O4_2 Bi1 1_555 1_555
O4_3 Bi1_2 1_555 1_555
C1_2 O2_2 1_555 1_555
C2_2 C1_2 1_555 1_555
C3_2 C2_2 1_555 1_555
C4_2 O3_2 1_555 1_555
O5A C5A 1_555 1_555
O5_2 Bi1_2 1_555 1_555
O6A C5A 1_555 1_555
O6A_2 Bi1 1_555 1_555
O6A_3 Bi1_2 1_555 1_555
C5A C6A 1_555 1_555
C6A C6 1_555 1_555
O7_2 Bi1_2 1_555 1_555
O8_2 Bi1_2 1_555 1_555
O4 Bi1_3 1_555 1_555
Bi1A_2 O3_2 1_555 1_555
Bi1A_2 O3A 1_555 1_555
O4_2 C4_2 1_555 1_555
C3_2 C4_2 1_555 1_555

#END
