
#######################################################################
#
#                 Cambridge Crystallographic Data Centre
#                                CCDC 
#
#######################################################################
#
# If this CIF has been generated from an entry in the Cambridge 
# Structural Database, then it will include bibliographic, chemical, 
# crystal, experimental, refinement or atomic coordinate data resulting 
# from the CCDC's data processing and validation procedures.
#
#######################################################################

data_NERQUY
_symmetry_cell_setting           triclinic
_symmetry_space_group_name_H-M   'P -1'
_symmetry_Int_Tables_number      2
_space_group_name_Hall           '-P 1'
loop_
_symmetry_equiv_pos_site_id
_symmetry_equiv_pos_as_xyz
1 x,y,z
2 -x,-y,-z
_cell_length_a                   8.175(3)
_cell_length_b                   8.643(3)
_cell_length_c                   9.196(3)
_cell_angle_alpha                96.93(4)
_cell_angle_beta                 114.33(4)
_cell_angle_gamma                109.40(4)
_cell_volume                     532.782
loop_
_atom_site_label
_atom_site_type_symbol
_atom_site_fract_x
_atom_site_fract_y
_atom_site_fract_z
Bi1 Bi 0.61782(4) 0.02676(4) 0.28849(4)
O1 O 0.7048(10) -0.1797(10) 0.4425(9)
C1 C 1.0262(17) 0.3197(14) 0.8176(12)
O2 O 0.8836(12) 0.0132(11) 0.2579(10)
C2 C 0.8122(15) -0.0153(14) 0.0972(13)
O3 O 0.4903(13) 0.2441(12) 0.3621(11)
O4 O 0.8917(11) 0.1957(10) 0.5334(9)
C3 C 0.9501(16) -0.0057(15) 0.0333(13)
O5 O 1.4150(15) 0.5115(12) 1.2264(10)
C4 C 0.8568(17) 0.2034(13) 0.6574(13)
O6 O 0.6917(12) 0.1262(12) 0.6416(11)
C5 C 1.1640(19) 0.4194(16) 0.9446(14)
C6 C 1.3394(17) 0.5524(14) 1.0964(13)
O7 O 0.7558(11) 0.2869(10) 0.2403(9)
O8 O 1.3988(14) 0.6992(10) 1.0805(10)
O10 O 0.6428(11) -0.0419(12) 0.0033(9)
H1 H 0.893(4) 0.347(13) 0.320(8)
H2 H 0.822(13) -0.18(2) 0.438(18)
H3 H 0.694(13) 0.274(13) 0.123(4)
H5 H 0.46(2) 0.320(14) 0.297(15)
Bi1A Bi 1.38218(4) -0.02676(4) -0.28849(4)
Bi1A_2 Bi 0.38218(4) -0.02676(4) 0.71151(4)
Bi1_2 Bi 1.61782(4) 1.02676(4) 1.28849(4)
Bi1A_3 Bi 0.38218(4) -0.02676(4) -0.28849(4)
Bi1_3 Bi 1.61782(4) 0.02676(4) 0.28849(4)
Bi1A_4 Bi -0.61782(4) -1.02676(4) -0.28849(4)
O1A O 1.2952(10) 0.1797(10) -0.4425(9)
C1A C -0.0262(17) -0.3197(14) 0.1824(12)
O2A O 1.1164(12) -0.0132(11) -0.2579(10)
C2A C 1.1878(15) 0.0153(14) -0.0972(13)
O3A O 1.5097(13) -0.2441(12) -0.3621(11)
O4A O 0.1083(11) -0.1957(10) 0.4666(9)
O4A_2 O 1.1083(11) -0.1957(10) -0.5334(9)
C3A C 1.0499(16) 0.0057(15) -0.0333(13)
O5A O -0.4150(15) -0.5115(12) -0.2264(10)
C4A C 0.1432(17) -0.2034(13) 0.3426(13)
O6A O 0.3083(12) -0.1262(12) 0.3584(11)
O6A_2 O 1.3083(12) -0.1262(12) -0.6416(11)
O6_2 O 1.6917(12) 0.1262(12) -0.3584(11)
C5A C -0.1640(19) -0.4194(16) 0.0554(14)
C6A C -0.3394(17) -0.5524(14) -0.0964(13)
O7A O 1.2442(11) -0.2869(10) -0.2403(9)
O8A O -0.3988(14) -0.6992(10) -0.0805(10)
O8_2 O 0.3988(14) -0.3008(10) 0.0805(10)
O8A_2 O 1.6012(14) 0.3008(10) -0.0805(10)
O10A O 1.3572(11) 0.0419(12) -0.0033(9)
O10A_2 O 0.3572(11) 0.0419(12) -0.0033(9)
O10_2 O 1.6428(11) -0.0419(12) 0.0033(9)
H1A H 1.107(4) -0.347(13) -0.320(8)
H2A H 1.178(13) 0.18(2) -0.438(18)
H3A H 1.306(13) -0.274(13) -0.123(4)
H5A H 1.54(2) -0.320(14) -0.297(15)
O9 O 0.8417(15) -0.4348(13) 0.6116(14)
H4 H 0.80(2) -0.528(13) 0.518(14)
loop_
_geom_bond_atom_site_label_1
_geom_bond_atom_site_label_2
_geom_bond_site_symmetry_1
_geom_bond_site_symmetry_2
Bi1 O1 1_555 1_555
O1 H2 1_555 1_555
C1 C4 1_555 1_555
O2 Bi1 1_555 1_555
C2 O2 1_555 1_555
O3 Bi1 1_555 1_555
O4 Bi1 1_555 1_555
C3 C2 1_555 1_555
O5 C6 1_555 1_555
C4 O4 1_555 1_555
O6 Bi1 1_555 1_555
C5 C1 1_555 1_555
C6 C5 1_555 1_555
O7 Bi1 1_555 1_555
O8 C6 1_555 1_555
O9 H4 1_555 1_555
O10 Bi1 1_555 1_555
H1 O7 1_555 1_555
H3 O7 1_555 1_555
H5 O3 1_555 1_555
Bi1A O1A 1_555 1_555
Bi1A_2 O6 1_555 1_555
Bi1_2 O8 1_555 1_555
Bi1A_3 O10 1_555 1_555
Bi1_3 O10A 1_555 1_555
Bi1A_4 O8A 1_555 1_555
O1A H2A 1_555 1_555
C1A C4A 1_555 1_555
O2A Bi1A 1_555 1_555
C2A O2A 1_555 1_555
O3A Bi1A 1_555 1_555
O4A Bi1A_2 1_555 1_555
O4A_2 Bi1A 1_555 1_555
C3A C3 1_555 1_555
O5A C6A 1_555 1_555
C4A O4A 1_555 1_555
O6A Bi1 1_555 1_555
O6A_2 Bi1A 1_555 1_555
O6_2 Bi1A 1_555 1_555
C5A C1A 1_555 1_555
C6A C5A 1_555 1_555
O7A Bi1A 1_555 1_555
O8A C6A 1_555 1_555
O8_2 Bi1 1_555 1_555
O8A_2 Bi1A 1_555 1_555
O10A Bi1A 1_555 1_555
O10A_2 Bi1 1_555 1_555
O10_2 Bi1A 1_555 1_555
H1A O7A 1_555 1_555
H3A O7A 1_555 1_555
H5A O3A 1_555 1_555
C2 O10 1_555 1_555
C4 O6 1_555 1_555
Bi1A_2 O6A 1_555 1_555
Bi1A_3 O10A_2 1_555 1_555
Bi1_3 O10_2 1_555 1_555
C2A C3A 1_555 1_555
C2A O10A 1_555 1_555
C4A O6A 1_555 1_555

#END
