
#######################################################################
#
#                 Cambridge Crystallographic Data Centre
#                                CCDC 
#
#######################################################################
#
# If this CIF has been generated from an entry in the Cambridge 
# Structural Database, then it will include bibliographic, chemical, 
# crystal, experimental, refinement or atomic coordinate data resulting 
# from the CCDC's data processing and validation procedures.
#
#######################################################################

data_NERQAC
_symmetry_cell_setting           monoclinic
_symmetry_space_group_name_H-M   'C 2/c'
_symmetry_Int_Tables_number      15
_space_group_name_Hall           '-C 2yn'
loop_
_symmetry_equiv_pos_site_id
_symmetry_equiv_pos_as_xyz
1 x,y,z
2 1/2+x,1/2+y,z
3 x,-y,1/2+z
4 1/2+x,1/2-y,1/2+z
5 -x,-y,-z
6 1/2-x,1/2-y,-z
7 -x,y,1/2-z
8 1/2-x,1/2+y,1/2-z
_cell_length_a                   28.419(14)
_cell_length_b                   9.572(3)
_cell_length_c                   24.162(13)
_cell_angle_alpha                90
_cell_angle_beta                 90.78
_cell_angle_gamma                90
_cell_volume                     6572.1
loop_
_atom_site_label
_atom_site_type_symbol
_atom_site_fract_x
_atom_site_fract_y
_atom_site_fract_z
Zn1 Zn 0.316561(19) 0.70560(7) 0.22002(2)
Zn2 Zn 0.254755(19) 0.76370(6) 0.10795(2)
Zn3 Zn 0.256466(19) 1.00168(7) 0.20490(3)
N1 N 0.24527(14) 0.5663(4) 0.07751(17)
O1 O 0.25669(10) 0.7903(3) 0.18910(13)
H1 H 0.2329 0.7520 0.2037
O2 O 0.29909(12) 0.5373(4) 0.25402(15)
H2 H 0.3136 0.4651 0.2430
O3 O 0.34922(12) 0.6715(4) 0.14917(15)
O4 O 0.31921(11) 0.8086(4) 0.08179(14)
O5 O 0.53555(12) 0.7920(5) 0.01478(17)
O6 O 0.72225(13) 0.5442(4) 0.12568(16)
O7 O 0.70121(12) 0.3629(4) 0.07363(15)
O8 O 0.68581(12) 1.0713(4) 0.32687(15)
O9 O 0.69271(14) 1.2624(4) 0.27582(19)
O10 O 0.48263(13) 1.3053(5) 0.3685(2)
O11 O 0.30108(13) 0.9670(5) 0.28514(16)
O12 O 0.35966(15) 0.8236(5) 0.25955(19)
C1 C 0.35351(17) 0.7463(5) 0.1063(2)
C2 C 0.40184(16) 0.7593(5) 0.0822(2)
C3 C 0.41019(17) 0.8360(6) 0.0342(2)
H3 H 0.3845 0.8821 0.0156
C4 C 0.45507(18) 0.8452(6) 0.0130(2)
H4 H 0.4607 0.8993 -0.0197
C5 C 0.49229(18) 0.7767(6) 0.0392(2)
C6 C 0.4847(2) 0.6980(7) 0.0869(3)
H5 H 0.5101 0.6485 0.1045
C7 C 0.43936(19) 0.6910(7) 0.1072(2)
H6 H 0.4338 0.6376 0.1401
C8 C 0.57441(18) 0.7136(7) 0.0350(2)
C9 C 0.6029(2) 0.7699(7) 0.0762(3)
H7 H 0.5957 0.8590 0.0922
C10 C 0.6419(2) 0.6953(6) 0.0934(2)
H8 H 0.6620 0.7321 0.1222
C11 C 0.65322(16) 0.5681(5) 0.0702(2)
C12 C 0.62447(18) 0.5157(6) 0.0283(2)
H9 H 0.6323 0.4277 0.0117
C13 C 0.5847(2) 0.5885(7) 0.0106(3)
H10 H 0.5648 0.5521 -0.0184
C14 C 0.69513(17) 0.4870(6) 0.0919(2)
C15 C 0.67074(18) 1.1875(6) 0.3081(2)
C16 C 0.62220(16) 1.2277(5) 0.3270(2)
C17 C 0.59703(19) 1.3330(6) 0.2998(3)
H11 H 0.6118 1.3873 0.2716
C18 C 0.5503(2) 1.3585(6) 0.3142(3)
H12 H 0.5320 1.4292 0.2958
C19 C 0.53048(18) 1.2800(7) 0.3559(3)
C20 C 0.5551(2) 1.1792(7) 0.3842(2)
H13 H 0.5405 1.1286 0.4136
C21 C 0.60122(18) 1.1532(6) 0.3694(2)
H14 H 0.6190 1.0824 0.3884
C22 C 0.45071(18) 1.2082(6) 0.3478(2)
C23 C 0.40371(19) 1.2294(7) 0.3616(3)
H15 H 0.3957 1.3062 0.3852
C24 C 0.36935(19) 1.1407(7) 0.3409(3)
H16 H 0.3370 1.1547 0.3506
C25 C 0.38127(18) 1.0295(6) 0.3072(2)
C26 C 0.42825(19) 1.0071(7) 0.2948(2)
H17 H 0.4368 0.9284 0.2724
C27 C 0.46278(19) 1.0975(6) 0.3151(3)
H18 H 0.4952 1.0820 0.3065
C28 C 0.3437(2) 0.9341(7) 0.2831(2)
C29 C 0.22182(17) 0.5523(6) 0.0296(2)
H19 H 0.2037 0.6303 0.0162
C30 C 0.22218(17) 0.4304(6) -0.0012(2)
H20 H 0.2043 0.4242 -0.0350
C31 C 0.24840(17) 0.3154(5) 0.0164(2)
C32 C 0.2704(2) 0.3294(6) 0.0678(2)
H21 H 0.2871 0.2512 0.0833
C33 C 0.2684(2) 0.4544(6) 0.0966(2)
H22 H 0.2846 0.4618 0.1316
C31E C 0.25160(17) 0.1846(5) -0.0164(2)
C30E C 0.27782(17) 0.0696(6) 0.0012(2)
C29E C 0.27818(17) -0.0523(6) -0.0296(2)
N1E N 0.25473(14) -0.0663(4) -0.07751(17)
C33E C 0.2316(2) 0.0456(6) -0.0966(2)
C32E C 0.2296(2) 0.1706(6) -0.0678(2)
H21E H 0.2129 0.2488 -0.0833
H22E H 0.2154 0.0382 -0.1316
H19E H 0.2963 -0.1303 -0.0162
H20E H 0.2957 0.0758 0.0350
Zn2A Zn 0.754755(19) 0.26370(6) 0.10795(2)
Zn3G Zn 0.243534(19) 0.50168(7) 0.29510(3)
O3A O -0.15078(12) 1.1715(4) 0.14917(15)
O4A O -0.18079(11) 1.3086(4) 0.08179(14)
O5A O 0.03555(12) 1.2920(5) 0.01478(17)
O6A O 0.22225(13) 1.0442(4) 0.12568(16)
O7A O 0.20121(12) 0.8629(4) 0.07363(15)
C1A C -0.14649(17) 1.2463(5) 0.1063(2)
C2A C -0.09816(16) 1.2593(5) 0.0822(2)
C3A C -0.08981(17) 1.3360(6) 0.0342(2)
H3A H -0.1155 1.3821 0.0156
C4A C -0.04493(18) 1.3452(6) 0.0130(2)
H4A H -0.0393 1.3993 -0.0197
C5A C -0.00771(18) 1.2767(6) 0.0392(2)
C6A C -0.0153(2) 1.1980(7) 0.0869(3)
H5A H 0.0101 1.1485 0.1045
C7A C -0.06064(19) 1.1910(7) 0.1072(2)
H6A H -0.0662 1.1376 0.1401
C8A C 0.07441(18) 1.2136(7) 0.0350(2)
C9A C 0.1029(2) 1.2699(7) 0.0762(3)
H7A H 0.0957 1.3590 0.0922
C10A C 0.1419(2) 1.1953(6) 0.0934(2)
H8A H 0.1620 1.2321 0.1222
C11A C 0.15322(16) 1.0681(5) 0.0702(2)
C12A C 0.12447(18) 1.0157(6) 0.0283(2)
H9A H 0.1323 0.9277 0.0117
C13A C 0.0847(2) 1.0885(7) 0.0106(3)
H10A H 0.0648 1.0521 -0.0184
C14A C 0.19513(17) 0.9870(6) 0.0919(2)
O2G O 0.20091(12) 1.0373(4) 0.24598(15)
H2G H 0.1864 0.9651 0.2570
O8F O 0.31419(12) 1.0713(4) 0.17313(15)
O9F O 0.30729(14) 1.2624(4) 0.22418(19)
O10F O 0.51737(13) 1.3053(5) 0.1315(2)
O11F O 0.69892(13) 0.9670(5) 0.21486(16)
O12F O 0.64034(15) 0.8236(5) 0.24045(19)
C15F C 0.32926(18) 1.1875(6) 0.1919(2)
C16F C 0.37780(16) 1.2277(5) 0.1730(2)
C17F C 0.40297(19) 1.3330(6) 0.2002(3)
H11F H 0.3882 1.3873 0.2284
C18F C 0.4497(2) 1.3585(6) 0.1858(3)
H12F H 0.4680 1.4292 0.2042
C19F C 0.46952(18) 1.2800(7) 0.1441(3)
C20F C 0.4449(2) 1.1792(7) 0.1158(2)
H13F H 0.4595 1.1286 0.0864
C21F C 0.39878(18) 1.1532(6) 0.1306(2)
H14F H 0.3810 1.0824 0.1116
C22F C 0.54929(18) 1.2082(6) 0.1522(2)
C23F C 0.59629(19) 1.2294(7) 0.1384(3)
H15F H 0.6043 1.3062 0.1148
C24F C 0.63065(19) 1.1407(7) 0.1591(3)
H16F H 0.6630 1.1547 0.1494
C25F C 0.61873(18) 1.0295(6) 0.1928(2)
C26F C 0.57175(19) 1.0071(7) 0.2052(2)
H17F H 0.5632 0.9284 0.2276
C27F C 0.53722(19) 1.0975(6) 0.1849(3)
H18F H 0.5048 1.0820 0.1935
C28F C 0.6563(2) 0.9341(7) 0.2169(2)
Zn1G Zn 0.183439(19) 1.20560(7) 0.27998(2)
Zn3A Zn 0.756466(19) 0.50168(7) 0.20490(3)
Zn3F Zn 0.743534(19) 1.00168(7) 0.29510(3)
Zn2E Zn 0.245245(19) -0.26370(6) -0.10795(2)
N1A N 0.74527(14) 0.0663(4) 0.07751(17)
O1A O 0.75669(10) 0.2903(3) 0.18910(13)
O4A_2 O 0.81921(11) 0.3086(4) 0.08179(14)
O1G O 0.24331(10) 0.2903(3) 0.31090(13)
O6F O 0.27775(13) 0.5442(4) 0.37432(16)
O8A O 0.18581(12) 0.5713(4) 0.32687(15)
O11G O 0.19892(13) 0.4670(5) 0.21486(16)
Zn1A Zn -0.183439(19) 1.20560(7) 0.22002(2)
Zn2A_2 Zn -0.245245(19) 1.26370(6) 0.10795(2)
Zn1F Zn 0.683439(19) 0.70560(7) 0.27998(2)
O1G_2 O 0.24331(10) 1.2903(3) 0.31090(13)
O3G O 0.15078(12) 1.1715(4) 0.35083(15)
O12G O 0.14034(15) 1.3236(5) 0.24045(19)
H1A H 0.7329 0.2520 0.2037
H1G H 0.2671 0.2520 0.2963
H1G_2 H 0.2671 1.2520 0.2963
Zn1A_2 Zn 0.816561(19) 0.20560(7) 0.22002(2)
O13 O 0.5607(6) 0.6128(18) 0.2106(8)
H23 H 0.5840 0.5806 0.1879
H24 H 0.5572 0.6483 0.2549
loop_
_geom_bond_atom_site_label_1
_geom_bond_atom_site_label_2
_geom_bond_site_symmetry_1
_geom_bond_site_symmetry_2
Zn1 O1 1_555 1_555
Zn2 N1 1_555 1_555
Zn3 O1 1_555 1_555
N1 C29 1_555 1_555
O1 Zn2 1_555 1_555
H1 O1 1_555 1_555
O2 Zn1 1_555 1_555
H2 O2 1_555 1_555
O3 Zn1 1_555 1_555
O4 Zn2 1_555 1_555
O5 C5 1_555 1_555
O6 C14 1_555 1_555
O7 C14 1_555 1_555
O8 C15 1_555 1_555
O9 C15 1_555 1_555
O10 C19 1_555 1_555
O11 Zn3 1_555 1_555
O12 Zn1 1_555 1_555
C1 O3 1_555 1_555
C2 C1 1_555 1_555
C3 C2 1_555 1_555
H3 C3 1_555 1_555
C4 C3 1_555 1_555
H4 C4 1_555 1_555
C5 C4 1_555 1_555
C6 C5 1_555 1_555
H5 C6 1_555 1_555
C7 C2 1_555 1_555
H6 C7 1_555 1_555
C8 O5 1_555 1_555
C9 C8 1_555 1_555
H7 C9 1_555 1_555
C10 C9 1_555 1_555
H8 C10 1_555 1_555
C11 C10 1_555 1_555
C12 C11 1_555 1_555
H9 C12 1_555 1_555
C13 C8 1_555 1_555
H10 C13 1_555 1_555
C14 C11 1_555 1_555
C15 C16 1_555 1_555
C16 C17 1_555 1_555
C17 H11 1_555 1_555
C18 C17 1_555 1_555
H12 C18 1_555 1_555
C19 C18 1_555 1_555
C20 C19 1_555 1_555
H13 C20 1_555 1_555
C21 C16 1_555 1_555
H14 C21 1_555 1_555
C22 O10 1_555 1_555
C23 C22 1_555 1_555
H15 C23 1_555 1_555
C24 C23 1_555 1_555
H16 C24 1_555 1_555
C25 C24 1_555 1_555
C26 C25 1_555 1_555
H17 C26 1_555 1_555
C27 C22 1_555 1_555
H18 C27 1_555 1_555
C28 O11 1_555 1_555
C29 H19 1_555 1_555
C30 C29 1_555 1_555
H20 C30 1_555 1_555
C31 C30 1_555 1_555
C32 C31 1_555 1_555
H21 C32 1_555 1_555
C33 N1 1_555 1_555
H22 C33 1_555 1_555
O13 H23 1_555 1_555
H24 O13 1_555 1_555
C31E C31 1_555 1_555
C30E C31E 1_555 1_555
C29E C30E 1_555 1_555
N1E C29E 1_555 1_555
C33E N1E 1_555 1_555
C32E C31E 1_555 1_555
H21E C32E 1_555 1_555
H22E C33E 1_555 1_555
H19E C29E 1_555 1_555
H20E C30E 1_555 1_555
Zn2A O7 1_555 1_555
Zn3G O2 1_555 1_555
O3A C1A 1_555 1_555
O4A C1A 1_555 1_555
O5A C5A 1_555 1_555
O6A Zn3 1_555 1_555
O7A Zn2 1_555 1_555
C1A C2A 1_555 1_555
C2A C3A 1_555 1_555
C3A H3A 1_555 1_555
C4A C3A 1_555 1_555
H4A C4A 1_555 1_555
C5A C4A 1_555 1_555
C6A C5A 1_555 1_555
H5A C6A 1_555 1_555
C7A C2A 1_555 1_555
H6A C7A 1_555 1_555
C8A O5A 1_555 1_555
C9A C8A 1_555 1_555
H7A C9A 1_555 1_555
C10A C9A 1_555 1_555
H8A C10A 1_555 1_555
C11A C10A 1_555 1_555
C12A C11A 1_555 1_555
H9A C12A 1_555 1_555
C13A C8A 1_555 1_555
H10A C13A 1_555 1_555
C14A O6A 1_555 1_555
O2G Zn3 1_555 1_555
H2G O2G 1_555 1_555
O8F Zn3 1_555 1_555
O9F C15F 1_555 1_555
O10F C19F 1_555 1_555
O11F C28F 1_555 1_555
O12F C28F 1_555 1_555
C15F O8F 1_555 1_555
C16F C15F 1_555 1_555
C17F C16F 1_555 1_555
H11F C17F 1_555 1_555
C18F C17F 1_555 1_555
H12F C18F 1_555 1_555
C19F C18F 1_555 1_555
C20F C19F 1_555 1_555
H13F C20F 1_555 1_555
C21F C16F 1_555 1_555
H14F C21F 1_555 1_555
C22F O10F 1_555 1_555
C23F C22F 1_555 1_555
H15F C23F 1_555 1_555
C24F C23F 1_555 1_555
H16F C24F 1_555 1_555
C25F C24F 1_555 1_555
C26F C25F 1_555 1_555
H17F C26F 1_555 1_555
C27F C22F 1_555 1_555
H18F C27F 1_555 1_555
C28F C25F 1_555 1_555
Zn1G O2G 1_555 1_555
Zn3A O6 1_555 1_555
Zn3F O8 1_555 1_555
Zn2E N1E 1_555 1_555
N1A Zn2A 1_555 1_555
O1A Zn2A 1_555 1_555
O4A_2 Zn2A 1_555 1_555
O1G Zn3G 1_555 1_555
O6F Zn3G 1_555 1_555
O8A Zn3G 1_555 1_555
O11G Zn3G 1_555 1_555
Zn1A O3A 1_555 1_555
Zn2A_2 O4A 1_555 1_555
Zn1F O12F 1_555 1_555
O1G_2 Zn1G 1_555 1_555
O3G Zn1G 1_555 1_555
O12G Zn1G 1_555 1_555
H1A O1A 1_555 1_555
H1G O1G 1_555 1_555
H1G_2 O1G_2 1_555 1_555
Zn1A_2 O1A 1_555 1_555
O4 C1 1_555 1_555
O12 C28 1_555 1_555
C6 C7 1_555 1_555
C12 C13 1_555 1_555
C20 C21 1_555 1_555
C25 C28 1_555 1_555
C26 C27 1_555 1_555
C32 C33 1_555 1_555
C33E C32E 1_555 1_555
O7A C14A 1_555 1_555
C6A C7A 1_555 1_555
C11A C14A 1_555 1_555
C12A C13A 1_555 1_555
O11F Zn3F 1_555 1_555
C20F C21F 1_555 1_555
C26F C27F 1_555 1_555
Zn3A O1A 1_555 1_555

#END
