
#######################################################################
#
#                 Cambridge Crystallographic Data Centre
#                                CCDC 
#
#######################################################################
#
# If this CIF has been generated from an entry in the Cambridge 
# Structural Database, then it will include bibliographic, chemical, 
# crystal, experimental, refinement or atomic coordinate data resulting 
# from the CCDC's data processing and validation procedures.
#
#######################################################################

data_NERRUZ
_symmetry_cell_setting           monoclinic
_symmetry_space_group_name_H-M   'P 21/c'
_symmetry_Int_Tables_number      14
_space_group_name_Hall           '-P 2ybc'
loop_
_symmetry_equiv_pos_site_id
_symmetry_equiv_pos_as_xyz
1 x,y,z
2 -x,1/2+y,1/2-z
3 -x,-y,-z
4 x,1/2-y,1/2+z
_cell_length_a                   7.399(4)
_cell_length_b                   5.368(5)
_cell_length_c                   14.100(6)
_cell_angle_alpha                90
_cell_angle_beta                 102.145(5)
_cell_angle_gamma                90
_cell_volume                     547.487
loop_
_atom_site_label
_atom_site_type_symbol
_atom_site_fract_x
_atom_site_fract_y
_atom_site_fract_z
O1 O 0.4414(2) 1.1061(3) 0.19005(11)
O2 O 0.2312(2) 0.9829(3) 0.26605(12)
O3 O 0.07774(19) 0.2254(3) 0.05779(10)
N1 N 0.1577(2) 0.5774(3) 0.15121(12)
N2 N 0.1707(2) 0.4256(3) 0.07737(12)
N3 N 0.2921(3) 0.5009(3) 0.02529(13)
N4 N 0.3640(2) 0.7154(3) 0.06620(12)
N5 N 0.3201(2) 0.9606(3) 0.20255(13)
C1 C 0.2802(3) 0.7501(4) 0.13867(14)
Rb1 Rb 0.78568(3) 0.95130(4) 0.117230(14)
O2A O 0.7688(2) 0.4829(3) 0.23395(12)
O3_2 O 1.07774(19) 1.2254(3) 0.05779(10)
O3B O 0.92226(19) 0.7746(3) -0.05779(10)
N1A N 0.8423(2) 1.0774(3) 0.34879(12)
N3B N 0.7079(3) 0.4991(3) -0.02529(13)
N4B N 0.6360(2) 1.2846(3) -0.06620(12)
Rb1A Rb 0.21432(3) 1.45130(4) 0.382770(14)
Rb1_2 Rb -0.21432(3) -0.04870(4) 0.117230(14)
Rb1B Rb 0.21432(3) 0.04870(4) -0.117230(14)
Rb1A_2 Rb 0.21432(3) 0.45130(4) 0.382770(14)
Rb1B_2 Rb 0.21432(3) 1.04870(4) -0.117230(14)
loop_
_geom_bond_atom_site_label_1
_geom_bond_atom_site_label_2
_geom_bond_site_symmetry_1
_geom_bond_site_symmetry_2
O1 N5 1_555 1_555
O2 N5 1_555 1_555
O3 N2 1_555 1_555
N1 N2 1_555 1_555
N2 N3 1_555 1_555
N3 N4 1_555 1_555
N4 C1 1_555 1_555
N5 C1 1_555 1_555
C1 N1 1_555 1_555
Rb1 O1 1_555 1_555
O2A Rb1 1_555 1_555
O3_2 Rb1 1_555 1_555
O3B Rb1 1_555 1_555
N1A Rb1 1_555 1_555
N3B Rb1 1_555 1_555
N4B Rb1 1_555 1_555
Rb1A O2 1_555 1_555
Rb1_2 O3 1_555 1_555
Rb1B O3 1_555 1_555
Rb1A_2 N1 1_555 1_555
Rb1B_2 N4 1_555 1_555
N3 Rb1B 1_555 1_555
N4 Rb1 1_555 1_555
N4B Rb1B_2 1_555 1_555

#END
