
#######################################################################
#
#                 Cambridge Crystallographic Data Centre
#                                CCDC 
#
#######################################################################
#
# If this CIF has been generated from an entry in the Cambridge 
# Structural Database, then it will include bibliographic, chemical, 
# crystal, experimental, refinement or atomic coordinate data resulting 
# from the CCDC's data processing and validation procedures.
#
#######################################################################

data_NERRIN
_symmetry_cell_setting           triclinic
_symmetry_space_group_name_H-M   'P -1'
_symmetry_Int_Tables_number      2
_space_group_name_Hall           '-P 1'
loop_
_symmetry_equiv_pos_site_id
_symmetry_equiv_pos_as_xyz
1 x,y,z
2 -x,-y,-z
_cell_length_a                   7.9861(3)
_cell_length_b                   8.5386(3)
_cell_length_c                   11.0838(4)
_cell_angle_alpha                79.582(3)
_cell_angle_beta                 82.769(3)
_cell_angle_gamma                77.426(3)
_cell_volume                     722.565
loop_
_atom_site_label
_atom_site_type_symbol
_atom_site_fract_x
_atom_site_fract_y
_atom_site_fract_z
Ba1 Ba 0.155992(18) 0.185155(17) 0.872513(14)
O1 O 0.8693(3) 0.4650(3) 0.7072(2)
O2 O 0.6091(3) 0.6087(3) 0.7081(2)
O3 O 0.3843(2) 0.2035(3) 1.03914(19)
O4 O 0.3153(3) -0.3634(3) 0.5455(2)
O5 O 0.2961(3) -0.5996(2) 0.6529(2)
O6 O -0.0151(2) -0.0729(2) 0.88651(17)
O7 O 0.1315(4) 0.1209(3) 0.6421(2)
O8 O 0.4832(3) 0.0517(3) 0.79095(19)
N1 N 0.4990(3) 0.3820(3) 0.8886(2)
N2 N 0.5151(3) 0.2539(3) 0.9756(2)
N3 N 0.6771(3) 0.1751(3) 0.9891(2)
N4 N 0.7735(3) 0.2569(3) 0.9041(2)
N5 N 0.7170(3) 0.4932(3) 0.7474(2)
N6 N 0.1398(3) -0.2141(3) 0.7351(2)
N7 N 0.0496(3) -0.2063(2) 0.8440(2)
N8 N 0.0313(3) -0.3491(3) 0.9085(2)
N9 N 0.1147(3) -0.4598(3) 0.8392(2)
N10 N 0.2705(3) -0.4500(3) 0.6376(2)
C1 C 0.6632(3) 0.3765(3) 0.8478(3)
C2 C 0.1761(3) -0.3746(3) 0.7388(2)
C3 C 0.0955(6) 0.2023(5) 0.5264(3)
H1 H 0.0310 0.1416 0.4884
H2 H 0.2034 0.2123 0.4756
H3 H 0.0263 0.3108 0.5329
C4 C 0.5821(5) 0.0535(5) 0.6746(3)
H4 H 0.7001 0.0618 0.6841
H5 H 0.5301 0.1469 0.6165
H6 H 0.5842 -0.0471 0.6430
Ba1A Ba -0.155992(18) -0.185155(17) 1.127487(14)
Ba1_2 Ba 1.155992(18) 0.185155(17) 0.872513(14)
Ba1_3 Ba 0.155992(18) -0.814845(17) 0.872513(14)
O6A O 0.0151(2) 0.0729(2) 1.11349(17)
N4_2 N -0.2265(3) 0.2569(3) 0.9041(2)
N9_2 N 0.1147(3) 0.5402(3) 0.8392(2)
loop_
_geom_bond_atom_site_label_1
_geom_bond_atom_site_label_2
_geom_bond_site_symmetry_1
_geom_bond_site_symmetry_2
Ba1 O3 1_555 1_555
O1 N5 1_555 1_555
O2 N5 1_555 1_555
O3 N2 1_555 1_555
O4 N10 1_555 1_555
O5 N10 1_555 1_555
O6 Ba1 1_555 1_555
O7 Ba1 1_555 1_555
O8 Ba1 1_555 1_555
N1 N2 1_555 1_555
N2 N3 1_555 1_555
N3 N4 1_555 1_555
N4 C1 1_555 1_555
N5 C1 1_555 1_555
N6 N7 1_555 1_555
N7 O6 1_555 1_555
N8 N7 1_555 1_555
N9 N8 1_555 1_555
N10 C2 1_555 1_555
C1 N1 1_555 1_555
C2 N6 1_555 1_555
C3 O7 1_555 1_555
H1 C3 1_555 1_555
H2 C3 1_555 1_555
H3 C3 1_555 1_555
C4 O8 1_555 1_555
H4 C4 1_555 1_555
H5 C4 1_555 1_555
H6 C4 1_555 1_555
Ba1A O6 1_555 1_555
Ba1_2 N4 1_555 1_555
Ba1_3 N9 1_555 1_555
O6A Ba1 1_555 1_555
N4_2 Ba1 1_555 1_555
N9_2 Ba1 1_555 1_555
N9 C2 1_555 1_555
Ba1A O6A 1_555 1_555

#END
