
#######################################################################
#
#                 Cambridge Crystallographic Data Centre
#                                CCDC 
#
#######################################################################
#
# If this CIF has been generated from an entry in the Cambridge 
# Structural Database, then it will include bibliographic, chemical, 
# crystal, experimental, refinement or atomic coordinate data resulting 
# from the CCDC's data processing and validation procedures.
#
#######################################################################

data_NERSIO
_symmetry_cell_setting           triclinic
_symmetry_space_group_name_H-M   'P -1'
_symmetry_Int_Tables_number      2
_space_group_name_Hall           '-P 1'
loop_
_symmetry_equiv_pos_site_id
_symmetry_equiv_pos_as_xyz
1 x,y,z
2 -x,-y,-z
_cell_length_a                   9.4686(9)
_cell_length_b                   11.8434(9)
_cell_length_c                   12.3923(10)
_cell_angle_alpha                117.656(9)
_cell_angle_beta                 94.288(8)
_cell_angle_gamma                97.946(7)
_cell_volume                     1203.7
loop_
_atom_site_label
_atom_site_type_symbol
_atom_site_fract_x
_atom_site_fract_y
_atom_site_fract_z
Cu1 Cu 0.50000 0.50000 0.00000
Cu2 Cu 0.84459(7) 0.27679(7) -0.02807(6)
P1 P 0.60581(12) 0.32713(12) 0.11671(11)
P2 P 1.14399(13) 0.43089(14) 0.06996(11)
O1 O 0.6585(3) 0.2256(3) 0.0067(3)
O2 O 0.4918(3) 0.3850(3) 0.0753(3)
O3 O 0.5504(4) 0.2747(4) 0.1973(3)
O4 O 1.0423(3) 0.3227(4) -0.0438(3)
O5 O 1.2374(4) 0.5280(4) 0.0486(3)
O6 O 1.2364(3) 0.3681(4) 0.1311(3)
N1 N 0.5621(4) 0.6571(4) 0.1709(4)
N2 N 0.7833(4) 1.1550(4) 0.7883(4)
N3 N 0.8990(4) 0.4052(4) 0.1625(3)
C1 C 0.7669(5) 0.4577(5) 0.1960(4)
H1 H 0.7619 0.5264 0.1724
H2 H 0.7697 0.4971 0.2864
C2 C 1.0220(5) 0.5050(5) 0.1767(4)
H3 H 1.0743 0.5489 0.2624
H4 H 0.9859 0.5712 0.1607
C3 C 0.9358(6) 0.3338(6) 0.2321(5)
H5 H 1.0198 0.2936 0.2026
H6 H 0.8532 0.263 0.2133
C4 C 0.9706(5) 0.4202(6) 0.3702(5)
C5 C 0.8604(6) 0.4324(7) 0.4425(5)
H7 H 0.7648 0.3858 0.4043
C6 C 1.1094(5) 0.4875(6) 0.4298(5)
H8 H 1.1857 0.4787 0.3827
C7 C 0.5053(6) 0.6534(5) 0.2662(5)
H9 H 0.4332 0.5807 0.250
C8 C 0.5485(6) 0.7519(5) 0.3869(5)
H10 H 0.5081 0.7457 0.4523
C9 C 0.6518(5) 0.8600(5) 0.4111(4)
C10 C 0.7075(6) 0.8629(5) 0.3130(5)
H11 H 0.7788 0.9349 0.3265
C11 C 0.6597(5) 0.7603(5) 0.1938(4)
H12 H 0.6982 0.7646 0.1269
C12 C 0.6958(6) 0.9675(5) 0.5410(4)
C13 C 0.8299(6) 1.0520(5) 0.5829(5)
H13 H 0.8949 1.0469 0.5268
C14 C 0.8674(6) 1.1427(5) 0.7058(5)
H14 H 0.9591 1.1992 0.7322
C15 C 0.6511(6) 1.0804(6) 0.7471(5)
H15 H 0.5854 1.0933 0.8041
C16 C 0.6055(6) 0.9861(6) 0.6267(5)
H16 H 0.5114 0.9339 0.6028
Cu1_2 Cu 1.50000 0.50000 1.00000
Cu2A Cu 1.15541(7) 0.72321(7) 1.02807(6)
Cu2_2 Cu 0.84459(7) 1.27679(7) 0.97193(6)
Cu2A_2 Cu 0.15541(7) -0.27679(7) -0.97193(6)
P1A P 1.39419(12) 0.67287(12) 0.88329(11)
P2A P 0.85601(13) 0.56911(14) 0.93004(11)
O1A O 1.3415(3) 0.7744(3) 0.9933(3)
O2A O 1.5082(3) 0.6150(3) 0.9247(3)
O2A_2 O 0.5082(3) 0.6150(3) -0.0753(3)
O3A O 1.4496(4) 0.7253(4) 0.8027(3)
O4A O 0.9577(3) 0.6773(4) 1.0438(3)
O5A O 0.7626(4) 0.4720(4) 0.9514(3)
O6A O 0.7636(3) 0.6319(4) 0.8689(3)
N1A N 0.4379(4) 0.3429(4) -0.1709(4)
N2A N 0.2167(4) -0.1550(4) -0.7883(4)
N2_2 N 0.7833(4) 0.1550(4) -0.2117(4)
N2A_2 N 1.2167(4) 0.8450(4) 1.2117(4)
N3A N 1.1010(4) 0.5948(4) 0.8375(3)
C1A C 1.2331(5) 0.5423(5) 0.8040(4)
H1A H 1.2381 0.4736 0.8276
H2A H 1.2303 0.5029 0.7136
C2A C 0.9780(5) 0.4950(5) 0.8233(4)
H3A H 0.9257 0.4511 0.7376
H4A H 1.0141 0.4288 0.8393
C3A C 1.0642(6) 0.6662(6) 0.7679(5)
H5A H 0.9802 0.7064 0.7974
H6A H 1.1468 0.737 0.7867
C4A C 1.0294(5) 0.5798(6) 0.6298(5)
C5A C 1.1396(6) 0.5676(7) 0.5575(5)
H7A H 1.2352 0.6142 0.5957
C6A C 0.8906(5) 0.5125(6) 0.5702(5)
H8A H 0.8143 0.5213 0.6173
C7A C 0.4947(6) 0.3466(5) -0.2662(5)
H9A H 0.5668 0.4193 -0.250
C8A C 0.4515(6) 0.2481(5) -0.3869(5)
H10A H 0.4919 0.2543 -0.4523
C9A C 0.3482(5) 0.1400(5) -0.4111(4)
C10A C 0.2925(6) 0.1371(5) -0.3130(5)
H11A H 0.2212 0.0651 -0.3265
C11A C 0.3403(5) 0.2397(5) -0.1938(4)
H12A H 0.3018 0.2354 -0.1269
C12A C 0.3042(6) 0.0325(5) -0.5410(4)
C13A C 0.1701(6) -0.0520(5) -0.5829(5)
H13A H 0.1051 -0.0469 -0.5268
C14A C 0.1326(6) -0.1427(5) -0.7058(5)
H14A H 0.0409 -0.1992 -0.7322
C15A C 0.3489(6) -0.0804(6) -0.7471(5)
H15A H 0.4146 -0.0933 -0.8041
C16A C 0.3945(6) 0.0139(6) -0.6267(5)
H16A H 0.4886 0.0661 -0.6028
O7 O 0.9393(16) 0.0854(15) -0.0337(13)
loop_
_geom_bond_atom_site_label_1
_geom_bond_atom_site_label_2
_geom_bond_site_symmetry_1
_geom_bond_site_symmetry_2
Cu1 O2 1_555 1_555
Cu2 O1 1_555 1_555
P1 O1 1_555 1_555
P2 O4 1_555 1_555
O2 P1 1_555 1_555
O3 P1 1_555 1_555
O4 Cu2 1_555 1_555
O5 P2 1_555 1_555
O6 P2 1_555 1_555
N1 Cu1 1_555 1_555
N2 C14 1_555 1_555
N3 Cu2 1_555 1_555
C1 P1 1_555 1_555
H1 C1 1_555 1_555
H2 C1 1_555 1_555
C2 P2 1_555 1_555
H3 C2 1_555 1_555
H4 C2 1_555 1_555
C3 N3 1_555 1_555
H5 C3 1_555 1_555
H6 C3 1_555 1_555
C4 C3 1_555 1_555
C5 C4 1_555 1_555
H7 C5 1_555 1_555
C6 C4 1_555 1_555
H8 C6 1_555 1_555
C7 N1 1_555 1_555
H9 C7 1_555 1_555
C8 C7 1_555 1_555
H10 C8 1_555 1_555
C9 C8 1_555 1_555
C10 C9 1_555 1_555
H11 C10 1_555 1_555
C11 N1 1_555 1_555
H12 C11 1_555 1_555
C12 C9 1_555 1_555
C13 C12 1_555 1_555
H13 C13 1_555 1_555
C14 C13 1_555 1_555
H14 C14 1_555 1_555
C15 N2 1_555 1_555
H15 C15 1_555 1_555
C16 C12 1_555 1_555
H16 C16 1_555 1_555
Cu1_2 O2A 1_555 1_555
Cu2A O1A 1_555 1_555
Cu2_2 N2 1_555 1_555
Cu2A_2 N2A 1_555 1_555
P1A O1A 1_555 1_555
P2A O4A 1_555 1_555
O2A P1A 1_555 1_555
O2A_2 Cu1 1_555 1_555
O3A P1A 1_555 1_555
O4A Cu2A 1_555 1_555
O5A P2A 1_555 1_555
O6A P2A 1_555 1_555
N1A Cu1 1_555 1_555
N2A C14A 1_555 1_555
N2_2 Cu2 1_555 1_555
N2A_2 Cu2A 1_555 1_555
N3A Cu2A 1_555 1_555
C1A P1A 1_555 1_555
H1A C1A 1_555 1_555
H2A C1A 1_555 1_555
C2A P2A 1_555 1_555
H3A C2A 1_555 1_555
H4A C2A 1_555 1_555
C3A N3A 1_555 1_555
H5A C3A 1_555 1_555
H6A C3A 1_555 1_555
C4A C3A 1_555 1_555
C5A C6 1_555 1_555
H7A C5A 1_555 1_555
C6A C5 1_555 1_555
H8A C6A 1_555 1_555
C7A N1A 1_555 1_555
H9A C7A 1_555 1_555
C8A C7A 1_555 1_555
H10A C8A 1_555 1_555
C9A C8A 1_555 1_555
C10A C9A 1_555 1_555
H11A C10A 1_555 1_555
C11A N1A 1_555 1_555
H12A C11A 1_555 1_555
C12A C9A 1_555 1_555
C13A C12A 1_555 1_555
H13A C13A 1_555 1_555
C14A C13A 1_555 1_555
H14A C14A 1_555 1_555
C15A N2A 1_555 1_555
H15A C15A 1_555 1_555
C16A C12A 1_555 1_555
H16A C16A 1_555 1_555
N3 C1 1_555 1_555
N3 C2 1_555 1_555
C10 C11 1_555 1_555
C15 C16 1_555 1_555
N3A C1A 1_555 1_555
N3A C2A 1_555 1_555
C4A C5A 1_555 1_555
C4A C6A 1_555 1_555
C10A C11A 1_555 1_555
C15A C16A 1_555 1_555

#END
