
#######################################################################
#
#                 Cambridge Crystallographic Data Centre
#                                CCDC 
#
#######################################################################
#
# If this CIF has been generated from an entry in the Cambridge 
# Structural Database, then it will include bibliographic, chemical, 
# crystal, experimental, refinement or atomic coordinate data resulting 
# from the CCDC's data processing and validation procedures.
#
#######################################################################

data_NERSOU
_symmetry_cell_setting           triclinic
_symmetry_space_group_name_H-M   'P -1'
_symmetry_Int_Tables_number      2
_space_group_name_Hall           '-P 1'
loop_
_symmetry_equiv_pos_site_id
_symmetry_equiv_pos_as_xyz
1 x,y,z
2 -x,-y,-z
_cell_length_a                   9.5516(5)
_cell_length_b                   12.9047(7)
_cell_length_c                   13.982(2)
_cell_angle_alpha                75.544(7)
_cell_angle_beta                 89.628(7)
_cell_angle_gamma                75.697(5)
_cell_volume                     1614.34
loop_
_atom_site_label
_atom_site_type_symbol
_atom_site_fract_x
_atom_site_fract_y
_atom_site_fract_z
Cu1 Cu 0.00000 0.50000 0.00000
Cu2 Cu -0.32501(12) 0.33969(10) 0.13123(10)
P1 P -0.0929(2) 0.41032(19) 0.21613(18)
P2 P -0.6344(2) 0.46840(19) 0.10745(17)
O1 O -0.1352(6) 0.3120(5) 0.1937(5)
O2 O 0.0178(6) 0.4517(5) 0.1409(5)
O3 O -0.0362(7) 0.3886(6) 0.3202(5)
O4 O -0.5284(6) 0.3636(5) 0.0958(5)
O5 O -0.7242(6) 0.4391(5) 0.2013(4)
O6 O -0.7319(6) 0.5333(5) 0.0173(4)
N1 N -0.3868(7) 0.4703(6) 0.1972(5)
N2 N 0.0650(7) 0.3428(6) -0.0113(6)
N3 N 0.2694(8) -0.1960(6) -0.0923(6)
C1 C -0.5192(8) 0.5484(7) 0.1408(6)
H1 H -0.492 0.5964 0.0803
H2 H -0.5716 0.5961 0.1819
C2 C -0.2599(8) 0.5192(7) 0.1885(7)
H3 H -0.2663 0.5664 0.2351
H4 H -0.2605 0.5661 0.1206
C3 C -0.4111(9) 0.4229(8) 0.3040(6)
H5 H -0.3226 0.366 0.3351
H6 H -0.491 0.386 0.3071
C4 C -0.4484(13) 0.5111(9) 0.3637(8)
H7 H -0.5358 0.5694 0.333
H8 H -0.3672 0.5461 0.3645
C5 C -0.4759(12) 0.4524(10) 0.4708(8)
H9 H -0.3868 0.3974 0.5032
H10 H -0.5533 0.4138 0.47
C6 C 0.1649(10) 0.2628(7) 0.0483(7)
H11 H 0.2072 0.2804 0.1015
C7 C 0.2120(10) 0.1557(7) 0.0386(8)
H12 H 0.2852 0.1028 0.0833
C8 C 0.1507(10) 0.1270(8) -0.0374(8)
C9 C 0.0455(10) 0.2107(7) -0.1016(8)
H13 H 0.0007 0.1956 -0.1553
C10 C 0.0084(10) 0.3141(8) -0.0857(8)
H14 H -0.0623 0.3696 -0.1304
C11 C 0.3579(11) -0.1651(8) -0.0362(8)
H15 H 0.4473 -0.216 -0.0098
C12 C 0.3247(11) -0.0627(8) -0.0153(7)
H16 H 0.3907 -0.044 0.0241
C13 C 0.1939(10) 0.0125(8) -0.0525(7)
C14 C 0.1027(10) -0.0221(8) -0.1053(9)
H17 H 0.0108 0.0258 -0.13
C15 C 0.1423(10) -0.1260(7) -0.1234(8)
H18 H 0.0755 -0.1477 -0.1594
Cu1_2 Cu -1.00000 0.50000 1.00000
Cu2A Cu -0.67499(12) 0.66031(10) 0.86877(10)
Cu2A_2 Cu 0.32501(12) -0.33969(10) -0.13123(10)
Cu2_2 Cu -0.32501(12) 1.33969(10) 0.13123(10)
P1A P -0.9071(2) 0.58968(19) 0.78387(18)
P2A P -0.3656(2) 0.53160(19) 0.89255(17)
O1A O -0.8648(6) 0.6880(5) 0.8063(5)
O2A O -1.0178(6) 0.5483(5) 0.8591(5)
O2A_2 O -0.0178(6) 0.5483(5) -0.1409(5)
O3A O -0.9638(7) 0.6114(6) 0.6798(5)
O4A O -0.4716(6) 0.6364(5) 0.9042(5)
O5A O -0.2758(6) 0.5609(5) 0.7987(4)
O6A O -0.2681(6) 0.4667(5) 0.9827(4)
N1A N -0.6132(7) 0.5297(6) 0.8028(5)
N2A N -0.0650(7) 0.6572(6) 0.0113(6)
N3A N -0.2694(8) 1.1960(6) 0.0923(6)
N3A_2 N -0.2694(8) 0.1960(6) 0.0923(6)
N3_2 N -0.7306(8) 0.8040(6) 0.9077(6)
C1A C -0.4808(8) 0.4516(7) 0.8592(6)
H1A H -0.508 0.4036 0.9197
H2A H -0.4284 0.4039 0.8181
C2A C -0.7401(8) 0.4808(7) 0.8115(7)
H3A H -0.7337 0.4336 0.7649
H4A H -0.7395 0.4339 0.8794
C3A C -0.5889(9) 0.5771(8) 0.6960(6)
H5A H -0.6774 0.634 0.6649
H6A H -0.509 0.614 0.6929
C4A C -0.5516(13) 0.4889(9) 0.6363(8)
H7A H -0.4642 0.4306 0.667
H8A H -0.6328 0.4539 0.6355
C5A C -0.5241(12) 0.5476(10) 0.5292(8)
H9A H -0.6132 0.6026 0.4968
H10A H -0.4467 0.5862 0.53
C6A C -0.1649(10) 0.7372(7) -0.0483(7)
H11A H -0.2072 0.7196 -0.1015
C7A C -0.2120(10) 0.8443(7) -0.0386(8)
H12A H -0.2852 0.8972 -0.0833
C8A C -0.1507(10) 0.8730(8) 0.0374(8)
C9A C -0.0455(10) 0.7893(7) 0.1016(8)
H13A H -0.0007 0.8044 0.1553
C10A C -0.0084(10) 0.6859(8) 0.0857(8)
H14A H 0.0623 0.6304 0.1304
C11A C -0.3579(11) 1.1651(8) 0.0362(8)
H15A H -0.4473 1.216 0.0098
C12A C -0.3247(11) 1.0627(8) 0.0153(7)
H16A H -0.3907 1.044 -0.0241
C13A C -0.1939(10) 0.9875(8) 0.0525(7)
C14A C -0.1027(10) 1.0221(8) 0.1053(9)
H17A H -0.0108 0.9742 0.13
C15A C -0.1423(10) 1.1260(7) 0.1234(8)
H18A H -0.0755 1.1477 0.1594
loop_
_geom_bond_atom_site_label_1
_geom_bond_atom_site_label_2
_geom_bond_site_symmetry_1
_geom_bond_site_symmetry_2
Cu1 O2 1_555 1_555
Cu2 O1 1_555 1_555
P1 O1 1_555 1_555
P2 O4 1_555 1_555
O2 P1 1_555 1_555
O3 P1 1_555 1_555
O4 Cu2 1_555 1_555
O5 P2 1_555 1_555
O6 P2 1_555 1_555
N1 Cu2 1_555 1_555
N2 Cu1 1_555 1_555
N3 C11 1_555 1_555
C1 P2 1_555 1_555
H1 C1 1_555 1_555
H2 C1 1_555 1_555
C2 P1 1_555 1_555
H3 C2 1_555 1_555
H4 C2 1_555 1_555
C3 N1 1_555 1_555
H5 C3 1_555 1_555
H6 C3 1_555 1_555
C4 C3 1_555 1_555
H7 C4 1_555 1_555
H8 C4 1_555 1_555
C5 C4 1_555 1_555
H9 C5 1_555 1_555
H10 C5 1_555 1_555
C6 N2 1_555 1_555
H11 C6 1_555 1_555
C7 C6 1_555 1_555
H12 C7 1_555 1_555
C8 C7 1_555 1_555
C9 C8 1_555 1_555
H13 C9 1_555 1_555
C10 N2 1_555 1_555
H14 C10 1_555 1_555
C11 H15 1_555 1_555
C12 C11 1_555 1_555
H16 C12 1_555 1_555
C13 C8 1_555 1_555
C14 C13 1_555 1_555
H17 C14 1_555 1_555
C15 N3 1_555 1_555
H18 C15 1_555 1_555
Cu1_2 O2A 1_555 1_555
Cu2A O1A 1_555 1_555
Cu2A_2 N3 1_555 1_555
Cu2_2 N3A 1_555 1_555
P1A O1A 1_555 1_555
P2A O4A 1_555 1_555
O2A P1A 1_555 1_555
O2A_2 Cu1 1_555 1_555
O3A P1A 1_555 1_555
O4A Cu2A 1_555 1_555
O5A P2A 1_555 1_555
O6A P2A 1_555 1_555
N1A Cu2A 1_555 1_555
N2A Cu1 1_555 1_555
N3A C11A 1_555 1_555
N3A_2 Cu2 1_555 1_555
N3_2 Cu2A 1_555 1_555
C1A P2A 1_555 1_555
H1A C1A 1_555 1_555
H2A C1A 1_555 1_555
C2A P1A 1_555 1_555
H3A C2A 1_555 1_555
H4A C2A 1_555 1_555
C3A N1A 1_555 1_555
H5A C3A 1_555 1_555
H6A C3A 1_555 1_555
C4A C3A 1_555 1_555
H7A C4A 1_555 1_555
H8A C4A 1_555 1_555
C5A C5 1_555 1_555
H9A C5A 1_555 1_555
H10A C5A 1_555 1_555
C6A N2A 1_555 1_555
H11A C6A 1_555 1_555
C7A C6A 1_555 1_555
H12A C7A 1_555 1_555
C8A C7A 1_555 1_555
C9A C8A 1_555 1_555
H13A C9A 1_555 1_555
C10A N2A 1_555 1_555
H14A C10A 1_555 1_555
C11A H15A 1_555 1_555
C12A C11A 1_555 1_555
H16A C12A 1_555 1_555
C13A C8A 1_555 1_555
C14A C13A 1_555 1_555
H17A C14A 1_555 1_555
C15A N3A 1_555 1_555
H18A C15A 1_555 1_555
N1 C1 1_555 1_555
N1 C2 1_555 1_555
C9 C10 1_555 1_555
C12 C13 1_555 1_555
C14 C15 1_555 1_555
N1A C1A 1_555 1_555
N1A C2A 1_555 1_555
C4A C5A 1_555 1_555
C9A C10A 1_555 1_555
C12A C13A 1_555 1_555
C14A C15A 1_555 1_555

#END
