
#######################################################################
#
#                 Cambridge Crystallographic Data Centre
#                                CCDC 
#
#######################################################################
#
# If this CIF has been generated from an entry in the Cambridge 
# Structural Database, then it will include bibliographic, chemical, 
# crystal, experimental, refinement or atomic coordinate data resulting 
# from the CCDC's data processing and validation procedures.
#
#######################################################################

data_NERTUB
_symmetry_cell_setting           monoclinic
_symmetry_space_group_name_H-M   'P 21/c'
_symmetry_Int_Tables_number      14
_space_group_name_Hall           '-P 2ybc'
loop_
_symmetry_equiv_pos_site_id
_symmetry_equiv_pos_as_xyz
1 x,y,z
2 -x,1/2+y,1/2-z
3 -x,-y,-z
4 x,1/2-y,1/2+z
_cell_length_a                   6.777(5)
_cell_length_b                   36.763(5)
_cell_length_c                   8.858(5)
_cell_angle_alpha                90
_cell_angle_beta                 100.337(5)
_cell_angle_gamma                90
_cell_volume                     2171.09
loop_
_atom_site_label
_atom_site_type_symbol
_atom_site_fract_x
_atom_site_fract_y
_atom_site_fract_z
Zn1 Zn 0.95524(10) 0.241287(16) 0.69540(7)
Si1 Si 1.2906(3) 0.41456(4) 1.02411(19)
Si2 Si 1.1670(3) 0.44094(4) 0.6846(2)
O1 O 1.1318(6) 0.31688(11) 0.3386(4)
O2 O 1.1990(6) 0.26670(9) 0.8029(4)
O3 O 1.2609(7) 0.41769(10) 0.8376(5)
O4 O 1.0209(6) 0.26322(9) 0.9859(4)
O5 O 0.8166(6) 0.30304(9) 0.2466(4)
N1 N 0.4698(7) 0.30960(12) 0.5470(6)
H1 H 0.3649 0.3154 0.4814
N2 N 0.7409(6) 0.28016(11) 0.6558(5)
C1 C 1.3219(8) 0.29968(13) 1.0315(6)
H2 H 1.4532 0.2974 1.0033
H3 H 1.3341 0.2939 1.1396
C2 C 1.2429(8) 0.33841(13) 1.0012(6)
H4 H 1.2155 0.3425 0.8912
H5 H 1.1167 0.3405 1.0376
C3 C 0.8787(9) 0.35767(14) 0.3939(6)
H6 H 0.8227 0.3742 0.3121
H7 H 0.7719 0.3511 0.4484
C4 C 0.9496(9) 0.32384(14) 0.3237(6)
C5 C 1.1781(8) 0.27448(13) 0.9381(6)
C6 C 1.0406(9) 0.37746(14) 0.5038(7)
H8 H 1.0884 0.3617 0.5906
H9 H 1.1525 0.3823 0.4522
C7 C 0.9702(10) 0.41305(15) 0.5624(7)
H10 H 0.9102 0.4276 0.4748
H11 H 0.8659 0.4077 0.6212
C8 C 0.7062(9) 0.30892(16) 0.7482(7)
H12 H 0.7851 0.3147 0.8423
C9 C 1.3823(9) 0.36796(15) 1.0753(7)
H13 H 1.5120 0.3649 1.0451
H14 H 1.4013 0.3652 1.1858
C10 C 0.5919(9) 0.28190(14) 0.5365(7)
H15 H 0.5750 0.2656 0.4550
C11 C 1.0520(12) 0.48395(17) 0.7385(8)
H16 H 1.1467 0.4967 0.8138
H17 H 1.0158 0.4990 0.6491
H18 H 0.9343 0.4784 0.7803
C12 C 0.5423(9) 0.32733(16) 0.6825(7)
H19 H 0.4886 0.3479 0.7207
C13 C 1.0456(12) 0.42179(18) 1.0840(9)
H20 H 0.9490 0.4050 1.0305
H21 H 1.0596 0.4178 1.1926
H22 H 1.0012 0.4463 1.0602
C14 C 1.3747(11) 0.4514(2) 0.5820(9)
H23 H 1.4309 0.4292 0.5519
H24 H 1.3248 0.4657 0.4924
H25 H 1.4765 0.4649 0.6484
C15 C 1.4714(12) 0.44936(17) 1.1150(8)
H26 H 1.4161 0.4732 1.0917
H27 H 1.4975 0.4459 1.2242
H28 H 1.5944 0.4471 1.0763
Zn1C Zn 0.95524(10) 0.258713(16) 1.19540(7)
Zn1C_2 Zn 0.95524(10) 0.258713(16) 0.19540(7)
O4C O 1.0209(6) 0.23678(9) 0.4859(4)
O5C O 0.8166(6) 0.19696(9) 0.7466(4)
loop_
_geom_bond_atom_site_label_1
_geom_bond_atom_site_label_2
_geom_bond_site_symmetry_1
_geom_bond_site_symmetry_2
Zn1 O2 1_555 1_555
Si1 O3 1_555 1_555
Si2 O3 1_555 1_555
O1 C4 1_555 1_555
O2 C5 1_555 1_555
O4 C5 1_555 1_555
O5 C4 1_555 1_555
N1 H1 1_555 1_555
N2 Zn1 1_555 1_555
C1 H2 1_555 1_555
H3 C1 1_555 1_555
C2 C1 1_555 1_555
H4 C2 1_555 1_555
H5 C2 1_555 1_555
C3 H6 1_555 1_555
H7 C3 1_555 1_555
C4 C3 1_555 1_555
C5 C1 1_555 1_555
C6 C3 1_555 1_555
H8 C6 1_555 1_555
H9 C6 1_555 1_555
C7 Si2 1_555 1_555
H10 C7 1_555 1_555
H11 C7 1_555 1_555
C8 N2 1_555 1_555
H12 C8 1_555 1_555
C9 Si1 1_555 1_555
H13 C9 1_555 1_555
H14 C9 1_555 1_555
C10 N1 1_555 1_555
H15 C10 1_555 1_555
C11 Si2 1_555 1_555
H16 C11 1_555 1_555
H17 C11 1_555 1_555
H18 C11 1_555 1_555
C12 N1 1_555 1_555
H19 C12 1_555 1_555
C13 Si1 1_555 1_555
H20 C13 1_555 1_555
H21 C13 1_555 1_555
H22 C13 1_555 1_555
C14 Si2 1_555 1_555
H23 C14 1_555 1_555
H24 C14 1_555 1_555
H25 C14 1_555 1_555
C15 Si1 1_555 1_555
H26 C15 1_555 1_555
H27 C15 1_555 1_555
H28 C15 1_555 1_555
Zn1C O4 1_555 1_555
Zn1C_2 O5 1_555 1_555
O4C Zn1 1_555 1_555
O5C Zn1 1_555 1_555
N2 C10 1_555 1_555
C2 C9 1_555 1_555
C6 C7 1_555 1_555
C8 C12 1_555 1_555

#END
