
#######################################################################
#
#                 Cambridge Crystallographic Data Centre
#                                CCDC 
#
#######################################################################
#
# If this CIF has been generated from an entry in the Cambridge 
# Structural Database, then it will include bibliographic, chemical, 
# crystal, experimental, refinement or atomic coordinate data resulting 
# from the CCDC's data processing and validation procedures.
#
#######################################################################

data_NERVIR
_symmetry_cell_setting           monoclinic
_symmetry_space_group_name_H-M   'P 21/n'
_symmetry_Int_Tables_number      14
_space_group_name_Hall           '-P 2yn'
loop_
_symmetry_equiv_pos_site_id
_symmetry_equiv_pos_as_xyz
1 x,y,z
2 1/2-x,1/2+y,1/2-z
3 -x,-y,-z
4 1/2+x,1/2-y,1/2+z
_cell_length_a                   9.6853(8)
_cell_length_b                   8.8829(8)
_cell_length_c                   25.899(2)
_cell_angle_alpha                90
_cell_angle_beta                 91.107(1)
_cell_angle_gamma                90
_cell_volume                     2227.77
loop_
_atom_site_label
_atom_site_type_symbol
_atom_site_fract_x
_atom_site_fract_y
_atom_site_fract_z
Ho1 Ho 0.48918(2) 0.54267(3) 0.218636(8)
C1 C 0.2361(5) 0.3471(6) 0.26208(19)
C2 C 0.3321(5) 0.3686(6) 0.30732(18)
C3 C 0.4916(5) 0.4637(6) 0.35594(19)
C4 C 0.5948(6) 0.5516(7) 0.3788(2)
H1 H 0.6327 0.6335 0.3618
C5 C 0.6380(7) 0.5115(8) 0.4278(3)
H2 H 0.7079 0.5668 0.4440
C6 C 0.5804(8) 0.3906(9) 0.4537(3)
H3 H 0.6128 0.3673 0.4868
C7 C 0.4764(8) 0.3044(8) 0.4318(2)
H4 H 0.4372 0.2240 0.4493
C8 C 0.4337(6) 0.3438(6) 0.3825(2)
C9 C 0.4245(5) 0.5555(6) 0.0942(2)
C10 C 0.5760(5) 0.5246(6) 0.09694(19)
C11 C 0.7869(5) 0.4657(6) 0.07652(19)
C12 C 0.9074(6) 0.4251(7) 0.0525(2)
H5 H 0.9099 0.4060 0.0172
C13 C 1.0238(6) 0.4144(7) 0.0838(2)
H6 H 1.1078 0.3894 0.0692
C14 C 1.0184(6) 0.4403(7) 0.1370(2)
H7 H 1.0986 0.4297 0.1570
C15 C 0.8982(5) 0.4810(7) 0.1606(2)
H8 H 0.8961 0.4996 0.1959
C16 C 0.7795(5) 0.4934(6) 0.1295(2)
C17 C 0.7181(5) 0.2719(5) 0.24520(18)
C18 C 0.6196(5) 0.2001(6) 0.20820(19)
C19 C 0.5321(5) 0.0484(6) 0.1495(2)
C20 C 0.5056(6) -0.0627(6) 0.1131(2)
H9 H 0.5600 -0.1487 0.1111
C21 C 0.3940(7) -0.0390(7) 0.0800(2)
H10 H 0.3735 -0.1095 0.0545
C22 C 0.3120(7) 0.0890(7) 0.0844(3)
H11 H 0.2367 0.1002 0.0618
C23 C 0.3376(6) 0.1995(7) 0.1206(2)
H12 H 0.2806 0.2832 0.1235
C24 C 0.4539(5) 0.1794(6) 0.1528(2)
N1 N 0.4273(4) 0.4763(5) 0.30749(16)
N2 N 0.3324(4) 0.2860(5) 0.35030(16)
H13 H 0.2793 0.2109 0.3567
N3 N 0.5102(4) 0.2749(5) 0.19071(16)
N4 N 0.6360(4) 0.0644(5) 0.18611(17)
H14 H 0.6995 -0.0003 0.1935
N5 N 0.6445(4) 0.5305(5) 0.14152(15)
N6 N 0.6543(4) 0.4879(5) 0.05683(16)
H15 H 0.6277 0.4798 0.0251
O1 O 0.2644(3) 0.4272(4) 0.22425(13)
O2 O 0.1374(3) 0.2569(4) 0.26591(13)
O3 O 0.3639(4) 0.5621(5) 0.05206(14)
O4 O 0.3724(3) 0.5742(4) 0.13840(13)
O5 O 0.6799(3) 0.4005(4) 0.25964(13)
O6 O 0.8275(3) 0.2089(4) 0.25896(13)
Ho1A Ho 0.01082(2) 0.04267(3) 0.281364(8)
Ho1A_2 Ho 1.01082(2) 0.04267(3) 0.281364(8)
O2A O 0.3626(3) 0.7569(4) 0.23409(13)
O6A O 0.6725(3) 0.7089(4) 0.24104(13)
loop_
_geom_bond_atom_site_label_1
_geom_bond_atom_site_label_2
_geom_bond_site_symmetry_1
_geom_bond_site_symmetry_2
Ho1 N1 1_555 1_555
C1 C2 1_555 1_555
C2 N1 1_555 1_555
C3 C4 1_555 1_555
C4 H1 1_555 1_555
C5 C4 1_555 1_555
H2 C5 1_555 1_555
C6 C5 1_555 1_555
H3 C6 1_555 1_555
C7 C6 1_555 1_555
H4 C7 1_555 1_555
C8 C3 1_555 1_555
C9 C10 1_555 1_555
C10 N5 1_555 1_555
C11 C12 1_555 1_555
C12 H5 1_555 1_555
C13 C12 1_555 1_555
H6 C13 1_555 1_555
C14 C13 1_555 1_555
H7 C14 1_555 1_555
C15 C14 1_555 1_555
H8 C15 1_555 1_555
C16 C11 1_555 1_555
C17 C18 1_555 1_555
C18 N3 1_555 1_555
C19 C20 1_555 1_555
C20 H9 1_555 1_555
C21 C20 1_555 1_555
H10 C21 1_555 1_555
C22 C21 1_555 1_555
H11 C22 1_555 1_555
C23 C22 1_555 1_555
H12 C23 1_555 1_555
C24 C19 1_555 1_555
N1 C3 1_555 1_555
N2 C2 1_555 1_555
H13 N2 1_555 1_555
N3 Ho1 1_555 1_555
N4 C18 1_555 1_555
H14 N4 1_555 1_555
N5 Ho1 1_555 1_555
N6 C10 1_555 1_555
H15 N6 1_555 1_555
O1 Ho1 1_555 1_555
O2 C1 1_555 1_555
O3 C9 1_555 1_555
O4 Ho1 1_555 1_555
O5 Ho1 1_555 1_555
O6 C17 1_555 1_555
Ho1A O2 1_555 1_555
Ho1A_2 O6 1_555 1_555
O2A Ho1 1_555 1_555
O6A Ho1 1_555 1_555
C1 O1 1_555 1_555
C7 C8 1_555 1_555
C8 N2 1_555 1_555
C9 O4 1_555 1_555
C11 N6 1_555 1_555
C15 C16 1_555 1_555
C16 N5 1_555 1_555
C17 O5 1_555 1_555
C19 N4 1_555 1_555
C23 C24 1_555 1_555
C24 N3 1_555 1_555

#END
