
#######################################################################
#
#                 Cambridge Crystallographic Data Centre
#                                CCDC 
#
#######################################################################
#
# If this CIF has been generated from an entry in the Cambridge 
# Structural Database, then it will include bibliographic, chemical, 
# crystal, experimental, refinement or atomic coordinate data resulting 
# from the CCDC's data processing and validation procedures.
#
#######################################################################

data_NERYAL
_symmetry_cell_setting           monoclinic
_symmetry_space_group_name_H-M   'P 21/c'
_symmetry_Int_Tables_number      14
_space_group_name_Hall           '-P 2ybc'
loop_
_symmetry_equiv_pos_site_id
_symmetry_equiv_pos_as_xyz
1 x,y,z
2 -x,1/2+y,1/2-z
3 -x,-y,-z
4 x,1/2-y,1/2+z
_cell_length_a                   7.7767(16)
_cell_length_b                   16.313(3)
_cell_length_c                   8.2196(16)
_cell_angle_alpha                90
_cell_angle_beta                 115.26(3)
_cell_angle_gamma                90
_cell_volume                     943.042
loop_
_atom_site_label
_atom_site_type_symbol
_atom_site_fract_x
_atom_site_fract_y
_atom_site_fract_z
Mn1 Mn 0.75180(5) 0.25399(2) 0.47549(5)
Cl1 Cl 0.75230(10) 0.14075(5) 0.73300(9)
O1 O 0.5658(2) 0.32401(11) 0.5447(2)
O2 O 0.5018(2) 0.30750(12) 0.7833(2)
O3 O -0.0008(2) 0.31082(12) -0.3192(2)
O4 O -0.0599(2) 0.32283(11) -0.0770(2)
N1 N 0.2650(3) 0.41925(11) 0.3692(2)
N2 N 0.2367(3) 0.42034(11) 0.0981(2)
C1 C 0.4705(3) 0.33487(13) 0.6314(3)
C2 C 0.2930(3) 0.38895(15) 0.5457(3)
H1 H 0.1823 0.3576 0.5338
H2 H 0.3050 0.4352 0.6241
C3 C 0.2513(3) 0.37245(15) 0.2330(3)
H3 H 0.2519 0.3154 0.2322
C4 C 0.2585(4) 0.49992(14) 0.3196(3)
H4 H 0.2652 0.5454 0.3902
C5 C 0.2406(4) 0.50074(14) 0.1487(3)
H5 H 0.2325 0.5468 0.0790
C6 C 0.2078(3) 0.39136(15) -0.0800(3)
H6 H 0.3192 0.3610 -0.0698
H7 H 0.1934 0.4382 -0.1575
C7 C 0.0324(3) 0.33642(13) -0.1655(3)
Mn1C Mn 0.75180(5) 0.24601(2) 0.97549(5)
Mn1_2 Mn -0.24820(5) 0.25399(2) -0.52451(5)
Mn1C_2 Mn -0.24820(5) 0.24601(2) -0.02451(5)
Cl1C Cl 0.75230(10) 0.35925(5) 0.23300(9)
O2C O 0.5018(2) 0.19250(12) 0.2833(2)
O3_2 O 0.9992(2) 0.31082(12) 0.6808(2)
O4C O 0.9401(2) 0.17717(11) 0.4230(2)
loop_
_geom_bond_atom_site_label_1
_geom_bond_atom_site_label_2
_geom_bond_site_symmetry_1
_geom_bond_site_symmetry_2
Mn1 Cl1 1_555 1_555
Cl1 Mn1C 1_555 1_555
O1 Mn1 1_555 1_555
O2 C1 1_555 1_555
O3 C7 1_555 1_555
O4 C7 1_555 1_555
N1 C2 1_555 1_555
N2 C3 1_555 1_555
C1 O1 1_555 1_555
C2 C1 1_555 1_555
H1 C2 1_555 1_555
H2 C2 1_555 1_555
C3 N1 1_555 1_555
H3 C3 1_555 1_555
C4 N1 1_555 1_555
H4 C4 1_555 1_555
C5 N2 1_555 1_555
H5 C5 1_555 1_555
C6 N2 1_555 1_555
H6 C6 1_555 1_555
H7 C6 1_555 1_555
C7 C6 1_555 1_555
Mn1C O2 1_555 1_555
Mn1_2 O3 1_555 1_555
Mn1C_2 O4 1_555 1_555
Cl1C Mn1 1_555 1_555
O2C Mn1 1_555 1_555
O3_2 Mn1 1_555 1_555
O4C Mn1 1_555 1_555
C4 C5 1_555 1_555

#END
