
#######################################################################
#
#                 Cambridge Crystallographic Data Centre
#                                CCDC 
#
#######################################################################
#
# If this CIF has been generated from an entry in the Cambridge 
# Structural Database, then it will include bibliographic, chemical, 
# crystal, experimental, refinement or atomic coordinate data resulting 
# from the CCDC's data processing and validation procedures.
#
#######################################################################

data_NERZER
_symmetry_cell_setting           monoclinic
_symmetry_space_group_name_H-M   'P 21/c'
_symmetry_Int_Tables_number      14
_space_group_name_Hall           '-P 2ybc'
loop_
_symmetry_equiv_pos_site_id
_symmetry_equiv_pos_as_xyz
1 x,y,z
2 -x,1/2+y,1/2-z
3 -x,-y,-z
4 x,1/2-y,1/2+z
_cell_length_a                   14.2691(11)
_cell_length_b                   5.6188(4)
_cell_length_c                   13.7419(10)
_cell_angle_alpha                90
_cell_angle_beta                 101.886(9)
_cell_angle_gamma                90
_cell_volume                     1078.14
loop_
_atom_site_label
_atom_site_type_symbol
_atom_site_fract_x
_atom_site_fract_y
_atom_site_fract_z
Ni1 Ni 0.0000 0.0000 0.0000
Ni2 Ni -0.5000 0.0000 0.0000
S1 S -0.03025(8) 0.2369(2) -0.15882(8)
S2 S -0.51611(9) 0.2426(2) -0.15796(9)
N1 N -0.4971(3) 0.7046(7) -0.0791(3)
N2 N -0.0249(3) 0.7034(7) -0.0852(3)
C1 C -0.5037(3) 0.5131(9) -0.1109(3)
C2 C -0.0273(3) 0.5114(8) -0.1156(3)
N3 N -0.1472(3) 0.0166(8) 0.0051(3)
C3 C -0.2159(3) -0.0523(10) -0.0729(4)
H1 H -0.1985 -0.1029 -0.1311
C4 C -0.2735(3) 0.0896(10) 0.0934(4)
C5 C -0.1762(3) 0.0842(10) 0.0861(4)
H2 H -0.1303 0.1306 0.1411
C6 C -0.2961(4) 0.1739(14) 0.1899(4)
H3 H -0.3129 0.3396 0.1845
H4 H -0.2410 0.1524 0.2425
H5 H -0.3488 0.0838 0.2042
N4 N -0.3411(3) 0.0214(8) 0.0159(3)
C7 C -0.3116(3) -0.0487(10) -0.0673(4)
H6 H -0.3572 -0.0958 -0.1225
Ni1_2 Ni 0.0000 1.0000 0.0000
Ni1_3 Ni 0.0000 -1.0000 0.0000
Ni2_2 Ni -0.5000 1.0000 0.0000
Ni2_3 Ni 0.5000 0.0000 0.0000
Ni2_4 Ni -0.5000 -1.0000 0.0000
S1_2 S -0.03025(8) -0.7631(2) -0.15882(8)
S1B S 0.03025(8) -0.2369(2) 0.15882(8)
S2_2 S -0.51611(9) -0.7574(2) -0.15796(9)
S2B S -0.48389(9) -0.2426(2) 0.15796(9)
N1_2 N -0.4971(3) -0.2954(7) -0.0791(3)
N1B N -0.5029(3) 0.2954(7) 0.0791(3)
N2_2 N -0.0249(3) -0.2966(7) -0.0852(3)
N2B N 0.0249(3) 0.2966(7) 0.0852(3)
C1_2 C -0.5037(3) -0.4869(9) -0.1109(3)
C2_2 C -0.0273(3) -0.4886(8) -0.1156(3)
N3B N 0.1472(3) -0.0166(8) -0.0051(3)
C3B C 0.2159(3) 0.0523(10) 0.0729(4)
H1B H 0.1985 0.1029 0.1311
C4B C 0.2735(3) -0.0896(10) -0.0934(4)
C5B C 0.1762(3) -0.0842(10) -0.0861(4)
H2B H 0.1303 -0.1306 -0.1411
C6B C 0.2961(4) -0.1739(14) -0.1899(4)
H3B H 0.3129 -0.3396 -0.1845
H4B H 0.2410 -0.1524 -0.2425
H5B H 0.3488 -0.0838 -0.2042
N4B N 0.3411(3) -0.0214(8) -0.0159(3)
N4B_2 N -0.6589(3) -0.0214(8) -0.0159(3)
C7B C 0.3116(3) 0.0487(10) 0.0673(4)
H6B H 0.3572 0.0958 0.1225
loop_
_geom_bond_atom_site_label_1
_geom_bond_atom_site_label_2
_geom_bond_site_symmetry_1
_geom_bond_site_symmetry_2
Ni1 S1 1_555 1_555
Ni2 S2 1_555 1_555
S1 C2 1_555 1_555
S2 C1 1_555 1_555
N1 C1 1_555 1_555
N2 C2 1_555 1_555
N3 Ni1 1_555 1_555
C3 N3 1_555 1_555
H1 C3 1_555 1_555
C4 C5 1_555 1_555
C5 N3 1_555 1_555
H2 C5 1_555 1_555
C6 C4 1_555 1_555
H3 C6 1_555 1_555
H4 C6 1_555 1_555
H5 C6 1_555 1_555
N4 Ni2 1_555 1_555
C7 C3 1_555 1_555
H6 C7 1_555 1_555
Ni1_2 N2 1_555 1_555
Ni1_3 S1_2 1_555 1_555
Ni2_2 N1 1_555 1_555
Ni2_3 N4B 1_555 1_555
Ni2_4 S2_2 1_555 1_555
S1_2 C2_2 1_555 1_555
S1B Ni1 1_555 1_555
S2_2 C1_2 1_555 1_555
S2B Ni2 1_555 1_555
N1_2 Ni2 1_555 1_555
N1B Ni2 1_555 1_555
N2_2 Ni1 1_555 1_555
N2B Ni1 1_555 1_555
C1_2 N1_2 1_555 1_555
C2_2 N2_2 1_555 1_555
N3B Ni1 1_555 1_555
C3B N3B 1_555 1_555
H1B C3B 1_555 1_555
C4B C5B 1_555 1_555
C5B N3B 1_555 1_555
H2B C5B 1_555 1_555
C6B C4B 1_555 1_555
H3B C6B 1_555 1_555
H4B C6B 1_555 1_555
H5B C6B 1_555 1_555
N4B C4B 1_555 1_555
N4B_2 Ni2 1_555 1_555
C7B C3B 1_555 1_555
H6B C7B 1_555 1_555
C4 N4 1_555 1_555
N4 C7 1_555 1_555
N4B C7B 1_555 1_555

#END
