
#######################################################################
#
#                 Cambridge Crystallographic Data Centre
#                                CCDC 
#
#######################################################################
#
# If this CIF has been generated from an entry in the Cambridge 
# Structural Database, then it will include bibliographic, chemical, 
# crystal, experimental, refinement or atomic coordinate data resulting 
# from the CCDC's data processing and validation procedures.
#
#######################################################################

data_NERZOA
_symmetry_cell_setting           triclinic
_symmetry_space_group_name_H-M   'P -1'
_symmetry_Int_Tables_number      2
_space_group_name_Hall           '-P 1'
loop_
_symmetry_equiv_pos_site_id
_symmetry_equiv_pos_as_xyz
1 x,y,z
2 -x,-y,-z
_cell_length_a                   10.055(4)
_cell_length_b                   11.476(5)
_cell_length_c                   11.793(5)
_cell_angle_alpha                104.101(19)
_cell_angle_beta                 103.065(16)
_cell_angle_gamma                107.632(16)
_cell_volume                     1189.78
loop_
_atom_site_label
_atom_site_type_symbol
_atom_site_fract_x
_atom_site_fract_y
_atom_site_fract_z
Ni1 Ni 0.69933(3) 0.65303(3) 0.68740(3)
O1 O 0.47449(17) 0.57825(16) 0.67232(15)
O2 O 0.64850(17) 0.63558(16) 0.84814(15)
O3 O 0.74054(19) 0.48907(16) 0.63733(18)
O4 O 0.5467(2) 0.31757(19) 0.6185(2)
O5 O 0.68511(18) 0.65233(17) 0.51106(16)
H1 H 0.621(2) 0.682(2) 0.483(2)
H2 H 0.655(3) 0.5722(11) 0.472(2)
N1 N 0.9232(2) 0.7644(2) 0.76179(19)
N2 N 0.6955(3) 0.8399(2) 0.7375(2)
C1 C 0.5140(2) 0.5939(2) 0.7870(2)
C2 C 0.3997(2) 0.5677(2) 0.8493(2)
C3 C 0.2518(3) 0.4983(3) 0.7791(2)
H5 H 0.2245 0.4658 0.6934
C4 C 0.1456(3) 0.4774(3) 0.8360(2)
H6 H 0.0473 0.4291 0.7885
C5 C 0.1836(3) 0.5278(2) 0.9636(2)
C6 C 0.3315(3) 0.5928(2) 1.0339(2)
H7 H 0.3590 0.6233 1.1197
C7 C 0.4389(2) 0.6126(2) 0.9763(2)
H8 H 0.5379 0.6565 1.0239
C8 C 0.0714(3) 0.5141(2) 1.0267(2)
H9 H 0.1030 0.5261 1.1107
C9 C 0.6708(2) 0.3690(2) 0.6106(2)
C10 C 0.7499(3) 0.2824(2) 0.5695(2)
C11 C 0.8781(3) 0.3291(3) 0.5413(2)
H10 H 0.9128 0.4144 0.5424
C12 C 0.9553(3) 0.2516(3) 0.5118(3)
H11 H 1.0395 0.2844 0.4910
C13 C 0.9087(3) 0.1262(3) 0.5128(3)
C14 C 0.7770(4) 0.0773(3) 0.5358(3)
H12 H 0.7416 -0.0084 0.5335
C15 C 0.6971(3) 0.1541(3) 0.5622(3)
H13 H 0.6077 0.1190 0.5750
C16 C 1.0059(4) 0.0548(3) 0.4916(3)
H14 H 1.0824 0.0919 0.4637
C17 C 0.9540(3) 0.8927(3) 0.8062(2)
C18 C 1.0342(3) 0.7238(3) 0.7724(3)
H15 H 1.0130 0.6351 0.7426
C19 C 1.1824(3) 0.8091(4) 0.8267(4)
H16 H 1.2578 0.7776 0.8317
C20 C 1.2139(4) 0.9389(4) 0.8720(3)
H17 H 1.3116 0.9967 0.9086
C21 C 1.0993(4) 0.9858(3) 0.8636(3)
C22 C 1.1217(5) 1.1182(4) 0.9115(4)
H18 H 1.2175 1.1797 0.9490
C23 C 1.0104(6) 1.1566(3) 0.9044(4)
H19 H 1.0299 1.2445 0.9384
C24 C 0.8570(5) 1.0657(3) 0.8450(3)
C25 C 0.7324(6) 1.0974(3) 0.8340(4)
H20 H 0.7435 1.1835 0.8668
C26 C 0.5935(5) 1.0028(4) 0.7751(4)
H21 H 0.5104 1.0240 0.7675
C27 C 0.5795(4) 0.8745(3) 0.7270(3)
H22 H 0.4856 0.8106 0.6859
C28 C 0.8320(3) 0.9330(2) 0.7954(2)
Ni1A Ni -0.69933(3) 0.34697(3) 1.31260(3)
Ni1A_2 Ni 1.30067(3) -0.65303(3) 0.31260(3)
O1A O -0.47449(17) 0.42175(16) 1.32768(15)
O2A O -0.64850(17) 0.36442(16) 1.15186(15)
O3A O 1.25946(19) -0.48907(16) 0.36267(18)
O3A_2 O -0.74054(19) 0.51093(16) 1.36267(18)
O4A O 1.4533(2) -0.31757(19) 0.3815(2)
O5A O -0.68511(18) 0.34767(17) 1.48894(16)
H1A H -0.621(2) 0.318(2) 1.517(2)
H2A H -0.655(3) 0.4278(11) 1.528(2)
N1A N -0.9232(2) 0.2356(2) 1.23821(19)
N2A N -0.6955(3) 0.1601(2) 1.2625(2)
C1A C -0.5140(2) 0.4061(2) 1.2130(2)
C2A C -0.3997(2) 0.4323(2) 1.1507(2)
C3A C -0.2518(3) 0.5017(3) 1.2209(2)
H5A H -0.2245 0.5342 1.3066
C4A C -0.1456(3) 0.5226(3) 1.1640(2)
H6A H -0.0473 0.5709 1.2115
C5A C -0.1836(3) 0.4722(2) 1.0364(2)
C6A C -0.3315(3) 0.4072(2) 0.9661(2)
H7A H -0.3590 0.3767 0.8803
C7A C -0.4389(2) 0.3874(2) 1.0237(2)
H8A H -0.5379 0.3435 0.9761
C8A C -0.0714(3) 0.4859(2) 0.9733(2)
H9A H -0.1030 0.4739 0.8893
C9A C 1.3292(2) -0.3690(2) 0.3894(2)
C10A C 1.2501(3) -0.2824(2) 0.4305(2)
C11A C 1.1219(3) -0.3291(3) 0.4587(2)
H10A H 1.0872 -0.4144 0.4576
C12A C 1.0447(3) -0.2516(3) 0.4882(3)
H11A H 0.9605 -0.2844 0.5090
C13A C 1.0913(3) -0.1262(3) 0.4872(3)
C14A C 1.2230(4) -0.0773(3) 0.4642(3)
H12A H 1.2584 0.0084 0.4665
C15A C 1.3029(3) -0.1541(3) 0.4378(3)
H13A H 1.3923 -0.1190 0.4250
C16A C 0.9941(4) -0.0548(3) 0.5084(3)
H14A H 0.9176 -0.0919 0.5363
C17A C -0.9540(3) 0.1073(3) 1.1938(2)
C18A C -1.0342(3) 0.2762(3) 1.2276(3)
H15A H -1.0130 0.3649 1.2574
C19A C -1.1824(3) 0.1909(4) 1.1733(4)
H16A H -1.2578 0.2224 1.1683
C20A C -1.2139(4) 0.0611(4) 1.1280(3)
H17A H -1.3116 0.0033 1.0914
C21A C -1.0993(4) 0.0142(3) 1.1364(3)
C22A C -1.1217(5) -0.1182(4) 1.0885(4)
H18A H -1.2175 -0.1797 1.0510
C23A C -1.0104(6) -0.1566(3) 1.0956(4)
H19A H -1.0299 -0.2445 1.0616
C24A C -0.8570(5) -0.0657(3) 1.1550(3)
C25A C -0.7324(6) -0.0974(3) 1.1660(4)
H20A H -0.7435 -0.1835 1.1332
C26A C -0.5935(5) -0.0028(4) 1.2249(4)
H21A H -0.5104 -0.0240 1.2325
C27A C -0.5795(4) 0.1255(3) 1.2730(3)
H22A H -0.4856 0.1894 1.3141
C28A C -0.8320(3) 0.0670(2) 1.2046(2)
O6 O 0.3649(5) 0.1809(6) 0.7382(4)
H3 H 0.393(7) 0.221(6) 0.688(5)
H4 H 0.278(4) 0.121(5) 0.696(5)
loop_
_geom_bond_atom_site_label_1
_geom_bond_atom_site_label_2
_geom_bond_site_symmetry_1
_geom_bond_site_symmetry_2
Ni1 O1 1_555 1_555
O1 C1 1_555 1_555
O2 Ni1 1_555 1_555
O3 Ni1 1_555 1_555
O4 C9 1_555 1_555
O5 Ni1 1_555 1_555
H1 O5 1_555 1_555
H2 O5 1_555 1_555
O6 H3 1_555 1_555
H4 O6 1_555 1_555
N1 Ni1 1_555 1_555
N2 Ni1 1_555 1_555
C1 O2 1_555 1_555
C2 C1 1_555 1_555
C3 C2 1_555 1_555
H5 C3 1_555 1_555
C4 C3 1_555 1_555
H6 C4 1_555 1_555
C5 C4 1_555 1_555
C6 C5 1_555 1_555
H7 C6 1_555 1_555
C7 C2 1_555 1_555
H8 C7 1_555 1_555
C8 C5 1_555 1_555
H9 C8 1_555 1_555
C9 O3 1_555 1_555
C10 C9 1_555 1_555
C11 C10 1_555 1_555
H10 C11 1_555 1_555
C12 C11 1_555 1_555
H11 C12 1_555 1_555
C13 C12 1_555 1_555
C14 C13 1_555 1_555
H12 C14 1_555 1_555
C15 C10 1_555 1_555
H13 C15 1_555 1_555
C16 C13 1_555 1_555
H14 C16 1_555 1_555
C17 N1 1_555 1_555
C18 N1 1_555 1_555
H15 C18 1_555 1_555
C19 C18 1_555 1_555
H16 C19 1_555 1_555
C20 C19 1_555 1_555
H17 C20 1_555 1_555
C21 C17 1_555 1_555
C22 C21 1_555 1_555
H18 C22 1_555 1_555
C23 C22 1_555 1_555
H19 C23 1_555 1_555
C24 C23 1_555 1_555
C25 C24 1_555 1_555
H20 C25 1_555 1_555
C26 C25 1_555 1_555
H21 C26 1_555 1_555
C27 N2 1_555 1_555
H22 C27 1_555 1_555
C28 N2 1_555 1_555
Ni1A O1A 1_555 1_555
Ni1A_2 O3A 1_555 1_555
O1A C1A 1_555 1_555
O2A Ni1A 1_555 1_555
O3A C9A 1_555 1_555
O3A_2 Ni1A 1_555 1_555
O4A C9A 1_555 1_555
O5A Ni1A 1_555 1_555
H1A O5A 1_555 1_555
H2A O5A 1_555 1_555
N1A Ni1A 1_555 1_555
N2A Ni1A 1_555 1_555
C1A O2A 1_555 1_555
C2A C1A 1_555 1_555
C3A C2A 1_555 1_555
H5A C3A 1_555 1_555
C4A C3A 1_555 1_555
H6A C4A 1_555 1_555
C5A C4A 1_555 1_555
C6A C5A 1_555 1_555
H7A C6A 1_555 1_555
C7A C2A 1_555 1_555
H8A C7A 1_555 1_555
C8A C8 1_555 1_555
H9A C8A 1_555 1_555
C9A C10A 1_555 1_555
C10A C11A 1_555 1_555
C11A H10A 1_555 1_555
C12A C11A 1_555 1_555
H11A C12A 1_555 1_555
C13A C12A 1_555 1_555
C14A C13A 1_555 1_555
H12A C14A 1_555 1_555
C15A C10A 1_555 1_555
H13A C15A 1_555 1_555
C16A C16 1_555 1_555
H14A C16A 1_555 1_555
C17A N1A 1_555 1_555
C18A N1A 1_555 1_555
H15A C18A 1_555 1_555
C19A C18A 1_555 1_555
H16A C19A 1_555 1_555
C20A C19A 1_555 1_555
H17A C20A 1_555 1_555
C21A C17A 1_555 1_555
C22A C21A 1_555 1_555
H18A C22A 1_555 1_555
C23A C22A 1_555 1_555
H19A C23A 1_555 1_555
C24A C23A 1_555 1_555
C25A C24A 1_555 1_555
H20A C25A 1_555 1_555
C26A C25A 1_555 1_555
H21A C26A 1_555 1_555
C27A N2A 1_555 1_555
H22A C27A 1_555 1_555
C28A N2A 1_555 1_555
C6 C7 1_555 1_555
C14 C15 1_555 1_555
C17 C28 1_555 1_555
C20 C21 1_555 1_555
C24 C28 1_555 1_555
C26 C27 1_555 1_555
C5A C8A 1_555 1_555
C6A C7A 1_555 1_555
C13A C16A 1_555 1_555
C14A C15A 1_555 1_555
C17A C28A 1_555 1_555
C20A C21A 1_555 1_555
C24A C28A 1_555 1_555
C26A C27A 1_555 1_555

#END
