
#######################################################################
#
#                 Cambridge Crystallographic Data Centre
#                                CCDC 
#
#######################################################################
#
# If this CIF has been generated from an entry in the Cambridge 
# Structural Database, then it will include bibliographic, chemical, 
# crystal, experimental, refinement or atomic coordinate data resulting 
# from the CCDC's data processing and validation procedures.
#
#######################################################################

data_NESDOG
_symmetry_cell_setting           monoclinic
_symmetry_space_group_name_H-M   'P 21/n'
_symmetry_Int_Tables_number      14
_space_group_name_Hall           '-P 2yn'
loop_
_symmetry_equiv_pos_site_id
_symmetry_equiv_pos_as_xyz
1 x,y,z
2 1/2-x,1/2+y,1/2-z
3 -x,-y,-z
4 1/2+x,1/2-y,1/2+z
_cell_length_a                   15.7969(8)
_cell_length_b                   20.9803(11)
_cell_length_c                   20.0682(10)
_cell_angle_alpha                90
_cell_angle_beta                 96.453(2)
_cell_angle_gamma                90
_cell_volume                     6608.94
loop_
_atom_site_label
_atom_site_type_symbol
_atom_site_fract_x
_atom_site_fract_y
_atom_site_fract_z
Mn1 Mn 0.74617(2) 0.233527(15) 0.161712(16)
Mn2 Mn 0.74379(2) 0.245515(15) 0.368687(16)
O1 O 0.72703(9) 0.33385(7) 0.31274(7)
O2 O 0.60819(10) 0.25690(7) 0.15940(8)
H1 H 0.5739(15) 0.2343(12) 0.1779(13)
H2 H 0.5969(17) 0.2944(6) 0.1697(14)
O4 O 0.77676(9) 0.31892(7) 0.21364(7)
O5 O 0.88186(10) 0.20391(8) 0.17570(8)
H3 H 0.9230(13) 0.2292(11) 0.1823(14)
H4 H 0.8948(17) 0.1731(9) 0.2013(12)
O6 O 0.56915(9) 0.37877(7) 0.19556(8)
O7 O 0.61213(10) 0.22600(8) 0.33248(8)
H5 H 0.5702(13) 0.2508(11) 0.3302(14)
H6 H 0.5984(17) 0.1951(10) 0.3071(12)
O8 O 0.55138(9) 0.43241(7) 0.28963(7)
H7 H 0.5069 0.4102 0.2884
O9 O 0.87712(10) 0.25276(8) 0.33997(8)
H8 H 0.8925(17) 0.2190(8) 0.3228(13)
H9 H 0.8919(17) 0.2836(9) 0.3175(12)
O10 O 0.52666(9) 0.52361(7) 0.17676(8)
O11 O 0.58167(9) 0.61429(7) 0.22152(8)
O13 O 0.73676(9) 0.64736(7) 0.15872(7)
O15 O 0.77339(9) 0.66080(7) 0.26883(8)
O17 O 0.92150(9) 0.59497(7) 0.20034(7)
O18 O 0.95575(9) 0.55364(7) 0.30277(8)
O19 O 0.92270(9) 0.37996(7) 0.29887(7)
O20 O 0.96382(9) 0.43924(7) 0.21574(8)
N1 N 0.70076(12) 0.17203(9) 0.07421(9)
N2 N 0.77837(12) 0.28523(9) 0.06808(9)
N3 N 0.68571(11) 0.30025(9) 0.44944(9)
N4 N 0.80450(12) 0.21162(9) 0.47175(9)
C1 C 0.75094(12) 0.35241(10) 0.25884(10)
C2 C 0.59139(13) 0.41891(9) 0.23748(10)
C3 C 0.58548(13) 0.55493(10) 0.20595(10)
C4 C 0.75093(12) 0.62757(10) 0.21791(10)
C5 C 0.90795(13) 0.55956(9) 0.25030(10)
C6 C 0.91146(13) 0.42327(9) 0.25341(11)
C7 C 0.74995(13) 0.42368(10) 0.24741(10)
C8 C 0.67240(12) 0.45673(10) 0.23631(10)
C9 C 0.67039(12) 0.52230(10) 0.22498(10)
C10 C 0.74727(13) 0.55604(10) 0.22874(10)
C11 C 0.82464(13) 0.52355(10) 0.24167(10)
C12 C 0.82649(13) 0.45734(10) 0.24817(10)
C25 C 0.65442(15) 0.11943(11) 0.08030(12)
H19 H 0.6527 0.1017 0.1237
C26 C 0.60880(15) 0.08976(12) 0.02599(13)
H20 H 0.5772 0.0520 0.0318
C27 C 0.61028(16) 0.11638(13) -0.03699(13)
H21 H 0.5788 0.0975 -0.0751
C28 C 0.65807(16) 0.17081(13) -0.04401(12)
H22 H 0.6599 0.1897 -0.0869
C29 C 0.70315(14) 0.19736(11) 0.01253(11)
C30 C 0.75746(14) 0.25470(12) 0.00930(11)
C31 C 0.78720(17) 0.27557(14) -0.04987(12)
H23 H 0.7725 0.2531 -0.0906
C32 C 0.83814(18) 0.32914(14) -0.04862(14)
H24 H 0.8587 0.3441 -0.0885
C33 C 0.85875(16) 0.36077(13) 0.01153(13)
H25 H 0.8935 0.3978 0.0137
C34 C 0.82771(15) 0.33726(12) 0.06840(12)
H26 H 0.8420 0.3590 0.1097
C35 C 0.62361(14) 0.34323(10) 0.43398(11)
H27 H 0.6068 0.3526 0.3881
C36 C 0.58306(15) 0.37455(12) 0.48223(12)
H28 H 0.5393 0.4047 0.4697
C37 C 0.60769(15) 0.36091(12) 0.54888(12)
H29 H 0.5810 0.3816 0.5831
C38 C 0.67192(15) 0.31661(12) 0.56544(11)
H30 H 0.6898 0.3067 0.6111
C39 C 0.70985(14) 0.28683(10) 0.51431(11)
C40 C 0.77876(14) 0.23895(10) 0.52703(11)
C41 C 0.81679(15) 0.22420(11) 0.59110(11)
H31 H 0.7981 0.2443 0.6293
C42 C 0.88215(16) 0.17997(12) 0.59865(12)
H32 H 0.9094 0.1698 0.6420
C43 C 0.90726(15) 0.15079(12) 0.54238(13)
H33 H 0.9510 0.1195 0.5463
C44 C 0.86723(15) 0.16818(11) 0.47993(12)
H34 H 0.8850 0.1485 0.4412
Mn1A Mn 0.75383(2) 0.733527(15) 0.338288(16)
Mn2A Mn 0.75621(2) 0.745515(15) 0.131313(16)
O13A O 0.76324(9) 0.14736(7) 0.34128(7)
O15A O 0.72661(9) 0.16080(7) 0.23117(8)
Mn3 Mn 0.23044(2) 0.482880(15) 0.160350(16)
Mn4 Mn 0.22817(2) 0.502978(15) 0.364801(16)
O12 O 0.36636(10) 0.46002(8) 0.17820(8)
H10 H 0.4099(12) 0.4824(12) 0.1749(15)
H11 H 0.3798(17) 0.4303(10) 0.2052(12)
O14 O 0.09577(9) 0.47859(7) 0.33195(8)
H12 H 0.0574(13) 0.5061(10) 0.3254(14)
H13 H 0.0866(17) 0.4497(10) 0.3030(11)
O16 O 0.36293(10) 0.50666(7) 0.34114(8)
H14 H 0.3831(17) 0.5382(9) 0.3225(13)
H15 H 0.3763(17) 0.4727(8) 0.3233(13)
O21 O 0.20958(9) 0.58629(7) 0.30283(7)
O22 O 0.25468(9) 0.57477(7) 0.20151(7)
O23 O 0.06262(9) 0.64064(7) 0.19852(8)
H16 H 0.0141 0.6265 0.2040
O24 O 0.03671(9) 0.70776(7) 0.28067(8)
O25 O 0.09342(9) 0.87875(7) 0.21972(7)
O26 O 0.03731(9) 0.79381(7) 0.16435(8)
O27 O 0.25152(9) 0.90315(7) 0.15725(7)
O28 O 0.29162(9) 0.91301(7) 0.26721(7)
O29 O 0.43103(9) 0.83899(7) 0.19606(7)
H17 H 0.4820 0.8511 0.2014
O30 O 0.47175(9) 0.77915(7) 0.28669(8)
O31 O 0.44064(9) 0.66741(7) 0.19625(7)
H18 H 0.4875 0.6486 0.2049
O32 O 0.41143(9) 0.62472(7) 0.29354(8)
N5 N 0.17710(12) 0.41615(9) 0.07868(9)
N6 N 0.27040(12) 0.52017(9) 0.06290(9)
N7 N 0.28528(12) 0.47550(9) 0.47039(9)
N8 N 0.17331(12) 0.56813(9) 0.43958(9)
C13 C 0.23367(12) 0.60668(10) 0.24988(10)
C14 C 0.08127(13) 0.68779(10) 0.23918(10)
C15 C 0.09495(13) 0.82073(10) 0.20022(10)
C16 C 0.26668(12) 0.88139(9) 0.21526(10)
C17 C 0.41851(13) 0.79791(9) 0.24177(10)
C18 C 0.39629(12) 0.66187(9) 0.24724(10)
C19 C 0.23979(13) 0.67849(10) 0.24217(10)
C20 C 0.16744(12) 0.71721(10) 0.23351(10)
C21 C 0.17521(12) 0.78249(9) 0.22158(10)
C22 C 0.25639(13) 0.81027(9) 0.22457(9)
C23 C 0.32908(13) 0.77123(10) 0.23598(10)
C24 C 0.32001(12) 0.70556(10) 0.24206(9)
C45 C 0.12206(15) 0.36962(11) 0.08905(12)
H35 H 0.1152 0.3581 0.1339
C46 C 0.07459(15) 0.33752(12) 0.03707(13)
H36 H 0.0362 0.3046 0.0461
C47 C 0.08447(16) 0.35452(13) -0.02774(13)
H37 H 0.0523 0.3337 -0.0643
C48 C 0.14163(16) 0.40218(13) -0.03947(12)
H38 H 0.1494 0.4143 -0.0840
C49 C 0.18752(14) 0.43197(11) 0.01520(11)
C50 C 0.24930(15) 0.48439(11) 0.00749(11)
C51 C 0.28579(17) 0.49508(14) -0.05138(12)
H39 H 0.2711 0.4690 -0.0897
C52 C 0.34377(18) 0.54422(15) -0.05341(13)
H40 H 0.3693 0.5523 -0.0932
C53 C 0.36424(17) 0.58143(13) 0.00266(13)
H41 H 0.4034 0.6158 0.0020
C54 C 0.32647(15) 0.56761(11) 0.05989(12)
H42 H 0.3410 0.5929 0.0988
C55 C 0.34259(14) 0.42870(11) 0.48314(11)
H43 H 0.3562 0.4030 0.4468
C56 C 0.38287(15) 0.41597(12) 0.54662(12)
H44 H 0.4219 0.3816 0.5539
C57 C 0.36496(16) 0.45440(12) 0.59906(12)
H45 H 0.3931 0.4478 0.6429
C58 C 0.30555(16) 0.50261(12) 0.58708(12)
H46 H 0.2924 0.5295 0.6226
C59 C 0.26516(14) 0.51121(11) 0.52225(11)
C60 C 0.19770(14) 0.55981(10) 0.50532(11)
C61 C 0.16089(15) 0.59413(12) 0.55404(12)
H47 H 0.1777 0.5866 0.6003
C62 C 0.09934(15) 0.63941(12) 0.53394(12)
H48 H 0.0737 0.6636 0.5663
C63 C 0.07582(14) 0.64896(11) 0.46627(12)
H49 H 0.0345 0.6802 0.4513
C64 C 0.11367(14) 0.61203(11) 0.42061(12)
H50 H 0.0967 0.6180 0.3741
O33 O 0.09398(11) 0.51239(8) 0.15738(9)
H51 H 0.0900(19) 0.5514(6) 0.1658(15)
H52 H 0.0508(13) 0.4933(13) 0.1692(15)
Mn3A Mn 0.26956(2) 0.982880(15) 0.339650(16)
Mn4A Mn 0.27183(2) 1.002978(15) 0.135199(16)
O27A O 0.24848(9) 0.40315(7) 0.34275(7)
O28A O 0.20838(9) 0.41301(7) 0.23279(7)
O3 O -0.0431(13) 0.4763(10) 0.0949(10)
loop_
_geom_bond_atom_site_label_1
_geom_bond_atom_site_label_2
_geom_bond_site_symmetry_1
_geom_bond_site_symmetry_2
Mn1 O2 1_555 1_555
Mn2 O1 1_555 1_555
Mn3 O12 1_555 1_555
Mn4 O14 1_555 1_555
O1 C1 1_555 1_555
O2 H1 1_555 1_555
H2 O2 1_555 1_555
O4 Mn1 1_555 1_555
O5 Mn1 1_555 1_555
H3 O5 1_555 1_555
H4 O5 1_555 1_555
O6 C2 1_555 1_555
O7 Mn2 1_555 1_555
H5 O7 1_555 1_555
H6 O7 1_555 1_555
O8 H7 1_555 1_555
O9 Mn2 1_555 1_555
H8 O9 1_555 1_555
H9 O9 1_555 1_555
O10 C3 1_555 1_555
O11 C3 1_555 1_555
O12 H10 1_555 1_555
H11 O12 1_555 1_555
O13 C4 1_555 1_555
O14 H12 1_555 1_555
H13 O14 1_555 1_555
O15 C4 1_555 1_555
O16 Mn4 1_555 1_555
H14 O16 1_555 1_555
H15 O16 1_555 1_555
O17 C5 1_555 1_555
O18 C5 1_555 1_555
O19 C6 1_555 1_555
O20 C6 1_555 1_555
O21 Mn4 1_555 1_555
O22 Mn3 1_555 1_555
O23 H16 1_555 1_555
O24 C14 1_555 1_555
O25 C15 1_555 1_555
O26 C15 1_555 1_555
O27 C16 1_555 1_555
O28 C16 1_555 1_555
O29 H17 1_555 1_555
O30 C17 1_555 1_555
O31 H18 1_555 1_555
O32 C18 1_555 1_555
N1 Mn1 1_555 1_555
N2 Mn1 1_555 1_555
N3 Mn2 1_555 1_555
N4 Mn2 1_555 1_555
N5 Mn3 1_555 1_555
N6 Mn3 1_555 1_555
N7 Mn4 1_555 1_555
N8 Mn4 1_555 1_555
C1 O4 1_555 1_555
C2 O8 1_555 1_555
C3 C9 1_555 1_555
C4 C10 1_555 1_555
C5 C11 1_555 1_555
C6 C12 1_555 1_555
C7 C1 1_555 1_555
C8 C2 1_555 1_555
C9 C8 1_555 1_555
C10 C9 1_555 1_555
C11 C10 1_555 1_555
C12 C7 1_555 1_555
C13 O21 1_555 1_555
C14 O23 1_555 1_555
C15 C21 1_555 1_555
C16 C22 1_555 1_555
C17 O29 1_555 1_555
C18 O31 1_555 1_555
C19 C13 1_555 1_555
C20 C14 1_555 1_555
C21 C20 1_555 1_555
C22 C21 1_555 1_555
C23 C17 1_555 1_555
C24 C18 1_555 1_555
C25 N1 1_555 1_555
H19 C25 1_555 1_555
C26 C25 1_555 1_555
H20 C26 1_555 1_555
C27 C26 1_555 1_555
H21 C27 1_555 1_555
C28 C27 1_555 1_555
H22 C28 1_555 1_555
C29 N1 1_555 1_555
C30 N2 1_555 1_555
C31 C30 1_555 1_555
H23 C31 1_555 1_555
C32 C31 1_555 1_555
H24 C32 1_555 1_555
C33 C32 1_555 1_555
H25 C33 1_555 1_555
C34 N2 1_555 1_555
H26 C34 1_555 1_555
C35 N3 1_555 1_555
H27 C35 1_555 1_555
C36 C35 1_555 1_555
H28 C36 1_555 1_555
C37 C36 1_555 1_555
H29 C37 1_555 1_555
C38 C37 1_555 1_555
H30 C38 1_555 1_555
C39 N3 1_555 1_555
C40 N4 1_555 1_555
C41 C40 1_555 1_555
H31 C41 1_555 1_555
C42 C41 1_555 1_555
H32 C42 1_555 1_555
C43 C42 1_555 1_555
H33 C43 1_555 1_555
C44 N4 1_555 1_555
H34 C44 1_555 1_555
C45 N5 1_555 1_555
H35 C45 1_555 1_555
C46 C45 1_555 1_555
H36 C46 1_555 1_555
C47 C46 1_555 1_555
H37 C47 1_555 1_555
C48 C47 1_555 1_555
H38 C48 1_555 1_555
C49 N5 1_555 1_555
C50 N6 1_555 1_555
C51 C50 1_555 1_555
H39 C51 1_555 1_555
C52 C51 1_555 1_555
H40 C52 1_555 1_555
C53 C52 1_555 1_555
H41 C53 1_555 1_555
C54 N6 1_555 1_555
H42 C54 1_555 1_555
C55 N7 1_555 1_555
H43 C55 1_555 1_555
C56 C55 1_555 1_555
H44 C56 1_555 1_555
C57 C56 1_555 1_555
H45 C57 1_555 1_555
C58 C57 1_555 1_555
H46 C58 1_555 1_555
C59 N7 1_555 1_555
C60 N8 1_555 1_555
C61 C60 1_555 1_555
H47 C61 1_555 1_555
C62 C61 1_555 1_555
H48 C62 1_555 1_555
C63 C62 1_555 1_555
H49 C63 1_555 1_555
C64 N8 1_555 1_555
H50 C64 1_555 1_555
O33 Mn3 1_555 1_555
H51 O33 1_555 1_555
H52 O33 1_555 1_555
Mn1A O15 1_555 1_555
Mn2A O13 1_555 1_555
Mn3A O28 1_555 1_555
Mn4A O27 1_555 1_555
O13A Mn2 1_555 1_555
O15A Mn1 1_555 1_555
O27A Mn4 1_555 1_555
O28A Mn3 1_555 1_555
O22 C13 1_555 1_555
C7 C8 1_555 1_555
C11 C12 1_555 1_555
C19 C20 1_555 1_555
C19 C24 1_555 1_555
C22 C23 1_555 1_555
C23 C24 1_555 1_555
C28 C29 1_555 1_555
C29 C30 1_555 1_555
C33 C34 1_555 1_555
C38 C39 1_555 1_555
C39 C40 1_555 1_555
C43 C44 1_555 1_555
C48 C49 1_555 1_555
C49 C50 1_555 1_555
C53 C54 1_555 1_555
C58 C59 1_555 1_555
C59 C60 1_555 1_555
C63 C64 1_555 1_555

#END
