
#######################################################################
#
#                 Cambridge Crystallographic Data Centre
#                                CCDC 
#
#######################################################################
#
# If this CIF has been generated from an entry in the Cambridge 
# Structural Database, then it will include bibliographic, chemical, 
# crystal, experimental, refinement or atomic coordinate data resulting 
# from the CCDC's data processing and validation procedures.
#
#######################################################################

data_NESDIA
_symmetry_cell_setting           monoclinic
_symmetry_space_group_name_H-M   'C 2/c'
_symmetry_Int_Tables_number      15
_space_group_name_Hall           '-C 2yn'
loop_
_symmetry_equiv_pos_site_id
_symmetry_equiv_pos_as_xyz
1 x,y,z
2 -x,y,1/2-z
3 1/2+x,1/2+y,z
4 1/2-x,1/2+y,1/2-z
5 -x,-y,-z
6 x,-y,1/2+z
7 1/2-x,1/2-y,-z
8 1/2+x,1/2-y,1/2+z
_cell_length_a                   20.8707(17)
_cell_length_b                   6.4205(5)
_cell_length_c                   16.0526(13)
_cell_angle_alpha                90
_cell_angle_beta                 122.8270(10)
_cell_angle_gamma                90
_cell_volume                     1807.55
loop_
_atom_site_label
_atom_site_type_symbol
_atom_site_fract_x
_atom_site_fract_y
_atom_site_fract_z
Co1 Co 0.039776(17) 0.45183(5) 0.11278(2)
Co2 Co 0.155399(18) 0.73820(5) 0.09347(2)
O1 O 0.13900(9) 0.4049(3) 0.10423(12)
O2 O 0.06460(11) 0.1601(3) 0.18847(16)
H1 H 0.0495(19) 0.233(5) 0.218(2)
H2 H 0.0323(15) 0.070(4) 0.180(3)
O3 O 0.14355(10) 0.0607(3) 0.10606(13)
O4 O 0.27001(10) 0.7181(3) 0.14006(14)
H3 H 0.2871(17) 0.724(5) 0.104(2)
H4 H 0.3040(13) 0.704(5) 0.1996(9)
O5 O 0.30026(10) 0.2451(3) 0.25666(13)
O6 O 0.14356(10) 0.7796(3) -0.04589(14)
H5 H 0.1180(14) 0.887(3) -0.0736(19)
H6 H 0.1144(13) 0.680(3) -0.0778(19)
O7 O 0.39440(10) 0.0912(3) 0.25243(13)
O8 O 0.05124(10) 0.1163(3) -0.13184(14)
O9 O 0.05424(9) 0.4631(3) -0.11843(12)
O10 O 0.03652(10) 0.6987(3) 0.02618(13)
H7 H 0.0183(17) 0.789(5) 0.029(2)
C1 C 0.16293(13) 0.2348(4) 0.09163(17)
C2 C 0.33155(13) 0.1807(4) 0.21321(18)
C3 C 0.08458(13) 0.2867(4) -0.10957(17)
C4 C 0.21043(13) 0.2445(4) 0.04666(18)
C5 C 0.28937(13) 0.2159(4) 0.10321(18)
C6 C 0.17100(13) 0.2780(3) -0.05514(18)
Co1F Co 0.460224(17) 0.04817(5) -0.11278(2)
Co1C Co 0.460224(17) -0.04817(5) 0.38722(2)
Co1D Co -0.039776(17) 0.54817(5) -0.11278(2)
Co1B Co 0.539776(17) -0.04817(5) 0.11278(2)
Co1E Co 0.039776(17) 0.54817(5) -0.38722(2)
Co2F Co 0.344601(18) -0.23820(5) -0.09347(2)
Co2_2 Co 0.155399(18) -0.26180(5) 0.09347(2)
Co2C Co 0.344601(18) 0.23820(5) 0.40653(2)
Co2F_2 Co 0.344601(18) 0.76180(5) -0.09347(2)
Co2E Co 0.155399(18) 0.26180(5) -0.40653(2)
Co2D Co -0.155399(18) 0.26180(5) -0.09347(2)
O1F O 0.36100(9) 0.0951(3) -0.10423(12)
O2F O 0.43540(11) 0.3399(3) -0.18847(16)
H1F H 0.4505(19) 0.267(5) -0.218(2)
H2F H 0.4677(15) 0.430(4) -0.180(3)
O3F O 0.35645(10) 0.4393(3) -0.10606(13)
O3_2 O 0.14355(10) 1.0607(3) 0.10606(13)
O3F_2 O 0.35645(10) -0.5607(3) -0.10606(13)
O4F O 0.22999(10) -0.2181(3) -0.14006(14)
H3F H 0.2129(17) -0.224(5) -0.104(2)
H4F H 0.1960(13) -0.204(5) -0.1996(9)
O5F O 0.19974(10) 0.2549(3) -0.25666(13)
O5C O 0.19974(10) 0.7451(3) 0.24334(13)
O5E O 0.30026(10) -0.2451(3) -0.24334(13)
O6F O 0.35644(10) -0.2796(3) 0.04589(14)
H5F H 0.3820(14) -0.387(3) 0.0736(19)
H6F H 0.3856(13) -0.180(3) 0.0778(19)
O7F O 0.10560(10) 0.4088(3) -0.25243(13)
O7C O 0.10560(10) 0.5912(3) 0.24757(13)
O7E O 0.39440(10) -0.0912(3) -0.24757(13)
O8F O 0.44876(10) 0.3837(3) 0.13184(14)
O9F O 0.44576(9) 0.0369(3) 0.11843(12)
O9D O -0.05424(9) 0.5369(3) 0.11843(12)
O9B O 0.55424(9) -0.0369(3) -0.11843(12)
O10D O -0.03652(10) 0.3013(3) -0.02618(13)
O10F O 0.46348(10) -0.1987(3) -0.02618(13)
O10B O 0.53652(10) 0.1987(3) 0.02618(13)
H7D H -0.0183(17) 0.211(5) -0.029(2)
H7F H 0.4817(17) -0.289(5) -0.029(2)
H7B H 0.5183(17) 0.289(5) 0.029(2)
C1F C 0.33707(13) 0.2652(4) -0.09163(17)
C2F C 0.16845(13) 0.3193(4) -0.21321(18)
C3F C 0.41542(13) 0.2133(4) 0.10957(17)
C4F C 0.28957(13) 0.2555(4) -0.04666(18)
C5F C 0.21063(13) 0.2841(4) -0.10321(18)
C6F C 0.32900(13) 0.2220(3) 0.05514(18)
loop_
_geom_bond_atom_site_label_1
_geom_bond_atom_site_label_2
_geom_bond_site_symmetry_1
_geom_bond_site_symmetry_2
Co1 O1 1_555 1_555
Co2 O1 1_555 1_555
O1 C1 1_555 1_555
O2 Co1 1_555 1_555
H1 O2 1_555 1_555
H2 O2 1_555 1_555
O3 C1 1_555 1_555
O4 Co2 1_555 1_555
H3 O4 1_555 1_555
H4 O4 1_555 1_555
O5 C2 1_555 1_555
O6 Co2 1_555 1_555
H5 O6 1_555 1_555
H6 O6 1_555 1_555
O7 C2 1_555 1_555
O8 C3 1_555 1_555
O9 C3 1_555 1_555
O10 Co1 1_555 1_555
H7 O10 1_555 1_555
C1 C4 1_555 1_555
C2 C5 1_555 1_555
C3 C6 1_555 1_555
C4 C5 1_555 1_555
C5 C6F 1_555 1_555
C6 C4 1_555 1_555
Co1F O1F 1_555 1_555
Co1C O7 1_555 1_555
Co1D O9 1_555 1_555
Co1B O9F 1_555 1_555
Co1E O7F 1_555 1_555
Co2F O1F 1_555 1_555
Co2_2 O3 1_555 1_555
Co2C O5 1_555 1_555
Co2F_2 O3F 1_555 1_555
Co2E O5F 1_555 1_555
Co2D O10D 1_555 1_555
O1F C1F 1_555 1_555
O2F Co1F 1_555 1_555
H1F O2F 1_555 1_555
H2F O2F 1_555 1_555
O3F C1F 1_555 1_555
O3_2 Co2 1_555 1_555
O3F_2 Co2F 1_555 1_555
O4F Co2F 1_555 1_555
H3F O4F 1_555 1_555
H4F O4F 1_555 1_555
O5F C2F 1_555 1_555
O5C Co2 1_555 1_555
O5E Co2F 1_555 1_555
O6F Co2F 1_555 1_555
H5F O6F 1_555 1_555
H6F O6F 1_555 1_555
O7F C2F 1_555 1_555
O7C Co1 1_555 1_555
O7E Co1F 1_555 1_555
O8F C3F 1_555 1_555
O9F C3F 1_555 1_555
O9D Co1 1_555 1_555
O9B Co1F 1_555 1_555
O10D Co1 1_555 1_555
O10F Co1F 1_555 1_555
O10B Co1F 1_555 1_555
H7D O10D 1_555 1_555
H7F O10F 1_555 1_555
H7B O10B 1_555 1_555
C1F C4F 1_555 1_555
C2F C5F 1_555 1_555
C3F C6F 1_555 1_555
C4F C5F 1_555 1_555
C5F C6 1_555 1_555
C6F C4F 1_555 1_555
Co2 O10 1_555 1_555
O10 Co1D 1_555 1_555
Co1D O10D 1_555 1_555
Co1B O10F 1_555 1_555
Co1B O10B 1_555 1_555
Co2F O10F 1_555 1_555

#END
