
#######################################################################
#
#                 Cambridge Crystallographic Data Centre
#                                CCDC 
#
#######################################################################
#
# If this CIF has been generated from an entry in the Cambridge 
# Structural Database, then it will include bibliographic, chemical, 
# crystal, experimental, refinement or atomic coordinate data resulting 
# from the CCDC's data processing and validation procedures.
#
#######################################################################

data_NESFAS
_symmetry_cell_setting           monoclinic
_symmetry_space_group_name_H-M   'P 21/c'
_symmetry_Int_Tables_number      14
_space_group_name_Hall           '-P 2ybc'
loop_
_symmetry_equiv_pos_site_id
_symmetry_equiv_pos_as_xyz
1 x,y,z
2 -x,1/2+y,1/2-z
3 -x,-y,-z
4 x,1/2-y,1/2+z
_cell_length_a                   16.489(3)
_cell_length_b                   8.064(2)
_cell_length_c                   25.462(8)
_cell_angle_alpha                90
_cell_angle_beta                 132.92(9)
_cell_angle_gamma                90
_cell_volume                     2479.3
loop_
_atom_site_label
_atom_site_type_symbol
_atom_site_fract_x
_atom_site_fract_y
_atom_site_fract_z
N1 N 0.0608(1) 0.9495(3) 0.27440(8)
C1 C -0.0003(2) 0.8389(4) 0.2710(1)
N2 N 0.0486(1) 0.7572(3) 0.33315(8)
C2 C 0.1489(1) 0.8222(3) 0.37849(9)
N3 N 0.2353(1) 0.7882(3) 0.44759(8)
C3 C 0.3335(2) 0.8699(4) 0.4837(1)
C4 C 0.4246(2) 0.8215(5) 0.5603(2)
C5 C 0.3431(2) 0.9883(4) 0.4507(1)
C6 C 0.2549(2) 1.0336(3) 0.3771(1)
O1 O 0.2551(1) 1.1368(3) 0.3426(1)
N4 N 0.1587(1) 0.9392(3) 0.34502(7)
P1 P 0.17863(4) 0.91993(8) 0.17907(2)
C7 C 0.2632(1) 0.7894(3) 0.25884(9)
C8 C 0.2098(2) 0.6699(4) 0.2655(1)
C9 C 0.2689(2) 0.5744(4) 0.3270(1)
C10 C 0.3806(2) 0.5963(4) 0.3821(1)
C11 C 0.4348(2) 0.7127(4) 0.3763(1)
C12 C 0.3762(2) 0.8089(4) 0.3147(1)
C13 C 0.2742(1) 1.0715(3) 0.19379(9)
C14 C 0.3136(2) 1.0639(4) 0.1602(1)
C15 C 0.3864(2) 1.1838(4) 0.1739(1)
C16 C 0.4201(2) 1.3103(4) 0.2210(1)
C17 C 0.3802(2) 1.3208(4) 0.2537(1)
C18 C 0.3072(2) 1.2034(4) 0.2401(1)
C19 C 0.1403(2) 0.7884(3) 0.10733(9)
C20 C 0.2142(2) 0.6723(4) 0.1191(1)
C21 C 0.1851(2) 0.5829(4) 0.0621(1)
C22 C 0.0845(2) 0.6083(4) -0.0060(1)
C23 C 0.0101(2) 0.7204(4) -0.0182(1)
C24 C 0.0379(2) 0.8094(3) 0.0390(1)
Ag1 Ag 0.03765(8) 1.04508(7) 0.16762(1)
Cl1 Cl -0.21655(4) 0.85399(9) 0.03728(3)
O2 O -0.1864(1) 0.9914(3) 0.01675(8)
O3 O -0.3070(1) 0.9001(4) 0.0298(1)
O4 O -0.2502(2) 0.7188(3) -0.0078(1)
O5 O -0.1269(2) 0.8185(5) 0.1085(1)
H1 H 0.135(2) 0.657(4) 0.228(1)
H2 H 0.230(2) 0.500(4) 0.330(1)
H3 H 0.418(2) 0.541(4) 0.426(1)
H4 H 0.509(2) 0.729(4) 0.413(1)
H5 H 0.414(2) 0.880(4) 0.310(1)
H6 H 0.289(2) 0.985(4) 0.128(1)
H7 H 0.410(2) 1.176(4) 0.149(1)
H8 H 0.472(2) 1.384(4) 0.231(1)
H9 H 0.409(2) 1.399(4) 0.289(1)
H10 H 0.277(2) 1.207(4) 0.262(1)
H11 H 0.282(2) 0.655(4) 0.167(1)
H12 H 0.238(2) 0.507(4) 0.071(1)
H13 H 0.062(2) 0.553(4) -0.046(1)
H14 H -0.057(2) 0.738(4) -0.063(1)
H15 H -0.016(2) 0.878(4) 0.031(1)
H16 H -0.077(2) 0.822(4) 0.226(1)
H17 H 0.229(2) 0.731(4) 0.466(1)
H18 H 0.491(2) 0.865(4) 0.576(1)
H19 H 0.406(2) 0.851(4) 0.588(1)
H20 H 0.426(2) 0.724(4) 0.570(1)
H21 H 0.408(2) 1.040(4) 0.476(1)
N2A N -0.0486(1) 1.2572(3) 0.16685(8)
Ag1A Ag -0.03765(8) 0.54508(7) 0.33238(1)
loop_
_geom_bond_atom_site_label_1
_geom_bond_atom_site_label_2
_geom_bond_site_symmetry_1
_geom_bond_site_symmetry_2
N1 C1 1_555 1_555
C1 N2 1_555 1_555
N2 C2 1_555 1_555
C2 N3 1_555 1_555
N3 C3 1_555 1_555
C3 C4 1_555 1_555
C4 H18 1_555 1_555
C5 C3 1_555 1_555
C6 C5 1_555 1_555
O1 C6 1_555 1_555
N4 N1 1_555 1_555
P1 C7 1_555 1_555
C7 C8 1_555 1_555
C8 C9 1_555 1_555
C9 C10 1_555 1_555
C10 C11 1_555 1_555
C11 C12 1_555 1_555
C12 C7 1_555 1_555
C13 P1 1_555 1_555
C14 C13 1_555 1_555
C15 C14 1_555 1_555
C16 C15 1_555 1_555
C17 C16 1_555 1_555
C18 C13 1_555 1_555
C19 P1 1_555 1_555
C20 C19 1_555 1_555
C21 C20 1_555 1_555
C22 C21 1_555 1_555
C23 C22 1_555 1_555
C24 C19 1_555 1_555
Ag1 N1 1_555 1_555
Cl1 O2 1_555 1_555
O3 Cl1 1_555 1_555
O4 Cl1 1_555 1_555
O5 Ag1 1_555 1_555
H1 C8 1_555 1_555
H2 C9 1_555 1_555
H3 C10 1_555 1_555
H4 C11 1_555 1_555
H5 C12 1_555 1_555
H6 C14 1_555 1_555
H7 C15 1_555 1_555
H8 C16 1_555 1_555
H9 C17 1_555 1_555
H10 C18 1_555 1_555
H11 C20 1_555 1_555
H12 C21 1_555 1_555
H13 C22 1_555 1_555
H14 C23 1_555 1_555
H15 C24 1_555 1_555
H16 C1 1_555 1_555
H17 N3 1_555 1_555
H19 C4 1_555 1_555
H20 C4 1_555 1_555
H21 C5 1_555 1_555
N2A Ag1 1_555 1_555
Ag1A N2 1_555 1_555
C2 N4 1_555 1_555
C6 N4 1_555 1_555
P1 Ag1 1_555 1_555
C17 C18 1_555 1_555
C23 C24 1_555 1_555
Cl1 O5 1_555 1_555

#END
