
#######################################################################
#
#                 Cambridge Crystallographic Data Centre
#                                CCDC 
#
#######################################################################
#
# If this CIF has been generated from an entry in the Cambridge 
# Structural Database, then it will include bibliographic, chemical, 
# crystal, experimental, refinement or atomic coordinate data resulting 
# from the CCDC's data processing and validation procedures.
#
#######################################################################

data_NESFEW
_symmetry_cell_setting           monoclinic
_symmetry_space_group_name_H-M   'P 21/c'
_symmetry_Int_Tables_number      14
_space_group_name_Hall           '-P 2ybc'
loop_
_symmetry_equiv_pos_site_id
_symmetry_equiv_pos_as_xyz
1 x,y,z
2 -x,1/2+y,1/2-z
3 -x,-y,-z
4 x,1/2-y,1/2+z
_cell_length_a                   11.972(2)
_cell_length_b                   13.455(3)
_cell_length_c                   13.672(3)
_cell_angle_alpha                90
_cell_angle_beta                 112.30(3)
_cell_angle_gamma                90
_cell_volume                     2037.62
loop_
_atom_site_label
_atom_site_type_symbol
_atom_site_fract_x
_atom_site_fract_y
_atom_site_fract_z
O8 O 0.3116(7) -0.5533(5) 0.3662(6)
H14 H 0.355(7) -0.512(6) 0.350(6)
H16 H 0.355(7) -0.573(6) 0.428(3)
O9 O 0.3494(8) -0.5899(6) 0.1766(6)
H11 H 0.297(7) -0.547(6) 0.143(5)
H12 H 0.343(8) -0.594(7) 0.236(4)
Ag1 Ag 0.1281(1) 0.0761(1) 0.2046(1)
Ag2 Ag 0.0072(1) -0.4581(1) 0.1307(1)
Ag3 Ag -0.1270(1) 0.0090(1) 0.0596(1)
C1 C 0.0831(6) 0.3072(5) 0.1733(5)
C2 C -0.2876(6) 0.3078(5) -0.0613(5)
C3 C -0.0800(7) 0.2317(5) 0.0794(5)
C4 C -0.2707(7) 0.2073(5) -0.0407(5)
N1 N -0.0931(5) 0.3310(5) 0.0613(4)
C5 C 0.0841(6) -0.1460(5) 0.1821(5)
N2 N -0.0320(6) -0.1290(4) 0.1102(4)
N3 N 0.0348(6) 0.2157(4) 0.1479(4)
N4 N -0.1646(5) 0.1665(5) 0.0261(4)
C6 C 0.2733(6) -0.1203(5) 0.3015(5)
C7 C -0.0758(8) -0.2226(5) 0.0797(6)
O1 O 0.2955(6) 0.1965(6) 0.3454(5)
N5 N 0.1678(5) -0.0799(4) 0.2345(4)
C8 C -0.3720(8) 0.1352(6) -0.0924(6)
C9 C -0.1963(7) 0.3768(5) -0.0094(5)
N6 N 0.0104(6) 0.3799(4) 0.1239(4)
O2 O -0.1966(6) 0.4705(4) -0.0197(4)
N7 N 0.1010(5) -0.2457(4) 0.1913(4)
N8 N -0.0025(5) -0.2946(4) 0.1247(4)
C10 C 0.2078(7) -0.2920(5) 0.2565(5)
C11 C 0.2962(6) -0.2210(5) 0.3130(5)
C12 C 0.3711(7) -0.0476(6) 0.3618(7)
O3 O 0.2144(6) -0.3842(4) 0.2586(4)
S1 S 0.3925(2) 0.1550(2) 0.1264(1)
O4 O 0.2765(5) 0.1087(5) 0.1014(4)
O5 O 0.3674(8) 0.2589(5) 0.0734(5)
O6 O 0.4559(5) 0.1709(6) 0.2388(4)
O7 O 0.4655(6) 0.1050(5) 0.0773(5)
H1 H 0.1639 0.3182 0.2232
H2 H -0.3632 0.3309 -0.1121
H3 H -0.1557 -0.2341 0.0284
H4 H -0.4419 0.1648 -0.1453
H5 H -0.3924 0.1117 -0.0350
H6 H -0.3449 0.0805 -0.1228
H7 H 0.3740 -0.245 0.3604
H8 H 0.4459 -0.0812 0.3992
H9 H 0.3513 -0.0059 0.4099
H10 H 0.3789 -0.0076 0.3066
H13 H 0.356(5) 0.203(8) 0.328(7)
H15 H 0.37(1) 0.317(3) 0.100(7)
O4B O -0.2765(5) -0.1087(5) -0.1014(4)
Ag2_2 Ag 0.0072(1) 0.5419(1) 0.1307(1)
N8_2 N -0.0025(5) 0.7054(4) 0.1247(4)
O3_2 O 0.2144(6) 0.6158(4) 0.2586(4)
loop_
_geom_bond_atom_site_label_1
_geom_bond_atom_site_label_2
_geom_bond_site_symmetry_1
_geom_bond_site_symmetry_2
Ag1 Ag3 1_555 1_555
Ag2 N8 1_555 1_555
Ag3 N2 1_555 1_555
C1 N3 1_555 1_555
C2 C4 1_555 1_555
C3 N1 1_555 1_555
C4 N4 1_555 1_555
N1 C9 1_555 1_555
C5 N2 1_555 1_555
N2 C7 1_555 1_555
N3 Ag1 1_555 1_555
N4 Ag3 1_555 1_555
C6 N5 1_555 1_555
C7 N8 1_555 1_555
O1 Ag1 1_555 1_555
N5 Ag1 1_555 1_555
C8 C4 1_555 1_555
C9 C2 1_555 1_555
N6 C1 1_555 1_555
O2 C9 1_555 1_555
N7 C5 1_555 1_555
N8 N7 1_555 1_555
C10 N7 1_555 1_555
C11 C6 1_555 1_555
C12 C6 1_555 1_555
O3 Ag2 1_555 1_555
S1 O4 1_555 1_555
O4 Ag1 1_555 1_555
O5 S1 1_555 1_555
O6 S1 1_555 1_555
O7 S1 1_555 1_555
O8 H14 1_555 1_555
O9 H11 1_555 1_555
H1 C1 1_555 1_555
H2 C2 1_555 1_555
H3 C7 1_555 1_555
H4 C8 1_555 1_555
H5 C8 1_555 1_555
H6 C8 1_555 1_555
H7 C11 1_555 1_555
H8 C12 1_555 1_555
H9 C12 1_555 1_555
H10 C12 1_555 1_555
H12 O9 1_555 1_555
H13 O1 1_555 1_555
H15 O5 1_555 1_555
H16 O8 1_555 1_555
O4B Ag3 1_555 1_555
Ag2_2 N6 1_555 1_555
N8_2 Ag2_2 1_555 1_555
O3_2 Ag2_2 1_555 1_555
C3 N3 1_555 1_555
C3 N4 1_555 1_555
N1 N6 1_555 1_555
C5 N5 1_555 1_555
O2 Ag2_2 1_555 1_555
C10 C11 1_555 1_555
C10 O3 1_555 1_555

#END
