
#######################################################################
#
#                 Cambridge Crystallographic Data Centre
#                                CCDC 
#
#######################################################################
#
# If this CIF has been generated from an entry in the Cambridge 
# Structural Database, then it will include bibliographic, chemical, 
# crystal, experimental, refinement or atomic coordinate data resulting 
# from the CCDC's data processing and validation procedures.
#
#######################################################################

data_NESFAT
_symmetry_cell_setting           monoclinic
_symmetry_space_group_name_H-M   'P 21/c'
_symmetry_Int_Tables_number      14
_space_group_name_Hall           '-P 2ybc'
loop_
_symmetry_equiv_pos_site_id
_symmetry_equiv_pos_as_xyz
1 x,y,z
2 -x,1/2+y,1/2-z
3 -x,-y,-z
4 x,1/2-y,1/2+z
_cell_length_a                   11.431(2)
_cell_length_b                   5.3950(10)
_cell_length_c                   7.771(2)
_cell_angle_alpha                90
_cell_angle_beta                 92.00(3)
_cell_angle_gamma                90
_cell_volume                     478.948
loop_
_atom_site_label
_atom_site_type_symbol
_atom_site_fract_x
_atom_site_fract_y
_atom_site_fract_z
Cd1 Cd 0.5000 0.5000 0.5000
S1 S 0.60509(5) 0.71020(11) 0.23686(8)
N1 N 0.66177(18) 0.2888(4) 0.0520(3)
N2 N 0.7629(2) 0.1886(4) -0.0045(3)
N3 N 0.85182(19) 0.3246(4) 0.0416(3)
N4 N 0.8086(3) 0.5168(3) 0.1288(4)
C1 C 0.6914(3) 0.4953(3) 0.1363(4)
C2 C 0.8868(2) 0.6955(5) 0.2135(4)
H1 H 0.8470 0.8510 0.2246
H2 H 0.9548 0.7181 0.1461
H3 H 0.9103 0.6351 0.3257
Cd1C Cd 0.5000 1.0000 0.0000
Cd1C_2 Cd 0.5000 0.0000 0.0000
Cd1C_3 Cd 0.5000 1.0000 1.0000
Cd1_2 Cd 0.5000 1.5000 0.5000
S1C S 0.60509(5) 0.78980(11) 0.73686(8)
S1B S 0.39491(5) 0.28980(11) 0.76314(8)
S1A S 0.39491(5) 0.21020(11) 0.26314(8)
N1C N 0.66177(18) 1.2112(4) 0.5520(3)
N1C_2 N 0.66177(18) 0.2112(4) 0.5520(3)
N1A N 0.33823(18) 0.7888(4) 0.4480(3)
N2C N 0.7629(2) 1.3114(4) 0.4955(3)
N3C N 0.85182(19) 1.1754(4) 0.5416(3)
N4C N 0.8086(3) 0.9832(3) 0.6288(4)
C1C C 0.6914(3) 1.0047(3) 0.6363(4)
C2C C 0.8868(2) 0.8045(5) 0.7135(4)
H1C H 0.8470 0.6490 0.7246
H2C H 0.9548 0.7819 0.6461
H3C H 0.9103 0.8649 0.8257
loop_
_geom_bond_atom_site_label_1
_geom_bond_atom_site_label_2
_geom_bond_site_symmetry_1
_geom_bond_site_symmetry_2
Cd1 S1 1_555 1_555
S1 C1 1_555 1_555
N1 N2 1_555 1_555
N2 N3 1_555 1_555
N3 N4 1_555 1_555
N4 C1 1_555 1_555
C1 N1 1_555 1_555
C2 N4 1_555 1_555
H1 C2 1_555 1_555
H2 C2 1_555 1_555
H3 C2 1_555 1_555
Cd1C S1 1_555 1_555
Cd1C_2 N1 1_555 1_555
Cd1C_3 S1C 1_555 1_555
Cd1_2 N1C 1_555 1_555
S1C Cd1 1_555 1_555
S1B Cd1 1_555 1_555
S1A Cd1 1_555 1_555
N1C N2C 1_555 1_555
N1C_2 Cd1 1_555 1_555
N1A Cd1 1_555 1_555
N2C N3C 1_555 1_555
N3C N4C 1_555 1_555
N4C C1C 1_555 1_555
C1C S1C 1_555 1_555
C2C N4C 1_555 1_555
H1C C2C 1_555 1_555
H2C C2C 1_555 1_555
H3C C2C 1_555 1_555
Cd1C_2 S1A 1_555 1_555
N1C C1C 1_555 1_555

#END
