
#######################################################################
#
#                 Cambridge Crystallographic Data Centre
#                                CCDC 
#
#######################################################################
#
# If this CIF has been generated from an entry in the Cambridge 
# Structural Database, then it will include bibliographic, chemical, 
# crystal, experimental, refinement or atomic coordinate data resulting 
# from the CCDC's data processing and validation procedures.
#
#######################################################################

data_NESGOJ
_symmetry_cell_setting           triclinic
_symmetry_space_group_name_H-M   'P -1'
_symmetry_Int_Tables_number      2
_space_group_name_Hall           '-P 1'
loop_
_symmetry_equiv_pos_site_id
_symmetry_equiv_pos_as_xyz
1 x,y,z
2 -x,-y,-z
_cell_length_a                   9.3824(13)
_cell_length_b                   13.4516(19)
_cell_length_c                   14.717(2)
_cell_angle_alpha                112.547(2)
_cell_angle_beta                 96.925(2)
_cell_angle_gamma                101.903(2)
_cell_volume                     1637.07
loop_
_atom_site_label
_atom_site_type_symbol
_atom_site_fract_x
_atom_site_fract_y
_atom_site_fract_z
C1 C 1.7095(4) 0.7220(3) 0.2692(3)
C2 C 1.7408(4) 0.6788(3) 0.3474(3)
C3 C 1.8856(5) 0.6870(4) 0.3881(3)
H1 H 1.9652 0.7181 0.3665
C4 C 1.9104(7) 0.6485(5) 0.4611(4)
H2 H 2.0085 0.6543 0.4875
C5 C 1.6661(7) 0.5946(6) 0.4553(5)
H3 H 1.5884 0.5625 0.4778
C6 C 1.6299(6) 0.6299(5) 0.3813(4)
H4 H 1.5305 0.6203 0.3546
C7 C 1.3056(5) 0.8026(3) 0.3855(3)
C8 C 1.3013(4) 0.8771(3) 0.4915(3)
C9 C 1.3871(6) 0.8817(4) 0.5746(3)
H5 H 1.4513 0.8363 0.5681
C10 C 1.3788(6) 0.9542(4) 0.6691(3)
H6 H 1.4414 0.9576 0.7249
C11 C 1.2019(6) 1.0099(4) 0.6031(3)
H7 H 1.1343 1.0528 0.6117
C12 C 1.2052(6) 0.9424(4) 0.5067(3)
H8 H 1.1425 0.9411 0.4520
C13 C 0.7260(4) 0.5832(3) -0.0103(2)
C14 C 0.8101(4) 0.5530(3) 0.0617(2)
C15 C 0.9644(4) 0.6031(3) 0.0982(2)
H9 H 1.0088 0.6579 0.0786
C16 C 0.9847(4) 0.4991(3) 0.1911(3)
C17 C 1.0718(5) 0.4714(3) 0.2571(3)
H10 H 1.1747 0.5030 0.2763
C18 C 1.0061(5) 0.3979(4) 0.2934(3)
H11 H 1.0647 0.3804 0.3375
C19 C 0.8520(5) 0.3492(4) 0.2647(3)
H12 H 0.8089 0.2999 0.2904
C20 C 0.7642(5) 0.3727(3) 0.2000(3)
H13 H 0.6616 0.3397 0.1814
C21 C 0.8297(4) 0.4482(3) 0.1607(3)
C22 C 0.7432(4) 0.4754(3) 0.0934(3)
H14 H 0.6411 0.4409 0.0706
C23 C 1.2670(4) 0.8548(3) 0.0218(3)
C24 C 1.1765(4) 0.8959(3) -0.0374(3)
C25 C 1.2438(4) 0.9888(3) -0.0539(3)
H15 H 1.3443 1.0247 -0.0241
C26 C 1.0235(4) 0.9777(3) -0.1532(3)
C27 C 0.9437(4) 1.0193(3) -0.2115(3)
H16 H 0.9917 1.0826 -0.2189
C28 C 0.7980(5) 0.9678(4) -0.2565(3)
H17 H 0.7463 0.9964 -0.2940
C29 C 0.7241(5) 0.8717(4) -0.2471(4)
H18 H 0.6248 0.8357 -0.2806
C30 C 0.7955(4) 0.8298(4) -0.1896(4)
H19 H 0.7443 0.7671 -0.1825
C31 C 0.9474(4) 0.8824(3) -0.1409(3)
C32 C 1.0282(4) 0.8439(3) -0.0802(3)
H20 H 0.9804 0.7829 -0.0693
Cd1 Cd 1.31330(3) 0.662520(19) 0.198440(17)
Cd2 Cd 1.69411(3) 0.835970(19) 0.150070(18)
N1 N 1.8031(6) 0.6036(5) 0.4962(4)
N2 N 1.2891(4) 1.0180(3) 0.6850(2)
N3 N 1.0506(3) 0.5772(2) 0.1590(2)
N4 N 0.6701(3) 0.5134(2) -0.1069(2)
N5 N 0.6063(3) 0.5716(2) -0.1495(2)
N6 N 0.6235(3) 0.6708(2) -0.0815(2)
N7 N 0.6986(3) 0.6815(2) 0.0078(2)
N8 N 1.1720(3) 1.0286(2) -0.1096(2)
N9 N 1.4149(3) 0.8881(2) 0.0477(2)
N10 N 1.4517(3) 0.8292(2) 0.0972(2)
N11 N 1.3288(3) 0.7623(2) 0.1002(2)
N12 N 1.2102(3) 0.7771(2) 0.0531(2)
O1 O 1.8202(3) 0.7694(2) 0.24631(18)
O2 O 1.5778(3) 0.7125(2) 0.2303(2)
O3 O 1.2759(5) 0.8313(3) 0.3172(2)
O4 O 1.3361(4) 0.7120(2) 0.3708(2)
Cd1A Cd 0.68670(3) 0.337480(19) -0.198440(17)
Cd2A Cd 1.30589(3) 1.164030(19) 0.849930(18)
Cd2_2 Cd 0.69411(3) 0.835970(19) 0.150070(18)
Cd2A_2 Cd 1.30589(3) 1.164030(19) -0.150070(18)
N2A N 1.7109(4) 0.9820(3) 0.3150(2)
N4A N 1.3299(3) 0.4866(2) 0.1069(2)
N7_2 N 1.6986(3) 0.6815(2) 0.0078(2)
N8A N 1.8280(3) 0.9714(2) 0.1096(2)
O5 O 0.2995(13) 0.6335(9) 0.5256(8)
H21 H 0.3078 0.6441 0.4729
H22 H 0.2528 0.5652 0.5069
loop_
_geom_bond_atom_site_label_1
_geom_bond_atom_site_label_2
_geom_bond_site_symmetry_1
_geom_bond_site_symmetry_2
C1 C2 1_555 1_555
C2 C3 1_555 1_555
C3 H1 1_555 1_555
C4 C3 1_555 1_555
H2 C4 1_555 1_555
C5 H3 1_555 1_555
C6 C2 1_555 1_555
H4 C6 1_555 1_555
C7 C8 1_555 1_555
C8 C9 1_555 1_555
C9 H5 1_555 1_555
C10 C9 1_555 1_555
H6 C10 1_555 1_555
C11 H7 1_555 1_555
C12 C8 1_555 1_555
H8 C12 1_555 1_555
C13 C14 1_555 1_555
C14 C15 1_555 1_555
C15 H9 1_555 1_555
C16 C17 1_555 1_555
C17 H10 1_555 1_555
C18 C17 1_555 1_555
H11 C18 1_555 1_555
C19 C18 1_555 1_555
H12 C19 1_555 1_555
C20 C19 1_555 1_555
H13 C20 1_555 1_555
C21 C16 1_555 1_555
C22 C14 1_555 1_555
H14 C22 1_555 1_555
C23 C24 1_555 1_555
C24 C25 1_555 1_555
C25 H15 1_555 1_555
C26 C27 1_555 1_555
C27 H16 1_555 1_555
C28 C27 1_555 1_555
H17 C28 1_555 1_555
C29 C28 1_555 1_555
H18 C29 1_555 1_555
C30 C29 1_555 1_555
H19 C30 1_555 1_555
C31 C26 1_555 1_555
C32 C24 1_555 1_555
H20 C32 1_555 1_555
Cd1 N3 1_555 1_555
Cd2 N10 1_555 1_555
N1 C4 1_555 1_555
N2 C10 1_555 1_555
N3 C15 1_555 1_555
N4 C13 1_555 1_555
N5 N4 1_555 1_555
N6 N5 1_555 1_555
N7 C13 1_555 1_555
N8 C25 1_555 1_555
N9 C23 1_555 1_555
N10 N9 1_555 1_555
N11 Cd1 1_555 1_555
N12 C23 1_555 1_555
O1 C1 1_555 1_555
O2 C1 1_555 1_555
O3 C7 1_555 1_555
O4 C7 1_555 1_555
O5 H21 1_555 1_555
H22 O5 1_555 1_555
Cd1A N4 1_555 1_555
Cd2A N2 1_555 1_555
Cd2_2 N7 1_555 1_555
Cd2A_2 N8 1_555 1_555
N2A Cd2 1_555 1_555
N4A Cd1 1_555 1_555
N7_2 Cd2 1_555 1_555
N8A Cd2 1_555 1_555
C5 C6 1_555 1_555
C5 N1 1_555 1_555
C11 C12 1_555 1_555
C11 N2 1_555 1_555
C16 N3 1_555 1_555
C20 C21 1_555 1_555
C21 C22 1_555 1_555
C26 N8 1_555 1_555
C30 C31 1_555 1_555
C31 C32 1_555 1_555
Cd1 O2 1_555 1_555
Cd1 O3 1_555 1_555
Cd1 O4 1_555 1_555
Cd2 O1 1_555 1_555
Cd2 O2 1_555 1_555
N6 N7 1_555 1_555
N10 N11 1_555 1_555
N11 N12 1_555 1_555

#END
