
#######################################################################
#
#                 Cambridge Crystallographic Data Centre
#                                CCDC 
#
#######################################################################
#
# If this CIF has been generated from an entry in the Cambridge 
# Structural Database, then it will include bibliographic, chemical, 
# crystal, experimental, refinement or atomic coordinate data resulting 
# from the CCDC's data processing and validation procedures.
#
#######################################################################

data_NESGEZ
_symmetry_cell_setting           monoclinic
_symmetry_space_group_name_H-M   'P 21/c'
_symmetry_Int_Tables_number      14
_space_group_name_Hall           '-P 2ybc'
loop_
_symmetry_equiv_pos_site_id
_symmetry_equiv_pos_as_xyz
1 x,y,z
2 -x,1/2+y,1/2-z
3 -x,-y,-z
4 x,1/2-y,1/2+z
_cell_length_a                   10.5230(13)
_cell_length_b                   16.510(2)
_cell_length_c                   7.4998(9)
_cell_angle_alpha                90
_cell_angle_beta                 109.9080(10)
_cell_angle_gamma                90
_cell_volume                     1225.11
loop_
_atom_site_label
_atom_site_type_symbol
_atom_site_fract_x
_atom_site_fract_y
_atom_site_fract_z
C1 C 0.1908(4) 0.0381(3) 0.7936(6)
H1 H 0.1035 0.0277 0.7918
C2 C 0.2503(4) -0.0179(2) 0.7031(6)
C3 C 0.3783(4) -0.0029(3) 0.7050(6)
H2 H 0.4197 -0.0382 0.6452
C4 C 0.4471(4) 0.0664(3) 0.7981(6)
C5 C 0.3817(4) 0.1185(3) 0.8883(6)
C6 C 0.4502(5) 0.1880(3) 0.9860(7)
H3 H 0.4093 0.2211 1.0510
C7 C 0.5745(5) 0.2059(3) 0.9845(8)
H4 H 0.6185 0.2519 1.0476
C8 C 0.6396(5) 0.1561(3) 0.8884(7)
H5 H 0.7244 0.1704 0.8857
C9 C 0.5789(4) 0.0872(3) 0.7999(7)
H6 H 0.6234 0.0538 0.7406
C10 C 0.1673(4) -0.0872(2) 0.6071(6)
Cd1 Cd 0.10150(3) 0.208239(17) 0.90300(4)
N1 N 0.2510(4) 0.1040(2) 0.8799(5)
N2 N 0.1497(4) -0.1120(2) 0.4313(5)
N3 N 0.0613(4) -0.1733(2) 0.4021(5)
N4 N 0.0287(4) -0.1840(2) 0.5547(5)
N5 N 0.0937(4) -0.1304(2) 0.6867(5)
N6 N 0.1954(5) 0.2127(3) 1.2286(6)
N7 N 0.2673(5) 0.1557(3) 1.2935(6)
N8 N 0.3414(5) 0.1042(3) 1.3516(6)
O1 O -0.0261(3) 0.1037(2) 0.9795(5)
H7 H -0.0848 0.0789 0.8973
H8 H -0.0509 0.1136 1.0699
Cd1B Cd -0.10150(3) -0.208239(17) 0.09700(4)
Cd1A Cd -0.10150(3) -0.291761(17) 0.59700(4)
Cd1C Cd 0.10150(3) 0.291761(17) 1.40300(4)
N3B N -0.0613(4) 0.1733(2) 0.5979(5)
N4A N -0.0287(4) 0.3160(2) 0.9453(5)
N6C N 0.1954(5) 0.2873(3) 0.7286(6)
loop_
_geom_bond_atom_site_label_1
_geom_bond_atom_site_label_2
_geom_bond_site_symmetry_1
_geom_bond_site_symmetry_2
C1 H1 1_555 1_555
C2 C1 1_555 1_555
C3 C2 1_555 1_555
H2 C3 1_555 1_555
C4 C3 1_555 1_555
C5 C4 1_555 1_555
C6 C5 1_555 1_555
H3 C6 1_555 1_555
C7 C6 1_555 1_555
H4 C7 1_555 1_555
C8 C7 1_555 1_555
H5 C8 1_555 1_555
C9 C4 1_555 1_555
H6 C9 1_555 1_555
C10 C2 1_555 1_555
Cd1 N1 1_555 1_555
N1 C1 1_555 1_555
N2 C10 1_555 1_555
N3 N2 1_555 1_555
N4 N3 1_555 1_555
N5 C10 1_555 1_555
N6 Cd1 1_555 1_555
N7 N6 1_555 1_555
N8 N7 1_555 1_555
O1 Cd1 1_555 1_555
H7 O1 1_555 1_555
H8 O1 1_555 1_555
Cd1B N3 1_555 1_555
Cd1A N4 1_555 1_555
Cd1C N6 1_555 1_555
N3B Cd1 1_555 1_555
N4A Cd1 1_555 1_555
N6C Cd1 1_555 1_555
C5 N1 1_555 1_555
C8 C9 1_555 1_555
N4 N5 1_555 1_555

#END
