
#######################################################################
#
#                 Cambridge Crystallographic Data Centre
#                                CCDC 
#
#######################################################################
#
# If this CIF has been generated from an entry in the Cambridge 
# Structural Database, then it will include bibliographic, chemical, 
# crystal, experimental, refinement or atomic coordinate data resulting 
# from the CCDC's data processing and validation procedures.
#
#######################################################################

data_NESGUP
_symmetry_cell_setting           triclinic
_symmetry_space_group_name_H-M   'P -1'
_symmetry_Int_Tables_number      2
_space_group_name_Hall           '-P 1'
loop_
_symmetry_equiv_pos_site_id
_symmetry_equiv_pos_as_xyz
1 x,y,z
2 -x,-y,-z
_cell_length_a                   10.0822(11)
_cell_length_b                   10.2910(12)
_cell_length_c                   11.6096(13)
_cell_angle_alpha                102.7390(10)
_cell_angle_beta                 107.2230(10)
_cell_angle_gamma                90.8240(10)
_cell_volume                     1118.12
loop_
_atom_site_label
_atom_site_type_symbol
_atom_site_fract_x
_atom_site_fract_y
_atom_site_fract_z
C1 C 0.3445(4) 0.7136(4) 0.4987(4)
C2 C 0.4096(4) 0.7489(4) 0.4120(4)
C3 C 0.4928(5) 0.6544(4) 0.3646(4)
C4 C 0.5498(4) 0.7936(4) 0.2502(4)
C5 C 0.6217(5) 0.8154(5) 0.1672(4)
C6 C 0.6146(5) 0.9342(5) 0.1315(4)
C7 C 0.5372(6) 1.0356(5) 0.1768(5)
C8 C 0.4660(5) 1.0168(5) 0.2565(4)
C9 C 0.4710(4) 0.8929(4) 0.2947(4)
C10 C 0.3986(4) 0.8685(4) 0.3761(4)
C11 C 1.2350(4) 0.6502(4) -0.0330(4)
C12 C 1.1633(4) 0.6966(4) 0.0629(3)
C13 C 1.1283(4) 0.8273(4) 0.0890(4)
C14 C 1.0531(4) 0.8652(4) 0.1725(4)
C15 C 1.0166(4) 1.0071(4) 0.2044(4)
C16 C 1.0110(4) 0.7715(4) 0.2279(4)
C17 C 1.0472(4) 0.6412(4) 0.2031(4)
C18 C 0.9956(4) 0.5388(4) 0.2579(4)
C19 C 1.1250(4) 0.6032(4) 0.1216(3)
Cd1 Cd 0.66157(3) 0.49035(3) 0.21613(3)
Cd2 Cd 0.05196(3) 0.74368(3) 0.71461(3)
N1 N 0.3901(4) 0.6219(4) 0.5619(3)
N2 N 0.3066(4) 0.6206(4) 0.6316(3)
N3 N 0.2139(4) 0.7080(4) 0.6106(3)
N4 N 0.2344(4) 0.7690(4) 0.5264(3)
N5 N 0.5601(4) 0.6747(4) 0.2873(3)
O1 O 1.2369(3) 0.7188(3) -0.1099(3)
O2 O 1.2881(3) 0.5389(3) -0.0370(3)
O3 O 1.0699(4) 1.0974(3) 0.1715(3)
O4 O 0.9319(3) 1.0322(3) 0.2655(3)
O5 O 0.8999(3) 0.5653(3) 0.3065(3)
O6 O 1.04851(17) 0.42830(17) 0.24744(16)
O7 O 0.44228(17) 0.39011(17) 0.11698(16)
H1 H 0.3893 0.4325 0.0698
H2 H 0.3895 0.3464 0.1424
O8 O -0.12492(17) 0.71897(17) 0.53044(16)
H3 H -0.1397 0.7936 0.5114
H4 H -0.1001 0.6712 0.4720
Cd1A Cd 0.33843(3) 0.50965(3) 0.78387(3)
Cd1A_2 Cd 1.33843(3) 0.50965(3) -0.21613(3)
Cd2_2 Cd 1.05196(3) 0.74368(3) -0.28539(3)
Cd2A Cd 0.94804(3) 1.25632(3) 0.28539(3)
Cd2A_2 Cd 0.94804(3) 0.25632(3) 0.28539(3)
N2A N 0.6934(4) 0.3794(4) 0.3684(3)
O1A O 0.7631(3) 0.2812(3) 0.1099(3)
O1_2 O 0.2369(3) 0.7188(3) 0.8901(3)
O2A O 0.7119(3) 0.4611(3) 0.0370(3)
O3A O -0.0699(4) 0.9026(3) 0.8285(3)
O4A O 0.0681(3) 0.9678(3) 0.7345(3)
O6A O -0.04851(17) 0.57170(17) 0.75256(16)
O9 O 0.83937(17) 0.95511(17) 0.45929(16)
H5 H 0.8826 1.0319 0.4932
H6 H 0.7597 0.9621 0.4703
O10 O 0.29466(17) 0.29052(17) 0.23832(16)
H7 H 0.2459 0.2775 0.1626
H8 H 0.2819 0.3695 0.2719
loop_
_geom_bond_atom_site_label_1
_geom_bond_atom_site_label_2
_geom_bond_site_symmetry_1
_geom_bond_site_symmetry_2
C1 C2 1_555 1_555
C2 C3 1_555 1_555
C3 N5 1_555 1_555
C4 C5 1_555 1_555
C5 C6 1_555 1_555
C6 C7 1_555 1_555
C7 C8 1_555 1_555
C8 C9 1_555 1_555
C9 C4 1_555 1_555
C10 C2 1_555 1_555
C11 C12 1_555 1_555
C12 C13 1_555 1_555
C13 C14 1_555 1_555
C14 C15 1_555 1_555
C15 O3 1_555 1_555
C16 C14 1_555 1_555
C17 C16 1_555 1_555
C18 C17 1_555 1_555
C19 C12 1_555 1_555
Cd1 N5 1_555 1_555
Cd2 N3 1_555 1_555
N1 C1 1_555 1_555
N2 N1 1_555 1_555
N3 N2 1_555 1_555
N4 C1 1_555 1_555
N5 C4 1_555 1_555
O1 C11 1_555 1_555
O2 C11 1_555 1_555
O3 Cd2A 1_555 1_555
O4 C15 1_555 1_555
O5 C18 1_555 1_555
O6 C18 1_555 1_555
O7 Cd1 1_555 1_555
H1 O7 1_555 1_555
H2 O7 1_555 1_555
O8 Cd2 1_555 1_555
H3 O8 1_555 1_555
H4 O8 1_555 1_555
O9 H5 1_555 1_555
H6 O9 1_555 1_555
O10 H7 1_555 1_555
H8 O10 1_555 1_555
Cd1A N2 1_555 1_555
Cd1A_2 O1 1_555 1_555
Cd2_2 O1 1_555 1_555
Cd2A O4 1_555 1_555
Cd2A_2 O6 1_555 1_555
N2A Cd1 1_555 1_555
O1A Cd1 1_555 1_555
O1_2 Cd2 1_555 1_555
O2A Cd1 1_555 1_555
O3A Cd2 1_555 1_555
O4A Cd2 1_555 1_555
O6A Cd2 1_555 1_555
C9 C10 1_555 1_555
C17 C19 1_555 1_555
Cd1 O5 1_555 1_555
N3 N4 1_555 1_555
O2 Cd1A_2 1_555 1_555
Cd1A O1_2 1_555 1_555
Cd2A_2 O1A 1_555 1_555

#END
