
#######################################################################
#
#                 Cambridge Crystallographic Data Centre
#                                CCDC 
#
#######################################################################
#
# If this CIF has been generated from an entry in the Cambridge 
# Structural Database, then it will include bibliographic, chemical, 
# crystal, experimental, refinement or atomic coordinate data resulting 
# from the CCDC's data processing and validation procedures.
#
#######################################################################

data_NESGAU
_symmetry_cell_setting           orthorhombic
_symmetry_space_group_name_H-M   'P c c a'
_symmetry_Int_Tables_number      54
_space_group_name_Hall           '-P 2a 2ac'
loop_
_symmetry_equiv_pos_site_id
_symmetry_equiv_pos_as_xyz
1 x,y,z
2 1/2-x,-y,z
3 1/2+x,-y,1/2-z
4 -x,y,1/2-z
5 -x,-y,-z
6 1/2+x,y,-z
7 1/2-x,y,1/2+z
8 x,-y,1/2+z
_cell_length_a                   13.819(2)
_cell_length_b                   9.757(2)
_cell_length_c                   28.098(2)
_cell_angle_alpha                90
_cell_angle_beta                 90
_cell_angle_gamma                90
_cell_volume                     3788.51
loop_
_atom_site_label
_atom_site_type_symbol
_atom_site_fract_x
_atom_site_fract_y
_atom_site_fract_z
Zn1 Zn 0.63096(3) 0.88445(5) 0.598065(15)
N1 N 0.6285(2) 0.9175(3) 0.67188(11)
N2 N 0.6302(2) 0.6836(3) 0.62554(11)
N3 N 0.6248(3) 0.6490(4) 0.81905(12)
H1 H 0.609(3) 0.697(4) 0.8431(10)
N4 N 0.6260(2) 0.4536(4) 0.77927(13)
O1 O 0.5163(2) 0.8744(3) 0.55746(10)
O2 O 0.4105(3) 0.8480(4) 0.61422(11)
O3 O 0.3382(2) 0.9107(3) 0.40849(10)
O4 O 0.2230(2) 0.8338(3) 0.45520(10)
C1 C 0.4328(3) 0.8615(4) 0.57249(15)
C2 C 0.3534(3) 0.8649(6) 0.53489(16)
H2 H 0.3054 0.7964 0.5431
H3 H 0.3219 0.9537 0.5365
C3 C 0.3833(3) 0.8416(6) 0.48617(16)
H4 H 0.4063 0.7479 0.4838
H5 H 0.4380 0.9010 0.4797
C4 C 0.3100(3) 0.8632(4) 0.44758(14)
C5 C 0.6279(3) 0.8035(4) 0.69854(13)
C6 C 0.6268(3) 1.0349(5) 0.69327(15)
H6 H 0.6270 1.1141 0.6748
C7 C 0.6245(3) 1.0481(5) 0.74245(15)
H7 H 0.6236 1.1346 0.7563
C8 C 0.6236(3) 0.9347(5) 0.77003(15)
H8 H 0.6219 0.9422 0.8030
C9 C 0.6253(3) 0.8077(4) 0.74865(13)
C10 C 0.6255(3) 0.6809(4) 0.77157(14)
C11 C 0.6248(3) 0.5109(5) 0.82143(15)
C12 C 0.6218(3) 0.4391(5) 0.86639(16)
C13 C 0.6246(4) 0.5038(7) 0.90915(18)
H9 H 0.6308 0.5986 0.9104
C14 C 0.6183(4) 0.4289(8) 0.9510(2)
H10 H 0.6200 0.4747 0.9800
C15 C 0.6099(4) 0.2949(7) 0.9506(2)
H11 H 0.6060 0.2456 0.9789
C16 C 0.6070(5) 0.2312(7) 0.9085(2)
H12 H 0.6007 0.1364 0.9078
C17 C 0.6131(4) 0.3016(6) 0.8661(2)
H13 H 0.6113 0.2543 0.8373
C18 C 0.6267(3) 0.5596(4) 0.74824(15)
C19 C 0.6268(3) 0.5540(4) 0.69750(14)
C20 C 0.6263(3) 0.4364(5) 0.67061(17)
H14 H 0.6259 0.3514 0.6856
C21 C 0.6264(3) 0.4434(5) 0.62287(18)
H15 H 0.6243 0.3639 0.6047
C22 C 0.6298(3) 0.5706(5) 0.60115(16)
H16 H 0.6319 0.5753 0.5681
C23 C 0.6284(3) 0.6766(4) 0.67358(13)
Zn1D Zn 0.36904(3) 1.11555(5) 0.401935(15)
Zn1E Zn 0.13096(3) 0.88445(5) 0.401935(15)
O3D O 0.6618(2) 1.0893(3) 0.59151(10)
O4E O 0.7230(2) 0.8338(3) 0.54480(10)
loop_
_geom_bond_atom_site_label_1
_geom_bond_atom_site_label_2
_geom_bond_site_symmetry_1
_geom_bond_site_symmetry_2
Zn1 N1 1_555 1_555
N1 C5 1_555 1_555
N2 Zn1 1_555 1_555
N3 H1 1_555 1_555
N4 C11 1_555 1_555
O1 Zn1 1_555 1_555
O2 C1 1_555 1_555
O3 C4 1_555 1_555
O4 C4 1_555 1_555
C1 O1 1_555 1_555
C2 C1 1_555 1_555
H2 C2 1_555 1_555
H3 C2 1_555 1_555
C3 C2 1_555 1_555
H4 C3 1_555 1_555
H5 C3 1_555 1_555
C4 C3 1_555 1_555
C5 C9 1_555 1_555
C6 N1 1_555 1_555
H6 C6 1_555 1_555
C7 C6 1_555 1_555
H7 C7 1_555 1_555
C8 C7 1_555 1_555
H8 C8 1_555 1_555
C9 C8 1_555 1_555
C10 N3 1_555 1_555
C11 N3 1_555 1_555
C12 C11 1_555 1_555
C13 C12 1_555 1_555
H9 C13 1_555 1_555
C14 C13 1_555 1_555
H10 C14 1_555 1_555
C15 C14 1_555 1_555
H11 C15 1_555 1_555
C16 C15 1_555 1_555
H12 C16 1_555 1_555
C17 C12 1_555 1_555
H13 C17 1_555 1_555
C18 N4 1_555 1_555
C19 C18 1_555 1_555
C20 C19 1_555 1_555
H14 C20 1_555 1_555
C21 C20 1_555 1_555
H15 C21 1_555 1_555
C22 N2 1_555 1_555
H16 C22 1_555 1_555
C23 N2 1_555 1_555
Zn1D O3 1_555 1_555
Zn1E O4 1_555 1_555
O3D Zn1 1_555 1_555
O4E Zn1 1_555 1_555
C5 C23 1_555 1_555
C9 C10 1_555 1_555
C10 C18 1_555 1_555
C16 C17 1_555 1_555
C19 C23 1_555 1_555
C21 C22 1_555 1_555

#END
