
#######################################################################
#
#                 Cambridge Crystallographic Data Centre
#                                CCDC 
#
#######################################################################
#
# If this CIF has been generated from an entry in the Cambridge 
# Structural Database, then it will include bibliographic, chemical, 
# crystal, experimental, refinement or atomic coordinate data resulting 
# from the CCDC's data processing and validation procedures.
#
#######################################################################

data_NESGAV
_symmetry_cell_setting           orthorhombic
_symmetry_space_group_name_H-M   'F d d d'
_symmetry_Int_Tables_number      70
_space_group_name_Hall           '-F 2uv 2vw'
loop_
_symmetry_equiv_pos_site_id
_symmetry_equiv_pos_as_xyz
1 x,y,z
2 3/4-x,3/4-y,z
3 3/4-x,y,3/4-z
4 x,3/4-y,3/4-z
5 x,1/2+y,1/2+z
6 3/4-x,1/4-y,1/2+z
7 3/4-x,1/2+y,1/4-z
8 x,1/4-y,1/4-z
9 1/2+x,y,1/2+z
10 1/4-x,3/4-y,1/2+z
11 1/4-x,y,1/4-z
12 1/2+x,3/4-y,1/4-z
13 1/2+x,1/2+y,z
14 1/4-x,1/4-y,z
15 1/4-x,1/2+y,3/4-z
16 1/2+x,1/4-y,3/4-z
17 -x,-y,-z
18 1/4+x,1/4+y,-z
19 1/4+x,-y,1/4+z
20 -x,1/4+y,1/4+z
21 -x,1/2-y,1/2-z
22 1/4+x,3/4+y,1/2-z
23 1/4+x,1/2-y,3/4+z
24 -x,3/4+y,3/4+z
25 1/2-x,-y,1/2-z
26 3/4+x,1/4+y,1/2-z
27 3/4+x,-y,3/4+z
28 1/2-x,1/4+y,3/4+z
29 1/2-x,1/2-y,-z
30 3/4+x,3/4+y,-z
31 3/4+x,1/2-y,1/4+z
32 1/2-x,3/4+y,1/4+z
_cell_length_a                   15.1007(10)
_cell_length_b                   17.2538(11)
_cell_length_c                   31.509(2)
_cell_angle_alpha                90
_cell_angle_beta                 90
_cell_angle_gamma                90
_cell_volume                     8209.5
loop_
_atom_site_label
_atom_site_type_symbol
_atom_site_fract_x
_atom_site_fract_y
_atom_site_fract_z
C1 C 0.21906(13) 0.33944(11) 0.05576(6)
H1 H 0.1946 0.2999 0.0394
C2 C 0.25949(13) 0.40208(11) 0.03455(6)
C3 C 0.29665(14) 0.45971(12) 0.05837(6)
H2 H 0.3244 0.5013 0.0452
C4 C 0.29273(14) 0.45589(12) 0.10313(6)
C5 C 0.25065(13) 0.39136(11) 0.12208(6)
C6 C 0.24703(15) 0.38605(12) 0.16679(7)
H3 H 0.2207 0.3434 0.1797
C7 C 0.28235(17) 0.44391(15) 0.19095(7)
H4 H 0.2786 0.4407 0.2204
C8 C 0.32401(19) 0.50794(15) 0.17256(8)
H5 H 0.3473 0.5468 0.1897
C9 C 0.33062(19) 0.51355(13) 0.12959(7)
H6 H 0.3601 0.5554 0.1175
C10 C 0.26390(12) 0.40150(11) -0.01199(6)
Cd1 Cd 0.1250 0.237189(10) 0.1250
N1 N 0.21392(11) 0.33370(9) 0.09742(5)
N2 N 0.23399(12) 0.34384(10) -0.03638(5)
N3 N 0.30393(11) 0.45687(9) -0.03452(5)
N4 N 0.29748(11) 0.43081(9) -0.07440(5)
N5 N 0.25646(13) 0.36336(10) -0.07586(5)
C1J C 0.03094(13) 0.33944(11) 0.19424(6)
H1J H 0.0554 0.2999 0.2106
C2J C -0.00949(13) 0.40208(11) 0.21545(6)
C3J C -0.04665(14) 0.45971(12) 0.19163(6)
H2J H -0.0744 0.5013 0.2048
C4J C -0.04273(14) 0.45589(12) 0.14687(6)
C5J C -0.00065(13) 0.39136(11) 0.12792(6)
C6J C 0.00297(15) 0.38605(12) 0.08321(7)
H3J H 0.0293 0.3434 0.0703
C7J C -0.03235(17) 0.44391(15) 0.05905(7)
H4J H -0.0286 0.4407 0.0296
C8J C -0.07401(19) 0.50794(15) 0.07744(8)
H5J H -0.0973 0.5468 0.0603
C9J C -0.08062(19) 0.51355(13) 0.12041(7)
H6J H -0.1101 0.5554 0.1325
C10J C -0.01390(12) 0.40150(11) 0.26199(6)
Cd1Q Cd 0.3750 0.487189(10) -0.1250
Cd1S Cd -0.1250 0.487189(10) 0.3750
N1J N 0.03608(11) 0.33370(9) 0.15258(5)
N2J N 0.01601(12) 0.34384(10) 0.28638(5)
N3J N -0.05393(11) 0.45687(9) 0.28452(5)
N4J N -0.04748(11) 0.43081(9) 0.32440(5)
N4CA N 0.04748(11) 0.18081(9) 0.07440(5)
N4EA N 0.20252(11) 0.18081(9) 0.17560(5)
N5J N -0.00646(13) 0.36336(10) 0.32586(5)
loop_
_geom_bond_atom_site_label_1
_geom_bond_atom_site_label_2
_geom_bond_site_symmetry_1
_geom_bond_site_symmetry_2
C1 H1 1_555 1_555
C2 C1 1_555 1_555
C3 C2 1_555 1_555
H2 C3 1_555 1_555
C4 C3 1_555 1_555
C5 C4 1_555 1_555
C6 C5 1_555 1_555
H3 C6 1_555 1_555
C7 C6 1_555 1_555
H4 C7 1_555 1_555
C8 C7 1_555 1_555
H5 C8 1_555 1_555
C9 C4 1_555 1_555
H6 C9 1_555 1_555
C10 C2 1_555 1_555
Cd1 N1 1_555 1_555
N1 C1 1_555 1_555
N2 C10 1_555 1_555
N3 C10 1_555 1_555
N4 N3 1_555 1_555
N5 N2 1_555 1_555
C1J H1J 1_555 1_555
C2J C1J 1_555 1_555
C3J C2J 1_555 1_555
H2J C3J 1_555 1_555
C4J C3J 1_555 1_555
C5J C4J 1_555 1_555
C6J C5J 1_555 1_555
H3J C6J 1_555 1_555
C7J C6J 1_555 1_555
H4J C7J 1_555 1_555
C8J C7J 1_555 1_555
H5J C8J 1_555 1_555
C9J C4J 1_555 1_555
H6J C9J 1_555 1_555
C10J C2J 1_555 1_555
Cd1Q N4 1_555 1_555
Cd1S N4J 1_555 1_555
N1J Cd1 1_555 1_555
N2J C10J 1_555 1_555
N3J C10J 1_555 1_555
N4J N3J 1_555 1_555
N4CA Cd1 1_555 1_555
N4EA Cd1 1_555 1_555
N5J N2J 1_555 1_555
C5 N1 1_555 1_555
C8 C9 1_555 1_555
N4 N5 1_555 1_555
C1J N1J 1_555 1_555
C5J N1J 1_555 1_555
C8J C9J 1_555 1_555
N4J N5J 1_555 1_555

#END
