
#######################################################################
#
#                 Cambridge Crystallographic Data Centre
#                                CCDC 
#
#######################################################################
#
# If this CIF has been generated from an entry in the Cambridge 
# Structural Database, then it will include bibliographic, chemical, 
# crystal, experimental, refinement or atomic coordinate data resulting 
# from the CCDC's data processing and validation procedures.
#
#######################################################################

data_NESHOK
_symmetry_cell_setting           triclinic
_symmetry_space_group_name_H-M   'P -1'
_symmetry_Int_Tables_number      2
_space_group_name_Hall           '-P 1'
loop_
_symmetry_equiv_pos_site_id
_symmetry_equiv_pos_as_xyz
1 x,y,z
2 -x,-y,-z
_cell_length_a                   11.7390(10)
_cell_length_b                   13.3460(9)
_cell_length_c                   19.5040(17)
_cell_angle_alpha                81.750(5)
_cell_angle_beta                 85.689(6)
_cell_angle_gamma                72.637(5)
_cell_volume                     2884.56
loop_
_atom_site_label
_atom_site_type_symbol
_atom_site_fract_x
_atom_site_fract_y
_atom_site_fract_z
Ba1 Ba 0.12805(2) 0.705842(17) 0.546818(13)
F1 F -0.1363(3) 0.5910(3) 0.7536(2)
F2 F -0.0374(4) 0.4349(3) 0.7845(2)
F3 F -0.1321(3) 0.4738(3) 0.69133(19)
F4 F 0.4318(5) 0.3453(3) 0.6046(3)
F5 F 0.3164(5) 0.2675(4) 0.6319(5)
F6 F 0.3909(6) 0.3094(5) 0.7036(3)
F7 F 0.3189(4) 0.8361(4) 0.31695(19)
F8 F 0.2572(4) 0.9892(3) 0.3482(2)
F9 F 0.4403(3) 0.9032(3) 0.3497(2)
F10 F 0.4946(4) 0.8763(6) 0.6164(4)
F11 F 0.3382(6) 0.9076(6) 0.6686(3)
F12 F 0.3619(8) 1.0098(5) 0.5940(4)
O1 O 0.0261(3) 0.6194(2) 0.65902(18)
O2 O 0.2676(3) 0.5232(2) 0.61037(17)
O3 O 0.2592(3) 0.7778(3) 0.44404(17)
O4 O 0.2901(3) 0.7889(3) 0.58705(18)
N1 N -0.0767(3) 0.6301(2) 0.5230(2)
N2 N -0.1432(3) 0.4786(3) 0.52325(18)
N3 N 0.0020(3) 0.8950(3) 0.45089(19)
N4 N -0.0247(3) 1.0789(2) 0.41578(18)
C1 C 0.0419(4) 0.5269(4) 0.6874(2)
C2 C 0.1425(5) 0.4405(3) 0.6842(3)
H1 H 0.1411 0.3751 0.7092
C3 C 0.2450(5) 0.4466(4) 0.6458(3)
C4 C -0.0667(5) 0.5067(4) 0.7295(3)
C5 C 0.3472(6) 0.3442(5) 0.6484(4)
C6 C 0.3114(4) 0.8480(4) 0.4370(3)
C7 C 0.3512(5) 0.8898(4) 0.4887(3)
H2 H 0.3893 0.9427 0.4755
C8 C 0.3374(4) 0.8572(4) 0.5589(3)
C9 C 0.3305(5) 0.8949(5) 0.3629(3)
C10 C 0.3874(6) 0.9087(6) 0.6093(4)
C11 C -0.0604(4) 0.5301(3) 0.5124(2)
C12 C -0.1854(4) 0.6832(3) 0.5467(3)
C13 C -0.2753(4) 0.6368(3) 0.5584(3)
H3 H -0.3516 0.6753 0.5736
C14 C -0.2530(4) 0.5326(3) 0.5475(2)
C15 C -0.2039(5) 0.7964(4) 0.5601(4)
H4 H -0.1529 0.8280 0.5282
H5 H -0.1837 0.7967 0.6074
H6 H -0.2867 0.8368 0.5532
C16 C -0.3483(5) 0.4779(4) 0.5589(3)
H7 H -0.3738 0.4693 0.5145
H8 H -0.3171 0.4089 0.5855
H9 H -0.4159 0.5200 0.5841
C17 C -0.0065(4) 0.9933(3) 0.4630(2)
C18 C -0.0080(5) 0.8815(3) 0.3840(2)
C19 C -0.0268(5) 0.9665(3) 0.3325(2)
H10 H -0.0340 0.9571 0.2863
C20 C -0.0351(5) 1.0650(3) 0.3494(2)
C21 C 0.0031(7) 0.7717(4) 0.3686(3)
H11 H -0.0464 0.7402 0.4016
H12 H 0.0857 0.7288 0.3722
H13 H -0.0229 0.7752 0.3220
C22 C -0.0582(6) 1.1602(4) 0.2956(3)
H14 H -0.1393 1.2049 0.3019
H15 H -0.0025 1.1996 0.3004
H16 H -0.0479 1.1378 0.2498
Ba1A Ba -0.12805(2) 0.294158(17) 0.453182(13)
Ba1A_2 Ba -0.12805(2) 1.294158(17) 0.453182(13)
F1A F 0.1363(3) 0.4090(3) 0.2464(2)
F2A F 0.0374(4) 0.5651(3) 0.2155(2)
F3A F 0.1321(3) 0.5262(3) 0.30867(19)
F4A F -0.4318(5) 0.6547(3) 0.3954(3)
F5A F -0.3164(5) 0.7325(4) 0.3681(5)
F6A F -0.3909(6) 0.6906(5) 0.2964(3)
F7A F -0.3189(4) 0.1639(4) 0.68305(19)
F8A F -0.2572(4) 0.0108(3) 0.6518(2)
F9A F -0.4403(3) 0.0968(3) 0.6503(2)
F10A F -0.4946(4) 0.1237(6) 0.3836(4)
F11A F -0.3382(6) 0.0924(6) 0.3314(3)
F12A F -0.3619(8) -0.0098(5) 0.4060(4)
O1A O -0.0261(3) 0.3806(2) 0.34098(18)
O2A O -0.2676(3) 0.4768(2) 0.38963(17)
O3A O -0.2592(3) 0.2222(3) 0.55596(17)
O4A O -0.2901(3) 0.2111(3) 0.41295(18)
N1A N 0.0767(3) 0.3699(2) 0.4770(2)
N2A N 0.1432(3) 0.5214(3) 0.47675(18)
N3A N -0.0020(3) 1.1050(3) 0.54911(19)
N3A_2 N -0.0020(3) 0.1050(3) 0.54911(19)
N4A N 0.0247(3) 0.9211(2) 0.58422(18)
N4_2 N -0.0247(3) 0.0789(2) 0.41578(18)
C1A C -0.0419(4) 0.4731(4) 0.3126(2)
C2A C -0.1425(5) 0.5595(3) 0.3158(3)
H1A H -0.1411 0.6249 0.2908
C3A C -0.2450(5) 0.5534(4) 0.3542(3)
C4A C 0.0667(5) 0.4933(4) 0.2705(3)
C5A C -0.3472(6) 0.6558(5) 0.3516(4)
C6A C -0.3114(4) 0.1520(4) 0.5630(3)
C7A C -0.3512(5) 0.1102(4) 0.5113(3)
H2A H -0.3893 0.0573 0.5245
C8A C -0.3374(4) 0.1428(4) 0.4411(3)
C9A C -0.3305(5) 0.1051(5) 0.6371(3)
C10A C -0.3874(6) 0.0913(6) 0.3907(4)
C11A C 0.0604(4) 0.4699(3) 0.4876(2)
C12A C 0.1854(4) 0.3168(3) 0.4533(3)
C13A C 0.2753(4) 0.3632(3) 0.4416(3)
H3A H 0.3516 0.3247 0.4264
C14A C 0.2530(4) 0.4674(3) 0.4525(2)
C15A C 0.2039(5) 0.2036(4) 0.4399(4)
H4A H 0.1529 0.1720 0.4718
H5A H 0.1837 0.2033 0.3926
H6A H 0.2867 0.1632 0.4468
C16A C 0.3483(5) 0.5221(4) 0.4411(3)
H7A H 0.3738 0.5307 0.4855
H8A H 0.3171 0.5911 0.4145
H9A H 0.4159 0.4800 0.4159
C17A C 0.0065(4) 1.0067(3) 0.5370(2)
C18A C 0.0080(5) 1.1185(3) 0.6160(2)
C19A C 0.0268(5) 1.0335(3) 0.6675(2)
H10A H 0.0340 1.0429 0.7137
C20A C 0.0351(5) 0.9350(3) 0.6506(2)
C21A C -0.0031(7) 1.2283(4) 0.6314(3)
H11A H 0.0464 1.2598 0.5984
H12A H -0.0857 1.2712 0.6278
H13A H 0.0229 1.2248 0.6780
C22A C 0.0582(6) 0.8398(4) 0.7044(3)
H14A H 0.1393 0.7951 0.6981
H15A H 0.0025 0.8004 0.6996
H16A H 0.0479 0.8622 0.7502
Ba2 Ba 0.61929(2) 0.209253(18) 0.046446(13)
F13 F 0.5209(6) 0.4691(7) 0.2837(4)
F14 F 0.4359(7) 0.3595(5) 0.2792(3)
F15 F 0.3984(6) 0.4956(4) 0.2148(3)
F16 F 0.8496(5) 0.5052(4) 0.1286(4)
F17 F 0.9532(5) 0.3585(4) 0.1724(3)
F18 F 0.9402(5) 0.3897(5) 0.0680(3)
F19 F 0.7788(5) -0.1320(4) 0.2087(3)
F20 F 0.9518(4) -0.1708(3) 0.1721(2)
F21 F 0.8374(7) -0.2398(4) 0.1371(3)
F22 F 0.8106(6) -0.0794(7) -0.1318(3)
F23 F 0.9675(7) -0.1246(7) -0.0990(4)
F24 F 0.9035(9) 0.0195(6) -0.1446(4)
O5 O 0.5459(3) 0.3082(3) 0.15776(18)
O6 O 0.7751(3) 0.2959(3) 0.09184(19)
O7 O 0.7536(3) 0.0253(3) 0.1103(2)
O8 O 0.7712(3) 0.0856(2) -0.03666(19)
N5 N 0.4175(3) 0.4053(3) 0.0214(2)
N6 N 0.3654(4) 0.5882(2) 0.03355(19)
N7 N 0.4962(3) 0.0434(3) 0.08396(18)
N8 N 0.4971(4) -0.1230(3) 0.05168(19)
C23 C 0.5756(5) 0.3707(4) 0.1888(3)
C24 C 0.6794(5) 0.4020(4) 0.1779(3)
H17 H 0.6883 0.4532 0.2038
C25 C 0.7692(5) 0.3622(4) 0.1314(3)
C26 C 0.4857(8) 0.4203(7) 0.2427(4)
C27 C 0.8765(6) 0.4063(6) 0.1256(4)
C28 C 0.8107(5) -0.0607(4) 0.0931(3)
C29 C 0.8492(5) -0.0844(4) 0.0254(3)
H18 H 0.8900 -0.1550 0.0196
C30 C 0.8303(4) -0.0100(4) -0.0327(3)
C31 C 0.8456(6) -0.1528(5) 0.1510(4)
C32 C 0.8764(7) -0.0455(6) -0.1015(4)
C33 C 0.4400(4) 0.4978(3) 0.0151(2)
C34 C 0.2587(5) 0.5834(4) 0.0610(3)
C35 C 0.2275(5) 0.4914(4) 0.0692(3)
H19 H 0.1522 0.4895 0.0884
C36 C 0.3086(4) 0.4015(3) 0.0488(3)
C37 C 0.1720(6) 0.6838(4) 0.0821(4)
H20 H 0.1611 0.7394 0.0431
H21 H 0.0958 0.6714 0.0962
H22 H 0.2034 0.7050 0.1204
C38 C 0.2790(6) 0.2997(5) 0.0539(5)
H23 H 0.3010 0.2702 0.0105
H24 H 0.1939 0.3121 0.0634
H25 H 0.3228 0.2504 0.0911
C39 C 0.4981(4) -0.0219(3) 0.0375(2)
C40 C 0.4955(5) -0.1622(4) 0.1189(3)
C41 C 0.4911(5) -0.0994(4) 0.1698(2)
H26 H 0.4878 -0.1267 0.2168
C42 C 0.4914(5) 0.0028(4) 0.1512(2)
C43 C 0.4966(9) -0.2762(5) 0.1358(3)
H27 H 0.5750 -0.3218 0.1243
H28 H 0.4783 -0.2910 0.1848
H29 H 0.4372 -0.2891 0.1090
C44 C 0.4866(7) 0.0754(5) 0.2046(3)
H30 H 0.5670 0.0755 0.2129
H31 H 0.4502 0.0508 0.2474
H32 H 0.4396 0.1466 0.1877
Ba2A Ba 0.38071(2) 0.790747(18) -0.046446(13)
Ba2A_2 Ba 0.38071(2) -0.209253(18) -0.046446(13)
F13A F 0.4791(6) 0.5309(7) -0.2837(4)
F14A F 0.5641(7) 0.6405(5) -0.2792(3)
F15A F 0.6016(6) 0.5044(4) -0.2148(3)
F16A F 0.1504(5) 0.4948(4) -0.1286(4)
F17A F 0.0468(5) 0.6415(4) -0.1724(3)
F18A F 0.0598(5) 0.6103(5) -0.0680(3)
F19A F 0.2212(5) 1.1320(4) -0.2087(3)
F20A F 0.0482(4) 1.1708(3) -0.1721(2)
F21A F 0.1626(7) 1.2398(4) -0.1371(3)
F22A F 0.1894(6) 1.0794(7) 0.1318(3)
F23A F 0.0325(7) 1.1246(7) 0.0990(4)
F24A F 0.0965(9) 0.9805(6) 0.1446(4)
O5A O 0.4541(3) 0.6918(3) -0.15776(18)
O6A O 0.2249(3) 0.7041(3) -0.09184(19)
O7A O 0.2464(3) 0.9747(3) -0.1103(2)
O8A O 0.2288(3) 0.9144(2) 0.03666(19)
N5A N 0.5825(3) 0.5947(3) -0.0214(2)
N6A N 0.6346(4) 0.4118(2) -0.03355(19)
N7A N 0.5038(3) -0.0434(3) -0.08396(18)
N7A_2 N 0.5038(3) 0.9566(3) -0.08396(18)
N8A N 0.5029(4) 0.1230(3) -0.05168(19)
N8_2 N 0.4971(4) 0.8770(3) 0.05168(19)
C23A C 0.4244(5) 0.6293(4) -0.1888(3)
C24A C 0.3206(5) 0.5980(4) -0.1779(3)
H17A H 0.3117 0.5468 -0.2038
C25A C 0.2308(5) 0.6378(4) -0.1314(3)
C26A C 0.5143(8) 0.5797(7) -0.2427(4)
C27A C 0.1235(6) 0.5937(6) -0.1256(4)
C28A C 0.1893(5) 1.0607(4) -0.0931(3)
C29A C 0.1508(5) 1.0844(4) -0.0254(3)
H18A H 0.1100 1.1550 -0.0196
C30A C 0.1697(4) 1.0100(4) 0.0327(3)
C31A C 0.1544(6) 1.1528(5) -0.1510(4)
C32A C 0.1236(7) 1.0455(6) 0.1015(4)
C33A C 0.5600(4) 0.5022(3) -0.0151(2)
C34A C 0.7413(5) 0.4166(4) -0.0610(3)
C35A C 0.7725(5) 0.5086(4) -0.0692(3)
H19A H 0.8478 0.5105 -0.0884
C36A C 0.6914(4) 0.5985(3) -0.0488(3)
C37A C 0.8280(6) 0.3162(4) -0.0821(4)
H20A H 0.8389 0.2606 -0.0431
H21A H 0.9042 0.3286 -0.0962
H22A H 0.7966 0.2950 -0.1204
C38A C 0.7210(6) 0.7003(5) -0.0539(5)
H23A H 0.6990 0.7298 -0.0105
H24A H 0.8061 0.6879 -0.0634
H25A H 0.6772 0.7496 -0.0911
C39A C 0.5019(4) 0.0219(3) -0.0375(2)
C40A C 0.5045(5) 0.1622(4) -0.1189(3)
C41A C 0.5089(5) 0.0994(4) -0.1698(2)
H26A H 0.5122 0.1267 -0.2168
C42A C 0.5086(5) -0.0028(4) -0.1512(2)
C43A C 0.5034(9) 0.2762(5) -0.1358(3)
H27A H 0.4250 0.3218 -0.1243
H28A H 0.5217 0.2910 -0.1848
H29A H 0.5628 0.2891 -0.1090
C44A C 0.5134(7) -0.0754(5) -0.2046(3)
H30A H 0.4330 -0.0755 -0.2129
H31A H 0.5498 -0.0508 -0.2474
H32A H 0.5604 -0.1466 -0.1877
loop_
_geom_bond_atom_site_label_1
_geom_bond_atom_site_label_2
_geom_bond_site_symmetry_1
_geom_bond_site_symmetry_2
Ba1 O1 1_555 1_555
F1 C4 1_555 1_555
F2 C4 1_555 1_555
F3 C4 1_555 1_555
F4 C5 1_555 1_555
F5 C5 1_555 1_555
F6 C5 1_555 1_555
F7 C9 1_555 1_555
F8 C9 1_555 1_555
F9 C9 1_555 1_555
F10 C10 1_555 1_555
F11 C10 1_555 1_555
F12 C10 1_555 1_555
O1 C1 1_555 1_555
O2 Ba1 1_555 1_555
O3 Ba1 1_555 1_555
O4 Ba1 1_555 1_555
N1 Ba1 1_555 1_555
N2 C11 1_555 1_555
N3 Ba1 1_555 1_555
N4 C17 1_555 1_555
C1 C2 1_555 1_555
C2 H1 1_555 1_555
C3 O2 1_555 1_555
C4 C1 1_555 1_555
C5 C3 1_555 1_555
C6 O3 1_555 1_555
C7 C6 1_555 1_555
H2 C7 1_555 1_555
C8 O4 1_555 1_555
C9 C6 1_555 1_555
C10 C8 1_555 1_555
C11 N1 1_555 1_555
C12 N1 1_555 1_555
C13 C12 1_555 1_555
H3 C13 1_555 1_555
C14 N2 1_555 1_555
C15 C12 1_555 1_555
H4 C15 1_555 1_555
H5 C15 1_555 1_555
H6 C15 1_555 1_555
C16 C14 1_555 1_555
H7 C16 1_555 1_555
H8 C16 1_555 1_555
H9 C16 1_555 1_555
C17 N3 1_555 1_555
C18 N3 1_555 1_555
C19 C18 1_555 1_555
H10 C19 1_555 1_555
C20 N4 1_555 1_555
C21 C18 1_555 1_555
H11 C21 1_555 1_555
H12 C21 1_555 1_555
H13 C21 1_555 1_555
C22 C20 1_555 1_555
H14 C22 1_555 1_555
H15 C22 1_555 1_555
H16 C22 1_555 1_555
Ba2 O5 1_555 1_555
F13 C26 1_555 1_555
F14 C26 1_555 1_555
F15 C26 1_555 1_555
F16 C27 1_555 1_555
F17 C27 1_555 1_555
F18 C27 1_555 1_555
F19 C31 1_555 1_555
F20 C31 1_555 1_555
F21 C31 1_555 1_555
F22 C32 1_555 1_555
F23 C32 1_555 1_555
F24 C32 1_555 1_555
O5 C23 1_555 1_555
O6 Ba2 1_555 1_555
O7 Ba2 1_555 1_555
O8 Ba2 1_555 1_555
N5 Ba2 1_555 1_555
N6 C33 1_555 1_555
N7 Ba2 1_555 1_555
N8 C39 1_555 1_555
C23 C24 1_555 1_555
C24 H17 1_555 1_555
C25 O6 1_555 1_555
C26 C23 1_555 1_555
C27 C25 1_555 1_555
C28 O7 1_555 1_555
C29 C28 1_555 1_555
H18 C29 1_555 1_555
C30 O8 1_555 1_555
C31 C28 1_555 1_555
C32 C30 1_555 1_555
C33 N5 1_555 1_555
C34 N6 1_555 1_555
C35 C34 1_555 1_555
H19 C35 1_555 1_555
C36 N5 1_555 1_555
C37 C34 1_555 1_555
H20 C37 1_555 1_555
H21 C37 1_555 1_555
H22 C37 1_555 1_555
C38 C36 1_555 1_555
H23 C38 1_555 1_555
H24 C38 1_555 1_555
H25 C38 1_555 1_555
C39 N7 1_555 1_555
C40 N8 1_555 1_555
C41 C40 1_555 1_555
H26 C41 1_555 1_555
C42 N7 1_555 1_555
C43 C40 1_555 1_555
H27 C43 1_555 1_555
H28 C43 1_555 1_555
H29 C43 1_555 1_555
C44 C42 1_555 1_555
H30 C44 1_555 1_555
H31 C44 1_555 1_555
H32 C44 1_555 1_555
Ba1A N2 1_555 1_555
Ba1A_2 N4 1_555 1_555
F1A C4A 1_555 1_555
F2A C4A 1_555 1_555
F3A C4A 1_555 1_555
F4A C5A 1_555 1_555
F5A C5A 1_555 1_555
F6A C5A 1_555 1_555
F7A C9A 1_555 1_555
F8A C9A 1_555 1_555
F9A C9A 1_555 1_555
F10A C10A 1_555 1_555
F11A C10A 1_555 1_555
F12A C10A 1_555 1_555
O1A Ba1A 1_555 1_555
O2A Ba1A 1_555 1_555
O3A Ba1A 1_555 1_555
O4A Ba1A 1_555 1_555
N1A Ba1A 1_555 1_555
N2A Ba1 1_555 1_555
N3A Ba1A_2 1_555 1_555
N3A_2 Ba1A 1_555 1_555
N4A Ba1 1_555 1_555
N4_2 Ba1A 1_555 1_555
C1A O1A 1_555 1_555
C2A C1A 1_555 1_555
H1A C2A 1_555 1_555
C3A O2A 1_555 1_555
C4A C1A 1_555 1_555
C5A C3A 1_555 1_555
C6A O3A 1_555 1_555
C7A C6A 1_555 1_555
H2A C7A 1_555 1_555
C8A O4A 1_555 1_555
C9A C6A 1_555 1_555
C10A C8A 1_555 1_555
C11A C11 1_555 1_555
C12A N1A 1_555 1_555
C13A C12A 1_555 1_555
H3A C13A 1_555 1_555
C14A N2A 1_555 1_555
C15A C12A 1_555 1_555
H4A C15A 1_555 1_555
H5A C15A 1_555 1_555
H6A C15A 1_555 1_555
C16A C14A 1_555 1_555
H7A C16A 1_555 1_555
H8A C16A 1_555 1_555
H9A C16A 1_555 1_555
C17A C17 1_555 1_555
C18A N3A 1_555 1_555
C19A C18A 1_555 1_555
H10A C19A 1_555 1_555
C20A N4A 1_555 1_555
C21A C18A 1_555 1_555
H11A C21A 1_555 1_555
H12A C21A 1_555 1_555
H13A C21A 1_555 1_555
C22A C20A 1_555 1_555
H14A C22A 1_555 1_555
H15A C22A 1_555 1_555
H16A C22A 1_555 1_555
Ba2A N6 1_555 1_555
Ba2A_2 N8 1_555 1_555
F13A C26A 1_555 1_555
F14A C26A 1_555 1_555
F15A C26A 1_555 1_555
F16A C27A 1_555 1_555
F17A C27A 1_555 1_555
F18A C27A 1_555 1_555
F19A C31A 1_555 1_555
F20A C31A 1_555 1_555
F21A C31A 1_555 1_555
F22A C32A 1_555 1_555
F23A C32A 1_555 1_555
F24A C32A 1_555 1_555
O5A Ba2A 1_555 1_555
O6A Ba2A 1_555 1_555
O7A Ba2A 1_555 1_555
O8A Ba2A 1_555 1_555
N5A Ba2A 1_555 1_555
N6A Ba2 1_555 1_555
N7A Ba2A_2 1_555 1_555
N7A_2 Ba2A 1_555 1_555
N8A Ba2 1_555 1_555
N8_2 Ba2A 1_555 1_555
C23A O5A 1_555 1_555
C24A C23A 1_555 1_555
H17A C24A 1_555 1_555
C25A O6A 1_555 1_555
C26A C23A 1_555 1_555
C27A C25A 1_555 1_555
C28A O7A 1_555 1_555
C29A C28A 1_555 1_555
H18A C29A 1_555 1_555
C30A O8A 1_555 1_555
C31A C28A 1_555 1_555
C32A C30A 1_555 1_555
C33A C33 1_555 1_555
C34A N6A 1_555 1_555
C35A C34A 1_555 1_555
H19A C35A 1_555 1_555
C36A N5A 1_555 1_555
C37A C34A 1_555 1_555
H20A C37A 1_555 1_555
H21A C37A 1_555 1_555
H22A C37A 1_555 1_555
C38A C36A 1_555 1_555
H23A C38A 1_555 1_555
H24A C38A 1_555 1_555
H25A C38A 1_555 1_555
C39A C39 1_555 1_555
C40A N8A 1_555 1_555
C41A C40A 1_555 1_555
H26A C41A 1_555 1_555
C42A N7A 1_555 1_555
C43A C40A 1_555 1_555
H27A C43A 1_555 1_555
H28A C43A 1_555 1_555
H29A C43A 1_555 1_555
C44A C42A 1_555 1_555
H30A C44A 1_555 1_555
H31A C44A 1_555 1_555
H32A C44A 1_555 1_555
C2 C3 1_555 1_555
C7 C8 1_555 1_555
C13 C14 1_555 1_555
C19 C20 1_555 1_555
C24 C25 1_555 1_555
C29 C30 1_555 1_555
C35 C36 1_555 1_555
C41 C42 1_555 1_555
N1A C11A 1_555 1_555
N2A C11A 1_555 1_555
N3A C17A 1_555 1_555
N4A C17A 1_555 1_555
C2A C3A 1_555 1_555
C7A C8A 1_555 1_555
C13A C14A 1_555 1_555
C19A C20A 1_555 1_555
N5A C33A 1_555 1_555
N6A C33A 1_555 1_555
N7A C39A 1_555 1_555
N8A C39A 1_555 1_555
C24A C25A 1_555 1_555
C29A C30A 1_555 1_555
C35A C36A 1_555 1_555
C41A C42A 1_555 1_555

#END
