
#######################################################################
#
#                 Cambridge Crystallographic Data Centre
#                                CCDC 
#
#######################################################################
#
# If this CIF has been generated from an entry in the Cambridge 
# Structural Database, then it will include bibliographic, chemical, 
# crystal, experimental, refinement or atomic coordinate data resulting 
# from the CCDC's data processing and validation procedures.
#
#######################################################################

data_NESHIE
_symmetry_cell_setting           triclinic
_symmetry_space_group_name_H-M   'P -1'
_symmetry_Int_Tables_number      2
_space_group_name_Hall           '-P 1'
loop_
_symmetry_equiv_pos_site_id
_symmetry_equiv_pos_as_xyz
1 x,y,z
2 -x,-y,-z
_cell_length_a                   11.9876(11)
_cell_length_b                   12.0698(7)
_cell_length_c                   12.3219(7)
_cell_angle_alpha                66.622(8)
_cell_angle_beta                 86.490(6)
_cell_angle_gamma                77.145(9)
_cell_volume                     1594.73
loop_
_atom_site_label
_atom_site_type_symbol
_atom_site_fract_x
_atom_site_fract_y
_atom_site_fract_z
Ba1 Ba 0.31232(3) 0.06035(4) 0.24154(4)
O1 O 0.3069(4) -0.1857(5) 0.3031(5)
O2 O 0.3060(5) 0.3027(5) 0.1117(5)
O3 O 0.1413(5) 0.1736(6) 0.0785(6)
O4 O 0.5209(5) -0.1126(5) 0.2946(6)
N1 N 0.4586(5) 0.1424(5) 0.3739(5)
N2 N 0.6181(5) 0.0671(5) 0.5065(5)
N3 N 0.3576(5) -0.0198(6) 0.0405(5)
N4 N 0.0809(5) 0.0066(6) 0.3258(7)
N5 N 0.1318(6) 0.2098(7) 0.3377(7)
N6 N 0.4946(6) -0.1101(7) -0.0635(7)
N7 N -0.0615(7) 0.2739(8) 0.3811(9)
N8 N -0.1140(6) 0.0854(9) 0.3464(10)
C1 C -0.1402(8) -0.0111(13) 0.3344(14)
C2 C 0.5216(5) 0.0582(6) 0.4666(5)
C3 C 0.6543(6) 0.1718(7) 0.4492(6)
C4 C 0.0070(10) 0.2889(12) -0.0734(11)
C5 C 0.4943(7) 0.2499(7) 0.3193(7)
C6 C 0.5918(8) 0.2674(7) 0.3551(7)
C7 C 0.2530(7) 0.3807(7) 0.0209(7)
C8 C 0.1113(7) 0.2750(9) -0.0019(7)
C9 C 0.1592(8) 0.3787(9) -0.0376(8)
C10 C 0.3757(6) -0.2836(6) 0.3153(7)
C11 C 0.4598(6) -0.0356(6) -0.0061(6)
C12 C 0.4939(6) -0.3088(7) 0.3156(8)
C13 C 0.5558(6) -0.2199(7) 0.3049(7)
C14 C 0.0244(6) 0.1981(7) 0.3537(6)
C15 C -0.0051(6) 0.0895(8) 0.3416(7)
C16 C 0.2829(7) -0.0793(9) 0.0254(7)
C17 C 0.3114(9) -0.1584(10) -0.0318(9)
C18 C 0.4210(9) -0.1739(11) -0.0700(10)
C19 C 0.3175(8) -0.3900(8) 0.3348(11)
C20 C -0.0330(11) 0.3695(11) 0.3927(12)
C21 C 0.0736(10) 0.3906(10) 0.3771(10)
C22 C -0.0592(8) -0.1031(10) 0.3193(12)
C23 C 0.0515(7) -0.0890(9) 0.3156(11)
C24 C 0.6862(7) -0.2610(9) 0.3108(9)
C25 C 0.1559(8) 0.3092(9) 0.3486(9)
C26 C 0.3072(9) 0.4942(9) -0.0384(9)
F1 F 0.7338(7) -0.1851(7) 0.2213(7)
F2 F 0.0261(9) 0.3209(10) -0.1910(10)
F3 F -0.0759(14) 0.3871(14) -0.0866(14)
F4 F 0.3377(8) 0.5335(9) 0.0400(9)
F5 F -0.0197(16) 0.1873(17) -0.0583(16)
F6 F 0.7302(9) -0.2618(9) 0.4060(9)
F7 F 0.7262(8) -0.3745(8) 0.3126(8)
F8 F 0.2387(8) 0.5937(8) -0.1163(8)
F9 F 0.2584(13) -0.4135(14) 0.4315(13)
F10 F 0.4019(9) 0.4661(9) -0.0941(9)
F11 F 0.2342(11) -0.3585(11) 0.2589(11)
F12 F 0.3805(11) -0.4924(12) 0.3437(12)
H1 H -0.2231 -0.0157 0.3352
H2 H 0.7281 0.1810 0.4752
H3 H 0.4478 0.3181 0.2506
H4 H 0.6174 0.3474 0.3144
H5 H 0.1244 0.4544 -0.1080
H6 H 0.5364 -0.3935 0.3235
H7 H 0.2040 -0.0660 0.0569
H8 H 0.2546 -0.2022 -0.0450
H9 H 0.4470 -0.2374 -0.1051
H10 H -0.0941 0.4286 0.4144
H11 H 0.0921 0.4641 0.3859
H12 H -0.0792 -0.1768 0.3123
H13 H 0.1137 -0.1539 0.3036
H14 H 0.2359 0.3233 0.3355
Ba1A Ba 0.68768(3) -0.06035(4) 0.75846(4)
Ba1A_2 Ba 0.68768(3) -0.06035(4) -0.24154(4)
O1A O 0.6931(4) 0.1857(5) 0.6969(5)
O2A O 0.6940(5) -0.3027(5) 0.8883(5)
O3A O 0.8587(5) -0.1736(6) 0.9215(6)
O4A O 0.4791(5) 0.1126(5) 0.7054(6)
N1A N 0.5414(5) -0.1424(5) 0.6261(5)
N2A N 0.3819(5) -0.0671(5) 0.4935(5)
N3A N 0.6424(5) 0.0198(6) -0.0405(5)
N3A_2 N 0.6424(5) 0.0198(6) 0.9595(5)
N4A N 0.9191(5) -0.0066(6) 0.6742(7)
N5A N 0.8682(6) -0.2098(7) 0.6623(7)
N6A N 0.5054(6) 0.1101(7) 0.0635(7)
N6_2 N 0.4946(6) -0.1101(7) 0.9365(7)
N7A N 1.0615(7) -0.2739(8) 0.6189(9)
N8A N 1.1140(6) -0.0854(9) 0.6536(10)
C1A C 1.1402(8) 0.0111(13) 0.6656(14)
C2A C 0.4784(5) -0.0582(6) 0.5334(5)
C3A C 0.3457(6) -0.1718(7) 0.5508(6)
C4A C 0.9930(10) -0.2889(12) 1.0734(11)
C5A C 0.5057(7) -0.2499(7) 0.6807(7)
C6A C 0.4082(8) -0.2674(7) 0.6449(7)
C7A C 0.7470(7) -0.3807(7) 0.9791(7)
C8A C 0.8887(7) -0.2750(9) 1.0019(7)
C9A C 0.8408(8) -0.3787(9) 1.0376(8)
C10A C 0.6243(6) 0.2836(6) 0.6847(7)
C11A C 0.5402(6) 0.0356(6) 0.0061(6)
C12A C 0.5061(6) 0.3088(7) 0.6844(8)
C13A C 0.4442(6) 0.2199(7) 0.6951(7)
C14A C 0.9756(6) -0.1981(7) 0.6463(6)
C15A C 1.0051(6) -0.0895(8) 0.6584(7)
C16A C 0.7171(7) 0.0793(9) -0.0254(7)
C17A C 0.6886(9) 0.1584(10) 0.0318(9)
C18A C 0.5790(9) 0.1739(11) 0.0700(10)
C19A C 0.6825(8) 0.3900(8) 0.6652(11)
C20A C 1.0330(11) -0.3695(11) 0.6073(12)
C21A C 0.9264(10) -0.3906(10) 0.6229(10)
C22A C 1.0592(8) 0.1031(10) 0.6807(12)
C23A C 0.9485(7) 0.0890(9) 0.6844(11)
C24A C 0.3138(7) 0.2610(9) 0.6892(9)
C25A C 0.8441(8) -0.3092(9) 0.6514(9)
C26A C 0.6928(9) -0.4942(9) 1.0384(9)
F1A F 0.2662(7) 0.1851(7) 0.7787(7)
F2A F 0.9739(9) -0.3209(10) 1.1910(10)
F3A F 1.0759(14) -0.3871(14) 1.0866(14)
F4A F 0.6623(8) -0.5335(9) 0.9600(9)
F5A F 1.0197(16) -0.1873(17) 1.0583(16)
F6A F 0.2698(9) 0.2618(9) 0.5940(9)
F7A F 0.2738(8) 0.3745(8) 0.6874(8)
F8A F 0.7613(8) -0.5937(8) 1.1163(8)
F9A F 0.7416(13) 0.4135(14) 0.5685(13)
F10A F 0.5981(9) -0.4661(9) 1.0941(9)
F11A F 0.7658(11) 0.3585(11) 0.7411(11)
F12A F 0.6195(11) 0.4924(12) 0.6563(12)
H1A H 1.2231 0.0157 0.6648
H2A H 0.2719 -0.1810 0.5248
H3A H 0.5522 -0.3181 0.7494
H4A H 0.3826 -0.3474 0.6856
H5A H 0.8756 -0.4544 1.1080
H6A H 0.4636 0.3935 0.6765
H7A H 0.7960 0.0660 -0.0569
H8A H 0.7454 0.2022 0.0450
H9A H 0.5530 0.2374 0.1051
H10A H 1.0941 -0.4286 0.5856
H11A H 0.9079 -0.4641 0.6141
H12A H 1.0792 0.1768 0.6877
H13A H 0.8863 0.1539 0.6964
H14A H 0.7641 -0.3233 0.6645
loop_
_geom_bond_atom_site_label_1
_geom_bond_atom_site_label_2
_geom_bond_site_symmetry_1
_geom_bond_site_symmetry_2
Ba1 O1 1_555 1_555
O1 C10 1_555 1_555
O2 Ba1 1_555 1_555
O3 Ba1 1_555 1_555
O4 Ba1 1_555 1_555
N1 Ba1 1_555 1_555
N2 C2 1_555 1_555
N3 Ba1 1_555 1_555
N4 Ba1 1_555 1_555
N5 Ba1 1_555 1_555
N6 C11 1_555 1_555
N7 C14 1_555 1_555
N8 C1 1_555 1_555
C1 C22 1_555 1_555
C2 N1 1_555 1_555
C3 N2 1_555 1_555
C4 C8 1_555 1_555
C5 N1 1_555 1_555
C6 C3 1_555 1_555
C7 O2 1_555 1_555
C8 O3 1_555 1_555
C9 C7 1_555 1_555
C10 C12 1_555 1_555
C11 N3 1_555 1_555
C12 C13 1_555 1_555
C13 O4 1_555 1_555
C14 N5 1_555 1_555
C15 N4 1_555 1_555
C16 N3 1_555 1_555
C17 C16 1_555 1_555
C18 N6 1_555 1_555
C19 C10 1_555 1_555
C20 N7 1_555 1_555
C21 C20 1_555 1_555
C22 C23 1_555 1_555
C23 N4 1_555 1_555
C24 C13 1_555 1_555
C25 N5 1_555 1_555
C26 C7 1_555 1_555
F1 C24 1_555 1_555
F2 C4 1_555 1_555
F3 C4 1_555 1_555
F4 C26 1_555 1_555
F5 C4 1_555 1_555
F6 C24 1_555 1_555
F7 C24 1_555 1_555
F8 C26 1_555 1_555
F9 C19 1_555 1_555
F10 C26 1_555 1_555
F11 C19 1_555 1_555
F12 C19 1_555 1_555
H1 C1 1_555 1_555
H2 C3 1_555 1_555
H3 C5 1_555 1_555
H4 C6 1_555 1_555
H5 C9 1_555 1_555
H6 C12 1_555 1_555
H7 C16 1_555 1_555
H8 C17 1_555 1_555
H9 C18 1_555 1_555
H10 C20 1_555 1_555
H11 C21 1_555 1_555
H12 C22 1_555 1_555
H13 C23 1_555 1_555
H14 C25 1_555 1_555
Ba1A N2 1_555 1_555
Ba1A_2 N6 1_555 1_555
O1A Ba1A 1_555 1_555
O2A Ba1A 1_555 1_555
O3A Ba1A 1_555 1_555
O4A Ba1A 1_555 1_555
N1A Ba1A 1_555 1_555
N2A Ba1 1_555 1_555
N3A Ba1A_2 1_555 1_555
N3A_2 Ba1A 1_555 1_555
N4A Ba1A 1_555 1_555
N5A Ba1A 1_555 1_555
N6A Ba1 1_555 1_555
N6_2 Ba1A 1_555 1_555
N7A C14A 1_555 1_555
N8A C1A 1_555 1_555
C1A C22A 1_555 1_555
C2A C2 1_555 1_555
C3A N2A 1_555 1_555
C4A C8A 1_555 1_555
C5A N1A 1_555 1_555
C6A C3A 1_555 1_555
C7A O2A 1_555 1_555
C8A O3A 1_555 1_555
C9A C7A 1_555 1_555
C10A O1A 1_555 1_555
C11A C11 1_555 1_555
C12A C10A 1_555 1_555
C13A O4A 1_555 1_555
C14A N5A 1_555 1_555
C15A N4A 1_555 1_555
C16A N3A 1_555 1_555
C17A C16A 1_555 1_555
C18A N6A 1_555 1_555
C19A C10A 1_555 1_555
C20A N7A 1_555 1_555
C21A C20A 1_555 1_555
C22A C23A 1_555 1_555
C23A N4A 1_555 1_555
C24A C13A 1_555 1_555
C25A N5A 1_555 1_555
C26A C7A 1_555 1_555
F1A C24A 1_555 1_555
F2A C4A 1_555 1_555
F3A C4A 1_555 1_555
F4A C26A 1_555 1_555
F5A C4A 1_555 1_555
F6A C24A 1_555 1_555
F7A C24A 1_555 1_555
F8A C26A 1_555 1_555
F9A C19A 1_555 1_555
F10A C26A 1_555 1_555
F11A C19A 1_555 1_555
F12A C19A 1_555 1_555
H1A C1A 1_555 1_555
H2A C3A 1_555 1_555
H3A C5A 1_555 1_555
H4A C6A 1_555 1_555
H5A C9A 1_555 1_555
H6A C12A 1_555 1_555
H7A C16A 1_555 1_555
H8A C17A 1_555 1_555
H9A C18A 1_555 1_555
H10A C20A 1_555 1_555
H11A C21A 1_555 1_555
H12A C22A 1_555 1_555
H13A C23A 1_555 1_555
H14A C25A 1_555 1_555
N8 C15 1_555 1_555
C5 C6 1_555 1_555
C8 C9 1_555 1_555
C14 C15 1_555 1_555
C17 C18 1_555 1_555
C21 C25 1_555 1_555
N1A C2A 1_555 1_555
N2A C2A 1_555 1_555
N3A C11A 1_555 1_555
N6A C11A 1_555 1_555
N8A C15A 1_555 1_555
C5A C6A 1_555 1_555
C8A C9A 1_555 1_555
C12A C13A 1_555 1_555
C14A C15A 1_555 1_555
C17A C18A 1_555 1_555
C21A C25A 1_555 1_555

#END
