
#######################################################################
#
#                 Cambridge Crystallographic Data Centre
#                                CCDC 
#
#######################################################################
#
# If this CIF has been generated from an entry in the Cambridge 
# Structural Database, then it will include bibliographic, chemical, 
# crystal, experimental, refinement or atomic coordinate data resulting 
# from the CCDC's data processing and validation procedures.
#
#######################################################################

data_NESNOQ
_symmetry_cell_setting           tetragonal
_symmetry_space_group_name_H-M   'I 41/a'
_symmetry_Int_Tables_number      88
_space_group_name_Hall           '-I 4ad'
loop_
_symmetry_equiv_pos_site_id
_symmetry_equiv_pos_as_xyz
1 x,y,z
2 3/4-y,1/4+x,1/4+z
3 1/2-x,-y,1/2+z
4 3/4+y,3/4-x,3/4+z
5 1/2+x,1/2+y,1/2+z
6 1/4-y,3/4+x,3/4+z
7 -x,1/2-y,z
8 1/4+y,1/4-x,1/4+z
9 -x,-y,-z
10 1/4+y,3/4-x,3/4-z
11 1/2+x,y,1/2-z
12 1/4-y,1/4+x,1/4-z
13 1/2-x,1/2-y,1/2-z
14 3/4+y,1/4-x,1/4-z
15 x,1/2+y,-z
16 3/4-y,3/4+x,3/4-z
_cell_length_a                   19.777(3)
_cell_length_b                   19.777(3)
_cell_length_c                   46.892(9)
_cell_angle_alpha                90
_cell_angle_beta                 90
_cell_angle_gamma                90
_cell_volume                     18340.9
loop_
_atom_site_label
_atom_site_type_symbol
_atom_site_fract_x
_atom_site_fract_y
_atom_site_fract_z
O2 O 0.3256(7) 0.8514(6) 0.5273(2)
O3 O 0.3297(7) 0.9538(8) 0.5659(3)
Zn1 Zn 0.5000 0.7500 0.55233(2)
Zn2 Zn 0.91007(5) 1.04442(4) 0.45479(2)
Zn3 Zn 0.10393(4) 0.94722(4) 0.695022(19)
O4 O 0.8467(4) 1.0020(3) 0.48029(15)
O5 O 0.9797(3) 1.0855(3) 0.47751(12)
O6 O 0.5700(3) 0.7849(3) 0.52683(11)
O7 O 1.1658(3) 1.2995(3) 0.56530(14)
O8 O 1.0526(3) 1.0992(3) 0.44177(12)
O9 O 1.2358(3) 1.3187(3) 0.52943(12)
O10 O 0.1434(3) 0.8824(3) 0.72073(12)
O11 O 0.6353(3) 0.8020(3) 0.56464(13)
O12 O 0.7829(4) 0.9809(4) 0.44214(17)
O13 O 0.1570(3) 0.8074(3) 0.68622(12)
N1 N 0.1792(3) 0.9800(3) 0.66901(13)
N2 N 0.3369(3) 1.2776(3) 0.57962(13)
N3 N 0.4717(3) 0.8302(3) 0.57670(13)
N4 N 0.6289(3) 1.1255(3) 0.67975(15)
N5 N 0.9431(3) 0.9728(3) 0.42683(13)
C1 C 0.4630(3) 1.0678(3) 0.62548(15)
H1 H 0.4768 1.0718 0.6055
C2 C 0.9912(3) 0.8051(4) 0.37254(16)
H2 H 0.9891 0.8187 0.3525
C3 C 0.3567(4) 1.0401(3) 0.62299(15)
H3 H 0.3477 1.0380 0.6025
C4 C 1.0703(4) 1.1588(4) 0.48547(17)
C5 C 0.4423(4) 0.9405(4) 0.61180(16)
C6 C 0.4241(3) 1.0002(3) 0.63008(15)
H4 H 0.4249 0.9875 0.6503
C7 C 1.1425(4) 1.2472(4) 0.52048(18)
C8 C 0.9781(4) 0.8648(4) 0.39116(15)
C9 C 0.6230(4) 0.8095(4) 0.53896(17)
C10 C 0.2095(4) 0.7875(4) 0.73118(16)
C11 C 0.5511(4) 1.0416(4) 0.66354(18)
H5 H 0.5353 0.9975 0.6650
C12 C 1.1827(4) 1.2914(4) 0.54009(19)
C13 C 0.7528(4) 0.9284(4) 0.4864(2)
C14 C 0.3953(3) 1.1065(3) 0.63023(16)
H6 H 0.3898 1.1173 0.6505
C15 C 0.2688(4) 1.0591(4) 0.66167(17)
H7 H 0.2899 1.0989 0.6673
C16 C 1.0003(4) 0.9400(4) 0.43025(18)
H8 H 1.0293 0.9540 0.4447
C17 C 0.1671(4) 0.8274(4) 0.71088(17)
C18 C 0.3773(4) 1.1663(4) 0.61252(15)
C19 C 0.5213(4) 1.0861(3) 0.64462(16)
C20 C 0.2950(4) 1.0211(3) 0.63913(15)
C21 C 0.7969(5) 0.9735(5) 0.4683(2)
C22 C 0.2114(4) 1.0372(4) 0.67560(15)
H9 H 0.1943 1.0637 0.6903
C23 C 0.6040(4) 1.0625(4) 0.6802(2)
H10 H 0.6237 1.0313 0.6925
C24 C 0.6690(4) 0.8491(4) 0.52026(16)
C25 C 1.0200(4) 0.8853(4) 0.41333(18)
H11 H 1.0605 0.8628 0.4169
C26 C 0.4167(4) 1.1912(4) 0.59061(16)
H12 H 0.4576 1.1704 0.5863
C27 C 0.3958(4) 1.2471(4) 0.57502(17)
H13 H 0.4241 1.2638 0.5608
C28 C 0.2593(4) 0.9631(4) 0.63157(17)
H14 H 0.2730 0.9378 0.6159
C29 C 0.9191(4) 0.9011(4) 0.38735(18)
H15 H 0.8902 0.8900 0.3724
C30 C 0.5995(4) 1.1677(4) 0.6610(2)
H16 H 0.6159 1.2117 0.6598
C31 C 0.2974(4) 1.2534(5) 0.60009(19)
H17 H 0.2554 1.2733 0.6029
C32 C 0.3162(5) 1.1988(4) 0.6177(2)
H18 H 0.2883 1.1848 0.6325
C33 C 0.9026(4) 0.9527(4) 0.40511(18)
H19 H 0.8619 0.9752 0.4023
C34 C 1.1589(5) 1.2411(5) 0.4924(2)
H20 H 1.1934 1.2675 0.4848
C35 C 0.4857(4) 0.9467(4) 0.58849(19)
H21 H 0.5063 0.9879 0.5844
C36 C 1.0529(5) 1.1673(6) 0.5134(2)
H22 H 1.0171 1.1426 0.5209
C37 C 0.2038(4) 0.9431(4) 0.64724(18)
H23 H 0.1825 0.9026 0.6426
C38 C 1.0325(4) 1.1115(4) 0.46660(18)
C39 C 0.4152(4) 0.8780(4) 0.61690(17)
H24 H 0.3865 0.8718 0.6324
C40 C 0.4302(4) 0.8239(4) 0.59915(16)
H25 H 0.4109 0.7820 0.6030
C41 C 0.4975(5) 0.8911(4) 0.5716(2)
H26 H 0.5251 0.8964 0.5557
C42 C 0.5476(4) 1.1501(4) 0.6439(2)
H27 H 0.5295 1.1818 0.6315
C43 C 0.7081(5) 0.8841(5) 0.47379(19)
H28 H 0.7060 0.8806 0.4540
C44 C 0.7560(5) 0.9330(5) 0.5158(2)
H29 H 0.7862 0.9628 0.5244
C45 C 0.7143(5) 0.8932(5) 0.5324(2)
H30 H 0.7169 0.8962 0.5521
C46 C 0.6663(4) 0.8449(5) 0.49084(19)
H31 H 0.6359 0.8153 0.4823
C47 C 1.1243(5) 1.1954(5) 0.47501(19)
H32 H 1.1379 1.1895 0.4562
C48 C 1.0878(5) 1.2121(6) 0.5307(2)
H33 H 1.0740 1.2185 0.5495
C49 C 0.2423(4) 0.8195(4) 0.75390(18)
C50 C 0.2176(5) 0.7187(4) 0.72726(18)
Zn1A Zn 1.0000 0.7500 0.80233(2)
Zn1C Zn 0.5000 1.2500 0.30233(2)
Zn1K Zn -0.5000 0.7500 0.69767(2)
Zn1A_2 Zn 0.0000 0.7500 0.80233(2)
Zn2F Zn 0.08993(5) 0.45558(4) 0.45479(2)
Zn2A Zn 0.70558(4) 1.16007(5) 0.70479(2)
Zn2G Zn 0.29442(4) 0.33993(5) 0.70479(2)
Zn2I Zn 1.29442(4) 0.83993(5) 0.29521(2)
Zn2F_2 Zn 1.08993(5) 0.45558(4) 0.45479(2)
Zn2O Zn 0.70558(4) 0.66007(5) 0.29521(2)
Zn2M Zn -0.20558(4) 1.33993(5) 0.79521(2)
Zn2N Zn -0.08993(5) 0.54442(4) 0.54521(2)
Zn3F Zn 0.89607(4) 0.55278(4) 0.695022(19)
Zn3K Zn 0.30278(4) 1.35393(4) 0.554978(19)
Zn3M Zn 0.69722(4) 0.14607(4) 0.554978(19)
Zn3K_2 Zn 1.30278(4) 1.35393(4) 0.554978(19)
Zn3L Zn 0.39607(4) 0.55278(4) 0.804978(19)
Zn3C Zn 0.69722(4) 1.64607(4) 0.445022(19)
Zn3N Zn 1.10393(4) 1.44722(4) 0.304978(19)
Zn3M_2 Zn -0.30278(4) 1.14607(4) 0.554978(19)
Zn3M_3 Zn -0.30278(4) 0.14607(4) 0.554978(19)
Zn3L_2 Zn 0.39607(4) 1.55278(4) 0.804978(19)
Zn3J Zn 0.60393(4) 0.94722(4) 0.804978(19)
O4F O 0.1533(4) 0.4980(3) 0.48029(15)
O4A O 0.7480(3) 1.0967(4) 0.73029(15)
O4G O 0.2520(3) 0.4033(4) 0.73029(15)
O5M O -0.1645(3) 1.2703(3) 0.77249(12)
O5F O 0.0203(3) 0.4145(3) 0.47751(12)
O5A O 0.6645(3) 1.2297(3) 0.72751(12)
O5G O 0.3355(3) 0.2703(3) 0.72751(12)
O6F O 0.4300(3) 0.7151(3) 0.52683(11)
O6A O 0.9651(3) 0.8200(3) 0.77683(11)
O6G O 0.0349(3) 0.6800(3) 0.77683(11)
O6G_2 O 1.0349(3) 0.6800(3) 0.77683(11)
O7M O 0.0495(3) 1.0842(3) 0.68470(14)
O7F O -0.1658(3) 0.2005(3) 0.56530(14)
O7A O 0.4505(3) 1.4158(3) 0.81530(14)
O8M O -0.1508(3) 1.1974(3) 0.80823(12)
O8F O -0.0526(3) 0.4008(3) 0.44177(12)
O8A O 0.6508(3) 1.3026(3) 0.69177(12)
O9M O 0.0687(3) 1.0142(3) 0.72057(12)
O9F O -0.2358(3) 0.1813(3) 0.52943(12)
O9A O 0.4313(3) 1.4858(3) 0.77943(12)
O9K O 0.9313(3) 0.4858(3) 0.72057(12)
O9_2 O 0.2358(3) 1.3187(3) 0.52943(12)
O9F_2 O 0.7642(3) 0.1813(3) 0.52943(12)
O10L O 0.3566(3) 0.6176(3) 0.77927(12)
O10F O 0.8566(3) 0.6176(3) 0.72073(12)
O10J O 0.6434(3) 0.8824(3) 0.77927(12)
O10K O 0.3676(3) 1.3934(3) 0.52927(12)
O10M O 0.6324(3) 0.1066(3) 0.52927(12)
O11F O 0.3647(3) 0.6980(3) 0.56464(13)
O11A O 0.9480(3) 0.8853(3) 0.81464(13)
O11G O 0.0520(3) 0.6147(3) 0.81464(13)
O12F O 0.2171(4) 0.5191(4) 0.44214(17)
O12A O 0.7691(4) 1.0329(4) 0.69214(17)
O12G O 0.2309(4) 0.4671(4) 0.69214(17)
O13L O 0.3430(3) 0.6926(3) 0.81378(12)
O13F O 0.8430(3) 0.6926(3) 0.68622(12)
O13J O 0.6570(3) 0.8074(3) 0.81378(12)
N1F N 0.8208(3) 0.5200(3) 0.66901(13)
N1C N 0.7300(3) 1.5708(3) 0.41901(13)
N1M N -0.2700(3) 1.0708(3) 0.58099(13)
N1K N 0.2700(3) 1.4292(3) 0.58099(13)
N1M_2 N 0.7300(3) 0.0708(3) 0.58099(13)
N2F N 0.6631(3) 0.2224(3) 0.57962(13)
N2C N 1.0276(3) 1.4131(3) 0.32962(13)
N2M N 0.0276(3) 0.9131(3) 0.67038(13)
N2K N 0.9724(3) 0.5869(3) 0.67038(13)
N3F N 0.5283(3) 0.6698(3) 0.57670(13)
N3C N 0.5802(3) 1.2783(3) 0.32670(13)
N3M N -0.4198(3) 0.7783(3) 0.67330(13)
N3A N 0.9198(3) 0.7217(3) 0.82670(13)
N3G N 1.0802(3) 0.7783(3) 0.82670(13)
N4F N 0.3711(3) 0.3745(3) 0.67975(15)
N4C N 0.8755(3) 1.1211(3) 0.42975(15)
N4M N -0.1245(3) 0.6211(3) 0.57025(15)
N4E N 0.1245(3) 0.3789(3) 0.42975(15)
N5I N 1.2228(3) 0.8069(3) 0.32317(13)
N5F N 1.0569(3) 0.5272(3) 0.42683(13)
N5O N 0.7772(3) 0.6931(3) 0.32317(13)
N5F_2 N 0.0569(3) 0.5272(3) 0.42683(13)
N5A N 0.7772(3) 1.1931(3) 0.67683(13)
N5G N 0.2228(3) 0.3069(3) 0.67683(13)
C1F C 0.5370(3) 0.4322(3) 0.62548(15)
C1C C 0.8178(3) 1.2870(3) 0.37548(15)
C1M C -0.1822(3) 0.7870(3) 0.62452(15)
H1F H 0.5232 0.4282 0.6055
H1C H 0.8218 1.2732 0.3555
H1M H -0.1782 0.7732 0.6445
C2O C 0.9449(4) 0.7412(3) 0.37746(16)
C2F C 1.0088(3) 0.6949(4) 0.37254(16)
C2I C 1.0551(4) 0.7588(3) 0.37746(16)
H2I H 1.0687 0.7609 0.3975
H2F H 1.0109 0.6813 0.3525
H2O H 0.9313 0.7391 0.3975
C3F C 0.6433(4) 0.4599(3) 0.62299(15)
C3C C 0.7901(3) 1.3933(4) 0.37299(15)
C3M C -0.2099(3) 0.8933(4) 0.62701(15)
H3F H 0.6523 0.4620 0.6025
H3C H 0.7880 1.4023 0.3525
H3M H -0.2120 0.9023 0.6475
C4M C -0.0912(4) 1.1797(4) 0.76453(17)
C4F C -0.0703(4) 0.3412(4) 0.48547(17)
C4A C 0.5912(4) 1.3203(4) 0.73547(17)
C5F C 0.5577(4) 0.5595(4) 0.61180(16)
C5C C 0.6905(4) 1.3077(4) 0.36180(16)
C5M C -0.3095(4) 0.8077(4) 0.63820(16)
C6F C 0.5759(3) 0.4998(3) 0.63008(15)
C6C C 0.7502(3) 1.3259(3) 0.38008(15)
C6M C -0.2498(3) 0.8259(3) 0.61992(15)
H4F H 0.5751 0.5125 0.6503
H4C H 0.7375 1.3251 0.4003
H4M H -0.2625 0.8251 0.5997
C7M C -0.0028(4) 1.1075(4) 0.72952(18)
C7F C -0.1425(4) 0.2528(4) 0.52048(18)
C7A C 0.5028(4) 1.3925(4) 0.77048(18)
C8I C 1.1148(4) 0.7719(4) 0.35884(15)
C8F C 1.0219(4) 0.6352(4) 0.39116(15)
C8O C 0.8852(4) 0.7281(4) 0.35884(15)
C9F C 0.3770(4) 0.6905(4) 0.53896(17)
C9A C 0.9405(4) 0.8730(4) 0.78896(17)
C9G C 0.0595(4) 0.6270(4) 0.78896(17)
C10L C 0.2905(4) 0.7125(4) 0.76882(16)
C10F C 0.7905(4) 0.7125(4) 0.73118(16)
C10J C 0.7095(4) 0.7875(4) 0.76882(16)
C11F C 0.4489(4) 0.4584(4) 0.66354(18)
C11C C 0.7916(4) 1.1989(4) 0.41354(18)
C11M C -0.2084(4) 0.6989(4) 0.58646(18)
H5F H 0.4647 0.5025 0.6650
H5C H 0.7475 1.2147 0.4150
H5M H -0.2525 0.7147 0.5850
C12M C 0.0414(4) 1.0673(4) 0.70991(19)
C12F C -0.1827(4) 0.2086(4) 0.54009(19)
C12A C 0.4586(4) 1.4327(4) 0.79009(19)
C13F C 0.2472(4) 0.5716(4) 0.4864(2)
C13A C 0.8216(4) 1.0028(4) 0.7364(2)
C13G C 0.1784(4) 0.4972(4) 0.7364(2)
C14F C 0.6047(3) 0.3935(3) 0.63023(16)
C14C C 0.8565(3) 1.3547(3) 0.38023(16)
C14M C -0.1435(3) 0.8547(3) 0.61977(16)
H6F H 0.6102 0.3827 0.6505
H6C H 0.8673 1.3602 0.4005
H6M H -0.1327 0.8602 0.5995
C15F C 0.7312(4) 0.4409(4) 0.66167(17)
C15C C 0.8091(4) 1.4812(4) 0.41167(17)
C15M C -0.1909(4) 0.9812(4) 0.58833(17)
H7F H 0.7101 0.4011 0.6673
H7C H 0.8489 1.4601 0.4173
H7M H -0.1511 0.9601 0.5827
C16I C 1.1900(4) 0.7497(4) 0.31975(18)
C16F C 0.9997(4) 0.5600(4) 0.43025(18)
C16O C 0.8100(4) 0.7503(4) 0.31975(18)
H8I H 1.2040 0.7207 0.3053
H8F H 0.9707 0.5460 0.4447
H8O H 0.7960 0.7793 0.3053
C17L C 0.3329(4) 0.6726(4) 0.78912(17)
C17F C 0.8329(4) 0.6726(4) 0.71088(17)
C17J C 0.6671(4) 0.8274(4) 0.78912(17)
C18F C 0.6227(4) 0.3337(4) 0.61252(15)
C18C C 0.9163(4) 1.3727(4) 0.36252(15)
C18M C -0.0837(4) 0.8727(4) 0.63748(15)
C19F C 0.4787(4) 0.4139(3) 0.64462(16)
C19C C 0.8361(3) 1.2287(4) 0.39462(16)
C19M C -0.1639(3) 0.7287(4) 0.60538(16)
C20F C 0.7050(4) 0.4789(3) 0.63913(15)
C20C C 0.7711(3) 1.4550(4) 0.38913(15)
C20M C -0.2289(3) 0.9550(4) 0.61087(15)
C21F C 0.2031(5) 0.5265(5) 0.4683(2)
C21A C 0.7765(5) 1.0469(5) 0.7183(2)
C21G C 0.2235(5) 0.4531(5) 0.7183(2)
C22F C 0.7886(4) 0.4628(4) 0.67560(15)
C22C C 0.7872(4) 1.5386(4) 0.42560(15)
C22M C -0.2128(4) 1.0386(4) 0.57440(15)
H9F H 0.8057 0.4363 0.6903
H9C H 0.8137 1.5557 0.4403
H9M H -0.1863 1.0557 0.5597
C23F C 0.3960(4) 0.4375(4) 0.6802(2)
C23C C 0.8125(4) 1.1460(4) 0.4302(2)
C23M C -0.1875(4) 0.6460(4) 0.5698(2)
H10F H 0.3763 0.4687 0.6925
H10C H 0.7813 1.1263 0.4425
H10M H -0.2187 0.6263 0.5575
C24F C 0.3310(4) 0.6509(4) 0.52026(16)
C24A C 0.9009(4) 0.9190(4) 0.77026(16)
C24G C 0.0991(4) 0.5810(4) 0.77026(16)
C25I C 1.1353(4) 0.7300(4) 0.33667(18)
C25F C 0.9800(4) 0.6147(4) 0.41333(18)
C25O C 0.8647(4) 0.7700(4) 0.33667(18)
H11I H 1.1128 0.6895 0.3331
H11F H 0.9395 0.6372 0.4169
H11O H 0.8872 0.8105 0.3331
C26F C 0.5833(4) 0.3088(4) 0.59061(16)
C26C C 0.9412(4) 1.3333(4) 0.34061(16)
C26M C -0.0588(4) 0.8333(4) 0.65939(16)
H12F H 0.5424 0.3296 0.5863
H12C H 0.9204 1.2924 0.3363
H12M H -0.0796 0.7924 0.6637
C27F C 0.6042(4) 0.2529(4) 0.57502(17)
C27C C 0.9971(4) 1.3542(4) 0.32502(17)
C27M C -0.0029(4) 0.8542(4) 0.67498(17)
H13F H 0.5759 0.2362 0.5608
H13C H 1.0138 1.3259 0.3108
H13M H 0.0138 0.8259 0.6892
C28F C 0.7407(4) 0.5369(4) 0.63157(17)
C28C C 0.7131(4) 1.4907(4) 0.38157(17)
C28M C -0.2869(4) 0.9907(4) 0.61843(17)
H14F H 0.7270 0.5622 0.6159
H14C H 0.6878 1.4770 0.3659
H14M H -0.3122 0.9770 0.6341
C29I C 1.1511(4) 0.8309(4) 0.36265(18)
C29F C 1.0809(4) 0.5989(4) 0.38735(18)
C29O C 0.8489(4) 0.6691(4) 0.36265(18)
H15I H 1.1400 0.8598 0.3776
H15F H 1.1098 0.6100 0.3724
H15O H 0.8600 0.6402 0.3776
C30F C 0.4005(4) 0.3323(4) 0.6610(2)
C30C C 0.9177(4) 1.1505(4) 0.4110(2)
C30M C -0.0823(4) 0.6505(4) 0.5890(2)
H16F H 0.3841 0.2883 0.6598
H16C H 0.9617 1.1341 0.4098
H16M H -0.0383 0.6341 0.5902
C31F C 0.7026(4) 0.2466(5) 0.60009(19)
C31C C 1.0034(5) 1.4526(4) 0.35009(19)
C31M C 0.0034(5) 0.9526(4) 0.64991(19)
H17F H 0.7446 0.2267 0.6029
H17C H 1.0233 1.4946 0.3529
H17M H 0.0233 0.9946 0.6471
C32F C 0.6838(5) 0.3012(4) 0.6177(2)
C32C C 0.9488(4) 1.4338(5) 0.3677(2)
C32M C -0.0512(4) 0.9338(5) 0.6323(2)
H18F H 0.7117 0.3152 0.6325
H18C H 0.9348 1.4617 0.3825
H18M H -0.0652 0.9617 0.6175
C33I C 1.2027(4) 0.8474(4) 0.34489(18)
C33F C 1.0974(4) 0.5473(4) 0.40511(18)
C33O C 0.7973(4) 0.6526(4) 0.34489(18)
H19I H 1.2252 0.8881 0.3477
H19F H 1.1381 0.5248 0.4023
H19O H 0.7748 0.6119 0.3477
C34M C -0.0089(5) 1.0911(5) 0.7576(2)
C34F C -0.1589(5) 0.2589(5) 0.4924(2)
C34A C 0.5089(5) 1.4089(5) 0.7424(2)
H20M H 0.0175 1.0566 0.7652
H20F H -0.1934 0.2325 0.4848
H20A H 0.4825 1.4434 0.7348
C35F C 0.5143(4) 0.5533(4) 0.58849(19)
C35C C 0.6967(4) 1.2643(4) 0.33849(19)
C35M C -0.3033(4) 0.7643(4) 0.66151(19)
H21F H 0.4937 0.5121 0.5844
H21C H 0.7379 1.2437 0.3344
H21M H -0.2621 0.7437 0.6656
C36M C -0.0827(6) 1.1971(5) 0.7366(2)
C36F C -0.0529(5) 0.3327(6) 0.5134(2)
C36A C 0.5827(6) 1.3029(5) 0.7634(2)
H22M H -0.1074 1.2329 0.7291
H22F H -0.0171 0.3574 0.5209
H22A H 0.6074 1.2671 0.7709
C37F C 0.7962(4) 0.5569(4) 0.64724(18)
C37C C 0.6931(4) 1.5462(4) 0.39724(18)
C37M C -0.3069(4) 1.0462(4) 0.60276(18)
H23F H 0.8175 0.5974 0.6426
H23C H 0.6526 1.5675 0.3926
H23M H -0.3474 1.0675 0.6074
C38M C -0.1385(4) 1.2175(4) 0.78340(18)
C38F C -0.0325(4) 0.3885(4) 0.46660(18)
C38A C 0.6385(4) 1.2825(4) 0.71660(18)
C39F C 0.5848(4) 0.6220(4) 0.61690(17)
C39C C 0.6280(4) 1.3348(4) 0.36690(17)
C39M C -0.3720(4) 0.8348(4) 0.63310(17)
H24F H 0.6135 0.6282 0.6324
H24C H 0.6218 1.3635 0.3824
H24M H -0.3782 0.8635 0.6176
C40F C 0.5698(4) 0.6761(4) 0.59915(16)
C40C C 0.5739(4) 1.3198(4) 0.34915(16)
C40M C -0.4261(4) 0.8198(4) 0.65085(16)
H25F H 0.5891 0.7180 0.6030
H25C H 0.5320 1.3391 0.3530
H25M H -0.4680 0.8391 0.6470
C41F C 0.5025(5) 0.6089(4) 0.5716(2)
C41C C 0.6411(4) 1.2525(5) 0.3216(2)
C41M C -0.3589(4) 0.7525(5) 0.6784(2)
H26F H 0.4749 0.6036 0.5557
H26C H 0.6464 1.2249 0.3057
H26M H -0.3536 0.7249 0.6943
C42F C 0.4524(4) 0.3499(4) 0.6439(2)
C42C C 0.9001(4) 1.2024(4) 0.3939(2)
C42M C -0.0999(4) 0.7024(4) 0.6061(2)
H27F H 0.4705 0.3182 0.6315
H27C H 0.9318 1.2205 0.3815
H27M H -0.0682 0.7205 0.6185
C43F C 0.2919(5) 0.6159(5) 0.47379(19)
C43A C 0.8659(5) 0.9581(5) 0.72379(19)
C43G C 0.1341(5) 0.5419(5) 0.72379(19)
H28F H 0.2940 0.6194 0.4540
H28A H 0.8694 0.9560 0.7040
H28G H 0.1306 0.5440 0.7040
C44F C 0.2440(5) 0.5670(5) 0.5158(2)
C44A C 0.8170(5) 1.0060(5) 0.7658(2)
C44G C 0.1830(5) 0.4940(5) 0.7658(2)
H29F H 0.2138 0.5372 0.5244
H29A H 0.7872 1.0362 0.7744
H29G H 0.2128 0.4638 0.7744
C45F C 0.2857(5) 0.6068(5) 0.5324(2)
C45A C 0.8568(5) 0.9643(5) 0.7824(2)
C45G C 0.1432(5) 0.5357(5) 0.7824(2)
H30F H 0.2831 0.6038 0.5521
H30A H 0.8538 0.9669 0.8021
H30G H 0.1462 0.5331 0.8021
C46F C 0.3337(4) 0.6551(5) 0.49084(19)
C46A C 0.9051(5) 0.9163(4) 0.74084(19)
C46G C 0.0949(5) 0.5837(4) 0.74084(19)
H31F H 0.3641 0.6847 0.4823
H31A H 0.9347 0.8859 0.7323
H31G H 0.0653 0.6141 0.7323
C47M C -0.0546(5) 1.1257(5) 0.77499(19)
C47F C -0.1243(5) 0.3046(5) 0.47501(19)
C47A C 0.5546(5) 1.3743(5) 0.72501(19)
H32M H -0.0605 1.1121 0.7938
H32F H -0.1379 0.3105 0.4562
H32A H 0.5605 1.3879 0.7062
C48M C -0.0379(6) 1.1622(5) 0.7193(2)
C48F C -0.0878(5) 0.2879(6) 0.5307(2)
C48A C 0.5379(6) 1.3378(5) 0.7807(2)
H33M H -0.0315 1.1760 0.7005
H33F H -0.0740 0.2815 0.5495
H33A H 0.5315 1.3240 0.7995
C49L C 0.2577(4) 0.6805(4) 0.74610(18)
C49F C 0.7577(4) 0.6805(4) 0.75390(18)
C49J C 0.7423(4) 0.8195(4) 0.74610(18)
C50L C 0.2824(5) 0.7813(4) 0.77274(18)
C50F C 0.7824(5) 0.7813(4) 0.72726(18)
C50J C 0.7176(5) 0.7187(4) 0.77274(18)
O1 O 0.5000 0.7500 0.7732(2)
loop_
_geom_bond_atom_site_label_1
_geom_bond_atom_site_label_2
_geom_bond_site_symmetry_1
_geom_bond_site_symmetry_2
Zn1 O6 1_555 1_555
Zn2 O4 1_555 1_555
Zn3 O10 1_555 1_555
O4 C21 1_555 1_555
O5 Zn2 1_555 1_555
O6 C9 1_555 1_555
O7 C12 1_555 1_555
O8 C38 1_555 1_555
O9 C12 1_555 1_555
O10 C17 1_555 1_555
O11 C9 1_555 1_555
O12 C21 1_555 1_555
O13 C17 1_555 1_555
N1 Zn3 1_555 1_555
N2 C27 1_555 1_555
N3 Zn1 1_555 1_555
N4 C23 1_555 1_555
N5 Zn2 1_555 1_555
C1 H1 1_555 1_555
C2 H2 1_555 1_555
C3 H3 1_555 1_555
C4 C36 1_555 1_555
C5 C6 1_555 1_555
C6 C1 1_555 1_555
H4 C6 1_555 1_555
C7 C12 1_555 1_555
C8 C2 1_555 1_555
C9 C24 1_555 1_555
C10 C17 1_555 1_555
C11 H5 1_555 1_555
C13 C21 1_555 1_555
C14 C1 1_555 1_555
H6 C14 1_555 1_555
C15 H7 1_555 1_555
C16 N5 1_555 1_555
H8 C16 1_555 1_555
C18 C14 1_555 1_555
C19 C1 1_555 1_555
C20 C3 1_555 1_555
C22 N1 1_555 1_555
H9 C22 1_555 1_555
C23 C11 1_555 1_555
H10 C23 1_555 1_555
C24 C45 1_555 1_555
C25 C8 1_555 1_555
H11 C25 1_555 1_555
C26 C18 1_555 1_555
H12 C26 1_555 1_555
C27 C26 1_555 1_555
H13 C27 1_555 1_555
C28 C20 1_555 1_555
H14 C28 1_555 1_555
C29 C8 1_555 1_555
H15 C29 1_555 1_555
C30 N4 1_555 1_555
H16 C30 1_555 1_555
C31 N2 1_555 1_555
H17 C31 1_555 1_555
C32 C18 1_555 1_555
H18 C32 1_555 1_555
C33 N5 1_555 1_555
H19 C33 1_555 1_555
C34 C7 1_555 1_555
H20 C34 1_555 1_555
C35 C5 1_555 1_555
H21 C35 1_555 1_555
C36 H22 1_555 1_555
C37 N1 1_555 1_555
H23 C37 1_555 1_555
C38 O5 1_555 1_555
C39 C5 1_555 1_555
H24 C39 1_555 1_555
C40 N3 1_555 1_555
H25 C40 1_555 1_555
C41 N3 1_555 1_555
H26 C41 1_555 1_555
C42 C19 1_555 1_555
H27 C42 1_555 1_555
C43 C13 1_555 1_555
H28 C43 1_555 1_555
C44 C13 1_555 1_555
H29 C44 1_555 1_555
C45 C44 1_555 1_555
H30 C45 1_555 1_555
C46 C24 1_555 1_555
H31 C46 1_555 1_555
C47 C4 1_555 1_555
H32 C47 1_555 1_555
C48 C7 1_555 1_555
H33 C48 1_555 1_555
C49 C10 1_555 1_555
C50 C10 1_555 1_555
Zn1A O6A 1_555 1_555
Zn1C N3C 1_555 1_555
Zn1K N3M 1_555 1_555
Zn1A_2 O6G 1_555 1_555
Zn2F O4F 1_555 1_555
Zn2A N4 1_555 1_555
Zn2G O4G 1_555 1_555
Zn2I N5I 1_555 1_555
Zn2F_2 N5F 1_555 1_555
Zn2O N5O 1_555 1_555
Zn2M O5M 1_555 1_555
Zn2N N4M 1_555 1_555
Zn3F O9K 1_555 1_555
Zn3K N2 1_555 1_555
Zn3M O9F_2 1_555 1_555
Zn3K_2 O9 1_555 1_555
Zn3L O10L 1_555 1_555
Zn3C N1C 1_555 1_555
Zn3N N2C 1_555 1_555
Zn3M_2 N1M 1_555 1_555
Zn3M_3 O9F 1_555 1_555
Zn3L_2 O9A 1_555 1_555
Zn3J O10J 1_555 1_555
O4F C21F 1_555 1_555
O4A Zn2A 1_555 1_555
O4G C21G 1_555 1_555
O5M C38M 1_555 1_555
O5F Zn2F 1_555 1_555
O5A Zn2A 1_555 1_555
O5G Zn2G 1_555 1_555
O6F Zn1 1_555 1_555
O6A C9A 1_555 1_555
O6G C9G 1_555 1_555
O6G_2 Zn1A 1_555 1_555
O7M C12M 1_555 1_555
O7F C12F 1_555 1_555
O7A C12A 1_555 1_555
O8M C38M 1_555 1_555
O8F C38F 1_555 1_555
O8A C38A 1_555 1_555
O9M Zn3 1_555 1_555
O9F C12F 1_555 1_555
O9A C12A 1_555 1_555
O9_2 Zn3K 1_555 1_555
O10L C17L 1_555 1_555
O10F Zn3F 1_555 1_555
O10J C17J 1_555 1_555
O10K Zn3K 1_555 1_555
O10M Zn3M 1_555 1_555
O11F C9F 1_555 1_555
O11A C9A 1_555 1_555
O11G C9G 1_555 1_555
O12F C21F 1_555 1_555
O12A C21A 1_555 1_555
O12G C21G 1_555 1_555
O13L C17L 1_555 1_555
O13F C17F 1_555 1_555
O13J C17J 1_555 1_555
N1F Zn3F 1_555 1_555
N1C C22C 1_555 1_555
N1M C22M 1_555 1_555
N1K Zn3K 1_555 1_555
N1M_2 Zn3M 1_555 1_555
N2F Zn3M 1_555 1_555
N2C C27C 1_555 1_555
N2M Zn3 1_555 1_555
N2K Zn3F 1_555 1_555
N3F Zn1 1_555 1_555
N3C C40C 1_555 1_555
N3M C40M 1_555 1_555
N3A Zn1A 1_555 1_555
N3G Zn1A 1_555 1_555
N4F Zn2G 1_555 1_555
N4C Zn2 1_555 1_555
N4M C23M 1_555 1_555
N4E Zn2F 1_555 1_555
N5I C16I 1_555 1_555
N5F C16F 1_555 1_555
N5O C16O 1_555 1_555
N5F_2 Zn2F 1_555 1_555
N5A Zn2A 1_555 1_555
N5G Zn2G 1_555 1_555
C1F H1F 1_555 1_555
C1C H1C 1_555 1_555
C1M H1M 1_555 1_555
C2O C2 1_555 1_555
C2F C2O 1_555 1_555
C2I C2 1_555 1_555
H2I C2I 1_555 1_555
H2F C2F 1_555 1_555
H2O C2O 1_555 1_555
C3F H3F 1_555 1_555
C3C H3C 1_555 1_555
C3M H3M 1_555 1_555
C4M C36M 1_555 1_555
C4F C36F 1_555 1_555
C4A C36A 1_555 1_555
C5F C6F 1_555 1_555
C5C C6C 1_555 1_555
C5M C6M 1_555 1_555
C6F C1F 1_555 1_555
C6C C1C 1_555 1_555
C6M C1M 1_555 1_555
H4F C6F 1_555 1_555
H4C C6C 1_555 1_555
H4M C6M 1_555 1_555
C7M C12M 1_555 1_555
C7F C12F 1_555 1_555
C7A C12A 1_555 1_555
C8I C2I 1_555 1_555
C8F C2F 1_555 1_555
C8O C2O 1_555 1_555
C9F O6F 1_555 1_555
C9A C24A 1_555 1_555
C9G C24G 1_555 1_555
C10L C17L 1_555 1_555
C10F C17F 1_555 1_555
C10J C17J 1_555 1_555
C11F H5F 1_555 1_555
C11C H5C 1_555 1_555
C11M H5M 1_555 1_555
C12M O9M 1_555 1_555
C13F C21F 1_555 1_555
C13A C21A 1_555 1_555
C13G C21G 1_555 1_555
C14F C1F 1_555 1_555
C14C C1C 1_555 1_555
C14M C1M 1_555 1_555
H6F C14F 1_555 1_555
H6C C14C 1_555 1_555
H6M C14M 1_555 1_555
C15F H7F 1_555 1_555
C15C H7C 1_555 1_555
C15M H7M 1_555 1_555
C16I H8I 1_555 1_555
C16F H8F 1_555 1_555
C16O H8O 1_555 1_555
C17F O10F 1_555 1_555
C18F C14F 1_555 1_555
C18C C14C 1_555 1_555
C18M C14M 1_555 1_555
C19F C1F 1_555 1_555
C19C C1C 1_555 1_555
C19M C1M 1_555 1_555
C20F C3F 1_555 1_555
C20C C3C 1_555 1_555
C20M C3M 1_555 1_555
C21A O4A 1_555 1_555
C22F N1F 1_555 1_555
C22C C15C 1_555 1_555
C22M C15M 1_555 1_555
H9F C22F 1_555 1_555
H9C C22C 1_555 1_555
H9M C22M 1_555 1_555
C23F N4F 1_555 1_555
C23C N4C 1_555 1_555
C23M C11M 1_555 1_555
H10F C23F 1_555 1_555
H10C C23C 1_555 1_555
H10M C23M 1_555 1_555
C24F C9F 1_555 1_555
C24A C45A 1_555 1_555
C24G C45G 1_555 1_555
C25I C8I 1_555 1_555
C25F C8F 1_555 1_555
C25O C8O 1_555 1_555
H11I C25I 1_555 1_555
H11F C25F 1_555 1_555
H11O C25O 1_555 1_555
C26F C18F 1_555 1_555
C26C C18C 1_555 1_555
C26M C18M 1_555 1_555
H12F C26F 1_555 1_555
H12C C26C 1_555 1_555
H12M C26M 1_555 1_555
C27F N2F 1_555 1_555
C27C C26C 1_555 1_555
C27M N2M 1_555 1_555
H13F C27F 1_555 1_555
H13C C27C 1_555 1_555
H13M C27M 1_555 1_555
C28F C20F 1_555 1_555
C28C C20C 1_555 1_555
C28M C20M 1_555 1_555
H14F C28F 1_555 1_555
H14C C28C 1_555 1_555
H14M C28M 1_555 1_555
C29I C8I 1_555 1_555
C29F C8F 1_555 1_555
C29O C8O 1_555 1_555
H15I C29I 1_555 1_555
H15F C29F 1_555 1_555
H15O C29O 1_555 1_555
C30F N4F 1_555 1_555
C30C N4C 1_555 1_555
C30M N4M 1_555 1_555
H16F C30F 1_555 1_555
H16C C30C 1_555 1_555
H16M C30M 1_555 1_555
C31F N2F 1_555 1_555
C31C N2C 1_555 1_555
C31M N2M 1_555 1_555
H17F C31F 1_555 1_555
H17C C31C 1_555 1_555
H17M C31M 1_555 1_555
C32F C18F 1_555 1_555
C32C C18C 1_555 1_555
C32M C18M 1_555 1_555
H18F C32F 1_555 1_555
H18C C32C 1_555 1_555
H18M C32M 1_555 1_555
C33I N5I 1_555 1_555
C33F N5F 1_555 1_555
C33O N5O 1_555 1_555
H19I C33I 1_555 1_555
H19F C33F 1_555 1_555
H19O C33O 1_555 1_555
C34M C7M 1_555 1_555
C34F C7F 1_555 1_555
C34A C7A 1_555 1_555
H20M C34M 1_555 1_555
H20F C34F 1_555 1_555
H20A C34A 1_555 1_555
C35F C5F 1_555 1_555
C35C C5C 1_555 1_555
C35M C5M 1_555 1_555
H21F C35F 1_555 1_555
H21C C35C 1_555 1_555
H21M C35M 1_555 1_555
C36M H22M 1_555 1_555
C36F H22F 1_555 1_555
C36A H22A 1_555 1_555
C37F N1F 1_555 1_555
C37C N1C 1_555 1_555
C37M N1M 1_555 1_555
H23F C37F 1_555 1_555
H23C C37C 1_555 1_555
H23M C37M 1_555 1_555
C38M C4M 1_555 1_555
C38F O5F 1_555 1_555
C38A O5A 1_555 1_555
C39F C5F 1_555 1_555
C39C C5C 1_555 1_555
C39M C5M 1_555 1_555
H24F C39F 1_555 1_555
H24C C39C 1_555 1_555
H24M C39M 1_555 1_555
C40F N3F 1_555 1_555
C40C C39C 1_555 1_555
C40M C39M 1_555 1_555
H25F C40F 1_555 1_555
H25C C40C 1_555 1_555
H25M C40M 1_555 1_555
C41F N3F 1_555 1_555
C41C N3C 1_555 1_555
C41M N3M 1_555 1_555
H26F C41F 1_555 1_555
H26C C41C 1_555 1_555
H26M C41M 1_555 1_555
C42F C19F 1_555 1_555
C42C C19C 1_555 1_555
C42M C19M 1_555 1_555
H27F C42F 1_555 1_555
H27C C42C 1_555 1_555
H27M C42M 1_555 1_555
C43F C13F 1_555 1_555
C43A C13A 1_555 1_555
C43G C13G 1_555 1_555
H28F C43F 1_555 1_555
H28A C43A 1_555 1_555
H28G C43G 1_555 1_555
C44F C13F 1_555 1_555
C44A C13A 1_555 1_555
C44G C13G 1_555 1_555
H29F C44F 1_555 1_555
H29A C44A 1_555 1_555
H29G C44G 1_555 1_555
C45F C24F 1_555 1_555
C45A C44A 1_555 1_555
C45G C44G 1_555 1_555
H30F C45F 1_555 1_555
H30A C45A 1_555 1_555
H30G C45G 1_555 1_555
C46F C24F 1_555 1_555
C46A C24A 1_555 1_555
C46G C24G 1_555 1_555
H31F C46F 1_555 1_555
H31A C46A 1_555 1_555
H31G C46G 1_555 1_555
C47M C4M 1_555 1_555
C47F C4F 1_555 1_555
C47A C4A 1_555 1_555
H32M C47M 1_555 1_555
H32F C47F 1_555 1_555
H32A C47A 1_555 1_555
C48M C7M 1_555 1_555
C48F C7F 1_555 1_555
C48A C7A 1_555 1_555
H33M C48M 1_555 1_555
H33F C48F 1_555 1_555
H33A C48A 1_555 1_555
C49L C50 1_555 1_555
C49F C10F 1_555 1_555
C49J C10J 1_555 1_555
C50L C49 1_555 1_555
C50F C10F 1_555 1_555
C50J C10J 1_555 1_555
C3 C6 1_555 1_555
C3 C14 1_555 1_555
C4 C38 1_555 1_555
C11 C19 1_555 1_555
C15 C20 1_555 1_555
C15 C22 1_555 1_555
C16 C25 1_555 1_555
C28 C37 1_555 1_555
C29 C33 1_555 1_555
C30 C42 1_555 1_555
C31 C32 1_555 1_555
C34 C47 1_555 1_555
C35 C41 1_555 1_555
C36 C48 1_555 1_555
C39 C40 1_555 1_555
C43 C46 1_555 1_555
C2F C2I 1_555 1_555
C3F C6F 1_555 1_555
C3F C14F 1_555 1_555
C3C C6C 1_555 1_555
C3C C14C 1_555 1_555
C3M C6M 1_555 1_555
C3M C14M 1_555 1_555
C4F C38F 1_555 1_555
C4A C38A 1_555 1_555
C10L C49L 1_555 1_555
C10L C50L 1_555 1_555
C11F C19F 1_555 1_555
C11F C23F 1_555 1_555
C11C C19C 1_555 1_555
C11C C23C 1_555 1_555
C11M C19M 1_555 1_555
C15F C20F 1_555 1_555
C15F C22F 1_555 1_555
C15C C20C 1_555 1_555
C15M C20M 1_555 1_555
C16I C25I 1_555 1_555
C16F C25F 1_555 1_555
C16O C25O 1_555 1_555
C26F C27F 1_555 1_555
C26M C27M 1_555 1_555
C28F C37F 1_555 1_555
C28C C37C 1_555 1_555
C28M C37M 1_555 1_555
C29I C33I 1_555 1_555
C29F C33F 1_555 1_555
C29O C33O 1_555 1_555
C30F C42F 1_555 1_555
C30C C42C 1_555 1_555
C30M C42M 1_555 1_555
C31F C32F 1_555 1_555
C31C C32C 1_555 1_555
C31M C32M 1_555 1_555
C34M C47M 1_555 1_555
C34F C47F 1_555 1_555
C34A C47A 1_555 1_555
C35F C41F 1_555 1_555
C35C C41C 1_555 1_555
C35M C41M 1_555 1_555
C36M C48M 1_555 1_555
C36F C48F 1_555 1_555
C36A C48A 1_555 1_555
C39F C40F 1_555 1_555
C43F C46F 1_555 1_555
C43A C46A 1_555 1_555
C43G C46G 1_555 1_555
C44F C45F 1_555 1_555
C49F C50J 1_555 1_555
C49J C50F 1_555 1_555

#END
