
#######################################################################
#
#                 Cambridge Crystallographic Data Centre
#                                CCDC 
#
#######################################################################
#
# If this CIF has been generated from an entry in the Cambridge 
# Structural Database, then it will include bibliographic, chemical, 
# crystal, experimental, refinement or atomic coordinate data resulting 
# from the CCDC's data processing and validation procedures.
#
#######################################################################

data_NESPAC
_symmetry_cell_setting           triclinic
_symmetry_space_group_name_H-M   'P -1'
_symmetry_Int_Tables_number      2
_space_group_name_Hall           '-P 1'
loop_
_symmetry_equiv_pos_site_id
_symmetry_equiv_pos_as_xyz
1 x,y,z
2 -x,-y,-z
_cell_length_a                   8.1225(10)
_cell_length_b                   8.9171(11)
_cell_length_c                   9.3516(12)
_cell_angle_alpha                117.063(2)
_cell_angle_beta                 91.017(2)
_cell_angle_gamma                103.174(2)
_cell_volume                     581.503
loop_
_atom_site_label
_atom_site_type_symbol
_atom_site_fract_x
_atom_site_fract_y
_atom_site_fract_z
Cu1 Cu -0.82223(10) -0.38654(11) 0.68475(9)
Br1 Br -1.06577(7) -0.29780(7) 0.61177(6)
N1 N -0.7606(5) -0.4246(6) 1.1820(5)
Br2 Br -0.55129(7) -0.25460(8) 0.62303(6)
Cu2 Cu -1.25096(10) -0.55044(10) 0.61735(8)
C1 C -0.8022(6) -0.2917(7) 1.1788(6)
C2 C -0.8172(6) -0.2799(7) 1.0306(6)
N2 N -0.7923(5) -0.4009(6) 0.8930(5)
C3 C -0.7433(6) -0.5385(7) 0.8945(6)
C4 C -0.6988(7) -0.6649(7) 0.7535(6)
H1 H -0.7054 -0.6571 0.6567
C5 C -0.6460(7) -0.7984(7) 0.7563(6)
H2 H -0.6189 -0.8829 0.6609
C6 C -0.6317(7) -0.8113(7) 0.9003(7)
H3 H -0.5961 -0.9045 0.9004
C7 C -0.6697(7) -0.6880(7) 1.0405(6)
H4 H -0.6578 -0.6952 1.1372
C8 C -0.7269(6) -0.5497(7) 1.0394(6)
C9 C -0.8318(8) -0.1484(8) 1.3340(6)
H5 H -0.8257 -0.1800 1.4200
H6 H -0.9437 -0.1319 1.3195
H7 H -0.7449 -0.0408 1.3626
C10 C -0.8590(8) -0.1217(8) 1.0353(7)
H8 H -0.8714 -0.1357 0.9262
H9 H -0.7676 -0.0184 1.1028
H10 H -0.9650 -0.1092 1.0798
Br1A Br -0.93423(7) -0.70220(7) 0.38823(6)
Cu1A Cu -1.17777(10) -0.61346(11) 0.31525(9)
Cu2A Cu -0.74904(10) -0.44956(10) 1.38265(8)
Cu2A_2 Cu -0.74904(10) -0.44956(10) 0.38265(8)
N1A N -1.2394(5) -0.5754(6) 0.8180(5)
Br2A Br -1.44871(7) -0.74540(8) 0.37697(6)
loop_
_geom_bond_atom_site_label_1
_geom_bond_atom_site_label_2
_geom_bond_site_symmetry_1
_geom_bond_site_symmetry_2
Cu1 Br1 1_555 1_555
Br1 Cu2 1_555 1_555
N1 C1 1_555 1_555
Br2 Cu1 1_555 1_555
Cu2 N1A 1_555 1_555
C1 C2 1_555 1_555
C2 N2 1_555 1_555
N2 Cu1 1_555 1_555
C3 N2 1_555 1_555
C4 C3 1_555 1_555
H1 C4 1_555 1_555
C5 C4 1_555 1_555
H2 C5 1_555 1_555
C6 C5 1_555 1_555
H3 C6 1_555 1_555
C7 C6 1_555 1_555
H4 C7 1_555 1_555
C8 N1 1_555 1_555
C9 C1 1_555 1_555
H5 C9 1_555 1_555
H6 C9 1_555 1_555
H7 C9 1_555 1_555
C10 C2 1_555 1_555
H8 C10 1_555 1_555
H9 C10 1_555 1_555
H10 C10 1_555 1_555
Br1A Cu1 1_555 1_555
Cu1A Br1 1_555 1_555
Cu2A N1 1_555 1_555
Cu2A_2 Br2 1_555 1_555
Br2A Cu2 1_555 1_555
C3 C8 1_555 1_555
C7 C8 1_555 1_555
Br1A Cu1A 1_555 1_555
Br1A Cu2A_2 1_555 1_555
Cu1A Br2A 1_555 1_555

#END
