
#######################################################################
#
#                 Cambridge Crystallographic Data Centre
#                                CCDC 
#
#######################################################################
#
# If this CIF has been generated from an entry in the Cambridge 
# Structural Database, then it will include bibliographic, chemical, 
# crystal, experimental, refinement or atomic coordinate data resulting 
# from the CCDC's data processing and validation procedures.
#
#######################################################################

data_NESPAE
_symmetry_cell_setting           monoclinic
_symmetry_space_group_name_H-M   'P 2/c'
_symmetry_Int_Tables_number      13
_space_group_name_Hall           '-P 2yc'
loop_
_symmetry_equiv_pos_site_id
_symmetry_equiv_pos_as_xyz
1 x,y,z
2 -x,y,1/2-z
3 -x,-y,-z
4 x,-y,1/2+z
_cell_length_a                   11.398(2)
_cell_length_b                   7.0474(14)
_cell_length_c                   25.640(7)
_cell_angle_alpha                90
_cell_angle_beta                 107.84(3)
_cell_angle_gamma                90
_cell_volume                     1960.53
loop_
_atom_site_label
_atom_site_type_symbol
_atom_site_fract_x
_atom_site_fract_y
_atom_site_fract_z
Zn1 Zn 1.0000 0.92916(13) 0.2500
Zn2 Zn 0.5000 0.0000 0.0000
O1 O 0.9492(4) 0.7895(6) 0.18218(18)
O2 O 1.1446(4) 0.7101(8) 0.1947(2)
O3 O 0.6723(4) 0.1394(6) 0.02558(17)
O4 O 0.6228(4) 0.4110(6) 0.05927(19)
N1 N 0.8613(4) 1.1107(7) 0.2462(2)
N2 N 0.5204(5) 1.9219(7) 0.0826(2)
C1 C 0.5508(5) 1.6585(8) 0.2365(2)
H1 H 0.6311 1.6861 0.2641
C2 C 0.5336(5) 1.4375(8) 0.2282(2)
H2 H 0.4738 1.4112 0.1918
C3 C 0.5405(5) 1.7653(8) 0.1845(2)
C4 C 0.6982(6) 0.2990(9) 0.0487(2)
C5 C 0.9909(5) 0.5545(9) 0.1241(3)
C6 C 0.8302(5) 0.3598(9) 0.0663(2)
C7 C 0.6443(5) 1.3201(8) 0.2356(2)
C8 C 0.6415(5) 1.7904(8) 0.1676(2)
H3 H 0.7197 1.7545 0.1906
C9 C 1.0337(6) 0.6944(9) 0.1704(3)
C10 C 0.6296(6) 1.8681(9) 0.1169(3)
H4 H 0.7006 1.8839 0.1061
C11 C 0.7975(7) 1.1958(9) 0.1992(3)
H5 H 0.8277 1.1835 0.1691
C12 C 0.6922(6) 1.2985(9) 0.1917(3)
H6 H 0.6523 1.3542 0.1576
C13 C 0.7113(7) 1.2355(10) 0.2842(3)
H7 H 0.6850 1.2487 0.3153
C14 C 0.4217(5) 1.9029(10) 0.0997(2)
H8 H 0.3444 1.9425 0.0767
C15 C 0.8162(6) 1.1319(10) 0.2878(3)
H9 H 0.8576 1.0734 0.3213
C16 C 1.0726(6) 0.4701(10) 0.1003(3)
H10 H 1.1556 0.5081 0.1124
C17 C 0.9140(6) 0.2770(9) 0.0442(3)
H11 H 0.8876 0.1806 0.0179
C18 C 0.8689(6) 0.5033(8) 0.1054(3)
H12 H 0.8112 0.5651 0.1190
C19 C 0.4297(6) 1.8278(10) 0.1498(3)
H13 H 0.3583 1.8186 0.1606
C20 C 1.0380(7) 0.3345(10) 0.0604(3)
C21 C 1.1283(8) 0.2460(13) 0.0352(4)
H14 H 1.2090 0.3025 0.0512
H15 H 1.1010 0.2681 -0.0040
H16 H 1.1331 0.1106 0.0423
O5 O 0.4071(4) 0.2572(6) 0.01206(18)
Zn1_2 Zn 0.0000 0.92916(13) 0.2500
Zn2_2 Zn 0.5000 2.0000 0.0000
Zn2A Zn 0.5000 2.0000 0.5000
Zn2A_2 Zn 1.5000 0.0000 0.5000
O1A O 1.0508(4) 0.7895(6) 0.31782(18)
O2A O 0.8554(4) 0.7101(8) 0.3053(2)
O3A O 1.3277(4) 0.1394(6) 0.47442(17)
O3B O 0.3277(4) -0.1394(6) -0.02558(17)
O4A O 1.3772(4) 0.4110(6) 0.44073(19)
N1A N 0.1387(4) 1.1107(7) 0.2538(2)
N1A_2 N 1.1387(4) 1.1107(7) 0.2538(2)
N2A N 0.4796(5) 1.9219(7) 0.4174(2)
N2_2 N 0.5204(5) -0.0781(7) 0.0826(2)
N2B N 0.4796(5) 0.0781(7) -0.0826(2)
C1A C 0.4492(5) 1.6585(8) 0.2635(2)
H1A H 0.3689 1.6861 0.2359
C2A C 0.4664(5) 1.4375(8) 0.2718(2)
H2A H 0.5262 1.4112 0.3082
C3A C 0.4595(5) 1.7653(8) 0.3155(2)
C4A C 1.3018(6) 0.2990(9) 0.4513(2)
C5A C 1.0091(5) 0.5545(9) 0.3759(3)
C6A C 1.1698(5) 0.3598(9) 0.4337(2)
C7A C 0.3557(5) 1.3201(8) 0.2644(2)
C8A C 0.3585(5) 1.7904(8) 0.3324(2)
H3A H 0.2803 1.7545 0.3094
C9A C 0.9663(6) 0.6944(9) 0.3296(3)
C10A C 0.3704(6) 1.8681(9) 0.3831(3)
H4A H 0.2994 1.8839 0.3939
C11A C 0.2025(7) 1.1958(9) 0.3008(3)
H5A H 0.1723 1.1835 0.3309
C12A C 0.3078(6) 1.2985(9) 0.3083(3)
H6A H 0.3477 1.3542 0.3424
C13A C 0.2887(7) 1.2355(10) 0.2158(3)
H7A H 0.3150 1.2487 0.1847
C14A C 0.5783(5) 1.9029(10) 0.4003(2)
H8A H 0.6556 1.9425 0.4233
C15A C 0.1838(6) 1.1319(10) 0.2122(3)
H9A H 0.1424 1.0734 0.1787
C16A C 0.9274(6) 0.4701(10) 0.3997(3)
H10A H 0.8444 0.5081 0.3876
C17A C 1.0860(6) 0.2770(9) 0.4558(3)
H11A H 1.1124 0.1806 0.4821
C18A C 1.1311(6) 0.5033(8) 0.3946(3)
H12A H 1.1888 0.5651 0.3810
C19A C 0.5703(6) 1.8278(10) 0.3502(3)
H13A H 0.6417 1.8186 0.3394
C20A C 0.9620(7) 0.3345(10) 0.4396(3)
C21A C 0.8717(8) 0.2460(13) 0.4648(4)
H14A H 0.7910 0.3025 0.4488
H15A H 0.8990 0.2681 0.5040
H16A H 0.8669 0.1106 0.4577
O5B O 0.5929(4) -0.2572(6) -0.01206(18)
loop_
_geom_bond_atom_site_label_1
_geom_bond_atom_site_label_2
_geom_bond_site_symmetry_1
_geom_bond_site_symmetry_2
Zn1 O1 1_555 1_555
Zn2 O3 1_555 1_555
O1 C9 1_555 1_555
O2 C9 1_555 1_555
O3 C4 1_555 1_555
O4 C4 1_555 1_555
N1 Zn1 1_555 1_555
N2 C10 1_555 1_555
C1 H1 1_555 1_555
C2 C1 1_555 1_555
H2 C2 1_555 1_555
C3 C1 1_555 1_555
C4 C6 1_555 1_555
C5 C9 1_555 1_555
C6 C17 1_555 1_555
C7 C2 1_555 1_555
C8 C3 1_555 1_555
H3 C8 1_555 1_555
C10 C8 1_555 1_555
H4 C10 1_555 1_555
C11 N1 1_555 1_555
H5 C11 1_555 1_555
C12 C7 1_555 1_555
H6 C12 1_555 1_555
C13 C7 1_555 1_555
H7 C13 1_555 1_555
C14 N2 1_555 1_555
H8 C14 1_555 1_555
C15 N1 1_555 1_555
H9 C15 1_555 1_555
C16 C5 1_555 1_555
H10 C16 1_555 1_555
C17 H11 1_555 1_555
C18 C5 1_555 1_555
H12 C18 1_555 1_555
C19 C3 1_555 1_555
H13 C19 1_555 1_555
C20 C16 1_555 1_555
C21 C20 1_555 1_555
H14 C21 1_555 1_555
H15 C21 1_555 1_555
H16 C21 1_555 1_555
O5 Zn2 1_555 1_555
Zn1_2 N1A 1_555 1_555
Zn2_2 N2 1_555 1_555
Zn2A N2A 1_555 1_555
Zn2A_2 O3A 1_555 1_555
O1A Zn1 1_555 1_555
O2A C9A 1_555 1_555
O3A C4A 1_555 1_555
O3B Zn2 1_555 1_555
O4A C4A 1_555 1_555
N1A C11A 1_555 1_555
N1A_2 Zn1 1_555 1_555
N2A C10A 1_555 1_555
N2_2 Zn2 1_555 1_555
N2B Zn2 1_555 1_555
C1A C1 1_555 1_555
H1A C1A 1_555 1_555
C2A C2 1_555 1_555
H2A C2A 1_555 1_555
C3A C1A 1_555 1_555
C4A C6A 1_555 1_555
C5A C9A 1_555 1_555
C6A C17A 1_555 1_555
C7A C2A 1_555 1_555
C8A C3A 1_555 1_555
H3A C8A 1_555 1_555
C9A O1A 1_555 1_555
C10A C8A 1_555 1_555
H4A C10A 1_555 1_555
C11A H5A 1_555 1_555
C12A C7A 1_555 1_555
H6A C12A 1_555 1_555
C13A C7A 1_555 1_555
H7A C13A 1_555 1_555
C14A N2A 1_555 1_555
H8A C14A 1_555 1_555
C15A N1A 1_555 1_555
H9A C15A 1_555 1_555
C16A C5A 1_555 1_555
H10A C16A 1_555 1_555
C17A H11A 1_555 1_555
C18A C5A 1_555 1_555
H12A C18A 1_555 1_555
C19A C3A 1_555 1_555
H13A C19A 1_555 1_555
C20A C16A 1_555 1_555
C21A C20A 1_555 1_555
H14A C21A 1_555 1_555
H15A C21A 1_555 1_555
H16A C21A 1_555 1_555
O5B Zn2 1_555 1_555
C6 C18 1_555 1_555
C11 C12 1_555 1_555
C13 C15 1_555 1_555
C14 C19 1_555 1_555
C17 C20 1_555 1_555
C1A C2A 1_555 1_555
C6A C18A 1_555 1_555
C11A C12A 1_555 1_555
C13A C15A 1_555 1_555
C14A C19A 1_555 1_555
C17A C20A 1_555 1_555

#END
