
#######################################################################
#
#                 Cambridge Crystallographic Data Centre
#                                CCDC 
#
#######################################################################
#
# If this CIF has been generated from an entry in the Cambridge 
# Structural Database, then it will include bibliographic, chemical, 
# crystal, experimental, refinement or atomic coordinate data resulting 
# from the CCDC's data processing and validation procedures.
#
#######################################################################

data_NESPIM
_symmetry_cell_setting           monoclinic
_symmetry_space_group_name_H-M   'C 2/c'
_symmetry_Int_Tables_number      15
_space_group_name_Hall           '-C 2yn'
loop_
_symmetry_equiv_pos_site_id
_symmetry_equiv_pos_as_xyz
1 x,y,z
2 -x,y,1/2-z
3 1/2+x,1/2+y,z
4 1/2-x,1/2+y,1/2-z
5 -x,-y,-z
6 x,-y,1/2+z
7 1/2-x,1/2-y,-z
8 1/2+x,1/2-y,1/2+z
_cell_length_a                   30.900(6)
_cell_length_b                   7.6409(15)
_cell_length_c                   16.156(3)
_cell_angle_alpha                90
_cell_angle_beta                 103.35(3)
_cell_angle_gamma                90
_cell_volume                     3711.42
loop_
_atom_site_label
_atom_site_type_symbol
_atom_site_fract_x
_atom_site_fract_y
_atom_site_fract_z
Zn1 Zn -0.18168(4) 1.23390(13) -0.24144(6)
O1 O -0.1836(2) 1.2224(8) -0.1223(4)
O2 O -0.2085(3) 0.9481(8) -0.1224(4)
O3 O -0.1885(2) 1.5124(8) 0.2397(4)
O4 O -0.1725(3) 1.6106(10) 0.1233(5)
N1 N -0.1272(3) 1.0872(11) -0.2457(6)
N2 N -0.2363(3) 0.8803(9) 0.1785(5)
H1 H -0.2514 0.7990 0.1430
H2 H -0.2545 0.9245 0.2093
C1 C -0.0142(8) 0.7451(17) -0.2195(12)
H3 H 0.0028 0.7635 -0.1609
C2 C -0.0545(5) 0.8639(17) -0.2429(19)
C3 C -0.2177(3) 0.9881(12) 0.0476(5)
H4 H -0.2257 0.8804 0.0218
C4 C -0.2013(3) 1.1210(11) 0.0039(5)
C5 C -0.1894(3) 1.2799(11) 0.0420(6)
H5 H -0.1786 1.3677 0.0124
C6 C -0.1970(3) 1.0913(13) -0.0862(6)
C7 C -0.2218(3) 1.0193(11) 0.1295(5)
C8 C -0.1935(3) 1.3106(12) 0.1257(6)
C9 C -0.1830(4) 1.4880(13) 0.1647(6)
C10 C -0.2090(3) 1.1747(12) 0.1697(5)
H6 H -0.2105 1.1902 0.2261
C11 C -0.1107(4) 1.0599(16) -0.3138(9)
H7 H -0.1233 1.1196 -0.3638
C12 C -0.1074(5) 1.003(2) -0.1753(10)
H8 H -0.1166 1.0215 -0.1251
C13 C -0.0216(4) 0.5433(15) -0.2424(10)
H9 H -0.0454 0.5195 -0.2928
C14 C -0.0765(5) 0.949(2) -0.3133(11)
H10 H -0.0677 0.9303 -0.3639
C15 C -0.0721(6) 0.886(2) -0.1769(18)
H11 H -0.0607 0.8207 -0.1282
N3 N -0.0291(14) 0.223(3) -0.0157(16)
C16 C 0.0084(7) 0.312(2) -0.1238(11)
H12 H 0.0321 0.3043 -0.1502
C17 C -0.0234(7) 0.424(3) -0.1607(10)
C18 C -0.0625(9) 0.436(3) -0.1214(17)
H13 H -0.0864 0.5084 -0.1440
C19 C 0.0123(19) 0.209(5) -0.0563(18)
H14 H 0.0366 0.1371 -0.0355
C20 C -0.0620(11) 0.331(4) -0.0483(16)
H15 H -0.0858 0.3398 -0.0222
Zn1E Zn -0.18168(4) 0.76610(13) -0.74144(6)
Zn1E_2 Zn -0.18168(4) 1.76610(13) 0.25856(6)
Zn1E_3 Zn -0.18168(4) 0.76610(13) 0.25856(6)
Zn1A Zn 0.18168(4) 1.23390(13) -0.25856(6)
Zn1_2 Zn -0.18168(4) 0.23390(13) -0.24144(6)
O1E O -0.1836(2) 0.7776(8) -0.6223(4)
O2E O -0.2085(3) 1.0519(8) -0.6224(4)
O3E O -0.1885(2) 0.4876(8) -0.2603(4)
O3E_2 O -0.1885(2) 1.4876(8) -0.2603(4)
O3_2 O -0.1885(2) 0.5124(8) -0.7603(4)
O4E O -0.1725(3) 0.3894(10) -0.3767(5)
N1A N 0.1272(3) 1.0872(11) -0.2543(6)
N1E N -0.1272(3) 0.9128(11) -0.7457(6)
N2E N -0.2363(3) 1.1197(9) -0.3215(5)
N2_2 N -0.2363(3) 0.8803(9) -0.8215(5)
H1E H -0.2514 1.2010 -0.3570
H1_2 H -0.2514 0.7990 -0.8570
H2E H -0.2545 1.0755 -0.2907
H2_2 H -0.2545 0.9245 -0.7907
C1A C 0.0142(8) 0.7451(17) -0.2805(12)
H3A H -0.0028 0.7635 -0.3391
C2A C 0.0545(5) 0.8639(17) -0.2571(19)
C3E C -0.2177(3) 1.0119(12) -0.4524(5)
H4E H -0.2257 1.1196 -0.4782
C4E C -0.2013(3) 0.8790(11) -0.4961(5)
C5E C -0.1894(3) 0.7201(11) -0.4580(6)
H5E H -0.1786 0.6323 -0.4876
C6E C -0.1970(3) 0.9087(13) -0.5862(6)
C7E C -0.2218(3) 0.9807(11) -0.3705(5)
C8E C -0.1935(3) 0.6894(12) -0.3743(6)
C9E C -0.1830(4) 0.5120(13) -0.3353(6)
C10E C -0.2090(3) 0.8253(12) -0.3303(5)
H6E H -0.2105 0.8098 -0.2739
C11A C 0.1107(4) 1.0599(16) -0.1862(9)
H7A H 0.1233 1.1196 -0.1362
C12A C 0.1074(5) 1.003(2) -0.3247(10)
H8A H 0.1166 1.0215 -0.3749
C13A C 0.0216(4) 0.5433(15) -0.2576(10)
H9A H 0.0454 0.5195 -0.2072
C14A C 0.0765(5) 0.949(2) -0.1867(11)
H10A H 0.0677 0.9303 -0.1361
C15A C 0.0721(6) 0.886(2) -0.3231(18)
H11A H 0.0607 0.8207 -0.3718
N3A N 0.0291(14) 0.223(3) -0.4843(16)
C16A C -0.0084(7) 0.312(2) -0.3762(11)
H12A H -0.0321 0.3043 -0.3498
C17A C 0.0234(7) 0.424(3) -0.3393(10)
C18A C 0.0625(9) 0.436(3) -0.3786(17)
H13A H 0.0864 0.5084 -0.3560
C19A C -0.0123(19) 0.209(5) -0.4437(18)
H14A H -0.0366 0.1371 -0.4645
C20A C 0.0620(11) 0.331(4) -0.4517(16)
H15A H 0.0858 0.3398 -0.4778
O5 O 0.1317(15) 0.286(3) 0.017(2)
H16 H 0.1230 0.3773 0.0389
H17 H 0.1489 0.3252 -0.0141
loop_
_geom_bond_atom_site_label_1
_geom_bond_atom_site_label_2
_geom_bond_site_symmetry_1
_geom_bond_site_symmetry_2
Zn1 O1 1_555 1_555
O1 C6 1_555 1_555
O2 C6 1_555 1_555
O3 C9 1_555 1_555
O4 C9 1_555 1_555
N1 Zn1 1_555 1_555
N2 H1 1_555 1_555
H2 N2 1_555 1_555
C1 H3 1_555 1_555
C2 C1 1_555 1_555
C3 H4 1_555 1_555
C4 C3 1_555 1_555
C5 C4 1_555 1_555
H5 C5 1_555 1_555
C6 C4 1_555 1_555
C7 N2 1_555 1_555
C8 C5 1_555 1_555
C9 C8 1_555 1_555
C10 C7 1_555 1_555
H6 C10 1_555 1_555
C11 N1 1_555 1_555
H7 C11 1_555 1_555
C12 N1 1_555 1_555
H8 C12 1_555 1_555
C13 C1 1_555 1_555
H9 C13 1_555 1_555
C14 C2 1_555 1_555
H10 C14 1_555 1_555
C15 C2 1_555 1_555
H11 C15 1_555 1_555
O5 H16 1_555 1_555
N3 C19 1_555 1_555
C16 H12 1_555 1_555
C17 C13 1_555 1_555
C18 C17 1_555 1_555
H13 C18 1_555 1_555
C19 C16 1_555 1_555
H14 C19 1_555 1_555
C20 N3 1_555 1_555
H15 C20 1_555 1_555
H17 O5 1_555 1_555
Zn1E O1E 1_555 1_555
Zn1E_2 O3 1_555 1_555
Zn1E_3 N2 1_555 1_555
Zn1A N1A 1_555 1_555
Zn1_2 O3E 1_555 1_555
O1E C6E 1_555 1_555
O2E C6E 1_555 1_555
O3E C9E 1_555 1_555
O3E_2 Zn1 1_555 1_555
O3_2 Zn1E 1_555 1_555
O4E C9E 1_555 1_555
N1A C11A 1_555 1_555
N1E Zn1E 1_555 1_555
N2E Zn1 1_555 1_555
N2_2 Zn1E 1_555 1_555
H1E N2E 1_555 1_555
H1_2 N2_2 1_555 1_555
H2E N2E 1_555 1_555
H2_2 N2_2 1_555 1_555
C1A C1 1_555 1_555
H3A C1A 1_555 1_555
C2A C1A 1_555 1_555
C3E H4E 1_555 1_555
C4E C3E 1_555 1_555
C5E C4E 1_555 1_555
H5E C5E 1_555 1_555
C6E C4E 1_555 1_555
C7E N2E 1_555 1_555
C8E C5E 1_555 1_555
C9E C8E 1_555 1_555
C10E C7E 1_555 1_555
H6E C10E 1_555 1_555
C11A H7A 1_555 1_555
C12A N1A 1_555 1_555
H8A C12A 1_555 1_555
C13A C13 1_555 1_555
H9A C13A 1_555 1_555
C14A C2A 1_555 1_555
H10A C14A 1_555 1_555
C15A C2A 1_555 1_555
H11A C15A 1_555 1_555
N3A C19A 1_555 1_555
C16A H12A 1_555 1_555
C17A C13A 1_555 1_555
C18A C17A 1_555 1_555
H13A C18A 1_555 1_555
C19A C16A 1_555 1_555
H14A C19A 1_555 1_555
C20A N3A 1_555 1_555
H15A C20A 1_555 1_555
C3 C7 1_555 1_555
C8 C10 1_555 1_555
C11 C14 1_555 1_555
C12 C15 1_555 1_555
C16 C17 1_555 1_555
C18 C20 1_555 1_555
C1A C13A 1_555 1_555
C3E C7E 1_555 1_555
C8E C10E 1_555 1_555
C11A C14A 1_555 1_555
C12A C15A 1_555 1_555
C16A C17A 1_555 1_555
C18A C20A 1_555 1_555

#END
