
#######################################################################
#
#                 Cambridge Crystallographic Data Centre
#                                CCDC 
#
#######################################################################
#
# If this CIF has been generated from an entry in the Cambridge 
# Structural Database, then it will include bibliographic, chemical, 
# crystal, experimental, refinement or atomic coordinate data resulting 
# from the CCDC's data processing and validation procedures.
#
#######################################################################

data_NESQOT
_symmetry_cell_setting           monoclinic
_symmetry_space_group_name_H-M   'P 21/c'
_symmetry_Int_Tables_number      14
_space_group_name_Hall           '-P 2ybc'
loop_
_symmetry_equiv_pos_site_id
_symmetry_equiv_pos_as_xyz
1 x,y,z
2 -x,1/2+y,1/2-z
3 -x,-y,-z
4 x,1/2-y,1/2+z
_cell_length_a                   10.9501(4)
_cell_length_b                   20.6804(9)
_cell_length_c                   21.8474(9)
_cell_angle_alpha                90
_cell_angle_beta                 94.217(2)
_cell_angle_gamma                90
_cell_volume                     4934
loop_
_atom_site_label
_atom_site_type_symbol
_atom_site_fract_x
_atom_site_fract_y
_atom_site_fract_z
C1 C 1.4371(4) 0.2453(2) -0.26717(19)
C2 C 0.6861(4) 0.2475(2) -0.6479(2)
C3 C 0.6668(5) -0.0555(2) -0.2638(2)
H1 H 0.6616 -0.1004 -0.2648
C4 C 0.6690(5) 0.0444(2) -0.2093(2)
H2 H 0.6657 0.0661 -0.1722
C5 C 0.6804(4) 0.2440(2) -0.3832(2)
C6 C 1.3013(4) 0.2485(2) -0.2630(2)
C7 C 0.6829(4) 0.0466(2) -0.3136(2)
H3 H 0.6897 0.0701 -0.3495
C8 C 1.0462(4) 0.2514(2) -0.2584(2)
C9 C 0.9086(4) 0.2512(2) -0.2602(2)
C10 C 1.2293(4) 0.2770(2) -0.3091(2)
H4 H 1.2649 0.2955 -0.3423
C11 C 0.6779(4) -0.0199(2) -0.3175(2)
C12 C 0.7582(4) 0.2961(2) -0.4786(2)
C13 C 0.6398(5) -0.0755(2) -0.5067(2)
H5 H 0.6322 -0.0320 -0.4969
C14 C 0.6638(5) -0.0220(2) -0.2096(2)
H6 H 0.6583 -0.0444 -0.1729
C15 C 0.6478(5) -0.1211(2) -0.4601(2)
C16 C 0.7557(4) 0.2985(2) -0.5442(2)
C17 C 0.6527(5) 0.1934(2) -0.4853(2)
H7 H 0.6206 0.1577 -0.4662
C18 C 0.6536(5) 0.1946(2) -0.5501(2)
H8 H 0.6229 0.1596 -0.5731
C19 C 0.6679(6) 0.0535(3) -0.8269(2)
H9 H 0.6780 0.0782 -0.8617
C20 C 0.6985(4) 0.2442(2) -0.45036(19)
C21 C 1.1191(4) 0.2247(2) -0.2078(2)
C22 C 1.2491(4) 0.2228(2) -0.2105(2)
C23 C 0.8151(5) 0.3511(2) -0.5713(2)
H10 H 0.8131 0.3539 -0.6139
C24 C 0.6428(5) -0.0934(2) -0.5677(2)
C25 C 1.2713(5) 0.1751(3) -0.1082(2)
H11 H 1.3205 0.1584 -0.0754
C26 C 0.6606(7) -0.0125(3) -0.8323(3)
H12 H 0.6659 -0.0322 -0.8703
C27 C 1.0688(5) 0.2016(3) -0.1533(2)
H13 H 0.9847 0.2032 -0.1501
C28 C 1.3231(4) 0.1981(2) -0.1592(2)
H14 H 1.4078 0.1976 -0.1604
C29 C 1.1014(4) 0.2783(2) -0.3065(2)
H15 H 1.0533 0.2979 -0.3381
C30 C 0.6992(4) 0.2467(2) -0.57906(19)
C31 C 0.6384(4) -0.0189(2) -0.7255(2)
C32 C 1.1440(5) 0.1770(3) -0.1057(3)
H16 H 1.1094 0.1613 -0.0710
C33 C 0.6451(4) 0.0479(2) -0.7224(2)
H17 H 0.6387 0.0687 -0.6850
C34 C 0.8243(5) 0.3447(3) -0.4442(2)
H18 H 0.8286 0.3430 -0.4016
C35 C 0.6594(6) -0.1858(3) -0.4756(2)
H19 H 0.6631 -0.2171 -0.4450
C36 C 0.6411(5) -0.1059(2) -0.3938(2)
C37 C 0.6568(5) -0.1581(2) -0.5821(2)
H20 H 0.6602 -0.1705 -0.6229
C38 C 0.6657(7) -0.2042(3) -0.5365(3)
H21 H 0.6758 -0.2475 -0.5463
C39 C 0.8750(6) 0.3978(3) -0.5365(3)
H22 H 0.9116 0.4323 -0.5554
C40 C 0.6453(6) -0.0492(2) -0.7810(2)
H23 H 0.6397 -0.0940 -0.7838
C41 C 0.6396(5) -0.0404(2) -0.6139(2)
C42 C 0.8812(6) 0.3935(3) -0.4721(3)
H24 H 0.9247 0.4244 -0.4485
N1 N 0.6786(3) 0.07919(18) -0.26037(17)
N2 N 0.6834(4) -0.04702(19) -0.37561(18)
N3 N 0.6247(4) -0.05864(19) -0.67399(18)
N4 N 0.6609(3) 0.08299(17) -0.77313(16)
O1 O 0.6532(3) 0.29664(16) -0.35896(14)
O2 O 0.6899(3) 0.19043(16) -0.35478(14)
O3 O 0.7039(3) 0.19491(16) -0.67507(14)
O4 O 0.6569(3) 0.30020(16) -0.67419(14)
O5 O 0.8562(3) 0.30337(17) -0.27521(16)
O6 O 0.8568(3) 0.19947(17) -0.24823(17)
O7 O 1.4942(3) 0.29767(15) -0.26343(15)
O8 O 1.4838(3) 0.18999(15) -0.27531(14)
O9 O 0.5984(5) -0.1443(2) -0.35896(18)
O10 O 0.6504(6) 0.01581(19) -0.59846(17)
Zn1 Zn 0.67359(4) 0.17713(2) -0.26359(2)
Zn2 Zn 0.67409(4) 0.31949(2) -0.26709(2)
H40 H 0.723(3) -0.0220(17) -0.4011(15)
H41 H 0.607(5) -0.0994(11) -0.686(2)
N4C N 0.6609(3) 0.41701(17) -0.27313(16)
O3C O 0.7039(3) 0.30509(16) -0.17507(14)
O4C O 0.6569(3) 0.19980(16) -0.17419(14)
O7_2 O 0.4942(3) 0.29767(15) -0.26343(15)
O8_2 O 0.4838(3) 0.18999(15) -0.27531(14)
Zn1C Zn 0.67359(4) 0.32287(2) -0.76359(2)
Zn1_2 Zn 1.67359(4) 0.17713(2) -0.26359(2)
Zn2C Zn 0.67409(4) 0.18051(2) -0.76709(2)
Zn2_2 Zn 1.67409(4) 0.31949(2) -0.26709(2)
C43 C 0.8626(8) 0.4368(4) 0.0157(4)
H25 H 0.8323 0.4557 -0.0210
C44 C 0.9886(10) 0.3563(6) 0.0653(6)
H26 H 1.0570 0.3804 0.0833
H27 H 1.0153 0.3138 0.0546
H28 H 0.9270 0.3528 0.0942
C45 C 0.9733(10) 0.3638(6) -0.0467(5)
H29 H 0.9312 0.3874 -0.0797
H30 H 0.9517 0.3189 -0.0500
H31 H 1.0601 0.3685 -0.0489
N5 N 0.9386(4) 0.3888(2) 0.0112(2)
O11 O 0.8275(5) 0.4594(3) 0.0618(2)
C46 C -0.0060(15) 0.5429(9) 0.3059(10)
H32 H -0.0061 0.5878 0.3039
C47 C 0.0192(17) 0.5433(9) 0.1958(9)
H33 H -0.0429 0.5296 0.1652
H34 H 0.0985 0.5354 0.1813
H35 H 0.0100 0.5886 0.2035
C48 C 0.0206(13) 0.4398(7) 0.2491(7)
H36 H -0.0470 0.4226 0.2238
H37 H 0.0234 0.4199 0.2888
H38 H 0.0956 0.4312 0.2304
N6 N 0.0064(4) 0.5052(2) 0.2553(2)
O12 O -0.0171(10) 0.5136(6) 0.3546(4)
O14 O 0.802(2) -0.1132(14) -0.0688(12)
C49? C 0.4451(13) -0.0414(7) 0.0151(7)
C50? C 0.6306(15) -0.0120(8) -0.0231(8)
C51? C 0.5576(15) -0.1198(8) -0.0542(8)
H39? H 0.4958 -0.1500 -0.0629
N7? N 0.5468(4) -0.0558(2) -0.0168(2)
O13? O 0.660(2) -0.1227(17) -0.0695(16)
C52? C -0.012(2) 0.4707(14) 0.3106(14)
C53? C 0.009(2) 0.4513(13) 0.2061(12)
C54? C 0.003(2) 0.5632(13) 0.2344(14)
H42? H -0.0200 0.4261 0.3146
H43? H -0.0400 0.4643 0.1699
H44? H -0.0241 0.4121 0.2219
H45? H 0.0915 0.4440 0.1962
H46? H -0.0093 0.5928 0.2672
H47? H -0.0630 0.5673 0.2033
H48? H 0.0791 0.5730 0.2171
loop_
_geom_bond_atom_site_label_1
_geom_bond_atom_site_label_2
_geom_bond_site_symmetry_1
_geom_bond_site_symmetry_2
C1 C6 1_555 1_555
C2 C30 1_555 1_555
C3 H1 1_555 1_555
C4 H2 1_555 1_555
C5 C20 1_555 1_555
C6 C10 1_555 1_555
C7 H3 1_555 1_555
C8 C9 1_555 1_555
C9 O5 1_555 1_555
C10 H4 1_555 1_555
C11 C3 1_555 1_555
C12 C16 1_555 1_555
C13 H5 1_555 1_555
C14 C3 1_555 1_555
H6 C14 1_555 1_555
C15 C13 1_555 1_555
C16 C23 1_555 1_555
C17 H7 1_555 1_555
C18 C17 1_555 1_555
H8 C18 1_555 1_555
C19 H9 1_555 1_555
C20 C12 1_555 1_555
C21 C8 1_555 1_555
C22 C6 1_555 1_555
C23 H10 1_555 1_555
C24 C13 1_555 1_555
C25 H11 1_555 1_555
C26 C19 1_555 1_555
H12 C26 1_555 1_555
C27 C21 1_555 1_555
H13 C27 1_555 1_555
C28 C22 1_555 1_555
H14 C28 1_555 1_555
C29 C8 1_555 1_555
H15 C29 1_555 1_555
C30 C16 1_555 1_555
C31 C33 1_555 1_555
C32 C25 1_555 1_555
H16 C32 1_555 1_555
C33 H17 1_555 1_555
C34 C12 1_555 1_555
H18 C34 1_555 1_555
C35 C15 1_555 1_555
H19 C35 1_555 1_555
C36 C15 1_555 1_555
C37 C24 1_555 1_555
H20 C37 1_555 1_555
C38 C35 1_555 1_555
H21 C38 1_555 1_555
C39 C23 1_555 1_555
H22 C39 1_555 1_555
C40 C26 1_555 1_555
H23 C40 1_555 1_555
C41 C24 1_555 1_555
C42 C34 1_555 1_555
H24 C42 1_555 1_555
C43 H25 1_555 1_555
C44 H26 1_555 1_555
H27 C44 1_555 1_555
H28 C44 1_555 1_555
C45 H29 1_555 1_555
H30 C45 1_555 1_555
H31 C45 1_555 1_555
C46 H32 1_555 1_555
C47 H33 1_555 1_555
H34 C47 1_555 1_555
H35 C47 1_555 1_555
C48 H36 1_555 1_555
H37 C48 1_555 1_555
H38 C48 1_555 1_555
N1 C4 1_555 1_555
N2 C11 1_555 1_555
N3 C31 1_555 1_555
N4 C19 1_555 1_555
N5 C43 1_555 1_555
N6 C46 1_555 1_555
O1 C5 1_555 1_555
O2 C5 1_555 1_555
O3 C2 1_555 1_555
O4 C2 1_555 1_555
O5 Zn2 1_555 1_555
O6 C9 1_555 1_555
O7 C1 1_555 1_555
O8 C1 1_555 1_555
O9 C36 1_555 1_555
O10 C41 1_555 1_555
O11 C43 1_555 1_555
O12 C46 1_555 1_555
Zn1 N1 1_555 1_555
Zn2 O1 1_555 1_555
H40 N2 1_555 1_555
H41 N3 1_555 1_555
N4C Zn2 1_555 1_555
O3C Zn2 1_555 1_555
O4C Zn1 1_555 1_555
O7_2 Zn2 1_555 1_555
O8_2 Zn1 1_555 1_555
Zn1C O4 1_555 1_555
Zn1_2 O8 1_555 1_555
Zn2C N4 1_555 1_555
Zn2_2 O7 1_555 1_555
C4 C14 1_555 1_555
C7 C11 1_555 1_555
C7 N1 1_555 1_555
C10 C29 1_555 1_555
C17 C20 1_555 1_555
C18 C30 1_555 1_555
C21 C22 1_555 1_555
C25 C28 1_555 1_555
C27 C32 1_555 1_555
C31 C40 1_555 1_555
C33 N4 1_555 1_555
C36 N2 1_555 1_555
C37 C38 1_555 1_555
C39 C42 1_555 1_555
C41 N3 1_555 1_555
C44 N5 1_555 1_555
C45 N5 1_555 1_555
C47 N6 1_555 1_555
C48 N6 1_555 1_555
O2 Zn1 1_555 1_555
O3 Zn2C 1_555 1_555
O6 Zn1 1_555 1_555

#END
