
#######################################################################
#
#                 Cambridge Crystallographic Data Centre
#                                CCDC 
#
#######################################################################
#
# If this CIF has been generated from an entry in the Cambridge 
# Structural Database, then it will include bibliographic, chemical, 
# crystal, experimental, refinement or atomic coordinate data resulting 
# from the CCDC's data processing and validation procedures.
#
#######################################################################

data_NESQUZ
_symmetry_cell_setting           triclinic
_symmetry_space_group_name_H-M   'P -1'
_symmetry_Int_Tables_number      2
_space_group_name_Hall           '-P 1'
loop_
_symmetry_equiv_pos_site_id
_symmetry_equiv_pos_as_xyz
1 x,y,z
2 -x,-y,-z
_cell_length_a                   10.1561(6)
_cell_length_b                   10.2773(6)
_cell_length_c                   14.4890(9)
_cell_angle_alpha                85.432(4)
_cell_angle_beta                 72.012(3)
_cell_angle_gamma                83.560(3)
_cell_volume                     1427.7
loop_
_atom_site_label
_atom_site_type_symbol
_atom_site_fract_x
_atom_site_fract_y
_atom_site_fract_z
C1 C 1.4896(3) -0.6288(3) 0.6209(2)
C2 C 1.4186(3) -0.2603(3) 0.6415(2)
C3 C 0.6642(3) 0.3092(3) 0.8238(2)
C4 C 0.6326(3) 0.6641(3) 0.8920(2)
C5 C 0.6836(3) 0.9290(3) 1.1269(2)
H1 H 0.6233 0.8715 1.1665
C6 C 0.6929(3) 0.5396(3) 0.8622(2)
H2 H 0.7877 0.5184 0.8513
C7 C 0.4695(3) 0.4819(3) 0.8631(2)
H3 H 0.4139 0.4203 0.8554
C8 C 1.4191(3) -0.5046(3) 0.6381(2)
H4 H 1.3224 -0.4949 0.6590
C9 C 0.8601(3) 0.1639(3) 0.7317(2)
C10 C 0.4927(3) 0.6969(3) 0.9035(2)
H5 H 0.4529 0.7807 0.9213
C11 C 1.6331(3) -0.6415(3) 0.5882(2)
H6 H 1.6804 -0.7242 0.5754
C12 C 0.8017(3) 1.0113(3) 0.9687(2)
H7 H 0.8239 1.0115 0.9014
C13 C 0.8218(3) 1.0956(3) 1.1109(3)
H8 H 0.8595 1.1540 1.1392
C14 C 1.6376(3) -0.4104(3) 0.5927(2)
H9 H 1.6875 -0.3376 0.5841
C15 C 0.9986(3) 0.1340(3) 0.7244(2)
H10 H 1.0427 0.1921 0.7483
C16 C 0.7194(3) 0.7574(3) 0.9139(2)
C17 C 0.6111(3) 0.4475(3) 0.8487(2)
C18 C 1.7074(3) -0.5332(3) 0.5741(3)
H11 H 1.8040 -0.5430 0.5522
C19 C 0.4120(3) 0.6063(4) 0.8885(3)
H12 H 0.3183 0.6294 0.8957
C20 C 1.0068(3) -0.0579(4) 0.6534(3)
H13 H 1.0571 -0.1335 0.6251
C21 C 0.7923(3) 0.0751(3) 0.7004(3)
H14 H 0.6984 0.0911 0.7057
C22 C 1.4932(3) -0.3949(3) 0.6241(2)
C23 C 1.4089(3) -0.7475(3) 0.6400(2)
C24 C 0.7142(3) 0.9241(3) 1.0273(2)
C25 C 0.8682(4) -0.0376(4) 0.6610(3)
H15 H 0.8257 -0.0996 0.6397
C26 C 0.8555(3) 1.0982(3) 1.0120(3)
H16 H 0.9144 1.1582 0.9741
Cd1 Cd 1.30811(2) -0.00064(2) 0.663095(16)
H17 H 1.3757 -0.0469 0.4682
H18 H 1.3659 0.0757 0.4670
N1 N 1.0723(2) 0.0256(3) 0.68478(19)
N2 N 0.7963(2) 0.2872(3) 0.76804(19)
H19 H 0.8461 0.3526 0.7532
N3 N 0.6525(3) 0.8323(3) 0.99074(19)
H20 H 0.5660 0.8230 1.0191
N4 N 0.7364(2) 1.0121(2) 1.16859(19)
O1 O 1.3210(2) 0.0139(2) 0.49882(16)
O2 O 1.4905(2) -0.1643(2) 0.62674(18)
O3 O 1.2893(2) -0.2445(2) 0.67023(19)
O4 O 1.4772(2) -0.8590(2) 0.62989(17)
O5 O 1.2794(2) -0.7353(2) 0.6667(2)
O6 O 0.5886(2) 0.2196(2) 0.85328(17)
O7 O 0.8415(2) 0.7662(3) 0.8678(2)
Cd1A Cd 0.69189(2) 1.00064(2) 1.336905(16)
Cd1_2 Cd 1.30811(2) -1.00064(2) 0.663095(16)
N4A N 1.2636(2) -0.0121(2) 0.83141(19)
O4_2 O 1.4772(2) 0.1410(2) 0.62989(17)
O8 O 0.0237(4) 0.4369(4) 0.6558(3)
O9 O 0.0741(4) 0.6191(4) 0.7692(4)
O11 O 0.0441(14) 0.2936(17) 0.4840(12)
O12 O 0.9652(16) 0.4112(16) 0.0277(15)
O10? O 0.1178(9) 0.3663(8) 0.8723(6)
loop_
_geom_bond_atom_site_label_1
_geom_bond_atom_site_label_2
_geom_bond_site_symmetry_1
_geom_bond_site_symmetry_2
C1 C8 1_555 1_555
C2 C22 1_555 1_555
C3 C17 1_555 1_555
C4 C6 1_555 1_555
C5 H1 1_555 1_555
C6 H2 1_555 1_555
C7 H3 1_555 1_555
C8 H4 1_555 1_555
C9 C15 1_555 1_555
C10 C4 1_555 1_555
H5 C10 1_555 1_555
C11 C1 1_555 1_555
H6 C11 1_555 1_555
C12 H7 1_555 1_555
C13 H8 1_555 1_555
C14 H9 1_555 1_555
C15 H10 1_555 1_555
C16 C4 1_555 1_555
C17 C6 1_555 1_555
C18 C11 1_555 1_555
H11 C18 1_555 1_555
C19 C7 1_555 1_555
H12 C19 1_555 1_555
C20 H13 1_555 1_555
C21 C9 1_555 1_555
H14 C21 1_555 1_555
C22 C8 1_555 1_555
C23 C1 1_555 1_555
C24 C5 1_555 1_555
C25 C20 1_555 1_555
H15 C25 1_555 1_555
C26 C12 1_555 1_555
H16 C26 1_555 1_555
Cd1 N1 1_555 1_555
H17 O1 1_555 1_555
H18 O1 1_555 1_555
N1 C15 1_555 1_555
N2 C3 1_555 1_555
H19 N2 1_555 1_555
N3 C16 1_555 1_555
H20 N3 1_555 1_555
N4 C5 1_555 1_555
O1 Cd1 1_555 1_555
O2 C2 1_555 1_555
O3 C2 1_555 1_555
O4 C23 1_555 1_555
O5 C23 1_555 1_555
O6 C3 1_555 1_555
O7 C16 1_555 1_555
Cd1A N4 1_555 1_555
Cd1_2 O4 1_555 1_555
N4A Cd1 1_555 1_555
O4_2 Cd1 1_555 1_555
C7 C17 1_555 1_555
C9 N2 1_555 1_555
C10 C19 1_555 1_555
C12 C24 1_555 1_555
C13 C26 1_555 1_555
C13 N4 1_555 1_555
C14 C18 1_555 1_555
C14 C22 1_555 1_555
C20 N1 1_555 1_555
C21 C25 1_555 1_555
C24 N3 1_555 1_555
Cd1 O2 1_555 1_555
Cd1 O3 1_555 1_555

#END
