
#######################################################################
#
#                 Cambridge Crystallographic Data Centre
#                                CCDC 
#
#######################################################################
#
# If this CIF has been generated from an entry in the Cambridge 
# Structural Database, then it will include bibliographic, chemical, 
# crystal, experimental, refinement or atomic coordinate data resulting 
# from the CCDC's data processing and validation procedures.
#
#######################################################################

data_NESRAG
_symmetry_cell_setting           monoclinic
_symmetry_space_group_name_H-M   'P 21/c'
_symmetry_Int_Tables_number      14
_space_group_name_Hall           '-P 2ybc'
loop_
_symmetry_equiv_pos_site_id
_symmetry_equiv_pos_as_xyz
1 x,y,z
2 -x,1/2+y,1/2-z
3 -x,-y,-z
4 x,1/2-y,1/2+z
_cell_length_a                   8.2505(9)
_cell_length_b                   30.086(3)
_cell_length_c                   10.3031(11)
_cell_angle_alpha                90
_cell_angle_beta                 99.9130(10)
_cell_angle_gamma                90
_cell_volume                     2519.3
loop_
_atom_site_label
_atom_site_type_symbol
_atom_site_fract_x
_atom_site_fract_y
_atom_site_fract_z
C1 C 0.2779(4) 0.46711(12) 0.1610(3)
C2 C 0.2606(4) 0.46815(12) -0.0861(3)
H1 H 0.1565 0.4808 -0.0946
C3 C 0.3492(4) 0.45824(12) 0.0387(3)
C4 C 0.5063(5) 0.44056(13) 0.0506(3)
H2 H 0.5665 0.4348 0.1338
C5 C 0.2405(4) 0.47021(12) -0.3342(3)
C6 C 0.5744(5) 0.43142(14) -0.0606(4)
H3 H 0.6797 0.4195 -0.0520
C7 C 0.4852(5) 0.44011(14) -0.1843(4)
H4 H 0.5298 0.4334 -0.2589
C8 C 0.3288(4) 0.45891(12) -0.1978(3)
C9 C -0.1395(5) 0.41836(14) -0.3066(4)
H5 H -0.0593 0.4302 -0.2413
C10 C -0.1741(6) 0.37397(15) -0.3044(4)
H6 H -0.1165 0.3560 -0.2386
C11 C -0.2936(6) 0.35566(15) -0.3989(4)
H7 H -0.3196 0.3256 -0.3963
C12 C -0.3750(5) 0.38288(13) -0.4983(4)
C13 C -0.3319(5) 0.42776(13) -0.4950(4)
H8 H -0.3846 0.4463 -0.5613
C14 C -0.5310(6) 0.32569(14) -0.6389(5)
C15 C -0.6513(5) 0.31775(14) -0.7630(4)
C16 C -0.7120(7) 0.35133(16) -0.8494(5)
H9 H -0.6845 0.3807 -0.8283
C17 C -0.8133(8) 0.34138(17) -0.9669(5)
H10 H -0.8531 0.3641 -1.0249
C18 C -0.8560(7) 0.29785(16) -0.9990(5)
H11 H -0.9225 0.2913 -1.0791
C19 C -0.7998(6) 0.26383(14) -0.9119(5)
C20 C -0.6961(6) 0.27386(14) -0.7955(4)
H12 H -0.6555 0.2511 -0.7380
C21 C -0.8366(6) 0.21572(15) -0.9445(5)
C22 C -1.0080(5) 0.16880(14) -1.1145(4)
C23 C -1.1237(6) 0.17191(15) -1.2284(5)
H13 H -1.1713 0.1992 -1.2544
C24 C -1.1679(6) 0.13481(16) -1.3025(5)
H14 H -1.2468 0.1365 -1.3785
C25 C -1.0941(5) 0.09489(15) -1.2630(4)
H15 H -1.1235 0.0697 -1.3141
C26 C -0.9389(5) 0.12729(13) -1.0795(4)
H16 H -0.8614 0.1246 -1.0029
Cd1 Cd -0.14747(3) 0.520700(9) -0.38506(2)
N1 N -0.2187(4) 0.44530(10) -0.4010(3)
N2 N -0.4966(4) 0.36874(11) -0.6030(3)
N3 N -0.9653(5) 0.20858(12) -1.0440(4)
N4 N -0.9813(4) 0.09112(11) -1.1534(3)
O1 O 0.1190(3) 0.49536(10) -0.3480(3)
O2 O 0.2983(4) 0.45423(11) -0.4294(3)
O3 O 0.1430(3) 0.48688(9) 0.1525(2)
O4 O 0.3569(3) 0.45307(9) 0.2704(2)
O5 O -0.4637(5) 0.29443(11) -0.5757(4)
O6 O -0.7555(5) 0.18556(12) -0.8866(4)
H17 H -1.031(10) 0.230(2) -1.076(10)
H18 H -0.554(11) 0.390(2) -0.644(9)
Cd1A Cd -0.85253(3) 0.020700(9) -1.11494(2)
Cd1B Cd 0.14747(3) 0.479300(9) -0.61494(2)
Cd1B_2 Cd 0.14747(3) 0.479300(9) 0.38506(2)
N4A N -0.0187(4) 0.59112(11) -0.3466(3)
O2B O -0.2983(4) 0.54577(11) -0.5706(3)
O3B O -0.1430(3) 0.51312(9) -0.1525(2)
O4B O -0.3569(3) 0.54693(9) -0.2704(2)
O7 O 0.4928(7) 0.32912(19) 0.8339(7)
O8 O 0.2440(7) 0.77204(19) 0.6116(11)
H19 H 0.306(11) 0.795(2) 0.609(11)
H20 H 0.313(11) 0.755(3) 0.585(12)
loop_
_geom_bond_atom_site_label_1
_geom_bond_atom_site_label_2
_geom_bond_site_symmetry_1
_geom_bond_site_symmetry_2
C1 C3 1_555 1_555
C2 H1 1_555 1_555
C3 C2 1_555 1_555
C4 C3 1_555 1_555
H2 C4 1_555 1_555
C5 C8 1_555 1_555
C6 C4 1_555 1_555
H3 C6 1_555 1_555
C7 C6 1_555 1_555
H4 C7 1_555 1_555
C8 C2 1_555 1_555
C9 H5 1_555 1_555
C10 C9 1_555 1_555
H6 C10 1_555 1_555
C11 C10 1_555 1_555
H7 C11 1_555 1_555
C12 C11 1_555 1_555
C13 C12 1_555 1_555
H8 C13 1_555 1_555
C14 C15 1_555 1_555
C15 C16 1_555 1_555
C16 H9 1_555 1_555
C17 C16 1_555 1_555
H10 C17 1_555 1_555
C18 C17 1_555 1_555
H11 C18 1_555 1_555
C19 C18 1_555 1_555
C20 C15 1_555 1_555
H12 C20 1_555 1_555
C21 C19 1_555 1_555
C22 C23 1_555 1_555
C23 H13 1_555 1_555
C24 C23 1_555 1_555
H14 C24 1_555 1_555
C25 C24 1_555 1_555
H15 C25 1_555 1_555
C26 C22 1_555 1_555
H16 C26 1_555 1_555
Cd1 N1 1_555 1_555
N1 C9 1_555 1_555
N2 C12 1_555 1_555
N3 C21 1_555 1_555
N4 C25 1_555 1_555
O1 C5 1_555 1_555
O2 C5 1_555 1_555
O3 C1 1_555 1_555
O4 C1 1_555 1_555
O5 C14 1_555 1_555
O6 C21 1_555 1_555
O8 H19 1_555 1_555
H17 N3 1_555 1_555
H18 N2 1_555 1_555
H20 O8 1_555 1_555
Cd1A N4 1_555 1_555
Cd1B O2 1_555 1_555
Cd1B_2 O3 1_555 1_555
N4A Cd1 1_555 1_555
O2B Cd1 1_555 1_555
O3B Cd1 1_555 1_555
O4B Cd1 1_555 1_555
C7 C8 1_555 1_555
C13 N1 1_555 1_555
C14 N2 1_555 1_555
C19 C20 1_555 1_555
C22 N3 1_555 1_555
C26 N4 1_555 1_555
Cd1 O1 1_555 1_555
O4 Cd1B_2 1_555 1_555

#END
