
#######################################################################
#
#                 Cambridge Crystallographic Data Centre
#                                CCDC 
#
#######################################################################
#
# If this CIF has been generated from an entry in the Cambridge 
# Structural Database, then it will include bibliographic, chemical, 
# crystal, experimental, refinement or atomic coordinate data resulting 
# from the CCDC's data processing and validation procedures.
#
#######################################################################

data_NESYOZ
_symmetry_cell_setting           monoclinic
_symmetry_space_group_name_H-M   'P 21/n'
_symmetry_Int_Tables_number      14
_space_group_name_Hall           '-P 2yn'
loop_
_symmetry_equiv_pos_site_id
_symmetry_equiv_pos_as_xyz
1 x,y,z
2 1/2-x,1/2+y,1/2-z
3 -x,-y,-z
4 1/2+x,1/2-y,1/2+z
_cell_length_a                   3.779(2)
_cell_length_b                   25.711(12)
_cell_length_c                   7.104(4)
_cell_angle_alpha                90
_cell_angle_beta                 95.98(4)
_cell_angle_gamma                90
_cell_volume                     686.482
loop_
_atom_site_label
_atom_site_type_symbol
_atom_site_fract_x
_atom_site_fract_y
_atom_site_fract_z
N1 N 0.0353(20) -0.0663(2) 0.1520(10)
C1 C 0.1292(28) -0.1108(3) 0.0771(13)
C2 C 0.1525(28) -0.1565(4) 0.1768(14)
C3 C 0.0991(27) -0.1562(3) 0.3631(14)
C4 C -0.0049(29) -0.1110(4) 0.4453(13)
C5 C -0.0307(26) -0.0659(4) 0.3333(12)
C6 C 0.1233(29) -0.2023(4) 0.4788(16)
N2 N 0.1755(31) -0.2364(3) 0.5736(15)
Cu1 Cu 0.0000 0.0000 0.0000
Cl1 Cl 0.4170(6) 0.0371(1) 0.2128(3)
H1 H 0.1828 -0.1111 -0.0520
H2 H 0.2063 -0.1884 0.1157
H3 H -0.0581 -0.1104 0.5745
H4 H -0.0977 -0.0338 0.3885
N1B N -0.0353(20) 0.0663(2) -0.1520(10)
C1B C -0.1292(28) 0.1108(3) -0.0771(13)
C2B C -0.1525(28) 0.1565(4) -0.1768(14)
C3B C -0.0991(27) 0.1562(3) -0.3631(14)
C4B C 0.0049(29) 0.1110(4) -0.4453(13)
C5B C 0.0307(26) 0.0659(4) -0.3333(12)
C6B C -0.1233(29) 0.2023(4) -0.4788(16)
N2B N -0.1755(31) 0.2364(3) -0.5736(15)
Cu1_2 Cu -1.0000 0.0000 0.0000
Cl1_2 Cl -0.5830(6) 0.0371(1) 0.2128(3)
Cl1B Cl -0.4170(6) -0.0371(1) -0.2128(3)
Cl1B_2 Cl 0.5830(6) -0.0371(1) -0.2128(3)
H1B H -0.1828 0.1111 0.0520
H2B H -0.2063 0.1884 -0.1157
H3B H 0.0581 0.1104 -0.5745
H4B H 0.0977 0.0338 -0.3885
loop_
_geom_bond_atom_site_label_1
_geom_bond_atom_site_label_2
_geom_bond_site_symmetry_1
_geom_bond_site_symmetry_2
N1 C1 1_555 1_555
C1 C2 1_555 1_555
C2 C3 1_555 1_555
C3 C4 1_555 1_555
C4 C5 1_555 1_555
C5 N1 1_555 1_555
C6 C3 1_555 1_555
N2 C6 1_555 1_555
Cu1 N1 1_555 1_555
Cl1 Cu1 1_555 1_555
H1 C1 1_555 1_555
H2 C2 1_555 1_555
H3 C4 1_555 1_555
H4 C5 1_555 1_555
N1B Cu1 1_555 1_555
C1B N1B 1_555 1_555
C2B C1B 1_555 1_555
C3B C2B 1_555 1_555
C4B C3B 1_555 1_555
C5B N1B 1_555 1_555
C6B C3B 1_555 1_555
N2B C6B 1_555 1_555
Cu1_2 Cl1_2 1_555 1_555
Cl1_2 Cu1 1_555 1_555
Cl1B Cu1 1_555 1_555
Cl1B_2 Cu1 1_555 1_555
H1B C1B 1_555 1_555
H2B C2B 1_555 1_555
H3B C4B 1_555 1_555
H4B C5B 1_555 1_555
C4B C5B 1_555 1_555
Cu1_2 Cl1B 1_555 1_555

#END
