
#######################################################################
#
#                 Cambridge Crystallographic Data Centre
#                                CCDC 
#
#######################################################################
#
# If this CIF has been generated from an entry in the Cambridge 
# Structural Database, then it will include bibliographic, chemical, 
# crystal, experimental, refinement or atomic coordinate data resulting 
# from the CCDC's data processing and validation procedures.
#
#######################################################################

data_NESYOZ01
_symmetry_cell_setting           monoclinic
_symmetry_space_group_name_H-M   'P 21/n'
_symmetry_Int_Tables_number      14
_space_group_name_Hall           '-P 2yn'
loop_
_symmetry_equiv_pos_site_id
_symmetry_equiv_pos_as_xyz
1 x,y,z
2 1/2-x,1/2+y,1/2-z
3 -x,-y,-z
4 1/2+x,1/2-y,1/2+z
_cell_length_a                   3.589(3)
_cell_length_b                   25.903(6)
_cell_length_c                   7.1160(10)
_cell_angle_alpha                90
_cell_angle_beta                 96.05(4)
_cell_angle_gamma                90
_cell_volume                     657.861
loop_
_atom_site_label
_atom_site_type_symbol
_atom_site_fract_x
_atom_site_fract_y
_atom_site_fract_z
Cu1 Cu 0.5000 0.5000 0.5000
Cl1 Cl 0.08171(17) 0.46296(3) 0.28730(8)
N1 N 0.5325(6) 0.43383(10) 0.6529(3)
C1 C 0.5984(8) 0.34460(13) 0.8659(5)
C2 C 0.6653(9) 0.34361(14) 0.6781(5)
C3 C 0.4954(9) 0.39024(15) 0.9437(4)
C4 C 0.6276(8) 0.38935(14) 0.5774(4)
C5 C 0.4659(8) 0.43380(13) 0.8334(4)
N2 N 0.6713(13) 0.26261(18) 1.0747(7)
C6 C 0.6378(11) 0.29815(17) 0.9799(6)
H1 H 0.429(12) 0.3924(18) 1.057(6)
H2 H 0.679(10) 0.3901(14) 0.451(5)
H3 H 0.372(11) 0.4616(16) 0.887(5)
H4 H 0.762(12) 0.3136(18) 0.639(6)
Cu1_2 Cu -0.5000 0.5000 0.5000
Cl1_2 Cl 1.08171(17) 0.46296(3) 0.28730(8)
Cl1B Cl -0.08171(17) 0.53704(3) 0.71270(8)
Cl1B_2 Cl 0.91829(17) 0.53704(3) 0.71270(8)
N1B N 0.4675(6) 0.56617(10) 0.3471(3)
C1B C 0.4016(8) 0.65540(13) 0.1341(5)
C2B C 0.3347(9) 0.65639(14) 0.3219(5)
C3B C 0.5046(9) 0.60976(15) 0.0563(4)
C4B C 0.3724(8) 0.61065(14) 0.4226(4)
C5B C 0.5341(8) 0.56620(13) 0.1666(4)
N2B N 0.3287(13) 0.73739(18) -0.0747(7)
C6B C 0.3622(11) 0.70185(17) 0.0201(6)
H1B H 0.571(12) 0.6076(18) -0.057(6)
H2B H 0.321(10) 0.6099(14) 0.549(5)
H3B H 0.628(11) 0.5384(16) 0.113(5)
H4B H 0.238(12) 0.6864(18) 0.361(6)
loop_
_geom_bond_atom_site_label_1
_geom_bond_atom_site_label_2
_geom_bond_site_symmetry_1
_geom_bond_site_symmetry_2
Cu1 Cl1 1_555 1_555
Cl1 Cu1_2 1_555 1_555
N1 Cu1 1_555 1_555
C1 C2 1_555 1_555
C2 C4 1_555 1_555
C3 C1 1_555 1_555
C4 N1 1_555 1_555
C5 N1 1_555 1_555
N2 C6 1_555 1_555
C6 C1 1_555 1_555
H1 C3 1_555 1_555
H2 C4 1_555 1_555
H3 C5 1_555 1_555
H4 C2 1_555 1_555
Cu1_2 Cl1B 1_555 1_555
Cl1_2 Cu1 1_555 1_555
Cl1B Cu1 1_555 1_555
Cl1B_2 Cu1 1_555 1_555
N1B Cu1 1_555 1_555
C1B C2B 1_555 1_555
C2B C4B 1_555 1_555
C3B C1B 1_555 1_555
C4B N1B 1_555 1_555
C5B N1B 1_555 1_555
N2B C6B 1_555 1_555
C6B C1B 1_555 1_555
H1B C3B 1_555 1_555
H2B C4B 1_555 1_555
H3B C5B 1_555 1_555
H4B C2B 1_555 1_555
C3 C5 1_555 1_555
C3B C5B 1_555 1_555

#END
