
#######################################################################
#
#                 Cambridge Crystallographic Data Centre
#                                CCDC 
#
#######################################################################
#
# If this CIF has been generated from an entry in the Cambridge 
# Structural Database, then it will include bibliographic, chemical, 
# crystal, experimental, refinement or atomic coordinate data resulting 
# from the CCDC's data processing and validation procedures.
#
#######################################################################

data_NETFIC
_symmetry_cell_setting           monoclinic
_symmetry_space_group_name_H-M   'P 21/n'
_symmetry_Int_Tables_number      14
_space_group_name_Hall           '-P 2yn'
loop_
_symmetry_equiv_pos_site_id
_symmetry_equiv_pos_as_xyz
1 x,y,z
2 1/2-x,1/2+y,1/2-z
3 -x,-y,-z
4 1/2+x,1/2-y,1/2+z
_cell_length_a                   7.6003(8)
_cell_length_b                   16.7695(17)
_cell_length_c                   9.7696(10)
_cell_angle_alpha                90
_cell_angle_beta                 101.522(2)
_cell_angle_gamma                90
_cell_volume                     1220.07
loop_
_atom_site_label
_atom_site_type_symbol
_atom_site_fract_x
_atom_site_fract_y
_atom_site_fract_z
C1 C -0.1085(4) 0.39965(17) 0.6632(3)
C2 C -0.1624(4) 0.32939(17) 0.7419(3)
C3 C -0.3438(4) 0.31159(18) 0.7326(3)
H1 H -0.4318 0.3452 0.6840
C4 C -0.3914(4) 0.24372(18) 0.7962(3)
H2 H -0.5123 0.2318 0.7896
C5 C -0.2621(4) 0.19295(17) 0.8699(3)
C6 C -0.0806(4) 0.21144(17) 0.8807(3)
H3 H 0.0075 0.1782 0.9305
C7 C -0.0330(4) 0.27953(18) 0.8169(3)
H4 H 0.0878 0.2920 0.8245
C8 C -0.3168(4) 0.11779(17) 0.9332(3)
C9 C 0.5223(4) 0.53075(18) 0.7635(3)
H5 H 0.5720 0.4991 0.7029
C10 C 0.3342(5) 0.5959(2) 0.8561(4)
H6 H 0.2279 0.6181 0.8719
C11 C 0.4982(5) 0.6065(2) 0.9379(4)
H7 H 0.5250 0.6364 1.0195
C12 C 0.8116(5) 0.5601(3) 0.9286(4)
H8 H 0.8601 0.5188 0.8790
H9 H 0.8365 0.5481 1.0266
H10 H 0.8658 0.6102 0.9133
N1 N 0.3491(3) 0.54743(15) 0.7470(3)
N2 N 0.6163(4) 0.56504(17) 0.8777(3)
Ni1 Ni 0.16000(5) 0.507170(19) 0.59180(4)
O1 O 0.0466(3) 0.42750(12) 0.7047(2)
O2 O -0.2232(3) 0.42397(12) 0.5609(2)
O3 O -0.4737(3) 0.09219(12) 0.8851(2)
O4 O -0.2061(3) 0.08477(12) 1.0282(2)
Ni1B Ni -0.16000(5) 0.492830(19) 0.40820(4)
Ni1A Ni -0.66000(5) 0.007170(19) 0.90820(4)
Ni1C Ni -0.34000(5) -0.007170(19) 1.09180(4)
O2B O 0.2232(3) 0.57603(12) 0.4391(2)
O3A O -0.0263(3) 0.59219(12) 0.6149(2)
O4C O 0.2939(3) 0.41523(12) 0.5282(2)
loop_
_geom_bond_atom_site_label_1
_geom_bond_atom_site_label_2
_geom_bond_site_symmetry_1
_geom_bond_site_symmetry_2
C1 C2 1_555 1_555
C2 C3 1_555 1_555
C3 H1 1_555 1_555
C4 C3 1_555 1_555
H2 C4 1_555 1_555
C5 C4 1_555 1_555
C6 C5 1_555 1_555
H3 C6 1_555 1_555
C7 C2 1_555 1_555
H4 C7 1_555 1_555
C8 C5 1_555 1_555
C9 H5 1_555 1_555
C10 H6 1_555 1_555
C11 C10 1_555 1_555
H7 C11 1_555 1_555
C12 H8 1_555 1_555
H9 C12 1_555 1_555
H10 C12 1_555 1_555
N1 C9 1_555 1_555
N2 C9 1_555 1_555
Ni1 N1 1_555 1_555
O1 C1 1_555 1_555
O2 C1 1_555 1_555
O3 C8 1_555 1_555
O4 C8 1_555 1_555
Ni1B O2 1_555 1_555
Ni1A O3 1_555 1_555
Ni1C O4 1_555 1_555
O2B Ni1 1_555 1_555
O3A Ni1 1_555 1_555
O4C Ni1 1_555 1_555
C6 C7 1_555 1_555
C10 N1 1_555 1_555
C11 N2 1_555 1_555
C12 N2 1_555 1_555
Ni1 O1 1_555 1_555

#END
