
#######################################################################
#
#                 Cambridge Crystallographic Data Centre
#                                CCDC 
#
#######################################################################
#
# If this CIF has been generated from an entry in the Cambridge 
# Structural Database, then it will include bibliographic, chemical, 
# crystal, experimental, refinement or atomic coordinate data resulting 
# from the CCDC's data processing and validation procedures.
#
#######################################################################

data_NETFAU
_symmetry_cell_setting           monoclinic
_symmetry_space_group_name_H-M   'P 21/c'
_symmetry_Int_Tables_number      14
_space_group_name_Hall           '-P 2ybc'
loop_
_symmetry_equiv_pos_site_id
_symmetry_equiv_pos_as_xyz
1 x,y,z
2 -x,1/2+y,1/2-z
3 -x,-y,-z
4 x,1/2-y,1/2+z
_cell_length_a                   10.8755(5)
_cell_length_b                   19.129(2)
_cell_length_c                   19.3765(18)
_cell_angle_alpha                90
_cell_angle_beta                 98.745(5)
_cell_angle_gamma                90
_cell_volume                     3984.18
loop_
_atom_site_label
_atom_site_type_symbol
_atom_site_fract_x
_atom_site_fract_y
_atom_site_fract_z
Eu1 Eu 0.585796(15) 0.374832(8) 0.857459(8)
N1 N 0.7570(3) 0.46261(15) 0.91761(14)
C1 C 0.7437(3) 0.50754(19) 0.96865(18)
H1 H 0.6752 0.5025 0.9925
C2 C 0.8279(3) 0.56158(18) 0.98791(18)
N2 N 0.9294(3) 0.56861(16) 0.95653(15)
C3 C 0.9443(3) 0.52248(18) 0.90660(18)
H2 H 1.0149 0.5259 0.8842
C4 C 0.8589(3) 0.46989(17) 0.88695(16)
C5 C 0.8065(4) 0.6137(2) 1.0426(2)
H3 H 0.8824 0.6195 1.0754
H4 H 0.7408 0.5970 1.0671
H5 H 0.7824 0.6582 1.0205
C6 C 0.8718(3) 0.41956(17) 0.82882(16)
O1 O 0.9728(2) 0.41757(14) 0.80532(13)
O2 O 0.7778(2) 0.38261(13) 0.80785(12)
N3 N 0.4708(3) 0.25998(14) 0.88759(14)
C7 C 0.5188(3) 0.20775(18) 0.92780(18)
H6 H 0.6018 0.2109 0.9499
C8 C 0.4502(4) 0.14815(18) 0.93843(18)
N4 N 0.3343(3) 0.14022(15) 0.90586(16)
C9 C 0.2854(4) 0.19276(19) 0.86444(19)
H7 H 0.2040 0.1884 0.8403
C10 C 0.3520(3) 0.25293(17) 0.85645(17)
C11 C 0.5038(4) 0.0916(2) 0.9869(2)
H8 H 0.4531 0.0858 1.0236
H9 H 0.5879 0.1041 1.0075
H10 H 0.5052 0.0482 0.9613
C12 C 0.2978(3) 0.31408(17) 0.81448(17)
O3 O 0.1877(2) 0.30902(13) 0.78397(14)
O4 O 0.3655(2) 0.36740(12) 0.81430(13)
N5 N 0.4926(3) 0.49161(15) 0.87357(14)
N6 N 0.5463(3) 0.37634(15) 0.98043(15)
N7 N 0.5753(3) 0.28757(15) 0.76332(15)
O5 O 0.7459(2) 0.29808(14) 0.92115(13)
H11 H 0.7625 0.3113 0.9623
O6 O 0.5534(3) 0.44764(14) 0.74816(13)
C13 C 0.5842(6) 0.4364(3) 0.6802(2)
H12 H 0.6430 0.4717 0.6703
H13 H 0.5094 0.4393 0.6460
H14 H 0.6211 0.3904 0.6781
Eu2 Eu 1.048450(16) 0.371350(9) 0.702230(8)
O7 O 0.9305(3) 0.35967(15) 0.58483(14)
H15 H 0.984(6) 0.351(3) 0.554(3)
H16 H 0.862(6) 0.341(3) 0.579(3)
O8 O 1.1949(3) 0.46284(15) 0.75250(15)
H17 H 1.256(5) 0.446(3) 0.772(2)
H18 H 1.190(5) 0.497(3) 0.771(3)
O9 O 0.8782(3) 0.29851(17) 0.72418(16)
H19 H 0.830(5) 0.317(3) 0.747(3)
H20 H 0.843(6) 0.275(3) 0.698(3)
O10 O 1.2055(3) 0.38710(17) 0.63096(18)
H21 H 1.231(5) 0.360(3) 0.612(3)
H22 H 1.232(5) 0.430(3) 0.621(3)
O11 O 1.0839(3) 0.25553(15) 0.65376(16)
H23 H 1.143(5) 0.231(3) 0.666(3)
H24 H 1.033(6) 0.242(3) 0.622(3)
O12 O 0.9410(3) 0.47608(16) 0.66877(16)
H25 H 0.939(5) 0.518(3) 0.692(3)
H26 H 0.904(6) 0.484(3) 0.630(3)
W1 W 0.463020(12) 0.662560(6) 0.854550(6)
C14 C 0.4838(3) 0.55153(17) 0.86908(16)
C15 C 0.5373(3) 0.36366(16) 1.03761(16)
C16 C 0.5575(3) 0.24400(17) 0.72194(17)
C17 C 0.6461(3) 0.64370(18) 0.82856(18)
N8 N 0.7432(3) 0.63494(18) 0.81271(19)
C18 C 0.2733(3) 0.62779(18) 0.83699(18)
N9 N 0.1719(3) 0.6074(2) 0.82722(19)
C19 C 0.4330(3) 0.61413(17) 0.75127(17)
N10 N 0.4181(4) 0.58577(18) 0.69835(16)
C20 C 0.3519(3) 0.74331(17) 0.89462(16)
N11 N 0.2904(3) 0.78497(16) 0.91488(16)
C21 C 0.5952(3) 0.73765(19) 0.90827(18)
N12 N 0.6670(3) 0.77761(19) 0.93378(19)
O3_2 O 1.1877(2) 0.30902(13) 0.78397(14)
Eu2_2 Eu 0.048450(16) 0.371350(9) 0.702230(8)
W1B W 0.536980(12) 0.337440(6) 1.145450(6)
W1A W 0.536980(12) 0.162560(6) 0.645450(6)
C15B C 0.4627(3) 0.63634(16) 0.96239(16)
C16A C 0.4425(3) 0.74400(17) 0.77806(17)
O13 O 0.2606(3) 0.98164(16) 0.09049(15)
H27 H 0.3207 0.9687 0.1193
C22 C 0.1608(8) 0.9325(5) 0.0892(4)
H28 H 0.0914 0.9469 0.0546
H29 H 0.1346 0.9307 0.1348
H30 H 0.1889 0.8865 0.0772
O14 O 0.1840(3) 0.46348(18) 0.45086(18)
H31 H 0.225(6) 0.439(3) 0.437(3)
H32 H 0.215(6) 0.482(4) 0.487(4)
O15 O 0.0633(3) 0.09717(18) 0.76436(17)
H33 H 0.114(5) 0.103(3) 0.742(3)
H34 H 0.000(5) 0.104(3) 0.740(3)
O16 O 0.9139(3) 0.18388(17) 0.54670(19)
H35 H 0.952(6) 0.157(3) 0.540(3)
H36 H 0.880(6) 0.175(4) 0.576(4)
O17 O 0.0874(4) 0.3274(2) 0.4852(2)
loop_
_geom_bond_atom_site_label_1
_geom_bond_atom_site_label_2
_geom_bond_site_symmetry_1
_geom_bond_site_symmetry_2
Eu1 N1 1_555 1_555
N1 C1 1_555 1_555
C1 H1 1_555 1_555
C2 C1 1_555 1_555
N2 C2 1_555 1_555
C3 N2 1_555 1_555
H2 C3 1_555 1_555
C4 N1 1_555 1_555
C5 C2 1_555 1_555
H3 C5 1_555 1_555
H4 C5 1_555 1_555
H5 C5 1_555 1_555
C6 C4 1_555 1_555
O1 C6 1_555 1_555
O2 Eu1 1_555 1_555
N3 Eu1 1_555 1_555
C7 N3 1_555 1_555
H6 C7 1_555 1_555
C8 C7 1_555 1_555
N4 C8 1_555 1_555
C9 N4 1_555 1_555
H7 C9 1_555 1_555
C10 N3 1_555 1_555
C11 C8 1_555 1_555
H8 C11 1_555 1_555
H9 C11 1_555 1_555
H10 C11 1_555 1_555
C12 C10 1_555 1_555
O3 C12 1_555 1_555
O4 Eu1 1_555 1_555
N5 Eu1 1_555 1_555
N6 Eu1 1_555 1_555
N7 Eu1 1_555 1_555
O5 Eu1 1_555 1_555
H11 O5 1_555 1_555
O6 Eu1 1_555 1_555
C13 O6 1_555 1_555
H12 C13 1_555 1_555
H13 C13 1_555 1_555
H14 C13 1_555 1_555
Eu2 O1 1_555 1_555
O7 Eu2 1_555 1_555
H15 O7 1_555 1_555
H16 O7 1_555 1_555
O8 Eu2 1_555 1_555
H17 O8 1_555 1_555
H18 O8 1_555 1_555
O9 Eu2 1_555 1_555
H19 O9 1_555 1_555
H20 O9 1_555 1_555
O10 Eu2 1_555 1_555
H21 O10 1_555 1_555
H22 O10 1_555 1_555
O11 Eu2 1_555 1_555
H23 O11 1_555 1_555
H24 O11 1_555 1_555
O12 Eu2 1_555 1_555
H25 O12 1_555 1_555
H26 O12 1_555 1_555
W1 C14 1_555 1_555
C14 N5 1_555 1_555
C15 N6 1_555 1_555
C16 N7 1_555 1_555
C17 W1 1_555 1_555
N8 C17 1_555 1_555
C18 W1 1_555 1_555
N9 C18 1_555 1_555
C19 W1 1_555 1_555
N10 C19 1_555 1_555
C20 W1 1_555 1_555
N11 C20 1_555 1_555
C21 W1 1_555 1_555
N12 C21 1_555 1_555
O13 H27 1_555 1_555
C22 O13 1_555 1_555
H28 C22 1_555 1_555
H29 C22 1_555 1_555
H30 C22 1_555 1_555
O14 H31 1_555 1_555
H32 O14 1_555 1_555
O15 H33 1_555 1_555
H34 O15 1_555 1_555
O16 H35 1_555 1_555
H36 O16 1_555 1_555
O3_2 Eu2 1_555 1_555
Eu2_2 O3 1_555 1_555
W1B C15 1_555 1_555
W1A C16 1_555 1_555
C15B W1 1_555 1_555
C16A W1 1_555 1_555
C3 C4 1_555 1_555
C6 O2 1_555 1_555
C9 C10 1_555 1_555
C12 O4 1_555 1_555

#END
