
#######################################################################
#
#                 Cambridge Crystallographic Data Centre
#                                CCDC 
#
#######################################################################
#
# If this CIF has been generated from an entry in the Cambridge 
# Structural Database, then it will include bibliographic, chemical, 
# crystal, experimental, refinement or atomic coordinate data resulting 
# from the CCDC's data processing and validation procedures.
#
#######################################################################

data_NETGID
_symmetry_cell_setting           triclinic
_symmetry_space_group_name_H-M   'P -1'
_symmetry_Int_Tables_number      2
_space_group_name_Hall           '-P 1'
loop_
_symmetry_equiv_pos_site_id
_symmetry_equiv_pos_as_xyz
1 x,y,z
2 -x,-y,-z
_cell_length_a                   9.0994(7)
_cell_length_b                   15.7338(13)
_cell_length_c                   17.0478(14)
_cell_angle_alpha                112.465(2)
_cell_angle_beta                 92.386(2)
_cell_angle_gamma                90.890(2)
_cell_volume                     2252.22
loop_
_atom_site_label
_atom_site_type_symbol
_atom_site_fract_x
_atom_site_fract_y
_atom_site_fract_z
Co1 Co -0.42477(7) 0.22376(4) 0.47444(4)
Cl1 Cl -0.52625(15) 0.16230(9) 0.55965(9)
Cl2 Cl -0.55860(14) 0.27146(9) 0.38730(8)
N1 N -0.3139(4) 0.3408(3) 0.5541(2)
C1 C -0.2314(5) 0.3431(3) 0.6216(3)
H1 H -0.2224 0.2877 0.6312
C2 C -0.1576(5) 0.4227(3) 0.6789(3)
C3 C -0.1755(6) 0.5050(3) 0.6662(3)
H2 H -0.1289 0.5609 0.7043
C4 C -0.2623(6) 0.5030(4) 0.5971(3)
H3 H -0.2766 0.5577 0.5870
C5 C -0.3281(5) 0.4205(3) 0.5428(3)
H4 H -0.3864 0.4200 0.4950
C6 C -0.0626(5) 0.4234(3) 0.7514(3)
O1 O -0.0011(5) 0.4903(3) 0.8029(2)
O2 O -0.0538(4) 0.3380(2) 0.7518(2)
C7 C 0.0367(6) 0.3256(3) 0.8161(3)
C8 C -0.0071(6) 0.3562(4) 0.8980(3)
H5 H -0.0937 0.3905 0.9132
C9 C 0.0760(5) 0.3366(4) 0.9579(3)
H6 H 0.0464 0.3576 1.0148
C10 C 0.2047(5) 0.2857(3) 0.9357(3)
C11 C 0.2456(5) 0.2570(3) 0.8525(3)
H7 H 0.3320 0.2227 0.8363
C12 C 0.1619(5) 0.2776(3) 0.7921(3)
H8 H 0.1914 0.2586 0.7353
C13 C 0.3031(5) 0.2703(3) 1.0048(3)
C14 C 0.4020(5) 0.3567(3) 1.0465(3)
C15 C 0.3621(5) 0.4462(3) 1.0916(3)
H9 H 0.2622 0.4606 1.1029
C16 C 0.4741(6) 0.5149(3) 1.1200(3)
Br1 Br 0.42186(6) 0.63704(4) 1.18492(4)
C17 C 0.6198(6) 0.4956(4) 1.1027(3)
H10 H 0.6930 0.5439 1.1212
C18 C 0.6585(5) 0.4063(4) 1.0586(3)
H11 H 0.7586 0.3925 1.0475
C19 C 0.5504(5) 0.3365(3) 1.0302(3)
C20 C 0.5595(5) 0.2369(3) 0.9844(3)
C21 C 0.6815(6) 0.1822(4) 0.9597(3)
H12 H 0.7780 0.2093 0.9699
C22 C 0.6604(6) 0.0876(4) 0.9200(3)
H13 H 0.7423 0.0491 0.9031
C23 C 0.5179(6) 0.0495(4) 0.9051(3)
C24 C 0.3948(6) 0.1019(3) 0.9290(3)
H14 H 0.2987 0.0742 0.9187
Br2 Br 0.49089(8) -0.08059(4) 0.85208(4)
C25 C 0.4170(5) 0.1970(3) 0.9686(3)
C26 C 0.2110(5) 0.2434(3) 1.0663(3)
C27 C 0.0896(5) 0.1816(3) 1.0343(3)
H15 H 0.0600 0.1610 0.9757
C28 C 0.0129(5) 0.1506(3) 1.0866(3)
H16 H -0.0691 0.1088 1.0646
C29 C 0.0573(5) 0.1815(3) 1.1718(3)
C30 C 0.1757(5) 0.2411(3) 1.2050(3)
H17 H 0.2045 0.2614 1.2637
C31 C 0.2539(5) 0.2719(3) 1.1513(3)
H18 H 0.3370 0.3126 1.1735
O3 O -0.0244(4) 0.1579(2) 1.2297(2)
C32 C -0.0522(5) 0.0682(3) 1.2140(3)
O4 O -0.0100(4) 0.0047(3) 1.1552(2)
C33 C -0.1449(5) 0.0579(3) 1.2805(3)
C34 C -0.2172(5) 0.1304(3) 1.3378(3)
H19 H -0.2067 0.1895 1.3352
N2 N -0.3013(4) 0.1209(3) 1.3968(2)
C35 C -0.3140(6) 0.0359(3) 1.3992(3)
H20 H -0.3717 0.0283 1.4413
C36 C -0.2482(7) -0.0389(4) 1.3440(4)
H21 H -0.2612 -0.0974 1.3472
C37 C -0.1610(6) -0.0283(3) 1.2824(3)
H22 H -0.1141 -0.0794 1.2429
Co1_2 Co -0.42477(7) 0.22376(4) 1.47444(4)
N2_2 N -0.3013(4) 0.1209(3) 0.3968(2)
C38 C 0.8448(7) 0.7321(5) 0.4844(4)
H23 H 0.7644 0.7671 0.5200
Cl3 Cl 0.7649(2) 0.64406(13) 0.39424(13)
Cl4 Cl 0.95059(19) 0.80774(12) 0.45484(12)
Cl5 Cl 0.9545(2) 0.68636(18) 0.54498(15)
C39 C 0.7299(7) 0.3942(4) 0.2619(4)
H24 H 0.7854 0.4274 0.2323
Cl6 Cl 0.56235(18) 0.44770(11) 0.29096(11)
Cl7 Cl 0.6992(2) 0.27982(13) 0.19188(12)
Cl8 Cl 0.8360(2) 0.39974(14) 0.35219(12)
C40 C 0.2814(8) 0.9475(4) 0.3454(4)
H25 H 0.3757 0.9375 0.3724
Cl9 Cl 0.2372(3) 0.85043(13) 0.25351(14)
Cl10 Cl 0.3030(3) 1.04517(13) 0.32120(14)
Cl11 Cl 0.1424(3) 0.9621(2) 0.41550(15)
loop_
_geom_bond_atom_site_label_1
_geom_bond_atom_site_label_2
_geom_bond_site_symmetry_1
_geom_bond_site_symmetry_2
Co1 Cl1 1_555 1_555
Cl2 Co1 1_555 1_555
N1 Co1 1_555 1_555
C1 N1 1_555 1_555
H1 C1 1_555 1_555
C2 C1 1_555 1_555
C3 C2 1_555 1_555
H2 C3 1_555 1_555
C4 C3 1_555 1_555
H3 C4 1_555 1_555
C5 N1 1_555 1_555
H4 C5 1_555 1_555
C6 C2 1_555 1_555
O1 C6 1_555 1_555
O2 C6 1_555 1_555
C7 O2 1_555 1_555
C8 C7 1_555 1_555
H5 C8 1_555 1_555
C9 C8 1_555 1_555
H6 C9 1_555 1_555
C10 C9 1_555 1_555
C11 C10 1_555 1_555
H7 C11 1_555 1_555
C12 C7 1_555 1_555
H8 C12 1_555 1_555
C13 C10 1_555 1_555
C14 C13 1_555 1_555
C15 C14 1_555 1_555
H9 C15 1_555 1_555
C16 C15 1_555 1_555
Br1 C16 1_555 1_555
C17 C16 1_555 1_555
H10 C17 1_555 1_555
C18 C17 1_555 1_555
H11 C18 1_555 1_555
C19 C14 1_555 1_555
C20 C19 1_555 1_555
C21 C20 1_555 1_555
H12 C21 1_555 1_555
C22 C21 1_555 1_555
H13 C22 1_555 1_555
C23 C22 1_555 1_555
C24 C23 1_555 1_555
H14 C24 1_555 1_555
Br2 C23 1_555 1_555
C25 C13 1_555 1_555
C26 C13 1_555 1_555
C27 C26 1_555 1_555
H15 C27 1_555 1_555
C28 C27 1_555 1_555
H16 C28 1_555 1_555
C29 C28 1_555 1_555
C30 C29 1_555 1_555
H17 C30 1_555 1_555
C31 C26 1_555 1_555
H18 C31 1_555 1_555
O3 C29 1_555 1_555
C32 O3 1_555 1_555
O4 C32 1_555 1_555
C33 C32 1_555 1_555
C34 C33 1_555 1_555
H19 C34 1_555 1_555
N2 C34 1_555 1_555
C35 N2 1_555 1_555
H20 C35 1_555 1_555
C36 C35 1_555 1_555
H21 C36 1_555 1_555
C37 C33 1_555 1_555
H22 C37 1_555 1_555
C38 H23 1_555 1_555
Cl3 C38 1_555 1_555
Cl4 C38 1_555 1_555
Cl5 C38 1_555 1_555
C39 H24 1_555 1_555
Cl6 C39 1_555 1_555
Cl7 C39 1_555 1_555
Cl8 C39 1_555 1_555
C40 H25 1_555 1_555
Cl9 C40 1_555 1_555
Cl10 C40 1_555 1_555
Cl11 C40 1_555 1_555
Co1_2 N2 1_555 1_555
N2_2 Co1 1_555 1_555
C4 C5 1_555 1_555
C11 C12 1_555 1_555
C18 C19 1_555 1_555
C20 C25 1_555 1_555
C24 C25 1_555 1_555
C30 C31 1_555 1_555
C36 C37 1_555 1_555

#END
