
#######################################################################
#
#                 Cambridge Crystallographic Data Centre
#                                CCDC 
#
#######################################################################
#
# If this CIF has been generated from an entry in the Cambridge 
# Structural Database, then it will include bibliographic, chemical, 
# crystal, experimental, refinement or atomic coordinate data resulting 
# from the CCDC's data processing and validation procedures.
#
#######################################################################

data_NETGEZ
_symmetry_cell_setting           triclinic
_symmetry_space_group_name_H-M   'P -1'
_symmetry_Int_Tables_number      2
_space_group_name_Hall           '-P 1'
loop_
_symmetry_equiv_pos_site_id
_symmetry_equiv_pos_as_xyz
1 x,y,z
2 -x,-y,-z
_cell_length_a                   9.1433(4)
_cell_length_b                   16.1077(6)
_cell_length_c                   17.4365(7)
_cell_angle_alpha                114.815(2)
_cell_angle_beta                 91.345(2)
_cell_angle_gamma                92.087(2)
_cell_volume                     2327.22
loop_
_atom_site_label
_atom_site_type_symbol
_atom_site_fract_x
_atom_site_fract_y
_atom_site_fract_z
Cd1 Cd -0.43451(4) 0.72936(3) 0.97850(2)
Br1 Br -0.54329(7) 0.65207(4) 1.06550(4)
Br2 Br -0.56636(7) 0.79245(4) 0.88766(4)
N1 N -0.2917(5) 0.6198(3) 0.8896(3)
C1 C -0.2928(6) 0.5386(3) 0.8938(3)
H1 H -0.3469 0.5312 0.9351
C2 C -0.2183(7) 0.4660(4) 0.8402(4)
H2 H -0.2214 0.4109 0.8455
C3 C -0.1382(7) 0.4762(4) 0.7780(4)
H3 H -0.0883 0.4276 0.7400
C4 C -0.1342(6) 0.5589(3) 0.7739(3)
C5 C -0.2136(6) 0.6287(4) 0.8300(3)
H4 H -0.2121 0.6844 0.8257
C6 C -0.0448(6) 0.5704(4) 0.7073(3)
O1 O 0.0042(5) 0.5080(3) 0.6494(2)
O2 O -0.0274(4) 0.6595(2) 0.7224(2)
C7 C 0.0534(6) 0.6828(3) 0.6651(3)
C8 C 0.0084(6) 0.6507(4) 0.5811(3)
H5 H -0.0721 0.6096 0.5594
C9 C 0.0857(6) 0.6811(3) 0.5303(3)
H6 H 0.0567 0.6598 0.4735
C10 C 0.2069(6) 0.7433(3) 0.5618(3)
C11 C 0.2499(6) 0.7728(3) 0.6461(3)
H7 H 0.3313 0.8131 0.6681
C12 C 0.1726(6) 0.7430(3) 0.6980(3)
H8 H 0.2013 0.7636 0.7548
C13 C 0.2977(6) 0.7678(3) 0.5016(3)
C14 C 0.4138(6) 0.6956(3) 0.4647(3)
C15 C 0.3901(6) 0.6009(4) 0.4252(3)
H9 H 0.2959 0.5737 0.4136
C16 C 0.5125(7) 0.5487(4) 0.4037(3)
Br3 Br 0.48497(8) 0.41905(4) 0.35144(4)
C17 C 0.6547(7) 0.5875(4) 0.4189(3)
H10 H 0.7343 0.5505 0.4026
C18 C 0.6759(6) 0.6818(4) 0.4587(3)
H11 H 0.7700 0.7090 0.4698
C19 C 0.5542(6) 0.7354(4) 0.4819(3)
C20 C 0.5456(6) 0.8357(4) 0.5288(3)
C21 C 0.6542(6) 0.9060(3) 0.5578(3)
H12 H 0.7520 0.8926 0.5480
C22 C 0.6161(6) 0.9959(4) 0.6013(3)
H13 H 0.6876 1.0434 0.6198
C23 C 0.4699(6) 1.0140(4) 0.6169(3)
C24 C 0.3589(6) 0.9440(3) 0.5874(3)
H14 H 0.2611 0.9573 0.5973
Br4 Br 0.41879(7) 1.13654(4) 0.67962(4)
C25 C 0.3987(6) 0.8550(3) 0.5434(3)
C26 C 0.2029(6) 0.7812(3) 0.4334(3)
C27 C 0.2452(6) 0.7533(3) 0.3515(3)
H15 H 0.3284 0.7198 0.3345
C28 C 0.1653(6) 0.7744(3) 0.2939(3)
H16 H 0.1960 0.7567 0.2390
C29 C 0.0404(6) 0.8218(4) 0.3190(3)
C30 C -0.0054(6) 0.8499(4) 0.3998(4)
H17 H -0.0902 0.8821 0.4159
C31 C 0.0754(6) 0.8301(4) 0.4570(3)
H18 H 0.0450 0.8495 0.5121
O3 O -0.0449(4) 0.8369(2) 0.2574(2)
C32 C -0.0483(6) 0.9234(4) 0.2650(3)
O4 O 0.0176(5) 0.9884(3) 0.3185(3)
C33 C -0.1417(6) 0.9273(4) 0.1949(3)
C34 C -0.2241(6) 0.8520(4) 0.1374(3)
H19 H -0.2237 0.7974 0.1436
N2 N -0.3041(5) 0.8547(3) 0.0732(3)
C35 C -0.3058(6) 0.9339(4) 0.0658(4)
H20 H -0.3610 0.9362 0.0213
C36 C -0.2290(6) 1.0128(4) 0.1214(3)
H21 H -0.2337 1.0669 0.1146
C37 C -0.1444(6) 1.0097(4) 0.1877(4)
H22 H -0.0913 1.0615 0.2260
Cd1_2 Cd -0.43451(4) 0.72936(3) -0.02150(2)
N2_2 N -0.3041(5) 0.8547(3) 1.0732(3)
C38 C 0.8636(7) 0.2317(4) 0.9858(4)
H23 H 0.7877 0.2655 1.0236
Cl1 Cl 0.9713(2) 0.30865(13) 0.96224(13)
Cl2 Cl 0.7775(2) 0.14707(12) 0.89365(12)
Cl3 Cl 0.9706(2) 0.18094(17) 1.03823(15)
C39 C 0.2767(8) 0.1053(6) 0.2358(5)
H24 H 0.2120 0.0728 0.2593
Cl4 Cl 0.2944(3) 0.21389(15) 0.31103(14)
Cl5 Cl 0.1846(2) 0.09554(15) 0.14274(13)
Cl6 Cl 0.4359(2) 0.04753(12) 0.21623(11)
C40 C 0.7116(8) 0.5455(4) 0.1534(4)
H25 H 0.6186 0.5475 0.1253
Cl7 Cl 0.7044(2) 0.44965(12) 0.17616(12)
Cl8 Cl 0.8542(3) 0.5384(2) 0.08580(16)
Cl9 Cl 0.7383(4) 0.64516(15) 0.24553(15)
loop_
_geom_bond_atom_site_label_1
_geom_bond_atom_site_label_2
_geom_bond_site_symmetry_1
_geom_bond_site_symmetry_2
Cd1 Br1 1_555 1_555
Br2 Cd1 1_555 1_555
N1 Cd1 1_555 1_555
C1 N1 1_555 1_555
H1 C1 1_555 1_555
C2 C1 1_555 1_555
H2 C2 1_555 1_555
C3 C2 1_555 1_555
H3 C3 1_555 1_555
C4 C3 1_555 1_555
C5 N1 1_555 1_555
H4 C5 1_555 1_555
C6 C4 1_555 1_555
O1 C6 1_555 1_555
O2 C6 1_555 1_555
C7 O2 1_555 1_555
C8 C7 1_555 1_555
H5 C8 1_555 1_555
C9 C8 1_555 1_555
H6 C9 1_555 1_555
C10 C9 1_555 1_555
C11 C10 1_555 1_555
H7 C11 1_555 1_555
C12 C7 1_555 1_555
H8 C12 1_555 1_555
C13 C10 1_555 1_555
C14 C13 1_555 1_555
C15 C14 1_555 1_555
H9 C15 1_555 1_555
C16 C15 1_555 1_555
Br3 C16 1_555 1_555
C17 C16 1_555 1_555
H10 C17 1_555 1_555
C18 C17 1_555 1_555
H11 C18 1_555 1_555
C19 C14 1_555 1_555
C20 C19 1_555 1_555
C21 C20 1_555 1_555
H12 C21 1_555 1_555
C22 C21 1_555 1_555
H13 C22 1_555 1_555
C23 C22 1_555 1_555
C24 C23 1_555 1_555
H14 C24 1_555 1_555
Br4 C23 1_555 1_555
C25 C13 1_555 1_555
C26 C13 1_555 1_555
C27 C26 1_555 1_555
H15 C27 1_555 1_555
C28 C27 1_555 1_555
H16 C28 1_555 1_555
C29 C28 1_555 1_555
C30 C29 1_555 1_555
H17 C30 1_555 1_555
C31 C26 1_555 1_555
H18 C31 1_555 1_555
O3 C29 1_555 1_555
C32 O3 1_555 1_555
O4 C32 1_555 1_555
C33 C32 1_555 1_555
C34 C33 1_555 1_555
H19 C34 1_555 1_555
N2 C34 1_555 1_555
C35 N2 1_555 1_555
H20 C35 1_555 1_555
C36 C35 1_555 1_555
H21 C36 1_555 1_555
C37 C33 1_555 1_555
H22 C37 1_555 1_555
C38 H23 1_555 1_555
Cl1 C38 1_555 1_555
Cl2 C38 1_555 1_555
Cl3 C38 1_555 1_555
C39 H24 1_555 1_555
Cl4 C39 1_555 1_555
Cl5 C39 1_555 1_555
Cl6 C39 1_555 1_555
C40 H25 1_555 1_555
Cl7 C40 1_555 1_555
Cl8 C40 1_555 1_555
Cl9 C40 1_555 1_555
Cd1_2 N2 1_555 1_555
N2_2 Cd1 1_555 1_555
C4 C5 1_555 1_555
C11 C12 1_555 1_555
C18 C19 1_555 1_555
C20 C25 1_555 1_555
C24 C25 1_555 1_555
C30 C31 1_555 1_555
C36 C37 1_555 1_555

#END
