
#######################################################################
#
#                 Cambridge Crystallographic Data Centre
#                                CCDC 
#
#######################################################################
#
# If this CIF has been generated from an entry in the Cambridge 
# Structural Database, then it will include bibliographic, chemical, 
# crystal, experimental, refinement or atomic coordinate data resulting 
# from the CCDC's data processing and validation procedures.
#
#######################################################################

data_NETGUP
_symmetry_cell_setting           orthorhombic
_symmetry_space_group_name_H-M   'P b c a'
_symmetry_Int_Tables_number      61
_space_group_name_Hall           '-P 2ac 2ab'
loop_
_symmetry_equiv_pos_site_id
_symmetry_equiv_pos_as_xyz
1 x,y,z
2 1/2-x,-y,1/2+z
3 -x,1/2+y,1/2-z
4 1/2+x,1/2-y,-z
5 -x,-y,-z
6 1/2+x,y,1/2-z
7 x,1/2-y,1/2+z
8 1/2-x,1/2+y,z
_cell_length_a                   12.7500(11)
_cell_length_b                   16.1881(14)
_cell_length_c                   37.508(3)
_cell_angle_alpha                90
_cell_angle_beta                 90
_cell_angle_gamma                90
_cell_volume                     7741.59
loop_
_atom_site_label
_atom_site_type_symbol
_atom_site_fract_x
_atom_site_fract_y
_atom_site_fract_z
Hg1 Hg 0.54665(2) 0.14409(2) -0.003717(9)
Br1 Br 0.72067(6) 0.08807(6) 0.01301(3)
Br2 Br 0.40970(8) 0.16704(7) -0.04896(3)
N1 N 0.5556(5) 0.2821(4) 0.02068(19)
C1 C 0.4864(6) 0.3428(5) 0.0166(2)
H1 H 0.4269 0.3326 0.0020
C2 C 0.4952(6) 0.4184(5) 0.0321(2)
H2 H 0.4457 0.4605 0.0269
C3 C 0.5770(6) 0.4335(5) 0.0555(2)
C4 C 0.6487(6) 0.3715(5) 0.0606(3)
H3 H 0.7072 0.3799 0.0758
C5 C 0.6356(7) 0.2971(6) 0.0435(3)
H4 H 0.6849 0.2543 0.0478
C6 C 0.5867(6) 0.5140(5) 0.0744(2)
O1 O 0.5312(4) 0.5731(3) 0.07108(16)
O2 O 0.6686(4) 0.5076(3) 0.09732(14)
C7 C 0.7073(5) 0.5722(5) 0.1186(2)
C8 C 0.7078(6) 0.6549(5) 0.1094(2)
H5 H 0.6724 0.6738 0.0886
C9 C 0.7614(6) 0.7095(5) 0.1313(2)
H6 H 0.7616 0.7667 0.1255
C10 C 0.8154(5) 0.6828(4) 0.1617(2)
C11 C 0.8090(6) 0.6003(5) 0.1710(2)
H7 H 0.8409 0.5817 0.1925
C12 C 0.7569(6) 0.5447(5) 0.1496(2)
H8 H 0.7547 0.4878 0.1559
C13 C 0.8722(5) 0.7454(4) 0.1857(2)
C14 C 0.7951(5) 0.7883(4) 0.2113(2)
C15 C 0.7063(6) 0.8330(4) 0.2021(2)
H9 H 0.6855 0.8402 0.1780
C16 C 0.6495(6) 0.8669(5) 0.2303(3)
Br3 Br 0.52589(6) 0.92876(5) 0.21910(3)
C17 C 0.6773(6) 0.8559(5) 0.2652(3)
H10 H 0.6359 0.8798 0.2835
C18 C 0.7653(6) 0.8103(5) 0.2739(2)
H11 H 0.7855 0.8025 0.2980
C19 C 0.8237(6) 0.7761(5) 0.2460(2)
C20 C 0.9173(6) 0.7249(5) 0.2473(2)
C21 C 0.9780(6) 0.6969(5) 0.2763(2)
H12 H 0.9589 0.7103 0.3001
C22 C 1.0655(6) 0.6498(5) 0.2694(3)
H13 H 1.1069 0.6304 0.2887
C23 C 1.0944(6) 0.6302(5) 0.2348(3)
Br4 Br 1.21299(6) 0.56250(6) 0.22673(3)
C24 C 1.0363(6) 0.6587(5) 0.2055(2)
H14 H 1.0572 0.6469 0.1817
C25 C 0.9468(5) 0.7051(4) 0.2128(2)
C26 C 0.9392(5) 0.8062(5) 0.1635(2)
C27 C 0.9509(6) 0.8878(5) 0.1730(2)
H15 H 0.9097 0.9091 0.1920
C28 C 1.0216(6) 0.9408(5) 0.1555(2)
H16 H 1.0290 0.9970 0.1623
C29 C 1.0796(6) 0.9071(5) 0.1281(2)
C30 C 1.0686(6) 0.8267(6) 0.1176(2)
H17 H 1.1093 0.8058 0.0984
C31 C 0.9988(5) 0.7766(5) 0.1349(2)
H18 H 0.9907 0.7210 0.1274
O3 O 1.1486(4) 0.9587(4) 0.10833(15)
C32 C 1.2479(6) 0.9654(5) 0.1209(3)
O4 O 1.2770(4) 0.9373(4) 0.14868(19)
C33 C 1.3118(6) 1.0129(5) 0.0944(2)
C34 C 1.2708(6) 1.0527(5) 0.0654(2)
H19 H 1.1971 1.0533 0.0618
C35 C 1.3361(6) 1.0922(5) 0.0413(2)
H20 H 1.3059 1.1194 0.0214
N2 N 1.4421(5) 1.0932(4) 0.0453(2)
C36 C 1.4814(6) 1.0547(6) 0.0738(2)
H21 H 1.5554 1.0546 0.0768
C37 C 1.4221(6) 1.0154(5) 0.0992(3)
H22 H 1.4540 0.9905 0.1194
Hg1_2 Hg 1.54665(2) 1.14409(2) -0.003717(9)
N2_2 N 0.4421(5) 0.0932(4) 0.0453(2)
C38 C 0.3981(8) 0.7256(6) 0.1117(3)
H23 H 0.4507 0.6882 0.1002
Cl1 Cl 0.4678(2) 0.80021(18) 0.13572(8)
Cl2 Cl 0.32159(19) 0.76861(19) 0.07755(7)
Cl3 Cl 0.3223(3) 0.6656(2) 0.14030(8)
loop_
_geom_bond_atom_site_label_1
_geom_bond_atom_site_label_2
_geom_bond_site_symmetry_1
_geom_bond_site_symmetry_2
Hg1 Br1 1_555 1_555
Br2 Hg1 1_555 1_555
N1 Hg1 1_555 1_555
C1 N1 1_555 1_555
H1 C1 1_555 1_555
C2 C1 1_555 1_555
H2 C2 1_555 1_555
C3 C2 1_555 1_555
C4 C3 1_555 1_555
H3 C4 1_555 1_555
C5 N1 1_555 1_555
H4 C5 1_555 1_555
C6 C3 1_555 1_555
O1 C6 1_555 1_555
O2 C6 1_555 1_555
C7 O2 1_555 1_555
C8 C7 1_555 1_555
H5 C8 1_555 1_555
C9 C8 1_555 1_555
H6 C9 1_555 1_555
C10 C9 1_555 1_555
C11 C10 1_555 1_555
H7 C11 1_555 1_555
C12 C7 1_555 1_555
H8 C12 1_555 1_555
C13 C10 1_555 1_555
C14 C13 1_555 1_555
C15 C14 1_555 1_555
H9 C15 1_555 1_555
C16 C15 1_555 1_555
Br3 C16 1_555 1_555
C17 C16 1_555 1_555
H10 C17 1_555 1_555
C18 C17 1_555 1_555
H11 C18 1_555 1_555
C19 C14 1_555 1_555
C20 C19 1_555 1_555
C21 C20 1_555 1_555
H12 C21 1_555 1_555
C22 C21 1_555 1_555
H13 C22 1_555 1_555
C23 C22 1_555 1_555
Br4 C23 1_555 1_555
C24 C23 1_555 1_555
H14 C24 1_555 1_555
C25 C13 1_555 1_555
C26 C13 1_555 1_555
C27 C26 1_555 1_555
H15 C27 1_555 1_555
C28 C27 1_555 1_555
H16 C28 1_555 1_555
C29 C28 1_555 1_555
C30 C29 1_555 1_555
H17 C30 1_555 1_555
C31 C26 1_555 1_555
H18 C31 1_555 1_555
O3 C29 1_555 1_555
C32 O3 1_555 1_555
O4 C32 1_555 1_555
C33 C32 1_555 1_555
C34 C33 1_555 1_555
H19 C34 1_555 1_555
C35 C34 1_555 1_555
H20 C35 1_555 1_555
N2 C35 1_555 1_555
C36 N2 1_555 1_555
H21 C36 1_555 1_555
C37 C33 1_555 1_555
H22 C37 1_555 1_555
C38 H23 1_555 1_555
Cl1 C38 1_555 1_555
Cl2 C38 1_555 1_555
Cl3 C38 1_555 1_555
Hg1_2 N2 1_555 1_555
N2_2 Hg1 1_555 1_555
C4 C5 1_555 1_555
C11 C12 1_555 1_555
C18 C19 1_555 1_555
C20 C25 1_555 1_555
C24 C25 1_555 1_555
C30 C31 1_555 1_555
C36 C37 1_555 1_555

#END
