
#######################################################################
#
#                 Cambridge Crystallographic Data Centre
#                                CCDC 
#
#######################################################################
#
# If this CIF has been generated from an entry in the Cambridge 
# Structural Database, then it will include bibliographic, chemical, 
# crystal, experimental, refinement or atomic coordinate data resulting 
# from the CCDC's data processing and validation procedures.
#
#######################################################################

data_NETJIG
_symmetry_cell_setting           triclinic
_symmetry_space_group_name_H-M   'P -1'
_symmetry_Int_Tables_number      2
_space_group_name_Hall           '-P 1'
loop_
_symmetry_equiv_pos_site_id
_symmetry_equiv_pos_as_xyz
1 x,y,z
2 -x,-y,-z
_cell_length_a                   11.2284(16)
_cell_length_b                   13.9722(19)
_cell_length_c                   14.470(3)
_cell_angle_alpha                104.476(4)
_cell_angle_beta                 97.445(5)
_cell_angle_gamma                99.866(7)
_cell_volume                     2129.89
loop_
_atom_site_label
_atom_site_type_symbol
_atom_site_fract_x
_atom_site_fract_y
_atom_site_fract_z
Cd1 Cd 0.24699(8) 0.26909(6) 0.27888(9)
N1 N 0.1984(10) 0.3361(8) 0.5063(10)
O1 O 0.2166(9) 0.2655(7) 0.4357(8)
O2 O 0.1561(8) 0.3195(7) 0.5738(9)
O3 O 0.2199(10) 0.4239(7) 0.4928(9)
N2 N 0.2863(12) 0.2196(8) 0.0717(12)
O4 O 0.1963(9) 0.2431(7) 0.1023(8)
O5 O 0.2830(8) 0.1873(7) -0.0216(9)
O6 O 0.3856(10) 0.2265(8) 0.1272(10)
N3 N 0.4396(7) 0.2376(7) 0.3416(8)
C1 C 0.5424(8) 0.3029(8) 0.3377(10)
H1 H 0.5355 0.3500 0.3010
C2 C 0.6584(8) 0.3023(8) 0.3867(10)
H2 H 0.7286 0.3485 0.3823
C3 C 0.6718(7) 0.2349(7) 0.4416(8)
C4 C 0.5682(8) 0.1652(7) 0.4387(10)
H3 H 0.5737 0.1131 0.4695
C5 C 0.4559(8) 0.1708(8) 0.3910(9)
H4 H 0.3854 0.1237 0.3936
C6 C 0.8002(7) 0.2365(6) 0.4983(8)
H5 H 0.7850 0.1947 0.5441
C7 C 0.8751(8) 0.1847(6) 0.4303(9)
H6 H 0.9592 0.1934 0.4664
H7 H 0.8816 0.2182 0.3778
C8 C 0.8636(10) 0.3410(8) 0.5596(12)
H8 H 0.8099 0.3687 0.6027
H9 H 0.8820 0.3847 0.5175
H10 H 0.9403 0.3378 0.5985
C9 C 0.8219(9) 0.0734(6) 0.3855(8)
C10 C 0.7527(10) 0.0362(7) 0.2913(8)
H11 H 0.7460 0.0805 0.2516
C11 C 0.8332(10) 0.0060(7) 0.4398(8)
H12 H 0.8818 0.0296 0.5030
N4 N 0.0485(7) 0.3062(6) 0.2521(8)
C12 C 0.0278(8) 0.3974(7) 0.2992(9)
H13 H 0.0887 0.4407 0.3516
C13 C -0.0799(8) 0.4300(7) 0.2735(9)
H14 H -0.0882 0.4961 0.3054
C14 C -0.1746(8) 0.3661(6) 0.2016(8)
C15 C -0.1552(8) 0.2719(7) 0.1581(9)
H15 H -0.2173 0.2248 0.1092
C16 C -0.0458(8) 0.2457(7) 0.1854(9)
H16 H -0.0367 0.1796 0.1545
C17 C -0.2927(8) 0.4028(7) 0.1684(7)
H17 H -0.3640 0.3454 0.1588
C18 C -0.2890(8) 0.4226(7) 0.0712(7)
H18 H -0.2854 0.3590 0.0235
H19 H -0.2126 0.4725 0.0762
C19 C -0.3143(10) 0.4906(7) 0.2443(9)
H20 H -0.3168 0.4725 0.3053
H21 H -0.3927 0.5070 0.2225
H22 H -0.2475 0.5495 0.2545
C20 C -0.3969(8) 0.4616(7) 0.0335(9)
C21 C -0.5139(8) 0.3984(8) -0.0004(10)
H23 H -0.5260 0.3291 -0.0014
C22 C -0.3855(10) 0.5615(7) 0.0335(11)
H24 H -0.3070 0.6056 0.0565
N5 N 0.1730(8) 0.0957(6) 0.2431(8)
C23 C 0.2125(11) 0.0329(7) 0.1710(10)
H25 H 0.2766 0.0603 0.1420
C24 C 0.1612(12) -0.0709(7) 0.1384(10)
H26 H 0.1908 -0.1131 0.0881
C25 C 0.0670(9) -0.1125(6) 0.1795(8)
C26 C 0.0301(10) -0.0480(6) 0.2527(9)
H27 H -0.0325 -0.0730 0.2841
C27 C 0.0841(10) 0.0532(6) 0.2806(9)
H28 H 0.0552 0.0960 0.3308
C28 C 0.0065(12) -0.2273(6) 0.1462(10)
H29 H -0.0650 -0.2317 0.0952
C29 C 0.0852(12) -0.2856(6) 0.0914(11)
H30 H 0.1635 -0.2778 0.1356
H31 H 0.1049 -0.2551 0.0389
C30 C -0.0526(15) -0.2645(8) 0.2205(11)
H32 H -0.0320 -0.3293 0.2227
H33 H -0.1420 -0.2735 0.2036
H34 H -0.0229 -0.2151 0.2842
C31 C 0.0333(10) -0.3967(6) 0.0467(8)
C32 C -0.0395(10) -0.4325(8) -0.0464(8)
H35 H -0.0674 -0.3863 -0.0779
C33 C 0.0704(9) -0.4655(7) 0.0919(9)
H36 H 0.1182 -0.4419 0.1554
N6 N 0.3443(8) -0.5628(6) 0.2935(7)
C34 C 0.3338(10) -0.5255(7) 0.2152(8)
H37 H 0.2887 -0.5685 0.1547
C35 C 0.3875(10) -0.4253(7) 0.2215(8)
H38 H 0.3801 -0.4011 0.1656
C36 C 0.4515(9) -0.3617(6) 0.3103(7)
C37 C 0.4623(10) -0.4007(6) 0.3885(8)
H39 H 0.5081 -0.3598 0.4497
C38 C 0.4062(10) -0.4995(6) 0.3773(7)
H40 H 0.4119 -0.5241 0.4330
C39 C 0.5099(8) -0.2493(6) 0.3204(9)
H41 H 0.5356 -0.2164 0.3918
C40 C 0.6259(8) -0.2397(6) 0.2792(9)
H42 H 0.6046 -0.2620 0.2074
H43 H 0.6760 -0.2850 0.2998
C41 C 0.4192(10) -0.1934(8) 0.2854(14)
H44 H 0.3478 -0.2013 0.3174
H45 H 0.3927 -0.2209 0.2150
H46 H 0.4578 -0.1215 0.3009
C42 C 0.7013(9) -0.1328(6) 0.3111(8)
C43 C 0.7746(9) -0.0965(7) 0.4039(8)
H47 H 0.7845 -0.1414 0.4426
C44 C 0.6928(11) -0.0669(7) 0.2550(9)
H48 H 0.6460 -0.0911 0.1910
Cd1_2 Cd 0.24699(8) 1.26909(6) 0.27888(9)
Cd1_3 Cd 0.24699(8) -0.73091(6) 0.27888(9)
Cd1A Cd -1.24699(8) 0.73091(6) -0.27888(9)
Cd1A_2 Cd -0.24699(8) -1.26909(6) -0.27888(9)
N1_2 N 0.1984(10) 1.3361(8) 0.5063(10)
O1_2 O 0.2166(9) 1.2655(7) 0.4357(8)
O2_2 O 0.1561(8) 1.3195(7) 0.5738(9)
O3_2 O 0.2199(10) 1.4239(7) 0.4928(9)
N2_2 N 0.2863(12) 1.2196(8) 0.0717(12)
O4_2 O 0.1963(9) 1.2431(7) 0.1023(8)
O5_2 O 0.2830(8) 1.1873(7) -0.0216(9)
O6_2 O 0.3856(10) 1.2265(8) 0.1272(10)
N3_2 N 0.4396(7) 1.2376(7) 0.3416(8)
C1_2 C 0.5424(8) 1.3029(8) 0.3377(10)
H1_2 H 0.5355 1.3500 0.3010
C2_2 C 0.6584(8) 1.3023(8) 0.3867(10)
H2_2 H 0.7286 1.3485 0.3823
C3_2 C 0.6718(7) 1.2349(7) 0.4416(8)
C4_2 C 0.5682(8) 1.1652(7) 0.4387(10)
H3_2 H 0.5737 1.1131 0.4695
C5_2 C 0.4559(8) 1.1708(8) 0.3910(9)
H4_2 H 0.3854 1.1237 0.3936
C6_2 C 0.8002(7) 1.2365(6) 0.4983(8)
H5_2 H 0.7850 1.1947 0.5441
C7_2 C 0.8751(8) 1.1847(6) 0.4303(9)
H6_2 H 0.9592 1.1934 0.4664
H7_2 H 0.8816 1.2182 0.3778
C8_2 C 0.8636(10) 1.3410(8) 0.5596(12)
H8_2 H 0.8099 1.3687 0.6027
H9_2 H 0.8820 1.3847 0.5175
H10_2 H 0.9403 1.3378 0.5985
C9_2 C 0.8219(9) 1.0734(6) 0.3855(8)
C10_2 C 0.7527(10) 1.0362(7) 0.2913(8)
H11_2 H 0.7460 1.0805 0.2516
C11_2 C 0.8332(10) 1.0060(7) 0.4398(8)
H12_2 H 0.8818 1.0296 0.5030
N4A N -1.0485(7) 0.6938(6) -0.2521(8)
N4_2 N 0.0485(7) 1.3062(6) 0.2521(8)
C12A C -1.0278(8) 0.6026(7) -0.2992(9)
H13A H -1.0887 0.5593 -0.3516
C13A C -0.9201(8) 0.5700(7) -0.2735(9)
H14A H -0.9118 0.5039 -0.3054
C14A C -0.8254(8) 0.6339(6) -0.2016(8)
C15A C -0.8448(8) 0.7281(7) -0.1581(9)
H15A H -0.7827 0.7752 -0.1092
C16A C -0.9542(8) 0.7543(7) -0.1854(9)
H16A H -0.9633 0.8204 -0.1545
C17A C -0.7073(8) 0.5972(7) -0.1684(7)
H17A H -0.6360 0.6546 -0.1588
C18A C -0.7110(8) 0.5774(7) -0.0712(7)
H18A H -0.7146 0.6410 -0.0235
H19A H -0.7874 0.5275 -0.0762
C19A C -0.6857(10) 0.5094(7) -0.2443(9)
H20A H -0.6832 0.5275 -0.3053
H21A H -0.6073 0.4930 -0.2225
H22A H -0.7525 0.4505 -0.2545
C20A C -0.6031(8) 0.5384(7) -0.0335(9)
C21A C -0.4861(8) 0.6016(8) 0.0004(10)
H23A H -0.4740 0.6709 0.0014
C22A C -0.6145(10) 0.4385(7) -0.0335(11)
H24A H -0.6930 0.3944 -0.0565
N5A N -0.1730(8) -1.0957(6) -0.2431(8)
N5_2 N 0.1730(8) 1.0957(6) 0.2431(8)
C23A C -0.2125(11) -1.0329(7) -0.1710(10)
H25A H -0.2766 -1.0603 -0.1420
C24A C -0.1612(12) -0.9291(7) -0.1384(10)
H26A H -0.1908 -0.8869 -0.0881
C25A C -0.0670(9) -0.8875(6) -0.1795(8)
C26A C -0.0301(10) -0.9520(6) -0.2527(9)
H27A H 0.0325 -0.9270 -0.2841
C27A C -0.0841(10) -1.0532(6) -0.2806(9)
H28A H -0.0552 -1.0960 -0.3308
C28A C -0.0065(12) -0.7727(6) -0.1462(10)
H29A H 0.0650 -0.7683 -0.0952
C29A C -0.0852(12) -0.7144(6) -0.0914(11)
H30A H -0.1635 -0.7222 -0.1356
H31A H -0.1049 -0.7449 -0.0389
C30A C 0.0526(15) -0.7355(8) -0.2205(11)
H32A H 0.0320 -0.6707 -0.2227
H33A H 0.1420 -0.7265 -0.2036
H34A H 0.0229 -0.7849 -0.2842
C31A C -0.0333(10) -0.6033(6) -0.0467(8)
C32A C 0.0395(10) -0.5675(8) 0.0464(8)
H35A H 0.0674 -0.6137 0.0779
C33A C -0.0704(9) -0.5345(7) -0.0919(9)
H36A H -0.1182 -0.5581 -0.1554
N6_2 N 0.3443(8) 0.4372(6) 0.2935(7)
N6_3 N 0.3443(8) 1.4372(6) 0.2935(7)
C34_2 C 0.3338(10) 0.4745(7) 0.2152(8)
H37_2 H 0.2887 0.4315 0.1547
C35_2 C 0.3875(10) 0.5747(7) 0.2215(8)
H38_2 H 0.3801 0.5989 0.1656
C36_2 C 0.4515(9) 0.6383(6) 0.3103(7)
C37_2 C 0.4623(10) 0.5993(6) 0.3885(8)
H39_2 H 0.5081 0.6402 0.4497
C38_2 C 0.4062(10) 0.5005(6) 0.3773(7)
H40_2 H 0.4119 0.4759 0.4330
C39_2 C 0.5099(8) 0.7507(6) 0.3204(9)
H41_2 H 0.5356 0.7836 0.3918
C40_2 C 0.6259(8) 0.7603(6) 0.2792(9)
H42_2 H 0.6046 0.7380 0.2074
H43_2 H 0.6760 0.7150 0.2998
C41_2 C 0.4192(10) 0.8066(8) 0.2854(14)
H44_2 H 0.3478 0.7987 0.3174
H45_2 H 0.3927 0.7791 0.2150
H46_2 H 0.4578 0.8785 0.3009
C42_2 C 0.7013(9) 0.8672(6) 0.3111(8)
C43_2 C 0.7746(9) 0.9035(7) 0.4039(8)
H47_2 H 0.7845 0.8586 0.4426
C44_2 C 0.6928(11) 0.9331(7) 0.2550(9)
H48_2 H 0.6460 0.9089 0.1910
O7 O 0.5625(17) 0.1275(14) -0.0051(19)
O8? O 0.556(2) 0.0415(19) 0.026(2)
loop_
_geom_bond_atom_site_label_1
_geom_bond_atom_site_label_2
_geom_bond_site_symmetry_1
_geom_bond_site_symmetry_2
Cd1 O1 1_555 1_555
N1 O1 1_555 1_555
O2 N1 1_555 1_555
O3 N1 1_555 1_555
N2 O4 1_555 1_555
O4 Cd1 1_555 1_555
O5 N2 1_555 1_555
O6 N2 1_555 1_555
N3 Cd1 1_555 1_555
C1 N3 1_555 1_555
H1 C1 1_555 1_555
C2 C1 1_555 1_555
H2 C2 1_555 1_555
C3 C2 1_555 1_555
C4 C3 1_555 1_555
H3 C4 1_555 1_555
C5 N3 1_555 1_555
H4 C5 1_555 1_555
C6 C3 1_555 1_555
H5 C6 1_555 1_555
C7 C6 1_555 1_555
H6 C7 1_555 1_555
H7 C7 1_555 1_555
C8 C6 1_555 1_555
H8 C8 1_555 1_555
H9 C8 1_555 1_555
H10 C8 1_555 1_555
C9 C7 1_555 1_555
C10 C9 1_555 1_555
H11 C10 1_555 1_555
C11 C9 1_555 1_555
H12 C11 1_555 1_555
N4 Cd1 1_555 1_555
C12 N4 1_555 1_555
H13 C12 1_555 1_555
C13 C12 1_555 1_555
H14 C13 1_555 1_555
C14 C13 1_555 1_555
C15 C14 1_555 1_555
H15 C15 1_555 1_555
C16 N4 1_555 1_555
H16 C16 1_555 1_555
C17 C14 1_555 1_555
H17 C17 1_555 1_555
C18 C17 1_555 1_555
H18 C18 1_555 1_555
H19 C18 1_555 1_555
C19 C17 1_555 1_555
H20 C19 1_555 1_555
H21 C19 1_555 1_555
H22 C19 1_555 1_555
C20 C18 1_555 1_555
C21 C20 1_555 1_555
H23 C21 1_555 1_555
C22 C20 1_555 1_555
H24 C22 1_555 1_555
N5 Cd1 1_555 1_555
C23 N5 1_555 1_555
H25 C23 1_555 1_555
C24 C23 1_555 1_555
H26 C24 1_555 1_555
C25 C24 1_555 1_555
C26 C25 1_555 1_555
H27 C26 1_555 1_555
C27 N5 1_555 1_555
H28 C27 1_555 1_555
C28 C25 1_555 1_555
H29 C28 1_555 1_555
C29 C28 1_555 1_555
H30 C29 1_555 1_555
H31 C29 1_555 1_555
C30 C28 1_555 1_555
H32 C30 1_555 1_555
H33 C30 1_555 1_555
H34 C30 1_555 1_555
C31 C29 1_555 1_555
C32 C31 1_555 1_555
H35 C32 1_555 1_555
C33 C31 1_555 1_555
H36 C33 1_555 1_555
N6 C34 1_555 1_555
C34 H37 1_555 1_555
C35 C34 1_555 1_555
H38 C35 1_555 1_555
C36 C35 1_555 1_555
C37 C36 1_555 1_555
H39 C37 1_555 1_555
C38 N6 1_555 1_555
H40 C38 1_555 1_555
C39 C36 1_555 1_555
H41 C39 1_555 1_555
C40 C39 1_555 1_555
H42 C40 1_555 1_555
H43 C40 1_555 1_555
C41 C39 1_555 1_555
H44 C41 1_555 1_555
H45 C41 1_555 1_555
H46 C41 1_555 1_555
C42 C40 1_555 1_555
C43 C11 1_555 1_555
H47 C43 1_555 1_555
C44 C10 1_555 1_555
H48 C44 1_555 1_555
Cd1_2 O1_2 1_555 1_555
Cd1_3 N6 1_555 1_555
Cd1A N4A 1_555 1_555
Cd1A_2 N5A 1_555 1_555
N1_2 O1_2 1_555 1_555
O2_2 N1_2 1_555 1_555
O3_2 N1_2 1_555 1_555
N2_2 O4_2 1_555 1_555
O4_2 Cd1_2 1_555 1_555
O5_2 N2_2 1_555 1_555
O6_2 N2_2 1_555 1_555
N3_2 Cd1_2 1_555 1_555
C1_2 N3_2 1_555 1_555
H1_2 C1_2 1_555 1_555
C2_2 C1_2 1_555 1_555
H2_2 C2_2 1_555 1_555
C3_2 C2_2 1_555 1_555
C4_2 C3_2 1_555 1_555
H3_2 C4_2 1_555 1_555
C5_2 N3_2 1_555 1_555
H4_2 C5_2 1_555 1_555
C6_2 C3_2 1_555 1_555
H5_2 C6_2 1_555 1_555
C7_2 C6_2 1_555 1_555
H6_2 C7_2 1_555 1_555
H7_2 C7_2 1_555 1_555
C8_2 C6_2 1_555 1_555
H8_2 C8_2 1_555 1_555
H9_2 C8_2 1_555 1_555
H10_2 C8_2 1_555 1_555
C9_2 C7_2 1_555 1_555
C10_2 C9_2 1_555 1_555
H11_2 C10_2 1_555 1_555
C11_2 C9_2 1_555 1_555
H12_2 C11_2 1_555 1_555
N4A C12A 1_555 1_555
N4_2 Cd1_2 1_555 1_555
C12A H13A 1_555 1_555
C13A C12A 1_555 1_555
H14A C13A 1_555 1_555
C14A C13A 1_555 1_555
C15A C14A 1_555 1_555
H15A C15A 1_555 1_555
C16A N4A 1_555 1_555
H16A C16A 1_555 1_555
C17A C14A 1_555 1_555
H17A C17A 1_555 1_555
C18A C17A 1_555 1_555
H18A C18A 1_555 1_555
H19A C18A 1_555 1_555
C19A C17A 1_555 1_555
H20A C19A 1_555 1_555
H21A C19A 1_555 1_555
H22A C19A 1_555 1_555
C20A C18A 1_555 1_555
C21A C22 1_555 1_555
H23A C21A 1_555 1_555
C22A C21 1_555 1_555
H24A C22A 1_555 1_555
N5A C23A 1_555 1_555
N5_2 Cd1_2 1_555 1_555
C23A H25A 1_555 1_555
C24A C23A 1_555 1_555
H26A C24A 1_555 1_555
C25A C24A 1_555 1_555
C26A C25A 1_555 1_555
H27A C26A 1_555 1_555
C27A N5A 1_555 1_555
H28A C27A 1_555 1_555
C28A C25A 1_555 1_555
H29A C28A 1_555 1_555
C29A C28A 1_555 1_555
H30A C29A 1_555 1_555
H31A C29A 1_555 1_555
C30A C28A 1_555 1_555
H32A C30A 1_555 1_555
H33A C30A 1_555 1_555
H34A C30A 1_555 1_555
C31A C29A 1_555 1_555
C32A C33 1_555 1_555
H35A C32A 1_555 1_555
C33A C32 1_555 1_555
H36A C33A 1_555 1_555
N6_2 Cd1 1_555 1_555
N6_3 Cd1_2 1_555 1_555
C34_2 N6_2 1_555 1_555
H37_2 C34_2 1_555 1_555
C35_2 C34_2 1_555 1_555
H38_2 C35_2 1_555 1_555
C36_2 C35_2 1_555 1_555
C37_2 C36_2 1_555 1_555
H39_2 C37_2 1_555 1_555
C38_2 N6_2 1_555 1_555
H40_2 C38_2 1_555 1_555
C39_2 C36_2 1_555 1_555
H41_2 C39_2 1_555 1_555
C40_2 C39_2 1_555 1_555
H42_2 C40_2 1_555 1_555
H43_2 C40_2 1_555 1_555
C41_2 C39_2 1_555 1_555
H44_2 C41_2 1_555 1_555
H45_2 C41_2 1_555 1_555
H46_2 C41_2 1_555 1_555
C42_2 C40_2 1_555 1_555
C43_2 C11_2 1_555 1_555
H47_2 C43_2 1_555 1_555
C44_2 C10_2 1_555 1_555
H48_2 C44_2 1_555 1_555
C4 C5 1_555 1_555
C15 C16 1_555 1_555
C26 C27 1_555 1_555
C37 C38 1_555 1_555
C42 C43 1_555 1_555
C42 C44 1_555 1_555
C4_2 C5_2 1_555 1_555
C15A C16A 1_555 1_555
C20A C21A 1_555 1_555
C20A C22A 1_555 1_555
C26A C27A 1_555 1_555
C31A C32A 1_555 1_555
C31A C33A 1_555 1_555
C37_2 C38_2 1_555 1_555
C42_2 C43_2 1_555 1_555
C42_2 C44_2 1_555 1_555

#END
