
#######################################################################
#
#                 Cambridge Crystallographic Data Centre
#                                CCDC 
#
#######################################################################
#
# If this CIF has been generated from an entry in the Cambridge 
# Structural Database, then it will include bibliographic, chemical, 
# crystal, experimental, refinement or atomic coordinate data resulting 
# from the CCDC's data processing and validation procedures.
#
#######################################################################

data_NETQEJ
_symmetry_cell_setting           monoclinic
_symmetry_space_group_name_H-M   'C 2/c'
_symmetry_Int_Tables_number      15
_space_group_name_Hall           '-C 2yn'
loop_
_symmetry_equiv_pos_site_id
_symmetry_equiv_pos_as_xyz
1 x,y,z
2 1/2+x,1/2+y,z
3 -x,y,1/2-z
4 1/2-x,1/2+y,1/2-z
5 -x,-y,-z
6 1/2-x,1/2-y,-z
7 x,-y,1/2+z
8 1/2+x,1/2-y,1/2+z
_cell_length_a                   20.934(6)
_cell_length_b                   9.529(3)
_cell_length_c                   10.578(3)
_cell_angle_alpha                90
_cell_angle_beta                 115.762(4)
_cell_angle_gamma                90
_cell_volume                     1900.37
loop_
_atom_site_label
_atom_site_type_symbol
_atom_site_fract_x
_atom_site_fract_y
_atom_site_fract_z
Ag1 Ag 0.44773(6) 0.14198(11) 0.46670(13)
N1 N 0.3518(5) 0.2773(10) 0.4303(11)
N2 N 0.4713(5) 0.2929(11) 0.6840(11)
C1 C 0.2436(7) 0.3855(13) 0.3352(15)
H1 H 0.1991 0.4098 0.2658
C2 C 0.2898(7) 0.2970(13) 0.3174(14)
H2 H 0.2792 0.2528 0.2322
C3 C 0.3544(6) 0.3479(11) 0.5394(14)
C4 C 0.4149(6) 0.3516(11) 0.6794(14)
C5 C 0.4085(8) 0.4228(15) 0.7964(15)
H3 H 0.4252 0.3619 0.8766
H4 H 0.3596 0.4460 0.7696
H5 H 0.4363 0.5071 0.8194
O1 O 0.5636(6) 0.1017(10) 0.4885(12)
O2 O 0.6063(8) 0.0767(17) 0.3014(14)
O3 O 0.6728(5) 0.1991(15) 0.5088(13)
H6 H 0.6906 0.2463 0.4675
O4 O 0.5725(6) 0.3051(11) 0.3626(12)
H7 H 0.5333 0.3025 0.2953
P1 P 0.59860(17) 0.1570(4) 0.4076(4)
S1 S 0.27855(17) 0.4444(3) 0.5007(4)
Ag1B Ag 0.55227(6) 0.14198(11) 1.03330(13)
Ag1D Ag 0.55227(6) -0.14198(11) 0.53330(13)
N1B N 0.6482(5) 0.2773(10) 1.0697(11)
N2B N 0.5287(5) 0.2929(11) 0.8160(11)
C1B C 0.7564(7) 0.3855(13) 1.1648(15)
H1B H 0.8009 0.4098 1.2342
C2B C 0.7102(7) 0.2970(13) 1.1826(14)
H2B H 0.7208 0.2528 1.2678
C3B C 0.6456(6) 0.3479(11) 0.9606(14)
C4B C 0.5851(6) 0.3516(11) 0.8206(14)
C5B C 0.5915(8) 0.4228(15) 0.7036(15)
H3B H 0.5748 0.3619 0.6234
H4B H 0.6404 0.4460 0.7304
H5B H 0.5637 0.5071 0.6806
O1D O 0.4364(6) -0.1017(10) 0.5115(12)
O1F O 0.5636(6) -0.1017(10) 0.9885(12)
O1B O 0.4364(6) 0.1017(10) 1.0115(12)
O2D O 0.3937(8) -0.0767(17) 0.6986(14)
O3D O 0.3272(5) -0.1991(15) 0.4912(13)
H6D H 0.3094 -0.2463 0.5325
O4D O 0.4275(6) -0.3051(11) 0.6374(12)
H7D H 0.4667 -0.3025 0.7047
P1D P 0.40140(17) -0.1570(4) 0.5924(4)
S1B S 0.72145(17) 0.4444(3) 0.9993(4)
loop_
_geom_bond_atom_site_label_1
_geom_bond_atom_site_label_2
_geom_bond_site_symmetry_1
_geom_bond_site_symmetry_2
Ag1 N1 1_555 1_555
N1 C2 1_555 1_555
N2 Ag1 1_555 1_555
C1 H1 1_555 1_555
C2 C1 1_555 1_555
H2 C2 1_555 1_555
C3 N1 1_555 1_555
C4 N2 1_555 1_555
C5 C4 1_555 1_555
H3 C5 1_555 1_555
H4 C5 1_555 1_555
H5 C5 1_555 1_555
O1 Ag1 1_555 1_555
O2 P1 1_555 1_555
O3 H6 1_555 1_555
O4 H7 1_555 1_555
P1 O1 1_555 1_555
S1 C1 1_555 1_555
Ag1B N1B 1_555 1_555
Ag1D O1 1_555 1_555
N1B C2B 1_555 1_555
N2B N2 1_555 1_555
C1B H1B 1_555 1_555
C2B C1B 1_555 1_555
H2B C2B 1_555 1_555
C3B N1B 1_555 1_555
C4B N2B 1_555 1_555
C5B C4B 1_555 1_555
H3B C5B 1_555 1_555
H4B C5B 1_555 1_555
H5B C5B 1_555 1_555
O1D Ag1 1_555 1_555
O1F Ag1B 1_555 1_555
O1B Ag1B 1_555 1_555
O2D P1D 1_555 1_555
O3D H6D 1_555 1_555
O4D H7D 1_555 1_555
P1D O1D 1_555 1_555
S1B C1B 1_555 1_555
C3 C4 1_555 1_555
C3 S1 1_555 1_555
O3 P1 1_555 1_555
O4 P1 1_555 1_555
Ag1B N2B 1_555 1_555
Ag1D O1D 1_555 1_555
C3B C4B 1_555 1_555
C3B S1B 1_555 1_555
O3D P1D 1_555 1_555
O4D P1D 1_555 1_555

#END
