
#######################################################################
#
#                 Cambridge Crystallographic Data Centre
#                                CCDC 
#
#######################################################################
#
# If this CIF has been generated from an entry in the Cambridge 
# Structural Database, then it will include bibliographic, chemical, 
# crystal, experimental, refinement or atomic coordinate data resulting 
# from the CCDC's data processing and validation procedures.
#
#######################################################################

data_NETREL
_symmetry_cell_setting           monoclinic
_symmetry_space_group_name_H-M   'P 21/c'
_symmetry_Int_Tables_number      14
_space_group_name_Hall           '-P 2ybc'
loop_
_symmetry_equiv_pos_site_id
_symmetry_equiv_pos_as_xyz
1 x,y,z
2 -x,1/2+y,1/2-z
3 -x,-y,-z
4 x,1/2-y,1/2+z
_cell_length_a                   15.980(3)
_cell_length_b                   20.925(4)
_cell_length_c                   6.5967(13)
_cell_angle_alpha                90
_cell_angle_beta                 93.06(3)
_cell_angle_gamma                90
_cell_volume                     2202.67
loop_
_atom_site_label
_atom_site_type_symbol
_atom_site_fract_x
_atom_site_fract_y
_atom_site_fract_z
C1 C 0.5973(5) 0.5981(4) 0.2091(13)
C2 C 0.6851(5) 0.5681(4) 0.2356(13)
C3 C 0.7555(5) 0.6071(4) 0.2335(14)
H1 H 0.7496 0.6507 0.2092
C4 C 0.8343(6) 0.5809(4) 0.2677(15)
H2 H 0.8811 0.6074 0.2745
C5 C 0.8444(5) 0.5159(4) 0.2917(12)
H3 H 0.8978 0.4983 0.3069
C6 C 0.7749(5) 0.4776(4) 0.2931(10)
H4 H 0.7818 0.4339 0.3121
C7 C 0.6942(4) 0.5025(3) 0.2667(10)
C8 C 0.6191(5) 0.4568(3) 0.2599(8)
C9 C 0.5865(6) 0.2874(4) 0.7696(10)
H5 H 0.5288 0.2935 0.7621
C10 C 0.6161(6) 0.2245(4) 0.7724(11)
H6 H 0.5797 0.1898 0.7676
C11 C 0.7041(6) 0.2163(4) 0.7829(12)
H7 H 0.7268 0.1753 0.7888
C12 C 0.7557(5) 0.2680(3) 0.7846(10)
C13 C 0.7189(5) 0.3300(3) 0.7832(9)
C14 C 0.7704(5) 0.3876(4) 0.7915(10)
C15 C 0.7796(5) 0.4969(4) 0.7893(11)
H8 H 0.7523 0.5362 0.7868
C16 C 0.8660(7) 0.4975(5) 0.8004(13)
H9 H 0.8956 0.5357 0.8035
C17 C 0.9066(6) 0.4401(5) 0.8066(14)
H10 H 0.9649 0.4391 0.8156
C18 C 0.8603(5) 0.3815(4) 0.7991(11)
C19 C 0.8976(6) 0.3177(5) 0.7971(12)
C20 C 0.8464(6) 0.2641(4) 0.7950(11)
C21 C 1.0146(7) 0.2579(7) 0.8139(15)
H11 H 1.0726 0.2540 0.8217
C22 C 0.9659(7) 0.2021(6) 0.8080(13)
C23 C 1.0083(10) 0.1411(6) 0.815(2)
H12 H 1.0338 0.1339 0.6883
H13 H 0.9686 0.1078 0.8371
H14 H 1.0508 0.1412 0.9234
Mn1 Mn 0.58969(7) 0.44110(4) 0.76021(15)
N1 N 0.6343(4) 0.3388(2) 0.7767(8)
N2 N 0.7324(4) 0.4451(3) 0.7819(8)
N3 N 0.8816(6) 0.2042(4) 0.7959(10)
N4 N 0.9814(5) 0.3155(5) 0.8088(13)
O1 O 0.5403(3) 0.5720(2) 0.2934(8)
O2 O 0.5881(5) 0.6448(4) 0.0979(13)
O3 O 0.5845(3) 0.4438(2) 0.0832(8)
O4 O 0.5992(3) 0.4326(2) 0.4313(8)
O5 O 0.5828(4) 0.5444(2) 0.7194(8)
H15 H 0.5807 0.5544 0.5772
H16 H 0.5332 0.5602 0.7782
Mn1B Mn 0.41031(7) 0.55890(4) 0.23979(15)
Mn1_2 Mn 0.58969(7) 0.44110(4) -0.23979(15)
O1B O 0.4597(3) 0.4280(2) 0.7066(8)
O3_2 O 0.5845(3) 0.4438(2) 1.0832(8)
O6 O 0.3300(14) 0.2598(11) 0.102(4)
H17 H 0.3390 0.2698 -0.0201
H18 H 0.3406 0.2203 0.1204
loop_
_geom_bond_atom_site_label_1
_geom_bond_atom_site_label_2
_geom_bond_site_symmetry_1
_geom_bond_site_symmetry_2
C1 C2 1_555 1_555
C2 C3 1_555 1_555
C3 H1 1_555 1_555
C4 C3 1_555 1_555
H2 C4 1_555 1_555
C5 C4 1_555 1_555
H3 C5 1_555 1_555
C6 C5 1_555 1_555
H4 C6 1_555 1_555
C7 C2 1_555 1_555
C8 C7 1_555 1_555
C9 H5 1_555 1_555
C10 C9 1_555 1_555
H6 C10 1_555 1_555
C11 C10 1_555 1_555
H7 C11 1_555 1_555
C12 C11 1_555 1_555
C13 C12 1_555 1_555
C14 C13 1_555 1_555
C15 H8 1_555 1_555
C16 C15 1_555 1_555
H9 C16 1_555 1_555
C17 C16 1_555 1_555
H10 C17 1_555 1_555
C18 C14 1_555 1_555
C19 C18 1_555 1_555
C20 C12 1_555 1_555
C21 H11 1_555 1_555
C22 C21 1_555 1_555
C23 C22 1_555 1_555
H12 C23 1_555 1_555
H13 C23 1_555 1_555
H14 C23 1_555 1_555
Mn1 N1 1_555 1_555
N1 C9 1_555 1_555
N2 C14 1_555 1_555
N3 C20 1_555 1_555
N4 C19 1_555 1_555
O1 C1 1_555 1_555
O2 C1 1_555 1_555
O3 C8 1_555 1_555
O4 C8 1_555 1_555
O5 Mn1 1_555 1_555
H15 O5 1_555 1_555
H16 O5 1_555 1_555
O6 H17 1_555 1_555
H18 O6 1_555 1_555
Mn1B O1 1_555 1_555
Mn1_2 O3 1_555 1_555
O1B Mn1 1_555 1_555
O3_2 Mn1 1_555 1_555
C6 C7 1_555 1_555
C13 N1 1_555 1_555
C15 N2 1_555 1_555
C17 C18 1_555 1_555
C19 C20 1_555 1_555
C21 N4 1_555 1_555
C22 N3 1_555 1_555
Mn1 N2 1_555 1_555
Mn1 O4 1_555 1_555

#END
