
#######################################################################
#
#                 Cambridge Crystallographic Data Centre
#                                CCDC 
#
#######################################################################
#
# If this CIF has been generated from an entry in the Cambridge 
# Structural Database, then it will include bibliographic, chemical, 
# crystal, experimental, refinement or atomic coordinate data resulting 
# from the CCDC's data processing and validation procedures.
#
#######################################################################

data_NETSIQ
_symmetry_cell_setting           orthorhombic
_symmetry_space_group_name_H-M   'P 21 21 21'
_symmetry_Int_Tables_number      19
_space_group_name_Hall           'P 2ac 2ab'
loop_
_symmetry_equiv_pos_site_id
_symmetry_equiv_pos_as_xyz
1 x,y,z
2 1/2-x,-y,1/2+z
3 1/2+x,1/2-y,-z
4 -x,1/2+y,1/2-z
_cell_length_a                   11.119(3)
_cell_length_b                   11.572(3)
_cell_length_c                   16.467(4)
_cell_angle_alpha                90
_cell_angle_beta                 90
_cell_angle_gamma                90
_cell_volume                     2118.79
loop_
_atom_site_label
_atom_site_type_symbol
_atom_site_fract_x
_atom_site_fract_y
_atom_site_fract_z
Br1 Br -0.55129(10) 0.96171(11) 0.06363(6)
Br2 Br 0.68394(10) 0.67135(11) 0.28623(8)
Mn1 Mn 0.05359(13) 0.83784(11) 0.21972(8)
O1 O 0.1822(6) 0.7641(6) 0.1681(4)
O2 O -0.0584(6) 0.7848(5) 0.1445(4)
N1 N 0.1628(7) 0.9128(6) 0.2989(4)
N2 N -0.0675(7) 0.9312(6) 0.2777(4)
N3 N 0.0210(9) 0.6917(7) 0.3100(6)
N4 N -0.0684(9) 0.5168(7) 0.3670(5)
N5 N -0.1545(15) 0.5007(10) 0.5027(8)
C1 C -0.1659(9) 0.8278(8) 0.1275(5)
C2 C -0.3942(9) 0.9123(9) 0.0886(6)
C3 C 0.2926(10) 0.7498(8) 0.1951(6)
C4 C -0.3384(10) 0.9525(9) 0.1528(5)
H1 H -0.3768 1.0076 0.1847
C5 C 0.3703(10) 0.6750(9) 0.1531(6)
H2 H 0.3432 0.6381 0.1063
C6 C 0.4836(10) 0.6557(10) 0.1794(6)
H3 H 0.5336 0.6077 0.1491
C7 C 0.3394(9) 0.8029(9) 0.2666(6)
C8 C -0.1717(9) 0.9558(9) 0.2502(5)
H4 H -0.2191 1.0045 0.2818
C9 C 0.5266(8) 0.7039(10) 0.2484(7)
C10 C -0.3414(11) 0.8256(9) 0.0407(6)
H5 H -0.3826 0.7949 -0.0034
C11 C -0.2279(9) 0.7867(9) 0.0600(6)
H6 H -0.1916 0.7316 0.0270
C12 C 0.4583(10) 0.7810(9) 0.2927(6)
H7 H 0.4897 0.8175 0.3383
C13 C -0.2233(9) 0.9156(7) 0.1750(6)
C14 C -0.0256(9) 0.9754(9) 0.3541(6)
H8 H -0.0356 0.9175 0.3961
H9 H -0.0718 1.0432 0.3692
C15 C 0.2715(10) 0.8870(9) 0.3120(6)
H10 H 0.3106 0.9252 0.3540
C16 C 0.1042(9) 1.0063(8) 0.3458(5)
H11 H 0.1126 1.0795 0.3176
H12 H 0.1411 1.0133 0.3989
C17 C -0.1154(12) 0.5120(9) 0.4421(7)
C18 C -0.0227(9) 0.6144(8) 0.3417(6)
Mn1C Mn -0.05359(13) 0.33784(11) 0.28028(8)
N4C N 0.0684(9) 1.0168(7) 0.1330(5)
O3 O 0.708(4) 0.849(3) 0.483(3)
H13 H 0.7365 0.8101 0.5226
H14 H 0.6817 0.7958 0.4483
loop_
_geom_bond_atom_site_label_1
_geom_bond_atom_site_label_2
_geom_bond_site_symmetry_1
_geom_bond_site_symmetry_2
Br1 C2 1_555 1_555
Br2 C9 1_555 1_555
Mn1 O1 1_555 1_555
O1 C3 1_555 1_555
O2 Mn1 1_555 1_555
N1 Mn1 1_555 1_555
N2 Mn1 1_555 1_555
N3 Mn1 1_555 1_555
N4 C17 1_555 1_555
N5 C17 1_555 1_555
C1 O2 1_555 1_555
C2 C4 1_555 1_555
C3 C5 1_555 1_555
C4 H1 1_555 1_555
C5 H2 1_555 1_555
C6 C5 1_555 1_555
H3 C6 1_555 1_555
C7 C3 1_555 1_555
C8 N2 1_555 1_555
H4 C8 1_555 1_555
C9 C6 1_555 1_555
C10 C2 1_555 1_555
H5 C10 1_555 1_555
C11 C1 1_555 1_555
H6 C11 1_555 1_555
C12 C7 1_555 1_555
H7 C12 1_555 1_555
C13 C1 1_555 1_555
C14 N2 1_555 1_555
H8 C14 1_555 1_555
H9 C14 1_555 1_555
C15 N1 1_555 1_555
H10 C15 1_555 1_555
C16 N1 1_555 1_555
H11 C16 1_555 1_555
H12 C16 1_555 1_555
C18 N3 1_555 1_555
O3 H13 1_555 1_555
H14 O3 1_555 1_555
Mn1C N4 1_555 1_555
N4C Mn1 1_555 1_555
N4 C18 1_555 1_555
C4 C13 1_555 1_555
C7 C15 1_555 1_555
C8 C13 1_555 1_555
C9 C12 1_555 1_555
C10 C11 1_555 1_555
C14 C16 1_555 1_555

#END
