
#######################################################################
#
#                 Cambridge Crystallographic Data Centre
#                                CCDC 
#
#######################################################################
#
# If this CIF has been generated from an entry in the Cambridge 
# Structural Database, then it will include bibliographic, chemical, 
# crystal, experimental, refinement or atomic coordinate data resulting 
# from the CCDC's data processing and validation procedures.
#
#######################################################################

data_NETVOY
_symmetry_cell_setting           triclinic
_symmetry_space_group_name_H-M   'P -1'
_symmetry_Int_Tables_number      2
_space_group_name_Hall           '-P 1'
loop_
_symmetry_equiv_pos_site_id
_symmetry_equiv_pos_as_xyz
1 x,y,z
2 -x,-y,-z
_cell_length_a                   12.2901(6)
_cell_length_b                   14.7478(7)
_cell_length_c                   20.6296(10)
_cell_angle_alpha                70.6900(10)
_cell_angle_beta                 83.0950(10)
_cell_angle_gamma                85.5340(10)
_cell_volume                     3500.31
loop_
_atom_site_label
_atom_site_type_symbol
_atom_site_fract_x
_atom_site_fract_y
_atom_site_fract_z
Ag1 Ag -0.344300(18) 0.523010(14) 0.015620(10)
Ag2 Ag -0.254290(16) 0.287470(12) -0.287530(10)
Ag3 Ag -0.639950(17) -0.025670(13) -0.426610(11)
C1 C -0.30816(18) 0.30780(16) -0.02530(10)
H1 H -0.2897 0.2398 -0.0235
C2 C -0.66161(18) 0.35800(15) -0.13511(11)
H2 H -0.6725 0.3222 -0.1672
C3 C -0.31858(17) 0.50913(14) -0.27631(10)
H3 H -0.3338 0.5770 -0.2768
C4 C -0.26633(17) 0.06571(15) -0.30123(10)
H4 H -0.2664 -0.0028 -0.2997
C5 C -0.63022(18) 0.19076(16) -0.39075(11)
H5 H -0.6440 0.2536 -0.3819
C6 C -0.28292(19) 0.24020(17) -0.55583(11)
H6 H -0.2569 0.3051 -0.5611
C7 C -0.1035(2) 0.3118(2) -0.03623(13)
H7 H -0.0859 0.2471 -0.0341
C8 C -0.0308(2) 0.3820(2) -0.04654(15)
H8 H 0.0470 0.3762 -0.0526
C9 C -0.0947(2) 0.4632(2) -0.04632(14)
H9 H -0.0660 0.5236 -0.0521
C10 C -0.4065(2) 0.22286(19) 0.09047(12)
H10 H -0.3791 0.1591 0.0954
C11 C -0.4824(2) 0.2505(2) 0.13520(13)
H11 H -0.5176 0.2106 0.1774
C12 C -0.4969(2) 0.3488(2) 0.10596(13)
H12 H -0.5456 0.3878 0.1259
C13 C -0.7329(2) 0.20777(18) -0.04492(14)
H13 H -0.7352 0.1691 -0.0735
C14 C -0.7584(3) 0.1806(2) 0.02501(15)
H14 H -0.7823 0.1197 0.0547
C15 C -0.7422(2) 0.2600(2) 0.04365(13)
H15 H -0.7538 0.2620 0.0895
C16 C -0.81841(19) 0.46753(17) -0.18660(12)
H16 H -0.8539 0.4253 -0.2027
C17 C -0.8535(2) 0.55925(18) -0.18927(13)
H17 H -0.9175 0.5938 -0.2075
C18 C -0.7743(2) 0.59052(17) -0.15920(13)
H18 H -0.7767 0.6522 -0.1539
C19 C -0.12364(19) 0.56061(16) -0.29753(12)
H19 H -0.1366 0.6273 -0.3043
C20 C -0.0240(2) 0.51394(18) -0.30186(13)
H20 H 0.0461 0.5412 -0.3123
C21 C -0.04685(19) 0.41798(18) -0.28766(13)
H21 H 0.0074 0.3682 -0.2869
C22 C -0.40470(19) 0.57288(16) -0.38795(11)
H22 H -0.4098 0.6393 -0.3927
C23 C -0.4381(2) 0.53160(18) -0.43204(13)
H23 H -0.4716 0.5629 -0.4733
C24 C -0.4126(2) 0.43411(18) -0.40372(12)
H24 H -0.4261 0.3871 -0.4237
C25 C -0.0631(2) 0.03126(18) -0.31277(13)
H25 H -0.0632 -0.0359 -0.3049
C26 C 0.0265(2) 0.0851(2) -0.32694(14)
H26 H 0.1012 0.0638 -0.3310
C27 C -0.0145(2) 0.17850(19) -0.33431(13)
H27 H 0.0299 0.2323 -0.3443
C28 C -0.3643(2) -0.00492(17) -0.18262(13)
H28 H -0.3632 -0.0701 -0.1810
C29 C -0.4122(3) 0.0315(2) -0.13294(14)
H29 H -0.4507 -0.0024 -0.0900
C30 C -0.3923(2) 0.12920(18) -0.15892(12)
H30 H -0.4158 0.1737 -0.1352
C31 C -0.0815(2) 0.2063(3) -0.58297(14)
H31 H -0.0556 0.2695 -0.5955
C32 C -0.0195(2) 0.1250(3) -0.58046(18)
H32 H 0.0578 0.1196 -0.5903
C33 C -0.0927(2) 0.0520(3) -0.56060(15)
H33 H -0.0726 -0.0134 -0.5552
C34 C -0.3592(2) 0.33019(17) -0.66771(12)
H34 H -0.3224 0.3885 -0.6784
C35 C -0.4279(2) 0.30857(19) -0.70774(13)
H35 H -0.4487 0.3484 -0.7514
C36 C -0.4605(2) 0.21609(18) -0.67090(12)
H36 H -0.5090 0.1821 -0.6862
C37 C -0.7635(2) 0.26539(19) -0.47762(13)
H37 H -0.7897 0.3180 -0.4624
C38 C -0.7952(2) 0.2450(2) -0.53254(14)
H38 H -0.8473 0.2801 -0.5630
C39 C -0.7352(2) 0.1621(2) -0.53421(13)
H39 H -0.7403 0.1309 -0.5672
C40 C -0.7102(2) 0.1281(2) -0.26735(12)
H40 H -0.7241 0.1872 -0.2582
C41 C -0.7231(2) 0.0377(2) -0.22118(14)
H41 H -0.7478 0.0209 -0.1734
C42 C -0.6926(2) -0.0244(2) -0.25873(13)
H42 H -0.6944 -0.0925 -0.2398
C43 C -0.36981(18) 0.35411(15) -0.08845(10)
C44 C -0.48002(18) 0.33556(14) -0.08384(10)
H43 H -0.5151 0.2962 -0.0414
C45 C -0.53961(17) 0.37398(14) -0.14064(10)
C46 C -0.48603(18) 0.42791(14) -0.20377(10)
H44 H -0.5254 0.4531 -0.2433
C47 C -0.37528(17) 0.44473(14) -0.20879(10)
C48 C -0.31719(18) 0.40907(14) -0.15073(10)
H45 H -0.2420 0.4224 -0.1539
C49 C -0.33144(17) 0.12422(14) -0.36100(10)
C50 C -0.44466(17) 0.13374(14) -0.34985(10)
H46 H -0.4800 0.1103 -0.3043
C51 C -0.50683(17) 0.17723(14) -0.40473(11)
C52 C -0.45494(18) 0.21210(15) -0.47156(11)
H47 H -0.4970 0.2432 -0.5091
C53 C -0.34222(18) 0.20140(15) -0.48307(10)
C54 C -0.28017(18) 0.15752(15) -0.42785(11)
H48 H -0.2027 0.1504 -0.4359
N1 N -0.20126(17) 0.44672(15) -0.03698(10)
N2 N -0.20477(16) 0.35199(14) -0.02970(9)
N3 N -0.43423(17) 0.38247(15) 0.04601(10)
N4 N -0.37769(16) 0.30327(14) 0.03793(9)
N5 N -0.70829(16) 0.33335(14) -0.01114(10)
N6 N -0.70387(16) 0.30016(13) -0.06559(9)
N7 N -0.69566(17) 0.52429(13) -0.13904(10)
N8 N -0.72376(15) 0.44911(12) -0.15669(9)
N9 N -0.15388(15) 0.40472(13) -0.27528(10)
N10 N -0.20038(15) 0.49340(12) -0.28165(9)
N11 N -0.36704(16) 0.41465(13) -0.34543(9)
N12 N -0.36314(14) 0.50132(12) -0.33634(8)
N13 N -0.12371(15) 0.18301(13) -0.32563(10)
N14 N -0.15223(15) 0.09068(13) -0.31185(9)
N15 N -0.33647(16) 0.15260(13) -0.22075(9)
N16 N -0.31855(15) 0.06853(12) -0.23448(9)
N17 N -0.19506(17) 0.08487(16) -0.54991(11)
N18 N -0.18679(16) 0.18065(16) -0.56428(10)
N19 N -0.41540(17) 0.18065(14) -0.61148(10)
N20 N -0.35382(16) 0.25315(14) -0.61028(9)
N21 N -0.66943(18) 0.13165(15) -0.48383(10)
N22 N -0.68846(15) 0.19701(14) -0.44948(9)
N23 N -0.66082(16) 0.02280(15) -0.32421(10)
N24 N -0.67358(15) 0.11661(14) -0.32874(9)
Ag1A Ag -0.655700(18) 0.476990(14) -0.015620(10)
Ag3A Ag -0.360050(17) 0.025670(13) -0.573390(11)
N5A N -0.29171(16) 0.66665(14) 0.01114(10)
N7A N -0.30434(17) 0.47571(13) 0.13904(10)
N17A N -0.80494(17) -0.08487(16) -0.45009(11)
N19A N -0.58460(17) -0.18065(14) -0.38852(10)
B1 B -0.2718(3) 0.5805(2) 0.35641(17)
F1 F -0.23250(16) 0.48668(14) 0.36472(12)
F2 F -0.18528(14) 0.63956(13) 0.34724(10)
F3 F -0.33911(14) 0.58388(13) 0.41346(8)
F4 F -0.33018(18) 0.61395(19) 0.29886(10)
B2 B -0.7445(2) 0.2139(2) 0.26070(15)
F5 F -0.79329(19) 0.19094(15) 0.21245(10)
F6 F -0.81631(19) 0.21509(14) 0.31524(9)
F7 F -0.69565(16) 0.30077(12) 0.23258(11)
F8 F -0.66235(16) 0.14195(12) 0.28197(12)
B3 B -0.2165(3) 0.0508(2) 0.02086(18)
F9 F -0.3175(2) 0.0175(2) 0.04883(13)
F10 F -0.2211(2) 0.11364(13) -0.04453(9)
F11 F -0.14360(19) -0.02441(13) 0.01911(13)
F12 F -0.18064(18) 0.10093(13) 0.06123(9)
N25 N -0.1312(4) 0.1832(3) 0.2638(2)
C55 C -0.0833(4) 0.1844(2) 0.2129(2)
C56 C -0.0220(4) 0.1838(4) 0.1496(3)
H49 H 0.0505 0.1527 0.1591
H50 H -0.0133 0.2500 0.1186
H51 H -0.0611 0.1482 0.1276
N26 N -0.8936(3) 0.2381(2) 0.83104(15)
C57 C -0.9482(3) 0.1757(2) 0.84157(15)
C58 C -1.0155(3) 0.0935(3) 0.85390(18)
H52 H -0.9912 0.0612 0.8198
H53 H -1.0924 0.1156 0.8498
H54 H -1.0081 0.0484 0.9004
loop_
_geom_bond_atom_site_label_1
_geom_bond_atom_site_label_2
_geom_bond_site_symmetry_1
_geom_bond_site_symmetry_2
Ag1 N1 1_555 1_555
Ag2 N9 1_555 1_555
Ag3 N21 1_555 1_555
C1 H1 1_555 1_555
C2 H2 1_555 1_555
C3 H3 1_555 1_555
C4 H4 1_555 1_555
C5 H5 1_555 1_555
C6 H6 1_555 1_555
C7 H7 1_555 1_555
C8 C7 1_555 1_555
H8 C8 1_555 1_555
C9 C8 1_555 1_555
H9 C9 1_555 1_555
C10 H10 1_555 1_555
C11 C10 1_555 1_555
H11 C11 1_555 1_555
C12 C11 1_555 1_555
H12 C12 1_555 1_555
C13 H13 1_555 1_555
C14 C13 1_555 1_555
H14 C14 1_555 1_555
C15 C14 1_555 1_555
H15 C15 1_555 1_555
C16 H16 1_555 1_555
C17 C16 1_555 1_555
H17 C17 1_555 1_555
C18 C17 1_555 1_555
H18 C18 1_555 1_555
C19 H19 1_555 1_555
C20 C19 1_555 1_555
H20 C20 1_555 1_555
C21 C20 1_555 1_555
H21 C21 1_555 1_555
C22 H22 1_555 1_555
C23 C22 1_555 1_555
H23 C23 1_555 1_555
C24 C23 1_555 1_555
H24 C24 1_555 1_555
C25 H25 1_555 1_555
C26 C25 1_555 1_555
H26 C26 1_555 1_555
C27 C26 1_555 1_555
H27 C27 1_555 1_555
C28 H28 1_555 1_555
C29 C28 1_555 1_555
H29 C29 1_555 1_555
C30 C29 1_555 1_555
H30 C30 1_555 1_555
C31 H31 1_555 1_555
C32 C31 1_555 1_555
H32 C32 1_555 1_555
C33 C32 1_555 1_555
H33 C33 1_555 1_555
C34 H34 1_555 1_555
C35 C34 1_555 1_555
H35 C35 1_555 1_555
C36 C35 1_555 1_555
H36 C36 1_555 1_555
C37 H37 1_555 1_555
C38 C37 1_555 1_555
H38 C38 1_555 1_555
C39 C38 1_555 1_555
H39 C39 1_555 1_555
C40 H40 1_555 1_555
C41 C40 1_555 1_555
H41 C41 1_555 1_555
C42 C41 1_555 1_555
H42 C42 1_555 1_555
C43 C1 1_555 1_555
C44 C43 1_555 1_555
H43 C44 1_555 1_555
C45 C2 1_555 1_555
C46 C45 1_555 1_555
H44 C46 1_555 1_555
C47 C3 1_555 1_555
C48 C43 1_555 1_555
H45 C48 1_555 1_555
C49 C4 1_555 1_555
C50 C49 1_555 1_555
H46 C50 1_555 1_555
C51 C5 1_555 1_555
C52 C51 1_555 1_555
H47 C52 1_555 1_555
C53 C6 1_555 1_555
C54 C49 1_555 1_555
H48 C54 1_555 1_555
N1 C9 1_555 1_555
N2 C1 1_555 1_555
N3 Ag1 1_555 1_555
N4 C1 1_555 1_555
N5 C15 1_555 1_555
N6 C2 1_555 1_555
N7 C18 1_555 1_555
N8 C2 1_555 1_555
N9 C21 1_555 1_555
N10 C3 1_555 1_555
N11 Ag2 1_555 1_555
N12 C3 1_555 1_555
N13 Ag2 1_555 1_555
N14 C4 1_555 1_555
N15 Ag2 1_555 1_555
N16 C4 1_555 1_555
N17 C33 1_555 1_555
N18 C6 1_555 1_555
N19 C36 1_555 1_555
N20 C6 1_555 1_555
N21 C39 1_555 1_555
N22 C5 1_555 1_555
N23 Ag3 1_555 1_555
N24 C5 1_555 1_555
B1 F1 1_555 1_555
B2 F5 1_555 1_555
B3 F9 1_555 1_555
F2 B1 1_555 1_555
F3 B1 1_555 1_555
F4 B1 1_555 1_555
F6 B2 1_555 1_555
F7 B2 1_555 1_555
F8 B2 1_555 1_555
F10 B3 1_555 1_555
F11 B3 1_555 1_555
F12 B3 1_555 1_555
N25 C55 1_555 1_555
C55 C56 1_555 1_555
C56 H49 1_555 1_555
H50 C56 1_555 1_555
H51 C56 1_555 1_555
N26 C57 1_555 1_555
C57 C58 1_555 1_555
C58 H52 1_555 1_555
H53 C58 1_555 1_555
H54 C58 1_555 1_555
Ag1A N5 1_555 1_555
Ag3A N17 1_555 1_555
N5A Ag1 1_555 1_555
N7A Ag1 1_555 1_555
N17A Ag3 1_555 1_555
N19A Ag3 1_555 1_555
C7 N2 1_555 1_555
C10 N4 1_555 1_555
C12 N3 1_555 1_555
C13 N6 1_555 1_555
C16 N8 1_555 1_555
C19 N10 1_555 1_555
C22 N12 1_555 1_555
C24 N11 1_555 1_555
C25 N14 1_555 1_555
C27 N13 1_555 1_555
C28 N16 1_555 1_555
C30 N15 1_555 1_555
C31 N18 1_555 1_555
C34 N20 1_555 1_555
C37 N22 1_555 1_555
C40 N24 1_555 1_555
C42 N23 1_555 1_555
C44 C45 1_555 1_555
C46 C47 1_555 1_555
C47 C48 1_555 1_555
C50 C51 1_555 1_555
C52 C53 1_555 1_555
C53 C54 1_555 1_555
N1 N2 1_555 1_555
N3 N4 1_555 1_555
N5 N6 1_555 1_555
N7 N8 1_555 1_555
N7 Ag1A 1_555 1_555
N9 N10 1_555 1_555
N11 N12 1_555 1_555
N13 N14 1_555 1_555
N15 N16 1_555 1_555
N17 N18 1_555 1_555
N19 N20 1_555 1_555
N19 Ag3A 1_555 1_555
N21 N22 1_555 1_555
N23 N24 1_555 1_555

#END
