
#######################################################################
#
#                 Cambridge Crystallographic Data Centre
#                                CCDC 
#
#######################################################################
#
# If this CIF has been generated from an entry in the Cambridge 
# Structural Database, then it will include bibliographic, chemical, 
# crystal, experimental, refinement or atomic coordinate data resulting 
# from the CCDC's data processing and validation procedures.
#
#######################################################################

data_NETVUF
_symmetry_cell_setting           orthorhombic
_symmetry_space_group_name_H-M   'P 21 21 21'
_symmetry_Int_Tables_number      19
_space_group_name_Hall           'P 2ac 2ab'
loop_
_symmetry_equiv_pos_site_id
_symmetry_equiv_pos_as_xyz
1 x,y,z
2 1/2-x,-y,1/2+z
3 -x,1/2+y,1/2-z
4 1/2+x,1/2-y,-z
_cell_length_a                   7.293(6)
_cell_length_b                   12.768(12)
_cell_length_c                   20.340(18)
_cell_angle_alpha                90
_cell_angle_beta                 90
_cell_angle_gamma                90
_cell_volume                     1894
loop_
_atom_site_label
_atom_site_type_symbol
_atom_site_fract_x
_atom_site_fract_y
_atom_site_fract_z
Zn1 Zn 0.39505(9) 0.63673(6) 0.02862(3)
C1 C 0.6721(9) 0.7826(5) 0.0665(3)
C2 C 0.5819(8) 0.7604(5) 0.1328(3)
H1 H 0.5787 0.8247 0.1591
C3 C 0.6984(9) 0.6760(6) 0.1686(3)
H2 H 0.6818 0.6095 0.1464
H3 H 0.8269 0.6948 0.1650
C4 C 0.6523(9) 0.6619(6) 0.2403(3)
C5 C 0.5389(10) 0.5818(6) 0.2622(3)
H4 H 0.4934 0.5327 0.2327
C6 C 0.4933(11) 0.5752(6) 0.3289(4)
H5 H 0.4172 0.5217 0.3437
C7 C 0.5597(13) 0.6467(7) 0.3718(4)
C8 C 0.6728(16) 0.7281(8) 0.3499(4)
H6 H 0.7175 0.7776 0.3794
C9 C 0.7173(12) 0.7344(7) 0.2841(3)
H7 H 0.7923 0.7883 0.2693
C10 C 0.2507(9) 0.8046(6) 0.1219(3)
H8 H 0.1418 0.7757 0.1013
H9 H 0.2933 0.8614 0.0942
C11 C 0.1948(8) 0.8507(6) 0.1877(3)
C12 C 0.2534(10) 0.8108(6) 0.2478(3)
H10 H 0.3331 0.7540 0.2489
C13 C 0.1927(10) 0.8560(6) 0.3067(3)
H11 H 0.2360 0.8302 0.3465
C14 C 0.0704(8) 0.9377(5) 0.3066(3)
C15 C 0.0110(9) 0.9761(5) 0.2461(4)
H12 H -0.0718 1.0315 0.2452
C16 C 0.0717(8) 0.9343(5) 0.1876(3)
H13 H 0.0304 0.9619 0.1480
C17 C 0.0017(8) 0.9806(5) 0.3696(3)
N1 N 0.3940(7) 0.7220(4) 0.1222(2)
N2 N -0.1602(7) 1.0313(4) 0.3734(2)
N3 N -0.1727(7) 1.0534(5) 0.4379(3)
N4 N -0.0270(7) 1.0206(5) 0.4697(3)
N5 N 0.0846(8) 0.9743(4) 0.4274(3)
O1 O 0.8023(6) 0.8474(4) 0.0651(2)
O2 O 0.6169(7) 0.7344(4) 0.01736(18)
O3 O 0.5195(16) 0.6430(6) 0.4380(3)
H14 H 0.4957 0.7022 0.4512
O4 O 0.5597(6) 0.5043(4) 0.0222(3)
H15 H 0.371(8) 0.674(4) 0.154(3)
Zn1B Zn -0.39505(9) 1.13673(6) 0.47138(3)
Zn1C Zn 0.89505(9) 0.86327(6) -0.02862(3)
N3B N 0.1727(7) 0.5534(5) 0.0621(3)
O1C O 0.3023(6) 0.6526(4) -0.0651(2)
O5 O 0.441(3) 0.3482(16) 0.9818(9)
loop_
_geom_bond_atom_site_label_1
_geom_bond_atom_site_label_2
_geom_bond_site_symmetry_1
_geom_bond_site_symmetry_2
Zn1 N1 1_555 1_555
C1 C2 1_555 1_555
C2 H1 1_555 1_555
C3 C2 1_555 1_555
H2 C3 1_555 1_555
H3 C3 1_555 1_555
C4 C3 1_555 1_555
C5 C4 1_555 1_555
H4 C5 1_555 1_555
C6 C5 1_555 1_555
H5 C6 1_555 1_555
C7 C6 1_555 1_555
C8 C7 1_555 1_555
H6 C8 1_555 1_555
C9 C4 1_555 1_555
H7 C9 1_555 1_555
C10 H8 1_555 1_555
H9 C10 1_555 1_555
C11 C10 1_555 1_555
C12 C11 1_555 1_555
H10 C12 1_555 1_555
C13 C12 1_555 1_555
H11 C13 1_555 1_555
C14 C13 1_555 1_555
C15 C14 1_555 1_555
H12 C15 1_555 1_555
C16 C11 1_555 1_555
H13 C16 1_555 1_555
C17 C14 1_555 1_555
N1 C2 1_555 1_555
N2 C17 1_555 1_555
N3 N2 1_555 1_555
N4 N3 1_555 1_555
N5 C17 1_555 1_555
O1 C1 1_555 1_555
O2 Zn1 1_555 1_555
O3 C7 1_555 1_555
H14 O3 1_555 1_555
O4 Zn1 1_555 1_555
H15 N1 1_555 1_555
Zn1B N3 1_555 1_555
Zn1C O1 1_555 1_555
N3B Zn1 1_555 1_555
O1C Zn1 1_555 1_555
C1 O2 1_555 1_555
C8 C9 1_555 1_555
C10 N1 1_555 1_555
C15 C16 1_555 1_555
N4 N5 1_555 1_555

#END
