
#######################################################################
#
#                 Cambridge Crystallographic Data Centre
#                                CCDC 
#
#######################################################################
#
# If this CIF has been generated from an entry in the Cambridge 
# Structural Database, then it will include bibliographic, chemical, 
# crystal, experimental, refinement or atomic coordinate data resulting 
# from the CCDC's data processing and validation procedures.
#
#######################################################################

data_NETVAK
_symmetry_cell_setting           triclinic
_symmetry_space_group_name_H-M   'P -1'
_symmetry_Int_Tables_number      2
_space_group_name_Hall           '-P 1'
loop_
_symmetry_equiv_pos_site_id
_symmetry_equiv_pos_as_xyz
1 x,y,z
2 -x,-y,-z
_cell_length_a                   9.1941(4)
_cell_length_b                   11.7500(5)
_cell_length_c                   11.8114(5)
_cell_angle_alpha                60.5720(10)
_cell_angle_beta                 85.6080(10)
_cell_angle_gamma                86.0190(10)
_cell_volume                     1107.35
loop_
_atom_site_label
_atom_site_type_symbol
_atom_site_fract_x
_atom_site_fract_y
_atom_site_fract_z
Ag1 Ag -0.76063(3) 0.34100(3) 0.33001(3)
C1 C -0.5153(4) 0.5882(4) 0.2228(3)
H1 H -0.4464 0.6616 0.1795
C2 C -0.0203(4) 0.7810(4) 0.4040(4)
H2 H 0.0484 0.8175 0.3254
C3 C -0.5107(4) 0.5372(3) 0.3690(3)
C4 C -0.5599(4) 0.6203(4) 0.4163(3)
H3 H -0.6014 0.7038 0.3588
C5 C -0.4503(4) 0.4164(4) 0.4535(4)
H4 H -0.4155 0.3582 0.4224
C6 C -0.0153(4) 0.6337(4) 0.4594(4)
C7 C 0.0916(4) 0.5563(4) 0.5422(4)
H5 H 0.1557 0.5949 0.5720
C8 C 0.1080(4) 0.4248(4) 0.5830(4)
H6 H -0.1827 0.6262 0.3599
C9 C -0.3440(4) 0.5003(5) 0.1063(4)
H7 H -0.2787 0.5703 0.0657
C10 C -0.3343(5) 0.3888(5) 0.0984(4)
H8 H -0.2611 0.3646 0.0521
C11 C -0.4532(5) 0.3175(5) 0.1715(4)
H9 H -0.4747 0.2347 0.1824
C12 C -0.6957(6) 0.7709(4) 0.0976(4)
H10 H -0.6317 0.8418 0.0604
C13 C -0.8434(6) 0.7784(5) 0.0822(4)
H11 H -0.9022 0.8542 0.0317
C14 C -0.8871(5) 0.6518(4) 0.1562(4)
H12 H -0.9849 0.6264 0.1642
C15 C 0.1477(4) 0.8914(4) 0.4737(6)
H13 H 0.2055 0.9361 0.3951
C16 C 0.1641(5) 0.8899(5) 0.5872(6)
H14 H -0.2358 0.0667 0.3959
C17 C 0.0552(5) 0.8122(5) 0.6744(6)
H15 H -0.0409 0.2059 0.2378
C18 C 0.2017(6) 0.0757(5) 0.7618(4)
H16 H 0.1389 0.0425 0.8381
C19 C 0.3473(6) 0.0476(5) 0.7560(5)
H17 H 0.4067 -0.0084 0.8262
C20 C 0.3895(5) 0.1177(4) 0.6270(4)
H18 H 0.4865 0.1166 0.5934
N1 N -0.5337(3) 0.3790(3) 0.2247(3)
N2 N -0.4646(3) 0.4932(3) 0.1832(3)
N3 N -0.7771(3) 0.5696(3) 0.2149(3)
N4 N -0.6589(4) 0.6440(3) 0.1755(3)
N5 N -0.0263(4) 0.7666(3) 0.6176(4)
N6 N 0.0323(3) 0.8164(3) 0.4943(4)
N7 N 0.2785(3) 0.1881(3) 0.5534(3)
N8 N 0.1632(3) 0.1595(3) 0.6394(3)
Ag1A Ag -0.23937(3) 0.65900(3) 0.66999(3)
Ag1_2 Ag 0.23937(3) 0.34100(3) 0.33001(3)
C1A C -0.4847(4) 0.4118(4) 0.7772(3)
H1A H -0.5536 0.3384 0.8205
C2A C 0.0203(4) 0.2190(4) 0.5960(4)
H2A H -0.0484 0.1825 0.6746
C3A C -0.4893(4) 0.4628(3) 0.6310(3)
C4A C -0.4401(4) 0.3797(4) 0.5837(3)
H3A H -0.3986 0.2962 0.6412
C5A C -0.5497(4) 0.5836(4) 0.5465(4)
H4A H -0.5845 0.6418 0.5776
C6A C 0.0153(4) 0.3663(4) 0.5406(4)
C7A C -0.0916(4) 0.4437(4) 0.4578(4)
H5A H -0.1557 0.4051 0.4280
C8A C -0.1080(4) 0.5752(4) 0.4170(4)
H6A H 0.1827 0.3738 0.6401
C9A C -0.6560(4) 0.4997(5) 0.8937(4)
H7A H -0.7213 0.4297 0.9343
C10A C -0.6657(5) 0.6112(5) 0.9016(4)
H8A H -0.7389 0.6354 0.9479
C11A C -0.5468(5) 0.6825(5) 0.8285(4)
H9A H -0.5253 0.7653 0.8176
C12A C -0.3043(6) 0.2291(4) 0.9024(4)
H10A H -0.3683 0.1582 0.9396
C13A C -0.1566(6) 0.2216(5) 0.9178(4)
H11A H -0.0978 0.1458 0.9683
C14A C -0.1129(5) 0.3482(4) 0.8438(4)
H12A H -0.0151 0.3736 0.8358
C15A C -0.1477(4) 0.1086(4) 0.5263(6)
H13A H -0.2055 0.0639 0.6049
C16A C -0.1641(5) 0.1101(5) 0.4128(6)
H14A H 0.2358 0.9333 0.6041
C17A C -0.0552(5) 0.1878(5) 0.3256(6)
H15A H 0.0409 0.7941 0.7622
C18A C -0.2017(6) 0.9243(5) 0.2382(4)
H16A H -0.1389 0.9575 0.1619
C19A C -0.3473(6) 0.9524(5) 0.2440(5)
H17A H -0.4067 1.0084 0.1738
C20A C -0.3895(5) 0.8823(4) 0.3730(4)
H18A H -0.4865 0.8834 0.4066
N1A N -0.4663(3) 0.6210(3) 0.7753(3)
N2A N -0.5354(3) 0.5068(3) 0.8168(3)
N3A N -0.2229(3) 0.4304(3) 0.7851(3)
N4A N -0.3411(4) 0.3560(3) 0.8245(3)
N5A N -0.9737(4) 0.2334(3) 0.3824(4)
N5A_2 N 0.0263(4) 0.2334(3) 0.3824(4)
N6A N -0.0323(3) 0.1836(3) 0.5057(4)
N7_2 N -0.7215(3) 0.1881(3) 0.5534(3)
N7A N -0.2785(3) 0.8119(3) 0.4466(3)
N8A N -0.1632(3) 0.8405(3) 0.3606(3)
B1 B -0.7573(17) 0.1265(16) 0.0694(15)
F1 F -0.8802(9) 0.0509(9) 0.1244(10)
F2 F -0.7294(14) 0.1639(13) 0.1643(10)
F3 F -0.7901(10) 0.2325(9) -0.0494(9)
F4 F -0.6344(10) 0.0676(11) 0.0336(9)
B2? B -0.7590(19) 0.1220(17) 0.0957(18)
F5? F -0.8415(13) 0.0171(12) 0.1248(13)
F6? F -0.6803(11) 0.0948(13) 0.1981(10)
F7? F -0.8375(12) 0.2395(10) 0.0482(14)
F8? F -0.6290(11) 0.1292(12) 0.0261(12)
B3? B -0.754(2) 0.1111(17) 0.0972(17)
F9? F -0.8699(10) 0.0582(10) 0.0636(11)
F10? F -0.6960(15) 0.0076(15) 0.2040(13)
F11? F -0.8023(13) 0.2153(10) 0.1193(13)
F12? F -0.6745(15) 0.1598(14) -0.0223(14)
loop_
_geom_bond_atom_site_label_1
_geom_bond_atom_site_label_2
_geom_bond_site_symmetry_1
_geom_bond_site_symmetry_2
Ag1 N1 1_555 1_555
C1 H1 1_555 1_555
C2 H2 1_555 1_555
C3 C1 1_555 1_555
C4 C3 1_555 1_555
H3 C4 1_555 1_555
C5 C3 1_555 1_555
H4 C5 1_555 1_555
C6 C2 1_555 1_555
C7 C6 1_555 1_555
H5 C7 1_555 1_555
C8 C7 1_555 1_555
H6 C8A 1_555 1_555
C9 H7 1_555 1_555
C10 C9 1_555 1_555
H8 C10 1_555 1_555
C11 C10 1_555 1_555
H9 C11 1_555 1_555
C12 H10 1_555 1_555
C13 C12 1_555 1_555
H11 C13 1_555 1_555
C14 C13 1_555 1_555
H12 C14 1_555 1_555
C15 H13 1_555 1_555
C16 C15 1_555 1_555
H14 C16A 1_555 1_555
C17 C16 1_555 1_555
H15 C17A 1_555 1_555
C18 H16 1_555 1_555
C19 C18 1_555 1_555
H17 C19 1_555 1_555
C20 C19 1_555 1_555
H18 C20 1_555 1_555
N1 C11 1_555 1_555
N2 C1 1_555 1_555
N3 Ag1 1_555 1_555
N4 C1 1_555 1_555
N5 C17 1_555 1_555
N6 C2 1_555 1_555
N7 C20 1_555 1_555
N8 C18 1_555 1_555
B1 F1 1_555 1_555
F2 B1 1_555 1_555
F3 B1 1_555 1_555
F4 B1 1_555 1_555
Ag1A N5 1_555 1_555
Ag1_2 N7 1_555 1_555
C1A H1A 1_555 1_555
C2A N8 1_555 1_555
H2A C2A 1_555 1_555
C3A C1A 1_555 1_555
C4A C5 1_555 1_555
H3A C4A 1_555 1_555
C5A C4 1_555 1_555
H4A C5A 1_555 1_555
C6A C8 1_555 1_555
C7A C6A 1_555 1_555
H5A C7A 1_555 1_555
C8A C6 1_555 1_555
H6A C8 1_555 1_555
C9A H7A 1_555 1_555
C10A C9A 1_555 1_555
H8A C10A 1_555 1_555
C11A C10A 1_555 1_555
H9A C11A 1_555 1_555
C12A H10A 1_555 1_555
C13A C12A 1_555 1_555
H11A C13A 1_555 1_555
C14A C13A 1_555 1_555
H12A C14A 1_555 1_555
C15A H13A 1_555 1_555
C16A C15A 1_555 1_555
H14A C16 1_555 1_555
C17A C16A 1_555 1_555
H15A C17 1_555 1_555
C18A H16A 1_555 1_555
C19A C18A 1_555 1_555
H17A C19A 1_555 1_555
C20A C19A 1_555 1_555
H18A C20A 1_555 1_555
N1A Ag1A 1_555 1_555
N2A C1A 1_555 1_555
N3A Ag1A 1_555 1_555
N4A C1A 1_555 1_555
N5A Ag1 1_555 1_555
N5A_2 Ag1_2 1_555 1_555
N6A C2A 1_555 1_555
N7_2 Ag1 1_555 1_555
N7A Ag1A 1_555 1_555
N8A C2 1_555 1_555
C9 N2 1_555 1_555
C12 N4 1_555 1_555
C14 N3 1_555 1_555
C15 N6 1_555 1_555
N1 N2 1_555 1_555
N3 N4 1_555 1_555
N5 N6 1_555 1_555
N7 N8 1_555 1_555
C2A C6A 1_555 1_555
C3A C4A 1_555 1_555
C3A C5A 1_555 1_555
C7A C8A 1_555 1_555
C9A N2A 1_555 1_555
C11A N1A 1_555 1_555
C12A N4A 1_555 1_555
C14A N3A 1_555 1_555
C15A N6A 1_555 1_555
C17A N5A_2 1_555 1_555
C18A N8A 1_555 1_555
C20A N7A 1_555 1_555
N1A N2A 1_555 1_555
N3A N4A 1_555 1_555
N5A_2 N6A 1_555 1_555
N7A N8A 1_555 1_555

#END
