
#######################################################################
#
#                 Cambridge Crystallographic Data Centre
#                                CCDC 
#
#######################################################################
#
# If this CIF has been generated from an entry in the Cambridge 
# Structural Database, then it will include bibliographic, chemical, 
# crystal, experimental, refinement or atomic coordinate data resulting 
# from the CCDC's data processing and validation procedures.
#
#######################################################################

data_NETVEO
_symmetry_cell_setting           monoclinic
_symmetry_space_group_name_H-M   'P 21/n'
_symmetry_Int_Tables_number      14
_space_group_name_Hall           '-P 2yn'
loop_
_symmetry_equiv_pos_site_id
_symmetry_equiv_pos_as_xyz
1 x,y,z
2 1/2-x,1/2+y,1/2-z
3 -x,-y,-z
4 1/2+x,1/2-y,1/2+z
_cell_length_a                   19.4787(9)
_cell_length_b                   11.9258(6)
_cell_length_c                   21.3614(10)
_cell_angle_alpha                90
_cell_angle_beta                 96.6930(10)
_cell_angle_gamma                90
_cell_volume                     4928.42
loop_
_atom_site_label
_atom_site_type_symbol
_atom_site_fract_x
_atom_site_fract_y
_atom_site_fract_z
Ag1 Ag 0.376672(12) 0.25208(2) 0.412322(12)
Ag2 Ag 0.856050(12) 0.28817(2) 0.470450(11)
C1 C 0.49793(14) 0.4308(2) 0.36935(13)
H1 H 0.5328 0.4809 0.3527
C2 C 0.26511(14) 0.2347(2) 0.51848(13)
H2 H 0.2309 0.2290 0.5498
C3 C 0.24922(14) 0.6892(2) 0.41829(13)
H3 H 0.2801 0.6848 0.3841
C4 C 0.97465(13) 0.3769(2) 0.38223(13)
H4 H 1.0100 0.4046 0.3555
C5 C 0.41949(18) 0.5338(3) 0.28744(14)
H5 H 0.4528 0.5804 0.2713
C6 C 0.35018(19) 0.5346(3) 0.26986(16)
H6 H 0.3252 0.5813 0.2391
C7 C 0.32361(16) 0.4529(3) 0.30619(14)
H7 H 0.2760 0.4339 0.3036
C8 C 0.57172(16) 0.2848(3) 0.32688(14)
H8 H 0.6020 0.3329 0.3076
C9 C 0.57286(16) 0.1714(3) 0.32671(15)
H9 H 0.6039 0.1239 0.3080
C10 C 0.51865(16) 0.1395(3) 0.36000(15)
H10 H 0.5066 0.0638 0.3673
C11 C 0.34783(15) 0.1715(2) 0.61147(13)
H11 H 0.3157 0.1570 0.6407
C12 C 0.41819(15) 0.1581(3) 0.62178(14)
H12 H 0.4449 0.1328 0.6592
C13 C 0.44177(15) 0.1895(3) 0.56565(15)
H13 H 0.4890 0.1883 0.5586
C14 C 0.19291(14) 0.0774(2) 0.46694(14)
H14 H 0.1611 0.0689 0.4971
C15 C 0.19382(15) 0.0177(3) 0.41281(15)
H15 H 0.1630 -0.0403 0.3974
C16 C 0.24966(15) 0.0598(2) 0.38479(14)
H16 H 0.2632 0.0333 0.3461
C17 C 0.33425(14) 0.8394(3) 0.45751(15)
H17 H 0.3620 0.8395 0.4238
C18 C 0.34392(16) 0.9039(3) 0.51038(15)
H18 H 0.3795 0.9572 0.5213
C19 C 0.29049(16) 0.8747(3) 0.54468(15)
H19 H 0.2835 0.9073 0.5840
C20 C 0.16171(17) 0.7460(3) 0.32727(14)
H20 H 0.1912 0.7521 0.2950
C21 C 0.09197(17) 0.7620(3) 0.32074(16)
H21 H 0.0631 0.7815 0.2834
C22 C 0.07196(16) 0.7437(3) 0.38010(16)
H22 H 0.0258 0.7497 0.3899
C23 C 1.02405(15) 0.1889(3) 0.35797(15)
H23 H 1.0545 0.2121 0.3288
C24 C 1.01294(16) 0.0819(3) 0.37605(16)
H24 H 0.9664 0.9845 0.6375
C25 C 0.96480(15) 0.0909(2) 0.41866(15)
H25 H 1.0530 0.9713 0.5606
C26 C 1.10798(16) 0.5595(2) 0.71042(13)
H26 H 1.0757 0.5432 0.7392
C27 C 1.17805(16) 0.5481(3) 0.72123(14)
H27 H 1.2045 0.5234 0.7589
C28 C 1.20215(15) 0.5803(2) 0.66565(14)
H28 H 1.2496 0.5804 0.6592
C29 C 0.49666(13) 0.4627(2) 0.43790(13)
C30 C 0.53284(14) 0.4023(2) 0.48623(14)
H29 H 0.5556 0.3348 0.4771
C31 C 0.46398(14) 0.5603(2) 0.45220(13)
H30 H 0.4389 0.6024 0.4194
C32 C 0.26088(13) 0.3534(2) 0.49251(12)
C33 C 0.21564(14) 0.3795(2) 0.43944(13)
H31 H 0.1885 0.3220 0.4180
C34 C 0.20988(14) 0.4880(2) 0.41765(13)
H32 H 0.1786 0.5049 0.3814
C35 C 0.24939(13) 0.5734(2) 0.44819(12)
C36 C 0.29284(14) 0.5480(2) 0.50196(13)
H33 H 0.3191 0.6059 0.5239
C37 C 0.29864(14) 0.4387(2) 0.52428(13)
H34 H 0.3286 0.4223 0.5615
C38 C 0.98604(13) 0.4387(2) 0.44446(12)
C39 C 0.95506(14) 0.5421(2) 0.45085(13)
H35 H 0.9242 0.5715 0.4171
C40 C 0.96888(14) 0.6027(2) 0.50601(13)
H36 H 1.0527 0.3267 0.4900
N1 N 0.37294(12) 0.4039(2) 0.34528(11)
N2 N 0.43191(12) 0.4547(2) 0.33199(11)
N3 N 0.48600(12) 0.2273(2) 0.38015(12)
N4 N 0.52003(12) 0.3171(2) 0.35927(11)
N5 N 0.39058(12) 0.2216(2) 0.52268(12)
N6 N 0.33307(12) 0.20940(19) 0.55178(11)
N7 N 0.28147(11) 0.14160(19) 0.41896(10)
N8 N 0.24594(11) 0.15124(18) 0.46982(10)
N9 N 0.25011(12) 0.7959(2) 0.51601(11)
N10 N 0.27778(12) 0.77500(18) 0.46194(11)
N11 N 0.12583(12) 0.7165(2) 0.42173(12)
N12 N 0.18078(12) 0.71986(19) 0.38824(10)
N13 N 0.94646(12) 0.1960(2) 0.42712(11)
N14 N 0.98384(11) 0.25618(19) 0.38912(10)
N15 N 1.15130(11) 0.61108(19) 0.62225(10)
N16 N 1.09336(11) 0.59818(19) 0.65116(10)
Ag1B Ag 0.623328(12) 0.74792(2) 0.587678(12)
Ag2B Ag 0.143950(12) 0.71183(2) 0.529550(11)
Ag2B_2 Ag 1.143950(12) 0.71183(2) 0.529550(11)
C1B C 0.50207(14) 0.5692(2) 0.63065(13)
H1B H 0.4672 0.5191 0.6473
C2B C 0.73489(14) 0.7653(2) 0.48152(13)
H2B H 0.7691 0.7710 0.4502
C3B C 0.75078(14) 0.3108(2) 0.58171(13)
H3B H 0.7199 0.3152 0.6159
C4B C 1.02535(13) 0.6231(2) 0.61777(13)
H4B H 0.9900 0.5954 0.6445
C5B C 0.58051(18) 0.4662(3) 0.71256(14)
H5B H 0.5472 0.4196 0.7287
C6B C 0.64982(19) 0.4654(3) 0.73014(16)
H6B H 0.6748 0.4187 0.7609
C7B C 0.67639(16) 0.5471(3) 0.69381(14)
H7B H 0.7240 0.5661 0.6964
C8B C 0.42828(16) 0.7152(3) 0.67312(14)
H8B H 0.3980 0.6671 0.6924
C9B C 0.42714(16) 0.8286(3) 0.67329(15)
H9B H 0.3961 0.8761 0.6920
C10B C 0.48135(16) 0.8605(3) 0.64000(15)
H10B H 0.4934 0.9362 0.6327
C11B C 0.65217(15) 0.8285(2) 0.38853(13)
H11B H 0.6843 0.8430 0.3593
C12B C 0.58181(15) 0.8419(3) 0.37822(14)
H12B H 0.5551 0.8672 0.3408
C13B C 0.55823(15) 0.8105(3) 0.43435(15)
H13B H 0.5110 0.8117 0.4414
C14B C 0.80709(14) 0.9226(2) 0.53306(14)
H14B H 0.8389 0.9311 0.5029
C15B C 0.80618(15) 0.9823(3) 0.58719(15)
H15B H 0.8370 1.0403 0.6026
C16B C 0.75034(15) 0.9402(2) 0.61521(14)
H16B H 0.7368 0.9667 0.6539
C17B C 0.66575(14) 0.1606(3) 0.54249(15)
H17B H 0.6380 0.1605 0.5762
C18B C 0.65608(16) 0.0961(3) 0.48962(15)
H18B H 0.6205 0.0428 0.4787
C19B C 0.70951(16) 0.1253(3) 0.45532(15)
H19B H 0.7165 0.0927 0.4160
C20B C 0.83829(17) 0.2540(3) 0.67273(14)
H20B H 0.8088 0.2479 0.7050
C21B C 0.90803(17) 0.2380(3) 0.67926(16)
H21B H 0.9369 0.2185 0.7166
C22B C 0.92804(16) 0.2563(3) 0.61990(16)
H22B H 0.9742 0.2503 0.6101
C23B C 0.97595(15) 0.8111(3) 0.64203(15)
H23B H 0.9455 0.7879 0.6712
C24B C 0.98706(16) 0.9181(3) 0.62395(16)
H24B H 1.0336 0.0155 0.3625
C25B C 1.03520(15) 0.9091(2) 0.58134(15)
H25B H 0.9470 0.0287 0.4394
C26B C 0.89202(16) 0.4405(2) 0.28958(13)
H26B H 0.9243 0.4568 0.2608
C27B C 0.82195(16) 0.4519(3) 0.27877(14)
H27B H 0.7955 0.4766 0.2411
C28B C 0.79785(15) 0.4197(2) 0.33435(14)
H28B H 0.7504 0.4196 0.3408
C29B C 0.50334(13) 0.5373(2) 0.56210(13)
C30B C 0.46716(14) 0.5977(2) 0.51377(14)
H29B H 0.4444 0.6652 0.5229
C31B C 0.53602(14) 0.4397(2) 0.54780(13)
H30B H 0.5611 0.3976 0.5806
C32B C 0.73912(13) 0.6466(2) 0.50749(12)
C33B C 0.78436(14) 0.6205(2) 0.56056(13)
H31B H 0.8115 0.6780 0.5820
C34B C 0.79012(14) 0.5120(2) 0.58235(13)
H32B H 0.8214 0.4951 0.6186
C35B C 0.75061(13) 0.4266(2) 0.55181(12)
C36B C 0.70716(14) 0.4520(2) 0.49804(13)
H33B H 0.6809 0.3941 0.4761
C37B C 0.70136(14) 0.5613(2) 0.47572(13)
H34B H 0.6714 0.5777 0.4385
C38B C 1.01396(13) 0.5613(2) 0.55554(12)
C39B C 1.04494(14) 0.4579(2) 0.54915(13)
H35B H 1.0758 0.4285 0.5829
C40B C 1.03112(14) 0.3973(2) 0.49399(13)
H36B H 0.9473 0.6733 0.5100
N1B N 0.62706(12) 0.5961(2) 0.65472(11)
N2B N 0.56809(12) 0.5453(2) 0.66801(11)
N3B N 0.51400(12) 0.7727(2) 0.61985(12)
N4B N 0.47997(12) 0.6829(2) 0.64073(11)
N5B N 0.60942(12) 0.7784(2) 0.47732(12)
N6B N 0.66693(12) 0.79060(19) 0.44822(11)
N7B N 0.71853(11) 0.85840(19) 0.58104(10)
N8B N 0.75406(11) 0.84876(18) 0.53018(10)
N9B N 0.74989(12) 0.2041(2) 0.48399(11)
N9_2 N 1.25011(12) 0.7959(2) 0.51601(11)
N10B N 0.72222(12) 0.22500(18) 0.53806(11)
N11B N 0.87417(12) 0.2835(2) 0.57827(12)
N11_2 N 1.12583(12) 0.7165(2) 0.42173(12)
N12B N 0.81922(12) 0.28014(19) 0.61176(10)
N13B N 1.05354(12) 0.8040(2) 0.57288(11)
N14B N 1.01616(11) 0.74382(19) 0.61088(10)
N15B N 0.84870(11) 0.38892(19) 0.37775(10)
N16B N 0.90664(11) 0.40182(19) 0.34884(10)
P1 P 0.11639(4) 0.39059(7) 0.22717(4)
F1 F 0.14079(10) 0.3392(2) 0.29476(9)
F2 F 0.05318(10) 0.4515(2) 0.25392(10)
F3 F 0.06875(13) 0.28640(19) 0.21128(14)
F4 F 0.09272(10) 0.44174(19) 0.15954(9)
F5 F 0.17992(11) 0.3310(2) 0.20047(10)
F6 F 0.16308(10) 0.49681(18) 0.24426(10)
P2 P 0.14292(4) 0.19363(7) 0.65944(4)
F7 F 0.18083(9) 0.19337(18) 0.72981(9)
F8 F 0.09336(10) 0.29157(15) 0.67770(9)
F9 F 0.08972(9) 0.10414(16) 0.67876(9)
F10 F 0.10705(11) 0.19452(18) 0.58862(8)
F11 F 0.19406(9) 0.09606(15) 0.64107(9)
F12 F 0.19731(11) 0.28531(17) 0.64152(10)
N17 N 0.37349(16) 0.4399(3) 0.68401(14)
C41 C 0.35400(16) 0.4018(3) 0.72710(16)
C42 C 0.32734(17) 0.3546(3) 0.78192(15)
H37 H 0.3192 0.4148 0.8113
H38 H 0.3610 0.3015 0.8027
H39 H 0.2838 0.3154 0.7688
loop_
_geom_bond_atom_site_label_1
_geom_bond_atom_site_label_2
_geom_bond_site_symmetry_1
_geom_bond_site_symmetry_2
Ag1 N1 1_555 1_555
Ag2 N13 1_555 1_555
C1 H1 1_555 1_555
C2 H2 1_555 1_555
C3 H3 1_555 1_555
C4 H4 1_555 1_555
C5 H5 1_555 1_555
C6 C5 1_555 1_555
H6 C6 1_555 1_555
C7 C6 1_555 1_555
H7 C7 1_555 1_555
C8 H8 1_555 1_555
C9 C8 1_555 1_555
H9 C9 1_555 1_555
C10 C9 1_555 1_555
H10 C10 1_555 1_555
C11 H11 1_555 1_555
C12 C11 1_555 1_555
H12 C12 1_555 1_555
C13 C12 1_555 1_555
H13 C13 1_555 1_555
C14 H14 1_555 1_555
C15 C14 1_555 1_555
H15 C15 1_555 1_555
C16 C15 1_555 1_555
H16 C16 1_555 1_555
C17 H17 1_555 1_555
C18 C17 1_555 1_555
H18 C18 1_555 1_555
C19 C18 1_555 1_555
H19 C19 1_555 1_555
C20 H20 1_555 1_555
C21 C20 1_555 1_555
H21 C21 1_555 1_555
C22 C21 1_555 1_555
H22 C22 1_555 1_555
C23 H23 1_555 1_555
C24 C23 1_555 1_555
H24 C24B 1_555 1_555
C25 C24 1_555 1_555
H25 C25B 1_555 1_555
C26 H26 1_555 1_555
C27 C26 1_555 1_555
H27 C27 1_555 1_555
C28 C27 1_555 1_555
H28 C28 1_555 1_555
C29 C1 1_555 1_555
C30 C29 1_555 1_555
H29 C30 1_555 1_555
C31 C29 1_555 1_555
H30 C31 1_555 1_555
C32 C2 1_555 1_555
C33 C32 1_555 1_555
H31 C33 1_555 1_555
C34 C33 1_555 1_555
H32 C34 1_555 1_555
C35 C3 1_555 1_555
C36 C35 1_555 1_555
H33 C36 1_555 1_555
C37 C32 1_555 1_555
H34 C37 1_555 1_555
C38 C4 1_555 1_555
C39 C38 1_555 1_555
H35 C39 1_555 1_555
C40 C39 1_555 1_555
H36 C40B 1_555 1_555
N1 C7 1_555 1_555
N2 C1 1_555 1_555
N3 Ag1 1_555 1_555
N4 C1 1_555 1_555
N5 Ag1 1_555 1_555
N6 C2 1_555 1_555
N7 Ag1 1_555 1_555
N8 C2 1_555 1_555
N9 C19 1_555 1_555
N10 C3 1_555 1_555
N11 C22 1_555 1_555
N12 C3 1_555 1_555
N13 C25 1_555 1_555
N14 C4 1_555 1_555
N15 C28 1_555 1_555
N16 C26 1_555 1_555
P1 F1 1_555 1_555
F2 P1 1_555 1_555
F3 P1 1_555 1_555
F4 P1 1_555 1_555
F5 P1 1_555 1_555
F6 P1 1_555 1_555
P2 F7 1_555 1_555
F8 P2 1_555 1_555
F9 P2 1_555 1_555
F10 P2 1_555 1_555
F11 P2 1_555 1_555
F12 P2 1_555 1_555
N17 C41 1_555 1_555
C41 C42 1_555 1_555
C42 H37 1_555 1_555
H38 C42 1_555 1_555
H39 C42 1_555 1_555
Ag1B N1B 1_555 1_555
Ag2B N9 1_555 1_555
Ag2B_2 N15 1_555 1_555
C1B H1B 1_555 1_555
C2B H2B 1_555 1_555
C3B H3B 1_555 1_555
C4B N16 1_555 1_555
H4B C4B 1_555 1_555
C5B H5B 1_555 1_555
C6B C5B 1_555 1_555
H6B C6B 1_555 1_555
C7B C6B 1_555 1_555
H7B C7B 1_555 1_555
C8B H8B 1_555 1_555
C9B C8B 1_555 1_555
H9B C9B 1_555 1_555
C10B C9B 1_555 1_555
H10B C10B 1_555 1_555
C11B H11B 1_555 1_555
C12B C11B 1_555 1_555
H12B C12B 1_555 1_555
C13B C12B 1_555 1_555
H13B C13B 1_555 1_555
C14B H14B 1_555 1_555
C15B C14B 1_555 1_555
H15B C15B 1_555 1_555
C16B C15B 1_555 1_555
H16B C16B 1_555 1_555
C17B H17B 1_555 1_555
C18B C17B 1_555 1_555
H18B C18B 1_555 1_555
C19B C18B 1_555 1_555
H19B C19B 1_555 1_555
C20B H20B 1_555 1_555
C21B C20B 1_555 1_555
H21B C21B 1_555 1_555
C22B C21B 1_555 1_555
H22B C22B 1_555 1_555
C23B H23B 1_555 1_555
C24B C23B 1_555 1_555
H24B C24 1_555 1_555
C25B C24B 1_555 1_555
H25B C25 1_555 1_555
C26B H26B 1_555 1_555
C27B C26B 1_555 1_555
H27B C27B 1_555 1_555
C28B C27B 1_555 1_555
H28B C28B 1_555 1_555
C29B C1B 1_555 1_555
C30B C31 1_555 1_555
H29B C30B 1_555 1_555
C31B C30 1_555 1_555
H30B C31B 1_555 1_555
C32B C2B 1_555 1_555
C33B C32B 1_555 1_555
H31B C33B 1_555 1_555
C34B C33B 1_555 1_555
H32B C34B 1_555 1_555
C35B C3B 1_555 1_555
C36B C35B 1_555 1_555
H33B C36B 1_555 1_555
C37B C32B 1_555 1_555
H34B C37B 1_555 1_555
C38B C40 1_555 1_555
C39B C38B 1_555 1_555
H35B C39B 1_555 1_555
C40B C38 1_555 1_555
H36B C40 1_555 1_555
N1B C7B 1_555 1_555
N2B C1B 1_555 1_555
N3B Ag1B 1_555 1_555
N4B C1B 1_555 1_555
N5B Ag1B 1_555 1_555
N6B C2B 1_555 1_555
N7B Ag1B 1_555 1_555
N8B C2B 1_555 1_555
N9B Ag2 1_555 1_555
N9_2 Ag2B_2 1_555 1_555
N10B C3B 1_555 1_555
N11B Ag2 1_555 1_555
N11_2 Ag2B_2 1_555 1_555
N12B C3B 1_555 1_555
N13B Ag2B_2 1_555 1_555
N14B C4B 1_555 1_555
N15B Ag2 1_555 1_555
N16B C4 1_555 1_555
C5 N2 1_555 1_555
C8 N4 1_555 1_555
C10 N3 1_555 1_555
C11 N6 1_555 1_555
C13 N5 1_555 1_555
C14 N8 1_555 1_555
C16 N7 1_555 1_555
C17 N10 1_555 1_555
C20 N12 1_555 1_555
C23 N14 1_555 1_555
C34 C35 1_555 1_555
C36 C37 1_555 1_555
N1 N2 1_555 1_555
N3 N4 1_555 1_555
N5 N6 1_555 1_555
N7 N8 1_555 1_555
N9 N10 1_555 1_555
N11 N12 1_555 1_555
N11 Ag2B 1_555 1_555
N13 N14 1_555 1_555
N15 N16 1_555 1_555
C4B C38B 1_555 1_555
C5B N2B 1_555 1_555
C8B N4B 1_555 1_555
C10B N3B 1_555 1_555
C11B N6B 1_555 1_555
C13B N5B 1_555 1_555
C14B N8B 1_555 1_555
C16B N7B 1_555 1_555
C17B N10B 1_555 1_555
C19B N9B 1_555 1_555
C20B N12B 1_555 1_555
C22B N11B 1_555 1_555
C23B N14B 1_555 1_555
C25B N13B 1_555 1_555
C26B N16B 1_555 1_555
C28B N15B 1_555 1_555
C29B C30B 1_555 1_555
C29B C31B 1_555 1_555
C34B C35B 1_555 1_555
C36B C37B 1_555 1_555
C39B C40B 1_555 1_555
N1B N2B 1_555 1_555
N3B N4B 1_555 1_555
N5B N6B 1_555 1_555
N7B N8B 1_555 1_555
N9B N10B 1_555 1_555
N11B N12B 1_555 1_555
N13B N14B 1_555 1_555
N15B N16B 1_555 1_555

#END
