
#######################################################################
#
#                 Cambridge Crystallographic Data Centre
#                                CCDC 
#
#######################################################################
#
# If this CIF has been generated from an entry in the Cambridge 
# Structural Database, then it will include bibliographic, chemical, 
# crystal, experimental, refinement or atomic coordinate data resulting 
# from the CCDC's data processing and validation procedures.
#
#######################################################################

data_NETWOA
_symmetry_cell_setting           triclinic
_symmetry_space_group_name_H-M   'P -1'
_symmetry_Int_Tables_number      2
_space_group_name_Hall           '-P 1'
loop_
_symmetry_equiv_pos_site_id
_symmetry_equiv_pos_as_xyz
1 x,y,z
2 -x,-y,-z
_cell_length_a                   10.8879(16)
_cell_length_b                   15.185(2)
_cell_length_c                   15.653(2)
_cell_angle_alpha                70.089(2)
_cell_angle_beta                 81.990(3)
_cell_angle_gamma                74.183(3)
_cell_volume                     2338.03
loop_
_atom_site_label
_atom_site_type_symbol
_atom_site_fract_x
_atom_site_fract_y
_atom_site_fract_z
C1 C 1.1161(8) -0.1553(6) 0.8183(6)
H1 H 1.1874 -0.1990 0.8041
C2 C 1.1326(8) -0.0756(5) 0.8387(5)
H2 H 1.2141 -0.0671 0.8384
C3 C 1.0272(8) -0.0112(6) 0.8591(6)
C4 C 0.9047(8) -0.0226(6) 0.8594(5)
H3 H 0.8337 0.0223 0.8722
C5 C 0.8896(8) -0.1027(6) 0.8403(5)
H4 H 0.8080 -0.1115 0.8416
C6 C 1.0544(8) 0.0630(6) 0.8936(5)
C7 C 0.9600(8) 0.2137(5) 0.9293(5)
C8 C 0.8453(7) 0.2766(6) 0.9492(5)
H5 H 0.7674 0.2671 0.9410
C9 C 0.8453(8) 0.3493(6) 0.9796(6)
C10 C 0.9614(7) 0.3649(5) 0.9919(5)
H6 H 0.9620 0.4153 1.0127
C11 C 1.0749(7) 0.3057(5) 0.9733(5)
C12 C 1.0746(8) 0.2297(6) 0.9415(5)
H7 H 1.1515 0.1900 0.9287
C13 C 0.7228(8) 0.4203(6) 0.9881(5)
C14 C 1.2018(7) 0.3171(6) 0.9891(5)
C15 C -0.1676(8) -0.2746(6) 0.5894(6)
H8 H -0.2534 -0.2749 0.5930
C16 C -0.0740(8) -0.3448(6) 0.5611(6)
H9 H -0.0982 -0.3913 0.5454
C17 C 0.0545(8) -0.3450(6) 0.5564(6)
C18 C 0.0887(8) -0.2736(6) 0.5800(6)
H10 H 0.1742 -0.2727 0.5774
C19 C -0.0043(8) -0.2052(6) 0.6071(5)
H11 H 0.0189 -0.1581 0.6225
C20 C 0.1499(8) -0.4227(6) 0.5302(6)
C21 C 0.3458(7) -0.4540(5) 0.4343(5)
C22 C 0.3860(7) -0.4159(6) 0.3451(5)
H12 H 0.3583 -0.3501 0.3153
C23 C 0.4673(8) -0.4745(6) 0.2994(5)
C24 C 0.5135(7) -0.5731(5) 0.3464(5)
H13 H 0.5714 -0.6126 0.3172
C25 C 0.4720(9) -0.6118(6) 0.4373(6)
C26 C 0.3878(8) -0.5510(6) 0.4809(6)
H14 H 0.3600 -0.5759 0.5412
C27 C 0.5071(8) -0.4362(6) 0.2008(6)
C28 C 0.5241(8) -0.7170(6) 0.4861(6)
C29 C 0.8804(8) -0.4297(6) 0.7957(5)
H15 H 0.8025 -0.3915 0.8092
C30 C 0.8814(8) -0.5072(5) 0.7664(5)
H16 H 0.8052 -0.5199 0.7595
C31 C 0.9977(8) -0.5647(5) 0.7478(5)
C32 C 1.1120(8) -0.5466(5) 0.7581(5)
H17 H 1.1897 -0.5862 0.7465
C33 C 1.1086(8) -0.4675(5) 0.7865(5)
H18 H 1.1848 -0.4543 0.7929
C34 C 0.9841(8) -0.6421(6) 0.7130(5)
C35 C 1.0886(8) -0.7900(6) 0.6733(6)
C36 C 0.9742(8) -0.8096(5) 0.6664(5)
H19 H 0.8973 -0.7746 0.6852
C37 C 0.9756(7) -0.8835(5) 0.6303(5)
C38 C 1.0917(7) -0.9350(6) 0.6032(5)
H20 H 1.0930 -0.9835 0.5793
C39 C 1.2067(7) -0.9152(6) 0.6112(5)
C40 C 1.2059(7) -0.8426(5) 0.6474(5)
H21 H 1.2820 -0.8296 0.6542
C41 C 0.8519(7) -0.8956(6) 0.6127(5)
C42 C 1.3273(8) -0.9655(6) 0.5734(6)
C43 C 0.5144(8) 0.1306(6) 1.0968(6)
H22 H 0.5062 0.0936 1.0622
Cu1 Cu 0.98080(10) -0.29117(7) 0.82299(7)
N1 N 0.9957(6) -0.1693(5) 0.8192(4)
N2 N 0.9543(5) 0.1359(4) 0.8996(4)
H23 H 0.8815 0.1356 0.8845
N3 N -0.1319(7) -0.2056(5) 0.6118(5)
N4 N 0.2555(6) -0.3934(5) 0.4775(4)
H24 H 0.2658 -0.3373 0.4712
N5 N 0.9927(7) -0.4087(5) 0.8052(4)
N6 N 1.0888(6) -0.7142(4) 0.7070(4)
H25 H 1.1598 -0.7136 0.7248
O1 O 1.1623(5) 0.0548(4) 0.9094(4)
O2 O 0.6209(5) 0.4051(4) 0.9802(4)
O3 O 0.7343(5) 0.4941(3) 1.0056(3)
O4 O 1.2235(5) 0.3165(4) 1.0637(3)
O5 O 1.2836(5) 0.3237(4) 0.9234(3)
O6 O 0.1341(5) -0.4995(4) 0.5487(4)
O7 O 0.4703(5) -0.3444(4) 0.1611(4)
O8 O 0.5652(5) -0.4934(4) 0.1608(4)
O9 O 0.5959(5) -0.7704(4) 0.4460(4)
O10 O 0.4871(5) -0.7492(4) 0.5680(3)
O11 O 0.8806(5) -0.6414(4) 0.6958(4)
O12 O 0.7509(5) -0.8318(4) 0.6212(4)
O13 O 0.8474(5) -0.9638(4) 0.5882(4)
O14 O 1.4280(5) -0.9367(4) 0.5740(4)
O15 O 1.3264(6) -1.0290(4) 0.5424(4)
O16 O 0.5226(5) 0.2128(4) 1.0502(4)
O17 O 0.5147(5) 0.0855(4) 1.1807(4)
O18 O 0.4456(5) 0.3673(4) 1.1425(3)
H26 H 0.4536 0.4292 1.1414
H27 H 0.5198 0.3186 1.1681
O19 O 0.5471(5) -0.9267(4) 0.7337(4)
H28 H 0.4710 -0.8771 0.7351
H29 H 0.5292 -0.9889 0.7639
O20 O 0.6674(5) -1.0832(4) 0.6585(4)
H30 H 0.7356 -1.1159 0.6260
H31 H 0.6933 -1.0943 0.7183
Tb1 Tb 0.61809(4) -0.91334(3) 0.57826(3)
Tb2 Tb 0.42776(4) 0.37137(3) 0.98856(3)
O3A O 0.2657(5) 0.5059(3) 0.9944(3)
O4_2 O 0.2235(5) 0.3165(4) 1.0637(3)
O5_2 O 0.2836(5) 0.3237(4) 0.9234(3)
O7A O 0.5297(5) 0.3444(4) 0.8389(4)
O8A O 0.4348(5) 0.4934(4) 0.8392(4)
O14_2 O 0.4280(5) -0.9367(4) 0.5740(4)
O15A O 0.6736(6) -0.9710(4) 0.4576(4)
Tb1_2 Tb 1.61809(4) -0.91334(3) 0.57826(3)
Tb1A Tb 1.38191(4) -1.08666(3) 0.42174(3)
Tb2A Tb 0.57224(4) 0.62863(3) 1.01144(3)
Tb2_2 Tb 1.42776(4) 0.37137(3) 0.98856(3)
Tb2A_2 Tb 0.57224(4) -0.37137(3) 0.01144(3)
O21 O 0.6392(5) 0.7298(4) 0.2617(4)
H32 H 0.6113 0.7061 0.3159
H33 H 0.6140 0.7258 0.2145
O22 O 0.6913(5) 0.1732(4) 0.8276(4)
H34 H 0.6471 0.2137 0.8532
H35 H 0.6752 0.1978 0.7716
O23 O 0.5387(5) 0.2078(4) 0.2818(4)
H36 H 0.5535 0.2046 0.3348
H37 H 0.5280 0.1539 0.2831
loop_
_geom_bond_atom_site_label_1
_geom_bond_atom_site_label_2
_geom_bond_site_symmetry_1
_geom_bond_site_symmetry_2
C1 H1 1_555 1_555
C2 C1 1_555 1_555
H2 C2 1_555 1_555
C3 C2 1_555 1_555
C4 C3 1_555 1_555
H3 C4 1_555 1_555
C5 C4 1_555 1_555
H4 C5 1_555 1_555
C6 C3 1_555 1_555
C7 C8 1_555 1_555
C8 H5 1_555 1_555
C9 C8 1_555 1_555
C10 C9 1_555 1_555
H6 C10 1_555 1_555
C11 C10 1_555 1_555
C12 C7 1_555 1_555
H7 C12 1_555 1_555
C13 C9 1_555 1_555
C14 C11 1_555 1_555
C15 H8 1_555 1_555
C16 C15 1_555 1_555
H9 C16 1_555 1_555
C17 C16 1_555 1_555
C18 C17 1_555 1_555
H10 C18 1_555 1_555
C19 C18 1_555 1_555
H11 C19 1_555 1_555
C20 C17 1_555 1_555
C21 C22 1_555 1_555
C22 H12 1_555 1_555
C23 C22 1_555 1_555
C24 C23 1_555 1_555
H13 C24 1_555 1_555
C25 C24 1_555 1_555
C26 C21 1_555 1_555
H14 C26 1_555 1_555
C27 C23 1_555 1_555
C28 C25 1_555 1_555
C29 H15 1_555 1_555
C30 C29 1_555 1_555
H16 C30 1_555 1_555
C31 C30 1_555 1_555
C32 C31 1_555 1_555
H17 C32 1_555 1_555
C33 C32 1_555 1_555
H18 C33 1_555 1_555
C34 C31 1_555 1_555
C35 C36 1_555 1_555
C36 H19 1_555 1_555
C37 C36 1_555 1_555
C38 C37 1_555 1_555
H20 C38 1_555 1_555
C39 C38 1_555 1_555
C40 C35 1_555 1_555
H21 C40 1_555 1_555
C41 C37 1_555 1_555
C42 C39 1_555 1_555
C43 H22 1_555 1_555
Cu1 N1 1_555 1_555
N1 C1 1_555 1_555
N2 C6 1_555 1_555
H23 N2 1_555 1_555
N3 C15 1_555 1_555
N4 C20 1_555 1_555
H24 N4 1_555 1_555
N5 C29 1_555 1_555
N6 C34 1_555 1_555
H25 N6 1_555 1_555
O1 C6 1_555 1_555
O2 C13 1_555 1_555
O3 C13 1_555 1_555
O4 C14 1_555 1_555
O5 C14 1_555 1_555
O6 C20 1_555 1_555
O7 C27 1_555 1_555
O8 C27 1_555 1_555
O9 C28 1_555 1_555
O10 C28 1_555 1_555
O11 C34 1_555 1_555
O12 C41 1_555 1_555
O13 C41 1_555 1_555
O14 C42 1_555 1_555
O15 C42 1_555 1_555
O16 C43 1_555 1_555
O17 C43 1_555 1_555
O18 H26 1_555 1_555
H27 O18 1_555 1_555
O19 H28 1_555 1_555
H29 O19 1_555 1_555
O20 H30 1_555 1_555
H31 O20 1_555 1_555
O21 H32 1_555 1_555
H33 O21 1_555 1_555
O22 H34 1_555 1_555
H35 O22 1_555 1_555
O23 H36 1_555 1_555
H37 O23 1_555 1_555
Tb1 O9 1_555 1_555
Tb2 O2 1_555 1_555
O3A Tb2 1_555 1_555
O4_2 Tb2 1_555 1_555
O5_2 Tb2 1_555 1_555
O7A Tb2 1_555 1_555
O8A Tb2 1_555 1_555
O14_2 Tb1 1_555 1_555
O15A Tb1 1_555 1_555
Tb1_2 O14 1_555 1_555
Tb1A O15 1_555 1_555
Tb2A O3 1_555 1_555
Tb2_2 O4 1_555 1_555
Tb2A_2 O7 1_555 1_555
C5 N1 1_555 1_555
C7 N2 1_555 1_555
C11 C12 1_555 1_555
C19 N3 1_555 1_555
C21 N4 1_555 1_555
C25 C26 1_555 1_555
C33 N5 1_555 1_555
C35 N6 1_555 1_555
C39 C40 1_555 1_555
Cu1 N5 1_555 1_555
O5 Tb2_2 1_555 1_555
O8 Tb2A_2 1_555 1_555
O10 Tb1 1_555 1_555
O12 Tb1 1_555 1_555
O13 Tb1 1_555 1_555
O16 Tb2 1_555 1_555
O18 Tb2 1_555 1_555
O19 Tb1 1_555 1_555
O20 Tb1 1_555 1_555

#END
