
#######################################################################
#
#                 Cambridge Crystallographic Data Centre
#                                CCDC 
#
#######################################################################
#
# If this CIF has been generated from an entry in the Cambridge 
# Structural Database, then it will include bibliographic, chemical, 
# crystal, experimental, refinement or atomic coordinate data resulting 
# from the CCDC's data processing and validation procedures.
#
#######################################################################

data_NETWAM
_symmetry_cell_setting           orthorhombic
_symmetry_space_group_name_H-M   'F d d d'
_symmetry_Int_Tables_number      70
_space_group_name_Hall           '-F 2uv 2vw'
loop_
_symmetry_equiv_pos_site_id
_symmetry_equiv_pos_as_xyz
1 x,y,z
2 1/4-x,1/4-y,z
3 x,1/4-y,1/4-z
4 1/4-x,y,1/4-z
5 x,1/2+y,1/2+z
6 1/4-x,3/4-y,1/2+z
7 x,3/4-y,3/4-z
8 1/4-x,1/2+y,3/4-z
9 1/2+x,y,1/2+z
10 3/4-x,1/4-y,1/2+z
11 1/2+x,1/4-y,3/4-z
12 3/4-x,y,3/4-z
13 1/2+x,1/2+y,z
14 3/4-x,3/4-y,z
15 1/2+x,3/4-y,1/4-z
16 3/4-x,1/2+y,1/4-z
17 -x,-y,-z
18 3/4+x,3/4+y,-z
19 -x,3/4+y,3/4+z
20 3/4+x,-y,3/4+z
21 -x,1/2-y,1/2-z
22 3/4+x,1/4+y,1/2-z
23 -x,1/4+y,1/4+z
24 3/4+x,1/2-y,1/4+z
25 1/2-x,-y,1/2-z
26 1/4+x,3/4+y,1/2-z
27 1/2-x,3/4+y,1/4+z
28 1/4+x,-y,1/4+z
29 1/2-x,1/2-y,-z
30 1/4+x,1/4+y,-z
31 1/2-x,1/4+y,3/4+z
32 1/4+x,1/2-y,3/4+z
_cell_length_a                   14.590(3)
_cell_length_b                   17.655(4)
_cell_length_c                   40.224(8)
_cell_angle_alpha                90
_cell_angle_beta                 90
_cell_angle_gamma                90
_cell_volume                     10361.2
loop_
_atom_site_label
_atom_site_type_symbol
_atom_site_fract_x
_atom_site_fract_y
_atom_site_fract_z
C10 C 0.1019(5) 1.0151(5) 0.6833(3)
H7 H 0.1150 1.0422 0.6641
C11 C -0.0086(6) 0.9359(4) 0.7037(3)
H8 H -0.0064 0.8847 0.6957
H9 H -0.0706 0.9488 0.7093
H10 H 0.0296 0.9408 0.7230
C12 C -0.0283(7) 0.9939(6) 0.64901(19)
H11 H 0.0044 1.0260 0.6338
H12 H -0.0865 1.0164 0.6542
H13 H -0.0379 0.9452 0.6390
N5 N 0.0233(3) 0.9854(2) 0.67853(10)
O5 O 0.1598(3) 1.0233(3) 0.69940(12)
Zn1 Zn 1.6250 0.1250 0.6250
C1 C 1.5208(2) 0.0815(2) 0.56023(9)
H1 H 1.5695 0.0479 0.5580
C2 C 1.4494(2) 0.17542(19) 0.58926(8)
H2 H 1.4477 0.2085 0.6073
C3 C 1.4542(2) 0.0810(2) 0.53612(9)
H3 H 1.4587 0.0484 0.5180
C4 C 1.3786(2) 0.1785(2) 0.56656(8)
H4 H 1.3307 0.2126 0.5695
C5 C 1.3794(2) 0.13023(19) 0.53918(8)
C6 C 1.2953(2) 0.0986(2) 0.48719(8)
C7 C 1.2060(2) 0.11336(18) 0.47023(8)
C8 C 1.1250 0.1250 0.48754(12)
H5 H 1.1250 0.1250 0.5107
C9 C 1.2024(2) 0.1136(2) 0.43559(8)
H6 H 1.2564 0.1055 0.4238
N1 N 1.52040(18) 0.12759(16) 0.58688(7)
N2 N 1.30536(18) 0.13453(17) 0.51731(7)
H14 H 1.2606 0.1630 0.5234
N3 N 1.1250 0.1250 0.41842(10)
N4 N 1.6508(4) 0.3029(4) 0.61957(17)
O1 O 1.35346(18) 0.05760(18) 0.47509(7)
O2 O 1.6250 0.2479(3) 0.6250
O3 O 1.6250 0.3689(3) 0.6250
O4 O 1.7296(5) 0.2982(4) 0.60705(18)
Zn1_2 Zn 0.6250 0.1250 0.6250
Zn1_3 Zn 2.6250 0.1250 0.6250
C1A C 0.7292(2) 0.1685(2) 0.56023(9)
C1A_2 C 1.7292(2) 0.1685(2) 0.56023(9)
C1_2 C 2.5208(2) 0.0815(2) 0.56023(9)
H1A H 0.6805 0.2021 0.5580
H1A_2 H 1.6805 0.2021 0.5580
H1_2 H 2.5695 0.0479 0.5580
C2A C 0.8006(2) 0.07458(19) 0.58926(8)
C2A_2 C 1.8006(2) 0.07458(19) 0.58926(8)
C2_2 C 2.4494(2) 0.17542(19) 0.58926(8)
H2A H 0.8023 0.0415 0.6073
H2A_2 H 1.8023 0.0415 0.6073
H2_2 H 2.4477 0.2085 0.6073
C3A C 0.7958(2) 0.1690(2) 0.53612(9)
C3A_2 C 1.7958(2) 0.1690(2) 0.53612(9)
C3_2 C 2.4542(2) 0.0810(2) 0.53612(9)
H3A H 0.7913 0.2016 0.5180
H3A_2 H 1.7913 0.2016 0.5180
H3_2 H 2.4587 0.0484 0.5180
C4A C 0.8714(2) 0.0715(2) 0.56656(8)
C4A_2 C 1.8714(2) 0.0715(2) 0.56656(8)
C4_2 C 2.3786(2) 0.1785(2) 0.56656(8)
H4A H 0.9193 0.0374 0.5695
H4A_2 H 1.9193 0.0374 0.5695
H4_2 H 2.3307 0.2126 0.5695
C5A C 0.8706(2) 0.11977(19) 0.53918(8)
C5A_2 C 1.8706(2) 0.11977(19) 0.53918(8)
C5_2 C 2.3794(2) 0.13023(19) 0.53918(8)
C6A C 0.9547(2) 0.1514(2) 0.48719(8)
C6A_2 C 1.9547(2) 0.1514(2) 0.48719(8)
C6_2 C 2.2953(2) 0.0986(2) 0.48719(8)
C7A C 1.0440(2) 0.13664(18) 0.47023(8)
C7A_2 C 2.0440(2) 0.13664(18) 0.47023(8)
C7_2 C 2.2060(2) 0.11336(18) 0.47023(8)
C8_2 C 2.1250 0.1250 0.48754(12)
H5_2 H 2.1250 0.1250 0.5107
C9A C 1.0476(2) 0.1364(2) 0.43559(8)
C9A_2 C 2.0476(2) 0.1364(2) 0.43559(8)
C9_2 C 2.2024(2) 0.1136(2) 0.43559(8)
H6A H 0.9936 0.1445 0.4238
H6A_2 H 1.9936 0.1445 0.4238
H6_2 H 2.2564 0.1055 0.4238
N1A N 0.72960(18) 0.12241(16) 0.58688(7)
N1A_2 N 1.72960(18) 0.12241(16) 0.58688(7)
N1_2 N 2.52040(18) 0.12759(16) 0.58688(7)
N1B N 1.52040(18) 0.12241(16) 0.66312(7)
N1C N 1.72960(18) 0.12759(16) 0.66312(7)
N2A N 0.94464(18) 0.11547(17) 0.51731(7)
N2A_2 N 1.94464(18) 0.11547(17) 0.51731(7)
N2_2 N 2.30536(18) 0.13453(17) 0.51731(7)
H14A H 0.9894 0.0870 0.5234
H14A_2 H 1.9894 0.0870 0.5234
H14_2 H 2.2606 0.1630 0.5234
N3_2 N 2.1250 0.1250 0.41842(10)
N4C N 1.5992(4) 0.3029(4) 0.63043(17)
N4A N 1.5992(4) -0.0529(4) 0.61957(17)
N4B N 1.6508(4) -0.0529(4) 0.63043(17)
O1A O 0.89654(18) 0.19240(18) 0.47509(7)
O1A_2 O 1.89654(18) 0.19240(18) 0.47509(7)
O1_2 O 2.35346(18) 0.05760(18) 0.47509(7)
O2A O 1.6250 0.0021(3) 0.6250
O3A O 1.6250 -0.1189(3) 0.6250
O4C O 1.5204(5) 0.2982(4) 0.64295(18)
O4A O 1.5204(5) -0.0482(4) 0.60705(18)
O4B O 1.7296(5) -0.0482(4) 0.64295(18)
loop_
_geom_bond_atom_site_label_1
_geom_bond_atom_site_label_2
_geom_bond_site_symmetry_1
_geom_bond_site_symmetry_2
Zn1 N1 1_555 1_555
C1 H1 1_555 1_555
C2 H2 1_555 1_555
C3 C1 1_555 1_555
H3 C3 1_555 1_555
C4 C2 1_555 1_555
H4 C4 1_555 1_555
C5 C3 1_555 1_555
C6 C7 1_555 1_555
C7 C8 1_555 1_555
C8 H5 1_555 1_555
C9 C7 1_555 1_555
H6 C9 1_555 1_555
C10 H7 1_555 1_555
C11 H8 1_555 1_555
H9 C11 1_555 1_555
H10 C11 1_555 1_555
C12 H11 1_555 1_555
H12 C12 1_555 1_555
H13 C12 1_555 1_555
N1 C1 1_555 1_555
N2 C5 1_555 1_555
H14 N2 1_555 1_555
N3 C9 1_555 1_555
N4 O2 1_555 1_555
N5 C10 1_555 1_555
O1 C6 1_555 1_555
O2 Zn1 1_555 1_555
O3 N4 1_555 1_555
O4 N4 1_555 1_555
O5 C10 1_555 1_555
Zn1_2 N1A 1_555 1_555
Zn1_3 N1_2 1_555 1_555
C1A H1A 1_555 1_555
C1A_2 H1A_2 1_555 1_555
C1_2 H1_2 1_555 1_555
C2A H2A 1_555 1_555
C2A_2 H2A_2 1_555 1_555
C2_2 H2_2 1_555 1_555
C3A C1A 1_555 1_555
C3A_2 C1A_2 1_555 1_555
C3_2 C1_2 1_555 1_555
H3A C3A 1_555 1_555
H3A_2 C3A_2 1_555 1_555
H3_2 C3_2 1_555 1_555
C4A C2A 1_555 1_555
C4A_2 C2A_2 1_555 1_555
C4_2 C2_2 1_555 1_555
H4A C4A 1_555 1_555
H4A_2 C4A_2 1_555 1_555
H4_2 C4_2 1_555 1_555
C5A C3A 1_555 1_555
C5A_2 C3A_2 1_555 1_555
C5_2 C3_2 1_555 1_555
C6A C7A 1_555 1_555
C6A_2 C7A_2 1_555 1_555
C6_2 C7_2 1_555 1_555
C7A C8 1_555 1_555
C7A_2 C8_2 1_555 1_555
C7_2 C8_2 1_555 1_555
C8_2 H5_2 1_555 1_555
C9A N3 1_555 1_555
C9A_2 C7A_2 1_555 1_555
C9_2 C7_2 1_555 1_555
H6A C9A 1_555 1_555
H6A_2 C9A_2 1_555 1_555
H6_2 C9_2 1_555 1_555
N1A C1A 1_555 1_555
N1A_2 Zn1 1_555 1_555
N1_2 C1_2 1_555 1_555
N1B Zn1 1_555 1_555
N1C Zn1 1_555 1_555
N2A C5A 1_555 1_555
N2A_2 C5A_2 1_555 1_555
N2_2 C5_2 1_555 1_555
H14A N2A 1_555 1_555
H14A_2 N2A_2 1_555 1_555
H14_2 N2_2 1_555 1_555
N3_2 C9A_2 1_555 1_555
N4C N4 1_555 1_555
N4A N4B 1_555 1_555
N4B O2A 1_555 1_555
O1A C6A 1_555 1_555
O1A_2 C6A_2 1_555 1_555
O1_2 C6_2 1_555 1_555
O2A Zn1 1_555 1_555
O3A N4A 1_555 1_555
O4C N4C 1_555 1_555
O4A N4A 1_555 1_555
O4B N4B 1_555 1_555
C2 N1 1_555 1_555
C4 C5 1_555 1_555
C6 N2 1_555 1_555
C11 N5 1_555 1_555
C12 N5 1_555 1_555
O2 N4C 1_555 1_555
O3 N4C 1_555 1_555
C1A_2 N1A_2 1_555 1_555
C2A N1A 1_555 1_555
C2A_2 N1A_2 1_555 1_555
C2_2 N1_2 1_555 1_555
C4A C5A 1_555 1_555
C4A_2 C5A_2 1_555 1_555
C4_2 C5_2 1_555 1_555
C6A N2A 1_555 1_555
C6A_2 N2A_2 1_555 1_555
C6_2 N2_2 1_555 1_555
C7A C9A 1_555 1_555
C9_2 N3_2 1_555 1_555
N4A O2A 1_555 1_555
N4B O3A 1_555 1_555

#END
