
#######################################################################
#
#                 Cambridge Crystallographic Data Centre
#                                CCDC 
#
#######################################################################
#
# If this CIF has been generated from an entry in the Cambridge 
# Structural Database, then it will include bibliographic, chemical, 
# crystal, experimental, refinement or atomic coordinate data resulting 
# from the CCDC's data processing and validation procedures.
#
#######################################################################

data_NETXEQ
_symmetry_cell_setting           monoclinic
_symmetry_space_group_name_H-M   'C 2/c'
_symmetry_Int_Tables_number      15
_space_group_name_Hall           '-C 2yn'
loop_
_symmetry_equiv_pos_site_id
_symmetry_equiv_pos_as_xyz
1 x,y,z
2 1/2+x,1/2+y,z
3 -x,y,1/2-z
4 1/2-x,1/2+y,1/2-z
5 -x,-y,-z
6 1/2-x,1/2-y,-z
7 x,-y,1/2+z
8 1/2+x,1/2-y,1/2+z
_cell_length_a                   35.000(10)
_cell_length_b                   6.860(2)
_cell_length_c                   14.179(4)
_cell_angle_alpha                90
_cell_angle_beta                 98.183(5)
_cell_angle_gamma                90
_cell_volume                     3369.72
loop_
_atom_site_label
_atom_site_type_symbol
_atom_site_fract_x
_atom_site_fract_y
_atom_site_fract_z
Gd1 Gd 0.331976(8) 0.14038(4) 0.275821(19)
O1 O 0.26818(11) 0.0222(7) 0.2089(3)
O2 O 0.20910(12) -0.0883(7) 0.2156(3)
O3 O 0.17229(13) -0.2116(7) 0.3723(3)
O4 O 0.18231(14) -0.1344(6) 0.5268(3)
O5 O 0.34197(15) -0.1241(7) 0.1690(3)
H1 H 0.3305 -0.2324 0.1732
H2 H 0.3570 -0.1088 0.1274
O6 O 0.39697(14) 0.1917(9) 0.2522(3)
H3 H 0.4150 0.1848 0.2991
H4 H 0.4022 0.2172 0.1968
O7 O 0.35881(15) 0.3378(7) 0.4035(4)
H5 H 0.3488 0.3402 0.4547
H6 H 0.3786 0.4068 0.3986
O8 O 0.36117(13) -0.1126(7) 0.3780(3)
H7 H 0.3497 -0.1569 0.4224
H8 H 0.3831 -0.1579 0.3699
N1 N 0.28528(14) 0.0623(8) 0.3963(3)
N2 N 0.28770(14) 0.0736(8) 0.4894(3)
N3 N 0.25441(14) 0.0080(8) 0.5124(4)
H10 H 0.253(2) -0.017(12) 0.5741(17)
C1 C 0.24118(17) -0.0289(9) 0.2533(4)
C2 C 0.24990(16) -0.0092(9) 0.3598(4)
C3 C 0.22946(16) -0.0452(9) 0.4345(4)
C4 C 0.19108(17) -0.1359(9) 0.4448(4)
Gd1C Gd 0.168024(8) -0.35962(4) 0.224179(19)
O2C O 0.29090(12) 0.4117(7) 0.2844(3)
O3C O 0.32771(13) 0.2884(7) 0.1277(3)
O9 O 0.41555(16) 0.1844(11) 0.0727(4)
O10 O 0.47361(14) 0.2059(10) 0.1536(3)
H9 H 0.4959 0.2120 0.1420
O11 O 0.54051(13) 0.2535(9) 0.1153(3)
O12 O 0.57148(14) 0.3108(9) -0.0079(4)
N4 N 0.44226(15) 0.2330(10) -0.0988(4)
N5 N 0.46543(16) 0.2622(10) -0.1637(4)
H11 H 0.456(2) 0.273(11) -0.2258(15)
N6 N 0.50254(15) 0.2833(10) -0.1313(4)
C5 C 0.4498(2) 0.2048(12) 0.0737(5)
C6 C 0.46630(18) 0.2309(11) -0.0167(4)
C7 C 0.50418(18) 0.2649(10) -0.0371(4)
C8 C 0.54172(18) 0.2758(11) 0.0272(5)
O13 O 0.09307(16) 0.1417(7) 0.3163(4)
H12 H 0.0834 0.1387 0.3678
H13 H 0.1165 0.0898 0.3175
loop_
_geom_bond_atom_site_label_1
_geom_bond_atom_site_label_2
_geom_bond_site_symmetry_1
_geom_bond_site_symmetry_2
Gd1 O1 1_555 1_555
O1 C1 1_555 1_555
O2 C1 1_555 1_555
O3 C4 1_555 1_555
O4 C4 1_555 1_555
O5 Gd1 1_555 1_555
H1 O5 1_555 1_555
H2 O5 1_555 1_555
O6 Gd1 1_555 1_555
H3 O6 1_555 1_555
H4 O6 1_555 1_555
O7 Gd1 1_555 1_555
H5 O7 1_555 1_555
H6 O7 1_555 1_555
O8 Gd1 1_555 1_555
H7 O8 1_555 1_555
H8 O8 1_555 1_555
O9 C5 1_555 1_555
O10 H9 1_555 1_555
O11 C8 1_555 1_555
O12 C8 1_555 1_555
N1 Gd1 1_555 1_555
N2 N1 1_555 1_555
N3 N2 1_555 1_555
H10 N3 1_555 1_555
N4 N5 1_555 1_555
N5 H11 1_555 1_555
N6 N5 1_555 1_555
C1 C2 1_555 1_555
C2 N1 1_555 1_555
C3 N3 1_555 1_555
C4 C3 1_555 1_555
C5 O10 1_555 1_555
C6 N4 1_555 1_555
C7 N6 1_555 1_555
C8 C7 1_555 1_555
O13 H12 1_555 1_555
H13 O13 1_555 1_555
Gd1C O2 1_555 1_555
O2C Gd1 1_555 1_555
O3C Gd1 1_555 1_555
O3 Gd1C 1_555 1_555
C2 C3 1_555 1_555
C5 C6 1_555 1_555
C6 C7 1_555 1_555

#END
