
#######################################################################
#
#                 Cambridge Crystallographic Data Centre
#                                CCDC 
#
#######################################################################
#
# If this CIF has been generated from an entry in the Cambridge 
# Structural Database, then it will include bibliographic, chemical, 
# crystal, experimental, refinement or atomic coordinate data resulting 
# from the CCDC's data processing and validation procedures.
#
#######################################################################

data_NETXIV
_symmetry_cell_setting           triclinic
_symmetry_space_group_name_H-M   'P -1'
_symmetry_Int_Tables_number      2
_space_group_name_Hall           '-P 1'
loop_
_symmetry_equiv_pos_site_id
_symmetry_equiv_pos_as_xyz
1 x,y,z
2 -x,-y,-z
_cell_length_a                   9.264(2)
_cell_length_b                   10.759(3)
_cell_length_c                   16.990(4)
_cell_angle_alpha                93.483(4)
_cell_angle_beta                 93.053(4)
_cell_angle_gamma                106.781(3)
_cell_volume                     1613.86
loop_
_atom_site_label
_atom_site_type_symbol
_atom_site_fract_x
_atom_site_fract_y
_atom_site_fract_z
Br1 Br 0.72593(5) 0.63551(4) -0.00459(3)
Cu1 Cu 0.55123(5) 0.28142(5) -0.24658(3)
Br2 Br 0.54821(5) 0.69776(5) -0.34047(2)
Br3 Br 0.27904(5) 0.68685(5) -0.47967(3)
Br4 Br 1.05922(5) 0.78933(4) 0.08973(3)
C1 C 0.4077(4) 0.5803(4) -0.4915(2)
N1 N 0.4176(3) 0.1161(3) -0.17826(18)
O1 O 0.6999(3) 0.3827(3) -0.15850(15)
N2 N 0.6689(3) 0.1509(3) -0.25829(18)
O2 O 0.6063(3) 0.3027(3) -0.04655(17)
N3 N 0.4095(4) 0.3899(3) -0.23752(19)
C2 C 0.63028(10) 0.04781(8) -0.21353(5)
O4 O 0.71225(8) 0.42310(8) -0.33003(4)
O5 O 0.85549(10) 0.60260(9) -0.37585(6)
C3 C 0.85991(12) 0.43578(10) -0.04155(5)
C4 C 1.02412(11) 0.62150(11) 0.03809(6)
C5 C 0.70666(11) 0.36548(9) -0.08506(4)
C6 C 0.88473(14) 0.55852(11) -0.00223(5)
C7 C 0.52055(14) 0.58348(12) -0.43276(4)
N4 N 0.41654(8) 0.21036(7) -0.35085(4)
C8 C 0.61410(11) 0.50495(9) -0.44062(5)
C9 C 0.31028(8) 0.27249(8) -0.36187(4)
C10 C 0.73776(10) 0.51028(8) -0.37597(5)
C11 C 0.71439(12) -0.04186(9) -0.20918(6)
C12 C 0.49919(10) 0.03119(8) -0.16868(5)
C13 C 0.30378(8) 0.36758(8) -0.30032(5)
C14 C 0.87396(11) 0.07679(10) -0.30204(6)
H4 H 0.9541 0.0874 -0.3342
C15 C 0.29775(10) 0.10169(9) -0.13737(5)
H5 H 0.2403 0.1589 -0.1438
C16 C 0.46279(12) -0.06927(8) -0.11812(5)
C17 C 0.67313(14) -0.14283(9) -0.15684(7)
H6 H 0.7291 -0.2017 -0.1532
C18 C 0.78815(9) 0.16613(9) -0.30075(5)
H7 H 0.8161 0.2378 -0.3306
C19 C 0.20722(9) 0.24682(10) -0.42827(5)
C20 C 0.55506(14) -0.15425(9) -0.11277(6)
H8 H 0.5328 -0.2193 -0.0778
C21 C 0.83831(12) -0.02377(10) -0.25620(7)
H9 H 0.8959 -0.0817 -0.2556
C22 C 0.25259(12) 0.00572(10) -0.08519(5)
H10 H 0.1678 0.0003 -0.0571
C23 C 0.19060(10) 0.42970(10) -0.30472(6)
C24 C 0.40272(10) 0.47314(8) -0.17862(5)
H11 H 0.4754 0.4902 -0.1363
C25 C 0.18548(11) 0.51573(10) -0.24055(7)
H12 H 0.1113 0.5584 -0.2407
C26 C 0.08987(10) 0.40372(11) -0.37497(7)
H13 H 0.0173 0.4476 -0.3799
C27 C 0.32436(12) 0.08827(9) -0.47372(4)
H14 H 0.3321 0.0243 -0.5112
C28 C 0.09860(10) 0.31639(11) -0.43416(6)
H15 H 0.0326 0.3019 -0.4792
C29 C 0.33391(13) -0.08062(10) -0.07558(6)
H16 H 0.3045 -0.1461 -0.0413
C30 C 0.29080(12) 0.53698(10) -0.17709(6)
H17 H 0.2876 0.5930 -0.1338
C31 C 0.42160(10) 0.11980(8) -0.40591(4)
H18 H 0.4933 0.0755 -0.3988
C32 C 0.21754(11) 0.15073(10) -0.48562(5)
H19 H 0.1522 0.1301 -0.5311
Br1A Br 1.27407(5) 0.36449(4) 0.00459(3)
Cu1A Cu 1.44877(5) 0.71858(5) 0.24658(3)
Cu1A_2 Cu 0.44877(5) 0.71858(5) -0.75342(3)
Br2A Br 0.45179(5) 0.30224(5) -0.65953(2)
Br3A Br 0.72096(5) 0.31315(5) -0.52033(3)
Br4A Br 0.94078(5) 0.21067(4) -0.08973(3)
C1A C 0.5923(4) 0.4197(4) -0.5085(2)
N1A N 1.5824(3) 0.8839(3) 0.17826(18)
O1A O 1.3001(3) 0.6173(3) 0.15850(15)
N2A N 1.3311(3) 0.8491(3) 0.25829(18)
O2A O 1.3937(3) 0.6973(3) 0.04655(17)
N3A N 1.5905(4) 0.6101(3) 0.23752(19)
C2A C 1.36972(10) 0.95219(8) 0.21353(5)
O4A O 0.28775(8) 0.57690(8) -0.66997(4)
O4A_2 O 1.28775(8) 0.57690(8) 0.33003(4)
O5A O 0.14451(10) 0.39740(9) -0.62415(6)
C3A C 1.14009(12) 0.56422(10) 0.04155(5)
C4A C 0.97588(11) 0.37850(11) -0.03809(6)
C5A C 1.29334(11) 0.63452(9) 0.08506(4)
C6A C 1.11527(14) 0.44148(11) 0.00223(5)
C7A C 0.47945(14) 0.41652(12) -0.56724(4)
N4A N 1.58346(8) 0.78964(7) 0.35085(4)
C8A C 0.38590(11) 0.49505(9) -0.55938(5)
C9A C 1.68972(8) 0.72751(8) 0.36187(4)
C10A C 0.26224(10) 0.48972(8) -0.62403(5)
C11A C 1.28561(12) 1.04186(9) 0.20918(6)
C12A C 1.50081(10) 0.96881(8) 0.16868(5)
C13A C 1.69622(8) 0.63242(8) 0.30032(5)
C14A C 1.12604(11) 0.92321(10) 0.30204(6)
H4A H 1.0459 0.9126 0.3342
C15A C 1.70225(10) 0.89831(9) 0.13737(5)
H5A H 1.7597 0.8411 0.1438
C16A C 1.53721(12) 1.06927(8) 0.11812(5)
C17A C 1.32687(14) 1.14283(9) 0.15684(7)
H6A H 1.2709 1.2017 0.1532
C18A C 1.21185(9) 0.83387(9) 0.30075(5)
H7A H 1.1839 0.7622 0.3306
C19A C 1.79278(9) 0.75318(10) 0.42827(5)
C20A C 1.44494(14) 1.15425(9) 0.11277(6)
H8A H 1.4672 1.2193 0.0778
C21A C 1.16169(12) 1.02377(10) 0.25620(7)
H9A H 1.1041 1.0817 0.2556
C22A C 1.74741(12) 0.99428(10) 0.08519(5)
H10A H 1.8322 0.9997 0.0571
C23A C 1.80940(10) 0.57030(10) 0.30472(6)
C24A C 1.59728(10) 0.52686(8) 0.17862(5)
H11A H 1.5246 0.5098 0.1363
C25A C 1.81452(11) 0.48427(10) 0.24055(7)
H12A H 1.8887 0.4416 0.2407
C26A C 1.91013(10) 0.59628(11) 0.37497(7)
H13A H 1.9827 0.5524 0.3799
C27A C 1.67564(12) 0.91173(9) 0.47372(4)
H14A H 1.6679 0.9757 0.5112
C28A C 1.90140(10) 0.68361(11) 0.43416(6)
H15A H 1.9674 0.6981 0.4792
C29A C 1.66609(13) 1.08062(10) 0.07558(6)
H16A H 1.6955 1.1461 0.0413
C30A C 1.70920(12) 0.46302(10) 0.17709(6)
H17A H 1.7124 0.4070 0.1338
C31A C 1.57840(10) 0.88020(8) 0.40591(4)
H18A H 1.5067 0.9245 0.3988
C32A C 1.78246(11) 0.84927(10) 0.48562(5)
H19A H 1.8478 0.8699 0.5311
O3 O 0.89080(11) 0.64445(8) -0.20001(6)
H1 H 0.8862 0.5645 -0.1994
H2 H 0.8814 0.6507 -0.2495
O6 O 0.06285(12) -0.15771(9) -0.37415(7)
H3 H 0.0078 -0.2330 -0.3778
C33 C 0.16944(11) -0.14047(8) -0.31145(6)
H20 H 0.2394 -0.1881 -0.3239
H21 H 0.1201 -0.1717 -0.2652
H22 H 0.2230 -0.0496 -0.3016
loop_
_geom_bond_atom_site_label_1
_geom_bond_atom_site_label_2
_geom_bond_site_symmetry_1
_geom_bond_site_symmetry_2
Br1 C6 1_555 1_555
Cu1 N1 1_555 1_555
Br2 C7 1_555 1_555
Br3 C1 1_555 1_555
Br4 C4 1_555 1_555
C1 C7 1_555 1_555
N1 C12 1_555 1_555
O1 Cu1 1_555 1_555
N2 Cu1 1_555 1_555
O2 C5 1_555 1_555
N3 Cu1 1_555 1_555
O3 H1 1_555 1_555
H2 O3 1_555 1_555
C2 N2 1_555 1_555
O4 Cu1 1_555 1_555
O5 C10 1_555 1_555
C3 C5 1_555 1_555
C4 C6 1_555 1_555
C5 O1 1_555 1_555
C6 C3 1_555 1_555
C7 C8 1_555 1_555
N4 Cu1 1_555 1_555
C8 C10 1_555 1_555
C9 N4 1_555 1_555
C10 O4 1_555 1_555
C11 C2 1_555 1_555
C12 C2 1_555 1_555
C13 N3 1_555 1_555
O6 H3 1_555 1_555
C14 H4 1_555 1_555
C15 N1 1_555 1_555
H5 C15 1_555 1_555
C16 C12 1_555 1_555
C17 C11 1_555 1_555
H6 C17 1_555 1_555
C18 N2 1_555 1_555
H7 C18 1_555 1_555
C19 C9 1_555 1_555
C20 C16 1_555 1_555
H8 C20 1_555 1_555
C21 C11 1_555 1_555
H9 C21 1_555 1_555
C22 C15 1_555 1_555
H10 C22 1_555 1_555
C23 C13 1_555 1_555
C24 N3 1_555 1_555
H11 C24 1_555 1_555
C25 C23 1_555 1_555
H12 C25 1_555 1_555
C26 C23 1_555 1_555
H13 C26 1_555 1_555
C27 H14 1_555 1_555
C28 C19 1_555 1_555
H15 C28 1_555 1_555
C29 C16 1_555 1_555
H16 C29 1_555 1_555
C30 C24 1_555 1_555
H17 C30 1_555 1_555
C31 N4 1_555 1_555
H18 C31 1_555 1_555
C32 C19 1_555 1_555
H19 C32 1_555 1_555
C33 O6 1_555 1_555
H20 C33 1_555 1_555
H21 C33 1_555 1_555
H22 C33 1_555 1_555
Br1A C6A 1_555 1_555
Cu1A N1A 1_555 1_555
Cu1A_2 O4A 1_555 1_555
Br2A C7A 1_555 1_555
Br3A C1A 1_555 1_555
Br4A C4A 1_555 1_555
C1A C8 1_555 1_555
N1A C12A 1_555 1_555
O1A Cu1A 1_555 1_555
N2A Cu1A 1_555 1_555
O2A C5A 1_555 1_555
N3A Cu1A 1_555 1_555
C2A N2A 1_555 1_555
O4A C10A 1_555 1_555
O4A_2 Cu1A 1_555 1_555
O5A C10A 1_555 1_555
C3A C4 1_555 1_555
C4A C3 1_555 1_555
C5A O1A 1_555 1_555
C6A C3A 1_555 1_555
C7A C1A 1_555 1_555
N4A Cu1A 1_555 1_555
C8A C1 1_555 1_555
C9A N4A 1_555 1_555
C10A C8A 1_555 1_555
C11A C2A 1_555 1_555
C12A C2A 1_555 1_555
C13A N3A 1_555 1_555
C14A H4A 1_555 1_555
C15A N1A 1_555 1_555
H5A C15A 1_555 1_555
C16A C12A 1_555 1_555
C17A C11A 1_555 1_555
H6A C17A 1_555 1_555
C18A N2A 1_555 1_555
H7A C18A 1_555 1_555
C19A C9A 1_555 1_555
C20A C16A 1_555 1_555
H8A C20A 1_555 1_555
C21A C11A 1_555 1_555
H9A C21A 1_555 1_555
C22A C15A 1_555 1_555
H10A C22A 1_555 1_555
C23A C13A 1_555 1_555
C24A N3A 1_555 1_555
H11A C24A 1_555 1_555
C25A C23A 1_555 1_555
H12A C25A 1_555 1_555
C26A C23A 1_555 1_555
H13A C26A 1_555 1_555
C27A H14A 1_555 1_555
C28A C19A 1_555 1_555
H15A C28A 1_555 1_555
C29A C16A 1_555 1_555
H16A C29A 1_555 1_555
C30A C24A 1_555 1_555
H17A C30A 1_555 1_555
C31A N4A 1_555 1_555
H18A C31A 1_555 1_555
C32A C19A 1_555 1_555
H19A C32A 1_555 1_555
C9 C13 1_555 1_555
C14 C18 1_555 1_555
C14 C21 1_555 1_555
C17 C20 1_555 1_555
C22 C29 1_555 1_555
C25 C30 1_555 1_555
C26 C28 1_555 1_555
C27 C31 1_555 1_555
C27 C32 1_555 1_555
C3A C5A 1_555 1_555
C4A C6A 1_555 1_555
C7A C8A 1_555 1_555
C9A C13A 1_555 1_555
C14A C18A 1_555 1_555
C14A C21A 1_555 1_555
C17A C20A 1_555 1_555
C22A C29A 1_555 1_555
C25A C30A 1_555 1_555
C26A C28A 1_555 1_555
C27A C31A 1_555 1_555
C27A C32A 1_555 1_555

#END
