
#######################################################################
#
#                 Cambridge Crystallographic Data Centre
#                                CCDC 
#
#######################################################################
#
# If this CIF has been generated from an entry in the Cambridge 
# Structural Database, then it will include bibliographic, chemical, 
# crystal, experimental, refinement or atomic coordinate data resulting 
# from the CCDC's data processing and validation procedures.
#
#######################################################################

data_NETXIU
_symmetry_cell_setting           orthorhombic
_symmetry_space_group_name_H-M   'P m n a'
_symmetry_Int_Tables_number      53
_space_group_name_Hall           '-P 2ac 2'
loop_
_symmetry_equiv_pos_site_id
_symmetry_equiv_pos_as_xyz
1 x,y,z
2 1/2-x,-y,1/2+z
3 1/2-x,y,1/2-z
4 x,-y,-z
5 -x,-y,-z
6 1/2+x,y,1/2-z
7 1/2+x,-y,1/2+z
8 -x,y,z
_cell_length_a                   13.158(4)
_cell_length_b                   7.446(2)
_cell_length_c                   12.255(4)
_cell_angle_alpha                90
_cell_angle_beta                 90
_cell_angle_gamma                90
_cell_volume                     1200.68
loop_
_atom_site_label
_atom_site_type_symbol
_atom_site_fract_x
_atom_site_fract_y
_atom_site_fract_z
Mn1 Mn -0.2500 0.07160(9) 0.2500
Mn2 Mn 0.0000 -0.5000 0.5000
O1 O -0.22385(15) -0.1375(3) 0.3759(2)
O2 O -0.11459(16) -0.2978(3) 0.47217(18)
O3 O 0.2368(2) 0.2772(4) 0.1290(2)
H1 H 0.2819 0.2859 0.0797
H2 H 0.1997 0.3689 0.1394
O4 O 0.0000 -0.5441(5) 0.3233(3)
H3 H 0.0000 -0.4550 0.2810
H4 H 0.0000 -0.6483 0.2965
N1 N 0.0822(2) 0.0251(4) 0.2614(2)
N2 N 0.0000 0.0949(6) 0.2139(4)
C1 C -0.0528(2) -0.0914(4) 0.3386(2)
C2 C -0.1348(2) -0.1831(4) 0.4001(3)
Mn1E Mn 0.2500 0.07160(9) 0.2500
Mn1F Mn 0.2500 -1.07160(9) 0.7500
Mn1A Mn -0.2500 -1.07160(9) 0.7500
O1B O -0.27615(15) -0.1375(3) 0.1241(2)
O1G O 0.22385(15) -0.1375(3) 0.3759(2)
O1E O 0.27615(15) -0.1375(3) 0.1241(2)
O1D O 0.22385(15) -0.8625(3) 0.6241(2)
O1C O -0.22385(15) -0.8625(3) 0.6241(2)
O2G O 0.11459(16) -0.2978(3) 0.47217(18)
O2D O 0.11459(16) -0.7022(3) 0.52783(18)
O2C O -0.11459(16) -0.7022(3) 0.52783(18)
O3B O 0.2632(2) 0.2772(4) 0.3710(2)
O3E O -0.2632(2) 0.2772(4) 0.3710(2)
O3G O -0.2368(2) 0.2772(4) 0.1290(2)
H1B H 0.2181 0.2859 0.4203
H1E H -0.2181 0.2859 0.4203
H1G H -0.2819 0.2859 0.0797
H2B H 0.3003 0.3689 0.3606
H2E H -0.3003 0.3689 0.3606
H2G H -0.1997 0.3689 0.1394
O4D O 0.0000 -0.4559(5) 0.6767(3)
H3D H 0.0000 -0.5450 0.7190
H4D H 0.0000 -0.3517 0.7035
N1G N -0.0822(2) 0.0251(4) 0.2614(2)
N1E N -0.4178(2) 0.0251(4) 0.2386(2)
N1B N 0.4178(2) 0.0251(4) 0.2386(2)
N1C N 0.0822(2) -1.0251(4) 0.7386(2)
N1D N -0.0822(2) -1.0251(4) 0.7386(2)
N2D N 0.0000 -1.0949(6) 0.7861(4)
C1G C 0.0528(2) -0.0914(4) 0.3386(2)
C1C C -0.0528(2) -0.9086(4) 0.6614(2)
C1D C 0.0528(2) -0.9086(4) 0.6614(2)
C2G C 0.1348(2) -0.1831(4) 0.4001(3)
C2D C 0.1348(2) -0.8169(4) 0.5999(3)
C2C C -0.1348(2) -0.8169(4) 0.5999(3)
O5 O -0.8672(2) -0.4108(4) 0.1519(3)
H5 H -0.8281 -0.3214 0.1650
H6 H -0.9045 -0.3993 0.0948
O6 O -1.0000 -0.199(2) 0.0098(12)
O7? O -1.0000 -0.322(3) -0.0206(11)
loop_
_geom_bond_atom_site_label_1
_geom_bond_atom_site_label_2
_geom_bond_site_symmetry_1
_geom_bond_site_symmetry_2
Mn1 O1 1_555 1_555
Mn2 O2 1_555 1_555
O1 C2 1_555 1_555
O2 C2 1_555 1_555
O3 H1 1_555 1_555
H2 O3 1_555 1_555
O4 Mn2 1_555 1_555
H3 O4 1_555 1_555
H4 O4 1_555 1_555
N1 N2 1_555 1_555
N2 N1G 1_555 1_555
C1 C2 1_555 1_555
O5 H5 1_555 1_555
H6 O5 1_555 1_555
Mn1E O3 1_555 1_555
Mn1F O1D 1_555 1_555
Mn1A O1C 1_555 1_555
O1B Mn1 1_555 1_555
O1G Mn1E 1_555 1_555
O1E Mn1E 1_555 1_555
O1D C2D 1_555 1_555
O1C C2C 1_555 1_555
O2G Mn2 1_555 1_555
O2D Mn2 1_555 1_555
O2C Mn2 1_555 1_555
O3B Mn1E 1_555 1_555
O3E Mn1 1_555 1_555
O3G Mn1 1_555 1_555
H1B O3B 1_555 1_555
H1E O3E 1_555 1_555
H1G O3G 1_555 1_555
H2B O3B 1_555 1_555
H2E O3E 1_555 1_555
H2G O3G 1_555 1_555
O4D Mn2 1_555 1_555
H3D O4D 1_555 1_555
H4D O4D 1_555 1_555
N1G Mn1 1_555 1_555
N1E Mn1 1_555 1_555
N1B Mn1E 1_555 1_555
N1C Mn1F 1_555 1_555
N1D Mn1A 1_555 1_555
N2D N1C 1_555 1_555
C1G N1 1_555 1_555
C1C N1D 1_555 1_555
C1D N1C 1_555 1_555
C2G O1G 1_555 1_555
C2D O2D 1_555 1_555
C2C O2C 1_555 1_555
N1 Mn1E 1_555 1_555
C1 N1G 1_555 1_555
C1 C1G 1_555 1_555
O2G C2G 1_555 1_555
N1D N2D 1_555 1_555
C1G C2G 1_555 1_555
C1C C1D 1_555 1_555
C1C C2C 1_555 1_555
C1D C2D 1_555 1_555

#END
