
#######################################################################
#
#                 Cambridge Crystallographic Data Centre
#                                CCDC 
#
#######################################################################
#
# If this CIF has been generated from an entry in the Cambridge 
# Structural Database, then it will include bibliographic, chemical, 
# crystal, experimental, refinement or atomic coordinate data resulting 
# from the CCDC's data processing and validation procedures.
#
#######################################################################

data_NETYER
_symmetry_cell_setting           triclinic
_symmetry_space_group_name_H-M   'P -1'
_symmetry_Int_Tables_number      2
_space_group_name_Hall           '-P 1'
loop_
_symmetry_equiv_pos_site_id
_symmetry_equiv_pos_as_xyz
1 x,y,z
2 -x,-y,-z
_cell_length_a                   10.837(2)
_cell_length_b                   11.274(2)
_cell_length_c                   11.321(2)
_cell_angle_alpha                68.49(3)
_cell_angle_beta                 83.08(3)
_cell_angle_gamma                64.04(3)
_cell_volume                     1155.66
loop_
_atom_site_label
_atom_site_type_symbol
_atom_site_fract_x
_atom_site_fract_y
_atom_site_fract_z
Cu2 Cu 1.0000 0.0000 0.0000
N3 N 0.81874(18) 0.01694(19) 0.0005(2)
C5 C 0.56577(18) 0.00535(19) 0.0004(2)
C9 C 0.6026(2) 0.0951(2) -0.1023(2)
H6 H 0.5414 0.1547 -0.1749
C12 C 0.7800(2) -0.0636(2) 0.1020(3)
H9 H 0.8401 -0.1172 0.1757
C14 C 0.7281(2) 0.0980(3) -0.0993(2)
H11 H 0.7514 0.1603 -0.1710
C15 C 0.6575(2) -0.0729(2) 0.1053(3)
H12 H 0.6354 -0.1331 0.1798
Cu2_2 Cu 0.0000 0.0000 0.0000
N3A N 0.18126(18) -0.01694(19) -0.0005(2)
N3A_2 N 1.18126(18) -0.01694(19) -0.0005(2)
C5A C 0.43423(18) -0.00535(19) -0.0004(2)
C9A C 0.3974(2) -0.0951(2) 0.1023(2)
H6A H 0.4586 -0.1547 0.1749
C12A C 0.2200(2) 0.0636(2) -0.1020(3)
H9A H 0.1599 0.1172 -0.1757
C14A C 0.2719(2) -0.0980(3) 0.0993(2)
H11A H 0.2486 -0.1603 0.1710
C15A C 0.3425(2) 0.0729(2) -0.1053(3)
H12A H 0.3646 0.1331 -0.1798
Mo1 Mo 1.152424(15) -0.662351(15) 0.520252(15)
Mo2 Mo 1.112872(16) -0.405588(16) 0.258452(16)
Mo3 Mo 0.856790(16) -0.521020(16) 0.316920(16)
Mo4 Mo 0.904140(16) -0.789530(16) 0.579500(16)
Cu1 Cu 0.96521(3) -0.79998(3) 0.20626(3)
O1 O 1.32478(14) -0.72362(15) 0.51722(15)
O2 O 1.28629(15) -0.46777(15) 0.25875(16)
O3 O 1.09665(13) -0.58553(13) 0.34121(12)
O4 O 0.91396(14) -0.71906(13) 0.39819(13)
N1 N 1.14402(16) -0.80643(17) 0.19695(17)
O5 O 1.12275(14) -0.81251(13) 0.56065(13)
O6 O 1.06205(13) -0.22231(13) 0.26289(13)
O7 O 1.09621(13) -0.44208(12) 0.47546(12)
O8 O 1.12011(13) -0.64498(12) 0.68774(12)
O9 O 0.68310(15) -0.45568(16) 0.32667(16)
O10 O 0.88321(16) -0.51401(15) 0.16423(14)
O11 O 1.06359(15) -0.35985(15) 0.10501(14)
O12 O 0.73043(15) -0.73112(16) 0.58526(15)
N2 N 1.78153(17) -0.77736(17) 0.20025(18)
O13 O 0.96236(15) -0.96607(14) 0.61705(15)
C1 C 1.1703(2) -0.7074(2) 0.1028(2)
H1 H 1.1035 -0.6450 0.0347
C2 C 1.38941(19) -0.78159(19) 0.19899(19)
C3 C 1.2894(2) -0.6925(2) 0.1007(2)
H2 H 1.3039 -0.6209 0.0319
C4 C 1.5208(2) -0.7713(2) 0.2000(2)
C6 C 1.6986(2) -0.7073(2) 0.0946(2)
H3 H 1.7301 -0.6583 0.0190
C7 C 1.3618(2) -0.8842(2) 0.2954(2)
H4 H 1.4273 -0.9488 0.3640
C8 C 1.7311(2) -0.8379(3) 0.3071(2)
H5 H 1.7863 -0.8846 0.3837
C10 C 1.5702(2) -0.7031(2) 0.0910(2)
H7 H 1.5158 -0.6535 0.0137
C11 C 1.6031(2) -0.8356(3) 0.3107(2)
H8 H 1.5707 -0.8782 0.3892
C13 C 1.2396(2) -0.8926(2) 0.2918(2)
H10 H 1.2222 -0.9628 0.3598
Mo1A Mo 0.847576(15) -0.337649(15) 0.479748(15)
Mo2A Mo 0.887128(16) -0.594412(16) 0.741548(16)
Mo3A Mo 1.143210(16) -0.478980(16) 0.683080(16)
Mo4A Mo 1.095860(16) -0.210470(16) 0.420500(16)
Cu1A Cu 1.03479(3) -0.20002(3) 0.79374(3)
Cu1_2 Cu 1.96521(3) -0.79998(3) 0.20626(3)
Cu1A_2 Cu 1.03479(3) -1.20002(3) 0.79374(3)
Cu1_3 Cu 0.96521(3) 0.20002(3) 0.20626(3)
Cu1_4 Cu -0.03479(3) -0.79998(3) 0.20626(3)
O1A O 0.67522(14) -0.27638(15) 0.48278(15)
O2A O 0.71371(15) -0.53223(15) 0.74125(16)
O3A O 0.90335(13) -0.41447(13) 0.65879(12)
O4A O 1.08604(14) -0.28094(13) 0.60181(13)
N1_2 N 0.14402(16) -0.80643(17) 0.19695(17)
N1A N 0.85598(16) -0.19357(17) 0.80305(17)
O5A O 0.87725(14) -0.18749(13) 0.43935(13)
O6A O 0.93795(13) -0.77769(13) 0.73711(13)
O7A O 0.90379(13) -0.55792(12) 0.52454(12)
O8A O 0.87989(13) -0.35502(12) 0.31226(12)
O9A O 1.31690(15) -0.54432(16) 0.67333(16)
O10A O 1.11679(16) -0.48599(15) 0.83577(14)
O11A O 0.93641(15) -0.64015(15) 0.89499(14)
O12A O 1.26957(15) -0.26888(16) 0.41474(15)
N2_2 N 0.78153(17) -0.77736(17) 0.20025(18)
N2A N 1.21847(17) -0.22264(17) 0.79975(18)
O13A O 1.03764(15) -0.03393(14) 0.38295(15)
O13A_2 O 1.03764(15) -1.03393(14) 0.38295(15)
O13_2 O 0.96236(15) 0.03393(14) 0.61705(15)
C1_2 C 0.1703(2) -0.7074(2) 0.1028(2)
H1_2 H 0.1035 -0.6450 0.0347
C2_2 C 0.38941(19) -0.78159(19) 0.19899(19)
C3_2 C 0.2894(2) -0.6925(2) 0.1007(2)
H2_2 H 0.3039 -0.6209 0.0319
C4_2 C 0.5208(2) -0.7713(2) 0.2000(2)
C6_2 C 0.6986(2) -0.7073(2) 0.0946(2)
H3_2 H 0.7301 -0.6583 0.0190
C7_2 C 0.3618(2) -0.8842(2) 0.2954(2)
H4_2 H 0.4273 -0.9488 0.3640
C8_2 C 0.7311(2) -0.8379(3) 0.3071(2)
H5_2 H 0.7863 -0.8846 0.3837
C10_2 C 0.5702(2) -0.7031(2) 0.0910(2)
H7_2 H 0.5158 -0.6535 0.0137
C11_2 C 0.6031(2) -0.8356(3) 0.3107(2)
H8_2 H 0.5707 -0.8782 0.3892
C13_2 C 0.2396(2) -0.8926(2) 0.2918(2)
H10_2 H 0.2222 -0.9628 0.3598
O14? O 0.4791(2) 0.4604(2) 0.4590(2)
H13? H 0.486(2) 0.509(2) 0.3794(7)
H14? H 0.5000 0.5000 0.5000
loop_
_geom_bond_atom_site_label_1
_geom_bond_atom_site_label_2
_geom_bond_site_symmetry_1
_geom_bond_site_symmetry_2
Mo1 O1 1_555 1_555
Mo2 O2 1_555 1_555
Mo3 O3 1_555 1_555
Mo4 O4 1_555 1_555
Cu1 O4 1_555 1_555
Cu2 N3 1_555 1_555
O3 Mo1 1_555 1_555
O4 Mo3 1_555 1_555
N1 Cu1 1_555 1_555
O5 Mo1 1_555 1_555
O6 Mo2 1_555 1_555
O7 Mo1 1_555 1_555
O8 Mo1 1_555 1_555
O9 Mo3 1_555 1_555
O10 Mo3 1_555 1_555
O11 Mo2 1_555 1_555
O12 Mo4 1_555 1_555
N2 C6 1_555 1_555
O13 Mo4 1_555 1_555
N3 C12 1_555 1_555
C1 N1 1_555 1_555
H1 C1 1_555 1_555
C2 C3 1_555 1_555
C3 C1 1_555 1_555
H2 C3 1_555 1_555
C4 C2 1_555 1_555
C5 C9 1_555 1_555
C6 H3 1_555 1_555
C7 C2 1_555 1_555
H4 C7 1_555 1_555
C8 N2 1_555 1_555
H5 C8 1_555 1_555
C9 H6 1_555 1_555
C10 C4 1_555 1_555
H7 C10 1_555 1_555
C11 C4 1_555 1_555
H8 C11 1_555 1_555
C12 H9 1_555 1_555
C13 N1 1_555 1_555
H10 C13 1_555 1_555
C14 N3 1_555 1_555
H11 C14 1_555 1_555
C15 C5 1_555 1_555
H12 C15 1_555 1_555
Mo1A O7 1_555 1_555
Mo2A O8 1_555 1_555
Mo3A O7 1_555 1_555
Mo4A O6 1_555 1_555
Cu1A O4A 1_555 1_555
Cu1_2 N2 1_555 1_555
Cu1A_2 O13 1_555 1_555
Cu1_3 O13A 1_555 1_555
Cu1_4 N1_2 1_555 1_555
Cu2_2 N3A 1_555 1_555
O1A Mo1A 1_555 1_555
O2A Mo2A 1_555 1_555
O3A Mo1A 1_555 1_555
O4A Mo3A 1_555 1_555
N1_2 C1_2 1_555 1_555
N1A Cu1A 1_555 1_555
O5A Mo1A 1_555 1_555
O6A Mo4 1_555 1_555
O7A Mo1 1_555 1_555
O8A Mo2 1_555 1_555
O9A Mo3A 1_555 1_555
O10A Mo3A 1_555 1_555
O11A Mo2A 1_555 1_555
O12A Mo4A 1_555 1_555
N2_2 Cu1 1_555 1_555
N2A Cu1A 1_555 1_555
O13A Mo4A 1_555 1_555
O13A_2 Cu1 1_555 1_555
O13_2 Cu1A 1_555 1_555
N3A C12A 1_555 1_555
N3A_2 Cu2 1_555 1_555
C1_2 H1_2 1_555 1_555
C2_2 C3_2 1_555 1_555
C3_2 C1_2 1_555 1_555
H2_2 C3_2 1_555 1_555
C4_2 C2_2 1_555 1_555
C5A C5 1_555 1_555
C6_2 N2_2 1_555 1_555
H3_2 C6_2 1_555 1_555
C7_2 C2_2 1_555 1_555
H4_2 C7_2 1_555 1_555
C8_2 N2_2 1_555 1_555
H5_2 C8_2 1_555 1_555
C9A C5A 1_555 1_555
H6A C9A 1_555 1_555
C10_2 C4_2 1_555 1_555
H7_2 C10_2 1_555 1_555
C11_2 C4_2 1_555 1_555
H8_2 C11_2 1_555 1_555
C12A H9A 1_555 1_555
C13_2 N1_2 1_555 1_555
H10_2 C13_2 1_555 1_555
C14A N3A 1_555 1_555
H11A C14A 1_555 1_555
C15A C5A 1_555 1_555
H12A C15A 1_555 1_555
Mo2 O3 1_555 1_555
Mo2 O7 1_555 1_555
Mo3 O7A 1_555 1_555
Mo3 O8A 1_555 1_555
Mo4 O5 1_555 1_555
Mo4 O7A 1_555 1_555
O7 Mo4A 1_555 1_555
O8 Mo3A 1_555 1_555
C6 C10 1_555 1_555
C7 C13 1_555 1_555
C8 C11 1_555 1_555
C9 C14 1_555 1_555
C12 C15 1_555 1_555
Mo1A O7A 1_555 1_555
Mo1A O8A 1_555 1_555
Mo2A O3A 1_555 1_555
Mo2A O6A 1_555 1_555
Mo2A O7A 1_555 1_555
Mo3A O3A 1_555 1_555
Mo4A O4A 1_555 1_555
Mo4A O5A 1_555 1_555
C6_2 C10_2 1_555 1_555
C7_2 C13_2 1_555 1_555
C8_2 C11_2 1_555 1_555
C9A C14A 1_555 1_555
C12A C15A 1_555 1_555

#END
