
#######################################################################
#
#                 Cambridge Crystallographic Data Centre
#                                CCDC 
#
#######################################################################
#
# If this CIF has been generated from an entry in the Cambridge 
# Structural Database, then it will include bibliographic, chemical, 
# crystal, experimental, refinement or atomic coordinate data resulting 
# from the CCDC's data processing and validation procedures.
#
#######################################################################

data_NETYUI
_symmetry_cell_setting           triclinic
_symmetry_space_group_name_H-M   'P -1'
_symmetry_Int_Tables_number      2
_space_group_name_Hall           '-P 1'
loop_
_symmetry_equiv_pos_site_id
_symmetry_equiv_pos_as_xyz
1 x,y,z
2 -x,-y,-z
_cell_length_a                   7.3727(8)
_cell_length_b                   10.0445(12)
_cell_length_c                   10.7910(13)
_cell_angle_alpha                113.771(2)
_cell_angle_beta                 102.005(2)
_cell_angle_gamma                93.586(2)
_cell_volume                     705.709
loop_
_atom_site_label
_atom_site_type_symbol
_atom_site_fract_x
_atom_site_fract_y
_atom_site_fract_z
Zn1 Zn 0.93960(3) 0.28321(3) 0.62797(3)
O1 O 0.7142(2) 0.19821(19) 0.67220(17)
O2 O 0.1369(2) 0.32017(18) 0.53128(19)
O3 O 0.0856(2) 0.11245(19) 0.33444(19)
O4 O 1.0776(2) 0.13396(19) 0.6689(2)
H1 H 1.1690 0.1065 0.6333
H2 H 1.0238 0.0768 0.6956
N1 N 0.7105(2) 0.2982(2) 0.48147(19)
C1 C 1.1713(4) 0.8581(3) 1.0361(3)
H3 H 1.1822 0.8878 1.1351
H4 H 1.0591 0.8890 0.9983
C2 C 0.3776(3) 0.2692(2) 0.4155(2)
N2 N 0.3812(3) 0.3284(2) 0.3235(2)
N3 N 1.1525(3) 0.6959(2) 0.9644(2)
O5 O 0.4042(2) 0.1304(2) 0.6069(2)
N4 N 1.0538(3) 0.4682(2) 0.8061(2)
C3 C 0.5425(3) 0.2530(2) 0.4940(2)
C4 C 1.3404(4) 0.9336(2) 1.0183(2)
C5 C 1.0260(3) 0.6061(3) 0.8458(2)
H5 H 0.9307 0.6369 0.7976
C6 C 1.2685(4) 0.6113(3) 1.0030(3)
H6 H 1.3701 0.6436 1.0812
C7 C 0.1826(3) 0.2270(2) 0.4278(2)
C8 C 1.2068(3) 0.4715(3) 0.9056(3)
H7 H 1.2596 0.3898 0.9056
C9 C 0.5519(3) 0.1880(2) 0.6000(2)
C10 C 0.5501(3) 0.3695(3) 0.3120(3)
H8 H 0.5570 0.4096 0.2488
C11 C 1.3286(4) 0.9696(3) 0.9059(3)
H9 H 1.2131 0.9495 0.8418
C12 C 1.5145(4) 0.9653(3) 1.1126(3)
H10 H 1.5257 0.9425 1.1890
C13 C 0.7147(3) 0.3550(3) 0.3899(3)
H11 H 0.8294 0.3851 0.3784
Zn1A Zn 2.06040(3) 1.71679(3) 1.37203(3)
Zn1_2 Zn -0.06040(3) 0.28321(3) 0.62797(3)
Zn1A_2 Zn 3.06040(3) 1.71679(3) 1.37203(3)
O1A O 2.2858(2) 1.80179(19) 1.32780(17)
O2A O 2.8631(2) 1.67983(18) 1.46872(19)
O2_2 O 1.1369(2) 0.32017(18) 0.53128(19)
O2A_2 O 1.8631(2) 1.67983(18) 1.46872(19)
O3A O 2.9144(2) 1.88755(19) 1.66556(19)
O4A O 1.9224(2) 1.86604(19) 1.3311(2)
H1A H 1.8310 1.8935 1.3667
H2A H 1.9762 1.9232 1.3044
N1A N 2.2895(2) 1.7018(2) 1.51853(19)
C1A C 1.8287(4) 1.1419(3) 0.9639(3)
H3A H 1.8178 1.1122 0.8649
H4A H 1.9409 1.1110 1.0017
C2A C 2.6224(3) 1.7308(2) 1.5845(2)
N2A N 2.6188(3) 1.6716(2) 1.6765(2)
N3A N 1.8475(3) 1.3041(2) 1.0356(2)
O5A O 2.5958(2) 1.8696(2) 1.3931(2)
N4A N 1.9462(3) 1.5318(2) 1.1939(2)
C3A C 2.4575(3) 1.7470(2) 1.5060(2)
C4A C 1.6596(4) 1.0664(2) 0.9817(2)
C5A C 1.9740(3) 1.3939(3) 1.1542(2)
H5A H 2.0693 1.3631 1.2024
C6A C 1.7315(4) 1.3887(3) 0.9970(3)
H6A H 1.6299 1.3564 0.9188
C7A C 2.8174(3) 1.7730(2) 1.5722(2)
C8A C 1.7932(3) 1.5285(3) 1.0944(3)
H7A H 1.7404 1.6102 1.0944
C9A C 2.4481(3) 1.8120(2) 1.4000(2)
C10A C 2.4499(3) 1.6305(3) 1.6880(3)
H8A H 2.4430 1.5904 1.7512
C11A C 1.6714(4) 1.0304(3) 1.0941(3)
H9A H 1.7869 1.0505 1.1582
C12A C 1.4855(4) 1.0347(3) 0.8874(3)
H10A H 1.4743 1.0575 0.8110
C13A C 2.2853(3) 1.6450(3) 1.6101(3)
H11A H 2.1706 1.6149 1.6216
loop_
_geom_bond_atom_site_label_1
_geom_bond_atom_site_label_2
_geom_bond_site_symmetry_1
_geom_bond_site_symmetry_2
Zn1 O1 1_555 1_555
O1 C9 1_555 1_555
O2 C7 1_555 1_555
O3 C7 1_555 1_555
O4 Zn1 1_555 1_555
H1 O4 1_555 1_555
H2 O4 1_555 1_555
N1 Zn1 1_555 1_555
C1 H3 1_555 1_555
H4 C1 1_555 1_555
C2 N2 1_555 1_555
N2 C10 1_555 1_555
N3 C1 1_555 1_555
O5 C9 1_555 1_555
N4 Zn1 1_555 1_555
C3 N1 1_555 1_555
C4 C1 1_555 1_555
C5 N3 1_555 1_555
H5 C5 1_555 1_555
C6 N3 1_555 1_555
H6 C6 1_555 1_555
C7 C2 1_555 1_555
C8 N4 1_555 1_555
H7 C8 1_555 1_555
C9 C3 1_555 1_555
C10 H8 1_555 1_555
C11 C4 1_555 1_555
H9 C11 1_555 1_555
C12 C4 1_555 1_555
H10 C12 1_555 1_555
C13 N1 1_555 1_555
H11 C13 1_555 1_555
Zn1A O1A 1_555 1_555
Zn1_2 O2 1_555 1_555
Zn1A_2 O2A 1_555 1_555
O1A C9A 1_555 1_555
O2A C7A 1_555 1_555
O2_2 Zn1 1_555 1_555
O2A_2 Zn1A 1_555 1_555
O3A C7A 1_555 1_555
O4A Zn1A 1_555 1_555
H1A O4A 1_555 1_555
H2A O4A 1_555 1_555
N1A Zn1A 1_555 1_555
C1A H3A 1_555 1_555
H4A C1A 1_555 1_555
C2A N2A 1_555 1_555
N2A C10A 1_555 1_555
N3A C1A 1_555 1_555
O5A C9A 1_555 1_555
N4A Zn1A 1_555 1_555
C3A N1A 1_555 1_555
C4A C1A 1_555 1_555
C5A N3A 1_555 1_555
H5A C5A 1_555 1_555
C6A N3A 1_555 1_555
H6A C6A 1_555 1_555
C7A C2A 1_555 1_555
C8A N4A 1_555 1_555
H7A C8A 1_555 1_555
C9A C3A 1_555 1_555
C10A H8A 1_555 1_555
C11A C12 1_555 1_555
H9A C11A 1_555 1_555
C12A C11 1_555 1_555
H10A C12A 1_555 1_555
C13A N1A 1_555 1_555
H11A C13A 1_555 1_555
C2 C3 1_555 1_555
N4 C5 1_555 1_555
C6 C8 1_555 1_555
C10 C13 1_555 1_555
C2A C3A 1_555 1_555
N4A C5A 1_555 1_555
C4A C11A 1_555 1_555
C4A C12A 1_555 1_555
C6A C8A 1_555 1_555
C10A C13A 1_555 1_555

#END
