
#######################################################################
#
#                 Cambridge Crystallographic Data Centre
#                                CCDC 
#
#######################################################################
#
# If this CIF has been generated from an entry in the Cambridge 
# Structural Database, then it will include bibliographic, chemical, 
# crystal, experimental, refinement or atomic coordinate data resulting 
# from the CCDC's data processing and validation procedures.
#
#######################################################################

data_NEVBEX01
_symmetry_cell_setting           monoclinic
_symmetry_space_group_name_H-M   'C 2/c'
_symmetry_Int_Tables_number      15
_space_group_name_Hall           '-C 2yn'
loop_
_symmetry_equiv_pos_site_id
_symmetry_equiv_pos_as_xyz
1 x,y,z
2 -x,y,1/2-z
3 1/2+x,1/2+y,z
4 1/2-x,1/2+y,1/2-z
5 -x,-y,-z
6 x,-y,1/2+z
7 1/2-x,1/2-y,-z
8 1/2+x,1/2-y,1/2+z
_cell_length_a                   19.769(4)
_cell_length_b                   9.791(2)
_cell_length_c                   11.856(2)
_cell_angle_alpha                90
_cell_angle_beta                 96.47(3)
_cell_angle_gamma                90
_cell_volume                     2280.21
loop_
_atom_site_label
_atom_site_type_symbol
_atom_site_fract_x
_atom_site_fract_y
_atom_site_fract_z
Co1 Co 0.5000 0.0000 1.0000
N1 N 0.52679(9) 0.18314(18) 0.91495(14)
N2 N 0.58873(9) 0.30968(17) 0.81190(14)
N3 N 0.78959(8) 0.45659(19) 0.53371(14)
N4 N 0.89095(9) 0.47127(18) 0.47255(14)
O1 O 0.50848(9) 0.1023(2) 1.15404(14)
O2 O 0.43929(9) 0.27485(18) 1.22279(17)
S1 S 0.5000 0.19171(7) 1.2500
C1 C 0.56732(10) 0.1827(2) 0.83402(17)
H1 H 0.5796 0.1045 0.7968
C2 C 0.52126(12) 0.3177(2) 0.94520(19)
H2 H 0.4956 0.3494 1.0009
C3 C 0.55850(12) 0.3976(2) 0.88247(19)
H3 H 0.5629 0.4921 0.8861
C4 C 0.63812(10) 0.3453(2) 0.73730(17)
C5 C 0.69089(10) 0.2554(2) 0.72387(18)
H4 H 0.6930 0.1715 0.7609
C6 C 0.74044(10) 0.2909(2) 0.65514(17)
H5 H 0.7754 0.2303 0.6448
C7 C 0.73748(10) 0.4175(2) 0.60177(17)
C8 C 0.68498(11) 0.5070(2) 0.6164(2)
H6 H 0.6834 0.5919 0.5810
C9 C 0.63470(11) 0.4708(2) 0.68376(19)
H7 H 0.5991 0.5305 0.6927
C10 C 0.85479(10) 0.4102(2) 0.54414(17)
H8 H 0.8717 0.3435 0.5956
C11 C 0.78468(11) 0.5533(2) 0.44781(19)
H9 H 0.7462 0.6030 0.4207
C12 C 0.84675(11) 0.5609(2) 0.41140(18)
H10 H 0.8582 0.6180 0.3538
O1A O 0.49152(9) 0.1023(2) 1.34596(14)
O2A O 0.56071(9) 0.27485(18) 1.27721(17)
N1D N 0.47321(9) -0.18314(18) 1.08505(14)
N2D N 0.41127(9) -0.30968(17) 1.18810(14)
N3D N 0.21041(8) -0.45659(19) 1.46629(14)
N4D N 0.10905(9) -0.47127(18) 1.52745(14)
C1D C 0.43268(10) -0.1827(2) 1.16598(17)
H1D H 0.4204 -0.1045 1.2032
C2D C 0.47874(12) -0.3177(2) 1.05480(19)
H2D H 0.5044 -0.3494 0.9991
C3D C 0.44150(12) -0.3976(2) 1.11753(19)
H3D H 0.4371 -0.4921 1.1139
C4D C 0.36188(10) -0.3453(2) 1.26270(17)
C5D C 0.30911(10) -0.2554(2) 1.27613(18)
H4D H 0.3070 -0.1715 1.2391
C6D C 0.25956(10) -0.2909(2) 1.34486(17)
H5D H 0.2246 -0.2303 1.3552
C7D C 0.26252(10) -0.4175(2) 1.39823(17)
C8D C 0.31502(11) -0.5070(2) 1.3836(2)
H6D H 0.3166 -0.5919 1.4190
C9D C 0.36530(11) -0.4708(2) 1.31624(19)
H7D H 0.4009 -0.5305 1.3073
C10D C 0.14521(10) -0.4102(2) 1.45586(17)
H8D H 0.1283 -0.3435 1.4044
C11D C 0.21532(11) -0.5533(2) 1.55219(19)
H9D H 0.2538 -0.6030 1.5793
C12D C 0.15325(11) -0.5609(2) 1.58860(18)
H10D H 0.1418 -0.6180 1.6462
Co1A Co 0.5000 0.0000 1.5000
Co1C Co 0.0000 -0.5000 1.5000
Co1C_2 Co 1.0000 0.5000 0.5000
N4C N 0.60905(9) -0.02873(18) 1.02745(14)
N4G N 0.39095(9) 0.02873(18) 0.97255(14)
O1D O 0.49152(9) -0.1023(2) 0.84596(14)
loop_
_geom_bond_atom_site_label_1
_geom_bond_atom_site_label_2
_geom_bond_site_symmetry_1
_geom_bond_site_symmetry_2
Co1 N1 1_555 1_555
N1 C1 1_555 1_555
N2 C1 1_555 1_555
N3 C7 1_555 1_555
N4 C10 1_555 1_555
O1 Co1 1_555 1_555
O2 S1 1_555 1_555
S1 O1 1_555 1_555
C1 H1 1_555 1_555
C2 N1 1_555 1_555
H2 C2 1_555 1_555
C3 N2 1_555 1_555
H3 C3 1_555 1_555
C4 N2 1_555 1_555
C5 C4 1_555 1_555
H4 C5 1_555 1_555
C6 C5 1_555 1_555
H5 C6 1_555 1_555
C7 C6 1_555 1_555
C8 C7 1_555 1_555
H6 C8 1_555 1_555
C9 C4 1_555 1_555
H7 C9 1_555 1_555
C10 N3 1_555 1_555
H8 C10 1_555 1_555
C11 N3 1_555 1_555
H9 C11 1_555 1_555
C12 N4 1_555 1_555
H10 C12 1_555 1_555
O1A S1 1_555 1_555
O2A S1 1_555 1_555
N1D Co1 1_555 1_555
N2D C1D 1_555 1_555
N3D C7D 1_555 1_555
N4D C10D 1_555 1_555
C1D N1D 1_555 1_555
H1D C1D 1_555 1_555
C2D N1D 1_555 1_555
H2D C2D 1_555 1_555
C3D N2D 1_555 1_555
H3D C3D 1_555 1_555
C4D N2D 1_555 1_555
C5D C4D 1_555 1_555
H4D C5D 1_555 1_555
C6D C5D 1_555 1_555
H5D C6D 1_555 1_555
C7D C6D 1_555 1_555
C8D C7D 1_555 1_555
H6D C8D 1_555 1_555
C9D C4D 1_555 1_555
H7D C9D 1_555 1_555
C10D N3D 1_555 1_555
H8D C10D 1_555 1_555
C11D N3D 1_555 1_555
H9D C11D 1_555 1_555
C12D N4D 1_555 1_555
H10D C12D 1_555 1_555
Co1A O1A 1_555 1_555
Co1C N4D 1_555 1_555
Co1C_2 N4 1_555 1_555
N4C Co1 1_555 1_555
N4G Co1 1_555 1_555
O1D Co1 1_555 1_555
C2 C3 1_555 1_555
C8 C9 1_555 1_555
C11 C12 1_555 1_555
C2D C3D 1_555 1_555
C8D C9D 1_555 1_555
C11D C12D 1_555 1_555

#END
