
#######################################################################
#
#                 Cambridge Crystallographic Data Centre
#                                CCDC 
#
#######################################################################
#
# If this CIF has been generated from an entry in the Cambridge 
# Structural Database, then it will include bibliographic, chemical, 
# crystal, experimental, refinement or atomic coordinate data resulting 
# from the CCDC's data processing and validation procedures.
#
#######################################################################

data_NEVBIB
_symmetry_cell_setting           monoclinic
_symmetry_space_group_name_H-M   'C 2/c'
_symmetry_Int_Tables_number      15
_space_group_name_Hall           '-C 2yn'
loop_
_symmetry_equiv_pos_site_id
_symmetry_equiv_pos_as_xyz
1 x,y,z
2 -x,y,1/2-z
3 1/2+x,1/2+y,z
4 1/2-x,1/2+y,1/2-z
5 -x,-y,-z
6 x,-y,1/2+z
7 1/2-x,1/2-y,-z
8 1/2+x,1/2-y,1/2+z
_cell_length_a                   16.886(8)
_cell_length_b                   12.392(8)
_cell_length_c                   14.274(7)
_cell_angle_alpha                90
_cell_angle_beta                 91.696(7)
_cell_angle_gamma                90
_cell_volume                     2985.54
loop_
_atom_site_label
_atom_site_type_symbol
_atom_site_fract_x
_atom_site_fract_y
_atom_site_fract_z
C1 C 0.2855(3) 0.4506(4) 0.1086(3)
C2 C 0.2981(3) 0.5703(4) 0.1092(3)
C3 C 0.2392(3) 0.6361(4) 0.1438(3)
H1 H 0.1940 0.6044 0.1673
C4 C 0.2460(4) 0.7478(3) 0.1444(4)
H2 H 0.2060 0.7902 0.1685
C5 C 0.3128(3) 0.7951(4) 0.1089(3)
C6 C 0.3707(3) 0.7298(4) 0.0708(4)
H3 H 0.4145 0.7625 0.0447
C7 C 0.3660(3) 0.6184(4) 0.0700(3)
C8 C 0.4326(3) 0.5553(3) 0.0335(3)
C9 C 0.4628(3) 0.4630(4) 0.0783(4)
H4 H 0.4383 0.4373 0.1314
C10 C 0.4720(3) 0.5910(4) -0.0458(4)
H5 H 0.4537 0.6523 -0.0772
C11 C 0.3286(3) 0.9149(4) 0.1105(4)
C12 C 0.1107(3) 0.3385(4) 0.1022(4)
H6 H 0.1213 0.4008 0.0684
C13 C 0.0511(3) 0.3422(4) 0.1650(4)
H7 H 0.0236 0.4064 0.1734
C14 C 0.0305(3) 0.2498(3) 0.2177(4)
C15 C 0.0753(3) 0.1568(4) 0.1980(3)
H8 H 0.0643 0.0927 0.2289
C16 C 0.1347(3) 0.1588(4) 0.1343(4)
H9 H 0.1621 0.0951 0.1235
N1 N 0.1557(3) 0.2488(2) 0.0859(3)
Ni1 Ni 0.2500 0.2500 0.0000
O1 O 0.27465(19) 0.4073(2) 0.0302(2)
O2 O 0.2852(3) 0.4019(3) 0.1855(3)
O3 O 0.3772(3) 0.9561(3) 0.0621(3)
O4 O 0.2883(3) 0.9755(3) 0.1674(3)
H10 H 0.2594 0.9373 0.1986
O5 O 0.3244(2) 0.1979(3) 0.1122(2)
H12 H 0.323(4) 0.138(2) 0.136(4)
H13 H 0.310(5) 0.247(3) 0.146(4)
C1D C 0.7145(3) 0.5494(4) -0.1086(3)
C2D C 0.7019(3) 0.4297(4) -0.1092(3)
C3D C 0.7608(3) 0.3639(4) -0.1438(3)
H1D H 0.8060 0.3956 -0.1673
C4D C 0.7540(4) 0.2522(3) -0.1444(4)
H2D H 0.7940 0.2098 -0.1685
C5D C 0.6872(3) 0.2049(4) -0.1089(3)
C6D C 0.6293(3) 0.2702(4) -0.0708(4)
H3D H 0.5855 0.2375 -0.0447
C7D C 0.6340(3) 0.3816(4) -0.0700(3)
C8D C 0.5674(3) 0.4447(3) -0.0335(3)
C9D C 0.5372(3) 0.5370(4) -0.0783(4)
H4D H 0.5617 0.5627 -0.1314
C10D C 0.5280(3) 0.4090(4) 0.0458(4)
H5D H 0.5463 0.3477 0.0772
C11D C 0.6714(3) 0.0851(4) -0.1105(4)
C12A C -0.1107(3) 0.3385(4) 0.3978(4)
H6A H -0.1213 0.4008 0.4316
C13A C -0.0511(3) 0.3422(4) 0.3350(4)
H7A H -0.0236 0.4064 0.3266
C14A C -0.0305(3) 0.2498(3) 0.2823(4)
C15A C -0.0753(3) 0.1568(4) 0.3020(3)
H8A H -0.0643 0.0927 0.2711
C16A C -0.1347(3) 0.1588(4) 0.3657(4)
H9A H -0.1621 0.0951 0.3765
N1A N -0.1557(3) 0.2488(2) 0.4141(3)
N1F N 0.3443(3) 0.2512(2) -0.0859(3)
Ni1B Ni 0.7500 0.7500 0.0000
Ni1A Ni -0.2500 0.2500 0.5000
O1D O 0.72535(19) 0.5927(2) -0.0302(2)
O1F O 0.22535(19) 0.0927(2) -0.0302(2)
O2D O 0.7148(3) 0.5981(3) -0.1855(3)
O3D O 0.6228(3) 0.0439(3) -0.0621(3)
O4D O 0.7117(3) 0.0245(3) -0.1674(3)
H10D H 0.7406 0.0627 -0.1986
O5F O 0.1756(2) 0.3021(3) -0.1122(2)
H12F H 0.177(4) 0.362(2) -0.136(4)
H13F H 0.190(5) 0.253(3) -0.146(4)
O6 O 0.4785(5) 0.8929(8) 0.9001(7)
H11 H 0.479(3) 0.859(6) 0.950(3)
H14 H 0.513(3) 0.872(7) 0.863(4)
loop_
_geom_bond_atom_site_label_1
_geom_bond_atom_site_label_2
_geom_bond_site_symmetry_1
_geom_bond_site_symmetry_2
C1 C2 1_555 1_555
C2 C3 1_555 1_555
C3 H1 1_555 1_555
C4 C3 1_555 1_555
H2 C4 1_555 1_555
C5 C4 1_555 1_555
C6 C5 1_555 1_555
H3 C6 1_555 1_555
C7 C2 1_555 1_555
C8 C7 1_555 1_555
C9 C8 1_555 1_555
H4 C9 1_555 1_555
C10 C8 1_555 1_555
H5 C10 1_555 1_555
C11 C5 1_555 1_555
C12 H6 1_555 1_555
C13 C12 1_555 1_555
H7 C13 1_555 1_555
C14 C13 1_555 1_555
C15 C14 1_555 1_555
H8 C15 1_555 1_555
C16 C15 1_555 1_555
H9 C16 1_555 1_555
N1 C12 1_555 1_555
Ni1 N1 1_555 1_555
O1 C1 1_555 1_555
O2 C1 1_555 1_555
O3 C11 1_555 1_555
O4 C11 1_555 1_555
H10 O4 1_555 1_555
O5 Ni1 1_555 1_555
O6 H11 1_555 1_555
H12 O5 1_555 1_555
H13 O5 1_555 1_555
H14 O6 1_555 1_555
C1D C2D 1_555 1_555
C2D C3D 1_555 1_555
C3D H1D 1_555 1_555
C4D C3D 1_555 1_555
H2D C4D 1_555 1_555
C5D C4D 1_555 1_555
C6D C5D 1_555 1_555
H3D C6D 1_555 1_555
C7D C2D 1_555 1_555
C8D C7D 1_555 1_555
C9D C10 1_555 1_555
H4D C9D 1_555 1_555
C10D C9 1_555 1_555
H5D C10D 1_555 1_555
C11D C5D 1_555 1_555
C12A H6A 1_555 1_555
C13A C12A 1_555 1_555
H7A C13A 1_555 1_555
C14A C14 1_555 1_555
C15A C14A 1_555 1_555
H8A C15A 1_555 1_555
C16A C15A 1_555 1_555
H9A C16A 1_555 1_555
N1A C12A 1_555 1_555
N1F Ni1 1_555 1_555
Ni1B O1D 1_555 1_555
Ni1A N1A 1_555 1_555
O1D C1D 1_555 1_555
O1F Ni1 1_555 1_555
O2D C1D 1_555 1_555
O3D C11D 1_555 1_555
O4D C11D 1_555 1_555
H10D O4D 1_555 1_555
O5F Ni1 1_555 1_555
H12F O5F 1_555 1_555
H13F O5F 1_555 1_555
C6 C7 1_555 1_555
C16 N1 1_555 1_555
Ni1 O1 1_555 1_555
C6D C7D 1_555 1_555
C8D C9D 1_555 1_555
C8D C10D 1_555 1_555
C13A C14A 1_555 1_555
C16A N1A 1_555 1_555

#END
