
#######################################################################
#
#                 Cambridge Crystallographic Data Centre
#                                CCDC 
#
#######################################################################
#
# If this CIF has been generated from an entry in the Cambridge 
# Structural Database, then it will include bibliographic, chemical, 
# crystal, experimental, refinement or atomic coordinate data resulting 
# from the CCDC's data processing and validation procedures.
#
#######################################################################

data_NEVHIG
_symmetry_cell_setting           monoclinic
_symmetry_space_group_name_H-M   'P 21/c'
_symmetry_Int_Tables_number      14
_space_group_name_Hall           '-P 2ybc'
loop_
_symmetry_equiv_pos_site_id
_symmetry_equiv_pos_as_xyz
1 x,y,z
2 -x,1/2+y,1/2-z
3 -x,-y,-z
4 x,1/2-y,1/2+z
_cell_length_a                   8.63050(10)
_cell_length_b                   10.3517(2)
_cell_length_c                   13.90690(10)
_cell_angle_alpha                90
_cell_angle_beta                 101.6880(10)
_cell_angle_gamma                90
_cell_volume                     1216.69
loop_
_atom_site_label
_atom_site_type_symbol
_atom_site_fract_x
_atom_site_fract_y
_atom_site_fract_z
Eu1 Eu 0.92805(4) 0.89924(3) 0.10382(2)
Cd1 Cd 1.62622(6) 1.48180(5) 0.13275(3)
S1 S 0.7998(2) 1.22396(19) 0.04064(13)
C1 C 1.5320(9) 1.2367(7) 0.2708(5)
H1 H 1.6126 1.2522 0.3250
C2 C 1.3358(8) 1.1482(7) 0.1743(5)
C3 C 1.3842(8) 1.2543(7) 0.1269(5)
C4 C 1.2082(8) 1.0542(7) 0.1465(5)
C5 C 1.3268(8) 1.3171(7) 0.0295(5)
N1 N 1.5090(7) 1.3099(6) 0.1898(4)
N2 N 1.4294(7) 1.1399(6) 0.2671(4)
O1 O 1.1687(6) 0.9824(5) 0.2120(3)
O2 O 1.1336(6) 1.0419(5) 0.0592(3)
O3 O 1.2275(7) 1.2649(6) -0.0359(4)
O4 O 1.3860(6) 1.4264(5) 0.0180(4)
O5 O 0.6332(7) 1.2016(7) 0.0007(4)
O6 O 0.8230(8) 1.3506(7) 0.0935(5)
O7 O 0.8647(8) 1.1229(6) 0.1133(4)
O8 O 0.8917(7) 1.2270(5) -0.0374(4)
O9 O 0.8556(18) 0.9302(10) 0.2596(10)
O10 O 1.0062(9) 0.7213(7) 0.2040(4)
O11 O 0.6397(12) 0.9446(10) 0.0940(11)
H2 H 0.8117 0.8725 0.2909
H3 H 0.7894 0.9745 0.2275
H4 H 1.0445 0.6736 0.1651
H5 H 1.0746 0.7224 0.2656
H6 H 0.5592 0.8717 0.0895
H7 H 0.5887 1.0188 0.0752
Eu1B Eu 1.07195(4) 1.10076(3) -0.10382(2)
Cd1A Cd 1.37378(6) 0.98180(5) 0.36725(3)
Cd1B Cd 1.37378(6) 1.51820(5) -0.13275(3)
Cd1_2 Cd 0.62622(6) 1.48180(5) 0.13275(3)
N2A N 1.5706(7) 1.6399(6) 0.2329(4)
O1A O 1.8313(6) 1.4824(5) 0.2880(3)
O2B O 0.8664(6) 0.9581(5) -0.0592(3)
O3B O 0.7725(7) 0.7351(6) 0.0359(4)
O4B O 1.6140(6) 1.5736(5) -0.0180(4)
O6_2 O 1.8230(8) 1.3506(7) 0.0935(5)
O8B O 1.1083(7) 0.7730(5) 0.0374(4)
O12 O 0.941(2) 1.0033(15) 0.4120(14)
loop_
_geom_bond_atom_site_label_1
_geom_bond_atom_site_label_2
_geom_bond_site_symmetry_1
_geom_bond_site_symmetry_2
Eu1 O1 1_555 1_555
Cd1 N1 1_555 1_555
S1 O5 1_555 1_555
C1 H1 1_555 1_555
C2 C3 1_555 1_555
C3 C5 1_555 1_555
C4 C2 1_555 1_555
C5 O3 1_555 1_555
N1 C1 1_555 1_555
N2 C1 1_555 1_555
O1 C4 1_555 1_555
O2 Eu1 1_555 1_555
O3 Eu1B 1_555 1_555
O4 Cd1 1_555 1_555
O6 S1 1_555 1_555
O7 Eu1 1_555 1_555
O8 S1 1_555 1_555
O9 Eu1 1_555 1_555
O10 Eu1 1_555 1_555
O11 Eu1 1_555 1_555
H2 O9 1_555 1_555
H3 O9 1_555 1_555
H4 O10 1_555 1_555
H5 O10 1_555 1_555
H6 O11 1_555 1_555
H7 O11 1_555 1_555
Eu1B O2 1_555 1_555
Cd1A N2 1_555 1_555
Cd1B O4 1_555 1_555
Cd1_2 O6 1_555 1_555
N2A Cd1 1_555 1_555
O1A Cd1 1_555 1_555
O2B Eu1 1_555 1_555
O3B Eu1 1_555 1_555
O4B Cd1 1_555 1_555
O6_2 Cd1 1_555 1_555
O8B Eu1 1_555 1_555
S1 O7 1_555 1_555
C2 N2 1_555 1_555
C3 N1 1_555 1_555
C4 O2 1_555 1_555
C5 O4 1_555 1_555
O1 Cd1A 1_555 1_555
O8 Eu1B 1_555 1_555
Eu1B O2B 1_555 1_555
Cd1B O4B 1_555 1_555

#END
