
#######################################################################
#
#                 Cambridge Crystallographic Data Centre
#                                CCDC 
#
#######################################################################
#
# If this CIF has been generated from an entry in the Cambridge 
# Structural Database, then it will include bibliographic, chemical, 
# crystal, experimental, refinement or atomic coordinate data resulting 
# from the CCDC's data processing and validation procedures.
#
#######################################################################

data_NEVHOM
_symmetry_cell_setting           monoclinic
_symmetry_space_group_name_H-M   'P 21/c'
_symmetry_Int_Tables_number      14
_space_group_name_Hall           '-P 2ybc'
loop_
_symmetry_equiv_pos_site_id
_symmetry_equiv_pos_as_xyz
1 x,y,z
2 -x,1/2+y,1/2-z
3 -x,-y,-z
4 x,1/2-y,1/2+z
_cell_length_a                   8.6178(2)
_cell_length_b                   10.4366(2)
_cell_length_c                   13.8568(2)
_cell_angle_alpha                90
_cell_angle_beta                 101.3200(10)
_cell_angle_gamma                90
_cell_volume                     1222.04
loop_
_atom_site_label
_atom_site_type_symbol
_atom_site_fract_x
_atom_site_fract_y
_atom_site_fract_z
Dy1 Dy 0.92658(2) 0.89928(2) 0.105530(15)
Cd1 Cd 1.62438(4) 1.48154(3) 0.13296(2)
S1 S 0.79718(14) 1.22340(11) 0.04042(8)
C1 C 1.5323(6) 1.2368(5) 0.2710(3)
H1 H 1.6126 1.2523 0.3252
C2 C 1.3357(5) 1.1488(4) 0.1745(3)
C3 C 1.3828(5) 1.2552(4) 0.1279(3)
C4 C 1.2090(5) 1.0548(4) 0.1470(3)
C5 C 1.3240(5) 1.3178(5) 0.0304(3)
N1 N 1.5081(5) 1.3104(4) 0.1901(3)
N2 N 1.4309(5) 1.1391(4) 0.2668(3)
O1 O 1.1718(4) 0.9824(3) 0.2129(2)
O2 O 1.1350(4) 1.0427(3) 0.0588(2)
O3 O 1.2230(4) 1.2681(4) -0.0343(3)
O4 O 1.3863(4) 1.4260(3) 0.0186(2)
O5 O 0.6308(4) 1.1978(4) 0.0024(3)
O6 O 0.8186(5) 1.3501(4) 0.0911(3)
O7 O 0.8629(4) 1.1247(4) 0.1147(3)
O8 O 0.8872(4) 1.2245(3) -0.0393(3)
O9 O 0.8682(9) 0.9349(5) 0.2697(5)
O10 O 1.0029(5) 0.7194(4) 0.2050(3)
O11 O 0.6388(6) 0.9408(5) 0.0982(5)
H2 H 0.8232 0.8735 0.2918
H3 H 0.8070 0.9755 0.2284
H4 H 1.0466 0.6809 0.1654
H5 H 1.0767 0.7237 0.2668
H6 H 0.5607 0.8727 0.0904
H7 H 0.5902 1.0198 0.0761
Dy1B Dy 1.07342(2) 1.10072(2) -0.105530(15)
Cd1A Cd 1.37562(4) 0.98154(3) 0.36704(2)
Cd1B Cd 1.37562(4) 1.51846(3) -0.13296(2)
Cd1_2 Cd 0.62438(4) 1.48154(3) 0.13296(2)
N2A N 1.5691(5) 1.6391(4) 0.2332(3)
O1A O 1.8282(4) 1.4824(3) 0.2871(2)
O2B O 0.8650(4) 0.9573(3) -0.0588(2)
O3B O 0.7770(4) 0.7319(4) 0.0343(3)
O4B O 1.6137(4) 1.5740(3) -0.0186(2)
O6_2 O 1.8186(5) 1.3501(4) 0.0911(3)
O8B O 1.1128(4) 0.7755(3) 0.0393(3)
O12 O 0.9565(13) 1.0062(10) 0.4276(8)
loop_
_geom_bond_atom_site_label_1
_geom_bond_atom_site_label_2
_geom_bond_site_symmetry_1
_geom_bond_site_symmetry_2
Dy1 O1 1_555 1_555
Cd1 N1 1_555 1_555
S1 O5 1_555 1_555
C1 H1 1_555 1_555
C2 C3 1_555 1_555
C3 C5 1_555 1_555
C4 C2 1_555 1_555
C5 O3 1_555 1_555
N1 C1 1_555 1_555
N2 C1 1_555 1_555
O1 C4 1_555 1_555
O2 Dy1 1_555 1_555
O3 Dy1B 1_555 1_555
O4 Cd1 1_555 1_555
O6 S1 1_555 1_555
O7 Dy1 1_555 1_555
O8 S1 1_555 1_555
O9 Dy1 1_555 1_555
O10 Dy1 1_555 1_555
O11 Dy1 1_555 1_555
H2 O9 1_555 1_555
H3 O9 1_555 1_555
H4 O10 1_555 1_555
H5 O10 1_555 1_555
H6 O11 1_555 1_555
H7 O11 1_555 1_555
Dy1B O2 1_555 1_555
Cd1A N2 1_555 1_555
Cd1B O4 1_555 1_555
Cd1_2 O6 1_555 1_555
N2A Cd1 1_555 1_555
O1A Cd1 1_555 1_555
O2B Dy1 1_555 1_555
O3B Dy1 1_555 1_555
O4B Cd1 1_555 1_555
O6_2 Cd1 1_555 1_555
O8B Dy1 1_555 1_555
S1 O7 1_555 1_555
C2 N2 1_555 1_555
C3 N1 1_555 1_555
C4 O2 1_555 1_555
C5 O4 1_555 1_555
O1 Cd1A 1_555 1_555
O8 Dy1B 1_555 1_555
Dy1B O2B 1_555 1_555
Cd1B O4B 1_555 1_555

#END
