
#######################################################################
#
#                 Cambridge Crystallographic Data Centre
#                                CCDC 
#
#######################################################################
#
# If this CIF has been generated from an entry in the Cambridge 
# Structural Database, then it will include bibliographic, chemical, 
# crystal, experimental, refinement or atomic coordinate data resulting 
# from the CCDC's data processing and validation procedures.
#
#######################################################################

data_NEVHUS
_symmetry_cell_setting           monoclinic
_symmetry_space_group_name_H-M   'P 21/c'
_symmetry_Int_Tables_number      14
_space_group_name_Hall           '-P 2ybc'
loop_
_symmetry_equiv_pos_site_id
_symmetry_equiv_pos_as_xyz
1 x,y,z
2 -x,1/2+y,1/2-z
3 -x,-y,-z
4 x,1/2-y,1/2+z
_cell_length_a                   8.6194(6)
_cell_length_b                   10.4858(6)
_cell_length_c                   13.8468(11)
_cell_angle_alpha                90
_cell_angle_beta                 101.168(4)
_cell_angle_gamma                90
_cell_volume                     1227.79
loop_
_atom_site_label
_atom_site_type_symbol
_atom_site_fract_x
_atom_site_fract_y
_atom_site_fract_z
Gd1 Gd 0.92587(2) 0.899390(17) 0.106654(13)
Cd1 Cd 1.62297(3) 1.48191(3) 0.132900(19)
S1 S 0.79520(11) 1.22369(9) 0.04012(7)
C1 C 1.5326(5) 1.2370(4) 0.2712(3)
H1 H 1.6129 1.2523 0.3253
C2 C 1.3357(4) 1.1495(4) 0.1750(3)
C3 C 1.3827(4) 1.2561(3) 0.1279(3)
C4 C 1.2107(4) 1.0544(4) 0.1479(3)
C5 C 1.3248(4) 1.3186(4) 0.0313(3)
N1 N 1.5081(4) 1.3104(3) 0.1907(2)
N2 N 1.4318(4) 1.1397(3) 0.2669(2)
O1 O 1.1742(3) 0.9826(3) 0.21404(19)
O2 O 1.1360(3) 1.0430(3) 0.05990(19)
O3 O 1.2225(4) 1.2699(3) -0.0332(2)
O4 O 1.3873(3) 1.4260(3) 0.0188(2)
O5 O 0.6289(3) 1.1964(3) 0.0028(2)
O6 O 0.8157(4) 1.3499(3) 0.0894(2)
O7 O 0.8622(4) 1.1262(3) 0.1141(2)
O8 O 0.8845(3) 1.2244(3) -0.0401(2)
O9 O 0.8700(7) 0.9355(4) 0.2737(4)
O10 O 1.0028(4) 0.7164(3) 0.2058(2)
O11 O 0.6377(4) 0.9412(4) 0.0998(3)
H2 H 0.8218 0.8724 0.2913
H3 H 0.8056 0.9744 0.2278
H4 H 1.0445 0.6695 0.1644
H5 H 1.0746 0.7223 0.2659
H6 H 0.5593 0.8716 0.0898
H7 H 0.5888 1.0187 0.0756
Gd1B Gd 1.07413(2) 1.100610(17) -0.106654(13)
Cd1A Cd 1.37703(3) 0.98191(3) 0.367100(19)
Cd1B Cd 1.37703(3) 1.51809(3) -0.132900(19)
Cd1_2 Cd 0.62297(3) 1.48191(3) 0.132900(19)
N2A N 1.5682(4) 1.6397(3) 0.2331(2)
O1A O 1.8258(3) 1.4826(3) 0.28596(19)
O2B O 0.8640(3) 0.9570(3) -0.05990(19)
O3B O 0.7775(4) 0.7301(3) 0.0332(2)
O4B O 1.6127(3) 1.5740(3) -0.0188(2)
O6_2 O 1.8157(4) 1.3499(3) 0.0894(2)
O8B O 1.1155(3) 0.7756(3) 0.0401(2)
O12 O 0.9628(10) 1.0090(7) 0.4322(7)
loop_
_geom_bond_atom_site_label_1
_geom_bond_atom_site_label_2
_geom_bond_site_symmetry_1
_geom_bond_site_symmetry_2
Gd1 O1 1_555 1_555
Cd1 N1 1_555 1_555
S1 O5 1_555 1_555
C1 H1 1_555 1_555
C2 C3 1_555 1_555
C3 C5 1_555 1_555
C4 C2 1_555 1_555
C5 O3 1_555 1_555
N1 C1 1_555 1_555
N2 C1 1_555 1_555
O1 C4 1_555 1_555
O2 Gd1 1_555 1_555
O3 Gd1B 1_555 1_555
O4 Cd1 1_555 1_555
O6 S1 1_555 1_555
O7 Gd1 1_555 1_555
O8 S1 1_555 1_555
O9 Gd1 1_555 1_555
O10 Gd1 1_555 1_555
O11 Gd1 1_555 1_555
H2 O9 1_555 1_555
H3 O9 1_555 1_555
H4 O10 1_555 1_555
H5 O10 1_555 1_555
H6 O11 1_555 1_555
H7 O11 1_555 1_555
Gd1B O2 1_555 1_555
Cd1A N2 1_555 1_555
Cd1B O4 1_555 1_555
Cd1_2 O6 1_555 1_555
N2A Cd1 1_555 1_555
O1A Cd1 1_555 1_555
O2B Gd1 1_555 1_555
O3B Gd1 1_555 1_555
O4B Cd1 1_555 1_555
O6_2 Cd1 1_555 1_555
O8B Gd1 1_555 1_555
S1 O7 1_555 1_555
C2 N2 1_555 1_555
C3 N1 1_555 1_555
C4 O2 1_555 1_555
C5 O4 1_555 1_555
O1 Cd1A 1_555 1_555
O8 Gd1B 1_555 1_555
Gd1B O2B 1_555 1_555
Cd1B O4B 1_555 1_555

#END
