
#######################################################################
#
#                 Cambridge Crystallographic Data Centre
#                                CCDC 
#
#######################################################################
#
# If this CIF has been generated from an entry in the Cambridge 
# Structural Database, then it will include bibliographic, chemical, 
# crystal, experimental, refinement or atomic coordinate data resulting 
# from the CCDC's data processing and validation procedures.
#
#######################################################################

data_NEVHEC
_symmetry_cell_setting           monoclinic
_symmetry_space_group_name_H-M   'P 21/c'
_symmetry_Int_Tables_number      14
_space_group_name_Hall           '-P 2ybc'
loop_
_symmetry_equiv_pos_site_id
_symmetry_equiv_pos_as_xyz
1 x,y,z
2 -x,1/2+y,1/2-z
3 -x,-y,-z
4 x,1/2-y,1/2+z
_cell_length_a                   8.6257(7)
_cell_length_b                   10.4624(7)
_cell_length_c                   13.8439(10)
_cell_angle_alpha                90
_cell_angle_beta                 101.284(3)
_cell_angle_gamma                90
_cell_volume                     1225.2
loop_
_atom_site_label
_atom_site_type_symbol
_atom_site_fract_x
_atom_site_fract_y
_atom_site_fract_z
Tb1 Tb -0.073630(18) -0.100720(15) 0.105990(11)
Cd1 Cd 0.62364(3) 0.48168(2) 0.132980(16)
S1 S -0.20375(10) 0.22349(8) 0.04033(6)
C1 C 0.5320(4) 0.2370(3) 0.2713(2)
H1 H 0.6119 0.2527 0.3256
C2 C 0.3353(4) 0.1490(3) 0.1748(2)
C3 C 0.3823(4) 0.2557(3) 0.1280(2)
C4 C 0.2101(4) 0.0542(3) 0.1472(2)
C5 C 0.3246(4) 0.3184(3) 0.0309(2)
N1 N 0.5079(3) 0.3100(3) 0.1904(2)
N2 N 0.4311(3) 0.1395(3) 0.2671(2)
O1 O 0.1728(3) -0.0174(2) 0.21325(17)
O2 O 0.1358(3) 0.0430(2) 0.05919(17)
O3 O 0.2224(3) 0.2696(3) -0.03368(19)
O4 O 0.3863(3) 0.4259(2) 0.01844(17)
O5 O -0.3702(3) 0.1976(3) 0.0026(2)
O6 O -0.1827(3) 0.3501(3) 0.0901(2)
O7 O -0.1376(3) 0.1255(3) 0.11456(18)
O8 O -0.1141(3) 0.2246(2) -0.03983(18)
O9 O -0.1307(7) -0.0651(4) 0.2717(3)
O10 O 0.0031(4) -0.2820(3) 0.2055(2)
O11 O -0.3624(4) -0.0589(4) 0.0994(3)
H2 H -0.1790 -0.1272 0.2913
H3 H -0.1952 -0.0252 0.2279
H4 H 0.0438 -0.3201 0.1645
H5 H 0.0739 -0.2773 0.2659
H6 H -0.4415 -0.1280 0.0899
H7 H -0.4120 0.0191 0.0756
Tb1B Tb 0.073630(18) 0.100720(15) -0.105990(11)
Cd1A Cd 0.37636(3) -0.01832(2) 0.367020(16)
Cd1B Cd 0.37636(3) 0.51832(2) -0.132980(16)
Cd1_2 Cd -0.37636(3) 0.48168(2) 0.132980(16)
N2A N 0.5689(3) 0.6395(3) 0.2329(2)
O1A O 0.8272(3) 0.4826(2) 0.28675(17)
O2B O -0.1358(3) -0.0430(2) -0.05919(17)
O3B O -0.2224(3) -0.2696(3) 0.03368(19)
O4B O 0.6137(3) 0.5741(2) -0.01844(17)
O6_2 O 0.8173(3) 0.3501(3) 0.0901(2)
O8B O 0.1141(3) -0.2246(2) 0.03983(18)
O12 O -0.0399(9) 0.0076(7) 0.4293(6)
loop_
_geom_bond_atom_site_label_1
_geom_bond_atom_site_label_2
_geom_bond_site_symmetry_1
_geom_bond_site_symmetry_2
Tb1 O1 1_555 1_555
Cd1 N1 1_555 1_555
S1 O5 1_555 1_555
C1 H1 1_555 1_555
C2 C3 1_555 1_555
C3 C5 1_555 1_555
C4 C2 1_555 1_555
C5 O3 1_555 1_555
N1 C1 1_555 1_555
N2 C1 1_555 1_555
O1 C4 1_555 1_555
O2 Tb1 1_555 1_555
O3 Tb1B 1_555 1_555
O4 Cd1 1_555 1_555
O6 S1 1_555 1_555
O7 Tb1 1_555 1_555
O8 S1 1_555 1_555
O9 Tb1 1_555 1_555
O10 Tb1 1_555 1_555
O11 Tb1 1_555 1_555
H2 O9 1_555 1_555
H3 O9 1_555 1_555
H4 O10 1_555 1_555
H5 O10 1_555 1_555
H6 O11 1_555 1_555
H7 O11 1_555 1_555
Tb1B O2 1_555 1_555
Cd1A N2 1_555 1_555
Cd1B O4 1_555 1_555
Cd1_2 O6 1_555 1_555
N2A Cd1 1_555 1_555
O1A Cd1 1_555 1_555
O2B Tb1 1_555 1_555
O3B Tb1 1_555 1_555
O4B Cd1 1_555 1_555
O6_2 Cd1 1_555 1_555
O8B Tb1 1_555 1_555
S1 O7 1_555 1_555
C2 N2 1_555 1_555
C3 N1 1_555 1_555
C4 O2 1_555 1_555
C5 O4 1_555 1_555
O1 Cd1A 1_555 1_555
O8 Tb1B 1_555 1_555
Tb1B O2B 1_555 1_555
Cd1B O4B 1_555 1_555

#END
