
#######################################################################
#
#                 Cambridge Crystallographic Data Centre
#                                CCDC 
#
#######################################################################
#
# If this CIF has been generated from an entry in the Cambridge 
# Structural Database, then it will include bibliographic, chemical, 
# crystal, experimental, refinement or atomic coordinate data resulting 
# from the CCDC's data processing and validation procedures.
#
#######################################################################

data_NEVJAZ
_symmetry_cell_setting           monoclinic
_symmetry_space_group_name_H-M   'P 21/c'
_symmetry_Int_Tables_number      14
_space_group_name_Hall           '-P 2ybc'
loop_
_symmetry_equiv_pos_site_id
_symmetry_equiv_pos_as_xyz
1 x,y,z
2 -x,1/2+y,1/2-z
3 -x,-y,-z
4 x,1/2-y,1/2+z
_cell_length_a                   11.843(4)
_cell_length_b                   9.550(3)
_cell_length_c                   14.998(5)
_cell_angle_alpha                90
_cell_angle_beta                 105.99(3)
_cell_angle_gamma                90
_cell_volume                     1630.65
loop_
_atom_site_label
_atom_site_type_symbol
_atom_site_fract_x
_atom_site_fract_y
_atom_site_fract_z
Mn1 Mn 0.4947(1) 0.0030(1) 0.1173(1)
N1 N 0.5798(4) 0.1097(5) 0.0192(3)
N2 N 0.6188(5) 0.2254(6) 0.0282(3)
N3 N 0.6540(7) 0.3372(7) 0.0362(5)
N4 N 0.5851(5) 0.1408(6) 0.2366(4)
N5 N 0.5935(4) 0.2502(5) 0.2740(3)
N6 N 0.3958(5) -0.1403(5) 0.1877(4)
N7 N 0.6473(4) -0.1493(5) 0.1638(3)
C1 C 0.7545(5) -0.1094(6) 0.2123(4)
C2 C 0.8459(5) -0.2008(6) 0.2476(4)
C3 C 0.8254(6) -0.3426(7) 0.2339(4)
C4 C 0.7147(6) -0.3867(7) 0.1845(5)
C5 C 0.6305(5) -0.2880(6) 0.1515(4)
C6 C 0.9633(5) -0.1428(7) 0.2997(4)
C7 C 1.0711(6) -0.2300(9) 0.3100(5)
O1 O 0.9685(4) -0.0254(5) 0.3326(4)
N8 N 0.3418(4) 0.1596(5) 0.0782(3)
C8 C 0.2358(5) 0.1180(6) 0.0286(4)
C9 C 0.1397(5) 0.2077(6) -0.0043(4)
C10 C 0.1594(5) 0.3502(7) 0.0157(4)
C11 C 0.2695(6) 0.3931(6) 0.0657(4)
C12 C 0.3578(5) 0.2969(6) 0.0948(4)
C13 C 0.0247(5) 0.1517(7) -0.0594(4)
C14 C -0.0850(6) 0.2328(8) -0.0658(5)
O2 O 0.0221(5) 0.0400(6) -0.0984(4)
H1 H 0.7684(5) -0.0142(6) 0.2230(4)
H2 H 0.8849(6) -0.4071(7) 0.2576(4)
H3 H 0.6981(6) -0.4814(7) 0.1740(5)
H4 H 0.5564(5) -0.3186(6) 0.1180(4)
H5 H 1.0735(28) -0.2636(53) 0.2503(7)
H6 H 1.0694(26) -0.3082(36) 0.3499(34)
H7 H 1.1396(6) -0.1743(20) 0.3366(39)
H8 H 0.2249(5) 0.0232(6) 0.0149(4)
H9 H 0.0990(5) 0.4148(7) -0.0045(4)
H10 H 0.2840(6) 0.4874(6) 0.0798(4)
H11 H 0.4320(5) 0.3284(6) 0.1275(4)
H12 H -0.0827(23) 0.3192(29) -0.0980(36)
H13 H -0.0911(26) 0.2524(53) -0.0045(5)
H14 H -0.1518(7) 0.1789(27) -0.0991(35)
Mn1B Mn 0.5053(1) -0.0030(1) -0.1173(1)
N1B N 0.4202(4) -0.1097(5) -0.0192(3)
N6A N 0.6042(5) 0.3597(5) 0.3123(4)
Mn1A Mn 0.5053(1) 0.5030(1) 0.3827(1)
loop_
_geom_bond_atom_site_label_1
_geom_bond_atom_site_label_2
_geom_bond_site_symmetry_1
_geom_bond_site_symmetry_2
Mn1 N1 1_555 1_555
N1 N2 1_555 1_555
N2 N3 1_555 1_555
N4 Mn1 1_555 1_555
N5 N4 1_555 1_555
N6 Mn1 1_555 1_555
N7 Mn1 1_555 1_555
C1 N7 1_555 1_555
C2 C1 1_555 1_555
C3 C2 1_555 1_555
C4 C3 1_555 1_555
C5 N7 1_555 1_555
C6 C2 1_555 1_555
C7 C6 1_555 1_555
O1 C6 1_555 1_555
N8 Mn1 1_555 1_555
C8 N8 1_555 1_555
C9 C8 1_555 1_555
C10 C9 1_555 1_555
C11 C10 1_555 1_555
C12 N8 1_555 1_555
C13 C9 1_555 1_555
C14 C13 1_555 1_555
O2 C13 1_555 1_555
H1 C1 1_555 1_555
H2 C3 1_555 1_555
H3 C4 1_555 1_555
H4 C5 1_555 1_555
H5 C7 1_555 1_555
H6 C7 1_555 1_555
H7 C7 1_555 1_555
H8 C8 1_555 1_555
H9 C10 1_555 1_555
H10 C11 1_555 1_555
H11 C12 1_555 1_555
H12 C14 1_555 1_555
H13 C14 1_555 1_555
H14 C14 1_555 1_555
Mn1B N1 1_555 1_555
N1B Mn1 1_555 1_555
N6A N5 1_555 1_555
Mn1A N6A 1_555 1_555
C4 C5 1_555 1_555
C11 C12 1_555 1_555
Mn1B N1B 1_555 1_555

#END
