
#######################################################################
#
#                 Cambridge Crystallographic Data Centre
#                                CCDC 
#
#######################################################################
#
# If this CIF has been generated from an entry in the Cambridge 
# Structural Database, then it will include bibliographic, chemical, 
# crystal, experimental, refinement or atomic coordinate data resulting 
# from the CCDC's data processing and validation procedures.
#
#######################################################################

data_NEVJOO
_symmetry_cell_setting           monoclinic
_symmetry_space_group_name_H-M   'P 21/c'
_symmetry_Int_Tables_number      14
_space_group_name_Hall           '-P 2ybc'
loop_
_symmetry_equiv_pos_site_id
_symmetry_equiv_pos_as_xyz
1 x,y,z
2 -x,1/2+y,1/2-z
3 -x,-y,-z
4 x,1/2-y,1/2+z
_cell_length_a                   8.71200(10)
_cell_length_b                   10.5288(2)
_cell_length_c                   13.9024(3)
_cell_angle_alpha                90
_cell_angle_beta                 101.0330(10)
_cell_angle_gamma                90
_cell_volume                     1251.65
loop_
_atom_site_label
_atom_site_type_symbol
_atom_site_fract_x
_atom_site_fract_y
_atom_site_fract_z
Nd1 Nd 0.92557(3) 0.89871(2) 0.107945(16)
Cd1 Cd 1.62086(4) 1.48282(3) 0.13283(2)
S1 S 0.79190(13) 1.22590(11) 0.03934(8)
C1 C 1.5322(5) 1.2380(5) 0.2706(3)
H1 H 1.6121 1.2534 0.3241
C2 C 1.3368(5) 1.1512(4) 0.1760(3)
C3 C 1.3834(5) 1.2567(4) 0.1295(3)
C4 C 1.2126(5) 1.0565(4) 0.1496(3)
C5 C 1.3269(5) 1.3196(4) 0.0325(3)
N1 N 1.5073(4) 1.3106(4) 0.1911(3)
N2 N 1.4326(4) 1.1407(4) 0.2674(3)
O1 O 1.1784(4) 0.9847(3) 0.2160(2)
O2 O 1.1372(4) 1.0453(3) 0.0622(2)
O3 O 1.2240(4) 1.2706(3) -0.0312(2)
O4 O 1.3888(4) 1.4257(3) 0.0196(2)
O5 O 0.6272(4) 1.1980(4) 0.0024(3)
O6 O 0.8113(4) 1.3523(3) 0.0881(3)
O7 O 0.8577(4) 1.1292(3) 0.1133(2)
O8 O 0.8806(4) 1.2266(3) -0.0405(3)
O9 O 0.8710(10) 0.9348(5) 0.2786(5)
O10 O 1.0049(5) 0.7118(4) 0.2072(3)
O11 O 0.6332(5) 0.9417(4) 0.1004(4)
H2 H 0.8219 0.8633 0.2915
H3 H 0.8157 0.9753 0.2281
H4 H 1.0448 0.6806 0.1646
H5 H 1.0749 0.7034 0.2660
H6 H 0.5594 0.8725 0.0901
H7 H 0.5889 1.0196 0.0758
Nd1B Nd 1.07443(3) 1.10129(2) -0.107945(16)
Cd1A Cd 1.37914(4) 0.98282(3) 0.36717(2)
Cd1B Cd 1.37914(4) 1.51718(3) -0.13283(2)
Cd1_2 Cd 0.62086(4) 1.48282(3) 0.13283(2)
N2A N 1.5674(4) 1.6407(4) 0.2326(3)
O1A O 1.8216(4) 1.4847(3) 0.2840(2)
O2B O 0.8628(4) 0.9547(3) -0.0622(2)
O3B O 0.7760(4) 0.7294(3) 0.0312(2)
O4B O 1.6112(4) 1.5743(3) -0.0196(2)
O6_2 O 1.8113(4) 1.3523(3) 0.0881(3)
O8B O 1.1194(4) 0.7734(3) 0.0405(3)
O12 O 0.9626(11) 1.0067(8) 0.4347(7)
loop_
_geom_bond_atom_site_label_1
_geom_bond_atom_site_label_2
_geom_bond_site_symmetry_1
_geom_bond_site_symmetry_2
Nd1 O1 1_555 1_555
Cd1 N1 1_555 1_555
S1 O5 1_555 1_555
C1 H1 1_555 1_555
C2 C3 1_555 1_555
C3 C5 1_555 1_555
C4 C2 1_555 1_555
C5 O3 1_555 1_555
N1 C1 1_555 1_555
N2 C1 1_555 1_555
O1 C4 1_555 1_555
O2 Nd1 1_555 1_555
O3 Nd1B 1_555 1_555
O4 Cd1 1_555 1_555
O6 S1 1_555 1_555
O7 Nd1 1_555 1_555
O8 S1 1_555 1_555
O9 Nd1 1_555 1_555
O10 Nd1 1_555 1_555
O11 Nd1 1_555 1_555
H2 O9 1_555 1_555
H3 O9 1_555 1_555
H4 O10 1_555 1_555
H5 O10 1_555 1_555
H6 O11 1_555 1_555
H7 O11 1_555 1_555
Nd1B O2 1_555 1_555
Cd1A N2 1_555 1_555
Cd1B O4 1_555 1_555
Cd1_2 O6 1_555 1_555
N2A Cd1 1_555 1_555
O1A Cd1 1_555 1_555
O2B Nd1 1_555 1_555
O3B Nd1 1_555 1_555
O4B Cd1 1_555 1_555
O6_2 Cd1 1_555 1_555
O8B Nd1 1_555 1_555
S1 O7 1_555 1_555
C2 N2 1_555 1_555
C3 N1 1_555 1_555
C4 O2 1_555 1_555
C5 O4 1_555 1_555
O1 Cd1A 1_555 1_555
O8 Nd1B 1_555 1_555
Nd1B O2B 1_555 1_555
Cd1B O4B 1_555 1_555

#END
