
#######################################################################
#
#                 Cambridge Crystallographic Data Centre
#                                CCDC 
#
#######################################################################
#
# If this CIF has been generated from an entry in the Cambridge 
# Structural Database, then it will include bibliographic, chemical, 
# crystal, experimental, refinement or atomic coordinate data resulting 
# from the CCDC's data processing and validation procedures.
#
#######################################################################

data_NEVJUV
_symmetry_cell_setting           triclinic
_symmetry_space_group_name_H-M   'P -1'
_symmetry_Int_Tables_number      2
_space_group_name_Hall           '-P 1'
loop_
_symmetry_equiv_pos_site_id
_symmetry_equiv_pos_as_xyz
1 x,y,z
2 -x,-y,-z
_cell_length_a                   8.9884(9)
_cell_length_b                   9.3145(9)
_cell_length_c                   9.8343(11)
_cell_angle_alpha                94.624(4)
_cell_angle_beta                 104.185(3)
_cell_angle_gamma                98.138(5)
_cell_volume                     784.485
loop_
_atom_site_label
_atom_site_type_symbol
_atom_site_fract_x
_atom_site_fract_y
_atom_site_fract_z
Zn1 Zn -0.25852(7) 0.14772(6) 0.96571(6)
O1 O 0.3337(4) 0.8294(4) 0.8414(4)
N1 N 0.2067(5) 0.3641(5) 0.7469(5)
C1 C 0.2807(6) 0.6946(6) 0.8163(5)
O2 O 0.0747(5) 0.3167(5) 0.9601(4)
Zn2 Zn 0.28152(7) 0.45126(6) 0.97955(6)
O3 O 0.2128(4) 0.6328(4) 0.9009(4)
C2 C 0.2924(6) 0.6118(6) 0.6822(5)
O4 O 0.4618(4) 0.3536(4) 0.9614(4)
C3 C 0.3417(7) 0.6979(6) 0.5845(6)
H1 H 0.3729 0.8005 0.6087
O5 O 0.5323(4) 0.1744(4) 0.8389(4)
C4 C 0.3446(7) 0.6328(6) 0.4528(6)
H2 H 0.3790 0.6909 0.3878
C5 C 0.2977(6) 0.4837(6) 0.4163(5)
O6 O -0.1491(4) 0.2005(4) 0.8150(4)
C6 C 0.2908(6) 0.4134(6) 0.2702(6)
O7 O 0.3175(5) 0.4993(4) 0.1840(4)
C7 C 0.2537(6) 0.3984(6) 0.5139(5)
H3 H 0.2231 0.2959 0.4888
O8 O 0.2567(6) 0.2768(4) 0.2462(4)
C8 C 0.2532(6) 0.4601(6) 0.6481(5)
O9 O -0.0477(5) 0.0977(4) 1.0969(4)
C9 C 0.0362(6) 0.3287(7) 0.7135(6)
H4 H -0.0018 0.2513 0.6321
H5 H -0.0092 0.4163 0.6864
O10 O -0.3399(5) -0.0710(4) 0.9147(5)
C10 C -0.0166(6) 0.2770(6) 0.8393(6)
C11 C 0.2807(6) 0.2294(6) 0.7524(6)
H6 H 0.2918 0.1977 0.6574
H7 H 0.2122 0.1498 0.7793
C12 C 0.4397(5) 0.2556(5) 0.8577(5)
H8 H 0.0243 0.1709 1.1002
H9 H 0.0007 0.0270 1.1232
H10 H -0.3655 -0.1305 0.9692
H11 H -0.3532 -0.1218 0.8336
Zn1_2 Zn 0.74148(7) 0.14772(6) 0.96571(6)
Zn1A Zn 0.25852(7) 0.85228(6) 1.03429(6)
O1A O -0.3337(4) 0.1706(4) 1.1586(4)
Zn2_2 Zn 0.28152(7) 0.45126(6) -0.02045(6)
O3A O -0.2128(4) 0.3672(4) 1.0991(4)
O5_2 O -0.4677(4) 0.1744(4) 0.8389(4)
O7_2 O 0.3175(5) 0.4993(4) 1.1840(4)
O11 O 0.3189(5) 0.0224(5) 0.4300(5)
O12 O -0.0246(5) 0.0772(5) 1.3826(5)
loop_
_geom_bond_atom_site_label_1
_geom_bond_atom_site_label_2
_geom_bond_site_symmetry_1
_geom_bond_site_symmetry_2
Zn1 O6 1_555 1_555
O1 C1 1_555 1_555
N1 Zn2 1_555 1_555
C1 O3 1_555 1_555
O2 Zn2 1_555 1_555
Zn2 O3 1_555 1_555
O3 Zn1A 1_555 1_555
C2 C1 1_555 1_555
O4 Zn2 1_555 1_555
C3 C2 1_555 1_555
H1 C3 1_555 1_555
O5 C12 1_555 1_555
C4 C3 1_555 1_555
H2 C4 1_555 1_555
C5 C4 1_555 1_555
O6 C10 1_555 1_555
C6 C5 1_555 1_555
O7 C6 1_555 1_555
C7 C5 1_555 1_555
H3 C7 1_555 1_555
O8 C6 1_555 1_555
C8 N1 1_555 1_555
O9 Zn1 1_555 1_555
C9 N1 1_555 1_555
H4 C9 1_555 1_555
H5 C9 1_555 1_555
O10 Zn1 1_555 1_555
C10 O2 1_555 1_555
C11 N1 1_555 1_555
H6 C11 1_555 1_555
H7 C11 1_555 1_555
C12 O4 1_555 1_555
H8 O9 1_555 1_555
H9 O9 1_555 1_555
H10 O10 1_555 1_555
H11 O10 1_555 1_555
Zn1_2 O5 1_555 1_555
Zn1A O1 1_555 1_555
O1A Zn1 1_555 1_555
Zn2_2 O7 1_555 1_555
O3A Zn1 1_555 1_555
O5_2 Zn1 1_555 1_555
O7_2 Zn2 1_555 1_555
C2 C8 1_555 1_555
C7 C8 1_555 1_555
C9 C10 1_555 1_555
C11 C12 1_555 1_555

#END
