
#######################################################################
#
#                 Cambridge Crystallographic Data Centre
#                                CCDC 
#
#######################################################################
#
# If this CIF has been generated from an entry in the Cambridge 
# Structural Database, then it will include bibliographic, chemical, 
# crystal, experimental, refinement or atomic coordinate data resulting 
# from the CCDC's data processing and validation procedures.
#
#######################################################################

data_NEVJAA
_symmetry_cell_setting           monoclinic
_symmetry_space_group_name_H-M   'P 21/c'
_symmetry_Int_Tables_number      14
_space_group_name_Hall           '-P 2ybc'
loop_
_symmetry_equiv_pos_site_id
_symmetry_equiv_pos_as_xyz
1 x,y,z
2 -x,1/2+y,1/2-z
3 -x,-y,-z
4 x,1/2-y,1/2+z
_cell_length_a                   8.6197(6)
_cell_length_b                   10.3244(5)
_cell_length_c                   13.8885(9)
_cell_angle_alpha                90
_cell_angle_beta                 101.714(2)
_cell_angle_gamma                90
_cell_volume                     1210.24
loop_
_atom_site_label
_atom_site_type_symbol
_atom_site_fract_x
_atom_site_fract_y
_atom_site_fract_z
Er1 Er 0.92800(3) 0.89928(2) 0.103639(15)
Cd1 Cd 1.62646(4) 1.48199(3) 0.13270(2)
S1 S 0.80008(17) 1.22450(13) 0.04088(9)
C1 C 1.5321(6) 1.2379(5) 0.2716(4)
H1 H 1.6118 1.2544 0.3262
C2 C 1.3352(6) 1.1483(5) 0.1744(3)
C3 C 1.3838(6) 1.2546(5) 0.1266(3)
C4 C 1.2079(6) 1.0537(5) 0.1465(4)
C5 C 1.3269(6) 1.3161(5) 0.0295(4)
N1 N 1.5094(5) 1.3100(4) 0.1894(3)
N2 N 1.4297(5) 1.1408(4) 0.2674(3)
O1 O 1.1687(4) 0.9828(3) 0.2123(3)
O2 O 1.1332(4) 1.0421(3) 0.0584(2)
O3 O 1.2284(5) 1.2649(4) -0.0362(3)
O4 O 1.3854(4) 1.4267(4) 0.0179(3)
O5 O 0.6342(5) 1.2034(5) 0.0007(3)
O6 O 0.8231(6) 1.3509(5) 0.0929(3)
O7 O 0.8629(6) 1.1227(4) 0.1132(3)
O8 O 0.8923(5) 1.2273(4) -0.0373(3)
O9 O 0.8550(13) 0.9310(7) 0.2607(7)
O10 O 1.0068(6) 0.7216(5) 0.2042(3)
O11 O 0.6411(9) 0.9452(8) 0.0953(7)
H2 H 0.8121 0.8737 0.2903
H3 H 0.7859 0.9757 0.2269
H4 H 1.0446 0.6806 0.1637
H5 H 1.0746 0.7234 0.2651
H6 H 0.5696 0.8829 0.0899
H7 H 0.5941 1.0200 0.0746
Er1B Er 1.07200(3) 1.10072(2) -0.103639(15)
Cd1A Cd 1.37354(4) 0.98199(3) 0.36730(2)
Cd1B Cd 1.37354(4) 1.51801(3) -0.13270(2)
Cd1_2 Cd 0.62646(4) 1.48199(3) 0.13270(2)
N2A N 1.5703(5) 1.6408(4) 0.2326(3)
O1A O 1.8313(4) 1.4828(3) 0.2877(3)
O2B O 0.8668(4) 0.9579(3) -0.0584(2)
O3B O 0.7716(5) 0.7351(4) 0.0362(3)
O4B O 1.6146(4) 1.5733(4) -0.0179(3)
O6_2 O 1.8231(6) 1.3509(5) 0.0929(3)
O8B O 1.1077(5) 0.7727(4) 0.0373(3)
O12 O 0.9428(15) 1.0032(10) 0.4093(11)
loop_
_geom_bond_atom_site_label_1
_geom_bond_atom_site_label_2
_geom_bond_site_symmetry_1
_geom_bond_site_symmetry_2
Er1 O1 1_555 1_555
Cd1 N1 1_555 1_555
S1 O5 1_555 1_555
C1 H1 1_555 1_555
C2 C3 1_555 1_555
C3 C5 1_555 1_555
C4 C2 1_555 1_555
C5 O3 1_555 1_555
N1 C1 1_555 1_555
N2 C1 1_555 1_555
O1 C4 1_555 1_555
O2 Er1 1_555 1_555
O3 Er1B 1_555 1_555
O4 Cd1 1_555 1_555
O6 S1 1_555 1_555
O7 Er1 1_555 1_555
O8 S1 1_555 1_555
O9 Er1 1_555 1_555
O10 Er1 1_555 1_555
O11 Er1 1_555 1_555
H2 O9 1_555 1_555
H3 O9 1_555 1_555
H4 O10 1_555 1_555
H5 O10 1_555 1_555
H6 O11 1_555 1_555
H7 O11 1_555 1_555
Er1B O2 1_555 1_555
Cd1A N2 1_555 1_555
Cd1B O4 1_555 1_555
Cd1_2 O6 1_555 1_555
N2A Cd1 1_555 1_555
O1A Cd1 1_555 1_555
O2B Er1 1_555 1_555
O3B Er1 1_555 1_555
O4B Cd1 1_555 1_555
O6_2 Cd1 1_555 1_555
O8B Er1 1_555 1_555
S1 O7 1_555 1_555
C2 N2 1_555 1_555
C3 N1 1_555 1_555
C4 O2 1_555 1_555
C5 O4 1_555 1_555
O1 Cd1A 1_555 1_555
O8 Er1B 1_555 1_555
Er1B O2B 1_555 1_555
Cd1B O4B 1_555 1_555

#END
