
#######################################################################
#
#                 Cambridge Crystallographic Data Centre
#                                CCDC 
#
#######################################################################
#
# If this CIF has been generated from an entry in the Cambridge 
# Structural Database, then it will include bibliographic, chemical, 
# crystal, experimental, refinement or atomic coordinate data resulting 
# from the CCDC's data processing and validation procedures.
#
#######################################################################

data_NEVJII
_symmetry_cell_setting           monoclinic
_symmetry_space_group_name_H-M   'P 21/c'
_symmetry_Int_Tables_number      14
_space_group_name_Hall           '-P 2ybc'
loop_
_symmetry_equiv_pos_site_id
_symmetry_equiv_pos_as_xyz
1 x,y,z
2 -x,1/2+y,1/2-z
3 -x,-y,-z
4 x,1/2-y,1/2+z
_cell_length_a                   8.6115(6)
_cell_length_b                   10.3674(7)
_cell_length_c                   13.8626(13)
_cell_angle_alpha                90
_cell_angle_beta                 101.547(4)
_cell_angle_gamma                90
_cell_volume                     1212.59
loop_
_atom_site_label
_atom_site_type_symbol
_atom_site_fract_x
_atom_site_fract_y
_atom_site_fract_z
Y1 Y 0.92730(4) 0.89920(3) 0.10467(2)
Cd1 Cd 1.62560(3) 1.48157(2) 0.132890(16)
S1 S 0.79881(10) 1.22357(9) 0.04071(6)
C1 C 1.5324(4) 1.2367(3) 0.2712(3)
H1 H 1.6126 1.2523 0.3257
C2 C 1.3353(4) 1.1484(3) 0.1745(2)
C3 C 1.3840(4) 1.2548(3) 0.1273(2)
C4 C 1.2085(4) 1.0544(3) 0.1467(2)
C5 C 1.3259(4) 1.3173(3) 0.0300(2)
N1 N 1.5090(3) 1.3097(3) 0.1900(2)
N2 N 1.4300(3) 1.1395(3) 0.26662(19)
O1 O 1.1701(3) 0.9826(2) 0.21220(17)
O2 O 1.1345(3) 1.0421(2) 0.05843(16)
O3 O 1.2257(3) 1.2658(3) -0.03513(19)
O4 O 1.3857(3) 1.4256(2) 0.01828(17)
O5 O 0.6323(3) 1.2002(3) 0.0019(2)
O6 O 0.8225(3) 1.3499(3) 0.0922(2)
O7 O 0.8640(3) 1.1232(3) 0.11398(18)
O8 O 0.8901(3) 1.2257(2) -0.03804(18)
O9 O 0.8641(7) 0.9331(4) 0.2666(4)
O10 O 1.0059(4) 0.7203(3) 0.2049(2)
O11 O 0.6393(4) 0.9428(4) 0.0977(4)
H2 H 0.8125 0.8744 0.2913
H3 H 0.8063 0.9764 0.2279
H4 H 1.0453 0.6715 0.1695
H5 H 1.0754 0.7243 0.2660
H6 H 0.5700 0.8736 0.0909
H7 H 0.5895 1.0207 0.0756
Y1B Y 1.07270(4) 1.10080(3) -0.10467(2)
Cd1A Cd 1.37440(3) 0.98157(2) 0.367110(16)
Cd1B Cd 1.37440(3) 1.51843(2) -0.132890(16)
Cd1_2 Cd 0.62560(3) 1.48157(2) 0.132890(16)
N2A N 1.5700(3) 1.6395(3) 0.23338(19)
O1A O 1.8299(3) 1.4826(2) 0.28780(17)
O2B O 0.8655(3) 0.9579(2) -0.05843(16)
O3B O 0.7743(3) 0.7342(3) 0.03513(19)
O4B O 1.6143(3) 1.5744(2) -0.01828(17)
O6_2 O 1.8225(3) 1.3499(3) 0.0922(2)
O8B O 1.1099(3) 0.7743(2) 0.03804(18)
O12 O 0.9489(10) 1.0028(7) 0.4198(7)
loop_
_geom_bond_atom_site_label_1
_geom_bond_atom_site_label_2
_geom_bond_site_symmetry_1
_geom_bond_site_symmetry_2
Y1 O1 1_555 1_555
Cd1 N1 1_555 1_555
S1 O5 1_555 1_555
C1 H1 1_555 1_555
C2 C3 1_555 1_555
C3 C5 1_555 1_555
C4 C2 1_555 1_555
C5 O3 1_555 1_555
N1 C1 1_555 1_555
N2 C1 1_555 1_555
O1 C4 1_555 1_555
O2 Y1 1_555 1_555
O3 Y1B 1_555 1_555
O4 Cd1 1_555 1_555
O6 S1 1_555 1_555
O7 Y1 1_555 1_555
O8 S1 1_555 1_555
O9 Y1 1_555 1_555
O10 Y1 1_555 1_555
O11 Y1 1_555 1_555
H2 O9 1_555 1_555
H3 O9 1_555 1_555
H4 O10 1_555 1_555
H5 O10 1_555 1_555
H6 O11 1_555 1_555
H7 O11 1_555 1_555
Y1B O2 1_555 1_555
Cd1A N2 1_555 1_555
Cd1B O4 1_555 1_555
Cd1_2 O6 1_555 1_555
N2A Cd1 1_555 1_555
O1A Cd1 1_555 1_555
O2B Y1 1_555 1_555
O3B Y1 1_555 1_555
O4B Cd1 1_555 1_555
O6_2 Cd1 1_555 1_555
O8B Y1 1_555 1_555
S1 O7 1_555 1_555
C2 N2 1_555 1_555
C3 N1 1_555 1_555
C4 O2 1_555 1_555
C5 O4 1_555 1_555
O1 Cd1A 1_555 1_555
O8 Y1B 1_555 1_555
Y1B O2B 1_555 1_555
Cd1B O4B 1_555 1_555

#END
