
#######################################################################
#
#                 Cambridge Crystallographic Data Centre
#                                CCDC 
#
#######################################################################
#
# If this CIF has been generated from an entry in the Cambridge 
# Structural Database, then it will include bibliographic, chemical, 
# crystal, experimental, refinement or atomic coordinate data resulting 
# from the CCDC's data processing and validation procedures.
#
#######################################################################

data_NEVJUU
_symmetry_cell_setting           monoclinic
_symmetry_space_group_name_H-M   'P 21/c'
_symmetry_Int_Tables_number      14
_space_group_name_Hall           '-P 2ybc'
loop_
_symmetry_equiv_pos_site_id
_symmetry_equiv_pos_as_xyz
1 x,y,z
2 -x,1/2+y,1/2-z
3 -x,-y,-z
4 x,1/2-y,1/2+z
_cell_length_a                   8.75380(10)
_cell_length_b                   10.5445(2)
_cell_length_c                   13.9138(3)
_cell_angle_alpha                90
_cell_angle_beta                 101.0100(10)
_cell_angle_gamma                90
_cell_volume                     1260.67
loop_
_atom_site_label
_atom_site_type_symbol
_atom_site_fract_x
_atom_site_fract_y
_atom_site_fract_z
Pr1 Pr 0.92567(4) 0.89838(4) 0.10825(3)
Cd1 Cd 1.62023(6) 1.48288(5) 0.13280(4)
S1 S 0.7908(2) 1.22680(18) 0.03877(13)
C1 C 1.5329(9) 1.2377(7) 0.2717(5)
H1 H 1.6125 1.2525 0.3251
C2 C 1.3374(8) 1.1508(7) 0.1762(5)
C3 C 1.3834(8) 1.2574(7) 0.1283(5)
C4 C 1.2138(7) 1.0564(6) 0.1503(5)
C5 C 1.3271(8) 1.3197(7) 0.0318(5)
N1 N 1.5073(7) 1.3110(6) 0.1906(4)
N2 N 1.4322(7) 1.1414(6) 0.2673(4)
O1 O 1.1802(6) 0.9847(5) 0.2168(4)
O2 O 1.1371(6) 1.0452(5) 0.0631(4)
O3 O 1.2254(7) 1.2714(5) -0.0312(4)
O4 O 1.3891(6) 1.4252(5) 0.0193(4)
O5 O 0.6275(6) 1.1991(6) 0.0027(4)
O6 O 0.8100(7) 1.3530(5) 0.0879(4)
O7 O 0.8575(6) 1.1298(5) 0.1134(4)
O8 O 0.8798(6) 1.2276(5) -0.0413(4)
O9 O 0.8716(15) 0.9351(8) 0.2805(7)
O10 O 1.0046(8) 0.7106(6) 0.2091(4)
O11 O 0.6314(8) 0.9418(7) 0.1000(7)
H2 H 0.8260 0.8727 0.2977
H3 H 0.8098 0.9747 0.2343
H4 H 1.0494 0.6800 0.1712
H5 H 1.0795 0.7228 0.2727
H6 H 0.5635 0.8819 0.0823
H7 H 0.5930 1.0170 0.0820
Pr1B Pr 1.07433(4) 1.10162(4) -0.10825(3)
Cd1A Cd 1.37977(6) 0.98288(5) 0.36720(4)
Cd1B Cd 1.37977(6) 1.51712(5) -0.13280(4)
Cd1_2 Cd 0.62023(6) 1.48288(5) 0.13280(4)
N2A N 1.5678(7) 1.6414(6) 0.2327(4)
O1A O 1.8198(6) 1.4847(5) 0.2832(4)
O2B O 0.8629(6) 0.9548(5) -0.0631(4)
O3B O 0.7746(7) 0.7286(5) 0.0312(4)
O4B O 1.6109(6) 1.5748(5) -0.0193(4)
O6_2 O 1.8100(7) 1.3530(5) 0.0879(4)
O8B O 1.1202(6) 0.7724(5) 0.0413(4)
O12 O 0.9593(18) 1.0053(14) 0.4335(11)
loop_
_geom_bond_atom_site_label_1
_geom_bond_atom_site_label_2
_geom_bond_site_symmetry_1
_geom_bond_site_symmetry_2
Pr1 O1 1_555 1_555
Cd1 N1 1_555 1_555
S1 O5 1_555 1_555
C1 H1 1_555 1_555
C2 C3 1_555 1_555
C3 C5 1_555 1_555
C4 C2 1_555 1_555
C5 O3 1_555 1_555
N1 C1 1_555 1_555
N2 C1 1_555 1_555
O1 C4 1_555 1_555
O2 Pr1 1_555 1_555
O3 Pr1B 1_555 1_555
O4 Cd1 1_555 1_555
O6 S1 1_555 1_555
O7 Pr1 1_555 1_555
O8 S1 1_555 1_555
O9 Pr1 1_555 1_555
O10 Pr1 1_555 1_555
O11 Pr1 1_555 1_555
H2 O9 1_555 1_555
H3 O9 1_555 1_555
H4 O10 1_555 1_555
H5 O10 1_555 1_555
H6 O11 1_555 1_555
H7 O11 1_555 1_555
Pr1B O2 1_555 1_555
Cd1A N2 1_555 1_555
Cd1B O4 1_555 1_555
Cd1_2 O6 1_555 1_555
N2A Cd1 1_555 1_555
O1A Cd1 1_555 1_555
O2B Pr1 1_555 1_555
O3B Pr1 1_555 1_555
O4B Cd1 1_555 1_555
O6_2 Cd1 1_555 1_555
O8B Pr1 1_555 1_555
S1 O7 1_555 1_555
C2 N2 1_555 1_555
C3 N1 1_555 1_555
C4 O2 1_555 1_555
C5 O4 1_555 1_555
O1 Cd1A 1_555 1_555
O8 Pr1B 1_555 1_555
Pr1B O2B 1_555 1_555
Cd1B O4B 1_555 1_555

#END
