
#######################################################################
#
#                 Cambridge Crystallographic Data Centre
#                                CCDC 
#
#######################################################################
#
# If this CIF has been generated from an entry in the Cambridge 
# Structural Database, then it will include bibliographic, chemical, 
# crystal, experimental, refinement or atomic coordinate data resulting 
# from the CCDC's data processing and validation procedures.
#
#######################################################################

data_NEVJIJ
_symmetry_cell_setting           triclinic
_symmetry_space_group_name_H-M   'P -1'
_symmetry_Int_Tables_number      2
_space_group_name_Hall           '-P 1'
loop_
_symmetry_equiv_pos_site_id
_symmetry_equiv_pos_as_xyz
1 x,y,z
2 -x,-y,-z
_cell_length_a                   6.761(2)
_cell_length_b                   10.374(3)
_cell_length_c                   11.889(3)
_cell_angle_alpha                92.286(4)
_cell_angle_beta                 95.457(2)
_cell_angle_gamma                98.643(4)
_cell_volume                     819.428
loop_
_atom_site_label
_atom_site_type_symbol
_atom_site_fract_x
_atom_site_fract_y
_atom_site_fract_z
Cd1 Cd 0.97041(5) 0.80956(3) 0.96117(3)
O1 O 0.6011(5) 0.7048(3) 0.6338(3)
N1 N 1.1499(6) 0.8562(4) 0.7858(3)
C1 C 0.7161(7) 0.7717(5) 0.7107(4)
Cd2 Cd 0.48207(5) 0.49860(3) 0.66251(3)
O2 O 0.7309(5) 0.7419(3) 0.8123(3)
C2 C 0.8345(7) 0.8961(5) 0.6767(4)
O3 O 1.3164(5) 1.2980(3) 0.6321(3)
O4 O 0.7369(6) 0.6469(4) 1.0318(4)
O5 O 1.1645(6) 0.7976(4) 1.1376(3)
O6 O 1.2601(6) 0.5261(3) 0.7900(3)
C3 C 0.7333(7) 0.9743(5) 0.6070(4)
H1 H 0.5978 0.9440 0.5779
O7 O 1.1438(6) 0.6451(4) 0.9203(3)
C4 C 0.8249(7) 1.0955(5) 0.5789(4)
H2 H 0.7514 1.1496 0.5342
O8 O 1.1827(5) 1.0274(4) 0.9684(3)
C5 C 1.0272(7) 1.1371(5) 0.6172(4)
O9 O 1.4664(5) 1.1370(3) 0.9177(3)
C6 C 1.1320(7) 1.0566(5) 0.6830(4)
H3 H 1.2704 1.0846 0.7070
O10 O 1.0398(5) 1.3385(3) 0.5288(3)
C7 C 1.0402(7) 0.9368(5) 0.7144(4)
C8 C 1.1643(7) 0.7270(5) 0.7350(4)
H4 H 1.2791 0.7352 0.6886
H5 H 1.0404 0.6958 0.6839
O11 O 0.7083(5) 0.4639(3) 0.5283(3)
C9 C 1.1921(7) 0.6257(5) 0.8225(4)
O12 O 0.6922(8) 0.4538(4) 0.8150(4)
C10 C 1.3505(7) 0.9226(5) 0.8338(4)
H6 H 1.4305 0.9525 0.7715
H7 H 1.4215 0.8602 0.8763
C11 C 1.3346(7) 1.0394(5) 0.9124(4)
C12 C 1.1358(7) 1.2684(5) 0.5908(4)
H8 H 1.1300 0.8366 1.2007
H9 H 0.7221 0.5850 1.0814
H10 H 0.7587 0.3898 0.8321
H11 H 0.7166 0.5071 0.8757
H12 H 1.2934 0.8339 1.1354
H13 H 0.6548 0.7012 1.0529
Cd1A Cd 1.02959(5) 1.19044(3) 1.03883(3)
Cd2_2 Cd 1.48207(5) 0.49860(3) 0.66251(3)
Cd2_3 Cd 1.48207(5) 1.49860(3) 0.66251(3)
Cd2A Cd 0.51793(5) 0.50140(3) 0.33749(3)
O3_2 O 0.3164(5) 0.2980(3) 0.6321(3)
O6_2 O 0.2601(6) 0.5261(3) 0.7900(3)
O8A O 0.8173(5) 0.9726(4) 1.0316(3)
O11A O 0.2917(5) 0.5361(3) 0.4717(3)
loop_
_geom_bond_atom_site_label_1
_geom_bond_atom_site_label_2
_geom_bond_site_symmetry_1
_geom_bond_site_symmetry_2
Cd1 N1 1_555 1_555
O1 C1 1_555 1_555
N1 C7 1_555 1_555
C1 O2 1_555 1_555
Cd2 O1 1_555 1_555
O2 Cd1 1_555 1_555
C2 C1 1_555 1_555
O3 C12 1_555 1_555
O4 Cd1 1_555 1_555
O5 Cd1 1_555 1_555
O6 C9 1_555 1_555
C3 C2 1_555 1_555
H1 C3 1_555 1_555
O7 Cd1 1_555 1_555
C4 C3 1_555 1_555
H2 C4 1_555 1_555
O8 Cd1 1_555 1_555
C5 C4 1_555 1_555
O9 C11 1_555 1_555
C6 C5 1_555 1_555
H3 C6 1_555 1_555
O10 C12 1_555 1_555
C7 C2 1_555 1_555
C8 N1 1_555 1_555
H4 C8 1_555 1_555
H5 C8 1_555 1_555
O11 Cd2 1_555 1_555
C9 O7 1_555 1_555
O12 Cd2 1_555 1_555
C10 N1 1_555 1_555
H6 C10 1_555 1_555
H7 C10 1_555 1_555
C11 O8 1_555 1_555
C12 C5 1_555 1_555
H8 O5 1_555 1_555
H9 O4 1_555 1_555
H10 O12 1_555 1_555
H11 O12 1_555 1_555
H12 O5 1_555 1_555
H13 O4 1_555 1_555
Cd1A O8 1_555 1_555
Cd2_2 O6 1_555 1_555
Cd2_3 O3 1_555 1_555
Cd2A O11 1_555 1_555
O3_2 Cd2 1_555 1_555
O6_2 Cd2 1_555 1_555
O8A Cd1 1_555 1_555
O11A Cd2 1_555 1_555
C6 C7 1_555 1_555
C8 C9 1_555 1_555
C10 C11 1_555 1_555
Cd1A O8A 1_555 1_555
Cd2A O11A 1_555 1_555

#END
