
#######################################################################
#
#                 Cambridge Crystallographic Data Centre
#                                CCDC 
#
#######################################################################
#
# If this CIF has been generated from an entry in the Cambridge 
# Structural Database, then it will include bibliographic, chemical, 
# crystal, experimental, refinement or atomic coordinate data resulting 
# from the CCDC's data processing and validation procedures.
#
#######################################################################

data_NEVPIO
_symmetry_cell_setting           monoclinic
_symmetry_space_group_name_H-M   'P 21/c'
_symmetry_Int_Tables_number      14
_space_group_name_Hall           '-P 2ybc'
loop_
_symmetry_equiv_pos_site_id
_symmetry_equiv_pos_as_xyz
1 x,y,z
2 -x,1/2+y,1/2-z
3 -x,-y,-z
4 x,1/2-y,1/2+z
_cell_length_a                   11.7398(12)
_cell_length_b                   14.3155(10)
_cell_length_c                   9.5510(9)
_cell_angle_alpha                90
_cell_angle_beta                 110.837(9)
_cell_angle_gamma                90
_cell_volume                     1500.17
loop_
_atom_site_label
_atom_site_type_symbol
_atom_site_fract_x
_atom_site_fract_y
_atom_site_fract_z
Cu1 Cu 0.0000 0.0000 0.0000
Cu2 Cu 0.25213(2) 0.12044(2) -0.00898(3)
Cl1 Cl 0.04841(5) 0.15536(5) -0.13377(6)
Cl2 Cl 0.42369(5) 0.20311(5) 0.10634(6)
N1 N -0.13297(15) 0.07157(14) 0.0374(2)
N2 N -0.24304(16) 0.02986(15) 0.0218(2)
N3 N -0.25624(16) 0.17836(15) 0.0537(2)
N4 N -0.3282(2) 0.3894(2) 0.1830(3)
N5 N -0.3997(2) 0.39413(18) 0.0336(3)
N6 N -0.30051(16) 0.26414(15) 0.0742(2)
N7 N 0.12261(15) 0.05149(14) 0.18914(18)
N8 N 0.21961(16) 0.10603(14) 0.18749(19)
N9 N 0.22898(15) 0.08860(14) 0.41635(18)
N10 N 0.39355(16) 0.07841(16) 0.8031(2)
N11 N 0.28192(16) 0.11492(15) 0.79786(19)
N12 N 0.27140(15) 0.09186(14) 0.57174(18)
C1 C -0.14077(19) 0.16075(18) 0.0584(2)
H1 H -0.0783 0.2050 0.0739
C2 C -0.3158(2) 0.09538(18) 0.0334(3)
H2 H -0.3965 0.0867 0.0286
C3 C -0.2697(2) 0.3110(2) 0.2034(3)
H3 H -0.2137 0.2901 0.2954
C4 C -0.3807(2) 0.3191(2) -0.0299(3)
H4 H -0.4168 0.3049 -0.1324
C5 C 0.12989(18) 0.03979(17) 0.3280(2)
H5 H 0.0767 0.0043 0.3606
C6 C 0.28221(19) 0.12864(18) 0.3263(2)
H6 H 0.3524 0.1663 0.3583
C7 C 0.38460(19) 0.06433(18) 0.6651(2)
H7 H 0.4460 0.0393 0.6344
C8 C 0.2094(2) 0.12224(18) 0.6578(2)
H8 H 0.1289 0.1446 0.6235
Cu2B Cu -0.25213(2) -0.12044(2) 0.00898(3)
Cu2_2 Cu 0.25213(2) 0.12044(2) 0.99102(3)
Cu2B_2 Cu -0.25213(2) -0.12044(2) -0.99102(3)
Cl1B Cl -0.04841(5) -0.15536(5) 0.13377(6)
Cl2B Cl -0.42369(5) -0.20311(5) -0.10634(6)
N1B N 0.13297(15) -0.07157(14) -0.0374(2)
N2B N 0.24304(16) -0.02986(15) -0.0218(2)
N3B N 0.25624(16) -0.17836(15) -0.0537(2)
N4B N 0.3282(2) -0.3894(2) -0.1830(3)
N5B N 0.3997(2) -0.39413(18) -0.0336(3)
N6B N 0.30051(16) -0.26414(15) -0.0742(2)
N7B N -0.12261(15) -0.05149(14) -0.18914(18)
N8B N -0.21961(16) -0.10603(14) -0.18749(19)
N9B N -0.22898(15) -0.08860(14) -0.41635(18)
N10B N -0.39355(16) -0.07841(16) -0.8031(2)
N11B N -0.28192(16) -0.11492(15) -0.79786(19)
N11_2 N 0.28192(16) 0.11492(15) -0.20214(19)
N11B_2 N -0.28192(16) -0.11492(15) 0.20214(19)
N12B N -0.27140(15) -0.09186(14) -0.57174(18)
C1B C 0.14077(19) -0.16075(18) -0.0584(2)
H1B H 0.0783 -0.2050 -0.0739
C2B C 0.3158(2) -0.09538(18) -0.0334(3)
H2B H 0.3965 -0.0867 -0.0286
C3B C 0.2697(2) -0.3110(2) -0.2034(3)
H3B H 0.2137 -0.2901 -0.2954
C4B C 0.3807(2) -0.3191(2) 0.0299(3)
H4B H 0.4168 -0.3049 0.1324
C5B C -0.12989(18) -0.03979(17) -0.3280(2)
H5B H -0.0767 -0.0043 -0.3606
C6B C -0.28221(19) -0.12864(18) -0.3263(2)
H6B H -0.3524 -0.1663 -0.3583
C7B C -0.38460(19) -0.06433(18) -0.6651(2)
H7B H -0.4460 -0.0393 -0.6344
C8B C -0.2094(2) -0.12224(18) -0.6578(2)
H8B H -0.1289 -0.1446 -0.6235
Cl3 Cl -0.11197(6) 0.11852(5) 0.41962(7)
loop_
_geom_bond_atom_site_label_1
_geom_bond_atom_site_label_2
_geom_bond_site_symmetry_1
_geom_bond_site_symmetry_2
Cu1 Cl1 1_555 1_555
Cu2 Cl1 1_555 1_555
Cl2 Cu2 1_555 1_555
N1 Cu1 1_555 1_555
N2 N1 1_555 1_555
N3 N6 1_555 1_555
N4 N5 1_555 1_555
N5 C4 1_555 1_555
N6 C3 1_555 1_555
N7 Cu1 1_555 1_555
N8 Cu2 1_555 1_555
N9 N12 1_555 1_555
N10 N11 1_555 1_555
N11 C8 1_555 1_555
N12 C7 1_555 1_555
C1 N1 1_555 1_555
H1 C1 1_555 1_555
C2 N2 1_555 1_555
H2 C2 1_555 1_555
C3 N4 1_555 1_555
H3 C3 1_555 1_555
C4 N6 1_555 1_555
H4 C4 1_555 1_555
C5 N7 1_555 1_555
H5 C5 1_555 1_555
C6 N8 1_555 1_555
H6 C6 1_555 1_555
C7 N10 1_555 1_555
H7 C7 1_555 1_555
C8 N12 1_555 1_555
H8 C8 1_555 1_555
Cu2B N2 1_555 1_555
Cu2_2 N11 1_555 1_555
Cu2B_2 N11B 1_555 1_555
Cl1B Cu1 1_555 1_555
Cl2B Cu2B 1_555 1_555
N1B Cu1 1_555 1_555
N2B Cu2 1_555 1_555
N3B N6B 1_555 1_555
N4B N5B 1_555 1_555
N5B C4B 1_555 1_555
N6B C3B 1_555 1_555
N7B Cu1 1_555 1_555
N8B Cu2B 1_555 1_555
N9B N12B 1_555 1_555
N10B N11B 1_555 1_555
N11B C8B 1_555 1_555
N11_2 Cu2 1_555 1_555
N11B_2 Cu2B 1_555 1_555
N12B C7B 1_555 1_555
C1B N1B 1_555 1_555
H1B C1B 1_555 1_555
C2B N2B 1_555 1_555
H2B C2B 1_555 1_555
C3B N4B 1_555 1_555
H3B C3B 1_555 1_555
C4B N6B 1_555 1_555
H4B C4B 1_555 1_555
C5B N7B 1_555 1_555
H5B C5B 1_555 1_555
C6B N8B 1_555 1_555
H6B C6B 1_555 1_555
C7B N10B 1_555 1_555
H7B C7B 1_555 1_555
C8B N12B 1_555 1_555
H8B C8B 1_555 1_555
N3 C1 1_555 1_555
N3 C2 1_555 1_555
N7 N8 1_555 1_555
N9 C5 1_555 1_555
N9 C6 1_555 1_555
Cu2B Cl1B 1_555 1_555
N1B N2B 1_555 1_555
N3B C1B 1_555 1_555
N3B C2B 1_555 1_555
N7B N8B 1_555 1_555
N9B C5B 1_555 1_555
N9B C6B 1_555 1_555

#END
