
#######################################################################
#
#                 Cambridge Crystallographic Data Centre
#                                CCDC 
#
#######################################################################
#
# If this CIF has been generated from an entry in the Cambridge 
# Structural Database, then it will include bibliographic, chemical, 
# crystal, experimental, refinement or atomic coordinate data resulting 
# from the CCDC's data processing and validation procedures.
#
#######################################################################

data_NEVVER
_symmetry_cell_setting           orthorhombic
_symmetry_space_group_name_H-M   'F d d d'
_symmetry_Int_Tables_number      70
_space_group_name_Hall           '-F 2uv 2vw'
loop_
_symmetry_equiv_pos_site_id
_symmetry_equiv_pos_as_xyz
1 x,y,z
2 3/4-x,3/4-y,z
3 3/4-x,y,3/4-z
4 x,3/4-y,3/4-z
5 x,1/2+y,1/2+z
6 3/4-x,1/4-y,1/2+z
7 3/4-x,1/2+y,1/4-z
8 x,1/4-y,1/4-z
9 1/2+x,y,1/2+z
10 1/4-x,3/4-y,1/2+z
11 1/4-x,y,1/4-z
12 1/2+x,3/4-y,1/4-z
13 1/2+x,1/2+y,z
14 1/4-x,1/4-y,z
15 1/4-x,1/2+y,3/4-z
16 1/2+x,1/4-y,3/4-z
17 -x,-y,-z
18 1/4+x,1/4+y,-z
19 1/4+x,-y,1/4+z
20 -x,1/4+y,1/4+z
21 -x,1/2-y,1/2-z
22 1/4+x,3/4+y,1/2-z
23 1/4+x,1/2-y,3/4+z
24 -x,3/4+y,3/4+z
25 1/2-x,-y,1/2-z
26 3/4+x,1/4+y,1/2-z
27 3/4+x,-y,3/4+z
28 1/2-x,1/4+y,3/4+z
29 1/2-x,1/2-y,-z
30 3/4+x,3/4+y,-z
31 3/4+x,1/2-y,1/4+z
32 1/2-x,3/4+y,1/4+z
_cell_length_a                   17.263(3)
_cell_length_b                   22.510(4)
_cell_length_c                   45.316(8)
_cell_angle_alpha                90
_cell_angle_beta                 90
_cell_angle_gamma                90
_cell_volume                     17609.4
loop_
_atom_site_label
_atom_site_type_symbol
_atom_site_fract_x
_atom_site_fract_y
_atom_site_fract_z
Ag1 Ag 0.1250 0.6250 0.079305(14)
Ag2 Ag 0.3750 0.3750 0.039776(16)
C1 C 0.0742(3) 0.4880(2) 0.04586(9)
C2 C 0.1695(3) 0.4032(2) 0.07260(10)
C3 C 0.1545(3) 0.4928(2) 0.04433(11)
H1 H 0.1768 0.5242 0.0341
C4 C 0.2013(3) 0.4512(2) 0.05786(11)
H2 H 0.2548 0.4555 0.0571
C5 C 0.0905(3) 0.3979(2) 0.07411(11)
H3 H 0.0682 0.3659 0.0839
C6 C 0.0441(3) 0.4405(2) 0.06088(11)
H4 H -0.0094 0.4367 0.0623
C7 C 0.0221(3) 0.5363(2) 0.03408(10)
H5 H 0.0420 0.5509 0.0154
H6 H -0.0295 0.5206 0.0308
N1 N 0.0193(2) 0.58465(17) 0.05568(7)
C8 C -0.0453(3) 0.6022(2) 0.06502(10)
H7 H -0.0903 0.5843 0.0581
N2 N 0.0144(2) 0.67242(16) 0.09840(8)
C9 C -0.1239(3) 0.6719(2) 0.09473(11)
H8 H -0.1685 0.6548 0.0870
C10 C -0.0510(3) 0.65098(19) 0.08687(9)
C11 C 0.0080(3) 0.7176(2) 0.11722(10)
H9 H 0.0532 0.7331 0.1253
C12 C -0.0616(4) 0.7426(3) 0.12548(11)
H10 H -0.0630 0.7749 0.1383
C13 C -0.1280(4) 0.7194(3) 0.11451(13)
H11 H -0.1758 0.7348 0.1201
C14 C 0.2588(3) 0.2764(2) 0.05633(11)
H12 H 0.2191 0.2554 0.0655
C15 C 0.3060(3) 0.2470(2) 0.03324(11)
C16 C 0.2924(4) 0.1882(2) 0.02550(12)
H13 H 0.2515 0.1672 0.0339
C17 C 0.4088(3) 0.2518(3) 0.00119(12)
H14 H 0.4482 0.2737 -0.0076
N3 N 0.3635(2) 0.27863(19) 0.02119(9)
N4 N 0.2715(2) 0.32988(17) 0.06388(8)
C18 C 0.3998(4) 0.1936(3) -0.00692(15)
H15 H 0.4334 0.1761 -0.0204
C19 C 0.3405(5) 0.1616(3) 0.00523(15)
H16 H 0.3327 0.1222 -0.0002
C20 C 0.2212(3) 0.3568(2) 0.08684(11)
H17 H 0.2529 0.3751 0.1020
H18 H 0.1897 0.3262 0.0960
C1A C 0.6758(3) 0.2620(2) 0.04586(9)
C2A C 0.5805(3) 0.3468(2) 0.07260(10)
C3A C 0.5955(3) 0.2572(2) 0.04433(11)
H1A H 0.5732 0.2258 0.0341
C4A C 0.5487(3) 0.2988(2) 0.05786(11)
H2A H 0.4952 0.2945 0.0571
C5A C 0.6595(3) 0.3521(2) 0.07411(11)
H3A H 0.6818 0.3841 0.0839
C6A C 0.7059(3) 0.3095(2) 0.06088(11)
H4A H 0.7594 0.3133 0.0623
C7A C 0.7279(3) 0.2137(2) 0.03408(10)
H5A H 0.7080 0.1991 0.0154
H6A H 0.7795 0.2294 0.0308
N1A N 0.7307(2) 0.16535(17) 0.05568(7)
C8A C 0.7953(3) 0.1478(2) 0.06502(10)
H7A H 0.8403 0.1657 0.0581
N2A N 0.7356(2) 0.07758(16) 0.09840(8)
C9A C 0.8739(3) 0.0781(2) 0.09473(11)
H8A H 0.9185 0.0952 0.0870
C10A C 0.8010(3) 0.09902(19) 0.08687(9)
C11A C 0.7420(3) 0.0324(2) 0.11722(10)
H9A H 0.6968 0.0169 0.1253
C12A C 0.8116(4) 0.0074(3) 0.12548(11)
H10A H 0.8130 -0.0249 0.1383
C13A C 0.8780(4) 0.0306(3) 0.11451(13)
H11A H 0.9258 0.0152 0.1201
C14A C 0.4912(3) 0.4736(2) 0.05633(11)
H12A H 0.5309 0.4946 0.0655
C15A C 0.4440(3) 0.5030(2) 0.03324(11)
C16A C 0.4576(4) 0.5618(2) 0.02550(12)
H13A H 0.4985 0.5828 0.0339
C17A C 0.3412(3) 0.4982(3) 0.00119(12)
H14A H 0.3018 0.4763 -0.0076
N3A N 0.3865(2) 0.47137(19) 0.02119(9)
N4A N 0.4785(2) 0.42012(17) 0.06388(8)
C18A C 0.3502(4) 0.5564(3) -0.00692(15)
H15A H 0.3166 0.5739 -0.0204
C19A C 0.4095(5) 0.5884(3) 0.00523(15)
H16A H 0.4173 0.6278 -0.0002
C20A C 0.5288(3) 0.3932(2) 0.08684(11)
H17A H 0.4971 0.3749 0.1020
H18A H 0.5603 0.4238 0.0960
Ag1A Ag 0.6250 0.1250 0.079305(14)
N1M N 0.2307(2) 0.66535(17) 0.05568(7)
N2M N 0.2356(2) 0.57758(16) 0.09840(8)
O1 O 0.8750 0.8750 0.1498(2)
N5 N 0.2876(11) 0.9995(6) 0.0631(4)
O2 O 0.3316(9) 0.9734(10) 0.0470(5)
O3 O 0.2599(9) 0.9740(6) 0.0815(3)
O4 O 0.2682(5) 1.0498(4) 0.0572(2)
O5 O 0.1239(8) 0.0576(7) 0.0949(3)
O6 O 0.3750 0.3750 0.9482(9)
O7 O 0.8750 0.8750 0.2305(3)
loop_
_geom_bond_atom_site_label_1
_geom_bond_atom_site_label_2
_geom_bond_site_symmetry_1
_geom_bond_site_symmetry_2
Ag1 N1 1_555 1_555
Ag2 N3 1_555 1_555
C1 C3 1_555 1_555
C2 C4 1_555 1_555
C3 H1 1_555 1_555
C4 C3 1_555 1_555
H2 C4 1_555 1_555
C5 C2 1_555 1_555
H3 C5 1_555 1_555
C6 C1 1_555 1_555
H4 C6 1_555 1_555
C7 C1 1_555 1_555
H5 C7 1_555 1_555
H6 C7 1_555 1_555
N1 C7 1_555 1_555
C8 N1 1_555 1_555
H7 C8 1_555 1_555
N2 Ag1 1_555 1_555
C9 H8 1_555 1_555
C10 C8 1_555 1_555
C11 N2 1_555 1_555
H9 C11 1_555 1_555
C12 C11 1_555 1_555
H10 C12 1_555 1_555
C13 C9 1_555 1_555
H11 C13 1_555 1_555
C14 H12 1_555 1_555
C15 C14 1_555 1_555
C16 C15 1_555 1_555
H13 C16 1_555 1_555
C17 H14 1_555 1_555
N3 C15 1_555 1_555
N4 Ag2 1_555 1_555
C18 C17 1_555 1_555
H15 C18 1_555 1_555
C19 C16 1_555 1_555
H16 C19 1_555 1_555
C20 C2 1_555 1_555
H17 C20 1_555 1_555
H18 C20 1_555 1_555
N5 O2 1_555 1_555
O3 N5 1_555 1_555
O4 N5 1_555 1_555
C1A C3A 1_555 1_555
C2A C4A 1_555 1_555
C3A H1A 1_555 1_555
C4A C3A 1_555 1_555
H2A C4A 1_555 1_555
C5A C2A 1_555 1_555
H3A C5A 1_555 1_555
C6A C1A 1_555 1_555
H4A C6A 1_555 1_555
C7A C1A 1_555 1_555
H5A C7A 1_555 1_555
H6A C7A 1_555 1_555
N1A C7A 1_555 1_555
C8A N1A 1_555 1_555
H7A C8A 1_555 1_555
N2A C10A 1_555 1_555
C9A H8A 1_555 1_555
C10A C8A 1_555 1_555
C11A N2A 1_555 1_555
H9A C11A 1_555 1_555
C12A C11A 1_555 1_555
H10A C12A 1_555 1_555
C13A C9A 1_555 1_555
H11A C13A 1_555 1_555
C14A H12A 1_555 1_555
C15A C14A 1_555 1_555
C16A C15A 1_555 1_555
H13A C16A 1_555 1_555
C17A H14A 1_555 1_555
N3A Ag2 1_555 1_555
N4A Ag2 1_555 1_555
C18A C17A 1_555 1_555
H15A C18A 1_555 1_555
C19A C16A 1_555 1_555
H16A C19A 1_555 1_555
C20A C2A 1_555 1_555
H17A C20A 1_555 1_555
H18A C20A 1_555 1_555
Ag1A N1A 1_555 1_555
N1M Ag1 1_555 1_555
N2M Ag1 1_555 1_555
C5 C6 1_555 1_555
N2 C10 1_555 1_555
C9 C10 1_555 1_555
C12 C13 1_555 1_555
C14 N4 1_555 1_555
C17 N3 1_555 1_555
N4 C20 1_555 1_555
C18 C19 1_555 1_555
C5A C6A 1_555 1_555
N2A Ag1A 1_555 1_555
C9A C10A 1_555 1_555
C12A C13A 1_555 1_555
C14A N4A 1_555 1_555
C15A N3A 1_555 1_555
C17A N3A 1_555 1_555
N4A C20A 1_555 1_555
C18A C19A 1_555 1_555

#END
