
#######################################################################
#
#                 Cambridge Crystallographic Data Centre
#                                CCDC 
#
#######################################################################
#
# If this CIF has been generated from an entry in the Cambridge 
# Structural Database, then it will include bibliographic, chemical, 
# crystal, experimental, refinement or atomic coordinate data resulting 
# from the CCDC's data processing and validation procedures.
#
#######################################################################

data_NEVVIV
_symmetry_cell_setting           triclinic
_symmetry_space_group_name_H-M   'P -1'
_symmetry_Int_Tables_number      2
_space_group_name_Hall           '-P 1'
loop_
_symmetry_equiv_pos_site_id
_symmetry_equiv_pos_as_xyz
1 x,y,z
2 -x,-y,-z
_cell_length_a                   11.3821(3)
_cell_length_b                   12.3377(3)
_cell_length_c                   12.5248(3)
_cell_angle_alpha                80.5490(10)
_cell_angle_beta                 89.7350(10)
_cell_angle_gamma                85.5500(10)
_cell_volume                     1729.68
loop_
_atom_site_label
_atom_site_type_symbol
_atom_site_fract_x
_atom_site_fract_y
_atom_site_fract_z
C1 C -0.0634(4) 0.7602(4) -0.4174(4)
H1 H -0.0474 0.7597 -0.3446
C2 C -0.1076(4) 0.8552(4) -0.4900(4)
C3 C -0.1194(4) 0.8193(4) -0.5919(4)
C4 C -0.1535(6) 0.8641(4) -0.6969(5)
H2 H -0.1782 0.9385 -0.7152
C5 C -0.1499(7) 0.7964(5) -0.7730(5)
H3 H -0.1745 0.8248 -0.8434
C6 C -0.1102(5) 0.6860(4) -0.7471(4)
H4 H -0.1078 0.6425 -0.8012
C7 C -0.0808(4) 0.7056(4) -0.5722(4)
C8 C -0.1350(5) 0.9616(4) -0.4630(5)
C9 C -0.1232(5) 0.9986(4) -0.3685(5)
C10 C -0.1849(6) 1.0464(5) -0.5511(5)
C11 C -0.1548(6) 1.1137(5) -0.3605(5)
C12 C -0.0794(6) 0.9337(4) -0.2715(5)
C13 C 0.2621(4) 0.5910(4) -0.3996(4)
H5 H 0.2569 0.6021 -0.3280
C14 C 0.3637(4) 0.6111(4) -0.4653(5)
C15 C 0.3182(5) 0.5554(6) -0.7496(5)
H6 H 0.3499 0.5563 -0.8183
C16 C 0.3850(5) 0.5842(5) -0.6698(5)
H7 H 0.4618 0.6034 -0.6828
C17 C 0.3336(4) 0.5838(4) -0.5676(4)
C18 C 0.2169(4) 0.5502(4) -0.5549(4)
C19 C 0.2047(5) 0.5249(5) -0.7306(4)
H8 H 0.1626 0.5056 -0.7871
C20 C 0.4659(5) 0.6572(5) -0.4364(6)
C21 C 0.4991(6) 0.6844(6) -0.3417(6)
C22 C 0.5568(6) 0.6804(6) -0.5239(7)
C23 C 0.6092(7) 0.7358(6) -0.3322(7)
C24 C 0.4356(6) 0.6589(6) -0.2456(7)
C25 C -0.1244(7) 0.3085(5) 0.0158(5)
H9 H -0.1570 0.3349 0.0757
C26 C -0.2402(9) 0.1499(8) 0.0719(8)
H10 H -0.2050 0.0763 0.0929
H11 H -0.3141 0.1477 0.0359
H12 H -0.2534 0.1838 0.1351
C27 C -0.1057(7) 0.1599(6) -0.0769(6)
H13 H -0.0354 0.1943 -0.1013
H14 H -0.1578 0.1618 -0.1373
H15 H -0.0855 0.0848 -0.0444
C28 C 0.1960(7) 0.3400(6) 0.0421(6)
H16 H 0.1474 0.2965 0.0878
C29 C 0.3789(9) 0.3549(8) -0.0548(9)
H17 H 0.3461 0.4294 -0.0760
H18 H 0.3920 0.3210 -0.1180
H19 H 0.4524 0.3550 -0.0176
C30 C 0.3298(9) 0.1809(8) 0.0555(8)
H20 H 0.2629 0.1486 0.0908
H21 H 0.3939 0.1744 0.1063
H22 H 0.3532 0.1434 -0.0034
N1 N -0.0478(3) 0.6724(3) -0.4656(3)
N2 N -0.0751(4) 0.6399(3) -0.6467(3)
N3 N -0.2263(6) 1.1131(4) -0.6185(5)
N4 N -0.1750(5) 1.2022(4) -0.3506(5)
N5 N -0.0475(7) 0.8865(5) -0.1908(5)
N6 N 0.1765(3) 0.5549(3) -0.4518(3)
N7 N 0.1522(3) 0.5221(3) -0.6330(3)
N8 N 0.6233(5) 0.6952(5) -0.5931(6)
N9 N 0.3918(7) 0.6382(7) -0.1662(6)
N10 N 0.6891(5) 0.7764(6) -0.3132(6)
N11 N -0.1601(6) 0.2150(5) -0.0027(5)
N12 N 0.2994(6) 0.2948(6) 0.0149(6)
Cl1 Cl 0.04733(12) 0.57589(10) -0.21368(9)
Cu1 Cu 0.01582(5) 0.52206(4) -0.39175(4)
Cu2 Cu 0.0000 0.5000 0.0000
O1 O -0.0561(4) 0.3634(3) -0.0338(3)
O2 O 0.1627(4) 0.4343(4) 0.0101(3)
C1A C 0.0634(4) 0.2398(4) -0.5826(4)
H1A H 0.0474 0.2403 -0.6554
C2A C 0.1076(4) 0.1448(4) -0.5100(4)
C3A C 0.1194(4) 0.1807(4) -0.4081(4)
C4A C 0.1535(6) 0.1359(4) -0.3031(5)
H2A H 0.1782 0.0615 -0.2848
C5A C 0.1499(7) 0.2036(5) -0.2270(5)
H3A H 0.1745 0.1752 -0.1566
C6A C 0.1102(5) 0.3140(4) -0.2529(4)
H4A H 0.1078 0.3575 -0.1988
C7A C 0.0808(4) 0.2944(4) -0.4278(4)
C8A C 0.1350(5) 0.0384(4) -0.5370(5)
C9A C 0.1232(5) 0.0014(4) -0.6315(5)
C10A C 0.1849(6) -0.0464(5) -0.4489(5)
C11A C 0.1548(6) -0.1137(5) -0.6395(5)
C12A C 0.0794(6) 0.0663(4) -0.7285(5)
C13A C -0.2621(4) 0.4090(4) -0.6004(4)
H5A H -0.2569 0.3979 -0.6720
C14A C -0.3637(4) 0.3889(4) -0.5347(5)
C15A C -0.3182(5) 0.4446(6) -0.2504(5)
H6A H -0.3499 0.4437 -0.1817
C16A C -0.3850(5) 0.4158(5) -0.3302(5)
H7A H -0.4618 0.3966 -0.3172
C17A C -0.3336(4) 0.4162(4) -0.4324(4)
C18A C -0.2169(4) 0.4498(4) -0.4451(4)
C19A C -0.2047(5) 0.4751(5) -0.2694(4)
H8A H -0.1626 0.4944 -0.2129
C20A C -0.4659(5) 0.3428(5) -0.5636(6)
C21A C -0.4991(6) 0.3156(6) -0.6583(6)
C22A C -0.5568(6) 0.3196(6) -0.4761(7)
C23A C -0.6092(7) 0.2642(6) -0.6678(7)
C24A C -0.4356(6) 0.3411(6) -0.7544(7)
N1A N 0.0478(3) 0.3276(3) -0.5344(3)
N2A N 0.0751(4) 0.3601(3) -0.3533(3)
N3A N 0.2263(6) -0.1131(4) -0.3815(5)
N4A N 0.1750(5) -0.2022(4) -0.6494(5)
N5A N 0.0475(7) 0.1135(5) -0.8092(5)
N6A N -0.1765(3) 0.4451(3) -0.5482(3)
N7A N -0.1522(3) 0.4779(3) -0.3670(3)
N8A N -0.6233(5) 0.3048(5) -0.4069(6)
N9A N -0.3918(7) 0.3618(7) -0.8338(6)
N10A N -0.6891(5) 0.2236(6) -0.6868(6)
Cl1A Cl -0.04733(12) 0.42411(10) -0.78632(9)
Cu1A Cu -0.01582(5) 0.47794(4) -0.60825(4)
C25A C 0.1244(7) 0.6915(5) -0.0158(5)
H9A H 0.1570 0.6651 -0.0757
C26A C 0.2402(9) 0.8501(8) -0.0719(8)
H10A H 0.2050 0.9237 -0.0929
H11A H 0.3141 0.8523 -0.0359
H12A H 0.2534 0.8162 -0.1351
C27A C 0.1057(7) 0.8401(6) 0.0769(6)
H13A H 0.0354 0.8057 0.1013
H14A H 0.1578 0.8382 0.1373
H15A H 0.0855 0.9152 0.0444
N11A N 0.1601(6) 0.7850(5) 0.0027(5)
O1A O 0.0561(4) 0.6366(3) 0.0338(3)
C28A C -0.1960(7) 0.6600(6) -0.0421(6)
H16A H -0.1474 0.7035 -0.0878
C29A C -0.3789(9) 0.6451(8) 0.0548(9)
H17A H -0.3461 0.5706 0.0760
H18A H -0.3920 0.6790 0.1180
H19A H -0.4524 0.6450 0.0176
C30A C -0.3298(9) 0.8191(8) -0.0555(8)
H20A H -0.2629 0.8514 -0.0908
H21A H -0.3939 0.8256 -0.1063
H22A H -0.3532 0.8566 0.0034
N12A N -0.2994(6) 0.7052(6) -0.0149(6)
O2A O -0.1627(4) 0.5657(4) -0.0101(3)
Cl1A_2 Cl -0.04733(12) 0.42411(10) 0.21368(9)
Cu2_2 Cu 0.0000 0.5000 -1.0000
C31 C -0.4315(17) 0.1088(18) -0.2141(16)
H23 H -0.3728 0.1466 -0.2523
C32 C -0.5649(12) -0.0092(11) -0.2063(13)
H24 H -0.5689 0.0055 -0.1333
H25 H -0.5427 -0.0860 -0.2054
H26 H -0.6406 0.0096 -0.2407
C33 C -0.4673(19) 0.0451(17) -0.3694(19)
H27 H -0.5417 0.0540 -0.4068
H28 H -0.4282 -0.0252 -0.3763
H29 H -0.4192 0.1027 -0.4003
N13 N -0.4856(11) 0.0505(10) -0.2605(12)
O3 O -0.4472(16) 0.1215(18) -0.1253(17)
loop_
_geom_bond_atom_site_label_1
_geom_bond_atom_site_label_2
_geom_bond_site_symmetry_1
_geom_bond_site_symmetry_2
C1 H1 1_555 1_555
C2 C1 1_555 1_555
C3 C2 1_555 1_555
C4 C3 1_555 1_555
H2 C4 1_555 1_555
C5 C4 1_555 1_555
H3 C5 1_555 1_555
C6 C5 1_555 1_555
H4 C6 1_555 1_555
C7 C3 1_555 1_555
C8 C2 1_555 1_555
C9 C8 1_555 1_555
C10 C8 1_555 1_555
C11 C9 1_555 1_555
C12 C9 1_555 1_555
C13 H5 1_555 1_555
C14 C13 1_555 1_555
C15 H6 1_555 1_555
C16 C15 1_555 1_555
H7 C16 1_555 1_555
C17 C14 1_555 1_555
C18 C17 1_555 1_555
C19 C15 1_555 1_555
H8 C19 1_555 1_555
C20 C14 1_555 1_555
C21 C20 1_555 1_555
C22 C20 1_555 1_555
C23 C21 1_555 1_555
C24 C21 1_555 1_555
C25 H9 1_555 1_555
C26 H10 1_555 1_555
H11 C26 1_555 1_555
H12 C26 1_555 1_555
C27 H13 1_555 1_555
H14 C27 1_555 1_555
H15 C27 1_555 1_555
C28 H16 1_555 1_555
C29 H17 1_555 1_555
H18 C29 1_555 1_555
H19 C29 1_555 1_555
C30 H20 1_555 1_555
H21 C30 1_555 1_555
H22 C30 1_555 1_555
N1 C1 1_555 1_555
N2 C6 1_555 1_555
N3 C10 1_555 1_555
N4 C11 1_555 1_555
N5 C12 1_555 1_555
N6 C13 1_555 1_555
N7 C18 1_555 1_555
N8 C22 1_555 1_555
N9 C24 1_555 1_555
N10 C23 1_555 1_555
N11 C25 1_555 1_555
N12 C28 1_555 1_555
Cl1 Cu1 1_555 1_555
Cu1 N1 1_555 1_555
Cu2 Cl1 1_555 1_555
O1 C25 1_555 1_555
O2 C28 1_555 1_555
C31 H23 1_555 1_555
C32 H24 1_555 1_555
H25 C32 1_555 1_555
H26 C32 1_555 1_555
C33 H27 1_555 1_555
H28 C33 1_555 1_555
H29 C33 1_555 1_555
N13 C31 1_555 1_555
O3 C31 1_555 1_555
C1A H1A 1_555 1_555
C2A C1A 1_555 1_555
C3A C2A 1_555 1_555
C4A C3A 1_555 1_555
H2A C4A 1_555 1_555
C5A C4A 1_555 1_555
H3A C5A 1_555 1_555
C6A C5A 1_555 1_555
H4A C6A 1_555 1_555
C7A C3A 1_555 1_555
C8A C2A 1_555 1_555
C9A C8A 1_555 1_555
C10A C8A 1_555 1_555
C11A C9A 1_555 1_555
C12A C9A 1_555 1_555
C13A H5A 1_555 1_555
C14A C13A 1_555 1_555
C15A H6A 1_555 1_555
C16A C15A 1_555 1_555
H7A C16A 1_555 1_555
C17A C14A 1_555 1_555
C18A C17A 1_555 1_555
C19A C15A 1_555 1_555
H8A C19A 1_555 1_555
C20A C14A 1_555 1_555
C21A C20A 1_555 1_555
C22A C20A 1_555 1_555
C23A C21A 1_555 1_555
C24A C21A 1_555 1_555
N1A C1A 1_555 1_555
N2A Cu1 1_555 1_555
N3A C10A 1_555 1_555
N4A C11A 1_555 1_555
N5A C12A 1_555 1_555
N6A C13A 1_555 1_555
N7A Cu1 1_555 1_555
N8A C22A 1_555 1_555
N9A C24A 1_555 1_555
N10A C23A 1_555 1_555
Cl1A Cu1A 1_555 1_555
Cu1A N2 1_555 1_555
C25A H9A 1_555 1_555
C26A H10A 1_555 1_555
H11A C26A 1_555 1_555
H12A C26A 1_555 1_555
C27A H13A 1_555 1_555
H14A C27A 1_555 1_555
H15A C27A 1_555 1_555
N11A C25A 1_555 1_555
O1A Cu2 1_555 1_555
C28A H16A 1_555 1_555
C29A H17A 1_555 1_555
H18A C29A 1_555 1_555
H19A C29A 1_555 1_555
C30A H20A 1_555 1_555
H21A C30A 1_555 1_555
H22A C30A 1_555 1_555
N12A C28A 1_555 1_555
O2A Cu2 1_555 1_555
Cl1A_2 Cu2 1_555 1_555
Cu2_2 Cl1A 1_555 1_555
C7 N1 1_555 1_555
C7 N2 1_555 1_555
C16 C17 1_555 1_555
C18 N6 1_555 1_555
C19 N7 1_555 1_555
C26 N11 1_555 1_555
C27 N11 1_555 1_555
C29 N12 1_555 1_555
C30 N12 1_555 1_555
N6 Cu1 1_555 1_555
N7 Cu1A 1_555 1_555
Cu2 O1 1_555 1_555
Cu2 O2 1_555 1_555
C32 N13 1_555 1_555
C33 N13 1_555 1_555
C6A N2A 1_555 1_555
C7A N1A 1_555 1_555
C7A N2A 1_555 1_555
C16A C17A 1_555 1_555
C18A N6A 1_555 1_555
C18A N7A 1_555 1_555
C19A N7A 1_555 1_555
N1A Cu1A 1_555 1_555
N6A Cu1A 1_555 1_555
C25A O1A 1_555 1_555
C26A N11A 1_555 1_555
C27A N11A 1_555 1_555
C28A O2A 1_555 1_555
C29A N12A 1_555 1_555
C30A N12A 1_555 1_555

#END
