
#######################################################################
#
#                 Cambridge Crystallographic Data Centre
#                                CCDC 
#
#######################################################################
#
# If this CIF has been generated from an entry in the Cambridge 
# Structural Database, then it will include bibliographic, chemical, 
# crystal, experimental, refinement or atomic coordinate data resulting 
# from the CCDC's data processing and validation procedures.
#
#######################################################################

data_NEVXAP
_symmetry_cell_setting           orthorhombic
_symmetry_space_group_name_H-M   'P b c n'
_symmetry_Int_Tables_number      60
_space_group_name_Hall           '-P 2n 2ab'
loop_
_symmetry_equiv_pos_site_id
_symmetry_equiv_pos_as_xyz
1 x,y,z
2 1/2-x,1/2-y,1/2+z
3 -x,y,1/2-z
4 1/2+x,1/2-y,-z
5 -x,-y,-z
6 1/2+x,1/2+y,1/2-z
7 x,-y,1/2+z
8 1/2-x,1/2+y,z
_cell_length_a                   13.2010(14)
_cell_length_b                   10.1045(7)
_cell_length_c                   8.2305(6)
_cell_angle_alpha                90
_cell_angle_beta                 90
_cell_angle_gamma                90
_cell_volume                     1097.86
loop_
_atom_site_label
_atom_site_type_symbol
_atom_site_fract_x
_atom_site_fract_y
_atom_site_fract_z
C1 C 0.3201(9) 0.7822(11) 0.3264(11)
H1 H 0.3015 0.6927 0.3515
H2 H 0.2602 0.8360 0.3204
H3 H 0.3639 0.8158 0.4099
N1 N 0.3719(7) 0.7857(8) 0.1730(9)
N2 N 0.4362(8) 0.7230(8) -0.0574(9)
Hg1 Hg 0.5000 0.43132(5) 0.2500
S1 S 0.3517(2) 0.5192(2) 0.1107(3)
C2 C 0.3887(8) 0.6801(9) 0.0715(10)
C3 C 0.4108(9) 0.8916(11) 0.0953(15)
H4 H 0.4102 0.9773 0.1368
N3 N 0.4500(8) 0.8588(8) -0.0474(11)
C1B C 0.6799(9) 0.7822(11) 0.1736(11)
H1B H 0.6985 0.6927 0.1485
H2B H 0.7398 0.8360 0.1796
H3B H 0.6361 0.8158 0.0901
N1B N 0.6281(7) 0.7857(8) 0.3270(9)
N2B N 0.5638(8) 0.7230(8) 0.5574(9)
S1B S 0.6483(2) 0.5192(2) 0.3893(3)
C2B C 0.6113(8) 0.6801(9) 0.4285(10)
C3B C 0.5892(9) 0.8916(11) 0.4047(15)
H4B H 0.5898 0.9773 0.3632
N3B N 0.5500(8) 0.8588(8) 0.5474(11)
N2D N 0.5638(8) 0.2770(8) 0.0574(9)
N2F N 0.4362(8) 0.2770(8) 0.4426(9)
Hg1D Hg 0.5000 0.56868(5) -0.2500
Hg1D_2 Hg 0.5000 0.56868(5) 0.7500
loop_
_geom_bond_atom_site_label_1
_geom_bond_atom_site_label_2
_geom_bond_site_symmetry_1
_geom_bond_site_symmetry_2
C1 H1 1_555 1_555
H2 C1 1_555 1_555
H3 C1 1_555 1_555
N1 C1 1_555 1_555
N2 C2 1_555 1_555
Hg1 S1 1_555 1_555
S1 C2 1_555 1_555
C2 N1 1_555 1_555
C3 N1 1_555 1_555
H4 C3 1_555 1_555
N3 N2 1_555 1_555
C1B H1B 1_555 1_555
H2B C1B 1_555 1_555
H3B C1B 1_555 1_555
N1B C1B 1_555 1_555
N2B C2B 1_555 1_555
S1B Hg1 1_555 1_555
C2B N1B 1_555 1_555
C3B N1B 1_555 1_555
H4B C3B 1_555 1_555
N3B N2B 1_555 1_555
N2D Hg1 1_555 1_555
N2F Hg1 1_555 1_555
Hg1D N2 1_555 1_555
Hg1D_2 N2B 1_555 1_555
C3 N3 1_555 1_555
S1B C2B 1_555 1_555
C3B N3B 1_555 1_555

#END
