
#######################################################################
#
#                 Cambridge Crystallographic Data Centre
#                                CCDC 
#
#######################################################################
#
# If this CIF has been generated from an entry in the Cambridge 
# Structural Database, then it will include bibliographic, chemical, 
# crystal, experimental, refinement or atomic coordinate data resulting 
# from the CCDC's data processing and validation procedures.
#
#######################################################################

data_NEWCUP
_symmetry_cell_setting           monoclinic
_symmetry_space_group_name_H-M   'P 21/n'
_symmetry_Int_Tables_number      14
_space_group_name_Hall           '-P 2yn'
loop_
_symmetry_equiv_pos_site_id
_symmetry_equiv_pos_as_xyz
1 x,y,z
2 1/2-x,1/2+y,1/2-z
3 -x,-y,-z
4 1/2+x,1/2-y,1/2+z
_cell_length_a                   11.8758(11)
_cell_length_b                   10.2282(9)
_cell_length_c                   14.2385(13)
_cell_angle_alpha                90
_cell_angle_beta                 109.915(2)
_cell_angle_gamma                90
_cell_volume                     1626.1
loop_
_atom_site_label
_atom_site_type_symbol
_atom_site_fract_x
_atom_site_fract_y
_atom_site_fract_z
Cd1 Cd 0.190192(13) 0.127771(14) 0.374230(11)
O1 O -0.00631(17) 0.13856(17) 0.37817(15)
N1 N 0.51447(16) 0.24639(18) 0.31447(14)
N2 N 0.5532(2) 0.12134(18) 0.33752(19)
N3 N 0.37774(18) 0.1545(2) 0.36136(15)
N4 N 0.78259(18) 0.38558(18) 0.20231(14)
N5 N 0.84528(18) 0.2746(2) 0.20067(15)
N6 N 0.75444(18) 0.34969(19) 0.04545(15)
N7 N 0.1336(3) 0.5788(2) 0.3910(2)
N8 N 0.1672(3) 0.3529(2) 0.3547(2)
N9 N 0.0040(2) 0.6788(2) 0.47183(19)
N10 N 0.3787(2) -0.2536(2) 0.42822(16)
N11 N 0.2169(2) -0.0936(2) 0.40558(17)
N12 N 0.3920(2) -0.4066(2) 0.29942(15)
C1 C 0.4683(2) 0.0707(2) 0.3656(2)
H1 H 0.4699 -0.0174 0.3872
C2 C 0.4111(2) 0.2642(2) 0.32858(16)
H2 H 0.3673 0.3438 0.3170
C3 C 0.8253(2) 0.2570(2) 0.10487(19)
H3 H 0.8576 0.1858 0.0796
C4 C 0.7301(2) 0.4284(2) 0.10975(17)
H4 H 0.6819 0.5047 0.0921
C5 C 0.5802(2) 0.3367(2) 0.27284(17)
H5 H 0.5387 0.4223 0.2604
H6 H 0.5808 0.3025 0.2080
C6 C 0.7080(2) 0.3556(2) 0.34243(17)
H7 H 0.7473 0.2692 0.3593
H8 H 0.7073 0.3966 0.4052
C7 C 0.7799(2) 0.4411(2) 0.29566(17)
H9 H 0.7437 0.5294 0.2829
H10 H 0.8628 0.4500 0.3430
C8 C 0.1465(2) 0.4570(2) 0.37485(17)
C9 C 0.0620(2) 0.6246(2) 0.43456(18)
C10 C 0.2894(2) -0.1718(2) 0.41302(17)
C11 C 0.3798(2) -0.3329(2) 0.35768(17)
H11 H -0.041(3) 0.173(4) 0.330(3)
H12 H -0.005(4) 0.188(4) 0.429(3)
Cd1A Cd 0.309808(13) -0.372229(14) 0.125770(11)
Cd1C Cd 0.690192(13) 0.372229(14) -0.125770(11)
N6C N 0.25444(18) 0.15031(19) 0.54545(15)
N12A N 0.1080(2) 0.0934(2) 0.20058(15)
loop_
_geom_bond_atom_site_label_1
_geom_bond_atom_site_label_2
_geom_bond_site_symmetry_1
_geom_bond_site_symmetry_2
Cd1 O1 1_555 1_555
O1 H11 1_555 1_555
N1 N2 1_555 1_555
N2 C1 1_555 1_555
N3 Cd1 1_555 1_555
N4 N5 1_555 1_555
N5 C3 1_555 1_555
N6 C3 1_555 1_555
N7 C8 1_555 1_555
N8 Cd1 1_555 1_555
N9 C9 1_555 1_555
N10 C10 1_555 1_555
N11 Cd1 1_555 1_555
N12 C11 1_555 1_555
C1 N3 1_555 1_555
H1 C1 1_555 1_555
C2 N1 1_555 1_555
H2 C2 1_555 1_555
C3 H3 1_555 1_555
C4 N4 1_555 1_555
H4 C4 1_555 1_555
C5 N1 1_555 1_555
H5 C5 1_555 1_555
H6 C5 1_555 1_555
C6 C5 1_555 1_555
H7 C6 1_555 1_555
H8 C6 1_555 1_555
C7 N4 1_555 1_555
H9 C7 1_555 1_555
H10 C7 1_555 1_555
C8 N8 1_555 1_555
C9 N7 1_555 1_555
C10 N11 1_555 1_555
C11 N10 1_555 1_555
H12 O1 1_555 1_555
Cd1A N12 1_555 1_555
Cd1C N6 1_555 1_555
N6C Cd1 1_555 1_555
N12A Cd1 1_555 1_555
N3 C2 1_555 1_555
N6 C4 1_555 1_555
C6 C7 1_555 1_555

#END
