
#######################################################################
#
#                 Cambridge Crystallographic Data Centre
#                                CCDC 
#
#######################################################################
#
# If this CIF has been generated from an entry in the Cambridge 
# Structural Database, then it will include bibliographic, chemical, 
# crystal, experimental, refinement or atomic coordinate data resulting 
# from the CCDC's data processing and validation procedures.
#
#######################################################################

data_NEWPUB01
_symmetry_cell_setting           monoclinic
_symmetry_space_group_name_H-M   'C 2/c'
_symmetry_Int_Tables_number      15
_space_group_name_Hall           '-C 2yn'
loop_
_symmetry_equiv_pos_site_id
_symmetry_equiv_pos_as_xyz
1 x,y,z
2 1/2+x,1/2+y,z
3 -x,y,1/2-z
4 1/2-x,1/2+y,1/2-z
5 -x,-y,-z
6 1/2-x,1/2-y,-z
7 x,-y,1/2+z
8 1/2+x,1/2-y,1/2+z
_cell_length_a                   17.154(8)
_cell_length_b                   9.574(2)
_cell_length_c                   14.034(4)
_cell_angle_alpha                90
_cell_angle_beta                 116.025(17)
_cell_angle_gamma                90
_cell_volume                     2071.13
loop_
_atom_site_label
_atom_site_type_symbol
_atom_site_fract_x
_atom_site_fract_y
_atom_site_fract_z
Cd1 Cd 0.759510(8) -0.244200(14) 0.704260(9)
Cd2 Cd 0.5000 0.505168(19) 0.2500
O1 O 0.84663(8) -0.37177(14) 0.64326(10)
O2 O 0.66147(8) -0.39881(16) 0.57938(10)
O3 O 0.65984(9) -0.16423(17) 0.75726(12)
O4 O 0.72328(8) -0.08514(13) 0.57209(9)
O5 O 0.73147(8) 0.05932(14) 0.69867(9)
O6 O 0.49692(8) 0.38105(15) 0.40229(10)
O7 O 0.60272(8) 0.34382(15) 0.35794(10)
O8 O 0.60652(8) 0.34985(13) 0.69033(9)
O9 O 0.46610(7) 0.31419(14) 0.62839(9)
C1 C 0.54083(11) 0.17369(19) 0.55463(13)
H1 H 0.5615 0.0882 0.5950
H2 H 0.4823 0.1568 0.5007
C2 C 0.56325(11) 0.31703(19) 0.41425(13)
C3 C 0.67221(11) 0.14326(19) 0.52034(13)
H3 H 0.7013 0.1682 0.4805
C4 C 0.71173(11) 0.03331(19) 0.60312(13)
C5 C 0.59824(11) 0.20742(19) 0.50019(13)
C6 C 0.53818(10) 0.28793(19) 0.62862(12)
Cd1B Cd 0.240490(8) -0.244200(14) -0.204260(9)
Cd1C Cd 0.740490(8) 0.255800(14) 0.795740(9)
Cd1A Cd 0.259510(8) 0.255800(14) -0.295740(9)
Cd2F Cd 0.5000 0.494832(19) 0.7500
Cd2F_2 Cd 0.5000 0.494832(19) -0.2500
O1B O 0.15337(8) -0.37177(14) -0.14326(10)
O2B O 0.33853(8) -0.39881(16) -0.07938(10)
O3B O 0.34016(9) -0.16423(17) -0.25726(12)
O4B O 0.27672(8) -0.08514(13) -0.07209(9)
O5B O 0.26853(8) 0.05932(14) -0.19867(9)
O5C O 0.76853(8) -0.44068(14) 0.80133(9)
O5A O 0.23147(8) -0.44068(14) -0.30133(9)
O6B O 0.50308(8) 0.38105(15) 0.09771(10)
O7B O 0.39728(8) 0.34382(15) 0.14206(10)
O8B O 0.39348(8) 0.34985(13) -0.19033(9)
O8C O 0.89348(8) -0.15015(13) 0.80967(9)
O8F O 0.60652(8) 0.65015(13) 0.19033(9)
O8D O 0.39348(8) 0.65015(13) 0.30967(9)
O8A O 0.10652(8) -0.15015(13) -0.30967(9)
O9B O 0.53390(7) 0.31419(14) -0.12839(9)
O9F O 0.46610(7) 0.68581(14) 0.12839(9)
O9D O 0.53390(7) 0.68581(14) 0.37161(9)
C1B C 0.45917(11) 0.17369(19) -0.05463(13)
H1B H 0.4385 0.0882 -0.0950
H2B H 0.5177 0.1568 -0.0007
C2B C 0.43675(11) 0.31703(19) 0.08575(13)
C3B C 0.32779(11) 0.14326(19) -0.02034(13)
H3B H 0.2987 0.1682 0.0195
C4B C 0.28827(11) 0.03331(19) -0.10312(13)
C5B C 0.40176(11) 0.20742(19) -0.00019(13)
C6B C 0.46182(10) 0.28793(19) -0.12862(12)
loop_
_geom_bond_atom_site_label_1
_geom_bond_atom_site_label_2
_geom_bond_site_symmetry_1
_geom_bond_site_symmetry_2
Cd1 O1 1_555 1_555
Cd2 O6 1_555 1_555
O2 Cd1 1_555 1_555
O3 Cd1 1_555 1_555
O4 Cd1 1_555 1_555
O5 C4 1_555 1_555
O6 C2 1_555 1_555
O7 Cd2 1_555 1_555
O8 C6 1_555 1_555
O9 C6 1_555 1_555
C1 H1 1_555 1_555
H2 C1 1_555 1_555
C2 O7 1_555 1_555
C3 H3 1_555 1_555
C4 O4 1_555 1_555
C5 C1 1_555 1_555
C6 C1 1_555 1_555
Cd1B O1B 1_555 1_555
Cd1C O5 1_555 1_555
Cd1A O5B 1_555 1_555
Cd2F O8 1_555 1_555
Cd2F_2 O8B 1_555 1_555
O2B Cd1B 1_555 1_555
O3B Cd1B 1_555 1_555
O4B Cd1B 1_555 1_555
O5B C4B 1_555 1_555
O5C Cd1 1_555 1_555
O5A Cd1B 1_555 1_555
O6B Cd2 1_555 1_555
O7B Cd2 1_555 1_555
O8B Cd1A 1_555 1_555
O8C Cd1 1_555 1_555
O8F Cd2 1_555 1_555
O8D Cd2 1_555 1_555
O8A Cd1B 1_555 1_555
O9B Cd2F_2 1_555 1_555
O9F Cd2 1_555 1_555
O9D Cd2 1_555 1_555
C1B H1B 1_555 1_555
H2B C1B 1_555 1_555
C2B O6B 1_555 1_555
C3B H3B 1_555 1_555
C4B O4B 1_555 1_555
C5B C1B 1_555 1_555
C6B O8B 1_555 1_555
O8 Cd1C 1_555 1_555
O9 Cd2F 1_555 1_555
C2 C5 1_555 1_555
C3 C4 1_555 1_555
C3 C5 1_555 1_555
O7B C2B 1_555 1_555
O9B C6B 1_555 1_555
C1B C6B 1_555 1_555
C2B C5B 1_555 1_555
C3B C4B 1_555 1_555
C3B C5B 1_555 1_555

#END
