
#######################################################################
#
#                 Cambridge Crystallographic Data Centre
#                                CCDC 
#
#######################################################################
#
# If this CIF has been generated from an entry in the Cambridge 
# Structural Database, then it will include bibliographic, chemical, 
# crystal, experimental, refinement or atomic coordinate data resulting 
# from the CCDC's data processing and validation procedures.
#
#######################################################################

data_NEWREO
_symmetry_cell_setting           triclinic
_symmetry_space_group_name_H-M   'P -1'
_symmetry_Int_Tables_number      2
_space_group_name_Hall           '-P 1'
loop_
_symmetry_equiv_pos_site_id
_symmetry_equiv_pos_as_xyz
1 x,y,z
2 -x,-y,-z
_cell_length_a                   16.973(3)
_cell_length_b                   17.159(2)
_cell_length_c                   20.322(3)
_cell_angle_alpha                97.596(6)
_cell_angle_beta                 113.544(5)
_cell_angle_gamma                111.349(5)
_cell_volume                     4779
loop_
_atom_site_label
_atom_site_type_symbol
_atom_site_fract_x
_atom_site_fract_y
_atom_site_fract_z
Cd1 Cd 0.76162(6) 0.45727(6) 0.61575(5)
Cl1 Cl 0.6799(3) 0.2979(2) 0.5512(2)
Cl2 Cl 0.8353(3) 0.4996(2) 0.75429(19)
Cl3 Cl 0.6347(2) 0.5036(2) 0.5722(2)
Cl4 Cl 0.8909(2) 0.5290(2) 0.5856(2)
Cl5 Cl 0.8199(3) 0.3008(3) 0.3895(3)
Cl6 Cl 0.2108(3) 0.8464(3) 0.0355(3)
Cl7 Cl 0.8250(10) 0.7073(16) 0.2053(10)
Cl9 Cl 0.6747(11) 0.7833(18) 0.3031(11)
Gd1 Gd 0.85948(3) 1.13638(3) 0.56423(3)
Gd2 Gd 0.35353(3) 0.54905(3) 0.11878(3)
N1 N 0.6188(6) 0.9789(5) 0.3341(5)
N2 N 0.5899(6) 0.9011(5) 0.4075(5)
N3 N 0.4844(6) 0.8539(5) 0.2228(5)
N4 N 0.4506(6) 0.7770(5) 0.2963(5)
N5 N 0.6117(6) 0.7846(5) 0.4578(5)
N6 N 0.6768(6) 0.6935(5) 0.4724(5)
N7 N 0.4611(6) 0.6662(5) 0.3527(5)
N8 N 0.5289(6) 0.5769(5) 0.3662(5)
N9 N 0.7669(6) 0.6191(5) 0.4569(5)
N10 N 0.8551(6) 0.5732(5) 0.4217(5)
N11 N 0.6169(6) 0.4995(5) 0.3483(5)
N12 N 0.7073(6) 0.4631(5) 0.3084(5)
N13 N 0.9502(6) 0.5660(5) 0.3602(5)
N14 N 1.0244(6) 0.6032(5) 0.2943(5)
N15 N 0.8026(6) 0.4632(5) 0.2456(5)
N16 N 0.8760(6) 0.5008(5) 0.1781(5)
N17 N 1.0513(5) 0.6983(5) 0.2196(4)
N18 N 1.0292(6) 0.8030(5) 0.1749(5)
N19 N 0.9095(6) 0.5882(5) 0.0991(5)
N20 N 0.8959(6) 0.6960(5) 0.0541(5)
N21 N 0.9722(7) 0.9130(6) 0.1579(5)
N22 N 0.8891(6) 0.9831(5) 0.1654(5)
N23 N 0.8352(6) 0.8032(5) 0.0397(5)
N24 N 0.7477(6) 0.8687(5) 0.0524(5)
N25 N 0.7822(6) 1.0163(5) 0.2023(5)
N26 N 0.6909(6) 1.0194(6) 0.2548(5)
N27 N 0.6403(6) 0.9060(6) 0.0863(5)
N28 N 0.5527(7) 0.8987(6) 0.1433(5)
O1 O 0.7452(5) 1.0080(4) 0.4519(4)
O2 O 0.7765(5) 0.8424(5) 0.5080(5)
O3 O 0.9224(6) 0.7136(5) 0.4983(5)
O4 O 1.0696(5) 0.7086(4) 0.4019(4)
O5 O 1.0925(5) 0.8272(4) 0.3031(4)
O6 O 1.0173(6) 1.0011(5) 0.2752(4)
O7 O 0.8532(5) 1.0597(5) 0.3327(4)
O8 O 0.4107(5) 0.7017(4) 0.1770(4)
O9 O 0.4119(5) 0.5558(5) 0.2473(4)
O10 O 0.5523(5) 0.4319(5) 0.2206(4)
O11 O 0.7114(5) 0.4520(5) 0.1242(4)
O12 O 0.7584(5) 0.5606(4) 0.0055(4)
O13 O 0.6715(6) 0.7216(5) -0.0109(5)
O14 O 0.5054(6) 0.7760(5) 0.0475(4)
O15 O 0.3801(6) 0.6123(5) 0.0291(4)
O16 O 0.9152(5) 1.1510(5) 0.4756(4)
O17 O 0.4009(6) 0.4373(5) 0.1125(5)
O18 O 0.8711(6) 1.0122(5) 0.5930(5)
O19 O 0.5284(5) 0.6197(5) 0.1715(5)
O20 O 0.7477(6) 1.1787(5) 0.4778(4)
O21 O 0.2292(6) 0.4351(5) 0.1326(5)
O22 O 1.0325(5) 1.1842(5) 0.6323(4)
O23 O 0.7210(5) 1.0919(6) 0.5825(5)
O24 O 0.2219(6) 0.5830(5) 0.0859(5)
C1 C 0.6594(7) 0.9671(6) 0.4022(6)
C2 C 0.5155(7) 0.9226(6) 0.2927(5)
H1 H 0.4797 0.9579 0.2816
C3 C 0.4911(7) 0.8685(6) 0.3429(6)
H2 H 0.4467 0.8795 0.3583
C4 C 0.4478(7) 0.7724(6) 0.2297(6)
C5 C 0.6068(7) 0.8678(6) 0.4714(6)
H3 H 0.5547 0.8595 0.4837
H4 H 0.6676 0.9124 0.5156
C6 C 0.3994(6) 0.7016(5) 0.3156(5)
H5 H 0.3764 0.7211 0.3486
H6 H 0.3430 0.6557 0.2691
C7 C 0.6955(7) 0.7799(6) 0.4807(6)
C8 C 0.5295(7) 0.7002(6) 0.4340(6)
H7 H 0.4976 0.6995 0.4656
C9 C 0.5747(7) 0.6354(6) 0.4413(6)
H8 H 0.5628 0.6028 0.4758
C10 C 0.4618(7) 0.5941(6) 0.3158(6)
C11 C 0.7539(7) 0.6711(6) 0.5109(6)
H9 H 0.7388 0.6372 0.5431
H10 H 0.8144 0.7255 0.5436
C12 C 0.5284(7) 0.4918(6) 0.3485(6)
H11 H 0.4728 0.4534 0.2985
H12 H 0.5205 0.4638 0.3860
C13 C 0.8563(7) 0.6427(6) 0.4622(6)
C14 C 0.7039(7) 0.5224(6) 0.4168(5)
H13 H 0.6893 0.4917 0.4515
C15 C 0.7646(7) 0.4926(6) 0.3903(6)
H14 H 0.7743 0.4447 0.4091
C16 C 0.6188(7) 0.4642(6) 0.2858(6)
C17 C 0.9420(8) 0.5708(7) 0.4296(6)
H15 H 0.9442 0.5193 0.4446
H16 H 0.9979 0.6239 0.4704
C18 C 0.7221(7) 0.4116(6) 0.2580(6)
H17 H 0.6625 0.3814 0.2089
H18 H 0.7345 0.3660 0.2783
C19 C 1.0191(7) 0.6326(6) 0.3548(6)
C20 C 0.9019(7) 0.4867(6) 0.2973(6)
H19 H 0.9076 0.4367 0.3145
C21 C 0.9535(6) 0.5105(6) 0.2492(5)
H20 H 0.9836 0.4723 0.2429
C22 C 0.7903(7) 0.4722(6) 0.1786(6)
C23 C 1.0901(7) 0.6568(6) 0.2733(6)
H21 H 1.1120 0.6203 0.2511
H22 H 1.1469 0.7032 0.3192
C24 C 0.8836(7) 0.5041(6) 0.1094(5)
H23 H 0.9317 0.4850 0.1104
H24 H 0.8212 0.4616 0.0655
C25 C 1.0584(7) 0.7807(6) 0.2390(5)
C26 C 1.0082(7) 0.6593(6) 0.1378(6)
H25 H 1.0509 0.6414 0.1249
C27 C 0.9974(6) 0.7353(5) 0.1074(5)
H26 H 1.0377 0.7551 0.0829
C28 C 0.8476(7) 0.6109(6) 0.0493(5)
C29 C 1.0532(7) 0.8953(6) 0.1793(6)
H27 H 1.1024 0.9336 0.2314
H28 H 1.0814 0.9106 0.1462
C30 C 0.8532(8) 0.7390(6) 0.0034(6)
H29 H 0.8969 0.7683 -0.0157
H30 H 0.7921 0.6939 -0.0403
C31 C 0.9667(8) 0.9697(7) 0.2053(7)
C32 C 0.9062(7) 0.8959(6) 0.0796(6)
H31 H 0.9409 0.9195 0.0519
C33 C 0.8473(8) 0.9429(7) 0.0860(6)
H32 H 0.8500 0.9867 0.0587
C34 C 0.7435(7) 0.7896(6) 0.0225(6)
C35 C 0.8713(7) 1.0519(6) 0.1998(6)
H33 H 0.9249 1.0856 0.2516
H34 H 0.8701 1.0929 0.1706
C36 C 0.6625(8) 0.8821(7) 0.0255(6)
H35 H 0.6070 0.8278 -0.0141
H36 H 0.6719 0.9292 0.0027
C37 C 0.7818(7) 1.0344(6) 0.2701(6)
C38 C 0.6904(8) 0.9959(7) 0.1378(6)
H37 H 0.6951 1.0409 0.1117
C39 C 0.6261(7) 0.9909(7) 0.1781(6)
H38 H 0.5959 1.0305 0.1665
C40 C 0.5631(8) 0.8527(7) 0.0886(6)
C41 C 0.6696(8) 1.0494(7) 0.3137(6)
H39 H 0.7305 1.0919 0.3590
H40 H 0.6308 1.0802 0.2956
C42 C 0.4698(7) 0.8684(6) 0.1532(6)
H41 H 0.4450 0.9119 0.1482
H42 H 0.4198 0.8130 0.1120
Gd1A Gd 1.14052(3) 0.86362(3) 0.43577(3)
Gd2A Gd 0.64647(3) 0.45095(3) -0.11878(3)
O4A O 0.9304(5) 1.2914(4) 0.5981(4)
O5A O 0.9075(5) 1.1728(4) 0.6969(4)
O12A O 0.2416(5) 0.4394(4) -0.0055(4)
Cl8? Cl 0.7245(6) 0.6772(4) 0.1026(4)
Cl10? Cl 0.7788(4) 0.9100(3) 0.3402(3)
loop_
_geom_bond_atom_site_label_1
_geom_bond_atom_site_label_2
_geom_bond_site_symmetry_1
_geom_bond_site_symmetry_2
Gd1 O1 1_555 1_555
Gd2 O8 1_555 1_555
N1 C1 1_555 1_555
N2 C1 1_555 1_555
N3 C2 1_555 1_555
N4 C3 1_555 1_555
N5 C5 1_555 1_555
N6 C7 1_555 1_555
N7 C6 1_555 1_555
N8 C9 1_555 1_555
N9 C11 1_555 1_555
N10 C13 1_555 1_555
N11 C12 1_555 1_555
N12 C15 1_555 1_555
N13 C17 1_555 1_555
N14 C19 1_555 1_555
N15 C18 1_555 1_555
N16 C21 1_555 1_555
N17 C23 1_555 1_555
N18 C25 1_555 1_555
N19 C24 1_555 1_555
N20 C27 1_555 1_555
N21 C29 1_555 1_555
N22 C31 1_555 1_555
N23 C30 1_555 1_555
N24 C33 1_555 1_555
N25 C35 1_555 1_555
N26 C37 1_555 1_555
N27 C36 1_555 1_555
N28 C39 1_555 1_555
O1 C1 1_555 1_555
O2 C7 1_555 1_555
O3 C13 1_555 1_555
O4 C19 1_555 1_555
O5 C25 1_555 1_555
O6 C31 1_555 1_555
O7 C37 1_555 1_555
O8 C4 1_555 1_555
O9 Gd2 1_555 1_555
O10 C16 1_555 1_555
O11 C22 1_555 1_555
O12 C28 1_555 1_555
O13 C34 1_555 1_555
O14 C40 1_555 1_555
O15 Gd2 1_555 1_555
O16 Gd1 1_555 1_555
O17 Gd2 1_555 1_555
O18 Gd1 1_555 1_555
O19 Gd2 1_555 1_555
O20 Gd1 1_555 1_555
O21 Gd2 1_555 1_555
O22 Gd1 1_555 1_555
O23 Gd1 1_555 1_555
O24 Gd2 1_555 1_555
C2 N1 1_555 1_555
H1 C2 1_555 1_555
C3 N2 1_555 1_555
H2 C3 1_555 1_555
C4 N3 1_555 1_555
C5 N2 1_555 1_555
H3 C5 1_555 1_555
H4 C5 1_555 1_555
C6 N4 1_555 1_555
H5 C6 1_555 1_555
H6 C6 1_555 1_555
C7 N5 1_555 1_555
C8 N5 1_555 1_555
H7 C8 1_555 1_555
C9 N6 1_555 1_555
H8 C9 1_555 1_555
C10 N7 1_555 1_555
C11 N6 1_555 1_555
H9 C11 1_555 1_555
H10 C11 1_555 1_555
C12 N8 1_555 1_555
H11 C12 1_555 1_555
H12 C12 1_555 1_555
C13 N9 1_555 1_555
C14 N9 1_555 1_555
H13 C14 1_555 1_555
C15 N10 1_555 1_555
H14 C15 1_555 1_555
C16 N11 1_555 1_555
C17 N10 1_555 1_555
H15 C17 1_555 1_555
H16 C17 1_555 1_555
C18 N12 1_555 1_555
H17 C18 1_555 1_555
H18 C18 1_555 1_555
C19 N13 1_555 1_555
C20 N13 1_555 1_555
H19 C20 1_555 1_555
C21 N14 1_555 1_555
H20 C21 1_555 1_555
C22 N15 1_555 1_555
C23 N14 1_555 1_555
H21 C23 1_555 1_555
H22 C23 1_555 1_555
C24 N16 1_555 1_555
H23 C24 1_555 1_555
H24 C24 1_555 1_555
C25 N17 1_555 1_555
C26 N17 1_555 1_555
H25 C26 1_555 1_555
C27 N18 1_555 1_555
H26 C27 1_555 1_555
C28 N19 1_555 1_555
C29 N18 1_555 1_555
H27 C29 1_555 1_555
H28 C29 1_555 1_555
C30 N20 1_555 1_555
H29 C30 1_555 1_555
H30 C30 1_555 1_555
C31 N21 1_555 1_555
C32 N21 1_555 1_555
H31 C32 1_555 1_555
C33 N22 1_555 1_555
H32 C33 1_555 1_555
C34 N23 1_555 1_555
C35 N22 1_555 1_555
H33 C35 1_555 1_555
H34 C35 1_555 1_555
C36 N24 1_555 1_555
H35 C36 1_555 1_555
H36 C36 1_555 1_555
C37 N25 1_555 1_555
C38 N25 1_555 1_555
H37 C38 1_555 1_555
C39 N26 1_555 1_555
H38 C39 1_555 1_555
C40 N27 1_555 1_555
C41 N1 1_555 1_555
H39 C41 1_555 1_555
H40 C41 1_555 1_555
C42 N3 1_555 1_555
H41 C42 1_555 1_555
H42 C42 1_555 1_555
Cd1 Cl1 1_555 1_555
Cl2 Cd1 1_555 1_555
Cl3 Cd1 1_555 1_555
Cl4 Cd1 1_555 1_555
Gd1A O4 1_555 1_555
Gd2A O12 1_555 1_555
O4A Gd1 1_555 1_555
O5A Gd1 1_555 1_555
O12A Gd2 1_555 1_555
N4 C4 1_555 1_555
N7 C8 1_555 1_555
N8 C10 1_555 1_555
N11 C14 1_555 1_555
N12 C16 1_555 1_555
N15 C20 1_555 1_555
N16 C22 1_555 1_555
N19 C26 1_555 1_555
N20 C28 1_555 1_555
N23 C32 1_555 1_555
N24 C34 1_555 1_555
N26 C41 1_555 1_555
N27 C38 1_555 1_555
N28 C40 1_555 1_555
N28 C42 1_555 1_555
O5 Gd1A 1_555 1_555
O9 C10 1_555 1_555
C2 C3 1_555 1_555
C8 C9 1_555 1_555
C14 C15 1_555 1_555
C20 C21 1_555 1_555
C26 C27 1_555 1_555
C32 C33 1_555 1_555
C38 C39 1_555 1_555

#END
