
#######################################################################
#
#                 Cambridge Crystallographic Data Centre
#                                CCDC 
#
#######################################################################
#
# If this CIF has been generated from an entry in the Cambridge 
# Structural Database, then it will include bibliographic, chemical, 
# crystal, experimental, refinement or atomic coordinate data resulting 
# from the CCDC's data processing and validation procedures.
#
#######################################################################

data_NEWROY
_symmetry_cell_setting           triclinic
_symmetry_space_group_name_H-M   'P -1'
_symmetry_Int_Tables_number      2
_space_group_name_Hall           '-P 1'
loop_
_symmetry_equiv_pos_site_id
_symmetry_equiv_pos_as_xyz
1 x,y,z
2 -x,-y,-z
_cell_length_a                   9.9706(11)
_cell_length_b                   10.2954(12)
_cell_length_c                   11.2168(13)
_cell_angle_alpha                71.308(9)
_cell_angle_beta                 87.893(9)
_cell_angle_gamma                63.152(8)
_cell_volume                     965.146
loop_
_atom_site_label
_atom_site_type_symbol
_atom_site_fract_x
_atom_site_fract_y
_atom_site_fract_z
C1 C 0.5108(8) 0.5469(7) 0.3141(6)
H1 H 0.5137 0.4674 0.2900
C2 C 0.6258(8) 0.5203(8) 0.3975(7)
H2 H 0.7088 0.4222 0.4256
C3 C 0.5068(9) 0.7684(8) 0.3979(8)
H3 H 0.5028 0.8434 0.4290
C4 C 0.3884(8) 0.8085(7) 0.3083(7)
H4 H 0.3100 0.9093 0.2776
C5 C 0.3901(7) 0.6959(7) 0.2666(6)
C6 C 0.2645(7) 0.7237(7) 0.1765(5)
C7 C 0.0567(7) 0.9164(7) 0.0065(6)
H5 H 0.0083 0.8508 0.0437
C8 C 0.1055(7) 0.8942(7) -0.1185(6)
C9 C 0.0288(8) 0.8483(8) -0.1837(7)
H6 H -0.0465 0.8240 -0.1488
C10 C 0.0679(10) 0.8395(10) -0.3041(9)
H7 H 0.0148 0.8119 -0.3492
C11 C 0.1808(10) 0.8701(10) -0.3569(8)
H8 H 0.2061 0.8608 -0.4355
C12 C 0.2556(9) 0.9146(10) -0.2913(9)
H9 H 0.3311 0.9383 -0.3263
C13 C 0.2190(9) 0.9248(9) -0.1710(8)
H10 H 0.2725 0.9526 -0.1265
N1 N 0.6243(6) 0.6286(6) 0.4403(6)
N2 N 0.1876(6) 0.8679(6) 0.0968(5)
H11 H 0.2153 0.9354 0.0981
O1 O 0.2366(6) 0.6182(5) 0.1798(5)
Hg1 Hg 0.82335(3) 0.56214(3) 0.60342(3)
Br1 Br 0.99960(9) 0.30348(8) 0.59700(9)
Br2 Br 0.70423(10) 0.79396(9) 0.66438(9)
C1A C -0.5108(8) 1.4531(7) -0.3141(6)
H1A H -0.5137 1.5326 -0.2900
C2A C -0.6258(8) 1.4797(8) -0.3975(7)
H2A H -0.7088 1.5778 -0.4256
C3A C -0.5068(9) 1.2316(8) -0.3979(8)
H3A H -0.5028 1.1566 -0.4290
C4A C -0.3884(8) 1.1915(7) -0.3083(7)
H4A H -0.3100 1.0907 -0.2776
C5A C -0.3901(7) 1.3041(7) -0.2666(6)
C6A C -0.2645(7) 1.2763(7) -0.1765(5)
C7A C -0.0567(7) 1.0836(7) -0.0065(6)
H5A H -0.0083 1.1492 -0.0437
C8A C -0.1055(7) 1.1058(7) 0.1185(6)
C9A C -0.0288(8) 1.1517(8) 0.1837(7)
H6A H 0.0465 1.1760 0.1488
C10A C -0.0679(10) 1.1605(10) 0.3041(9)
H7A H -0.0148 1.1881 0.3492
C11A C -0.1808(10) 1.1299(10) 0.3569(8)
H8A H -0.2061 1.1392 0.4355
C12A C -0.2556(9) 1.0854(10) 0.2913(9)
H9A H -0.3311 1.0617 0.3263
C13A C -0.2190(9) 1.0752(9) 0.1710(8)
H10A H -0.2725 1.0474 0.1265
N1A N -0.6243(6) 1.3714(6) -0.4403(6)
N2A N -0.1876(6) 1.1321(6) -0.0968(5)
H11A H -0.2153 1.0646 -0.0981
O1A O -0.2366(6) 1.3818(5) -0.1798(5)
Hg1A Hg -0.82335(3) 1.43786(3) -0.60342(3)
Br1A Br -0.99960(9) 1.69652(8) -0.59700(9)
Br2A Br -0.70423(10) 1.20604(9) -0.66438(9)
O1_2 O -0.7634(6) 1.6182(5) -0.8202(5)
O1A_2 O 0.7634(6) 0.3818(5) 0.8202(5)
Hg1_2 Hg -1.17665(3) 1.56214(3) -0.39658(3)
Hg1_3 Hg -0.17665(3) 1.56214(3) -0.39658(3)
Hg1A_2 Hg 0.17665(3) 0.43786(3) 0.39658(3)
Hg1A_3 Hg 1.17665(3) 0.43786(3) 0.39658(3)
Br1_2 Br -1.00040(9) 1.30348(8) -0.40300(9)
Br1A_2 Br 1.00040(9) 0.69652(8) 0.40300(9)
C14 C 0.3537(17) 0.4165(14) 0.9877(11)
H12 H 0.3957 0.4537 0.9140
H13 H 0.4321 0.3544 1.0587
H14 H 0.2755 0.5029 1.0061
C15 C 0.1541(17) 0.3997(17) 0.8812(15)
H15 H 0.0699 0.4407 0.9260
H16 H 0.1452 0.3268 0.8503
H17 H 0.1546 0.4826 0.8110
C16 C 0.3490(11) 0.1727(11) 1.0281(10)
H18 H 0.4369 0.1260 1.0845
N3 N 0.2908(9) 0.3245(8) 0.9642(7)
O2 O 0.2948(9) 0.0912(8) 1.0174(7)
loop_
_geom_bond_atom_site_label_1
_geom_bond_atom_site_label_2
_geom_bond_site_symmetry_1
_geom_bond_site_symmetry_2
C1 H1 1_555 1_555
C2 C1 1_555 1_555
H2 C2 1_555 1_555
C3 H3 1_555 1_555
C4 C3 1_555 1_555
H4 C4 1_555 1_555
C5 C1 1_555 1_555
C6 C5 1_555 1_555
C7 H5 1_555 1_555
C8 C7 1_555 1_555
C9 C8 1_555 1_555
H6 C9 1_555 1_555
C10 C9 1_555 1_555
H7 C10 1_555 1_555
C11 C10 1_555 1_555
H8 C11 1_555 1_555
C12 C11 1_555 1_555
H9 C12 1_555 1_555
C13 C8 1_555 1_555
H10 C13 1_555 1_555
N1 C2 1_555 1_555
N2 C6 1_555 1_555
H11 N2 1_555 1_555
O1 C6 1_555 1_555
Hg1 N1 1_555 1_555
Br1 Hg1 1_555 1_555
Br2 Hg1 1_555 1_555
C14 H12 1_555 1_555
H13 C14 1_555 1_555
H14 C14 1_555 1_555
C15 H15 1_555 1_555
H16 C15 1_555 1_555
H17 C15 1_555 1_555
C16 H18 1_555 1_555
N3 C14 1_555 1_555
O2 C16 1_555 1_555
C1A H1A 1_555 1_555
C2A C1A 1_555 1_555
H2A C2A 1_555 1_555
C3A H3A 1_555 1_555
C4A C3A 1_555 1_555
H4A C4A 1_555 1_555
C5A C1A 1_555 1_555
C6A C5A 1_555 1_555
C7A C7 1_555 1_555
H5A C7A 1_555 1_555
C8A C7A 1_555 1_555
C9A C8A 1_555 1_555
H6A C9A 1_555 1_555
C10A C9A 1_555 1_555
H7A C10A 1_555 1_555
C11A C10A 1_555 1_555
H8A C11A 1_555 1_555
C12A C11A 1_555 1_555
H9A C12A 1_555 1_555
C13A C8A 1_555 1_555
H10A C13A 1_555 1_555
N1A C2A 1_555 1_555
N2A C6A 1_555 1_555
H11A N2A 1_555 1_555
O1A C6A 1_555 1_555
Hg1A N1A 1_555 1_555
Br1A Hg1A 1_555 1_555
Br2A Hg1A 1_555 1_555
O1_2 Hg1A 1_555 1_555
O1A_2 Hg1 1_555 1_555
Hg1_2 Br1A 1_555 1_555
Hg1_3 O1A 1_555 1_555
Hg1A_2 O1 1_555 1_555
Hg1A_3 Br1 1_555 1_555
Br1_2 Hg1A 1_555 1_555
Br1A_2 Hg1 1_555 1_555
C3 N1 1_555 1_555
C4 C5 1_555 1_555
C7 N2 1_555 1_555
C12 C13 1_555 1_555
C15 N3 1_555 1_555
C16 N3 1_555 1_555
C3A N1A 1_555 1_555
C4A C5A 1_555 1_555
C7A N2A 1_555 1_555
C12A C13A 1_555 1_555
Hg1_2 Br1_2 1_555 1_555
Hg1A_3 Br1A_2 1_555 1_555

#END
