
#######################################################################
#
#                 Cambridge Crystallographic Data Centre
#                                CCDC 
#
#######################################################################
#
# If this CIF has been generated from an entry in the Cambridge 
# Structural Database, then it will include bibliographic, chemical, 
# crystal, experimental, refinement or atomic coordinate data resulting 
# from the CCDC's data processing and validation procedures.
#
#######################################################################

data_NEWRUE
_symmetry_cell_setting           triclinic
_symmetry_space_group_name_H-M   'P -1'
_symmetry_Int_Tables_number      2
_space_group_name_Hall           '-P 1'
loop_
_symmetry_equiv_pos_site_id
_symmetry_equiv_pos_as_xyz
1 x,y,z
2 -x,-y,-z
_cell_length_a                   9.8707(8)
_cell_length_b                   10.2064(8)
_cell_length_c                   11.1344(9)
_cell_angle_alpha                72.266(6)
_cell_angle_beta                 87.909(7)
_cell_angle_gamma                62.061(6)
_cell_volume                     936.344
loop_
_atom_site_label
_atom_site_type_symbol
_atom_site_fract_x
_atom_site_fract_y
_atom_site_fract_z
C1 C 0.5181(6) 0.5433(6) 0.3185(5)
H1 H 0.5240 0.4620 0.2934
C2 C 0.6339(6) 0.5170(6) 0.4030(6)
H2 H 0.7197 0.4176 0.4317
C3 C 0.5073(7) 0.7715(7) 0.4013(6)
H3 H 0.5040 0.8493 0.4300
C4 C 0.3869(7) 0.8098(6) 0.3150(6)
H4 H 0.3040 0.9111 0.2865
C5 C 0.3930(6) 0.6922(6) 0.2717(4)
C6 C 0.2649(6) 0.7220(6) 0.1802(4)
C7 C 0.0594(5) 0.9139(5) 0.0058(4)
H5 H 0.0114 0.8479 0.0416
C8 C 0.1059(6) 0.8957(6) -0.1221(5)
C9 C 0.2153(7) 0.9326(8) -0.1776(6)
H6 H 0.2652 0.9662 -0.1347
C10 C 0.2533(9) 0.9208(9) -0.2965(7)
H7 H 0.3292 0.9444 -0.3320
C11 C 0.1777(9) 0.8739(9) -0.3614(7)
H8 H 0.2019 0.8672 -0.4416
C12 C 0.0680(9) 0.8372(9) -0.3094(7)
H9 H 0.0172 0.8060 -0.3539
C13 C 0.0321(7) 0.8467(7) -0.1890(6)
H10 H -0.0418 0.8201 -0.1530
N1 N 0.1908(5) 0.8651(5) 0.0958(4)
H11 H 0.2217 0.9316 0.0943
N2 N 0.6275(5) 0.6284(6) 0.4451(4)
O1 O 0.2347(5) 0.6166(5) 0.1857(4)
Hg1 Hg 0.83008(2) 0.56219(2) 0.608465(19)
Cl1 Cl 1.0026(2) 0.31549(19) 0.59388(19)
Cl2 Cl 0.7122(2) 0.7880(2) 0.6649(2)
C1A C -0.5181(6) 1.4567(6) -0.3185(5)
H1A H -0.5240 1.5380 -0.2934
C2A C -0.6339(6) 1.4830(6) -0.4030(6)
H2A H -0.7197 1.5824 -0.4317
C3A C -0.5073(7) 1.2285(7) -0.4013(6)
H3A H -0.5040 1.1507 -0.4300
C4A C -0.3869(7) 1.1902(6) -0.3150(6)
H4A H -0.3040 1.0889 -0.2865
C5A C -0.3930(6) 1.3078(6) -0.2717(4)
C6A C -0.2649(6) 1.2780(6) -0.1802(4)
C7A C -0.0594(5) 1.0861(5) -0.0058(4)
H5A H -0.0114 1.1521 -0.0416
C8A C -0.1059(6) 1.1043(6) 0.1221(5)
C9A C -0.2153(7) 1.0674(8) 0.1776(6)
H6A H -0.2652 1.0338 0.1347
C10A C -0.2533(9) 1.0792(9) 0.2965(7)
H7A H -0.3292 1.0556 0.3320
C11A C -0.1777(9) 1.1261(9) 0.3614(7)
H8A H -0.2019 1.1328 0.4416
C12A C -0.0680(9) 1.1628(9) 0.3094(7)
H9A H -0.0172 1.1940 0.3539
C13A C -0.0321(7) 1.1533(7) 0.1890(6)
H10A H 0.0418 1.1799 0.1530
N1A N -0.1908(5) 1.1349(5) -0.0958(4)
H11A H -0.2217 1.0684 -0.0943
N2A N -0.6275(5) 1.3716(6) -0.4451(4)
O1A O -0.2347(5) 1.3834(5) -0.1857(4)
Hg1A Hg -0.83008(2) 1.43781(2) -0.608465(19)
Cl1A Cl -1.0026(2) 1.68451(19) -0.59388(19)
Cl2A Cl -0.7122(2) 1.2120(2) -0.6649(2)
O1_2 O -0.7653(5) 1.6166(5) -0.8143(4)
O1A_2 O 0.7653(5) 0.3834(5) 0.8143(4)
Hg1_2 Hg -1.16992(2) 1.56219(2) -0.391535(19)
Hg1_3 Hg -0.16992(2) 1.56219(2) -0.391535(19)
Hg1A_2 Hg 0.16992(2) 0.43781(2) 0.391535(19)
Hg1A_3 Hg 1.16992(2) 0.43781(2) 0.391535(19)
Cl1_2 Cl -0.9974(2) 1.31549(19) -0.40612(19)
Cl1A_2 Cl 0.9974(2) 0.68451(19) 0.40612(19)
O2 O 0.2976(8) 1.0870(8) 0.0215(6)
C14 C 0.3557(16) 1.4113(13) -0.0023(10)
H12 H 0.4442 1.3453 0.0613
H13 H 0.2778 1.4902 0.0281
H14 H 0.3855 1.4607 -0.0786
N3 N 0.2954(9) 1.3183(8) -0.0289(6)
C15 C 0.3480(9) 1.1713(9) 0.0335(7)
H15 H 0.4335 1.1248 0.0942
C16 C 0.1569(17) 1.3993(18) -0.1228(12)
H16 H 0.0678 1.4125 -0.0795
H17 H 0.1688 1.3380 -0.1768
H18 H 0.1438 1.5002 -0.1733
loop_
_geom_bond_atom_site_label_1
_geom_bond_atom_site_label_2
_geom_bond_site_symmetry_1
_geom_bond_site_symmetry_2
C1 H1 1_555 1_555
C2 C1 1_555 1_555
H2 C2 1_555 1_555
C3 H3 1_555 1_555
C4 C3 1_555 1_555
H4 C4 1_555 1_555
C5 C1 1_555 1_555
C6 C5 1_555 1_555
C7 H5 1_555 1_555
C8 C7 1_555 1_555
C9 C8 1_555 1_555
H6 C9 1_555 1_555
C10 C9 1_555 1_555
H7 C10 1_555 1_555
C11 C10 1_555 1_555
H8 C11 1_555 1_555
C12 C11 1_555 1_555
H9 C12 1_555 1_555
C13 C8 1_555 1_555
H10 C13 1_555 1_555
N1 C6 1_555 1_555
H11 N1 1_555 1_555
N2 C2 1_555 1_555
O1 C6 1_555 1_555
Hg1 N2 1_555 1_555
Cl1 Hg1 1_555 1_555
Cl2 Hg1 1_555 1_555
O2 C15 1_555 1_555
C14 H12 1_555 1_555
H13 C14 1_555 1_555
H14 C14 1_555 1_555
N3 C14 1_555 1_555
C15 N3 1_555 1_555
H15 C15 1_555 1_555
C16 N3 1_555 1_555
H16 C16 1_555 1_555
H17 C16 1_555 1_555
H18 C16 1_555 1_555
C1A H1A 1_555 1_555
C2A C1A 1_555 1_555
H2A C2A 1_555 1_555
C3A H3A 1_555 1_555
C4A C3A 1_555 1_555
H4A C4A 1_555 1_555
C5A C1A 1_555 1_555
C6A C5A 1_555 1_555
C7A C7 1_555 1_555
H5A C7A 1_555 1_555
C8A C7A 1_555 1_555
C9A C8A 1_555 1_555
H6A C9A 1_555 1_555
C10A C9A 1_555 1_555
H7A C10A 1_555 1_555
C11A C10A 1_555 1_555
H8A C11A 1_555 1_555
C12A C11A 1_555 1_555
H9A C12A 1_555 1_555
C13A C8A 1_555 1_555
H10A C13A 1_555 1_555
N1A C6A 1_555 1_555
H11A N1A 1_555 1_555
N2A C2A 1_555 1_555
O1A C6A 1_555 1_555
Hg1A N2A 1_555 1_555
Cl1A Hg1A 1_555 1_555
Cl2A Hg1A 1_555 1_555
O1_2 Hg1A 1_555 1_555
O1A_2 Hg1 1_555 1_555
Hg1_2 Cl1A 1_555 1_555
Hg1_3 O1A 1_555 1_555
Hg1A_2 O1 1_555 1_555
Hg1A_3 Cl1 1_555 1_555
Cl1_2 Hg1A 1_555 1_555
Cl1A_2 Hg1 1_555 1_555
C3 N2 1_555 1_555
C4 C5 1_555 1_555
C7 N1 1_555 1_555
C12 C13 1_555 1_555
C3A N2A 1_555 1_555
C4A C5A 1_555 1_555
C7A N1A 1_555 1_555
C12A C13A 1_555 1_555
Hg1_2 Cl1_2 1_555 1_555
Hg1A_3 Cl1A_2 1_555 1_555

#END
