
#######################################################################
#
#                 Cambridge Crystallographic Data Centre
#                                CCDC 
#
#######################################################################
#
# If this CIF has been generated from an entry in the Cambridge 
# Structural Database, then it will include bibliographic, chemical, 
# crystal, experimental, refinement or atomic coordinate data resulting 
# from the CCDC's data processing and validation procedures.
#
#######################################################################

data_NEWSUF
_symmetry_cell_setting           triclinic
_symmetry_space_group_name_H-M   'P -1'
_symmetry_Int_Tables_number      2
_space_group_name_Hall           '-P 1'
loop_
_symmetry_equiv_pos_site_id
_symmetry_equiv_pos_as_xyz
1 x,y,z
2 -x,-y,-z
_cell_length_a                   17.016(3)
_cell_length_b                   17.225(3)
_cell_length_c                   20.321(6)
_cell_angle_alpha                114.113(11)
_cell_angle_beta                 97.361(10)
_cell_angle_gamma                111.001(7)
_cell_volume                     4804.64
loop_
_atom_site_label
_atom_site_type_symbol
_atom_site_fract_x
_atom_site_fract_y
_atom_site_fract_z
Cl2 Cl 0.7006(4) -0.3447(4) 0.9014(4)
Cl3 Cl 0.3903(6) -0.0703(5) 0.5982(5)
Cl4 Cl 0.9229(9) -0.3830(8) 0.5058(8)
O1 O 0.3454(7) 0.0834(8) 0.4711(5)
O2 O 0.7237(9) 0.0789(8) 1.0922(6)
O3 O 0.5662(7) -0.1765(8) 0.9764(6)
O4 O 0.6030(7) -0.0492(9) 1.1299(6)
O5 O 0.8600(7) -0.0108(10) 1.0812(6)
O6 O 0.2870(8) -0.1758(8) 0.3873(6)
O7 O 0.3542(7) -0.0515(8) 0.3319(6)
O8 O 0.0958(7) -0.1997(10) 0.3651(7)
O9 O 0.7315(8) -0.1993(8) 0.9773(6)
O10 O 0.1314(8) -0.0098(9) 0.4109(7)
Dy1 Dy 0.70619(4) -0.07222(5) 1.06274(3)
Dy2 Dy 0.23332(4) -0.07150(5) 0.38121(3)
C1 C 0.7458(9) -0.0631(9) 0.9016(7)
C2 C 0.7774(10) -0.1273(9) 0.7909(7)
H1 H 0.8019 -0.1738 0.7788
C3 C 0.8525(10) -0.0247(10) 0.8432(7)
H2 H 0.9113 -0.0225 0.8583
C4 C 0.7820(9) -0.0427(10) 0.7256(7)
C5 C 0.8622(9) 0.1031(8) 0.9705(7)
H3 H 0.9265 0.1240 0.9845
H4 H 0.8440 0.1028 1.0143
C6 C 0.9144(7) 0.1130(6) 0.8139(6)
H5 H 0.9235 0.1111 0.7667
H6 H 0.9711 0.1288 0.8474
C7 C 0.7849(9) 0.2019(10) 0.9822(7)
C8 C 0.9039(8) 0.2341(9) 0.9338(8)
H7 H 0.9673 0.2655 0.9646
C9 C 0.8642(9) 0.3043(9) 0.9430(6)
H8 H 0.9105 0.3707 0.9779
C10 C 0.8482(9) 0.2170(10) 0.8136(7)
C11 C 0.7570(9) 0.3411(10) 1.0146(7)
H9 H 0.7293 0.3179 1.0466
H10 H 0.8027 0.4073 1.0476
C12 C 0.8146(9) 0.3499(10) 0.8463(8)
H11 H 0.8177 0.3347 0.7949
H12 H 0.8598 0.4158 0.8812
C13 C 0.6028(9) 0.3180(10) 0.9616(7)
C14 C 0.7083(10) 0.3916(10) 0.9178(7)
H13 H 0.7568 0.4570 0.9520
C15 C 0.6218(10) 0.3934(11) 0.8892(8)
H14 H 0.6301 0.4594 0.9066
C16 C 0.6625(11) 0.3189(12) 0.7863(9)
C17 C 0.4847(9) 0.3532(11) 0.9283(8)
H15 H 0.4956 0.4191 0.9445
H16 H 0.4696 0.3391 0.9684
C18 C 0.5325(9) 0.3430(10) 0.7578(7)
H17 H 0.5426 0.3247 0.7084
H18 H 0.5406 0.4087 0.7793
C19 C 0.3349(10) 0.2191(10) 0.8557(7)
C20 C 0.3916(8) 0.3074(9) 0.7968(6)
H19 H 0.4020 0.3739 0.8136
C21 C 0.2937(9) 0.2337(10) 0.7474(7)
H20 H 0.2566 0.2646 0.7406
C22 C 0.3835(8) 0.2039(10) 0.6772(7)
C23 C 0.1812(7) 0.1144(8) 0.7734(7)
H21 H 0.1703 0.1134 0.8193
H22 H 0.1371 0.1283 0.7510
C24 C 0.2252(9) 0.1036(10) 0.6103(7)
H23 H 0.1770 0.1221 0.6105
H24 H 0.2440 0.1030 0.5666
C25 C 0.1822(9) -0.0424(10) 0.7415(7)
C26 C 0.1286(9) -0.0225(9) 0.6397(7)
H25 H 0.0728 -0.0183 0.6268
C27 C 0.1130(9) -0.1289(9) 0.6092(7)
H26 H 0.0491 -0.1750 0.5843
C28 C 0.2020(9) -0.0610(10) 0.5507(7)
C29 C 0.1323(9) -0.2131(9) 0.6812(7)
H27 H 0.1342 -0.1990 0.7334
H28 H 0.0721 -0.2620 0.6474
C30 C 0.1522(12) -0.2344(11) 0.5033(8)
H29 H 0.1697 -0.2315 0.4599
H30 H 0.0897 -0.2817 0.4840
C31 C 0.2510(12) -0.2593(12) 0.7077(9)
C32 C 0.1794(10) -0.3131(10) 0.5806(7)
H31 H 0.1174 -0.3643 0.5539
C33 C 0.2458(10) -0.3536(11) 0.5859(8)
H32 H 0.2165 -0.4242 0.5575
C34 C 0.2785(10) -0.2669(11) 0.5209(8)
C35 C 0.3318(10) -0.3500(13) 0.7002(9)
H33 H 0.3030 -0.4199 0.6711
H34 H 0.3308 -0.3310 0.7524
C36 C 0.3674(9) -0.3499(10) 0.5267(7)
H35 H 0.3840 -0.3332 0.4881
H36 H 0.3359 -0.4197 0.5020
C37 C 0.4929(11) -0.2656(12) 0.7695(8)
C38 C 0.4518(12) -0.3545(12) 0.6368(9)
H37 H 0.4215 -0.4252 0.6096
C39 C 0.5553(10) -0.3112(10) 0.6741(7)
H38 H 0.5738 -0.3625 0.6612
C40 C 0.5281(9) -0.2571(10) 0.5902(7)
C41 C 0.6483(9) -0.2341(10) 0.8136(7)
H39 H 0.6335 -0.2308 0.8594
H40 H 0.6693 -0.2826 0.7952
C42 C 0.6870(9) -0.2134(9) 0.6528(7)
H41 H 0.7072 -0.2612 0.6490
H42 H 0.6963 -0.2001 0.6111
N1 N 0.7184(8) -0.1428(9) 0.8329(6)
N2 N 0.8192(8) 0.0092(8) 0.9092(6)
N3 N 0.7412(7) -0.1275(8) 0.7236(5)
N4 N 0.8486(6) 0.0199(6) 0.7965(5)
N5 N 0.8450(7) 0.1725(7) 0.9566(6)
N6 N 0.7988(9) 0.2809(9) 0.9742(8)
N7 N 0.8877(7) 0.1867(7) 0.8507(5)
N8 N 0.8356(7) 0.2906(9) 0.8660(6)
N9 N 0.6881(7) 0.3372(8) 0.9579(6)
N10 N 0.5652(7) 0.3475(8) 0.9227(5)
N11 N 0.7266(7) 0.3446(8) 0.8474(5)
N12 N 0.5949(7) 0.3385(8) 0.8068(5)
N13 N 0.4089(8) 0.2909(9) 0.8598(6)
N14 N 0.2694(6) 0.1897(8) 0.7947(6)
N15 N 0.4404(8) 0.2789(9) 0.7467(6)
N16 N 0.3006(8) 0.1775(9) 0.6804(6)
N17 N 0.1697(7) 0.0215(8) 0.7198(5)
N18 N 0.1496(8) -0.1276(8) 0.6762(6)
N19 N 0.1897(8) 0.0078(8) 0.5988(6)
N20 N 0.1619(8) -0.1412(9) 0.5570(6)
N21 N 0.1934(8) -0.2511(9) 0.6616(6)
N22 N 0.2843(8) -0.3157(9) 0.6678(6)
N23 N 0.2076(8) -0.2641(10) 0.5397(6)
N24 N 0.3079(8) -0.3129(9) 0.5519(6)
N25 N 0.4243(7) -0.3132(9) 0.7011(6)
N26 N 0.5681(9) -0.2624(9) 0.7549(6)
N27 N 0.4502(9) -0.3158(10) 0.5871(7)
N28 N 0.5932(7) -0.2534(8) 0.6424(5)
O11 O 0.7077(7) -0.0561(7) 0.9521(5)
O12 O 0.7327(7) 0.1680(8) 1.0076(6)
O13 O 0.5711(7) 0.2846(8) 1.0011(7)
O14 O 0.3288(7) 0.1907(7) 0.9026(5)
O15 O 0.2124(6) -0.0224(6) 0.8048(4)
O16 O 0.2662(8) -0.2221(9) 0.7767(6)
O17 O 0.4837(8) -0.2327(9) 0.8315(6)
O18 O 0.7686(6) -0.0245(7) 0.6764(5)
O19 O 0.8330(7) 0.1916(7) 0.7479(5)
O20 O 0.6635(7) 0.2822(9) 0.7193(6)
O21 O 0.4092(7) 0.1668(8) 0.6217(5)
O22 O 0.2449(6) -0.0550(7) 0.5051(5)
O23 O 0.3172(8) -0.2323(10) 0.4869(6)
O24 O 0.5438(8) -0.2212(9) 0.5498(6)
Dy1A Dy 0.29381(4) 0.07222(5) 0.93726(3)
Dy2A Dy 0.76668(4) 0.07150(5) 0.61879(3)
O14A O 0.6712(7) -0.1907(7) 1.0974(5)
O15A O 0.7876(6) 0.0224(6) 1.1952(4)
O18A O 0.2314(6) 0.0245(7) 0.3236(5)
O19A O 0.1670(7) -0.1916(7) 0.2521(5)
Cl5 Cl 0.9361(3) -0.4329(3) 1.0695(3)
Cl6 Cl 0.6952(3) -0.4415(4) 1.0851(3)
Cl7 Cl 0.8726(3) -0.2446(4) 1.0525(3)
Cl8 Cl 0.9198(3) -0.2455(4) 1.2548(3)
Cd1 Cd 0.85527(9) -0.34240(9) 1.11539(8)
Cl1 Cl 0.5486(4) -0.0731(4) 0.8446(3)
loop_
_geom_bond_atom_site_label_1
_geom_bond_atom_site_label_2
_geom_bond_site_symmetry_1
_geom_bond_site_symmetry_2
O1 Dy2 1_555 1_555
O2 Dy1 1_555 1_555
O3 Dy1 1_555 1_555
O4 Dy1 1_555 1_555
O5 Dy1 1_555 1_555
O6 Dy2 1_555 1_555
O7 Dy2 1_555 1_555
O8 Dy2 1_555 1_555
O9 Dy1 1_555 1_555
O10 Dy2 1_555 1_555
Dy1 O11 1_555 1_555
Dy2 O22 1_555 1_555
C1 N1 1_555 1_555
C2 H1 1_555 1_555
C3 C2 1_555 1_555
H2 C3 1_555 1_555
C4 N3 1_555 1_555
C5 H3 1_555 1_555
H4 C5 1_555 1_555
C6 H5 1_555 1_555
H6 C6 1_555 1_555
C7 N5 1_555 1_555
C8 H7 1_555 1_555
C9 C8 1_555 1_555
H8 C9 1_555 1_555
C10 N7 1_555 1_555
C11 H9 1_555 1_555
H10 C11 1_555 1_555
C12 H11 1_555 1_555
H12 C12 1_555 1_555
C13 N9 1_555 1_555
C14 H13 1_555 1_555
C15 C14 1_555 1_555
H14 C15 1_555 1_555
C16 N11 1_555 1_555
C17 H15 1_555 1_555
H16 C17 1_555 1_555
C18 H17 1_555 1_555
H18 C18 1_555 1_555
C19 N13 1_555 1_555
C20 H19 1_555 1_555
C21 C20 1_555 1_555
H20 C21 1_555 1_555
C22 N15 1_555 1_555
C23 H21 1_555 1_555
H22 C23 1_555 1_555
C24 H23 1_555 1_555
H24 C24 1_555 1_555
C25 N17 1_555 1_555
C26 H25 1_555 1_555
C27 C26 1_555 1_555
H26 C27 1_555 1_555
C28 N19 1_555 1_555
C29 H27 1_555 1_555
H28 C29 1_555 1_555
C30 H29 1_555 1_555
H30 C30 1_555 1_555
C31 N21 1_555 1_555
C32 H31 1_555 1_555
C33 C32 1_555 1_555
H32 C33 1_555 1_555
C34 N23 1_555 1_555
C35 H33 1_555 1_555
H34 C35 1_555 1_555
C36 H35 1_555 1_555
H36 C36 1_555 1_555
C37 N25 1_555 1_555
C38 H37 1_555 1_555
C39 C38 1_555 1_555
H38 C39 1_555 1_555
C40 N27 1_555 1_555
C41 H39 1_555 1_555
H40 C41 1_555 1_555
C42 H41 1_555 1_555
H42 C42 1_555 1_555
N1 C2 1_555 1_555
N2 C1 1_555 1_555
N3 C2 1_555 1_555
N4 C3 1_555 1_555
N5 C5 1_555 1_555
N6 C7 1_555 1_555
N7 C6 1_555 1_555
N8 C9 1_555 1_555
N9 C11 1_555 1_555
N10 C13 1_555 1_555
N11 C12 1_555 1_555
N12 C15 1_555 1_555
N13 C17 1_555 1_555
N14 C19 1_555 1_555
N15 C18 1_555 1_555
N16 C21 1_555 1_555
N17 C23 1_555 1_555
N18 C25 1_555 1_555
N19 C24 1_555 1_555
N20 C27 1_555 1_555
N21 C29 1_555 1_555
N22 C31 1_555 1_555
N23 C30 1_555 1_555
N24 C33 1_555 1_555
N25 C35 1_555 1_555
N26 C37 1_555 1_555
N27 C36 1_555 1_555
N28 C39 1_555 1_555
O11 C1 1_555 1_555
O12 C7 1_555 1_555
O13 C13 1_555 1_555
O14 C19 1_555 1_555
O15 C25 1_555 1_555
O16 C31 1_555 1_555
O17 C37 1_555 1_555
O18 C4 1_555 1_555
O19 C10 1_555 1_555
O20 C16 1_555 1_555
O21 C22 1_555 1_555
O22 C28 1_555 1_555
O23 C34 1_555 1_555
O24 C40 1_555 1_555
Cl5 Cd1 1_555 1_555
Cl6 Cd1 1_555 1_555
Cl7 Cd1 1_555 1_555
Cl8 Cd1 1_555 1_555
Dy1A O14 1_555 1_555
Dy2A O18 1_555 1_555
O14A Dy1 1_555 1_555
O15A Dy1 1_555 1_555
O18A Dy2 1_555 1_555
O19A Dy2 1_555 1_555
C3 N2 1_555 1_555
C4 N4 1_555 1_555
C5 N2 1_555 1_555
C6 N4 1_555 1_555
C8 N5 1_555 1_555
C8 N7 1_555 1_555
C9 N6 1_555 1_555
C10 N8 1_555 1_555
C11 N6 1_555 1_555
C12 N8 1_555 1_555
C14 N9 1_555 1_555
C14 N11 1_555 1_555
C15 N10 1_555 1_555
C16 N12 1_555 1_555
C17 N10 1_555 1_555
C18 N12 1_555 1_555
C20 N13 1_555 1_555
C20 N15 1_555 1_555
C21 N14 1_555 1_555
C22 N16 1_555 1_555
C23 N14 1_555 1_555
C24 N16 1_555 1_555
C26 N17 1_555 1_555
C26 N19 1_555 1_555
C27 N18 1_555 1_555
C28 N20 1_555 1_555
C29 N18 1_555 1_555
C30 N20 1_555 1_555
C32 N21 1_555 1_555
C32 N23 1_555 1_555
C33 N22 1_555 1_555
C34 N24 1_555 1_555
C35 N22 1_555 1_555
C36 N24 1_555 1_555
C38 N25 1_555 1_555
C38 N27 1_555 1_555
C39 N26 1_555 1_555
C40 N28 1_555 1_555
C41 N1 1_555 1_555
C41 N26 1_555 1_555
C42 N3 1_555 1_555
C42 N28 1_555 1_555
O15 Dy1A 1_555 1_555
O19 Dy2A 1_555 1_555

#END
