
#######################################################################
#
#                 Cambridge Crystallographic Data Centre
#                                CCDC 
#
#######################################################################
#
# If this CIF has been generated from an entry in the Cambridge 
# Structural Database, then it will include bibliographic, chemical, 
# crystal, experimental, refinement or atomic coordinate data resulting 
# from the CCDC's data processing and validation procedures.
#
#######################################################################

data_NEWSAL
_symmetry_cell_setting           triclinic
_symmetry_space_group_name_H-M   'P -1'
_symmetry_Int_Tables_number      2
_space_group_name_Hall           '-P 1'
loop_
_symmetry_equiv_pos_site_id
_symmetry_equiv_pos_as_xyz
1 x,y,z
2 -x,-y,-z
_cell_length_a                   17.025(2)
_cell_length_b                   17.226(2)
_cell_length_c                   20.206(4)
_cell_angle_alpha                113.958(6)
_cell_angle_beta                 97.300(6)
_cell_angle_gamma                111.598(4)
_cell_volume                     4760.98
loop_
_atom_site_label
_atom_site_type_symbol
_atom_site_fract_x
_atom_site_fract_y
_atom_site_fract_z
Cl2 Cl 0.0000 0.5000 0.0000
Cl3 Cl 0.4371(7) 0.5685(7) 0.1513(5)
Cl5 Cl 0.6249(9) 0.5803(9) 0.4061(8)
Cl6 Cl 0.0736(4) 0.8846(4) 0.4961(4)
Cl7 Cl 0.0968(4) 0.6311(4) 0.3681(4)
O1 O 0.2769(5) 0.4256(4) -0.0921(3)
O2 O 0.2703(4) 0.6995(4) 0.0205(3)
O3 O 0.4343(4) 0.6754(5) 0.0226(3)
O4 O 0.3456(4) 0.5772(5) 0.4691(3)
O5 O 0.1432(4) 0.5155(5) -0.0801(3)
O6 O 0.3951(4) 0.5530(5) -0.1281(4)
O7 O 0.0993(4) 0.3028(5) 0.3647(4)
O8 O 0.2833(5) 0.3256(5) 0.3855(4)
O9 O 0.3515(4) 0.4485(5) 0.3317(4)
O10 O 0.1364(5) 0.4920(6) 0.4135(4)
Yb1 Yb 0.29411(2) 0.57377(2) -0.063228(18)
Yb2 Yb 0.23334(2) 0.42881(3) 0.380500(18)
C1 C 0.2571(5) 0.5645(6) 0.0982(4)
C2 C 0.1506(5) 0.5263(6) 0.1566(4)
H1 H 0.0916 0.5233 0.1406
C3 C 0.2241(5) 0.6303(6) 0.2101(4)
H2 H 0.1993 0.6763 0.2222
C4 C 0.2179(5) 0.5425(6) 0.2738(4)
C5 C 0.3555(5) 0.7361(6) 0.1883(5)
H3 H 0.3347 0.7847 0.2072
H4 H 0.3712 0.7346 0.1429
C6 C 0.3188(5) 0.7144(6) 0.3507(4)
H5 H 0.2996 0.7632 0.3565
H6 H 0.3109 0.7001 0.3923
C7 C 0.5105(5) 0.7639(6) 0.2294(5)
C8 C 0.4504(5) 0.8145(6) 0.3271(4)
H7 H 0.4339 0.8672 0.3416
C9 C 0.5531(5) 0.8534(6) 0.3629(4)
H8 H 0.5852 0.9243 0.3901
C10 C 0.4764(6) 0.7597(6) 0.4133(4)
C11 C 0.6721(5) 0.8498(7) 0.3005(5)
H9 H 0.6735 0.8314 0.2481
H10 H 0.7013 0.9200 0.3299
C12 C 0.6376(6) 0.8521(7) 0.4755(5)
H11 H 0.6686 0.9222 0.5007
H12 H 0.6208 0.8343 0.5138
C13 C 0.7547(6) 0.7592(6) 0.2927(5)
C14 C 0.7608(5) 0.8551(6) 0.4146(4)
H13 H 0.7906 0.9260 0.4416
C15 C 0.8269(6) 0.8169(6) 0.4207(4)
H14 H 0.8893 0.8687 0.4469
C16 C 0.7228(6) 0.7679(6) 0.4796(5)
C17 C 0.8710(6) 0.7120(6) 0.3168(5)
H15 H 0.8657 0.6961 0.2635
H16 H 0.9329 0.7601 0.3485
C18 C 0.8526(6) 0.7357(6) 0.4973(4)
H17 H 0.9157 0.7823 0.5146
H18 H 0.8374 0.7358 0.5425
C19 C 0.8203(5) 0.5406(6) 0.2600(4)
C20 C 0.8896(5) 0.6288(5) 0.3920(4)
H19 H 0.9542 0.6741 0.4164
C21 C 0.8707(5) 0.5218(6) 0.3620(4)
H20 H 0.9257 0.5162 0.3752
C22 C 0.7979(5) 0.5615(6) 0.4513(4)
C23 C 0.8192(4) 0.3859(4) 0.2277(4)
H21 H 0.8316 0.3864 0.1818
H22 H 0.8627 0.3725 0.2517
C24 C 0.7734(5) 0.3949(6) 0.3909(4)
H23 H 0.8212 0.3762 0.3897
H24 H 0.7555 0.3956 0.4353
C25 C 0.6622(5) 0.2794(5) 0.1434(4)
C26 C 0.7029(5) 0.2642(6) 0.2510(5)
H25 H 0.7388 0.2322 0.2574
C27 C 0.6039(5) 0.1907(6) 0.2017(4)
H26 H 0.5931 0.1240 0.1846
C28 C 0.6116(5) 0.2948(6) 0.3225(4)
C29 C 0.5123(5) 0.1430(6) 0.0688(4)
H27 H 0.4987 0.0767 0.0543
H28 H 0.5267 0.1542 0.0269
C30 C 0.4642(5) 0.1545(6) 0.2425(5)
H29 H 0.4560 0.0888 0.2214
H30 H 0.4547 0.1732 0.2923
C31 C 0.3942(5) 0.1835(6) 0.0361(5)
C32 C 0.3725(5) 0.1045(6) 0.1083(4)
H31 H 0.3636 0.0381 0.0888
C33 C 0.2874(5) 0.1072(5) 0.0814(4)
H32 H 0.2377 0.0420 0.0465
C34 C 0.3343(6) 0.1799(6) 0.2144(5)
C35 C 0.2438(5) 0.1620(6) -0.0114(4)
H33 H 0.2720 0.1840 -0.0441
H34 H 0.1966 0.0959 -0.0445
C36 C 0.1838(5) 0.1481(6) 0.1523(5)
H35 H 0.1792 0.1604 0.2031
H36 H 0.1380 0.0826 0.1151
C37 C 0.2139(5) 0.3005(6) 0.0169(4)
C38 C 0.1346(5) 0.1953(5) 0.0564(4)
H37 H 0.0882 0.1281 0.0221
C39 C 0.0956(5) 0.2668(6) 0.0656(5)
H38 H 0.0321 0.2341 0.0339
C40 C 0.1497(5) 0.2838(6) 0.1857(5)
C41 C 0.1370(6) 0.3980(6) 0.0288(4)
H39 H 0.1549 0.3993 -0.0151
H40 H 0.0726 0.3772 0.0152
C42 C 0.0844(4) 0.3878(4) 0.1852(5)
H41 H 0.0278 0.3731 0.1520
H42 H 0.0753 0.3893 0.2325
N1 N 0.1818(5) 0.4922(5) 0.0918(4)
N2 N 0.2831(5) 0.6440(5) 0.1659(4)
N3 N 0.1517(4) 0.4813(4) 0.2036(4)
N4 N 0.2615(4) 0.6283(5) 0.2785(3)
N5 N 0.4346(4) 0.7648(5) 0.2465(4)
N6 N 0.5795(4) 0.8133(5) 0.2983(4)
N7 N 0.4108(5) 0.7531(5) 0.3587(4)
N8 N 0.5561(4) 0.8167(5) 0.4146(4)
N9 N 0.7220(5) 0.8156(5) 0.3338(4)
N10 N 0.8113(5) 0.7532(5) 0.3407(4)
N11 N 0.6975(5) 0.8168(5) 0.4500(4)
N12 N 0.7986(5) 0.7655(5) 0.4625(4)
N13 N 0.8518(4) 0.6275(5) 0.3232(3)
N14 N 0.8308(4) 0.4796(4) 0.2806(3)
N15 N 0.8409(4) 0.6422(5) 0.4464(4)
N16 N 0.8085(4) 0.4913(5) 0.4012(4)
N17 N 0.7302(3) 0.3098(4) 0.2052(3)
N18 N 0.5895(4) 0.2075(5) 0.1377(4)
N19 N 0.6975(4) 0.3231(5) 0.3218(4)
N20 N 0.5555(4) 0.2183(5) 0.2533(4)
N21 N 0.4334(4) 0.1557(5) 0.0786(4)
N22 N 0.3106(4) 0.1629(5) 0.0424(4)
N23 N 0.3994(4) 0.1573(5) 0.1924(4)
N24 N 0.2698(4) 0.1547(5) 0.1517(4)
N25 N 0.2036(5) 0.2214(5) 0.0252(4)
N26 N 0.1536(5) 0.3281(5) 0.0414(4)
N27 N 0.1657(5) 0.2135(5) 0.1344(4)
N28 N 0.1084(4) 0.3125(4) 0.1472(4)
O11 O 0.2921(4) 0.5578(4) 0.0480(3)
O12 O 0.5177(4) 0.7291(5) 0.1667(3)
O13 O 0.7355(5) 0.7200(5) 0.2222(3)
O14 O 0.7884(4) 0.5209(4) 0.1942(3)
O15 O 0.6695(4) 0.3100(4) 0.0969(3)
O16 O 0.4248(4) 0.2179(5) -0.0019(4)
O17 O 0.2666(4) 0.3349(5) -0.0103(4)
O18 O 0.2340(4) 0.5232(4) 0.3231(3)
O19 O 0.4599(4) 0.7224(5) 0.4520(4)
O20 O 0.6864(4) 0.7355(6) 0.5160(4)
O21 O 0.7555(4) 0.5556(4) 0.4960(3)
O22 O 0.5884(4) 0.3294(5) 0.3773(3)
O23 O 0.3337(4) 0.2149(5) 0.2811(3)
O24 O 0.1669(4) 0.3101(4) 0.2535(3)
Yb1A Yb 0.70589(2) 0.42623(2) 0.063228(18)
Yb2A Yb 0.76666(2) 0.57119(3) 0.619500(18)
O14A O 0.2116(4) 0.4791(4) -0.1942(3)
O15A O 0.3305(4) 0.6900(4) -0.0969(3)
O21A O 0.2445(4) 0.4444(4) 0.5040(3)
Cl8 Cl 0.93742(17) 0.07079(18) 0.07220(18)
Cl9 Cl 0.69391(17) 0.0563(2) 0.08442(16)
Cl10 Cl 0.91793(17) 0.2552(2) 0.25428(15)
Cl11 Cl 0.87198(17) 0.2542(2) 0.04920(17)
Cd1 Cd 0.85294(5) 0.15847(5) 0.11453(4)
Cl1 Cl 0.5738(2) 0.0891(2) -0.10867(18)
Cl4? Cl 0.3733(7) 0.4922(10) 0.2045(6)
loop_
_geom_bond_atom_site_label_1
_geom_bond_atom_site_label_2
_geom_bond_site_symmetry_1
_geom_bond_site_symmetry_2
O1 Yb1 1_555 1_555
O2 Yb1 1_555 1_555
O3 Yb1 1_555 1_555
O4 Yb2 1_555 1_555
O5 Yb1 1_555 1_555
O6 Yb1 1_555 1_555
O7 Yb2 1_555 1_555
O8 Yb2 1_555 1_555
O9 Yb2 1_555 1_555
O10 Yb2 1_555 1_555
Yb1 O11 1_555 1_555
Yb2 O18 1_555 1_555
C1 N1 1_555 1_555
C2 H1 1_555 1_555
C3 C2 1_555 1_555
H2 C3 1_555 1_555
C4 N3 1_555 1_555
C5 H3 1_555 1_555
H4 C5 1_555 1_555
C6 H5 1_555 1_555
H6 C6 1_555 1_555
C7 N5 1_555 1_555
C8 H7 1_555 1_555
C9 C8 1_555 1_555
H8 C9 1_555 1_555
C10 N7 1_555 1_555
C11 H9 1_555 1_555
H10 C11 1_555 1_555
C12 H11 1_555 1_555
H12 C12 1_555 1_555
C13 N9 1_555 1_555
C14 H13 1_555 1_555
C15 C14 1_555 1_555
H14 C15 1_555 1_555
C16 N11 1_555 1_555
C17 H15 1_555 1_555
H16 C17 1_555 1_555
C18 H17 1_555 1_555
H18 C18 1_555 1_555
C19 N13 1_555 1_555
C20 H19 1_555 1_555
C21 C20 1_555 1_555
H20 C21 1_555 1_555
C22 N15 1_555 1_555
C23 H21 1_555 1_555
H22 C23 1_555 1_555
C24 H23 1_555 1_555
H24 C24 1_555 1_555
C25 N17 1_555 1_555
C26 H25 1_555 1_555
C27 C26 1_555 1_555
H26 C27 1_555 1_555
C28 N19 1_555 1_555
C29 H27 1_555 1_555
H28 C29 1_555 1_555
C30 H29 1_555 1_555
H30 C30 1_555 1_555
C31 N21 1_555 1_555
C32 H31 1_555 1_555
C33 C32 1_555 1_555
H32 C33 1_555 1_555
C34 N23 1_555 1_555
C35 H33 1_555 1_555
H34 C35 1_555 1_555
C36 H35 1_555 1_555
H36 C36 1_555 1_555
C37 N25 1_555 1_555
C38 H37 1_555 1_555
C39 C38 1_555 1_555
H38 C39 1_555 1_555
C40 N27 1_555 1_555
C41 H39 1_555 1_555
H40 C41 1_555 1_555
C42 H41 1_555 1_555
H42 C42 1_555 1_555
N1 C2 1_555 1_555
N2 C1 1_555 1_555
N3 C2 1_555 1_555
N4 C3 1_555 1_555
N5 C5 1_555 1_555
N6 C7 1_555 1_555
N7 C6 1_555 1_555
N8 C9 1_555 1_555
N9 C11 1_555 1_555
N10 C13 1_555 1_555
N11 C12 1_555 1_555
N12 C15 1_555 1_555
N13 C17 1_555 1_555
N14 C19 1_555 1_555
N15 C18 1_555 1_555
N16 C21 1_555 1_555
N17 C23 1_555 1_555
N18 C25 1_555 1_555
N19 C24 1_555 1_555
N20 C27 1_555 1_555
N21 C29 1_555 1_555
N22 C31 1_555 1_555
N23 C30 1_555 1_555
N24 C33 1_555 1_555
N25 C35 1_555 1_555
N26 C37 1_555 1_555
N27 C36 1_555 1_555
N28 C39 1_555 1_555
O11 C1 1_555 1_555
O12 C7 1_555 1_555
O13 C13 1_555 1_555
O14 C19 1_555 1_555
O15 C25 1_555 1_555
O16 C31 1_555 1_555
O17 C37 1_555 1_555
O18 C4 1_555 1_555
O19 C10 1_555 1_555
O20 C16 1_555 1_555
O21 C22 1_555 1_555
O22 C28 1_555 1_555
O23 C34 1_555 1_555
O24 Yb2 1_555 1_555
Cl8 Cd1 1_555 1_555
Cl9 Cd1 1_555 1_555
Cl10 Cd1 1_555 1_555
Cl11 Cd1 1_555 1_555
Yb1A O14 1_555 1_555
Yb2A O21 1_555 1_555
O14A Yb1 1_555 1_555
O15A Yb1 1_555 1_555
O21A Yb2 1_555 1_555
C3 N2 1_555 1_555
C4 N4 1_555 1_555
C5 N2 1_555 1_555
C6 N4 1_555 1_555
C8 N5 1_555 1_555
C8 N7 1_555 1_555
C9 N6 1_555 1_555
C10 N8 1_555 1_555
C11 N6 1_555 1_555
C12 N8 1_555 1_555
C14 N9 1_555 1_555
C14 N11 1_555 1_555
C15 N10 1_555 1_555
C16 N12 1_555 1_555
C17 N10 1_555 1_555
C18 N12 1_555 1_555
C20 N13 1_555 1_555
C20 N15 1_555 1_555
C21 N14 1_555 1_555
C22 N16 1_555 1_555
C23 N14 1_555 1_555
C24 N16 1_555 1_555
C26 N17 1_555 1_555
C26 N19 1_555 1_555
C27 N18 1_555 1_555
C28 N20 1_555 1_555
C29 N18 1_555 1_555
C30 N20 1_555 1_555
C32 N21 1_555 1_555
C32 N23 1_555 1_555
C33 N22 1_555 1_555
C34 N24 1_555 1_555
C35 N22 1_555 1_555
C36 N24 1_555 1_555
C38 N25 1_555 1_555
C38 N27 1_555 1_555
C39 N26 1_555 1_555
C40 N28 1_555 1_555
C40 O24 1_555 1_555
C41 N1 1_555 1_555
C41 N26 1_555 1_555
C42 N3 1_555 1_555
C42 N28 1_555 1_555
O15 Yb1A 1_555 1_555

#END
