
#######################################################################
#
#                 Cambridge Crystallographic Data Centre
#                                CCDC 
#
#######################################################################
#
# If this CIF has been generated from an entry in the Cambridge 
# Structural Database, then it will include bibliographic, chemical, 
# crystal, experimental, refinement or atomic coordinate data resulting 
# from the CCDC's data processing and validation procedures.
#
#######################################################################

data_NEWSIT
_symmetry_cell_setting           triclinic
_symmetry_space_group_name_H-M   'P -1'
_symmetry_Int_Tables_number      2
_space_group_name_Hall           '-P 1'
loop_
_symmetry_equiv_pos_site_id
_symmetry_equiv_pos_as_xyz
1 x,y,z
2 -x,-y,-z
_cell_length_a                   17.015(3)
_cell_length_b                   17.254(3)
_cell_length_c                   20.272(3)
_cell_angle_alpha                97.792(6)
_cell_angle_beta                 113.668(6)
_cell_angle_gamma                111.371(5)
_cell_volume                     4790.81
loop_
_atom_site_label
_atom_site_type_symbol
_atom_site_fract_x
_atom_site_fract_y
_atom_site_fract_z
Ho1 Ho 1.14217(3) 0.36362(3) 0.43677(3)
Ho2 Ho 0.35260(3) 0.04860(3) 0.11920(3)
O1 O 0.3758(7) 0.1101(6) 0.0308(5)
O2 O 1.0884(6) 0.3490(6) 0.5251(5)
O3 O 0.2333(7) -0.0636(6) 0.1339(5)
O4 O 0.3994(7) -0.0616(6) 0.1118(6)
O5 O 1.2768(7) 0.4071(6) 0.4186(6)
O6 O 0.9739(6) 0.3179(6) 0.3731(5)
O7 O 0.5229(7) 0.1177(7) 0.1696(6)
O8 O 0.2219(7) 0.0807(7) 0.0894(6)
O9 O 1.1311(7) 0.4843(7) 0.4089(6)
C1 C 1.0194(8) 0.1344(8) 0.3562(7)
C2 C 0.9049(8) -0.0087(8) 0.3003(7)
H1 H 0.9112 -0.0580 0.3180
C3 C 0.9538(8) 0.0125(8) 0.2496(7)
H2 H 0.9836 -0.0257 0.2436
C4 C 0.7898(8) -0.0273(8) 0.1776(7)
C5 C 1.0940(8) 0.1577(8) 0.2729(6)
H3 H 1.1504 0.2058 0.3184
H4 H 1.1164 0.1206 0.2523
C6 C 0.8852(8) 0.0062(8) 0.1120(7)
H5 H 0.8231 -0.0373 0.0679
H6 H 0.9341 -0.0117 0.1132
C7 C 1.0599(8) 0.2791(7) 0.2401(7)
C8 C 1.0081(8) 0.1593(8) 0.1386(7)
H7 H 1.0485 0.1405 0.1232
C9 C 0.9972(8) 0.2356(8) 0.1083(7)
H8 H 1.0371 0.2554 0.0836
C10 C 0.8476(8) 0.1110(8) 0.0488(7)
C11 C 1.0502(8) 0.3933(8) 0.1812(7)
H9 H 1.0987 0.4308 0.2340
H10 H 1.0798 0.4094 0.1492
C12 C 0.8536(8) 0.2373(8) 0.0042(7)
H11 H 0.7930 0.1922 -0.0402
H12 H 0.8980 0.2664 -0.0141
C13 C 0.9628(8) 0.4679(8) 0.2066(7)
C14 C 0.9040(8) 0.3954(8) 0.0797(7)
H13 H 0.9383 0.4192 0.0519
C15 C 0.8437(8) 0.4399(8) 0.0840(7)
H14 H 0.8456 0.4829 0.0561
C16 C 0.7436(8) 0.2894(8) 0.0234(7)
C17 C 0.8712(8) 0.5504(8) 0.1993(7)
H15 H 0.8705 0.5908 0.1697
H16 H 0.9248 0.5841 0.2515
C18 C 0.6611(8) 0.3787(8) 0.0260(7)
H17 H 0.6685 0.4249 0.0023
H18 H 0.6056 0.3239 -0.0131
C19 C 0.7802(8) 0.5350(8) 0.2695(7)
C20 C 0.6868(8) 0.4915(8) 0.1372(7)
H19 H 0.6908 0.5348 0.1096
C21 C 0.6235(8) 0.4900(8) 0.1751(7)
H20 H 0.5925 0.5286 0.1623
C22 C 0.5629(8) 0.3482(8) 0.0890(7)
C23 C 0.6674(8) 0.5487(8) 0.3123(7)
H21 H 0.6262 0.5768 0.2928
H22 H 0.7281 0.5932 0.3571
C24 C 0.4682(8) 0.3659(8) 0.1516(7)
H23 H 0.4434 0.4091 0.1461
H24 H 0.4185 0.3103 0.1101
C25 C 0.6588(8) 0.4656(8) 0.4028(7)
C26 C 0.5126(8) 0.4183(8) 0.2897(7)
H25 H 0.4763 0.4528 0.2782
C27 C 0.4945(8) 0.3699(8) 0.3436(7)
H26 H 0.4484 0.3782 0.3582
C28 C 0.4431(8) 0.2703(7) 0.2256(6)
C29 C 0.6075(8) 0.3656(8) 0.4718(7)
H27 H 0.6687 0.4096 0.5165
H28 H 0.5558 0.3573 0.4845
C30 C 0.4218(7) 0.2433(6) 0.3396(6)
H29 H 0.3511 0.2158 0.3154
H30 H 0.4493 0.2883 0.3885
C31 C 0.6954(8) 0.2826(8) 0.4822(7)
C32 C 0.5305(8) 0.2005(8) 0.4333(6)
H31 H 0.5008 0.1997 0.4666
C33 C 0.5772(8) 0.1367(8) 0.4415(7)
H32 H 0.5655 0.1045 0.4762
C34 C 0.4647(8) 0.1021(7) 0.3162(6)
C35 C 0.7570(8) 0.1729(8) 0.5112(7)
H33 H 0.8176 0.2272 0.5440
H34 H 0.7429 0.1396 0.5440
C36 C 0.5288(8) -0.0038(8) 0.3476(7)
H35 H 0.4739 -0.0407 0.2966
H36 H 0.5191 -0.0333 0.3837
C37 C 0.8581(8) 0.1463(8) 0.4620(7)
C38 C 0.7075(8) 0.0257(8) 0.4185(7)
H37 H 0.6931 -0.0044 0.4534
C39 C 0.7651(8) -0.0044(8) 0.3913(7)
H38 H 0.7748 -0.0522 0.4096
C40 C 0.6209(8) -0.0337(8) 0.2852(7)
C41 C 0.9433(8) 0.0746(8) 0.4305(7)
H39 H 0.9472 0.0247 0.4471
H40 H 0.9984 0.1289 0.4709
C42 C 0.7213(8) -0.0882(8) 0.2564(7)
H41 H 0.6626 -0.1180 0.2064
H42 H 0.7330 -0.1335 0.2770
N1 N 0.9509(7) 0.0681(6) 0.3612(5)
N2 N 0.6194(7) 0.0029(6) 0.3484(6)
N3 N 1.0255(6) 0.1051(6) 0.2947(5)
N4 N 0.8049(7) -0.0339(6) 0.2473(5)
N5 N 0.8783(7) 0.0027(6) 0.1790(5)
N6 N 1.0530(7) 0.1937(6) 0.2178(5)
N7 N 1.0289(7) 0.3039(6) 0.1764(5)
N8 N 0.9092(7) 0.0894(6) 0.1002(5)
N9 N 0.8949(7) 0.1948(6) 0.0543(6)
N10 N 0.9726(7) 0.4133(6) 0.1597(6)
N11 N 0.8866(7) 0.4816(7) 0.1660(6)
N12 N 0.8343(7) 0.3019(6) 0.0393(6)
N13 N 0.7469(7) 0.3669(7) 0.0517(6)
N14 N 0.7811(7) 0.5141(6) 0.2007(6)
N15 N 0.6883(7) 0.5172(6) 0.2533(6)
N16 N 0.6411(7) 0.4025(6) 0.0863(6)
N17 N 0.5529(6) 0.3962(6) 0.1435(6)
N18 N 0.6188(7) 0.4765(6) 0.3350(6)
N19 N 0.5904(7) 0.4009(6) 0.4072(6)
N20 N 0.4839(7) 0.3522(6) 0.2228(6)
N21 N 0.4552(7) 0.2828(6) 0.2895(5)
N22 N 0.6113(7) 0.2865(6) 0.4575(6)
N23 N 0.6779(7) 0.1966(6) 0.4740(5)
N24 N 0.4564(6) 0.1763(5) 0.3507(5)
N25 N 0.5294(6) 0.0788(6) 0.3667(5)
N26 N 0.7707(7) 0.1206(6) 0.4577(5)
N27 N 0.8550(7) 0.0751(6) 0.4211(6)
N28 N 0.7070(7) -0.0329(6) 0.3080(5)
O10 O 1.0719(6) 0.2112(6) 0.4045(5)
O11 O 1.0931(5) 0.3275(5) 0.3051(4)
O12 O 1.0150(6) 0.4996(6) 0.2772(5)
O13 O 0.8499(7) 0.5609(6) 0.3323(5)
O14 O 0.7443(6) 0.5097(5) 0.4525(5)
O15 O 0.7763(6) 0.3432(6) 0.5085(5)
O16 O 0.9267(7) 0.2179(6) 0.5022(5)
O17 O 0.7126(6) -0.0468(6) 0.1234(5)
O18 O 0.7605(5) 0.0600(5) 0.0034(5)
O19 O 0.6693(7) 0.2173(7) -0.0132(6)
O20 O 0.5055(7) 0.2705(7) 0.0486(6)
O21 O 0.4082(5) 0.2006(5) 0.1773(4)
O22 O 0.4143(6) 0.0583(6) 0.2465(5)
O23 O 0.5547(7) -0.0655(6) 0.2196(5)
O24 O 1.2511(6) 0.3209(6) 0.5213(5)
Ho1A Ho 0.85783(3) 0.63638(3) 0.56323(3)
Ho2A Ho 0.64740(3) -0.04860(3) -0.11920(3)
O14A O 1.2557(6) 0.4903(5) 0.5475(5)
O18A O 0.2395(5) -0.0600(5) -0.0034(5)
Cl5 Cl 0.7855(4) 0.4209(4) 0.3486(3)
Cl6 Cl 0.7205(4) 0.1668(4) 0.0928(4)
Cl7 Cl 0.6912(6) 0.7455(5) 0.4009(6)
Cl8 Cl 0.5000 0.5000 0.5000
Cl9 Cl 0.2095(5) 0.3454(5) 0.0365(5)
Cd1 Cd 0.23869(8) 0.04337(8) 0.38528(7)
Cl1 Cl 0.3659(3) -0.0011(3) 0.4301(3)
Cl2 Cl 0.1644(3) 0.0007(3) 0.2459(2)
Cl3 Cl 0.3209(3) 0.2037(3) 0.4487(3)
Cl4 Cl 0.1098(3) -0.0277(3) 0.4157(2)
loop_
_geom_bond_atom_site_label_1
_geom_bond_atom_site_label_2
_geom_bond_site_symmetry_1
_geom_bond_site_symmetry_2
Cd1 Cl1 1_555 1_555
Cl2 Cd1 1_555 1_555
Cl3 Cd1 1_555 1_555
Cl4 Cd1 1_555 1_555
Ho1 O2 1_555 1_555
Ho2 O1 1_555 1_555
O3 Ho2 1_555 1_555
O4 Ho2 1_555 1_555
O5 Ho1 1_555 1_555
O6 Ho1 1_555 1_555
O7 Ho2 1_555 1_555
O8 Ho2 1_555 1_555
O9 Ho1 1_555 1_555
C1 N1 1_555 1_555
C2 H1 1_555 1_555
C3 C2 1_555 1_555
H2 C3 1_555 1_555
C4 N4 1_555 1_555
C5 H3 1_555 1_555
H4 C5 1_555 1_555
C6 H5 1_555 1_555
H6 C6 1_555 1_555
C7 N6 1_555 1_555
C8 H7 1_555 1_555
C9 C8 1_555 1_555
H8 C9 1_555 1_555
C10 N8 1_555 1_555
C11 H9 1_555 1_555
H10 C11 1_555 1_555
C12 H11 1_555 1_555
H12 C12 1_555 1_555
C13 N10 1_555 1_555
C14 H13 1_555 1_555
C15 C14 1_555 1_555
H14 C15 1_555 1_555
C16 N12 1_555 1_555
C17 H15 1_555 1_555
H16 C17 1_555 1_555
C18 H17 1_555 1_555
H18 C18 1_555 1_555
C19 N14 1_555 1_555
C20 H19 1_555 1_555
C21 C20 1_555 1_555
H20 C21 1_555 1_555
C22 N16 1_555 1_555
C23 H21 1_555 1_555
H22 C23 1_555 1_555
C24 H23 1_555 1_555
H24 C24 1_555 1_555
C25 N18 1_555 1_555
C26 H25 1_555 1_555
C27 C26 1_555 1_555
H26 C27 1_555 1_555
C28 N20 1_555 1_555
C29 H27 1_555 1_555
H28 C29 1_555 1_555
C30 H29 1_555 1_555
H30 C30 1_555 1_555
C31 N22 1_555 1_555
C32 H31 1_555 1_555
C33 C32 1_555 1_555
H32 C33 1_555 1_555
C34 N24 1_555 1_555
C35 H33 1_555 1_555
H34 C35 1_555 1_555
C36 H35 1_555 1_555
H36 C36 1_555 1_555
C37 N26 1_555 1_555
C38 H37 1_555 1_555
C39 C38 1_555 1_555
H38 C39 1_555 1_555
C40 N2 1_555 1_555
C41 H39 1_555 1_555
H40 C41 1_555 1_555
C42 H41 1_555 1_555
H42 C42 1_555 1_555
N1 C2 1_555 1_555
N2 C36 1_555 1_555
N3 C1 1_555 1_555
N4 C2 1_555 1_555
N5 C3 1_555 1_555
N6 C5 1_555 1_555
N7 C7 1_555 1_555
N8 C6 1_555 1_555
N9 C9 1_555 1_555
N10 C11 1_555 1_555
N11 C13 1_555 1_555
N12 C12 1_555 1_555
N13 C15 1_555 1_555
N14 C17 1_555 1_555
N15 C19 1_555 1_555
N16 C18 1_555 1_555
N17 C21 1_555 1_555
N18 C23 1_555 1_555
N19 C25 1_555 1_555
N20 C24 1_555 1_555
N21 C27 1_555 1_555
N22 C29 1_555 1_555
N23 C31 1_555 1_555
N24 C30 1_555 1_555
N25 C33 1_555 1_555
N26 C35 1_555 1_555
N27 C37 1_555 1_555
N28 C39 1_555 1_555
O10 Ho1 1_555 1_555
O11 Ho1 1_555 1_555
O12 C13 1_555 1_555
O13 C19 1_555 1_555
O14 C25 1_555 1_555
O15 C31 1_555 1_555
O16 C37 1_555 1_555
O17 C4 1_555 1_555
O18 C10 1_555 1_555
O19 C16 1_555 1_555
O20 C22 1_555 1_555
O21 Ho2 1_555 1_555
O22 Ho2 1_555 1_555
O23 C40 1_555 1_555
O24 Ho1 1_555 1_555
Ho1A O14 1_555 1_555
Ho2A O18 1_555 1_555
O14A Ho1 1_555 1_555
O18A Ho2 1_555 1_555
C1 O10 1_555 1_555
C3 N3 1_555 1_555
C4 N5 1_555 1_555
C5 N3 1_555 1_555
C6 N5 1_555 1_555
C7 O11 1_555 1_555
C8 N6 1_555 1_555
C8 N8 1_555 1_555
C9 N7 1_555 1_555
C10 N9 1_555 1_555
C11 N7 1_555 1_555
C12 N9 1_555 1_555
C14 N10 1_555 1_555
C14 N12 1_555 1_555
C15 N11 1_555 1_555
C16 N13 1_555 1_555
C17 N11 1_555 1_555
C18 N13 1_555 1_555
C20 N14 1_555 1_555
C20 N16 1_555 1_555
C21 N15 1_555 1_555
C22 N17 1_555 1_555
C23 N15 1_555 1_555
C24 N17 1_555 1_555
C26 N18 1_555 1_555
C26 N20 1_555 1_555
C27 N19 1_555 1_555
C28 N21 1_555 1_555
C28 O21 1_555 1_555
C29 N19 1_555 1_555
C30 N21 1_555 1_555
C32 N22 1_555 1_555
C32 N24 1_555 1_555
C33 N23 1_555 1_555
C34 N25 1_555 1_555
C34 O22 1_555 1_555
C35 N23 1_555 1_555
C36 N25 1_555 1_555
C38 N2 1_555 1_555
C38 N26 1_555 1_555
C39 N27 1_555 1_555
C40 N28 1_555 1_555
C41 N1 1_555 1_555
C41 N27 1_555 1_555
C42 N4 1_555 1_555
C42 N28 1_555 1_555

#END
