
#######################################################################
#
#                 Cambridge Crystallographic Data Centre
#                                CCDC 
#
#######################################################################
#
# If this CIF has been generated from an entry in the Cambridge 
# Structural Database, then it will include bibliographic, chemical, 
# crystal, experimental, refinement or atomic coordinate data resulting 
# from the CCDC's data processing and validation procedures.
#
#######################################################################

data_NEWTOA
_symmetry_cell_setting           triclinic
_symmetry_space_group_name_H-M   'P -1'
_symmetry_Int_Tables_number      2
_space_group_name_Hall           '-P 1'
loop_
_symmetry_equiv_pos_site_id
_symmetry_equiv_pos_as_xyz
1 x,y,z
2 -x,-y,-z
_cell_length_a                   17.026(4)
_cell_length_b                   17.314(4)
_cell_length_c                   20.278(7)
_cell_angle_alpha                97.602(5)
_cell_angle_beta                 112.930(5)
_cell_angle_gamma                111.329(4)
_cell_volume                     4859.7
loop_
_atom_site_label
_atom_site_type_symbol
_atom_site_fract_x
_atom_site_fract_y
_atom_site_fract_z
Cl2 Cl 0.7713(2) 0.7347(2) 0.3708(2)
Cl4 Cl 0.79109(12) 0.65750(12) 0.46554(11)
Cl5 Cl 0.83350(13) 0.99610(12) 0.25330(10)
Cl6 Cl 0.67876(13) 0.79684(13) 0.05166(11)
Cl7 Cl 0.63306(11) 1.00225(13) 0.07399(11)
Cl8 Cl 0.88731(11) 1.02880(13) 0.08386(9)
Cd1 Cd 0.76039(3) 0.95582(3) 0.11549(3)
Cl9 Cl 0.17957(14) 0.19716(14) 0.10791(11)
Cl10 Cl 0.5000 0.5000 0.0000
Sm1 Sm 0.144432(17) 0.366137(18) -0.061463(14)
Sm2 Sm 0.644362(18) 0.953747(19) 0.386615(15)
O1 O 0.2539(2) 0.3192(3) 0.0236(2)
O2 O 0.0888(3) 0.3461(3) 0.0282(2)
O3 O 0.2816(3) 0.4063(3) -0.0831(2)
O4 O 0.7678(3) 1.0637(3) 0.3666(2)
O5 O 0.6342(3) 0.8775(3) 0.4759(2)
O6 O 0.7771(3) 0.9176(3) 0.4135(3)
O7 O -0.0264(3) 0.3223(3) -0.1269(2)
O8 O 0.4702(3) 0.8819(3) 0.3319(3)
O9 O 0.6072(3) 1.0748(3) 0.3766(3)
O10 O 0.1347(3) 0.4906(3) -0.0938(2)
C1 C 0.2192(4) 0.4658(4) 0.2330(3)
C2 C 0.2516(4) 0.7071(4) 0.4787(3)
C3 C -0.0627(3) 0.7175(3) 0.2603(3)
C4 C -0.0219(3) 0.8639(4) 0.1421(3)
O11 O -0.0964(2) 0.6707(2) 0.1948(2)
O12 O -0.0706(3) 0.7894(2) 0.0969(2)
C5 C 0.3438(3) 0.5364(3) 0.1011(3)
C6 C 0.5066(3) 0.6335(3) 0.1604(3)
H1 H 0.5503 0.6213 0.1448
C7 C 0.4845(3) 0.5801(3) 0.2116(3)
H2 H 0.5217 0.5466 0.2235
C8 C 0.5528(3) 0.7294(3) 0.2747(3)
C9 C 0.3324(4) 0.4532(4) 0.1906(3)
H3 H 0.2728 0.4100 0.1460
H4 H 0.3720 0.4240 0.2097
C10 C 0.5281(4) 0.6345(4) 0.3507(3)
H5 H 0.5544 0.5925 0.3565
H6 H 0.5760 0.6898 0.3913
C11 C 0.3735(4) 0.5117(4) 0.3281(3)
H7 H 0.4047 0.4737 0.3416
C12 C 0.3078(4) 0.5065(4) 0.3645(3)
H8 H 0.3031 0.4621 0.3909
C13 C 0.4330(4) 0.6479(4) 0.4124(3)
C14 C 0.1269(4) 0.4493(4) 0.3031(3)
H9 H 0.1281 0.4100 0.3337
H10 H 0.0738 0.4150 0.2520
C15 C 0.3305(4) 0.6148(4) 0.4743(3)
H11 H 0.3208 0.5672 0.4963
H12 H 0.3855 0.6677 0.5142
C16 C 0.0366(4) 0.5341(3) 0.2948(3)
C17 C 0.1506(4) 0.5581(4) 0.4156(3)
H13 H 0.1461 0.5140 0.4423
C18 C 0.0905(3) 0.6043(3) 0.4213(3)
H14 H 0.0552 0.5806 0.4487
C19 C -0.0553(4) 0.6047(4) 0.3194(3)
H15 H -0.1029 0.5669 0.2675
H16 H -0.0848 0.5899 0.3519
C20 C 0.1423(4) 0.7607(4) 0.4946(3)
H17 H 0.2022 0.8056 0.5379
H18 H 0.0982 0.7329 0.5138
C21 C -0.0004(3) 0.7629(3) 0.3899(3)
H19 H -0.0404 0.7432 0.4148
C22 C -0.0114(3) 0.8379(3) 0.3602(3)
H20 H -0.0541 0.8556 0.3732
C23 C 0.1477(3) 0.8860(3) 0.4467(3)
C24 C -0.0933(3) 0.8382(3) 0.2257(3)
H21 H -0.1174 0.8725 0.2473
H22 H -0.1483 0.7910 0.1805
C25 C 0.1092(4) 0.9922(4) 0.3865(3)
H23 H 0.1695 1.0355 0.4304
H24 H 0.0591 1.0086 0.3843
C26 C 0.0418(3) 0.9842(3) 0.2478(3)
H25 H 0.0113 1.0214 0.2546
C27 C 0.0922(3) 1.0106(4) 0.1988(3)
H26 H 0.0848 1.0597 0.1818
C28 C 0.2052(3) 1.0276(3) 0.3192(3)
C29 C 0.0563(3) 0.9277(4) 0.0682(3)
H27 H 0.0562 0.9796 0.0539
H28 H 0.0014 0.8760 0.0268
C30 C 0.2698(3) 1.0854(4) 0.2373(3)
H29 H 0.2557 1.1288 0.2152
H30 H 0.3276 1.1173 0.2865
C31 C 0.1448(4) 0.8559(4) 0.0386(3)
C32 C 0.2340(3) 1.0037(3) 0.1075(3)
H31 H 0.2234 1.0501 0.0872
C33 C 0.2947(3) 0.9743(3) 0.0820(3)
H32 H 0.3105 1.0043 0.0473
C34 C 0.3756(4) 1.0347(4) 0.2124(3)
C35 C 0.2500(4) 0.8291(3) -0.0073(3)
H33 H 0.1900 0.7759 -0.0405
H34 H 0.2667 0.8628 -0.0392
C36 C 0.4679(4) 1.0042(3) 0.1531(3)
H35 H 0.4780 1.0327 0.1165
H36 H 0.5212 1.0417 0.2034
C37 C 0.3059(3) 0.7204(4) 0.0201(3)
C38 C 0.4248(3) 0.8630(3) 0.0598(3)
H37 H 0.4370 0.8954 0.0253
C39 C 0.4712(3) 0.7995(3) 0.0691(3)
H38 H 0.5036 0.8005 0.0377
C40 C 0.5338(3) 0.9023(3) 0.1869(3)
C41 C 0.3963(4) 0.6348(4) 0.0321(3)
H39 H 0.4486 0.6434 0.0199
H40 H 0.3366 0.5907 -0.0119
C42 C 0.5983(3) 0.7957(4) 0.1865(3)
H41 H 0.6214 0.7768 0.1532
H42 H 0.6543 0.8401 0.2328
N1 N 0.4122(3) 0.6020(3) 0.0957(2)
N2 N 0.3827(3) 0.5233(3) 0.1677(2)
N3 N 0.5499(3) 0.7220(3) 0.2053(2)
N4 N 0.5127(3) 0.6488(3) 0.2787(2)
N5 N 0.3094(3) 0.4818(3) 0.2478(2)
N6 N 0.2163(3) 0.4835(3) 0.2996(2)
N7 N 0.4428(3) 0.6022(3) 0.3595(2)
N8 N 0.3534(3) 0.5933(3) 0.4155(2)
N9 N 0.1100(3) 0.5180(3) 0.3352(2)
N10 N 0.0265(3) 0.5862(3) 0.3425(2)
N11 N 0.2472(3) 0.6292(3) 0.4508(2)
N12 N 0.1617(3) 0.6958(3) 0.4615(2)
N13 N -0.0314(3) 0.6947(3) 0.3230(2)
N14 N -0.0516(3) 0.8004(3) 0.2793(2)
N15 N 0.1017(3) 0.8029(3) 0.4439(2)
N16 N 0.0860(3) 0.9076(3) 0.3971(2)
N17 N -0.0288(3) 0.8937(3) 0.2034(2)
N18 N 0.0455(3) 0.9312(3) 0.1362(2)
N19 N 0.1185(3) 0.9955(3) 0.3185(2)
N20 N 0.1916(3) 1.0344(3) 0.2492(2)
N21 N 0.1446(3) 0.9240(3) 0.0784(2)
N22 N 0.2343(3) 0.8808(3) 0.0447(2)
N23 N 0.2894(3) 1.0353(3) 0.1894(2)
N24 N 0.3789(3) 0.9960(3) 0.1511(2)
N25 N 0.3240(3) 0.8048(3) 0.0296(2)
N26 N 0.3907(3) 0.7153(3) 0.0455(2)
N27 N 0.4686(3) 0.9215(3) 0.1364(2)
N28 N 0.5391(3) 0.8348(3) 0.1498(2)
O13 O 0.2587(2) 0.4934(2) 0.05066(19)
O14 O 0.1486(3) 0.4391(3) 0.1699(2)
O15 O -0.0131(3) 0.5037(3) 0.2252(2)
O16 O 0.0770(3) 0.7830(2) 0.0012(2)
O17 O 0.2260(2) 0.6576(2) -0.0083(2)
O18 O 0.5858(3) 0.7984(3) 0.3234(2)
O19 O 0.4864(3) 0.7238(3) 0.4531(2)
O20 O 0.3243(3) 0.7763(3) 0.5146(2)
O21 O 0.2334(2) 0.9364(2) 0.49103(19)
O22 O 0.2823(2) 1.0475(3) 0.3724(2)
O23 O 0.4406(3) 1.0661(3) 0.2794(2)
O24 O 0.5841(3) 0.9431(3) 0.2551(2)
Sm1A Sm -0.144432(17) 0.633863(18) 0.061463(14)
Sm2A Sm 0.355638(18) 1.046253(19) 0.613385(15)
O11A O 0.0964(2) 0.3293(2) -0.1948(2)
O12A O 0.0706(3) 0.2106(2) -0.0969(2)
O21A O 0.7666(2) 1.0636(2) 0.50897(19)
Cl1 Cl 0.9198(2) 0.6146(3) 0.4970(2)
Cl3? Cl 0.7478(11) 0.6187(10) 0.5105(8)
loop_
_geom_bond_atom_site_label_1
_geom_bond_atom_site_label_2
_geom_bond_site_symmetry_1
_geom_bond_site_symmetry_2
Cl5 Cd1 1_555 1_555
Cl6 Cd1 1_555 1_555
Cl7 Cd1 1_555 1_555
Cl8 Cd1 1_555 1_555
Sm1 O1 1_555 1_555
Sm2 O4 1_555 1_555
O2 Sm1 1_555 1_555
O3 Sm1 1_555 1_555
O5 Sm2 1_555 1_555
O6 Sm2 1_555 1_555
O7 Sm1 1_555 1_555
O8 Sm2 1_555 1_555
O9 Sm2 1_555 1_555
O10 Sm1 1_555 1_555
C1 N5 1_555 1_555
C2 N11 1_555 1_555
C3 O11 1_555 1_555
C4 O12 1_555 1_555
O11 Sm1A 1_555 1_555
O12 Sm1A 1_555 1_555
C5 N1 1_555 1_555
C6 H1 1_555 1_555
C7 C6 1_555 1_555
H2 C7 1_555 1_555
C8 N3 1_555 1_555
C9 H3 1_555 1_555
H4 C9 1_555 1_555
C10 H5 1_555 1_555
H6 C10 1_555 1_555
C11 H7 1_555 1_555
C12 C11 1_555 1_555
H8 C12 1_555 1_555
C13 N7 1_555 1_555
C14 H9 1_555 1_555
H10 C14 1_555 1_555
C15 H11 1_555 1_555
H12 C15 1_555 1_555
C16 N9 1_555 1_555
C17 H13 1_555 1_555
C18 C17 1_555 1_555
H14 C18 1_555 1_555
C19 H15 1_555 1_555
H16 C19 1_555 1_555
C20 H17 1_555 1_555
H18 C20 1_555 1_555
C21 H19 1_555 1_555
C22 C21 1_555 1_555
H20 C22 1_555 1_555
C23 N15 1_555 1_555
C24 H21 1_555 1_555
H22 C24 1_555 1_555
C25 H23 1_555 1_555
H24 C25 1_555 1_555
C26 H25 1_555 1_555
C27 C26 1_555 1_555
H26 C27 1_555 1_555
C28 N19 1_555 1_555
C29 H27 1_555 1_555
H28 C29 1_555 1_555
C30 H29 1_555 1_555
H30 C30 1_555 1_555
C31 N21 1_555 1_555
C32 H31 1_555 1_555
C33 C32 1_555 1_555
H32 C33 1_555 1_555
C34 N23 1_555 1_555
C35 H33 1_555 1_555
H34 C35 1_555 1_555
C36 H35 1_555 1_555
H36 C36 1_555 1_555
C37 N25 1_555 1_555
C38 H37 1_555 1_555
C39 C38 1_555 1_555
H38 C39 1_555 1_555
C40 N27 1_555 1_555
C41 H39 1_555 1_555
H40 C41 1_555 1_555
C42 H41 1_555 1_555
H42 C42 1_555 1_555
N1 C6 1_555 1_555
N2 C5 1_555 1_555
N3 C6 1_555 1_555
N4 C7 1_555 1_555
N5 C9 1_555 1_555
N6 C1 1_555 1_555
N7 C10 1_555 1_555
N8 C12 1_555 1_555
N9 C14 1_555 1_555
N10 C16 1_555 1_555
N11 C15 1_555 1_555
N12 C2 1_555 1_555
N13 C3 1_555 1_555
N14 C3 1_555 1_555
N15 C20 1_555 1_555
N16 C22 1_555 1_555
N17 C4 1_555 1_555
N18 C4 1_555 1_555
N19 C25 1_555 1_555
N20 C27 1_555 1_555
N21 C29 1_555 1_555
N22 C31 1_555 1_555
N23 C30 1_555 1_555
N24 C33 1_555 1_555
N25 C35 1_555 1_555
N26 C37 1_555 1_555
N27 C36 1_555 1_555
N28 C39 1_555 1_555
O13 Sm1 1_555 1_555
O14 C1 1_555 1_555
O15 C16 1_555 1_555
O16 C31 1_555 1_555
O17 C37 1_555 1_555
O18 Sm2 1_555 1_555
O19 C13 1_555 1_555
O20 C2 1_555 1_555
O21 C23 1_555 1_555
O22 C28 1_555 1_555
O23 C34 1_555 1_555
O24 Sm2 1_555 1_555
Sm2A O21 1_555 1_555
O11A Sm1 1_555 1_555
O12A Sm1 1_555 1_555
O21A Sm2 1_555 1_555
C5 O13 1_555 1_555
C7 N2 1_555 1_555
C8 N4 1_555 1_555
C8 O18 1_555 1_555
C9 N2 1_555 1_555
C10 N4 1_555 1_555
C11 N5 1_555 1_555
C11 N7 1_555 1_555
C12 N6 1_555 1_555
C13 N8 1_555 1_555
C14 N6 1_555 1_555
C15 N8 1_555 1_555
C17 N9 1_555 1_555
C17 N11 1_555 1_555
C18 N10 1_555 1_555
C18 N12 1_555 1_555
C19 N10 1_555 1_555
C19 N13 1_555 1_555
C20 N12 1_555 1_555
C21 N13 1_555 1_555
C21 N15 1_555 1_555
C22 N14 1_555 1_555
C23 N16 1_555 1_555
C24 N14 1_555 1_555
C24 N17 1_555 1_555
C25 N16 1_555 1_555
C26 N17 1_555 1_555
C26 N19 1_555 1_555
C27 N18 1_555 1_555
C28 N20 1_555 1_555
C29 N18 1_555 1_555
C30 N20 1_555 1_555
C32 N21 1_555 1_555
C32 N23 1_555 1_555
C33 N22 1_555 1_555
C34 N24 1_555 1_555
C35 N22 1_555 1_555
C36 N24 1_555 1_555
C38 N25 1_555 1_555
C38 N27 1_555 1_555
C39 N26 1_555 1_555
C40 N28 1_555 1_555
C40 O24 1_555 1_555
C41 N1 1_555 1_555
C41 N26 1_555 1_555
C42 N3 1_555 1_555
C42 N28 1_555 1_555

#END
