
#######################################################################
#
#                 Cambridge Crystallographic Data Centre
#                                CCDC 
#
#######################################################################
#
# If this CIF has been generated from an entry in the Cambridge 
# Structural Database, then it will include bibliographic, chemical, 
# crystal, experimental, refinement or atomic coordinate data resulting 
# from the CCDC's data processing and validation procedures.
#
#######################################################################

data_NEWTIT
_symmetry_cell_setting           monoclinic
_symmetry_space_group_name_H-M   'P 21/n'
_symmetry_Int_Tables_number      14
_space_group_name_Hall           '-P 2yn'
loop_
_symmetry_equiv_pos_site_id
_symmetry_equiv_pos_as_xyz
1 x,y,z
2 1/2-x,1/2+y,1/2-z
3 -x,-y,-z
4 1/2+x,1/2-y,1/2+z
_cell_length_a                   11.377(7)
_cell_length_b                   20.360(12)
_cell_length_c                   11.665(7)
_cell_angle_alpha                90
_cell_angle_beta                 103.981(8)
_cell_angle_gamma                90
_cell_volume                     2621.99
loop_
_atom_site_label
_atom_site_type_symbol
_atom_site_fract_x
_atom_site_fract_y
_atom_site_fract_z
Zn1 Zn 0.20792(6) 1.01448(3) 0.31714(6)
Zn2 Zn 0.0000 1.0000 0.5000
N1 N 0.1106(5) 1.3046(2) 0.3618(5)
N2 N -0.1500(7) 0.8261(4) 0.0173(5)
N3 N 0.4755(6) 0.8199(4) 0.6794(8)
N4 N 0.3236(4) 1.01478(18) 0.2077(4)
O1 O 0.0441(4) 1.08916(17) 0.4277(4)
O2 O 0.1883(3) 1.10684(16) 0.3354(3)
O3 O 0.0282(4) 1.29408(17) 0.4356(4)
O4 O 0.0778(4) 0.9656(2) 0.2175(3)
O5 O -0.0285(4) 0.9489(2) 0.3474(3)
O6 O -0.2227(6) 0.8190(3) 0.0963(5)
O7 O 0.1778(4) 0.9692(2) 0.5589(4)
O8 O 0.2982(4) 0.9588(2) 0.4391(4)
O9 O 0.4004(6) 0.8276(3) 0.7583(6)
C1 C 0.1087(5) 1.1260(2) 0.3866(4)
C2 C 0.0921(4) 1.1976(2) 0.3913(4)
C3 C 0.1465(5) 1.2469(2) 0.3384(5)
C4 C 0.2336(5) 1.2448(3) 0.2625(5)
H1 H 0.2516 1.2887 0.2423
H2 H 0.1990 1.2206 0.1918
H3 H 0.3069 1.2236 0.3044
C5 C 0.0201(5) 1.2295(2) 0.4518(5)
C6 C -0.0604(6) 1.2088(3) 0.5272(6)
H4 H -0.0960 1.2468 0.5538
H5 H -0.0143 1.1850 0.5942
H6 H -0.1232 1.1810 0.4826
C7 C -0.0065(5) 0.9397(2) 0.2511(5)
C8 C -0.0833(6) 0.8914(3) 0.1711(5)
C9 C -0.0665(8) 0.8674(4) 0.0634(6)
C10 C 0.0253(8) 0.8840(5) -0.0032(6)
H7 H 0.0105 0.8587 -0.0747
H8 H 0.1047 0.8742 0.0444
H9 H 0.0202 0.9299 -0.0223
C11 C -0.1815(6) 0.8599(3) 0.1877(6)
C12 C -0.2478(7) 0.8604(5) 0.2825(7)
H10 H -0.3153 0.8308 0.2623
H11 H -0.2767 0.9040 0.2911
H12 H -0.1944 0.8468 0.3555
C13 C 0.2656(5) 0.9449(3) 0.5311(5)
C14 C 0.3385(5) 0.8963(3) 0.6105(5)
C15 C 0.3193(7) 0.8732(4) 0.7168(7)
C16 C 0.2307(7) 0.8907(6) 0.7836(6)
H13 H 0.2437 0.8643 0.8537
H14 H 0.1505 0.8831 0.7358
H15 H 0.2397 0.9363 0.8052
C17 C 0.4360(7) 0.8607(4) 0.5934(7)
C18 C 0.5003(7) 0.8619(6) 0.4969(7)
H16 H 0.5643 0.8300 0.5127
H17 H 0.5338 0.9048 0.4923
H18 H 0.4444 0.8517 0.4233
C19 C 0.3687(8) 0.9591(3) 0.1837(7)
H19 H 0.3525 0.9218 0.2234
C20 C 0.4376(7) 0.9519(3) 0.1047(7)
H20 H 0.4682 0.9108 0.0929
C21 C 0.4620(5) 1.0033(2) 0.0439(5)
C22 C 0.4168(5) 1.0624(2) 0.0678(5)
H21 H 0.4328 1.1001 0.0292
C23 C 0.3478(5) 1.0659(3) 0.1487(5)
H22 H 0.3165 1.1065 0.1626
Zn1B Zn -0.20792(6) 0.98552(3) 0.68286(6)
Zn1B_2 Zn 0.79208(6) 0.98552(3) -0.31714(6)
N1B N -0.1106(5) 0.6954(2) 0.6382(5)
N2B N 0.1500(7) 1.1739(4) 0.9827(5)
N3B N -0.4755(6) 1.1801(4) 0.3206(8)
N4B N 0.6764(4) 0.98522(18) -0.2077(4)
N4B_2 N -0.3236(4) 0.98522(18) 0.7923(4)
O1B O -0.0441(4) 0.91084(17) 0.5723(4)
O2B O -0.1883(3) 0.89316(16) 0.6646(3)
O3B O -0.0282(4) 0.70592(17) 0.5644(4)
O4B O -0.0778(4) 1.0344(2) 0.7825(3)
O5B O 0.0285(4) 1.0511(2) 0.6526(3)
O6B O 0.2227(6) 1.1810(3) 0.9037(5)
O7B O -0.1778(4) 1.0308(2) 0.4411(4)
O8B O -0.2982(4) 1.0412(2) 0.5609(4)
O9B O -0.4004(6) 1.1724(3) 0.2417(6)
C1B C -0.1087(5) 0.8740(2) 0.6134(4)
C2B C -0.0921(4) 0.8024(2) 0.6087(4)
C3B C -0.1465(5) 0.7531(2) 0.6616(5)
C4B C -0.2336(5) 0.7552(3) 0.7375(5)
H1B H -0.2516 0.7113 0.7577
H2B H -0.1990 0.7794 0.8082
H3B H -0.3069 0.7764 0.6956
C5B C -0.0201(5) 0.7705(2) 0.5482(5)
C6B C 0.0604(6) 0.7912(3) 0.4728(6)
H4B H 0.0960 0.7532 0.4462
H5B H 0.0143 0.8150 0.4058
H6B H 0.1232 0.8190 0.5174
C7B C 0.0065(5) 1.0603(2) 0.7489(5)
C8B C 0.0833(6) 1.1086(3) 0.8289(5)
C9B C 0.0665(8) 1.1326(4) 0.9366(6)
C10B C -0.0253(8) 1.1160(5) 1.0032(6)
H7B H -0.0105 1.1413 1.0747
H8B H -0.1047 1.1258 0.9556
H9B H -0.0202 1.0701 1.0223
C11B C 0.1815(6) 1.1401(3) 0.8123(6)
C12B C 0.2478(7) 1.1396(5) 0.7175(7)
H10B H 0.3153 1.1692 0.7377
H11B H 0.2767 1.0960 0.7089
H12B H 0.1944 1.1532 0.6445
C13B C -0.2656(5) 1.0551(3) 0.4689(5)
C14B C -0.3385(5) 1.1037(3) 0.3895(5)
C15B C -0.3193(7) 1.1268(4) 0.2832(7)
C16B C -0.2307(7) 1.1093(6) 0.2164(6)
H13B H -0.2437 1.1357 0.1463
H14B H -0.1505 1.1169 0.2642
H15B H -0.2397 1.0637 0.1948
C17B C -0.4360(7) 1.1393(4) 0.4066(7)
C18B C -0.5003(7) 1.1381(6) 0.5031(7)
H16B H -0.5643 1.1700 0.4873
H17B H -0.5338 1.0952 0.5077
H18B H -0.4444 1.1483 0.5767
C19B C 0.6313(8) 1.0409(3) -0.1837(7)
H19B H 0.6475 1.0782 -0.2234
C20B C 0.5624(7) 1.0481(3) -0.1047(7)
H20B H 0.5318 1.0892 -0.0929
C21B C 0.5380(5) 0.9967(2) -0.0439(5)
C22B C 0.5832(5) 0.9376(2) -0.0678(5)
H21B H 0.5672 0.8999 -0.0292
C23B C 0.6522(5) 0.9341(3) -0.1487(5)
H22B H 0.6835 0.8935 -0.1626
loop_
_geom_bond_atom_site_label_1
_geom_bond_atom_site_label_2
_geom_bond_site_symmetry_1
_geom_bond_site_symmetry_2
Zn1 N4 1_555 1_555
Zn2 O1 1_555 1_555
N1 O3 1_555 1_555
N2 O6 1_555 1_555
N3 O9 1_555 1_555
N4 C19 1_555 1_555
O1 C1 1_555 1_555
O2 Zn1 1_555 1_555
O3 C5 1_555 1_555
O4 Zn1 1_555 1_555
O5 Zn2 1_555 1_555
O6 C11 1_555 1_555
O7 Zn2 1_555 1_555
O8 Zn1 1_555 1_555
O9 C15 1_555 1_555
C1 O2 1_555 1_555
C2 C1 1_555 1_555
C3 N1 1_555 1_555
C4 C3 1_555 1_555
H1 C4 1_555 1_555
H2 C4 1_555 1_555
H3 C4 1_555 1_555
C5 C2 1_555 1_555
C6 C5 1_555 1_555
H4 C6 1_555 1_555
H5 C6 1_555 1_555
H6 C6 1_555 1_555
C7 O4 1_555 1_555
C8 C7 1_555 1_555
C9 N2 1_555 1_555
C10 C9 1_555 1_555
H7 C10 1_555 1_555
H8 C10 1_555 1_555
H9 C10 1_555 1_555
C11 C8 1_555 1_555
C12 C11 1_555 1_555
H10 C12 1_555 1_555
H11 C12 1_555 1_555
H12 C12 1_555 1_555
C13 O7 1_555 1_555
C14 C13 1_555 1_555
C15 C14 1_555 1_555
C16 C15 1_555 1_555
H13 C16 1_555 1_555
H14 C16 1_555 1_555
H15 C16 1_555 1_555
C17 N3 1_555 1_555
C18 C17 1_555 1_555
H16 C18 1_555 1_555
H17 C18 1_555 1_555
H18 C18 1_555 1_555
C19 H19 1_555 1_555
C20 C19 1_555 1_555
H20 C20 1_555 1_555
C21 C20 1_555 1_555
C22 C21 1_555 1_555
H21 C22 1_555 1_555
C23 N4 1_555 1_555
H22 C23 1_555 1_555
Zn1B N4B_2 1_555 1_555
Zn1B_2 N4B 1_555 1_555
N1B O3B 1_555 1_555
N2B O6B 1_555 1_555
N3B O9B 1_555 1_555
N4B C19B 1_555 1_555
O1B Zn2 1_555 1_555
O2B Zn1B 1_555 1_555
O3B C5B 1_555 1_555
O4B Zn1B 1_555 1_555
O5B Zn2 1_555 1_555
O6B C11B 1_555 1_555
O7B Zn2 1_555 1_555
O8B Zn1B 1_555 1_555
O9B C15B 1_555 1_555
C1B O1B 1_555 1_555
C2B C1B 1_555 1_555
C3B N1B 1_555 1_555
C4B C3B 1_555 1_555
H1B C4B 1_555 1_555
H2B C4B 1_555 1_555
H3B C4B 1_555 1_555
C5B C2B 1_555 1_555
C6B C5B 1_555 1_555
H4B C6B 1_555 1_555
H5B C6B 1_555 1_555
H6B C6B 1_555 1_555
C7B O4B 1_555 1_555
C8B C7B 1_555 1_555
C9B N2B 1_555 1_555
C10B C9B 1_555 1_555
H7B C10B 1_555 1_555
H8B C10B 1_555 1_555
H9B C10B 1_555 1_555
C11B C8B 1_555 1_555
C12B C11B 1_555 1_555
H10B C12B 1_555 1_555
H11B C12B 1_555 1_555
H12B C12B 1_555 1_555
C13B O7B 1_555 1_555
C14B C13B 1_555 1_555
C15B C14B 1_555 1_555
C16B C15B 1_555 1_555
H13B C16B 1_555 1_555
H14B C16B 1_555 1_555
H15B C16B 1_555 1_555
C17B N3B 1_555 1_555
C18B C17B 1_555 1_555
H16B C18B 1_555 1_555
H17B C18B 1_555 1_555
H18B C18B 1_555 1_555
C19B H19B 1_555 1_555
C20B C19B 1_555 1_555
H20B C20B 1_555 1_555
C21B C21 1_555 1_555
C22B C21B 1_555 1_555
H21B C22B 1_555 1_555
C23B N4B 1_555 1_555
H22B C23B 1_555 1_555
O5 C7 1_555 1_555
O8 C13 1_555 1_555
C2 C3 1_555 1_555
C8 C9 1_555 1_555
C14 C17 1_555 1_555
C22 C23 1_555 1_555
O2B C1B 1_555 1_555
O5B C7B 1_555 1_555
O8B C13B 1_555 1_555
C2B C3B 1_555 1_555
C8B C9B 1_555 1_555
C14B C17B 1_555 1_555
C20B C21B 1_555 1_555
C22B C23B 1_555 1_555

#END
