
#######################################################################
#
#                 Cambridge Crystallographic Data Centre
#                                CCDC 
#
#######################################################################
#
# If this CIF has been generated from an entry in the Cambridge 
# Structural Database, then it will include bibliographic, chemical, 
# crystal, experimental, refinement or atomic coordinate data resulting 
# from the CCDC's data processing and validation procedures.
#
#######################################################################

data_NEWTAM
_symmetry_cell_setting           monoclinic
_symmetry_space_group_name_H-M   'P 21/c'
_symmetry_Int_Tables_number      14
_space_group_name_Hall           '-P 2ybc'
loop_
_symmetry_equiv_pos_site_id
_symmetry_equiv_pos_as_xyz
1 x,y,z
2 -x,1/2+y,1/2-z
3 -x,-y,-z
4 x,1/2-y,1/2+z
_cell_length_a                   16.969(2)
_cell_length_b                   27.923(4)
_cell_length_c                   20.348(3)
_cell_angle_alpha                90
_cell_angle_beta                 97.399(4)
_cell_angle_gamma                90
_cell_volume                     9561.12
loop_
_atom_site_label
_atom_site_type_symbol
_atom_site_fract_x
_atom_site_fract_y
_atom_site_fract_z
Cd1 Cd 0.78524(4) 0.57931(3) 0.55081(5)
Cl1 Cl 0.81082(17) 0.62643(12) 0.65242(17)
Cl2 Cl 0.90827(17) 0.53483(11) 0.5419(2)
Cl3 Cl 0.67020(16) 0.52839(12) 0.56013(18)
Cl4 Cl 0.76331(17) 0.62786(13) 0.44953(17)
Cl5 Cl 0.74414(16) 0.90525(10) 0.4542(2)
Cl6 Cl 0.4626(2) 0.45404(15) 0.6438(2)
Cl7 Cl 0.7798(3) 0.7695(3) 0.8019(2)
Cl8 Cl 0.3778(11) 0.7837(4) 0.6808(8)
Tb1 Tb 0.94988(3) 0.286165(18) 0.28658(2)
Tb2 Tb 0.47738(3) 0.285321(18) 0.60359(2)
O1 O 0.3974(4) 0.3505(2) 0.6395(4)
O2 O 0.8989(5) 0.2111(3) 0.2561(5)
O3 O 0.8377(4) 0.2774(3) 0.3464(4)
O4 O 0.5243(5) 0.2092(3) 0.6336(5)
O5 O 0.5891(5) 0.2756(3) 0.5446(5)
O6 O 0.3481(4) 0.2557(3) 0.6096(4)
O7 O 0.5763(4) 0.3373(3) 0.6515(4)
O8 O 1.0308(5) 0.3500(3) 0.2507(4)
O9 O 0.8497(5) 0.3367(3) 0.2396(4)
O10 O 1.0786(5) 0.2531(3) 0.2800(5)
C1 C 1.0162(6) 0.2282(3) 0.4407(5)
C2 C 1.0474(5) 0.1859(3) 0.5363(5)
H1 H 1.0927 0.1634 0.5433
C3 C 1.0744(5) 0.2386(3) 0.5492(5)
H2 H 1.1323 0.2411 0.5636
C4 C 0.9849(5) 0.2178(3) 0.6219(5)
C5 C 1.0811(4) 0.3061(2) 0.4697(5)
H3 H 1.0953 0.3058 0.4245
H4 H 1.1295 0.3126 0.5000
C6 C 1.0312(5) 0.3017(3) 0.6271(5)
H5 H 1.0865 0.3127 0.6347
H6 H 1.0111 0.3005 0.6701
C7 C 0.9706(5) 0.3595(3) 0.4249(5)
C8 C 1.0165(6) 0.3672(3) 0.5382(5)
H7 H 1.0658 0.3834 0.5580
C9 C 0.9474(5) 0.4030(3) 0.5184(5)
H8 H 0.9643 0.4366 0.5263
C10 C 0.9109(5) 0.3516(3) 0.5986(5)
C11 C 0.8781(5) 0.4274(3) 0.4058(5)
H9 H 0.8883 0.4228 0.3599
H10 H 0.8955 0.4598 0.4193
C12 C 0.8228(5) 0.4196(4) 0.5713(5)
H11 H 0.8042 0.4094 0.6128
H12 H 0.8423 0.4526 0.5775
C13 C 0.7399(5) 0.4109(3) 0.3553(5)
C14 C 0.7551(5) 0.4464(4) 0.4598(5)
H13 H 0.7761 0.4792 0.4684
C15 C 0.6672(5) 0.4470(3) 0.4323(5)
H14 H 0.6472 0.4801 0.4253
C16 C 0.6812(5) 0.4091(3) 0.5314(5)
C17 C 0.5998(5) 0.4232(4) 0.3184(5)
H15 H 0.6176 0.4146 0.2760
H16 H 0.5798 0.4562 0.3146
C18 C 0.5444(6) 0.4292(4) 0.4867(6)
H17 H 0.5284 0.4622 0.4752
H18 H 0.5355 0.4234 0.5327
C19 C 0.5105(5) 0.3534(3) 0.2923(5)
C20 C 0.4727(5) 0.4040(3) 0.3726(5)
H19 H 0.4545 0.4374 0.3636
C21 C 0.4054(5) 0.3676(3) 0.3536(5)
H20 H 0.3551 0.3832 0.3350
C22 C 0.4542(6) 0.3614(4) 0.4629(5)
C23 C 0.3925(5) 0.3022(3) 0.2653(5)
H21 H 0.3363 0.3114 0.2603
H22 H 0.4093 0.3020 0.2210
C24 C 0.3468(5) 0.3071(3) 0.4249(5)
H23 H 0.2956 0.3137 0.3982
H24 H 0.3378 0.3069 0.4715
C25 C 0.4421(5) 0.2202(3) 0.2680(5)
C26 C 0.3526(6) 0.2397(3) 0.3408(5)
H25 H 0.2950 0.2421 0.3253
C27 C 0.3801(5) 0.1858(3) 0.3532(5)
H26 H 0.3351 0.1630 0.3477
C28 C 0.4110(5) 0.2296(3) 0.4502(5)
C29 C 0.4679(6) 0.1335(4) 0.2895(5)
H27 H 0.4847 0.1352 0.2452
H28 H 0.4263 0.1090 0.2881
C30 C 0.4369(6) 0.1426(3) 0.4591(5)
H29 H 0.4353 0.1490 0.5063
H30 H 0.3954 0.1192 0.4445
C31 C 0.6106(6) 0.1174(4) 0.3217(6)
C32 C 0.5264(5) 0.0923(3) 0.3978(5)
H31 H 0.4864 0.0664 0.3906
C33 C 0.6115(5) 0.0726(4) 0.4183(5)
H32 H 0.6128 0.0372 0.4179
C34 C 0.5737(7) 0.1197(4) 0.5020(6)
C35 C 0.7327(6) 0.0731(4) 0.3600(6)
H33 H 0.7421 0.0802 0.3145
H34 H 0.7301 0.0382 0.3644
C36 C 0.6972(6) 0.0725(4) 0.5309(6)
H35 H 0.6879 0.0801 0.5762
H36 H 0.6982 0.0375 0.5267
C37 C 0.8555(6) 0.1192(4) 0.3869(6)
C38 C 0.8182(5) 0.0712(4) 0.4702(5)
H37 H 0.8170 0.0358 0.4701
C39 C 0.9054(6) 0.0918(4) 0.4923(5)
H38 H 0.9462 0.0664 0.4995
C40 C 0.8196(6) 0.1150(4) 0.5681(5)
C41 C 0.9929(5) 0.1428(3) 0.4296(5)
H39 H 0.9952 0.1501 0.3828
H40 H 1.0337 0.1186 0.4433
C42 C 0.9620(6) 0.1320(4) 0.5995(5)
H41 H 0.9458 0.1331 0.6440
H42 H 1.0046 0.1083 0.5999
N1 N 1.0108(4) 0.1859(3) 0.4686(4)
N2 N 1.0519(4) 0.2594(2) 0.4844(4)
N3 N 0.9919(4) 0.1784(3) 0.5835(4)
N4 N 1.0288(4) 0.2544(3) 0.5993(4)
N5 N 1.0253(4) 0.3444(2) 0.4750(4)
N6 N 0.9241(5) 0.3929(3) 0.4480(4)
N7 N 0.9841(5) 0.3362(3) 0.5844(4)
N8 N 0.8880(4) 0.3891(3) 0.5586(4)
N9 N 0.7918(5) 0.4231(3) 0.4089(5)
N10 N 0.6658(5) 0.4213(3) 0.3691(4)
N11 N 0.7580(4) 0.4190(3) 0.5203(4)
N12 N 0.6292(4) 0.4231(3) 0.4808(4)
N13 N 0.5321(5) 0.3900(3) 0.3311(4)
N14 N 0.4386(4) 0.3386(3) 0.3054(4)
N15 N 0.4957(4) 0.3957(3) 0.4426(4)
N16 N 0.3995(4) 0.3444(3) 0.4154(4)
N17 N 0.3995(4) 0.2549(3) 0.2913(4)
N18 N 0.4342(4) 0.1791(3) 0.3043(4)
N19 N 0.3729(4) 0.2603(3) 0.4081(4)
N20 N 0.4203(5) 0.1874(3) 0.4214(5)
N21 N 0.5352(5) 0.1184(3) 0.3363(4)
N22 N 0.6576(5) 0.0928(3) 0.3704(4)
N23 N 0.5130(5) 0.1227(3) 0.4506(5)
N24 N 0.6312(5) 0.0916(3) 0.4842(4)
N25 N 0.8000(5) 0.0907(3) 0.4053(5)
N26 N 0.9165(5) 0.1232(3) 0.4365(4)
N27 N 0.7732(5) 0.0916(3) 0.5194(4)
N28 N 0.8950(5) 0.1174(3) 0.5526(5)
O11 O 0.9917(4) 0.2383(2) 0.3814(4)
O12 O 0.9659(4) 0.3458(3) 0.3665(4)
O13 O 0.7552(4) 0.3933(3) 0.3038(4)
O14 O 0.5482(4) 0.3358(3) 0.2511(4)
O15 O 0.4815(4) 0.2232(2) 0.2224(4)
O16 O 0.6343(5) 0.1363(3) 0.2727(4)
O17 O 0.8568(4) 0.1380(3) 0.3329(4)
O18 O 0.9457(4) 0.2206(2) 0.6677(4)
O19 O 0.8724(4) 0.3321(2) 0.6391(4)
O20 O 0.6665(4) 0.3924(3) 0.5844(4)
O21 O 0.4612(4) 0.3445(3) 0.5224(4)
O22 O 0.4354(4) 0.2382(2) 0.5086(4)
O23 O 0.5744(5) 0.1395(3) 0.5578(4)
O24 O 0.7969(5) 0.1348(3) 0.6162(4)
Tb1C Tb 0.94988(3) 0.213835(18) 0.78658(2)
Tb2C Tb 0.47738(3) 0.214679(18) 0.10359(2)
O15C O 0.4815(4) 0.2768(2) 0.7224(4)
O18C O 0.9457(4) 0.2794(2) 0.1677(4)
Cl9? Cl 0.4108(6) 0.7411(7) 0.5986(5)
loop_
_geom_bond_atom_site_label_1
_geom_bond_atom_site_label_2
_geom_bond_site_symmetry_1
_geom_bond_site_symmetry_2
Tb1 O2 1_555 1_555
Tb2 O1 1_555 1_555
O3 Tb1 1_555 1_555
O4 Tb2 1_555 1_555
O5 Tb2 1_555 1_555
O6 Tb2 1_555 1_555
O7 Tb2 1_555 1_555
O8 Tb1 1_555 1_555
O9 Tb1 1_555 1_555
O10 Tb1 1_555 1_555
C1 N1 1_555 1_555
C2 H1 1_555 1_555
C3 C2 1_555 1_555
H2 C3 1_555 1_555
C4 N3 1_555 1_555
C5 H3 1_555 1_555
H4 C5 1_555 1_555
C6 H5 1_555 1_555
H6 C6 1_555 1_555
C7 N5 1_555 1_555
C8 H7 1_555 1_555
C9 C8 1_555 1_555
H8 C9 1_555 1_555
C10 N7 1_555 1_555
C11 H9 1_555 1_555
H10 C11 1_555 1_555
C12 H11 1_555 1_555
H12 C12 1_555 1_555
C13 N9 1_555 1_555
C14 H13 1_555 1_555
C15 C14 1_555 1_555
H14 C15 1_555 1_555
C16 N11 1_555 1_555
C17 H15 1_555 1_555
H16 C17 1_555 1_555
C18 H17 1_555 1_555
H18 C18 1_555 1_555
C19 N13 1_555 1_555
C20 H19 1_555 1_555
C21 C20 1_555 1_555
H20 C21 1_555 1_555
C22 N15 1_555 1_555
C23 H21 1_555 1_555
H22 C23 1_555 1_555
C24 H23 1_555 1_555
H24 C24 1_555 1_555
C25 N17 1_555 1_555
C26 H25 1_555 1_555
C27 C26 1_555 1_555
H26 C27 1_555 1_555
C28 N19 1_555 1_555
C29 H27 1_555 1_555
H28 C29 1_555 1_555
C30 H29 1_555 1_555
H30 C30 1_555 1_555
C31 N21 1_555 1_555
C32 H31 1_555 1_555
C33 C32 1_555 1_555
H32 C33 1_555 1_555
C34 N23 1_555 1_555
C35 H33 1_555 1_555
H34 C35 1_555 1_555
C36 H35 1_555 1_555
H36 C36 1_555 1_555
C37 N25 1_555 1_555
C38 H37 1_555 1_555
C39 C38 1_555 1_555
H38 C39 1_555 1_555
C40 N27 1_555 1_555
C41 H39 1_555 1_555
H40 C41 1_555 1_555
C42 H41 1_555 1_555
H42 C42 1_555 1_555
N1 C2 1_555 1_555
N2 C1 1_555 1_555
N3 C2 1_555 1_555
N4 C3 1_555 1_555
N5 C5 1_555 1_555
N6 C7 1_555 1_555
N7 C6 1_555 1_555
N8 C9 1_555 1_555
N9 C11 1_555 1_555
N10 C13 1_555 1_555
N11 C12 1_555 1_555
N12 C15 1_555 1_555
N13 C17 1_555 1_555
N14 C19 1_555 1_555
N15 C18 1_555 1_555
N16 C21 1_555 1_555
N17 C23 1_555 1_555
N18 C25 1_555 1_555
N19 C24 1_555 1_555
N20 C27 1_555 1_555
N21 C29 1_555 1_555
N22 C31 1_555 1_555
N23 C30 1_555 1_555
N24 C33 1_555 1_555
N25 C35 1_555 1_555
N26 C37 1_555 1_555
N27 C36 1_555 1_555
N28 C39 1_555 1_555
O11 Tb1 1_555 1_555
O12 Tb1 1_555 1_555
O13 C13 1_555 1_555
O14 C19 1_555 1_555
O15 C25 1_555 1_555
O16 C31 1_555 1_555
O17 C37 1_555 1_555
O18 C4 1_555 1_555
O19 C10 1_555 1_555
O20 C16 1_555 1_555
O21 Tb2 1_555 1_555
O22 Tb2 1_555 1_555
O23 C34 1_555 1_555
O24 C40 1_555 1_555
Cd1 Cl1 1_555 1_555
Cl2 Cd1 1_555 1_555
Cl3 Cd1 1_555 1_555
Cl4 Cd1 1_555 1_555
Tb1C O18 1_555 1_555
Tb2C O15 1_555 1_555
O15C Tb2 1_555 1_555
O18C Tb1 1_555 1_555
C1 O11 1_555 1_555
C3 N2 1_555 1_555
C4 N4 1_555 1_555
C5 N2 1_555 1_555
C6 N4 1_555 1_555
C7 O12 1_555 1_555
C8 N5 1_555 1_555
C8 N7 1_555 1_555
C9 N6 1_555 1_555
C10 N8 1_555 1_555
C11 N6 1_555 1_555
C12 N8 1_555 1_555
C14 N9 1_555 1_555
C14 N11 1_555 1_555
C15 N10 1_555 1_555
C16 N12 1_555 1_555
C17 N10 1_555 1_555
C18 N12 1_555 1_555
C20 N13 1_555 1_555
C20 N15 1_555 1_555
C21 N14 1_555 1_555
C22 N16 1_555 1_555
C22 O21 1_555 1_555
C23 N14 1_555 1_555
C24 N16 1_555 1_555
C26 N17 1_555 1_555
C26 N19 1_555 1_555
C27 N18 1_555 1_555
C28 N20 1_555 1_555
C28 O22 1_555 1_555
C29 N18 1_555 1_555
C30 N20 1_555 1_555
C32 N21 1_555 1_555
C32 N23 1_555 1_555
C33 N22 1_555 1_555
C34 N24 1_555 1_555
C35 N22 1_555 1_555
C36 N24 1_555 1_555
C38 N25 1_555 1_555
C38 N27 1_555 1_555
C39 N26 1_555 1_555
C40 N28 1_555 1_555
C41 N1 1_555 1_555
C41 N26 1_555 1_555
C42 N3 1_555 1_555
C42 N28 1_555 1_555

#END
