
#######################################################################
#
#                 Cambridge Crystallographic Data Centre
#                                CCDC 
#
#######################################################################
#
# If this CIF has been generated from an entry in the Cambridge 
# Structural Database, then it will include bibliographic, chemical, 
# crystal, experimental, refinement or atomic coordinate data resulting 
# from the CCDC's data processing and validation procedures.
#
#######################################################################

data_NEWTUG
_symmetry_cell_setting           monoclinic
_symmetry_space_group_name_H-M   'P 21/n'
_symmetry_Int_Tables_number      14
_space_group_name_Hall           '-P 2yn'
loop_
_symmetry_equiv_pos_site_id
_symmetry_equiv_pos_as_xyz
1 x,y,z
2 1/2-x,1/2+y,1/2-z
3 -x,-y,-z
4 1/2+x,1/2-y,1/2+z
_cell_length_a                   16.838(3)
_cell_length_b                   17.076(3)
_cell_length_c                   28.960(5)
_cell_angle_alpha                90
_cell_angle_beta                 95.578(5)
_cell_angle_gamma                90
_cell_volume                     8287.32
loop_
_atom_site_label
_atom_site_type_symbol
_atom_site_fract_x
_atom_site_fract_y
_atom_site_fract_z
O2 O 0.4984(6) 0.0128(5) 0.1055(3)
O3 O 0.6656(5) -0.1453(4) 0.1623(3)
O4 O 0.6579(6) -0.0332(6) 0.0945(4)
O5 O 0.7486(7) 0.0018(5) 0.1888(4)
O6 O 0.6621(8) 0.0915(13) 0.2371(7)
Nd1 Nd 0.60520(3) -0.01370(3) 0.168789(19)
C1 C 0.4733(6) 0.1177(5) 0.2230(4)
C2 C 0.3905(6) 0.1947(5) 0.2637(4)
H1 H 0.3332 0.1805 0.2600
C3 C 0.4169(6) 0.2416(5) 0.2221(4)
H2 H 0.3704 0.2616 0.2020
C4 C 0.4510(7) 0.3133(6) 0.2881(4)
C5 C 0.4819(5) 0.1935(6) 0.1513(3)
H3 H 0.4815 0.1422 0.1361
H4 H 0.4415 0.2261 0.1338
C6 C 0.4966(6) 0.3672(5) 0.2172(4)
H5 H 0.5065 0.4129 0.2374
H6 H 0.4570 0.3822 0.1917
C7 C 0.6260(5) 0.1888(5) 0.1428(3)
C8 C 0.5707(6) 0.3140(5) 0.1514(3)
H7 H 0.5340 0.3424 0.1284
C9 C 0.6591(5) 0.3228(5) 0.1420(3)
H8 H 0.6648 0.3498 0.1122
C10 C 0.6415(6) 0.3781(5) 0.2121(3)
C11 C 0.7616(8) 0.2192(7) 0.1228(4)
H9 H 0.7593 0.1632 0.1156
H10 H 0.7643 0.2475 0.0936
C12 C 0.7668(6) 0.4099(5) 0.1801(4)
H11 H 0.7676 0.4529 0.2026
H12 H 0.7680 0.4328 0.1491
C13 C 0.8793(6) 0.1766(5) 0.1717(3)
C14 C 0.8685(6) 0.3113(5) 0.1564(3)
H13 H 0.8682 0.3383 0.1261
C15 C 0.9561(5) 0.2914(5) 0.1780(3)
H14 H 0.9965 0.3022 0.1561
C16 C 0.8978(6) 0.3790(6) 0.2246(3)
C17 C 1.0180(6) 0.1641(5) 0.2097(4)
H15 H 1.0661 0.1806 0.1957
H16 H 1.0087 0.1088 0.2020
C18 C 1.0393(6) 0.3581(5) 0.2462(4)
H17 H 1.0833 0.3522 0.2267
H18 H 1.0397 0.4122 0.2575
C19 C 1.0120(6) 0.1104(6) 0.2889(4)
C20 C 1.0847(6) 0.2275(5) 0.2833(4)
H19 H 1.1382 0.2273 0.2718
C21 C 1.0883(6) 0.2003(5) 0.3343(4)
H20 H 1.1439 0.1924 0.3480
C22 C 1.0326(6) 0.3234(5) 0.3273(4)
C23 C 1.0516(6) 0.0703(5) 0.3689(4)
H21 H 1.1073 0.0693 0.3823
H22 H 1.0391 0.0188 0.3551
C24 C 1.0519(7) 0.2721(5) 0.4060(4)
H23 H 1.0401 0.3263 0.4143
H24 H 1.1060 0.2599 0.4196
C25 C 0.9474(6) 0.0268(5) 0.4162(4)
C26 C 1.0172(7) 0.1417(5) 0.4397(4)
H25 H 1.0729 0.1385 0.4540
C27 C 0.9563(7) 0.1227(6) 0.4750(4)
H26 H 0.9840 0.1172 0.5066
C28 C 0.9297(8) 0.2471(6) 0.4460(4)
C29 C 0.8672(6) 0.0033(5) 0.4825(4)
H27 H 0.8847 0.0031 0.5158
H28 H 0.8689 -0.0508 0.4714
C30 C 0.8448(9) 0.2067(7) 0.5057(5)
H29 H 0.8674 0.1914 0.5369
H30 H 0.8351 0.2633 0.5063
C31 C 0.7272(6) -0.0126(6) 0.4532(3)
C32 C 0.7561(7) 0.0871(5) 0.5068(4)
H31 H 0.7744 0.0750 0.5395
C33 C 0.6644(7) 0.0798(7) 0.4979(4)
H32 H 0.6403 0.0631 0.5262
C34 C 0.7040(8) 0.2078(5) 0.4847(4)
C35 C 0.5797(6) -0.0105(6) 0.4440(4)
H33 H 0.5482 -0.0215 0.4700
H34 H 0.5883 -0.0603 0.4284
C36 C 0.5619(8) 0.1878(7) 0.4834(4)
H35 H 0.5660 0.2447 0.4875
H36 H 0.5380 0.1665 0.5103
C37 C 0.5297(6) 0.0314(6) 0.3650(4)
C38 C 0.4759(6) 0.0951(7) 0.4242(4)
H37 H 0.4423 0.0715 0.4468
C39 C 0.4268(6) 0.1161(6) 0.3794(4)
H38 H 0.3728 0.0927 0.3778
C40 C 0.4743(7) 0.2309(6) 0.4145(4)
C41 C 0.4382(7) 0.0622(6) 0.2984(4)
H39 H 0.3819 0.0487 0.3001
H40 H 0.4651 0.0159 0.2874
C42 C 0.3742(7) 0.2453(6) 0.3444(4)
H41 H 0.3210 0.2218 0.3391
H42 H 0.3681 0.2985 0.3562
N1 N 0.4435(5) 0.1263(4) 0.2652(3)
N2 N 0.4597(5) 0.1833(4) 0.1986(3)
N3 N 0.4102(5) 0.2488(5) 0.3007(3)
N4 N 0.4642(5) 0.3047(4) 0.2434(3)
N5 N 0.5592(5) 0.2290(5) 0.1490(3)
N6 N 0.6890(4) 0.2410(4) 0.1419(3)
N7 N 0.5705(4) 0.3458(4) 0.1981(3)
N8 N 0.6959(5) 0.3664(5) 0.1815(3)
N9 N 0.8327(4) 0.2340(4) 0.1517(3)
N10 N 0.9516(5) 0.2089(5) 0.1893(3)
N11 N 0.8381(5) 0.3601(4) 0.1908(3)
N12 N 0.9641(5) 0.3434(4) 0.2181(3)
N13 N 1.0329(5) 0.1714(4) 0.2596(3)
N14 N 1.0431(5) 0.1285(4) 0.3328(3)
N15 N 1.0520(5) 0.3066(4) 0.2848(3)
N16 N 1.0493(5) 0.2662(4) 0.3565(3)
N17 N 1.0006(6) 0.0840(4) 0.4057(4)
N18 N 0.9222(5) 0.0490(4) 0.4592(3)
N19 N 0.9958(5) 0.2201(4) 0.4258(3)
N20 N 0.9055(6) 0.1908(5) 0.4725(3)
N21 N 0.7860(5) 0.0305(4) 0.4761(3)
N22 N 0.6549(5) 0.0203(5) 0.4617(3)
N23 N 0.7709(6) 0.1687(5) 0.4962(4)
N24 N 0.6377(6) 0.1574(5) 0.4830(3)
N25 N 0.5341(5) 0.0416(5) 0.4115(3)
N26 N 0.4740(5) 0.0824(5) 0.3444(3)
N27 N 0.5067(7) 0.1708(6) 0.4401(4)
N28 N 0.4234(5) 0.1990(5) 0.3790(3)
O7 O 0.5098(5) 0.0573(4) 0.2114(2)
O8 O 0.6322(4) 0.1182(3) 0.1398(2)
O9 O 0.8632(4) 0.1061(4) 0.1716(3)
O10 O 0.9755(5) 0.0522(4) 0.2761(3)
O11 O 0.9265(5) -0.0314(4) 0.3958(3)
O12 O 0.7349(4) -0.0699(4) 0.4287(2)
O13 O 0.5726(5) -0.0122(4) 0.3447(3)
O14 O 0.4704(5) 0.3696(4) 0.3127(3)
O15 O 0.6543(4) 0.4150(4) 0.2495(3)
O16 O 0.8861(4) 0.4268(4) 0.2565(2)
O17 O 1.0019(5) 0.3898(4) 0.3371(3)
O18 O 0.9037(7) 0.3130(5) 0.4417(4)
O19 O 0.6964(6) 0.2790(4) 0.4754(4)
O20 O 0.4872(6) 0.3011(5) 0.4209(3)
Nd1A Nd 0.89480(3) 0.48630(3) 0.331211(19)
O16A O 0.6139(4) -0.0732(4) 0.2435(2)
O17A O 0.4981(5) -0.1102(4) 0.1629(3)
Cl1 Cl 0.86154(17) -0.23521(17) 0.47610(10)
Cl2 Cl 0.61242(18) -0.2238(2) 0.46492(12)
Cl3 Cl 0.7401(3) -0.3230(3) 0.57054(19)
Cl4 Cl 0.7473(2) -0.09424(18) 0.56042(11)
Cd1 Cd 0.73744(5) -0.21357(5) 0.51445(3)
Cl5 Cl 0.85008(18) 0.12472(18) 0.61992(10)
Cl6 Cl 0.7793(2) -0.06151(19) 0.69691(13)
Cl7 Cl 0.61888(18) 0.08773(18) 0.62325(12)
Cl8 Cl 0.7498(2) 0.1533(2) 0.73833(14)
Cd2 Cd 0.75042(5) 0.07161(5) 0.66806(3)
O1 O 0.8154(6) 0.0868(6) 0.2889(5)
loop_
_geom_bond_atom_site_label_1
_geom_bond_atom_site_label_2
_geom_bond_site_symmetry_1
_geom_bond_site_symmetry_2
O2 Nd1 1_555 1_555
O3 Nd1 1_555 1_555
O4 Nd1 1_555 1_555
O5 Nd1 1_555 1_555
O6 Nd1 1_555 1_555
Nd1 O7 1_555 1_555
C1 N1 1_555 1_555
C2 H1 1_555 1_555
C3 C2 1_555 1_555
H2 C3 1_555 1_555
C4 N3 1_555 1_555
C5 H3 1_555 1_555
H4 C5 1_555 1_555
C6 H5 1_555 1_555
H6 C6 1_555 1_555
C7 N5 1_555 1_555
C8 H7 1_555 1_555
C9 C8 1_555 1_555
H8 C9 1_555 1_555
C10 N7 1_555 1_555
C11 H9 1_555 1_555
H10 C11 1_555 1_555
C12 H11 1_555 1_555
H12 C12 1_555 1_555
C13 N9 1_555 1_555
C14 H13 1_555 1_555
C15 C14 1_555 1_555
H14 C15 1_555 1_555
C16 N11 1_555 1_555
C17 H15 1_555 1_555
H16 C17 1_555 1_555
C18 H17 1_555 1_555
H18 C18 1_555 1_555
C19 N13 1_555 1_555
C20 H19 1_555 1_555
C21 C20 1_555 1_555
H20 C21 1_555 1_555
C22 N15 1_555 1_555
C23 H21 1_555 1_555
H22 C23 1_555 1_555
C24 H23 1_555 1_555
H24 C24 1_555 1_555
C25 N17 1_555 1_555
C26 H25 1_555 1_555
C27 C26 1_555 1_555
H26 C27 1_555 1_555
C28 N19 1_555 1_555
C29 H27 1_555 1_555
H28 C29 1_555 1_555
C30 H29 1_555 1_555
H30 C30 1_555 1_555
C31 N21 1_555 1_555
C32 H31 1_555 1_555
C33 C32 1_555 1_555
H32 C33 1_555 1_555
C34 N23 1_555 1_555
C35 H33 1_555 1_555
H34 C35 1_555 1_555
C36 H35 1_555 1_555
H36 C36 1_555 1_555
C37 N25 1_555 1_555
C38 H37 1_555 1_555
C39 C38 1_555 1_555
H38 C39 1_555 1_555
C40 N27 1_555 1_555
C41 H39 1_555 1_555
H40 C41 1_555 1_555
C42 H41 1_555 1_555
H42 C42 1_555 1_555
N1 C2 1_555 1_555
N2 C1 1_555 1_555
N3 C2 1_555 1_555
N4 C3 1_555 1_555
N5 C5 1_555 1_555
N6 C7 1_555 1_555
N7 C6 1_555 1_555
N8 C9 1_555 1_555
N9 C11 1_555 1_555
N10 C13 1_555 1_555
N11 C12 1_555 1_555
N12 C15 1_555 1_555
N13 C17 1_555 1_555
N14 C19 1_555 1_555
N15 C18 1_555 1_555
N16 C21 1_555 1_555
N17 C23 1_555 1_555
N18 C25 1_555 1_555
N19 C24 1_555 1_555
N20 C27 1_555 1_555
N21 C29 1_555 1_555
N22 C31 1_555 1_555
N23 C30 1_555 1_555
N24 C33 1_555 1_555
N25 C35 1_555 1_555
N26 C37 1_555 1_555
N27 C36 1_555 1_555
N28 C39 1_555 1_555
O7 C1 1_555 1_555
O8 Nd1 1_555 1_555
O9 C13 1_555 1_555
O10 C19 1_555 1_555
O11 C25 1_555 1_555
O12 C31 1_555 1_555
O13 C37 1_555 1_555
O14 C4 1_555 1_555
O15 C10 1_555 1_555
O16 C16 1_555 1_555
O17 C22 1_555 1_555
O18 C28 1_555 1_555
O19 C34 1_555 1_555
O20 C40 1_555 1_555
Cl1 Cd1 1_555 1_555
Cl2 Cd1 1_555 1_555
Cl3 Cd1 1_555 1_555
Cl4 Cd1 1_555 1_555
Cl5 Cd2 1_555 1_555
Cl6 Cd2 1_555 1_555
Cl7 Cd2 1_555 1_555
Cl8 Cd2 1_555 1_555
Nd1A O16 1_555 1_555
O16A Nd1 1_555 1_555
O17A Nd1 1_555 1_555
C3 N2 1_555 1_555
C4 N4 1_555 1_555
C5 N2 1_555 1_555
C6 N4 1_555 1_555
C7 O8 1_555 1_555
C8 N5 1_555 1_555
C8 N7 1_555 1_555
C9 N6 1_555 1_555
C10 N8 1_555 1_555
C11 N6 1_555 1_555
C12 N8 1_555 1_555
C14 N9 1_555 1_555
C14 N11 1_555 1_555
C15 N10 1_555 1_555
C16 N12 1_555 1_555
C17 N10 1_555 1_555
C18 N12 1_555 1_555
C20 N13 1_555 1_555
C20 N15 1_555 1_555
C21 N14 1_555 1_555
C22 N16 1_555 1_555
C23 N14 1_555 1_555
C24 N16 1_555 1_555
C26 N17 1_555 1_555
C26 N19 1_555 1_555
C27 N18 1_555 1_555
C28 N20 1_555 1_555
C29 N18 1_555 1_555
C30 N20 1_555 1_555
C32 N21 1_555 1_555
C32 N23 1_555 1_555
C33 N22 1_555 1_555
C34 N24 1_555 1_555
C35 N22 1_555 1_555
C36 N24 1_555 1_555
C38 N25 1_555 1_555
C38 N27 1_555 1_555
C39 N26 1_555 1_555
C40 N28 1_555 1_555
C41 N1 1_555 1_555
C41 N26 1_555 1_555
C42 N3 1_555 1_555
C42 N28 1_555 1_555
O17 Nd1A 1_555 1_555

#END
