
#######################################################################
#
#                 Cambridge Crystallographic Data Centre
#                                CCDC 
#
#######################################################################
#
# If this CIF has been generated from an entry in the Cambridge 
# Structural Database, then it will include bibliographic, chemical, 
# crystal, experimental, refinement or atomic coordinate data resulting 
# from the CCDC's data processing and validation procedures.
#
#######################################################################

data_NEWTOZ
_symmetry_cell_setting           triclinic
_symmetry_space_group_name_H-M   'P -1'
_symmetry_Int_Tables_number      2
_space_group_name_Hall           '-P 1'
loop_
_symmetry_equiv_pos_site_id
_symmetry_equiv_pos_as_xyz
1 x,y,z
2 -x,-y,-z
_cell_length_a                   5.738(3)
_cell_length_b                   9.471(5)
_cell_length_c                   10.852(7)
_cell_angle_alpha                64.246(7)
_cell_angle_beta                 80.464(12)
_cell_angle_gamma                89.857(9)
_cell_volume                     522.221
loop_
_atom_site_label
_atom_site_type_symbol
_atom_site_fract_x
_atom_site_fract_y
_atom_site_fract_z
Cu1 Cu 1.0000 1.0000 0.0000
O1 O 1.0898(6) 0.9616(4) 0.1719(3)
O2 O 0.7945(6) 0.7793(5) 0.2530(4)
N1 N 1.1880(9) 0.8117(7) 0.5720(5)
N2 N 0.7964(6) 1.1687(4) 0.0121(4)
O3 O 1.0019(10) 0.6878(7) 0.6348(5)
C1 C 0.9545(10) 0.8471(7) 0.2706(6)
C2 C 1.0099(9) 0.8067(6) 0.4084(5)
C3 C 1.1865(11) 0.8765(8) 0.4398(6)
C4 C 0.9005(11) 0.6900(8) 0.5343(7)
C5 C 1.3672(10) 1.0063(8) 0.3539(6)
H1 H 1.4381 1.0386 0.4126
H2 H 1.2950 1.0932 0.2906
H3 H 1.4870 0.9722 0.3021
C6 C 0.7036(12) 0.5763(8) 0.5660(6)
H4 H 0.7288 0.4777 0.6397
H5 H 0.6930 0.5621 0.4846
H6 H 0.5589 0.6139 0.5946
C7 C 0.8506(7) 1.2476(6) 0.0817(4)
H7 H 0.9702 1.2138 0.1340
C8 C 0.7378(8) 1.3753(6) 0.0791(5)
H8 H 0.7830 1.4265 0.1286
C9 C 0.5594(7) 1.4297(5) 0.0051(5)
C10 C 0.4982(7) 1.3440(6) -0.0632(5)
H9 H 0.3741 1.3719 -0.1124
C11 C 0.6229(7) 1.2182(6) -0.0571(4)
H10 H 0.5815 1.1643 -0.1053
Cu1_2 Cu 0.0000 2.0000 0.0000
O1A O 0.9102(6) 1.0384(4) -0.1719(3)
O2A O 1.2055(6) 1.2207(5) -0.2530(4)
N1A N 0.8120(9) 1.1883(7) -0.5720(5)
N2A N 0.2036(6) 1.8313(4) -0.0121(4)
N2A_2 N 1.2036(6) 0.8313(4) -0.0121(4)
O3A O 0.9981(10) 1.3122(7) -0.6348(5)
C1A C 1.0455(10) 1.1529(7) -0.2706(6)
C2A C 0.9901(9) 1.1933(6) -0.4084(5)
C3A C 0.8135(11) 1.1235(8) -0.4398(6)
C4A C 1.0995(11) 1.3100(8) -0.5343(7)
C5A C 0.6328(10) 0.9937(8) -0.3539(6)
H1A H 0.5619 0.9614 -0.4126
H2A H 0.7050 0.9068 -0.2906
H3A H 0.5130 1.0278 -0.3021
C6A C 1.2964(12) 1.4237(8) -0.5660(6)
H4A H 1.2712 1.5223 -0.6397
H5A H 1.3070 1.4379 -0.4846
H6A H 1.4411 1.3861 -0.5946
C7A C 0.1494(7) 1.7524(6) -0.0817(4)
H7A H 0.0298 1.7862 -0.1340
C8A C 0.2622(8) 1.6247(6) -0.0791(5)
H8A H 0.2170 1.5735 -0.1286
C9A C 0.4406(7) 1.5703(5) -0.0051(5)
C10A C 0.5018(7) 1.6560(6) 0.0632(5)
H9A H 0.6259 1.6281 0.1124
C11A C 0.3771(7) 1.7818(6) 0.0571(4)
H10A H 0.4185 1.8357 0.1053
loop_
_geom_bond_atom_site_label_1
_geom_bond_atom_site_label_2
_geom_bond_site_symmetry_1
_geom_bond_site_symmetry_2
Cu1 O1 1_555 1_555
O1 C1 1_555 1_555
O2 C1 1_555 1_555
N1 O3 1_555 1_555
N2 Cu1 1_555 1_555
O3 C4 1_555 1_555
C1 C2 1_555 1_555
C2 C3 1_555 1_555
C3 N1 1_555 1_555
C4 C2 1_555 1_555
C5 C3 1_555 1_555
H1 C5 1_555 1_555
H2 C5 1_555 1_555
H3 C5 1_555 1_555
C6 C4 1_555 1_555
H4 C6 1_555 1_555
H5 C6 1_555 1_555
H6 C6 1_555 1_555
C7 N2 1_555 1_555
H7 C7 1_555 1_555
C8 C7 1_555 1_555
H8 C8 1_555 1_555
C9 C8 1_555 1_555
C10 C9 1_555 1_555
H9 C10 1_555 1_555
C11 N2 1_555 1_555
H10 C11 1_555 1_555
Cu1_2 N2A 1_555 1_555
O1A Cu1 1_555 1_555
O2A C1A 1_555 1_555
N1A O3A 1_555 1_555
N2A C7A 1_555 1_555
N2A_2 Cu1 1_555 1_555
O3A C4A 1_555 1_555
C1A O1A 1_555 1_555
C2A C1A 1_555 1_555
C3A N1A 1_555 1_555
C4A C2A 1_555 1_555
C5A C3A 1_555 1_555
H1A C5A 1_555 1_555
H2A C5A 1_555 1_555
H3A C5A 1_555 1_555
C6A C4A 1_555 1_555
H4A C6A 1_555 1_555
H5A C6A 1_555 1_555
H6A C6A 1_555 1_555
C7A H7A 1_555 1_555
C8A C7A 1_555 1_555
H8A C8A 1_555 1_555
C9A C9 1_555 1_555
C10A C9A 1_555 1_555
H9A C10A 1_555 1_555
C11A N2A 1_555 1_555
H10A C11A 1_555 1_555
C10 C11 1_555 1_555
C2A C3A 1_555 1_555
C8A C9A 1_555 1_555
C10A C11A 1_555 1_555

#END
