
#######################################################################
#
#                 Cambridge Crystallographic Data Centre
#                                CCDC 
#
#######################################################################
#
# If this CIF has been generated from an entry in the Cambridge 
# Structural Database, then it will include bibliographic, chemical, 
# crystal, experimental, refinement or atomic coordinate data resulting 
# from the CCDC's data processing and validation procedures.
#
#######################################################################

data_NEWVES
_symmetry_cell_setting           monoclinic
_symmetry_space_group_name_H-M   'P 21/n'
_symmetry_Int_Tables_number      14
_space_group_name_Hall           '-P 2yn'
loop_
_symmetry_equiv_pos_site_id
_symmetry_equiv_pos_as_xyz
1 x,y,z
2 1/2-x,1/2+y,1/2-z
3 -x,-y,-z
4 1/2+x,1/2-y,1/2+z
_cell_length_a                   16.847(2)
_cell_length_b                   17.127(2)
_cell_length_c                   28.907(4)
_cell_angle_alpha                90
_cell_angle_beta                 95.491(4)
_cell_angle_gamma                90
_cell_volume                     8302.51
loop_
_atom_site_label
_atom_site_type_symbol
_atom_site_fract_x
_atom_site_fract_y
_atom_site_fract_z
O2 O 0.4977(5) 0.0151(5) 0.6053(3)
O3 O 0.6649(5) -0.1446(5) 0.6602(4)
O4 O 0.7516(6) 0.0021(6) 0.6874(5)
O5 O 0.6592(7) -0.0276(6) 0.5927(3)
O6 O 0.6615(9) 0.0901(9) 0.7379(6)
Pr1 Pr 0.60614(3) -0.01083(3) 0.668541(19)
C1 C 0.4696(5) -0.1750(6) 0.6724(3)
C2 C 0.4146(6) -0.2982(5) 0.6654(4)
H1 H 0.3591 -0.3058 0.6515
C3 C 0.4160(5) -0.2699(5) 0.7169(4)
H2 H 0.3621 -0.2700 0.7278
C4 C 0.4880(5) -0.3870(6) 0.7108(4)
C5 C 0.4612(6) -0.1397(6) 0.7541(4)
H3 H 0.4174 -0.1457 0.7738
H4 H 0.4608 -0.0856 0.7429
C6 C 0.4820(6) -0.3316(6) 0.7913(4)
H5 H 0.4347 -0.3123 0.8050
H6 H 0.4899 -0.3863 0.8007
C7 C 0.6047(6) -0.1174(6) 0.7749(3)
C8 C 0.5441(5) -0.2063(5) 0.8213(3)
H7 H 0.5033 -0.1959 0.8431
C9 C 0.6325(5) -0.1870(5) 0.8434(3)
H8 H 0.6327 -0.1605 0.8738
C10 C 0.6211(6) -0.3206(6) 0.8272(3)
C11 C 0.7339(6) -0.0887(5) 0.8194(3)
H9 H 0.7331 -0.0461 0.7968
H10 H 0.7328 -0.0656 0.8504
C12 C 0.7395(5) -0.2775(6) 0.8778(3)
H11 H 0.7419 -0.3329 0.8865
H12 H 0.7366 -0.2471 0.9063
C13 C 0.8585(6) -0.1216(6) 0.7873(4)
C14 C 0.8424(5) -0.1743(5) 0.8566(3)
H13 H 0.8372 -0.1469 0.8863
C15 C 0.9287(6) -0.1846(5) 0.8476(3)
H14 H 0.9655 -0.1560 0.8704
C16 C 0.8739(5) -0.3081(5) 0.8561(3)
C17 C 1.0040(6) -0.1310(5) 0.7812(4)
H15 H 0.9942 -0.0860 0.7605
H16 H 1.0438 -0.1157 0.8065
C18 C 1.0176(5) -0.3034(6) 0.8481(3)
H17 H 1.0180 -0.3542 0.8637
H18 H 1.0580 -0.2706 0.8653
C19 C 1.0493(6) -0.1855(6) 0.7120(4)
C20 C 1.0842(6) -0.2579(6) 0.7782(3)
H19 H 1.1305 -0.2375 0.7983
C21 C 1.1092(6) -0.3030(6) 0.7364(4)
H20 H 1.1665 -0.3170 0.7398
C22 C 1.0256(6) -0.3800(5) 0.7769(4)
C23 C 1.1225(6) -0.2529(6) 0.6544(4)
H21 H 1.1270 -0.1997 0.6425
H22 H 1.1764 -0.2749 0.6592
C24 C 1.0633(7) -0.4349(6) 0.7020(4)
H23 H 1.0367 -0.4811 0.7133
H24 H 1.1196 -0.4480 0.7006
C25 C 1.0238(7) -0.2683(6) 0.5865(4)
C26 C 1.0734(6) -0.3816(6) 0.6212(3)
H25 H 1.1275 -0.4044 0.6225
C27 C 1.0224(6) -0.4046(6) 0.5761(4)
H26 H 1.0559 -0.4281 0.5535
C28 C 0.9692(6) -0.4669(6) 0.6355(4)
C29 C 0.9401(6) -0.3103(7) 0.5172(3)
H27 H 0.9349 -0.2534 0.5143
H28 H 0.9658 -0.3292 0.4903
C30 C 0.9203(6) -0.5105(6) 0.5578(4)
H29 H 0.9517 -0.5247 0.5323
H30 H 0.9104 -0.5583 0.5750
C31 C 0.7967(8) -0.2925(6) 0.5158(4)
C32 C 0.8375(6) -0.4199(6) 0.5038(3)
H31 H 0.8612 -0.4374 0.4755
C33 C 0.7427(6) -0.4113(6) 0.4941(4)
H32 H 0.7250 -0.4241 0.4614
C34 C 0.7725(6) -0.5117(6) 0.5488(3)
C35 C 0.6541(8) -0.2949(7) 0.4948(5)
H33 H 0.6316 -0.3114 0.4638
H34 H 0.6629 -0.2385 0.4934
C36 C 0.6346(7) -0.4952(6) 0.5184(4)
H35 H 0.6179 -0.4964 0.4849
H36 H 0.6334 -0.5491 0.5296
C37 C 0.5691(8) -0.2537(6) 0.5542(4)
C38 C 0.5428(7) -0.3754(6) 0.5244(3)
H37 H 0.5139 -0.3804 0.4931
C39 C 0.4837(7) -0.3582(6) 0.5610(4)
H38 H 0.4277 -0.3616 0.5473
C40 C 0.5543(6) -0.4719(6) 0.5831(4)
C41 C 0.4504(7) -0.2274(6) 0.5931(3)
H39 H 0.3963 -0.2381 0.5791
H40 H 0.4642 -0.1740 0.5848
C42 C 0.4495(6) -0.4270(6) 0.6317(4)
H41 H 0.3940 -0.4284 0.6180
H42 H 0.4619 -0.4781 0.6459
N1 N 0.4514(5) -0.2326(4) 0.6442(3)
N2 N 0.4489(5) -0.1910(4) 0.7153(3)
N3 N 0.4567(4) -0.3691(4) 0.6672(3)
N4 N 0.4677(5) -0.3277(5) 0.7409(3)
N5 N 0.5368(5) -0.1552(4) 0.7816(3)
N6 N 0.6628(4) -0.1376(4) 0.8091(2)
N7 N 0.5491(5) -0.2876(5) 0.8094(3)
N8 N 0.6691(4) -0.2642(4) 0.8478(3)
N9 N 0.8054(5) -0.1321(5) 0.8180(3)
N10 N 0.9290(4) -0.1531(5) 0.8007(3)
N11 N 0.8119(4) -0.2570(4) 0.8576(3)
N12 N 0.9398(5) -0.2676(4) 0.8507(3)
N13 N 1.0345(4) -0.1947(4) 0.7558(3)
N14 N 1.0891(5) -0.2497(5) 0.6986(3)
N15 N 1.0404(5) -0.3149(5) 0.8012(3)
N16 N 1.0572(5) -0.3712(4) 0.7346(3)
N17 N 1.0758(6) -0.2989(5) 0.6204(3)
N18 N 0.9917(7) -0.3286(6) 0.5598(3)
N19 N 1.0276(5) -0.4159(5) 0.6555(3)
N20 N 0.9656(5) -0.4572(5) 0.5883(3)
N21 N 0.8618(5) -0.3440(5) 0.5161(3)
N22 N 0.7284(5) -0.3304(5) 0.5034(3)
N23 N 0.8455(6) -0.4785(5) 0.5389(3)
N24 N 0.7153(5) -0.4688(5) 0.5244(3)
N25 N 0.5944(7) -0.3084(5) 0.5264(3)
N26 N 0.5044(5) -0.2804(5) 0.5742(3)
N27 N 0.5769(5) -0.4519(5) 0.5403(3)
N28 N 0.5006(5) -0.4146(5) 0.5949(3)
O7 O 0.4984(4) -0.1088(4) 0.6626(3)
O8 O 0.6141(4) -0.0713(4) 0.7436(2)
O9 O 0.8484(4) -0.0829(4) 0.7489(3)
O10 O 1.0286(5) -0.1302(5) 0.6865(3)
O11 O 1.0107(6) -0.1992(5) 0.5793(3)
O12 O 0.8012(7) -0.2207(5) 0.5232(4)
O13 O 0.5974(7) -0.1883(5) 0.5586(3)
O14 O 0.5244(5) -0.4459(4) 0.7247(3)
O15 O 0.6375(4) -0.3903(4) 0.8281(3)
O16 O 0.8675(4) -0.3784(4) 0.8607(3)
O17 O 0.9921(5) -0.4398(4) 0.7886(2)
O18 O 0.9285(5) -0.5106(5) 0.6573(3)
O19 O 0.7651(4) -0.5674(4) 0.5727(3)
O20 O 0.5736(5) -0.5296(5) 0.6056(3)
Pr1A Pr 0.89386(3) -0.51083(3) 0.831459(19)
O16A O 0.6325(4) 0.1216(4) 0.6393(3)
O17A O 0.5079(5) 0.0602(4) 0.7114(2)
Cl1 Cl 0.35127(18) -0.62196(19) 0.62012(9)
Cl2 Cl 0.11916(18) -0.58425(19) 0.62372(12)
Cl3 Cl 0.2799(2) -0.4370(2) 0.69721(12)
Cl4 Cl 0.2502(2) -0.6515(3) 0.73770(14)
Cd1 Cd 0.25125(5) -0.56908(5) 0.66775(3)
Cl5 Cl 0.36120(17) -0.26820(18) 0.47571(9)
Cl6 Cl 0.2481(2) -0.4072(2) 0.56073(11)
Cl7 Cl 0.11335(18) -0.2805(2) 0.46556(12)
Cl8 Cl 0.2397(3) -0.1790(3) 0.57046(18)
Cd2 Cd 0.23793(5) -0.28887(5) 0.51470(3)
O1 O 0.6836(6) -0.4112(6) 0.7122(4)
loop_
_geom_bond_atom_site_label_1
_geom_bond_atom_site_label_2
_geom_bond_site_symmetry_1
_geom_bond_site_symmetry_2
O2 Pr1 1_555 1_555
O3 Pr1 1_555 1_555
O4 Pr1 1_555 1_555
O5 Pr1 1_555 1_555
O6 Pr1 1_555 1_555
Pr1 O7 1_555 1_555
C1 N1 1_555 1_555
C2 H1 1_555 1_555
C3 C2 1_555 1_555
H2 C3 1_555 1_555
C4 N3 1_555 1_555
C5 H3 1_555 1_555
H4 C5 1_555 1_555
C6 H5 1_555 1_555
H6 C6 1_555 1_555
C7 N5 1_555 1_555
C8 H7 1_555 1_555
C9 C8 1_555 1_555
H8 C9 1_555 1_555
C10 N7 1_555 1_555
C11 H9 1_555 1_555
H10 C11 1_555 1_555
C12 H11 1_555 1_555
H12 C12 1_555 1_555
C13 N9 1_555 1_555
C14 H13 1_555 1_555
C15 C14 1_555 1_555
H14 C15 1_555 1_555
C16 N11 1_555 1_555
C17 H15 1_555 1_555
H16 C17 1_555 1_555
C18 H17 1_555 1_555
H18 C18 1_555 1_555
C19 N13 1_555 1_555
C20 H19 1_555 1_555
C21 C20 1_555 1_555
H20 C21 1_555 1_555
C22 N15 1_555 1_555
C23 H21 1_555 1_555
H22 C23 1_555 1_555
C24 H23 1_555 1_555
H24 C24 1_555 1_555
C25 N17 1_555 1_555
C26 H25 1_555 1_555
C27 C26 1_555 1_555
H26 C27 1_555 1_555
C28 N19 1_555 1_555
C29 H27 1_555 1_555
H28 C29 1_555 1_555
C30 H29 1_555 1_555
H30 C30 1_555 1_555
C31 N21 1_555 1_555
C32 H31 1_555 1_555
C33 C32 1_555 1_555
H32 C33 1_555 1_555
C34 N23 1_555 1_555
C35 H33 1_555 1_555
H34 C35 1_555 1_555
C36 H35 1_555 1_555
H36 C36 1_555 1_555
C37 N25 1_555 1_555
C38 H37 1_555 1_555
C39 C38 1_555 1_555
H38 C39 1_555 1_555
C40 N27 1_555 1_555
C41 H39 1_555 1_555
H40 C41 1_555 1_555
C42 H41 1_555 1_555
H42 C42 1_555 1_555
N1 C2 1_555 1_555
N2 C1 1_555 1_555
N3 C2 1_555 1_555
N4 C3 1_555 1_555
N5 C5 1_555 1_555
N6 C7 1_555 1_555
N7 C6 1_555 1_555
N8 C9 1_555 1_555
N9 C11 1_555 1_555
N10 C13 1_555 1_555
N11 C12 1_555 1_555
N12 C15 1_555 1_555
N13 C17 1_555 1_555
N14 C19 1_555 1_555
N15 C18 1_555 1_555
N16 C21 1_555 1_555
N17 C23 1_555 1_555
N18 C25 1_555 1_555
N19 C24 1_555 1_555
N20 C27 1_555 1_555
N21 C29 1_555 1_555
N22 C31 1_555 1_555
N23 C30 1_555 1_555
N24 C33 1_555 1_555
N25 C35 1_555 1_555
N26 C37 1_555 1_555
N27 C36 1_555 1_555
N28 C39 1_555 1_555
O7 C1 1_555 1_555
O8 Pr1 1_555 1_555
O9 C13 1_555 1_555
O10 C19 1_555 1_555
O11 C25 1_555 1_555
O12 C31 1_555 1_555
O13 C37 1_555 1_555
O14 C4 1_555 1_555
O15 C10 1_555 1_555
O16 C16 1_555 1_555
O17 C22 1_555 1_555
O18 C28 1_555 1_555
O19 C34 1_555 1_555
O20 C40 1_555 1_555
Cl1 Cd1 1_555 1_555
Cl2 Cd1 1_555 1_555
Cl3 Cd1 1_555 1_555
Cl4 Cd1 1_555 1_555
Cl5 Cd2 1_555 1_555
Cl6 Cd2 1_555 1_555
Cl7 Cd2 1_555 1_555
Cl8 Cd2 1_555 1_555
Pr1A O16 1_555 1_555
O16A Pr1 1_555 1_555
O17A Pr1 1_555 1_555
C3 N2 1_555 1_555
C4 N4 1_555 1_555
C5 N2 1_555 1_555
C6 N4 1_555 1_555
C7 O8 1_555 1_555
C8 N5 1_555 1_555
C8 N7 1_555 1_555
C9 N6 1_555 1_555
C10 N8 1_555 1_555
C11 N6 1_555 1_555
C12 N8 1_555 1_555
C14 N9 1_555 1_555
C14 N11 1_555 1_555
C15 N10 1_555 1_555
C16 N12 1_555 1_555
C17 N10 1_555 1_555
C18 N12 1_555 1_555
C20 N13 1_555 1_555
C20 N15 1_555 1_555
C21 N14 1_555 1_555
C22 N16 1_555 1_555
C23 N14 1_555 1_555
C24 N16 1_555 1_555
C26 N17 1_555 1_555
C26 N19 1_555 1_555
C27 N18 1_555 1_555
C28 N20 1_555 1_555
C29 N18 1_555 1_555
C30 N20 1_555 1_555
C32 N21 1_555 1_555
C32 N23 1_555 1_555
C33 N22 1_555 1_555
C34 N24 1_555 1_555
C35 N22 1_555 1_555
C36 N24 1_555 1_555
C38 N25 1_555 1_555
C38 N27 1_555 1_555
C39 N26 1_555 1_555
C40 N28 1_555 1_555
C41 N1 1_555 1_555
C41 N26 1_555 1_555
C42 N3 1_555 1_555
C42 N28 1_555 1_555
O17 Pr1A 1_555 1_555

#END
