
#######################################################################
#
#                 Cambridge Crystallographic Data Centre
#                                CCDC 
#
#######################################################################
#
# If this CIF has been generated from an entry in the Cambridge 
# Structural Database, then it will include bibliographic, chemical, 
# crystal, experimental, refinement or atomic coordinate data resulting 
# from the CCDC's data processing and validation procedures.
#
#######################################################################

data_NEWVOC
_symmetry_cell_setting           monoclinic
_symmetry_space_group_name_H-M   'P 21/n'
_symmetry_Int_Tables_number      14
_space_group_name_Hall           '-P 2yn'
loop_
_symmetry_equiv_pos_site_id
_symmetry_equiv_pos_as_xyz
1 x,y,z
2 1/2-x,1/2+y,1/2-z
3 -x,-y,-z
4 1/2+x,1/2-y,1/2+z
_cell_length_a                   16.8742(14)
_cell_length_b                   17.1423(14)
_cell_length_c                   28.859(2)
_cell_angle_alpha                90
_cell_angle_beta                 95.358(3)
_cell_angle_gamma                90
_cell_volume                     8311.36
loop_
_atom_site_label
_atom_site_type_symbol
_atom_site_fract_x
_atom_site_fract_y
_atom_site_fract_z
Cl1 Cl 0.12020(8) 0.58332(8) 0.12414(5)
Cl2 Cl 0.35158(8) 0.62079(8) 0.12070(4)
Cl3 Cl 0.28049(9) 0.43611(8) 0.19845(6)
Cl4 Cl 0.24959(9) 0.65015(10) 0.23955(6)
Cd1 Cd 0.25146(2) 0.56801(2) 0.168763(14)
Cl5 Cl 0.63700(8) 0.73213(8) 0.02422(4)
Cl6 Cl 0.88720(8) 0.71901(10) 0.03367(5)
Cl7 Cl 0.74974(9) 0.59419(8) -0.06156(5)
Cl8 Cl 0.75916(12) 0.82409(12) -0.06926(8)
Cd2 Cd 0.76102(2) 0.71214(2) -0.014696(14)
O2 O 0.4958(3) -0.0177(2) 0.10385(14)
O3 O 0.6654(2) 0.1439(2) 0.15997(15)
O4 O 0.7538(3) -0.0014(2) 0.18508(18)
O5 O 0.6582(3) 0.0290(3) 0.08966(14)
O6 O 0.6647(3) -0.0929(3) 0.23568(19)
Ce1 Ce 0.605838(16) 0.009638(14) 0.167853(9)
C1 C 0.6048(3) 0.1166(2) 0.27517(15)
C2 C 0.6317(3) 0.1857(2) 0.34403(15)
H1 H 0.6321 0.1588 0.3744
C3 C 0.5460(3) 0.2044(2) 0.32263(16)
H2 H 0.5060 0.1931 0.3447
C4 C 0.6203(3) 0.3191(3) 0.32966(15)
C5 C 0.4617(3) 0.1400(2) 0.25482(16)
H3 H 0.4609 0.0860 0.2436
H4 H 0.4181 0.1459 0.2748
C6 C 0.4824(3) 0.3316(3) 0.29188(18)
H5 H 0.4344 0.3136 0.3054
H6 H 0.4904 0.3865 0.3005
C7 C 0.4689(3) 0.1722(2) 0.17251(16)
C8 C 0.4162(3) 0.2693(2) 0.21798(16)
H7 H 0.3629 0.2697 0.2297
C9 C 0.4131(3) 0.2973(2) 0.16655(16)
H8 H 0.3577 0.3060 0.1531
C10 C 0.4880(3) 0.3860(3) 0.21339(18)
C11 C 0.4496(3) 0.2268(2) 0.09373(16)
H9 H 0.4623 0.1730 0.0857
H10 H 0.3958 0.2382 0.0796
C12 C 0.4507(3) 0.4271(3) 0.13315(19)
H11 H 0.4632 0.4780 0.1474
H12 H 0.3953 0.4286 0.1197
C13 C 0.5694(3) 0.2512(3) 0.05346(17)
C14 C 0.4827(3) 0.3581(2) 0.06054(16)
H13 H 0.4268 0.3622 0.0468
C15 C 0.5436(3) 0.3772(3) 0.02458(17)
H14 H 0.5164 0.3829 -0.0072
C16 C 0.5538(3) 0.4711(3) 0.08393(19)
C17 C 0.6538(4) 0.2947(3) -0.00626(19)
H15 H 0.6618 0.2382 -0.0078
H16 H 0.6311 0.3120 -0.0371
C18 C 0.6325(3) 0.4968(2) 0.01763(19)
H17 H 0.6314 0.5506 0.0291
H18 H 0.6147 0.4976 -0.0157
C19 C 0.7972(4) 0.2903(3) 0.01544(19)
C20 C 0.7443(3) 0.4130(3) -0.00753(17)
H19 H 0.7262 0.4253 -0.0403
C21 C 0.8348(3) 0.4195(3) 0.00177(17)
H20 H 0.8596 0.4363 -0.0264
C22 C 0.7732(3) 0.5106(2) 0.04731(16)
C23 C 0.9401(4) 0.3136(3) 0.01623(18)
H21 H 0.9651 0.3397 -0.0089
H22 H 0.9389 0.2576 0.0094
C24 C 0.9199(3) 0.5080(3) 0.05709(19)
H23 H 0.9103 0.5563 0.0738
H24 H 0.9512 0.5214 0.0313
C25 C 1.0251(3) 0.2671(3) 0.08543(18)
C26 C 1.0227(3) 0.4014(3) 0.07497(17)
H25 H 1.0557 0.4236 0.0516
C27 C 1.0734(3) 0.3802(3) 0.11982(16)
H26 H 1.1273 0.4034 0.1208
C28 C 0.9692(3) 0.4647(3) 0.13515(18)
C29 C 1.1233(3) 0.2529(3) 0.15345(17)
H27 H 1.1767 0.2758 0.1585
H28 H 1.1290 0.2002 0.1411
C30 C 1.0645(3) 0.4330(3) 0.20147(17)
H29 H 1.0397 0.4800 0.2129
H30 H 1.1210 0.4445 0.1993
C31 C 1.0491(3) 0.1837(3) 0.21042(18)
C32 C 1.1092(3) 0.3006(2) 0.23542(16)
H31 H 1.1665 0.3142 0.2392
C33 C 1.0832(3) 0.2549(2) 0.27767(16)
H32 H 1.1296 0.2347 0.2977
C34 C 1.0269(3) 0.3792(3) 0.27615(16)
C35 C 1.0027(3) 0.1304(2) 0.28177(17)
H33 H 1.0421 0.1143 0.3071
H34 H 0.9921 0.0855 0.2611
C36 C 1.0183(3) 0.3031(2) 0.34848(16)
H35 H 1.0186 0.3543 0.3636
H36 H 1.0587 0.2708 0.3659
C37 C 0.8585(3) 0.1188(2) 0.28609(17)
C38 C 0.9289(3) 0.1839(2) 0.34788(15)
H37 H 0.9651 0.1553 0.3709
C39 C 0.8405(3) 0.1755(2) 0.35748(14)
H38 H 0.8349 0.1481 0.3872
C40 C 0.8738(3) 0.3072(2) 0.35787(14)
C41 C 0.7327(3) 0.0889(2) 0.31831(16)
H39 H 0.7313 0.0640 0.3488
H40 H 0.7315 0.0475 0.2948
C42 C 0.7397(3) 0.2765(3) 0.37866(15)
H41 H 0.7368 0.2470 0.4076
H42 H 0.7419 0.3320 0.3867
N1 N 0.6626(2) 0.13731(19) 0.30920(12)
N2 N 0.5370(2) 0.15379(19) 0.28274(13)
N3 N 0.6680(2) 0.26185(19) 0.34824(12)
N4 N 0.5498(2) 0.2870(2) 0.31217(14)
N5 N 0.4476(2) 0.19120(19) 0.21574(13)
N6 N 0.4502(2) 0.23276(19) 0.14384(12)
N7 N 0.4690(2) 0.3262(2) 0.24175(13)
N8 N 0.4584(2) 0.36844(19) 0.16870(14)
N9 N 0.5046(2) 0.2782(2) 0.07427(13)
N10 N 0.5963(3) 0.3106(2) 0.02734(14)
N11 N 0.5015(2) 0.4146(2) 0.09634(14)
N12 N 0.5772(2) 0.4504(2) 0.04151(14)
N13 N 0.7282(3) 0.3308(2) 0.00371(15)
N14 N 0.8592(3) 0.3413(2) 0.01601(15)
N15 N 0.7137(2) 0.4681(2) 0.02378(13)
N16 N 0.8451(2) 0.4773(2) 0.03832(14)
N17 N 0.9894(3) 0.3264(2) 0.05989(15)
N18 N 1.0765(3) 0.2986(2) 0.11958(14)
N19 N 0.9661(2) 0.4563(2) 0.08812(13)
N20 N 1.0271(2) 0.4142(2) 0.15534(13)
N21 N 1.0902(2) 0.2475(2) 0.19759(13)
N22 N 1.0357(2) 0.19254(19) 0.25603(14)
N23 N 1.0579(2) 0.36975(19) 0.23478(13)
N24 N 1.0397(2) 0.31269(19) 0.30147(12)
N25 N 0.9300(2) 0.1523(2) 0.30114(13)
N26 N 0.8051(2) 0.1314(2) 0.31777(12)
N27 N 0.9409(2) 0.26746(19) 0.35077(12)
N28 N 0.8127(2) 0.25536(19) 0.35865(12)
O7 O 0.61336(18) 0.07128(17) 0.24354(10)
O8 O 0.49638(19) 0.10942(16) 0.16194(11)
O9 O 0.5943(3) 0.1848(2) 0.05584(14)
O10 O 0.8015(3) 0.2202(2) 0.02318(16)
O11 O 1.0128(3) 0.1970(2) 0.07768(14)
O12 O 1.0286(2) 0.1285(2) 0.18603(13)
O13 O 0.84612(19) 0.08296(18) 0.24917(11)
O14 O 0.6358(2) 0.38957(17) 0.32985(12)
O15 O 0.5255(2) 0.44413(17) 0.22577(13)
O16 O 0.5753(2) 0.52781(18) 0.10650(14)
O17 O 0.76448(19) 0.56715(18) 0.07155(11)
O18 O 0.9281(2) 0.50878(19) 0.15615(12)
O19 O 0.9931(2) 0.43860(16) 0.28886(11)
O20 O 0.86887(19) 0.37777(16) 0.36245(11)
Ce1A Ce 0.894162(16) 0.509638(14) 0.332147(9)
O19A O 0.5069(2) -0.06140(16) 0.21114(11)
O20A O 0.63113(19) -0.12223(16) 0.13755(11)
O1 O 0.6841(3) 0.4091(3) 0.21177(19)
loop_
_geom_bond_atom_site_label_1
_geom_bond_atom_site_label_2
_geom_bond_site_symmetry_1
_geom_bond_site_symmetry_2
Cl1 Cd1 1_555 1_555
Cl2 Cd1 1_555 1_555
Cl3 Cd1 1_555 1_555
Cl4 Cd1 1_555 1_555
Cl5 Cd2 1_555 1_555
Cl6 Cd2 1_555 1_555
Cl7 Cd2 1_555 1_555
Cl8 Cd2 1_555 1_555
O2 Ce1 1_555 1_555
O3 Ce1 1_555 1_555
O4 Ce1 1_555 1_555
O5 Ce1 1_555 1_555
O6 Ce1 1_555 1_555
Ce1 O7 1_555 1_555
C1 N1 1_555 1_555
C2 H1 1_555 1_555
C3 C2 1_555 1_555
H2 C3 1_555 1_555
C4 N3 1_555 1_555
C5 H3 1_555 1_555
H4 C5 1_555 1_555
C6 H5 1_555 1_555
H6 C6 1_555 1_555
C7 N5 1_555 1_555
C8 H7 1_555 1_555
C9 C8 1_555 1_555
H8 C9 1_555 1_555
C10 N7 1_555 1_555
C11 H9 1_555 1_555
H10 C11 1_555 1_555
C12 H11 1_555 1_555
H12 C12 1_555 1_555
C13 N9 1_555 1_555
C14 H13 1_555 1_555
C15 C14 1_555 1_555
H14 C15 1_555 1_555
C16 N11 1_555 1_555
C17 H15 1_555 1_555
H16 C17 1_555 1_555
C18 H17 1_555 1_555
H18 C18 1_555 1_555
C19 N13 1_555 1_555
C20 H19 1_555 1_555
C21 C20 1_555 1_555
H20 C21 1_555 1_555
C22 N15 1_555 1_555
C23 H21 1_555 1_555
H22 C23 1_555 1_555
C24 H23 1_555 1_555
H24 C24 1_555 1_555
C25 N17 1_555 1_555
C26 H25 1_555 1_555
C27 C26 1_555 1_555
H26 C27 1_555 1_555
C28 N19 1_555 1_555
C29 H27 1_555 1_555
H28 C29 1_555 1_555
C30 H29 1_555 1_555
H30 C30 1_555 1_555
C31 N21 1_555 1_555
C32 H31 1_555 1_555
C33 C32 1_555 1_555
H32 C33 1_555 1_555
C34 N23 1_555 1_555
C35 H33 1_555 1_555
H34 C35 1_555 1_555
C36 H35 1_555 1_555
H36 C36 1_555 1_555
C37 N25 1_555 1_555
C38 H37 1_555 1_555
C39 C38 1_555 1_555
H38 C39 1_555 1_555
C40 N27 1_555 1_555
C41 H39 1_555 1_555
H40 C41 1_555 1_555
C42 H41 1_555 1_555
H42 C42 1_555 1_555
N1 C2 1_555 1_555
N2 C1 1_555 1_555
N3 C2 1_555 1_555
N4 C3 1_555 1_555
N5 C5 1_555 1_555
N6 C7 1_555 1_555
N7 C6 1_555 1_555
N8 C9 1_555 1_555
N9 C11 1_555 1_555
N10 C13 1_555 1_555
N11 C12 1_555 1_555
N12 C15 1_555 1_555
N13 C17 1_555 1_555
N14 C19 1_555 1_555
N15 C18 1_555 1_555
N16 C21 1_555 1_555
N17 C23 1_555 1_555
N18 C25 1_555 1_555
N19 C24 1_555 1_555
N20 C27 1_555 1_555
N21 C29 1_555 1_555
N22 C31 1_555 1_555
N23 C30 1_555 1_555
N24 C33 1_555 1_555
N25 C35 1_555 1_555
N26 C37 1_555 1_555
N27 C36 1_555 1_555
N28 C39 1_555 1_555
O7 C1 1_555 1_555
O8 Ce1 1_555 1_555
O9 C13 1_555 1_555
O10 C19 1_555 1_555
O11 C25 1_555 1_555
O12 C31 1_555 1_555
O13 C37 1_555 1_555
O14 C4 1_555 1_555
O15 C10 1_555 1_555
O16 C16 1_555 1_555
O17 C22 1_555 1_555
O18 C28 1_555 1_555
O19 C34 1_555 1_555
O20 C40 1_555 1_555
Ce1A O19 1_555 1_555
O19A Ce1 1_555 1_555
O20A Ce1 1_555 1_555
C3 N2 1_555 1_555
C4 N4 1_555 1_555
C5 N2 1_555 1_555
C6 N4 1_555 1_555
C7 O8 1_555 1_555
C8 N5 1_555 1_555
C8 N7 1_555 1_555
C9 N6 1_555 1_555
C10 N8 1_555 1_555
C11 N6 1_555 1_555
C12 N8 1_555 1_555
C14 N9 1_555 1_555
C14 N11 1_555 1_555
C15 N10 1_555 1_555
C16 N12 1_555 1_555
C17 N10 1_555 1_555
C18 N12 1_555 1_555
C20 N13 1_555 1_555
C20 N15 1_555 1_555
C21 N14 1_555 1_555
C22 N16 1_555 1_555
C23 N14 1_555 1_555
C24 N16 1_555 1_555
C26 N17 1_555 1_555
C26 N19 1_555 1_555
C27 N18 1_555 1_555
C28 N20 1_555 1_555
C29 N18 1_555 1_555
C30 N20 1_555 1_555
C32 N21 1_555 1_555
C32 N23 1_555 1_555
C33 N22 1_555 1_555
C34 N24 1_555 1_555
C35 N22 1_555 1_555
C36 N24 1_555 1_555
C38 N25 1_555 1_555
C38 N27 1_555 1_555
C39 N26 1_555 1_555
C40 N28 1_555 1_555
C41 N1 1_555 1_555
C41 N26 1_555 1_555
C42 N3 1_555 1_555
C42 N28 1_555 1_555
O20 Ce1A 1_555 1_555

#END
