
#######################################################################
#
#                 Cambridge Crystallographic Data Centre
#                                CCDC 
#
#######################################################################
#
# If this CIF has been generated from an entry in the Cambridge 
# Structural Database, then it will include bibliographic, chemical, 
# crystal, experimental, refinement or atomic coordinate data resulting 
# from the CCDC's data processing and validation procedures.
#
#######################################################################

data_NEWVUI
_symmetry_cell_setting           triclinic
_symmetry_space_group_name_H-M   'P -1'
_symmetry_Int_Tables_number      2
_space_group_name_Hall           '-P 1'
loop_
_symmetry_equiv_pos_site_id
_symmetry_equiv_pos_as_xyz
1 x,y,z
2 -x,-y,-z
_cell_length_a                   16.966(2)
_cell_length_b                   17.180(2)
_cell_length_c                   20.557(4)
_cell_angle_alpha                98.071(7)
_cell_angle_beta                 113.011(7)
_cell_angle_gamma                109.639(5)
_cell_volume                     4932.4
loop_
_atom_site_label
_atom_site_type_symbol
_atom_site_fract_x
_atom_site_fract_y
_atom_site_fract_z
Cd1 Cd 1.26098(6) 1.46190(7) 1.11790(6)
Cl1 Cl 1.3315(2) 1.4994(2) 1.2538(2)
Cl2 Cl 1.3840(2) 1.5277(3) 1.0831(2)
Cl3 Cl 1.1856(2) 1.3035(2) 1.0590(2)
Cl4 Cl 1.1326(2) 1.5081(3) 1.0759(3)
Cl5 Cl 1.6879(5) 1.1022(4) 1.1662(4)
Cl6 Cl 1.8097(6) 1.3262(7) 1.3842(4)
Cl7 Cl 2.2703(4) 1.2288(4) 1.3693(5)
Cl8 Cl 2.0000 1.0000 1.0000
Cl10 Cl 1.6840(7) 0.7006(5) 1.1084(6)
Cl11 Cl 2.4178(5) 1.1037(5) 1.4882(5)
O1 O 1.5992(5) 0.8251(5) 1.0380(4)
O2 O 1.7596(5) 0.8228(4) 1.0221(4)
O3 O 2.1072(5) 1.5854(5) 1.3710(4)
O4 O 2.1462(6) 1.3691(5) 1.4797(4)
O5 O 2.2690(5) 1.5666(5) 1.3671(4)
O6 O 1.4663(5) 0.8208(6) 0.8735(5)
O7 O 1.7797(5) 0.9073(6) 0.9145(4)
O8 O 1.9688(5) 1.3845(6) 1.3319(5)
O9 O 2.2800(5) 1.4178(5) 1.4115(5)
O10 O 1.6559(5) 1.0050(4) 0.8948(4)
O11 O 2.0825(6) 1.5043(6) 1.4776(5)
O12 O 1.5804(6) 0.9711(6) 0.9976(6)
Ce1 Ce 1.64278(3) 0.87700(3) 0.94352(3)
Ce2 Ce 2.14466(3) 1.45901(3) 1.39241(3)
C1 C 1.4384(6) 1.2132(6) 1.2578(5)
C2 C 1.4976(6) 1.2567(6) 1.3856(5)
H1 H 1.4579 1.2364 1.4100
C3 C 1.4838(7) 1.3320(6) 1.3560(6)
H2 H 1.4400 1.3493 1.3682
C4 C 1.6401(6) 1.3797(6) 1.4416(5)
C5 C 1.4024(6) 1.3333(6) 1.2222(5)
H3 H 1.3492 1.2867 1.1775
H4 H 1.3766 1.3670 1.2433
C6 C 1.6002(6) 1.4857(6) 1.3827(5)
H5 H 1.6598 1.5274 1.4261
H6 H 1.5504 1.5032 1.3814
C7 C 1.4743(6) 1.3591(6) 1.1419(6)
C8 C 1.5329(6) 1.4786(5) 1.2448(5)
H7 H 1.5005 1.5152 1.2512
C9 C 1.5824(6) 1.5062(6) 1.1985(5)
H8 H 1.5708 1.5538 1.1804
C10 C 1.6944(7) 1.5246(6) 1.3154(6)
C11 C 1.5527(7) 1.4262(6) 1.0689(6)
H9 H 1.5000 1.3755 1.0272
H10 H 1.5503 1.4786 1.0562
C12 C 1.7580(7) 1.5839(6) 1.2369(6)
H11 H 1.8150 1.6162 1.2851
H12 H 1.7419 1.6265 1.2142
C13 C 1.6446(6) 1.3578(6) 1.0383(5)
C14 C 1.7261(6) 1.5052(6) 1.1088(5)
H13 H 1.7139 1.5521 1.0900
C15 C 1.7909(6) 1.4777(6) 1.0837(5)
H14 H 1.8062 1.5090 1.0503
C16 C 1.8695(6) 1.5371(6) 1.2151(6)
C17 C 1.7540(7) 1.3355(6) 0.9939(6)
H15 H 1.6967 1.2822 0.9601
H16 H 1.7708 1.3709 0.9638
C18 C 1.9637(7) 1.5087(6) 1.1556(6)
H17 H 2.0156 1.5466 1.2051
H18 H 1.9724 1.5369 1.1191
C19 C 1.8149(6) 1.2274(6) 1.0223(5)
C20 C 1.9261(7) 1.3682(6) 1.0617(6)
H19 H 1.9389 1.4015 1.0285
C21 C 1.9767(6) 1.3062(6) 1.0737(5)
H20 H 2.0100 1.3071 1.0434
C22 C 2.0340(6) 1.4075(6) 1.1891(5)
C23 C 1.9060(6) 1.1401(5) 1.0360(6)
H21 H 1.9574 1.1474 1.0233
H22 H 1.8467 1.0961 0.9936
C24 C 2.1001(6) 1.3016(5) 1.1915(6)
H23 H 2.1264 1.2836 1.1605
H24 H 2.1535 1.3460 1.2375
C25 C 1.8576(6) 1.0445(5) 1.1061(5)
C26 C 2.0173(6) 1.1392(6) 1.1648(5)
H25 H 2.0619 1.1276 1.1496
C27 C 1.9957(6) 1.0859(6) 1.2155(5)
H26 H 2.0337 1.0522 1.2277
C28 C 2.0578(6) 1.2326(6) 1.2764(6)
C29 C 1.8456(7) 0.9591(6) 1.1917(6)
H27 H 1.8852 0.9284 1.2091
H28 H 1.7875 0.9181 1.1468
C30 C 2.0376(6) 1.1367(6) 1.3522(5)
H29 H 2.0643 1.0940 1.3565
H30 H 2.0845 1.1908 1.3929
C31 C 1.7308(7) 0.9661(6) 1.2355(6)
C32 C 1.8835(7) 1.0110(6) 1.3286(5)
H31 H 1.9161 0.9728 1.3406
C33 C 1.8225(7) 1.0059(6) 1.3648(6)
H32 H 1.8216 0.9624 1.3917
C34 C 1.9368(7) 1.1467(6) 1.4124(6)
C35 C 1.6435(8) 0.9457(7) 1.3089(6)
H33 H 1.6509 0.9109 1.3428
H34 H 1.5915 0.9070 1.2598
C36 C 1.8378(7) 1.1125(7) 1.4741(6)
H35 H 1.8298 1.0647 1.4954
H36 H 1.8899 1.1655 1.5137
C37 C 1.5451(7) 1.0270(6) 1.2926(6)
C38 C 1.6589(6) 1.0544(6) 1.4148(5)
H37 H 1.6567 1.0118 1.4426
C39 C 1.5950(6) 1.1001(6) 1.4178(5)
H38 H 1.5593 1.0761 1.4441
C40 C 1.7519(7) 1.2014(7) 1.4737(6)
C41 C 1.4499(6) 1.1004(6) 1.3162(6)
H39 H 1.4194 1.0846 1.3472
H40 H 1.4050 1.0629 1.2648
C42 C 1.6414(7) 1.2560(6) 1.4895(5)
H41 H 1.5990 1.2301 1.5097
H42 H 1.7007 1.3009 1.5311
N1 N 1.4697(5) 1.1899(5) 1.3193(4)
N2 N 1.4456(5) 1.2945(5) 1.2759(4)
N3 N 1.5986(6) 1.2972(5) 1.4386(4)
N4 N 1.5777(5) 1.4007(5) 1.3913(5)
N5 N 1.4649(5) 1.3882(5) 1.2015(5)
N6 N 1.5406(5) 1.4257(5) 1.1365(4)
N7 N 1.6095(5) 1.4903(5) 1.3155(5)
N8 N 1.6820(5) 1.5340(5) 1.2494(4)
N9 N 1.6401(5) 1.4246(5) 1.0782(4)
N10 N 1.7343(5) 1.3837(5) 1.0454(4)
N11 N 1.7796(5) 1.5332(5) 1.1899(4)
N12 N 1.8755(5) 1.4996(5) 1.1532(4)
N13 N 1.8300(5) 1.3128(5) 1.0322(5)
N14 N 1.8991(5) 1.2226(5) 1.0503(5)
N15 N 1.9688(5) 1.4257(5) 1.1401(4)
N16 N 2.0432(5) 1.3408(5) 1.1538(4)
N17 N 1.9244(5) 1.1104(5) 1.1019(4)
N18 N 1.8955(5) 1.0300(5) 1.1721(4)
N19 N 2.0569(5) 1.2295(5) 1.2102(4)
N20 N 2.0205(5) 1.1531(5) 1.2813(4)
N21 N 1.8202(6) 0.9842(5) 1.2488(5)
N22 N 1.7296(6) 0.9822(5) 1.3035(5)
N23 N 1.9530(6) 1.1049(5) 1.3597(4)
N24 N 1.8624(6) 1.0931(5) 1.4147(4)
N25 N 1.6192(6) 1.0124(5) 1.3356(5)
N26 N 1.5321(6) 1.0835(5) 1.3405(4)
N27 N 1.7521(6) 1.1245(6) 1.4473(5)
N28 N 1.6616(5) 1.1892(5) 1.4576(5)
O13 O 1.4086(5) 1.1677(4) 1.1944(4)
O14 O 1.4247(5) 1.2853(4) 1.0958(4)
O15 O 1.5804(5) 1.2850(4) 1.0018(5)
O16 O 1.7346(4) 1.1647(4) 0.9937(4)
O17 O 1.7734(5) 1.0009(4) 1.0560(4)
O18 O 1.6619(5) 0.9380(5) 1.1751(4)
O19 O 1.4980(6) 0.9988(5) 1.2266(5)
O20 O 1.7259(4) 1.4310(4) 1.4864(4)
O21 O 1.7724(4) 1.5466(5) 1.3716(4)
O22 O 1.9306(5) 1.5661(5) 1.2783(4)
O23 O 2.0815(5) 1.4473(4) 1.2569(4)
O24 O 2.0898(5) 1.3021(4) 1.3266(4)
O25 O 1.9888(6) 1.2234(5) 1.4517(5)
O26 O 1.8245(5) 1.2725(5) 1.5106(5)
Ce1A Ce 1.35722(3) 1.12300(3) 1.05648(3)
Ce2A Ce 1.85534(3) 1.54099(3) 1.60759(3)
O13A O 1.5914(5) 0.8323(4) 0.8056(4)
O14A O 1.5753(5) 0.7147(4) 0.9042(4)
O20A O 2.2741(4) 1.5690(4) 1.5136(4)
Cl9? Cl 1.7937(6) 0.7652(5) 1.1103(5)
loop_
_geom_bond_atom_site_label_1
_geom_bond_atom_site_label_2
_geom_bond_site_symmetry_1
_geom_bond_site_symmetry_2
O1 Ce1 1_555 1_555
O2 Ce1 1_555 1_555
O3 Ce2 1_555 1_555
O4 Ce2 1_555 1_555
O5 Ce2 1_555 1_555
O6 Ce1 1_555 1_555
O7 Ce1 1_555 1_555
O8 Ce2 1_555 1_555
O9 Ce2 1_555 1_555
O10 Ce1 1_555 1_555
O11 Ce2 1_555 1_555
O12 Ce1 1_555 1_555
Ce1 O17 1_555 1_555
Ce2 O23 1_555 1_555
C1 N1 1_555 1_555
C2 H1 1_555 1_555
C3 C2 1_555 1_555
H2 C3 1_555 1_555
C4 N3 1_555 1_555
C5 H3 1_555 1_555
H4 C5 1_555 1_555
C6 H5 1_555 1_555
H6 C6 1_555 1_555
C7 N5 1_555 1_555
C8 H7 1_555 1_555
C9 C8 1_555 1_555
H8 C9 1_555 1_555
C10 N7 1_555 1_555
C11 H9 1_555 1_555
H10 C11 1_555 1_555
C12 H11 1_555 1_555
H12 C12 1_555 1_555
C13 N9 1_555 1_555
C14 H13 1_555 1_555
C15 C14 1_555 1_555
H14 C15 1_555 1_555
C16 N11 1_555 1_555
C17 H15 1_555 1_555
H16 C17 1_555 1_555
C18 H17 1_555 1_555
H18 C18 1_555 1_555
C19 N13 1_555 1_555
C20 H19 1_555 1_555
C21 C20 1_555 1_555
H20 C21 1_555 1_555
C22 N15 1_555 1_555
C23 H21 1_555 1_555
H22 C23 1_555 1_555
C24 H23 1_555 1_555
H24 C24 1_555 1_555
C25 N17 1_555 1_555
C26 H25 1_555 1_555
C27 C26 1_555 1_555
H26 C27 1_555 1_555
C28 N19 1_555 1_555
C29 H27 1_555 1_555
H28 C29 1_555 1_555
C30 H29 1_555 1_555
H30 C30 1_555 1_555
C31 N21 1_555 1_555
C32 H31 1_555 1_555
C33 C32 1_555 1_555
H32 C33 1_555 1_555
C34 N23 1_555 1_555
C35 H33 1_555 1_555
H34 C35 1_555 1_555
C36 H35 1_555 1_555
H36 C36 1_555 1_555
C37 N25 1_555 1_555
C38 H37 1_555 1_555
C39 C38 1_555 1_555
H38 C39 1_555 1_555
C40 N27 1_555 1_555
C41 H39 1_555 1_555
H40 C41 1_555 1_555
C42 H41 1_555 1_555
H42 C42 1_555 1_555
N1 C2 1_555 1_555
N2 C1 1_555 1_555
N3 C2 1_555 1_555
N4 C3 1_555 1_555
N5 C5 1_555 1_555
N6 C7 1_555 1_555
N7 C6 1_555 1_555
N8 C9 1_555 1_555
N9 C11 1_555 1_555
N10 C13 1_555 1_555
N11 C12 1_555 1_555
N12 C15 1_555 1_555
N13 C17 1_555 1_555
N14 C19 1_555 1_555
N15 C18 1_555 1_555
N16 C21 1_555 1_555
N17 C23 1_555 1_555
N18 C25 1_555 1_555
N19 C24 1_555 1_555
N20 C27 1_555 1_555
N21 C29 1_555 1_555
N22 C31 1_555 1_555
N23 C30 1_555 1_555
N24 C33 1_555 1_555
N25 C35 1_555 1_555
N26 C37 1_555 1_555
N27 C36 1_555 1_555
N28 C39 1_555 1_555
O13 C1 1_555 1_555
O14 C7 1_555 1_555
O15 C13 1_555 1_555
O16 C19 1_555 1_555
O17 C25 1_555 1_555
O18 C31 1_555 1_555
O19 C37 1_555 1_555
O20 C4 1_555 1_555
O21 C10 1_555 1_555
O22 C16 1_555 1_555
O23 C22 1_555 1_555
O24 Ce2 1_555 1_555
O25 C34 1_555 1_555
O26 C40 1_555 1_555
Cd1 Cl1 1_555 1_555
Cl2 Cd1 1_555 1_555
Cl3 Cd1 1_555 1_555
Cl4 Cd1 1_555 1_555
Ce1A O13 1_555 1_555
Ce2A O20 1_555 1_555
O13A Ce1 1_555 1_555
O14A Ce1 1_555 1_555
O20A Ce2 1_555 1_555
C3 N2 1_555 1_555
C4 N4 1_555 1_555
C5 N2 1_555 1_555
C6 N4 1_555 1_555
C8 N5 1_555 1_555
C8 N7 1_555 1_555
C9 N6 1_555 1_555
C10 N8 1_555 1_555
C11 N6 1_555 1_555
C12 N8 1_555 1_555
C14 N9 1_555 1_555
C14 N11 1_555 1_555
C15 N10 1_555 1_555
C16 N12 1_555 1_555
C17 N10 1_555 1_555
C18 N12 1_555 1_555
C20 N13 1_555 1_555
C20 N15 1_555 1_555
C21 N14 1_555 1_555
C22 N16 1_555 1_555
C23 N14 1_555 1_555
C24 N16 1_555 1_555
C26 N17 1_555 1_555
C26 N19 1_555 1_555
C27 N18 1_555 1_555
C28 N20 1_555 1_555
C28 O24 1_555 1_555
C29 N18 1_555 1_555
C30 N20 1_555 1_555
C32 N21 1_555 1_555
C32 N23 1_555 1_555
C33 N22 1_555 1_555
C34 N24 1_555 1_555
C35 N22 1_555 1_555
C36 N24 1_555 1_555
C38 N25 1_555 1_555
C38 N27 1_555 1_555
C39 N26 1_555 1_555
C40 N28 1_555 1_555
C41 N1 1_555 1_555
C41 N26 1_555 1_555
C42 N3 1_555 1_555
C42 N28 1_555 1_555
O14 Ce1A 1_555 1_555

#END
