
#######################################################################
#
#                 Cambridge Crystallographic Data Centre
#                                CCDC 
#
#######################################################################
#
# If this CIF has been generated from an entry in the Cambridge 
# Structural Database, then it will include bibliographic, chemical, 
# crystal, experimental, refinement or atomic coordinate data resulting 
# from the CCDC's data processing and validation procedures.
#
#######################################################################

data_NEWVIW
_symmetry_cell_setting           triclinic
_symmetry_space_group_name_H-M   'P -1'
_symmetry_Int_Tables_number      2
_space_group_name_Hall           '-P 1'
loop_
_symmetry_equiv_pos_site_id
_symmetry_equiv_pos_as_xyz
1 x,y,z
2 -x,-y,-z
_cell_length_a                   16.961(3)
_cell_length_b                   17.353(4)
_cell_length_c                   20.498(7)
_cell_angle_alpha                98.412(10)
_cell_angle_beta                 112.713(10)
_cell_angle_gamma                109.760(7)
_cell_volume                     4964.08
loop_
_atom_site_label
_atom_site_type_symbol
_atom_site_fract_x
_atom_site_fract_y
_atom_site_fract_z
Cl1 Cl 0.8299(3) 0.4962(3) 0.2521(2)
Cl2 Cl 0.6849(3) 0.3003(3) 0.0577(2)
Cl3 Cl 0.8859(3) 0.5266(3) 0.0833(3)
Cl4 Cl 0.6329(3) 0.5024(3) 0.0719(3)
Cd1 Cd 0.76046(8) 0.45782(8) 0.11599(7)
Cl5 Cl 1.8090(4) 0.1739(5) 0.4785(4)
Cl6 Cl 1.5000 0.0000 0.0000
Cl7 Cl 1.1901(6) 0.0963(8) 0.1560(5)
Cl8 Cl 1.3114(8) 0.3423(11) 0.3887(7)
Cl9 Cl 1.7403(7) 0.0362(12) 0.3984(7)
Cl10 Cl 1.0000 0.5000 0.5000
Cl11 Cl 0.9731(8) 0.5891(12) 0.4648(7)
O1 O 0.7432(5) 0.1769(5) -0.0210(5)
O2 O 1.4702(6) 0.3859(7) 0.3341(6)
O3 O 1.7677(5) 0.5642(5) 0.3667(5)
O4 O 0.9025(6) 0.1718(5) -0.0375(5)
O5 O 1.6087(5) 0.5846(6) 0.3715(5)
O6 O 1.6480(6) 0.3711(6) 0.4806(5)
O7 O 1.0320(6) 0.1764(6) 0.1270(5)
O8 O 0.9176(7) 0.0284(7) 0.0013(6)
O9 O 0.8443(6) -0.0036(5) 0.1061(5)
O10 O 0.7200(6) 0.0921(7) 0.0838(5)
O11 O 1.5820(6) 0.5024(7) 0.4765(6)
O12 O 1.7785(6) 0.4212(6) 0.4104(6)
Pr1 Pr 0.85783(4) 0.12205(4) 0.05653(4)
Pr2 Pr 1.64450(4) 0.45847(4) 0.39235(4)
C1 C 0.9395(7) 0.2124(8) 0.2569(6)
C2 C 0.9972(7) 0.2586(7) 0.3853(6)
H1 H 0.9569 0.2380 0.4093
C3 C 0.9842(8) 0.3324(7) 0.3573(7)
H2 H 0.9406 0.3497 0.3699
C4 C 1.1418(7) 0.3822(7) 0.4435(6)
C5 C 0.9043(6) 0.3338(7) 0.2259(6)
H3 H 0.8838 0.3706 0.2500
H4 H 0.8475 0.2886 0.1823
C6 C 1.1018(7) 0.4859(8) 0.3840(7)
H5 H 1.1615 0.5273 0.4275
H6 H 1.0520 0.5032 0.3826
C7 C 0.9747(7) 0.3576(7) 0.1412(6)
C8 C 1.0334(8) 0.4758(7) 0.2439(7)
H7 H 1.0011 0.5119 0.2508
C9 C 1.0838(7) 0.5042(7) 0.1983(6)
H8 H 1.0731 0.5517 0.1807
C10 C 1.1937(8) 0.5237(7) 0.3159(7)
C11 C 1.0528(7) 0.4224(8) 0.0694(7)
H9 H 1.0501 0.4739 0.0562
H10 H 1.0002 0.3716 0.0280
C12 C 1.2603(8) 0.5820(7) 0.2360(7)
H11 H 1.2443 0.6240 0.2132
H12 H 1.3171 0.6143 0.2844
C13 C 1.1450(7) 0.3546(7) 0.0383(6)
C14 C 1.2288(7) 0.5033(7) 0.1080(7)
H13 H 1.2157 0.5491 0.0888
C15 C 1.2917(7) 0.4751(7) 0.0822(7)
H14 H 1.3075 0.5062 0.0489
C16 C 1.3696(9) 0.5343(8) 0.2121(8)
C17 C 1.2540(8) 0.3337(7) -0.0062(7)
H15 H 1.2698 0.3678 -0.0372
H16 H 1.1967 0.2804 -0.0395
C18 C 1.4618(8) 0.5056(7) 0.1542(7)
H17 H 1.5138 0.5444 0.2034
H18 H 1.4698 0.5326 0.1170
C19 C 1.3140(8) 0.2253(7) 0.0216(7)
C20 C 1.4280(8) 0.3668(7) 0.0628(6)
H19 H 1.4419 0.4002 0.0301
C21 C 1.4765(8) 0.3035(7) 0.0725(6)
H20 H 1.5101 0.3042 0.0423
C22 C 1.5338(9) 0.4045(8) 0.1903(8)
C23 C 1.4051(7) 0.1403(8) 0.0365(7)
H21 H 1.3459 0.0964 -0.0059
H22 H 1.4564 0.1470 0.0236
C24 C 1.6034(6) 0.2999(6) 0.1895(7)
H23 H 1.6261 0.2809 0.1558
H24 H 1.6588 0.3438 0.2348
C25 C 1.3566(7) 0.0447(7) 0.1051(6)
C26 C 1.5169(9) 0.1405(8) 0.1652(7)
H25 H 1.5610 0.1280 0.1498
C27 C 1.4943(8) 0.0871(7) 0.2155(7)
H26 H 1.5319 0.0534 0.2270
C28 C 1.5586(7) 0.2360(8) 0.2769(6)
C29 C 1.3475(8) -0.0394(7) 0.1922(7)
H27 H 1.3895 -0.0670 0.2112
H28 H 1.2903 -0.0823 0.1475
C30 C 1.5358(8) 0.1379(8) 0.3510(7)
H29 H 1.5830 0.1911 0.3925
H30 H 1.5618 0.0952 0.3548
C31 C 1.2309(8) -0.0310(8) 0.2373(7)
C32 C 1.3824(8) 0.0154(7) 0.3266(7)
H31 H 1.4149 -0.0226 0.3377
C33 C 1.3210(8) 0.0084(7) 0.3654(7)
H32 H 1.3212 -0.0350 0.3918
C34 C 1.4386(8) 0.1506(7) 0.4119(6)
C35 C 1.1405(9) -0.0509(8) 0.3079(8)
H33 H 1.0886 -0.0868 0.2579
H34 H 1.1449 -0.0879 0.3397
C36 C 1.3369(9) 0.1157(9) 0.4735(8)
H35 H 1.3899 0.1683 0.5128
H36 H 1.3286 0.0689 0.4954
C37 C 1.0457(9) 0.0325(7) 0.2934(8)
C38 C 1.1575(7) 0.0571(7) 0.4158(6)
H37 H 1.1559 0.0158 0.4444
C39 C 1.0965(8) 0.1028(7) 0.4200(6)
H38 H 1.0607 0.0801 0.4467
C40 C 1.2508(7) 0.2057(7) 0.4760(7)
C41 C 0.9500(8) 0.1015(7) 0.3171(7)
H39 H 0.9210 0.0874 0.3495
H40 H 0.9038 0.0635 0.2660
C42 C 1.1405(8) 0.2582(8) 0.4911(6)
H41 H 1.1984 0.3030 0.5340
H42 H 1.0966 0.2302 0.5096
N1 N 0.9722(6) 0.1907(6) 0.3201(5)
N2 N 0.9456(6) 0.2934(5) 0.2772(5)
N3 N 1.0973(6) 0.2999(6) 0.4393(6)
N4 N 1.0791(6) 0.4015(6) 0.3915(5)
N5 N 0.9652(6) 0.3856(5) 0.2003(5)
N6 N 1.0409(6) 0.4230(6) 0.1358(5)
N7 N 1.1111(6) 0.4881(6) 0.3145(5)
N8 N 1.1806(6) 0.5295(6) 0.2484(5)
N9 N 1.1419(6) 0.4211(6) 0.0788(5)
N10 N 1.2342(6) 0.3814(5) 0.0432(5)
N11 N 1.2816(6) 0.5314(6) 0.1892(5)
N12 N 1.3763(6) 0.4968(6) 0.1524(6)
N13 N 1.3309(6) 0.3114(6) 0.0313(6)
N14 N 1.3983(6) 0.2221(6) 0.0492(5)
N15 N 1.4684(7) 0.4228(6) 0.1394(5)
N16 N 1.5422(6) 0.3390(6) 0.1539(5)
N17 N 1.4228(6) 0.1104(6) 0.1008(5)
N18 N 1.3943(6) 0.0314(6) 0.1720(5)
N19 N 1.5574(6) 0.2269(5) 0.2091(5)
N20 N 1.5223(6) 0.1553(6) 0.2825(5)
N21 N 1.3203(7) -0.0121(6) 0.2502(5)
N22 N 1.2276(6) -0.0161(6) 0.3039(5)
N23 N 1.4521(6) 0.1064(6) 0.3596(5)
N24 N 1.3606(7) 0.0948(6) 0.4162(5)
N25 N 1.1194(7) 0.0137(6) 0.3366(5)
N26 N 1.0328(6) 0.0858(6) 0.3404(5)
N27 N 1.2521(6) 0.1291(6) 0.4486(5)
N28 N 1.1640(7) 0.1940(6) 0.4587(6)
O13 O 0.9072(5) 0.1665(5) 0.1938(5)
O14 O 0.9283(5) 0.2836(5) 0.0964(4)
O15 O 1.0803(6) 0.2837(5) 0.0005(5)
O16 O 1.2345(5) 0.1649(5) -0.0082(5)
O17 O 1.2704(5) 0.0005(5) 0.0559(5)
O18 O 1.1596(6) -0.0609(6) 0.1748(5)
O19 O 0.9983(6) 0.0016(6) 0.2277(5)
O20 O 1.2264(5) 0.4311(5) 0.4872(4)
O21 O 1.2726(5) 0.5458(5) 0.3711(5)
O22 O 1.4308(6) 0.5617(6) 0.2785(5)
O23 O 1.5817(6) 0.4448(5) 0.2570(5)
O24 O 1.5895(5) 0.3017(5) 0.3275(4)
O25 O 1.4881(6) 0.2262(6) 0.4521(5)
O26 O 1.3234(6) 0.2736(6) 0.5104(5)
Pr1A Pr 1.14217(4) -0.12205(4) -0.05653(4)
Pr2A Pr 1.35550(4) 0.54153(4) 0.60765(4)
O17A O 0.7296(5) -0.0005(5) -0.0559(5)
O20A O 1.7736(5) 0.5689(5) 0.5128(4)
loop_
_geom_bond_atom_site_label_1
_geom_bond_atom_site_label_2
_geom_bond_site_symmetry_1
_geom_bond_site_symmetry_2
O1 Pr1 1_555 1_555
O2 Pr2 1_555 1_555
O3 Pr2 1_555 1_555
O4 Pr1 1_555 1_555
O5 Pr2 1_555 1_555
O6 Pr2 1_555 1_555
O7 Pr1 1_555 1_555
O8 Pr1 1_555 1_555
O9 Pr1 1_555 1_555
O10 Pr1 1_555 1_555
O11 Pr2 1_555 1_555
O12 Pr2 1_555 1_555
Pr1 O13 1_555 1_555
Pr2 O23 1_555 1_555
C1 N1 1_555 1_555
C2 H1 1_555 1_555
C3 C2 1_555 1_555
H2 C3 1_555 1_555
C4 N3 1_555 1_555
C5 H3 1_555 1_555
H4 C5 1_555 1_555
C6 H5 1_555 1_555
H6 C6 1_555 1_555
C7 N5 1_555 1_555
C8 H7 1_555 1_555
C9 C8 1_555 1_555
H8 C9 1_555 1_555
C10 N7 1_555 1_555
C11 H9 1_555 1_555
H10 C11 1_555 1_555
C12 H11 1_555 1_555
H12 C12 1_555 1_555
C13 N9 1_555 1_555
C14 H13 1_555 1_555
C15 C14 1_555 1_555
H14 C15 1_555 1_555
C16 N11 1_555 1_555
C17 H15 1_555 1_555
H16 C17 1_555 1_555
C18 H17 1_555 1_555
H18 C18 1_555 1_555
C19 N13 1_555 1_555
C20 H19 1_555 1_555
C21 C20 1_555 1_555
H20 C21 1_555 1_555
C22 N15 1_555 1_555
C23 H21 1_555 1_555
H22 C23 1_555 1_555
C24 H23 1_555 1_555
H24 C24 1_555 1_555
C25 N17 1_555 1_555
C26 H25 1_555 1_555
C27 C26 1_555 1_555
H26 C27 1_555 1_555
C28 N19 1_555 1_555
C29 H27 1_555 1_555
H28 C29 1_555 1_555
C30 H29 1_555 1_555
H30 C30 1_555 1_555
C31 N21 1_555 1_555
C32 H31 1_555 1_555
C33 C32 1_555 1_555
H32 C33 1_555 1_555
C34 N23 1_555 1_555
C35 H33 1_555 1_555
H34 C35 1_555 1_555
C36 H35 1_555 1_555
H36 C36 1_555 1_555
C37 N25 1_555 1_555
C38 H37 1_555 1_555
C39 C38 1_555 1_555
H38 C39 1_555 1_555
C40 N27 1_555 1_555
C41 H39 1_555 1_555
H40 C41 1_555 1_555
C42 H41 1_555 1_555
H42 C42 1_555 1_555
N1 C2 1_555 1_555
N2 C1 1_555 1_555
N3 C2 1_555 1_555
N4 C3 1_555 1_555
N5 C5 1_555 1_555
N6 C7 1_555 1_555
N7 C6 1_555 1_555
N8 C9 1_555 1_555
N9 C11 1_555 1_555
N10 C13 1_555 1_555
N11 C12 1_555 1_555
N12 C15 1_555 1_555
N13 C17 1_555 1_555
N14 C19 1_555 1_555
N15 C18 1_555 1_555
N16 C21 1_555 1_555
N17 C23 1_555 1_555
N18 C25 1_555 1_555
N19 C24 1_555 1_555
N20 C27 1_555 1_555
N21 C29 1_555 1_555
N22 C31 1_555 1_555
N23 C30 1_555 1_555
N24 C33 1_555 1_555
N25 C35 1_555 1_555
N26 C37 1_555 1_555
N27 C36 1_555 1_555
N28 C39 1_555 1_555
O13 C1 1_555 1_555
O14 Pr1 1_555 1_555
O15 C13 1_555 1_555
O16 C19 1_555 1_555
O17 C25 1_555 1_555
O18 C31 1_555 1_555
O19 C37 1_555 1_555
O20 C4 1_555 1_555
O21 C10 1_555 1_555
O22 C16 1_555 1_555
O23 C22 1_555 1_555
O24 Pr2 1_555 1_555
O25 C34 1_555 1_555
O26 C40 1_555 1_555
Cl1 Cd1 1_555 1_555
Cl2 Cd1 1_555 1_555
Cl3 Cd1 1_555 1_555
Cl4 Cd1 1_555 1_555
Pr1A O17 1_555 1_555
Pr2A O20 1_555 1_555
O17A Pr1 1_555 1_555
O20A Pr2 1_555 1_555
C3 N2 1_555 1_555
C4 N4 1_555 1_555
C5 N2 1_555 1_555
C6 N4 1_555 1_555
C7 O14 1_555 1_555
C8 N5 1_555 1_555
C8 N7 1_555 1_555
C9 N6 1_555 1_555
C10 N8 1_555 1_555
C11 N6 1_555 1_555
C12 N8 1_555 1_555
C14 N9 1_555 1_555
C14 N11 1_555 1_555
C15 N10 1_555 1_555
C16 N12 1_555 1_555
C17 N10 1_555 1_555
C18 N12 1_555 1_555
C20 N13 1_555 1_555
C20 N15 1_555 1_555
C21 N14 1_555 1_555
C22 N16 1_555 1_555
C23 N14 1_555 1_555
C24 N16 1_555 1_555
C26 N17 1_555 1_555
C26 N19 1_555 1_555
C27 N18 1_555 1_555
C28 N20 1_555 1_555
C28 O24 1_555 1_555
C29 N18 1_555 1_555
C30 N20 1_555 1_555
C32 N21 1_555 1_555
C32 N23 1_555 1_555
C33 N22 1_555 1_555
C34 N24 1_555 1_555
C35 N22 1_555 1_555
C36 N24 1_555 1_555
C38 N25 1_555 1_555
C38 N27 1_555 1_555
C39 N26 1_555 1_555
C40 N28 1_555 1_555
C41 N1 1_555 1_555
C41 N26 1_555 1_555
C42 N3 1_555 1_555
C42 N28 1_555 1_555

#END
