
#######################################################################
#
#                 Cambridge Crystallographic Data Centre
#                                CCDC 
#
#######################################################################
#
# If this CIF has been generated from an entry in the Cambridge 
# Structural Database, then it will include bibliographic, chemical, 
# crystal, experimental, refinement or atomic coordinate data resulting 
# from the CCDC's data processing and validation procedures.
#
#######################################################################

data_NEWWET
_symmetry_cell_setting           monoclinic
_symmetry_space_group_name_H-M   'P 21/c'
_symmetry_Int_Tables_number      14
_space_group_name_Hall           '-P 2ybc'
loop_
_symmetry_equiv_pos_site_id
_symmetry_equiv_pos_as_xyz
1 x,y,z
2 -x,1/2+y,1/2-z
3 -x,-y,-z
4 x,1/2-y,1/2+z
_cell_length_a                   16.9080(13)
_cell_length_b                   27.771(2)
_cell_length_c                   20.9455(16)
_cell_angle_alpha                90
_cell_angle_beta                 98.635(2)
_cell_angle_gamma                90
_cell_volume                     9723.52
loop_
_atom_site_label
_atom_site_type_symbol
_atom_site_fract_x
_atom_site_fract_y
_atom_site_fract_z
Cd2 Cd 0.26587(8) 0.09615(5) 0.48499(9)
Cl5 Cl 0.2480(4) 0.0668(2) 0.6004(3)
Cl6 Cl 0.2649(2) 0.18238(12) 0.5078(2)
Cl7 Cl 0.3894(2) 0.05379(13) 0.4774(2)
Cl8 Cl 0.1463(3) 0.06031(17) 0.4293(3)
Cl9 Cl 0.30482(17) 0.23388(16) 0.31215(14)
Cl10 Cl 0.9414(6) 0.0093(3) 0.7417(5)
Cl11 Cl 0.0450(6) 0.4509(2) 0.3512(4)
Cl12 Cl 0.4879(8) 0.4490(4) 0.7147(6)
La1 La 0.57172(3) 0.285207(17) 0.72507(2)
La2 La 1.02314(3) 0.282274(16) 0.38776(2)
C1 C 0.5412(4) 0.3601(3) 0.5798(4)
C2 C 0.5565(4) 0.4043(3) 0.4878(3)
H1 H 0.5370 0.4377 0.4804
C3 C 0.4894(4) 0.3668(3) 0.4704(4)
H2 H 0.4378 0.3821 0.4530
C4 C 0.5894(5) 0.3525(3) 0.4082(4)
C5 C 0.4310(4) 0.3053(3) 0.5409(3)
H3 H 0.3794 0.3122 0.5144
H4 H 0.4226 0.3053 0.5862
C6 C 0.4724(5) 0.3004(3) 0.3847(3)
H5 H 0.4887 0.2994 0.3418
H6 H 0.4159 0.3098 0.3791
C7 C 0.4962(4) 0.2283(3) 0.5662(4)
C8 C 0.4340(5) 0.2360(3) 0.4615(4)
H7 H 0.3757 0.2379 0.4468
C9 C 0.4633(4) 0.1835(3) 0.4729(3)
H8 H 0.4182 0.1604 0.4669
C10 C 0.5201(4) 0.2171(3) 0.3902(3)
C11 C 0.5220(5) 0.1402(3) 0.5759(4)
H9 H 0.5222 0.1474 0.6217
H10 H 0.4798 0.1164 0.5630
C12 C 0.5451(5) 0.1299(3) 0.4096(4)
H11 H 0.5026 0.1058 0.4094
H12 H 0.5598 0.1310 0.3661
C13 C 0.6575(5) 0.1153(3) 0.6158(4)
C14 C 0.6073(5) 0.0886(3) 0.5145(4)
H13 H 0.5657 0.0633 0.5077
C15 C 0.6890(4) 0.0674(3) 0.5336(4)
H14 H 0.6869 0.0318 0.5336
C16 C 0.6867(5) 0.1105(3) 0.4381(4)
C17 C 0.7818(5) 0.0670(3) 0.6401(4)
H15 H 0.7842 0.0321 0.6344
H16 H 0.7739 0.0732 0.6848
C18 C 0.8104(5) 0.0654(3) 0.4744(4)
H17 H 0.8097 0.0305 0.4807
H18 H 0.8183 0.0714 0.4297
C19 C 0.9039(5) 0.1127(3) 0.6767(4)
C20 C 0.9028(5) 0.0681(3) 0.5841(4)
H19 H 0.9043 0.0325 0.5861
C21 C 0.9843(5) 0.0892(3) 0.6008(3)
H20 H 1.0260 0.0639 0.6075
C22 C 0.9315(5) 0.1154(3) 0.4972(4)
C23 C 1.0472(5) 0.1321(3) 0.7041(4)
H21 H 1.0324 0.1335 0.7475
H22 H 1.0901 0.1082 0.7050
C24 C 1.0696(5) 0.1411(3) 0.5378(4)
H23 H 1.0678 0.1488 0.4919
H24 H 1.1121 0.1173 0.5494
C25 C 1.0726(5) 0.2179(3) 0.7253(4)
C26 C 1.1306(4) 0.1836(3) 0.6400(3)
H25 H 1.1756 0.1604 0.6458
C27 C 1.1590(4) 0.2361(3) 0.6518(3)
H26 H 1.2177 0.2380 0.6651
C28 C 1.0959(5) 0.2269(3) 0.5462(4)
C29 C 1.1234(5) 0.3018(3) 0.7275(4)
H27 H 1.1796 0.3117 0.7320
H28 H 1.1076 0.3019 0.7706
C30 C 1.1639(4) 0.3055(3) 0.5715(4)
H29 H 1.2154 0.3121 0.5985
H30 H 1.1730 0.3045 0.5264
C31 C 1.0033(4) 0.3528(3) 0.7016(4)
C32 C 1.1043(4) 0.3667(2) 0.6397(3)
H31 H 1.1555 0.3820 0.6579
C33 C 1.0390(4) 0.4040(3) 0.6224(3)
H32 H 1.0594 0.4372 0.6303
C34 C 1.0537(4) 0.3596(2) 0.5304(4)
C35 C 0.9171(4) 0.4241(3) 0.6770(3)
H33 H 0.9012 0.4156 0.7186
H34 H 0.9376 0.4572 0.6801
C36 C 0.9612(5) 0.4274(3) 0.5131(4)
H35 H 0.9683 0.4219 0.4681
H36 H 0.9787 0.4604 0.5245
C37 C 0.7732(4) 0.4124(3) 0.6441(4)
C38 C 0.8417(4) 0.4486(3) 0.5670(4)
H37 H 0.8629 0.4818 0.5736
C39 C 0.7520(4) 0.4480(3) 0.5417(3)
H38 H 0.7305 0.4808 0.5322
C40 C 0.8208(4) 0.4093(3) 0.4682(4)
C41 C 0.6336(4) 0.4283(3) 0.5975(4)
H39 H 0.6148 0.4610 0.5863
H40 H 0.6262 0.4222 0.6423
C42 C 0.6773(5) 0.4219(3) 0.4342(4)
H41 H 0.6579 0.4552 0.4318
H42 H 0.6930 0.4138 0.3923
N1 N 0.5848(4) 0.3946(2) 0.5559(3)
N2 N 0.4859(4) 0.3424(2) 0.5317(3)
N3 N 0.6138(4) 0.3909(2) 0.4456(3)
N4 N 0.5189(4) 0.3366(2) 0.4228(3)
N5 N 0.4576(4) 0.2584(2) 0.5246(3)
N6 N 0.5028(4) 0.1841(2) 0.5386(3)
N7 N 0.4802(4) 0.2525(2) 0.4125(3)
N8 N 0.5143(4) 0.1772(2) 0.4252(3)
N9 N 0.5970(4) 0.1195(2) 0.5681(3)
N10 N 0.7140(4) 0.0857(2) 0.5973(3)
N11 N 0.6130(4) 0.1152(2) 0.4543(3)
N12 N 0.7335(4) 0.0851(3) 0.4841(3)
N13 N 0.8576(4) 0.0877(2) 0.6301(3)
N14 N 0.9796(4) 0.1159(2) 0.6602(3)
N15 N 0.8767(4) 0.0856(3) 0.5172(3)
N16 N 0.9942(4) 0.1201(2) 0.5472(3)
N17 N 1.0776(4) 0.1778(2) 0.6893(3)
N18 N 1.1161(4) 0.2536(2) 0.7019(3)
N19 N 1.0894(4) 0.1843(2) 0.5753(3)
N20 N 1.1345(3) 0.2584(2) 0.5892(3)
N21 N 1.0743(4) 0.3369(2) 0.6867(3)
N22 N 0.9812(3) 0.3916(2) 0.6639(3)
N23 N 1.1100(3) 0.3436(2) 0.5792(3)
N24 N 1.0109(4) 0.3950(2) 0.5530(3)
N25 N 0.8470(4) 0.4221(2) 0.6272(3)
N26 N 0.7177(4) 0.4254(2) 0.5930(3)
N27 N 0.8766(4) 0.4232(2) 0.5182(3)
N28 N 0.7469(4) 0.4186(2) 0.4836(3)
O1 O 0.5498(3) 0.34626(19) 0.6358(3)
O2 O 0.5238(3) 0.23739(19) 0.6232(3)
O3 O 0.6649(4) 0.1349(2) 0.6701(3)
O4 O 0.8833(4) 0.1307(2) 0.7250(3)
O5 O 1.0361(3) 0.22151(19) 0.7712(2)
O6 O 0.9679(3) 0.3378(2) 0.7438(3)
O7 O 0.7616(3) 0.3956(2) 0.6947(3)
O8 O 0.6258(3) 0.3355(2) 0.3664(3)
O9 O 0.5578(3) 0.22036(19) 0.3438(2)
O10 O 0.7079(4) 0.1260(3) 0.3892(3)
O11 O 0.9270(4) 0.1331(2) 0.4438(3)
O12 O 1.0700(3) 0.23686(19) 0.4897(2)
O13 O 1.0462(3) 0.3461(2) 0.4748(2)
O14 O 0.8343(3) 0.3910(2) 0.4181(3)
O15 O 0.6471(3) 0.3622(2) 0.7625(3)
O16 O 1.0086(4) 0.1919(2) 0.3687(3)
O17 O 0.9463(3) 0.3592(2) 0.3507(3)
O18 O 0.4768(3) 0.3527(2) 0.7514(3)
O19 O 1.1229(4) 0.3482(2) 0.3611(3)
O20 O 1.1647(4) 0.2486(2) 0.3927(3)
O21 O 0.9096(4) 0.2761(3) 0.4532(3)
O22 O 0.6850(4) 0.2773(3) 0.6596(3)
O23 O 0.4301(4) 0.2557(3) 0.7211(3)
O24 O 0.7047(4) 0.2661(3) 0.7950(3)
O25 O 0.8902(4) 0.2625(3) 0.3179(3)
O26 O 0.5850(4) 0.1953(2) 0.7453(3)
La1C La 0.57172(3) 0.214793(17) 0.22507(2)
La2C La 1.02314(3) 0.217726(16) 0.88776(2)
O5C O 1.0361(3) 0.27849(19) 0.2712(2)
O9C O 0.5578(3) 0.27964(19) 0.8438(2)
Cd1 Cd 0.29614(4) 0.42217(3) 0.56320(4)
Cl1 Cl 0.17951(14) 0.47361(9) 0.56475(14)
Cl2 Cl 0.27043(14) 0.37360(10) 0.46439(13)
Cl3 Cl 0.31790(14) 0.37161(10) 0.65942(13)
Cl4 Cl 0.42103(15) 0.46532(9) 0.55596(18)
Cl13? Cl 0.2402(6) 0.3340(5) 0.2812(5)
Cl14? Cl 0.4158(14) 0.4107(7) 0.3046(9)
loop_
_geom_bond_atom_site_label_1
_geom_bond_atom_site_label_2
_geom_bond_site_symmetry_1
_geom_bond_site_symmetry_2
Cd1 Cl1 1_555 1_555
Cl2 Cd1 1_555 1_555
Cl3 Cd1 1_555 1_555
Cl4 Cd1 1_555 1_555
Cd2 Cl5 1_555 1_555
Cl6 Cd2 1_555 1_555
Cl7 Cd2 1_555 1_555
Cl8 Cd2 1_555 1_555
La1 O1 1_555 1_555
La2 O12 1_555 1_555
C1 N1 1_555 1_555
C2 H1 1_555 1_555
C3 C2 1_555 1_555
H2 C3 1_555 1_555
C4 N3 1_555 1_555
C5 H3 1_555 1_555
H4 C5 1_555 1_555
C6 H5 1_555 1_555
H6 C6 1_555 1_555
C7 N5 1_555 1_555
C8 H7 1_555 1_555
C9 C8 1_555 1_555
H8 C9 1_555 1_555
C10 N7 1_555 1_555
C11 H9 1_555 1_555
H10 C11 1_555 1_555
C12 H11 1_555 1_555
H12 C12 1_555 1_555
C13 N9 1_555 1_555
C14 H13 1_555 1_555
C15 C14 1_555 1_555
H14 C15 1_555 1_555
C16 N11 1_555 1_555
C17 H15 1_555 1_555
H16 C17 1_555 1_555
C18 H17 1_555 1_555
H18 C18 1_555 1_555
C19 N13 1_555 1_555
C20 H19 1_555 1_555
C21 C20 1_555 1_555
H20 C21 1_555 1_555
C22 N15 1_555 1_555
C23 H21 1_555 1_555
H22 C23 1_555 1_555
C24 H23 1_555 1_555
H24 C24 1_555 1_555
C25 N17 1_555 1_555
C26 H25 1_555 1_555
C27 C26 1_555 1_555
H26 C27 1_555 1_555
C28 N19 1_555 1_555
C29 H27 1_555 1_555
H28 C29 1_555 1_555
C30 H29 1_555 1_555
H30 C30 1_555 1_555
C31 N21 1_555 1_555
C32 H31 1_555 1_555
C33 C32 1_555 1_555
H32 C33 1_555 1_555
C34 N23 1_555 1_555
C35 H33 1_555 1_555
H34 C35 1_555 1_555
C36 H35 1_555 1_555
H36 C36 1_555 1_555
C37 N25 1_555 1_555
C38 H37 1_555 1_555
C39 C38 1_555 1_555
H38 C39 1_555 1_555
C40 N27 1_555 1_555
C41 H39 1_555 1_555
H40 C41 1_555 1_555
C42 H41 1_555 1_555
H42 C42 1_555 1_555
N1 C2 1_555 1_555
N2 C1 1_555 1_555
N3 C2 1_555 1_555
N4 C3 1_555 1_555
N5 C5 1_555 1_555
N6 C7 1_555 1_555
N7 C6 1_555 1_555
N8 C9 1_555 1_555
N9 C11 1_555 1_555
N10 C13 1_555 1_555
N11 C12 1_555 1_555
N12 C15 1_555 1_555
N13 C17 1_555 1_555
N14 C19 1_555 1_555
N15 C18 1_555 1_555
N16 C21 1_555 1_555
N17 C23 1_555 1_555
N18 C25 1_555 1_555
N19 C24 1_555 1_555
N20 C27 1_555 1_555
N21 C29 1_555 1_555
N22 C31 1_555 1_555
N23 C30 1_555 1_555
N24 C33 1_555 1_555
N25 C35 1_555 1_555
N26 C37 1_555 1_555
N27 C36 1_555 1_555
N28 C39 1_555 1_555
O1 C1 1_555 1_555
O2 La1 1_555 1_555
O3 C13 1_555 1_555
O4 C19 1_555 1_555
O5 C25 1_555 1_555
O6 C31 1_555 1_555
O7 C37 1_555 1_555
O8 C4 1_555 1_555
O9 C10 1_555 1_555
O10 C16 1_555 1_555
O11 C22 1_555 1_555
O12 C28 1_555 1_555
O13 La2 1_555 1_555
O14 C40 1_555 1_555
O15 La1 1_555 1_555
O16 La2 1_555 1_555
O17 La2 1_555 1_555
O18 La1 1_555 1_555
O19 La2 1_555 1_555
O20 La2 1_555 1_555
O21 La2 1_555 1_555
O22 La1 1_555 1_555
O23 La1 1_555 1_555
O24 La1 1_555 1_555
O25 La2 1_555 1_555
O26 La1 1_555 1_555
La1C O9 1_555 1_555
La2C O5 1_555 1_555
O5C La2 1_555 1_555
O9C La1 1_555 1_555
C3 N2 1_555 1_555
C4 N4 1_555 1_555
C5 N2 1_555 1_555
C6 N4 1_555 1_555
C7 O2 1_555 1_555
C8 N5 1_555 1_555
C8 N7 1_555 1_555
C9 N6 1_555 1_555
C10 N8 1_555 1_555
C11 N6 1_555 1_555
C12 N8 1_555 1_555
C14 N9 1_555 1_555
C14 N11 1_555 1_555
C15 N10 1_555 1_555
C16 N12 1_555 1_555
C17 N10 1_555 1_555
C18 N12 1_555 1_555
C20 N13 1_555 1_555
C20 N15 1_555 1_555
C21 N14 1_555 1_555
C22 N16 1_555 1_555
C23 N14 1_555 1_555
C24 N16 1_555 1_555
C26 N17 1_555 1_555
C26 N19 1_555 1_555
C27 N18 1_555 1_555
C28 N20 1_555 1_555
C29 N18 1_555 1_555
C30 N20 1_555 1_555
C32 N21 1_555 1_555
C32 N23 1_555 1_555
C33 N22 1_555 1_555
C34 N24 1_555 1_555
C34 O13 1_555 1_555
C35 N22 1_555 1_555
C36 N24 1_555 1_555
C38 N25 1_555 1_555
C38 N27 1_555 1_555
C39 N26 1_555 1_555
C40 N28 1_555 1_555
C41 N1 1_555 1_555
C41 N26 1_555 1_555
C42 N3 1_555 1_555
C42 N28 1_555 1_555

#END
