
#######################################################################
#
#                 Cambridge Crystallographic Data Centre
#                                CCDC 
#
#######################################################################
#
# If this CIF has been generated from an entry in the Cambridge 
# Structural Database, then it will include bibliographic, chemical, 
# crystal, experimental, refinement or atomic coordinate data resulting 
# from the CCDC's data processing and validation procedures.
#
#######################################################################

data_NEWWAP
_symmetry_cell_setting           monoclinic
_symmetry_space_group_name_H-M   'P 21/n'
_symmetry_Int_Tables_number      14
_space_group_name_Hall           '-P 2yn'
loop_
_symmetry_equiv_pos_site_id
_symmetry_equiv_pos_as_xyz
1 x,y,z
2 1/2-x,1/2+y,1/2-z
3 -x,-y,-z
4 1/2+x,1/2-y,1/2+z
_cell_length_a                   16.819(2)
_cell_length_b                   17.138(2)
_cell_length_c                   28.696(3)
_cell_angle_alpha                90
_cell_angle_beta                 94.943(4)
_cell_angle_gamma                90
_cell_volume                     8240.69
loop_
_atom_site_label
_atom_site_type_symbol
_atom_site_fract_x
_atom_site_fract_y
_atom_site_fract_z
O20 O 0.3173(4) 0.4076(4) 0.2905(3)
Cd1 Cd 0.23912(3) 0.71405(3) 0.513585(18)
Cl1 Cl 0.36392(9) 0.73208(11) 0.47424(5)
Cl2 Cl 0.11192(10) 0.71756(14) 0.46577(7)
Cl3 Cl 0.25134(11) 0.59703(12) 0.56200(6)
Cl4 Cl 0.23962(15) 0.82880(16) 0.56581(9)
Cd2 Cd 0.25178(3) 0.43494(3) 0.670367(18)
Cl5 Cl 0.12086(10) 0.41841(11) 0.62509(6)
Cl6 Cl 0.28024(11) 0.56715(12) 0.70047(7)
Cl7 Cl 0.35270(10) 0.38306(11) 0.62183(6)
Cl8 Cl 0.24917(11) 0.35381(14) 0.74162(7)
O1 O -0.0073(3) 0.4759(3) 0.10230(18)
O2 O 0.1642(3) 0.6437(3) 0.1578(2)
O3 O 0.2522(3) 0.4944(3) 0.1849(2)
O4 O 0.1589(4) 0.5269(4) 0.0862(2)
O5 O 0.1664(5) 0.4043(5) 0.2358(3)
La1 La 0.10422(2) 0.50672(2) 0.165525(13)
C1 C 0.1254(3) 0.3022(4) 0.14227(18)
C2 C 0.1601(3) 0.1700(3) 0.14279(18)
H1 H 0.1659 0.1428 0.1128
C3 C 0.0720(3) 0.1787(3) 0.15327(19)
H2 H 0.0360 0.1493 0.1305
C4 C 0.1412(3) 0.1156(4) 0.2153(2)
C5 C -0.0192(3) 0.2990(4) 0.1515(2)
H3 H -0.0188 0.3504 0.1365
H4 H -0.0599 0.2672 0.1339
C6 C -0.0026(4) 0.1255(4) 0.2195(2)
H5 H 0.0080 0.0807 0.2403
H6 H -0.0418 0.1093 0.1941
C7 C -0.0274(3) 0.3744(3) 0.2245(2)
C8 C -0.0837(3) 0.2508(3) 0.2232(2)
H7 H -0.1304 0.2305 0.2035
C9 C -0.1092(4) 0.2970(4) 0.2657(2)
H8 H -0.1666 0.3108 0.2620
C10 C -0.0490(4) 0.1796(4) 0.2908(3)
C11 C -0.0634(4) 0.4294(4) 0.3001(2)
H9 H -0.0376 0.4761 0.2886
H10 H -0.1197 0.4420 0.3026
C12 C -0.1245(4) 0.2485(4) 0.3485(2)
H11 H -0.1302 0.1956 0.3607
H12 H -0.1779 0.2717 0.3440
C13 C 0.0315(4) 0.4609(4) 0.3655(2)
C14 C -0.0719(4) 0.3766(4) 0.3817(2)
H13 H -0.1258 0.4001 0.3808
C15 C -0.0225(4) 0.3976(4) 0.4268(2)
H14 H -0.0557 0.4190 0.4507
C16 C -0.0256(5) 0.2634(5) 0.4161(3)
C17 C 0.0807(4) 0.5049(4) 0.4445(2)
H15 H 0.0897 0.5536 0.4279
H16 H 0.0494 0.5173 0.4708
C18 C 0.0612(4) 0.3089(5) 0.4849(2)
H17 H 0.0358 0.3344 0.5104
H18 H 0.0627 0.2528 0.4913
C19 C 0.2274(4) 0.5065(4) 0.4539(2)
C20 C 0.1650(4) 0.4163(4) 0.4989(2)
H19 H 0.1389 0.4328 0.5269
C21 C 0.2562(4) 0.4102(4) 0.5093(2)
H20 H 0.2729 0.4235 0.5422
C22 C 0.2056(5) 0.2885(5) 0.4865(2)
C23 C 0.3677(4) 0.4955(4) 0.4835(2)
H21 H 0.3681 0.5491 0.4716
H22 H 0.3851 0.4971 0.5170
C24 C 0.3495(4) 0.2929(4) 0.5091(2)
H23 H 0.3419 0.2363 0.5114
H24 H 0.3727 0.3114 0.5396
C25 C 0.4464(4) 0.4687(4) 0.4160(3)
C26 C 0.4578(4) 0.3758(4) 0.4765(2)
H25 H 0.4852 0.3819 0.5082
C27 C 0.5191(4) 0.3556(3) 0.4399(2)
H26 H 0.5751 0.3602 0.4534
C28 C 0.4348(4) 0.2486(4) 0.4486(2)
C29 C 0.5509(4) 0.4244(4) 0.3668(2)
H27 H 0.6066 0.4252 0.3801
H28 H 0.5389 0.4754 0.3525
C30 C 0.5531(4) 0.2251(3) 0.4073(2)
H29 H 0.5405 0.1713 0.4154
H30 H 0.6071 0.2366 0.4212
C31 C 0.5122(4) 0.3828(4) 0.2858(2)
C32 C 0.5882(3) 0.2945(3) 0.3332(2)
H31 H 0.6439 0.3039 0.3461
C33 C 0.5842(3) 0.2675(3) 0.2821(2)
H32 H 0.6376 0.2679 0.2700
C34 C 0.5344(3) 0.1693(3) 0.3283(2)
C35 C 0.5183(4) 0.3283(4) 0.2075(2)
H33 H 0.5100 0.3833 0.1990
H34 H 0.5666 0.3107 0.1938
C36 C 0.5394(3) 0.1372(3) 0.24541(19)
H35 H 0.5402 0.0832 0.2566
H36 H 0.5832 0.1434 0.2253
C37 C 0.3802(3) 0.3157(4) 0.1702(2)
C38 C 0.4547(3) 0.2007(3) 0.1780(2)
H37 H 0.4949 0.1890 0.1557
C39 C 0.3690(3) 0.1819(3) 0.15616(19)
H38 H 0.3689 0.1548 0.1257
C40 C 0.3957(3) 0.1136(4) 0.22598(19)
C41 C 0.2610(3) 0.2717(4) 0.12081(19)
H39 H 0.2641 0.2408 0.0923
H40 H 0.2589 0.3269 0.1119
C42 C 0.2687(3) 0.0840(3) 0.1825(2)
H41 H 0.2710 0.0592 0.1518
H42 H 0.2698 0.0426 0.2061
N1 N 0.1873(3) 0.2512(3) 0.14228(15)
N2 N 0.0590(3) 0.2623(3) 0.14881(15)
N3 N 0.1948(3) 0.1266(3) 0.18283(15)
N4 N 0.0701(3) 0.1476(3) 0.20006(15)
N5 N -0.0406(3) 0.3083(3) 0.19884(16)
N6 N -0.0583(3) 0.3663(3) 0.26588(16)
N7 N -0.0360(3) 0.1883(3) 0.24546(17)
N8 N -0.0914(3) 0.2441(3) 0.30381(18)
N9 N -0.0266(3) 0.4102(3) 0.34581(16)
N10 N 0.0347(3) 0.4529(3) 0.41310(17)
N11 N -0.0764(3) 0.2940(3) 0.38238(19)
N12 N 0.0121(3) 0.3229(3) 0.44047(19)
N13 N 0.1559(3) 0.4740(3) 0.46240(17)
N14 N 0.2868(3) 0.4654(3) 0.47741(17)
N15 N 0.1420(4) 0.3375(3) 0.48467(19)
N16 N 0.2741(3) 0.3287(3) 0.49909(19)
N17 N 0.4237(3) 0.4488(3) 0.45966(19)
N18 N 0.4997(3) 0.4125(3) 0.40431(18)
N19 N 0.4060(3) 0.3083(3) 0.47418(18)
N20 N 0.4982(3) 0.2763(3) 0.42713(16)
N21 N 0.5419(3) 0.3652(3) 0.33107(18)
N22 N 0.5314(3) 0.3228(3) 0.25785(18)
N23 N 0.5521(3) 0.2314(3) 0.35703(16)
N24 N 0.5529(3) 0.1881(3) 0.28468(16)
N25 N 0.4511(3) 0.2834(3) 0.18722(17)
N26 N 0.3320(3) 0.2580(3) 0.15200(15)
N27 N 0.4646(3) 0.1512(3) 0.21776(15)
N28 N 0.3384(3) 0.1334(3) 0.19189(15)
O6 O 0.1303(2) 0.3740(2) 0.13666(14)
O7 O 0.0080(2) 0.4336(2) 0.21173(14)
O8 O 0.0728(3) 0.5057(3) 0.34458(15)
O9 O 0.2356(2) 0.5641(3) 0.42890(14)
O10 O 0.4240(3) 0.5244(3) 0.39336(18)
O11 O 0.4739(3) 0.4407(3) 0.27458(16)
O12 O 0.3642(2) 0.3864(3) 0.17007(15)
O13 O 0.1556(2) 0.0797(3) 0.25264(14)
O14 O -0.0275(3) 0.1253(3) 0.31649(17)
O15 O -0.0125(3) 0.1929(3) 0.42363(17)
O16 O 0.2027(4) 0.2163(3) 0.4780(2)
O17 O 0.4081(3) 0.1826(3) 0.44656(17)
O18 O 0.5055(2) 0.1068(2) 0.33912(13)
O19 O 0.3870(2) 0.0680(2) 0.25779(13)
La1A La 0.39578(2) 0.00672(2) 0.334475(13)
O18A O -0.0055(2) 0.6068(2) 0.16088(13)
O19A O 0.1130(2) 0.5680(2) 0.24221(13)
loop_
_geom_bond_atom_site_label_1
_geom_bond_atom_site_label_2
_geom_bond_site_symmetry_1
_geom_bond_site_symmetry_2
O1 La1 1_555 1_555
O2 La1 1_555 1_555
O3 La1 1_555 1_555
O4 La1 1_555 1_555
O5 La1 1_555 1_555
La1 O6 1_555 1_555
C1 N1 1_555 1_555
C2 H1 1_555 1_555
C3 C2 1_555 1_555
H2 C3 1_555 1_555
C4 N3 1_555 1_555
C5 H3 1_555 1_555
H4 C5 1_555 1_555
C6 H5 1_555 1_555
H6 C6 1_555 1_555
C7 N5 1_555 1_555
C8 H7 1_555 1_555
C9 C8 1_555 1_555
H8 C9 1_555 1_555
C10 N7 1_555 1_555
C11 H9 1_555 1_555
H10 C11 1_555 1_555
C12 H11 1_555 1_555
H12 C12 1_555 1_555
C13 N9 1_555 1_555
C14 H13 1_555 1_555
C15 C14 1_555 1_555
H14 C15 1_555 1_555
C16 N11 1_555 1_555
C17 H15 1_555 1_555
H16 C17 1_555 1_555
C18 H17 1_555 1_555
H18 C18 1_555 1_555
C19 N13 1_555 1_555
C20 H19 1_555 1_555
C21 C20 1_555 1_555
H20 C21 1_555 1_555
C22 N15 1_555 1_555
C23 H21 1_555 1_555
H22 C23 1_555 1_555
C24 H23 1_555 1_555
H24 C24 1_555 1_555
C25 N17 1_555 1_555
C26 H25 1_555 1_555
C27 C26 1_555 1_555
H26 C27 1_555 1_555
C28 N19 1_555 1_555
C29 H27 1_555 1_555
H28 C29 1_555 1_555
C30 H29 1_555 1_555
H30 C30 1_555 1_555
C31 N21 1_555 1_555
C32 H31 1_555 1_555
C33 C32 1_555 1_555
H32 C33 1_555 1_555
C34 N23 1_555 1_555
C35 H33 1_555 1_555
H34 C35 1_555 1_555
C36 H35 1_555 1_555
H36 C36 1_555 1_555
C37 N25 1_555 1_555
C38 H37 1_555 1_555
C39 C38 1_555 1_555
H38 C39 1_555 1_555
C40 N27 1_555 1_555
C41 H39 1_555 1_555
H40 C41 1_555 1_555
C42 H41 1_555 1_555
H42 C42 1_555 1_555
N1 C2 1_555 1_555
N2 C1 1_555 1_555
N3 C2 1_555 1_555
N4 C3 1_555 1_555
N5 C5 1_555 1_555
N6 C7 1_555 1_555
N7 C6 1_555 1_555
N8 C9 1_555 1_555
N9 C11 1_555 1_555
N10 C13 1_555 1_555
N11 C12 1_555 1_555
N12 C15 1_555 1_555
N13 C17 1_555 1_555
N14 C19 1_555 1_555
N15 C18 1_555 1_555
N16 C21 1_555 1_555
N17 C23 1_555 1_555
N18 C25 1_555 1_555
N19 C24 1_555 1_555
N20 C27 1_555 1_555
N21 C29 1_555 1_555
N22 C31 1_555 1_555
N23 C30 1_555 1_555
N24 C33 1_555 1_555
N25 C35 1_555 1_555
N26 C37 1_555 1_555
N27 C36 1_555 1_555
N28 C39 1_555 1_555
O6 C1 1_555 1_555
O7 La1 1_555 1_555
O8 C13 1_555 1_555
O9 C19 1_555 1_555
O10 C25 1_555 1_555
O11 C31 1_555 1_555
O12 C37 1_555 1_555
O13 C4 1_555 1_555
O14 C10 1_555 1_555
O15 C16 1_555 1_555
O16 C22 1_555 1_555
O17 C28 1_555 1_555
O18 C34 1_555 1_555
O19 C40 1_555 1_555
Cd1 Cl1 1_555 1_555
Cl2 Cd1 1_555 1_555
Cl3 Cd1 1_555 1_555
Cl4 Cd1 1_555 1_555
Cd2 Cl5 1_555 1_555
Cl6 Cd2 1_555 1_555
Cl7 Cd2 1_555 1_555
Cl8 Cd2 1_555 1_555
La1A O18 1_555 1_555
O18A La1 1_555 1_555
O19A La1 1_555 1_555
C3 N2 1_555 1_555
C4 N4 1_555 1_555
C5 N2 1_555 1_555
C6 N4 1_555 1_555
C7 O7 1_555 1_555
C8 N5 1_555 1_555
C8 N7 1_555 1_555
C9 N6 1_555 1_555
C10 N8 1_555 1_555
C11 N6 1_555 1_555
C12 N8 1_555 1_555
C14 N9 1_555 1_555
C14 N11 1_555 1_555
C15 N10 1_555 1_555
C16 N12 1_555 1_555
C17 N10 1_555 1_555
C18 N12 1_555 1_555
C20 N13 1_555 1_555
C20 N15 1_555 1_555
C21 N14 1_555 1_555
C22 N16 1_555 1_555
C23 N14 1_555 1_555
C24 N16 1_555 1_555
C26 N17 1_555 1_555
C26 N19 1_555 1_555
C27 N18 1_555 1_555
C28 N20 1_555 1_555
C29 N18 1_555 1_555
C30 N20 1_555 1_555
C32 N21 1_555 1_555
C32 N23 1_555 1_555
C33 N22 1_555 1_555
C34 N24 1_555 1_555
C35 N22 1_555 1_555
C36 N24 1_555 1_555
C38 N25 1_555 1_555
C38 N27 1_555 1_555
C39 N26 1_555 1_555
C40 N28 1_555 1_555
C41 N1 1_555 1_555
C41 N26 1_555 1_555
C42 N3 1_555 1_555
C42 N28 1_555 1_555
O19 La1A 1_555 1_555

#END
