
#######################################################################
#
#                 Cambridge Crystallographic Data Centre
#                                CCDC 
#
#######################################################################
#
# If this CIF has been generated from an entry in the Cambridge 
# Structural Database, then it will include bibliographic, chemical, 
# crystal, experimental, refinement or atomic coordinate data resulting 
# from the CCDC's data processing and validation procedures.
#
#######################################################################

data_NEWZAS
_symmetry_cell_setting           monoclinic
_symmetry_space_group_name_H-M   'P 21/c'
_symmetry_Int_Tables_number      14
_space_group_name_Hall           '-P 2ybc'
loop_
_symmetry_equiv_pos_site_id
_symmetry_equiv_pos_as_xyz
1 x,y,z
2 -x,1/2+y,1/2-z
3 -x,-y,-z
4 x,1/2-y,1/2+z
_cell_length_a                   12.7286(12)
_cell_length_b                   7.7373(5)
_cell_length_c                   20.1642(18)
_cell_angle_alpha                90
_cell_angle_beta                 102.623(5)
_cell_angle_gamma                90
_cell_volume                     1937.87
loop_
_atom_site_label
_atom_site_type_symbol
_atom_site_fract_x
_atom_site_fract_y
_atom_site_fract_z
Cd1 Cd 0.531817(18) 0.85116(3) 0.675648(12)
Cd2 Cd 0.622830(19) 0.45396(3) 0.606035(12)
S1 S 0.59005(7) 1.09994(12) 0.60475(5)
S2 S 0.51709(7) 0.51821(12) 0.70871(4)
O1 O 0.47087(19) 0.6017(4) 0.55867(13)
O2 O 0.3158(2) 0.5366(4) 0.48926(13)
O3 O 0.6814(2) 0.7285(3) 0.63761(14)
O4 O 0.8498(3) 0.6952(4) 0.6277(2)
N1 N 0.3496(2) 0.8888(4) 0.62485(15)
N2 N 0.3423(2) 0.3598(4) 0.71690(15)
N3 N 0.7625(2) 1.2757(4) 0.65751(15)
C1 C 0.2701(3) 0.8372(5) 0.6542(2)
H1 H 0.2881 0.7917 0.6979
C2 C 0.3216(3) 0.9536(6) 0.56188(19)
H2 H 0.3758 0.9868 0.5402
C3 C 0.1622(3) 0.8486(6) 0.6222(2)
H3 H 0.1095 0.8077 0.6437
C4 C 0.2159(3) 0.9732(6) 0.5278(2)
H4 H 0.2001 1.0214 0.4845
C5 C 0.1333(3) 0.9216(6) 0.5578(2)
C6 C 0.0183(3) 0.9470(6) 0.5259(2)
H5 H -0.0321 0.8846 0.5433
C7 C 0.2432(3) 0.2960(6) 0.6976(2)
H6 H 0.2140 0.2374 0.7296
C8 C 0.1822(3) 0.3124(6) 0.6329(2)
H7 H 0.1119 0.2713 0.6215
C9 C 0.2287(3) 0.3921(6) 0.5852(2)
H8 H 0.1897 0.4026 0.5407
C10 C 0.3331(3) 0.4571(5) 0.60264(17)
C11 C 0.3881(3) 0.4411(4) 0.67113(16)
C12 C 0.3780(3) 0.5372(5) 0.54674(17)
C13 C 0.8658(3) 1.3068(5) 0.6855(2)
H9 H 0.8880 1.4205 0.6944
C14 C 0.9406(3) 1.1767(5) 0.7014(2)
H10 H 1.0116 1.2003 0.7227
C15 C 0.9067(3) 1.0101(5) 0.6849(2)
H11 H 0.9566 0.9206 0.6937
C16 C 0.8006(3) 0.9722(4) 0.65558(17)
C17 C 0.7271(3) 1.1112(4) 0.64313(16)
C18 C 0.7754(3) 0.7843(5) 0.63807(19)
N1B N -0.3496(2) 1.1112(4) 0.37515(15)
C1B C -0.2701(3) 1.1628(5) 0.3458(2)
H1B H -0.2881 1.2083 0.3021
C2B C -0.3216(3) 1.0464(6) 0.43812(19)
H2B H -0.3758 1.0132 0.4598
C3B C -0.1622(3) 1.1514(6) 0.3778(2)
H3B H -0.1095 1.1923 0.3563
C4B C -0.2159(3) 1.0268(6) 0.4722(2)
H4B H -0.2001 0.9786 0.5155
C5B C -0.1333(3) 1.0784(6) 0.4422(2)
C6B C -0.0183(3) 1.0530(6) 0.4741(2)
H5B H 0.0321 1.1154 0.4567
Cd1B Cd -0.531817(18) 1.14884(3) 0.324352(12)
Cd2B Cd -0.622830(19) 1.54604(3) 0.393965(12)
S1B S -0.59005(7) 0.90006(12) 0.39525(5)
S2B S -0.51709(7) 1.48179(12) 0.29129(4)
O1B O -0.47087(19) 1.3983(4) 0.44133(13)
O2B O -0.3158(2) 1.4634(4) 0.51074(13)
O3B O -0.6814(2) 1.2715(3) 0.36239(14)
O4B O -0.8498(3) 1.3048(4) 0.3723(2)
N2B N -0.3423(2) 1.6402(4) 0.28310(15)
N3B N -0.7625(2) 0.7243(4) 0.34249(15)
C7B C -0.2432(3) 1.7040(6) 0.3024(2)
H6B H -0.2140 1.7626 0.2704
C8B C -0.1822(3) 1.6876(6) 0.3671(2)
H7B H -0.1119 1.7287 0.3785
C9B C -0.2287(3) 1.6079(6) 0.4148(2)
H8B H -0.1897 1.5974 0.4593
C10B C -0.3331(3) 1.5429(5) 0.39736(17)
C11B C -0.3881(3) 1.5589(4) 0.32887(16)
C12B C -0.3780(3) 1.4628(5) 0.45326(17)
C13B C -0.8658(3) 0.6932(5) 0.3145(2)
H9B H -0.8880 0.5795 0.3056
C14B C -0.9406(3) 0.8233(5) 0.2986(2)
H10B H -1.0116 0.7997 0.2773
C15B C -0.9067(3) 0.9899(5) 0.3151(2)
H11B H -0.9566 1.0794 0.3063
C16B C -0.8006(3) 1.0278(4) 0.34442(17)
C17B C -0.7271(3) 0.8888(4) 0.35687(16)
C18B C -0.7754(3) 1.2157(5) 0.36193(19)
Cd1A Cd 0.468183(18) 0.35116(3) 0.824352(12)
Cd1C Cd -0.468183(18) 1.64884(3) 0.175648(12)
Cd2_2 Cd -0.377170(19) 1.45396(3) 0.606035(12)
Cd2_3 Cd 0.622830(19) 1.45396(3) 0.606035(12)
Cd2B_2 Cd -0.622830(19) 0.54604(3) 0.393965(12)
Cd2B_3 Cd 0.377170(19) 0.54604(3) 0.393965(12)
S1_2 S 0.59005(7) 0.09994(12) 0.60475(5)
S1B_2 S -0.59005(7) 1.90006(12) 0.39525(5)
S2A S 0.48291(7) 1.01821(12) 0.79129(4)
S2C S -0.48291(7) 0.98179(12) 0.20871(4)
O2_2 O -0.6842(2) 1.5366(4) 0.48926(13)
O2B_2 O 0.6842(2) 0.4634(4) 0.51074(13)
N2A N 0.6577(2) 0.8598(4) 0.78310(15)
N2C N -0.6577(2) 1.1402(4) 0.21690(15)
N3_2 N 0.7625(2) 0.2757(4) 0.65751(15)
N3B_2 N -0.7625(2) 1.7243(4) 0.34249(15)
O5 O 0.9442(7) 0.4408(12) 0.5533(4)
H12 H 0.9189 0.5174 0.5757
H13 H 0.8936 0.3742 0.5340
loop_
_geom_bond_atom_site_label_1
_geom_bond_atom_site_label_2
_geom_bond_site_symmetry_1
_geom_bond_site_symmetry_2
Cd1 S1 1_555 1_555
Cd2 S2 1_555 1_555
S1 C17 1_555 1_555
S2 Cd1 1_555 1_555
O1 Cd2 1_555 1_555
O2 C12 1_555 1_555
O3 Cd1 1_555 1_555
O4 C18 1_555 1_555
N1 Cd1 1_555 1_555
N2 C7 1_555 1_555
N3 C13 1_555 1_555
C1 N1 1_555 1_555
H1 C1 1_555 1_555
C2 N1 1_555 1_555
H2 C2 1_555 1_555
C3 C1 1_555 1_555
H3 C3 1_555 1_555
C4 C2 1_555 1_555
H4 C4 1_555 1_555
C5 C3 1_555 1_555
C6 C5 1_555 1_555
H5 C6 1_555 1_555
C7 H6 1_555 1_555
C8 C7 1_555 1_555
H7 C8 1_555 1_555
C9 C8 1_555 1_555
H8 C9 1_555 1_555
C10 C9 1_555 1_555
C11 S2 1_555 1_555
C12 O1 1_555 1_555
C13 H9 1_555 1_555
C14 C13 1_555 1_555
H10 C14 1_555 1_555
C15 C14 1_555 1_555
H11 C15 1_555 1_555
C16 C15 1_555 1_555
C17 N3 1_555 1_555
C18 O3 1_555 1_555
O5 H12 1_555 1_555
H13 O5 1_555 1_555
N1B C1B 1_555 1_555
C1B H1B 1_555 1_555
C2B N1B 1_555 1_555
H2B C2B 1_555 1_555
C3B C1B 1_555 1_555
H3B C3B 1_555 1_555
C4B C2B 1_555 1_555
H4B C4B 1_555 1_555
C5B C3B 1_555 1_555
C6B C6 1_555 1_555
H5B C6B 1_555 1_555
Cd1B N1B 1_555 1_555
Cd2B S2B 1_555 1_555
S1B Cd1B 1_555 1_555
S2B Cd1B 1_555 1_555
O1B Cd2B 1_555 1_555
O2B C12B 1_555 1_555
O3B Cd1B 1_555 1_555
O4B C18B 1_555 1_555
N2B C7B 1_555 1_555
N3B C13B 1_555 1_555
C7B H6B 1_555 1_555
C8B C7B 1_555 1_555
H7B C8B 1_555 1_555
C9B C8B 1_555 1_555
H8B C9B 1_555 1_555
C10B C9B 1_555 1_555
C11B S2B 1_555 1_555
C12B O1B 1_555 1_555
C13B H9B 1_555 1_555
C14B C13B 1_555 1_555
H10B C14B 1_555 1_555
C15B C14B 1_555 1_555
H11B C15B 1_555 1_555
C16B C15B 1_555 1_555
C17B S1B 1_555 1_555
C18B O3B 1_555 1_555
Cd1A S2 1_555 1_555
Cd1C S2B 1_555 1_555
Cd2_2 O2B 1_555 1_555
Cd2_3 S1 1_555 1_555
Cd2B_2 S1B 1_555 1_555
Cd2B_3 O2 1_555 1_555
S1_2 Cd2 1_555 1_555
S1B_2 Cd2B 1_555 1_555
S2A Cd1 1_555 1_555
S2C Cd1B 1_555 1_555
O2_2 Cd2B 1_555 1_555
O2B_2 Cd2 1_555 1_555
N2A Cd1 1_555 1_555
N2C Cd1B 1_555 1_555
N3_2 Cd2 1_555 1_555
N3B_2 Cd2B 1_555 1_555
Cd2 O3 1_555 1_555
N2 C11 1_555 1_555
N2 Cd1A 1_555 1_555
N3 Cd2_3 1_555 1_555
C4 C5 1_555 1_555
C10 C11 1_555 1_555
C10 C12 1_555 1_555
C16 C17 1_555 1_555
C16 C18 1_555 1_555
C4B C5B 1_555 1_555
C5B C6B 1_555 1_555
Cd2B O3B 1_555 1_555
N2B C11B 1_555 1_555
N2B Cd1C 1_555 1_555
N3B C17B 1_555 1_555
N3B Cd2B_2 1_555 1_555
C10B C11B 1_555 1_555
C10B C12B 1_555 1_555
C16B C17B 1_555 1_555
C16B C18B 1_555 1_555

#END
