
#######################################################################
#
#                 Cambridge Crystallographic Data Centre
#                                CCDC 
#
#######################################################################
#
# If this CIF has been generated from an entry in the Cambridge 
# Structural Database, then it will include bibliographic, chemical, 
# crystal, experimental, refinement or atomic coordinate data resulting 
# from the CCDC's data processing and validation procedures.
#
#######################################################################

data_NEWZIA
_symmetry_cell_setting           triclinic
_symmetry_space_group_name_H-M   'P -1'
_symmetry_Int_Tables_number      2
_space_group_name_Hall           '-P 1'
loop_
_symmetry_equiv_pos_site_id
_symmetry_equiv_pos_as_xyz
1 x,y,z
2 -x,-y,-z
_cell_length_a                   7.204(4)
_cell_length_b                   10.816(6)
_cell_length_c                   12.443(8)
_cell_angle_alpha                86.891(10)
_cell_angle_beta                 89.031(14)
_cell_angle_gamma                81.679(11)
_cell_volume                     957.881
loop_
_atom_site_label
_atom_site_type_symbol
_atom_site_fract_x
_atom_site_fract_y
_atom_site_fract_z
Zn1 Zn 0.08757(8) 0.16518(6) 0.37450(5)
Zn2 Zn 0.42490(8) 0.16719(6) 0.69697(5)
S1 S 0.22740(18) -0.03673(13) 0.40303(11)
S2 S 0.33590(17) 0.24017(14) 0.52813(12)
O1 O -0.1471(5) 0.1250(4) 0.3037(3)
O2 O -0.3248(5) -0.0109(4) 0.2555(4)
O3 O 0.2944(5) 0.3094(4) 0.7762(3)
O4 O 0.1629(7) 0.5073(5) 0.7697(5)
N1 N 0.3261(6) -0.1537(5) 0.2289(4)
N2 N -0.0194(5) 0.2894(4) 0.4833(3)
N3 N 0.2130(6) 0.2448(4) 0.2451(4)
C1 C 0.1126(8) 0.2891(6) 0.1582(5)
H1 H -0.0105 0.2730 0.1546
C2 C 0.3926(7) 0.2669(6) 0.2475(5)
H2 H 0.4669 0.2329 0.3053
C3 C 0.1808(8) 0.3564(6) 0.0749(5)
H3 H 0.1072 0.3816 0.0147
C4 C 0.4695(8) 0.3366(6) 0.1694(5)
H4 H 0.5932 0.3507 0.1750
C5 C 0.3624(7) 0.3875(5) 0.0800(5)
C6 C 0.4257(7) 0.4702(5) -0.0049(5)
H5 H 0.3596 0.4820 -0.0691
C7 C -0.2009(7) 0.3415(5) 0.4922(5)
H6 H -0.2852 0.3284 0.4397
C8 C -0.2632(7) 0.4126(6) 0.5757(5)
H7 H -0.3886 0.4476 0.5804
C9 C -0.1364(7) 0.4325(5) 0.6543(5)
H8 H -0.1769 0.4825 0.7110
C10 C 0.0509(7) 0.3775(5) 0.6483(5)
C11 C 0.1062(6) 0.3075(5) 0.5586(4)
C12 C 0.1778(7) 0.3997(6) 0.7361(5)
C13 C 0.3047(8) -0.2048(7) 0.1341(6)
H9 H 0.4066 -0.2538 0.1034
C14 C 0.1368(8) -0.1861(8) 0.0824(6)
H10 H 0.1245 -0.2213 0.0168
C15 C -0.0139(8) -0.1148(7) 0.1282(5)
H11 H -0.1291 -0.1027 0.0937
C16 C 0.0031(6) -0.0606(5) 0.2254(4)
C17 C 0.1777(6) -0.0843(5) 0.2760(4)
C18 C -0.1660(7) 0.0225(5) 0.2670(4)
N3A N 0.7870(6) 0.7552(4) -0.2451(4)
C1A C 0.8874(8) 0.7109(6) -0.1582(5)
H1A H 1.0105 0.7270 -0.1546
C2A C 0.6074(7) 0.7331(6) -0.2475(5)
H2A H 0.5331 0.7671 -0.3053
C3A C 0.8192(8) 0.6436(6) -0.0749(5)
H3A H 0.8928 0.6184 -0.0147
C4A C 0.5305(8) 0.6634(6) -0.1694(5)
H4A H 0.4068 0.6493 -0.1750
C5A C 0.6376(7) 0.6125(5) -0.0800(5)
C6A C 0.5743(7) 0.5298(5) 0.0049(5)
H5A H 0.6404 0.5180 0.0691
Zn1A Zn -0.08757(8) -0.16518(6) 0.62550(5)
Zn2A Zn -0.42490(8) -0.16719(6) 0.30303(5)
S1A S -0.22740(18) 0.03673(13) 0.59697(11)
S2A S -0.33590(17) -0.24017(14) 0.47187(12)
O1A O 0.1471(5) -0.1250(4) 0.6963(3)
O2A O 0.3248(5) 0.0109(4) 0.7445(4)
O3A O -0.2944(5) -0.3094(4) 0.2238(3)
O4A O -0.1629(7) -0.5073(5) 0.2303(5)
N1A N -0.3261(6) 0.1537(5) 0.7711(4)
N2A N 0.0194(5) -0.2894(4) 0.5167(3)
C7A C 0.2009(7) -0.3415(5) 0.5078(5)
H6A H 0.2852 -0.3284 0.5603
C8A C 0.2632(7) -0.4126(6) 0.4243(5)
H7A H 0.3886 -0.4476 0.4196
C9A C 0.1364(7) -0.4325(5) 0.3457(5)
H8A H 0.1769 -0.4825 0.2890
C10A C -0.0509(7) -0.3775(5) 0.3517(5)
C11A C -0.1062(6) -0.3075(5) 0.4414(4)
C12A C -0.1778(7) -0.3997(6) 0.2639(5)
C13A C -0.3047(8) 0.2048(7) 0.8659(6)
H9A H -0.4066 0.2538 0.8966
C14A C -0.1368(8) 0.1861(8) 0.9176(6)
H10A H -0.1245 0.2213 0.9832
C15A C 0.0139(8) 0.1148(7) 0.8718(5)
H11A H 0.1291 0.1027 0.9063
C16A C -0.0031(6) 0.0606(5) 0.7746(4)
C17A C -0.1777(6) 0.0843(5) 0.7240(4)
C18A C 0.1660(7) -0.0225(5) 0.7330(4)
Zn1A_2 Zn 0.91243(8) 0.83482(6) -0.37450(5)
Zn2_2 Zn -0.57510(8) 0.16719(6) 0.69697(5)
Zn2A_2 Zn 0.57510(8) -0.16719(6) 0.30303(5)
N1_2 N -0.6739(6) -0.1537(5) 0.2289(4)
N1A_2 N 0.6739(6) 0.1537(5) 0.7711(4)
N3A_2 N -0.2130(6) -0.2448(4) 0.7549(4)
loop_
_geom_bond_atom_site_label_1
_geom_bond_atom_site_label_2
_geom_bond_site_symmetry_1
_geom_bond_site_symmetry_2
Zn1 S1 1_555 1_555
Zn2 S2 1_555 1_555
S1 C17 1_555 1_555
S2 Zn1 1_555 1_555
O1 Zn1 1_555 1_555
O2 C18 1_555 1_555
O3 Zn2 1_555 1_555
O4 C12 1_555 1_555
N1 C13 1_555 1_555
N2 Zn1 1_555 1_555
N3 Zn1 1_555 1_555
C1 N3 1_555 1_555
H1 C1 1_555 1_555
C2 N3 1_555 1_555
H2 C2 1_555 1_555
C3 C1 1_555 1_555
H3 C3 1_555 1_555
C4 C2 1_555 1_555
H4 C4 1_555 1_555
C5 C3 1_555 1_555
C6 C5 1_555 1_555
H5 C6 1_555 1_555
C7 N2 1_555 1_555
H6 C7 1_555 1_555
C8 C7 1_555 1_555
H7 C8 1_555 1_555
C9 C8 1_555 1_555
H8 C9 1_555 1_555
C10 C9 1_555 1_555
C11 S2 1_555 1_555
C12 O3 1_555 1_555
C13 H9 1_555 1_555
C14 C13 1_555 1_555
H10 C14 1_555 1_555
C15 C14 1_555 1_555
H11 C15 1_555 1_555
C16 C15 1_555 1_555
C17 N1 1_555 1_555
C18 O1 1_555 1_555
N3A C1A 1_555 1_555
C1A H1A 1_555 1_555
C2A N3A 1_555 1_555
H2A C2A 1_555 1_555
C3A C1A 1_555 1_555
H3A C3A 1_555 1_555
C4A C2A 1_555 1_555
H4A C4A 1_555 1_555
C5A C3A 1_555 1_555
C6A C6 1_555 1_555
H5A C6A 1_555 1_555
Zn1A S1A 1_555 1_555
Zn2A O2 1_555 1_555
S1A C17A 1_555 1_555
S2A Zn1A 1_555 1_555
O1A Zn1A 1_555 1_555
O2A Zn2 1_555 1_555
O3A Zn2A 1_555 1_555
O4A C12A 1_555 1_555
N1A C13A 1_555 1_555
N2A Zn1A 1_555 1_555
C7A N2A 1_555 1_555
H6A C7A 1_555 1_555
C8A C7A 1_555 1_555
H7A C8A 1_555 1_555
C9A C8A 1_555 1_555
H8A C9A 1_555 1_555
C10A C9A 1_555 1_555
C11A S2A 1_555 1_555
C12A O3A 1_555 1_555
C13A H9A 1_555 1_555
C14A C13A 1_555 1_555
H10A C14A 1_555 1_555
C15A C14A 1_555 1_555
H11A C15A 1_555 1_555
C16A C15A 1_555 1_555
C17A N1A 1_555 1_555
C18A O1A 1_555 1_555
Zn1A_2 N3A 1_555 1_555
Zn2_2 N1A 1_555 1_555
Zn2A_2 N1 1_555 1_555
N1_2 Zn2A 1_555 1_555
N1A_2 Zn2 1_555 1_555
N3A_2 Zn1A 1_555 1_555
N2 C11 1_555 1_555
C4 C5 1_555 1_555
C10 C11 1_555 1_555
C10 C12 1_555 1_555
C16 C17 1_555 1_555
C16 C18 1_555 1_555
C4A C5A 1_555 1_555
C5A C6A 1_555 1_555
Zn2A S2A 1_555 1_555
O2A C18A 1_555 1_555
N2A C11A 1_555 1_555
C10A C11A 1_555 1_555
C10A C12A 1_555 1_555
C16A C17A 1_555 1_555
C16A C18A 1_555 1_555

#END
