
#######################################################################
#
#                 Cambridge Crystallographic Data Centre
#                                CCDC 
#
#######################################################################
#
# If this CIF has been generated from an entry in the Cambridge 
# Structural Database, then it will include bibliographic, chemical, 
# crystal, experimental, refinement or atomic coordinate data resulting 
# from the CCDC's data processing and validation procedures.
#
#######################################################################

data_NEWZUM
_symmetry_cell_setting           triclinic
_symmetry_space_group_name_H-M   'P -1'
_symmetry_Int_Tables_number      2
_space_group_name_Hall           '-P 1'
loop_
_symmetry_equiv_pos_site_id
_symmetry_equiv_pos_as_xyz
1 x,y,z
2 -x,-y,-z
_cell_length_a                   9.5612(6)
_cell_length_b                   11.3401(7)
_cell_length_c                   11.5069(12)
_cell_angle_alpha                112.8540(10)
_cell_angle_beta                 106.5330(10)
_cell_angle_gamma                101.6680(10)
_cell_volume                     1030.77
loop_
_atom_site_label
_atom_site_type_symbol
_atom_site_fract_x
_atom_site_fract_y
_atom_site_fract_z
Cd1 Cd -0.10716(3) 1.51327(3) 0.33980(3)
Cd2 Cd -0.00249(3) 1.18144(3) 0.26609(3)
Cl1 Cl -0.24581(10) 1.24455(9) 0.21797(9)
Cl2 Cl 0.15072(10) 1.47225(9) 0.43654(9)
Cl3 Cl -0.04391(11) 1.51104(10) 0.14160(10)
Cl4 Cl 0.01600(11) 1.21298(9) 0.51253(10)
Cl5 Cl -0.14055(13) 0.92558(10) 0.13493(12)
O1 O 0.0029(2) 1.21709(17) 0.07836(19)
H1 H 0.0419 1.1801 0.0222
H2 H -0.0188 1.2793 0.0612
N1 N 0.2493(2) 1.17782(17) 0.31518(19)
N2 N 0.4649(2) 0.84644(17) 0.20393(19)
H3 H 0.5546 0.8827 0.2822
H4 H 0.3813 0.8239 0.2256
N3 N 0.6450(4) 0.5179(3) 0.2461(3)
C1 C 0.4278(4) 1.0680(4) 0.2592(4)
C2 C 0.2816(5) 1.0798(4) 0.2272(4)
H5 H 0.2012 1.0158 0.1393
C3 C 0.3652(4) 1.2684(4) 0.4393(4)
H6 H 0.3438 1.3384 0.5025
C4 C 0.5127(5) 1.2634(4) 0.4777(4)
H7 H 0.5912 1.3285 0.5663
C5 C 0.5461(5) 1.1629(4) 0.3866(4)
H8 H 0.6480 1.1589 0.4107
C6 C 0.4541(5) 0.9522(4) 0.1566(4)
H9 H 0.3668 0.9099 0.0652
H10 H 0.5518 0.9881 0.1478
C7 C 0.4659(4) 0.7193(4) 0.0946(4)
H11 H 0.5547 0.7433 0.0698
H12 H 0.3683 0.6786 0.0109
C8 C 0.4801(4) 0.6170(4) 0.1462(4)
C9 C 0.6245(4) 0.6065(4) 0.1985(4)
H13 H 0.7129 0.6649 0.2006
C10 C 0.5198(4) 0.4356(4) 0.2432(4)
H14 H 0.5332 0.3720 0.2762
C11 C 0.3724(4) 0.4402(4) 0.1939(4)
H15 H 0.2864 0.3813 0.1942
C12 C 0.3509(4) 0.5313(4) 0.1439(4)
H16 H 0.2503 0.5354 0.1089
Cd1_2 Cd 0.89284(3) 0.51327(3) 0.33980(3)
Cd1A Cd 0.10716(3) 1.48673(3) 0.66020(3)
Cl2A Cl -0.15072(10) 1.52775(9) 0.56346(9)
Cl4A Cl -0.01600(11) 1.78702(9) 0.48747(10)
N3_2 N -0.3550(4) 1.5179(3) 0.2461(3)
O2 O 0.7455(3) 0.9528(3) 0.4443(3)
H17 H 0.7943 0.9033 0.4630
H18 H 0.8139 1.0181 0.4500
O3 O 0.2214(4) 0.8061(3) 0.2830(4)
H19 H 0.1735 0.7981 0.2042
H20 H 0.1742 0.7322 0.2800
loop_
_geom_bond_atom_site_label_1
_geom_bond_atom_site_label_2
_geom_bond_site_symmetry_1
_geom_bond_site_symmetry_2
Cd1 Cl1 1_555 1_555
Cd2 Cl1 1_555 1_555
Cl2 Cd1 1_555 1_555
Cl3 Cd1 1_555 1_555
Cl4 Cd2 1_555 1_555
Cl5 Cd2 1_555 1_555
O1 Cd2 1_555 1_555
H1 O1 1_555 1_555
H2 O1 1_555 1_555
N1 Cd2 1_555 1_555
N2 H3 1_555 1_555
H4 N2 1_555 1_555
N3 C9 1_555 1_555
C1 C2 1_555 1_555
C2 N1 1_555 1_555
H5 C2 1_555 1_555
C3 N1 1_555 1_555
H6 C3 1_555 1_555
C4 C3 1_555 1_555
H7 C4 1_555 1_555
C5 C1 1_555 1_555
H8 C5 1_555 1_555
C6 N2 1_555 1_555
H9 C6 1_555 1_555
H10 C6 1_555 1_555
C7 N2 1_555 1_555
H11 C7 1_555 1_555
H12 C7 1_555 1_555
C8 C7 1_555 1_555
C9 C8 1_555 1_555
H13 C9 1_555 1_555
C10 N3 1_555 1_555
H14 C10 1_555 1_555
C11 C10 1_555 1_555
H15 C11 1_555 1_555
C12 C8 1_555 1_555
H16 C12 1_555 1_555
O2 H17 1_555 1_555
H18 O2 1_555 1_555
O3 H19 1_555 1_555
H20 O3 1_555 1_555
Cd1_2 N3 1_555 1_555
Cd1A Cl2 1_555 1_555
Cl2A Cd1 1_555 1_555
Cl4A Cd1 1_555 1_555
N3_2 Cd1 1_555 1_555
Cd2 Cl2 1_555 1_555
Cl4 Cd1A 1_555 1_555
C1 C6 1_555 1_555
C4 C5 1_555 1_555
C11 C12 1_555 1_555
Cd1A Cl2A 1_555 1_555

#END
