
#######################################################################
#
#                 Cambridge Crystallographic Data Centre
#                                CCDC 
#
#######################################################################
#
# If this CIF has been generated from an entry in the Cambridge 
# Structural Database, then it will include bibliographic, chemical, 
# crystal, experimental, refinement or atomic coordinate data resulting 
# from the CCDC's data processing and validation procedures.
#
#######################################################################

data_NEXDOK
_symmetry_cell_setting           cubic
_symmetry_space_group_name_H-M   'P m -3 n'
_symmetry_Int_Tables_number      223
_space_group_name_Hall           '-P 4n 2 3'
loop_
_symmetry_equiv_pos_site_id
_symmetry_equiv_pos_as_xyz
1 x,y,z
2 y,z,x
3 z,x,y
4 1/2+x,1/2-z,1/2+y
5 1/2+x,1/2+z,1/2-y
6 1/2-z,1/2+y,1/2+x
7 1/2+z,1/2-y,1/2+x
8 1/2+z,1/2+y,1/2-x
9 1/2-y,1/2+x,1/2+z
10 1/2-x,1/2+z,1/2+y
11 1/2+y,1/2-x,1/2+z
12 1/2+y,1/2+x,1/2-z
13 x,-y,-z
14 -y,-z,x
15 -z,x,-y
16 -z,-x,y
17 -x,y,-z
18 -y,z,-x
19 y,-z,-x
20 z,-x,-y
21 -x,-y,z
22 1/2-z,1/2-y,1/2-x
23 1/2-y,1/2-x,1/2-z
24 1/2-x,1/2-z,1/2-y
25 -x,-y,-z
26 -y,-z,-x
27 -z,-x,-y
28 1/2-x,1/2+z,1/2-y
29 1/2-x,1/2-z,1/2+y
30 1/2+z,1/2-y,1/2-x
31 1/2-z,1/2+y,1/2-x
32 1/2-z,1/2-y,1/2+x
33 1/2+y,1/2-x,1/2-z
34 1/2+x,1/2-z,1/2-y
35 1/2-y,1/2+x,1/2-z
36 1/2-y,1/2-x,1/2+z
37 -x,y,z
38 y,z,-x
39 z,-x,y
40 z,x,-y
41 x,-y,z
42 y,-z,x
43 -y,z,x
44 -z,x,y
45 x,y,-z
46 1/2+z,1/2+y,1/2+x
47 1/2+y,1/2+x,1/2+z
48 1/2+x,1/2+z,1/2+y
_cell_length_a                   23.62700(10)
_cell_length_b                   23.62700(10)
_cell_length_c                   23.62700(10)
_cell_angle_alpha                90
_cell_angle_beta                 90
_cell_angle_gamma                90
_cell_volume                     13189.4
loop_
_atom_site_label
_atom_site_type_symbol
_atom_site_fract_x
_atom_site_fract_y
_atom_site_fract_z
N1 N 0.28245(11) 0.19689(11) 0.19359(11)
O1 O 0.43205(12) 0.19536(12) 0.06004(11)
C1 C 0.26979(16) 0.14309(17) 0.18152(17)
H1 H 0.2411 0.1266 0.2029
C2 C 0.29290(16) 0.11180(19) 0.14368(18)
H2 H 0.2795 0.0754 0.1368
C3 C 0.33955(19) 0.13378(19) 0.11224(17)
H3 H 0.3592 0.1115 0.0864
C4 C 0.35496(14) 0.19201(14) 0.12223(13)
C5 C 0.32525(14) 0.21828(13) 0.16384(13)
C6 C 0.39878(16) 0.21663(15) 0.09075(15)
Na1 Na 0.5000 0.2500 0.0000
Fe1 Fe 0.2500 0.2500 0.2500
N1U N 0.30641(11) 0.30311(11) 0.21755(11)
N1F N 0.69359(11) 0.30311(11) -0.21755(11)
N1P N 0.71755(11) 0.19689(11) -0.19359(11)
N1JA N 0.71755(11) 0.19689(11) 0.19359(11)
N1CA N 0.69359(11) 0.30311(11) 0.21755(11)
N1RA N 0.28245(11) 0.19689(11) -0.19359(11)
N1EA N 0.30641(11) 0.30311(11) -0.21755(11)
N1A N 0.19689(11) 0.19359(11) 0.28245(11)
N1V N 0.30311(11) 0.21755(11) 0.30641(11)
N1B N 0.19359(11) 0.28245(11) 0.19689(11)
N1W N 0.21755(11) 0.30641(11) 0.30311(11)
N1C N 0.78245(11) 0.30641(11) -0.30311(11)
N1N N 0.80641(11) 0.28245(11) -0.19689(11)
N1J N 0.69689(11) 0.21755(11) -0.30641(11)
N1Q N 0.80311(11) 0.19359(11) -0.28245(11)
N1PA N 0.80311(11) 0.19359(11) 0.28245(11)
N1FA N 0.69689(11) 0.21755(11) 0.30641(11)
N1QA N 0.80641(11) 0.28245(11) 0.19689(11)
N1GA N 0.78245(11) 0.30641(11) 0.30311(11)
N1KA N 0.19689(11) 0.19359(11) -0.28245(11)
N1IA N 0.30311(11) 0.21755(11) -0.30641(11)
N1MA N 0.19359(11) 0.28245(11) -0.19689(11)
N1BA N 0.21755(11) 0.30641(11) -0.30311(11)
O1U O 0.43996(11) 0.30464(12) 0.06795(12)
O1F O 0.56004(11) 0.30464(12) -0.06795(12)
O1P O 0.56795(12) 0.19536(12) -0.06004(11)
O1JA O 0.56795(12) 0.19536(12) 0.06004(11)
O1CA O 0.56004(11) 0.30464(12) 0.06795(12)
O1RA O 0.43205(12) 0.19536(12) -0.06004(11)
O1EA O 0.43996(11) 0.30464(12) -0.06795(12)
O1A O 0.19536(12) 0.06004(11) 0.43205(12)
O1V O 0.30464(12) 0.06795(12) 0.43996(11)
O1B O 0.06004(11) 0.43205(12) 0.19536(12)
O1W O 0.06795(12) 0.43996(11) 0.30464(12)
O1C O 0.93205(12) 0.43996(11) -0.30464(12)
O1N O 0.93996(11) 0.43205(12) -0.19536(12)
O1J O 0.69536(12) 0.06795(12) -0.43996(11)
O1Q O 0.80464(12) 0.06004(11) -0.43205(12)
O1PA O 0.80464(12) 0.06004(11) 0.43205(12)
O1FA O 0.69536(12) 0.06795(12) 0.43996(11)
O1QA O 0.93996(11) 0.43205(12) 0.19536(12)
O1GA O 0.93205(12) 0.43996(11) 0.30464(12)
O1KA O 0.19536(12) 0.06004(11) -0.43205(12)
O1IA O 0.30464(12) 0.06795(12) -0.43996(11)
O1MA O 0.06004(11) 0.43205(12) -0.19536(12)
O1BA O 0.06795(12) 0.43996(11) -0.30464(12)
O1D O -0.06795(12) 0.56004(11) 0.30464(12)
O1LA O 0.06004(11) 0.56795(12) 0.19536(12)
O1QA_2 O -0.06004(11) 0.43205(12) 0.19536(12)
O1AA O 0.06795(12) 0.56004(11) 0.30464(12)
O1GA_2 O -0.06795(12) 0.43996(11) 0.30464(12)
O1O O -0.06004(11) 0.56795(12) 0.19536(12)
O1C_2 O -0.06795(12) 0.43996(11) -0.30464(12)
O1I O 0.06795(12) 0.56004(11) -0.30464(12)
O1UA O -0.06795(12) 0.56004(11) -0.30464(12)
O1Z O -0.06004(11) 0.56795(12) -0.19536(12)
O1N_2 O -0.06004(11) 0.43205(12) -0.19536(12)
O1S O 0.06004(11) 0.56795(12) -0.19536(12)
C1U C 0.31848(17) 0.35691(17) 0.23021(16)
C1F C 0.68152(17) 0.35691(17) -0.23021(16)
C1P C 0.73021(16) 0.14309(17) -0.18152(17)
C1JA C 0.73021(16) 0.14309(17) 0.18152(17)
C1CA C 0.68152(17) 0.35691(17) 0.23021(16)
C1RA C 0.26979(16) 0.14309(17) -0.18152(17)
C1EA C 0.31848(17) 0.35691(17) -0.23021(16)
C1A C 0.14309(17) 0.18152(17) 0.26979(16)
C1V C 0.35691(17) 0.23021(16) 0.31848(17)
C1B C 0.18152(17) 0.26979(16) 0.14309(17)
C1W C 0.23021(16) 0.31848(17) 0.35691(17)
C1C C 0.76979(16) 0.31848(17) -0.35691(17)
C1N C 0.81848(17) 0.26979(16) -0.14309(17)
C1J C 0.64309(17) 0.23021(16) -0.31848(17)
C1Q C 0.85691(17) 0.18152(17) -0.26979(16)
C1PA C 0.85691(17) 0.18152(17) 0.26979(16)
C1FA C 0.64309(17) 0.23021(16) 0.31848(17)
C1QA C 0.81848(17) 0.26979(16) 0.14309(17)
C1GA C 0.76979(16) 0.31848(17) 0.35691(17)
C1KA C 0.14309(17) 0.18152(17) -0.26979(16)
C1IA C 0.35691(17) 0.23021(16) -0.31848(17)
C1MA C 0.18152(17) 0.26979(16) -0.14309(17)
C1BA C 0.23021(16) 0.31848(17) -0.35691(17)
H1U H 0.2971 0.3734 0.2589
H1F H 0.7029 0.3734 -0.2589
H1P H 0.7589 0.1266 -0.2029
H1JA H 0.7589 0.1266 0.2029
H1CA H 0.7029 0.3734 0.2589
H1RA H 0.2411 0.1266 -0.2029
H1EA H 0.2971 0.3734 -0.2589
H1A H 0.1266 0.2029 0.2411
H1V H 0.3734 0.2589 0.2971
H1B H 0.2029 0.2411 0.1266
H1W H 0.2589 0.2971 0.3734
H1C H 0.7411 0.2971 -0.3734
H1N H 0.7971 0.2411 -0.1266
H1J H 0.6266 0.2589 -0.2971
H1Q H 0.8734 0.2029 -0.2411
H1PA H 0.8734 0.2029 0.2411
H1FA H 0.6266 0.2589 0.2971
H1QA H 0.7971 0.2411 0.1266
H1GA H 0.7411 0.2971 0.3734
H1KA H 0.1266 0.2029 -0.2411
H1IA H 0.3734 0.2589 -0.2971
H1MA H 0.2029 0.2411 -0.1266
H1BA H 0.2589 0.2971 -0.3734
C2U C 0.35632(18) 0.38820(19) 0.20710(16)
C2F C 0.64368(18) 0.38820(19) -0.20710(16)
C2P C 0.70710(16) 0.11180(19) -0.14368(18)
C2JA C 0.70710(16) 0.11180(19) 0.14368(18)
C2CA C 0.64368(18) 0.38820(19) 0.20710(16)
C2RA C 0.29290(16) 0.11180(19) -0.14368(18)
C2EA C 0.35632(18) 0.38820(19) -0.20710(16)
C2A C 0.11180(19) 0.14368(18) 0.29290(16)
C2V C 0.38820(19) 0.20710(16) 0.35632(18)
C2B C 0.14368(18) 0.29290(16) 0.11180(19)
C2W C 0.20710(16) 0.35632(18) 0.38820(19)
C2C C 0.79290(16) 0.35632(18) -0.38820(19)
C2N C 0.85632(18) 0.29290(16) -0.11180(19)
C2J C 0.61180(19) 0.20710(16) -0.35632(18)
C2Q C 0.88820(19) 0.14368(18) -0.29290(16)
C2PA C 0.88820(19) 0.14368(18) 0.29290(16)
C2FA C 0.61180(19) 0.20710(16) 0.35632(18)
C2QA C 0.85632(18) 0.29290(16) 0.11180(19)
C2GA C 0.79290(16) 0.35632(18) 0.38820(19)
C2KA C 0.11180(19) 0.14368(18) -0.29290(16)
C2IA C 0.38820(19) 0.20710(16) -0.35632(18)
C2MA C 0.14368(18) 0.29290(16) -0.11180(19)
C2BA C 0.20710(16) 0.35632(18) -0.38820(19)
H2U H 0.3632 0.4246 0.2205
H2F H 0.6368 0.4246 -0.2205
H2P H 0.7205 0.0754 -0.1368
H2JA H 0.7205 0.0754 0.1368
H2CA H 0.6368 0.4246 0.2205
H2RA H 0.2795 0.0754 -0.1368
H2EA H 0.3632 0.4246 -0.2205
H2A H 0.0754 0.1368 0.2795
H2V H 0.4246 0.2205 0.3632
H2B H 0.1368 0.2795 0.0754
H2W H 0.2205 0.3632 0.4246
H2C H 0.7795 0.3632 -0.4246
H2N H 0.8632 0.2795 -0.0754
H2J H 0.5754 0.2205 -0.3632
H2Q H 0.9246 0.1368 -0.2795
H2PA H 0.9246 0.1368 0.2795
H2FA H 0.5754 0.2205 0.3632
H2QA H 0.8632 0.2795 0.0754
H2GA H 0.7795 0.3632 0.4246
H2KA H 0.0754 0.1368 -0.2795
H2IA H 0.4246 0.2205 -0.3632
H2MA H 0.1368 0.2795 -0.0754
H2BA H 0.2205 0.3632 -0.4246
C3U C 0.38776(17) 0.36622(19) 0.16045(19)
C3F C 0.61224(17) 0.36622(19) -0.16045(19)
C3P C 0.66045(19) 0.13378(19) -0.11224(17)
C3JA C 0.66045(19) 0.13378(19) 0.11224(17)
C3CA C 0.61224(17) 0.36622(19) 0.16045(19)
C3RA C 0.33955(19) 0.13378(19) -0.11224(17)
C3EA C 0.38776(17) 0.36622(19) -0.16045(19)
C3A C 0.13378(19) 0.11224(17) 0.33955(19)
C3V C 0.36622(19) 0.16045(19) 0.38776(17)
C3B C 0.11224(17) 0.33955(19) 0.13378(19)
C3W C 0.16045(19) 0.38776(17) 0.36622(19)
C3C C 0.83955(19) 0.38776(17) -0.36622(19)
C3N C 0.88776(17) 0.33955(19) -0.13378(19)
C3J C 0.63378(19) 0.16045(19) -0.38776(17)
C3Q C 0.86622(19) 0.11224(17) -0.33955(19)
C3PA C 0.86622(19) 0.11224(17) 0.33955(19)
C3FA C 0.63378(19) 0.16045(19) 0.38776(17)
C3QA C 0.88776(17) 0.33955(19) 0.13378(19)
C3GA C 0.83955(19) 0.38776(17) 0.36622(19)
C3KA C 0.13378(19) 0.11224(17) -0.33955(19)
C3IA C 0.36622(19) 0.16045(19) -0.38776(17)
C3MA C 0.11224(17) 0.33955(19) -0.13378(19)
C3BA C 0.16045(19) 0.38776(17) -0.36622(19)
H3U H 0.4136 0.3885 0.1408
H3F H 0.5864 0.3885 -0.1408
H3P H 0.6408 0.1115 -0.0864
H3JA H 0.6408 0.1115 0.0864
H3CA H 0.5864 0.3885 0.1408
H3RA H 0.3592 0.1115 -0.0864
H3EA H 0.4136 0.3885 -0.1408
H3A H 0.1115 0.0864 0.3592
H3V H 0.3885 0.1408 0.4136
H3B H 0.0864 0.3592 0.1115
H3W H 0.1408 0.4136 0.3885
H3C H 0.8592 0.4136 -0.3885
H3N H 0.9136 0.3592 -0.1115
H3J H 0.6115 0.1408 -0.4136
H3Q H 0.8885 0.0864 -0.3592
H3PA H 0.8885 0.0864 0.3592
H3FA H 0.6115 0.1408 0.4136
H3QA H 0.9136 0.3592 0.1115
H3GA H 0.8592 0.4136 0.3885
H3KA H 0.1115 0.0864 -0.3592
H3IA H 0.3885 0.1408 -0.4136
H3MA H 0.0864 0.3592 -0.1115
H3BA H 0.1408 0.4136 -0.3885
C4U C 0.37777(13) 0.30799(14) 0.14504(14)
C4F C 0.62223(13) 0.30799(14) -0.14504(14)
C4P C 0.64504(14) 0.19201(14) -0.12223(13)
C4JA C 0.64504(14) 0.19201(14) 0.12223(13)
C4CA C 0.62223(13) 0.30799(14) 0.14504(14)
C4RA C 0.35496(14) 0.19201(14) -0.12223(13)
C4EA C 0.37777(13) 0.30799(14) -0.14504(14)
C4A C 0.19201(14) 0.12223(13) 0.35496(14)
C4V C 0.30799(14) 0.14504(14) 0.37777(13)
C4B C 0.12223(13) 0.35496(14) 0.19201(14)
C4W C 0.14504(14) 0.37777(13) 0.30799(14)
C4C C 0.85496(14) 0.37777(13) -0.30799(14)
C4N C 0.87777(13) 0.35496(14) -0.19201(14)
C4J C 0.69201(14) 0.14504(14) -0.37777(13)
C4Q C 0.80799(14) 0.12223(13) -0.35496(14)
C4PA C 0.80799(14) 0.12223(13) 0.35496(14)
C4FA C 0.69201(14) 0.14504(14) 0.37777(13)
C4QA C 0.87777(13) 0.35496(14) 0.19201(14)
C4GA C 0.85496(14) 0.37777(13) 0.30799(14)
C4KA C 0.19201(14) 0.12223(13) -0.35496(14)
C4IA C 0.30799(14) 0.14504(14) -0.37777(13)
C4MA C 0.12223(13) 0.35496(14) -0.19201(14)
C4BA C 0.14504(14) 0.37777(13) -0.30799(14)
C5U C 0.33616(13) 0.28172(13) 0.17475(14)
C5F C 0.66384(13) 0.28172(13) -0.17475(14)
C5P C 0.67475(14) 0.21828(13) -0.16384(13)
C5JA C 0.67475(14) 0.21828(13) 0.16384(13)
C5CA C 0.66384(13) 0.28172(13) 0.17475(14)
C5RA C 0.32525(14) 0.21828(13) -0.16384(13)
C5EA C 0.33616(13) 0.28172(13) -0.17475(14)
C5A C 0.21828(13) 0.16384(13) 0.32525(14)
C5V C 0.28172(13) 0.17475(14) 0.33616(13)
C5B C 0.16384(13) 0.32525(14) 0.21828(13)
C5W C 0.17475(14) 0.33616(13) 0.28172(13)
C5C C 0.82525(14) 0.33616(13) -0.28172(13)
C5N C 0.83616(13) 0.32525(14) -0.21828(13)
C5J C 0.71828(13) 0.17475(14) -0.33616(13)
C5Q C 0.78172(13) 0.16384(13) -0.32525(14)
C5PA C 0.78172(13) 0.16384(13) 0.32525(14)
C5FA C 0.71828(13) 0.17475(14) 0.33616(13)
C5QA C 0.83616(13) 0.32525(14) 0.21828(13)
C5GA C 0.82525(14) 0.33616(13) 0.28172(13)
C5KA C 0.21828(13) 0.16384(13) -0.32525(14)
C5IA C 0.28172(13) 0.17475(14) -0.33616(13)
C5MA C 0.16384(13) 0.32525(14) -0.21828(13)
C5BA C 0.17475(14) 0.33616(13) -0.28172(13)
C6U C 0.40925(15) 0.28337(15) 0.10122(16)
C6F C 0.59075(15) 0.28337(15) -0.10122(16)
C6P C 0.60122(16) 0.21663(15) -0.09075(15)
C6JA C 0.60122(16) 0.21663(15) 0.09075(15)
C6CA C 0.59075(15) 0.28337(15) 0.10122(16)
C6RA C 0.39878(16) 0.21663(15) -0.09075(15)
C6EA C 0.40925(15) 0.28337(15) -0.10122(16)
C6A C 0.21663(15) 0.09075(15) 0.39878(16)
C6V C 0.28337(15) 0.10122(16) 0.40925(15)
C6B C 0.09075(15) 0.39878(16) 0.21663(15)
C6W C 0.10122(16) 0.40925(15) 0.28337(15)
C6C C 0.89878(16) 0.40925(15) -0.28337(15)
C6N C 0.90925(15) 0.39878(16) -0.21663(15)
C6J C 0.71663(15) 0.10122(16) -0.40925(15)
C6Q C 0.78337(15) 0.09075(15) -0.39878(16)
C6PA C 0.78337(15) 0.09075(15) 0.39878(16)
C6FA C 0.71663(15) 0.10122(16) 0.40925(15)
C6QA C 0.90925(15) 0.39878(16) 0.21663(15)
C6GA C 0.89878(16) 0.40925(15) 0.28337(15)
C6KA C 0.21663(15) 0.09075(15) -0.39878(16)
C6IA C 0.28337(15) 0.10122(16) -0.40925(15)
C6MA C 0.09075(15) 0.39878(16) -0.21663(15)
C6BA C 0.10122(16) 0.40925(15) -0.28337(15)
Na1A Na 0.2500 0.0000 0.5000
Na1B Na 0.0000 0.5000 0.2500
Na1C Na 1.0000 0.5000 -0.2500
Na1J Na 0.7500 0.0000 -0.5000
Na1J_2 Na 0.7500 0.0000 0.5000
Na1B_2 Na 1.0000 0.5000 0.2500
Na1A_2 Na 0.2500 0.0000 -0.5000
Na1C_2 Na 0.0000 0.5000 -0.2500
Fe1C Fe 0.7500 0.2500 -0.2500
Fe1JA Fe 0.7500 0.2500 0.2500
Fe1KA Fe 0.2500 0.2500 -0.2500
Cl1 Cl 0.22299(9) 0.5000 0.22204(9)
O2 O 0.21288(15) 0.55078(16) 0.18979(15)
O3 O 0.2803(2) 0.5000 0.2409(2)
O4 O 0.1852(2) 0.5000 0.2701(2)
O2NA O 0.21288(15) 0.44922(16) 0.18979(15)
O8 O 0.5000 0.0640(8) 0.0000
Na2 Na 0.5000 0.0000 -0.2500
Na3 Na 0.1201(3) 0.1201(3) 0.1201(3)
Cl2? Cl 0.31552(16) 0.0000 0.0000
O5? O 0.2536(3) 0.0000 0.0000
O6? O 0.3339(5) 0.0000 0.0579(3)
O7? O 0.3322(4) -0.0518(3) -0.0273(3)
O9? O 0.5000 0.0000 0.0000
O10? O 0.5363(10) 0.0000 -0.0999(11)
loop_
_geom_bond_atom_site_label_1
_geom_bond_atom_site_label_2
_geom_bond_site_symmetry_1
_geom_bond_site_symmetry_2
N1 C1 1_555 1_555
O1 C6 1_555 1_555
C1 H1 1_555 1_555
C2 C1 1_555 1_555
H2 C2 1_555 1_555
C3 C2 1_555 1_555
H3 C3 1_555 1_555
C4 C3 1_555 1_555
C5 N1 1_555 1_555
C6 C4 1_555 1_555
Cl1 O2 1_555 1_555
O3 Cl1 1_555 1_555
O4 Cl1 1_555 1_555
Na1 O1 1_555 1_555
Fe1 N1 1_555 1_555
N1U Fe1 1_555 1_555
N1F C1F 1_555 1_555
N1P C1P 1_555 1_555
N1JA C1JA 1_555 1_555
N1CA C1CA 1_555 1_555
N1RA C1RA 1_555 1_555
N1EA C1EA 1_555 1_555
N1A Fe1 1_555 1_555
N1V Fe1 1_555 1_555
N1B Fe1 1_555 1_555
N1W Fe1 1_555 1_555
N1C C1C 1_555 1_555
N1N C1N 1_555 1_555
N1J C1J 1_555 1_555
N1Q C1Q 1_555 1_555
N1PA C1PA 1_555 1_555
N1FA C1FA 1_555 1_555
N1QA C1QA 1_555 1_555
N1GA C1GA 1_555 1_555
N1KA C1KA 1_555 1_555
N1IA C1IA 1_555 1_555
N1MA C1MA 1_555 1_555
N1BA C1BA 1_555 1_555
O1U Na1 1_555 1_555
O1F Na1 1_555 1_555
O1P Na1 1_555 1_555
O1JA Na1 1_555 1_555
O1CA Na1 1_555 1_555
O1RA Na1 1_555 1_555
O1EA Na1 1_555 1_555
O1A C6A 1_555 1_555
O1V C6V 1_555 1_555
O1B C6B 1_555 1_555
O1W C6W 1_555 1_555
O1C C6C 1_555 1_555
O1N C6N 1_555 1_555
O1J C6J 1_555 1_555
O1Q C6Q 1_555 1_555
O1PA C6PA 1_555 1_555
O1FA C6FA 1_555 1_555
O1QA C6QA 1_555 1_555
O1GA C6GA 1_555 1_555
O1KA C6KA 1_555 1_555
O1IA C6IA 1_555 1_555
O1MA C6MA 1_555 1_555
O1BA C6BA 1_555 1_555
O1D Na1B 1_555 1_555
O1LA Na1B 1_555 1_555
O1QA_2 Na1B 1_555 1_555
O1AA Na1B 1_555 1_555
O1GA_2 Na1B 1_555 1_555
O1O Na1B 1_555 1_555
O1C_2 Na1C_2 1_555 1_555
O1I Na1C_2 1_555 1_555
O1UA Na1C_2 1_555 1_555
O1Z Na1C_2 1_555 1_555
O1N_2 Na1C_2 1_555 1_555
O1S Na1C_2 1_555 1_555
C1U N1U 1_555 1_555
C1F H1F 1_555 1_555
C1P H1P 1_555 1_555
C1JA H1JA 1_555 1_555
C1CA H1CA 1_555 1_555
C1RA H1RA 1_555 1_555
C1EA H1EA 1_555 1_555
C1A N1A 1_555 1_555
C1V N1V 1_555 1_555
C1B N1B 1_555 1_555
C1W N1W 1_555 1_555
C1C H1C 1_555 1_555
C1N H1N 1_555 1_555
C1J H1J 1_555 1_555
C1Q H1Q 1_555 1_555
C1PA H1PA 1_555 1_555
C1FA H1FA 1_555 1_555
C1QA H1QA 1_555 1_555
C1GA H1GA 1_555 1_555
C1KA H1KA 1_555 1_555
C1IA H1IA 1_555 1_555
C1MA H1MA 1_555 1_555
C1BA H1BA 1_555 1_555
H1U C1U 1_555 1_555
H1A C1A 1_555 1_555
H1V C1V 1_555 1_555
H1B C1B 1_555 1_555
H1W C1W 1_555 1_555
C2U C1U 1_555 1_555
C2F C1F 1_555 1_555
C2P C1P 1_555 1_555
C2JA C1JA 1_555 1_555
C2CA C1CA 1_555 1_555
C2RA C1RA 1_555 1_555
C2EA C1EA 1_555 1_555
C2A C1A 1_555 1_555
C2V C1V 1_555 1_555
C2B C1B 1_555 1_555
C2W C1W 1_555 1_555
C2C C1C 1_555 1_555
C2N C1N 1_555 1_555
C2J C1J 1_555 1_555
C2Q C1Q 1_555 1_555
C2PA C1PA 1_555 1_555
C2FA C1FA 1_555 1_555
C2QA C1QA 1_555 1_555
C2GA C1GA 1_555 1_555
C2KA C1KA 1_555 1_555
C2IA C1IA 1_555 1_555
C2MA C1MA 1_555 1_555
C2BA C1BA 1_555 1_555
H2U C2U 1_555 1_555
H2F C2F 1_555 1_555
H2P C2P 1_555 1_555
H2JA C2JA 1_555 1_555
H2CA C2CA 1_555 1_555
H2RA C2RA 1_555 1_555
H2EA C2EA 1_555 1_555
H2A C2A 1_555 1_555
H2V C2V 1_555 1_555
H2B C2B 1_555 1_555
H2W C2W 1_555 1_555
H2C C2C 1_555 1_555
H2N C2N 1_555 1_555
H2J C2J 1_555 1_555
H2Q C2Q 1_555 1_555
H2PA C2PA 1_555 1_555
H2FA C2FA 1_555 1_555
H2QA C2QA 1_555 1_555
H2GA C2GA 1_555 1_555
H2KA C2KA 1_555 1_555
H2IA C2IA 1_555 1_555
H2MA C2MA 1_555 1_555
H2BA C2BA 1_555 1_555
C3U C2U 1_555 1_555
C3F C2F 1_555 1_555
C3P C2P 1_555 1_555
C3JA C2JA 1_555 1_555
C3CA C2CA 1_555 1_555
C3RA C2RA 1_555 1_555
C3EA C2EA 1_555 1_555
C3A C2A 1_555 1_555
C3V C2V 1_555 1_555
C3B C2B 1_555 1_555
C3W C2W 1_555 1_555
C3C C2C 1_555 1_555
C3N C2N 1_555 1_555
C3J C2J 1_555 1_555
C3Q C2Q 1_555 1_555
C3PA C2PA 1_555 1_555
C3FA C2FA 1_555 1_555
C3QA C2QA 1_555 1_555
C3GA C2GA 1_555 1_555
C3KA C2KA 1_555 1_555
C3IA C2IA 1_555 1_555
C3MA C2MA 1_555 1_555
C3BA C2BA 1_555 1_555
H3U C3U 1_555 1_555
H3F C3F 1_555 1_555
H3P C3P 1_555 1_555
H3JA C3JA 1_555 1_555
H3CA C3CA 1_555 1_555
H3RA C3RA 1_555 1_555
H3EA C3EA 1_555 1_555
H3A C3A 1_555 1_555
H3V C3V 1_555 1_555
H3B C3B 1_555 1_555
H3W C3W 1_555 1_555
H3C C3C 1_555 1_555
H3N C3N 1_555 1_555
H3J C3J 1_555 1_555
H3Q C3Q 1_555 1_555
H3PA C3PA 1_555 1_555
H3FA C3FA 1_555 1_555
H3QA C3QA 1_555 1_555
H3GA C3GA 1_555 1_555
H3KA C3KA 1_555 1_555
H3IA C3IA 1_555 1_555
H3MA C3MA 1_555 1_555
H3BA C3BA 1_555 1_555
C4U C3U 1_555 1_555
C4F C3F 1_555 1_555
C4P C3P 1_555 1_555
C4JA C3JA 1_555 1_555
C4CA C3CA 1_555 1_555
C4RA C3RA 1_555 1_555
C4EA C3EA 1_555 1_555
C4A C3A 1_555 1_555
C4V C3V 1_555 1_555
C4B C3B 1_555 1_555
C4W C3W 1_555 1_555
C4C C3C 1_555 1_555
C4N C3N 1_555 1_555
C4J C3J 1_555 1_555
C4Q C3Q 1_555 1_555
C4PA C3PA 1_555 1_555
C4FA C3FA 1_555 1_555
C4QA C3QA 1_555 1_555
C4GA C3GA 1_555 1_555
C4KA C3KA 1_555 1_555
C4IA C3IA 1_555 1_555
C4MA C3MA 1_555 1_555
C4BA C3BA 1_555 1_555
C5U C5 1_555 1_555
C5F N1F 1_555 1_555
C5P N1P 1_555 1_555
C5JA N1JA 1_555 1_555
C5CA N1CA 1_555 1_555
C5RA N1RA 1_555 1_555
C5EA N1EA 1_555 1_555
C5A N1A 1_555 1_555
C5V N1V 1_555 1_555
C5B N1B 1_555 1_555
C5W N1W 1_555 1_555
C5C N1C 1_555 1_555
C5N N1N 1_555 1_555
C5J N1J 1_555 1_555
C5Q N1Q 1_555 1_555
C5PA N1PA 1_555 1_555
C5FA N1FA 1_555 1_555
C5QA N1QA 1_555 1_555
C5GA N1GA 1_555 1_555
C5KA N1KA 1_555 1_555
C5IA N1IA 1_555 1_555
C5MA N1MA 1_555 1_555
C5BA N1BA 1_555 1_555
C6U C6 1_555 1_555
C6F O1F 1_555 1_555
C6P O1P 1_555 1_555
C6JA O1JA 1_555 1_555
C6CA O1CA 1_555 1_555
C6RA O1RA 1_555 1_555
C6EA O1EA 1_555 1_555
C6A C4A 1_555 1_555
C6V C4V 1_555 1_555
C6B C4B 1_555 1_555
C6W C4W 1_555 1_555
C6C C4C 1_555 1_555
C6N C4N 1_555 1_555
C6J C4J 1_555 1_555
C6Q C4Q 1_555 1_555
C6PA C4PA 1_555 1_555
C6FA C4FA 1_555 1_555
C6QA C4QA 1_555 1_555
C6GA C4GA 1_555 1_555
C6KA C4KA 1_555 1_555
C6IA C4IA 1_555 1_555
C6MA C4MA 1_555 1_555
C6BA C4BA 1_555 1_555
O2NA Cl1 1_555 1_555
Na1A O1A 1_555 1_555
Na1B O1B 1_555 1_555
Na1C O1C 1_555 1_555
Na1J O1J 1_555 1_555
Na1J_2 O1PA 1_555 1_555
Na1B_2 O1QA 1_555 1_555
Na1A_2 O1KA 1_555 1_555
Na1C_2 O1MA 1_555 1_555
Fe1C N1F 1_555 1_555
Fe1JA N1JA 1_555 1_555
Fe1KA N1RA 1_555 1_555
C4 C5 1_555 1_555
N1U C5U 1_555 1_555
N1P Fe1C 1_555 1_555
N1CA Fe1JA 1_555 1_555
N1EA Fe1KA 1_555 1_555
N1C Fe1C 1_555 1_555
N1N Fe1C 1_555 1_555
N1J Fe1C 1_555 1_555
N1Q Fe1C 1_555 1_555
N1PA Fe1JA 1_555 1_555
N1FA Fe1JA 1_555 1_555
N1QA Fe1JA 1_555 1_555
N1GA Fe1JA 1_555 1_555
N1KA Fe1KA 1_555 1_555
N1IA Fe1KA 1_555 1_555
N1MA Fe1KA 1_555 1_555
N1BA Fe1KA 1_555 1_555
O1U C6U 1_555 1_555
O1V Na1A 1_555 1_555
O1W Na1B 1_555 1_555
O1N Na1C 1_555 1_555
O1Q Na1J 1_555 1_555
O1FA Na1J_2 1_555 1_555
O1GA Na1B_2 1_555 1_555
O1IA Na1A_2 1_555 1_555
O1BA Na1C_2 1_555 1_555
C4U C5U 1_555 1_555
C4U C6U 1_555 1_555
C4F C5F 1_555 1_555
C4F C6F 1_555 1_555
C4P C5P 1_555 1_555
C4P C6P 1_555 1_555
C4JA C5JA 1_555 1_555
C4JA C6JA 1_555 1_555
C4CA C5CA 1_555 1_555
C4CA C6CA 1_555 1_555
C4RA C5RA 1_555 1_555
C4RA C6RA 1_555 1_555
C4EA C5EA 1_555 1_555
C4EA C6EA 1_555 1_555
C4A C5A 1_555 1_555
C4V C5V 1_555 1_555
C4B C5B 1_555 1_555
C4W C5W 1_555 1_555
C4C C5C 1_555 1_555
C4N C5N 1_555 1_555
C4J C5J 1_555 1_555
C4Q C5Q 1_555 1_555
C4PA C5PA 1_555 1_555
C4FA C5FA 1_555 1_555
C4QA C5QA 1_555 1_555
C4GA C5GA 1_555 1_555
C4KA C5KA 1_555 1_555
C4IA C5IA 1_555 1_555
C4MA C5MA 1_555 1_555
C4BA C5BA 1_555 1_555
C5F C5P 1_555 1_555
C5JA C5CA 1_555 1_555
C5RA C5EA 1_555 1_555
C5A C5V 1_555 1_555
C5B C5W 1_555 1_555
C5C C5N 1_555 1_555
C5J C5Q 1_555 1_555
C5PA C5FA 1_555 1_555
C5QA C5GA 1_555 1_555
C5KA C5IA 1_555 1_555
C5MA C5BA 1_555 1_555
C6F C6P 1_555 1_555
C6JA C6CA 1_555 1_555
C6RA C6EA 1_555 1_555
C6A C6V 1_555 1_555
C6B C6W 1_555 1_555
C6C C6N 1_555 1_555
C6J C6Q 1_555 1_555
C6PA C6FA 1_555 1_555
C6QA C6GA 1_555 1_555
C6KA C6IA 1_555 1_555
C6MA C6BA 1_555 1_555

#END
