
#######################################################################
#
#                 Cambridge Crystallographic Data Centre
#                                CCDC 
#
#######################################################################
#
# If this CIF has been generated from an entry in the Cambridge 
# Structural Database, then it will include bibliographic, chemical, 
# crystal, experimental, refinement or atomic coordinate data resulting 
# from the CCDC's data processing and validation procedures.
#
#######################################################################

data_NEXHIJ
_symmetry_cell_setting           triclinic
_symmetry_space_group_name_H-M   'P -1'
_symmetry_Int_Tables_number      2
_space_group_name_Hall           '-P 1'
loop_
_symmetry_equiv_pos_site_id
_symmetry_equiv_pos_as_xyz
1 x,y,z
2 -x,-y,-z
_cell_length_a                   10.9809(13)
_cell_length_b                   11.7784(13)
_cell_length_c                   12.1259(14)
_cell_angle_alpha                63.892(2)
_cell_angle_beta                 83.120(2)
_cell_angle_gamma                77.689(2)
_cell_volume                     1375.32
loop_
_atom_site_label
_atom_site_type_symbol
_atom_site_fract_x
_atom_site_fract_y
_atom_site_fract_z
N1 N 0.1406(5) 0.4890(5) -0.1679(4)
C1 C 0.1376(8) 0.6050(6) -0.1775(6)
H1 H 0.1207 0.6747 -0.2533
C2 C 0.1657(8) 0.3932(7) -0.0592(6)
H2 H 0.1709 0.3100 -0.0510
C3 C 0.1848(10) 0.4088(7) 0.0431(6)
H3 H 0.1987 0.3377 0.1185
Co1 Co 0.84264(7) 0.53833(7) 0.32537(7)
O1 O 0.8609(3) 0.3678(3) 0.4636(3)
O2 O 1.0654(4) 0.3604(4) 0.6338(4)
O3 O 0.8746(3) 0.0925(4) 0.4892(4)
O4 O 1.0557(4) 0.3117(4) 0.4087(3)
O5 O 0.3314(4) 0.1880(4) 0.2950(4)
O6 O 0.2903(4) 0.2277(5) 0.4607(4)
O7 O 1.1486(4) 0.2176(4) 0.8083(4)
C4 C 0.9662(5) 0.2919(6) 0.4838(5)
C5 C 0.9716(5) 0.1702(5) 0.5998(5)
N2 N 0.6507(4) 0.5826(5) 0.3219(4)
C6 C 1.0837(5) 0.2478(6) 0.7182(5)
C7 C 0.4993(5) 0.1639(5) 0.4163(5)
C8 C 1.0246(5) 0.1488(5) 0.7103(5)
C9 C 0.7476(5) 0.1125(5) 0.4735(5)
C10 C 0.4624(6) 0.7234(7) 0.2318(6)
H4 H 0.4231 0.8062 0.1823
C11 C 0.3664(6) 0.1938(6) 0.3834(6)
C12 C 0.9059(6) -0.0361(6) 0.7046(6)
H5 H 0.8678 -0.0983 0.7021
C13 C 0.9153(5) 0.0749(5) 0.6017(5)
C14 C 0.6574(5) 0.1360(6) 0.5534(5)
H6 H 0.6792 0.1359 0.6253
C15 C 0.5324(6) 0.1601(6) 0.5246(5)
H7 H 0.4704 0.1738 0.5790
C16 C 0.5927(6) 0.1382(6) 0.3388(6)
H8 H 0.5712 0.1379 0.2670
C17 C 1.0136(6) 0.0370(6) 0.8141(5)
H9 H 1.0473 0.0232 0.8867
C18 C 0.5887(6) 0.6998(6) 0.2523(6)
H10 H 0.6321 0.7679 0.2164
C19 C 0.7161(6) 0.1132(6) 0.3654(6)
H11 H 0.7779 0.0969 0.3120
C20 C 0.3952(7) 0.6272(7) 0.2830(6)
C21 C 0.9546(6) -0.0540(6) 0.8136(6)
H12 H 0.9471 -0.1275 0.8855
C22 C 0.2288(9) 0.6614(8) 0.1363(8)
H13 H 0.1470 0.7133 0.1108
H14 H 0.2902 0.7014 0.0746
C23 C 0.1585(10) 0.6275(8) -0.0798(7)
H15 H 0.1557 0.7113 -0.0907
C24 C 0.1834(10) 0.5271(8) 0.0336(7)
C25 C 0.5843(7) 0.4877(7) 0.3714(6)
H16 H 0.6253 0.4051 0.4191
C26 C 0.2319(9) 0.5351(8) 0.1493(8)
H17 H 0.1815 0.4917 0.2212
H18 H 0.3171 0.4887 0.1641
C27 C 0.4595(6) 0.5060(7) 0.3555(7)
H19 H 0.4175 0.4371 0.3935
C28 C 0.2576(7) 0.6509(8) 0.2609(7)
H20 H 0.2180 0.7298 0.2672
H21 H 0.2212 0.5813 0.3251
H22 H 0.2133 0.2533 0.4376
N1A N 0.8594(5) 0.5110(5) 0.1679(4)
Co1A Co 0.15736(7) 0.46167(7) -0.32537(7)
Co1A_2 Co 1.15736(7) 0.46167(7) 0.67463(7)
O2A O 0.9346(4) 0.6396(4) 0.3662(4)
O8 O 0.4291(6) 0.0677(7) 0.1213(6)
H23 H 0.3987 0.1302 0.1428
H24 H 0.5070 0.0545 0.1007
O9 O 0.6770(5) 1.0054(5) 0.0349(5)
H25 H 0.7210 0.9456 0.1022
H26 H 0.6678 0.9654 0.0012
loop_
_geom_bond_atom_site_label_1
_geom_bond_atom_site_label_2
_geom_bond_site_symmetry_1
_geom_bond_site_symmetry_2
N1 C1 1_555 1_555
C1 H1 1_555 1_555
C2 N1 1_555 1_555
H2 C2 1_555 1_555
C3 C2 1_555 1_555
H3 C3 1_555 1_555
Co1 O1 1_555 1_555
O1 C4 1_555 1_555
O2 C6 1_555 1_555
O3 C9 1_555 1_555
O4 C4 1_555 1_555
O5 C11 1_555 1_555
O6 C11 1_555 1_555
O7 C6 1_555 1_555
C4 C5 1_555 1_555
C5 C8 1_555 1_555
N2 Co1 1_555 1_555
C6 C8 1_555 1_555
C7 C11 1_555 1_555
C8 C17 1_555 1_555
C9 C14 1_555 1_555
C10 H4 1_555 1_555
C12 H5 1_555 1_555
C13 O3 1_555 1_555
C14 H6 1_555 1_555
C15 C7 1_555 1_555
H7 C15 1_555 1_555
C16 C7 1_555 1_555
H8 C16 1_555 1_555
C17 H9 1_555 1_555
C18 N2 1_555 1_555
H10 C18 1_555 1_555
C19 C9 1_555 1_555
H11 C19 1_555 1_555
C20 C10 1_555 1_555
C21 C12 1_555 1_555
H12 C21 1_555 1_555
C22 H13 1_555 1_555
H14 C22 1_555 1_555
C23 C1 1_555 1_555
H15 C23 1_555 1_555
C24 C3 1_555 1_555
C25 N2 1_555 1_555
H16 C25 1_555 1_555
C26 C22 1_555 1_555
H17 C26 1_555 1_555
H18 C26 1_555 1_555
C27 C20 1_555 1_555
H19 C27 1_555 1_555
C28 C20 1_555 1_555
H20 C28 1_555 1_555
H21 C28 1_555 1_555
H22 O6 1_555 1_555
O8 H23 1_555 1_555
H24 O8 1_555 1_555
O9 H25 1_555 1_555
H26 O9 1_555 1_555
N1A Co1 1_555 1_555
Co1A N1 1_555 1_555
Co1A_2 O2 1_555 1_555
O2A Co1 1_555 1_555
C5 C13 1_555 1_555
C10 C18 1_555 1_555
C12 C13 1_555 1_555
C14 C15 1_555 1_555
C16 C19 1_555 1_555
C17 C21 1_555 1_555
C22 C28 1_555 1_555
C23 C24 1_555 1_555
C24 C26 1_555 1_555
C25 C27 1_555 1_555

#END
