
#######################################################################
#
#                 Cambridge Crystallographic Data Centre
#                                CCDC 
#
#######################################################################
#
# If this CIF has been generated from an entry in the Cambridge 
# Structural Database, then it will include bibliographic, chemical, 
# crystal, experimental, refinement or atomic coordinate data resulting 
# from the CCDC's data processing and validation procedures.
#
#######################################################################

data_NEXHAB
_symmetry_cell_setting           monoclinic
_symmetry_space_group_name_H-M   'P 21/n'
_symmetry_Int_Tables_number      14
_space_group_name_Hall           '-P 2yn'
loop_
_symmetry_equiv_pos_site_id
_symmetry_equiv_pos_as_xyz
1 x,y,z
2 1/2-x,1/2+y,1/2-z
3 -x,-y,-z
4 1/2+x,1/2-y,1/2+z
_cell_length_a                   11.6760(14)
_cell_length_b                   8.4180(15)
_cell_length_c                   12.4690(15)
_cell_angle_alpha                90
_cell_angle_beta                 105.404(2)
_cell_angle_gamma                90
_cell_volume                     1181.53
loop_
_atom_site_label
_atom_site_type_symbol
_atom_site_fract_x
_atom_site_fract_y
_atom_site_fract_z
C1 C 0.9950(3) 0.4848(4) 0.2675(3)
C2 C 1.0449(3) 0.3499(4) 0.2173(3)
C3 C 1.1285(4) 0.3746(5) 0.1601(4)
H1 H 1.1542 0.4776 0.1526
C4 C 1.1761(4) 0.2496(4) 0.1131(4)
H2 H 1.2325 0.2691 0.0743
C5 C 1.1393(3) 0.0980(4) 0.1241(3)
C6 C 1.0582(4) 0.0696(4) 0.1834(3)
H3 H 1.0349 -0.0340 0.1928
C7 C 1.0109(4) 0.1946(4) 0.2294(3)
H4 H 0.9553 0.1742 0.2691
C8 C 1.2626(3) -0.0226(4) 0.0117(3)
H5 H 1.2958 0.0719 -0.0047
C9 C 1.2187(4) -0.2674(4) 0.0192(3)
H6 H 1.2162 -0.3767 0.0076
C10 C 1.1577(3) -0.1899(4) 0.0802(3)
H7 H 1.1070 -0.2339 0.1185
C11 C 0.9428(3) 1.0490(4) 0.4761(3)
O1 O 1.0294(2) 0.6230(3) 0.2582(2)
O2 O 0.9185(2) 0.4568(3) 0.3197(2)
O3 O 0.7686(3) 0.7616(4) 0.1969(2)
O4 O 0.8648(2) 0.9896(3) 0.39710(19)
O5 O 0.9337(2) 1.1805(3) 0.5189(2)
Cd1 Cd 0.89986(2) 0.72238(3) 0.36220(2)
N1 N 1.2855(3) -0.1624(3) -0.0238(2)
N2 N 1.1855(2) -0.0320(3) 0.0744(2)
H8 H 0.719(4) 0.822(5) 0.191(4)
H9 H 0.745(4) 0.684(5) 0.169(3)
C11B C 1.0572(3) 0.9510(4) 0.5239(3)
O4B O 1.1352(2) 1.0104(3) 0.60290(19)
O5B O 1.0663(2) 0.8195(3) 0.4811(2)
C1B C 1.0050(3) 1.5152(4) 0.7325(3)
C2B C 0.9551(3) 1.6501(4) 0.7827(3)
C3B C 0.8715(4) 1.6254(5) 0.8399(4)
H1B H 0.8458 1.5224 0.8474
C4B C 0.8239(4) 1.7504(4) 0.8869(4)
H2B H 0.7675 1.7309 0.9257
C5B C 0.8607(3) 1.9020(4) 0.8759(3)
C6B C 0.9418(4) 1.9304(4) 0.8166(3)
H3B H 0.9651 2.0340 0.8072
C7B C 0.9891(4) 1.8054(4) 0.7706(3)
H4B H 1.0447 1.8258 0.7309
C8B C 0.7374(3) 2.0226(4) 0.9883(3)
H5B H 0.7042 1.9281 1.0047
C9B C 0.7813(4) 2.2674(4) 0.9808(3)
H6B H 0.7838 2.3767 0.9924
C10B C 0.8423(3) 2.1899(4) 0.9198(3)
H7B H 0.8930 2.2339 0.8815
O1B O 0.9706(2) 1.3770(3) 0.7418(2)
O2B O 1.0815(2) 1.5432(3) 0.6803(2)
O3B O 1.2314(3) 1.2384(4) 0.8031(2)
Cd1B Cd 1.10014(2) 1.27762(3) 0.63780(2)
N1B N 0.7145(3) 2.1624(3) 1.0238(2)
N2B N 0.8145(2) 2.0320(3) 0.9256(2)
H8B H 1.281(4) 1.178(5) 0.809(4)
H9B H 1.255(4) 1.316(5) 0.831(3)
Cd1A Cd 0.60014(2) 2.22238(3) 1.13780(2)
Cd1C Cd 1.39986(2) -0.22238(3) -0.13780(2)
N1A N 1.2145(3) 1.3376(3) 0.5238(2)
N1C N 0.7855(3) 0.6624(3) 0.4762(2)
loop_
_geom_bond_atom_site_label_1
_geom_bond_atom_site_label_2
_geom_bond_site_symmetry_1
_geom_bond_site_symmetry_2
C1 C2 1_555 1_555
C2 C3 1_555 1_555
C3 H1 1_555 1_555
C4 C3 1_555 1_555
H2 C4 1_555 1_555
C5 C4 1_555 1_555
C6 C5 1_555 1_555
H3 C6 1_555 1_555
C7 C2 1_555 1_555
H4 C7 1_555 1_555
C8 H5 1_555 1_555
C9 H6 1_555 1_555
C10 C9 1_555 1_555
H7 C10 1_555 1_555
C11 O4 1_555 1_555
O1 C1 1_555 1_555
O2 C1 1_555 1_555
O3 Cd1 1_555 1_555
O4 Cd1 1_555 1_555
O5 C11 1_555 1_555
Cd1 O1 1_555 1_555
N1 C8 1_555 1_555
N2 C5 1_555 1_555
H8 O3 1_555 1_555
H9 O3 1_555 1_555
C11B C11 1_555 1_555
O4B C11B 1_555 1_555
O5B Cd1 1_555 1_555
C1B C2B 1_555 1_555
C2B C3B 1_555 1_555
C3B H1B 1_555 1_555
C4B C3B 1_555 1_555
H2B C4B 1_555 1_555
C5B C4B 1_555 1_555
C6B C5B 1_555 1_555
H3B C6B 1_555 1_555
C7B C2B 1_555 1_555
H4B C7B 1_555 1_555
C8B H5B 1_555 1_555
C9B H6B 1_555 1_555
C10B C9B 1_555 1_555
H7B C10B 1_555 1_555
O1B C1B 1_555 1_555
O2B C1B 1_555 1_555
O3B Cd1B 1_555 1_555
Cd1B O5 1_555 1_555
N1B C8B 1_555 1_555
N2B C5B 1_555 1_555
H8B O3B 1_555 1_555
H9B O3B 1_555 1_555
Cd1A N1B 1_555 1_555
Cd1C N1 1_555 1_555
N1A Cd1B 1_555 1_555
N1C Cd1 1_555 1_555
C6 C7 1_555 1_555
C8 N2 1_555 1_555
C9 N1 1_555 1_555
C10 N2 1_555 1_555
O2 Cd1 1_555 1_555
C11B O5B 1_555 1_555
O4B Cd1B 1_555 1_555
C6B C7B 1_555 1_555
C8B N2B 1_555 1_555
C9B N1B 1_555 1_555
C10B N2B 1_555 1_555
O1B Cd1B 1_555 1_555
O2B Cd1B 1_555 1_555

#END
