
#######################################################################
#
#                 Cambridge Crystallographic Data Centre
#                                CCDC 
#
#######################################################################
#
# If this CIF has been generated from an entry in the Cambridge 
# Structural Database, then it will include bibliographic, chemical, 
# crystal, experimental, refinement or atomic coordinate data resulting 
# from the CCDC's data processing and validation procedures.
#
#######################################################################

data_NEXKEI
_symmetry_cell_setting           orthorhombic
_symmetry_space_group_name_H-M   'P b c n'
_symmetry_Int_Tables_number      60
_space_group_name_Hall           '-P 2n 2ab'
loop_
_symmetry_equiv_pos_site_id
_symmetry_equiv_pos_as_xyz
1 x,y,z
2 1/2-x,1/2-y,1/2+z
3 -x,y,1/2-z
4 1/2+x,1/2-y,-z
5 -x,-y,-z
6 1/2+x,1/2+y,1/2-z
7 x,-y,1/2+z
8 1/2-x,1/2+y,z
_cell_length_a                   13.0352(3)
_cell_length_b                   12.5202(3)
_cell_length_c                   32.6224(8)
_cell_angle_alpha                90
_cell_angle_beta                 90
_cell_angle_gamma                90
_cell_volume                     5324.08
loop_
_atom_site_label
_atom_site_type_symbol
_atom_site_fract_x
_atom_site_fract_y
_atom_site_fract_z
Fe1 Fe 1.0000 0.5000 0.5000
N1 N 0.89287(19) 0.78403(18) 0.33388(7)
N2 N 0.98400(17) 0.61595(16) 0.41575(6)
N3 N 0.98139(17) 0.63707(17) 0.45691(6)
N4 N 0.94160(17) 0.78458(16) 0.42296(6)
N5 N 0.94736(18) 0.59975(17) 0.28967(6)
C1 C 0.8714(2) 0.7715(2) 0.29379(8)
H1 H 0.8385 0.8283 0.2797
C2 C 0.8949(2) 0.6803(2) 0.27244(8)
H2 H 0.8735 0.6741 0.2447
C3 C 0.9732(2) 0.6122(2) 0.32891(8)
H3 H 1.0129 0.5585 0.3420
C4 C 0.9434(2) 0.7020(2) 0.35108(8)
C5 C 0.9592(2) 0.7030(2) 0.39556(8)
C6 C 0.9557(2) 0.7399(2) 0.46132(8)
C7 C 0.9388(2) 0.8023(2) 0.49661(8)
H4 H 0.9468 0.7726 0.5232
C8 C 0.9107(2) 0.9063(2) 0.49168(9)
H5 H 0.8977 0.9495 0.5150
C9 C 0.9008(2) 0.9506(2) 0.45161(9)
H6 H 0.8828 1.0238 0.4488
C10 C 0.9163(2) 0.8916(2) 0.41779(9)
H7 H 0.9100 0.9219 0.3912
N6 N 1.13128(19) 0.45156(18) 0.46906(7)
C11 C 1.2066(2) 0.4149(2) 0.45572(8)
S1 S 1.31138(6) 0.36417(6) 0.43701(2)
Fe2 Fe 1.0000 0.46137(4) 0.2500
N7 N 0.80581(17) 0.22961(17) 0.41678(7)
N8 N 0.92612(18) 0.37548(17) 0.33403(6)
N9 N 0.93081(18) 0.34590(17) 0.29352(6)
N10 N 0.86039(18) 0.21409(17) 0.32890(6)
N11 N 0.90495(17) 0.38958(17) 0.46189(6)
C12 C 0.7936(2) 0.2400(2) 0.45716(8)
H8 H 0.7515 0.1900 0.4712
C13 C 0.8398(2) 0.3203(2) 0.47939(8)
H9 H 0.8250 0.3268 0.5078
C14 C 0.9206(2) 0.3786(2) 0.42169(8)
H10 H 0.9679 0.4244 0.4082
C15 C 0.8685(2) 0.3010(2) 0.39921(8)
C16 C 0.8842(2) 0.2973(2) 0.35483(8)
C17 C 0.8908(2) 0.2489(2) 0.29054(8)
C18 C 0.8784(2) 0.1800(2) 0.25650(8)
H11 H 0.8967 0.2024 0.2297
C19 C 0.8396(2) 0.0812(2) 0.26326(9)
H12 H 0.8330 0.0326 0.2410
C20 C 0.8084(2) 0.0490(2) 0.30333(9)
H13 H 0.7800 -0.0201 0.3072
C21 C 0.8185(2) 0.1142(2) 0.33550(9)
H14 H 0.7975 0.0925 0.3621
N12 N 1.13584(19) 0.45433(19) 0.28383(7)
C22 C 1.2084(2) 0.4107(2) 0.29635(8)
S2 S 1.31282(7) 0.35400(6) 0.31310(2)
N1B N 1.10713(19) 0.78403(18) 0.16612(7)
N2B N 1.01600(17) 0.61595(16) 0.08425(6)
N3B N 1.01861(17) 0.63707(17) 0.04309(6)
N4B N 1.05840(17) 0.78458(16) 0.07704(6)
N5B N 1.05264(18) 0.59975(17) 0.21033(6)
C1B C 1.1286(2) 0.7715(2) 0.20621(8)
H1B H 1.1615 0.8283 0.2203
C2B C 1.1051(2) 0.6803(2) 0.22756(8)
H2B H 1.1265 0.6741 0.2553
C3B C 1.0268(2) 0.6122(2) 0.17109(8)
H3B H 0.9871 0.5585 0.1580
C4B C 1.0566(2) 0.7020(2) 0.14892(8)
C5B C 1.0408(2) 0.7030(2) 0.10444(8)
C6B C 1.0443(2) 0.7399(2) 0.03868(8)
C7B C 1.0612(2) 0.8023(2) 0.00339(8)
H4B H 1.0532 0.7726 -0.0232
C8B C 1.0893(2) 0.9063(2) 0.00832(9)
H5B H 1.1023 0.9495 -0.0150
C9B C 1.0992(2) 0.9506(2) 0.04839(9)
H6B H 1.1172 1.0238 0.0512
C10B C 1.0837(2) 0.8916(2) 0.08221(9)
H7B H 1.0900 0.9219 0.1088
N7B N 1.19419(17) 0.22961(17) 0.08322(7)
N8B N 1.07388(18) 0.37548(17) 0.16597(6)
N9B N 1.06919(18) 0.34590(17) 0.20648(6)
N10B N 1.13961(18) 0.21409(17) 0.17110(6)
N11B N 1.09505(17) 0.38958(17) 0.03811(6)
C12B C 1.2064(2) 0.2400(2) 0.04284(8)
H8B H 1.2485 0.1900 0.0288
C13B C 1.1602(2) 0.3203(2) 0.02061(8)
H9B H 1.1750 0.3268 -0.0078
C14B C 1.0794(2) 0.3786(2) 0.07831(8)
H10B H 1.0321 0.4244 0.0918
C15B C 1.1315(2) 0.3010(2) 0.10079(8)
C16B C 1.1158(2) 0.2973(2) 0.14517(8)
C17B C 1.1092(2) 0.2489(2) 0.20946(8)
C18B C 1.1216(2) 0.1800(2) 0.24350(8)
H11B H 1.1033 0.2024 0.2703
C19B C 1.1604(2) 0.0812(2) 0.23674(9)
H12B H 1.1670 0.0326 0.2590
C20B C 1.1916(2) 0.0490(2) 0.19667(9)
H13B H 1.2200 -0.0201 0.1928
C21B C 1.1815(2) 0.1142(2) 0.16450(9)
H14B H 1.2025 0.0925 0.1379
N12B N 0.86416(19) 0.45433(19) 0.21617(7)
C22B C 0.7916(2) 0.4107(2) 0.20365(8)
S2B S 0.68718(7) 0.35400(6) 0.18690(2)
N6D N 0.86872(19) 0.54844(18) 0.53094(7)
C11D C 0.7934(2) 0.5851(2) 0.54428(8)
S1D S 0.68862(6) 0.63583(6) 0.56299(2)
Fe1B Fe 1.0000 0.5000 0.0000
N3D N 1.01861(17) 0.36293(17) 0.54309(6)
N11D N 1.09505(17) 0.61042(17) 0.53811(6)
N13 N 0.4562(3) 0.6342(3) 0.39054(12)
C23 C 0.3705(3) 0.6238(3) 0.38465(11)
C24 C 0.2616(3) 0.6093(2) 0.37733(10)
H15 H 0.2230 0.6306 0.4018
H16 H 0.2478 0.5340 0.3712
H17 H 0.2403 0.6534 0.3540
loop_
_geom_bond_atom_site_label_1
_geom_bond_atom_site_label_2
_geom_bond_site_symmetry_1
_geom_bond_site_symmetry_2
Fe1 N3 1_555 1_555
N1 C1 1_555 1_555
N2 N3 1_555 1_555
N3 C6 1_555 1_555
N4 C5 1_555 1_555
N5 C2 1_555 1_555
C1 H1 1_555 1_555
C2 C1 1_555 1_555
H2 C2 1_555 1_555
C3 N5 1_555 1_555
H3 C3 1_555 1_555
C4 N1 1_555 1_555
C5 N2 1_555 1_555
C6 N4 1_555 1_555
C7 C6 1_555 1_555
H4 C7 1_555 1_555
C8 C7 1_555 1_555
H5 C8 1_555 1_555
C9 C8 1_555 1_555
H6 C9 1_555 1_555
C10 N4 1_555 1_555
H7 C10 1_555 1_555
N6 Fe1 1_555 1_555
C11 N6 1_555 1_555
S1 C11 1_555 1_555
Fe2 N5 1_555 1_555
N7 C12 1_555 1_555
N8 N9 1_555 1_555
N9 Fe2 1_555 1_555
N10 C16 1_555 1_555
N11 Fe1 1_555 1_555
C12 H8 1_555 1_555
C13 N11 1_555 1_555
H9 C13 1_555 1_555
C14 N11 1_555 1_555
H10 C14 1_555 1_555
C15 N7 1_555 1_555
C16 N8 1_555 1_555
C17 N9 1_555 1_555
C18 C17 1_555 1_555
H11 C18 1_555 1_555
C19 C18 1_555 1_555
H12 C19 1_555 1_555
C20 C19 1_555 1_555
H13 C20 1_555 1_555
C21 N10 1_555 1_555
H14 C21 1_555 1_555
N12 Fe2 1_555 1_555
C22 N12 1_555 1_555
S2 C22 1_555 1_555
N13 C23 1_555 1_555
C23 C24 1_555 1_555
C24 H15 1_555 1_555
H16 C24 1_555 1_555
H17 C24 1_555 1_555
N1B C1B 1_555 1_555
N2B N3B 1_555 1_555
N3B C6B 1_555 1_555
N4B C5B 1_555 1_555
N5B Fe2 1_555 1_555
C1B H1B 1_555 1_555
C2B N5B 1_555 1_555
H2B C2B 1_555 1_555
C3B N5B 1_555 1_555
H3B C3B 1_555 1_555
C4B N1B 1_555 1_555
C5B N2B 1_555 1_555
C6B N4B 1_555 1_555
C7B C6B 1_555 1_555
H4B C7B 1_555 1_555
C8B C7B 1_555 1_555
H5B C8B 1_555 1_555
C9B C8B 1_555 1_555
H6B C9B 1_555 1_555
C10B N4B 1_555 1_555
H7B C10B 1_555 1_555
N7B C12B 1_555 1_555
N8B N9B 1_555 1_555
N9B Fe2 1_555 1_555
N10B C16B 1_555 1_555
N11B C13B 1_555 1_555
C12B H8B 1_555 1_555
C13B C12B 1_555 1_555
H9B C13B 1_555 1_555
C14B N11B 1_555 1_555
H10B C14B 1_555 1_555
C15B N7B 1_555 1_555
C16B N8B 1_555 1_555
C17B N9B 1_555 1_555
C18B C17B 1_555 1_555
H11B C18B 1_555 1_555
C19B C18B 1_555 1_555
H12B C19B 1_555 1_555
C20B C19B 1_555 1_555
H13B C20B 1_555 1_555
C21B N10B 1_555 1_555
H14B C21B 1_555 1_555
N12B Fe2 1_555 1_555
C22B N12B 1_555 1_555
S2B C22B 1_555 1_555
N6D Fe1 1_555 1_555
C11D N6D 1_555 1_555
S1D C11D 1_555 1_555
Fe1B N3B 1_555 1_555
N3D Fe1 1_555 1_555
N11D Fe1 1_555 1_555
C3 C4 1_555 1_555
C4 C5 1_555 1_555
C9 C10 1_555 1_555
N10 C17 1_555 1_555
C12 C13 1_555 1_555
C14 C15 1_555 1_555
C15 C16 1_555 1_555
C20 C21 1_555 1_555
C1B C2B 1_555 1_555
C3B C4B 1_555 1_555
C4B C5B 1_555 1_555
C9B C10B 1_555 1_555
N10B C17B 1_555 1_555
N11B Fe1B 1_555 1_555
C14B C15B 1_555 1_555
C15B C16B 1_555 1_555
C20B C21B 1_555 1_555

#END
