
#######################################################################
#
#                 Cambridge Crystallographic Data Centre
#                                CCDC 
#
#######################################################################
#
# If this CIF has been generated from an entry in the Cambridge 
# Structural Database, then it will include bibliographic, chemical, 
# crystal, experimental, refinement or atomic coordinate data resulting 
# from the CCDC's data processing and validation procedures.
#
#######################################################################

data_NEXLIN
_symmetry_cell_setting           triclinic
_symmetry_space_group_name_H-M   'P -1'
_symmetry_Int_Tables_number      2
_space_group_name_Hall           '-P 1'
loop_
_symmetry_equiv_pos_site_id
_symmetry_equiv_pos_as_xyz
1 x,y,z
2 -x,-y,-z
_cell_length_a                   7.5328(3)
_cell_length_b                   8.3622(3)
_cell_length_c                   9.1494(3)
_cell_angle_alpha                112.2416(19)
_cell_angle_beta                 99.923(2)
_cell_angle_gamma                102.600(2)
_cell_volume                     499.443
loop_
_atom_site_label
_atom_site_type_symbol
_atom_site_fract_x
_atom_site_fract_y
_atom_site_fract_z
C1 C 0.4705(2) -0.2484(2) 0.33725(18)
H1 H 0.5820 -0.2762 0.3165
C2 C 0.3706(2) -0.3314(2) 0.41710(18)
H2 H 0.4214 -0.4059 0.4577
C3 C 0.1476(2) -0.1915(2) 0.39027(17)
H3 H 0.0312 -0.1706 0.4036
C4 C 0.2558(2) -0.0992(2) 0.32097(17)
C5 C 0.1987(2) 0.0451(2) 0.29287(17)
C6 C 0.1450(2) 0.2418(2) 0.20108(17)
C7 C 0.1386(2) 0.3245(2) 0.09158(18)
H4 H 0.0882 0.4228 0.1097
C8 C 0.2068(2) 0.2591(2) -0.04064(18)
H5 H 0.2091 0.3162 -0.1127
C9 C 0.2744(2) 0.1065(2) -0.07224(18)
H6 H 0.3177 0.0611 -0.1668
C10 C 0.2779(2) 0.0251(2) 0.03096(18)
H7 H 0.3217 -0.0776 0.0095
N1 N 0.41520(19) -0.13039(18) 0.28843(15)
N2 N 0.12687(19) 0.15302(17) 0.39476(15)
N3 N 0.09298(19) 0.27756(17) 0.33972(15)
N4 N 0.21572(18) 0.09624(17) 0.16818(14)
N5 N 0.20423(19) -0.30942(17) 0.43860(15)
Cl1 Cl 0.25064(5) 0.55748(5) 0.73389(4)
Fe1 Fe 0.0000 0.5000 0.5000
C1A C -0.4705(2) 0.2484(2) 0.66275(18)
H1A H -0.5820 0.2762 0.6835
C2A C -0.3706(2) 0.3314(2) 0.58290(18)
H2A H -0.4214 0.4059 0.5423
C3A C -0.1476(2) 0.1915(2) 0.60973(17)
H3A H -0.0312 0.1706 0.5964
C4A C -0.2558(2) 0.0992(2) 0.67903(17)
C5A C -0.1987(2) -0.0451(2) 0.70713(17)
C6A C -0.1450(2) -0.2418(2) 0.79892(17)
C7A C -0.1386(2) -0.3245(2) 0.90842(18)
H4A H -0.0882 -0.4228 0.8903
C8A C -0.2068(2) -0.2591(2) 1.04064(18)
H5A H -0.2091 -0.3162 1.1127
C9A C -0.2744(2) -0.1065(2) 1.07224(18)
H6A H -0.3177 -0.0611 1.1668
C10A C -0.2779(2) -0.0251(2) 0.96904(18)
H7A H -0.3217 0.0776 0.9905
N1A N -0.41520(19) 0.13039(18) 0.71157(15)
N2A N -0.12687(19) -0.15302(17) 0.60524(15)
N3A N -0.09298(19) -0.27756(17) 0.66028(15)
N4A N -0.21572(18) -0.09624(17) 0.83182(14)
N5A N -0.20423(19) 0.30942(17) 0.56140(15)
Cl1A Cl -0.25064(5) 0.44252(5) 0.26611(4)
N3A_2 N -0.09298(19) 0.72244(17) 0.66028(15)
N5_2 N 0.20423(19) 0.69058(17) 0.43860(15)
Fe1_2 Fe 0.0000 -0.5000 0.5000
loop_
_geom_bond_atom_site_label_1
_geom_bond_atom_site_label_2
_geom_bond_site_symmetry_1
_geom_bond_site_symmetry_2
C1 H1 1_555 1_555
C2 C1 1_555 1_555
H2 C2 1_555 1_555
C3 H3 1_555 1_555
C4 C3 1_555 1_555
C5 C4 1_555 1_555
C6 C7 1_555 1_555
C7 H4 1_555 1_555
C8 C7 1_555 1_555
H5 C8 1_555 1_555
C9 C8 1_555 1_555
H6 C9 1_555 1_555
C10 C9 1_555 1_555
H7 C10 1_555 1_555
N1 C1 1_555 1_555
N2 C5 1_555 1_555
N3 C6 1_555 1_555
N4 C5 1_555 1_555
N5 C2 1_555 1_555
Cl1 Fe1 1_555 1_555
Fe1 N3 1_555 1_555
C1A H1A 1_555 1_555
C2A C1A 1_555 1_555
H2A C2A 1_555 1_555
C3A H3A 1_555 1_555
C4A C3A 1_555 1_555
C5A C4A 1_555 1_555
C6A C7A 1_555 1_555
C7A H4A 1_555 1_555
C8A C7A 1_555 1_555
H5A C8A 1_555 1_555
C9A C8A 1_555 1_555
H6A C9A 1_555 1_555
C10A C9A 1_555 1_555
H7A C10A 1_555 1_555
N1A C1A 1_555 1_555
N2A C5A 1_555 1_555
N3A C6A 1_555 1_555
N4A C5A 1_555 1_555
N5A Fe1 1_555 1_555
Cl1A Fe1 1_555 1_555
N3A_2 Fe1 1_555 1_555
N5_2 Fe1 1_555 1_555
Fe1_2 N5 1_555 1_555
C3 N5 1_555 1_555
C4 N1 1_555 1_555
C6 N4 1_555 1_555
C10 N4 1_555 1_555
N2 N3 1_555 1_555
C2A N5A 1_555 1_555
C3A N5A 1_555 1_555
C4A N1A 1_555 1_555
C6A N4A 1_555 1_555
C10A N4A 1_555 1_555
N2A N3A 1_555 1_555
N3A Fe1_2 1_555 1_555

#END
