
#######################################################################
#
#                 Cambridge Crystallographic Data Centre
#                                CCDC 
#
#######################################################################
#
# If this CIF has been generated from an entry in the Cambridge 
# Structural Database, then it will include bibliographic, chemical, 
# crystal, experimental, refinement or atomic coordinate data resulting 
# from the CCDC's data processing and validation procedures.
#
#######################################################################

data_NEXLOT
_symmetry_cell_setting           triclinic
_symmetry_space_group_name_H-M   'P -1'
_symmetry_Int_Tables_number      2
_space_group_name_Hall           '-P 1'
loop_
_symmetry_equiv_pos_site_id
_symmetry_equiv_pos_as_xyz
1 x,y,z
2 -x,-y,-z
_cell_length_a                   7.5075(2)
_cell_length_b                   8.2870(2)
_cell_length_c                   9.1730(3)
_cell_angle_alpha                112.3863(12)
_cell_angle_beta                 99.2363(13)
_cell_angle_gamma                102.8479(13)
_cell_volume                     495.079
loop_
_atom_site_label
_atom_site_type_symbol
_atom_site_fract_x
_atom_site_fract_y
_atom_site_fract_z
Co1 Co 0.5000 0.5000 0.5000
Cl1 Cl 0.24950(3) 0.44188(3) 0.26864(2)
N1 N 0.08401(11) 1.12991(10) 0.70927(9)
N2 N 0.37496(11) 0.84512(10) 0.60494(9)
N3 N 0.40882(11) 0.71939(9) 0.65903(9)
N4 N 0.28555(10) 0.90201(9) 0.83161(9)
N5 N 0.30139(10) 1.31160(9) 0.56224(9)
C1 C 0.02909(12) 1.24736(11) 0.65897(11)
H1 H -0.0840 1.2743 0.6779
C2 C 0.13217(12) 1.33151(11) 0.57967(11)
H2 H 0.0816 1.4047 0.5369
C3 C 0.35807(12) 1.19494(11) 0.61285(10)
H3 H 0.4769 1.1766 0.6030
C4 C 0.24601(12) 1.09993(10) 0.67967(10)
C5 C 0.30262(12) 0.95374(11) 0.70761(10)
C6 C 0.35646(12) 0.75506(11) 0.79774(10)
C7 C 0.36232(13) 0.67107(11) 0.90643(10)
H4 H 0.4129 0.5718 0.8878
C8 C 0.29301(13) 0.73705(12) 1.03881(11)
H5 H 0.2902 0.6791 1.1104
C9 C 0.22481(13) 0.89142(12) 1.07134(11)
H6 H 0.1804 0.9368 1.1657
C10 C 0.22268(12) 0.97400(12) 0.96902(10)
H7 H 0.1794 1.0780 0.9911
Cl1A Cl 0.75050(3) 0.55812(3) 0.73136(2)
N1A N 0.91599(11) -0.12991(10) 0.29073(9)
N2A N 0.62504(11) 0.15488(10) 0.39506(9)
N3A N 0.59118(11) 0.28061(9) 0.34097(9)
N4A N 0.71445(10) 0.09799(9) 0.16839(9)
N5A N 0.69861(10) -0.31160(9) 0.43776(9)
C1A C 0.97091(12) -0.24736(11) 0.34103(11)
H1A H 1.0840 -0.2743 0.3221
C2A C 0.86783(12) -0.33151(11) 0.42033(11)
H2A H 0.9184 -0.4047 0.4631
C3A C 0.64193(12) -0.19494(11) 0.38715(10)
H3A H 0.5231 -0.1766 0.3970
C4A C 0.75399(12) -0.09993(10) 0.32033(10)
C5A C 0.69738(12) 0.04626(11) 0.29239(10)
C6A C 0.64354(12) 0.24494(11) 0.20226(10)
C7A C 0.63768(13) 0.32893(11) 0.09357(10)
H4A H 0.5871 0.4282 0.1122
C8A C 0.70699(13) 0.26295(12) -0.03881(11)
H5A H 0.7098 0.3209 -0.1104
C9A C 0.77519(13) 0.10858(12) -0.07134(11)
H6A H 0.8196 0.0632 -0.1657
C10A C 0.77732(12) 0.02600(12) 0.03098(10)
H7A H 0.8206 -0.0780 0.0089
Co1_2 Co 0.5000 -0.5000 0.5000
Co1_3 Co 0.5000 1.5000 0.5000
N5_2 N 0.30139(10) 0.31160(9) 0.56224(9)
N5A_2 N 0.69861(10) 0.68840(9) 0.43776(9)
loop_
_geom_bond_atom_site_label_1
_geom_bond_atom_site_label_2
_geom_bond_site_symmetry_1
_geom_bond_site_symmetry_2
Co1 Cl1 1_555 1_555
N1 C1 1_555 1_555
N2 N3 1_555 1_555
N3 Co1 1_555 1_555
N4 C5 1_555 1_555
N5 C2 1_555 1_555
C1 H1 1_555 1_555
C2 C1 1_555 1_555
H2 C2 1_555 1_555
C3 N5 1_555 1_555
H3 C3 1_555 1_555
C4 N1 1_555 1_555
C5 N2 1_555 1_555
C6 N3 1_555 1_555
C7 C6 1_555 1_555
H4 C7 1_555 1_555
C8 C7 1_555 1_555
H5 C8 1_555 1_555
C9 C8 1_555 1_555
H6 C9 1_555 1_555
C10 N4 1_555 1_555
H7 C10 1_555 1_555
Cl1A Co1 1_555 1_555
N1A C1A 1_555 1_555
N2A N3A 1_555 1_555
N3A Co1 1_555 1_555
N4A C5A 1_555 1_555
N5A C2A 1_555 1_555
C1A H1A 1_555 1_555
C2A C1A 1_555 1_555
H2A C2A 1_555 1_555
C3A N5A 1_555 1_555
H3A C3A 1_555 1_555
C4A N1A 1_555 1_555
C5A N2A 1_555 1_555
C6A N3A 1_555 1_555
C7A C6A 1_555 1_555
H4A C7A 1_555 1_555
C8A C7A 1_555 1_555
H5A C8A 1_555 1_555
C9A C8A 1_555 1_555
H6A C9A 1_555 1_555
C10A N4A 1_555 1_555
H7A C10A 1_555 1_555
Co1_2 N5A 1_555 1_555
Co1_3 N5 1_555 1_555
N5_2 Co1 1_555 1_555
N5A_2 Co1 1_555 1_555
N4 C6 1_555 1_555
C3 C4 1_555 1_555
C4 C5 1_555 1_555
C9 C10 1_555 1_555
N4A C6A 1_555 1_555
C3A C4A 1_555 1_555
C4A C5A 1_555 1_555
C9A C10A 1_555 1_555

#END
