
#######################################################################
#
#                 Cambridge Crystallographic Data Centre
#                                CCDC 
#
#######################################################################
#
# If this CIF has been generated from an entry in the Cambridge 
# Structural Database, then it will include bibliographic, chemical, 
# crystal, experimental, refinement or atomic coordinate data resulting 
# from the CCDC's data processing and validation procedures.
#
#######################################################################

data_NEXLUZ
_symmetry_cell_setting           triclinic
_symmetry_space_group_name_H-M   'P -1'
_symmetry_Int_Tables_number      2
_space_group_name_Hall           '-P 1'
loop_
_symmetry_equiv_pos_site_id
_symmetry_equiv_pos_as_xyz
1 x,y,z
2 -x,-y,-z
_cell_length_a                   7.8967(4)
_cell_length_b                   10.1943(4)
_cell_length_c                   11.9566(8)
_cell_angle_alpha                88.975(6)
_cell_angle_beta                 88.724(6)
_cell_angle_gamma                78.065(6)
_cell_volume                     941.395
loop_
_atom_site_label
_atom_site_type_symbol
_atom_site_fract_x
_atom_site_fract_y
_atom_site_fract_z
Fe1 Fe 0.0000 0.5000 0.0000
N1 N 0.4250(2) -0.12095(18) -0.09528(15)
N2 N 0.2192(2) 0.23076(18) -0.07820(14)
N3 N 0.1076(2) 0.28724(18) 0.00512(15)
N4 N 0.1849(2) 0.06907(17) 0.04073(14)
N5 N 0.4937(2) -0.04301(18) -0.31480(15)
C1 C 0.5130(3) -0.2074(2) -0.16935(18)
H1 H 0.5558 -0.2975 -0.1460
C2 C 0.5442(3) -0.1705(2) -0.27859(18)
H2 H 0.6024 -0.2365 -0.3290
C3 C 0.4120(3) 0.0464(2) -0.24065(17)
H3 H 0.3799 0.1383 -0.2619
C4 C 0.3735(2) 0.0059(2) -0.13224(17)
C5 C 0.2651(3) 0.1013(2) -0.05774(17)
C6 C 0.0860(3) 0.1895(2) 0.07655(17)
C7 C -0.0188(3) 0.1938(2) 0.17440(18)
H4 H -0.0894 0.2756 0.1991
C8 C -0.0154(3) 0.0772(2) 0.23205(19)
H5 H -0.0848 0.0777 0.2980
C9 C 0.0905(3) -0.0461(2) 0.19527(19)
H6 H 0.0917 -0.1262 0.2374
C10 C 0.1895(3) -0.0498(2) 0.10059(18)
H7 H 0.2601 -0.1315 0.0759
O1 O 0.2518(2) 0.54131(17) -0.02042(14)
H8 H 0.326(4) 0.493(3) -0.065(2)
H9 H 0.311(4) 0.557(3) 0.037(2)
O2 O -0.0084(2) 0.48111(16) -0.17783(13)
H10 H -0.102(3) 0.499(3) -0.218(2)
H11 H 0.042(4) 0.406(2) -0.210(3)
Fe2 Fe 0.5000 0.0000 -0.5000
O3 O 0.3143(2) -0.11994(16) -0.51552(14)
H12 H 0.331(4) -0.182(3) -0.566(2)
H13 H 0.204(3) -0.082(3) -0.515(3)
O4 O 0.31742(18) 0.18174(15) -0.48179(13)
O5 O 0.0529(2) 0.10358(16) -0.44318(15)
O6 O 0.1164(2) 0.28944(18) -0.33982(14)
S1 S 0.13450(6) 0.21854(5) -0.44427(4)
C11 C 0.0308(3) 0.3309(2) -0.5465(2)
H14 H 0.0344 0.2846 -0.6179
H15 H 0.0901 0.4060 -0.5552
H16 H -0.0899 0.3648 -0.5234
N1A N -0.4250(2) 1.12095(18) 0.09528(15)
N2A N -0.2192(2) 0.76924(18) 0.07820(14)
N3A N -0.1076(2) 0.71276(18) -0.00512(15)
N4A N -0.1849(2) 0.93093(17) -0.04073(14)
N5A N -0.4937(2) 1.04301(18) 0.31480(15)
C1A C -0.5130(3) 1.2074(2) 0.16935(18)
H1A H -0.5558 1.2975 0.1460
C2A C -0.5442(3) 1.1705(2) 0.27859(18)
H2A H -0.6024 1.2365 0.3290
C3A C -0.4120(3) 0.9536(2) 0.24065(17)
H3A H -0.3799 0.8617 0.2619
C4A C -0.3735(2) 0.9941(2) 0.13224(17)
C5A C -0.2651(3) 0.8987(2) 0.05774(17)
C6A C -0.0860(3) 0.8105(2) -0.07655(17)
C7A C 0.0188(3) 0.8062(2) -0.17440(18)
H4A H 0.0894 0.7244 -0.1991
C8A C 0.0154(3) 0.9228(2) -0.23205(19)
H5A H 0.0848 0.9223 -0.2980
C9A C -0.0905(3) 1.0461(2) -0.19527(19)
H6A H -0.0917 1.1262 -0.2374
C10A C -0.1895(3) 1.0498(2) -0.10059(18)
H7A H -0.2601 1.1315 -0.0759
O1A O -0.2518(2) 0.45869(17) 0.02042(14)
H8A H -0.326(4) 0.507(3) 0.065(2)
H9A H -0.311(4) 0.443(3) -0.037(2)
O2A O 0.0084(2) 0.51889(16) 0.17783(13)
H10A H 0.102(3) 0.501(3) 0.218(2)
H11A H -0.042(4) 0.594(2) 0.210(3)
O4A O 0.68258(18) -0.18174(15) -0.51821(13)
O5A O 0.9471(2) -0.10358(16) -0.55682(15)
O6A O 0.8836(2) -0.28944(18) -0.66018(14)
S1A S 0.86550(6) -0.21854(5) -0.55573(4)
C11A C 0.9692(3) -0.3309(2) -0.4535(2)
H14A H 0.9656 -0.2846 -0.3821
H15A H 0.9099 -0.4060 -0.4448
H16A H 1.0899 -0.3648 -0.4766
O3A O 0.6857(2) 0.11994(16) -0.48448(14)
H12A H 0.669(4) 0.182(3) -0.434(2)
H13A H 0.796(3) 0.082(3) -0.485(3)
N5A_2 N 0.5063(2) 0.04301(18) -0.68520(15)
Fe2_2 Fe -0.5000 1.0000 0.5000
S2 S 0.57930(7) -0.57151(5) -0.27371(5)
O7 O 0.5375(2) -0.5646(2) -0.15411(14)
O8 O 0.6296(3) -0.70783(19) -0.31034(17)
O9 O 0.7023(2) -0.48807(18) -0.30386(16)
C12 C 0.3860(3) -0.4993(3) -0.3417(2)
H17 H 0.4052 -0.5048 -0.4229
H18 H 0.3497 -0.4052 -0.3204
H19 H 0.2954 -0.5480 -0.3197
loop_
_geom_bond_atom_site_label_1
_geom_bond_atom_site_label_2
_geom_bond_site_symmetry_1
_geom_bond_site_symmetry_2
Fe1 N3 1_555 1_555
N1 C1 1_555 1_555
N2 N3 1_555 1_555
N3 C6 1_555 1_555
N4 C5 1_555 1_555
N5 C2 1_555 1_555
C1 H1 1_555 1_555
C2 C1 1_555 1_555
H2 C2 1_555 1_555
C3 N5 1_555 1_555
H3 C3 1_555 1_555
C4 N1 1_555 1_555
C5 N2 1_555 1_555
C6 N4 1_555 1_555
C7 C6 1_555 1_555
H4 C7 1_555 1_555
C8 C7 1_555 1_555
H5 C8 1_555 1_555
C9 C8 1_555 1_555
H6 C9 1_555 1_555
C10 N4 1_555 1_555
H7 C10 1_555 1_555
O1 Fe1 1_555 1_555
H8 O1 1_555 1_555
H9 O1 1_555 1_555
O2 Fe1 1_555 1_555
H10 O2 1_555 1_555
H11 O2 1_555 1_555
Fe2 N5 1_555 1_555
O3 Fe2 1_555 1_555
H12 O3 1_555 1_555
H13 O3 1_555 1_555
O4 Fe2 1_555 1_555
O5 S1 1_555 1_555
O6 S1 1_555 1_555
S1 O4 1_555 1_555
C11 S1 1_555 1_555
H14 C11 1_555 1_555
H15 C11 1_555 1_555
H16 C11 1_555 1_555
S2 O7 1_555 1_555
O8 S2 1_555 1_555
O9 S2 1_555 1_555
C12 S2 1_555 1_555
H17 C12 1_555 1_555
H18 C12 1_555 1_555
H19 C12 1_555 1_555
N1A C1A 1_555 1_555
N2A N3A 1_555 1_555
N3A Fe1 1_555 1_555
N4A C5A 1_555 1_555
N5A C2A 1_555 1_555
C1A H1A 1_555 1_555
C2A C1A 1_555 1_555
H2A C2A 1_555 1_555
C3A N5A 1_555 1_555
H3A C3A 1_555 1_555
C4A N1A 1_555 1_555
C5A N2A 1_555 1_555
C6A N3A 1_555 1_555
C7A C6A 1_555 1_555
H4A C7A 1_555 1_555
C8A C7A 1_555 1_555
H5A C8A 1_555 1_555
C9A C8A 1_555 1_555
H6A C9A 1_555 1_555
C10A N4A 1_555 1_555
H7A C10A 1_555 1_555
O1A Fe1 1_555 1_555
H8A O1A 1_555 1_555
H9A O1A 1_555 1_555
O2A Fe1 1_555 1_555
H10A O2A 1_555 1_555
H11A O2A 1_555 1_555
O4A Fe2 1_555 1_555
O5A S1A 1_555 1_555
O6A S1A 1_555 1_555
S1A O4A 1_555 1_555
C11A S1A 1_555 1_555
H14A C11A 1_555 1_555
H15A C11A 1_555 1_555
H16A C11A 1_555 1_555
O3A Fe2 1_555 1_555
H12A O3A 1_555 1_555
H13A O3A 1_555 1_555
N5A_2 Fe2 1_555 1_555
Fe2_2 N5A 1_555 1_555
C3 C4 1_555 1_555
C4 C5 1_555 1_555
C9 C10 1_555 1_555
N4A C6A 1_555 1_555
C3A C4A 1_555 1_555
C4A C5A 1_555 1_555
C9A C10A 1_555 1_555

#END
