
#######################################################################
#
#                 Cambridge Crystallographic Data Centre
#                                CCDC 
#
#######################################################################
#
# If this CIF has been generated from an entry in the Cambridge 
# Structural Database, then it will include bibliographic, chemical, 
# crystal, experimental, refinement or atomic coordinate data resulting 
# from the CCDC's data processing and validation procedures.
#
#######################################################################

data_NEXMAG
_symmetry_cell_setting           monoclinic
_symmetry_space_group_name_H-M   'P 21/a'
_symmetry_Int_Tables_number      14
_space_group_name_Hall           '-P 2yab'
loop_
_symmetry_equiv_pos_site_id
_symmetry_equiv_pos_as_xyz
1 x,y,z
2 1/2-x,1/2+y,-z
3 -x,-y,-z
4 1/2+x,1/2-y,z
_cell_length_a                   10.7668(7)
_cell_length_b                   9.5091(6)
_cell_length_c                   11.6898(8)
_cell_angle_alpha                90
_cell_angle_beta                 104.823(3)
_cell_angle_gamma                90
_cell_volume                     1157
loop_
_atom_site_label
_atom_site_type_symbol
_atom_site_fract_x
_atom_site_fract_y
_atom_site_fract_z
Cu1 Cu 0.0000 0.0000 0.5000
N1 N -0.15072(14) -0.13623(15) 0.48579(13)
N2 N 0.02316(14) -0.04867(15) 0.67123(14)
N3 N 0.11033(16) -0.01381(15) 0.77337(14)
N4 N -0.02666(14) -0.17464(15) 0.80845(13)
N5 N -0.34926(14) -0.31825(15) 0.49504(13)
C1 C -0.24277(17) -0.16605(19) 0.38961(16)
H1 H -0.2400 -0.1261 0.3158
C2 C -0.34335(18) -0.25514(18) 0.39561(16)
H2 H -0.4101 -0.2713 0.3260
C3 C -0.25551(17) -0.28940(18) 0.59209(16)
H3 H -0.2560 -0.3345 0.6645
C4 C -0.15815(17) -0.19565(17) 0.58961(15)
C5 C -0.05829(17) -0.14521(18) 0.68963(16)
C6 C 0.07931(18) -0.09125(19) 0.85672(16)
C7 C 0.13977(19) -0.0976(2) 0.97904(17)
H4 H 0.2121 -0.0405 1.0133
C8 C 0.0906(2) -0.1885(2) 1.04588(18)
H5 H 0.1300 -0.1962 1.1282
C9 C -0.0189(2) -0.2722(3) 0.99440(17)
H6 H -0.0520 -0.3338 1.0433
C10 C -0.07629(19) -0.2659(2) 0.87824(17)
H7 H -0.1491 -0.3226 0.8446
N1B N 0.15072(14) 0.13623(15) 0.51421(13)
N2B N -0.02316(14) 0.04867(15) 0.32877(14)
N3B N -0.11033(16) 0.01381(15) 0.22663(14)
N4B N 0.02666(14) 0.17464(15) 0.19155(13)
N5B N 0.34926(14) 0.31825(15) 0.50496(13)
C1B C 0.24277(17) 0.16605(19) 0.61039(16)
H1B H 0.2400 0.1261 0.6842
C2B C 0.34335(18) 0.25514(18) 0.60439(16)
H2B H 0.4101 0.2713 0.6740
C3B C 0.25551(17) 0.28940(18) 0.40791(16)
H3B H 0.2560 0.3345 0.3355
C4B C 0.15815(17) 0.19565(17) 0.41039(15)
C5B C 0.05829(17) 0.14521(18) 0.31037(16)
C6B C -0.07931(18) 0.09125(19) 0.14328(16)
C7B C -0.13977(19) 0.0976(2) 0.02096(17)
H4B H -0.2121 0.0405 -0.0133
C8B C -0.0906(2) 0.1885(2) -0.04588(18)
H5B H -0.1300 0.1962 -0.1282
C9B C 0.0189(2) 0.2722(3) 0.00560(17)
H6B H 0.0520 0.3338 -0.0433
C10B C 0.07629(19) 0.2659(2) 0.12176(17)
H7B H 0.1491 0.3226 0.1554
Cu1A Cu -0.5000 -0.5000 0.5000
Cu1A_2 Cu 0.5000 0.5000 0.5000
N5A N -0.15074(14) 0.18175(15) 0.50496(13)
N5C N 0.15074(14) -0.18175(15) 0.49504(13)
Cl1 Cl 0.10541(4) -0.50616(4) 0.71745(4)
O1 O -0.02808(15) -0.47217(16) 0.70059(17)
O2 O 0.18322(14) -0.39863(16) 0.79031(14)
O3 O 0.13114(15) -0.64069(15) 0.77688(14)
O4 O 0.13664(18) -0.51399(15) 0.60528(15)
loop_
_geom_bond_atom_site_label_1
_geom_bond_atom_site_label_2
_geom_bond_site_symmetry_1
_geom_bond_site_symmetry_2
Cu1 N1 1_555 1_555
N1 C1 1_555 1_555
N2 Cu1 1_555 1_555
N3 N2 1_555 1_555
N4 C5 1_555 1_555
N5 C2 1_555 1_555
C1 H1 1_555 1_555
C2 C1 1_555 1_555
H2 C2 1_555 1_555
C3 N5 1_555 1_555
H3 C3 1_555 1_555
C4 N1 1_555 1_555
C5 N2 1_555 1_555
C6 N3 1_555 1_555
C7 C6 1_555 1_555
H4 C7 1_555 1_555
C8 C7 1_555 1_555
H5 C8 1_555 1_555
C9 C8 1_555 1_555
H6 C9 1_555 1_555
C10 N4 1_555 1_555
H7 C10 1_555 1_555
Cl1 O1 1_555 1_555
O2 Cl1 1_555 1_555
O3 Cl1 1_555 1_555
O4 Cl1 1_555 1_555
N1B Cu1 1_555 1_555
N2B Cu1 1_555 1_555
N3B N2B 1_555 1_555
N4B C5B 1_555 1_555
N5B C2B 1_555 1_555
C1B N1B 1_555 1_555
H1B C1B 1_555 1_555
C2B C1B 1_555 1_555
H2B C2B 1_555 1_555
C3B N5B 1_555 1_555
H3B C3B 1_555 1_555
C4B N1B 1_555 1_555
C5B N2B 1_555 1_555
C6B N3B 1_555 1_555
C7B C6B 1_555 1_555
H4B C7B 1_555 1_555
C8B C7B 1_555 1_555
H5B C8B 1_555 1_555
C9B C8B 1_555 1_555
H6B C9B 1_555 1_555
C10B N4B 1_555 1_555
H7B C10B 1_555 1_555
Cu1A N5 1_555 1_555
Cu1A_2 N5B 1_555 1_555
N5A Cu1 1_555 1_555
N5C Cu1 1_555 1_555
N4 C6 1_555 1_555
C3 C4 1_555 1_555
C4 C5 1_555 1_555
C9 C10 1_555 1_555
N4B C6B 1_555 1_555
C3B C4B 1_555 1_555
C4B C5B 1_555 1_555
C9B C10B 1_555 1_555

#END
