
#######################################################################
#
#                 Cambridge Crystallographic Data Centre
#                                CCDC 
#
#######################################################################
#
# If this CIF has been generated from an entry in the Cambridge 
# Structural Database, then it will include bibliographic, chemical, 
# crystal, experimental, refinement or atomic coordinate data resulting 
# from the CCDC's data processing and validation procedures.
#
#######################################################################

data_NEXPAI
_symmetry_cell_setting           triclinic
_symmetry_space_group_name_H-M   'P 1'
_symmetry_Int_Tables_number      1
_space_group_name_Hall           'P 1'
loop_
_symmetry_equiv_pos_site_id
_symmetry_equiv_pos_as_xyz
1 x,y,z
_cell_length_a                   8.7335(3)
_cell_length_b                   10.8480(3)
_cell_length_c                   13.3950(5)
_cell_angle_alpha                70.2819(13)
_cell_angle_beta                 76.1788(12)
_cell_angle_gamma                76.5467(11)
_cell_volume                     1143.89
loop_
_atom_site_label
_atom_site_type_symbol
_atom_site_fract_x
_atom_site_fract_y
_atom_site_fract_z
Mn1 Mn 0.78825(10) 0.47087(7) 0.50215(6)
Mn2 Mn 0.48384(9) 0.86396(7) -0.10085(6)
Cr1 Cr 0.75642(10) 0.98572(7) 0.48270(6)
Cr2 Cr 0.41794(10) 0.37708(7) 0.89557(6)
N1 N 0.7750(8) 0.6768(6) 0.5120(5)
N2 N 0.5486(6) 0.9274(5) -0.2803(4)
N3 N 0.7716(8) 0.2806(6) 0.4784(5)
N4 N 0.4514(9) 1.1050(7) 0.3653(6)
N5 N 0.6279(8) 0.4316(6) 0.6573(5)
N6 N 0.4389(7) 1.0763(6) -0.1014(5)
N7 N 0.4751(8) 0.6602(6) -0.1022(5)
N8 N 0.7154(11) 0.2617(8) 1.0164(8)
N9 N 0.9760(6) 0.9317(4) 0.5329(4)
N10 N 0.9113(6) 0.9941(4) 0.3376(4)
N11 N 0.2051(6) 0.4565(4) 0.8334(4)
N12 N 0.2468(6) 0.3515(4) 1.0360(4)
N13 N 0.9953(7) 0.3494(5) 0.5884(5)
N14 N 1.0239(7) 0.5069(5) 0.3833(4)
N15 N 0.6356(10) 0.5724(7) 0.3833(6)
N16 N 0.5523(11) 0.7762(7) 0.2468(6)
N17 N 0.4776(7) 0.8003(5) 0.0755(4)
N18 N 0.2189(7) 0.8826(6) -0.0783(5)
N19 N -0.0205(10) 0.7799(11) -0.0187(8)
N20 N -0.2553(7) 0.8324(6) -0.1028(5)
C1 C 0.7608(8) 0.7868(7) 0.5004(6)
C2 C 0.6208(8) 0.9526(5) -0.3656(5)
C3 C 0.7594(9) 0.1808(7) 0.4782(5)
C4 C 0.5567(9) 1.0558(6) 0.4117(5)
C5 C 0.5551(9) 0.4106(6) 0.7423(6)
C6 C 0.4248(8) 1.1837(7) -0.1048(5)
C7 C 0.4473(9) 0.5610(7) -0.1012(6)
C8 C 0.6105(9) 0.3008(7) 0.9733(7)
C9 C 1.0025(8) 0.9069(6) 0.6321(5)
H1 H 0.9157 0.9199 0.6854
C10 C 1.1515(9) 0.8630(8) 0.6597(6)
H2 H 1.1648 0.8460 0.7302
C11 C 1.2788(9) 0.8450(8) 0.5824(7)
H3 H 1.3810 0.8169 0.5992
C12 C 1.2565(9) 0.8687(8) 0.4778(6)
H4 H 1.3427 0.8551 0.4243
C13 C 1.1056(8) 0.9122(6) 0.4556(5)
C14 C 1.0672(8) 0.9525(6) 0.3453(5)
C15 C 1.1790(9) 0.9552(7) 0.2555(5)
H5 H 1.2866 0.9310 0.2614
C16 C 1.1360(10) 0.9936(8) 0.1548(6)
H6 H 1.2135 0.9934 0.0936
C17 C 0.9798(10) 1.0311(8) 0.1472(6)
H7 H 0.9472 1.0549 0.0810
C18 C 0.8688(8) 1.0335(6) 0.2399(5)
H8 H 0.7615 1.0634 0.2346
C19 C 0.1920(8) 0.5094(6) 0.7296(5)
H9 H 0.2847 0.5079 0.6782
C20 C 0.0492(8) 0.5658(6) 0.6949(6)
H10 H 0.0449 0.6014 0.6218
C21 C -0.0887(9) 0.5683(7) 0.7715(7)
H11 H -0.1871 0.6072 0.7503
C22 C -0.0798(8) 0.5138(6) 0.8780(6)
H12 H -0.1719 0.5136 0.9301
C23 C 0.0720(8) 0.4575(6) 0.9083(5)
C24 C 0.0924(8) 0.4007(6) 1.0206(5)
C25 C -0.0321(9) 0.3870(7) 1.1064(6)
H13 H -0.1370 0.4181 1.0950
C26 C -0.0003(11) 0.3265(8) 1.2102(6)
H14 H -0.0834 0.3179 1.2689
C27 C 0.1533(11) 0.2799(7) 1.2250(5)
H15 H 0.1754 0.2404 1.2944
C28 C 0.2803(10) 0.2907(6) 1.1357(5)
H16 H 0.3852 0.2563 1.1459
C29 C 0.9746(11) 0.2750(7) 0.6902(6)
H17 H 0.8716 0.2759 0.7302
C30 C 1.1018(15) 0.1957(8) 0.7393(8)
H18 H 1.0850 0.1462 0.8116
C31 C 1.2470(16) 0.1921(12) 0.6811(9)
H19 H 1.3326 0.1371 0.7126
C32 C 1.2753(11) 0.2691(11) 0.5734(8)
H20 H 1.3780 0.2667 0.5329
C33 C 1.1438(9) 0.3500(7) 0.5287(6)
C34 C 1.1589(8) 0.4364(7) 0.4163(6)
C35 C 1.3077(10) 0.4450(9) 0.3492(8)
H21 H 1.4010 0.3931 0.3723
C36 C 1.3104(12) 0.5329(10) 0.2481(9)
H22 H 1.4076 0.5413 0.2013
C37 C 1.1739(12) 0.6085(9) 0.2143(7)
H23 H 1.1767 0.6704 0.1464
C38 C 1.0322(11) 0.5905(7) 0.2836(6)
H24 H 0.9377 0.6386 0.2602
C39 C 0.5979(9) 0.6606(8) 0.3150(6)
C40 C 0.5188(9) 0.7804(7) 0.1537(6)
C41 C 0.1036(9) 0.8420(8) -0.0548(6)
C42 C -0.1422(9) 0.8141(8) -0.0682(6)
Mn2_2 Mn -0.51616(9) 0.86396(7) -0.10085(6)
Cr1_2 Cr 0.75642(10) 0.98572(7) -0.51730(6)
Cr1_3 Cr 0.75642(10) -0.01428(7) 0.48270(6)
Cr2_2 Cr 0.41794(10) 1.37708(7) -0.10443(6)
Cr2_3 Cr 0.41794(10) 0.37708(7) -0.10443(6)
N20_2 N 0.7447(7) 0.8324(6) -0.1028(5)
C2_2 C 0.6208(8) 0.9526(5) 0.6344(5)
C3_2 C 0.7594(9) 1.1808(7) 0.4782(5)
C6_2 C 0.4248(8) 0.1837(7) 0.8952(5)
C7_2 C 0.4473(9) 0.5610(7) 0.8988(6)
loop_
_geom_bond_atom_site_label_1
_geom_bond_atom_site_label_2
_geom_bond_site_symmetry_1
_geom_bond_site_symmetry_2
Mn1 N1 1_555 1_555
Mn2 N2 1_555 1_555
Cr1 N9 1_555 1_555
Cr2 N11 1_555 1_555
N1 C1 1_555 1_555
N2 C2 1_555 1_555
N3 Mn1 1_555 1_555
N4 C4 1_555 1_555
N5 Mn1 1_555 1_555
N6 Mn2 1_555 1_555
N7 Mn2 1_555 1_555
N8 C8 1_555 1_555
N9 C9 1_555 1_555
N10 Cr1 1_555 1_555
N11 C19 1_555 1_555
N12 Cr2 1_555 1_555
N13 Mn1 1_555 1_555
N14 Mn1 1_555 1_555
N15 Mn1 1_555 1_555
N16 C39 1_555 1_555
N17 Mn2 1_555 1_555
N18 Mn2 1_555 1_555
N19 C41 1_555 1_555
N20 C42 1_555 1_555
C1 Cr1 1_555 1_555
C2 Cr1_2 1_555 1_555
C3 N3 1_555 1_555
C4 Cr1 1_555 1_555
C5 Cr2 1_555 1_555
C6 N6 1_555 1_555
C7 N7 1_555 1_555
C8 Cr2 1_555 1_555
C9 H1 1_555 1_555
C10 C9 1_555 1_555
H2 C10 1_555 1_555
C11 C10 1_555 1_555
H3 C11 1_555 1_555
C12 C11 1_555 1_555
H4 C12 1_555 1_555
C13 N9 1_555 1_555
C14 N10 1_555 1_555
C15 C14 1_555 1_555
H5 C15 1_555 1_555
C16 C15 1_555 1_555
H6 C16 1_555 1_555
C17 C16 1_555 1_555
H7 C17 1_555 1_555
C18 N10 1_555 1_555
H8 C18 1_555 1_555
C19 H9 1_555 1_555
C20 C19 1_555 1_555
H10 C20 1_555 1_555
C21 C20 1_555 1_555
H11 C21 1_555 1_555
C22 C21 1_555 1_555
H12 C22 1_555 1_555
C23 N11 1_555 1_555
C24 N12 1_555 1_555
C25 C24 1_555 1_555
H13 C25 1_555 1_555
C26 C25 1_555 1_555
H14 C26 1_555 1_555
C27 C26 1_555 1_555
H15 C27 1_555 1_555
C28 N12 1_555 1_555
H16 C28 1_555 1_555
C29 N13 1_555 1_555
H17 C29 1_555 1_555
C30 C29 1_555 1_555
H18 C30 1_555 1_555
C31 C30 1_555 1_555
H19 C31 1_555 1_555
C32 C31 1_555 1_555
H20 C32 1_555 1_555
C33 N13 1_555 1_555
C34 N14 1_555 1_555
C35 C34 1_555 1_555
H21 C35 1_555 1_555
C36 C35 1_555 1_555
H22 C36 1_555 1_555
C37 C36 1_555 1_555
H23 C37 1_555 1_555
C38 N14 1_555 1_555
H24 C38 1_555 1_555
C39 N15 1_555 1_555
C40 N16 1_555 1_555
C41 N18 1_555 1_555
C42 N19 1_555 1_555
Mn2_2 N20 1_555 1_555
Cr1_3 C3 1_555 1_555
Cr2_2 C6 1_555 1_555
Cr2_3 C7 1_555 1_555
N20_2 Mn2 1_555 1_555
C2_2 Cr1 1_555 1_555
C3_2 Cr1 1_555 1_555
C6_2 Cr2 1_555 1_555
C7_2 Cr2 1_555 1_555
N5 C5 1_555 1_555
N17 C40 1_555 1_555
C12 C13 1_555 1_555
C13 C14 1_555 1_555
C17 C18 1_555 1_555
C22 C23 1_555 1_555
C23 C24 1_555 1_555
C27 C28 1_555 1_555
C32 C33 1_555 1_555
C33 C34 1_555 1_555
C37 C38 1_555 1_555

#END
