
#######################################################################
#
#                 Cambridge Crystallographic Data Centre
#                                CCDC 
#
#######################################################################
#
# If this CIF has been generated from an entry in the Cambridge 
# Structural Database, then it will include bibliographic, chemical, 
# crystal, experimental, refinement or atomic coordinate data resulting 
# from the CCDC's data processing and validation procedures.
#
#######################################################################

data_NEXQUD
_symmetry_cell_setting           orthorhombic
_symmetry_space_group_name_H-M   'P b c n'
_symmetry_Int_Tables_number      60
_space_group_name_Hall           '-P 2n 2ab'
loop_
_symmetry_equiv_pos_site_id
_symmetry_equiv_pos_as_xyz
1 x,y,z
2 1/2-x,1/2-y,1/2+z
3 -x,y,1/2-z
4 1/2+x,1/2-y,-z
5 -x,-y,-z
6 1/2+x,1/2+y,1/2-z
7 x,-y,1/2+z
8 1/2-x,1/2+y,z
_cell_length_a                   25.532(2)
_cell_length_b                   24.674(3)
_cell_length_c                   23.312(4)
_cell_angle_alpha                90
_cell_angle_beta                 90
_cell_angle_gamma                90
_cell_volume                     14686
loop_
_atom_site_label
_atom_site_type_symbol
_atom_site_fract_x
_atom_site_fract_y
_atom_site_fract_z
O1 O 0.5000 0.8253(4) 0.2500
Ag1 Ag 0.5000 0.19023(3) 0.2500
Ag2 Ag 0.608710(17) 0.190870(19) 0.25807(2)
Ag3 Ag 0.721840(17) 0.214010(19) 0.24853(2)
Ag4 Ag 0.832560(17) 0.213750(18) 0.25584(2)
Ag5 Ag 0.943130(17) 0.22207(2) 0.26255(2)
N1 N 0.6060(2) 0.1253(2) 0.3175(2)
N2 N 0.5784(3) 0.0647(2) 0.2475(3)
N3 N 0.5594(2) 0.1058(2) 0.2159(3)
N4 N 0.50688(19) 0.1846(2) 0.1554(2)
N5 N 0.4508(2) 0.2696(2) 0.2011(2)
N6 N 0.4301(2) 0.3138(2) 0.2262(2)
N7 N 0.3950(2) 0.2596(2) 0.2977(2)
N8 N 0.72360(19) 0.2968(2) 0.2225(2)
N9 N 0.7594(2) 0.2721(2) 0.1345(2)
N10 N 0.7772(2) 0.2261(2) 0.1576(2)
N11 N 0.83426(19) 0.1396(2) 0.2036(2)
N12 N 0.8864(2) 0.1404(2) 0.3072(2)
N13 N 0.9054(2) 0.1417(3) 0.3610(3)
N14 N 0.9310(2) 0.2316(3) 0.3515(3)
N15 N 0.7237(2) 0.1313(2) 0.2743(2)
N16 N 0.7499(2) 0.1572(2) 0.3657(2)
N17 N 0.7701(2) 0.2036(2) 0.3443(2)
N18 N 0.82443(19) 0.2916(2) 0.3027(2)
N19 N 0.8852(2) 0.2901(2) 0.2048(2)
N20 N 0.9067(3) 0.2871(3) 0.1528(3)
N21 N 0.94339(19) 0.2033(2) 0.1742(2)
C1 C 0.5888(3) 0.0753(3) 0.3043(3)
C2 C 0.6162(2) 0.1361(3) 0.3726(3)
H1 H 0.6280 0.1705 0.3822
C3 C 0.6102(3) 0.0991(4) 0.4150(4)
H2 H 0.6182 0.1078 0.4528
C4 C 0.5924(3) 0.0492(3) 0.4011(4)
H3 H 0.5876 0.0235 0.4298
C5 C 0.5815(3) 0.0365(3) 0.3462(4)
H4 H 0.5692 0.0021 0.3367
C6 C 0.5786(4) 0.0099(3) 0.2247(4)
H5 H 0.5433 -0.0019 0.2186
H6 H 0.5955 -0.0139 0.2516
H7 H 0.5973 0.0092 0.1890
C7 C 0.5469(2) 0.0973(3) 0.1641(3)
H8 H 0.5520 0.0631 0.1482
C8 C 0.5252(2) 0.1398(3) 0.1297(3)
C9 C 0.5217(3) 0.1322(3) 0.0713(3)
H9 H 0.5327 0.1000 0.0544
C10 C 0.5017(3) 0.1735(3) 0.0388(3)
H10 H 0.4990 0.1695 -0.0007
C11 C 0.4857(3) 0.2203(3) 0.0640(3)
H11 H 0.4735 0.2491 0.0420
C12 C 0.4879(2) 0.2241(3) 0.1228(3)
C13 C 0.4663(2) 0.2721(3) 0.1494(3)
H12 H 0.4638 0.3044 0.1290
C14 C 0.4283(3) 0.3651(3) 0.1956(3)
H13 H 0.4633 0.3775 0.1884
H14 H 0.4100 0.3914 0.2184
H15 H 0.4103 0.3602 0.1598
C15 C 0.4118(2) 0.3081(3) 0.2812(3)
C16 C 0.4114(3) 0.3519(3) 0.3182(3)
H16 H 0.4241 0.3853 0.3064
C17 C 0.3922(3) 0.3455(3) 0.3715(3)
H17 H 0.3905 0.3748 0.3965
C18 C 0.3752(3) 0.2955(4) 0.3886(3)
H18 H 0.3621 0.2903 0.4255
C19 C 0.3778(3) 0.2534(3) 0.3512(3)
H19 H 0.3672 0.2192 0.3633
C20 C 0.7082(3) 0.3348(3) 0.2596(3)
H20 H 0.6961 0.3242 0.2955
C21 C 0.7097(3) 0.3887(3) 0.2466(3)
H21 H 0.6990 0.4146 0.2732
C22 C 0.7275(3) 0.4037(3) 0.1936(3)
H22 H 0.7276 0.4400 0.1831
C23 C 0.7447(3) 0.3659(3) 0.1565(3)
H23 H 0.7580 0.3760 0.1210
C24 C 0.7425(2) 0.3120(3) 0.1717(3)
C25 C 0.7622(3) 0.2812(3) 0.0736(3)
H24 H 0.7982 0.2816 0.0617
H25 H 0.7463 0.3154 0.0645
H26 H 0.7440 0.2528 0.0538
C26 C 0.7927(2) 0.1871(3) 0.1265(3)
H27 H 0.7900 0.1901 0.0869
C27 C 0.8144(2) 0.1382(3) 0.1509(3)
C28 C 0.8146(3) 0.0916(3) 0.1187(3)
H28 H 0.8001 0.0913 0.0821
C29 C 0.8365(3) 0.0455(3) 0.1413(4)
H29 H 0.8380 0.0137 0.1199
C30 C 0.8561(3) 0.0471(3) 0.1954(4)
H30 H 0.8704 0.0160 0.2116
C31 C 0.8548(2) 0.0943(3) 0.2261(3)
C32 C 0.8763(3) 0.0951(3) 0.2828(3)
H31 H 0.8829 0.0628 0.3019
C33 C 0.9083(4) 0.0926(4) 0.3947(4)
H32 H 0.8738 0.0775 0.3989
H33 H 0.9224 0.1008 0.4319
H34 H 0.9305 0.0668 0.3758
C34 C 0.9126(3) 0.1926(4) 0.3847(3)
C35 C 0.9008(3) 0.2029(5) 0.4420(4)
H35 H 0.8891 0.1754 0.4661
C36 C 0.9068(4) 0.2550(6) 0.4619(5)
H36 H 0.8999 0.2628 0.5002
C37 C 0.9224(4) 0.2942(5) 0.4268(5)
H37 H 0.9244 0.3299 0.4395
C38 C 0.9355(3) 0.2813(4) 0.3724(4)
H38 H 0.9482 0.3085 0.3486
C39 C 0.7129(3) 0.0928(3) 0.2362(3)
H39 H 0.7035 0.1032 0.1992
C40 C 0.7150(3) 0.0391(3) 0.2485(3)
H40 H 0.7056 0.0131 0.2216
C41 C 0.7317(3) 0.0247(3) 0.3024(4)
H41 H 0.7349 -0.0117 0.3118
C42 C 0.7434(3) 0.0631(3) 0.3421(3)
H42 H 0.7542 0.0532 0.3788
C43 C 0.7390(2) 0.1168(3) 0.3270(3)
C44 C 0.7424(3) 0.1510(3) 0.4265(3)
H43 H 0.7756 0.1536 0.4456
H44 H 0.7271 0.1162 0.4342
H45 H 0.7196 0.1790 0.4402
C45 C 0.7795(2) 0.2433(3) 0.3772(3)
H46 H 0.7718 0.2408 0.4161
C46 C 0.8024(2) 0.2928(3) 0.3541(3)
C47 C 0.7996(3) 0.3398(3) 0.3857(3)
H47 H 0.7841 0.3400 0.4218
C48 C 0.8201(3) 0.3859(3) 0.3632(3)
H48 H 0.8195 0.4180 0.3841
C49 C 0.8412(3) 0.3847(3) 0.3104(4)
H49 H 0.8536 0.4165 0.2938
C50 C 0.8444(2) 0.3368(2) 0.2807(3)
C51 C 0.8679(3) 0.3345(3) 0.2243(3)
H50 H 0.8703 0.3658 0.2022
C52 C 0.9070(4) 0.3333(4) 0.1154(4)
H51 H 0.8716 0.3450 0.1087
H52 H 0.9229 0.3236 0.0795
H53 H 0.9265 0.3621 0.1328
C53 C 0.9245(2) 0.2370(3) 0.1349(3)
C54 C 0.9227(3) 0.2224(4) 0.0779(3)
H54 H 0.9099 0.2464 0.0505
C55 C 0.9399(3) 0.1722(4) 0.0622(3)
H55 H 0.9392 0.1618 0.0239
C56 C 0.9581(3) 0.1373(3) 0.1029(3)
H56 H 0.9698 0.1029 0.0928
C57 C 0.9589(3) 0.1538(3) 0.1581(3)
H57 H 0.9707 0.1298 0.1860
Ag2B Ag 0.391290(17) 0.190870(19) 0.24193(2)
Ag3B Ag 0.278160(17) 0.214010(19) 0.25147(2)
Ag4B Ag 0.167440(17) 0.213750(18) 0.24416(2)
Ag5B Ag 0.056870(17) 0.22207(2) 0.23745(2)
Ag5B_2 Ag 1.056870(17) 0.22207(2) 0.23745(2)
Ag5_2 Ag -0.056870(17) 0.22207(2) 0.26255(2)
N1B N 0.3940(2) 0.1253(2) 0.1825(2)
N2B N 0.4216(3) 0.0647(2) 0.2525(3)
N3B N 0.4406(2) 0.1058(2) 0.2841(3)
N4B N 0.49312(19) 0.1846(2) 0.3446(2)
N5B N 0.5492(2) 0.2696(2) 0.2989(2)
N6B N 0.5699(2) 0.3138(2) 0.2738(2)
N7B N 0.6050(2) 0.2596(2) 0.2023(2)
N8B N 0.27640(19) 0.2968(2) 0.2775(2)
N9B N 0.2406(2) 0.2721(2) 0.3655(2)
N10B N 0.2228(2) 0.2261(2) 0.3424(2)
N11B N 0.16574(19) 0.1396(2) 0.2964(2)
N12B N 0.1136(2) 0.1404(2) 0.1928(2)
N13B N 0.0946(2) 0.1417(3) 0.1390(3)
N14B N 0.0690(2) 0.2316(3) 0.1485(3)
N15B N 0.2763(2) 0.1313(2) 0.2257(2)
N16B N 0.2501(2) 0.1572(2) 0.1343(2)
N17B N 0.2299(2) 0.2036(2) 0.1557(2)
N18B N 0.17557(19) 0.2916(2) 0.1973(2)
N19B N 0.1148(2) 0.2901(2) 0.2952(2)
N20B N 0.0933(3) 0.2871(3) 0.3472(3)
N21B N 0.05661(19) 0.2033(2) 0.3258(2)
C1B C 0.4112(3) 0.0753(3) 0.1957(3)
C2B C 0.3838(2) 0.1361(3) 0.1274(3)
H1B H 0.3720 0.1705 0.1178
C3B C 0.3898(3) 0.0991(4) 0.0850(4)
H2B H 0.3818 0.1078 0.0472
C4B C 0.4076(3) 0.0492(3) 0.0989(4)
H3B H 0.4124 0.0235 0.0702
C5B C 0.4185(3) 0.0365(3) 0.1538(4)
H4B H 0.4308 0.0021 0.1633
C6B C 0.4214(4) 0.0099(3) 0.2753(4)
H5B H 0.4567 -0.0019 0.2814
H6B H 0.4045 -0.0139 0.2484
H7B H 0.4027 0.0092 0.3110
C7B C 0.4531(2) 0.0973(3) 0.3359(3)
H8B H 0.4480 0.0631 0.3518
C8B C 0.4748(2) 0.1398(3) 0.3703(3)
C9B C 0.4783(3) 0.1322(3) 0.4287(3)
H9B H 0.4673 0.1000 0.4456
C10B C 0.4983(3) 0.1735(3) 0.4612(3)
H10B H 0.5010 0.1695 0.5007
C11B C 0.5143(3) 0.2203(3) 0.4360(3)
H11B H 0.5265 0.2491 0.4580
C12B C 0.5121(2) 0.2241(3) 0.3772(3)
C13B C 0.5337(2) 0.2721(3) 0.3506(3)
H12B H 0.5362 0.3044 0.3710
C14B C 0.5717(3) 0.3651(3) 0.3044(3)
H13B H 0.5367 0.3775 0.3116
H14B H 0.5900 0.3914 0.2816
H15B H 0.5897 0.3602 0.3402
C15B C 0.5882(2) 0.3081(3) 0.2188(3)
C16B C 0.5886(3) 0.3519(3) 0.1818(3)
H16B H 0.5759 0.3853 0.1936
C17B C 0.6078(3) 0.3455(3) 0.1285(3)
H17B H 0.6095 0.3748 0.1035
C18B C 0.6248(3) 0.2955(4) 0.1114(3)
H18B H 0.6379 0.2903 0.0745
C19B C 0.6222(3) 0.2534(3) 0.1488(3)
H19B H 0.6328 0.2192 0.1367
C20B C 0.2918(3) 0.3348(3) 0.2404(3)
H20B H 0.3039 0.3242 0.2045
C21B C 0.2903(3) 0.3887(3) 0.2534(3)
H21B H 0.3010 0.4146 0.2268
C22B C 0.2725(3) 0.4037(3) 0.3064(3)
H22B H 0.2724 0.4400 0.3169
C23B C 0.2553(3) 0.3659(3) 0.3435(3)
H23B H 0.2420 0.3760 0.3790
C24B C 0.2575(2) 0.3120(3) 0.3283(3)
C25B C 0.2378(3) 0.2812(3) 0.4264(3)
H24B H 0.2018 0.2816 0.4383
H25B H 0.2537 0.3154 0.4355
H26B H 0.2560 0.2528 0.4462
C26B C 0.2073(2) 0.1871(3) 0.3735(3)
H27B H 0.2100 0.1901 0.4131
C27B C 0.1856(2) 0.1382(3) 0.3491(3)
C28B C 0.1854(3) 0.0916(3) 0.3813(3)
H28B H 0.1999 0.0913 0.4179
C29B C 0.1635(3) 0.0455(3) 0.3587(4)
H29B H 0.1620 0.0137 0.3801
C30B C 0.1439(3) 0.0471(3) 0.3046(4)
H30B H 0.1296 0.0160 0.2884
C31B C 0.1452(2) 0.0943(3) 0.2739(3)
C32B C 0.1237(3) 0.0951(3) 0.2172(3)
H31B H 0.1171 0.0628 0.1981
C33B C 0.0917(4) 0.0926(4) 0.1053(4)
H32B H 0.1262 0.0775 0.1011
H33B H 0.0776 0.1008 0.0681
H34B H 0.0695 0.0668 0.1242
C34B C 0.0874(3) 0.1926(4) 0.1153(3)
C35B C 0.0992(3) 0.2029(5) 0.0580(4)
H35B H 0.1109 0.1754 0.0339
C36B C 0.0932(4) 0.2550(6) 0.0381(5)
H36B H 0.1001 0.2628 -0.0002
C37B C 0.0776(4) 0.2942(5) 0.0732(5)
H37B H 0.0756 0.3299 0.0605
C38B C 0.0645(3) 0.2813(4) 0.1276(4)
H38B H 0.0518 0.3085 0.1514
C39B C 0.2871(3) 0.0928(3) 0.2638(3)
H39B H 0.2965 0.1032 0.3008
C40B C 0.2850(3) 0.0391(3) 0.2515(3)
H40B H 0.2944 0.0131 0.2784
C41B C 0.2683(3) 0.0247(3) 0.1976(4)
H41B H 0.2651 -0.0117 0.1882
C42B C 0.2566(3) 0.0631(3) 0.1579(3)
H42B H 0.2458 0.0532 0.1212
C43B C 0.2610(2) 0.1168(3) 0.1730(3)
C44B C 0.2576(3) 0.1510(3) 0.0735(3)
H43B H 0.2244 0.1536 0.0544
H44B H 0.2729 0.1162 0.0658
H45B H 0.2804 0.1790 0.0598
C45B C 0.2205(2) 0.2433(3) 0.1228(3)
H46B H 0.2282 0.2408 0.0839
C46B C 0.1976(2) 0.2928(3) 0.1459(3)
C47B C 0.2004(3) 0.3398(3) 0.1143(3)
H47B H 0.2159 0.3400 0.0782
C48B C 0.1799(3) 0.3859(3) 0.1368(3)
H48B H 0.1805 0.4180 0.1159
C49B C 0.1588(3) 0.3847(3) 0.1896(4)
H49B H 0.1464 0.4165 0.2062
C50B C 0.1556(2) 0.3368(2) 0.2193(3)
C51B C 0.1321(3) 0.3345(3) 0.2757(3)
H50B H 0.1297 0.3658 0.2978
C52B C 0.0930(4) 0.3333(4) 0.3846(4)
H51B H 0.1284 0.3450 0.3913
H52B H 0.0771 0.3236 0.4205
H53B H 0.0735 0.3621 0.3672
C53B C 0.0755(2) 0.2370(3) 0.3651(3)
C54B C 0.0773(3) 0.2224(4) 0.4221(3)
H54B H 0.0901 0.2464 0.4495
C55B C 0.0601(3) 0.1722(4) 0.4378(3)
H55B H 0.0608 0.1618 0.4761
C56B C 0.0419(3) 0.1373(3) 0.3971(3)
H56B H 0.0302 0.1029 0.4072
C57B C 0.0411(3) 0.1538(3) 0.3419(3)
H57B H 0.0293 0.1298 0.3140
B1 B 0.3473(3) 0.2777(3) 0.0645(4)
F1 F 0.36301(17) 0.23118(17) 0.03622(19)
F2 F 0.30304(16) 0.29694(18) 0.0385(2)
F3 F 0.33790(17) 0.26519(18) 0.12075(18)
F4 F 0.38685(16) 0.31604(17) 0.0606(2)
B2 B 0.1777(4) 0.0647(3) 0.9779(4)
F5 F 0.12925(18) 0.04532(19) 0.9666(2)
F6 F 0.2126(2) 0.0455(2) 0.9379(2)
F7 F 0.1775(2) 0.12051(17) 0.9759(2)
F8 F 0.19418(19) 0.04821(17) 1.03122(18)
B3 B 0.3251(3) 0.1387(3) 0.4524(3)
F9 F 0.36545(19) 0.1179(2) 0.4838(2)
F10 F 0.27913(19) 0.1175(2) 0.4726(2)
F11 F 0.3308(2) 0.1259(2) 0.3959(2)
F12 F 0.3243(2) 0.19415(19) 0.4582(2)
B4 B 0.5000 0.5068(5) 0.2500
F13 F 0.4580(2) 0.4756(2) 0.2632(3)
F14 F 0.4899(2) 0.5389(3) 0.2042(3)
F13B F 0.5420(2) 0.4756(2) 0.2368(3)
F14B F 0.5101(2) 0.5389(3) 0.2958(3)
N22 N 0.1569(5) 0.0541(4) 0.5908(5)
O2 O 0.1948(4) 0.0548(3) 0.6215(4)
O3 O 0.1149(3) 0.0416(3) 0.6070(4)
C58 C 0.1655(4) 0.0713(3) 0.5333(4)
H58 H 0.2025 0.0743 0.5264
H59 H 0.1492 0.1059 0.5275
H60 H 0.1507 0.0453 0.5074
N23 N 0.9983(3) 0.0771(3) 0.5515(3)
O4 O 1.0060(4) 0.0674(3) 0.5033(3)
O5 O 0.9987(4) 0.1216(3) 0.5697(3)
C59 C 0.9863(4) 0.0324(4) 0.5898(4)
H61 H 1.0097 0.0027 0.5822
H62 H 0.9508 0.0209 0.5838
H63 H 0.9905 0.0440 0.6289
N24 N 0.3283(3) 0.0505(3) 0.9271(4)
O6 O 0.3332(3) 0.0489(2) 0.8753(3)
O7 O 0.3219(2) 0.0913(2) 0.9545(3)
C60 C 0.3289(4) -0.0006(3) 0.9589(4)
H64 H 0.3610 -0.0194 0.9513
H65 H 0.2998 -0.0225 0.9471
H66 H 0.3262 0.0068 0.9993
B5 B 0.5265(7) 0.9580(6) 0.0573(7)
F15 F 0.4774(4) 0.9392(4) 0.0494(4)
F16 F 0.5601(4) 0.9237(4) 0.0367(4)
F17 F 0.5320(4) 0.9803(4) 0.1045(4)
F18 F 0.5350(4) 1.0068(3) 0.0190(4)
O8 O 0.5352(5) 0.9004(4) 0.2792(4)
loop_
_geom_bond_atom_site_label_1
_geom_bond_atom_site_label_2
_geom_bond_site_symmetry_1
_geom_bond_site_symmetry_2
Ag1 Ag2 1_555 1_555
Ag2 Ag3 1_555 1_555
Ag3 Ag4 1_555 1_555
Ag4 Ag5 1_555 1_555
Ag5 N14 1_555 1_555
N1 Ag2 1_555 1_555
N2 N3 1_555 1_555
N3 Ag2 1_555 1_555
N4 Ag1 1_555 1_555
N5 Ag1 1_555 1_555
N6 N5 1_555 1_555
N7 C15 1_555 1_555
N8 Ag3 1_555 1_555
N9 N10 1_555 1_555
N10 Ag3 1_555 1_555
N11 Ag4 1_555 1_555
N12 Ag4 1_555 1_555
N13 N12 1_555 1_555
N14 C34 1_555 1_555
N15 Ag3 1_555 1_555
N16 N17 1_555 1_555
N17 Ag3 1_555 1_555
N18 Ag4 1_555 1_555
N19 Ag4 1_555 1_555
N20 N19 1_555 1_555
N21 Ag5 1_555 1_555
C1 N1 1_555 1_555
C2 N1 1_555 1_555
H1 C2 1_555 1_555
C3 C2 1_555 1_555
H2 C3 1_555 1_555
C4 C3 1_555 1_555
H3 C4 1_555 1_555
C5 C1 1_555 1_555
H4 C5 1_555 1_555
C6 N2 1_555 1_555
H5 C6 1_555 1_555
H6 C6 1_555 1_555
H7 C6 1_555 1_555
C7 N3 1_555 1_555
H8 C7 1_555 1_555
C8 N4 1_555 1_555
C9 C8 1_555 1_555
H9 C9 1_555 1_555
C10 C9 1_555 1_555
H10 C10 1_555 1_555
C11 C10 1_555 1_555
H11 C11 1_555 1_555
C12 N4 1_555 1_555
C13 N5 1_555 1_555
H12 C13 1_555 1_555
C14 N6 1_555 1_555
H13 C14 1_555 1_555
H14 C14 1_555 1_555
H15 C14 1_555 1_555
C15 N6 1_555 1_555
C16 C15 1_555 1_555
H16 C16 1_555 1_555
C17 C16 1_555 1_555
H17 C17 1_555 1_555
C18 C17 1_555 1_555
H18 C18 1_555 1_555
C19 N7 1_555 1_555
H19 C19 1_555 1_555
C20 N8 1_555 1_555
H20 C20 1_555 1_555
C21 C20 1_555 1_555
H21 C21 1_555 1_555
C22 C21 1_555 1_555
H22 C22 1_555 1_555
C23 C22 1_555 1_555
H23 C23 1_555 1_555
C24 N8 1_555 1_555
C25 N9 1_555 1_555
H24 C25 1_555 1_555
H25 C25 1_555 1_555
H26 C25 1_555 1_555
C26 N10 1_555 1_555
H27 C26 1_555 1_555
C27 N11 1_555 1_555
C28 C27 1_555 1_555
H28 C28 1_555 1_555
C29 C28 1_555 1_555
H29 C29 1_555 1_555
C30 C29 1_555 1_555
H30 C30 1_555 1_555
C31 N11 1_555 1_555
C32 N12 1_555 1_555
H31 C32 1_555 1_555
C33 N13 1_555 1_555
H32 C33 1_555 1_555
H33 C33 1_555 1_555
H34 C33 1_555 1_555
C34 N13 1_555 1_555
C35 C34 1_555 1_555
H35 C35 1_555 1_555
C36 C35 1_555 1_555
H36 C36 1_555 1_555
C37 C36 1_555 1_555
H37 C37 1_555 1_555
C38 N14 1_555 1_555
H38 C38 1_555 1_555
C39 N15 1_555 1_555
H39 C39 1_555 1_555
C40 C39 1_555 1_555
H40 C40 1_555 1_555
C41 C40 1_555 1_555
H41 C41 1_555 1_555
C42 C41 1_555 1_555
H42 C42 1_555 1_555
C43 N15 1_555 1_555
C44 N16 1_555 1_555
H43 C44 1_555 1_555
H44 C44 1_555 1_555
H45 C44 1_555 1_555
C45 N17 1_555 1_555
H46 C45 1_555 1_555
C46 N18 1_555 1_555
C47 C46 1_555 1_555
H47 C47 1_555 1_555
C48 C47 1_555 1_555
H48 C48 1_555 1_555
C49 C48 1_555 1_555
H49 C49 1_555 1_555
C50 N18 1_555 1_555
C51 N19 1_555 1_555
H50 C51 1_555 1_555
C52 N20 1_555 1_555
H51 C52 1_555 1_555
H52 C52 1_555 1_555
H53 C52 1_555 1_555
C53 N20 1_555 1_555
C54 C53 1_555 1_555
H54 C54 1_555 1_555
C55 C54 1_555 1_555
H55 C55 1_555 1_555
C56 C55 1_555 1_555
H56 C56 1_555 1_555
C57 N21 1_555 1_555
H57 C57 1_555 1_555
B1 F1 1_555 1_555
F2 B1 1_555 1_555
F3 B1 1_555 1_555
F4 B1 1_555 1_555
B2 F5 1_555 1_555
F6 B2 1_555 1_555
F7 B2 1_555 1_555
F8 B2 1_555 1_555
B3 F9 1_555 1_555
F10 B3 1_555 1_555
F11 B3 1_555 1_555
F12 B3 1_555 1_555
B4 F13 1_555 1_555
F14 B4 1_555 1_555
N22 O2 1_555 1_555
O3 N22 1_555 1_555
C58 N22 1_555 1_555
H58 C58 1_555 1_555
H59 C58 1_555 1_555
H60 C58 1_555 1_555
N23 O4 1_555 1_555
O5 N23 1_555 1_555
C59 N23 1_555 1_555
H61 C59 1_555 1_555
H62 C59 1_555 1_555
H63 C59 1_555 1_555
N24 O6 1_555 1_555
O7 N24 1_555 1_555
C60 N24 1_555 1_555
H64 C60 1_555 1_555
H65 C60 1_555 1_555
H66 C60 1_555 1_555
B5 F15 1_555 1_555
F16 B5 1_555 1_555
F17 B5 1_555 1_555
F18 B5 1_555 1_555
Ag2B Ag1 1_555 1_555
Ag3B Ag2B 1_555 1_555
Ag4B Ag3B 1_555 1_555
Ag5B Ag4B 1_555 1_555
Ag5B_2 Ag5 1_555 1_555
Ag5_2 Ag5B 1_555 1_555
N1B Ag2B 1_555 1_555
N2B N3B 1_555 1_555
N3B Ag2B 1_555 1_555
N4B Ag1 1_555 1_555
N5B Ag1 1_555 1_555
N6B N5B 1_555 1_555
N7B Ag2 1_555 1_555
N8B Ag3B 1_555 1_555
N9B N10B 1_555 1_555
N10B Ag3B 1_555 1_555
N11B Ag4B 1_555 1_555
N12B Ag4B 1_555 1_555
N13B N12B 1_555 1_555
N14B Ag5B 1_555 1_555
N15B Ag3B 1_555 1_555
N16B N17B 1_555 1_555
N17B Ag3B 1_555 1_555
N18B Ag4B 1_555 1_555
N19B Ag4B 1_555 1_555
N20B N19B 1_555 1_555
N21B Ag5B 1_555 1_555
C1B N1B 1_555 1_555
C2B N1B 1_555 1_555
H1B C2B 1_555 1_555
C3B C2B 1_555 1_555
H2B C3B 1_555 1_555
C4B C3B 1_555 1_555
H3B C4B 1_555 1_555
C5B C1B 1_555 1_555
H4B C5B 1_555 1_555
C6B N2B 1_555 1_555
H5B C6B 1_555 1_555
H6B C6B 1_555 1_555
H7B C6B 1_555 1_555
C7B N3B 1_555 1_555
H8B C7B 1_555 1_555
C8B N4B 1_555 1_555
C9B C8B 1_555 1_555
H9B C9B 1_555 1_555
C10B C9B 1_555 1_555
H10B C10B 1_555 1_555
C11B C10B 1_555 1_555
H11B C11B 1_555 1_555
C12B N4B 1_555 1_555
C13B N5B 1_555 1_555
H12B C13B 1_555 1_555
C14B N6B 1_555 1_555
H13B C14B 1_555 1_555
H14B C14B 1_555 1_555
H15B C14B 1_555 1_555
C15B N6B 1_555 1_555
C16B C15B 1_555 1_555
H16B C16B 1_555 1_555
C17B C16B 1_555 1_555
H17B C17B 1_555 1_555
C18B C17B 1_555 1_555
H18B C18B 1_555 1_555
C19B N7B 1_555 1_555
H19B C19B 1_555 1_555
C20B N8B 1_555 1_555
H20B C20B 1_555 1_555
C21B C20B 1_555 1_555
H21B C21B 1_555 1_555
C22B C21B 1_555 1_555
H22B C22B 1_555 1_555
C23B C22B 1_555 1_555
H23B C23B 1_555 1_555
C24B N8B 1_555 1_555
C25B N9B 1_555 1_555
H24B C25B 1_555 1_555
H25B C25B 1_555 1_555
H26B C25B 1_555 1_555
C26B N10B 1_555 1_555
H27B C26B 1_555 1_555
C27B N11B 1_555 1_555
C28B C27B 1_555 1_555
H28B C28B 1_555 1_555
C29B C28B 1_555 1_555
H29B C29B 1_555 1_555
C30B C29B 1_555 1_555
H30B C30B 1_555 1_555
C31B N11B 1_555 1_555
C32B N12B 1_555 1_555
H31B C32B 1_555 1_555
C33B N13B 1_555 1_555
H32B C33B 1_555 1_555
H33B C33B 1_555 1_555
H34B C33B 1_555 1_555
C34B N13B 1_555 1_555
C35B C34B 1_555 1_555
H35B C35B 1_555 1_555
C36B C35B 1_555 1_555
H36B C36B 1_555 1_555
C37B C36B 1_555 1_555
H37B C37B 1_555 1_555
C38B N14B 1_555 1_555
H38B C38B 1_555 1_555
C39B N15B 1_555 1_555
H39B C39B 1_555 1_555
C40B C39B 1_555 1_555
H40B C40B 1_555 1_555
C41B C40B 1_555 1_555
H41B C41B 1_555 1_555
C42B C41B 1_555 1_555
H42B C42B 1_555 1_555
C43B N15B 1_555 1_555
C44B N16B 1_555 1_555
H43B C44B 1_555 1_555
H44B C44B 1_555 1_555
H45B C44B 1_555 1_555
C45B N17B 1_555 1_555
H46B C45B 1_555 1_555
C46B N18B 1_555 1_555
C47B C46B 1_555 1_555
H47B C47B 1_555 1_555
C48B C47B 1_555 1_555
H48B C48B 1_555 1_555
C49B C48B 1_555 1_555
H49B C49B 1_555 1_555
C50B N18B 1_555 1_555
C51B N19B 1_555 1_555
H50B C51B 1_555 1_555
C52B N20B 1_555 1_555
H51B C52B 1_555 1_555
H52B C52B 1_555 1_555
H53B C52B 1_555 1_555
C53B N20B 1_555 1_555
C54B C53B 1_555 1_555
H54B C54B 1_555 1_555
C55B C54B 1_555 1_555
H55B C55B 1_555 1_555
C56B C55B 1_555 1_555
H56B C56B 1_555 1_555
C57B N21B 1_555 1_555
H57B C57B 1_555 1_555
F13B B4 1_555 1_555
F14B B4 1_555 1_555
Ag2 N5B 1_555 1_555
Ag4 N17 1_555 1_555
Ag5 N19 1_555 1_555
N2 C1 1_555 1_555
N5 Ag2B 1_555 1_555
N7 Ag2B 1_555 1_555
N9 C24 1_555 1_555
N16 C43 1_555 1_555
N21 C53 1_555 1_555
C4 C5 1_555 1_555
C7 C8 1_555 1_555
C11 C12 1_555 1_555
C12 C13 1_555 1_555
C18 C19 1_555 1_555
C23 C24 1_555 1_555
C26 C27 1_555 1_555
C30 C31 1_555 1_555
C31 C32 1_555 1_555
C37 C38 1_555 1_555
C42 C43 1_555 1_555
C45 C46 1_555 1_555
C49 C50 1_555 1_555
C50 C51 1_555 1_555
C56 C57 1_555 1_555
Ag4B N17B 1_555 1_555
Ag5B N19B 1_555 1_555
N2B C1B 1_555 1_555
N7B C15B 1_555 1_555
N9B C24B 1_555 1_555
N14B C34B 1_555 1_555
N16B C43B 1_555 1_555
N21B C53B 1_555 1_555
C4B C5B 1_555 1_555
C7B C8B 1_555 1_555
C11B C12B 1_555 1_555
C12B C13B 1_555 1_555
C18B C19B 1_555 1_555
C23B C24B 1_555 1_555
C26B C27B 1_555 1_555
C30B C31B 1_555 1_555
C31B C32B 1_555 1_555
C37B C38B 1_555 1_555
C42B C43B 1_555 1_555
C45B C46B 1_555 1_555
C49B C50B 1_555 1_555
C50B C51B 1_555 1_555
C56B C57B 1_555 1_555

#END
