
#######################################################################
#
#                 Cambridge Crystallographic Data Centre
#                                CCDC 
#
#######################################################################
#
# If this CIF has been generated from an entry in the Cambridge 
# Structural Database, then it will include bibliographic, chemical, 
# crystal, experimental, refinement or atomic coordinate data resulting 
# from the CCDC's data processing and validation procedures.
#
#######################################################################

data_NEXWIY
_symmetry_cell_setting           monoclinic
_symmetry_space_group_name_H-M   'P 21/c'
_symmetry_Int_Tables_number      14
_space_group_name_Hall           '-P 2ybc'
loop_
_symmetry_equiv_pos_site_id
_symmetry_equiv_pos_as_xyz
1 x,y,z
2 -x,1/2+y,1/2-z
3 -x,-y,-z
4 x,1/2-y,1/2+z
_cell_length_a                   9.6734(12)
_cell_length_b                   8.8621(11)
_cell_length_c                   27.450(3)
_cell_angle_alpha                90
_cell_angle_beta                 109.542(4)
_cell_angle_gamma                90
_cell_volume                     2217.64
loop_
_atom_site_label
_atom_site_type_symbol
_atom_site_fract_x
_atom_site_fract_y
_atom_site_fract_z
Er1 Er 0.27051(3) 0.54038(3) 0.781341(10)
O1 O -0.1290(4) 0.2542(4) 0.73463(15)
O2 O 0.0412(4) 0.4242(4) 0.77613(15)
O3 O 0.5702(4) 0.2060(4) 0.74110(15)
O4 O 0.4200(4) 0.3985(4) 0.74050(15)
O5 O 0.3111(4) 0.5621(5) 0.94792(16)
O6 O 0.2332(4) 0.5732(4) 0.86100(14)
N1 N -0.0176(5) 0.2843(6) 0.64903(19)
H1 H -0.0769 0.2088 0.6421
N2 N 0.1210(5) 0.4755(5) 0.69248(18)
N3 N 0.3202(5) 0.2736(5) 0.80968(19)
N4 N 0.4499(5) 0.0626(5) 0.81428(18)
H2 H 0.5057 -0.0027 0.8070
N5 N 0.5033(5) 0.5284(5) 0.85807(18)
N6 N 0.5987(5) 0.4876(5) 0.94312(18)
H3 H 0.6048 0.4796 0.9750
C1 C -0.0261(6) 0.3441(6) 0.7378(2)
C2 C 0.0234(6) 0.3653(6) 0.6926(2)
C3 C 0.0524(7) 0.3441(7) 0.6175(2)
C4 C 0.1366(6) 0.4629(7) 0.6449(2)
C5 C 0.2147(7) 0.5512(8) 0.6211(3)
H4 H 0.2677 0.6349 0.6378
C6 C 0.2112(8) 0.5114(8) 0.5723(3)
H5 H 0.2656 0.5664 0.5563
C7 C 0.1271(10) 0.3895(9) 0.5467(3)
H6 H 0.1267 0.3652 0.5137
C8 C 0.0452(9) 0.3047(9) 0.5684(3)
H7 H -0.0122 0.2246 0.5509
C9 C 0.4733(6) 0.2699(6) 0.7546(2)
C10 C 0.4121(6) 0.1975(6) 0.7920(2)
C11 C 0.2993(7) 0.1788(7) 0.8471(2)
C12 C 0.2171(7) 0.1964(7) 0.8793(3)
H8 H 0.1568 0.2801 0.8763
C13 C 0.2266(8) 0.0895(8) 0.9153(3)
H9 H 0.1736 0.1019 0.9377
C14 C 0.3139(8) -0.0402(8) 0.9200(3)
H10 H 0.3182 -0.1112 0.9454
C15 C 0.3924(7) -0.0624(7) 0.8874(3)
H11 H 0.4494 -0.1484 0.8898
C16 C 0.3838(6) 0.0480(7) 0.8507(2)
C17 C 0.3299(6) 0.5553(6) 0.9057(2)
C18 C 0.4776(6) 0.5232(6) 0.9029(2)
C19 C 0.7096(6) 0.4666(7) 0.9235(2)
C20 C 0.8550(6) 0.4264(7) 0.9469(2)
H12 H 0.8936 0.4082 0.9822
C21 C 0.9395(7) 0.4145(7) 0.9159(3)
H13 H 1.0380 0.3889 0.9307
C22 C 0.8826(6) 0.4396(8) 0.8631(2)
H14 H 0.9434 0.4288 0.8433
C23 C 0.7382(6) 0.4799(7) 0.8393(2)
H15 H 0.7006 0.4976 0.8039
C24 C 0.6502(6) 0.4934(6) 0.8705(2)
Er1A Er -0.27051(3) 0.04038(3) 0.718659(10)
Er1A_2 Er 0.72949(3) 0.04038(3) 0.718659(10)
O1A O 0.1290(4) 0.7542(4) 0.76537(15)
O3A O 0.4298(4) 0.7060(4) 0.75890(15)
loop_
_geom_bond_atom_site_label_1
_geom_bond_atom_site_label_2
_geom_bond_site_symmetry_1
_geom_bond_site_symmetry_2
Er1 O2 1_555 1_555
O1 C1 1_555 1_555
O2 C1 1_555 1_555
O3 C9 1_555 1_555
O4 Er1 1_555 1_555
O5 C17 1_555 1_555
O6 Er1 1_555 1_555
N1 H1 1_555 1_555
N2 Er1 1_555 1_555
N3 Er1 1_555 1_555
N4 H2 1_555 1_555
N5 Er1 1_555 1_555
N6 H3 1_555 1_555
C1 C2 1_555 1_555
C2 N1 1_555 1_555
C3 N1 1_555 1_555
C4 N2 1_555 1_555
C5 C4 1_555 1_555
H4 C5 1_555 1_555
C6 C5 1_555 1_555
H5 C6 1_555 1_555
C7 C6 1_555 1_555
H6 C7 1_555 1_555
C8 C3 1_555 1_555
H7 C8 1_555 1_555
C9 O4 1_555 1_555
C10 N3 1_555 1_555
C11 N3 1_555 1_555
C12 C11 1_555 1_555
H8 C12 1_555 1_555
C13 C12 1_555 1_555
H9 C13 1_555 1_555
C14 C13 1_555 1_555
H10 C14 1_555 1_555
C15 C14 1_555 1_555
H11 C15 1_555 1_555
C16 N4 1_555 1_555
C17 O6 1_555 1_555
C18 N5 1_555 1_555
C19 N6 1_555 1_555
C20 C19 1_555 1_555
H12 C20 1_555 1_555
C21 C20 1_555 1_555
H13 C21 1_555 1_555
C22 C21 1_555 1_555
H14 C22 1_555 1_555
C23 C22 1_555 1_555
H15 C23 1_555 1_555
C24 N5 1_555 1_555
Er1A O1 1_555 1_555
Er1A_2 O3 1_555 1_555
O1A Er1 1_555 1_555
O3A Er1 1_555 1_555
N2 C2 1_555 1_555
N4 C10 1_555 1_555
N6 C18 1_555 1_555
C3 C4 1_555 1_555
C7 C8 1_555 1_555
C9 C10 1_555 1_555
C11 C16 1_555 1_555
C15 C16 1_555 1_555
C17 C18 1_555 1_555
C19 C24 1_555 1_555
C23 C24 1_555 1_555

#END
