
#######################################################################
#
#                 Cambridge Crystallographic Data Centre
#                                CCDC 
#
#######################################################################
#
# If this CIF has been generated from an entry in the Cambridge 
# Structural Database, then it will include bibliographic, chemical, 
# crystal, experimental, refinement or atomic coordinate data resulting 
# from the CCDC's data processing and validation procedures.
#
#######################################################################

data_NEXWUK
_symmetry_cell_setting           monoclinic
_symmetry_space_group_name_H-M   'P 21/c'
_symmetry_Int_Tables_number      14
_space_group_name_Hall           '-P 2ybc'
loop_
_symmetry_equiv_pos_site_id
_symmetry_equiv_pos_as_xyz
1 x,y,z
2 -x,1/2+y,1/2-z
3 -x,-y,-z
4 x,1/2-y,1/2+z
_cell_length_a                   9.7019(8)
_cell_length_b                   8.9091(7)
_cell_length_c                   27.5100(19)
_cell_angle_alpha                90
_cell_angle_beta                 109.513(2)
_cell_angle_gamma                90
_cell_volume                     2241.26
loop_
_atom_site_label
_atom_site_type_symbol
_atom_site_fract_x
_atom_site_fract_y
_atom_site_fract_z
Dy1 Dy 0.72943(2) 0.95474(2) 0.718602(8)
N1 N 0.8801(4) 1.0222(4) 0.80765(15)
N2 N 0.4966(4) 0.9674(4) 0.64152(14)
O1 O 0.5680(3) 0.7896(3) 0.74091(12)
O2 O 0.7654(3) 0.9242(3) 0.63781(11)
O3 O 0.9599(3) 1.0704(3) 0.72444(12)
N3 N 0.6804(4) 1.2242(4) 0.69059(15)
O4 O 0.8703(3) 0.7405(3) 0.73365(12)
O5 O 0.5812(3) 1.0976(3) 0.75973(12)
C1 C 0.9764(5) 1.1294(5) 0.80772(17)
C2 C 0.8638(5) 1.0354(5) 0.85619(17)
C3 C 0.5212(5) 0.9734(5) 0.59670(17)
C4 C 0.3499(5) 1.0047(5) 0.62907(18)
C5 C 0.6702(5) 0.9427(4) 0.59413(19)
C6 C 1.0262(4) 1.1497(5) 0.76223(17)
C7 C 0.6998(5) 1.3184(4) 0.65299(19)
C8 C 0.5890(5) 1.2977(4) 0.70814(17)
C9 C 0.5276(4) 1.2271(4) 0.74543(16)
N4 N 1.0175(4) 1.2123(4) 0.85032(15)
C10 C 0.7853(5) 0.9475(6) 0.8794(2)
C11 C 0.9478(5) 1.1547(5) 0.88268(19)
N5 N 0.4024(4) 1.0120(4) 0.55670(14)
C12 C 0.2623(5) 1.0177(5) 0.6604(2)
C13 C 0.2906(5) 1.0338(5) 0.57635(17)
O6 O 0.6874(3) 0.9365(4) 0.55156(12)
C14 C 0.7816(6) 1.2996(5) 0.6205(2)
C15 C 0.6178(5) 1.4498(5) 0.64970(19)
N6 N 0.5504(4) 1.4330(4) 0.68641(15)
H1 H 1.0764 1.2876 0.8566
H2 H 0.7324 0.8643 0.8628
C16 C 0.7892(7) 0.9889(7) 0.9278(2)
C17 C 0.9538(7) 1.1960(6) 0.9318(2)
H3 H 0.3973 1.0212 0.5250
H4 H 0.2995 0.9991 0.6957
C18 C 0.1184(5) 1.0593(6) 0.6365(2)
C19 C 0.1457(5) 1.0747(6) 0.5525(2)
C20 C 0.7734(7) 1.4094(6) 0.5849(2)
H5 H 0.8400 1.2152 0.6229
C21 C 0.6081(6) 1.5618(5) 0.6136(2)
H6 H 0.4943 1.4971 0.6939
H7 H 0.7349 0.9346 0.9440
C22 C 0.8730(8) 1.1107(7) 0.9535(2)
H8 H 1.0095 1.2769 0.9490
H9 H 0.0581 1.0700 0.6564
C23 C 0.0605(5) 1.0857(6) 0.5836(2)
H10 H 0.1080 1.0937 0.5173
H11 H 0.8275 1.3991 0.5628
C24 C 0.6854(7) 1.5375(6) 0.5807(2)
H12 H 0.5526 1.6480 0.6118
H13 H 0.8736 1.1344 0.9865
H14 H -0.0376 1.1112 0.5690
H15 H 0.6794 1.6075 0.5550
O4A O 1.1297(3) 1.2405(3) 0.76635(12)
O1A O 0.4320(3) 1.2896(3) 0.75909(12)
Dy1A Dy 1.27057(2) 1.45474(2) 0.781398(8)
Dy1A_2 Dy 0.27057(2) 1.45474(2) 0.781398(8)
loop_
_geom_bond_atom_site_label_1
_geom_bond_atom_site_label_2
_geom_bond_site_symmetry_1
_geom_bond_site_symmetry_2
Dy1 N1 1_555 1_555
N1 C1 1_555 1_555
N2 Dy1 1_555 1_555
O1 Dy1 1_555 1_555
O2 Dy1 1_555 1_555
O3 Dy1 1_555 1_555
N3 Dy1 1_555 1_555
O4 Dy1 1_555 1_555
O5 Dy1 1_555 1_555
C1 C6 1_555 1_555
C2 N1 1_555 1_555
C3 N2 1_555 1_555
C4 N2 1_555 1_555
C5 O2 1_555 1_555
C6 O3 1_555 1_555
C7 N3 1_555 1_555
C8 N3 1_555 1_555
C9 O5 1_555 1_555
N4 C1 1_555 1_555
C10 C2 1_555 1_555
C11 C2 1_555 1_555
N5 C3 1_555 1_555
C12 C4 1_555 1_555
C13 C4 1_555 1_555
O6 C5 1_555 1_555
C14 C7 1_555 1_555
C15 C7 1_555 1_555
N6 C8 1_555 1_555
H1 N4 1_555 1_555
H2 C10 1_555 1_555
C16 C10 1_555 1_555
C17 C11 1_555 1_555
H3 N5 1_555 1_555
H4 C12 1_555 1_555
C18 C12 1_555 1_555
C19 C13 1_555 1_555
C20 C14 1_555 1_555
H5 C14 1_555 1_555
C21 C15 1_555 1_555
H6 N6 1_555 1_555
H7 C16 1_555 1_555
C22 C16 1_555 1_555
H8 C17 1_555 1_555
H9 C18 1_555 1_555
C23 C18 1_555 1_555
H10 C19 1_555 1_555
H11 C20 1_555 1_555
C24 C20 1_555 1_555
H12 C21 1_555 1_555
H13 C22 1_555 1_555
H14 C23 1_555 1_555
H15 C24 1_555 1_555
O4A C6 1_555 1_555
O1A C9 1_555 1_555
Dy1A O4A 1_555 1_555
Dy1A_2 O1A 1_555 1_555
C3 C5 1_555 1_555
C8 C9 1_555 1_555
N4 C11 1_555 1_555
N5 C13 1_555 1_555
C15 N6 1_555 1_555
C17 C22 1_555 1_555
C19 C23 1_555 1_555
C21 C24 1_555 1_555

#END
