
#######################################################################
#
#                 Cambridge Crystallographic Data Centre
#                                CCDC 
#
#######################################################################
#
# If this CIF has been generated from an entry in the Cambridge 
# Structural Database, then it will include bibliographic, chemical, 
# crystal, experimental, refinement or atomic coordinate data resulting 
# from the CCDC's data processing and validation procedures.
#
#######################################################################

data_NEXWOE
_symmetry_cell_setting           monoclinic
_symmetry_space_group_name_H-M   'P 21/c'
_symmetry_Int_Tables_number      14
_space_group_name_Hall           '-P 2ybc'
loop_
_symmetry_equiv_pos_site_id
_symmetry_equiv_pos_as_xyz
1 x,y,z
2 -x,1/2+y,1/2-z
3 -x,-y,-z
4 x,1/2-y,1/2+z
_cell_length_a                   9.6861(8)
_cell_length_b                   8.8868(7)
_cell_length_c                   27.5009(19)
_cell_angle_alpha                90
_cell_angle_beta                 109.515(3)
_cell_angle_gamma                90
_cell_volume                     2231.25
loop_
_atom_site_label
_atom_site_type_symbol
_atom_site_fract_x
_atom_site_fract_y
_atom_site_fract_z
Y1 Y 0.77041(4) 0.54218(4) 0.281351(15)
N1 N 0.6198(4) 0.4757(4) 0.19241(13)
N2 N 1.0029(3) 0.5308(4) 0.35841(12)
O1 O 0.5408(3) 0.4258(3) 0.27588(10)
O2 O 0.7343(3) 0.5742(3) 0.36144(10)
O3 O 0.9308(3) 0.7074(3) 0.25897(11)
N3 N 0.8208(4) 0.2737(4) 0.30988(13)
O4 O 0.6288(3) 0.7554(3) 0.26595(11)
O5 O 0.9196(3) 0.3989(3) 0.24067(10)
C1 C 0.5232(4) 0.3671(5) 0.19242(15)
C2 C 0.6347(5) 0.4630(5) 0.14405(16)
C3 C 0.9787(4) 0.5253(4) 0.40287(15)
C4 C 1.1510(5) 0.4936(4) 0.37080(16)
C5 C 0.4743(4) 0.3465(4) 0.23768(16)
C6 C 0.8292(5) 0.5560(4) 0.40567(17)
C7 C 0.8003(4) 0.1785(4) 0.34723(16)
C8 C 0.9122(4) 0.1990(4) 0.29199(15)
C9 C 0.9725(4) 0.2697(4) 0.25440(15)
N4 N 0.4819(4) 0.2862(4) 0.14922(13)
C10 C 0.5520(5) 0.3434(5) 0.11730(16)
C11 C 0.7156(5) 0.5516(5) 0.12074(18)
N5 N 1.0973(4) 0.4876(4) 0.44306(13)
C12 C 1.2100(4) 0.4660(5) 0.42359(16)
C13 C 1.2382(5) 0.4809(5) 0.33965(17)
O6 O 0.8118(3) 0.5623(3) 0.44803(11)
C14 C 0.8833(5) 0.0480(5) 0.35054(16)
C15 C 0.7183(5) 0.1982(5) 0.37970(18)
N6 N 0.9503(4) 0.0636(4) 0.31408(13)
H1 H 0.4220 0.2115 0.1425
C16 C 0.5453(7) 0.3043(6) 0.0683(2)
C17 C 0.7098(6) 0.5121(6) 0.0720(2)
H2 H 0.7707 0.6334 0.1377
H3 H 1.1020 0.4787 0.4747
C18 C 1.3551(5) 0.4258(5) 0.44734(18)
H4 H 1.2005 0.4992 0.3044
C19 C 1.3816(5) 0.4405(5) 0.36308(18)
C20 C 0.8927(6) -0.0637(5) 0.38732(19)
H5 H 0.6592 0.2824 0.3772
C21 C 0.7282(6) 0.0883(6) 0.4156(2)
H6 H 1.0062 -0.0012 0.3067
H7 H 0.4886 0.2239 0.0509
C22 C 0.6271(7) 0.3905(7) 0.0464(2)
H8 H 0.7624 0.5682 0.0556
C23 C 1.4407(5) 0.4140(5) 0.41627(19)
H9 H 1.3931 0.4076 0.4826
H10 H 1.4417 0.4304 0.3430
H11 H 0.9492 -0.1498 0.3896
C24 C 0.8143(6) -0.0396(6) 0.4197(2)
H12 H 0.6754 0.0994 0.4380
H13 H 0.6270 0.3666 0.0135
H14 H 1.5390 0.3881 0.4308
H15 H 0.8185 -0.1103 0.4450
O4A O 0.3712(3) 0.2554(3) 0.23405(11)
O3A O 1.0692(3) 0.2074(3) 0.24103(11)
Y1A Y 0.22959(4) 0.04218(4) 0.218649(15)
Y1A_2 Y 1.22959(4) 0.04218(4) 0.218649(15)
loop_
_geom_bond_atom_site_label_1
_geom_bond_atom_site_label_2
_geom_bond_site_symmetry_1
_geom_bond_site_symmetry_2
Y1 N1 1_555 1_555
N1 C1 1_555 1_555
N2 Y1 1_555 1_555
O1 Y1 1_555 1_555
O2 Y1 1_555 1_555
O3 Y1 1_555 1_555
N3 Y1 1_555 1_555
O4 Y1 1_555 1_555
O5 Y1 1_555 1_555
C1 C5 1_555 1_555
C2 N1 1_555 1_555
C3 N2 1_555 1_555
C4 N2 1_555 1_555
C5 O1 1_555 1_555
C6 O2 1_555 1_555
C7 N3 1_555 1_555
C8 N3 1_555 1_555
C9 O5 1_555 1_555
N4 C1 1_555 1_555
C10 C2 1_555 1_555
C11 C2 1_555 1_555
N5 C3 1_555 1_555
C12 C4 1_555 1_555
C13 C4 1_555 1_555
O6 C6 1_555 1_555
C14 C7 1_555 1_555
C15 C7 1_555 1_555
N6 C8 1_555 1_555
H1 N4 1_555 1_555
C16 C10 1_555 1_555
C17 C11 1_555 1_555
H2 C11 1_555 1_555
H3 N5 1_555 1_555
C18 C12 1_555 1_555
H4 C13 1_555 1_555
C19 C13 1_555 1_555
C20 C14 1_555 1_555
H5 C15 1_555 1_555
C21 C15 1_555 1_555
H6 N6 1_555 1_555
H7 C16 1_555 1_555
C22 C16 1_555 1_555
H8 C17 1_555 1_555
C23 C18 1_555 1_555
H9 C18 1_555 1_555
H10 C19 1_555 1_555
H11 C20 1_555 1_555
C24 C20 1_555 1_555
H12 C21 1_555 1_555
H13 C22 1_555 1_555
H14 C23 1_555 1_555
H15 C24 1_555 1_555
O4A C5 1_555 1_555
O3A C9 1_555 1_555
Y1A O4A 1_555 1_555
Y1A_2 O3A 1_555 1_555
C3 C6 1_555 1_555
C8 C9 1_555 1_555
N4 C10 1_555 1_555
N5 C12 1_555 1_555
C14 N6 1_555 1_555
C17 C22 1_555 1_555
C19 C23 1_555 1_555
C21 C24 1_555 1_555

#END
