
#######################################################################
#
#                 Cambridge Crystallographic Data Centre
#                                CCDC 
#
#######################################################################
#
# If this CIF has been generated from an entry in the Cambridge 
# Structural Database, then it will include bibliographic, chemical, 
# crystal, experimental, refinement or atomic coordinate data resulting 
# from the CCDC's data processing and validation procedures.
#
#######################################################################

data_NEXXEV
_symmetry_cell_setting           orthorhombic
_symmetry_space_group_name_H-M   'I b a 2'
_symmetry_Int_Tables_number      45
_space_group_name_Hall           'I 2 -2c'
loop_
_symmetry_equiv_pos_site_id
_symmetry_equiv_pos_as_xyz
1 x,y,z
2 -x,-y,z
3 -x,y,1/2+z
4 x,-y,1/2+z
5 1/2+x,1/2+y,1/2+z
6 1/2-x,1/2-y,1/2+z
7 1/2-x,1/2+y,z
8 1/2+x,1/2-y,z
_cell_length_a                   28.643(6)
_cell_length_b                   28.661(6)
_cell_length_c                   12.915(3)
_cell_angle_alpha                90
_cell_angle_beta                 90
_cell_angle_gamma                90
_cell_volume                     10602.4
loop_
_atom_site_label
_atom_site_type_symbol
_atom_site_fract_x
_atom_site_fract_y
_atom_site_fract_z
O13 O 0.6791(6) 0.1307(10) 0.329(2)
O14 O 0.6399(11) 0.1171(13) 0.2131(17)
N4 N 0.6320(4) 0.1295(5) 0.3072(12)
C37 C 0.6072(4) 0.1192(5) 0.3904(12)
C38 C 0.6247(4) 0.1017(5) 0.4830(12)
H22 H 0.6574 0.0978 0.4916
C39 C 0.5945(4) 0.0901(5) 0.5630(12)
H23 H 0.6064 0.0782 0.6263
C40 C 0.5466(4) 0.0959(5) 0.5504(12)
H24 H 0.5259 0.0880 0.6051
C41 C 0.5291(4) 0.1134(5) 0.4579(12)
H25 H 0.4964 0.1173 0.4493
C42 C 0.5593(4) 0.1250(5) 0.3779(12)
H26 H 0.5474 0.1369 0.3146
O15 O 0.3831(12) 0.2028(11) 0.343(2)
O16 O 0.3476(6) 0.1790(6) 0.4714(14)
N5 N 0.3815(5) 0.1698(5) 0.4125(13)
C43 C 0.4106(5) 0.1336(5) 0.4144(13)
C44 C 0.4440(5) 0.1313(5) 0.3364(13)
H27 H 0.4438 0.1535 0.2819
C45 C 0.4777(5) 0.0965(5) 0.3383(13)
H28 H 0.5005 0.0949 0.2851
C46 C 0.4781(5) 0.0639(5) 0.4182(13)
H29 H 0.5011 0.0401 0.4195
C47 C 0.4447(5) 0.0663(5) 0.4961(13)
H30 H 0.4449 0.0441 0.5507
C48 C 0.4110(5) 0.1011(5) 0.4942(13)
H31 H 0.3881 0.1027 0.5475
Li1 Li 0.27885(19) -0.2829(2) 0.8019(5)
Li2 Li 0.2658(2) 0.21665(19) 0.4547(5)
Li3 Li 0.2833(2) 0.23887(19) 0.6509(5)
Li4 Li 0.3423(6) 0.3518(5) 0.3016(13)
O1 O 0.3940(4) 0.3659(4) 0.2138(8)
O2 O 0.3449(6) 0.4059(5) 0.3923(16)
O3 O 0.31405(8) 0.25479(9) 0.5209(2)
O4 O 0.33663(9) 0.29439(11) 0.3821(2)
O5 O 0.72697(8) 0.23520(8) 0.3975(2)
O6 O 0.67787(10) 0.22317(13) 0.2648(2)
N1 N 0.53133(14) 0.2716(5) 0.6232(4)
C1 C 0.34492(11) 0.27571(13) 0.4687(3)
C2 C 0.39344(13) 0.27727(19) 0.5108(3)
C3 C 0.40521(16) 0.2473(3) 0.5906(4)
H1 H 0.3815 0.2287 0.6214
C4 C 0.45135(19) 0.2436(4) 0.6274(5)
H2 H 0.4590 0.2222 0.6809
C5 C 0.48470(17) 0.2715(4) 0.5847(4)
C6 C 0.47277(15) 0.3040(3) 0.5070(4)
H3 H 0.4961 0.3241 0.4798
C7 C 0.42710(15) 0.3070(2) 0.4696(4)
H4 H 0.4192 0.3289 0.4172
C8 C 0.68617(12) 0.23250(13) 0.3579(3)
C9 C 0.64614(12) 0.24213(18) 0.4286(3)
C10 C 0.65166(12) 0.2528(2) 0.5332(3)
H5 H 0.6823 0.2531 0.5616
C11 C 0.61446(16) 0.2629(3) 0.5972(4)
H6 H 0.6198 0.2708 0.6676
C12 C 0.56848(15) 0.2615(4) 0.5582(4)
C13 C 0.56277(16) 0.2494(4) 0.4536(4)
H7 H 0.5322 0.2472 0.4256
C14 C 0.60033(14) 0.2407(3) 0.3916(3)
H8 H 0.5952 0.2334 0.3207
C15 C 0.5390(2) 0.2749(9) 0.7335(6)
O7 O 0.26932(8) -0.22917(8) 0.70762(19)
O8 O 0.28901(13) -0.18224(9) 0.8390(2)
O9 O 0.25455(10) 0.18522(8) 0.5835(2)
O10 O 0.21775(13) 0.15804(9) 0.7224(2)
N2 N 0.2629(5) -0.03158(15) 0.4769(4)
C16 C 0.27784(14) -0.18972(11) 0.7452(3)
C17 C 0.27619(18) -0.14825(12) 0.6750(3)
C18 C 0.2857(3) -0.10407(15) 0.7117(4)
H9 H 0.2962 -0.1000 0.7809
C19 C 0.2800(5) -0.06496(16) 0.6467(4)
H10 H 0.2849 -0.0345 0.6739
C20 C 0.2674(4) -0.07029(16) 0.5438(4)
C21 C 0.2600(3) -0.11523(15) 0.5066(3)
H11 H 0.2527 -0.1196 0.4354
C22 C 0.2629(2) -0.15380(12) 0.5709(3)
H12 H 0.2560 -0.1840 0.5447
C23 C 0.23761(17) 0.15244(12) 0.6362(3)
C24 C 0.2419(3) 0.10437(13) 0.5931(3)
C25 C 0.2737(3) 0.09529(16) 0.5131(4)
H13 H 0.2911 0.1202 0.4840
C26 C 0.2799(5) 0.05076(18) 0.4763(5)
H14 H 0.3015 0.0456 0.4217
C27 C 0.2555(5) 0.01332(15) 0.5168(4)
C28 C 0.2255(4) 0.02121(18) 0.5968(5)
H15 H 0.2093 -0.0043 0.6272
C29 C 0.2182(3) 0.06661(16) 0.6351(4)
H16 H 0.1969 0.0715 0.6904
C30 C 0.2686(8) -0.0377(2) 0.3666(5)
O11 O 0.1817(10) 0.1921(9) 0.2315(19)
O12 O 0.2198(9) 0.1709(13) 0.354(3)
N3 N 0.1823(6) 0.1648(5) 0.3064(15)
C31 C 0.1415(6) 0.1260(5) 0.3171(15)
C32 C 0.1351(6) 0.1001(5) 0.4070(15)
H17 H 0.1552 0.1047 0.4645
C33 C 0.0992(6) 0.0676(5) 0.4127(15)
H18 H 0.0948 0.0499 0.4741
C34 C 0.0697(6) 0.0609(5) 0.3285(15)
H19 H 0.0452 0.0387 0.3324
C35 C 0.0761(6) 0.0868(5) 0.2386(15)
H20 H 0.0560 0.0822 0.1810
C36 C 0.1120(6) 0.1193(5) 0.2329(15)
H21 H 0.1164 0.1370 0.1714
Li1C Li 0.27885(19) 0.2829(2) 0.3019(5)
Li1D Li 0.77885(19) 0.2171(2) 0.3019(5)
Li1F Li 0.22115(19) 0.2171(2) 0.8019(5)
Li2C Li 0.2658(2) -0.21665(19) 0.9547(5)
Li2G Li 0.7658(2) 0.28335(19) 0.4547(5)
Li3B Li 0.7167(2) 0.23887(19) 0.1509(5)
Li3E Li 0.2167(2) 0.26113(19) 0.1509(5)
Li3F Li 0.2167(2) -0.26113(19) 0.6509(5)
Li4E Li 0.1577(6) 0.1482(5) 0.8016(13)
O4C O 0.33663(9) -0.29439(11) 0.8821(2)
O5D O 0.22697(8) -0.26480(8) 0.8975(2)
O5G O 0.22697(8) 0.26480(8) 0.3975(2)
O6B O 0.32213(10) 0.22317(13) 0.7648(2)
O7F O 0.23068(8) 0.27083(8) 0.70762(19)
O8C O 0.28901(13) 0.18224(9) 0.3390(2)
O10E O 0.28225(13) 0.34196(9) 0.2224(2)
O10F O 0.28225(13) -0.34196(9) 0.7224(2)
O11E O 0.3183(10) 0.3079(9) 0.7315(19)
loop_
_geom_bond_atom_site_label_1
_geom_bond_atom_site_label_2
_geom_bond_site_symmetry_1
_geom_bond_site_symmetry_2
Li1 O7 1_555 1_555
Li2 O3 1_555 1_555
Li3 O3 1_555 1_555
Li4 O1 1_555 1_555
O2 Li4 1_555 1_555
O3 C1 1_555 1_555
O4 Li4 1_555 1_555
O5 C8 1_555 1_555
O6 C8 1_555 1_555
N1 C5 1_555 1_555
C1 O4 1_555 1_555
C2 C1 1_555 1_555
C3 C2 1_555 1_555
H1 C3 1_555 1_555
C4 C3 1_555 1_555
H2 C4 1_555 1_555
C5 C4 1_555 1_555
C6 C5 1_555 1_555
H3 C6 1_555 1_555
C7 C2 1_555 1_555
H4 C7 1_555 1_555
C8 C9 1_555 1_555
C9 C10 1_555 1_555
C10 H5 1_555 1_555
C11 C10 1_555 1_555
H6 C11 1_555 1_555
C12 N1 1_555 1_555
C13 C12 1_555 1_555
H7 C13 1_555 1_555
C14 C9 1_555 1_555
H8 C14 1_555 1_555
C15 N1 1_555 1_555
O7 C16 1_555 1_555
O8 C16 1_555 1_555
O9 Li2 1_555 1_555
O10 C23 1_555 1_555
N2 C20 1_555 1_555
C16 C17 1_555 1_555
C17 C18 1_555 1_555
C18 H9 1_555 1_555
C19 C18 1_555 1_555
H10 C19 1_555 1_555
C20 C19 1_555 1_555
C21 C20 1_555 1_555
H11 C21 1_555 1_555
C22 C17 1_555 1_555
H12 C22 1_555 1_555
C23 O9 1_555 1_555
C24 C23 1_555 1_555
C25 C24 1_555 1_555
H13 C25 1_555 1_555
C26 C25 1_555 1_555
H14 C26 1_555 1_555
C27 N2 1_555 1_555
C28 C27 1_555 1_555
H15 C28 1_555 1_555
C29 C24 1_555 1_555
H16 C29 1_555 1_555
C30 N2 1_555 1_555
O11 N3 1_555 1_555
O12 Li2 1_555 1_555
N3 O12 1_555 1_555
C31 N3 1_555 1_555
C32 C31 1_555 1_555
H17 C32 1_555 1_555
C33 C32 1_555 1_555
H18 C33 1_555 1_555
C34 C33 1_555 1_555
H19 C34 1_555 1_555
C35 C34 1_555 1_555
H20 C35 1_555 1_555
C36 C31 1_555 1_555
H21 C36 1_555 1_555
O13 N4 1_555 1_555
O14 N4 1_555 1_555
N4 C37 1_555 1_555
C37 C38 1_555 1_555
C38 H22 1_555 1_555
C39 C38 1_555 1_555
H23 C39 1_555 1_555
C40 C39 1_555 1_555
H24 C40 1_555 1_555
C41 C40 1_555 1_555
H25 C41 1_555 1_555
C42 C37 1_555 1_555
H26 C42 1_555 1_555
O15 N5 1_555 1_555
O16 N5 1_555 1_555
N5 C43 1_555 1_555
C43 C44 1_555 1_555
C44 H27 1_555 1_555
C45 C44 1_555 1_555
H28 C45 1_555 1_555
C46 C45 1_555 1_555
H29 C46 1_555 1_555
C47 C46 1_555 1_555
H30 C47 1_555 1_555
C48 C43 1_555 1_555
H31 C48 1_555 1_555
Li1C O4 1_555 1_555
Li1D O5 1_555 1_555
Li1F O10 1_555 1_555
Li2C O8 1_555 1_555
Li2G O5 1_555 1_555
Li3B O6 1_555 1_555
Li3E O11 1_555 1_555
Li3F O7 1_555 1_555
Li4E O10 1_555 1_555
O4C Li1 1_555 1_555
O5D Li1 1_555 1_555
O5G Li2 1_555 1_555
O6B Li3 1_555 1_555
O7F Li3 1_555 1_555
O8C Li2 1_555 1_555
O10E Li4 1_555 1_555
O10F Li1 1_555 1_555
O11E Li3 1_555 1_555
Li3 O9 1_555 1_555
C6 C7 1_555 1_555
C11 C12 1_555 1_555
C13 C14 1_555 1_555
C21 C22 1_555 1_555
C26 C27 1_555 1_555
C28 C29 1_555 1_555
C35 C36 1_555 1_555
C41 C42 1_555 1_555
C47 C48 1_555 1_555
Li1C O5G 1_555 1_555
Li1C O10E 1_555 1_555
Li1F O7F 1_555 1_555
Li2C O5D 1_555 1_555

#END
