
#######################################################################
#
#                 Cambridge Crystallographic Data Centre
#                                CCDC 
#
#######################################################################
#
# If this CIF has been generated from an entry in the Cambridge 
# Structural Database, then it will include bibliographic, chemical, 
# crystal, experimental, refinement or atomic coordinate data resulting 
# from the CCDC's data processing and validation procedures.
#
#######################################################################

data_NEXXAR
_symmetry_cell_setting           monoclinic
_symmetry_space_group_name_H-M   'P 21/c'
_symmetry_Int_Tables_number      14
_space_group_name_Hall           '-P 2ybc'
loop_
_symmetry_equiv_pos_site_id
_symmetry_equiv_pos_as_xyz
1 x,y,z
2 -x,1/2+y,1/2-z
3 -x,-y,-z
4 x,1/2-y,1/2+z
_cell_length_a                   9.8890(7)
_cell_length_b                   9.1115(6)
_cell_length_c                   27.7261(16)
_cell_angle_alpha                90
_cell_angle_beta                 109.622(2)
_cell_angle_gamma                90
_cell_volume                     2353.15
loop_
_atom_site_label
_atom_site_type_symbol
_atom_site_fract_x
_atom_site_fract_y
_atom_site_fract_z
Ce1 Ce 0.72976(2) -0.07224(2) 0.218873(7)
C1 C 1.0316(4) 0.1180(4) 0.26477(14)
C2 C 0.9803(4) 0.1051(4) 0.30981(14)
C3 C 0.9523(4) 0.1445(5) 0.38366(15)
C4 C 0.9569(6) 0.1925(6) 0.43167(18)
H1 H 1.0135 0.2713 0.4480
C5 C 0.8725(7) 0.1160(7) 0.4535(2)
H2 H 0.8696 0.1467 0.4851
C6 C 0.7910(6) -0.0056(7) 0.4303(2)
H3 H 0.7378 -0.0551 0.4472
C7 C 0.7877(5) -0.0536(5) 0.38285(17)
H4 H 0.7336 -0.1348 0.3673
C8 C 0.8691(4) 0.0248(5) 0.35914(15)
C9 C 0.5345(4) 0.2053(4) 0.24638(14)
C10 C 0.5934(4) 0.2761(4) 0.20932(14)
C11 C 0.6997(4) 0.3022(4) 0.15395(15)
C12 C 0.7792(5) 0.2860(5) 0.12081(17)
H5 H 0.8359 0.2036 0.1222
C13 C 0.7699(6) 0.3960(5) 0.08658(19)
H6 H 0.8217 0.3876 0.0642
C14 C 0.6851(6) 0.5216(5) 0.08368(18)
H7 H 0.6802 0.5928 0.0591
C15 C 0.6092(5) 0.5405(5) 0.11674(17)
H8 H 0.5541 0.6239 0.1156
C16 C 0.6188(4) 0.4294(4) 0.15167(15)
C17 C 0.6639(4) -0.0718(4) 0.09084(15)
C18 C 0.5183(4) -0.0394(4) 0.09489(14)
C19 C 0.3503(4) -0.0083(4) 0.12717(14)
C20 C 0.2647(4) 0.0026(5) 0.15817(16)
H9 H 0.3009 -0.0200 0.1929
C21 C 0.1250(4) 0.0479(5) 0.13550(17)
H10 H 0.0665 0.0567 0.1555
C22 C 0.0686(4) 0.0809(5) 0.08357(17)
H11 H -0.0267 0.1103 0.0697
C23 C 0.1514(4) 0.0711(5) 0.05199(16)
H12 H 0.1143 0.0933 0.0173
C24 C 0.2928(4) 0.0261(5) 0.07511(15)
N1 N 0.4934(3) -0.0492(3) 0.13863(11)
N2 N 0.4025(3) 0.0047(4) 0.05549(12)
H13 H 0.3979 0.0170 0.0242
N3 N 0.6823(3) 0.2065(3) 0.19078(12)
N4 N 0.5536(3) 0.4096(3) 0.18815(12)
H14 H 0.4980 0.4709 0.1959
N5 N 0.8867(3) 0.0026(4) 0.31201(12)
N6 N 1.0213(4) 0.1927(4) 0.35112(12)
H15 H 1.0798 0.2655 0.3562
O1 O 0.7587(3) -0.0966(3) 0.13398(9)
O2 O 0.6784(3) -0.0720(3) 0.04856(10)
O3 O 0.5837(3) 0.0792(3) 0.26070(10)
O4 O 0.4410(3) 0.2691(3) 0.25961(10)
O5 O 1.1317(3) 0.2067(3) 0.26826(10)
O6 O 0.9683(3) 0.0376(3) 0.22771(10)
Ce1A Ce 0.27024(2) 0.42776(2) 0.281127(7)
Ce1A_2 Ce 1.27024(2) 0.42776(2) 0.281127(7)
O4A O 0.5590(3) -0.2309(3) 0.24039(10)
O5A O 0.8683(3) -0.2933(3) 0.23174(10)
loop_
_geom_bond_atom_site_label_1
_geom_bond_atom_site_label_2
_geom_bond_site_symmetry_1
_geom_bond_site_symmetry_2
Ce1 N1 1_555 1_555
C1 C2 1_555 1_555
C2 N5 1_555 1_555
C3 C4 1_555 1_555
C4 H1 1_555 1_555
C5 C4 1_555 1_555
H2 C5 1_555 1_555
C6 C5 1_555 1_555
H3 C6 1_555 1_555
C7 C6 1_555 1_555
H4 C7 1_555 1_555
C8 C3 1_555 1_555
C9 C10 1_555 1_555
C10 N3 1_555 1_555
C11 C12 1_555 1_555
C12 H5 1_555 1_555
C13 C12 1_555 1_555
H6 C13 1_555 1_555
C14 C13 1_555 1_555
H7 C14 1_555 1_555
C15 C14 1_555 1_555
H8 C15 1_555 1_555
C16 C11 1_555 1_555
C17 C18 1_555 1_555
C18 N1 1_555 1_555
C19 C20 1_555 1_555
C20 H9 1_555 1_555
C21 C20 1_555 1_555
H10 C21 1_555 1_555
C22 C21 1_555 1_555
H11 C22 1_555 1_555
C23 C22 1_555 1_555
H12 C23 1_555 1_555
C24 C19 1_555 1_555
N1 C19 1_555 1_555
N2 C18 1_555 1_555
H13 N2 1_555 1_555
N3 Ce1 1_555 1_555
N4 C10 1_555 1_555
H14 N4 1_555 1_555
N5 Ce1 1_555 1_555
N6 C2 1_555 1_555
H15 N6 1_555 1_555
O1 Ce1 1_555 1_555
O2 C17 1_555 1_555
O3 Ce1 1_555 1_555
O4 C9 1_555 1_555
O5 C1 1_555 1_555
O6 Ce1 1_555 1_555
Ce1A O4 1_555 1_555
Ce1A_2 O5 1_555 1_555
O4A Ce1 1_555 1_555
O5A Ce1 1_555 1_555
C1 O6 1_555 1_555
C3 N6 1_555 1_555
C7 C8 1_555 1_555
C8 N5 1_555 1_555
C9 O3 1_555 1_555
C11 N3 1_555 1_555
C15 C16 1_555 1_555
C16 N4 1_555 1_555
C17 O1 1_555 1_555
C23 C24 1_555 1_555
C24 N2 1_555 1_555

#END
