
#######################################################################
#
#                 Cambridge Crystallographic Data Centre
#                                CCDC 
#
#######################################################################
#
# If this CIF has been generated from an entry in the Cambridge 
# Structural Database, then it will include bibliographic, chemical, 
# crystal, experimental, refinement or atomic coordinate data resulting 
# from the CCDC's data processing and validation procedures.
#
#######################################################################

data_NEXXIZ
_symmetry_cell_setting           orthorhombic
_symmetry_space_group_name_H-M   'I b a 2'
_symmetry_Int_Tables_number      45
_space_group_name_Hall           'I 2 -2c'
loop_
_symmetry_equiv_pos_site_id
_symmetry_equiv_pos_as_xyz
1 x,y,z
2 -x,-y,z
3 -x,y,1/2+z
4 x,-y,1/2+z
5 1/2+x,1/2+y,1/2+z
6 1/2-x,1/2-y,1/2+z
7 1/2-x,1/2+y,z
8 1/2+x,1/2-y,z
_cell_length_a                   28.467(6)
_cell_length_b                   28.594(6)
_cell_length_c                   12.960(3)
_cell_angle_alpha                90
_cell_angle_beta                 90
_cell_angle_gamma                90
_cell_volume                     10549.3
loop_
_atom_site_label
_atom_site_type_symbol
_atom_site_fract_x
_atom_site_fract_y
_atom_site_fract_z
Li1 Li 1.26735(14) 0.21850(12) 0.2654(3)
Li2 Li 0.78419(13) 0.26177(12) 0.0686(3)
Li3 Li 0.77847(13) 0.21516(12) 0.4172(3)
Li4 Li 0.8369(3) -0.1418(2) -0.0887(6)
O1 O 0.8345(2) -0.08525(14) -0.1617(3)
N1 N 0.8631(4) -0.0166(4) -0.2283(11)
C1 C 0.8521(3) -0.0605(3) -0.2289(6)
H1 H 0.8586 -0.0762 -0.2919
C2 C 0.8878(6) 0.0077(5) -0.3072(10)
C3 C 0.8506(9) 0.0102(5) -0.1147(10)
O2 O 0.89370(17) -0.1276(2) -0.0107(4)
N2 N 0.9575(2) -0.0841(3) 0.0298(8)
C4 C 0.9226(2) -0.1139(2) 0.0498(8)
H2 H 0.9203 -0.1254 0.1184
C5 C 0.9902(4) -0.0708(3) 0.1026(9)
H3 H 0.9966 -0.0970 0.1491
H4 H 0.9780 -0.0443 0.1425
H5 H 1.0194 -0.0614 0.0680
C6 C 0.9582(6) -0.0554(8) -0.0806(9)
H6 H 0.9902 -0.0552 -0.1085
H7 H 0.9477 -0.0232 -0.0693
H8 H 0.9371 -0.0708 -0.1298
O3 O 1.22692(5) 0.26569(5) 0.32404(11)
O4 O 1.17698(6) 0.27767(6) 0.45366(11)
O5 O 0.81457(5) 0.24356(6) 0.19728(11)
O6 O 0.83538(5) 0.20153(6) 0.33477(12)
N3 N 1.03227(8) 0.21726(17) 0.09848(18)
C7 C 1.18572(7) 0.26755(7) 0.36117(15)
C8 C 1.14539(7) 0.25651(9) 0.29098(16)
C9 C 1.15321(7) 0.24428(10) 0.18898(17)
H9 H 1.1844 0.2436 0.1629
C10 C 1.11577(9) 0.23297(14) 0.12411(17)
H10 H 1.1214 0.2265 0.0533
C11 C 1.06984(8) 0.23118(15) 0.16321(18)
C12 C 1.06214(8) 0.24489(15) 0.26472(19)
H11 H 1.0310 0.2466 0.2909
C13 C 1.09952(8) 0.25603(12) 0.32741(17)
H12 H 1.0938 0.2636 0.3976
C14 C 0.84394(7) 0.22074(8) 0.24962(16)
C15 C 0.89293(8) 0.21765(10) 0.20634(17)
C16 C 0.92613(8) 0.18724(12) 0.2505(2)
H13 H 0.9173 0.1671 0.3055
C17 C 0.97199(9) 0.18682(14) 0.2131(2)
H14 H 0.9942 0.1654 0.2407
C18 C 0.98538(9) 0.21775(17) 0.1352(2)
C19 C 0.95238(10) 0.24829(17) 0.0899(2)
H15 H 0.9612 0.2688 0.0357
C20 C 0.90671(9) 0.24749(13) 0.1267(2)
H16 H 0.8841 0.2679 0.0969
C21 C 1.03869(12) 0.2222(3) -0.0143(2)
H17 H 1.0084 0.2182 -0.0490
H18 H 1.0608 0.1984 -0.0389
H19 H 1.0512 0.2534 -0.0297
O7 O 0.73012(5) 0.23077(4) 0.01123(11)
O8 O 0.70894(7) 0.18380(6) -0.11865(12)
O9 O 0.78078(7) -0.15757(5) -0.00060(13)
O10 O 0.74446(6) -0.18460(5) 0.13843(11)
N4 N 0.7333(3) 0.03278(9) 0.2409(2)
C22 C 0.72053(8) 0.19102(7) -0.02629(15)
C23 C 0.72294(11) 0.14993(7) 0.04516(16)
C24 C 0.73721(11) 0.15504(7) 0.14644(16)
H20 H 0.7439 0.1854 0.1725
C25 C 0.74187(16) 0.11629(8) 0.21090(18)
H21 H 0.7527 0.1203 0.2797
C26 C 0.7308(2) 0.07195(10) 0.1750(2)
C27 C 0.7160(2) 0.06692(10) 0.0732(2)
H22 H 0.7084 0.0367 0.0476
C28 C 0.71215(19) 0.10565(9) 0.0084(2)
H23 H 0.7021 0.1017 -0.0610
C29 C 0.76153(8) -0.15206(7) 0.08573(16)
C30 C 0.75747(12) -0.10337(7) 0.12955(18)
C31 C 0.77824(19) -0.06561(10) 0.0824(3)
H24 H 0.7977 -0.0700 0.0236
C32 C 0.7706(3) -0.02072(11) 0.1216(3)
H25 H 0.7863 0.0049 0.0901
C33 C 0.7413(3) -0.01199(9) 0.2037(2)
C34 C 0.7211(2) -0.05016(10) 0.2516(2)
H26 H 0.7014 -0.0457 0.3098
C35 C 0.72975(15) -0.09516(9) 0.2149(2)
H27 H 0.7161 -0.1210 0.2498
C36 C 0.7168(5) 0.03840(13) 0.3491(3)
Li1A Li 0.73265(14) -0.21850(12) 0.2654(3)
Li1B Li 0.73265(14) 0.21850(12) -0.2346(3)
Li1G Li 0.76735(14) 0.28150(12) 0.2654(3)
Li2B Li 1.21581(13) 0.26177(12) 0.5686(3)
Li2F Li 0.71581(13) -0.23823(12) 0.0686(3)
Li3C Li 0.77847(13) -0.21516(12) -0.0828(3)
Li3E Li 0.72153(13) 0.28484(12) -0.0828(3)
Li3G Li 1.27847(13) 0.28484(12) 0.4172(3)
Li4C Li 0.8369(3) 0.1418(2) 0.4113(6)
O3G O 0.72692(5) 0.23431(5) 0.32404(11)
O4B O 0.82302(6) 0.27767(6) -0.04634(11)
O5G O 1.31457(5) 0.25644(6) 0.19728(11)
O6C O 0.83538(5) -0.20153(6) -0.16523(12)
O7E O 0.76988(5) 0.26923(4) 0.51123(11)
O8B O 1.29106(7) 0.18380(6) 0.38135(12)
O9C O 0.78078(7) 0.15757(5) 0.49940(13)
O10A O 1.25554(6) 0.18460(5) 0.13843(11)
O10F O 0.75554(6) 0.31540(5) 0.13843(11)
loop_
_geom_bond_atom_site_label_1
_geom_bond_atom_site_label_2
_geom_bond_site_symmetry_1
_geom_bond_site_symmetry_2
Li1 O3 1_555 1_555
Li2 O5 1_555 1_555
Li3 O6 1_555 1_555
Li4 O1 1_555 1_555
O1 C1 1_555 1_555
N1 C1 1_555 1_555
C1 H1 1_555 1_555
C2 N1 1_555 1_555
C3 N1 1_555 1_555
O2 Li4 1_555 1_555
N2 C4 1_555 1_555
C4 O2 1_555 1_555
H2 C4 1_555 1_555
C5 N2 1_555 1_555
H3 C5 1_555 1_555
H4 C5 1_555 1_555
H5 C5 1_555 1_555
C6 N2 1_555 1_555
H6 C6 1_555 1_555
H7 C6 1_555 1_555
H8 C6 1_555 1_555
O3 C7 1_555 1_555
O4 C7 1_555 1_555
O5 C14 1_555 1_555
O6 C14 1_555 1_555
N3 C11 1_555 1_555
C7 C8 1_555 1_555
C8 C9 1_555 1_555
C9 H9 1_555 1_555
C10 C9 1_555 1_555
H10 C10 1_555 1_555
C11 C10 1_555 1_555
C12 C11 1_555 1_555
H11 C12 1_555 1_555
C13 C8 1_555 1_555
H12 C13 1_555 1_555
C14 C15 1_555 1_555
C15 C16 1_555 1_555
C16 H13 1_555 1_555
C17 C16 1_555 1_555
H14 C17 1_555 1_555
C18 N3 1_555 1_555
C19 C18 1_555 1_555
H15 C19 1_555 1_555
C20 C15 1_555 1_555
H16 C20 1_555 1_555
C21 N3 1_555 1_555
H17 C21 1_555 1_555
H18 C21 1_555 1_555
H19 C21 1_555 1_555
O7 Li2 1_555 1_555
O8 C22 1_555 1_555
O9 Li4 1_555 1_555
O10 C29 1_555 1_555
N4 C26 1_555 1_555
C22 O7 1_555 1_555
C23 C22 1_555 1_555
C24 C23 1_555 1_555
H20 C24 1_555 1_555
C25 C24 1_555 1_555
H21 C25 1_555 1_555
C26 C25 1_555 1_555
C27 C26 1_555 1_555
H22 C27 1_555 1_555
C28 C23 1_555 1_555
H23 C28 1_555 1_555
C29 O9 1_555 1_555
C30 C29 1_555 1_555
C31 C30 1_555 1_555
H24 C31 1_555 1_555
C32 C31 1_555 1_555
H25 C32 1_555 1_555
C33 N4 1_555 1_555
C34 C33 1_555 1_555
H26 C34 1_555 1_555
C35 C30 1_555 1_555
H27 C35 1_555 1_555
C36 N4 1_555 1_555
Li1A O10 1_555 1_555
Li1B O8 1_555 1_555
Li1G O5 1_555 1_555
Li2B O4 1_555 1_555
Li2F O10 1_555 1_555
Li3C O9 1_555 1_555
Li3E O7 1_555 1_555
Li3G O3 1_555 1_555
Li4C O6 1_555 1_555
O3G Li3 1_555 1_555
O4B Li2 1_555 1_555
O5G Li1 1_555 1_555
O6C Li4 1_555 1_555
O7E Li3 1_555 1_555
O8B Li1 1_555 1_555
O9C Li3 1_555 1_555
O10A Li1 1_555 1_555
O10F Li2 1_555 1_555
C12 C13 1_555 1_555
C17 C18 1_555 1_555
C19 C20 1_555 1_555
C27 C28 1_555 1_555
C32 C33 1_555 1_555
C34 C35 1_555 1_555
Li1G O3G 1_555 1_555
Li1G O10F 1_555 1_555
Li3C O6C 1_555 1_555
Li4C O9C 1_555 1_555

#END
