
#######################################################################
#
#                 Cambridge Crystallographic Data Centre
#                                CCDC 
#
#######################################################################
#
# If this CIF has been generated from an entry in the Cambridge 
# Structural Database, then it will include bibliographic, chemical, 
# crystal, experimental, refinement or atomic coordinate data resulting 
# from the CCDC's data processing and validation procedures.
#
#######################################################################

data_NEXZOH
_symmetry_cell_setting           triclinic
_symmetry_space_group_name_H-M   'P -1'
_symmetry_Int_Tables_number      2
_space_group_name_Hall           '-P 1'
loop_
_symmetry_equiv_pos_site_id
_symmetry_equiv_pos_as_xyz
1 x,y,z
2 -x,-y,-z
_cell_length_a                   9.1806(8)
_cell_length_b                   9.5312(8)
_cell_length_c                   12.5430(11)
_cell_angle_alpha                92.127(7)
_cell_angle_beta                 100.877(7)
_cell_angle_gamma                112.885(6)
_cell_volume                     985.55
loop_
_atom_site_label
_atom_site_type_symbol
_atom_site_fract_x
_atom_site_fract_y
_atom_site_fract_z
Co1 Co 0.38208(4) 0.88755(4) 0.18870(3)
Co2 Co 0.13197(4) 0.65179(4) 0.33400(3)
N1 N 0.2499(3) 0.6478(2) 0.12170(18)
N2 N 0.1563(2) 0.5546(2) 0.18203(18)
C1 C 0.2739(4) 0.5857(4) 0.0337(2)
H1 H 0.3367 0.6507 -0.0089
C2 C 0.2103(4) 0.4293(4) 0.0022(3)
H2 H 0.2318 0.3896 -0.0589
C3 C 0.1158(4) 0.3360(3) 0.0633(3)
H3 H 0.0699 0.2299 0.0458
C4 C 0.0907(4) 0.4048(3) 0.1524(2)
H4 H 0.0238 0.3424 0.1941
N3 N 0.3902(2) 0.7201(2) 0.38928(17)
N4 N 0.4865(2) 0.8014(2) 0.32539(17)
C5 C 0.4546(3) 0.6791(3) 0.4797(2)
H5 H 0.3862 0.6220 0.5227
C6 C 0.6198(3) 0.7173(3) 0.5134(3)
H6 H 0.6624 0.6899 0.5787
C7 C 0.7170(3) 0.7964(3) 0.4472(3)
H7 H 0.8283 0.8230 0.4648
C8 C 0.6440(3) 0.8356(3) 0.3528(2)
H8 H 0.7088 0.8886 0.3065
N5 N -0.0866(3) 0.5533(2) 0.59656(19)
C9 C 0.0076(3) 0.6524(3) 0.5639(2)
S1 S 0.14086(8) 0.79339(7) 0.51716(6)
N6 N -0.1141(3) 0.5823(3) 0.2839(2)
C10 C -0.2543(3) 0.5265(3) 0.2620(2)
S2 S -0.45173(9) 0.44927(9) 0.22714(8)
N7 N 0.1895(3) 0.8618(2) 0.26583(18)
C11 C 0.1177(3) 0.9405(3) 0.2671(2)
S3 S 0.02077(11) 1.04722(11) 0.26896(8)
N8 N 0.4407(3) 1.0880(3) -0.1051(2)
C12 C 0.3593(3) 1.0536(3) -0.0432(2)
S4 S 0.24405(8) 1.00655(9) 0.04566(6)
O1 O 0.5205(3) 1.1091(2) 0.27698(19)
H9 H 0.6089 1.1279 0.3173
H10 H 0.5175 1.1861 0.2514
Co1A Co 0.61792(4) 1.11245(4) -0.18870(3)
Co2A Co -0.13197(4) 0.34821(4) 0.66600(3)
N5A N 0.0866(3) 0.4467(2) 0.40344(19)
N8A N 0.5593(3) 0.9120(3) 0.1051(2)
loop_
_geom_bond_atom_site_label_1
_geom_bond_atom_site_label_2
_geom_bond_site_symmetry_1
_geom_bond_site_symmetry_2
Co1 N1 1_555 1_555
Co2 N2 1_555 1_555
N1 N2 1_555 1_555
N2 C4 1_555 1_555
C1 N1 1_555 1_555
H1 C1 1_555 1_555
C2 C1 1_555 1_555
H2 C2 1_555 1_555
C3 C2 1_555 1_555
H3 C3 1_555 1_555
C4 C3 1_555 1_555
H4 C4 1_555 1_555
N3 Co2 1_555 1_555
N4 Co1 1_555 1_555
C5 N3 1_555 1_555
H5 C5 1_555 1_555
C6 C5 1_555 1_555
H6 C6 1_555 1_555
C7 C6 1_555 1_555
H7 C7 1_555 1_555
C8 N4 1_555 1_555
H8 C8 1_555 1_555
N5 C9 1_555 1_555
C9 S1 1_555 1_555
S1 Co2 1_555 1_555
N6 Co2 1_555 1_555
C10 N6 1_555 1_555
S2 C10 1_555 1_555
N7 Co1 1_555 1_555
C11 N7 1_555 1_555
S3 C11 1_555 1_555
N8 C12 1_555 1_555
C12 S4 1_555 1_555
S4 Co1 1_555 1_555
O1 Co1 1_555 1_555
H9 O1 1_555 1_555
H10 O1 1_555 1_555
Co1A N8 1_555 1_555
Co2A N5 1_555 1_555
N5A Co2 1_555 1_555
N8A Co1 1_555 1_555
Co2 N7 1_555 1_555
N3 N4 1_555 1_555
C7 C8 1_555 1_555

#END
