
#######################################################################
#
#                 Cambridge Crystallographic Data Centre
#                                CCDC 
#
#######################################################################
#
# If this CIF has been generated from an entry in the Cambridge 
# Structural Database, then it will include bibliographic, chemical, 
# crystal, experimental, refinement or atomic coordinate data resulting 
# from the CCDC's data processing and validation procedures.
#
#######################################################################

data_NEYBAW
_symmetry_cell_setting           monoclinic
_symmetry_space_group_name_H-M   'C 2/c'
_symmetry_Int_Tables_number      15
_space_group_name_Hall           '-C 2yn'
loop_
_symmetry_equiv_pos_site_id
_symmetry_equiv_pos_as_xyz
1 x,y,z
2 -x,y,1/2-z
3 1/2+x,1/2+y,z
4 1/2-x,1/2+y,1/2-z
5 -x,-y,-z
6 x,-y,1/2+z
7 1/2-x,1/2-y,-z
8 1/2+x,1/2-y,1/2+z
_cell_length_a                   16.0869(15)
_cell_length_b                   14.4140(12)
_cell_length_c                   25.942(2)
_cell_angle_alpha                90
_cell_angle_beta                 103.9890(10)
_cell_angle_gamma                90
_cell_volume                     5836.94
loop_
_atom_site_label
_atom_site_type_symbol
_atom_site_fract_x
_atom_site_fract_y
_atom_site_fract_z
Cd1 Cd 0.16502(3) 0.23330(3) 0.538592(16)
Cl1 Cl 0.60785(12) 0.04021(13) 0.72180(8)
Cl2 Cl 0.72995(16) 0.37552(17) 0.78701(11)
Cl3 Cl -0.16554(15) 0.08793(15) 0.67444(9)
Cl4 Cl -0.23482(15) 0.45238(17) 0.65402(10)
N1 N 0.1120(3) 0.5334(3) 0.5345(2)
N2 N 0.1401(3) 0.3850(3) 0.5515(2)
N3 N 0.0989(3) 0.9402(3) 0.50403(19)
N4 N 0.1333(3) 1.0882(3) 0.50561(18)
O1 O 0.3114(2) 0.2274(3) 0.54475(14)
O2 O 0.4518(3) 0.2128(3) 0.55884(17)
O3 O 0.4662(3) 0.1377(3) 0.65686(17)
O4 O 0.1883(3) 0.1819(3) 0.62673(17)
O5 O 0.0513(3) 0.2006(3) 0.59139(16)
O6 O 0.0088(3) 0.1426(3) 0.6834(2)
C1 C 0.3848(4) 0.2068(4) 0.5733(2)
C2 C 0.3847(4) 0.1712(5) 0.6277(2)
H1 H 0.3664 0.2207 0.6478
H2 H 0.3432 0.1214 0.6242
C3 C 0.5251(4) 0.1986(5) 0.6836(2)
C4 C 0.5979(4) 0.1591(5) 0.7179(3)
C5 C 0.6609(4) 0.2124(5) 0.7492(3)
H3 H 0.7083 0.1850 0.7717
C6 C 0.6522(5) 0.3072(6) 0.7464(3)
C7 C 0.5830(6) 0.3483(6) 0.7128(3)
H4 H 0.5786 0.4127 0.7112
C8 C 0.5197(5) 0.2939(5) 0.6815(3)
H5 H 0.4730 0.3220 0.6586
C9 C 0.1120(4) 0.1817(4) 0.6289(2)
C10 C 0.0960(4) 0.1548(5) 0.6826(3)
H6 H 0.1264 0.0976 0.6942
H7 H 0.1204 0.2025 0.7082
C11 C -0.0439(5) 0.2178(5) 0.6784(2)
C12 C -0.1296(5) 0.2011(5) 0.6726(3)
C13 C -0.1879(5) 0.2714(6) 0.6665(3)
H8 H -0.2456 0.2586 0.6633
C14 C -0.1605(5) 0.3614(6) 0.6653(3)
C15 C -0.0760(5) 0.3803(5) 0.6723(3)
H9 H -0.0576 0.4414 0.6723
C16 C -0.0170(5) 0.3087(5) 0.6795(3)
H10 H 0.0410 0.3220 0.6850
C17 C 0.1501(4) 0.4564(4) 0.5224(3)
H11 H 0.1804 0.4539 0.4961
C18 C 0.0906(5) 0.4189(5) 0.5836(3)
H12 H 0.0708 0.3840 0.6083
C19 C 0.0748(5) 0.5099(5) 0.5741(3)
H13 H 0.0444 0.5489 0.5914
C20 C 0.1186(4) 1.0173(4) 0.5333(2)
H14 H 0.1215 1.0200 0.5695
C21 C 0.1197(4) 1.0541(4) 0.4546(2)
H15 H 0.1248 1.0886 0.4252
C22 C 0.0980(4) 0.9641(4) 0.4534(2)
H16 H 0.0850 0.9257 0.4237
C23 C 0.1109(5) 0.6262(4) 0.5110(3)
H17 H 0.0523 0.6477 0.4991
H18 H 0.1356 0.6235 0.4804
C24 C 0.1607(4) 0.6919(4) 0.5509(3)
H19 H 0.2184 0.6682 0.5641
H20 H 0.1343 0.6963 0.5807
C25 C 0.1653(4) 0.7890(4) 0.5275(3)
H21 H 0.2140 0.8216 0.5494
H22 H 0.1754 0.7825 0.4923
C26 C 0.0863(4) 0.8473(4) 0.5235(3)
H23 H 0.0378 0.8179 0.4995
H24 H 0.0738 0.8519 0.5582
Cd1_2 Cd 0.16502(3) 1.23330(3) 0.538592(16)
Cd1F Cd 0.33498(3) 0.26670(3) 0.461408(16)
N4_2 N 0.1333(3) 0.0882(3) 0.50561(18)
O1F O 0.1886(2) 0.2726(3) 0.45525(14)
loop_
_geom_bond_atom_site_label_1
_geom_bond_atom_site_label_2
_geom_bond_site_symmetry_1
_geom_bond_site_symmetry_2
Cd1 N2 1_555 1_555
Cl1 C4 1_555 1_555
Cl2 C6 1_555 1_555
Cl3 C12 1_555 1_555
Cl4 C14 1_555 1_555
N1 C17 1_555 1_555
N2 C17 1_555 1_555
N3 C20 1_555 1_555
N4 C20 1_555 1_555
O1 Cd1 1_555 1_555
O2 C1 1_555 1_555
O3 C2 1_555 1_555
O4 Cd1 1_555 1_555
O5 Cd1 1_555 1_555
O6 C10 1_555 1_555
C1 O1 1_555 1_555
C2 C1 1_555 1_555
H1 C2 1_555 1_555
H2 C2 1_555 1_555
C3 O3 1_555 1_555
C4 C3 1_555 1_555
C5 C4 1_555 1_555
H3 C5 1_555 1_555
C6 C5 1_555 1_555
C7 C6 1_555 1_555
H4 C7 1_555 1_555
C8 C3 1_555 1_555
H5 C8 1_555 1_555
C9 O4 1_555 1_555
C10 C9 1_555 1_555
H6 C10 1_555 1_555
H7 C10 1_555 1_555
C11 O6 1_555 1_555
C12 C11 1_555 1_555
C13 C12 1_555 1_555
H8 C13 1_555 1_555
C14 C13 1_555 1_555
C15 C14 1_555 1_555
H9 C15 1_555 1_555
C16 C11 1_555 1_555
H10 C16 1_555 1_555
C17 H11 1_555 1_555
C18 N2 1_555 1_555
H12 C18 1_555 1_555
C19 N1 1_555 1_555
H13 C19 1_555 1_555
C20 H14 1_555 1_555
C21 N4 1_555 1_555
H15 C21 1_555 1_555
C22 N3 1_555 1_555
H16 C22 1_555 1_555
C23 N1 1_555 1_555
H17 C23 1_555 1_555
H18 C23 1_555 1_555
C24 C23 1_555 1_555
H19 C24 1_555 1_555
H20 C24 1_555 1_555
C25 C24 1_555 1_555
H21 C25 1_555 1_555
H22 C25 1_555 1_555
C26 N3 1_555 1_555
H23 C26 1_555 1_555
H24 C26 1_555 1_555
Cd1_2 N4 1_555 1_555
Cd1F O1 1_555 1_555
N4_2 Cd1 1_555 1_555
O1F Cd1 1_555 1_555
O5 C9 1_555 1_555
C7 C8 1_555 1_555
C15 C16 1_555 1_555
C18 C19 1_555 1_555
C21 C22 1_555 1_555
C25 C26 1_555 1_555
Cd1F O1F 1_555 1_555

#END
