
#######################################################################
#
#                 Cambridge Crystallographic Data Centre
#                                CCDC 
#
#######################################################################
#
# If this CIF has been generated from an entry in the Cambridge 
# Structural Database, then it will include bibliographic, chemical, 
# crystal, experimental, refinement or atomic coordinate data resulting 
# from the CCDC's data processing and validation procedures.
#
#######################################################################

data_NEYBIC
_symmetry_cell_setting           monoclinic
_symmetry_space_group_name_H-M   'C 2/c'
_symmetry_Int_Tables_number      15
_space_group_name_Hall           '-C 2yn'
loop_
_symmetry_equiv_pos_site_id
_symmetry_equiv_pos_as_xyz
1 x,y,z
2 -x,y,1/2-z
3 1/2+x,1/2+y,z
4 1/2-x,1/2+y,1/2-z
5 -x,-y,-z
6 x,-y,1/2+z
7 1/2-x,1/2-y,-z
8 1/2+x,1/2-y,1/2+z
_cell_length_a                   12.993(1)
_cell_length_b                   10.733(1)
_cell_length_c                   16.878(3)
_cell_angle_alpha                90
_cell_angle_beta                 97.11(1)
_cell_angle_gamma                90
_cell_volume                     2335.6
loop_
_atom_site_label
_atom_site_type_symbol
_atom_site_fract_x
_atom_site_fract_y
_atom_site_fract_z
Cd1 Cd 0.2500 0.2500 0.50000
Nb1 Nb 0.0000 0.0000 0.50000
F1 F -0.0957(1) 0.1209(1) 0.45287(9)
F2 F -0.0223(1) 0.0573(1) 0.60492(8)
O1 O 0.1110(1) 0.1182(1) 0.49781(7)
N1 N 0.2464(1) 0.2222(2) 0.3614(1)
N2 N 0.3593(2) 0.0832(2) 0.5401(1)
C1 C 0.1761(2) 0.1488(2) 0.3194(1)
C2 C 0.1584(2) 0.1499(2) 0.2373(1)
C3 C 0.2163(2) 0.2293(2) 0.1959(1)
C4 C 0.2898(2) 0.3039(2) 0.2383(1)
C5 C 0.3016(2) 0.2990(2) 0.3205(1)
C6 C 0.4470(2) 0.1008(2) 0.5888(2)
C7 C 0.5030(2) 0.0049(3) 0.6256(2)
C8 C 0.4690(3) -0.1160(3) 0.6096(2)
C9 C 0.3807(3) -0.1355(3) 0.5586(2)
C10 C 0.3280(2) -0.0338(2) 0.5255(2)
H1 H 0.137 0.093 0.348
H2 H 0.107 0.097 0.209
H3 H 0.206 0.232 0.139
H4 H 0.332 0.358 0.211
H5 H 0.351 0.352 0.349
H6 H 0.471 0.184 0.598
H7 H 0.564 0.021 0.662
H8 H 0.507 -0.185 0.634
H9 H 0.356 -0.217 0.546
H10 H 0.266 -0.047 0.490
O1F O 0.3890(1) 0.3818(1) 0.50219(7)
N1F N 0.2536(1) 0.2778(2) 0.6386(1)
N2F N 0.1407(2) 0.4168(2) 0.4599(1)
F1D F 0.0957(1) -0.1209(1) 0.54713(9)
F2D F 0.0223(1) -0.0573(1) 0.39508(8)
O1D O -0.1110(1) -0.1182(1) 0.50219(7)
loop_
_geom_bond_atom_site_label_1
_geom_bond_atom_site_label_2
_geom_bond_site_symmetry_1
_geom_bond_site_symmetry_2
Cd1 O1 1_555 1_555
Nb1 F1 1_555 1_555
F2 Nb1 1_555 1_555
O1 Nb1 1_555 1_555
N1 Cd1 1_555 1_555
N2 Cd1 1_555 1_555
C1 N1 1_555 1_555
C2 C1 1_555 1_555
C3 C2 1_555 1_555
C4 C3 1_555 1_555
C5 N1 1_555 1_555
C6 N2 1_555 1_555
C7 C6 1_555 1_555
C8 C7 1_555 1_555
C9 C8 1_555 1_555
C10 N2 1_555 1_555
H1 C1 1_555 1_555
H2 C2 1_555 1_555
H3 C3 1_555 1_555
H4 C4 1_555 1_555
H5 C5 1_555 1_555
H6 C6 1_555 1_555
H7 C7 1_555 1_555
H8 C8 1_555 1_555
H9 C9 1_555 1_555
H10 C10 1_555 1_555
O1F Cd1 1_555 1_555
N1F Cd1 1_555 1_555
N2F Cd1 1_555 1_555
F1D Nb1 1_555 1_555
F2D Nb1 1_555 1_555
O1D Nb1 1_555 1_555
C4 C5 1_555 1_555
C9 C10 1_555 1_555

#END
