
#######################################################################
#
#                 Cambridge Crystallographic Data Centre
#                                CCDC 
#
#######################################################################
#
# If this CIF has been generated from an entry in the Cambridge 
# Structural Database, then it will include bibliographic, chemical, 
# crystal, experimental, refinement or atomic coordinate data resulting 
# from the CCDC's data processing and validation procedures.
#
#######################################################################

data_NEYBIC01
_symmetry_cell_setting           monoclinic
_symmetry_space_group_name_H-M   'P 21/c'
_symmetry_Int_Tables_number      14
_space_group_name_Hall           '-P 2ybc'
loop_
_symmetry_equiv_pos_site_id
_symmetry_equiv_pos_as_xyz
1 x,y,z
2 -x,1/2+y,1/2-z
3 -x,-y,-z
4 x,1/2-y,1/2+z
_cell_length_a                   14.0965(12)
_cell_length_b                   16.3530(14)
_cell_length_c                   10.4380(9)
_cell_angle_alpha                90.00
_cell_angle_beta                 95.569(2)
_cell_angle_gamma                90.00
_cell_volume                     2394.81
loop_
_atom_site_label
_atom_site_type_symbol
_atom_site_fract_x
_atom_site_fract_y
_atom_site_fract_z
Cd1 Cd 0.5000 0.0000 0.0000
Cd2 Cd 1.0000 0.0000 0.5000
Nb1 Nb 0.75268(2) -0.01971(2) 0.23742(3)
F1 F 0.87018(13) -0.01487(14) 0.35445(19)
F2 F 0.69668(16) -0.08142(16) 0.3648(2)
F3 F 0.79483(15) -0.11815(14) 0.1627(2)
F4 F 0.81594(16) 0.04100(17) 0.1144(2)
F5 F 0.71815(16) 0.08084(14) 0.3143(2)
O1 O 0.63746(14) -0.01837(15) 0.12964(19)
N1 N 0.5900(2) 0.01796(19) -0.1720(3)
N2 N 0.4999(2) 0.14138(18) 0.0493(3)
N3 N 1.0753(2) 0.07172(19) 0.3412(3)
N4 N 0.9470(2) 0.12629(18) 0.5766(3)
C1 C 0.5603(3) -0.0106(3) -0.2888(4)
H1 H 0.4998 -0.0364 -0.3010
C2 C 0.6129(3) -0.0042(3) -0.3918(4)
H2 H 0.5896 -0.0257 -0.4734
C3 C 0.6990(3) 0.0334(3) -0.3749(4)
H3 H 0.7365 0.0392 -0.4452
C4 C 0.7315(3) 0.0628(3) -0.2557(4)
H4 H 0.7917 0.0891 -0.2421
C5 C 0.6753(3) 0.0535(2) -0.1561(3)
H5 H 0.6981 0.0731 -0.0731
C6 C 0.4220(3) 0.1849(3) 0.0194(4)
H6 H 0.3731 0.1619 -0.0386
C7 C 0.4079(3) 0.2616(3) 0.0673(5)
H7 H 0.3504 0.2903 0.0423
C8 C 0.4764(4) 0.2965(3) 0.1505(5)
H8 H 0.4683 0.3495 0.1852
C9 C 0.5566(4) 0.2522(3) 0.1819(6)
H9 H 0.6060 0.2737 0.2408
C10 C 0.5667(3) 0.1758(3) 0.1279(5)
H10 H 0.6246 0.1468 0.1486
C11 C 1.0527(3) 0.0568(3) 0.2154(4)
H11 H 1.0029 0.0191 0.1911
C12 C 1.0984(3) 0.0938(3) 0.1202(4)
H12 H 1.0813 0.0810 0.0323
C13 C 1.1686(3) 0.1489(3) 0.1541(5)
H13 H 1.2012 0.1751 0.0899
C14 C 1.1918(3) 0.1662(3) 0.2813(5)
H14 H 1.2393 0.2057 0.3066
C15 C 1.1449(3) 0.1253(3) 0.3726(4)
H15 H 1.1631 0.1359 0.4611
C16 C 0.8729(3) 0.1651(2) 0.5126(4)
H16 H 0.8445 0.1419 0.4347
C17 C 0.8365(3) 0.2368(3) 0.5549(4)
H17 H 0.7831 0.2618 0.5080
C18 C 0.8777(3) 0.2718(3) 0.6648(5)
H18 H 0.8546 0.3222 0.6945
C19 C 0.9532(3) 0.2329(3) 0.7321(4)
H19 H 0.9819 0.2552 0.8105
C20 C 0.9868(3) 0.1613(2) 0.6847(4)
H20 H 1.0403 0.1356 0.7304
Cd2_2 Cd 0.0000 0.0000 -0.5000
Nb1B Nb 0.24732(2) 0.01971(2) -0.23742(3)
F1B F 0.12982(13) 0.01487(14) -0.35445(19)
F1B_2 F 1.12982(13) 0.01487(14) 0.64555(19)
F2B F 0.30332(16) 0.08142(16) -0.3648(2)
F3B F 0.20517(15) 0.11815(14) -0.1627(2)
F4B F 0.18406(16) -0.04100(17) -0.1144(2)
F5B F 0.28185(16) -0.08084(14) -0.3143(2)
O1B O 0.36254(14) 0.01837(15) -0.12964(19)
N1B N 0.4100(2) -0.01796(19) 0.1720(3)
N2B N 0.5001(2) -0.14138(18) -0.0493(3)
N3B N 0.9247(2) -0.07172(19) 0.6588(3)
N4B N 1.0530(2) -0.12629(18) 0.4234(3)
C1B C 0.4397(3) 0.0106(3) 0.2888(4)
H1B H 0.5002 0.0364 0.3010
C2B C 0.3871(3) 0.0042(3) 0.3918(4)
H2B H 0.4104 0.0257 0.4734
C3B C 0.3010(3) -0.0334(3) 0.3749(4)
H3B H 0.2635 -0.0392 0.4452
C4B C 0.2685(3) -0.0628(3) 0.2557(4)
H4B H 0.2083 -0.0891 0.2421
C5B C 0.3247(3) -0.0535(2) 0.1561(3)
H5B H 0.3019 -0.0731 0.0731
C6B C 0.5780(3) -0.1849(3) -0.0194(4)
H6B H 0.6269 -0.1619 0.0386
C7B C 0.5921(3) -0.2616(3) -0.0673(5)
H7B H 0.6496 -0.2903 -0.0423
C8B C 0.5236(4) -0.2965(3) -0.1505(5)
H8B H 0.5317 -0.3495 -0.1852
C9B C 0.4434(4) -0.2522(3) -0.1819(6)
H9B H 0.3940 -0.2737 -0.2408
C10B C 0.4333(3) -0.1758(3) -0.1279(5)
H10B H 0.3754 -0.1468 -0.1486
C11B C 0.9473(3) -0.0568(3) 0.7846(4)
H11B H 0.9971 -0.0191 0.8089
C12B C 0.9016(3) -0.0938(3) 0.8798(4)
H12B H 0.9187 -0.0810 0.9677
C13B C 0.8314(3) -0.1489(3) 0.8459(5)
H13B H 0.7988 -0.1751 0.9101
C14B C 0.8082(3) -0.1662(3) 0.7187(5)
H14B H 0.7607 -0.2057 0.6934
C15B C 0.8551(3) -0.1253(3) 0.6274(4)
H15B H 0.8369 -0.1359 0.5389
C16B C 1.1271(3) -0.1651(2) 0.4874(4)
H16B H 1.1555 -0.1419 0.5653
C17B C 1.1635(3) -0.2368(3) 0.4451(4)
H17B H 1.2169 -0.2618 0.4920
C18B C 1.1223(3) -0.2718(3) 0.3352(5)
H18B H 1.1454 -0.3222 0.3055
C19B C 1.0468(3) -0.2329(3) 0.2679(4)
H19B H 1.0181 -0.2552 0.1895
C20B C 1.0132(3) -0.1613(2) 0.3153(4)
H20B H 0.9597 -0.1356 0.2696
loop_
_geom_bond_atom_site_label_1
_geom_bond_atom_site_label_2
_geom_bond_site_symmetry_1
_geom_bond_site_symmetry_2
Cd1 O1 1_555 1_555
Cd2 F1 1_555 1_555
Nb1 F1 1_555 1_555
F2 Nb1 1_555 1_555
F3 Nb1 1_555 1_555
F4 Nb1 1_555 1_555
F5 Nb1 1_555 1_555
O1 Nb1 1_555 1_555
N1 Cd1 1_555 1_555
N2 Cd1 1_555 1_555
N3 Cd2 1_555 1_555
N4 Cd2 1_555 1_555
C1 N1 1_555 1_555
H1 C1 1_555 1_555
C2 C1 1_555 1_555
H2 C2 1_555 1_555
C3 C2 1_555 1_555
H3 C3 1_555 1_555
C4 C3 1_555 1_555
H4 C4 1_555 1_555
C5 N1 1_555 1_555
H5 C5 1_555 1_555
C6 N2 1_555 1_555
H6 C6 1_555 1_555
C7 C6 1_555 1_555
H7 C7 1_555 1_555
C8 C7 1_555 1_555
H8 C8 1_555 1_555
C9 C8 1_555 1_555
H9 C9 1_555 1_555
C10 N2 1_555 1_555
H10 C10 1_555 1_555
C11 N3 1_555 1_555
H11 C11 1_555 1_555
C12 C11 1_555 1_555
H12 C12 1_555 1_555
C13 C12 1_555 1_555
H13 C13 1_555 1_555
C14 C13 1_555 1_555
H14 C14 1_555 1_555
C15 N3 1_555 1_555
H15 C15 1_555 1_555
C16 N4 1_555 1_555
H16 C16 1_555 1_555
C17 C16 1_555 1_555
H17 C17 1_555 1_555
C18 C17 1_555 1_555
H18 C18 1_555 1_555
C19 C18 1_555 1_555
H19 C19 1_555 1_555
C20 N4 1_555 1_555
H20 C20 1_555 1_555
Cd2_2 F1B 1_555 1_555
Nb1B F1B 1_555 1_555
F1B_2 Cd2 1_555 1_555
F2B Nb1B 1_555 1_555
F3B Nb1B 1_555 1_555
F4B Nb1B 1_555 1_555
F5B Nb1B 1_555 1_555
O1B Cd1 1_555 1_555
N1B Cd1 1_555 1_555
N2B Cd1 1_555 1_555
N3B Cd2 1_555 1_555
N4B Cd2 1_555 1_555
C1B N1B 1_555 1_555
H1B C1B 1_555 1_555
C2B C1B 1_555 1_555
H2B C2B 1_555 1_555
C3B C2B 1_555 1_555
H3B C3B 1_555 1_555
C4B C3B 1_555 1_555
H4B C4B 1_555 1_555
C5B N1B 1_555 1_555
H5B C5B 1_555 1_555
C6B N2B 1_555 1_555
H6B C6B 1_555 1_555
C7B C6B 1_555 1_555
H7B C7B 1_555 1_555
C8B C7B 1_555 1_555
H8B C8B 1_555 1_555
C9B C8B 1_555 1_555
H9B C9B 1_555 1_555
C10B N2B 1_555 1_555
H10B C10B 1_555 1_555
C11B N3B 1_555 1_555
H11B C11B 1_555 1_555
C12B C11B 1_555 1_555
H12B C12B 1_555 1_555
C13B C12B 1_555 1_555
H13B C13B 1_555 1_555
C14B C13B 1_555 1_555
H14B C14B 1_555 1_555
C15B N3B 1_555 1_555
H15B C15B 1_555 1_555
C16B N4B 1_555 1_555
H16B C16B 1_555 1_555
C17B C16B 1_555 1_555
H17B C17B 1_555 1_555
C18B C17B 1_555 1_555
H18B C18B 1_555 1_555
C19B C18B 1_555 1_555
H19B C19B 1_555 1_555
C20B N4B 1_555 1_555
H20B C20B 1_555 1_555
C4 C5 1_555 1_555
C9 C10 1_555 1_555
C14 C15 1_555 1_555
C19 C20 1_555 1_555
Nb1B O1B 1_555 1_555
C4B C5B 1_555 1_555
C9B C10B 1_555 1_555
C14B C15B 1_555 1_555
C19B C20B 1_555 1_555

#END
