
#######################################################################
#
#                 Cambridge Crystallographic Data Centre
#                                CCDC 
#
#######################################################################
#
# If this CIF has been generated from an entry in the Cambridge 
# Structural Database, then it will include bibliographic, chemical, 
# crystal, experimental, refinement or atomic coordinate data resulting 
# from the CCDC's data processing and validation procedures.
#
#######################################################################

data_NEYHOO
_symmetry_cell_setting           monoclinic
_symmetry_space_group_name_H-M   'P 21/c'
_symmetry_Int_Tables_number      14
_space_group_name_Hall           '-P 2ybc'
loop_
_symmetry_equiv_pos_site_id
_symmetry_equiv_pos_as_xyz
1 x,y,z
2 x,1/2-y,1/2+z
3 -x,-y,-z
4 -x,1/2+y,1/2-z
_cell_length_a                   6.5294(2)
_cell_length_b                   16.7236(3)
_cell_length_c                   8.5990(2)
_cell_angle_alpha                90
_cell_angle_beta                 112.210(1)
_cell_angle_gamma                90
_cell_volume                     869.301
loop_
_atom_site_label
_atom_site_type_symbol
_atom_site_fract_x
_atom_site_fract_y
_atom_site_fract_z
Cl1 Cl 0.26134(12) 0.59813(4) 0.51988(8)
Cl2 Cl 0.12263(13) 0.42581(4) 0.33119(8)
O1 O 0.5216(4) 0.45083(12) 0.7191(2)
N1 N 0.3407(5) 0.43970(13) 0.7411(3)
N2 N 0.3631(4) 0.40921(13) 0.8841(3)
C1 C 0.1609(6) 0.3914(2) 0.9148(4)
C2 C 0.5763(6) 0.3855(2) 1.0162(4)
H1 H 0.1641(78) 0.4199(25) 1.0089(56)
H2 H 0.0396(76) 0.4116(23) 0.8216(56)
C3 C 0.1518(7) 0.3022(2) 0.9433(4)
C4 C 0.5686(7) 0.2962(2) 1.0482(4)
H3 H 0.6962(82) 0.4014(27) 0.9835(48)
H4 H 0.5818(70) 0.4164(23) 1.1106(53)
H5 H 0.1265(70) 0.2746(25) 0.8433(56)
H6 H 0.0298(78) 0.2934(27) 0.9748(55)
C5 C 0.3651(7) 0.2738(2) 1.0828(4)
H7 H 0.7036(76) 0.2837(24) 1.1445(56)
H8 H 0.5734(70) 0.2680(24) 0.9495(57)
H9 H 0.3581(67) 0.2151(25) 1.0980(52)
H10 H 0.3674(70) 0.3013(25) 1.1883(54)
Cu1 Cu 0.0000 0.5000 0.5000
Cu2 Cu 0.5000 0.5000 0.5000
Cl1B Cl -0.26134(12) 0.40187(4) 0.48012(8)
Cl2B Cl -0.12263(13) 0.57419(4) 0.66881(8)
Cl1B_2 Cl 0.73866(12) 0.40187(4) 0.48012(8)
Cu1B Cu 1.0000 0.5000 0.5000
Cl2B_2 Cl 0.87737(13) 0.57419(4) 0.66881(8)
N1B N -0.3407(5) 0.56030(13) 0.2589(3)
O1B O 0.4784(4) 0.54917(12) 0.2809(2)
N1B_2 N 0.6593(5) 0.56030(13) 0.2589(3)
N2B N 0.6369(4) 0.59079(13) 0.1159(3)
C1B C 0.8391(6) 0.6086(2) 0.0852(4)
H1B H 0.8359(78) 0.5801(25) -0.0089(56)
H2B H 0.9604(76) 0.5884(23) 0.1784(56)
C3B C 0.8482(7) 0.6978(2) 0.0567(4)
H5B H 0.8735(70) 0.7254(25) 0.1567(56)
H6B H 0.9702(78) 0.7066(27) 0.0252(55)
C5B C 0.6349(7) 0.7262(2) -0.0828(4)
C4B C 0.4314(7) 0.7038(2) -0.0482(4)
C2B C 0.4237(6) 0.6145(2) -0.0162(4)
H3B H 0.3038(82) 0.5986(27) 0.0165(48)
H4B H 0.4182(70) 0.5836(23) -0.1106(53)
H7B H 0.2964(76) 0.7163(24) -0.1445(56)
H8B H 0.4266(70) 0.7320(24) 0.0505(57)
H9B H 0.6419(67) 0.7849(25) -0.0980(52)
H10B H 0.6326(70) 0.6987(25) -0.1883(54)
loop_
_geom_bond_atom_site_label_1
_geom_bond_atom_site_label_2
_geom_bond_site_symmetry_1
_geom_bond_site_symmetry_2
Cl1 Cu1 1_555 1_555
Cl2 Cu1 1_555 1_555
O1 N1 1_555 1_555
N1 N2 1_555 1_555
N2 C1 1_555 1_555
C1 H1 1_555 1_555
C2 N2 1_555 1_555
H2 C1 1_555 1_555
C3 C1 1_555 1_555
C4 C2 1_555 1_555
H3 C2 1_555 1_555
H4 C2 1_555 1_555
H5 C3 1_555 1_555
H6 C3 1_555 1_555
C5 C3 1_555 1_555
H7 C4 1_555 1_555
H8 C4 1_555 1_555
H9 C5 1_555 1_555
H10 C5 1_555 1_555
Cu1 N1 1_555 1_555
Cu2 Cl1 1_555 1_555
Cl1B Cu1 1_555 1_555
Cl2B Cu1 1_555 1_555
Cl1B_2 Cu2 1_555 1_555
Cu1B Cl1B_2 1_555 1_555
Cl2B_2 Cu2 1_555 1_555
N1B Cu1 1_555 1_555
O1B Cu2 1_555 1_555
N1B_2 Cu1B 1_555 1_555
N2B N1B_2 1_555 1_555
C1B N2B 1_555 1_555
H1B C1B 1_555 1_555
H2B C1B 1_555 1_555
C3B C1B 1_555 1_555
H5B C3B 1_555 1_555
H6B C3B 1_555 1_555
C5B C3B 1_555 1_555
C4B C5B 1_555 1_555
C2B N2B 1_555 1_555
H3B C2B 1_555 1_555
H4B C2B 1_555 1_555
H7B C4B 1_555 1_555
H8B C4B 1_555 1_555
H9B C5B 1_555 1_555
H10B C5B 1_555 1_555
Cl2 Cu2 1_555 1_555
O1 Cu2 1_555 1_555
C4 C5 1_555 1_555
Cu1B Cl2B_2 1_555 1_555
O1B N1B_2 1_555 1_555
C4B C2B 1_555 1_555

#END
