
#######################################################################
#
#                 Cambridge Crystallographic Data Centre
#                                CCDC 
#
#######################################################################
#
# If this CIF has been generated from an entry in the Cambridge 
# Structural Database, then it will include bibliographic, chemical, 
# crystal, experimental, refinement or atomic coordinate data resulting 
# from the CCDC's data processing and validation procedures.
#
#######################################################################

data_NEYJEI
_symmetry_cell_setting           triclinic
_symmetry_space_group_name_H-M   'P -1'
_symmetry_Int_Tables_number      2
_space_group_name_Hall           '-P 1'
loop_
_symmetry_equiv_pos_site_id
_symmetry_equiv_pos_as_xyz
1 x,y,z
2 -x,-y,-z
_cell_length_a                   12.0310(19)
_cell_length_b                   12.0436(19)
_cell_length_c                   12.293(2)
_cell_angle_alpha                97.574(2)
_cell_angle_beta                 114.616(2)
_cell_angle_gamma                98.026(2)
_cell_volume                     1567.37
loop_
_atom_site_label
_atom_site_type_symbol
_atom_site_fract_x
_atom_site_fract_y
_atom_site_fract_z
O1 O 0.0667(8) 0.2358(9) 0.3897(9)
O2 O 0.4504(13) 0.5083(11) 0.3683(12)
O3 O 0.4661(12) 0.2470(10) 0.8043(10)
O4 O 0.3119(9) 0.3955(7) 0.1676(11)
O5 O 0.3024(10) 0.3088(12) 0.5927(8)
O6 O 0.1389(9) 0.6822(9) 0.5213(10)
O7 O 0.4676(12) 0.6004(11) 0.5716(11)
O8 O 0.1718(13) 0.3712(8) 0.2808(10)
O9 O 0.2101(14) 0.5947(8) 0.3478(10)
O10 O 0.5140(10) 0.7827(11) 0.4151(8)
O11 O 0.4691(9) 0.4717(7) 0.7804(11)
O12 O 0.1098(10) 0.5006(8) 0.1034(9)
O13 O 0.5652(9) 0.9460(6) 0.6187(8)
O14 O 0.1896(12) 0.4652(8) 0.4954(10)
O15 O 0.5409(9) 0.6935(8) 0.9258(8)
Mo1 Mo 0.23246(8) 0.50263(8) 0.22921(8)
Mo2 Mo 0.54382(9) 0.80480(7) 0.57794(8)
Mo3 Mo 0.52990(9) 0.63358(8) 0.79034(8)
Mo4 Mo 0.20523(8) 0.31930(8) 0.42504(9)
Mo5 Mo 0.46928(10) 0.32706(8) 0.70402(8)
Mo6 Mo 0.25629(9) 0.62403(9) 0.52049(10)
P1 P 0.5000 0.5000 0.5000
O16 O 0.3532(10) 0.6198(7) 0.2332(12)
O17 O 0.7124(10) 0.7888(11) 0.6192(8)
O18 O 0.3708(10) 0.7554(12) 0.5308(11)
O19 O 0.3590(12) 0.4913(11) 0.4386(13)
O20 O 0.3567(9) 0.6290(11) 0.6835(11)
O21 O 0.5707(9) 0.7604(12) 0.7320(11)
O22 O 0.5687(12) 0.6124(12) 0.4873(11)
O2A O 0.5496(13) 0.4917(11) 0.6317(12)
O7A O 0.5324(12) 0.3996(11) 0.4284(11)
O19A O 0.6410(12) 0.5087(11) 0.5614(13)
O22A O 0.4313(12) 0.3876(12) 0.5127(11)
O1A O 0.9333(8) 0.7642(9) 0.6103(9)
O3A O 0.5339(12) 0.7530(10) 0.1957(10)
O4A O 0.6881(9) 0.6045(7) 0.8324(11)
O5A O 0.6976(10) 0.6912(12) 0.4073(8)
O6A O 0.8611(9) 0.3178(9) 0.4787(10)
O8A O 0.8282(13) 0.6288(8) 0.7192(10)
O9A O 0.7899(14) 0.4053(8) 0.6522(10)
O10A O 0.4860(10) 0.2173(11) 0.5849(8)
O11A O 0.5309(9) 0.5283(7) 0.2196(11)
O12A O 0.8902(10) 0.4994(8) 0.8966(9)
O13A O 0.4348(9) 0.0540(6) 0.3813(8)
O14A O 0.8104(12) 0.5348(8) 0.5046(10)
O15A O 0.4591(9) 0.3065(8) 0.0742(8)
Mo1A Mo 0.76754(8) 0.49737(8) 0.77079(8)
Mo2A Mo 0.45618(9) 0.19520(7) 0.42206(8)
Mo3A Mo 0.47010(9) 0.36642(8) 0.20966(8)
Mo4A Mo 0.79477(8) 0.68070(8) 0.57496(9)
Mo5A Mo 0.53072(10) 0.67294(8) 0.29598(8)
Mo6A Mo 0.74371(9) 0.37597(9) 0.47951(10)
O16A O 0.6468(10) 0.3802(7) 0.7668(12)
O17A O 0.2876(10) 0.2112(11) 0.3808(8)
O18A O 0.6292(10) 0.2446(12) 0.4692(11)
O20A O 0.6433(9) 0.3710(11) 0.3165(11)
O21A O 0.4293(9) 0.2396(12) 0.2680(11)
O23 O 0.7581(15) 0.8512(15) 0.1287(14)
N7 N 0.887(4) 0.941(2) 0.923(2)
C13 C 0.984(3) 0.9673(18) 0.884(2)
H13 H 0.9711 0.9407 0.8041
C14 C 0.906(3) 0.9686(19) 1.032(2)
H14 H 0.8431 0.9443 1.0540
N7A N 1.113(4) 1.059(2) 1.077(2)
C13A C 1.016(3) 1.0327(18) 1.116(2)
H13A H 1.0289 1.0593 1.1959
C14A C 1.094(3) 1.0314(19) 0.968(2)
H14A H 1.1569 1.0557 0.9460
C1 C 0.4281(13) -0.0801(11) 0.9005(13)
H1 H 0.3777 -0.1347 0.8289
C2 C 0.9295(12) 0.2630(11) 0.9623(12)
H2 H 0.9665 0.2957 1.0455
C3 C 0.8304(13) 0.1723(10) 0.7240(11)
H3 H 0.7943 0.1388 0.6411
C4 C 0.5107(14) 0.0047(12) 0.8993(13)
H4 H 0.5180 0.0059 0.8270
C5 C 0.7593(11) 0.1673(9) 0.7831(11)
H5 H 0.6746 0.1331 0.7392
C6 C 0.9997(11) 0.2686(10) 0.8990(11)
H6 H 1.0839 0.3049 0.9407
N1 N 0.9517(10) 0.2239(9) 0.7798(9)
N2 N 0.8061(10) 0.2103(9) 0.9052(10)
Cu1 Cu 0.7001(2) 0.21789(15) 0.9916(2)
Cu2 Cu 1.0604(3) 0.25071(18) 0.6856(2)
N3 N 1.2483(9) 0.6299(8) 0.8946(10)
N4 N 1.1513(11) 0.4089(9) 0.7549(10)
C7 C 1.3012(12) 0.5448(12) 0.9292(11)
H7 H 1.3741 0.5596 1.0023
C8 C 1.1024(11) 0.4959(14) 0.7151(12)
H8 H 1.0349 0.4823 0.6381
C9 C 1.2537(14) 0.4347(12) 0.8622(12)
H9 H 1.2934 0.3767 0.8918
C10 C 1.1493(12) 0.6076(12) 0.7854(14)
H10 H 1.1114 0.6666 0.7559
C11 C 0.916(2) 0.0656(13) 0.4776(16)
H11 H 0.8554 0.1094 0.4575
N5 N 0.5840(10) 0.0887(8) 0.9970(11)
N6 N 1.0258(17) 0.1070(11) 0.5719(13)
C12 C 0.891(3) -0.0436(16) 0.4078(16)
H12 H 0.8111 -0.0728 0.3440
C1A C 0.5719(13) 0.0801(11) 1.0995(13)
H1A H 0.6223 0.1347 1.1711
C4A C 0.4893(14) -0.0047(12) 1.1007(13)
H4A H 0.4820 -0.0059 1.1730
N5A N 0.4160(10) -0.0887(8) 1.0030(11)
C11A C 1.084(2) -0.0656(13) 0.5224(16)
H11A H 1.1446 -0.1094 0.5425
N6A N 0.9742(17) -0.1070(11) 0.4281(13)
C12A C 1.109(3) 0.0436(16) 0.5922(16)
H12A H 1.1889 0.0728 0.6560
C2A C 0.0705(12) -0.2630(11) 1.0377(12)
H2A H 0.0335 -0.2957 0.9545
C3A C 0.1696(13) -0.1723(10) 1.2760(11)
H3A H 0.2057 -0.1388 1.3589
C5A C 0.2407(11) -0.1673(9) 1.2169(11)
H5A H 0.3254 -0.1331 1.2608
C6A C 0.0003(11) -0.2686(10) 1.1010(11)
H6A H -0.0839 -0.3049 1.0593
N1A N 0.0483(10) -0.2239(9) 1.2202(9)
N2A N 0.1939(10) -0.2103(9) 1.0948(10)
Cu1A Cu 0.2999(2) -0.21789(15) 1.0084(2)
Cu2A Cu -0.0604(3) -0.25071(18) 1.3144(2)
N3A N -0.2483(9) -0.6299(8) 1.1054(10)
N4A N -0.1513(11) -0.4089(9) 1.2451(10)
C7A C -0.3012(12) -0.5448(12) 1.0708(11)
H7A H -0.3741 -0.5596 0.9977
C8A C -0.1024(11) -0.4959(14) 1.2849(12)
H8A H -0.0349 -0.4823 1.3619
C9A C -0.2537(14) -0.4347(12) 1.1378(12)
H9A H -0.2934 -0.3767 1.1082
C10A C -0.1493(12) -0.6076(12) 1.2146(14)
H10A H -0.1114 -0.6666 1.2441
Cu1_2 Cu -0.2999(2) -0.78211(15) 0.9916(2)
Cu1A_2 Cu 1.2999(2) 0.78211(15) 1.0084(2)
Cu2A_2 Cu 0.9396(3) -0.25071(18) 0.3144(2)
N3_2 N 0.2483(9) -0.3701(8) 0.8946(10)
N3A_2 N 0.7517(9) 0.3701(8) 1.1054(10)
N6A_2 N -0.0258(17) -0.1070(11) 1.4281(13)
loop_
_geom_bond_atom_site_label_1
_geom_bond_atom_site_label_2
_geom_bond_site_symmetry_1
_geom_bond_site_symmetry_2
C1 H1 1_555 1_555
C2 H2 1_555 1_555
C3 H3 1_555 1_555
C4 C1 1_555 1_555
H4 C4 1_555 1_555
C5 C3 1_555 1_555
H5 C5 1_555 1_555
C6 C2 1_555 1_555
H6 C6 1_555 1_555
N1 C3 1_555 1_555
N2 C2 1_555 1_555
Cu1 N2 1_555 1_555
Cu2 N1 1_555 1_555
N3 C7 1_555 1_555
N4 Cu2 1_555 1_555
C7 H7 1_555 1_555
C8 N4 1_555 1_555
H8 C8 1_555 1_555
C9 N4 1_555 1_555
H9 C9 1_555 1_555
C10 N3 1_555 1_555
H10 C10 1_555 1_555
C11 H11 1_555 1_555
N5 C4 1_555 1_555
N6 Cu2 1_555 1_555
C12 C11 1_555 1_555
H12 C12 1_555 1_555
O1 Mo4 1_555 1_555
O2 Mo1 1_555 1_555
O3 Mo5 1_555 1_555
O4 Mo1 1_555 1_555
O5 Mo4 1_555 1_555
O6 Mo6 1_555 1_555
O7 Mo2 1_555 1_555
O8 Mo1 1_555 1_555
O9 Mo1 1_555 1_555
O10 Mo2 1_555 1_555
O11 Mo3 1_555 1_555
O12 Mo1 1_555 1_555
O13 Mo2 1_555 1_555
O14 Mo4 1_555 1_555
O15 Mo3 1_555 1_555
Mo1 O16 1_555 1_555
Mo2 O17 1_555 1_555
Mo3 O7 1_555 1_555
Mo4 O8 1_555 1_555
Mo5 O5 1_555 1_555
Mo6 O7 1_555 1_555
P1 O2 1_555 1_555
O16 Mo5A 1_555 1_555
O17 Mo4A 1_555 1_555
O18 Mo2 1_555 1_555
O19 O2 1_555 1_555
O20 Mo3 1_555 1_555
O21 Mo2 1_555 1_555
O22 O2 1_555 1_555
N7 C13 1_555 1_555
C13 H13 1_555 1_555
C14 N7 1_555 1_555
H14 C14 1_555 1_555
C1A N5 1_555 1_555
H1A C1A 1_555 1_555
C4A C1A 1_555 1_555
H4A C4A 1_555 1_555
N5A C1 1_555 1_555
C11A H11A 1_555 1_555
N6A C12 1_555 1_555
C12A N6 1_555 1_555
H12A C12A 1_555 1_555
C2A H2A 1_555 1_555
C3A H3A 1_555 1_555
C5A C3A 1_555 1_555
H5A C5A 1_555 1_555
C6A C2A 1_555 1_555
H6A C6A 1_555 1_555
N1A C3A 1_555 1_555
N2A C2A 1_555 1_555
Cu1A N5A 1_555 1_555
Cu2A N1A 1_555 1_555
N3A C7A 1_555 1_555
N4A Cu2A 1_555 1_555
C7A H7A 1_555 1_555
C8A N4A 1_555 1_555
H8A C8A 1_555 1_555
C9A N4A 1_555 1_555
H9A C9A 1_555 1_555
C10A N3A 1_555 1_555
H10A C10A 1_555 1_555
Cu1_2 N3A 1_555 1_555
Cu1A_2 N3 1_555 1_555
Cu2A_2 N6A 1_555 1_555
N3_2 Cu1A 1_555 1_555
N3A_2 Cu1 1_555 1_555
N6A_2 Cu2A 1_555 1_555
O2A O7 1_555 1_555
O7A O2 1_555 1_555
O19A P1 1_555 1_555
O22A Mo4 1_555 1_555
O1A Mo4A 1_555 1_555
O3A Mo5A 1_555 1_555
O4A Mo3 1_555 1_555
O5A Mo4A 1_555 1_555
O6A Mo6A 1_555 1_555
O8A Mo1A 1_555 1_555
O9A Mo1A 1_555 1_555
O10A Mo5 1_555 1_555
O11A Mo3A 1_555 1_555
O12A Mo1A 1_555 1_555
O13A Mo2A 1_555 1_555
O14A Mo4A 1_555 1_555
O15A Mo3A 1_555 1_555
Mo1A O2A 1_555 1_555
Mo2A O7A 1_555 1_555
Mo3A O2 1_555 1_555
Mo4A O22 1_555 1_555
Mo5A O2 1_555 1_555
Mo6A O7A 1_555 1_555
O16A Mo5 1_555 1_555
O17A Mo4 1_555 1_555
O18A Mo2A 1_555 1_555
O20A Mo3A 1_555 1_555
O21A Mo2A 1_555 1_555
N7A C13A 1_555 1_555
C13A C14 1_555 1_555
H13A C13A 1_555 1_555
C14A C13 1_555 1_555
H14A C14A 1_555 1_555
C5 N2 1_555 1_555
C6 N1 1_555 1_555
Cu1 N5 1_555 1_555
C7 C9 1_555 1_555
C8 C10 1_555 1_555
C11 N6 1_555 1_555
O4 Mo3A 1_555 1_555
O7 P1 1_555 1_555
O9 Mo6 1_555 1_555
O10 Mo5A 1_555 1_555
O11 Mo5 1_555 1_555
O14 Mo6 1_555 1_555
Mo1 O19 1_555 1_555
Mo2 O22 1_555 1_555
Mo3 O21 1_555 1_555
Mo3 O2A 1_555 1_555
Mo4 O19 1_555 1_555
Mo5 O2A 1_555 1_555
Mo5 O22A 1_555 1_555
Mo6 O18 1_555 1_555
Mo6 O19 1_555 1_555
Mo6 O20 1_555 1_555
P1 O19 1_555 1_555
P1 O22 1_555 1_555
P1 O2A 1_555 1_555
P1 O7A 1_555 1_555
P1 O22A 1_555 1_555
O19 O22A 1_555 1_555
O22 O19A 1_555 1_555
O22 Mo5A 1_555 1_555
C4A N5A 1_555 1_555
C11A N6A 1_555 1_555
C11A C12A 1_555 1_555
C5A N2A 1_555 1_555
C6A N1A 1_555 1_555
N2A Cu1A 1_555 1_555
C7A C9A 1_555 1_555
C8A C10A 1_555 1_555
O2A O19A 1_555 1_555
O2A O22A 1_555 1_555
O7A Mo3A 1_555 1_555
O19A Mo1A 1_555 1_555
O19A Mo4A 1_555 1_555
O19A Mo6A 1_555 1_555
O22A Mo2A 1_555 1_555
O4A Mo1A 1_555 1_555
O5A Mo5A 1_555 1_555
O8A Mo4A 1_555 1_555
O9A Mo6A 1_555 1_555
O10A Mo2A 1_555 1_555
O11A Mo5A 1_555 1_555
O14A Mo6A 1_555 1_555
Mo1A O16A 1_555 1_555
Mo2A O17A 1_555 1_555
Mo3A O21A 1_555 1_555
Mo6A O18A 1_555 1_555
Mo6A O20A 1_555 1_555
N7A C14A 1_555 1_555

#END
