
#######################################################################
#
#                 Cambridge Crystallographic Data Centre
#                                CCDC 
#
#######################################################################
#
# If this CIF has been generated from an entry in the Cambridge 
# Structural Database, then it will include bibliographic, chemical, 
# crystal, experimental, refinement or atomic coordinate data resulting 
# from the CCDC's data processing and validation procedures.
#
#######################################################################

data_NEYPIR
_symmetry_cell_setting           monoclinic
_symmetry_space_group_name_H-M   'P 21/c'
_symmetry_Int_Tables_number      14
_space_group_name_Hall           '-P 2ybc'
loop_
_symmetry_equiv_pos_site_id
_symmetry_equiv_pos_as_xyz
1 x,y,z
2 -x,1/2+y,1/2-z
3 -x,-y,-z
4 x,1/2-y,1/2+z
_cell_length_a                   10.8782(6)
_cell_length_b                   22.3790(10)
_cell_length_c                   22.2580(10)
_cell_angle_alpha                90
_cell_angle_beta                 102.8040(10)
_cell_angle_gamma                90
_cell_volume                     5283.82
loop_
_atom_site_label
_atom_site_type_symbol
_atom_site_fract_x
_atom_site_fract_y
_atom_site_fract_z
Ag1 Ag 0.005680(14) -0.346910(6) 0.277110(7)
Ag2 Ag -0.367410(15) -0.392730(7) 0.259590(7)
N1 N 0.15860(16) -0.41999(7) 0.33324(8)
C1 C 0.18585(18) -0.41636(8) 0.39512(9)
C2 C 0.2855(2) -0.44849(9) 0.43109(10)
C3 C 0.3587(2) -0.48457(10) 0.40238(11)
C4 C 0.3308(2) -0.48821(9) 0.33904(11)
C5 C 0.2299(2) -0.45552(9) 0.30644(10)
N2 N 0.00842(15) -0.34909(7) 0.38526(7)
C6 C 0.10553(19) -0.37605(8) 0.42358(9)
C7 C 0.1316(2) -0.36580(10) 0.48656(10)
C8 C 0.0541(3) -0.32743(12) 0.51039(11)
C9 C -0.0463(2) -0.30074(10) 0.47105(10)
C10 C -0.06650(18) -0.31185(8) 0.40784(9)
N3 N -0.18050(15) -0.29548(7) 0.30297(8)
C11 C -0.16984(18) -0.28188(8) 0.36287(9)
C12 C -0.2509(2) -0.24120(10) 0.38106(11)
C13 C -0.3463(2) -0.21513(11) 0.33744(12)
C14 C -0.3570(2) -0.22893(10) 0.27603(12)
C15 C -0.2716(2) -0.26879(10) 0.26095(10)
N4 N -0.39963(18) -0.38060(8) 0.35903(8)
C16 C -0.3215(2) -0.41075(10) 0.40374(9)
C17 C -0.3310(2) -0.40512(14) 0.46502(11)
C18 C -0.4215(3) -0.36827(14) 0.47969(11)
C19 C -0.5007(3) -0.33752(13) 0.43389(11)
C20 C -0.4868(2) -0.34517(12) 0.37389(11)
N5 N -0.21670(16) -0.44745(8) 0.32541(7)
C21 C -0.2259(2) -0.45012(10) 0.38494(9)
C22 C -0.1495(2) -0.48853(13) 0.42631(11)
C23 C -0.0647(2) -0.52487(13) 0.40626(12)
C24 C -0.0549(2) -0.52181(11) 0.34613(12)
C25 C -0.1327(2) -0.48227(9) 0.30623(10)
N6 N -0.11593(17) -0.42355(8) 0.21660(8)
C26 C -0.12297(18) -0.47831(9) 0.24074(9)
C27 C -0.1187(2) -0.53002(11) 0.20650(12)
C28 C -0.1060(3) -0.52565(13) 0.14639(13)
C29 C -0.0987(2) -0.47023(12) 0.12150(11)
C30 C -0.1049(2) -0.42052(11) 0.15761(10)
C31 C 0.1908(2) -0.27820(9) 0.17603(9)
C32 C 0.3003(2) -0.32151(10) 0.19740(10)
C33 C 0.37981(19) -0.32654(9) 0.14933(9)
P1 P 0.10223(5) -0.26565(2) 0.23580(2)
C34 C 0.20801(18) -0.22055(9) 0.29331(9)
C35 C 0.2154(2) -0.23126(11) 0.35560(11)
C36 C 0.2898(3) -0.19573(14) 0.40041(12)
C37 C 0.3588(2) -0.14951(12) 0.38339(13)
C38 C 0.3531(2) -0.13924(11) 0.32176(14)
C39 C 0.2788(2) -0.17380(10) 0.27694(11)
C40 C -0.02000(18) -0.21275(8) 0.20023(9)
C41 C -0.0870(2) -0.22202(10) 0.13996(10)
C42 C -0.1881(2) -0.18522(11) 0.11451(12)
C43 C -0.2240(2) -0.13950(10) 0.14880(12)
C44 C -0.1584(2) -0.13046(10) 0.20901(12)
C45 C -0.0578(2) -0.16700(9) 0.23456(11)
P2 P 0.49094(5) -0.38906(2) 0.16297(2)
C46 C 0.39144(17) -0.45527(8) 0.15317(8)
C47 C 0.4239(2) -0.50315(9) 0.19323(9)
C48 C 0.3478(2) -0.55367(9) 0.18752(10)
C49 C 0.2385(2) -0.55640(10) 0.14185(10)
C50 C 0.2058(2) -0.50912(10) 0.10134(10)
C51 C 0.28131(19) -0.45876(9) 0.10638(9)
C52 C 0.55814(18) -0.38649(9) 0.09519(8)
C53 C 0.5979(3) -0.33245(11) 0.07558(12)
C54 C 0.6548(3) -0.33009(13) 0.02585(14)
C55 C 0.6723(2) -0.38199(12) -0.00525(11)
C56 C 0.6342(2) -0.43548(12) 0.01406(11)
C57 C 0.5771(2) -0.43825(11) 0.06408(10)
H1 H 0.304(2) -0.4456(11) 0.4778(12)
H2 H 0.428(2) -0.5070(12) 0.4271(12)
H3 H 0.376(2) -0.5121(11) 0.3183(11)
H4 H 0.205(2) -0.4579(10) 0.2625(10)
H5 H 0.209(3) -0.3818(11) 0.5139(12)
H6 H 0.067(2) -0.3182(11) 0.5544(12)
H7 H -0.101(2) -0.2718(11) 0.4874(11)
H8 H -0.242(2) -0.2319(11) 0.4261(11)
H9 H -0.400(3) -0.1861(13) 0.3512(12)
H10 H -0.413(3) -0.2111(12) 0.2473(12)
H11 H -0.270(2) -0.2783(10) 0.2197(11)
H12 H -0.273(3) -0.4251(12) 0.4960(13)
H13 H -0.431(3) -0.3645(13) 0.5206(14)
H14 H -0.561(3) -0.3116(13) 0.4406(13)
H15 H -0.540(2) -0.3218(12) 0.3413(12)
H16 H -0.163(2) -0.4929(12) 0.4645(12)
H17 H -0.015(3) -0.5522(12) 0.4338(13)
H18 H -0.124(2) -0.5673(13) 0.2283(13)
H19 H -0.102(3) -0.5576(14) 0.1240(14)
H20 H -0.088(2) -0.4655(12) 0.0828(12)
H21 H -0.102(2) -0.3826(10) 0.1403(10)
H22 H 0.009(2) -0.5451(12) 0.3313(12)
H23 H 0.140(2) -0.2942(10) 0.1432(10)
H24 H 0.216(2) -0.2402(11) 0.1604(11)
H25 H 0.261(2) -0.3590(12) 0.2055(12)
H26 H 0.348(2) -0.3104(11) 0.2369(11)
H27 H 0.331(2) -0.3307(10) 0.1109(11)
H28 H 0.424(2) -0.2898(10) 0.1495(10)
H29 H 0.162(3) -0.2609(13) 0.3659(12)
H30 H 0.294(3) -0.2026(14) 0.4383(14)
H31 H 0.407(3) -0.1269(13) 0.4137(14)
H32 H 0.402(3) -0.1093(12) 0.3104(13)
H33 H 0.271(2) -0.1638(11) 0.2374(12)
H34 H -0.068(2) -0.2540(12) 0.1184(11)
H35 H -0.233(3) -0.1949(12) 0.0717(13)
H36 H -0.292(2) -0.1167(11) 0.1336(12)
H37 H -0.183(2) -0.1021(11) 0.2323(11)
H38 H -0.015(2) -0.1628(11) 0.2733(12)
H39 H 0.503(2) -0.5024(10) 0.2257(9)
H40 H 0.375(2) -0.5839(12) 0.2158(12)
H41 H 0.188(2) -0.5889(12) 0.1389(11)
H42 H 0.132(2) -0.5113(10) 0.0713(10)
H43 H 0.261(2) -0.4255(10) 0.0779(10)
H44 H 0.587(3) -0.2993(13) 0.0955(14)
H45 H 0.679(3) -0.2897(13) 0.0118(13)
H46 H 0.711(2) -0.3809(11) -0.0354(11)
H47 H 0.648(3) -0.4700(13) -0.0074(14)
H48 H 0.550(2) -0.4744(11) 0.0760(11)
Ag2_2 Ag 0.632590(15) -0.392730(7) 0.259590(7)
P2_2 P -0.50906(5) -0.38906(2) 0.16297(2)
Cl1 Cl 0.03469(5) -0.35764(2) -0.00514(2)
O1 O 0.03418(18) -0.42172(8) -0.00213(8)
O2 O -0.0410(2) -0.33376(9) 0.03438(11)
O3 O 0.16049(17) -0.33569(9) 0.01539(8)
O4 O -0.01519(19) -0.33864(8) -0.06723(8)
Cl2 Cl -0.40129(6) -0.62066(3) 0.36828(3)
O5 O -0.27198(16) -0.63460(9) 0.37155(8)
O6 O -0.41274(17) -0.58226(9) 0.41790(8)
O7 O -0.4580(3) -0.59503(16) 0.31213(10)
O8 O -0.4673(3) -0.67581(13) 0.37508(18)
loop_
_geom_bond_atom_site_label_1
_geom_bond_atom_site_label_2
_geom_bond_site_symmetry_1
_geom_bond_site_symmetry_2
Ag1 N1 1_555 1_555
Ag2 N4 1_555 1_555
N1 C1 1_555 1_555
C1 C2 1_555 1_555
C2 C3 1_555 1_555
C3 C4 1_555 1_555
C4 C5 1_555 1_555
C5 N1 1_555 1_555
N2 Ag1 1_555 1_555
C6 C1 1_555 1_555
C7 C6 1_555 1_555
C8 C7 1_555 1_555
C9 C8 1_555 1_555
C10 N2 1_555 1_555
N3 Ag1 1_555 1_555
C11 C10 1_555 1_555
C12 C11 1_555 1_555
C13 C12 1_555 1_555
C14 C13 1_555 1_555
C15 N3 1_555 1_555
N4 C16 1_555 1_555
C16 C17 1_555 1_555
C17 C18 1_555 1_555
C18 C19 1_555 1_555
C19 C20 1_555 1_555
C20 N4 1_555 1_555
N5 Ag2 1_555 1_555
C21 C16 1_555 1_555
C22 C21 1_555 1_555
C23 C22 1_555 1_555
C24 C23 1_555 1_555
C25 N5 1_555 1_555
N6 Ag1 1_555 1_555
C26 C25 1_555 1_555
C27 C26 1_555 1_555
C28 C27 1_555 1_555
C29 C28 1_555 1_555
C30 N6 1_555 1_555
C31 C32 1_555 1_555
C32 C33 1_555 1_555
C33 P2 1_555 1_555
P1 Ag1 1_555 1_555
C34 P1 1_555 1_555
C35 C34 1_555 1_555
C36 C35 1_555 1_555
C37 C36 1_555 1_555
C38 C37 1_555 1_555
C39 C34 1_555 1_555
C40 P1 1_555 1_555
C41 C40 1_555 1_555
C42 C41 1_555 1_555
C43 C42 1_555 1_555
C44 C43 1_555 1_555
C45 C40 1_555 1_555
P2 C46 1_555 1_555
C46 C47 1_555 1_555
C47 C48 1_555 1_555
C48 C49 1_555 1_555
C49 C50 1_555 1_555
C50 C51 1_555 1_555
C51 C46 1_555 1_555
C52 P2 1_555 1_555
C53 C52 1_555 1_555
C54 C53 1_555 1_555
C55 C54 1_555 1_555
C56 C55 1_555 1_555
C57 C52 1_555 1_555
Cl1 O1 1_555 1_555
O2 Cl1 1_555 1_555
O3 Cl1 1_555 1_555
O4 Cl1 1_555 1_555
Cl2 O5 1_555 1_555
O6 Cl2 1_555 1_555
O7 Cl2 1_555 1_555
O8 Cl2 1_555 1_555
H1 C2 1_555 1_555
H2 C3 1_555 1_555
H3 C4 1_555 1_555
H4 C5 1_555 1_555
H5 C7 1_555 1_555
H6 C8 1_555 1_555
H7 C9 1_555 1_555
H8 C12 1_555 1_555
H9 C13 1_555 1_555
H10 C14 1_555 1_555
H11 C15 1_555 1_555
H12 C17 1_555 1_555
H13 C18 1_555 1_555
H14 C19 1_555 1_555
H15 C20 1_555 1_555
H16 C22 1_555 1_555
H17 C23 1_555 1_555
H18 C27 1_555 1_555
H19 C28 1_555 1_555
H20 C29 1_555 1_555
H21 C30 1_555 1_555
H22 C24 1_555 1_555
H23 C31 1_555 1_555
H24 C31 1_555 1_555
H25 C32 1_555 1_555
H26 C32 1_555 1_555
H27 C33 1_555 1_555
H28 C33 1_555 1_555
H29 C35 1_555 1_555
H30 C36 1_555 1_555
H31 C37 1_555 1_555
H32 C38 1_555 1_555
H33 C39 1_555 1_555
H34 C41 1_555 1_555
H35 C42 1_555 1_555
H36 C43 1_555 1_555
H37 C44 1_555 1_555
H38 C45 1_555 1_555
H39 C47 1_555 1_555
H40 C48 1_555 1_555
H41 C49 1_555 1_555
H42 C50 1_555 1_555
H43 C51 1_555 1_555
H44 C53 1_555 1_555
H45 C54 1_555 1_555
H46 C55 1_555 1_555
H47 C56 1_555 1_555
H48 C57 1_555 1_555
Ag2_2 P2 1_555 1_555
P2_2 Ag2 1_555 1_555
N2 C6 1_555 1_555
C9 C10 1_555 1_555
N3 C11 1_555 1_555
C14 C15 1_555 1_555
N5 C21 1_555 1_555
C24 C25 1_555 1_555
N6 C26 1_555 1_555
C29 C30 1_555 1_555
C31 P1 1_555 1_555
C38 C39 1_555 1_555
C44 C45 1_555 1_555
C56 C57 1_555 1_555

#END
