
#######################################################################
#
#                 Cambridge Crystallographic Data Centre
#                                CCDC 
#
#######################################################################
#
# If this CIF has been generated from an entry in the Cambridge 
# Structural Database, then it will include bibliographic, chemical, 
# crystal, experimental, refinement or atomic coordinate data resulting 
# from the CCDC's data processing and validation procedures.
#
#######################################################################

data_NEYQOX
_symmetry_cell_setting           monoclinic
_symmetry_space_group_name_H-M   'P 2/c'
_symmetry_Int_Tables_number      13
_space_group_name_Hall           '-P 2yc'
loop_
_symmetry_equiv_pos_site_id
_symmetry_equiv_pos_as_xyz
1 x,y,z
2 -x,y,1/2-z
3 -x,-y,-z
4 x,-y,1/2+z
_cell_length_a                   7.5555(4)
_cell_length_b                   17.0053(8)
_cell_length_c                   17.8025(8)
_cell_angle_alpha                90
_cell_angle_beta                 101.482(2)
_cell_angle_gamma                90
_cell_volume                     2241.55
loop_
_atom_site_label
_atom_site_type_symbol
_atom_site_fract_x
_atom_site_fract_y
_atom_site_fract_z
Ag1 Ag -0.3457(1) 0.2574(1) 0.6932(1)
S1 S 0.0587(2) 0.2371(1) 0.6131(1)
F1 F 0.0380(4) 0.2445(2) 0.4653(2)
F2 F 0.3065(4) 0.2534(2) 0.5311(2)
F3 F 0.1266(4) 0.3505(1) 0.5236(2)
O1 O -0.1223(5) 0.2661(2) 0.6017(2)
O2 O 0.0752(5) 0.1545(2) 0.6086(2)
O3 O 0.1790(6) 0.2757(2) 0.6742(2)
N1 N -0.4449(5) 0.3741(2) 0.6642(2)
N2 N -0.3281(5) 1.1315(2) 0.7029(2)
C1 C -0.6635(6) 0.5198(2) 0.5436(2)
C2 C -0.7044(6) 0.5931(2) 0.5124(3)
C3 C -0.6237(6) 0.6594(2) 0.5488(2)
C4 C -0.4989(5) 0.6532(2) 0.6177(2)
C5 C -0.4561(6) 0.5790(2) 0.6488(2)
C6 C -0.5380(5) 0.5131(2) 0.6121(2)
C7 C -0.4883(5) 0.4357(2) 0.6419(2)
C8 C -0.4176(6) 0.7226(2) 0.6556(2)
C9 C -0.3568(6) 0.7812(2) 0.6874(2)
C10 C -0.2875(5) 0.8491(2) 0.7314(2)
C11 C -0.3241(6) 0.9253(2) 0.7032(2)
C12 C -0.2578(5) 0.9891(2) 0.7484(2)
C13 C -0.1537(6) 0.9784(2) 0.8216(3)
C14 C -0.1189(7) 0.9033(3) 0.8486(3)
C15 C -0.1836(6) 0.8391(2) 0.8048(3)
C16 C -0.2974(6) 1.0681(2) 0.7218(2)
C17 C 0.1358(6) 0.2729(2) 0.5291(2)
H14 H -0.7153(50) 0.4760(22) 0.5181(22)
H15 H -0.7870(54) 0.5988(22) 0.4649(23)
H16 H -0.6491(46) 0.7065(21) 0.5265(19)
H17 H -0.3751(47) 0.5693(18) 0.6952(20)
H18 H -0.3933(45) 0.9324(18) 0.6537(20)
H19 H -0.1103(56) 1.0240(25) 0.8498(24)
H20 H -0.0515(58) 0.8978(24) 0.8966(25)
H21 H -0.1633(49) 0.7895(24) 0.8236(21)
S1A S -0.0587(2) 0.2371(1) 0.8869(1)
F1A F -0.0380(4) 0.2445(2) 1.0347(2)
F2A F -0.3065(4) 0.2534(2) 0.9689(2)
F3A F -0.1266(4) 0.3505(1) 0.9764(2)
O1A O 0.1223(5) 0.2661(2) 0.8983(2)
O2A O -0.0752(5) 0.1545(2) 0.8914(2)
O3A O -0.1790(6) 0.2757(2) 0.8258(2)
C17A C -0.1358(6) 0.2729(2) 0.9709(2)
N1_2 N -0.4449(5) -0.6259(2) 0.6642(2)
N2_2 N -0.3281(5) 0.1315(2) 0.7029(2)
C1_2 C -0.6635(6) -0.4802(2) 0.5436(2)
C2_2 C -0.7044(6) -0.4069(2) 0.5124(3)
C3_2 C -0.6237(6) -0.3406(2) 0.5488(2)
C4_2 C -0.4989(5) -0.3468(2) 0.6177(2)
C5_2 C -0.4561(6) -0.4210(2) 0.6488(2)
C6_2 C -0.5380(5) -0.4869(2) 0.6121(2)
C7_2 C -0.4883(5) -0.5643(2) 0.6419(2)
C8_2 C -0.4176(6) -0.2774(2) 0.6556(2)
C9_2 C -0.3568(6) -0.2188(2) 0.6874(2)
C10_2 C -0.2875(5) -0.1509(2) 0.7314(2)
C11_2 C -0.3241(6) -0.0747(2) 0.7032(2)
C12_2 C -0.2578(5) -0.0109(2) 0.7484(2)
C13_2 C -0.1537(6) -0.0216(2) 0.8216(3)
C14_2 C -0.1189(7) -0.0967(3) 0.8486(3)
C15_2 C -0.1836(6) -0.1609(2) 0.8048(3)
C16_2 C -0.2974(6) 0.0681(2) 0.7218(2)
H14_2 H -0.7153(50) -0.5240(22) 0.5181(22)
H15_2 H -0.7870(54) -0.4012(22) 0.4649(23)
H16_2 H -0.6491(46) -0.2935(21) 0.5265(19)
H17_2 H -0.3751(47) -0.4307(18) 0.6952(20)
H18_2 H -0.3933(45) -0.0676(18) 0.6537(20)
H19_2 H -0.1103(56) 0.0240(25) 0.8498(24)
H20_2 H -0.0515(58) -0.1022(24) 0.8966(25)
H21_2 H -0.1633(49) -0.2105(24) 0.8236(21)
Ag1A Ag 0.3457(1) 0.2574(1) 0.8068(1)
Ag1A_2 Ag -0.6543(1) 0.2574(1) 0.8068(1)
Ag1_2 Ag -0.3457(1) 1.2574(1) 0.6932(1)
Ag1_3 Ag -0.3457(1) -0.7426(1) 0.6932(1)
Ag1_4 Ag 0.6543(1) 0.2574(1) 0.6932(1)
N1A N 0.4449(5) 0.3741(2) 0.8358(2)
N2A N 0.3281(5) 0.1315(2) 0.7971(2)
C18 C 0.0000 0.6181(5) 0.7500
C19 C 0.0379(9) 0.5765(4) 0.6884(4)
C20 C 0.0369(10) 0.4945(5) 0.6889(5)
C21 C 0.0000 0.4548(6) 0.7500
H1 H 0.0000 0.6740(5) 0.7500
H2 H 0.0647(9) 0.6039(4) 0.6455(4)
H3 H 0.0623(10) 0.4663(5) 0.6462(5)
H4 H 0.0000 0.3989(6) 0.7500
C20A C -0.0369(10) 0.4945(5) 0.8111(5)
C19A C -0.0379(9) 0.5765(4) 0.8116(4)
H2A H -0.0647(9) 0.6039(4) 0.8545(4)
H3A H -0.0623(10) 0.4663(5) 0.8538(5)
C25 C 0.5138(32) 0.0776(6) 0.5220(5)
C26 C 0.6658(21) 0.0359(12) 0.5112(7)
C27 C 0.3498(25) 0.0415(11) 0.5114(6)
H8 H 0.5248(32) 0.1313(6) 0.5368(5)
H9 H 0.7803(21) 0.0610(12) 0.5195(7)
H10 H 0.2468(25) 0.0697(11) 0.5196(6)
C27B C 0.6502(25) -0.0415(11) 0.4886(6)
C25B C 0.4862(32) -0.0776(6) 0.4780(5)
C26B C 0.3342(21) -0.0359(12) 0.4888(7)
H9B H 0.2197(21) -0.0610(12) 0.4805(7)
H8B H 0.4752(32) -0.1313(6) 0.4632(5)
H10B H 0.7532(25) -0.0697(11) 0.4804(6)
C22? C 0.0255(22) 0.5366(12) 0.6755(11)
C23? C 0.0128(26) 0.4661(14) 0.7132(14)
C24? C 0.0095(25) 0.6080(13) 0.7107(12)
C28? C 0.4252(47) 0.0636(13) 0.5229(9)
C29? C 0.6046(48) 0.0687(16) 0.5231(9)
C30? C 0.6886(33) 0.0014(25) 0.4976(12)
H5? H 0.0456(22) 0.5357(12) 0.6245(11)
H6? H 0.0218(26) 0.4177(14) 0.6876(14)
H7? H 0.0112(25) 0.6560(13) 0.6835(12)
H11? H 0.3702(47) 0.1093(13) 0.5386(9)
H12? H 0.6712(48) 0.1152(16) 0.5394(9)
H13? H 0.8128(33) 0.0005(25) 0.4948(12)
loop_
_geom_bond_atom_site_label_1
_geom_bond_atom_site_label_2
_geom_bond_site_symmetry_1
_geom_bond_site_symmetry_2
Ag1 O1 1_555 1_555
S1 O1 1_555 1_555
F1 C17 1_555 1_555
F2 C17 1_555 1_555
F3 C17 1_555 1_555
O2 S1 1_555 1_555
O3 S1 1_555 1_555
N1 Ag1 1_555 1_555
N2 C16 1_555 1_555
C1 C2 1_555 1_555
C2 C3 1_555 1_555
C3 C4 1_555 1_555
C4 C5 1_555 1_555
C5 C6 1_555 1_555
C6 C1 1_555 1_555
C7 N1 1_555 1_555
C8 C4 1_555 1_555
C9 C8 1_555 1_555
C10 C9 1_555 1_555
C11 C10 1_555 1_555
C12 C11 1_555 1_555
C13 C12 1_555 1_555
C14 C13 1_555 1_555
C15 C10 1_555 1_555
C16 C12 1_555 1_555
C17 S1 1_555 1_555
C18 C19 1_555 1_555
C19 C20 1_555 1_555
C20 C21 1_555 1_555
C21 H4 1_555 1_555
C25 C26 1_555 1_555
C26 H9 1_555 1_555
C27 C25 1_555 1_555
H1 C18 1_555 1_555
H2 C19 1_555 1_555
H3 C20 1_555 1_555
H8 C25 1_555 1_555
H10 C27 1_555 1_555
H14 C1 1_555 1_555
H15 C2 1_555 1_555
H16 C3 1_555 1_555
H17 C5 1_555 1_555
H18 C11 1_555 1_555
H19 C13 1_555 1_555
H20 C14 1_555 1_555
H21 C15 1_555 1_555
C20A C21 1_555 1_555
C19A C18 1_555 1_555
H2A C19A 1_555 1_555
H3A C20A 1_555 1_555
C27B C26 1_555 1_555
C25B C27B 1_555 1_555
C26B C27 1_555 1_555
H9B C26B 1_555 1_555
H8B C25B 1_555 1_555
H10B C27B 1_555 1_555
S1A O1A 1_555 1_555
F1A C17A 1_555 1_555
F2A C17A 1_555 1_555
F3A C17A 1_555 1_555
O1A Ag1A 1_555 1_555
O2A S1A 1_555 1_555
O3A Ag1 1_555 1_555
C17A S1A 1_555 1_555
N1_2 C7_2 1_555 1_555
N2_2 Ag1 1_555 1_555
C1_2 C2_2 1_555 1_555
C2_2 C3_2 1_555 1_555
C3_2 C4_2 1_555 1_555
C4_2 C5_2 1_555 1_555
C5_2 C6_2 1_555 1_555
C6_2 C1_2 1_555 1_555
C7_2 C6_2 1_555 1_555
C8_2 C4_2 1_555 1_555
C9_2 C8_2 1_555 1_555
C10_2 C9_2 1_555 1_555
C11_2 C10_2 1_555 1_555
C12_2 C11_2 1_555 1_555
C13_2 C12_2 1_555 1_555
C14_2 C13_2 1_555 1_555
C15_2 C10_2 1_555 1_555
C16_2 N2_2 1_555 1_555
H14_2 C1_2 1_555 1_555
H15_2 C2_2 1_555 1_555
H16_2 C3_2 1_555 1_555
H17_2 C5_2 1_555 1_555
H18_2 C11_2 1_555 1_555
H19_2 C13_2 1_555 1_555
H20_2 C14_2 1_555 1_555
H21_2 C15_2 1_555 1_555
Ag1A O3 1_555 1_555
Ag1A_2 Ag1 1_555 1_555
Ag1_2 N2 1_555 1_555
Ag1_3 N1_2 1_555 1_555
Ag1_4 Ag1A 1_555 1_555
N1A Ag1A 1_555 1_555
N2A Ag1A 1_555 1_555
C6 C7 1_555 1_555
C14 C15 1_555 1_555
C20A C19A 1_555 1_555
C25B C26B 1_555 1_555
S1A O3A 1_555 1_555
C12_2 C16_2 1_555 1_555
C14_2 C15_2 1_555 1_555

#END
