
#######################################################################
#
#                 Cambridge Crystallographic Data Centre
#                                CCDC 
#
#######################################################################
#
# If this CIF has been generated from an entry in the Cambridge 
# Structural Database, then it will include bibliographic, chemical, 
# crystal, experimental, refinement or atomic coordinate data resulting 
# from the CCDC's data processing and validation procedures.
#
#######################################################################

data_NEYRIS
_symmetry_cell_setting           triclinic
_symmetry_space_group_name_H-M   'P -1'
_symmetry_Int_Tables_number      2
_space_group_name_Hall           '-P 1'
loop_
_symmetry_equiv_pos_site_id
_symmetry_equiv_pos_as_xyz
1 x,y,z
2 -x,-y,-z
_cell_length_a                   8.3382(10)
_cell_length_b                   11.8923(14)
_cell_length_c                   15.223(2)
_cell_angle_alpha                77.030(2)
_cell_angle_beta                 85.051(2)
_cell_angle_gamma                86.352(2)
_cell_volume                     1464
loop_
_atom_site_label
_atom_site_type_symbol
_atom_site_fract_x
_atom_site_fract_y
_atom_site_fract_z
Ag1 Ag 0.0014(1) 0.7100(1) 0.2626(1)
N1 N -0.1222(7) 0.5648(5) 0.3713(4)
N2 N -0.9015(7) -0.1876(5) 0.3528(4)
N3 N -0.8997(7) -0.3450(5) 0.1368(4)
N4 N -0.1849(7) -1.1478(5) 0.1816(4)
C1 C -0.2901(7) 0.4469(5) 0.5080(4)
C2 C -0.3829(7) 0.3585(5) 0.4969(4)
C3 C -0.4759(7) 0.2984(5) 0.5706(4)
C4 C -0.4783(7) 0.3295(5) 0.6544(4)
C5 C -0.3848(8) 0.4168(5) 0.6644(4)
C6 C -0.2912(7) 0.4764(5) 0.5917(4)
C7 C -0.1948(8) 0.5122(6) 0.4317(5)
C8 C -0.5697(8) 0.2036(6) 0.5635(4)
C9 C -0.6427(8) 0.1217(6) 0.5625(4)
C10 C -0.7350(7) 0.0221(5) 0.5654(4)
C11 C -0.7552(7) -0.0171(5) 0.4881(4)
C12 C -0.8495(7) -0.1108(5) 0.4938(4)
C13 C -0.9221(8) -0.1665(5) 0.5757(4)
C14 C -0.9007(8) -0.1271(5) 0.6523(4)
C15 C -0.8084(8) -0.0359(5) 0.6483(4)
C16 C -0.8766(7) -0.1513(5) 0.4131(5)
C17 C -0.8201(8) -0.4215(5) -0.0085(4)
C18 C -0.8936(8) -0.3719(6) -0.0871(4)
C19 C -0.8567(8) -0.4161(6) -0.1630(4)
C20 C -0.7491(8) -0.5098(6) -0.1615(4)
C21 C -0.6762(7) -0.5622(5) -0.0812(4)
C22 C -0.7121(8) -0.5160(5) -0.0047(4)
C23 C -0.8599(8) -0.3787(5) 0.0723(5)
C24 C -0.5686(8) -0.6632(6) -0.0782(4)
C25 C -0.4839(8) -0.7470(6) -0.0719(4)
C26 C -0.3832(8) -0.8516(5) -0.0630(4)
C27 C -0.3233(8) -0.8913(6) -0.1402(4)
C28 C -0.2309(9) -0.9923(6) -0.1331(5)
C29 C -0.3457(7) -0.9158(6) 0.0213(4)
C30 C -0.2527(8) -1.0175(6) 0.0276(4)
C31 C -0.1948(8) -1.0564(6) -0.0497(5)
C32 C -0.2161(8) -1.0889(6) 0.1142(5)
H1 H -0.3826(7) 0.3395(5) 0.4395(4)
H2 H -0.5446(7) 0.2903(5) 0.7044(4)
H3 H -0.3847(8) 0.4360(5) 0.7217(4)
H4 H -0.2280(7) 0.5371(5) 0.5986(4)
H5 H -0.7048(7) 0.0200(5) 0.4316(4)
H6 H -0.9858(8) -0.2310(5) 0.5792(4)
H7 H -0.9514(8) -0.1644(5) 0.7087(4)
H8 H -0.7933(8) -0.0111(5) 0.7021(4)
H9 H -0.9687(8) -0.3080(6) -0.0887(4)
H10 H -0.9059(8) -0.3816(6) -0.2172(4)
H11 H -0.7244(8) -0.5389(6) -0.2145(4)
H12 H -0.6628(8) -0.5492(5) 0.0497(4)
H13 H -0.3471(8) -0.8476(6) -0.1983(4)
H14 H -0.1917(9) -1.0180(6) -0.1861(5)
H15 H -0.3837(7) -0.8901(6) 0.0745(4)
H16 H -0.1311(8) -1.1264(6) -0.0446(5)
Ag1_2 Ag -0.9986(1) -0.2900(1) 0.2626(1)
N1_2 N -1.1222(7) -0.4352(5) 0.3713(4)
Ag1_3 Ag 0.0014(1) -1.2900(1) 0.2626(1)
N4_2 N -1.1849(7) -0.1478(5) 0.1816(4)
Sb1 Sb 0.3843(1) 0.2620(1) 0.2466(1)
F1 F 0.4118(5) 0.1027(3) 0.2873(3)
F2 F 0.5547(5) 0.2876(4) 0.3105(3)
F3 F 0.2447(5) 0.2710(4) 0.3476(3)
F4 F 0.3545(6) 0.4210(3) 0.2039(2)
F5 F 0.2115(5) 0.2394(3) 0.1834(3)
F6 F 0.5234(5) 0.2560(4) 0.1462(2)
loop_
_geom_bond_atom_site_label_1
_geom_bond_atom_site_label_2
_geom_bond_site_symmetry_1
_geom_bond_site_symmetry_2
Ag1 N1 1_555 1_555
Sb1 F1 1_555 1_555
F2 Sb1 1_555 1_555
F3 Sb1 1_555 1_555
F4 Sb1 1_555 1_555
F5 Sb1 1_555 1_555
F6 Sb1 1_555 1_555
N1 C7 1_555 1_555
N2 C16 1_555 1_555
N3 C23 1_555 1_555
N4 C32 1_555 1_555
C1 C2 1_555 1_555
C2 C3 1_555 1_555
C3 C4 1_555 1_555
C4 C5 1_555 1_555
C5 C6 1_555 1_555
C6 C1 1_555 1_555
C7 C1 1_555 1_555
C8 C3 1_555 1_555
C9 C8 1_555 1_555
C10 C9 1_555 1_555
C11 C10 1_555 1_555
C12 C11 1_555 1_555
C13 C12 1_555 1_555
C14 C13 1_555 1_555
C15 C10 1_555 1_555
C16 C12 1_555 1_555
C17 C18 1_555 1_555
C18 C19 1_555 1_555
C19 C20 1_555 1_555
C20 C21 1_555 1_555
C21 C22 1_555 1_555
C22 C17 1_555 1_555
C23 C17 1_555 1_555
C24 C21 1_555 1_555
C25 C24 1_555 1_555
C26 C25 1_555 1_555
C27 C26 1_555 1_555
C28 C27 1_555 1_555
C29 C26 1_555 1_555
C30 C29 1_555 1_555
C31 C28 1_555 1_555
C32 C30 1_555 1_555
H1 C2 1_555 1_555
H2 C4 1_555 1_555
H3 C5 1_555 1_555
H4 C6 1_555 1_555
H5 C11 1_555 1_555
H6 C13 1_555 1_555
H7 C14 1_555 1_555
H8 C15 1_555 1_555
H9 C18 1_555 1_555
H10 C19 1_555 1_555
H11 C20 1_555 1_555
H12 C22 1_555 1_555
H13 C27 1_555 1_555
H14 C28 1_555 1_555
H15 C29 1_555 1_555
H16 C31 1_555 1_555
Ag1_2 N2 1_555 1_555
N1_2 Ag1_2 1_555 1_555
Ag1_3 N4 1_555 1_555
N4_2 Ag1_2 1_555 1_555
N3 Ag1_2 1_555 1_555
C14 C15 1_555 1_555
C30 C31 1_555 1_555

#END
