
#######################################################################
#
#                 Cambridge Crystallographic Data Centre
#                                CCDC 
#
#######################################################################
#
# If this CIF has been generated from an entry in the Cambridge 
# Structural Database, then it will include bibliographic, chemical, 
# crystal, experimental, refinement or atomic coordinate data resulting 
# from the CCDC's data processing and validation procedures.
#
#######################################################################

data_NEYREO
_symmetry_cell_setting           triclinic
_symmetry_space_group_name_H-M   'P -1'
_symmetry_Int_Tables_number      2
_space_group_name_Hall           '-P 1'
loop_
_symmetry_equiv_pos_site_id
_symmetry_equiv_pos_as_xyz
1 x,y,z
2 -x,-y,-z
_cell_length_a                   8.2621(4)
_cell_length_b                   11.9297(6)
_cell_length_c                   15.0912(8)
_cell_angle_alpha                77.24
_cell_angle_beta                 85.945(2)
_cell_angle_gamma                86.5590(10)
_cell_volume                     1445.58
loop_
_atom_site_label
_atom_site_type_symbol
_atom_site_fract_x
_atom_site_fract_y
_atom_site_fract_z
Ag1 Ag -0.0002(1) 0.7064(1) 0.2634(1)
N1 N -0.1208(4) 0.5630(3) 0.3734(2)
N2 N -0.9001(3) -0.1867(2) 0.3512(2)
N3 N -0.9014(4) -0.3468(3) 0.1365(2)
N4 N -0.1928(4) -1.1511(3) 0.1858(2)
C1 C -0.2906(3) 0.4484(2) 0.5102(2)
C2 C -0.3826(3) 0.3588(2) 0.4986(2)
C3 C -0.4755(3) 0.2998(2) 0.5732(2)
C4 C -0.4777(4) 0.3324(3) 0.6569(2)
C5 C -0.3859(4) 0.4214(3) 0.6670(2)
C6 C -0.2915(4) 0.4800(3) 0.5942(2)
C7 C -0.1952(4) 0.5115(3) 0.4337(2)
C8 C -0.5681(4) 0.2040(3) 0.5660(2)
C9 C -0.6424(4) 0.1217(3) 0.5649(2)
C10 C -0.7331(4) 0.0225(2) 0.5676(2)
C11 C -0.7535(3) -0.0162(2) 0.4883(2)
C12 C -0.8483(3) -0.1103(2) 0.4938(2)
C13 C -0.9228(4) -0.1664(3) 0.5759(2)
C14 C -0.9008(4) -0.1284(3) 0.6541(2)
C15 C -0.8064(4) -0.0354(3) 0.6504(2)
C16 C -0.8756(4) -0.1508(2) 0.4133(2)
C17 C -0.8207(4) -0.4221(3) -0.0093(2)
C18 C -0.8907(4) -0.3699(3) -0.0907(2)
C19 C -0.8508(4) -0.4134(3) -0.1673(2)
C20 C -0.7436(4) -0.5076(3) -0.1635(2)
C21 C -0.6741(3) -0.5606(2) -0.0823(2)
C22 C -0.7128(3) -0.5172(2) -0.0044(2)
C23 C -0.8648(4) -0.3797(3) 0.0720(2)
C24 C -0.5669(4) -0.6610(2) -0.0770(2)
C25 C -0.4814(4) -0.7461(3) -0.0702(2)
C26 C -0.3811(4) -0.8504(2) -0.0618(2)
C27 C -0.3232(4) -0.8896(3) -0.1395(2)
C28 C -0.2320(5) -0.9918(3) -0.1324(2)
C29 C -0.3454(4) -0.9157(2) 0.0242(2)
C30 C -0.2542(4) -1.0192(3) 0.0298(2)
C31 C -0.1979(4) -1.0578(3) -0.0477(2)
C32 C -0.2208(4) -1.0908(3) 0.1173(2)
H1 H -0.3818(3) 0.3384(2) 0.4412(2)
H2 H -0.5429(4) 0.2930(3) 0.7072(2)
H3 H -0.3878(4) 0.4424(3) 0.7243(2)
H4 H -0.2281(4) 0.5410(3) 0.6010(2)
H5 H -0.7035(3) 0.0211(2) 0.4317(2)
H6 H -0.9880(4) -0.2301(3) 0.5782(2)
H7 H -0.9505(4) -0.1663(3) 0.7106(2)
H8 H -0.7911(4) -0.0103(3) 0.7046(2)
H9 H -0.9648(4) -0.3054(3) -0.0933(2)
H10 H -0.8973(4) -0.3784(3) -0.2231(2)
H11 H -0.7169(4) -0.5365(3) -0.2168(2)
H12 H -0.6660(3) -0.5522(2) 0.0513(2)
H13 H -0.3470(4) -0.8453(3) -0.1980(2)
H14 H -0.1925(5) -1.0168(3) -0.1858(2)
H15 H -0.3826(4) -0.8901(2) 0.0777(2)
H16 H -0.1368(4) -1.1288(3) -0.0426(2)
Ag1_2 Ag -1.0002(1) -0.2936(1) 0.2634(1)
N1_2 N -1.1208(4) -0.4370(3) 0.3734(2)
Ag1_3 Ag -0.0002(1) -1.2936(1) 0.2634(1)
N4_2 N -1.1928(4) -0.1511(3) 0.1858(2)
As1 As 0.3763(1) 0.2602(1) 0.2474(1)
F1 F 0.4032(4) 0.1157(2) 0.2851(2)
F2 F 0.5313(3) 0.2848(3) 0.3086(2)
F3 F 0.2464(4) 0.2670(3) 0.3394(2)
F4 F 0.3502(4) 0.4050(2) 0.2087(2)
F5 F 0.2202(3) 0.2393(2) 0.1853(2)
F6 F 0.5060(4) 0.2557(3) 0.1558(2)
loop_
_geom_bond_atom_site_label_1
_geom_bond_atom_site_label_2
_geom_bond_site_symmetry_1
_geom_bond_site_symmetry_2
Ag1 N1 1_555 1_555
As1 F1 1_555 1_555
F2 As1 1_555 1_555
F3 As1 1_555 1_555
F4 As1 1_555 1_555
F5 As1 1_555 1_555
F6 As1 1_555 1_555
N1 C7 1_555 1_555
N2 C16 1_555 1_555
N3 C23 1_555 1_555
N4 C32 1_555 1_555
C1 C2 1_555 1_555
C2 C3 1_555 1_555
C3 C4 1_555 1_555
C4 C5 1_555 1_555
C5 C6 1_555 1_555
C6 C1 1_555 1_555
C7 C1 1_555 1_555
C8 C3 1_555 1_555
C9 C8 1_555 1_555
C10 C9 1_555 1_555
C11 C10 1_555 1_555
C12 C11 1_555 1_555
C13 C12 1_555 1_555
C14 C13 1_555 1_555
C15 C10 1_555 1_555
C16 C12 1_555 1_555
C17 C18 1_555 1_555
C18 C19 1_555 1_555
C19 C20 1_555 1_555
C20 C21 1_555 1_555
C21 C22 1_555 1_555
C22 C17 1_555 1_555
C23 C17 1_555 1_555
C24 C21 1_555 1_555
C25 C24 1_555 1_555
C26 C25 1_555 1_555
C27 C26 1_555 1_555
C28 C27 1_555 1_555
C29 C26 1_555 1_555
C30 C29 1_555 1_555
C31 C28 1_555 1_555
C32 C30 1_555 1_555
H1 C2 1_555 1_555
H2 C4 1_555 1_555
H3 C5 1_555 1_555
H4 C6 1_555 1_555
H5 C11 1_555 1_555
H6 C13 1_555 1_555
H7 C14 1_555 1_555
H8 C15 1_555 1_555
H9 C18 1_555 1_555
H10 C19 1_555 1_555
H11 C20 1_555 1_555
H12 C22 1_555 1_555
H13 C27 1_555 1_555
H14 C28 1_555 1_555
H15 C29 1_555 1_555
H16 C31 1_555 1_555
Ag1_2 N2 1_555 1_555
N1_2 Ag1_2 1_555 1_555
Ag1_3 N4 1_555 1_555
N4_2 Ag1_2 1_555 1_555
N3 Ag1_2 1_555 1_555
C14 C15 1_555 1_555
C30 C31 1_555 1_555

#END
