
#######################################################################
#
#                 Cambridge Crystallographic Data Centre
#                                CCDC 
#
#######################################################################
#
# If this CIF has been generated from an entry in the Cambridge 
# Structural Database, then it will include bibliographic, chemical, 
# crystal, experimental, refinement or atomic coordinate data resulting 
# from the CCDC's data processing and validation procedures.
#
#######################################################################

data_NEYROA
_symmetry_cell_setting           triclinic
_symmetry_space_group_name_H-M   'P -1'
_symmetry_Int_Tables_number      2
_space_group_name_Hall           '-P 1'
loop_
_symmetry_equiv_pos_site_id
_symmetry_equiv_pos_as_xyz
1 x,y,z
2 -x,-y,-z
_cell_length_a                   8.7780(18)
_cell_length_b                   10.436(2)
_cell_length_c                   12.819(3)
_cell_angle_alpha                109.54(3)
_cell_angle_beta                 90.49(3)
_cell_angle_gamma                114.26(3)
_cell_volume                     994.282
loop_
_atom_site_label
_atom_site_type_symbol
_atom_site_fract_x
_atom_site_fract_y
_atom_site_fract_z
Co1 Co 1.0000 0.5000 0.0000
Co2 Co 1.0000 0.0000 0.0000
Cl1 Cl 0.4639(2) 0.4698(2) 0.21568(15)
C1 C 0.9069(7) 0.2566(6) 0.1095(4)
C2 C 0.6995(7) 0.3677(6) 0.1647(4)
C3 C 0.8175(7) 0.3232(6) 0.1936(4)
C4 C 0.7462(7) 0.8988(6) 0.6720(4)
C5 C 0.9899(7) 0.6970(6) 0.2426(4)
H1 H 0.8905 0.6879 0.2081
C6 C 0.6046(7) 0.9230(6) 0.6924(4)
H2 H 0.5326 0.9138 0.6339
C7 C 0.9121(7) 0.8012(6) 0.4263(5)
C8 C 0.8510(7) 0.9201(6) 0.7621(4)
H3 H 0.9484 0.9064 0.7492
C9 C 1.1771(7) 0.7764(7) 0.4084(5)
H4 H 1.2072 0.8170 0.4863
C10 C 1.2314(7) 0.6681(7) 0.2282(5)
H5 H 1.3026 0.6366 0.1844
C11 C 0.6545(7) 0.3579(6) 0.0479(5)
C12 C 1.0272(7) 0.7597(6) 0.3582(4)
C13 C 0.6188(7) 0.4226(6) 0.2484(5)
C14 C 0.7869(7) 0.8577(6) 0.5593(4)
C15 C 0.8558(8) 0.3399(6) 0.3040(5)
H6 H 0.9337 0.3088 0.3230
C16 C 0.5713(7) 0.9606(6) 0.7991(5)
H7 H 0.4743 0.9741 0.8141
C17 C 0.6824(7) 0.9782(6) 0.8835(5)
H8 H 0.6595 1.0050 0.9563
C18 C 0.6583(8) 0.4422(7) 0.3580(5)
H9 H 0.6040 0.4819 0.4127
C19 C 0.7785(8) 0.4027(7) 0.3855(5)
H10 H 0.8087 0.4182 0.4600
C20 C 1.2803(8) 0.7324(7) 0.3421(5)
H11 H 1.3839 0.7462 0.3742
N1 N 1.0874(6) 0.6484(5) 0.1773(4)
N2 N 0.9209(6) 0.8272(5) 0.5345(4)
N3 N 0.7804(6) 0.8166(6) 0.3898(4)
N4 N 0.6992(6) 0.8527(5) 0.4745(4)
N5 N 0.8219(6) 0.9590(5) 0.8666(4)
O1 O 0.7571(5) 0.4584(4) 0.0171(3)
O2 O 0.5199(5) 0.2534(5) -0.0090(3)
O3 O 0.9729(5) 0.3173(4) 0.0421(3)
O4 O 0.9096(5) 0.1393(4) 0.1132(3)
O5 O 0.8249(5) -0.1836(4) 0.0316(4)
H12 H 0.759(9) 0.822(8) 0.322(3)
H13 H 0.874(7) -0.242(6) 0.017(6)
H14 H 0.718(3) -0.240(6) 0.014(7)
Cl1A Cl 1.5361(2) -0.4698(2) -0.21568(15)
C1A C 1.0931(7) -0.2566(6) -0.1095(4)
C2A C 1.3005(7) -0.3677(6) -0.1647(4)
C3A C 1.1825(7) -0.3232(6) -0.1936(4)
C11A C 1.3455(7) -0.3579(6) -0.0479(5)
C13A C 1.3812(7) -0.4226(6) -0.2484(5)
C15A C 1.1442(8) -0.3399(6) -0.3040(5)
H6A H 1.0663 -0.3088 -0.3230
C18A C 1.3417(8) -0.4422(7) -0.3580(5)
H9A H 1.3960 -0.4819 -0.4127
C19A C 1.2215(8) -0.4027(7) -0.3855(5)
H10A H 1.1913 -0.4182 -0.4600
O1A O 1.2429(5) -0.4584(4) -0.0171(3)
O2A O 1.4801(5) -0.2534(5) 0.0090(3)
O3A O 1.0271(5) -0.3173(4) -0.0421(3)
O4A O 1.0904(5) -0.1393(4) -0.1132(3)
O5A O 1.1751(5) 0.1836(4) -0.0316(4)
H13A H 1.126(7) 0.242(6) -0.017(6)
H14A H 1.282(3) 0.240(6) -0.014(7)
C4A C 1.2538(7) 0.1012(6) -0.6720(4)
C5A C 1.0101(7) 0.3030(6) -0.2426(4)
H1A H 1.1095 0.3121 -0.2081
C6A C 1.3954(7) 0.0770(6) -0.6924(4)
H2A H 1.4674 0.0862 -0.6339
C7A C 1.0879(7) 0.1988(6) -0.4263(5)
C8A C 1.1490(7) 0.0799(6) -0.7621(4)
H3A H 1.0516 0.0936 -0.7492
C9A C 0.8229(7) 0.2236(7) -0.4084(5)
H4A H 0.7928 0.1830 -0.4863
C10A C 0.7686(7) 0.3319(7) -0.2282(5)
H5A H 0.6974 0.3634 -0.1844
C12A C 0.9728(7) 0.2403(6) -0.3582(4)
C14A C 1.2131(7) 0.1423(6) -0.5593(4)
C16A C 1.4287(7) 0.0394(6) -0.7991(5)
H7A H 1.5257 0.0259 -0.8141
C17A C 1.3176(7) 0.0218(6) -0.8835(5)
H8A H 1.3405 -0.0050 -0.9563
C20A C 0.7197(8) 0.2676(7) -0.3421(5)
H11A H 0.6161 0.2538 -0.3742
N1A N 0.9126(6) 0.3516(5) -0.1773(4)
N2A N 1.0791(6) 0.1728(5) -0.5345(4)
N3A N 1.2196(6) 0.1834(6) -0.3898(4)
N4A N 1.3008(6) 0.1473(5) -0.4745(4)
N5A N 1.1781(6) 0.0410(5) -0.8666(4)
H12A H 1.241(9) 0.178(8) -0.322(3)
Co1_2 Co 1.0000 -0.5000 0.0000
Co2_2 Co 1.0000 0.0000 -1.0000
Co2_3 Co 1.0000 1.0000 1.0000
N5_2 N 0.8219(6) -0.0410(5) -0.1334(4)
N5A_2 N 1.1781(6) 0.0410(5) 0.1334(4)
O1A_2 O 1.2429(5) 0.5416(4) -0.0171(3)
O3A_2 O 1.0271(5) 0.6827(4) -0.0421(3)
O6 O 0.6713(9) 0.8770(10) 0.2244(5)
H15 H 0.599(12) 0.800(11) 0.170(7)
H16 H 0.755(11) 0.927(13) 0.199(10)
loop_
_geom_bond_atom_site_label_1
_geom_bond_atom_site_label_2
_geom_bond_site_symmetry_1
_geom_bond_site_symmetry_2
Co1 N1 1_555 1_555
Co2 O4 1_555 1_555
Cl1 C13 1_555 1_555
C1 C3 1_555 1_555
C2 C3 1_555 1_555
C3 C15 1_555 1_555
C4 C6 1_555 1_555
C5 H1 1_555 1_555
C6 H2 1_555 1_555
C7 C12 1_555 1_555
C8 C4 1_555 1_555
H3 C8 1_555 1_555
C9 H4 1_555 1_555
C10 H5 1_555 1_555
C11 C2 1_555 1_555
C12 C5 1_555 1_555
C13 C2 1_555 1_555
C14 C4 1_555 1_555
C15 H6 1_555 1_555
C16 C6 1_555 1_555
H7 C16 1_555 1_555
C17 C16 1_555 1_555
H8 C17 1_555 1_555
C18 C13 1_555 1_555
H9 C18 1_555 1_555
C19 C15 1_555 1_555
H10 C19 1_555 1_555
C20 C9 1_555 1_555
H11 C20 1_555 1_555
N1 C5 1_555 1_555
N2 C7 1_555 1_555
N3 C7 1_555 1_555
N4 C14 1_555 1_555
N5 C8 1_555 1_555
O1 Co1 1_555 1_555
O2 C11 1_555 1_555
O3 Co1 1_555 1_555
O4 C1 1_555 1_555
O5 Co2 1_555 1_555
H12 N3 1_555 1_555
H13 O5 1_555 1_555
H14 O5 1_555 1_555
O6 H15 1_555 1_555
H16 O6 1_555 1_555
Cl1A C13A 1_555 1_555
C1A C3A 1_555 1_555
C2A C3A 1_555 1_555
C3A C15A 1_555 1_555
C11A C2A 1_555 1_555
C13A C2A 1_555 1_555
C15A H6A 1_555 1_555
C18A C13A 1_555 1_555
H9A C18A 1_555 1_555
C19A C15A 1_555 1_555
H10A C19A 1_555 1_555
O1A C11A 1_555 1_555
O2A C11A 1_555 1_555
O3A C1A 1_555 1_555
O4A Co2 1_555 1_555
O5A Co2 1_555 1_555
H13A O5A 1_555 1_555
H14A O5A 1_555 1_555
C4A C6A 1_555 1_555
C5A H1A 1_555 1_555
C6A H2A 1_555 1_555
C7A C12A 1_555 1_555
C8A C4A 1_555 1_555
H3A C8A 1_555 1_555
C9A H4A 1_555 1_555
C10A H5A 1_555 1_555
C12A C5A 1_555 1_555
C14A C4A 1_555 1_555
C16A C6A 1_555 1_555
H7A C16A 1_555 1_555
C17A C16A 1_555 1_555
H8A C17A 1_555 1_555
C20A C9A 1_555 1_555
H11A C20A 1_555 1_555
N1A Co1 1_555 1_555
N2A C7A 1_555 1_555
N3A C7A 1_555 1_555
N4A C14A 1_555 1_555
N5A C8A 1_555 1_555
H12A N3A 1_555 1_555
Co1_2 O1A 1_555 1_555
Co2_2 N5A 1_555 1_555
Co2_3 N5 1_555 1_555
N5_2 Co2 1_555 1_555
N5A_2 Co2 1_555 1_555
O1A_2 Co1 1_555 1_555
O3A_2 Co1 1_555 1_555
C1 O3 1_555 1_555
C9 C12 1_555 1_555
C10 C20 1_555 1_555
C10 N1 1_555 1_555
C11 O1 1_555 1_555
C14 N2 1_555 1_555
C17 N5 1_555 1_555
C18 C19 1_555 1_555
N3 N4 1_555 1_555
C1A O4A 1_555 1_555
C18A C19A 1_555 1_555
O3A Co1_2 1_555 1_555
C5A N1A 1_555 1_555
C9A C12A 1_555 1_555
C10A C20A 1_555 1_555
C10A N1A 1_555 1_555
C14A N2A 1_555 1_555
C17A N5A 1_555 1_555
N3A N4A 1_555 1_555

#END
