
#######################################################################
#
#                 Cambridge Crystallographic Data Centre
#                                CCDC 
#
#######################################################################
#
# If this CIF has been generated from an entry in the Cambridge 
# Structural Database, then it will include bibliographic, chemical, 
# crystal, experimental, refinement or atomic coordinate data resulting 
# from the CCDC's data processing and validation procedures.
#
#######################################################################

data_NEYROY
_symmetry_cell_setting           orthorhombic
_symmetry_space_group_name_H-M   'C c c a'
_symmetry_Int_Tables_number      68
_space_group_name_Hall           '-C 2a 2bc'
loop_
_symmetry_equiv_pos_site_id
_symmetry_equiv_pos_as_xyz
1 x,y,z
2 -x,1/2-y,z
3 1/2+x,-y,1/2-z
4 1/2-x,1/2+y,1/2-z
5 1/2+x,1/2+y,z
6 1/2-x,-y,z
7 x,1/2-y,1/2-z
8 -x,y,1/2-z
9 -x,-y,-z
10 x,1/2+y,-z
11 1/2-x,y,1/2+z
12 1/2+x,1/2-y,1/2+z
13 1/2-x,1/2-y,-z
14 1/2+x,y,-z
15 -x,1/2+y,1/2+z
16 x,-y,1/2+z
_cell_length_a                   13.1609(4)
_cell_length_b                   15.9101(2)
_cell_length_c                   14.5790(4)
_cell_angle_alpha                90
_cell_angle_beta                 90
_cell_angle_gamma                90
_cell_volume                     3052.71
loop_
_atom_site_label
_atom_site_type_symbol
_atom_site_fract_x
_atom_site_fract_y
_atom_site_fract_z
Cl1 Cl 0.4995(11) 0.2571(10) 0.2523(10)
O1 O 0.5488(13) 0.2015(15) 0.1889(10)
O2 O 0.5690(13) 0.3225(12) 0.2788(12)
O3 O 0.4123(11) 0.2939(10) 0.2087(11)
O4 O 0.4681(13) 0.2126(10) 0.3331(11)
Cl1A Cl 0.5005(11) 0.2429(10) 0.2523(10)
O1A O 0.4512(13) 0.2985(15) 0.1889(10)
O1G O 0.4512(13) 0.2015(15) 0.3111(10)
O1F O 0.5488(13) 0.2985(15) 0.3111(10)
O2A O 0.4310(13) 0.1775(12) 0.2788(12)
O2G O 0.4310(13) 0.3225(12) 0.2212(12)
O2F O 0.5690(13) 0.1775(12) 0.2212(12)
O3A O 0.5877(11) 0.2061(10) 0.2087(11)
O3G O 0.5877(11) 0.2939(10) 0.2913(11)
O3F O 0.4123(11) 0.2061(10) 0.2913(11)
O4A O 0.5319(13) 0.2874(10) 0.3331(11)
O4G O 0.5319(13) 0.2126(10) 0.1669(11)
O4F O 0.4681(13) 0.2874(10) 0.1669(11)
O5 O 0.5000 0.0379(10) 0.2500
Ag1 Ag 0.0000 0.2500 0.2500
N1 N -0.1008(2) 0.1784(2) 0.1515(2)
C1 C -0.2205(2) 0.1363(2) 0.0196(2)
C2 C -0.1939(2) 0.1538(2) -0.0706(2)
C3 C -0.2577(2) 0.1287(2) -0.1402(2)
C4 C -0.3463(2) 0.0857(2) -0.1209(2)
C5 C -0.3733(2) 0.0679(2) -0.0305(2)
C6 C -0.3105(2) 0.0943(2) 0.0403(2)
C7 C -0.1540(2) 0.1603(2) 0.0929(2)
C8 C -0.4634(2) 0.0205(2) -0.0095(2)
H1 H -0.1357(23) 0.1790(18) -0.0821(20)
H2 H -0.2389(22) 0.1419(20) -0.1956(23)
H3 H -0.3855(21) 0.0678(17) -0.1671(20)
H4 H -0.3283(20) 0.0863(16) 0.1001(19)
C8H C -0.5366(2) -0.0205(2) 0.0095(2)
C5H C -0.6267(2) -0.0679(2) 0.0305(2)
C4H C -0.6537(2) -0.0857(2) 0.1209(2)
C3H C -0.7423(2) -0.1287(2) 0.1402(2)
C2H C -0.8061(2) -0.1538(2) 0.0706(2)
C1H C -0.7795(2) -0.1363(2) -0.0196(2)
C6H C -0.6895(2) -0.0943(2) -0.0403(2)
H4H H -0.6717(20) -0.0863(16) -0.1001(19)
C7H C -0.8460(2) -0.1603(2) -0.0929(2)
N1H N -0.8992(2) -0.1784(2) -0.1515(2)
Ag1H Ag -1.0000 -0.2500 -0.2500
N1I N -1.1008(2) -0.3216(2) -0.1515(2)
C7I C -1.1540(2) -0.3397(2) -0.0929(2)
C1I C -1.2205(2) -0.3637(2) -0.0196(2)
C2I C -1.1939(2) -0.3462(2) 0.0706(2)
C3I C -1.2577(2) -0.3713(2) 0.1402(2)
C4I C -1.3463(2) -0.4143(2) 0.1209(2)
C5I C -1.3733(2) -0.4321(2) 0.0305(2)
C6I C -1.3105(2) -0.4057(2) -0.0403(2)
H4I H -1.3283(20) -0.4137(16) -0.1001(19)
C8I C -1.4634(2) -0.4795(2) 0.0095(2)
C8A C -1.5366(2) -0.5205(2) -0.0095(2)
C5A C -1.6267(2) -0.5679(2) -0.0305(2)
C4A C -1.6537(2) -0.5857(2) -0.1209(2)
C3A C -1.7423(2) -0.6287(2) -0.1402(2)
C2A C -1.8061(2) -0.6538(2) -0.0706(2)
C1A C -1.7795(2) -0.6363(2) 0.0196(2)
C6A C -1.6895(2) -0.5943(2) 0.0403(2)
H4A H -1.6717(20) -0.5863(16) 0.1001(19)
C7A C -1.8460(2) -0.6603(2) 0.0929(2)
N1A N -1.8992(2) -0.6784(2) 0.1515(2)
Ag1A Ag -2.0000 -0.7500 0.2500
H1A H -1.8643(23) -0.6790(18) -0.0821(20)
H2A H -1.7611(22) -0.6419(20) -0.1956(23)
H3A H -1.6145(21) -0.5678(17) -0.1671(20)
H3I H -1.3855(21) -0.4322(17) 0.1671(20)
H2I H -1.2389(22) -0.3581(20) 0.1956(23)
H1I H -1.1357(23) -0.3210(18) 0.0821(20)
N1N N -0.8992(2) -0.3216(2) -0.3485(2)
N1O N -1.1008(2) -0.1784(2) -0.3485(2)
H1H H -0.8643(23) -0.1790(18) 0.0821(20)
H2H H -0.7611(22) -0.1419(20) 0.1956(23)
H3H H -0.6145(21) -0.0678(17) 0.1671(20)
loop_
_geom_bond_atom_site_label_1
_geom_bond_atom_site_label_2
_geom_bond_site_symmetry_1
_geom_bond_site_symmetry_2
Ag1 N1 1_555 1_555
Cl1 O1 1_555 1_555
O1 Cl1A 1_555 1_555
O2 Cl1 1_555 1_555
O3 Cl1 1_555 1_555
O4 Cl1 1_555 1_555
N1 C7 1_555 1_555
C1 C2 1_555 1_555
C2 C3 1_555 1_555
C3 C4 1_555 1_555
C4 C5 1_555 1_555
C5 C6 1_555 1_555
C6 C1 1_555 1_555
C7 C1 1_555 1_555
C8 C5 1_555 1_555
H1 C2 1_555 1_555
H2 C3 1_555 1_555
H3 C4 1_555 1_555
H4 C6 1_555 1_555
C8H C8 1_555 1_555
C5H C8H 1_555 1_555
C4H C5H 1_555 1_555
C3H C4H 1_555 1_555
C2H C3H 1_555 1_555
C1H C2H 1_555 1_555
C6H C5H 1_555 1_555
H4H C6H 1_555 1_555
C7H C1H 1_555 1_555
N1H C7H 1_555 1_555
Ag1H N1H 1_555 1_555
N1I Ag1H 1_555 1_555
C7I N1I 1_555 1_555
C1I C7I 1_555 1_555
C2I C1I 1_555 1_555
C3I C2I 1_555 1_555
C4I C3I 1_555 1_555
C5I C4I 1_555 1_555
C6I C1I 1_555 1_555
H4I C6I 1_555 1_555
C8I C5I 1_555 1_555
C8A C8I 1_555 1_555
C5A C8A 1_555 1_555
C4A C5A 1_555 1_555
C3A C4A 1_555 1_555
C2A C3A 1_555 1_555
C1A C2A 1_555 1_555
C6A C5A 1_555 1_555
H4A C6A 1_555 1_555
C7A C1A 1_555 1_555
N1A C7A 1_555 1_555
Ag1A N1A 1_555 1_555
H1A C2A 1_555 1_555
H2A C3A 1_555 1_555
H3A C4A 1_555 1_555
H3I C4I 1_555 1_555
H2I C3I 1_555 1_555
H1I C2I 1_555 1_555
N1N Ag1H 1_555 1_555
N1O Ag1H 1_555 1_555
H1H C2H 1_555 1_555
H2H C3H 1_555 1_555
H3H C4H 1_555 1_555
Cl1A Cl1 1_555 1_555
O1A Cl1 1_555 1_555
O1G Cl1 1_555 1_555
O1F Cl1 1_555 1_555
O2A Cl1 1_555 1_555
O2G Cl1 1_555 1_555
O2F Cl1 1_555 1_555
O3A Cl1 1_555 1_555
O3G Cl1 1_555 1_555
O3F Cl1 1_555 1_555
O4A Cl1 1_555 1_555
O4G Cl1 1_555 1_555
O4F Cl1 1_555 1_555
O1 O4G 1_555 1_555
O1 O2F 1_555 1_555
O1 O3A 1_555 1_555
O2 Cl1A 1_555 1_555
O2 O1F 1_555 1_555
O2 O3G 1_555 1_555
O2 O4A 1_555 1_555
O3 Cl1A 1_555 1_555
O3 O2G 1_555 1_555
O3 O1A 1_555 1_555
O3 O4F 1_555 1_555
O4 Cl1A 1_555 1_555
O4 O1G 1_555 1_555
O4 O3F 1_555 1_555
O4 O2A 1_555 1_555
O4 O4A 1_555 1_555
C1H C6H 1_555 1_555
C5I C6I 1_555 1_555
C1A C6A 1_555 1_555
Cl1A O1A 1_555 1_555
Cl1A O1G 1_555 1_555
Cl1A O2A 1_555 1_555
Cl1A O2G 1_555 1_555
Cl1A O3A 1_555 1_555
Cl1A O3G 1_555 1_555
Cl1A O4A 1_555 1_555
Cl1A O4G 1_555 1_555
Cl1A O1F 1_555 1_555
Cl1A O2F 1_555 1_555
Cl1A O3F 1_555 1_555
Cl1A O4F 1_555 1_555
O1A O4F 1_555 1_555
O1A O2G 1_555 1_555
O1G O2A 1_555 1_555
O1G O3F 1_555 1_555
O1F O4A 1_555 1_555
O1F O3G 1_555 1_555
O2A O3F 1_555 1_555
O2G O4F 1_555 1_555
O2F O3A 1_555 1_555
O2F O4G 1_555 1_555
O3A O4G 1_555 1_555
O3G O4A 1_555 1_555
O4G O4F 1_555 1_555

#END
