
#######################################################################
#
#                 Cambridge Crystallographic Data Centre
#                                CCDC 
#
#######################################################################
#
# If this CIF has been generated from an entry in the Cambridge 
# Structural Database, then it will include bibliographic, chemical, 
# crystal, experimental, refinement or atomic coordinate data resulting 
# from the CCDC's data processing and validation procedures.
#
#######################################################################

data_NEYRUG
_symmetry_cell_setting           triclinic
_symmetry_space_group_name_H-M   'P -1'
_symmetry_Int_Tables_number      2
_space_group_name_Hall           '-P 1'
loop_
_symmetry_equiv_pos_site_id
_symmetry_equiv_pos_as_xyz
1 x,y,z
2 -x,-y,-z
_cell_length_a                   7.5040(15)
_cell_length_b                   10.379(2)
_cell_length_c                   20.328(4)
_cell_angle_alpha                99.25(3)
_cell_angle_beta                 99.58(3)
_cell_angle_gamma                103.75(3)
_cell_volume                     1482.88
loop_
_atom_site_label
_atom_site_type_symbol
_atom_site_fract_x
_atom_site_fract_y
_atom_site_fract_z
Cd1 Cd 0.07021(4) 0.93335(2) 0.383163(12)
Cd2 Cd 0.58168(4) 0.80908(3) 0.262115(13)
C1 C -0.0382(5) 0.6952(3) 0.27861(17)
C2 C -0.0954(5) 0.5804(3) 0.21599(17)
C3 C -0.2808(5) 0.5006(4) 0.1943(2)
H1 H -0.3680 0.5107 0.2209
C4 C -0.3357(6) 0.4060(4) 0.1329(2)
H2 H -0.4593 0.3528 0.1190
C5 C -0.2105(6) 0.3903(4) 0.0928(2)
H3 H -0.2490 0.3298 0.0509
C6 C -0.0261(6) 0.4654(4) 0.11540(18)
C7 C 0.0357(5) 0.5595(3) 0.17729(17)
C8 C 0.2386(5) 0.6372(3) 0.20058(18)
C9 C 0.1947(6) 0.8092(3) 0.48435(17)
C10 C 0.2390(5) 0.7267(3) 0.53665(17)
C11 C 0.2477(6) 0.5948(4) 0.51355(19)
C12 C 0.2983(7) 0.5138(4) 0.5569(2)
H4 H 0.3006 0.4257 0.5399
C13 C 0.3455(8) 0.5674(5) 0.6266(2)
H5 H 0.3806 0.5148 0.6568
C14 C 0.3407(6) 0.6984(4) 0.6515(2)
H6 H 0.3736 0.7333 0.6983
C15 C 0.2872(5) 0.7790(4) 0.60741(18)
C16 C 0.2832(5) 0.9213(4) 0.63736(18)
C17 C 0.1380(6) 1.2005(4) 0.3221(2)
H7 H 0.1176 1.2338 0.3646
C18 C 0.1682(7) 1.2881(4) 0.2776(2)
H8 H 0.1680 1.3782 0.2905
C19 C 0.1985(6) 1.2403(4) 0.2142(2)
H9 H 0.2191 1.2974 0.1838
C20 C 0.1976(5) 1.1046(4) 0.19676(17)
C21 C 0.1678(5) 1.0238(4) 0.24406(18)
H10 H 0.1689 0.9336 0.2327
C22 C 0.2218(5) 1.0515(3) 0.12826(17)
C23 C 0.2495(5) 1.0306(4) 0.02625(18)
C24 C 0.2709(5) 1.0650(4) -0.03956(18)
C25 C 0.3018(8) 1.1975(4) -0.0479(2)
H11 H 0.3061 1.2666 -0.0118
C26 C 0.3263(8) 1.2264(5) -0.1101(2)
H12 H 0.3484 1.3163 -0.1145
C27 C 0.2913(6) 1.0052(4) -0.15641(19)
H13 H 0.2886 0.9387 -0.1934
C28 C 0.2653(7) 0.9668(4) -0.0960(2)
H14 H 0.2442 0.8762 -0.0930
Cl1 Cl 0.13647(18) 0.44522(13) 0.06508(6)
Cl2 Cl 0.19072(18) 0.52695(10) 0.42620(5)
N1 N 0.1372(5) 1.0702(3) 0.30601(15)
N2 N 0.2404(5) 1.1230(3) 0.08016(15)
N3 N 0.2206(5) 0.9230(3) 0.10384(15)
N4 N 0.2394(5) 0.9072(3) 0.03811(16)
N5 N 0.3202(5) 1.1337(3) -0.16428(16)
O1 O 0.1291(4) 0.7422(3) 0.30755(13)
O2 O -0.1619(4) 0.7473(3) 0.29765(14)
O3 O 0.2861(4) 0.7558(3) 0.18931(14)
O4 O 0.3512(4) 0.5841(3) 0.22985(16)
O5 O 0.0243(4) 0.8053(3) 0.46271(13)
O6 O 0.3277(4) 0.8717(3) 0.46201(14)
O7 O 0.1860(4) 0.9785(3) 0.60189(14)
O8 O 0.3809(5) 0.9728(3) 0.69643(14)
O9 O 0.2374(5) 1.1334(3) 0.46466(15)
O10 O 0.5156(5) 0.7565(4) 0.36412(17)
H15 H 0.223(8) 0.860(4) 0.128(2)
H16 H 0.170(6) 1.151(6) 0.492(2)
H17 H 0.341(5) 1.126(7) 0.483(3)
H18 H 0.504(8) 0.822(4) 0.390(3)
H19 H 0.417(6) 0.693(5) 0.348(4)
Cd1A Cd -0.07021(4) 1.06665(2) 0.616837(12)
Cd2_2 Cd -0.41832(4) 0.80908(3) 0.262115(13)
Cd2A Cd 0.41832(4) 1.19092(3) -0.262115(13)
Cd2A_2 Cd 0.41832(4) 1.19092(3) 0.737885(13)
N5A N 0.6798(5) 0.8663(3) 0.16428(16)
O2_2 O 0.8381(4) 0.7473(3) 0.29765(14)
O7A O -0.1860(4) 1.0215(3) 0.39811(14)
O8A O 0.6191(5) 1.0272(3) 0.30357(14)
loop_
_geom_bond_atom_site_label_1
_geom_bond_atom_site_label_2
_geom_bond_site_symmetry_1
_geom_bond_site_symmetry_2
Cd1 N1 1_555 1_555
Cd2 O3 1_555 1_555
C1 C2 1_555 1_555
C2 C3 1_555 1_555
C3 H1 1_555 1_555
C4 C3 1_555 1_555
H2 C4 1_555 1_555
C5 C4 1_555 1_555
H3 C5 1_555 1_555
C6 C5 1_555 1_555
C7 C2 1_555 1_555
C8 C7 1_555 1_555
C9 C10 1_555 1_555
C10 C11 1_555 1_555
C11 C12 1_555 1_555
C12 H4 1_555 1_555
C13 C12 1_555 1_555
H5 C13 1_555 1_555
C14 C13 1_555 1_555
H6 C14 1_555 1_555
C15 C10 1_555 1_555
C16 C15 1_555 1_555
C17 H7 1_555 1_555
C18 C17 1_555 1_555
H8 C18 1_555 1_555
C19 C18 1_555 1_555
H9 C19 1_555 1_555
C20 C19 1_555 1_555
C21 C20 1_555 1_555
H10 C21 1_555 1_555
C22 C20 1_555 1_555
C23 C24 1_555 1_555
C24 C25 1_555 1_555
C25 H11 1_555 1_555
C26 C25 1_555 1_555
H12 C26 1_555 1_555
C27 H13 1_555 1_555
C28 C24 1_555 1_555
H14 C28 1_555 1_555
Cl1 C6 1_555 1_555
Cl2 C11 1_555 1_555
N1 C17 1_555 1_555
N2 C22 1_555 1_555
N3 C22 1_555 1_555
N4 C23 1_555 1_555
N5 C26 1_555 1_555
O1 Cd1 1_555 1_555
O2 Cd1 1_555 1_555
O3 C8 1_555 1_555
O4 Cd2 1_555 1_555
O5 Cd1 1_555 1_555
O6 Cd1 1_555 1_555
O7 C16 1_555 1_555
O8 C16 1_555 1_555
O9 Cd1 1_555 1_555
O10 Cd2 1_555 1_555
H15 N3 1_555 1_555
H16 O9 1_555 1_555
H17 O9 1_555 1_555
H18 O10 1_555 1_555
H19 O10 1_555 1_555
Cd1A O7 1_555 1_555
Cd2_2 O2 1_555 1_555
Cd2A N5 1_555 1_555
Cd2A_2 O8 1_555 1_555
N5A Cd2 1_555 1_555
O2_2 Cd2 1_555 1_555
O7A Cd1 1_555 1_555
O8A Cd2 1_555 1_555
C1 O1 1_555 1_555
C1 O2 1_555 1_555
C6 C7 1_555 1_555
C8 O4 1_555 1_555
C9 O5 1_555 1_555
C9 O6 1_555 1_555
C14 C15 1_555 1_555
C21 N1 1_555 1_555
C23 N2 1_555 1_555
C27 C28 1_555 1_555
C27 N5 1_555 1_555
N3 N4 1_555 1_555

#END
