
#######################################################################
#
#                 Cambridge Crystallographic Data Centre
#                                CCDC 
#
#######################################################################
#
# If this CIF has been generated from an entry in the Cambridge 
# Structural Database, then it will include bibliographic, chemical, 
# crystal, experimental, refinement or atomic coordinate data resulting 
# from the CCDC's data processing and validation procedures.
#
#######################################################################

data_NEYRAK
_symmetry_cell_setting           triclinic
_symmetry_space_group_name_H-M   'P -1'
_symmetry_Int_Tables_number      2
_space_group_name_Hall           '-P 1'
loop_
_symmetry_equiv_pos_site_id
_symmetry_equiv_pos_as_xyz
1 x,y,z
2 -x,-y,-z
_cell_length_a                   8.22400(10)
_cell_length_b                   11.9317(3)
_cell_length_c                   15.0073(5)
_cell_angle_alpha                77.691(2)
_cell_angle_beta                 86.815(2)
_cell_angle_gamma                86.944(2)
_cell_volume                     1435.24
loop_
_atom_site_label
_atom_site_type_symbol
_atom_site_fract_x
_atom_site_fract_y
_atom_site_fract_z
Ag1 Ag -0.0039(1) 0.7027(1) 0.2631(1)
N1 N -0.1211(7) 0.5621(5) 0.3733(4)
N2 N -0.9025(7) -0.1873(5) 0.3497(4)
N3 N -0.9070(7) -0.3499(5) 0.1359(4)
N4 N -0.1966(8) -1.1542(6) 0.1869(4)
C1 C -0.2912(8) 0.4488(6) 0.5115(4)
C2 C -0.3832(8) 0.3593(5) 0.5007(4)
C3 C -0.4748(8) 0.3002(6) 0.5755(4)
C4 C -0.4738(8) 0.3359(6) 0.6588(4)
C5 C -0.3832(8) 0.4249(6) 0.6684(4)
C6 C -0.2897(8) 0.4838(6) 0.5949(5)
C7 C -0.1985(8) 0.5113(6) 0.4337(5)
C8 C -0.5684(8) 0.2041(6) 0.5689(4)
C9 C -0.6420(8) 0.1206(6) 0.5679(4)
C10 C -0.7332(8) 0.0218(5) 0.5698(4)
C11 C -0.7537(8) -0.0175(6) 0.4898(4)
C12 C -0.8500(8) -0.1104(5) 0.4934(4)
C13 C -0.9244(8) -0.1654(6) 0.5758(4)
C14 C -0.9018(9) -0.1271(6) 0.6546(4)
C15 C -0.8054(9) -0.0354(6) 0.6514(4)
C16 C -0.8770(8) -0.1515(6) 0.4122(5)
C17 C -0.8208(8) -0.4239(5) -0.0099(4)
C18 C -0.8841(9) -0.3701(6) -0.0919(5)
C19 C -0.8405(9) -0.4116(6) -0.1703(4)
C20 C -0.7341(8) -0.5054(6) -0.1650(4)
C21 C -0.6697(8) -0.5610(5) -0.0825(4)
C22 C -0.7140(8) -0.5192(5) -0.0040(4)
C23 C -0.8681(8) -0.3824(6) 0.0725(5)
C24 C -0.5635(9) -0.6614(6) -0.0762(4)
C25 C -0.4775(8) -0.7462(6) -0.0682(4)
C26 C -0.3782(8) -0.8510(6) -0.0600(4)
C27 C -0.3204(8) -0.8896(6) -0.1368(4)
C28 C -0.2321(9) -0.9914(6) -0.1311(5)
C29 C -0.3436(8) -0.9168(6) 0.0257(4)
C30 C -0.2559(8) -1.0199(6) 0.0318(4)
C31 C -0.1999(8) -1.0583(6) -0.0469(5)
C32 C -0.2230(9) -1.0938(6) 0.1190(5)
H1 H -0.3841(8) 0.3383(5) 0.4431(4)
H2 H -0.5376(8) 0.2972(6) 0.7097(4)
H3 H -0.3840(8) 0.4468(6) 0.7257(4)
H4 H -0.2266(8) 0.5459(6) 0.6009(5)
H5 H -0.7021(8) 0.0190(6) 0.4337(4)
H6 H -0.9903(8) -0.2289(6) 0.5776(4)
H7 H -0.9527(9) -0.1639(6) 0.7109(4)
H8 H -0.7879(9) -0.0108(6) 0.7062(4)
H9 H -0.9571(9) -0.3051(6) -0.0950(5)
H10 H -0.8840(9) -0.3752(6) -0.2272(4)
H11 H -0.7039(8) -0.5330(6) -0.2187(4)
H12 H -0.6715(8) -0.5558(5) 0.0530(4)
H13 H -0.3426(8) -0.8443(6) -0.1953(4)
H14 H -0.1933(9) -1.0156(6) -0.1850(5)
H15 H -0.3799(8) -0.8910(6) 0.0794(4)
H16 H -0.1404(8) -1.1296(6) -0.0420(5)
Ag1_2 Ag -1.0039(1) -0.2973(1) 0.2631(1)
N1_2 N -1.1211(7) -0.4379(5) 0.3733(4)
Ag1_3 Ag -0.0039(1) -1.2973(1) 0.2631(1)
N4_2 N -1.1966(8) -0.1542(6) 0.1869(4)
P1 P 0.3697(6) 0.2588(5) 0.2489(3)
F1 F 0.4024(13) 0.1246(5) 0.2842(5)
F2 F 0.5204(8) 0.2842(8) 0.3025(5)
F3 F 0.2534(10) 0.2625(8) 0.3367(5)
F4 F 0.3356(14) 0.3933(5) 0.2137(5)
F5 F 0.2173(8) 0.2349(8) 0.1949(6)
F6 F 0.4846(10) 0.2565(8) 0.1609(5)
P2? P 0.3612(15) 0.2558(11) 0.2476(8)
F7? F 0.3125(30) 0.1291(13) 0.2943(12)
F8? F 0.4722(25) 0.2596(18) 0.3303(12)
F9? F 0.2105(19) 0.3065(19) 0.3000(15)
F10? F 0.4083(30) 0.3834(13) 0.2005(12)
F11? F 0.2491(24) 0.2538(19) 0.1641(12)
F12? F 0.5113(19) 0.2075(20) 0.1943(15)
loop_
_geom_bond_atom_site_label_1
_geom_bond_atom_site_label_2
_geom_bond_site_symmetry_1
_geom_bond_site_symmetry_2
Ag1 N1 1_555 1_555
P1 F1 1_555 1_555
F2 P1 1_555 1_555
F3 P1 1_555 1_555
F4 P1 1_555 1_555
F5 P1 1_555 1_555
F6 P1 1_555 1_555
N1 C7 1_555 1_555
N2 C16 1_555 1_555
N3 C23 1_555 1_555
N4 C32 1_555 1_555
C1 C2 1_555 1_555
C2 C3 1_555 1_555
C3 C4 1_555 1_555
C4 C5 1_555 1_555
C5 C6 1_555 1_555
C6 C1 1_555 1_555
C7 C1 1_555 1_555
C8 C3 1_555 1_555
C9 C8 1_555 1_555
C10 C9 1_555 1_555
C11 C10 1_555 1_555
C12 C11 1_555 1_555
C13 C12 1_555 1_555
C14 C13 1_555 1_555
C15 C10 1_555 1_555
C16 C12 1_555 1_555
C17 C18 1_555 1_555
C18 C19 1_555 1_555
C19 C20 1_555 1_555
C20 C21 1_555 1_555
C21 C22 1_555 1_555
C22 C17 1_555 1_555
C23 C17 1_555 1_555
C24 C21 1_555 1_555
C25 C24 1_555 1_555
C26 C25 1_555 1_555
C27 C26 1_555 1_555
C28 C27 1_555 1_555
C29 C26 1_555 1_555
C30 C29 1_555 1_555
C31 C28 1_555 1_555
C32 C30 1_555 1_555
H1 C2 1_555 1_555
H2 C4 1_555 1_555
H3 C5 1_555 1_555
H4 C6 1_555 1_555
H5 C11 1_555 1_555
H6 C13 1_555 1_555
H7 C14 1_555 1_555
H8 C15 1_555 1_555
H9 C18 1_555 1_555
H10 C19 1_555 1_555
H11 C20 1_555 1_555
H12 C22 1_555 1_555
H13 C27 1_555 1_555
H14 C28 1_555 1_555
H15 C29 1_555 1_555
H16 C31 1_555 1_555
Ag1_2 N2 1_555 1_555
N1_2 Ag1_2 1_555 1_555
Ag1_3 N4 1_555 1_555
N4_2 Ag1_2 1_555 1_555
N3 Ag1_2 1_555 1_555
C14 C15 1_555 1_555
C30 C31 1_555 1_555

#END
