
#######################################################################
#
#                 Cambridge Crystallographic Data Centre
#                                CCDC 
#
#######################################################################
#
# If this CIF has been generated from an entry in the Cambridge 
# Structural Database, then it will include bibliographic, chemical, 
# crystal, experimental, refinement or atomic coordinate data resulting 
# from the CCDC's data processing and validation procedures.
#
#######################################################################

data_NEYSAN
_symmetry_cell_setting           monoclinic
_symmetry_space_group_name_H-M   'P 21/c'
_symmetry_Int_Tables_number      14
_space_group_name_Hall           '-P 2ybc'
loop_
_symmetry_equiv_pos_site_id
_symmetry_equiv_pos_as_xyz
1 x,y,z
2 -x,1/2+y,1/2-z
3 -x,-y,-z
4 x,1/2-y,1/2+z
_cell_length_a                   12.865(3)
_cell_length_b                   14.623(3)
_cell_length_c                   20.172(4)
_cell_angle_alpha                90
_cell_angle_beta                 97.44(3)
_cell_angle_gamma                90
_cell_volume                     3762.91
loop_
_atom_site_label
_atom_site_type_symbol
_atom_site_fract_x
_atom_site_fract_y
_atom_site_fract_z
Zn1 Zn 1.05309(5) -0.01991(4) 0.24593(3)
Zn2 Zn 0.58419(5) -0.04593(4) 0.23233(3)
C1 C 1.2396(5) -0.0699(4) 0.2003(3)
C2 C 1.2975(4) -0.1060(4) 0.1466(3)
C3 C 1.2640(5) -0.0830(4) 0.0800(3)
H1 H 1.2056 -0.0456 0.0701
C4 C 1.3149(5) -0.1141(4) 0.0294(3)
H2 H 1.2924 -0.0968 -0.0145
C5 C 1.4000(5) -0.1713(4) 0.0435(3)
H3 H 1.4352 -0.1932 0.0093
C6 C 1.4318(4) -0.1955(4) 0.1083(3)
C7 C 1.3841(4) -0.1628(3) 0.1612(3)
C8 C 1.4255(5) -0.1909(4) 0.2329(3)
C9 C 0.8999(5) -0.1707(4) 0.2318(3)
C10 C 0.9007(4) -0.1589(3) 0.1569(3)
C11 C 0.9837(5) -0.1918(4) 0.1283(3)
C12 C 0.9929(5) -0.1787(4) 0.0614(3)
H4 H 1.0501 -0.2018 0.0429
C13 C 0.9164(6) -0.1314(5) 0.0233(3)
H5 H 0.9236 -0.1185 -0.0210
C14 C 0.8285(5) -0.1024(4) 0.0492(3)
H6 H 0.7749 -0.0736 0.0216
C15 C 0.8188(4) -0.1156(4) 0.1161(3)
C16 C 0.7183(5) -0.0833(4) 0.1404(4)
C17 C 0.6934(5) 0.0760(4) 0.3391(3)
H7 H 0.7214 0.1010 0.3029
C18 C 0.7222(5) 0.1131(4) 0.4011(3)
H8 H 0.7689 0.1619 0.4063
C19 C 0.6819(5) 0.0778(4) 0.4557(3)
C20 C 0.6143(5) 0.0051(4) 0.4446(3)
H9 H 0.5851 -0.0208 0.4800
C21 C 0.5897(5) -0.0298(4) 0.3808(3)
H10 H 0.5452 -0.0801 0.3747
C22 C 0.7055(5) 0.1229(4) 0.5212(3)
C23 C 0.7744(5) 0.2127(4) 0.5942(3)
C24 C 0.8404(5) 0.2834(4) 0.6317(3)
C25 C 0.9436(5) 0.2919(4) 0.6221(3)
H11 H 0.9732 0.2518 0.5941
C26 C 1.0025(5) 0.3609(4) 0.6546(3)
H12 H 1.0722 0.3671 0.6476
C27 C 0.8641(5) 0.4101(4) 0.7047(3)
H13 H 0.8364 0.4509 0.7332
C28 C 0.7990(5) 0.3432(4) 0.6741(3)
H14 H 0.7295 0.3386 0.6819
C29 C 0.4805(5) 0.0721(4) 0.1206(3)
H15 H 0.5214 0.0396 0.0940
C30 C 0.4129(5) 0.1373(4) 0.0916(3)
H16 H 0.4082 0.1479 0.0459
C31 C 0.3524(4) 0.1870(3) 0.1294(3)
C32 C 0.3593(4) 0.1680(4) 0.1964(3)
H17 H 0.3182 0.1993 0.2235
C33 C 0.4291(4) 0.1008(4) 0.2228(3)
H18 H 0.4338 0.0883 0.2683
C34 C 0.2806(4) 0.2552(3) 0.0965(3)
C35 C 0.1980(5) 0.3405(4) 0.0242(3)
C36 C 0.1650(5) 0.3853(4) -0.0401(3)
C37 C 0.2210(5) 0.3763(4) -0.0919(3)
H19 H 0.2817 0.3412 -0.0871
C38 C 0.1884(5) 0.4191(4) -0.1516(3)
H20 H 0.2289 0.4123 -0.1863
C39 C 0.0460(6) 0.4763(5) -0.1129(3)
H21 H -0.0150 0.5112 -0.1194
C40 C 0.0731(6) 0.4340(5) -0.0513(3)
H22 H 0.0295 0.4387 -0.0181
Cl1 Cl 1.53664(14) -0.27162(12) 0.12456(9)
Cl2 Cl 1.08118(13) -0.25380(11) 0.17713(9)
N1 N 0.6267(4) 0.0053(3) 0.3280(2)
N2 N 0.7882(4) 0.1802(3) 0.5351(2)
N3 N 0.6434(5) 0.1174(4) 0.5678(3)
N4 N 0.6886(5) 0.1776(4) 0.6144(3)
N5 N 0.9635(4) 0.4193(3) 0.6958(2)
N6 N 0.4895(4) 0.0535(3) 0.1865(2)
N7 N 0.2801(4) 0.2821(3) 0.0334(2)
N8 N 0.1485(4) 0.3523(3) 0.0773(2)
N9 N 0.2029(4) 0.2968(3) 0.1229(2)
N10 N 0.1028(4) 0.4691(3) -0.1623(2)
O1 O 1.1479(3) -0.0357(3) 0.1815(2)
O2 O 1.2770(4) -0.0740(3) 0.2600(2)
O3 O 1.3814(3) -0.2517(3) 0.2601(2)
O4 O 1.5068(3) -0.1493(2) 0.26025(19)
O5 O 0.9556(3) -0.1131(2) 0.26925(18)
O6 O 0.8502(3) -0.2334(3) 0.25294(19)
O7 O 0.7171(3) -0.0775(3) 0.2037(2)
O8 O 0.6435(4) -0.0652(4) 0.0978(3)
H23 H 0.185(5) 0.289(4) 0.1629(14)
H24 H 0.658(6) 0.183(5) 0.651(2)
Zn1C Zn 0.05309(5) 0.51991(4) -0.25407(3)
Zn1C_2 Zn 1.05309(5) 0.51991(4) 0.74593(3)
Zn2_2 Zn 1.58419(5) -0.04593(4) 0.23233(3)
N5C N 0.9635(4) 0.0807(3) 0.1958(2)
N10C N 1.1028(4) 0.0309(3) 0.3377(2)
O4_2 O 0.5068(3) -0.1493(2) 0.26025(19)
loop_
_geom_bond_atom_site_label_1
_geom_bond_atom_site_label_2
_geom_bond_site_symmetry_1
_geom_bond_site_symmetry_2
Zn1 O1 1_555 1_555
Zn2 N1 1_555 1_555
C1 C2 1_555 1_555
C2 C3 1_555 1_555
C3 H1 1_555 1_555
C4 C3 1_555 1_555
H2 C4 1_555 1_555
C5 C4 1_555 1_555
H3 C5 1_555 1_555
C6 C5 1_555 1_555
C7 C2 1_555 1_555
C8 C7 1_555 1_555
C9 C10 1_555 1_555
C10 C11 1_555 1_555
C11 C12 1_555 1_555
C12 H4 1_555 1_555
C13 C12 1_555 1_555
H5 C13 1_555 1_555
C14 C13 1_555 1_555
H6 C14 1_555 1_555
C15 C10 1_555 1_555
C16 C15 1_555 1_555
C17 H7 1_555 1_555
C18 C17 1_555 1_555
H8 C18 1_555 1_555
C19 C18 1_555 1_555
C20 C19 1_555 1_555
H9 C20 1_555 1_555
C21 C20 1_555 1_555
H10 C21 1_555 1_555
C22 C19 1_555 1_555
C23 C24 1_555 1_555
C24 C25 1_555 1_555
C25 H11 1_555 1_555
C26 C25 1_555 1_555
H12 C26 1_555 1_555
C27 H13 1_555 1_555
C28 C24 1_555 1_555
H14 C28 1_555 1_555
C29 H15 1_555 1_555
C30 C29 1_555 1_555
H16 C30 1_555 1_555
C31 C30 1_555 1_555
C32 C31 1_555 1_555
H17 C32 1_555 1_555
C33 C32 1_555 1_555
H18 C33 1_555 1_555
C34 C31 1_555 1_555
C35 C36 1_555 1_555
C36 C37 1_555 1_555
C37 H19 1_555 1_555
C38 C37 1_555 1_555
H20 C38 1_555 1_555
C39 H21 1_555 1_555
C40 C36 1_555 1_555
H22 C40 1_555 1_555
Cl1 C6 1_555 1_555
Cl2 C11 1_555 1_555
N1 C17 1_555 1_555
N2 C22 1_555 1_555
N3 C22 1_555 1_555
N4 C23 1_555 1_555
N5 C26 1_555 1_555
N6 Zn2 1_555 1_555
N7 C34 1_555 1_555
N8 C35 1_555 1_555
N9 C34 1_555 1_555
N10 C38 1_555 1_555
O1 C1 1_555 1_555
O2 C1 1_555 1_555
O3 C8 1_555 1_555
O4 C8 1_555 1_555
O5 Zn1 1_555 1_555
O6 C9 1_555 1_555
O7 Zn2 1_555 1_555
O8 C16 1_555 1_555
H23 N9 1_555 1_555
H24 N4 1_555 1_555
Zn1C N10 1_555 1_555
Zn1C_2 N5 1_555 1_555
Zn2_2 O4 1_555 1_555
N5C Zn1 1_555 1_555
N10C Zn1 1_555 1_555
O4_2 Zn2 1_555 1_555
C6 C7 1_555 1_555
C9 O5 1_555 1_555
C14 C15 1_555 1_555
C16 O7 1_555 1_555
C21 N1 1_555 1_555
C23 N2 1_555 1_555
C27 C28 1_555 1_555
C27 N5 1_555 1_555
C29 N6 1_555 1_555
C33 N6 1_555 1_555
C35 N7 1_555 1_555
C39 C40 1_555 1_555
C39 N10 1_555 1_555
N3 N4 1_555 1_555
N8 N9 1_555 1_555

#END
