
#######################################################################
#
#                 Cambridge Crystallographic Data Centre
#                                CCDC 
#
#######################################################################
#
# If this CIF has been generated from an entry in the Cambridge 
# Structural Database, then it will include bibliographic, chemical, 
# crystal, experimental, refinement or atomic coordinate data resulting 
# from the CCDC's data processing and validation procedures.
#
#######################################################################

data_NEYXIA
_symmetry_cell_setting           monoclinic
_symmetry_space_group_name_H-M   'P 21/a'
_symmetry_Int_Tables_number      14
_space_group_name_Hall           '-P 2yab'
loop_
_symmetry_equiv_pos_site_id
_symmetry_equiv_pos_as_xyz
1 x,y,z
2 1/2-x,1/2+y,-z
3 -x,-y,-z
4 1/2+x,1/2-y,z
_cell_length_a                   22.0121(2)
_cell_length_b                   6.69730(10)
_cell_length_c                   26.4380(4)
_cell_angle_alpha                90
_cell_angle_beta                 108.4469(4)
_cell_angle_gamma                90
_cell_volume                     3697.27
loop_
_atom_site_label
_atom_site_type_symbol
_atom_site_fract_x
_atom_site_fract_y
_atom_site_fract_z
Er1 Er 0.381092(10) 0.63929(4) 0.091220(10)
O1 O 0.38457(17) 0.8638(6) 0.16134(17)
O2 O 0.39209(19) 0.2870(6) 0.08114(19)
O3 O 0.36948(17) 0.6485(6) 0.00003(17)
O4 O 0.45096(18) 0.5127(6) 0.17638(17)
O5 O 0.31520(18) 0.9200(6) 0.05442(17)
O6 O 0.27110(17) 0.5069(7) 0.04551(17)
O7 O 0.30210(17) 0.5288(6) 0.13255(17)
O8 O -0.01108(18) 0.9097(6) 0.08631(18)
O9 O -0.03792(17) 0.5981(6) 0.09121(17)
O10 O 0.23846(18) 0.1217(6) 0.09079(18)
O11 O 0.28604(19) 0.0583(7) 0.17702(19)
O12 O 0.03779(19) 0.6858(6) 0.20328(18)
O13 O -0.01184(17) 0.3898(6) 0.19572(17)
C1 C 0.1895(2) 0.5338(8) 0.0883(2)
C2 C 0.1564(3) 0.6875(9) 0.0579(3)
H1 H 0.1735 0.7524 0.0344
C3 C 0.0971(2) 0.7492(9) 0.0616(3)
H2 H 0.0746 0.8509 0.0395
C4 C 0.0719(2) 0.6622(8) 0.0969(2)
C5 C 0.1052(2) 0.5046(8) 0.1312(2)
C6 C 0.1630(2) 0.4318(8) 0.1243(2)
C7 C 0.1918(2) 0.2549(8) 0.1521(2)
C8 C 0.1672(3) 0.1686(10) 0.1888(3)
H3 H 0.1866 0.0555 0.2074
C9 C 0.1131(3) 0.2499(9) 0.1983(3)
H4 H 0.0975 0.1908 0.2236
C10 C 0.0829(2) 0.4141(8) 0.1712(2)
C11 C 0.2584(2) 0.5133(8) 0.0888(2)
C12 C 0.0045(2) 0.7267(9) 0.0922(2)
C13 C 0.2432(3) 0.1394(9) 0.1392(3)
C14 C 0.0318(2) 0.5053(9) 0.1909(2)
Er1C Er -0.118908(10) 0.86071(4) 0.091220(10)
O8C O 0.48892(18) 0.5903(6) 0.08631(18)
O9C O 0.46208(17) 0.9019(6) 0.09121(17)
Er2 Er 0.206382(11) 0.24738(4) 0.386179(11)
O14 O 0.11118(19) 0.0710(7) 0.33558(19)
O15 O 0.2608(2) 0.4244(7) 0.33416(19)
O16 O 0.1353(2) 0.4820(7) 0.33256(19)
O17 O 0.2172(2) -0.0301(7) 0.4410(2)
O18 O 0.2355(2) 0.0094(7) 0.3333(2)
O19 O 0.2375(2) 0.5282(7) 0.4397(2)
O20 O 0.16008(18) 0.2833(7) 0.51913(19)
O21 O 0.13340(19) 0.2938(7) 0.43102(19)
O22 O -0.18617(17) 0.2968(7) 0.42924(19)
O23 O -0.14633(19) 0.2870(7) 0.51810(19)
C15 C 0.0516(2) 0.3517(9) 0.4690(2)
C16 C 0.0083(3) 0.2262(10) 0.4370(3)
H5 H 0.021 0.138 0.4151
C17 C -0.0559(3) 0.2272(9) 0.4364(3)
H6 H -0.0851 0.1404 0.4139
C18 C -0.0758(2) 0.3538(9) 0.4684(2)
C19 C 0.0327(2) 0.4986(8) 0.4997(2)
C20 C 0.1208(2) 0.3106(8) 0.4732(3)
C21 C -0.1413(2) 0.3121(9) 0.4727(3)
O20B O -0.16008(18) 0.7167(7) 0.48087(19)
O21B O -0.13340(19) 0.7062(7) 0.56898(19)
O22B O 0.18617(17) 0.7032(7) 0.57076(19)
O23B O 0.14633(19) 0.7130(7) 0.48190(19)
C15B C -0.0516(2) 0.6483(9) 0.5310(2)
C16B C -0.0083(3) 0.7738(10) 0.5630(3)
H5B H -0.021 0.862 0.5849
C17B C 0.0559(3) 0.7728(9) 0.5636(3)
H6B H 0.0851 0.8596 0.5861
C18B C 0.0758(2) 0.6462(9) 0.5316(2)
C19B C -0.0327(2) 0.5014(8) 0.5003(2)
C20B C -0.1208(2) 0.6894(8) 0.5268(3)
C21B C 0.1413(2) 0.6879(9) 0.5273(3)
Er2B Er -0.206382(11) 0.75262(4) 0.613821(11)
O14B O -0.11118(19) 0.9290(7) 0.66442(19)
O15B O -0.2608(2) 0.5756(7) 0.66584(19)
O16B O -0.1353(2) 0.5180(7) 0.66744(19)
O17B O -0.2172(2) 1.0301(7) 0.5590(2)
O18B O -0.2355(2) 0.9906(7) 0.6667(2)
O19B O -0.2375(2) 0.4718(7) 0.5603(2)
Er2A Er 0.293618(11) 0.74738(4) 0.613821(11)
Er2C Er -0.293618(11) 0.25262(4) 0.386179(11)
O22A O -0.31383(17) 0.7968(7) 0.57076(19)
O22C O 0.31383(17) 0.2032(7) 0.42924(19)
O24 O 0.1638(2) 0.7401(7) 0.26242(19)
O25 O 0.5311(2) 0.2777(7) 0.0380(2)
O26 O 0.0672(2) 0.7400(8) 0.3787(2)
O27 O 0.3407(2) 0.7571(8) 0.3771(2)
O28 O 0.2675(3) 0.6836(9) 0.2226(2)
O29 O 0.4919(3) 0.2291(9) 0.2980(2)
O30 O 0.4041(3) 0.5679(10) 0.2643(3)
O31 O 0.3317(3) 0.2166(11) 0.2796(3)
O32 O 0.4365(3) 0.8783(11) 0.3323(3)
loop_
_geom_bond_atom_site_label_1
_geom_bond_atom_site_label_2
_geom_bond_site_symmetry_1
_geom_bond_site_symmetry_2
Er1 O1 1_555 1_555
O2 Er1 1_555 1_555
O3 Er1 1_555 1_555
O4 Er1 1_555 1_555
O5 Er1 1_555 1_555
O6 Er1 1_555 1_555
O7 Er1 1_555 1_555
O8 C12 1_555 1_555
O9 C12 1_555 1_555
O10 C13 1_555 1_555
O11 C13 1_555 1_555
O12 C14 1_555 1_555
O13 C14 1_555 1_555
C1 C2 1_555 1_555
C2 H1 1_555 1_555
C3 C2 1_555 1_555
H2 C3 1_555 1_555
C4 C3 1_555 1_555
C5 C4 1_555 1_555
C6 C1 1_555 1_555
C7 C6 1_555 1_555
C8 C7 1_555 1_555
H3 C8 1_555 1_555
C9 C8 1_555 1_555
H4 C9 1_555 1_555
C10 C5 1_555 1_555
C11 O6 1_555 1_555
C12 C4 1_555 1_555
C13 C7 1_555 1_555
C14 C10 1_555 1_555
Er2 O14 1_555 1_555
O15 Er2 1_555 1_555
O16 Er2 1_555 1_555
O17 Er2 1_555 1_555
O18 Er2 1_555 1_555
O19 Er2 1_555 1_555
O20 C20 1_555 1_555
O21 Er2 1_555 1_555
O22 C21 1_555 1_555
O23 C21 1_555 1_555
C15 C16 1_555 1_555
C16 H5 1_555 1_555
C17 C16 1_555 1_555
H6 C17 1_555 1_555
C18 C17 1_555 1_555
C19 C15 1_555 1_555
C20 O21 1_555 1_555
C21 C18 1_555 1_555
Er1C O8 1_555 1_555
O8C Er1 1_555 1_555
O9C Er1 1_555 1_555
O20B C20B 1_555 1_555
O21B C20B 1_555 1_555
O22B C21B 1_555 1_555
O23B C21B 1_555 1_555
C15B C16B 1_555 1_555
C16B H5B 1_555 1_555
C17B C16B 1_555 1_555
H6B C17B 1_555 1_555
C18B C19 1_555 1_555
C19B C18 1_555 1_555
C20B C15B 1_555 1_555
C21B C18B 1_555 1_555
Er2B O21B 1_555 1_555
O14B Er2B 1_555 1_555
O15B Er2B 1_555 1_555
O16B Er2B 1_555 1_555
O17B Er2B 1_555 1_555
O18B Er2B 1_555 1_555
O19B Er2B 1_555 1_555
Er2A O22B 1_555 1_555
Er2C O22 1_555 1_555
O22A Er2B 1_555 1_555
O22C Er2 1_555 1_555
O7 C11 1_555 1_555
O9 Er1C 1_555 1_555
C1 C11 1_555 1_555
C5 C6 1_555 1_555
C9 C10 1_555 1_555
C15 C20 1_555 1_555
C19 C19B 1_555 1_555
C15B C19B 1_555 1_555
C17B C18B 1_555 1_555

#END
