
#######################################################################
#
#                 Cambridge Crystallographic Data Centre
#                                CCDC 
#
#######################################################################
#
# If this CIF has been generated from an entry in the Cambridge 
# Structural Database, then it will include bibliographic, chemical, 
# crystal, experimental, refinement or atomic coordinate data resulting 
# from the CCDC's data processing and validation procedures.
#
#######################################################################

data_NEYXOF
_symmetry_cell_setting           monoclinic
_symmetry_space_group_name_H-M   'P 21/c'
_symmetry_Int_Tables_number      14
_space_group_name_Hall           '-P 2ybc'
loop_
_symmetry_equiv_pos_site_id
_symmetry_equiv_pos_as_xyz
1 x,y,z
2 -x,1/2+y,1/2-z
3 -x,-y,-z
4 x,1/2-y,1/2+z
_cell_length_a                   10.0187(14)
_cell_length_b                   10.2543(14)
_cell_length_c                   21.464(3)
_cell_angle_alpha                90
_cell_angle_beta                 97.084(3)
_cell_angle_gamma                90
_cell_volume                     2188.27
loop_
_atom_site_label
_atom_site_type_symbol
_atom_site_fract_x
_atom_site_fract_y
_atom_site_fract_z
Mo1 Mo 0.09781(4) 0.10216(4) 0.431647(19)
Mo2 Mo 0.57147(4) -0.22466(4) 0.41187(2)
Ni1 Ni 0.06465(6) 0.22111(6) 0.58469(3)
Ni2 Ni 0.45333(6) 0.08393(6) 0.43774(3)
O1 O 0.0680(3) 0.2238(3) 0.48808(16)
O2 O -0.0265(3) -0.0200(3) 0.42299(16)
O3 O 0.1033(4) 0.1842(3) 0.36080(16)
O4 O 0.2586(3) 0.0312(3) 0.45107(16)
O5 O 0.5012(3) -0.1119(3) 0.46339(15)
O6 O 0.2682(3) 0.1690(3) 0.60140(16)
O7 O 0.5837(4) -0.3787(3) 0.44550(16)
O8 O 0.4689(3) -0.2284(3) 0.33945(16)
O9 O -0.1430(3) 0.5344(3) 0.54300(16)
H1 H -0.2238 0.5313 0.5309
O10 O -0.2079(3) 0.1904(3) 0.69111(16)
H2 H -0.2875 0.1871 0.6767
O11 O 0.1835(4) 0.4675(4) 0.72519(18)
H3 H 0.1924 0.4445 0.7620
O12 O 0.2838(4) 0.3063(4) 0.29380(18)
H4 H 0.2600 0.2751 0.2590
O13 O 0.6786(4) 0.0230(4) 0.29999(17)
H5 H 0.7313 -0.0019 0.3299
O14 O 0.6794(3) 0.3726(3) 0.44970(16)
H6 H 0.6523 0.4457 0.4572
N1 N -0.1373(4) 0.2667(4) 0.57121(19)
H7 H -0.1573 0.2963 0.5317
H8 H -0.1841 0.1926 0.5743
N2 N 0.0643(4) 0.2163(4) 0.6812(2)
H9 H 0.0300 0.1391 0.6912
H10 H 0.1503 0.2187 0.6991
N3 N 0.1104(4) 0.4197(4) 0.5933(2)
H11 H 0.1973 0.4271 0.6096
H12 H 0.1026 0.4542 0.5545
N4 N 0.4124(4) 0.0590(4) 0.34065(19)
H13 H 0.4388 -0.0218 0.3313
H14 H 0.3227 0.0628 0.3303
N5 N 0.6548(4) 0.1165(4) 0.42954(19)
H15 H 0.6931 0.1522 0.4657
H16 H 0.6943 0.0386 0.4256
N6 N 0.4116(4) 0.2824(4) 0.4237(2)
H17 H 0.3219 0.2918 0.4147
H18 H 0.4365 0.3244 0.4601
C1 C -0.1196(5) 0.4960(5) 0.6068(2)
H19 H -0.1654 0.5592 0.6311
C2 C -0.1854(5) 0.3638(5) 0.6142(2)
H20 H -0.2828 0.3736 0.6035
C3 C -0.1575(5) 0.3189(5) 0.6829(2)
H21 H -0.2057 0.3784 0.7081
C4 C -0.0105(5) 0.3207(5) 0.7102(2)
H22 H -0.0045 0.3043 0.7554
C5 C 0.0467(5) 0.4575(5) 0.7000(2)
H23 H -0.0036 0.5193 0.7230
C6 C 0.0294(5) 0.5002(5) 0.6319(2)
H24 H 0.0600 0.5908 0.6302
C7 C 0.4261(5) 0.2917(5) 0.3088(2)
H25 H 0.4669 0.3448 0.2782
C8 C 0.4745(5) 0.1520(5) 0.3006(2)
H26 H 0.4482 0.1267 0.2568
C9 C 0.6291(5) 0.1487(5) 0.3131(2)
H27 H 0.6613 0.2078 0.2823
C10 C 0.6862(5) 0.2005(5) 0.3774(2)
H28 H 0.7842 0.2067 0.3790
C11 C 0.6302(5) 0.3373(5) 0.3865(2)
H29 H 0.6695 0.3972 0.3582
C12 C 0.4769(5) 0.3481(5) 0.3734(2)
H30 H 0.4529 0.4408 0.3733
Mo2B Mo 0.42853(4) 0.22466(4) 0.58813(2)
Ni1B Ni -0.06465(6) -0.22111(6) 0.41531(3)
Ni2B Ni 0.54667(6) -0.08393(6) 0.56226(3)
O2B O 0.0265(3) 0.0200(3) 0.57701(16)
O5B O 0.4988(3) 0.1119(3) 0.53661(15)
O6B O 0.7318(3) -0.1690(3) 0.39860(16)
loop_
_geom_bond_atom_site_label_1
_geom_bond_atom_site_label_2
_geom_bond_site_symmetry_1
_geom_bond_site_symmetry_2
Mo1 O1 1_555 1_555
Mo2 O5 1_555 1_555
Ni1 O1 1_555 1_555
Ni2 O4 1_555 1_555
O2 Mo1 1_555 1_555
O3 Mo1 1_555 1_555
O4 Mo1 1_555 1_555
O5 Ni2 1_555 1_555
O6 Ni1 1_555 1_555
O7 Mo2 1_555 1_555
O8 Mo2 1_555 1_555
O9 H1 1_555 1_555
O10 H2 1_555 1_555
O11 H3 1_555 1_555
O12 H4 1_555 1_555
O13 H5 1_555 1_555
O14 H6 1_555 1_555
N1 Ni1 1_555 1_555
H7 N1 1_555 1_555
H8 N1 1_555 1_555
N2 Ni1 1_555 1_555
H9 N2 1_555 1_555
H10 N2 1_555 1_555
N3 Ni1 1_555 1_555
H11 N3 1_555 1_555
H12 N3 1_555 1_555
N4 Ni2 1_555 1_555
H13 N4 1_555 1_555
H14 N4 1_555 1_555
N5 Ni2 1_555 1_555
H15 N5 1_555 1_555
H16 N5 1_555 1_555
N6 Ni2 1_555 1_555
H17 N6 1_555 1_555
H18 N6 1_555 1_555
C1 O9 1_555 1_555
H19 C1 1_555 1_555
C2 N1 1_555 1_555
H20 C2 1_555 1_555
C3 O10 1_555 1_555
H21 C3 1_555 1_555
C4 N2 1_555 1_555
H22 C4 1_555 1_555
C5 O11 1_555 1_555
H23 C5 1_555 1_555
C6 N3 1_555 1_555
H24 C6 1_555 1_555
C7 O12 1_555 1_555
H25 C7 1_555 1_555
C8 N4 1_555 1_555
H26 C8 1_555 1_555
C9 O13 1_555 1_555
H27 C9 1_555 1_555
C10 N5 1_555 1_555
H28 C10 1_555 1_555
C11 O14 1_555 1_555
H29 C11 1_555 1_555
C12 N6 1_555 1_555
H30 C12 1_555 1_555
Mo2B O6 1_555 1_555
Ni1B O2 1_555 1_555
Ni2B O5 1_555 1_555
O2B Ni1 1_555 1_555
O5B Ni2 1_555 1_555
O6B Mo2 1_555 1_555
C1 C2 1_555 1_555
C1 C6 1_555 1_555
C2 C3 1_555 1_555
C3 C4 1_555 1_555
C4 C5 1_555 1_555
C5 C6 1_555 1_555
C7 C8 1_555 1_555
C7 C12 1_555 1_555
C8 C9 1_555 1_555
C9 C10 1_555 1_555
C10 C11 1_555 1_555
C11 C12 1_555 1_555
Mo2B O5B 1_555 1_555
Ni2B O5B 1_555 1_555

#END
