
#######################################################################
#
#                 Cambridge Crystallographic Data Centre
#                                CCDC 
#
#######################################################################
#
# If this CIF has been generated from an entry in the Cambridge 
# Structural Database, then it will include bibliographic, chemical, 
# crystal, experimental, refinement or atomic coordinate data resulting 
# from the CCDC's data processing and validation procedures.
#
#######################################################################

data_NEYYOH
_symmetry_cell_setting           triclinic
_symmetry_space_group_name_H-M   'P -1'
_symmetry_Int_Tables_number      2
_space_group_name_Hall           '-P 1'
loop_
_symmetry_equiv_pos_site_id
_symmetry_equiv_pos_as_xyz
1 x,y,z
2 -x,-y,-z
_cell_length_a                   6.8866(6)
_cell_length_b                   7.0305(6)
_cell_length_c                   7.2471(6)
_cell_angle_alpha                91.537(7)
_cell_angle_beta                 102.694(7)
_cell_angle_gamma                113.507(8)
_cell_volume                     311.314
loop_
_atom_site_label
_atom_site_type_symbol
_atom_site_fract_x
_atom_site_fract_y
_atom_site_fract_z
Co1 Co 0.5000 0.5000 0.5000
S1 S 0.80507(16) 0.37870(15) -0.32519(13)
O1 O 0.8990(4) -0.0278(4) 0.2017(4)
O2 O 0.5046(4) 0.3863(4) 0.2263(4)
O3 O 0.2568(4) 0.2205(4) 0.5120(4)
N1 N 0.8459(5) 0.1691(5) -0.0299(4)
H1 H 0.9251 0.1306 -0.0853
N2 N 0.6511(5) 0.3635(5) -0.0183(4)
H2 H 0.5999 0.4490 -0.0679
C1 C 0.6823(6) 0.1570(6) 0.2283(5)
H3 H 0.6456 0.1008 0.3370
C2 C 0.8109(6) 0.0937(6) 0.1391(5)
C3 C 0.6100(6) 0.3028(6) 0.1552(5)
C4 C 0.7638(6) 0.2994(6) -0.1141(5)
S1A S 0.19493(16) 0.62130(15) 0.32519(13)
O1A O 0.1010(4) 1.0278(4) -0.2017(4)
O2A O 0.4954(4) 0.6137(4) -0.2263(4)
N1A N 0.1541(5) 0.8309(5) 0.0299(4)
H1A H 0.0749 0.8694 0.0853
N2A N 0.3489(5) 0.6365(5) 0.0183(4)
H2A H 0.4001 0.5510 0.0679
C1A C 0.3177(6) 0.8430(6) -0.2283(5)
H3A H 0.3544 0.8992 -0.3370
C2A C 0.1891(6) 0.9063(6) -0.1391(5)
C3A C 0.3900(6) 0.6972(6) -0.1552(5)
C4A C 0.2362(6) 0.7006(6) 0.1141(5)
O3A O 0.7432(4) 0.7795(4) 0.4880(4)
Co1_2 Co 0.5000 0.5000 -0.5000
S1_2 S 0.80507(16) 0.37870(15) 0.67481(13)
O2A_2 O 0.4954(4) 0.6137(4) 0.7737(4)
loop_
_geom_bond_atom_site_label_1
_geom_bond_atom_site_label_2
_geom_bond_site_symmetry_1
_geom_bond_site_symmetry_2
Co1 O2 1_555 1_555
S1 C4 1_555 1_555
O1 C2 1_555 1_555
O2 C3 1_555 1_555
O3 Co1 1_555 1_555
N1 H1 1_555 1_555
N2 H2 1_555 1_555
C1 H3 1_555 1_555
C2 N1 1_555 1_555
C3 N2 1_555 1_555
C4 N1 1_555 1_555
S1A Co1 1_555 1_555
O1A C2A 1_555 1_555
O2A C3A 1_555 1_555
N1A H1A 1_555 1_555
N2A H2A 1_555 1_555
C1A H3A 1_555 1_555
C2A N1A 1_555 1_555
C3A N2A 1_555 1_555
C4A S1A 1_555 1_555
O3A Co1 1_555 1_555
Co1_2 S1 1_555 1_555
S1_2 Co1 1_555 1_555
O2A_2 Co1 1_555 1_555
N2 C4 1_555 1_555
C1 C2 1_555 1_555
C1 C3 1_555 1_555
O2A Co1_2 1_555 1_555
N1A C4A 1_555 1_555
N2A C4A 1_555 1_555
C1A C2A 1_555 1_555
C1A C3A 1_555 1_555

#END
