
#######################################################################
#
#                 Cambridge Crystallographic Data Centre
#                                CCDC 
#
#######################################################################
#
# If this CIF has been generated from an entry in the Cambridge 
# Structural Database, then it will include bibliographic, chemical, 
# crystal, experimental, refinement or atomic coordinate data resulting 
# from the CCDC's data processing and validation procedures.
#
#######################################################################

data_NEYYOG
_symmetry_cell_setting           hexagonal
_symmetry_space_group_name_H-M   'P 6/m c c'
_symmetry_Int_Tables_number      192
_space_group_name_Hall           "-P 6 2'c"
loop_
_symmetry_equiv_pos_site_id
_symmetry_equiv_pos_as_xyz
1 x,y,z
2 -y,x-y,z
3 -x+y,-x,z
4 y,-x+y,z
5 x-y,x,z
6 y,x,1/2-z
7 -x+y,y,1/2-z
8 x,x-y,1/2-z
9 -x,-y,z
10 x-y,-y,1/2-z
11 -x,-x+y,1/2-z
12 -y,-x,1/2-z
13 -x,-y,-z
14 y,-x+y,-z
15 x-y,x,-z
16 -y,x-y,-z
17 -x+y,-x,-z
18 -y,-x,1/2+z
19 x-y,-y,1/2+z
20 -x,-x+y,1/2+z
21 x,y,-z
22 -x+y,y,1/2+z
23 x,x-y,1/2+z
24 y,x,1/2+z
_cell_length_a                   25.245(4)
_cell_length_b                   25.245(4)
_cell_length_c                   15.488(3)
_cell_angle_alpha                90
_cell_angle_beta                 90
_cell_angle_gamma                120
_cell_volume                     8548.24
loop_
_atom_site_label
_atom_site_type_symbol
_atom_site_fract_x
_atom_site_fract_y
_atom_site_fract_z
Cu1 Cu 0.48672(7) 0.15195(8) -0.08660(10)
Cu2 Cu 0.41641(11) 0.18300(10) 0.0000
Cu3 Cu 0.38646(11) 0.06917(10) 0.0000
I1 I 0.37516(4) 0.11743(4) -0.14844(5)
I2 I 0.54132(5) 0.25732(5) 0.0000
I3 I 0.48896(15) 0.06053(16) 0.0000
N1 N 0.5427(4) 0.1540(5) -0.1875(7)
N2 N 0.3837(6) 0.2441(7) 0.0000
N3 N 0.3441(7) 0.3218(6) 0.0000
C1 C 0.5208(10) 0.0910(9) -0.2169(15)
H1 H 0.4815 0.0752 -0.2454
H2 H 0.5156 0.0650 -0.1678
C2 C 0.6063(7) 0.1805(10) -0.1620(11)
H3 H 0.6096 0.1546 -0.1186
H4 H 0.6198 0.2202 -0.1360
C3 C 0.5401(8) 0.1881(10) -0.2638(9)
H5 H 0.5582 0.2311 -0.2496
H6 H 0.4978 0.1728 -0.2801
C4 C 0.4054(7) 0.2837(7) -0.0754(9)
H7 H 0.3911 0.2589 -0.1273
H8 H 0.4497 0.3055 -0.0762
C5 C 0.3150(8) 0.2120(10) 0.0000
H9 H 0.2991 0.1863 0.0507
H10 H 0.2991 0.1863 -0.0507
C6 C 0.3828(7) 0.3298(6) -0.0753(9)
H11 H 0.3597 0.3249 -0.1277
H12 H 0.4177 0.3710 -0.0750
C7 C 0.2935(10) 0.2618(9) 0.0000
H13 H 0.2685 0.2560 -0.0507
H14 H 0.2685 0.2560 0.0507
Cu1T Cu 0.48672(7) 0.15195(8) 0.08660(10)
Cu1F Cu 0.66523(11) 0.15195(8) -0.41340(10)
Cu3D Cu 0.31729(15) 0.38646(11) 0.0000
I1T I 0.37516(4) 0.11743(4) 0.14844(5)
N1F N 0.6113(6) 0.1540(5) -0.3125(7)
N1T N 0.5427(4) 0.1540(5) 0.1875(7)
N3C N 0.3218(6) -0.0223(9) 0.0000
C1F C 0.5702(13) 0.0910(9) -0.2831(15)
H1F H 0.5937 0.0752 -0.2546
H2F H 0.5494 0.0650 -0.3322
C2F C 0.5742(12) 0.1805(10) -0.3380(11)
H3F H 0.5450 0.1546 -0.3814
H4F H 0.6004 0.2202 -0.3640
C3F C 0.6480(13) 0.1881(10) -0.2362(9)
H5F H 0.6729 0.2311 -0.2504
H6F H 0.6750 0.1728 -0.2199
C4T C 0.4054(7) 0.2837(7) 0.0754(9)
H7T H 0.3911 0.2589 0.1273
H8T H 0.4497 0.3055 0.0762
C6T C 0.3828(7) 0.3298(6) 0.0753(9)
H11T H 0.3597 0.3249 0.1277
H12T H 0.4177 0.3710 0.0750
loop_
_geom_bond_atom_site_label_1
_geom_bond_atom_site_label_2
_geom_bond_site_symmetry_1
_geom_bond_site_symmetry_2
Cu1 I1 1_555 1_555
Cu2 I1 1_555 1_555
Cu3 I1 1_555 1_555
I2 Cu1 1_555 1_555
I3 Cu1 1_555 1_555
N1 Cu1 1_555 1_555
N2 Cu2 1_555 1_555
N3 C6 1_555 1_555
C1 N1 1_555 1_555
H1 C1 1_555 1_555
H2 C1 1_555 1_555
C2 N1 1_555 1_555
H3 C2 1_555 1_555
H4 C2 1_555 1_555
C3 N1 1_555 1_555
H5 C3 1_555 1_555
H6 C3 1_555 1_555
C4 N2 1_555 1_555
H7 C4 1_555 1_555
H8 C4 1_555 1_555
C5 N2 1_555 1_555
H9 C5 1_555 1_555
H10 C5 1_555 1_555
C6 C4 1_555 1_555
H11 C6 1_555 1_555
H12 C6 1_555 1_555
C7 N3 1_555 1_555
H13 C7 1_555 1_555
H14 C7 1_555 1_555
Cu1T I2 1_555 1_555
Cu1F N1F 1_555 1_555
Cu3D N3 1_555 1_555
I1T Cu2 1_555 1_555
N1F C1F 1_555 1_555
N1T Cu1T 1_555 1_555
N3C Cu3 1_555 1_555
C1F C1 1_555 1_555
H1F C1F 1_555 1_555
H2F C1F 1_555 1_555
C2F C3 1_555 1_555
H3F C2F 1_555 1_555
H4F C2F 1_555 1_555
C3F C2 1_555 1_555
H5F C3F 1_555 1_555
H6F C3F 1_555 1_555
C4T N2 1_555 1_555
H7T C4T 1_555 1_555
H8T C4T 1_555 1_555
C6T N3 1_555 1_555
H11T C6T 1_555 1_555
H12T C6T 1_555 1_555
Cu2 I2 1_555 1_555
Cu3 I3 1_555 1_555
Cu3 I1T 1_555 1_555
I3 Cu1T 1_555 1_555
C5 C7 1_555 1_555
Cu1T I1T 1_555 1_555
N1F C2F 1_555 1_555
N1F C3F 1_555 1_555
C4T C6T 1_555 1_555

#END
