
#######################################################################
#
#                 Cambridge Crystallographic Data Centre
#                                CCDC 
#
#######################################################################
#
# If this CIF has been generated from an entry in the Cambridge 
# Structural Database, then it will include bibliographic, chemical, 
# crystal, experimental, refinement or atomic coordinate data resulting 
# from the CCDC's data processing and validation procedures.
#
#######################################################################

data_NEZKOU
_symmetry_cell_setting           triclinic
_symmetry_space_group_name_H-M   'P 1'
_symmetry_Int_Tables_number      1
_space_group_name_Hall           'P 1'
loop_
_symmetry_equiv_pos_site_id
_symmetry_equiv_pos_as_xyz
1 x,y,z
_cell_length_a                   13.9081(11)
_cell_length_b                   13.9147(13)
_cell_length_c                   14.0033(17)
_cell_angle_alpha                113.529(2)
_cell_angle_beta                 111.700(2)
_cell_angle_gamma                102.7690(10)
_cell_volume                     2081.28
loop_
_atom_site_label
_atom_site_type_symbol
_atom_site_fract_x
_atom_site_fract_y
_atom_site_fract_z
Co1 Co 0.24515(14) 0.16525(14) 0.45526(14)
Co2 Co 0.09356(14) -0.00139(14) 0.16732(14)
Co3 Co 0.05610(14) -0.11040(14) 0.32175(14)
Co4 Co -0.02310(14) 0.08844(14) 0.33982(14)
Co5 Co 0.45552(16) 0.41952(16) 0.71603(16)
Co6 Co -0.26147(16) 0.09289(17) 0.34966(17)
Co7 Co 0.18108(17) 0.01115(16) -0.03323(16)
Co8 Co -0.00057(19) -0.39491(18) 0.24588(18)
N1 N 0.2538(14) 0.5934(13) 0.7830(13)
N2 N 0.3627(12) 0.4992(12) 0.7804(11)
N3 N -0.0117(13) 0.4744(12) 0.9098(13)
N4 N 0.0338(12) 0.5542(12) 1.1047(12)
N5 N 0.5344(12) 0.7573(13) 0.2716(13)
N6 N 0.6610(10) 0.9254(11) 0.3226(11)
N7 N 0.4823(11) 0.3276(12) 0.1484(12)
N8 N 0.3345(11) 0.1644(11) 0.0819(11)
N9 N -0.6523(13) -1.1247(14) -0.2261(12)
N10 N -0.7588(11) -1.0675(11) -0.1515(11)
N11 N -0.2510(16) -0.7522(15) 0.0318(16)
N12 N -0.1296(13) -0.5691(12) 0.1618(12)
O1 O 0.3255(8) 0.3512(8) 0.5333(8)
O2 O 0.4108(10) 0.4999(10) 0.5220(10)
O3 O 0.0857(8) 0.0781(8) 0.0662(8)
O4 O 0.0585(12) 0.2045(10) 0.0083(9)
O5 O 0.0185(8) 0.2634(8) 0.4141(8)
O6 O 0.1086(9) 0.4283(8) 0.4307(9)
O7 O 0.1178(8) 0.1532(8) 0.3045(7)
O8 O 0.2126(8) -0.0332(8) 0.1030(8)
O9 O 0.3249(10) -0.1168(10) 0.0695(9)
O10 O 0.1468(8) -0.2058(8) 0.3603(8)
O11 O 0.2976(10) -0.2507(10) 0.4156(11)
O12 O 0.3882(8) 0.1695(8) 0.4323(8)
O13 O 0.4727(8) 0.0662(9) 0.3622(9)
O14 O 0.1901(8) -0.0199(7) 0.3122(8)
O15 O -0.0683(8) -0.2881(8) 0.1902(8)
O16 O -0.2508(10) -0.4177(10) 0.1007(10)
O17 O -0.1999(8) 0.0401(8) 0.2266(8)
O18 O -0.3739(9) -0.0606(11) 0.0558(10)
O19 O -0.0202(8) -0.1687(8) 0.0131(8)
O20 O -0.1925(9) -0.3208(8) -0.0912(8)
O21 O -0.0406(7) -0.0644(7) 0.2064(7)
O22 O -0.0957(8) 0.1078(8) 0.4574(8)
O23 O -0.0849(9) 0.1832(9) 0.6356(8)
O24 O 0.3505(8) 0.2395(8) 0.6459(7)
O25 O 0.4005(11) 0.2531(10) 0.8242(9)
O26 O -0.0157(8) -0.1274(8) 0.4252(8)
O27 O -0.0139(8) -0.0395(8) 0.6011(8)
O28 O 0.1071(8) 0.0677(8) 0.4568(8)
O29 O 0.5660(9) 0.5915(9) 0.7726(9)
H1 H 0.6345 0.6075 0.7879
H2 H 0.5507 0.6482 0.8033
O30 O 0.5595(9) 0.3657(9) 0.6417(9)
H3 H 0.5201 0.2918 0.5698
H4 H 0.5929 0.4153 0.6215
O31 O 0.5659(10) 0.4403(11) 0.8812(9)
H5 H 0.5840 0.3847 0.8550
H6 H 0.5173 0.4155 0.8986
O32 O -0.2953(10) 0.1765(10) 0.4890(10)
H7 H -0.3532 0.1273 0.4822
H8 H -0.2353 0.2072 0.5615
O33 O -0.1785(9) 0.2643(9) 0.3892(10)
H9 H -0.2125 0.2839 0.3410
H10 H -0.1055 0.2987 0.4294
O34 O -0.4203(8) 0.0666(10) 0.2177(9)
H11 H -0.4070 0.0667 0.1632
H12 H -0.4238 0.1306 0.2523
O35 O 0.1184(10) 0.0799(9) -0.1426(9)
H13 H 0.0792 0.0252 -0.2175
H14 H 0.0755 0.1097 -0.1239
O36 O 0.0244(10) -0.1427(10) -0.1520(9)
H15 H -0.0158 -0.1343 -0.1187
H16 H 0.0420 -0.1967 -0.1493
O37 O -0.0503(12) -0.3414(11) 0.3810(10)
H17 H -0.0351 -0.3683 0.4267
H18 H -0.1168 -0.3432 0.3564
O38 O 0.1223(11) -0.4352(11) 0.3403(11)
H19 H 0.1813 -0.4197 0.3336
H20 H 0.0927 -0.5070 0.3263
C1 C 0.3349(13) 0.4031(13) 0.4738(13)
C2 C 0.2429(11) 0.3361(11) 0.3386(11)
H21 H 0.2361 0.3922 0.3152
H22 H 0.2700 0.2888 0.2926
C3 C 0.1220(11) 0.2567(11) 0.3004(11)
C4 C 0.0285(12) 0.2222(12) 0.1724(11)
H23 H -0.0454 0.1706 0.1514
H24 H 0.0233 0.2915 0.1751
C5 C 0.0564(13) 0.1615(13) 0.0744(12)
C6 C 0.0817(12) 0.3245(12) 0.3861(12)
C7 C 0.2679(12) -0.0930(12) 0.1171(12)
C8 C 0.2611(12) -0.1379(11) 0.2002(11)
H25 H 0.1847 -0.1988 0.1596
H26 H 0.3152 -0.1713 0.2144
C9 C 0.2876(12) -0.0412(12) 0.3219(12)
C10 C 0.3334(12) -0.0714(12) 0.4247(12)
H27 H 0.4064 -0.0732 0.4381
H28 H 0.3478 -0.0085 0.4997
C11 C 0.2546(13) -0.1859(12) 0.3991(12)
C12 C 0.3937(11) 0.0756(11) 0.3756(11)
C13 C -0.1778(13) -0.3219(13) 0.1351(12)
C14 C -0.2214(12) -0.2344(12) 0.1130(12)
H29 H -0.2983 -0.2783 0.0425
H30 H -0.2265 -0.1868 0.1821
C15 C -0.1475(11) -0.1545(11) 0.0934(12)
C16 C -0.2191(12) -0.0972(12) 0.0380(12)
H31 H -0.1694 -0.0401 0.0336
H32 H -0.2804 -0.1570 -0.0443
C17 C -0.2723(12) -0.0374(12) 0.1085(12)
C18 C -0.1201(12) -0.2248(12) -0.0037(12)
C19 C -0.0405(12) 0.1551(12) 0.5700(12)
C20 C 0.0891(11) 0.1827(11) 0.6351(11)
H33 H 0.1333 0.2515 0.6409
H34 H 0.1141 0.1996 0.7168
C21 C 0.1135(11) 0.0812(11) 0.5678(11)
C22 C 0.2280(11) 0.0879(12) 0.6522(11)
H35 H 0.2210 0.0771 0.7140
H36 H 0.2407 0.0243 0.6050
C23 C 0.3319(12) 0.2008(12) 0.7140(11)
C24 C 0.0199(11) -0.0363(11) 0.5298(12)
C25 C 0.2666(15) 0.4983(15) 0.7166(15)
H37 H 0.2130 0.4405 0.6360
C26 C 0.4112(17) 0.5958(16) 0.8939(16)
H38 H 0.4818 0.6214 0.9607
C27 C 0.3389(18) 0.6478(18) 0.8924(18)
H39 H 0.3493 0.7117 0.9590
C28 C -0.0239(15) 0.5457(13) 1.0020(13)
H40 H -0.0695 0.5847 0.9918
C29 C 0.0932(16) 0.4862(15) 1.0812(16)
H41 H 0.1448 0.4766 1.1376
C30 C 0.0634(18) 0.4380(18) 0.9653(18)
H42 H 0.0894 0.3873 0.9273
C31 C 0.1488(18) 0.6151(18) 0.7374(18)
H43 H 0.1035 0.5653 0.6497
H44 H 0.1734 0.6951 0.7580
C32 C 0.068(2) 0.5917(19) 0.7924(19)
H45 H 0.1159 0.6282 0.8794
H46 H 0.0153 0.6261 0.7775
C33 C 0.0044(19) 0.4674(19) 0.7369(18)
H47 H 0.0587 0.4340 0.7501
H48 H -0.0425 0.4324 0.6501
C34 C -0.0755(19) 0.433(2) 0.7844(17)
H49 H -0.1309 0.4651 0.7710
H50 H -0.1175 0.3490 0.7388
C35 C 0.5576(14) 0.8369(14) 0.2408(15)
H51 H 0.5068 0.8303 0.1704
C36 C 0.7053(17) 0.9011(17) 0.4135(17)
H52 H 0.7757 0.9481 0.4857
C37 C 0.6243(17) 0.7927(16) 0.3759(16)
H53 H 0.6327 0.7538 0.4169
C38 C 0.3841(15) 0.2327(14) 0.0513(15)
H54 H 0.3544 0.2168 -0.0275
C39 C 0.4071(13) 0.2167(13) 0.2027(13)
H55 H 0.3967 0.1909 0.2517
C40 C 0.5005(16) 0.3161(16) 0.2419(17)
H56 H 0.5639 0.3651 0.3200
C41 C 0.4252(17) 0.6508(15) 0.1995(19)
H57 H 0.3852 0.6337 0.1173
H58 H 0.3771 0.6652 0.2338
C42 C 0.4434(19) 0.5404(18) 0.196(2)
H59 H 0.4942 0.5609 0.2771
H60 H 0.3702 0.4786 0.1630
C43 C 0.4942(19) 0.499(2) 0.1175(19)
H61 H 0.5499 0.5651 0.1301
H62 H 0.4339 0.4529 0.0329
C44 C 0.5544(15) 0.4227(15) 0.1473(16)
H63 H 0.5760 0.3892 0.0878
H64 H 0.6242 0.4729 0.2261
C45 C -0.6601(15) -1.0694(15) -0.1293(15)
H65 H -0.5990 -1.0343 -0.0508
C46 C -0.8291(14) -1.1348(14) -0.2810(13)
H66 H -0.9065 -1.1535 -0.3251
C47 C -0.7648(14) -1.1666(14) -0.3286(14)
H67 H -0.7877 -1.2070 -0.4104
C48 C -0.1826(18) -0.6564(18) 0.0462(18)
H68 H -0.1735 -0.6515 -0.0146
C49 C -0.1621(17) -0.6191(17) 0.2138(17)
H69 H -0.1349 -0.5787 0.2966
C50 C -0.2349(18) -0.7291(17) 0.1422(18)
H70 H -0.2675 -0.7789 0.1617
C51 C -0.5540(18) -1.145(2) -0.239(2)
H71 H -0.5836 -1.2208 -0.3103
H72 H -0.5021 -1.1429 -0.1687
C52 C -0.489(2) -1.050(2) -0.252(2)
H73 H -0.5428 -1.0540 -0.3229
H74 H -0.4311 -1.0688 -0.2674
C53 C -0.427(2) -0.917(2) -0.138(2)
H75 H -0.4547 -0.8696 -0.1656
H76 H -0.4457 -0.9146 -0.0775
C54 C -0.307(2) -0.872(2) -0.087(2)
H77 H -0.2870 -0.8638 -0.1432
H78 H -0.2801 -0.9250 -0.0693
Co6_2 Co 0.73853(16) 1.09289(17) 0.34966(17)
Co7_2 Co -0.81892(17) -0.98885(16) -0.03323(16)
Co8_2 Co -0.00057(19) 0.60509(18) 1.24588(18)
N4_2 N 0.0338(12) -0.4458(12) 0.1047(12)
N6_2 N -0.3390(10) -0.0746(11) 0.3226(11)
N10_2 N 0.2412(11) -0.0675(11) -0.1515(11)
O39 O 0.4702(12) 0.6695(13) 0.4778(13)
H79 H 0.4616 0.6330 0.4077
H80 H 0.4567 0.7271 0.4811
O40 O 0.7336(15) 0.5547(16) 0.6622(15)
H81 H 0.7339 0.6137 0.7143
H82 H 0.7201 0.5561 0.5985
O41 O 0.6828(18) 0.7299(19) 0.6228(19)
H83 H 0.6993 0.8012 0.6476
H84 H 0.6119 0.6932 0.5955
O42 O 0.8047(19) 0.485(2) 0.4881(18)
H85 H 0.7589 0.4850 0.4278
H86 H 0.8704 0.5383 0.5195
O43 O 0.8743(17) 0.7646(18) 0.5987(17)
H87 H 0.9004 0.7886 0.6733
H88 H 0.8523 0.8161 0.5951
O44 O 0.823(2) 0.942(2) 0.814(2)
H89 H 0.8001 0.9524 0.8639
H90 H 0.8893 0.9440 0.8469
O45 O 0.8548(17) 0.141(2) 0.7905(16)
H91 H 0.8742 0.1426 0.7401
H92 H 0.8490 0.0776 0.7880
loop_
_geom_bond_atom_site_label_1
_geom_bond_atom_site_label_2
_geom_bond_site_symmetry_1
_geom_bond_site_symmetry_2
Co1 O1 1_555 1_555
Co2 O3 1_555 1_555
Co3 O10 1_555 1_555
Co4 O5 1_555 1_555
Co5 N2 1_555 1_555
Co6 O17 1_555 1_555
Co7 N8 1_555 1_555
Co8 N12 1_555 1_555
N1 C25 1_555 1_555
N2 C25 1_555 1_555
N3 C28 1_555 1_555
N4 C28 1_555 1_555
N5 C35 1_555 1_555
N6 C35 1_555 1_555
N7 C38 1_555 1_555
N8 C38 1_555 1_555
N9 C45 1_555 1_555
N10 C45 1_555 1_555
N11 C48 1_555 1_555
N12 C48 1_555 1_555
O1 Co5 1_555 1_555
O2 C1 1_555 1_555
O3 Co7 1_555 1_555
O4 C5 1_555 1_555
O5 C6 1_555 1_555
O6 C6 1_555 1_555
O7 Co1 1_555 1_555
O8 Co2 1_555 1_555
O9 C7 1_555 1_555
O10 Co8 1_555 1_555
O11 C11 1_555 1_555
O12 Co1 1_555 1_555
O13 C12 1_555 1_555
O14 Co1 1_555 1_555
O15 Co3 1_555 1_555
O16 C13 1_555 1_555
O17 Co4 1_555 1_555
O18 C17 1_555 1_555
O19 Co2 1_555 1_555
O20 C18 1_555 1_555
O21 Co2 1_555 1_555
O22 Co4 1_555 1_555
O23 C19 1_555 1_555
O24 Co1 1_555 1_555
O25 C23 1_555 1_555
O26 Co3 1_555 1_555
O27 C24 1_555 1_555
O28 Co1 1_555 1_555
O29 Co5 1_555 1_555
H1 O29 1_555 1_555
H2 O29 1_555 1_555
O30 Co5 1_555 1_555
H3 O30 1_555 1_555
H4 O30 1_555 1_555
O31 Co5 1_555 1_555
H5 O31 1_555 1_555
H6 O31 1_555 1_555
O32 Co6 1_555 1_555
H7 O32 1_555 1_555
H8 O32 1_555 1_555
O33 Co6 1_555 1_555
H9 O33 1_555 1_555
H10 O33 1_555 1_555
O34 Co6 1_555 1_555
H11 O34 1_555 1_555
H12 O34 1_555 1_555
O35 Co7 1_555 1_555
H13 O35 1_555 1_555
H14 O35 1_555 1_555
O36 Co7 1_555 1_555
H15 O36 1_555 1_555
H16 O36 1_555 1_555
O37 Co8 1_555 1_555
H17 O37 1_555 1_555
H18 O37 1_555 1_555
O38 Co8 1_555 1_555
H19 O38 1_555 1_555
H20 O38 1_555 1_555
C1 O1 1_555 1_555
C2 C1 1_555 1_555
H21 C2 1_555 1_555
H22 C2 1_555 1_555
C3 O7 1_555 1_555
C4 C3 1_555 1_555
H23 C4 1_555 1_555
H24 C4 1_555 1_555
C5 O3 1_555 1_555
C6 C3 1_555 1_555
C7 O8 1_555 1_555
C8 C7 1_555 1_555
H25 C8 1_555 1_555
H26 C8 1_555 1_555
C9 O14 1_555 1_555
C10 C9 1_555 1_555
H27 C10 1_555 1_555
H28 C10 1_555 1_555
C11 O10 1_555 1_555
C12 O12 1_555 1_555
C13 O15 1_555 1_555
C14 C13 1_555 1_555
H29 C14 1_555 1_555
H30 C14 1_555 1_555
C15 O21 1_555 1_555
C16 C15 1_555 1_555
H31 C16 1_555 1_555
H32 C16 1_555 1_555
C17 O17 1_555 1_555
C18 O19 1_555 1_555
C19 O22 1_555 1_555
C20 C19 1_555 1_555
H33 C20 1_555 1_555
H34 C20 1_555 1_555
C21 O28 1_555 1_555
C22 C21 1_555 1_555
H35 C22 1_555 1_555
H36 C22 1_555 1_555
C23 O24 1_555 1_555
C24 O26 1_555 1_555
C25 H37 1_555 1_555
C26 N2 1_555 1_555
H38 C26 1_555 1_555
C27 N1 1_555 1_555
H39 C27 1_555 1_555
C28 H40 1_555 1_555
C29 N4 1_555 1_555
H41 C29 1_555 1_555
C30 N3 1_555 1_555
H42 C30 1_555 1_555
C31 N1 1_555 1_555
H43 C31 1_555 1_555
H44 C31 1_555 1_555
C32 C31 1_555 1_555
H45 C32 1_555 1_555
H46 C32 1_555 1_555
C33 C32 1_555 1_555
H47 C33 1_555 1_555
H48 C33 1_555 1_555
C34 N3 1_555 1_555
H49 C34 1_555 1_555
H50 C34 1_555 1_555
C35 H51 1_555 1_555
C36 N6 1_555 1_555
H52 C36 1_555 1_555
C37 N5 1_555 1_555
H53 C37 1_555 1_555
C38 H54 1_555 1_555
C39 N8 1_555 1_555
H55 C39 1_555 1_555
C40 N7 1_555 1_555
H56 C40 1_555 1_555
C41 N5 1_555 1_555
H57 C41 1_555 1_555
H58 C41 1_555 1_555
C42 C41 1_555 1_555
H59 C42 1_555 1_555
H60 C42 1_555 1_555
C43 C42 1_555 1_555
H61 C43 1_555 1_555
H62 C43 1_555 1_555
C44 N7 1_555 1_555
H63 C44 1_555 1_555
H64 C44 1_555 1_555
C45 H65 1_555 1_555
C46 N10 1_555 1_555
H66 C46 1_555 1_555
C47 N9 1_555 1_555
H67 C47 1_555 1_555
C48 H68 1_555 1_555
C49 N12 1_555 1_555
H69 C49 1_555 1_555
C50 N11 1_555 1_555
H70 C50 1_555 1_555
C51 N9 1_555 1_555
H71 C51 1_555 1_555
H72 C51 1_555 1_555
C52 C51 1_555 1_555
H73 C52 1_555 1_555
H74 C52 1_555 1_555
C53 C52 1_555 1_555
H75 C53 1_555 1_555
H76 C53 1_555 1_555
C54 N11 1_555 1_555
H77 C54 1_555 1_555
H78 C54 1_555 1_555
O39 H79 1_555 1_555
H80 O39 1_555 1_555
O40 H81 1_555 1_555
H82 O40 1_555 1_555
O41 H83 1_555 1_555
H84 O41 1_555 1_555
O42 H85 1_555 1_555
H86 O42 1_555 1_555
O43 H87 1_555 1_555
H88 O43 1_555 1_555
O44 H89 1_555 1_555
H90 O44 1_555 1_555
O45 H91 1_555 1_555
H92 O45 1_555 1_555
Co6_2 N6 1_555 1_555
Co7_2 N10 1_555 1_555
Co8_2 N4 1_555 1_555
N4_2 Co8 1_555 1_555
N6_2 Co6 1_555 1_555
N10_2 Co7 1_555 1_555
Co2 O7 1_555 1_555
Co2 O14 1_555 1_555
Co3 O14 1_555 1_555
Co3 O21 1_555 1_555
Co3 O28 1_555 1_555
Co4 O7 1_555 1_555
Co4 O21 1_555 1_555
Co4 O28 1_555 1_555
Co5 O24 1_555 1_555
Co6 O22 1_555 1_555
Co7 O8 1_555 1_555
Co8 O15 1_555 1_555
C2 C3 1_555 1_555
C4 C5 1_555 1_555
C8 C9 1_555 1_555
C9 C12 1_555 1_555
C10 C11 1_555 1_555
C14 C15 1_555 1_555
C15 C18 1_555 1_555
C16 C17 1_555 1_555
C20 C21 1_555 1_555
C21 C24 1_555 1_555
C22 C23 1_555 1_555
C26 C27 1_555 1_555
C29 C30 1_555 1_555
C33 C34 1_555 1_555
C36 C37 1_555 1_555
C39 C40 1_555 1_555
C43 C44 1_555 1_555
C46 C47 1_555 1_555
C49 C50 1_555 1_555
C53 C54 1_555 1_555

#END
