
#######################################################################
#
#                 Cambridge Crystallographic Data Centre
#                                CCDC 
#
#######################################################################
#
# If this CIF has been generated from an entry in the Cambridge 
# Structural Database, then it will include bibliographic, chemical, 
# crystal, experimental, refinement or atomic coordinate data resulting 
# from the CCDC's data processing and validation procedures.
#
#######################################################################

data_NEZKIO
_symmetry_cell_setting           orthorhombic
_symmetry_space_group_name_H-M   'P b c a'
_symmetry_Int_Tables_number      61
_space_group_name_Hall           '-P 2ac 2ab'
loop_
_symmetry_equiv_pos_site_id
_symmetry_equiv_pos_as_xyz
1 x,y,z
2 1/2-x,-y,1/2+z
3 -x,1/2+y,1/2-z
4 1/2+x,1/2-y,-z
5 -x,-y,-z
6 1/2+x,y,1/2-z
7 x,1/2-y,1/2+z
8 1/2-x,1/2+y,z
_cell_length_a                   9.3119(12)
_cell_length_b                   20.848(3)
_cell_length_c                   26.134(3)
_cell_angle_alpha                90
_cell_angle_beta                 90
_cell_angle_gamma                90
_cell_volume                     5073.51
loop_
_atom_site_label
_atom_site_type_symbol
_atom_site_fract_x
_atom_site_fract_y
_atom_site_fract_z
C1 C 0.9609(5) 0.21404(18) 0.80436(14)
H1 H 0.9323 0.2305 0.8358
C2 C 1.0656(4) 0.16907(19) 0.79690(14)
H2 H 1.1214 0.1487 0.8215
C3 C 1.0697(4) 0.16065(16) 0.74373(13)
C4 C 1.1576(4) 0.11973(16) 0.71128(14)
C5 C 1.2523(5) 0.07489(19) 0.73121(18)
H3 H 1.2605 0.0695 0.7664
C6 C 1.3323(5) 0.0392(2) 0.6990(2)
H4 H 1.3980 0.0097 0.7118
C7 C 1.3162(6) 0.0466(2) 0.6474(2)
H5 H 1.3689 0.0215 0.6247
C8 C 1.2207(5) 0.09182(19) 0.62928(16)
H6 H 1.2108 0.0971 0.5941
C9 C 0.6776(3) 0.57882(14) 0.58760(13)
C10 C 1.0922(5) 0.2101(2) 0.47350(15)
H7 H 1.0957 0.1956 0.4398
C11 C 1.1544(5) 0.2642(2) 0.49152(14)
H8 H 1.2055 0.2948 0.4731
C12 C 1.1248(4) 0.26385(16) 0.54380(13)
C13 C 1.1684(4) 0.30701(15) 0.58525(13)
C14 C 1.2494(5) 0.36174(18) 0.57739(16)
H9 H 1.2732 0.3748 0.5444
C15 C 1.2935(5) 0.3961(2) 0.61884(19)
H10 H 1.3523 0.4318 0.6145
C16 C 1.2511(5) 0.37794(19) 0.66697(17)
H11 H 1.2802 0.4011 0.6955
C17 C 1.1647(4) 0.32474(17) 0.67220(15)
H12 H 1.1323 0.3137 0.7047
C18 C 0.7633(4) 0.32215(15) 0.66797(13)
C19 C 0.7416(4) 0.38847(14) 0.64657(11)
C20 C 0.8189(3) 0.40794(14) 0.60397(12)
H13 H 0.8802 0.3788 0.5882
C21 C 0.8081(3) 0.46965(13) 0.58389(11)
C22 C 0.7141(3) 0.51298(13) 0.60824(11)
C23 C 0.6384(4) 0.49302(14) 0.65132(12)
H14 H 0.5763 0.5216 0.6674
C24 C 0.6531(4) 0.43195(14) 0.67077(12)
H15 H 0.6035 0.4201 0.7002
C25 C 0.9024(3) 0.48664(13) 0.54025(11)
C26 C 0.9328(4) 0.44156(14) 0.50214(12)
H16 H 0.8877 0.4018 0.5031
C27 C 0.9719(4) 0.54530(14) 0.53696(12)
H17 H 0.9539 0.5765 0.5616
Mn1 Mn 0.96017(6) 0.20393(2) 0.636265(17)
N1 N 0.9060(4) 0.23044(13) 0.75867(11)
N2 N 0.9723(3) 0.19792(12) 0.72092(10)
N3 N 1.1417(3) 0.12842(13) 0.66059(12)
N4 N 1.0243(4) 0.18048(15) 0.51263(11)
N5 N 1.0444(3) 0.21364(12) 0.55632(10)
N6 N 1.1255(3) 0.28837(12) 0.63262(10)
O1 O 0.6735(3) 0.62397(10) 0.61948(9)
O2 O 0.6484(3) 0.58314(10) 0.54132(9)
O3 O 0.8064(3) 0.27904(10) 0.63768(8)
O4 O 0.7378(3) 0.31523(12) 0.71426(9)
C18D C 1.2367(4) 0.67785(15) 0.33203(13)
C19D C 1.2584(4) 0.61153(14) 0.35343(11)
C20D C 1.1811(3) 0.59206(14) 0.39603(12)
H13D H 1.1198 0.6212 0.4118
C21D C 1.1919(3) 0.53035(13) 0.41611(11)
C22D C 1.2859(3) 0.48702(13) 0.39176(11)
C23D C 1.3616(4) 0.50698(14) 0.34868(12)
H14D H 1.4237 0.4784 0.3326
C24D C 1.3469(4) 0.56805(14) 0.32923(12)
H15D H 1.3965 0.5799 0.2998
C25D C 1.0976(3) 0.51336(13) 0.45975(11)
C26D C 1.0672(4) 0.55844(14) 0.49786(12)
H16D H 1.1123 0.5982 0.4969
C27D C 1.0281(4) 0.45470(14) 0.46304(12)
H17D H 1.0461 0.4235 0.4384
O3D O 1.1936(3) 0.72096(10) 0.36232(8)
O4D O 1.2622(3) 0.68477(12) 0.28574(9)
C9D C 1.3224(3) 0.42118(14) 0.41240(13)
O1D O 1.3265(3) 0.37603(10) 0.38052(9)
O2D O 1.3516(3) 0.41686(10) 0.45868(9)
C1D C 1.0391(5) 0.78596(18) 0.19564(14)
H1D H 1.0677 0.7695 0.1642
C2D C 0.9344(4) 0.83093(19) 0.20310(14)
H2D H 0.8786 0.8513 0.1785
C3D C 0.9303(4) 0.83935(16) 0.25627(13)
C4D C 0.8424(4) 0.88027(16) 0.28872(14)
C5D C 0.7477(5) 0.92511(19) 0.26879(18)
H3D H 0.7395 0.9305 0.2336
C6D C 0.6677(5) 0.9608(2) 0.3010(2)
H4D H 0.6020 0.9903 0.2882
C7D C 0.6838(6) 0.9534(2) 0.3526(2)
H5D H 0.6311 0.9785 0.3753
C8D C 0.7793(5) 0.90818(19) 0.37072(16)
H6D H 0.7892 0.9029 0.4059
C10D C 0.9078(5) 0.7899(2) 0.52650(15)
H7D H 0.9043 0.8044 0.5602
C11D C 0.8456(5) 0.7358(2) 0.50848(14)
H8D H 0.7945 0.7052 0.5269
C12D C 0.8752(4) 0.73615(16) 0.45620(13)
C13D C 0.8316(4) 0.69299(15) 0.41475(13)
C14D C 0.7506(5) 0.63826(18) 0.42261(16)
H9D H 0.7268 0.6252 0.4556
C15D C 0.7065(5) 0.6039(2) 0.38116(19)
H10D H 0.6477 0.5682 0.3855
C16D C 0.7489(5) 0.62206(19) 0.33303(17)
H11D H 0.7198 0.5989 0.3045
C17D C 0.8353(4) 0.67526(17) 0.32780(15)
H12D H 0.8677 0.6863 0.2953
Mn1D Mn 1.03983(6) 0.79607(2) 0.363735(17)
N1D N 1.0940(4) 0.76956(13) 0.24133(11)
N2D N 1.0277(3) 0.80208(12) 0.27908(10)
N3D N 0.8583(3) 0.87158(13) 0.33941(12)
N4D N 0.9757(4) 0.81952(15) 0.48737(11)
N5D N 0.9556(3) 0.78636(12) 0.44368(10)
N6D N 0.8745(3) 0.71163(12) 0.36738(10)
Mn1C Mn 1.46017(6) 0.29607(2) 0.363735(17)
Mn1G Mn 0.53983(6) 0.70393(2) 0.636265(17)
O1C O 1.1735(3) 0.87603(10) 0.38052(9)
O1G O 0.8265(3) 0.12397(10) 0.61948(9)
O5 O 0.4321(17) 0.4951(8) 0.5320(4)
H18 H 0.381(4) 0.5145(18) 0.5115(10)
H19 H 0.420(4) 0.5053(18) 0.5620(5)
loop_
_geom_bond_atom_site_label_1
_geom_bond_atom_site_label_2
_geom_bond_site_symmetry_1
_geom_bond_site_symmetry_2
C1 H1 1_555 1_555
C2 C1 1_555 1_555
H2 C2 1_555 1_555
C3 C2 1_555 1_555
C4 C3 1_555 1_555
C5 C4 1_555 1_555
H3 C5 1_555 1_555
C6 C5 1_555 1_555
H4 C6 1_555 1_555
C7 C6 1_555 1_555
H5 C7 1_555 1_555
C8 C7 1_555 1_555
H6 C8 1_555 1_555
C9 C22 1_555 1_555
C10 H7 1_555 1_555
C11 C10 1_555 1_555
H8 C11 1_555 1_555
C12 C11 1_555 1_555
C13 C12 1_555 1_555
C14 C13 1_555 1_555
H9 C14 1_555 1_555
C15 C14 1_555 1_555
H10 C15 1_555 1_555
C16 C15 1_555 1_555
H11 C16 1_555 1_555
C17 C16 1_555 1_555
H12 C17 1_555 1_555
C18 C19 1_555 1_555
C19 C20 1_555 1_555
C20 H13 1_555 1_555
C21 C20 1_555 1_555
C22 C21 1_555 1_555
C23 C22 1_555 1_555
H14 C23 1_555 1_555
C24 C19 1_555 1_555
H15 C24 1_555 1_555
C25 C21 1_555 1_555
C26 C25 1_555 1_555
H16 C26 1_555 1_555
C27 C25 1_555 1_555
H17 C27 1_555 1_555
Mn1 N2 1_555 1_555
N1 C1 1_555 1_555
N2 C3 1_555 1_555
N3 C4 1_555 1_555
N4 C10 1_555 1_555
N5 C12 1_555 1_555
N6 C13 1_555 1_555
O1 C9 1_555 1_555
O2 C9 1_555 1_555
O3 C18 1_555 1_555
O4 C18 1_555 1_555
O5 H18 1_555 1_555
H19 O5 1_555 1_555
C18D C19D 1_555 1_555
C19D C20D 1_555 1_555
C20D H13D 1_555 1_555
C21D C20D 1_555 1_555
C22D C21D 1_555 1_555
C23D C22D 1_555 1_555
H14D C23D 1_555 1_555
C24D C19D 1_555 1_555
H15D C24D 1_555 1_555
C25D C21D 1_555 1_555
C26D C27 1_555 1_555
H16D C26D 1_555 1_555
C27D C26 1_555 1_555
H17D C27D 1_555 1_555
O3D C18D 1_555 1_555
O4D C18D 1_555 1_555
C9D C22D 1_555 1_555
O1D C9D 1_555 1_555
O2D C9D 1_555 1_555
C1D H1D 1_555 1_555
C2D C1D 1_555 1_555
H2D C2D 1_555 1_555
C3D C2D 1_555 1_555
C4D C3D 1_555 1_555
C5D C4D 1_555 1_555
H3D C5D 1_555 1_555
C6D C5D 1_555 1_555
H4D C6D 1_555 1_555
C7D C6D 1_555 1_555
H5D C7D 1_555 1_555
C8D C7D 1_555 1_555
H6D C8D 1_555 1_555
C10D H7D 1_555 1_555
C11D C10D 1_555 1_555
H8D C11D 1_555 1_555
C12D C11D 1_555 1_555
C13D C12D 1_555 1_555
C14D C13D 1_555 1_555
H9D C14D 1_555 1_555
C15D C14D 1_555 1_555
H10D C15D 1_555 1_555
C16D C15D 1_555 1_555
H11D C16D 1_555 1_555
C17D C16D 1_555 1_555
H12D C17D 1_555 1_555
Mn1D O3D 1_555 1_555
N1D C1D 1_555 1_555
N2D C3D 1_555 1_555
N3D C4D 1_555 1_555
N4D C10D 1_555 1_555
N5D C12D 1_555 1_555
N6D C13D 1_555 1_555
Mn1C O1D 1_555 1_555
Mn1G O1 1_555 1_555
O1C Mn1D 1_555 1_555
O1G Mn1 1_555 1_555
C8 N3 1_555 1_555
C17 N6 1_555 1_555
C23 C24 1_555 1_555
Mn1 N3 1_555 1_555
Mn1 N5 1_555 1_555
Mn1 N6 1_555 1_555
Mn1 O3 1_555 1_555
N1 N2 1_555 1_555
N4 N5 1_555 1_555
C23D C24D 1_555 1_555
C25D C26D 1_555 1_555
C25D C27D 1_555 1_555
C8D N3D 1_555 1_555
C17D N6D 1_555 1_555
Mn1D N2D 1_555 1_555
Mn1D N3D 1_555 1_555
Mn1D N5D 1_555 1_555
Mn1D N6D 1_555 1_555
N1D N2D 1_555 1_555
N4D N5D 1_555 1_555

#END
