
#######################################################################
#
#                 Cambridge Crystallographic Data Centre
#                                CCDC 
#
#######################################################################
#
# If this CIF has been generated from an entry in the Cambridge 
# Structural Database, then it will include bibliographic, chemical, 
# crystal, experimental, refinement or atomic coordinate data resulting 
# from the CCDC's data processing and validation procedures.
#
#######################################################################

data_NEZLAH
_symmetry_cell_setting           monoclinic
_symmetry_space_group_name_H-M   'C 2/c'
_symmetry_Int_Tables_number      15
_space_group_name_Hall           '-C 2yn'
loop_
_symmetry_equiv_pos_site_id
_symmetry_equiv_pos_as_xyz
1 x,y,z
2 -x,y,1/2-z
3 1/2+x,1/2+y,z
4 1/2-x,1/2+y,1/2-z
5 -x,-y,-z
6 x,-y,1/2+z
7 1/2-x,1/2-y,-z
8 1/2+x,1/2-y,1/2+z
_cell_length_a                   14.1319(10)
_cell_length_b                   12.0570(9)
_cell_length_c                   14.3037(9)
_cell_angle_alpha                90
_cell_angle_beta                 134.955(5)
_cell_angle_gamma                90
_cell_volume                     1724.7
loop_
_atom_site_label
_atom_site_type_symbol
_atom_site_fract_x
_atom_site_fract_y
_atom_site_fract_z
Mn1 Mn 0.5000 0.20288(5) 0.7500
O1 O 0.71073(19) 0.21442(16) 0.8534(2)
H1 H 0.7115 0.2742 0.8224
H2 H 0.7849 0.2135 0.9342
N1 N 0.4580(3) 0.0650(2) 0.6207(3)
C1 C 0.4951(4) -0.1005(3) 0.5816(4)
H3 H 0.5372 -0.1633 0.5873
C2 C 0.3438(3) 0.0186(2) 0.5194(3)
H4 H 0.2609 0.0509 0.4724
C3 C 0.2540(4) -0.1593(3) 0.3903(4)
H5 H 0.2724 -0.1883 0.3413
H6 H 0.1694 -0.1200 0.3287
C4 C 0.5543(3) -0.0113(3) 0.6602(3)
H7 H 0.6461 -0.0018 0.7308
N2 N 0.3606(3) -0.0811(2) 0.4912(3)
C5 C 0.2426(7) -0.2524(5) 0.4488(5)
H8 H 0.2229 -0.3216 0.4099
O2 O 0.5451(2) 0.32698(17) 0.8896(2)
C6 C 0.4675(3) 0.3895(3) 0.8816(3)
O3 O 0.3447(2) 0.3901(2) 0.7888(2)
C7 C 0.5314(3) 0.4664(3) 0.9944(3)
H9 H 0.6243 0.4659 1.0625
N1F N 0.0420(3) -0.5650(2) 0.3793(3)
C1F C 0.0049(4) -0.3995(3) 0.4184(4)
H3F H -0.0372 -0.3367 0.4127
C2F C 0.1562(3) -0.5186(2) 0.4806(3)
H4F H 0.2391 -0.5509 0.5276
C3F C 0.2460(4) -0.3407(3) 0.6097(4)
H5F H 0.2276 -0.3117 0.6587
H6F H 0.3306 -0.3800 0.6713
C4F C -0.0543(3) -0.4887(3) 0.3398(3)
H7F H -0.1461 -0.4982 0.2692
N2F N 0.1394(3) -0.4189(2) 0.5088(3)
C5F C 0.2574(7) -0.2476(5) 0.5512(5)
H8F H 0.2771 -0.1784 0.5901
O2D O 0.4549(2) 0.67302(17) 1.1104(2)
C6D C 0.5325(3) 0.6105(3) 1.1184(3)
O3D O 0.6553(2) 0.6099(2) 1.2112(2)
C7D C 0.4686(3) 0.5336(3) 1.0056(3)
H9D H 0.3757 0.5341 0.9375
O1A O 0.28927(19) 0.21442(16) 0.6466(2)
H1A H 0.2885 0.2742 0.6776
H2A H 0.2151 0.2135 0.5658
Mn1D Mn 0.5000 0.79712(5) 1.2500
Mn1F Mn 0.0000 -0.70288(5) 0.2500
N1A N 0.5420(3) 0.0650(2) 0.8793(3)
O2A O 0.4549(2) 0.32698(17) 0.6104(2)
loop_
_geom_bond_atom_site_label_1
_geom_bond_atom_site_label_2
_geom_bond_site_symmetry_1
_geom_bond_site_symmetry_2
Mn1 O1 1_555 1_555
O1 H1 1_555 1_555
H2 O1 1_555 1_555
N1 Mn1 1_555 1_555
C1 H3 1_555 1_555
C2 N1 1_555 1_555
H4 C2 1_555 1_555
C3 H5 1_555 1_555
H6 C3 1_555 1_555
C4 N1 1_555 1_555
H7 C4 1_555 1_555
N2 C1 1_555 1_555
C5 C3 1_555 1_555
H8 C5 1_555 1_555
O2 Mn1 1_555 1_555
C6 O2 1_555 1_555
O3 C6 1_555 1_555
C7 C6 1_555 1_555
H9 C7 1_555 1_555
N1F C2F 1_555 1_555
C1F H3F 1_555 1_555
C2F H4F 1_555 1_555
C3F H5F 1_555 1_555
H6F C3F 1_555 1_555
C4F N1F 1_555 1_555
H7F C4F 1_555 1_555
N2F C1F 1_555 1_555
C5F C5 1_555 1_555
H8F C5F 1_555 1_555
O2D C6D 1_555 1_555
C6D O3D 1_555 1_555
C7D C7 1_555 1_555
H9D C7D 1_555 1_555
O1A Mn1 1_555 1_555
H1A O1A 1_555 1_555
H2A O1A 1_555 1_555
Mn1D O2D 1_555 1_555
Mn1F N1F 1_555 1_555
N1A Mn1 1_555 1_555
O2A Mn1 1_555 1_555
C1 C4 1_555 1_555
C2 N2 1_555 1_555
C3 N2 1_555 1_555
C1F C4F 1_555 1_555
C2F N2F 1_555 1_555
C3F N2F 1_555 1_555
C3F C5F 1_555 1_555
C6D C7D 1_555 1_555

#END
