
#######################################################################
#
#                 Cambridge Crystallographic Data Centre
#                                CCDC 
#
#######################################################################
#
# If this CIF has been generated from an entry in the Cambridge 
# Structural Database, then it will include bibliographic, chemical, 
# crystal, experimental, refinement or atomic coordinate data resulting 
# from the CCDC's data processing and validation procedures.
#
#######################################################################

data_NEZMUC
_symmetry_cell_setting           triclinic
_symmetry_space_group_name_H-M   'P -1'
_symmetry_Int_Tables_number      2
_space_group_name_Hall           '-P 1'
loop_
_symmetry_equiv_pos_site_id
_symmetry_equiv_pos_as_xyz
1 x,y,z
2 -x,-y,-z
_cell_length_a                   8.0499(15)
_cell_length_b                   9.2028(15)
_cell_length_c                   9.2204(17)
_cell_angle_alpha                109.562(16)
_cell_angle_beta                 107.257(16)
_cell_angle_gamma                105.077(15)
_cell_volume                     563.495
loop_
_atom_site_label
_atom_site_type_symbol
_atom_site_fract_x
_atom_site_fract_y
_atom_site_fract_z
Cu1 Cu 0.5000 0.0000 0.0000
N1 N 0.3938(5) -0.8259(4) 0.0244(5)
N2 N 0.2770(5) -0.1288(4) 0.0408(5)
C1 C 0.3425(5) -0.7196(4) 0.0308(5)
C2 C 0.2689(5) -0.2847(4) 0.0412(5)
C3 C 0.3774(6) -0.2844(5) 0.1916(5)
H1 H 0.4399 -0.1856 0.2926
C4 C 0.3910(6) -0.4305(5) 0.1891(5)
H2 H 0.4623 -0.4311 0.2886
C5 C 0.2980(5) -0.5780(4) 0.0372(5)
C6 C 0.1813(6) -0.5810(4) -0.1114(5)
H3 H 0.1148 -0.6808 -0.2115
C7 C 0.1664(5) -0.4334(5) -0.1072(5)
H4 H 0.0872 -0.4341 -0.2044
C8 C 0.7324(9) 0.2799(8) 0.4277(8)
H5 H 0.8657 0.3474 0.4749
H6 H 0.7015 0.2577 0.5131
H7 H 0.6614 0.3389 0.3887
O1 O 0.6869(6) 0.1278(6) 0.2914(5)
H8 H 0.166(7) -0.155(6) -0.048(6)
H9 H 0.294(6) -0.061(5) 0.143(6)
H10 H 0.749(9) 0.093(8) 0.309(8)
N1A N 0.6062(5) -0.1741(4) -0.0244(5)
N2A N 0.7230(5) -0.8712(4) -0.0408(5)
C1A C 0.6575(5) -0.2804(4) -0.0308(5)
C2A C 0.7311(5) -0.7153(4) -0.0412(5)
C3A C 0.6226(6) -0.7156(5) -0.1916(5)
H1A H 0.5601 -0.8144 -0.2926
C4A C 0.6090(6) -0.5695(5) -0.1891(5)
H2A H 0.5377 -0.5689 -0.2886
C5A C 0.7020(5) -0.4220(4) -0.0372(5)
C6A C 0.8187(6) -0.4190(4) 0.1114(5)
H3A H 0.8852 -0.3192 0.2115
C7A C 0.8336(5) -0.5666(5) 0.1072(5)
H4A H 0.9128 -0.5659 0.2044
H8A H 0.834(7) -0.845(6) 0.048(6)
H9A H 0.706(6) -0.939(5) -0.143(6)
C8A C 0.2676(9) -0.2799(8) -0.4277(8)
H5A H 0.1343 -0.3474 -0.4749
H6A H 0.2985 -0.2577 -0.5131
H7A H 0.3386 -0.3389 -0.3887
O1A O 0.3131(6) -0.1278(6) -0.2914(5)
H10A H 0.251(9) -0.093(8) -0.309(8)
Cu1_2 Cu 0.5000 -1.0000 0.0000
N1_2 N 0.3938(5) 0.1741(4) 0.0244(5)
N2A_2 N 0.7230(5) 0.1288(4) -0.0408(5)
Cl1 Cl 1.15986(16) 0.16017(17) 0.35866(14)
O2 O 1.3020(7) 0.0958(7) 0.3826(6)
O3 O 1.0889(17) 0.163(2) 0.2082(14)
O4 O 1.0041(17) 0.0397(18) 0.252(3)
O5 O 1.1252(18) 0.217(2) 0.4894(12)
O6? O 1.265(3) 0.3291(12) 0.400(2)
loop_
_geom_bond_atom_site_label_1
_geom_bond_atom_site_label_2
_geom_bond_site_symmetry_1
_geom_bond_site_symmetry_2
Cu1 N2 1_555 1_555
N1 C1 1_555 1_555
N2 C2 1_555 1_555
C1 C5 1_555 1_555
C2 C3 1_555 1_555
C3 H1 1_555 1_555
C4 C3 1_555 1_555
H2 C4 1_555 1_555
C5 C4 1_555 1_555
C6 C5 1_555 1_555
H3 C6 1_555 1_555
C7 C2 1_555 1_555
H4 C7 1_555 1_555
C8 H5 1_555 1_555
H6 C8 1_555 1_555
H7 C8 1_555 1_555
O1 Cu1 1_555 1_555
H8 N2 1_555 1_555
H9 N2 1_555 1_555
H10 O1 1_555 1_555
Cl1 O2 1_555 1_555
O3 Cl1 1_555 1_555
O4 Cl1 1_555 1_555
O5 Cl1 1_555 1_555
N1A Cu1 1_555 1_555
N2A C2A 1_555 1_555
C1A N1A 1_555 1_555
C2A C3A 1_555 1_555
C3A H1A 1_555 1_555
C4A C3A 1_555 1_555
H2A C4A 1_555 1_555
C5A C1A 1_555 1_555
C6A C5A 1_555 1_555
H3A C6A 1_555 1_555
C7A C2A 1_555 1_555
H4A C7A 1_555 1_555
H8A N2A 1_555 1_555
H9A N2A 1_555 1_555
C8A H5A 1_555 1_555
H6A C8A 1_555 1_555
H7A C8A 1_555 1_555
O1A Cu1 1_555 1_555
H10A O1A 1_555 1_555
Cu1_2 N1 1_555 1_555
N1_2 Cu1 1_555 1_555
N2A_2 Cu1 1_555 1_555
C6 C7 1_555 1_555
C8 O1 1_555 1_555
N2A Cu1_2 1_555 1_555
C4A C5A 1_555 1_555
C6A C7A 1_555 1_555
C8A O1A 1_555 1_555

#END
