
#######################################################################
#
#                 Cambridge Crystallographic Data Centre
#                                CCDC 
#
#######################################################################
#
# If this CIF has been generated from an entry in the Cambridge 
# Structural Database, then it will include bibliographic, chemical, 
# crystal, experimental, refinement or atomic coordinate data resulting 
# from the CCDC's data processing and validation procedures.
#
#######################################################################

data_NEZMOW
_symmetry_cell_setting           triclinic
_symmetry_space_group_name_H-M   'P -1'
_symmetry_Int_Tables_number      2
_space_group_name_Hall           '-P 1'
loop_
_symmetry_equiv_pos_site_id
_symmetry_equiv_pos_as_xyz
1 x,y,z
2 -x,-y,-z
_cell_length_a                   7.7545(4)
_cell_length_b                   8.5242(4)
_cell_length_c                   9.4489(5)
_cell_angle_alpha                100.348(4)
_cell_angle_beta                 110.055(5)
_cell_angle_gamma                109.740(4)
_cell_volume                     520.487
loop_
_atom_site_label
_atom_site_type_symbol
_atom_site_fract_x
_atom_site_fract_y
_atom_site_fract_z
Zn1 Zn 0.5000 0.5000 0.5000
O1 O 0.3729(2) 0.22373(19) 0.41095(19)
N1 N 0.2195(3) 0.4797(2) 0.31586(18)
N2 N 0.3450(2) 0.4845(2) -0.35249(18)
C1 C 0.2169(3) 0.4748(2) 0.1644(2)
C2 C 0.1646(3) 0.3153(2) 0.0530(2)
H1 H 0.1166 0.2077 0.0738
C3 C 0.1827(3) 0.3135(2) -0.0873(2)
H2 H 0.1464 0.2050 -0.1638
C4 C 0.2547(3) 0.4728(3) -0.1159(2)
C5 C 0.3019(3) 0.6324(2) -0.0064(2)
H3 H 0.3476 0.7399 -0.0278
C6 C 0.2814(3) 0.6323(2) 0.1330(2)
H4 H 0.3115 0.7399 0.2075
C7 C 0.2987(3) 0.4766(2) -0.2509(2)
H5 H 0.204(3) 0.567(3) 0.357(3)
H6 H 0.132(4) 0.390(3) 0.311(3)
H7 H 0.433(4) 0.181(3) 0.373(3)
H8 H 0.326(5) 0.170(4) 0.458(4)
N1A N 0.7805(3) 0.5203(2) -0.31586(18)
N2A N 0.6550(2) 0.5155(2) 0.35249(18)
C1A C 0.7831(3) 0.5252(2) -0.1644(2)
C2A C 0.8354(3) 0.6847(2) -0.0530(2)
H1A H 0.8834 0.7923 -0.0738
C3A C 0.8173(3) 0.6865(2) 0.0873(2)
H2A H 0.8536 0.7950 0.1638
C4A C 0.7453(3) 0.5272(3) 0.1159(2)
C5A C 0.6981(3) 0.3676(2) 0.0064(2)
H3A H 0.6524 0.2601 0.0278
C6A C 0.7186(3) 0.3677(2) -0.1330(2)
H4A H 0.6885 0.2601 -0.2075
C7A C 0.7013(3) 0.5234(2) 0.2509(2)
H5A H 0.796(3) 0.433(3) -0.357(3)
H6A H 0.868(4) 0.610(3) -0.311(3)
O1A O 0.6271(2) 0.77627(19) 0.58905(19)
H7A H 0.567(4) 0.819(3) 0.627(3)
H8A H 0.674(5) 0.830(4) 0.542(4)
Zn1_2 Zn 0.5000 0.5000 -0.5000
N1A_2 N 0.7805(3) 0.5203(2) 0.68414(18)
N2_2 N 0.3450(2) 0.4845(2) 0.64751(18)
Cl1 Cl 0.23843(7) -0.09188(6) 0.63670(6)
O2 O 0.1100(3) -0.1473(3) 0.7130(3)
O3 O 0.4396(2) -0.0713(2) 0.73463(19)
O4 O 0.1596(3) -0.2179(2) 0.4813(2)
O5 O 0.2498(2) 0.0750(2) 0.62139(19)
loop_
_geom_bond_atom_site_label_1
_geom_bond_atom_site_label_2
_geom_bond_site_symmetry_1
_geom_bond_site_symmetry_2
Zn1 O1 1_555 1_555
O1 H7 1_555 1_555
N1 Zn1 1_555 1_555
N2 C7 1_555 1_555
C1 N1 1_555 1_555
C2 C1 1_555 1_555
H1 C2 1_555 1_555
C3 C2 1_555 1_555
H2 C3 1_555 1_555
C4 C3 1_555 1_555
C5 C4 1_555 1_555
H3 C5 1_555 1_555
C6 C1 1_555 1_555
H4 C6 1_555 1_555
C7 C4 1_555 1_555
H5 N1 1_555 1_555
H6 N1 1_555 1_555
H8 O1 1_555 1_555
Cl1 O2 1_555 1_555
O3 Cl1 1_555 1_555
O4 Cl1 1_555 1_555
O5 Cl1 1_555 1_555
N1A C1A 1_555 1_555
N2A Zn1 1_555 1_555
C1A C2A 1_555 1_555
C2A H1A 1_555 1_555
C3A C2A 1_555 1_555
H2A C3A 1_555 1_555
C4A C3A 1_555 1_555
C5A C4A 1_555 1_555
H3A C5A 1_555 1_555
C6A C1A 1_555 1_555
H4A C6A 1_555 1_555
C7A N2A 1_555 1_555
H5A N1A 1_555 1_555
H6A N1A 1_555 1_555
O1A Zn1 1_555 1_555
H7A O1A 1_555 1_555
H8A O1A 1_555 1_555
Zn1_2 N2 1_555 1_555
N1A_2 Zn1 1_555 1_555
N2_2 Zn1 1_555 1_555
C5 C6 1_555 1_555
N1A Zn1_2 1_555 1_555
C4A C7A 1_555 1_555
C5A C6A 1_555 1_555

#END
