
#######################################################################
#
#                 Cambridge Crystallographic Data Centre
#                                CCDC 
#
#######################################################################
#
# If this CIF has been generated from an entry in the Cambridge 
# Structural Database, then it will include bibliographic, chemical, 
# crystal, experimental, refinement or atomic coordinate data resulting 
# from the CCDC's data processing and validation procedures.
#
#######################################################################

data_NEZMEM
_symmetry_cell_setting           triclinic
_symmetry_space_group_name_H-M   'P -1'
_symmetry_Int_Tables_number      2
_space_group_name_Hall           '-P 1'
loop_
_symmetry_equiv_pos_site_id
_symmetry_equiv_pos_as_xyz
1 x,y,z
2 -x,-y,-z
_cell_length_a                   8.5849(7)
_cell_length_b                   9.0641(8)
_cell_length_c                   15.4049(13)
_cell_angle_alpha                98.1830(10)
_cell_angle_beta                 100.6870(10)
_cell_angle_gamma                97.5650(10)
_cell_volume                     1150.44
loop_
_atom_site_label
_atom_site_type_symbol
_atom_site_fract_x
_atom_site_fract_y
_atom_site_fract_z
La1 La 0.250810(16) 0.520368(16) -0.001972(9)
O1 O 0.5263(2) 0.4498(2) 0.08270(12)
O2 O 0.3453(2) 0.4896(3) 0.16179(13)
O3 O 1.1368(3) 0.6943(2) 0.90175(13)
O4 O 1.1249(3) 0.9289(3) 0.95723(16)
H1 H 1.2034 0.9187 0.9939
O5 O 0.4216(3) 0.7646(2) 0.07303(16)
O6 O 0.3506(4) 0.9868(3) 0.08625(18)
O7 O 1.1368(2) 1.3578(2) 0.84057(13)
O8 O 0.9559(2) 1.3867(2) 0.92249(12)
O9 O 0.2299(3) 0.2390(2) 0.00873(18)
H2 H 0.1608 0.1898 -0.0331
H3 H 0.299(3) 0.188(4) 0.029(2)
C1 C 0.4815(3) 0.4606(3) 0.15742(17)
C2 C 0.5915(4) 0.4353(4) 0.23971(19)
H4 H 0.6979 0.4330 0.2273
H5 H 0.5534 0.3376 0.2535
C3 C 0.6031(4) 0.5542(4) 0.3200(2)
H6 H 0.4955 0.5644 0.3281
H7 H 0.6524 0.6500 0.3085
C4 C 0.6986(4) 0.5217(4) 0.4059(2)
H8 H 0.6470 0.4277 0.4186
H9 H 0.8049 0.5076 0.3970
C5 C 0.7157(4) 0.6432(4) 0.4860(2)
H10 H 0.6094 0.6585 0.4944
H11 H 0.7689 0.7369 0.4738
C6 C 0.8092(4) 0.6092(4) 0.5723(2)
H12 H 0.7527 0.5186 0.5863
H13 H 0.9133 0.5882 0.5629
C7 C 0.8348(4) 0.7345(4) 0.6521(2)
H14 H 0.7310 0.7514 0.6640
H15 H 0.8859 0.8267 0.6371
C8 C 0.9370(4) 0.7025(4) 0.73689(19)
H16 H 0.8824 0.6143 0.7544
H17 H 1.0382 0.6789 0.7241
C9 C 0.9706(4) 0.8318(4) 0.8138(2)
H18 H 0.8697 0.8476 0.8304
H19 H 1.0129 0.9223 0.7934
C10 C 1.0860(4) 0.8129(3) 0.89591(19)
C11 C 0.4485(4) 0.8973(3) 0.10639(18)
C12 C 0.5959(4) 0.9628(4) 0.1776(2)
H20 H 0.6422 1.0592 0.1653
H21 H 0.6749 0.8957 0.1757
C13 C 0.5580(4) 0.9852(4) 0.27090(18)
H22 H 0.4788 1.0521 0.2724
H23 H 0.5111 0.8886 0.2827
C14 C 0.7048(4) 1.0510(4) 0.34442(19)
H24 H 0.7837 0.9838 0.3430
H25 H 0.7519 1.1472 0.3323
C15 C 0.6681(4) 1.0744(4) 0.43732(19)
H26 H 0.6214 0.9778 0.4492
H27 H 0.5882 1.1406 0.4382
C16 C 0.8120(4) 1.1410(4) 0.51206(19)
H28 H 0.8588 1.2379 0.5007
H29 H 0.8922 1.0750 0.5115
C17 C 0.7713(4) 1.1629(4) 0.60449(19)
H30 H 0.6887 1.2264 0.6042
H31 H 0.7265 1.0654 0.6161
C18 C 0.9113(3) 1.2327(4) 0.68029(18)
H32 H 0.9584 1.3291 0.6684
H33 H 0.9926 1.1676 0.6826
C19 C 0.8636(3) 1.2568(3) 0.77058(18)
H34 H 0.7747 1.3131 0.7658
H35 H 0.8252 1.1590 0.7842
C20 C 0.9942(3) 1.3388(3) 0.84756(17)
La1_2 La 1.250810(16) 0.520368(16) 0.998028(9)
La1_3 La 1.250810(16) 1.520368(16) 0.998028(9)
La1A La 0.749190(16) 0.479632(16) 0.001972(9)
La1A_2 La 0.749190(16) 1.479632(16) 1.001972(9)
O1A O 0.4737(2) 0.5502(2) -0.08270(12)
O3_2 O 0.1368(3) 0.6943(2) -0.09825(13)
O7_2 O 0.1368(2) 0.3578(2) -0.15943(13)
O8_2 O -0.0441(2) 0.3867(2) -0.07751(12)
O8A O 0.0441(2) 0.6133(2) 0.07751(12)
loop_
_geom_bond_atom_site_label_1
_geom_bond_atom_site_label_2
_geom_bond_site_symmetry_1
_geom_bond_site_symmetry_2
La1 O1 1_555 1_555
O1 C1 1_555 1_555
O2 La1 1_555 1_555
O3 C10 1_555 1_555
O4 H1 1_555 1_555
O5 La1 1_555 1_555
O6 C11 1_555 1_555
O7 C20 1_555 1_555
O8 C20 1_555 1_555
O9 La1 1_555 1_555
H2 O9 1_555 1_555
H3 O9 1_555 1_555
C1 O2 1_555 1_555
C2 C1 1_555 1_555
H4 C2 1_555 1_555
H5 C2 1_555 1_555
C3 C2 1_555 1_555
H6 C3 1_555 1_555
H7 C3 1_555 1_555
C4 C3 1_555 1_555
H8 C4 1_555 1_555
H9 C4 1_555 1_555
C5 C4 1_555 1_555
H10 C5 1_555 1_555
H11 C5 1_555 1_555
C6 C5 1_555 1_555
H12 C6 1_555 1_555
H13 C6 1_555 1_555
C7 C6 1_555 1_555
H14 C7 1_555 1_555
H15 C7 1_555 1_555
C8 C7 1_555 1_555
H16 C8 1_555 1_555
H17 C8 1_555 1_555
C9 C8 1_555 1_555
H18 C9 1_555 1_555
H19 C9 1_555 1_555
C10 O4 1_555 1_555
C11 O5 1_555 1_555
C12 C11 1_555 1_555
H20 C12 1_555 1_555
H21 C12 1_555 1_555
C13 C12 1_555 1_555
H22 C13 1_555 1_555
H23 C13 1_555 1_555
C14 C13 1_555 1_555
H24 C14 1_555 1_555
H25 C14 1_555 1_555
C15 C14 1_555 1_555
H26 C15 1_555 1_555
H27 C15 1_555 1_555
C16 C15 1_555 1_555
H28 C16 1_555 1_555
H29 C16 1_555 1_555
C17 C16 1_555 1_555
H30 C17 1_555 1_555
H31 C17 1_555 1_555
C18 C17 1_555 1_555
H32 C18 1_555 1_555
H33 C18 1_555 1_555
C19 C18 1_555 1_555
H34 C19 1_555 1_555
H35 C19 1_555 1_555
C20 C19 1_555 1_555
La1_2 O3 1_555 1_555
La1_3 O7 1_555 1_555
La1A O1 1_555 1_555
La1A_2 O8 1_555 1_555
O1A La1 1_555 1_555
O3_2 La1 1_555 1_555
O7_2 La1 1_555 1_555
O8_2 La1 1_555 1_555
O8A La1 1_555 1_555
O8 La1_3 1_555 1_555
C9 C10 1_555 1_555
La1A O1A 1_555 1_555

#END
