
#######################################################################
#
#                 Cambridge Crystallographic Data Centre
#                                CCDC 
#
#######################################################################
#
# If this CIF has been generated from an entry in the Cambridge 
# Structural Database, then it will include bibliographic, chemical, 
# crystal, experimental, refinement or atomic coordinate data resulting 
# from the CCDC's data processing and validation procedures.
#
#######################################################################

data_NEZYAT
_symmetry_cell_setting           monoclinic
_symmetry_space_group_name_H-M   'P 21/n'
_symmetry_Int_Tables_number      14
_space_group_name_Hall           '-P 2yn'
loop_
_symmetry_equiv_pos_site_id
_symmetry_equiv_pos_as_xyz
1 x,y,z
2 1/2-x,1/2+y,1/2-z
3 -x,-y,-z
4 1/2+x,1/2-y,1/2+z
_cell_length_a                   9.1739(7)
_cell_length_b                   17.5921(13)
_cell_length_c                   14.3676(11)
_cell_angle_alpha                90
_cell_angle_beta                 99.5930(10)
_cell_angle_gamma                90
_cell_volume                     2286.34
loop_
_atom_site_label
_atom_site_type_symbol
_atom_site_fract_x
_atom_site_fract_y
_atom_site_fract_z
Cu1 Cu 0.55332(4) 0.545254(19) 0.58873(2)
Cu2 Cu 0.5000 0.5000 1.0000
F1 F 0.0159(4) 0.2848(2) 0.7381(3)
F2 F 0.5022(3) 0.23662(12) 0.70209(18)
O1 O 0.5033(2) 0.44217(10) 0.54650(12)
O2 O 0.4011(4) 0.37263(17) 0.9973(2)
H1 H 0.3018 0.3754 0.9876
N1 N 0.6230(3) 0.43958(13) 0.74727(15)
N2 N 0.5772(3) 0.51154(13) 0.72266(15)
N3 N 0.5523(3) 0.48841(14) 0.87091(16)
N4 N 0.4631(3) 0.29276(13) 0.45681(17)
N5 N 0.3976(3) 0.34555(13) 0.39415(16)
N6 N 0.2838(4) 0.23376(15) 0.3657(2)
N7 N 0.8245(4) 0.5262(2) 0.5995(3)
N8 N 1.0341(5) 0.6094(3) 0.5906(5)
N9 N 1.2931(4) 0.5935(2) 0.6305(3)
N10 N 0.6972(4) 0.4628(2) 1.0584(2)
N11 N 0.9535(6) 0.4644(4) 1.1346(4)
N12 N 1.1557(5) 0.3890(3) 1.0922(3)
C1 C 0.3912(3) 0.34960(16) 0.63635(19)
C2 C 0.3830(4) 0.28282(19) 0.6864(3)
C3 C 0.2592(5) 0.2602(3) 0.7211(3)
H2 H 0.2571 0.2148 0.7539
C4 C 0.1424(6) 0.3060(3) 0.7059(4)
C5 C 0.1403(5) 0.3733(3) 0.6594(4)
H3 H 0.0571 0.4044 0.6515
C6 C 0.2667(4) 0.3942(2) 0.6241(3)
H4 H 0.2670 0.4398 0.5913
C7 C 0.5295(3) 0.37395(15) 0.59787(18)
C8 C 0.6064(3) 0.42731(17) 0.83539(19)
H5 H 0.6295 0.3821 0.8680
C9 C 0.5348(4) 0.53819(17) 0.7992(2)
H6 H 0.4964 0.5868 0.8034
C10 C 0.6617(3) 0.38641(16) 0.67806(19)
H7 H 0.6906 0.3382 0.7085
H8 H 0.7451 0.4060 0.6520
C11 C 0.5812(3) 0.31317(16) 0.5333(2)
H9 H 0.6649 0.3325 0.5072
H10 H 0.6133 0.2682 0.5702
C12 C 0.3925(4) 0.22754(18) 0.4375(2)
H11 H 0.4169 0.1827 0.4708
C13 C 0.2916(4) 0.30729(17) 0.3412(2)
H12 H 0.2277 0.3291 0.2913
C14 C 0.9291(5) 0.5598(2) 0.5992(3)
C15 C 1.1717(5) 0.5951(2) 0.6161(3)
C16 C 0.8186(6) 0.4619(3) 1.0909(3)
C17 C 1.0579(5) 0.4240(3) 1.1075(4)
C18 C 0.4450(9) 0.2994(3) 0.9968(6)
H13 H 0.5479 0.2974 0.9913
H14 H 0.3879 0.2734 0.9442
H15 H 0.4305 0.2752 1.0545
Cu1B Cu 0.44668(4) 0.454746(19) 1.41127(2)
Cu1B_2 Cu 0.44668(4) 0.454746(19) 0.41127(2)
Cu1_2 Cu 1.55332(4) 0.545254(19) 0.58873(2)
Cu1_3 Cu 0.55332(4) 0.545254(19) 1.58873(2)
Cu1_4 Cu -0.44668(4) 0.545254(19) 0.58873(2)
F1B F 0.9841(4) 0.7152(2) 1.2619(3)
F2B F 0.4978(3) 0.76338(12) 1.29791(18)
O1B O 0.4967(2) 0.55783(10) 1.45350(12)
O1B_2 O 0.4967(2) 0.55783(10) 0.45350(12)
O1_2 O 0.5033(2) 0.44217(10) 1.54650(12)
O2B O 0.5989(4) 0.62737(17) 1.0027(2)
H1B H 0.6982 0.6246 1.0124
N1B N 0.3770(3) 0.56042(13) 1.25273(15)
N2B N 0.4228(3) 0.48846(13) 1.27734(15)
N3B N 0.4477(3) 0.51159(14) 1.12909(16)
N4B N 0.5369(3) 0.70724(13) 1.54319(17)
N5B N 0.6024(3) 0.65445(13) 1.60585(16)
N5B_2 N 0.6024(3) 0.65445(13) 0.60585(16)
N5_2 N 0.3976(3) 0.34555(13) 1.39415(16)
N6B N 0.7162(4) 0.76624(15) 1.6343(2)
N7_2 N -0.1755(4) 0.5262(2) 0.5995(3)
N7B N 0.1755(4) 0.4738(2) 1.4005(3)
N8_2 N 0.0341(5) 0.6094(3) 0.5906(5)
N9_2 N 0.2931(4) 0.5935(2) 0.6305(3)
N9B N 0.7069(4) 0.4065(2) 1.3695(3)
N10B N 0.3028(4) 0.5372(2) 0.9416(2)
N11B N 0.0465(6) 0.5356(4) 0.8654(4)
N12B N -0.1557(5) 0.6110(3) 0.9078(3)
C1B C 0.6088(3) 0.65040(16) 1.36365(19)
C2B C 0.6170(4) 0.71718(19) 1.3136(3)
C3B C 0.7408(5) 0.7398(3) 1.2789(3)
H2B H 0.7429 0.7852 1.2461
C4B C 0.8576(6) 0.6940(3) 1.2941(4)
C5B C 0.8597(5) 0.6267(3) 1.3406(4)
H3B H 0.9429 0.5956 1.3485
C6B C 0.7333(4) 0.6058(2) 1.3759(3)
H4B H 0.7330 0.5602 1.4087
C7B C 0.4705(3) 0.62605(15) 1.40213(18)
C8B C 0.3936(3) 0.57269(17) 1.16461(19)
H5B H 0.3705 0.6179 1.1320
C9B C 0.4652(4) 0.46181(17) 1.2008(2)
H6B H 0.5036 0.4132 1.1966
C10B C 0.3383(3) 0.61359(16) 1.32194(19)
H7B H 0.3094 0.6618 1.2915
H8B H 0.2549 0.5940 1.3480
C11B C 0.4188(3) 0.68683(16) 1.4667(2)
H9B H 0.3351 0.6675 1.4928
H10B H 0.3867 0.7318 1.4298
C12B C 0.6075(4) 0.77246(18) 1.5625(2)
H11B H 0.5831 0.8173 1.5292
C13B C 0.7084(4) 0.69271(17) 1.6588(2)
H12B H 0.7723 0.6709 1.7087
C14_2 C -0.0709(5) 0.5598(2) 0.5992(3)
C15_2 C 0.1717(5) 0.5951(2) 0.6161(3)
C16B C 0.1814(6) 0.5381(3) 0.9091(3)
C17B C -0.0579(5) 0.5760(3) 0.8925(4)
C18B C 0.5550(9) 0.7006(3) 1.0032(6)
H13B H 0.4521 0.7026 1.0087
H14B H 0.6121 0.7266 1.0558
H15B H 0.5695 0.7248 0.9455
loop_
_geom_bond_atom_site_label_1
_geom_bond_atom_site_label_2
_geom_bond_site_symmetry_1
_geom_bond_site_symmetry_2
Cu1 O1 1_555 1_555
Cu2 O2 1_555 1_555
F1 C4 1_555 1_555
F2 C2 1_555 1_555
O1 C7 1_555 1_555
O2 H1 1_555 1_555
N1 N2 1_555 1_555
N2 Cu1 1_555 1_555
N3 Cu2 1_555 1_555
N4 N5 1_555 1_555
N5 C13 1_555 1_555
N6 C12 1_555 1_555
N7 Cu1 1_555 1_555
N8 C14 1_555 1_555
N9 C15 1_555 1_555
N10 Cu2 1_555 1_555
N11 C16 1_555 1_555
N12 C17 1_555 1_555
C1 C2 1_555 1_555
C2 C3 1_555 1_555
C3 H2 1_555 1_555
C4 C3 1_555 1_555
C5 C4 1_555 1_555
H3 C5 1_555 1_555
C6 C1 1_555 1_555
H4 C6 1_555 1_555
C7 C1 1_555 1_555
C8 N1 1_555 1_555
H5 C8 1_555 1_555
C9 N2 1_555 1_555
H6 C9 1_555 1_555
C10 N1 1_555 1_555
H7 C10 1_555 1_555
H8 C10 1_555 1_555
C11 N4 1_555 1_555
H9 C11 1_555 1_555
H10 C11 1_555 1_555
C12 N4 1_555 1_555
H11 C12 1_555 1_555
C13 N6 1_555 1_555
H12 C13 1_555 1_555
C14 N7 1_555 1_555
C15 N8 1_555 1_555
C16 N10 1_555 1_555
C17 N11 1_555 1_555
C18 O2 1_555 1_555
H13 C18 1_555 1_555
H14 C18 1_555 1_555
H15 C18 1_555 1_555
Cu1B O1B 1_555 1_555
Cu1B_2 O1 1_555 1_555
Cu1_2 N9 1_555 1_555
Cu1_3 O1B 1_555 1_555
Cu1_4 N7_2 1_555 1_555
F1B C4B 1_555 1_555
F2B C2B 1_555 1_555
O1B C7B 1_555 1_555
O1B_2 Cu1 1_555 1_555
O1_2 Cu1B 1_555 1_555
O2B Cu2 1_555 1_555
H1B O2B 1_555 1_555
N1B N2B 1_555 1_555
N2B Cu1B 1_555 1_555
N3B Cu2 1_555 1_555
N4B N5B 1_555 1_555
N5B Cu1_3 1_555 1_555
N5B_2 Cu1 1_555 1_555
N5_2 Cu1B 1_555 1_555
N6B C12B 1_555 1_555
N7_2 C14_2 1_555 1_555
N7B Cu1B 1_555 1_555
N8_2 C14_2 1_555 1_555
N9_2 Cu1 1_555 1_555
N9B Cu1B 1_555 1_555
N10B Cu2 1_555 1_555
N11B C16B 1_555 1_555
N12B C17B 1_555 1_555
C1B C2B 1_555 1_555
C2B C3B 1_555 1_555
C3B H2B 1_555 1_555
C4B C3B 1_555 1_555
C5B C4B 1_555 1_555
H3B C5B 1_555 1_555
C6B C1B 1_555 1_555
H4B C6B 1_555 1_555
C7B C1B 1_555 1_555
C8B N1B 1_555 1_555
H5B C8B 1_555 1_555
C9B N2B 1_555 1_555
H6B C9B 1_555 1_555
C10B N1B 1_555 1_555
H7B C10B 1_555 1_555
H8B C10B 1_555 1_555
C11B N4B 1_555 1_555
H9B C11B 1_555 1_555
H10B C11B 1_555 1_555
C12B N4B 1_555 1_555
H11B C12B 1_555 1_555
C13B N5B 1_555 1_555
H12B C13B 1_555 1_555
C15_2 N8_2 1_555 1_555
C16B N10B 1_555 1_555
C17B N11B 1_555 1_555
C18B O2B 1_555 1_555
H13B C18B 1_555 1_555
H14B C18B 1_555 1_555
H15B C18B 1_555 1_555
N3 C8 1_555 1_555
N3 C9 1_555 1_555
N5 Cu1B_2 1_555 1_555
C5 C6 1_555 1_555
C7 C10 1_555 1_555
C7 C11 1_555 1_555
Cu1B_2 O1B_2 1_555 1_555
Cu1_3 O1_2 1_555 1_555
N3B C8B 1_555 1_555
N3B C9B 1_555 1_555
N6B C13B 1_555 1_555
N9_2 C15_2 1_555 1_555
C5B C6B 1_555 1_555
C7B C10B 1_555 1_555
C7B C11B 1_555 1_555

#END
