
#######################################################################
#
#                 Cambridge Crystallographic Data Centre
#                                CCDC 
#
#######################################################################
#
# If this CIF has been generated from an entry in the Cambridge 
# Structural Database, then it will include bibliographic, chemical, 
# crystal, experimental, refinement or atomic coordinate data resulting 
# from the CCDC's data processing and validation procedures.
#
#######################################################################

data_NEZYEY
_symmetry_cell_setting           orthorhombic
_symmetry_space_group_name_H-M   'P n m a'
_symmetry_Int_Tables_number      62
_space_group_name_Hall           '-P 2ac 2n'
loop_
_symmetry_equiv_pos_site_id
_symmetry_equiv_pos_as_xyz
1 x,y,z
2 1/2-x,-y,1/2+z
3 -x,1/2+y,-z
4 1/2+x,1/2-y,1/2-z
5 -x,-y,-z
6 1/2+x,y,1/2-z
7 x,1/2-y,z
8 1/2-x,1/2+y,1/2+z
_cell_length_a                   14.939(3)
_cell_length_b                   30.516(6)
_cell_length_c                   15.694(3)
_cell_angle_alpha                90
_cell_angle_beta                 90
_cell_angle_gamma                90
_cell_volume                     7154.56
loop_
_atom_site_label
_atom_site_type_symbol
_atom_site_fract_x
_atom_site_fract_y
_atom_site_fract_z
Cu1 Cu 0.27066(3) 0.7500 0.07213(3)
Cu2 Cu 0.27426(3) 0.7500 0.29947(3)
Cu3 Cu 0.30053(3) 0.7500 0.53206(3)
Cu4 Cu 0.21796(3) 0.2500 0.33555(4)
O1 O 0.38543(12) 0.53057(6) 0.10645(13)
O2 O 0.11268(12) 0.46826(6) 0.10812(13)
O3 O 0.14624(13) 0.68004(6) 0.00111(14)
O4 O 0.27586(13) 0.68684(6) 0.07019(13)
O5 O 0.33972(13) 0.31814(6) -0.01692(14)
O6 O 0.19956(13) 0.31323(6) 0.03026(14)
O7 O 0.32296(14) 0.31580(6) 0.23323(15)
O8 O 0.21577(14) 0.31283(6) 0.33192(15)
O9 O 0.14503(13) 0.67880(6) 0.24017(13)
O10 O 0.27983(13) 0.68683(6) 0.29867(13)
O11 O 0.11005(12) 0.46893(6) 0.36089(13)
O12 O 0.38373(12) 0.53045(6) 0.35351(13)
C1 C 0.18462(17) 0.44735(8) 0.07179(17)
C2 C 0.19110(18) 0.40255(9) 0.06513(17)
H1 H 0.1457 0.3849 0.0866
C3 C 0.26606(18) 0.38342(8) 0.02608(17)
C4 C 0.33419(18) 0.41011(8) -0.00475(18)
H2 H 0.3845 0.3978 -0.0302
C5 C 0.32659(18) 0.45511(8) 0.00267(17)
H3 H 0.3726 0.4727 -0.0180
C6 C 0.25256(17) 0.47514(8) 0.03990(17)
C7 C 0.24408(18) 0.52359(8) 0.04113(17)
C8 C 0.16826(18) 0.54358(8) 0.00653(18)
H4 H 0.1230 0.5261 -0.0158
C9 C 0.15838(18) 0.58866(8) 0.00449(17)
H5 H 0.1075 0.6011 -0.0196
C10 C 0.22452(18) 0.61530(8) 0.03852(17)
C11 C 0.30074(18) 0.59634(9) 0.07389(17)
H6 H 0.3450 0.6140 0.0973
C12 C 0.31082(18) 0.55142(9) 0.07432(17)
C13 C 0.21415(18) 0.66386(9) 0.03592(18)
C14 C 0.27004(19) 0.33500(9) 0.01256(18)
C15 C 0.04308(18) 0.44193(9) 0.14311(19)
H7 H -0.0026 0.4605 0.1665
H8 H 0.0671 0.4236 0.1873
H9 H 0.0178 0.4239 0.0991
C16 C 0.45533(18) 0.55722(9) 0.13988(19)
H10 H 0.5030 0.5389 0.1602
H11 H 0.4326 0.5746 0.1861
H12 H 0.4776 0.5762 0.0959
C17 C 0.18290(18) 0.44761(8) 0.32689(17)
C18 C 0.19065(18) 0.40267(9) 0.32605(18)
H13 H 0.1467 0.3855 0.3514
C19 C 0.26409(18) 0.38284(9) 0.28738(17)
C20 C 0.32971(18) 0.40865(8) 0.25020(18)
H14 H 0.3782 0.3956 0.2231
C21 C 0.32282(18) 0.45366(8) 0.25356(17)
H15 H 0.3683 0.4706 0.2301
C22 C 0.24981(18) 0.47454(8) 0.29097(16)
C23 C 0.24120(18) 0.52326(8) 0.28925(17)
C24 C 0.30954(18) 0.55108(8) 0.32052(17)
C25 C 0.30043(18) 0.59607(9) 0.31690(17)
H16 H 0.3453 0.6140 0.3388
C26 C 0.22407(17) 0.61492(8) 0.28045(17)
C27 C 0.15716(18) 0.58803(8) 0.24882(17)
H17 H 0.1063 0.6002 0.2241
C28 C 0.16620(18) 0.54285(8) 0.25410(17)
H18 H 0.1204 0.5252 0.2334
C29 C 0.21462(18) 0.66336(9) 0.27286(18)
C30 C 0.26895(19) 0.33393(9) 0.2832(2)
C31 C 0.45314(18) 0.55701(9) 0.38763(19)
H19 H 0.5004 0.5387 0.4086
H20 H 0.4298 0.5744 0.4335
H21 H 0.4761 0.5759 0.3439
C32 C 0.03966(18) 0.44298(10) 0.3942(2)
H22 H -0.0066 0.4617 0.4161
H23 H 0.0623 0.4248 0.4392
H24 H 0.0155 0.4248 0.3498
O13 O 0.1649(2) 0.7500 0.1457(2)
H25 H 0.160(2) 0.7291(7) 0.1773(17)
O14 O 0.1714(2) 0.7500 0.3776(2)
H26 H 0.169(2) 0.7293(7) 0.4111(17)
O15 O 0.2203(3) 0.7500 0.6296(2)
H27 H 0.218(3) 0.7304(9) 0.6637(19)
O16 O 0.3274(2) 0.2500 0.4032(2)
H28 H 0.341(2) 0.2696(8) 0.4373(18)
O17 O 0.3718(2) 0.7500 0.4207(2)
H29 H 0.4079(17) 0.7307(7) 0.413(2)
O18 O 0.3649(2) 0.7500 0.2050(2)
H30 H 0.3984(17) 0.7336(6) 0.1968(18)
O19 O 0.37120(19) 0.7500 -0.01129(19)
H31 H 0.4040 0.7281 -0.0034
O20 O 0.0980(2) 0.2500 0.2838(2)
H32 H 0.0783 0.2731 0.2891
O21 O 0.4296(3) 0.7500 0.6081(3)
H33 H 0.458(2) 0.7283(8) 0.614(3)
H25F H 0.160(2) 0.7709(7) 0.1773(17)
H26F H 0.169(2) 0.7707(7) 0.4111(17)
H27F H 0.218(3) 0.7696(9) 0.6637(19)
H28F H 0.341(2) 0.2304(8) 0.4373(18)
H29F H 0.4079(17) 0.7693(7) 0.413(2)
H30F H 0.3984(17) 0.7664(6) 0.1968(18)
H31F H 0.4040 0.7719 -0.0034
H32F H 0.0783 0.2269 0.2891
H33F H 0.458(2) 0.7717(8) 0.614(3)
O7F O 0.32296(14) 0.18420(6) 0.23323(15)
O8F O 0.21577(14) 0.18717(6) 0.33192(15)
O9F O 0.14503(13) -0.17880(6) 0.24017(13)
O10F O 0.27983(13) -0.18683(6) 0.29867(13)
O11F O 0.11005(12) 0.03107(6) 0.36089(13)
O12F O 0.38373(12) -0.03045(6) 0.35351(13)
C17F C 0.18290(18) 0.05239(8) 0.32689(17)
C18F C 0.19065(18) 0.09733(9) 0.32605(18)
H13F H 0.1467 0.1145 0.3514
C19F C 0.26409(18) 0.11716(9) 0.28738(17)
C20F C 0.32971(18) 0.09135(8) 0.25020(18)
H14F H 0.3782 0.1044 0.2231
C21F C 0.32282(18) 0.04634(8) 0.25356(17)
H15F H 0.3683 0.0294 0.2301
C22F C 0.24981(18) 0.02546(8) 0.29097(16)
C23F C 0.24120(18) -0.02326(8) 0.28925(17)
C24F C 0.30954(18) -0.05108(8) 0.32052(17)
C25F C 0.30043(18) -0.09607(9) 0.31690(17)
H16F H 0.3453 -0.1140 0.3388
C26F C 0.22407(17) -0.11492(8) 0.28045(17)
C27F C 0.15716(18) -0.08803(8) 0.24882(17)
H17F H 0.1063 -0.1002 0.2241
C28F C 0.16620(18) -0.04285(8) 0.25410(17)
H18F H 0.1204 -0.0252 0.2334
C29F C 0.21462(18) -0.16336(9) 0.27286(18)
C30F C 0.26895(19) 0.16607(9) 0.2832(2)
C31F C 0.45314(18) -0.05701(9) 0.38763(19)
H19F H 0.5004 -0.0387 0.4086
H20F H 0.4298 -0.0744 0.4335
H21F H 0.4761 -0.0759 0.3439
C32F C 0.03966(18) 0.05702(10) 0.3942(2)
H22F H -0.0066 0.0383 0.4161
H23F H 0.0623 0.0752 0.4392
H24F H 0.0155 0.0752 0.3498
O1F O 0.38543(12) 0.96943(6) 0.10645(13)
O2F O 0.11268(12) 1.03174(6) 0.10812(13)
O3F O 0.14624(13) 0.81996(6) 0.00111(14)
O4F O 0.27586(13) 0.81316(6) 0.07019(13)
O5F O 0.33972(13) 1.18186(6) -0.01692(14)
O6F O 0.19956(13) 1.18677(6) 0.03026(14)
C1F C 0.18462(17) 1.05265(8) 0.07179(17)
C2F C 0.19110(18) 1.09745(9) 0.06513(17)
H1F H 0.1457 1.1151 0.0866
C3F C 0.26606(18) 1.11658(8) 0.02608(17)
C4F C 0.33419(18) 1.08989(8) -0.00475(18)
H2F H 0.3845 1.1022 -0.0302
C5F C 0.32659(18) 1.04489(8) 0.00267(17)
H3F H 0.3726 1.0273 -0.0180
C6F C 0.25256(17) 1.02486(8) 0.03990(17)
C7F C 0.24408(18) 0.97641(8) 0.04113(17)
C8F C 0.16826(18) 0.95642(8) 0.00653(18)
H4F H 0.1230 0.9739 -0.0158
C9F C 0.15838(18) 0.91134(8) 0.00449(17)
H5F H 0.1075 0.8989 -0.0196
C10F C 0.22452(18) 0.88470(8) 0.03852(17)
C11F C 0.30074(18) 0.90366(9) 0.07389(17)
H6F H 0.3450 0.8860 0.0973
C12F C 0.31082(18) 0.94858(9) 0.07432(17)
C13F C 0.21415(18) 0.83614(9) 0.03592(18)
C14F C 0.27004(19) 1.16500(9) 0.01256(18)
C15F C 0.04308(18) 1.05807(9) 0.14311(19)
H7F H -0.0026 1.0395 0.1665
H8F H 0.0671 1.0764 0.1873
H9F H 0.0178 1.0761 0.0991
C16F C 0.45533(18) 0.94278(9) 0.13988(19)
H10F H 0.5030 0.9611 0.1602
H11F H 0.4326 0.9254 0.1861
H12F H 0.4776 0.9238 0.0959
Cu2_2 Cu 0.27426(3) -0.2500 0.29947(3)
Cu3A Cu 0.19947(3) 0.2500 0.03206(3)
Cu3A_2 Cu 0.19947(3) 1.2500 0.03206(3)
Cu4A Cu 0.28204(3) 0.7500 -0.16445(4)
O6A O 0.30044(13) 0.68677(6) 0.53026(14)
O6G O 0.30044(13) 0.81323(6) 0.53026(14)
O10F_2 O 0.27983(13) 0.81317(6) 0.29867(13)
O19A O 0.12880(19) 0.2500 0.48871(19)
O22 O 0.50070(19) 0.32601(9) 0.1861(2)
H34 H 0.4544 0.3412 0.1603
H35 H 0.4619 0.3140 0.2125
O23 O 0.5053(2) 0.66774(9) 0.6185(2)
H36 H 0.4878 0.6575 0.6686
H37 H 0.5618 0.6602 0.6114
O24 O 0.47592(16) 0.67739(8) 0.0076(2)
H38 H 0.5274 0.6789 0.0254
H39 H 0.4758 0.6675 -0.0395
O25 O 0.46704(17) 0.67605(9) 0.2101(2)
H40 H 0.4434(13) 0.6775(9) 0.2664(12)
H41 H 0.4096(11) 0.6640(7) 0.2084(17)
O26 O 0.46900(17) 0.67536(10) 0.4214(2)
H42 H 0.5200(13) 0.6714(14) 0.415(3)
H43 H 0.4345(19) 0.6625(9) 0.451(3)
loop_
_geom_bond_atom_site_label_1
_geom_bond_atom_site_label_2
_geom_bond_site_symmetry_1
_geom_bond_site_symmetry_2
Cu1 O4 1_555 1_555
Cu2 O10 1_555 1_555
Cu3 O15 1_555 1_555
Cu4 O8 1_555 1_555
O1 C12 1_555 1_555
O2 C1 1_555 1_555
O3 C13 1_555 1_555
O4 C13 1_555 1_555
O5 C14 1_555 1_555
O6 C14 1_555 1_555
O7 C30 1_555 1_555
O8 C30 1_555 1_555
O9 C29 1_555 1_555
O10 C29 1_555 1_555
O11 C17 1_555 1_555
O12 C24 1_555 1_555
C1 C2 1_555 1_555
C2 H1 1_555 1_555
C3 C2 1_555 1_555
C4 C3 1_555 1_555
H2 C4 1_555 1_555
C5 C4 1_555 1_555
H3 C5 1_555 1_555
C6 C1 1_555 1_555
C7 C6 1_555 1_555
C8 C7 1_555 1_555
H4 C8 1_555 1_555
C9 C8 1_555 1_555
H5 C9 1_555 1_555
C10 C9 1_555 1_555
C11 C10 1_555 1_555
H6 C11 1_555 1_555
C12 C7 1_555 1_555
C13 C10 1_555 1_555
C14 C3 1_555 1_555
C15 O2 1_555 1_555
H7 C15 1_555 1_555
H8 C15 1_555 1_555
H9 C15 1_555 1_555
C16 O1 1_555 1_555
H10 C16 1_555 1_555
H11 C16 1_555 1_555
H12 C16 1_555 1_555
C17 C18 1_555 1_555
C18 H13 1_555 1_555
C19 C18 1_555 1_555
C20 C19 1_555 1_555
H14 C20 1_555 1_555
C21 C20 1_555 1_555
H15 C21 1_555 1_555
C22 C17 1_555 1_555
C23 C22 1_555 1_555
C24 C23 1_555 1_555
C25 C24 1_555 1_555
H16 C25 1_555 1_555
C26 C25 1_555 1_555
C27 C26 1_555 1_555
H17 C27 1_555 1_555
C28 C23 1_555 1_555
H18 C28 1_555 1_555
C29 C26 1_555 1_555
C30 C19 1_555 1_555
C31 O12 1_555 1_555
H19 C31 1_555 1_555
H20 C31 1_555 1_555
H21 C31 1_555 1_555
C32 O11 1_555 1_555
H22 C32 1_555 1_555
H23 C32 1_555 1_555
H24 C32 1_555 1_555
O13 Cu1 1_555 1_555
H25 O13 1_555 1_555
O14 Cu2 1_555 1_555
H26 O14 1_555 1_555
O15 H27 1_555 1_555
O16 Cu4 1_555 1_555
H28 O16 1_555 1_555
O17 Cu2 1_555 1_555
H29 O17 1_555 1_555
O18 Cu1 1_555 1_555
H30 O18 1_555 1_555
O19 Cu1 1_555 1_555
H31 O19 1_555 1_555
O20 Cu4 1_555 1_555
H32 O20 1_555 1_555
O21 Cu3 1_555 1_555
H33 O21 1_555 1_555
O22 H34 1_555 1_555
H35 O22 1_555 1_555
O23 H36 1_555 1_555
H37 O23 1_555 1_555
O24 H38 1_555 1_555
H39 O24 1_555 1_555
O25 H40 1_555 1_555
H41 O25 1_555 1_555
O26 H42 1_555 1_555
H43 O26 1_555 1_555
H25F O13 1_555 1_555
H26F O14 1_555 1_555
H27F O15 1_555 1_555
H28F O16 1_555 1_555
H29F O17 1_555 1_555
H30F O18 1_555 1_555
H31F O19 1_555 1_555
H32F O20 1_555 1_555
H33F O21 1_555 1_555
O7F C30F 1_555 1_555
O8F Cu4 1_555 1_555
O9F C29F 1_555 1_555
O10F C29F 1_555 1_555
O11F C17F 1_555 1_555
O12F C24F 1_555 1_555
C17F C18F 1_555 1_555
C18F H13F 1_555 1_555
C19F C18F 1_555 1_555
C20F C19F 1_555 1_555
H14F C20F 1_555 1_555
C21F C20F 1_555 1_555
H15F C21F 1_555 1_555
C22F C17F 1_555 1_555
C23F C22F 1_555 1_555
C24F C23F 1_555 1_555
C25F C24F 1_555 1_555
H16F C25F 1_555 1_555
C26F C25F 1_555 1_555
C27F C26F 1_555 1_555
H17F C27F 1_555 1_555
C28F C23F 1_555 1_555
H18F C28F 1_555 1_555
C29F C26F 1_555 1_555
C30F O8F 1_555 1_555
C31F O12F 1_555 1_555
H19F C31F 1_555 1_555
H20F C31F 1_555 1_555
H21F C31F 1_555 1_555
C32F O11F 1_555 1_555
H22F C32F 1_555 1_555
H23F C32F 1_555 1_555
H24F C32F 1_555 1_555
O1F C12F 1_555 1_555
O2F C1F 1_555 1_555
O3F C13F 1_555 1_555
O4F Cu1 1_555 1_555
O5F C14F 1_555 1_555
O6F C14F 1_555 1_555
C1F C2F 1_555 1_555
C2F H1F 1_555 1_555
C3F C2F 1_555 1_555
C4F C3F 1_555 1_555
H2F C4F 1_555 1_555
C5F C4F 1_555 1_555
H3F C5F 1_555 1_555
C6F C1F 1_555 1_555
C7F C6F 1_555 1_555
C8F C7F 1_555 1_555
H4F C8F 1_555 1_555
C9F C8F 1_555 1_555
H5F C9F 1_555 1_555
C10F C9F 1_555 1_555
C11F C10F 1_555 1_555
H6F C11F 1_555 1_555
C12F C7F 1_555 1_555
C13F O4F 1_555 1_555
C14F C3F 1_555 1_555
C15F O2F 1_555 1_555
H7F C15F 1_555 1_555
H8F C15F 1_555 1_555
H9F C15F 1_555 1_555
C16F O1F 1_555 1_555
H10F C16F 1_555 1_555
H11F C16F 1_555 1_555
H12F C16F 1_555 1_555
Cu2_2 O10F 1_555 1_555
Cu3A O6 1_555 1_555
Cu3A_2 O6F 1_555 1_555
Cu4A O19 1_555 1_555
O6A Cu3 1_555 1_555
O6G Cu3 1_555 1_555
O10F_2 Cu2 1_555 1_555
O19A Cu4 1_555 1_555
Cu2 O18 1_555 1_555
Cu3 O17 1_555 1_555
C5 C6 1_555 1_555
C11 C12 1_555 1_555
C21 C22 1_555 1_555
C27 C28 1_555 1_555
C19F C30F 1_555 1_555
C21F C22F 1_555 1_555
C27F C28F 1_555 1_555
C5F C6F 1_555 1_555
C10F C13F 1_555 1_555
C11F C12F 1_555 1_555

#END
