
#######################################################################
#
#                 Cambridge Crystallographic Data Centre
#                                CCDC 
#
#######################################################################
#
# If this CIF has been generated from an entry in the Cambridge 
# Structural Database, then it will include bibliographic, chemical, 
# crystal, experimental, refinement or atomic coordinate data resulting 
# from the CCDC's data processing and validation procedures.
#
#######################################################################

data_NEZZID
_symmetry_cell_setting           monoclinic
_symmetry_space_group_name_H-M   'C 2/c'
_symmetry_Int_Tables_number      15
_space_group_name_Hall           '-C 2yn'
loop_
_symmetry_equiv_pos_site_id
_symmetry_equiv_pos_as_xyz
1 x,y,z
2 -x,y,1/2-z
3 1/2+x,1/2+y,z
4 1/2-x,1/2+y,1/2-z
5 -x,-y,-z
6 x,-y,1/2+z
7 1/2-x,1/2-y,-z
8 1/2+x,1/2-y,1/2+z
_cell_length_a                   31.553(8)
_cell_length_b                   12.836(3)
_cell_length_c                   13.264(3)
_cell_angle_alpha                90
_cell_angle_beta                 111.234(4)
_cell_angle_gamma                90
_cell_volume                     5007.39
loop_
_atom_site_label
_atom_site_type_symbol
_atom_site_fract_x
_atom_site_fract_y
_atom_site_fract_z
O5 O 0.57843(17) 0.8117(4) 0.2604(4)
H23 H 0.5787 0.8104 0.1964
H24 H 0.5790 0.7492 0.2823
C1 C 0.6292(2) 0.2187(5) 1.0799(5)
C2 C 0.5817(2) 0.2338(6) 1.0294(5)
C3 C 0.5516(3) 0.1560(8) 1.0319(7)
H1 H 0.5205 0.1661 0.9966
C4 C 0.5676(4) 0.0621(8) 1.0873(8)
H2 H 0.5473 0.0105 1.0894
C5 C 0.6128(4) 0.0474(7) 1.1373(7)
H3 H 0.6231 -0.0150 1.1736
C6 C 0.6449(3) 0.1239(6) 1.1362(5)
C7 C 0.6915(3) 0.1051(6) 1.1916(5)
H4 H 0.6995 0.0431 1.2301
C8 C 0.7712(3) 0.1398(7) 1.2604(6)
H5 H 0.7786 0.1663 1.3333
H6 H 0.7750 0.0647 1.2642
C9 C 0.5218(2) 0.3539(7) 0.9305(7)
H7 H 0.5068 0.3453 0.9822
H8 H 0.5073 0.3077 0.8698
C10 C 0.5175(3) 0.4618(9) 0.8931(7)
H9 H 0.5354 0.5060 0.9512
H10 H 0.4862 0.4827 0.8695
H11 H 0.5281 0.4674 0.8339
C11 C 0.74318(18) 0.4698(5) 1.0279(4)
C12 C 0.7296(2) 0.5597(5) 0.9642(5)
C13 C 0.7611(3) 0.6203(7) 0.9397(7)
H12 H 0.7520 0.6789 0.8959
C14 C 0.8076(3) 0.5904(8) 0.9836(8)
H13 H 0.8291 0.6312 0.9696
C15 C 0.8208(2) 0.5064(8) 1.0434(6)
H14 H 0.8515 0.4889 1.0705
C16 C 0.7896(2) 0.4428(6) 1.0673(5)
C17 C 0.8055(2) 0.3521(6) 1.1297(5)
H15 H 0.8365 0.3389 1.1538
C18 C 0.8007(3) 0.1861(8) 1.2111(6)
H16 H 0.8047 0.1383 1.1587
H17 H 0.8303 0.1998 1.2660
C19 C 0.6675(3) 0.6621(6) 0.8497(6)
H18 H 0.6739 0.6463 0.7850
H19 H 0.6825 0.7272 0.8795
C20 C 0.6167(3) 0.6723(8) 0.8216(7)
H20 H 0.6019 0.6092 0.7881
H21 H 0.6053 0.7295 0.7727
H22 H 0.6105 0.6846 0.8864
N1 N 0.7240(2) 0.1667(5) 1.1936(4)
N2 N 0.78043(18) 0.2858(5) 1.1562(4)
N3 N 0.6021(2) 0.4028(8) 0.8012(5)
Na1 Na 0.63257(7) 0.4516(2) 0.98201(17)
Ni1 Ni 0.71836(2) 0.28969(6) 1.11834(5)
O1 O 0.65600(13) 0.2933(3) 1.0737(3)
O2 O 0.56965(13) 0.3277(4) 0.9810(4)
O3 O 0.71162(12) 0.4148(3) 1.0463(3)
O4 O 0.68428(14) 0.5806(4) 0.9269(3)
N4 N 0.6114(3) 0.4179(8) 0.5858(6)
C21 C 0.5991(3) 0.3248(9) 0.5703(6)
N5 N 0.5878(3) 0.2352(8) 0.5590(6)
C22 C 0.6074(6) 0.4272(16) 0.7122(11)
Na1E Na 0.63257(7) 0.5484(2) 0.48201(17)
N4E N 0.6114(3) 0.5821(8) 1.0858(6)
C23? C 0.5000 0.0967(10) 0.2500
C24? C 0.5000 -0.0753(9) 0.2500
H25? H 0.5197 -0.1294 0.2912
H26? H 0.4708 -0.0815 0.2565
H27? H 0.4966 -0.0815 0.1754
C25? C 0.5000 0.2047(15) 0.2500
H28? H 0.5198 0.2297 0.2148
H29? H 0.5105 0.2297 0.3232
H30? H 0.4697 0.2297 0.2120
O6? O 0.4486(5) 0.0816(14) 0.1563(12)
O7? O 0.5187(5) 0.018(3) 0.2881(13)
loop_
_geom_bond_atom_site_label_1
_geom_bond_atom_site_label_2
_geom_bond_site_symmetry_1
_geom_bond_site_symmetry_2
C1 C2 1_555 1_555
C2 C3 1_555 1_555
C3 H1 1_555 1_555
C4 C3 1_555 1_555
H2 C4 1_555 1_555
C5 C4 1_555 1_555
H3 C5 1_555 1_555
C6 C1 1_555 1_555
C7 C6 1_555 1_555
H4 C7 1_555 1_555
C8 H5 1_555 1_555
H6 C8 1_555 1_555
C9 H7 1_555 1_555
H8 C9 1_555 1_555
C10 C9 1_555 1_555
H9 C10 1_555 1_555
H10 C10 1_555 1_555
H11 C10 1_555 1_555
C11 C12 1_555 1_555
C12 C13 1_555 1_555
C13 H12 1_555 1_555
C14 C13 1_555 1_555
H13 C14 1_555 1_555
C15 C14 1_555 1_555
H14 C15 1_555 1_555
C16 C11 1_555 1_555
C17 C16 1_555 1_555
H15 C17 1_555 1_555
C18 C8 1_555 1_555
H16 C18 1_555 1_555
H17 C18 1_555 1_555
C19 H18 1_555 1_555
H19 C19 1_555 1_555
C20 C19 1_555 1_555
H20 C20 1_555 1_555
H21 C20 1_555 1_555
H22 C20 1_555 1_555
N1 C7 1_555 1_555
N2 C17 1_555 1_555
N3 Na1 1_555 1_555
Na1 O1 1_555 1_555
Ni1 N1 1_555 1_555
O1 C1 1_555 1_555
O2 C2 1_555 1_555
O3 C11 1_555 1_555
O4 C12 1_555 1_555
N4 C21 1_555 1_555
C21 N5 1_555 1_555
C22 N3 1_555 1_555
O5 H23 1_555 1_555
H24 O5 1_555 1_555
Na1E N4 1_555 1_555
N4E Na1 1_555 1_555
C5 C6 1_555 1_555
C8 N1 1_555 1_555
C9 O2 1_555 1_555
C15 C16 1_555 1_555
C18 N2 1_555 1_555
C19 O4 1_555 1_555
N2 Ni1 1_555 1_555
Na1 O2 1_555 1_555
Na1 O3 1_555 1_555
Na1 O4 1_555 1_555
Ni1 O1 1_555 1_555
Ni1 O3 1_555 1_555
N4 C22 1_555 1_555

#END
