
#######################################################################
#
#                 Cambridge Crystallographic Data Centre
#                                CCDC 
#
#######################################################################
#
# If this CIF has been generated from an entry in the Cambridge 
# Structural Database, then it will include bibliographic, chemical, 
# crystal, experimental, refinement or atomic coordinate data resulting 
# from the CCDC's data processing and validation procedures.
#
#######################################################################

data_NIBGOW
_symmetry_cell_setting           monoclinic
_symmetry_space_group_name_H-M   'P 21/n'
_symmetry_Int_Tables_number      14
_space_group_name_Hall           '-P 2yn'
loop_
_symmetry_equiv_pos_site_id
_symmetry_equiv_pos_as_xyz
1 x,y,z
2 1/2-x,1/2+y,1/2-z
3 -x,-y,-z
4 1/2+x,1/2-y,1/2+z
_cell_length_a                   12.173(2)
_cell_length_b                   6.6055(12)
_cell_length_c                   19.308(3)
_cell_angle_alpha                90
_cell_angle_beta                 92.017(3)
_cell_angle_gamma                90
_cell_volume                     1551.57
loop_
_atom_site_label
_atom_site_type_symbol
_atom_site_fract_x
_atom_site_fract_y
_atom_site_fract_z
Co1 Co -0.10877(4) 0.97630(7) 0.21805(2)
O1 O 0.0070(2) 0.7758(3) 0.20673(11)
O2 O -0.2258(2) 1.1936(3) 0.25532(11)
O3 O -0.2688(2) 1.3738(4) 0.34760(12)
N1 N -0.0575(2) 1.0093(4) 0.31768(14)
N2 N -0.0596(2) 1.1819(4) 0.14276(14)
C1 C 0.0555(3) 0.6651(5) 0.25374(18)
C2 C 0.1112(3) 0.4867(5) 0.23220(19)
H1 H 0.1129 0.4579 0.1851
C3 C 0.1610(3) 0.3593(6) 0.2771(2)
H2 H 0.1945 0.2437 0.2603
C4 C 0.1643(3) 0.3953(6) 0.3496(2)
C5 C 0.2138(4) 0.2560(7) 0.3962(2)
H3 H 0.2441 0.1375 0.3792
C6 C 0.2182(4) 0.2917(8) 0.4655(2)
H4 H 0.2524 0.1996 0.4956
C7 C 0.1716(4) 0.4651(8) 0.4909(2)
H5 H 0.1742 0.4889 0.5384
C8 C 0.1212(4) 0.6041(7) 0.4470(2)
H6 H 0.0909 0.7204 0.4656
C9 C 0.1145(3) 0.5740(6) 0.37429(19)
C10 C 0.0578(3) 0.7090(5) 0.32613(18)
C11 C 0.0025(3) 0.8830(5) 0.35211(18)
H7 H 0.0111 0.9069 0.3995
C12 C -0.1066(3) 1.1767(5) 0.35524(19)
H8 H -0.0537 1.2859 0.3607
H9 H -0.1259 1.1315 0.4010
C13 C -0.2076(3) 1.2524(5) 0.31648(18)
C14 C -0.1094(3) 1.3607(5) 0.13252(18)
H10 H -0.1616 1.4009 0.1638
C15 C -0.0876(3) 1.4883(5) 0.07853(17)
H11 H -0.1243 1.6115 0.0743
C16 C -0.0114(3) 1.4342(5) 0.03038(17)
C17 C 0.0414(3) 1.2510(6) 0.0419(2)
H12 H 0.0948 1.2084 0.0118
C18 C 0.0158(3) 1.1317(6) 0.0972(2)
H13 H 0.0528 1.0095 0.1033
N2B N 0.0596(2) 1.8181(4) -0.14276(14)
C14B C 0.1094(3) 1.6393(5) -0.13252(18)
H10B H 0.1616 1.5991 -0.1638
C15B C 0.0876(3) 1.5117(5) -0.07853(17)
H11B H 0.1243 1.3885 -0.0743
C16B C 0.0114(3) 1.5658(5) -0.03038(17)
C17B C -0.0414(3) 1.7490(6) -0.0419(2)
H12B H -0.0948 1.7916 -0.0118
C18B C -0.0158(3) 1.8683(6) -0.0972(2)
H13B H -0.0528 1.9905 -0.1033
Co1B Co 0.10877(4) 2.02370(7) -0.21805(2)
O1B O -0.0070(2) 2.2242(3) -0.20673(11)
O2B O 0.2258(2) 1.8064(3) -0.25532(11)
O3B O 0.2688(2) 1.6262(4) -0.34760(12)
N1B N 0.0575(2) 1.9907(4) -0.31768(14)
C1B C -0.0555(3) 2.3349(5) -0.25374(18)
C2B C -0.1112(3) 2.5133(5) -0.23220(19)
H1B H -0.1129 2.5421 -0.1851
C3B C -0.1610(3) 2.6407(6) -0.2771(2)
H2B H -0.1945 2.7563 -0.2603
C4B C -0.1643(3) 2.6047(6) -0.3496(2)
C5B C -0.2138(4) 2.7440(7) -0.3962(2)
H3B H -0.2441 2.8625 -0.3792
C6B C -0.2182(4) 2.7083(8) -0.4655(2)
H4B H -0.2524 2.8004 -0.4956
C7B C -0.1716(4) 2.5349(8) -0.4909(2)
H5B H -0.1742 2.5111 -0.5384
C8B C -0.1212(4) 2.3959(7) -0.4470(2)
H6B H -0.0909 2.2796 -0.4656
C9B C -0.1145(3) 2.4260(6) -0.37429(19)
C10B C -0.0578(3) 2.2910(5) -0.32613(18)
C11B C -0.0025(3) 2.1170(5) -0.35211(18)
H7B H -0.0111 2.0931 -0.3995
C12B C 0.1066(3) 1.8233(5) -0.35524(19)
H8B H 0.0537 1.7141 -0.3607
H9B H 0.1259 1.8685 -0.4010
C13B C 0.2076(3) 1.7476(5) -0.31648(18)
Co1A Co -0.39123(4) 1.47630(7) 0.28195(2)
Co1C Co 0.39123(4) 1.52370(7) -0.28195(2)
O3A O -0.2312(2) 0.8738(4) 0.15240(12)
O3C O 0.2312(2) 2.1262(4) -0.15240(12)
loop_
_geom_bond_atom_site_label_1
_geom_bond_atom_site_label_2
_geom_bond_site_symmetry_1
_geom_bond_site_symmetry_2
Co1 O1 1_555 1_555
O1 C1 1_555 1_555
O2 Co1 1_555 1_555
O3 C13 1_555 1_555
N1 Co1 1_555 1_555
N2 Co1 1_555 1_555
C1 C2 1_555 1_555
C2 H1 1_555 1_555
C3 C2 1_555 1_555
H2 C3 1_555 1_555
C4 C3 1_555 1_555
C5 C4 1_555 1_555
H3 C5 1_555 1_555
C6 C5 1_555 1_555
H4 C6 1_555 1_555
C7 C6 1_555 1_555
H5 C7 1_555 1_555
C8 C7 1_555 1_555
H6 C8 1_555 1_555
C9 C4 1_555 1_555
C10 C1 1_555 1_555
C11 N1 1_555 1_555
H7 C11 1_555 1_555
C12 N1 1_555 1_555
H8 C12 1_555 1_555
H9 C12 1_555 1_555
C13 O2 1_555 1_555
C14 N2 1_555 1_555
H10 C14 1_555 1_555
C15 C14 1_555 1_555
H11 C15 1_555 1_555
C16 C15 1_555 1_555
C17 C16 1_555 1_555
H12 C17 1_555 1_555
C18 N2 1_555 1_555
H13 C18 1_555 1_555
N2B C14B 1_555 1_555
C14B H10B 1_555 1_555
C15B C14B 1_555 1_555
H11B C15B 1_555 1_555
C16B C16 1_555 1_555
C17B C16B 1_555 1_555
H12B C17B 1_555 1_555
C18B N2B 1_555 1_555
H13B C18B 1_555 1_555
Co1B N2B 1_555 1_555
O1B Co1B 1_555 1_555
O2B Co1B 1_555 1_555
O3B C13B 1_555 1_555
N1B Co1B 1_555 1_555
C1B O1B 1_555 1_555
C2B C1B 1_555 1_555
H1B C2B 1_555 1_555
C3B C2B 1_555 1_555
H2B C3B 1_555 1_555
C4B C3B 1_555 1_555
C5B C4B 1_555 1_555
H3B C5B 1_555 1_555
C6B C5B 1_555 1_555
H4B C6B 1_555 1_555
C7B C6B 1_555 1_555
H5B C7B 1_555 1_555
C8B C7B 1_555 1_555
H6B C8B 1_555 1_555
C9B C4B 1_555 1_555
C10B C1B 1_555 1_555
C11B N1B 1_555 1_555
H7B C11B 1_555 1_555
C12B N1B 1_555 1_555
H8B C12B 1_555 1_555
H9B C12B 1_555 1_555
C13B O2B 1_555 1_555
Co1A O3 1_555 1_555
Co1C O3B 1_555 1_555
O3A Co1 1_555 1_555
O3C Co1B 1_555 1_555
C8 C9 1_555 1_555
C9 C10 1_555 1_555
C10 C11 1_555 1_555
C12 C13 1_555 1_555
C17 C18 1_555 1_555
C15B C16B 1_555 1_555
C17B C18B 1_555 1_555
C8B C9B 1_555 1_555
C9B C10B 1_555 1_555
C10B C11B 1_555 1_555
C12B C13B 1_555 1_555

#END
