
#######################################################################
#
#                 Cambridge Crystallographic Data Centre
#                                CCDC 
#
#######################################################################
#
# If this CIF has been generated from an entry in the Cambridge 
# Structural Database, then it will include bibliographic, chemical, 
# crystal, experimental, refinement or atomic coordinate data resulting 
# from the CCDC's data processing and validation procedures.
#
#######################################################################

data_NIBMOB
_symmetry_cell_setting           orthorhombic
_symmetry_space_group_name_H-M   'A b a 2'
_symmetry_Int_Tables_number      41
_space_group_name_Hall           'A 2 -2ab'
loop_
_symmetry_equiv_pos_site_id
_symmetry_equiv_pos_as_xyz
1 x,y,z
2 -x,-y,z
3 1/2+x,1/2-y,z
4 1/2-x,1/2+y,z
5 x,1/2+y,1/2+z
6 -x,1/2-y,1/2+z
7 1/2+x,-y,1/2+z
8 1/2-x,y,1/2+z
_cell_length_a                   18.1226(10)
_cell_length_b                   13.0426(8)
_cell_length_c                   11.0123(6)
_cell_angle_alpha                90
_cell_angle_beta                 90
_cell_angle_gamma                90
_cell_volume                     2602.93
loop_
_atom_site_label
_atom_site_type_symbol
_atom_site_fract_x
_atom_site_fract_y
_atom_site_fract_z
Ag1 Ag 0.625854(13) 0.089511(19) 0.94925(5)
C1 C 0.74670(16) 0.1427(2) 1.1328(3)
H1 H 0.7043 0.1636 1.1733
C2 C 0.81374(17) 0.1559(2) 1.1887(3)
H2 H 0.8163 0.1864 1.2650
C3 C 0.87793(15) 0.1234(2) 1.1308(3)
C4 C 0.87088(16) 0.0826(2) 1.0146(3)
H3 H 0.9124 0.0618 0.9714
C5 C 0.80139(17) 0.0736(2) 0.9642(4)
H4 H 0.7973 0.0471 0.8861
C6 C 0.94972(16) 0.1296(2) 1.1939(3)
C7 C 1.03215(15) 0.1312(2) 1.3348(3)
C8 C 1.07069(16) 0.1293(2) 1.4447(3)
H5 H 1.0463 0.1252 1.5188
C9 C 1.14654(18) 0.1337(2) 1.4380(4)
H6 H 1.1739 0.1340 1.5094
C10 C 1.18322(17) 0.1379(3) 1.3271(3)
H7 H 1.2345 0.1399 1.3270
C11 C 1.14674(19) 0.1391(2) 1.2178(3)
H8 H 1.1718 0.1415 1.1441
C12 C 1.06968(16) 0.1364(2) 1.2240(3)
N1 N 0.73987(15) 0.10098(19) 1.0223(3)
N2 N 0.95692(13) 0.12574(19) 1.3133(2)
N3 N 1.01550(13) 0.13543(19) 1.1358(2)
H9 H 1.0222 0.1380 1.0586
O1 O 0.5762(2) 0.0819(3) 1.1701(3)
H10 H 0.549(2) 0.108(3) 1.222(5)
H11 H 0.579(5) 0.013(6) 1.201(8)
Ag1G Ag 0.874146(13) 0.089511(19) 1.44925(5)
N2G N 0.54308(13) 0.12574(19) 0.8133(2)
N4 N 0.40585(16) 0.1404(2) 0.3490(2)
O2 O 0.47311(15) 0.1250(2) 0.3733(3)
O3 O 0.38135(17) 0.1181(3) 0.2476(3)
O4 O 0.36523(12) 0.1775(2) 0.4269(3)
loop_
_geom_bond_atom_site_label_1
_geom_bond_atom_site_label_2
_geom_bond_site_symmetry_1
_geom_bond_site_symmetry_2
Ag1 N1 1_555 1_555
C1 H1 1_555 1_555
C2 C1 1_555 1_555
H2 C2 1_555 1_555
C3 C2 1_555 1_555
C4 C3 1_555 1_555
H3 C4 1_555 1_555
C5 C4 1_555 1_555
H4 C5 1_555 1_555
C6 C3 1_555 1_555
C7 C8 1_555 1_555
C8 H5 1_555 1_555
C9 C8 1_555 1_555
H6 C9 1_555 1_555
C10 C9 1_555 1_555
H7 C10 1_555 1_555
C11 C10 1_555 1_555
H8 C11 1_555 1_555
C12 C7 1_555 1_555
N1 C1 1_555 1_555
N2 C6 1_555 1_555
N3 C6 1_555 1_555
H9 N3 1_555 1_555
N4 O2 1_555 1_555
O1 Ag1 1_555 1_555
H10 O1 1_555 1_555
H11 O1 1_555 1_555
O3 N4 1_555 1_555
O4 N4 1_555 1_555
Ag1G N2 1_555 1_555
N2G Ag1 1_555 1_555
C5 N1 1_555 1_555
C7 N2 1_555 1_555
C11 C12 1_555 1_555
C12 N3 1_555 1_555

#END
