
#######################################################################
#
#                 Cambridge Crystallographic Data Centre
#                                CCDC 
#
#######################################################################
#
# If this CIF has been generated from an entry in the Cambridge 
# Structural Database, then it will include bibliographic, chemical, 
# crystal, experimental, refinement or atomic coordinate data resulting 
# from the CCDC's data processing and validation procedures.
#
#######################################################################

data_NIBMOB02
_symmetry_cell_setting           orthorhombic
_symmetry_space_group_name_H-M   'A b a 2'
_symmetry_Int_Tables_number      41
_space_group_name_Hall           'A 2 -2ab'
loop_
_symmetry_equiv_pos_site_id
_symmetry_equiv_pos_as_xyz
1 x,y,z
2 -x,-y,z
3 1/2-x,1/2+y,z
4 1/2+x,1/2-y,z
5 x,1/2+y,1/2+z
6 -x,1/2-y,1/2+z
7 1/2-x,y,1/2+z
8 1/2+x,-y,1/2+z
_cell_length_a                   18.0934(12)
_cell_length_b                   12.9305(9)
_cell_length_c                   10.9566(8)
_cell_angle_alpha                90
_cell_angle_beta                 90
_cell_angle_gamma                90
_cell_volume                     2563.37
loop_
_atom_site_label
_atom_site_type_symbol
_atom_site_fract_x
_atom_site_fract_y
_atom_site_fract_z
Ag1 Ag 0.625168(16) 0.08848(2) 0.12915(9)
O4 O 0.5755(2) 0.0820(3) -0.0916(3)
H1 H 0.5473 0.1205 -0.1321
H2 H 0.5751 0.0213 -0.1188
N1 N 0.7392(2) 0.0994(3) 0.0572(4)
N2 N 0.95705(17) 0.1255(3) -0.2345(3)
N3 N 1.01555(17) 0.1359(3) -0.0552(3)
H3 H 1.0223 0.1393 0.0233
C1 C 0.8014(2) 0.0717(3) 0.1149(5)
H4 H 0.7972 0.0435 0.1936
C2 C 0.8707(2) 0.0820(3) 0.0662(4)
H5 H 0.9126 0.0619 0.1109
C3 C 0.8780(2) 0.1228(3) -0.0507(4)
C4 C 0.8140(2) 0.1560(3) -0.1098(4)
H6 H 0.8167 0.1878 -0.1868
C5 C 0.7470(2) 0.1414(3) -0.0540(4)
H7 H 0.7041 0.1621 -0.0959
C6 C 0.9497(2) 0.1286(3) -0.1141(4)
C7 C 1.03296(19) 0.1317(3) -0.2545(4)
C8 C 1.0698(2) 0.1369(3) -0.1441(4)
C9 C 1.1471(2) 0.1404(3) -0.1375(5)
H8 H 1.1723 0.1435 -0.0626
C10 C 1.1843(2) 0.1391(3) -0.2482(5)
H9 H 1.2363 0.1414 -0.2478
C11 C 1.1476(2) 0.1344(3) -0.3602(6)
H10 H 1.1751 0.1340 -0.4330
C12 C 1.07098(19) 0.1304(3) -0.3653(5)
H11 H 1.0458 0.1270 -0.4402
Ag1F Ag 0.874832(16) 0.08848(2) -0.37085(9)
N2F N 0.54295(17) 0.1255(3) 0.2655(3)
O1 O 0.47284(16) 0.1256(3) 0.7066(3)
O2 O 0.36442(14) 0.1787(2) 0.6524(3)
O3 O 0.38152(19) 0.1186(3) 0.8339(4)
N4 N 0.40531(19) 0.1414(3) 0.7319(3)
loop_
_geom_bond_atom_site_label_1
_geom_bond_atom_site_label_2
_geom_bond_site_symmetry_1
_geom_bond_site_symmetry_2
Ag1 O4 1_555 1_555
O1 N4 1_555 1_555
O2 N4 1_555 1_555
O3 N4 1_555 1_555
O4 H1 1_555 1_555
H2 O4 1_555 1_555
N1 Ag1 1_555 1_555
N2 C6 1_555 1_555
N3 H3 1_555 1_555
C1 N1 1_555 1_555
H4 C1 1_555 1_555
C2 C1 1_555 1_555
H5 C2 1_555 1_555
C3 C2 1_555 1_555
C4 C3 1_555 1_555
H6 C4 1_555 1_555
C5 N1 1_555 1_555
H7 C5 1_555 1_555
C6 N3 1_555 1_555
C7 N2 1_555 1_555
C8 N3 1_555 1_555
C9 C8 1_555 1_555
H8 C9 1_555 1_555
C10 C9 1_555 1_555
H9 C10 1_555 1_555
C11 C10 1_555 1_555
H10 C11 1_555 1_555
C12 C7 1_555 1_555
H11 C12 1_555 1_555
Ag1F N2 1_555 1_555
N2F Ag1 1_555 1_555
C3 C6 1_555 1_555
C4 C5 1_555 1_555
C7 C8 1_555 1_555
C11 C12 1_555 1_555

#END
