
#######################################################################
#
#                 Cambridge Crystallographic Data Centre
#                                CCDC 
#
#######################################################################
#
# If this CIF has been generated from an entry in the Cambridge 
# Structural Database, then it will include bibliographic, chemical, 
# crystal, experimental, refinement or atomic coordinate data resulting 
# from the CCDC's data processing and validation procedures.
#
#######################################################################

data_NIBMUH
_symmetry_cell_setting           orthorhombic
_symmetry_space_group_name_H-M   'P b c n'
_symmetry_Int_Tables_number      60
_space_group_name_Hall           '-P 2n 2ab'
loop_
_symmetry_equiv_pos_site_id
_symmetry_equiv_pos_as_xyz
1 x,y,z
2 1/2-x,1/2-y,1/2+z
3 -x,y,1/2-z
4 1/2+x,1/2-y,-z
5 -x,-y,-z
6 1/2+x,1/2+y,1/2-z
7 x,-y,1/2+z
8 1/2-x,1/2+y,z
_cell_length_a                   18.4616(8)
_cell_length_b                   11.1849(6)
_cell_length_c                   13.4372(7)
_cell_angle_alpha                90
_cell_angle_beta                 90
_cell_angle_gamma                90
_cell_volume                     2774.66
loop_
_atom_site_label
_atom_site_type_symbol
_atom_site_fract_x
_atom_site_fract_y
_atom_site_fract_z
Ag1 Ag 0.373904(11) 0.096005(18) 0.155227(18)
C1 C 0.20504(15) 0.1178(2) 0.1749(2)
H1 H 0.2095 0.0415 0.2018
C2 C 0.13624(14) 0.1679(2) 0.16706(19)
H2 H 0.0957 0.1251 0.1875
C3 C 0.12882(13) 0.2826(2) 0.12836(19)
C4 C 0.19135(14) 0.3402(2) 0.09608(19)
H3 H 0.1886 0.4160 0.0680
C5 C 0.25769(14) 0.2840(2) 0.1060(2)
H4 H 0.2990 0.3238 0.0843
C6 C 0.05797(13) 0.3406(2) 0.12251(19)
C7 C -0.06102(13) 0.3627(2) 0.11775(19)
C8 C -0.13623(14) 0.3502(3) 0.1140(2)
H5 H -0.1583 0.2759 0.1071
C9 C -0.17601(14) 0.4547(3) 0.1211(2)
H6 H -0.2263 0.4505 0.1197
C10 C -0.14236(15) 0.5675(3) 0.1303(2)
H7 H -0.1710 0.6357 0.1353
C11 C -0.06750(15) 0.5789(2) 0.13203(19)
H8 H -0.0454 0.6533 0.1375
C12 C -0.02687(13) 0.4740(2) 0.12521(19)
N1 N 0.26506(12) 0.1748(2) 0.14535(17)
N2 N 0.04742(11) 0.45794(19) 0.12784(16)
N3 N -0.00543(11) 0.27997(19) 0.11657(17)
H9 H -0.0102 0.2036 0.1128
O1 O 0.42828(13) 0.2990(2) 0.1566(2)
H10 H 0.416(2) 0.335(4) 0.207(3)
H11 H 0.457(2) 0.336(4) 0.122(3)
Ag1G Ag 0.126096(11) 0.596005(18) 0.155227(18)
N2G N 0.45258(11) -0.04206(19) 0.12784(16)
Cl1 Cl 0.59436(3) -0.53822(5) 0.09745(5)
O2 O 0.54360(13) -0.4660(2) 0.15250(16)
O3 O 0.55406(12) -0.62211(19) 0.03867(17)
O4 O 0.63849(13) -0.6021(2) 0.16799(19)
O5 O 0.63870(15) -0.4648(2) 0.0365(2)
loop_
_geom_bond_atom_site_label_1
_geom_bond_atom_site_label_2
_geom_bond_site_symmetry_1
_geom_bond_site_symmetry_2
Ag1 N1 1_555 1_555
Cl1 O2 1_555 1_555
C1 H1 1_555 1_555
C2 C1 1_555 1_555
H2 C2 1_555 1_555
C3 C2 1_555 1_555
C4 C3 1_555 1_555
H3 C4 1_555 1_555
C5 C4 1_555 1_555
H4 C5 1_555 1_555
C6 C3 1_555 1_555
C7 C8 1_555 1_555
C8 H5 1_555 1_555
C9 C8 1_555 1_555
H6 C9 1_555 1_555
C10 C9 1_555 1_555
H7 C10 1_555 1_555
C11 C10 1_555 1_555
H8 C11 1_555 1_555
C12 C7 1_555 1_555
N1 C1 1_555 1_555
N2 C6 1_555 1_555
N3 C6 1_555 1_555
H9 N3 1_555 1_555
O1 Ag1 1_555 1_555
H10 O1 1_555 1_555
H11 O1 1_555 1_555
O3 Cl1 1_555 1_555
O4 Cl1 1_555 1_555
O5 Cl1 1_555 1_555
Ag1G N2 1_555 1_555
N2G Ag1 1_555 1_555
C5 N1 1_555 1_555
C7 N3 1_555 1_555
C11 C12 1_555 1_555
C12 N2 1_555 1_555

#END
