
#######################################################################
#
#                 Cambridge Crystallographic Data Centre
#                                CCDC 
#
#######################################################################
#
# If this CIF has been generated from an entry in the Cambridge 
# Structural Database, then it will include bibliographic, chemical, 
# crystal, experimental, refinement or atomic coordinate data resulting 
# from the CCDC's data processing and validation procedures.
#
#######################################################################

data_NIBNES
_symmetry_cell_setting           monoclinic
_symmetry_space_group_name_H-M   'P 21/n'
_symmetry_Int_Tables_number      14
_space_group_name_Hall           '-P 2yn'
loop_
_symmetry_equiv_pos_site_id
_symmetry_equiv_pos_as_xyz
1 x,y,z
2 1/2-x,1/2+y,1/2-z
3 -x,-y,-z
4 1/2+x,1/2-y,1/2+z
_cell_length_a                   7.610(2)
_cell_length_b                   13.595(3)
_cell_length_c                   17.471(5)
_cell_angle_alpha                90
_cell_angle_beta                 92.427(2)
_cell_angle_gamma                90
_cell_volume                     1805.89
loop_
_atom_site_label
_atom_site_type_symbol
_atom_site_fract_x
_atom_site_fract_y
_atom_site_fract_z
Ag1 Ag 0.94453(2) 0.720894(12) 0.200123(9)
C1 C 0.8680(3) 0.93744(16) 0.25397(12)
H1 H 0.8881 0.9532 0.2033
C2 C 0.8075(3) 1.01018(16) 0.30049(12)
H2 H 0.7892 1.0734 0.2815
C3 C 0.7738(3) 0.98859(14) 0.37624(11)
C4 C 0.8099(3) 0.89363(16) 0.40121(12)
H3 H 0.7915 0.8762 0.4517
C5 C 0.8729(3) 0.82517(16) 0.35129(12)
H4 H 0.8980 0.7622 0.3696
C6 C 0.7028(3) 1.06220(14) 0.42827(11)
C7 C 0.5773(3) 1.18995(16) 0.47562(11)
C8 C 0.4917(3) 1.27893(16) 0.48838(14)
H5 H 0.4429 1.3158 0.4480
C9 C 0.4825(3) 1.3098(2) 0.56300(15)
H6 H 0.4261 1.3688 0.5731
C10 C 0.5556(4) 1.2550(2) 0.62424(14)
H7 H 0.5490 1.2794 0.6738
C11 C 0.6367(3) 1.16622(19) 0.61308(12)
H8 H 0.6837 1.1292 0.6538
C12 C 0.6448(3) 1.13445(15) 0.53723(11)
C13 C 1.0716(3) 0.52564(16) 0.30655(12)
C14 C 1.0362(3) 0.43896(15) 0.35554(12)
C15 C 1.1074(3) 0.34745(14) 0.34005(11)
H9 H 1.1772 0.3397 0.2981
C16 C 1.0753(3) 0.26773(14) 0.38645(11)
C17 C 1.1499(3) 0.16855(15) 0.36854(11)
C18 C 0.9736(3) 0.28022(15) 0.44996(13)
H10 H 0.9541 0.2272 0.4822
C19 C 0.9014(3) 0.37075(18) 0.46545(13)
H11 H 0.8336 0.3786 0.5081
C20 C 0.9293(3) 0.44948(17) 0.41805(13)
H12 H 0.8770 0.5098 0.4276
N1 N 0.9000(2) 0.84491(13) 0.27737(9)
N2 N 0.6168(2) 1.14373(12) 0.40767(9)
N3 N 0.7211(2) 1.05327(12) 0.50566(9)
H13 H 0.7713 1.0055 0.5304
O1 O 0.9958(3) 0.60402(12) 0.31459(10)
O2 O 1.1887(3) 0.50970(13) 0.25616(12)
H14 H 1.214(4) 0.565(3) 0.2331(18)
O3 O 1.2306(2) 0.16383(11) 0.30598(9)
O4 O 1.1281(2) 0.09922(11) 0.41274(9)
Ag1A Ag 0.55547(2) 1.220894(12) 0.299877(9)
Ag1A_2 Ag 1.55547(2) 0.220894(12) 0.299877(9)
N2A N 0.8832(2) 0.64373(12) 0.09233(9)
O3A O 1.2694(2) 0.66383(11) 0.19402(9)
loop_
_geom_bond_atom_site_label_1
_geom_bond_atom_site_label_2
_geom_bond_site_symmetry_1
_geom_bond_site_symmetry_2
Ag1 N1 1_555 1_555
C1 H1 1_555 1_555
C2 C1 1_555 1_555
H2 C2 1_555 1_555
C3 C2 1_555 1_555
C4 C3 1_555 1_555
H3 C4 1_555 1_555
C5 C4 1_555 1_555
H4 C5 1_555 1_555
C6 C3 1_555 1_555
C7 C8 1_555 1_555
C8 H5 1_555 1_555
C9 C8 1_555 1_555
H6 C9 1_555 1_555
C10 C9 1_555 1_555
H7 C10 1_555 1_555
C11 C10 1_555 1_555
H8 C11 1_555 1_555
C12 C7 1_555 1_555
C13 C14 1_555 1_555
C14 C15 1_555 1_555
C15 H9 1_555 1_555
C16 C15 1_555 1_555
C17 C16 1_555 1_555
C18 C16 1_555 1_555
H10 C18 1_555 1_555
C19 C18 1_555 1_555
H11 C19 1_555 1_555
C20 C14 1_555 1_555
H12 C20 1_555 1_555
N1 C1 1_555 1_555
N2 C6 1_555 1_555
N3 C6 1_555 1_555
H13 N3 1_555 1_555
O1 Ag1 1_555 1_555
O2 C13 1_555 1_555
H14 O2 1_555 1_555
O3 C17 1_555 1_555
O4 C17 1_555 1_555
Ag1A N2 1_555 1_555
Ag1A_2 O3 1_555 1_555
N2A Ag1 1_555 1_555
O3A Ag1 1_555 1_555
C5 N1 1_555 1_555
C7 N2 1_555 1_555
C11 C12 1_555 1_555
C12 N3 1_555 1_555
C13 O1 1_555 1_555
C19 C20 1_555 1_555

#END
