
#######################################################################
#
#                 Cambridge Crystallographic Data Centre
#                                CCDC 
#
#######################################################################
#
# If this CIF has been generated from an entry in the Cambridge 
# Structural Database, then it will include bibliographic, chemical, 
# crystal, experimental, refinement or atomic coordinate data resulting 
# from the CCDC's data processing and validation procedures.
#
#######################################################################

data_NIBPIZ
_symmetry_cell_setting           tetragonal
_symmetry_space_group_name_H-M   'P 41 21 2'
_symmetry_Int_Tables_number      92
_space_group_name_Hall           'P 4abw 2nw'
loop_
_symmetry_equiv_pos_site_id
_symmetry_equiv_pos_as_xyz
1 x,y,z
2 -x,-y,1/2+z
3 1/2-y,1/2+x,1/4+z
4 1/2+y,1/2-x,3/4+z
5 1/2-x,1/2+y,1/4-z
6 1/2+x,1/2-y,3/4-z
7 y,x,-z
8 -y,-x,1/2-z
_cell_length_a                   8.2456(18)
_cell_length_b                   8.2456(18)
_cell_length_c                   33.852(11)
_cell_angle_alpha                90
_cell_angle_beta                 90
_cell_angle_gamma                90
_cell_volume                     2301.59
loop_
_atom_site_label
_atom_site_type_symbol
_atom_site_fract_x
_atom_site_fract_y
_atom_site_fract_z
Cd1 Cd 0.277537(18) 0.277537(18) 0.0000
S1 S -0.32674(10) 0.52655(14) 0.11766(2)
O1 O 0.1025(2) 0.4164(2) 0.04245(5)
O2 O 0.2630(2) 0.4696(3) 0.09292(5)
H1 H 0.2541 0.5000 0.1159
O3 O 0.2476(2) 0.5695(3) 0.16027(5)
O4 O 0.0614(2) 0.6435(2) 0.20367(5)
N1 N 0.47572(19) 0.47572(19) 0.0000
N2 N 1.0816(2) 1.0816(2) 0.0000
C1 C -0.1753(3) 0.4776(4) 0.08585(7)
H2 H -0.1935 0.4418 0.0602
C2 C -0.0235(3) 0.4961(3) 0.10173(6)
C3 C -0.0332(3) 0.5542(3) 0.14204(6)
C4 C -0.1908(3) 0.5746(4) 0.15335(7)
H3 H -0.2207 0.6113 0.1783
C5 C 0.1232(3) 0.4573(3) 0.07746(7)
C6 C 0.1008(3) 0.5927(3) 0.17049(7)
C7 C 0.4525(3) 0.6176(3) 0.01825(8)
H4 H 0.3548 0.6346 0.0313
C8 C 0.5672(3) 0.7403(3) 0.01858(7)
H5 H 0.5454 0.8384 0.0311
C9 C 0.7150(3) 0.7150(3) 0.0000
C10 C 0.8422(3) 0.8422(3) 0.0000
C11 C 1.0050(3) 0.8023(3) 0.00521(8)
H6 H 1.0363 0.6949 0.0087
C12 C 1.1192(3) 0.9253(3) 0.00514(8)
H7 H 1.2275 0.8978 0.0089
C7F C 0.6176(3) 0.4525(3) -0.01825(8)
H4F H 0.6346 0.3548 -0.0313
C8F C 0.7403(3) 0.5672(3) -0.01858(7)
H5F H 0.8384 0.5454 -0.0311
C11F C 0.8023(3) 1.0050(3) -0.00521(8)
H6F H 0.6949 1.0363 -0.0087
C12F C 0.9253(3) 1.1192(3) -0.00514(8)
H7F H 0.8978 1.2275 -0.0089
S1F S 0.52655(14) -0.32674(10) -0.11766(2)
O1F O 0.4164(2) 0.1025(2) -0.04245(5)
O2F O 0.4696(3) 0.2630(2) -0.09292(5)
H1F H 0.5000 0.2541 -0.1159
O3F O 0.5695(3) 0.2476(2) -0.16027(5)
O4F O 0.6435(2) 0.0614(2) -0.20367(5)
C1F C 0.4776(4) -0.1753(3) -0.08585(7)
H2F H 0.4418 -0.1935 -0.0602
C2F C 0.4961(3) -0.0235(3) -0.10173(6)
C3F C 0.5542(3) -0.0332(3) -0.14204(6)
C4F C 0.5746(4) -0.1908(3) -0.15335(7)
H3F H 0.6113 -0.2207 -0.1783
C5F C 0.4573(3) 0.1232(3) -0.07746(7)
C6F C 0.5927(3) 0.1008(3) -0.17049(7)
Cd1_2 Cd 1.277537(18) 1.277537(18) 0.0000
Cd1B Cd 0.222463(18) 0.777537(18) 0.2500
Cd1C Cd 0.777537(18) 0.222463(18) -0.2500
O4C O 0.1435(2) 0.4386(2) -0.04633(5)
O4D O 0.4386(2) 0.1435(2) 0.04633(5)
N2_2 N 0.0816(2) 0.0816(2) 0.0000
loop_
_geom_bond_atom_site_label_1
_geom_bond_atom_site_label_2
_geom_bond_site_symmetry_1
_geom_bond_site_symmetry_2
Cd1 O1 1_555 1_555
S1 C1 1_555 1_555
O1 C5 1_555 1_555
O2 H1 1_555 1_555
O3 C6 1_555 1_555
O4 C6 1_555 1_555
N1 Cd1 1_555 1_555
N2 C12 1_555 1_555
C1 H2 1_555 1_555
C2 C1 1_555 1_555
C3 C2 1_555 1_555
C4 S1 1_555 1_555
H3 C4 1_555 1_555
C5 O2 1_555 1_555
C6 C3 1_555 1_555
C7 N1 1_555 1_555
H4 C7 1_555 1_555
C8 C7 1_555 1_555
H5 C8 1_555 1_555
C9 C8 1_555 1_555
C10 C9 1_555 1_555
C11 C10 1_555 1_555
H6 C11 1_555 1_555
C12 C11 1_555 1_555
H7 C12 1_555 1_555
C7F N1 1_555 1_555
H4F C7F 1_555 1_555
C8F C9 1_555 1_555
H5F C8F 1_555 1_555
C11F C10 1_555 1_555
H6F C11F 1_555 1_555
C12F N2 1_555 1_555
H7F C12F 1_555 1_555
S1F C1F 1_555 1_555
O1F Cd1 1_555 1_555
O2F H1F 1_555 1_555
O3F C6F 1_555 1_555
O4F C6F 1_555 1_555
C1F H2F 1_555 1_555
C2F C1F 1_555 1_555
C3F C2F 1_555 1_555
C4F S1F 1_555 1_555
H3F C4F 1_555 1_555
C5F O1F 1_555 1_555
C6F C3F 1_555 1_555
Cd1_2 N2 1_555 1_555
Cd1B O4 1_555 1_555
Cd1C O4F 1_555 1_555
O4C Cd1 1_555 1_555
O4D Cd1 1_555 1_555
N2_2 Cd1 1_555 1_555
C2 C5 1_555 1_555
C3 C4 1_555 1_555
C7F C8F 1_555 1_555
C11F C12F 1_555 1_555
O2F C5F 1_555 1_555
C2F C5F 1_555 1_555
C3F C4F 1_555 1_555

#END
