
#######################################################################
#
#                 Cambridge Crystallographic Data Centre
#                                CCDC 
#
#######################################################################
#
# If this CIF has been generated from an entry in the Cambridge 
# Structural Database, then it will include bibliographic, chemical, 
# crystal, experimental, refinement or atomic coordinate data resulting 
# from the CCDC's data processing and validation procedures.
#
#######################################################################

data_NIBRUN
_symmetry_cell_setting           orthorhombic
_symmetry_space_group_name_H-M   'P 21 21 21'
_symmetry_Int_Tables_number      19
_space_group_name_Hall           'P 2ac 2ab'
loop_
_symmetry_equiv_pos_site_id
_symmetry_equiv_pos_as_xyz
1 x,y,z
2 1/2-x,-y,1/2+z
3 -x,1/2+y,1/2-z
4 1/2+x,1/2-y,-z
_cell_length_a                   9.641(2)
_cell_length_b                   10.711(2)
_cell_length_c                   11.172(3)
_cell_angle_alpha                90
_cell_angle_beta                 90
_cell_angle_gamma                90
_cell_volume                     1153.67
loop_
_atom_site_label
_atom_site_type_symbol
_atom_site_fract_x
_atom_site_fract_y
_atom_site_fract_z
Zn1 Zn 0.14384(6) 0.88322(6) 0.68326(5)
C1 C 0.6849(6) 0.7247(6) 0.0751(4)
C2 C 0.6011(5) 0.8118(5) 0.1464(4)
C3 C 0.5346(5) 0.9199(5) 0.1207(4)
C4 C 0.5279(6) 0.9994(6) 0.0096(4)
C5 C 0.5060(5) 0.8812(5) 0.3078(4)
C6 C 0.4821(5) 0.8981(6) 0.4383(4)
C7 C 0.5935(6) 0.9204(8) 0.5099(5)
H1 H 0.6821 0.9247 0.4773
C8 C 0.5739(8) 0.9365(8) 0.6312(5)
H2 H 0.6488 0.9547 0.6807
C9 C 0.4437(6) 0.9256(7) 0.6780(5)
H3 H 0.4313 0.9349 0.7601
C10 C 0.3540(5) 0.8893(5) 0.4909(3)
H4 H 0.2773 0.8739 0.4426
N1 N 0.5838(4) 0.7852(4) 0.2659(3)
N2 N 0.4729(4) 0.9657(4) 0.2224(3)
N3 N 0.3347(5) 0.9021(4) 0.6099(3)
O1 O 0.7300(4) 0.6285(5) 0.1241(3)
O2 O 0.7080(4) 0.7512(4) -0.0363(3)
O3 O 0.5956(4) 0.9585(4) -0.0812(3)
O4 O 0.4603(4) 1.0967(4) 0.0148(3)
H5 H 0.655(6) 0.830(6) -0.065(5)
Zn1A Zn 0.35616(6) 1.11678(6) 0.18326(5)
Zn1C Zn 0.64384(6) 0.61678(6) 0.31674(5)
N1C N 0.0838(4) 0.7148(4) 0.7341(3)
N2A N 0.0271(4) 1.0343(4) 0.7224(3)
O1C O 0.2300(4) 0.8715(5) 0.8759(3)
O4A O 0.0397(4) 0.9033(4) 0.5148(3)
loop_
_geom_bond_atom_site_label_1
_geom_bond_atom_site_label_2
_geom_bond_site_symmetry_1
_geom_bond_site_symmetry_2
Zn1 N3 1_555 1_555
C1 C2 1_555 1_555
C2 C3 1_555 1_555
C3 C4 1_555 1_555
C4 O3 1_555 1_555
C5 C6 1_555 1_555
C6 C7 1_555 1_555
C7 H1 1_555 1_555
C8 C7 1_555 1_555
H2 C8 1_555 1_555
C9 C8 1_555 1_555
H3 C9 1_555 1_555
C10 C6 1_555 1_555
H4 C10 1_555 1_555
N1 C2 1_555 1_555
N2 C3 1_555 1_555
N3 C9 1_555 1_555
O1 C1 1_555 1_555
O2 C1 1_555 1_555
O4 C4 1_555 1_555
H5 O2 1_555 1_555
Zn1A N2 1_555 1_555
Zn1C N1 1_555 1_555
N1C Zn1 1_555 1_555
N2A Zn1 1_555 1_555
O1C Zn1 1_555 1_555
O4A Zn1 1_555 1_555
C5 N1 1_555 1_555
C5 N2 1_555 1_555
C10 N3 1_555 1_555
O1 Zn1C 1_555 1_555
O4 Zn1A 1_555 1_555

#END
