
#######################################################################
#
#                 Cambridge Crystallographic Data Centre
#                                CCDC 
#
#######################################################################
#
# If this CIF has been generated from an entry in the Cambridge 
# Structural Database, then it will include bibliographic, chemical, 
# crystal, experimental, refinement or atomic coordinate data resulting 
# from the CCDC's data processing and validation procedures.
#
#######################################################################

data_NIBRIB
_symmetry_cell_setting           monoclinic
_symmetry_space_group_name_H-M   'P 21/c'
_symmetry_Int_Tables_number      14
_space_group_name_Hall           '-P 2ybc'
loop_
_symmetry_equiv_pos_site_id
_symmetry_equiv_pos_as_xyz
1 x,y,z
2 -x,1/2+y,1/2-z
3 -x,-y,-z
4 x,1/2-y,1/2+z
_cell_length_a                   9.3161(19)
_cell_length_b                   22.563(4)
_cell_length_c                   13.023(5)
_cell_angle_alpha                90
_cell_angle_beta                 117.22(2)
_cell_angle_gamma                90
_cell_volume                     2434.27
loop_
_atom_site_label
_atom_site_type_symbol
_atom_site_fract_x
_atom_site_fract_y
_atom_site_fract_z
La1 La 0.30360(5) 0.034311(19) 0.55065(4)
O1 O 0.0176(6) 0.0609(3) 0.4544(5)
O2 O -0.2489(6) 0.0543(2) 0.3505(5)
O3 O 0.2500(6) 0.0905(3) 0.3623(5)
O4 O 0.4925(3) 0.04972(11) 0.4332(2)
O5 O 0.5932(3) 0.05479(11) 0.7109(2)
H1 H 0.6698 0.0520 0.6929
H2 H 0.6175 0.0892 0.7404
O6 O 0.3309(3) 0.14622(11) 0.5808(2)
H3 H 0.2968 0.1752 0.5339
H4 H 0.3813 0.1627 0.6464
O7 O 0.2684(3) 0.06676(11) 0.7259(2)
H5 H 0.2397 0.0454 0.7671
H6 H 0.2595 0.1001 0.7530
O8 O 0.1881(3) -0.03919(11) 0.3818(2)
H7 H 0.1049 -0.0326 0.3181
H8 H 0.2004 -0.0759 0.3984
N1 N -0.2509(7) 0.1390(3) 0.1903(6)
N2 N -0.7560(8) 0.2537(3) -0.0687(6)
N3 N -0.9048(9) 0.2526(3) -0.1599(6)
N4 N -0.9231(9) 0.2025(3) -0.2164(6)
N5 N -0.7894(9) 0.1698(3) -0.1652(6)
N6 N 0.2500(7) 0.1305(3) 0.1686(5)
N7 N -0.2586(8) 0.2503(3) -0.0765(6)
N8 N -0.4115(9) 0.2505(4) -0.1594(6)
N9 N -0.4479(8) 0.1975(3) -0.2076(6)
N10 N -0.3212(8) 0.1613(3) -0.1564(6)
C1 C -0.1137(9) 0.0740(3) 0.3701(6)
C2 C -0.0971(9) 0.1175(4) 0.2854(7)
H9 H -0.0355 0.1515 0.3286
H10 H -0.0353 0.0983 0.2517
C3 C -0.3563(10) 0.1008(4) 0.1138(7)
H11 H -0.3327 0.0605 0.1208
C4 C -0.4977(10) 0.1204(4) 0.0262(7)
H12 H -0.5704 0.0935 -0.0257
C5 C -0.5335(9) 0.1809(3) 0.0143(6)
C6 C -0.4194(9) 0.2197(4) 0.0919(7)
H13 H -0.4377 0.2603 0.0844
C7 C -0.2808(9) 0.1978(4) 0.1789(7)
H14 H -0.2055 0.2238 0.2314
C8 C -0.6904(9) 0.2019(3) -0.0749(6)
C9 C 0.3786(9) 0.0802(3) 0.3582(6)
C10 C 0.4016(9) 0.1068(4) 0.2587(7)
H15 H 0.4812 0.1382 0.2881
H16 H 0.4420 0.0765 0.2258
C11 C 0.2178(10) 0.1887(4) 0.1651(7)
H17 H 0.2944 0.2143 0.2175
C12 C 0.0712(10) 0.2104(4) 0.0838(7)
H18 H 0.0506 0.2509 0.0806
C13 C -0.0448(9) 0.1728(4) 0.0076(6)
C14 C -0.0087(10) 0.1132(4) 0.0126(7)
H19 H -0.0841 0.0868 -0.0387
C15 C 0.1395(11) 0.0930(4) 0.0938(8)
H20 H 0.1635 0.0528 0.0970
C16 C -0.2061(10) 0.1946(4) -0.0754(7)
La1B La -0.30360(5) -0.034311(19) 0.44935(4)
La1B_2 La 0.69640(5) -0.034311(19) 0.44935(4)
O2B O 0.2489(6) -0.0543(2) 0.6495(5)
O4B O 0.5075(3) -0.04972(11) 0.5668(2)
O9 O -1.1961(3) 0.15533(11) -0.4070(2)
H21 H -1.0957 0.1590 -0.3860
H22 H -1.2193 0.1763 -0.4668
O10 O 0.5894(3) 0.00225(11) 0.9157(2)
H23 H 0.5644 0.0167 0.8493
H24 H 0.6656 0.0274 0.9433
Cl1 Cl -0.0951(3) -0.01217(11) 0.1419(2)
loop_
_geom_bond_atom_site_label_1
_geom_bond_atom_site_label_2
_geom_bond_site_symmetry_1
_geom_bond_site_symmetry_2
La1 O1 1_555 1_555
O1 C1 1_555 1_555
O2 C1 1_555 1_555
O3 La1 1_555 1_555
O4 La1 1_555 1_555
O5 La1 1_555 1_555
H1 O5 1_555 1_555
H2 O5 1_555 1_555
O6 La1 1_555 1_555
H3 O6 1_555 1_555
H4 O6 1_555 1_555
O7 La1 1_555 1_555
H5 O7 1_555 1_555
H6 O7 1_555 1_555
O8 La1 1_555 1_555
H7 O8 1_555 1_555
H8 O8 1_555 1_555
N1 C2 1_555 1_555
N2 N3 1_555 1_555
N3 N4 1_555 1_555
N4 N5 1_555 1_555
N5 C8 1_555 1_555
N6 C10 1_555 1_555
N7 N8 1_555 1_555
N8 N9 1_555 1_555
N9 N10 1_555 1_555
N10 C16 1_555 1_555
C1 C2 1_555 1_555
C2 H9 1_555 1_555
H10 C2 1_555 1_555
C3 N1 1_555 1_555
H11 C3 1_555 1_555
C4 C3 1_555 1_555
H12 C4 1_555 1_555
C5 C4 1_555 1_555
C6 C5 1_555 1_555
H13 C6 1_555 1_555
C7 N1 1_555 1_555
H14 C7 1_555 1_555
C8 N2 1_555 1_555
C9 O3 1_555 1_555
C10 C9 1_555 1_555
H15 C10 1_555 1_555
H16 C10 1_555 1_555
C11 N6 1_555 1_555
H17 C11 1_555 1_555
C12 C11 1_555 1_555
H18 C12 1_555 1_555
C13 C12 1_555 1_555
C14 C13 1_555 1_555
H19 C14 1_555 1_555
C15 N6 1_555 1_555
H20 C15 1_555 1_555
C16 N7 1_555 1_555
O9 H21 1_555 1_555
H22 O9 1_555 1_555
O10 H23 1_555 1_555
H24 O10 1_555 1_555
La1B O2 1_555 1_555
La1B_2 O4 1_555 1_555
O2B La1 1_555 1_555
O4B La1 1_555 1_555
O4 C9 1_555 1_555
C5 C8 1_555 1_555
C6 C7 1_555 1_555
C13 C16 1_555 1_555
C14 C15 1_555 1_555
La1B_2 O4B 1_555 1_555

#END
