
#######################################################################
#
#                 Cambridge Crystallographic Data Centre
#                                CCDC 
#
#######################################################################
#
# If this CIF has been generated from an entry in the Cambridge 
# Structural Database, then it will include bibliographic, chemical, 
# crystal, experimental, refinement or atomic coordinate data resulting 
# from the CCDC's data processing and validation procedures.
#
#######################################################################

data_NIBROH
_symmetry_cell_setting           monoclinic
_symmetry_space_group_name_H-M   'P 21/c'
_symmetry_Int_Tables_number      14
_space_group_name_Hall           '-P 2ybc'
loop_
_symmetry_equiv_pos_site_id
_symmetry_equiv_pos_as_xyz
1 x,y,z
2 -x,1/2+y,1/2-z
3 -x,-y,-z
4 x,1/2-y,1/2+z
_cell_length_a                   15.078(3)
_cell_length_b                   23.010(5)
_cell_length_c                   16.897(7)
_cell_angle_alpha                90
_cell_angle_beta                 118.58(2)
_cell_angle_gamma                90
_cell_volume                     5148
loop_
_atom_site_label
_atom_site_type_symbol
_atom_site_fract_x
_atom_site_fract_y
_atom_site_fract_z
Eu1 Eu 1.44473(3) -0.045424(19) 0.33777(3)
Eu2 Eu 1.17640(4) -0.04300(2) -0.00736(3)
O1 O 1.1969(6) -0.0547(3) 0.1374(5)
O2 O 1.2719(5) -0.0831(3) 0.2811(4)
O3 O 1.3925(5) 0.0012(3) 0.2021(4)
O4 O 1.3021(5) 0.0343(3) 0.0618(4)
O5 O 1.4350(2) -0.05616(11) 0.47018(17)
O6 O 1.2170(2) -0.14582(11) 0.02566(17)
H1 H 1.2695 -0.1598 0.0260
H2 H 1.1788 -0.1678 0.0366
O7 O 1.1340(2) -0.09410(11) -0.15067(17)
H3 H 1.1261 -0.0693 -0.1910
H4 H 1.1839 -0.1156 -0.1412
O8 O 1.5634(2) -0.06223(11) 0.28018(17)
H5 H 1.5818 -0.0467 0.2448
H6 H 1.5941 -0.0945 0.2975
O9 O 1.4403(2) -0.14830(11) 0.30513(17)
H7 H 1.4084 -0.1771 0.3108
H8 H 1.4807 -0.1669 0.2926
O10 O 1.6042(2) -0.09073(11) 0.45052(17)
H9 H 1.6187 -0.1258 0.4452
H10 H 1.6600 -0.0724 0.4790
O11 O 1.3352(2) -0.06503(11) -0.01125(17)
H11 H 1.3405 -0.1015 -0.0152
H12 H 1.3342 -0.0485 -0.0567
O12 O 1.0789(4) 0.0356(2) 0.0016(4)
O13 O 1.3345(4) 0.0337(2) 0.3360(4)
H13 H 1.2847 0.0340 0.3465
H14 H 1.3664 0.0657 0.3526
N1 N 1.0932(6) -0.1317(4) 0.2596(6)
N2 N 1.3050(9) -0.1711(4) 0.8721(6)
N3 N 1.3203(8) -0.2081(4) 0.9396(6)
N4 N 1.3522(7) -0.2577(4) 0.9260(6)
N5 N 1.3550(7) -0.2555(4) 0.8475(6)
N6 N 1.3239(6) -0.1323(3) 0.5851(5)
N7 N 1.4037(7) 0.2558(3) -0.1608(5)
N8 N 1.3981(7) 0.3090(4) -0.1943(6)
N9 N 1.3918(7) 0.3468(4) -0.1386(6)
N10 N 1.3935(7) 0.3192(3) -0.0674(5)
N11 N 1.4256(6) 0.1322(3) 0.1005(5)
N12 N 1.0616(10) -0.1697(5) 0.5432(8)
N13 N 1.0729(10) -0.2064(7) 0.6083(8)
N14 N 1.0956(10) -0.2565(6) 0.5908(8)
N15 N 1.1007(9) -0.2563(5) 0.5134(8)
C1 C 1.0841(8) -0.1774(5) 0.4076(7)
C2 C 1.0623(9) -0.1202(5) 0.3835(7)
H15 H 1.0440 -0.0959 0.4174
C3 C 1.1066(8) -0.2116(5) 0.3520(7)
H16 H 1.1179 -0.2512 0.3637
C4 C 1.0976(8) -0.1074(5) 0.1828(7)
H17 H 1.0449 -0.0783 0.1553
H18 H 1.0831 -0.1380 0.1388
C5 C 1.1977(7) -0.0796(4) 0.2034(6)
C6 C 1.3275(7) -0.2013(4) 0.8179(6)
C7 C 1.3240(7) -0.1780(4) 0.7359(6)
C8 C 1.2940(8) -0.1200(4) 0.7087(7)
H19 H 1.2744 -0.0963 0.7422
C9 C 1.2940(8) -0.0987(4) 0.6325(7)
H20 H 1.2730 -0.0608 0.6139
C10 C 1.3529(8) -0.1871(4) 0.6099(7)
H21 H 1.3738 -0.2096 0.5761
C11 C 1.3524(9) -0.2108(5) 0.6836(7)
H22 H 1.3715 -0.2494 0.6987
C12 C 1.3280(7) -0.1069(4) 0.5073(6)
H23 H 1.2644 -0.0875 0.4698
H24 H 1.3348 -0.1382 0.4721
C13 C 1.4125(7) -0.0642(4) 0.5303(6)
C14 C 1.4021(7) 0.2628(4) -0.0828(6)
C15 C 1.4061(7) 0.2172(4) -0.0215(6)
C16 C 1.4247(8) 0.1597(4) -0.0339(7)
H25 H 1.4312 0.1493 -0.0840
C17 C 1.4334(9) 0.1188(4) 0.0268(7)
H26 H 1.4450 0.0804 0.0172
C18 C 1.4039(7) 0.1863(4) 0.1117(6)
H27 H 1.3966 0.1955 0.1618
C19 C 1.3918(8) 0.2293(4) 0.0502(6)
H28 H 1.3738 0.2667 0.0580
C20 C 1.4463(8) 0.0885(4) 0.1701(6)
H29 H 1.4449 0.1073 0.2209
H30 H 1.5140 0.0735 0.1909
C21 C 1.3718(7) 0.0369(4) 0.1396(6)
C22 C 1.0820(8) -0.2003(5) 0.4880(8)
C23 C 1.0672(8) -0.0981(5) 0.3101(7)
H31 H 1.0521 -0.0591 0.2951
C24 C 1.1125(8) -0.1878(5) 0.2786(7)
H32 H 1.1298 -0.2111 0.2431
C25 C 1.1635(8) 0.0942(5) 0.1291(7)
H33 H 1.2026 0.0632 0.1698
H34 H 1.2029 0.1102 0.1028
N16 N 1.1471(6) 0.1402(3) 0.1817(5)
C26 C 1.1502(8) 0.1960(4) 0.1585(7)
H35 H 1.1558 0.2043 0.1072
C27 C 1.1450(8) 0.2405(4) 0.2101(7)
H36 H 1.1460 0.2790 0.1936
C28 C 1.1383(7) 0.2271(4) 0.2888(6)
C29 C 1.1419(7) 0.2747(5) 0.3476(6)
C30 C 1.1284(9) 0.1695(5) 0.3048(7)
H37 H 1.1179 0.1596 0.3531
C31 C 1.1335(8) 0.1274(4) 0.2521(6)
H38 H 1.1274 0.0887 0.2650
N17 N 1.1452(8) 0.2658(4) 0.4271(6)
N18 N 1.1432(8) 0.3302(4) 0.3287(6)
N19 N 1.1497(8) 0.3584(4) 0.4011(6)
N20 N 1.1498(8) 0.3214(5) 0.4583(7)
C32 C 1.0676(7) 0.0689(4) 0.0551(6)
O14 O 0.9858(5) 0.0826(3) 0.0521(5)
O15 O 1.4475(5) -0.0390(3) 0.6039(4)
O16 O 1.1376(4) 0.0249(2) -0.1276(3)
H39 H 1.1110 0.0566 -0.1315
H40 H 1.1667 0.0364 -0.1551
Eu1B Eu 1.55527(3) 0.045424(19) 0.66223(3)
Eu2B Eu 0.82360(4) 0.04300(2) 0.00736(3)
O14B O 1.0142(5) -0.0826(3) -0.0521(5)
O15B O 1.5525(5) 0.0390(3) 0.3961(4)
Cl1 Cl 1.8078(3) -0.02479(15) 0.5719(2)
Cl2 Cl 1.4089(4) 0.00882(17) 0.8724(3)
O17 O 1.0371(4) -0.06383(17) 0.6684(3)
H41 H 1.0432 -0.0870 0.6321
H42 H 0.9848 -0.0433 0.6376
O18 O 1.6142(4) -0.1785(2) 0.2988(3)
H43 H 1.6227 -0.2150 0.3053
H44 H 1.6387 -0.1788 0.2628
O19 O 1.1906(8) 0.3177(4) 0.0632(6)
H45 H 1.2340 0.2909 0.0750
H46 H 1.2144 0.3432 0.1046
O20 O 1.2127(8) 0.0767(4) -0.2609(6)
H47 H 1.1765 0.0478 -0.2737
H48 H 1.2053 0.1048 -0.2347
loop_
_geom_bond_atom_site_label_1
_geom_bond_atom_site_label_2
_geom_bond_site_symmetry_1
_geom_bond_site_symmetry_2
Eu1 O2 1_555 1_555
Eu2 O1 1_555 1_555
O1 C5 1_555 1_555
O2 C5 1_555 1_555
O3 Eu1 1_555 1_555
O4 Eu2 1_555 1_555
O5 Eu1 1_555 1_555
O6 Eu2 1_555 1_555
H1 O6 1_555 1_555
H2 O6 1_555 1_555
O7 Eu2 1_555 1_555
H3 O7 1_555 1_555
H4 O7 1_555 1_555
O8 Eu1 1_555 1_555
H5 O8 1_555 1_555
H6 O8 1_555 1_555
O9 Eu1 1_555 1_555
H7 O9 1_555 1_555
H8 O9 1_555 1_555
O10 Eu1 1_555 1_555
H9 O10 1_555 1_555
H10 O10 1_555 1_555
O11 Eu2 1_555 1_555
H11 O11 1_555 1_555
H12 O11 1_555 1_555
O12 Eu2 1_555 1_555
O13 Eu1 1_555 1_555
H13 O13 1_555 1_555
H14 O13 1_555 1_555
N1 C4 1_555 1_555
N2 N3 1_555 1_555
N3 N4 1_555 1_555
N4 N5 1_555 1_555
N5 C6 1_555 1_555
N6 C9 1_555 1_555
N7 N8 1_555 1_555
N8 N9 1_555 1_555
N9 N10 1_555 1_555
N10 C14 1_555 1_555
N11 C17 1_555 1_555
N12 N13 1_555 1_555
N13 N14 1_555 1_555
N14 N15 1_555 1_555
N15 C22 1_555 1_555
C1 C2 1_555 1_555
C2 H15 1_555 1_555
C3 C1 1_555 1_555
H16 C3 1_555 1_555
C4 H17 1_555 1_555
H18 C4 1_555 1_555
C5 C4 1_555 1_555
C6 N2 1_555 1_555
C7 C6 1_555 1_555
C8 C7 1_555 1_555
H19 C8 1_555 1_555
C9 C8 1_555 1_555
H20 C9 1_555 1_555
C10 N6 1_555 1_555
H21 C10 1_555 1_555
C11 C7 1_555 1_555
H22 C11 1_555 1_555
C12 N6 1_555 1_555
H23 C12 1_555 1_555
H24 C12 1_555 1_555
C13 O5 1_555 1_555
C14 N7 1_555 1_555
C15 C14 1_555 1_555
C16 C15 1_555 1_555
H25 C16 1_555 1_555
C17 C16 1_555 1_555
H26 C17 1_555 1_555
C18 N11 1_555 1_555
H27 C18 1_555 1_555
C19 C15 1_555 1_555
H28 C19 1_555 1_555
C20 N11 1_555 1_555
H29 C20 1_555 1_555
H30 C20 1_555 1_555
C21 O3 1_555 1_555
C22 N12 1_555 1_555
C23 N1 1_555 1_555
H31 C23 1_555 1_555
C24 N1 1_555 1_555
H32 C24 1_555 1_555
C25 H33 1_555 1_555
H34 C25 1_555 1_555
N16 C25 1_555 1_555
C26 N16 1_555 1_555
H35 C26 1_555 1_555
C27 C26 1_555 1_555
H36 C27 1_555 1_555
C28 C27 1_555 1_555
C29 C28 1_555 1_555
C30 C28 1_555 1_555
H37 C30 1_555 1_555
C31 N16 1_555 1_555
H38 C31 1_555 1_555
N17 C29 1_555 1_555
N18 C29 1_555 1_555
N19 N18 1_555 1_555
N20 N17 1_555 1_555
C32 O12 1_555 1_555
O14 C32 1_555 1_555
O15 C13 1_555 1_555
O16 Eu2 1_555 1_555
H39 O16 1_555 1_555
H40 O16 1_555 1_555
O17 H41 1_555 1_555
H42 O17 1_555 1_555
O18 H43 1_555 1_555
H44 O18 1_555 1_555
O19 H45 1_555 1_555
H46 O19 1_555 1_555
O20 H47 1_555 1_555
H48 O20 1_555 1_555
Eu1B O15 1_555 1_555
Eu2B O14 1_555 1_555
O14B Eu2 1_555 1_555
O15B Eu1 1_555 1_555
O4 C21 1_555 1_555
C1 C22 1_555 1_555
C2 C23 1_555 1_555
C3 C24 1_555 1_555
C10 C11 1_555 1_555
C12 C13 1_555 1_555
C18 C19 1_555 1_555
C20 C21 1_555 1_555
C25 C32 1_555 1_555
C30 C31 1_555 1_555
N19 N20 1_555 1_555

#END
