
#######################################################################
#
#                 Cambridge Crystallographic Data Centre
#                                CCDC 
#
#######################################################################
#
# If this CIF has been generated from an entry in the Cambridge 
# Structural Database, then it will include bibliographic, chemical, 
# crystal, experimental, refinement or atomic coordinate data resulting 
# from the CCDC's data processing and validation procedures.
#
#######################################################################

data_NIBREX
_symmetry_cell_setting           monoclinic
_symmetry_space_group_name_H-M   'P 21/c'
_symmetry_Int_Tables_number      14
_space_group_name_Hall           '-P 2ybc'
loop_
_symmetry_equiv_pos_site_id
_symmetry_equiv_pos_as_xyz
1 x,y,z
2 -x,1/2+y,1/2-z
3 -x,-y,-z
4 x,1/2-y,1/2+z
_cell_length_a                   15.012(3)
_cell_length_b                   22.928(5)
_cell_length_c                   16.895(7)
_cell_angle_alpha                90
_cell_angle_beta                 118.46(2)
_cell_angle_gamma                90
_cell_volume                     5112.41
loop_
_atom_site_label
_atom_site_type_symbol
_atom_site_fract_x
_atom_site_fract_y
_atom_site_fract_z
Tb1 Tb -0.44537(2) -0.045066(12) 0.161495(18)
Tb2 Tb -0.17591(2) -0.043320(13) 0.507334(19)
O1 O -0.3931(4) -0.0001(2) 0.2967(3)
O2 O -0.3016(3) 0.03201(18) 0.4369(3)
O3 O -0.5522(3) 0.03806(18) 0.1030(3)
O4 O -0.5665(4) 0.05591(19) -0.0324(3)
O5 O -0.0150(3) -0.08236(19) 0.5504(3)
O6 O 0.0793(3) -0.03535(18) 0.5006(3)
O7 O -0.1972(4) -0.0535(2) 0.3644(3)
O8 O -0.2716(3) -0.08226(19) 0.2217(3)
O9 O -0.3351(3) 0.03375(18) 0.1651(3)
H1 H -0.2811 0.0507 0.1733
H2 H -0.3825 0.0588 0.1446
O10 O -0.4410(4) -0.1471(2) 0.1952(4)
H3 H -0.4608 -0.1785 0.2087
H4 H -0.3831 -0.1536 0.1996
O11 O -0.1324(7) -0.0949(4) 0.6470(5)
H5 H -0.1833 -0.1059 0.6524
H6 H -0.0985 -0.0713 0.6896
O12 O -0.2154(6) -0.1456(3) 0.4774(5)
H7 H -0.2416 -0.1783 0.4781
H8 H -0.2065 -0.1449 0.4313
O13 O -0.3296(6) -0.0651(3) 0.5162(6)
H9 H -0.3551 -0.0981 0.5170
H10 H -0.3778 -0.0405 0.4934
O14 O -0.1414(5) 0.0238(2) 0.6258(4)
H11 H -0.1891 0.0451 0.6231
H12 H -0.0946 0.0462 0.6293
O15 O -0.6023(4) -0.0906(2) 0.0495(3)
H13 H -0.5977 -0.1177 0.0173
H14 H -0.6636 -0.0792 0.0244
O16 O -0.5679(5) -0.0608(2) 0.2148(4)
H15 H -0.6248 -0.0600 0.2142
H16 H -0.5221 -0.0553 0.2687
N1 N -0.3950(5) 0.3190(2) 0.5675(4)
N2 N -0.3929(5) 0.3462(2) 0.6387(4)
N3 N -0.3977(5) 0.3080(2) 0.6942(4)
N4 N -0.4027(5) 0.2547(2) 0.6604(4)
N5 N -0.4236(4) 0.1318(2) 0.3999(3)
N6 N -0.6453(5) 0.2555(2) 0.3477(4)
N7 N -0.6486(5) 0.2580(3) 0.4251(4)
N8 N -0.6769(5) 0.2076(3) 0.4408(4)
N9 N -0.6933(6) 0.1710(3) 0.3740(5)
N10 N -0.6762(4) 0.1318(2) 0.0853(3)
N11 N 0.1450(5) -0.3309(3) 0.8285(4)
N12 N 0.1502(5) -0.3589(3) 0.9000(5)
N13 N 0.1506(5) -0.3211(3) 0.9577(5)
N14 N 0.1455(5) -0.2666(3) 0.9256(4)
N15 N 0.1470(4) -0.1403(2) 0.6797(3)
N16 N -0.1015(6) -0.2560(4) -0.0130(5)
N17 N -0.0955(6) -0.2572(4) -0.0898(5)
N18 N -0.0721(7) -0.2048(5) -0.1073(6)
N19 N -0.0640(7) -0.1681(4) -0.0430(6)
N20 N -0.0923(4) -0.1308(3) 0.2412(4)
C1 C -0.3721(4) 0.0355(3) 0.3583(4)
C2 C -0.4446(5) 0.0880(3) 0.3296(4)
H17 H -0.4424 0.1071 0.2793
H18 H -0.5130 0.0735 0.3082
C3 C -0.4024(5) 0.1864(3) 0.3885(4)
H19 H -0.3938 0.1957 0.3390
C4 C -0.3930(5) 0.2294(3) 0.4488(4)
H20 H -0.3779 0.2674 0.4400
C5 C -0.4060(5) 0.2162(3) 0.5223(4)
C6 C -0.4232(6) 0.1586(3) 0.5351(5)
H21 H -0.4286 0.1479 0.5857
C7 C -0.4324(6) 0.1172(3) 0.4726(5)
H22 H -0.4448 0.0785 0.4810
C8 C -0.4025(5) 0.2622(3) 0.5830(4)
C9 C -0.5885(4) 0.0638(3) 0.0287(4)
C10 C -0.6724(5) 0.1079(3) 0.0061(4)
H23 H -0.6634 0.1398 -0.0271
H24 H -0.7368 0.0895 -0.0329
C11 C -0.7049(5) 0.0991(3) 0.1344(5)
H25 H -0.7242 0.0606 0.1173
C12 C -0.7066(5) 0.1202(3) 0.2085(5)
H26 H -0.7284 0.0967 0.2408
C13 C -0.6758(5) 0.1773(3) 0.2361(4)
C14 C -0.6467(6) 0.2114(3) 0.1842(5)
H27 H -0.6270 0.2500 0.1999
C15 C -0.6473(5) 0.1876(3) 0.1097(4)
H28 H -0.6273 0.2103 0.0753
C16 C -0.6727(5) 0.2011(3) 0.3176(4)
C17 C 0.0669(5) -0.0685(3) 0.5529(4)
C18 C 0.1638(5) -0.0939(3) 0.6271(4)
H29 H 0.2035 -0.1099 0.6006
H30 H 0.2030 -0.0628 0.6677
C19 C 0.1487(5) -0.1962(3) 0.6565(5)
H31 H 0.1530 -0.2049 0.6046
C20 C 0.1441(6) -0.2405(3) 0.7096(5)
H32 H 0.1444 -0.2792 0.6931
C21 C 0.1391(5) -0.2275(3) 0.7872(4)
C22 C 0.1306(6) -0.1694(3) 0.8053(5)
H33 H 0.1221 -0.1595 0.8546
C23 C 0.1346(6) -0.1272(3) 0.7518(5)
H34 H 0.1288 -0.0884 0.7647
C24 C 0.1418(5) -0.2749(3) 0.8465(4)
C25 C -0.1991(5) -0.0785(3) 0.2983(4)
C26 C -0.0979(5) -0.1058(4) 0.3191(5)
H35 H -0.0456 -0.0763 0.3463
H36 H -0.0829 -0.1364 0.3633
C27 C -0.0660(6) -0.0975(3) 0.1916(5)
H37 H -0.0503 -0.0584 0.2069
C28 C -0.0615(6) -0.1195(3) 0.1180(5)
H38 H -0.0434 -0.0954 0.0837
C29 C -0.0835(5) -0.1771(3) 0.0948(5)
C30 C -0.1080(6) -0.2116(3) 0.1484(5)
H39 H -0.1208 -0.2511 0.1357
C31 C -0.1134(5) -0.1878(3) 0.2202(5)
H40 H -0.1318 -0.2111 0.2551
C32 C -0.0816(6) -0.2005(4) 0.0135(6)
Tb1B Tb -0.55463(2) 0.045066(12) -0.161495(18)
Tb2B Tb 0.17591(2) 0.043320(13) 0.492666(19)
O4B O -0.4335(4) -0.05591(19) 0.0324(3)
O6B O -0.0793(3) 0.03535(18) 0.4994(3)
O17 O 0.1892(6) -0.3183(3) 0.5617(5)
H41 H 0.2496 -0.3193 0.6048
H42 H 0.1558 -0.2885 0.5332
O18 O -0.6168(4) -0.1792(2) 0.1984(4)
H43 H -0.6015 -0.1498 0.2332
H44 H -0.6212 -0.2066 0.2302
O19 O -0.0424(9) -0.4369(8) 0.3273(7)
H45 H 0.0214 -0.4395 0.3485
H46 H -0.0900 -0.4613 0.3001
O20 O 0.2113(14) -0.0704(13) 0.2401(13)
H47 H 0.1771 -0.0411 0.2106
H48 H 0.2283 -0.1058 0.2401
Cl1 Cl -0.5726(4) -0.0130(3) 0.3811(4)
Cl3 Cl 0.19333(17) -0.47464(10) 0.42848(16)
Cl2? Cl -0.6259(6) -0.0046(4) 0.3550(6)
loop_
_geom_bond_atom_site_label_1
_geom_bond_atom_site_label_2
_geom_bond_site_symmetry_1
_geom_bond_site_symmetry_2
Tb1 O1 1_555 1_555
Tb2 O2 1_555 1_555
O1 C1 1_555 1_555
O2 C1 1_555 1_555
O3 Tb1 1_555 1_555
O4 C9 1_555 1_555
O5 Tb2 1_555 1_555
O6 C17 1_555 1_555
O7 Tb2 1_555 1_555
O8 Tb1 1_555 1_555
O9 Tb1 1_555 1_555
H1 O9 1_555 1_555
H2 O9 1_555 1_555
O10 Tb1 1_555 1_555
H3 O10 1_555 1_555
H4 O10 1_555 1_555
O11 Tb2 1_555 1_555
H5 O11 1_555 1_555
H6 O11 1_555 1_555
O12 Tb2 1_555 1_555
H7 O12 1_555 1_555
H8 O12 1_555 1_555
O13 Tb2 1_555 1_555
H9 O13 1_555 1_555
H10 O13 1_555 1_555
O14 Tb2 1_555 1_555
H11 O14 1_555 1_555
H12 O14 1_555 1_555
O15 Tb1 1_555 1_555
H13 O15 1_555 1_555
H14 O15 1_555 1_555
O16 Tb1 1_555 1_555
H15 O16 1_555 1_555
H16 O16 1_555 1_555
N1 N2 1_555 1_555
N2 N3 1_555 1_555
N3 N4 1_555 1_555
N4 C8 1_555 1_555
N5 C2 1_555 1_555
N6 N7 1_555 1_555
N7 N8 1_555 1_555
N8 N9 1_555 1_555
N9 C16 1_555 1_555
N10 C10 1_555 1_555
N11 N12 1_555 1_555
N12 N13 1_555 1_555
N13 N14 1_555 1_555
N14 C24 1_555 1_555
N15 C18 1_555 1_555
N16 N17 1_555 1_555
N17 N18 1_555 1_555
N18 N19 1_555 1_555
N19 C32 1_555 1_555
N20 C26 1_555 1_555
C1 C2 1_555 1_555
C2 H17 1_555 1_555
H18 C2 1_555 1_555
C3 N5 1_555 1_555
H19 C3 1_555 1_555
C4 C3 1_555 1_555
H20 C4 1_555 1_555
C5 C4 1_555 1_555
C6 C5 1_555 1_555
H21 C6 1_555 1_555
C7 N5 1_555 1_555
H22 C7 1_555 1_555
C8 N1 1_555 1_555
C9 O3 1_555 1_555
C10 C9 1_555 1_555
H23 C10 1_555 1_555
H24 C10 1_555 1_555
C11 N10 1_555 1_555
H25 C11 1_555 1_555
C12 C11 1_555 1_555
H26 C12 1_555 1_555
C13 C12 1_555 1_555
C14 C13 1_555 1_555
H27 C14 1_555 1_555
C15 N10 1_555 1_555
H28 C15 1_555 1_555
C16 N6 1_555 1_555
C17 O5 1_555 1_555
C18 C17 1_555 1_555
H29 C18 1_555 1_555
H30 C18 1_555 1_555
C19 N15 1_555 1_555
H31 C19 1_555 1_555
C20 C19 1_555 1_555
H32 C20 1_555 1_555
C21 C20 1_555 1_555
C22 C21 1_555 1_555
H33 C22 1_555 1_555
C23 N15 1_555 1_555
H34 C23 1_555 1_555
C24 N11 1_555 1_555
C25 O7 1_555 1_555
C26 C25 1_555 1_555
H35 C26 1_555 1_555
H36 C26 1_555 1_555
C27 N20 1_555 1_555
H37 C27 1_555 1_555
C28 C27 1_555 1_555
H38 C28 1_555 1_555
C29 C28 1_555 1_555
C30 C29 1_555 1_555
H39 C30 1_555 1_555
C31 N20 1_555 1_555
H40 C31 1_555 1_555
C32 N16 1_555 1_555
O17 H41 1_555 1_555
H42 O17 1_555 1_555
O18 H43 1_555 1_555
H44 O18 1_555 1_555
O19 H45 1_555 1_555
H46 O19 1_555 1_555
O20 H47 1_555 1_555
H48 O20 1_555 1_555
Tb1B O4 1_555 1_555
Tb2B O6 1_555 1_555
O4B Tb1 1_555 1_555
O6B Tb2 1_555 1_555
O8 C25 1_555 1_555
C5 C8 1_555 1_555
C6 C7 1_555 1_555
C13 C16 1_555 1_555
C14 C15 1_555 1_555
C21 C24 1_555 1_555
C22 C23 1_555 1_555
C29 C32 1_555 1_555
C30 C31 1_555 1_555

#END
