
#######################################################################
#
#                 Cambridge Crystallographic Data Centre
#                                CCDC 
#
#######################################################################
#
# If this CIF has been generated from an entry in the Cambridge 
# Structural Database, then it will include bibliographic, chemical, 
# crystal, experimental, refinement or atomic coordinate data resulting 
# from the CCDC's data processing and validation procedures.
#
#######################################################################

data_NIBSAU01
_symmetry_cell_setting           orthorhombic
_symmetry_space_group_name_H-M   'P 21 21 21'
_symmetry_Int_Tables_number      19
_space_group_name_Hall           'P 2ac 2ab'
loop_
_symmetry_equiv_pos_site_id
_symmetry_equiv_pos_as_xyz
1 x,y,z
2 1/2-x,-y,1/2+z
3 1/2+x,1/2-y,-z
4 -x,1/2+y,1/2-z
_cell_length_a                   9.0240(18)
_cell_length_b                   11.196(2)
_cell_length_c                   11.241(2)
_cell_angle_alpha                90
_cell_angle_beta                 90
_cell_angle_gamma                90
_cell_volume                     1135.71
loop_
_atom_site_label
_atom_site_type_symbol
_atom_site_fract_x
_atom_site_fract_y
_atom_site_fract_z
Zn1 Zn 0.87787(4) 0.43989(3) 0.64627(3)
O1 O 0.9681(3) 0.6325(2) 0.6348(2)
O2 O 0.9577(3) 0.7893(2) 0.5120(2)
O3 O 0.8601(3) 0.82712(19) 0.3074(2)
O4 O 0.7380(3) 0.72568(19) 0.1656(2)
N1 N 0.5814(3) 0.1382(2) 0.3498(3)
N2 N 0.7295(3) 0.5249(2) 0.3004(2)
N3 N 0.8218(3) 0.4879(2) 0.4814(2)
C1 C 0.7026(4) 0.0726(3) 0.3434(4)
H1 H 0.6925 -0.0094 0.3329
C2 C 0.8443(4) 0.1198(3) 0.3516(5)
H2 H 0.9276 0.0711 0.3468
C3 C 0.8577(4) 0.2411(3) 0.3669(4)
H3 H 0.9510 0.2756 0.3742
C4 C 0.7329(4) 0.3113(3) 0.3714(3)
C5 C 0.5962(4) 0.2563(3) 0.3639(3)
H4 H 0.5113 0.3031 0.3688
C6 C 0.7523(3) 0.4425(3) 0.3855(3)
C7 C 0.8462(4) 0.6058(3) 0.4543(3)
C8 C 0.7893(3) 0.6281(3) 0.3435(3)
C9 C 0.7949(4) 0.7354(3) 0.2674(3)
C10 C 0.9281(4) 0.6797(3) 0.5401(3)
Zn1A Zn 0.62213(4) 0.56011(3) 0.14627(3)
Zn1B Zn 0.37787(4) 0.06011(3) 0.35373(3)
O4A O 0.7620(3) 0.27432(19) 0.6656(2)
N1B N 1.0814(3) 0.3618(2) 0.6502(3)
N2A N 0.7705(3) 0.4751(2) 0.8004(2)
loop_
_geom_bond_atom_site_label_1
_geom_bond_atom_site_label_2
_geom_bond_site_symmetry_1
_geom_bond_site_symmetry_2
Zn1 O1 1_555 1_555
O1 C10 1_555 1_555
O2 C10 1_555 1_555
O3 C9 1_555 1_555
O4 C9 1_555 1_555
N1 C1 1_555 1_555
N2 C6 1_555 1_555
N3 Zn1 1_555 1_555
C1 H1 1_555 1_555
C2 C1 1_555 1_555
H2 C2 1_555 1_555
C3 C2 1_555 1_555
H3 C3 1_555 1_555
C4 C3 1_555 1_555
C5 N1 1_555 1_555
H4 C5 1_555 1_555
C6 N3 1_555 1_555
C7 N3 1_555 1_555
C8 N2 1_555 1_555
C9 C8 1_555 1_555
C10 C7 1_555 1_555
Zn1A O4 1_555 1_555
Zn1B N1 1_555 1_555
O4A Zn1 1_555 1_555
N1B Zn1 1_555 1_555
N2A Zn1 1_555 1_555
N2 Zn1A 1_555 1_555
C4 C5 1_555 1_555
C4 C6 1_555 1_555
C7 C8 1_555 1_555

#END
