
#######################################################################
#
#                 Cambridge Crystallographic Data Centre
#                                CCDC 
#
#######################################################################
#
# If this CIF has been generated from an entry in the Cambridge 
# Structural Database, then it will include bibliographic, chemical, 
# crystal, experimental, refinement or atomic coordinate data resulting 
# from the CCDC's data processing and validation procedures.
#
#######################################################################

data_NIBSAU
_symmetry_cell_setting           orthorhombic
_symmetry_space_group_name_H-M   'P 21 21 21'
_symmetry_Int_Tables_number      19
_space_group_name_Hall           'P 2ac 2ab'
loop_
_symmetry_equiv_pos_site_id
_symmetry_equiv_pos_as_xyz
1 x,y,z
2 1/2-x,-y,1/2+z
3 -x,1/2+y,1/2-z
4 1/2+x,1/2-y,-z
_cell_length_a                   9.652(5)
_cell_length_b                   10.704(5)
_cell_length_c                   11.159(6)
_cell_angle_alpha                90
_cell_angle_beta                 90
_cell_angle_gamma                90
_cell_volume                     1152.89
loop_
_atom_site_label
_atom_site_type_symbol
_atom_site_fract_x
_atom_site_fract_y
_atom_site_fract_z
Zn1 Zn 0.85575(5) 0.88290(5) 0.68295(4)
C1 C 0.4272(6) 0.9375(8) 0.6308(5)
H1 H 0.3524 0.9544 0.6807
O1 O 0.5401(3) 1.0972(3) 0.0145(2)
N1 N 0.6654(4) 0.9027(3) 0.6092(3)
O2 O 0.4051(3) 0.9594(3) -0.0810(2)
C2 C 0.6464(4) 0.8891(4) 0.4909(3)
H2 H 0.7228 0.8725 0.4427
C3 C 0.4945(4) 0.8820(4) 0.3078(3)
C4 C 0.5175(4) 0.8990(4) 0.4382(3)
O3 O 0.2924(4) 0.7519(4) -0.0357(3)
C5 C 0.4660(4) 0.9205(4) 0.1202(3)
C6 C 0.3145(5) 0.7243(5) 0.0752(4)
C7 C 0.3984(4) 0.8124(4) 0.1473(3)
C8 C 0.4726(5) 0.9983(5) 0.0101(3)
C9 C 0.5568(5) 0.9274(6) 0.6773(4)
H3 H 0.5694 0.9383 0.7593
O4 O 0.2691(3) 0.6287(4) 0.1243(3)
N2 N 0.5279(4) 0.9654(3) 0.2223(3)
N3 N 0.4169(4) 0.7865(3) 0.2656(3)
C10 C 0.4070(6) 0.9227(7) 0.5105(4)
H4 H 0.3184 0.9287 0.4783
H5 H 0.337(7) 0.843(7) -0.068(6)
Zn1A Zn 0.64425(5) 1.11710(5) 0.18295(4)
Zn1C Zn 0.35575(5) 0.61710(5) 0.31705(4)
O1A O 0.9599(3) 0.9028(3) 0.5145(2)
O4C O 0.7691(3) 0.8713(4) 0.8757(3)
N2A N 0.9721(4) 1.0346(3) 0.7223(3)
N3C N 0.9169(4) 0.7135(3) 0.7344(3)
loop_
_geom_bond_atom_site_label_1
_geom_bond_atom_site_label_2
_geom_bond_site_symmetry_1
_geom_bond_site_symmetry_2
Zn1 N1 1_555 1_555
C1 H1 1_555 1_555
O1 C8 1_555 1_555
N1 C2 1_555 1_555
O2 C8 1_555 1_555
C2 H2 1_555 1_555
C3 C4 1_555 1_555
C4 C2 1_555 1_555
O3 C6 1_555 1_555
C5 C7 1_555 1_555
C6 C7 1_555 1_555
C7 N3 1_555 1_555
C8 C5 1_555 1_555
C9 C1 1_555 1_555
H3 C9 1_555 1_555
O4 C6 1_555 1_555
N2 C3 1_555 1_555
N3 C3 1_555 1_555
C10 C1 1_555 1_555
H4 C10 1_555 1_555
H5 O3 1_555 1_555
Zn1A O1 1_555 1_555
Zn1C O4 1_555 1_555
O1A Zn1 1_555 1_555
O4C Zn1 1_555 1_555
N2A Zn1 1_555 1_555
N3C Zn1 1_555 1_555
N1 C9 1_555 1_555
C4 C10 1_555 1_555
C5 N2 1_555 1_555
N2 Zn1A 1_555 1_555
N3 Zn1C 1_555 1_555

#END
