
#######################################################################
#
#                 Cambridge Crystallographic Data Centre
#                                CCDC 
#
#######################################################################
#
# If this CIF has been generated from an entry in the Cambridge 
# Structural Database, then it will include bibliographic, chemical, 
# crystal, experimental, refinement or atomic coordinate data resulting 
# from the CCDC's data processing and validation procedures.
#
#######################################################################

data_NIBWUS
_symmetry_cell_setting           triclinic
_symmetry_space_group_name_H-M   'P -1'
_symmetry_Int_Tables_number      2
_space_group_name_Hall           '-P 1'
loop_
_symmetry_equiv_pos_site_id
_symmetry_equiv_pos_as_xyz
1 x,y,z
2 -x,-y,-z
_cell_length_a                   8.7365(16)
_cell_length_b                   9.9132(18)
_cell_length_c                   21.796(4)
_cell_angle_alpha                100.848(3)
_cell_angle_beta                 100.694(3)
_cell_angle_gamma                91.023(3)
_cell_volume                     1819.02
loop_
_atom_site_label
_atom_site_type_symbol
_atom_site_fract_x
_atom_site_fract_y
_atom_site_fract_z
Cu1 Cu -0.01153(8) 0.22310(7) 0.25905(3)
Cu2 Cu 0.27908(8) 0.70371(7) 0.24937(3)
O1 O 0.1812(5) 0.5218(4) 0.23760(18)
O2 O 0.4115(5) 0.8704(4) 0.2750(2)
O3 O 0.0510(5) 0.0363(4) 0.23548(19)
N1 N 0.3712(5) 0.6734(5) 0.3401(2)
N2 N 0.2240(6) 0.7119(5) 0.1568(2)
O4 O -0.1182(5) 0.3827(4) 0.29174(19)
O5 O 0.2217(5) 0.3247(4) 0.2717(2)
O6 O 0.0541(5) -0.1690(4) 0.2625(2)
O7 O -0.2551(5) 0.4582(5) 0.3662(2)
N3 N -0.0139(5) 0.1716(5) 0.3459(2)
C1 C 0.0323(6) -0.0440(5) 0.2729(3)
C2 C -0.1604(7) 0.2341(6) 0.3614(3)
H1 H -0.1561 0.2482 0.4070
H2 H -0.2494 0.1717 0.3405
C3 C 0.5283(7) 0.7410(6) 0.3506(3)
H3 H 0.5968 0.6785 0.3306
H4 H 0.5712 0.7643 0.3959
C4 C 0.2765(7) 0.7323(6) 0.3857(3)
C5 C 0.2491(7) 0.4512(5) 0.2767(3)
C6 C -0.1803(7) 0.3709(6) 0.3397(3)
C7 C 0.3729(7) 0.5211(5) 0.3321(3)
H5 H 0.3551 0.4938 0.3708
H6 H 0.4746 0.4918 0.3251
C8 C -0.0256(7) 0.0178(5) 0.3329(3)
H7 H -0.1335 -0.0135 0.3287
H8 H 0.0351 -0.0145 0.3687
C9 C 0.1279(7) 0.2285(6) 0.3906(2)
C10 C 0.1275(8) 0.3425(6) 0.4384(3)
H9 H 0.0356 0.3863 0.4425
C11 C 0.3234(7) 0.8518(6) 0.4301(3)
H10 H 0.4177 0.8979 0.4310
C12 C 0.2665(7) 0.1684(6) 0.3841(3)
H11 H 0.2681 0.0930 0.3516
O8 O 0.6168(6) 0.9663(5) 0.3471(3)
C13 C 0.1649(8) 0.7231(7) 0.0275(3)
C14 C 0.5194(8) 0.8704(6) 0.3227(3)
C15 C 0.4033(8) 0.3308(7) 0.4737(3)
H12 H 0.4955 0.3650 0.5016
C16 C 0.1331(7) 0.6687(7) 0.3844(3)
H13 H 0.0996 0.5890 0.3543
C17 C 0.4040(8) 0.2202(7) 0.4260(3)
H14 H 0.4971 0.1791 0.4213
C18 C 0.0887(9) 0.8378(7) 0.4721(3)
H15 H 0.0271 0.8718 0.5014
C19 C 0.0402(8) 0.7199(7) 0.4259(3)
H16 H -0.0562 0.6760 0.4234
C20 C 0.2306(9) 0.9029(7) 0.4732(3)
H17 H 0.2642 0.9824 0.5033
C21 C 0.2055(9) 0.5974(7) 0.1118(3)
H18 H 0.2105 0.5127 0.1243
C22 C 0.1795(9) 0.5996(7) 0.0477(3)
H19 H 0.1716 0.5177 0.0181
C23 C 0.2667(9) 0.3907(7) 0.4803(3)
H20 H 0.2664 0.4652 0.5133
C24 C 0.2143(10) 0.8303(7) 0.1377(3)
H21 H 0.2289 0.9112 0.1682
C25 C 0.1307(8) 0.7304(7) -0.0408(3)
C26 C 0.1831(11) 0.8387(7) 0.0742(3)
H22 H 0.1744 0.9246 0.0629
C27 C 0.1843(10) 0.6871(9) -0.1460(3)
H23 H 0.2482 0.6489 -0.1736
C28 C -0.0273(10) 0.8036(10) -0.1295(3)
H24 H -0.1156 0.8467 -0.1453
C29 C 0.0011(10) 0.7944(10) -0.0650(3)
H25 H -0.0670 0.8310 -0.0389
C30 C 0.2195(11) 0.6705(10) -0.0828(3)
H26 H 0.3028 0.6192 -0.0693
N4 N 0.0639(6) 0.7549(5) -0.1683(2)
O9 O 0.5049(7) 0.5606(8) 0.2046(3)
H27 H 0.5990 0.5854 0.2050
H28 H 0.4881 0.4797 0.1802
Cu1A Cu 0.01153(8) 0.77690(7) -0.25905(3)
Cu2_2 Cu 0.27908(8) -0.29629(7) 0.24937(3)
O6_2 O 0.0541(5) 0.8310(4) 0.2625(2)
N4A N -0.0639(6) 0.2451(5) 0.1683(2)
N5 N 0.6716(10) 0.8471(9) 0.0945(4)
C31 C 0.6452(16) 0.9036(16) 0.1569(5)
H29 H 0.7429 0.9363 0.1845
H30 H 0.5973 0.8338 0.1734
H31 H 0.5777 0.9786 0.1547
O10 O 0.6706(15) 0.8639(16) -0.0060(5)
C32 C 0.6468(19) 0.9078(18) 0.0476(7)
H32 H 0.6065 0.9943 0.0547
C33 C 0.741(4) 0.723(2) 0.0898(12)
H33 H 0.7171 0.6767 0.1222
H34 H 0.8515 0.7383 0.0953
H35 H 0.7013 0.6671 0.0486
O11 O 0.8083(7) 0.6332(6) 0.2510(4)
H36 H 0.8423 0.5731 0.2734
H37 H 0.8729 0.6394 0.2259
O12 O 0.4489(9) 0.1398(7) 0.2370(4)
H38 H 0.4674 0.2150 0.2650
H39 H 0.4560 0.0724 0.2568
O13 O 0.5697(10) 0.7170(8) 0.8654(4)
H40 H 0.5786 0.7748 0.9010
H41 H 0.5524 0.7633 0.8353
loop_
_geom_bond_atom_site_label_1
_geom_bond_atom_site_label_2
_geom_bond_site_symmetry_1
_geom_bond_site_symmetry_2
Cu1 O3 1_555 1_555
Cu2 O1 1_555 1_555
O1 C5 1_555 1_555
O2 Cu2 1_555 1_555
O3 C1 1_555 1_555
N1 Cu2 1_555 1_555
N2 Cu2 1_555 1_555
O4 Cu1 1_555 1_555
O5 Cu1 1_555 1_555
O6 C1 1_555 1_555
O7 C6 1_555 1_555
N3 Cu1 1_555 1_555
C1 C8 1_555 1_555
C2 N3 1_555 1_555
H1 C2 1_555 1_555
H2 C2 1_555 1_555
C3 N1 1_555 1_555
H3 C3 1_555 1_555
H4 C3 1_555 1_555
C4 N1 1_555 1_555
C5 O5 1_555 1_555
C6 O4 1_555 1_555
C7 N1 1_555 1_555
H5 C7 1_555 1_555
H6 C7 1_555 1_555
C8 N3 1_555 1_555
H7 C8 1_555 1_555
H8 C8 1_555 1_555
C9 N3 1_555 1_555
C10 C9 1_555 1_555
H9 C10 1_555 1_555
C11 C4 1_555 1_555
H10 C11 1_555 1_555
C12 C9 1_555 1_555
H11 C12 1_555 1_555
O8 C14 1_555 1_555
C13 C22 1_555 1_555
C14 O2 1_555 1_555
C15 H12 1_555 1_555
C16 C4 1_555 1_555
H13 C16 1_555 1_555
C17 C12 1_555 1_555
H14 C17 1_555 1_555
C18 H15 1_555 1_555
C19 C16 1_555 1_555
H16 C19 1_555 1_555
C20 C11 1_555 1_555
H17 C20 1_555 1_555
C21 N2 1_555 1_555
H18 C21 1_555 1_555
C22 C21 1_555 1_555
H19 C22 1_555 1_555
C23 C10 1_555 1_555
H20 C23 1_555 1_555
C24 N2 1_555 1_555
H21 C24 1_555 1_555
C25 C13 1_555 1_555
C26 C13 1_555 1_555
H22 C26 1_555 1_555
C27 H23 1_555 1_555
C28 H24 1_555 1_555
C29 C25 1_555 1_555
H25 C29 1_555 1_555
C30 C25 1_555 1_555
H26 C30 1_555 1_555
N4 C27 1_555 1_555
O9 Cu2 1_555 1_555
H27 O9 1_555 1_555
H28 O9 1_555 1_555
N5 C31 1_555 1_555
C31 H29 1_555 1_555
H30 C31 1_555 1_555
H31 C31 1_555 1_555
O10 C32 1_555 1_555
C32 N5 1_555 1_555
H32 C32 1_555 1_555
C33 N5 1_555 1_555
H33 C33 1_555 1_555
H34 C33 1_555 1_555
H35 C33 1_555 1_555
O11 H36 1_555 1_555
H37 O11 1_555 1_555
O12 H38 1_555 1_555
H39 O12 1_555 1_555
O13 H40 1_555 1_555
H41 O13 1_555 1_555
Cu1A N4 1_555 1_555
Cu2_2 O6 1_555 1_555
O6_2 Cu2 1_555 1_555
N4A Cu1 1_555 1_555
C2 C6 1_555 1_555
C3 C14 1_555 1_555
C5 C7 1_555 1_555
C15 C17 1_555 1_555
C15 C23 1_555 1_555
C18 C19 1_555 1_555
C18 C20 1_555 1_555
C24 C26 1_555 1_555
C27 C30 1_555 1_555
C28 C29 1_555 1_555
C28 N4 1_555 1_555

#END
