
#######################################################################
#
#                 Cambridge Crystallographic Data Centre
#                                CCDC 
#
#######################################################################
#
# If this CIF has been generated from an entry in the Cambridge 
# Structural Database, then it will include bibliographic, chemical, 
# crystal, experimental, refinement or atomic coordinate data resulting 
# from the CCDC's data processing and validation procedures.
#
#######################################################################

data_NIBXIH
_symmetry_cell_setting           triclinic
_symmetry_space_group_name_H-M   'P -1'
_symmetry_Int_Tables_number      2
_space_group_name_Hall           '-P 1'
loop_
_symmetry_equiv_pos_site_id
_symmetry_equiv_pos_as_xyz
1 x,y,z
2 -x,-y,-z
_cell_length_a                   10.7139(6)
_cell_length_b                   11.3468(6)
_cell_length_c                   16.2506(9)
_cell_angle_alpha                75.6610(10)
_cell_angle_beta                 74.7450(10)
_cell_angle_gamma                66.3520(10)
_cell_volume                     1723.18
loop_
_atom_site_label
_atom_site_type_symbol
_atom_site_fract_x
_atom_site_fract_y
_atom_site_fract_z
C1 C -0.2202(2) 0.5386(2) 0.07122(13)
H1 H -0.1281 0.4914 0.0763
C2 C 0.0871(3) 0.6588(3) 0.34218(15)
H2 H 0.1499 0.6451 0.3768
C3 C -0.4028(2) 0.7438(2) 0.03724(13)
H3 H -0.4322 0.8335 0.0192
C4 C -0.2911(3) 0.7198(2) 0.35421(15)
C5 C -0.4517(2) 0.5455(2) 0.08346(13)
H4 H -0.5141 0.5026 0.0964
C6 C -0.0886(2) 0.6997(2) 0.23679(14)
H5 H -0.1496 0.7145 0.2007
C7 C -0.64839(19) 0.7541(2) 0.05281(13)
C8 C -0.4965(2) 0.6801(2) 0.05712(13)
C9 C -0.26451(19) 0.67273(19) 0.04443(13)
C10 C 0.0132(3) 1.0049(2) -0.32608(14)
C11 C -0.2146(3) 0.9980(3) -0.27942(17)
H6 H -0.2950 0.9984 -0.2913
C12 C -1.0608(2) 0.6490(2) 0.69108(15)
C13 C 0.1295(2) 0.6642(2) 0.25354(15)
H7 H 0.2216 0.6536 0.2296
C14 C -0.7066(2) 0.6612(2) 0.58561(15)
C15 C -0.16039(19) 0.73811(19) 0.02577(12)
C16 C -0.3143(2) 0.47561(19) 0.09034(13)
C17 C -0.1398(2) 0.6953(2) 0.32470(14)
C18 C 0.0177(2) 0.9956(2) -0.24005(13)
H8 H 0.0973 0.9946 -0.2265
C19 C 0.1265(3) 1.0227(2) -0.40114(14)
C20 C -0.9342(2) 0.6377(2) 0.62184(15)
C21 C -0.4561(2) 0.6591(2) 0.48139(15)
C22 C -0.5870(3) 0.6035(3) 0.61913(16)
H9 H -0.5903 0.5651 0.6769
C23 C -0.4619(3) 0.6025(3) 0.56717(16)
H10 H -0.3811 0.5635 0.5901
C24 C -0.7019(3) 0.7190(3) 0.50021(16)
H11 H -0.7832 0.7590 0.4778
C25 C -0.1052(3) 1.0053(3) -0.34555(16)
H12 H -0.1110 1.0104 -0.4025
C26 C -1.1828(3) 0.6627(3) 0.6701(2)
H13 H -1.1866 0.6654 0.6131
C27 C -1.0612(3) 0.6418(3) 0.77700(18)
H14 H -0.9792 0.6316 0.7922
C28 C 0.5000(3) 1.0581(3) -0.58425(17)
H15 H 0.4989 1.0979 -0.6416
C29 C -0.5772(3) 0.7180(3) 0.44770(16)
H16 H -0.5743 0.7566 0.3900
C30 C -0.0490(3) 0.6740(2) 0.37856(15)
H17 H -0.0792 0.6699 0.4380
C31 C 0.3764(3) 0.9938(2) -0.44503(15)
C32 C 0.3774(3) 1.0530(3) -0.53123(17)
H18 H 0.2956 1.0891 -0.5530
C33 C -0.2031(2) 0.9901(2) -0.19531(15)
H19 H -0.2773 0.9860 -0.1510
C34 C -1.2994(3) 0.6724(3) 0.7334(3)
H20 H -1.3828 0.6835 0.7197
C35 C -1.2898(3) 0.6656(4) 0.8160(3)
H21 H -1.3693 0.6732 0.8582
N1 N 0.04284(18) 0.68413(18) 0.20089(11)
N2 N -0.3231(2) 0.6515(2) 0.43227(13)
H22 H -0.2538 0.5962 0.4552
N3 N -0.8347(2) 0.6642(2) 0.64139(12)
H23 H -0.8496 0.6846 0.6916
N4 N -1.1735(3) 0.6486(4) 0.8408(2)
N5 N -0.08843(18) 0.98799(17) -0.17556(11)
N6 N 0.2553(2) 0.9845(2) -0.38528(12)
H24 H 0.2659 0.9504 -0.3329
O1 O -0.18847(14) 0.85042(14) -0.01689(9)
O2 O -0.03420(13) 0.92687(13) 0.06646(8)
H25 H -0.1149 0.9452 0.1134
O3 O -0.05281(14) 0.67157(14) 0.05773(9)
O4 O -0.69240(15) 0.87271(15) 0.02975(11)
O5 O -0.71957(14) 0.68000(15) 0.07709(10)
O6 O -0.14045(14) 0.24402(14) 0.06271(9)
O7 O -0.37597(16) 0.26738(15) 0.13523(12)
O8 O -0.21423(19) 0.28357(16) 0.20818(10)
O9 O -0.37578(19) 0.7960(2) 0.30985(12)
O10 O -0.92394(18) 0.60450(18) 0.55323(10)
O11 O 0.0954(2) 1.0727(2) -0.47235(11)
S1 S -0.25951(5) 0.30517(5) 0.12794(3)
Cu1 Cu 0.09559(2) 0.71884(2) 0.068597(15)
Cu2 Cu -0.07878(2) 0.96610(2) -0.049384(14)
C10A C 0.9868(3) 0.9951(2) -0.67392(14)
C11A C 1.2146(3) 1.0020(3) -0.72058(17)
H6A H 1.2950 1.0016 -0.7087
C18A C 0.9823(2) 1.0044(2) -0.75995(13)
H8A H 0.9027 1.0054 -0.7735
C19A C 0.8735(3) 0.9773(2) -0.59886(14)
C25A C 1.1052(3) 0.9947(3) -0.65445(16)
H12A H 1.1110 0.9896 -0.5975
C28A C 0.5000(3) 0.9419(3) -0.41575(17)
H15A H 0.5011 0.9021 -0.3584
C31A C 0.6236(3) 1.0062(2) -0.55497(15)
C32A C 0.6226(3) 0.9470(3) -0.46877(17)
H18A H 0.7044 0.9109 -0.4470
C33A C 1.2031(2) 1.0099(2) -0.80469(15)
H19A H 1.2773 1.0140 -0.8490
N5A N 1.08843(18) 1.01201(17) -0.82444(11)
N6A N 0.7447(2) 1.0155(2) -0.61472(12)
H24A H 0.7341 1.0496 -0.6671
O11A O 0.9046(2) 0.9273(2) -0.52765(11)
C1A C -0.7798(2) 1.4614(2) -0.07122(13)
H1A H -0.8719 1.5086 -0.0763
C2A C -1.0871(3) 1.3412(3) -0.34218(15)
H2A H -1.1499 1.3549 -0.3768
C3A C -0.5972(2) 1.2562(2) -0.03724(13)
H3A H -0.5678 1.1665 -0.0192
C4A C -0.7089(3) 1.2802(2) -0.35421(15)
C5A C -0.5483(2) 1.4545(2) -0.08346(13)
H4A H -0.4859 1.4974 -0.0964
C6A C -0.9114(2) 1.3003(2) -0.23679(14)
H5A H -0.8504 1.2855 -0.2007
C7A C -0.35161(19) 1.2459(2) -0.05281(13)
C8A C -0.5035(2) 1.3199(2) -0.05712(13)
C9A C -0.73549(19) 1.32727(19) -0.04443(13)
C12A C 0.0608(2) 1.3510(2) -0.69108(15)
C13A C -1.1295(2) 1.3358(2) -0.25354(15)
H7A H -1.2216 1.3464 -0.2296
C14A C -0.2934(2) 1.3388(2) -0.58561(15)
C15A C -0.83961(19) 1.26189(19) -0.02577(12)
C16A C -0.6857(2) 1.52439(19) -0.09034(13)
C17A C -0.8602(2) 1.3047(2) -0.32470(14)
C20A C -0.0658(2) 1.3623(2) -0.62184(15)
C21A C -0.5439(2) 1.3409(2) -0.48139(15)
C22A C -0.4130(3) 1.3965(3) -0.61913(16)
H9A H -0.4097 1.4349 -0.6769
C23A C -0.5381(3) 1.3975(3) -0.56717(16)
H10A H -0.6189 1.4365 -0.5901
C24A C -0.2981(3) 1.2810(3) -0.50021(16)
H11A H -0.2168 1.2410 -0.4778
C26A C 0.1828(3) 1.3373(3) -0.6701(2)
H13A H 0.1866 1.3346 -0.6131
C27A C 0.0612(3) 1.3582(3) -0.77700(18)
H14A H -0.0208 1.3684 -0.7922
C29A C -0.4228(3) 1.2820(3) -0.44770(16)
H16A H -0.4257 1.2434 -0.3900
C30A C -0.9510(3) 1.3260(2) -0.37856(15)
H17A H -0.9208 1.3301 -0.4380
C34A C 0.2994(3) 1.3276(3) -0.7334(3)
H20A H 0.3828 1.3165 -0.7197
C35A C 0.2898(3) 1.3344(4) -0.8160(3)
H21A H 0.3693 1.3268 -0.8582
N1A N -1.04284(18) 1.31587(18) -0.20089(11)
N2A N -0.6769(2) 1.3485(2) -0.43227(13)
H22A H -0.7462 1.4038 -0.4552
N3A N -0.1653(2) 1.3358(2) -0.64139(12)
H23A H -0.1504 1.3154 -0.6916
N4A N 0.1735(3) 1.3514(4) -0.8408(2)
O1A O -0.81153(14) 1.14958(14) 0.01689(9)
O2A O -0.96580(13) 1.07313(13) -0.06646(8)
H25A H -0.8851 1.0548 -0.1134
O3A O -0.94719(14) 1.32843(14) -0.05773(9)
O4A O -0.30760(15) 1.12729(15) -0.02975(11)
O5A O -0.28043(14) 1.32000(15) -0.07709(10)
O6A O -0.85955(14) 1.75598(14) -0.06271(9)
O7A O -0.62403(16) 1.73262(15) -0.13523(12)
O8A O -0.78577(19) 1.71643(16) -0.20818(10)
O9A O -0.62422(19) 1.2040(2) -0.30985(12)
O10A O -0.07606(18) 1.39550(18) -0.55323(10)
S1A S -0.74049(5) 1.69483(5) -0.12794(3)
Cu1A Cu -1.09559(2) 1.28116(2) -0.068597(15)
Cu2A Cu -0.92122(2) 1.03390(2) 0.049384(14)
N5A_2 N -0.91157(18) 1.01201(17) 0.17556(11)
O2_2 O -1.03420(13) 0.92687(13) 0.06646(8)
O2A_2 O 0.03420(13) 1.07313(13) -0.06646(8)
O5_2 O 0.28043(14) 0.68000(15) 0.07709(10)
O5A_2 O -1.28043(14) 1.32000(15) -0.07709(10)
O6_2 O -1.14045(14) 1.24402(14) 0.06271(9)
O6A_2 O 0.14045(14) 0.75598(14) -0.06271(9)
Cu1_2 Cu -0.90441(2) 0.71884(2) 0.068597(15)
Cu1_3 Cu -0.90441(2) 1.71884(2) 0.068597(15)
Cu1A_2 Cu -0.09559(2) 0.28116(2) -0.068597(15)
Cu1A_3 Cu -0.09559(2) 1.28116(2) -0.068597(15)
Cu2_2 Cu -1.07878(2) 0.96610(2) -0.049384(14)
Cu2_3 Cu -1.07878(2) 1.96610(2) -0.049384(14)
Cu2A_2 Cu 0.07878(2) 0.03390(2) 0.049384(14)
Cu2A_3 Cu 0.07878(2) 1.03390(2) 0.049384(14)
Cu2A_4 Cu 1.07878(2) 1.03390(2) -0.950616(14)
O12 O -0.28839(19) 0.99210(19) 0.19136(14)
H26 H -0.3455 0.9529 0.2149
H27 H -0.3362 1.0726 0.1795
loop_
_geom_bond_atom_site_label_1
_geom_bond_atom_site_label_2
_geom_bond_site_symmetry_1
_geom_bond_site_symmetry_2
C1 H1 1_555 1_555
C2 H2 1_555 1_555
C3 H3 1_555 1_555
C4 C17 1_555 1_555
C5 H4 1_555 1_555
C6 H5 1_555 1_555
C7 C8 1_555 1_555
C8 C3 1_555 1_555
C9 C1 1_555 1_555
C10 C18 1_555 1_555
C11 H6 1_555 1_555
C12 C20 1_555 1_555
C13 C2 1_555 1_555
H7 C13 1_555 1_555
C14 C22 1_555 1_555
C15 C9 1_555 1_555
C16 C1 1_555 1_555
C17 C6 1_555 1_555
C18 H8 1_555 1_555
C19 C10 1_555 1_555
C20 N3 1_555 1_555
C21 C23 1_555 1_555
C22 H9 1_555 1_555
C23 C22 1_555 1_555
H10 C23 1_555 1_555
C24 C14 1_555 1_555
H11 C24 1_555 1_555
C25 C10 1_555 1_555
H12 C25 1_555 1_555
C26 C12 1_555 1_555
H13 C26 1_555 1_555
C27 C12 1_555 1_555
H14 C27 1_555 1_555
C28 H15 1_555 1_555
C29 C21 1_555 1_555
H16 C29 1_555 1_555
C30 C2 1_555 1_555
H17 C30 1_555 1_555
C31 C32 1_555 1_555
C32 C28 1_555 1_555
H18 C32 1_555 1_555
C33 C11 1_555 1_555
H19 C33 1_555 1_555
C34 C26 1_555 1_555
H20 C34 1_555 1_555
C35 C34 1_555 1_555
H21 C35 1_555 1_555
N1 C6 1_555 1_555
N2 C4 1_555 1_555
H22 N2 1_555 1_555
N3 C14 1_555 1_555
H23 N3 1_555 1_555
N4 C27 1_555 1_555
N5 C18 1_555 1_555
N6 C19 1_555 1_555
H24 N6 1_555 1_555
O1 C15 1_555 1_555
O2 H25 1_555 1_555
O3 C15 1_555 1_555
O4 C7 1_555 1_555
O5 C7 1_555 1_555
O6 S1 1_555 1_555
O7 S1 1_555 1_555
O8 S1 1_555 1_555
O9 C4 1_555 1_555
O10 C20 1_555 1_555
O11 C19 1_555 1_555
S1 C16 1_555 1_555
Cu1 N1 1_555 1_555
Cu2 N5 1_555 1_555
O12 H26 1_555 1_555
H27 O12 1_555 1_555
C10A C18A 1_555 1_555
C11A H6A 1_555 1_555
C18A H8A 1_555 1_555
C19A C10A 1_555 1_555
C25A C10A 1_555 1_555
H12A C25A 1_555 1_555
C28A C31 1_555 1_555
H15A C28A 1_555 1_555
C31A C28 1_555 1_555
C32A C28A 1_555 1_555
H18A C32A 1_555 1_555
C33A C11A 1_555 1_555
H19A C33A 1_555 1_555
N5A C18A 1_555 1_555
N6A C19A 1_555 1_555
H24A N6A 1_555 1_555
O11A C19A 1_555 1_555
C1A H1A 1_555 1_555
C2A H2A 1_555 1_555
C3A H3A 1_555 1_555
C4A C17A 1_555 1_555
C5A H4A 1_555 1_555
C6A H5A 1_555 1_555
C7A C8A 1_555 1_555
C8A C3A 1_555 1_555
C9A C1A 1_555 1_555
C12A C20A 1_555 1_555
C13A C2A 1_555 1_555
H7A C13A 1_555 1_555
C14A C22A 1_555 1_555
C15A C9A 1_555 1_555
C16A C1A 1_555 1_555
C17A C6A 1_555 1_555
C20A N3A 1_555 1_555
C21A C23A 1_555 1_555
C22A H9A 1_555 1_555
C23A C22A 1_555 1_555
H10A C23A 1_555 1_555
C24A C14A 1_555 1_555
H11A C24A 1_555 1_555
C26A C12A 1_555 1_555
H13A C26A 1_555 1_555
C27A C12A 1_555 1_555
H14A C27A 1_555 1_555
C29A C21A 1_555 1_555
H16A C29A 1_555 1_555
C30A C2A 1_555 1_555
H17A C30A 1_555 1_555
C34A C26A 1_555 1_555
H20A C34A 1_555 1_555
C35A C34A 1_555 1_555
H21A C35A 1_555 1_555
N1A C6A 1_555 1_555
N2A C4A 1_555 1_555
H22A N2A 1_555 1_555
N3A C14A 1_555 1_555
H23A N3A 1_555 1_555
N4A C27A 1_555 1_555
O1A C15A 1_555 1_555
O2A H25A 1_555 1_555
O3A C15A 1_555 1_555
O4A Cu2 1_555 1_555
O5A C7A 1_555 1_555
O6A S1A 1_555 1_555
O7A S1A 1_555 1_555
O8A S1A 1_555 1_555
O9A C4A 1_555 1_555
O10A C20A 1_555 1_555
S1A C16A 1_555 1_555
Cu1A N1A 1_555 1_555
Cu2A O4 1_555 1_555
N5A_2 Cu2A 1_555 1_555
O2_2 Cu2A 1_555 1_555
O2A_2 Cu2 1_555 1_555
O5_2 Cu1 1_555 1_555
O5A_2 Cu1A 1_555 1_555
O6_2 Cu1A 1_555 1_555
O6A_2 Cu1 1_555 1_555
Cu1_2 O5 1_555 1_555
Cu1_3 O6A 1_555 1_555
Cu1A_2 O6 1_555 1_555
Cu1A_3 O5A 1_555 1_555
Cu2_2 O2A 1_555 1_555
Cu2_3 O6A 1_555 1_555
Cu2A_2 O6 1_555 1_555
Cu2A_3 O2 1_555 1_555
Cu2A_4 N5A 1_555 1_555
C3 C9 1_555 1_555
C5 C8 1_555 1_555
C5 C16 1_555 1_555
C11 C25 1_555 1_555
C13 N1 1_555 1_555
C17 C30 1_555 1_555
C21 N2 1_555 1_555
C24 C29 1_555 1_555
C31 N6 1_555 1_555
C33 N5 1_555 1_555
C35 N4 1_555 1_555
O1 Cu2 1_555 1_555
O2 Cu1 1_555 1_555
O2 Cu2 1_555 1_555
O3 Cu1 1_555 1_555
Cu2 O6A_2 1_555 1_555
C11A C25A 1_555 1_555
C31A C32A 1_555 1_555
C31A N6A 1_555 1_555
C33A N5A 1_555 1_555
C3A C9A 1_555 1_555
C5A C8A 1_555 1_555
C5A C16A 1_555 1_555
C7A O4A 1_555 1_555
C13A N1A 1_555 1_555
C17A C30A 1_555 1_555
C21A N2A 1_555 1_555
C24A C29A 1_555 1_555
C35A N4A 1_555 1_555
O1A Cu2A 1_555 1_555
O2A Cu1A 1_555 1_555
O2A Cu2A 1_555 1_555
O3A Cu1A 1_555 1_555
Cu2A O6_2 1_555 1_555
O2_2 Cu1_2 1_555 1_555
O2_2 Cu2_2 1_555 1_555
O2A_2 Cu1A_3 1_555 1_555
O2A_2 Cu2A_3 1_555 1_555

#END
