
#######################################################################
#
#                 Cambridge Crystallographic Data Centre
#                                CCDC 
#
#######################################################################
#
# If this CIF has been generated from an entry in the Cambridge 
# Structural Database, then it will include bibliographic, chemical, 
# crystal, experimental, refinement or atomic coordinate data resulting 
# from the CCDC's data processing and validation procedures.
#
#######################################################################

data_NIBXUT
_symmetry_cell_setting           orthorhombic
_symmetry_space_group_name_H-M   'P c a n'
_symmetry_Int_Tables_number      60
_space_group_name_Hall           '-P 2n 2c'
loop_
_symmetry_equiv_pos_site_id
_symmetry_equiv_pos_as_xyz
1 x,y,z
2 1/2-x,1/2-y,1/2+z
3 x,-y,1/2-z
4 1/2-x,1/2+y,-z
5 -x,-y,-z
6 1/2+x,1/2+y,1/2-z
7 -x,y,1/2+z
8 1/2+x,1/2-y,z
_cell_length_a                   13.0433(2)
_cell_length_b                   25.7014(3)
_cell_length_c                   11.07570(10)
_cell_angle_alpha                90
_cell_angle_beta                 90
_cell_angle_gamma                90
_cell_volume                     3712.92
loop_
_atom_site_label
_atom_site_type_symbol
_atom_site_fract_x
_atom_site_fract_y
_atom_site_fract_z
Gd1 Gd 0.342968(16) 0.781217(8) 1.020585(19)
P1 P 0.18856(9) 0.69604(4) 0.84725(10)
O1 O 0.2911(2) 0.71915(11) 0.8785(3)
O2 O 0.1724(3) 0.64054(12) 0.9013(3)
O3 O 0.1622(2) 0.69278(12) 0.7167(3)
C1 C 0.0927(3) 0.73830(18) 0.9182(4)
H1 H 0.1094 0.7754 0.8994
O4 O -0.0086(2) 0.72726(12) 0.8779(3)
H2 H -0.0084 0.7251 0.8048
C2 C 0.0983(4) 0.73011(17) 1.0549(4)
O5 O 0.1853(2) 0.73552(12) 1.1027(3)
O6 O 0.0173(2) 0.71891(11) 1.1107(3)
Gd2 Gd 0.50787(3) 1.0000 0.7500
P2 P 0.29826(10) 0.91835(5) 0.68901(10)
O7 O 0.3822(3) 0.95379(11) 0.6419(3)
O8 O 0.2205(3) 0.94952(13) 0.7656(3)
O9 O 0.2422(3) 0.88759(12) 0.5920(3)
C3 C 0.3652(4) 0.87055(17) 0.7842(4)
H3 H 0.4263 0.8585 0.7374
O10 O 0.3073(3) 0.82488(12) 0.8145(3)
H4 H 0.3141 0.8077 0.7520
C4 C 0.4059(4) 0.89520(17) 0.9011(4)
O11 O 0.4423(3) 0.93961(12) 0.8956(3)
O12 O 0.3989(3) 0.86844(12) 0.9965(3)
O13 O 0.3905(3) 0.69734(12) 1.1065(3)
O14 O 0.1910(3) 0.83909(14) 1.0340(3)
O15 O 0.5952(3) 0.92009(13) 0.7101(3)
O16 O 0.6324(3) 0.98844(13) 0.9085(3)
Gd1B Gd 0.342968(16) 1.218783(8) 0.479415(19)
P1B P 0.18856(9) 1.30396(4) 0.65275(10)
O1B O 0.2911(2) 1.28085(11) 0.6215(3)
O2B O 0.1724(3) 1.35946(12) 0.5987(3)
O3B O 0.1622(2) 1.30722(12) 0.7833(3)
C1B C 0.0927(3) 1.26170(18) 0.5818(4)
H1B H 0.1094 1.2246 0.6006
O4B O -0.0086(2) 1.27274(12) 0.6221(3)
H2B H -0.0084 1.2749 0.6952
C2B C 0.0983(4) 1.26989(17) 0.4451(4)
O5B O 0.1853(2) 1.26448(12) 0.3973(3)
O6B O 0.0173(2) 1.28109(11) 0.3893(3)
P2B P 0.29826(10) 1.08165(5) 0.81099(10)
O7B O 0.3822(3) 1.04621(11) 0.8581(3)
O8B O 0.2205(3) 1.05048(13) 0.7344(3)
O9B O 0.2422(3) 1.11241(12) 0.9080(3)
C3B C 0.3652(4) 1.12945(17) 0.7158(4)
H3B H 0.4263 1.1415 0.7626
O10B O 0.3073(3) 1.17512(12) 0.6855(3)
H4B H 0.3141 1.1923 0.7480
C4B C 0.4059(4) 1.10480(17) 0.5989(4)
O11B O 0.4423(3) 1.06039(12) 0.6044(3)
O12B O 0.3989(3) 1.13156(12) 0.5035(3)
O13B O 0.3905(3) 1.30266(12) 0.3935(3)
O14B O 0.1910(3) 1.16091(14) 0.4660(3)
O15B O 0.5952(3) 1.07991(13) 0.7899(3)
O16B O 0.6324(3) 1.01156(13) 0.5915(3)
Gd1A Gd 0.157032(16) 0.718783(8) 0.520585(19)
Gd1C Gd 0.157032(16) 1.281217(8) 0.979415(19)
Gd1E Gd -0.157032(16) 1.281217(8) 0.479415(19)
Gd1G Gd -0.157032(16) 0.718783(8) 1.020585(19)
O3A O 0.3378(2) 0.80722(12) 1.2167(3)
O3C O 0.3378(2) 1.19278(12) 0.2833(3)
O4E O 0.4914(2) 1.22726(12) 0.6221(3)
O4G O 0.4914(2) 0.77274(12) 0.8779(3)
O6E O 0.5173(2) 1.21891(11) 0.3893(3)
O6G O 0.5173(2) 0.78109(11) 1.1107(3)
loop_
_geom_bond_atom_site_label_1
_geom_bond_atom_site_label_2
_geom_bond_site_symmetry_1
_geom_bond_site_symmetry_2
Gd1 O1 1_555 1_555
P1 O1 1_555 1_555
O2 P1 1_555 1_555
O3 P1 1_555 1_555
C1 P1 1_555 1_555
H1 C1 1_555 1_555
O4 C1 1_555 1_555
H2 O4 1_555 1_555
C2 C1 1_555 1_555
O5 Gd1 1_555 1_555
O6 C2 1_555 1_555
Gd2 O7 1_555 1_555
P2 O7 1_555 1_555
O8 P2 1_555 1_555
O9 P2 1_555 1_555
C3 P2 1_555 1_555
H3 C3 1_555 1_555
O10 Gd1 1_555 1_555
H4 O10 1_555 1_555
C4 C3 1_555 1_555
O11 Gd2 1_555 1_555
O12 Gd1 1_555 1_555
O13 Gd1 1_555 1_555
O14 Gd1 1_555 1_555
O15 Gd2 1_555 1_555
O16 Gd2 1_555 1_555
Gd1B O1B 1_555 1_555
P1B O1B 1_555 1_555
O2B P1B 1_555 1_555
O3B P1B 1_555 1_555
C1B P1B 1_555 1_555
H1B C1B 1_555 1_555
O4B C1B 1_555 1_555
H2B O4B 1_555 1_555
C2B C1B 1_555 1_555
O5B Gd1B 1_555 1_555
O6B C2B 1_555 1_555
P2B O7B 1_555 1_555
O7B Gd2 1_555 1_555
O8B P2B 1_555 1_555
O9B P2B 1_555 1_555
C3B P2B 1_555 1_555
H3B C3B 1_555 1_555
O10B Gd1B 1_555 1_555
H4B O10B 1_555 1_555
C4B C3B 1_555 1_555
O11B Gd2 1_555 1_555
O12B Gd1B 1_555 1_555
O13B Gd1B 1_555 1_555
O14B Gd1B 1_555 1_555
O15B Gd2 1_555 1_555
O16B Gd2 1_555 1_555
Gd1A O3 1_555 1_555
Gd1C O3B 1_555 1_555
Gd1E O4B 1_555 1_555
Gd1G O4 1_555 1_555
O3A Gd1 1_555 1_555
O3C Gd1B 1_555 1_555
O4E Gd1B 1_555 1_555
O4G Gd1 1_555 1_555
O6E Gd1B 1_555 1_555
O6G Gd1 1_555 1_555
C2 O5 1_555 1_555
O6 Gd1G 1_555 1_555
C3 O10 1_555 1_555
C4 O11 1_555 1_555
C4 O12 1_555 1_555
C2B O5B 1_555 1_555
O6B Gd1E 1_555 1_555
C3B O10B 1_555 1_555
C4B O11B 1_555 1_555
C4B O12B 1_555 1_555

#END
