
#######################################################################
#
#                 Cambridge Crystallographic Data Centre
#                                CCDC 
#
#######################################################################
#
# If this CIF has been generated from an entry in the Cambridge 
# Structural Database, then it will include bibliographic, chemical, 
# crystal, experimental, refinement or atomic coordinate data resulting 
# from the CCDC's data processing and validation procedures.
#
#######################################################################

data_NIBXON
_symmetry_cell_setting           triclinic
_symmetry_space_group_name_H-M   'P -1'
_symmetry_Int_Tables_number      2
_space_group_name_Hall           '-P 1'
loop_
_symmetry_equiv_pos_site_id
_symmetry_equiv_pos_as_xyz
1 x,y,z
2 -x,-y,-z
_cell_length_a                   8.1432(10)
_cell_length_b                   9.0340(11)
_cell_length_c                   11.5408(14)
_cell_angle_alpha                80.905(2)
_cell_angle_beta                 74.4160(10)
_cell_angle_gamma                77.7030(10)
_cell_volume                     794.431
loop_
_atom_site_label
_atom_site_type_symbol
_atom_site_fract_x
_atom_site_fract_y
_atom_site_fract_z
N1 N 0.4241(4) 0.7426(3) 0.5609(3)
O1 O 0.7948(3) 0.9398(3) 0.5971(2)
H1 H 0.7742 0.9622 0.6762
C1 C 1.05516(9) 0.78117(9) 0.01145(6)
H2 H 1.1619 0.7361 -0.0336
Cu1 Cu 1.00000(9) 1.00000(9) 0.50000(6)
N2 N 0.40526(9) 0.59866(9) 0.23170(6)
H3 H 0.4360 0.6832 0.2344
O2 O 0.97255(9) 0.92135(9) 0.35755(6)
C2 C 1.03345(9) 0.79426(9) 0.13176(6)
H4 H 1.1276 0.7616 0.1664
O3 O 0.73227(9) 0.81759(9) 0.40941(6)
C3 C 0.43759(9) 0.40113(9) 0.09605(6)
H5 H 0.3930 0.3334 0.1605
O4 O 0.54777(9) 1.07628(9) 0.28098(6)
C4 C 0.48992(9) 0.35812(9) -0.01831(6)
H6 H 0.4849 0.2597 -0.0298
O5 O 0.42923(9) 0.91936(9) 0.21049(6)
C5 C 0.92026(9) 0.83415(9) -0.04227(6)
H7 H 0.9365 0.8289 -0.1245
O6 O 0.25832(9) 0.41667(9) 0.34752(6)
C6 C 0.55456(9) 0.96949(9) 0.21970(6)
C7 C 0.75926(9) 0.89565(9) 0.02588(6)
H8 H 0.6679 0.9320 -0.0110
C8 C 0.42699(9) 0.68654(9) 0.45892(6)
H9 H 0.5166 0.7023 0.3913
C9 C 0.73309(9) 0.90342(9) 0.14976(6)
C10 C 0.31896(9) 0.53209(9) 0.33786(6)
C11 C 0.17142(9) 0.58121(9) 0.55100(6)
H10 H 0.0887 0.5256 0.5487
C12 C 0.87267(9) 0.85578(9) 0.20361(6)
C13 C 0.85779(9) 0.86737(9) 0.33435(6)
C14 C 0.30576(9) 0.60726(9) 0.44832(6)
C15 C 0.45015(9) 0.54365(9) 0.11690(6)
C16 C 0.29080(9) 0.71686(9) 0.65661(6)
H11 H 0.2846 0.7544 0.7285
C17 C 0.16630(9) 0.64023(9) 0.65448(6)
H12 H 0.0773 0.6276 0.7232
Cu2 Cu 0.61948(5) 0.84627(5) 0.57745(4)
N1A N 0.5759(4) 0.2574(3) -0.5609(3)
N2A N 0.59474(9) 0.40134(9) -0.23170(6)
H3A H 0.5640 0.3168 -0.2344
C3A C 0.56241(9) 0.59887(9) -0.09605(6)
H5A H 0.6070 0.6666 -0.1605
C4A C 0.51008(9) 0.64188(9) 0.01831(6)
H6A H 0.5151 0.7403 0.0298
O6A O 0.74168(9) 0.58333(9) -0.34752(6)
C8A C 0.57301(9) 0.31346(9) -0.45892(6)
H9A H 0.4834 0.2977 -0.3913
C10A C 0.68104(9) 0.46791(9) -0.33786(6)
C11A C 0.82858(9) 0.41879(9) -0.55100(6)
H10A H 0.9113 0.4744 -0.5487
C14A C 0.69424(9) 0.39274(9) -0.44832(6)
C15A C 0.54985(9) 0.45635(9) -0.11690(6)
C16A C 0.70920(9) 0.28314(9) -0.65661(6)
H11A H 0.7154 0.2456 -0.7285
C17A C 0.83370(9) 0.35977(9) -0.65448(6)
H12A H 0.9227 0.3724 -0.7232
O1A O 0.2052(3) 0.0602(3) -0.5971(2)
H1A H 0.2258 0.0378 -0.6762
C1A C -0.05516(9) 0.21883(9) -0.01145(6)
H2A H -0.1619 0.2639 0.0336
O2A O 0.02745(9) 0.07865(9) -0.35755(6)
C2A C -0.03345(9) 0.20574(9) -0.13176(6)
H4A H -0.1276 0.2384 -0.1664
O3A O 0.26773(9) 0.18241(9) -0.40941(6)
O4A O 0.45223(9) -0.07628(9) -0.28098(6)
O5A O 0.57077(9) 0.08064(9) -0.21049(6)
C5A C 0.07974(9) 0.16585(9) 0.04227(6)
H7A H 0.0635 0.1711 0.1245
C6A C 0.44544(9) 0.03051(9) -0.21970(6)
C7A C 0.24074(9) 0.10435(9) -0.02588(6)
H8A H 0.3321 0.0680 0.0110
C9A C 0.26691(9) 0.09658(9) -0.14976(6)
C12A C 0.12733(9) 0.14422(9) -0.20361(6)
C13A C 0.14221(9) 0.13263(9) -0.33435(6)
Cu2A Cu 0.38052(5) 0.15373(5) -0.57745(4)
O1A_2 O 1.2052(3) 1.0602(3) 0.4029(2)
Cu1_2 Cu 0.00000(9) 0.00000(9) -0.50000(6)
O2A_2 O 1.02745(9) 1.07865(9) 0.64245(6)
O4_2 O 0.54777(9) 0.07628(9) -0.71902(6)
O4A_2 O 0.45223(9) 0.92372(9) 0.71902(6)
O6_2 O 0.25832(9) 0.41667(9) -0.65248(6)
O6A_2 O 0.74168(9) 0.58333(9) 0.65248(6)
Cu2_2 Cu 0.61948(5) -0.15373(5) -0.42255(4)
Cu2_3 Cu 0.61948(5) 0.84627(5) -0.42255(4)
Cu2A_2 Cu 0.38052(5) 0.15373(5) 0.42255(4)
Cu2A_3 Cu 0.38052(5) 1.15373(5) 0.42255(4)
loop_
_geom_bond_atom_site_label_1
_geom_bond_atom_site_label_2
_geom_bond_site_symmetry_1
_geom_bond_site_symmetry_2
N1 C8 1_555 1_555
O1 H1 1_555 1_555
C1 H2 1_555 1_555
Cu1 O1 1_555 1_555
N2 H3 1_555 1_555
O2 Cu1 1_555 1_555
C2 C1 1_555 1_555
H4 C2 1_555 1_555
O3 C13 1_555 1_555
C3 H5 1_555 1_555
O4 C6 1_555 1_555
C4 C3 1_555 1_555
H6 C4 1_555 1_555
O5 C6 1_555 1_555
C5 C1 1_555 1_555
H7 C5 1_555 1_555
O6 C10 1_555 1_555
C6 C9 1_555 1_555
C7 C5 1_555 1_555
H8 C7 1_555 1_555
C8 H9 1_555 1_555
C9 C7 1_555 1_555
C10 N2 1_555 1_555
C11 H10 1_555 1_555
C12 C2 1_555 1_555
C13 O2 1_555 1_555
C14 C8 1_555 1_555
C15 N2 1_555 1_555
C16 N1 1_555 1_555
H11 C16 1_555 1_555
C17 C11 1_555 1_555
H12 C17 1_555 1_555
Cu2 N1 1_555 1_555
N1A C8A 1_555 1_555
N2A H3A 1_555 1_555
C3A H5A 1_555 1_555
C4A C15 1_555 1_555
H6A C4A 1_555 1_555
O6A C10A 1_555 1_555
C8A H9A 1_555 1_555
C10A N2A 1_555 1_555
C11A H10A 1_555 1_555
C14A C8A 1_555 1_555
C15A C4 1_555 1_555
C16A N1A 1_555 1_555
H11A C16A 1_555 1_555
C17A C11A 1_555 1_555
H12A C17A 1_555 1_555
O1A H1A 1_555 1_555
C1A H2A 1_555 1_555
O2A C13A 1_555 1_555
C2A C1A 1_555 1_555
H4A C2A 1_555 1_555
O3A C13A 1_555 1_555
O4A C6A 1_555 1_555
O5A C6A 1_555 1_555
C5A C1A 1_555 1_555
H7A C5A 1_555 1_555
C6A C9A 1_555 1_555
C7A C5A 1_555 1_555
H8A C7A 1_555 1_555
C9A C7A 1_555 1_555
C12A C2A 1_555 1_555
C13A C12A 1_555 1_555
Cu2A N1A 1_555 1_555
O1A_2 Cu1 1_555 1_555
Cu1_2 O1A 1_555 1_555
O2A_2 Cu1 1_555 1_555
O4_2 Cu2A 1_555 1_555
O4A_2 Cu2 1_555 1_555
O6_2 Cu2A 1_555 1_555
O6A_2 Cu2 1_555 1_555
Cu2_2 O4A 1_555 1_555
Cu2_3 O6A 1_555 1_555
Cu2A_2 O6 1_555 1_555
Cu2A_3 O4 1_555 1_555
O1 Cu2 1_555 1_555
O3 Cu2 1_555 1_555
C3 C15 1_555 1_555
C9 C12 1_555 1_555
C10 C14 1_555 1_555
C11 C14 1_555 1_555
C12 C13 1_555 1_555
C16 C17 1_555 1_555
N2A C15A 1_555 1_555
C3A C4A 1_555 1_555
C3A C15A 1_555 1_555
C10A C14A 1_555 1_555
C11A C14A 1_555 1_555
C16A C17A 1_555 1_555
O1A Cu2A 1_555 1_555
O2A Cu1_2 1_555 1_555
O3A Cu2A 1_555 1_555
C9A C12A 1_555 1_555

#END
