
#######################################################################
#
#                 Cambridge Crystallographic Data Centre
#                                CCDC 
#
#######################################################################
#
# If this CIF has been generated from an entry in the Cambridge 
# Structural Database, then it will include bibliographic, chemical, 
# crystal, experimental, refinement or atomic coordinate data resulting 
# from the CCDC's data processing and validation procedures.
#
#######################################################################

data_NIBYAA
_symmetry_cell_setting           triclinic
_symmetry_space_group_name_H-M   'P -1'
_symmetry_Int_Tables_number      2
_space_group_name_Hall           '-P 1'
loop_
_symmetry_equiv_pos_site_id
_symmetry_equiv_pos_as_xyz
1 x,y,z
2 -x,-y,-z
_cell_length_a                   7.0862(5)
_cell_length_b                   9.8582(7)
_cell_length_c                   12.1267(8)
_cell_angle_alpha                71.132(4)
_cell_angle_beta                 83.785(4)
_cell_angle_gamma                86.867(4)
_cell_volume                     796.732
loop_
_atom_site_label
_atom_site_type_symbol
_atom_site_fract_x
_atom_site_fract_y
_atom_site_fract_z
Cu1 Cu 0.41371(16) 0.65390(12) 0.24169(11)
Bi1 Bi 0.30085(5) 0.17903(4) 0.36272(3)
Bi2 Bi 0.31709(5) 0.09505(4) 0.05737(3)
Bi3 Bi 0.71226(5) 0.00808(4) 0.23213(3)
C1 C -0.0483(13) 0.2623(10) 0.1917(8)
C2 C 0.0186(13) 0.4053(10) 0.1804(9)
C3 C -0.0618(14) 0.5406(10) 0.1399(8)
H1 H -0.1740 0.5686 0.1046
C4 C 0.0714(13) 0.6265(10) 0.1660(9)
C5 C 0.0793(13) 0.7776(10) 0.1527(9)
C6 C 0.7176(14) 0.1388(11) 0.4757(9)
C7 C 0.6923(13) 0.2942(11) 0.4345(9)
C8 C 0.7819(14) 0.4052(10) 0.4604(9)
H2 H 0.8782 0.3981 0.5085
C9 C 0.6866(12) 0.5273(10) 0.3943(8)
C10 C 0.7023(13) 0.6812(12) 0.3778(8)
N1 N 0.1846(11) 0.4072(8) 0.2294(8)
N2 N 0.2112(11) 0.5451(8) 0.2152(7)
N3 N 0.5590(10) 0.3516(8) 0.3582(7)
N4 N 0.5570(11) 0.4914(8) 0.3377(7)
O1 O 0.0372(9) 0.1533(7) 0.2564(6)
O2 O -0.1836(9) 0.2495(8) 0.1359(6)
O3 O -0.0531(9) 0.8657(7) 0.1135(6)
O4 O 0.2301(9) 0.8170(7) 0.1835(6)
O5 O 0.6313(10) 0.0713(7) 0.4222(6)
O6 O 0.8155(11) 0.0797(7) 0.5570(7)
O7 O 0.8053(11) 0.7315(8) 0.4279(7)
O8 O 0.5809(9) 0.7608(7) 0.3051(6)
O9 O 0.4396(9) 0.1166(7) 0.2275(6)
O10 O 0.6001(9) 0.0056(7) 0.0779(5)
O11 O 0.5568(11) 0.7073(8) 0.0532(7)
H3 H 0.506(19) 0.758(16) -0.004(13)
Bi1A Bi 0.69915(5) -0.17903(4) 0.63728(3)
Bi2_2 Bi 0.31709(5) 1.09505(4) 0.05737(3)
Bi2A Bi -0.31709(5) 0.90495(4) -0.05737(3)
Bi2A_2 Bi 0.68291(5) -0.09505(4) -0.05737(3)
Bi2A_3 Bi 0.68291(5) 0.90495(4) -0.05737(3)
Bi3_2 Bi -0.28774(5) 0.00808(4) 0.23213(3)
Bi3_3 Bi -0.28774(5) 1.00808(4) 0.23213(3)
Bi3_4 Bi 0.71226(5) 1.00808(4) 0.23213(3)
O1_2 O 1.0372(9) 0.1533(7) 0.2564(6)
O2_2 O 0.8164(9) 0.2495(8) 0.1359(6)
O3_2 O 0.9469(9) -0.1343(7) 0.1135(6)
O3A O 0.0531(9) 0.1343(7) -0.1135(6)
O4_2 O 0.2301(9) -0.1830(7) 0.1835(6)
O6A O 0.1845(11) -0.0797(7) 0.4430(7)
O8_2 O 0.5809(9) -0.2392(7) 0.3051(6)
O10A O 0.3999(9) -0.0056(7) -0.0779(5)
O11A O 0.4432(11) 0.2927(8) -0.0532(7)
loop_
_geom_bond_atom_site_label_1
_geom_bond_atom_site_label_2
_geom_bond_site_symmetry_1
_geom_bond_site_symmetry_2
Cu1 N2 1_555 1_555
Bi1 N1 1_555 1_555
Bi2 O9 1_555 1_555
Bi3 O5 1_555 1_555
C1 C2 1_555 1_555
C2 C3 1_555 1_555
C3 H1 1_555 1_555
C4 C3 1_555 1_555
C5 C4 1_555 1_555
C6 C7 1_555 1_555
C7 C8 1_555 1_555
C8 H2 1_555 1_555
C9 C8 1_555 1_555
C10 C9 1_555 1_555
N1 C2 1_555 1_555
N2 C4 1_555 1_555
N3 Bi1 1_555 1_555
N4 Cu1 1_555 1_555
O1 Bi1 1_555 1_555
O2 C1 1_555 1_555
O3 C5 1_555 1_555
O4 Cu1 1_555 1_555
O5 Bi1 1_555 1_555
O6 C6 1_555 1_555
O7 C10 1_555 1_555
O8 Cu1 1_555 1_555
O9 Bi1 1_555 1_555
O10 Bi2 1_555 1_555
O11 Cu1 1_555 1_555
H3 O11 1_555 1_555
Bi1A O6 1_555 1_555
Bi2_2 O4 1_555 1_555
Bi2A O3 1_555 1_555
Bi2A_2 O10 1_555 1_555
Bi2A_3 O11 1_555 1_555
Bi3_2 O1 1_555 1_555
Bi3_3 O3 1_555 1_555
Bi3_4 O8 1_555 1_555
O1_2 Bi3 1_555 1_555
O2_2 Bi3 1_555 1_555
O3_2 Bi3 1_555 1_555
O3A Bi2 1_555 1_555
O4_2 Bi2 1_555 1_555
O6A Bi1 1_555 1_555
O8_2 Bi3 1_555 1_555
O10A Bi2 1_555 1_555
O11A Bi2 1_555 1_555
Bi3 O9 1_555 1_555
Bi3 O10 1_555 1_555
C1 O1 1_555 1_555
C5 O4 1_555 1_555
C6 O5 1_555 1_555
C7 N3 1_555 1_555
C9 N4 1_555 1_555
C10 O8 1_555 1_555
N1 N2 1_555 1_555
N3 N4 1_555 1_555
O2 Bi3_2 1_555 1_555
Bi2A_2 O3_2 1_555 1_555
Bi2A_2 O10A 1_555 1_555

#END
