
#######################################################################
#
#                 Cambridge Crystallographic Data Centre
#                                CCDC 
#
#######################################################################
#
# If this CIF has been generated from an entry in the Cambridge 
# Structural Database, then it will include bibliographic, chemical, 
# crystal, experimental, refinement or atomic coordinate data resulting 
# from the CCDC's data processing and validation procedures.
#
#######################################################################

data_NICBAD
_symmetry_cell_setting           orthorhombic
_symmetry_space_group_name_H-M   'P 21 21 21'
_symmetry_Int_Tables_number      19
_space_group_name_Hall           'P 2ac 2ab'
loop_
_symmetry_equiv_pos_site_id
_symmetry_equiv_pos_as_xyz
1 x,y,z
2 1/2+x,1/2-y,-z
3 -x,1/2+y,1/2-z
4 1/2-x,-y,1/2+z
_cell_length_a                   13.2328(18)
_cell_length_b                   13.365(2)
_cell_length_c                   12.723(2)
_cell_angle_alpha                90
_cell_angle_beta                 90
_cell_angle_gamma                90
_cell_volume                     2250.14
loop_
_atom_site_label
_atom_site_type_symbol
_atom_site_fract_x
_atom_site_fract_y
_atom_site_fract_z
Cd1 Cd 0.30703(5) -0.14274(5) 0.25147(6)
Co1 Co 0.21936(9) 0.15541(9) 0.29982(9)
S1 S 0.24748(19) 0.0027(2) 0.3726(2)
S2 S 0.3559(6) -0.4764(4) 0.3815(6)
S3 S 0.6334(3) -0.1443(4) 0.4464(3)
S4 S -0.0318(2) -0.0902(2) 0.0846(3)
O1 O 0.1510(6) 0.0242(6) 0.6136(6)
O2 O 0.1240(5) 0.1847(6) 0.5834(5)
N1 N 0.2879(6) 0.2200(6) 0.4196(6)
H1 H 0.2522 0.2738 0.4406
H2 H 0.2915 0.1769 0.4739
N2 N 0.3553(5) 0.1539(6) 0.2346(6)
H3 H 0.3663 0.0947 0.2030
H4 H 0.3599 0.2025 0.1858
N3 N 0.1830(7) 0.2867(5) 0.2342(6)
H5 H 0.1517 0.3257 0.2818
H6 H 0.2394 0.3183 0.2128
N4 N 0.1588(6) 0.0989(6) 0.1721(6)
H7 H 0.1980 0.0491 0.1477
H8 H 0.0977 0.0732 0.1874
N5 N 0.0881(5) 0.1541(6) 0.3766(5)
H9 H 0.0824 0.2120 0.4121
H10 H 0.0380 0.1526 0.3287
N6 N 0.2950(9) -0.2913(8) 0.3290(9)
N7 N 0.4694(7) -0.1150(8) 0.3172(8)
N8 N 0.1509(8) -0.1572(9) 0.1674(9)
C1 C 0.3901(8) 0.2510(8) 0.3889(9)
H11 H 0.4326 0.2584 0.4505
H12 H 0.3878 0.3146 0.3521
C2 C 0.4312(7) 0.1704(8) 0.3178(8)
H13 H 0.4950 0.1914 0.2873
H14 H 0.4423 0.1092 0.3572
C3 C 0.1161(9) 0.2694(8) 0.1443(9)
H15 H 0.1198 0.3257 0.0962
H16 H 0.0468 0.2629 0.1682
C4 C 0.1481(9) 0.1771(8) 0.0904(8)
H17 H 0.2120 0.1876 0.0546
H18 H 0.0979 0.1573 0.0388
C5 C 0.1149(7) -0.0224(7) 0.4032(8)
H19 H 0.0782 -0.0393 0.3396
H20 H 0.1097 -0.0780 0.4518
C6 C 0.0718(8) 0.0706(8) 0.4517(8)
H21 H -0.0011 0.0611 0.4612
C7 C 0.1183(8) 0.0925(8) 0.5567(8)
C8 C 0.3259(10) -0.3640(10) 0.3504(10)
C9 C 0.5363(8) -0.1265(9) 0.3705(9)
C10 C 0.0731(8) -0.1308(8) 0.1350(8)
Cd1C Cd 0.19297(5) 0.14274(5) 0.75147(6)
O1C O 0.3490(6) -0.0242(6) 0.1136(6)
O2C O 0.3760(5) -0.1847(6) 0.0834(5)
O3 O 0.2483(10) 0.6049(9) 0.0736(11)
O4 O -0.0833(6) 0.1090(8) 0.2447(10)
loop_
_geom_bond_atom_site_label_1
_geom_bond_atom_site_label_2
_geom_bond_site_symmetry_1
_geom_bond_site_symmetry_2
Cd1 S1 1_555 1_555
Co1 S1 1_555 1_555
S1 C5 1_555 1_555
S2 C8 1_555 1_555
S3 C9 1_555 1_555
S4 C10 1_555 1_555
O1 C7 1_555 1_555
O2 C7 1_555 1_555
N1 Co1 1_555 1_555
H1 N1 1_555 1_555
H2 N1 1_555 1_555
N2 Co1 1_555 1_555
H3 N2 1_555 1_555
H4 N2 1_555 1_555
N3 Co1 1_555 1_555
H5 N3 1_555 1_555
H6 N3 1_555 1_555
N4 Co1 1_555 1_555
H7 N4 1_555 1_555
H8 N4 1_555 1_555
N5 Co1 1_555 1_555
H9 N5 1_555 1_555
H10 N5 1_555 1_555
N6 Cd1 1_555 1_555
N7 Cd1 1_555 1_555
N8 Cd1 1_555 1_555
C1 N1 1_555 1_555
H11 C1 1_555 1_555
H12 C1 1_555 1_555
C2 N2 1_555 1_555
H13 C2 1_555 1_555
H14 C2 1_555 1_555
C3 N3 1_555 1_555
H15 C3 1_555 1_555
H16 C3 1_555 1_555
C4 N4 1_555 1_555
H17 C4 1_555 1_555
H18 C4 1_555 1_555
C5 H19 1_555 1_555
H20 C5 1_555 1_555
C6 N5 1_555 1_555
H21 C6 1_555 1_555
C7 C6 1_555 1_555
C8 N6 1_555 1_555
C9 N7 1_555 1_555
C10 N8 1_555 1_555
Cd1C O1 1_555 1_555
O1C Cd1 1_555 1_555
O2C Cd1 1_555 1_555
O2 Cd1C 1_555 1_555
C1 C2 1_555 1_555
C3 C4 1_555 1_555
C5 C6 1_555 1_555

#END
