
#######################################################################
#
#                 Cambridge Crystallographic Data Centre
#                                CCDC 
#
#######################################################################
#
# If this CIF has been generated from an entry in the Cambridge 
# Structural Database, then it will include bibliographic, chemical, 
# crystal, experimental, refinement or atomic coordinate data resulting 
# from the CCDC's data processing and validation procedures.
#
#######################################################################

data_NICCIN
_symmetry_cell_setting           triclinic
_symmetry_space_group_name_H-M   'P -1'
_symmetry_Int_Tables_number      2
_space_group_name_Hall           '-P 1'
loop_
_symmetry_equiv_pos_site_id
_symmetry_equiv_pos_as_xyz
1 x,y,z
2 -x,-y,-z
_cell_length_a                   7.4337(12)
_cell_length_b                   7.9155(12)
_cell_length_c                   9.8090(16)
_cell_angle_alpha                79.14(2)
_cell_angle_beta                 74.76(2)
_cell_angle_gamma                63.47(2)
_cell_volume                     496.551
loop_
_atom_site_label
_atom_site_type_symbol
_atom_site_fract_x
_atom_site_fract_y
_atom_site_fract_z
Zn1 Zn -0.89678(4) 1.14342(3) 0.43252(3)
O1 O -0.4559(2) 1.3309(2) 0.38638(18)
O2 O -1.1380(2) 1.3855(2) 0.41249(18)
H1 H -1.1328 1.4952 0.4186
H2 H -1.2526 1.3864 0.3971
O3 O -0.7496(2) 1.2986(2) 0.45993(17)
N1 N -0.6073(3) 0.9957(3) 0.3200(2)
C1 C -0.2884(4) 0.5802(3) 0.0989(2)
H3 H -0.3676 0.5097 0.1499
H4 H -0.1442 0.4972 0.0947
C2 C -0.3458(3) 0.7491(3) 0.1778(2)
C3 C -0.5454(3) 0.8408(3) 0.2523(2)
H5 H -0.6400 0.7927 0.2553
C4 C -0.2671(3) 0.9788(3) 0.2531(2)
C5 C -0.2069(3) 0.8220(3) 0.1778(2)
H6 H -0.0727 0.7661 0.1274
C6 C -0.5621(3) 1.2456(3) 0.3951(2)
C7 C -0.4713(3) 1.0646(3) 0.3209(2)
C8 C -0.3286(4) 0.6408(4) -0.0513(3)
H7 H -0.2948 0.5309 -0.0978
H8 H -0.2454 0.7053 -0.1033
H9 H -0.4710 0.7243 -0.0474
C9 C -0.1060(3) 1.0429(3) 0.2589(2)
O4 O -0.0426(2) 0.9965(2) 0.37974(17)
O5 O -0.0347(3) 1.1228(2) 0.15595(18)
Zn1_2 Zn 0.10322(4) 1.14342(3) 0.43252(3)
Zn1A Zn -0.10322(4) 0.85658(3) 0.56748(3)
O4_2 O -1.0426(2) 0.9965(2) 0.37974(17)
O4A O -0.9574(2) 1.0035(2) 0.62026(17)
loop_
_geom_bond_atom_site_label_1
_geom_bond_atom_site_label_2
_geom_bond_site_symmetry_1
_geom_bond_site_symmetry_2
Zn1 O2 1_555 1_555
O1 C6 1_555 1_555
O2 H1 1_555 1_555
H2 O2 1_555 1_555
O3 Zn1 1_555 1_555
N1 Zn1 1_555 1_555
C1 H3 1_555 1_555
H4 C1 1_555 1_555
C2 C1 1_555 1_555
C3 N1 1_555 1_555
H5 C3 1_555 1_555
C4 C5 1_555 1_555
C5 C2 1_555 1_555
H6 C5 1_555 1_555
C6 O3 1_555 1_555
C7 N1 1_555 1_555
C8 C1 1_555 1_555
H7 C8 1_555 1_555
H8 C8 1_555 1_555
H9 C8 1_555 1_555
C9 C4 1_555 1_555
O4 C9 1_555 1_555
O5 C9 1_555 1_555
Zn1_2 O4 1_555 1_555
Zn1A O4 1_555 1_555
O4_2 Zn1 1_555 1_555
O4A Zn1 1_555 1_555
C2 C3 1_555 1_555
C4 C7 1_555 1_555
C6 C7 1_555 1_555

#END
