
#######################################################################
#
#                 Cambridge Crystallographic Data Centre
#                                CCDC 
#
#######################################################################
#
# If this CIF has been generated from an entry in the Cambridge 
# Structural Database, then it will include bibliographic, chemical, 
# crystal, experimental, refinement or atomic coordinate data resulting 
# from the CCDC's data processing and validation procedures.
#
#######################################################################

data_NICFIO
_symmetry_cell_setting           orthorhombic
_symmetry_space_group_name_H-M   'C m c a'
_symmetry_Int_Tables_number      64
_space_group_name_Hall           '-C 2ac 2'
loop_
_symmetry_equiv_pos_site_id
_symmetry_equiv_pos_as_xyz
1 x,y,z
2 -x,1/2-y,1/2+z
3 x,-y,-z
4 -x,1/2+y,1/2-z
5 1/2+x,1/2+y,z
6 1/2-x,-y,1/2+z
7 1/2+x,1/2-y,-z
8 1/2-x,y,1/2-z
9 -x,-y,-z
10 x,1/2+y,1/2-z
11 -x,y,z
12 x,1/2-y,1/2+z
13 1/2-x,1/2-y,-z
14 1/2+x,y,1/2-z
15 1/2-x,1/2+y,z
16 1/2+x,-y,1/2+z
_cell_length_a                   9.477(2)
_cell_length_b                   16.284(2)
_cell_length_c                   8.487(2)
_cell_angle_alpha                90
_cell_angle_beta                 90
_cell_angle_gamma                90
_cell_volume                     1309.74
loop_
_atom_site_label
_atom_site_type_symbol
_atom_site_fract_x
_atom_site_fract_y
_atom_site_fract_z
Co1 Co 0.0000 0.00000 0.0000
N1 N 0.0000 0.0945(2) 0.1553(3)
C1 C 0.0000 0.1205(2) 0.2833(3)
S1 S 0.0000 0.15570(7) 0.4608(1)
N2 N 0.1664(2) -0.0645(1) 0.1455(2)
C2 C 0.2500 -0.0276(2) 0.2500
C3 C 0.1720(2) -0.1469(1) 0.1424(2)
C4 C 0.2500 -0.1908(2) 0.2500
H1 H 0.1196(2) -0.1761(1) 0.0634(2)
H2 H 0.2500 0.0313(2) 0.2500
H3 H 0.2500 -0.2498(2) 0.2500
N2G N 0.3336(2) -0.0645(1) 0.3545(2)
C3G C 0.3280(2) -0.1469(1) 0.3576(2)
H1G H 0.3804(2) -0.1761(1) 0.4366(2)
N1B N 0.0000 -0.0945(2) -0.1553(3)
C1B C 0.0000 -0.1205(2) -0.2833(3)
S1B S 0.0000 -0.15570(7) -0.4608(1)
N2B N 0.1664(2) 0.0645(1) -0.1455(2)
C2B C 0.2500 0.0276(2) -0.2500
C3B C 0.1720(2) 0.1469(1) -0.1424(2)
C4B C 0.2500 0.1908(2) -0.2500
H1B H 0.1196(2) 0.1761(1) -0.0634(2)
H2B H 0.2500 -0.0313(2) -0.2500
H3B H 0.2500 0.2498(2) -0.2500
N2E N 0.3336(2) 0.0645(1) -0.3545(2)
C3E C 0.3280(2) 0.1469(1) -0.3576(2)
H1E H 0.3804(2) 0.1761(1) -0.4366(2)
N2H N -0.1664(2) 0.0645(1) -0.1455(2)
N2J N -0.1664(2) -0.0645(1) 0.1455(2)
Co1E Co 0.5000 0.00000 0.5000
Co1E_2 Co 0.5000 0.00000 -0.5000
C2H C -0.2500 0.0276(2) -0.2500
C3H C -0.1720(2) 0.1469(1) -0.1424(2)
C2J C -0.2500 -0.0276(2) 0.2500
C3J C -0.1720(2) -0.1469(1) 0.1424(2)
N1E N 0.5000 -0.0945(2) 0.6553(3)
N1G N 0.5000 0.0945(2) 0.3447(3)
N2E_2 N 0.3336(2) 0.0645(1) 0.6455(2)
N2M N 0.6664(2) -0.0645(1) 0.3545(2)
N2O N 0.6664(2) 0.0645(1) 0.6455(2)
N1E_2 N 0.5000 -0.0945(2) -0.3447(3)
N1G_2 N 0.5000 0.0945(2) -0.6553(3)
N2G_2 N 0.3336(2) -0.0645(1) -0.6455(2)
N2M_2 N 0.6664(2) -0.0645(1) -0.6455(2)
N2O_2 N 0.6664(2) 0.0645(1) -0.3545(2)
N2O_3 N -0.3336(2) 0.0645(1) -0.3545(2)
H2H H -0.2500 -0.0313(2) -0.2500
C4H C -0.2500 0.1908(2) -0.2500
H1H H -0.1196(2) 0.1761(1) -0.0634(2)
N2M_3 N -0.3336(2) -0.0645(1) 0.3545(2)
H2J H -0.2500 0.0313(2) 0.2500
C4J C -0.2500 -0.1908(2) 0.2500
H1J H -0.1196(2) -0.1761(1) 0.0634(2)
C1E C 0.5000 -0.1205(2) 0.7833(3)
C1G C 0.5000 0.1205(2) 0.2167(3)
C2J_2 C 0.7500 -0.0276(2) 0.2500
C3M C 0.6720(2) -0.1469(1) 0.3576(2)
C1E_2 C 0.5000 -0.1205(2) -0.2167(3)
C1G_2 C 0.5000 0.1205(2) -0.7833(3)
C2H_2 C 0.7500 0.0276(2) -0.2500
C3O C 0.6720(2) 0.1469(1) -0.3576(2)
Co1E_3 Co -0.5000 0.00000 -0.5000
C3O_2 C -0.3280(2) 0.1469(1) -0.3576(2)
H3H H -0.2500 0.2498(2) -0.2500
Co1E_4 Co -0.5000 0.00000 0.5000
C3M_2 C -0.3280(2) -0.1469(1) 0.3576(2)
H3J H -0.2500 -0.2498(2) 0.2500
S1E S 0.5000 -0.15570(7) 0.9608(1)
S1G S 0.5000 0.15570(7) 0.0392(1)
N2J_2 N 0.8336(2) -0.0645(1) 0.1455(2)
H2J_2 H 0.7500 0.0313(2) 0.2500
C4J_2 C 0.7500 -0.1908(2) 0.2500
H1M H 0.6196(2) -0.1761(1) 0.4366(2)
S1E_2 S 0.5000 -0.15570(7) -0.0392(1)
S1G_2 S 0.5000 0.15570(7) -0.9608(1)
N2H_2 N 0.8336(2) 0.0645(1) -0.1455(2)
H2H_2 H 0.7500 -0.0313(2) -0.2500
C4H_2 C 0.7500 0.1908(2) -0.2500
H1O H 0.6196(2) 0.1761(1) -0.4366(2)
H1O_2 H -0.3804(2) 0.1761(1) -0.4366(2)
H1M_2 H -0.3804(2) -0.1761(1) 0.4366(2)
Co1_2 Co 1.0000 0.00000 0.0000
C3J_2 C 0.8280(2) -0.1469(1) 0.1424(2)
H3J_2 H 0.7500 -0.2498(2) 0.2500
C3H_2 C 0.8280(2) 0.1469(1) -0.1424(2)
H3H_2 H 0.7500 0.2498(2) -0.2500
H1J_2 H 0.8804(2) -0.1761(1) 0.0634(2)
H1H_2 H 0.8804(2) 0.1761(1) -0.0634(2)
N1_2 N 1.0000 0.0945(2) 0.1553(3)
N1B_2 N 1.0000 -0.0945(2) -0.1553(3)
N2_2 N 1.1664(2) -0.0645(1) 0.1455(2)
N2B_2 N 1.1664(2) 0.0645(1) -0.1455(2)
C1_2 C 1.0000 0.1205(2) 0.2833(3)
C1B_2 C 1.0000 -0.1205(2) -0.2833(3)
C2_2 C 1.2500 -0.0276(2) 0.2500
C3_2 C 1.1720(2) -0.1469(1) 0.1424(2)
C2B_2 C 1.2500 0.0276(2) -0.2500
C3B_2 C 1.1720(2) 0.1469(1) -0.1424(2)
S1_2 S 1.0000 0.15570(7) 0.4608(1)
S1B_2 S 1.0000 -0.15570(7) -0.4608(1)
N2G_3 N 1.3336(2) -0.0645(1) 0.3545(2)
H2_2 H 1.2500 0.0313(2) 0.2500
C4_2 C 1.2500 -0.1908(2) 0.2500
H1_2 H 1.1196(2) -0.1761(1) 0.0634(2)
N2E_3 N 1.3336(2) 0.0645(1) -0.3545(2)
H2B_2 H 1.2500 -0.0313(2) -0.2500
C4B_2 C 1.2500 0.1908(2) -0.2500
H1B_2 H 1.1196(2) 0.1761(1) -0.0634(2)
Co1E_5 Co 1.5000 0.00000 0.5000
C3G_2 C 1.3280(2) -0.1469(1) 0.3576(2)
H3_2 H 1.2500 -0.2498(2) 0.2500
Co1E_6 Co 1.5000 0.00000 -0.5000
C3E_2 C 1.3280(2) 0.1469(1) -0.3576(2)
H3B_2 H 1.2500 0.2498(2) -0.2500
H1G_2 H 1.3804(2) -0.1761(1) 0.4366(2)
H1E_2 H 1.3804(2) 0.1761(1) -0.4366(2)
loop_
_geom_bond_atom_site_label_1
_geom_bond_atom_site_label_2
_geom_bond_site_symmetry_1
_geom_bond_site_symmetry_2
Co1 N1 1_555 1_555
N1 C1 1_555 1_555
C1 S1 1_555 1_555
N2 Co1 1_555 1_555
C2 N2 1_555 1_555
C3 N2 1_555 1_555
C4 C3 1_555 1_555
H1 C3 1_555 1_555
H2 C2 1_555 1_555
H3 C4 1_555 1_555
N2G C2 1_555 1_555
C3G C4 1_555 1_555
H1G C3G 1_555 1_555
N1B Co1 1_555 1_555
C1B N1B 1_555 1_555
S1B C1B 1_555 1_555
N2B Co1 1_555 1_555
C2B N2B 1_555 1_555
C3B N2B 1_555 1_555
C4B C3B 1_555 1_555
H1B C3B 1_555 1_555
H2B C2B 1_555 1_555
H3B C4B 1_555 1_555
N2E C2B 1_555 1_555
C3E C4B 1_555 1_555
H1E C3E 1_555 1_555
N2H Co1 1_555 1_555
N2J Co1 1_555 1_555
Co1E N2G 1_555 1_555
Co1E_2 N2E 1_555 1_555
C2H N2H 1_555 1_555
C3H N2H 1_555 1_555
C2J N2J 1_555 1_555
C3J N2J 1_555 1_555
N1E Co1E 1_555 1_555
N1G Co1E 1_555 1_555
N2E_2 Co1E 1_555 1_555
N2M Co1E 1_555 1_555
N2O Co1E 1_555 1_555
N1E_2 Co1E_2 1_555 1_555
N1G_2 Co1E_2 1_555 1_555
N2G_2 Co1E_2 1_555 1_555
N2M_2 Co1E_2 1_555 1_555
N2O_2 Co1E_2 1_555 1_555
N2O_3 C2H 1_555 1_555
H2H C2H 1_555 1_555
C4H C3H 1_555 1_555
H1H C3H 1_555 1_555
N2M_3 C2J 1_555 1_555
H2J C2J 1_555 1_555
C4J C3J 1_555 1_555
H1J C3J 1_555 1_555
C1E N1E 1_555 1_555
C1G N1G 1_555 1_555
C2J_2 N2M 1_555 1_555
C3M N2M 1_555 1_555
C1E_2 N1E_2 1_555 1_555
C1G_2 N1G_2 1_555 1_555
C2H_2 N2O_2 1_555 1_555
C3O N2O_2 1_555 1_555
Co1E_3 N2O_3 1_555 1_555
C3O_2 N2O_3 1_555 1_555
H3H C4H 1_555 1_555
Co1E_4 N2M_3 1_555 1_555
C3M_2 N2M_3 1_555 1_555
H3J C4J 1_555 1_555
S1E C1E 1_555 1_555
S1G C1G 1_555 1_555
N2J_2 C2J_2 1_555 1_555
H2J_2 C2J_2 1_555 1_555
C4J_2 C3M 1_555 1_555
H1M C3M 1_555 1_555
S1E_2 C1E_2 1_555 1_555
S1G_2 C1G_2 1_555 1_555
N2H_2 C2H_2 1_555 1_555
H2H_2 C2H_2 1_555 1_555
C4H_2 C3O 1_555 1_555
H1O C3O 1_555 1_555
H1O_2 C3O_2 1_555 1_555
H1M_2 C3M_2 1_555 1_555
Co1_2 N2J_2 1_555 1_555
C3J_2 N2J_2 1_555 1_555
H3J_2 C4J_2 1_555 1_555
C3H_2 N2H_2 1_555 1_555
H3H_2 C4H_2 1_555 1_555
H1J_2 C3J_2 1_555 1_555
H1H_2 C3H_2 1_555 1_555
N1_2 Co1_2 1_555 1_555
N1B_2 Co1_2 1_555 1_555
N2_2 Co1_2 1_555 1_555
N2B_2 Co1_2 1_555 1_555
C1_2 N1_2 1_555 1_555
C1B_2 N1B_2 1_555 1_555
C2_2 N2_2 1_555 1_555
C3_2 N2_2 1_555 1_555
C2B_2 N2B_2 1_555 1_555
C3B_2 N2B_2 1_555 1_555
S1_2 C1_2 1_555 1_555
S1B_2 C1B_2 1_555 1_555
N2G_3 C2_2 1_555 1_555
H2_2 C2_2 1_555 1_555
C4_2 C3_2 1_555 1_555
H1_2 C3_2 1_555 1_555
N2E_3 C2B_2 1_555 1_555
H2B_2 C2B_2 1_555 1_555
C4B_2 C3B_2 1_555 1_555
H1B_2 C3B_2 1_555 1_555
Co1E_5 N2G_3 1_555 1_555
C3G_2 N2G_3 1_555 1_555
H3_2 C4_2 1_555 1_555
Co1E_6 N2E_3 1_555 1_555
C3E_2 N2E_3 1_555 1_555
H3B_2 C4B_2 1_555 1_555
H1G_2 C3G_2 1_555 1_555
H1E_2 C3E_2 1_555 1_555
N2G C3G 1_555 1_555
N2E C3E 1_555 1_555
C4H C3O_2 1_555 1_555
C4J C3M_2 1_555 1_555
C4J_2 C3J_2 1_555 1_555
N2H_2 Co1_2 1_555 1_555
C4H_2 C3H_2 1_555 1_555
C4_2 C3G_2 1_555 1_555
C4B_2 C3E_2 1_555 1_555

#END
