
#######################################################################
#
#                 Cambridge Crystallographic Data Centre
#                                CCDC 
#
#######################################################################
#
# If this CIF has been generated from an entry in the Cambridge 
# Structural Database, then it will include bibliographic, chemical, 
# crystal, experimental, refinement or atomic coordinate data resulting 
# from the CCDC's data processing and validation procedures.
#
#######################################################################

data_NICHOC10
_symmetry_cell_setting           monoclinic
_symmetry_space_group_name_H-M   'P 21/c'
_symmetry_Int_Tables_number      14
_space_group_name_Hall           '-P 2ybc'
loop_
_symmetry_equiv_pos_site_id
_symmetry_equiv_pos_as_xyz
1 x,y,z
2 -x,1/2+y,1/2-z
3 -x,-y,-z
4 x,1/2-y,1/2+z
_cell_length_a                   9.578(5)
_cell_length_b                   25.954(13)
_cell_length_c                   15.784(7)
_cell_angle_alpha                90
_cell_angle_beta                 108.48(2)
_cell_angle_gamma                90
_cell_volume                     3721.38
loop_
_atom_site_label
_atom_site_type_symbol
_atom_site_fract_x
_atom_site_fract_y
_atom_site_fract_z
Cr1 Cr -0.61090 0.65070 0.33700
C1 C -0.87300 0.67480 0.16500
C5 C -0.35100 0.64020 0.51600
C9 C -0.75900 0.54520 0.32700
C13 C -0.34300 0.62760 0.27600
C17 C -0.54200 0.76800 0.32100
C21 C -0.80800 0.67200 0.45800
N1 N -0.77300 0.66220 0.22290
N5 N -0.45200 0.64170 0.45210
N6 N -0.67600 0.57700 0.33450
N7 N -0.46400 0.63310 0.27430
N8 N -0.55900 0.72500 0.33390
N9 N -0.74700 0.66840 0.40860
S1 S -1.00970 0.69180 0.08140
S2 S -0.20910 0.64060 0.60560
S3 S -0.86560 0.49490 0.31640
S4 S -0.17280 0.62460 0.27820
S5 S -0.51490 0.82800 0.29990
S6 S -0.88900 0.67940 0.53220
C2 C -0.61600 -0.02650 0.23640
C3 C -0.48500 0.15340 0.45910
C4 C -0.03000 -0.11960 0.36500
C6 C -0.75600 -0.02600 0.17480
C7 C -0.61200 0.18500 0.43700
C8 C -0.12000 -0.15840 0.36460
C10 C -0.65700 -0.05420 0.06100
C11 C -0.60600 0.23660 0.41100
C12 C 0.01300 -0.21350 0.29700
C14 C -0.51900 -0.05390 0.12200
C15 C -0.47300 0.25660 0.40900
C16 C 0.10000 -0.17180 0.29100
C18 C -0.49800 -0.03920 0.21060
C19 C -0.35300 0.17540 0.45710
C20 C 0.08300 -0.12470 0.32600
C22 C -0.59900 -0.01310 0.33020
C23 C -0.48900 0.09840 0.48150
C24 C -0.05000 -0.06980 0.40850
Ho1 Ho -0.26520 -0.00560 0.50510
N2 N -0.77400 -0.04090 0.08850
N3 N -0.35300 0.22560 0.43160
N4 N -0.09600 -0.20700 0.33240
O1 O -0.46930 -0.00740 0.38330
O3 O -0.71460 -0.00670 0.35210
O4 O -0.36970 0.07460 0.50480
O5 O -0.61420 0.07940 0.47540
O6 O -0.17030 -0.06430 0.42650
O7 O 0.05220 -0.03730 0.42760
O8 O -0.08560 -0.06230 0.61680
O9 O -0.20990 0.04570 0.38820
O5B O -0.38580 -0.07940 0.52460
O7B O -0.05220 0.03730 0.57240
O3B O -0.28540 0.00670 0.64790
Ho1B Ho -0.73480 0.00560 0.49490
Ho1B_2 Ho 0.26520 0.00560 0.49490
O2 O -1.06100 -0.05980 -0.01990
O10 O -0.78100 0.27180 0.58190
loop_
_geom_bond_atom_site_label_1
_geom_bond_atom_site_label_2
_geom_bond_site_symmetry_1
_geom_bond_site_symmetry_2
Cr1 N1 1_555 1_555
C1 N1 1_555 1_555
C2 C6 1_555 1_555
C3 C7 1_555 1_555
C4 C8 1_555 1_555
C5 N5 1_555 1_555
C6 N2 1_555 1_555
C7 C11 1_555 1_555
C8 N4 1_555 1_555
C9 N6 1_555 1_555
C10 C14 1_555 1_555
C11 C15 1_555 1_555
C12 C16 1_555 1_555
C13 N7 1_555 1_555
C14 C18 1_555 1_555
C15 N3 1_555 1_555
C16 C20 1_555 1_555
C17 N8 1_555 1_555
C18 C2 1_555 1_555
C19 C3 1_555 1_555
C20 C4 1_555 1_555
C21 N9 1_555 1_555
C22 C2 1_555 1_555
C23 C3 1_555 1_555
C24 C4 1_555 1_555
Ho1 O1 1_555 1_555
N2 C10 1_555 1_555
N3 C19 1_555 1_555
N4 C12 1_555 1_555
N5 Cr1 1_555 1_555
N6 Cr1 1_555 1_555
N7 Cr1 1_555 1_555
N8 Cr1 1_555 1_555
N9 Cr1 1_555 1_555
O1 C22 1_555 1_555
O3 C22 1_555 1_555
O4 C23 1_555 1_555
O5 C23 1_555 1_555
O6 C24 1_555 1_555
O7 C24 1_555 1_555
O8 Ho1 1_555 1_555
O9 Ho1 1_555 1_555
S1 C1 1_555 1_555
S2 C5 1_555 1_555
S3 C9 1_555 1_555
S4 C13 1_555 1_555
S5 C17 1_555 1_555
S6 C21 1_555 1_555
O5B Ho1 1_555 1_555
O7B Ho1 1_555 1_555
O3B Ho1 1_555 1_555
Ho1B O3 1_555 1_555
Ho1B_2 O7 1_555 1_555
Ho1 O4 1_555 1_555
Ho1 O6 1_555 1_555
O5 Ho1B 1_555 1_555

#END
