
#######################################################################
#
#                 Cambridge Crystallographic Data Centre
#                                CCDC 
#
#######################################################################
#
# If this CIF has been generated from an entry in the Cambridge 
# Structural Database, then it will include bibliographic, chemical, 
# crystal, experimental, refinement or atomic coordinate data resulting 
# from the CCDC's data processing and validation procedures.
#
#######################################################################

data_NICJOY
_symmetry_cell_setting           monoclinic
_symmetry_space_group_name_H-M   'C 2/c'
_symmetry_Int_Tables_number      15
_space_group_name_Hall           '-C 2yn'
loop_
_symmetry_equiv_pos_site_id
_symmetry_equiv_pos_as_xyz
1 x,y,z
2 1/2+x,1/2+y,z
3 -x,y,1/2-z
4 1/2-x,1/2+y,1/2-z
5 -x,-y,-z
6 1/2-x,1/2-y,-z
7 x,-y,1/2+z
8 1/2+x,1/2-y,1/2+z
_cell_length_a                   28.063(6)
_cell_length_b                   18.737(4)
_cell_length_c                   19.028(4)
_cell_angle_alpha                90
_cell_angle_beta                 118.65(3)
_cell_angle_gamma                90
_cell_volume                     8780.24
loop_
_atom_site_label
_atom_site_type_symbol
_atom_site_fract_x
_atom_site_fract_y
_atom_site_fract_z
Zn1 Zn 0.70744(6) 0.37683(7) 0.93522(8)
N1 N 0.6487(4) 0.3032(4) 0.8948(5)
N2 N 0.7550(4) 0.3077(5) 0.9124(5)
N3 N 0.7745(4) 0.4381(5) 1.0025(5)
N4 N 0.6675(4) 0.4307(5) 0.9839(5)
C1 C 0.7852(5) 0.2111(6) 0.8709(7)
C2 C 0.7394(5) 0.2445(6) 0.8725(6)
C3 C 0.6858(5) 0.2196(6) 0.8354(6)
C4 C 0.6445(5) 0.2461(6) 0.8465(7)
C5 C 0.5902(6) 0.2174(7) 0.8087(8)
H1 H 0.5766 0.1788 0.7710
C6 C 0.5622(5) 0.2559(7) 0.8373(8)
H2 H 0.5250 0.2488 0.8244
C7 C 0.5983(5) 0.3092(6) 0.8904(7)
C8 C 0.5836(5) 0.3602(7) 0.9283(7)
C9 C 0.6169(5) 0.4167(7) 0.9742(7)
C10 C 0.5996(6) 0.4719(7) 1.0113(7)
H3 H 0.5661 0.4741 1.0131
C11 C 0.6410(6) 0.5188(7) 1.0420(8)
H4 H 0.6424 0.5615 1.0709
C12 C 0.6829(6) 0.4941(7) 1.0246(7)
C13 C 0.7312(6) 0.5303(6) 1.0435(7)
C14 C 0.7725(5) 0.5043(6) 1.0330(7)
C15 C 0.8215(6) 0.5417(6) 1.0497(7)
H5 H 0.8304 0.5894 1.0702
C16 C 0.8524(5) 0.5004(6) 1.0328(7)
H6 H 0.8876 0.5115 1.0389
C17 C 0.8226(5) 0.4346(6) 1.0026(6)
C18 C 0.8405(4) 0.3762(6) 0.9732(6)
C19 C 0.8098(5) 0.3157(6) 0.9354(6)
C20 C 0.8288(5) 0.2559(6) 0.9100(7)
H7 H 0.8649 0.2484 0.9182
C21 C 0.7878(5) 0.1440(6) 0.8350(7)
H8 H 0.7652 0.1054 0.8346
C22 C 0.8199(5) 0.1327(6) 0.8031(7)
H9 H 0.8451 0.1697 0.8087
C23 C 0.8195(5) 0.0678(6) 0.7596(7)
C24 C 0.7888(5) 0.0081(7) 0.7523(8)
H10 H 0.7686 0.0061 0.7811
C25 C 0.7864(5) -0.0493(7) 0.7048(7)
H11 H 0.7635 -0.0891 0.7002
N5 N 0.6855(4) 0.4487(5) 0.8342(6)
C26 C 0.8467(6) 0.0045(8) 0.6740(8)
H12 H 0.8690 0.0026 0.6484
C27 C 0.8501(6) 0.0666(7) 0.7206(8)
H13 H 0.8728 0.1063 0.7241
C28 C 0.6705(5) 0.1610(6) 0.7749(7)
C29 C 0.6687(5) 0.1739(6) 0.7035(7)
H14 H 0.6771 0.2206 0.6921
C30 C 0.6547(5) 0.1202(8) 0.6468(8)
H15 H 0.6544 0.1304 0.5971
C31 C 0.6414(6) 0.0558(8) 0.6589(9)
H16 H 0.6337 0.0189 0.6199
C32 C 0.6396(5) 0.0408(7) 0.7284(10)
H17 H 0.6271 -0.0048 0.7359
C33 C 0.6551(5) 0.0940(7) 0.7878(7)
H18 H 0.6553 0.0836 0.8374
C34 C 0.5265(5) 0.3547(7) 0.9152(8)
C35 C 0.4880(8) 0.4009(12) 0.8688(12)
H19 H 0.4976 0.4382 0.8434
C36 C 0.4342(9) 0.3955(15) 0.8546(14)
H20 H 0.4092 0.4333 0.8264
C37 C 0.4187(8) 0.3422(11) 0.8801(15)
H21 H 0.3810 0.3360 0.8649
C38 C 0.4561(8) 0.2960(11) 0.9266(12)
H22 H 0.4457 0.2566 0.9485
C39 C 0.5091(7) 0.3036(11) 0.9430(11)
H23 H 0.5351 0.2699 0.9788
C40 C 0.7374(6) 0.6050(7) 1.0757(8)
C41 C 0.7093(7) 0.6593(8) 1.0278(10)
H24 H 0.6839 0.6498 0.9727
C42 C 0.7158(9) 0.7291(9) 1.0558(12)
H25 H 0.6955 0.7670 1.0198
C43 C 0.7494(8) 0.7439(9) 1.1315(13)
H26 H 0.7559 0.7925 1.1496
C44 C 0.7747(8) 0.6909(9) 1.1827(10)
H27 H 0.7963 0.7003 1.2390
C45 C 0.7686(6) 0.6206(7) 1.1534(10)
H28 H 0.7878 0.5827 1.1901
C46 C 0.8944(5) 0.3807(6) 0.9800(8)
C47 C 0.9018(6) 0.3782(7) 0.9139(9)
H29 H 0.8707 0.3724 0.8621
C48 C 0.9529(8) 0.3842(7) 0.9195(11)
H30 H 0.9569 0.3825 0.8721
C49 C 0.9967(7) 0.3924(8) 0.9919(15)
H31 H 1.0321 0.3957 0.9961
C50 C 0.9915(7) 0.3963(7) 1.0607(12)
H32 H 1.0223 0.4040 1.1125
C51 C 0.9402(6) 0.3886(6) 1.0519(10)
H33 H 0.9363 0.3884 1.0993
N5C N 0.8145(4) -0.0513(5) 0.6658(6)
Zn1C Zn 0.79256(6) -0.12317(7) 0.56478(8)
O1 O 0.5777(8) 0.8017(14) 0.9090(14)
H34 H 0.5655 0.8310 0.8701
C52 C 0.5648(18) 0.728(3) 0.876(3)
H35 H 0.5790 0.6954 0.9196
H36 H 0.5263 0.7218 0.8441
O2 O 0.9590(10) 0.4013(15) 0.7110(13)
C53 C 0.9878(14) 0.1184(16) 0.8789(16)
H37 H 1.0091 0.1164 0.9362
H38 H 0.9574 0.0866 0.8615
H39 H 1.0098 0.1043 0.8552
O3 O 0.9631(11) 0.189(2) 0.8548(18)
H40 H 0.9802 0.2079 0.8329
C54 C 0.8867(13) 0.270(2) 0.688(2)
H41 H 0.8890 0.3205 0.6801
H42 H 0.8942 0.2442 0.6505
H43 H 0.8509 0.2586 0.6785
O4 O 0.9230(18) 0.252(4) 0.756(4)
O5? O 0.9786(8) 0.4930(15) 1.2467(15)
O6? O 0.5349(15) 0.596(2) 0.835(3)
H44? H 0.5160 0.6268 0.8427
C55? C 0.5000 0.579(3) 0.7500
H45? H 0.5818 0.7201 0.8430
loop_
_geom_bond_atom_site_label_1
_geom_bond_atom_site_label_2
_geom_bond_site_symmetry_1
_geom_bond_site_symmetry_2
Zn1 N1 1_555 1_555
N1 C4 1_555 1_555
N2 Zn1 1_555 1_555
N3 Zn1 1_555 1_555
N4 Zn1 1_555 1_555
C1 C2 1_555 1_555
C2 N2 1_555 1_555
C3 C2 1_555 1_555
C4 C3 1_555 1_555
C5 C4 1_555 1_555
H1 C5 1_555 1_555
C6 C5 1_555 1_555
H2 C6 1_555 1_555
C7 N1 1_555 1_555
C8 C7 1_555 1_555
C9 N4 1_555 1_555
C10 C9 1_555 1_555
H3 C10 1_555 1_555
C11 C10 1_555 1_555
H4 C11 1_555 1_555
C12 N4 1_555 1_555
C13 C12 1_555 1_555
C14 N3 1_555 1_555
C15 C14 1_555 1_555
H5 C15 1_555 1_555
C16 C15 1_555 1_555
H6 C16 1_555 1_555
C17 N3 1_555 1_555
C18 C17 1_555 1_555
C19 N2 1_555 1_555
C20 C1 1_555 1_555
H7 C20 1_555 1_555
C21 C1 1_555 1_555
H8 C21 1_555 1_555
C22 C21 1_555 1_555
H9 C22 1_555 1_555
C23 C22 1_555 1_555
C24 C23 1_555 1_555
H10 C24 1_555 1_555
C25 C24 1_555 1_555
H11 C25 1_555 1_555
N5 Zn1 1_555 1_555
C26 H12 1_555 1_555
C27 C23 1_555 1_555
H13 C27 1_555 1_555
C28 C3 1_555 1_555
C29 C28 1_555 1_555
H14 C29 1_555 1_555
C30 C29 1_555 1_555
H15 C30 1_555 1_555
C31 C30 1_555 1_555
H16 C31 1_555 1_555
C32 C31 1_555 1_555
H17 C32 1_555 1_555
C33 C28 1_555 1_555
H18 C33 1_555 1_555
C34 C8 1_555 1_555
C35 C34 1_555 1_555
H19 C35 1_555 1_555
C36 C35 1_555 1_555
H20 C36 1_555 1_555
C37 C36 1_555 1_555
H21 C37 1_555 1_555
C38 C37 1_555 1_555
H22 C38 1_555 1_555
C39 C34 1_555 1_555
H23 C39 1_555 1_555
C40 C13 1_555 1_555
C41 C40 1_555 1_555
H24 C41 1_555 1_555
C42 C41 1_555 1_555
H25 C42 1_555 1_555
C43 C42 1_555 1_555
H26 C43 1_555 1_555
C44 C43 1_555 1_555
H27 C44 1_555 1_555
C45 C40 1_555 1_555
H28 C45 1_555 1_555
C46 C18 1_555 1_555
C47 C46 1_555 1_555
H29 C47 1_555 1_555
C48 C47 1_555 1_555
H30 C48 1_555 1_555
C49 C48 1_555 1_555
H31 C49 1_555 1_555
C50 C49 1_555 1_555
H32 C50 1_555 1_555
C51 C46 1_555 1_555
H33 C51 1_555 1_555
O1 H34 1_555 1_555
C52 O1 1_555 1_555
H35 C52 1_555 1_555
H36 C52 1_555 1_555
C53 H37 1_555 1_555
H38 C53 1_555 1_555
H39 C53 1_555 1_555
O3 C53 1_555 1_555
H40 O3 1_555 1_555
C54 H41 1_555 1_555
H42 C54 1_555 1_555
H43 C54 1_555 1_555
O4 C54 1_555 1_555
N5C C25 1_555 1_555
Zn1C N5C 1_555 1_555
C6 C7 1_555 1_555
C8 C9 1_555 1_555
C11 C12 1_555 1_555
C13 C14 1_555 1_555
C16 C17 1_555 1_555
C18 C19 1_555 1_555
C19 C20 1_555 1_555
C26 C27 1_555 1_555
C26 N5C 1_555 1_555
C32 C33 1_555 1_555
C38 C39 1_555 1_555
C44 C45 1_555 1_555
C50 C51 1_555 1_555

#END
