
#######################################################################
#
#                 Cambridge Crystallographic Data Centre
#                                CCDC 
#
#######################################################################
#
# If this CIF has been generated from an entry in the Cambridge 
# Structural Database, then it will include bibliographic, chemical, 
# crystal, experimental, refinement or atomic coordinate data resulting 
# from the CCDC's data processing and validation procedures.
#
#######################################################################

data_NICLIU
_symmetry_cell_setting           monoclinic
_symmetry_space_group_name_H-M   'C 2/c'
_symmetry_Int_Tables_number      15
_space_group_name_Hall           '-C 2yn'
loop_
_symmetry_equiv_pos_site_id
_symmetry_equiv_pos_as_xyz
1 x,y,z
2 -x,y,1/2-z
3 1/2+x,1/2+y,z
4 1/2-x,1/2+y,1/2-z
5 -x,-y,-z
6 x,-y,1/2+z
7 1/2-x,1/2-y,-z
8 1/2+x,1/2-y,1/2+z
_cell_length_a                   21.896(4)
_cell_length_b                   14.048(3)
_cell_length_c                   20.275(4)
_cell_angle_alpha                90
_cell_angle_beta                 95.94(3)
_cell_angle_gamma                90
_cell_volume                     6203
loop_
_atom_site_label
_atom_site_type_symbol
_atom_site_fract_x
_atom_site_fract_y
_atom_site_fract_z
Si1 Si 0.5000 0.39466(12) 0.2500
Si2 Si 0.41803(5) 0.66321(9) 0.30072(6)
O1 O 0.40235(14) 0.6799(2) 0.09979(16)
O2 O 0.36606(14) 0.5023(2) 0.12172(15)
O3 O 0.41251(14) 0.6080(2) 0.22952(15)
O4 O 0.51430(13) 0.6478(2) 0.16067(15)
O5 O 0.47906(13) 0.4584(2) 0.18452(14)
O6 O 0.47177(15) 0.5292(2) 0.05591(14)
C1 C 0.3450(3) 0.6956(4) 0.0840(2)
C2 C 0.2997(3) 0.6290(5) 0.0901(3)
H1 H 0.2589 0.6482 0.0825
C3 C 0.3120(2) 0.5341(5) 0.1070(2)
C4 C 0.2607(3) 0.4621(6) 0.1089(4)
H2 H 0.2779 0.4010 0.1214
H3 H 0.2382 0.4576 0.0658
H4 H 0.2336 0.4819 0.1406
C5 C 0.3299(3) 0.7949(5) 0.0572(4)
H5 H 0.3672 0.8306 0.0563
H6 H 0.3036 0.8265 0.0853
H7 H 0.3094 0.7902 0.0131
C6 C 0.5669(2) 0.3206(3) 0.2306(2)
C7 C 0.5668(3) 0.2743(4) 0.1698(3)
H8 H 0.5320 0.2777 0.1394
C8 C 0.6183(4) 0.2226(5) 0.1533(4)
H9 H 0.6174 0.1924 0.1124
C9 C 0.6699(3) 0.2170(5) 0.1983(4)
H10 H 0.7042 0.1836 0.1875
C10 C 0.6706(3) 0.2603(5) 0.2581(4)
H11 H 0.7052 0.2557 0.2886
C11 C 0.6197(2) 0.3116(4) 0.2741(3)
H12 H 0.6212 0.3407 0.3154
C12 C 0.3586(2) 0.6118(4) 0.3505(2)
C13 C 0.3526(3) 0.5141(4) 0.3564(3)
H13 H 0.3773 0.4748 0.3334
C14 C 0.3116(3) 0.4726(5) 0.3949(4)
H14 H 0.3095 0.4067 0.3983
C15 C 0.2743(3) 0.5282(5) 0.4279(3)
H15 H 0.2455 0.5006 0.4526
C16 C 0.2793(3) 0.6240(5) 0.4248(3)
H16 H 0.2546 0.6621 0.4485
C17 C 0.3214(2) 0.6666(4) 0.3859(3)
H17 H 0.3241 0.7326 0.3842
C18 C 0.4030(2) 0.7921(4) 0.2854(2)
C19 C 0.3482(3) 0.8218(5) 0.2510(3)
H18 H 0.3192 0.7762 0.2363
C20 C 0.3355(5) 0.9152(8) 0.2380(5)
H19 H 0.2982 0.9324 0.2150
C21 C 0.3764(8) 0.9821(7) 0.2582(5)
H20 H 0.3676 1.0456 0.2485
C22 C 0.4311(7) 0.9586(6) 0.2929(5)
H21 H 0.4587 1.0060 0.3080
C23 C 0.4452(4) 0.8616(5) 0.3056(3)
H22 H 0.4830 0.8448 0.3277
C24 C 0.4593(2) 0.4372(3) 0.0269(2)
H23 H 0.4238 0.4408 -0.0058
H24 H 0.4503 0.3923 0.0609
C25 C 0.4858(2) 0.5965(3) 0.0056(2)
H25 H 0.4944 0.6584 0.0256
H26 H 0.4508 0.6028 -0.0275
Ti1 Ti 0.44495(3) 0.57261(6) 0.15546(4)
O4A O 0.48570(13) 0.6478(2) 0.33933(15)
Ti1A Ti 0.55505(3) 0.57261(6) 0.34454(4)
O1A O 0.59765(14) 0.6799(2) 0.40021(16)
C1A C 0.6550(3) 0.6956(4) 0.4160(2)
C2A C 0.7003(3) 0.6290(5) 0.4099(3)
H1A H 0.7411 0.6482 0.4175
C3A C 0.6880(2) 0.5341(5) 0.3930(2)
O2A O 0.63394(14) 0.5023(2) 0.37828(15)
O3A O 0.58749(14) 0.6080(2) 0.27048(15)
Si2A Si 0.58197(5) 0.66321(9) 0.19928(6)
C25D C 0.5142(2) 0.4035(3) -0.0056(2)
O6D O 0.52823(15) 0.4708(2) -0.05591(14)
C24D C 0.5407(2) 0.5628(3) -0.0269(2)
H23D H 0.5762 0.5592 0.0058
H24D H 0.5497 0.6077 -0.0609
Ti1D Ti 0.55505(3) 0.42739(6) -0.15546(4)
H25D H 0.5056 0.3416 -0.0256
H26D H 0.5492 0.3972 0.0275
C12A C 0.6414(2) 0.6118(4) 0.1495(2)
C13A C 0.6474(3) 0.5141(4) 0.1436(3)
H13A H 0.6227 0.4748 0.1666
C14A C 0.6884(3) 0.4726(5) 0.1051(4)
H14A H 0.6905 0.4067 0.1017
C15A C 0.7257(3) 0.5282(5) 0.0721(3)
H15A H 0.7545 0.5006 0.0474
C16A C 0.7207(3) 0.6240(5) 0.0752(3)
H16A H 0.7454 0.6621 0.0515
C17A C 0.6786(2) 0.6666(4) 0.1141(3)
H17A H 0.6759 0.7326 0.1158
C18A C 0.5970(2) 0.7921(4) 0.2146(2)
C19A C 0.6518(3) 0.8218(5) 0.2490(3)
H18A H 0.6808 0.7762 0.2637
C20A C 0.6645(5) 0.9152(8) 0.2620(5)
H19A H 0.7018 0.9324 0.2850
C21A C 0.6236(8) 0.9821(7) 0.2418(5)
H20A H 0.6324 1.0456 0.2515
C22A C 0.5689(7) 0.9586(6) 0.2071(5)
H21A H 0.5413 1.0060 0.1920
C23A C 0.5548(4) 0.8616(5) 0.1944(3)
H22A H 0.5170 0.8448 0.1723
O5A O 0.52094(13) 0.4584(2) 0.31548(14)
O6A O 0.52823(15) 0.5292(2) 0.44409(14)
C4A C 0.7393(3) 0.4621(6) 0.3911(4)
H2A H 0.7221 0.4010 0.3786
H3A H 0.7618 0.4576 0.4342
H4A H 0.7664 0.4819 0.3594
C5A C 0.6701(3) 0.7949(5) 0.4428(4)
H5A H 0.6328 0.8306 0.4437
H6A H 0.6964 0.8265 0.4147
H7A H 0.6906 0.7902 0.4869
C6A C 0.4331(2) 0.3206(3) 0.2694(2)
C7A C 0.4332(3) 0.2743(4) 0.3302(3)
H8A H 0.4680 0.2777 0.3606
C8A C 0.3817(4) 0.2226(5) 0.3467(4)
H9A H 0.3826 0.1924 0.3876
C9A C 0.3301(3) 0.2170(5) 0.3017(4)
H10A H 0.2958 0.1836 0.3125
C10A C 0.3294(3) 0.2603(5) 0.2419(4)
H11A H 0.2948 0.2557 0.2114
C11A C 0.3803(2) 0.3116(4) 0.2259(3)
H12A H 0.3788 0.3407 0.1846
O7 O 0.3701(4) 0.0459(6) 0.0169(5)
O8 O 0.4683(4) 0.1641(7) 0.0505(5)
C26 C 0.4103(6) 0.0682(9) -0.0287(6)
H27 H 0.3881 0.0686 -0.0726
H28 H 0.4415 0.0191 -0.0278
C27 C 0.4386(7) 0.1556(10) -0.0170(7)
H29 H 0.4083 0.2057 -0.0250
H30 H 0.4691 0.1643 -0.0480
C28 C 0.4018(6) 0.0486(10) 0.0830(7)
H31 H 0.4358 0.0040 0.0865
H32 H 0.3740 0.0308 0.1152
C29 C 0.4248(7) 0.1465(10) 0.0963(7)
H33 H 0.3913 0.1919 0.0901
H34 H 0.4440 0.1518 0.1415
loop_
_geom_bond_atom_site_label_1
_geom_bond_atom_site_label_2
_geom_bond_site_symmetry_1
_geom_bond_site_symmetry_2
Si1 O5 1_555 1_555
Si2 O3 1_555 1_555
O1 C1 1_555 1_555
O2 C3 1_555 1_555
O3 Ti1 1_555 1_555
O4 Ti1 1_555 1_555
O5 Ti1 1_555 1_555
O6 C24 1_555 1_555
C1 C2 1_555 1_555
C2 H1 1_555 1_555
C3 C2 1_555 1_555
C4 C3 1_555 1_555
H2 C4 1_555 1_555
H3 C4 1_555 1_555
H4 C4 1_555 1_555
C5 C1 1_555 1_555
H5 C5 1_555 1_555
H6 C5 1_555 1_555
H7 C5 1_555 1_555
C6 Si1 1_555 1_555
C7 C6 1_555 1_555
H8 C7 1_555 1_555
C8 C7 1_555 1_555
H9 C8 1_555 1_555
C9 C8 1_555 1_555
H10 C9 1_555 1_555
C10 C9 1_555 1_555
H11 C10 1_555 1_555
C11 C6 1_555 1_555
H12 C11 1_555 1_555
C12 Si2 1_555 1_555
C13 C12 1_555 1_555
H13 C13 1_555 1_555
C14 C13 1_555 1_555
H14 C14 1_555 1_555
C15 C14 1_555 1_555
H15 C15 1_555 1_555
C16 C15 1_555 1_555
H16 C16 1_555 1_555
C17 C12 1_555 1_555
H17 C17 1_555 1_555
C18 Si2 1_555 1_555
C19 C18 1_555 1_555
H18 C19 1_555 1_555
C20 C19 1_555 1_555
H19 C20 1_555 1_555
C21 C20 1_555 1_555
H20 C21 1_555 1_555
C22 C21 1_555 1_555
H21 C22 1_555 1_555
C23 C18 1_555 1_555
H22 C23 1_555 1_555
C24 H23 1_555 1_555
H24 C24 1_555 1_555
C25 O6 1_555 1_555
H25 C25 1_555 1_555
H26 C25 1_555 1_555
O7 C26 1_555 1_555
O8 C27 1_555 1_555
C26 H27 1_555 1_555
H28 C26 1_555 1_555
C27 C26 1_555 1_555
H29 C27 1_555 1_555
H30 C27 1_555 1_555
C28 O7 1_555 1_555
H31 C28 1_555 1_555
H32 C28 1_555 1_555
C29 O8 1_555 1_555
H33 C29 1_555 1_555
H34 C29 1_555 1_555
Ti1 O1 1_555 1_555
O4A Si2 1_555 1_555
Ti1A O4A 1_555 1_555
O1A Ti1A 1_555 1_555
C1A O1A 1_555 1_555
C2A C1A 1_555 1_555
H1A C2A 1_555 1_555
C3A C2A 1_555 1_555
O2A Ti1A 1_555 1_555
O3A Ti1A 1_555 1_555
Si2A O4 1_555 1_555
C25D C24 1_555 1_555
O6D C25D 1_555 1_555
C24D C25 1_555 1_555
H23D C24D 1_555 1_555
H24D C24D 1_555 1_555
Ti1D O6D 1_555 1_555
H25D C25D 1_555 1_555
H26D C25D 1_555 1_555
C12A Si2A 1_555 1_555
C13A C12A 1_555 1_555
H13A C13A 1_555 1_555
C14A C13A 1_555 1_555
H14A C14A 1_555 1_555
C15A C14A 1_555 1_555
H15A C15A 1_555 1_555
C16A C15A 1_555 1_555
H16A C16A 1_555 1_555
C17A C12A 1_555 1_555
H17A C17A 1_555 1_555
C18A Si2A 1_555 1_555
C19A C18A 1_555 1_555
H18A C19A 1_555 1_555
C20A C19A 1_555 1_555
H19A C20A 1_555 1_555
C21A C20A 1_555 1_555
H20A C21A 1_555 1_555
C22A C21A 1_555 1_555
H21A C22A 1_555 1_555
C23A C18A 1_555 1_555
H22A C23A 1_555 1_555
O5A Si1 1_555 1_555
O6A Ti1A 1_555 1_555
C4A C3A 1_555 1_555
H2A C4A 1_555 1_555
H3A C4A 1_555 1_555
H4A C4A 1_555 1_555
C5A C1A 1_555 1_555
H5A C5A 1_555 1_555
H6A C5A 1_555 1_555
H7A C5A 1_555 1_555
C6A Si1 1_555 1_555
C7A C6A 1_555 1_555
H8A C7A 1_555 1_555
C8A C7A 1_555 1_555
H9A C8A 1_555 1_555
C9A C8A 1_555 1_555
H10A C9A 1_555 1_555
C10A C9A 1_555 1_555
H11A C10A 1_555 1_555
C11A C6A 1_555 1_555
H12A C11A 1_555 1_555
O2 Ti1 1_555 1_555
O6 Ti1 1_555 1_555
C10 C11 1_555 1_555
C16 C17 1_555 1_555
C22 C23 1_555 1_555
C28 C29 1_555 1_555
Ti1A O5A 1_555 1_555
C3A O2A 1_555 1_555
O3A Si2A 1_555 1_555
O6D C24D 1_555 1_555
C16A C17A 1_555 1_555
C22A C23A 1_555 1_555
C10A C11A 1_555 1_555

#END
