
#######################################################################
#
#                 Cambridge Crystallographic Data Centre
#                                CCDC 
#
#######################################################################
#
# If this CIF has been generated from an entry in the Cambridge 
# Structural Database, then it will include bibliographic, chemical, 
# crystal, experimental, refinement or atomic coordinate data resulting 
# from the CCDC's data processing and validation procedures.
#
#######################################################################

data_NICMUI
_symmetry_cell_setting           monoclinic
_symmetry_space_group_name_H-M   'C 2/c'
_symmetry_Int_Tables_number      15
_space_group_name_Hall           '-C 2yn'
loop_
_symmetry_equiv_pos_site_id
_symmetry_equiv_pos_as_xyz
1 x,y,z
2 1/2+x,1/2+y,z
3 -x,y,1/2-z
4 1/2-x,1/2+y,1/2-z
5 -x,-y,-z
6 1/2-x,1/2-y,-z
7 x,-y,1/2+z
8 1/2+x,1/2-y,1/2+z
_cell_length_a                   28.020(6)
_cell_length_b                   7.7307(15)
_cell_length_c                   18.779(4)
_cell_angle_alpha                90
_cell_angle_beta                 106.02(3)
_cell_angle_gamma                90
_cell_volume                     3909.83
loop_
_atom_site_label
_atom_site_type_symbol
_atom_site_fract_x
_atom_site_fract_y
_atom_site_fract_z
Zn1 Zn 0.0000 0.62899(12) 0.2500
Fe1 Fe 0.18909(3) 1.27428(13) 0.10509(4)
N1 N 0.00309(15) 0.4466(6) 0.3324(2)
O1 O 0.06195(15) 0.7518(6) 0.2492(3)
O2 O 0.05321(18) 0.8458(7) 0.3547(3)
C1 C 0.1883(3) 1.4998(13) 0.0488(5)
H1 H 0.2164 1.5523 0.0355
C2 C 0.1546(3) 1.3853(13) 0.0066(4)
H2 H 0.1553 1.3410 -0.0420
C3 C 0.1197(2) 1.3391(11) 0.0439(4)
H3 H 0.0917 1.2597 0.0259
C4 C 0.1318(3) 1.4284(11) 0.1114(4)
H4 H 0.1138 1.4227 0.1493
C5 C 0.1743(3) 1.5294(10) 0.1148(4)
H5 H 0.1912 1.6060 0.1555
C6 C 0.2454(2) 1.2076(10) 0.1946(3)
H6 H 0.2630 1.2847 0.2347
C7 C 0.2587(3) 1.1731(13) 0.1280(4)
H7 H 0.2869 1.2231 0.1139
C8 C 0.2235(3) 1.0576(11) 0.0855(4)
H8 H 0.2232 1.0137 0.0364
C9 C 0.1881(2) 1.0153(9) 0.1246(3)
H9 H 0.1596 0.9378 0.1074
C10 C 0.2015(2) 1.1069(8) 0.1923(3)
C11 C 0.13885(19) 0.9815(8) 0.2514(3)
H10 H 0.1305 0.8988 0.2140
C12 C 0.17511(19) 1.1032(8) 0.2508(3)
C13 C 0.1854(2) 1.2249(9) 0.3069(4)
H11 H 0.2088 1.3107 0.3071
C14 C 0.1621(3) 1.2222(11) 0.3624(4)
H12 H 0.1706 1.3041 0.4000
C15 C 0.1260(3) 1.1001(10) 0.3635(3)
H13 H 0.1101 1.0991 0.4009
C16 C 0.11455(19) 0.9811(8) 0.3074(3)
C17 C 0.0728(2) 0.8467(10) 0.3038(4)
C18 C 0.0317(2) 0.4693(8) 0.4008(3)
H14 H 0.0507 0.5695 0.4117
C19 C 0.0344(2) 0.3492(8) 0.4568(3)
H15 H 0.0552 0.3701 0.5039
C20 C 0.00720(19) 0.2020(7) 0.4436(2)
C21 C -0.0224(2) 0.1768(8) 0.3711(3)
H16 H -0.0411 0.0764 0.3584
C22 C -0.0234(2) 0.3015(8) 0.3193(3)
H17 H -0.0440 0.2840 0.2717
C23 C 0.0098(2) 0.0763(8) 0.5032(3)
H18 H 0.024(2) 0.114(9) 0.543(3)
Zn1F Zn 0.0000 -0.62899(12) 0.7500
Fe1B Fe -0.18909(3) 1.27428(13) 0.39491(4)
N1D N -0.00309(15) -0.4466(6) 0.6676(2)
N1B N -0.00309(15) 0.4466(6) 0.1676(2)
O1B O -0.06195(15) 0.7518(6) 0.2508(3)
O2B O -0.05321(18) 0.8458(7) 0.1453(3)
C1B C -0.1883(3) 1.4998(13) 0.4512(5)
H1B H -0.2164 1.5523 0.4645
C2B C -0.1546(3) 1.3853(13) 0.4934(4)
H2B H -0.1553 1.3410 0.5420
C3B C -0.1197(2) 1.3391(11) 0.4561(4)
H3B H -0.0917 1.2597 0.4741
C4B C -0.1318(3) 1.4284(11) 0.3886(4)
H4B H -0.1138 1.4227 0.3507
C5B C -0.1743(3) 1.5294(10) 0.3852(4)
H5B H -0.1912 1.6060 0.3445
C6B C -0.2454(2) 1.2076(10) 0.3054(3)
H6B H -0.2630 1.2847 0.2653
C7B C -0.2587(3) 1.1731(13) 0.3720(4)
H7B H -0.2869 1.2231 0.3861
C8B C -0.2235(3) 1.0576(11) 0.4145(4)
H8B H -0.2232 1.0137 0.4636
C9B C -0.1881(2) 1.0153(9) 0.3754(3)
H9B H -0.1596 0.9378 0.3926
C10B C -0.2015(2) 1.1069(8) 0.3077(3)
C11B C -0.13885(19) 0.9815(8) 0.2486(3)
H10B H -0.1305 0.8988 0.2860
C12B C -0.17511(19) 1.1032(8) 0.2492(3)
C13B C -0.1854(2) 1.2249(9) 0.1931(4)
H11B H -0.2088 1.3107 0.1929
C14B C -0.1621(3) 1.2222(11) 0.1376(4)
H12B H -0.1706 1.3041 0.1000
C15B C -0.1260(3) 1.1001(10) 0.1365(3)
H13B H -0.1101 1.0991 0.0991
C16B C -0.11455(19) 0.9811(8) 0.1926(3)
C17B C -0.0728(2) 0.8467(10) 0.1962(4)
C18D C -0.0317(2) -0.4693(8) 0.5992(3)
H14D H -0.0507 -0.5695 0.5883
C19D C -0.0344(2) -0.3492(8) 0.5432(3)
H15D H -0.0552 -0.3701 0.4961
C20D C -0.00720(19) -0.2020(7) 0.5564(2)
C21D C 0.0224(2) -0.1768(8) 0.6289(3)
H16D H 0.0411 -0.0764 0.6416
C22D C 0.0234(2) -0.3015(8) 0.6807(3)
H17D H 0.0440 -0.2840 0.7283
C23D C -0.0098(2) -0.0763(8) 0.4968(3)
H18D H -0.024(2) -0.114(9) 0.457(3)
loop_
_geom_bond_atom_site_label_1
_geom_bond_atom_site_label_2
_geom_bond_site_symmetry_1
_geom_bond_site_symmetry_2
Zn1 N1 1_555 1_555
Fe1 C1 1_555 1_555
N1 C18 1_555 1_555
O1 Zn1 1_555 1_555
O2 C17 1_555 1_555
C1 H1 1_555 1_555
C2 Fe1 1_555 1_555
H2 C2 1_555 1_555
C3 Fe1 1_555 1_555
H3 C3 1_555 1_555
C4 Fe1 1_555 1_555
H4 C4 1_555 1_555
C5 Fe1 1_555 1_555
H5 C5 1_555 1_555
C6 Fe1 1_555 1_555
H6 C6 1_555 1_555
C7 Fe1 1_555 1_555
H7 C7 1_555 1_555
C8 Fe1 1_555 1_555
H8 C8 1_555 1_555
C9 Fe1 1_555 1_555
H9 C9 1_555 1_555
C10 Fe1 1_555 1_555
C11 H10 1_555 1_555
C12 C10 1_555 1_555
C13 C12 1_555 1_555
H11 C13 1_555 1_555
C14 C13 1_555 1_555
H12 C14 1_555 1_555
C15 C14 1_555 1_555
H13 C15 1_555 1_555
C16 C11 1_555 1_555
C17 O1 1_555 1_555
C18 H14 1_555 1_555
C19 C18 1_555 1_555
H15 C19 1_555 1_555
C20 C19 1_555 1_555
C21 C20 1_555 1_555
H16 C21 1_555 1_555
C22 N1 1_555 1_555
H17 C22 1_555 1_555
C23 C20 1_555 1_555
H18 C23 1_555 1_555
Zn1F N1D 1_555 1_555
Fe1B C1B 1_555 1_555
N1D C18D 1_555 1_555
N1B Zn1 1_555 1_555
O1B Zn1 1_555 1_555
O2B C17B 1_555 1_555
C1B H1B 1_555 1_555
C2B Fe1B 1_555 1_555
H2B C2B 1_555 1_555
C3B Fe1B 1_555 1_555
H3B C3B 1_555 1_555
C4B Fe1B 1_555 1_555
H4B C4B 1_555 1_555
C5B Fe1B 1_555 1_555
H5B C5B 1_555 1_555
C6B Fe1B 1_555 1_555
H6B C6B 1_555 1_555
C7B Fe1B 1_555 1_555
H7B C7B 1_555 1_555
C8B Fe1B 1_555 1_555
H8B C8B 1_555 1_555
C9B Fe1B 1_555 1_555
H9B C9B 1_555 1_555
C10B Fe1B 1_555 1_555
C11B H10B 1_555 1_555
C12B C10B 1_555 1_555
C13B C12B 1_555 1_555
H11B C13B 1_555 1_555
C14B C13B 1_555 1_555
H12B C14B 1_555 1_555
C15B C14B 1_555 1_555
H13B C15B 1_555 1_555
C16B C11B 1_555 1_555
C17B O1B 1_555 1_555
C18D H14D 1_555 1_555
C19D C18D 1_555 1_555
H15D C19D 1_555 1_555
C20D C19D 1_555 1_555
C21D C20D 1_555 1_555
H16D C21D 1_555 1_555
C22D N1D 1_555 1_555
H17D C22D 1_555 1_555
C23D C23 1_555 1_555
H18D C23D 1_555 1_555
C1 C2 1_555 1_555
C1 C5 1_555 1_555
C2 C3 1_555 1_555
C3 C4 1_555 1_555
C4 C5 1_555 1_555
C6 C7 1_555 1_555
C6 C10 1_555 1_555
C7 C8 1_555 1_555
C8 C9 1_555 1_555
C9 C10 1_555 1_555
C11 C12 1_555 1_555
C15 C16 1_555 1_555
C16 C17 1_555 1_555
C21 C22 1_555 1_555
C1B C2B 1_555 1_555
C1B C5B 1_555 1_555
C2B C3B 1_555 1_555
C3B C4B 1_555 1_555
C4B C5B 1_555 1_555
C6B C7B 1_555 1_555
C6B C10B 1_555 1_555
C7B C8B 1_555 1_555
C8B C9B 1_555 1_555
C9B C10B 1_555 1_555
C11B C12B 1_555 1_555
C15B C16B 1_555 1_555
C16B C17B 1_555 1_555
C20D C23D 1_555 1_555
C21D C22D 1_555 1_555

#END
