
#######################################################################
#
#                 Cambridge Crystallographic Data Centre
#                                CCDC 
#
#######################################################################
#
# If this CIF has been generated from an entry in the Cambridge 
# Structural Database, then it will include bibliographic, chemical, 
# crystal, experimental, refinement or atomic coordinate data resulting 
# from the CCDC's data processing and validation procedures.
#
#######################################################################

data_NICNEU
_symmetry_cell_setting           monoclinic
_symmetry_space_group_name_H-M   'P 21/c'
_symmetry_Int_Tables_number      14
_space_group_name_Hall           '-P 2ybc'
loop_
_symmetry_equiv_pos_site_id
_symmetry_equiv_pos_as_xyz
1 x,y,z
2 -x,1/2+y,1/2-z
3 -x,-y,-z
4 x,1/2-y,1/2+z
_cell_length_a                   11.0574(3)
_cell_length_b                   6.4069(2)
_cell_length_c                   12.8321(3)
_cell_angle_alpha                90
_cell_angle_beta                 116.355(2)
_cell_angle_gamma                90
_cell_volume                     814.584
loop_
_atom_site_label
_atom_site_type_symbol
_atom_site_fract_x
_atom_site_fract_y
_atom_site_fract_z
Pb1 Pb -0.566264(19) -0.65556(3) -0.668093(17)
O1 O -0.3754(4) -0.4682(8) -0.6594(4)
O2 O -0.3804(5) -0.9045(9) -0.6592(4)
O3 O -0.1831(5) -0.9601(8) -0.6625(4)
N1 N -0.2595(5) -0.4971(8) -0.5646(4)
N2 N -0.5809(6) -0.3223(9) -0.5560(5)
N3 N -0.6491(6) -0.1723(8) -0.5987(5)
N4 N -0.7152(6) -0.0241(9) -0.6388(5)
C1 C -0.2072(7) -0.3383(9) -0.4883(7)
H1 H -0.2553 -0.2104 -0.5018
C2 C -0.0852(7) -0.3591(10) -0.3914(6)
H2 H -0.0487 -0.2459 -0.3388
C3 C -0.0159(6) -0.5478(11) -0.3713(5)
H3 H 0.0685 -0.5649 -0.3050
C4 C -0.0719(6) -0.7096(12) -0.4492(5)
H4 H -0.0257 -0.8392 -0.4361
C5 C -0.1939(6) -0.6851(11) -0.5457(6)
C6 C -0.2567(7) -0.8627(9) -0.6317(6)
Pb1A Pb -0.433736(19) -1.15556(3) -0.831907(17)
Pb1A_2 Pb -0.433736(19) -0.15556(3) -0.831907(17)
Pb1B Pb -0.433736(19) -0.34444(3) -0.331907(17)
O1A O -0.6246(4) -0.9682(8) -0.8406(4)
O2A O -0.6196(5) -0.4045(9) -0.8408(4)
N2B N -0.4191(6) -0.6777(9) -0.4440(5)
loop_
_geom_bond_atom_site_label_1
_geom_bond_atom_site_label_2
_geom_bond_site_symmetry_1
_geom_bond_site_symmetry_2
Pb1 O1 1_555 1_555
O1 N1 1_555 1_555
O2 Pb1 1_555 1_555
O3 C6 1_555 1_555
N1 C1 1_555 1_555
N2 Pb1 1_555 1_555
N3 N2 1_555 1_555
N4 N3 1_555 1_555
C1 H1 1_555 1_555
C2 C1 1_555 1_555
H2 C2 1_555 1_555
C3 C2 1_555 1_555
H3 C3 1_555 1_555
C4 C3 1_555 1_555
H4 C4 1_555 1_555
C5 N1 1_555 1_555
C6 O2 1_555 1_555
Pb1A O2 1_555 1_555
Pb1A_2 O1 1_555 1_555
Pb1B N2 1_555 1_555
O1A Pb1 1_555 1_555
O2A Pb1 1_555 1_555
N2B Pb1 1_555 1_555
C4 C5 1_555 1_555
C5 C6 1_555 1_555
Pb1A O1A 1_555 1_555
Pb1A_2 O2A 1_555 1_555
Pb1B N2B 1_555 1_555

#END
