
#######################################################################
#
#                 Cambridge Crystallographic Data Centre
#                                CCDC 
#
#######################################################################
#
# If this CIF has been generated from an entry in the Cambridge 
# Structural Database, then it will include bibliographic, chemical, 
# crystal, experimental, refinement or atomic coordinate data resulting 
# from the CCDC's data processing and validation procedures.
#
#######################################################################

data_NICNAP
_symmetry_cell_setting           monoclinic
_symmetry_space_group_name_H-M   'C 2/c'
_symmetry_Int_Tables_number      15
_space_group_name_Hall           '-C 2yn'
loop_
_symmetry_equiv_pos_site_id
_symmetry_equiv_pos_as_xyz
1 x,y,z
2 1/2+x,1/2+y,z
3 -x,y,1/2-z
4 1/2-x,1/2+y,1/2-z
5 -x,-y,-z
6 1/2-x,1/2-y,-z
7 x,-y,1/2+z
8 1/2+x,1/2-y,1/2+z
_cell_length_a                   29.131(6)
_cell_length_b                   7.5343(15)
_cell_length_c                   16.441(3)
_cell_angle_alpha                90
_cell_angle_beta                 103.67(3)
_cell_angle_gamma                90
_cell_volume                     3506.28
loop_
_atom_site_label
_atom_site_type_symbol
_atom_site_fract_x
_atom_site_fract_y
_atom_site_fract_z
Mn1 Mn 0.0000 0.45733(9) 0.2500
Fe1 Fe -0.18518(2) -0.28900(7) 0.39396(3)
N1 N 0.00023(10) 0.6655(3) 0.15233(15)
C1 C -0.18601(18) -0.5350(6) 0.4431(4)
H1 H -0.2140 -0.5982 0.4510
C2 C -0.1569(2) -0.4234(6) 0.5020(3)
H2 H -0.1610 -0.3943 0.5579
C3 C -0.12077(16) -0.3624(6) 0.4662(3)
H3 H -0.0952 -0.2818 0.4926
C4 C -0.12731(16) -0.4367(6) 0.3871(2)
H4 H -0.1071 -0.4167 0.3480
C5 C -0.16770(18) -0.5421(6) 0.3719(3)
H5 H -0.1805 -0.6112 0.3211
C6 C -0.23555(14) -0.2108(5) 0.2919(3)
H6 H -0.2487 -0.2839 0.2426
C7 C -0.25359(16) -0.1981(6) 0.3647(3)
H7 H -0.2812 -0.2608 0.3747
C8 C -0.22411(16) -0.0807(5) 0.4206(3)
H8 H -0.2278 -0.0485 0.4765
C9 C -0.18781(15) -0.0194(5) 0.3835(2)
H9 H -0.1625 0.0632 0.4089
C10 C -0.19463(13) -0.0986(4) 0.3027(2)
C11 C -0.13440(12) 0.0724(4) 0.2494(2)
H10 H -0.1323 0.1503 0.2940
C12 C -0.16535(13) -0.0707(4) 0.24136(19)
C13 C -0.16813(17) -0.1824(5) 0.1734(2)
H11 H -0.1888 -0.2784 0.1660
C14 C -0.14083(18) -0.1540(6) 0.1164(2)
H12 H -0.1430 -0.2316 0.0717
C15 C -0.11023(16) -0.0108(5) 0.1255(2)
H13 H -0.0923 0.0091 0.0864
C16 C -0.10646(13) 0.1025(4) 0.1930(2)
C17 C -0.07087(13) 0.2484(4) 0.2072(2)
C18 C -0.02447(16) 0.6475(5) 0.0739(2)
H14 H -0.0426 0.5455 0.0596
C19 C -0.02466(16) 0.7727(5) 0.0123(2)
H15 H -0.0417 0.7515 -0.0422
C20 C 0.00031(12) 0.9286(4) 0.03113(17)
C21 C 0.02623(13) 0.9461(5) 0.11299(19)
H16 H 0.0440 1.0480 0.1296
C22 C 0.02562(14) 0.8123(5) 0.1695(2)
H17 H 0.0443 0.8258 0.2234
O1 O -0.06577(10) 0.3421(3) 0.27177(16)
O2 O -0.04490(10) 0.2715(3) 0.15741(14)
Mn1F Mn 0.0000 1.54267(9) -0.2500
Fe1B Fe 0.18518(2) -0.28900(7) 0.10604(3)
N1D N -0.00023(10) 1.3345(3) -0.15233(15)
N1B N -0.00023(10) 0.6655(3) 0.34767(15)
C1B C 0.18601(18) -0.5350(6) 0.0569(4)
H1B H 0.2140 -0.5982 0.0490
C2B C 0.1569(2) -0.4234(6) -0.0020(3)
H2B H 0.1610 -0.3943 -0.0579
C3B C 0.12077(16) -0.3624(6) 0.0338(3)
H3B H 0.0952 -0.2818 0.0074
C4B C 0.12731(16) -0.4367(6) 0.1129(2)
H4B H 0.1071 -0.4167 0.1520
C5B C 0.16770(18) -0.5421(6) 0.1281(3)
H5B H 0.1805 -0.6112 0.1789
C6B C 0.23555(14) -0.2108(5) 0.2081(3)
H6B H 0.2487 -0.2839 0.2574
C7B C 0.25359(16) -0.1981(6) 0.1353(3)
H7B H 0.2812 -0.2608 0.1253
C8B C 0.22411(16) -0.0807(5) 0.0794(3)
H8B H 0.2278 -0.0485 0.0235
C9B C 0.18781(15) -0.0194(5) 0.1165(2)
H9B H 0.1625 0.0632 0.0911
C10B C 0.19463(13) -0.0986(4) 0.1973(2)
C11B C 0.13440(12) 0.0724(4) 0.2506(2)
H10B H 0.1323 0.1503 0.2060
C12B C 0.16535(13) -0.0707(4) 0.25864(19)
C13B C 0.16813(17) -0.1824(5) 0.3266(2)
H11B H 0.1888 -0.2784 0.3340
C14B C 0.14083(18) -0.1540(6) 0.3836(2)
H12B H 0.1430 -0.2316 0.4283
C15B C 0.11023(16) -0.0108(5) 0.3745(2)
H13B H 0.0923 0.0091 0.4136
C16B C 0.10646(13) 0.1025(4) 0.3070(2)
C17B C 0.07087(13) 0.2484(4) 0.2928(2)
C18D C 0.02447(16) 1.3525(5) -0.0739(2)
H14D H 0.0426 1.4545 -0.0596
C19D C 0.02466(16) 1.2273(5) -0.0123(2)
H15D H 0.0417 1.2485 0.0422
C20D C -0.00031(12) 1.0714(4) -0.03113(17)
C21D C -0.02623(13) 1.0539(5) -0.11299(19)
H16D H -0.0440 0.9520 -0.1296
C22D C -0.02562(14) 1.1877(5) -0.1695(2)
H17D H -0.0443 1.1742 -0.2234
O1B O 0.06577(10) 0.3421(3) 0.22823(16)
O2B O 0.04490(10) 0.2715(3) 0.34259(14)
loop_
_geom_bond_atom_site_label_1
_geom_bond_atom_site_label_2
_geom_bond_site_symmetry_1
_geom_bond_site_symmetry_2
Mn1 N1 1_555 1_555
Fe1 C1 1_555 1_555
N1 C18 1_555 1_555
C1 H1 1_555 1_555
C2 Fe1 1_555 1_555
H2 C2 1_555 1_555
C3 Fe1 1_555 1_555
H3 C3 1_555 1_555
C4 Fe1 1_555 1_555
H4 C4 1_555 1_555
C5 Fe1 1_555 1_555
H5 C5 1_555 1_555
C6 Fe1 1_555 1_555
H6 C6 1_555 1_555
C7 Fe1 1_555 1_555
H7 C7 1_555 1_555
C8 Fe1 1_555 1_555
H8 C8 1_555 1_555
C9 Fe1 1_555 1_555
H9 C9 1_555 1_555
C10 Fe1 1_555 1_555
C11 H10 1_555 1_555
C12 C10 1_555 1_555
C13 C12 1_555 1_555
H11 C13 1_555 1_555
C14 C13 1_555 1_555
H12 C14 1_555 1_555
C15 C14 1_555 1_555
H13 C15 1_555 1_555
C16 C11 1_555 1_555
C17 C16 1_555 1_555
C18 H14 1_555 1_555
C19 C18 1_555 1_555
H15 C19 1_555 1_555
C20 C19 1_555 1_555
C21 C20 1_555 1_555
H16 C21 1_555 1_555
C22 N1 1_555 1_555
H17 C22 1_555 1_555
O1 Mn1 1_555 1_555
O2 Mn1 1_555 1_555
Mn1F N1D 1_555 1_555
Fe1B C1B 1_555 1_555
N1D C18D 1_555 1_555
N1B Mn1 1_555 1_555
C1B H1B 1_555 1_555
C2B Fe1B 1_555 1_555
H2B C2B 1_555 1_555
C3B Fe1B 1_555 1_555
H3B C3B 1_555 1_555
C4B Fe1B 1_555 1_555
H4B C4B 1_555 1_555
C5B Fe1B 1_555 1_555
H5B C5B 1_555 1_555
C6B Fe1B 1_555 1_555
H6B C6B 1_555 1_555
C7B Fe1B 1_555 1_555
H7B C7B 1_555 1_555
C8B Fe1B 1_555 1_555
H8B C8B 1_555 1_555
C9B Fe1B 1_555 1_555
H9B C9B 1_555 1_555
C10B Fe1B 1_555 1_555
C11B H10B 1_555 1_555
C12B C10B 1_555 1_555
C13B C12B 1_555 1_555
H11B C13B 1_555 1_555
C14B C13B 1_555 1_555
H12B C14B 1_555 1_555
C15B C14B 1_555 1_555
H13B C15B 1_555 1_555
C16B C11B 1_555 1_555
C17B C16B 1_555 1_555
C18D H14D 1_555 1_555
C19D C18D 1_555 1_555
H15D C19D 1_555 1_555
C20D C20 1_555 1_555
C21D C20D 1_555 1_555
H16D C21D 1_555 1_555
C22D N1D 1_555 1_555
H17D C22D 1_555 1_555
O1B Mn1 1_555 1_555
O2B Mn1 1_555 1_555
C1 C2 1_555 1_555
C1 C5 1_555 1_555
C2 C3 1_555 1_555
C3 C4 1_555 1_555
C4 C5 1_555 1_555
C6 C7 1_555 1_555
C6 C10 1_555 1_555
C7 C8 1_555 1_555
C8 C9 1_555 1_555
C9 C10 1_555 1_555
C11 C12 1_555 1_555
C15 C16 1_555 1_555
C17 O1 1_555 1_555
C17 O2 1_555 1_555
C21 C22 1_555 1_555
C1B C2B 1_555 1_555
C1B C5B 1_555 1_555
C2B C3B 1_555 1_555
C3B C4B 1_555 1_555
C4B C5B 1_555 1_555
C6B C7B 1_555 1_555
C6B C10B 1_555 1_555
C7B C8B 1_555 1_555
C8B C9B 1_555 1_555
C9B C10B 1_555 1_555
C11B C12B 1_555 1_555
C15B C16B 1_555 1_555
C17B O1B 1_555 1_555
C17B O2B 1_555 1_555
C19D C20D 1_555 1_555
C21D C22D 1_555 1_555

#END
