
#######################################################################
#
#                 Cambridge Crystallographic Data Centre
#                                CCDC 
#
#######################################################################
#
# If this CIF has been generated from an entry in the Cambridge 
# Structural Database, then it will include bibliographic, chemical, 
# crystal, experimental, refinement or atomic coordinate data resulting 
# from the CCDC's data processing and validation procedures.
#
#######################################################################

data_NICOPB02
_symmetry_cell_setting           orthorhombic
_symmetry_space_group_name_H-M   'P c c n'
_symmetry_Int_Tables_number      56
_space_group_name_Hall           '-P 2ab 2ac'
loop_
_symmetry_equiv_pos_site_id
_symmetry_equiv_pos_as_xyz
1 x,y,z
2 1/2-x,1/2-y,z
3 1/2+x,-y,1/2-z
4 -x,1/2+y,1/2-z
5 -x,-y,-z
6 1/2+x,1/2+y,-z
7 1/2-x,y,1/2+z
8 x,1/2-y,1/2+z
_cell_length_a                   10.2367(12)
_cell_length_b                   13.6520(17)
_cell_length_c                   8.4046(10)
_cell_angle_alpha                90
_cell_angle_beta                 90
_cell_angle_gamma                90
_cell_volume                     1174.55
loop_
_atom_site_label
_atom_site_type_symbol
_atom_site_fract_x
_atom_site_fract_y
_atom_site_fract_z
Pb1 Pb 0.2500 0.2500 0.09315(3)
O1 O 0.4337(4) 0.0971(3) 0.1218(4)
O2 O 0.2890(4) 0.1383(3) 0.3070(4)
N1 N 0.5182(4) -0.1635(3) 0.3641(5)
C1 C 0.3728(5) 0.0797(3) 0.2451(6)
C2 C 0.3914(5) -0.0166(3) 0.3300(6)
C3 C 0.3069(5) -0.0462(4) 0.4502(6)
H1 H 0.2345 -0.0066 0.4797
C4 C 0.3303(5) -0.1346(4) 0.5262(6)
H2 H 0.2740 -0.1567 0.6086
C5 C 0.4367(5) -0.1903(4) 0.4804(7)
H3 H 0.4527 -0.2503 0.5341
C6 C 0.4948(5) -0.0778(3) 0.2898(6)
H4 H 0.5516 -0.0583 0.2061
Pb1B Pb 0.7500 -0.2500 0.40685(3)
Pb1B_2 Pb -0.2500 0.7500 0.40685(3)
O1A O 0.0663(4) 0.4029(3) 0.1218(4)
O2A O 0.2110(4) 0.3617(3) 0.3070(4)
N1A N -0.0182(4) 0.6635(3) 0.3641(5)
N1B N 0.0182(4) 0.1635(3) 0.1359(5)
N1C N 0.4818(4) 0.3365(3) 0.1359(5)
C1A C 0.1272(5) 0.4203(3) 0.2451(6)
C2A C 0.1086(5) 0.5166(3) 0.3300(6)
C3A C 0.1931(5) 0.5462(4) 0.4502(6)
H1A H 0.2655 0.5066 0.4797
C4A C 0.1697(5) 0.6346(4) 0.5262(6)
H2A H 0.2260 0.6567 0.6086
C5A C 0.0633(5) 0.6903(4) 0.4804(7)
H3A H 0.0473 0.7503 0.5341
C6A C 0.0052(5) 0.5778(3) 0.2898(6)
H4A H -0.0516 0.5583 0.2061
loop_
_geom_bond_atom_site_label_1
_geom_bond_atom_site_label_2
_geom_bond_site_symmetry_1
_geom_bond_site_symmetry_2
Pb1 O1 1_555 1_555
O1 C1 1_555 1_555
O2 Pb1 1_555 1_555
N1 C5 1_555 1_555
C1 O2 1_555 1_555
C2 C1 1_555 1_555
C3 C2 1_555 1_555
H1 C3 1_555 1_555
C4 C3 1_555 1_555
H2 C4 1_555 1_555
C5 C4 1_555 1_555
H3 C5 1_555 1_555
C6 N1 1_555 1_555
H4 C6 1_555 1_555
Pb1B N1 1_555 1_555
Pb1B_2 N1A 1_555 1_555
O1A Pb1 1_555 1_555
O2A Pb1 1_555 1_555
N1A C5A 1_555 1_555
N1B Pb1 1_555 1_555
N1C Pb1 1_555 1_555
C1A O1A 1_555 1_555
C2A C1A 1_555 1_555
C3A C2A 1_555 1_555
H1A C3A 1_555 1_555
C4A C3A 1_555 1_555
H2A C4A 1_555 1_555
C5A C4A 1_555 1_555
H3A C5A 1_555 1_555
C6A N1A 1_555 1_555
H4A C6A 1_555 1_555
C2 C6 1_555 1_555
O2A C1A 1_555 1_555
C2A C6A 1_555 1_555

#END
