
#######################################################################
#
#                 Cambridge Crystallographic Data Centre
#                                CCDC 
#
#######################################################################
#
# If this CIF has been generated from an entry in the Cambridge 
# Structural Database, then it will include bibliographic, chemical, 
# crystal, experimental, refinement or atomic coordinate data resulting 
# from the CCDC's data processing and validation procedures.
#
#######################################################################

data_NICOPB03
_symmetry_cell_setting           orthorhombic
_symmetry_space_group_name_H-M   'P c c n'
_symmetry_Int_Tables_number      56
_space_group_name_Hall           '-P 2ab 2ac'
loop_
_symmetry_equiv_pos_site_id
_symmetry_equiv_pos_as_xyz
1 x,y,z
2 1/2-x,1/2-y,z
3 1/2+x,-y,1/2-z
4 -x,1/2+y,1/2-z
5 -x,-y,-z
6 1/2+x,1/2+y,-z
7 1/2-x,y,1/2+z
8 x,1/2-y,1/2+z
_cell_length_a                   13.6471(3)
_cell_length_b                   10.2417(2)
_cell_length_c                   8.40601(18)
_cell_angle_alpha                90
_cell_angle_beta                 90
_cell_angle_gamma                90
_cell_volume                     1174.9
loop_
_atom_site_label
_atom_site_type_symbol
_atom_site_fract_x
_atom_site_fract_y
_atom_site_fract_z
Pb1 Pb 0.2500 0.7500 0.09314(3)
O1 O 0.3614(3) 0.7115(4) 0.3074(5)
O2 O 0.4030(2) 0.5663(4) 0.1209(4)
N1 N 0.6633(3) 0.4816(4) 0.3632(5)
C1 C 0.4201(3) 0.6284(5) 0.2460(5)
C2 C 0.5166(3) 0.6095(5) 0.3305(5)
C3 C 0.5457(3) 0.6926(5) 0.4495(6)
H1 H 0.5058 0.7645 0.4793
C4 C 0.6347(3) 0.6699(5) 0.5259(6)
H2 H 0.6569 0.7268 0.6075
C5 C 0.6899(3) 0.5637(5) 0.4813(6)
H3 H 0.7495 0.5472 0.5362
C6 C 0.5778(3) 0.5035(5) 0.2900(5)
H4 H 0.5575 0.4457 0.2080
Pb1F Pb 0.2500 0.7500 0.59314(3)
Pb1B Pb 0.7500 0.2500 0.40686(3)
Pb1B_2 Pb -0.2500 1.2500 0.40686(3)
O1A O 0.1386(3) 0.7885(4) 0.3074(5)
O1F O 0.1386(3) 0.7115(4) -0.1926(5)
O1G O 0.3614(3) 0.7885(4) -0.1926(5)
O2A O 0.0970(2) 0.9337(4) 0.1209(4)
N1A N -0.1633(3) 1.0184(4) 0.3632(5)
N1B N 0.1633(3) 0.5184(4) 0.1368(5)
N1C N 0.3367(3) 0.9816(4) 0.1368(5)
C1A C 0.0799(3) 0.8716(5) 0.2460(5)
C2A C -0.0166(3) 0.8905(5) 0.3305(5)
C3A C -0.0457(3) 0.8074(5) 0.4495(6)
H1A H -0.0058 0.7355 0.4793
C4A C -0.1347(3) 0.8301(5) 0.5259(6)
H2A H -0.1569 0.7732 0.6075
C5A C -0.1899(3) 0.9363(5) 0.4813(6)
H3A H -0.2495 0.9528 0.5362
C6A C -0.0778(3) 0.9965(5) 0.2900(5)
H4A H -0.0575 1.0543 0.2080
loop_
_geom_bond_atom_site_label_1
_geom_bond_atom_site_label_2
_geom_bond_site_symmetry_1
_geom_bond_site_symmetry_2
Pb1 O1 1_555 1_555
O1 C1 1_555 1_555
O2 Pb1 1_555 1_555
N1 C5 1_555 1_555
C1 O2 1_555 1_555
C2 C1 1_555 1_555
C3 C2 1_555 1_555
H1 C3 1_555 1_555
C4 C3 1_555 1_555
H2 C4 1_555 1_555
C5 C4 1_555 1_555
H3 C5 1_555 1_555
C6 N1 1_555 1_555
H4 C6 1_555 1_555
Pb1F O1 1_555 1_555
Pb1B N1 1_555 1_555
Pb1B_2 N1A 1_555 1_555
O1A Pb1 1_555 1_555
O1F Pb1 1_555 1_555
O1G Pb1 1_555 1_555
O2A Pb1 1_555 1_555
N1A C5A 1_555 1_555
N1B Pb1 1_555 1_555
N1C Pb1 1_555 1_555
C1A O1A 1_555 1_555
C2A C1A 1_555 1_555
C3A C2A 1_555 1_555
H1A C3A 1_555 1_555
C4A C3A 1_555 1_555
H2A C4A 1_555 1_555
C5A C4A 1_555 1_555
H3A C5A 1_555 1_555
C6A N1A 1_555 1_555
H4A C6A 1_555 1_555
C2 C6 1_555 1_555
Pb1F O1A 1_555 1_555
O2A C1A 1_555 1_555
C2A C6A 1_555 1_555

#END
