
#######################################################################
#
#                 Cambridge Crystallographic Data Centre
#                                CCDC 
#
#######################################################################
#
# If this CIF has been generated from an entry in the Cambridge 
# Structural Database, then it will include bibliographic, chemical, 
# crystal, experimental, refinement or atomic coordinate data resulting 
# from the CCDC's data processing and validation procedures.
#
#######################################################################

data_NICOPB
_symmetry_cell_setting           orthorhombic
_symmetry_space_group_name_H-M   'P c c n'
_symmetry_Int_Tables_number      56
_space_group_name_Hall           '-P 2ab 2ac'
loop_
_symmetry_equiv_pos_site_id
_symmetry_equiv_pos_as_xyz
1 x,y,z
2 1/2-x,y,1/2+z
3 x,1/2-y,1/2+z
4 1/2-x,1/2-y,z
5 -x,-y,-z
6 1/2+x,-y,1/2-z
7 -x,1/2+y,1/2-z
8 1/2+x,1/2+y,-z
_cell_length_a                   13.57(1)
_cell_length_b                   10.29(1)
_cell_length_c                   8.46(1)
_cell_angle_alpha                90
_cell_angle_beta                 90
_cell_angle_gamma                90
_cell_volume                     1181.31
loop_
_atom_site_label
_atom_site_type_symbol
_atom_site_fract_x
_atom_site_fract_y
_atom_site_fract_z
C1 C -0.57820 -0.00860 0.20660
C2 C -0.51800 -0.10620 0.16620
C3 C -0.54680 -0.19490 0.05180
C4 C -0.63620 -0.16500 -0.02790
C5 C -0.68940 -0.05840 0.02220
C6 C -0.42030 -0.12590 0.25280
H1 H -0.55700 0.04800 0.29100
H2 H -0.50300 -0.26600 0.02500
H3 H -0.65800 -0.22000 -0.11300
H4 H -0.75300 -0.04000 -0.02600
N1 N -0.66370 0.01690 0.13240
O1 O -0.36170 -0.20730 0.19410
O2 O -0.40160 -0.07040 0.37710
Pb1 Pb -0.25000 -0.25000 0.40630
N1F N -0.33630 -0.48310 0.36760
N1E N -0.16370 -0.01690 0.36760
C1C C 0.07820 -0.49140 0.20660
C2C C 0.01800 -0.39380 0.16620
C3C C 0.04680 -0.30510 0.05180
C4C C 0.13620 -0.33500 -0.02790
C5C C 0.18940 -0.44160 0.02220
C6C C -0.07970 -0.37410 0.25280
H1C H 0.05700 -0.54800 0.29100
H2C H 0.00300 -0.23400 0.02500
H3C H 0.15800 -0.28000 -0.11300
H4C H 0.25300 -0.46000 -0.02600
N1C N 0.16370 -0.51690 0.13240
O1C O -0.13830 -0.29270 0.19410
O2C O -0.09840 -0.42960 0.37710
Pb1E Pb -0.75000 0.25000 0.09370
Pb1E_2 Pb 0.25000 -0.75000 0.09370
loop_
_geom_bond_atom_site_label_1
_geom_bond_atom_site_label_2
_geom_bond_site_symmetry_1
_geom_bond_site_symmetry_2
C1 C2 1_555 1_555
C2 C3 1_555 1_555
C3 C4 1_555 1_555
C4 C5 1_555 1_555
C5 H4 1_555 1_555
C6 C2 1_555 1_555
H1 C1 1_555 1_555
H2 C3 1_555 1_555
H3 C4 1_555 1_555
N1 C1 1_555 1_555
O1 C6 1_555 1_555
O2 C6 1_555 1_555
Pb1 O1 1_555 1_555
N1F Pb1 1_555 1_555
N1E Pb1 1_555 1_555
C1C C2C 1_555 1_555
C2C C3C 1_555 1_555
C3C C4C 1_555 1_555
C4C C5C 1_555 1_555
C5C H4C 1_555 1_555
C6C C2C 1_555 1_555
H1C C1C 1_555 1_555
H2C C3C 1_555 1_555
H3C C4C 1_555 1_555
N1C C1C 1_555 1_555
O1C Pb1 1_555 1_555
O2C Pb1 1_555 1_555
Pb1E N1 1_555 1_555
Pb1E_2 N1C 1_555 1_555
C5 N1 1_555 1_555
O2 Pb1 1_555 1_555
C5C N1C 1_555 1_555
C6C O1C 1_555 1_555
C6C O2C 1_555 1_555

#END
