
#######################################################################
#
#                 Cambridge Crystallographic Data Centre
#                                CCDC 
#
#######################################################################
#
# If this CIF has been generated from an entry in the Cambridge 
# Structural Database, then it will include bibliographic, chemical, 
# crystal, experimental, refinement or atomic coordinate data resulting 
# from the CCDC's data processing and validation procedures.
#
#######################################################################

data_NICPOF
_symmetry_cell_setting           monoclinic
_symmetry_space_group_name_H-M   'C c'
_symmetry_Int_Tables_number      9
_space_group_name_Hall           'C -2yc'
loop_
_symmetry_equiv_pos_site_id
_symmetry_equiv_pos_as_xyz
1 x,y,z
2 x,-y,1/2+z
3 1/2+x,1/2+y,z
4 1/2+x,1/2-y,1/2+z
_cell_length_a                   17.793(4)
_cell_length_b                   39.817(8)
_cell_length_c                   10.563(2)
_cell_angle_alpha                90
_cell_angle_beta                 112.07(3)
_cell_angle_gamma                90
_cell_volume                     6935.15
loop_
_atom_site_label
_atom_site_type_symbol
_atom_site_fract_x
_atom_site_fract_y
_atom_site_fract_z
O1 O 0.2683(6) 0.3129(3) 1.0010(12)
O2 O 0.3286(5) 0.26190(19) 1.0979(8)
O3 O 1.0928(5) 0.3224(2) 2.0986(10)
S1 S 0.33915(10) 0.29484(6) 1.02428(18)
O7 O 0.3663(3) 0.28358(13) 0.9222(4)
S2 S 1.02189(10) 0.30253(5) 2.07527(18)
O8 O 0.9935(3) 0.29402(14) 2.1867(5)
O9 O 1.0357(4) 0.27202(19) 2.0107(5)
S3 S 0.6372(2) 0.57588(5) 1.5064(4)
O10 O 0.6420(8) 0.5873(3) 1.6384(13)
O11 O 0.6997(8) 0.5890(3) 1.4681(13)
O12 O 0.5645(8) 0.5802(3) 1.3811(13)
H1 H 0.5237 0.5730 1.3942
Cu1 Cu 0.41869(5) 0.247415(16) 0.79725(7)
N1 N 0.5003(3) 0.28358(12) 0.8032(4)
C1 C 0.7351(3) 0.37306(14) 1.6513(6)
N2 N 0.4945(3) 0.22699(13) 0.9743(5)
C2 C 0.6752(4) 0.35452(13) 1.5511(7)
H2 H 0.6783 0.3307 1.5513
N3 N 0.3406(3) 0.26727(12) 0.6180(5)
C3 C 0.6112(3) 0.37078(14) 1.4515(6)
N4 N 0.3346(3) 0.21152(12) 0.7711(5)
C4 C 0.6099(3) 0.40538(15) 1.4471(6)
H3 H 0.5667 0.4165 1.3775
C5 C 0.6728(5) 0.42504(13) 1.5462(7)
C6 C 0.7324(4) 0.40786(14) 1.6470(6)
H4 H 0.7731 0.4202 1.7161
C7 C 0.4818(4) 0.31605(15) 0.8087(6)
H5 H 0.4297 0.3215 0.8084
C8 C 0.5346(5) 0.34182(19) 0.8147(8)
H6 H 0.5188 0.3646 0.8152
C9 C 0.5740(4) 0.27621(15) 0.8028(6)
H7 H 0.5879 0.2533 0.7984
C10 C 0.6112(5) 0.33374(18) 0.8200(8)
H8 H 0.6504 0.3509 0.8314
C11 C 0.6302(4) 0.3006(2) 0.8086(8)
H9 H 0.6810 0.2947 0.8048
C12 C 0.5331(4) 0.24667(17) 1.0813(7)
H10 H 0.5285 0.2703 1.0684
C13 C 0.5793(4) 0.2347(2) 1.2094(6)
H11 H 0.6039 0.2495 1.2841
C14 C 0.5886(4) 0.2001(3) 1.2251(7)
H12 H 0.6202 0.1908 1.3116
C15 C 0.5538(5) 0.18046(19) 1.1205(8)
H13 H 0.5618 0.1569 1.1302
C16 C 0.5050(4) 0.19396(16) 0.9944(6)
H14 H 0.4783 0.1792 0.9206
C17 C 0.3564(4) 0.2645(2) 0.5076(6)
H15 H 0.4076 0.2559 0.5142
C18 C 0.2998(5) 0.2738(2) 0.3797(7)
H16 H 0.3102 0.2692 0.2994
C19 C 0.2316(4) 0.2889(3) 0.3705(8)
H17 H 0.1957 0.2976 0.2855
C20 C 0.2140(5) 0.2919(2) 0.4833(7)
H18 H 0.1638 0.3013 0.4779
C21 C 0.2718(4) 0.2807(2) 0.6109(7)
H19 H 0.2604 0.2830 0.6914
C22 C 0.3225(4) 0.18782(16) 0.6730(7)
H20 H 0.3572 0.1879 0.6230
C23 C 0.2611(4) 0.16301(19) 0.6411(8)
H21 H 0.2561 0.1459 0.5759
C24 C 0.2084(4) 0.16517(16) 0.7109(7)
H22 H 0.1652 0.1496 0.6923
C25 C 0.2190(5) 0.18944(19) 0.8046(8)
H23 H 0.1824 0.1911 0.8506
C26 C 0.2828(4) 0.21219(17) 0.8352(7)
H24 H 0.2896 0.2287 0.9037
C27 C 0.5471(3) 0.35109(15) 1.3439(6)
C28 C 0.5220(4) 0.32044(16) 1.3753(7)
H25 H 0.5481 0.3116 1.4647
C29 C 0.4595(4) 0.30212(19) 1.2795(7)
H26 H 0.4432 0.2811 1.3031
C30 C 0.4220(4) 0.31501(19) 1.1504(7)
C31 C 0.4461(4) 0.34616(19) 1.1129(7)
H27 H 0.4207 0.3548 1.0229
C32 C 0.5093(4) 0.36410(16) 1.2137(6)
H28 H 0.5259 0.3853 1.1917
C33 C 0.8059(4) 0.35536(14) 1.7552(6)
C34 C 0.8441(4) 0.36919(15) 1.8861(6)
H29 H 0.8243 0.3893 1.9104
C35 C 0.9114(4) 0.35312(18) 1.9798(7)
H30 H 0.9387 0.3630 2.0670
C36 C 0.9393(3) 0.32318(18) 1.9484(6)
C37 C 0.9003(4) 0.30893(18) 1.8217(7)
H31 H 0.9189 0.2880 1.8012
C38 C 0.8356(4) 0.32420(16) 1.7254(6)
H32 H 0.8102 0.3141 1.6381
C39 C 0.6680(4) 0.46187(11) 1.5403(7)
C40 C 0.6389(5) 0.47736(15) 1.4130(6)
H33 H 0.6242 0.4642 1.3323
C41 C 0.6312(5) 0.51210(16) 1.4038(6)
H34 H 0.6113 0.5227 1.3169
C42 C 0.6526(5) 0.53137(11) 1.5219(8)
C43 C 0.6817(5) 0.51588(15) 1.6492(6)
H35 H 0.6964 0.5290 1.7299
C44 C 0.6894(5) 0.48114(16) 1.6584(5)
H36 H 0.7093 0.4706 1.7453
O8C O 0.4935(3) 0.20598(14) 0.6867(5)
Cu1C Cu 0.91869(5) 0.252585(16) 2.29725(7)
O13 O 0.6754(3) 0.26591(10) 0.5464(5)
N5 N 0.3415(18) 0.3736(8) 0.360(3)
C45 C 0.3827(13) 0.3763(9) 0.501(3)
H37 H 0.4402 0.3748 0.5390
C46 C 0.3398(18) 0.3812(7) 0.585(2)
H38 H 0.3679 0.3830 0.6813
C47 C 0.2557(18) 0.3834(11) 0.529(3)
H39 H 0.2263 0.3867 0.5873
C48 C 0.2145(13) 0.3807(13) 0.389(4)
H40 H 0.1570 0.3822 0.3508
C49 C 0.2574(18) 0.3758(9) 0.304(2)
H41 H 0.2293 0.3740 0.2085
N6 N 0.4023(9) 0.1004(4) 0.0519(14)
C50 C 0.4832(8) 0.0974(4) 0.0677(14)
H42 H 0.5247 0.0991 0.1560
C51 C 0.5033(8) 0.0920(5) -0.0457(18)
H43 H 0.5586 0.0899 -0.0349
C52 C 0.4425(11) 0.0895(5) -0.1749(15)
H44 H 0.4563 0.0857 -0.2524
C53 C 0.3617(10) 0.0924(5) -0.1907(13)
H45 H 0.3201 0.0907 -0.2790
C54 C 0.3415(8) 0.0979(4) -0.0773(17)
H46 H 0.2863 0.0999 -0.0881
O4? O 0.2804(9) 0.3226(4) 0.9485(17)
O5? O 0.2955(10) 0.2787(4) 1.0830(16)
O6? O 0.0802(8) 0.3312(3) 0.1456(14)
loop_
_geom_bond_atom_site_label_1
_geom_bond_atom_site_label_2
_geom_bond_site_symmetry_1
_geom_bond_site_symmetry_2
O1 S1 1_555 1_555
O2 S1 1_555 1_555
O3 S2 1_555 1_555
S1 O7 1_555 1_555
O7 Cu1 1_555 1_555
S2 O8 1_555 1_555
O8 Cu1C 1_555 1_555
O9 S2 1_555 1_555
S3 O10 1_555 1_555
O11 S3 1_555 1_555
O12 S3 1_555 1_555
H1 O12 1_555 1_555
Cu1 N1 1_555 1_555
N1 C7 1_555 1_555
C1 C2 1_555 1_555
N2 Cu1 1_555 1_555
C2 H2 1_555 1_555
N3 Cu1 1_555 1_555
C3 C2 1_555 1_555
N4 Cu1 1_555 1_555
C4 C3 1_555 1_555
H3 C4 1_555 1_555
C5 C4 1_555 1_555
C6 C1 1_555 1_555
H4 C6 1_555 1_555
C7 H5 1_555 1_555
C8 C7 1_555 1_555
H6 C8 1_555 1_555
C9 N1 1_555 1_555
H7 C9 1_555 1_555
C10 C8 1_555 1_555
H8 C10 1_555 1_555
C11 C9 1_555 1_555
H9 C11 1_555 1_555
C12 N2 1_555 1_555
H10 C12 1_555 1_555
C13 C12 1_555 1_555
H11 C13 1_555 1_555
C14 C13 1_555 1_555
H12 C14 1_555 1_555
C15 C14 1_555 1_555
H13 C15 1_555 1_555
C16 N2 1_555 1_555
H14 C16 1_555 1_555
C17 N3 1_555 1_555
H15 C17 1_555 1_555
C18 C17 1_555 1_555
H16 C18 1_555 1_555
C19 C18 1_555 1_555
H17 C19 1_555 1_555
C20 C19 1_555 1_555
H18 C20 1_555 1_555
C21 N3 1_555 1_555
H19 C21 1_555 1_555
C22 N4 1_555 1_555
H20 C22 1_555 1_555
C23 C22 1_555 1_555
H21 C23 1_555 1_555
C24 C23 1_555 1_555
H22 C24 1_555 1_555
C25 C24 1_555 1_555
H23 C25 1_555 1_555
C26 N4 1_555 1_555
H24 C26 1_555 1_555
C27 C3 1_555 1_555
C28 C27 1_555 1_555
H25 C28 1_555 1_555
C29 C28 1_555 1_555
H26 C29 1_555 1_555
C30 S1 1_555 1_555
C31 C30 1_555 1_555
H27 C31 1_555 1_555
C32 C27 1_555 1_555
H28 C32 1_555 1_555
C33 C1 1_555 1_555
C34 C33 1_555 1_555
H29 C34 1_555 1_555
C35 C34 1_555 1_555
H30 C35 1_555 1_555
C36 S2 1_555 1_555
C37 C36 1_555 1_555
H31 C37 1_555 1_555
C38 C33 1_555 1_555
H32 C38 1_555 1_555
C39 C5 1_555 1_555
C40 C39 1_555 1_555
H33 C40 1_555 1_555
C41 C40 1_555 1_555
H34 C41 1_555 1_555
C42 S3 1_555 1_555
C43 C42 1_555 1_555
H35 C43 1_555 1_555
C44 C39 1_555 1_555
H36 C44 1_555 1_555
N5 C45 1_555 1_555
C45 H37 1_555 1_555
C46 C45 1_555 1_555
H38 C46 1_555 1_555
C47 C46 1_555 1_555
H39 C47 1_555 1_555
C48 C47 1_555 1_555
H40 C48 1_555 1_555
C49 N5 1_555 1_555
H41 C49 1_555 1_555
N6 C50 1_555 1_555
C50 H42 1_555 1_555
C51 C50 1_555 1_555
H43 C51 1_555 1_555
C52 C51 1_555 1_555
H44 C52 1_555 1_555
C53 C52 1_555 1_555
H45 C53 1_555 1_555
C54 N6 1_555 1_555
H46 C54 1_555 1_555
O8C Cu1 1_555 1_555
C5 C6 1_555 1_555
C10 C11 1_555 1_555
C15 C16 1_555 1_555
C20 C21 1_555 1_555
C25 C26 1_555 1_555
C29 C30 1_555 1_555
C31 C32 1_555 1_555
C35 C36 1_555 1_555
C37 C38 1_555 1_555
C41 C42 1_555 1_555
C43 C44 1_555 1_555
C48 C49 1_555 1_555
C53 C54 1_555 1_555

#END
