
#######################################################################
#
#                 Cambridge Crystallographic Data Centre
#                                CCDC 
#
#######################################################################
#
# If this CIF has been generated from an entry in the Cambridge 
# Structural Database, then it will include bibliographic, chemical, 
# crystal, experimental, refinement or atomic coordinate data resulting 
# from the CCDC's data processing and validation procedures.
#
#######################################################################

data_NICPIZ
_symmetry_cell_setting           triclinic
_symmetry_space_group_name_H-M   'P -1'
_symmetry_Int_Tables_number      2
_space_group_name_Hall           '-P 1'
loop_
_symmetry_equiv_pos_site_id
_symmetry_equiv_pos_as_xyz
1 x,y,z
2 -x,-y,-z
_cell_length_a                   10.510(2)
_cell_length_b                   14.158(3)
_cell_length_c                   21.748(4)
_cell_angle_alpha                108.91(3)
_cell_angle_beta                 93.16(3)
_cell_angle_gamma                90.43(3)
_cell_volume                     3055.7
loop_
_atom_site_label
_atom_site_type_symbol
_atom_site_fract_x
_atom_site_fract_y
_atom_site_fract_z
N1 N 2.1075(6) 1.2386(6) 0.3335(4)
C1 C 2.1333(6) 1.3203(6) 0.3136(4)
H1 H 2.2118 1.3567 0.3272
C2 C 2.0442(8) 1.3487(6) 0.2737(5)
H2 H 2.0618 1.4045 0.2601
C3 C 1.9293(7) 1.2953(7) 0.2537(4)
H3 H 1.8685 1.3147 0.2265
C4 C 1.9036(6) 1.2136(7) 0.2737(5)
H4 H 1.8251 1.1772 0.2600
C5 C 1.9926(7) 1.1853(6) 0.3135(4)
H5 H 1.9750 1.1294 0.3271
N2 N 2.2007(7) 1.3520(4) 0.4652(3)
C6 C 2.1780(7) 1.3671(4) 0.5300(3)
H6 H 2.1634 1.3116 0.5443
C7 C 2.1765(8) 1.4636(5) 0.5738(3)
H7 H 2.1610 1.4739 0.6181
C8 C 2.1978(9) 1.5449(4) 0.5528(4)
H8 H 2.1968 1.6108 0.5827
C9 C 2.2205(9) 1.5298(4) 0.4880(4)
H9 H 2.2351 1.5853 0.4736
C10 C 2.2220(8) 1.4333(5) 0.4442(3)
H10 H 2.2375 1.4229 0.3999
N3 N 0.9511(9) 0.9425(7) 0.0767(3)
C11 C 0.9334(10) 0.8413(6) 0.0674(4)
H11 H 0.9334 0.7942 0.0248
C12 C 0.9156(12) 0.8091(7) 0.1204(6)
H12 H 0.9035 0.7400 0.1140
C13 C 0.9156(13) 0.8781(9) 0.1826(5)
H13 H 0.9034 0.8561 0.2188
C14 C 0.9333(11) 0.9793(8) 0.1920(3)
H14 H 0.9333 1.0265 0.2346
C15 C 0.9511(9) 1.0115(6) 0.1390(4)
H15 H 0.9632 1.0807 0.1454
N4 N 1.1474(7) 1.0599(7) 0.0532(4)
C16 C 1.1700(8) 1.1598(7) 0.0602(5)
H16 H 1.1087 1.1951 0.0431
C17 C 1.2822(10) 1.2080(7) 0.0923(5)
H17 H 1.2976 1.2763 0.0971
C18 C 1.3719(8) 1.1563(9) 0.1173(5)
H18 H 1.4486 1.1893 0.1393
C19 C 1.3493(8) 1.0564(9) 0.1103(5)
H19 H 1.4106 1.0210 0.1274
C20 C 1.2371(8) 1.0082(6) 0.0782(4)
H20 H 1.2217 0.9398 0.0734
Cu1 Cu 2.22539(6) 1.20657(5) 0.40036(3)
Cu2 Cu 1.0000 1.0000 0.0000
S1 S 1.91642(13) 1.15537(10) 0.47441(8)
O1 O 1.8567(4) 1.2470(3) 0.4741(2)
O2 O 2.0503(3) 1.1533(3) 0.4604(2)
O3 O 1.8944(4) 1.1302(3) 0.5331(2)
S2 S 1.20927(19) 0.76952(14) -0.07203(8)
O4 O 1.2979(5) 0.8048(4) -0.1076(2)
O5 O 1.1134(5) 0.8405(4) -0.0454(2)
O6 O 1.1555(7) 0.6705(5) -0.1073(3)
S3 S 1.51517(15) 0.26947(12) 0.31710(8)
O7 O 1.6122(4) 0.2835(3) 0.3682(2)
O8 O 1.5370(8) 0.1847(4) 0.2609(3)
O9 O 1.3892(4) 0.2689(4) 0.3407(3)
C41 C 1.6440(5) 0.8104(4) 0.2651(3)
C42 C 1.5829(5) 0.8149(4) 0.2072(3)
H41 H 1.5916 0.8740 0.1960
C43 C 1.5095(5) 0.7344(4) 0.1658(3)
C44 C 1.5010(6) 0.6477(4) 0.1823(3)
H42 H 1.4534 0.5918 0.1539
C45 C 1.5602(6) 0.6408(4) 0.2394(3)
C46 C 1.6298(5) 0.7229(4) 0.2802(2)
H43 H 1.6692 0.7192 0.3197
C47 C 1.7178(5) 0.8973(4) 0.3116(3)
C48 C 1.6808(5) 0.9950(4) 0.3210(3)
H44 H 1.6128 1.0073 0.2942
C49 C 1.7421(5) 1.0754(4) 0.3694(3)
H45 H 1.7165 1.1418 0.3753
C50 C 1.8414(5) 1.0568(4) 0.4087(3)
C51 C 1.8802(5) 0.9594(4) 0.3988(3)
H46 H 1.9477 0.9471 0.4258
C52 C 1.8212(5) 0.8806(4) 0.3499(3)
H47 H 1.8509 0.8148 0.3422
C53 C 1.4390(6) 0.7418(4) 0.1070(3)
C54 C 1.4882(7) 0.7945(5) 0.0691(3)
H48 H 1.5705 0.8254 0.0805
C55 C 1.4191(7) 0.8027(6) 0.0149(3)
H49 H 1.4539 0.8398 -0.0099
C56 C 1.2995(7) 0.7570(5) -0.0033(3)
C57 C 1.2501(7) 0.7027(5) 0.0331(3)
H50 H 1.1693 0.6694 0.0203
C58 C 1.3174(6) 0.6969(5) 0.0873(3)
H51 H 1.2807 0.6613 0.1126
C59 C 1.5484(6) 0.5486(4) 0.2570(3)
C60 C 1.5769(7) 0.4551(5) 0.2139(3)
H52 H 1.6043 0.4498 0.1720
C61 C 1.5655(7) 0.3701(5) 0.2317(3)
H53 H 1.5849 0.3068 0.2020
C62 C 1.5265(6) 0.3767(4) 0.2918(3)
C63 C 1.5040(7) 0.4684(5) 0.3363(3)
H54 H 1.4803 0.4730 0.3786
C64 C 1.5161(7) 0.5547(5) 0.3190(3)
H55 H 1.5020 0.6181 0.3500
N9 N 2.3537(4) 1.1783(4) 0.4652(2)
C65 C 2.4715(7) 1.2171(9) 0.4729(4)
H56 H 2.4923 1.2584 0.4478
C66 C 2.5654(7) 1.2010(9) 0.5150(4)
H57 H 2.6486 1.2295 0.5178
C67 C 2.5380(5) 1.1440(5) 0.5525(3)
H58 H 2.6007 1.1318 0.5821
C68 C 2.4160(6) 1.1046(5) 0.5461(3)
H59 H 2.3935 1.0638 0.5711
C69 C 2.3251(5) 1.1244(5) 0.5030(3)
H60 H 2.2405 1.0987 0.5004
N10 N 2.2335(4) 1.0639(3) 0.3417(2)
C70 C 2.1846(6) 0.9883(4) 0.3578(3)
H61 H 2.1417 1.0037 0.3970
C71 C 2.1930(8) 0.8891(5) 0.3205(3)
H62 H 2.1580 0.8379 0.3345
C72 C 2.2525(7) 0.8655(5) 0.2632(3)
H63 H 2.2595 0.7979 0.2367
C73 C 2.3016(7) 0.9413(5) 0.2449(3)
H64 H 2.3426 0.9271 0.2052
C74 C 2.2909(6) 1.0390(5) 0.2849(3)
H65 H 2.3256 1.0910 0.2717
N1A N -0.1075(6) 0.7614(6) -0.3335(4)
C1A C -0.1333(6) 0.6797(6) -0.3136(4)
H1A H -0.2118 0.6433 -0.3272
C2A C -0.0442(8) 0.6513(6) -0.2737(5)
H2A H -0.0618 0.5955 -0.2601
C3A C 0.0707(7) 0.7047(7) -0.2537(4)
H3A H 0.1315 0.6853 -0.2265
C4A C 0.0964(6) 0.7864(7) -0.2737(5)
H4A H 0.1749 0.8228 -0.2600
C5A C 0.0074(7) 0.8147(6) -0.3135(4)
H5A H 0.0250 0.8706 -0.3271
N2A N -0.2007(7) 0.6480(4) -0.4652(3)
C6A C -0.1780(7) 0.6329(4) -0.5300(3)
H6A H -0.1634 0.6884 -0.5443
C7A C -0.1765(8) 0.5364(5) -0.5738(3)
H7A H -0.1610 0.5261 -0.6181
C8A C -0.1978(9) 0.4551(4) -0.5528(4)
H8A H -0.1968 0.3892 -0.5827
C9A C -0.2205(9) 0.4702(4) -0.4880(4)
H9A H -0.2351 0.4147 -0.4736
C10A C -0.2220(8) 0.5667(5) -0.4442(3)
H10A H -0.2375 0.5771 -0.3999
N3A N 1.0489(9) 1.0575(7) -0.0767(3)
C11A C 1.0666(10) 1.1587(6) -0.0674(4)
H11A H 1.0666 1.2058 -0.0248
C12A C 1.0844(12) 1.1909(7) -0.1204(6)
H12A H 1.0965 1.2600 -0.1140
C13A C 1.0844(13) 1.1219(9) -0.1826(5)
H13A H 1.0966 1.1439 -0.2188
C14A C 1.0667(11) 1.0207(8) -0.1920(3)
H14A H 1.0667 0.9735 -0.2346
C15A C 1.0489(9) 0.9885(6) -0.1390(4)
H15A H 1.0368 0.9193 -0.1454
N4A N 0.8526(7) 0.9401(7) -0.0532(4)
C16A C 0.8300(8) 0.8402(7) -0.0602(5)
H16A H 0.8913 0.8049 -0.0431
C17A C 0.7178(10) 0.7920(7) -0.0923(5)
H17A H 0.7024 0.7237 -0.0971
C18A C 0.6281(8) 0.8437(9) -0.1173(5)
H18A H 0.5514 0.8107 -0.1393
C19A C 0.6507(8) 0.9436(9) -0.1103(5)
H19A H 0.5894 0.9790 -0.1274
C20A C 0.7629(8) 0.9918(6) -0.0782(4)
H20A H 0.7783 1.0602 -0.0734
Cu1A Cu -0.22539(6) 0.79343(5) -0.40036(3)
Cu1_2 Cu 1.22539(6) 0.20657(5) 0.40036(3)
Cu1A_2 Cu 0.77461(6) 1.79343(5) -0.40036(3)
S1A S 0.08358(13) 0.84463(10) -0.47441(8)
O1A O 0.1433(4) 0.7530(3) -0.4741(2)
O2A O -0.0503(3) 0.8467(3) -0.4604(2)
O3A O 0.1056(4) 0.8698(3) -0.5331(2)
S2A S 0.79073(19) 1.23048(14) 0.07203(8)
O4A O 0.7021(5) 1.1952(4) 0.1076(2)
O5A O 0.8866(5) 1.1595(4) 0.0454(2)
O6A O 0.8445(7) 1.3295(5) 0.1073(3)
S3A S 0.48483(15) 1.73053(12) -0.31710(8)
O7A O 0.3878(4) 1.7165(3) -0.3682(2)
O8A O 0.4630(8) 1.8153(4) -0.2609(3)
O9A O 0.6108(4) 1.7311(4) -0.3407(3)
O9_2 O 2.3892(4) 1.2689(4) 0.3407(3)
O9A_2 O -0.3892(4) 0.7311(4) -0.3407(3)
C41A C 0.3560(5) 1.1896(4) -0.2651(3)
C42A C 0.4171(5) 1.1851(4) -0.2072(3)
H41A H 0.4084 1.1260 -0.1960
C43A C 0.4905(5) 1.2656(4) -0.1658(3)
C44A C 0.4990(6) 1.3523(4) -0.1823(3)
H42A H 0.5466 1.4082 -0.1539
C45A C 0.4398(6) 1.3592(4) -0.2394(3)
C46A C 0.3702(5) 1.2771(4) -0.2802(2)
H43A H 0.3308 1.2808 -0.3197
C47A C 0.2822(5) 1.1027(4) -0.3116(3)
C48A C 0.3192(5) 1.0050(4) -0.3210(3)
H44A H 0.3872 0.9927 -0.2942
C49A C 0.2579(5) 0.9246(4) -0.3694(3)
H45A H 0.2835 0.8582 -0.3753
C50A C 0.1586(5) 0.9432(4) -0.4087(3)
C51A C 0.1198(5) 1.0406(4) -0.3988(3)
H46A H 0.0523 1.0529 -0.4258
C52A C 0.1788(5) 1.1194(4) -0.3499(3)
H47A H 0.1491 1.1852 -0.3422
C53A C 0.5610(6) 1.2582(4) -0.1070(3)
C54A C 0.5118(7) 1.2055(5) -0.0691(3)
H48A H 0.4295 1.1746 -0.0805
C55A C 0.5809(7) 1.1973(6) -0.0149(3)
H49A H 0.5461 1.1602 0.0099
C56A C 0.7005(7) 1.2430(5) 0.0033(3)
C57A C 0.7499(7) 1.2973(5) -0.0331(3)
H50A H 0.8307 1.3306 -0.0203
C58A C 0.6826(6) 1.3031(5) -0.0873(3)
H51A H 0.7193 1.3387 -0.1126
C59A C 0.4516(6) 1.4514(4) -0.2570(3)
C60A C 0.4231(7) 1.5449(5) -0.2139(3)
H52A H 0.3957 1.5502 -0.1720
C61A C 0.4345(7) 1.6299(5) -0.2317(3)
H53A H 0.4151 1.6932 -0.2020
C62A C 0.4735(6) 1.6233(4) -0.2918(3)
C63A C 0.4960(7) 1.5316(5) -0.3363(3)
H54A H 0.5197 1.5270 -0.3786
C64A C 0.4839(7) 1.4453(5) -0.3190(3)
H55A H 0.4980 1.3819 -0.3500
N9A N -0.3537(4) 0.8217(4) -0.4652(2)
C65A C -0.4715(7) 0.7829(9) -0.4729(4)
H56A H -0.4923 0.7416 -0.4478
C66A C -0.5654(7) 0.7990(9) -0.5150(4)
H57A H -0.6486 0.7705 -0.5178
C67A C -0.5380(5) 0.8560(5) -0.5525(3)
H58A H -0.6007 0.8682 -0.5821
C68A C -0.4160(6) 0.8954(5) -0.5461(3)
H59A H -0.3935 0.9362 -0.5711
C69A C -0.3251(5) 0.8756(5) -0.5030(3)
H60A H -0.2405 0.9013 -0.5004
N10A N -0.2335(4) 0.9361(3) -0.3417(2)
C70A C -0.1846(6) 1.0117(4) -0.3578(3)
H61A H -0.1417 0.9963 -0.3970
C71A C -0.1930(8) 1.1109(5) -0.3205(3)
H62A H -0.1580 1.1621 -0.3345
C72A C -0.2525(7) 1.1345(5) -0.2632(3)
H63A H -0.2595 1.2021 -0.2367
C73A C -0.3016(7) 1.0587(5) -0.2449(3)
H64A H -0.3426 1.0729 -0.2052
C74A C -0.2909(6) 0.9610(5) -0.2849(3)
H65A H -0.3256 0.9090 -0.2717
N11 N 1.0702(11) 0.6401(6) 0.3536(4)
C75 C 1.1822(8) 0.6200(8) 0.3212(7)
H66 H 1.2620 0.6275 0.3453
C76 C 1.1775(10) 0.5888(9) 0.2536(7)
H67 H 1.2541 0.5751 0.2314
C77 C 1.0608(14) 0.5777(11) 0.2183(4)
H68 H 1.0575 0.5564 0.1721
C78 C 0.9487(10) 0.5978(11) 0.2508(5)
H69 H 0.8689 0.5903 0.2267
C79 C 0.9534(8) 0.6290(8) 0.3184(5)
H70 H 0.8768 0.6427 0.3406
N12 N 0.3380(16) 0.4204(16) 0.0049(10)
C80 C 0.2088(17) 0.4351(16) -0.0047(8)
H71 H 0.1789 0.4547 -0.0407
C81 C 0.1232(14) 0.4212(15) 0.0383(9)
H72 H 0.0349 0.4313 0.0317
C82 C 0.167(2) 0.393(2) 0.0910(10)
H73 H 0.1085 0.3831 0.1204
C83 C 0.296(2) 0.378(2) 0.1006(11)
H74 H 0.3260 0.3584 0.1366
C84 C 0.3816(16) 0.392(2) 0.0576(12)
H75 H 0.4699 0.3818 0.0642
O10 O 0.6377(8) 1.0443(6) 0.1714(4)
N5? N 0.9030(6) 0.7603(7) 0.6638(4)
C21? C 0.8680(6) 0.7594(8) 0.7243(4)
H21? H 0.7832 0.7741 0.7366
C22? C 0.9571(9) 0.7368(9) 0.7668(3)
H22? H 0.9331 0.7362 0.8081
C23? C 1.0811(8) 0.7152(10) 0.7487(4)
H23? H 1.1420 0.6999 0.7778
C24? C 1.1161(6) 0.7162(9) 0.6882(4)
H24? H 1.2009 0.7014 0.6759
C25? C 1.0271(7) 0.7387(7) 0.6457(3)
H25? H 1.0510 0.7393 0.6044
N6? N 0.7619(9) 0.6561(5) 0.5454(5)
C26? C 0.8738(7) 0.6082(7) 0.5237(5)
H26? H 0.9525 0.6448 0.5327
C27? C 0.8704(7) 0.5067(7) 0.4889(6)
H27? H 0.9469 0.4739 0.4741
C28? C 0.7552(9) 0.4531(5) 0.4758(5)
H28? H 0.7529 0.3837 0.4520
C29? C 0.6433(7) 0.5010(6) 0.4975(5)
H29? H 0.5645 0.4643 0.4885
C30? C 0.6466(7) 0.6025(6) 0.5323(4)
H30? H 0.5701 0.6353 0.5471
N7? N 0.9628(10) 0.9684(8) 0.0732(4)
C31? C 1.0402(9) 0.9013(9) 0.0910(5)
H31? H 1.1143 0.8777 0.0682
C32? C 1.0092(11) 0.8685(10) 0.1422(5)
H32? H 1.0622 0.8226 0.1544
C33? C 0.9009(12) 0.9029(11) 0.1756(5)
H33? H 0.8797 0.8805 0.2105
C34? C 0.8235(10) 0.9701(10) 0.1578(5)
H34? H 0.7494 0.9936 0.1806
C35? C 0.8544(9) 1.0029(8) 0.1066(5)
H35? H 0.8015 1.0488 0.0944
N8? N 1.1697(7) 1.0743(8) 0.0474(4)
C36? C 1.2846(9) 1.0379(7) 0.0218(4)
H36? H 1.2860 0.9953 -0.0221
C37? C 1.3976(7) 1.0638(8) 0.0604(6)
H37? H 1.4761 1.0389 0.0429
C38? C 1.3955(9) 1.1261(9) 0.1246(6)
H38? H 1.4727 1.1438 0.1509
C39? C 1.2806(12) 1.1625(8) 0.1501(4)
H39? H 1.2792 1.2051 0.1940
C40? C 1.1677(9) 1.1366(8) 0.1115(4)
H40? H 1.0891 1.1614 0.1290
loop_
_geom_bond_atom_site_label_1
_geom_bond_atom_site_label_2
_geom_bond_site_symmetry_1
_geom_bond_site_symmetry_2
N1 C1 1_555 1_555
C1 H1 1_555 1_555
C2 C1 1_555 1_555
H2 C2 1_555 1_555
C3 C2 1_555 1_555
H3 C3 1_555 1_555
C4 C3 1_555 1_555
H4 C4 1_555 1_555
C5 N1 1_555 1_555
H5 C5 1_555 1_555
N2 C6 1_555 1_555
C6 H6 1_555 1_555
C7 C6 1_555 1_555
H7 C7 1_555 1_555
C8 C7 1_555 1_555
H8 C8 1_555 1_555
C9 C8 1_555 1_555
H9 C9 1_555 1_555
C10 N2 1_555 1_555
H10 C10 1_555 1_555
N3 C11 1_555 1_555
C11 H11 1_555 1_555
C12 C11 1_555 1_555
H12 C12 1_555 1_555
C13 C12 1_555 1_555
H13 C13 1_555 1_555
C14 C13 1_555 1_555
H14 C14 1_555 1_555
C15 N3 1_555 1_555
H15 C15 1_555 1_555
N4 C16 1_555 1_555
C16 H16 1_555 1_555
C17 C16 1_555 1_555
H17 C17 1_555 1_555
C18 C17 1_555 1_555
H18 C18 1_555 1_555
C19 C18 1_555 1_555
H19 C19 1_555 1_555
C20 N4 1_555 1_555
H20 C20 1_555 1_555
Cu1 N1 1_555 1_555
Cu2 N3 1_555 1_555
S1 O1 1_555 1_555
O2 Cu1 1_555 1_555
O3 S1 1_555 1_555
S2 O4 1_555 1_555
O5 Cu2 1_555 1_555
O6 S2 1_555 1_555
S3 O7 1_555 1_555
O8 S3 1_555 1_555
O9 S3 1_555 1_555
C41 C42 1_555 1_555
C42 H41 1_555 1_555
C43 C42 1_555 1_555
C44 C43 1_555 1_555
H42 C44 1_555 1_555
C45 C44 1_555 1_555
C46 C41 1_555 1_555
H43 C46 1_555 1_555
C47 C41 1_555 1_555
C48 C47 1_555 1_555
H44 C48 1_555 1_555
C49 C48 1_555 1_555
H45 C49 1_555 1_555
C50 S1 1_555 1_555
C51 C50 1_555 1_555
H46 C51 1_555 1_555
C52 C47 1_555 1_555
H47 C52 1_555 1_555
C53 C43 1_555 1_555
C54 C53 1_555 1_555
H48 C54 1_555 1_555
C55 C54 1_555 1_555
H49 C55 1_555 1_555
C56 S2 1_555 1_555
C57 C56 1_555 1_555
H50 C57 1_555 1_555
C58 C53 1_555 1_555
H51 C58 1_555 1_555
C59 C45 1_555 1_555
C60 C59 1_555 1_555
H52 C60 1_555 1_555
C61 C60 1_555 1_555
H53 C61 1_555 1_555
C62 S3 1_555 1_555
C63 C62 1_555 1_555
H54 C63 1_555 1_555
C64 C59 1_555 1_555
H55 C64 1_555 1_555
N9 Cu1 1_555 1_555
C65 N9 1_555 1_555
H56 C65 1_555 1_555
C66 C65 1_555 1_555
H57 C66 1_555 1_555
C67 C66 1_555 1_555
H58 C67 1_555 1_555
C68 C67 1_555 1_555
H59 C68 1_555 1_555
C69 N9 1_555 1_555
H60 C69 1_555 1_555
N10 Cu1 1_555 1_555
C70 N10 1_555 1_555
H61 C70 1_555 1_555
C71 C70 1_555 1_555
H62 C71 1_555 1_555
C72 C71 1_555 1_555
H63 C72 1_555 1_555
C73 C72 1_555 1_555
H64 C73 1_555 1_555
C74 N10 1_555 1_555
H65 C74 1_555 1_555
N11 C75 1_555 1_555
C75 H66 1_555 1_555
C76 C75 1_555 1_555
H67 C76 1_555 1_555
C77 C76 1_555 1_555
H68 C77 1_555 1_555
C78 C77 1_555 1_555
H69 C78 1_555 1_555
C79 N11 1_555 1_555
H70 C79 1_555 1_555
N12 C80 1_555 1_555
C80 H71 1_555 1_555
C81 C80 1_555 1_555
H72 C81 1_555 1_555
C82 C81 1_555 1_555
H73 C82 1_555 1_555
C83 C82 1_555 1_555
H74 C83 1_555 1_555
C84 N12 1_555 1_555
H75 C84 1_555 1_555
N1A C1A 1_555 1_555
C1A H1A 1_555 1_555
C2A C1A 1_555 1_555
H2A C2A 1_555 1_555
C3A C2A 1_555 1_555
H3A C3A 1_555 1_555
C4A C3A 1_555 1_555
H4A C4A 1_555 1_555
C5A N1A 1_555 1_555
H5A C5A 1_555 1_555
N2A C6A 1_555 1_555
C6A H6A 1_555 1_555
C7A C6A 1_555 1_555
H7A C7A 1_555 1_555
C8A C7A 1_555 1_555
H8A C8A 1_555 1_555
C9A C8A 1_555 1_555
H9A C9A 1_555 1_555
C10A N2A 1_555 1_555
H10A C10A 1_555 1_555
N3A Cu2 1_555 1_555
C11A N3A 1_555 1_555
H11A C11A 1_555 1_555
C12A C11A 1_555 1_555
H12A C12A 1_555 1_555
C13A C12A 1_555 1_555
H13A C13A 1_555 1_555
C14A C13A 1_555 1_555
H14A C14A 1_555 1_555
C15A N3A 1_555 1_555
H15A C15A 1_555 1_555
N4A Cu2 1_555 1_555
C16A N4A 1_555 1_555
H16A C16A 1_555 1_555
C17A C16A 1_555 1_555
H17A C17A 1_555 1_555
C18A C17A 1_555 1_555
H18A C18A 1_555 1_555
C19A C18A 1_555 1_555
H19A C19A 1_555 1_555
C20A N4A 1_555 1_555
H20A C20A 1_555 1_555
Cu1A N1A 1_555 1_555
Cu1_2 O9 1_555 1_555
Cu1A_2 O9A 1_555 1_555
S1A O1A 1_555 1_555
O2A Cu1A 1_555 1_555
O3A S1A 1_555 1_555
S2A O4A 1_555 1_555
O5A Cu2 1_555 1_555
O6A S2A 1_555 1_555
S3A O7A 1_555 1_555
O8A S3A 1_555 1_555
O9A S3A 1_555 1_555
O9_2 Cu1 1_555 1_555
O9A_2 Cu1A 1_555 1_555
C41A C42A 1_555 1_555
C42A H41A 1_555 1_555
C43A C42A 1_555 1_555
C44A C43A 1_555 1_555
H42A C44A 1_555 1_555
C45A C44A 1_555 1_555
C46A C41A 1_555 1_555
H43A C46A 1_555 1_555
C47A C41A 1_555 1_555
C48A C47A 1_555 1_555
H44A C48A 1_555 1_555
C49A C48A 1_555 1_555
H45A C49A 1_555 1_555
C50A S1A 1_555 1_555
C51A C50A 1_555 1_555
H46A C51A 1_555 1_555
C52A C47A 1_555 1_555
H47A C52A 1_555 1_555
C53A C43A 1_555 1_555
C54A C53A 1_555 1_555
H48A C54A 1_555 1_555
C55A C54A 1_555 1_555
H49A C55A 1_555 1_555
C56A S2A 1_555 1_555
C57A C56A 1_555 1_555
H50A C57A 1_555 1_555
C58A C53A 1_555 1_555
H51A C58A 1_555 1_555
C59A C45A 1_555 1_555
C60A C59A 1_555 1_555
H52A C60A 1_555 1_555
C61A C60A 1_555 1_555
H53A C61A 1_555 1_555
C62A S3A 1_555 1_555
C63A C62A 1_555 1_555
H54A C63A 1_555 1_555
C64A C59A 1_555 1_555
H55A C64A 1_555 1_555
N9A Cu1A 1_555 1_555
C65A N9A 1_555 1_555
H56A C65A 1_555 1_555
C66A C65A 1_555 1_555
H57A C66A 1_555 1_555
C67A C66A 1_555 1_555
H58A C67A 1_555 1_555
C68A C67A 1_555 1_555
H59A C68A 1_555 1_555
C69A N9A 1_555 1_555
H60A C69A 1_555 1_555
N10A Cu1A 1_555 1_555
C70A N10A 1_555 1_555
H61A C70A 1_555 1_555
C71A C70A 1_555 1_555
H62A C71A 1_555 1_555
C72A C71A 1_555 1_555
H63A C72A 1_555 1_555
C73A C72A 1_555 1_555
H64A C73A 1_555 1_555
C74A N10A 1_555 1_555
H65A C74A 1_555 1_555
C4 C5 1_555 1_555
N2 Cu1 1_555 1_555
C9 C10 1_555 1_555
C14 C15 1_555 1_555
N4 Cu2 1_555 1_555
C19 C20 1_555 1_555
S1 O2 1_555 1_555
S2 O5 1_555 1_555
C45 C46 1_555 1_555
C49 C50 1_555 1_555
C51 C52 1_555 1_555
C55 C56 1_555 1_555
C57 C58 1_555 1_555
C61 C62 1_555 1_555
C63 C64 1_555 1_555
C68 C69 1_555 1_555
C73 C74 1_555 1_555
C78 C79 1_555 1_555
C83 C84 1_555 1_555
C4A C5A 1_555 1_555
N2A Cu1A 1_555 1_555
C9A C10A 1_555 1_555
C14A C15A 1_555 1_555
C19A C20A 1_555 1_555
S1A O2A 1_555 1_555
S2A O5A 1_555 1_555
C45A C46A 1_555 1_555
C49A C50A 1_555 1_555
C51A C52A 1_555 1_555
C55A C56A 1_555 1_555
C57A C58A 1_555 1_555
C61A C62A 1_555 1_555
C63A C64A 1_555 1_555
C68A C69A 1_555 1_555
C73A C74A 1_555 1_555

#END
