
#######################################################################
#
#                 Cambridge Crystallographic Data Centre
#                                CCDC 
#
#######################################################################
#
# If this CIF has been generated from an entry in the Cambridge 
# Structural Database, then it will include bibliographic, chemical, 
# crystal, experimental, refinement or atomic coordinate data resulting 
# from the CCDC's data processing and validation procedures.
#
#######################################################################

data_NICROI
_symmetry_cell_setting           monoclinic
_symmetry_space_group_name_H-M   'P 21/c'
_symmetry_Int_Tables_number      14
_space_group_name_Hall           '-P 2ybc'
loop_
_symmetry_equiv_pos_site_id
_symmetry_equiv_pos_as_xyz
1 x,y,z
2 -x,1/2+y,1/2-z
3 -x,-y,-z
4 x,1/2-y,1/2+z
_cell_length_a                   9.9713(4)
_cell_length_b                   15.4651(6)
_cell_length_c                   7.6495(3)
_cell_angle_alpha                90
_cell_angle_beta                 95.029(4)
_cell_angle_gamma                90
_cell_volume                     1175.07
loop_
_atom_site_label
_atom_site_type_symbol
_atom_site_fract_x
_atom_site_fract_y
_atom_site_fract_z
Ag1 Ag 0.852215(19) 0.650366(12) 0.92958(2)
O1 O 0.67113(18) 0.86250(11) 1.1300(2)
O2 O 0.69959(17) 0.51452(11) 0.9477(2)
O3 O 0.81650(17) 0.75780(11) 1.1311(2)
O4 O 0.64479(18) 0.41376(13) 0.7432(2)
O5 O 0.6300(2) 0.75084(13) 0.9624(2)
O6 O 1.11763(18) 0.67066(12) 0.8732(2)
O7 O 1.26148(17) 0.60983(12) 0.7006(2)
N1 N 0.94516(19) 0.53192(12) 0.8036(2)
N2 N 0.7031(2) 0.79087(14) 1.0738(3)
C1 C 1.1502(2) 0.61168(17) 0.7836(3)
C2 C 1.1211(2) 0.45923(16) 0.6679(3)
H1 H 1.2100 0.4602 0.6322
C3 C 0.9115(2) 0.38862(16) 0.6886(3)
H2 H 0.8535 0.3403 0.6672
C4 C 0.7288(2) 0.46776(15) 0.8315(3)
C5 C 0.8675(2) 0.46209(15) 0.7705(3)
C6 C 1.0697(2) 0.53053(15) 0.7501(3)
C7 C 0.5056(3) 0.4174(2) 0.7896(4)
H3 H 0.5029 0.4027 0.9138
H4 H 0.4507 0.3760 0.7174
H5 H 0.4700 0.4759 0.7685
C8 C 1.0411(3) 0.38722(17) 0.6391(3)
H6 H 1.0748 0.3372 0.5856
C9 C 1.3467(3) 0.6861(2) 0.7174(4)
H7 H 1.3715 0.6979 0.8419
H8 H 1.2977 0.7358 0.6640
H9 H 1.4283 0.6761 0.6577
Ag1C Ag 0.852215(19) 0.849634(12) 1.42958(2)
O3C O 0.81650(17) 0.74220(11) 0.6311(2)
loop_
_geom_bond_atom_site_label_1
_geom_bond_atom_site_label_2
_geom_bond_site_symmetry_1
_geom_bond_site_symmetry_2
Ag1 O2 1_555 1_555
O1 N2 1_555 1_555
O2 C4 1_555 1_555
O3 Ag1 1_555 1_555
O4 C4 1_555 1_555
O5 N2 1_555 1_555
O6 C1 1_555 1_555
O7 C1 1_555 1_555
N1 Ag1 1_555 1_555
N2 O3 1_555 1_555
C1 C6 1_555 1_555
C2 H1 1_555 1_555
C3 H2 1_555 1_555
C4 C5 1_555 1_555
C5 N1 1_555 1_555
C6 N1 1_555 1_555
C7 O4 1_555 1_555
H3 C7 1_555 1_555
H4 C7 1_555 1_555
H5 C7 1_555 1_555
C8 C2 1_555 1_555
H6 C8 1_555 1_555
C9 O7 1_555 1_555
H7 C9 1_555 1_555
H8 C9 1_555 1_555
H9 C9 1_555 1_555
Ag1C O3 1_555 1_555
O3C Ag1 1_555 1_555
C2 C6 1_555 1_555
C3 C5 1_555 1_555
C3 C8 1_555 1_555

#END
