
#######################################################################
#
#                 Cambridge Crystallographic Data Centre
#                                CCDC 
#
#######################################################################
#
# If this CIF has been generated from an entry in the Cambridge 
# Structural Database, then it will include bibliographic, chemical, 
# crystal, experimental, refinement or atomic coordinate data resulting 
# from the CCDC's data processing and validation procedures.
#
#######################################################################

data_NICTCU
_symmetry_cell_setting           triclinic
_symmetry_space_group_name_H-M   'P -1'
_symmetry_Int_Tables_number      2
_space_group_name_Hall           '-P 1'
loop_
_symmetry_equiv_pos_site_id
_symmetry_equiv_pos_as_xyz
1 x,y,z
2 -x,-y,-z
_cell_length_a                   7.881(9)
_cell_length_b                   9.658(11)
_cell_length_c                   10.368(12)
_cell_angle_alpha                97.32(9)
_cell_angle_beta                 110.38(9)
_cell_angle_gamma                109.53(9)
_cell_volume                     670.119
loop_
_atom_site_label
_atom_site_type_symbol
_atom_site_fract_x
_atom_site_fract_y
_atom_site_fract_z
Cu1 Cu 0.00000 0.00000 0.00000
Cu2 Cu 0.05250 0.26157 0.22723
O1 O -0.40600 -0.40770 0.36340
O2 O -0.12060 -0.17920 0.05780
O3 O 0.14450 0.37250 0.10010
O4 O -0.27920 -0.13630 0.73270
O5 O -0.25470 -0.02740 0.27470
O6 O -0.05980 0.21810 0.36480
O7 O 0.24800 0.44320 0.37750
O8 O -0.14020 0.09250 0.07270
N1 N -0.36040 -0.46320 0.26240
N2 N -0.27010 -0.02190 0.67390
C1 C -0.28170 -0.36840 0.19390
C2 C -0.23920 -0.42360 0.08610
C3 C -0.27480 -0.57450 0.04880
C4 C -0.35560 -0.66970 0.12140
C5 C -0.39790 -0.61150 0.22690
C6 C -0.16090 -0.31560 0.00780
C7 C -0.24130 -0.02650 0.55310
C8 C -0.21460 0.09870 0.49920
C9 C -0.22500 0.22450 0.56590
C10 C -0.27020 0.22180 0.68330
C11 C -0.29120 0.09760 0.73570
C12 C -0.17480 0.09200 0.36730
H1 H -0.26800 -0.27800 0.22100
H2 H -0.23300 -0.60900 -0.01600
H3 H -0.39100 -0.77800 0.08800
H4 H -0.43700 -0.65300 0.28600
H5 H -0.22600 -0.11100 0.51700
H6 H -0.21200 0.31400 0.53100
H7 H -0.29600 0.29900 0.72400
H8 H -0.32000 0.08300 0.81800
H9 H 0.27700 0.42800 0.45100
H10 H 0.31200 0.47100 0.36700
Cu2A Cu -0.05250 -0.26157 -0.22723
O2A O 0.12060 0.17920 -0.05780
O8A O 0.14020 -0.09250 -0.07270
C6A C 0.16090 0.31560 -0.00780
O3A O -0.14450 -0.37250 -0.10010
O4_2 O -0.27920 -0.13630 -0.26730
O6A O 0.05980 -0.21810 -0.36480
O7A O -0.24800 -0.44320 -0.37750
C2A C 0.23920 0.42360 -0.08610
C12A C 0.17480 -0.09200 -0.36730
H9A H -0.27700 -0.42800 -0.45100
H10A H -0.31200 -0.47100 -0.36700
C1A C 0.28170 0.36840 -0.19390
C3A C 0.27480 0.57450 -0.04880
N1A N 0.36040 0.46320 -0.26240
H1A H 0.26800 0.27800 -0.22100
C4A C 0.35560 0.66970 -0.12140
H2A H 0.23300 0.60900 0.01600
O1A O 0.40600 0.40770 -0.36340
C5A C 0.39790 0.61150 -0.22690
H3A H 0.39100 0.77800 -0.08800
H4A H 0.43700 0.65300 -0.28600
Cu2A_2 Cu -0.05250 -0.26157 0.77277
O5A O 0.25470 0.02740 -0.27470
C8A C 0.21460 -0.09870 -0.49920
O4A O 0.27920 0.13630 0.26730
Cu2_2 Cu 0.05250 0.26157 -0.77277
C7A C 0.24130 0.02650 -0.55310
C9A C 0.22500 -0.22450 -0.56590
N2A N 0.27010 0.02190 -0.67390
H5A H 0.22600 0.11100 -0.51700
C10A C 0.27020 -0.22180 -0.68330
H6A H 0.21200 -0.31400 -0.53100
O4A_2 O 0.27920 0.13630 -0.73270
C11A C 0.29120 -0.09760 -0.73570
H7A H 0.29600 -0.29900 -0.72400
H8A H 0.32000 -0.08300 -0.81800
loop_
_geom_bond_atom_site_label_1
_geom_bond_atom_site_label_2
_geom_bond_site_symmetry_1
_geom_bond_site_symmetry_2
Cu1 O2 1_555 1_555
Cu2 O3 1_555 1_555
O1 N1 1_555 1_555
O2 C6 1_555 1_555
O3 C6A 1_555 1_555
O4 N2 1_555 1_555
O5 C12 1_555 1_555
O6 Cu2 1_555 1_555
O7 Cu2 1_555 1_555
O8 Cu1 1_555 1_555
N1 C1 1_555 1_555
N2 C7 1_555 1_555
C1 C2 1_555 1_555
C2 C3 1_555 1_555
C3 C4 1_555 1_555
C4 C5 1_555 1_555
C5 N1 1_555 1_555
C6 C2 1_555 1_555
C7 C8 1_555 1_555
C8 C9 1_555 1_555
C9 C10 1_555 1_555
C10 C11 1_555 1_555
C11 N2 1_555 1_555
C12 O6 1_555 1_555
H1 C1 1_555 1_555
H2 C3 1_555 1_555
H3 C4 1_555 1_555
H4 C5 1_555 1_555
H5 C7 1_555 1_555
H6 C9 1_555 1_555
H7 C10 1_555 1_555
H8 C11 1_555 1_555
H9 O7 1_555 1_555
H10 O7 1_555 1_555
Cu2A O8A 1_555 1_555
O2A Cu1 1_555 1_555
O8A Cu1 1_555 1_555
C6A O2A 1_555 1_555
O3A C6 1_555 1_555
O4_2 Cu2A 1_555 1_555
O6A Cu2A 1_555 1_555
O7A Cu2A 1_555 1_555
C2A C6A 1_555 1_555
C12A O6A 1_555 1_555
H9A O7A 1_555 1_555
H10A O7A 1_555 1_555
C1A C2A 1_555 1_555
C3A C2A 1_555 1_555
N1A C1A 1_555 1_555
H1A C1A 1_555 1_555
C4A C3A 1_555 1_555
H2A C3A 1_555 1_555
O1A N1A 1_555 1_555
C5A N1A 1_555 1_555
H3A C4A 1_555 1_555
H4A C5A 1_555 1_555
Cu2A_2 O4 1_555 1_555
O5A C12A 1_555 1_555
C8A C12A 1_555 1_555
O4A Cu2 1_555 1_555
Cu2_2 O4A_2 1_555 1_555
C7A C8A 1_555 1_555
C9A C8A 1_555 1_555
N2A C7A 1_555 1_555
H5A C7A 1_555 1_555
C10A C9A 1_555 1_555
H6A C9A 1_555 1_555
O4A_2 N2A 1_555 1_555
C11A N2A 1_555 1_555
H7A C10A 1_555 1_555
H8A C11A 1_555 1_555
Cu2 O8 1_555 1_555
C8 C12 1_555 1_555
Cu2A O3A 1_555 1_555
C4A C5A 1_555 1_555
C10A C11A 1_555 1_555

#END
