
#######################################################################
#
#                 Cambridge Crystallographic Data Centre
#                                CCDC 
#
#######################################################################
#
# If this CIF has been generated from an entry in the Cambridge 
# Structural Database, then it will include bibliographic, chemical, 
# crystal, experimental, refinement or atomic coordinate data resulting 
# from the CCDC's data processing and validation procedures.
#
#######################################################################

data_NICVAW
_symmetry_cell_setting           monoclinic
_symmetry_space_group_name_H-M   'C 2/c'
_symmetry_Int_Tables_number      15
_space_group_name_Hall           '-C 2yn'
loop_
_symmetry_equiv_pos_site_id
_symmetry_equiv_pos_as_xyz
1 x,y,z
2 -x,y,1/2-z
3 1/2+x,1/2+y,z
4 1/2-x,1/2+y,1/2-z
5 -x,-y,-z
6 x,-y,1/2+z
7 1/2-x,1/2-y,-z
8 1/2+x,1/2-y,1/2+z
_cell_length_a                   10.6353(6)
_cell_length_b                   11.5204(8)
_cell_length_c                   12.7370(6)
_cell_angle_alpha                90
_cell_angle_beta                 110.946(3)
_cell_angle_gamma                90
_cell_volume                     1457.45
loop_
_atom_site_label
_atom_site_type_symbol
_atom_site_fract_x
_atom_site_fract_y
_atom_site_fract_z
C1 C 0.0574(4) 0.1242(3) 0.7285(3)
C2 C 0.0523(4) 0.2528(3) 0.7279(3)
C3 C 0.1264(4) 0.3333(3) 0.6901(3)
C4 C 0.2398(4) 0.2950(3) 0.6657(3)
C5 C 0.0856(4) 0.4509(3) 0.6668(3)
N1 N 0.5806(3) 0.3075(3) 0.5598(3)
C6 C 0.6395(4) 0.3789(3) 0.5354(3)
C7 C 0.7128(5) 0.4714(4) 0.5052(4)
H1 H 0.750(4) 0.517(3) 0.570(4)
H2 H 0.659(4) 0.512(3) 0.439(4)
H3 H 0.786(4) 0.445(3) 0.485(4)
Cu1 Cu 0.48676(6) 0.20173(4) 0.62423(5)
O1 O 0.1289(3) 0.0520(2) 0.7074(2)
N2 N 0.3322(3) 0.2604(2) 0.6488(3)
N3 N 0.0484(3) 0.5454(3) 0.6459(3)
C1A C -0.0574(4) 0.1242(3) 0.7715(3)
C2A C -0.0523(4) 0.2528(3) 0.7721(3)
C3A C -0.1264(4) 0.3333(3) 0.8099(3)
C4A C -0.2398(4) 0.2950(3) 0.8343(3)
N2A N -0.3322(3) 0.2604(2) 0.8512(3)
C5A C -0.0856(4) 0.4509(3) 0.8332(3)
N3A N -0.0484(3) 0.5454(3) 0.8541(3)
O1A O -0.1289(3) 0.0520(2) 0.7926(2)
Cu1A Cu -0.48676(6) 0.20173(4) 0.87577(5)
N1A N -0.5806(3) 0.3075(3) 0.9402(3)
C6A C -0.6395(4) 0.3789(3) 0.9646(3)
C7A C -0.7128(5) 0.4714(4) 0.9948(4)
H1A H -0.750(4) 0.517(3) 0.930(4)
H2A H -0.659(4) 0.512(3) 1.061(4)
H3A H -0.786(4) 0.445(3) 1.015(4)
Cu1A_2 Cu 0.51324(6) 0.20173(4) 0.87577(5)
N3B N 0.5484(3) 0.0454(3) 0.6459(3)
Cu1B Cu -0.01324(6) 0.70173(4) 0.62423(5)
Cu1C Cu 0.01324(6) 0.70173(4) 0.87577(5)
Cu1_2 Cu -0.51324(6) 0.20173(4) 0.62423(5)
N3C N -0.5484(3) 0.0454(3) 0.8541(3)
loop_
_geom_bond_atom_site_label_1
_geom_bond_atom_site_label_2
_geom_bond_site_symmetry_1
_geom_bond_site_symmetry_2
C1 C2 1_555 1_555
C2 C3 1_555 1_555
C3 C4 1_555 1_555
C4 N2 1_555 1_555
C5 C3 1_555 1_555
N1 C6 1_555 1_555
C6 C7 1_555 1_555
C7 H1 1_555 1_555
H2 C7 1_555 1_555
H3 C7 1_555 1_555
Cu1 N1 1_555 1_555
O1 C1 1_555 1_555
N2 Cu1 1_555 1_555
N3 C5 1_555 1_555
C1A C1 1_555 1_555
C2A C2 1_555 1_555
C3A C2A 1_555 1_555
C4A C3A 1_555 1_555
N2A C4A 1_555 1_555
C5A C3A 1_555 1_555
N3A C5A 1_555 1_555
O1A C1A 1_555 1_555
Cu1A N2A 1_555 1_555
N1A Cu1A 1_555 1_555
C6A N1A 1_555 1_555
C7A C6A 1_555 1_555
H1A C7A 1_555 1_555
H2A C7A 1_555 1_555
H3A C7A 1_555 1_555
Cu1A_2 Cu1 1_555 1_555
N3B Cu1 1_555 1_555
Cu1B N3 1_555 1_555
Cu1C N3A 1_555 1_555
Cu1_2 Cu1A 1_555 1_555
N3C Cu1A 1_555 1_555
C1A C2A 1_555 1_555
Cu1B Cu1C 1_555 1_555

#END
