
#######################################################################
#
#                 Cambridge Crystallographic Data Centre
#                                CCDC 
#
#######################################################################
#
# If this CIF has been generated from an entry in the Cambridge 
# Structural Database, then it will include bibliographic, chemical, 
# crystal, experimental, refinement or atomic coordinate data resulting 
# from the CCDC's data processing and validation procedures.
#
#######################################################################

data_NICYUT
_symmetry_cell_setting           monoclinic
_symmetry_space_group_name_H-M   'C 2/c'
_symmetry_Int_Tables_number      15
_space_group_name_Hall           '-C 2yn'
loop_
_symmetry_equiv_pos_site_id
_symmetry_equiv_pos_as_xyz
1 x,y,z
2 1/2+x,1/2+y,z
3 x,-y,1/2+z
4 1/2+x,1/2-y,1/2+z
5 -x,-y,-z
6 1/2-x,1/2-y,-z
7 -x,y,1/2-z
8 1/2-x,1/2+y,1/2-z
_cell_length_a                   22.396
_cell_length_b                   7.765
_cell_length_c                   21.767
_cell_angle_alpha                90
_cell_angle_beta                 114.25
_cell_angle_gamma                90
_cell_volume                     3451.37
loop_
_atom_site_label
_atom_site_type_symbol
_atom_site_fract_x
_atom_site_fract_y
_atom_site_fract_z
C15 C 0.0000 0.244(4) 0.7500
C16 C -0.0628(5) 0.2916(10) 0.6953(4)
C16F C 0.0628(5) 0.2916(10) 0.8047(4)
Sr1 Sr -0.014382(14) 0.25265(4) 0.512212(13)
S1 S 0.08793(4) 0.25441(12) 0.33148(4)
S2 S 0.10634(5) 0.26702(12) 0.24686(4)
O1 O 0.03423(15) 0.4233(3) 0.62784(13)
H1 H 0.0353 0.3793 0.6670
H2 H 0.0497 0.5231 0.6235
O2 O -0.07255(14) 0.1137(3) 0.57757(15)
H3 H -0.0972 0.1762 0.5937
H4 H -0.0694 0.0013 0.5782
O3 O 0.07548(11) 0.4650(3) 0.50624(12)
O4 O 0.05918(13) 0.2340(3) 0.44293(14)
O5 O 0.06652(11) -0.0154(3) 0.06709(11)
O6 O 0.09747(13) 0.2384(3) 0.11566(11)
C1 C 0.09057(16) 0.3663(4) 0.46828(16)
C2 C 0.14994(15) 0.4090(4) 0.45551(16)
C3 C 0.15640(15) 0.3586(4) 0.39653(15)
C4 C 0.21475(17) 0.3929(5) 0.39004(18)
H5 H 0.2189 0.3621 0.3489
C5 C 0.26549(18) 0.4766(5) 0.4409(2)
H6 H 0.3059 0.4959 0.4370
C6 C 0.25942(17) 0.5298(6) 0.49870(19)
H7 H 0.2945 0.5887 0.5348
C7 C 0.20104(18) 0.4981(4) 0.50475(18)
H8 H 0.1958 0.5383 0.5444
C8 C 0.09701(16) 0.0779(4) 0.11844(16)
C9 C 0.13545(15) -0.0098(4) 0.18449(15)
C10 C 0.14455(16) 0.0654(4) 0.24623(16)
C11 C 0.1826(2) -0.0196(5) 0.30574(17)
H9 H 0.1886 0.0303 0.3488
C12 C 0.2112(2) -0.1750(6) 0.3044(2)
H10 H 0.2391 -0.2320 0.3460
C13 C 0.2016(2) -0.2534(5) 0.2442(2)
H11 H 0.2222 -0.3640 0.2431
C14 C 0.16352(17) -0.1701(5) 0.18438(18)
H12 H 0.1571 -0.2222 0.1415
S1D S -0.08793(4) 0.74559(12) 0.66852(4)
S2D S -0.10634(5) 0.73298(12) 0.75314(4)
O3D O -0.07548(11) 0.5350(3) 0.49376(12)
O4D O -0.05918(13) 0.7660(3) 0.55707(14)
O5D O -0.06652(11) 1.0154(3) 0.93291(11)
O6D O -0.09747(13) 0.7616(3) 0.88434(11)
C1D C -0.09057(16) 0.6337(4) 0.53172(16)
C2D C -0.14994(15) 0.5910(4) 0.54449(16)
C3D C -0.15640(15) 0.6414(4) 0.60347(15)
C4D C -0.21475(17) 0.6071(5) 0.60996(18)
H5D H -0.2189 0.6379 0.6511
C5D C -0.26549(18) 0.5234(5) 0.5591(2)
H6D H -0.3059 0.5041 0.5630
C6D C -0.25942(17) 0.4702(6) 0.50130(19)
H7D H -0.2945 0.4113 0.4652
C7D C -0.20104(18) 0.5019(4) 0.49525(18)
H8D H -0.1958 0.4617 0.4556
C8D C -0.09701(16) 0.9221(4) 0.88156(16)
C9D C -0.13545(15) 1.0098(4) 0.81551(15)
C10D C -0.14455(16) 0.9346(4) 0.75377(16)
C11D C -0.1826(2) 1.0196(5) 0.69426(17)
H9D H -0.1886 0.9697 0.6512
C12D C -0.2112(2) 1.1750(6) 0.6956(2)
H10D H -0.2391 1.2320 0.6540
C13D C -0.2016(2) 1.2534(5) 0.7558(2)
H11D H -0.2222 1.3640 0.7569
C14D C -0.16352(17) 1.1701(5) 0.81562(18)
H12D H -0.1571 1.2222 0.8585
Sr1D Sr 0.014382(14) 0.74735(4) 0.487788(13)
O1D O -0.03423(15) 0.5767(3) 0.37216(13)
H1D H -0.0353 0.6207 0.3330
H2D H -0.0497 0.4769 0.3765
O2D O 0.07255(14) 0.8863(3) 0.42243(15)
H3D H 0.0972 0.8238 0.4063
H4D H 0.0694 0.9987 0.4218
O5B O 0.06652(11) 0.0154(3) 0.56709(11)
O5F O -0.06652(11) -0.0154(3) 0.43291(11)
O6F O -0.09747(13) 0.2384(3) 0.38434(11)
Sr1B Sr -0.014382(14) -0.25265(4) 0.012212(13)
Sr1F Sr 0.014382(14) 0.25265(4) -0.012212(13)
Sr1B_2 Sr -0.014382(14) 0.74735(4) 1.012212(13)
Sr1F_2 Sr 0.014382(14) 1.25265(4) 0.987788(13)
O5B_2 O 0.06652(11) 1.0154(3) 0.56709(11)
O5F_2 O -0.06652(11) 0.9846(3) 0.43291(11)
O6B O 0.09747(13) 0.7616(3) 0.61566(11)
loop_
_geom_bond_atom_site_label_1
_geom_bond_atom_site_label_2
_geom_bond_site_symmetry_1
_geom_bond_site_symmetry_2
Sr1 O1 1_555 1_555
S1 S2 1_555 1_555
S2 C10 1_555 1_555
O1 H1 1_555 1_555
H2 O1 1_555 1_555
O2 Sr1 1_555 1_555
H3 O2 1_555 1_555
H4 O2 1_555 1_555
O3 Sr1 1_555 1_555
O4 Sr1 1_555 1_555
O5 C8 1_555 1_555
O6 C8 1_555 1_555
C1 O3 1_555 1_555
C2 C1 1_555 1_555
C3 S1 1_555 1_555
C4 C3 1_555 1_555
H5 C4 1_555 1_555
C5 C4 1_555 1_555
H6 C5 1_555 1_555
C6 C5 1_555 1_555
H7 C6 1_555 1_555
C7 C2 1_555 1_555
H8 C7 1_555 1_555
C8 C9 1_555 1_555
C9 C10 1_555 1_555
C10 C11 1_555 1_555
C11 H9 1_555 1_555
C12 C11 1_555 1_555
H10 C12 1_555 1_555
C13 C12 1_555 1_555
H11 C13 1_555 1_555
C14 C9 1_555 1_555
H12 C14 1_555 1_555
C15 C16 1_555 1_555
C16F C15 1_555 1_555
S1D S2D 1_555 1_555
S2D C10D 1_555 1_555
O3D Sr1 1_555 1_555
O4D C1D 1_555 1_555
O5D C8D 1_555 1_555
O6D C8D 1_555 1_555
C1D O3D 1_555 1_555
C2D C1D 1_555 1_555
C3D S1D 1_555 1_555
C4D C3D 1_555 1_555
H5D C4D 1_555 1_555
C5D C4D 1_555 1_555
H6D C5D 1_555 1_555
C6D C5D 1_555 1_555
H7D C6D 1_555 1_555
C7D C2D 1_555 1_555
H8D C7D 1_555 1_555
C8D C9D 1_555 1_555
C9D C10D 1_555 1_555
C10D C11D 1_555 1_555
C11D H9D 1_555 1_555
C12D C11D 1_555 1_555
H10D C12D 1_555 1_555
C13D C12D 1_555 1_555
H11D C13D 1_555 1_555
C14D C9D 1_555 1_555
H12D C14D 1_555 1_555
Sr1D O3 1_555 1_555
O1D Sr1D 1_555 1_555
H1D O1D 1_555 1_555
H2D O1D 1_555 1_555
O2D Sr1D 1_555 1_555
H3D O2D 1_555 1_555
H4D O2D 1_555 1_555
O5B Sr1 1_555 1_555
O5F Sr1 1_555 1_555
O6F Sr1 1_555 1_555
Sr1B O5 1_555 1_555
Sr1F O5 1_555 1_555
Sr1B_2 O5D 1_555 1_555
Sr1F_2 O5D 1_555 1_555
O5B_2 Sr1D 1_555 1_555
O5F_2 Sr1D 1_555 1_555
O6B Sr1D 1_555 1_555
O4 C1 1_555 1_555
O6 Sr1F 1_555 1_555
C2 C3 1_555 1_555
C6 C7 1_555 1_555
C13 C14 1_555 1_555
O3D Sr1D 1_555 1_555
O4D Sr1D 1_555 1_555
O6D Sr1B_2 1_555 1_555
C2D C3D 1_555 1_555
C6D C7D 1_555 1_555
C13D C14D 1_555 1_555

#END
