
#######################################################################
#
#                 Cambridge Crystallographic Data Centre
#                                CCDC 
#
#######################################################################
#
# If this CIF has been generated from an entry in the Cambridge 
# Structural Database, then it will include bibliographic, chemical, 
# crystal, experimental, refinement or atomic coordinate data resulting 
# from the CCDC's data processing and validation procedures.
#
#######################################################################

data_NICYUV
_symmetry_cell_setting           monoclinic
_symmetry_space_group_name_H-M   'P 21/c'
_symmetry_Int_Tables_number      14
_space_group_name_Hall           '-P 2ybc'
loop_
_symmetry_equiv_pos_site_id
_symmetry_equiv_pos_as_xyz
1 x,y,z
2 -x,1/2+y,1/2-z
3 -x,-y,-z
4 x,1/2-y,1/2+z
_cell_length_a                   17.9224(13)
_cell_length_b                   26.390(2)
_cell_length_c                   9.0841(7)
_cell_angle_alpha                90
_cell_angle_beta                 99.700(2)
_cell_angle_gamma                90
_cell_volume                     4235.1
loop_
_atom_site_label
_atom_site_type_symbol
_atom_site_fract_x
_atom_site_fract_y
_atom_site_fract_z
Cd1 Cd -0.08129(2) 1.076403(16) -0.47420(5)
O1 O -0.0177(2) 1.01865(16) -0.3106(4)
O2 O 0.0203(3) 1.0959(2) -0.2602(5)
C1 C 0.0239(4) 1.0491(3) -0.2296(7)
C2 C 0.0795(3) 1.0331(3) -0.0965(7)
C3 C 0.0838(3) 0.9822(3) -0.0562(6)
H1 H 0.0526 0.9587 -0.1126
C4 C 0.1348(3) 0.9663(2) 0.0683(6)
H2 H 0.1365 0.9324 0.0966
C5 C 0.1829(3) 1.0011(3) 0.1498(6)
C6 C 0.1776(4) 1.0513(3) 0.1101(7)
H3 H 0.2090 1.0753 0.1643
C7 C 0.1255(4) 1.0656(2) -0.0105(8)
H4 H 0.1217 1.0999 -0.0346
N1 N 0.2346(3) 0.98102(18) 0.2708(5)
H5 H 0.2292 0.9494 0.2898
C8 C 0.2905(3) 1.0048(3) 0.3588(7)
O3 O 0.3032(3) 1.0493(2) 0.3496(5)
C9 C 0.3416(3) 0.9725(3) 0.4743(6)
C10 C 0.3268(3) 0.9227(2) 0.5030(6)
H6 H 0.2847 0.9069 0.4482
C11 C 0.3741(3) 0.8958(3) 0.6135(7)
C12 C 0.4353(3) 0.9211(3) 0.6964(6)
H7 H 0.4674 0.9036 0.7704
C13 C 0.4494(3) 0.9710(3) 0.6718(6)
C14 C 0.4025(3) 0.9967(2) 0.5605(6)
H8 H 0.4118 1.0307 0.5431
C15 C 0.5123(3) 1.0009(3) 0.7670(7)
O4 O 0.5147(3) 1.0467(2) 0.7527(5)
N2 N 0.5605(3) 0.97450(19) 0.8662(5)
H9 H 0.5538 0.9422 0.8646
C16 C 0.6203(3) 0.9923(3) 0.9721(7)
C17 C 0.6548(4) 0.9596(2) 1.0773(7)
H10 H 0.6371 0.9265 1.0768
C18 C 0.7148(3) 0.9737(3) 1.1849(7)
H11 H 0.7378 0.9497 1.2530
C19 C 0.7414(3) 1.0227(3) 1.1929(6)
C20 C 0.8045(3) 1.0395(3) 1.3096(7)
O5 O 0.8383(2) 1.00890(15) 1.4040(4)
O6 O 0.8233(2) 1.08497(17) 1.3154(4)
C21 C 0.7083(3) 1.0566(2) 1.0865(6)
H12 H 0.7265 1.0897 1.0872
C22 C 0.6469(3) 1.0417(3) 0.9762(7)
H13 H 0.6243 1.0651 0.9060
C23 C 0.3556(4) 0.8434(3) 0.6544(8)
O7 O 0.4054(3) 0.8112(2) 0.6769(7)
N3 N 0.2837(3) 0.83454(19) 0.6694(5)
H14 H 0.2526 0.8593 0.6476
C24 C 0.2528(4) 0.7888(3) 0.7174(7)
C25 C 0.2785(4) 0.7416(3) 0.6909(8)
H15 H 0.3195 0.7376 0.6413
C26 C 0.2429(4) 0.7002(3) 0.7389(8)
H16 H 0.2600 0.6680 0.7197
C27 C 0.1830(4) 0.7047(3) 0.8140(7)
C28 C 0.1462(4) 0.6589(3) 0.8682(7)
O8 O 0.1660(2) 0.61546(16) 0.8356(4)
O9 O 0.0951(3) 0.66482(15) 0.9474(5)
C29 C 0.1593(4) 0.7525(3) 0.8380(8)
H17 H 0.1189 0.7567 0.8892
C30 C 0.1927(4) 0.7945(3) 0.7895(8)
H18 H 0.1745 0.8267 0.8057
O10 O 0.0114(2) 1.07738(15) -0.6201(4)
Cd1_2 Cd 0.91871(2) 1.076403(16) 1.52580(5)
Cd1A Cd 0.08129(2) 0.576403(16) 0.97420(5)
O5_2 O -0.1617(2) 1.00890(15) -0.5960(4)
O6_2 O -0.1767(2) 1.08497(17) -0.6846(4)
O8A O -0.1660(2) 1.11546(16) -0.3356(4)
O9A O -0.0951(3) 1.16482(15) -0.4474(5)
O11 O 0.8432(3) 0.9077(2) 0.4737(7)
loop_
_geom_bond_atom_site_label_1
_geom_bond_atom_site_label_2
_geom_bond_site_symmetry_1
_geom_bond_site_symmetry_2
Cd1 O1 1_555 1_555
O1 C1 1_555 1_555
O2 Cd1 1_555 1_555
C1 O2 1_555 1_555
C2 C1 1_555 1_555
C3 C2 1_555 1_555
H1 C3 1_555 1_555
C4 C3 1_555 1_555
H2 C4 1_555 1_555
C5 C4 1_555 1_555
C6 C5 1_555 1_555
H3 C6 1_555 1_555
C7 C2 1_555 1_555
H4 C7 1_555 1_555
N1 C5 1_555 1_555
H5 N1 1_555 1_555
C8 N1 1_555 1_555
O3 C8 1_555 1_555
C9 C8 1_555 1_555
C10 C9 1_555 1_555
H6 C10 1_555 1_555
C11 C10 1_555 1_555
C12 C11 1_555 1_555
H7 C12 1_555 1_555
C13 C12 1_555 1_555
C14 C9 1_555 1_555
H8 C14 1_555 1_555
C15 C13 1_555 1_555
O4 C15 1_555 1_555
N2 C15 1_555 1_555
H9 N2 1_555 1_555
C16 N2 1_555 1_555
C17 C16 1_555 1_555
H10 C17 1_555 1_555
C18 C17 1_555 1_555
H11 C18 1_555 1_555
C19 C18 1_555 1_555
C20 C19 1_555 1_555
O5 C20 1_555 1_555
O6 C20 1_555 1_555
C21 C19 1_555 1_555
H12 C21 1_555 1_555
C22 C16 1_555 1_555
H13 C22 1_555 1_555
C23 C11 1_555 1_555
O7 C23 1_555 1_555
N3 C23 1_555 1_555
H14 N3 1_555 1_555
C24 N3 1_555 1_555
C25 C24 1_555 1_555
H15 C25 1_555 1_555
C26 C25 1_555 1_555
H16 C26 1_555 1_555
C27 C26 1_555 1_555
C28 C27 1_555 1_555
O8 C28 1_555 1_555
O9 C28 1_555 1_555
C29 C27 1_555 1_555
H17 C29 1_555 1_555
C30 C24 1_555 1_555
H18 C30 1_555 1_555
O10 Cd1 1_555 1_555
Cd1_2 O5 1_555 1_555
Cd1A O8 1_555 1_555
O5_2 Cd1 1_555 1_555
O6_2 Cd1 1_555 1_555
O8A Cd1 1_555 1_555
O9A Cd1 1_555 1_555
C6 C7 1_555 1_555
C13 C14 1_555 1_555
O6 Cd1_2 1_555 1_555
C21 C22 1_555 1_555
O9 Cd1A 1_555 1_555
C29 C30 1_555 1_555

#END
