
#######################################################################
#
#                 Cambridge Crystallographic Data Centre
#                                CCDC 
#
#######################################################################
#
# If this CIF has been generated from an entry in the Cambridge 
# Structural Database, then it will include bibliographic, chemical, 
# crystal, experimental, refinement or atomic coordinate data resulting 
# from the CCDC's data processing and validation procedures.
#
#######################################################################

data_NICZOQ
_symmetry_cell_setting           triclinic
_symmetry_space_group_name_H-M   'P -1'
_symmetry_Int_Tables_number      2
_space_group_name_Hall           '-P 1'
loop_
_symmetry_equiv_pos_site_id
_symmetry_equiv_pos_as_xyz
1 x,y,z
2 -x,-y,-z
_cell_length_a                   11.142(2)
_cell_length_b                   11.485(2)
_cell_length_c                   12.872(2)
_cell_angle_alpha                88.059(3)
_cell_angle_beta                 72.539(2)
_cell_angle_gamma                72.775(2)
_cell_volume                     1498.07
loop_
_atom_site_label
_atom_site_type_symbol
_atom_site_fract_x
_atom_site_fract_y
_atom_site_fract_z
Tm1 Tm 0.31770(3) 0.15139(3) 0.19909(3)
Br1 Br 0.16497(9) 0.18025(9) -0.13151(8)
Br2 Br 0.69640(9) 0.24332(7) 0.04586(9)
Br3 Br -0.00013(10) -0.05657(10) 0.25042(7)
Br4 Br 0.73171(10) 0.50774(8) 0.10407(9)
Br5 Br 0.21883(10) 0.30648(9) 0.59257(8)
Br6 Br 0.13693(10) 0.60554(10) 0.65108(9)
O1 O 0.2742(5) 0.0228(4) 0.0843(4)
O2 O 0.5045(6) 0.2231(5) -0.1386(5)
C1 C 0.3449(9) 0.4120(8) 0.2831(7)
C2 C 0.5811(7) 0.3917(6) 0.0219(6)
C3 C 0.0588(8) 0.5423(7) 0.5648(6)
O3 O 0.1653(5) 0.1933(5) 0.3628(4)
O4 O 0.1180(5) 0.1962(5) 0.1490(5)
C4 C 0.0709(7) 0.0512(6) 0.0501(6)
O5 O 0.3386(6) -0.0304(5) 0.2861(4)
C5 C 0.4837(7) 0.3871(6) -0.0216(6)
C6 C 0.0002(7) -0.0242(7) 0.1062(6)
O6 O 0.3997(5) 0.2228(5) 0.0371(4)
N1 N 0.2734(7) 0.3732(6) 0.2329(5)
C7 C 0.4424(10) 0.3171(10) 0.3223(7)
O7 O 0.0110(7) 0.1798(6) 0.5161(5)
C8 C 0.1575(7) 0.0953(7) 0.0979(6)
C9 C 0.4622(8) 0.2677(6) -0.0444(7)
N2 N 0.4509(7) 0.2022(7) 0.3004(6)
O8 O 0.5285(5) 0.0129(4) 0.1182(4)
C10 C 0.5984(7) 0.5031(6) 0.0445(6)
C11 C 0.0726(8) 0.2377(7) 0.4491(7)
C12 C 0.0713(7) 0.0748(7) -0.0582(6)
C13 C 0.0354(8) 0.3740(7) 0.4733(6)
C14 C 0.0941(7) 0.4186(7) 0.5390(6)
C15 C 0.1836(10) 0.4511(8) 0.1978(8)
H1 H 0.1357 0.4223 0.1622
C16 C 0.5346(11) 0.1139(12) 0.3368(9)
H2 H 0.5407 0.0335 0.3209
C17 C 0.2290(15) 0.6181(10) 0.2648(11)
H3 H 0.2124 0.7015 0.2770
C18 C 0.1585(12) 0.5776(9) 0.2132(10)
H4 H 0.0946 0.6325 0.1884
C19 C 0.3231(13) 0.5380(10) 0.2985(9)
H5 H 0.3735 0.5659 0.3319
C20 C 0.5161(14) 0.3463(13) 0.3821(10)
H6 H 0.5064 0.4272 0.3995
C21 C 0.6116(12) 0.1326(14) 0.3953(11)
H7 H 0.6664 0.0680 0.4208
C22 C 0.6042(14) 0.2513(17) 0.4147(11)
H8 H 0.6590 0.2683 0.4503
H9 H 0.286(10) -0.038(4) 0.348(5)
H10 H 0.374(13) -0.100(2) 0.251(4)
H11 H 0.539(9) -0.0632(15) 0.124(8)
H12 H 0.573(9) 0.024(6) 0.055(5)
Br1A Br -0.16497(9) -0.18025(9) 0.13151(8)
Br3A Br 0.00013(10) 0.05657(10) -0.25042(7)
O1A O -0.2742(5) -0.0228(4) -0.0843(4)
O4A O -0.1180(5) -0.1962(5) -0.1490(5)
C4A C -0.0709(7) -0.0512(6) -0.0501(6)
C6A C -0.0002(7) 0.0242(7) -0.1062(6)
C8A C -0.1575(7) -0.0953(7) -0.0979(6)
C12A C -0.0713(7) -0.0748(7) 0.0582(6)
Br2A Br 0.30360(9) 0.75668(7) -0.04586(9)
Br4A Br 0.26829(10) 0.49226(8) -0.10407(9)
O2A O 0.4955(6) 0.7769(5) 0.1386(5)
C2A C 0.4189(7) 0.6083(6) -0.0219(6)
C5A C 0.5163(7) 0.6129(6) 0.0216(6)
O6A O 0.6003(5) 0.7772(5) -0.0371(4)
C9A C 0.5378(8) 0.7323(6) 0.0444(7)
C10A C 0.4016(7) 0.4969(6) -0.0445(6)
Br5A Br -0.21883(10) 0.69352(9) 0.40743(8)
Br6A Br -0.13693(10) 0.39446(10) 0.34892(9)
C3A C -0.0588(8) 0.4577(7) 0.4352(6)
O3A O -0.1653(5) 0.8067(5) 0.6372(4)
O7A O -0.0110(7) 0.8202(6) 0.4839(5)
C11A C -0.0726(8) 0.7623(7) 0.5509(7)
C13A C -0.0354(8) 0.6260(7) 0.5267(6)
C14A C -0.0941(7) 0.5814(7) 0.4610(6)
Tm1A Tm -0.31770(3) -0.15139(3) -0.19909(3)
C1A C -0.3449(9) -0.4120(8) -0.2831(7)
O5A O -0.3386(6) 0.0304(5) -0.2861(4)
N1A N -0.2734(7) -0.3732(6) -0.2329(5)
C7A C -0.4424(10) -0.3171(10) -0.3223(7)
N2A N -0.4509(7) -0.2022(7) -0.3004(6)
O8A O -0.5285(5) -0.0129(4) -0.1182(4)
C15A C -0.1836(10) -0.4511(8) -0.1978(8)
H1A H -0.1357 -0.4223 -0.1622
C16A C -0.5346(11) -0.1139(12) -0.3368(9)
H2A H -0.5407 -0.0335 -0.3209
C17A C -0.2290(15) -0.6181(10) -0.2648(11)
H3A H -0.2124 -0.7015 -0.2770
C18A C -0.1585(12) -0.5776(9) -0.2132(10)
H4A H -0.0946 -0.6325 -0.1884
C19A C -0.3231(13) -0.5380(10) -0.2985(9)
H5A H -0.3735 -0.5659 -0.3319
C20A C -0.5161(14) -0.3463(13) -0.3821(10)
H6A H -0.5064 -0.4272 -0.3995
C21A C -0.6116(12) -0.1326(14) -0.3953(11)
H7A H -0.6664 -0.0680 -0.4208
C22A C -0.6042(14) -0.2513(17) -0.4147(11)
H8A H -0.6590 -0.2683 -0.4503
H9A H -0.286(10) 0.038(4) -0.348(5)
H10A H -0.374(13) 0.100(2) -0.251(4)
H11A H -0.539(9) 0.0632(15) -0.124(8)
H12A H -0.573(9) -0.024(6) -0.055(5)
Tm1A_2 Tm -0.31770(3) 0.84861(3) 0.80091(3)
Tm1A_3 Tm 0.68230(3) 0.84861(3) -0.19909(3)
O3A_2 O -0.1653(5) -0.1933(5) -0.3628(4)
O6A_2 O -0.3997(5) -0.2228(5) -0.0371(4)
O9 O 0.8256(6) 0.0613(6) 0.5273(6)
H13 H 0.862(11) 0.115(8) 0.533(12)
H14 H 0.882(9) -0.009(5) 0.520(13)
loop_
_geom_bond_atom_site_label_1
_geom_bond_atom_site_label_2
_geom_bond_site_symmetry_1
_geom_bond_site_symmetry_2
Tm1 O1 1_555 1_555
Br1 C12 1_555 1_555
Br2 C2 1_555 1_555
Br3 C6 1_555 1_555
Br4 C10 1_555 1_555
Br5 C14 1_555 1_555
Br6 C3 1_555 1_555
O1 C8 1_555 1_555
O2 C9 1_555 1_555
C1 N1 1_555 1_555
C2 C5 1_555 1_555
C3 C14 1_555 1_555
O3 Tm1 1_555 1_555
O4 Tm1 1_555 1_555
C4 C6 1_555 1_555
O5 Tm1 1_555 1_555
C5 C9 1_555 1_555
C6 C12A 1_555 1_555
O6 Tm1 1_555 1_555
N1 Tm1 1_555 1_555
C7 C1 1_555 1_555
O7 C11 1_555 1_555
C8 O4 1_555 1_555
C9 O6 1_555 1_555
N2 Tm1 1_555 1_555
O8 Tm1 1_555 1_555
C10 C2 1_555 1_555
C11 O3 1_555 1_555
C12 C4 1_555 1_555
C13 C11 1_555 1_555
C14 C13 1_555 1_555
C15 N1 1_555 1_555
H1 C15 1_555 1_555
C16 N2 1_555 1_555
H2 C16 1_555 1_555
C17 H3 1_555 1_555
C18 C15 1_555 1_555
H4 C18 1_555 1_555
C19 C1 1_555 1_555
H5 C19 1_555 1_555
C20 C7 1_555 1_555
H6 C20 1_555 1_555
C21 C16 1_555 1_555
H7 C21 1_555 1_555
C22 C20 1_555 1_555
H8 C22 1_555 1_555
H9 O5 1_555 1_555
H10 O5 1_555 1_555
H11 O8 1_555 1_555
H12 O8 1_555 1_555
O9 H13 1_555 1_555
H14 O9 1_555 1_555
Br1A C12A 1_555 1_555
Br3A C6A 1_555 1_555
O1A C8A 1_555 1_555
O4A C8A 1_555 1_555
C4A C6A 1_555 1_555
C6A C12 1_555 1_555
C8A C4A 1_555 1_555
C12A C4A 1_555 1_555
Br2A C2A 1_555 1_555
Br4A C10A 1_555 1_555
O2A C9A 1_555 1_555
C2A C5A 1_555 1_555
C5A C10 1_555 1_555
O6A C9A 1_555 1_555
C9A C5A 1_555 1_555
C10A C5 1_555 1_555
Br5A C14A 1_555 1_555
Br6A C3A 1_555 1_555
C3A C13 1_555 1_555
O3A C11A 1_555 1_555
O7A C11A 1_555 1_555
C11A C13A 1_555 1_555
C13A C3 1_555 1_555
C14A C3A 1_555 1_555
Tm1A O1A 1_555 1_555
C1A N1A 1_555 1_555
O5A Tm1A 1_555 1_555
N1A Tm1A 1_555 1_555
C7A C1A 1_555 1_555
N2A Tm1A 1_555 1_555
O8A Tm1A 1_555 1_555
C15A N1A 1_555 1_555
H1A C15A 1_555 1_555
C16A N2A 1_555 1_555
H2A C16A 1_555 1_555
C17A H3A 1_555 1_555
C18A C15A 1_555 1_555
H4A C18A 1_555 1_555
C19A C1A 1_555 1_555
H5A C19A 1_555 1_555
C20A C7A 1_555 1_555
H6A C20A 1_555 1_555
C21A C16A 1_555 1_555
H7A C21A 1_555 1_555
C22A C20A 1_555 1_555
H8A C22A 1_555 1_555
H9A O5A 1_555 1_555
H10A O5A 1_555 1_555
H11A O8A 1_555 1_555
H12A O8A 1_555 1_555
Tm1A_2 O3A 1_555 1_555
Tm1A_3 O6A 1_555 1_555
O3A_2 Tm1A 1_555 1_555
O6A_2 Tm1A 1_555 1_555
C4 C8 1_555 1_555
C7 N2 1_555 1_555
C17 C18 1_555 1_555
C17 C19 1_555 1_555
C21 C22 1_555 1_555
O4A Tm1A 1_555 1_555
C2A C10A 1_555 1_555
C13A C14A 1_555 1_555
C7A N2A 1_555 1_555
C17A C18A 1_555 1_555
C17A C19A 1_555 1_555
C21A C22A 1_555 1_555

#END
