
#######################################################################
#
#                 Cambridge Crystallographic Data Centre
#                                CCDC 
#
#######################################################################
#
# If this CIF has been generated from an entry in the Cambridge 
# Structural Database, then it will include bibliographic, chemical, 
# crystal, experimental, refinement or atomic coordinate data resulting 
# from the CCDC's data processing and validation procedures.
#
#######################################################################

data_NICZAA01
_symmetry_cell_setting           rhombohedral
_symmetry_space_group_name_H-M   'R -3 m'
_symmetry_Int_Tables_number      166
_space_group_name_Hall           '-R 3 2"'
loop_
_symmetry_equiv_pos_site_id
_symmetry_equiv_pos_as_xyz
1 x,y,z
2 -y,x-y,z
3 -x+y,-x,z
4 y,x,-z
5 2/3+x,1/3+y,1/3+z
6 2/3-y,1/3+x-y,1/3+z
7 2/3-x+y,1/3-x,1/3+z
8 2/3+y,1/3+x,1/3-z
9 1/3+x,2/3+y,2/3+z
10 1/3+y,2/3+x,2/3-z
11 -x+y,y,z
12 x,x-y,z
13 2/3+y,1/3-x+y,1/3-z
14 2/3+x-y,1/3+x,1/3-z
15 2/3-x+y,1/3+y,1/3+z
16 2/3+x,1/3+x-y,1/3+z
17 1/3-x+y,2/3+y,2/3+z
18 1/3+x,2/3+x-y,2/3+z
19 -x,-y,-z
20 y,-x+y,-z
21 x-y,x,-z
22 -y,-x,z
23 1/3-x,2/3-y,2/3-z
24 1/3+y,2/3-x+y,2/3-z
25 1/3+x-y,2/3+x,2/3-z
26 1/3-y,2/3-x,2/3+z
27 2/3-x,1/3-y,1/3-z
28 2/3-y,1/3-x,1/3+z
29 x-y,-y,-z
30 -x,-x+y,-z
31 1/3-y,2/3+x-y,2/3+z
32 1/3-x+y,2/3-x,2/3+z
33 1/3+x-y,2/3-y,2/3-z
34 1/3-x,2/3-x+y,2/3-z
35 2/3+x-y,1/3-y,1/3-z
36 2/3-x,1/3-x+y,1/3-z
_cell_length_a                   11.989(2)
_cell_length_b                   11.989(2)
_cell_length_c                   25.362(5)
_cell_angle_alpha                90
_cell_angle_beta                 90
_cell_angle_gamma                120.00
_cell_volume                     3157.04
loop_
_atom_site_label
_atom_site_type_symbol
_atom_site_fract_x
_atom_site_fract_y
_atom_site_fract_z
N1 N 0.0946(2) 0.1893(4) 0.05083(13)
N2 N 0.0010(2) -0.4996(4) 0.21986(13)
C1 C -0.1233(2) -0.5617(4) 0.2313(2)
H1 H 0.0725(2) -0.8551(4) 0.1272(2)
C2 C -0.0247(3) -0.5124(5) 0.3042(2)
H2 H -0.0078(3) -0.5039(5) 0.3402(2)
C3 C 0.0650(3) -0.4675(5) 0.2665(2)
H3 H 0.1539(3) -0.4231(5) 0.2712(2)
C4 C 0.0547(2) -0.4727(5) 0.1660(2)
H4 H 0.0243(2) -0.4225(5) 0.1472(2)
H5 H 0.0243(2) -0.5534(5) 0.1472(2)
C5 C 0.1997(2) -0.4002(4) 0.16648(14)
Cd1 Cd 0.0000 0.0000 0.0000
N1A N -0.1893(4) -0.0947(4) 0.05083(13)
Cd1IA Cd -0.3333 -0.6667 0.3333
N1G N -0.1440(4) -0.5721(2) 0.28250(13)
C5G C 0.2665(4) -0.4670(2) 0.16685(14)
C4G C 0.1940(5) -0.6120(2) 0.1673(2)
N2G N 0.1671(4) -0.6657(2) 0.11347(13)
C1G C 0.1050(4) -0.7900(2) 0.1020(2)
N1_2 N 0.0946(2) -0.8107(4) 0.05083(13)
C2G C 0.1543(5) -0.6914(3) 0.0291(2)
H2G H 0.1628(5) -0.6745(3) -0.0069(2)
C3G C 0.1992(5) -0.6017(3) 0.0668(2)
H3G H 0.2436(5) -0.5128(3) 0.0621(2)
Cd1_2 Cd 0.0000 -1.0000 0.0000
H4G H 0.2442(5) -0.6424(2) 0.1861(2)
H5G H 0.1133(5) -0.6424(2) 0.1861(2)
C5A C 0.4002(4) -0.4001(4) 0.16648(14)
C4A C 0.4727(5) -0.4726(5) 0.1660(2)
N2A N 0.4996(4) -0.4994(4) 0.21986(13)
C1A C 0.5617(4) -0.5616(4) 0.2313(2)
N1M N 0.5720(4) -0.5721(2) 0.28250(13)
C2A C 0.5124(5) -0.5123(6) 0.3042(2)
H2A H 0.5039(5) -0.5039(6) 0.3402(2)
C3A C 0.4675(5) -0.4675(6) 0.2665(2)
H3A H 0.4231(5) -0.4230(6) 0.2712(2)
Cd1M Cd 0.6667 -0.6667 0.3333
H1M H 0.5943(4) -0.5942(2) 0.2061(2)
H4J H 0.5532(5) -0.4225(5) 0.1472(2)
H5J H 0.4223(5) -0.5534(5) 0.1472(2)
C5Z C 0.4670(2) -0.2665(4) 0.16685(14)
C4Z C 0.6120(2) -0.1940(5) 0.1673(2)
N2Z N 0.6657(2) -0.1671(4) 0.11347(13)
C1Z C 0.7900(2) -0.1050(4) 0.1020(2)
N1A_2 N 0.8107(4) -0.0947(4) 0.05083(13)
C2Z C 0.6914(3) -0.1543(5) 0.0291(2)
H2Z H 0.6745(3) -0.1628(5) -0.0069(2)
C3Z C 0.6017(3) -0.1992(5) 0.0668(2)
H3Z H 0.5128(3) -0.2436(5) 0.0621(2)
Cd1A Cd 1.0000 0.0000 0.0000
H1A H 0.8551(4) -0.0724(4) 0.1272(2)
H4IA H 0.6424(2) -0.1135(5) 0.1861(2)
H5IA H 0.6424(2) -0.2444(5) 0.1861(2)
C5B C 0.4001(4) -0.1997(2) 0.16648(14)
C4B C 0.4726(5) -0.0547(2) 0.1660(2)
N2B N 0.4994(4) -0.0010(2) 0.21986(13)
C1B C 0.5616(4) 0.1233(2) 0.2313(2)
N1Z N 0.5721(2) 0.1440(4) 0.28250(13)
C2B C 0.5123(6) 0.0247(3) 0.3042(2)
H2B H 0.5039(6) 0.0078(3) 0.3402(2)
C3B C 0.4675(6) -0.0650(3) 0.2665(2)
H3B H 0.4230(6) -0.1539(3) 0.2712(2)
Cd1Z Cd 0.6667 0.3333 0.3333
H1Z H 0.5942(2) 0.1884(4) 0.2061(2)
H4U H 0.4225(5) -0.0243(2) 0.1472(2)
H5U H 0.5534(5) -0.0243(2) 0.1472(2)
C5L C 0.2665(4) -0.2666(4) 0.16685(14)
H1G H -0.1884(4) -0.5942(2) 0.2061(2)
N1B N 0.0947(4) -0.0946(2) 0.05083(13)
C1L C 0.1050(4) -0.1051(4) 0.1020(2)
N2L N 0.1671(4) -0.1673(4) 0.11347(13)
C3L C 0.1992(5) -0.1992(6) 0.0668(2)
C2L C 0.1543(5) -0.1544(6) 0.0291(2)
H2L H 0.1628(5) -0.1628(6) -0.0069(2)
H3L H 0.2436(5) -0.2437(6) 0.0621(2)
C4L C 0.1940(5) -0.1941(5) 0.1673(2)
H4HA H 0.1135(5) -0.2442(5) 0.1861(2)
H5HA H 0.2444(5) -0.1133(5) 0.1861(2)
H1B H 0.0724(4) -0.0725(2) 0.1272(2)
N1C N 0.1893(4) 0.0946(2) -0.05083(13)
N1R N -0.0946(2) -0.1893(4) -0.05083(13)
N1T N -0.0947(4) 0.0946(2) -0.05083(13)
F1 F 0.6667 0.3333 0.1383(3)
O1 O 0.4557(5) 0.9114(9) -0.0411(3)
O2 O 0.2088(4) 0.4175(9) -0.1188(4)
O3 O 0.3333 0.6667 -0.0051(8)
loop_
_geom_bond_atom_site_label_1
_geom_bond_atom_site_label_2
_geom_bond_site_symmetry_1
_geom_bond_site_symmetry_2
N1 Cd1 1_555 1_555
N2 C1 1_555 1_555
C1 N1G 1_555 1_555
H1 C1G 1_555 1_555
C2 H2 1_555 1_555
C3 N2 1_555 1_555
H3 C3 1_555 1_555
C4 N2 1_555 1_555
H4 C4 1_555 1_555
H5 C4 1_555 1_555
C5 C4 1_555 1_555
Cd1 N1A 1_555 1_555
Cd1IA N1G 1_555 1_555
N1G C2 1_555 1_555
C5G C5 1_555 1_555
C4G C5G 1_555 1_555
N2G C4G 1_555 1_555
C1G N2G 1_555 1_555
N1_2 C1G 1_555 1_555
C2G N1_2 1_555 1_555
H2G C2G 1_555 1_555
C3G N2G 1_555 1_555
H3G C3G 1_555 1_555
Cd1_2 N1_2 1_555 1_555
H4G C4G 1_555 1_555
H5G C4G 1_555 1_555
C5A C5G 1_555 1_555
C4A C5A 1_555 1_555
N2A C4A 1_555 1_555
C1A N2A 1_555 1_555
N1M C1A 1_555 1_555
C2A N1M 1_555 1_555
H2A C2A 1_555 1_555
C3A N2A 1_555 1_555
H3A C3A 1_555 1_555
Cd1M N1M 1_555 1_555
H1M C1A 1_555 1_555
H4J C4A 1_555 1_555
H5J C4A 1_555 1_555
C5Z C5A 1_555 1_555
C4Z C5Z 1_555 1_555
N2Z C4Z 1_555 1_555
C1Z N2Z 1_555 1_555
N1A_2 C1Z 1_555 1_555
C2Z N1A_2 1_555 1_555
H2Z C2Z 1_555 1_555
C3Z N2Z 1_555 1_555
H3Z C3Z 1_555 1_555
Cd1A N1A_2 1_555 1_555
H1A C1Z 1_555 1_555
H4IA C4Z 1_555 1_555
H5IA C4Z 1_555 1_555
C5B C5Z 1_555 1_555
C4B C5B 1_555 1_555
N2B C4B 1_555 1_555
C1B N2B 1_555 1_555
N1Z C1B 1_555 1_555
C2B N1Z 1_555 1_555
H2B C2B 1_555 1_555
C3B N2B 1_555 1_555
H3B C3B 1_555 1_555
Cd1Z N1Z 1_555 1_555
H1Z C1B 1_555 1_555
H4U C4B 1_555 1_555
H5U C4B 1_555 1_555
C5L C5 1_555 1_555
H1G C1 1_555 1_555
N1B Cd1 1_555 1_555
C1L N1B 1_555 1_555
N2L C1L 1_555 1_555
C3L N2L 1_555 1_555
C2L N1B 1_555 1_555
H2L C2L 1_555 1_555
H3L C3L 1_555 1_555
C4L C5L 1_555 1_555
H4HA C4L 1_555 1_555
H5HA C4L 1_555 1_555
H1B C1L 1_555 1_555
N1C Cd1 1_555 1_555
N1R Cd1 1_555 1_555
N1T Cd1 1_555 1_555
C2 C3 1_555 1_555
C2G C3G 1_555 1_555
C2A C3A 1_555 1_555
C2Z C3Z 1_555 1_555
C5B C5L 1_555 1_555
C2B C3B 1_555 1_555
N2L C4L 1_555 1_555
C3L C2L 1_555 1_555

#END
