
#######################################################################
#
#                 Cambridge Crystallographic Data Centre
#                                CCDC 
#
#######################################################################
#
# If this CIF has been generated from an entry in the Cambridge 
# Structural Database, then it will include bibliographic, chemical, 
# crystal, experimental, refinement or atomic coordinate data resulting 
# from the CCDC's data processing and validation procedures.
#
#######################################################################

data_NIDBUY
_symmetry_cell_setting           triclinic
_symmetry_space_group_name_H-M   'P -1'
_symmetry_Int_Tables_number      2
_space_group_name_Hall           '-P 1'
loop_
_symmetry_equiv_pos_site_id
_symmetry_equiv_pos_as_xyz
1 x,y,z
2 -x,-y,-z
_cell_length_a                   7.047(2)
_cell_length_b                   7.719(2)
_cell_length_c                   13.786(3)
_cell_angle_alpha                99.96(2)
_cell_angle_beta                 100.050(14)
_cell_angle_gamma                105.38(3)
_cell_volume                     692.707
loop_
_atom_site_label
_atom_site_type_symbol
_atom_site_fract_x
_atom_site_fract_y
_atom_site_fract_z
Sr1 Sr -0.73813(7) -0.06329(6) 0.07826(3)
O1 O -1.1168(6) -0.1397(5) 0.0458(3)
O2 O -1.4339(5) -0.1521(5) 0.0390(3)
O3 O -0.4358(6) 0.2019(5) 0.2098(3)
O4 O -0.7333(8) -0.1190(7) 0.2633(4)
O5 O -0.8757(8) -0.2679(6) -0.1103(3)
O6 O -0.8172(8) -0.4179(7) 0.0861(4)
O7 O -0.7249(6) 0.2635(5) 0.2050(3)
O8 O -0.7475(6) 0.5378(5) 0.3341(3)
H1 H -0.7876(6) 0.4491(5) 0.2853(3)
O9 O -0.1607(7) 0.8989(5) 0.5799(3)
H2 H -0.0400(7) 0.9098(5) 0.5975(3)
C1 C -0.5380(8) 0.3016(7) 0.2437(4)
C2 C -1.2831(7) -0.1983(7) 0.0707(4)
C3 C -1.2934(12) -0.3273(12) 0.1407(7)
C4 C -0.5474(8) 0.5705(7) 0.3726(4)
C5 C -0.2480(9) 0.7562(7) 0.4970(4)
C6 C -0.4357(8) 0.4610(7) 0.3305(4)
C7 C -0.2311(8) 0.5096(7) 0.3728(4)
H3 H -0.1556(8) 0.4410(7) 0.3447(4)
C8 C -0.4515(9) 0.7165(7) 0.4562(4)
H4 H -0.5247(9) 0.7873(7) 0.4846(4)
C9 C -0.1346(9) 0.6543(7) 0.4543(4)
H5 H 0.0038(9) 0.6842(7) 0.4806(4)
H6 H -0.7960(91) -0.2619(73) -0.1464(43)
H7 H -1.390(11) -0.3010(89) 0.1891(52)
H8 H -0.9438(89) -0.2288(77) -0.1332(40)
H9 H -1.197(14) -0.286(11) 0.1949(61)
H10 H -0.765(15) -0.061(12) 0.2981(61)
H11 H -1.379(11) -0.4150(93) 0.1115(51)
H12 H -0.881(13) -0.495(11) 0.0920(61)
H15 H -0.806(16) -0.222(13) 0.2844(72)
Sr1A Sr -1.26187(7) 0.06329(6) -0.07826(3)
Sr1_2 Sr -1.73813(7) -0.06329(6) 0.07826(3)
O1A O -0.8832(6) 0.1397(5) -0.0458(3)
O2_2 O -0.4339(5) -0.1521(5) 0.0390(3)
O2A O -0.5661(5) 0.1521(5) -0.0390(3)
O10 O -0.2337(9) 0.0475(9) 0.3480(5)
H13 H -0.288(12) -0.049(11) 0.3486(59)
H14 H -0.2604(98) 0.1023(85) 0.3148(45)
loop_
_geom_bond_atom_site_label_1
_geom_bond_atom_site_label_2
_geom_bond_site_symmetry_1
_geom_bond_site_symmetry_2
Sr1 O1 1_555 1_555
O1 C2 1_555 1_555
O2 C2 1_555 1_555
O3 Sr1 1_555 1_555
O4 Sr1 1_555 1_555
O5 Sr1 1_555 1_555
O6 Sr1 1_555 1_555
O7 Sr1 1_555 1_555
O8 H1 1_555 1_555
O9 H2 1_555 1_555
C1 O3 1_555 1_555
C2 C3 1_555 1_555
C3 H7 1_555 1_555
C4 O8 1_555 1_555
C5 O9 1_555 1_555
C6 C1 1_555 1_555
C7 C6 1_555 1_555
H3 C7 1_555 1_555
C8 C4 1_555 1_555
H4 C8 1_555 1_555
C9 C5 1_555 1_555
H5 C9 1_555 1_555
O10 H13 1_555 1_555
H6 O5 1_555 1_555
H8 O5 1_555 1_555
H9 C3 1_555 1_555
H10 O4 1_555 1_555
H11 C3 1_555 1_555
H12 O6 1_555 1_555
H14 O10 1_555 1_555
H15 O4 1_555 1_555
Sr1A O1 1_555 1_555
Sr1_2 O2 1_555 1_555
O1A Sr1 1_555 1_555
O2_2 Sr1 1_555 1_555
O2A Sr1 1_555 1_555
O2 Sr1A 1_555 1_555
O7 C1 1_555 1_555
C4 C6 1_555 1_555
C5 C8 1_555 1_555
C7 C9 1_555 1_555
Sr1A O1A 1_555 1_555

#END
