
#######################################################################
#
#                 Cambridge Crystallographic Data Centre
#                                CCDC 
#
#######################################################################
#
# If this CIF has been generated from an entry in the Cambridge 
# Structural Database, then it will include bibliographic, chemical, 
# crystal, experimental, refinement or atomic coordinate data resulting 
# from the CCDC's data processing and validation procedures.
#
#######################################################################

data_NIDBEI
_symmetry_cell_setting           triclinic
_symmetry_space_group_name_H-M   'P -1'
_symmetry_Int_Tables_number      2
_space_group_name_Hall           '-P 1'
loop_
_symmetry_equiv_pos_site_id
_symmetry_equiv_pos_as_xyz
1 x,y,z
2 -x,-y,-z
_cell_length_a                   10.240(2)
_cell_length_b                   10.502(2)
_cell_length_c                   16.441(4)
_cell_angle_alpha                98.156(4)
_cell_angle_beta                 96.206(4)
_cell_angle_gamma                96.373(4)
_cell_volume                     1725.54
loop_
_atom_site_label
_atom_site_type_symbol
_atom_site_fract_x
_atom_site_fract_y
_atom_site_fract_z
Sr1 Sr 0.45736(3) 0.35394(3) 0.15339(2)
Sr2 Sr 0.57273(3) 0.66923(3) 0.35783(2)
O1 O 0.4179(3) 0.5888(3) 0.2137(2)
O2 O 0.6252(3) 0.4406(3) 0.2911(2)
O3 O 0.6097(3) 0.1681(3) 0.1682(2)
O4 O 0.6611(2) 0.5850(3) 0.4942(2)
O5 O 0.6780(3) 0.8104(3) 0.2610(2)
O6 O 0.4198(3) 0.8533(3) 0.3384(2)
O7 O 0.8259(3) 0.7015(3) 0.4075(2)
O8 O 0.4820(3) 0.7882(3) 0.4832(2)
O9 O 0.5306(3) 0.2046(2) -0.12928(14)
O10 O 0.4287(3) 0.7765(2) 0.62793(14)
O11 O 0.3405(2) 0.4179(3) 0.0203(2)
O12 O 0.2002(3) 0.3113(3) 0.1230(2)
O13 O 0.5188(3) 0.2189(3) 0.0234(2)
O14 O 0.3111(3) 0.9180(2) 0.69035(14)
O15 O 0.6220(2) 0.4813(3) 0.6180(2)
O16 O 0.1770(2) 0.4861(3) -0.2070(2)
O17 O 0.6639(3) 0.0812(3) -0.1924(2)
O18 O 0.3525(2) 0.5055(3) -0.1119(2)
O19 O 0.7892(2) 0.4345(3) 0.7015(2)
O20 O 0.3592(4) 0.2133(4) 0.2517(2)
C1 C 0.7607(4) 0.0044(3) -0.0405(2)
H1 H 0.7950(4) -0.0306(3) -0.0876(2)
C2 C 0.7922(3) 0.6041(3) 0.5249(2)
C3 C 0.3555(4) 0.8676(3) 0.6274(2)
C4 C 0.9745(3) 0.5861(3) 0.6258(2)
H2 H 1.0071(3) 0.5585(3) 0.6745(2)
C5 C 0.6158(4) 0.1243(4) -0.1294(2)
C6 C 0.6619(3) 0.1096(3) 0.1014(2)
C7 C 0.8801(3) 0.6661(3) 0.4797(2)
C8 C 0.3214(3) 0.9105(3) 0.5453(2)
C9 C 0.7577(4) 0.0279(3) 0.1060(2)
H3 H 0.7898(4) 0.0079(3) 0.1571(2)
C10 C 0.6143(3) 0.1385(3) 0.0236(2)
C11 C 0.7452(4) 0.4877(4) 0.6427(2)
C12 C 0.0095(3) 0.3841(4) -0.0972(2)
H4 H -0.0326(3) 0.4021(4) -0.1465(2)
C13 C 0.6628(3) 0.0864(3) -0.0478(2)
C14 C 0.3844(3) 0.8661(3) 0.4777(2)
C15 C 1.0598(4) 0.6503(4) 0.5826(2)
H5 H 1.1495(4) 0.6672(4) 0.6024(2)
C16 C 0.2292(4) 0.4719(4) -0.1370(2)
C17 C 0.3502(3) 0.9020(3) 0.4003(2)
C18 C 0.8396(3) 0.5616(3) 0.5982(2)
C19 C 0.1893(4) 1.0236(4) 0.4573(2)
H6 H 0.1227(4) 1.0759(4) 0.4501(2)
C20 C -0.0644(4) 0.3299(4) -0.0432(2)
H7 H -0.1558(4) 0.3113(4) -0.0562(2)
C21 C 0.1470(3) 0.4128(3) -0.0793(2)
C22 C 0.2232(4) 0.9904(3) 0.5340(2)
H8 H 0.1804(4) 1.0214(3) 0.5785(2)
C23 C 1.0129(3) 0.6906(3) 0.5085(2)
H9 H 1.0713(3) 0.7339(3) 0.4790(2)
C24 C 0.2068(3) 0.3880(3) -0.0034(2)
C25 C 0.8066(4) -0.0249(4) 0.0351(2)
H10 H 0.8709(4) -0.0804(4) 0.0389(2)
C26 C 0.1312(4) 0.3320(3) 0.0510(2)
C27 C -0.0032(4) 0.3023(3) 0.0312(2)
H11 H -0.0534(4) 0.2639(3) 0.0672(2)
C28 C 0.2535(4) 0.9800(3) 0.3907(2)
H12 H 0.2305(4) 1.0040(3) 0.3393(2)
H13 H 0.6318(37) 0.1397(36) 0.2093(23)
H14 H 0.4239(38) 0.6484(39) 0.1859(24)
H15 H 0.3907(39) 0.8733(39) 0.2970(24)
H16 H 0.3539(45) 0.5924(45) 0.2337(28)
H17 H 0.6872(47) 0.4526(45) 0.2675(29)
H18 H 0.6973(50) 0.8776(45) 0.2775(30)
H19 H 0.6237(41) 0.3859(40) 0.3151(25)
H20 H 0.5043(41) 0.2299(40) -0.0227(25)
H22 H 0.6185(47) 0.5394(48) 0.5295(30)
H24 H 0.1527(41) 0.2738(40) 0.1498(26)
H26 H 0.3684(41) 0.4517(41) -0.0183(26)
H27 H 0.4186(48) 0.2006(48) 0.3017(32)
H28 H 0.6316(52) 0.8053(51) 0.2148(33)
H29 H 0.3479(37) 0.2754(30) 0.2763(21)
H30 H 0.8814(40) 0.7195(40) 0.3794(25)
H31 H 0.4799(44) 0.7683(42) 0.5189(24)
Sr1A Sr 0.54264(3) 0.64606(3) -0.15339(2)
Sr2A Sr 0.42727(3) 0.33077(3) 0.64217(2)
O15A O 0.3780(2) 0.5187(3) 0.3820(2)
O18A O 0.6475(2) 0.4945(3) 0.1119(2)
O21 O 0.9963(3) 0.7168(3) 0.2997(2)
H21 H 0.9457(42) 0.6612(41) 0.2720(25)
H23 H 1.0699(49) 0.6797(47) 0.3096(29)
O22 O 0.0593(6) 0.1881(5) 0.2223(4)
H25 H 0.0459(66) 0.2038(64) 0.2520(35)
O23 O 0.0389(4) -0.0733(3) 0.2066(2)
loop_
_geom_bond_atom_site_label_1
_geom_bond_atom_site_label_2
_geom_bond_site_symmetry_1
_geom_bond_site_symmetry_2
Sr1 O1 1_555 1_555
Sr2 O1 1_555 1_555
O1 H14 1_555 1_555
O2 Sr1 1_555 1_555
O3 Sr1 1_555 1_555
O4 Sr2 1_555 1_555
O5 Sr2 1_555 1_555
O6 Sr2 1_555 1_555
O7 Sr2 1_555 1_555
O8 Sr2 1_555 1_555
O9 C5 1_555 1_555
O10 C3 1_555 1_555
O11 Sr1 1_555 1_555
O12 Sr1 1_555 1_555
O13 Sr1 1_555 1_555
O14 C3 1_555 1_555
O15 C11 1_555 1_555
O16 C16 1_555 1_555
O17 C5 1_555 1_555
O18 C16 1_555 1_555
O19 C11 1_555 1_555
O20 Sr1 1_555 1_555
C1 H1 1_555 1_555
C2 O4 1_555 1_555
C3 C8 1_555 1_555
C4 H2 1_555 1_555
C5 C13 1_555 1_555
C6 O3 1_555 1_555
C7 O7 1_555 1_555
C8 C14 1_555 1_555
C9 C6 1_555 1_555
H3 C9 1_555 1_555
C10 O13 1_555 1_555
C11 C18 1_555 1_555
C12 H4 1_555 1_555
C13 C1 1_555 1_555
C14 O8 1_555 1_555
C15 C4 1_555 1_555
H5 C15 1_555 1_555
C16 C21 1_555 1_555
C17 O6 1_555 1_555
C18 C2 1_555 1_555
C19 H6 1_555 1_555
C20 C12 1_555 1_555
H7 C20 1_555 1_555
C21 C12 1_555 1_555
C22 C8 1_555 1_555
H8 C22 1_555 1_555
C23 C7 1_555 1_555
H9 C23 1_555 1_555
C24 O11 1_555 1_555
C25 C1 1_555 1_555
H10 C25 1_555 1_555
C26 O12 1_555 1_555
C27 C20 1_555 1_555
H11 C27 1_555 1_555
C28 C17 1_555 1_555
H12 C28 1_555 1_555
O21 H21 1_555 1_555
O22 H25 1_555 1_555
H13 O3 1_555 1_555
H15 O6 1_555 1_555
H16 O1 1_555 1_555
H17 O2 1_555 1_555
H18 O5 1_555 1_555
H19 O2 1_555 1_555
H20 O13 1_555 1_555
H22 O4 1_555 1_555
H23 O21 1_555 1_555
H24 O12 1_555 1_555
H26 O11 1_555 1_555
H27 O20 1_555 1_555
H28 O5 1_555 1_555
H29 O20 1_555 1_555
H30 O7 1_555 1_555
H31 O8 1_555 1_555
Sr1A O18 1_555 1_555
Sr2A O15 1_555 1_555
O15A Sr2 1_555 1_555
O18A Sr1 1_555 1_555
Sr2 O2 1_555 1_555
C2 C7 1_555 1_555
C4 C18 1_555 1_555
C6 C10 1_555 1_555
C9 C25 1_555 1_555
C10 C13 1_555 1_555
C14 C17 1_555 1_555
C15 C23 1_555 1_555
C19 C22 1_555 1_555
C19 C28 1_555 1_555
C21 C24 1_555 1_555
C24 C26 1_555 1_555
C26 C27 1_555 1_555

#END
