
#######################################################################
#
#                 Cambridge Crystallographic Data Centre
#                                CCDC 
#
#######################################################################
#
# If this CIF has been generated from an entry in the Cambridge 
# Structural Database, then it will include bibliographic, chemical, 
# crystal, experimental, refinement or atomic coordinate data resulting 
# from the CCDC's data processing and validation procedures.
#
#######################################################################

data_NIDBOS
_symmetry_cell_setting           monoclinic
_symmetry_space_group_name_H-M   'C 2/c'
_symmetry_Int_Tables_number      15
_space_group_name_Hall           '-C 2yn'
loop_
_symmetry_equiv_pos_site_id
_symmetry_equiv_pos_as_xyz
1 x,y,z
2 1/2+x,1/2+y,z
3 -x,y,1/2-z
4 1/2-x,1/2+y,1/2-z
5 -x,-y,-z
6 1/2-x,1/2-y,-z
7 x,-y,1/2+z
8 1/2+x,1/2-y,1/2+z
_cell_length_a                   11.703(4)
_cell_length_b                   21.409(6)
_cell_length_c                   7.841(2)
_cell_angle_alpha                90
_cell_angle_beta                 90.131(5)
_cell_angle_gamma                90
_cell_volume                     1964.55
loop_
_atom_site_label
_atom_site_type_symbol
_atom_site_fract_x
_atom_site_fract_y
_atom_site_fract_z
Sr1 Sr 1.0000 1.02978(3) 0.2500
O1 O 0.8330(3) 0.94370(15) 0.2180(4)
O2 O 1.1682(4) 1.09392(19) 0.1222(5)
O3 O 0.6821(3) 0.72257(17) 0.1599(5)
H1 H 0.6915 0.6846 0.1630
O4 O 0.9243(3) 0.94110(15) 0.4635(4)
C1 C 0.8568(4) 0.8453(2) 0.3519(6)
C2 C 0.7736(4) 0.8162(2) 0.2535(6)
H2 H 0.7232 0.8399 0.1882
C3 C 0.7663(4) 0.7514(2) 0.2533(6)
C4 C 0.8698(4) 0.9142(2) 0.3457(6)
C5 C 0.8439(4) 0.7156(2) 0.3450(6)
H3 H 0.8411 0.6722 0.3404
O5 O 1.0015(4) 0.71048(19) 0.5372(5)
H4 H 0.9942 0.6735 0.5127
C6 C 0.9256(4) 0.7454(2) 0.4434(6)
C7 C 0.9314(4) 0.8096(2) 0.4502(6)
H5 H 0.9850 0.8290 0.5201
H8 H 1.172(6) 1.092(3) 0.028(4)
H9 H 1.175(6) 1.122(2) 0.172(6)
Sr1F Sr 1.0000 0.97022(3) 0.7500
Sr1F_2 Sr 1.0000 0.97022(3) -0.2500
O1B O 1.1670(3) 0.94370(15) 0.2820(4)
O2B O 0.8318(4) 1.09392(19) 0.3778(5)
O3B O 1.3179(3) 0.72257(17) 0.3401(5)
H1B H 1.3085 0.6846 0.3370
O4B O 1.0757(3) 0.94110(15) 0.0365(4)
O4F O 0.9243(3) 1.05890(15) -0.0365(4)
O4D O 1.0757(3) 1.05890(15) 0.5365(4)
C1B C 1.1432(4) 0.8453(2) 0.1481(6)
C2B C 1.2264(4) 0.8162(2) 0.2465(6)
H2B H 1.2768 0.8399 0.3118
C3B C 1.2337(4) 0.7514(2) 0.2467(6)
C4B C 1.1302(4) 0.9142(2) 0.1543(6)
C5B C 1.1561(4) 0.7156(2) 0.1550(6)
H3B H 1.1589 0.6722 0.1596
O5B O 0.9985(4) 0.71048(19) -0.0372(5)
H4B H 1.0058 0.6735 -0.0127
C6B C 1.0744(4) 0.7454(2) 0.0566(6)
C7B C 1.0686(4) 0.8096(2) 0.0498(6)
H5B H 1.0150 0.8290 -0.0201
H8B H 0.828(6) 1.092(3) 0.472(4)
H9B H 0.825(6) 1.122(2) 0.328(6)
O6 O 0.9893(7) 0.5843(4) -0.0052(10)
H6 H 0.956(7) 0.570(4) 0.073(7)
H7 H 1.044(4) 0.571(3) -0.058(8)
O7 O 1.3500(8) 1.0356(4) 0.2593(13)
O8? O 1.3841(8) 0.9863(5) 0.2277(14)
loop_
_geom_bond_atom_site_label_1
_geom_bond_atom_site_label_2
_geom_bond_site_symmetry_1
_geom_bond_site_symmetry_2
Sr1 O1 1_555 1_555
O1 C4 1_555 1_555
O2 Sr1 1_555 1_555
O3 H1 1_555 1_555
O4 Sr1 1_555 1_555
C1 C2 1_555 1_555
C2 H2 1_555 1_555
C3 O3 1_555 1_555
C4 O4 1_555 1_555
C5 C3 1_555 1_555
H3 C5 1_555 1_555
O5 H4 1_555 1_555
C6 C5 1_555 1_555
C7 C1 1_555 1_555
H5 C7 1_555 1_555
O6 H6 1_555 1_555
H7 O6 1_555 1_555
H8 O2 1_555 1_555
H9 O2 1_555 1_555
Sr1F O4 1_555 1_555
Sr1F_2 O4B 1_555 1_555
O1B Sr1 1_555 1_555
O2B Sr1 1_555 1_555
O3B H1B 1_555 1_555
O4B Sr1 1_555 1_555
O4F Sr1 1_555 1_555
O4D Sr1 1_555 1_555
C1B C2B 1_555 1_555
C2B H2B 1_555 1_555
C3B O3B 1_555 1_555
C4B O1B 1_555 1_555
C5B C3B 1_555 1_555
H3B C5B 1_555 1_555
O5B H4B 1_555 1_555
C6B C5B 1_555 1_555
C7B C1B 1_555 1_555
H5B C7B 1_555 1_555
H8B O2B 1_555 1_555
H9B O2B 1_555 1_555
C1 C4 1_555 1_555
C2 C3 1_555 1_555
O5 C6 1_555 1_555
C6 C7 1_555 1_555
Sr1F O4D 1_555 1_555
Sr1F_2 O4F 1_555 1_555
O4B C4B 1_555 1_555
C1B C4B 1_555 1_555
C2B C3B 1_555 1_555
O5B C6B 1_555 1_555
C6B C7B 1_555 1_555

#END
