
#######################################################################
#
#                 Cambridge Crystallographic Data Centre
#                                CCDC 
#
#######################################################################
#
# If this CIF has been generated from an entry in the Cambridge 
# Structural Database, then it will include bibliographic, chemical, 
# crystal, experimental, refinement or atomic coordinate data resulting 
# from the CCDC's data processing and validation procedures.
#
#######################################################################

data_NIDBIM
_symmetry_cell_setting           triclinic
_symmetry_space_group_name_H-M   'P -1'
_symmetry_Int_Tables_number      2
_space_group_name_Hall           '-P 1'
loop_
_symmetry_equiv_pos_site_id
_symmetry_equiv_pos_as_xyz
1 x,y,z
2 -x,-y,-z
_cell_length_a                   6.7958(15)
_cell_length_b                   10.461(2)
_cell_length_c                   13.095(3)
_cell_angle_alpha                101.380(3)
_cell_angle_beta                 91.542(4)
_cell_angle_gamma                97.946(4)
_cell_volume                     902.462
loop_
_atom_site_label
_atom_site_type_symbol
_atom_site_fract_x
_atom_site_fract_y
_atom_site_fract_z
Sr1 Sr 0.26485(3) 0.32468(2) -0.052874(16)
O1 O 0.3645(3) 0.30019(19) 0.12847(13)
O2 O 0.0971(3) 0.46787(18) -0.15372(14)
O3 O 0.3482(6) 0.2720(3) -0.2471(2)
O4 O -0.0154(8) 0.1292(5) -0.1297(3)
O5 O 0.4327(7) 0.1120(3) -0.0642(3)
O6 O 0.0644(3) 0.66061(18) -0.05223(13)
O7 O 0.6441(3) 0.42908(19) -0.05903(14)
O8 O 0.3795(3) 0.49092(18) 0.24121(14)
O9 O 0.1710(3) 0.84440(18) -0.48244(13)
H1 H 0.1714 0.7906 -0.5372
O10 O 0.3215(3) 0.10061(18) 0.55574(14)
H2 H 0.3245 0.1561 0.6098
O11 O 0.3423(3) 0.08325(18) 0.19102(13)
H3 H 0.3512 0.1320 0.1489
O12 O 0.1290(4) 0.87123(19) -0.12121(15)
H4 H 0.1167 0.8247 -0.0775
C1 C 0.3695(4) 0.3673(3) 0.22091(18)
C2 C 0.0921(4) 0.5895(3) -0.14084(19)
C3 C 0.1570(4) 0.7801(2) -0.40093(19)
C4 C 0.3339(4) 0.1617(2) 0.47232(19)
C5 C 0.3457(4) 0.1566(2) 0.28899(18)
C6 C 0.1341(4) 0.7943(2) -0.21734(19)
C7 C 0.1202(3) 0.6566(2) -0.23065(18)
C8 C 0.1446(4) 0.6440(2) -0.41669(19)
H5 H 0.1472 0.5936 -0.4835
C9 C 0.1282(4) 0.5851(2) -0.33145(19)
H6 H 0.1224 0.4941 -0.3418
C10 C 0.3609(3) 0.2944(2) 0.30769(18)
C11 C 0.3623(4) 0.3619(2) 0.41001(19)
H7 H 0.3716 0.4532 0.4234
C12 C 0.1542(4) 0.8551(2) -0.30220(19)
H8 H 0.1657 0.9464 -0.2924
C13 C 0.3320(4) 0.0905(2) 0.37177(19)
H9 H 0.3216 -0.0009 0.3592
C14 C 0.3505(4) 0.2981(2) 0.49262(19)
H10 H 0.3536 0.3456 0.5608
H11 H -0.032(3) 0.147(2) -0.1766(12)
H12 H 0.663(6) 0.451(4) -0.124(3)
H13 H 0.396(5) 0.214(3) -0.240(3)
H14 H 0.537(4) 0.133(7) -0.050(5)
H15 H 0.396(9) 0.065(5) -0.110(3)
H16 H 0.732(5) 0.391(3) -0.045(3)
H18 H 0.415(8) 0.345(4) -0.266(4)
H20 H 0.030(3) 0.114(2) -0.0906(14)
Sr1A Sr -0.26485(3) 0.67532(2) 0.052874(16)
Sr1A_2 Sr 0.73515(3) 0.67532(2) 0.052874(16)
O6A O -0.0644(3) 0.33939(18) 0.05223(13)
O7A O 0.3559(3) 0.57092(19) 0.05903(14)
H12A H 0.337(6) 0.549(4) 0.124(3)
H16A H 0.268(5) 0.609(3) 0.045(3)
O13 O 0.8339(5) 0.2935(3) 0.6809(2)
H17 H 0.798(7) 0.241(3) 0.703(3)
H19 H 0.909(8) 0.352(4) 0.720(4)
loop_
_geom_bond_atom_site_label_1
_geom_bond_atom_site_label_2
_geom_bond_site_symmetry_1
_geom_bond_site_symmetry_2
Sr1 O1 1_555 1_555
O1 C1 1_555 1_555
O2 Sr1 1_555 1_555
O3 Sr1 1_555 1_555
O4 Sr1 1_555 1_555
O5 Sr1 1_555 1_555
O6 C2 1_555 1_555
O7 Sr1 1_555 1_555
O8 C1 1_555 1_555
O9 H1 1_555 1_555
O10 H2 1_555 1_555
O11 H3 1_555 1_555
O12 H4 1_555 1_555
O13 H17 1_555 1_555
C1 C10 1_555 1_555
C2 O2 1_555 1_555
C3 O9 1_555 1_555
C4 O10 1_555 1_555
C5 O11 1_555 1_555
C6 O12 1_555 1_555
C7 C2 1_555 1_555
C8 C3 1_555 1_555
H5 C8 1_555 1_555
C9 C7 1_555 1_555
H6 C9 1_555 1_555
C10 C5 1_555 1_555
C11 C10 1_555 1_555
H7 C11 1_555 1_555
C12 C3 1_555 1_555
H8 C12 1_555 1_555
C13 C4 1_555 1_555
H9 C13 1_555 1_555
C14 C4 1_555 1_555
H10 C14 1_555 1_555
H11 O4 1_555 1_555
H12 O7 1_555 1_555
H13 O3 1_555 1_555
H14 O5 1_555 1_555
H15 O5 1_555 1_555
H16 O7 1_555 1_555
H18 O3 1_555 1_555
H19 O13 1_555 1_555
H20 O4 1_555 1_555
Sr1A O6 1_555 1_555
Sr1A_2 O7 1_555 1_555
O6A Sr1 1_555 1_555
O7A Sr1 1_555 1_555
H12A O7A 1_555 1_555
H16A O7A 1_555 1_555
C5 C13 1_555 1_555
C6 C7 1_555 1_555
C6 C12 1_555 1_555
C8 C9 1_555 1_555
C11 C14 1_555 1_555
Sr1A_2 O7A 1_555 1_555

#END
