
#######################################################################
#
#                 Cambridge Crystallographic Data Centre
#                                CCDC 
#
#######################################################################
#
# If this CIF has been generated from an entry in the Cambridge 
# Structural Database, then it will include bibliographic, chemical, 
# crystal, experimental, refinement or atomic coordinate data resulting 
# from the CCDC's data processing and validation procedures.
#
#######################################################################

data_NIDCAF
_symmetry_cell_setting           triclinic
_symmetry_space_group_name_H-M   'P -1'
_symmetry_Int_Tables_number      2
_space_group_name_Hall           '-P 1'
loop_
_symmetry_equiv_pos_site_id
_symmetry_equiv_pos_as_xyz
1 x,y,z
2 -x,-y,-z
_cell_length_a                   7.5989(4)
_cell_length_b                   9.3805(5)
_cell_length_c                   11.3938(6)
_cell_angle_alpha                91.8710(10)
_cell_angle_beta                 95.303(2)
_cell_angle_gamma                90.687(2)
_cell_volume                     808.168
loop_
_atom_site_label
_atom_site_type_symbol
_atom_site_fract_x
_atom_site_fract_y
_atom_site_fract_z
Sr1 Sr 0.09653(4) 0.32322(3) -0.08763(3)
O1 O -0.0802(5) 0.2754(4) -0.2861(3)
O2 O -0.0824(3) 0.1463(2) 0.0226(2)
O3 O 0.3053(3) 0.4585(3) -0.2120(2)
O4 O 0.0853(4) 0.4436(3) 0.1173(2)
O5 O -0.1718(3) -0.0583(3) 0.1424(2)
O6 O -0.5839(3) 0.3062(3) 0.0267(2)
O7 O -0.2694(3) 0.3163(3) -0.0286(2)
O8 O 0.6180(3) 0.4577(3) -0.2722(2)
H1 H 0.5332(3) 0.4347(3) -0.2371(2)
O9 O 0.1978(4) 0.7942(3) -0.4321(3)
H2 H 0.1348(4) 0.7534(3) -0.3887(3)
O10 O 0.1190(3) 0.6243(3) -0.2797(2)
C1 C -0.2328(4) 0.2022(4) 0.0233(3)
C2 C 0.2672(5) 0.5642(4) -0.2761(3)
C3 C -0.3316(4) 0.0059(3) 0.1475(3)
C4 C -0.5379(4) 0.1882(3) 0.0897(3)
C5 C -0.4566(5) -0.0564(4) 0.2103(3)
H3 H -0.4306(5) -0.1393(4) 0.2506(3)
C6 C -0.3687(4) 0.1318(3) 0.0871(3)
C7 C -0.6620(4) 0.1259(4) 0.1531(3)
H4 H -0.7733(4) 0.1655(4) 0.1553(3)
C8 C -0.6196(4) 0.0042(4) 0.2133(3)
H5 H -0.7029(4) -0.0377(4) 0.2567(3)
C9 C 0.5711(5) 0.5665(4) -0.3455(3)
C10 C 0.4011(4) 0.6214(4) -0.3483(3)
C11 C 0.3603(5) 0.7353(4) -0.4233(3)
C12 C 0.4849(6) 0.7908(4) -0.4906(3)
H6 H 0.4575(6) 0.8665(4) -0.5394(3)
C13 C 0.6498(6) 0.7323(5) -0.4844(3)
H7 H 0.7336(6) 0.7691(5) -0.5301(3)
C14 C 0.6955(5) 0.6206(4) -0.4126(3)
H8 H 0.8083(5) 0.5827(4) -0.4097(3)
H9 H -0.1622(60) 0.3118(52) -0.2976(40)
H10 H 0.0106(70) 0.4167(55) 0.1719(45)
H11 H 0.1801(56) 0.4686(42) 0.1543(34)
H12 H -0.1140(48) -0.0060(41) 0.1047(34)
H13 H -0.4812(67) 0.3277(53) -0.0074(43)
H14 H -0.0390(97) 0.1938(81) -0.3156(66)
Sr1A Sr -0.09653(4) 0.67678(3) 0.08763(3)
Sr1A_2 Sr -0.09653(4) -0.32322(3) 0.08763(3)
Sr1_2 Sr -0.90347(4) 0.32322(3) -0.08763(3)
O4A O -0.0853(4) 0.5564(3) -0.1173(2)
O5A O 0.1718(3) 0.0583(3) -0.1424(2)
O6_2 O 0.4161(3) 0.3062(3) 0.0267(2)
H10A H -0.0106(70) 0.5833(55) -0.1719(45)
H11A H -0.1801(56) 0.5314(42) -0.1543(34)
H12A H 0.1140(48) 0.0060(41) -0.1047(34)
H13_2 H 0.5188(67) 0.3277(53) -0.0074(43)
O11 O -0.9831(11) 0.9624(7) -0.5819(6)
loop_
_geom_bond_atom_site_label_1
_geom_bond_atom_site_label_2
_geom_bond_site_symmetry_1
_geom_bond_site_symmetry_2
Sr1 O1 1_555 1_555
O1 H9 1_555 1_555
O2 Sr1 1_555 1_555
O3 Sr1 1_555 1_555
O4 Sr1 1_555 1_555
O5 C3 1_555 1_555
O6 C4 1_555 1_555
O7 Sr1 1_555 1_555
O8 H1 1_555 1_555
O9 H2 1_555 1_555
O10 C2 1_555 1_555
C1 O2 1_555 1_555
C2 O3 1_555 1_555
C3 C5 1_555 1_555
C4 C6 1_555 1_555
C5 H3 1_555 1_555
C6 C1 1_555 1_555
C7 C4 1_555 1_555
H4 C7 1_555 1_555
C8 C5 1_555 1_555
H5 C8 1_555 1_555
C9 O8 1_555 1_555
C10 C2 1_555 1_555
C11 O9 1_555 1_555
C12 C11 1_555 1_555
H6 C12 1_555 1_555
C13 C12 1_555 1_555
H7 C13 1_555 1_555
C14 C9 1_555 1_555
H8 C14 1_555 1_555
H10 O4 1_555 1_555
H11 O4 1_555 1_555
H12 O5 1_555 1_555
H13 O6 1_555 1_555
H14 O1 1_555 1_555
Sr1A O4 1_555 1_555
Sr1A_2 O5 1_555 1_555
Sr1_2 O6 1_555 1_555
O4A Sr1 1_555 1_555
O5A Sr1 1_555 1_555
O6_2 Sr1 1_555 1_555
H10A O4A 1_555 1_555
H11A O4A 1_555 1_555
H12A O5A 1_555 1_555
H13_2 O6_2 1_555 1_555
O7 C1 1_555 1_555
C3 C6 1_555 1_555
C7 C8 1_555 1_555
C9 C10 1_555 1_555
C10 C11 1_555 1_555
C13 C14 1_555 1_555
Sr1A O4A 1_555 1_555

#END
