
#######################################################################
#
#                 Cambridge Crystallographic Data Centre
#                                CCDC 
#
#######################################################################
#
# If this CIF has been generated from an entry in the Cambridge 
# Structural Database, then it will include bibliographic, chemical, 
# crystal, experimental, refinement or atomic coordinate data resulting 
# from the CCDC's data processing and validation procedures.
#
#######################################################################

data_NIDDEL
_symmetry_cell_setting           orthorhombic
_symmetry_space_group_name_H-M   'P 21 21 21'
_symmetry_Int_Tables_number      19
_space_group_name_Hall           'P 2ac 2ab'
loop_
_symmetry_equiv_pos_site_id
_symmetry_equiv_pos_as_xyz
1 x,y,z
2 1/2-x,-y,1/2+z
3 1/2+x,1/2-y,-z
4 -x,1/2+y,1/2-z
_cell_length_a                   6.4548(4)
_cell_length_b                   13.0876(12)
_cell_length_c                   27.466(2)
_cell_angle_alpha                90
_cell_angle_beta                 90
_cell_angle_gamma                90
_cell_volume                     2320.27
loop_
_atom_site_label
_atom_site_type_symbol
_atom_site_fract_x
_atom_site_fract_y
_atom_site_fract_z
Cd1 Cd 0.42601(3) 0.189901(15) 0.981352(8)
C1 C 0.3035(5) 0.1972(3) 0.80236(11)
C2 C 0.4155(7) 0.1099(2) 0.79068(12)
H1 H 0.3854 0.0476 0.8069
C3 C 0.5690(8) 0.1121(3) 0.75608(13)
H2 H 0.6423 0.0512 0.7485
C4 C 0.6181(6) 0.2021(3) 0.73215(13)
H3 H 0.7279 0.2040 0.7091
C5 C 0.5047(6) 0.2892(3) 0.74228(13)
H4 H 0.5346 0.3512 0.7257
C6 C 0.3481(5) 0.2860(2) 0.77648(12)
C7 C 0.0556(6) 0.3724(2) 0.80933(12)
C8 C -0.0683(7) 0.4583(3) 0.80609(13)
H5 H -0.0251 0.5152 0.7872
C9 C -0.2548(6) 0.4607(3) 0.83035(14)
H6 H -0.3389 0.5202 0.8289
C10 C -0.3201(6) 0.3764(3) 0.85692(13)
H7 H -0.4492 0.3780 0.8735
C11 C -0.1978(5) 0.2906(3) 0.85920(12)
H8 H -0.2457 0.2325 0.8766
C12 C -0.0030(5) 0.2872(2) 0.83630(11)
C13 C 0.1425(5) 0.1988(2) 0.84250(10)
H9 H 0.0603 0.1342 0.8406
C14 C 0.2524(5) 0.2022(2) 0.89237(10)
C15 C 0.8712(4) -0.00941(19) 0.97946(11)
H10 H 0.7203 -0.0224 0.9849
C16 C 0.9935(5) -0.0742(2) 1.01467(12)
C17 C 0.9185(8) -0.0973(3) 1.06120(13)
H11 H 0.7866 -0.0730 1.0714
C18 C 1.0390(10) -0.1560(3) 1.09237(15)
H12 H 0.9879 -0.1722 1.1239
C19 C 1.2312(9) -0.1913(3) 1.07848(17)
H13 H 1.3130 -0.2297 1.1007
C20 C 1.3049(8) -0.1709(3) 1.03234(16)
H14 H 1.4358 -0.1964 1.0222
C21 C 1.1853(6) -0.1127(2) 1.00098(13)
C22 C 1.1199(5) -0.0814(2) 0.91870(12)
C23 C 1.1765(6) -0.1123(3) 0.87165(14)
H15 H 1.3096 -0.1407 0.8657
C24 C 1.0383(7) -0.1009(3) 0.83453(13)
H16 H 1.0757 -0.1219 0.8026
C25 C 0.8452(7) -0.0596(3) 0.84263(14)
H17 H 0.7507 -0.0519 0.8164
C26 C 0.7884(6) -0.0291(2) 0.88941(12)
H18 H 0.6550 -0.0007 0.8949
C27 C 0.9250(5) -0.03985(19) 0.92784(10)
C28 C 0.9136(4) 0.10558(18) 0.98673(9)
O1 O 0.2426(4) 0.37601(18) 0.78439(9)
O2 O 0.2400(4) 0.27991(17) 0.91848(8)
O3 O 0.3538(4) 0.12479(17) 0.90583(8)
O4 O 1.2635(4) -0.0968(2) 0.95476(10)
O5 O 0.7781(3) 0.17010(14) 0.97302(8)
O6 O 1.0780(3) 0.13447(14) 1.00678(7)
O7 O 0.4773(4) 0.08363(17) 1.04514(8)
H19 H 0.5412 0.1108 1.0689
H20 H 0.3696 0.0519 1.0546
Cd1_2 Cd 1.42601(3) 0.189901(15) 0.981352(8)
Cd1B Cd 0.92601(3) 0.310099(15) 1.018648(8)
O5B O 0.2781(3) 0.32990(14) 1.02698(8)
O6_2 O 0.0780(3) 0.13447(14) 1.00678(7)
O6B O 0.5780(3) 0.36553(14) 0.99322(7)
loop_
_geom_bond_atom_site_label_1
_geom_bond_atom_site_label_2
_geom_bond_site_symmetry_1
_geom_bond_site_symmetry_2
Cd1 O2 1_555 1_555
C1 C2 1_555 1_555
C2 H1 1_555 1_555
C3 C2 1_555 1_555
H2 C3 1_555 1_555
C4 C3 1_555 1_555
H3 C4 1_555 1_555
C5 C4 1_555 1_555
H4 C5 1_555 1_555
C6 C1 1_555 1_555
C7 C8 1_555 1_555
C8 H5 1_555 1_555
C9 C8 1_555 1_555
H6 C9 1_555 1_555
C10 C9 1_555 1_555
H7 C10 1_555 1_555
C11 C10 1_555 1_555
H8 C11 1_555 1_555
C12 C7 1_555 1_555
C13 C1 1_555 1_555
H9 C13 1_555 1_555
C14 C13 1_555 1_555
C15 H10 1_555 1_555
C16 C15 1_555 1_555
C17 C16 1_555 1_555
H11 C17 1_555 1_555
C18 C17 1_555 1_555
H12 C18 1_555 1_555
C19 C18 1_555 1_555
H13 C19 1_555 1_555
C20 C19 1_555 1_555
H14 C20 1_555 1_555
C21 C16 1_555 1_555
C22 C23 1_555 1_555
C23 H15 1_555 1_555
C24 C23 1_555 1_555
H16 C24 1_555 1_555
C25 C24 1_555 1_555
H17 C25 1_555 1_555
C26 C25 1_555 1_555
H18 C26 1_555 1_555
C27 C15 1_555 1_555
C28 C15 1_555 1_555
O1 C6 1_555 1_555
O2 C14 1_555 1_555
O3 Cd1 1_555 1_555
O4 C21 1_555 1_555
O5 Cd1 1_555 1_555
O6 C28 1_555 1_555
O7 Cd1 1_555 1_555
H19 O7 1_555 1_555
H20 O7 1_555 1_555
Cd1_2 O6 1_555 1_555
Cd1B O5 1_555 1_555
O5B Cd1 1_555 1_555
O6_2 Cd1 1_555 1_555
O6B Cd1 1_555 1_555
C5 C6 1_555 1_555
C7 O1 1_555 1_555
C11 C12 1_555 1_555
C12 C13 1_555 1_555
C14 O3 1_555 1_555
C20 C21 1_555 1_555
C22 C27 1_555 1_555
C22 O4 1_555 1_555
C26 C27 1_555 1_555
C28 O5 1_555 1_555
O6 Cd1B 1_555 1_555
Cd1B O6B 1_555 1_555

#END
