
#######################################################################
#
#                 Cambridge Crystallographic Data Centre
#                                CCDC 
#
#######################################################################
#
# If this CIF has been generated from an entry in the Cambridge 
# Structural Database, then it will include bibliographic, chemical, 
# crystal, experimental, refinement or atomic coordinate data resulting 
# from the CCDC's data processing and validation procedures.
#
#######################################################################

data_NIDFOW
_symmetry_cell_setting           monoclinic
_symmetry_space_group_name_H-M   'P 21'
_symmetry_Int_Tables_number      4
_space_group_name_Hall           'P 2yb'
loop_
_symmetry_equiv_pos_site_id
_symmetry_equiv_pos_as_xyz
1 x,y,z
2 -x,1/2+y,-z
_cell_length_a                   8.3086(4)
_cell_length_b                   10.3366(3)
_cell_length_c                   14.0153(7)
_cell_angle_alpha                90
_cell_angle_beta                 100.247(3)
_cell_angle_gamma                90
_cell_volume                     1184.47
loop_
_atom_site_label
_atom_site_type_symbol
_atom_site_fract_x
_atom_site_fract_y
_atom_site_fract_z
U1 U 0.75497(5) 0.26252(5) 0.70106(3)
U2 U 1.20775(6) 0.22831(5) 0.82855(3)
O1 O 0.7084(14) 0.0953(8) 0.7179(8)
O2 O 0.7895(13) 0.4300(12) 0.6814(8)
O3 O 1.2093(12) 0.0545(11) 0.8508(9)
O4 O 1.2192(14) 0.3935(9) 0.8058(9)
O5 O 1.0210(11) 0.2088(11) 0.6770(7)
O6 O 0.7707(11) 0.2201(12) 0.5374(7)
O7 O 0.9106(12) 0.1999(11) 0.4195(7)
O8 O 1.3594(13) 0.1784(12) 0.7076(8)
O9 O 1.4809(12) 0.2907(11) 0.6052(7)
O10 O 0.9337(10) 0.2519(11) 0.8533(6)
O11 O 1.1850(11) 0.2585(12) 0.9925(7)
O12 O 1.0420(11) 0.2567(11) 1.1108(7)
O13 O 0.6005(12) 0.3368(11) 0.8156(7)
O14 O 0.4814(10) 0.2471(13) 0.9276(7)
C1 C 1.0562(17) 0.1793(14) 0.5846(9)
C2 C 0.9016(17) 0.2021(14) 0.5070(11)
C3 C 1.1917(16) 0.2654(18) 0.5617(11)
H3 H 1.1596 0.3551 0.5661
H4 H 1.2060 0.2494 0.4955
C4 C 1.3539(15) 0.2438(16) 0.6291(9)
C5 C 1.090(2) 0.0350(16) 0.5772(12)
H5 H 1.1868 0.0127 0.6226
H6 H 1.1059 0.0149 0.5127
H7 H 0.9988 -0.0134 0.5918
C6 C 0.8992(16) 0.2225(15) 0.9459(9)
C7 C 1.0523(16) 0.2478(16) 1.0228(9)
C8 C 0.7591(15) 0.3119(14) 0.9710(9)
H8 H 0.7413 0.2924 1.0360
H9 H 0.7927 0.4016 0.9697
C9 C 0.6013(19) 0.2930(15) 0.9002(11)
C10 C 0.8529(17) 0.0826(15) 0.9565(11)
H10 H 0.7454 0.0674 0.9199
H11 H 0.8537 0.0636 1.0236
H12 H 0.9301 0.0277 0.9326
U1_2 U 1.75497(5) 0.26252(5) 0.70106(3)
U2_2 U 0.20775(6) 0.22831(5) 0.82855(3)
O9_2 O 0.4809(12) 0.2907(11) 0.6052(7)
O14_2 O 1.4814(10) 0.2471(13) 0.9276(7)
N1 N 0.6165(13) 0.2251(14) 0.3125(7)
H1 H 0.7168 0.2219 0.3568
N2 N 0.3465(13) 0.2584(14) 0.2044(7)
H2 H 0.2386 0.2831 0.1695
C11 C 0.6395(19) 0.3083(18) 0.2287(14)
H13 H 0.6959 0.2603 0.1851
H14 H 0.7046 0.3837 0.2516
C12 C 0.4681(19) 0.3507(15) 0.1751(12)
H15 H 0.4447 0.4384 0.1931
H16 H 0.4635 0.3476 0.1055
C13 C 0.547(2) 0.1005(18) 0.2779(17)
H17 H 0.5071 0.0551 0.3297
H18 H 0.6291 0.0473 0.2558
C14 C 0.404(2) 0.1274(16) 0.1930(13)
H19 H 0.4409 0.1189 0.1315
H20 H 0.3159 0.0661 0.1944
C15 C 0.500(2) 0.296(2) 0.3668(13)
H21 H 0.5014 0.2568 0.4297
H22 H 0.5324 0.3860 0.3764
C16 C 0.3299(19) 0.287(2) 0.3060(11)
H23 H 0.2682 0.2191 0.3307
H24 H 0.2721 0.3682 0.3088
loop_
_geom_bond_atom_site_label_1
_geom_bond_atom_site_label_2
_geom_bond_site_symmetry_1
_geom_bond_site_symmetry_2
U1 O1 1_555 1_555
U2 O3 1_555 1_555
O2 U1 1_555 1_555
O4 U2 1_555 1_555
O5 U1 1_555 1_555
O6 U1 1_555 1_555
O7 C2 1_555 1_555
O8 U2 1_555 1_555
O9 C4 1_555 1_555
O10 U1 1_555 1_555
O11 U2 1_555 1_555
O12 C7 1_555 1_555
O13 U1 1_555 1_555
O14 C9 1_555 1_555
N1 H1 1_555 1_555
N2 H2 1_555 1_555
C1 O5 1_555 1_555
C2 O6 1_555 1_555
C3 C1 1_555 1_555
H3 C3 1_555 1_555
H4 C3 1_555 1_555
C4 O8 1_555 1_555
C5 C1 1_555 1_555
H5 C5 1_555 1_555
H6 C5 1_555 1_555
H7 C5 1_555 1_555
C6 O10 1_555 1_555
C7 O11 1_555 1_555
C8 C6 1_555 1_555
H8 C8 1_555 1_555
H9 C8 1_555 1_555
C9 O13 1_555 1_555
C10 C6 1_555 1_555
H10 C10 1_555 1_555
H11 C10 1_555 1_555
H12 C10 1_555 1_555
C11 N1 1_555 1_555
H13 C11 1_555 1_555
H14 C11 1_555 1_555
C12 N2 1_555 1_555
H15 C12 1_555 1_555
H16 C12 1_555 1_555
C13 N1 1_555 1_555
H17 C13 1_555 1_555
H18 C13 1_555 1_555
C14 N2 1_555 1_555
H19 C14 1_555 1_555
H20 C14 1_555 1_555
C15 N1 1_555 1_555
H21 C15 1_555 1_555
H22 C15 1_555 1_555
C16 N2 1_555 1_555
H23 C16 1_555 1_555
H24 C16 1_555 1_555
U1_2 O9 1_555 1_555
U2_2 O14 1_555 1_555
O9_2 U1 1_555 1_555
O14_2 U2 1_555 1_555
U2 O5 1_555 1_555
U2 O10 1_555 1_555
C1 C2 1_555 1_555
C3 C4 1_555 1_555
C6 C7 1_555 1_555
C8 C9 1_555 1_555
C11 C12 1_555 1_555
C13 C14 1_555 1_555
C15 C16 1_555 1_555

#END
