
#######################################################################
#
#                 Cambridge Crystallographic Data Centre
#                                CCDC 
#
#######################################################################
#
# If this CIF has been generated from an entry in the Cambridge 
# Structural Database, then it will include bibliographic, chemical, 
# crystal, experimental, refinement or atomic coordinate data resulting 
# from the CCDC's data processing and validation procedures.
#
#######################################################################

data_NIDFOX
_symmetry_cell_setting           monoclinic
_symmetry_space_group_name_H-M   'C 2/c'
_symmetry_Int_Tables_number      15
_space_group_name_Hall           '-C 2yn'
loop_
_symmetry_equiv_pos_site_id
_symmetry_equiv_pos_as_xyz
1 x,y,z
2 -x,y,1/2-z
3 1/2+x,1/2+y,z
4 1/2-x,1/2+y,1/2-z
5 -x,-y,-z
6 x,-y,1/2+z
7 1/2-x,1/2-y,-z
8 1/2+x,1/2-y,1/2+z
_cell_length_a                   27.1065(17)
_cell_length_b                   12.8792(8)
_cell_length_c                   23.3705(14)
_cell_angle_alpha                90
_cell_angle_beta                 109.4170(10)
_cell_angle_gamma                90
_cell_volume                     7694.83
loop_
_atom_site_label
_atom_site_type_symbol
_atom_site_fract_x
_atom_site_fract_y
_atom_site_fract_z
C1 C 0.2253(3) 1.1467(7) -0.0859(4)
C2 C 0.1800(3) 1.1084(7) -0.1269(4)
H1 H 0.1691 1.0400 -0.1217
C3 C 0.1500(3) 1.1667(7) -0.1755(4)
H2 H 0.1180 1.1402 -0.2023
C4 C 0.1673(3) 1.2652(6) -0.1847(4)
C5 C 0.2123(3) 1.3057(7) -0.1423(4)
H3 H 0.2234 1.3740 -0.1473
C6 C 0.2401(3) 1.2481(7) -0.0939(4)
H4 H 0.2704 1.2771 -0.0649
C7 C 0.1377(3) 1.3286(7) -0.2388(4)
C8 C 0.3970(4) 1.0550(10) 0.0678(5)
C9 C 0.4334(4) 1.0226(10) 0.0409(5)
H5 H 0.4218 0.9922 0.0017
C10 C 0.4860(4) 1.0350(9) 0.0716(5)
H6 H 0.5103 1.0134 0.0525
C11 C 0.4720(4) 1.1066(10) 0.1497(5)
H7 H 0.4850 1.1416 0.1875
C12 C 0.4176(4) 1.0930(9) 0.1236(5)
H8 H 0.3954 1.1112 0.1460
C13 C 0.0326(3) -0.1597(7) -0.1522(4)
C14 C 0.0803(3) -0.1379(7) -0.1602(4)
H9 H 0.0958 -0.0712 -0.1502
C15 C 0.1053(3) -0.2148(8) -0.1830(4)
H10 H 0.1378 -0.1995 -0.1883
C16 C 0.0837(3) -0.3129(7) -0.1979(4)
C17 C 0.0382(3) -0.3350(7) -0.1864(4)
H11 H 0.0241 -0.4032 -0.1935
C18 C 0.0128(3) -0.2604(7) -0.1646(4)
H12 H -0.0189 -0.2776 -0.1579
C19 C 0.1054(3) -0.3909(7) -0.2322(4)
C20 C -0.1372(3) 0.0208(6) -0.1803(3)
C21 C -0.1612(3) 0.1156(6) -0.1848(4)
H13 H -0.1415 0.1751 -0.1666
C22 C -0.2140(3) 0.1243(7) -0.2157(4)
H14 H -0.2298 0.1907 -0.2183
C23 C -0.2207(3) -0.0500(6) -0.2362(4)
H15 H -0.2415 -0.1085 -0.2539
C24 C -0.1690(3) -0.0653(6) -0.2059(4)
H16 H -0.1545 -0.1331 -0.2019
N1 N 0.5039(3) 1.0750(8) 0.1257(4)
N2 N -0.2441(2) 0.0436(5) -0.2425(3)
O1 O 0.1106(2) 0.6320(5) 0.1120(3)
O2 O 0.0916(2) 1.3065(5) -0.2679(3)
O3 O 0.1620(2) 1.4044(5) -0.2538(3)
O4 O 0.0748(2) -0.4638(5) -0.2601(3)
O5 O 0.1497(2) -0.3723(5) -0.2350(3)
C25 C 0.1578(3) 0.6160(6) 0.1143(4)
C26 C 0.1829(3) 0.6947(6) 0.0847(3)
C27 C 0.1539(3) 0.7696(7) 0.0448(4)
H17 H 0.1168 0.7670 0.0309
C28 C 0.1795(3) 0.8486(7) 0.0251(4)
H18 H 0.1596 0.8991 -0.0026
C29 C 0.2347(3) 0.8545(6) 0.0457(3)
C30 C 0.2625(3) 0.7763(7) 0.0830(4)
H19 H 0.2996 0.7767 0.0953
C31 C 0.2373(3) 0.6964(7) 0.1032(4)
H20 H 0.2572 0.6438 0.1293
C32 C 0.2626(3) 0.9412(6) 0.0279(4)
C33 C 0.3163(3) 0.9585(7) 0.0580(4)
H21 H 0.3353 0.9165 0.0915
C34 C 0.3409(3) 1.0377(6) 0.0381(4)
C35 C 0.3112(3) 1.0976(7) -0.0102(4)
H22 H 0.3273 1.1505 -0.0261
C36 C 0.2579(3) 1.0804(7) -0.0354(3)
C37 C 0.1179(3) 0.3353(6) 0.1209(3)
C38 C 0.0882(3) 0.2645(6) 0.0703(3)
C39 C 0.1119(3) 0.1791(6) 0.0547(4)
H23 H 0.1474 0.1639 0.0770
C40 C 0.0843(3) 0.1150(7) 0.0069(4)
H24 H 0.1014 0.0578 -0.0042
C41 C 0.0314(3) 0.1348(6) -0.0251(3)
C42 C 0.0089(3) 0.2208(8) -0.0089(4)
H25 H -0.0266 0.2366 -0.0311
C43 C 0.0361(3) 0.2853(7) 0.0384(4)
H26 H 0.0193 0.3432 0.0490
C44 C 0.0015(3) 0.0647(6) -0.0754(4)
C45 C -0.0525(3) 0.0768(6) -0.1033(4)
H27 H -0.0704 0.1318 -0.0915
C46 C -0.0798(3) 0.0076(6) -0.1485(3)
C47 C -0.0510(3) -0.0700(6) -0.1636(4)
H28 H -0.0681 -0.1187 -0.1944
C48 C 0.0024(3) -0.0776(6) -0.1344(4)
N3 N 0.2343(2) 1.0035(5) -0.0174(3)
N4 N 0.0290(2) -0.0107(5) -0.0905(3)
O6 O 0.1865(2) 0.5441(4) 0.1429(2)
O7 O 0.1651(2) 0.3175(4) 0.1499(2)
O8 O 0.0941(2) 0.4126(4) 0.1321(3)
Co1 Co 0.17771(4) 0.44374(8) 0.20576(5)
Co2 Co 0.08325(4) 0.56450(9) 0.17551(5)
N1B N 0.0039(3) 0.5750(8) 0.1257(4)
N2G N 0.2559(2) 0.4564(5) 0.2575(3)
O2E O 0.0916(2) 0.6935(5) 0.2321(3)
O3E O 0.1620(2) 0.5956(5) 0.2462(3)
O4E O 0.0748(2) 0.4638(5) 0.2399(3)
O5E O 0.1497(2) 0.3723(5) 0.2650(3)
Co1E Co 0.17771(4) -0.44374(8) -0.29424(5)
Co1E_2 Co 0.17771(4) 1.55626(8) -0.29424(5)
Co1G Co -0.32229(4) 0.05626(8) -0.29424(5)
Co2B Co 0.58325(4) 1.06450(9) 0.17551(5)
Co2E Co 0.08325(4) -0.56450(9) -0.32449(5)
Co2E_2 Co 0.08325(4) 1.43550(9) -0.32449(5)
O9 O 0.0000 1.163(6) -0.2500
loop_
_geom_bond_atom_site_label_1
_geom_bond_atom_site_label_2
_geom_bond_site_symmetry_1
_geom_bond_site_symmetry_2
C1 C2 1_555 1_555
C2 H1 1_555 1_555
C3 C2 1_555 1_555
H2 C3 1_555 1_555
C4 C3 1_555 1_555
C5 C4 1_555 1_555
H3 C5 1_555 1_555
C6 C1 1_555 1_555
H4 C6 1_555 1_555
C7 C4 1_555 1_555
C8 C9 1_555 1_555
C9 H5 1_555 1_555
C10 C9 1_555 1_555
H6 C10 1_555 1_555
C11 H7 1_555 1_555
C12 C8 1_555 1_555
H8 C12 1_555 1_555
C13 C14 1_555 1_555
C14 H9 1_555 1_555
C15 C14 1_555 1_555
H10 C15 1_555 1_555
C16 C15 1_555 1_555
C17 C16 1_555 1_555
H11 C17 1_555 1_555
C18 C13 1_555 1_555
H12 C18 1_555 1_555
C19 C16 1_555 1_555
C20 C21 1_555 1_555
C21 H13 1_555 1_555
C22 C21 1_555 1_555
H14 C22 1_555 1_555
C23 H15 1_555 1_555
C24 C20 1_555 1_555
H16 C24 1_555 1_555
N1 C10 1_555 1_555
N2 C22 1_555 1_555
O1 C25 1_555 1_555
O2 C7 1_555 1_555
O3 C7 1_555 1_555
O4 C19 1_555 1_555
O5 C19 1_555 1_555
C25 C26 1_555 1_555
C26 C27 1_555 1_555
C27 H17 1_555 1_555
C28 C27 1_555 1_555
H18 C28 1_555 1_555
C29 C28 1_555 1_555
C30 C29 1_555 1_555
H19 C30 1_555 1_555
C31 C26 1_555 1_555
H20 C31 1_555 1_555
C32 C29 1_555 1_555
C33 C32 1_555 1_555
H21 C33 1_555 1_555
C34 C8 1_555 1_555
C35 C34 1_555 1_555
H22 C35 1_555 1_555
C36 C1 1_555 1_555
C37 C38 1_555 1_555
C38 C39 1_555 1_555
C39 H23 1_555 1_555
C40 C39 1_555 1_555
H24 C40 1_555 1_555
C41 C40 1_555 1_555
C42 C41 1_555 1_555
H25 C42 1_555 1_555
C43 C38 1_555 1_555
H26 C43 1_555 1_555
C44 C41 1_555 1_555
C45 C44 1_555 1_555
H27 C45 1_555 1_555
C46 C20 1_555 1_555
C47 C46 1_555 1_555
H28 C47 1_555 1_555
C48 C13 1_555 1_555
N3 C32 1_555 1_555
N4 C44 1_555 1_555
O6 C25 1_555 1_555
O7 C37 1_555 1_555
O8 C37 1_555 1_555
Co1 O6 1_555 1_555
Co2 O1 1_555 1_555
N1B Co2 1_555 1_555
N2G Co1 1_555 1_555
O2E Co2 1_555 1_555
O3E Co1 1_555 1_555
O4E Co2 1_555 1_555
O5E Co1 1_555 1_555
Co1E O5 1_555 1_555
Co1E_2 O3 1_555 1_555
Co1G N2 1_555 1_555
Co2B N1 1_555 1_555
Co2E O4 1_555 1_555
Co2E_2 O2 1_555 1_555
C5 C6 1_555 1_555
C11 C12 1_555 1_555
C11 N1 1_555 1_555
C17 C18 1_555 1_555
C23 C24 1_555 1_555
C23 N2 1_555 1_555
O3 Co2E_2 1_555 1_555
C30 C31 1_555 1_555
C33 C34 1_555 1_555
C35 C36 1_555 1_555
C36 N3 1_555 1_555
C42 C43 1_555 1_555
C45 C46 1_555 1_555
C47 C48 1_555 1_555
C48 N4 1_555 1_555
O7 Co1 1_555 1_555
O8 Co1 1_555 1_555
O8 Co2 1_555 1_555
Co2 O3E 1_555 1_555

#END
