
#######################################################################
#
#                 Cambridge Crystallographic Data Centre
#                                CCDC 
#
#######################################################################
#
# If this CIF has been generated from an entry in the Cambridge 
# Structural Database, then it will include bibliographic, chemical, 
# crystal, experimental, refinement or atomic coordinate data resulting 
# from the CCDC's data processing and validation procedures.
#
#######################################################################

data_NIDFAJ
_symmetry_cell_setting           triclinic
_symmetry_space_group_name_H-M   'P -1'
_symmetry_Int_Tables_number      2
_space_group_name_Hall           '-P 1'
loop_
_symmetry_equiv_pos_site_id
_symmetry_equiv_pos_as_xyz
1 x,y,z
2 -x,-y,-z
_cell_length_a                   11.5827(7)
_cell_length_b                   12.3343(7)
_cell_length_c                   14.7367(8)
_cell_angle_alpha                66.6880(10)
_cell_angle_beta                 78.4610(10)
_cell_angle_gamma                89.6640(10)
_cell_volume                     1888.1
loop_
_atom_site_label
_atom_site_type_symbol
_atom_site_fract_x
_atom_site_fract_y
_atom_site_fract_z
C1 C 1.2947(3) 1.0740(3) 0.3689(3)
C2 C 1.2269(4) 1.0303(4) 0.3211(3)
H1 H 1.2424 1.0610 0.2493
C3 C 1.3984(3) 1.1637(3) 0.3063(3)
C4 C 0.0811(3) 1.1004(3) 0.0232(3)
C5 C 0.0434(4) 1.0388(3) 0.1279(3)
H2 H 0.0911 0.9818 0.1643
C6 C -0.0623(4) 1.0593(3) 0.1794(3)
H3 H -0.0872 1.0152 0.2503
C7 C -0.1320(3) 1.1441(3) 0.1281(3)
C8 C -0.0969(3) 1.2043(3) 0.0247(3)
H4 H -0.1447 1.2615 -0.0112
C9 C 0.0075(3) 1.1821(3) -0.0271(3)
H5 H 0.0295 1.2233 -0.0986
C10 C -0.2425(3) 1.1694(3) 0.1876(3)
O1 O 1.4658(2) 1.1895(2) 0.35499(19)
O2 O 1.4173(3) 1.2042(3) 0.2145(2)
O3 O -0.2820(2) 1.1022(3) 0.2757(2)
O4 O -0.2882(2) 1.2662(2) 0.14244(19)
H6 H 0.757(4) 0.488(4) 1.0853(15)
H7 H 0.500(4) 1.330(4) -0.5603(15)
C11 C 0.7760(3) 0.4105(3) 0.2989(3)
C12 C 0.8167(3) 0.4638(3) 0.3641(3)
C13 C 0.7797(3) 0.4134(3) 0.4687(3)
H8 H 0.7327 0.3401 0.5010
C14 C 0.8113(3) 0.4698(3) 0.5263(3)
H9 H 0.7869 0.4332 0.5979
C15 C 0.8775(3) 0.5784(3) 0.4816(3)
C16 C 0.9181(3) 0.6265(3) 0.3770(3)
H10 H 0.9660 0.6993 0.3446
C17 C 0.8888(3) 0.5685(3) 0.3199(3)
H11 H 0.9189 0.6014 0.2488
C18 C 0.9076(3) 0.6425(3) 0.5423(3)
C19 C 0.8607(3) 0.6023(3) 0.6459(3)
H12 H 0.8053 0.5349 0.6796
C20 C 0.8968(3) 0.6629(3) 0.6995(3)
C21 C 0.9778(3) 0.7613(3) 0.6460(3)
H13 H 1.0043 0.8044 0.6801
C22 C 1.0198(3) 0.7962(3) 0.5431(3)
C23 C 0.8546(3) 0.6176(3) 0.8109(3)
C24 C 0.7474(4) 0.5504(4) 0.8604(3)
H14 H 0.6956 0.5384 0.8222
C25 C 0.7158(4) 0.5014(4) 0.9641(3)
H15 H 0.6432 0.4541 0.9973
C26 C 0.8876(4) 0.5856(4) 0.9739(3)
H16 H 0.9349 0.5995 1.0146
C27 C 0.9257(4) 0.6339(4) 0.8710(3)
H17 H 1.0002 0.6784 0.8407
C28 C 1.1120(3) 0.8962(3) 0.4831(3)
C29 C 1.1785(3) 0.9422(3) 0.5301(3)
H18 H 1.1618 0.9133 0.6018
C30 C 1.2691(3) 1.0300(3) 0.4733(3)
H19 H 1.3142 1.0603 0.5066
C31 C 1.1370(4) 0.9422(4) 0.3778(3)
H20 H 1.0916 0.9126 0.3444
C32 C 0.5099(3) 0.5104(3) 0.2335(3)
C33 C 0.4748(3) 0.6306(3) 0.1700(3)
C34 C 0.4016(3) 0.6942(3) 0.2129(3)
H21 H 0.3792 0.6661 0.2845
C35 C 0.3603(3) 0.7983(3) 0.1534(3)
H22 H 0.3079 0.8395 0.1843
C36 C 0.3952(3) 0.8431(3) 0.0479(2)
C37 C 0.4716(4) 0.7817(3) 0.0050(3)
H23 H 0.4976 0.8118 -0.0664
C38 C 0.5106(4) 0.6765(3) 0.0654(3)
H24 H 0.5628 0.6351 0.0346
C39 C 0.3456(3) 0.9509(3) -0.0174(2)
C40 C 0.1939(3) 1.0745(3) -0.0297(3)
C41 C 0.2408(3) 1.1394(3) -0.1326(3)
H25 H 0.2023 1.2048 -0.1707
C42 C 0.3444(3) 1.1075(3) -0.1788(2)
C43 C 0.3971(3) 1.0116(3) -0.1201(3)
H26 H 0.4677 0.9873 -0.1492
C44 C 0.3946(3) 1.1735(3) -0.2889(3)
C45 C 0.3764(3) 1.2920(3) -0.3376(3)
H27 H 0.3349 1.3330 -0.3002
C46 C 0.4185(4) 1.3500(3) -0.4400(3)
H28 H 0.4043 1.4306 -0.4737
C47 C 0.5027(4) 1.1817(3) -0.4481(3)
H29 H 0.5489 1.1448 -0.4870
C48 C 0.4605(4) 1.1192(3) -0.3464(3)
H30 H 0.4762 1.0386 -0.3151
N1 N 0.9851(3) 0.7377(3) 0.4916(2)
N2 N 0.7859(3) 0.5198(3) 1.0179(2)
N3 N 0.2469(3) 0.9831(3) 0.0266(2)
N4 N 0.4793(3) 1.2938(3) -0.4925(2)
O5 O 0.7000(2) 0.3223(2) 0.34263(18)
O6 O 0.8159(3) 0.4596(3) 0.2062(2)
O7 O 0.5582(2) 0.4503(2) 0.18474(19)
O8 O 0.4879(3) 0.4779(2) 0.32608(19)
Zn1 Zn 0.60369(4) 0.28726(4) 0.25592(3)
O1_2 O 0.4658(2) 0.1895(2) 0.35499(19)
O3_2 O 0.7180(2) 0.1022(3) 0.2757(2)
O4_2 O 0.7118(2) 0.2662(2) 0.14244(19)
Zn1_2 Zn -0.39631(4) 1.28726(4) 0.25592(3)
Zn1_3 Zn 1.60369(4) 1.28726(4) 0.25592(3)
loop_
_geom_bond_atom_site_label_1
_geom_bond_atom_site_label_2
_geom_bond_site_symmetry_1
_geom_bond_site_symmetry_2
C1 C2 1_555 1_555
C2 H1 1_555 1_555
C3 C1 1_555 1_555
C4 C5 1_555 1_555
C5 H2 1_555 1_555
C6 C5 1_555 1_555
H3 C6 1_555 1_555
C7 C6 1_555 1_555
C8 C7 1_555 1_555
H4 C8 1_555 1_555
C9 C4 1_555 1_555
H5 C9 1_555 1_555
C10 C7 1_555 1_555
O1 C3 1_555 1_555
O2 C3 1_555 1_555
O3 C10 1_555 1_555
O4 C10 1_555 1_555
H6 N2 1_555 1_555
H7 N4 1_555 1_555
C11 C12 1_555 1_555
C12 C13 1_555 1_555
C13 H8 1_555 1_555
C14 C13 1_555 1_555
H9 C14 1_555 1_555
C15 C14 1_555 1_555
C16 C15 1_555 1_555
H10 C16 1_555 1_555
C17 C12 1_555 1_555
H11 C17 1_555 1_555
C18 C15 1_555 1_555
C19 C18 1_555 1_555
H12 C19 1_555 1_555
C20 C19 1_555 1_555
C21 C20 1_555 1_555
H13 C21 1_555 1_555
C22 C21 1_555 1_555
C23 C20 1_555 1_555
C24 C23 1_555 1_555
H14 C24 1_555 1_555
C25 C24 1_555 1_555
H15 C25 1_555 1_555
C26 H16 1_555 1_555
C27 C23 1_555 1_555
H17 C27 1_555 1_555
C28 C22 1_555 1_555
C29 C28 1_555 1_555
H18 C29 1_555 1_555
C30 C1 1_555 1_555
H19 C30 1_555 1_555
C31 C2 1_555 1_555
H20 C31 1_555 1_555
C32 C33 1_555 1_555
C33 C34 1_555 1_555
C34 H21 1_555 1_555
C35 C34 1_555 1_555
H22 C35 1_555 1_555
C36 C35 1_555 1_555
C37 C36 1_555 1_555
H23 C37 1_555 1_555
C38 C33 1_555 1_555
H24 C38 1_555 1_555
C39 C36 1_555 1_555
C40 C4 1_555 1_555
C41 C40 1_555 1_555
H25 C41 1_555 1_555
C42 C41 1_555 1_555
C43 C39 1_555 1_555
H26 C43 1_555 1_555
C44 C42 1_555 1_555
C45 C44 1_555 1_555
H27 C45 1_555 1_555
C46 C45 1_555 1_555
H28 C46 1_555 1_555
C47 H29 1_555 1_555
C48 C44 1_555 1_555
H30 C48 1_555 1_555
N1 C18 1_555 1_555
N2 C25 1_555 1_555
N3 C39 1_555 1_555
N4 C46 1_555 1_555
O5 C11 1_555 1_555
O6 C11 1_555 1_555
O7 C32 1_555 1_555
O8 C32 1_555 1_555
Zn1 O5 1_555 1_555
O1_2 Zn1 1_555 1_555
O3_2 Zn1 1_555 1_555
O4_2 Zn1 1_555 1_555
Zn1_2 O3 1_555 1_555
Zn1_3 O1 1_555 1_555
C8 C9 1_555 1_555
O4 Zn1_2 1_555 1_555
C16 C17 1_555 1_555
C22 N1 1_555 1_555
C26 C27 1_555 1_555
C26 N2 1_555 1_555
C28 C31 1_555 1_555
C29 C30 1_555 1_555
C37 C38 1_555 1_555
C40 N3 1_555 1_555
C42 C43 1_555 1_555
C47 C48 1_555 1_555
C47 N4 1_555 1_555
O7 Zn1 1_555 1_555

#END
