
#######################################################################
#
#                 Cambridge Crystallographic Data Centre
#                                CCDC 
#
#######################################################################
#
# If this CIF has been generated from an entry in the Cambridge 
# Structural Database, then it will include bibliographic, chemical, 
# crystal, experimental, refinement or atomic coordinate data resulting 
# from the CCDC's data processing and validation procedures.
#
#######################################################################

data_NIDFEN
_symmetry_cell_setting           monoclinic
_symmetry_space_group_name_H-M   'C 2/c'
_symmetry_Int_Tables_number      15
_space_group_name_Hall           '-C 2yn'
loop_
_symmetry_equiv_pos_site_id
_symmetry_equiv_pos_as_xyz
1 x,y,z
2 -x,y,1/2-z
3 1/2+x,1/2+y,z
4 1/2-x,1/2+y,1/2-z
5 -x,-y,-z
6 x,-y,1/2+z
7 1/2-x,1/2-y,-z
8 1/2+x,1/2-y,1/2+z
_cell_length_a                   26.2171(19)
_cell_length_b                   13.4833(9)
_cell_length_c                   22.4964(16)
_cell_angle_alpha                90
_cell_angle_beta                 108.1840(10)
_cell_angle_gamma                90
_cell_volume                     7555.18
loop_
_atom_site_label
_atom_site_type_symbol
_atom_site_fract_x
_atom_site_fract_y
_atom_site_fract_z
C1 C 0.3104(3) 0.0874(5) 0.4929(3)
H1 H 0.3258 0.1431 0.4791
C2 C 0.3423(3) 0.0241(5) 0.5366(3)
C3 C 0.3178(3) -0.0571(5) 0.5557(3)
H2 H 0.3385 -0.1023 0.5860
C4 C 0.2627(3) -0.0704(5) 0.5296(3)
C5 C 0.2348(3) -0.1542(5) 0.5489(3)
C6 C 0.1787(3) -0.1608(5) 0.5288(3)
H3 H 0.1578 -0.1123 0.5011
C7 C 0.1534(3) -0.2380(5) 0.5493(3)
H4 H 0.1153 -0.2413 0.5359
C8 C 0.1827(2) -0.3099(4) 0.5887(3)
C9 C 0.2387(3) -0.3061(5) 0.6062(3)
H5 H 0.2595 -0.3566 0.6320
C10 C 0.2633(3) -0.2304(5) 0.5863(3)
H6 H 0.3015 -0.2294 0.5984
C11 C 0.1568(3) -0.3865(5) 0.6184(3)
C12 C 0.4010(3) 0.0399(8) 0.5657(5)
C13 C 0.4395(3) -0.0096(7) 0.5506(4)
H7 H 0.4299 -0.0553 0.5168
C14 C 0.4927(3) 0.0052(7) 0.5833(4)
H8 H 0.5188 -0.0308 0.5709
C15 C 0.4732(3) 0.1161(7) 0.6411(4)
H9 H 0.4844 0.1633 0.6740
C16 C 0.4186(3) 0.1097(7) 0.6099(4)
H10 H 0.3941 0.1539 0.6195
C17 C 0.1046(3) 0.6089(5) 0.2657(3)
C18 C 0.0828(2) 0.6850(5) 0.3002(3)
C19 C 0.1047(2) 0.7797(5) 0.3118(3)
H11 H 0.1378 0.7935 0.3045
C20 C 0.0790(3) 0.8537(5) 0.3338(3)
H12 H 0.0943 0.9183 0.3409
C21 C 0.0309(3) 0.8344(5) 0.3456(3)
C22 C 0.0107(3) 0.7397(5) 0.3370(3)
H13 H -0.0215 0.7251 0.3464
C23 C 0.0365(3) 0.6648(5) 0.3148(3)
H14 H 0.0221 0.5995 0.3097
C24 C 0.0001(3) 0.9166(5) 0.3626(3)
C25 C -0.0548(3) 0.9250(4) 0.3353(3)
H15 H -0.0738 0.8760 0.3065
C26 C -0.0822(3) 1.0047(5) 0.3496(3)
C27 C -0.0524(3) 1.0729(5) 0.3922(3)
H16 H -0.0695 1.1290 0.4032
C28 C 0.0023(3) 1.0599(5) 0.4190(3)
C29 C 0.0350(3) 1.1282(5) 0.4679(3)
C30 C 0.0141(3) 1.2156(6) 0.4831(4)
H17 H -0.0217 1.2343 0.4608
C31 C 0.0451(3) 1.2758(5) 0.5309(4)
H18 H 0.0304 1.3359 0.5404
C32 C 0.0973(3) 1.2496(5) 0.5650(3)
C33 C 0.1184(3) 1.1650(5) 0.5486(3)
H19 H 0.1544 1.1471 0.5705
C34 C 0.0880(3) 1.1049(5) 0.5007(3)
H20 H 0.1037 1.0467 0.4901
C35 C 0.1301(3) 1.3134(5) 0.6181(3)
C36 C -0.1409(3) 1.0184(5) 0.3188(3)
C37 C -0.1648(3) 1.1109(5) 0.3074(3)
H21 H -0.1437 1.1687 0.3214
C38 C -0.2182(3) 1.1197(5) 0.2763(3)
H22 H -0.2334 1.1843 0.2698
C39 C -0.2279(3) 0.9515(5) 0.2667(3)
H23 H -0.2503 0.8949 0.2537
C40 C -0.1744(3) 0.9367(4) 0.2969(3)
H24 H -0.1601 0.8714 0.3030
N1 N 0.5091(3) 0.0651(6) 0.6299(4)
N2 N 0.2319(2) -0.0076(4) 0.4875(2)
N3 N -0.2505(2) 1.0419(4) 0.2544(3)
N4 N 0.0287(2) 0.9838(4) 0.4039(3)
O1 O 0.10933(17) -0.3729(3) 0.6172(2)
O2 O 0.18690(17) -0.4579(3) 0.6442(2)
O3 O 0.10919(17) 1.3916(3) 0.6297(2)
O4 O 0.17645(19) 1.2883(4) 0.6479(2)
C41 C 0.1252(3) 0.3079(5) 0.2665(3)
C42 C 0.1578(3) 0.2474(5) 0.3215(3)
C43 C 0.1410(3) 0.1553(5) 0.3326(4)
H25 H 0.1076 0.1305 0.3065
C44 C 0.1721(3) 0.0976(6) 0.3814(4)
H26 H 0.1604 0.0332 0.3884
C45 C 0.2205(3) 0.1342(5) 0.4203(3)
C46 C 0.2349(3) 0.2310(5) 0.4116(3)
H27 H 0.2661 0.2588 0.4406
C47 C 0.2052(3) 0.2874(5) 0.3621(3)
H28 H 0.2165 0.3523 0.3556
C48 C 0.2556(3) 0.0701(5) 0.4689(3)
O5 O 0.14793(19) 0.3809(3) 0.2504(2)
O6 O 0.07775(19) 0.2851(4) 0.2390(2)
O7 O 0.07419(17) 0.5376(3) 0.2407(2)
O8 O 0.15057(17) 0.6252(3) 0.2615(2)
Cu1 Cu 0.17457(3) 0.56076(5) 0.19815(4)
Cu2 Cu 0.08435(3) 0.43035(6) 0.18398(4)
N1G N 0.0091(3) 0.4349(6) 0.1299(4)
N3B N 0.2495(2) 0.5419(4) 0.2544(3)
O1E O 0.10933(17) 0.3729(3) 0.1172(2)
O2E O 0.18690(17) 0.4579(3) 0.1442(2)
O3E O 0.10919(17) 0.6084(3) 0.1297(2)
O4E O 0.17645(19) 0.7117(4) 0.1479(2)
Cu1B Cu -0.32543(3) 1.06076(5) 0.19815(4)
Cu1E Cu 0.17457(3) -0.56076(5) 0.69815(4)
Cu1E_2 Cu 0.17457(3) 1.43924(5) 0.69815(4)
Cu2E Cu 0.08435(3) -0.43035(6) 0.68398(4)
Cu2G Cu 0.58435(3) 0.06965(6) 0.68398(4)
O9 O 0.0000 0.1373(11) 0.2500
loop_
_geom_bond_atom_site_label_1
_geom_bond_atom_site_label_2
_geom_bond_site_symmetry_1
_geom_bond_site_symmetry_2
C1 H1 1_555 1_555
C2 C1 1_555 1_555
C3 C2 1_555 1_555
H2 C3 1_555 1_555
C4 C3 1_555 1_555
C5 C4 1_555 1_555
C6 C5 1_555 1_555
H3 C6 1_555 1_555
C7 C6 1_555 1_555
H4 C7 1_555 1_555
C8 C7 1_555 1_555
C9 C8 1_555 1_555
H5 C9 1_555 1_555
C10 C5 1_555 1_555
H6 C10 1_555 1_555
C11 C8 1_555 1_555
C12 C2 1_555 1_555
C13 C12 1_555 1_555
H7 C13 1_555 1_555
C14 C13 1_555 1_555
H8 C14 1_555 1_555
C15 H9 1_555 1_555
C16 C12 1_555 1_555
H10 C16 1_555 1_555
C17 C18 1_555 1_555
C18 C19 1_555 1_555
C19 H11 1_555 1_555
C20 C19 1_555 1_555
H12 C20 1_555 1_555
C21 C20 1_555 1_555
C22 C21 1_555 1_555
H13 C22 1_555 1_555
C23 C18 1_555 1_555
H14 C23 1_555 1_555
C24 C21 1_555 1_555
C25 C24 1_555 1_555
H15 C25 1_555 1_555
C26 C25 1_555 1_555
C27 C26 1_555 1_555
H16 C27 1_555 1_555
C28 C27 1_555 1_555
C29 C28 1_555 1_555
C30 C29 1_555 1_555
H17 C30 1_555 1_555
C31 C30 1_555 1_555
H18 C31 1_555 1_555
C32 C31 1_555 1_555
C33 C32 1_555 1_555
H19 C33 1_555 1_555
C34 C29 1_555 1_555
H20 C34 1_555 1_555
C35 C32 1_555 1_555
C36 C26 1_555 1_555
C37 C36 1_555 1_555
H21 C37 1_555 1_555
C38 C37 1_555 1_555
H22 C38 1_555 1_555
C39 H23 1_555 1_555
C40 C36 1_555 1_555
H24 C40 1_555 1_555
N1 C14 1_555 1_555
N2 C4 1_555 1_555
N3 C38 1_555 1_555
N4 C24 1_555 1_555
O1 C11 1_555 1_555
O2 C11 1_555 1_555
O3 C35 1_555 1_555
O4 C35 1_555 1_555
C41 C42 1_555 1_555
C42 C43 1_555 1_555
C43 H25 1_555 1_555
C44 C43 1_555 1_555
H26 C44 1_555 1_555
C45 C44 1_555 1_555
C46 C45 1_555 1_555
H27 C46 1_555 1_555
C47 C42 1_555 1_555
H28 C47 1_555 1_555
C48 C1 1_555 1_555
O5 C41 1_555 1_555
O6 C41 1_555 1_555
O7 C17 1_555 1_555
O8 C17 1_555 1_555
Cu1 O8 1_555 1_555
Cu2 O5 1_555 1_555
N1G Cu2 1_555 1_555
N3B Cu1 1_555 1_555
O1E Cu2 1_555 1_555
O2E Cu1 1_555 1_555
O3E Cu1 1_555 1_555
O4E Cu1 1_555 1_555
Cu1B N3 1_555 1_555
Cu1E O2 1_555 1_555
Cu1E_2 O3 1_555 1_555
Cu2E O1 1_555 1_555
Cu2G N1 1_555 1_555
C9 C10 1_555 1_555
C15 C16 1_555 1_555
C15 N1 1_555 1_555
C22 C23 1_555 1_555
C28 N4 1_555 1_555
C33 C34 1_555 1_555
C39 C40 1_555 1_555
C39 N3 1_555 1_555
N2 C48 1_555 1_555
O4 Cu1E_2 1_555 1_555
C45 C48 1_555 1_555
C46 C47 1_555 1_555
O6 Cu2 1_555 1_555
O7 Cu2 1_555 1_555

#END
