
#######################################################################
#
#                 Cambridge Crystallographic Data Centre
#                                CCDC 
#
#######################################################################
#
# If this CIF has been generated from an entry in the Cambridge 
# Structural Database, then it will include bibliographic, chemical, 
# crystal, experimental, refinement or atomic coordinate data resulting 
# from the CCDC's data processing and validation procedures.
#
#######################################################################

data_NIDFIR
_symmetry_cell_setting           monoclinic
_symmetry_space_group_name_H-M   'P 21/n'
_symmetry_Int_Tables_number      14
_space_group_name_Hall           '-P 2yn'
loop_
_symmetry_equiv_pos_site_id
_symmetry_equiv_pos_as_xyz
1 x,y,z
2 1/2-x,1/2+y,1/2-z
3 -x,-y,-z
4 1/2+x,1/2-y,1/2+z
_cell_length_a                   7.5082(4)
_cell_length_b                   17.6296(9)
_cell_length_c                   21.3793(11)
_cell_angle_alpha                90
_cell_angle_beta                 95.2160(10)
_cell_angle_gamma                90
_cell_volume                     2818.19
loop_
_atom_site_label
_atom_site_type_symbol
_atom_site_fract_x
_atom_site_fract_y
_atom_site_fract_z
C1 C 0.5475(4) 1.01454(16) -0.35948(14)
C2 C 0.2174(4) 0.75857(15) -0.02404(13)
C3 C 0.2916(4) 0.69790(17) -0.05459(14)
H1 H 0.3800 0.7066 -0.0829
C4 C 0.2350(4) 0.62497(16) -0.04326(14)
H2 H 0.2869 0.5843 -0.0644
C5 C 0.0482(4) 0.66696(16) 0.02763(14)
H3 H -0.0353 0.6564 0.0573
C6 C 0.0977(4) 0.74091(16) 0.01968(13)
H4 H 0.0503 0.7799 0.0439
N1 N 0.1115(3) 0.60855(13) -0.00427(11)
O1 O 0.2583(3) 0.45804(13) 0.02073(11)
O2 O 0.6724(3) 1.06188(12) -0.36053(10)
O3 O 0.4692(3) 0.98235(11) -0.40659(9)
H5 H 0.288(8) 0.426(3) 0.005(3)
H6 H 0.256(8) 0.444(3) 0.057(3)
H7 H 0.184(7) 1.3409(18) 0.126(3)
C7 C 0.1528(4) 1.23468(18) 0.13466(15)
C8 C 0.1917(4) 1.16667(17) 0.09741(14)
C9 C 0.1417(4) 1.09556(17) 0.11715(14)
H8 H 0.0902 1.0902 0.1559
C10 C 0.1666(4) 1.03231(17) 0.08056(13)
H9 H 0.1326 0.9838 0.0946
C11 C 0.2409(4) 1.03882(16) 0.02346(13)
C12 C 0.2899(4) 1.11088(16) 0.00406(14)
H10 H 0.3398 1.1165 -0.0349
C13 C 0.2671(4) 1.17368(17) 0.04045(15)
H11 H 0.3029 1.2222 0.0268
C14 C 0.2648(4) 0.97247(16) -0.01798(13)
C15 C 0.2370(4) 0.89795(16) 0.00162(13)
H12 H 0.2063 0.8879 0.0430
C16 C 0.2553(4) 0.83866(16) -0.04058(13)
C17 C 0.3025(4) 0.85664(16) -0.10015(13)
H13 H 0.3162 0.8177 -0.1300
C18 C 0.3295(4) 0.93172(15) -0.11572(13)
C19 C 0.3806(4) 0.95357(16) -0.17868(13)
C20 C 0.3263(4) 0.91094(16) -0.23200(13)
H14 H 0.2522 0.8678 -0.2283
C21 C 0.3790(4) 0.93082(16) -0.29025(13)
H15 H 0.3404 0.9013 -0.3261
C22 C 0.4882(4) 0.99375(16) -0.29654(13)
C23 C 0.5403(4) 1.03687(17) -0.24346(13)
H16 H 0.6142 1.0801 -0.2471
C24 C 0.4861(4) 1.01773(16) -0.18578(14)
H17 H 0.5210 1.0485 -0.1503
N2 N 0.3115(3) 0.98922(13) -0.07524(11)
O4 O 0.2300(4) 1.29676(13) 0.11417(12)
O5 O 0.0591(4) 1.23486(13) 0.17796(11)
Ni1 Ni 0.0000 0.5000 0.0000
C1B C -0.5475(4) -0.01454(16) 0.35948(14)
C2B C -0.2174(4) 0.24143(15) 0.02404(13)
C3B C -0.2916(4) 0.30210(17) 0.05459(14)
H1B H -0.3800 0.2934 0.0829
C4B C -0.2350(4) 0.37503(16) 0.04326(14)
H2B H -0.2869 0.4157 0.0644
C5B C -0.0482(4) 0.33304(16) -0.02763(14)
H3B H 0.0353 0.3436 -0.0573
C6B C -0.0977(4) 0.25909(16) -0.01968(13)
H4B H -0.0503 0.2201 -0.0439
N1B N -0.1115(3) 0.39145(13) 0.00427(11)
O1B O -0.2583(3) 0.54196(13) -0.02073(11)
O2B O -0.6724(3) -0.06188(12) 0.36053(10)
O3B O -0.4692(3) 0.01765(11) 0.40659(9)
H5B H -0.288(8) 0.574(3) -0.005(3)
H6B H -0.256(8) 0.556(3) -0.057(3)
H7B H -0.184(7) -0.3409(18) -0.126(3)
C7B C -0.1528(4) -0.23468(18) -0.13466(15)
C8B C -0.1917(4) -0.16667(17) -0.09741(14)
C9B C -0.1417(4) -0.09556(17) -0.11715(14)
H8B H -0.0902 -0.0902 -0.1559
C10B C -0.1666(4) -0.03231(17) -0.08056(13)
H9B H -0.1326 0.0162 -0.0946
C11B C -0.2409(4) -0.03882(16) -0.02346(13)
C12B C -0.2899(4) -0.11088(16) -0.00406(14)
H10B H -0.3398 -0.1165 0.0349
C13B C -0.2671(4) -0.17368(17) -0.04045(15)
H11B H -0.3029 -0.2222 -0.0268
C14B C -0.2648(4) 0.02753(16) 0.01798(13)
C15B C -0.2370(4) 0.10205(16) -0.00162(13)
H12B H -0.2063 0.1121 -0.0430
C16B C -0.2553(4) 0.16134(16) 0.04058(13)
C17B C -0.3025(4) 0.14336(16) 0.10015(13)
H13B H -0.3162 0.1823 0.1300
C18B C -0.3295(4) 0.06828(15) 0.11572(13)
C19B C -0.3806(4) 0.04643(16) 0.17868(13)
C20B C -0.3263(4) 0.08906(16) 0.23200(13)
H14B H -0.2522 0.1322 0.2283
C21B C -0.3790(4) 0.06918(16) 0.29025(13)
H15B H -0.3404 0.0987 0.3261
C22B C -0.4882(4) 0.00625(16) 0.29654(13)
C23B C -0.5403(4) -0.03687(17) 0.24346(13)
H16B H -0.6142 -0.0801 0.2471
C24B C -0.4861(4) -0.01773(16) 0.18578(14)
H17B H -0.5210 -0.0485 0.1503
N2B N -0.3115(3) 0.01078(13) 0.07524(11)
O4B O -0.2300(4) -0.29676(13) -0.11417(12)
O5B O -0.0591(4) -0.23486(13) -0.17796(11)
O3A O 0.0308(3) 0.48235(11) -0.09341(9)
O3C O -0.0308(3) 0.51765(11) 0.09341(9)
Ni1A Ni -0.5000 0.0000 0.5000
Ni1A_2 Ni 0.5000 1.0000 -0.5000
C25 C 0.3356(6) 0.6416(3) 0.1750(2)
H18 H 0.3032 0.6798 0.2053
H19 H 0.3901 0.5978 0.1975
H20 H 0.2280 0.6253 0.1491
C26 C 0.5034(6) 0.7535(2) 0.1426(2)
H21 H 0.4443 0.7739 0.1780
H22 H 0.4610 0.7807 0.1041
H23 H 0.6331 0.7599 0.1507
C27 C 0.5264(5) 0.6332(2) 0.09036(17)
H24 H 0.4878 0.5820 0.0859
N3 N 0.4618(4) 0.67391(17) 0.13516(14)
O6 O 0.6320(3) 0.65620(14) 0.05418(12)
C28 C 1.0251(11) 1.2246(3) -0.2432(3)
H25 H 1.0608 1.2392 -0.2845
H26 H 1.1026 1.2501 -0.2103
H27 H 0.9006 1.2396 -0.2400
C29 C 1.1002(7) 1.1030(3) -0.2882(2)
H28 H 1.1233 1.1385 -0.3218
H29 H 1.0070 1.0670 -0.3037
H30 H 1.2102 1.0753 -0.2747
C30 C 1.0005(7) 1.1124(3) -0.1843(2)
H31 H 1.0234 1.0596 -0.1801
N4 N 1.0417(4) 1.14463(17) -0.23571(14)
O7 O 0.9351(5) 1.14367(18) -0.14097(14)
loop_
_geom_bond_atom_site_label_1
_geom_bond_atom_site_label_2
_geom_bond_site_symmetry_1
_geom_bond_site_symmetry_2
C1 O2 1_555 1_555
C2 C3 1_555 1_555
C3 H1 1_555 1_555
C4 C3 1_555 1_555
H2 C4 1_555 1_555
C5 H3 1_555 1_555
C6 C2 1_555 1_555
H4 C6 1_555 1_555
N1 C4 1_555 1_555
O1 H5 1_555 1_555
O3 C1 1_555 1_555
H6 O1 1_555 1_555
H7 O4 1_555 1_555
C7 C8 1_555 1_555
C8 C9 1_555 1_555
C9 H8 1_555 1_555
C10 C9 1_555 1_555
H9 C10 1_555 1_555
C11 C10 1_555 1_555
C12 C11 1_555 1_555
H10 C12 1_555 1_555
C13 C8 1_555 1_555
H11 C13 1_555 1_555
C14 C11 1_555 1_555
C15 C14 1_555 1_555
H12 C15 1_555 1_555
C16 C2 1_555 1_555
C17 C16 1_555 1_555
H13 C17 1_555 1_555
C18 C17 1_555 1_555
C19 C18 1_555 1_555
C20 C19 1_555 1_555
H14 C20 1_555 1_555
C21 C20 1_555 1_555
H15 C21 1_555 1_555
C22 C1 1_555 1_555
C23 C22 1_555 1_555
H16 C23 1_555 1_555
C24 C19 1_555 1_555
H17 C24 1_555 1_555
N2 C14 1_555 1_555
O4 C7 1_555 1_555
O5 C7 1_555 1_555
Ni1 N1 1_555 1_555
C25 H18 1_555 1_555
H19 C25 1_555 1_555
H20 C25 1_555 1_555
C26 H21 1_555 1_555
H22 C26 1_555 1_555
H23 C26 1_555 1_555
C27 H24 1_555 1_555
N3 C25 1_555 1_555
O6 C27 1_555 1_555
C28 H25 1_555 1_555
H26 C28 1_555 1_555
H27 C28 1_555 1_555
C29 H28 1_555 1_555
H29 C29 1_555 1_555
H30 C29 1_555 1_555
C30 H31 1_555 1_555
N4 C28 1_555 1_555
O7 C30 1_555 1_555
C1B O2B 1_555 1_555
C2B C3B 1_555 1_555
C3B H1B 1_555 1_555
C4B C3B 1_555 1_555
H2B C4B 1_555 1_555
C5B H3B 1_555 1_555
C6B C2B 1_555 1_555
H4B C6B 1_555 1_555
N1B Ni1 1_555 1_555
O1B Ni1 1_555 1_555
O3B C1B 1_555 1_555
H5B O1B 1_555 1_555
H6B O1B 1_555 1_555
H7B O4B 1_555 1_555
C7B C8B 1_555 1_555
C8B C9B 1_555 1_555
C9B H8B 1_555 1_555
C10B C9B 1_555 1_555
H9B C10B 1_555 1_555
C11B C10B 1_555 1_555
C12B C11B 1_555 1_555
H10B C12B 1_555 1_555
C13B C8B 1_555 1_555
H11B C13B 1_555 1_555
C14B C11B 1_555 1_555
C15B C14B 1_555 1_555
H12B C15B 1_555 1_555
C16B C2B 1_555 1_555
C17B C16B 1_555 1_555
H13B C17B 1_555 1_555
C18B C17B 1_555 1_555
C19B C18B 1_555 1_555
C20B C19B 1_555 1_555
H14B C20B 1_555 1_555
C21B C20B 1_555 1_555
H15B C21B 1_555 1_555
C22B C1B 1_555 1_555
C23B C22B 1_555 1_555
H16B C23B 1_555 1_555
C24B C19B 1_555 1_555
H17B C24B 1_555 1_555
N2B C14B 1_555 1_555
O4B C7B 1_555 1_555
O5B C7B 1_555 1_555
O3A Ni1 1_555 1_555
O3C Ni1 1_555 1_555
Ni1A O3B 1_555 1_555
Ni1A_2 O3 1_555 1_555
C5 C6 1_555 1_555
C5 N1 1_555 1_555
O1 Ni1 1_555 1_555
C12 C13 1_555 1_555
C15 C16 1_555 1_555
C18 N2 1_555 1_555
C21 C22 1_555 1_555
C23 C24 1_555 1_555
C26 N3 1_555 1_555
C27 N3 1_555 1_555
C29 N4 1_555 1_555
C30 N4 1_555 1_555
C4B N1B 1_555 1_555
C5B C6B 1_555 1_555
C5B N1B 1_555 1_555
C12B C13B 1_555 1_555
C15B C16B 1_555 1_555
C18B N2B 1_555 1_555
C21B C22B 1_555 1_555
C23B C24B 1_555 1_555

#END
