
#######################################################################
#
#                 Cambridge Crystallographic Data Centre
#                                CCDC 
#
#######################################################################
#
# If this CIF has been generated from an entry in the Cambridge 
# Structural Database, then it will include bibliographic, chemical, 
# crystal, experimental, refinement or atomic coordinate data resulting 
# from the CCDC's data processing and validation procedures.
#
#######################################################################

data_NIDFUD
_symmetry_cell_setting           monoclinic
_symmetry_space_group_name_H-M   'P 21/c'
_symmetry_Int_Tables_number      14
_space_group_name_Hall           '-P 2ybc'
loop_
_symmetry_equiv_pos_site_id
_symmetry_equiv_pos_as_xyz
1 x,y,z
2 -x,1/2+y,1/2-z
3 -x,-y,-z
4 x,1/2-y,1/2+z
_cell_length_a                   10.7092(5)
_cell_length_b                   25.9916(12)
_cell_length_c                   13.7412(7)
_cell_angle_alpha                90
_cell_angle_beta                 94.5580(10)
_cell_angle_gamma                90
_cell_volume                     3812.76
loop_
_atom_site_label
_atom_site_type_symbol
_atom_site_fract_x
_atom_site_fract_y
_atom_site_fract_z
C1 C 0.8948(5) 0.48171(16) 0.6755(4)
C2 C 0.9484(5) 0.43374(18) 0.6612(4)
H1 H 0.9410 0.4178 0.5988
C3 C 1.0149(5) 0.40916(17) 0.7429(4)
H2 H 1.0586 0.3779 0.7337
C4 C 1.0162(5) 0.43072(18) 0.8355(4)
C5 C 0.9616(5) 0.47800(18) 0.8474(4)
H3 H 0.9652 0.4933 0.9103
C6 C 0.9014(5) 0.50347(18) 0.7683(3)
H4 H 0.8643 0.5361 0.7776
C7 C 1.0772(6) 0.40363(18) 0.9237(4)
C8 C 0.7473(4) 0.64487(15) 0.5064(3)
C9 C 0.7271(4) 0.66859(15) 0.4166(3)
H5 H 0.7191 0.6486 0.3585
C10 C 0.7188(5) 0.72133(16) 0.4119(3)
H6 H 0.7044 0.7370 0.3496
C11 C 0.7478(4) 0.72892(15) 0.5770(3)
H7 H 0.7549 0.7499 0.6338
C12 C 0.7566(4) 0.67622(15) 0.5884(3)
H8 H 0.7690 0.6616 0.6518
C13 C -0.2002(4) 0.17269(15) 0.4770(3)
H9 H -0.1615 0.1518 0.4313
C14 C -0.2652(4) 0.15025(15) 0.5492(3)
C15 C -0.3197(4) 0.18183(15) 0.6136(3)
H10 H -0.3663 0.1674 0.6630
C16 C -0.3068(4) 0.23497(15) 0.6069(3)
C17 C -0.3645(4) 0.27052(14) 0.6762(3)
C18 C -0.4106(5) 0.25225(16) 0.7600(4)
H11 H -0.4020 0.2167 0.7752
C19 C -0.4687(4) 0.28393(16) 0.8224(3)
H12 H -0.4995 0.2700 0.8798
C20 C -0.4827(4) 0.33558(15) 0.8026(3)
C21 C -0.4313(6) 0.35453(17) 0.7208(4)
H13 H -0.4368 0.3903 0.7073
C22 C -0.3723(5) 0.32303(16) 0.6584(4)
H14 H -0.3370 0.3372 0.6031
C23 C -0.5555(5) 0.36831(17) 0.8674(4)
C24 C -0.2774(4) 0.09330(15) 0.5599(4)
C25 C -0.2666(5) 0.07198(17) 0.6531(4)
H15 H -0.2462 0.0931 0.7085
C26 C -0.2858(6) 0.01999(19) 0.6642(4)
H16 H -0.2790 0.0053 0.7277
C27 C -0.3156(6) 0.00862(19) 0.4988(4)
H17 H -0.3302 -0.0138 0.4445
C28 C -0.2968(6) 0.06062(18) 0.4830(4)
H18 H -0.2976 0.0734 0.4182
N1 N 0.7298(3) 0.75173(12) 0.4907(2)
N2 N -0.3137(4) -0.00996(15) 0.5866(4)
N3 N -0.2444(3) 0.25687(12) 0.5369(3)
O1 O 1.0529(4) 0.42385(14) 1.0063(3)
O2 O 1.1393(3) 0.36561(14) 0.9120(3)
O3 O -0.5843(3) 0.34993(11) 0.9468(2)
O4 O -0.5858(4) 0.41247(12) 0.8363(3)
H19 H 0.033(7) 0.397(2) 0.106(3)
H20 H -0.338(7) -0.0436(12) 0.575(5)
C29 C 0.3708(4) 0.38021(15) 0.1867(3)
C30 C 0.4418(4) 0.41079(15) 0.2654(3)
C31 C 0.5250(4) 0.38835(15) 0.3353(3)
H21 H 0.5305 0.3519 0.3394
C32 C 0.6002(4) 0.41825(15) 0.3993(3)
H22 H 0.6582 0.4021 0.4455
C33 C 0.5917(4) 0.47140(14) 0.3969(3)
C34 C 0.5018(5) 0.49324(16) 0.3319(4)
H23 H 0.4898 0.5295 0.3323
C35 C 0.4291(5) 0.46330(16) 0.2665(4)
H24 H 0.3693 0.4793 0.2216
C36 C 0.6771(4) 0.50390(14) 0.4617(3)
C37 C 0.6759(4) 0.55724(14) 0.4514(3)
H25 H 0.6240 0.5729 0.4005
C38 C 0.7506(4) 0.58747(15) 0.5156(3)
C39 C 0.8242(4) 0.56274(15) 0.5882(3)
H26 H 0.8761 0.5821 0.6340
C40 C 0.8221(4) 0.50888(15) 0.5939(3)
C41 C 0.0378(4) 0.33439(16) 0.1677(3)
C42 C -0.0201(4) 0.30717(16) 0.2471(3)
C43 C -0.0757(5) 0.33349(16) 0.3202(4)
H27 H -0.0773 0.3700 0.3194
C44 C -0.1283(5) 0.30742(16) 0.3934(4)
H28 H -0.1655 0.3261 0.4430
C45 C -0.1279(4) 0.25338(16) 0.3958(3)
C46 C -0.0701(4) 0.22774(17) 0.3231(3)
H29 H -0.0668 0.1912 0.3242
C47 C -0.0176(4) 0.25394(16) 0.2495(3)
H30 H 0.0206 0.2354 0.2002
C48 C -0.1918(4) 0.22599(15) 0.4721(3)
N4 N 0.7507(3) 0.47997(12) 0.5303(3)
O5 O 0.3025(3) 0.40405(11) 0.1233(2)
O6 O 0.3815(3) 0.33265(10) 0.1842(2)
O7 O 0.0999(3) 0.31152(11) 0.1102(2)
O8 O 0.0163(3) 0.38334(12) 0.1633(2)
Mn1 Mn 0.26072(6) 0.33729(2) 0.02941(5)
N1A N 0.2702(3) 0.25173(12) 0.0093(2)
O2_2 O 0.1393(3) 0.36561(14) -0.0880(3)
O3_2 O 0.4157(3) 0.34993(11) -0.0532(2)
Mn1_2 Mn -0.73928(6) 0.33729(2) 1.02941(5)
Mn1_3 Mn 1.26072(6) 0.33729(2) 1.02941(5)
Mn1A Mn 0.73928(6) 0.83729(2) 0.47059(5)
loop_
_geom_bond_atom_site_label_1
_geom_bond_atom_site_label_2
_geom_bond_site_symmetry_1
_geom_bond_site_symmetry_2
C1 C2 1_555 1_555
C2 H1 1_555 1_555
C3 C2 1_555 1_555
H2 C3 1_555 1_555
C4 C3 1_555 1_555
C5 C4 1_555 1_555
H3 C5 1_555 1_555
C6 C1 1_555 1_555
H4 C6 1_555 1_555
C7 C4 1_555 1_555
C8 C9 1_555 1_555
C9 H5 1_555 1_555
C10 C9 1_555 1_555
H6 C10 1_555 1_555
C11 H7 1_555 1_555
C12 C8 1_555 1_555
H8 C12 1_555 1_555
C13 H9 1_555 1_555
C14 C13 1_555 1_555
C15 C14 1_555 1_555
H10 C15 1_555 1_555
C16 C15 1_555 1_555
C17 C16 1_555 1_555
C18 C17 1_555 1_555
H11 C18 1_555 1_555
C19 C18 1_555 1_555
H12 C19 1_555 1_555
C20 C19 1_555 1_555
C21 C20 1_555 1_555
H13 C21 1_555 1_555
C22 C17 1_555 1_555
H14 C22 1_555 1_555
C23 C20 1_555 1_555
C24 C14 1_555 1_555
C25 C24 1_555 1_555
H15 C25 1_555 1_555
C26 C25 1_555 1_555
H16 C26 1_555 1_555
C27 H17 1_555 1_555
C28 C24 1_555 1_555
H18 C28 1_555 1_555
N1 C10 1_555 1_555
N2 C26 1_555 1_555
N3 C16 1_555 1_555
O1 C7 1_555 1_555
O2 C7 1_555 1_555
O3 C23 1_555 1_555
O4 C23 1_555 1_555
H19 O8 1_555 1_555
H20 N2 1_555 1_555
C29 C30 1_555 1_555
C30 C31 1_555 1_555
C31 H21 1_555 1_555
C32 C31 1_555 1_555
H22 C32 1_555 1_555
C33 C32 1_555 1_555
C34 C33 1_555 1_555
H23 C34 1_555 1_555
C35 C30 1_555 1_555
H24 C35 1_555 1_555
C36 C33 1_555 1_555
C37 C36 1_555 1_555
H25 C37 1_555 1_555
C38 C8 1_555 1_555
C39 C38 1_555 1_555
H26 C39 1_555 1_555
C40 C1 1_555 1_555
C41 C42 1_555 1_555
C42 C43 1_555 1_555
C43 H27 1_555 1_555
C44 C43 1_555 1_555
H28 C44 1_555 1_555
C45 C44 1_555 1_555
C46 C45 1_555 1_555
H29 C46 1_555 1_555
C47 C42 1_555 1_555
H30 C47 1_555 1_555
C48 C13 1_555 1_555
N4 C36 1_555 1_555
O5 C29 1_555 1_555
O6 C29 1_555 1_555
O7 C41 1_555 1_555
O8 C41 1_555 1_555
Mn1 O5 1_555 1_555
N1A Mn1 1_555 1_555
O2_2 Mn1 1_555 1_555
O3_2 Mn1 1_555 1_555
Mn1_2 O3 1_555 1_555
Mn1_3 O2 1_555 1_555
Mn1A N1 1_555 1_555
C5 C6 1_555 1_555
C11 C12 1_555 1_555
C11 N1 1_555 1_555
C21 C22 1_555 1_555
C27 C28 1_555 1_555
C27 N2 1_555 1_555
N3 C48 1_555 1_555
C34 C35 1_555 1_555
C37 C38 1_555 1_555
C39 C40 1_555 1_555
C40 N4 1_555 1_555
C45 C48 1_555 1_555
C46 C47 1_555 1_555
O6 Mn1 1_555 1_555
O7 Mn1 1_555 1_555

#END
