
#######################################################################
#
#                 Cambridge Crystallographic Data Centre
#                                CCDC 
#
#######################################################################
#
# If this CIF has been generated from an entry in the Cambridge 
# Structural Database, then it will include bibliographic, chemical, 
# crystal, experimental, refinement or atomic coordinate data resulting 
# from the CCDC's data processing and validation procedures.
#
#######################################################################

data_NIDFAI
_symmetry_cell_setting           monoclinic
_symmetry_space_group_name_H-M   'P 21/c'
_symmetry_Int_Tables_number      14
_space_group_name_Hall           '-P 2ybc'
loop_
_symmetry_equiv_pos_site_id
_symmetry_equiv_pos_as_xyz
1 x,y,z
2 -x,1/2+y,1/2-z
3 -x,-y,-z
4 x,1/2-y,1/2+z
_cell_length_a                   15.4858(14)
_cell_length_b                   13.5067(11)
_cell_length_c                   11.5020(9)
_cell_angle_alpha                90
_cell_angle_beta                 98.838(4)
_cell_angle_gamma                90
_cell_volume                     2377.22
loop_
_atom_site_label
_atom_site_type_symbol
_atom_site_fract_x
_atom_site_fract_y
_atom_site_fract_z
Zn1 Zn 0.43217(5) 0.08616(5) 0.88054(5)
O1 O 0.3701(3) 0.2139(3) 0.7735(3)
N1 N 0.3741(3) 0.3550(3) 0.5186(4)
N2 N 0.3204(3) 0.4869(3) 0.3197(4)
N3 N 0.4954(4) 0.4850(3) 0.2607(4)
N4 N 0.5525(3) 0.3615(3) 0.4632(4)
C1 C 0.4172(4) 0.2968(4) 0.6087(4)
C2 C 0.3550(4) 0.2600(4) 0.6803(5)
C3 C 0.2637(4) 0.2867(4) 0.6176(5)
C4 C 0.2876(4) 0.3572(4) 0.5231(5)
C5 C 0.2267(4) 0.4118(4) 0.4515(5)
H1 H 0.1680 0.4074 0.4659
C6 C 0.2426(5) 0.4742(4) 0.3580(5)
C7 C 0.1766(5) 0.5316(5) 0.2838(6)
H2 H 0.1165 0.5359 0.2917
C8 C 0.2145(6) 0.5771(5) 0.2030(6)
H3 H 0.1871 0.6204 0.1434
C9 C 0.3071(5) 0.5482(4) 0.2231(5)
C10 C 0.3704(6) 0.5765(4) 0.1553(5)
H4 H 0.3520 0.6195 0.0909
C11 C 0.4584(5) 0.5476(4) 0.1729(5)
C12 C 0.5219(6) 0.5796(5) 0.1044(5)
H5 H 0.5126 0.6231 0.0388
C13 C 0.5969(6) 0.5368(5) 0.1494(5)
H6 H 0.6509 0.5441 0.1209
C14 C 0.5824(5) 0.4778(4) 0.2486(5)
C15 C 0.6430(5) 0.4239(4) 0.3227(6)
H7 H 0.7005 0.4227 0.3035
C16 C 0.6305(4) 0.3717(4) 0.4210(5)
C17 C 0.6976(4) 0.3176(4) 0.4973(5)
H8 H 0.7574 0.3118 0.4883
C18 C 0.6586(4) 0.2768(4) 0.5839(5)
H9 H 0.6864 0.2374 0.6472
C19 C 0.5688(4) 0.3038(4) 0.5626(5)
C20 C 0.5046(4) 0.2756(4) 0.6294(5)
H10 H 0.5241 0.2371 0.6974
C21 C 0.2242(5) 0.1906(5) 0.5604(5)
H11 H 0.2642 0.1620 0.5112
H12 H 0.2151 0.1432 0.6219
H13 H 0.1680 0.2053 0.5115
C22 C 0.2064(4) 0.3294(5) 0.7019(6)
H14 H 0.1479 0.3429 0.6590
H15 H 0.2021 0.2816 0.7649
H16 H 0.2323 0.3910 0.7360
Zn1C Zn 0.43217(5) 0.41384(5) 0.38054(5)
N1C N 0.3741(3) 0.1450(3) 1.0186(4)
N2C N 0.3204(3) 0.0131(3) 0.8197(4)
N3C N 0.4954(4) 0.0150(3) 0.7607(4)
N4C N 0.5525(3) 0.1385(3) 0.9632(4)
C23 C 0.9161(9) 0.0660(9) 0.8022(12)
H17 H 0.8716 0.0307 0.8398
H18 H 0.9735 0.0350 0.8299
C24 C 0.9189(9) 0.1713(11) 0.8388(15)
H19 H 0.8600 0.2008 0.8181
H20 H 0.9357 0.1754 0.9253
C25 C 0.9822(9) 0.2279(12) 0.7809(14)
H21 H 0.9811 0.2983 0.8043
H22 H 1.0419 0.2021 0.8071
C26 C 0.9613(9) 0.2200(11) 0.6536(17)
H23 H 1.0057 0.2568 0.6174
H24 H 0.9039 0.2516 0.6275
C27 C 0.9581(10) 0.1147(12) 0.6103(11)
H25 H 1.0171 0.0848 0.6286
H26 H 0.9407 0.1139 0.5238
C28 C 0.8941(11) 0.0540(12) 0.6669(15)
H27 H 0.8982 -0.0166 0.6451
H28 H 0.8337 0.0770 0.6393
loop_
_geom_bond_atom_site_label_1
_geom_bond_atom_site_label_2
_geom_bond_site_symmetry_1
_geom_bond_site_symmetry_2
Zn1 O1 1_555 1_555
O1 C2 1_555 1_555
N1 C1 1_555 1_555
N2 C6 1_555 1_555
N3 C11 1_555 1_555
N4 C16 1_555 1_555
C1 C2 1_555 1_555
C2 C3 1_555 1_555
C3 C4 1_555 1_555
C4 N1 1_555 1_555
C5 C4 1_555 1_555
H1 C5 1_555 1_555
C6 C5 1_555 1_555
C7 C6 1_555 1_555
H2 C7 1_555 1_555
C8 C7 1_555 1_555
H3 C8 1_555 1_555
C9 N2 1_555 1_555
C10 C9 1_555 1_555
H4 C10 1_555 1_555
C11 C10 1_555 1_555
C12 C11 1_555 1_555
H5 C12 1_555 1_555
C13 C12 1_555 1_555
H6 C13 1_555 1_555
C14 N3 1_555 1_555
C15 C14 1_555 1_555
H7 C15 1_555 1_555
C16 C15 1_555 1_555
C17 C16 1_555 1_555
H8 C17 1_555 1_555
C18 C17 1_555 1_555
H9 C18 1_555 1_555
C19 N4 1_555 1_555
C20 C1 1_555 1_555
H10 C20 1_555 1_555
C21 C3 1_555 1_555
H11 C21 1_555 1_555
H12 C21 1_555 1_555
H13 C21 1_555 1_555
C22 C3 1_555 1_555
H14 C22 1_555 1_555
H15 C22 1_555 1_555
H16 C22 1_555 1_555
C23 H17 1_555 1_555
H18 C23 1_555 1_555
C24 C23 1_555 1_555
H19 C24 1_555 1_555
H20 C24 1_555 1_555
C25 C24 1_555 1_555
H21 C25 1_555 1_555
H22 C25 1_555 1_555
C26 C25 1_555 1_555
H23 C26 1_555 1_555
H24 C26 1_555 1_555
C27 C26 1_555 1_555
H25 C27 1_555 1_555
H26 C27 1_555 1_555
C28 C23 1_555 1_555
H27 C28 1_555 1_555
H28 C28 1_555 1_555
Zn1C N1 1_555 1_555
N1C Zn1 1_555 1_555
N2C Zn1 1_555 1_555
N3C Zn1 1_555 1_555
N4C Zn1 1_555 1_555
N2 Zn1C 1_555 1_555
N3 Zn1C 1_555 1_555
N4 Zn1C 1_555 1_555
C8 C9 1_555 1_555
C13 C14 1_555 1_555
C18 C19 1_555 1_555
C19 C20 1_555 1_555
C27 C28 1_555 1_555

#END
