
#######################################################################
#
#                 Cambridge Crystallographic Data Centre
#                                CCDC 
#
#######################################################################
#
# If this CIF has been generated from an entry in the Cambridge 
# Structural Database, then it will include bibliographic, chemical, 
# crystal, experimental, refinement or atomic coordinate data resulting 
# from the CCDC's data processing and validation procedures.
#
#######################################################################

data_NIDGAJ
_symmetry_cell_setting           triclinic
_symmetry_space_group_name_H-M   'P -1'
_symmetry_Int_Tables_number      2
_space_group_name_Hall           '-P 1'
loop_
_symmetry_equiv_pos_site_id
_symmetry_equiv_pos_as_xyz
1 x,y,z
2 -x,-y,-z
_cell_length_a                   7.3131(5)
_cell_length_b                   8.5411(3)
_cell_length_c                   11.2793(7)
_cell_angle_alpha                97.375(4)
_cell_angle_beta                 98.767(3)
_cell_angle_gamma                106.632(4)
_cell_volume                     656.069
loop_
_atom_site_label
_atom_site_type_symbol
_atom_site_fract_x
_atom_site_fract_y
_atom_site_fract_z
U1 U 0.622483(17) 0.744370(14) 0.545672(11)
O1 O 0.7876(4) 0.7478(3) 0.4449(2)
O2 O 0.4578(4) 0.7501(3) 0.6458(2)
O3 O 0.6248(3) 0.4801(3) 0.5898(2)
O4 O 0.8685(4) 0.7594(3) 0.7107(2)
O5 O 1.0469(4) 0.6449(3) 0.8261(2)
O6 O 0.5406(3) 0.1336(3) 0.5938(2)
O7 O 0.7956(3) 0.0418(3) 0.6305(2)
O8 O 0.7546(4) 0.4623(3) 1.0073(2)
H1 H 0.8243 0.4180 1.0711
O9 O 0.8081(4) 0.2562(3) 0.8882(2)
C1 C 0.7520(5) 0.4626(4) 0.6914(3)
C2 C 0.9067(5) 0.6343(4) 0.7466(3)
C3 C 0.8537(5) 0.3363(4) 0.6514(3)
H3 H 0.9042 0.3629 0.5793
H4 H 0.9634 0.3468 0.7155
C4 C 0.7221(5) 0.1585(4) 0.6235(3)
C5 C 0.6354(5) 0.4227(4) 0.7938(3)
H5 H 0.6009 0.5199 0.8239
H6 H 0.5152 0.3337 0.7589
C6 C 0.7427(5) 0.3723(4) 0.9004(3)
U1A U 0.377517(17) 0.255630(14) 0.454328(11)
U1_2 U 0.622483(17) -0.255630(14) 0.545672(11)
U1A_2 U 0.377517(17) 1.255630(14) 0.454328(11)
O1A O 0.2124(4) 0.2522(3) 0.5551(2)
O2A O 0.5422(4) 0.2499(3) 0.3542(2)
O3A O 0.3752(3) 0.5199(3) 0.4102(2)
O4A O 0.1315(4) 0.2406(3) 0.2893(2)
O5A O -0.0469(4) 0.3551(3) 0.1739(2)
O6A O 0.4594(3) 0.8664(3) 0.4062(2)
O7A O 0.2044(3) 0.9582(3) 0.3695(2)
O7_2 O 0.7956(3) 1.0418(3) 0.6305(2)
O7A_2 O 0.2044(3) -0.0418(3) 0.3695(2)
O8A O 0.2454(4) 0.5377(3) -0.0073(2)
H1A H 0.1757 0.5820 -0.0711
O9A O 0.1919(4) 0.7438(3) 0.1118(2)
C1A C 0.2480(5) 0.5374(4) 0.3086(3)
C2A C 0.0933(5) 0.3657(4) 0.2534(3)
C3A C 0.1463(5) 0.6637(4) 0.3486(3)
H3A H 0.0958 0.6371 0.4207
H4A H 0.0366 0.6532 0.2845
C4A C 0.2779(5) 0.8415(4) 0.3765(3)
C5A C 0.3646(5) 0.5773(4) 0.2062(3)
H5A H 0.3991 0.4801 0.1761
H6A H 0.4848 0.6663 0.2411
C6A C 0.2573(5) 0.6277(4) 0.0996(3)
N1 N 1.1170(4) 0.1187(4) 0.8566(3)
H2 H 1.0055 0.1433 0.8211
C7 C 1.1645(6) 0.1510(5) 0.9790(4)
H7 H 1.0948 0.2029 1.0242
C8 C 1.3155(5) 0.1073(5) 1.0366(4)
H8 H 1.3494 0.1307 1.1213
C9 C 1.4205(5) 0.0274(4) 0.9694(3)
C10 C 1.3674(5) 0.0004(4) 0.8424(3)
H9 H 1.4361 -0.0486 0.7944
C11 C 1.2130(5) 0.0464(5) 0.7878(4)
H10 H 1.1764 0.0268 0.7033
N1A N 1.8830(4) -0.1187(4) 1.1434(3)
H2A H 1.9945 -0.1433 1.1789
C7A C 1.8355(6) -0.1510(5) 1.0210(4)
H7A H 1.9052 -0.2029 0.9758
C8A C 1.6845(5) -0.1073(5) 0.9634(4)
H8A H 1.6506 -0.1307 0.8787
C9A C 1.5795(5) -0.0274(4) 1.0306(3)
C10A C 1.6326(5) -0.0004(4) 1.1576(3)
H9A H 1.5639 0.0486 1.2056
C11A C 1.7870(5) -0.0464(5) 1.2122(4)
H10A H 1.8236 -0.0268 1.2967
loop_
_geom_bond_atom_site_label_1
_geom_bond_atom_site_label_2
_geom_bond_site_symmetry_1
_geom_bond_site_symmetry_2
U1 O1 1_555 1_555
O2 U1 1_555 1_555
O3 U1 1_555 1_555
O4 U1 1_555 1_555
O5 C2 1_555 1_555
O6 C4 1_555 1_555
O7 C4 1_555 1_555
O8 H1 1_555 1_555
O9 C6 1_555 1_555
N1 H2 1_555 1_555
C1 O3 1_555 1_555
C2 O4 1_555 1_555
C3 C1 1_555 1_555
H3 C3 1_555 1_555
H4 C3 1_555 1_555
C4 C3 1_555 1_555
C5 C1 1_555 1_555
H5 C5 1_555 1_555
H6 C5 1_555 1_555
C6 O8 1_555 1_555
C7 N1 1_555 1_555
H7 C7 1_555 1_555
C8 C7 1_555 1_555
H8 C8 1_555 1_555
C9 C8 1_555 1_555
C10 C9 1_555 1_555
H9 C10 1_555 1_555
C11 N1 1_555 1_555
H10 C11 1_555 1_555
U1A O3 1_555 1_555
U1_2 O7 1_555 1_555
U1A_2 O7A 1_555 1_555
O1A U1A 1_555 1_555
O2A U1A 1_555 1_555
O3A U1 1_555 1_555
O4A U1A 1_555 1_555
O5A C2A 1_555 1_555
O6A U1 1_555 1_555
O7A C4A 1_555 1_555
O7_2 U1 1_555 1_555
O7A_2 U1A 1_555 1_555
O8A H1A 1_555 1_555
O9A C6A 1_555 1_555
N1A H2A 1_555 1_555
C1A O3A 1_555 1_555
C2A O4A 1_555 1_555
C3A C1A 1_555 1_555
H3A C3A 1_555 1_555
H4A C3A 1_555 1_555
C4A O6A 1_555 1_555
C5A C1A 1_555 1_555
H5A C5A 1_555 1_555
H6A C5A 1_555 1_555
C6A O8A 1_555 1_555
C7A N1A 1_555 1_555
H7A C7A 1_555 1_555
C8A C7A 1_555 1_555
H8A C8A 1_555 1_555
C9A C9 1_555 1_555
C10A C9A 1_555 1_555
H9A C10A 1_555 1_555
C11A N1A 1_555 1_555
H10A C11A 1_555 1_555
O6 U1A 1_555 1_555
C1 C2 1_555 1_555
C5 C6 1_555 1_555
C10 C11 1_555 1_555
U1A O3A 1_555 1_555
C1A C2A 1_555 1_555
C3A C4A 1_555 1_555
C5A C6A 1_555 1_555
C8A C9A 1_555 1_555
C10A C11A 1_555 1_555

#END
