
#######################################################################
#
#                 Cambridge Crystallographic Data Centre
#                                CCDC 
#
#######################################################################
#
# If this CIF has been generated from an entry in the Cambridge 
# Structural Database, then it will include bibliographic, chemical, 
# crystal, experimental, refinement or atomic coordinate data resulting 
# from the CCDC's data processing and validation procedures.
#
#######################################################################

data_NIDGIR
_symmetry_cell_setting           monoclinic
_symmetry_space_group_name_H-M   'C 2/c'
_symmetry_Int_Tables_number      15
_space_group_name_Hall           '-C 2yn'
loop_
_symmetry_equiv_pos_site_id
_symmetry_equiv_pos_as_xyz
1 x,y,z
2 1/2+x,1/2+y,z
3 -x,y,1/2-z
4 1/2-x,1/2+y,1/2-z
5 -x,-y,-z
6 1/2-x,1/2-y,-z
7 x,-y,1/2+z
8 1/2+x,1/2-y,1/2+z
_cell_length_a                   17.3514(15)
_cell_length_b                   17.2886(17)
_cell_length_c                   15.4500(11)
_cell_angle_alpha                90
_cell_angle_beta                 118.538(5)
_cell_angle_gamma                90
_cell_volume                     4071.6
loop_
_atom_site_label
_atom_site_type_symbol
_atom_site_fract_x
_atom_site_fract_y
_atom_site_fract_z
U1 U 0.370870(17) 0.285460(19) 0.18355(2)
O1 O 0.3614(3) 0.3868(4) 0.1892(4)
O2 O 0.3769(3) 0.1814(4) 0.1748(4)
O3 O 0.5007(3) 0.2900(3) 0.3372(4)
O4 O 0.3451(3) 0.2696(4) 0.3184(4)
O5 O 0.3889(4) 0.2733(4) 0.4799(4)
O6 O 0.3207(3) 0.3004(3) 0.0145(4)
O7 O 0.2851(3) 0.2262(3) -0.1171(4)
O8 O 0.5119(5) 0.4264(5) -0.0862(6)
O9 O 0.3749(4) 0.3953(5) -0.1200(5)
C1 C 0.4976(5) 0.2996(5) 0.4271(6)
C2 C 0.4032(5) 0.2783(5) 0.4101(7)
C3 C 0.5630(5) 0.2457(6) 0.5082(6)
H2 H 0.5487 0.1928 0.4851
H3 H 0.5545 0.2509 0.5656
C4 C 0.3408(5) 0.2591(6) -0.0402(6)
C5 C 0.4872(5) 0.3866(5) 0.0465(6)
H4 H 0.5418 0.4140 0.0855
H5 H 0.4447 0.4061 0.0649
C6 C 0.4558(6) 0.4045(6) -0.0593(7)
U1E U 0.129130(17) 0.214540(19) -0.18355(2)
U1B U 0.629130(17) 0.285460(19) 0.31645(2)
U1G U 0.870870(17) 0.214540(19) 0.68355(2)
O1B O 0.6386(3) 0.3868(4) 0.3108(4)
O2B O 0.6231(3) 0.1814(4) 0.3252(4)
O3B O 0.4993(3) 0.2900(3) 0.1628(4)
O4B O 0.6549(3) 0.2696(4) 0.1816(4)
O5B O 0.6111(4) 0.2733(4) 0.0201(4)
O6B O 0.6793(3) 0.3004(3) 0.4855(4)
O7G O 0.7851(3) 0.2738(3) 0.3829(4)
O7B O 0.7149(3) 0.2262(3) 0.6171(4)
O7E O 0.2149(3) 0.2738(3) 0.1171(4)
O8B O 0.4881(5) 0.4264(5) 0.5862(6)
O9B O 0.6251(4) 0.3953(5) 0.6200(5)
C1B C 0.5024(5) 0.2996(5) 0.0729(6)
C2B C 0.5968(5) 0.2783(5) 0.0899(7)
C3B C 0.4370(5) 0.2457(6) -0.0082(6)
H2B H 0.4513 0.1928 0.0149
H3B H 0.4455 0.2509 -0.0656
C4B C 0.6592(5) 0.2591(6) 0.5402(6)
C5B C 0.5128(5) 0.3866(5) 0.4535(6)
H4B H 0.4582 0.4140 0.4145
H5B H 0.5553 0.4061 0.4351
C6B C 0.5442(6) 0.4045(6) 0.5593(7)
O10 O 0.0755(6) 0.2364(6) -0.6698(6)
O11 O 0.2968(5) 0.3258(6) -0.3018(6)
N1 N 0.1492(7) 0.4712(6) -0.0787(7)
H1 H 0.1248 0.4213 -0.0889
N2 N -0.0291(7) 0.4524(7) -0.1379(8)
C7 C 0.2391(9) 0.4813(9) -0.0435(10)
H6 H 0.2752 0.4382 -0.0296
C8 C 0.2748(8) 0.5542(9) -0.0291(9)
H7 H 0.3346 0.5607 -0.0065
C9 C 0.2220(9) 0.6160(8) -0.0482(10)
H8 H 0.2450 0.6657 -0.0387
C10 C 0.1336(7) 0.6050(6) -0.0819(8)
H9 H 0.0979 0.6483 -0.0957
C11 C 0.0967(5) 0.5350(6) -0.0958(6)
C12 C 0.0035(6) 0.5260(6) -0.1301(7)
C13 C -0.0461(7) 0.5903(7) -0.1546(8)
H10 H -0.0220 0.6389 -0.1519
C14 C -0.1350(10) 0.5814(10) -0.1843(11)
H11 H -0.1709 0.6249 -0.2008
C15 C -0.1696(8) 0.5114(9) -0.1895(9)
H12 H -0.2286 0.5065 -0.2065
C16 C -0.1175(9) 0.4463(9) -0.1695(10)
H13 H -0.1428 0.3976 -0.1775
O12? O -0.0480(9) 0.0339(9) -0.7637(10)
loop_
_geom_bond_atom_site_label_1
_geom_bond_atom_site_label_2
_geom_bond_site_symmetry_1
_geom_bond_site_symmetry_2
U1 O1 1_555 1_555
O2 U1 1_555 1_555
O3 U1 1_555 1_555
O4 U1 1_555 1_555
O5 C2 1_555 1_555
O6 U1 1_555 1_555
O7 C4 1_555 1_555
O8 C6 1_555 1_555
O9 C6 1_555 1_555
N1 H1 1_555 1_555
N2 C12 1_555 1_555
C1 O3 1_555 1_555
C2 O4 1_555 1_555
C3 C1 1_555 1_555
H2 C3 1_555 1_555
H3 C3 1_555 1_555
C4 O6 1_555 1_555
C5 H4 1_555 1_555
H5 C5 1_555 1_555
C6 C5 1_555 1_555
C7 N1 1_555 1_555
H6 C7 1_555 1_555
C8 C7 1_555 1_555
H7 C8 1_555 1_555
C9 C8 1_555 1_555
H8 C9 1_555 1_555
C10 C9 1_555 1_555
H9 C10 1_555 1_555
C11 N1 1_555 1_555
C12 C11 1_555 1_555
C13 C12 1_555 1_555
H10 C13 1_555 1_555
C14 C13 1_555 1_555
H11 C14 1_555 1_555
C15 C14 1_555 1_555
H12 C15 1_555 1_555
C16 N2 1_555 1_555
H13 C16 1_555 1_555
U1E O7 1_555 1_555
U1B O3 1_555 1_555
U1G O7B 1_555 1_555
O1B U1B 1_555 1_555
O2B U1B 1_555 1_555
O3B U1 1_555 1_555
O4B U1B 1_555 1_555
O5B C2B 1_555 1_555
O6B U1B 1_555 1_555
O7G U1B 1_555 1_555
O7B C4B 1_555 1_555
O7E U1 1_555 1_555
O8B C6B 1_555 1_555
O9B C6B 1_555 1_555
C1B C5 1_555 1_555
C2B O4B 1_555 1_555
C3B C4 1_555 1_555
H2B C3B 1_555 1_555
H3B C3B 1_555 1_555
C4B C3 1_555 1_555
C5B C1 1_555 1_555
H4B C5B 1_555 1_555
H5B C5B 1_555 1_555
C6B C5B 1_555 1_555
C1 C2 1_555 1_555
C10 C11 1_555 1_555
C15 C16 1_555 1_555
U1B O3B 1_555 1_555
O3B C1B 1_555 1_555
O6B C4B 1_555 1_555
C1B C2B 1_555 1_555
C1B C3B 1_555 1_555

#END
