
#######################################################################
#
#                 Cambridge Crystallographic Data Centre
#                                CCDC 
#
#######################################################################
#
# If this CIF has been generated from an entry in the Cambridge 
# Structural Database, then it will include bibliographic, chemical, 
# crystal, experimental, refinement or atomic coordinate data resulting 
# from the CCDC's data processing and validation procedures.
#
#######################################################################

data_NIDKIW
_symmetry_cell_setting           monoclinic
_symmetry_space_group_name_H-M   'P 21/n'
_symmetry_Int_Tables_number      14
_space_group_name_Hall           '-P 2yn'
loop_
_symmetry_equiv_pos_site_id
_symmetry_equiv_pos_as_xyz
1 x,y,z
2 1/2-x,1/2+y,1/2-z
3 -x,-y,-z
4 1/2+x,1/2-y,1/2+z
_cell_length_a                   5.8507(2)
_cell_length_b                   24.1420(8)
_cell_length_c                   13.5286(6)
_cell_angle_alpha                90
_cell_angle_beta                 92.269(3)
_cell_angle_gamma                90
_cell_volume                     1909.38
loop_
_atom_site_label
_atom_site_type_symbol
_atom_site_fract_x
_atom_site_fract_y
_atom_site_fract_z
Cd1 Cd 0.70552(8) 0.09999(2) 0.81148(4)
P1 P 1.2013(3) 0.02690(8) 0.74765(13)
N1 N 0.9306(10) 0.1791(3) 0.8462(5)
N2 N 0.5510(10) 0.1775(3) 0.7222(5)
C1 C 1.1588(12) -0.0252(3) 0.6528(5)
C2 C 1.3232(16) -0.0358(4) 0.5859(8)
H1 H 1.4634 -0.0178 0.5926
C3 C 1.285(2) -0.0729(5) 0.5084(8)
H2 H 1.3991 -0.0790 0.4635
C4 C 1.0858(16) -0.1000(4) 0.4979(7)
H3 H 1.0589 -0.1243 0.4454
C5 C 0.9252(18) -0.0913(5) 0.5646(10)
H4 H 0.7892 -0.1112 0.5593
C6 C 0.9561(16) -0.0538(5) 0.6404(8)
H5 H 0.8391 -0.0476 0.6837
C7 C 1.1855(12) -0.0079(3) 0.8649(5)
H6 H 1.2056 0.0195 0.9170
H7 H 1.0331 -0.0232 0.8695
C8 C 1.3569(14) -0.0538(3) 0.8842(6)
H8 H 1.5092 -0.0396 0.8740
H9 H 1.3276 -0.0832 0.8364
C9 C 1.3510(13) -0.0782(3) 0.9883(6)
C10 C 1.1194(14) 0.1789(4) 0.9034(7)
H10 H 1.1667 0.1460 0.9334
C11 C 1.2492(17) 0.2266(5) 0.9198(8)
H11 H 1.3815 0.2250 0.9602
C12 C 1.1858(18) 0.2745(4) 0.8783(8)
H12 H 1.2715 0.3064 0.8906
C13 C 0.9864(16) 0.2766(4) 0.8152(7)
C14 C 0.910(2) 0.3250(4) 0.7651(9)
H13 H 0.9890 0.3581 0.7754
C15 C 0.723(2) 0.3242(4) 0.7023(8)
H14 H 0.6780 0.3566 0.6696
C16 C 0.5944(18) 0.2751(3) 0.6857(7)
C17 C 0.3948(18) 0.2722(4) 0.6236(7)
H15 H 0.3399 0.3035 0.5903
C18 C 0.2846(18) 0.2228(4) 0.6136(8)
H16 H 0.1538 0.2205 0.5724
C19 C 0.3629(14) 0.1758(4) 0.6632(6)
H17 H 0.2831 0.1427 0.6553
C20 C 0.6658(14) 0.2262(3) 0.7344(6)
C21 C 0.8644(14) 0.2270(3) 0.8012(6)
O1 O 1.0087(9) 0.0681(2) 0.7375(4)
O2 O 1.4369(8) 0.0499(2) 0.7355(4)
O3 O 1.4475(14) -0.1218(3) 1.0080(6)
O4 O 1.2505(12) -0.0518(3) 1.0515(4)
Cd1_2 Cd 1.70552(8) 0.09999(2) 0.81148(4)
Cd1B Cd 1.29448(8) -0.09999(2) 1.18852(4)
O2_2 O 0.4369(8) 0.0499(2) 0.7355(4)
O3B O 0.5525(14) 0.1218(3) 0.9920(6)
O4B O 0.7495(12) 0.0518(3) 0.9485(4)
loop_
_geom_bond_atom_site_label_1
_geom_bond_atom_site_label_2
_geom_bond_site_symmetry_1
_geom_bond_site_symmetry_2
Cd1 N1 1_555 1_555
P1 C1 1_555 1_555
N1 C10 1_555 1_555
N2 Cd1 1_555 1_555
C1 C2 1_555 1_555
C2 H1 1_555 1_555
C3 C2 1_555 1_555
H2 C3 1_555 1_555
C4 C3 1_555 1_555
H3 C4 1_555 1_555
C5 C4 1_555 1_555
H4 C5 1_555 1_555
C6 C1 1_555 1_555
H5 C6 1_555 1_555
C7 P1 1_555 1_555
H6 C7 1_555 1_555
H7 C7 1_555 1_555
C8 C7 1_555 1_555
H8 C8 1_555 1_555
H9 C8 1_555 1_555
C9 C8 1_555 1_555
C10 H10 1_555 1_555
C11 C10 1_555 1_555
H11 C11 1_555 1_555
C12 C11 1_555 1_555
H12 C12 1_555 1_555
C13 C12 1_555 1_555
C14 C13 1_555 1_555
H13 C14 1_555 1_555
C15 C14 1_555 1_555
H14 C15 1_555 1_555
C16 C15 1_555 1_555
C17 C16 1_555 1_555
H15 C17 1_555 1_555
C18 C17 1_555 1_555
H16 C18 1_555 1_555
C19 N2 1_555 1_555
H17 C19 1_555 1_555
C20 N2 1_555 1_555
C21 N1 1_555 1_555
O1 Cd1 1_555 1_555
O2 P1 1_555 1_555
O3 C9 1_555 1_555
O4 C9 1_555 1_555
Cd1_2 O2 1_555 1_555
Cd1B O3 1_555 1_555
O2_2 Cd1 1_555 1_555
O3B Cd1 1_555 1_555
O4B Cd1 1_555 1_555
P1 O1 1_555 1_555
C5 C6 1_555 1_555
C13 C21 1_555 1_555
C16 C20 1_555 1_555
C18 C19 1_555 1_555
C20 C21 1_555 1_555
O4 Cd1B 1_555 1_555

#END
