
#######################################################################
#
#                 Cambridge Crystallographic Data Centre
#                                CCDC 
#
#######################################################################
#
# If this CIF has been generated from an entry in the Cambridge 
# Structural Database, then it will include bibliographic, chemical, 
# crystal, experimental, refinement or atomic coordinate data resulting 
# from the CCDC's data processing and validation procedures.
#
#######################################################################

data_NIDMEU
_symmetry_cell_setting           monoclinic
_symmetry_space_group_name_H-M   'P 21/c'
_symmetry_Int_Tables_number      14
_space_group_name_Hall           '-P 2ybc'
loop_
_symmetry_equiv_pos_site_id
_symmetry_equiv_pos_as_xyz
1 x,y,z
2 -x,1/2+y,1/2-z
3 -x,-y,-z
4 x,1/2-y,1/2+z
_cell_length_a                   8.4615(17)
_cell_length_b                   33.704(7)
_cell_length_c                   11.173(2)
_cell_angle_alpha                90
_cell_angle_beta                 91.12(3)
_cell_angle_gamma                90
_cell_volume                     3185.78
loop_
_atom_site_label
_atom_site_type_symbol
_atom_site_fract_x
_atom_site_fract_y
_atom_site_fract_z
Fe1 Fe 1.08777(5) 0.124983(12) -0.02438(3)
Fe2 Fe 0.71955(5) 0.147525(11) 0.08332(3)
N1 N 1.1891(3) 0.11649(7) 0.1479(2)
N2 N 1.2792(3) 0.16314(7) -0.0254(2)
N3 N 1.1419(3) 0.12733(7) -0.1999(2)
N4 N 0.9953(3) 0.07035(7) -0.0888(2)
N5 N 0.7958(3) 0.20366(7) 0.1658(2)
N6 N 0.7663(3) 0.13294(7) 0.2615(2)
N7 N 0.6163(3) 0.09198(7) 0.1008(2)
N8 N 0.6403(3) 0.13035(7) -0.1001(2)
O1 O 0.9127(2) 0.14895(6) 0.01521(17)
O2 O 1.1508(3) 0.09044(7) -0.37502(19)
O3 O 1.5103(2) 0.17985(6) 0.07869(18)
O4 O 0.4195(3) 0.05157(7) 0.01740(19)
O5 O 0.8691(3) 0.15669(6) 0.44344(18)
C1 C 1.1254(4) 0.09558(9) 0.2374(3)
H1 H 1.0386 0.0794 0.2208
C2 C 1.1849(4) 0.09736(10) 0.3534(3)
H2 H 1.1401 0.0823 0.4137
C3 C 1.3124(4) 0.12195(11) 0.3782(3)
H3 H 1.3544 0.1236 0.4556
C4 C 1.3771(4) 0.14411(10) 0.2867(3)
H4 H 1.4621 0.1610 0.3018
C5 C 1.3127(3) 0.14058(9) 0.1726(3)
C6 C 1.3119(3) 0.17987(8) -0.1382(3)
C7 C 1.3995(4) 0.21405(9) -0.1599(3)
H5 H 1.4512 0.2270 -0.0969
C8 C 1.4095(4) 0.22867(10) -0.2754(3)
H6 H 1.4677 0.2515 -0.2898
C9 C 1.3334(4) 0.20939(10) -0.3695(3)
H7 H 1.3413 0.2194 -0.4468
C10 C 1.2457(4) 0.17541(9) -0.3498(3)
H8 H 1.1940 0.1628 -0.4135
C11 C 1.2347(3) 0.16008(9) -0.2347(3)
C12 C 1.1096(4) 0.09633(9) -0.2714(3)
C13 C 1.0120(4) 0.06547(9) -0.2080(3)
C14 C 0.9394(4) 0.03481(10) -0.2702(3)
H9 H 0.9567 0.0313 -0.3515
C15 C 0.8411(4) 0.00959(10) -0.2096(4)
H10 H 0.7887 -0.0108 -0.2501
C16 C 0.8208(4) 0.01468(9) -0.0887(4)
H11 H 0.7543 -0.0020 -0.0467
C17 C 0.9011(4) 0.04506(9) -0.0309(3)
H12 H 0.8893 0.0481 0.0512
C18 C 0.8096(4) 0.23863(9) 0.1097(3)
H13 H 0.7627 0.2417 0.0344
C19 C 0.8909(4) 0.27017(9) 0.1600(3)
H14 H 0.8988 0.2942 0.1195
C20 C 0.9610(4) 0.26520(9) 0.2727(3)
H15 H 1.0168 0.2859 0.3087
C21 C 0.9466(4) 0.22916(9) 0.3305(3)
H16 H 0.9933 0.2252 0.4056
C22 C 0.8615(3) 0.19900(8) 0.2748(2)
C23 C 0.8331(3) 0.15981(9) 0.3357(3)
C24 C 0.7203(3) 0.09489(8) 0.3000(2)
C25 C 0.7546(4) 0.07740(9) 0.4110(3)
H17 H 0.8128 0.0913 0.4685
C26 C 0.7020(4) 0.03933(10) 0.4356(3)
H18 H 0.7244 0.0281 0.5101
C27 C 0.6168(5) 0.01793(10) 0.3508(3)
H19 H 0.5814 -0.0075 0.3686
C28 C 0.5840(4) 0.03438(9) 0.2385(3)
H20 H 0.5285 0.0198 0.1810
C29 C 0.6347(3) 0.07289(8) 0.2125(3)
C30 C 0.5204(4) 0.07778(8) 0.0127(3)
C31 C 0.5494(3) 0.09771(8) -0.1052(2)
C32 C 0.4961(4) 0.08167(9) -0.2122(3)
H21 H 0.4296 0.0597 -0.2130
C33 C 0.5431(4) 0.09870(9) -0.3179(3)
H22 H 0.5106 0.0879 -0.3910
C34 C 0.6391(4) 0.13195(10) -0.3143(3)
H23 H 0.6736 0.1437 -0.3844
C35 C 0.6826(4) 0.14741(9) -0.2027(3)
H24 H 0.7433 0.1704 -0.1995
C36 C 1.3749(3) 0.16352(8) 0.0685(3)
Fe2_2 Fe 1.71955(5) 0.147525(11) 0.08332(3)
O3_2 O 0.5103(2) 0.17985(6) 0.07869(18)
loop_
_geom_bond_atom_site_label_1
_geom_bond_atom_site_label_2
_geom_bond_site_symmetry_1
_geom_bond_site_symmetry_2
Fe1 N1 1_555 1_555
Fe2 N5 1_555 1_555
N1 C1 1_555 1_555
N2 Fe1 1_555 1_555
N3 Fe1 1_555 1_555
N4 Fe1 1_555 1_555
N5 C18 1_555 1_555
N6 Fe2 1_555 1_555
N7 Fe2 1_555 1_555
N8 Fe2 1_555 1_555
O1 Fe1 1_555 1_555
O2 C12 1_555 1_555
O3 C36 1_555 1_555
O4 C30 1_555 1_555
O5 C23 1_555 1_555
C1 H1 1_555 1_555
C2 C1 1_555 1_555
H2 C2 1_555 1_555
C3 C2 1_555 1_555
H3 C3 1_555 1_555
C4 C3 1_555 1_555
H4 C4 1_555 1_555
C5 N1 1_555 1_555
C6 N2 1_555 1_555
C7 C6 1_555 1_555
H5 C7 1_555 1_555
C8 C7 1_555 1_555
H6 C8 1_555 1_555
C9 C8 1_555 1_555
H7 C9 1_555 1_555
C10 C9 1_555 1_555
H8 C10 1_555 1_555
C11 N3 1_555 1_555
C12 N3 1_555 1_555
C13 N4 1_555 1_555
C14 C13 1_555 1_555
H9 C14 1_555 1_555
C15 C14 1_555 1_555
H10 C15 1_555 1_555
C16 C15 1_555 1_555
H11 C16 1_555 1_555
C17 N4 1_555 1_555
H12 C17 1_555 1_555
C18 H13 1_555 1_555
C19 C18 1_555 1_555
H14 C19 1_555 1_555
C20 C19 1_555 1_555
H15 C20 1_555 1_555
C21 C20 1_555 1_555
H16 C21 1_555 1_555
C22 N5 1_555 1_555
C23 N6 1_555 1_555
C24 N6 1_555 1_555
C25 C24 1_555 1_555
H17 C25 1_555 1_555
C26 C25 1_555 1_555
H18 C26 1_555 1_555
C27 C26 1_555 1_555
H19 C27 1_555 1_555
C28 C27 1_555 1_555
H20 C28 1_555 1_555
C29 N7 1_555 1_555
C30 N7 1_555 1_555
C31 N8 1_555 1_555
C32 C31 1_555 1_555
H21 C32 1_555 1_555
C33 C32 1_555 1_555
H22 C33 1_555 1_555
C34 C33 1_555 1_555
H23 C34 1_555 1_555
C35 N8 1_555 1_555
H24 C35 1_555 1_555
C36 N2 1_555 1_555
Fe2_2 O3 1_555 1_555
O3_2 Fe2 1_555 1_555
Fe2 O1 1_555 1_555
C4 C5 1_555 1_555
C5 C36 1_555 1_555
C6 C11 1_555 1_555
C10 C11 1_555 1_555
C12 C13 1_555 1_555
C16 C17 1_555 1_555
C21 C22 1_555 1_555
C22 C23 1_555 1_555
C24 C29 1_555 1_555
C28 C29 1_555 1_555
C30 C31 1_555 1_555
C34 C35 1_555 1_555

#END
