
#######################################################################
#
#                 Cambridge Crystallographic Data Centre
#                                CCDC 
#
#######################################################################
#
# If this CIF has been generated from an entry in the Cambridge 
# Structural Database, then it will include bibliographic, chemical, 
# crystal, experimental, refinement or atomic coordinate data resulting 
# from the CCDC's data processing and validation procedures.
#
#######################################################################

data_NIDMAQ
_symmetry_cell_setting           triclinic
_symmetry_space_group_name_H-M   'P -1'
_symmetry_Int_Tables_number      2
_space_group_name_Hall           '-P 1'
loop_
_symmetry_equiv_pos_site_id
_symmetry_equiv_pos_as_xyz
1 x,y,z
2 -x,-y,-z
_cell_length_a                   9.0303(12)
_cell_length_b                   10.0796(13)
_cell_length_c                   12.7966(17)
_cell_angle_alpha                99.268(2)
_cell_angle_beta                 94.490(2)
_cell_angle_gamma                103.722(3)
_cell_volume                     1108.48
loop_
_atom_site_label
_atom_site_type_symbol
_atom_site_fract_x
_atom_site_fract_y
_atom_site_fract_z
Ni1 Ni 1.0000 0.0000 1.0000
Ni2 Ni 1.25412(5) -0.04166(4) 1.22890(3)
C1 C 1.1064(4) 0.3490(3) 1.5364(3)
C2 C 0.9880(4) 0.3588(3) 1.5975(3)
H1 H 0.9014 0.2846 1.5890
C3 C 0.9974(4) 0.4777(3) 1.6710(3)
H2 H 0.9154 0.4829 1.7098
C4 C 1.1240(4) 0.5886(3) 1.6883(2)
C5 C 1.2445(4) 0.5783(3) 1.6270(3)
H3 H 1.3318 0.6519 1.6364
C6 C 1.2346(4) 0.4609(3) 1.5535(3)
H4 H 1.3159 0.4560 1.5139
C7 C 1.0981(4) 0.2254(3) 1.4564(2)
C8 C 1.2080(4) 0.1839(3) 1.4013(3)
H5 H 1.3109 0.2322 1.4097
C9 C 0.9991(4) 0.0290(3) 1.3454(3)
H6 H 0.9281 -0.0503 1.3080
C10 C 1.1338(3) 0.7126(3) 1.7668(2)
C11 C 1.0292(4) 0.7552(3) 1.8274(2)
H7 H 0.9285 0.7040 1.8261
C12 C 1.2353(4) 0.9177(3) 1.8675(3)
H8 H 1.3067 1.0002 1.8988
C13 C 0.7417(4) -0.4409(3) 1.1191(3)
C14 C 0.6917(4) -0.3533(3) 1.1950(3)
H9 H 0.7553 -0.2659 1.2238
C15 C 0.5481(4) -0.3935(3) 1.2290(3)
C16 C 0.4564(4) -0.5235(3) 1.1867(3)
H10 H 0.3609 -0.5516 1.2102
C17 C 0.5020(4) -0.6139(3) 1.1102(3)
C18 C 0.6446(4) -0.5710(3) 1.0762(3)
H11 H 0.6760 -0.6301 1.0239
C19 C 0.8986(4) -0.4031(3) 1.0828(3)
H12 H 0.8878 -0.4284 1.0057
H13 H 0.9609 -0.4580 1.1117
C20 C 0.9829(3) -0.2509(3) 1.1150(3)
C21 C 0.4982(4) -0.2951(3) 1.3118(3)
H14 H 0.5868 -0.2463 1.3632
H15 H 0.4241 -0.3493 1.3494
C22 C 0.4284(4) -0.1890(3) 1.2709(3)
C23 C 0.3964(4) -0.7520(3) 1.0588(3)
H16 H 0.3067 -0.7350 1.0219
H17 H 0.4484 -0.7962 1.0051
C24 C 0.3424(3) -0.8527(3) 1.1300(3)
N1 N 1.1452(3) 0.0611(3) 1.3321(2)
N2 N 0.9640(3) 0.1235(3) 1.4192(2)
N3 N 1.0926(3) 0.8832(3) 1.8902(2)
N4 N 1.2653(3) 0.8195(3) 1.7938(2)
O1 O 1.0959(3) -0.2206(2) 1.18476(18)
O2 O 0.9316(2) -0.1685(2) 1.06961(19)
O3 O 0.3729(3) -0.1134(2) 1.34030(18)
O4 O 0.4218(3) -0.1727(2) 1.17769(19)
O5 O 0.2166(2) -0.9452(2) 1.10086(16)
O6 O 0.4202(2) -0.8547(2) 1.21513(17)
Ni2A Ni -0.25412(5) -0.95834(4) 0.77110(3)
C1A C -0.1064(4) -1.3490(3) 0.4636(3)
C2A C 0.0120(4) -1.3588(3) 0.4025(3)
H1A H 0.0986 -1.2846 0.4110
C3A C 0.0026(4) -1.4777(3) 0.3290(3)
H2A H 0.0846 -1.4829 0.2902
C4A C -0.1240(4) -1.5886(3) 0.3117(2)
C5A C -0.2445(4) -1.5783(3) 0.3730(3)
H3A H -0.3318 -1.6519 0.3636
C6A C -0.2346(4) -1.4609(3) 0.4465(3)
H4A H -0.3159 -1.4560 0.4861
C7A C -0.0981(4) -1.2254(3) 0.5436(2)
C8A C -0.2080(4) -1.1839(3) 0.5987(3)
H5A H -0.3109 -1.2322 0.5903
C9A C 0.0009(4) -1.0290(3) 0.6546(3)
H6A H 0.0719 -0.9497 0.6920
C10A C -0.1338(3) -1.7126(3) 0.2332(2)
C11A C -0.0292(4) -1.7552(3) 0.1726(2)
H7A H 0.0715 -1.7040 0.1739
C12A C -0.2353(4) -1.9177(3) 0.1325(3)
H8A H -0.3067 -2.0002 0.1012
C13A C 0.2583(4) -0.5591(3) 0.8809(3)
C14A C 0.3083(4) -0.6467(3) 0.8050(3)
H9A H 0.2447 -0.7341 0.7762
C15A C 0.4519(4) -0.6065(3) 0.7710(3)
C16A C 0.5436(4) -0.4765(3) 0.8133(3)
H10A H 0.6391 -0.4484 0.7898
C17A C 0.4980(4) -0.3861(3) 0.8898(3)
C18A C 0.3554(4) -0.4290(3) 0.9238(3)
H11A H 0.3240 -0.3699 0.9761
C19A C 0.1014(4) -0.5969(3) 0.9172(3)
H12A H 0.1122 -0.5716 0.9943
H13A H 0.0391 -0.5420 0.8883
C20A C 0.0171(3) -0.7491(3) 0.8850(3)
C21A C 0.5018(4) -0.7049(3) 0.6882(3)
H14A H 0.4132 -0.7537 0.6368
H15A H 0.5759 -0.6507 0.6506
C22A C 0.5716(4) -0.8110(3) 0.7291(3)
C23A C 0.6036(4) -0.2480(3) 0.9412(3)
H16A H 0.6933 -0.2650 0.9781
H17A H 0.5516 -0.2038 0.9949
C24A C 0.6576(3) -0.1473(3) 0.8700(3)
N1A N -0.1452(3) -1.0611(3) 0.6679(2)
N2A N 0.0360(3) -1.1235(3) 0.5808(2)
N3A N -0.0926(3) -1.8832(3) 0.1098(2)
N4A N -0.2653(3) -1.8195(3) 0.2062(2)
O1A O -0.0959(3) -0.7794(2) 0.81524(18)
O2A O 0.0684(2) -0.8315(2) 0.93039(19)
O3A O 0.6271(3) -0.8866(2) 0.65970(18)
O4A O 0.5782(3) -0.8273(2) 0.82231(19)
O5A O 0.7834(2) -0.0548(2) 0.89914(16)
O6A O 0.5798(2) -0.1453(2) 0.78487(17)
Ni1_2 Ni 0.0000 -2.0000 0.0000
Ni1_3 Ni 0.0000 -1.0000 1.0000
Ni1_4 Ni 1.0000 1.0000 2.0000
Ni2_2 Ni 0.25412(5) -1.04166(4) 1.22890(3)
Ni2_3 Ni 0.25412(5) -0.04166(4) 1.22890(3)
Ni2A_2 Ni 0.74588(5) -0.95834(4) 0.77110(3)
Ni2A_3 Ni 0.74588(5) 0.04166(4) 0.77110(3)
N3_2 N 1.0926(3) -0.1168(3) 0.8902(2)
N3A_2 N 0.9074(3) 0.1168(3) 1.1098(2)
O2A_2 O 1.0684(2) 0.1685(2) 0.93039(19)
O3_2 O 1.3729(3) -0.1134(2) 1.34030(18)
O3A_2 O -0.3729(3) -0.8866(2) 0.65970(18)
O4_2 O 1.4218(3) -0.1727(2) 1.17769(19)
O4A_2 O -0.4218(3) -0.8273(2) 0.82231(19)
O5_2 O 1.2166(2) 0.0548(2) 1.10086(16)
O5A_2 O -0.2166(2) -1.0548(2) 0.89914(16)
O6_2 O 1.4202(2) 0.1453(2) 1.21513(17)
O6A_2 O -0.4202(2) -1.1453(2) 0.78487(17)
O7 O 0.6541(4) 0.1037(4) 1.4471(3)
H18 H 0.637(4) 0.107(4) 1.511(3)
H19 H 0.593(6) 0.052(5) 1.416(4)
loop_
_geom_bond_atom_site_label_1
_geom_bond_atom_site_label_2
_geom_bond_site_symmetry_1
_geom_bond_site_symmetry_2
Ni1 O2 1_555 1_555
Ni2 N1 1_555 1_555
C1 C2 1_555 1_555
C2 H1 1_555 1_555
C3 C2 1_555 1_555
H2 C3 1_555 1_555
C4 C3 1_555 1_555
C5 C4 1_555 1_555
H3 C5 1_555 1_555
C6 C1 1_555 1_555
H4 C6 1_555 1_555
C7 C1 1_555 1_555
C8 C7 1_555 1_555
H5 C8 1_555 1_555
C9 H6 1_555 1_555
C10 C4 1_555 1_555
C11 C10 1_555 1_555
H7 C11 1_555 1_555
C12 H8 1_555 1_555
C13 C14 1_555 1_555
C14 H9 1_555 1_555
C15 C14 1_555 1_555
C16 C15 1_555 1_555
H10 C16 1_555 1_555
C17 C16 1_555 1_555
C18 C13 1_555 1_555
H11 C18 1_555 1_555
C19 C13 1_555 1_555
H12 C19 1_555 1_555
H13 C19 1_555 1_555
C20 C19 1_555 1_555
C21 C15 1_555 1_555
H14 C21 1_555 1_555
H15 C21 1_555 1_555
C22 C21 1_555 1_555
C23 C17 1_555 1_555
H16 C23 1_555 1_555
H17 C23 1_555 1_555
C24 C23 1_555 1_555
N1 C8 1_555 1_555
N2 C7 1_555 1_555
N3 C11 1_555 1_555
N4 C10 1_555 1_555
O1 Ni2 1_555 1_555
O2 C20 1_555 1_555
O3 C22 1_555 1_555
O4 C22 1_555 1_555
O5 C24 1_555 1_555
O6 C24 1_555 1_555
O7 H18 1_555 1_555
H19 O7 1_555 1_555
Ni2A N1A 1_555 1_555
C1A C2A 1_555 1_555
C2A H1A 1_555 1_555
C3A C2A 1_555 1_555
H2A C3A 1_555 1_555
C4A C3A 1_555 1_555
C5A C4A 1_555 1_555
H3A C5A 1_555 1_555
C6A C1A 1_555 1_555
H4A C6A 1_555 1_555
C7A C1A 1_555 1_555
C8A C7A 1_555 1_555
H5A C8A 1_555 1_555
C9A H6A 1_555 1_555
C10A C4A 1_555 1_555
C11A C10A 1_555 1_555
H7A C11A 1_555 1_555
C12A H8A 1_555 1_555
C13A C14A 1_555 1_555
C14A H9A 1_555 1_555
C15A C14A 1_555 1_555
C16A C15A 1_555 1_555
H10A C16A 1_555 1_555
C17A C16A 1_555 1_555
C18A C13A 1_555 1_555
H11A C18A 1_555 1_555
C19A C13A 1_555 1_555
H12A C19A 1_555 1_555
H13A C19A 1_555 1_555
C20A C19A 1_555 1_555
C21A C15A 1_555 1_555
H14A C21A 1_555 1_555
H15A C21A 1_555 1_555
C22A C21A 1_555 1_555
C23A C17A 1_555 1_555
H16A C23A 1_555 1_555
H17A C23A 1_555 1_555
C24A C23A 1_555 1_555
N1A C8A 1_555 1_555
N2A C7A 1_555 1_555
N3A C11A 1_555 1_555
N4A C10A 1_555 1_555
O1A Ni2A 1_555 1_555
O2A C20A 1_555 1_555
O3A C22A 1_555 1_555
O4A C22A 1_555 1_555
O5A Ni1 1_555 1_555
O6A C24A 1_555 1_555
Ni1_2 N3A 1_555 1_555
Ni1_3 O5 1_555 1_555
Ni1_4 N3 1_555 1_555
Ni2_2 O5 1_555 1_555
Ni2_3 O3 1_555 1_555
Ni2A_2 O3A 1_555 1_555
Ni2A_3 O5A 1_555 1_555
N3_2 Ni1 1_555 1_555
N3A_2 Ni1 1_555 1_555
O2A_2 Ni1 1_555 1_555
O3_2 Ni2 1_555 1_555
O3A_2 Ni2A 1_555 1_555
O4_2 Ni2 1_555 1_555
O4A_2 Ni2A 1_555 1_555
O5_2 Ni1 1_555 1_555
O5A_2 Ni2A 1_555 1_555
O6_2 Ni2 1_555 1_555
O6A_2 Ni2A 1_555 1_555
Ni2 O5_2 1_555 1_555
C5 C6 1_555 1_555
C9 N1 1_555 1_555
C9 N2 1_555 1_555
C12 N3 1_555 1_555
C12 N4 1_555 1_555
C17 C18 1_555 1_555
C20 O1 1_555 1_555
O4 Ni2_3 1_555 1_555
O6 Ni2_2 1_555 1_555
C5A C6A 1_555 1_555
C9A N1A 1_555 1_555
C9A N2A 1_555 1_555
C12A N3A 1_555 1_555
C12A N4A 1_555 1_555
C17A C18A 1_555 1_555
C20A O1A 1_555 1_555
C24A O5A 1_555 1_555
O2A Ni1_3 1_555 1_555
O4A Ni2A_2 1_555 1_555
O6A Ni2A_3 1_555 1_555
Ni1_3 O5A_2 1_555 1_555

#END
