
#######################################################################
#
#                 Cambridge Crystallographic Data Centre
#                                CCDC 
#
#######################################################################
#
# If this CIF has been generated from an entry in the Cambridge 
# Structural Database, then it will include bibliographic, chemical, 
# crystal, experimental, refinement or atomic coordinate data resulting 
# from the CCDC's data processing and validation procedures.
#
#######################################################################

data_NIDQEY
_symmetry_cell_setting           triclinic
_symmetry_space_group_name_H-M   'P -1'
_symmetry_Int_Tables_number      2
_space_group_name_Hall           '-P 1'
loop_
_symmetry_equiv_pos_site_id
_symmetry_equiv_pos_as_xyz
1 x,y,z
2 -x,-y,-z
_cell_length_a                   10.3072(6)
_cell_length_b                   10.8675(7)
_cell_length_c                   11.3983(8)
_cell_angle_alpha                107.759(6)
_cell_angle_beta                 91.886(5)
_cell_angle_gamma                112.878(6)
_cell_volume                     1103.45
loop_
_atom_site_label
_atom_site_type_symbol
_atom_site_fract_x
_atom_site_fract_y
_atom_site_fract_z
Sm1 Sm 0.58662(3) 0.49616(2) 0.32954(2)
O1 O 0.6960(4) 0.7028(4) 0.0896(4)
O2 O 0.7379(3) 0.6930(3) 0.2782(3)
O3 O 0.5877(4) 0.3076(4) 0.3989(3)
O4 O 0.5302(4) 0.3609(4) 0.5889(4)
O5 O 1.3439(4) 1.3189(3) 0.2682(4)
O6 O 1.2970(4) 1.3629(4) 0.4619(3)
O7 O 0.4606(4) 0.5082(4) 0.1439(3)
H1 H 0.411(5) 0.4304(19) 0.086(2)
H2 H 0.513(3) 0.568(4) 0.112(3)
N1 N 0.6148(5) 0.3131(4) 0.1333(4)
N2 N 0.8438(5) 0.5013(5) 0.3146(5)
C1 C 0.7682(5) 0.7516(5) 0.1963(5)
C2 C 0.8983(5) 0.8897(5) 0.2328(5)
C3 C 0.9950(5) 0.9335(5) 0.3404(5)
H3 H 0.9797 0.8755 0.3886
C4 C 0.9259(5) 0.9753(5) 0.1599(5)
H4 H 0.8635 0.9470 0.0864
C5 C 0.5495(5) 0.2794(5) 0.4938(5)
C6 C 0.5247(5) 0.1339(5) 0.4972(4)
C7 C 0.5668(6) 0.0442(5) 0.4080(5)
H5 H 0.6114 0.0736 0.3456
C8 C 0.4574(6) 0.0884(5) 0.5883(5)
H6 H 0.4280 0.1477 0.6477
C9 C 1.2704(5) 1.2876(5) 0.3484(5)
C10 C 1.1389(5) 1.1482(5) 0.3065(4)
C11 C 1.1133(5) 1.0617(5) 0.3769(5)
H7 H 1.1765 1.0898 0.4500
C12 C 1.0463(6) 1.1027(5) 0.1967(5)
H8 H 1.0651 1.1588 0.1465
C13 C 0.5031(7) 0.2155(7) 0.0470(6)
H9 H 0.4120 0.2027 0.0637
C14 C 0.5161(9) 0.1317(8) -0.0671(7)
H10 H 0.4346 0.0644 -0.1247
C15 C 0.6471(9) 0.1474(9) -0.0950(7)
H11 H 0.6560 0.0923 -0.1721
C16 C 0.7682(8) 0.2467(8) -0.0074(7)
C17 C 0.7476(7) 0.3280(6) 0.1075(6)
C18 C 0.9124(9) 0.2736(10) -0.0253(8)
H12 H 0.9280 0.2227 -0.1011
C19 C 1.0231(9) 0.3671(9) 0.0609(8)
H13 H 1.1145 0.3823 0.0435
C20 C 1.0075(7) 0.4462(8) 0.1809(8)
C21 C 0.8691(6) 0.4298(7) 0.2043(6)
C22 C 1.1210(7) 0.5417(9) 0.2764(9)
H14 H 1.2142 0.5582 0.2644
C23 C 1.0954(7) 0.6113(8) 0.3877(9)
H15 H 1.1711 0.6729 0.4533
C24 C 0.9555(6) 0.5905(7) 0.4038(7)
H16 H 0.9404 0.6411 0.4799
O3A O 0.4123(4) -0.3076(4) 0.6011(3)
O4A O 0.4698(4) -0.3609(4) 0.4111(4)
C5A C 0.4505(5) -0.2794(5) 0.5062(5)
C6A C 0.4753(5) -0.1339(5) 0.5028(4)
C7A C 0.4332(6) -0.0442(5) 0.5920(5)
H5A H 0.3886 -0.0736 0.6544
C8A C 0.5426(6) -0.0884(5) 0.4117(5)
H6A H 0.5720 -0.1477 0.3523
Sm1A Sm 0.41338(3) -0.49616(2) 0.67046(2)
O1A O 0.3040(4) -0.7028(4) 0.9104(4)
O2A O 0.2621(3) -0.6930(3) 0.7218(3)
O5A O -0.3439(4) -1.3189(3) 0.7318(4)
O6A O -0.2970(4) -1.3629(4) 0.5381(3)
O7A O 0.5394(4) -0.5082(4) 0.8561(3)
H1A H 0.589(5) -0.4304(19) 0.914(2)
H2A H 0.487(3) -0.568(4) 0.888(3)
N1A N 0.3852(5) -0.3131(4) 0.8667(4)
N2A N 0.1562(5) -0.5013(5) 0.6854(5)
C1A C 0.2318(5) -0.7516(5) 0.8037(5)
C2A C 0.1017(5) -0.8897(5) 0.7672(5)
C3A C 0.0050(5) -0.9335(5) 0.6596(5)
H3A H 0.0203 -0.8755 0.6114
C4A C 0.0741(5) -0.9753(5) 0.8401(5)
H4A H 0.1365 -0.9470 0.9136
C9A C -0.2704(5) -1.2876(5) 0.6516(5)
C10A C -0.1389(5) -1.1482(5) 0.6935(4)
C11A C -0.1133(5) -1.0617(5) 0.6231(5)
H7A H -0.1765 -1.0898 0.5500
C12A C -0.0463(6) -1.1027(5) 0.8033(5)
H8A H -0.0651 -1.1588 0.8535
C13A C 0.4969(7) -0.2155(7) 0.9530(6)
H9A H 0.5880 -0.2027 0.9363
C14A C 0.4839(9) -0.1317(8) 1.0671(7)
H10A H 0.5654 -0.0644 1.1247
C15A C 0.3529(9) -0.1474(9) 1.0950(7)
H11A H 0.3440 -0.0923 1.1721
C16A C 0.2318(8) -0.2467(8) 1.0074(7)
C17A C 0.2524(7) -0.3280(6) 0.8925(6)
C18A C 0.0876(9) -0.2736(10) 1.0253(8)
H12A H 0.0720 -0.2227 1.1011
C19A C -0.0231(9) -0.3671(9) 0.9391(8)
H13A H -0.1145 -0.3823 0.9565
C20A C -0.0075(7) -0.4462(8) 0.8191(8)
C21A C 0.1309(6) -0.4298(7) 0.7957(6)
C22A C -0.1210(7) -0.5417(9) 0.7236(9)
H14A H -0.2142 -0.5582 0.7356
C23A C -0.0954(7) -0.6113(8) 0.6123(9)
H15A H -0.1711 -0.6729 0.5467
C24A C 0.0445(6) -0.5905(7) 0.5962(7)
H16A H 0.0596 -0.6411 0.5201
Sm1_2 Sm -0.41338(3) -1.50384(2) 0.32954(2)
Sm1_3 Sm 0.58662(3) -0.50384(2) 0.32954(2)
Sm1_4 Sm 1.58662(3) 1.49616(2) 0.32954(2)
Sm1A_2 Sm -0.58662(3) -1.49616(2) 0.67046(2)
Sm1A_3 Sm 0.41338(3) 0.50384(2) 0.67046(2)
Sm1A_4 Sm 1.41338(3) 1.50384(2) 0.67046(2)
O4_2 O 0.5302(4) -0.6391(4) 0.5889(4)
O4A_2 O 0.4698(4) 0.6391(4) 0.4111(4)
O5_2 O 0.3439(4) 0.3189(3) 0.2682(4)
O5A_2 O 0.6561(4) -0.3189(3) 0.7318(4)
O6_2 O 0.2970(4) -0.6371(4) 0.4619(3)
O6A_2 O 0.7030(4) 0.6371(4) 0.5381(3)
loop_
_geom_bond_atom_site_label_1
_geom_bond_atom_site_label_2
_geom_bond_site_symmetry_1
_geom_bond_site_symmetry_2
Sm1 O2 1_555 1_555
O1 C1 1_555 1_555
O2 C1 1_555 1_555
O3 Sm1 1_555 1_555
O4 C5 1_555 1_555
O5 C9 1_555 1_555
O6 C9 1_555 1_555
O7 Sm1 1_555 1_555
H1 O7 1_555 1_555
H2 O7 1_555 1_555
N1 Sm1 1_555 1_555
N2 Sm1 1_555 1_555
C1 C2 1_555 1_555
C2 C3 1_555 1_555
C3 H3 1_555 1_555
C4 C2 1_555 1_555
H4 C4 1_555 1_555
C5 O3 1_555 1_555
C6 C5 1_555 1_555
C7 C6 1_555 1_555
H5 C7 1_555 1_555
C8 C6 1_555 1_555
H6 C8 1_555 1_555
C9 C10 1_555 1_555
C10 C11 1_555 1_555
C11 C3 1_555 1_555
H7 C11 1_555 1_555
C12 C4 1_555 1_555
H8 C12 1_555 1_555
C13 N1 1_555 1_555
H9 C13 1_555 1_555
C14 C13 1_555 1_555
H10 C14 1_555 1_555
C15 C14 1_555 1_555
H11 C15 1_555 1_555
C16 C15 1_555 1_555
C17 N1 1_555 1_555
C18 C16 1_555 1_555
H12 C18 1_555 1_555
C19 C18 1_555 1_555
H13 C19 1_555 1_555
C20 C19 1_555 1_555
C21 N2 1_555 1_555
C22 C20 1_555 1_555
H14 C22 1_555 1_555
C23 C22 1_555 1_555
H15 C23 1_555 1_555
C24 N2 1_555 1_555
H16 C24 1_555 1_555
O3A C5A 1_555 1_555
O4A C5A 1_555 1_555
C5A C6A 1_555 1_555
C6A C7A 1_555 1_555
C7A C8 1_555 1_555
H5A C7A 1_555 1_555
C8A C7 1_555 1_555
H6A C8A 1_555 1_555
Sm1A O3A 1_555 1_555
O1A C1A 1_555 1_555
O2A Sm1A 1_555 1_555
O5A C9A 1_555 1_555
O6A C9A 1_555 1_555
O7A Sm1A 1_555 1_555
H1A O7A 1_555 1_555
H2A O7A 1_555 1_555
N1A Sm1A 1_555 1_555
N2A Sm1A 1_555 1_555
C1A O2A 1_555 1_555
C2A C1A 1_555 1_555
C3A C2A 1_555 1_555
H3A C3A 1_555 1_555
C4A C2A 1_555 1_555
H4A C4A 1_555 1_555
C9A C10A 1_555 1_555
C10A C11A 1_555 1_555
C11A C3A 1_555 1_555
H7A C11A 1_555 1_555
C12A C4A 1_555 1_555
H8A C12A 1_555 1_555
C13A N1A 1_555 1_555
H9A C13A 1_555 1_555
C14A C13A 1_555 1_555
H10A C14A 1_555 1_555
C15A C14A 1_555 1_555
H11A C15A 1_555 1_555
C16A C15A 1_555 1_555
C17A N1A 1_555 1_555
C18A C16A 1_555 1_555
H12A C18A 1_555 1_555
C19A C18A 1_555 1_555
H13A C19A 1_555 1_555
C20A C19A 1_555 1_555
C21A N2A 1_555 1_555
C22A C20A 1_555 1_555
H14A C22A 1_555 1_555
C23A C22A 1_555 1_555
H15A C23A 1_555 1_555
C24A N2A 1_555 1_555
H16A C24A 1_555 1_555
Sm1_2 O6A 1_555 1_555
Sm1_3 O4A 1_555 1_555
Sm1_4 O5 1_555 1_555
Sm1A_2 O5A 1_555 1_555
Sm1A_3 O4 1_555 1_555
Sm1A_4 O6 1_555 1_555
O4_2 Sm1A 1_555 1_555
O4A_2 Sm1 1_555 1_555
O5_2 Sm1 1_555 1_555
O5A_2 Sm1A 1_555 1_555
O6_2 Sm1A 1_555 1_555
O6A_2 Sm1 1_555 1_555
C10 C12 1_555 1_555
C16 C17 1_555 1_555
C17 C21 1_555 1_555
C20 C21 1_555 1_555
C23 C24 1_555 1_555
C6A C8A 1_555 1_555
C10A C12A 1_555 1_555
C16A C17A 1_555 1_555
C17A C21A 1_555 1_555
C20A C21A 1_555 1_555
C23A C24A 1_555 1_555

#END
