
#######################################################################
#
#                 Cambridge Crystallographic Data Centre
#                                CCDC 
#
#######################################################################
#
# If this CIF has been generated from an entry in the Cambridge 
# Structural Database, then it will include bibliographic, chemical, 
# crystal, experimental, refinement or atomic coordinate data resulting 
# from the CCDC's data processing and validation procedures.
#
#######################################################################

data_NIDRIB
_symmetry_cell_setting           triclinic
_symmetry_space_group_name_H-M   'P -1'
_symmetry_Int_Tables_number      2
_space_group_name_Hall           '-P 1'
loop_
_symmetry_equiv_pos_site_id
_symmetry_equiv_pos_as_xyz
1 x,y,z
2 -x,-y,-z
_cell_length_a                   7.7750(5)
_cell_length_b                   8.1044(7)
_cell_length_c                   11.6240(9)
_cell_angle_alpha                70.474(8)
_cell_angle_beta                 81.000(8)
_cell_angle_gamma                89.478(8)
_cell_volume                     681.092
loop_
_atom_site_label
_atom_site_type_symbol
_atom_site_fract_x
_atom_site_fract_y
_atom_site_fract_z
Cu1 Cu 0.57385(4) 0.34553(4) 0.10806(3)
O1 O 0.5307(2) 0.3637(2) -0.05305(15)
N1 N 0.3716(3) 0.1928(3) 0.19297(19)
C1 C 0.4331(3) 0.2488(3) -0.0764(2)
O2 O 0.6085(3) 0.3219(3) 0.27336(16)
N2 N 0.8265(3) 0.4422(3) 0.04212(18)
C2 C 0.4441(4) 0.2534(4) -0.1989(2)
H1 H 0.5211 0.3346 -0.2608
C3 C 0.3435(4) 0.1403(4) -0.2302(3)
H2 H 0.3522 0.1475 -0.3124
O3 O 0.4733(3) 0.2516(3) 0.46613(18)
C4 C 0.2298(4) 0.0162(4) -0.1395(3)
H3 H 0.1621 -0.0599 -0.1605
C5 C 0.2179(4) 0.0067(4) -0.0189(3)
H6 H 0.1428 -0.0781 0.0418
C6 C 0.3165(3) 0.1222(3) 0.0158(2)
C7 C 0.2905(4) 0.1011(4) 0.1453(2)
H9 H 0.2092 0.0149 0.1982
C8 C 0.3372(5) 0.1539(5) 0.3282(3)
H10 H 0.3516 0.0281 0.3665
C9 C 0.4824(4) 0.2496(4) 0.3595(2)
C10 C 0.1617(6) 0.1890(9) 0.3767(4)
H11 H 0.0783 0.1244 0.3536
H12 H 0.1436 0.3121 0.3432
H13 H 0.1476 0.1537 0.4652
C11 C 0.9067(3) 0.4483(3) -0.0696(2)
H14 H 0.8447 0.4134 -0.1204
C12 C 0.9214(3) 0.4950(4) 0.1115(2)
H15 H 0.8698 0.4933 0.1897
Cu1A Cu 0.42615(4) 0.65447(4) -0.10806(3)
O1A O 0.4693(2) 0.6363(2) 0.05305(15)
C12A C 1.0786(3) 0.5050(4) -0.1115(2)
N2A N 1.1735(3) 0.5578(3) -0.04212(18)
Cu1A_2 Cu 1.42615(4) 0.65447(4) -0.10806(3)
O1A_2 O 1.4693(2) 0.6363(2) 0.05305(15)
O1_2 O 1.5307(2) 0.3637(2) -0.05305(15)
N1A N 1.6284(3) 0.8072(3) -0.19297(19)
C7A C 1.7095(4) 0.8989(4) -0.1453(2)
C6A C 1.6835(3) 0.8778(3) -0.0158(2)
C1A C 1.5669(3) 0.7512(3) 0.0764(2)
Cu1_2 Cu 1.57385(4) 0.34553(4) 0.10806(3)
C2A C 1.5559(4) 0.7466(4) 0.1989(2)
H1A H 1.4789 0.6654 0.2608
C3A C 1.6565(4) 0.8597(4) 0.2302(3)
H2A H 1.6478 0.8525 0.3124
C4A C 1.7702(4) 0.9838(4) 0.1395(3)
H3A H 1.8379 1.0599 0.1605
C5A C 1.7821(4) 0.9933(4) 0.0189(3)
H6A H 1.8572 1.0781 -0.0418
H9A H 1.7908 0.9851 -0.1982
C8A C 1.6628(5) 0.8461(5) -0.3282(3)
H10A H 1.6484 0.9719 -0.3665
C9A C 1.5176(4) 0.7504(4) -0.3595(2)
O2A O 1.3915(3) 0.6781(3) -0.27336(16)
O3A O 1.5267(3) 0.7484(3) -0.46613(18)
C10A C 1.8383(6) 0.8110(9) -0.3767(4)
H11A H 1.9217 0.8756 -0.3536
H12A H 1.8564 0.6879 -0.3432
H13A H 1.8524 0.8463 -0.4652
C11A C 1.0933(3) 0.5517(3) 0.0696(2)
H14A H 1.1553 0.5866 0.1204
H15A H 1.1302 0.5067 -0.1897
O4 O 0.9349(4) 0.3167(5) -0.3191(3)
H4 H 0.859(5) 0.360(6) -0.371(4)
H5 H 1.018(5) 0.403(5) -0.351(4)
O5 O 0.7444(4) 0.4801(4) 0.4800(3)
H7 H 0.681(5) 0.400(4) 0.467(4)
H8 H 0.687(5) 0.575(4) 0.483(4)
loop_
_geom_bond_atom_site_label_1
_geom_bond_atom_site_label_2
_geom_bond_site_symmetry_1
_geom_bond_site_symmetry_2
Cu1 O1 1_555 1_555
O1 C1 1_555 1_555
N1 Cu1 1_555 1_555
C1 C2 1_555 1_555
O2 Cu1 1_555 1_555
N2 Cu1 1_555 1_555
C2 H1 1_555 1_555
C3 C2 1_555 1_555
H2 C3 1_555 1_555
O3 C9 1_555 1_555
C4 C3 1_555 1_555
H3 C4 1_555 1_555
O4 H4 1_555 1_555
H5 O4 1_555 1_555
C5 C4 1_555 1_555
H6 C5 1_555 1_555
O5 H7 1_555 1_555
H8 O5 1_555 1_555
C6 C1 1_555 1_555
C7 N1 1_555 1_555
H9 C7 1_555 1_555
C8 N1 1_555 1_555
H10 C8 1_555 1_555
C9 O2 1_555 1_555
C10 C8 1_555 1_555
H11 C10 1_555 1_555
H12 C10 1_555 1_555
H13 C10 1_555 1_555
C11 N2 1_555 1_555
H14 C11 1_555 1_555
C12 N2 1_555 1_555
H15 C12 1_555 1_555
Cu1A O1 1_555 1_555
O1A Cu1 1_555 1_555
C12A C11 1_555 1_555
N2A C12A 1_555 1_555
Cu1A_2 N2A 1_555 1_555
O1A_2 Cu1A_2 1_555 1_555
O1_2 Cu1A_2 1_555 1_555
N1A Cu1A_2 1_555 1_555
C7A N1A 1_555 1_555
C6A C7A 1_555 1_555
C1A O1A_2 1_555 1_555
Cu1_2 O1A_2 1_555 1_555
C2A C1A 1_555 1_555
H1A C2A 1_555 1_555
C3A C2A 1_555 1_555
H2A C3A 1_555 1_555
C4A C3A 1_555 1_555
H3A C4A 1_555 1_555
C5A C6A 1_555 1_555
H6A C5A 1_555 1_555
H9A C7A 1_555 1_555
C8A N1A 1_555 1_555
H10A C8A 1_555 1_555
C9A C8A 1_555 1_555
O2A Cu1A_2 1_555 1_555
O3A C9A 1_555 1_555
C10A C8A 1_555 1_555
H11A C10A 1_555 1_555
H12A C10A 1_555 1_555
H13A C10A 1_555 1_555
C11A C12 1_555 1_555
H14A C11A 1_555 1_555
H15A C12A 1_555 1_555
C5 C6 1_555 1_555
C6 C7 1_555 1_555
C8 C9 1_555 1_555
Cu1A O1A 1_555 1_555
N2A C11A 1_555 1_555
O1_2 Cu1_2 1_555 1_555
C6A C1A 1_555 1_555
C4A C5A 1_555 1_555
C9A O2A 1_555 1_555

#END
