
#######################################################################
#
#                 Cambridge Crystallographic Data Centre
#                                CCDC 
#
#######################################################################
#
# If this CIF has been generated from an entry in the Cambridge 
# Structural Database, then it will include bibliographic, chemical, 
# crystal, experimental, refinement or atomic coordinate data resulting 
# from the CCDC's data processing and validation procedures.
#
#######################################################################

data_NIDZIL
_symmetry_cell_setting           monoclinic
_symmetry_space_group_name_H-M   'C 2/c'
_symmetry_Int_Tables_number      15
_space_group_name_Hall           '-C 2yn'
loop_
_symmetry_equiv_pos_site_id
_symmetry_equiv_pos_as_xyz
1 x,y,z
2 -x,y,1/2-z
3 1/2+x,1/2+y,z
4 1/2-x,1/2+y,1/2-z
5 -x,-y,-z
6 x,-y,1/2+z
7 1/2-x,1/2-y,-z
8 1/2+x,1/2-y,1/2+z
_cell_length_a                   24.6455(10)
_cell_length_b                   15.5940(7)
_cell_length_c                   17.8708(8)
_cell_angle_alpha                90
_cell_angle_beta                 119.238(2)
_cell_angle_gamma                90
_cell_volume                     5993.13
loop_
_atom_site_label
_atom_site_type_symbol
_atom_site_fract_x
_atom_site_fract_y
_atom_site_fract_z
Ga1 Ga 0.379894(14) 0.43507(2) 0.27678(2)
Ga2 Ga 0.639400(14) -0.06411(2) 0.46272(2)
N1 N 0.57819(11) 0.82693(16) 0.41471(16)
N2 N 0.43803(11) 0.32412(15) 0.32192(16)
C1 C 0.43798(15) 0.5346(2) 0.3138(2)
C2 C 0.46777(15) 0.6010(2) 0.3300(2)
C3 C 0.50466(14) 0.6775(2) 0.35657(19)
C4 C 0.56503(14) 0.6792(2) 0.3698(2)
H1 H 0.5821 0.6294 0.3586
C5 C 0.60064(14) 0.7529(2) 0.3991(2)
C6 C 0.51895(14) 0.8250(2) 0.4026(2)
C7 C 0.48249(15) 0.7527(2) 0.3738(2)
H2 H 0.4414 0.7542 0.3654
C8 C 0.66691(15) 0.7498(2) 0.4169(2)
H3 H 0.6703 0.7805 0.3715
H4 H 0.6796 0.6900 0.4185
H5 H 0.6940 0.7771 0.4723
C9 C 0.49337(15) 0.9033(2) 0.4231(2)
H6 H 0.5236 0.9247 0.4800
H7 H 0.4545 0.8887 0.4226
H8 H 0.4853 0.9478 0.3801
C10 C 0.33292(16) 0.4250(2) 0.3410(2)
H9 H 0.3496 0.4683 0.3874
H10 H 0.2890 0.4403 0.3014
C11 C 0.33366(18) 0.3385(2) 0.3807(3)
H11 H 0.3167 0.2946 0.3358
H12 H 0.3083 0.3415 0.4091
H13 H 0.3765 0.3235 0.4230
C12 C 0.34024(15) 0.4488(2) 0.1503(2)
H14 H 0.3093 0.4025 0.1226
H15 H 0.3176 0.5041 0.1341
C13 C 0.38581(16) 0.4467(2) 0.1150(2)
H16 H 0.4217 0.4832 0.1504
H17 H 0.3650 0.4678 0.0558
H18 H 0.3999 0.3876 0.1163
C14 C 0.58393(14) 0.03771(19) 0.4278(2)
C15 C 0.55429(13) 0.1035(2) 0.40581(19)
C16 C 0.51527(13) 0.17869(19) 0.3784(2)
C17 C 0.52979(14) 0.2530(2) 0.4283(2)
H19 H 0.5668 0.2550 0.4822
C18 C 0.49092(13) 0.3235(2) 0.39998(19)
C19 C 0.42207(14) 0.25025(19) 0.2747(2)
C20 C 0.45946(14) 0.17864(19) 0.3008(2)
H20 H 0.4472 0.1288 0.2657
C21 C 0.50634(15) 0.4005(2) 0.4568(2)
H21 H 0.5170 0.4486 0.4311
H22 H 0.5418 0.3874 0.5132
H23 H 0.4703 0.4160 0.4633
C22 C 0.36014(14) 0.2460(2) 0.1934(2)
H24 H 0.3278 0.2702 0.2040
H25 H 0.3501 0.1861 0.1753
H26 H 0.3623 0.2790 0.1483
C23 C 0.68467(18) -0.0478(2) 0.3980(3)
H27 H 0.7066 0.0079 0.4148
H28 H 0.7166 -0.0933 0.4153
C24 C 0.6452(2) -0.0496(3) 0.3021(3)
H29 H 0.6267 -0.1067 0.2838
H30 H 0.6710 -0.0367 0.2757
H31 H 0.6121 -0.0067 0.2841
C25 C 0.68315(15) -0.0878(2) 0.5873(2)
H32 H 0.7084 -0.1403 0.5976
H33 H 0.7123 -0.0399 0.6167
C26 C 0.64276(17) -0.0998(3) 0.6289(2)
H34 H 0.6183 -0.0476 0.6212
H35 H 0.6692 -0.1110 0.6903
H36 H 0.6146 -0.1484 0.6022
Ga2_2 Ga 0.639400(14) 0.93589(2) 0.46272(2)
N1_2 N 0.57819(11) -0.17307(16) 0.41471(16)
C27 C 0.68729(15) 0.8223(2) 0.1283(3)
H37 H 0.6808 0.8816 0.1331
C28 C 0.68945(16) 0.7656(3) 0.1887(2)
H38 H 0.6853 0.7862 0.2357
C29 C 0.69771(16) 0.6788(3) 0.1816(2)
H39 H 0.6983 0.6396 0.2227
C30 C 0.70507(15) 0.6495(2) 0.1137(2)
H40 H 0.7112 0.5902 0.1082
C31 C 0.70334(15) 0.7072(2) 0.0543(2)
H41 H 0.7084 0.6874 0.0078
C32 C 0.69444(14) 0.7934(2) 0.0614(2)
H42 H 0.6933 0.8326 0.0199
loop_
_geom_bond_atom_site_label_1
_geom_bond_atom_site_label_2
_geom_bond_site_symmetry_1
_geom_bond_site_symmetry_2
Ga1 N2 1_555 1_555
Ga2 C14 1_555 1_555
N1 C5 1_555 1_555
N2 C18 1_555 1_555
C1 Ga1 1_555 1_555
C2 C1 1_555 1_555
C3 C2 1_555 1_555
C4 C3 1_555 1_555
H1 C4 1_555 1_555
C5 C4 1_555 1_555
C6 N1 1_555 1_555
C7 C3 1_555 1_555
H2 C7 1_555 1_555
C8 C5 1_555 1_555
H3 C8 1_555 1_555
H4 C8 1_555 1_555
H5 C8 1_555 1_555
C9 C6 1_555 1_555
H6 C9 1_555 1_555
H7 C9 1_555 1_555
H8 C9 1_555 1_555
C10 Ga1 1_555 1_555
H9 C10 1_555 1_555
H10 C10 1_555 1_555
C11 C10 1_555 1_555
H11 C11 1_555 1_555
H12 C11 1_555 1_555
H13 C11 1_555 1_555
C12 Ga1 1_555 1_555
H14 C12 1_555 1_555
H15 C12 1_555 1_555
C13 C12 1_555 1_555
H16 C13 1_555 1_555
H17 C13 1_555 1_555
H18 C13 1_555 1_555
C14 C15 1_555 1_555
C15 C16 1_555 1_555
C16 C17 1_555 1_555
C17 H19 1_555 1_555
C18 C17 1_555 1_555
C19 N2 1_555 1_555
C20 C16 1_555 1_555
H20 C20 1_555 1_555
C21 C18 1_555 1_555
H21 C21 1_555 1_555
H22 C21 1_555 1_555
H23 C21 1_555 1_555
C22 C19 1_555 1_555
H24 C22 1_555 1_555
H25 C22 1_555 1_555
H26 C22 1_555 1_555
C23 Ga2 1_555 1_555
H27 C23 1_555 1_555
H28 C23 1_555 1_555
C24 C23 1_555 1_555
H29 C24 1_555 1_555
H30 C24 1_555 1_555
H31 C24 1_555 1_555
C25 Ga2 1_555 1_555
H32 C25 1_555 1_555
H33 C25 1_555 1_555
C26 C25 1_555 1_555
H34 C26 1_555 1_555
H35 C26 1_555 1_555
H36 C26 1_555 1_555
C27 H37 1_555 1_555
C28 C27 1_555 1_555
H38 C28 1_555 1_555
C29 C28 1_555 1_555
H39 C29 1_555 1_555
C30 C29 1_555 1_555
H40 C30 1_555 1_555
C31 C30 1_555 1_555
H41 C31 1_555 1_555
C32 C27 1_555 1_555
H42 C32 1_555 1_555
Ga2_2 N1 1_555 1_555
N1_2 Ga2 1_555 1_555
C6 C7 1_555 1_555
C19 C20 1_555 1_555
C31 C32 1_555 1_555

#END
