
#######################################################################
#
#                 Cambridge Crystallographic Data Centre
#                                CCDC 
#
#######################################################################
#
# If this CIF has been generated from an entry in the Cambridge 
# Structural Database, then it will include bibliographic, chemical, 
# crystal, experimental, refinement or atomic coordinate data resulting 
# from the CCDC's data processing and validation procedures.
#
#######################################################################

data_NIFKET
_symmetry_cell_setting           monoclinic
_symmetry_space_group_name_H-M   'P 21/c'
_symmetry_Int_Tables_number      14
_space_group_name_Hall           '-P 2ybc'
loop_
_symmetry_equiv_pos_site_id
_symmetry_equiv_pos_as_xyz
1 x,y,z
2 -x,1/2+y,1/2-z
3 -x,-y,-z
4 x,1/2-y,1/2+z
_cell_length_a                   11.1058(13)
_cell_length_b                   14.2965(15)
_cell_length_c                   7.6125(19)
_cell_angle_alpha                90
_cell_angle_beta                 105.338(4)
_cell_angle_gamma                90
_cell_volume                     1165.62
loop_
_atom_site_label
_atom_site_type_symbol
_atom_site_fract_x
_atom_site_fract_y
_atom_site_fract_z
Cu1 Cu 0.75787(2) 1.037895(14) 0.07681(3)
O1 O 0.7614(2) 1.01158(14) -0.2050(3)
O2 O 0.6282(2) 1.1064(3) -0.1493(3)
O3 O 0.86473(15) 0.93549(10) 0.1934(2)
O4 O 0.71645(16) 0.82835(13) 0.1238(3)
N1 N 0.64149(15) 1.06929(12) -0.7604(2)
N2 N 1.10860(15) 0.64172(11) 0.3509(2)
C1 C 0.68161(19) 1.05143(13) -0.5817(3)
H1 H 0.7525 1.0147 -0.5397
C2 C 0.62201(19) 1.08529(14) -0.4576(3)
C3 C 0.51480(19) 1.13887(15) -0.5214(3)
H2 H 0.4730 1.1630 -0.4405
C4 C 0.47123(19) 1.15576(16) -0.7049(3)
H3 H 0.3991 1.1908 -0.7503
C5 C 0.53664(18) 1.11966(15) -0.8206(3)
H4 H 0.5069 1.1307 -0.9450
C6 C 0.6744(2) 1.06560(19) -0.2587(3)
C7 C 0.9879(2) 0.61905(14) 0.2933(4)
H5 H 0.9660 0.5562 0.2891
C8 C 0.8946(2) 0.68450(15) 0.2399(4)
H6 H 0.8116 0.6657 0.2009
C9 C 0.92513(18) 0.77831(13) 0.2446(3)
C10 C 1.0496(2) 0.80208(14) 0.3057(4)
H7 H 1.0739 0.8645 0.3122
C11 C 1.1376(2) 0.73244(15) 0.3570(4)
H8 H 1.2212 0.7494 0.3979
C12 C 0.82465(19) 0.85183(14) 0.1819(3)
Cu1_2 Cu 0.75787(2) 1.037895(14) -0.92319(3)
Cu1A Cu 1.24213(2) 0.537895(14) 0.42319(3)
N1_2 N 0.64149(15) 1.06929(12) 0.2396(2)
N2A N 0.89140(15) 1.14172(11) 0.1491(2)
loop_
_geom_bond_atom_site_label_1
_geom_bond_atom_site_label_2
_geom_bond_site_symmetry_1
_geom_bond_site_symmetry_2
Cu1 O1 1_555 1_555
O1 C6 1_555 1_555
O2 Cu1 1_555 1_555
O3 Cu1 1_555 1_555
O4 C12 1_555 1_555
N1 C1 1_555 1_555
N2 C7 1_555 1_555
C1 H1 1_555 1_555
C2 C1 1_555 1_555
C3 C2 1_555 1_555
H2 C3 1_555 1_555
C4 C3 1_555 1_555
H3 C4 1_555 1_555
C5 N1 1_555 1_555
H4 C5 1_555 1_555
C6 O2 1_555 1_555
C7 H5 1_555 1_555
C8 C7 1_555 1_555
H6 C8 1_555 1_555
C9 C8 1_555 1_555
C10 C9 1_555 1_555
H7 C10 1_555 1_555
C11 N2 1_555 1_555
H8 C11 1_555 1_555
C12 O3 1_555 1_555
Cu1_2 N1 1_555 1_555
Cu1A N2 1_555 1_555
N1_2 Cu1 1_555 1_555
N2A Cu1 1_555 1_555
C2 C6 1_555 1_555
C4 C5 1_555 1_555
C9 C12 1_555 1_555
C10 C11 1_555 1_555

#END
