
#######################################################################
#
#                 Cambridge Crystallographic Data Centre
#                                CCDC 
#
#######################################################################
#
# If this CIF has been generated from an entry in the Cambridge 
# Structural Database, then it will include bibliographic, chemical, 
# crystal, experimental, refinement or atomic coordinate data resulting 
# from the CCDC's data processing and validation procedures.
#
#######################################################################

data_NIFKOE
_symmetry_cell_setting           monoclinic
_symmetry_space_group_name_H-M   'P 21/n'
_symmetry_Int_Tables_number      14
_space_group_name_Hall           '-P 2yn'
loop_
_symmetry_equiv_pos_site_id
_symmetry_equiv_pos_as_xyz
1 x,y,z
2 1/2-x,1/2+y,1/2-z
3 -x,-y,-z
4 1/2+x,1/2-y,1/2+z
_cell_length_a                   15.457(6)
_cell_length_b                   13.0982(16)
_cell_length_c                   22.867(4)
_cell_angle_alpha                90
_cell_angle_beta                 105.40(3)
_cell_angle_gamma                90
_cell_volume                     4463.4
loop_
_atom_site_label
_atom_site_type_symbol
_atom_site_fract_x
_atom_site_fract_y
_atom_site_fract_z
Cu1 Cu 0.17580(18) 0.5003(2) 0.77588(13)
Cl1 Cl -0.1152(5) 0.9830(6) 0.5728(3)
Cl2 Cl -0.1269(7) 1.3543(5) 0.6668(4)
Cl3 Cl -0.0610(6) 0.6407(5) 0.8018(4)
Cl4 Cl -0.2768(7) 0.9305(6) 0.6704(5)
O1 O -0.0342(10) 0.8763(11) 0.7610(7)
N1 N 0.1041(11) 0.6113(12) 0.7283(9)
N2 N 0.0681(12) 0.7704(11) 0.6948(9)
C1 C 0.1133(12) 0.7115(14) 0.7391(8)
H1 H 0.1490 0.7377 0.7752
C2 C 0.0153(15) 0.7049(14) 0.6551(10)
H2 H -0.0312 0.7233 0.6217
C3 C 0.0419(16) 0.6070(14) 0.6722(10)
H3 H 0.0217 0.5481 0.6501
C4 C 0.0585(14) 0.8804(11) 0.6938(11)
H4 H 0.0623 0.9068 0.6550
H5 H 0.1067 0.9105 0.7252
C5 C -0.0276(13) 0.9077(11) 0.7039(9)
H6 H -0.0734 0.8698 0.6739
C6 C -0.0499(9) 1.0247(6) 0.6921(6)
C7 C -0.0937(10) 1.0617(8) 0.6349(5)
C8 C -0.1169(11) 1.1643(9) 0.6273(5)
H7 H -0.1462 1.1891 0.5891
C9 C -0.0961(12) 1.2299(6) 0.6769(6)
C10 C -0.0523(11) 1.1929(9) 0.7340(5)
H8 H -0.0384 1.2368 0.7672
C11 C -0.0292(10) 1.0903(9) 0.7416(5)
H9 H 0.0002 1.0655 0.7799
C12 C -0.1134(13) 0.8622(15) 0.7725(9)
H10 H -0.1446 0.9271 0.7680
H11 H -0.1028 0.8415 0.8146
C13 C -0.1760(10) 0.7822(9) 0.7322(7)
C14 C -0.1486(9) 0.6812(10) 0.7429(6)
C15 C -0.1923(11) 0.6047(8) 0.7041(8)
H12 H -0.1740 0.5372 0.7112
C16 C -0.2633(11) 0.6291(10) 0.6545(7)
H13 H -0.2925 0.5779 0.6285
C17 C -0.2906(10) 0.7301(12) 0.6437(6)
H14 H -0.3381 0.7465 0.6106
C18 C -0.2470(11) 0.8066(8) 0.6826(8)
Cl5 Cl 0.3351(4) 0.0143(5) 1.0236(3)
Cl6 Cl 0.1875(6) -0.3563(5) 0.9774(4)
Cl7 Cl 0.0120(6) 0.3556(5) 0.8717(4)
Cl8 Cl 0.1105(7) 0.0872(6) 1.0569(4)
O2 O 0.0929(9) 0.1255(10) 0.8869(6)
N3 N 0.2176(10) 0.3859(9) 0.8338(7)
N4 N 0.2487(12) 0.2289(9) 0.8702(7)
C19 C 0.2105(12) 0.2852(10) 0.8230(7)
H15 H 0.1812 0.2578 0.7855
C20 C 0.2871(13) 0.2946(10) 0.9148(7)
H16 H 0.3230 0.2772 0.9529
C21 C 0.2639(13) 0.3921(11) 0.8940(8)
H17 H 0.2772 0.4518 0.9167
C22 C 0.2426(12) 0.1195(10) 0.8768(9)
H18 H 0.3015 0.0923 0.8964
H19 H 0.2223 0.0884 0.8370
C23 C 0.1806(11) 0.0931(10) 0.9126(9)
H20 H 0.2012 0.1312 0.9506
C24 C 0.1870(8) -0.0236(6) 0.9313(6)
C25 C 0.2548(8) -0.0628(8) 0.9786(6)
C26 C 0.2565(9) -0.1663(8) 0.9922(6)
H21 H 0.3019 -0.1925 1.0239
C27 C 0.1902(10) -0.2306(6) 0.9585(7)
C28 C 0.1223(9) -0.1914(9) 0.9112(6)
H22 H 0.0780 -0.2344 0.8887
C29 C 0.1207(8) -0.0879(9) 0.8976(5)
H23 H 0.0753 -0.0617 0.8659
C30 C 0.0326(7) 0.1376(7) 0.9193(5)
H24 H 0.0227 0.0730 0.9372
H25 H -0.0242 0.1604 0.8930
C31 C 0.0691(7) 0.2198(7) 0.9714(5)
C32 C 0.0553(7) 0.3159(7) 0.9445(5)
C33 C 0.0788(7) 0.4032(7) 0.9799(5)
H26 H 0.0695 0.4674 0.9620
C34 C 0.1161(7) 0.3943(7) 1.0422(5)
H27 H 0.1318 0.4526 1.0658
C35 C 0.1299(7) 0.2982(7) 1.0690(5)
H28 H 0.1548 0.2923 1.1106
C36 C 0.1064(7) 0.2110(7) 1.0336(5)
O3 O 0.1110(11) 0.4026(10) 0.7128(7)
O4 O 0.2423(11) 0.3692(11) 0.6957(7)
O5 O 0.2560(11) 0.0930(11) 0.6632(8)
O6 O 0.1702(11) 0.1279(11) 0.7205(7)
C37 C 0.1604(17) 0.3711(13) 0.6840(7)
C38 C 0.1144(13) 0.3041(10) 0.6283(5)
C39 C 0.0540(9) 0.3544(7) 0.5812(6)
H29 H 0.0404 0.4227 0.5854
C40 C 0.0140(11) 0.3025(10) 0.5278(6)
H30 H -0.0263 0.3362 0.4963
C41 C 0.0344(12) 0.2004(10) 0.5216(5)
H31 H 0.0076 0.1658 0.4858
C42 C 0.0947(10) 0.1501(7) 0.5687(6)
H32 H 0.1083 0.0818 0.5645
C43 C 0.1347(12) 0.2019(10) 0.6221(6)
C44 C 0.1913(16) 0.1340(14) 0.6735(9)
Cu1A Cu 0.32420(18) 0.0003(2) 0.72412(13)
O5A O 0.2440(11) 0.5930(11) 0.8368(8)
loop_
_geom_bond_atom_site_label_1
_geom_bond_atom_site_label_2
_geom_bond_site_symmetry_1
_geom_bond_site_symmetry_2
Cu1 N1 1_555 1_555
Cl1 C7 1_555 1_555
Cl2 C9 1_555 1_555
Cl3 C14 1_555 1_555
Cl4 C18 1_555 1_555
O1 C5 1_555 1_555
N1 C1 1_555 1_555
N2 C1 1_555 1_555
C1 H1 1_555 1_555
C2 N2 1_555 1_555
H2 C2 1_555 1_555
C3 N1 1_555 1_555
H3 C3 1_555 1_555
C4 N2 1_555 1_555
H4 C4 1_555 1_555
H5 C4 1_555 1_555
C5 C4 1_555 1_555
H6 C5 1_555 1_555
C6 C5 1_555 1_555
C7 C6 1_555 1_555
C8 C7 1_555 1_555
H7 C8 1_555 1_555
C9 C8 1_555 1_555
C10 C9 1_555 1_555
H8 C10 1_555 1_555
C11 C6 1_555 1_555
H9 C11 1_555 1_555
C12 O1 1_555 1_555
H10 C12 1_555 1_555
H11 C12 1_555 1_555
C13 C12 1_555 1_555
C14 C13 1_555 1_555
C15 C14 1_555 1_555
H12 C15 1_555 1_555
C16 C15 1_555 1_555
H13 C16 1_555 1_555
C17 C16 1_555 1_555
H14 C17 1_555 1_555
C18 C13 1_555 1_555
Cl5 C25 1_555 1_555
Cl6 C27 1_555 1_555
Cl7 C32 1_555 1_555
Cl8 C36 1_555 1_555
O2 C23 1_555 1_555
N3 Cu1 1_555 1_555
N4 C19 1_555 1_555
C19 N3 1_555 1_555
H15 C19 1_555 1_555
C20 N4 1_555 1_555
H16 C20 1_555 1_555
C21 N3 1_555 1_555
H17 C21 1_555 1_555
C22 N4 1_555 1_555
H18 C22 1_555 1_555
H19 C22 1_555 1_555
C23 C22 1_555 1_555
H20 C23 1_555 1_555
C24 C23 1_555 1_555
C25 C24 1_555 1_555
C26 C25 1_555 1_555
H21 C26 1_555 1_555
C27 C26 1_555 1_555
C28 C27 1_555 1_555
H22 C28 1_555 1_555
C29 C24 1_555 1_555
H23 C29 1_555 1_555
C30 O2 1_555 1_555
H24 C30 1_555 1_555
H25 C30 1_555 1_555
C31 C30 1_555 1_555
C32 C31 1_555 1_555
C33 C32 1_555 1_555
H26 C33 1_555 1_555
C34 C33 1_555 1_555
H27 C34 1_555 1_555
C35 C34 1_555 1_555
H28 C35 1_555 1_555
C36 C31 1_555 1_555
O3 Cu1 1_555 1_555
O4 C37 1_555 1_555
O5 C44 1_555 1_555
O6 C44 1_555 1_555
C37 O3 1_555 1_555
C38 C37 1_555 1_555
C39 C38 1_555 1_555
H29 C39 1_555 1_555
C40 C39 1_555 1_555
H30 C40 1_555 1_555
C41 C40 1_555 1_555
H31 C41 1_555 1_555
C42 C41 1_555 1_555
H32 C42 1_555 1_555
C43 C38 1_555 1_555
C44 C43 1_555 1_555
Cu1A O5 1_555 1_555
O5A Cu1 1_555 1_555
C2 C3 1_555 1_555
C10 C11 1_555 1_555
C17 C18 1_555 1_555
C20 C21 1_555 1_555
C28 C29 1_555 1_555
C35 C36 1_555 1_555
C42 C43 1_555 1_555

#END
