
#######################################################################
#
#                 Cambridge Crystallographic Data Centre
#                                CCDC 
#
#######################################################################
#
# If this CIF has been generated from an entry in the Cambridge 
# Structural Database, then it will include bibliographic, chemical, 
# crystal, experimental, refinement or atomic coordinate data resulting 
# from the CCDC's data processing and validation procedures.
#
#######################################################################

data_NIFMUM
_symmetry_cell_setting           monoclinic
_symmetry_space_group_name_H-M   'C 2/c'
_symmetry_Int_Tables_number      15
_space_group_name_Hall           '-C 2yn'
loop_
_symmetry_equiv_pos_site_id
_symmetry_equiv_pos_as_xyz
1 x,y,z
2 -x,y,1/2-z
3 1/2+x,1/2+y,z
4 1/2-x,1/2+y,1/2-z
5 -x,-y,-z
6 x,-y,1/2+z
7 1/2-x,1/2-y,-z
8 1/2+x,1/2-y,1/2+z
_cell_length_a                   17.9970(14)
_cell_length_b                   13.7574(10)
_cell_length_c                   13.0173(10)
_cell_angle_alpha                90
_cell_angle_beta                 107.9600(10)
_cell_angle_gamma                90
_cell_volume                     3065.93
loop_
_atom_site_label
_atom_site_type_symbol
_atom_site_fract_x
_atom_site_fract_y
_atom_site_fract_z
C1 C 0.85808(11) 1.05868(14) 0.39402(15)
C2 C 0.78123(11) 1.09896(15) 0.33095(15)
C3 C 0.74752(14) 1.16706(18) 0.38164(19)
C4 C 0.67743(15) 1.2110(2) 0.3284(2)
C5 C 0.64012(15) 1.1871(2) 0.2225(2)
C6 C 0.67265(14) 1.1186(2) 0.17167(19)
C7 C 0.74305(12) 1.07257(17) 0.22327(16)
C8 C 0.77165(18) 0.9968(3) 0.1605(2)
C9 C 0.92763(15) 0.74082(16) 0.59290(17)
C10 C 0.8597(2) 0.7367(2) 0.6198(3)
C11 C 0.8328(3) 0.6465(3) 0.6438(3)
C12 C 0.8753(3) 0.5648(3) 0.6432(3)
C13 C 0.9433(2) 0.5699(2) 0.6199(2)
C14 C 0.97146(16) 0.65714(17) 0.59251(18)
C15 C 1.0473(2) 0.6590(3) 0.5665(4)
C16 C 0.95172(12) 0.83641(15) 0.55989(15)
Cl1 Cl 1.0000 1.12731(5) 0.7500
H1 H 0.7752(14) 1.1833(18) 0.452(2)
H2 H 0.6565(16) 1.2545(19) 0.365(2)
H3 H 0.5942(14) 1.2152(18) 0.187(2)
H4 H 0.6464(15) 1.104(2) 0.100(2)
H5 H 0.8304(17) 0.7937(19) 0.618(2)
H6 H 0.785(2) 0.651(3) 0.654(4)
H7 H 0.859(2) 0.503(2) 0.666(3)
H8 H 0.9750(19) 0.511(2) 0.623(3)
H9 H 0.8189(18) 1.016(2) 0.148(3)
H10 H 1.038(2) 0.670(3) 0.489(3)
H11 H 0.733(2) 0.989(3) 0.091(3)
H12 H 1.081(2) 0.709(3) 0.607(3)
H13 H 0.7836(19) 0.936(2) 0.198(3)
H14 H 1.074(2) 0.596(3) 0.585(3)
O1 O 0.88479(8) 1.07911(10) 0.49457(10)
O2 O 0.89607(8) 1.00778(11) 0.34602(10)
O3 O 0.96753(9) 0.83915(10) 0.47139(10)
O4 O 0.95441(8) 0.91006(10) 0.61916(10)
Ru1 Ru 0.994433(8) 1.036351(10) 0.576303(11)
C1A C 1.14192(11) 1.05868(14) 1.10598(15)
C2A C 1.21877(11) 1.09896(15) 1.16905(15)
C3A C 1.25248(14) 1.16706(18) 1.11836(19)
C4A C 1.32257(15) 1.2110(2) 1.1716(2)
C5A C 1.35988(15) 1.1871(2) 1.2775(2)
C6A C 1.32735(14) 1.1186(2) 1.32833(19)
C7A C 1.25695(12) 1.07257(17) 1.27673(16)
C8A C 1.22835(18) 0.9968(3) 1.3395(2)
C9A C 1.07237(15) 0.74082(16) 0.90710(17)
C10A C 1.1403(2) 0.7367(2) 0.8802(3)
C11A C 1.1672(3) 0.6465(3) 0.8562(3)
C12A C 1.1247(3) 0.5648(3) 0.8568(3)
C13A C 1.0567(2) 0.5699(2) 0.8801(2)
C14A C 1.02854(16) 0.65714(17) 0.90749(18)
C15A C 0.9527(2) 0.6590(3) 0.9335(4)
C16A C 1.04828(12) 0.83641(15) 0.94011(15)
H1A H 1.2248(14) 1.1833(18) 1.048(2)
H2A H 1.3435(16) 1.2545(19) 1.135(2)
H3A H 1.4058(14) 1.2152(18) 1.313(2)
H4A H 1.3536(15) 1.104(2) 1.400(2)
H5A H 1.1696(17) 0.7937(19) 0.882(2)
H6A H 1.215(2) 0.651(3) 0.846(4)
H7A H 1.141(2) 0.503(2) 0.834(3)
H8A H 1.0250(19) 0.511(2) 0.877(3)
H9A H 1.1811(18) 1.016(2) 1.352(3)
H10A H 0.962(2) 0.670(3) 1.011(3)
H11A H 1.267(2) 0.989(3) 1.409(3)
H12A H 0.919(2) 0.709(3) 0.893(3)
H13A H 1.2164(19) 0.936(2) 1.302(3)
H14A H 0.926(2) 0.596(3) 0.915(3)
O1A O 1.11521(8) 1.07911(10) 1.00543(10)
O2A O 1.10393(8) 1.00778(11) 1.15398(10)
O3A O 1.03247(9) 0.83915(10) 1.02861(10)
O4A O 1.04559(8) 0.91006(10) 0.88084(10)
Ru1A Ru 1.005567(8) 1.036351(10) 0.923697(11)
O2D O 1.10393(8) 0.99222(11) 0.65398(10)
O2E O 0.89607(8) 0.99222(11) 0.84602(10)
O3D O 1.03247(9) 1.16085(10) 0.52861(10)
O3E O 0.96753(9) 1.16085(10) 0.97139(10)
Ru1D Ru 1.005567(8) 0.963649(10) 0.423697(11)
Ru1E Ru 0.994433(8) 0.963649(10) 1.076303(11)
loop_
_geom_bond_atom_site_label_1
_geom_bond_atom_site_label_2
_geom_bond_site_symmetry_1
_geom_bond_site_symmetry_2
C1 C2 1_555 1_555
C2 C3 1_555 1_555
C3 C4 1_555 1_555
C4 C5 1_555 1_555
C5 C6 1_555 1_555
C6 C7 1_555 1_555
C7 C2 1_555 1_555
C8 C7 1_555 1_555
C9 C10 1_555 1_555
C10 C11 1_555 1_555
C11 C12 1_555 1_555
C12 C13 1_555 1_555
C13 C14 1_555 1_555
C14 C9 1_555 1_555
C15 C14 1_555 1_555
C16 C9 1_555 1_555
Cl1 Ru1 1_555 1_555
H1 C3 1_555 1_555
H2 C4 1_555 1_555
H3 C5 1_555 1_555
H4 C6 1_555 1_555
H5 C10 1_555 1_555
H6 C11 1_555 1_555
H7 C12 1_555 1_555
H8 C13 1_555 1_555
H9 C8 1_555 1_555
H10 C15 1_555 1_555
H11 C8 1_555 1_555
H12 C15 1_555 1_555
H13 C8 1_555 1_555
H14 C15 1_555 1_555
O1 C1 1_555 1_555
O2 C1 1_555 1_555
O3 C16 1_555 1_555
O4 C16 1_555 1_555
Ru1 O1 1_555 1_555
C1A C2A 1_555 1_555
C2A C3A 1_555 1_555
C3A C4A 1_555 1_555
C4A C5A 1_555 1_555
C5A C6A 1_555 1_555
C6A C7A 1_555 1_555
C7A C2A 1_555 1_555
C8A C7A 1_555 1_555
C9A C10A 1_555 1_555
C10A C11A 1_555 1_555
C11A C12A 1_555 1_555
C12A C13A 1_555 1_555
C13A C14A 1_555 1_555
C14A C9A 1_555 1_555
C15A C14A 1_555 1_555
C16A C9A 1_555 1_555
H1A C3A 1_555 1_555
H2A C4A 1_555 1_555
H3A C5A 1_555 1_555
H4A C6A 1_555 1_555
H5A C10A 1_555 1_555
H6A C11A 1_555 1_555
H7A C12A 1_555 1_555
H8A C13A 1_555 1_555
H9A C8A 1_555 1_555
H10A C15A 1_555 1_555
H11A C8A 1_555 1_555
H12A C15A 1_555 1_555
H13A C8A 1_555 1_555
H14A C15A 1_555 1_555
O1A C1A 1_555 1_555
O2A C1A 1_555 1_555
O3A C16A 1_555 1_555
O4A C16A 1_555 1_555
Ru1A Cl1 1_555 1_555
O2D Ru1 1_555 1_555
O2E Ru1A 1_555 1_555
O3D Ru1 1_555 1_555
O3E Ru1A 1_555 1_555
Ru1D O2 1_555 1_555
Ru1E O2A 1_555 1_555
O3 Ru1D 1_555 1_555
O4 Ru1 1_555 1_555
Ru1 Ru1D 1_555 1_555
O1A Ru1A 1_555 1_555
O3A Ru1E 1_555 1_555
O4A Ru1A 1_555 1_555
Ru1A Ru1E 1_555 1_555

#END
