
#######################################################################
#
#                 Cambridge Crystallographic Data Centre
#                                CCDC 
#
#######################################################################
#
# If this CIF has been generated from an entry in the Cambridge 
# Structural Database, then it will include bibliographic, chemical, 
# crystal, experimental, refinement or atomic coordinate data resulting 
# from the CCDC's data processing and validation procedures.
#
#######################################################################

data_NIFMOG
_symmetry_cell_setting           monoclinic
_symmetry_space_group_name_H-M   'P 21/c'
_symmetry_Int_Tables_number      14
_space_group_name_Hall           '-P 2ybc'
loop_
_symmetry_equiv_pos_site_id
_symmetry_equiv_pos_as_xyz
1 x,y,z
2 -x,1/2+y,1/2-z
3 -x,-y,-z
4 x,1/2-y,1/2+z
_cell_length_a                   12.817(2)
_cell_length_b                   11.084(2)
_cell_length_c                   21.847(4)
_cell_angle_alpha                90
_cell_angle_beta                 98.277(3)
_cell_angle_gamma                90
_cell_volume                     3071.34
loop_
_atom_site_label
_atom_site_type_symbol
_atom_site_fract_x
_atom_site_fract_y
_atom_site_fract_z
C1 C 0.6501(12) 0.8115(11) 0.5623(6)
C2 C 0.5960(8) 0.9205(15) 0.5556(7)
H1 H 0.5243 0.9215 0.5407
C3 C 0.6492(13) 1.0280(11) 0.5711(7)
H2 H 0.6130 1.1009 0.5666
C4 C 0.7564(13) 1.0265(11) 0.5933(7)
H3 H 0.7919 1.0985 0.6036
C5 C 0.8105(8) 0.9176(15) 0.6000(6)
C6 C 0.7573(12) 0.8100(11) 0.5845(7)
H4 H 0.7935 0.7371 0.5890
C7 C 0.8523(12) 0.8164(10) 0.4361(6)
C8 C 0.9090(9) 0.9227(14) 0.4482(7)
H5 H 0.9803 0.9198 0.4642
C9 C 0.8594(13) 1.0335(10) 0.4363(8)
H6 H 0.8973 1.1046 0.4444
C10 C 0.7529(13) 1.0379(11) 0.4124(7)
H7 H 0.7197 1.1120 0.4044
C11 C 0.6962(9) 0.9316(16) 0.4003(7)
C12 C 0.7459(12) 0.8208(12) 0.4121(7)
H8 H 0.7079 0.7497 0.4040
C13 C 1.0191(15) 0.5896(17) 0.6149(8)
C14 C 1.0296(14) 0.6376(15) 0.6753(7)
C15 C 0.9482(17) 0.6228(17) 0.7107(8)
H9 H 0.8886 0.5782 0.6955
C16 C 0.957(2) 0.676(2) 0.7693(9)
H10 H 0.9030 0.6674 0.7930
C17 C 1.0466(19) 0.740(2) 0.7921(10)
H11 H 1.0518 0.7753 0.8310
C18 C 1.126(2) 0.752(2) 0.7585(13)
C19 C 1.120(2) 0.705(2) 0.6971(13)
H12 H 1.1728 0.7189 0.6729
C20 C 1.225(2) 0.830(3) 0.7854(14)
H13 H 1.2371 0.8910 0.7558
H14 H 1.2860 0.7793 0.7936
H15 H 1.2122 0.8685 0.8231
C21 C 0.8997(15) 0.6972(17) 0.4577(7)
C22 C 0.578(2) 0.947(3) 0.3788(14)
H16 H 0.5388 0.9011 0.4052
H17 H 0.5606 0.9190 0.3370
H18 H 0.5592 1.0308 0.3809
C23 C 0.5521(13) 0.5495(14) 0.3901(6)
C24 C 0.5913(14) 0.5864(14) 0.3337(7)
C25 C 0.6859(19) 0.543(2) 0.3229(12)
H19 H 0.7232 0.4875 0.3497
C26 C 0.727(2) 0.585(2) 0.2681(11)
H20 H 0.7920 0.5588 0.2592
C27 C 0.6682(19) 0.662(2) 0.2306(11)
H21 H 0.6939 0.6855 0.1948
C28 C 0.575(2) 0.708(2) 0.2407(12)
C29 C 0.5310(19) 0.663(2) 0.2944(11)
H22 H 0.4638 0.6849 0.3015
C30 C 0.507(2) 0.790(3) 0.1979(14)
H23 H 0.5508 0.8492 0.1817
H24 H 0.4576 0.8297 0.2199
H25 H 0.4704 0.7438 0.1645
C31 C 0.5992(15) 0.7006(15) 0.5400(7)
C32 C 0.918(2) 0.922(3) 0.6270(14)
H26 H 0.9539 0.9820 0.6066
H27 H 0.9496 0.8443 0.6225
H28 H 0.9222 0.9409 0.6701
Cl1 Cl 0.7568(3) 0.3426(4) 0.53208(19)
O1 O 0.9385(9) 0.5281(10) 0.5926(5)
O2 O 1.0940(7) 0.6093(9) 0.5801(4)
O3 O 0.8471(8) 0.6078(11) 0.4729(5)
O4 O 1.0006(10) 0.6931(9) 0.4605(5)
O5 O 0.6129(8) 0.4832(9) 0.4284(4)
O6 O 0.4646(8) 0.5909(8) 0.4031(4)
O7 O 0.6479(8) 0.6006(10) 0.5443(4)
O8 O 0.4998(9) 0.7043(8) 0.5181(4)
Ru1 Ru 0.92077(10) 0.45753(12) 0.50671(6)
Ru2 Ru 0.57667(10) 0.44755(11) 0.51289(5)
O2B O 0.9060(7) 0.3907(9) 0.4199(4)
O4B O 0.9994(10) 0.3069(9) 0.5395(5)
O6B O 0.5354(8) 0.4091(8) 0.5969(4)
O8B O 0.5002(9) 0.2957(8) 0.4819(4)
Ru1B Ru 1.07923(10) 0.54247(12) 0.49329(6)
Ru2B Ru 0.42333(10) 0.55245(11) 0.48711(5)
loop_
_geom_bond_atom_site_label_1
_geom_bond_atom_site_label_2
_geom_bond_site_symmetry_1
_geom_bond_site_symmetry_2
C1 C2 1_555 1_555
C2 H1 1_555 1_555
C3 C2 1_555 1_555
H2 C3 1_555 1_555
C4 C3 1_555 1_555
H3 C4 1_555 1_555
C5 C4 1_555 1_555
C6 C1 1_555 1_555
H4 C6 1_555 1_555
C7 C8 1_555 1_555
C8 H5 1_555 1_555
C9 C8 1_555 1_555
H6 C9 1_555 1_555
C10 C9 1_555 1_555
H7 C10 1_555 1_555
C11 C10 1_555 1_555
C12 C7 1_555 1_555
H8 C12 1_555 1_555
C13 C14 1_555 1_555
C14 C15 1_555 1_555
C15 H9 1_555 1_555
C16 C15 1_555 1_555
H10 C16 1_555 1_555
C17 C16 1_555 1_555
H11 C17 1_555 1_555
C18 C17 1_555 1_555
C19 C14 1_555 1_555
H12 C19 1_555 1_555
C20 C18 1_555 1_555
H13 C20 1_555 1_555
H14 C20 1_555 1_555
H15 C20 1_555 1_555
C21 C7 1_555 1_555
C22 C11 1_555 1_555
H16 C22 1_555 1_555
H17 C22 1_555 1_555
H18 C22 1_555 1_555
C23 C24 1_555 1_555
C24 C25 1_555 1_555
C25 H19 1_555 1_555
C26 C25 1_555 1_555
H20 C26 1_555 1_555
C27 C26 1_555 1_555
H21 C27 1_555 1_555
C28 C27 1_555 1_555
C29 C24 1_555 1_555
H22 C29 1_555 1_555
C30 C28 1_555 1_555
H23 C30 1_555 1_555
H24 C30 1_555 1_555
H25 C30 1_555 1_555
C31 C1 1_555 1_555
C32 C5 1_555 1_555
H26 C32 1_555 1_555
H27 C32 1_555 1_555
H28 C32 1_555 1_555
Cl1 Ru1 1_555 1_555
O1 C13 1_555 1_555
O2 C13 1_555 1_555
O3 C21 1_555 1_555
O4 C21 1_555 1_555
O5 C23 1_555 1_555
O6 C23 1_555 1_555
O7 C31 1_555 1_555
O8 C31 1_555 1_555
Ru1 O1 1_555 1_555
Ru2 Cl1 1_555 1_555
O2B Ru1 1_555 1_555
O4B Ru1 1_555 1_555
O6B Ru2 1_555 1_555
O8B Ru2 1_555 1_555
Ru1B O2 1_555 1_555
Ru2B O6 1_555 1_555
C5 C6 1_555 1_555
C11 C12 1_555 1_555
C18 C19 1_555 1_555
C28 C29 1_555 1_555
O3 Ru1 1_555 1_555
O4 Ru1B 1_555 1_555
O5 Ru2 1_555 1_555
O7 Ru2 1_555 1_555
O8 Ru2B 1_555 1_555
Ru1 Ru1B 1_555 1_555
Ru2 Ru2B 1_555 1_555

#END
