
#######################################################################
#
#                 Cambridge Crystallographic Data Centre
#                                CCDC 
#
#######################################################################
#
# If this CIF has been generated from an entry in the Cambridge 
# Structural Database, then it will include bibliographic, chemical, 
# crystal, experimental, refinement or atomic coordinate data resulting 
# from the CCDC's data processing and validation procedures.
#
#######################################################################

data_NIFMIA
_symmetry_cell_setting           monoclinic
_symmetry_space_group_name_H-M   'C 2/c'
_symmetry_Int_Tables_number      15
_space_group_name_Hall           '-C 2yn'
loop_
_symmetry_equiv_pos_site_id
_symmetry_equiv_pos_as_xyz
1 x,y,z
2 -x,y,1/2-z
3 1/2+x,1/2+y,z
4 1/2-x,1/2+y,1/2-z
5 -x,-y,-z
6 x,-y,1/2+z
7 1/2-x,1/2-y,-z
8 1/2+x,1/2-y,1/2+z
_cell_length_a                   27.433(2)
_cell_length_b                   10.1585(7)
_cell_length_c                   12.7102(8)
_cell_angle_alpha                90
_cell_angle_beta                 113.604(2)
_cell_angle_gamma                90
_cell_volume                     3245.71
loop_
_atom_site_label
_atom_site_type_symbol
_atom_site_fract_x
_atom_site_fract_y
_atom_site_fract_z
C1 C 0.40112(13) -0.0690(3) 0.3766(3)
C2 C 0.34577(14) -0.1108(4) 0.3051(3)
C3 C 0.32090(17) -0.0690(4) 0.1935(4)
H1 H 0.3385 -0.0126 0.1627
C4 C 0.26945(19) -0.1110(6) 0.1262(4)
H2 H 0.2526 -0.0800 0.0514
C5 C 0.24303(17) -0.1971(6) 0.1681(4)
C6 C 0.26861(19) -0.2386(6) 0.2807(5)
H3 H 0.2515 -0.2963 0.3115
C7 C 0.31922(16) -0.1955(5) 0.3477(4)
H4 H 0.3357 -0.2244 0.4232
C8 C 0.18733(18) -0.2466(8) 0.0922(5)
H5 H 0.1759 -0.2068 0.0176
H6 H 0.1630 -0.2235 0.1265
H7 H 0.1881 -0.3406 0.0848
C9 C 0.46453(12) 0.2126(3) 0.5642(2)
C10 C 0.44291(12) 0.3292(3) 0.5986(2)
C11 C 0.44099(14) 0.4498(3) 0.5458(3)
H8 H 0.4543 0.4577 0.4893
C12 C 0.41936(16) 0.5582(3) 0.5770(4)
H9 H 0.4190 0.6391 0.5424
C13 C 0.39821(16) 0.5478(4) 0.6594(4)
C14 C 0.40027(17) 0.4262(4) 0.7116(4)
H10 H 0.3861 0.4173 0.7666
C15 C 0.42300(14) 0.3190(3) 0.6825(3)
H11 H 0.4250 0.2391 0.7196
C16 C 0.3734(2) 0.6651(4) 0.6921(5)
H12 H 0.3610 0.6395 0.7499
H13 H 0.3440 0.6966 0.6257
H14 H 0.3994 0.7337 0.7217
O1 O 0.42531(9) 0.0018(2) 0.33086(17)
O2 O 0.42225(9) -0.1092(2) 0.48013(18)
O3 O 0.47572(9) 0.22007(19) 0.47613(17)
O4 O 0.47081(9) 0.1074(2) 0.62298(17)
Cl1 Cl 0.5000 0.18355(10) 0.2500
Ru1 Ru 0.501616(10) 0.05642(2) 0.423443(19)
C1A C 0.59888(13) -0.0690(3) 0.1234(3)
C2A C 0.65423(14) -0.1108(4) 0.1949(3)
C3A C 0.67910(17) -0.0690(4) 0.3065(4)
H1A H 0.6615 -0.0126 0.3373
C4A C 0.73055(19) -0.1110(6) 0.3738(4)
H2A H 0.7474 -0.0800 0.4486
C5A C 0.75697(17) -0.1971(6) 0.3319(4)
C6A C 0.73139(19) -0.2386(6) 0.2193(5)
H3A H 0.7485 -0.2963 0.1885
C7A C 0.68078(16) -0.1955(5) 0.1523(4)
H4A H 0.6643 -0.2244 0.0768
C8A C 0.81267(18) -0.2466(8) 0.4078(5)
H5A H 0.8241 -0.2068 0.4824
H6A H 0.8370 -0.2235 0.3735
H7A H 0.8119 -0.3406 0.4152
C9A C 0.53547(12) 0.2126(3) -0.0642(2)
C10A C 0.55709(12) 0.3292(3) -0.0986(2)
C11A C 0.55901(14) 0.4498(3) -0.0458(3)
H8A H 0.5457 0.4577 0.0107
C12A C 0.58064(16) 0.5582(3) -0.0770(4)
H9A H 0.5810 0.6391 -0.0424
C13A C 0.60179(16) 0.5478(4) -0.1594(4)
C14A C 0.59973(17) 0.4262(4) -0.2116(4)
H10A H 0.6139 0.4173 -0.2666
C15A C 0.57700(14) 0.3190(3) -0.1825(3)
H11A H 0.5750 0.2391 -0.2196
C16A C 0.6266(2) 0.6651(4) -0.1921(5)
H12A H 0.6390 0.6395 -0.2499
H13A H 0.6560 0.6966 -0.1257
H14A H 0.6006 0.7337 -0.2217
O1A O 0.57469(9) 0.0018(2) 0.16914(17)
O2A O 0.57775(9) -0.1092(2) 0.01987(18)
O3A O 0.52428(9) 0.22007(19) 0.02387(17)
O4A O 0.52919(9) 0.1074(2) -0.12298(17)
Ru1A Ru 0.498384(10) 0.05642(2) 0.076557(19)
O2D O 0.57775(9) 0.1092(2) 0.51987(18)
O2E O 0.42225(9) 0.1092(2) -0.01987(18)
O4D O 0.52919(9) -0.1074(2) 0.37702(17)
O4E O 0.47081(9) -0.1074(2) 0.12298(17)
Ru1D Ru 0.498384(10) -0.05642(2) 0.576557(19)
Ru1E Ru 0.501616(10) -0.05642(2) -0.076557(19)
loop_
_geom_bond_atom_site_label_1
_geom_bond_atom_site_label_2
_geom_bond_site_symmetry_1
_geom_bond_site_symmetry_2
C1 C2 1_555 1_555
C2 C3 1_555 1_555
C3 H1 1_555 1_555
C4 C3 1_555 1_555
H2 C4 1_555 1_555
C5 C4 1_555 1_555
C6 C5 1_555 1_555
H3 C6 1_555 1_555
C7 C2 1_555 1_555
H4 C7 1_555 1_555
C8 C5 1_555 1_555
H5 C8 1_555 1_555
H6 C8 1_555 1_555
H7 C8 1_555 1_555
C9 C10 1_555 1_555
C10 C11 1_555 1_555
C11 H8 1_555 1_555
C12 C11 1_555 1_555
H9 C12 1_555 1_555
C13 C12 1_555 1_555
C14 C13 1_555 1_555
H10 C14 1_555 1_555
C15 C10 1_555 1_555
H11 C15 1_555 1_555
C16 C13 1_555 1_555
H12 C16 1_555 1_555
H13 C16 1_555 1_555
H14 C16 1_555 1_555
O1 C1 1_555 1_555
O2 C1 1_555 1_555
O3 C9 1_555 1_555
O4 C9 1_555 1_555
Cl1 Ru1 1_555 1_555
Ru1 O1 1_555 1_555
C1A C2A 1_555 1_555
C2A C3A 1_555 1_555
C3A H1A 1_555 1_555
C4A C3A 1_555 1_555
H2A C4A 1_555 1_555
C5A C4A 1_555 1_555
C6A C5A 1_555 1_555
H3A C6A 1_555 1_555
C7A C2A 1_555 1_555
H4A C7A 1_555 1_555
C8A C5A 1_555 1_555
H5A C8A 1_555 1_555
H6A C8A 1_555 1_555
H7A C8A 1_555 1_555
C9A C10A 1_555 1_555
C10A C11A 1_555 1_555
C11A H8A 1_555 1_555
C12A C11A 1_555 1_555
H9A C12A 1_555 1_555
C13A C12A 1_555 1_555
C14A C13A 1_555 1_555
H10A C14A 1_555 1_555
C15A C10A 1_555 1_555
H11A C15A 1_555 1_555
C16A C13A 1_555 1_555
H12A C16A 1_555 1_555
H13A C16A 1_555 1_555
H14A C16A 1_555 1_555
O1A C1A 1_555 1_555
O2A C1A 1_555 1_555
O3A C9A 1_555 1_555
O4A C9A 1_555 1_555
Ru1A Cl1 1_555 1_555
O2D Ru1 1_555 1_555
O2E Ru1A 1_555 1_555
O4D Ru1 1_555 1_555
O4E Ru1A 1_555 1_555
Ru1D O2 1_555 1_555
Ru1E O2A 1_555 1_555
C6 C7 1_555 1_555
C14 C15 1_555 1_555
O3 Ru1 1_555 1_555
O4 Ru1D 1_555 1_555
Ru1 Ru1D 1_555 1_555
C6A C7A 1_555 1_555
C14A C15A 1_555 1_555
O1A Ru1A 1_555 1_555
O3A Ru1A 1_555 1_555
O4A Ru1E 1_555 1_555
Ru1A Ru1E 1_555 1_555

#END
