
#######################################################################
#
#                 Cambridge Crystallographic Data Centre
#                                CCDC 
#
#######################################################################
#
# If this CIF has been generated from an entry in the Cambridge 
# Structural Database, then it will include bibliographic, chemical, 
# crystal, experimental, refinement or atomic coordinate data resulting 
# from the CCDC's data processing and validation procedures.
#
#######################################################################

data_NIFNIB
_symmetry_cell_setting           tetragonal
_symmetry_space_group_name_H-M   'I -4'
_symmetry_Int_Tables_number      82
_space_group_name_Hall           'I -4'
loop_
_symmetry_equiv_pos_site_id
_symmetry_equiv_pos_as_xyz
1 x,y,z
2 y,-x,-z
3 -y,x,-z
4 -x,-y,z
5 1/2+x,1/2+y,1/2+z
6 1/2+y,1/2-x,1/2-z
7 1/2-y,1/2+x,1/2-z
8 1/2-x,1/2-y,1/2+z
_cell_length_a                   14.1752(11)
_cell_length_b                   14.1752(11)
_cell_length_c                   7.4478(6)
_cell_angle_alpha                90
_cell_angle_beta                 90
_cell_angle_gamma                90
_cell_volume                     1496.53
loop_
_atom_site_label
_atom_site_type_symbol
_atom_site_fract_x
_atom_site_fract_y
_atom_site_fract_z
C1 C 0.76409(10) 0.12996(12) 0.2487(11)
C2 C 0.84768(13) 0.07898(10) 0.2382(12)
H1 H 0.8460 0.0135 0.2301
C3 C 0.93382(10) 0.12582(14) 0.2399(15)
H2 H 0.9897 0.0917 0.2329
C4 C 0.93638(10) 0.22364(14) 0.2520(15)
H3 H 0.9940 0.2550 0.2531
C5 C 0.85279(14) 0.27462(10) 0.2624(12)
H4 H 0.8545 0.3401 0.2705
C6 C 0.76665(11) 0.22778(12) 0.2608(10)
Ru1 Ru 0.5000 0.0000 0.40421(3)
Cl1 Cl 0.5000 0.0000 0.7500
N1 N 0.6287(4) 0.0582(5) 0.1037(16)
H5 H 0.6572 0.0699 0.0041
O1 O 0.6344(4) 0.0585(4) 0.4052(13)
C7 C 0.67129(18) 0.07913(17) 0.2550(14)
C8 C 0.6766(2) 0.2857(2) 0.2459(19)
H6 H 0.6907 0.3458 0.1929
H7 H 0.6503 0.2950 0.3633
H8 H 0.6319 0.2528 0.1719
C1C C 0.23591(10) -0.12996(12) 0.2487(11)
C2C C 0.15232(13) -0.07898(10) 0.2382(12)
H1C H 0.1540 -0.0135 0.2301
C3C C 0.06618(10) -0.12582(14) 0.2399(15)
H2C H 0.0103 -0.0917 0.2329
C4C C 0.06362(10) -0.22364(14) 0.2520(15)
H3C H 0.0060 -0.2550 0.2531
C5C C 0.14721(14) -0.27462(10) 0.2624(12)
H4C H 0.1455 -0.3401 0.2705
C6C C 0.23335(11) -0.22778(12) 0.2608(10)
N1C N 0.3713(4) -0.0582(5) 0.1037(16)
H5C H 0.3428 -0.0699 0.0041
O1C O 0.3656(4) -0.0585(4) 0.4052(13)
C7C C 0.32871(18) -0.07913(17) 0.2550(14)
C8C C 0.3234(2) -0.2857(2) 0.2459(19)
H6C H 0.3093 -0.3458 0.1929
H7C H 0.3497 -0.2950 0.3633
H8C H 0.3681 -0.2528 0.1719
C1E C 0.62996(12) -0.26409(10) 0.2513(11)
C2E C 0.57898(10) -0.34768(13) 0.2618(12)
H1E H 0.5135 -0.3460 0.2699
C3E C 0.62582(14) -0.43382(10) 0.2601(15)
H2E H 0.5917 -0.4897 0.2671
C4E C 0.72364(14) -0.43638(10) 0.2480(15)
H3E H 0.7550 -0.4940 0.2469
C5E C 0.77462(10) -0.35279(14) 0.2376(12)
H4E H 0.8401 -0.3545 0.2295
C6E C 0.72778(12) -0.26665(11) 0.2392(10)
Ru1E Ru 0.5000 0.0000 0.09579(3)
N1E N 0.5582(5) -0.1287(4) 0.3963(16)
H5E H 0.5699 -0.1572 0.4959
O1E O 0.5585(4) -0.1344(4) 0.0948(13)
C7E C 0.57913(17) -0.17129(18) 0.2450(14)
C8E C 0.7857(2) -0.1766(2) 0.2541(19)
H6E H 0.8458 -0.1907 0.3071
H7E H 0.7950 -0.1503 0.1367
H8E H 0.7528 -0.1319 0.3281
C1F C 0.37004(12) 0.26409(10) 0.2513(11)
C2F C 0.42102(10) 0.34768(13) 0.2618(12)
H1F H 0.4865 0.3460 0.2699
C3F C 0.37418(14) 0.43382(10) 0.2601(15)
H2F H 0.4083 0.4897 0.2671
C4F C 0.27636(14) 0.43638(10) 0.2480(15)
H3F H 0.2450 0.4940 0.2469
C5F C 0.22538(10) 0.35279(14) 0.2376(12)
H4F H 0.1599 0.3545 0.2295
C6F C 0.27222(12) 0.26665(11) 0.2392(10)
N1F N 0.4418(5) 0.1287(4) 0.3963(16)
H5F H 0.4301 0.1572 0.4959
O1F O 0.4415(4) 0.1344(4) 0.0948(13)
C7F C 0.42087(17) 0.17129(18) 0.2450(14)
C8F C 0.2143(2) 0.1766(2) 0.2541(19)
H6F H 0.1542 0.1907 0.3071
H7F H 0.2050 0.1503 0.1367
H8F H 0.2472 0.1319 0.3281
Ru1E_2 Ru 0.5000 0.0000 1.09579(3)
Cl1_2 Cl 0.5000 0.0000 -0.2500
loop_
_geom_bond_atom_site_label_1
_geom_bond_atom_site_label_2
_geom_bond_site_symmetry_1
_geom_bond_site_symmetry_2
C1 C2 1_555 1_555
C2 H1 1_555 1_555
C3 C2 1_555 1_555
H2 C3 1_555 1_555
C4 C3 1_555 1_555
H3 C4 1_555 1_555
C5 C4 1_555 1_555
H4 C5 1_555 1_555
C6 C1 1_555 1_555
Ru1 Cl1 1_555 1_555
Cl1 Ru1E_2 1_555 1_555
N1 H5 1_555 1_555
O1 Ru1 1_555 1_555
C7 C1 1_555 1_555
C8 C6 1_555 1_555
H6 C8 1_555 1_555
H7 C8 1_555 1_555
H8 C8 1_555 1_555
C1C C2C 1_555 1_555
C2C H1C 1_555 1_555
C3C C2C 1_555 1_555
H2C C3C 1_555 1_555
C4C C3C 1_555 1_555
H3C C4C 1_555 1_555
C5C C4C 1_555 1_555
H4C C5C 1_555 1_555
C6C C1C 1_555 1_555
N1C H5C 1_555 1_555
O1C Ru1 1_555 1_555
C7C C1C 1_555 1_555
C8C C6C 1_555 1_555
H6C C8C 1_555 1_555
H7C C8C 1_555 1_555
H8C C8C 1_555 1_555
C1E C2E 1_555 1_555
C2E H1E 1_555 1_555
C3E C2E 1_555 1_555
H2E C3E 1_555 1_555
C4E C3E 1_555 1_555
H3E C4E 1_555 1_555
C5E C4E 1_555 1_555
H4E C5E 1_555 1_555
C6E C1E 1_555 1_555
Ru1E Ru1 1_555 1_555
N1E Ru1 1_555 1_555
H5E N1E 1_555 1_555
O1E Ru1E 1_555 1_555
C7E C1E 1_555 1_555
C8E C6E 1_555 1_555
H6E C8E 1_555 1_555
H7E C8E 1_555 1_555
H8E C8E 1_555 1_555
C1F C2F 1_555 1_555
C2F H1F 1_555 1_555
C3F C2F 1_555 1_555
H2F C3F 1_555 1_555
C4F C3F 1_555 1_555
H3F C4F 1_555 1_555
C5F C4F 1_555 1_555
H4F C5F 1_555 1_555
C6F C1F 1_555 1_555
N1F Ru1 1_555 1_555
H5F N1F 1_555 1_555
O1F Ru1E 1_555 1_555
C7F C1F 1_555 1_555
C8F C6F 1_555 1_555
H6F C8F 1_555 1_555
H7F C8F 1_555 1_555
H8F C8F 1_555 1_555
Cl1_2 Ru1E 1_555 1_555
C5 C6 1_555 1_555
N1 C7 1_555 1_555
N1 Ru1E 1_555 1_555
O1 C7 1_555 1_555
C5C C6C 1_555 1_555
N1C C7C 1_555 1_555
N1C Ru1E 1_555 1_555
O1C C7C 1_555 1_555
C5E C6E 1_555 1_555
N1E C7E 1_555 1_555
O1E C7E 1_555 1_555
C5F C6F 1_555 1_555
N1F C7F 1_555 1_555
O1F C7F 1_555 1_555

#END
