
#######################################################################
#
#                 Cambridge Crystallographic Data Centre
#                                CCDC 
#
#######################################################################
#
# If this CIF has been generated from an entry in the Cambridge 
# Structural Database, then it will include bibliographic, chemical, 
# crystal, experimental, refinement or atomic coordinate data resulting 
# from the CCDC's data processing and validation procedures.
#
#######################################################################

data_NIFNAT
_symmetry_cell_setting           monoclinic
_symmetry_space_group_name_H-M   'C 2/c'
_symmetry_Int_Tables_number      15
_space_group_name_Hall           '-C 2yn'
loop_
_symmetry_equiv_pos_site_id
_symmetry_equiv_pos_as_xyz
1 x,y,z
2 -x,y,1/2-z
3 1/2+x,1/2+y,z
4 1/2-x,1/2+y,1/2-z
5 -x,-y,-z
6 x,-y,1/2+z
7 1/2-x,1/2-y,-z
8 1/2+x,1/2-y,1/2+z
_cell_length_a                   27.073(19)
_cell_length_b                   10.399(5)
_cell_length_c                   12.800(5)
_cell_angle_alpha                90
_cell_angle_beta                 113.26(6)
_cell_angle_gamma                90
_cell_volume                     3310.72
loop_
_atom_site_label
_atom_site_type_symbol
_atom_site_fract_x
_atom_site_fract_y
_atom_site_fract_z
C1 C 0.4631(3) 0.2131(7) 0.0645(6)
C2 C 0.4424(3) 0.3297(7) 0.0987(6)
C3 C 0.4409(3) 0.4471(8) 0.0473(8)
H1 H 0.4545 0.4536 -0.0088
C4 C 0.4198(4) 0.5552(8) 0.0766(9)
H2 H 0.4210 0.6335 0.0427
C5 C 0.3965(4) 0.5493(9) 0.1565(8)
C6 C 0.3977(4) 0.4312(9) 0.2073(8)
H3 H 0.3829 0.4243 0.2614
C7 C 0.4200(4) 0.3234(8) 0.1804(7)
H4 H 0.4201 0.2458 0.2168
C8 C 0.3707(4) 0.6664(10) 0.1835(11)
H5 H 0.3740 0.7382 0.1395
H6 H 0.3883 0.6862 0.2630
H7 H 0.3333 0.6494 0.1651
C9 C 0.6012(3) 0.0719(7) 0.1270(7)
C10 C 0.6566(3) 0.1181(8) 0.1980(7)
C11 C 0.6814(4) 0.2094(11) 0.1585(9)
H8 H 0.6640 0.2389 0.0843
C12 C 0.7311(4) 0.2591(13) 0.2242(10)
H9 H 0.7457 0.3246 0.1959
C13 C 0.7597(4) 0.2108(14) 0.3343(10)
C14 C 0.7350(4) 0.1198(14) 0.3721(10)
H10 H 0.7531 0.0872 0.4450
C15 C 0.6845(4) 0.0731(10) 0.3080(9)
H11 H 0.6691 0.0113 0.3382
C16 C 0.8139(4) 0.2685(15) 0.4069(11)
H12 H 0.8235 0.3316 0.3635
H13 H 0.8406 0.2018 0.4305
H14 H 0.8119 0.3085 0.4727
Cl1 Cl 0.5000 0.1802(3) -0.2500
N1 N 0.4702(2) 0.1063(5) 0.1214(5)
H15 H 0.4630 0.1045 0.1811
N2 N 0.5745(2) 0.0027(6) 0.1684(5)
H16 H 0.5895 -0.0205 0.2384
O1 O 0.4756(2) 0.2157(5) -0.0227(4)
O2 O 0.5797(2) 0.1098(5) 0.0201(5)
Ru1 Ru 0.50243(2) 0.05546(6) -0.07540(5)
C1A C 0.5369(3) 0.2131(7) -0.5645(6)
C2A C 0.5576(3) 0.3297(7) -0.5987(6)
C3A C 0.5591(3) 0.4471(8) -0.5473(8)
H1A H 0.5455 0.4536 -0.4912
C4A C 0.5802(4) 0.5552(8) -0.5766(9)
H2A H 0.5790 0.6335 -0.5427
C5A C 0.6035(4) 0.5493(9) -0.6565(8)
C6A C 0.6023(4) 0.4312(9) -0.7073(8)
H3A H 0.6171 0.4243 -0.7614
C7A C 0.5800(4) 0.3234(8) -0.6804(7)
H4A H 0.5799 0.2458 -0.7168
C8A C 0.6293(4) 0.6664(10) -0.6835(11)
H5A H 0.6260 0.7382 -0.6395
H6A H 0.6117 0.6862 -0.7630
H7A H 0.6667 0.6494 -0.6651
C9A C 0.3988(3) 0.0719(7) -0.6270(7)
C10A C 0.3434(3) 0.1181(8) -0.6980(7)
C11A C 0.3186(4) 0.2094(11) -0.6585(9)
H8A H 0.3360 0.2389 -0.5843
C12A C 0.2689(4) 0.2591(13) -0.7242(10)
H9A H 0.2543 0.3246 -0.6959
C13A C 0.2403(4) 0.2108(14) -0.8343(10)
C14A C 0.2650(4) 0.1198(14) -0.8721(10)
H10A H 0.2469 0.0872 -0.9450
C15A C 0.3155(4) 0.0731(10) -0.8080(9)
H11A H 0.3309 0.0113 -0.8382
C16A C 0.1861(4) 0.2685(15) -0.9069(11)
H12A H 0.1765 0.3316 -0.8635
H13A H 0.1594 0.2018 -0.9305
H14A H 0.1881 0.3085 -0.9727
N1A N 0.5298(2) 0.1063(5) -0.6214(5)
H15A H 0.5370 0.1045 -0.6811
N2A N 0.4255(2) 0.0027(6) -0.6684(5)
H16A H 0.4105 -0.0205 -0.7384
O1A O 0.5244(2) 0.2157(5) -0.4773(4)
O2A O 0.4203(2) 0.1098(5) -0.5201(5)
Ru1A Ru 0.49757(2) 0.05546(6) -0.42460(5)
N1D N 0.5298(2) -0.1063(5) -0.1214(5)
N1E N 0.4702(2) -0.1063(5) -0.3786(5)
N2D N 0.4255(2) -0.0027(6) -0.1684(5)
N2E N 0.5745(2) -0.0027(6) -0.3316(5)
Ru1D Ru 0.49757(2) -0.05546(6) 0.07540(5)
Ru1E Ru 0.50243(2) -0.05546(6) -0.57540(5)
loop_
_geom_bond_atom_site_label_1
_geom_bond_atom_site_label_2
_geom_bond_site_symmetry_1
_geom_bond_site_symmetry_2
C1 C2 1_555 1_555
C2 C3 1_555 1_555
C3 H1 1_555 1_555
C4 C3 1_555 1_555
H2 C4 1_555 1_555
C5 C4 1_555 1_555
C6 C5 1_555 1_555
H3 C6 1_555 1_555
C7 C2 1_555 1_555
H4 C7 1_555 1_555
C8 C5 1_555 1_555
H5 C8 1_555 1_555
H6 C8 1_555 1_555
H7 C8 1_555 1_555
C9 C10 1_555 1_555
C10 C11 1_555 1_555
C11 H8 1_555 1_555
C12 C11 1_555 1_555
H9 C12 1_555 1_555
C13 C12 1_555 1_555
C14 C13 1_555 1_555
H10 C14 1_555 1_555
C15 C10 1_555 1_555
H11 C15 1_555 1_555
C16 C13 1_555 1_555
H12 C16 1_555 1_555
H13 C16 1_555 1_555
H14 C16 1_555 1_555
Cl1 Ru1 1_555 1_555
N1 C1 1_555 1_555
H15 N1 1_555 1_555
N2 C9 1_555 1_555
H16 N2 1_555 1_555
O1 C1 1_555 1_555
O2 C9 1_555 1_555
Ru1 O1 1_555 1_555
C1A C2A 1_555 1_555
C2A C3A 1_555 1_555
C3A H1A 1_555 1_555
C4A C3A 1_555 1_555
H2A C4A 1_555 1_555
C5A C4A 1_555 1_555
C6A C5A 1_555 1_555
H3A C6A 1_555 1_555
C7A C2A 1_555 1_555
H4A C7A 1_555 1_555
C8A C5A 1_555 1_555
H5A C8A 1_555 1_555
H6A C8A 1_555 1_555
H7A C8A 1_555 1_555
C9A C10A 1_555 1_555
C10A C11A 1_555 1_555
C11A H8A 1_555 1_555
C12A C11A 1_555 1_555
H9A C12A 1_555 1_555
C13A C12A 1_555 1_555
C14A C13A 1_555 1_555
H10A C14A 1_555 1_555
C15A C10A 1_555 1_555
H11A C15A 1_555 1_555
C16A C13A 1_555 1_555
H12A C16A 1_555 1_555
H13A C16A 1_555 1_555
H14A C16A 1_555 1_555
N1A C1A 1_555 1_555
H15A N1A 1_555 1_555
N2A C9A 1_555 1_555
H16A N2A 1_555 1_555
O1A C1A 1_555 1_555
O2A C9A 1_555 1_555
Ru1A Cl1 1_555 1_555
N1D Ru1 1_555 1_555
N1E Ru1A 1_555 1_555
N2D Ru1 1_555 1_555
N2E Ru1A 1_555 1_555
Ru1D N1 1_555 1_555
Ru1E N1A 1_555 1_555
C6 C7 1_555 1_555
C14 C15 1_555 1_555
N2 Ru1D 1_555 1_555
O2 Ru1 1_555 1_555
Ru1 Ru1D 1_555 1_555
C6A C7A 1_555 1_555
C14A C15A 1_555 1_555
N2A Ru1E 1_555 1_555
O1A Ru1A 1_555 1_555
O2A Ru1A 1_555 1_555
Ru1A Ru1E 1_555 1_555

#END
