
#######################################################################
#
#                 Cambridge Crystallographic Data Centre
#                                CCDC 
#
#######################################################################
#
# If this CIF has been generated from an entry in the Cambridge 
# Structural Database, then it will include bibliographic, chemical, 
# crystal, experimental, refinement or atomic coordinate data resulting 
# from the CCDC's data processing and validation procedures.
#
#######################################################################

data_NIFNUN
_symmetry_cell_setting           triclinic
_symmetry_space_group_name_H-M   'P -1'
_symmetry_Int_Tables_number      2
_space_group_name_Hall           '-P 1'
loop_
_symmetry_equiv_pos_site_id
_symmetry_equiv_pos_as_xyz
1 x,y,z
2 -x,-y,-z
_cell_length_a                   6.0178(3)
_cell_length_b                   7.4969(4)
_cell_length_c                   14.5404(9)
_cell_angle_alpha                76.205(5)
_cell_angle_beta                 87.845(4)
_cell_angle_gamma                89.788(4)
_cell_volume                     636.606
loop_
_atom_site_label
_atom_site_type_symbol
_atom_site_fract_x
_atom_site_fract_y
_atom_site_fract_z
Ag1 Ag -0.21694(4) 0.42216(3) 1.036734(17)
O1 O 0.3665(3) 0.3108(3) 1.03140(14)
O2 O 0.0285(3) 0.2029(3) 1.08372(16)
S1 S 0.53922(11) -0.57189(9) 1.26910(5)
C1 C 0.4551(4) -0.3548(3) 1.20145(17)
O3 O 0.7360(3) -0.6235(3) 1.22057(15)
C2 C 0.1793(4) -0.1546(4) 1.11919(18)
H1 H 0.0383 -0.1369 1.0945
C3 C 0.6004(4) -0.2078(4) 1.18979(19)
H2 H 0.7424 -0.2262 1.2134
O4 O 0.3542(4) -0.6961(3) 1.27409(17)
O5 O 0.5873(4) -0.5436(3) 1.36169(14)
C4 C 0.2450(4) -0.3301(4) 1.16455(19)
H3 H 0.1495 -0.4297 1.1702
C5 C 0.3215(4) -0.0046(3) 1.11004(17)
C6 C 0.5354(4) -0.0336(4) 1.14328(19)
H4 H 0.6349 0.0642 1.1342
C7 C 0.2336(4) 0.1851(4) 1.07126(17)
Ag1_2 Ag 0.78306(4) -0.57784(3) 1.036734(17)
Ag1_3 Ag 0.78306(4) 0.42216(3) 1.036734(17)
Ag1A Ag 0.21694(4) 0.57784(3) 0.963266(17)
O1_2 O -0.6335(3) 0.3108(3) 1.03140(14)
O1A O -0.3665(3) 0.6892(3) 0.96860(14)
O3_2 O -0.2640(3) 0.3765(3) 1.22057(15)
C8 C -0.1399(5) -0.7951(4) 1.5782(2)
H5 H -0.2708 -0.7290 1.5653
C9 C -0.1243(6) -0.9245(4) 1.6592(2)
H6 H -0.2471 -0.9493 1.7011
C10 C 0.0435(5) -0.7594(4) 1.51224(19)
C11 C 0.2410(5) -0.8548(4) 1.5406(2)
H7 H 0.3694 -0.8299 1.5021
N1 N 0.0284(4) -0.6441(4) 1.42800(17)
H8 H 0.1413 -0.6256 1.3888
H9 H -0.0944 -0.5877 1.4126
C12 C 0.2444(6) -0.9823(4) 1.6236(2)
H10 H 0.3751 -1.0459 1.6410
N2 N 0.0636(5) -1.0188(4) 1.68128(18)
H11 H 0.0678 -1.1034 1.7329
loop_
_geom_bond_atom_site_label_1
_geom_bond_atom_site_label_2
_geom_bond_site_symmetry_1
_geom_bond_site_symmetry_2
Ag1 O2 1_555 1_555
O1 C7 1_555 1_555
O2 C7 1_555 1_555
S1 C1 1_555 1_555
C1 C3 1_555 1_555
O3 S1 1_555 1_555
C2 H1 1_555 1_555
C3 H2 1_555 1_555
O4 S1 1_555 1_555
O5 S1 1_555 1_555
C4 C1 1_555 1_555
H3 C4 1_555 1_555
C5 C2 1_555 1_555
C6 C3 1_555 1_555
H4 C6 1_555 1_555
C7 C5 1_555 1_555
C8 H5 1_555 1_555
C9 C8 1_555 1_555
H6 C9 1_555 1_555
C10 C8 1_555 1_555
C11 C10 1_555 1_555
H7 C11 1_555 1_555
N1 C10 1_555 1_555
H8 N1 1_555 1_555
H9 N1 1_555 1_555
C12 C11 1_555 1_555
H10 C12 1_555 1_555
N2 C9 1_555 1_555
H11 N2 1_555 1_555
Ag1_2 O3 1_555 1_555
Ag1_3 O1 1_555 1_555
Ag1A Ag1 1_555 1_555
O1_2 Ag1 1_555 1_555
O1A Ag1 1_555 1_555
O3_2 Ag1 1_555 1_555
O1 Ag1A 1_555 1_555
C2 C4 1_555 1_555
C5 C6 1_555 1_555
C12 N2 1_555 1_555

#END
