
#######################################################################
#
#                 Cambridge Crystallographic Data Centre
#                                CCDC 
#
#######################################################################
#
# If this CIF has been generated from an entry in the Cambridge 
# Structural Database, then it will include bibliographic, chemical, 
# crystal, experimental, refinement or atomic coordinate data resulting 
# from the CCDC's data processing and validation procedures.
#
#######################################################################

data_NIFPEZ
_symmetry_cell_setting           monoclinic
_symmetry_space_group_name_H-M   'I 2/a'
_symmetry_Int_Tables_number      15
_space_group_name_Hall           '-I 2ya'
loop_
_symmetry_equiv_pos_site_id
_symmetry_equiv_pos_as_xyz
1 x,y,z
2 1/2-x,y,-z
3 1/2+x,1/2+y,1/2+z
4 -x,1/2+y,1/2-z
5 -x,-y,-z
6 1/2+x,-y,z
7 1/2-x,1/2-y,1/2-z
8 x,1/2-y,1/2+z
_cell_length_a                   14.343(4)
_cell_length_b                   13.358(6)
_cell_length_c                   7.214(6)
_cell_angle_alpha                90
_cell_angle_beta                 90.24(2)
_cell_angle_gamma                90
_cell_volume                     1382.15
loop_
_atom_site_label
_atom_site_type_symbol
_atom_site_fract_x
_atom_site_fract_y
_atom_site_fract_z
Ni1 Ni 0.750 -0.044(3) 0.000
Fe1 Fe 0.500 0.000 0.500
C1 C 0.658(2) -0.039(3) 0.188(3)
N1 N 0.602(3) -0.027(3) 0.295(3)
C2 C 0.843(2) -0.037(3) 0.196(3)
N2 N 0.895(3) -0.030(3) 0.307(3)
N3 N 0.526(4) 0.155(4) 0.494(3)
N4 N 0.545(3) 0.322(4) 0.499(4)
C3 C 0.614(4) 0.169(3) 0.539(3)
C4 C 0.625(2) 0.275(2) 0.550(2)
C5 C 0.471(5) 0.247(4) 0.486(4)
C1A C 0.842(2) -0.039(3) -0.188(3)
N1A N 0.898(3) -0.027(3) -0.295(3)
C2A C 0.657(2) -0.037(3) -0.196(3)
N2A N 0.605(3) -0.030(3) -0.307(3)
N3D N 0.474(4) -0.155(4) 0.506(3)
N4D N 0.455(3) -0.322(4) 0.501(4)
C3D C 0.386(4) -0.169(3) 0.461(3)
C4D C 0.375(2) -0.275(2) 0.450(2)
C5D C 0.529(5) -0.247(4) 0.514(4)
Fe1_2 Fe 0.500 0.000 -0.500
Fe1A Fe 1.000 0.000 -0.500
Fe1A_2 Fe 1.000 0.000 0.500
N1D N 0.398(3) 0.027(3) 0.705(3)
N2A_2 N 0.605(3) -0.030(3) 0.693(3)
N2E N 0.395(3) 0.030(3) 0.307(3)
loop_
_geom_bond_atom_site_label_1
_geom_bond_atom_site_label_2
_geom_bond_site_symmetry_1
_geom_bond_site_symmetry_2
Ni1 C1 1_555 1_555
Fe1 N1 1_555 1_555
C1 N1 1_555 1_555
C2 Ni1 1_555 1_555
N2 C2 1_555 1_555
N3 Fe1 1_555 1_555
N4 C4 1_555 1_555
C3 N3 1_555 1_555
C4 C3 1_555 1_555
C5 N3 1_555 1_555
C1A Ni1 1_555 1_555
N1A C1A 1_555 1_555
C2A Ni1 1_555 1_555
N2A C2A 1_555 1_555
N3D Fe1 1_555 1_555
N4D C4D 1_555 1_555
C3D N3D 1_555 1_555
C4D C3D 1_555 1_555
C5D N3D 1_555 1_555
Fe1_2 N2A 1_555 1_555
Fe1A N1A 1_555 1_555
Fe1A_2 N2 1_555 1_555
N1D Fe1 1_555 1_555
N2A_2 Fe1 1_555 1_555
N2E Fe1 1_555 1_555
N4 C5 1_555 1_555
N4D C5D 1_555 1_555

#END
