
#######################################################################
#
#                 Cambridge Crystallographic Data Centre
#                                CCDC 
#
#######################################################################
#
# If this CIF has been generated from an entry in the Cambridge 
# Structural Database, then it will include bibliographic, chemical, 
# crystal, experimental, refinement or atomic coordinate data resulting 
# from the CCDC's data processing and validation procedures.
#
#######################################################################

data_NIFPID
_symmetry_cell_setting           monoclinic
_symmetry_space_group_name_H-M   'I 2/a'
_symmetry_Int_Tables_number      15
_space_group_name_Hall           '-I 2ya'
loop_
_symmetry_equiv_pos_site_id
_symmetry_equiv_pos_as_xyz
1 x,y,z
2 1/2-x,y,-z
3 1/2+x,1/2+y,1/2+z
4 -x,1/2+y,1/2-z
5 -x,-y,-z
6 1/2+x,-y,z
7 1/2-x,1/2-y,1/2-z
8 x,1/2-y,1/2+z
_cell_length_a                   14.396(2)
_cell_length_b                   13.360(3)
_cell_length_c                   7.228(3)
_cell_angle_alpha                90
_cell_angle_beta                 90.22(2)
_cell_angle_gamma                90
_cell_volume                     1390.16
loop_
_atom_site_label
_atom_site_type_symbol
_atom_site_fract_x
_atom_site_fract_y
_atom_site_fract_z
Ni1 Ni 0.750 -0.042(3) 0.000
Co1 Co 0.500 0.000 0.500
C1 C 0.655(2) -0.036(3) 0.184(3)
N1 N 0.599(3) -0.029(3) 0.292(3)
C2 C 0.840(2) -0.036(3) 0.193(3)
N2 N 0.893(3) -0.032(3) 0.309(3)
N3 N 0.523(4) 0.152(2) 0.499(3)
N4 N 0.541(3) 0.319(2) 0.497(4)
C3 C 0.618(4) 0.166(3) 0.537(3)
C4 C 0.622(2) 0.271(2) 0.553(2)
C5 C 0.473(5) 0.245(2) 0.483(4)
C1A C 0.845(2) -0.036(3) -0.184(3)
N1A N 0.901(3) -0.029(3) -0.292(3)
C2A C 0.660(2) -0.036(3) -0.193(3)
N2A N 0.607(3) -0.032(3) -0.309(3)
N3D N 0.477(4) -0.152(2) 0.501(3)
N4D N 0.459(3) -0.319(2) 0.503(4)
C3D C 0.382(4) -0.166(3) 0.463(3)
C4D C 0.378(2) -0.271(2) 0.447(2)
C5D C 0.527(5) -0.245(2) 0.517(4)
Co1_2 Co 0.500 0.000 -0.500
Co1A Co 1.000 0.000 -0.500
Co1A_2 Co 1.000 0.000 0.500
N1D N 0.401(3) 0.029(3) 0.708(3)
N2A_2 N 0.607(3) -0.032(3) 0.691(3)
N2E N 0.393(3) 0.032(3) 0.309(3)
loop_
_geom_bond_atom_site_label_1
_geom_bond_atom_site_label_2
_geom_bond_site_symmetry_1
_geom_bond_site_symmetry_2
Ni1 C1 1_555 1_555
Co1 N1 1_555 1_555
C1 N1 1_555 1_555
C2 Ni1 1_555 1_555
N2 C2 1_555 1_555
N3 Co1 1_555 1_555
N4 C4 1_555 1_555
C3 N3 1_555 1_555
C4 C3 1_555 1_555
C5 N3 1_555 1_555
C1A Ni1 1_555 1_555
N1A C1A 1_555 1_555
C2A Ni1 1_555 1_555
N2A C2A 1_555 1_555
N3D Co1 1_555 1_555
N4D C4D 1_555 1_555
C3D N3D 1_555 1_555
C4D C3D 1_555 1_555
C5D N3D 1_555 1_555
Co1_2 N2A 1_555 1_555
Co1A N1A 1_555 1_555
Co1A_2 N2 1_555 1_555
N1D Co1 1_555 1_555
N2A_2 Co1 1_555 1_555
N2E Co1 1_555 1_555
N4 C5 1_555 1_555
N4D C5D 1_555 1_555

#END
