
#######################################################################
#
#                 Cambridge Crystallographic Data Centre
#                                CCDC 
#
#######################################################################
#
# If this CIF has been generated from an entry in the Cambridge 
# Structural Database, then it will include bibliographic, chemical, 
# crystal, experimental, refinement or atomic coordinate data resulting 
# from the CCDC's data processing and validation procedures.
#
#######################################################################

data_NIFSUS
_symmetry_cell_setting           monoclinic
_symmetry_space_group_name_H-M   'P 21/c'
_symmetry_Int_Tables_number      14
_space_group_name_Hall           '-P 2ybc'
loop_
_symmetry_equiv_pos_site_id
_symmetry_equiv_pos_as_xyz
1 x,y,z
2 -x,1/2+y,1/2-z
3 -x,-y,-z
4 x,1/2-y,1/2+z
_cell_length_a                   7.3114(18)
_cell_length_b                   20.715(5)
_cell_length_c                   11.181(3)
_cell_angle_alpha                90
_cell_angle_beta                 96.523(4)
_cell_angle_gamma                90
_cell_volume                     1682.46
loop_
_atom_site_label
_atom_site_type_symbol
_atom_site_fract_x
_atom_site_fract_y
_atom_site_fract_z
Co1 Co 0.74042(7) 0.60723(3) 0.17256(5)
N1 N 0.7575(4) 0.56350(16) 0.0069(3)
N2 N 0.7128(4) 0.50769(16) 0.2191(3)
N3 N 0.7611(5) 0.47289(16) -0.0990(3)
H1 H 0.7598 0.4323 -0.1152
O1 O 1.0236(4) 0.61910(14) 0.2360(2)
O2 O 0.8118(4) 0.64591(15) 0.3514(2)
O3 O 1.6915(4) 0.79590(13) 0.5988(3)
O4 O 1.4669(4) 0.85988(13) 0.6396(2)
S1 S 0.70139(19) 0.39310(6) 0.29893(11)
C1 C 0.7905(7) 0.5246(2) -0.3030(4)
H2 H 0.7958 0.4869 -0.3477
C2 C 0.7978(7) 0.5842(3) -0.3547(4)
H3 H 0.8056 0.5869 -0.4370
C3 C 0.7941(7) 0.6407(2) -0.2885(4)
H4 H 0.8011 0.6801 -0.3274
C4 C 0.7803(6) 0.6400(2) -0.1669(4)
H5 H 0.7773 0.6781 -0.1233
C5 C 0.7711(5) 0.5799(2) -0.1113(3)
C6 C 0.7747(6) 0.5231(2) -0.1800(4)
C7 C 0.7502(5) 0.4997(2) 0.0096(3)
C8 C 0.7295(5) 0.4664(2) 0.1230(4)
C9 C 0.7264(6) 0.4036(2) 0.1514(4)
H6 H 0.7367 0.3701 0.0971
C10 C 0.6964(6) 0.4746(2) 0.3155(4)
H7 H 0.6828 0.4941 0.3889
C11 C 0.9774(6) 0.64665(19) 0.3297(3)
C12 C 1.1196(5) 0.68263(19) 0.4091(3)
C13 C 1.3055(5) 0.6763(2) 0.3938(3)
H8 H 1.3415 0.6464 0.3390
C14 C 1.4367(6) 0.7141(2) 0.4598(3)
H9 H 1.5607 0.7087 0.4511
C15 C 1.3827(5) 0.76016(19) 0.5389(3)
C16 C 1.1973(5) 0.76581(19) 0.5569(3)
H10 H 1.1610 0.7959 0.6112
C17 C 1.0685(6) 0.72646(19) 0.4937(3)
H11 H 0.9458 0.7292 0.5077
C18 C 1.5240(6) 0.80662(19) 0.5968(3)
Co1C Co 1.74042(7) 0.89277(3) 0.67256(5)
O3C O 0.6915(4) 0.70410(13) 0.0988(3)
O4C O 0.4669(4) 0.64012(13) 0.1396(2)
loop_
_geom_bond_atom_site_label_1
_geom_bond_atom_site_label_2
_geom_bond_site_symmetry_1
_geom_bond_site_symmetry_2
Co1 N1 1_555 1_555
N1 C5 1_555 1_555
N2 Co1 1_555 1_555
N3 H1 1_555 1_555
O1 Co1 1_555 1_555
O2 Co1 1_555 1_555
O3 C18 1_555 1_555
O4 C18 1_555 1_555
S1 C9 1_555 1_555
C1 H2 1_555 1_555
C2 C1 1_555 1_555
H3 C2 1_555 1_555
C3 C2 1_555 1_555
H4 C3 1_555 1_555
C4 C3 1_555 1_555
H5 C4 1_555 1_555
C5 C4 1_555 1_555
C6 N3 1_555 1_555
C7 N1 1_555 1_555
C8 N2 1_555 1_555
C9 C8 1_555 1_555
H6 C9 1_555 1_555
C10 N2 1_555 1_555
H7 C10 1_555 1_555
C11 O1 1_555 1_555
C12 C11 1_555 1_555
C13 C12 1_555 1_555
H8 C13 1_555 1_555
C14 C13 1_555 1_555
H9 C14 1_555 1_555
C15 C14 1_555 1_555
C16 C15 1_555 1_555
H10 C16 1_555 1_555
C17 C12 1_555 1_555
H11 C17 1_555 1_555
C18 C15 1_555 1_555
Co1C O3 1_555 1_555
O3C Co1 1_555 1_555
O4C Co1 1_555 1_555
N3 C7 1_555 1_555
O2 C11 1_555 1_555
O4 Co1C 1_555 1_555
S1 C10 1_555 1_555
C1 C6 1_555 1_555
C5 C6 1_555 1_555
C7 C8 1_555 1_555
C16 C17 1_555 1_555

#END
