
#######################################################################
#
#                 Cambridge Crystallographic Data Centre
#                                CCDC 
#
#######################################################################
#
# If this CIF has been generated from an entry in the Cambridge 
# Structural Database, then it will include bibliographic, chemical, 
# crystal, experimental, refinement or atomic coordinate data resulting 
# from the CCDC's data processing and validation procedures.
#
#######################################################################

data_NIFSIF
_symmetry_cell_setting           triclinic
_symmetry_space_group_name_H-M   'P -1'
_symmetry_Int_Tables_number      2
_space_group_name_Hall           '-P 1'
loop_
_symmetry_equiv_pos_site_id
_symmetry_equiv_pos_as_xyz
1 x,y,z
2 -x,-y,-z
_cell_length_a                   8.7503(8)
_cell_length_b                   12.9441(8)
_cell_length_c                   15.1577(10)
_cell_angle_alpha                113.520(5)
_cell_angle_beta                 96.938(8)
_cell_angle_gamma                97.479(7)
_cell_volume                     1532.37
loop_
_atom_site_label
_atom_site_type_symbol
_atom_site_fract_x
_atom_site_fract_y
_atom_site_fract_z
Br1 Br 1.84730(4) 0.44517(3) 0.64906(2)
Br2 Br 1.06778(4) -0.54009(3) -0.11633(2)
Zn1 Zn 1.0000 0.0000 0.0000
O1 O 1.7019(3) 0.4802(2) 0.36863(17)
O2 O 2.1118(3) 0.1537(2) 0.57190(19)
O3 O 1.0648(3) -0.16215(18) 0.02302(16)
O4 O 1.5663(3) -0.5696(2) -0.1459(2)
N1 N 1.8270(3) 0.0003(2) 0.08012(17)
N2 N 2.1508(3) 0.1195(2) 0.12420(17)
C1 C 1.6839(3) -0.0723(2) 0.0483(2)
C2 C 1.6012(4) -0.0487(3) 0.1289(2)
H1 H 1.5002 -0.0877 0.1270
C3 C 1.6946(4) 0.0396(3) 0.2076(2)
H2 H 1.6703 0.0758 0.2710
C4 C 1.8375(3) 0.0682(2) 0.1774(2)
C5 C 1.9690(3) 0.1493(2) 0.2400(2)
C6 C 2.1160(3) 0.1711(2) 0.2156(2)
C7 C 2.2488(4) 0.2574(3) 0.2801(2)
H3 H 2.2563 0.3042 0.3478
C8 C 2.3606(4) 0.2596(3) 0.2266(2)
H4 H 2.4617 0.3079 0.2496
C9 C 2.2977(3) 0.1749(2) 0.1280(2)
C10 C 1.6270(3) -0.1567(2) -0.0478(2)
C11 C 1.9469(3) 0.2232(3) 0.3411(2)
C12 C 1.8659(3) 0.3122(3) 0.3534(2)
H5 H 1.8300 0.3269 0.2987
C13 C 1.8370(3) 0.3799(3) 0.4453(2)
C14 C 1.8906(4) 0.3558(3) 0.5235(2)
C15 C 1.9715(4) 0.2676(3) 0.5140(2)
C16 C 1.9987(4) 0.2018(3) 0.4211(2)
H6 H 2.0539 0.1410 0.4124
C17 C 1.7463(4) 0.4745(3) 0.4587(2)
H7 H 1.6515 0.4599 0.4849
H8 H 1.8120 0.5488 0.5066
C18 C 1.6082(4) 0.5641(3) 0.3782(3)
H9 H 1.5147 0.5459 0.4030
H10 H 1.5762 0.5645 0.3141
H11 H 1.6688 0.6400 0.4242
C19 C 2.0225(4) 0.2405(3) 0.5996(2)
H12 H 2.0860 0.3105 0.6547
H13 H 1.9290 0.2148 0.6219
C20 C 2.1428(6) 0.1131(4) 0.6446(3)
H14 H 2.2029 0.1765 0.7051
H15 H 2.2036 0.0522 0.6221
H16 H 2.0434 0.0826 0.6573
C21 C 1.4854(3) -0.2450(2) -0.0641(2)
C22 C 1.3371(3) -0.2210(3) -0.0521(2)
H17 H 1.3213 -0.1446 -0.0348
C23 C 1.2108(3) -0.3068(3) -0.0652(2)
C24 C 1.2367(3) -0.4179(2) -0.0926(2)
C25 C 1.3836(4) -0.4456(3) -0.1049(2)
C26 C 1.5070(4) -0.3575(3) -0.0899(2)
H18 H 1.6084 -0.3743 -0.0973
C27 C 1.0516(4) -0.2756(3) -0.0504(2)
H19 H 0.9930 -0.2821 -0.1131
H20 H 0.9909 -0.3310 -0.0314
C28 C 1.0896(5) -0.1550(4) 0.1191(3)
H21 H 0.9983 -0.2001 0.1277
H22 H 1.1043 -0.0746 0.1663
H23 H 1.1834 -0.1854 0.1302
C29 C 1.4107(4) -0.5658(3) -0.1320(2)
H24 H 1.3917 -0.5897 -0.0793
H25 H 1.3370 -0.6194 -0.1930
C30 C 1.5962(5) -0.6819(3) -0.1786(3)
H26 H 1.5773 -0.7121 -0.1302
H27 H 1.7056 -0.6805 -0.1869
H28 H 1.5263 -0.7311 -0.2414
Br1A Br 2.15270(4) -0.44517(3) -0.64906(2)
Br2A Br 2.93222(4) 0.54009(3) 0.11633(2)
Zn1_2 Zn 2.0000 0.0000 0.0000
Zn1_3 Zn 3.0000 0.0000 0.0000
O1A O 2.2981(3) -0.4802(2) -0.36863(17)
O2A O 1.8882(3) -0.1537(2) -0.57190(19)
O3A O 2.9352(3) 0.16215(18) -0.02302(16)
O3A_2 O 0.9352(3) 0.16215(18) -0.02302(16)
O4A O 2.4337(3) 0.5696(2) 0.1459(2)
N1A N 2.1730(3) -0.0003(2) -0.08012(17)
N1_2 N 0.8270(3) 0.0003(2) 0.08012(17)
N1A_2 N 1.1730(3) -0.0003(2) -0.08012(17)
N2A N 1.8492(3) -0.1195(2) -0.12420(17)
N2_2 N 1.1508(3) 0.1195(2) 0.12420(17)
N2A_2 N 0.8492(3) -0.1195(2) -0.12420(17)
C1A C 2.3161(3) 0.0723(2) -0.0483(2)
C2A C 2.3988(4) 0.0487(3) -0.1289(2)
H1A H 2.4998 0.0877 -0.1270
C3A C 2.3054(4) -0.0396(3) -0.2076(2)
H2A H 2.3297 -0.0758 -0.2710
C4A C 2.1625(3) -0.0682(2) -0.1774(2)
C5A C 2.0310(3) -0.1493(2) -0.2400(2)
C6A C 1.8840(3) -0.1711(2) -0.2156(2)
C7A C 1.7512(4) -0.2574(3) -0.2801(2)
H3A H 1.7437 -0.3042 -0.3478
C8A C 1.6394(4) -0.2596(3) -0.2266(2)
H4A H 1.5383 -0.3079 -0.2496
C9A C 1.7023(3) -0.1749(2) -0.1280(2)
C10A C 2.3730(3) 0.1567(2) 0.0478(2)
C11A C 2.0531(3) -0.2232(3) -0.3411(2)
C12A C 2.1341(3) -0.3122(3) -0.3534(2)
H5A H 2.1700 -0.3269 -0.2987
C13A C 2.1630(3) -0.3799(3) -0.4453(2)
C14A C 2.1094(4) -0.3558(3) -0.5235(2)
C15A C 2.0285(4) -0.2676(3) -0.5140(2)
C16A C 2.0013(4) -0.2018(3) -0.4211(2)
H6A H 1.9461 -0.1410 -0.4124
C17A C 2.2537(4) -0.4745(3) -0.4587(2)
H7A H 2.3485 -0.4599 -0.4849
H8A H 2.1880 -0.5488 -0.5066
C18A C 2.3918(4) -0.5641(3) -0.3782(3)
H9A H 2.4853 -0.5459 -0.4030
H10A H 2.4238 -0.5645 -0.3141
H11A H 2.3312 -0.6400 -0.4242
C19A C 1.9775(4) -0.2405(3) -0.5996(2)
H12A H 1.9140 -0.3105 -0.6547
H13A H 2.0710 -0.2148 -0.6219
C20A C 1.8572(6) -0.1131(4) -0.6446(3)
H14A H 1.7971 -0.1765 -0.7051
H15A H 1.7964 -0.0522 -0.6221
H16A H 1.9566 -0.0826 -0.6573
C21A C 2.5146(3) 0.2450(2) 0.0641(2)
C22A C 2.6629(3) 0.2210(3) 0.0521(2)
H17A H 2.6787 0.1446 0.0348
C23A C 2.7892(3) 0.3068(3) 0.0652(2)
C24A C 2.7633(3) 0.4179(2) 0.0926(2)
C25A C 2.6164(4) 0.4456(3) 0.1049(2)
C26A C 2.4930(4) 0.3575(3) 0.0899(2)
H18A H 2.3916 0.3743 0.0973
C27A C 2.9484(4) 0.2756(3) 0.0504(2)
H19A H 3.0070 0.2821 0.1131
H20A H 3.0091 0.3310 0.0314
C28A C 2.9104(5) 0.1550(4) -0.1191(3)
H21A H 3.0017 0.2001 -0.1277
H22A H 2.8957 0.0746 -0.1663
H23A H 2.8166 0.1854 -0.1302
C29A C 2.5893(4) 0.5658(3) 0.1320(2)
H24A H 2.6083 0.5897 0.0793
H25A H 2.6630 0.6194 0.1930
C30A C 2.4038(5) 0.6819(3) 0.1786(3)
H26A H 2.4227 0.7121 0.1302
H27A H 2.2944 0.6805 0.1869
H28A H 2.4737 0.7311 0.2414
Cl1 Cl 0.3614(3) -0.04437(18) 0.35140(17)
Cl2 Cl 0.56078(18) 0.17584(14) 0.46294(12)
C31 C 0.3774(7) 0.0925(6) 0.4202(7)
H29 H 0.3284 0.0997 0.4774
H30 H 0.3148 0.1248 0.3824
loop_
_geom_bond_atom_site_label_1
_geom_bond_atom_site_label_2
_geom_bond_site_symmetry_1
_geom_bond_site_symmetry_2
Br1 C14 1_555 1_555
Br2 C24 1_555 1_555
Zn1 O3 1_555 1_555
O1 C17 1_555 1_555
O2 C19 1_555 1_555
O3 C27 1_555 1_555
O4 C29 1_555 1_555
N1 C1 1_555 1_555
N2 C6 1_555 1_555
C1 C2 1_555 1_555
C2 H1 1_555 1_555
C3 C2 1_555 1_555
H2 C3 1_555 1_555
C4 N1 1_555 1_555
C5 C4 1_555 1_555
C6 C5 1_555 1_555
C7 C6 1_555 1_555
H3 C7 1_555 1_555
C8 C7 1_555 1_555
H4 C8 1_555 1_555
C9 N2 1_555 1_555
C10 C1 1_555 1_555
C11 C5 1_555 1_555
C12 C11 1_555 1_555
H5 C12 1_555 1_555
C13 C12 1_555 1_555
C14 C13 1_555 1_555
C15 C14 1_555 1_555
C16 C11 1_555 1_555
H6 C16 1_555 1_555
C17 C13 1_555 1_555
H7 C17 1_555 1_555
H8 C17 1_555 1_555
C18 O1 1_555 1_555
H9 C18 1_555 1_555
H10 C18 1_555 1_555
H11 C18 1_555 1_555
C19 C15 1_555 1_555
H12 C19 1_555 1_555
H13 C19 1_555 1_555
C20 O2 1_555 1_555
H14 C20 1_555 1_555
H15 C20 1_555 1_555
H16 C20 1_555 1_555
C21 C10 1_555 1_555
C22 C21 1_555 1_555
H17 C22 1_555 1_555
C23 C22 1_555 1_555
C24 C23 1_555 1_555
C25 C24 1_555 1_555
C26 C21 1_555 1_555
H18 C26 1_555 1_555
C27 C23 1_555 1_555
H19 C27 1_555 1_555
H20 C27 1_555 1_555
C28 O3 1_555 1_555
H21 C28 1_555 1_555
H22 C28 1_555 1_555
H23 C28 1_555 1_555
C29 C25 1_555 1_555
H24 C29 1_555 1_555
H25 C29 1_555 1_555
C30 O4 1_555 1_555
H26 C30 1_555 1_555
H27 C30 1_555 1_555
H28 C30 1_555 1_555
Cl1 C31 1_555 1_555
Cl2 C31 1_555 1_555
C31 H29 1_555 1_555
H30 C31 1_555 1_555
Br1A C14A 1_555 1_555
Br2A C24A 1_555 1_555
Zn1_2 N1 1_555 1_555
Zn1_3 O3A 1_555 1_555
O1A C17A 1_555 1_555
O2A C19A 1_555 1_555
O3A C27A 1_555 1_555
O3A_2 Zn1 1_555 1_555
O4A C29A 1_555 1_555
N1A Zn1_2 1_555 1_555
N1_2 Zn1 1_555 1_555
N1A_2 Zn1 1_555 1_555
N2A Zn1_2 1_555 1_555
N2_2 Zn1 1_555 1_555
N2A_2 Zn1 1_555 1_555
C1A N1A 1_555 1_555
C2A C1A 1_555 1_555
H1A C2A 1_555 1_555
C3A C2A 1_555 1_555
H2A C3A 1_555 1_555
C4A N1A 1_555 1_555
C5A C4A 1_555 1_555
C6A N2A 1_555 1_555
C7A C6A 1_555 1_555
H3A C7A 1_555 1_555
C8A C7A 1_555 1_555
H4A C8A 1_555 1_555
C9A C10 1_555 1_555
C10A C9 1_555 1_555
C11A C5A 1_555 1_555
C12A C11A 1_555 1_555
H5A C12A 1_555 1_555
C13A C12A 1_555 1_555
C14A C13A 1_555 1_555
C15A C14A 1_555 1_555
C16A C11A 1_555 1_555
H6A C16A 1_555 1_555
C17A C13A 1_555 1_555
H7A C17A 1_555 1_555
H8A C17A 1_555 1_555
C18A O1A 1_555 1_555
H9A C18A 1_555 1_555
H10A C18A 1_555 1_555
H11A C18A 1_555 1_555
C19A C15A 1_555 1_555
H12A C19A 1_555 1_555
H13A C19A 1_555 1_555
C20A O2A 1_555 1_555
H14A C20A 1_555 1_555
H15A C20A 1_555 1_555
H16A C20A 1_555 1_555
C21A C10A 1_555 1_555
C22A C21A 1_555 1_555
H17A C22A 1_555 1_555
C23A C22A 1_555 1_555
C24A C23A 1_555 1_555
C25A C24A 1_555 1_555
C26A C21A 1_555 1_555
H18A C26A 1_555 1_555
C27A C23A 1_555 1_555
H19A C27A 1_555 1_555
H20A C27A 1_555 1_555
C28A O3A 1_555 1_555
H21A C28A 1_555 1_555
H22A C28A 1_555 1_555
H23A C28A 1_555 1_555
C29A C25A 1_555 1_555
H24A C29A 1_555 1_555
H25A C29A 1_555 1_555
C30A O4A 1_555 1_555
H26A C30A 1_555 1_555
H27A C30A 1_555 1_555
H28A C30A 1_555 1_555
N2 Zn1_2 1_555 1_555
C3 C4 1_555 1_555
C8 C9 1_555 1_555
C15 C16 1_555 1_555
C25 C26 1_555 1_555
N2A C9A 1_555 1_555
C1A C10A 1_555 1_555
C3A C4A 1_555 1_555
C5A C6A 1_555 1_555
C8A C9A 1_555 1_555
C15A C16A 1_555 1_555
C25A C26A 1_555 1_555

#END
