
#######################################################################
#
#                 Cambridge Crystallographic Data Centre
#                                CCDC 
#
#######################################################################
#
# If this CIF has been generated from an entry in the Cambridge 
# Structural Database, then it will include bibliographic, chemical, 
# crystal, experimental, refinement or atomic coordinate data resulting 
# from the CCDC's data processing and validation procedures.
#
#######################################################################

data_NIFTAZ
_symmetry_cell_setting           monoclinic
_symmetry_space_group_name_H-M   'P 2/c'
_symmetry_Int_Tables_number      13
_space_group_name_Hall           '-P 2yc'
loop_
_symmetry_equiv_pos_site_id
_symmetry_equiv_pos_as_xyz
1 x,y,z
2 -x,y,1/2-z
3 -x,-y,-z
4 x,-y,1/2+z
_cell_length_a                   11.095(4)
_cell_length_b                   8.592(3)
_cell_length_c                   21.450(6)
_cell_angle_alpha                90
_cell_angle_beta                 108.737(14)
_cell_angle_gamma                90
_cell_volume                     1936.42
loop_
_atom_site_label
_atom_site_type_symbol
_atom_site_fract_x
_atom_site_fract_y
_atom_site_fract_z
Co1 Co 0.50906(3) 0.39034(4) 0.834781(16)
N1 N 0.4494(2) 0.2877(3) 1.01430(11)
H1 H 0.4013 0.3068 1.0378
N2 N 0.5259(2) 0.2972(3) 0.92954(11)
N3 N 0.3486(2) 0.4976(3) 0.85620(11)
O1 O 0.63854(18) 0.5903(2) 0.88702(9)
O2 O 0.7023(2) 0.6760(3) 0.80472(9)
O3 O 0.5000 0.5204(3) 0.7500
H2 H 0.4302 0.5693 0.7341
O4 O 0.66324(18) 0.2752(2) 0.82556(9)
O5 O 0.6254(2) 0.2285(2) 0.71809(9)
S1 S 0.14072(8) 0.61176(11) 0.86415(5)
C1 C 0.6086(3) 0.0960(4) 1.08596(15)
H3 H 0.5748 0.0901 1.1203
C2 C 0.5549(3) 0.1906(3) 1.03097(13)
C3 C 0.6030(3) 0.1974(3) 0.97785(13)
C4 C 0.7097(3) 0.1126(4) 0.97907(15)
H4 H 0.7428 0.1163 0.9444
C5 C 0.7652(4) 0.0215(4) 1.03443(16)
H5 H 0.8383 -0.0350 1.0372
C6 C 0.7139(4) 0.0124(4) 1.08633(15)
H6 H 0.7525 -0.0523 1.1219
C7 C 0.4363(3) 0.3471(3) 0.95380(13)
C8 C 0.3371(3) 0.4487(3) 0.91603(13)
C9 C 0.2309(3) 0.5011(4) 0.92813(16)
H7 H 0.2104 0.4795 0.9660
C10 C 0.2501(3) 0.5836(4) 0.82437(16)
H8 H 0.2405 0.6262 0.7832
C11 C 0.7161(3) 0.6609(3) 0.86451(13)
C12 C 0.8342(3) 0.7297(4) 0.91287(14)
H9 H 0.8093 0.8060 0.9397
H10 H 0.8820 0.7836 0.8887
C13 C 0.9203(3) 0.6099(3) 0.95776(13)
C14 C 1.0089(3) 0.6552(3) 1.01654(13)
H11 H 1.0156 0.7598 1.0282
C15 C 0.9122(3) 0.4520(4) 0.94163(13)
H12 H 0.8532 0.4186 0.9024
C16 C 0.6824(3) 0.2045(3) 0.77839(13)
C17 C 0.7811(3) 0.0753(4) 0.79789(17)
H13 H 0.8157 0.0739 0.8456
H14 H 0.7374 -0.0229 0.7844
C18 C 0.8913(3) 0.0816(3) 0.77120(14)
C19 C 0.9459(3) -0.0550(3) 0.76023(15)
H15 H 0.9104 -0.1494 0.7665
C20 C 0.9463(4) 0.2190(4) 0.7602(2)
H16 H 0.9109 0.3134 0.7665
O1B O 1.36146(18) 0.4097(2) 1.11298(9)
O2B O 1.2977(2) 0.3240(3) 1.19528(9)
C11B C 1.2839(3) 0.3391(3) 1.13549(13)
C12B C 1.1658(3) 0.2703(4) 1.08713(14)
H9B H 1.1907 0.1940 1.0603
H10B H 1.1180 0.2164 1.1113
C13B C 1.0797(3) 0.3901(3) 1.04224(13)
C14B C 0.9911(3) 0.3448(3) 0.98346(13)
H11B H 0.9844 0.2402 0.9718
C15B C 1.0878(3) 0.5480(4) 1.05837(13)
H12B H 1.1468 0.5814 1.0976
H2A H 0.5698 0.5693 0.7659
O4A O 1.33676(18) 0.2752(2) 0.67444(9)
O5A O 1.3746(2) 0.2285(2) 0.78191(9)
C16A C 1.3176(3) 0.2045(3) 0.72161(13)
C17A C 1.2189(3) 0.0753(4) 0.70211(17)
H13A H 1.1843 0.0739 0.6544
H14A H 1.2626 -0.0229 0.7156
C18A C 1.1087(3) 0.0816(3) 0.72880(14)
C19A C 1.0541(3) -0.0550(3) 0.73977(15)
H15A H 1.0896 -0.1494 0.7335
C20A C 1.0537(4) 0.2190(4) 0.7398(2)
H16A H 1.0891 0.3134 0.7335
Co1A Co 0.49094(3) 0.39034(4) 0.665219(16)
N1A N 0.5506(2) 0.2877(3) 0.48570(11)
H1A H 0.5987 0.3068 0.4622
N2A N 0.4741(2) 0.2972(3) 0.57046(11)
N3A N 0.6514(2) 0.4976(3) 0.64380(11)
S1A S 0.85928(8) 0.61176(11) 0.63585(5)
C1A C 0.3914(3) 0.0960(4) 0.41404(15)
H3A H 0.4252 0.0901 0.3797
C2A C 0.4451(3) 0.1906(3) 0.46903(13)
C3A C 0.3970(3) 0.1974(3) 0.52215(13)
C4A C 0.2903(3) 0.1126(4) 0.52093(15)
H4A H 0.2572 0.1163 0.5556
C5A C 0.2348(4) 0.0215(4) 0.46557(16)
H5A H 0.1617 -0.0350 0.4628
C6A C 0.2861(4) 0.0124(4) 0.41367(15)
H6A H 0.2475 -0.0523 0.3781
C7A C 0.5637(3) 0.3471(3) 0.54620(13)
C8A C 0.6629(3) 0.4487(3) 0.58397(13)
C9A C 0.7691(3) 0.5011(4) 0.57187(16)
H7A H 0.7896 0.4795 0.5340
C10A C 0.7499(3) 0.5836(4) 0.67563(16)
H8A H 0.7595 0.6262 0.7168
Co1_2 Co 1.50906(3) 0.39034(4) 0.834781(16)
Co1A_2 Co 1.49094(3) 0.39034(4) 0.665219(16)
Co1B Co 1.49094(3) 0.60966(4) 1.165219(16)
O1A O 0.36146(18) 0.5903(2) 0.61298(9)
O4A_2 O 0.33676(18) 0.2752(2) 0.67444(9)
O5A_2 O 0.3746(2) 0.2285(2) 0.78191(9)
loop_
_geom_bond_atom_site_label_1
_geom_bond_atom_site_label_2
_geom_bond_site_symmetry_1
_geom_bond_site_symmetry_2
Co1 N2 1_555 1_555
N1 H1 1_555 1_555
N2 C3 1_555 1_555
N3 Co1 1_555 1_555
O1 Co1 1_555 1_555
O2 C11 1_555 1_555
O3 Co1 1_555 1_555
H2 O3 1_555 1_555
O4 Co1 1_555 1_555
O5 C16 1_555 1_555
S1 C9 1_555 1_555
C1 H3 1_555 1_555
C2 N1 1_555 1_555
C3 C2 1_555 1_555
C4 C3 1_555 1_555
H4 C4 1_555 1_555
C5 C4 1_555 1_555
H5 C5 1_555 1_555
C6 C1 1_555 1_555
H6 C6 1_555 1_555
C7 N1 1_555 1_555
C8 N3 1_555 1_555
C9 C8 1_555 1_555
H7 C9 1_555 1_555
C10 N3 1_555 1_555
H8 C10 1_555 1_555
C11 O1 1_555 1_555
C12 C11 1_555 1_555
H9 C12 1_555 1_555
H10 C12 1_555 1_555
C13 C12 1_555 1_555
C14 C13 1_555 1_555
H11 C14 1_555 1_555
C15 C13 1_555 1_555
H12 C15 1_555 1_555
C16 O4 1_555 1_555
C17 C16 1_555 1_555
H13 C17 1_555 1_555
H14 C17 1_555 1_555
C18 C17 1_555 1_555
C19 C18 1_555 1_555
H15 C19 1_555 1_555
C20 C18 1_555 1_555
H16 C20 1_555 1_555
O1B C11B 1_555 1_555
O2B C11B 1_555 1_555
C11B C12B 1_555 1_555
C12B H9B 1_555 1_555
H10B C12B 1_555 1_555
C13B C12B 1_555 1_555
C14B C15 1_555 1_555
H11B C14B 1_555 1_555
C15B C14 1_555 1_555
H12B C15B 1_555 1_555
H2A O3 1_555 1_555
O4A C16A 1_555 1_555
O5A C16A 1_555 1_555
C16A C17A 1_555 1_555
C17A H13A 1_555 1_555
H14A C17A 1_555 1_555
C18A C17A 1_555 1_555
C19A C19 1_555 1_555
H15A C19A 1_555 1_555
C20A C20 1_555 1_555
H16A C20A 1_555 1_555
Co1A O3 1_555 1_555
N1A H1A 1_555 1_555
N2A Co1A 1_555 1_555
N3A Co1A 1_555 1_555
S1A C9A 1_555 1_555
C1A H3A 1_555 1_555
C2A N1A 1_555 1_555
C3A N2A 1_555 1_555
C4A C3A 1_555 1_555
H4A C4A 1_555 1_555
C5A C4A 1_555 1_555
H5A C5A 1_555 1_555
C6A C1A 1_555 1_555
H6A C6A 1_555 1_555
C7A N1A 1_555 1_555
C8A N3A 1_555 1_555
C9A C8A 1_555 1_555
H7A C9A 1_555 1_555
C10A N3A 1_555 1_555
H8A C10A 1_555 1_555
Co1_2 O5A 1_555 1_555
Co1A_2 O4A 1_555 1_555
Co1B O1B 1_555 1_555
O1A Co1A 1_555 1_555
O4A_2 Co1A 1_555 1_555
O5A_2 Co1 1_555 1_555
N2 C7 1_555 1_555
O5 Co1A 1_555 1_555
S1 C10 1_555 1_555
C1 C2 1_555 1_555
C5 C6 1_555 1_555
C7 C8 1_555 1_555
C13B C14B 1_555 1_555
C13B C15B 1_555 1_555
C18A C19A 1_555 1_555
C18A C20A 1_555 1_555
N2A C7A 1_555 1_555
S1A C10A 1_555 1_555
C1A C2A 1_555 1_555
C2A C3A 1_555 1_555
C5A C6A 1_555 1_555
C7A C8A 1_555 1_555

#END
