
#######################################################################
#
#                 Cambridge Crystallographic Data Centre
#                                CCDC 
#
#######################################################################
#
# If this CIF has been generated from an entry in the Cambridge 
# Structural Database, then it will include bibliographic, chemical, 
# crystal, experimental, refinement or atomic coordinate data resulting 
# from the CCDC's data processing and validation procedures.
#
#######################################################################

data_NIFTED
_symmetry_cell_setting           monoclinic
_symmetry_space_group_name_H-M   'P 21/c'
_symmetry_Int_Tables_number      14
_space_group_name_Hall           '-P 2ybc'
loop_
_symmetry_equiv_pos_site_id
_symmetry_equiv_pos_as_xyz
1 x,y,z
2 -x,1/2+y,1/2-z
3 -x,-y,-z
4 x,1/2-y,1/2+z
_cell_length_a                   5.7507(10)
_cell_length_b                   16.135(3)
_cell_length_c                   19.664(3)
_cell_angle_alpha                90
_cell_angle_beta                 93.882(2)
_cell_angle_gamma                90
_cell_volume                     1820.39
loop_
_atom_site_label
_atom_site_type_symbol
_atom_site_fract_x
_atom_site_fract_y
_atom_site_fract_z
Co1 Co 0.44317(5) 0.151061(19) 0.296020(14)
N1 N 0.6599(3) 0.05297(12) 0.25847(9)
N2 N 0.2753(3) 0.04239(12) 0.32895(9)
N3 N 0.2923(3) -0.09489(12) 0.34222(10)
H1 H 0.3394 -0.1451 0.3383
O1 O 0.4980(3) 0.18902(10) 0.40214(8)
O2 O 0.1994(3) 0.23649(10) 0.33835(7)
O3 O -0.3032(3) 0.46189(12) 0.55191(9)
O4 O -0.3443(3) 0.43375(12) 0.44058(9)
H2 H -0.4575 0.4672 0.4430
O5 O 0.3150(3) 0.33228(11) 0.69565(8)
O6 O 0.7183(3) 0.23817(10) 0.28278(8)
H3 H 0.6994 0.2372 0.2395
H4 H 0.8635 0.2375 0.2941
O7 O 0.6043(3) 0.26453(11) 0.64913(8)
S1 S 0.91036(12) -0.04945(5) 0.19727(3)
C1 C -0.2262(4) 0.01972(17) 0.43837(12)
H5 H -0.3435 0.0484 0.4587
C2 C -0.2121(4) -0.06610(17) 0.44637(13)
H6 H -0.3192 -0.0929 0.4721
C3 C -0.0431(4) -0.11213(17) 0.41697(13)
H7 H -0.0329 -0.1693 0.4222
C4 C 0.1101(4) -0.06828(15) 0.37932(12)
C5 C 0.1006(4) 0.01808(15) 0.37120(11)
C6 C -0.0716(4) 0.06332(16) 0.40130(12)
H8 H -0.0819 0.1206 0.3966
C7 C 0.3815(4) -0.02741(15) 0.31360(12)
C8 C 0.5779(4) -0.02555(15) 0.27075(12)
C9 C 0.6904(4) -0.08845(17) 0.24158(13)
H9 H 0.6534 -0.1443 0.2451
C10 C 0.8371(4) 0.04866(16) 0.22040(12)
H10 H 0.9170 0.0953 0.2070
C11 C 0.3163(4) 0.23206(14) 0.39531(11)
C12 C 0.2371(4) 0.27818(14) 0.45612(11)
C13 C 0.3637(4) 0.27310(14) 0.51861(11)
H11 H 0.5006 0.2423 0.5223
C14 C 0.2889(4) 0.31348(14) 0.57592(11)
C15 C 0.0902(4) 0.36254(15) 0.56811(11)
H12 H 0.0405 0.3912 0.6055
C16 C -0.0348(4) 0.36962(14) 0.50597(12)
C17 C 0.0343(4) 0.32578(14) 0.44970(11)
H13 H -0.0539 0.3282 0.4083
C18 C -0.2406(4) 0.42576(15) 0.50116(12)
C19 C 0.4139(4) 0.30305(14) 0.64538(11)
Co1C Co 0.44317(5) 0.348939(19) 0.796020(14)
O5C O 0.3150(3) 0.16772(11) 0.19565(8)
loop_
_geom_bond_atom_site_label_1
_geom_bond_atom_site_label_2
_geom_bond_site_symmetry_1
_geom_bond_site_symmetry_2
Co1 N1 1_555 1_555
N1 C8 1_555 1_555
N2 Co1 1_555 1_555
N3 H1 1_555 1_555
O1 Co1 1_555 1_555
O2 Co1 1_555 1_555
O3 C18 1_555 1_555
O4 H2 1_555 1_555
O5 C19 1_555 1_555
O6 Co1 1_555 1_555
H3 O6 1_555 1_555
H4 O6 1_555 1_555
O7 C19 1_555 1_555
S1 C9 1_555 1_555
C1 H5 1_555 1_555
C2 C1 1_555 1_555
H6 C2 1_555 1_555
C3 C2 1_555 1_555
H7 C3 1_555 1_555
C4 N3 1_555 1_555
C5 N2 1_555 1_555
C6 C1 1_555 1_555
H8 C6 1_555 1_555
C7 N2 1_555 1_555
C8 C7 1_555 1_555
C9 C8 1_555 1_555
H9 C9 1_555 1_555
C10 N1 1_555 1_555
H10 C10 1_555 1_555
C11 O1 1_555 1_555
C12 C11 1_555 1_555
C13 C12 1_555 1_555
H11 C13 1_555 1_555
C14 C13 1_555 1_555
C15 C14 1_555 1_555
H12 C15 1_555 1_555
C16 C15 1_555 1_555
C17 C12 1_555 1_555
H13 C17 1_555 1_555
C18 O4 1_555 1_555
C19 C14 1_555 1_555
Co1C O5 1_555 1_555
O5C Co1 1_555 1_555
N3 C7 1_555 1_555
O2 C11 1_555 1_555
S1 C10 1_555 1_555
C3 C4 1_555 1_555
C4 C5 1_555 1_555
C5 C6 1_555 1_555
C16 C17 1_555 1_555
C16 C18 1_555 1_555

#END
