
#######################################################################
#
#                 Cambridge Crystallographic Data Centre
#                                CCDC 
#
#######################################################################
#
# If this CIF has been generated from an entry in the Cambridge 
# Structural Database, then it will include bibliographic, chemical, 
# crystal, experimental, refinement or atomic coordinate data resulting 
# from the CCDC's data processing and validation procedures.
#
#######################################################################

data_NIFTON
_symmetry_cell_setting           monoclinic
_symmetry_space_group_name_H-M   'P 21/c'
_symmetry_Int_Tables_number      14
_space_group_name_Hall           '-P 2ybc'
loop_
_symmetry_equiv_pos_site_id
_symmetry_equiv_pos_as_xyz
1 x,y,z
2 -x,1/2+y,1/2-z
3 -x,-y,-z
4 x,1/2-y,1/2+z
_cell_length_a                   17.236(2)
_cell_length_b                   6.6721(8)
_cell_length_c                   12.6429(15)
_cell_angle_alpha                90
_cell_angle_beta                 104.020(2)
_cell_angle_gamma                90
_cell_volume                     1410.63
loop_
_atom_site_label
_atom_site_type_symbol
_atom_site_fract_x
_atom_site_fract_y
_atom_site_fract_z
C1 C 0.6307(3) 0.4417(7) 0.0095(4)
C2 C 0.5747(3) 0.4339(7) -0.1006(4)
C3 C 0.7165(3) 0.3072(7) 0.1498(4)
C4 C 0.7743(3) 0.1670(8) 0.2151(4)
C5 C 0.7994(3) 0.0009(7) 0.1704(4)
H1 H 0.7797 -0.0236 0.0963
C6 C 0.8545(3) -0.1349(8) 0.2333(4)
C7 C 0.8815(4) -0.3083(8) 0.1880(5)
H2 H 0.8616 -0.3361 0.1143
C8 C 0.9358(4) -0.4342(9) 0.2498(6)
H3 H 0.9522 -0.5478 0.2187
C9 C 0.9668(4) -0.3938(10) 0.3595(6)
H4 H 1.0050 -0.4792 0.4009
C10 C 0.9422(4) -0.2307(9) 0.4075(5)
H5 H 0.9630 -0.2071 0.4814
C11 C 0.8850(4) -0.0963(8) 0.3452(5)
C12 C 0.8587(4) 0.0766(9) 0.3893(5)
H6 H 0.8787 0.1044 0.4630
C13 C 0.8048(4) 0.2051(8) 0.3275(4)
H7 H 0.7880 0.3177 0.3592
C14 C 0.6397(3) 0.5627(7) 0.0992(3)
C15 C 0.5986(3) 0.7541(7) 0.1176(4)
N1 N 0.6935(2) 0.4785(5) 0.1869(3)
N2 N 0.6803(2) 0.2813(6) 0.0430(3)
H8 H 0.6872 0.1816 0.0032
O1 O 0.5823(2) 0.2851(4) -0.1605(2)
O2 O 0.52257(18) 0.5662(4) -0.1290(2)
O3 O 0.5694(2) 0.8697(4) 0.0401(3)
O4 O 0.5931(2) 0.7870(5) 0.2134(2)
O5 O 0.3100(2) 0.4217(5) -0.4003(3)
H9 H 0.2961 0.4344 -0.3406
H10 H 0.2725 0.3655 -0.4471
Sr1 Sr 0.47635(3) 0.43459(6) -0.33779(3)
O1A O 0.4177(2) 0.7851(4) -0.3395(2)
O2A O 0.47743(18) 0.0662(4) -0.3710(2)
O3A O 0.4306(2) 0.3697(4) -0.5401(3)
O3C O 0.5694(2) 0.6303(4) -0.4599(3)
O4B O 0.4069(2) 0.2130(5) -0.2134(2)
O4C O 0.5931(2) 0.7130(5) -0.2866(2)
Sr1A Sr 0.52365(3) -0.06541(6) -0.16221(3)
Sr1A_2 Sr 0.52365(3) 0.93459(6) -0.16221(3)
Sr1B Sr 0.52365(3) 0.56541(6) 0.33779(3)
Sr1C Sr 0.47635(3) 1.06541(6) 0.16221(3)
loop_
_geom_bond_atom_site_label_1
_geom_bond_atom_site_label_2
_geom_bond_site_symmetry_1
_geom_bond_site_symmetry_2
C1 C2 1_555 1_555
C2 O1 1_555 1_555
C3 C4 1_555 1_555
C4 C5 1_555 1_555
C5 H1 1_555 1_555
C6 C5 1_555 1_555
C7 C6 1_555 1_555
H2 C7 1_555 1_555
C8 C7 1_555 1_555
H3 C8 1_555 1_555
C9 C8 1_555 1_555
H4 C9 1_555 1_555
C10 C9 1_555 1_555
H5 C10 1_555 1_555
C11 C6 1_555 1_555
C12 C11 1_555 1_555
H6 C12 1_555 1_555
C13 C4 1_555 1_555
H7 C13 1_555 1_555
C14 C1 1_555 1_555
C15 C14 1_555 1_555
N1 C3 1_555 1_555
N2 C1 1_555 1_555
H8 N2 1_555 1_555
O1 Sr1 1_555 1_555
O2 C2 1_555 1_555
O3 C15 1_555 1_555
O4 C15 1_555 1_555
O5 H9 1_555 1_555
H10 O5 1_555 1_555
Sr1 O2 1_555 1_555
O1A Sr1 1_555 1_555
O2A Sr1 1_555 1_555
O3A Sr1 1_555 1_555
O3C Sr1 1_555 1_555
O4B Sr1 1_555 1_555
O4C Sr1 1_555 1_555
Sr1A O1 1_555 1_555
Sr1A_2 O2 1_555 1_555
Sr1B O4 1_555 1_555
Sr1C O3 1_555 1_555
C3 N2 1_555 1_555
C10 C11 1_555 1_555
C12 C13 1_555 1_555
C14 N1 1_555 1_555
O3 Sr1A_2 1_555 1_555
O4 Sr1C 1_555 1_555
O5 Sr1 1_555 1_555
O1A Sr1A_2 1_555 1_555
O2A Sr1A 1_555 1_555
O4B Sr1A 1_555 1_555
O4C Sr1A_2 1_555 1_555

#END
