
#######################################################################
#
#                 Cambridge Crystallographic Data Centre
#                                CCDC 
#
#######################################################################
#
# If this CIF has been generated from an entry in the Cambridge 
# Structural Database, then it will include bibliographic, chemical, 
# crystal, experimental, refinement or atomic coordinate data resulting 
# from the CCDC's data processing and validation procedures.
#
#######################################################################

data_NIFYUW
_symmetry_cell_setting           monoclinic
_symmetry_space_group_name_H-M   'C 2/c'
_symmetry_Int_Tables_number      15
_space_group_name_Hall           '-C 2yn'
loop_
_symmetry_equiv_pos_site_id
_symmetry_equiv_pos_as_xyz
1 x,y,z
2 -x,y,1/2-z
3 1/2+x,1/2+y,z
4 1/2-x,1/2+y,1/2-z
5 -x,-y,-z
6 x,-y,1/2+z
7 1/2-x,1/2-y,-z
8 1/2+x,1/2-y,1/2+z
_cell_length_a                   15.325(3)
_cell_length_b                   19.058(4)
_cell_length_c                   15.373(3)
_cell_angle_alpha                90
_cell_angle_beta                 95.98(3)
_cell_angle_gamma                90
_cell_volume                     4465.46
loop_
_atom_site_label
_atom_site_type_symbol
_atom_site_fract_x
_atom_site_fract_y
_atom_site_fract_z
C20 C 0.4030(2) 0.7271(2) 0.7374(2)
C21 C 0.5000 0.7448(2) 0.7500
C22 C 0.5190(2) 0.8105(2) 0.6989(2)
C23 C 0.5000 0.8759(2) 0.7500
C24 C 0.5089(2) 0.9414(2) 0.6942(2)
C25 C 0.5000 1.0066(2) 0.7500
C20A C 0.5970(2) 0.7271(2) 0.7626(2)
C22A C 0.4810(2) 0.8105(2) 0.8011(2)
C24A C 0.4911(2) 0.9414(2) 0.8058(2)
C1 C 0.4923(2) 0.5034(2) 0.3670(2)
C2 C 0.4796(2) 0.4333(2) 0.3937(2)
C3 C 0.5563(2) 0.4138(2) 0.4498(2)
C4 C 0.6157(2) 0.4695(2) 0.4557(2)
C5 C 0.5782(2) 0.5262(2) 0.4037(2)
C6 C 0.7050(2) 0.6448(2) 0.2319(2)
C7 C 0.7538(2) 0.6327(2) 0.1637(2)
C8 C 0.7795(2) 0.5668(2) 0.1456(2)
C9 C 0.7578(2) 0.5110(2) 0.1962(2)
C10 C 0.7099(2) 0.5225(2) 0.2674(2)
C11 C 0.6844(2) 0.5910(2) 0.2862(3)
C12 C 0.7900(2) 0.6035(2) 0.4736(2)
C13 C 0.8521(2) 0.6208(2) 0.5442(2)
C14 C 0.8286(2) 0.6621(2) 0.6073(2)
C15 C 0.7453(2) 0.6897(2) 0.6032(2)
C16 C 0.6848(2) 0.6740(2) 0.5332(2)
C17 C 0.7065(2) 0.6299(2) 0.4680(2)
C18 C 0.4028(2) 0.7924(2) 0.4098(2)
O1 O 0.4321(2) 0.7729(2) 0.3395(2)
O2 O 0.4014(2) 0.7597(2) 0.4777(2)
C19 C 0.3282(2) 0.8490(2) 0.3917(2)
Au1 Au 0.52386(2) 0.69246(2) 0.35557(2)
Fe1 Fe 0.5000 0.5000 0.5000
P1 P 0.6238(1) 0.6086(1) 0.3794(1)
F1 F 0.2680(2) 0.8300(2) 0.3268(2)
F2 F 0.3702(2) 0.9057(2) 0.3663(2)
F3 F 0.2890(2) 0.8640(2) 0.4618(2)
C1D C 0.5077(2) 0.4966(2) 0.6330(2)
C2D C 0.5204(2) 0.5667(2) 0.6063(2)
C3D C 0.4437(2) 0.5862(2) 0.5502(2)
C4D C 0.3843(2) 0.5305(2) 0.5443(2)
C5D C 0.4218(2) 0.4738(2) 0.5963(2)
Au1A Au 0.47614(2) 0.69246(2) 0.14443(2)
O1A O 0.5679(2) 0.7729(2) 0.1605(2)
C18A C 0.5972(2) 0.7924(2) 0.0902(2)
O2A O 0.5986(2) 0.7597(2) 0.0223(2)
C19A C 0.6718(2) 0.8490(2) 0.1083(2)
F1A F 0.7320(2) 0.8300(2) 0.1732(2)
F2A F 0.6298(2) 0.9057(2) 0.1337(2)
F3A F 0.7110(2) 0.8640(2) 0.0382(2)
P1A P 0.3762(1) 0.6086(1) 0.1206(1)
P1D P 0.3762(1) 0.3914(1) 0.6206(1)
C11D C 0.3156(2) 0.4090(2) 0.7138(3)
C6D C 0.2950(2) 0.3552(2) 0.7681(2)
C7D C 0.2462(2) 0.3673(2) 0.8363(2)
C8D C 0.2205(2) 0.4332(2) 0.8544(2)
C9D C 0.2422(2) 0.4890(2) 0.8038(2)
C10D C 0.2901(2) 0.4775(2) 0.7326(2)
C17D C 0.2935(2) 0.3701(2) 0.5320(2)
C12D C 0.2100(2) 0.3965(2) 0.5264(2)
C13D C 0.1479(2) 0.3792(2) 0.4558(2)
C14D C 0.1714(2) 0.3379(2) 0.3927(2)
C15D C 0.2547(2) 0.3103(2) 0.3968(2)
C16D C 0.3152(2) 0.3260(2) 0.4668(2)
Au1D Au 0.47614(2) 0.30754(2) 0.64443(2)
O3? O 0.4378(2) 0.7876(2) 0.4835(2)
F4? F 0.2922(2) 0.8570(2) 0.3106(2)
F5? F 0.3603(2) 0.9104(2) 0.4226(2)
F6? F 0.2646(2) 0.8300(2) 0.4419(2)
F7? F 0.3318(2) 0.8825(2) 0.3157(2)
F8? F 0.3290(2) 0.8969(2) 0.4544(2)
F9? F 0.2532(2) 0.8130(2) 0.3880(2)
loop_
_geom_bond_atom_site_label_1
_geom_bond_atom_site_label_2
_geom_bond_site_symmetry_1
_geom_bond_site_symmetry_2
C1 C2 1_555 1_555
C2 C3 1_555 1_555
C3 C4 1_555 1_555
C4 C5 1_555 1_555
C5 C1 1_555 1_555
C6 C7 1_555 1_555
C7 C8 1_555 1_555
C8 C9 1_555 1_555
C9 C10 1_555 1_555
C10 C11 1_555 1_555
C11 C6 1_555 1_555
C12 C13 1_555 1_555
C13 C14 1_555 1_555
C14 C15 1_555 1_555
C15 C16 1_555 1_555
C16 C17 1_555 1_555
C17 C12 1_555 1_555
C18 O1 1_555 1_555
O1 Au1 1_555 1_555
O2 C18 1_555 1_555
C19 C18 1_555 1_555
Au1 P1 1_555 1_555
Fe1 C1 1_555 1_555
P1 C5 1_555 1_555
F1 C19 1_555 1_555
F2 C19 1_555 1_555
F3 C19 1_555 1_555
C20 C21 1_555 1_555
C21 C22 1_555 1_555
C22 C23 1_555 1_555
C23 C24 1_555 1_555
C24 C25 1_555 1_555
C25 C24A 1_555 1_555
C1D Fe1 1_555 1_555
C2D Fe1 1_555 1_555
C3D Fe1 1_555 1_555
C4D Fe1 1_555 1_555
C5D Fe1 1_555 1_555
Au1A Au1 1_555 1_555
O1A Au1A 1_555 1_555
C18A O1A 1_555 1_555
O2A C18A 1_555 1_555
C19A C18A 1_555 1_555
F1A C19A 1_555 1_555
F2A C19A 1_555 1_555
F3A C19A 1_555 1_555
P1A Au1A 1_555 1_555
P1D C5D 1_555 1_555
C11D P1D 1_555 1_555
C6D C11D 1_555 1_555
C7D C6D 1_555 1_555
C8D C7D 1_555 1_555
C9D C8D 1_555 1_555
C10D C11D 1_555 1_555
C17D P1D 1_555 1_555
C12D C17D 1_555 1_555
C13D C12D 1_555 1_555
C14D C13D 1_555 1_555
C15D C14D 1_555 1_555
C16D C17D 1_555 1_555
Au1D P1D 1_555 1_555
C20A C21 1_555 1_555
C22A C21 1_555 1_555
C24A C23 1_555 1_555
C2 Fe1 1_555 1_555
C3 Fe1 1_555 1_555
C4 Fe1 1_555 1_555
C5 Fe1 1_555 1_555
C11 P1 1_555 1_555
C17 P1 1_555 1_555
C22 C22A 1_555 1_555
C23 C22A 1_555 1_555
C1D C2D 1_555 1_555
C1D C5D 1_555 1_555
C2D C3D 1_555 1_555
C3D C4D 1_555 1_555
C4D C5D 1_555 1_555
C9D C10D 1_555 1_555
C15D C16D 1_555 1_555

#END
