
#######################################################################
#
#                 Cambridge Crystallographic Data Centre
#                                CCDC 
#
#######################################################################
#
# If this CIF has been generated from an entry in the Cambridge 
# Structural Database, then it will include bibliographic, chemical, 
# crystal, experimental, refinement or atomic coordinate data resulting 
# from the CCDC's data processing and validation procedures.
#
#######################################################################

data_NIFZOT
_symmetry_cell_setting           orthorhombic
_symmetry_space_group_name_H-M   'P b c a'
_symmetry_Int_Tables_number      61
_space_group_name_Hall           '-P 2ac 2ab'
loop_
_symmetry_equiv_pos_site_id
_symmetry_equiv_pos_as_xyz
1 x,y,z
2 1/2-x,-y,1/2+z
3 1/2+x,1/2-y,-z
4 -x,1/2+y,1/2-z
5 -x,-y,-z
6 1/2+x,y,1/2-z
7 1/2-x,1/2+y,z
8 x,1/2-y,1/2+z
_cell_length_a                   49.0783(10)
_cell_length_b                   18.7144(3)
_cell_length_c                   18.5617(4)
_cell_angle_alpha                90
_cell_angle_beta                 90
_cell_angle_gamma                90
_cell_volume                     17048.4
loop_
_atom_site_label
_atom_site_type_symbol
_atom_site_fract_x
_atom_site_fract_y
_atom_site_fract_z
Gd1 Gd 0.378550(7) -0.07956(2) 0.30156(2)
Gd2 Gd 0.377538(7) 0.09683(2) 0.14169(2)
Gd3 Gd 0.124235(8) -0.02016(2) 0.19680(3)
Co1 Co 0.246373(19) 0.11716(5) 0.46401(6)
Co2 Co 0.001884(19) 0.24698(5) 0.11218(6)
C1 C 0.41808(16) -0.0544(5) 0.1532(5)
C2 C 0.45534(15) -0.1429(4) 0.1277(5)
H1 H 0.4494 -0.1683 0.1678
C3 C 0.44119(16) -0.0816(5) 0.1064(5)
C4 C 0.44855(17) -0.0476(5) 0.0434(5)
H2 H 0.4384 -0.0095 0.0257
C5 C 0.47136(17) -0.0719(5) 0.0075(5)
H3 H 0.4771 -0.0485 -0.0340
C6 C 0.48544(15) -0.1290(4) 0.0317(5)
C7 C 0.51136(16) -0.1550(4) -0.0002(4)
C8 C 0.52294(16) -0.1265(5) -0.0609(5)
H4 H 0.5141 -0.0903 -0.0860
C9 C 0.54756(16) -0.1514(4) -0.0842(5)
H5 H 0.5560 -0.1307 -0.1240
C10 C 0.55983(15) -0.2074(4) -0.0483(4)
C11 C 0.54694(15) -0.2347(4) 0.0112(5)
H6 H 0.5553 -0.2720 0.0358
C12 C 0.58600(15) -0.2418(4) -0.0734(5)
C13 C 0.41669(17) 0.0806(4) 0.2880(5)
C14 C 0.45765(15) 0.1504(4) 0.3346(4)
H7 H 0.4565 0.1794 0.2940
C15 C 0.43838(16) 0.0963(4) 0.3429(5)
C16 C 0.44002(18) 0.0556(5) 0.4060(5)
H8 H 0.4270 0.0209 0.4157
C17 C 0.46107(17) 0.0675(5) 0.4537(5)
H9 H 0.4624 0.0398 0.4952
C18 C 0.48012(16) 0.1200(4) 0.4403(4)
C19 C 0.50323(15) 0.1354(4) 0.4872(4)
C20 C 0.50964(18) 0.0966(5) 0.5479(5)
H10 H 0.4981 0.0605 0.5638
C21 C 0.53337(18) 0.1117(5) 0.5851(5)
H11 H 0.5381 0.0846 0.6253
C22 C 0.55010(17) 0.1671(5) 0.5626(4)
C23 C 0.54140(16) 0.2070(5) 0.5029(5)
H12 H 0.5520 0.2454 0.4879
C24 C 0.57642(18) 0.1849(6) 0.6009(5)
C25 C 0.33901(17) 0.0685(5) 0.2953(5)
C26 C 0.29570(16) 0.0937(5) 0.3663(5)
H13 H 0.2983 0.0510 0.3910
C27 C 0.31528(17) 0.1141(5) 0.3149(5)
C28 C 0.31122(19) 0.1798(5) 0.2806(5)
H14 H 0.3241 0.1965 0.2478
C29 C 0.28851(19) 0.2197(5) 0.2950(5)
H15 H 0.2857 0.2633 0.2721
C30 C 0.26988(17) 0.1940(4) 0.3440(4)
C31 C 0.24340(17) 0.2305(4) 0.3571(5)
C32 C 0.23525(19) 0.2909(5) 0.3213(5)
H16 H 0.2466 0.3125 0.2876
C33 C 0.2093(2) 0.3195(5) 0.3366(5)
H17 H 0.2034 0.3608 0.3134
C34 C 0.19300(17) 0.2864(5) 0.3855(5)
C35 C 0.20297(16) 0.2269(4) 0.4217(5)
H18 H 0.1921 0.2058 0.4567
C36 C 0.16516(18) 0.3140(5) 0.4034(6)
C37 C 0.32932(18) 0.3070(5) 0.5491(6)
C38 C 0.29067(15) 0.2238(4) 0.5164(5)
H19 H 0.3020 0.2042 0.4813
C39 C 0.30061(16) 0.2807(5) 0.5579(5)
C40 C 0.28364(17) 0.3111(5) 0.6074(5)
H20 H 0.2894 0.3502 0.6343
C41 C 0.25751(18) 0.2826(5) 0.6171(5)
H21 H 0.2457 0.3023 0.6509
C42 C 0.24965(16) 0.2255(4) 0.5761(5)
C43 C 0.22370(16) 0.1860(4) 0.5896(4)
C44 C 0.20498(17) 0.2076(5) 0.6409(5)
H22 H 0.2070 0.2510 0.6646
C45 C 0.18313(18) 0.1633(5) 0.6564(5)
H23 H 0.1706 0.1761 0.6916
C46 C 0.18015(16) 0.1004(5) 0.6194(5)
C47 C 0.19873(15) 0.0843(4) 0.5643(5)
H24 H 0.1962 0.0430 0.5373
C48 C 0.15767(17) 0.0481(5) 0.6407(5)
C49 C 0.32992(17) -0.0115(6) 0.6119(5)
C50 C 0.28936(15) 0.0368(5) 0.5466(5)
H25 H 0.2949 0.0817 0.5625
C51 C 0.30464(16) -0.0216(5) 0.5667(5)
C52 C 0.29625(18) -0.0884(6) 0.5423(5)
H26 H 0.3064 -0.1289 0.5533
C53 C 0.27304(18) -0.0944(5) 0.5023(5)
H27 H 0.2668 -0.1389 0.4873
C54 C 0.25894(16) -0.0328(5) 0.4844(4)
C55 C 0.23356(16) -0.0326(5) 0.4405(5)
C56 C 0.21912(19) -0.0945(5) 0.4221(6)
H28 H 0.2250 -0.1392 0.4376
C57 C 0.19644(18) -0.0879(5) 0.3812(6)
H29 H 0.1863 -0.1284 0.3697
C58 C 0.18809(16) -0.0223(5) 0.3564(5)
C59 C 0.20298(16) 0.0369(5) 0.3771(4)
H30 H 0.1973 0.0815 0.3608
C60 C 0.16350(18) -0.0141(6) 0.3079(5)
C61 C 0.08865(19) 0.0964(5) 0.2230(7)
C62 C 0.04888(16) 0.1698(4) 0.1778(5)
H31 H 0.0547 0.1602 0.1311
C63 C 0.06404(17) 0.1417(5) 0.2360(5)
C64 C 0.05510(18) 0.1551(5) 0.3048(5)
H32 H 0.0642 0.1362 0.3444
C65 C 0.03213(19) 0.1975(5) 0.3141(6)
H33 H 0.0260 0.2079 0.3604
C66 C 0.01839(17) 0.2239(4) 0.2559(5)
C67 C -0.0052(2) 0.2721(6) 0.2593(6)
C68 C -0.0167(2) 0.2939(6) 0.3234(6)
H34 H -0.0098 0.2780 0.3672
C69 C -0.0388(2) 0.3402(6) 0.3209(6)
H35 H -0.0470 0.3556 0.3634
C70 C -0.0481(2) 0.3622(6) 0.2578(7)
C71 C -0.0367(2) 0.3378(6) 0.1931(6)
H36 H -0.0438 0.3527 0.1492
C72 C -0.0735(2) 0.4117(7) 0.2593(7)
N1 N 0.52266(13) -0.2105(3) 0.0361(4)
N2 N 0.47713(12) -0.1659(3) 0.0918(3)
N3 N 0.51867(12) 0.1920(3) 0.4670(3)
N4 N 0.47760(12) 0.1628(3) 0.3814(4)
N5 N 0.27370(13) 0.1322(4) 0.3815(4)
N6 N 0.22753(13) 0.1985(3) 0.4086(4)
N7 N 0.26561(12) 0.1963(3) 0.5249(4)
N8 N 0.21972(12) 0.1258(3) 0.5496(3)
N9 N 0.26715(13) 0.0327(4) 0.5057(4)
N10 N 0.22507(13) 0.0340(4) 0.4193(4)
N11 N 0.02667(12) 0.2092(3) 0.1872(4)
N12 N -0.01485(16) 0.2917(4) 0.1950(4)
O1 O 0.41172(12) -0.0906(3) 0.2065(4)
O2 O 0.40740(11) 0.0031(3) 0.1317(3)
O3 O 0.59033(13) -0.3040(3) -0.0554(4)
O4 O 0.60074(11) -0.2046(3) -0.1151(3)
O5 O 0.40351(12) 0.0251(3) 0.2991(4)
O6 O 0.41312(11) 0.1231(3) 0.2369(3)
O7 O 0.58616(14) 0.2450(4) 0.5920(4)
O8 O 0.34299(12) 0.0121(4) 0.3294(3)
O9 O 0.15495(14) 0.3571(4) 0.3597(4)
O10 O 0.15458(15) 0.2915(5) 0.4599(5)
H37 H 0.1490 0.3253 0.4838
O11 O 0.33999(16) 0.2997(6) 0.4894(4)
O12 O 0.33994(12) 0.3375(4) 0.6011(4)
O13 O 0.14510(11) 0.0626(4) 0.6966(3)
O14 O 0.15424(12) -0.0064(4) 0.6019(4)
O15 O 0.33263(12) 0.0487(4) 0.6420(4)
O16 O 0.34719(12) -0.0596(4) 0.6165(4)
O17 O 0.16057(14) 0.0426(4) 0.2736(4)
O18 O 0.14791(13) -0.0652(4) 0.3018(4)
O19 O 0.10082(16) 0.0703(5) 0.2758(5)
O20 O 0.09511(13) 0.0833(4) 0.1594(4)
O21 O -0.07805(16) 0.4435(4) 0.3151(4)
O22 O -0.08621(16) 0.4145(4) 0.2044(5)
O23 O 0.38073(16) -0.0361(4) 0.4300(4)
H38 H 0.3840 0.0101 0.4309
H39 H 0.3652 -0.0416 0.4509
O24 O 0.37763(15) -0.2007(4) 0.2496(5)
H40 H 0.3774 -0.2323 0.2843
H41 H 0.3628 -0.2065 0.2257
O25 O 0.38466(17) 0.0929(4) 0.0136(4)
H42 H 0.3853 0.0502 -0.0012
H43 H 0.3713 0.1144 -0.0082
O26 O 0.12703(15) -0.1514(4) 0.1830(5)
H44 H 0.1262 -0.1714 0.2254
H45 H 0.1132 -0.1663 0.1592
O27 O 0.11187(17) -0.0517(4) 0.0727(4)
H46 H 0.1104 -0.0974 0.0683
H47 H 0.0960 -0.0339 0.0623
O28 O 0.58593(13) 0.1358(4) 0.6374(4)
O29 O 0.35321(13) 0.0905(4) 0.2436(3)
Gd1A Gd 0.121450(7) 0.07956(2) 0.80156(2)
Gd1D Gd 0.621450(7) 0.07956(2) 0.69844(2)
Gd1F Gd 0.121450(7) 0.42044(2) 0.30156(2)
Gd2A Gd 0.122462(7) -0.09683(2) 0.64169(2)
Gd2D Gd 0.622462(7) -0.09683(2) -0.14169(2)
Gd2G Gd 0.377538(7) 0.40317(2) 0.64169(2)
Gd3A Gd 0.375765(8) 0.02016(2) 0.69680(3)
Gd3C Gd -0.124235(8) 0.47984(2) 0.30320(3)
Co2E Co 0.501884(19) 0.24698(5) 0.38782(6)
Co2F Co 0.498116(19) -0.25302(5) 0.11218(6)
N1F N -0.02266(13) 0.2895(3) 0.0361(4)
N2F N 0.02287(12) 0.3341(3) 0.0918(3)
N3E N 0.01867(12) 0.1920(3) 0.0330(3)
N4E N -0.02240(12) 0.1628(3) 0.1186(4)
O4D O 0.39926(11) 0.2046(3) 0.1151(3)
O9F O 0.34505(14) -0.1429(4) 0.3597(4)
O12G O 0.33994(12) 0.1625(4) 0.1011(4)
O13A O 0.35490(11) -0.0626(4) 0.1966(3)
O14A O 0.34576(12) 0.0064(4) 0.1019(4)
O15A O 0.16737(12) -0.0487(4) 0.1420(4)
O16A O 0.15281(12) 0.0596(4) 0.1165(4)
O21C O 0.07805(16) -0.0565(4) 0.1849(4)
O22C O 0.08621(16) -0.0855(4) 0.2956(5)
O28D O 0.41407(13) -0.1358(4) 0.3626(4)
Cl1 Cl 0.00652(5) 0.50353(14) 0.22427(15)
O30 O 0.01348(19) 0.4385(5) 0.2549(5)
O31 O -0.00776(19) 0.4885(5) 0.1583(5)
O32 O -0.0089(3) 0.5407(7) 0.2705(8)
O33 O 0.0258(5) 0.5543(12) 0.2104(14)
O34 O 0.03844(17) 0.0223(4) 0.1038(5)
H48 H 0.0406 -0.0221 0.0963
H49 H 0.0293 0.0402 0.0685
O35 O 0.11469(18) 0.1431(5) 0.0280(5)
H50 H 0.1212 0.1107 0.0567
H51 H 0.1060 0.1733 0.0548
O36 O 0.1192(4) 0.3307(12) 0.9981(12)
H52 H 0.1371 0.3369 0.9808
H53 H 0.1142 0.3770 0.9978
O37 O 0.0981(2) 0.2626(5) 0.1169(5)
H54 H 0.0869 0.2912 0.0926
H55 H 0.0882 0.2477 0.1531
O38 O 0.2059(2) 0.1419(6) 0.2283(6)
H56 H 0.1936 0.1156 0.2086
H57 H 0.1999 0.1513 0.2720
O39 O 0.2922(2) 0.3584(7) 0.2005(7)
H58 H 0.2912 0.3174 0.2196
H59 H 0.2989 0.3544 0.1579
O40 O 0.1025(4) 0.7579(12) 0.2890(12)
H60 H 0.0890 0.7836 0.3010
H61 H 0.1117 0.7792 0.2566
O41 O 0.3492(3) 0.0974(10) 0.4752(10)
H62 H 0.3439 0.0551 0.4775
H63 H 0.3589 0.1276 0.4479
O42 O 0.3659(3) 0.6875(8) 0.3339(8)
H64 H 0.3503 0.6919 0.3063
H65 H 0.3595 0.6785 0.3757
O43 O 0.3702(7) 0.1997(18) 0.4216(14)
O44 O 0.3814(6) 0.1718(16) 0.9052(16)
O45 O 0.3981(4) 0.9808(12) 0.9302(13)
O46? O 0.0341(4) 0.5307(11) 0.2033(11)
O47? O 0.2458(5) 0.4115(14) 0.1964(13)
O48? O 0.2617(5) 0.5080(12) 0.2621(13)
O49? O 0.2115(5) 0.4791(13) 0.2359(13)
O50? O 0.3844(6) 0.9680(15) 0.9329(16)
Cl2? Cl 0.23945(9) 0.4986(3) 0.2177(3)
O51? O 0.2374(4) 0.5217(10) 0.1457(11)
O52? O 0.2116(5) 0.5270(13) 0.1961(13)
O53? O 0.2519(4) 0.4566(12) 0.1734(11)
O54? O 0.2479(4) 0.5738(10) 0.2314(10)
O55? O 0.2375(4) 0.4696(10) 0.2877(11)
loop_
_geom_bond_atom_site_label_1
_geom_bond_atom_site_label_2
_geom_bond_site_symmetry_1
_geom_bond_site_symmetry_2
Gd1 O1 1_555 1_555
Gd2 O2 1_555 1_555
Gd3 O17 1_555 1_555
Co1 N5 1_555 1_555
Co2 N11 1_555 1_555
C1 C3 1_555 1_555
C2 H1 1_555 1_555
C3 C2 1_555 1_555
C4 C3 1_555 1_555
H2 C4 1_555 1_555
C5 C4 1_555 1_555
H3 C5 1_555 1_555
C6 C5 1_555 1_555
C7 C6 1_555 1_555
C8 C7 1_555 1_555
H4 C8 1_555 1_555
C9 C8 1_555 1_555
H5 C9 1_555 1_555
C10 C9 1_555 1_555
C11 C10 1_555 1_555
H6 C11 1_555 1_555
C12 C10 1_555 1_555
C13 C15 1_555 1_555
C14 H7 1_555 1_555
C15 C14 1_555 1_555
C16 C15 1_555 1_555
H8 C16 1_555 1_555
C17 C16 1_555 1_555
H9 C17 1_555 1_555
C18 C17 1_555 1_555
C19 C18 1_555 1_555
C20 C19 1_555 1_555
H10 C20 1_555 1_555
C21 C20 1_555 1_555
H11 C21 1_555 1_555
C22 C21 1_555 1_555
C23 C22 1_555 1_555
H12 C23 1_555 1_555
C24 C22 1_555 1_555
C25 C27 1_555 1_555
C26 H13 1_555 1_555
C27 C26 1_555 1_555
C28 C27 1_555 1_555
H14 C28 1_555 1_555
C29 C28 1_555 1_555
H15 C29 1_555 1_555
C30 C29 1_555 1_555
C31 C30 1_555 1_555
C32 C31 1_555 1_555
H16 C32 1_555 1_555
C33 C32 1_555 1_555
H17 C33 1_555 1_555
C34 C33 1_555 1_555
C35 C34 1_555 1_555
H18 C35 1_555 1_555
C36 C34 1_555 1_555
C37 C39 1_555 1_555
C38 H19 1_555 1_555
C39 C38 1_555 1_555
C40 C39 1_555 1_555
H20 C40 1_555 1_555
C41 C40 1_555 1_555
H21 C41 1_555 1_555
C42 C41 1_555 1_555
C43 C42 1_555 1_555
C44 C43 1_555 1_555
H22 C44 1_555 1_555
C45 C44 1_555 1_555
H23 C45 1_555 1_555
C46 C45 1_555 1_555
C47 C46 1_555 1_555
H24 C47 1_555 1_555
C48 C46 1_555 1_555
C49 C51 1_555 1_555
C50 H25 1_555 1_555
C51 C50 1_555 1_555
C52 C51 1_555 1_555
H26 C52 1_555 1_555
C53 C52 1_555 1_555
H27 C53 1_555 1_555
C54 C53 1_555 1_555
C55 C54 1_555 1_555
C56 C55 1_555 1_555
H28 C56 1_555 1_555
C57 C56 1_555 1_555
H29 C57 1_555 1_555
C58 C57 1_555 1_555
C59 C58 1_555 1_555
H30 C59 1_555 1_555
C60 C58 1_555 1_555
C61 C63 1_555 1_555
C62 H31 1_555 1_555
C63 C62 1_555 1_555
C64 C63 1_555 1_555
H32 C64 1_555 1_555
C65 C64 1_555 1_555
H33 C65 1_555 1_555
C66 C65 1_555 1_555
C67 C66 1_555 1_555
C68 C67 1_555 1_555
H34 C68 1_555 1_555
C69 C68 1_555 1_555
H35 C69 1_555 1_555
C70 C69 1_555 1_555
C71 C70 1_555 1_555
H36 C71 1_555 1_555
C72 C70 1_555 1_555
N1 C7 1_555 1_555
N2 C2 1_555 1_555
N3 C19 1_555 1_555
N4 C14 1_555 1_555
N5 C26 1_555 1_555
N6 Co1 1_555 1_555
N7 Co1 1_555 1_555
N8 Co1 1_555 1_555
N9 Co1 1_555 1_555
N10 Co1 1_555 1_555
N11 C62 1_555 1_555
N12 Co2 1_555 1_555
O1 C1 1_555 1_555
O2 C1 1_555 1_555
O3 C12 1_555 1_555
O4 C12 1_555 1_555
O5 Gd1 1_555 1_555
O6 Gd2 1_555 1_555
O7 C24 1_555 1_555
O8 Gd1 1_555 1_555
O9 C36 1_555 1_555
O10 C36 1_555 1_555
H37 O10 1_555 1_555
O11 C37 1_555 1_555
O12 C37 1_555 1_555
O13 C48 1_555 1_555
O14 C48 1_555 1_555
O15 C49 1_555 1_555
O16 C49 1_555 1_555
O17 C60 1_555 1_555
O18 Gd3 1_555 1_555
O19 Gd3 1_555 1_555
O20 Gd3 1_555 1_555
O21 C72 1_555 1_555
O22 C72 1_555 1_555
O23 Gd1 1_555 1_555
H38 O23 1_555 1_555
H39 O23 1_555 1_555
O24 Gd1 1_555 1_555
H40 O24 1_555 1_555
H41 O24 1_555 1_555
O25 Gd2 1_555 1_555
H42 O25 1_555 1_555
H43 O25 1_555 1_555
O26 Gd3 1_555 1_555
H44 O26 1_555 1_555
H45 O26 1_555 1_555
O27 Gd3 1_555 1_555
H46 O27 1_555 1_555
H47 O27 1_555 1_555
O28 C24 1_555 1_555
O29 Gd2 1_555 1_555
Cl1 O30 1_555 1_555
O31 Cl1 1_555 1_555
O32 Cl1 1_555 1_555
O33 Cl1 1_555 1_555
O34 H48 1_555 1_555
H49 O34 1_555 1_555
O35 H50 1_555 1_555
H51 O35 1_555 1_555
O36 H52 1_555 1_555
H53 O36 1_555 1_555
O37 H54 1_555 1_555
H55 O37 1_555 1_555
O38 H56 1_555 1_555
H57 O38 1_555 1_555
O39 H58 1_555 1_555
H59 O39 1_555 1_555
O40 H60 1_555 1_555
H61 O40 1_555 1_555
O41 H62 1_555 1_555
H63 O41 1_555 1_555
O42 H64 1_555 1_555
H65 O42 1_555 1_555
Gd1A O13 1_555 1_555
Gd1D O28 1_555 1_555
Gd1F O9 1_555 1_555
Gd2A O14 1_555 1_555
Gd2D O4 1_555 1_555
Gd2G O12 1_555 1_555
Gd3A O15 1_555 1_555
Gd3C O21 1_555 1_555
Co2E N3 1_555 1_555
Co2F N1 1_555 1_555
N1F Co2 1_555 1_555
N2F Co2 1_555 1_555
N3E Co2 1_555 1_555
N4E Co2 1_555 1_555
O4D Gd2 1_555 1_555
O9F Gd1 1_555 1_555
O12G Gd2 1_555 1_555
O13A Gd1 1_555 1_555
O14A Gd2 1_555 1_555
O15A Gd3 1_555 1_555
O16A Gd3 1_555 1_555
O21C Gd3 1_555 1_555
O22C Gd3 1_555 1_555
O28D Gd1 1_555 1_555
C6 N2 1_555 1_555
C11 N1 1_555 1_555
C13 O5 1_555 1_555
C13 O6 1_555 1_555
C18 N4 1_555 1_555
C23 N3 1_555 1_555
C25 O8 1_555 1_555
C25 O29 1_555 1_555
C30 N5 1_555 1_555
C31 N6 1_555 1_555
C35 N6 1_555 1_555
C38 N7 1_555 1_555
C42 N7 1_555 1_555
C43 N8 1_555 1_555
C47 N8 1_555 1_555
C50 N9 1_555 1_555
C54 N9 1_555 1_555
C55 N10 1_555 1_555
C59 N10 1_555 1_555
C60 O18 1_555 1_555
C61 O19 1_555 1_555
C61 O20 1_555 1_555
C66 N11 1_555 1_555
C67 N12 1_555 1_555
C71 N12 1_555 1_555
N2 Co2F 1_555 1_555
N4 Co2E 1_555 1_555
O16 Gd3A 1_555 1_555
O22 Gd3C 1_555 1_555

#END
