
#######################################################################
#
#                 Cambridge Crystallographic Data Centre
#                                CCDC 
#
#######################################################################
#
# If this CIF has been generated from an entry in the Cambridge 
# Structural Database, then it will include bibliographic, chemical, 
# crystal, experimental, refinement or atomic coordinate data resulting 
# from the CCDC's data processing and validation procedures.
#
#######################################################################

data_NIGFOZ
_symmetry_cell_setting           monoclinic
_symmetry_space_group_name_H-M   'C 2/c'
_symmetry_Int_Tables_number      15
_space_group_name_Hall           '-C 2yn'
loop_
_symmetry_equiv_pos_site_id
_symmetry_equiv_pos_as_xyz
1 x,y,z
2 1/2+x,1/2+y,z
3 -x,y,1/2-z
4 1/2-x,1/2+y,1/2-z
5 -x,-y,-z
6 1/2-x,1/2-y,-z
7 x,-y,1/2+z
8 1/2+x,1/2-y,1/2+z
_cell_length_a                   18.568(3)
_cell_length_b                   11.630(2)
_cell_length_c                   19.741(4)
_cell_angle_alpha                90
_cell_angle_beta                 107.202(4)
_cell_angle_gamma                90
_cell_volume                     4072.3
loop_
_atom_site_label
_atom_site_type_symbol
_atom_site_fract_x
_atom_site_fract_y
_atom_site_fract_z
Tb1 Tb 0.425372(19) 0.32777(3) 0.417076(18)
C1 C 0.3768(4) 0.4216(6) 0.2822(4)
C2 C 0.3479(4) 0.4743(6) 0.2098(4)
C3 C 0.2851(4) 0.5424(6) 0.1911(4)
H1 H 0.2579 0.5534 0.2233
C4 C 0.2607(4) 0.5957(7) 0.1252(4)
C5 C 0.3013(4) 0.5807(6) 0.0763(4)
H2 H 0.2859 0.6166 0.0323
C6 C 0.3648(4) 0.5114(6) 0.0948(4)
C7 C 0.3881(4) 0.4588(6) 0.1605(4)
H3 H 0.4309 0.4126 0.1722
C8 C 0.1930(4) 0.6731(6) 0.1075(4)
C9 C 0.4106(4) 0.4955(6) 0.0437(4)
C10 C 0.5508(6) 0.1769(7) 0.3679(5)
H4 H 0.5237 0.1952 0.3215
C11 C 0.6568(8) 0.1169(13) 0.3196(8)
H5 H 0.6633 0.0361 0.3135
H6 H 0.7052 0.1541 0.3324
H7 H 0.6254 0.1490 0.2761
C12 C 0.6613(12) 0.0807(17) 0.4453(11)
H8 H 0.6461 0.1163 0.4828
H9 H 0.7146 0.0904 0.4540
H10 H 0.6495 0.0002 0.4436
C13 C 0.6625(7) 0.2197(14) 0.6618(7)
H11 H 0.6800 0.2940 0.6524
H12 H 0.6977 0.1619 0.6570
H13 H 0.6584 0.2180 0.7091
C14 C 0.5650(8) 0.0797(11) 0.5991(8)
H14 H 0.5113 0.0778 0.5786
H15 H 0.5787 0.0382 0.6431
H16 H 0.5886 0.0447 0.5670
C15 C 0.5494(6) 0.2771(9) 0.5766(5)
H17 H 0.5692 0.3511 0.5837
N1 N 0.6207(5) 0.1349(9) 0.3768(5)
N2 N 0.5898(5) 0.1972(7) 0.6119(5)
O1 O 0.3468(3) 0.4526(5) 0.3292(3)
O2 O 0.4295(3) 0.3519(4) 0.2956(3)
O3 O 0.1567(4) 0.6819(6) 0.1518(4)
O4 O 0.1731(4) 0.7244(6) 0.0511(3)
O5 O 0.3841(3) 0.5344(5) -0.0180(3)
O6 O 0.4720(3) 0.4450(5) 0.0657(3)
O7 O 0.4867(4) 0.2661(6) 0.5339(3)
O8 O 0.5194(4) 0.1934(5) 0.4104(3)
Tb1C Tb 0.074628(19) 0.82777(3) 0.082924(18)
Tb1F Tb 0.425372(19) 0.67223(3) -0.082924(18)
Tb1B Tb 0.574628(19) 0.32777(3) 0.082924(18)
O3C O 0.3433(4) 0.1819(6) 0.3482(4)
O4C O 0.3269(4) 0.2244(6) 0.4489(3)
O5F O 0.3841(3) 0.4656(5) 0.4820(3)
O6B O 0.5280(3) 0.4450(5) 0.4343(3)
O11 O 0.5000 0.7947(19) 0.2500
O12 O 0.5000 0.9808(13) 0.2500
O9? O 0.5000 0.6848(19) 0.2500
O10? O 0.5000 0.894(2) 0.2500
loop_
_geom_bond_atom_site_label_1
_geom_bond_atom_site_label_2
_geom_bond_site_symmetry_1
_geom_bond_site_symmetry_2
Tb1 O1 1_555 1_555
C1 C2 1_555 1_555
C2 C3 1_555 1_555
C3 H1 1_555 1_555
C4 C3 1_555 1_555
C5 C4 1_555 1_555
H2 C5 1_555 1_555
C6 C5 1_555 1_555
C7 C2 1_555 1_555
H3 C7 1_555 1_555
C8 C4 1_555 1_555
C9 C6 1_555 1_555
C10 H4 1_555 1_555
C11 H5 1_555 1_555
H6 C11 1_555 1_555
H7 C11 1_555 1_555
C12 H8 1_555 1_555
H9 C12 1_555 1_555
H10 C12 1_555 1_555
C13 H11 1_555 1_555
H12 C13 1_555 1_555
H13 C13 1_555 1_555
C14 H14 1_555 1_555
H15 C14 1_555 1_555
H16 C14 1_555 1_555
C15 H17 1_555 1_555
N1 C10 1_555 1_555
N2 C13 1_555 1_555
O1 C1 1_555 1_555
O2 Tb1 1_555 1_555
O3 C8 1_555 1_555
O4 C8 1_555 1_555
O5 C9 1_555 1_555
O6 C9 1_555 1_555
O7 Tb1 1_555 1_555
O8 Tb1 1_555 1_555
Tb1C O3 1_555 1_555
Tb1F O5 1_555 1_555
Tb1B O6 1_555 1_555
O3C Tb1 1_555 1_555
O4C Tb1 1_555 1_555
O5F Tb1 1_555 1_555
O6B Tb1 1_555 1_555
C1 O2 1_555 1_555
C6 C7 1_555 1_555
C10 O8 1_555 1_555
C11 N1 1_555 1_555
C12 N1 1_555 1_555
C14 N2 1_555 1_555
C15 N2 1_555 1_555
C15 O7 1_555 1_555
O4 Tb1C 1_555 1_555

#END
