
#######################################################################
#
#                 Cambridge Crystallographic Data Centre
#                                CCDC 
#
#######################################################################
#
# If this CIF has been generated from an entry in the Cambridge 
# Structural Database, then it will include bibliographic, chemical, 
# crystal, experimental, refinement or atomic coordinate data resulting 
# from the CCDC's data processing and validation procedures.
#
#######################################################################

data_NIGFIT
_symmetry_cell_setting           monoclinic
_symmetry_space_group_name_H-M   'C 2/c'
_symmetry_Int_Tables_number      15
_space_group_name_Hall           '-C 2yn'
loop_
_symmetry_equiv_pos_site_id
_symmetry_equiv_pos_as_xyz
1 x,y,z
2 1/2+x,1/2+y,z
3 -x,y,1/2-z
4 1/2-x,1/2+y,1/2-z
5 -x,-y,-z
6 1/2-x,1/2-y,-z
7 x,-y,1/2+z
8 1/2+x,1/2-y,1/2+z
_cell_length_a                   18.4014(10)
_cell_length_b                   11.6492(10)
_cell_length_c                   19.6803(13)
_cell_angle_alpha                90
_cell_angle_beta                 106.979(2)
_cell_angle_gamma                90
_cell_volume                     4034.82
loop_
_atom_site_label
_atom_site_type_symbol
_atom_site_fract_x
_atom_site_fract_y
_atom_site_fract_z
Er1 Er 0.07517(2) 0.66976(4) 0.08330(2)
O1 O 0.1558(5) 0.5508(8) 0.1703(4)
O2 O 0.0698(4) 0.6468(6) 0.2036(4)
O3 O 0.3479(5) 0.3194(8) 0.3503(5)
O4 O 0.3238(5) 0.2657(9) 0.4459(4)
O5 O 0.1158(4) 0.4664(6) 0.5184(3)
O6 O 0.0258(4) 0.5543(7) 0.4341(4)
O7 O -0.0200(5) 0.7994(8) 0.0887(5)
O8 O 0.0177(5) 0.7331(9) -0.0318(4)
C1 C 0.1242(6) 0.5776(9) 0.2173(5)
C2 C 0.3074(6) 0.3244(9) 0.3915(6)
C3 C 0.0889(6) 0.5044(9) 0.4564(5)
C4 C 0.1526(5) 0.5262(8) 0.2897(5)
C5 C 0.2162(6) 0.4567(9) 0.3080(5)
H1 H 0.2433 0.4448 0.2755
C6 C 0.2403(6) 0.4044(9) 0.3740(5)
C7 C 0.1993(6) 0.4200(8) 0.4226(5)
H2 H 0.2149 0.3843 0.4668
C8 C 0.1350(5) 0.4889(8) 0.4049(5)
C9 C 0.1115(5) 0.5417(8) 0.3392(5)
H3 H 0.0683 0.5877 0.3275
C10 C -0.0450(8) 0.7243(11) -0.0739(7)
H4 H -0.0654 0.6507 -0.0803
C11 C -0.0612(12) 0.9208(19) -0.0971(12)
H5 H -0.0120 0.9222 -0.0627
H6 H -0.0966 0.9627 -0.0791
H7 H -0.0583 0.9555 -0.1405
C12 C -0.1608(11) 0.783(2) -0.1603(12)
H8 H -0.1708 0.7015 -0.1633
H9 H -0.1620 0.8114 -0.2063
H10 H -0.1989 0.8208 -0.1440
C13 C -0.0526(7) 0.8200(10) 0.1329(7)
H11 H -0.0248 0.8060 0.1798
C14 C -0.1651(17) 0.889(3) 0.0523(16)
H12 H -0.1359 0.8724 0.0202
H13 H -0.1773 0.9690 0.0502
H14 H -0.2111 0.8445 0.0390
C15 C -0.1562(11) 0.8773(17) 0.1798(10)
H15 H -0.1215 0.8540 0.2242
H16 H -0.2020 0.8326 0.1705
H17 H -0.1682 0.9571 0.1819
N1 N -0.1216(7) 0.8593(12) 0.1233(7)
N2 N -0.0865(7) 0.8035(10) -0.1106(7)
Er1C Er 0.42483(2) 0.16976(4) 0.41670(2)
Er1F Er 0.07517(2) 0.33024(4) 0.58330(2)
Er1B Er -0.07517(2) 0.66976(4) 0.41670(2)
O3C O 0.1521(5) 0.8194(8) 0.1497(5)
O4C O 0.1762(5) 0.7657(9) 0.0541(4)
O5F O 0.1158(4) 0.5336(6) 0.0184(3)
O6B O -0.0258(4) 0.5543(7) 0.0659(4)
O9 O 0.0000 0.011(2) 0.2500
O12 O 0.0000 0.315(4) 0.2500
O10? O 0.0000 0.205(4) 0.2500
O11? O 0.0000 0.108(4) 0.2500
loop_
_geom_bond_atom_site_label_1
_geom_bond_atom_site_label_2
_geom_bond_site_symmetry_1
_geom_bond_site_symmetry_2
Er1 O1 1_555 1_555
O1 C1 1_555 1_555
O2 Er1 1_555 1_555
O3 C2 1_555 1_555
O4 C2 1_555 1_555
O5 C3 1_555 1_555
O6 C3 1_555 1_555
O7 Er1 1_555 1_555
O8 Er1 1_555 1_555
C1 O2 1_555 1_555
C2 C6 1_555 1_555
C3 C8 1_555 1_555
C4 C1 1_555 1_555
C5 C4 1_555 1_555
H1 C5 1_555 1_555
C6 C5 1_555 1_555
C7 C6 1_555 1_555
H2 C7 1_555 1_555
C8 C7 1_555 1_555
C9 C4 1_555 1_555
H3 C9 1_555 1_555
C10 O8 1_555 1_555
H4 C10 1_555 1_555
C11 H5 1_555 1_555
H6 C11 1_555 1_555
H7 C11 1_555 1_555
C12 H8 1_555 1_555
H9 C12 1_555 1_555
H10 C12 1_555 1_555
C13 O7 1_555 1_555
H11 C13 1_555 1_555
C14 H12 1_555 1_555
H13 C14 1_555 1_555
H14 C14 1_555 1_555
C15 H15 1_555 1_555
H16 C15 1_555 1_555
H17 C15 1_555 1_555
N1 C13 1_555 1_555
N2 C10 1_555 1_555
Er1C O3 1_555 1_555
Er1F O5 1_555 1_555
Er1B O6 1_555 1_555
O3C Er1 1_555 1_555
O4C Er1 1_555 1_555
O5F Er1 1_555 1_555
O6B Er1 1_555 1_555
O4 Er1C 1_555 1_555
C8 C9 1_555 1_555
C11 N2 1_555 1_555
C12 N2 1_555 1_555
C14 N1 1_555 1_555
C15 N1 1_555 1_555

#END
