
#######################################################################
#
#                 Cambridge Crystallographic Data Centre
#                                CCDC 
#
#######################################################################
#
# If this CIF has been generated from an entry in the Cambridge 
# Structural Database, then it will include bibliographic, chemical, 
# crystal, experimental, refinement or atomic coordinate data resulting 
# from the CCDC's data processing and validation procedures.
#
#######################################################################

data_NIGFUF
_symmetry_cell_setting           monoclinic
_symmetry_space_group_name_H-M   'C 2/c'
_symmetry_Int_Tables_number      15
_space_group_name_Hall           '-C 2yn'
loop_
_symmetry_equiv_pos_site_id
_symmetry_equiv_pos_as_xyz
1 x,y,z
2 1/2+x,1/2+y,z
3 -x,y,1/2-z
4 1/2-x,1/2+y,1/2-z
5 -x,-y,-z
6 1/2-x,1/2-y,-z
7 x,-y,1/2+z
8 1/2+x,1/2-y,1/2+z
_cell_length_a                   18.493(18)
_cell_length_b                   11.580(18)
_cell_length_c                   19.51(2)
_cell_angle_alpha                90
_cell_angle_beta                 107.22(3)
_cell_angle_gamma                90
_cell_volume                     3990.77
loop_
_atom_site_label
_atom_site_type_symbol
_atom_site_fract_x
_atom_site_fract_y
_atom_site_fract_z
Dy1 Dy 0.07486(3) -0.17132(4) 0.08305(3)
C1 C 0.4103(5) -0.5035(9) 0.0438(5)
C2 C 0.3643(5) -0.4861(9) 0.0951(5)
C3 C 0.3005(5) -0.4187(8) 0.0767(5)
H1 H 0.2845 -0.3843 0.0317
C4 C 0.2604(6) -0.4020(9) 0.1248(6)
C5 C 0.2845(5) -0.4556(8) 0.1913(5)
H2 H 0.2571 -0.4452 0.2238
C6 C 0.3479(5) -0.5233(9) 0.2097(5)
C7 C 0.3885(5) -0.5407(8) 0.1609(5)
H3 H 0.4310 -0.5882 0.1723
C8 C 0.1926(5) -0.3230(10) 0.1062(5)
C9 C 0.3760(6) -0.5780(9) 0.2829(6)
C10 C -0.0473(8) -0.2265(11) -0.0762(7)
H4 H -0.0673 -0.1524 -0.0840
C11 C -0.1587(8) -0.2831(14) -0.1633(10)
H5 H -0.1792 -0.2115 -0.1527
H6 H -0.1932 -0.3448 -0.1627
H7 H -0.1514 -0.2787 -0.2099
C12 C -0.0614(8) -0.4168(13) -0.0989(9)
H8 H -0.0628 -0.4526 -0.1436
H9 H -0.0922 -0.4600 -0.0762
H10 H -0.0101 -0.4152 -0.0681
C13 C -0.0527(6) -0.3202(10) 0.1339(7)
H11 H -0.0271 -0.2985 0.1807
C14 C -0.1597(12) -0.4166(19) 0.0547(13)
H12 H -0.1794 -0.3576 0.0196
H13 H -0.2006 -0.4636 0.0599
H14 H -0.1247 -0.4640 0.0394
C15 C -0.1574(8) -0.3849(14) 0.1811(9)
H15 H -0.1351 -0.3353 0.2212
H16 H -0.1499 -0.4641 0.1963
H17 H -0.2107 -0.3692 0.1631
N1 N -0.0889(6) -0.3043(9) -0.1115(6)
N2 N -0.1209(6) -0.3635(10) 0.1231(7)
O1 O 0.3838(3) -0.4653(6) -0.0184(4)
O2 O 0.1731(5) -0.2728(7) 0.0509(4)
O3 O 0.1562(4) -0.3153(8) 0.1510(4)
O4 O 0.3450(4) -0.5500(6) 0.3291(4)
O5 O 0.4290(4) -0.6458(6) 0.2952(3)
O6 O 0.4727(4) -0.5546(6) 0.0654(4)
O7 O 0.0155(5) -0.2332(7) -0.0331(4)
O8 O -0.0191(4) -0.3052(7) 0.0892(4)
Dy1E Dy 0.42514(3) -0.32868(4) -0.08305(3)
Dy1C Dy 0.42514(3) -0.67132(4) 0.41695(3)
Dy1A Dy 0.57486(3) -0.67132(4) 0.08305(3)
O1E O 0.1162(3) -0.0347(6) 0.0184(4)
O4C O 0.1550(4) -0.0500(6) 0.1709(4)
O5C O 0.0710(4) -0.1458(6) 0.2048(3)
O6A O -0.0273(4) -0.0546(6) 0.0654(4)
O9 O 0.0000 -0.622(4) 0.2500
O10 O 0.0000 -0.815(4) 0.2500
O11? O 0.0000 -0.706(3) 0.2500
O12? O 0.0000 -0.5213(19) 0.2500
loop_
_geom_bond_atom_site_label_1
_geom_bond_atom_site_label_2
_geom_bond_site_symmetry_1
_geom_bond_site_symmetry_2
Dy1 O2 1_555 1_555
C1 C2 1_555 1_555
C2 C3 1_555 1_555
C3 H1 1_555 1_555
C4 C3 1_555 1_555
C5 C4 1_555 1_555
H2 C5 1_555 1_555
C6 C5 1_555 1_555
C7 C2 1_555 1_555
H3 C7 1_555 1_555
C8 C4 1_555 1_555
C9 C6 1_555 1_555
C10 H4 1_555 1_555
C11 H5 1_555 1_555
H6 C11 1_555 1_555
H7 C11 1_555 1_555
C12 H8 1_555 1_555
H9 C12 1_555 1_555
H10 C12 1_555 1_555
C13 H11 1_555 1_555
C14 H12 1_555 1_555
H13 C14 1_555 1_555
H14 C14 1_555 1_555
C15 H15 1_555 1_555
H16 C15 1_555 1_555
H17 C15 1_555 1_555
N1 C10 1_555 1_555
N2 C13 1_555 1_555
O1 C1 1_555 1_555
O2 C8 1_555 1_555
O3 Dy1 1_555 1_555
O4 C9 1_555 1_555
O5 C9 1_555 1_555
O6 C1 1_555 1_555
O7 Dy1 1_555 1_555
O8 Dy1 1_555 1_555
Dy1E O1 1_555 1_555
Dy1C O4 1_555 1_555
Dy1A O6 1_555 1_555
O1E Dy1 1_555 1_555
O4C Dy1 1_555 1_555
O5C Dy1 1_555 1_555
O6A Dy1 1_555 1_555
C6 C7 1_555 1_555
C8 O3 1_555 1_555
C10 O7 1_555 1_555
C11 N1 1_555 1_555
C12 N1 1_555 1_555
C13 O8 1_555 1_555
C14 N2 1_555 1_555
C15 N2 1_555 1_555
O5 Dy1C 1_555 1_555

#END
