
#######################################################################
#
#                 Cambridge Crystallographic Data Centre
#                                CCDC 
#
#######################################################################
#
# If this CIF has been generated from an entry in the Cambridge 
# Structural Database, then it will include bibliographic, chemical, 
# crystal, experimental, refinement or atomic coordinate data resulting 
# from the CCDC's data processing and validation procedures.
#
#######################################################################

data_NIGGEQ
_symmetry_cell_setting           monoclinic
_symmetry_space_group_name_H-M   'C 2/c'
_symmetry_Int_Tables_number      15
_space_group_name_Hall           '-C 2yn'
loop_
_symmetry_equiv_pos_site_id
_symmetry_equiv_pos_as_xyz
1 x,y,z
2 1/2+x,1/2+y,z
3 -x,y,1/2-z
4 1/2-x,1/2+y,1/2-z
5 -x,-y,-z
6 1/2-x,1/2-y,-z
7 x,-y,1/2+z
8 1/2+x,1/2-y,1/2+z
_cell_length_a                   18.382(2)
_cell_length_b                   11.5929(15)
_cell_length_c                   19.632(3)
_cell_angle_alpha                90
_cell_angle_beta                 107.086(2)
_cell_angle_gamma                90
_cell_volume                     3998.95
loop_
_atom_site_label
_atom_site_type_symbol
_atom_site_fract_x
_atom_site_fract_y
_atom_site_fract_z
Tm1 Tm 0.07492(2) 0.82928(4) 0.08307(2)
O1 O 0.1759(5) 0.7332(8) 0.0528(4)
O2 O 0.1509(4) 0.6803(8) 0.1488(4)
O3 O 0.3440(4) 0.4478(7) 0.3302(3)
O4 O 0.4302(4) 0.3534(6) 0.2966(3)
O5 O 0.4739(4) 0.4464(7) 0.0663(3)
O6 O 0.3845(3) 0.5342(6) -0.0190(3)
O7 O 0.0171(5) 0.7668(8) -0.0322(4)
O8 O -0.0198(5) 0.6981(7) 0.0881(4)
C1 C 0.1918(5) 0.6764(10) 0.1079(5)
C2 C 0.2602(5) 0.5968(9) 0.1254(5)
C3 C 0.3005(5) 0.5818(9) 0.0765(5)
H1 H 0.2846 0.6170 0.0320
C4 C 0.3653(5) 0.5129(9) 0.0952(4)
C5 C 0.3886(5) 0.4596(9) 0.1608(4)
H2 H 0.4319 0.4133 0.1725
C6 C 0.3469(5) 0.4751(10) 0.2104(5)
C7 C 0.2831(5) 0.5429(9) 0.1913(5)
H3 H 0.2547 0.5530 0.2231
C8 C 0.3754(6) 0.4202(9) 0.2830(5)
C9 C 0.4119(5) 0.4968(10) 0.0438(5)
C10 C -0.0468(8) 0.7768(13) -0.0759(6)
H4 H -0.0670 0.8509 -0.0825
C11 C -0.0590(11) 0.5845(17) -0.1030(10)
H5 H -0.0105 0.5832 -0.0671
H6 H -0.0534 0.5566 -0.1472
H7 H -0.0941 0.5362 -0.0884
C12 C -0.1577(9) 0.7199(17) -0.1643(9)
H8 H -0.1694 0.8008 -0.1655
H9 H -0.1971 0.6770 -0.1526
H10 H -0.1546 0.6961 -0.2102
C13 C -0.0524(7) 0.6802(11) 0.1321(6)
H11 H -0.0257 0.6997 0.1787
C14 C -0.1633(12) 0.593(2) 0.0526(10)
H12 H -0.1362 0.6098 0.0188
H13 H -0.2125 0.6288 0.0377
H14 H -0.1693 0.5108 0.0553
C15 C -0.1573(10) 0.6157(17) 0.1791(9)
H15 H -0.1248 0.6424 0.2241
H16 H -0.1664 0.5345 0.1821
H17 H -0.2049 0.6563 0.1678
N1 N -0.0870(7) 0.6991(10) -0.1121(6)
N2 N -0.1204(6) 0.6369(12) 0.1230(6)
Tm1C Tm 0.42508(2) 0.32928(4) 0.41693(2)
Tm1A Tm 0.57492(2) 0.32928(4) 0.08307(2)
Tm1E Tm 0.42508(2) 0.67072(4) -0.08307(2)
O3C O 0.1560(4) 0.9478(7) 0.1698(3)
O4C O 0.0698(4) 0.8534(6) 0.2034(3)
O5A O -0.0261(4) 0.9464(7) 0.0663(3)
O6E O 0.1155(3) 0.9658(6) 0.0190(3)
O9 O 0.0000 0.482(2) 0.2500
O11 O 0.0000 0.297(4) 0.2500
O10? O 0.0000 0.388(4) 0.2500
O12? O 0.0000 0.186(4) 0.2500
loop_
_geom_bond_atom_site_label_1
_geom_bond_atom_site_label_2
_geom_bond_site_symmetry_1
_geom_bond_site_symmetry_2
Tm1 O1 1_555 1_555
O1 C1 1_555 1_555
O2 Tm1 1_555 1_555
O3 C8 1_555 1_555
O4 C8 1_555 1_555
O5 C9 1_555 1_555
O6 C9 1_555 1_555
O7 Tm1 1_555 1_555
O8 Tm1 1_555 1_555
C1 O2 1_555 1_555
C2 C1 1_555 1_555
C3 C2 1_555 1_555
H1 C3 1_555 1_555
C4 C3 1_555 1_555
C5 C4 1_555 1_555
H2 C5 1_555 1_555
C6 C5 1_555 1_555
C7 C2 1_555 1_555
H3 C7 1_555 1_555
C8 C6 1_555 1_555
C9 C4 1_555 1_555
C10 O7 1_555 1_555
H4 C10 1_555 1_555
C11 H5 1_555 1_555
H6 C11 1_555 1_555
H7 C11 1_555 1_555
C12 H8 1_555 1_555
H9 C12 1_555 1_555
H10 C12 1_555 1_555
C13 O8 1_555 1_555
H11 C13 1_555 1_555
C14 H12 1_555 1_555
H13 C14 1_555 1_555
H14 C14 1_555 1_555
C15 H15 1_555 1_555
H16 C15 1_555 1_555
H17 C15 1_555 1_555
N1 C10 1_555 1_555
N2 C13 1_555 1_555
Tm1C O3 1_555 1_555
Tm1A O5 1_555 1_555
Tm1E O6 1_555 1_555
O3C Tm1 1_555 1_555
O4C Tm1 1_555 1_555
O5A Tm1 1_555 1_555
O6E Tm1 1_555 1_555
O4 Tm1C 1_555 1_555
C6 C7 1_555 1_555
C11 N1 1_555 1_555
C12 N1 1_555 1_555
C14 N2 1_555 1_555
C15 N2 1_555 1_555

#END
