
#######################################################################
#
#                 Cambridge Crystallographic Data Centre
#                                CCDC 
#
#######################################################################
#
# If this CIF has been generated from an entry in the Cambridge 
# Structural Database, then it will include bibliographic, chemical, 
# crystal, experimental, refinement or atomic coordinate data resulting 
# from the CCDC's data processing and validation procedures.
#
#######################################################################

data_NIGGIV
_symmetry_cell_setting           monoclinic
_symmetry_space_group_name_H-M   'C 2/c'
_symmetry_Int_Tables_number      15
_space_group_name_Hall           '-C 2yn'
loop_
_symmetry_equiv_pos_site_id
_symmetry_equiv_pos_as_xyz
1 x,y,z
2 -x,y,1/2-z
3 1/2+x,1/2+y,z
4 1/2-x,1/2+y,1/2-z
5 -x,-y,-z
6 x,-y,1/2+z
7 1/2-x,1/2-y,-z
8 1/2+x,1/2-y,1/2+z
_cell_length_a                   22.583(5)
_cell_length_b                   12.7048(13)
_cell_length_c                   15.028(6)
_cell_angle_alpha                90
_cell_angle_beta                 121.683(6)
_cell_angle_gamma                90
_cell_volume                     3669.13
loop_
_atom_site_label
_atom_site_type_symbol
_atom_site_fract_x
_atom_site_fract_y
_atom_site_fract_z
Mn1 Mn 0.076164(17) 0.85687(2) 0.22204(3)
N1 N 0.12987(10) 1.00584(15) 0.22877(16)
N2 N 0.10338(11) 1.10084(16) 0.2395(2)
N3 N 0.20762(10) 1.12544(14) 0.27006(15)
N4 N 0.27182(9) 1.17098(14) 0.30445(15)
N5 N 0.35566(10) 1.25688(15) 0.30809(15)
N6 N 0.38105(11) 1.21196(19) 0.40650(17)
N7 N 0.02891(10) 0.70853(14) 0.24470(16)
N8 N 0.0000 0.54774(19) 0.2500
N9 N 0.0000 0.43862(19) 0.2500
N10 N -0.01038(12) 0.27730(16) 0.19714(18)
C1 C 0.19219(12) 1.02246(18) 0.24803(19)
H1 H 0.2215 0.9717 0.2469
C2 C 0.15138(13) 1.17102(19) 0.2649(2)
H2 H 0.1479 1.2417 0.2777
C3 C 0.32998(13) 1.1612(2) 0.4018(2)
H3 H 0.3324 1.1236 0.4568
C4 C 0.29011(12) 1.23086(17) 0.24837(18)
H4 H 0.2609 1.2504 0.1788
C5 C 0.04534(12) 0.61053(18) 0.2429(2)
H5 H 0.0825 0.5877 0.2375
C6 C -0.01654(14) 0.37462(19) 0.1673(2)
H6 H -0.0300 0.3971 0.1003
O1 O 0.00405(11) 0.87406(18) 0.05568(18)
O2 O 0.15189(13) 0.84497(19) 0.38947(17)
O3 O 0.0000 0.94724(18) 0.2500
H7 H 0.0261(18) 0.988(3) 0.301(2)
H8 H 0.174(2) 0.899(2) 0.416(3)
H9 H 0.143(2) 0.808(3) 0.427(3)
H10 H -0.028(3) 0.828(4) 0.029(5)
H11 H 0.015(4) 0.903(6) 0.015(5)
N7A N -0.02891(10) 0.70853(14) 0.25530(16)
N10A N 0.01038(12) 0.27730(16) 0.30286(18)
C5A C -0.04534(12) 0.61053(18) 0.2571(2)
H5A H -0.0825 0.5877 0.2625
C6A C 0.01654(14) 0.37462(19) 0.3327(2)
H6A H 0.0300 0.3971 0.3997
H7A H -0.0261(18) 0.988(3) 0.199(2)
Mn1A Mn -0.076164(17) 0.85687(2) 0.27796(3)
N1A N -0.12987(10) 1.00584(15) 0.27123(16)
N2A N -0.10338(11) 1.10084(16) 0.2605(2)
N3A N -0.20762(10) 1.12544(14) 0.22994(15)
N4A N -0.27182(9) 1.17098(14) 0.19555(15)
N5A N -0.35566(10) 1.25688(15) 0.19191(15)
N6A N -0.38105(11) 1.21196(19) 0.09350(17)
C1A C -0.19219(12) 1.02246(18) 0.25197(19)
H1A H -0.2215 0.9717 0.2531
C2A C -0.15138(13) 1.17102(19) 0.2351(2)
H2A H -0.1479 1.2417 0.2223
C3A C -0.32998(13) 1.1612(2) 0.0982(2)
H3A H -0.3324 1.1236 0.0432
C4A C -0.29011(12) 1.23086(17) 0.25163(18)
H4A H -0.2609 1.2504 0.3212
O1A O -0.00405(11) 0.87406(18) 0.44432(18)
O2A O -0.15189(13) 0.84497(19) 0.11053(17)
H8A H -0.174(2) 0.899(2) 0.084(3)
H9A H -0.143(2) 0.808(3) 0.073(3)
H10A H 0.028(3) 0.828(4) 0.471(5)
H11A H -0.015(4) 0.903(6) 0.485(5)
Mn1B Mn -0.423836(17) 1.35687(2) 0.22204(3)
Mn1C Mn 0.423836(17) 1.35687(2) 0.27796(3)
N5B N -0.14434(10) 0.75688(15) 0.30809(15)
N5C N 0.14434(10) 0.75688(15) 0.19191(15)
Cl1 Cl 0.26671(3) 1.04884(5) 0.58089(4)
O4 O 0.27770(15) 0.95216(18) 0.6358(2)
O5 O 0.33235(12) 1.0989(2) 0.61704(18)
O6 O 0.22357(15) 1.1153(2) 0.5993(2)
O7 O 0.23376(14) 1.0284(2) 0.47102(16)
Cl2 Cl -0.11477(4) 0.63475(5) -0.04858(5)
O8 O -0.0481(3) 0.6528(8) -0.0242(6)
O9 O -0.1165(5) 0.7431(6) -0.0390(8)
O10 O -0.15563(17) 0.5950(3) -0.1495(2)
O11 O -0.0882(7) 0.5663(7) 0.0264(6)
O14 O 0.05910(11) 1.08403(16) 0.41709(17)
H12 H 0.0443(19) 1.141(2) 0.384(3)
H13 H 0.1023(10) 1.090(3) 0.449(3)
O12? O -0.1252(9) 0.5773(12) 0.0179(10)
O13? O -0.1511(5) 0.7192(10) -0.0391(7)
loop_
_geom_bond_atom_site_label_1
_geom_bond_atom_site_label_2
_geom_bond_site_symmetry_1
_geom_bond_site_symmetry_2
Mn1 N1 1_555 1_555
N1 N2 1_555 1_555
N2 C2 1_555 1_555
N3 N4 1_555 1_555
N4 C3 1_555 1_555
N5 N6 1_555 1_555
N6 C3 1_555 1_555
N7 Mn1 1_555 1_555
N8 N9 1_555 1_555
N9 C6 1_555 1_555
N10 C6 1_555 1_555
C1 N1 1_555 1_555
H1 C1 1_555 1_555
C2 N3 1_555 1_555
H2 C2 1_555 1_555
C3 H3 1_555 1_555
C4 N4 1_555 1_555
H4 C4 1_555 1_555
C5 N7 1_555 1_555
H5 C5 1_555 1_555
C6 H6 1_555 1_555
O1 Mn1 1_555 1_555
O2 Mn1 1_555 1_555
O3 Mn1 1_555 1_555
H7 O3 1_555 1_555
H8 O2 1_555 1_555
H9 O2 1_555 1_555
H10 O1 1_555 1_555
H11 O1 1_555 1_555
Cl1 O4 1_555 1_555
O5 Cl1 1_555 1_555
O6 Cl1 1_555 1_555
O7 Cl1 1_555 1_555
Cl2 O8 1_555 1_555
O9 Cl2 1_555 1_555
O10 Cl2 1_555 1_555
O11 Cl2 1_555 1_555
O14 H12 1_555 1_555
H13 O14 1_555 1_555
N7A N7 1_555 1_555
N10A N10 1_555 1_555
C5A N8 1_555 1_555
H5A C5A 1_555 1_555
C6A N9 1_555 1_555
H6A C6A 1_555 1_555
H7A O3 1_555 1_555
Mn1A O3 1_555 1_555
N1A Mn1A 1_555 1_555
N2A N1A 1_555 1_555
N3A N4A 1_555 1_555
N4A C3A 1_555 1_555
N5A N6A 1_555 1_555
N6A C3A 1_555 1_555
C1A N1A 1_555 1_555
H1A C1A 1_555 1_555
C2A N2A 1_555 1_555
H2A C2A 1_555 1_555
C3A H3A 1_555 1_555
C4A N4A 1_555 1_555
H4A C4A 1_555 1_555
O1A Mn1A 1_555 1_555
O2A Mn1A 1_555 1_555
H8A O2A 1_555 1_555
H9A O2A 1_555 1_555
H10A O1A 1_555 1_555
H11A O1A 1_555 1_555
Mn1B N5A 1_555 1_555
Mn1C N5 1_555 1_555
N5B Mn1A 1_555 1_555
N5C Mn1 1_555 1_555
N3 C1 1_555 1_555
N5 C4 1_555 1_555
N8 C5 1_555 1_555
N7A C5A 1_555 1_555
N7A Mn1A 1_555 1_555
N10A C6A 1_555 1_555
N3A C1A 1_555 1_555
N3A C2A 1_555 1_555
N5A C4A 1_555 1_555

#END
