
#######################################################################
#
#                 Cambridge Crystallographic Data Centre
#                                CCDC 
#
#######################################################################
#
# If this CIF has been generated from an entry in the Cambridge 
# Structural Database, then it will include bibliographic, chemical, 
# crystal, experimental, refinement or atomic coordinate data resulting 
# from the CCDC's data processing and validation procedures.
#
#######################################################################

data_NIGGOB
_symmetry_cell_setting           monoclinic
_symmetry_space_group_name_H-M   'P 21/n'
_symmetry_Int_Tables_number      14
_space_group_name_Hall           '-P 2yn'
loop_
_symmetry_equiv_pos_site_id
_symmetry_equiv_pos_as_xyz
1 x,y,z
2 1/2-x,1/2+y,1/2-z
3 -x,-y,-z
4 1/2+x,1/2-y,1/2+z
_cell_length_a                   12.0091(12)
_cell_length_b                   10.9122(11)
_cell_length_c                   13.4699(14)
_cell_angle_alpha                90
_cell_angle_beta                 95.1890(10)
_cell_angle_gamma                90
_cell_volume                     1757.94
loop_
_atom_site_label
_atom_site_type_symbol
_atom_site_fract_x
_atom_site_fract_y
_atom_site_fract_z
Zn1 Zn -0.16771(3) -0.03781(3) 0.09441(3)
S1 S -0.12065(8) 0.46481(9) -0.16727(8)
O1 O -0.04130(19) -0.0768(2) 0.19155(17)
O2 O -0.0615(2) 0.1132(2) 0.24614(19)
O3 O 0.1689(4) -0.3782(3) 0.4222(3)
O4 O 0.2949(2) -0.3032(2) 0.53539(19)
N1 N -0.1366(2) 0.1035(3) -0.0003(2)
N2 N 0.1954(2) 0.5098(3) -0.3263(2)
C1 C 0.0608(3) -0.0203(3) 0.3448(2)
C2 C 0.1030(3) -0.1376(3) 0.3614(2)
H1 H 0.0835 -0.1995 0.3156
C3 C 0.1744(3) -0.1631(3) 0.4461(3)
C4 C 0.2020(3) -0.0697(3) 0.5140(3)
H2 H 0.2507 -0.0863 0.5700
C5 C 0.1587(3) 0.0477(3) 0.5004(2)
C6 C 0.0883(3) 0.0713(3) 0.4155(2)
H3 H 0.0587 0.1495 0.4052
C7 C -0.0191(3) 0.0099(3) 0.2551(2)
C8 C 0.2172(3) -0.2907(3) 0.4659(3)
C9 C 0.1863(3) 0.1461(3) 0.5778(3)
H4 H 0.1530 0.2221 0.5549
H5 H 0.2660 0.1557 0.5883
H6 H 0.1575 0.1228 0.6392
C10 C -0.0534(3) 0.1834(3) 0.0235(3)
H7 H -0.0014 0.1650 0.0769
C11 C -0.0415(3) 0.2915(3) -0.0276(3)
H8 H 0.0167 0.3451 -0.0082
C12 C -0.1170(3) 0.3189(3) -0.1078(3)
C13 C -0.1990(3) 0.2337(3) -0.1366(3)
H9 H -0.2487 0.2478 -0.1925
C14 C -0.2064(3) 0.1277(3) -0.0818(3)
H10 H -0.2617 0.0709 -0.1019
C15 C 0.1747(3) 0.4024(3) -0.2826(2)
H11 H 0.2261 0.3392 -0.2868
C16 C 0.0814(3) 0.3802(3) -0.2319(2)
H12 H 0.0701 0.3038 -0.2039
C17 C 0.0051(3) 0.4746(3) -0.2235(2)
C18 C 0.0284(3) 0.5884(3) -0.2647(3)
H13 H -0.0191 0.6546 -0.2580
C19 C 0.1221(3) 0.6015(3) -0.3152(3)
H14 H 0.1357 0.6773 -0.3432
Zn1C Zn 0.33229(3) -0.46219(3) 0.59441(3)
Zn1C_2 Zn 0.33229(3) 0.53781(3) -0.40559(3)
O4C O -0.2051(2) -0.1968(2) 0.03539(19)
N2C N -0.3046(2) -0.0098(3) 0.1737(2)
loop_
_geom_bond_atom_site_label_1
_geom_bond_atom_site_label_2
_geom_bond_site_symmetry_1
_geom_bond_site_symmetry_2
Zn1 O1 1_555 1_555
S1 C12 1_555 1_555
O1 C7 1_555 1_555
O2 C7 1_555 1_555
O3 C8 1_555 1_555
O4 C8 1_555 1_555
N1 Zn1 1_555 1_555
N2 C15 1_555 1_555
C1 C2 1_555 1_555
C2 H1 1_555 1_555
C3 C2 1_555 1_555
C4 C3 1_555 1_555
H2 C4 1_555 1_555
C5 C4 1_555 1_555
C6 C1 1_555 1_555
H3 C6 1_555 1_555
C7 C1 1_555 1_555
C8 C3 1_555 1_555
C9 C5 1_555 1_555
H4 C9 1_555 1_555
H5 C9 1_555 1_555
H6 C9 1_555 1_555
C10 N1 1_555 1_555
H7 C10 1_555 1_555
C11 C10 1_555 1_555
H8 C11 1_555 1_555
C12 C11 1_555 1_555
C13 C12 1_555 1_555
H9 C13 1_555 1_555
C14 N1 1_555 1_555
H10 C14 1_555 1_555
C15 H11 1_555 1_555
C16 C15 1_555 1_555
H12 C16 1_555 1_555
C17 S1 1_555 1_555
C18 C17 1_555 1_555
H13 C18 1_555 1_555
C19 N2 1_555 1_555
H14 C19 1_555 1_555
Zn1C O4 1_555 1_555
Zn1C_2 N2 1_555 1_555
O4C Zn1 1_555 1_555
N2C Zn1 1_555 1_555
C5 C6 1_555 1_555
C13 C14 1_555 1_555
C16 C17 1_555 1_555
C18 C19 1_555 1_555

#END
