
#######################################################################
#
#                 Cambridge Crystallographic Data Centre
#                                CCDC 
#
#######################################################################
#
# If this CIF has been generated from an entry in the Cambridge 
# Structural Database, then it will include bibliographic, chemical, 
# crystal, experimental, refinement or atomic coordinate data resulting 
# from the CCDC's data processing and validation procedures.
#
#######################################################################

data_NIGGIU
_symmetry_cell_setting           monoclinic
_symmetry_space_group_name_H-M   'C 2/c'
_symmetry_Int_Tables_number      15
_space_group_name_Hall           '-C 2yn'
loop_
_symmetry_equiv_pos_site_id
_symmetry_equiv_pos_as_xyz
1 x,y,z
2 1/2+x,1/2+y,z
3 -x,y,1/2-z
4 1/2-x,1/2+y,1/2-z
5 -x,-y,-z
6 1/2-x,1/2-y,-z
7 x,-y,1/2+z
8 1/2+x,1/2-y,1/2+z
_cell_length_a                   18.299(4)
_cell_length_b                   11.592(2)
_cell_length_c                   19.557(4)
_cell_angle_alpha                90
_cell_angle_beta                 107.01(3)
_cell_angle_gamma                90
_cell_volume                     3966.99
loop_
_atom_site_label
_atom_site_type_symbol
_atom_site_fract_x
_atom_site_fract_y
_atom_site_fract_z
Yb1 Yb 1.07482(2) 0.67057(3) 0.082929(19)
C1 C 1.1255(5) 0.5795(9) 0.2172(5)
C2 C 1.1525(5) 0.5268(8) 0.2892(5)
C3 C 1.1113(5) 0.5415(8) 0.3383(5)
C4 C 1.1347(5) 0.4879(9) 0.4056(5)
C5 C 1.1986(5) 0.4192(8) 0.4227(5)
C6 C 1.2406(5) 0.4042(8) 0.3748(5)
C7 C 1.2165(6) 0.4576(9) 0.3081(6)
C8 C 1.3084(6) 0.3254(9) 0.3927(6)
C9 C 1.0882(6) 0.5035(8) 0.4567(5)
C10 C 0.9557(8) 0.7246(12) -0.0752(8)
H1 H 0.9348 0.6508 -0.0811
C11 C 0.9377(14) 0.922(2) -0.1029(15)
H2 H 0.9905 0.9292 -0.1009
H3 H 0.9306 0.9488 -0.0588
H4 H 0.9069 0.9669 -0.1419
C12 C 0.8397(11) 0.780(2) -0.1648(11)
H5 H 0.8317 0.6988 -0.1711
H6 H 0.8375 0.8153 -0.2099
H7 H 0.8007 0.8130 -0.1469
C13 C 0.9485(8) 0.8205(10) 0.1316(7)
H8 H 0.9769 0.8065 0.1786
C14 C 0.837(2) 0.906(3) 0.0533(19)
H9 H 0.8466 0.9877 0.0519
H10 H 0.7836 0.8929 0.0446
H11 H 0.8545 0.8682 0.0172
C15 C 0.8473(12) 0.884(2) 0.1822(12)
H12 H 0.8829 0.8576 0.2258
H13 H 0.7997 0.8438 0.1744
H14 H 0.8390 0.9654 0.1855
H15 H 1.071(5) 0.585(8) 0.327(5)
H16 H 1.232(7) 0.455(11) 0.284(7)
H17 H 1.213(6) 0.387(9) 0.471(6)
N1 N 0.8782(8) 0.8618(14) 0.1223(8)
N2 N 0.9152(7) 0.8021(10) -0.1134(8)
O1 O 1.0700(4) 0.6489(6) 0.2029(3)
O2 O 1.1570(4) 0.5535(7) 0.1702(4)
O3 O 1.3505(5) 0.3216(7) 0.3512(5)
O4 O 1.3245(5) 0.2643(8) 0.4466(5)
O5 O 1.0250(4) 0.5536(7) 0.4332(4)
O6 O 1.1152(4) 0.4651(6) 0.5182(3)
O7 O 1.0176(5) 0.7333(8) -0.0322(4)
O8 O 0.9790(5) 0.7996(8) 0.0878(5)
Yb1C Yb 1.42518(2) 0.17057(3) 0.417071(19)
Yb1B Yb 0.92518(2) 0.67057(3) 0.417071(19)
Yb1F Yb 1.07482(2) 0.32943(3) 0.582929(19)
O3C O 1.1495(5) 0.8216(7) 0.1488(5)
O4C O 1.1755(5) 0.7643(8) 0.0534(5)
O5B O 0.9750(4) 0.5536(7) 0.0668(4)
O6F O 1.1152(4) 0.5349(6) 0.0182(3)
O9 O 0.0000 0.315(4) 0.2500
O11 O 0.0000 0.102(4) 0.2500
O10? O 0.0000 0.009(2) 0.2500
O12? O 0.0000 0.206(4) 0.2500
loop_
_geom_bond_atom_site_label_1
_geom_bond_atom_site_label_2
_geom_bond_site_symmetry_1
_geom_bond_site_symmetry_2
Yb1 O1 1_555 1_555
C1 C2 1_555 1_555
C2 C3 1_555 1_555
C3 C4 1_555 1_555
C4 C5 1_555 1_555
C5 C6 1_555 1_555
C6 C7 1_555 1_555
C7 C2 1_555 1_555
C8 C6 1_555 1_555
C9 C4 1_555 1_555
C10 H1 1_555 1_555
C11 H2 1_555 1_555
H3 C11 1_555 1_555
H4 C11 1_555 1_555
C12 H5 1_555 1_555
H6 C12 1_555 1_555
H7 C12 1_555 1_555
C13 H8 1_555 1_555
C14 H9 1_555 1_555
H10 C14 1_555 1_555
H11 C14 1_555 1_555
C15 H12 1_555 1_555
H13 C15 1_555 1_555
H14 C15 1_555 1_555
H15 C3 1_555 1_555
H16 C7 1_555 1_555
H17 C5 1_555 1_555
N1 C13 1_555 1_555
N2 C10 1_555 1_555
O1 C1 1_555 1_555
O2 Yb1 1_555 1_555
O3 C8 1_555 1_555
O4 C8 1_555 1_555
O5 C9 1_555 1_555
O6 C9 1_555 1_555
O7 Yb1 1_555 1_555
O8 Yb1 1_555 1_555
Yb1C O3 1_555 1_555
Yb1B O5 1_555 1_555
Yb1F O6 1_555 1_555
O3C Yb1 1_555 1_555
O4C Yb1 1_555 1_555
O5B Yb1 1_555 1_555
O6F Yb1 1_555 1_555
C1 O2 1_555 1_555
C10 O7 1_555 1_555
C11 N2 1_555 1_555
C12 N2 1_555 1_555
C13 O8 1_555 1_555
C14 N1 1_555 1_555
C15 N1 1_555 1_555
O4 Yb1C 1_555 1_555

#END
