
#######################################################################
#
#                 Cambridge Crystallographic Data Centre
#                                CCDC 
#
#######################################################################
#
# If this CIF has been generated from an entry in the Cambridge 
# Structural Database, then it will include bibliographic, chemical, 
# crystal, experimental, refinement or atomic coordinate data resulting 
# from the CCDC's data processing and validation procedures.
#
#######################################################################

data_NIGHOC
_symmetry_cell_setting           monoclinic
_symmetry_space_group_name_H-M   'P 21/c'
_symmetry_Int_Tables_number      14
_space_group_name_Hall           '-P 2ybc'
loop_
_symmetry_equiv_pos_site_id
_symmetry_equiv_pos_as_xyz
1 x,y,z
2 -x,1/2+y,1/2-z
3 -x,-y,-z
4 x,1/2-y,1/2+z
_cell_length_a                   12.8537(18)
_cell_length_b                   16.731(2)
_cell_length_c                   7.0837(10)
_cell_angle_alpha                90
_cell_angle_beta                 97.170(2)
_cell_angle_gamma                90
_cell_volume                     1511.47
loop_
_atom_site_label
_atom_site_type_symbol
_atom_site_fract_x
_atom_site_fract_y
_atom_site_fract_z
Nd1 Nd 0.460034(10) 0.099474(7) 0.296636(18)
O1 O 0.48212(14) 0.35964(11) 0.4763(3)
O2 O 0.44011(16) 0.23268(11) 0.4096(3)
O3 O 0.61250(15) 0.02482(11) 0.2285(3)
O4 O 0.64746(15) 0.48375(11) 0.3631(3)
O5 O 0.55023(15) 0.44000(11) 0.1067(3)
N1 N 0.62958(17) 0.20457(13) 0.3095(3)
O6 O 0.32642(15) 0.08162(12) 0.4979(3)
O7 O -0.0339(3) 0.0194(2) 0.2554(4)
H1 H -0.0789 0.0059 0.3215
C1 C 0.6000(2) 0.28107(15) 0.3228(3)
N2 N 0.26393(18) 0.14072(13) 0.1500(3)
O8 O 0.1649(2) 0.0452(2) 0.5324(4)
C2 C 0.4986(2) 0.29256(15) 0.4059(3)
C3 C 0.7601(2) 0.32994(16) 0.2268(4)
H2 H 0.8032 0.3715 0.1965
C4 C 0.2326(2) 0.17067(18) -0.0238(4)
H3 H 0.2833 0.1895 -0.0957
C5 C 0.6162(2) 0.42831(15) 0.2519(3)
C6 C 0.2283(2) 0.07751(18) 0.4432(4)
C7 C 0.6609(2) 0.34563(15) 0.2758(3)
O9 O -0.0343(2) 0.13253(18) 0.4207(5)
C8 C 0.7255(2) 0.19059(16) 0.2607(4)
H4 H 0.7472 0.1379 0.2512
C9 C 0.1894(2) 0.11429(16) 0.2526(4)
C10 C 0.7940(2) 0.25141(16) 0.2238(4)
H5 H 0.8614 0.2395 0.1975
C11 C 0.1280(2) 0.1748(2) -0.1009(4)
H6 H 0.1093 0.1954 -0.2223
C12 C 0.0526(2) 0.1478(2) 0.0057(5)
H7 H -0.0180 0.1500 -0.0431
C13 C 0.0001(3) 0.0906(2) 0.3052(5)
C14 C 0.0828(2) 0.11731(19) 0.1872(4)
Nd1A Nd 0.539966(10) 0.599474(7) 0.203364(18)
Nd1C Nd 0.460034(10) 0.400526(7) -0.203364(18)
Nd1C_2 Nd 0.460034(10) 0.400526(7) 0.796636(18)
O1C O 0.48212(14) 0.14036(11) -0.0237(3)
O4A O 0.35254(15) -0.01625(11) 0.1369(3)
O5A O 0.44977(15) -0.06000(11) 0.3933(3)
O5C O 0.55023(15) 0.06000(11) 0.6067(3)
loop_
_geom_bond_atom_site_label_1
_geom_bond_atom_site_label_2
_geom_bond_site_symmetry_1
_geom_bond_site_symmetry_2
Nd1 O2 1_555 1_555
O1 C2 1_555 1_555
O2 C2 1_555 1_555
O3 Nd1 1_555 1_555
O4 C5 1_555 1_555
O5 C5 1_555 1_555
N1 Nd1 1_555 1_555
O6 Nd1 1_555 1_555
O7 H1 1_555 1_555
C1 N1 1_555 1_555
N2 Nd1 1_555 1_555
O8 C6 1_555 1_555
C2 C1 1_555 1_555
C3 H2 1_555 1_555
C4 N2 1_555 1_555
H3 C4 1_555 1_555
C5 C7 1_555 1_555
C6 O6 1_555 1_555
C7 C1 1_555 1_555
O9 C13 1_555 1_555
C8 N1 1_555 1_555
H4 C8 1_555 1_555
C9 N2 1_555 1_555
C10 C3 1_555 1_555
H5 C10 1_555 1_555
C11 C4 1_555 1_555
H6 C11 1_555 1_555
C12 C11 1_555 1_555
H7 C12 1_555 1_555
C13 O7 1_555 1_555
C14 C9 1_555 1_555
Nd1A O4 1_555 1_555
Nd1C O5 1_555 1_555
Nd1C_2 O1 1_555 1_555
O1C Nd1 1_555 1_555
O4A Nd1 1_555 1_555
O5A Nd1 1_555 1_555
O5C Nd1 1_555 1_555
O5 Nd1A 1_555 1_555
C3 C7 1_555 1_555
C6 C9 1_555 1_555
C8 C10 1_555 1_555
C12 C14 1_555 1_555
C13 C14 1_555 1_555

#END
