
#######################################################################
#
#                 Cambridge Crystallographic Data Centre
#                                CCDC 
#
#######################################################################
#
# If this CIF has been generated from an entry in the Cambridge 
# Structural Database, then it will include bibliographic, chemical, 
# crystal, experimental, refinement or atomic coordinate data resulting 
# from the CCDC's data processing and validation procedures.
#
#######################################################################

data_NIGHIW
_symmetry_cell_setting           monoclinic
_symmetry_space_group_name_H-M   'P 21/c'
_symmetry_Int_Tables_number      14
_space_group_name_Hall           '-P 2ybc'
loop_
_symmetry_equiv_pos_site_id
_symmetry_equiv_pos_as_xyz
1 x,y,z
2 -x,1/2+y,1/2-z
3 -x,-y,-z
4 x,1/2-y,1/2+z
_cell_length_a                   12.8700(18)
_cell_length_b                   16.645(2)
_cell_length_c                   7.0312(10)
_cell_angle_alpha                90
_cell_angle_beta                 97.687(2)
_cell_angle_gamma                90
_cell_volume                     1492.7
loop_
_atom_site_label
_atom_site_type_symbol
_atom_site_fract_x
_atom_site_fract_y
_atom_site_fract_z
Eu1 Eu 0.54171(2) 0.100000(17) 0.20395(4)
O1 O 0.5209(3) 0.3580(2) 0.0199(5)
O2 O 0.3578(3) 0.4840(2) 0.1384(5)
O3 O 0.4517(3) 0.4372(2) 0.3990(5)
O4 O 0.3956(3) 0.0257(2) 0.2730(6)
C1 C 0.3869(5) 0.4263(3) 0.2485(8)
N1 N 0.3739(4) 0.2029(3) 0.1848(6)
O5 O 0.6711(3) 0.0801(2) 0.0034(6)
C2 C 0.4034(5) 0.2804(3) 0.1738(8)
O6 O 0.5640(3) 0.2308(2) 0.0950(6)
N2 N 0.7357(4) 0.1388(3) 0.3526(7)
C3 C 0.9984(5) 0.0907(4) 0.1915(9)
C4 C 0.2426(5) 0.3284(4) 0.2641(8)
H1 H 0.1992 0.3701 0.2930
C5 C 0.2090(5) 0.2499(4) 0.2657(8)
H2 H 0.1415 0.2380 0.2901
C6 C 0.7681(5) 0.0754(4) 0.0558(9)
C7 C 0.2777(4) 0.1886(4) 0.2302(8)
H3 H 0.2559 0.1355 0.2383
C8 C 0.5045(5) 0.2914(4) 0.0919(8)
C9 C 0.8716(5) 0.1735(4) 0.6037(9)
H4 H 0.8906 0.1940 0.7265
O7 O 1.0305(4) 0.1332(3) 0.0757(8)
C10 C 0.7682(5) 0.1683(4) 0.5269(9)
H5 H 0.7179 0.1863 0.6003
C11 C 0.8091(5) 0.1133(3) 0.2454(9)
O8 O 0.8307(4) 0.0422(4) -0.0353(8)
O9 O 1.0352(4) 0.0198(3) 0.2426(7)
C12 C 0.3414(5) 0.3441(3) 0.2188(8)
C13 C 0.9158(5) 0.1165(4) 0.3123(9)
C14 C 0.9475(5) 0.1476(4) 0.4945(9)
H6 H 1.0183 0.1511 0.5424
H7 H 0.369(4) -0.008(3) 0.198(6)
H8 H 0.373(5) 0.021(3) 0.375(5)
Eu1A Eu 0.45829(2) 0.600000(17) 0.29605(4)
Eu1C Eu 0.54171(2) 0.400000(17) -0.29605(4)
Eu1C_2 Eu 0.54171(2) 0.400000(17) 0.70395(4)
O1C O 0.5209(3) 0.1420(2) 0.5199(5)
O2A O 0.6422(3) -0.0160(2) 0.3616(5)
O3A O 0.5483(3) -0.0628(2) 0.1010(5)
O3C O 0.4517(3) 0.0628(2) -0.1010(5)
loop_
_geom_bond_atom_site_label_1
_geom_bond_atom_site_label_2
_geom_bond_site_symmetry_1
_geom_bond_site_symmetry_2
Eu1 O4 1_555 1_555
O1 C8 1_555 1_555
O2 C1 1_555 1_555
O3 C1 1_555 1_555
O4 H7 1_555 1_555
C1 C12 1_555 1_555
N1 Eu1 1_555 1_555
O5 Eu1 1_555 1_555
C2 N1 1_555 1_555
O6 Eu1 1_555 1_555
N2 Eu1 1_555 1_555
C3 O7 1_555 1_555
C4 H1 1_555 1_555
C5 C4 1_555 1_555
H2 C5 1_555 1_555
C6 O5 1_555 1_555
C7 N1 1_555 1_555
H3 C7 1_555 1_555
C8 C2 1_555 1_555
C9 H4 1_555 1_555
C10 N2 1_555 1_555
H5 C10 1_555 1_555
C11 N2 1_555 1_555
O8 C6 1_555 1_555
O9 C3 1_555 1_555
C12 C2 1_555 1_555
C13 C3 1_555 1_555
C14 C9 1_555 1_555
H6 C14 1_555 1_555
H8 O4 1_555 1_555
Eu1A O2 1_555 1_555
Eu1C O1 1_555 1_555
Eu1C_2 O3 1_555 1_555
O1C Eu1 1_555 1_555
O2A Eu1 1_555 1_555
O3A Eu1 1_555 1_555
O3C Eu1 1_555 1_555
O3 Eu1A 1_555 1_555
O6 C8 1_555 1_555
C4 C12 1_555 1_555
C5 C7 1_555 1_555
C6 C11 1_555 1_555
C9 C10 1_555 1_555
C11 C13 1_555 1_555
C13 C14 1_555 1_555

#END
