
#######################################################################
#
#                 Cambridge Crystallographic Data Centre
#                                CCDC 
#
#######################################################################
#
# If this CIF has been generated from an entry in the Cambridge 
# Structural Database, then it will include bibliographic, chemical, 
# crystal, experimental, refinement or atomic coordinate data resulting 
# from the CCDC's data processing and validation procedures.
#
#######################################################################

data_NIGHUI
_symmetry_cell_setting           monoclinic
_symmetry_space_group_name_H-M   'P 21/c'
_symmetry_Int_Tables_number      14
_space_group_name_Hall           '-P 2ybc'
loop_
_symmetry_equiv_pos_site_id
_symmetry_equiv_pos_as_xyz
1 x,y,z
2 -x,1/2+y,1/2-z
3 -x,-y,-z
4 x,1/2-y,1/2+z
_cell_length_a                   12.8364(16)
_cell_length_b                   16.747(2)
_cell_length_c                   7.0868(9)
_cell_angle_alpha                90
_cell_angle_beta                 97.073(2)
_cell_angle_gamma                90
_cell_volume                     1511.86
loop_
_atom_site_label
_atom_site_type_symbol
_atom_site_fract_x
_atom_site_fract_y
_atom_site_fract_z
Pr1 Pr 0.96059(2) 0.099388(16) 0.29685(4)
O1 O 0.9416(3) 0.2333(2) 0.4102(5)
O2 O 0.9827(3) 0.3602(2) 0.4740(5)
O3 O 1.1495(3) 0.4834(2) 0.3643(5)
O4 O 1.0506(3) 0.4408(2) 0.1083(5)
O5 O 1.1152(3) 0.0248(2) 0.2298(5)
O6 O 0.8254(3) 0.0823(2) 0.4982(5)
N1 N 1.1317(4) 0.2053(3) 0.3083(6)
C1 C 1.1011(4) 0.2815(3) 0.3220(7)
N2 N 0.7632(4) 0.1419(3) 0.1499(6)
O7 O 0.6639(4) 0.0473(5) 0.5339(8)
C2 C 1.0005(4) 0.2931(3) 0.4058(7)
O8 O 0.4672(5) 0.0180(4) 0.2560(8)
H1 H 0.4215 0.0045 0.3208
C3 C 1.2610(4) 0.3312(3) 0.2248(7)
H2 H 1.3041 0.3729 0.1952
C4 C 1.2266(4) 0.1910(3) 0.2573(7)
H3 H 1.2480 0.1384 0.2462
O9 O 0.4635(5) 0.1310(4) 0.4159(10)
C5 C 1.1625(4) 0.3461(3) 0.2743(7)
C6 C 0.5824(5) 0.1173(4) 0.1882(9)
C7 C 0.7326(5) 0.1717(4) -0.0209(8)
H4 H 0.7835 0.1911 -0.0916
C8 C 0.5527(5) 0.1479(4) 0.0061(9)
H5 H 0.4821 0.1498 -0.0432
C9 C 1.2948(5) 0.2522(3) 0.2200(8)
H6 H 1.3621 0.2405 0.1923
C10 C 1.1162(4) 0.4283(3) 0.2526(7)
C11 C 0.7265(5) 0.0792(4) 0.4451(9)
C12 C 0.6280(5) 0.1752(4) -0.0997(9)
H7 H 0.6095 0.1956 -0.2213
C13 C 0.6893(5) 0.1149(3) 0.2537(8)
C14 C 0.4988(6) 0.0904(5) 0.3031(10)
Pr1A Pr 1.03941(2) 0.599388(16) 0.20315(4)
Pr1C Pr 0.96059(2) 0.400612(16) -0.20315(4)
Pr1C_2 Pr 0.96059(2) 0.400612(16) 0.79685(4)
O2C O 0.9827(3) 0.1398(2) -0.0260(5)
O3A O 0.8505(3) -0.0166(2) 0.1357(5)
O4A O 0.9494(3) -0.0592(2) 0.3917(5)
O4C O 1.0506(3) 0.0592(2) 0.6083(5)
loop_
_geom_bond_atom_site_label_1
_geom_bond_atom_site_label_2
_geom_bond_site_symmetry_1
_geom_bond_site_symmetry_2
Pr1 O1 1_555 1_555
O1 C2 1_555 1_555
O2 C2 1_555 1_555
O3 C10 1_555 1_555
O4 C10 1_555 1_555
O5 Pr1 1_555 1_555
O6 Pr1 1_555 1_555
N1 Pr1 1_555 1_555
C1 N1 1_555 1_555
N2 Pr1 1_555 1_555
O7 C11 1_555 1_555
C2 C1 1_555 1_555
O8 H1 1_555 1_555
C3 H2 1_555 1_555
C4 N1 1_555 1_555
H3 C4 1_555 1_555
O9 C14 1_555 1_555
C5 C1 1_555 1_555
C6 C8 1_555 1_555
C7 N2 1_555 1_555
H4 C7 1_555 1_555
C8 H5 1_555 1_555
C9 C3 1_555 1_555
H6 C9 1_555 1_555
C10 C5 1_555 1_555
C11 O6 1_555 1_555
C12 C7 1_555 1_555
H7 C12 1_555 1_555
C13 N2 1_555 1_555
C14 O8 1_555 1_555
Pr1A O3 1_555 1_555
Pr1C O4 1_555 1_555
Pr1C_2 O2 1_555 1_555
O2C Pr1 1_555 1_555
O3A Pr1 1_555 1_555
O4A Pr1 1_555 1_555
O4C Pr1 1_555 1_555
O4 Pr1A 1_555 1_555
C3 C5 1_555 1_555
C4 C9 1_555 1_555
C6 C13 1_555 1_555
C6 C14 1_555 1_555
C8 C12 1_555 1_555
C11 C13 1_555 1_555

#END
