
#######################################################################
#
#                 Cambridge Crystallographic Data Centre
#                                CCDC 
#
#######################################################################
#
# If this CIF has been generated from an entry in the Cambridge 
# Structural Database, then it will include bibliographic, chemical, 
# crystal, experimental, refinement or atomic coordinate data resulting 
# from the CCDC's data processing and validation procedures.
#
#######################################################################

data_NIGHOA
_symmetry_cell_setting           monoclinic
_symmetry_space_group_name_H-M   'P 21/a'
_symmetry_Int_Tables_number      14
_space_group_name_Hall           '-P 2yab'
loop_
_symmetry_equiv_pos_site_id
_symmetry_equiv_pos_as_xyz
1 x,y,z
2 1/2-x,1/2+y,-z
3 -x,-y,-z
4 1/2+x,1/2-y,z
_cell_length_a                   12.280(8)
_cell_length_b                   12.553(5)
_cell_length_c                   19.490(9)
_cell_angle_alpha                90
_cell_angle_beta                 92.17(5)
_cell_angle_gamma                90
_cell_volume                     3002.25
loop_
_atom_site_label
_atom_site_type_symbol
_atom_site_fract_x
_atom_site_fract_y
_atom_site_fract_z
Cl1 Cl 0.2543(2) 0.2532(2) 0.9547(1)
O1 O 0.2578(7) 0.3628(6) 0.9557(6)
O2 O 0.2634(9) 0.210(1) 1.0196(4)
O3 O 0.3481(9) 0.2286(8) 0.9222(7)
O4 O 0.1619(8) 0.2147(9) 0.9230(5)
Cl2 Cl 0.2982(1) 0.2095(2) 0.53353(9)
O5 O 0.4063(7) 0.2058(8) 0.5429(7)
O6 O 0.262(1) 0.1983(9) 0.5980(5)
O7 O 0.2574(8) 0.1237(7) 0.4984(5)
O8 O 0.2675(9) 0.3049(7) 0.5107(6)
O9 O 0.5361(9) 0.197(1) 0.8075(6)
C21 C 0.634(2) 0.226(2) 0.784(2)
O10 O 0.831(2) 0.246(2) 0.743(1)
C22 C 0.930(2) 0.205(2) 0.704(1)
Cu1 Cu 0.76480(6) 0.11174(6) 0.24513(3)
N1 N 0.6540(4) 0.1120(4) 0.1673(2)
N2 N 0.5423(5) 0.0546(5) 0.0856(3)
N3 N 0.8806(4) 0.0577(4) 0.1819(2)
N4 N 0.9808(4) 0.0363(4) 0.0916(3)
N5 N 0.8759(4) 0.0996(4) 0.3227(2)
N6 N 0.9757(4) 0.0339(4) 0.4082(2)
N7 N 1.3564(4) -0.0723(4) 0.6899(2)
N8 N 1.4989(4) 0.0088(4) 0.6501(3)
N9 N 1.7128(4) -0.0556(4) 0.6998(3)
N10 N 0.7728(4) 0.2872(4) 0.2511(3)
C1 C 0.5743(5) 0.1896(6) 0.1554(3)
C2 C 0.5060(6) 0.1529(6) 0.1034(4)
C3 C 0.6339(6) 0.0344(6) 0.1235(3)
C4 C 0.4845(7) -0.0177(7) 0.0346(4)
C5 C 0.9642(6) -0.0132(6) 0.1969(3)
C6 C 1.0251(5) -0.0287(6) 0.1418(3)
C7 C 0.8947(5) 0.0855(5) 0.1171(3)
C8 C 1.0195(6) 0.0481(6) 0.0205(3)
C9 C 0.9711(5) 0.1579(5) 0.3295(3)
C10 C 1.0317(5) 0.1195(6) 0.3826(3)
C11 C 0.8819(5) 0.0270(5) 0.3712(3)
C12 C 1.0096(5) -0.0303(6) 0.4669(3)
C13 C 1.3714(5) -0.1062(6) 0.6235(3)
C14 C 1.4595(6) -0.0570(6) 0.5990(3)
C15 C 1.4350(5) -0.0034(5) 0.7033(3)
C16 C 1.5914(5) 0.0816(6) 0.6469(4)
C17 C 1.7003(5) 0.0237(5) 0.6450(4)
C18 C 1.7250(6) -0.0369(6) 0.7696(4)
C19 C 0.7663(6) 0.3662(6) 0.2014(3)
C20 C 0.7868(5) 0.3391(5) 0.3099(3)
H1 H 0.5513 0.1520 0.1668
H2 H 0.4290 0.1761 0.0800
H3 H 0.6453 -0.0371 0.1283
H4 H 0.5245 -0.0776 0.0406
H5 H 0.4068 -0.0270 0.0348
H6 H 0.9607 -0.0493 0.2460
H7 H 1.0999 -0.0737 0.1374
H8 H 0.8476 0.1244 0.0914
H9 H 0.9887 0.1011 0.0065
H10 H 1.0528 0.0198 0.0344
H11 H 0.9894 0.2187 0.3013
H12 H 1.1038 0.1322 0.4006
H13 H 0.8252 -0.0296 0.3803
H14 H 0.9794 -0.1035 0.4718
H15 H 1.0845 -0.0463 0.4673
H16 H 1.3200 -0.1562 0.5992
H17 H 1.4956 -0.0536 0.5537
H18 H 1.4502 0.0459 0.7462
H19 H 1.5994 0.1163 0.6846
H20 H 1.5805 0.1243 0.5989
H21 H 1.6986 -0.0150 0.6120
H22 H 1.7676 0.0745 0.6514
H23 H 1.7215 0.0531 0.7896
H24 H 0.7568 0.3531 0.1522
H25 H 0.7961 0.3043 0.3544
C4B C 0.5155(7) 0.0177(7) -0.0346(4)
N2B N 0.4577(5) -0.0546(5) -0.0856(3)
C2B C 0.4940(6) -0.1529(6) -0.1034(4)
C1B C 0.4257(5) -0.1896(6) -0.1554(3)
N1B N 0.3460(4) -0.1120(4) -0.1673(2)
Cu1B Cu 0.23520(6) -0.11174(6) -0.24513(3)
Cu1A Cu 1.73520(6) -0.38826(6) 0.75487(3)
N10A N 1.7272(4) -0.2128(4) 0.7489(3)
C19A C 1.7337(6) -0.1338(6) 0.7986(3)
C20A C 1.7132(5) -0.1609(5) 0.6901(3)
Cu1B_2 Cu 1.23520(6) -0.11174(6) 0.75487(3)
N1B_2 N 1.3460(4) -0.1120(4) 0.8327(2)
N3B N 1.1194(4) -0.0577(4) 0.8181(2)
N5B N 1.1241(4) -0.0996(4) 0.6773(2)
C9B C 1.0289(5) -0.1579(5) 0.6705(3)
C10B C 0.9683(5) -0.1195(6) 0.6174(3)
N6B N 1.0243(4) -0.0339(4) 0.5918(2)
C11B C 1.1181(5) -0.0270(5) 0.6288(3)
H13B H 1.1748 0.0296 0.6197
C12B C 0.9904(5) 0.0303(6) 0.5331(3)
H12B H 0.8962 -0.1322 0.5994
H11B H 1.0106 -0.2187 0.6987
H25A H 1.7039 -0.1957 0.6456
C3B C 0.3661(6) -0.0344(6) -0.1235(3)
H3B H 0.3547 0.0371 -0.1283
H1B H 0.4487 -0.1520 -0.1668
H2B H 0.5710 -0.1761 -0.0800
H4B H 0.4755 0.0776 -0.0406
H5B H 0.5932 0.0270 -0.0348
C8B C 0.9805(6) -0.0481(6) -0.0205(3)
N4B N 1.0192(4) -0.0363(4) -0.0916(3)
C6B C 0.9749(5) 0.0287(6) -0.1418(3)
C5B C 1.0358(6) 0.0132(6) -0.1969(3)
N3B_2 N 1.1194(4) -0.0577(4) -0.1819(2)
Cu1B_3 Cu 1.23520(6) -0.11174(6) -0.24513(3)
C7B C 1.1053(5) -0.0855(5) -0.1171(3)
H8B H 1.1524 -0.1244 -0.0914
H6B H 1.0393 0.0493 -0.2460
H7B H 0.9001 0.0737 -0.1374
H9B H 1.0113 -0.1011 -0.0065
H10B H 0.9472 -0.0198 -0.0344
C18A C 0.7750(6) 0.4631(6) 0.2304(4)
N9A N 0.7872(4) 0.4444(4) 0.3002(3)
H24A H 1.7432 -0.1469 0.8478
C17A C 0.7997(5) 0.5237(5) 0.3550(4)
C16A C 0.9086(5) 0.5816(6) 0.3531(4)
N8A N 1.0011(4) 0.5088(4) 0.3499(3)
C14A C 1.0405(6) 0.4430(6) 0.4010(3)
C13A C 1.1286(5) 0.3938(6) 0.3765(3)
N7A N 1.1436(4) 0.4277(4) 0.3101(2)
Cu1C Cu 1.26480(6) 0.38826(6) 0.24513(3)
C15A C 1.0650(5) 0.4966(5) 0.2967(3)
H18A H 1.0498 0.5459 0.2538
H16A H 1.1800 0.3438 0.4008
H17A H 1.0044 0.4464 0.4463
H19A H 0.9006 0.6163 0.3154
H20A H 0.9195 0.6243 0.4011
H21A H 0.8014 0.4850 0.3880
H22A H 0.7324 0.5745 0.3486
H23A H 0.7785 0.5531 0.2104
loop_
_geom_bond_atom_site_label_1
_geom_bond_atom_site_label_2
_geom_bond_site_symmetry_1
_geom_bond_site_symmetry_2
Cu1 N1 1_555 1_555
Cl1 O1 1_555 1_555
Cl2 O5 1_555 1_555
O2 Cl1 1_555 1_555
O3 Cl1 1_555 1_555
O4 Cl1 1_555 1_555
O6 Cl2 1_555 1_555
O7 Cl2 1_555 1_555
O8 Cl2 1_555 1_555
O9 C21 1_555 1_555
O10 C22 1_555 1_555
N1 C1 1_555 1_555
N2 C2 1_555 1_555
N3 Cu1 1_555 1_555
N4 C6 1_555 1_555
N5 Cu1 1_555 1_555
N6 C10 1_555 1_555
N7 C13 1_555 1_555
N8 C14 1_555 1_555
N9 C17 1_555 1_555
N10 Cu1 1_555 1_555
C1 C2 1_555 1_555
C2 H2 1_555 1_555
C3 N1 1_555 1_555
C4 N2 1_555 1_555
C5 N3 1_555 1_555
C6 C5 1_555 1_555
C7 N3 1_555 1_555
C8 N4 1_555 1_555
C9 N5 1_555 1_555
C10 C9 1_555 1_555
C11 N5 1_555 1_555
C12 N6 1_555 1_555
C13 C14 1_555 1_555
C14 H17 1_555 1_555
C15 N7 1_555 1_555
C16 N8 1_555 1_555
C17 C16 1_555 1_555
C18 N9 1_555 1_555
C19 N10 1_555 1_555
C20 N10 1_555 1_555
H1 C1 1_555 1_555
H3 C3 1_555 1_555
H4 C4 1_555 1_555
H5 C4 1_555 1_555
H6 C5 1_555 1_555
H7 C6 1_555 1_555
H8 C7 1_555 1_555
H9 C8 1_555 1_555
H10 C8 1_555 1_555
H11 C9 1_555 1_555
H12 C10 1_555 1_555
H13 C11 1_555 1_555
H14 C12 1_555 1_555
H15 C12 1_555 1_555
H16 C13 1_555 1_555
H18 C15 1_555 1_555
H19 C16 1_555 1_555
H20 C16 1_555 1_555
H21 C17 1_555 1_555
H22 C17 1_555 1_555
H23 C18 1_555 1_555
H24 C19 1_555 1_555
H25 C20 1_555 1_555
C4B C4 1_555 1_555
N2B C4B 1_555 1_555
C2B N2B 1_555 1_555
C1B C2B 1_555 1_555
N1B C1B 1_555 1_555
Cu1B N1B 1_555 1_555
Cu1A N10A 1_555 1_555
N10A C19A 1_555 1_555
C19A C18 1_555 1_555
C20A N9 1_555 1_555
Cu1B_2 N7 1_555 1_555
N1B_2 Cu1B_2 1_555 1_555
N3B Cu1B_2 1_555 1_555
N5B Cu1B_2 1_555 1_555
C9B N5B 1_555 1_555
C10B C9B 1_555 1_555
N6B C10B 1_555 1_555
C11B N5B 1_555 1_555
H13B C11B 1_555 1_555
C12B C12 1_555 1_555
H12B C10B 1_555 1_555
H11B C9B 1_555 1_555
H25A C20A 1_555 1_555
C3B N2B 1_555 1_555
H3B C3B 1_555 1_555
H1B C1B 1_555 1_555
H2B C2B 1_555 1_555
H4B C4B 1_555 1_555
H5B C4B 1_555 1_555
C8B C8 1_555 1_555
N4B C8B 1_555 1_555
C6B N4B 1_555 1_555
C5B C6B 1_555 1_555
N3B_2 C5B 1_555 1_555
Cu1B_3 N3B_2 1_555 1_555
C7B N4B 1_555 1_555
H8B C7B 1_555 1_555
H6B C5B 1_555 1_555
H7B C6B 1_555 1_555
H9B C8B 1_555 1_555
H10B C8B 1_555 1_555
C18A C19 1_555 1_555
N9A C20 1_555 1_555
H24A C19A 1_555 1_555
C17A N9A 1_555 1_555
C16A C17A 1_555 1_555
N8A C16A 1_555 1_555
C14A N8A 1_555 1_555
C13A C14A 1_555 1_555
N7A C13A 1_555 1_555
Cu1C N7A 1_555 1_555
C15A N8A 1_555 1_555
H18A C15A 1_555 1_555
H16A C13A 1_555 1_555
H17A C14A 1_555 1_555
H19A C16A 1_555 1_555
H20A C16A 1_555 1_555
H21A C17A 1_555 1_555
H22A C17A 1_555 1_555
H23A C18A 1_555 1_555
N2 C3 1_555 1_555
N4 C7 1_555 1_555
N6 C11 1_555 1_555
N8 C15 1_555 1_555
N1B C3B 1_555 1_555
N10A C20A 1_555 1_555
N6B C11B 1_555 1_555
N6B C12B 1_555 1_555
N3B_2 C7B 1_555 1_555
C18A N9A 1_555 1_555
N7A C15A 1_555 1_555

#END
