
#######################################################################
#
#                 Cambridge Crystallographic Data Centre
#                                CCDC 
#
#######################################################################
#
# If this CIF has been generated from an entry in the Cambridge 
# Structural Database, then it will include bibliographic, chemical, 
# crystal, experimental, refinement or atomic coordinate data resulting 
# from the CCDC's data processing and validation procedures.
#
#######################################################################

data_NIGJAO
_symmetry_cell_setting           triclinic
_symmetry_space_group_name_H-M   'P -1'
_symmetry_Int_Tables_number      2
_space_group_name_Hall           '-P 1'
loop_
_symmetry_equiv_pos_site_id
_symmetry_equiv_pos_as_xyz
1 x,y,z
2 -x,-y,-z
_cell_length_a                   11.792(4)
_cell_length_b                   11.877(3)
_cell_length_c                   7.688(2)
_cell_angle_alpha                95.88(3)
_cell_angle_beta                 101.44(3)
_cell_angle_gamma                61.97(2)
_cell_volume                     931.498
loop_
_atom_site_label
_atom_site_type_symbol
_atom_site_fract_x
_atom_site_fract_y
_atom_site_fract_z
S1 S 0.27653(6) -0.19928(5) 0.29719(8)
S2 S 0.23587(6) -0.78774(5) 0.20033(8)
O1 O 0.3113(2) 0.0231(2) 0.5633(2)
C1 C 0.3208(3) -0.2882(2) 0.0925(4)
C2 C 0.3533(3) -0.4262(2) 0.1059(3)
C3 C 0.4468(3) -0.5018(2) 0.2409(4)
C4 C 0.4625(3) -0.6227(2) 0.2681(4)
C5 C 0.3859(2) -0.6700(2) 0.1574(3)
C6 C 0.3017(3) -0.5994(2) 0.0120(4)
C7 C 0.2844(3) -0.4772(2) -0.0127(3)
C8 C 0.3941(3) -0.7947(2) 0.2037(4)
C9 C 0.1168(3) -0.1874(2) 0.3008(4)
C10 C 0.1223(2) -0.3121(2) 0.3396(4)
C11 C 0.2028(3) -0.3843(3) 0.4857(4)
C12 C 0.2176(3) -0.5053(3) 0.5063(3)
C13 C 0.1495(3) -0.5551(2) 0.3849(3)
C14 C 0.0597(3) -0.4784(3) 0.2490(4)
C15 C 0.0470(3) -0.3583(2) 0.2239(4)
C16 C 0.1789(3) -0.6925(2) 0.3970(4)
C17 C 0.2266(3) 0.0661(3) 0.6912(4)
C18 C 0.2408(3) -0.0392(4) 0.7928(5)
Cu1 Cu 0.25989(3) 0.00783(3) 0.26758(4)
Cl1 Cl 0.47459(6) -0.10086(6) 0.2452(1)
Cl2 Cl 0.04200(6) 0.10841(6) 0.2256(1)
H1 H 0.2494 -0.2491 -0.0035
H2 H 0.3944 -0.2830 0.0659
H3 H 0.5011 -0.4702 0.3169
H4 H 0.5278 -0.6750 0.3626
H5 H 0.2553 -0.6347 -0.0724
H6 H 0.2236 -0.4275 -0.1125
H7 H 0.4444 -0.8187 0.3203
H8 H 0.4382 -0.8584 0.1214
H9 H 0.0779 -0.1261 0.3891
H10 H 0.0631 -0.1574 0.1875
H11 H 0.2490 -0.3504 0.5735
H12 H 0.2763 -0.5557 0.6070
H13 H 0.0050 -0.5082 0.1695
H14 H -0.0146 -0.3063 0.1268
H15 H 0.1012 -0.6947 0.4127
H16 H 0.2440 -0.7298 0.4994
H17 H 0.2435 0.1259 0.7719
H18 H 0.1369 0.1110 0.6317
H19 H 0.1829 -0.0086 0.8776
H20 H 0.2208 -0.0979 0.7142
H21 H 0.3278 -0.0833 0.8540
S2_2 S 0.23587(6) 0.21226(5) 0.20033(8)
Cu1_2 Cu 0.25989(3) -0.99217(3) 0.26758(4)
loop_
_geom_bond_atom_site_label_1
_geom_bond_atom_site_label_2
_geom_bond_site_symmetry_1
_geom_bond_site_symmetry_2
S1 C1 1_555 1_555
S2 C8 1_555 1_555
O1 C17 1_555 1_555
C1 C2 1_555 1_555
C2 C3 1_555 1_555
C3 C4 1_555 1_555
C4 C5 1_555 1_555
C5 C6 1_555 1_555
C6 C7 1_555 1_555
C7 C2 1_555 1_555
C8 C5 1_555 1_555
C9 S1 1_555 1_555
C10 C9 1_555 1_555
C11 C10 1_555 1_555
C12 C11 1_555 1_555
C13 C12 1_555 1_555
C14 C13 1_555 1_555
C15 C10 1_555 1_555
C16 S2 1_555 1_555
C17 C18 1_555 1_555
C18 H19 1_555 1_555
Cu1 S1 1_555 1_555
Cl1 Cu1 1_555 1_555
Cl2 Cu1 1_555 1_555
H1 C1 1_555 1_555
H2 C1 1_555 1_555
H3 C3 1_555 1_555
H4 C4 1_555 1_555
H5 C6 1_555 1_555
H6 C7 1_555 1_555
H7 C8 1_555 1_555
H8 C8 1_555 1_555
H9 C9 1_555 1_555
H10 C9 1_555 1_555
H11 C11 1_555 1_555
H12 C12 1_555 1_555
H13 C14 1_555 1_555
H14 C15 1_555 1_555
H15 C16 1_555 1_555
H16 C16 1_555 1_555
H17 C17 1_555 1_555
H18 C17 1_555 1_555
H20 C18 1_555 1_555
H21 C18 1_555 1_555
S2_2 Cu1 1_555 1_555
Cu1_2 S2 1_555 1_555
O1 Cu1 1_555 1_555
C13 C16 1_555 1_555
C14 C15 1_555 1_555

#END
