
#######################################################################
#
#                 Cambridge Crystallographic Data Centre
#                                CCDC 
#
#######################################################################
#
# If this CIF has been generated from an entry in the Cambridge 
# Structural Database, then it will include bibliographic, chemical, 
# crystal, experimental, refinement or atomic coordinate data resulting 
# from the CCDC's data processing and validation procedures.
#
#######################################################################

data_NIGJAQ
_symmetry_cell_setting           monoclinic
_symmetry_space_group_name_H-M   'P 21/c'
_symmetry_Int_Tables_number      14
_space_group_name_Hall           '-P 2ybc'
loop_
_symmetry_equiv_pos_site_id
_symmetry_equiv_pos_as_xyz
1 x,y,z
2 -x,1/2+y,1/2-z
3 -x,-y,-z
4 x,1/2-y,1/2+z
_cell_length_a                   12.8559(18)
_cell_length_b                   16.655(2)
_cell_length_c                   7.0465(10)
_cell_angle_alpha                90
_cell_angle_beta                 97.533(2)
_cell_angle_gamma                90
_cell_volume                     1495.74
loop_
_atom_site_label
_atom_site_type_symbol
_atom_site_fract_x
_atom_site_fract_y
_atom_site_fract_z
Sm1 Sm 0.958817(13) 0.099843(9) 0.79662(2)
O1 O 0.98014(19) 0.35862(14) 0.9795(3)
O2 O 1.14413(19) 0.48398(14) 0.8631(3)
O3 O 0.82867(19) 0.08049(14) 0.9969(3)
O4 O 1.10733(19) 0.02543(14) 0.7275(3)
N1 N 1.1277(2) 0.20347(17) 0.8141(4)
O5 O 0.9377(2) 0.23159(14) 0.9068(4)
N2 N 0.7645(2) 0.13942(17) 0.6496(4)
C1 C 1.0980(3) 0.2803(2) 0.8257(5)
O6 O 1.04919(19) 0.43795(14) 0.6039(3)
C2 C 1.2919(3) 0.2501(2) 0.7317(5)
H1 H 1.3594 0.2381 0.7065
C3 C 0.7327(3) 0.1692(2) 0.4751(5)
H2 H 0.7832 0.1875 0.4022
C4 C 1.2588(3) 0.3291(2) 0.7337(5)
H3 H 1.3024 0.3707 0.7046
C5 C 1.1138(3) 0.4274(2) 0.7523(5)
C6 C 0.9961(3) 0.2915(2) 0.9075(4)
C7 C 1.1591(3) 0.34501(19) 0.7802(5)
C8 C 0.7303(3) 0.0764(2) 0.9449(5)
C9 C 0.6284(3) 0.1741(3) 0.3985(6)
H4 H 0.6093 0.1949 0.2764
C10 C 1.2239(3) 0.1892(2) 0.7674(5)
H5 H 1.2457 0.1362 0.7587
C11 C 0.5841(3) 0.1169(2) 0.6882(6)
C12 C 0.6907(3) 0.1134(2) 0.7533(5)
C13 C 0.5527(3) 0.1478(3) 0.5061(6)
H6 H 0.4820 0.1507 0.4578
O7 O 0.6676(2) 0.0440(3) 1.0353(5)
O8 O 0.4684(3) 0.1330(2) 0.9231(5)
C14 C 0.5009(3) 0.0906(3) 0.8077(6)
O9 O 0.4678(3) 0.0188(2) 0.7594(6)
H7 H 0.4169 0.0219 0.6763
Sm1A Sm 1.041183(13) 0.599843(9) 0.70338(2)
Sm1C Sm 0.958817(13) 0.400157(9) 0.29662(2)
Sm1C_2 Sm 0.958817(13) 0.400157(9) 1.29662(2)
O1C O 0.98014(19) 0.14138(14) 0.4795(3)
O2A O 0.85587(19) -0.01602(14) 0.6369(3)
O6A O 0.95081(19) -0.06205(14) 0.8961(3)
O6C O 1.04919(19) 0.06205(14) 1.1039(3)
loop_
_geom_bond_atom_site_label_1
_geom_bond_atom_site_label_2
_geom_bond_site_symmetry_1
_geom_bond_site_symmetry_2
Sm1 O3 1_555 1_555
O1 C6 1_555 1_555
O2 C5 1_555 1_555
O3 C8 1_555 1_555
O4 Sm1 1_555 1_555
N1 Sm1 1_555 1_555
O5 Sm1 1_555 1_555
N2 Sm1 1_555 1_555
C1 N1 1_555 1_555
O6 C5 1_555 1_555
C2 H1 1_555 1_555
C3 N2 1_555 1_555
H2 C3 1_555 1_555
C4 C2 1_555 1_555
H3 C4 1_555 1_555
C5 C7 1_555 1_555
C6 O5 1_555 1_555
C7 C1 1_555 1_555
C8 C12 1_555 1_555
C9 C3 1_555 1_555
H4 C9 1_555 1_555
C10 N1 1_555 1_555
H5 C10 1_555 1_555
C11 C12 1_555 1_555
C12 N2 1_555 1_555
C13 C9 1_555 1_555
H6 C13 1_555 1_555
O7 C8 1_555 1_555
O8 C14 1_555 1_555
C14 C11 1_555 1_555
O9 C14 1_555 1_555
H7 O9 1_555 1_555
Sm1A O2 1_555 1_555
Sm1C O6 1_555 1_555
Sm1C_2 O1 1_555 1_555
O1C Sm1 1_555 1_555
O2A Sm1 1_555 1_555
O6A Sm1 1_555 1_555
O6C Sm1 1_555 1_555
C1 C6 1_555 1_555
O6 Sm1A 1_555 1_555
C2 C10 1_555 1_555
C4 C7 1_555 1_555
C11 C13 1_555 1_555

#END
