
#######################################################################
#
#                 Cambridge Crystallographic Data Centre
#                                CCDC 
#
#######################################################################
#
# If this CIF has been generated from an entry in the Cambridge 
# Structural Database, then it will include bibliographic, chemical, 
# crystal, experimental, refinement or atomic coordinate data resulting 
# from the CCDC's data processing and validation procedures.
#
#######################################################################

data_NIGJES
_symmetry_cell_setting           triclinic
_symmetry_space_group_name_H-M   'P -1'
_symmetry_Int_Tables_number      2
_space_group_name_Hall           '-P 1'
loop_
_symmetry_equiv_pos_site_id
_symmetry_equiv_pos_as_xyz
1 x,y,z
2 -x,-y,-z
_cell_length_a                   7.447(1)
_cell_length_b                   11.877(1)
_cell_length_c                   11.753(1)
_cell_angle_alpha                62.608(6)
_cell_angle_beta                 92.32(1)
_cell_angle_gamma                98.47(1)
_cell_volume                     912.47
loop_
_atom_site_label
_atom_site_type_symbol
_atom_site_fract_x
_atom_site_fract_y
_atom_site_fract_z
S1 S 0.8011(1) 0.27056(9) 0.80183(9)
S2 S 0.7106(1) 0.23673(10) 0.21249(9)
O1 O 1.0809(4) 0.2991(3) 1.0119(3)
C1 C 0.5899(5) 0.3166(4) 0.7204(4)
C2 C 0.6055(5) 0.3499(4) 0.5816(4)
C3 C 0.4930(5) 0.2794(4) 0.5338(4)
C4 C 0.5214(5) 0.2978(4) 0.4116(4)
C5 C 0.6666(5) 0.3843(4) 0.3370(4)
C6 C 0.7703(5) 0.4633(4) 0.3809(4)
C7 C 0.7386(5) 0.4463(4) 0.5026(4)
C8 C 0.7185(5) 0.3913(4) 0.2107(4)
C9 C 0.8101(5) 0.1105(4) 0.8115(4)
C10 C 0.8488(5) 0.1190(4) 0.6831(4)
C11 C 0.7350(6) 0.0401(4) 0.6425(4)
C12 C 0.7612(5) 0.0535(4) 0.5214(4)
C13 C 0.8958(5) 0.1454(4) 0.4392(4)
C14 C 1.0129(5) 0.2161(4) 0.4842(4)
C15 C 0.9928(5) 0.2027(4) 0.6051(4)
C16 C 0.9094(5) 0.1722(4) 0.3027(4)
C17 C 1.2230(7) 0.2415(5) 1.0017(6)
Br1 Br 0.74242(6) 0.48405(4) 0.89418(4)
Br2 Br 0.71903(6) 0.02510(4) 1.11469(4)
Cu1 Cu 0.77290(6) 0.25617(5) 1.00778(4)
H1 H 0.5809 0.3916 0.7369
H2 H 0.4926 0.2519 0.7558
H3 H 0.4068 0.2063 0.5999
H4 H 0.4457 0.2519 0.3686
H5 H 0.8817 0.5266 0.3332
H6 H 0.8321 0.5027 0.5298
H7 H 0.6328 0.4336 0.1439
H8 H 0.8362 0.4461 0.1760
H9 H 0.9147 0.0896 0.8705
H10 H 0.6774 0.0476 0.8638
H11 H 1.0859 0.2536 0.6436
H12 H 0.6298 -0.0273 0.7105
H13 H 1.1098 0.2802 0.4234
H14 H 0.6761 0.0039 0.4828
H15 H 1.0168 0.2463 0.2583
H16 H 0.9210 0.1058 0.2851
H17 H 1.0976 0.3696 1.0299
H18 H 1.2874 0.2073 1.0785
H19 H 1.1786 0.1715 0.9823
H20 H 1.3069 0.3022 0.9346
S2_2 S 0.7106(1) 0.23673(10) 1.21249(9)
Cu1_2 Cu 0.77290(6) 0.25617(5) 0.00778(4)
loop_
_geom_bond_atom_site_label_1
_geom_bond_atom_site_label_2
_geom_bond_site_symmetry_1
_geom_bond_site_symmetry_2
S1 C1 1_555 1_555
S2 C8 1_555 1_555
O1 C17 1_555 1_555
C1 C2 1_555 1_555
C2 C3 1_555 1_555
C3 C4 1_555 1_555
C4 C5 1_555 1_555
C5 C6 1_555 1_555
C6 C7 1_555 1_555
C7 C2 1_555 1_555
C8 C5 1_555 1_555
C9 S1 1_555 1_555
C10 C9 1_555 1_555
C11 C10 1_555 1_555
C12 C11 1_555 1_555
C13 C12 1_555 1_555
C14 C13 1_555 1_555
C15 C10 1_555 1_555
C16 S2 1_555 1_555
C17 H18 1_555 1_555
Br1 Cu1 1_555 1_555
Br2 Cu1 1_555 1_555
Cu1 S1 1_555 1_555
H1 C1 1_555 1_555
H2 C1 1_555 1_555
H3 C3 1_555 1_555
H4 C4 1_555 1_555
H5 C6 1_555 1_555
H6 C7 1_555 1_555
H7 C8 1_555 1_555
H8 C8 1_555 1_555
H9 C9 1_555 1_555
H10 C9 1_555 1_555
H11 C15 1_555 1_555
H12 C11 1_555 1_555
H13 C14 1_555 1_555
H14 C12 1_555 1_555
H15 C16 1_555 1_555
H16 C16 1_555 1_555
H17 O1 1_555 1_555
H19 C17 1_555 1_555
H20 C17 1_555 1_555
S2_2 Cu1 1_555 1_555
Cu1_2 S2 1_555 1_555
O1 Cu1 1_555 1_555
C13 C16 1_555 1_555
C14 C15 1_555 1_555

#END
