
#######################################################################
#
#                 Cambridge Crystallographic Data Centre
#                                CCDC 
#
#######################################################################
#
# If this CIF has been generated from an entry in the Cambridge 
# Structural Database, then it will include bibliographic, chemical, 
# crystal, experimental, refinement or atomic coordinate data resulting 
# from the CCDC's data processing and validation procedures.
#
#######################################################################

data_NIGPEZ
_symmetry_cell_setting           orthorhombic
_symmetry_space_group_name_H-M   'P 21 21 2'
_symmetry_Int_Tables_number      18
_space_group_name_Hall           'P 2 2ab'
loop_
_symmetry_equiv_pos_site_id
_symmetry_equiv_pos_as_xyz
1 x,y,z
2 -x,-y,z
3 1/2+x,1/2-y,-z
4 1/2-x,1/2+y,-z
_cell_length_a                   7.608(5)
_cell_length_b                   8.883(5)
_cell_length_c                   9.914(5)
_cell_angle_alpha                90
_cell_angle_beta                 90
_cell_angle_gamma                90
_cell_volume                     670.007
loop_
_atom_site_label
_atom_site_type_symbol
_atom_site_fract_x
_atom_site_fract_y
_atom_site_fract_z
C1 C 0.1821(3) 0.3036(3) 0.4307(2)
H1 H 0.2027 0.2919 0.5226
C2 C 0.0451(2) 0.2239(2) 0.2410(2)
H2 H -0.0307 0.1581 0.1968
C3 C 0.1260(2) 0.3361(2) 0.16808(18)
H3 H 0.1065 0.3464 0.0759
C4 C 0.2379(2) 0.4337(2) 0.23636(19)
C5 C 0.3288(2) 0.5617(2) 0.16748(19)
H4 H 0.3800 0.6273 0.2352
H5 H 0.2427 0.6198 0.1174
Ag1 Ag 0.0000 0.0000 0.502131(16)
N1 N 0.0723(2) 0.2066(2) 0.37392(17)
N2 N 0.2660(2) 0.4164(2) 0.36940(17)
S1 S 0.5000 0.5000 0.05305(5)
C1A C 0.8179(3) 0.6964(3) 0.4307(2)
H1A H 0.7973 0.7081 0.5226
C2A C 0.9549(2) 0.7761(2) 0.2410(2)
H2A H 1.0307 0.8419 0.1968
C3A C 0.8740(2) 0.6639(2) 0.16808(18)
H3A H 0.8935 0.6536 0.0759
C4A C 0.7621(2) 0.5663(2) 0.23636(19)
C5A C 0.6712(2) 0.4383(2) 0.16748(19)
H4A H 0.6200 0.3727 0.2352
H5A H 0.7573 0.3802 0.1174
Ag1B Ag 0.5000 0.5000 0.497869(16)
Ag1_2 Ag 1.0000 1.0000 0.502131(16)
N1A N 0.9277(2) 0.7934(2) 0.37392(17)
N1A_2 N -0.0723(2) -0.2066(2) 0.37392(17)
N2A N 0.7340(2) 0.5836(2) 0.36940(17)
N2B N -0.2340(2) 0.0836(2) 0.63060(17)
N2C N 0.2340(2) -0.0836(2) 0.63060(17)
F1 F 0.5179(3) 0.87366(15) 0.29857(15)
B1 B 0.5000 1.0000 0.2189(3)
F2 F 0.6472(2) 1.0119(3) 0.13852(19)
F1A F 0.4821(3) 1.12634(15) 0.29857(15)
F2A F 0.3528(2) 0.9881(3) 0.13852(19)
loop_
_geom_bond_atom_site_label_1
_geom_bond_atom_site_label_2
_geom_bond_site_symmetry_1
_geom_bond_site_symmetry_2
C1 H1 1_555 1_555
C2 H2 1_555 1_555
C3 C2 1_555 1_555
H3 C3 1_555 1_555
C4 C3 1_555 1_555
C5 C4 1_555 1_555
H4 C5 1_555 1_555
H5 C5 1_555 1_555
Ag1 N1 1_555 1_555
N1 C1 1_555 1_555
N2 C1 1_555 1_555
S1 C5 1_555 1_555
F1 B1 1_555 1_555
B1 F2 1_555 1_555
C1A H1A 1_555 1_555
C2A H2A 1_555 1_555
C3A C2A 1_555 1_555
H3A C3A 1_555 1_555
C4A C3A 1_555 1_555
C5A S1 1_555 1_555
H4A C5A 1_555 1_555
H5A C5A 1_555 1_555
Ag1B N2 1_555 1_555
Ag1_2 N1A 1_555 1_555
N1A C1A 1_555 1_555
N1A_2 Ag1 1_555 1_555
N2A C1A 1_555 1_555
N2B Ag1 1_555 1_555
N2C Ag1 1_555 1_555
F1A B1 1_555 1_555
F2A B1 1_555 1_555
C2 N1 1_555 1_555
C4 N2 1_555 1_555
C2A N1A 1_555 1_555
C4A C5A 1_555 1_555
C4A N2A 1_555 1_555
Ag1B N2A 1_555 1_555

#END
