
#######################################################################
#
#                 Cambridge Crystallographic Data Centre
#                                CCDC 
#
#######################################################################
#
# If this CIF has been generated from an entry in the Cambridge 
# Structural Database, then it will include bibliographic, chemical, 
# crystal, experimental, refinement or atomic coordinate data resulting 
# from the CCDC's data processing and validation procedures.
#
#######################################################################

data_NIGPID
_symmetry_cell_setting           orthorhombic
_symmetry_space_group_name_H-M   'P 21 21 2'
_symmetry_Int_Tables_number      18
_space_group_name_Hall           'P 2 2ab'
loop_
_symmetry_equiv_pos_site_id
_symmetry_equiv_pos_as_xyz
1 x,y,z
2 -x,-y,z
3 1/2+x,1/2-y,-z
4 1/2-x,1/2+y,-z
_cell_length_a                   7.7198(3)
_cell_length_b                   9.1284(3)
_cell_length_c                   9.7867(4)
_cell_angle_alpha                90
_cell_angle_beta                 90
_cell_angle_gamma                90
_cell_volume                     689.663
loop_
_atom_site_label
_atom_site_type_symbol
_atom_site_fract_x
_atom_site_fract_y
_atom_site_fract_z
C1 C 0.8001(6) 0.7085(5) 0.5722(4)
H1 H 0.7699 0.7275 0.4797
C2 C 0.9528(5) 0.7721(4) 0.7604(3)
H2 H 1.0338 0.8333 0.8060
C3 C 0.8752(5) 0.6597(4) 0.8311(4)
H3 H 0.9008 0.6438 0.9249
C4 C 0.7586(5) 0.5699(4) 0.7629(4)
C5 C 0.6703(5) 0.4430(4) 0.8304(4)
H4 H 0.7572 0.3852 0.8816
H5 H 0.6200 0.3787 0.7592
Ag1 Ag 1.0000 1.0000 0.50432(3)
N1 N 0.9163(4) 0.7974(4) 0.6270(3)
N2 N 0.7213(4) 0.5966(4) 0.6307(3)
S1 S 0.5000 0.5000 0.94658(10)
C1A C 0.1999(6) 0.2915(5) 0.5722(4)
H1A H 0.2301 0.2725 0.4797
C2A C 0.0472(5) 0.2279(4) 0.7604(3)
H2A H -0.0338 0.1667 0.8060
C3A C 0.1248(5) 0.3403(4) 0.8311(4)
H3A H 0.0992 0.3562 0.9249
C4A C 0.2414(5) 0.4301(4) 0.7629(4)
C5A C 0.3297(5) 0.5570(4) 0.8304(4)
H4A H 0.2428 0.6148 0.8816
H5A H 0.3800 0.6213 0.7592
Ag1B Ag 0.5000 0.5000 0.49568(3)
Ag1_2 Ag 0.0000 0.0000 0.50432(3)
N1A N 0.0837(4) 0.2026(4) 0.6270(3)
N1A_2 N 1.0837(4) 1.2026(4) 0.6270(3)
N2A N 0.2787(4) 0.4034(4) 0.6307(3)
N2B N 1.2213(4) 0.9034(4) 0.3693(3)
N2C N 0.7787(4) 1.0966(4) 0.3693(3)
Cl1 Cl 1.0000 0.5000 0.22287(11)
O1 O 1.1380(10) 0.5263(15) 0.1438(5)
O2 O 0.9963(16) 0.6159(9) 0.3110(9)
O1A O 0.8620(10) 0.4737(15) 0.1438(5)
O2A O 1.0037(16) 0.3841(9) 0.3110(9)
loop_
_geom_bond_atom_site_label_1
_geom_bond_atom_site_label_2
_geom_bond_site_symmetry_1
_geom_bond_site_symmetry_2
C1 H1 1_555 1_555
C2 H2 1_555 1_555
C3 C2 1_555 1_555
H3 C3 1_555 1_555
C4 C3 1_555 1_555
C5 C4 1_555 1_555
H4 C5 1_555 1_555
H5 C5 1_555 1_555
Ag1 N1 1_555 1_555
Cl1 O1 1_555 1_555
N1 C1 1_555 1_555
N2 C1 1_555 1_555
O2 Cl1 1_555 1_555
S1 C5 1_555 1_555
C1A H1A 1_555 1_555
C2A H2A 1_555 1_555
C3A C2A 1_555 1_555
H3A C3A 1_555 1_555
C4A C3A 1_555 1_555
C5A S1 1_555 1_555
H4A C5A 1_555 1_555
H5A C5A 1_555 1_555
Ag1B N2 1_555 1_555
Ag1_2 N1A 1_555 1_555
N1A C1A 1_555 1_555
N1A_2 Ag1 1_555 1_555
N2A C1A 1_555 1_555
N2B Ag1 1_555 1_555
N2C Ag1 1_555 1_555
O1A Cl1 1_555 1_555
O2A Cl1 1_555 1_555
C2 N1 1_555 1_555
C4 N2 1_555 1_555
C2A N1A 1_555 1_555
C4A C5A 1_555 1_555
C4A N2A 1_555 1_555
Ag1B N2A 1_555 1_555

#END
