
#######################################################################
#
#                 Cambridge Crystallographic Data Centre
#                                CCDC 
#
#######################################################################
#
# If this CIF has been generated from an entry in the Cambridge 
# Structural Database, then it will include bibliographic, chemical, 
# crystal, experimental, refinement or atomic coordinate data resulting 
# from the CCDC's data processing and validation procedures.
#
#######################################################################

data_NIGRUS
_symmetry_cell_setting           monoclinic
_symmetry_space_group_name_H-M   'P 2/a'
_symmetry_Int_Tables_number      13
_space_group_name_Hall           '-P 2ya'
loop_
_symmetry_equiv_pos_site_id
_symmetry_equiv_pos_as_xyz
1 x,y,z
2 1/2-x,y,-z
3 -x,-y,-z
4 1/2+x,-y,z
_cell_length_a                   11.5842(10)
_cell_length_b                   6.7720(6)
_cell_length_c                   12.0905(15)
_cell_angle_alpha                90
_cell_angle_beta                 103.604(11)
_cell_angle_gamma                90
_cell_volume                     921.868
loop_
_atom_site_label
_atom_site_type_symbol
_atom_site_fract_x
_atom_site_fract_y
_atom_site_fract_z
Er1 Er 0.7500 0.98821(12) 1.0000
O1 O 0.8331(9) 0.7698(17) 0.9034(9)
O2 O 0.7764(10) 1.1474(18) 1.1834(9)
O3 O 0.9039(8) 1.2112(14) 1.0075(8)
O4 O 0.5774(8) 0.8448(15) 0.8751(8)
C1 C 0.8499(13) 0.707(2) 0.8117(14)
H1 H 0.7074 1.1630 1.2034
H2 H 0.8235 1.0761 1.2377
H3 H 0.9102 1.2399 0.9396
H4 H 0.8900 1.3183 1.0408
C2 C 0.5387(11) 0.760(2) 0.7825(12)
O5 O 0.9462(8) 0.6840(16) 0.7869(8)
C3 C 0.7383(11) 0.648(2) 0.7231(10)
O6 O 0.4275(8) 0.7375(15) 0.7371(8)
C4 C 0.6194(11) 0.672(2) 0.7147(11)
N1 N 0.7486(9) 0.5533(17) 0.6268(10)
Cu1 Cu 0.38932(14) 0.6003(3) 0.58916(14)
N2 N 0.5624(9) 0.5995(17) 0.6141(10)
N3 N 0.6415(8) 0.5262(16) 0.5633(8)
Cl1 Cl 0.2500 0.8751(8) 0.5000
O1A O -0.3331(9) 0.7698(17) 0.0966(9)
O4A O -0.0774(8) 0.8448(15) 0.1249(8)
C1A C -0.3499(13) 0.707(2) 0.1883(14)
C2A C -0.0387(11) 0.760(2) 0.2175(12)
O5A O -0.4462(8) 0.6840(16) 0.2131(8)
C3A C -0.2383(11) 0.648(2) 0.2769(10)
O6A O 0.0725(8) 0.7375(15) 0.2629(8)
C4A C -0.1194(11) 0.672(2) 0.2853(11)
N1A N -0.2486(9) 0.5533(17) 0.3732(10)
Cu1A Cu 0.11068(14) 0.6003(3) 0.41084(14)
N2A N -0.0624(9) 0.5995(17) 0.3859(10)
N3A N -0.1415(8) 0.5262(16) 0.4367(8)
O2A O 0.7236(10) 1.1474(18) 0.8166(9)
H1A H 0.7926 1.1630 0.7966
H2A H 0.6765 1.0761 0.7623
O3A O 0.5961(8) 1.2112(14) 0.9925(8)
H3A H 0.5898 1.2399 1.0604
H4A H 0.6100 1.3183 0.9592
Er1_2 Er -0.2500 0.98821(12) 0.0000
O1A_2 O 0.6669(9) 0.7698(17) 1.0966(9)
O4A_2 O 0.9226(8) 0.8448(15) 1.1249(8)
N1B N 0.2514(9) 0.4467(17) 0.3732(10)
N1C N 0.2486(9) 0.4467(17) 0.6268(10)
Cu1B Cu -0.38932(14) 0.3997(3) 0.41084(14)
Cu1B_2 Cu 0.61068(14) 0.3997(3) 0.41084(14)
Cu1C Cu -0.11068(14) 0.3997(3) 0.58916(14)
Cu1C_2 Cu 0.88932(14) 0.3997(3) 0.58916(14)
N3B N 0.3585(8) 0.4738(16) 0.4367(8)
N3C N 0.1415(8) 0.4738(16) 0.5633(8)
O7 O 0.4716(18) 0.896(3) 0.3718(14)
O8? O 0.503(4) 0.886(7) 0.499(4)
loop_
_geom_bond_atom_site_label_1
_geom_bond_atom_site_label_2
_geom_bond_site_symmetry_1
_geom_bond_site_symmetry_2
Er1 O1 1_555 1_555
O1 C1 1_555 1_555
O2 Er1 1_555 1_555
O3 Er1 1_555 1_555
O4 Er1 1_555 1_555
C1 O5 1_555 1_555
H1 O2 1_555 1_555
H2 O2 1_555 1_555
H3 O3 1_555 1_555
H4 O3 1_555 1_555
C2 O4 1_555 1_555
C3 C1 1_555 1_555
O6 C2 1_555 1_555
C4 C2 1_555 1_555
N1 C3 1_555 1_555
Cu1 O6 1_555 1_555
N2 C4 1_555 1_555
N3 N1 1_555 1_555
Cl1 Cu1 1_555 1_555
O1A C1A 1_555 1_555
O4A C2A 1_555 1_555
C1A O5A 1_555 1_555
C2A O6A 1_555 1_555
C3A C1A 1_555 1_555
O6A Cu1A 1_555 1_555
C4A C2A 1_555 1_555
N1A C3A 1_555 1_555
Cu1A Cl1 1_555 1_555
N2A C4A 1_555 1_555
N3A N1A 1_555 1_555
O2A Er1 1_555 1_555
H1A O2A 1_555 1_555
H2A O2A 1_555 1_555
O3A Er1 1_555 1_555
H3A O3A 1_555 1_555
H4A O3A 1_555 1_555
Er1_2 O1A 1_555 1_555
O1A_2 Er1 1_555 1_555
O4A_2 Er1 1_555 1_555
N1B Cu1A 1_555 1_555
N1C Cu1 1_555 1_555
Cu1B N1A 1_555 1_555
Cu1B_2 N3 1_555 1_555
Cu1C N3A 1_555 1_555
Cu1C_2 N1 1_555 1_555
N3B Cu1 1_555 1_555
N3C Cu1A 1_555 1_555
C3 C4 1_555 1_555
Cu1 N2 1_555 1_555
N2 N3 1_555 1_555
O4A Er1_2 1_555 1_555
C3A C4A 1_555 1_555
Cu1A N2A 1_555 1_555
N2A N3A 1_555 1_555
N1B N3B 1_555 1_555
N1C N3C 1_555 1_555

#END
