
#######################################################################
#
#                 Cambridge Crystallographic Data Centre
#                                CCDC 
#
#######################################################################
#
# If this CIF has been generated from an entry in the Cambridge 
# Structural Database, then it will include bibliographic, chemical, 
# crystal, experimental, refinement or atomic coordinate data resulting 
# from the CCDC's data processing and validation procedures.
#
#######################################################################

data_NIGRIG
_symmetry_cell_setting           monoclinic
_symmetry_space_group_name_H-M   'P 2/a'
_symmetry_Int_Tables_number      13
_space_group_name_Hall           '-P 2ya'
loop_
_symmetry_equiv_pos_site_id
_symmetry_equiv_pos_as_xyz
1 x,y,z
2 1/2-x,y,-z
3 -x,-y,-z
4 1/2+x,-y,z
_cell_length_a                   11.550(2)
_cell_length_b                   6.7557(15)
_cell_length_c                   12.137(3)
_cell_angle_alpha                90
_cell_angle_beta                 103.35(3)
_cell_angle_gamma                90
_cell_volume                     921.439
loop_
_atom_site_label
_atom_site_type_symbol
_atom_site_fract_x
_atom_site_fract_y
_atom_site_fract_z
Dy1 Dy 0.7500 0.51314(6) 1.0000
Cu1 Cu 0.88773(6) 1.10052(13) 0.58924(7)
Cl1 Cl 0.7500 1.3724(3) 0.5000
O1 O 0.4272(4) 0.7632(7) 0.7370(4)
O2 O 0.8331(4) 0.7337(8) 0.9036(4)
O3 O 0.9452(4) 0.8169(7) 0.7861(4)
O4 O 0.7276(4) 0.3514(8) 0.8177(4)
H1 H 0.6917 0.4290 0.7658
H2 H 0.7960 0.3237 0.8071
N1 N 0.7484(5) 0.9516(8) 0.6288(5)
O5 O 0.5759(4) 0.6570(7) 0.8743(4)
N2 N 0.6413(4) 0.9742(8) 0.5640(4)
N3 N 0.5615(4) 0.8983(8) 0.6143(5)
C1 C 0.5391(5) 0.7407(9) 0.7840(5)
C2 C 0.6186(5) 0.8249(9) 0.7163(5)
C3 C 0.8489(6) 0.7987(11) 0.8129(6)
C4 C 0.7401(5) 0.8579(10) 0.7242(6)
O6 O 0.5946(4) 0.2840(6) 0.9890(4)
H3 H 0.6218 0.1611 1.0069
H4 H 0.5488 0.3158 1.0367
Cu1A Cu 0.61227(6) 1.10052(13) 0.41076(7)
O1A O 1.0728(4) 0.7632(7) 0.2630(4)
O2A O 0.6669(4) 0.7337(8) 0.0964(4)
O3A O 0.5548(4) 0.8169(7) 0.2139(4)
N1A N 0.7516(5) 0.9516(8) 0.3712(5)
O5A O 0.9241(4) 0.6570(7) 0.1257(4)
N2A N 0.8587(4) 0.9742(8) 0.4360(4)
N3A N 0.9385(4) 0.8983(8) 0.3857(5)
C1A C 0.9609(5) 0.7407(9) 0.2160(5)
C2A C 0.8814(5) 0.8249(9) 0.2837(5)
C3A C 0.6511(6) 0.7987(11) 0.1871(6)
C4A C 0.7599(5) 0.8579(10) 0.2758(6)
O4A O 0.7724(4) 0.3514(8) 1.1823(4)
H1A H 0.8083 0.4290 1.2342
H2A H 0.7040 0.3237 1.1929
O6A O 0.9054(4) 0.2840(6) 1.0110(4)
H3A H 0.8782 0.1611 0.9931
H4A H 0.9512 0.3158 0.9633
Dy1_2 Dy 0.7500 0.51314(6) 0.0000
Cu1B Cu 1.11227(6) 0.89948(13) 0.41076(7)
Cu1C Cu 0.38773(6) 0.89948(13) 0.58924(7)
O1B O 0.5728(4) 1.2368(7) 0.2630(4)
O1C O 0.9272(4) 1.2368(7) 0.7370(4)
O2A_2 O 0.6669(4) 0.7337(8) 1.0964(4)
O5A_2 O 0.9241(4) 0.6570(7) 1.1257(4)
N3B N 0.4385(4) 1.1017(8) 0.3857(5)
N3C N 1.0615(4) 1.1017(8) 0.6143(5)
O8 O 0.5458(8) 0.4312(14) 0.6302(8)
H7 H 0.5942 0.3498 0.6697
H8 H 0.5694 0.4615 0.5710
O7? O 0.5072(12) 0.3479(17) 0.6299(14)
H5? H 0.5702 0.2841 0.6280
H6? H 0.4561 0.3320 0.5677
loop_
_geom_bond_atom_site_label_1
_geom_bond_atom_site_label_2
_geom_bond_site_symmetry_1
_geom_bond_site_symmetry_2
Dy1 O2 1_555 1_555
Cu1 Cl1 1_555 1_555
Cl1 Cu1A 1_555 1_555
O1 C1 1_555 1_555
O2 C3 1_555 1_555
O3 C3 1_555 1_555
O4 Dy1 1_555 1_555
H1 O4 1_555 1_555
H2 O4 1_555 1_555
N1 Cu1 1_555 1_555
O5 Dy1 1_555 1_555
N2 N1 1_555 1_555
N3 N2 1_555 1_555
C1 O5 1_555 1_555
C2 N3 1_555 1_555
C3 C4 1_555 1_555
C4 N1 1_555 1_555
O6 Dy1 1_555 1_555
H3 O6 1_555 1_555
H4 O6 1_555 1_555
O8 H7 1_555 1_555
H8 O8 1_555 1_555
Cu1A N2 1_555 1_555
O1A C1A 1_555 1_555
O2A C3A 1_555 1_555
O3A C3A 1_555 1_555
N1A Cu1A 1_555 1_555
O5A C1A 1_555 1_555
N2A Cu1 1_555 1_555
N3A N2A 1_555 1_555
C1A C2A 1_555 1_555
C2A N3A 1_555 1_555
C3A C4A 1_555 1_555
C4A N1A 1_555 1_555
O4A Dy1 1_555 1_555
H1A O4A 1_555 1_555
H2A O4A 1_555 1_555
O6A Dy1 1_555 1_555
H3A O6A 1_555 1_555
H4A O6A 1_555 1_555
Dy1_2 O2A 1_555 1_555
Cu1B O1A 1_555 1_555
Cu1C O1 1_555 1_555
O1B Cu1A 1_555 1_555
O1C Cu1 1_555 1_555
O2A_2 Dy1 1_555 1_555
O5A_2 Dy1 1_555 1_555
N3B Cu1A 1_555 1_555
N3C Cu1 1_555 1_555
N3 Cu1C 1_555 1_555
C1 C2 1_555 1_555
C2 C4 1_555 1_555
N1A N2A 1_555 1_555
O5A Dy1_2 1_555 1_555
N3A Cu1B 1_555 1_555
C2A C4A 1_555 1_555

#END
