
#######################################################################
#
#                 Cambridge Crystallographic Data Centre
#                                CCDC 
#
#######################################################################
#
# If this CIF has been generated from an entry in the Cambridge 
# Structural Database, then it will include bibliographic, chemical, 
# crystal, experimental, refinement or atomic coordinate data resulting 
# from the CCDC's data processing and validation procedures.
#
#######################################################################

data_NIGWUX
_symmetry_cell_setting           triclinic
_symmetry_space_group_name_H-M   'P -1'
_symmetry_Int_Tables_number      2
_space_group_name_Hall           '-P 1'
loop_
_symmetry_equiv_pos_site_id
_symmetry_equiv_pos_as_xyz
1 x,y,z
2 -x,-y,-z
_cell_length_a                   7.2576(8)
_cell_length_b                   11.0926(12)
_cell_length_c                   11.1726(14)
_cell_angle_alpha                85.153(9)
_cell_angle_beta                 84.830(9)
_cell_angle_gamma                80.754(8)
_cell_volume                     881.914
loop_
_atom_site_label
_atom_site_type_symbol
_atom_site_fract_x
_atom_site_fract_y
_atom_site_fract_z
K1 K -0.36201(16) 0.65797(13) 0.00312(11)
K2 K -0.77137(17) 0.97752(13) 0.10191(11)
O1 O -0.1325(5) 0.9385(4) 0.1623(4)
O2 O -0.3867(6) 0.8903(4) 0.0917(4)
C1 C -0.2839(8) 0.9011(6) 0.1712(5)
C2 C -0.3689(10) 0.8662(8) 0.2973(6)
F1 F -0.4121(7) 0.7514(5) 0.3054(5)
F2 F -0.2724(7) 0.8732(6) 0.3855(4)
F3 F -0.5388(7) 0.9345(5) 0.3217(4)
O3 O -0.3951(5) 0.4340(4) 0.1406(3)
N1 N -0.2633(6) 0.3638(4) 0.1938(4)
C3 C -0.2905(7) 0.3091(6) 0.3198(5)
C4 C -0.3913(9) 0.4054(7) 0.3992(5)
H1 H -0.5185 0.4297 0.3763
H2 H -0.3266 0.4760 0.3901
H3 H -0.3939 0.3727 0.4826
C5 C -0.4059(8) 0.2084(6) 0.3124(5)
H4 H -0.5327 0.2443 0.2958
H5 H -0.4080 0.1592 0.3883
H6 H -0.3510 0.1572 0.2482
C6 C -0.0797(7) 0.2589(6) 0.3466(5)
C7 C -0.0473(9) 0.1318(6) 0.4086(5)
H7 H 0.0845 0.1088 0.4215
H8 H -0.0849 0.0741 0.3585
H9 H -0.1206 0.1308 0.4856
C8 C 0.0116(8) 0.3451(6) 0.4144(5)
H10 H 0.1395 0.3086 0.4274
H11 H -0.0584 0.3587 0.4915
H12 H 0.0114 0.4227 0.3673
N2 N 0.0107(6) 0.2563(4) 0.2219(4)
O4 O 0.1823(5) 0.2034(4) 0.1988(3)
C9 C -0.0953(7) 0.3205(5) 0.1388(5)
N3 N -0.0345(6) 0.3446(4) 0.0229(4)
C10 C -0.1422(7) 0.3167(5) -0.0574(4)
O5 O -0.2725(5) 0.2572(4) -0.0455(3)
C11 C -0.0955(8) 0.3734(7) -0.1840(5)
F4 F -0.1378(6) 0.3118(4) -0.2697(3)
F5 F -0.1926(5) 0.4872(4) -0.1976(3)
F6 F 0.0839(4) 0.3854(4) -0.2075(3)
K1A K -0.63799(16) 0.34203(13) -0.00312(11)
K1A_2 K 0.36201(16) 0.34203(13) -0.00312(11)
K2_2 K 0.22863(17) -0.02248(13) 0.10191(11)
K2_3 K 0.22863(17) 0.97752(13) 0.10191(11)
K2A K -0.22863(17) 0.02248(13) -0.10191(11)
K2A_2 K -0.22863(17) 1.02248(13) -0.10191(11)
O1_2 O -1.1325(5) 0.9385(4) 0.1623(4)
O1A O -0.8675(5) 1.0615(4) -0.1623(4)
O2A O -0.6133(6) 1.1097(4) -0.0917(4)
O3A O -0.6049(5) 0.5660(4) -0.1406(3)
O4_2 O -0.8177(5) 1.2034(4) 0.1988(3)
O4A O -0.1823(5) 0.7966(4) -0.1988(3)
N3A N 0.0345(6) 0.6554(4) -0.0229(4)
O5A O -0.7275(5) 0.7428(4) 0.0455(3)
F6A F -0.0839(4) 0.6146(4) 0.2075(3)
loop_
_geom_bond_atom_site_label_1
_geom_bond_atom_site_label_2
_geom_bond_site_symmetry_1
_geom_bond_site_symmetry_2
K1 O2 1_555 1_555
K2 O2 1_555 1_555
O1 C1 1_555 1_555
O2 C1 1_555 1_555
C1 C2 1_555 1_555
C2 F1 1_555 1_555
F2 C2 1_555 1_555
F3 K2 1_555 1_555
O3 K1 1_555 1_555
N1 O3 1_555 1_555
C3 N1 1_555 1_555
C4 C3 1_555 1_555
H1 C4 1_555 1_555
H2 C4 1_555 1_555
H3 C4 1_555 1_555
C5 C3 1_555 1_555
H4 C5 1_555 1_555
H5 C5 1_555 1_555
H6 C5 1_555 1_555
C6 C3 1_555 1_555
C7 C6 1_555 1_555
H7 C7 1_555 1_555
H8 C7 1_555 1_555
H9 C7 1_555 1_555
C8 C6 1_555 1_555
H10 C8 1_555 1_555
H11 C8 1_555 1_555
H12 C8 1_555 1_555
N2 C6 1_555 1_555
O4 N2 1_555 1_555
C9 N1 1_555 1_555
N3 C9 1_555 1_555
C10 N3 1_555 1_555
O5 C10 1_555 1_555
C11 C10 1_555 1_555
F4 C11 1_555 1_555
F5 K1 1_555 1_555
F6 C11 1_555 1_555
K1A O3 1_555 1_555
K1A_2 O4 1_555 1_555
K2_2 O4 1_555 1_555
K2_3 O1 1_555 1_555
K2A O5 1_555 1_555
K2A_2 O1 1_555 1_555
O1_2 K2 1_555 1_555
O1A K2 1_555 1_555
O2A K2 1_555 1_555
O3A K1 1_555 1_555
O4_2 K2 1_555 1_555
O4A K1 1_555 1_555
N3A K1 1_555 1_555
O5A K1 1_555 1_555
F6A K1 1_555 1_555
K2 O5A 1_555 1_555
O2 K2A_2 1_555 1_555
C2 F3 1_555 1_555
N2 C9 1_555 1_555
N3 K1A_2 1_555 1_555
O5 K1A 1_555 1_555
C11 F5 1_555 1_555
F6 K1A_2 1_555 1_555
K1A O3A 1_555 1_555
K2A_2 O2A 1_555 1_555
K2A_2 O4A 1_555 1_555

#END
