
#######################################################################
#
#                 Cambridge Crystallographic Data Centre
#                                CCDC 
#
#######################################################################
#
# If this CIF has been generated from an entry in the Cambridge 
# Structural Database, then it will include bibliographic, chemical, 
# crystal, experimental, refinement or atomic coordinate data resulting 
# from the CCDC's data processing and validation procedures.
#
#######################################################################

data_NIGXAE
_symmetry_cell_setting           monoclinic
_symmetry_space_group_name_H-M   'P 21/n'
_symmetry_Int_Tables_number      14
_space_group_name_Hall           '-P 2yn'
loop_
_symmetry_equiv_pos_site_id
_symmetry_equiv_pos_as_xyz
1 x,y,z
2 1/2-x,1/2+y,1/2-z
3 -x,-y,-z
4 1/2+x,1/2-y,1/2+z
_cell_length_a                   7.2295(9)
_cell_length_b                   10.7318(13)
_cell_length_c                   33.431(4)
_cell_angle_alpha                90
_cell_angle_beta                 95.858(10)
_cell_angle_gamma                90
_cell_volume                     2580.22
loop_
_atom_site_label
_atom_site_type_symbol
_atom_site_fract_x
_atom_site_fract_y
_atom_site_fract_z
K1 K 0.82466(17) 0.52899(13) 0.05128(4)
O1 O 1.0856(6) 0.3659(4) 0.02229(13)
N1 N 1.2152(7) 0.3226(4) 0.04794(15)
C1 C 1.1977(8) 0.2020(6) 0.0698(2)
C2 C 1.1206(12) 0.1038(7) 0.0412(3)
H1 H 0.9937 0.1248 0.0312
H2 H 1.1226 0.0241 0.0549
H3 H 1.1956 0.0988 0.0187
C3 C 1.0627(10) 0.2282(8) 0.1013(3)
H4 H 0.9382 0.2395 0.0880
H5 H 1.1011 0.3032 0.1161
H6 H 1.0636 0.1585 0.1198
C4 C 1.4034(8) 0.1825(5) 0.08910(19)
C5 C 1.4204(11) 0.1431(8) 0.1325(2)
H7 H 1.5507 0.1328 0.1422
H8 H 1.3558 0.0647 0.1350
H9 H 1.3657 0.2063 0.1484
C6 C 1.5164(11) 0.0971(6) 0.0648(3)
H10 H 1.6413 0.0891 0.0782
H11 H 1.5220 0.1320 0.0382
H12 H 1.4581 0.0157 0.0625
N2 N 1.4782(7) 0.3111(4) 0.08578(16)
O2 O 1.6386(6) 0.3446(4) 0.10304(15)
C7 C 1.3714(8) 0.3837(5) 0.06049(18)
N3 N 1.4263(7) 0.4979(5) 0.04786(17)
C8 C 1.3139(8) 0.5916(5) 0.05433(18)
O3 O 1.1829(6) 0.5961(4) 0.07532(13)
C9 C 1.3684(10) 0.7106(6) 0.0346(2)
F1 F 1.2707(9) 0.8055(5) 0.0382(2)
F2 F 1.3224(8) 0.6998(5) -0.00751(16)
F3 F 1.5463(6) 0.7275(4) 0.03265(18)
K2 K 1.45477(19) 0.59061(16) 0.14687(4)
O4 O 0.7204(5) 0.6111(4) 0.20953(12)
N4 N 0.8568(6) 0.5319(4) 0.21095(13)
C10 C 0.8513(8) 0.4094(5) 0.23273(17)
C11 C 0.7230(9) 0.3249(6) 0.2055(2)
H13 H 0.5957 0.3536 0.2053
H14 H 0.7325 0.2401 0.2156
H15 H 0.7596 0.3273 0.1784
C12 C 0.7730(11) 0.4280(7) 0.2722(2)
H16 H 0.8555 0.4812 0.2894
H17 H 0.7613 0.3479 0.2852
H18 H 0.6515 0.4669 0.2676
C13 C 1.0574(8) 0.3705(6) 0.23479(19)
C14 C 1.1730(11) 0.4156(9) 0.2737(2)
H19 H 1.3009 0.3885 0.2735
H20 H 1.1215 0.3808 0.2969
H21 H 1.1690 0.5059 0.2750
C15 C 1.0986(11) 0.2354(7) 0.2285(3)
H22 H 1.0275 0.2063 0.2041
H23 H 1.0647 0.1874 0.2512
H24 H 1.2303 0.2250 0.2261
N5 N 1.1216(6) 0.4467(5) 0.20180(15)
O5 O 1.2811(6) 0.4268(5) 0.18793(16)
C16 C 1.0094(7) 0.5443(5) 0.19165(16)
N6 N 1.0621(7) 0.6436(4) 0.17013(14)
C17 C 0.9402(8) 0.6861(5) 0.14125(16)
O6 O 0.7930(5) 0.6410(4) 0.12542(11)
C18 C 0.9956(10) 0.8130(6) 0.12515(19)
F4 F 0.9219(8) 0.9046(4) 0.14574(15)
F5 F 0.9349(5) 0.8285(4) 0.08684(11)
F6 F 1.1800(6) 0.8349(4) 0.12798(12)
K1_2 K 1.82466(17) 0.52899(13) 0.05128(4)
K1B K 1.17534(17) 0.47101(13) -0.05128(4)
O1B O 0.9144(6) 0.6341(4) -0.02229(13)
O2_2 O 0.6386(6) 0.3446(4) 0.10304(15)
N3_2 N 0.4263(7) 0.4979(5) 0.04786(17)
F2B F 0.6776(8) 0.3002(5) 0.00751(16)
F3_2 F 0.5463(6) 0.7275(4) 0.03265(18)
K2_2 K 0.45477(19) 0.59061(16) 0.14687(4)
O4_2 O 1.7204(5) 0.6111(4) 0.20953(12)
O6_2 O 1.7930(5) 0.6410(4) 0.12542(11)
loop_
_geom_bond_atom_site_label_1
_geom_bond_atom_site_label_2
_geom_bond_site_symmetry_1
_geom_bond_site_symmetry_2
K1 O1 1_555 1_555
O1 N1 1_555 1_555
N1 C1 1_555 1_555
C1 C2 1_555 1_555
C2 H1 1_555 1_555
H2 C2 1_555 1_555
H3 C2 1_555 1_555
C3 C1 1_555 1_555
H4 C3 1_555 1_555
H5 C3 1_555 1_555
H6 C3 1_555 1_555
C4 C1 1_555 1_555
C5 C4 1_555 1_555
H7 C5 1_555 1_555
H8 C5 1_555 1_555
H9 C5 1_555 1_555
C6 C4 1_555 1_555
H10 C6 1_555 1_555
H11 C6 1_555 1_555
H12 C6 1_555 1_555
N2 C4 1_555 1_555
O2 N2 1_555 1_555
C7 N1 1_555 1_555
N3 C7 1_555 1_555
C8 N3 1_555 1_555
O3 K1 1_555 1_555
C9 C8 1_555 1_555
F1 C9 1_555 1_555
F2 C9 1_555 1_555
F3 C9 1_555 1_555
K2 O2 1_555 1_555
O4 N4 1_555 1_555
N4 C10 1_555 1_555
C10 C11 1_555 1_555
C11 H13 1_555 1_555
H14 C11 1_555 1_555
H15 C11 1_555 1_555
C12 C10 1_555 1_555
H16 C12 1_555 1_555
H17 C12 1_555 1_555
H18 C12 1_555 1_555
C13 C10 1_555 1_555
C14 C13 1_555 1_555
H19 C14 1_555 1_555
H20 C14 1_555 1_555
H21 C14 1_555 1_555
C15 C13 1_555 1_555
H22 C15 1_555 1_555
H23 C15 1_555 1_555
H24 C15 1_555 1_555
N5 C13 1_555 1_555
O5 K2 1_555 1_555
C16 N4 1_555 1_555
N6 K2 1_555 1_555
C17 N6 1_555 1_555
O6 K1 1_555 1_555
C18 C17 1_555 1_555
F4 C18 1_555 1_555
F5 C18 1_555 1_555
F6 C18 1_555 1_555
K1_2 O2 1_555 1_555
K1B O1 1_555 1_555
O1B K1 1_555 1_555
O2_2 K1 1_555 1_555
N3_2 K1 1_555 1_555
F2B K1 1_555 1_555
F3_2 K1 1_555 1_555
K2_2 O4 1_555 1_555
O4_2 K2 1_555 1_555
O6_2 K2 1_555 1_555
N2 C7 1_555 1_555
N3 K1_2 1_555 1_555
C8 O3 1_555 1_555
O3 K2 1_555 1_555
F2 K1B 1_555 1_555
F3 K1_2 1_555 1_555
N5 O5 1_555 1_555
N5 C16 1_555 1_555
C16 N6 1_555 1_555
C17 O6 1_555 1_555
O6 K2_2 1_555 1_555
K1_2 O6_2 1_555 1_555
K1B O1B 1_555 1_555
O2_2 K2_2 1_555 1_555

#END
