
#######################################################################
#
#                 Cambridge Crystallographic Data Centre
#                                CCDC 
#
#######################################################################
#
# If this CIF has been generated from an entry in the Cambridge 
# Structural Database, then it will include bibliographic, chemical, 
# crystal, experimental, refinement or atomic coordinate data resulting 
# from the CCDC's data processing and validation procedures.
#
#######################################################################

data_NIGXEI
_symmetry_cell_setting           triclinic
_symmetry_space_group_name_H-M   'P -1'
_symmetry_Int_Tables_number      2
_space_group_name_Hall           '-P 1'
loop_
_symmetry_equiv_pos_site_id
_symmetry_equiv_pos_as_xyz
1 x,y,z
2 -x,-y,-z
_cell_length_a                   6.94329(33)
_cell_length_b                   7.22572(34)
_cell_length_c                   7.40473(31)
_cell_angle_alpha                88.5586(16)
_cell_angle_beta                 75.3464(18)
_cell_angle_gamma                111.6873(13)
_cell_volume                     331.051
loop_
_atom_site_label
_atom_site_type_symbol
_atom_site_fract_x
_atom_site_fract_y
_atom_site_fract_z
Cd1 Cd 0.00000 1.00000 0.00000
S1 S 0.31213(41) 0.87630(42) 0.82021(40)
O1 O 0.4043(11) 0.4676(11) 0.29996(79)
O2 O -0.00701(97) 0.8788(10) 0.29498(74)
N1 N 0.1557(12) 0.8653(11) 0.52860(90)
N2 N 0.3450(12) 0.6645(12) 0.5302(11)
C1 C 0.2628(17) 0.7843(16) 0.6283(13)
C2 C 0.3161(16) 0.5833(17) 0.3651(14)
C3 C 0.1887(16) 0.6592(16) 0.2902(13)
C4 C 0.1154(15) 0.7919(13) 0.3594(12)
O3 O 0.26639(90) 1.29751(89) 0.01864(77)
H1 H 0.10025 0.94305 0.57941
H2 H 0.42155 0.62217 0.58533
H3 H 0.1682 0.62058 0.16726
S1A S -0.31213(41) 1.12370(42) -0.82021(40)
O1A O -0.4043(11) 1.5324(11) -0.29996(79)
O2A O 0.00701(97) 1.1212(10) -0.29498(74)
N1A N -0.1557(12) 1.1347(11) -0.52860(90)
N2A N -0.3450(12) 1.3355(12) -0.5302(11)
C1A C -0.2628(17) 1.2157(16) -0.6283(13)
C2A C -0.3161(16) 1.4167(17) -0.3651(14)
C3A C -0.1887(16) 1.3408(16) -0.2902(13)
C4A C -0.1154(15) 1.2081(13) -0.3594(12)
O3A O -0.26639(90) 0.70249(89) -0.01864(77)
H1A H -0.10025 1.05695 -0.57941
H2A H -0.42155 1.37783 -0.58533
H3A H -0.1682 1.37942 -0.16726
Cd1_2 Cd 0.00000 1.00000 -1.00000
Cd1_3 Cd 0.00000 1.00000 1.00000
S1_2 S 0.31213(41) 0.87630(42) -0.17979(40)
S1A_2 S -0.31213(41) 1.12370(42) 0.17979(40)
loop_
_geom_bond_atom_site_label_1
_geom_bond_atom_site_label_2
_geom_bond_site_symmetry_1
_geom_bond_site_symmetry_2
Cd1 O2 1_555 1_555
S1 C1 1_555 1_555
O1 C2 1_555 1_555
O2 C4 1_555 1_555
N1 C1 1_555 1_555
N2 C1 1_555 1_555
C2 N2 1_555 1_555
C3 C2 1_555 1_555
C4 N1 1_555 1_555
O3 Cd1 1_555 1_555
H1 N1 1_555 1_555
H2 N2 1_555 1_555
H3 C3 1_555 1_555
S1A C1A 1_555 1_555
O1A C2A 1_555 1_555
O2A Cd1 1_555 1_555
N1A C1A 1_555 1_555
N2A C1A 1_555 1_555
C2A N2A 1_555 1_555
C3A C2A 1_555 1_555
C4A O2A 1_555 1_555
O3A Cd1 1_555 1_555
H1A N1A 1_555 1_555
H2A N2A 1_555 1_555
H3A C3A 1_555 1_555
Cd1_2 S1A 1_555 1_555
Cd1_3 S1 1_555 1_555
S1_2 Cd1 1_555 1_555
S1A_2 Cd1 1_555 1_555
C3 C4 1_555 1_555
N1A C4A 1_555 1_555
C3A C4A 1_555 1_555

#END
