
#######################################################################
#
#                 Cambridge Crystallographic Data Centre
#                                CCDC 
#
#######################################################################
#
# If this CIF has been generated from an entry in the Cambridge 
# Structural Database, then it will include bibliographic, chemical, 
# crystal, experimental, refinement or atomic coordinate data resulting 
# from the CCDC's data processing and validation procedures.
#
#######################################################################

data_NIHCOX
_symmetry_cell_setting           triclinic
_symmetry_space_group_name_H-M   'P -1'
_symmetry_Int_Tables_number      2
_space_group_name_Hall           '-P 1'
loop_
_symmetry_equiv_pos_site_id
_symmetry_equiv_pos_as_xyz
1 x,y,z
2 -x,-y,-z
_cell_length_a                   9.4533(7)
_cell_length_b                   9.5506(7)
_cell_length_c                   10.9121(8)
_cell_angle_alpha                94.267(2)
_cell_angle_beta                 115.4140(10)
_cell_angle_gamma                93.176(2)
_cell_volume                     883.211
loop_
_atom_site_label
_atom_site_type_symbol
_atom_site_fract_x
_atom_site_fract_y
_atom_site_fract_z
Ag1 Ag 0.26255(4) 0.60173(3) 0.51105(3)
O1 O 0.3765(4) 0.8547(4) 0.5884(4)
O2 O 0.1487(4) 0.8453(4) 0.4108(4)
N1 N 0.1780(4) 0.5786(4) 0.6676(3)
C1 C 0.1142(5) 0.4572(5) 0.6854(4)
H1 H 0.1047 0.3761 0.6271
C2 C 0.0622(5) 0.4451(4) 0.7840(4)
H2 H 0.0191 0.3572 0.7923
C3 C 0.0733(4) 0.5630(4) 0.8720(4)
C4 C 0.1387(5) 0.6882(5) 0.8530(5)
H3 H 0.1494 0.7712 0.9095
C5 C 0.1885(5) 0.6912(5) 0.7508(4)
H4 H 0.2320 0.7776 0.7398
N2 N 0.3393(4) 0.5437(4) 0.3522(3)
C6 C 0.3753(5) 0.6477(4) 0.2914(4)
H5 H 0.3682 0.7411 0.3205
C7 C 0.4219(5) 0.6254(5) 0.1893(4)
H6 H 0.4464 0.7023 0.1506
C8 C 0.4330(4) 0.4885(4) 0.1431(4)
C9 C 0.3968(5) 0.3809(5) 0.2066(4)
H7 H 0.4027 0.2864 0.1795
C10 C 0.3523(5) 0.4127(5) 0.3091(5)
H8 H 0.3297 0.3379 0.3513
C11 C 0.0222(5) 0.5587(4) 0.9809(4)
H9 H 0.0206 0.6451 1.0272
C12 C 0.4793(5) 0.4538(4) 0.0339(4)
H10 H 0.4802 0.3577 0.0089
C13 C 0.2692(5) 0.9127(5) 0.5007(5)
C14 C 0.2912(6) 1.0728(5) 0.5063(6)
H11 H 0.3488 1.1114 0.6023
H12 H 0.3580 1.0957 0.4610
C15 C 0.1473(7) 1.1466(6) 0.4445(7)
H13 H 0.0988 1.1236 0.3462
H14 H 0.1748 1.2477 0.4665
H15 H 0.0739 1.1170 0.4803
Ag1A Ag -0.26255(4) 0.39827(3) 1.48895(3)
Ag1A_2 Ag 0.73745(4) 0.39827(3) -0.51105(3)
O1A O -0.3765(4) 0.1453(4) 1.4116(4)
O2A O -0.1487(4) 0.1547(4) 1.5892(4)
N1A N -0.1780(4) 0.4214(4) 1.3324(3)
C1A C -0.1142(5) 0.5428(5) 1.3146(4)
H1A H -0.1047 0.6239 1.3729
C2A C -0.0622(5) 0.5549(4) 1.2160(4)
H2A H -0.0191 0.6428 1.2077
C3A C -0.0733(4) 0.4370(4) 1.1280(4)
C4A C -0.1387(5) 0.3118(5) 1.1470(5)
H3A H -0.1494 0.2288 1.0905
C5A C -0.1885(5) 0.3088(5) 1.2492(4)
H4A H -0.2320 0.2224 1.2602
N2A N 0.6607(4) 0.4563(4) -0.3522(3)
N2A_2 N -0.3393(4) 0.4563(4) 1.6478(3)
C6A C 0.6247(5) 0.3523(4) -0.2914(4)
H5A H 0.6318 0.2589 -0.3205
C7A C 0.5781(5) 0.3746(5) -0.1893(4)
H6A H 0.5536 0.2977 -0.1506
C8A C 0.5670(4) 0.5115(4) -0.1431(4)
C9A C 0.6032(5) 0.6191(5) -0.2066(4)
H7A H 0.5973 0.7136 -0.1795
C10A C 0.6477(5) 0.5873(5) -0.3091(5)
H8A H 0.6703 0.6621 -0.3513
C11A C -0.0222(5) 0.4413(4) 1.0191(4)
H9A H -0.0206 0.3549 0.9728
C12A C 0.5207(5) 0.5462(4) -0.0339(4)
H10A H 0.5198 0.6423 -0.0089
C13A C -0.2692(5) 0.0873(5) 1.4993(5)
C14A C -0.2912(6) -0.0728(5) 1.4937(6)
H11A H -0.3488 -0.1114 1.3977
H12A H -0.3580 -0.0957 1.5390
C15A C -0.1473(7) -0.1466(6) 1.5555(7)
H13A H -0.0988 -0.1236 1.6538
H14A H -0.1748 -0.2477 1.5335
H15A H -0.0739 -0.1170 1.5197
O3 O -0.4155(5) 0.0050(5) -0.1785(4)
O4 O 0.4192(10) 0.0940(9) -0.0540(8)
O6 O 0.0714(9) 0.0965(10) -0.1767(8)
O7 O -0.1168(14) 0.0985(13) -0.1402(14)
O5? O 0.2366(13) 0.0990(10) -0.1602(10)
O8? O -0.0986(18) 0.019(3) -0.0649(16)
loop_
_geom_bond_atom_site_label_1
_geom_bond_atom_site_label_2
_geom_bond_site_symmetry_1
_geom_bond_site_symmetry_2
Ag1 O1 1_555 1_555
O1 C13 1_555 1_555
O2 C13 1_555 1_555
N1 Ag1 1_555 1_555
C1 N1 1_555 1_555
H1 C1 1_555 1_555
C2 C1 1_555 1_555
H2 C2 1_555 1_555
C3 C2 1_555 1_555
C4 C3 1_555 1_555
H3 C4 1_555 1_555
C5 N1 1_555 1_555
H4 C5 1_555 1_555
N2 Ag1 1_555 1_555
C6 N2 1_555 1_555
H5 C6 1_555 1_555
C7 C6 1_555 1_555
H6 C7 1_555 1_555
C8 C7 1_555 1_555
C9 C8 1_555 1_555
H7 C9 1_555 1_555
C10 N2 1_555 1_555
H8 C10 1_555 1_555
C11 C3 1_555 1_555
H9 C11 1_555 1_555
C12 C8 1_555 1_555
H10 C12 1_555 1_555
C13 C14 1_555 1_555
C14 H11 1_555 1_555
H12 C14 1_555 1_555
C15 C14 1_555 1_555
H13 C15 1_555 1_555
H14 C15 1_555 1_555
H15 C15 1_555 1_555
Ag1A O1A 1_555 1_555
Ag1A_2 N2A 1_555 1_555
O1A C13A 1_555 1_555
O2A C13A 1_555 1_555
N1A Ag1A 1_555 1_555
C1A N1A 1_555 1_555
H1A C1A 1_555 1_555
C2A C1A 1_555 1_555
H2A C2A 1_555 1_555
C3A C2A 1_555 1_555
C4A C3A 1_555 1_555
H3A C4A 1_555 1_555
C5A N1A 1_555 1_555
H4A C5A 1_555 1_555
N2A C6A 1_555 1_555
N2A_2 Ag1A 1_555 1_555
C6A H5A 1_555 1_555
C7A C6A 1_555 1_555
H6A C7A 1_555 1_555
C8A C7A 1_555 1_555
C9A C8A 1_555 1_555
H7A C9A 1_555 1_555
C10A N2A 1_555 1_555
H8A C10A 1_555 1_555
C11A C11 1_555 1_555
H9A C11A 1_555 1_555
C12A C12 1_555 1_555
H10A C12A 1_555 1_555
C13A C14A 1_555 1_555
C14A H11A 1_555 1_555
H12A C14A 1_555 1_555
C15A C14A 1_555 1_555
H13A C15A 1_555 1_555
H14A C15A 1_555 1_555
H15A C15A 1_555 1_555
C4 C5 1_555 1_555
C9 C10 1_555 1_555
C3A C11A 1_555 1_555
C4A C5A 1_555 1_555
C8A C12A 1_555 1_555
C9A C10A 1_555 1_555

#END
