
#######################################################################
#
#                 Cambridge Crystallographic Data Centre
#                                CCDC 
#
#######################################################################
#
# If this CIF has been generated from an entry in the Cambridge 
# Structural Database, then it will include bibliographic, chemical, 
# crystal, experimental, refinement or atomic coordinate data resulting 
# from the CCDC's data processing and validation procedures.
#
#######################################################################

data_NIHDUD
_symmetry_cell_setting           monoclinic
_symmetry_space_group_name_H-M   'P 21/n'
_symmetry_Int_Tables_number      14
_space_group_name_Hall           '-P 2yn'
loop_
_symmetry_equiv_pos_site_id
_symmetry_equiv_pos_as_xyz
1 x,y,z
2 1/2-x,1/2+y,1/2-z
3 -x,-y,-z
4 1/2+x,1/2-y,1/2+z
_cell_length_a                   6.723(4)
_cell_length_b                   11.368(5)
_cell_length_c                   29.813(4)
_cell_angle_alpha                90
_cell_angle_beta                 95.85(3)
_cell_angle_gamma                90
_cell_volume                     2266.65
loop_
_atom_site_label
_atom_site_type_symbol
_atom_site_fract_x
_atom_site_fract_y
_atom_site_fract_z
O1 O 0.2987(4) -0.0918(3) 0.2017(1)
O2 O 0.5866(6) 0.1200(4) 0.3470(1)
O3 O 0.2561(5) -0.5950(3) 0.1998(1)
O4 O 0.2202(4) -0.5544(3) -0.0502(1)
O5 O 0.3392(4) -0.3757(3) 0.25317(9)
O6 O 0.1561(5) -0.8143(3) -0.0799(1)
O7 O 0.5296(5) 0.2529(3) 0.2659(2)
O8 O 0.1285(4) -0.5910(3) 0.0657(1)
O9 O 0.4275(4) -0.5652(3) 0.0438(1)
O10 O 0.1985(5) -0.0776(3) 0.0776(1)
O11 O 0.5070(5) -0.0400(3) 0.1081(1)
O12 O 0.6083(5) -0.1449(3) 0.2202(1)
O13 O 0.4445(5) -0.6690(3) 0.1496(1)
O14 O 0.4319(4) -0.2507(3) 0.0184(1)
O15 O 0.1254(4) -0.3236(3) 0.0184(1)
O16 O 0.6392(4) -0.4413(3) 0.2396(1)
O17 O 0.4235(6) -0.8137(3) 0.0738(1)
O18 O 0.2754(8) -0.9620(3) -0.0005(1)
O19 O 0.5326(6) 0.1095(3) 0.1858(1)
O20 O 0.6520(6) -0.1175(4) 0.3240(1)
O21 O -0.0456(8) -0.8450(4) 0.0500(2)
C1 C 0.4437(6) -0.1573(3) 0.1968(1)
C2 C 0.4171(6) -0.2559(3) 0.1631(1)
C3 C 0.3732(6) -0.2312(3) 0.1172(1)
C4 C 0.3364(6) -0.3243(3) 0.0867(1)
C5 C 0.3374(5) -0.4403(3) 0.1023(1)
C6 C 0.2936(6) -0.5385(3) 0.0685(1)
C7 C 0.4212(6) -0.3720(3) 0.1782(1)
C8 C 0.3753(6) -0.4638(3) 0.1478(1)
C9 C 0.2954(6) -0.2975(3) 0.0371(1)
C10 C 0.3583(6) -0.1055(3) 0.0999(1)
C11 C 0.4722(6) -0.3983(3) 0.2277(1)
C12 C 0.3565(6) -0.5861(3) 0.1668(1)
H1 H 0.0892 -0.5224 -0.0560
H2 H 0.3383 -0.4884 -0.0446
H3 H 0.2402 -0.8585 -0.0891
H4 H 0.0374 -0.8649 -0.0882
H5 H 0.0191 -0.9003 0.0290
H6 H 0.7806 -0.1189 0.3318
H7 H 0.6930 0.1052 0.3514
H8 H 0.4418 0.3021 0.2494
H9 H 0.6591 0.2945 0.2699
H10 H 0.4965 0.1861 0.1766
H11 H 0.5442 0.0549 0.1535
H12 H 0.4564 -0.8879 0.0884
H13 H 0.4093 -0.7585 0.0991
H14 H 0.0413 -0.8349 0.0688
H15 H 0.5540 0.2175 0.3587
H16 H 0.6076 -0.1886 0.3149
La1 La 0.50091(3) 0.03294(2) 0.265525(7)
La2 La 0.22352(3) -0.73664(2) 0.002590(7)
La1A La -0.00091(3) -0.46706(2) 0.234475(7)
La2B La 0.77648(3) -0.26336(2) -0.002590(7)
La2B_2 La -0.22352(3) -0.26336(2) -0.002590(7)
La1A_2 La 0.99909(3) -0.46706(2) 0.234475(7)
O3A O 0.2439(5) -0.0950(3) 0.3002(1)
O5A O 0.1608(4) 0.1243(3) 0.24683(9)
O16A O 0.8608(4) 0.0587(3) 0.2604(1)
O14B O 0.5681(4) -0.7493(3) -0.0184(1)
O15B O -0.1254(4) -0.6764(3) -0.0184(1)
O22 O 1.010(1) 0.1721(7) 0.1470(2)
O23 O 0.073(1) 0.035(1) 0.8383(3)
loop_
_geom_bond_atom_site_label_1
_geom_bond_atom_site_label_2
_geom_bond_site_symmetry_1
_geom_bond_site_symmetry_2
O1 C1 1_555 1_555
O2 H7 1_555 1_555
O3 C12 1_555 1_555
O4 H1 1_555 1_555
O5 C11 1_555 1_555
O6 H3 1_555 1_555
O7 H8 1_555 1_555
O8 C6 1_555 1_555
O9 C6 1_555 1_555
O10 C10 1_555 1_555
O11 C10 1_555 1_555
O12 C1 1_555 1_555
O13 C12 1_555 1_555
O14 C9 1_555 1_555
O15 C9 1_555 1_555
O16 C11 1_555 1_555
O17 H12 1_555 1_555
O18 La2 1_555 1_555
O19 H10 1_555 1_555
O20 H6 1_555 1_555
O21 H5 1_555 1_555
C1 C2 1_555 1_555
C2 C3 1_555 1_555
C3 C4 1_555 1_555
C4 C5 1_555 1_555
C5 C6 1_555 1_555
C7 C2 1_555 1_555
C8 C5 1_555 1_555
C9 C4 1_555 1_555
C10 C3 1_555 1_555
C11 C7 1_555 1_555
C12 C8 1_555 1_555
H2 O4 1_555 1_555
H4 O6 1_555 1_555
H9 O7 1_555 1_555
H11 O19 1_555 1_555
H13 O17 1_555 1_555
H14 O21 1_555 1_555
H15 O2 1_555 1_555
H16 O20 1_555 1_555
La1 O1 1_555 1_555
La2 O4 1_555 1_555
La1A O3 1_555 1_555
La2B O14 1_555 1_555
La2B_2 O15 1_555 1_555
La1A_2 O16 1_555 1_555
O3A La1 1_555 1_555
O5A La1 1_555 1_555
O16A La1 1_555 1_555
O14B La2 1_555 1_555
O15B La2 1_555 1_555
O2 La1 1_555 1_555
O5 La1A 1_555 1_555
O6 La2 1_555 1_555
O7 La1 1_555 1_555
O8 La2 1_555 1_555
O9 La2 1_555 1_555
O12 La1 1_555 1_555
O17 La2 1_555 1_555
O19 La1 1_555 1_555
O20 La1 1_555 1_555
O21 La2 1_555 1_555
C7 C8 1_555 1_555

#END
