
#######################################################################
#
#                 Cambridge Crystallographic Data Centre
#                                CCDC 
#
#######################################################################
#
# If this CIF has been generated from an entry in the Cambridge 
# Structural Database, then it will include bibliographic, chemical, 
# crystal, experimental, refinement or atomic coordinate data resulting 
# from the CCDC's data processing and validation procedures.
#
#######################################################################

data_NIHFEP
_symmetry_cell_setting           monoclinic
_symmetry_space_group_name_H-M   'P 21/c'
_symmetry_Int_Tables_number      14
_space_group_name_Hall           '-P 2ybc'
loop_
_symmetry_equiv_pos_site_id
_symmetry_equiv_pos_as_xyz
1 x,y,z
2 -x,1/2+y,1/2-z
3 -x,-y,-z
4 x,1/2-y,1/2+z
_cell_length_a                   14.393(3)
_cell_length_b                   8.881(2)
_cell_length_c                   9.287(2)
_cell_angle_alpha                90
_cell_angle_beta                 103.80(3)
_cell_angle_gamma                90
_cell_volume                     1152.84
loop_
_atom_site_label
_atom_site_type_symbol
_atom_site_fract_x
_atom_site_fract_y
_atom_site_fract_z
Cu1 Cu 0.20102(3) -0.65046(5) -0.12724(4)
N1 N 0.1984(2) -0.7625(4) 0.1812(3)
C1 C 0.1970(2) -0.7193(4) 0.0627(3)
O1 O 0.3312(2) -0.4900(2) -0.0526(3)
N2 N 0.1529(2) -0.4256(3) -0.1990(3)
C2 C 0.0710(3) -0.3989(5) -0.2968(4)
H1 H 0.0249(3) -0.4787(5) -0.3187(4)
C3 C 0.0496(3) -0.2625(5) -0.3701(5)
H2 H -0.0113(3) -0.2471(5) -0.4380(5)
C4 C 0.1155(3) -0.1493(5) -0.3424(5)
H3 H 0.1028(3) -0.0553(5) -0.3944(5)
C5 C 0.2013(3) -0.1738(4) -0.2390(4)
H4 H 0.2486(3) -0.0958(4) -0.2148(4)
C6 C 0.2178(2) -0.3130(4) -0.1702(4)
C7 C 0.3114(2) -0.3562(4) -0.0674(3)
C8 C 0.3780(2) -0.2411(4) 0.0122(3)
C9 C 0.3465(3) -0.1093(4) 0.0678(4)
H5 H 0.2795(3) -0.0857(4) 0.0446(4)
C10 C 0.4120(3) -0.0130(4) 0.1542(4)
H6 H 0.3904(3) 0.0759(4) 0.1952(4)
C11 C 0.5081(3) -0.0455(5) 0.1842(4)
H7 H 0.5534(3) 0.0221(5) 0.2441(4)
C12 C 0.5406(3) -0.1727(4) 0.1272(4)
H8 H 0.6080(3) -0.1936(4) 0.1476(4)
C13 C 0.4759(2) -0.2708(4) 0.0422(4)
H9 H 0.4982(2) -0.3593(4) 0.0016(4)
Cu1C Cu 0.20102(3) -0.84954(5) 0.37276(4)
N1C N 0.1984(2) -0.7375(4) -0.3188(3)
loop_
_geom_bond_atom_site_label_1
_geom_bond_atom_site_label_2
_geom_bond_site_symmetry_1
_geom_bond_site_symmetry_2
Cu1 C1 1_555 1_555
N1 C1 1_555 1_555
O1 Cu1 1_555 1_555
N2 Cu1 1_555 1_555
C2 N2 1_555 1_555
H1 C2 1_555 1_555
C3 C2 1_555 1_555
H2 C3 1_555 1_555
C4 C3 1_555 1_555
H3 C4 1_555 1_555
C5 C4 1_555 1_555
H4 C5 1_555 1_555
C6 N2 1_555 1_555
C7 O1 1_555 1_555
C8 C7 1_555 1_555
C9 C8 1_555 1_555
H5 C9 1_555 1_555
C10 C9 1_555 1_555
H6 C10 1_555 1_555
C11 C10 1_555 1_555
H7 C11 1_555 1_555
C12 C11 1_555 1_555
H8 C12 1_555 1_555
C13 C8 1_555 1_555
H9 C13 1_555 1_555
Cu1C N1 1_555 1_555
N1C Cu1 1_555 1_555
C5 C6 1_555 1_555
C6 C7 1_555 1_555
C12 C13 1_555 1_555

#END
