
#######################################################################
#
#                 Cambridge Crystallographic Data Centre
#                                CCDC 
#
#######################################################################
#
# If this CIF has been generated from an entry in the Cambridge 
# Structural Database, then it will include bibliographic, chemical, 
# crystal, experimental, refinement or atomic coordinate data resulting 
# from the CCDC's data processing and validation procedures.
#
#######################################################################

data_NIHFOA
_symmetry_cell_setting           orthorhombic
_symmetry_space_group_name_H-M   'P 21 21 21'
_symmetry_Int_Tables_number      19
_space_group_name_Hall           'P 2ac 2ab'
loop_
_symmetry_equiv_pos_site_id
_symmetry_equiv_pos_as_xyz
1 x,y,z
2 1/2-x,-y,1/2+z
3 1/2+x,1/2-y,-z
4 -x,1/2+y,1/2-z
_cell_length_a                   8.6860(3)
_cell_length_b                   10.8480(3)
_cell_length_c                   13.3660(5)
_cell_angle_alpha                90
_cell_angle_beta                 90
_cell_angle_gamma                90
_cell_volume                     1259.42
loop_
_atom_site_label
_atom_site_type_symbol
_atom_site_fract_x
_atom_site_fract_y
_atom_site_fract_z
Tl1 Tl 0.47814(2) 0.229231(18) 0.594040(14)
S1 S 0.26615(15) 0.16018(12) 0.39805(11)
O1 O 0.1074(4) 0.2801(5) 0.2065(3)
O2 O 0.2936(4) 0.2883(4) 0.0911(3)
N1 N 0.4881(5) 0.3223(4) 0.4158(3)
C1 C 0.3784(5) 0.2813(5) 0.3527(4)
C2 C 0.3646(6) 0.3335(5) 0.2559(4)
C3 C 0.4657(7) 0.4260(5) 0.2275(4)
H1 H 0.4594 0.4603 0.1623
C4 C 0.5756(7) 0.4685(5) 0.2938(4)
H2 H 0.6446 0.5326 0.2755
C5 C 0.5822(7) 0.4146(5) 0.3878(4)
H3 H 0.6563 0.4441 0.4343
C6 C 0.2408(7) 0.2963(6) 0.1845(4)
C7 C 0.1782(8) 0.2699(8) 0.0133(4)
H4 H 0.1205 0.3474 0.0019
H5 H 0.1042 0.2055 0.0342
C8 C 0.2566(9) 0.2319(7) -0.0798(5)
H6 H 0.3416 0.2888 -0.0939
H7 H 0.1831 0.2335 -0.1355
H8 H 0.2972 0.1482 -0.0719
C9 C 0.3396(8) 0.3810(6) 0.6421(5)
H9 H 0.2640 0.3522 0.6912
H10 H 0.2858 0.4164 0.5844
H11 H 0.4054 0.4439 0.6727
C10 C 0.5545(8) 0.0416(5) 0.5809(4)
H12 H 0.4909 -0.0113 0.6236
H13 H 0.6623 0.0357 0.6019
H14 H 0.5451 0.0147 0.5112
Tl1B Tl -0.02186(2) 0.270769(18) 0.405960(14)
S1B S 0.76615(15) 0.33982(12) 0.60195(11)
O1B O 0.6074(4) 0.2199(5) 0.7935(3)
loop_
_geom_bond_atom_site_label_1
_geom_bond_atom_site_label_2
_geom_bond_site_symmetry_1
_geom_bond_site_symmetry_2
Tl1 S1 1_555 1_555
S1 C1 1_555 1_555
O1 C6 1_555 1_555
O2 C6 1_555 1_555
N1 Tl1 1_555 1_555
C1 N1 1_555 1_555
C2 C1 1_555 1_555
C3 C2 1_555 1_555
H1 C3 1_555 1_555
C4 C3 1_555 1_555
H2 C4 1_555 1_555
C5 N1 1_555 1_555
H3 C5 1_555 1_555
C6 C2 1_555 1_555
C7 O2 1_555 1_555
H4 C7 1_555 1_555
H5 C7 1_555 1_555
C8 C7 1_555 1_555
H6 C8 1_555 1_555
H7 C8 1_555 1_555
H8 C8 1_555 1_555
C9 Tl1 1_555 1_555
H9 C9 1_555 1_555
H10 C9 1_555 1_555
H11 C9 1_555 1_555
C10 Tl1 1_555 1_555
H12 C10 1_555 1_555
H13 C10 1_555 1_555
H14 C10 1_555 1_555
Tl1B S1 1_555 1_555
S1B Tl1 1_555 1_555
O1B Tl1 1_555 1_555
O1 Tl1B 1_555 1_555
C4 C5 1_555 1_555

#END
