
#######################################################################
#
#                 Cambridge Crystallographic Data Centre
#                                CCDC 
#
#######################################################################
#
# If this CIF has been generated from an entry in the Cambridge 
# Structural Database, then it will include bibliographic, chemical, 
# crystal, experimental, refinement or atomic coordinate data resulting 
# from the CCDC's data processing and validation procedures.
#
#######################################################################

data_NIHFUG
_symmetry_cell_setting           orthorhombic
_symmetry_space_group_name_H-M   'P 21 21 21'
_symmetry_Int_Tables_number      19
_space_group_name_Hall           'P 2ac 2ab'
loop_
_symmetry_equiv_pos_site_id
_symmetry_equiv_pos_as_xyz
1 x,y,z
2 1/2-x,-y,1/2+z
3 1/2+x,1/2-y,-z
4 -x,1/2+y,1/2-z
_cell_length_a                   8.885(2)
_cell_length_b                   11.732(2)
_cell_length_c                   12.996(2)
_cell_angle_alpha                90
_cell_angle_beta                 90
_cell_angle_gamma                90
_cell_volume                     1354.69
loop_
_atom_site_label
_atom_site_type_symbol
_atom_site_fract_x
_atom_site_fract_y
_atom_site_fract_z
Tl1 Tl 0.47409(7) 0.73042(5) -0.09518(4)
S1 S 0.2564(5) 0.6682(3) 0.1068(3)
O1 O 0.2808(11) 0.7784(9) 0.4157(7)
N1 N 0.4816(14) 0.8145(10) 0.0877(8)
O2 O 0.0920(13) 0.7862(11) 0.3006(7)
C1 C 0.561(2) 0.9532(13) 0.2146(11)
H1 H 0.6294 1.0088 0.2350
C2 C 0.3679(16) 0.7788(13) 0.1502(9)
C3 C 0.570(2) 0.8977(13) 0.1189(10)
H2 H 0.6446 0.9219 0.0738
C4 C 0.438(2) 0.9174(14) 0.2786(11)
H3 H 0.4192 0.9553 0.3401
C5 C 0.3506(17) 0.8307(13) 0.2507(9)
C6 C 0.221(2) 0.7980(16) 0.3217(11)
C7 C 0.5429(19) 0.5547(11) -0.0784(12)
H4 H 0.4875 0.5201 -0.0232
H5 H 0.6486 0.5516 -0.0633
H6 H 0.5232 0.5143 -0.1412
C8 C 0.3417(17) 0.8715(13) -0.1455(10)
H7 H 0.3462 0.8769 -0.2191
H8 H 0.3802 0.9404 -0.1156
H9 H 0.2392 0.8607 -0.1243
C9 C 0.175(2) 0.7407(17) 0.4973(10)
H10 H 0.0873 0.7029 0.4675
C10 C 0.268(2) 0.658(2) 0.5611(16)
H11 H 0.3455 0.6982 0.5969
H12 H 0.3125 0.6016 0.5167
H13 H 0.2036 0.6202 0.6101
C11 C 0.132(3) 0.8435(19) 0.5509(14)
H14 H 0.2205 0.8799 0.5782
H15 H 0.0651 0.8246 0.6062
H16 H 0.0827 0.8942 0.5039
Tl1B Tl -0.02591(7) 0.76958(5) 0.09518(4)
S1B S 0.7564(5) 0.8318(3) -0.1068(3)
O2B O 0.5920(13) 0.7138(11) -0.3006(7)
loop_
_geom_bond_atom_site_label_1
_geom_bond_atom_site_label_2
_geom_bond_site_symmetry_1
_geom_bond_site_symmetry_2
Tl1 S1 1_555 1_555
S1 C2 1_555 1_555
O1 C6 1_555 1_555
N1 Tl1 1_555 1_555
O2 C6 1_555 1_555
C1 H1 1_555 1_555
C2 N1 1_555 1_555
C3 N1 1_555 1_555
H2 C3 1_555 1_555
C4 C1 1_555 1_555
H3 C4 1_555 1_555
C5 C2 1_555 1_555
C6 C5 1_555 1_555
C7 Tl1 1_555 1_555
H4 C7 1_555 1_555
H5 C7 1_555 1_555
H6 C7 1_555 1_555
C8 Tl1 1_555 1_555
H7 C8 1_555 1_555
H8 C8 1_555 1_555
H9 C8 1_555 1_555
C9 O1 1_555 1_555
H10 C9 1_555 1_555
C10 C9 1_555 1_555
H11 C10 1_555 1_555
H12 C10 1_555 1_555
H13 C10 1_555 1_555
C11 C9 1_555 1_555
H14 C11 1_555 1_555
H15 C11 1_555 1_555
H16 C11 1_555 1_555
Tl1B S1 1_555 1_555
S1B Tl1 1_555 1_555
O2B Tl1 1_555 1_555
O2 Tl1B 1_555 1_555
C1 C3 1_555 1_555
C4 C5 1_555 1_555

#END
