
#######################################################################
#
#                 Cambridge Crystallographic Data Centre
#                                CCDC 
#
#######################################################################
#
# If this CIF has been generated from an entry in the Cambridge 
# Structural Database, then it will include bibliographic, chemical, 
# crystal, experimental, refinement or atomic coordinate data resulting 
# from the CCDC's data processing and validation procedures.
#
#######################################################################

data_NIHFEQ
_symmetry_cell_setting           orthorhombic
_symmetry_space_group_name_H-M   'P b n a'
_symmetry_Int_Tables_number      60
_space_group_name_Hall           '-P 2ac 2b'
loop_
_symmetry_equiv_pos_site_id
_symmetry_equiv_pos_as_xyz
1 x,y,z
2 1/2-x,-y,1/2+z
3 x,1/2-y,-z
4 1/2-x,1/2+y,1/2-z
5 -x,-y,-z
6 1/2+x,y,1/2-z
7 -x,1/2+y,z
8 1/2+x,1/2-y,1/2+z
_cell_length_a                   7.54000(10)
_cell_length_b                   15.9570(3)
_cell_length_c                   18.4190(4)
_cell_angle_alpha                90
_cell_angle_beta                 90
_cell_angle_gamma                90
_cell_volume                     2216.1
loop_
_atom_site_label
_atom_site_type_symbol
_atom_site_fract_x
_atom_site_fract_y
_atom_site_fract_z
Tl1 Tl 0.48779(2) 0.121503(10) 0.521425(9)
S1 S 0.49066(12) 0.03693(7) 0.37068(6)
O1 O 0.5135(4) 0.23018(19) 0.42256(17)
O2 O 0.5775(4) 0.28742(18) 0.31562(17)
N1 N 0.8284(4) 0.0256(2) 0.33180(18)
H3 H 0.8031 -0.0280 0.3278
C1 C 0.9969(5) 0.0494(3) 0.3194(2)
H4 H 1.0844 0.0084 0.3087
C2 C 1.0431(7) 0.1319(2) 0.3222(3)
H5 H 1.1627 0.1491 0.3157
C3 C 0.9078(5) 0.1908(3) 0.3350(2)
H6 H 0.9355 0.2489 0.3341
C4 C 0.7362(5) 0.1660(3) 0.3488(2)
C5 C 0.6937(5) 0.0790(2) 0.3502(2)
C6 C 0.5968(5) 0.2317(2) 0.3627(2)
C7 C 0.7666(7) 0.1111(3) 0.5354(3)
H7 H 0.7940 0.1056 0.5872
H8 H 0.8246 0.1613 0.5160
H9 H 0.8099 0.0615 0.5094
C8 C 0.2068(8) 0.1296(3) 0.5188(3)
H10 H 0.1558 0.0735 0.5241
H11 H 0.1692 0.1538 0.4723
H12 H 0.1658 0.1654 0.5586
Tl1D Tl 0.51221(2) -0.121503(10) 0.478575(9)
Tl1B Tl 0.48779(2) 0.378497(10) 0.478575(9)
S1D S 0.50934(12) -0.03693(7) 0.62932(6)
O1B O 0.5135(4) 0.26982(19) 0.57744(17)
O3 O 0.7447(5) 0.36333(19) 0.2021(2)
H1 H 0.7092 0.3257 0.2378
H2 H 0.8204 0.3449 0.1939
loop_
_geom_bond_atom_site_label_1
_geom_bond_atom_site_label_2
_geom_bond_site_symmetry_1
_geom_bond_site_symmetry_2
Tl1 S1 1_555 1_555
S1 C5 1_555 1_555
O1 Tl1 1_555 1_555
O2 C6 1_555 1_555
O3 H1 1_555 1_555
H2 O3 1_555 1_555
N1 H3 1_555 1_555
C1 N1 1_555 1_555
H4 C1 1_555 1_555
C2 C1 1_555 1_555
H5 C2 1_555 1_555
C3 C2 1_555 1_555
H6 C3 1_555 1_555
C4 C3 1_555 1_555
C5 N1 1_555 1_555
C6 O1 1_555 1_555
C7 Tl1 1_555 1_555
H7 C7 1_555 1_555
H8 C7 1_555 1_555
H9 C7 1_555 1_555
C8 Tl1 1_555 1_555
H10 C8 1_555 1_555
H11 C8 1_555 1_555
H12 C8 1_555 1_555
Tl1D S1 1_555 1_555
Tl1B O1 1_555 1_555
S1D Tl1 1_555 1_555
O1B Tl1 1_555 1_555
C4 C5 1_555 1_555
C4 C6 1_555 1_555
Tl1D S1D 1_555 1_555
Tl1B O1B 1_555 1_555

#END
