
#######################################################################
#
#                 Cambridge Crystallographic Data Centre
#                                CCDC 
#
#######################################################################
#
# If this CIF has been generated from an entry in the Cambridge 
# Structural Database, then it will include bibliographic, chemical, 
# crystal, experimental, refinement or atomic coordinate data resulting 
# from the CCDC's data processing and validation procedures.
#
#######################################################################

data_NIHFIU
_symmetry_cell_setting           monoclinic
_symmetry_space_group_name_H-M   'C 2/c'
_symmetry_Int_Tables_number      15
_space_group_name_Hall           '-C 2yn'
loop_
_symmetry_equiv_pos_site_id
_symmetry_equiv_pos_as_xyz
1 x,y,z
2 1/2+x,1/2+y,z
3 -x,y,1/2-z
4 1/2-x,1/2+y,1/2-z
5 -x,-y,-z
6 1/2-x,1/2-y,-z
7 x,-y,1/2+z
8 1/2+x,1/2-y,1/2+z
_cell_length_a                   13.3430(3)
_cell_length_b                   8.2230(2)
_cell_length_c                   21.2220(4)
_cell_angle_alpha                90
_cell_angle_beta                 101.7120(10)
_cell_angle_gamma                90
_cell_volume                     2279.99
loop_
_atom_site_label
_atom_site_type_symbol
_atom_site_fract_x
_atom_site_fract_y
_atom_site_fract_z
Tl1 Tl 0.231099(16) 0.89677(3) 0.690824(10)
S1 S 0.36754(14) 1.09728(15) 0.81601(8)
O1 O 0.3171(4) 1.2835(5) 0.9451(2)
O2 O 0.3983(4) 1.0779(5) 1.0031(2)
N1 N 0.2185(4) 0.8800(6) 0.8120(3)
C1 C 0.2784(4) 0.9886(6) 0.8493(3)
C2 C 0.2696(5) 1.0085(7) 0.9146(3)
C3 C 0.2044(6) 0.9106(7) 0.9402(3)
H1 H 0.2009 0.9200 0.9843
C4 C 0.1438(5) 0.7980(7) 0.9012(3)
H2 H 0.0982 0.7291 0.9178
C5 C 0.1517(5) 0.7893(7) 0.8373(3)
H3 H 0.1081 0.7161 0.8098
C6 C 0.3302(5) 1.1395(8) 0.9545(3)
C7 C 0.4621(6) 1.1951(8) 1.0432(3)
H4 H 0.5061 1.2501 1.0180
H5 H 0.5047 1.1393 1.0799
H6 H 0.4188 1.2755 1.0589
C8 C 0.3818(5) 0.8069(8) 0.6949(3)
H7 H 0.3787 0.7079 0.6688
H8 H 0.4138 0.7821 0.7396
H9 H 0.4225 0.8894 0.6781
C9 C 0.0960(5) 1.0380(8) 0.6638(3)
H10 H 0.1137 1.1537 0.6667
H11 H 0.0493 1.0139 0.6927
H12 H 0.0626 1.0114 0.6195
Tl1C Tl 0.268901(16) 1.39677(3) 0.809176(10)
S1C S 0.13246(14) 0.59728(15) 0.68399(8)
O1C O 0.1829(4) 0.7835(5) 0.5549(2)
loop_
_geom_bond_atom_site_label_1
_geom_bond_atom_site_label_2
_geom_bond_site_symmetry_1
_geom_bond_site_symmetry_2
Tl1 S1 1_555 1_555
S1 C1 1_555 1_555
O1 C6 1_555 1_555
O2 C6 1_555 1_555
N1 Tl1 1_555 1_555
C1 N1 1_555 1_555
C2 C1 1_555 1_555
C3 C2 1_555 1_555
H1 C3 1_555 1_555
C4 C3 1_555 1_555
H2 C4 1_555 1_555
C5 N1 1_555 1_555
H3 C5 1_555 1_555
C6 C2 1_555 1_555
C7 O2 1_555 1_555
H4 C7 1_555 1_555
H5 C7 1_555 1_555
H6 C7 1_555 1_555
C8 Tl1 1_555 1_555
H7 C8 1_555 1_555
H8 C8 1_555 1_555
H9 C8 1_555 1_555
C9 Tl1 1_555 1_555
H10 C9 1_555 1_555
H11 C9 1_555 1_555
H12 C9 1_555 1_555
Tl1C S1 1_555 1_555
S1C Tl1 1_555 1_555
O1C Tl1 1_555 1_555
O1 Tl1C 1_555 1_555
C4 C5 1_555 1_555

#END
