
#######################################################################
#
#                 Cambridge Crystallographic Data Centre
#                                CCDC 
#
#######################################################################
#
# If this CIF has been generated from an entry in the Cambridge 
# Structural Database, then it will include bibliographic, chemical, 
# crystal, experimental, refinement or atomic coordinate data resulting 
# from the CCDC's data processing and validation procedures.
#
#######################################################################

data_NIHGIV
_symmetry_cell_setting           orthorhombic
_symmetry_space_group_name_H-M   'P 21 21 21'
_symmetry_Int_Tables_number      19
_space_group_name_Hall           'P 2ac 2ab'
loop_
_symmetry_equiv_pos_site_id
_symmetry_equiv_pos_as_xyz
1 x,y,z
2 1/2-x,-y,1/2+z
3 1/2+x,1/2-y,-z
4 -x,1/2+y,1/2-z
_cell_length_a                   9.736(5)
_cell_length_b                   14.977(8)
_cell_length_c                   16.268(9)
_cell_angle_alpha                90
_cell_angle_beta                 90
_cell_angle_gamma                90
_cell_volume                     2372.14
loop_
_atom_site_label
_atom_site_type_symbol
_atom_site_fract_x
_atom_site_fract_y
_atom_site_fract_z
Zn1 Zn 0.99983(6) 0.49814(5) 0.69935(3)
O1 O 1.1838(7) 0.5329(6) 0.7394(4)
O2 O 1.4541(8) 0.5946(6) 1.1139(4)
O3 O 1.0430(7) 0.6188(4) 0.8096(4)
O4 O 1.4550(10) 0.4679(6) 1.0566(5)
N1 N 0.8128(5) 0.5602(3) 0.6782(3)
N2 N 0.0772(5) 0.9140(3) 0.7097(3)
C1 C 1.3430(14) 0.6895(10) 0.9719(8)
H1 H 1.4068 0.7371 0.9853
H2 H 1.2725 0.6881 1.0140
C2 C 1.4170(8) 0.6029(6) 0.9707(5)
C3 C 1.1609(10) 0.5895(7) 0.7952(6)
C4 C 1.5603(10) 0.6165(10) 0.9327(6)
H3 H 1.5519 0.6494 0.8823
H4 H 1.6012 0.5594 0.9217
H5 H 1.6172 0.6491 0.9704
C5 C 0.4054(6) 0.6640(5) 0.6317(4)
H6 H 0.3799 0.7045 0.6756
H7 H 0.3399 0.6152 0.6313
C6 C 0.7742(7) 0.6401(4) 0.7085(4)
H8 H 0.8372 0.6723 0.7396
C7 C 0.7221(7) 0.5167(6) 0.6326(4)
H9 H 0.7480 0.4625 0.6093
C8 C 0.5897(8) 0.5481(6) 0.6181(5)
H10 H 0.5292 0.5140 0.5869
C9 C 1.3216(9) 0.5463(6) 0.9136(5)
C10 C 0.1040(6) 0.7694(4) 0.6504(4)
H11 H 0.0845 0.7087 0.6524
C11 C 0.0490(6) 0.8257(4) 0.7089(4)
H12 H -0.0090 0.8023 0.7488
C12 C 0.6449(6) 0.6765(4) 0.6954(4)
H13 H 0.6221 0.7321 0.7170
C13 C 1.2831(8) 0.6202(6) 0.8480(5)
H14 H 1.3615 0.6227 0.8103
C14 C 0.1573(7) 0.9440(4) 0.6509(4)
H15 H 0.1765 1.0048 0.6499
C15 C 0.3977(6) 0.7134(5) 0.5498(3)
H16 H 0.4545 0.7666 0.5527
H17 H 0.4343 0.6755 0.5067
C16 C 0.2527(6) 0.7401(5) 0.5277(4)
H18 H 0.2536 0.7693 0.4745
H19 H 0.1971 0.6867 0.5229
C17 C 0.5482(6) 0.6272(5) 0.6485(4)
C18 C 0.1869(5) 0.8018(4) 0.5895(3)
C19 C 0.2151(7) 0.8909(4) 0.5903(4)
H20 H 0.2723 0.9158 0.5506
C20 C 1.3966(17) 0.4646(9) 0.8787(10)
H21 H 1.4174 0.4239 0.9225
H22 H 1.4803 0.4834 0.8528
H23 H 1.3390 0.4355 0.8390
C21 C 1.2730(13) 0.7095(8) 0.8835(7)
H24 H 1.1784 0.7289 0.8890
H25 H 1.3245 0.7532 0.8521
C22 C 1.4485(9) 0.5474(7) 1.0581(6)
C23 C 1.1976(9) 0.5139(9) 0.9549(6)
H26 H 1.2223 0.4691 0.9945
H27 H 1.1362 0.4887 0.9151
H28 H 1.1532 0.5627 0.9824
Zn1A Zn 1.50017(6) 0.50186(5) 1.19935(3)
Zn1C Zn 0.00017(6) 0.99814(5) 0.80065(3)
O2A O 1.0459(8) 0.4054(6) 0.6139(4)
O4A O 1.0450(10) 0.5321(6) 0.5566(5)
N2C N 0.9228(5) 0.4140(3) 0.7903(3)
O5 O 0.6534(16) 0.8617(10) 0.8122(9)
loop_
_geom_bond_atom_site_label_1
_geom_bond_atom_site_label_2
_geom_bond_site_symmetry_1
_geom_bond_site_symmetry_2
Zn1 O1 1_555 1_555
O1 C3 1_555 1_555
O2 C22 1_555 1_555
O3 Zn1 1_555 1_555
O4 C22 1_555 1_555
N1 Zn1 1_555 1_555
N2 C11 1_555 1_555
C1 H1 1_555 1_555
H2 C1 1_555 1_555
C2 C1 1_555 1_555
C3 O3 1_555 1_555
C4 C2 1_555 1_555
H3 C4 1_555 1_555
H4 C4 1_555 1_555
H5 C4 1_555 1_555
C5 H6 1_555 1_555
H7 C5 1_555 1_555
C6 N1 1_555 1_555
H8 C6 1_555 1_555
C7 N1 1_555 1_555
H9 C7 1_555 1_555
C8 C7 1_555 1_555
H10 C8 1_555 1_555
C9 C2 1_555 1_555
C10 H11 1_555 1_555
C11 C10 1_555 1_555
H12 C11 1_555 1_555
C12 C6 1_555 1_555
H13 C12 1_555 1_555
C13 C3 1_555 1_555
H14 C13 1_555 1_555
C14 N2 1_555 1_555
H15 C14 1_555 1_555
C15 C5 1_555 1_555
H16 C15 1_555 1_555
H17 C15 1_555 1_555
C16 C15 1_555 1_555
H18 C16 1_555 1_555
H19 C16 1_555 1_555
C17 C5 1_555 1_555
C18 C10 1_555 1_555
C19 C14 1_555 1_555
H20 C19 1_555 1_555
C20 C9 1_555 1_555
H21 C20 1_555 1_555
H22 C20 1_555 1_555
H23 C20 1_555 1_555
C21 C1 1_555 1_555
H24 C21 1_555 1_555
H25 C21 1_555 1_555
C22 C2 1_555 1_555
C23 C9 1_555 1_555
H26 C23 1_555 1_555
H27 C23 1_555 1_555
H28 C23 1_555 1_555
Zn1A O2 1_555 1_555
Zn1C N2 1_555 1_555
O2A Zn1 1_555 1_555
O4A Zn1 1_555 1_555
N2C Zn1 1_555 1_555
O4 Zn1A 1_555 1_555
C8 C17 1_555 1_555
C9 C13 1_555 1_555
C12 C17 1_555 1_555
C13 C21 1_555 1_555
C16 C18 1_555 1_555
C18 C19 1_555 1_555

#END
