
#######################################################################
#
#                 Cambridge Crystallographic Data Centre
#                                CCDC 
#
#######################################################################
#
# If this CIF has been generated from an entry in the Cambridge 
# Structural Database, then it will include bibliographic, chemical, 
# crystal, experimental, refinement or atomic coordinate data resulting 
# from the CCDC's data processing and validation procedures.
#
#######################################################################

data_NIHGAN
_symmetry_cell_setting           orthorhombic
_symmetry_space_group_name_H-M   'P 21 21 21'
_symmetry_Int_Tables_number      19
_space_group_name_Hall           'P 2ac 2ab'
loop_
_symmetry_equiv_pos_site_id
_symmetry_equiv_pos_as_xyz
1 x,y,z
2 1/2-x,-y,1/2+z
3 -x,1/2+y,1/2-z
4 1/2+x,1/2-y,-z
_cell_length_a                   9.8411(2)
_cell_length_b                   14.5031(2)
_cell_length_c                   16.9409(3)
_cell_angle_alpha                90
_cell_angle_beta                 90
_cell_angle_gamma                90
_cell_volume                     2417.91
loop_
_atom_site_label
_atom_site_type_symbol
_atom_site_fract_x
_atom_site_fract_y
_atom_site_fract_z
Cd1 Cd -0.004478(16) 0.484440(12) 0.314719(8)
O1 O -0.0497(2) 0.51282(15) 0.44848(10)
O3 O -0.0441(3) 0.36937(16) 0.40854(11)
O5 O -0.4238(2) 0.39845(15) 0.72349(11)
O6 O -0.27805(18) 0.49933(15) 0.76970(10)
N1 N 0.0743(2) 0.39818(17) 0.21093(13)
N2 N 0.7914(2) 0.0459(2) 0.16443(13)
C1 C -0.0771(3) 0.3938(2) 0.54714(15)
C2 C -0.1621(3) 0.4606(2) 0.60217(14)
C3 C -0.1913(3) 0.3946(2) 0.67344(14)
H1 H -0.1088 0.3925 0.7058
C4 C -0.2129(4) 0.2983(2) 0.63997(18)
H2 H -0.3087 0.2829 0.6388
H3 H -0.1652 0.2527 0.6713
C5 C -0.1535(4) 0.3027(3) 0.55445(18)
H4 H -0.0923 0.2513 0.5454
H5 H -0.2262 0.2997 0.5159
C6 C 0.0709(3) 0.3800(3) 0.57915(18)
H6 H 0.1196 0.3391 0.5448
H7 H 0.0672 0.3540 0.6312
H8 H 0.1165 0.4384 0.5811
C7 C -0.2930(3) 0.4876(2) 0.56172(15)
H9 H -0.3436 0.5283 0.5954
H10 H -0.3458 0.4334 0.5511
H11 H -0.2726 0.5184 0.5130
C8 C -0.0867(4) 0.5486(3) 0.62703(17)
H12 H -0.1448 0.5853 0.6600
H13 H -0.0621 0.5832 0.5809
H14 H -0.0061 0.5323 0.6558
C9 C -0.0589(3) 0.4282(2) 0.46264(15)
C10 C -0.3056(3) 0.4328(2) 0.72560(14)
C11 C 0.1579(3) 0.4362(2) 0.15739(17)
H15 H 0.1810 0.4981 0.1626
C12 C 0.2103(3) 0.3869(2) 0.09527(15)
H16 H 0.2682 0.4158 0.0596
C13 C 0.1783(2) 0.2948(2) 0.08489(14)
C14 C 0.0886(3) 0.2567(2) 0.13855(15)
H17 H 0.0609 0.1958 0.1331
C15 C 0.0403(3) 0.3094(2) 0.20028(15)
H18 H -0.0188 0.2821 0.2362
C16 C 0.2409(3) 0.2379(2) 0.02062(14)
H19 H 0.2432 0.2735 -0.0278
H20 H 0.1850 0.1838 0.0114
C17 C 0.3862(3) 0.2071(2) 0.04191(14)
H21 H 0.4234 0.1713 -0.0013
H22 H 0.4429 0.2612 0.0488
C18 C 0.3901(2) 0.1498(2) 0.11682(14)
H23 H 0.3601 0.1872 0.1609
H24 H 0.3277 0.0984 0.1116
C19 C 0.5299(2) 0.1135(2) 0.13372(14)
C20 C 0.5757(3) 0.0317(3) 0.10086(18)
H25 H 0.5187 -0.0024 0.0682
C21 C 0.7060(3) 0.0005(2) 0.11655(18)
H26 H 0.7354 -0.0539 0.0930
C22 C 0.6193(3) 0.1597(2) 0.18145(16)
H27 H 0.5938 0.2154 0.2043
C23 C 0.7479(3) 0.1239(2) 0.19582(15)
H28 H 0.8061 0.1563 0.2290
Cd1A Cd -0.495522(16) 0.515560(12) 0.814719(8)
Cd1B Cd 1.004478(16) -0.015560(12) 0.185281(8)
O5A O -0.0762(2) 0.60155(15) 0.22349(11)
O6A O -0.22195(18) 0.50067(15) 0.26970(10)
N2B N 0.2086(2) 0.5459(2) 0.33557(13)
O2 O -0.1507(4) 0.6708(3) 0.8194(2)
O4 O -0.1109(3) 0.1866(3) 0.37635(17)
loop_
_geom_bond_atom_site_label_1
_geom_bond_atom_site_label_2
_geom_bond_site_symmetry_1
_geom_bond_site_symmetry_2
Cd1 O1 1_555 1_555
O1 C9 1_555 1_555
O3 Cd1 1_555 1_555
O5 C10 1_555 1_555
O6 C10 1_555 1_555
N1 Cd1 1_555 1_555
N2 C21 1_555 1_555
C1 C2 1_555 1_555
C2 C3 1_555 1_555
C3 H1 1_555 1_555
C4 C3 1_555 1_555
H2 C4 1_555 1_555
H3 C4 1_555 1_555
C5 C1 1_555 1_555
H4 C5 1_555 1_555
H5 C5 1_555 1_555
C6 C1 1_555 1_555
H6 C6 1_555 1_555
H7 C6 1_555 1_555
H8 C6 1_555 1_555
C7 C2 1_555 1_555
H9 C7 1_555 1_555
H10 C7 1_555 1_555
H11 C7 1_555 1_555
C8 C2 1_555 1_555
H12 C8 1_555 1_555
H13 C8 1_555 1_555
H14 C8 1_555 1_555
C9 O3 1_555 1_555
C10 C3 1_555 1_555
C11 N1 1_555 1_555
H15 C11 1_555 1_555
C12 C11 1_555 1_555
H16 C12 1_555 1_555
C13 C12 1_555 1_555
C14 C13 1_555 1_555
H17 C14 1_555 1_555
C15 N1 1_555 1_555
H18 C15 1_555 1_555
C16 C13 1_555 1_555
H19 C16 1_555 1_555
H20 C16 1_555 1_555
C17 C16 1_555 1_555
H21 C17 1_555 1_555
H22 C17 1_555 1_555
C18 C17 1_555 1_555
H23 C18 1_555 1_555
H24 C18 1_555 1_555
C19 C18 1_555 1_555
C20 C19 1_555 1_555
H25 C20 1_555 1_555
C21 C20 1_555 1_555
H26 C21 1_555 1_555
C22 C19 1_555 1_555
H27 C22 1_555 1_555
C23 N2 1_555 1_555
H28 C23 1_555 1_555
Cd1A O5 1_555 1_555
Cd1B N2 1_555 1_555
O5A Cd1 1_555 1_555
O6A Cd1 1_555 1_555
N2B Cd1 1_555 1_555
O6 Cd1A 1_555 1_555
C1 C9 1_555 1_555
C4 C5 1_555 1_555
C14 C15 1_555 1_555
C22 C23 1_555 1_555

#END
