
#######################################################################
#
#                 Cambridge Crystallographic Data Centre
#                                CCDC 
#
#######################################################################
#
# If this CIF has been generated from an entry in the Cambridge 
# Structural Database, then it will include bibliographic, chemical, 
# crystal, experimental, refinement or atomic coordinate data resulting 
# from the CCDC's data processing and validation procedures.
#
#######################################################################

data_NIHNAV
_symmetry_cell_setting           triclinic
_symmetry_space_group_name_H-M   'P -1'
_symmetry_Int_Tables_number      2
_space_group_name_Hall           '-P 1'
loop_
_symmetry_equiv_pos_site_id
_symmetry_equiv_pos_as_xyz
1 x,y,z
2 -x,-y,-z
_cell_length_a                   7.4864(15)
_cell_length_b                   8.1555(16)
_cell_length_c                   14.136(3)
_cell_angle_alpha                78.47(3)
_cell_angle_beta                 74.99(3)
_cell_angle_gamma                71.43(3)
_cell_volume                     783.704
loop_
_atom_site_label
_atom_site_type_symbol
_atom_site_fract_x
_atom_site_fract_y
_atom_site_fract_z
Ag1 Ag 0.25416(3) 0.88378(4) 0.32668(2)
Ag2 Ag 0.5000 1.0000 0.0000
Ag3 Ag 1.0000 1.0000 0.5000
Ag4 Ag 0.44128(3) 0.67753(4) 0.09918(2)
C1 C 0.1430(5) 0.4266(4) 0.3787(3)
C2 C 0.0128(5) 0.3725(4) 0.3496(3)
H1 H 0.0473 0.3270 0.2900
C3 C -0.1715(5) 0.3844(5) 0.4081(3)
H2 H -0.2582 0.3465 0.3874
C4 C -0.2240(5) 0.4509(4) 0.4946(3)
H3 H -0.3481 0.4609 0.5321
C5 C -0.0941(4) 0.5055(4) 0.5294(2)
C6 C 0.6700(4) 0.8665(4) 0.3211(2)
H4 H 0.6545 0.9412 0.2594
H5 H 0.7085 0.7467 0.3076
C7 C 0.8316(4) 0.8963(4) 0.3556(2)
C8 C 0.8340(4) 0.7275(4) 0.0822(2)
C9 C 1.0401(4) 0.6530(4) 0.0984(3)
H6 H 1.0358 0.5991 0.1663
H7 H 1.1085 0.5622 0.0563
N1 N 1.1487(4) 0.7802(4) 0.0783(3)
H8 H 1.148(7) 0.835(5) 0.0215(19)
H9 H 1.097(6) 0.863(5) 0.116(3)
N2 N 0.4834(4) 0.8991(4) 0.3899(2)
H10 H 0.452(6) 1.001(3) 0.402(3)
H11 H 0.498(6) 0.828(4) 0.442(2)
O1 O 0.4212(3) 0.5675(3) 0.28913(19)
O2 O 0.5048(4) 0.2633(3) 0.3541(2)
O3 O 0.3660(4) 0.3616(4) 0.2089(2)
O4 O 0.8018(3) 0.9268(3) 0.44112(17)
O5 O 0.9850(3) 0.8879(4) 0.2926(2)
O6 O 0.7697(3) 0.8857(3) 0.06105(19)
O7 O 0.7463(3) 0.6135(3) 0.0922(2)
S1 S 0.37675(11) 0.40272(11) 0.30243(7)
O8 O 0.2790(4) 1.0908(4) 0.1605(2)
H12 H 0.318(6) 1.167(5) 0.173(4)
H13 H 0.168(4) 1.132(6) 0.151(4)
C1A C -0.1430(5) 0.5734(4) 0.6213(3)
C2A C -0.0128(5) 0.6275(4) 0.6504(3)
H1A H -0.0473 0.6730 0.7100
C3A C 0.1715(5) 0.6156(5) 0.5919(3)
H2A H 0.2582 0.6535 0.6126
C4A C 0.2240(5) 0.5491(4) 0.5054(3)
H3A H 0.3481 0.5391 0.4679
C5A C 0.0941(4) 0.4945(4) 0.4706(2)
O1A O -0.4212(3) 0.4325(3) 0.71087(19)
O2A O -0.5048(4) 0.7367(3) 0.6459(2)
O3A O -0.3660(4) 0.6384(4) 0.7911(2)
S1A S -0.37675(11) 0.59728(11) 0.69757(7)
Ag1A Ag -0.25416(3) 0.11622(4) 0.67332(2)
Ag4A Ag -0.44128(3) 0.32247(4) 0.90082(2)
C6A C -0.6700(4) 0.1335(4) 0.6789(2)
H4A H -0.6545 0.0588 0.7406
H5A H -0.7085 0.2533 0.6924
C7A C -0.8316(4) 0.1037(4) 0.6444(2)
C8A C -0.8340(4) 0.2725(4) 0.9178(2)
C9A C -1.0401(4) 0.3470(4) 0.9016(3)
H6A H -1.0358 0.4009 0.8337
H7A H -1.1085 0.4378 0.9437
N1A N -1.1487(4) 0.2198(4) 0.9217(3)
H8A H -1.148(7) 0.165(5) 0.9785(19)
H9A H -1.097(6) 0.137(5) 0.884(3)
N2A N -0.4834(4) 0.1009(4) 0.6101(2)
H10A H -0.452(6) -0.001(3) 0.598(3)
H11A H -0.498(6) 0.172(4) 0.558(2)
O4A O -0.8018(3) 0.0732(3) 0.55888(17)
O5A O -0.9850(3) 0.1121(4) 0.7074(2)
O6A O -0.7697(3) 0.1143(3) 0.93895(19)
O7A O -0.7463(3) 0.3865(3) 0.9078(2)
O8A O -0.2790(4) -0.0908(4) 0.8395(2)
H12A H -0.318(6) -0.167(5) 0.827(4)
H13A H -0.168(4) -0.132(6) 0.849(4)
Ag1_2 Ag 1.25416(3) 0.88378(4) 0.32668(2)
Ag1A_2 Ag -1.25416(3) 0.11622(4) 0.67332(2)
Ag1A_3 Ag 0.74584(3) 1.11622(4) 0.67332(2)
Ag2_2 Ag -0.5000 0.0000 1.0000
Ag3_2 Ag -1.0000 0.0000 0.5000
Ag3_3 Ag 0.0000 0.0000 0.5000
Ag3_4 Ag 0.0000 1.0000 0.5000
Ag4_2 Ag 1.44128(3) 0.67753(4) 0.09918(2)
Ag4A_2 Ag -1.44128(3) 0.32247(4) 0.90082(2)
Ag4A_3 Ag 0.55872(3) 1.32247(4) -0.09918(2)
N1_2 N 0.1487(4) 0.7802(4) 0.0783(3)
N1A_2 N -0.1487(4) 0.2198(4) 0.9217(3)
O4A_2 O 1.1982(3) 1.0732(3) 0.55888(17)
O5_2 O -0.0150(3) 0.8879(4) 0.2926(2)
O5A_2 O 0.0150(3) 0.1121(4) 0.7074(2)
O6A_2 O 0.2303(3) 1.1143(3) -0.06105(19)
O8A_2 O 0.7210(4) 0.9092(4) -0.1605(2)
O9 O 0.8867(5) 0.2530(4) 0.1473(3)
H14 H 0.843(8) 0.360(4) 0.132(4)
H15 H 0.815(7) 0.211(6) 0.190(4)
loop_
_geom_bond_atom_site_label_1
_geom_bond_atom_site_label_2
_geom_bond_site_symmetry_1
_geom_bond_site_symmetry_2
Ag1 N2 1_555 1_555
Ag2 Ag4 1_555 1_555
Ag3 O4 1_555 1_555
Ag4 O1 1_555 1_555
C1 C2 1_555 1_555
C2 H1 1_555 1_555
C3 C2 1_555 1_555
H2 C3 1_555 1_555
C4 C3 1_555 1_555
H3 C4 1_555 1_555
C5 C4 1_555 1_555
C6 H4 1_555 1_555
H5 C6 1_555 1_555
C7 C6 1_555 1_555
C8 C9 1_555 1_555
C9 H6 1_555 1_555
H7 C9 1_555 1_555
N1 C9 1_555 1_555
H8 N1 1_555 1_555
H9 N1 1_555 1_555
N2 C6 1_555 1_555
H10 N2 1_555 1_555
H11 N2 1_555 1_555
O1 Ag1 1_555 1_555
O2 S1 1_555 1_555
O3 S1 1_555 1_555
O4 C7 1_555 1_555
O5 C7 1_555 1_555
O6 Ag2 1_555 1_555
O7 Ag4 1_555 1_555
S1 C1 1_555 1_555
O8 Ag1 1_555 1_555
H12 O8 1_555 1_555
H13 O8 1_555 1_555
O9 H14 1_555 1_555
H15 O9 1_555 1_555
C1A C5 1_555 1_555
C2A C1A 1_555 1_555
H1A C2A 1_555 1_555
C3A C2A 1_555 1_555
H2A C3A 1_555 1_555
C4A C3A 1_555 1_555
H3A C4A 1_555 1_555
C5A C1 1_555 1_555
O1A S1A 1_555 1_555
O2A S1A 1_555 1_555
O3A S1A 1_555 1_555
S1A C1A 1_555 1_555
Ag1A O1A 1_555 1_555
Ag4A O1A 1_555 1_555
C6A H4A 1_555 1_555
H5A C6A 1_555 1_555
C7A C6A 1_555 1_555
C8A C9A 1_555 1_555
C9A H6A 1_555 1_555
H7A C9A 1_555 1_555
N1A C9A 1_555 1_555
H8A N1A 1_555 1_555
H9A N1A 1_555 1_555
N2A Ag1A 1_555 1_555
H10A N2A 1_555 1_555
H11A N2A 1_555 1_555
O4A C7A 1_555 1_555
O5A C7A 1_555 1_555
O6A C8A 1_555 1_555
O7A Ag4A 1_555 1_555
O8A Ag1A 1_555 1_555
H12A O8A 1_555 1_555
H13A O8A 1_555 1_555
Ag1_2 Ag3 1_555 1_555
Ag1A_2 O5A 1_555 1_555
Ag1A_3 Ag3 1_555 1_555
Ag2_2 Ag4A 1_555 1_555
Ag3_2 O4A 1_555 1_555
Ag3_3 Ag1A 1_555 1_555
Ag3_4 Ag1 1_555 1_555
Ag4_2 N1 1_555 1_555
Ag4A_2 N1A 1_555 1_555
Ag4A_3 Ag2 1_555 1_555
N1_2 Ag4 1_555 1_555
N1A_2 Ag4A 1_555 1_555
O4A_2 Ag3 1_555 1_555
O5_2 Ag1 1_555 1_555
O5A_2 Ag1A 1_555 1_555
O6A_2 Ag2 1_555 1_555
O8A_2 Ag2 1_555 1_555
Ag2 O8 1_555 1_555
C5 C5A 1_555 1_555
C8 O6 1_555 1_555
C8 O7 1_555 1_555
O1 S1 1_555 1_555
O5 Ag1_2 1_555 1_555
C4A C5A 1_555 1_555
C6A N2A 1_555 1_555
C8A O7A 1_555 1_555
O6A Ag2_2 1_555 1_555
O8A Ag2_2 1_555 1_555
Ag1A_2 Ag3_2 1_555 1_555

#END
