
#######################################################################
#
#                 Cambridge Crystallographic Data Centre
#                                CCDC 
#
#######################################################################
#
# If this CIF has been generated from an entry in the Cambridge 
# Structural Database, then it will include bibliographic, chemical, 
# crystal, experimental, refinement or atomic coordinate data resulting 
# from the CCDC's data processing and validation procedures.
#
#######################################################################

data_NIHVIJ
_symmetry_cell_setting           monoclinic
_symmetry_space_group_name_H-M   'P 21/c'
_symmetry_Int_Tables_number      14
_space_group_name_Hall           '-P 2ybc'
loop_
_symmetry_equiv_pos_site_id
_symmetry_equiv_pos_as_xyz
1 x,y,z
2 -x,1/2+y,1/2-z
3 -x,-y,-z
4 x,1/2-y,1/2+z
_cell_length_a                   17.527(9)
_cell_length_b                   8.876(2)
_cell_length_c                   21.165(9)
_cell_angle_alpha                90
_cell_angle_beta                 106.71(2)
_cell_angle_gamma                90
_cell_volume                     3153.59
loop_
_atom_site_label
_atom_site_type_symbol
_atom_site_fract_x
_atom_site_fract_y
_atom_site_fract_z
Cu1 Cu -0.1169(1) -0.1006(1) 0.2704(1)
Ni1 Ni 0.2544(1) -0.7646(2) 0.3832(1)
O1 O 0.0007(5) -0.2356(9) 0.2663(3)
O2 O 0.1096(5) -0.8322(9) 0.0649(4)
O3 O 0.3074(5) -0.6650(8) 0.4706(4)
O4 O 0.2236(4) -0.9392(8) 0.4315(3)
O5 O 0.2891(4) -0.5989(9) 0.3330(4)
O6 O 0.3579(5) -0.8744(9) 0.3899(4)
N1 N 0.1543(5) -0.6382(9) 0.3788(4)
N2 N 0.1236(4) -0.5535(9) 0.3264(4)
N3 N 0.0639(5) -0.4076(9) 0.2150(4)
N4 N 0.2041(5) -0.8816(11) 0.2949(4)
N5 N 0.1718(5) -0.8046(10) 0.2395(4)
N6 N 0.1065(5) -0.6376(10) 0.1368(4)
C1 C 0.1347(6) -0.6075(13) 0.4332(5)
C2 C 0.0867(6) -0.4876(13) 0.4396(5)
C3 C 0.0605(7) -0.3966(12) 0.3870(5)
C4 C 0.0786(6) -0.4355(11) 0.3297(5)
C5 C 0.0424(6) -0.3478(13) 0.2651(5)
C6 C 0.0293(7) -0.3377(14) 0.1500(5)
C7 C 0.2214(8) -1.0257(14) 0.2919(6)
C8 C 0.2078(9) -1.1019(14) 0.2346(7)
C9 C 0.1798(8) -1.0222(14) 0.1765(6)
C10 C 0.1610(6) -0.8703(12) 0.1819(5)
C11 C 0.1223(7) -0.7757(14) 0.1203(5)
C12 C 0.0675(7) -0.5411(12) 0.0805(5)
C13 C 0.0712(8) -0.3772(14) 0.0998(6)
C14 C 0.3238(6) -0.7335(13) 0.5259(5)
C15 C 0.3013(8) -0.8776(15) 0.5383(6)
C16 C 0.2565(6) -0.9685(12) 0.4899(5)
C17 C 0.3683(6) -0.6367(15) 0.5825(5)
F1 F 0.4319(7) -0.5794(12) 0.5759(5)
F2 F 0.3909(8) -0.6996(11) 0.6386(4)
F3 F 0.3303(8) -0.5226(11) 0.5931(5)
C18 C 0.2404(4) -1.1300(13) 0.5066(3)
F4 F 0.1639(4) -1.1621(8) 0.4895(3)
F5 F 0.2669(5) -1.1602(9) 0.5701(4)
F6 F 0.2743(5) -1.2266(8) 0.4756(4)
C19 C 0.3534(6) -0.5919(14) 0.3207(5)
C20 C 0.4142(9) -0.6950(18) 0.3340(7)
C21 C 0.4130(7) -0.8233(16) 0.3677(6)
C22 C 0.3611(4) -0.4492(14) 0.2831(4)
F7 F 0.4302(5) -0.4357(12) 0.2730(5)
F8 F 0.3095(5) -0.4456(10) 0.2267(4)
F9 F 0.3497(6) -0.3284(9) 0.3127(5)
C23 C 0.4788(7) -0.9352(14) 0.3746(5)
F10 F 0.4963(8) -1.0028(18) 0.4275(7)
F11 F 0.5428(6) -0.8831(14) 0.3705(7)
F12 F 0.4659(8) -1.0370(15) 0.3329(8)
Cu1A Cu 0.1169(1) -0.6006(1) 0.2296(1)
O1A O -0.0007(5) -0.7356(9) 0.2337(3)
loop_
_geom_bond_atom_site_label_1
_geom_bond_atom_site_label_2
_geom_bond_site_symmetry_1
_geom_bond_site_symmetry_2
Cu1 O1 1_555 1_555
Ni1 O3 1_555 1_555
O1 C5 1_555 1_555
O2 C11 1_555 1_555
O3 C14 1_555 1_555
O4 Ni1 1_555 1_555
O5 Ni1 1_555 1_555
O6 Ni1 1_555 1_555
N1 Ni1 1_555 1_555
N2 N1 1_555 1_555
N3 C5 1_555 1_555
N4 Ni1 1_555 1_555
N5 N4 1_555 1_555
N6 C11 1_555 1_555
C1 N1 1_555 1_555
C2 C1 1_555 1_555
C3 C2 1_555 1_555
C4 N2 1_555 1_555
C5 C4 1_555 1_555
C6 N3 1_555 1_555
C7 N4 1_555 1_555
C8 C7 1_555 1_555
C9 C8 1_555 1_555
C10 N5 1_555 1_555
C11 C10 1_555 1_555
C12 N6 1_555 1_555
C13 C6 1_555 1_555
C14 C15 1_555 1_555
C15 C16 1_555 1_555
C16 O4 1_555 1_555
C17 C14 1_555 1_555
F1 C17 1_555 1_555
F2 C17 1_555 1_555
F3 C17 1_555 1_555
C18 C16 1_555 1_555
F4 C18 1_555 1_555
F5 C18 1_555 1_555
F6 C18 1_555 1_555
C19 O5 1_555 1_555
C20 C19 1_555 1_555
C21 O6 1_555 1_555
C22 C19 1_555 1_555
F7 C22 1_555 1_555
F8 C22 1_555 1_555
F9 C22 1_555 1_555
C23 C21 1_555 1_555
F10 C23 1_555 1_555
F11 C23 1_555 1_555
F12 C23 1_555 1_555
Cu1A N2 1_555 1_555
O1A Cu1A 1_555 1_555
N3 Cu1A 1_555 1_555
N5 Cu1A 1_555 1_555
N6 Cu1A 1_555 1_555
C3 C4 1_555 1_555
C9 C10 1_555 1_555
C12 C13 1_555 1_555
C20 C21 1_555 1_555

#END
