
#######################################################################
#
#                 Cambridge Crystallographic Data Centre
#                                CCDC 
#
#######################################################################
#
# If this CIF has been generated from an entry in the Cambridge 
# Structural Database, then it will include bibliographic, chemical, 
# crystal, experimental, refinement or atomic coordinate data resulting 
# from the CCDC's data processing and validation procedures.
#
#######################################################################

data_NIHVUX
_symmetry_cell_setting           triclinic
_symmetry_space_group_name_H-M   'P -1'
_symmetry_Int_Tables_number      2
_space_group_name_Hall           '-P 1'
loop_
_symmetry_equiv_pos_site_id
_symmetry_equiv_pos_as_xyz
1 x,y,z
2 -x,-y,-z
_cell_length_a                   15.369(5)
_cell_length_b                   15.403(5)
_cell_length_c                   20.104(5)
_cell_angle_alpha                84.835(5)
_cell_angle_beta                 89.828(5)
_cell_angle_gamma                74.460(5)
_cell_volume                     4565.49
loop_
_atom_site_label
_atom_site_type_symbol
_atom_site_fract_x
_atom_site_fract_y
_atom_site_fract_z
W1 W 0.73096(5) -0.87803(5) 1.48225(4)
W2 W 0.88075(5) -0.73004(5) 1.47985(4)
W3 W 1.04839(5) -0.75113(5) 1.36902(4)
W4 W 0.94101(5) -1.05957(5) 1.25268(4)
W5 W 1.07833(5) -0.92275(5) 1.25027(4)
W6 W 0.56760(5) -0.70544(5) 1.36079(4)
W7 W 0.54956(6) -0.52602(6) 1.21977(5)
W8 W 0.76012(5) -1.03736(5) 1.37390(4)
W9 W 0.59544(5) -0.86368(5) 1.25302(5)
W10 W 0.88562(5) -0.57823(5) 1.24583(5)
W11 W 0.72002(5) -0.55636(5) 1.35752(4)
W12 W 0.91534(6) -0.75284(6) 1.12614(5)
W13 W 0.77758(6) -0.88837(6) 1.12939(5)
Ce1 Ce 0.64025(8) -0.36248(7) 1.49849(7)
W14 W 0.57670(6) -0.68770(6) 1.10984(5)
W15 W 0.71866(6) -0.54933(6) 1.10585(5)
Ce2 Ce 0.35328(10) -0.30881(10) 1.13822(8)
P1 P 0.7361(3) -0.7151(3) 1.2406(2)
Mn1 Mn 0.93069(18) -1.06923(17) 1.50095(15)
Mn2 Mn 1.09486(19) -1.08616(18) 1.39160(15)
P2 P 0.9144(3) -0.9040(3) 1.3742(2)
C1 C 0.5845(13) 0.0503(13) 1.6740(11)
C2 C 0.5938(13) -0.0163(13) 1.6262(12)
N1 N 0.6071(14) -0.1444(12) 1.5353(11)
C3 C 0.5189(15) -0.0310(15) 1.5972(12)
H1 H 0.4620 0.0036 1.6080
C4 C 0.1096(19) 0.0007(17) 1.0478(13)
H2 H 0.1160 0.0575 1.0327
C5 C 0.093(2) -0.161(2) 1.0996(17)
H3 H 0.0872 -0.2158 1.1193
C6 C 0.5253(14) -0.0960(14) 1.5520(14)
H4 H 0.4734 -0.1056 1.5338
C7 C 0.9490(14) -0.3197(16) 1.3949(13)
H5 H 0.9626 -0.2662 1.3796
C8 C 0.9771(16) -0.4739(15) 1.3984(14)
H6 H 1.0093 -0.5297 1.3852
C9 C 0.9970(16) -0.3971(17) 1.3710(16)
C10 C 0.8783(16) -0.3148(15) 1.4423(13)
H7 H 0.8451 -0.2602 1.4568
O1 O 0.9554(9) -0.6470(9) 1.3105(7)
O2 O 0.8096(9) -0.6517(9) 1.0903(7)
O3 O 0.6815(10) -0.7777(11) 1.0915(9)
O4 O 0.9453(12) -0.5015(11) 1.2238(8)
O5 O 0.8040(8) -0.5106(9) 1.3049(8)
O6 O 0.551(4) -0.482(3) 1.506(3)
O7 O 0.5176(9) -0.9233(11) 1.2331(9)
O8 O 0.8075(8) -0.6313(8) 1.4129(6)
O9 O 0.698(2) -0.5179(15) 1.5702(18)
O10 O 1.1313(9) -0.6940(9) 1.3585(8)
O11 O 0.5006(10) -0.6956(11) 1.0483(8)
O12 O 0.8185(9) -0.9140(8) 1.3870(8)
O13 O 0.8592(11) -0.8291(11) 1.0816(8)
O14 O 0.5097(14) -0.3316(14) 1.0876(11)
O15 O 0.9427(9) -0.9265(8) 1.3027(7)
O16 O 0.6317(9) -0.5057(8) 1.2803(7)
O17 O 0.6843(11) -0.2923(9) 1.3867(9)
O18 O 0.9455(10) -1.1507(10) 1.2080(8)
O19 O 0.6460(10) -0.6108(10) 1.0651(8)
O20 O 0.6999(11) -0.3337(13) 1.6157(9)
O21 O 0.8010(10) -0.3907(11) 1.5089(9)
O22 O 0.5232(9) -0.6113(9) 1.2836(7)
C11 C 0.6843(15) -0.1292(13) 1.5620(10)
H8 H 0.7411 -0.1627 1.5501
O23 O 0.4895(11) -0.3059(13) 1.4381(9)
O24 O 0.9791(8) -0.6931(8) 1.4426(7)
O25 O 0.6975(9) -0.9746(8) 1.4468(8)
O26 O 0.8636(10) -0.9662(9) 1.1810(7)
O27 O 0.3559(14) -0.1796(15) 1.0473(11)
O28 O 0.8000(9) -0.7793(8) 1.1990(8)
O29 O 0.3896(14) -0.4521(13) 1.0743(10)
O30 O 0.7845(8) -0.6608(8) 1.2774(7)
O31 O 0.4761(10) -0.6666(10) 1.4088(8)
O32 O 0.6410(9) -0.6314(9) 1.3752(7)
O33 O 0.2426(13) -0.2957(15) 1.0370(10)
O34 O 0.5528(9) -0.7599(9) 1.1842(8)
O35 O 0.6687(8) -0.6455(8) 1.1870(7)
O36 O 0.2235(13) -0.1838(13) 1.1593(10)
O37 O 0.9850(10) -0.7325(12) 1.0641(10)
O38 O 1.2163(11) -1.1984(11) 1.3668(10)
O39 O 0.6796(11) -0.4709(9) 1.4088(8)
O40 O 0.8313(8) -0.9483(8) 1.5292(7)
O41 O 0.8497(10) -0.6598(9) 1.5452(8)
O42 O 0.7293(11) -0.4692(12) 1.0433(10)
O43 O 0.6583(10) -0.8543(9) 1.5470(7)
O44 O 0.6366(9) -0.7969(10) 1.4150(7)
O45 O 0.6779(9) -0.7618(9) 1.2832(7)
O46 O 0.9885(10) -0.8428(11) 1.1796(8)
O47 O 1.1043(9) -0.8458(8) 1.4224(7)
O48 O 0.7805(10) -0.7769(8) 1.4755(7)
O49 O 0.9818(8) -0.9757(8) 1.4269(7)
O50 O 0.5215(9) -0.7839(8) 1.3095(6)
O51 O 1.0523(8) -1.1668(8) 1.4730(7)
N2 N 0.8640(13) -0.3922(12) 1.4637(11)
O52 O 0.8507(9) -1.0993(9) 1.4285(7)
O53 O 0.6609(9) -0.9395(9) 1.3185(7)
O54 O 0.9264(9) -0.6665(9) 1.1849(7)
O55 O 0.6876(11) -0.9003(10) 1.1911(9)
O56 O 0.6995(10) -1.1181(9) 1.3671(8)
O57 O 1.0362(10) -1.0162(9) 1.2132(9)
O58 O 0.6129(11) -0.2021(10) 1.4884(9)
O59 O 1.1701(10) -0.9195(11) 1.2017(8)
O60 O 1.0600(9) -0.8110(9) 1.2910(7)
O61 O 1.0064(9) -1.1161(9) 1.3248(8)
O62 O 0.7881(9) -0.5284(9) 1.1747(8)
O63 O 1.1303(8) -0.9928(9) 1.3222(7)
O64 O 0.8243(9) -1.0445(9) 1.2953(7)
O65 O 0.7610(11) -0.9531(11) 1.0678(9)
O66 O 0.4584(11) -0.4332(10) 1.2188(8)
N3 N 0.1606(13) -0.1320(13) 1.1173(12)
C12 C 0.6771(15) -0.0693(16) 1.6030(13)
H9 H 0.7301 -0.0594 1.6188
C13 C 1.0661(15) -0.4003(14) 1.3230(13)
C14 C 0.9107(17) -0.4709(15) 1.4450(14)
H10 H 0.8988 -0.5241 1.4631
C15 C 0.5086(18) 0.125(2) 1.6751(16)
H11 H 0.4619 0.1358 1.6436
C16 C 0.039(2) -0.026(2) 1.0246(18)
C17 C 1.0801(17) -0.3230(18) 1.2935(15)
H12 H 1.0436 -0.2682 1.3053
O67 O 0.3255(19) -0.2904(19) 1.2629(13)
C18 C 0.168(2) -0.0503(17) 1.0904(15)
H13 H 0.2175 -0.0306 1.1031
C19 C 0.506(2) 0.181(2) 1.7231(18)
H14 H 0.4586 0.2339 1.7222
C20 C 0.027(2) -0.111(2) 1.0518(18)
H15 H -0.0211 -0.1323 1.0387
C21 C 0.647(2) 0.039(2) 1.724(2)
H16 H 0.6966 -0.0119 1.7259
Na1 Na 0.8142(8) -0.3917(8) 0.9764(6)
O68 O 0.9232(8) -0.8109(8) 1.3848(6)
O69 O 0.5035(11) -0.5907(11) 1.1586(9)
N4 N 0.566(2) 0.1642(15) 1.7709(13)
O70 O 0.5567(19) 0.2192(19) 1.8160(15)
C22 C 0.642(2) 0.099(2) 1.769(2)
H17 H 0.6892 0.0944 1.7990
C23 C 1.147(2) -0.3209(18) 1.2459(19)
H18 H 1.1584 -0.2668 1.2293
N5 N 1.1959(14) -0.4032(14) 1.2249(14)
O71 O 1.2515(12) -0.4041(12) 1.1710(14)
C24 C 1.182(3) -0.476(2) 1.252(2)
H19 H 1.2153 -0.5311 1.2380
C25 C 1.118(3) -0.4783(19) 1.301(3)
H20 H 1.1116 -0.5337 1.3191
O72 O 0.6193(10) -0.4779(10) 1.1563(8)
C4A C -0.1096(19) -0.0007(17) 0.9522(13)
H2A H -0.1160 -0.0575 0.9673
C5A C -0.093(2) 0.161(2) 0.9004(17)
H3A H -0.0872 0.2158 0.8807
O36A O -0.2235(13) 0.1838(13) 0.8407(10)
N3A N -0.1606(13) 0.1320(13) 0.8827(12)
C16A C -0.039(2) 0.026(2) 0.9754(18)
C18A C -0.168(2) 0.0503(17) 0.9096(15)
H13A H -0.2175 0.0306 0.8969
C20A C -0.027(2) 0.111(2) 0.9482(18)
H15A H 0.0211 0.1323 0.9613
W1A W -0.73096(5) 0.87803(5) 0.51775(4)
W2A W -0.88075(5) 0.73004(5) 0.52015(4)
W3A W -1.04839(5) 0.75113(5) 0.63098(4)
W4A W -0.94101(5) 1.05957(5) 0.74732(4)
W5A W -1.07833(5) 0.92275(5) 0.74973(4)
W6A W -0.56760(5) 0.70544(5) 0.63921(4)
W7A W -0.54956(6) 0.52602(6) 0.78023(5)
W8A W -0.76012(5) 1.03736(5) 0.62610(4)
W9A W -0.59544(5) 0.86368(5) 0.74698(5)
W10A W -0.88562(5) 0.57823(5) 0.75417(5)
W11A W -0.72002(5) 0.55636(5) 0.64248(4)
W12A W -0.91534(6) 0.75284(6) 0.87386(5)
W13A W -0.77758(6) 0.88837(6) 0.87061(5)
Ce1A Ce -0.64025(8) 0.36248(7) 0.50151(7)
W14A W -0.57670(6) 0.68770(6) 0.89016(5)
W15A W -0.71866(6) 0.54933(6) 0.89415(5)
Ce2A Ce -0.35328(10) 0.30881(10) 0.86178(8)
P1A P -0.7361(3) 0.7151(3) 0.7594(2)
Mn1A Mn -0.93069(18) 1.06923(17) 0.49905(15)
Mn2A Mn -1.09486(19) 1.08616(18) 0.60840(15)
P2A P -0.9144(3) 0.9040(3) 0.6258(2)
C1A C -0.5845(13) -0.0503(13) 0.3260(11)
C2A C -0.5938(13) 0.0163(13) 0.3738(12)
N1A N -0.6071(14) 0.1444(12) 0.4647(11)
C3A C -0.5189(15) 0.0310(15) 0.4028(12)
H1A H -0.4620 -0.0036 0.3920
C6A C -0.5253(14) 0.0960(14) 0.4480(14)
H4A H -0.4734 0.1056 0.4662
C7A C -0.9490(14) 0.3197(16) 0.6051(13)
H5A H -0.9626 0.2662 0.6204
C8A C -0.9771(16) 0.4739(15) 0.6016(14)
H6A H -1.0093 0.5297 0.6148
C9A C -0.9970(16) 0.3971(17) 0.6290(16)
C10A C -0.8783(16) 0.3148(15) 0.5577(13)
H7A H -0.8451 0.2602 0.5432
O1A O -0.9554(9) 0.6470(9) 0.6895(7)
O2A O -0.8096(9) 0.6517(9) 0.9097(7)
O3A O -0.6815(10) 0.7777(11) 0.9085(9)
O4A O -0.9453(12) 0.5015(11) 0.7762(8)
O5A O -0.8040(8) 0.5106(9) 0.6951(8)
O6A O -0.551(4) 0.482(3) 0.494(3)
O7A O -0.5176(9) 0.9233(11) 0.7669(9)
O8A O -0.8075(8) 0.6313(8) 0.5871(6)
O9A O -0.698(2) 0.5179(15) 0.4298(18)
O10A O -1.1313(9) 0.6940(9) 0.6415(8)
O11A O -0.5006(10) 0.6956(11) 0.9517(8)
O12A O -0.8185(9) 0.9140(8) 0.6130(8)
O13A O -0.8592(11) 0.8291(11) 0.9184(8)
O14A O -0.5097(14) 0.3316(14) 0.9124(11)
O15A O -0.9427(9) 0.9265(8) 0.6973(7)
O16A O -0.6317(9) 0.5057(8) 0.7197(7)
O17A O -0.6843(11) 0.2923(9) 0.6133(9)
O18A O -0.9455(10) 1.1507(10) 0.7920(8)
O19A O -0.6460(10) 0.6108(10) 0.9349(8)
O20A O -0.6999(11) 0.3337(13) 0.3843(9)
O21A O -0.8010(10) 0.3907(11) 0.4911(9)
O22A O -0.5232(9) 0.6113(9) 0.7164(7)
C11A C -0.6843(15) 0.1292(13) 0.4380(10)
H8A H -0.7411 0.1627 0.4499
O23A O -0.4895(11) 0.3059(13) 0.5619(9)
O24A O -0.9791(8) 0.6931(8) 0.5574(7)
O25A O -0.6975(9) 0.9746(8) 0.5532(8)
O26A O -0.8636(10) 0.9662(9) 0.8190(7)
O27A O -0.3559(14) 0.1796(15) 0.9527(11)
O28A O -0.8000(9) 0.7793(8) 0.8010(8)
O29A O -0.3896(14) 0.4521(13) 0.9257(10)
O30A O -0.7845(8) 0.6608(8) 0.7226(7)
O31A O -0.4761(10) 0.6666(10) 0.5912(8)
O32A O -0.6410(9) 0.6314(9) 0.6248(7)
O33A O -0.2426(13) 0.2957(15) 0.9630(10)
O34A O -0.5528(9) 0.7599(9) 0.8158(8)
O35A O -0.6687(8) 0.6455(8) 0.8130(7)
O37A O -0.9850(10) 0.7325(12) 0.9359(10)
O38A O -1.2163(11) 1.1984(11) 0.6332(10)
O39A O -0.6796(11) 0.4709(9) 0.5912(8)
O40A O -0.8313(8) 0.9483(8) 0.4708(7)
O41A O -0.8497(10) 0.6598(9) 0.4548(8)
O42A O -0.7293(11) 0.4692(12) 0.9567(10)
O43A O -0.6583(10) 0.8543(9) 0.4530(7)
O44A O -0.6366(9) 0.7969(10) 0.5850(7)
O45A O -0.6779(9) 0.7618(9) 0.7168(7)
O46A O -0.9885(10) 0.8428(11) 0.8204(8)
O47A O -1.1043(9) 0.8458(8) 0.5776(7)
O48A O -0.7805(10) 0.7769(8) 0.5245(7)
O49A O -0.9818(8) 0.9757(8) 0.5731(7)
O50A O -0.5215(9) 0.7839(8) 0.6905(6)
O51A O -1.0523(8) 1.1668(8) 0.5270(7)
N2A N -0.8640(13) 0.3922(12) 0.5363(11)
O52A O -0.8507(9) 1.0993(9) 0.5715(7)
O53A O -0.6609(9) 0.9395(9) 0.6815(7)
O54A O -0.9264(9) 0.6665(9) 0.8151(7)
O55A O -0.6876(11) 0.9003(10) 0.8089(9)
O56A O -0.6995(10) 1.1181(9) 0.6329(8)
O57A O -1.0362(10) 1.0162(9) 0.7868(9)
O58A O -0.6129(11) 0.2021(10) 0.5116(9)
O59A O -1.1701(10) 0.9195(11) 0.7983(8)
O60A O -1.0600(9) 0.8110(9) 0.7090(7)
O61A O -1.0064(9) 1.1161(9) 0.6752(8)
O62A O -0.7881(9) 0.5284(9) 0.8253(8)
O63A O -1.1303(8) 0.9928(9) 0.6778(7)
O64A O -0.8243(9) 1.0445(9) 0.7047(7)
O65A O -0.7610(11) 0.9531(11) 0.9322(9)
O66A O -0.4584(11) 0.4332(10) 0.7812(8)
C12A C -0.6771(15) 0.0693(16) 0.3970(13)
H9A H -0.7301 0.0594 0.3812
C13A C -1.0661(15) 0.4003(14) 0.6770(13)
C14A C -0.9107(17) 0.4709(15) 0.5550(14)
H10A H -0.8988 0.5241 0.5369
C15A C -0.5086(18) -0.125(2) 0.3249(16)
H11A H -0.4619 -0.1358 0.3564
C17A C -1.0801(17) 0.3230(18) 0.7065(15)
H12A H -1.0436 0.2682 0.6947
O67A O -0.3255(19) 0.2904(19) 0.7371(13)
C19A C -0.506(2) -0.181(2) 0.2769(18)
H14A H -0.4586 -0.2339 0.2778
C21A C -0.647(2) -0.039(2) 0.276(2)
H16A H -0.6966 0.0119 0.2741
Na1A Na -0.8142(8) 0.3917(8) 1.0236(6)
O68A O -0.9232(8) 0.8109(8) 0.6152(6)
O69A O -0.5035(11) 0.5907(11) 0.8414(9)
N4A N -0.566(2) -0.1642(15) 0.2291(13)
O70A O -0.5567(19) -0.2192(19) 0.1840(15)
C22A C -0.642(2) -0.099(2) 0.231(2)
H17A H -0.6892 -0.0944 0.2010
C23A C -1.147(2) 0.3209(18) 0.7541(19)
H18A H -1.1584 0.2668 0.7707
N5A N -1.1959(14) 0.4032(14) 0.7751(14)
O71A O -1.2515(12) 0.4041(12) 0.8290(14)
C24A C -1.182(3) 0.476(2) 0.748(2)
H19A H -1.2153 0.5311 0.7620
C25A C -1.118(3) 0.4783(19) 0.699(3)
H20A H -1.1116 0.5337 0.6809
O72A O -0.6193(10) 0.4779(10) 0.8437(8)
W2_2 W -1.11925(5) 1.26996(5) 0.47985(4)
W2A_2 W 1.11925(5) -1.26996(5) 1.52015(4)
Ce1_2 Ce -0.35975(8) 0.63752(7) 0.49849(7)
Ce1A_2 Ce 0.35975(8) -0.63752(7) 1.50151(7)
Ce2_2 Ce -0.64672(10) -0.30881(10) 0.13822(8)
Ce2_3 Ce 1.35328(10) -0.30881(10) 1.13822(8)
Ce2A_2 Ce -1.35328(10) 0.30881(10) 0.86178(8)
Ce2A_3 Ce 0.64672(10) 0.30881(10) 1.86178(8)
Mn1_2 Mn -1.06931(18) 0.93077(17) 0.50095(15)
Mn1A_2 Mn 1.06931(18) -0.93077(17) 1.49905(15)
Mn2_2 Mn -0.90514(19) 0.91384(18) 0.39160(15)
Mn2A_2 Mn 0.90514(19) -0.91384(18) 1.60840(15)
O31_2 O -0.5239(10) 0.3334(10) 0.4088(8)
O31A_2 O 0.5239(10) -0.3334(10) 1.5912(8)
O40_2 O -1.1687(8) 1.0517(8) 0.5292(7)
O40A_2 O 1.1687(8) -1.0517(8) 1.4708(7)
O47_2 O -0.8957(9) 1.1542(8) 0.4224(7)
O47A_2 O 0.8957(9) -1.1542(8) 1.5776(7)
O49_2 O -1.0182(8) 1.0243(8) 0.4269(7)
O49A_2 O 1.0182(8) -1.0243(8) 1.5731(7)
O51_2 O -0.9477(8) 0.8332(8) 0.4730(7)
O51A_2 O 0.9477(8) -0.8332(8) 1.5270(7)
O70_2 O -0.4433(19) 0.2192(19) 0.8160(15)
O70A_2 O 0.4433(19) -0.2192(19) 1.1840(15)
O71_2 O 0.2515(12) -0.4041(12) 1.1710(14)
O71A_2 O -0.2515(12) 0.4041(12) 0.8290(14)
loop_
_geom_bond_atom_site_label_1
_geom_bond_atom_site_label_2
_geom_bond_site_symmetry_1
_geom_bond_site_symmetry_2
W1 O12 1_555 1_555
W2 O8 1_555 1_555
W3 O1 1_555 1_555
W4 O15 1_555 1_555
W5 O15 1_555 1_555
W6 O22 1_555 1_555
W7 O16 1_555 1_555
W8 O12 1_555 1_555
W9 O7 1_555 1_555
W10 O1 1_555 1_555
W11 O5 1_555 1_555
W12 O2 1_555 1_555
W13 O3 1_555 1_555
Ce1 O6 1_555 1_555
W14 O3 1_555 1_555
W15 O2 1_555 1_555
Ce2 O14 1_555 1_555
P1 O28 1_555 1_555
Mn1 O40 1_555 1_555
Mn2 O38 1_555 1_555
P2 O12 1_555 1_555
C1 C2 1_555 1_555
C2 C3 1_555 1_555
N1 C6 1_555 1_555
C3 H1 1_555 1_555
C4 H2 1_555 1_555
C5 H3 1_555 1_555
C6 C3 1_555 1_555
H4 C6 1_555 1_555
C7 H5 1_555 1_555
C8 H6 1_555 1_555
C9 C7 1_555 1_555
C10 C7 1_555 1_555
H7 C10 1_555 1_555
O4 W10 1_555 1_555
O5 W10 1_555 1_555
O8 W11 1_555 1_555
O9 Ce1 1_555 1_555
O10 W3 1_555 1_555
O11 W14 1_555 1_555
O13 W12 1_555 1_555
O15 P2 1_555 1_555
O16 W11 1_555 1_555
O17 Ce1 1_555 1_555
O18 W4 1_555 1_555
O19 W14 1_555 1_555
O20 Ce1 1_555 1_555
O21 Ce1 1_555 1_555
O22 W7 1_555 1_555
C11 N1 1_555 1_555
H8 C11 1_555 1_555
O23 Ce1 1_555 1_555
O24 W2 1_555 1_555
O25 W1 1_555 1_555
O26 W4 1_555 1_555
O27 Ce2 1_555 1_555
O28 W12 1_555 1_555
O29 Ce2 1_555 1_555
O30 W10 1_555 1_555
O31 W6 1_555 1_555
O32 W6 1_555 1_555
O33 Ce2 1_555 1_555
O34 W9 1_555 1_555
O35 W7 1_555 1_555
O36 Ce2 1_555 1_555
O37 W12 1_555 1_555
O39 W11 1_555 1_555
O40 W1 1_555 1_555
O41 W2 1_555 1_555
O42 W15 1_555 1_555
O43 W1 1_555 1_555
O44 W1 1_555 1_555
O45 W6 1_555 1_555
O46 W5 1_555 1_555
O47 W3 1_555 1_555
O48 W1 1_555 1_555
O49 Mn1 1_555 1_555
O50 W6 1_555 1_555
O51 Mn1 1_555 1_555
N2 C10 1_555 1_555
O52 W8 1_555 1_555
O53 W8 1_555 1_555
O54 W10 1_555 1_555
O55 W9 1_555 1_555
O56 W8 1_555 1_555
O57 W4 1_555 1_555
O58 Ce1 1_555 1_555
O59 W5 1_555 1_555
O60 W3 1_555 1_555
O61 W4 1_555 1_555
O62 W10 1_555 1_555
O63 W5 1_555 1_555
O64 W4 1_555 1_555
O65 W13 1_555 1_555
O66 W7 1_555 1_555
N3 C5 1_555 1_555
C12 C2 1_555 1_555
H9 C12 1_555 1_555
C13 C9 1_555 1_555
C14 C8 1_555 1_555
H10 C14 1_555 1_555
C15 C1 1_555 1_555
H11 C15 1_555 1_555
C16 C4 1_555 1_555
C17 C13 1_555 1_555
H12 C17 1_555 1_555
O67 Ce2 1_555 1_555
C18 C4 1_555 1_555
H13 C18 1_555 1_555
C19 C15 1_555 1_555
H14 C19 1_555 1_555
C20 C5 1_555 1_555
H15 C20 1_555 1_555
C21 C1 1_555 1_555
H16 C21 1_555 1_555
Na1 O42 1_555 1_555
O68 W2 1_555 1_555
O69 W7 1_555 1_555
N4 C19 1_555 1_555
O70 N4 1_555 1_555
C22 C21 1_555 1_555
H17 C22 1_555 1_555
C23 C17 1_555 1_555
H18 C23 1_555 1_555
N5 C23 1_555 1_555
O71 N5 1_555 1_555
C24 N5 1_555 1_555
H19 C24 1_555 1_555
C25 C13 1_555 1_555
H20 C25 1_555 1_555
O72 W7 1_555 1_555
C4A H2A 1_555 1_555
C5A H3A 1_555 1_555
O36A N3A 1_555 1_555
N3A C5A 1_555 1_555
C16A C16 1_555 1_555
C18A C4A 1_555 1_555
H13A C18A 1_555 1_555
C20A C5A 1_555 1_555
H15A C20A 1_555 1_555
W1A O12A 1_555 1_555
W2A O8A 1_555 1_555
W3A O1A 1_555 1_555
W4A O15A 1_555 1_555
W5A O15A 1_555 1_555
W6A O22A 1_555 1_555
W7A O16A 1_555 1_555
W8A O12A 1_555 1_555
W9A O7A 1_555 1_555
W10A O1A 1_555 1_555
W11A O5A 1_555 1_555
W12A O2A 1_555 1_555
W13A O3A 1_555 1_555
Ce1A O6A 1_555 1_555
W14A O3A 1_555 1_555
W15A O2A 1_555 1_555
Ce2A O36A 1_555 1_555
P1A O28A 1_555 1_555
Mn1A O40A 1_555 1_555
Mn2A O38A 1_555 1_555
P2A O12A 1_555 1_555
C1A C2A 1_555 1_555
C2A C3A 1_555 1_555
N1A C6A 1_555 1_555
C3A H1A 1_555 1_555
C6A C3A 1_555 1_555
H4A C6A 1_555 1_555
C7A H5A 1_555 1_555
C8A H6A 1_555 1_555
C9A C7A 1_555 1_555
C10A C7A 1_555 1_555
H7A C10A 1_555 1_555
O4A W10A 1_555 1_555
O5A W10A 1_555 1_555
O8A W11A 1_555 1_555
O9A Ce1A 1_555 1_555
O10A W3A 1_555 1_555
O11A W14A 1_555 1_555
O13A W12A 1_555 1_555
O14A Ce2A 1_555 1_555
O15A P2A 1_555 1_555
O16A W11A 1_555 1_555
O17A Ce1A 1_555 1_555
O18A W4A 1_555 1_555
O19A W14A 1_555 1_555
O20A Ce1A 1_555 1_555
O21A Ce1A 1_555 1_555
O22A W7A 1_555 1_555
C11A N1A 1_555 1_555
H8A C11A 1_555 1_555
O23A Ce1A 1_555 1_555
O24A W2A 1_555 1_555
O25A W1A 1_555 1_555
O26A W4A 1_555 1_555
O27A Ce2A 1_555 1_555
O28A W12A 1_555 1_555
O29A Ce2A 1_555 1_555
O30A W10A 1_555 1_555
O31A W6A 1_555 1_555
O32A W6A 1_555 1_555
O33A Ce2A 1_555 1_555
O34A W9A 1_555 1_555
O35A W7A 1_555 1_555
O37A W12A 1_555 1_555
O39A W11A 1_555 1_555
O40A W1A 1_555 1_555
O41A W2A 1_555 1_555
O42A W15A 1_555 1_555
O43A W1A 1_555 1_555
O44A W1A 1_555 1_555
O45A W6A 1_555 1_555
O46A W5A 1_555 1_555
O47A W3A 1_555 1_555
O48A W1A 1_555 1_555
O49A Mn1A 1_555 1_555
O50A W6A 1_555 1_555
O51A Mn1A 1_555 1_555
N2A C10A 1_555 1_555
O52A W8A 1_555 1_555
O53A W8A 1_555 1_555
O54A W10A 1_555 1_555
O55A W9A 1_555 1_555
O56A W8A 1_555 1_555
O57A W4A 1_555 1_555
O58A Ce1A 1_555 1_555
O59A W5A 1_555 1_555
O60A W3A 1_555 1_555
O61A W4A 1_555 1_555
O62A W10A 1_555 1_555
O63A W5A 1_555 1_555
O64A W4A 1_555 1_555
O65A W13A 1_555 1_555
O66A W7A 1_555 1_555
C12A C2A 1_555 1_555
H9A C12A 1_555 1_555
C13A C9A 1_555 1_555
C14A C8A 1_555 1_555
H10A C14A 1_555 1_555
C15A C1A 1_555 1_555
H11A C15A 1_555 1_555
C17A C13A 1_555 1_555
H12A C17A 1_555 1_555
O67A Ce2A 1_555 1_555
C19A C15A 1_555 1_555
H14A C19A 1_555 1_555
C21A C1A 1_555 1_555
H16A C21A 1_555 1_555
Na1A O42A 1_555 1_555
O68A W2A 1_555 1_555
O69A W7A 1_555 1_555
N4A C19A 1_555 1_555
O70A N4A 1_555 1_555
C22A C21A 1_555 1_555
H17A C22A 1_555 1_555
C23A C17A 1_555 1_555
H18A C23A 1_555 1_555
N5A C23A 1_555 1_555
O71A N5A 1_555 1_555
C24A N5A 1_555 1_555
H19A C24A 1_555 1_555
C25A C13A 1_555 1_555
H20A C25A 1_555 1_555
O72A W7A 1_555 1_555
W2_2 O51A 1_555 1_555
W2A_2 O51 1_555 1_555
Ce1_2 O31A 1_555 1_555
Ce1A_2 O31 1_555 1_555
Ce2_2 O70A 1_555 1_555
Ce2_3 O71 1_555 1_555
Ce2A_2 O71A 1_555 1_555
Ce2A_3 O70 1_555 1_555
Mn1_2 O47A 1_555 1_555
Mn1A_2 O47 1_555 1_555
Mn2_2 O40A 1_555 1_555
Mn2A_2 O40 1_555 1_555
O31_2 Ce1A 1_555 1_555
O31A_2 Ce1 1_555 1_555
O40_2 Mn2A 1_555 1_555
O40A_2 Mn2 1_555 1_555
O47_2 Mn1A 1_555 1_555
O47A_2 Mn1 1_555 1_555
O49_2 Mn1A 1_555 1_555
O49A_2 Mn1 1_555 1_555
O51_2 W2A 1_555 1_555
O51A_2 W2 1_555 1_555
O70_2 Ce2A 1_555 1_555
O70A_2 Ce2 1_555 1_555
O71_2 Ce2 1_555 1_555
O71A_2 Ce2A 1_555 1_555
W2 O48 1_555 1_555
W3 O24 1_555 1_555
W3 O68 1_555 1_555
W5 O57 1_555 1_555
W5 O60 1_555 1_555
W6 O44 1_555 1_555
W8 O25 1_555 1_555
W8 O64 1_555 1_555
W9 O45 1_555 1_555
W9 O50 1_555 1_555
W9 O53 1_555 1_555
W11 O30 1_555 1_555
W11 O32 1_555 1_555
W12 O46 1_555 1_555
W12 O54 1_555 1_555
W13 O13 1_555 1_555
W13 O26 1_555 1_555
W13 O28 1_555 1_555
W13 O55 1_555 1_555
Ce1 O39 1_555 1_555
W14 O34 1_555 1_555
W14 O35 1_555 1_555
W14 O69 1_555 1_555
W15 O19 1_555 1_555
W15 O35 1_555 1_555
W15 O62 1_555 1_555
W15 O72 1_555 1_555
Ce2 O66 1_555 1_555
P1 O30 1_555 1_555
P1 O35 1_555 1_555
P1 O45 1_555 1_555
Mn1 O52 1_555 1_555
Mn2 O49 1_555 1_555
Mn2 O51 1_555 1_555
Mn2 O61 1_555 1_555
Mn2 O63 1_555 1_555
P2 O49 1_555 1_555
P2 O68 1_555 1_555
N1 O58 1_555 1_555
C8 C9 1_555 1_555
O21 N2 1_555 1_555
C11 C12 1_555 1_555
O36 N3 1_555 1_555
O49 Mn1A_2 1_555 1_555
N2 C14 1_555 1_555
N3 C18 1_555 1_555
C16 C20 1_555 1_555
N4 C22 1_555 1_555
C24 C25 1_555 1_555
C4A C16A 1_555 1_555
N3A C18A 1_555 1_555
C16A C20A 1_555 1_555
W2A O48A 1_555 1_555
W3A O24A 1_555 1_555
W3A O68A 1_555 1_555
W5A O57A 1_555 1_555
W5A O60A 1_555 1_555
W6A O44A 1_555 1_555
W8A O25A 1_555 1_555
W8A O64A 1_555 1_555
W9A O45A 1_555 1_555
W9A O50A 1_555 1_555
W9A O53A 1_555 1_555
W11A O30A 1_555 1_555
W11A O32A 1_555 1_555
W12A O46A 1_555 1_555
W12A O54A 1_555 1_555
W13A O13A 1_555 1_555
W13A O26A 1_555 1_555
W13A O28A 1_555 1_555
W13A O55A 1_555 1_555
Ce1A O39A 1_555 1_555
W14A O34A 1_555 1_555
W14A O35A 1_555 1_555
W14A O69A 1_555 1_555
W15A O19A 1_555 1_555
W15A O35A 1_555 1_555
W15A O62A 1_555 1_555
W15A O72A 1_555 1_555
Ce2A O66A 1_555 1_555
P1A O30A 1_555 1_555
P1A O35A 1_555 1_555
P1A O45A 1_555 1_555
Mn1A O52A 1_555 1_555
Mn2A O49A 1_555 1_555
Mn2A O51A 1_555 1_555
Mn2A O61A 1_555 1_555
Mn2A O63A 1_555 1_555
P2A O49A 1_555 1_555
P2A O68A 1_555 1_555
N1A O58A 1_555 1_555
C8A C9A 1_555 1_555
O21A N2A 1_555 1_555
C11A C12A 1_555 1_555
O49A Mn1_2 1_555 1_555
N2A C14A 1_555 1_555
N4A C22A 1_555 1_555
C24A C25A 1_555 1_555
Mn1_2 O40_2 1_555 1_555
Mn1_2 O49_2 1_555 1_555
Mn1_2 O51_2 1_555 1_555
Mn1A_2 O40A_2 1_555 1_555
Mn1A_2 O49A_2 1_555 1_555
Mn1A_2 O51A_2 1_555 1_555
Mn2_2 O49_2 1_555 1_555
Mn2_2 O51_2 1_555 1_555
Mn2A_2 O49A_2 1_555 1_555
Mn2A_2 O51A_2 1_555 1_555

#END
