
#######################################################################
#
#                 Cambridge Crystallographic Data Centre
#                                CCDC 
#
#######################################################################
#
# If this CIF has been generated from an entry in the Cambridge 
# Structural Database, then it will include bibliographic, chemical, 
# crystal, experimental, refinement or atomic coordinate data resulting 
# from the CCDC's data processing and validation procedures.
#
#######################################################################

data_NIHWIK
_symmetry_cell_setting           tetragonal
_symmetry_space_group_name_H-M   'P 43'
_symmetry_Int_Tables_number      78
_space_group_name_Hall           'P 4cw'
loop_
_symmetry_equiv_pos_site_id
_symmetry_equiv_pos_as_xyz
1 x,y,z
2 -y,x,3/4+z
3 -x,-y,1/2+z
4 y,-x,1/4+z
_cell_length_a                   12.145(2)
_cell_length_b                   12.145(2)
_cell_length_c                   15.991(3)
_cell_angle_alpha                90
_cell_angle_beta                 90
_cell_angle_gamma                90
_cell_volume                     2358.69
loop_
_atom_site_label
_atom_site_type_symbol
_atom_site_fract_x
_atom_site_fract_y
_atom_site_fract_z
V1 V 0.5643(1) 0.2913(1) 0.0206
Cl1 Cl 0.2463(2) 0.2500(2) 0.2620(2)
O1 O 0.1713(5) 0.4894(5) 0.2687(4)
O2 O 0.4188(5) 0.3773(5) 0.0378(3)
O3 O 0.3163(6) 0.4419(5) 0.1424(4)
O4 O 0.5751(5) 0.3226(5) 0.1452(4)
O5 O 0.4692(5) 0.3784(5) 0.2513(4)
C1 C 0.3983(8) 0.3984(7) 0.1139(6)
C2 C 0.4890(8) 0.3629(7) 0.1765(6)
V1C V 0.2913(1) 0.4357(1) 0.2706
O2C O 0.3773(5) 0.5812(5) 0.2878(3)
O4C O 0.3226(5) 0.4249(5) 0.3952(4)
P1 P 0.8969(2) 0.7114(2) 0.1460(2)
C3 C 0.9553(8) 0.6081(7) 0.0795(6)
C4 C 0.8846(7) 0.5556(7) 0.0217(6)
C5 C 0.9258(8) 0.4757(8) -0.0291(7)
C6 C 1.0349(8) 0.4464(9) -0.0255(7)
C7 C 1.1038(8) 0.4985(8) 0.0300(7)
C8 C 1.0630(8) 0.5796(8) 0.0834(6)
C9 C 0.8131(8) 0.6478(8) 0.2267(6)
C10 C 0.7724(8) 0.5398(8) 0.2147(7)
C11 C 0.7107(8) 0.4932(8) 0.2785(7)
C12 C 0.6854(9) 0.5529(9) 0.3499(7)
C13 C 0.7240(8) 0.6581(9) 0.3603(7)
C14 C 0.7897(9) 0.7043(9) 0.2999(7)
C15 C 0.8153(8) 0.8016(8) 0.0847(6)
C16 C 0.7352(9) 0.8683(9) 0.1208(7)
C17 C 0.6802(10) 0.9466(10) 0.0748(8)
C18 C 0.7002(10) 0.9599(9) -0.0085(8)
C19 C 0.7774(10) 0.8927(10) -0.0466(9)
C20 C 0.8373(10) 0.8188(9) 0.0005(7)
C21 C 1.0034(8) 0.7901(8) 0.1974(7)
C22 C 1.0225(9) 0.8988(9) 0.1757(7)
C23 C 1.1061(9) 0.9559(10) 0.2175(7)
C24 C 1.1660(10) 0.9032(9) 0.2768(8)
C25 C 1.1493(9) 0.7973(9) 0.2984(7)
C26 C 1.0671(8) 0.7383(9) 0.2579(7)
loop_
_geom_bond_atom_site_label_1
_geom_bond_atom_site_label_2
_geom_bond_site_symmetry_1
_geom_bond_site_symmetry_2
V1 O2 1_555 1_555
Cl1 V1C 1_555 1_555
P1 C3 1_555 1_555
O1 V1C 1_555 1_555
O2 C1 1_555 1_555
O3 C1 1_555 1_555
O4 V1 1_555 1_555
O5 C2 1_555 1_555
C1 C2 1_555 1_555
C2 O4 1_555 1_555
C3 C4 1_555 1_555
C4 C5 1_555 1_555
C5 C6 1_555 1_555
C6 C7 1_555 1_555
C7 C8 1_555 1_555
C8 C3 1_555 1_555
C9 P1 1_555 1_555
C10 C9 1_555 1_555
C11 C10 1_555 1_555
C12 C11 1_555 1_555
C13 C12 1_555 1_555
C14 C9 1_555 1_555
C15 P1 1_555 1_555
C16 C15 1_555 1_555
C17 C16 1_555 1_555
C18 C17 1_555 1_555
C19 C18 1_555 1_555
C20 C15 1_555 1_555
C21 P1 1_555 1_555
C22 C21 1_555 1_555
C23 C22 1_555 1_555
C24 C23 1_555 1_555
C25 C24 1_555 1_555
C26 C21 1_555 1_555
V1C O3 1_555 1_555
O2C V1C 1_555 1_555
O4C V1C 1_555 1_555
O5 V1C 1_555 1_555
C13 C14 1_555 1_555
C19 C20 1_555 1_555
C25 C26 1_555 1_555

#END
