
#######################################################################
#
#                 Cambridge Crystallographic Data Centre
#                                CCDC 
#
#######################################################################
#
# If this CIF has been generated from an entry in the Cambridge 
# Structural Database, then it will include bibliographic, chemical, 
# crystal, experimental, refinement or atomic coordinate data resulting 
# from the CCDC's data processing and validation procedures.
#
#######################################################################

data_NIJJAR
_symmetry_cell_setting           triclinic
_symmetry_space_group_name_H-M   'P -1'
_symmetry_Int_Tables_number      2
_space_group_name_Hall           '-P 1'
loop_
_symmetry_equiv_pos_site_id
_symmetry_equiv_pos_as_xyz
1 x,y,z
2 -x,-y,-z
_cell_length_a                   14.162(3)
_cell_length_b                   18.083(5)
_cell_length_c                   21.417(7)
_cell_angle_alpha                112.18(2)
_cell_angle_beta                 93.34(2)
_cell_angle_gamma                97.46(2)
_cell_volume                     5001.38
loop_
_atom_site_label
_atom_site_type_symbol
_atom_site_fract_x
_atom_site_fract_y
_atom_site_fract_z
Pr1 Pr 0.3830(1) 0.4355(1) 0.0253(1)
C1 C -0.4410(15) 0.1072(13) -0.1096(12)
C2 C -0.4972(17) 0.0713(16) -0.0713(14)
C3 C -0.5085(18) -0.0163(15) -0.0884(15)
C4 C -0.4758(18) -0.0564(16) -0.1438(14)
C5 C -0.4273(18) -0.0261(15) -0.1806(14)
C6 C -0.4076(17) 0.0627(14) -0.1624(13)
C7 C -0.3196(19) 0.0636(20) -0.2539(15)
C8 C -0.2175(20) 0.0558(22) -0.2307(18)
C9 C -0.1380(24) 0.1274(19) -0.2132(19)
C10 C -0.0544(20) 0.1071(19) -0.1882(15)
C11 C -0.0638(21) 0.0298(19) -0.1922(17)
C12 C 0.0255(21) 0.0074(19) -0.1653(15)
C13 C 0.1072(16) 0.0177(14) -0.0604(13)
C14 C 0.1565(17) -0.0395(15) -0.0959(14)
C15 C 0.2250(20) -0.0469(16) -0.0554(16)
C16 C 0.2467(18) -0.0121(16) 0.0124(15)
C17 C 0.1973(17) 0.0500(14) 0.0500(15)
C18 C 0.1238(16) 0.0659(14) 0.0124(14)
C19 C 0.0634(16) 0.1288(14) 0.0417(13)
C20 C 0.1729(16) 0.2411(14) 0.0324(13)
C21 C 0.2013(15) 0.2549(13) -0.0286(12)
C22 C -0.0018(15) 0.2455(15) 0.0376(13)
C23 C -0.0928(17) 0.2058(15) -0.0085(14)
C24 C -0.1815(16) 0.2532(14) 0.0109(12)
C25 C -0.2622(15) 0.2127(14) -0.0455(13)
C26 C -0.3412(16) 0.3324(13) -0.0226(14)
C27 C -0.4288(15) 0.3777(14) -0.0018(13)
C28 C -0.4316(15) 0.1985(12) -0.0870(13)
C29 C 0.0448(24) 0.0058(21) -0.5841(18)
C30 C 0.0115(28) -0.0491(25) -0.6477(20)
C31 C -0.0768(26) -0.0639(23) -0.6727(18)
C32 C -0.1275(26) -0.0165(20) -0.6498(18)
C33 C -0.1076(24) 0.0542(21) -0.5827(16)
C34 C -0.0147(21) 0.0559(19) -0.5595(15)
C35 C 0.0079(22) 0.1186(18) -0.5000(16)
C36 C 0.0719 0.2340(21) -0.5528
C37 C 0.0058 0.3091(19) -0.5099
C38 C 0.1281(25) 0.2484(20) -0.4288(14)
C39 C 0.2070(20) 0.2176(16) -0.4016(14)
C40 C 0.2462(23) 0.2744(18) -0.3279(14)
C41 C 0.3276(19) 0.2425(15) -0.3057(12)
C42 C 0.4124(21) 0.3715(14) -0.2088(13)
C43 C 0.4413(19) 0.4207(15) -0.1373(12)
C44 C 0.4359(19) 0.2444(15) -0.2138(15)
C45 C 0.3989(16) 0.1542(15) -0.2291(12)
C46 C 0.3465(18) 0.1426(17) -0.1806(15)
C47 C 0.3105(21) 0.0581(18) -0.1907(17)
C48 C 0.3320(22) -0.0023(20) -0.2357(16)
C49 C 0.3771(22) 0.0102(18) -0.2826(17)
C50 C 0.4226(19) 0.0913(16) -0.2820(15)
C51 C 0.4957(26) 0.0556(23) -0.3831(17)
C52 C 0.4247(30) 0.0570(31) -0.4387(20)
C53 C 0.4356(27) 0.1110(22) -0.4761(21)
C54 C 0.3395(28) 0.0768(24) -0.5346(19)
C55 C 0.2909(27) 0.0019(26) -0.5268(23)
C56 C 0.2039(24) -0.0133(23) -0.5718(18)
O1 O -0.3641(13) 0.1032(10) -0.1982(9)
O2 O 0.0331(11) 0.0356(10) -0.0947(9)
O3 O 0.1571(12) 0.2192(11) -0.0816(10)
O4 O 0.2763(12) 0.3062(10) -0.0152(10)
O5 O -0.4284(11) 0.4402(8) -0.0078(9)
O6 O -0.4978(11) 0.3401(9) 0.0150(9)
O7 O 0.0145 0.3896(20) -0.5000
O8 O -0.0994(23) 0.3141(23) -0.4995(26)
O9 O 0.3918(12) 0.3898(9) -0.1003(8)
O10 O 0.5025(12) 0.4765(9) -0.1231(9)
O11 O 0.4802(16) 0.1154(13) -0.3196(11)
O12 O 0.1345(13) 0.0266(13) -0.5473(10)
N1 N 0.0725(11) 0.1914(10) 0.0117(11)
N2 N -0.3526(11) 0.2444(9) -0.0284(10)
N3 N 0.0855(20) 0.2005 -0.4936(10)
N4 N 0.3619(15) 0.2841(11) -0.2323(10)
S1 S -0.1728(8) -0.0101(7) -0.2132(6)
S2 S 0.3390(10) -0.0006(12) -0.4659(7)
O13 O 0.2309(12) 0.4517(13) -0.0393(12)
O14 O 0.2846(16) 0.5161(13) 0.1125(12)
O15 O 0.3787(15) 0.3907(11) 0.1271(10)
H1 H -0.5175 0.1160 -0.0365
H2 H -0.5411 -0.0281 -0.0544
H3 H -0.4770 -0.1134 -0.1679
H4 H -0.3973 -0.0467 -0.2214
H5 H -0.3559 0.0107 -0.2792
H6 H -0.3155 0.0941 -0.2822
H7 H -0.1546 0.1739 -0.2200
H8 H 0.0091 0.1366 -0.1700
H9 H 0.0814 0.0304 -0.1790
H10 H 0.0202 -0.0505 -0.1835
H11 H 0.1791 -0.0820 -0.1315
H12 H 0.2740 -0.0804 -0.0647
H13 H 0.2971 -0.0368 0.0243
H14 H 0.1997 0.0853 0.0969
H15 H -0.0024 0.1033 0.0339
H16 H 0.0830 0.1550 0.0897
H17 H 0.2168 0.2121 0.0459
H18 H 0.1721 0.2919 0.0692
H19 H 0.0190 0.2978 0.0368
H20 H -0.0113 0.2514 0.0832
H21 H -0.0810 0.2007 -0.0535
H22 H -0.1102 0.1529 -0.0080
H23 H -0.1632 0.3086 0.0166
H24 H -0.2016 0.2514 0.0525
H25 H -0.2731 0.1557 -0.0551
H26 H -0.2439 0.2211 -0.0851
H27 H -0.2878 0.3625 0.0110
H28 H -0.3273 0.3327 -0.0658
H29 H -0.4914 0.2146 -0.0729
H30 H -0.4171 0.2125 -0.1248
H31 H 0.0681 -0.0722 -0.6610
H32 H -0.1155 -0.1049 -0.7117
H33 H -0.1915 -0.0119 -0.6635
H34 H -0.1720 0.0633 -0.5893
H35 H 0.0349 0.0987 -0.4684
H36 H -0.0512 0.1366 -0.4861
H37 H 0.0369 0.1926 -0.5933
H38 H 0.1313 0.2560 -0.5636
H39 H 0.0788 0.2544 -0.3992
H40 H 0.1540 0.3004 -0.4284
H41 H 0.2584 0.2138 -0.4293
H42 H 0.1828 0.1650 -0.4026
H43 H 0.2676 0.3281 -0.3256
H44 H 0.1966 0.2758 -0.2989
H45 H 0.3075 0.1861 -0.3156
H46 H 0.3797 0.2487 -0.3310
H47 H 0.4695 0.3700 -0.2310
H48 H 0.3699 0.3995 -0.2248
H49 H 0.4565 0.2717 -0.1660
H50 H 0.4892 0.2481 -0.2387
H51 H 0.3248 0.1773 -0.1397
H52 H 0.2728 0.0646 -0.1537
H53 H 0.3209 -0.0596 -0.2469
H54 H 0.3962 -0.0244 -0.3247
H55 H 0.4839 0.0031 -0.3811
H56 H 0.5604 0.0664 -0.3924
H57 H 0.4818 0.1560 -0.4739
H58 H 0.3615 0.1191 -0.5497
H59 H 0.2212 -0.0010 -0.6099
H60 H 0.1787 -0.0699 -0.5869
O5_2 O 0.5716(11) 0.4402(8) -0.0078(9)
O5A O 0.4284(11) 0.5598(8) 0.0078(9)
O6_2 O 0.5022(11) 0.3401(9) 0.0150(9)
O10A O 0.4975(12) 0.5235(9) 0.1231(9)
Pr1_2 Pr -0.6170(1) 0.4355(1) 0.0253(1)
Pr1A Pr -0.3830(1) 0.5645(1) -0.0253(1)
Pr1A_2 Pr 0.6170(1) 0.5645(1) -0.0253(1)
O16 O 0.6152(8) 0.2301(7) 0.1055(7)
O17 O 0.1887(13) 0.3784(12) 0.8236(10)
O18 O 0.3933(16) 0.2269(13) 0.0985(14)
O19 O 0.7031(19) 0.3124(14) 0.8088(14)
O20 O 0.7804(19) 0.4963(17) 0.1509(14)
O21 O 0.0515(23) 0.4407(20) 0.0245(18)
O22 O 0.8818(25) 0.3673(18) 0.8924(17)
O23 O 0.0170(23) 0.3154(20) 0.7676(18)
O24 O 0.5964(28) 0.4174(23) 0.1802(19)
O25 O 0.3214(29) 0.2261(24) 0.2202(21)
loop_
_geom_bond_atom_site_label_1
_geom_bond_atom_site_label_2
_geom_bond_site_symmetry_1
_geom_bond_site_symmetry_2
Pr1 O4 1_555 1_555
C1 C2 1_555 1_555
C2 C3 1_555 1_555
C3 C4 1_555 1_555
C4 C5 1_555 1_555
C5 C6 1_555 1_555
C6 C1 1_555 1_555
C7 C8 1_555 1_555
C8 C9 1_555 1_555
C9 C10 1_555 1_555
C10 C11 1_555 1_555
C11 C12 1_555 1_555
C12 O2 1_555 1_555
C13 C14 1_555 1_555
C14 C15 1_555 1_555
C15 C16 1_555 1_555
C16 C17 1_555 1_555
C17 C18 1_555 1_555
C18 C13 1_555 1_555
C19 C18 1_555 1_555
C20 C21 1_555 1_555
C21 O3 1_555 1_555
C22 C23 1_555 1_555
C23 C24 1_555 1_555
C24 C25 1_555 1_555
C25 N2 1_555 1_555
C26 C27 1_555 1_555
C27 O5 1_555 1_555
C28 C1 1_555 1_555
C29 C30 1_555 1_555
C30 C31 1_555 1_555
C31 C32 1_555 1_555
C32 C33 1_555 1_555
C33 C34 1_555 1_555
C34 C29 1_555 1_555
C35 C34 1_555 1_555
C36 C37 1_555 1_555
C37 O7 1_555 1_555
C38 C39 1_555 1_555
C39 C40 1_555 1_555
C40 C41 1_555 1_555
C41 N4 1_555 1_555
C42 C43 1_555 1_555
C43 O9 1_555 1_555
C44 C45 1_555 1_555
C45 C46 1_555 1_555
C46 C47 1_555 1_555
C47 C48 1_555 1_555
C48 C49 1_555 1_555
C49 C50 1_555 1_555
C50 C45 1_555 1_555
C51 C52 1_555 1_555
C52 C53 1_555 1_555
C53 C54 1_555 1_555
C54 C55 1_555 1_555
C55 C56 1_555 1_555
C56 O12 1_555 1_555
O1 C6 1_555 1_555
O2 C13 1_555 1_555
O4 C21 1_555 1_555
O5 Pr1_2 1_555 1_555
O6 C27 1_555 1_555
O8 C37 1_555 1_555
O9 Pr1 1_555 1_555
O10 C43 1_555 1_555
O11 C50 1_555 1_555
O12 C29 1_555 1_555
N1 C19 1_555 1_555
N2 C26 1_555 1_555
N3 C35 1_555 1_555
N4 C42 1_555 1_555
S1 C8 1_555 1_555
S2 C52 1_555 1_555
O13 Pr1 1_555 1_555
O14 Pr1 1_555 1_555
O15 Pr1 1_555 1_555
H1 C2 1_555 1_555
H2 C3 1_555 1_555
H3 C4 1_555 1_555
H4 C5 1_555 1_555
H5 C7 1_555 1_555
H6 C7 1_555 1_555
H7 C9 1_555 1_555
H8 C10 1_555 1_555
H9 C12 1_555 1_555
H10 C12 1_555 1_555
H11 C14 1_555 1_555
H12 C15 1_555 1_555
H13 C16 1_555 1_555
H14 C17 1_555 1_555
H15 C19 1_555 1_555
H16 C19 1_555 1_555
H17 C20 1_555 1_555
H18 C20 1_555 1_555
H19 C22 1_555 1_555
H20 C22 1_555 1_555
H21 C23 1_555 1_555
H22 C23 1_555 1_555
H23 C24 1_555 1_555
H24 C24 1_555 1_555
H25 C25 1_555 1_555
H26 C25 1_555 1_555
H27 C26 1_555 1_555
H28 C26 1_555 1_555
H29 C28 1_555 1_555
H30 C28 1_555 1_555
H31 C30 1_555 1_555
H32 C31 1_555 1_555
H33 C32 1_555 1_555
H34 C33 1_555 1_555
H35 C35 1_555 1_555
H36 C35 1_555 1_555
H37 C36 1_555 1_555
H38 C36 1_555 1_555
H39 C38 1_555 1_555
H40 C38 1_555 1_555
H41 C39 1_555 1_555
H42 C39 1_555 1_555
H43 C40 1_555 1_555
H44 C40 1_555 1_555
H45 C41 1_555 1_555
H46 C41 1_555 1_555
H47 C42 1_555 1_555
H48 C42 1_555 1_555
H49 C44 1_555 1_555
H50 C44 1_555 1_555
H51 C46 1_555 1_555
H52 C47 1_555 1_555
H53 C48 1_555 1_555
H54 C49 1_555 1_555
H55 C51 1_555 1_555
H56 C51 1_555 1_555
H57 C53 1_555 1_555
H58 C54 1_555 1_555
H59 C56 1_555 1_555
H60 C56 1_555 1_555
O5_2 Pr1 1_555 1_555
O5A Pr1 1_555 1_555
O6_2 Pr1 1_555 1_555
O10A Pr1 1_555 1_555
Pr1_2 O6 1_555 1_555
Pr1A O5 1_555 1_555
Pr1A_2 O10 1_555 1_555
C7 O1 1_555 1_555
C11 S1 1_555 1_555
C20 N1 1_555 1_555
C22 N1 1_555 1_555
C28 N2 1_555 1_555
C36 N3 1_555 1_555
C38 N3 1_555 1_555
C44 N4 1_555 1_555
C51 O11 1_555 1_555
C55 S2 1_555 1_555
O5_2 Pr1A_2 1_555 1_555
O5A Pr1A_2 1_555 1_555

#END
