
#######################################################################
#
#                 Cambridge Crystallographic Data Centre
#                                CCDC 
#
#######################################################################
#
# If this CIF has been generated from an entry in the Cambridge 
# Structural Database, then it will include bibliographic, chemical, 
# crystal, experimental, refinement or atomic coordinate data resulting 
# from the CCDC's data processing and validation procedures.
#
#######################################################################

data_NIJSAC
_symmetry_cell_setting           orthorhombic
_symmetry_space_group_name_H-M   'P 21 21 21'
_symmetry_Int_Tables_number      19
_space_group_name_Hall           'P 2ac 2ab'
loop_
_symmetry_equiv_pos_site_id
_symmetry_equiv_pos_as_xyz
1 x,y,z
2 1/2-x,-y,1/2+z
3 -x,1/2+y,1/2-z
4 1/2+x,1/2-y,-z
_cell_length_a                   5.7467(5)
_cell_length_b                   17.9631(16)
_cell_length_c                   20.3944(19)
_cell_angle_alpha                90
_cell_angle_beta                 90
_cell_angle_gamma                90
_cell_volume                     2105.28
loop_
_atom_site_label
_atom_site_type_symbol
_atom_site_fract_x
_atom_site_fract_y
_atom_site_fract_z
Cu1 Cu 0.64423(4) 0.996168(12) 0.791511(9)
O1 O 0.5416(2) 1.04654(7) 0.71096(6)
O2 O 0.8013(2) 0.96765(7) 0.67106(6)
O3 O 0.8242(2) 0.89712(7) 0.53668(7)
O4 O 1.1125(2) 0.97677(8) 0.55613(7)
H1 H 1.1898 0.9384 0.5575
O5 O 0.9572(3) 0.98612(9) 0.42067(7)
O6 O 0.7222(2) 1.05970(7) 0.36453(6)
O7 O 0.1239(3) 1.20241(9) 0.47180(7)
O8 O 0.1280(3) 1.21599(9) 0.57640(7)
N1 N 0.2027(3) 1.18854(10) 0.52616(8)
N2 N 0.3892(3) 0.92110(8) 0.78148(7)
N3 N 0.1565(3) 0.84509(8) 0.73080(7)
N4 N 0.2203(3) 0.80861(9) 0.78665(8)
N5 N -0.1437(3) 0.65906(8) 0.72423(7)
N6 N -0.2420(3) 0.62383(10) 0.67207(8)
N7 N 0.0929(3) 0.56893(9) 0.70135(7)
C1 C 0.6161(3) 1.05116(9) 0.59707(8)
C2 C 0.7333(3) 1.02623(10) 0.54076(8)
C3 C 0.6788(3) 1.05796(10) 0.47982(8)
C4 C 0.5086(3) 1.11230(10) 0.47500(9)
H2 H 0.4720 1.1332 0.4346
C5 C 0.3948(3) 1.13472(10) 0.53067(9)
C6 C 0.4474(3) 1.10643(10) 0.59151(9)
H3 H 0.3710 1.1240 0.6286
C7 C 0.6606(3) 1.01853(9) 0.66372(8)
C8 C 0.8954(3) 0.96024(11) 0.54442(8)
C9 C 0.8004(4) 1.03224(11) 0.41797(9)
C10 C 0.3579(4) 0.85670(11) 0.81526(9)
H4 H 0.4286 0.8475 0.8555
C11 C 0.2571(3) 0.91079(11) 0.72854(9)
H5 H 0.2387 0.9451 0.6948
C12 C 0.0128(4) 0.80910(11) 0.68064(9)
H6 H 0.0885 0.7634 0.6669
H7 H 0.0035 0.8416 0.6427
C13 C -0.2321(3) 0.79088(11) 0.70339(11)
H8 H -0.2978 0.8348 0.7239
H9 H -0.3263 0.7795 0.6652
C14 C -0.2503(4) 0.72641(11) 0.75121(10)
H10 H -0.1732 0.7396 0.7919
H11 H -0.4128 0.7168 0.7609
C15 C 0.0516(4) 0.62648(11) 0.74079(10)
H12 H 0.1474 0.6414 0.7751
C16 C -0.0942(4) 0.57026(11) 0.66010(10)
H13 H -0.1146 0.5360 0.6264
Cu1A Cu 0.85577(4) 1.003832(12) 0.291511(9)
Cu1B Cu 0.35577(4) 0.496168(12) 0.708489(9)
O5A O 0.5428(3) 1.01388(9) 0.92067(7)
O6A O 0.7778(2) 0.94030(7) 0.86453(6)
N7B N 0.9071(3) 1.06893(9) 0.79865(7)
O9 O 0.3785(3) 0.86046(10) 0.56338(11)
H14 H 0.5192 0.8697 0.5535
H15 H 0.3614 0.8138 0.5583
O10 O 0.8886(4) 0.80231(10) 0.41919(11)
H16 H 0.8907 0.8350 0.4493
H17 H 0.9501 0.8217 0.3854
loop_
_geom_bond_atom_site_label_1
_geom_bond_atom_site_label_2
_geom_bond_site_symmetry_1
_geom_bond_site_symmetry_2
Cu1 O1 1_555 1_555
O1 C7 1_555 1_555
O2 Cu1 1_555 1_555
O3 C8 1_555 1_555
O4 H1 1_555 1_555
O5 C9 1_555 1_555
O6 C9 1_555 1_555
O7 N1 1_555 1_555
O8 N1 1_555 1_555
N1 C5 1_555 1_555
N2 Cu1 1_555 1_555
N3 N4 1_555 1_555
N4 C10 1_555 1_555
N5 N6 1_555 1_555
N6 C16 1_555 1_555
N7 C15 1_555 1_555
C1 C2 1_555 1_555
C2 C3 1_555 1_555
C3 C4 1_555 1_555
C4 H2 1_555 1_555
C5 C4 1_555 1_555
C6 C1 1_555 1_555
H3 C6 1_555 1_555
C7 O2 1_555 1_555
C8 O4 1_555 1_555
C9 C3 1_555 1_555
C10 N2 1_555 1_555
H4 C10 1_555 1_555
C11 N2 1_555 1_555
H5 C11 1_555 1_555
C12 N3 1_555 1_555
H6 C12 1_555 1_555
H7 C12 1_555 1_555
C13 C12 1_555 1_555
H8 C13 1_555 1_555
H9 C13 1_555 1_555
C14 N5 1_555 1_555
H10 C14 1_555 1_555
H11 C14 1_555 1_555
C15 N5 1_555 1_555
H12 C15 1_555 1_555
C16 N7 1_555 1_555
H13 C16 1_555 1_555
O9 H14 1_555 1_555
H15 O9 1_555 1_555
O10 H16 1_555 1_555
H17 O10 1_555 1_555
Cu1A O5 1_555 1_555
Cu1B N7 1_555 1_555
O5A Cu1 1_555 1_555
O6A Cu1 1_555 1_555
N7B Cu1 1_555 1_555
O6 Cu1A 1_555 1_555
N3 C11 1_555 1_555
C1 C7 1_555 1_555
C2 C8 1_555 1_555
C5 C6 1_555 1_555
C13 C14 1_555 1_555

#END
