
#######################################################################
#
#                 Cambridge Crystallographic Data Centre
#                                CCDC 
#
#######################################################################
#
# If this CIF has been generated from an entry in the Cambridge 
# Structural Database, then it will include bibliographic, chemical, 
# crystal, experimental, refinement or atomic coordinate data resulting 
# from the CCDC's data processing and validation procedures.
#
#######################################################################

data_NIJSUW
_symmetry_cell_setting           monoclinic
_symmetry_space_group_name_H-M   'C c'
_symmetry_Int_Tables_number      9
_space_group_name_Hall           'C -2yc'
loop_
_symmetry_equiv_pos_site_id
_symmetry_equiv_pos_as_xyz
1 x,y,z
2 x,-y,1/2+z
3 1/2+x,1/2+y,z
4 1/2+x,1/2-y,1/2+z
_cell_length_a                   32.199(4)
_cell_length_b                   17.4926(19)
_cell_length_c                   23.786(3)
_cell_angle_alpha                90
_cell_angle_beta                 115.27(2)
_cell_angle_gamma                90
_cell_volume                     12115.3
loop_
_atom_site_label
_atom_site_type_symbol
_atom_site_fract_x
_atom_site_fract_y
_atom_site_fract_z
Mn1 Mn 0.50725(3) 0.41639(4) 0.01962(4)
O1 O 0.50473(15) 0.5475(2) 0.0243(2)
O2 O 0.53467(14) 0.4940(2) -0.03264(19)
O3 O 0.85594(17) 0.8988(3) -0.0849(2)
O4 O 0.88326(19) 0.8976(5) 0.0165(3)
O5 O 0.53169(15) 1.3105(2) 0.0027(2)
O6 O 0.49386(15) 1.2994(2) -0.10150(19)
O7 O 0.57074(17) 0.4248(3) 0.1051(2)
O8 O 0.47008(15) 0.3853(2) 0.07018(19)
H1 H 0.4688 0.4055 0.1014
H2 H 0.4413 0.3882 0.0523
O9 O 0.44406(14) 0.4054(2) -0.0654(2)
H3 H 0.4427 0.4021 -0.1014
H4 H 0.4214 0.4049 -0.0567
N1 N 0.6130(2) 0.4120(4) 0.2071(3)
C1 C 0.60500(18) 0.8393(3) -0.0361(2)
C2 C 0.64800(18) 0.8390(3) -0.0398(2)
C3 C 0.67008(19) 0.9096(3) -0.0397(3)
C4 C 0.64992(19) 0.9791(3) -0.0381(2)
C5 C 0.60644(18) 0.9795(3) -0.0358(2)
C6 C 0.58459(18) 0.9100(3) -0.0349(2)
C7 C 0.58446(18) 0.7671(3) -0.0301(2)
C8 C 0.57122(18) 0.7104(3) -0.0770(2)
H5 H 0.5753 0.7192 -0.1136
C9 C 0.55246(18) 0.6426(3) -0.0698(3)
H6 H 0.5447 0.6046 -0.1012
C10 C 0.54458(17) 0.6284(3) -0.0176(2)
C11 C 0.55654(19) 0.6847(3) 0.0275(3)
H7 H 0.5510 0.6766 0.0632
C12 C 0.57626(19) 0.7520(3) 0.0215(3)
H8 H 0.5845 0.7891 0.0536
C13 C 0.52646(19) 0.5533(3) -0.0085(3)
C14 C 0.67188(18) 0.7672(3) -0.0416(2)
C15 C 0.68884(18) 0.7175(3) 0.0088(2)
H9 H 0.6799 0.7243 0.0417
C16 C 0.7185(2) 0.6578(3) 0.0123(3)
H10 H 0.7297 0.6254 0.0477
C17 C 0.73203(19) 0.6451(3) -0.0351(3)
C18 C 0.7128(2) 0.6923(3) -0.0873(3)
H11 H 0.7200 0.6834 -0.1216
C19 C 0.68361(18) 0.7516(3) -0.0906(3)
H12 H 0.6712 0.7824 -0.1269
C20 C 0.7680(2) 0.5867(4) -0.0311(3)
C21 C 0.7525(3) 0.5367(4) -0.0867(4)
H13 H 0.7257 0.5070 -0.0902
H14 H 0.7774 0.5018 -0.0828
H15 H 0.7443 0.5683 -0.1240
C22 C 0.7822(3) 0.5351(4) 0.0273(3)
H16 H 0.7549 0.5106 0.0274
H17 H 0.7971 0.5663 0.0648
H18 H 0.8036 0.4958 0.0265
C23 C 0.8116(3) 0.6310(5) -0.0244(4)
H19 H 0.8366 0.5948 -0.0171
H20 H 0.8207 0.6665 0.0107
H21 H 0.8050 0.6598 -0.0626
C24 C 0.71692(19) 0.9083(3) -0.0399(3)
C25 C 0.75424(19) 0.8814(3) 0.0129(3)
H22 H 0.7500 0.8657 0.0484
C26 C 0.7974(2) 0.8775(4) 0.0134(3)
H23 H 0.8228 0.8589 0.0492
C27 C 0.8038(2) 0.9005(4) -0.0382(3)
C28 C 0.7668(2) 0.9266(4) -0.0906(3)
H24 H 0.7708 0.9409 -0.1265
C29 C 0.72390(19) 0.9318(3) -0.0905(3)
H25 H 0.6989 0.9518 -0.1260
C30 C 0.8514(2) 0.8958(5) -0.0360(3)
C31 C 0.67378(19) 1.0522(3) -0.0367(3)
C32 C 0.7145(2) 1.0717(3) 0.0133(3)
H26 H 0.7273 1.0374 0.0474
C33 C 0.7369(2) 1.1396(3) 0.0150(3)
H27 H 0.7647 1.1510 0.0502
C34 C 0.7194(2) 1.1920(3) -0.0344(3)
C35 C 0.6788(2) 1.1723(3) -0.0847(3)
H28 H 0.6663 1.2063 -0.1190
C36 C 0.6557(2) 1.1041(3) -0.0865(3)
H29 H 0.6277 1.0927 -0.1215
C37 C 0.7425(3) 1.2693(4) -0.0337(3)
C38 C 0.7868(3) 1.2802(4) 0.0254(3)
H30 H 0.8080 1.2383 0.0293
H31 H 0.7797 1.2803 0.0616
H32 H 0.8010 1.3289 0.0232
C39 C 0.7541(3) 1.2723(6) -0.0889(4)
H33 H 0.7745 1.2297 -0.0866
H34 H 0.7694 1.3208 -0.0885
H35 H 0.7258 1.2684 -0.1274
C40 C 0.7082(3) 1.3333(4) -0.0379(5)
H36 H 0.7221 1.3833 -0.0378
H37 H 0.7007 1.3299 -0.0021
H38 H 0.6801 1.3275 -0.0764
C41 C 0.58386(18) 1.0548(3) -0.0378(2)
C42 C 0.60068(19) 1.1042(3) 0.0125(3)
H39 H 0.6265 1.0895 0.0493
C43 C 0.5452(2) 1.0765(3) -0.0903(3)
H40 H 0.5322 1.0421 -0.1243
C44 C 0.53914(18) 0.9112(3) -0.0326(2)
C45 C 0.5318(2) 0.9486(3) 0.0142(3)
H41 H 0.5566 0.9747 0.0461
C46 C 0.4888(2) 0.9483(4) 0.0148(3)
H42 H 0.4846 0.9748 0.0468
C47 C 0.45196(19) 0.9098(3) -0.0308(3)
C48 C 0.45927(19) 0.8740(4) -0.0773(3)
H43 H 0.4344 0.8484 -0.1094
C49 C 0.50196(18) 0.8741(3) -0.0788(3)
H44 H 0.5058 0.8486 -0.1116
C50 C 0.4047(2) 0.9068(5) -0.0311(3)
C51 C 0.4020(2) 0.9492(5) 0.0230(3)
H45 H 0.4079 1.0037 0.0202
H46 H 0.4250 0.9285 0.0622
H47 H 0.3713 0.9427 0.0215
C52 C 0.3685(3) 0.9384(7) -0.0916(4)
H48 H 0.3763 0.9912 -0.0971
H49 H 0.3385 0.9375 -0.0904
H50 H 0.3674 0.9070 -0.1263
C53 C 0.3936(3) 0.8218(6) -0.0248(5)
H51 H 0.3634 0.8183 -0.0242
H52 H 0.4170 0.8008 0.0140
H53 H 0.3933 0.7927 -0.0601
C54 C 0.5805(2) 1.1747(3) 0.0099(3)
H54 H 0.5923 1.2078 0.0449
C55 C 0.5431(2) 1.1972(3) -0.0438(3)
C56 C 0.5252(2) 1.1473(3) -0.0939(3)
H55 H 0.4993 1.1618 -0.1307
C57 C 0.5215(2) 1.2750(3) -0.0481(3)
C58 C 0.6155(3) 0.4114(5) 0.2700(4)
H56 H 0.6358 0.4526 0.2944
H57 H 0.6277 0.3621 0.2897
H58 H 0.5847 0.4190 0.2679
C59 C 0.6541(3) 0.3971(5) 0.1989(5)
H59 H 0.6649 0.3451 0.2130
H60 H 0.6779 0.4339 0.2234
H61 H 0.6474 0.4022 0.1549
C60 C 0.5747(3) 0.4243(4) 0.1598(3)
H62 H 0.5481 0.4334 0.1666
Mn2 Mn 0.51312(3) 1.34512(5) -0.17101(4)
O10 O 0.53524(18) 1.2465(3) -0.2055(2)
O11 O 0.58058(18) 1.3658(3) -0.1005(3)
O12 O 0.48808(15) 1.4551(2) -0.15229(18)
H63 H 0.4824 1.4859 -0.1822
H64 H 0.5029 1.4666 -0.1147
O13 O 0.52585(15) 1.4185(2) -0.2405(2)
H65 H 0.5146 1.4604 -0.2384
H66 H 0.5530 1.4121 -0.2356
N2 N 0.5280(2) 1.1768(3) -0.2906(3)
N3 N 0.6268(2) 1.4546(5) -0.0344(4)
C61 C 0.6316(5) 1.4982(8) -0.0870(7)
H67 H 0.6558 1.5369 -0.0693
H68 H 0.6025 1.5233 -0.1129
H69 H 0.6398 1.4624 -0.1124
C62 C 0.6472(3) 1.4939(6) 0.0235(4)
H70 H 0.6327 1.5441 0.0195
H71 H 0.6801 1.5006 0.0355
H72 H 0.6428 1.4641 0.0555
C63 C 0.6010(3) 1.4016(6) -0.0537(6)
H73 H 0.5947 1.3810 -0.0212
C64 C 0.5240(3) 1.1781(5) -0.3513(4)
H74 H 0.5339 1.2281 -0.3598
H75 H 0.4919 1.1692 -0.3805
H76 H 0.5434 1.1380 -0.3564
C65 C 0.5186(3) 1.1050(4) -0.2677(4)
H77 H 0.5192 1.1129 -0.2266
H78 H 0.5421 1.0674 -0.2646
H79 H 0.4883 1.0862 -0.2966
C66 C 0.5349(2) 1.2406(4) -0.2583(3)
H80 H 0.5399 1.2859 -0.2765
Mn3 Mn 0.44961(4) 0.42609(5) -0.34007(4)
O14 O 0.08337(18) 0.8543(3) -0.3235(2)
O15 O 0.10964(18) 0.9047(3) -0.2302(2)
O16 O 0.46534(15) 0.5490(2) -0.32732(18)
O17 O 0.50160(15) 0.5638(2) -0.22481(18)
O18 O 0.42939(18) 1.3094(3) -0.3413(2)
O19 O 0.44625(16) 1.3246(2) -0.2412(2)
O20 O 0.3947(2) 0.4616(3) -0.3151(3)
O21 O 0.4042(2) 0.4516(5) -0.4291(3)
O22 O 0.49719(16) 0.3973(3) -0.3750(2)
H81 H 0.5248 0.3835 -0.3583
H82 H 0.4994 0.4146 -0.4066
N4 N 0.3560(2) 0.5083(3) -0.2636(3)
C67 C 0.4304(2) 1.2864(3) -0.2912(3)
C68 C 0.3144(2) 0.9836(3) -0.2811(3)
C69 C 0.2936(2) 0.9135(3) -0.2802(3)
C70 C 0.31529(18) 0.8447(3) -0.2823(2)
C71 C 0.35844(19) 0.8458(3) -0.2853(2)
C72 C 0.37905(19) 0.9166(3) -0.2865(2)
C73 C 0.35740(18) 0.9851(3) -0.2836(2)
C74 C 0.29146(19) 1.0581(3) -0.2808(3)
C75 C 0.2938(2) 1.0914(4) -0.2263(3)
H83 H 0.3073 1.0640 -0.1883
C76 C 0.2764(3) 1.1645(4) -0.2272(3)
H84 H 0.2795 1.1866 -0.1891
C77 C 0.2552(2) 1.2054(3) -0.2809(3)
C78 C 0.2516(2) 1.1702(3) -0.3353(3)
H85 H 0.2367 1.1964 -0.3738
C79 C 0.2689(2) 1.0989(4) -0.3348(3)
H86 H 0.2652 1.0766 -0.3731
C80 C 0.2399(2) 1.2888(3) -0.2808(3)
C81 C 0.2264(4) 1.3033(5) -0.2258(4)
H87 H 0.2098 1.3519 -0.2325
H88 H 0.2542 1.3055 -0.1867
H89 H 0.2067 1.2616 -0.2240
C82 C 0.2779(4) 1.3404(5) -0.2759(7)
H90 H 0.3027 1.3374 -0.2338
H91 H 0.2665 1.3930 -0.2845
H92 H 0.2895 1.3248 -0.3060
C83 C 0.1977(3) 1.3082(5) -0.3395(4)
H93 H 0.1935 1.3637 -0.3427
H94 H 0.1707 1.2841 -0.3381
H95 H 0.2016 1.2892 -0.3757
C84 C 0.24802(18) 0.9100(3) -0.2784(3)
C85 C 0.2085(2) 0.8960(4) -0.3327(3)
H96 H 0.2106 0.8929 -0.3712
C86 C 0.1659(2) 0.8866(5) -0.3316(3)
H97 H 0.1399 0.8735 -0.3688
C87 C 0.1613(2) 0.8960(4) -0.2774(3)
C88 C 0.2003(2) 0.9101(4) -0.2238(3)
H98 H 0.1980 0.9144 -0.1855
C89 C 0.2427(2) 0.9181(4) -0.2245(3)
H99 H 0.2688 0.9295 -0.1868
C90 C 0.1149(2) 0.8861(4) -0.2772(3)
C91 C 0.29122(17) 0.7715(3) -0.2826(2)
C92 C 0.2641(2) 0.7357(3) -0.3378(3)
H100 H 0.2665 0.7503 -0.3748
C93 C 0.2336(2) 0.6794(4) -0.3405(3)
H101 H 0.2150 0.6568 -0.3796
C94 C 0.2290(2) 0.6543(3) -0.2881(3)
C95 C 0.2578(3) 0.6875(4) -0.2331(3)
H102 H 0.2567 0.6702 -0.1959
C96 C 0.2887(2) 0.7455(4) -0.2289(3)
H103 H 0.3079 0.7671 -0.1897
C97 C 0.1910(2) 0.5986(3) -0.2918(3)
C98 C 0.1551(3) 0.6452(5) -0.2817(5)
H104 H 0.1683 0.6654 -0.2392
H105 H 0.1287 0.6126 -0.2881
H106 H 0.1451 0.6877 -0.3114
C99 C 0.1702(3) 0.5563(5) -0.3535(4)
H107 H 0.1484 0.5180 -0.3525
H108 H 0.1947 0.5309 -0.3607
H109 H 0.1543 0.5928 -0.3872
C100 C 0.2107(3) 0.5400(5) -0.2374(4)
H110 H 0.2188 0.5665 -0.1978
H111 H 0.2382 0.5158 -0.2373
H112 H 0.1876 0.5007 -0.2429
C101 C 0.38390(18) 0.7728(3) -0.2842(3)
C102 C 0.3794(2) 0.7356(4) -0.3385(3)
H113 H 0.3565 0.7522 -0.3775
C103 C 0.4076(2) 0.6749(4) -0.3366(3)
H114 H 0.4046 0.6512 -0.3741
C104 C 0.44019(18) 0.6490(3) -0.2800(2)
C105 C 0.4440(2) 0.6846(3) -0.2262(3)
H115 H 0.4662 0.6673 -0.1870
C106 C 0.4159(3) 0.7449(4) -0.2290(3)
H116 H 0.4188 0.7680 -0.1914
C107 C 0.47143(19) 0.5830(3) -0.2767(3)
C108 C 0.42511(19) 0.9167(3) -0.2881(3)
C109 C 0.4298(2) 0.8981(4) -0.3415(3)
H117 H 0.4033 0.8927 -0.3797
C110 C 0.4733(2) 0.8872(4) -0.3397(3)
H118 H 0.4756 0.8740 -0.3771
C111 C 0.5133(2) 0.8951(3) -0.2854(3)
C112 C 0.5083(2) 0.9182(4) -0.2334(3)
H119 H 0.5350 0.9271 -0.1960
C113 C 0.4648(2) 0.9292(3) -0.2340(3)
H120 H 0.4625 0.9452 -0.1972
C114 C 0.5660(3) 0.9156(5) -0.3370(4)
H121 H 0.5963 0.9031 -0.3350
H122 H 0.5637 0.9709 -0.3327
H123 H 0.5421 0.8989 -0.3771
C115 C 0.5623(4) 0.7881(5) -0.2926(6)
H124 H 0.5606 0.7619 -0.2573
H125 H 0.5914 0.7753 -0.2943
H126 H 0.5366 0.7717 -0.3312
C116 C 0.5597(2) 0.8749(4) -0.2849(3)
C117 C 0.5997(3) 0.9005(7) -0.2244(4)
H127 H 0.5968 0.8765 -0.1890
H128 H 0.5990 0.9562 -0.2207
H129 H 0.6288 0.8851 -0.2249
C118 C 0.37866(18) 1.0610(3) -0.2854(3)
C119 C 0.3955(2) 1.1076(3) -0.2329(3)
H130 H 0.3957 1.0895 -0.1951
C120 C 0.41229(19) 1.1810(3) -0.2350(3)
H131 H 0.4233 1.2126 -0.1991
C121 C 0.4128(2) 1.2071(3) -0.2895(3)
C122 C 0.3958(2) 1.1614(3) -0.3411(3)
H132 H 0.3954 1.1796 -0.3790
C123 C 0.3792(2) 1.0890(3) -0.3387(3)
H133 H 0.3680 1.0580 -0.3750
C124 C 0.3231(3) 0.5490(6) -0.3142(6)
H134 H 0.3257 0.6037 -0.3045
H135 H 0.2922 0.5312 -0.3221
H136 H 0.3285 0.5403 -0.3513
C125 C 0.3556(4) 0.5184(6) -0.2027(5)
H137 H 0.3827 0.4936 -0.1707
H138 H 0.3278 0.4953 -0.2031
H139 H 0.3562 0.5731 -0.1934
C126 C 0.3891(3) 0.4675(4) -0.2691(4)
H140 H 0.4099 0.4410 -0.2332
Mn1_2 Mn 0.50725(3) 1.41639(4) 0.01962(4)
O5_2 O 0.53169(15) 0.3105(2) 0.0027(2)
Mn3_2 Mn 0.44961(4) 1.42609(5) -0.34007(4)
O18_2 O 0.42939(18) 0.3094(3) -0.3413(2)
loop_
_geom_bond_atom_site_label_1
_geom_bond_atom_site_label_2
_geom_bond_site_symmetry_1
_geom_bond_site_symmetry_2
Mn1 O1 1_555 1_555
O1 C13 1_555 1_555
O2 Mn1 1_555 1_555
O3 C30 1_555 1_555
O4 C30 1_555 1_555
O5 C57 1_555 1_555
O6 C57 1_555 1_555
O7 Mn1 1_555 1_555
O8 Mn1 1_555 1_555
H1 O8 1_555 1_555
H2 O8 1_555 1_555
O9 Mn1 1_555 1_555
H3 O9 1_555 1_555
H4 O9 1_555 1_555
N1 C58 1_555 1_555
C1 C2 1_555 1_555
C2 C3 1_555 1_555
C3 C4 1_555 1_555
C4 C5 1_555 1_555
C5 C6 1_555 1_555
C6 C1 1_555 1_555
C7 C1 1_555 1_555
C8 C7 1_555 1_555
H5 C8 1_555 1_555
C9 C8 1_555 1_555
H6 C9 1_555 1_555
C10 C9 1_555 1_555
C11 C10 1_555 1_555
H7 C11 1_555 1_555
C12 C7 1_555 1_555
H8 C12 1_555 1_555
C13 O2 1_555 1_555
C14 C2 1_555 1_555
C15 C14 1_555 1_555
H9 C15 1_555 1_555
C16 C15 1_555 1_555
H10 C16 1_555 1_555
C17 C16 1_555 1_555
C18 C17 1_555 1_555
H11 C18 1_555 1_555
C19 C14 1_555 1_555
H12 C19 1_555 1_555
C20 C17 1_555 1_555
C21 C20 1_555 1_555
H13 C21 1_555 1_555
H14 C21 1_555 1_555
H15 C21 1_555 1_555
C22 C20 1_555 1_555
H16 C22 1_555 1_555
H17 C22 1_555 1_555
H18 C22 1_555 1_555
C23 C20 1_555 1_555
H19 C23 1_555 1_555
H20 C23 1_555 1_555
H21 C23 1_555 1_555
C24 C3 1_555 1_555
C25 C24 1_555 1_555
H22 C25 1_555 1_555
C26 C25 1_555 1_555
H23 C26 1_555 1_555
C27 C26 1_555 1_555
C28 C27 1_555 1_555
H24 C28 1_555 1_555
C29 C24 1_555 1_555
H25 C29 1_555 1_555
C30 C27 1_555 1_555
C31 C4 1_555 1_555
C32 C31 1_555 1_555
H26 C32 1_555 1_555
C33 C32 1_555 1_555
H27 C33 1_555 1_555
C34 C33 1_555 1_555
C35 C34 1_555 1_555
H28 C35 1_555 1_555
C36 C31 1_555 1_555
H29 C36 1_555 1_555
C37 C34 1_555 1_555
C38 C37 1_555 1_555
H30 C38 1_555 1_555
H31 C38 1_555 1_555
H32 C38 1_555 1_555
C39 C37 1_555 1_555
H33 C39 1_555 1_555
H34 C39 1_555 1_555
H35 C39 1_555 1_555
C40 C37 1_555 1_555
H36 C40 1_555 1_555
H37 C40 1_555 1_555
H38 C40 1_555 1_555
C41 C5 1_555 1_555
C42 C41 1_555 1_555
H39 C42 1_555 1_555
C43 C41 1_555 1_555
H40 C43 1_555 1_555
C44 C6 1_555 1_555
C45 C44 1_555 1_555
H41 C45 1_555 1_555
C46 C45 1_555 1_555
H42 C46 1_555 1_555
C47 C46 1_555 1_555
C48 C47 1_555 1_555
H43 C48 1_555 1_555
C49 C44 1_555 1_555
H44 C49 1_555 1_555
C50 C47 1_555 1_555
C51 C50 1_555 1_555
H45 C51 1_555 1_555
H46 C51 1_555 1_555
H47 C51 1_555 1_555
C52 C50 1_555 1_555
H48 C52 1_555 1_555
H49 C52 1_555 1_555
H50 C52 1_555 1_555
C53 C50 1_555 1_555
H51 C53 1_555 1_555
H52 C53 1_555 1_555
H53 C53 1_555 1_555
C54 C42 1_555 1_555
H54 C54 1_555 1_555
C55 C54 1_555 1_555
C56 C43 1_555 1_555
H55 C56 1_555 1_555
C57 C55 1_555 1_555
C58 H56 1_555 1_555
H57 C58 1_555 1_555
H58 C58 1_555 1_555
C59 N1 1_555 1_555
H59 C59 1_555 1_555
H60 C59 1_555 1_555
H61 C59 1_555 1_555
C60 O7 1_555 1_555
H62 C60 1_555 1_555
Mn2 O6 1_555 1_555
O10 Mn2 1_555 1_555
O11 Mn2 1_555 1_555
O12 Mn2 1_555 1_555
H63 O12 1_555 1_555
H64 O12 1_555 1_555
O13 Mn2 1_555 1_555
H65 O13 1_555 1_555
H66 O13 1_555 1_555
N2 C64 1_555 1_555
N3 C61 1_555 1_555
C61 H67 1_555 1_555
H68 C61 1_555 1_555
H69 C61 1_555 1_555
C62 N3 1_555 1_555
H70 C62 1_555 1_555
H71 C62 1_555 1_555
H72 C62 1_555 1_555
C63 O11 1_555 1_555
H73 C63 1_555 1_555
C64 H74 1_555 1_555
H75 C64 1_555 1_555
H76 C64 1_555 1_555
C65 N2 1_555 1_555
H77 C65 1_555 1_555
H78 C65 1_555 1_555
H79 C65 1_555 1_555
C66 O10 1_555 1_555
H80 C66 1_555 1_555
Mn3 O16 1_555 1_555
O14 C90 1_555 1_555
O15 C90 1_555 1_555
O16 C107 1_555 1_555
O17 C107 1_555 1_555
O18 C67 1_555 1_555
O19 Mn2 1_555 1_555
O20 Mn3 1_555 1_555
O21 Mn3 1_555 1_555
O22 Mn3 1_555 1_555
H81 O22 1_555 1_555
H82 O22 1_555 1_555
N4 C124 1_555 1_555
C67 O19 1_555 1_555
C68 C69 1_555 1_555
C69 C70 1_555 1_555
C70 C71 1_555 1_555
C71 C72 1_555 1_555
C72 C73 1_555 1_555
C73 C68 1_555 1_555
C74 C68 1_555 1_555
C75 C74 1_555 1_555
H83 C75 1_555 1_555
C76 C75 1_555 1_555
H84 C76 1_555 1_555
C77 C76 1_555 1_555
C78 C77 1_555 1_555
H85 C78 1_555 1_555
C79 C74 1_555 1_555
H86 C79 1_555 1_555
C80 C77 1_555 1_555
C81 C80 1_555 1_555
H87 C81 1_555 1_555
H88 C81 1_555 1_555
H89 C81 1_555 1_555
C82 C80 1_555 1_555
H90 C82 1_555 1_555
H91 C82 1_555 1_555
H92 C82 1_555 1_555
C83 C80 1_555 1_555
H93 C83 1_555 1_555
H94 C83 1_555 1_555
H95 C83 1_555 1_555
C84 C69 1_555 1_555
C85 C84 1_555 1_555
H96 C85 1_555 1_555
C86 C85 1_555 1_555
H97 C86 1_555 1_555
C87 C86 1_555 1_555
C88 C87 1_555 1_555
H98 C88 1_555 1_555
C89 C84 1_555 1_555
H99 C89 1_555 1_555
C90 C87 1_555 1_555
C91 C70 1_555 1_555
C92 C91 1_555 1_555
H100 C92 1_555 1_555
C93 C92 1_555 1_555
H101 C93 1_555 1_555
C94 C93 1_555 1_555
C95 C94 1_555 1_555
H102 C95 1_555 1_555
C96 C91 1_555 1_555
H103 C96 1_555 1_555
C97 C94 1_555 1_555
C98 C97 1_555 1_555
H104 C98 1_555 1_555
H105 C98 1_555 1_555
H106 C98 1_555 1_555
C99 C97 1_555 1_555
H107 C99 1_555 1_555
H108 C99 1_555 1_555
H109 C99 1_555 1_555
C100 C97 1_555 1_555
H110 C100 1_555 1_555
H111 C100 1_555 1_555
H112 C100 1_555 1_555
C101 C71 1_555 1_555
C102 C101 1_555 1_555
H113 C102 1_555 1_555
C103 C102 1_555 1_555
H114 C103 1_555 1_555
C104 C103 1_555 1_555
C105 C104 1_555 1_555
H115 C105 1_555 1_555
C106 C101 1_555 1_555
H116 C106 1_555 1_555
C107 C104 1_555 1_555
C108 C72 1_555 1_555
C109 C108 1_555 1_555
H117 C109 1_555 1_555
C110 C109 1_555 1_555
H118 C110 1_555 1_555
C111 C110 1_555 1_555
C112 C111 1_555 1_555
H119 C112 1_555 1_555
C113 C108 1_555 1_555
H120 C113 1_555 1_555
C114 H121 1_555 1_555
H122 C114 1_555 1_555
H123 C114 1_555 1_555
C115 H124 1_555 1_555
H125 C115 1_555 1_555
H126 C115 1_555 1_555
C116 C111 1_555 1_555
C117 C116 1_555 1_555
H127 C117 1_555 1_555
H128 C117 1_555 1_555
H129 C117 1_555 1_555
C118 C73 1_555 1_555
C119 C118 1_555 1_555
H130 C119 1_555 1_555
C120 C119 1_555 1_555
H131 C120 1_555 1_555
C121 C67 1_555 1_555
C122 C121 1_555 1_555
H132 C122 1_555 1_555
C123 C118 1_555 1_555
H133 C123 1_555 1_555
C124 H134 1_555 1_555
H135 C124 1_555 1_555
H136 C124 1_555 1_555
C125 N4 1_555 1_555
H137 C125 1_555 1_555
H138 C125 1_555 1_555
H139 C125 1_555 1_555
C126 O20 1_555 1_555
H140 C126 1_555 1_555
Mn1_2 O5 1_555 1_555
O5_2 Mn1 1_555 1_555
Mn3_2 O18 1_555 1_555
O18_2 Mn3 1_555 1_555
N1 C60 1_555 1_555
C10 C13 1_555 1_555
C11 C12 1_555 1_555
C18 C19 1_555 1_555
C28 C29 1_555 1_555
C35 C36 1_555 1_555
C48 C49 1_555 1_555
C55 C56 1_555 1_555
N2 C66 1_555 1_555
N3 C63 1_555 1_555
N4 C126 1_555 1_555
C78 C79 1_555 1_555
C88 C89 1_555 1_555
C95 C96 1_555 1_555
C105 C106 1_555 1_555
C112 C113 1_555 1_555
C114 C116 1_555 1_555
C115 C116 1_555 1_555
C120 C121 1_555 1_555
C122 C123 1_555 1_555

#END
