
#######################################################################
#
#                 Cambridge Crystallographic Data Centre
#                                CCDC 
#
#######################################################################
#
# If this CIF has been generated from an entry in the Cambridge 
# Structural Database, then it will include bibliographic, chemical, 
# crystal, experimental, refinement or atomic coordinate data resulting 
# from the CCDC's data processing and validation procedures.
#
#######################################################################

data_NIJTOQ
_symmetry_cell_setting           triclinic
_symmetry_space_group_name_H-M   'P -1'
_symmetry_Int_Tables_number      2
_space_group_name_Hall           '-P 1'
loop_
_symmetry_equiv_pos_site_id
_symmetry_equiv_pos_as_xyz
1 x,y,z
2 -x,-y,-z
_cell_length_a                   11.756(3)
_cell_length_b                   13.118(4)
_cell_length_c                   13.423(4)
_cell_angle_alpha                115.427(4)
_cell_angle_beta                 114.148(4)
_cell_angle_gamma                91.275(4)
_cell_volume                     1656
loop_
_atom_site_label
_atom_site_type_symbol
_atom_site_fract_x
_atom_site_fract_y
_atom_site_fract_z
Eu1 Eu 0.60712(3) 0.65581(3) 0.05742(3)
I1 I 0.99961(11) 0.87778(9) 0.06469(10)
I2 I 0.55614(7) 0.83636(7) 0.41787(7)
I3 I 0.92169(8) 0.40631(8) 0.18843(10)
O1 O 0.8298(5) 0.7585(5) 0.1326(6)
O2 O 0.7168(5) 0.8603(5) 0.2168(6)
O3 O 0.4590(5) 0.6723(4) 0.1371(5)
O4 O 0.3209(5) 0.5026(4) 0.0489(5)
O5 O 0.5821(5) 0.4861(4) 0.1146(5)
O6 O 0.7503(6) 0.6335(5) 0.2412(6)
N1 N 0.4626(6) 0.7872(5) -0.0170(6)
N2 N 0.6191(6) 0.6896(5) -0.1182(6)
C1 C 0.8168(7) 0.8528(7) 0.2043(7)
C2 C 0.9235(8) 0.9608(7) 0.2767(8)
C3 C 0.9339(8) 1.0442(7) 0.3919(9)
H1 H 0.8767 1.0312 0.4192
C4 C 1.0316(11) 1.1473(9) 0.4651(12)
H2 H 1.0420 1.1999 0.5435
C5 C 1.1095(10) 1.1712(10) 0.4246(14)
H3 H 1.1709 1.2415 0.4729
C6 C 1.0993(10) 1.0920(10) 0.3111(13)
H4 H 1.1541 1.1085 0.2831
C7 C 1.0057(8) 0.9862(8) 0.2378(10)
C8 C 0.3649(7) 0.6094(7) 0.1238(7)
C9 C 0.2981(7) 0.6673(6) 0.1987(8)
C10 C 0.1654(8) 0.6230(8) 0.1457(9)
H5 H 0.1239 0.5571 0.0679
C11 C 0.0953(9) 0.6745(9) 0.2061(11)
H6 H 0.0072 0.6447 0.1683
C12 C 0.1556(11) 0.7699(10) 0.3217(11)
H7 H 0.1082 0.8042 0.3627
C13 C 0.2820(10) 0.8142(10) 0.3764(10)
H8 H 0.3213 0.8790 0.4552
C14 C 0.3557(8) 0.7654(7) 0.3179(8)
C15 C 0.6876(8) 0.5376(7) 0.2117(7)
C16 C 0.7351(9) 0.4838(7) 0.2972(8)
C17 C 0.6781(11) 0.4905(8) 0.3711(9)
H9 H 0.6122 0.5287 0.3690
C18 C 0.7182(15) 0.4410(11) 0.4475(11)
H10 H 0.6787 0.4459 0.4964
C19 C 0.8123(15) 0.3866(12) 0.4528(13)
H11 H 0.8381 0.3548 0.5063
C20 C 0.8728(13) 0.3757(11) 0.3814(12)
H12 H 0.9383 0.3366 0.3863
C21 C 0.8343(10) 0.4251(9) 0.2994(10)
C22 C 0.3873(8) 0.8344(7) 0.0292(9)
H13 H 0.3847 0.8212 0.0911
C23 C 0.3096(8) 0.9042(8) -0.0086(10)
H14 H 0.2571 0.9352 0.0273
C24 C 0.3124(9) 0.9254(8) -0.0976(10)
H15 H 0.2613 0.9709 -0.1237
C25 C 0.3932(8) 0.8782(7) -0.1513(9)
C26 C 0.4054(11) 0.8991(9) -0.2429(10)
H16 H 0.3579 0.9459 -0.2702
C27 C 0.4843(10) 0.8525(9) -0.2907(9)
H17 H 0.4906 0.8684 -0.3497
C28 C 0.5583(9) 0.7791(8) -0.2524(9)
C29 C 0.6407(11) 0.7269(9) -0.2991(10)
H18 H 0.6468 0.7373 -0.3612
C30 C 0.7109(10) 0.6623(9) -0.2560(9)
H19 H 0.7670 0.6294 -0.2861
C31 C 0.6980(9) 0.6456(9) -0.1652(9)
H20 H 0.7473 0.6010 -0.1354
C32 C 0.5509(7) 0.7566(6) -0.1598(7)
C33 C 0.4665(7) 0.8074(6) -0.1083(8)
Eu1A Eu 0.39288(3) 0.34419(3) -0.05742(3)
O4A O 0.6791(5) 0.4974(4) -0.0489(5)
O5A O 0.4179(5) 0.5139(4) -0.1146(5)
loop_
_geom_bond_atom_site_label_1
_geom_bond_atom_site_label_2
_geom_bond_site_symmetry_1
_geom_bond_site_symmetry_2
Eu1 O1 1_555 1_555
I1 C7 1_555 1_555
I2 C14 1_555 1_555
I3 C21 1_555 1_555
O1 C1 1_555 1_555
O2 Eu1 1_555 1_555
O3 Eu1 1_555 1_555
O4 C8 1_555 1_555
O5 Eu1 1_555 1_555
O6 Eu1 1_555 1_555
N1 Eu1 1_555 1_555
N2 Eu1 1_555 1_555
C1 O2 1_555 1_555
C2 C1 1_555 1_555
C3 C2 1_555 1_555
H1 C3 1_555 1_555
C4 C3 1_555 1_555
H2 C4 1_555 1_555
C5 C4 1_555 1_555
H3 C5 1_555 1_555
C6 C5 1_555 1_555
H4 C6 1_555 1_555
C7 C2 1_555 1_555
C8 O3 1_555 1_555
C9 C8 1_555 1_555
C10 C9 1_555 1_555
H5 C10 1_555 1_555
C11 C10 1_555 1_555
H6 C11 1_555 1_555
C12 C11 1_555 1_555
H7 C12 1_555 1_555
C13 C12 1_555 1_555
H8 C13 1_555 1_555
C14 C9 1_555 1_555
C15 O5 1_555 1_555
C16 C15 1_555 1_555
C17 C16 1_555 1_555
H9 C17 1_555 1_555
C18 C17 1_555 1_555
H10 C18 1_555 1_555
C19 C18 1_555 1_555
H11 C19 1_555 1_555
C20 C19 1_555 1_555
H12 C20 1_555 1_555
C21 C16 1_555 1_555
C22 N1 1_555 1_555
H13 C22 1_555 1_555
C23 C22 1_555 1_555
H14 C23 1_555 1_555
C24 C23 1_555 1_555
H15 C24 1_555 1_555
C25 C24 1_555 1_555
C26 C25 1_555 1_555
H16 C26 1_555 1_555
C27 C26 1_555 1_555
H17 C27 1_555 1_555
C28 C27 1_555 1_555
C29 C28 1_555 1_555
H18 C29 1_555 1_555
C30 C29 1_555 1_555
H19 C30 1_555 1_555
C31 N2 1_555 1_555
H20 C31 1_555 1_555
C32 N2 1_555 1_555
C33 N1 1_555 1_555
Eu1A O4 1_555 1_555
O4A Eu1 1_555 1_555
O5A Eu1 1_555 1_555
O5 Eu1A 1_555 1_555
O6 C15 1_555 1_555
C6 C7 1_555 1_555
C13 C14 1_555 1_555
C20 C21 1_555 1_555
C25 C33 1_555 1_555
C28 C32 1_555 1_555
C30 C31 1_555 1_555
C32 C33 1_555 1_555
Eu1A O5A 1_555 1_555

#END
