
#######################################################################
#
#                 Cambridge Crystallographic Data Centre
#                                CCDC 
#
#######################################################################
#
# If this CIF has been generated from an entry in the Cambridge 
# Structural Database, then it will include bibliographic, chemical, 
# crystal, experimental, refinement or atomic coordinate data resulting 
# from the CCDC's data processing and validation procedures.
#
#######################################################################

data_NIJTUX
_symmetry_cell_setting           monoclinic
_symmetry_space_group_name_H-M   'P c'
_symmetry_Int_Tables_number      7
_space_group_name_Hall           'P -2yc'
loop_
_symmetry_equiv_pos_site_id
_symmetry_equiv_pos_as_xyz
1 x,y,z
2 x,-y,1/2+z
_cell_length_a                   22.559(2)
_cell_length_b                   9.9836(10)
_cell_length_c                   20.465(2)
_cell_angle_alpha                90
_cell_angle_beta                 103.164(2)
_cell_angle_gamma                90
_cell_volume                     4488.01
loop_
_atom_site_label
_atom_site_type_symbol
_atom_site_fract_x
_atom_site_fract_y
_atom_site_fract_z
Zn1 Zn 0.61897(3) 0.29333(6) 0.74502(3)
Zn2 Zn 0.78868(3) 1.15712(6) 1.56495(3)
Zn3 Zn 0.19709(3) 0.75756(7) 0.89843(3)
Zn4 Zn 0.21464(3) 0.41001(7) 0.93628(3)
S1 S 0.71985(8) 0.76186(18) 0.66422(10)
S2 S 0.45325(7) 0.37748(16) 0.90373(8)
S3 S -0.04373(7) 0.84008(17) 0.90624(10)
O1 O 0.5373(2) 0.2959(4) 0.7616(2)
O2 O 0.5741(2) 0.3534(5) 0.8674(2)
O3 O 0.3525(2) 0.4359(6) 0.9725(2)
O4 O 0.2774(2) 0.3849(5) 0.8857(2)
O5 O 0.6246(2) 0.4668(5) 0.7059(3)
O6 O 0.6986(3) 0.5773(5) 0.7721(3)
O7 O 0.7658(2) 0.9839(4) 0.5953(2)
O8 O 0.7141(3) 0.9270(5) 0.4913(3)
O9 O 0.2035(2) 0.5962(4) 0.95147(19)
O10 O 0.1317(2) 0.8605(5) 0.9217(3)
O11 O 0.0552(3) 0.7985(10) 0.8372(4)
O12 O -0.1291(2) 0.8642(5) 1.0497(2)
O13 O -0.1648(2) 0.8533(6) 0.9405(3)
N1 N 0.6046(2) 0.1845(5) 0.6595(2)
N2 N 0.5561(2) 0.1338(5) 0.5572(2)
N3 N 0.2711(2) 0.2008(5) 0.1129(2)
N4 N 0.2281(2) 0.2867(5) 0.0149(2)
N5 N 0.6904(2) 0.2271(5) 0.8113(2)
N6 N 0.7684(2) 0.2463(4) 0.8959(2)
N7 N 1.0615(2) 0.6370(5) 1.2838(2)
N8 N 1.1396(2) 0.6536(5) 1.3711(2)
N9 N 0.1869(2) 0.7047(5) 0.8021(2)
N10 N 0.1472(2) 0.6583(5) 0.6960(2)
N11 N -0.1437(2) 0.6737(5) 0.2519(2)
N12 N -0.1917(2) 0.7346(5) 0.1509(2)
N13 N 0.26870(19) 0.8785(5) 0.9302(2)
N14 N 0.34411(19) 0.9868(4) 0.99536(19)
N15 N 0.64636(19) 1.2580(4) 1.4085(2)
N16 N 0.7214(2) 1.2474(5) 1.4982(2)
C1 C 0.6387(7) 0.096(2) 0.6337(7)
H1 H 0.6755 0.0605 0.6570
C2 C 0.6120(6) 0.068(2) 0.5700(7)
H2 H 0.6275 0.0155 0.5403
C3 C 0.5598(3) 0.2143(6) 0.6081(3)
H3 H 0.5334 0.2858 0.6082
C4 C 0.5135(3) 0.1375(6) 0.4946(3)
C5 C 0.5074(3) 0.0288(7) 0.4508(3)
H4 H 0.5308 -0.0479 0.4624
C6 C 0.4661(3) 0.0375(7) 0.3898(3)
H5 H 0.4614 -0.0355 0.3608
C7 C 0.4314(3) 0.1511(6) 0.3703(3)
C8 C 0.4380(3) 0.2546(7) 0.4150(3)
H6 H 0.4141 0.3307 0.4035
C9 C 0.4788(3) 0.2506(7) 0.4765(3)
H7 H 0.4829 0.3237 0.5053
C10 C 0.3904(3) 0.1628(6) 0.3034(3)
C11 C 0.3569(3) 0.0543(6) 0.2715(3)
H8 H 0.3616 -0.0287 0.2927
C12 C 0.3169(3) 0.0657(6) 0.2094(3)
H9 H 0.2939 -0.0073 0.1899
C13 C 0.3119(2) 0.1870(6) 0.1774(3)
C14 C 0.3461(3) 0.2968(6) 0.2068(3)
H10 H 0.3431 0.3782 0.1842
C15 C 0.3841(3) 0.2840(6) 0.2693(3)
H11 H 0.4060 0.3580 0.2892
C16 C 0.2221(3) 0.1234(8) 0.0860(3)
H12 H 0.2092 0.0477 0.1053
C17 C 0.1960(3) 0.1765(8) 0.0265(3)
H13 H 0.1613 0.1436 -0.0027
C18 C 0.2736(3) 0.2990(6) 0.0674(3)
H14 H 0.3034 0.3652 0.0728
C19 C 0.7293(3) 0.1218(6) 0.8106(3)
H15 H 0.7229 0.0535 0.7789
C20 C 0.7775(3) 0.1317(6) 0.8621(3)
H16 H 0.8104 0.0733 0.8729
C21 C 0.7157(3) 0.2987(6) 0.8646(3)
H17 H 0.6987 0.3757 0.8784
C22 C 0.8081(2) 0.3008(5) 0.9550(3)
C23 C 0.8429(3) 0.2169(6) 1.0024(3)
H18 H 0.8406 0.1245 0.9964
C24 C 0.8813(3) 0.2708(6) 1.0590(3)
H19 H 0.9037 0.2139 1.0914
C25 C 0.8867(2) 0.4075(5) 1.0679(2)
C26 C 0.8508(3) 0.4903(6) 1.0202(3)
H20 H 0.8531 0.5826 1.0263
C27 C 0.8116(3) 0.4381(6) 0.9635(3)
H21 H 0.7881 0.4947 0.9318
C28 C 0.9316(2) 0.4667(6) 1.1251(3)
C29 C 0.9481(3) 0.4029(6) 1.1873(3)
H22 H 0.9298 0.3218 1.1934
C30 C 0.9905(3) 0.4565(6) 1.2398(3)
H23 H 1.0011 0.4120 1.2807
C31 C 1.0168(2) 0.5755(6) 1.2309(3)
C32 C 1.0021(3) 0.6404(6) 1.1703(3)
H24 H 1.0207 0.7215 1.1648
C33 C 0.9599(3) 0.5857(6) 1.1177(3)
H25 H 0.9504 0.6299 1.0766
C34 C 1.1012(2) 0.5712(6) 1.3326(3)
H26 H 1.1014 0.4788 1.3384
C35 C 1.1223(3) 0.7800(7) 1.3483(4)
H27 H 1.1405 0.8593 1.3665
C36 C 1.0743(3) 0.7703(7) 1.2949(3)
H28 H 1.0537 0.8413 1.2703
C37 C 0.6628(3) 0.5544(7) 0.7158(4)
C38 C 0.6689(3) 0.6407(7) 0.6602(4)
C39 C 0.6363(3) 0.6223(7) 0.5954(4)
H29 H 0.6057 0.5586 0.5831
C40 C 0.6544(4) 0.7114(8) 0.5491(4)
H30 H 0.6374 0.7135 0.5032
C41 C 0.7011(3) 0.7947(7) 0.5824(4)
C42 C 0.7279(3) 0.9082(7) 0.5523(4)
C43 C 0.5324(3) 0.3289(6) 0.8201(3)
C44 C 0.4679(3) 0.3395(6) 0.8273(3)
C45 C 0.4165(3) 0.3254(6) 0.7797(3)
H31 H 0.4162 0.3053 0.7353
C46 C 0.3631(3) 0.3440(7) 0.8032(3)
H32 H 0.3239 0.3365 0.7765
C47 C 0.3760(3) 0.3744(6) 0.8701(3)
C48 C 0.3330(3) 0.4017(6) 0.9138(3)
C49 C 0.0763(3) 0.8354(8) 0.8953(5)
C50 C 0.0340(3) 0.8560(6) 0.9404(4)
C51 C 0.0458(3) 0.8791(7) 1.0077(4)
H33 H 0.0848 0.8904 1.0343
C52 C -0.0064(4) 0.8842(7) 1.0322(4)
H34 H -0.0065 0.8999 1.0769
C53 C -0.0584(3) 0.8633(6) 0.9825(4)
C54 C -0.1242(3) 0.8592(6) 0.9911(3)
C55 C 0.2243(3) 0.6168(8) 0.7795(3)
H35 H 0.2602 0.5814 0.8053
C56 C 0.2013(3) 0.5894(8) 0.7144(3)
H36 H 0.2186 0.5345 0.6871
C57 C 0.1405(3) 0.7266(6) 0.7500(3)
H37 H 0.1077 0.7823 0.7510
C58 C 0.1065(3) 0.6584(6) 0.6312(3)
C59 C 0.1053(3) 0.5487(7) 0.5890(3)
H38 H 0.1298 0.4745 0.6028
C60 C 0.0661(3) 0.5527(6) 0.5249(3)
H39 H 0.0657 0.4810 0.4958
C61 C 0.0286(3) 0.6593(6) 0.5043(3)
C62 C 0.0297(3) 0.7661(6) 0.5481(3)
H40 H 0.0040 0.8388 0.5349
C63 C 0.0683(3) 0.7660(6) 0.6105(3)
H41 H 0.0688 0.8387 0.6390
C64 C -0.0161(2) 0.6620(6) 0.4376(2)
C65 C -0.0465(3) 0.5476(6) 0.4106(3)
H42 H -0.0388 0.4669 0.4336
C66 C -0.0884(3) 0.5521(6) 0.3495(3)
H43 H -0.1086 0.4744 0.3319
C67 C -0.1002(2) 0.6691(6) 0.3153(2)
C68 C -0.0703(3) 0.7845(6) 0.3405(3)
H44 H -0.0783 0.8643 0.3167
C69 C -0.0281(3) 0.7820(6) 0.4015(3)
H45 H -0.0078 0.8600 0.4184
C70 C -0.1961(4) 0.5995(9) 0.2357(3)
H46 H -0.2092 0.5350 0.2620
C71 C -0.2246(3) 0.6389(9) 0.1742(3)
H47 H -0.2618 0.6055 0.1506
C72 C -0.1438(3) 0.7522(6) 0.1991(3)
H48 H -0.1129 0.8128 0.1971
C73 C 0.2812(3) 0.9912(7) 0.8984(3)
H49 H 0.2605 1.0182 0.8557
C74 C 0.3072(3) 0.8803(7) 0.9884(3)
H50 H 0.3087 0.8152 1.0212
C75 C 0.3268(4) 1.0564(7) 0.9368(3)
H51 H 0.3441 1.1356 0.9260
C76 C 0.3905(2) 1.0223(6) 1.0538(3)
C77 C 0.4101(3) 0.9339(6) 1.1053(3)
H52 H 0.3941 0.8476 1.1026
C78 C 0.4535(3) 0.9725(6) 1.1610(3)
H53 H 0.4658 0.9112 1.1956
C79 C 0.4792(2) 1.0977(6) 1.1673(3)
C80 C 0.4596(3) 1.1859(6) 1.1149(3)
H54 H 0.4760 1.2718 1.1176
C81 C 0.4158(3) 1.1488(7) 1.0578(3)
H55 H 0.4037 1.2091 1.0226
C82 C 0.5231(2) 1.1384(5) 1.2293(3)
C83 C 0.5569(3) 1.0458(6) 1.2729(3)
H56 H 0.5523 0.9551 1.2627
C84 C 0.5977(3) 1.0853(6) 1.3315(3)
H57 H 0.6200 1.0213 1.3599
C85 C 0.6048(2) 1.2185(5) 1.3473(2)
C86 C 0.5727(3) 1.3129(6) 1.3058(3)
H58 H 0.5781 1.4033 1.3166
C87 C 0.5321(3) 1.2738(6) 1.2475(3)
H59 H 0.5102 1.3389 1.2196
C88 C 0.6954(3) 1.1889(6) 1.4406(3)
H60 H 0.7092 1.1104 1.4246
C89 C 0.6880(3) 1.3610(6) 1.5017(3)
H61 H 0.6960 1.4227 1.5366
C90 C 0.6420(3) 1.3696(6) 1.4469(3)
H62 H 0.6131 1.4373 1.4369
Zn2_2 Zn 0.78868(3) 1.15712(6) 0.56495(3)
Zn2A Zn -0.21132(3) 0.84288(6) 0.06495(3)
Zn2A_2 Zn -0.21132(3) 0.84288(6) 1.06495(3)
Zn4_2 Zn 0.21464(3) 0.41001(7) -0.06372(3)
Zn4A Zn 1.21464(3) 0.58999(7) 1.43628(3)
O7_2 O 0.7658(2) 0.9839(4) 1.5953(2)
O12A O 0.8709(2) 1.1358(5) 1.5497(2)
N4_2 N 0.2281(2) 0.2867(5) 1.0149(2)
N8A N 0.1396(2) 0.3464(5) 0.8711(2)
N12A N 0.8083(2) 1.2654(5) 1.6509(2)
O14 O 0.8114(3) 0.7387(8) 0.8143(4)
H65 H 0.7759 0.7602 0.7990
H66 H 0.8256 0.7599 0.8535
O15 O 0.8592(3) 0.9164(8) 0.7213(4)
H67 H 0.8282 0.8895 0.7318
H68 H 0.8428 0.9540 0.6862
O16 O 0.9837(4) 0.9679(9) 0.7230(5)
H69 H 0.9820 0.9302 0.7582
H70 H 0.9542 0.9617 0.6912
O17 O 0.3646(5) 0.4072(8) 0.5870(5)
O18 O 0.4829(5) 0.4667(10) 0.6285(6)
O19 O 0.2420(5) 0.3894(10) 0.5961(4)
H71 H 0.2722 0.4275 0.6167
C93 C 0.2330(8) 0.2728(13) 0.6279(7)
H72 H 0.1911 0.2468 0.6143
H73 H 0.2436 0.2865 0.6756
H74 H 0.2582 0.2035 0.6162
O21 O 0.1532(8) 0.953(2) 0.1988(9)
C91? C 0.6177(10) 0.0550(15) 0.6476(8)
H63? H 0.6418 -0.0021 0.6785
C92? C 0.5905(10) 0.0222(16) 0.5844(7)
H64? H 0.5938 -0.0586 0.5629
O20? O 0.2768(8) 0.2337(15) 0.6544(8)
H75? H 0.2732 0.2349 0.6911
C94? C 0.2254(8) 0.286(2) 0.6098(9)
H76? H 0.1914 0.2267 0.6080
H77? H 0.2335 0.2933 0.5659
H78? H 0.2160 0.3724 0.6250
loop_
_geom_bond_atom_site_label_1
_geom_bond_atom_site_label_2
_geom_bond_site_symmetry_1
_geom_bond_site_symmetry_2
Zn1 O1 1_555 1_555
Zn2 N16 1_555 1_555
Zn3 O9 1_555 1_555
Zn4 O4 1_555 1_555
S1 C38 1_555 1_555
S2 C44 1_555 1_555
S3 C50 1_555 1_555
O1 C43 1_555 1_555
O2 C43 1_555 1_555
O3 C48 1_555 1_555
O4 C48 1_555 1_555
O5 Zn1 1_555 1_555
O6 C37 1_555 1_555
O7 C42 1_555 1_555
O8 C42 1_555 1_555
O9 Zn4 1_555 1_555
O10 Zn3 1_555 1_555
O11 C49 1_555 1_555
O12 C54 1_555 1_555
O13 C54 1_555 1_555
N1 Zn1 1_555 1_555
N2 C2 1_555 1_555
N3 C13 1_555 1_555
N4 C17 1_555 1_555
N5 Zn1 1_555 1_555
N6 C20 1_555 1_555
N7 C31 1_555 1_555
N8 C34 1_555 1_555
N9 Zn3 1_555 1_555
N10 C56 1_555 1_555
N11 C67 1_555 1_555
N12 C71 1_555 1_555
N13 Zn3 1_555 1_555
N14 C74 1_555 1_555
N15 C85 1_555 1_555
N16 C88 1_555 1_555
C1 N1 1_555 1_555
H1 C1 1_555 1_555
C2 C1 1_555 1_555
H2 C2 1_555 1_555
C3 N1 1_555 1_555
H3 C3 1_555 1_555
C4 N2 1_555 1_555
C5 C4 1_555 1_555
H4 C5 1_555 1_555
C6 C5 1_555 1_555
H5 C6 1_555 1_555
C7 C6 1_555 1_555
C8 C7 1_555 1_555
H6 C8 1_555 1_555
C9 C4 1_555 1_555
H7 C9 1_555 1_555
C10 C7 1_555 1_555
C11 C10 1_555 1_555
H8 C11 1_555 1_555
C12 C11 1_555 1_555
H9 C12 1_555 1_555
C13 C12 1_555 1_555
C14 C13 1_555 1_555
H10 C14 1_555 1_555
C15 C10 1_555 1_555
H11 C15 1_555 1_555
C16 N3 1_555 1_555
H12 C16 1_555 1_555
C17 C16 1_555 1_555
H13 C17 1_555 1_555
C18 N3 1_555 1_555
H14 C18 1_555 1_555
C19 N5 1_555 1_555
H15 C19 1_555 1_555
C20 C19 1_555 1_555
H16 C20 1_555 1_555
C21 N5 1_555 1_555
H17 C21 1_555 1_555
C22 N6 1_555 1_555
C23 C22 1_555 1_555
H18 C23 1_555 1_555
C24 C23 1_555 1_555
H19 C24 1_555 1_555
C25 C24 1_555 1_555
C26 C25 1_555 1_555
H20 C26 1_555 1_555
C27 C22 1_555 1_555
H21 C27 1_555 1_555
C28 C25 1_555 1_555
C29 C28 1_555 1_555
H22 C29 1_555 1_555
C30 C29 1_555 1_555
H23 C30 1_555 1_555
C31 C30 1_555 1_555
C32 C31 1_555 1_555
H24 C32 1_555 1_555
C33 C28 1_555 1_555
H25 C33 1_555 1_555
C34 N7 1_555 1_555
H26 C34 1_555 1_555
C35 N8 1_555 1_555
H27 C35 1_555 1_555
C36 N7 1_555 1_555
H28 C36 1_555 1_555
C37 O5 1_555 1_555
C38 C37 1_555 1_555
C39 C38 1_555 1_555
H29 C39 1_555 1_555
C40 C39 1_555 1_555
H30 C40 1_555 1_555
C41 S1 1_555 1_555
C42 C41 1_555 1_555
C43 C44 1_555 1_555
C44 C45 1_555 1_555
C45 H31 1_555 1_555
C46 C45 1_555 1_555
H32 C46 1_555 1_555
C47 S2 1_555 1_555
C48 C47 1_555 1_555
C49 O10 1_555 1_555
C50 C49 1_555 1_555
C51 C50 1_555 1_555
H33 C51 1_555 1_555
C52 C51 1_555 1_555
H34 C52 1_555 1_555
C53 S3 1_555 1_555
C54 C53 1_555 1_555
C55 N9 1_555 1_555
H35 C55 1_555 1_555
C56 C55 1_555 1_555
H36 C56 1_555 1_555
C57 N9 1_555 1_555
H37 C57 1_555 1_555
C58 N10 1_555 1_555
C59 C58 1_555 1_555
H38 C59 1_555 1_555
C60 C59 1_555 1_555
H39 C60 1_555 1_555
C61 C60 1_555 1_555
C62 C61 1_555 1_555
H40 C62 1_555 1_555
C63 C58 1_555 1_555
H41 C63 1_555 1_555
C64 C61 1_555 1_555
C65 C64 1_555 1_555
H42 C65 1_555 1_555
C66 C65 1_555 1_555
H43 C66 1_555 1_555
C67 C66 1_555 1_555
C68 C67 1_555 1_555
H44 C68 1_555 1_555
C69 C64 1_555 1_555
H45 C69 1_555 1_555
C70 N11 1_555 1_555
H46 C70 1_555 1_555
C71 C70 1_555 1_555
H47 C71 1_555 1_555
C72 N11 1_555 1_555
H48 C72 1_555 1_555
C73 N13 1_555 1_555
H49 C73 1_555 1_555
C74 N13 1_555 1_555
H50 C74 1_555 1_555
C75 N14 1_555 1_555
H51 C75 1_555 1_555
C76 N14 1_555 1_555
C77 C76 1_555 1_555
H52 C77 1_555 1_555
C78 C77 1_555 1_555
H53 C78 1_555 1_555
C79 C78 1_555 1_555
C80 C79 1_555 1_555
H54 C80 1_555 1_555
C81 C76 1_555 1_555
H55 C81 1_555 1_555
C82 C79 1_555 1_555
C83 C82 1_555 1_555
H56 C83 1_555 1_555
C84 C83 1_555 1_555
H57 C84 1_555 1_555
C85 C84 1_555 1_555
C86 C85 1_555 1_555
H58 C86 1_555 1_555
C87 C82 1_555 1_555
H59 C87 1_555 1_555
C88 N15 1_555 1_555
H60 C88 1_555 1_555
C89 N16 1_555 1_555
H61 C89 1_555 1_555
C90 N15 1_555 1_555
H62 C90 1_555 1_555
O14 H65 1_555 1_555
H66 O14 1_555 1_555
O15 H67 1_555 1_555
H68 O15 1_555 1_555
O16 H69 1_555 1_555
H70 O16 1_555 1_555
O19 H71 1_555 1_555
C93 O19 1_555 1_555
H72 C93 1_555 1_555
H73 C93 1_555 1_555
H74 C93 1_555 1_555
Zn2_2 O7 1_555 1_555
Zn2A N12 1_555 1_555
Zn2A_2 O12 1_555 1_555
Zn4_2 N4 1_555 1_555
Zn4A N8 1_555 1_555
O7_2 Zn2 1_555 1_555
O12A Zn2 1_555 1_555
N4_2 Zn4 1_555 1_555
N8A Zn4 1_555 1_555
N12A Zn2 1_555 1_555
N2 C3 1_555 1_555
N4 C18 1_555 1_555
N6 C21 1_555 1_555
N10 C57 1_555 1_555
N12 C72 1_555 1_555
C8 C9 1_555 1_555
C14 C15 1_555 1_555
C26 C27 1_555 1_555
C32 C33 1_555 1_555
C35 C36 1_555 1_555
C40 C41 1_555 1_555
C46 C47 1_555 1_555
C52 C53 1_555 1_555
C62 C63 1_555 1_555
C68 C69 1_555 1_555
C73 C75 1_555 1_555
C80 C81 1_555 1_555
C86 C87 1_555 1_555
C89 C90 1_555 1_555

#END
