
#######################################################################
#
#                 Cambridge Crystallographic Data Centre
#                                CCDC 
#
#######################################################################
#
# If this CIF has been generated from an entry in the Cambridge 
# Structural Database, then it will include bibliographic, chemical, 
# crystal, experimental, refinement or atomic coordinate data resulting 
# from the CCDC's data processing and validation procedures.
#
#######################################################################

data_NIJTOP01
_symmetry_cell_setting           triclinic
_symmetry_space_group_name_H-M   'P -1'
_symmetry_Int_Tables_number      2
_space_group_name_Hall           '-P 1'
loop_
_symmetry_equiv_pos_site_id
_symmetry_equiv_pos_as_xyz
1 x,y,z
2 -x,-y,-z
_cell_length_a                   8.722(3)
_cell_length_b                   8.799(3)
_cell_length_c                   12.672(4)
_cell_angle_alpha                81.91(2)
_cell_angle_beta                 86.62(2)
_cell_angle_gamma                79.85(2)
_cell_volume                     947.182
loop_
_atom_site_label
_atom_site_type_symbol
_atom_site_fract_x
_atom_site_fract_y
_atom_site_fract_z
Zn1 Zn 0.0000 0.5000 0.0000
O1 O 0.09971(13) 0.54986(13) 0.13673(9)
H1 H 0.1412 0.6358 0.1335
H2 H 0.0373 0.5596 0.1891
O2 O 0.12011(14) 0.67270(14) -0.09301(10)
H3 H 0.0698 0.7588 -0.1252
H4 H 0.2004 0.6561 -0.1393
N1 N 0.19404(14) 0.32508(14) -0.01851(10)
C1 C 0.33744(18) 0.33778(17) 0.00831(14)
H5 H 0.3528 0.4437 0.0222
C2 C 0.46064(18) 0.21413(18) 0.01479(14)
H6 H 0.5636 0.2377 0.0322
C3 C 0.43701(16) 0.06892(16) -0.00582(12)
C4 C 0.28915(18) 0.05779(18) -0.03636(14)
H7 H 0.2670 -0.0276 -0.0541
C5 C 0.17234(18) 0.18742(18) -0.04198(13)
H8 H 0.0676 0.1814 -0.0593
Zn1_2 Zn 1.0000 -0.5000 0.0000
O1A O -0.09971(13) 0.45014(13) -0.13673(9)
H1A H -0.1412 0.3642 -0.1335
H2A H -0.0373 0.4404 -0.1891
O2A O -0.12011(14) 0.32730(14) 0.09301(10)
H3A H -0.0698 0.2412 0.1252
H4A H -0.2004 0.3439 0.1393
N1A N 0.80596(14) -0.32508(14) 0.01851(10)
N1A_2 N -0.19404(14) 0.67492(14) 0.01851(10)
C1A C 0.66256(18) -0.33778(17) -0.00831(14)
H5A H 0.6472 -0.4437 -0.0222
C2A C 0.53936(18) -0.21413(18) -0.01479(14)
H6A H 0.4364 -0.2377 -0.0322
C3A C 0.56299(16) -0.06892(16) 0.00582(12)
C4A C 0.71085(18) -0.05779(18) 0.03636(14)
H7A H 0.7330 0.0276 0.0541
C5A C 0.82766(18) -0.18742(18) 0.04198(13)
H8A H 0.9324 -0.1814 0.0593
N2 N 0.3781(2) 0.6387(2) 0.76237(13)
N3 N 0.9185(2) 0.5739(2) 0.32220(14)
C6 C 0.4902(2) 0.5158(2) 0.75776(15)
H9 H 0.5034 0.4384 0.8136
C7 C 0.6010(2) 0.5012(2) 0.67538(14)
H10 H 0.6689 0.4081 0.6845
C8 C 0.59590(18) 0.61944(19) 0.58948(13)
C9 C 0.4785(2) 0.7492(2) 0.59365(14)
H11 H 0.4732 0.8407 0.5380
C10 C 0.3746(2) 0.7534(2) 0.68086(16)
H12 H 0.2980 0.8386 0.6855
C11 C 0.8468(2) 0.7133(3) 0.34348(15)
H13 H 0.8618 0.7991 0.3019
C12 C 0.7432(2) 0.7353(2) 0.42973(15)
H14 H 0.7047 0.8389 0.4396
C13 C 0.70979(19) 0.6058(2) 0.49870(13)
C14 C 0.7877(2) 0.4610(2) 0.47747(15)
H15 H 0.7615 0.3772 0.5183
C15 C 0.8904(2) 0.4503(3) 0.39032(17)
H16 H 0.9438 0.3417 0.3689
Cl1 Cl 0.79149(5) 0.79077(5) 0.75179(3)
Cl2 Cl 0.57904(6) 1.08035(6) 0.71564(4)
Cl3 Cl 0.86724(7) 1.03571(7) 0.59193(4)
O3 O 0.80350(19) 1.18677(16) 0.82922(13)
O4 O 0.99682(17) 0.98132(16) 0.82670(13)
C16 C 0.7786(2) 0.99380(19) 0.72058(13)
C17 C 0.8693(2) 1.06120(19) 0.80240(14)
loop_
_geom_bond_atom_site_label_1
_geom_bond_atom_site_label_2
_geom_bond_site_symmetry_1
_geom_bond_site_symmetry_2
Zn1 O1 1_555 1_555
O1 H1 1_555 1_555
H2 O1 1_555 1_555
O2 Zn1 1_555 1_555
H3 O2 1_555 1_555
H4 O2 1_555 1_555
N1 Zn1 1_555 1_555
C1 N1 1_555 1_555
H5 C1 1_555 1_555
C2 C1 1_555 1_555
H6 C2 1_555 1_555
C3 C2 1_555 1_555
C4 C3 1_555 1_555
H7 C4 1_555 1_555
C5 N1 1_555 1_555
H8 C5 1_555 1_555
N2 C6 1_555 1_555
N3 C11 1_555 1_555
C6 H9 1_555 1_555
C7 C6 1_555 1_555
H10 C7 1_555 1_555
C8 C7 1_555 1_555
C9 C8 1_555 1_555
H11 C9 1_555 1_555
C10 N2 1_555 1_555
H12 C10 1_555 1_555
C11 H13 1_555 1_555
C12 C11 1_555 1_555
H14 C12 1_555 1_555
C13 C8 1_555 1_555
C14 C13 1_555 1_555
H15 C14 1_555 1_555
C15 N3 1_555 1_555
H16 C15 1_555 1_555
Cl1 C16 1_555 1_555
Cl2 C16 1_555 1_555
Cl3 C16 1_555 1_555
O3 C17 1_555 1_555
O4 C17 1_555 1_555
C16 C17 1_555 1_555
Zn1_2 N1A 1_555 1_555
O1A Zn1 1_555 1_555
H1A O1A 1_555 1_555
H2A O1A 1_555 1_555
O2A Zn1 1_555 1_555
H3A O2A 1_555 1_555
H4A O2A 1_555 1_555
N1A C1A 1_555 1_555
N1A_2 Zn1 1_555 1_555
C1A H5A 1_555 1_555
C2A C1A 1_555 1_555
H6A C2A 1_555 1_555
C3A C3 1_555 1_555
C4A C3A 1_555 1_555
H7A C4A 1_555 1_555
C5A N1A 1_555 1_555
H8A C5A 1_555 1_555
C4 C5 1_555 1_555
C9 C10 1_555 1_555
C12 C13 1_555 1_555
C14 C15 1_555 1_555
C2A C3A 1_555 1_555
C4A C5A 1_555 1_555

#END
