
#######################################################################
#
#                 Cambridge Crystallographic Data Centre
#                                CCDC 
#
#######################################################################
#
# If this CIF has been generated from an entry in the Cambridge 
# Structural Database, then it will include bibliographic, chemical, 
# crystal, experimental, refinement or atomic coordinate data resulting 
# from the CCDC's data processing and validation procedures.
#
#######################################################################

data_NIJTIK
_symmetry_cell_setting           monoclinic
_symmetry_space_group_name_H-M   'P 21/n'
_symmetry_Int_Tables_number      14
_space_group_name_Hall           '-P 2yn'
loop_
_symmetry_equiv_pos_site_id
_symmetry_equiv_pos_as_xyz
1 x,y,z
2 1/2-x,1/2+y,1/2-z
3 -x,-y,-z
4 1/2+x,1/2-y,1/2+z
_cell_length_a                   12.945(4)
_cell_length_b                   6.984(2)
_cell_length_c                   26.428(9)
_cell_angle_alpha                90
_cell_angle_beta                 101.372(6)
_cell_angle_gamma                90
_cell_volume                     2342.39
loop_
_atom_site_label
_atom_site_type_symbol
_atom_site_fract_x
_atom_site_fract_y
_atom_site_fract_z
Eu1 Eu 0.27010(5) 0.61767(9) 0.29649(2)
I1 I 0.62665(12) 0.9841(2) 0.37031(6)
I2 I 0.02814(11) 0.6842(2) 0.43984(5)
I3 I 0.49615(10) 0.6612(2) 0.15430(5)
O1 O 0.4412(7) 0.7707(13) 0.2976(4)
O2 O 0.4433(7) 0.4563(13) 0.2984(4)
O3 O 0.3540(9) 0.621(2) 0.3856(4)
O4 O 0.1824(8) 0.6310(16) 0.3678(4)
O5 O 0.2659(8) 0.7759(12) 0.2067(3)
O6 O 0.2645(7) 0.4599(12) 0.2055(3)
O7 O 0.0858(7) 0.6167(12) 0.2522(4)
H1 H 0.0703 0.6172 0.2195
H2 H 0.0371 0.6163 0.2696
C1 C 0.4916(10) 0.615(2) 0.3008(5)
C2 C 0.6075(10) 0.6147(19) 0.3056(5)
C3 C 0.6519(14) 0.463(2) 0.2838(6)
H3 H 0.6088 0.3672 0.2666
C4 C 0.7633(13) 0.452(3) 0.2874(7)
H4 H 0.7924 0.3519 0.2719
C5 C 0.8266(15) 0.589(3) 0.3136(8)
H5 H 0.8991 0.5838 0.3156
C6 C 0.7824(14) 0.736(3) 0.3373(7)
H6 H 0.8260 0.8266 0.3564
C7 C 0.6763(12) 0.749(2) 0.3332(6)
C8 C 0.2677(11) 0.6292(19) 0.4005(5)
C9 C 0.2652(12) 0.632(2) 0.4566(6)
C10 C 0.3805(14) 0.619(2) 0.4950(7)
H7 H 0.4435 0.6256 0.4831
C11 C 0.3766(16) 0.600(3) 0.5425(7)
H8 H 0.4401 0.5786 0.5652
C12 C 0.286(2) 0.608(3) 0.5639(7)
H9 H 0.2905 0.5927 0.5992
C13 C 0.1943(16) 0.638(2) 0.5337(6)
H10 H 0.1353 0.6535 0.5484
C14 C 0.1818(15) 0.648(2) 0.4794(6)
C15 C 0.2648(9) 0.6192(17) 0.1818(4)
C16 C 0.2612(11) 0.6228(17) 0.1251(5)
C17 C 0.1629(16) 0.608(3) 0.0902(7)
H11 H 0.1005 0.5906 0.1020
C18 C 0.163(2) 0.621(3) 0.0395(7)
H12 H 0.0988 0.6122 0.0169
C19 C 0.2506(17) 0.645(2) 0.0181(6)
H13 H 0.2453 0.6504 -0.0174
C20 C 0.3467(17) 0.660(2) 0.0514(7)
H14 H 0.4079 0.6783 0.0385
C21 C 0.3518(13) 0.647(2) 0.1060(6)
Eu1A Eu 0.22990(5) 1.11767(9) 0.20351(2)
Eu1A_2 Eu 0.22990(5) 0.11767(9) 0.20351(2)
O5A O 0.2341(8) 0.2759(12) 0.2933(3)
O6A O 0.2355(7) 0.9599(12) 0.2945(3)
loop_
_geom_bond_atom_site_label_1
_geom_bond_atom_site_label_2
_geom_bond_site_symmetry_1
_geom_bond_site_symmetry_2
Eu1 O1 1_555 1_555
I1 C7 1_555 1_555
I2 C14 1_555 1_555
I3 C21 1_555 1_555
O1 C1 1_555 1_555
O2 Eu1 1_555 1_555
O3 Eu1 1_555 1_555
O4 Eu1 1_555 1_555
O5 Eu1 1_555 1_555
O6 Eu1 1_555 1_555
O7 Eu1 1_555 1_555
H1 O7 1_555 1_555
H2 O7 1_555 1_555
C1 O2 1_555 1_555
C2 C1 1_555 1_555
C3 C2 1_555 1_555
H3 C3 1_555 1_555
C4 C3 1_555 1_555
H4 C4 1_555 1_555
C5 C4 1_555 1_555
H5 C5 1_555 1_555
C6 C5 1_555 1_555
H6 C6 1_555 1_555
C7 C2 1_555 1_555
C8 O3 1_555 1_555
C9 C8 1_555 1_555
C10 C9 1_555 1_555
H7 C10 1_555 1_555
C11 C10 1_555 1_555
H8 C11 1_555 1_555
C12 C11 1_555 1_555
H9 C12 1_555 1_555
C13 C12 1_555 1_555
H10 C13 1_555 1_555
C14 C9 1_555 1_555
C15 O5 1_555 1_555
C16 C15 1_555 1_555
C17 C16 1_555 1_555
H11 C17 1_555 1_555
C18 C17 1_555 1_555
H12 C18 1_555 1_555
C19 C18 1_555 1_555
H13 C19 1_555 1_555
C20 C19 1_555 1_555
H14 C20 1_555 1_555
C21 C16 1_555 1_555
Eu1A O5 1_555 1_555
Eu1A_2 O6 1_555 1_555
O5A Eu1 1_555 1_555
O6A Eu1 1_555 1_555
O4 C8 1_555 1_555
O6 C15 1_555 1_555
C6 C7 1_555 1_555
C13 C14 1_555 1_555
C20 C21 1_555 1_555
Eu1A O6A 1_555 1_555
Eu1A_2 O5A 1_555 1_555

#END
