
#######################################################################
#
#                 Cambridge Crystallographic Data Centre
#                                CCDC 
#
#######################################################################
#
# If this CIF has been generated from an entry in the Cambridge 
# Structural Database, then it will include bibliographic, chemical, 
# crystal, experimental, refinement or atomic coordinate data resulting 
# from the CCDC's data processing and validation procedures.
#
#######################################################################

data_NIJTIL01
_symmetry_cell_setting           triclinic
_symmetry_space_group_name_H-M   'P -1'
_symmetry_Int_Tables_number      2
_space_group_name_Hall           '-P 1'
loop_
_symmetry_equiv_pos_site_id
_symmetry_equiv_pos_as_xyz
1 x,y,z
2 -x,-y,-z
_cell_length_a                   9.4034(5)
_cell_length_b                   12.2446(11)
_cell_length_c                   18.7067(12)
_cell_angle_alpha                71.027(7)
_cell_angle_beta                 76.122(5)
_cell_angle_gamma                69.903(6)
_cell_volume                     1892.85
loop_
_atom_site_label
_atom_site_type_symbol
_atom_site_fract_x
_atom_site_fract_y
_atom_site_fract_z
Zn1 Zn 0.55818(5) 0.78535(4) 0.36770(2)
Zn2 Zn -0.50202(4) 1.16924(4) 0.14506(2)
S1 S -0.99728(11) 1.50313(10) 0.25196(5)
S2 S 0.03852(11) 1.05838(11) 0.24957(6)
C1 C -0.7467(4) 1.3216(4) 0.2098(2)
C2 C -0.8370(4) 1.3847(4) 0.2693(2)
C3 C -0.8080(5) 1.3625(4) 0.3424(2)
H1 H -0.7260 1.3006 0.3627
C4 C -0.9115(4) 1.4405(4) 0.3824(2)
H2 H -0.9065 1.4371 0.4322
C5 C -1.0228(4) 1.5239(4) 0.3407(2)
C6 C -1.1540(4) 1.6167(4) 0.3682(2)
C7 C -0.2283(4) 1.0933(4) 0.1968(2)
C8 C -0.0892(4) 1.0051(4) 0.2290(2)
C9 C -0.0403(5) 0.8842(4) 0.2422(2)
H3 H -0.0948 0.8396 0.2342
C10 C 0.1018(5) 0.8324(4) 0.2695(3)
H4 H 0.1511 0.7500 0.2818
C11 C 0.1584(4) 0.9160(4) 0.2757(2)
C12 C 0.3027(4) 0.8998(5) 0.3041(2)
C13 C -0.5442(4) 1.3592(4) -0.0042(2)
H5 H -0.6486 1.3679 0.0044
C14 C -0.3082(5) 1.3018(4) 0.0100(2)
H6 H -0.2177 1.2621 0.0308
C15 C -0.3206(5) 1.3815(4) -0.0586(2)
H7 H -0.2420 1.4072 -0.0934
C16 C -0.5432(5) 1.5036(4) -0.1333(2)
H8 H -0.5161 1.5778 -0.1452
H9 H -0.6536 1.5224 -0.1202
C17 C -0.4951(6) 1.4564(4) -0.2022(2)
H10 H -0.5285 1.3853 -0.1914
H11 H -0.3843 1.4324 -0.2132
C18 C -0.5601(5) 1.5485(4) -0.2722(2)
H12 H -0.6710 1.5728 -0.2618
H13 H -0.5260 1.6195 -0.2840
C19 C -0.5086(6) 1.4958(4) -0.3382(2)
H14 H -0.3979 1.4644 -0.3445
H15 H -0.5496 1.4284 -0.3269
C20 C -0.4576(5) 1.6186(4) -0.4715(2)
H16 H -0.3522 1.5975 -0.4728
C21 C -0.6964(5) 1.6288(5) -0.4302(3)
H17 H -0.7870 1.6182 -0.3996
C22 C -0.6804(5) 1.6953(4) -0.5033(2)
H18 H -0.7602 1.7388 -0.5318
C23 C -0.6994(4) 1.1127(4) 0.0665(2)
H19 H -0.7535 1.1937 0.0503
C24 C -0.5448(4) 0.9491(4) 0.1221(2)
H20 H -0.4704 0.8952 0.1518
C25 C -0.6186(5) 0.9190(4) 0.0817(2)
H21 H -0.6058 0.8419 0.0785
C26 C -0.8158(5) 1.0417(5) -0.0091(2)
H22 H -0.7566 1.0001 -0.0476
H23 H -0.8516 1.1269 -0.0345
C27 C -0.9533(4) 0.9943(4) 0.0289(2)
H24 H -0.9181 0.9102 0.0567
H25 H -1.0163 1.0393 0.0651
C28 C 0.7074(5) 0.8828(4) 0.4419(2)
H26 H 0.7607 0.8045 0.4654
C29 C 0.5620(4) 1.0341(4) 0.3711(2)
H27 H 0.4938 1.0805 0.3364
C30 C 0.6253(5) 1.0776(4) 0.4088(3)
H28 H 0.6103 1.1584 0.4046
C31 C 0.8047(5) 0.9808(5) 0.5083(3)
H29 H 0.8240 0.9032 0.5460
H30 H 0.7458 1.0420 0.5349
C32 C 0.9521(5) 1.0044(5) 0.4702(3)
H31 H 0.9333 1.0844 0.4350
H32 H 1.0089 0.9463 0.4411
O1 O -0.6180(3) 1.2470(3) 0.22542(15)
O2 O -0.7970(3) 1.3467(3) 0.14915(16)
O3 O -1.2570(3) 1.6749(3) 0.32431(16)
O4 O -1.1596(3) 1.6299(3) 0.43120(17)
O5 O -0.3183(3) 1.0482(3) 0.18307(15)
O6 O -0.2469(3) 1.2034(3) 0.18395(17)
O7 O 0.3156(4) 0.9836(4) 0.3205(3)
O8 O 0.4015(3) 0.7979(3) 0.31090(17)
N1 N -0.4498(3) 1.2873(3) 0.04501(17)
N2 N -0.4726(4) 1.4180(3) -0.06747(18)
N3 N -0.5308(4) 1.6897(3) -0.52926(17)
N4 N -0.5542(4) 1.5808(3) -0.41063(18)
N5 N -0.5950(3) 1.0707(3) 0.11288(17)
N6 N -0.7170(4) 1.0249(3) 0.04589(18)
N7 N 0.6132(3) 0.9110(3) 0.39167(17)
N8 N 0.7152(4) 0.9811(4) 0.4541(2)
C23A C -1.3006(4) 0.8873(4) -0.0665(2)
H19A H -1.2465 0.8063 -0.0503
C24A C -1.4552(4) 1.0509(4) -0.1221(2)
H20A H -1.5296 1.1048 -0.1518
C25A C -1.3814(5) 1.0810(4) -0.0817(2)
H21A H -1.3942 1.1581 -0.0785
C26A C -1.1842(5) 0.9583(5) 0.0091(2)
H22A H -1.2434 0.9999 0.0476
H23A H -1.1484 0.8731 0.0345
C27A C -1.0467(4) 1.0057(4) -0.0289(2)
H24A H -1.0819 1.0898 -0.0567
H25A H -0.9837 0.9607 -0.0651
N5A N -1.4050(3) 0.9293(3) -0.11288(17)
N6A N -1.2830(4) 0.9751(3) -0.04589(18)
C28A C 1.2926(5) 1.1172(4) 0.5581(2)
H26A H 1.2393 1.1955 0.5346
C29A C 1.4380(4) 0.9659(4) 0.6289(2)
H27A H 1.5062 0.9195 0.6636
C30A C 1.3747(5) 0.9224(4) 0.5912(3)
H28A H 1.3897 0.8416 0.5954
C31A C 1.1953(5) 1.0192(5) 0.4917(3)
H29A H 1.1760 1.0968 0.4540
H30A H 1.2542 0.9580 0.4651
C32A C 1.0479(5) 0.9956(5) 0.5298(3)
H31A H 1.0667 0.9156 0.5650
H32A H 0.9911 1.0537 0.5589
N7A N 1.3868(3) 1.0890(3) 0.60833(17)
N8A N 1.2848(4) 1.0189(4) 0.5459(2)
Zn1A Zn -2.55818(5) 1.21465(4) -0.36770(2)
Zn2A Zn -1.49798(4) 0.83076(4) -0.14506(2)
S1A S -1.00272(11) 0.49687(10) -0.25196(5)
S2A S -2.03852(11) 0.94162(11) -0.24957(6)
C1A C -1.2533(4) 0.6784(4) -0.2098(2)
C2A C -1.1630(4) 0.6153(4) -0.2693(2)
C3A C -1.1920(5) 0.6375(4) -0.3424(2)
H1A H -1.2740 0.6994 -0.3627
C4A C -1.0885(4) 0.5595(4) -0.3824(2)
H2A H -1.0935 0.5629 -0.4322
C5A C -0.9772(4) 0.4761(4) -0.3407(2)
C6A C -0.8460(4) 0.3833(4) -0.3682(2)
C7A C -1.7717(4) 0.9067(4) -0.1968(2)
C8A C -1.9108(4) 0.9949(4) -0.2290(2)
C9A C -1.9597(5) 1.1158(4) -0.2422(2)
H3A H -1.9052 1.1604 -0.2342
C10A C -2.1018(5) 1.1676(4) -0.2695(3)
H4A H -2.1511 1.2500 -0.2818
C11A C -2.1584(4) 1.0840(4) -0.2757(2)
C12A C -2.3027(4) 1.1002(5) -0.3041(2)
C13A C -1.4558(4) 0.6408(4) 0.0042(2)
H5A H -1.3514 0.6321 -0.0044
C14A C -1.6918(5) 0.6982(4) -0.0100(2)
H6A H -1.7823 0.7379 -0.0308
C15A C -1.6794(5) 0.6185(4) 0.0586(2)
H7A H -1.7580 0.5928 0.0934
C16A C -1.4568(5) 0.4964(4) 0.1333(2)
H8A H -1.4839 0.4222 0.1452
H9A H -1.3464 0.4776 0.1202
C17A C -1.5049(6) 0.5436(4) 0.2022(2)
H10A H -1.4715 0.6147 0.1914
H11A H -1.6157 0.5676 0.2132
C18A C -1.4399(5) 0.4515(4) 0.2722(2)
H12A H -1.3290 0.4272 0.2618
H13A H -1.4740 0.3805 0.2840
C19A C -1.4914(6) 0.5042(4) 0.3382(2)
H14A H -1.6021 0.5356 0.3445
H15A H -1.4504 0.5716 0.3269
C20A C -1.5424(5) 0.3814(4) 0.4715(2)
H16A H -1.6478 0.4025 0.4728
C21A C -1.3036(5) 0.3712(5) 0.4302(3)
H17A H -1.2130 0.3818 0.3996
C22A C -1.3196(5) 0.3047(4) 0.5033(2)
H18A H -1.2398 0.2612 0.5318
O1A O -1.3820(3) 0.7530(3) -0.22542(15)
O2A O -1.2030(3) 0.6533(3) -0.14915(16)
O3A O -0.7430(3) 0.3251(3) -0.32431(16)
O4A O -0.8404(3) 0.3701(3) -0.43120(17)
O5A O -1.6817(3) 0.9518(3) -0.18307(15)
O6A O -1.7531(3) 0.7966(3) -0.18395(17)
O7A O -2.3156(4) 1.0164(4) -0.3205(3)
O8A O -2.4015(3) 1.2021(3) -0.31090(17)
N1A N -1.5502(3) 0.7127(3) -0.04501(17)
N2A N -1.5274(4) 0.5820(3) 0.06747(18)
N3A N -1.4692(4) 0.3103(3) 0.52926(17)
N4A N -1.4458(4) 0.4192(3) 0.41063(18)
Zn1_2 Zn -1.44182(5) 1.78535(4) 0.36770(2)
Zn1_3 Zn -0.44182(5) 1.78535(4) -0.63230(2)
Zn1A_2 Zn -1.55818(5) 0.21465(4) 0.63230(2)
Zn1A_3 Zn -0.55818(5) 0.21465(4) -0.36770(2)
Zn1A_4 Zn 1.44182(5) 1.21465(4) 0.63230(2)
O3_2 O 0.7430(3) 0.6749(3) 0.32431(16)
O3A_2 O -2.7430(3) 1.3251(3) -0.32431(16)
N3_2 N 0.4692(4) 0.6897(3) 0.47074(17)
N3A_2 N -2.4692(4) 1.3103(3) -0.47074(17)
N7A_2 N -2.6132(3) 1.0890(3) -0.39167(17)
O9 O -1.0628(4) 1.3572(4) 0.1086(2)
H33 H -0.9807 1.3361 0.1276
H34 H -1.1194 1.3115 0.1320
O10 O -0.9130(6) 1.3747(5) -0.0409(3)
H35 H -0.9972 1.3982 -0.0584
H36 H -0.8989 1.4440 -0.0588
loop_
_geom_bond_atom_site_label_1
_geom_bond_atom_site_label_2
_geom_bond_site_symmetry_1
_geom_bond_site_symmetry_2
Zn1 O8 1_555 1_555
Zn2 O1 1_555 1_555
S1 C2 1_555 1_555
S2 C8 1_555 1_555
C1 C2 1_555 1_555
C2 C3 1_555 1_555
C3 H1 1_555 1_555
C4 C3 1_555 1_555
H2 C4 1_555 1_555
C5 S1 1_555 1_555
C6 C5 1_555 1_555
C7 C8 1_555 1_555
C8 C9 1_555 1_555
C9 H3 1_555 1_555
C10 C9 1_555 1_555
H4 C10 1_555 1_555
C11 S2 1_555 1_555
C12 C11 1_555 1_555
C13 H5 1_555 1_555
C14 H6 1_555 1_555
C15 C14 1_555 1_555
H7 C15 1_555 1_555
C16 H8 1_555 1_555
H9 C16 1_555 1_555
C17 C16 1_555 1_555
H10 C17 1_555 1_555
H11 C17 1_555 1_555
C18 C17 1_555 1_555
H12 C18 1_555 1_555
H13 C18 1_555 1_555
C19 C18 1_555 1_555
H14 C19 1_555 1_555
H15 C19 1_555 1_555
C20 H16 1_555 1_555
C21 H17 1_555 1_555
C22 C21 1_555 1_555
H18 C22 1_555 1_555
C23 H19 1_555 1_555
C24 H20 1_555 1_555
C25 C24 1_555 1_555
H21 C25 1_555 1_555
C26 H22 1_555 1_555
H23 C26 1_555 1_555
C27 C26 1_555 1_555
H24 C27 1_555 1_555
H25 C27 1_555 1_555
C28 H26 1_555 1_555
C29 H27 1_555 1_555
C30 C29 1_555 1_555
H28 C30 1_555 1_555
C31 H29 1_555 1_555
H30 C31 1_555 1_555
C32 C31 1_555 1_555
H31 C32 1_555 1_555
H32 C32 1_555 1_555
O1 C1 1_555 1_555
O2 C1 1_555 1_555
O3 C6 1_555 1_555
O4 C6 1_555 1_555
O5 Zn2 1_555 1_555
O6 C7 1_555 1_555
O7 C12 1_555 1_555
O8 C12 1_555 1_555
N1 Zn2 1_555 1_555
N2 C13 1_555 1_555
N3 C20 1_555 1_555
N4 C19 1_555 1_555
N5 Zn2 1_555 1_555
N6 C23 1_555 1_555
N7 Zn1 1_555 1_555
N8 C28 1_555 1_555
O9 H33 1_555 1_555
H34 O9 1_555 1_555
O10 H35 1_555 1_555
H36 O10 1_555 1_555
C23A H19A 1_555 1_555
C24A H20A 1_555 1_555
C25A C24A 1_555 1_555
H21A C25A 1_555 1_555
C26A H22A 1_555 1_555
H23A C26A 1_555 1_555
C27A C27 1_555 1_555
H24A C27A 1_555 1_555
H25A C27A 1_555 1_555
N5A C23A 1_555 1_555
N6A C23A 1_555 1_555
C28A H26A 1_555 1_555
C29A H27A 1_555 1_555
C30A C29A 1_555 1_555
H28A C30A 1_555 1_555
C31A H29A 1_555 1_555
H30A C31A 1_555 1_555
C32A C32 1_555 1_555
H31A C32A 1_555 1_555
H32A C32A 1_555 1_555
N7A C28A 1_555 1_555
N8A C28A 1_555 1_555
Zn1A O8A 1_555 1_555
Zn2A N5A 1_555 1_555
S1A C2A 1_555 1_555
S2A C8A 1_555 1_555
C1A C2A 1_555 1_555
C2A C3A 1_555 1_555
C3A H1A 1_555 1_555
C4A C3A 1_555 1_555
H2A C4A 1_555 1_555
C5A S1A 1_555 1_555
C6A C5A 1_555 1_555
C7A C8A 1_555 1_555
C8A C9A 1_555 1_555
C9A H3A 1_555 1_555
C10A C9A 1_555 1_555
H4A C10A 1_555 1_555
C11A S2A 1_555 1_555
C12A C11A 1_555 1_555
C13A H5A 1_555 1_555
C14A H6A 1_555 1_555
C15A C14A 1_555 1_555
H7A C15A 1_555 1_555
C16A H8A 1_555 1_555
H9A C16A 1_555 1_555
C17A C16A 1_555 1_555
H10A C17A 1_555 1_555
H11A C17A 1_555 1_555
C18A C17A 1_555 1_555
H12A C18A 1_555 1_555
H13A C18A 1_555 1_555
C19A C18A 1_555 1_555
H14A C19A 1_555 1_555
H15A C19A 1_555 1_555
C20A H16A 1_555 1_555
C21A H17A 1_555 1_555
C22A C21A 1_555 1_555
H18A C22A 1_555 1_555
O1A Zn2A 1_555 1_555
O2A C1A 1_555 1_555
O3A C6A 1_555 1_555
O4A C6A 1_555 1_555
O5A Zn2A 1_555 1_555
O6A C7A 1_555 1_555
O7A C12A 1_555 1_555
O8A C12A 1_555 1_555
N1A Zn2A 1_555 1_555
N2A C13A 1_555 1_555
N3A C20A 1_555 1_555
N4A C19A 1_555 1_555
Zn1_2 O3 1_555 1_555
Zn1_3 N3 1_555 1_555
Zn1A_2 N3A 1_555 1_555
Zn1A_3 O3A 1_555 1_555
Zn1A_4 N7A 1_555 1_555
O3_2 Zn1 1_555 1_555
O3A_2 Zn1A 1_555 1_555
N3_2 Zn1 1_555 1_555
N3A_2 Zn1A 1_555 1_555
N7A_2 Zn1A 1_555 1_555
C4 C5 1_555 1_555
C7 O5 1_555 1_555
C10 C11 1_555 1_555
C13 N1 1_555 1_555
C14 N1 1_555 1_555
C15 N2 1_555 1_555
C16 N2 1_555 1_555
C20 N4 1_555 1_555
C21 N4 1_555 1_555
C22 N3 1_555 1_555
C23 N5 1_555 1_555
C24 N5 1_555 1_555
C25 N6 1_555 1_555
C26 N6 1_555 1_555
C28 N7 1_555 1_555
C29 N7 1_555 1_555
C30 N8 1_555 1_555
C31 N8 1_555 1_555
C24A N5A 1_555 1_555
C25A N6A 1_555 1_555
C26A C27A 1_555 1_555
C26A N6A 1_555 1_555
C29A N7A 1_555 1_555
C30A N8A 1_555 1_555
C31A C32A 1_555 1_555
C31A N8A 1_555 1_555
C1A O1A 1_555 1_555
C4A C5A 1_555 1_555
C7A O5A 1_555 1_555
C10A C11A 1_555 1_555
C13A N1A 1_555 1_555
C14A N1A 1_555 1_555
C15A N2A 1_555 1_555
C16A N2A 1_555 1_555
C20A N4A 1_555 1_555
C21A N4A 1_555 1_555
C22A N3A 1_555 1_555

#END
