
#######################################################################
#
#                 Cambridge Crystallographic Data Centre
#                                CCDC 
#
#######################################################################
#
# If this CIF has been generated from an entry in the Cambridge 
# Structural Database, then it will include bibliographic, chemical, 
# crystal, experimental, refinement or atomic coordinate data resulting 
# from the CCDC's data processing and validation procedures.
#
#######################################################################

data_NIJTAD
_symmetry_cell_setting           tetragonal
_symmetry_space_group_name_H-M   'P 42 21 2'
_symmetry_Int_Tables_number      94
_space_group_name_Hall           'P 4n 2n'
loop_
_symmetry_equiv_pos_site_id
_symmetry_equiv_pos_as_xyz
1 x,y,z
2 -x,-y,z
3 1/2-y,1/2+x,1/2+z
4 1/2+y,1/2-x,1/2+z
5 1/2-x,1/2+y,1/2-z
6 1/2+x,1/2-y,1/2-z
7 y,x,-z
8 -y,-x,-z
_cell_length_a                   16.038(2)
_cell_length_b                   16.038(2)
_cell_length_c                   15.787(3)
_cell_angle_alpha                90
_cell_angle_beta                 90
_cell_angle_gamma                90
_cell_volume                     4060.69
loop_
_atom_site_label
_atom_site_type_symbol
_atom_site_fract_x
_atom_site_fract_y
_atom_site_fract_z
C1 C 0.2607(4) 0.3162(3) 0.6129(3)
C2 C 0.2993(4) 0.3721(3) 0.6772(3)
C3 C 0.3778(3) 0.3716(4) 0.7071(3)
H1 H 0.4178 0.3323 0.6921
C4 C 0.3920(3) 0.4369(4) 0.7628(3)
H2 H 0.4434 0.4459 0.7886
C5 C 0.3239(4) 0.4872(4) 0.7769(4)
C6 C 0.3180(4) 0.5582(4) 0.8392(4)
C7 C 0.4500(4) 0.1187(4) 0.6505(4)
H3 H 0.4172 0.0813 0.6808
C8 C 0.5182(4) 0.1517(4) 0.6894(4)
H4 H 0.5301 0.1356 0.7447
C9 C 0.5687(3) 0.2065(4) 0.6512(4)
C10 C 0.5470(3) 0.2187(4) 0.5641(3)
H5 H 0.5816 0.2508 0.5299
C11 C 0.4808(4) 0.1862(4) 0.5324(4)
H6 H 0.4691 0.1986 0.4761
C12 C 0.6418(3) 0.2508(4) 0.6897(4)
H7 H 0.6521 0.2282 0.7457
H8 H 0.6281 0.3094 0.6963
C13 C 0.7221(3) 0.2433(4) 0.6367(3)
H9 H 0.7101 0.2579 0.5783
H10 H 0.7413 0.1860 0.6377
C14 C 0.7917(4) 0.3007(4) 0.6706(3)
H11 H 0.7706 0.3573 0.6725
H12 H 0.8046 0.2842 0.7282
C15 C 0.8705(4) 0.3002(4) 0.6202(4)
C16 C 0.8992(4) 0.2319(4) 0.5845(4)
H13 H 0.8678 0.1833 0.5893
C17 C 0.9736(3) 0.2282(4) 0.5400(4)
H14 H 0.9924 0.1781 0.5172
C18 C 0.9890(4) 0.3664(4) 0.5618(4)
H15 H 1.0181 0.4159 0.5534
C19 C 0.9151(4) 0.3692(4) 0.6082(4)
H16 H 0.8969 0.4195 0.6309
Co1 Co 0.29514(4) 0.14040(4) 0.53186(4)
N1 N 0.4280(3) 0.1369(3) 0.5723(3)
N2 N 1.0187(3) 0.2999(3) 0.5303(3)
O1 O 0.3043(2) 0.2546(2) 0.5932(2)
O2 O 0.1883(2) 0.3338(2) 0.5841(2)
O3 O 0.3846(2) 0.5865(2) 0.8681(2)
O4 O 0.2448(3) 0.5814(2) 0.8567(2)
O5 O 0.1664(2) 0.1664(2) 0.5000
H17 H 0.1359 0.1516 0.5418
S1 S 0.24025(9) 0.45384(9) 0.71887(9)
H17F H 0.1516 0.1359 0.4582
C1F C 0.3162(3) 0.2607(4) 0.3871(3)
C2F C 0.3721(3) 0.2993(4) 0.3228(3)
C3F C 0.3716(4) 0.3778(3) 0.2929(3)
H1F H 0.3323 0.4178 0.3079
C4F C 0.4369(4) 0.3920(3) 0.2372(3)
H2F H 0.4459 0.4434 0.2114
C5F C 0.4872(4) 0.3239(4) 0.2231(4)
C6F C 0.5582(4) 0.3180(4) 0.1608(4)
C7F C 0.1187(4) 0.4500(4) 0.3495(4)
H3F H 0.0813 0.4172 0.3192
C8F C 0.1517(4) 0.5182(4) 0.3106(4)
H4F H 0.1356 0.5301 0.2553
C9F C 0.2065(4) 0.5687(3) 0.3488(4)
C10F C 0.2187(4) 0.5470(3) 0.4359(3)
H5F H 0.2508 0.5816 0.4701
C11F C 0.1862(4) 0.4808(4) 0.4676(4)
H6F H 0.1986 0.4691 0.5239
C12F C 0.2508(4) 0.6418(3) 0.3103(4)
H7F H 0.2282 0.6521 0.2543
H8F H 0.3094 0.6281 0.3037
C13F C 0.2433(4) 0.7221(3) 0.3633(3)
H9F H 0.2579 0.7101 0.4217
H10F H 0.1860 0.7413 0.3623
C14F C 0.3007(4) 0.7917(4) 0.3294(3)
H11F H 0.3573 0.7706 0.3275
H12F H 0.2842 0.8046 0.2718
C15F C 0.3002(4) 0.8705(4) 0.3798(4)
C16F C 0.2319(4) 0.8992(4) 0.4155(4)
H13F H 0.1833 0.8678 0.4107
C17F C 0.2282(4) 0.9736(3) 0.4600(4)
H14F H 0.1781 0.9924 0.4828
C18F C 0.3664(4) 0.9890(4) 0.4382(4)
H15F H 0.4159 1.0181 0.4466
C19F C 0.3692(4) 0.9151(4) 0.3918(4)
H16F H 0.4195 0.8969 0.3691
Co1F Co 0.14040(4) 0.29514(4) 0.46814(4)
N1F N 0.1369(3) 0.4280(3) 0.4277(3)
N2F N 0.2999(3) 1.0187(3) 0.4697(3)
O1F O 0.2546(2) 0.3043(2) 0.4068(2)
O2F O 0.3338(2) 0.1883(2) 0.4159(2)
O3F O 0.5865(2) 0.3846(2) 0.1319(2)
O4F O 0.5814(2) 0.2448(3) 0.1433(2)
S1F S 0.45384(9) 0.24025(9) 0.28113(9)
Co1_2 Co 0.29514(4) 1.14040(4) 0.53186(4)
Co1C Co 0.64040(4) 0.20486(4) 0.03186(4)
Co1D Co 0.20486(4) 0.64040(4) 0.96814(4)
Co1F_2 Co 1.14040(4) 0.29514(4) 0.46814(4)
N2_2 N 0.0187(3) 0.2999(3) 0.5303(3)
N2F_2 N 0.2999(3) 0.0187(3) 0.4697(3)
O4C O 0.0814(2) 0.2552(3) 0.3567(2)
O4D O 0.2552(3) 0.0814(2) 0.6433(2)
O6 O 0.5000 0.5000 0.5000
O7 O 0.0000 1.0000 0.5000
H18? H 0.1349 0.1526 0.5418
H19? H 0.5088 0.4888 0.4481
H20? H 0.4865 0.5510 0.5049
H21? H -0.0011 0.9761 0.4520
H22? H 0.0107 0.9643 0.5383
loop_
_geom_bond_atom_site_label_1
_geom_bond_atom_site_label_2
_geom_bond_site_symmetry_1
_geom_bond_site_symmetry_2
C1 C2 1_555 1_555
C2 C3 1_555 1_555
C3 H1 1_555 1_555
C4 C3 1_555 1_555
H2 C4 1_555 1_555
C5 C4 1_555 1_555
C6 C5 1_555 1_555
C7 H3 1_555 1_555
C8 C7 1_555 1_555
H4 C8 1_555 1_555
C9 C8 1_555 1_555
C10 C9 1_555 1_555
H5 C10 1_555 1_555
C11 C10 1_555 1_555
H6 C11 1_555 1_555
C12 C9 1_555 1_555
H7 C12 1_555 1_555
H8 C12 1_555 1_555
C13 C12 1_555 1_555
H9 C13 1_555 1_555
H10 C13 1_555 1_555
C14 C13 1_555 1_555
H11 C14 1_555 1_555
H12 C14 1_555 1_555
C15 C14 1_555 1_555
C16 C15 1_555 1_555
H13 C16 1_555 1_555
C17 C16 1_555 1_555
H14 C17 1_555 1_555
C18 H15 1_555 1_555
C19 C15 1_555 1_555
H16 C19 1_555 1_555
Co1 N1 1_555 1_555
N1 C7 1_555 1_555
N2 C17 1_555 1_555
O1 C1 1_555 1_555
O2 C1 1_555 1_555
O3 C6 1_555 1_555
O4 C6 1_555 1_555
O5 Co1 1_555 1_555
H17 O5 1_555 1_555
S1 C2 1_555 1_555
H17F O5 1_555 1_555
C1F C2F 1_555 1_555
C2F C3F 1_555 1_555
C3F H1F 1_555 1_555
C4F C3F 1_555 1_555
H2F C4F 1_555 1_555
C5F C4F 1_555 1_555
C6F C5F 1_555 1_555
C7F H3F 1_555 1_555
C8F C7F 1_555 1_555
H4F C8F 1_555 1_555
C9F C8F 1_555 1_555
C10F C9F 1_555 1_555
H5F C10F 1_555 1_555
C11F C10F 1_555 1_555
H6F C11F 1_555 1_555
C12F C9F 1_555 1_555
H7F C12F 1_555 1_555
H8F C12F 1_555 1_555
C13F C12F 1_555 1_555
H9F C13F 1_555 1_555
H10F C13F 1_555 1_555
C14F C13F 1_555 1_555
H11F C14F 1_555 1_555
H12F C14F 1_555 1_555
C15F C14F 1_555 1_555
C16F C15F 1_555 1_555
H13F C16F 1_555 1_555
C17F C16F 1_555 1_555
H14F C17F 1_555 1_555
C18F H15F 1_555 1_555
C19F C15F 1_555 1_555
H16F C19F 1_555 1_555
Co1F O2 1_555 1_555
N1F C7F 1_555 1_555
N2F C17F 1_555 1_555
O1F C1F 1_555 1_555
O2F Co1 1_555 1_555
O3F C6F 1_555 1_555
O4F C6F 1_555 1_555
S1F C2F 1_555 1_555
Co1_2 N2F 1_555 1_555
Co1C O4F 1_555 1_555
Co1D O4 1_555 1_555
Co1F_2 N2 1_555 1_555
N2_2 Co1F 1_555 1_555
N2F_2 Co1 1_555 1_555
O4C Co1F 1_555 1_555
O4D Co1 1_555 1_555
C5 S1 1_555 1_555
C11 N1 1_555 1_555
C18 C19 1_555 1_555
C18 N2 1_555 1_555
Co1 O1 1_555 1_555
O5 Co1F 1_555 1_555
C1F O2F 1_555 1_555
C5F S1F 1_555 1_555
C11F N1F 1_555 1_555
C18F C19F 1_555 1_555
C18F N2F 1_555 1_555
Co1F N1F 1_555 1_555
Co1F O1F 1_555 1_555

#END
