
#######################################################################
#
#                 Cambridge Crystallographic Data Centre
#                                CCDC 
#
#######################################################################
#
# If this CIF has been generated from an entry in the Cambridge 
# Structural Database, then it will include bibliographic, chemical, 
# crystal, experimental, refinement or atomic coordinate data resulting 
# from the CCDC's data processing and validation procedures.
#
#######################################################################

data_NIJTOP
_symmetry_cell_setting           triclinic
_symmetry_space_group_name_H-M   'P -1'
_symmetry_Int_Tables_number      2
_space_group_name_Hall           '-P 1'
loop_
_symmetry_equiv_pos_site_id
_symmetry_equiv_pos_as_xyz
1 x,y,z
2 -x,-y,-z
_cell_length_a                   8.808(1)
_cell_length_b                   8.810(1)
_cell_length_c                   12.751(5)
_cell_angle_alpha                82.27(1)
_cell_angle_beta                 86.07(2)
_cell_angle_gamma                79.47(1)
_cell_volume                     962.974
loop_
_atom_site_label
_atom_site_type_symbol
_atom_site_fract_x
_atom_site_fract_y
_atom_site_fract_z
Zn1 Zn 0.0000 0.5000 0.5000
O1 O 0.0944(2) 0.5510(2) 0.6363(1)
O2 O 0.1195(2) 0.6721(2) 0.4082(1)
N3 N 0.1939(2) 0.3242(2) 0.4819(1)
C13 C 0.1750(2) 0.1866(3) 0.4584(2)
C14 C 0.2916(2) 0.0568(3) 0.4641(2)
C15 C 0.4367(2) 0.0685(2) 0.4943(2)
C16 C 0.4577(2) 0.2143(2) 0.5151(2)
C17 C 0.3359(2) 0.3374(2) 0.5083(2)
H1 H 0.038(6) 0.548(6) 0.687(4)
H2 H 0.133(4) 0.633(4) 0.642(2)
H3 H 0.188(7) 0.664(7) 0.368(5)
H4 H 0.075(4) 0.756(4) 0.385(2)
H13 H 0.072(4) 0.179(4) 0.433(3)
H14 H 0.271(4) -0.030(4) 0.450(3)
H15 H 0.539(4) 0.232(4) 0.533(3)
H16 H 0.353(4) 0.429(4) 0.528(2)
O1A O -0.0944(2) 0.4490(2) 0.3637(1)
H1A H -0.038(6) 0.452(6) 0.313(4)
H2A H -0.133(4) 0.367(4) 0.358(2)
O2A O -0.1195(2) 0.3279(2) 0.5918(1)
H3A H -0.188(7) 0.336(7) 0.632(5)
H4A H -0.075(4) 0.244(4) 0.615(2)
C15A C 0.5633(2) -0.0685(2) 0.5057(2)
C14A C 0.7084(2) -0.0568(3) 0.5359(2)
C13A C 0.8250(2) -0.1866(3) 0.5416(2)
N3A N 0.8061(2) -0.3242(2) 0.5181(1)
Zn1A Zn 1.0000 -0.5000 0.5000
C17A C 0.6641(2) -0.3374(2) 0.4917(2)
C16A C 0.5423(2) -0.2143(2) 0.4849(2)
H15A H 0.461(4) -0.232(4) 0.467(3)
H16A H 0.647(4) -0.429(4) 0.472(2)
H13A H 0.928(4) -0.179(4) 0.567(3)
H14A H 0.729(4) 0.030(4) 0.550(3)
N3A_2 N -0.1939(2) 0.6758(2) 0.5181(1)
Cl1 Cl 0.7959(1) 0.7925(1) 0.2507(1)
Cl2 Cl 0.5845(1) 1.0817(1) 0.2179(1)
Cl3 Cl 0.8698(1) 1.0378(1) 0.0934(1)
O3 O 0.9965(2) 0.9817(2) 0.3267(2)
O4 O 0.8060(3) 1.1883(2) 0.3292(2)
C1 C 0.7819(3) 0.9951(3) 0.2212(2)
C2 C 0.8716(3) 1.0620(3) 0.3025(2)
N1 N 0.9123(3) 0.5761(3) -0.1771(2)
N2 N 0.3786(3) 0.6408(3) 0.2642(2)
C3 C 0.7363(3) 0.7369(3) -0.0697(2)
C4 C 0.8396(4) 0.7156(4) -0.1556(2)
C5 C 0.8870(4) 0.4536(4) -0.1097(3)
C6 C 0.7855(3) 0.4645(3) -0.0223(2)
C7 C 0.7062(3) 0.6083(3) -0.0004(2)
C8 C 0.5934(2) 0.6216(3) 0.0912(2)
C9 C 0.4764(3) 0.7497(3) 0.0970(2)
C10 C 0.3732(3) 0.7540(4) 0.1830(2)
C11 C 0.4919(4) 0.5190(4) 0.2588(2)
C12 C 0.6013(3) 0.5049(3) 0.1764(2)
H5 H 0.685(4) 0.838(4) -0.064(2)
H6 H 0.854(4) 0.808(4) -0.202(3)
H7 H 0.939(4) 0.347(4) -0.131(2)
H8 H 0.755(4) 0.380(4) 0.014(3)
H9 H 0.470(4) 0.834(4) 0.040(3)
H10 H 0.306(4) 0.841(4) 0.191(3)
H11 H 0.498(4) 0.441(4) 0.311(3)
H12 H 0.677(4) 0.417(4) 0.182(2)
loop_
_geom_bond_atom_site_label_1
_geom_bond_atom_site_label_2
_geom_bond_site_symmetry_1
_geom_bond_site_symmetry_2
Zn1 O1 1_555 1_555
Cl1 C1 1_555 1_555
Cl2 C1 1_555 1_555
Cl3 C1 1_555 1_555
O1 H1 1_555 1_555
O2 Zn1 1_555 1_555
O3 C2 1_555 1_555
O4 C2 1_555 1_555
N1 C4 1_555 1_555
N2 C10 1_555 1_555
N3 Zn1 1_555 1_555
C1 C2 1_555 1_555
C3 C4 1_555 1_555
C4 H6 1_555 1_555
C5 N1 1_555 1_555
C6 C5 1_555 1_555
C7 C3 1_555 1_555
C8 C7 1_555 1_555
C9 C8 1_555 1_555
C10 C9 1_555 1_555
C11 N2 1_555 1_555
C12 C8 1_555 1_555
C13 N3 1_555 1_555
C14 C13 1_555 1_555
C15 C14 1_555 1_555
C16 C15 1_555 1_555
C17 N3 1_555 1_555
H2 O1 1_555 1_555
H3 O2 1_555 1_555
H4 O2 1_555 1_555
H5 C3 1_555 1_555
H7 C5 1_555 1_555
H8 C6 1_555 1_555
H9 C9 1_555 1_555
H10 C10 1_555 1_555
H11 C11 1_555 1_555
H12 C12 1_555 1_555
H13 C13 1_555 1_555
H14 C14 1_555 1_555
H15 C16 1_555 1_555
H16 C17 1_555 1_555
O1A Zn1 1_555 1_555
H1A O1A 1_555 1_555
H2A O1A 1_555 1_555
O2A Zn1 1_555 1_555
H3A O2A 1_555 1_555
H4A O2A 1_555 1_555
C15A C15 1_555 1_555
C14A C15A 1_555 1_555
C13A C14A 1_555 1_555
N3A C13A 1_555 1_555
Zn1A N3A 1_555 1_555
C17A N3A 1_555 1_555
C16A C15A 1_555 1_555
H15A C16A 1_555 1_555
H16A C17A 1_555 1_555
H13A C13A 1_555 1_555
H14A C14A 1_555 1_555
N3A_2 Zn1 1_555 1_555
C6 C7 1_555 1_555
C11 C12 1_555 1_555
C16 C17 1_555 1_555
C17A C16A 1_555 1_555

#END
