
#######################################################################
#
#                 Cambridge Crystallographic Data Centre
#                                CCDC 
#
#######################################################################
#
# If this CIF has been generated from an entry in the Cambridge 
# Structural Database, then it will include bibliographic, chemical, 
# crystal, experimental, refinement or atomic coordinate data resulting 
# from the CCDC's data processing and validation procedures.
#
#######################################################################

data_NIJVAE
_symmetry_cell_setting           triclinic
_symmetry_space_group_name_H-M   'P -1'
_symmetry_Int_Tables_number      2
_space_group_name_Hall           '-P 1'
loop_
_symmetry_equiv_pos_site_id
_symmetry_equiv_pos_as_xyz
1 x,y,z
2 -x,-y,-z
_cell_length_a                   11.8062(13)
_cell_length_b                   14.0132(14)
_cell_length_c                   21.261(2)
_cell_angle_alpha                86.005(2)
_cell_angle_beta                 87.573(2)
_cell_angle_gamma                76.332(2)
_cell_volume                     3408.34
loop_
_atom_site_label
_atom_site_type_symbol
_atom_site_fract_x
_atom_site_fract_y
_atom_site_fract_z
Pr1 Pr 0.15171(4) 0.39362(3) 0.01886(2)
I1 I 0.20940(7) -0.01964(6) 0.01495(5)
I2 I 0.26746(7) 0.56751(6) 0.20923(4)
I3 I -0.03789(9) 0.16783(6) 0.11586(4)
O1 O 0.2085(6) 0.2091(5) 0.0188(3)
O2 O 0.2398(6) 0.2898(5) -0.0703(3)
O3 O 0.2000(6) 0.5282(5) 0.0760(3)
O4 O 0.0223(5) 0.5900(5) 0.0426(3)
O5 O -0.0077(5) 0.3884(5) 0.0946(3)
O6 O -0.1784(5) 0.4886(4) 0.0678(3)
N1 N 0.3820(6) 0.3646(6) 0.0200(4)
N2 N 0.2633(7) 0.3240(6) 0.1266(4)
C1 C 0.2567(8) 0.2117(7) -0.0352(5)
C2 C 0.3421(8) 0.1217(7) -0.0581(4)
C3 C 0.4353(10) 0.1386(9) -0.0962(5)
H1 H 0.4362 0.2031 -0.1094
C4 C 0.5251(11) 0.0649(10) -0.1150(6)
H2 H 0.5875 0.0790 -0.1390
C5 C 0.5219(12) -0.0308(10) -0.0978(6)
H3 H 0.5817 -0.0818 -0.1114
C6 C 0.4330(11) -0.0523(8) -0.0613(6)
H4 H 0.4322 -0.1175 -0.0501
C7 C 0.3412(10) 0.0247(8) -0.0400(5)
C8 C 0.1095(8) 0.5964(7) 0.0728(4)
C9 C 0.1056(7) 0.6886(7) 0.1049(4)
C10 C 0.0378(8) 0.7757(7) 0.0811(5)
H5 H -0.0060 0.7749 0.0458
C11 C 0.0314(9) 0.8639(7) 0.1068(5)
H6 H -0.0156 0.9214 0.0890
C12 C 0.0947(10) 0.8666(8) 0.1588(5)
H7 H 0.0908 0.9264 0.1763
C13 C 0.1638(9) 0.7820(8) 0.1855(5)
H8 H 0.2068 0.7841 0.2208
C14 C 0.1689(8) 0.6935(7) 0.1592(5)
C15 C -0.1171(8) 0.4193(6) 0.1006(4)
C16 C -0.1781(7) 0.3722(6) 0.1522(4)
C17 C -0.2649(9) 0.4332(8) 0.1879(5)
H9 H -0.2839 0.5006 0.1775
C18 C -0.3225(10) 0.3962(12) 0.2379(6)
H10 H -0.3783 0.4388 0.2613
C19 C -0.2986(10) 0.2969(11) 0.2536(6)
H11 H -0.3357 0.2724 0.2884
C20 C -0.2196(10) 0.2342(9) 0.2176(5)
H12 H -0.2067 0.1666 0.2261
C21 C -0.1579(8) 0.2718(7) 0.1677(5)
C22 C 0.4391(9) 0.3864(8) -0.0331(6)
H13 H 0.3966 0.4070 -0.0694
C23 C 0.5589(10) 0.3795(10) -0.0365(7)
H14 H 0.5959 0.3947 -0.0741
C24 C 0.6190(10) 0.3499(10) 0.0167(7)
H15 H 0.6988 0.3458 0.0164
C25 C 0.5643(10) 0.3265(10) 0.0701(7)
H16 H 0.6073 0.3046 0.1062
C26 C 0.4444(8) 0.3342(7) 0.0728(5)
C27 C 0.3783(8) 0.3110(7) 0.1305(5)
C28 C 0.4362(11) 0.2755(10) 0.1866(6)
H17 H 0.5170 0.2643 0.1879
C29 C 0.3717(13) 0.2575(11) 0.2398(7)
H18 H 0.4082 0.2339 0.2776
C30 C 0.2540(13) 0.2748(10) 0.2360(6)
H19 H 0.2080 0.2666 0.2717
C31 C 0.2038(10) 0.3045(8) 0.1786(5)
H20 H 0.1238 0.3114 0.1759
Pr1A Pr -0.15171(4) 0.60638(3) -0.01886(2)
O4A O -0.0223(5) 0.4100(5) -0.0426(3)
O6A O 0.1784(5) 0.5114(4) -0.0678(3)
Pr2 Pr 0.50122(5) 0.14151(4) 0.51671(3)
I4 I 0.91997(11) -0.04059(16) 0.42273(6)
I5 I 0.71925(9) 0.01623(8) 0.72199(4)
I6 I 0.48309(8) 0.29631(7) 0.74758(4)
O7 O 0.6361(9) 0.1317(7) 0.4212(5)
O8 O 0.5900(6) -0.0089(6) 0.4444(3)
O9 O 0.6547(7) 0.0229(6) 0.5729(4)
O10 O 0.6372(7) -0.1308(6) 0.5622(4)
O11 O 0.4593(7) 0.1935(7) 0.6258(4)
O12 O 0.3168(7) 0.2484(7) 0.5609(4)
N3 N 0.4736(10) 0.3165(7) 0.4538(5)
N4 N 0.6466(11) 0.2554(9) 0.5349(6)
C32 C 0.6403(10) 0.0470(9) 0.4097(6)
C33 C 0.6976(10) 0.0110(8) 0.3490(5)
C34 C 0.6339(11) 0.0116(9) 0.2954(7)
H21 H 0.5531 0.0333 0.2977
C35 C 0.6853(16) -0.0180(12) 0.2406(6)
H22 H 0.6399 -0.0175 0.2058
C36 C 0.8023(16) -0.0486(12) 0.2352(7)
H23 H 0.8373 -0.0677 0.1966
C37 C 0.8679(14) -0.0515(14) 0.2853(7)
H24 H 0.9486 -0.0727 0.2817
C38 C 0.8158(11) -0.0230(11) 0.3422(6)
C39 C 0.6886(10) -0.0677(9) 0.5797(5)
C40 C 0.8041(10) -0.1100(10) 0.6102(5)
C41 C 0.8828(14) -0.1772(13) 0.5781(8)
H25 H 0.8622 -0.1970 0.5403
C42 C 0.9932(14) -0.2167(16) 0.6007(10)
H26 H 1.0467 -0.2622 0.5781
C43 C 1.0226(17) -0.1882(17) 0.6565(11)
H27 H 1.0972 -0.2140 0.6715
C44 C 0.9447(15) -0.1224(14) 0.6909(8)
H28 H 0.9646 -0.1044 0.7295
C45 C 0.8369(10) -0.0839(10) 0.6670(5)
C46 C 0.3552(10) 0.2360(9) 0.6165(5)
C47 C 0.2767(11) 0.2689(9) 0.6705(5)
C48 C 0.1578(12) 0.2749(11) 0.6636(7)
H29 H 0.1324 0.2611 0.6252
C49 C 0.0768(13) 0.3006(13) 0.7121(7)
H30 H -0.0021 0.3067 0.7058
C50 C 0.1148(13) 0.3172(14) 0.7702(7)
H31 H 0.0616 0.3317 0.8037
C51 C 0.2284(12) 0.3123(10) 0.7783(6)
H32 H 0.2526 0.3253 0.8172
C52 C 0.3115(10) 0.2878(8) 0.7286(5)
C53 C 0.3849(14) 0.3483(11) 0.4155(7)
H33 H 0.3302 0.3103 0.4147
C54 C 0.3676(19) 0.4332(12) 0.3770(7)
H34 H 0.3024 0.4533 0.3520
C55 C 0.448(2) 0.4851(14) 0.3772(9)
H35 H 0.4399 0.5415 0.3503
C56 C 0.5445(19) 0.4589(12) 0.4159(9)
H36 H 0.5995 0.4966 0.4165
C57 C 0.5525(14) 0.3714(9) 0.4541(6)
C58 C 0.6507(13) 0.3350(10) 0.4984(7)
C59 C 0.7397(18) 0.3852(15) 0.5051(11)
H37 H 0.7428 0.4404 0.4788
C60 C 0.820(2) 0.3531(19) 0.5497(15)
H38 H 0.8775 0.3871 0.5553
C61 C 0.8164(19) 0.2706(19) 0.5860(13)
H39 H 0.8727 0.2456 0.6160
C62 C 0.7274(15) 0.2240(13) 0.5778(9)
H40 H 0.7242 0.1682 0.6035
Pr2A Pr 0.49878(5) -0.14151(4) 0.48329(3)
O8A O 0.4100(6) 0.0089(6) 0.5556(3)
O10A O 0.3628(7) 0.1308(6) 0.4378(4)
O13 O -0.0058(16) 0.5326(12) 0.5859(7)
H41 H 0.0407 0.4794 0.5827
C63 C -0.0301(19) 0.5491(19) 0.6494(8)
H42 H -0.0637 0.4981 0.6703
H43 H -0.0834 0.6126 0.6546
C64 C 0.086(2) 0.546(3) 0.6748(17)
H44 H 0.0783 0.5581 0.7189
H45 H 0.1186 0.5965 0.6526
H46 H 0.1374 0.4831 0.6691
O15 O 0.1433(14) 0.4018(11) 0.5156(8)
O14? O 0.0945(10) 0.4266(8) 0.5575(6)
loop_
_geom_bond_atom_site_label_1
_geom_bond_atom_site_label_2
_geom_bond_site_symmetry_1
_geom_bond_site_symmetry_2
Pr1 O1 1_555 1_555
Pr2 O7 1_555 1_555
I1 C7 1_555 1_555
I2 C14 1_555 1_555
I3 C21 1_555 1_555
I4 C38 1_555 1_555
I5 C45 1_555 1_555
I6 C52 1_555 1_555
O1 C1 1_555 1_555
O2 Pr1 1_555 1_555
O3 Pr1 1_555 1_555
O4 Pr1 1_555 1_555
O5 Pr1 1_555 1_555
O6 C15 1_555 1_555
O7 C32 1_555 1_555
O8 Pr2 1_555 1_555
O9 Pr2 1_555 1_555
O10 C39 1_555 1_555
O11 Pr2 1_555 1_555
O12 Pr2 1_555 1_555
N1 Pr1 1_555 1_555
N2 Pr1 1_555 1_555
N3 Pr2 1_555 1_555
N4 Pr2 1_555 1_555
C1 O2 1_555 1_555
C2 C1 1_555 1_555
C3 C2 1_555 1_555
H1 C3 1_555 1_555
C4 C3 1_555 1_555
H2 C4 1_555 1_555
C5 C4 1_555 1_555
H3 C5 1_555 1_555
C6 C5 1_555 1_555
H4 C6 1_555 1_555
C7 C2 1_555 1_555
C8 O3 1_555 1_555
C9 C8 1_555 1_555
C10 C9 1_555 1_555
H5 C10 1_555 1_555
C11 C10 1_555 1_555
H6 C11 1_555 1_555
C12 C11 1_555 1_555
H7 C12 1_555 1_555
C13 C12 1_555 1_555
H8 C13 1_555 1_555
C14 C9 1_555 1_555
C15 O5 1_555 1_555
C16 C15 1_555 1_555
C17 C16 1_555 1_555
H9 C17 1_555 1_555
C18 C17 1_555 1_555
H10 C18 1_555 1_555
C19 C18 1_555 1_555
H11 C19 1_555 1_555
C20 C19 1_555 1_555
H12 C20 1_555 1_555
C21 C16 1_555 1_555
C22 N1 1_555 1_555
H13 C22 1_555 1_555
C23 C22 1_555 1_555
H14 C23 1_555 1_555
C24 C23 1_555 1_555
H15 C24 1_555 1_555
C25 C24 1_555 1_555
H16 C25 1_555 1_555
C26 N1 1_555 1_555
C27 N2 1_555 1_555
C28 C27 1_555 1_555
H17 C28 1_555 1_555
C29 C28 1_555 1_555
H18 C29 1_555 1_555
C30 C29 1_555 1_555
H19 C30 1_555 1_555
C31 N2 1_555 1_555
H20 C31 1_555 1_555
C32 O8 1_555 1_555
C33 C32 1_555 1_555
C34 C33 1_555 1_555
H21 C34 1_555 1_555
C35 C34 1_555 1_555
H22 C35 1_555 1_555
C36 C35 1_555 1_555
H23 C36 1_555 1_555
C37 C36 1_555 1_555
H24 C37 1_555 1_555
C38 C33 1_555 1_555
C39 O9 1_555 1_555
C40 C39 1_555 1_555
C41 C40 1_555 1_555
H25 C41 1_555 1_555
C42 C41 1_555 1_555
H26 C42 1_555 1_555
C43 C42 1_555 1_555
H27 C43 1_555 1_555
C44 C43 1_555 1_555
H28 C44 1_555 1_555
C45 C40 1_555 1_555
C46 O11 1_555 1_555
C47 C46 1_555 1_555
C48 C47 1_555 1_555
H29 C48 1_555 1_555
C49 C48 1_555 1_555
H30 C49 1_555 1_555
C50 C49 1_555 1_555
H31 C50 1_555 1_555
C51 C50 1_555 1_555
H32 C51 1_555 1_555
C52 C47 1_555 1_555
C53 N3 1_555 1_555
H33 C53 1_555 1_555
C54 C53 1_555 1_555
H34 C54 1_555 1_555
C55 C54 1_555 1_555
H35 C55 1_555 1_555
C56 C55 1_555 1_555
H36 C56 1_555 1_555
C57 N3 1_555 1_555
C58 N4 1_555 1_555
C59 C58 1_555 1_555
H37 C59 1_555 1_555
C60 C59 1_555 1_555
H38 C60 1_555 1_555
C61 C60 1_555 1_555
H39 C61 1_555 1_555
C62 N4 1_555 1_555
H40 C62 1_555 1_555
O13 H41 1_555 1_555
C63 O13 1_555 1_555
H42 C63 1_555 1_555
H43 C63 1_555 1_555
C64 C63 1_555 1_555
H44 C64 1_555 1_555
H45 C64 1_555 1_555
H46 C64 1_555 1_555
Pr1A O4 1_555 1_555
Pr2A O8 1_555 1_555
O4A Pr1 1_555 1_555
O6A Pr1 1_555 1_555
O8A Pr2 1_555 1_555
O10A Pr2 1_555 1_555
O4 C8 1_555 1_555
O6 Pr1A 1_555 1_555
O10 Pr2A 1_555 1_555
O12 C46 1_555 1_555
C6 C7 1_555 1_555
C13 C14 1_555 1_555
C20 C21 1_555 1_555
C25 C26 1_555 1_555
C26 C27 1_555 1_555
C30 C31 1_555 1_555
C37 C38 1_555 1_555
C44 C45 1_555 1_555
C51 C52 1_555 1_555
C56 C57 1_555 1_555
C57 C58 1_555 1_555
C61 C62 1_555 1_555
Pr1A O4A 1_555 1_555
Pr2A O8A 1_555 1_555

#END
