
#######################################################################
#
#                 Cambridge Crystallographic Data Centre
#                                CCDC 
#
#######################################################################
#
# If this CIF has been generated from an entry in the Cambridge 
# Structural Database, then it will include bibliographic, chemical, 
# crystal, experimental, refinement or atomic coordinate data resulting 
# from the CCDC's data processing and validation procedures.
#
#######################################################################

data_NIJVAF
_symmetry_cell_setting           monoclinic
_symmetry_space_group_name_H-M   'P 21/c'
_symmetry_Int_Tables_number      14
_space_group_name_Hall           '-P 2ybc'
loop_
_symmetry_equiv_pos_site_id
_symmetry_equiv_pos_as_xyz
1 x,y,z
2 -x,1/2+y,1/2-z
3 -x,-y,-z
4 x,1/2-y,1/2+z
_cell_length_a                   10.6974(13)
_cell_length_b                   37.268(5)
_cell_length_c                   9.4058(12)
_cell_angle_alpha                90
_cell_angle_beta                 101.263(2)
_cell_angle_gamma                90
_cell_volume                     3677.6
loop_
_atom_site_label
_atom_site_type_symbol
_atom_site_fract_x
_atom_site_fract_y
_atom_site_fract_z
Cd1 Cd 0.85184(3) 0.632959(8) 0.25834(3)
C2 C 0.6127(4) 0.62078(14) 0.3210(6)
C3 C 0.4838(4) 0.61318(12) 0.3513(5)
C4 C 0.4512(4) 0.59538(14) 0.4643(6)
H4 H 0.5101 0.5845 0.5373
C5 C 0.3193(4) 0.59512(14) 0.4599(6)
H5 H 0.2818 0.5840 0.5296
C6 C 0.2522(4) 0.61275(12) 0.3435(5)
C7 C 0.1121(4) 0.61987(12) 0.3052(6)
C8 C 0.8283(5) 0.71215(14) 0.4094(6)
H6 H 0.7558 0.7174 0.3404
C9 C 0.8856(5) 0.73492(14) 0.5146(6)
H7 H 0.8601 0.7582 0.5308
C10 C 0.9880(4) 0.68405(12) 0.5305(5)
H8 H 1.0478 0.6663 0.5625
C11 C 1.0786(4) 0.73028(12) 0.7126(5)
C12 C 1.0978(4) 0.76694(12) 0.7307(5)
H9 H 1.0488 0.7830 0.6673
C13 C 1.1900(5) 0.77948(12) 0.8436(5)
H10 H 1.2009 0.8041 0.8570
C14 C 1.2670(4) 0.75606(13) 0.9377(5)
C15 C 1.2431(5) 0.71961(13) 0.9208(5)
H11 H 1.2912 0.7035 0.9847
C16 C 1.1496(5) 0.70681(13) 0.8112(5)
H12 H 1.1338 0.6823 0.8030
C17 C 1.6994(4) 0.81716(13) 1.4876(5)
H13 H 1.6339 0.8126 1.5372
C18 C 1.8784(5) 0.83304(14) 1.4374(6)
H14 H 1.9614 0.8415 1.4479
C19 C 1.8075(5) 0.82093(16) 1.3130(6)
H15 H 1.8314 0.8199 1.2232
C20 C 1.5856(4) 0.79616(13) 1.2442(5)
C21 C 1.5415(5) 0.81486(14) 1.1182(6)
H16 H 1.5814 0.8359 1.0983
C22 C 1.4372(6) 0.80183(15) 1.0215(6)
H17 H 1.4063 0.8147 0.9371
C23 C 1.3769(4) 0.76995(13) 1.0469(5)
C24 C 1.4275(5) 0.75116(15) 1.1726(5)
H18 H 1.3923 0.7292 1.1907
C25 C 1.5298(5) 0.76479(15) 1.2714(5)
H19 H 1.5606 0.7524 1.3569
C26 C 0.7460(6) 0.55392(15) 0.1089(7)
H20 H 0.6901 0.5506 0.1720
C27 C 0.7574(6) 0.53179(16) -0.0016(7)
H21 H 0.7126 0.5106 -0.0270
C28 C 0.8892(5) 0.57666(13) 0.0066(6)
H22 H 0.9525 0.5916 -0.0151
C29 C 0.8908(5) 0.53312(13) -0.1932(6)
C30 C 0.9070(9) 0.55564(16) -0.3009(8)
H23 H 0.8893 0.5799 -0.2942
C31 C 0.9497(9) 0.54291(16) -0.4205(8)
H24 H 0.9603 0.5589 -0.4932
C32 C 0.9774(6) 0.50684(13) -0.4355(6)
C33 C 0.9570(6) 0.48433(14) -0.3254(6)
H25 H 0.9718 0.4599 -0.3327
C34 C 0.9151(6) 0.49714(14) -0.2041(6)
H26 H 0.9037 0.4815 -0.1307
N1 N 0.8928(4) 0.68040(10) 0.4196(4)
N2 N 0.9884(3) 0.71691(10) 0.5924(4)
N3 N 1.8103(4) 0.83103(11) 1.5471(4)
N4 N 1.6927(4) 0.81033(11) 1.3443(4)
N5 N 0.8294(4) 0.58211(11) 0.1139(5)
N6 N 0.8473(4) 0.54649(11) -0.0690(5)
O2 O 0.7070(3) 0.60556(11) 0.3965(5)
O3 O 0.6209(4) 0.64266(13) 0.2244(5)
O4 O 0.0722(3) 0.63751(11) 0.1939(4)
O5 O 0.0451(3) 0.60899(9) 0.3917(4)
S1 S 0.35218(11) 0.62972(3) 0.23711(13)
C26B C 1.2540(6) 0.44608(15) -1.1089(7)
H20B H 1.3099 0.4494 -1.1720
C27B C 1.2426(6) 0.46821(16) -0.9984(7)
H21B H 1.2874 0.4894 -0.9730
C28B C 1.1108(5) 0.42334(13) -1.0066(6)
H22B H 1.0475 0.4084 -0.9849
C29B C 1.1092(5) 0.46688(13) -0.8068(6)
C30B C 1.0930(9) 0.44436(16) -0.6991(8)
H23B H 1.1107 0.4201 -0.7058
C31B C 1.0503(9) 0.45709(16) -0.5795(8)
H24B H 1.0397 0.4411 -0.5068
C32B C 1.0226(6) 0.49316(13) -0.5645(6)
C33B C 1.0430(6) 0.51567(14) -0.6746(6)
H25B H 1.0282 0.5401 -0.6673
C34B C 1.0849(6) 0.50286(14) -0.7959(6)
H26B H 1.0963 0.5185 -0.8693
N5B N 1.1706(4) 0.41789(11) -1.1139(5)
N6B N 1.1527(4) 0.45351(11) -0.9310(5)
Cd1B Cd 1.14816(3) 0.367041(8) -1.25834(3)
C2B C 1.3873(4) 0.37922(14) -1.3210(6)
C3B C 1.5162(4) 0.38682(12) -1.3513(5)
C4B C 1.5488(4) 0.40462(14) -1.4643(6)
H4B H 1.4899 0.4155 -1.5373
C5B C 1.6807(4) 0.40488(14) -1.4599(6)
H5B H 1.7182 0.4160 -1.5296
C6B C 1.7478(4) 0.38725(12) -1.3435(5)
C7B C 1.8879(4) 0.38013(12) -1.3052(6)
C8B C 1.1717(5) 0.28785(14) -1.4094(6)
H6B H 1.2442 0.2826 -1.3404
C9B C 1.1144(5) 0.26508(14) -1.5146(6)
H7B H 1.1399 0.2418 -1.5308
C10B C 1.0120(4) 0.31595(12) -1.5305(5)
H8B H 0.9522 0.3337 -1.5625
C11B C 0.9214(4) 0.26972(12) -1.7126(5)
C12B C 0.9022(4) 0.23306(12) -1.7307(5)
H9B H 0.9512 0.2170 -1.6673
C13B C 0.8100(5) 0.22052(12) -1.8436(5)
H10B H 0.7991 0.1959 -1.8570
C14B C 0.7330(4) 0.24394(13) -1.9377(5)
C15B C 0.7569(5) 0.28039(13) -1.9208(5)
H11B H 0.7088 0.2965 -1.9847
C16B C 0.8504(5) 0.29319(13) -1.8112(5)
H12B H 0.8662 0.3177 -1.8030
C17B C 0.3006(4) 0.18284(13) -2.4876(5)
H13B H 0.3661 0.1874 -2.5372
C18B C 0.1216(5) 0.16696(14) -2.4374(6)
H14B H 0.0386 0.1585 -2.4479
C19B C 0.1925(5) 0.17907(16) -2.3130(6)
H15B H 0.1686 0.1801 -2.2232
C20B C 0.4144(4) 0.20384(13) -2.2442(5)
C21B C 0.4585(5) 0.18514(14) -2.1182(6)
H16B H 0.4186 0.1641 -2.0983
C22B C 0.5628(6) 0.19817(15) -2.0215(6)
H17B H 0.5937 0.1853 -1.9371
C23B C 0.6231(4) 0.23005(13) -2.0469(5)
C24B C 0.5725(5) 0.24884(15) -2.1726(5)
H18B H 0.6077 0.2708 -2.1907
C25B C 0.4702(5) 0.23521(15) -2.2714(5)
H19B H 0.4394 0.2476 -2.3569
N1B N 1.1072(4) 0.31960(10) -1.4196(4)
N2B N 1.0116(3) 0.28309(10) -1.5924(4)
N3B N 0.1897(4) 0.16897(11) -2.5471(4)
N4B N 0.3073(4) 0.18967(11) -2.3443(4)
O2B O 1.2930(3) 0.39444(11) -1.3965(5)
O3B O 1.3791(4) 0.35734(13) -1.2244(5)
O4B O 1.9278(3) 0.36249(11) -1.1939(4)
O5B O 1.9549(3) 0.39101(9) -1.3917(4)
S1B S 1.64782(11) 0.37028(3) -1.23711(13)
Cd1_2 Cd -0.14816(3) 0.632959(8) 0.25834(3)
Cd1A Cd 0.14816(3) 0.132959(8) -2.75834(3)
Cd1B_2 Cd 2.14816(3) 0.367041(8) -1.25834(3)
Cd1C Cd 1.85184(3) 0.867041(8) 1.75834(3)
N3A N 1.1897(4) 0.33103(11) -1.0471(4)
N3C N 0.8103(4) 0.66897(11) 0.0471(4)
O4_2 O 1.0722(3) 0.63751(11) 0.1939(4)
O4B_2 O 0.9278(3) 0.36249(11) -1.1939(4)
O5_2 O 1.0451(3) 0.60899(9) 0.3917(4)
O5B_2 O 0.9549(3) 0.39101(9) -1.3917(4)
N7 N 0.3407(8) 0.5923(2) 0.8703(8)
O6 O 0.1354(8) 0.61985(19) 0.8203(12)
C35 C 0.2580(12) 0.6200(4) 0.818(2)
H27 H 0.2911 0.6400 0.7786
C36 C 0.4775(13) 0.5997(7) 0.881(2)
H28 H 0.4894 0.6144 0.8015
H29 H 0.5225 0.5774 0.8793
H30 H 0.5097 0.6119 0.9708
C37 C 0.299(3) 0.5576(5) 0.916(4)
H31 H 0.3680 0.5467 0.9832
H32 H 0.2748 0.5424 0.8334
H33 H 0.2279 0.5611 0.9629
O7 O 0.4513(19) 0.5074(5) 0.297(3)
C1 C 0.3718(12) 0.4927(5) 0.507(4)
H1 H 0.3165 0.5038 0.4266
H2 H 0.3539 0.5022 0.5962
H3 H 0.3580 0.4673 0.5045
O1 O 0.5000 0.5000 0.5000
C1B C 0.6282(12) 0.5073(5) 0.493(4)
H1B H 0.6835 0.4962 0.5734
H2B H 0.6461 0.4978 0.4038
H3B H 0.6420 0.5327 0.4955
C38? C 0.2091(12) 0.5915(4) 0.853(2)
H34? H 0.1704 0.5696 0.8652
C39? C 0.394(2) 0.6275(4) 0.847(2)
H35? H 0.4850 0.6255 0.8583
H36? H 0.3740 0.6442 0.9172
H37? H 0.3585 0.6358 0.7514
C40? C 0.408(3) 0.5601(6) 0.930(4)
H38? H 0.3726 0.5513 1.0089
H39? H 0.4969 0.5657 0.9637
H40? H 0.4008 0.5420 0.8557
loop_
_geom_bond_atom_site_label_1
_geom_bond_atom_site_label_2
_geom_bond_site_symmetry_1
_geom_bond_site_symmetry_2
C1 H1 1_555 1_555
H2 C1 1_555 1_555
H3 C1 1_555 1_555
O1 C1 1_555 1_555
Cd1 N1 1_555 1_555
C2 C3 1_555 1_555
C3 C4 1_555 1_555
C4 H4 1_555 1_555
C5 C4 1_555 1_555
H5 C5 1_555 1_555
C6 C5 1_555 1_555
C7 C6 1_555 1_555
C8 H6 1_555 1_555
C9 C8 1_555 1_555
H7 C9 1_555 1_555
C10 H8 1_555 1_555
C11 C12 1_555 1_555
C12 H9 1_555 1_555
C13 C12 1_555 1_555
H10 C13 1_555 1_555
C14 C13 1_555 1_555
C15 C14 1_555 1_555
H11 C15 1_555 1_555
C16 C11 1_555 1_555
H12 C16 1_555 1_555
C17 H13 1_555 1_555
C18 H14 1_555 1_555
C19 C18 1_555 1_555
H15 C19 1_555 1_555
C20 C21 1_555 1_555
C21 H16 1_555 1_555
C22 C21 1_555 1_555
H17 C22 1_555 1_555
C23 C14 1_555 1_555
C24 C23 1_555 1_555
H18 C24 1_555 1_555
C25 C20 1_555 1_555
H19 C25 1_555 1_555
C26 H20 1_555 1_555
C27 C26 1_555 1_555
H21 C27 1_555 1_555
C28 H22 1_555 1_555
C29 C30 1_555 1_555
C30 H23 1_555 1_555
C31 C30 1_555 1_555
H24 C31 1_555 1_555
C32 C31 1_555 1_555
C33 C32 1_555 1_555
H25 C33 1_555 1_555
C34 C29 1_555 1_555
H26 C34 1_555 1_555
N1 C8 1_555 1_555
N2 C9 1_555 1_555
N3 C17 1_555 1_555
N4 C17 1_555 1_555
N5 Cd1 1_555 1_555
N6 C27 1_555 1_555
O2 Cd1 1_555 1_555
O3 Cd1 1_555 1_555
O4 C7 1_555 1_555
O5 C7 1_555 1_555
S1 C3 1_555 1_555
N7 C35 1_555 1_555
O6 C35 1_555 1_555
C35 H27 1_555 1_555
C36 N7 1_555 1_555
H28 C36 1_555 1_555
H29 C36 1_555 1_555
H30 C36 1_555 1_555
C37 N7 1_555 1_555
H31 C37 1_555 1_555
H32 C37 1_555 1_555
H33 C37 1_555 1_555
C1B O1 1_555 1_555
H1B C1B 1_555 1_555
H2B C1B 1_555 1_555
H3B C1B 1_555 1_555
C26B H20B 1_555 1_555
C27B C26B 1_555 1_555
H21B C27B 1_555 1_555
C28B H22B 1_555 1_555
C29B C30B 1_555 1_555
C30B H23B 1_555 1_555
C31B C30B 1_555 1_555
H24B C31B 1_555 1_555
C32B C32 1_555 1_555
C33B C32B 1_555 1_555
H25B C33B 1_555 1_555
C34B C29B 1_555 1_555
H26B C34B 1_555 1_555
N5B C26B 1_555 1_555
N6B C27B 1_555 1_555
Cd1B N5B 1_555 1_555
C2B C3B 1_555 1_555
C3B C4B 1_555 1_555
C4B H4B 1_555 1_555
C5B C4B 1_555 1_555
H5B C5B 1_555 1_555
C6B C5B 1_555 1_555
C7B C6B 1_555 1_555
C8B H6B 1_555 1_555
C9B C8B 1_555 1_555
H7B C9B 1_555 1_555
C10B H8B 1_555 1_555
C11B C12B 1_555 1_555
C12B H9B 1_555 1_555
C13B C12B 1_555 1_555
H10B C13B 1_555 1_555
C14B C13B 1_555 1_555
C15B C14B 1_555 1_555
H11B C15B 1_555 1_555
C16B C11B 1_555 1_555
H12B C16B 1_555 1_555
C17B H13B 1_555 1_555
C18B H14B 1_555 1_555
C19B C18B 1_555 1_555
H15B C19B 1_555 1_555
C20B C21B 1_555 1_555
C21B H16B 1_555 1_555
C22B C21B 1_555 1_555
H17B C22B 1_555 1_555
C23B C14B 1_555 1_555
C24B C23B 1_555 1_555
H18B C24B 1_555 1_555
C25B C20B 1_555 1_555
H19B C25B 1_555 1_555
N1B Cd1B 1_555 1_555
N2B C9B 1_555 1_555
N3B C17B 1_555 1_555
N4B C17B 1_555 1_555
O2B Cd1B 1_555 1_555
O3B Cd1B 1_555 1_555
O4B C7B 1_555 1_555
O5B C7B 1_555 1_555
S1B C3B 1_555 1_555
Cd1_2 O4 1_555 1_555
Cd1A N3B 1_555 1_555
Cd1B_2 O4B 1_555 1_555
Cd1C N3 1_555 1_555
N3A Cd1B 1_555 1_555
N3C Cd1 1_555 1_555
O4_2 Cd1 1_555 1_555
O4B_2 Cd1B 1_555 1_555
O5_2 Cd1 1_555 1_555
O5B_2 Cd1B 1_555 1_555
C2 O2 1_555 1_555
C2 O3 1_555 1_555
C6 S1 1_555 1_555
C10 N1 1_555 1_555
C10 N2 1_555 1_555
C11 N2 1_555 1_555
C15 C16 1_555 1_555
C18 N3 1_555 1_555
C19 N4 1_555 1_555
C20 N4 1_555 1_555
C22 C23 1_555 1_555
C24 C25 1_555 1_555
C26 N5 1_555 1_555
C28 N5 1_555 1_555
C28 N6 1_555 1_555
C29 N6 1_555 1_555
C33 C34 1_555 1_555
O5 Cd1_2 1_555 1_555
C28B N5B 1_555 1_555
C28B N6B 1_555 1_555
C29B N6B 1_555 1_555
C31B C32B 1_555 1_555
C33B C34B 1_555 1_555
C2B O2B 1_555 1_555
C2B O3B 1_555 1_555
C6B S1B 1_555 1_555
C8B N1B 1_555 1_555
C10B N1B 1_555 1_555
C10B N2B 1_555 1_555
C11B N2B 1_555 1_555
C15B C16B 1_555 1_555
C18B N3B 1_555 1_555
C19B N4B 1_555 1_555
C20B N4B 1_555 1_555
C22B C23B 1_555 1_555
C24B C25B 1_555 1_555
O5B Cd1B_2 1_555 1_555

#END
