
#######################################################################
#
#                 Cambridge Crystallographic Data Centre
#                                CCDC 
#
#######################################################################
#
# If this CIF has been generated from an entry in the Cambridge 
# Structural Database, then it will include bibliographic, chemical, 
# crystal, experimental, refinement or atomic coordinate data resulting 
# from the CCDC's data processing and validation procedures.
#
#######################################################################

data_NIJVEJ
_symmetry_cell_setting           orthorhombic
_symmetry_space_group_name_H-M   'P b c n'
_symmetry_Int_Tables_number      60
_space_group_name_Hall           '-P 2n 2ab'
loop_
_symmetry_equiv_pos_site_id
_symmetry_equiv_pos_as_xyz
1 x,y,z
2 1/2-x,1/2-y,1/2+z
3 -x,y,1/2-z
4 1/2+x,1/2-y,-z
5 -x,-y,-z
6 1/2+x,1/2+y,1/2-z
7 x,-y,1/2+z
8 1/2-x,1/2+y,z
_cell_length_a                   22.9568(15)
_cell_length_b                   13.2642(9)
_cell_length_c                   19.3659(13)
_cell_angle_alpha                90
_cell_angle_beta                 90
_cell_angle_gamma                90
_cell_volume                     5896.99
loop_
_atom_site_label
_atom_site_type_symbol
_atom_site_fract_x
_atom_site_fract_y
_atom_site_fract_z
Co1 Co 0.651455(14) 0.26504(3) 0.134034(17)
N1 N 0.64500(10) 0.42491(17) 0.14730(12)
N2 N 0.62686(10) 0.58513(16) 0.12640(12)
N3 N 0.43736(10) 0.74868(17) -0.10962(12)
N4 N 0.52045(10) 0.76322(18) -0.05447(13)
N5 N 0.66193(10) 1.10569(18) 0.12127(13)
N6 N 0.65184(10) 0.94502(17) 0.09634(14)
O1 O 0.63772(10) 0.24935(17) 0.24372(12)
O2 O 0.72849(10) 0.25775(16) 0.20768(10)
O3 O 0.79543(11) 0.22102(18) 0.55100(11)
O4 O 0.85730(12) 0.1646(3) 0.47255(15)
C1 C 0.69160(14) 0.2516(2) 0.25526(14)
C2 C 0.71147(13) 0.2492(2) 0.32857(15)
C3 C 0.68250(16) 0.2864(3) 0.38418(17)
H1 H 0.6458 0.3161 0.3818
C4 C 0.71448(17) 0.2748(3) 0.44596(17)
H2 H 0.7015 0.2973 0.4888
C5 C 0.76634(14) 0.2270(3) 0.43609(15)
C6 C 0.80998(15) 0.2027(3) 0.49026(16)
C7 C 0.65135(13) 0.4795(2) 0.20738(16)
H3 H 0.6615 0.4524 0.2500
C8 C 0.64069(13) 0.5779(2) 0.19531(15)
H4 H 0.6424 0.6303 0.2272
C9 C 0.63010(12) 0.49075(19) 0.10000(15)
H5 H 0.6227 0.4747 0.0541
C10 C 0.70700(14) 0.9568(3) 0.1214(2)
H6 H 0.7350 0.9068 0.1272
C11 C 0.71268(14) 1.0553(3) 0.1360(2)
H7 H 0.7462 1.0851 0.1536
C12 C 0.62647(12) 1.0371(2) 0.09756(16)
H8 H 0.5885 1.0499 0.0833
C13 C 0.52776(15) 0.8091(3) -0.11743(18)
H9 H 0.5611 0.8410 -0.1337
C14 C 0.47654(14) 0.7985(3) -0.15098(17)
H10 H 0.4689 0.8215 -0.1954
C15 C 0.46509(12) 0.7298(2) -0.05214(15)
H11 H 0.4486 0.6973 -0.0143
C16 C 0.56074(11) 0.7624(2) 0.00181(15)
C17 C 0.57318(11) 0.6728(2) 0.03575(15)
H12 H 0.5556 0.6127 0.0224
C18 C 0.61265(11) 0.67529(19) 0.09021(14)
C19 C 0.63955(12) 0.7653(2) 0.11028(15)
H13 H 0.6665 0.7661 0.1461
C20 C 0.58586(12) 0.8533(2) 0.02146(15)
H14 H 0.5765 0.9129 -0.0012
S1 S 0.77751(4) 0.19974(7) 0.35066(4)
C21 C 0.62524(11) 0.85293(19) 0.07567(15)
Co1_2 Co 0.651455(14) 1.26504(3) 0.134034(17)
Co1A Co 0.848545(14) 0.23496(3) 0.634034(17)
Co1D Co 0.348545(14) 0.73496(3) -0.134034(17)
N3D N 0.56264(10) 0.25132(17) 0.10962(12)
N5_2 N 0.66193(10) 0.10569(18) 0.12127(13)
O3A O 0.70457(11) 0.27898(18) 0.05100(11)
C22 C 0.4866(3) 0.4409(5) 0.2177(4)
H15 H 0.4770 0.3829 0.1933
C23 C 0.4762(2) 0.5361(4) 0.1947(3)
C24 C 0.4425(3) 0.5564(6) 0.1319(3)
O5 O 0.4352(3) 0.4995(5) 0.0838(3)
O6 O 0.4215(2) 0.6500(4) 0.1313(2)
H16 H 0.4032 0.6593 0.0955
S2 S 0.5000 0.62424(14) 0.2500
C22B C 0.5134(3) 0.4409(5) 0.2823(4)
H15B H 0.5230 0.3829 0.3067
C23B C 0.5238(2) 0.5361(4) 0.3053(3)
C24B C 0.5575(3) 0.5564(6) 0.3681(3)
O5B O 0.5648(3) 0.4995(5) 0.4162(3)
O6B O 0.5785(2) 0.6500(4) 0.3687(2)
H16B H 0.5968 0.6593 0.4045
C25 C 0.0639(5) 0.5904(6) 0.6136(4)
H17 H 0.0336 0.6234 0.6361
C26 C 0.1615(5) 0.5272(9) 0.6142(6)
H18 H 0.1559 0.4579 0.6016
H19 H 0.1954 0.5330 0.6431
H20 H 0.1669 0.5670 0.5733
C27 C 0.1063(8) 0.5772(13) 0.7249(6)
H21 H 0.0968 0.6464 0.7344
H22 H 0.1427 0.5606 0.7465
H23 H 0.0762 0.5343 0.7428
N7 N 0.1111(4) 0.5628(5) 0.6513(4)
O7 O 0.0592(3) 0.5749(4) 0.5539(3)
loop_
_geom_bond_atom_site_label_1
_geom_bond_atom_site_label_2
_geom_bond_site_symmetry_1
_geom_bond_site_symmetry_2
Co1 N1 1_555 1_555
N1 C7 1_555 1_555
N2 C8 1_555 1_555
N3 C14 1_555 1_555
N4 C13 1_555 1_555
N5 C11 1_555 1_555
N6 C10 1_555 1_555
O1 Co1 1_555 1_555
O2 Co1 1_555 1_555
O3 C6 1_555 1_555
O4 C6 1_555 1_555
C1 O1 1_555 1_555
C2 C1 1_555 1_555
C3 C2 1_555 1_555
H1 C3 1_555 1_555
C4 C3 1_555 1_555
H2 C4 1_555 1_555
C5 C4 1_555 1_555
C6 C5 1_555 1_555
C7 H3 1_555 1_555
C8 C7 1_555 1_555
H4 C8 1_555 1_555
C9 N1 1_555 1_555
H5 C9 1_555 1_555
C10 H6 1_555 1_555
C11 C10 1_555 1_555
H7 C11 1_555 1_555
C12 N5 1_555 1_555
H8 C12 1_555 1_555
C13 H9 1_555 1_555
C14 C13 1_555 1_555
H10 C14 1_555 1_555
C15 N3 1_555 1_555
H11 C15 1_555 1_555
C16 N4 1_555 1_555
C17 C16 1_555 1_555
H12 C17 1_555 1_555
C18 N2 1_555 1_555
C19 C18 1_555 1_555
H13 C19 1_555 1_555
C20 C16 1_555 1_555
H14 C20 1_555 1_555
S1 C2 1_555 1_555
C21 N6 1_555 1_555
C22 H15 1_555 1_555
C23 C22 1_555 1_555
C24 C23 1_555 1_555
O5 C24 1_555 1_555
O6 C24 1_555 1_555
H16 O6 1_555 1_555
S2 C23 1_555 1_555
C25 H17 1_555 1_555
C26 H18 1_555 1_555
H19 C26 1_555 1_555
H20 C26 1_555 1_555
C27 H21 1_555 1_555
H22 C27 1_555 1_555
H23 C27 1_555 1_555
N7 C25 1_555 1_555
O7 C25 1_555 1_555
Co1_2 N5 1_555 1_555
Co1A O3 1_555 1_555
Co1D N3 1_555 1_555
N3D Co1 1_555 1_555
N5_2 Co1 1_555 1_555
O3A Co1 1_555 1_555
C22B C22 1_555 1_555
H15B C22B 1_555 1_555
C23B S2 1_555 1_555
C24B C23B 1_555 1_555
O5B C24B 1_555 1_555
O6B C24B 1_555 1_555
H16B O6B 1_555 1_555
N2 C9 1_555 1_555
N4 C15 1_555 1_555
N6 C12 1_555 1_555
O2 C1 1_555 1_555
C5 S1 1_555 1_555
C17 C18 1_555 1_555
C19 C21 1_555 1_555
C20 C21 1_555 1_555
C26 N7 1_555 1_555
C27 N7 1_555 1_555
C22B C23B 1_555 1_555

#END
