
#######################################################################
#
#                 Cambridge Crystallographic Data Centre
#                                CCDC 
#
#######################################################################
#
# If this CIF has been generated from an entry in the Cambridge 
# Structural Database, then it will include bibliographic, chemical, 
# crystal, experimental, refinement or atomic coordinate data resulting 
# from the CCDC's data processing and validation procedures.
#
#######################################################################

data_NIJXOV
_symmetry_cell_setting           orthorhombic
_symmetry_space_group_name_H-M   'P b c a'
_symmetry_Int_Tables_number      61
_space_group_name_Hall           '-P 2ac 2ab'
loop_
_symmetry_equiv_pos_site_id
_symmetry_equiv_pos_as_xyz
1 x,y,z
2 1/2-x,-y,1/2+z
3 1/2+x,1/2-y,-z
4 -x,1/2+y,1/2-z
5 -x,-y,-z
6 1/2+x,y,1/2-z
7 1/2-x,1/2+y,z
8 x,1/2-y,1/2+z
_cell_length_a                   8.3121(8)
_cell_length_b                   6.0287(6)
_cell_length_c                   35.930(3)
_cell_angle_alpha                90
_cell_angle_beta                 90
_cell_angle_gamma                90
_cell_volume                     1800.49
loop_
_atom_site_label
_atom_site_type_symbol
_atom_site_fract_x
_atom_site_fract_y
_atom_site_fract_z
S1 S 0.50598(6) 0.11687(8) 0.950009(13)
O1 O 0.67113(17) 0.0690(2) 0.96029(4)
O2 O 0.39805(19) -0.0717(3) 0.95165(4)
O3 O 0.44483(18) 0.3026(2) 0.97215(4)
O4 O 0.4881(4) 0.4270(4) 0.79459(6)
C1 C 0.5047(2) 0.2071(4) 0.90315(6)
C2 C 0.4151(4) 0.0971(4) 0.87675(7)
H1 H 0.3570 -0.0291 0.8831
C3 C 0.4122(4) 0.1762(5) 0.84065(7)
H2 H 0.3511 0.1036 0.8227
C4 C 0.4991(4) 0.3615(5) 0.83113(7)
C5 C 0.5888(4) 0.4721(5) 0.85733(7)
H3 H 0.6477 0.5974 0.8508
C6 C 0.5902(3) 0.3942(4) 0.89371(7)
H4 H 0.6493 0.4688 0.9118
C7 C 0.5762(7) 0.6163(7) 0.78319(10)
H5 H 0.5575 0.6431 0.7572
H6 H 0.6888 0.5913 0.7873
H7 H 0.5418 0.7428 0.7973
Na1 Na 0.18295(10) 0.12772(12) 0.98998(2)
O1B O 0.17113(17) 0.4310(2) 1.03971(4)
O1D O 0.32887(17) -0.0690(2) 1.03971(4)
O2F O 0.10195(19) 0.4283(3) 0.95165(4)
O3B O -0.05517(18) 0.1974(2) 1.02785(4)
O3F O 0.05517(18) -0.1974(2) 0.97215(4)
Na1B Na 0.68295(10) 0.37228(12) 1.01002(2)
Na1D Na 0.81705(10) -0.12772(12) 1.01002(2)
Na1F Na 0.31705(10) -0.37228(12) 0.98998(2)
Na1F_2 Na 0.31705(10) 0.62772(12) 0.98998(2)
loop_
_geom_bond_atom_site_label_1
_geom_bond_atom_site_label_2
_geom_bond_site_symmetry_1
_geom_bond_site_symmetry_2
S1 O1 1_555 1_555
O1 Na1B 1_555 1_555
O2 S1 1_555 1_555
O3 S1 1_555 1_555
O4 C4 1_555 1_555
C1 S1 1_555 1_555
C2 C1 1_555 1_555
H1 C2 1_555 1_555
C3 C2 1_555 1_555
H2 C3 1_555 1_555
C4 C3 1_555 1_555
C5 C4 1_555 1_555
H3 C5 1_555 1_555
C6 C1 1_555 1_555
H4 C6 1_555 1_555
C7 O4 1_555 1_555
H5 C7 1_555 1_555
H6 C7 1_555 1_555
H7 C7 1_555 1_555
Na1 O2 1_555 1_555
O1B Na1 1_555 1_555
O1D Na1 1_555 1_555
O2F Na1 1_555 1_555
O3B Na1 1_555 1_555
O3F Na1 1_555 1_555
Na1B O3 1_555 1_555
Na1D O1 1_555 1_555
Na1F O2 1_555 1_555
Na1F_2 O3 1_555 1_555
O3 Na1 1_555 1_555
C5 C6 1_555 1_555
O1B Na1F_2 1_555 1_555
O1D Na1F 1_555 1_555
O2F Na1F_2 1_555 1_555
O3F Na1F 1_555 1_555

#END
