
#######################################################################
#
#                 Cambridge Crystallographic Data Centre
#                                CCDC 
#
#######################################################################
#
# If this CIF has been generated from an entry in the Cambridge 
# Structural Database, then it will include bibliographic, chemical, 
# crystal, experimental, refinement or atomic coordinate data resulting 
# from the CCDC's data processing and validation procedures.
#
#######################################################################

data_NIJYAI
_symmetry_cell_setting           monoclinic
_symmetry_space_group_name_H-M   'P 21/c'
_symmetry_Int_Tables_number      14
_space_group_name_Hall           '-P 2ybc'
loop_
_symmetry_equiv_pos_site_id
_symmetry_equiv_pos_as_xyz
1 x,y,z
2 -x,1/2+y,1/2-z
3 -x,-y,-z
4 x,1/2-y,1/2+z
_cell_length_a                   9.0396(18)
_cell_length_b                   10.003(2)
_cell_length_c                   19.505(4)
_cell_angle_alpha                90
_cell_angle_beta                 90.80(3)
_cell_angle_gamma                90
_cell_volume                     1763.53
loop_
_atom_site_label
_atom_site_type_symbol
_atom_site_fract_x
_atom_site_fract_y
_atom_site_fract_z
Zn1 Zn 0.43179(5) -0.36826(4) 0.05317(2)
N1 N 0.2287(3) -0.2862(3) 0.04766(16)
N2 N 0.1210(4) -0.3287(3) -0.00016(16)
H1 H 0.1439 -0.3966 -0.0249
N3 N 0.4324(3) 0.2709(3) 0.32445(17)
H2 H 0.5157 0.3123 0.3234
N4 N 0.4128(3) 0.1846(3) 0.37908(16)
N5 N -0.2690(4) 0.2278(4) 0.1621(2)
N6 N -0.2974(5) 0.3308(4) 0.2070(2)
H3 H -0.2361 0.3479 0.2399
H4 H -0.3764 0.3779 0.2020
N7 N 0.4965(4) -0.3445(3) -0.04756(17)
N8 N 0.6093(3) -0.4317(3) -0.07255(17)
O1 O 0.2930(3) -0.1460(3) 0.13258(15)
O2 O -0.0961(3) -0.3219(3) -0.05666(14)
O3 O 0.3706(3) 0.3757(3) 0.22599(15)
O4 O 0.2696(3) 0.0410(3) 0.43481(13)
C1 C 0.0165(4) -0.0174(4) 0.12764(19)
H5 H 0.0850 0.0083 0.1612
C2 C -0.1194(4) 0.0491(4) 0.12270(18)
C3 C -0.2221(4) 0.0047(4) 0.07260(19)
H6 H -0.3141 0.0458 0.0690
C4 C -0.1884(4) -0.0984(4) 0.0289(2)
H7 H -0.2573 -0.1250 -0.0042
C5 C -0.0512(4) -0.1644(4) 0.03359(18)
C6 C 0.0511(4) -0.1215(3) 0.08322(18)
C7 C -0.0128(4) -0.2759(4) -0.01158(18)
C8 C 0.1972(4) -0.1861(4) 0.08868(18)
C9 C 0.0862(4) 0.2407(3) 0.22608(18)
H8 H 0.1038 0.2951 0.1884
C10 C -0.0470(4) 0.1716(4) 0.23082(18)
C11 C -0.0753(4) 0.0955(4) 0.28879(19)
H9 H -0.1667 0.0538 0.2931
C12 C 0.0310(4) 0.0810(4) 0.34024(19)
H10 H 0.0117 0.0288 0.3785
C13 C 0.1670(4) 0.1453(3) 0.33420(17)
C14 C 0.1932(4) 0.2284(4) 0.27787(18)
C15 C 0.3370(4) 0.2975(4) 0.27309(19)
C16 C 0.2847(4) 0.1214(3) 0.38534(18)
C17 C -0.1516(4) 0.1600(4) 0.17060(18)
H11 H 0.426(5) -0.359(4) -0.066(2)
H12 H 0.510(5) -0.270(5) -0.059(2)
H13 H 0.635(4) -0.417(4) -0.117(2)
H14 H 0.695(6) -0.415(5) -0.058(3)
Zn1A Zn 0.56821(5) 0.13174(4) 0.44683(2)
Zn1B Zn 0.56821(5) -0.63174(4) -0.05317(2)
N4A N 0.5872(3) -0.3154(3) 0.12092(16)
N8B N 0.3907(3) -0.5683(3) 0.07255(17)
O5 O 0.4141(5) 0.1087(4) 0.1235(2)
loop_
_geom_bond_atom_site_label_1
_geom_bond_atom_site_label_2
_geom_bond_site_symmetry_1
_geom_bond_site_symmetry_2
Zn1 N1 1_555 1_555
N1 N2 1_555 1_555
N2 H1 1_555 1_555
N3 H2 1_555 1_555
N4 N3 1_555 1_555
N5 N6 1_555 1_555
N6 H3 1_555 1_555
H4 N6 1_555 1_555
N7 Zn1 1_555 1_555
N8 N7 1_555 1_555
O1 C8 1_555 1_555
O2 C7 1_555 1_555
O3 C15 1_555 1_555
O4 C16 1_555 1_555
C1 H5 1_555 1_555
C2 C1 1_555 1_555
C3 C2 1_555 1_555
H6 C3 1_555 1_555
C4 C3 1_555 1_555
H7 C4 1_555 1_555
C5 C4 1_555 1_555
C6 C1 1_555 1_555
C7 N2 1_555 1_555
C8 N1 1_555 1_555
C9 H8 1_555 1_555
C10 C9 1_555 1_555
C11 C10 1_555 1_555
H9 C11 1_555 1_555
C12 C11 1_555 1_555
H10 C12 1_555 1_555
C13 C12 1_555 1_555
C14 C9 1_555 1_555
C15 N3 1_555 1_555
C16 N4 1_555 1_555
C17 N5 1_555 1_555
H11 N7 1_555 1_555
H12 N7 1_555 1_555
H13 N8 1_555 1_555
H14 N8 1_555 1_555
Zn1A N4 1_555 1_555
Zn1B N8 1_555 1_555
N4A Zn1 1_555 1_555
N8B Zn1 1_555 1_555
C2 C17 1_555 1_555
C5 C6 1_555 1_555
C5 C7 1_555 1_555
C6 C8 1_555 1_555
C10 C17 1_555 1_555
C13 C14 1_555 1_555
C13 C16 1_555 1_555
C14 C15 1_555 1_555

#END
