
#######################################################################
#
#                 Cambridge Crystallographic Data Centre
#                                CCDC 
#
#######################################################################
#
# If this CIF has been generated from an entry in the Cambridge 
# Structural Database, then it will include bibliographic, chemical, 
# crystal, experimental, refinement or atomic coordinate data resulting 
# from the CCDC's data processing and validation procedures.
#
#######################################################################

data_NIKBIU
_symmetry_cell_setting           monoclinic
_symmetry_space_group_name_H-M   'C 2/c'
_symmetry_Int_Tables_number      15
_space_group_name_Hall           '-C 2yn'
loop_
_symmetry_equiv_pos_site_id
_symmetry_equiv_pos_as_xyz
1 x,y,z
2 -x,y,1/2-z
3 1/2+x,1/2+y,z
4 1/2-x,1/2+y,1/2-z
5 -x,-y,-z
6 x,-y,1/2+z
7 1/2-x,1/2-y,-z
8 1/2+x,1/2-y,1/2+z
_cell_length_a                   24.778(12)
_cell_length_b                   15.194(8)
_cell_length_c                   15.200(7)
_cell_angle_alpha                90
_cell_angle_beta                 97.601(12)
_cell_angle_gamma                90
_cell_volume                     5672.17
loop_
_atom_site_label
_atom_site_type_symbol
_atom_site_fract_x
_atom_site_fract_y
_atom_site_fract_z
Sm1 Sm 0.16187(3) 0.76796(4) 1.02260(5)
O1 O 0.2443(4) 0.6628(6) 0.9973(6)
O2 O 0.1638(4) 0.6091(5) 0.9833(6)
O3 O 0.2707(3) 0.7432(6) 0.8360(5)
O4 O 0.3147(4) 0.6187(6) 0.8627(6)
O5 O 0.1125(3) 0.7056(7) 1.1271(6)
O6 O 0.0612(4) 0.8194(7) 1.1471(8)
O7 O 0.1695(4) 0.7892(7) 0.8673(7)
H1 H 0.138(3) 0.794(9) 0.837(8)
H2 H 0.199(3) 0.808(9) 0.850(9)
N1 N 0.0653(4) 0.7383(7) 0.9338(6)
N2 N 0.1008(4) 0.9036(7) 0.9740(7)
N3 N -0.1030(5) 0.8694(8) 0.7752(8)
N4 N -0.0730(5) 1.0062(8) 0.8078(7)
H3 H -0.0733 1.0627 0.8108
C1 C 0.0472(5) 0.6564(9) 0.9165(9)
H4 H 0.0693 0.6099 0.9390
C2 C -0.0026(6) 0.6363(9) 0.8666(10)
H5 H -0.0132 0.5781 0.8563
C3 C -0.0354(5) 0.7033(9) 0.8335(9)
H6 H -0.0683 0.6917 0.7984
C4 C -0.0188(5) 0.7915(8) 0.8533(8)
C5 C -0.0499(6) 0.8659(10) 0.8232(9)
C6 C -0.1124(6) 0.9544(11) 0.7683(10)
H7 H -0.1445 0.9770 0.7379
C7 C -0.0311(5) 0.9505(8) 0.8430(9)
C8 C 0.0194(5) 0.9690(8) 0.8926(8)
C9 C 0.0391(5) 1.0524(8) 0.9165(10)
H8 H 0.0187 1.1022 0.8986
C10 C 0.0880(5) 1.0601(9) 0.9659(10)
H9 H 0.1025 1.1156 0.9804
C11 C 0.1170(5) 0.9850(8) 0.9951(9)
H10 H 0.1498 0.9922 1.0318
C12 C 0.0512(5) 0.8935(8) 0.9233(9)
C13 C 0.0318(5) 0.8047(8) 0.9048(8)
C14 C 0.2132(6) 0.6008(8) 0.9811(8)
C15 C 0.2353(5) 0.5111(8) 0.9625(9)
C16 C 0.2541(5) 0.4626(8) 1.0362(8)
H11 H 0.2522 0.4857 1.0924
C17 C 0.2763(5) 0.3780(9) 1.0277(9)
H12 H 0.2885 0.3448 1.0778
C18 C 0.2796(5) 0.3451(8) 0.9436(9)
H13 H 0.2949 0.2899 0.9371
C19 C 0.2602(5) 0.3944(8) 0.8683(10)
H14 H 0.2625 0.3723 0.8119
C20 C 0.2371(5) 0.4783(8) 0.8789(9)
C21 C 0.2135(5) 0.5273(8) 0.7962(9)
C22 C 0.1734(6) 0.4847(9) 0.7390(10)
H15 H 0.1646 0.4264 0.7493
C23 C 0.1459(6) 0.5301(10) 0.6652(9)
H16 H 0.1187 0.5016 0.6279
C24 C 0.1585(5) 0.6136(9) 0.6481(9)
H17 H 0.1397 0.6435 0.6001
C25 C 0.2000(6) 0.6544(9) 0.7032(9)
H18 H 0.2094 0.7120 0.6913
C26 C 0.2280(5) 0.6114(8) 0.7759(8)
C27 C 0.2738(6) 0.6614(10) 0.8288(9)
C28 C 0.0824(5) 0.7486(9) 1.1719(10)
C29 C 0.0747(5) 0.7121(7) 1.2617(9)
C30 C 0.0255(5) 0.6820(8) 1.2834(8)
C31 C 0.0248(6) 0.6487(9) 1.3684(9)
H19 H -0.0082 0.6300 1.3850
C32 C 0.0702(7) 0.6426(12) 1.4276(10)
H20 H 0.0688 0.6163 1.4824
C33 C 0.1176(6) 0.6747(11) 1.4071(10)
H21 H 0.1481 0.6749 1.4500
C34 C 0.1218(5) 0.7079(9) 1.3224(9)
H22 H 0.1551 0.7266 1.3072
O5A O -0.1125(3) 0.7056(7) 1.3729(6)
O6A O -0.0612(4) 0.8194(7) 1.3529(8)
C28A C -0.0824(5) 0.7486(9) 1.3281(10)
C29A C -0.0747(5) 0.7121(7) 1.2383(9)
C30A C -0.0255(5) 0.6820(8) 1.2166(8)
C31A C -0.0248(6) 0.6487(9) 1.1316(9)
H19A H 0.0082 0.6300 1.1150
C32A C -0.0702(7) 0.6426(12) 1.0724(10)
H20A H -0.0688 0.6163 1.0176
C33A C -0.1176(6) 0.6747(11) 1.0929(10)
H21A H -0.1481 0.6749 1.0500
C34A C -0.1218(5) 0.7079(9) 1.1776(9)
H22A H -0.1551 0.7266 1.1928
Sm1A Sm -0.16187(3) 0.76796(4) 1.47740(5)
O1A O -0.2443(4) 0.6628(6) 1.5027(6)
O2A O -0.1638(4) 0.6091(5) 1.5167(6)
O3A O -0.2707(3) 0.7432(6) 1.6640(5)
O4A O -0.3147(4) 0.6187(6) 1.6373(6)
O7A O -0.1695(4) 0.7892(7) 1.6327(7)
H1A H -0.138(3) 0.794(9) 1.663(8)
H2A H -0.199(3) 0.808(9) 1.650(9)
N1A N -0.0653(4) 0.7383(7) 1.5662(6)
N2A N -0.1008(4) 0.9036(7) 1.5260(7)
N3A N 0.1030(5) 0.8694(8) 1.7248(8)
N4A N 0.0730(5) 1.0062(8) 1.6922(7)
H3A H 0.0733 1.0627 1.6892
C1A C -0.0472(5) 0.6564(9) 1.5835(9)
H4A H -0.0693 0.6099 1.5610
C2A C 0.0026(6) 0.6363(9) 1.6334(10)
H5A H 0.0132 0.5781 1.6437
C3A C 0.0354(5) 0.7033(9) 1.6665(9)
H6A H 0.0683 0.6917 1.7016
C4A C 0.0188(5) 0.7915(8) 1.6467(8)
C5A C 0.0499(6) 0.8659(10) 1.6768(9)
C6A C 0.1124(6) 0.9544(11) 1.7317(10)
H7A H 0.1445 0.9770 1.7621
C7A C 0.0311(5) 0.9505(8) 1.6570(9)
C8A C -0.0194(5) 0.9690(8) 1.6074(8)
C9A C -0.0391(5) 1.0524(8) 1.5835(10)
H8A H -0.0187 1.1022 1.6014
C10A C -0.0880(5) 1.0601(9) 1.5341(10)
H9A H -0.1025 1.1156 1.5196
C11A C -0.1170(5) 0.9850(8) 1.5049(9)
H10A H -0.1498 0.9922 1.4682
C12A C -0.0512(5) 0.8935(8) 1.5767(9)
C13A C -0.0318(5) 0.8047(8) 1.5952(8)
C14A C -0.2132(6) 0.6008(8) 1.5189(8)
C15A C -0.2353(5) 0.5111(8) 1.5375(9)
C16A C -0.2541(5) 0.4626(8) 1.4638(8)
H11A H -0.2522 0.4857 1.4076
C17A C -0.2763(5) 0.3780(9) 1.4723(9)
H12A H -0.2885 0.3448 1.4222
C18A C -0.2796(5) 0.3451(8) 1.5564(9)
H13A H -0.2949 0.2899 1.5629
C19A C -0.2602(5) 0.3944(8) 1.6317(10)
H14A H -0.2625 0.3723 1.6881
C20A C -0.2371(5) 0.4783(8) 1.6211(9)
C21A C -0.2135(5) 0.5273(8) 1.7038(9)
C22A C -0.1734(6) 0.4847(9) 1.7610(10)
H15A H -0.1646 0.4264 1.7507
C23A C -0.1459(6) 0.5301(10) 1.8348(9)
H16A H -0.1187 0.5016 1.8721
C24A C -0.1585(5) 0.6136(9) 1.8519(9)
H17A H -0.1397 0.6435 1.8999
C25A C -0.2000(6) 0.6544(9) 1.7968(9)
H18A H -0.2094 0.7120 1.8087
C26A C -0.2280(5) 0.6114(8) 1.7241(8)
C27A C -0.2738(6) 0.6614(10) 1.6712(9)
Sm1F Sm 0.33813(3) 0.73204(4) 0.97740(5)
Sm1G Sm -0.33813(3) 0.73204(4) 1.52260(5)
O1F O 0.2557(4) 0.8372(6) 1.0027(6)
O1G O -0.2557(4) 0.8372(6) 1.4973(6)
O3F O 0.2293(3) 0.7568(6) 1.1640(5)
O3G O -0.2293(3) 0.7568(6) 1.3360(5)
O4F O 0.1853(4) 0.8813(6) 1.1373(6)
O4G O -0.1853(4) 0.8813(6) 1.3627(6)
loop_
_geom_bond_atom_site_label_1
_geom_bond_atom_site_label_2
_geom_bond_site_symmetry_1
_geom_bond_site_symmetry_2
Sm1 O1 1_555 1_555
O1 C14 1_555 1_555
O2 Sm1 1_555 1_555
O3 C27 1_555 1_555
O4 C27 1_555 1_555
O5 Sm1 1_555 1_555
O6 C28 1_555 1_555
O7 Sm1 1_555 1_555
H1 O7 1_555 1_555
H2 O7 1_555 1_555
N1 Sm1 1_555 1_555
N2 Sm1 1_555 1_555
N3 C5 1_555 1_555
N4 H3 1_555 1_555
C1 N1 1_555 1_555
H4 C1 1_555 1_555
C2 C1 1_555 1_555
H5 C2 1_555 1_555
C3 C2 1_555 1_555
H6 C3 1_555 1_555
C4 C3 1_555 1_555
C5 C4 1_555 1_555
C6 N3 1_555 1_555
H7 C6 1_555 1_555
C7 N4 1_555 1_555
C8 C7 1_555 1_555
C9 C8 1_555 1_555
H8 C9 1_555 1_555
C10 C9 1_555 1_555
H9 C10 1_555 1_555
C11 N2 1_555 1_555
H10 C11 1_555 1_555
C12 N2 1_555 1_555
C13 N1 1_555 1_555
C14 O2 1_555 1_555
C15 C14 1_555 1_555
C16 C15 1_555 1_555
H11 C16 1_555 1_555
C17 C16 1_555 1_555
H12 C17 1_555 1_555
C18 C17 1_555 1_555
H13 C18 1_555 1_555
C19 C18 1_555 1_555
H14 C19 1_555 1_555
C20 C15 1_555 1_555
C21 C20 1_555 1_555
C22 C21 1_555 1_555
H15 C22 1_555 1_555
C23 C22 1_555 1_555
H16 C23 1_555 1_555
C24 C23 1_555 1_555
H17 C24 1_555 1_555
C25 C24 1_555 1_555
H18 C25 1_555 1_555
C26 C21 1_555 1_555
C27 C26 1_555 1_555
C28 O5 1_555 1_555
C29 C28 1_555 1_555
C30 C29 1_555 1_555
C31 C30 1_555 1_555
H19 C31 1_555 1_555
C32 C31 1_555 1_555
H20 C32 1_555 1_555
C33 C32 1_555 1_555
H21 C33 1_555 1_555
C34 C29 1_555 1_555
H22 C34 1_555 1_555
O5A C28A 1_555 1_555
O6A C28A 1_555 1_555
C28A C29A 1_555 1_555
C29A C30A 1_555 1_555
C30A C30 1_555 1_555
C31A C30A 1_555 1_555
H19A C31A 1_555 1_555
C32A C31A 1_555 1_555
H20A C32A 1_555 1_555
C33A C32A 1_555 1_555
H21A C33A 1_555 1_555
C34A C29A 1_555 1_555
H22A C34A 1_555 1_555
Sm1A O5A 1_555 1_555
O1A Sm1A 1_555 1_555
O2A Sm1A 1_555 1_555
O3A C27A 1_555 1_555
O4A C27A 1_555 1_555
O7A Sm1A 1_555 1_555
H1A O7A 1_555 1_555
H2A O7A 1_555 1_555
N1A Sm1A 1_555 1_555
N2A Sm1A 1_555 1_555
N3A C5A 1_555 1_555
N4A H3A 1_555 1_555
C1A N1A 1_555 1_555
H4A C1A 1_555 1_555
C2A C1A 1_555 1_555
H5A C2A 1_555 1_555
C3A C2A 1_555 1_555
H6A C3A 1_555 1_555
C4A C3A 1_555 1_555
C5A C4A 1_555 1_555
C6A N3A 1_555 1_555
H7A C6A 1_555 1_555
C7A N4A 1_555 1_555
C8A C7A 1_555 1_555
C9A C8A 1_555 1_555
H8A C9A 1_555 1_555
C10A C9A 1_555 1_555
H9A C10A 1_555 1_555
C11A N2A 1_555 1_555
H10A C11A 1_555 1_555
C12A N2A 1_555 1_555
C13A N1A 1_555 1_555
C14A O1A 1_555 1_555
C15A C14A 1_555 1_555
C16A C15A 1_555 1_555
H11A C16A 1_555 1_555
C17A C16A 1_555 1_555
H12A C17A 1_555 1_555
C18A C17A 1_555 1_555
H13A C18A 1_555 1_555
C19A C18A 1_555 1_555
H14A C19A 1_555 1_555
C20A C15A 1_555 1_555
C21A C20A 1_555 1_555
C22A C21A 1_555 1_555
H15A C22A 1_555 1_555
C23A C22A 1_555 1_555
H16A C23A 1_555 1_555
C24A C23A 1_555 1_555
H17A C24A 1_555 1_555
C25A C24A 1_555 1_555
H18A C25A 1_555 1_555
C26A C21A 1_555 1_555
C27A C26A 1_555 1_555
Sm1F O1 1_555 1_555
Sm1G O1A 1_555 1_555
O1F Sm1 1_555 1_555
O1G Sm1A 1_555 1_555
O3F Sm1 1_555 1_555
O3G Sm1A 1_555 1_555
O4F Sm1 1_555 1_555
O4G Sm1A 1_555 1_555
O3 Sm1F 1_555 1_555
O4 Sm1F 1_555 1_555
N4 C6 1_555 1_555
C4 C13 1_555 1_555
C5 C7 1_555 1_555
C8 C12 1_555 1_555
C10 C11 1_555 1_555
C12 C13 1_555 1_555
C19 C20 1_555 1_555
C25 C26 1_555 1_555
C33 C34 1_555 1_555
C33A C34A 1_555 1_555
O2A C14A 1_555 1_555
O3A Sm1G 1_555 1_555
O4A Sm1G 1_555 1_555
N4A C6A 1_555 1_555
C4A C13A 1_555 1_555
C5A C7A 1_555 1_555
C8A C12A 1_555 1_555
C10A C11A 1_555 1_555
C12A C13A 1_555 1_555
C19A C20A 1_555 1_555
C25A C26A 1_555 1_555
Sm1F O1F 1_555 1_555
Sm1G O1G 1_555 1_555

#END
