
#######################################################################
#
#                 Cambridge Crystallographic Data Centre
#                                CCDC 
#
#######################################################################
#
# If this CIF has been generated from an entry in the Cambridge 
# Structural Database, then it will include bibliographic, chemical, 
# crystal, experimental, refinement or atomic coordinate data resulting 
# from the CCDC's data processing and validation procedures.
#
#######################################################################

data_NIKBUF
_symmetry_cell_setting           monoclinic
_symmetry_space_group_name_H-M   'P 21/n'
_symmetry_Int_Tables_number      14
_space_group_name_Hall           '-P 2yn'
loop_
_symmetry_equiv_pos_site_id
_symmetry_equiv_pos_as_xyz
1 x,y,z
2 1/2-x,1/2+y,1/2-z
3 -x,-y,-z
4 1/2+x,1/2-y,1/2+z
_cell_length_a                   4.3397(5)
_cell_length_b                   25.051(3)
_cell_length_c                   12.3719(13)
_cell_angle_alpha                90
_cell_angle_beta                 92.2130(10)
_cell_angle_gamma                90
_cell_volume                     1343.99
loop_
_atom_site_label
_atom_site_type_symbol
_atom_site_fract_x
_atom_site_fract_y
_atom_site_fract_z
Hg1 Hg 0.18071(6) 0.090769(10) 0.05835(2)
I1 I 0.48488(10) 0.138691(17) -0.09382(3)
I2 I -0.20129(9) 0.025567(16) 0.15418(3)
O1 O -0.0062(12) 0.1190(2) 0.5118(3)
O2 O 0.2174(16) 0.1914(2) 0.5860(4)
N1 N 0.2649(14) 0.1560(2) 0.2082(4)
C1 C 0.4207(18) 0.2011(3) 0.1955(6)
H1 H 0.4828 0.2094 0.1264
C2 C 0.4968(19) 0.2365(3) 0.2783(6)
H2 H 0.6023 0.2679 0.2648
C3 C 0.4123(17) 0.2238(3) 0.3800(6)
H3 H 0.4628 0.2464 0.4377
C4 C 0.2522(15) 0.1775(2) 0.3967(5)
C5 C 0.1860(15) 0.1443(2) 0.3089(5)
H4 H 0.0821 0.1125 0.3207
C6 C 0.1531(18) 0.1636(3) 0.5089(6)
C7 C -0.1182(19) 0.1029(4) 0.6174(6)
H5 H -0.2580 0.1296 0.6442
H6 H 0.0531 0.0988 0.6694
C8 C -0.280(2) 0.0516(4) 0.6010(7)
H7 H -0.4537 0.0566 0.5517
H8 H -0.3494 0.0389 0.6690
H9 H -0.1413 0.0260 0.5715
Hg1_2 Hg -0.81929(6) 0.090769(10) 0.05835(2)
I2_2 I 0.79871(9) 0.025567(16) 0.15418(3)
loop_
_geom_bond_atom_site_label_1
_geom_bond_atom_site_label_2
_geom_bond_site_symmetry_1
_geom_bond_site_symmetry_2
Hg1 I1 1_555 1_555
I2 Hg1 1_555 1_555
O1 C6 1_555 1_555
O2 C6 1_555 1_555
N1 Hg1 1_555 1_555
C1 N1 1_555 1_555
H1 C1 1_555 1_555
C2 C1 1_555 1_555
H2 C2 1_555 1_555
C3 C2 1_555 1_555
H3 C3 1_555 1_555
C4 C3 1_555 1_555
C5 N1 1_555 1_555
H4 C5 1_555 1_555
C6 C4 1_555 1_555
C7 O1 1_555 1_555
H5 C7 1_555 1_555
H6 C7 1_555 1_555
C8 C7 1_555 1_555
H7 C8 1_555 1_555
H8 C8 1_555 1_555
H9 C8 1_555 1_555
Hg1_2 I2 1_555 1_555
I2_2 Hg1 1_555 1_555
C4 C5 1_555 1_555

#END
