
#######################################################################
#
#                 Cambridge Crystallographic Data Centre
#                                CCDC 
#
#######################################################################
#
# If this CIF has been generated from an entry in the Cambridge 
# Structural Database, then it will include bibliographic, chemical, 
# crystal, experimental, refinement or atomic coordinate data resulting 
# from the CCDC's data processing and validation procedures.
#
#######################################################################

data_NIKBUG
_symmetry_cell_setting           monoclinic
_symmetry_space_group_name_H-M   'C 2/c'
_symmetry_Int_Tables_number      15
_space_group_name_Hall           '-C 2yn'
loop_
_symmetry_equiv_pos_site_id
_symmetry_equiv_pos_as_xyz
1 x,y,z
2 -x,y,1/2-z
3 1/2+x,1/2+y,z
4 1/2-x,1/2+y,1/2-z
5 -x,-y,-z
6 x,-y,1/2+z
7 1/2-x,1/2-y,-z
8 1/2+x,1/2-y,1/2+z
_cell_length_a                   24.833(6)
_cell_length_b                   15.143(3)
_cell_length_c                   15.160(3)
_cell_angle_alpha                90
_cell_angle_beta                 97.889(6)
_cell_angle_gamma                90
_cell_volume                     5646.91
loop_
_atom_site_label
_atom_site_type_symbol
_atom_site_fract_x
_atom_site_fract_y
_atom_site_fract_z
Gd1 Gd 0.16237(2) 0.76765(3) 1.02296(3)
O1 O 0.2464(3) 0.6638(4) 0.9963(5)
O2 O 0.1651(3) 0.6107(4) 0.9879(5)
O3 O 0.2697(3) 0.7448(4) 0.8349(4)
O4 O 0.3149(3) 0.6212(4) 0.8631(4)
O5 O 0.1119(3) 0.7110(5) 1.1262(4)
O6 O 0.0593(3) 0.8229(5) 1.1497(6)
O7 O 0.1688(3) 0.7884(5) 0.8687(5)
N1 N 0.0668(3) 0.7360(5) 0.9351(5)
N2 N 0.1011(3) 0.9018(5) 0.9757(5)
N3 N -0.1015(3) 0.8656(6) 0.7733(6)
N4 N -0.0722(3) 1.0023(6) 0.8091(6)
H1 H -0.0724 1.0590 0.8114
C1 C 0.0510(5) 0.6529(7) 0.9170(7)
H2 H 0.0741 0.6069 0.9381
C2 C 0.0008(5) 0.6331(7) 0.8673(7)
H3 H -0.0096 0.5747 0.8562
C3 C -0.0324(4) 0.6998(7) 0.8355(6)
H4 H -0.0656 0.6866 0.8016
C4 C -0.0184(4) 0.7886(6) 0.8523(6)
C5 C -0.0503(4) 0.8625(7) 0.8230(6)
C6 C -0.1117(5) 0.9502(8) 0.7703(7)
H5 H -0.1446 0.9728 0.7427
C7 C -0.0312(4) 0.9471(7) 0.8446(7)
C8 C 0.0202(4) 0.9645(6) 0.8965(7)
C9 C 0.0399(4) 1.0492(7) 0.9166(7)
H6 H 0.0193 1.0984 0.8967
C10 C 0.0896(4) 1.0589(7) 0.9656(7)
H7 H 0.1039 1.1147 0.9793
C11 C 0.1184(4) 0.9840(7) 0.9947(6)
H8 H 0.1520 0.9912 1.0296
C12 C 0.0523(4) 0.8929(7) 0.9230(6)
C13 C 0.0342(4) 0.8024(7) 0.9046(6)
C14 C 0.2152(5) 0.5998(6) 0.9842(7)
C15 C 0.2362(4) 0.5107(6) 0.9643(7)
C16 C 0.2564(4) 0.4609(6) 1.0379(7)
H9 H 0.2562 0.4841 1.0946
C17 C 0.2772(4) 0.3763(7) 1.0283(7)
H10 H 0.2893 0.3422 1.0781
C18 C 0.2796(4) 0.3444(6) 0.9446(7)
H11 H 0.2946 0.2890 0.9377
C19 C 0.2601(4) 0.3932(6) 0.8703(8)
H12 H 0.2621 0.3704 0.8139
C20 C 0.2373(4) 0.4763(6) 0.8786(6)
C21 C 0.2134(4) 0.5275(6) 0.7979(6)
C22 C 0.1736(5) 0.4845(7) 0.7394(8)
H13 H 0.1651 0.4259 0.7495
C23 C 0.1473(4) 0.5281(7) 0.6678(7)
H14 H 0.1208 0.4978 0.6302
C24 C 0.1576(5) 0.6141(7) 0.6480(7)
H15 H 0.1384 0.6423 0.5990
C25 C 0.1984(5) 0.6577(7) 0.7048(7)
H16 H 0.2058 0.7168 0.6948
C26 C 0.2272(4) 0.6143(6) 0.7742(6)
C27 C 0.2739(4) 0.6619(7) 0.8281(6)
C28 C 0.0828(4) 0.7541(7) 1.1719(7)
C29 C 0.0742(4) 0.7127(6) 1.2609(6)
C30 C 0.0257(3) 0.6841(6) 1.2821(6)
C31 C 0.0238(5) 0.6470(8) 1.3680(7)
H17 H -0.0089 0.6257 1.3830
C32 C 0.0700(5) 0.6425(9) 1.4284(7)
H18 H 0.0683 0.6185 1.4844
C33 C 0.1190(5) 0.6731(8) 1.4074(7)
H19 H 0.1501 0.6710 1.4493
C34 C 0.1213(4) 0.7069(7) 1.3239(6)
H20 H 0.1544 0.7261 1.3087
H21 H 0.1521 0.8064 0.8343
H22 H 0.1995 0.7828 0.8497
O5A O -0.1119(3) 0.7110(5) 1.3738(4)
O6A O -0.0593(3) 0.8229(5) 1.3503(6)
C28A C -0.0828(4) 0.7541(7) 1.3281(7)
C29A C -0.0742(4) 0.7127(6) 1.2391(6)
C30A C -0.0257(3) 0.6841(6) 1.2179(6)
C31A C -0.0238(5) 0.6470(8) 1.1320(7)
H17A H 0.0089 0.6257 1.1170
C32A C -0.0700(5) 0.6425(9) 1.0716(7)
H18A H -0.0683 0.6185 1.0156
C33A C -0.1190(5) 0.6731(8) 1.0926(7)
H19A H -0.1501 0.6710 1.0507
C34A C -0.1213(4) 0.7069(7) 1.1761(6)
H20A H -0.1544 0.7261 1.1913
Gd1A Gd -0.16237(2) 0.76765(3) 1.47704(3)
O1A O -0.2464(3) 0.6638(4) 1.5037(5)
O2A O -0.1651(3) 0.6107(4) 1.5121(5)
O3A O -0.2697(3) 0.7448(4) 1.6651(4)
O4A O -0.3149(3) 0.6212(4) 1.6369(4)
O7A O -0.1688(3) 0.7884(5) 1.6313(5)
N1A N -0.0668(3) 0.7360(5) 1.5649(5)
N2A N -0.1011(3) 0.9018(5) 1.5243(5)
N3A N 0.1015(3) 0.8656(6) 1.7267(6)
N4A N 0.0722(3) 1.0023(6) 1.6909(6)
H1A H 0.0724 1.0590 1.6886
C1A C -0.0510(5) 0.6529(7) 1.5830(7)
H2A H -0.0741 0.6069 1.5619
C2A C -0.0008(5) 0.6331(7) 1.6327(7)
H3A H 0.0096 0.5747 1.6438
C3A C 0.0324(4) 0.6998(7) 1.6645(6)
H4A H 0.0656 0.6866 1.6984
C4A C 0.0184(4) 0.7886(6) 1.6477(6)
C5A C 0.0503(4) 0.8625(7) 1.6770(6)
C6A C 0.1117(5) 0.9502(8) 1.7297(7)
H5A H 0.1446 0.9728 1.7573
C7A C 0.0312(4) 0.9471(7) 1.6554(7)
C8A C -0.0202(4) 0.9645(6) 1.6035(7)
C9A C -0.0399(4) 1.0492(7) 1.5834(7)
H6A H -0.0193 1.0984 1.6033
C10A C -0.0896(4) 1.0589(7) 1.5344(7)
H7A H -0.1039 1.1147 1.5207
C11A C -0.1184(4) 0.9840(7) 1.5053(6)
H8A H -0.1520 0.9912 1.4704
C12A C -0.0523(4) 0.8929(7) 1.5770(6)
C13A C -0.0342(4) 0.8024(7) 1.5954(6)
C14A C -0.2152(5) 0.5998(6) 1.5158(7)
C15A C -0.2362(4) 0.5107(6) 1.5357(7)
C16A C -0.2564(4) 0.4609(6) 1.4621(7)
H9A H -0.2562 0.4841 1.4054
C17A C -0.2772(4) 0.3763(7) 1.4717(7)
H10A H -0.2893 0.3422 1.4219
C18A C -0.2796(4) 0.3444(6) 1.5554(7)
H11A H -0.2946 0.2890 1.5623
C19A C -0.2601(4) 0.3932(6) 1.6297(8)
H12A H -0.2621 0.3704 1.6861
C20A C -0.2373(4) 0.4763(6) 1.6214(6)
C21A C -0.2134(4) 0.5275(6) 1.7021(6)
C22A C -0.1736(5) 0.4845(7) 1.7606(8)
H13A H -0.1651 0.4259 1.7505
C23A C -0.1473(4) 0.5281(7) 1.8322(7)
H14A H -0.1208 0.4978 1.8698
C24A C -0.1576(5) 0.6141(7) 1.8520(7)
H15A H -0.1384 0.6423 1.9010
C25A C -0.1984(5) 0.6577(7) 1.7952(7)
H16A H -0.2058 0.7168 1.8052
C26A C -0.2272(4) 0.6143(6) 1.7258(6)
C27A C -0.2739(4) 0.6619(7) 1.6719(6)
H21A H -0.1521 0.8064 1.6657
H22A H -0.1995 0.7828 1.6503
Gd1F Gd 0.33763(2) 0.73235(3) 0.97704(3)
Gd1G Gd -0.33763(2) 0.73235(3) 1.52296(3)
O1F O 0.2536(3) 0.8362(4) 1.0037(5)
O1G O -0.2536(3) 0.8362(4) 1.4963(5)
O3F O 0.2303(3) 0.7552(4) 1.1651(4)
O3G O -0.2303(3) 0.7552(4) 1.3349(4)
O4F O 0.1851(3) 0.8788(4) 1.1369(4)
O4G O -0.1851(3) 0.8788(4) 1.3631(4)
loop_
_geom_bond_atom_site_label_1
_geom_bond_atom_site_label_2
_geom_bond_site_symmetry_1
_geom_bond_site_symmetry_2
Gd1 O1 1_555 1_555
O1 C14 1_555 1_555
O2 Gd1 1_555 1_555
O3 C27 1_555 1_555
O4 C27 1_555 1_555
O5 Gd1 1_555 1_555
O6 C28 1_555 1_555
O7 Gd1 1_555 1_555
N1 Gd1 1_555 1_555
N2 Gd1 1_555 1_555
N3 C5 1_555 1_555
N4 H1 1_555 1_555
C1 N1 1_555 1_555
H2 C1 1_555 1_555
C2 C1 1_555 1_555
H3 C2 1_555 1_555
C3 C2 1_555 1_555
H4 C3 1_555 1_555
C4 C3 1_555 1_555
C5 C4 1_555 1_555
C6 N3 1_555 1_555
H5 C6 1_555 1_555
C7 N4 1_555 1_555
C8 C7 1_555 1_555
C9 C8 1_555 1_555
H6 C9 1_555 1_555
C10 C9 1_555 1_555
H7 C10 1_555 1_555
C11 N2 1_555 1_555
H8 C11 1_555 1_555
C12 N2 1_555 1_555
C13 N1 1_555 1_555
C14 O2 1_555 1_555
C15 C14 1_555 1_555
C16 C15 1_555 1_555
H9 C16 1_555 1_555
C17 C16 1_555 1_555
H10 C17 1_555 1_555
C18 C17 1_555 1_555
H11 C18 1_555 1_555
C19 C18 1_555 1_555
H12 C19 1_555 1_555
C20 C15 1_555 1_555
C21 C20 1_555 1_555
C22 C21 1_555 1_555
H13 C22 1_555 1_555
C23 C22 1_555 1_555
H14 C23 1_555 1_555
C24 C23 1_555 1_555
H15 C24 1_555 1_555
C25 C24 1_555 1_555
H16 C25 1_555 1_555
C26 C21 1_555 1_555
C27 C26 1_555 1_555
C28 O5 1_555 1_555
C29 C28 1_555 1_555
C30 C29 1_555 1_555
C31 C30 1_555 1_555
H17 C31 1_555 1_555
C32 C31 1_555 1_555
H18 C32 1_555 1_555
C33 C32 1_555 1_555
H19 C33 1_555 1_555
C34 C29 1_555 1_555
H20 C34 1_555 1_555
H21 O7 1_555 1_555
H22 O7 1_555 1_555
O5A C28A 1_555 1_555
O6A C28A 1_555 1_555
C28A C29A 1_555 1_555
C29A C30A 1_555 1_555
C30A C30 1_555 1_555
C31A C30A 1_555 1_555
H17A C31A 1_555 1_555
C32A C31A 1_555 1_555
H18A C32A 1_555 1_555
C33A C32A 1_555 1_555
H19A C33A 1_555 1_555
C34A C29A 1_555 1_555
H20A C34A 1_555 1_555
Gd1A O5A 1_555 1_555
O1A Gd1A 1_555 1_555
O2A Gd1A 1_555 1_555
O3A C27A 1_555 1_555
O4A C27A 1_555 1_555
O7A Gd1A 1_555 1_555
N1A Gd1A 1_555 1_555
N2A Gd1A 1_555 1_555
N3A C5A 1_555 1_555
N4A H1A 1_555 1_555
C1A N1A 1_555 1_555
H2A C1A 1_555 1_555
C2A C1A 1_555 1_555
H3A C2A 1_555 1_555
C3A C2A 1_555 1_555
H4A C3A 1_555 1_555
C4A C3A 1_555 1_555
C5A C4A 1_555 1_555
C6A N3A 1_555 1_555
H5A C6A 1_555 1_555
C7A N4A 1_555 1_555
C8A C7A 1_555 1_555
C9A C8A 1_555 1_555
H6A C9A 1_555 1_555
C10A C9A 1_555 1_555
H7A C10A 1_555 1_555
C11A N2A 1_555 1_555
H8A C11A 1_555 1_555
C12A N2A 1_555 1_555
C13A N1A 1_555 1_555
C14A O1A 1_555 1_555
C15A C14A 1_555 1_555
C16A C15A 1_555 1_555
H9A C16A 1_555 1_555
C17A C16A 1_555 1_555
H10A C17A 1_555 1_555
C18A C17A 1_555 1_555
H11A C18A 1_555 1_555
C19A C18A 1_555 1_555
H12A C19A 1_555 1_555
C20A C15A 1_555 1_555
C21A C20A 1_555 1_555
C22A C21A 1_555 1_555
H13A C22A 1_555 1_555
C23A C22A 1_555 1_555
H14A C23A 1_555 1_555
C24A C23A 1_555 1_555
H15A C24A 1_555 1_555
C25A C24A 1_555 1_555
H16A C25A 1_555 1_555
C26A C21A 1_555 1_555
C27A C26A 1_555 1_555
H21A O7A 1_555 1_555
H22A O7A 1_555 1_555
Gd1F O1 1_555 1_555
Gd1G O1A 1_555 1_555
O1F Gd1 1_555 1_555
O1G Gd1A 1_555 1_555
O3F Gd1 1_555 1_555
O3G Gd1A 1_555 1_555
O4F Gd1 1_555 1_555
O4G Gd1A 1_555 1_555
O3 Gd1F 1_555 1_555
O4 Gd1F 1_555 1_555
N4 C6 1_555 1_555
C4 C13 1_555 1_555
C5 C7 1_555 1_555
C8 C12 1_555 1_555
C10 C11 1_555 1_555
C12 C13 1_555 1_555
C19 C20 1_555 1_555
C25 C26 1_555 1_555
C33 C34 1_555 1_555
C33A C34A 1_555 1_555
O2A C14A 1_555 1_555
O3A Gd1G 1_555 1_555
O4A Gd1G 1_555 1_555
N4A C6A 1_555 1_555
C4A C13A 1_555 1_555
C5A C7A 1_555 1_555
C8A C12A 1_555 1_555
C10A C11A 1_555 1_555
C12A C13A 1_555 1_555
C19A C20A 1_555 1_555
C25A C26A 1_555 1_555
Gd1F O1F 1_555 1_555
Gd1G O1G 1_555 1_555

#END
