
#######################################################################
#
#                 Cambridge Crystallographic Data Centre
#                                CCDC 
#
#######################################################################
#
# If this CIF has been generated from an entry in the Cambridge 
# Structural Database, then it will include bibliographic, chemical, 
# crystal, experimental, refinement or atomic coordinate data resulting 
# from the CCDC's data processing and validation procedures.
#
#######################################################################

data_NIKCAM
_symmetry_cell_setting           triclinic
_symmetry_space_group_name_H-M   'P -1'
_symmetry_Int_Tables_number      2
_space_group_name_Hall           '-P 1'
loop_
_symmetry_equiv_pos_site_id
_symmetry_equiv_pos_as_xyz
1 x,y,z
2 -x,-y,-z
_cell_length_a                   7.675(2)
_cell_length_b                   8.225(3)
_cell_length_c                   10.845(3)
_cell_angle_alpha                86.996(4)
_cell_angle_beta                 76.292(4)
_cell_angle_gamma                68.890(4)
_cell_volume                     620.065
loop_
_atom_site_label
_atom_site_type_symbol
_atom_site_fract_x
_atom_site_fract_y
_atom_site_fract_z
Cu1 Cu 0.5000 1.0000 0.0000
Cu2 Cu 0.5000 0.5000 0.5000
N1 N 0.5706(3) 0.7560(3) 0.0660(2)
N2 N 0.4020(3) 0.5133(3) 0.3340(2)
H1 H 0.3876 0.4113 0.3237
H2 H 0.2841 0.5965 0.3478
O1 O 0.2264(3) 1.0267(3) 0.0272(3)
O2 O 0.5715(4) 0.8711(3) -0.2162(3)
O3 O 0.2296(3) 0.5486(4) 0.5953(2)
O4 O 0.4429(4) 0.7869(3) 0.4861(3)
C1 C 0.4702(4) 0.7166(3) 0.1744(3)
H3 H 0.3687 0.8060 0.2237
C2 C 0.5118(4) 0.5474(3) 0.2159(3)
C3 C 0.6628(4) 0.4144(4) 0.1416(3)
H4 H 0.6933 0.2995 0.1665
C4 C 0.7662(4) 0.4550(4) 0.0311(3)
H5 H 0.8691 0.3681 -0.0194
C5 C 0.7164(4) 0.6256(4) -0.0043(3)
H6 H 0.7865 0.6516 -0.0800
H7 H 0.172(5) 0.985(4) 0.074(3)
H8 H 0.187(6) 1.041(5) -0.030(4)
H9 H 0.495(5) 0.928(4) -0.252(3)
H10 H 0.661(5) 0.860(4) -0.258(3)
H11 H 0.154(6) 0.641(5) 0.607(4)
H12 H 0.203(5) 0.487(5) 0.627(4)
H13 H 0.515(5) 0.816(4) 0.449(3)
H14 H 0.391(5) 0.855(5) 0.530(4)
Cu2_2 Cu 0.5000 1.5000 -0.5000
N1A N 0.4294(3) 1.2440(3) -0.0660(2)
N2A N 0.5980(3) 1.4867(3) -0.3340(2)
N2A_2 N 0.5980(3) 0.4867(3) 0.6660(2)
H1A H 0.6124 1.5887 -0.3237
H1A_2 H 0.6124 0.5887 0.6763
H2A H 0.7159 1.4035 -0.3478
H2A_2 H 0.7159 0.4035 0.6522
O1A O 0.7736(3) 0.9733(3) -0.0272(3)
O2A O 0.4285(4) 1.1289(3) 0.2162(3)
O3A O 0.7704(3) 0.4514(4) 0.4047(2)
O4A O 0.5571(4) 0.2131(3) 0.5139(3)
C1A C 0.5298(4) 1.2834(3) -0.1744(3)
H3A H 0.6313 1.1940 -0.2237
C2A C 0.4882(4) 1.4526(3) -0.2159(3)
C3A C 0.3372(4) 1.5856(4) -0.1416(3)
H4A H 0.3067 1.7005 -0.1665
C4A C 0.2338(4) 1.5450(4) -0.0311(3)
H5A H 0.1309 1.6319 0.0194
C5A C 0.2836(4) 1.3744(4) 0.0043(3)
H6A H 0.2135 1.3484 0.0800
H7A H 0.828(5) 1.015(4) -0.074(3)
H8A H 0.813(6) 0.959(5) 0.030(4)
H9A H 0.505(5) 1.072(4) 0.252(3)
H10A H 0.339(5) 1.140(4) 0.258(3)
H11A H 0.846(6) 0.359(5) 0.393(4)
H12A H 0.797(5) 0.513(5) 0.373(4)
H13A H 0.485(5) 0.184(4) 0.551(3)
H14A H 0.609(5) 0.145(5) 0.470(4)
O5 O 0.7017(3) 0.9239(3) 0.3439(2)
O6 O 0.9539(3) 0.9116(3) 0.1615(2)
O7 O 1.0287(3) 0.8287(3) 0.3615(2)
O8 O 0.9249(4) 0.6486(3) 0.2508(2)
S1 S 0.90236(9) 0.82685(9) 0.27967(6)
O9 O 0.9228(4) 0.8535(4) 0.6229(3)
H15 H 0.917(6) 0.855(5) 0.554(4)
H16 H 0.937(7) 0.945(6) 0.632(4)
loop_
_geom_bond_atom_site_label_1
_geom_bond_atom_site_label_2
_geom_bond_site_symmetry_1
_geom_bond_site_symmetry_2
Cu1 N1 1_555 1_555
Cu2 N2 1_555 1_555
N1 C1 1_555 1_555
N2 H1 1_555 1_555
H2 N2 1_555 1_555
O1 Cu1 1_555 1_555
O2 Cu1 1_555 1_555
O3 Cu2 1_555 1_555
O4 Cu2 1_555 1_555
O5 S1 1_555 1_555
O6 S1 1_555 1_555
O7 S1 1_555 1_555
O8 S1 1_555 1_555
O9 H15 1_555 1_555
C1 H3 1_555 1_555
C2 N2 1_555 1_555
C3 C2 1_555 1_555
H4 C3 1_555 1_555
C4 C3 1_555 1_555
H5 C4 1_555 1_555
C5 N1 1_555 1_555
H6 C5 1_555 1_555
H7 O1 1_555 1_555
H8 O1 1_555 1_555
H9 O2 1_555 1_555
H10 O2 1_555 1_555
H11 O3 1_555 1_555
H12 O3 1_555 1_555
H13 O4 1_555 1_555
H14 O4 1_555 1_555
H16 O9 1_555 1_555
Cu2_2 N2A 1_555 1_555
N1A Cu1 1_555 1_555
N2A H1A 1_555 1_555
N2A_2 Cu2 1_555 1_555
H1A_2 N2A_2 1_555 1_555
H2A N2A 1_555 1_555
H2A_2 N2A_2 1_555 1_555
O1A Cu1 1_555 1_555
O2A Cu1 1_555 1_555
O3A Cu2 1_555 1_555
O4A Cu2 1_555 1_555
C1A N1A 1_555 1_555
H3A C1A 1_555 1_555
C2A N2A 1_555 1_555
C3A C2A 1_555 1_555
H4A C3A 1_555 1_555
C4A C3A 1_555 1_555
H5A C4A 1_555 1_555
C5A N1A 1_555 1_555
H6A C5A 1_555 1_555
H7A O1A 1_555 1_555
H8A O1A 1_555 1_555
H9A O2A 1_555 1_555
H10A O2A 1_555 1_555
H11A O3A 1_555 1_555
H12A O3A 1_555 1_555
H13A O4A 1_555 1_555
H14A O4A 1_555 1_555
C1 C2 1_555 1_555
C4 C5 1_555 1_555
C1A C2A 1_555 1_555
C4A C5A 1_555 1_555

#END
