
#######################################################################
#
#                 Cambridge Crystallographic Data Centre
#                                CCDC 
#
#######################################################################
#
# If this CIF has been generated from an entry in the Cambridge 
# Structural Database, then it will include bibliographic, chemical, 
# crystal, experimental, refinement or atomic coordinate data resulting 
# from the CCDC's data processing and validation procedures.
#
#######################################################################

data_NIKCAN
_symmetry_cell_setting           monoclinic
_symmetry_space_group_name_H-M   'P 21/c'
_symmetry_Int_Tables_number      14
_space_group_name_Hall           '-P 2ybc'
loop_
_symmetry_equiv_pos_site_id
_symmetry_equiv_pos_as_xyz
1 x,y,z
2 -x,1/2+y,1/2-z
3 -x,-y,-z
4 x,1/2-y,1/2+z
_cell_length_a                   9.4500(19)
_cell_length_b                   19.880(4)
_cell_length_c                   13.513(4)
_cell_angle_alpha                90
_cell_angle_beta                 127.380(19)
_cell_angle_gamma                90
_cell_volume                     2017.27
loop_
_atom_site_label
_atom_site_type_symbol
_atom_site_fract_x
_atom_site_fract_y
_atom_site_fract_z
Zn1 Zn -0.13837(3) -0.395504(13) -0.66788(3)
Cl1 Cl -0.27066(10) -0.42280(4) -0.87172(7)
O1 O -0.0762(2) -0.54788(10) -0.4366(2)
O2 O -0.1566(2) -0.62926(9) -0.37156(19)
O3 O -0.2983(2) -0.43168(9) -0.63430(16)
O4 O -0.1269(2) -0.39733(9) -0.43787(18)
N1 N -0.1657(3) -0.29285(10) -0.66825(19)
N2 N -0.2514(3) 0.05661(10) -0.64240(18)
N3 N -0.4994(4) 0.25770(14) -0.4595(3)
C1 C -0.1237(4) -0.25198(13) -0.7253(3)
H1 H -0.0790 -0.2710 -0.7641
C2 C -0.1430(4) -0.18324(13) -0.7295(3)
H2 H -0.1116 -0.1566 -0.7700
C3 C -0.2321(4) -0.26483(13) -0.6143(3)
H3 H -0.2634 -0.2926 -0.5751
C4 C -0.2556(4) -0.19679(13) -0.6145(3)
H4 H -0.3020 -0.1792 -0.5759
C5 C -0.2100(3) -0.15415(11) -0.6724(2)
C6 C -0.2295(3) -0.08030(12) -0.6689(2)
C7 C -0.3603(3) -0.05386(12) -0.6631(2)
H5 H -0.4419 -0.0825 -0.6676
C8 C -0.3700(3) 0.01411(12) -0.6508(2)
H6 H -0.4593 0.0312 -0.6482
C9 C -0.1142(3) -0.03520(12) -0.6660(2)
H7 H -0.0290 -0.0509 -0.6741
C10 C -0.1258(3) 0.03227(13) -0.6511(2)
H8 H -0.0460 0.0618 -0.6470
C11 C -0.2628(3) 0.12846(13) -0.6262(2)
C12 C -0.2111(4) 0.17465(13) -0.6752(3)
H9 H -0.1686 0.1601 -0.7181
C13 C -0.2230(5) 0.24233(15) -0.6598(3)
H10 H -0.1845 0.2734 -0.6902
C14 C -0.2911(4) 0.26446(14) -0.6002(3)
H11 H -0.3007 0.3103 -0.5914
C15 C -0.3276(3) 0.14910(13) -0.5636(2)
H12 H -0.3590 0.1179 -0.5288
C16 C -0.3453(4) 0.21777(13) -0.5534(3)
C17 C -0.4278(4) 0.23982(15) -0.4984(3)
C18 C -0.1842(3) -0.57397(12) -0.4224(2)
C19 C -0.2504(3) -0.43043(11) -0.5238(2)
C20 C -0.3749(3) -0.46841(11) -0.5087(2)
C21 C -0.5260(3) -0.43459(11) -0.5413(2)
H13 H -0.5442 -0.3904 -0.5693
C22 C -0.3485(3) -0.53493(11) -0.4667(2)
O3B O -0.7017(2) -0.56832(9) -0.36570(16)
O4B O -0.8731(2) -0.60267(9) -0.56213(18)
C19B C -0.7496(3) -0.56957(11) -0.4762(2)
C20B C -0.6251(3) -0.53159(11) -0.4913(2)
C21B C -0.4740(3) -0.56541(11) -0.4587(2)
H13B H -0.4558 -0.6096 -0.4307
O1B O -0.9238(2) -0.45212(10) -0.5634(2)
O2B O -0.8434(2) -0.37074(9) -0.62844(19)
C18B C -0.8158(3) -0.42603(12) -0.5776(2)
C22B C -0.6515(3) -0.46507(11) -0.5333(2)
Zn1B Zn -0.86163(3) -0.604496(13) -0.33212(3)
Cl1B Cl -0.72934(10) -0.57720(4) -0.12828(7)
N1B N -0.8343(3) -0.70715(10) -0.33175(19)
N2B N -0.7486(3) -1.05661(10) -0.35760(18)
N3B N -0.5006(4) -1.25770(14) -0.5405(3)
C1B C -0.8763(4) -0.74802(13) -0.2747(3)
H1B H -0.9210 -0.7290 -0.2359
C2B C -0.8570(4) -0.81676(13) -0.2705(3)
H2B H -0.8884 -0.8434 -0.2300
C3B C -0.7679(4) -0.73517(13) -0.3857(3)
H3B H -0.7366 -0.7074 -0.4249
C4B C -0.7444(4) -0.80321(13) -0.3855(3)
H4B H -0.6980 -0.8208 -0.4241
C5B C -0.7900(3) -0.84585(11) -0.3276(2)
C6B C -0.7705(3) -0.91970(12) -0.3311(2)
C7B C -0.6397(3) -0.94614(12) -0.3369(2)
H5B H -0.5581 -0.9175 -0.3324
C8B C -0.6300(3) -1.01411(12) -0.3492(2)
H6B H -0.5407 -1.0312 -0.3518
C9B C -0.8858(3) -0.96480(12) -0.3340(2)
H7B H -0.9710 -0.9491 -0.3259
C10B C -0.8742(3) -1.03227(13) -0.3489(2)
H8B H -0.9540 -1.0618 -0.3530
C11B C -0.7372(3) -1.12846(13) -0.3738(2)
C12B C -0.7889(4) -1.17465(13) -0.3248(3)
H9B H -0.8314 -1.1601 -0.2819
C13B C -0.7770(5) -1.24233(15) -0.3402(3)
H10B H -0.8155 -1.2734 -0.3098
C14B C -0.7089(4) -1.26446(14) -0.3998(3)
H11B H -0.6993 -1.3103 -0.4086
C15B C -0.6724(3) -1.14910(13) -0.4364(2)
H12B H -0.6410 -1.1179 -0.4712
C16B C -0.6547(4) -1.21777(13) -0.4466(3)
C17B C -0.5722(4) -1.23982(15) -0.5016(3)
Zn1_2 Zn -1.13837(3) -0.395504(13) -0.66788(3)
Zn1B_2 Zn 0.13837(3) -0.604496(13) -0.33212(3)
O1_2 O -1.0762(2) -0.54788(10) -0.4366(2)
O1B_2 O 0.0762(2) -0.45212(10) -0.5634(2)
O2_2 O -1.1566(2) -0.62926(9) -0.37156(19)
O2B_2 O 0.1566(2) -0.37074(9) -0.62844(19)
O5 O 0.2273(4) -0.41495(18) -0.2174(4)
H14 H 0.1351 -0.4132 -0.2930
H15 H 0.2455 -0.4436 -0.1641
loop_
_geom_bond_atom_site_label_1
_geom_bond_atom_site_label_2
_geom_bond_site_symmetry_1
_geom_bond_site_symmetry_2
Zn1 Cl1 1_555 1_555
O1 C18 1_555 1_555
O2 C18 1_555 1_555
O3 Zn1 1_555 1_555
O4 C19 1_555 1_555
N1 Zn1 1_555 1_555
N2 C8 1_555 1_555
N3 C17 1_555 1_555
C1 N1 1_555 1_555
H1 C1 1_555 1_555
C2 C1 1_555 1_555
H2 C2 1_555 1_555
C3 N1 1_555 1_555
H3 C3 1_555 1_555
C4 C3 1_555 1_555
H4 C4 1_555 1_555
C5 C2 1_555 1_555
C6 C5 1_555 1_555
C7 C6 1_555 1_555
H5 C7 1_555 1_555
C8 C7 1_555 1_555
H6 C8 1_555 1_555
C9 C6 1_555 1_555
H7 C9 1_555 1_555
C10 N2 1_555 1_555
H8 C10 1_555 1_555
C11 N2 1_555 1_555
C12 C11 1_555 1_555
H9 C12 1_555 1_555
C13 C12 1_555 1_555
H10 C13 1_555 1_555
C14 C13 1_555 1_555
H11 C14 1_555 1_555
C15 C11 1_555 1_555
H12 C15 1_555 1_555
C16 C14 1_555 1_555
C17 C16 1_555 1_555
C18 C22 1_555 1_555
C19 O3 1_555 1_555
C20 C19 1_555 1_555
C21 C20 1_555 1_555
H13 C21 1_555 1_555
C22 C20 1_555 1_555
O5 H14 1_555 1_555
H15 O5 1_555 1_555
O3B C19B 1_555 1_555
O4B C19B 1_555 1_555
C19B C20B 1_555 1_555
C20B C21B 1_555 1_555
C21B C22 1_555 1_555
H13B C21B 1_555 1_555
O1B C18B 1_555 1_555
O2B C18B 1_555 1_555
C18B C22B 1_555 1_555
C22B C21 1_555 1_555
Zn1B O3B 1_555 1_555
Cl1B Zn1B 1_555 1_555
N1B Zn1B 1_555 1_555
N2B C8B 1_555 1_555
N3B C17B 1_555 1_555
C1B N1B 1_555 1_555
H1B C1B 1_555 1_555
C2B C1B 1_555 1_555
H2B C2B 1_555 1_555
C3B N1B 1_555 1_555
H3B C3B 1_555 1_555
C4B C3B 1_555 1_555
H4B C4B 1_555 1_555
C5B C2B 1_555 1_555
C6B C5B 1_555 1_555
C7B C6B 1_555 1_555
H5B C7B 1_555 1_555
C8B C7B 1_555 1_555
H6B C8B 1_555 1_555
C9B C6B 1_555 1_555
H7B C9B 1_555 1_555
C10B N2B 1_555 1_555
H8B C10B 1_555 1_555
C11B N2B 1_555 1_555
C12B C11B 1_555 1_555
H9B C12B 1_555 1_555
C13B C12B 1_555 1_555
H10B C13B 1_555 1_555
C14B C13B 1_555 1_555
H11B C14B 1_555 1_555
C15B C11B 1_555 1_555
H12B C15B 1_555 1_555
C16B C14B 1_555 1_555
C17B C16B 1_555 1_555
Zn1_2 O1B 1_555 1_555
Zn1B_2 O1 1_555 1_555
O1_2 Zn1B 1_555 1_555
O1B_2 Zn1 1_555 1_555
O2_2 Zn1B 1_555 1_555
O2B_2 Zn1 1_555 1_555
O2 Zn1B_2 1_555 1_555
C4 C5 1_555 1_555
C9 C10 1_555 1_555
C15 C16 1_555 1_555
C20B C22B 1_555 1_555
O2B Zn1_2 1_555 1_555
C4B C5B 1_555 1_555
C9B C10B 1_555 1_555
C15B C16B 1_555 1_555

#END
