
#######################################################################
#
#                 Cambridge Crystallographic Data Centre
#                                CCDC 
#
#######################################################################
#
# If this CIF has been generated from an entry in the Cambridge 
# Structural Database, then it will include bibliographic, chemical, 
# crystal, experimental, refinement or atomic coordinate data resulting 
# from the CCDC's data processing and validation procedures.
#
#######################################################################

data_NIKDES
_symmetry_cell_setting           monoclinic
_symmetry_space_group_name_H-M   'C 2/c'
_symmetry_Int_Tables_number      15
_space_group_name_Hall           '-C 2yn'
loop_
_symmetry_equiv_pos_site_id
_symmetry_equiv_pos_as_xyz
1 x,y,z
2 -x,y,1/2-z
3 1/2+x,1/2+y,z
4 1/2-x,1/2+y,1/2-z
5 -x,-y,-z
6 x,-y,1/2+z
7 1/2-x,1/2-y,-z
8 1/2+x,1/2-y,1/2+z
_cell_length_a                   29.349(4)
_cell_length_b                   5.0768(7)
_cell_length_c                   28.228(4)
_cell_angle_alpha                90
_cell_angle_beta                 113.515(2)
_cell_angle_gamma                90
_cell_volume                     3856.66
loop_
_atom_site_label
_atom_site_type_symbol
_atom_site_fract_x
_atom_site_fract_y
_atom_site_fract_z
Co1 Co 0.196651(11) 0.27605(6) 0.206776(12)
P1 P 0.18668(2) -0.21061(12) 0.26123(2)
C1 C 0.15089(8) -0.1154(5) 0.29793(9)
C2 C 0.11310(9) 0.0605(6) 0.27669(10)
H1 H 0.1057 0.1231 0.2435
C3 C 0.08517(10) 0.1489(6) 0.30376(11)
H2 H 0.0592 0.2664 0.2878
C4 C 0.09497(10) 0.0671(6) 0.35298(10)
C5 C 0.13417(10) -0.1192(6) 0.37732(10)
C6 C 0.14712(15) -0.2156(8) 0.42850(13)
H3 H 0.1300 -0.1555 0.4479
C7 C 0.18419(17) -0.3942(10) 0.44917(15)
H4 H 0.1923 -0.4531 0.4828
C8 C 0.21070(16) -0.4924(10) 0.42111(14)
H5 H 0.2356 -0.6170 0.4357
C9 C 0.19940(12) -0.4029(7) 0.37216(12)
H6 H 0.2169 -0.4685 0.3536
C10 C 0.16190(10) -0.2134(5) 0.34896(10)
C11 C 0.06388(12) 0.1795(7) 0.37946(12)
C12 C 0.17097(10) 0.5539(6) 0.10612(10)
H7 H 0.2000 0.6459 0.1248
C13 C 0.14439(11) 0.6178(6) 0.05491(11)
H8 H 0.1553 0.7510 0.0394
C14 C 0.10128(10) 0.4810(6) 0.02705(10)
H9 H 0.0829 0.5210 -0.0075
C15 C 0.08569(10) 0.2843(5) 0.05095(9)
C16 C 0.11481(10) 0.2315(5) 0.10298(10)
H10 H 0.1047 0.0988 0.1194
C17 C 0.04005(10) 0.1319(6) 0.02384(9)
C18 C -0.00420(16) 0.4610(10) 0.36817(16)
H11 H 0.0156 0.5645 0.3983
H12 H -0.0228 0.3317 0.3785
C19 C -0.03823(15) 0.6318(9) 0.32805(16)
H13 H -0.0198 0.7701 0.3206
H14 H -0.0618 0.7073 0.3398
H15 H -0.0555 0.5306 0.2973
N1 N 0.15636(8) 0.3633(4) 0.13002(8)
N2 N 0.00937(9) 0.2169(5) -0.02297(9)
N3 N -0.03169(9) 0.0798(5) -0.04750(8)
O1 O 0.16680(6) -0.0606(3) 0.21004(6)
O2 O 0.18034(7) -0.5033(3) 0.25286(7)
O3 O 0.24016(6) -0.1309(4) 0.29394(7)
O4 O 0.02779(9) 0.3299(5) 0.34770(9)
O5 O 0.06975(10) 0.1433(6) 0.42368(9)
C12D C -0.17097(10) -0.5539(6) -0.10612(10)
H7D H -0.2000 -0.6459 -0.1248
C13D C -0.14439(11) -0.6178(6) -0.05491(11)
H8D H -0.1553 -0.7510 -0.0394
C14D C -0.10128(10) -0.4810(6) -0.02705(10)
H9D H -0.0829 -0.5210 0.0075
C15D C -0.08569(10) -0.2843(5) -0.05095(9)
C16D C -0.11481(10) -0.2315(5) -0.10298(10)
H10D H -0.1047 -0.0988 -0.1194
C17D C -0.04005(10) -0.1319(6) -0.02384(9)
N1D N -0.15636(8) -0.3633(4) -0.13002(8)
N2D N -0.00937(9) -0.2169(5) 0.02297(9)
N3D N 0.03169(9) -0.0798(5) 0.04750(8)
Co1D Co -0.196651(11) -0.27605(6) -0.206776(12)
P1D P -0.18668(2) 0.21061(12) -0.26123(2)
C1D C -0.15089(8) 0.1154(5) -0.29793(9)
C2D C -0.11310(9) -0.0605(6) -0.27669(10)
H1D H -0.1057 -0.1231 -0.2435
C3D C -0.08517(10) -0.1489(6) -0.30376(11)
H2D H -0.0592 -0.2664 -0.2878
C4D C -0.09497(10) -0.0671(6) -0.35298(10)
C5D C -0.13417(10) 0.1192(6) -0.37732(10)
C6D C -0.14712(15) 0.2156(8) -0.42850(13)
H3D H -0.1300 0.1555 -0.4479
C7D C -0.18419(17) 0.3942(10) -0.44917(15)
H4D H -0.1923 0.4531 -0.4828
C8D C -0.21070(16) 0.4924(10) -0.42111(14)
H5D H -0.2356 0.6170 -0.4357
C9D C -0.19940(12) 0.4029(7) -0.37216(12)
H6D H -0.2169 0.4685 -0.3536
C10D C -0.16190(10) 0.2134(5) -0.34896(10)
C11D C -0.06388(12) -0.1795(7) -0.37946(12)
C18D C 0.00420(16) -0.4610(10) -0.36817(16)
H11D H -0.0156 -0.5645 -0.3983
H12D H 0.0228 -0.3317 -0.3785
C19D C 0.03823(15) -0.6318(9) -0.32805(16)
H13D H 0.0198 -0.7701 -0.3206
H14D H 0.0618 -0.7073 -0.3398
H15D H 0.0555 -0.5306 -0.2973
O1D O -0.16680(6) 0.0606(3) -0.21004(6)
O2D O -0.18034(7) 0.5033(3) -0.25286(7)
O3D O -0.24016(6) 0.1309(4) -0.29394(7)
O4D O -0.02779(9) -0.3299(5) -0.34770(9)
O5D O -0.06975(10) -0.1433(6) -0.42368(9)
Co1_2 Co 0.196651(11) -0.72395(6) 0.206776(12)
Co1C Co 0.303349(11) -0.22395(6) 0.293224(12)
Co1D_2 Co -0.196651(11) 0.72395(6) -0.206776(12)
Co1G Co -0.303349(11) 0.22395(6) -0.293224(12)
O2_2 O 0.18034(7) 0.4967(3) 0.25286(7)
O2D_2 O -0.18034(7) -0.4967(3) -0.25286(7)
O3C O 0.25984(6) 0.3691(4) 0.20606(7)
O3G O -0.25984(6) -0.3691(4) -0.20606(7)
loop_
_geom_bond_atom_site_label_1
_geom_bond_atom_site_label_2
_geom_bond_site_symmetry_1
_geom_bond_site_symmetry_2
Co1 N1 1_555 1_555
P1 C1 1_555 1_555
C1 C2 1_555 1_555
C2 H1 1_555 1_555
C3 C2 1_555 1_555
H2 C3 1_555 1_555
C4 C3 1_555 1_555
C5 C4 1_555 1_555
C6 C5 1_555 1_555
H3 C6 1_555 1_555
C7 C6 1_555 1_555
H4 C7 1_555 1_555
C8 C7 1_555 1_555
H5 C8 1_555 1_555
C9 C8 1_555 1_555
H6 C9 1_555 1_555
C10 C1 1_555 1_555
C11 C4 1_555 1_555
C12 H7 1_555 1_555
C13 C12 1_555 1_555
H8 C13 1_555 1_555
C14 C13 1_555 1_555
H9 C14 1_555 1_555
C15 C14 1_555 1_555
C16 C15 1_555 1_555
H10 C16 1_555 1_555
C17 C15 1_555 1_555
C18 H11 1_555 1_555
H12 C18 1_555 1_555
C19 C18 1_555 1_555
H13 C19 1_555 1_555
H14 C19 1_555 1_555
H15 C19 1_555 1_555
N1 C12 1_555 1_555
N2 C17 1_555 1_555
N3 N2 1_555 1_555
O1 Co1 1_555 1_555
O2 P1 1_555 1_555
O3 P1 1_555 1_555
O4 C11 1_555 1_555
O5 C11 1_555 1_555
C12D H7D 1_555 1_555
C13D C12D 1_555 1_555
H8D C13D 1_555 1_555
C14D C13D 1_555 1_555
H9D C14D 1_555 1_555
C15D C14D 1_555 1_555
C16D C15D 1_555 1_555
H10D C16D 1_555 1_555
C17D N3 1_555 1_555
N1D C12D 1_555 1_555
N2D C17D 1_555 1_555
N3D C17 1_555 1_555
Co1D N1D 1_555 1_555
P1D C1D 1_555 1_555
C1D C2D 1_555 1_555
C2D H1D 1_555 1_555
C3D C2D 1_555 1_555
H2D C3D 1_555 1_555
C4D C3D 1_555 1_555
C5D C4D 1_555 1_555
C6D C5D 1_555 1_555
H3D C6D 1_555 1_555
C7D C6D 1_555 1_555
H4D C7D 1_555 1_555
C8D C7D 1_555 1_555
H5D C8D 1_555 1_555
C9D C8D 1_555 1_555
H6D C9D 1_555 1_555
C10D C1D 1_555 1_555
C11D C4D 1_555 1_555
C18D H11D 1_555 1_555
H12D C18D 1_555 1_555
C19D C18D 1_555 1_555
H13D C19D 1_555 1_555
H14D C19D 1_555 1_555
H15D C19D 1_555 1_555
O1D Co1D 1_555 1_555
O2D P1D 1_555 1_555
O3D P1D 1_555 1_555
O4D C11D 1_555 1_555
O5D C11D 1_555 1_555
Co1_2 O2 1_555 1_555
Co1C O3 1_555 1_555
Co1D_2 O2D 1_555 1_555
Co1G O3D 1_555 1_555
O2_2 Co1 1_555 1_555
O2D_2 Co1D 1_555 1_555
O3C Co1 1_555 1_555
O3G Co1D 1_555 1_555
P1 O1 1_555 1_555
C5 C10 1_555 1_555
C9 C10 1_555 1_555
C16 N1 1_555 1_555
C18 O4 1_555 1_555
C15D C17D 1_555 1_555
C16D N1D 1_555 1_555
N2D N3D 1_555 1_555
P1D O1D 1_555 1_555
C5D C10D 1_555 1_555
C9D C10D 1_555 1_555
C18D O4D 1_555 1_555

#END
