
#######################################################################
#
#                 Cambridge Crystallographic Data Centre
#                                CCDC 
#
#######################################################################
#
# If this CIF has been generated from an entry in the Cambridge 
# Structural Database, then it will include bibliographic, chemical, 
# crystal, experimental, refinement or atomic coordinate data resulting 
# from the CCDC's data processing and validation procedures.
#
#######################################################################

data_NIKFOE
_symmetry_cell_setting           triclinic
_symmetry_space_group_name_H-M   'P -1'
_symmetry_Int_Tables_number      2
_space_group_name_Hall           '-P 1'
loop_
_symmetry_equiv_pos_site_id
_symmetry_equiv_pos_as_xyz
1 x,y,z
2 -x,-y,-z
_cell_length_a                   10.0260(10)
_cell_length_b                   10.3105(10)
_cell_length_c                   10.8084(11)
_cell_angle_alpha                67.6180(10)
_cell_angle_beta                 74.9450(10)
_cell_angle_gamma                64.4580(10)
_cell_volume                     926.023
loop_
_atom_site_label
_atom_site_type_symbol
_atom_site_fract_x
_atom_site_fract_y
_atom_site_fract_z
Cd1 Cd 0.271644(13) 0.383977(13) 0.353764(12)
S1 S 0.59949(5) 0.43062(5) 0.29438(4)
Cl1 Cl 1.16187(5) -0.17745(5) 0.36171(4)
Cl2 Cl 0.93703(5) 0.41714(5) 0.14978(5)
O1 O 0.69697(15) -0.14617(15) 0.46428(14)
O2 O 0.90917(14) -0.26705(14) 0.55498(13)
O3 O 0.64122(15) 0.53426(15) 0.32420(14)
O4 O 0.56657(15) 0.47481(15) 0.15840(13)
O5 O 0.15332(14) 0.49049(15) 0.52977(13)
N1 N 0.47135(17) 0.39190(18) 0.39673(16)
N2 N 0.37068(17) 0.23241(17) 0.21195(16)
N3 N 0.15805(17) 0.61080(17) 0.18853(16)
C1 C 0.8608(2) -0.0160(2) 0.39834(18)
C2 C 1.0030(2) -0.0143(2) 0.34436(18)
C3 C 1.0241(2) 0.1197(2) 0.26845(18)
H1 H 1.1190 0.1184 0.2299
C4 C 0.9031(2) 0.2557(2) 0.25042(17)
C5 C 0.7608(2) 0.2597(2) 0.31018(17)
C6 C 0.7421(2) 0.1233(2) 0.38000(18)
H2 H 0.6468 0.1248 0.4160
C7 C 0.8211(2) -0.1537(2) 0.47627(17)
C8 C 0.3453(2) 0.2901(2) 0.08292(19)
H3 H 0.2922 0.3933 0.0493
C9 C 0.3944(2) 0.2036(2) -0.0030(2)
H4 H 0.3751 0.2490 -0.0924
C10 C 0.4728(2) 0.0484(2) 0.04463(18)
C11 C 0.4988(2) -0.0111(2) 0.17924(19)
H5 H 0.5506 -0.1141 0.2159
C12 C 0.4475(2) 0.0832(2) 0.25819(19)
H6 H 0.4670 0.0413 0.3475
C13 C 0.0120(2) 0.6926(2) 0.20929(19)
H7 H -0.0475 0.6459 0.2756
C14 C -0.0538(2) 0.8431(2) 0.13659(19)
H8 H -0.1554 0.8945 0.1540
C15 C 0.0322(2) 0.91797(19) 0.03713(18)
C16 C 0.1820(2) 0.8302(2) 0.01209(19)
H9 H 0.2431 0.8728 -0.0563
C17 C 0.2400(2) 0.6798(2) 0.08862(19)
H10 H 0.3402 0.6241 0.0699
N2A N 0.62932(17) -0.23241(17) -0.21195(16)
C8A C 0.6547(2) -0.2901(2) -0.08292(19)
H3A H 0.7078 -0.3933 -0.0493
C9A C 0.6056(2) -0.2036(2) 0.0030(2)
H4A H 0.6249 -0.2490 0.0924
C10A C 0.5272(2) -0.0484(2) -0.04463(18)
C11A C 0.5012(2) 0.0111(2) -0.17924(19)
H5A H 0.4494 0.1141 -0.2159
C12A C 0.5525(2) -0.0832(2) -0.25819(19)
H6A H 0.5330 -0.0413 -0.3475
N3A N -0.15805(17) 1.38920(17) -0.18853(16)
C13A C -0.0120(2) 1.3074(2) -0.20929(19)
H7A H 0.0475 1.3541 -0.2756
C14A C 0.0538(2) 1.1569(2) -0.13659(19)
H8A H 0.1554 1.1055 -0.1540
C15A C -0.0322(2) 1.08203(19) -0.03713(18)
C16A C -0.1820(2) 1.1698(2) -0.01209(19)
H9A H -0.2431 1.1272 0.0563
C17A C -0.2400(2) 1.3202(2) -0.08862(19)
H10A H -0.3402 1.3759 -0.0699
Cd1A Cd -0.271644(13) 1.616023(13) -0.353764(12)
S1A S -0.59949(5) 1.56938(5) -0.29438(4)
Cl1A Cl -1.16187(5) 2.17745(5) -0.36171(4)
Cl2A Cl -0.93703(5) 1.58286(5) -0.14978(5)
O1A O -0.69697(15) 2.14617(15) -0.46428(14)
O2A O -0.90917(14) 2.26705(14) -0.55498(13)
O3A O -0.64122(15) 1.46574(15) -0.32420(14)
O4A O -0.56657(15) 1.52519(15) -0.15840(13)
O5A O -0.15332(14) 1.50951(15) -0.52977(13)
N1A N -0.47135(17) 1.60810(18) -0.39673(16)
C1A C -0.8608(2) 2.0160(2) -0.39834(18)
C2A C -1.0030(2) 2.0143(2) -0.34436(18)
C3A C -1.0241(2) 1.8803(2) -0.26845(18)
H1A H -1.1190 1.8816 -0.2299
C4A C -0.9031(2) 1.7443(2) -0.25042(17)
C5A C -0.7608(2) 1.7403(2) -0.31018(17)
C6A C -0.7421(2) 1.8767(2) -0.38000(18)
H2A H -0.6468 1.8752 -0.4160
C7A C -0.8211(2) 2.1537(2) -0.47627(17)
Cd1_2 Cd -0.728356(13) 2.383977(13) -0.646236(12)
Cd1A_2 Cd 0.728356(13) -0.383977(13) -0.353764(12)
Cd1A_3 Cd 0.728356(13) -0.383977(13) 0.646236(12)
O1_2 O -0.30303(15) 1.85383(15) -0.53572(14)
O1A_2 O 0.30303(15) 0.14617(15) 0.53572(14)
O2_2 O -0.09083(14) 1.73295(14) -0.44502(13)
O2A_2 O 0.09083(14) 0.26705(14) 0.44502(13)
N2A_2 N -0.37068(17) 1.76759(17) -0.21195(16)
loop_
_geom_bond_atom_site_label_1
_geom_bond_atom_site_label_2
_geom_bond_site_symmetry_1
_geom_bond_site_symmetry_2
Cd1 O5 1_555 1_555
S1 O3 1_555 1_555
Cl1 C2 1_555 1_555
Cl2 C4 1_555 1_555
O1 C7 1_555 1_555
O2 C7 1_555 1_555
O4 S1 1_555 1_555
N1 Cd1 1_555 1_555
N2 Cd1 1_555 1_555
N3 Cd1 1_555 1_555
C1 C2 1_555 1_555
C2 C3 1_555 1_555
C3 H1 1_555 1_555
C4 C3 1_555 1_555
C5 S1 1_555 1_555
C6 C1 1_555 1_555
H2 C6 1_555 1_555
C7 C1 1_555 1_555
C8 N2 1_555 1_555
H3 C8 1_555 1_555
C9 C8 1_555 1_555
H4 C9 1_555 1_555
C10 C9 1_555 1_555
C11 C10 1_555 1_555
H5 C11 1_555 1_555
C12 N2 1_555 1_555
H6 C12 1_555 1_555
C13 N3 1_555 1_555
H7 C13 1_555 1_555
C14 C13 1_555 1_555
H8 C14 1_555 1_555
C15 C14 1_555 1_555
C16 C15 1_555 1_555
H9 C16 1_555 1_555
C17 N3 1_555 1_555
H10 C17 1_555 1_555
N2A C8A 1_555 1_555
C8A H3A 1_555 1_555
C9A C8A 1_555 1_555
H4A C9A 1_555 1_555
C10A C10 1_555 1_555
C11A C10A 1_555 1_555
H5A C11A 1_555 1_555
C12A N2A 1_555 1_555
H6A C12A 1_555 1_555
N3A C13A 1_555 1_555
C13A H7A 1_555 1_555
C14A C13A 1_555 1_555
H8A C14A 1_555 1_555
C15A C15 1_555 1_555
C16A C15A 1_555 1_555
H9A C16A 1_555 1_555
C17A N3A 1_555 1_555
H10A C17A 1_555 1_555
Cd1A N3A 1_555 1_555
S1A O3A 1_555 1_555
Cl1A C2A 1_555 1_555
Cl2A C4A 1_555 1_555
O1A C7A 1_555 1_555
O2A C7A 1_555 1_555
O4A S1A 1_555 1_555
O5A Cd1A 1_555 1_555
N1A Cd1A 1_555 1_555
C1A C2A 1_555 1_555
C2A C3A 1_555 1_555
C3A H1A 1_555 1_555
C4A C3A 1_555 1_555
C5A S1A 1_555 1_555
C6A C1A 1_555 1_555
H2A C6A 1_555 1_555
C7A C1A 1_555 1_555
Cd1_2 O1A 1_555 1_555
Cd1A_2 N2A 1_555 1_555
Cd1A_3 O1 1_555 1_555
O1_2 Cd1A 1_555 1_555
O1A_2 Cd1 1_555 1_555
O2_2 Cd1A 1_555 1_555
O2A_2 Cd1 1_555 1_555
N2A_2 Cd1A 1_555 1_555
S1 N1 1_555 1_555
O2 Cd1A_3 1_555 1_555
C4 C5 1_555 1_555
C5 C6 1_555 1_555
C11 C12 1_555 1_555
C16 C17 1_555 1_555
C9A C10A 1_555 1_555
C11A C12A 1_555 1_555
C14A C15A 1_555 1_555
C16A C17A 1_555 1_555
S1A N1A 1_555 1_555
O2A Cd1_2 1_555 1_555
C4A C5A 1_555 1_555
C5A C6A 1_555 1_555

#END
