
#######################################################################
#
#                 Cambridge Crystallographic Data Centre
#                                CCDC 
#
#######################################################################
#
# If this CIF has been generated from an entry in the Cambridge 
# Structural Database, then it will include bibliographic, chemical, 
# crystal, experimental, refinement or atomic coordinate data resulting 
# from the CCDC's data processing and validation procedures.
#
#######################################################################

data_NIKFEU02
_symmetry_cell_setting           orthorhombic
_symmetry_space_group_name_H-M   'I m m a'
_symmetry_Int_Tables_number      74
_space_group_name_Hall           '-I 2b 2'
loop_
_symmetry_equiv_pos_site_id
_symmetry_equiv_pos_as_xyz
1 x,y,z
2 -x,1/2-y,z
3 -x,1/2+y,-z
4 x,-y,-z
5 1/2+x,1/2+y,1/2+z
6 1/2-x,-y,1/2+z
7 1/2-x,y,1/2-z
8 1/2+x,1/2-y,1/2-z
9 -x,-y,-z
10 x,1/2+y,-z
11 x,1/2-y,z
12 -x,y,z
13 1/2-x,1/2-y,1/2-z
14 1/2+x,y,1/2-z
15 1/2+x,-y,1/2+z
16 1/2-x,1/2+y,1/2+z
_cell_length_a                   19.392(12)
_cell_length_b                   7.228(5)
_cell_length_c                   9.387(6)
_cell_angle_alpha                90
_cell_angle_beta                 90
_cell_angle_gamma                90
_cell_volume                     1315.73
loop_
_atom_site_label
_atom_site_type_symbol
_atom_site_fract_x
_atom_site_fract_y
_atom_site_fract_z
Co1 Co 0.5000 0.0000 0.5000
O1 O 0.5000 0.2500 0.3859(6)
O2 O 0.42160(16) 0.0954(4) 0.6325(3)
N1 N 0.5000 0.2500 0.2423(7)
C1 C 0.3937(3) 0.2500 0.6497(6)
C2 C 0.3185(3) 0.2500 0.7025(6)
C3 C 0.4385(4) 0.2500 0.1725(7)
H1 H 0.3973 0.2500 0.2232
C4 C 0.2845(3) 0.0894(7) 0.7253(9)
H2 H 0.3067 -0.0225 0.7084
C5 C 0.4382(5) 0.2500 0.0249(8)
H3 H 0.3965 0.2500 -0.0243
C6 C 0.5000 0.2500 -0.0493(12)
H4 H 0.5000 0.2500 -0.1483
C3A C 0.5615(4) 0.2500 0.1725(7)
H1A H 0.6027 0.2500 0.2232
C5A C 0.5618(5) 0.2500 0.0249(8)
H3A H 0.6035 0.2500 -0.0243
O2F O 0.07840(16) 0.0954(4) 0.8675(3)
C1F C 0.1063(3) 0.2500 0.8503(6)
C2F C 0.1815(3) 0.2500 0.7975(6)
C4F C 0.2155(3) 0.0894(7) 0.7747(9)
H2F H 0.1933 -0.0225 0.7916
O2J O 0.42160(16) 0.4046(4) 0.6325(3)
C4J C 0.2845(3) 0.4106(7) 0.7253(9)
H2J H 0.3067 0.5225 0.7084
O2L O 0.07840(16) 0.4046(4) 0.8675(3)
C4L C 0.2155(3) 0.4106(7) 0.7747(9)
H2L H 0.1933 0.5225 0.7916
Co1A Co 0.5000 0.5000 0.5000
Co1D Co 0.0000 0.5000 1.0000
Co1E Co 0.0000 0.0000 1.0000
O1B O 0.5000 -0.2500 0.6141(6)
O2C O 0.42160(16) -0.0954(4) 0.3675(3)
O2H O 0.57840(16) -0.0954(4) 0.3675(3)
O2K O 0.57840(16) 0.0954(4) 0.6325(3)
loop_
_geom_bond_atom_site_label_1
_geom_bond_atom_site_label_2
_geom_bond_site_symmetry_1
_geom_bond_site_symmetry_2
Co1 O1 1_555 1_555
O1 N1 1_555 1_555
O2 Co1 1_555 1_555
N1 C3 1_555 1_555
C1 O2 1_555 1_555
C2 C1 1_555 1_555
C3 H1 1_555 1_555
C4 C2 1_555 1_555
H2 C4 1_555 1_555
C5 C3 1_555 1_555
H3 C5 1_555 1_555
C6 C5 1_555 1_555
H4 C6 1_555 1_555
C3A N1 1_555 1_555
H1A C3A 1_555 1_555
C5A C6 1_555 1_555
H3A C5A 1_555 1_555
O2F C1F 1_555 1_555
C1F C2F 1_555 1_555
C2F C4F 1_555 1_555
C4F C4 1_555 1_555
H2F C4F 1_555 1_555
O2J C1 1_555 1_555
C4J C2 1_555 1_555
H2J C4J 1_555 1_555
O2L C1F 1_555 1_555
C4L C2F 1_555 1_555
H2L C4L 1_555 1_555
Co1A O1 1_555 1_555
Co1D O2L 1_555 1_555
Co1E O2F 1_555 1_555
O1B Co1 1_555 1_555
O2C Co1 1_555 1_555
O2H Co1 1_555 1_555
O2K Co1 1_555 1_555
C3A C5A 1_555 1_555
O2J Co1A 1_555 1_555
C4J C4L 1_555 1_555

#END
