
#######################################################################
#
#                 Cambridge Crystallographic Data Centre
#                                CCDC 
#
#######################################################################
#
# If this CIF has been generated from an entry in the Cambridge 
# Structural Database, then it will include bibliographic, chemical, 
# crystal, experimental, refinement or atomic coordinate data resulting 
# from the CCDC's data processing and validation procedures.
#
#######################################################################

data_NIKFIY
_symmetry_cell_setting           triclinic
_symmetry_space_group_name_H-M   'P -1'
_symmetry_Int_Tables_number      2
_space_group_name_Hall           '-P 1'
loop_
_symmetry_equiv_pos_site_id
_symmetry_equiv_pos_as_xyz
1 x,y,z
2 -x,-y,-z
_cell_length_a                   5.5406(6)
_cell_length_b                   11.4130(13)
_cell_length_c                   12.5086(15)
_cell_angle_alpha                64.504(2)
_cell_angle_beta                 88.982(2)
_cell_angle_gamma                81.527(2)
_cell_volume                     705.234
loop_
_atom_site_label
_atom_site_type_symbol
_atom_site_fract_x
_atom_site_fract_y
_atom_site_fract_z
Co1 Co 0.5000 0.5000 1.0000
S1 S 0.90526(13) 0.95997(7) 0.32741(7)
Cl1 Cl 1.08250(14) 0.39371(7) 0.74849(7)
Cl2 Cl 1.37726(13) 0.74662(8) 0.35196(7)
O1 O 0.7200(3) 0.54675(18) 0.84504(18)
O2 O 0.4416(4) 0.6928(2) 0.70682(19)
O3 O 0.8762(4) 0.9301(2) 0.2282(2)
O4 O 1.0919(4) 1.0354(2) 0.3264(2)
O5 O 0.8204(3) 0.41501(19) 1.10597(18)
N1 N 0.6526(5) 1.0304(3) 0.3518(3)
N2 N 0.4892(4) 0.3080(2) 1.0102(2)
C1 C 0.8331(5) 0.6476(3) 0.6428(3)
C2 C 1.0283(5) 0.5549(3) 0.6416(3)
C3 C 1.1899(5) 0.5869(3) 0.5509(3)
H1 H 1.3191 0.5241 0.5521
C4 C 1.1596(5) 0.7116(3) 0.4587(3)
C5 C 0.9617(5) 0.8053(3) 0.4540(3)
C6 C 0.8045(5) 0.7718(3) 0.5462(3)
H2 H 0.6742 0.8345 0.5438
C7 C 0.6506(5) 0.6264(3) 0.7392(3)
C8 C 0.6707(5) 0.2593(3) 0.9616(3)
H3 H 0.7970 0.3078 0.9310
C9 C 0.6814(5) 0.1410(3) 0.9545(3)
H4 H 0.8102 0.1126 0.9184
C10 C 0.4968(5) 0.0642(3) 1.0020(3)
C11 C 0.3112(5) 0.1146(3) 1.0536(3)
H5 H 0.1849 0.0671 1.0871
C12 C 0.3124(5) 0.2347(3) 1.0558(3)
H6 H 0.1846 0.2660 1.0904
H7 H 0.520(7) 1.020(4) 0.328(4)
H8 H 0.651(6) 1.109(4) 0.343(3)
N2A N 0.5108(4) -0.3080(2) 0.9898(2)
C8A C 0.3293(5) -0.2593(3) 1.0384(3)
H3A H 0.2030 -0.3078 1.0690
C9A C 0.3186(5) -0.1410(3) 1.0455(3)
H4A H 0.1898 -0.1126 1.0816
C10A C 0.5032(5) -0.0642(3) 0.9980(3)
C11A C 0.6888(5) -0.1146(3) 0.9464(3)
H5A H 0.8151 -0.0671 0.9129
C12A C 0.6876(5) -0.2347(3) 0.9442(3)
H6A H 0.8154 -0.2660 0.9096
S1A S 0.09474(13) 0.04003(7) 1.67259(7)
Cl1A Cl -0.08250(14) 0.60629(7) 1.25151(7)
Cl2A Cl -0.37726(13) 0.25338(8) 1.64804(7)
O1A O 0.2800(3) 0.45325(18) 1.15496(18)
O2A O 0.5584(4) 0.3072(2) 1.29318(19)
O3A O 0.1238(4) 0.0699(2) 1.7718(2)
O4A O -0.0919(4) -0.0354(2) 1.6736(2)
N1A N 0.3474(5) -0.0304(3) 1.6482(3)
C1A C 0.1669(5) 0.3524(3) 1.3572(3)
C2A C -0.0283(5) 0.4451(3) 1.3584(3)
C3A C -0.1899(5) 0.4131(3) 1.4491(3)
H1A H -0.3191 0.4759 1.4479
C4A C -0.1596(5) 0.2884(3) 1.5413(3)
C5A C 0.0383(5) 0.1947(3) 1.5460(3)
C6A C 0.1955(5) 0.2282(3) 1.4538(3)
H2A H 0.3258 0.1655 1.4562
C7A C 0.3494(5) 0.3736(3) 1.2608(3)
H7A H 0.480(7) -0.020(4) 1.672(4)
H8A H 0.349(6) -0.109(4) 1.657(3)
O5A O 0.1796(3) 0.58499(19) 0.89403(18)
Co1_2 Co 0.5000 -0.5000 1.0000
N2A_2 N 0.5108(4) 0.6920(2) 0.9898(2)
loop_
_geom_bond_atom_site_label_1
_geom_bond_atom_site_label_2
_geom_bond_site_symmetry_1
_geom_bond_site_symmetry_2
Co1 O1 1_555 1_555
S1 O3 1_555 1_555
Cl1 C2 1_555 1_555
Cl2 C4 1_555 1_555
O1 C7 1_555 1_555
O2 C7 1_555 1_555
O4 S1 1_555 1_555
O5 Co1 1_555 1_555
N1 S1 1_555 1_555
N2 Co1 1_555 1_555
C1 C2 1_555 1_555
C2 C3 1_555 1_555
C3 H1 1_555 1_555
C4 C3 1_555 1_555
C5 S1 1_555 1_555
C6 C1 1_555 1_555
H2 C6 1_555 1_555
C7 C1 1_555 1_555
C8 N2 1_555 1_555
H3 C8 1_555 1_555
C9 C8 1_555 1_555
H4 C9 1_555 1_555
C10 C9 1_555 1_555
C11 C10 1_555 1_555
H5 C11 1_555 1_555
C12 N2 1_555 1_555
H6 C12 1_555 1_555
H7 N1 1_555 1_555
H8 N1 1_555 1_555
N2A C8A 1_555 1_555
C8A H3A 1_555 1_555
C9A C8A 1_555 1_555
H4A C9A 1_555 1_555
C10A C10 1_555 1_555
C11A C10A 1_555 1_555
H5A C11A 1_555 1_555
C12A N2A 1_555 1_555
H6A C12A 1_555 1_555
S1A O3A 1_555 1_555
Cl1A C2A 1_555 1_555
Cl2A C4A 1_555 1_555
O1A Co1 1_555 1_555
O2A C7A 1_555 1_555
O4A S1A 1_555 1_555
N1A S1A 1_555 1_555
C1A C2A 1_555 1_555
C2A C3A 1_555 1_555
C3A H1A 1_555 1_555
C4A C3A 1_555 1_555
C5A S1A 1_555 1_555
C6A C1A 1_555 1_555
H2A C6A 1_555 1_555
C7A O1A 1_555 1_555
H7A N1A 1_555 1_555
H8A N1A 1_555 1_555
O5A Co1 1_555 1_555
Co1_2 N2A 1_555 1_555
N2A_2 Co1 1_555 1_555
C4 C5 1_555 1_555
C5 C6 1_555 1_555
C11 C12 1_555 1_555
C9A C10A 1_555 1_555
C11A C12A 1_555 1_555
C1A C7A 1_555 1_555
C4A C5A 1_555 1_555
C5A C6A 1_555 1_555

#END
