
#######################################################################
#
#                 Cambridge Crystallographic Data Centre
#                                CCDC 
#
#######################################################################
#
# If this CIF has been generated from an entry in the Cambridge 
# Structural Database, then it will include bibliographic, chemical, 
# crystal, experimental, refinement or atomic coordinate data resulting 
# from the CCDC's data processing and validation procedures.
#
#######################################################################

data_NIKFEU
_symmetry_cell_setting           monoclinic
_symmetry_space_group_name_H-M   'C 2/c'
_symmetry_Int_Tables_number      15
_space_group_name_Hall           '-C 2yn'
loop_
_symmetry_equiv_pos_site_id
_symmetry_equiv_pos_as_xyz
1 x,y,z
2 -x,y,1/2-z
3 1/2+x,1/2+y,z
4 1/2-x,1/2+y,1/2-z
5 -x,-y,-z
6 x,-y,1/2+z
7 1/2-x,1/2-y,-z
8 1/2+x,1/2-y,1/2+z
_cell_length_a                   20.4094(13)
_cell_length_b                   9.1206(5)
_cell_length_c                   7.1342(4)
_cell_angle_alpha                90
_cell_angle_beta                 109.377(5)
_cell_angle_gamma                90
_cell_volume                     1252.78
loop_
_atom_site_label
_atom_site_type_symbol
_atom_site_fract_x
_atom_site_fract_y
_atom_site_fract_z
Co1 Co 0.0000 0.0000 0.0000
O1 O 0.08175(19) -0.1276(5) 0.1662(5)
O2 O 0.0757(2) -0.1424(5) 0.4733(5)
C1 C 0.1065(2) -0.1502(6) 0.3493(7)
C2 C 0.1811(3) -0.2023(7) 0.4270(7)
C3 C 0.2191(3) -0.2185(9) 0.3027(8)
H1 H 0.1987 -0.1957 0.1656
C4 C 0.2132(3) -0.2326(9) 0.6264(8)
H2 H 0.1881 -0.2195 0.7161
O3 O 0.0000 0.1216(7) 0.2500
N1 N 0.0000 0.2590(9) 0.2500
C5 C -0.0615(5) 0.3319(10) 0.1761(12)
H3 H -0.1040 0.2797 0.1247
C6 C -0.0608(6) 0.4817(10) 0.1775(14)
H4 H -0.1028 0.5359 0.1278
C7 C 0.0000 0.5496(14) 0.2500
H5 H 0.0000 0.6537 0.2500
O1F O 0.41825(19) -0.3724(5) 0.8338(5)
O2F O 0.4243(2) -0.3576(5) 0.5267(5)
C1F C 0.3935(2) -0.3498(6) 0.6507(7)
C2F C 0.3189(3) -0.2977(7) 0.5730(7)
C3F C 0.2809(3) -0.2815(9) 0.6973(8)
H1F H 0.3013 -0.3043 0.8344
C4F C 0.2868(3) -0.2674(9) 0.3736(8)
H2F H 0.3119 -0.2805 0.2839
C5A C 0.0615(5) 0.3319(10) 0.3239(12)
H3A H 0.1040 0.2797 0.3753
C6A C 0.0608(6) 0.4817(10) 0.3225(14)
H4A H 0.1028 0.5359 0.3722
Co1A Co 0.0000 0.0000 0.5000
Co1B Co 0.5000 -0.5000 1.0000
Co1C Co 0.5000 -0.5000 0.5000
O1D O -0.08175(19) 0.1276(5) -0.1662(5)
O2A O -0.0757(2) -0.1424(5) 0.0267(5)
O2E O 0.0757(2) 0.1424(5) -0.0267(5)
O3D O 0.0000 -0.1216(7) -0.2500
loop_
_geom_bond_atom_site_label_1
_geom_bond_atom_site_label_2
_geom_bond_site_symmetry_1
_geom_bond_site_symmetry_2
Co1 O1 1_555 1_555
O1 C1 1_555 1_555
O2 C1 1_555 1_555
C1 C2 1_555 1_555
C2 C3 1_555 1_555
C3 H1 1_555 1_555
C4 C2 1_555 1_555
H2 C4 1_555 1_555
O3 Co1 1_555 1_555
N1 O3 1_555 1_555
C5 N1 1_555 1_555
H3 C5 1_555 1_555
C6 C5 1_555 1_555
H4 C6 1_555 1_555
C7 C6 1_555 1_555
H5 C7 1_555 1_555
O1F C1F 1_555 1_555
O2F C1F 1_555 1_555
C1F C2F 1_555 1_555
C2F C3F 1_555 1_555
C3F C4 1_555 1_555
H1F C3F 1_555 1_555
C4F C3 1_555 1_555
H2F C4F 1_555 1_555
C5A N1 1_555 1_555
H3A C5A 1_555 1_555
C6A C7 1_555 1_555
H4A C6A 1_555 1_555
Co1A O2 1_555 1_555
Co1B O1F 1_555 1_555
Co1C O2F 1_555 1_555
O1D Co1 1_555 1_555
O2A Co1 1_555 1_555
O2E Co1 1_555 1_555
O3D Co1 1_555 1_555
O3 Co1A 1_555 1_555
C2F C4F 1_555 1_555
C5A C6A 1_555 1_555

#END
