
#######################################################################
#
#                 Cambridge Crystallographic Data Centre
#                                CCDC 
#
#######################################################################
#
# If this CIF has been generated from an entry in the Cambridge 
# Structural Database, then it will include bibliographic, chemical, 
# crystal, experimental, refinement or atomic coordinate data resulting 
# from the CCDC's data processing and validation procedures.
#
#######################################################################

data_NIKGAR
_symmetry_cell_setting           monoclinic
_symmetry_space_group_name_H-M   'C 2/c'
_symmetry_Int_Tables_number      15
_space_group_name_Hall           '-C 2yn'
loop_
_symmetry_equiv_pos_site_id
_symmetry_equiv_pos_as_xyz
1 x,y,z
2 -x,y,1/2-z
3 1/2+x,1/2+y,z
4 1/2-x,1/2+y,1/2-z
5 -x,-y,-z
6 x,-y,1/2+z
7 1/2-x,1/2-y,-z
8 1/2+x,1/2-y,1/2+z
_cell_length_a                   16.236(2)
_cell_length_b                   10.7795(14)
_cell_length_c                   22.336(3)
_cell_angle_alpha                90
_cell_angle_beta                 110.571(2)
_cell_angle_gamma                90
_cell_volume                     3659.9
loop_
_atom_site_label
_atom_site_type_symbol
_atom_site_fract_x
_atom_site_fract_y
_atom_site_fract_z
Zn1 Zn 0.245845(14) 0.83800(2) 0.155052(10)
S1 S 0.41300(3) 0.71597(5) 0.14894(2)
Cl1 Cl 0.41221(3) 0.13391(5) 0.18352(2)
Cl2 Cl 0.49804(3) 0.52249(5) 0.07315(2)
O1 O 0.31347(9) 0.41049(13) 0.29090(7)
O2 O 0.28558(10) 0.22547(14) 0.24310(7)
O3 O 0.50392(9) 0.75413(14) 0.16494(7)
O4 O 0.35572(9) 0.73074(13) 0.08283(6)
N1 N 0.36691(11) 0.77739(15) 0.19231(8)
N2 N 0.15604(11) 0.71045(15) 0.10066(8)
N3 N 0.23296(11) 0.98420(15) 0.09035(7)
C1 C 0.37040(13) 0.37258(19) 0.20903(9)
C2 C 0.40924(13) 0.29434(19) 0.17630(9)
C3 C 0.44985(13) 0.34321(19) 0.13626(9)
H1 H 0.4759 0.2905 0.1151
C4 C 0.45172(13) 0.47017(19) 0.12778(9)
C5 C 0.41605(12) 0.55143(18) 0.16101(9)
C6 C 0.37640(12) 0.50029(18) 0.20136(9)
H2 H 0.3530 0.5534 0.2241
C7 C 0.31945(13) 0.32902(19) 0.25037(9)
C8 C 0.13846(14) 0.60211(19) 0.12374(10)
H3 H 0.1686 0.5829 0.1665
C9 C 0.07735(14) 0.51809(19) 0.08638(10)
H4 H 0.0666 0.4445 0.1041
C10 C 0.03176(13) 0.54473(18) 0.02160(9)
C11 C 0.04867(14) 0.65793(19) -0.00115(10)
H5 H 0.0187 0.6805 -0.0434
C12 C 0.11023(14) 0.73707(19) 0.03931(10)
H6 H 0.1204 0.8127 0.0231
C13 C 0.25895(14) 0.97484(19) 0.03947(10)
H7 H 0.2736 0.8968 0.0284
C14 C 0.26496(14) 1.07545(19) 0.00293(10)
H8 H 0.2828 1.0640 -0.0320
C15 C 0.24434(12) 1.19392(18) 0.01819(9)
C16 C 0.21389(13) 1.20227(18) 0.06918(9)
H9 H 0.1963 1.2786 0.0799
C17 C 0.20969(13) 1.09744(18) 0.10389(9)
H10 H 0.1899 1.1058 0.1380
N2D N -0.15604(11) 0.28955(15) -0.10066(8)
C8D C -0.13846(14) 0.39789(19) -0.12374(10)
H3D H -0.1686 0.4171 -0.1665
C9D C -0.07735(14) 0.48191(19) -0.08638(10)
H4D H -0.0666 0.5555 -0.1041
C10D C -0.03176(13) 0.45527(18) -0.02160(9)
C11D C -0.04867(14) 0.34207(19) 0.00115(10)
H5D H -0.0187 0.3195 0.0434
C12D C -0.11023(14) 0.26293(19) -0.03931(10)
H6D H -0.1204 0.1873 -0.0231
N3F N 0.26704(11) 1.51580(15) -0.09035(7)
C13F C 0.24105(14) 1.52516(19) -0.03947(10)
H7F H 0.2264 1.6032 -0.0284
C14F C 0.23504(14) 1.42455(19) -0.00293(10)
H8F H 0.2172 1.4360 0.0320
C15F C 0.25566(12) 1.30608(18) -0.01819(9)
C16F C 0.28611(13) 1.29773(18) -0.06918(9)
H9F H 0.3037 1.2214 -0.0799
C17F C 0.29031(13) 1.40256(18) -0.10389(9)
H10F H 0.3101 1.3942 -0.1380
Zn1D Zn -0.245845(14) 0.16200(2) -0.155052(10)
S1D S -0.41300(3) 0.28403(5) -0.14894(2)
Cl1D Cl -0.41221(3) 0.86609(5) -0.18352(2)
Cl2D Cl -0.49804(3) 0.47751(5) -0.07315(2)
O1D O -0.31347(9) 0.58951(13) -0.29090(7)
O2D O -0.28558(10) 0.77453(14) -0.24310(7)
O3D O -0.50392(9) 0.24587(14) -0.16494(7)
O4D O -0.35572(9) 0.26926(13) -0.08283(6)
N1D N -0.36691(11) 0.22261(15) -0.19231(8)
C1D C -0.37040(13) 0.62742(19) -0.20903(9)
C2D C -0.40924(13) 0.70566(19) -0.17630(9)
C3D C -0.44985(13) 0.65679(19) -0.13626(9)
H1D H -0.4759 0.7095 -0.1151
C4D C -0.45172(13) 0.52983(19) -0.12778(9)
C5D C -0.41605(12) 0.44857(18) -0.16101(9)
C6D C -0.37640(12) 0.49971(18) -0.20136(9)
H2D H -0.3530 0.4466 -0.2241
C7D C -0.31945(13) 0.67098(19) -0.25037(9)
Zn1C Zn 0.254155(14) 0.33800(2) 0.344948(10)
Zn1F Zn 0.254155(14) 1.66200(2) -0.155052(10)
Zn1G Zn -0.254155(14) 0.66200(2) -0.344948(10)
O1C O 0.18653(9) 0.91049(13) 0.20910(7)
O1G O -0.18653(9) 0.08951(13) -0.20910(7)
N3D N -0.23296(11) 0.01580(15) -0.09035(7)
loop_
_geom_bond_atom_site_label_1
_geom_bond_atom_site_label_2
_geom_bond_site_symmetry_1
_geom_bond_site_symmetry_2
Zn1 N1 1_555 1_555
S1 O3 1_555 1_555
Cl1 C2 1_555 1_555
Cl2 C4 1_555 1_555
O1 C7 1_555 1_555
O2 C7 1_555 1_555
O4 S1 1_555 1_555
N1 S1 1_555 1_555
N2 Zn1 1_555 1_555
N3 Zn1 1_555 1_555
C1 C2 1_555 1_555
C2 C3 1_555 1_555
C3 H1 1_555 1_555
C4 C3 1_555 1_555
C5 S1 1_555 1_555
C6 C1 1_555 1_555
H2 C6 1_555 1_555
C7 C1 1_555 1_555
C8 N2 1_555 1_555
H3 C8 1_555 1_555
C9 C8 1_555 1_555
H4 C9 1_555 1_555
C10 C9 1_555 1_555
C11 C10 1_555 1_555
H5 C11 1_555 1_555
C12 N2 1_555 1_555
H6 C12 1_555 1_555
C13 N3 1_555 1_555
H7 C13 1_555 1_555
C14 C13 1_555 1_555
H8 C14 1_555 1_555
C15 C14 1_555 1_555
C16 C15 1_555 1_555
H9 C16 1_555 1_555
C17 N3 1_555 1_555
H10 C17 1_555 1_555
N2D C8D 1_555 1_555
C8D H3D 1_555 1_555
C9D C8D 1_555 1_555
H4D C9D 1_555 1_555
C10D C10 1_555 1_555
C11D C10D 1_555 1_555
H5D C11D 1_555 1_555
C12D N2D 1_555 1_555
H6D C12D 1_555 1_555
N3F C13F 1_555 1_555
C13F H7F 1_555 1_555
C14F C13F 1_555 1_555
H8F C14F 1_555 1_555
C15F C15 1_555 1_555
C16F C15F 1_555 1_555
H9F C16F 1_555 1_555
C17F N3F 1_555 1_555
H10F C17F 1_555 1_555
Zn1D N2D 1_555 1_555
S1D O3D 1_555 1_555
Cl1D C2D 1_555 1_555
Cl2D C4D 1_555 1_555
O1D C7D 1_555 1_555
O2D C7D 1_555 1_555
O4D S1D 1_555 1_555
N1D Zn1D 1_555 1_555
C1D C2D 1_555 1_555
C2D C3D 1_555 1_555
C3D H1D 1_555 1_555
C4D C3D 1_555 1_555
C5D S1D 1_555 1_555
C6D C1D 1_555 1_555
H2D C6D 1_555 1_555
C7D C1D 1_555 1_555
Zn1C O1 1_555 1_555
Zn1F N3F 1_555 1_555
Zn1G O1D 1_555 1_555
O1C Zn1 1_555 1_555
O1G Zn1D 1_555 1_555
N3D Zn1D 1_555 1_555
C4 C5 1_555 1_555
C5 C6 1_555 1_555
C11 C12 1_555 1_555
C16 C17 1_555 1_555
C9D C10D 1_555 1_555
C11D C12D 1_555 1_555
C14F C15F 1_555 1_555
C16F C17F 1_555 1_555
S1D N1D 1_555 1_555
C4D C5D 1_555 1_555
C5D C6D 1_555 1_555

#END
