
#######################################################################
#
#                 Cambridge Crystallographic Data Centre
#                                CCDC 
#
#######################################################################
#
# If this CIF has been generated from an entry in the Cambridge 
# Structural Database, then it will include bibliographic, chemical, 
# crystal, experimental, refinement or atomic coordinate data resulting 
# from the CCDC's data processing and validation procedures.
#
#######################################################################

data_NIKGET
_symmetry_cell_setting           monoclinic
_symmetry_space_group_name_H-M   'P 21/n'
_symmetry_Int_Tables_number      14
_space_group_name_Hall           '-P 2yn'
loop_
_symmetry_equiv_pos_site_id
_symmetry_equiv_pos_as_xyz
1 x,y,z
2 1/2-x,1/2+y,1/2-z
3 -x,-y,-z
4 1/2+x,1/2-y,1/2+z
_cell_length_a                   14.486(2)
_cell_length_b                   12.460(2)
_cell_length_c                   15.728(1)
_cell_angle_alpha                90
_cell_angle_beta                 92.973(9)
_cell_angle_gamma                90
_cell_volume                     2835.01
loop_
_atom_site_label
_atom_site_type_symbol
_atom_site_fract_x
_atom_site_fract_y
_atom_site_fract_z
Co1 Co -0.71958(8) 0.48823(10) -0.24251(7)
Mn1 Mn -0.95525(8) 0.8700(1) -0.34394(8)
S1 S -0.7390(2) 0.6683(2) -0.1665(2)
O1 O -0.8110(4) 0.9228(4) -0.3646(3)
O2 O -0.9114(3) 1.0009(4) -0.2508(3)
N1 N -0.6568(5) 0.9487(6) -0.2580(5)
N2 N -0.7524(5) 1.0367(6) -0.1467(4)
N3 N -1.0896(4) 0.9423(5) -0.3210(4)
N4 N -1.0679(5) 0.7329(6) -0.3842(4)
N5 N -0.9486(5) 0.8559(6) -0.4844(4)
N6 N -0.8924(5) 0.7583(6) -0.2540(4)
C1 C -0.5628(7) 0.8621(10) -0.6277(6)
C2 C -0.6263(7) 0.8756(8) -0.5571(6)
C3 C -0.5954(6) 0.8937(8) -0.4747(6)
C4 C -0.6536(6) 0.9090(7) -0.4073(5)
C5 C -0.7516(6) 0.9037(7) -0.4241(5)
C6 C -0.7831(6) 0.8750(7) -0.5074(5)
C7 C -0.7216(7) 0.8632(8) -0.5704(5)
C8 C -0.6131(6) 0.9194(8) -0.3222(7)
C9 C -0.6106(9) 0.9492(9) -0.1712(6)
C10 C -0.6522(6) 1.0361(8) -0.1209(6)
C11 C -0.8092(7) 1.0744(8) -0.0956(5)
C12 C -0.9097(6) 1.0839(7) -0.1117(6)
C13 C -0.9593(7) 1.1264(8) -0.0475(6)
C14 C -1.0538(8) 1.1378(8) -0.0542(6)
C15 C -1.1077(7) 1.1860(8) 0.0152(7)
C16 C -1.0976(6) 1.0997(8) -0.1281(6)
C17 C -1.0526(6) 1.0521(7) -0.1920(5)
C18 C -0.9551(6) 1.0445(6) -0.1880(5)
C19 C -1.1113(5) 1.0042(7) -0.2606(6)
C20 C -1.1690(6) 0.8917(8) -0.3687(6)
C21 C -1.1583(6) 0.7714(7) -0.3603(5)
C22 C -1.0672(6) 0.7176(8) -0.4774(7)
C23 C -1.0367(6) 0.8171(8) -0.5248(6)
C24 C -0.8791(7) 0.8524(7) -0.5314(5)
C25 C -0.8279(6) 0.7224(7) -0.2177(5)
Co1A Co -0.78042(8) 0.98823(10) -0.25749(7)
S1A S -0.7610(2) 1.1683(2) -0.3335(2)
Cl1 Cl -0.1604(2) -0.5852(3) -0.3457(2)
O3 O -0.1555(6) -0.4863(7) -0.3093(7)
O4 O -0.2514(5) -0.6155(7) -0.3682(5)
O5 O -0.1229(7) -0.6572(9) -0.2861(6)
O6 O -0.1060(6) -0.5920(10) -0.4141(5)
loop_
_geom_bond_atom_site_label_1
_geom_bond_atom_site_label_2
_geom_bond_site_symmetry_1
_geom_bond_site_symmetry_2
Co1 S1 1_555 1_555
Mn1 O1 1_555 1_555
Cl1 O3 1_555 1_555
S1 C25 1_555 1_555
O1 C5 1_555 1_555
O2 Mn1 1_555 1_555
O4 Cl1 1_555 1_555
O5 Cl1 1_555 1_555
O6 Cl1 1_555 1_555
N1 C8 1_555 1_555
N2 C10 1_555 1_555
N3 Mn1 1_555 1_555
N4 Mn1 1_555 1_555
N5 Mn1 1_555 1_555
N6 Mn1 1_555 1_555
C1 C2 1_555 1_555
C2 C3 1_555 1_555
C3 C4 1_555 1_555
C4 C5 1_555 1_555
C5 C6 1_555 1_555
C6 C7 1_555 1_555
C7 C2 1_555 1_555
C8 C4 1_555 1_555
C9 N1 1_555 1_555
C10 C9 1_555 1_555
C11 N2 1_555 1_555
C12 C11 1_555 1_555
C13 C12 1_555 1_555
C14 C13 1_555 1_555
C15 C14 1_555 1_555
C16 C14 1_555 1_555
C17 C16 1_555 1_555
C18 O2 1_555 1_555
C19 N3 1_555 1_555
C20 N3 1_555 1_555
C21 N4 1_555 1_555
C22 N4 1_555 1_555
C23 N5 1_555 1_555
C24 N5 1_555 1_555
C25 N6 1_555 1_555
Co1A O1 1_555 1_555
S1A Co1A 1_555 1_555
O2 Co1A 1_555 1_555
N1 Co1A 1_555 1_555
N2 Co1A 1_555 1_555
C6 C24 1_555 1_555
C12 C18 1_555 1_555
C17 C19 1_555 1_555
C17 C18 1_555 1_555
C20 C21 1_555 1_555
C22 C23 1_555 1_555

#END
