
#######################################################################
#
#                 Cambridge Crystallographic Data Centre
#                                CCDC 
#
#######################################################################
#
# If this CIF has been generated from an entry in the Cambridge 
# Structural Database, then it will include bibliographic, chemical, 
# crystal, experimental, refinement or atomic coordinate data resulting 
# from the CCDC's data processing and validation procedures.
#
#######################################################################

data_NIKGIX
_symmetry_cell_setting           monoclinic
_symmetry_space_group_name_H-M   'P 21/n'
_symmetry_Int_Tables_number      14
_space_group_name_Hall           '-P 2yn'
loop_
_symmetry_equiv_pos_site_id
_symmetry_equiv_pos_as_xyz
1 x,y,z
2 1/2-x,1/2+y,1/2-z
3 -x,-y,-z
4 1/2+x,1/2-y,1/2+z
_cell_length_a                   14.273(1)
_cell_length_b                   12.438(2)
_cell_length_c                   15.814(1)
_cell_angle_alpha                90
_cell_angle_beta                 93.279(7)
_cell_angle_gamma                90
_cell_volume                     2802.82
loop_
_atom_site_label
_atom_site_type_symbol
_atom_site_fract_x
_atom_site_fract_y
_atom_site_fract_z
Co1 Co 0.27658(4) 0.48383(5) -0.24153(4)
Fe1 Fe 0.04335(4) 0.87270(5) -0.34690(4)
S1 S 0.25311(9) 0.66505(10) -0.16696(8)
O1 O 0.1896(2) 0.9204(2) -0.3653(2)
O2 O 0.0918(2) 0.9992(2) -0.2523(2)
N1 N 0.3488(2) 0.9414(3) -0.2593(2)
N2 N 0.2543(2) 1.0321(3) -0.1486(2)
N3 N -0.0890(2) 0.9391(3) -0.3182(2)
N4 N -0.0667(3) 0.7354(3) -0.3855(3)
N5 N 0.0483(2) 0.8591(3) -0.4821(2)
N6 N 0.1043(2) 0.7631(3) -0.2603(2)
C1 C 0.4370(4) 0.8678(7) -0.6314(4)
C2 C 0.3733(3) 0.8789(4) -0.5595(3)
C3 C 0.4065(3) 0.8947(4) -0.4767(3)
C4 C 0.3485(3) 0.9065(3) -0.4094(3)
C5 C 0.2491(3) 0.9037(3) -0.4243(2)
C6 C 0.2150(3) 0.8792(3) -0.5082(2)
C7 C 0.2776(3) 0.8695(4) -0.5718(3)
C8 C 0.3916(3) 0.9132(4) -0.3246(3)
C9 C 0.3966(3) 0.9377(3) -0.1740(3)
C10 C 0.3559(3) 1.0266(5) -0.1243(3)
C11 C 0.1976(3) 1.0723(4) -0.0974(3)
C12 C 0.0975(3) 1.0829(3) -0.1144(3)
C13 C 0.0470(4) 1.1277(4) -0.0499(3)
C14 C -0.0493(3) 1.1388(4) -0.0556(3)
C15 C -0.1026(5) 1.1859(6) 0.0163(5)
C16 C -0.0954(3) 1.1001(4) -0.1275(3)
C17 C -0.0503(3) 1.0510(3) -0.1931(3)
C18 C 0.0495(3) 1.0432(3) -0.1890(3)
C19 C -0.1105(3) 1.0025(4) -0.2587(3)
C20 C -0.1706(3) 0.8860(4) -0.3628(3)
C21 C -0.1577(4) 0.7676(4) -0.3549(3)
C22 C -0.0689(4) 0.7199(5) -0.4778(4)
C23 C -0.0420(4) 0.8215(5) -0.5225(3)
C24 C 0.1170(3) 0.8597(4) -0.5301(3)
C25 C 0.1657(3) 0.7228(3) -0.2218(2)
Co1A Co 0.22342(4) 0.98383(5) -0.25847(4)
S1A S 0.24689(9) 1.16505(10) -0.33304(8)
Cl1 Cl 0.33375(9) 0.0932(1) 0.15047(9)
O3 O 0.3712(3) 0.1673(4) 0.2097(3)
O4 O 0.3853(3) 0.1050(4) 0.0802(2)
O5 O 0.3433(3) -0.0075(3) 0.1860(3)
O6 O 0.2391(2) 0.1189(3) 0.1313(3)
loop_
_geom_bond_atom_site_label_1
_geom_bond_atom_site_label_2
_geom_bond_site_symmetry_1
_geom_bond_site_symmetry_2
Co1 S1 1_555 1_555
Fe1 O1 1_555 1_555
Cl1 O3 1_555 1_555
S1 C25 1_555 1_555
O1 C5 1_555 1_555
O2 Fe1 1_555 1_555
O4 Cl1 1_555 1_555
O5 Cl1 1_555 1_555
O6 Cl1 1_555 1_555
N1 C8 1_555 1_555
N2 C10 1_555 1_555
N3 Fe1 1_555 1_555
N4 Fe1 1_555 1_555
N5 Fe1 1_555 1_555
N6 Fe1 1_555 1_555
C1 C2 1_555 1_555
C2 C3 1_555 1_555
C3 C4 1_555 1_555
C4 C5 1_555 1_555
C5 C6 1_555 1_555
C6 C7 1_555 1_555
C7 C2 1_555 1_555
C8 C4 1_555 1_555
C9 N1 1_555 1_555
C10 C9 1_555 1_555
C11 N2 1_555 1_555
C12 C11 1_555 1_555
C13 C12 1_555 1_555
C14 C13 1_555 1_555
C15 C14 1_555 1_555
C16 C14 1_555 1_555
C17 C16 1_555 1_555
C18 O2 1_555 1_555
C19 N3 1_555 1_555
C20 N3 1_555 1_555
C21 N4 1_555 1_555
C22 N4 1_555 1_555
C23 N5 1_555 1_555
C24 N5 1_555 1_555
C25 N6 1_555 1_555
Co1A O1 1_555 1_555
S1A Co1A 1_555 1_555
O2 Co1A 1_555 1_555
N1 Co1A 1_555 1_555
N2 Co1A 1_555 1_555
C6 C24 1_555 1_555
C12 C18 1_555 1_555
C17 C19 1_555 1_555
C17 C18 1_555 1_555
C20 C21 1_555 1_555
C22 C23 1_555 1_555

#END
