
#######################################################################
#
#                 Cambridge Crystallographic Data Centre
#                                CCDC 
#
#######################################################################
#
# If this CIF has been generated from an entry in the Cambridge 
# Structural Database, then it will include bibliographic, chemical, 
# crystal, experimental, refinement or atomic coordinate data resulting 
# from the CCDC's data processing and validation procedures.
#
#######################################################################

data_NIKRUW
_symmetry_cell_setting           monoclinic
_symmetry_space_group_name_H-M   'C 2/c'
_symmetry_Int_Tables_number      15
_space_group_name_Hall           '-C 2yn'
loop_
_symmetry_equiv_pos_site_id
_symmetry_equiv_pos_as_xyz
1 x,y,z
2 -x,y,1/2-z
3 1/2+x,1/2+y,z
4 1/2-x,1/2+y,1/2-z
5 -x,-y,-z
6 x,-y,1/2+z
7 1/2-x,1/2-y,-z
8 1/2+x,1/2-y,1/2+z
_cell_length_a                   16.8808(4)
_cell_length_b                   7.3212(2)
_cell_length_c                   13.5268(3)
_cell_angle_alpha                90
_cell_angle_beta                 128.3640(10)
_cell_angle_gamma                90
_cell_volume                     1310.79
loop_
_atom_site_label
_atom_site_type_symbol
_atom_site_fract_x
_atom_site_fract_y
_atom_site_fract_z
Cs1 Cs 0.152844(10) 0.314498(19) 0.109026(12)
Ca1 Ca 0.0000 0.33665(10) 0.2500
C1 C 0.12874(17) 0.1846(3) 0.4980(2)
O1 O 0.06123(14) 0.3069(2) 0.43831(17)
O2 O 0.17036(14) 0.1342(3) 0.60819(16)
C2 C 0.15913(16) 0.0871(3) 0.4234(2)
O3 O 0.22599(14) -0.0311(3) 0.47650(17)
O4 O 0.10886(13) 0.1373(2) 0.30886(16)
O5 O -0.03349(15) 0.1582(2) -0.15099(18)
H1 H -0.071(3) 0.159(6) -0.133(5)
H2 H -0.049(4) 0.079(5) -0.202(4)
O6 O 0.10155(13) 0.5272(2) 0.28003(17)
H3 H 0.088(4) 0.632(4) 0.254(4)
H4 H 0.154(3) 0.532(8) 0.351(3)
Cs1A Cs -0.152844(10) 0.314498(19) 0.390974(12)
C1A C -0.12874(17) 0.1846(3) 0.0020(2)
O1A O -0.06123(14) 0.3069(2) 0.06169(17)
O2A O -0.17036(14) 0.1342(3) -0.10819(16)
C2A C -0.15913(16) 0.0871(3) 0.0766(2)
O3A O -0.22599(14) -0.0311(3) 0.02350(17)
O4A O -0.10886(13) 0.1373(2) 0.19114(16)
O5A O 0.03349(15) 0.1582(2) 0.65099(18)
H1A H 0.071(3) 0.159(6) 0.633(5)
H2A H 0.049(4) 0.079(5) 0.702(4)
O6A O -0.10155(13) 0.5272(2) 0.21997(17)
H3A H -0.088(4) 0.632(4) 0.246(4)
H4A H -0.154(3) 0.532(8) 0.149(3)
Cs1B Cs -0.347156(10) -0.185502(19) 0.109026(12)
Cs1C Cs 0.347156(10) -0.185502(19) 0.390974(12)
Cs1D Cs -0.152844(10) -0.314498(19) -0.109026(12)
Cs1D_2 Cs -0.152844(10) 0.685502(19) -0.109026(12)
Cs1E Cs 0.152844(10) -0.314498(19) 0.609026(12)
Cs1E_2 Cs 0.152844(10) 0.685502(19) 0.609026(12)
Cs1F Cs 0.347156(10) 0.185502(19) 0.890974(12)
Cs1G Cs -0.347156(10) 0.185502(19) -0.390974(12)
O1D O -0.06123(14) 0.6931(2) 0.56169(17)
O1E O 0.06123(14) 0.6931(2) -0.06169(17)
O2D O -0.17036(14) -0.1342(3) 0.39181(16)
O2E O 0.17036(14) -0.1342(3) 0.10819(16)
O2F O 0.32964(14) 0.3658(3) 0.39181(16)
O2G O -0.32964(14) 0.3658(3) 0.10819(16)
O3B O -0.27401(14) 0.4689(3) 0.47650(17)
O3C O 0.27401(14) 0.4689(3) 0.02350(17)
O3D O -0.22599(14) 0.0311(3) 0.52350(17)
O3E O 0.22599(14) 0.0311(3) -0.02350(17)
loop_
_geom_bond_atom_site_label_1
_geom_bond_atom_site_label_2
_geom_bond_site_symmetry_1
_geom_bond_site_symmetry_2
Cs1 O4 1_555 1_555
Ca1 O1 1_555 1_555
C1 O1 1_555 1_555
O1 Cs1A 1_555 1_555
O2 C1 1_555 1_555
C2 C1 1_555 1_555
O3 C2 1_555 1_555
O4 Ca1 1_555 1_555
O5 Cs1 1_555 1_555
H1 O5 1_555 1_555
H2 O5 1_555 1_555
O6 Cs1 1_555 1_555
H3 O6 1_555 1_555
H4 O6 1_555 1_555
Cs1A O4A 1_555 1_555
C1A O1A 1_555 1_555
O1A Cs1 1_555 1_555
O2A C1A 1_555 1_555
C2A C1A 1_555 1_555
O3A C2A 1_555 1_555
O4A Ca1 1_555 1_555
O5A Cs1A 1_555 1_555
H1A O5A 1_555 1_555
H2A O5A 1_555 1_555
O6A Ca1 1_555 1_555
H3A O6A 1_555 1_555
H4A O6A 1_555 1_555
Cs1B O3A 1_555 1_555
Cs1C O3 1_555 1_555
Cs1D O2A 1_555 1_555
Cs1D_2 O1A 1_555 1_555
Cs1E O2 1_555 1_555
Cs1E_2 O1 1_555 1_555
Cs1F O2 1_555 1_555
Cs1G O2A 1_555 1_555
O1D Cs1A 1_555 1_555
O1E Cs1 1_555 1_555
O2D Cs1A 1_555 1_555
O2E Cs1 1_555 1_555
O2F Cs1 1_555 1_555
O2G Cs1A 1_555 1_555
O3B Cs1A 1_555 1_555
O3C Cs1 1_555 1_555
O3D Cs1A 1_555 1_555
O3E Cs1 1_555 1_555
Ca1 O6 1_555 1_555
Ca1 O1A 1_555 1_555
C2 O4 1_555 1_555
O3 Cs1E 1_555 1_555
Cs1A O6A 1_555 1_555
C2A O4A 1_555 1_555
O3A Cs1D 1_555 1_555
Cs1B O2D 1_555 1_555
Cs1C O2E 1_555 1_555
Cs1D_2 O1E 1_555 1_555
Cs1E_2 O1D 1_555 1_555

#END
