
#######################################################################
#
#                 Cambridge Crystallographic Data Centre
#                                CCDC 
#
#######################################################################
#
# If this CIF has been generated from an entry in the Cambridge 
# Structural Database, then it will include bibliographic, chemical, 
# crystal, experimental, refinement or atomic coordinate data resulting 
# from the CCDC's data processing and validation procedures.
#
#######################################################################

data_NIKTAE
_symmetry_cell_setting           monoclinic
_symmetry_space_group_name_H-M   'P 21/c'
_symmetry_Int_Tables_number      14
_space_group_name_Hall           '-P 2ybc'
loop_
_symmetry_equiv_pos_site_id
_symmetry_equiv_pos_as_xyz
1 x,y,z
2 -x,1/2+y,1/2-z
3 -x,-y,-z
4 x,1/2-y,1/2+z
_cell_length_a                   10.616(2)
_cell_length_b                   13.006(3)
_cell_length_c                   9.0513(18)
_cell_angle_alpha                90
_cell_angle_beta                 93.09(3)
_cell_angle_gamma                90
_cell_volume                     1247.91
loop_
_atom_site_label
_atom_site_type_symbol
_atom_site_fract_x
_atom_site_fract_y
_atom_site_fract_z
Ni1 Ni 0.243734(14) 0.519202(13) -0.006123(17)
K1 K -0.13777(3) 0.90086(3) 0.14726(4)
O1 O 0.07698(9) 0.76820(8) 0.19256(13)
O2 O 0.12630(9) 0.63014(8) 0.06472(12)
O3 O 0.38530(9) 0.63022(8) -0.02002(10)
O4 O 0.32413(10) 0.51024(8) 0.20239(12)
O5 O 0.43183(11) 0.60531(8) 0.37004(11)
O6 O 0.62460(9) 0.58099(8) 0.07541(12)
O7 O 0.74115(11) 0.72082(10) 0.11481(19)
O8 O 0.11765(10) 0.40268(8) 0.03601(12)
O9 O 0.16893(11) 0.54135(9) -0.21942(12)
O10 O -0.00587(17) 0.89783(14) -0.11374(17)
O11 O -0.32069(13) 0.97832(11) -0.06745(14)
C1 C 0.15547(12) 0.71310(10) 0.13242(14)
C2 C 0.29093(12) 0.75171(10) 0.13945(16)
C3 C 0.39866(11) 0.67514(10) 0.12633(13)
C4 C 0.38568(12) 0.58926(10) 0.24245(14)
C5 C 0.52249(12) 0.73442(11) 0.14594(16)
C6 C 0.63933(12) 0.67517(11) 0.11019(15)
H1 H 0.444(2) 0.6015(17) -0.036(2)
H2 H 0.2987(17) 0.8014(15) 0.067(2)
H3 H 0.3039(17) 0.7872(16) 0.227(2)
H4 H 0.5183(18) 0.7941(16) 0.090(2)
H5 H 0.5320(17) 0.7593(15) 0.249(2)
H6 H 0.047(2) 0.4026(18) 0.003(2)
H7 H 0.152(2) 0.354(2) -0.006(3)
H8 H 0.220(2) 0.525(2) -0.290(3)
H9 H 0.140(2) 0.601(2) -0.235(3)
H10 H -0.003(3) 0.8359(11) -0.141(4)
H11 H -0.073(3) 0.906(4) -0.168(5)
H12 H -0.372(2) 0.948(2) -0.100(3)
H13 H -0.351(2) 1.0134(19) 0.001(3)
Ni1B Ni 0.756266(14) 0.480798(13) 0.006123(17)
K1_2 K 0.86223(3) 0.90086(3) 0.14726(4)
K1A K 0.13777(3) 0.40086(3) 0.35274(4)
K1B K 0.13777(3) 1.09914(3) -0.14726(4)
O4A O -0.32413(10) 1.01024(8) 0.29761(12)
O6B O 0.37540(9) 0.41901(8) -0.07541(12)
O7_2 O -0.25885(11) 0.72082(10) 0.11481(19)
O8A O -0.11765(10) 0.90268(8) 0.46399(12)
O10B O 0.00587(17) 1.10217(14) 0.11374(17)
loop_
_geom_bond_atom_site_label_1
_geom_bond_atom_site_label_2
_geom_bond_site_symmetry_1
_geom_bond_site_symmetry_2
Ni1 O2 1_555 1_555
K1 O1 1_555 1_555
O1 C1 1_555 1_555
O2 C1 1_555 1_555
O3 Ni1 1_555 1_555
O4 Ni1 1_555 1_555
O5 C4 1_555 1_555
O6 C6 1_555 1_555
O7 C6 1_555 1_555
O8 Ni1 1_555 1_555
O9 Ni1 1_555 1_555
O10 K1 1_555 1_555
O11 K1 1_555 1_555
C1 C2 1_555 1_555
C2 C3 1_555 1_555
C3 O3 1_555 1_555
C4 O4 1_555 1_555
C5 C3 1_555 1_555
C6 C5 1_555 1_555
H1 O3 1_555 1_555
H2 C2 1_555 1_555
H3 C2 1_555 1_555
H4 C5 1_555 1_555
H5 C5 1_555 1_555
H6 O8 1_555 1_555
H7 O8 1_555 1_555
H8 O9 1_555 1_555
H9 O9 1_555 1_555
H10 O10 1_555 1_555
H11 O10 1_555 1_555
H12 O11 1_555 1_555
H13 O11 1_555 1_555
Ni1B O6 1_555 1_555
K1_2 O7 1_555 1_555
K1A O4 1_555 1_555
K1B O10 1_555 1_555
O4A K1 1_555 1_555
O6B Ni1 1_555 1_555
O7_2 K1 1_555 1_555
O8A K1 1_555 1_555
O10B K1 1_555 1_555
O8 K1A 1_555 1_555
C3 C4 1_555 1_555
K1B O10B 1_555 1_555

#END
