
#######################################################################
#
#                 Cambridge Crystallographic Data Centre
#                                CCDC 
#
#######################################################################
#
# If this CIF has been generated from an entry in the Cambridge 
# Structural Database, then it will include bibliographic, chemical, 
# crystal, experimental, refinement or atomic coordinate data resulting 
# from the CCDC's data processing and validation procedures.
#
#######################################################################

data_NIKWOV
_symmetry_cell_setting           monoclinic
_symmetry_space_group_name_H-M   'P 21/c'
_symmetry_Int_Tables_number      14
_space_group_name_Hall           '-P 2ybc'
loop_
_symmetry_equiv_pos_site_id
_symmetry_equiv_pos_as_xyz
1 x,y,z
2 -x,1/2+y,1/2-z
3 -x,-y,-z
4 x,1/2-y,1/2+z
_cell_length_a                   10.0877(14)
_cell_length_b                   8.1922(10)
_cell_length_c                   20.570(2)
_cell_angle_alpha                90
_cell_angle_beta                 102.589(8)
_cell_angle_gamma                90
_cell_volume                     1659.05
loop_
_atom_site_label
_atom_site_type_symbol
_atom_site_fract_x
_atom_site_fract_y
_atom_site_fract_z
C1 C 0.6935(4) 0.2217(5) 0.41187(18)
H1 H 0.6769 0.1599 0.3712
H2 H 0.7039 0.1485 0.4491
H3 H 0.7749 0.2848 0.4154
C2 C 0.5242(2) 0.3099(3) 0.24797(11)
C3 C 0.3753(2) 0.2907(3) 0.25087(12)
H4 H 0.3179 0.3249 0.2089
H5 H 0.3560 0.1770 0.2581
C4 C 0.1090(2) 0.3233(3) 0.26828(12)
H6 H 0.1274 0.2588 0.2341
C5 C -0.0237(3) 0.3400(4) 0.27576(13)
H7 H -0.0936 0.2867 0.2465
C6 C -0.0525(3) 0.4341(4) 0.32578(14)
H8 H -0.1418 0.4470 0.3301
C7 C 0.0517(3) 0.5092(3) 0.36958(14)
H9 H 0.0315 0.5713 0.4040
C8 C 0.1880(2) 0.4959(3) 0.36431(11)
C9 C 0.2136(2) 0.4015(3) 0.31103(11)
C10 C 0.2849(2) 0.5833(3) 0.41492(11)
C11 C 0.6105(2) 0.7209(3) 0.45898(11)
C12 C 0.7036(2) 0.8173(3) 0.50982(11)
C13 C 0.6566(3) 0.9116(3) 0.55665(11)
H10 H 0.5638 0.9154 0.5552
C14 C 0.7437(3) 0.9989(3) 0.60491(13)
H11 H 0.7106 1.0602 0.6360
C15 C 0.8805(3) 0.9942(4) 0.60641(14)
H12 H 0.9403 1.0524 0.6390
C16 C 0.9299(3) 0.9054(4) 0.56088(15)
H13 H 1.0228 0.9044 0.5625
C17 C 0.8429(3) 0.8170(3) 0.51235(13)
H14 H 0.818(4) 0.691(5) 0.4351(19)
H15 H 0.251(2) 0.630(3) 0.4492(12)
H16 H 0.558(3) 0.323(4) 0.4441(16)
N1 N 0.48640(18) 0.6936(2) 0.46842(9)
N2 N 0.41149(18) 0.6014(2) 0.41628(8)
Ni1 Ni 0.51359(3) 0.52553(4) 0.351123(13)
O1 O 0.59405(15) 0.4187(2) 0.28177(7)
O2 O 0.56805(17) 0.2161(2) 0.21012(8)
O3 O 0.34651(15) 0.3882(2) 0.30411(7)
O4 O 0.65470(16) 0.6669(2) 0.40854(8)
O5 O 0.58543(18) 0.3247(2) 0.41172(9)
O6 O 0.8977(2) 0.7297(3) 0.46879(12)
Ni1A Ni 0.48641(3) 0.02553(4) 0.148877(13)
O2A O 0.43195(17) 0.7161(2) 0.28988(8)
loop_
_geom_bond_atom_site_label_1
_geom_bond_atom_site_label_2
_geom_bond_site_symmetry_1
_geom_bond_site_symmetry_2
C1 H1 1_555 1_555
H2 C1 1_555 1_555
H3 C1 1_555 1_555
C2 C3 1_555 1_555
C3 H4 1_555 1_555
H5 C3 1_555 1_555
C4 H6 1_555 1_555
C5 C4 1_555 1_555
H7 C5 1_555 1_555
C6 C5 1_555 1_555
H8 C6 1_555 1_555
C7 C6 1_555 1_555
H9 C7 1_555 1_555
C8 C7 1_555 1_555
C9 C4 1_555 1_555
C10 C8 1_555 1_555
C11 C12 1_555 1_555
C12 C13 1_555 1_555
C13 H10 1_555 1_555
C14 C13 1_555 1_555
H11 C14 1_555 1_555
C15 C14 1_555 1_555
H12 C15 1_555 1_555
C16 C15 1_555 1_555
H13 C16 1_555 1_555
C17 C12 1_555 1_555
H14 O6 1_555 1_555
H15 C10 1_555 1_555
H16 O5 1_555 1_555
N1 C11 1_555 1_555
N2 C10 1_555 1_555
Ni1 N2 1_555 1_555
O1 C2 1_555 1_555
O2 C2 1_555 1_555
O3 C3 1_555 1_555
O4 C11 1_555 1_555
O5 C1 1_555 1_555
O6 C17 1_555 1_555
Ni1A O2 1_555 1_555
O2A Ni1 1_555 1_555
C8 C9 1_555 1_555
C9 O3 1_555 1_555
C16 C17 1_555 1_555
N1 N2 1_555 1_555
Ni1 O1 1_555 1_555
Ni1 O3 1_555 1_555
Ni1 O4 1_555 1_555
Ni1 O5 1_555 1_555

#END
