
#######################################################################
#
#                 Cambridge Crystallographic Data Centre
#                                CCDC 
#
#######################################################################
#
# If this CIF has been generated from an entry in the Cambridge 
# Structural Database, then it will include bibliographic, chemical, 
# crystal, experimental, refinement or atomic coordinate data resulting 
# from the CCDC's data processing and validation procedures.
#
#######################################################################

data_NIKWEL
_symmetry_cell_setting           monoclinic
_symmetry_space_group_name_H-M   'P 21/c'
_symmetry_Int_Tables_number      14
_space_group_name_Hall           '-P 2ybc'
loop_
_symmetry_equiv_pos_site_id
_symmetry_equiv_pos_as_xyz
1 x,y,z
2 -x,1/2+y,1/2-z
3 -x,-y,-z
4 x,1/2-y,1/2+z
_cell_length_a                   9.374(2)
_cell_length_b                   17.834(5)
_cell_length_c                   8.926(2)
_cell_angle_alpha                90
_cell_angle_beta                 113.500(3)
_cell_angle_gamma                90
_cell_volume                     1368.45
loop_
_atom_site_label
_atom_site_type_symbol
_atom_site_fract_x
_atom_site_fract_y
_atom_site_fract_z
Mn1 Mn 0.28290(3) 0.932763(14) 0.20300(3)
S1 S 0.64896(7) 0.83770(4) -0.00986(9)
O1 O 0.39555(17) 0.91664(7) 0.47096(16)
O2 O 0.56302(18) 0.96932(8) 0.70068(16)
O3 O 0.17776(14) 0.99693(8) -0.02014(16)
O4 O -0.05151(15) 1.04344(8) -0.18979(16)
N1 N 0.45900(19) 0.87876(9) 0.1125(2)
N2 N 0.22949(18) 0.81054(8) 0.17676(18)
N3 N 0.2776(2) 0.69534(9) 0.1121(2)
H1 H 0.3214 0.6596 0.0814
C1 C 0.0364(2) 1.01176(9) -0.0610(2)
C2 C 0.3161(2) 0.76883(10) 0.1233(2)
C3 C 0.1257(2) 0.76095(10) 0.1997(2)
C4 C 0.4377(2) 0.80249(11) 0.0832(2)
C5 C 0.4889(2) 0.96704(10) 0.5512(2)
C6 C 0.1543(2) 0.68852(11) 0.1592(2)
C7 C 0.0076(2) 0.77466(13) 0.2539(3)
H2 H -0.0116 0.8225 0.2831
C8 C 0.0644(3) 0.62731(13) 0.1659(3)
H3 H 0.0825 0.5792 0.1372
C9 C 0.5322(3) 0.77105(13) 0.0185(3)
H4 H 0.5331 0.7205 -0.0067
C10 C -0.0793(3) 0.71361(15) 0.2620(3)
H5 H -0.1583 0.7206 0.2986
C11 C -0.0529(3) 0.64235(16) 0.2177(4)
H6 H -0.1164 0.6033 0.2230
C12 C 0.5678(3) 0.90352(14) 0.0683(3)
H7 H 0.5982 0.9535 0.0791
O1B O 0.60445(17) 1.08336(7) 0.52904(16)
C5B C 0.5111(2) 1.03296(10) 0.4488(2)
O2B O 0.43698(18) 1.03068(8) 0.29932(16)
O3B O -0.17776(14) 1.00307(8) 0.02014(16)
C1B C -0.0364(2) 0.98824(9) 0.0610(2)
O4B O 0.05151(15) 0.95656(8) 0.18979(16)
Mn1B Mn -0.28290(3) 1.067237(14) -0.20300(3)
S1B S -0.64896(7) 1.16230(4) 0.00986(9)
N1B N -0.45900(19) 1.12124(9) -0.1125(2)
N2B N -0.22949(18) 1.18946(8) -0.17676(18)
N3B N -0.2776(2) 1.30466(9) -0.1121(2)
H1B H -0.3214 1.3404 -0.0814
C2B C -0.3161(2) 1.23117(10) -0.1233(2)
C3B C -0.1257(2) 1.23905(10) -0.1997(2)
C4B C -0.4377(2) 1.19751(11) -0.0832(2)
C6B C -0.1543(2) 1.31148(11) -0.1592(2)
C7B C -0.0076(2) 1.22534(13) -0.2539(3)
H2B H 0.0116 1.1775 -0.2831
C8B C -0.0644(3) 1.37269(13) -0.1659(3)
H3B H -0.0825 1.4208 -0.1372
C9B C -0.5322(3) 1.22895(13) -0.0185(3)
H4B H -0.5331 1.2795 0.0067
C10B C 0.0793(3) 1.28639(15) -0.2620(3)
H5B H 0.1583 1.2794 -0.2986
C11B C 0.0529(3) 1.35765(16) -0.2177(4)
H6B H 0.1164 1.3967 -0.2230
C12B C -0.5678(3) 1.09648(14) -0.0683(3)
H7B H -0.5982 1.0465 -0.0791
Mn1B_2 Mn 0.71710(3) 1.067237(14) 0.79700(3)
O1B_2 O -0.39555(17) 1.08336(7) -0.47096(16)
O2_2 O -0.43698(18) 0.96932(8) -0.29932(16)
loop_
_geom_bond_atom_site_label_1
_geom_bond_atom_site_label_2
_geom_bond_site_symmetry_1
_geom_bond_site_symmetry_2
Mn1 O1 1_555 1_555
S1 C9 1_555 1_555
O1 C5 1_555 1_555
O2 C5 1_555 1_555
O3 Mn1 1_555 1_555
O4 C1 1_555 1_555
N1 Mn1 1_555 1_555
N2 Mn1 1_555 1_555
N3 H1 1_555 1_555
C1 O3 1_555 1_555
C2 N2 1_555 1_555
C3 N2 1_555 1_555
C4 N1 1_555 1_555
C5 C5B 1_555 1_555
C6 N3 1_555 1_555
C7 C3 1_555 1_555
H2 C7 1_555 1_555
C8 C6 1_555 1_555
H3 C8 1_555 1_555
C9 C4 1_555 1_555
H4 C9 1_555 1_555
C10 C7 1_555 1_555
H5 C10 1_555 1_555
C11 C8 1_555 1_555
H6 C11 1_555 1_555
C12 S1 1_555 1_555
H7 C12 1_555 1_555
O1B C5B 1_555 1_555
C5B O2B 1_555 1_555
O2B Mn1 1_555 1_555
O3B C1B 1_555 1_555
C1B C1 1_555 1_555
O4B Mn1 1_555 1_555
Mn1B O4 1_555 1_555
S1B C9B 1_555 1_555
N1B Mn1B 1_555 1_555
N2B Mn1B 1_555 1_555
N3B H1B 1_555 1_555
C2B N2B 1_555 1_555
C3B N2B 1_555 1_555
C4B N1B 1_555 1_555
C6B N3B 1_555 1_555
C7B C3B 1_555 1_555
H2B C7B 1_555 1_555
C8B C6B 1_555 1_555
H3B C8B 1_555 1_555
C9B C4B 1_555 1_555
H4B C9B 1_555 1_555
C10B C7B 1_555 1_555
H5B C10B 1_555 1_555
C11B C8B 1_555 1_555
H6B C11B 1_555 1_555
C12B S1B 1_555 1_555
H7B C12B 1_555 1_555
Mn1B_2 O2 1_555 1_555
O1B_2 Mn1B 1_555 1_555
O2_2 Mn1B 1_555 1_555
N1 C12 1_555 1_555
N3 C2 1_555 1_555
C2 C4 1_555 1_555
C3 C6 1_555 1_555
C10 C11 1_555 1_555
O1B Mn1B_2 1_555 1_555
O3B Mn1B 1_555 1_555
C1B O4B 1_555 1_555
N1B C12B 1_555 1_555
N3B C2B 1_555 1_555
C2B C4B 1_555 1_555
C3B C6B 1_555 1_555
C10B C11B 1_555 1_555

#END
