
#######################################################################
#
#                 Cambridge Crystallographic Data Centre
#                                CCDC 
#
#######################################################################
#
# If this CIF has been generated from an entry in the Cambridge 
# Structural Database, then it will include bibliographic, chemical, 
# crystal, experimental, refinement or atomic coordinate data resulting 
# from the CCDC's data processing and validation procedures.
#
#######################################################################

data_NIKZUD
_symmetry_cell_setting           orthorhombic
_symmetry_space_group_name_H-M   'P n a 21'
_symmetry_Int_Tables_number      33
_space_group_name_Hall           'P 2c -2n'
loop_
_symmetry_equiv_pos_site_id
_symmetry_equiv_pos_as_xyz
1 x,y,z
2 -x,-y,1/2+z
3 1/2+x,1/2-y,z
4 1/2-x,1/2+y,1/2+z
_cell_length_a                   14.1592(3)
_cell_length_b                   13.2142(2)
_cell_length_c                   12.5186(3)
_cell_angle_alpha                90
_cell_angle_beta                 90
_cell_angle_gamma                90
_cell_volume                     2342.26
loop_
_atom_site_label
_atom_site_type_symbol
_atom_site_fract_x
_atom_site_fract_y
_atom_site_fract_z
Cd1 Cd -0.12530(5) 0.91837(5) 0.2485(2)
O1 O -0.2040(8) 0.9467(7) 0.4032(8)
O2 O -0.4095(8) 1.3395(7) 0.5856(7)
O3 O -0.2706(5) 1.0058(6) 0.2624(8)
O4 O -0.3686(5) 1.2452(6) 0.7166(8)
N1 N 0.0211(7) 0.9001(7) 0.3330(10)
N2 N 0.5603(8) 0.5671(6) 0.6849(10)
C1 C -0.4069(7) 1.1606(7) 0.5578(9)
C2 C -0.3321(11) 1.1458(10) 0.4686(11)
C3 C -0.3473(7) 1.0344(8) 0.4350(9)
H1 H -0.4091 1.0259 0.4010
C4 C -0.3469(17) 0.9854(11) 0.5497(16)
H2 H -0.2831 0.9673 0.5706
H3 H -0.3857 0.9250 0.5509
C5 C -0.3868(13) 1.0652(14) 0.6247(12)
H4 H -0.4445 1.0409 0.6575
H5 H -0.3416 1.0805 0.6807
C6 C -0.5059(12) 1.151(2) 0.5196(18)
H6 H -0.5222 1.2100 0.4784
H7 H -0.5118 1.0919 0.4759
H8 H -0.5476 1.1459 0.5798
C7 C -0.2331(6) 1.1748(9) 0.4965(12)
H9 H -0.2112 1.1336 0.5546
H10 H -0.1930 1.1648 0.4356
H11 H -0.2314 1.2447 0.5172
C8 C -0.3623(12) 1.2146(15) 0.3692(14)
H12 H -0.3526 1.2846 0.3865
H13 H -0.3247 1.1970 0.3081
H14 H -0.4278 1.2035 0.3533
C9 C -0.3928(7) 1.2561(9) 0.6221(13)
C10 C -0.2687(8) 0.9926(8) 0.3634(11)
C11 C 0.4803(10) 0.5560(10) 0.6346(14)
H15 H 0.4544 0.4921 0.6242
C12 C 0.4342(11) 0.6432(11) 0.5964(14)
H16 H 0.3754 0.6351 0.5646
C13 C 0.4695(10) 0.7365(11) 0.6030(11)
C14 C 0.5559(8) 0.7430(11) 0.6570(11)
H17 H 0.5838 0.8059 0.6676
C15 C 0.5992(8) 0.6584(9) 0.6940(11)
H18 H 0.6579 0.6644 0.7267
C16 C 0.4323(12) 0.8287(12) 0.5588(16)
H19 H 0.4752 0.8532 0.5042
H20 H 0.4294 0.8795 0.6147
C17 C 0.3336(12) 0.8161(11) 0.5098(18)
H21 H 0.2882 0.8049 0.5667
H22 H 0.3333 0.7568 0.4642
C18 C 0.3027(12) 0.9087(12) 0.444(2)
H23 H 0.3115 0.9694 0.4865
H24 H 0.3427 0.9142 0.3814
C19 C 0.0764(9) 0.8209(8) 0.3186(9)
H25 H 0.0527 0.7641 0.2838
C20 C 0.1693(9) 0.8207(11) 0.3544(11)
H26 H 0.2078 0.7651 0.3409
C21 C 0.2052(10) 0.9031(10) 0.4102(11)
C22 C 0.1451(10) 0.9812(13) 0.4240(11)
H27 H 0.1669 1.0395 0.4577
C23 C 0.0581(10) 0.9778(11) 0.3921(13)
H28 H 0.0184 1.0312 0.4104
Cd1C Cd -0.37470(5) 1.41837(5) 0.7485(2)
Cd1C_2 Cd 0.62530(5) 0.41837(5) 0.7485(2)
O2C O -0.0905(8) 0.8395(7) 0.0856(7)
O4C O -0.1314(5) 0.7452(6) 0.2166(8)
N2C N -0.0603(8) 1.0671(6) 0.1849(10)
loop_
_geom_bond_atom_site_label_1
_geom_bond_atom_site_label_2
_geom_bond_site_symmetry_1
_geom_bond_site_symmetry_2
Cd1 O1 1_555 1_555
O1 C10 1_555 1_555
O2 C9 1_555 1_555
O3 Cd1 1_555 1_555
O4 C9 1_555 1_555
N1 Cd1 1_555 1_555
N2 C11 1_555 1_555
C1 C2 1_555 1_555
C2 C3 1_555 1_555
C3 H1 1_555 1_555
C4 C3 1_555 1_555
H2 C4 1_555 1_555
H3 C4 1_555 1_555
C5 C1 1_555 1_555
H4 C5 1_555 1_555
H5 C5 1_555 1_555
C6 C1 1_555 1_555
H6 C6 1_555 1_555
H7 C6 1_555 1_555
H8 C6 1_555 1_555
C7 C2 1_555 1_555
H9 C7 1_555 1_555
H10 C7 1_555 1_555
H11 C7 1_555 1_555
C8 C2 1_555 1_555
H12 C8 1_555 1_555
H13 C8 1_555 1_555
H14 C8 1_555 1_555
C9 C1 1_555 1_555
C10 O3 1_555 1_555
C11 H15 1_555 1_555
C12 C11 1_555 1_555
H16 C12 1_555 1_555
C13 C12 1_555 1_555
C14 C13 1_555 1_555
H17 C14 1_555 1_555
C15 N2 1_555 1_555
H18 C15 1_555 1_555
C16 C13 1_555 1_555
H19 C16 1_555 1_555
H20 C16 1_555 1_555
C17 C16 1_555 1_555
H21 C17 1_555 1_555
H22 C17 1_555 1_555
C18 C17 1_555 1_555
H23 C18 1_555 1_555
H24 C18 1_555 1_555
C19 N1 1_555 1_555
H25 C19 1_555 1_555
C20 C19 1_555 1_555
H26 C20 1_555 1_555
C21 C18 1_555 1_555
C22 C21 1_555 1_555
H27 C22 1_555 1_555
C23 N1 1_555 1_555
H28 C23 1_555 1_555
Cd1C O2 1_555 1_555
Cd1C_2 N2 1_555 1_555
O2C Cd1 1_555 1_555
O4C Cd1 1_555 1_555
N2C Cd1 1_555 1_555
O4 Cd1C 1_555 1_555
C3 C10 1_555 1_555
C4 C5 1_555 1_555
C14 C15 1_555 1_555
C20 C21 1_555 1_555
C22 C23 1_555 1_555

#END
