
#######################################################################
#
#                 Cambridge Crystallographic Data Centre
#                                CCDC 
#
#######################################################################
#
# If this CIF has been generated from an entry in the Cambridge 
# Structural Database, then it will include bibliographic, chemical, 
# crystal, experimental, refinement or atomic coordinate data resulting 
# from the CCDC's data processing and validation procedures.
#
#######################################################################

data_NILBIV
_symmetry_cell_setting           triclinic
_symmetry_space_group_name_H-M   'P -1'
_symmetry_Int_Tables_number      2
_space_group_name_Hall           '-P 1'
loop_
_symmetry_equiv_pos_site_id
_symmetry_equiv_pos_as_xyz
1 x,y,z
2 -x,-y,-z
_cell_length_a                   9.7886(7)
_cell_length_b                   11.5573(8)
_cell_length_c                   12.5972(12)
_cell_angle_alpha                74.649(7)
_cell_angle_beta                 72.626(7)
_cell_angle_gamma                71.873(6)
_cell_volume                     1269.19
loop_
_atom_site_label
_atom_site_type_symbol
_atom_site_fract_x
_atom_site_fract_y
_atom_site_fract_z
Ho1 Ho 1.28094(2) 0.45773(2) 0.05271(2)
O1 O 1.0612(4) 0.5359(3) 0.1821(3)
O2 O 1.1405(3) 0.3341(3) 0.2174(3)
O3 O 0.7701(4) 0.5993(4) 0.2925(4)
O4 O 0.4265(5) 1.1609(4) 0.3273(4)
O5 O 0.2715(4) 1.0964(3) 0.2717(4)
H1 H 0.2285 1.1702 0.2630
O6 O 1.3851(4) 0.6112(3) 0.0443(3)
O7 O 1.5460(4) 0.7248(3) -0.0217(3)
O8 O 0.9997(4) 1.1515(3) 0.1319(3)
O9 O 0.8653(4) 1.3726(3) 0.0508(3)
O10 O 0.6511(3) 1.4604(3) 0.1504(3)
O11 O 1.3863(3) 0.4062(3) 0.2119(3)
H2 H 1.4784 0.4014 0.1891
H3 H 1.3730 0.3366 0.2509
O12 O 1.1568(3) 0.3631(3) -0.0240(3)
H4 H 1.2038 0.3563 -0.0916
H5 H 1.0695 0.4080 -0.0238
C1 C 1.0544(5) 0.4335(5) 0.2476(4)
C2 C 0.9519(5) 0.4304(5) 0.3620(5)
C3 C 0.9925(6) 0.3387(5) 0.4511(5)
H6 H 1.0794 0.2768 0.4371
C4 C 0.9067(7) 0.3371(6) 0.5599(5)
H7 H 0.9373 0.2764 0.6192
C5 C 0.7757(7) 0.4258(6) 0.5804(5)
H8 H 0.7179 0.4253 0.6540
C6 C 0.7299(6) 0.5145(6) 0.4938(5)
H9 H 0.6395 0.5725 0.5083
C7 C 0.8166(6) 0.5190(5) 0.3849(5)
C8 C 0.6748(6) 0.7154(5) 0.3036(5)
C9 C 0.7054(6) 0.7968(6) 0.3514(6)
H10 H 0.7864 0.7723 0.3836
C10 C 0.6132(6) 0.9150(5) 0.3503(6)
H11 H 0.6331 0.9712 0.3810
C11 C 0.4911(6) 0.9505(5) 0.3036(5)
C12 C 0.4623(6) 0.8676(5) 0.2569(5)
H12 H 0.3802 0.8912 0.2260
C13 C 0.5555(6) 0.7491(5) 0.2559(5)
H13 H 0.5373 0.6935 0.2235
C14 C 0.3951(7) 1.0801(5) 0.3031(5)
C15 C 1.4150(6) 0.7142(5) 0.0198(4)
C16 C 1.2983(5) 0.8283(4) 0.0442(4)
C17 C 1.3332(5) 0.9419(4) 0.0091(5)
H14 H 1.4266 0.9467 -0.0358
C18 C 1.2318(6) 1.0480(5) 0.0397(5)
H15 H 1.2559 1.1240 0.0154
C19 C 1.0938(6) 1.0396(5) 0.1069(5)
C20 C 1.0524(6) 0.9295(5) 0.1357(5)
H16 H 0.9562 0.9264 0.1747
C21 C 1.1562(5) 0.8241(5) 0.1054(5)
H17 H 1.1301 0.7489 0.1266
C22 C 0.9056(5) 1.1614(4) 0.2364(5)
C23 C 0.9235(6) 1.0748(5) 0.3345(5)
H18 H 1.0017 1.0042 0.3312
C24 C 0.8264(6) 1.0929(5) 0.4365(5)
H19 H 0.8383 1.0336 0.5016
C25 C 0.7114(6) 1.1982(6) 0.4431(5)
H20 H 0.6455 1.2098 0.5122
C26 C 0.6946(5) 1.2861(5) 0.3470(5)
H21 H 0.6181 1.3578 0.3522
C27 C 0.7898(5) 1.2702(4) 0.2422(4)
C28 C 0.7685(5) 1.3713(4) 0.1431(5)
Ho1A Ho 0.71906(2) 1.54227(2) -0.05271(2)
Ho1A_2 Ho 1.71906(2) 0.54227(2) -0.05271(2)
O7A O 1.4540(4) 0.2752(3) 0.0217(3)
O9A O 1.1347(4) 0.6274(3) -0.0508(3)
O10A O 1.3489(3) 0.5396(3) -0.1504(3)
loop_
_geom_bond_atom_site_label_1
_geom_bond_atom_site_label_2
_geom_bond_site_symmetry_1
_geom_bond_site_symmetry_2
Ho1 O1 1_555 1_555
O1 C1 1_555 1_555
O2 Ho1 1_555 1_555
O3 C7 1_555 1_555
O4 C14 1_555 1_555
O5 H1 1_555 1_555
O6 Ho1 1_555 1_555
O7 C15 1_555 1_555
O8 C19 1_555 1_555
O9 C28 1_555 1_555
O10 C28 1_555 1_555
O11 Ho1 1_555 1_555
H2 O11 1_555 1_555
H3 O11 1_555 1_555
O12 Ho1 1_555 1_555
H4 O12 1_555 1_555
H5 O12 1_555 1_555
C1 O2 1_555 1_555
C2 C1 1_555 1_555
C3 C2 1_555 1_555
H6 C3 1_555 1_555
C4 C3 1_555 1_555
H7 C4 1_555 1_555
C5 C4 1_555 1_555
H8 C5 1_555 1_555
C6 C5 1_555 1_555
H9 C6 1_555 1_555
C7 C2 1_555 1_555
C8 O3 1_555 1_555
C9 C8 1_555 1_555
H10 C9 1_555 1_555
C10 C9 1_555 1_555
H11 C10 1_555 1_555
C11 C10 1_555 1_555
C12 C11 1_555 1_555
H12 C12 1_555 1_555
C13 C8 1_555 1_555
H13 C13 1_555 1_555
C14 O5 1_555 1_555
C15 O6 1_555 1_555
C16 C15 1_555 1_555
C17 C16 1_555 1_555
H14 C17 1_555 1_555
C18 C17 1_555 1_555
H15 C18 1_555 1_555
C19 C18 1_555 1_555
C20 C19 1_555 1_555
H16 C20 1_555 1_555
C21 C16 1_555 1_555
H17 C21 1_555 1_555
C22 O8 1_555 1_555
C23 C22 1_555 1_555
H18 C23 1_555 1_555
C24 C23 1_555 1_555
H19 C24 1_555 1_555
C25 C24 1_555 1_555
H20 C25 1_555 1_555
C26 C25 1_555 1_555
H21 C26 1_555 1_555
C27 C22 1_555 1_555
C28 C27 1_555 1_555
Ho1A O9 1_555 1_555
Ho1A_2 O7 1_555 1_555
O7A Ho1 1_555 1_555
O9A Ho1 1_555 1_555
O10A Ho1 1_555 1_555
O10 Ho1A 1_555 1_555
C6 C7 1_555 1_555
C11 C14 1_555 1_555
C12 C13 1_555 1_555
C20 C21 1_555 1_555
C26 C27 1_555 1_555

#END
