
#######################################################################
#
#                 Cambridge Crystallographic Data Centre
#                                CCDC 
#
#######################################################################
#
# If this CIF has been generated from an entry in the Cambridge 
# Structural Database, then it will include bibliographic, chemical, 
# crystal, experimental, refinement or atomic coordinate data resulting 
# from the CCDC's data processing and validation procedures.
#
#######################################################################

data_NILBAN
_symmetry_cell_setting           triclinic
_symmetry_space_group_name_H-M   'P -1'
_symmetry_Int_Tables_number      2
_space_group_name_Hall           '-P 1'
loop_
_symmetry_equiv_pos_site_id
_symmetry_equiv_pos_as_xyz
1 x,y,z
2 -x,-y,-z
_cell_length_a                   9.8077(19)
_cell_length_b                   11.548(2)
_cell_length_c                   12.6506(16)
_cell_angle_alpha                74.508(13)
_cell_angle_beta                 72.369(14)
_cell_angle_gamma                71.967(17)
_cell_volume                     1274.45
loop_
_atom_site_label
_atom_site_type_symbol
_atom_site_fract_x
_atom_site_fract_y
_atom_site_fract_z
C1 C -0.4205(8) 0.7813(7) 0.9832(7)
C2 C -0.3323(8) 0.5548(7) 0.9913(7)
H1 H -0.4251 0.5481 1.0362
C3 C -0.2318(8) 0.4520(7) 0.9609(7)
H2 H -0.2552 0.3755 0.9856
C4 C -0.0939(8) 0.4608(7) 0.8930(7)
C5 C -0.0558(8) 0.5739(7) 0.8636(7)
H3 H 0.0393 0.5793 0.8232
C6 C -0.1614(8) 0.6781(7) 0.8954(7)
H4 H -0.1377 0.7544 0.8746
C7 C -0.3011(7) 0.6699(6) 0.9575(6)
C8 C 0.0975(7) 0.3402(7) 0.7615(6)
C9 C 0.2105(7) 0.2324(6) 0.7550(6)
C10 C 0.3040(8) 0.2177(7) 0.6527(7)
H5 H 0.3821 0.1473 0.6478
C11 C 0.2860(9) 0.3043(8) 0.5564(7)
H6 H 0.3500 0.2920 0.4869
C12 C 0.1720(9) 0.4093(8) 0.5641(7)
H7 H 0.1601 0.4688 0.4993
C13 C 0.0744(8) 0.4281(7) 0.6669(7)
H8 H -0.0044 0.4980 0.6716
C14 C 0.2305(8) 0.1314(6) 0.8554(7)
C15 C -0.0541(7) 1.0646(7) 0.7522(7)
C16 C 0.0483(8) 1.0684(7) 0.6380(7)
C17 C 0.0092(9) 1.1590(8) 0.5501(7)
H9 H -0.0778 1.2205 0.5641
C18 C 0.0957(10) 1.1615(9) 0.4408(8)
H10 H 0.0659 1.2227 0.3818
C19 C 0.2281(10) 1.0710(9) 0.4203(7)
H11 H 0.2868 1.0703 0.3472
C20 C 0.2711(9) 0.9828(8) 0.5091(8)
H12 H 0.3609 0.9241 0.4963
C21 C 0.1827(8) 0.9807(8) 0.6164(7)
C22 C 0.3246(8) 0.7838(8) 0.6967(7)
C23 C 0.4432(8) 0.7513(7) 0.7444(7)
H13 H 0.4608 0.8070 0.7768
C24 C 0.5366(8) 0.6321(8) 0.7429(7)
H14 H 0.6186 0.6094 0.7732
C25 C 0.5099(8) 0.5475(7) 0.6976(7)
C26 C 0.3890(9) 0.5830(8) 0.6504(8)
H15 H 0.3709 0.5271 0.6184
C27 C 0.2943(10) 0.7012(9) 0.6504(8)
H16 H 0.2125 0.7243 0.6199
C28 C 0.6082(9) 0.4191(8) 0.6970(8)
O1 O -0.1557(5) 1.1354(4) 1.0255(4)
H17 H -0.2026 1.1425 1.0929
H18 H -0.0692 1.0894 1.0253
O2 O -0.3872(5) 1.0931(5) 0.7869(4)
H19 H -0.4795 1.0983 0.8091
H20 H -0.3728 1.1624 0.7475
O3 O -0.3951(5) 0.8878(5) 0.9598(5)
O4 O -0.5505(5) 0.7685(5) 1.0265(5)
O5 O -0.1400(5) 1.1642(4) 0.7819(4)
O6 O -0.0626(5) 0.9636(5) 0.8189(5)
O7 O 0.1364(5) 0.1301(5) 0.9479(4)
O8 O 0.3479(5) 0.0415(4) 0.8470(4)
O9 O 0.7291(6) 0.4035(5) 0.7286(6)
H21 H 0.7828 0.3344 0.7212
O10 O 0.5754(7) 0.3391(6) 0.6715(6)
O11 O 0.2294(6) 0.8988(6) 0.7090(5)
O12 O 0.0021(6) 0.3506(5) 0.8677(5)
Tb1 Tb -0.28432(4) 1.04228(3) 0.94842(3)
O4A O -0.4495(5) 1.2315(5) 0.9735(5)
O7A O -0.1364(5) 0.8699(5) 1.0521(4)
O8A O -0.3479(5) 0.9585(4) 1.1530(4)
Tb1A Tb -0.71568(4) 0.95772(3) 1.05158(3)
Tb1A_2 Tb 0.28432(4) -0.04228(3) 1.05158(3)
loop_
_geom_bond_atom_site_label_1
_geom_bond_atom_site_label_2
_geom_bond_site_symmetry_1
_geom_bond_site_symmetry_2
C1 C7 1_555 1_555
C2 H1 1_555 1_555
C3 C2 1_555 1_555
H2 C3 1_555 1_555
C4 C3 1_555 1_555
C5 C4 1_555 1_555
H3 C5 1_555 1_555
C6 C5 1_555 1_555
H4 C6 1_555 1_555
C7 C2 1_555 1_555
C8 C9 1_555 1_555
C9 C10 1_555 1_555
C10 H5 1_555 1_555
C11 C10 1_555 1_555
H6 C11 1_555 1_555
C12 C11 1_555 1_555
H7 C12 1_555 1_555
C13 C8 1_555 1_555
H8 C13 1_555 1_555
C14 C9 1_555 1_555
C15 C16 1_555 1_555
C16 C17 1_555 1_555
C17 H9 1_555 1_555
C18 C17 1_555 1_555
H10 C18 1_555 1_555
C19 C18 1_555 1_555
H11 C19 1_555 1_555
C20 C19 1_555 1_555
H12 C20 1_555 1_555
C21 C16 1_555 1_555
C22 C23 1_555 1_555
C23 H13 1_555 1_555
C24 C23 1_555 1_555
H14 C24 1_555 1_555
C25 C24 1_555 1_555
C26 C25 1_555 1_555
H15 C26 1_555 1_555
C27 C22 1_555 1_555
H16 C27 1_555 1_555
C28 C25 1_555 1_555
O1 H17 1_555 1_555
H18 O1 1_555 1_555
O2 H19 1_555 1_555
H20 O2 1_555 1_555
O3 C1 1_555 1_555
O4 C1 1_555 1_555
O5 C15 1_555 1_555
O6 C15 1_555 1_555
O7 C14 1_555 1_555
O8 C14 1_555 1_555
O9 C28 1_555 1_555
H21 O9 1_555 1_555
O10 C28 1_555 1_555
O11 C21 1_555 1_555
O12 C4 1_555 1_555
Tb1 O1 1_555 1_555
O4A Tb1 1_555 1_555
O7A Tb1 1_555 1_555
O8A Tb1 1_555 1_555
Tb1A O4 1_555 1_555
Tb1A_2 O7 1_555 1_555
C6 C7 1_555 1_555
C8 O12 1_555 1_555
C12 C13 1_555 1_555
C20 C21 1_555 1_555
C22 O11 1_555 1_555
C26 C27 1_555 1_555
O2 Tb1 1_555 1_555
O3 Tb1 1_555 1_555
O5 Tb1 1_555 1_555
O6 Tb1 1_555 1_555
O8 Tb1A_2 1_555 1_555

#END
