
#######################################################################
#
#                 Cambridge Crystallographic Data Centre
#                                CCDC 
#
#######################################################################
#
# If this CIF has been generated from an entry in the Cambridge 
# Structural Database, then it will include bibliographic, chemical, 
# crystal, experimental, refinement or atomic coordinate data resulting 
# from the CCDC's data processing and validation procedures.
#
#######################################################################

data_NILBOB
_symmetry_cell_setting           triclinic
_symmetry_space_group_name_H-M   'P -1'
_symmetry_Int_Tables_number      2
_space_group_name_Hall           '-P 1'
loop_
_symmetry_equiv_pos_site_id
_symmetry_equiv_pos_as_xyz
1 x,y,z
2 -x,-y,-z
_cell_length_a                   9.8061(9)
_cell_length_b                   11.5898(8)
_cell_length_c                   12.6074(10)
_cell_angle_alpha                74.575(6)
_cell_angle_beta                 72.548(8)
_cell_angle_gamma                71.682(7)
_cell_volume                     1274.08
loop_
_atom_site_label
_atom_site_type_symbol
_atom_site_fract_x
_atom_site_fract_y
_atom_site_fract_z
C1 C 1.4120(9) 0.7126(7) 0.0216(7)
C2 C 1.2960(8) 0.8277(6) 0.0451(7)
C3 C 1.1544(9) 0.8246(7) 0.1047(7)
H1 H 1.1273 0.7503 0.1243
C4 C 1.0506(9) 0.9308(7) 0.1365(8)
H2 H 0.9550 0.9281 0.1771
C5 C 1.0935(9) 1.0403(7) 0.1062(7)
C6 C 1.2320(9) 1.0457(7) 0.0410(8)
H3 H 1.2575 1.1208 0.0187
C7 C 1.3339(9) 0.9408(7) 0.0083(7)
H4 H 1.4267 0.9453 -0.0378
C8 C 0.9053(9) 1.1617(7) 0.2371(8)
C9 C 0.9233(10) 1.0745(7) 0.3351(8)
H5 H 1.0012 1.0036 0.3322
C10 C 0.8258(10) 1.0940(8) 0.4352(8)
H6 H 0.8375 1.0345 0.5001
C11 C 0.7100(10) 1.1988(8) 0.4441(8)
H7 H 0.6441 1.2103 0.5133
C12 C 0.6957(9) 1.2855(8) 0.3470(8)
H8 H 0.6186 1.3569 0.3518
C13 C 0.7910(8) 1.2715(6) 0.2424(7)
C14 C 0.7721(9) 1.3733(6) 0.1429(7)
C15 C 1.0550(9) 0.4338(7) 0.2485(7)
C16 C 0.9516(9) 0.4296(7) 0.3614(7)
C17 C 0.9930(10) 0.3384(7) 0.4516(8)
H9 H 1.0812 0.2777 0.4381
C18 C 0.9070(12) 0.3361(9) 0.5596(9)
H10 H 0.9367 0.2737 0.6181
C19 C 0.7766(11) 0.4257(9) 0.5823(9)
H11 H 0.7206 0.4261 0.6562
C20 C 0.7295(11) 0.5156(8) 0.4935(8)
H12 H 0.6393 0.5742 0.5073
C21 C 0.8170(10) 0.5172(7) 0.3857(8)
C22 C 0.6741(11) 0.7146(8) 0.3037(8)
C23 C 0.5556(10) 0.7496(8) 0.2569(8)
H13 H 0.5376 0.6939 0.2247
C24 C 0.4606(10) 0.8681(8) 0.2565(8)
H14 H 0.3790 0.8918 0.2252
C25 C 0.4911(10) 0.9502(7) 0.3043(7)
C26 C 0.6121(11) 0.9133(8) 0.3494(9)
H15 H 0.6325 0.9691 0.3799
C27 C 0.7055(11) 0.7944(9) 0.3508(10)
H16 H 0.7867 0.7698 0.3826
C28 C 0.3961(11) 1.0786(8) 0.3017(8)
O1 O 1.3847(6) 0.4053(5) 0.2124(5)
H17 H 1.4034 0.3273 0.2356
H18 H 1.4645 0.4283 0.1927
O2 O 1.1598(6) 0.3630(5) -0.0259(5)
H19 H 1.0640 0.3972 -0.0137
H20 H 1.1955 0.3716 -0.0996
O3 O 1.3794(7) 0.6114(5) 0.0463(5)
O4 O 1.5428(6) 0.7200(5) -0.0187(5)
O5 O 1.1410(6) 0.3337(4) 0.2167(5)
O6 O 1.0616(6) 0.5356(5) 0.1814(5)
O7 O 0.2716(7) 1.0963(5) 0.2713(6)
H21 H 0.2292 1.1702 0.2629
O8 O 0.4273(8) 1.1593(6) 0.3281(7)
O9 O 0.6508(6) 1.4605(4) 0.1489(5)
O10 O 0.8667(6) 1.3740(4) 0.0509(5)
O11 O 0.7702(7) 0.5985(5) 0.2922(5)
O12 O 0.9996(7) 1.1525(4) 0.1314(5)
Er1 Er 1.27907(4) 0.45756(3) 0.05343(4)
O4A O 1.4572(6) 0.2800(5) 0.0187(5)
O9A O 1.3492(6) 0.5395(4) -0.1489(5)
O10A O 1.1333(6) 0.6260(4) -0.0509(5)
Er1A Er 0.72093(4) 1.54244(3) -0.05343(4)
Er1A_2 Er 1.72093(4) 0.54244(3) -0.05343(4)
loop_
_geom_bond_atom_site_label_1
_geom_bond_atom_site_label_2
_geom_bond_site_symmetry_1
_geom_bond_site_symmetry_2
C1 C2 1_555 1_555
C2 C3 1_555 1_555
C3 H1 1_555 1_555
C4 C3 1_555 1_555
H2 C4 1_555 1_555
C5 C4 1_555 1_555
C6 C5 1_555 1_555
H3 C6 1_555 1_555
C7 C2 1_555 1_555
H4 C7 1_555 1_555
C8 C9 1_555 1_555
C9 H5 1_555 1_555
C10 C9 1_555 1_555
H6 C10 1_555 1_555
C11 C10 1_555 1_555
H7 C11 1_555 1_555
C12 C11 1_555 1_555
H8 C12 1_555 1_555
C13 C8 1_555 1_555
C14 C13 1_555 1_555
C15 C16 1_555 1_555
C16 C17 1_555 1_555
C17 H9 1_555 1_555
C18 C17 1_555 1_555
H10 C18 1_555 1_555
C19 C18 1_555 1_555
H11 C19 1_555 1_555
C20 C19 1_555 1_555
H12 C20 1_555 1_555
C21 C16 1_555 1_555
C22 C23 1_555 1_555
C23 H13 1_555 1_555
C24 C23 1_555 1_555
H14 C24 1_555 1_555
C25 C24 1_555 1_555
C26 C25 1_555 1_555
H15 C26 1_555 1_555
C27 C22 1_555 1_555
H16 C27 1_555 1_555
C28 C25 1_555 1_555
O1 H17 1_555 1_555
H18 O1 1_555 1_555
O2 H19 1_555 1_555
H20 O2 1_555 1_555
O3 C1 1_555 1_555
O4 C1 1_555 1_555
O5 C15 1_555 1_555
O6 C15 1_555 1_555
O7 C28 1_555 1_555
H21 O7 1_555 1_555
O8 C28 1_555 1_555
O9 C14 1_555 1_555
O10 C14 1_555 1_555
O11 C21 1_555 1_555
O12 C5 1_555 1_555
Er1 O1 1_555 1_555
O4A Er1 1_555 1_555
O9A Er1 1_555 1_555
O10A Er1 1_555 1_555
Er1A O9 1_555 1_555
Er1A_2 O4 1_555 1_555
C6 C7 1_555 1_555
C8 O12 1_555 1_555
C12 C13 1_555 1_555
C20 C21 1_555 1_555
C22 O11 1_555 1_555
C26 C27 1_555 1_555
O2 Er1 1_555 1_555
O3 Er1 1_555 1_555
O5 Er1 1_555 1_555
O6 Er1 1_555 1_555
O10 Er1A 1_555 1_555

#END
