
#######################################################################
#
#                 Cambridge Crystallographic Data Centre
#                                CCDC 
#
#######################################################################
#
# If this CIF has been generated from an entry in the Cambridge 
# Structural Database, then it will include bibliographic, chemical, 
# crystal, experimental, refinement or atomic coordinate data resulting 
# from the CCDC's data processing and validation procedures.
#
#######################################################################

data_NILCOB
_symmetry_cell_setting           orthorhombic
_symmetry_space_group_name_H-M   'P 21 21 21'
_symmetry_Int_Tables_number      19
_space_group_name_Hall           'P 2ac 2ab'
loop_
_symmetry_equiv_pos_site_id
_symmetry_equiv_pos_as_xyz
1 x,y,z
2 1/2-x,-y,1/2+z
3 1/2+x,1/2-y,-z
4 -x,1/2+y,1/2-z
_cell_length_a                   10.597(4)
_cell_length_b                   11.317(4)
_cell_length_c                   17.630(7)
_cell_angle_alpha                90
_cell_angle_beta                 90
_cell_angle_gamma                90
_cell_volume                     2114.3
loop_
_atom_site_label
_atom_site_type_symbol
_atom_site_fract_x
_atom_site_fract_y
_atom_site_fract_z
Cu1 Cu 0.24930(5) 0.30598(4) -0.10223(2)
O1 O 0.0792(3) 0.3745(3) 0.05362(15)
O2 O 0.1422(3) 0.4602(3) -0.08683(15)
H1 H 0.1907 0.5115 -0.0811
H2 H 0.1093 0.4438 -0.0459
O3 O 0.2201(2) 0.2473(2) 0.00644(14)
O4 O 0.3441(3) 0.1421(2) -0.10940(15)
H3 H 0.4123 0.1486 -0.1007
H4 H 0.3075 0.0974 -0.0802
O5 O -0.0843(2) 0.1101(2) 0.07384(15)
O6 O -0.1462(3) -0.0785(3) 0.06536(18)
N1 N 0.0931(3) 0.2169(3) -0.14488(19)
N2 N 0.2761(3) 0.3263(3) -0.21769(17)
C1 C 0.1742(4) 0.0969(4) 0.1368(2)
C2 C 0.1544(4) 0.2182(4) 0.1332(2)
C3 C 0.1449(4) 0.2835(4) 0.1995(2)
H5 H 0.1254 0.3634 0.1966
C4 C 0.1637(4) 0.2325(4) 0.2698(2)
H6 H 0.1598 0.2780 0.3137
C5 C 0.1886(4) 0.1120(4) 0.2740(2)
H7 H 0.2039 0.0765 0.3206
C6 C 0.1904(4) 0.0460(4) 0.2087(2)
H8 H 0.2029 -0.0351 0.2123
C7 C 0.1489(4) 0.2845(4) 0.0587(2)
C8 C 0.1759(4) 0.0138(4) 0.0699(2)
C9 C 0.0670(4) -0.0352(4) 0.0395(2)
C10 C 0.0775(4) -0.1250(4) -0.0148(2)
H9 H 0.0048 -0.1595 -0.0344
C11 C 0.1937(5) -0.1630(4) -0.0397(2)
H10 H 0.1991 -0.2221 -0.0762
C12 C 0.3016(4) -0.1135(4) -0.0105(2)
H11 H 0.3800 -0.1387 -0.0278
C13 C 0.2943(4) -0.0255(4) 0.0448(2)
H12 H 0.3676 0.0069 0.0649
C14 C -0.0658(4) 0.0014(4) 0.0624(2)
C15 C 0.0930(4) 0.2027(4) -0.2207(2)
C16 C 0.0066(4) 0.1283(4) -0.2562(3)
H13 H 0.0091 0.1172 -0.3084
C17 C -0.0826(4) 0.0713(4) -0.2128(3)
H14 H -0.1404 0.0207 -0.2356
C18 C -0.0859(4) 0.0894(4) -0.1353(3)
H15 H -0.1466 0.0528 -0.1052
C19 C 0.0044(4) 0.1640(3) -0.1035(3)
H16 H 0.0027 0.1774 -0.0514
C20 C 0.1912(4) 0.2698(4) -0.2615(2)
C21 C 0.1978(4) 0.2760(4) -0.3403(2)
H17 H 0.1380 0.2373 -0.3699
C22 C 0.2927(4) 0.3393(4) -0.3744(3)
H18 H 0.2975 0.3446 -0.4270
C23 C 0.3809(4) 0.3948(4) -0.3292(2)
H19 H 0.4467 0.4375 -0.3508
C24 C 0.3699(4) 0.3860(4) -0.2515(2)
H20 H 0.4301 0.4230 -0.2213
Cu1B Cu -0.25070(5) 0.19402(4) 0.10223(2)
O5B O 0.4157(2) 0.3899(2) -0.07384(15)
loop_
_geom_bond_atom_site_label_1
_geom_bond_atom_site_label_2
_geom_bond_site_symmetry_1
_geom_bond_site_symmetry_2
Cu1 O2 1_555 1_555
O1 C7 1_555 1_555
O2 H1 1_555 1_555
H2 O2 1_555 1_555
O3 Cu1 1_555 1_555
O4 Cu1 1_555 1_555
H3 O4 1_555 1_555
H4 O4 1_555 1_555
O5 C14 1_555 1_555
O6 C14 1_555 1_555
N1 Cu1 1_555 1_555
N2 Cu1 1_555 1_555
C1 C2 1_555 1_555
C2 C3 1_555 1_555
C3 H5 1_555 1_555
C4 C3 1_555 1_555
H6 C4 1_555 1_555
C5 C4 1_555 1_555
H7 C5 1_555 1_555
C6 C1 1_555 1_555
H8 C6 1_555 1_555
C7 O3 1_555 1_555
C8 C1 1_555 1_555
C9 C8 1_555 1_555
C10 C9 1_555 1_555
H9 C10 1_555 1_555
C11 C10 1_555 1_555
H10 C11 1_555 1_555
C12 C11 1_555 1_555
H11 C12 1_555 1_555
C13 C8 1_555 1_555
H12 C13 1_555 1_555
C14 C9 1_555 1_555
C15 N1 1_555 1_555
C16 C15 1_555 1_555
H13 C16 1_555 1_555
C17 C16 1_555 1_555
H14 C17 1_555 1_555
C18 C17 1_555 1_555
H15 C18 1_555 1_555
C19 N1 1_555 1_555
H16 C19 1_555 1_555
C20 N2 1_555 1_555
C21 C20 1_555 1_555
H17 C21 1_555 1_555
C22 C21 1_555 1_555
H18 C22 1_555 1_555
C23 C22 1_555 1_555
H19 C23 1_555 1_555
C24 N2 1_555 1_555
H20 C24 1_555 1_555
Cu1B O5 1_555 1_555
O5B Cu1 1_555 1_555
C2 C7 1_555 1_555
C5 C6 1_555 1_555
C12 C13 1_555 1_555
C15 C20 1_555 1_555
C18 C19 1_555 1_555
C23 C24 1_555 1_555

#END
