
#######################################################################
#
#                 Cambridge Crystallographic Data Centre
#                                CCDC 
#
#######################################################################
#
# If this CIF has been generated from an entry in the Cambridge 
# Structural Database, then it will include bibliographic, chemical, 
# crystal, experimental, refinement or atomic coordinate data resulting 
# from the CCDC's data processing and validation procedures.
#
#######################################################################

data_NILCAO
_symmetry_cell_setting           monoclinic
_symmetry_space_group_name_H-M   'P 21/n'
_symmetry_Int_Tables_number      14
_space_group_name_Hall           '-P 2yn'
loop_
_symmetry_equiv_pos_site_id
_symmetry_equiv_pos_as_xyz
1 x,y,z
2 1/2-x,1/2+y,1/2-z
3 -x,-y,-z
4 1/2+x,1/2-y,1/2+z
_cell_length_a                   9.3657(5)
_cell_length_b                   18.4465(10)
_cell_length_c                   14.3860(11)
_cell_angle_alpha                90
_cell_angle_beta                 94.004(6)
_cell_angle_gamma                90
_cell_volume                     2479.32
loop_
_atom_site_label
_atom_site_type_symbol
_atom_site_fract_x
_atom_site_fract_y
_atom_site_fract_z
Gd1 Gd 0.21356(6) 0.47341(3) 0.01083(4)
O1 O 0.3958(8) 0.5397(4) 0.0782(6)
O2 O 0.6291(9) 0.5602(4) 0.0986(6)
O3 O 0.6382(10) 0.6772(4) 0.2265(6)
O4 O 1.2056(13) 0.7713(5) 0.4500(8)
H1 H 1.2909 0.7775 0.4349
O5 O 1.1273(9) 0.8815(4) 0.4105(6)
O6 O 0.0828(9) 0.5787(4) 0.0436(6)
O7 O -0.1160(9) 0.6420(4) 0.0364(6)
O8 O 0.3154(10) 0.8861(4) 0.1876(6)
O9 O 0.3959(9) 0.9444(4) 0.3525(6)
O10 O 0.6219(9) 0.9797(5) 0.3718(6)
C1 C 0.5073(13) 0.5575(6) 0.1279(9)
C2 C 0.4891(13) 0.5725(6) 0.2275(9)
C3 C 0.4006(13) 0.5302(7) 0.2772(9)
H2 H 0.3477 0.4942 0.2452
C4 C 0.3855(14) 0.5376(7) 0.3708(9)
H3 H 0.3280 0.5059 0.4017
C5 C 0.4571(16) 0.5927(7) 0.4176(10)
H4 H 0.4476 0.5995 0.4810
C6 C 0.5457(15) 0.6394(7) 0.3687(10)
H5 H 0.5960 0.6767 0.3997
C7 C 0.5569(14) 0.6290(7) 0.2745(9)
C8 C 0.7561(15) 0.7092(7) 0.2736(10)
C9 C 0.8757(15) 0.6698(7) 0.2975(10)
H6 H 0.8793 0.6205 0.2846
C10 C 0.9936(15) 0.7056(7) 0.3422(10)
H7 H 1.0758 0.6794 0.3601
C11 C 0.9894(15) 0.7787(6) 0.3599(10)
C12 C 0.8697(15) 0.8173(7) 0.3320(10)
H8 H 0.8669 0.8670 0.3428
C13 C 0.7514(16) 0.7827(7) 0.2873(10)
H9 H 0.6705 0.8091 0.2671
C14 C 1.1137(15) 0.8165(7) 0.4082(10)
C15 C 0.0173(14) 0.6376(6) 0.0538(9)
C16 C 0.0991(13) 0.7025(6) 0.0874(9)
C17 C 0.0288(14) 0.7656(6) 0.1094(9)
H10 H -0.0706 0.7666 0.1030
C18 C 0.1013(14) 0.8270(6) 0.1404(9)
H11 H 0.0513 0.8686 0.1549
C19 C 0.2466(14) 0.8260(6) 0.1496(9)
C20 C 0.3233(15) 0.7629(6) 0.1300(10)
H12 H 0.4225 0.7610 0.1386
C21 C 0.2441(15) 0.7038(6) 0.0974(10)
H13 H 0.2934 0.6624 0.0812
C22 C 0.4429(14) 0.9091(6) 0.1575(9)
C23 C 0.4757(16) 0.8991(7) 0.0666(10)
H14 H 0.4114 0.8760 0.0242
C24 C 0.6031(17) 0.9233(8) 0.0399(11)
H15 H 0.6263 0.9148 -0.0210
C25 C 0.6998(16) 0.9602(7) 0.0994(10)
H16 H 0.7830 0.9796 0.0780
C26 C 0.6698(13) 0.9675(6) 0.1914(9)
H17 H 0.7359 0.9901 0.2330
C27 C 0.5434(14) 0.9417(6) 0.2227(9)
C28 C 0.5159(15) 0.9562(6) 0.3233(9)
Gd1A Gd 0.28644(6) 0.97341(3) 0.48917(4)
Gd1A_2 Gd 1.28644(6) 0.97341(3) 0.48917(4)
Gd1B Gd -0.21356(6) 0.52659(3) -0.01083(4)
Gd1B_2 Gd 0.78644(6) 0.52659(3) -0.01083(4)
Gd1C Gd 0.71356(6) 1.02659(3) 0.51083(4)
O2B O 0.3709(9) 0.4398(4) -0.0986(6)
O5A O 0.3727(9) 0.3815(4) 0.0895(6)
O7B O 0.1160(9) 0.3580(4) -0.0364(6)
O9A O 0.1041(9) 0.4444(4) 0.1475(6)
O10C O 0.1219(9) 0.5203(5) -0.1282(6)
loop_
_geom_bond_atom_site_label_1
_geom_bond_atom_site_label_2
_geom_bond_site_symmetry_1
_geom_bond_site_symmetry_2
Gd1 O1 1_555 1_555
O1 C1 1_555 1_555
O2 C1 1_555 1_555
O3 C7 1_555 1_555
O4 H1 1_555 1_555
O5 C14 1_555 1_555
O6 Gd1 1_555 1_555
O7 C15 1_555 1_555
O8 C19 1_555 1_555
O9 C28 1_555 1_555
O10 C28 1_555 1_555
C1 C2 1_555 1_555
C2 C3 1_555 1_555
C3 H2 1_555 1_555
C4 C3 1_555 1_555
H3 C4 1_555 1_555
C5 C4 1_555 1_555
H4 C5 1_555 1_555
C6 C5 1_555 1_555
H5 C6 1_555 1_555
C7 C2 1_555 1_555
C8 O3 1_555 1_555
C9 C8 1_555 1_555
H6 C9 1_555 1_555
C10 C9 1_555 1_555
H7 C10 1_555 1_555
C11 C10 1_555 1_555
C12 C11 1_555 1_555
H8 C12 1_555 1_555
C13 C8 1_555 1_555
H9 C13 1_555 1_555
C14 O4 1_555 1_555
C15 O6 1_555 1_555
C16 C15 1_555 1_555
C17 C16 1_555 1_555
H10 C17 1_555 1_555
C18 C17 1_555 1_555
H11 C18 1_555 1_555
C19 C18 1_555 1_555
C20 C19 1_555 1_555
H12 C20 1_555 1_555
C21 C16 1_555 1_555
H13 C21 1_555 1_555
C22 O8 1_555 1_555
C23 C22 1_555 1_555
H14 C23 1_555 1_555
C24 C23 1_555 1_555
H15 C24 1_555 1_555
C25 C24 1_555 1_555
H16 C25 1_555 1_555
C26 C25 1_555 1_555
H17 C26 1_555 1_555
C27 C22 1_555 1_555
C28 C27 1_555 1_555
Gd1A O9 1_555 1_555
Gd1A_2 O5 1_555 1_555
Gd1B O7 1_555 1_555
Gd1B_2 O2 1_555 1_555
Gd1C O10 1_555 1_555
O2B Gd1 1_555 1_555
O5A Gd1 1_555 1_555
O7B Gd1 1_555 1_555
O9A Gd1 1_555 1_555
O10C Gd1 1_555 1_555
C6 C7 1_555 1_555
C11 C14 1_555 1_555
C12 C13 1_555 1_555
C20 C21 1_555 1_555
C26 C27 1_555 1_555

#END
