
#######################################################################
#
#                 Cambridge Crystallographic Data Centre
#                                CCDC 
#
#######################################################################
#
# If this CIF has been generated from an entry in the Cambridge 
# Structural Database, then it will include bibliographic, chemical, 
# crystal, experimental, refinement or atomic coordinate data resulting 
# from the CCDC's data processing and validation procedures.
#
#######################################################################

data_NILDOD
_symmetry_cell_setting           triclinic
_symmetry_space_group_name_H-M   'P -1'
_symmetry_Int_Tables_number      2
_space_group_name_Hall           '-P 1'
loop_
_symmetry_equiv_pos_site_id
_symmetry_equiv_pos_as_xyz
1 x,y,z
2 -x,-y,-z
_cell_length_a                   8.6267(8)
_cell_length_b                   11.9716(16)
_cell_length_c                   12.8657(13)
_cell_angle_alpha                105.110(5)
_cell_angle_beta                 91.309(5)
_cell_angle_gamma                99.975(5)
_cell_volume                     1260.15
loop_
_atom_site_label
_atom_site_type_symbol
_atom_site_fract_x
_atom_site_fract_y
_atom_site_fract_z
Co1 Co 0.63820(9) 0.09598(6) 0.24043(5)
S1 S 0.9346(3) 0.42419(18) 0.79100(13)
O1 O 1.2715(5) 0.0142(4) 0.8835(3)
O2 O 1.2691(6) 0.0654(4) 0.7321(4)
O3 O 0.7235(6) 0.2021(4) 0.3869(3)
O4 O 0.9116(6) 0.2373(5) 0.2798(3)
O5 O 1.1358(6) 0.1210(4) 1.0459(4)
H1 H 1.1909 0.0739 1.0123
O6 O 1.1859(7) 0.3537(6) 0.3592(4)
H2 H 1.1150 0.3173 0.3104
N1 N 0.5678(6) 0.2092(4) 0.1603(4)
N2 N 0.4211(6) 0.0265(5) 0.2846(4)
C1 C 0.9681(7) 0.3220(5) 0.4684(4)
C2 C 0.8609(8) 0.2505(5) 0.3725(4)
C3 C 1.1424(7) 0.1734(5) 0.8763(4)
C4 C 0.9131(8) 0.3391(5) 0.5718(4)
H3 H 0.8056 0.3109 0.5805
C5 C 0.2866(8) -0.0582(6) 0.4150(5)
H4 H 0.2909 -0.1001 0.4680
C6 C 1.0047(7) 0.3283(5) 0.8585(4)
C7 C 1.0965(7) 0.2446(5) 0.8157(4)
H5 H 1.1282 0.2360 0.7443
C8 C 0.9620(7) 0.3409(5) 0.9633(5)
H6 H 0.9019 0.3992 0.9937
C9 C 0.4741(7) 0.3633(6) 0.0535(6)
C10 C 1.0962(7) 0.1871(5) 0.9823(4)
C11 C 0.4993(8) 0.2980(6) 0.2113(5)
H7 H 0.4819 0.3077 0.2856
C12 C 0.4526(8) 0.3764(6) 0.1605(6)
H8 H 0.4055 0.4391 0.1999
C13 C 0.5903(7) 0.1957(6) 0.0552(5)
H9 H 0.6390 0.1331 0.0174
C14 C 0.5433(8) 0.2714(7) 0.0013(6)
H10 H 0.5593 0.2596 -0.0733
C15 C 1.0046(8) 0.2706(6) 1.0249(5)
H11 H 0.9714 0.2794 1.0960
C16 C 1.0156(10) 0.3973(6) 0.6616(5)
C17 C 1.1714(10) 0.4399(7) 0.6488(7)
H12 H 1.2414 0.4800 0.7104
C18 C 1.1249(8) 0.3664(6) 0.4571(6)
C19 C 1.2321(7) 0.0812(5) 0.8275(5)
C20 C 0.1510(7) 0.0326(6) 0.3104(5)
H13 H 0.0578 0.0565 0.2903
C21 C 0.4303(9) 0.4489(7) -0.0036(8)
H14 H 0.3389 0.4807 0.0293
H15 H 0.3987 0.4076 -0.0803
C22 C 0.2847(7) 0.0553(5) 0.2600(5)
H16 H 0.2810 0.0936 0.2042
C23 C 0.0025(8) -0.0493(6) 0.4516(6)
H17 H -0.0929 -0.0613 0.4028
H18 H 0.0019 -0.1225 0.4739
C24 C 0.4189(8) -0.0307(6) 0.3620(5)
H19 H 0.5136 -0.0532 0.3812
C25 C 0.1493(8) -0.0250(6) 0.3911(5)
C26 C 1.2249(10) 0.4244(8) 0.5481(7)
H20 H 1.3323 0.4538 0.5401
N1A N 0.4322(6) 0.7908(4) -0.1603(4)
C9A C 0.5259(7) 0.6367(6) -0.0535(6)
C11A C 0.5007(8) 0.7020(6) -0.2113(5)
H7A H 0.5181 0.6923 -0.2856
C12A C 0.5474(8) 0.6236(6) -0.1605(6)
H8A H 0.5945 0.5609 -0.1999
C13A C 0.4097(7) 0.8043(6) -0.0552(5)
H9A H 0.3610 0.8669 -0.0174
C14A C 0.4567(8) 0.7286(7) -0.0013(6)
H10A H 0.4407 0.7404 0.0733
C21A C 0.5697(9) 0.5511(7) 0.0036(8)
H14A H 0.6611 0.5193 -0.0293
H15A H 0.6013 0.5924 0.0803
N2A N -0.4211(6) -0.0265(5) 0.7154(4)
C5A C -0.2866(8) 0.0582(6) 0.5850(5)
H4A H -0.2909 0.1001 0.5320
C20A C -0.1510(7) -0.0326(6) 0.6896(5)
H13A H -0.0578 -0.0565 0.7097
C22A C -0.2847(7) -0.0553(5) 0.7400(5)
H16A H -0.2810 -0.0936 0.7958
C23A C -0.0025(8) 0.0493(6) 0.5484(6)
H17A H 0.0929 0.0613 0.5972
H18A H -0.0019 0.1225 0.5261
C24A C -0.4189(8) 0.0307(6) 0.6380(5)
H19A H -0.5136 0.0532 0.6188
C25A C -0.1493(8) 0.0250(6) 0.6089(5)
Co1A Co -0.63820(9) -0.09598(6) 0.75957(5)
S1A S -0.9346(3) -0.42419(18) 0.20900(13)
O1A O -1.2715(5) -0.0142(4) 0.1165(3)
O2A O -1.2691(6) -0.0654(4) 0.2679(4)
O3A O -0.7235(6) -0.2021(4) 0.6131(3)
O4A O -0.9116(6) -0.2373(5) 0.7202(3)
O5A O -1.1358(6) -0.1210(4) -0.0459(4)
H1A H -1.1909 -0.0739 -0.0123
O6A O -1.1859(7) -0.3537(6) 0.6408(4)
H2A H -1.1150 -0.3173 0.6896
C1A C -0.9681(7) -0.3220(5) 0.5316(4)
C2A C -0.8609(8) -0.2505(5) 0.6275(4)
C3A C -1.1424(7) -0.1734(5) 0.1237(4)
C4A C -0.9131(8) -0.3391(5) 0.4282(4)
H3A H -0.8056 -0.3109 0.4195
C6A C -1.0047(7) -0.3283(5) 0.1415(4)
C7A C -1.0965(7) -0.2446(5) 0.1843(4)
H5A H -1.1282 -0.2360 0.2557
C8A C -0.9620(7) -0.3409(5) 0.0367(5)
H6A H -0.9019 -0.3992 0.0063
C10A C -1.0962(7) -0.1871(5) 0.0177(4)
C15A C -1.0046(8) -0.2706(6) -0.0249(5)
H11A H -0.9714 -0.2794 -0.0960
C16A C -1.0156(10) -0.3973(6) 0.3384(5)
C17A C -1.1714(10) -0.4399(7) 0.3512(7)
H12A H -1.2414 -0.4800 0.2896
C18A C -1.1249(8) -0.3664(6) 0.5429(6)
C19A C -1.2321(7) -0.0812(5) 0.1725(5)
C26A C -1.2249(10) -0.4244(8) 0.4519(7)
H20A H -1.3323 -0.4538 0.4599
Co1_2 Co -1.36180(9) 0.09598(6) 0.24043(5)
Co1A_2 Co 0.36180(9) 0.90402(6) -0.24043(5)
Co1A_3 Co 1.36180(9) -0.09598(6) 0.75957(5)
O1_2 O -0.7285(5) 0.0142(4) 0.8835(3)
O1A_2 O 0.7285(5) -0.0142(4) 0.1165(3)
O2_2 O -0.7309(6) 0.0654(4) 0.7321(4)
O2A_2 O 0.7309(6) -0.0654(4) 0.2679(4)
N1A_2 N -0.5678(6) -0.2092(4) 0.8397(4)
loop_
_geom_bond_atom_site_label_1
_geom_bond_atom_site_label_2
_geom_bond_site_symmetry_1
_geom_bond_site_symmetry_2
Co1 O3 1_555 1_555
S1 C6 1_555 1_555
O1 C19 1_555 1_555
O2 C19 1_555 1_555
O3 C2 1_555 1_555
O4 C2 1_555 1_555
O5 H1 1_555 1_555
O6 H2 1_555 1_555
N1 Co1 1_555 1_555
N2 Co1 1_555 1_555
C1 C2 1_555 1_555
C3 C7 1_555 1_555
C4 C1 1_555 1_555
H3 C4 1_555 1_555
C5 H4 1_555 1_555
C6 C7 1_555 1_555
C7 H5 1_555 1_555
C8 C6 1_555 1_555
H6 C8 1_555 1_555
C9 C12 1_555 1_555
C10 O5 1_555 1_555
C11 N1 1_555 1_555
H7 C11 1_555 1_555
C12 C11 1_555 1_555
H8 C12 1_555 1_555
C13 N1 1_555 1_555
H9 C13 1_555 1_555
C14 C9 1_555 1_555
H10 C14 1_555 1_555
C15 C8 1_555 1_555
H11 C15 1_555 1_555
C16 S1 1_555 1_555
C17 C16 1_555 1_555
H12 C17 1_555 1_555
C18 O6 1_555 1_555
C19 C3 1_555 1_555
C20 H13 1_555 1_555
C21 C9 1_555 1_555
H14 C21 1_555 1_555
H15 C21 1_555 1_555
C22 N2 1_555 1_555
H16 C22 1_555 1_555
C23 H17 1_555 1_555
H18 C23 1_555 1_555
C24 N2 1_555 1_555
H19 C24 1_555 1_555
C25 C5 1_555 1_555
C26 C17 1_555 1_555
H20 C26 1_555 1_555
N1A C11A 1_555 1_555
C9A C12A 1_555 1_555
C11A H7A 1_555 1_555
C12A C11A 1_555 1_555
H8A C12A 1_555 1_555
C13A N1A 1_555 1_555
H9A C13A 1_555 1_555
C14A C9A 1_555 1_555
H10A C14A 1_555 1_555
C21A C21 1_555 1_555
H14A C21A 1_555 1_555
H15A C21A 1_555 1_555
N2A C22A 1_555 1_555
C5A H4A 1_555 1_555
C20A H13A 1_555 1_555
C22A C20A 1_555 1_555
H16A C22A 1_555 1_555
C23A C23 1_555 1_555
H17A C23A 1_555 1_555
H18A C23A 1_555 1_555
C24A N2A 1_555 1_555
H19A C24A 1_555 1_555
C25A C5A 1_555 1_555
Co1A N2A 1_555 1_555
S1A C6A 1_555 1_555
O1A C19A 1_555 1_555
O2A C19A 1_555 1_555
O3A Co1A 1_555 1_555
O4A C2A 1_555 1_555
O5A H1A 1_555 1_555
O6A H2A 1_555 1_555
C1A C2A 1_555 1_555
C2A O3A 1_555 1_555
C3A C7A 1_555 1_555
C4A C1A 1_555 1_555
H3A C4A 1_555 1_555
C6A C7A 1_555 1_555
C7A H5A 1_555 1_555
C8A C6A 1_555 1_555
H6A C8A 1_555 1_555
C10A O5A 1_555 1_555
C15A C8A 1_555 1_555
H11A C15A 1_555 1_555
C16A S1A 1_555 1_555
C17A C16A 1_555 1_555
H12A C17A 1_555 1_555
C18A O6A 1_555 1_555
C19A C3A 1_555 1_555
C26A C17A 1_555 1_555
H20A C26A 1_555 1_555
Co1_2 O1A 1_555 1_555
Co1A_2 N1A 1_555 1_555
Co1A_3 O1 1_555 1_555
O1_2 Co1A 1_555 1_555
O1A_2 Co1 1_555 1_555
O2_2 Co1A 1_555 1_555
O2A_2 Co1 1_555 1_555
N1A_2 Co1A 1_555 1_555
O2 Co1A_3 1_555 1_555
C1 C18 1_555 1_555
C3 C10 1_555 1_555
C4 C16 1_555 1_555
C5 C24 1_555 1_555
C10 C15 1_555 1_555
C13 C14 1_555 1_555
C18 C26 1_555 1_555
C20 C22 1_555 1_555
C20 C25 1_555 1_555
C23 C25 1_555 1_555
C9A C21A 1_555 1_555
C13A C14A 1_555 1_555
C5A C24A 1_555 1_555
C20A C25A 1_555 1_555
C23A C25A 1_555 1_555
O2A Co1_2 1_555 1_555
C1A C18A 1_555 1_555
C3A C10A 1_555 1_555
C4A C16A 1_555 1_555
C10A C15A 1_555 1_555
C18A C26A 1_555 1_555

#END
