
#######################################################################
#
#                 Cambridge Crystallographic Data Centre
#                                CCDC 
#
#######################################################################
#
# If this CIF has been generated from an entry in the Cambridge 
# Structural Database, then it will include bibliographic, chemical, 
# crystal, experimental, refinement or atomic coordinate data resulting 
# from the CCDC's data processing and validation procedures.
#
#######################################################################

data_NILDIX
_symmetry_cell_setting           monoclinic
_symmetry_space_group_name_H-M   'P 21/c'
_symmetry_Int_Tables_number      14
_space_group_name_Hall           '-P 2ybc'
loop_
_symmetry_equiv_pos_site_id
_symmetry_equiv_pos_as_xyz
1 x,y,z
2 -x,1/2+y,1/2-z
3 -x,-y,-z
4 x,1/2-y,1/2+z
_cell_length_a                   19.6105(9)
_cell_length_b                   18.6350(7)
_cell_length_c                   16.3206(5)
_cell_angle_alpha                90
_cell_angle_beta                 93.940(2)
_cell_angle_gamma                90
_cell_volume                     5950.13
loop_
_atom_site_label
_atom_site_type_symbol
_atom_site_fract_x
_atom_site_fract_y
_atom_site_fract_z
Cd1 Cd -0.197033(12) 0.806769(12) -0.234013(14)
Cd2 Cd -0.290652(13) 0.221638(13) -0.747004(14)
O1 O -0.53316(17) 0.3130(2) -0.7083(2)
H1 H -0.5019 0.2989 -0.7372
O2 O -0.30682(14) 0.83517(15) -0.30333(19)
O3 O -0.27231(15) 0.90369(17) -0.19904(17)
O4 O -0.35997(15) 0.19461(17) -0.64047(18)
O5 O -0.21476(14) 0.12835(16) -0.69450(17)
O6 O -0.07788(18) 0.75126(18) -0.19318(19)
O7 O -0.12495(14) 0.83390(17) -0.11918(18)
O8 O -0.18354(17) 0.18598(16) -0.8031(2)
O9 O -0.3450(2) 1.0098(2) -0.1575(2)
H2 H -0.3103 0.9834 -0.1578
O10 O -0.15601(18) 0.0119(2) -0.6494(2)
H3 H -0.1860 0.0442 -0.6514
O11 O -0.41299(17) 0.26747(17) -0.72977(19)
O12 O 0.0326(2) 0.6897(2) -0.1407(3)
H4 H -0.0022 0.6974 -0.1724
N1 N -0.23949(17) 0.31207(16) -0.66302(18)
N2 N -0.34581(17) 0.13613(17) -0.8332(2)
N3 N -0.29739(17) 0.30962(15) -0.85194(17)
N4 N -0.19689(16) 0.71403(15) -0.33303(18)
N5 N -0.14270(15) 0.88339(16) -0.32191(18)
N6 N -0.24856(16) 0.71756(16) -1.15437(18)
C1 C -0.1642(3) 0.4842(3) -0.5053(3)
H5 H -0.1538 0.4663 -0.4487
H6 H -0.1220 0.5054 -0.5248
C2 C -0.5797(2) 0.2882(3) -0.5827(4)
H7 H -0.6191 0.3155 -0.5995
C3 C -0.3913(3) 0.1586(3) -0.8893(4)
H8 H -0.3982 0.2088 -0.8952
C4 C -0.5263(2) 0.2814(2) -0.6345(3)
C5 C 0.0211(4) 0.7996(4) 0.0764(4)
H9 H 0.0182 0.8235 0.1274
C6 C -0.3757(3) 0.0177(2) -0.8750(3)
H10 H -0.3685 -0.0323 -0.8669
C7 C -0.4302(4) 0.1128(3) -0.9408(4)
H11 H -0.4625 0.1323 -0.9808
C8 C -0.1977(2) 0.3617(2) -0.6898(3)
H12 H -0.1850 0.3585 -0.7448
C9 C -0.2180(3) 0.5396(2) -0.5051(3)
H13 H -0.2617 0.5152 -0.4959
H14 H -0.2229 0.5611 -0.5606
C10 C -0.2545(3) 0.3167(2) -0.5845(2)
H15 H -0.2837 0.2815 -0.5637
C11 C -0.1876(2) 0.4228(2) -0.5605(3)
C12 C -0.3388(3) 0.0656(2) -0.8263(3)
H16 H -0.3065 0.0474 -0.7855
C13 C -0.31703(19) 0.8858(2) -0.2559(2)
C14 C -0.4226(2) 0.0405(2) -0.9348(3)
C15 C -0.30283(19) 0.41749(18) -0.9722(2)
C16 C -0.1106(2) 0.0254(2) -0.7057(2)
C17 C -0.5014(3) 1.0047(3) -0.2843(5)
H17 H -0.5430 1.0309 -0.2906
C18 C -0.07026(18) 0.96799(18) -0.4287(2)
C19 C -0.1717(2) 0.4179(3) -0.6415(3)
H18 H -0.1430 0.4529 -0.6641
C20 C -0.1742(2) 0.1373(2) -0.7519(2)
C21 C -0.2293(3) 0.3703(2) -0.5324(3)
H19 H -0.2409 0.3708 -0.4769
C22 C -0.4103(2) 0.2330(2) -0.6624(2)
C23 C -0.3062(2) 0.60602(19) -1.0677(2)
C24 C -0.03194(19) 1.0160(2) -0.4846(2)
H20 H -0.0631 1.0291 -0.5326
H21 H -0.0195 1.0608 -0.4547
C25 C -0.11635(18) 0.0859(2) -0.7565(2)
C26 C -0.12637(19) 0.99441(19) -0.3908(2)
H22 H -0.1411 1.0424 -0.4007
C27 C -0.16076(19) 0.95119(19) -0.3390(2)
H23 H -0.1992 0.9705 -0.3143
C28 C -0.3919(2) 0.9877(2) -0.2153(3)
C29 C -0.2321(2) 0.7200(2) -0.4048(2)
H24 H -0.2540 0.7643 -0.4180
C30 C -0.2611(2) 0.3587(2) -0.9764(2)
H25 H -0.2335 0.3536 -1.0216
C31 C -0.3109(2) 0.6935(2) -1.1752(2)
H26 H -0.3360 0.7149 -1.2207
C32 C -0.3413(2) 0.6383(2) -1.1336(3)
H27 H -0.3863 0.6229 -1.1506
C33 C -0.2587(2) 0.3066(2) -0.9158(2)
H28 H -0.2284 0.2673 -0.9199
C34 C -0.2385(2) 0.6652(2) -0.4610(2)
H29 H -0.2637 0.6727 -0.5121
C35 C -0.2089(2) 0.5997(2) -0.4440(2)
C36 C -0.38156(18) 0.92831(19) -0.2651(2)
C37 C -0.3391(2) 0.36588(19) -0.8475(2)
H30 H -0.3672 0.3687 -0.8025
C38 C -0.3355(2) 0.5456(2) -1.0182(3)
H31 H -0.3274 0.5560 -0.9589
H32 H -0.3855 0.5426 -1.0312
C39 C -0.3028(2) 0.4745(2) -1.0374(2)
H33 H -0.3266 0.4551 -1.0881
H34 H -0.2548 0.4837 -1.0495
C40 C -0.2146(2) 0.6857(2) -1.0908(3)
H35 H -0.1697 0.7019 -1.0750
C41 C -0.3435(2) 0.4205(2) -0.9056(2)
H36 H -0.3739 0.4596 -0.8999
C42 C -0.2412(2) 0.6305(2) -1.0472(3)
H37 H -0.2146 0.6093 -1.0027
C43 C -0.4652(2) 0.2088(3) -0.5318(3)
H38 H -0.4261 0.1814 -0.5143
C44 C -0.0521(2) 0.8979(2) -0.4111(3)
H39 H -0.0144 0.8771 -0.4358
C45 C -0.0785(2) 0.7884(2) -0.1289(3)
C46 C -0.0884(2) 0.8577(2) -0.3579(3)
H40 H -0.0743 0.8098 -0.3464
C47 C -0.0244(2) 0.7764(2) -0.0613(3)
C48 C -0.0582(2) -0.0231(3) -0.7131(3)
H41 H -0.0549 -0.0646 -0.6792
C49 C -0.46827(19) 0.2415(2) -0.6086(2)
C50 C 0.0764(3) 0.7165(3) -0.0056(6)
H42 H 0.1124 0.6831 -0.0112
C51 C -0.0677(2) 0.0960(3) -0.8133(3)
H43 H -0.0709 0.1368 -0.8482
C52 C -0.0109(2) -0.0112(3) -0.7701(4)
H44 H 0.0252 -0.0446 -0.7749
C53 C -0.4525(3) 1.0260(3) -0.2262(4)
H45 H -0.4598 1.0670 -0.1933
C54 C -0.0274(3) 0.8127(3) 0.0125(3)
H46 H -0.0628 0.8466 0.0193
C55 C -0.4321(2) 0.9087(2) -0.3250(3)
H47 H -0.4248 0.8690 -0.3598
C56 C -0.1717(3) 0.5935(2) -0.3696(3)
H48 H -0.1490 0.5498 -0.3549
C57 C 0.0284(2) 0.7275(3) -0.0712(4)
C58 C -0.5748(3) 0.2553(3) -0.5074(4)
H49 H -0.6114 0.2600 -0.4725
C59 C -0.1676(3) 0.6515(2) -0.3166(3)
H50 H -0.1423 0.6460 -0.2652
C60 C -0.5180(3) 0.2155(3) -0.4809(3)
H51 H -0.5153 0.1932 -0.4284
C61 C -0.0148(2) 0.0482(3) -0.8202(4)
H52 H 0.0184 0.0562 -0.8590
C62 C 0.0727(3) 0.7528(4) 0.0665(5)
H53 H 0.1065 0.7452 0.1101
C63 C -0.4924(3) 0.9463(3) -0.3342(4)
H54 H -0.5273 0.9323 -0.3743
C64 C -0.4641(2) -0.0119(3) -0.9885(3)
H55 H -0.4405 -0.0200 -1.0394
H56 H -0.4658 -0.0584 -0.9593
N2B N -0.65419(17) -0.13613(17) -1.1668(2)
C3B C -0.6087(3) -0.1586(3) -1.1107(4)
H8B H -0.6018 -0.2088 -1.1048
C6B C -0.6243(3) -0.0177(2) -1.1250(3)
H10B H -0.6315 0.0323 -1.1331
C7B C -0.5698(4) -0.1128(3) -1.0592(4)
H11B H -0.5375 -0.1323 -1.0192
C12B C -0.6612(3) -0.0656(2) -1.1737(3)
H16B H -0.6935 -0.0474 -1.2145
C14B C -0.5774(2) -0.0405(2) -1.0652(3)
C64B C -0.5359(2) 0.0119(3) -1.0115(3)
H55B H -0.5595 0.0200 -0.9606
H56B H -0.5342 0.0584 -1.0407
N5B N 0.14270(15) 1.11661(16) -0.67809(18)
C18B C 0.07026(18) 1.03201(18) -0.5713(2)
C24B C 0.03194(19) 0.9840(2) -0.5154(2)
H20B H 0.0631 0.9709 -0.4674
H21B H 0.0195 0.9392 -0.5453
C26B C 0.12637(19) 1.00559(19) -0.6092(2)
H22B H 0.1411 0.9576 -0.5993
C27B C 0.16076(19) 1.04881(19) -0.6610(2)
H23B H 0.1992 1.0295 -0.6857
C44B C 0.0521(2) 1.1021(2) -0.5889(3)
H39B H 0.0144 1.1229 -0.5642
C46B C 0.0884(2) 1.1423(2) -0.6421(3)
H40B H 0.0743 1.1902 -0.6536
Cd1B Cd -0.802967(12) -0.806769(12) -1.765987(14)
Cd2B Cd -0.709348(13) -0.221638(13) -1.252996(14)
O1B O -0.46684(17) -0.3130(2) -1.2917(2)
H1B H -0.4981 -0.2989 -1.2628
O2B O -0.69318(14) -0.83517(15) -1.69667(19)
O3B O -0.72769(15) -0.90369(17) -1.80096(17)
O4B O -0.64003(15) -0.19461(17) -1.35953(18)
O5B O -0.78524(14) -0.12835(16) -1.30550(17)
O6B O -0.92212(18) -0.75126(18) -1.80682(19)
O7B O -0.87505(14) -0.83390(17) -1.88082(18)
O8B O -0.81646(17) -0.18598(16) -1.1969(2)
O9B O -0.6550(2) -1.0098(2) -1.8425(2)
H2B H -0.6897 -0.9834 -1.8422
O10B O -0.84399(18) -0.0119(2) -1.3506(2)
H3B H -0.8140 -0.0442 -1.3486
O11B O -0.58701(17) -0.26747(17) -1.27023(19)
O12B O -1.0326(2) -0.6897(2) -1.8593(3)
H4B H -0.9978 -0.6974 -1.8276
N1B N -0.76051(17) -0.31207(16) -1.33698(18)
N3B N -0.70261(17) -0.30962(15) -1.14806(17)
N4B N -0.80311(16) -0.71403(15) -1.66697(18)
N6B N -0.75144(16) -0.71756(16) -0.84563(18)
C1B C -0.8358(3) -0.4842(3) -1.4947(3)
H5B H -0.8462 -0.4663 -1.5513
H6B H -0.8780 -0.5054 -1.4752
C2B C -0.4203(2) -0.2882(3) -1.4173(4)
H7B H -0.3809 -0.3155 -1.4005
C4B C -0.4737(2) -0.2814(2) -1.3655(3)
C5B C -1.0211(4) -0.7996(4) -2.0764(4)
H9B H -1.0182 -0.8235 -2.1274
C8B C -0.8023(2) -0.3617(2) -1.3102(3)
H12B H -0.8150 -0.3585 -1.2552
C9B C -0.7820(3) -0.5396(2) -1.4949(3)
H13B H -0.7383 -0.5152 -1.5041
H14B H -0.7771 -0.5611 -1.4394
C10B C -0.7455(3) -0.3167(2) -1.4155(2)
H15B H -0.7163 -0.2815 -1.4363
C11B C -0.8124(2) -0.4228(2) -1.4395(3)
C13B C -0.68297(19) -0.8858(2) -1.7441(2)
C15B C -0.69717(19) -0.41749(18) -1.0278(2)
C16B C -0.8894(2) -0.0254(2) -1.2943(2)
C17B C -0.4986(3) -1.0047(3) -1.7157(5)
H17B H -0.4570 -1.0309 -1.7094
C19B C -0.8283(2) -0.4179(3) -1.3585(3)
H18B H -0.8570 -0.4529 -1.3359
C20B C -0.8258(2) -0.1373(2) -1.2481(2)
C21B C -0.7707(3) -0.3703(2) -1.4676(3)
H19B H -0.7591 -0.3708 -1.5231
C22B C -0.5897(2) -0.2330(2) -1.3376(2)
C23B C -0.6938(2) -0.60602(19) -0.9323(2)
C25B C -0.88365(18) -0.0859(2) -1.2435(2)
C28B C -0.6081(2) -0.9877(2) -1.7847(3)
C29B C -0.7679(2) -0.7200(2) -1.5952(2)
H24B H -0.7460 -0.7643 -1.5820
C30B C -0.7389(2) -0.3587(2) -1.0236(2)
H25B H -0.7665 -0.3536 -0.9784
C31B C -0.6891(2) -0.6935(2) -0.8248(2)
H26B H -0.6640 -0.7149 -0.7793
C32B C -0.6587(2) -0.6383(2) -0.8664(3)
H27B H -0.6137 -0.6229 -0.8494
C33B C -0.7413(2) -0.3066(2) -1.0842(2)
H28B H -0.7716 -0.2673 -1.0801
C34B C -0.7615(2) -0.6652(2) -1.5390(2)
H29B H -0.7363 -0.6727 -1.4879
C35B C -0.7911(2) -0.5997(2) -1.5560(2)
C36B C -0.61844(18) -0.92831(19) -1.7349(2)
C37B C -0.6609(2) -0.36588(19) -1.1525(2)
H30B H -0.6328 -0.3687 -1.1975
C38B C -0.6645(2) -0.5456(2) -0.9818(3)
H31B H -0.6726 -0.5560 -1.0411
H32B H -0.6145 -0.5426 -0.9688
C39B C -0.6972(2) -0.4745(2) -0.9626(2)
H33B H -0.6734 -0.4551 -0.9119
H34B H -0.7452 -0.4837 -0.9505
C40B C -0.7854(2) -0.6857(2) -0.9092(3)
H35B H -0.8303 -0.7019 -0.9250
C41B C -0.6565(2) -0.4205(2) -1.0944(2)
H36B H -0.6261 -0.4596 -1.1001
C42B C -0.7588(2) -0.6305(2) -0.9528(3)
H37B H -0.7854 -0.6093 -0.9973
C43B C -0.5348(2) -0.2088(3) -1.4682(3)
H38B H -0.5739 -0.1814 -1.4857
C45B C -0.9215(2) -0.7884(2) -1.8711(3)
C47B C -0.9756(2) -0.7764(2) -1.9387(3)
C48B C -0.9418(2) 0.0231(3) -1.2869(3)
H41B H -0.9451 0.0646 -1.3208
C49B C -0.53173(19) -0.2415(2) -1.3914(2)
C50B C -1.0764(3) -0.7165(3) -1.9944(6)
H42B H -1.1124 -0.6831 -1.9888
C51B C -0.9323(2) -0.0960(3) -1.1867(3)
H43B H -0.9291 -0.1368 -1.1518
C52B C -0.9891(2) 0.0112(3) -1.2299(4)
H44B H -1.0252 0.0446 -1.2251
C53B C -0.5475(3) -1.0260(3) -1.7738(4)
H45B H -0.5402 -1.0670 -1.8067
C54B C -0.9726(3) -0.8127(3) -2.0125(3)
H46B H -0.9372 -0.8466 -2.0193
C55B C -0.5679(2) -0.9087(2) -1.6750(3)
H47B H -0.5752 -0.8690 -1.6402
C56B C -0.8283(3) -0.5935(2) -1.6304(3)
H48B H -0.8510 -0.5498 -1.6451
C57B C -1.0284(2) -0.7275(3) -1.9288(4)
C58B C -0.4252(3) -0.2553(3) -1.4926(4)
H49B H -0.3886 -0.2600 -1.5275
C59B C -0.8324(3) -0.6515(2) -1.6834(3)
H50B H -0.8577 -0.6460 -1.7348
C60B C -0.4820(3) -0.2155(3) -1.5191(3)
H51B H -0.4847 -0.1932 -1.5716
C61B C -0.9852(2) -0.0482(3) -1.1798(4)
H52B H -1.0184 -0.0562 -1.1410
C62B C -1.0727(3) -0.7528(4) -2.0665(5)
H53B H -1.1065 -0.7452 -2.1101
C63B C -0.5076(3) -0.9463(3) -1.6658(4)
H54B H -0.4727 -0.9323 -1.6257
Cd1_2 Cd -0.197033(12) 0.806769(12) -1.234013(14)
Cd1B_2 Cd -0.802967(12) -0.806769(12) -0.765987(14)
Cd1B_3 Cd 0.197033(12) 1.193231(12) -0.765987(14)
N5B_2 N -0.85730(15) -0.88339(16) -1.67809(18)
N6_2 N -0.24856(16) 0.71756(16) -0.15437(18)
N6B_2 N -0.75144(16) -0.71756(16) -1.84563(18)
loop_
_geom_bond_atom_site_label_1
_geom_bond_atom_site_label_2
_geom_bond_site_symmetry_1
_geom_bond_site_symmetry_2
Cd1 O2 1_555 1_555
Cd2 O4 1_555 1_555
O1 H1 1_555 1_555
O2 C13 1_555 1_555
O3 Cd1 1_555 1_555
O4 C22 1_555 1_555
O5 Cd2 1_555 1_555
O6 Cd1 1_555 1_555
O7 Cd1 1_555 1_555
O8 Cd2 1_555 1_555
O9 H2 1_555 1_555
O10 H3 1_555 1_555
O11 Cd2 1_555 1_555
O12 H4 1_555 1_555
N1 Cd2 1_555 1_555
N2 Cd2 1_555 1_555
N3 Cd2 1_555 1_555
N4 Cd1 1_555 1_555
N5 Cd1 1_555 1_555
N6 C31 1_555 1_555
C1 H5 1_555 1_555
H6 C1 1_555 1_555
C2 H7 1_555 1_555
C3 N2 1_555 1_555
H8 C3 1_555 1_555
C4 O1 1_555 1_555
C5 H9 1_555 1_555
C6 H10 1_555 1_555
C7 C3 1_555 1_555
H11 C7 1_555 1_555
C8 N1 1_555 1_555
H12 C8 1_555 1_555
C9 C1 1_555 1_555
H13 C9 1_555 1_555
H14 C9 1_555 1_555
C10 N1 1_555 1_555
H15 C10 1_555 1_555
C11 C1 1_555 1_555
C12 N2 1_555 1_555
H16 C12 1_555 1_555
C13 O3 1_555 1_555
C14 C6 1_555 1_555
C15 C30 1_555 1_555
C16 O10 1_555 1_555
C17 H17 1_555 1_555
C18 C24 1_555 1_555
C19 C8 1_555 1_555
H18 C19 1_555 1_555
C20 O5 1_555 1_555
C21 C10 1_555 1_555
H19 C21 1_555 1_555
C22 O11 1_555 1_555
C23 C32 1_555 1_555
C24 H20 1_555 1_555
H21 C24 1_555 1_555
C25 C16 1_555 1_555
C26 C18 1_555 1_555
H22 C26 1_555 1_555
C27 N5 1_555 1_555
H23 C27 1_555 1_555
C28 O9 1_555 1_555
C29 N4 1_555 1_555
H24 C29 1_555 1_555
C30 H25 1_555 1_555
C31 H26 1_555 1_555
C32 C31 1_555 1_555
H27 C32 1_555 1_555
C33 N3 1_555 1_555
H28 C33 1_555 1_555
C34 C29 1_555 1_555
H29 C34 1_555 1_555
C35 C9 1_555 1_555
C36 C13 1_555 1_555
C37 N3 1_555 1_555
H30 C37 1_555 1_555
C38 C23 1_555 1_555
H31 C38 1_555 1_555
H32 C38 1_555 1_555
C39 C15 1_555 1_555
H33 C39 1_555 1_555
H34 C39 1_555 1_555
C40 N6 1_555 1_555
H35 C40 1_555 1_555
C41 C15 1_555 1_555
H36 C41 1_555 1_555
C42 C23 1_555 1_555
H37 C42 1_555 1_555
C43 H38 1_555 1_555
C44 C18 1_555 1_555
H39 C44 1_555 1_555
C45 O6 1_555 1_555
C46 N5 1_555 1_555
H40 C46 1_555 1_555
C47 C45 1_555 1_555
C48 C16 1_555 1_555
H41 C48 1_555 1_555
C49 C4 1_555 1_555
C50 H42 1_555 1_555
C51 C25 1_555 1_555
H43 C51 1_555 1_555
C52 C48 1_555 1_555
H44 C52 1_555 1_555
C53 C17 1_555 1_555
H45 C53 1_555 1_555
C54 C5 1_555 1_555
H46 C54 1_555 1_555
C55 C36 1_555 1_555
H47 C55 1_555 1_555
C56 C35 1_555 1_555
H48 C56 1_555 1_555
C57 O12 1_555 1_555
C58 C2 1_555 1_555
H49 C58 1_555 1_555
C59 N4 1_555 1_555
H50 C59 1_555 1_555
C60 C43 1_555 1_555
H51 C60 1_555 1_555
C61 C51 1_555 1_555
H52 C61 1_555 1_555
C62 C5 1_555 1_555
H53 C62 1_555 1_555
C63 C17 1_555 1_555
H54 C63 1_555 1_555
C64 C14 1_555 1_555
H55 C64 1_555 1_555
H56 C64 1_555 1_555
N2B C3B 1_555 1_555
C3B H8B 1_555 1_555
C6B H10B 1_555 1_555
C7B C3B 1_555 1_555
H11B C7B 1_555 1_555
C12B N2B 1_555 1_555
H16B C12B 1_555 1_555
C14B C6B 1_555 1_555
C64B C64 1_555 1_555
H55B C64B 1_555 1_555
H56B C64B 1_555 1_555
N5B C27B 1_555 1_555
C18B C24B 1_555 1_555
C24B C24 1_555 1_555
H20B C24B 1_555 1_555
H21B C24B 1_555 1_555
C26B C18B 1_555 1_555
H22B C26B 1_555 1_555
C27B C26B 1_555 1_555
H23B C27B 1_555 1_555
C44B C18B 1_555 1_555
H39B C44B 1_555 1_555
C46B N5B 1_555 1_555
H40B C46B 1_555 1_555
Cd1B O2B 1_555 1_555
Cd2B N2B 1_555 1_555
O1B H1B 1_555 1_555
O2B C13B 1_555 1_555
O3B Cd1B 1_555 1_555
O4B Cd2B 1_555 1_555
O5B Cd2B 1_555 1_555
O6B Cd1B 1_555 1_555
O7B Cd1B 1_555 1_555
O8B Cd2B 1_555 1_555
O9B H2B 1_555 1_555
O10B H3B 1_555 1_555
O11B Cd2B 1_555 1_555
O12B H4B 1_555 1_555
N1B Cd2B 1_555 1_555
N3B Cd2B 1_555 1_555
N4B Cd1B 1_555 1_555
N6B C31B 1_555 1_555
C1B H5B 1_555 1_555
H6B C1B 1_555 1_555
C2B H7B 1_555 1_555
C4B O1B 1_555 1_555
C5B H9B 1_555 1_555
C8B N1B 1_555 1_555
H12B C8B 1_555 1_555
C9B C1B 1_555 1_555
H13B C9B 1_555 1_555
H14B C9B 1_555 1_555
C10B N1B 1_555 1_555
H15B C10B 1_555 1_555
C11B C1B 1_555 1_555
C13B O3B 1_555 1_555
C15B C30B 1_555 1_555
C16B O10B 1_555 1_555
C17B H17B 1_555 1_555
C19B C8B 1_555 1_555
H18B C19B 1_555 1_555
C20B O5B 1_555 1_555
C21B C10B 1_555 1_555
H19B C21B 1_555 1_555
C22B O4B 1_555 1_555
C23B C32B 1_555 1_555
C25B C16B 1_555 1_555
C28B O9B 1_555 1_555
C29B N4B 1_555 1_555
H24B C29B 1_555 1_555
C30B H25B 1_555 1_555
C31B H26B 1_555 1_555
C32B C31B 1_555 1_555
H27B C32B 1_555 1_555
C33B N3B 1_555 1_555
H28B C33B 1_555 1_555
C34B C29B 1_555 1_555
H29B C34B 1_555 1_555
C35B C9B 1_555 1_555
C36B C13B 1_555 1_555
C37B N3B 1_555 1_555
H30B C37B 1_555 1_555
C38B C23B 1_555 1_555
H31B C38B 1_555 1_555
H32B C38B 1_555 1_555
C39B C15B 1_555 1_555
H33B C39B 1_555 1_555
H34B C39B 1_555 1_555
C40B N6B 1_555 1_555
H35B C40B 1_555 1_555
C41B C15B 1_555 1_555
H36B C41B 1_555 1_555
C42B C23B 1_555 1_555
H37B C42B 1_555 1_555
C43B H38B 1_555 1_555
C45B O6B 1_555 1_555
C47B C45B 1_555 1_555
C48B C16B 1_555 1_555
H41B C48B 1_555 1_555
C49B C4B 1_555 1_555
C50B H42B 1_555 1_555
C51B C25B 1_555 1_555
H43B C51B 1_555 1_555
C52B C48B 1_555 1_555
H44B C52B 1_555 1_555
C53B C17B 1_555 1_555
H45B C53B 1_555 1_555
C54B C5B 1_555 1_555
H46B C54B 1_555 1_555
C55B C36B 1_555 1_555
H47B C55B 1_555 1_555
C56B C35B 1_555 1_555
H48B C56B 1_555 1_555
C57B O12B 1_555 1_555
C58B C2B 1_555 1_555
H49B C58B 1_555 1_555
C59B N4B 1_555 1_555
H50B C59B 1_555 1_555
C60B C43B 1_555 1_555
H51B C60B 1_555 1_555
C61B C51B 1_555 1_555
H52B C61B 1_555 1_555
C62B C5B 1_555 1_555
H53B C62B 1_555 1_555
C63B C17B 1_555 1_555
H54B C63B 1_555 1_555
Cd1_2 N6 1_555 1_555
Cd1B_2 N6B 1_555 1_555
Cd1B_3 N5B 1_555 1_555
N5B_2 Cd1B 1_555 1_555
N6_2 Cd1 1_555 1_555
N6B_2 Cd1B 1_555 1_555
O7 C45 1_555 1_555
O8 C20 1_555 1_555
C2 C4 1_555 1_555
C6 C12 1_555 1_555
C7 C14 1_555 1_555
C11 C19 1_555 1_555
C11 C21 1_555 1_555
C20 C25 1_555 1_555
C22 C49 1_555 1_555
C26 C27 1_555 1_555
C28 C36 1_555 1_555
C28 C53 1_555 1_555
C30 C33 1_555 1_555
C34 C35 1_555 1_555
C37 C41 1_555 1_555
C38 C39 1_555 1_555
C40 C42 1_555 1_555
C43 C49 1_555 1_555
C44 C46 1_555 1_555
C47 C54 1_555 1_555
C47 C57 1_555 1_555
C50 C57 1_555 1_555
C50 C62 1_555 1_555
C52 C61 1_555 1_555
C55 C63 1_555 1_555
C56 C59 1_555 1_555
C58 C60 1_555 1_555
C6B C12B 1_555 1_555
C7B C14B 1_555 1_555
C14B C64B 1_555 1_555
C44B C46B 1_555 1_555
O7B C45B 1_555 1_555
O8B C20B 1_555 1_555
O11B C22B 1_555 1_555
C2B C4B 1_555 1_555
C11B C19B 1_555 1_555
C11B C21B 1_555 1_555
C20B C25B 1_555 1_555
C22B C49B 1_555 1_555
C28B C36B 1_555 1_555
C28B C53B 1_555 1_555
C30B C33B 1_555 1_555
C34B C35B 1_555 1_555
C37B C41B 1_555 1_555
C38B C39B 1_555 1_555
C40B C42B 1_555 1_555
C43B C49B 1_555 1_555
C47B C54B 1_555 1_555
C47B C57B 1_555 1_555
C50B C57B 1_555 1_555
C50B C62B 1_555 1_555
C52B C61B 1_555 1_555
C55B C63B 1_555 1_555
C56B C59B 1_555 1_555
C58B C60B 1_555 1_555

#END
