
#######################################################################
#
#                 Cambridge Crystallographic Data Centre
#                                CCDC 
#
#######################################################################
#
# If this CIF has been generated from an entry in the Cambridge 
# Structural Database, then it will include bibliographic, chemical, 
# crystal, experimental, refinement or atomic coordinate data resulting 
# from the CCDC's data processing and validation procedures.
#
#######################################################################

data_NILDUJ
_symmetry_cell_setting           monoclinic
_symmetry_space_group_name_H-M   'P 2/c'
_symmetry_Int_Tables_number      13
_space_group_name_Hall           '-P 2yc'
loop_
_symmetry_equiv_pos_site_id
_symmetry_equiv_pos_as_xyz
1 x,y,z
2 -x,y,1/2-z
3 -x,-y,-z
4 x,-y,1/2+z
_cell_length_a                   11.8920(3)
_cell_length_b                   7.2477(2)
_cell_length_c                   14.5382(4)
_cell_angle_alpha                90
_cell_angle_beta                 98.479(2)
_cell_angle_gamma                90
_cell_volume                     1239.35
loop_
_atom_site_label
_atom_site_type_symbol
_atom_site_fract_x
_atom_site_fract_y
_atom_site_fract_z
Co1 Co 0.5000 0.71401(10) 0.7500
N1 N 0.6747(3) 0.7184(5) 0.7252(2)
N2 N 0.4596(3) 0.9019(5) 0.6408(2)
N3 N 0.4597(3) 0.5181(5) 0.6442(2)
N4 N 0.7680(3) 0.7450(5) 0.7861(2)
N5 N 0.8145(3) 0.6945(6) 0.6464(3)
C1 C 0.7021(3) 0.6868(6) 0.6422(3)
H1 H 0.6508 0.6627 0.5888
C2 C 0.8521(3) 0.7292(6) 0.7350(3)
N6 N 0.9653(3) 0.7390(5) 0.7783(3)
C3 C 0.4459(4) 0.8010(7) 0.5516(3)
C4 C 0.3951(4) 0.6128(7) 0.5630(3)
H2 H 0.318(2) 0.617(9) 0.573(4)
H3 H 0.392(5) 0.542(7) 0.507(3)
H4 H 0.521(3) 0.794(8) 0.532(4)
H5 H 0.394(4) 0.868(8) 0.506(3)
H6 H 0.518(4) 0.985(7) 0.642(4)
H7 H 0.391(3) 0.955(8) 0.639(4)
H8 H 0.482(4) 0.416(6) 0.680(3)
H9 H 0.522(2) 0.527(3) 0.619(2)
N1A N 1.3253(3) 0.7184(5) 0.7748(2)
N4A N 1.2320(3) 0.7450(5) 0.7139(2)
N5A N 1.1855(3) 0.6945(6) 0.8536(3)
C1A C 1.2979(3) 0.6868(6) 0.8578(3)
H1A H 1.3492 0.6627 0.9112
C2A C 1.1479(3) 0.7292(6) 0.7650(3)
N6A N 1.0347(3) 0.7390(5) 0.7217(3)
N2A N 0.5404(3) 0.9019(5) 0.8592(2)
N3A N 0.5403(3) 0.5181(5) 0.8558(2)
C3A C 0.5541(4) 0.8010(7) 0.9484(3)
C4A C 0.6049(4) 0.6128(7) 0.9370(3)
H2A H 0.682(2) 0.617(9) 0.927(4)
H3A H 0.608(5) 0.542(7) 0.993(3)
H4A H 0.479(3) 0.794(8) 0.968(4)
H5A H 0.606(4) 0.868(8) 0.994(3)
H6A H 0.482(4) 0.985(7) 0.858(4)
H7A H 0.609(3) 0.955(8) 0.861(4)
H8A H 0.518(4) 0.416(6) 0.820(3)
H9A H 0.478(2) 0.527(3) 0.881(2)
Co1_2 Co 1.5000 0.71401(10) 0.7500
N1A_2 N 0.3253(3) 0.7184(5) 0.7748(2)
N7 N 0.8065(3) 0.2242(5) 0.7987(3)
H10 H 0.8414 0.2375 0.8545
C5 C 0.8518(4) 0.2040(6) 0.7220(3)
N8 N 0.6751(3) 0.1955(6) 0.6794(3)
N9 N 0.7732(3) 0.1873(6) 0.6472(3)
C6 C 0.6937(3) 0.2196(6) 0.7706(3)
H11 H 0.6380 0.2314 0.8088
N10 N 0.9668(3) 0.2011(5) 0.7120(3)
N7A N 1.1935(3) 0.2242(5) 0.7013(3)
H10A H 1.1586 0.2375 0.6455
C5A C 1.1482(4) 0.2040(6) 0.7780(3)
N8A N 1.3249(3) 0.1955(6) 0.8206(3)
N9A N 1.2268(3) 0.1873(6) 0.8528(3)
C6A C 1.3063(3) 0.2196(6) 0.7294(3)
H11A H 1.3620 0.2314 0.6912
N10A N 1.0332(3) 0.2011(5) 0.7880(3)
O1 O 0.8526(3) 0.0977(5) 0.4758(2)
H12 H 0.814(4) 0.111(10) 0.516(3)
H13 H 0.820(5) 0.126(10) 0.426(2)
O2 O 0.9306(4) 0.2680(5) 0.9842(3)
H14 H 0.959(8) 0.163(6) 0.975(5)
H15 H 0.904(8) 0.251(11) 1.034(4)
O3 O 0.9602(5) 0.4578(7) 0.9614(3)
H16 H 0.992(6) 0.446(14) 0.911(4)
H17 H 0.899(5) 0.516(12) 0.936(5)
loop_
_geom_bond_atom_site_label_1
_geom_bond_atom_site_label_2
_geom_bond_site_symmetry_1
_geom_bond_site_symmetry_2
Co1 N1 1_555 1_555
N1 N4 1_555 1_555
N2 Co1 1_555 1_555
N3 Co1 1_555 1_555
N4 C2 1_555 1_555
N5 C1 1_555 1_555
C1 N1 1_555 1_555
H1 C1 1_555 1_555
C2 N5 1_555 1_555
N6 C2 1_555 1_555
C3 N2 1_555 1_555
C4 N3 1_555 1_555
H2 C4 1_555 1_555
H3 C4 1_555 1_555
H4 C3 1_555 1_555
H5 C3 1_555 1_555
H6 N2 1_555 1_555
H7 N2 1_555 1_555
H8 N3 1_555 1_555
H9 N3 1_555 1_555
N7 H10 1_555 1_555
C5 N7 1_555 1_555
N8 N9 1_555 1_555
N9 C5 1_555 1_555
C6 N7 1_555 1_555
H11 C6 1_555 1_555
N10 C5 1_555 1_555
O1 H12 1_555 1_555
H13 O1 1_555 1_555
O2 H14 1_555 1_555
H15 O2 1_555 1_555
O3 H16 1_555 1_555
H17 O3 1_555 1_555
N1A N4A 1_555 1_555
N4A C2A 1_555 1_555
N5A C1A 1_555 1_555
C1A N1A 1_555 1_555
H1A C1A 1_555 1_555
C2A N5A 1_555 1_555
N6A N6 1_555 1_555
N2A Co1 1_555 1_555
N3A Co1 1_555 1_555
C3A N2A 1_555 1_555
C4A N3A 1_555 1_555
H2A C4A 1_555 1_555
H3A C4A 1_555 1_555
H4A C3A 1_555 1_555
H5A C3A 1_555 1_555
H6A N2A 1_555 1_555
H7A N2A 1_555 1_555
H8A N3A 1_555 1_555
H9A N3A 1_555 1_555
Co1_2 N1A 1_555 1_555
N1A_2 Co1 1_555 1_555
N7A H10A 1_555 1_555
C5A N7A 1_555 1_555
N8A N9A 1_555 1_555
N9A C5A 1_555 1_555
C6A N7A 1_555 1_555
H11A C6A 1_555 1_555
N10A N10 1_555 1_555
C3 C4 1_555 1_555
N8 C6 1_555 1_555
C2A N6A 1_555 1_555
C3A C4A 1_555 1_555
C5A N10A 1_555 1_555
N8A C6A 1_555 1_555

#END
