
#######################################################################
#
#                 Cambridge Crystallographic Data Centre
#                                CCDC 
#
#######################################################################
#
# If this CIF has been generated from an entry in the Cambridge 
# Structural Database, then it will include bibliographic, chemical, 
# crystal, experimental, refinement or atomic coordinate data resulting 
# from the CCDC's data processing and validation procedures.
#
#######################################################################

data_NILGIA
_symmetry_cell_setting           orthorhombic
_symmetry_space_group_name_H-M   'P b c n'
_symmetry_Int_Tables_number      60
_space_group_name_Hall           '-P 2n 2ab'
loop_
_symmetry_equiv_pos_site_id
_symmetry_equiv_pos_as_xyz
1 x,y,z
2 1/2-x,1/2-y,1/2+z
3 1/2+x,1/2-y,-z
4 -x,y,1/2-z
5 -x,-y,-z
6 1/2+x,1/2+y,1/2-z
7 1/2-x,1/2+y,z
8 x,-y,1/2+z
_cell_length_a                   22.000(4)
_cell_length_b                   15.000(3)
_cell_length_c                   24.000(5)
_cell_angle_alpha                90
_cell_angle_beta                 90
_cell_angle_gamma                90
_cell_volume                     7920
loop_
_atom_site_label
_atom_site_type_symbol
_atom_site_fract_x
_atom_site_fract_y
_atom_site_fract_z
W1 W 0.88891(4) 0.60022(5) 0.25829(3)
W2 W 0.98028(4) 0.60077(5) 0.14752(3)
W3 W 0.87410(4) 0.75727(5) 0.16044(3)
W4 W 1.09738(4) 0.77473(5) 0.13452(3)
W5 W 0.99182(4) 0.93075(6) 0.14754(3)
W6 W 1.11132(4) 0.93056(5) 0.23197(4)
V1 V 1.0000 0.7643(4) 0.2500
Ni1 Ni 1.0000 0.5000 0.0000
O1 O 0.9703(7) 1.0063(10) 0.0989(6)
O2 O 0.8152(7) 0.7780(10) 0.1177(6)
O3 O 1.1675(7) 1.0057(10) 0.2394(6)
O4 O 1.1437(6) 0.7534(9) 0.0793(5)
O5 O 0.9426(6) 0.9612(9) 0.2106(6)
O6 O 1.0590(6) 0.9912(9) 0.1802(6)
O7 O 0.9531(5) 0.7020(8) 0.2160(5)
O8 O 1.0370(5) 0.8267(8) 0.2070(5)
O9 O 0.9871(5) 0.5304(9) 0.0916(5)
O10 O 0.9570(5) 0.5669(8) 0.3028(5)
O11 O 0.8361(6) 0.5227(9) 0.2774(6)
O12 O 1.0476(6) 0.8635(8) 0.1024(5)
O13 O 0.9245(5) 0.5404(8) 0.1953(5)
O14 O 0.8390(5) 0.6679(8) 0.2067(5)
O15 O 0.9136(5) 0.6669(8) 0.1186(5)
O16 O 0.8736(5) 0.6910(8) 0.3117(5)
O17 O 1.0325(5) 0.6928(8) 0.1235(5)
O18 O 0.9324(6) 0.8393(9) 0.1342(5)
O19 O 1.1436(5) 0.8644(8) 0.1703(5)
O20 O 0.8588(6) 0.8394(9) 0.2196(5)
N1 N 0.9073(7) 0.5033(11) -0.0138(7)
N2 N 0.8204(7) 0.4795(11) -0.0602(7)
N3 N 0.5171(7) 0.2754(11) -0.0258(7)
N4 N 0.4968(7) 0.1343(10) -0.0226(6)
C1 C 0.8797(9) 0.4549(15) -0.0522(9)
H1 H 0.8986 0.4090 -0.0718
C2 C 0.7810(9) 0.4432(15) -0.1000(9)
H2 H 0.7990 0.3892 -0.1150
H3 H 0.7764 0.4852 -0.1304
C3 C 0.8654(10) 0.5627(16) 0.0046(12)
H4 H 0.8716 0.6043 0.0328
C4 C 0.8128(10) 0.5518(16) -0.0245(10)
H5 H 0.7779 0.5865 -0.0212
C5 C 0.6045(8) 0.3794(13) -0.0324(8)
C6 C 0.5203(10) 0.1989(15) 0.0061(8)
H6 H 0.5364 0.1945 0.0418
C7 C 0.4894(10) 0.2528(15) -0.0737(9)
H7 H 0.4796 0.2906 -0.1030
C8 C 0.5431(10) 0.3598(15) -0.0057(9)
H8 H 0.5479 0.3569 0.0344
H9 H 0.5152 0.4081 -0.0140
C9 C 0.6165(10) 0.4629(15) -0.0525(10)
H10 H 0.5864 0.5064 -0.0514
C10 C 0.7187(9) 0.4213(16) -0.0763(9)
C11 C 0.6740(9) 0.4836(15) -0.0748(9)
H11 H 0.6814 0.5405 -0.0886
C12 C 0.7066(10) 0.3375(14) -0.0564(9)
H12 H 0.7365 0.2937 -0.0576
C13 C 0.6501(9) 0.3177(14) -0.0346(9)
H13 H 0.6429 0.2607 -0.0210
C14 C 0.4789(10) 0.1674(15) -0.0708(9)
H14 H 0.4611 0.1340 -0.0990
W1C W 1.11109(4) 0.60022(5) 0.24171(3)
W2C W 1.01972(4) 0.60077(5) 0.35248(3)
W3C W 1.12590(4) 0.75727(5) 0.33956(3)
W4C W 0.90262(4) 0.77473(5) 0.36548(3)
W5C W 1.00818(4) 0.93075(6) 0.35246(3)
W6C W 0.88868(4) 0.93056(5) 0.26803(4)
O1C O 1.0297(7) 1.0063(10) 0.4011(6)
O2C O 1.1848(7) 0.7780(10) 0.3823(6)
O3C O 0.8325(7) 1.0057(10) 0.2606(6)
O4C O 0.8563(6) 0.7534(9) 0.4207(5)
O5C O 1.0574(6) 0.9612(9) 0.2894(6)
O6C O 0.9410(6) 0.9912(9) 0.3198(6)
O7C O 1.0469(5) 0.7020(8) 0.2840(5)
O8C O 0.9630(5) 0.8267(8) 0.2930(5)
O9C O 1.0129(5) 0.5304(9) 0.4084(5)
O10C O 1.0430(5) 0.5669(8) 0.1972(5)
O11C O 1.1639(6) 0.5227(9) 0.2226(6)
O12C O 0.9524(6) 0.8635(8) 0.3976(5)
O13C O 1.0755(5) 0.5404(8) 0.3047(5)
O14C O 1.1610(5) 0.6679(8) 0.2933(5)
O15C O 1.0864(5) 0.6669(8) 0.3814(5)
O16C O 1.1264(5) 0.6910(8) 0.1883(5)
O17C O 0.9675(5) 0.6928(8) 0.3765(5)
O18C O 1.0676(6) 0.8393(9) 0.3658(5)
O19C O 0.8564(5) 0.8644(8) 0.3297(5)
O20C O 1.1412(6) 0.8394(9) 0.2804(5)
N1D N 1.0927(7) 0.4967(11) 0.0138(7)
N2D N 1.1796(7) 0.5205(11) 0.0602(7)
N3D N 1.4829(7) 0.7246(11) 0.0258(7)
N4D N 1.5032(7) 0.8657(10) 0.0226(6)
C1D C 1.1203(9) 0.5451(15) 0.0522(9)
H1D H 1.1014 0.5910 0.0718
C2D C 1.2190(9) 0.5568(15) 0.1000(9)
H2D H 1.2010 0.6108 0.1150
H3D H 1.2236 0.5148 0.1304
C3D C 1.1346(10) 0.4373(16) -0.0046(12)
H4D H 1.1284 0.3957 -0.0328
C4D C 1.1872(10) 0.4482(16) 0.0245(10)
H5D H 1.2221 0.4135 0.0212
C5D C 1.3955(8) 0.6206(13) 0.0324(8)
C6D C 1.4797(10) 0.8011(15) -0.0061(8)
H6D H 1.4636 0.8055 -0.0418
C7D C 1.5106(10) 0.7472(15) 0.0737(9)
H7D H 1.5204 0.7094 0.1030
C8D C 1.4569(10) 0.6402(15) 0.0057(9)
H8D H 1.4521 0.6431 -0.0344
H9D H 1.4848 0.5919 0.0140
C9D C 1.3835(10) 0.5371(15) 0.0525(10)
H10D H 1.4136 0.4936 0.0514
C10D C 1.2813(9) 0.5787(16) 0.0763(9)
C11D C 1.3260(9) 0.5164(15) 0.0748(9)
H11D H 1.3186 0.4595 0.0886
C12D C 1.2934(10) 0.6625(14) 0.0564(9)
H12D H 1.2635 0.7063 0.0576
C13D C 1.3499(9) 0.6823(14) 0.0346(9)
H13D H 1.3571 0.7393 0.0210
C14D C 1.5211(10) 0.8326(15) 0.0708(9)
H14D H 1.5389 0.8660 0.0990
Ni1B Ni 0.5000 0.0000 0.0000
Ni1B_2 Ni 1.5000 1.0000 0.0000
Ni1C Ni 1.0000 0.5000 0.5000
O9D O 1.0129(5) 0.4696(9) -0.0916(5)
N4B N 0.9968(7) 0.3657(10) 0.0226(6)
N4F N 1.0032(7) 0.6343(10) -0.0226(6)
N5 N 0.2506(8) 0.7672(13) 0.2229(9)
N6 N 0.3455(9) 0.7765(13) 0.1906(10)
C15 C 0.2826(10) 0.6887(13) 0.2157(15)
H15 H 0.2664 0.6363 0.2300
C16 C 0.2951(18) 0.831(3) 0.2050(17)
H16 H 0.2918 0.8923 0.2033
C17 C 0.4769(14) 0.841(2) 0.2347(14)
H17 H 0.4586 0.8961 0.2278
C18 C 0.3378(12) 0.6847(13) 0.1880(15)
C19 C 0.4497(18) 0.764(2) 0.2093(18)
C20 C 0.478(2) 0.687(3) 0.235(2)
H18 H 0.4614 0.6314 0.2268
C21 C 0.4016(11) 0.812(2) 0.1728(17)
H19 H 0.4030 0.8758 0.1788
H20 H 0.4082 0.7997 0.1336
N5C N 0.7494(8) 0.7672(13) 0.2771(9)
N6C N 0.6545(9) 0.7765(13) 0.3094(10)
C15C C 0.7174(10) 0.6887(13) 0.2843(15)
H15C H 0.7336 0.6363 0.2700
C16C C 0.7049(18) 0.831(3) 0.2950(17)
H16C H 0.7082 0.8923 0.2967
C17C C 0.5231(14) 0.841(2) 0.2653(14)
H17C H 0.5414 0.8961 0.2722
C18C C 0.6622(12) 0.6847(13) 0.3120(15)
C19C C 0.5503(18) 0.764(2) 0.2907(18)
C20C C 0.522(2) 0.687(3) 0.265(2)
H18C H 0.5386 0.6314 0.2732
C21C C 0.5984(11) 0.812(2) 0.3272(17)
H19C H 0.5970 0.8758 0.3212
H20C H 0.5918 0.7997 0.3664
O21 O 0.815(3) 1.000(4) 0.103(2)
C22? C 0.4050(18) 0.711(3) 0.1758(17)
loop_
_geom_bond_atom_site_label_1
_geom_bond_atom_site_label_2
_geom_bond_site_symmetry_1
_geom_bond_site_symmetry_2
W1 O7 1_555 1_555
W2 O7 1_555 1_555
W3 O2 1_555 1_555
W4 O4 1_555 1_555
W5 O1 1_555 1_555
W6 O3 1_555 1_555
V1 O7 1_555 1_555
Ni1 O9 1_555 1_555
O5 W5 1_555 1_555
O6 W5 1_555 1_555
O7 W3 1_555 1_555
O8 W4 1_555 1_555
O9 W2 1_555 1_555
O10 W1 1_555 1_555
O11 W1 1_555 1_555
O12 W4 1_555 1_555
O13 W1 1_555 1_555
O14 W1 1_555 1_555
O15 W2 1_555 1_555
O16 W1 1_555 1_555
O17 W2 1_555 1_555
O18 W3 1_555 1_555
O19 W4 1_555 1_555
O20 W3 1_555 1_555
N1 Ni1 1_555 1_555
N2 C1 1_555 1_555
N3 C6 1_555 1_555
N4 C6 1_555 1_555
C1 N1 1_555 1_555
H1 C1 1_555 1_555
C2 N2 1_555 1_555
H2 C2 1_555 1_555
H3 C2 1_555 1_555
C3 N1 1_555 1_555
H4 C3 1_555 1_555
C4 N2 1_555 1_555
H5 C4 1_555 1_555
C5 C8 1_555 1_555
C6 H6 1_555 1_555
C7 N3 1_555 1_555
H7 C7 1_555 1_555
C8 N3 1_555 1_555
H8 C8 1_555 1_555
H9 C8 1_555 1_555
C9 C5 1_555 1_555
H10 C9 1_555 1_555
C10 C2 1_555 1_555
C11 C9 1_555 1_555
H11 C11 1_555 1_555
C12 C10 1_555 1_555
H12 C12 1_555 1_555
C13 C5 1_555 1_555
H13 C13 1_555 1_555
C14 N4 1_555 1_555
H14 C14 1_555 1_555
N5 C15 1_555 1_555
N6 C16 1_555 1_555
C15 H15 1_555 1_555
C16 N5 1_555 1_555
H16 C16 1_555 1_555
C17 H17 1_555 1_555
C18 N6 1_555 1_555
C19 C17 1_555 1_555
C20 C19 1_555 1_555
H18 C20 1_555 1_555
C21 N6 1_555 1_555
H19 C21 1_555 1_555
H20 C21 1_555 1_555
W1C O7C 1_555 1_555
W2C O10 1_555 1_555
W3C O2C 1_555 1_555
W4C O16 1_555 1_555
W5C O1C 1_555 1_555
W6C O5 1_555 1_555
O3C W6C 1_555 1_555
O4C W4C 1_555 1_555
O5C W6 1_555 1_555
O6C W5C 1_555 1_555
O7C V1 1_555 1_555
O8C V1 1_555 1_555
O9C W2C 1_555 1_555
O10C W2 1_555 1_555
O11C W1C 1_555 1_555
O12C W4C 1_555 1_555
O13C W1C 1_555 1_555
O14C W1C 1_555 1_555
O15C W2C 1_555 1_555
O16C W4 1_555 1_555
O17C W2C 1_555 1_555
O18C W3C 1_555 1_555
O19C W4C 1_555 1_555
O20C W6 1_555 1_555
N1D Ni1 1_555 1_555
N2D C1D 1_555 1_555
N3D C6D 1_555 1_555
N4D C6D 1_555 1_555
C1D N1D 1_555 1_555
H1D C1D 1_555 1_555
C2D N2D 1_555 1_555
H2D C2D 1_555 1_555
H3D C2D 1_555 1_555
C3D N1D 1_555 1_555
H4D C3D 1_555 1_555
C4D N2D 1_555 1_555
H5D C4D 1_555 1_555
C5D C8D 1_555 1_555
C6D H6D 1_555 1_555
C7D N3D 1_555 1_555
H7D C7D 1_555 1_555
C8D N3D 1_555 1_555
H8D C8D 1_555 1_555
H9D C8D 1_555 1_555
C9D C5D 1_555 1_555
H10D C9D 1_555 1_555
C10D C2D 1_555 1_555
C11D C9D 1_555 1_555
H11D C11D 1_555 1_555
C12D C10D 1_555 1_555
H12D C12D 1_555 1_555
C13D C5D 1_555 1_555
H13D C13D 1_555 1_555
C14D N4D 1_555 1_555
H14D C14D 1_555 1_555
Ni1B N4 1_555 1_555
Ni1B_2 N4D 1_555 1_555
Ni1C O9C 1_555 1_555
O9D Ni1 1_555 1_555
N4B Ni1 1_555 1_555
N4F Ni1 1_555 1_555
N5C C15C 1_555 1_555
N6C C16C 1_555 1_555
C15C H15C 1_555 1_555
C16C N5C 1_555 1_555
H16C C16C 1_555 1_555
C17C C17 1_555 1_555
H17C C17C 1_555 1_555
C18C N6C 1_555 1_555
C19C C17C 1_555 1_555
C20C C20 1_555 1_555
H18C C20C 1_555 1_555
C21C N6C 1_555 1_555
H19C C21C 1_555 1_555
H20C C21C 1_555 1_555
W2 O13 1_555 1_555
W3 O14 1_555 1_555
W3 O15 1_555 1_555
W4 O17 1_555 1_555
W5 O8 1_555 1_555
W5 O12 1_555 1_555
W5 O18 1_555 1_555
W6 O6 1_555 1_555
W6 O8 1_555 1_555
W6 O19 1_555 1_555
V1 O8 1_555 1_555
O20 W6C 1_555 1_555
C3 C4 1_555 1_555
C7 C14 1_555 1_555
C10 C11 1_555 1_555
C12 C13 1_555 1_555
C15 C18 1_555 1_555
C19 C21 1_555 1_555
W1C O10C 1_555 1_555
W1C O16C 1_555 1_555
W2C O7C 1_555 1_555
W2C O13C 1_555 1_555
W3C O7C 1_555 1_555
W3C O14C 1_555 1_555
W3C O15C 1_555 1_555
W3C O20C 1_555 1_555
W4C O8C 1_555 1_555
W4C O17C 1_555 1_555
W5C O5C 1_555 1_555
W5C O8C 1_555 1_555
W5C O12C 1_555 1_555
W5C O18C 1_555 1_555
W6C O6C 1_555 1_555
W6C O8C 1_555 1_555
W6C O19C 1_555 1_555
C3D C4D 1_555 1_555
C7D C14D 1_555 1_555
C10D C11D 1_555 1_555
C12D C13D 1_555 1_555
C15C C18C 1_555 1_555
C19C C20C 1_555 1_555
C19C C21C 1_555 1_555

#END
