
#######################################################################
#
#                 Cambridge Crystallographic Data Centre
#                                CCDC 
#
#######################################################################
#
# If this CIF has been generated from an entry in the Cambridge 
# Structural Database, then it will include bibliographic, chemical, 
# crystal, experimental, refinement or atomic coordinate data resulting 
# from the CCDC's data processing and validation procedures.
#
#######################################################################

data_NILGOG
_symmetry_cell_setting           orthorhombic
_symmetry_space_group_name_H-M   'P b c n'
_symmetry_Int_Tables_number      60
_space_group_name_Hall           '-P 2n 2ab'
loop_
_symmetry_equiv_pos_site_id
_symmetry_equiv_pos_as_xyz
1 x,y,z
2 1/2-x,1/2-y,1/2+z
3 1/2+x,1/2-y,-z
4 -x,y,1/2-z
5 -x,-y,-z
6 1/2+x,1/2+y,1/2-z
7 1/2-x,1/2+y,z
8 x,-y,1/2+z
_cell_length_a                   22.024(4)
_cell_length_b                   15.065(3)
_cell_length_c                   24.120(5)
_cell_angle_alpha                90
_cell_angle_beta                 90
_cell_angle_gamma                90
_cell_volume                     8002.81
loop_
_atom_site_label
_atom_site_type_symbol
_atom_site_fract_x
_atom_site_fract_y
_atom_site_fract_z
Co1 Co 0.5000 0.0000 0.5000
V1 V 0.5000 -0.2660(5) 0.2500
W1 W 0.51995(5) -0.10120(6) 0.35111(4)
W2 W 0.61188(5) -0.10160(7) 0.24136(5)
W3 W 0.62609(5) -0.25855(7) 0.33905(5)
W4 W 0.49140(5) -0.43230(7) 0.14839(4)
W5 W 0.59691(5) -0.27565(7) 0.13469(4)
W6 W 0.61176(5) -0.43128(7) 0.23194(5)
O1 O 0.6434(7) -0.3642(11) 0.1711(6)
O2 O 0.6646(8) -0.0233(11) 0.2222(7)
O3 O 0.4683(7) -0.1925(10) 0.3754(6)
O4 O 0.6404(7) -0.3385(11) 0.2802(7)
O5 O 0.4326(7) -0.3402(10) 0.1351(6)
O6 O 0.6602(7) -0.1682(10) 0.2921(7)
O7 O 0.5874(7) -0.1663(10) 0.3804(7)
O8 O 0.5756(7) -0.0404(10) 0.3043(7)
O9 O 0.5471(7) -0.2043(10) 0.2835(6)
O10 O 0.5139(7) -0.0295(11) 0.4057(7)
O11 O 0.4570(7) -0.0676(11) 0.3032(7)
O12 O 0.5458(8) -0.3649(11) 0.1035(7)
O13 O 0.4415(8) -0.4632(11) 0.2110(7)
O14 O 0.5588(7) -0.4913(10) 0.1803(7)
O15 O 0.6257(7) -0.1921(10) 0.1885(6)
O16 O 0.4700(9) -0.5082(13) 0.1007(7)
O17 O 0.6432(8) -0.2539(11) 0.0794(7)
O18 O 0.5371(7) -0.3281(10) 0.2065(6)
O19 O 0.6853(9) -0.2799(13) 0.3820(8)
O20 O 0.6674(8) -0.5085(12) 0.2383(7)
N1 N 0.4067(9) 0.0035(14) 0.4863(9)
N2 N 0.3207(9) -0.0193(15) 0.4395(10)
N3 N -0.0033(9) -0.3644(13) 0.4789(9)
N4 N 0.0175(9) -0.2228(13) 0.4763(9)
C1 C 0.1738(12) -0.0169(19) 0.4249(12)
H1 H 0.1813 0.0395 0.4108
C2 C 0.1041(11) -0.1182(15) 0.4689(11)
C3 C -0.0117(12) -0.2446(17) 0.4280(10)
H2 H -0.0218 -0.2059 0.3994
C4 C 0.0205(13) -0.2976(19) 0.5070(12)
H3 H 0.0368 -0.3015 0.5425
C5 C 0.1163(12) -0.036(2) 0.4485(13)
H4 H 0.0866 0.0076 0.4499
C6 C 0.3789(11) -0.0459(18) 0.4477(11)
H5 H 0.3972 -0.0925 0.4288
C7 C 0.0433(14) -0.1388(17) 0.4948(13)
H6 H 0.0479 -0.1404 0.5348
H7 H 0.0152 -0.0913 0.4860
C8 C 0.2174(11) -0.079(2) 0.4227(11)
C9 C -0.0228(13) -0.3304(19) 0.4296(13)
H8 H -0.0412 -0.3628 0.4015
C10 C 0.1491(13) -0.183(2) 0.4665(12)
H9 H 0.1415 -0.2397 0.4805
C11 C 0.2050(12) -0.1637(18) 0.4433(12)
H10 H 0.2346 -0.2075 0.4414
C12 C 0.2794(12) -0.057(2) 0.3982(12)
H11 H 0.2972 -0.1112 0.3833
H12 H 0.2745 -0.0157 0.3679
C13 C 0.3119(12) 0.053(2) 0.4755(15)
H13 H 0.2769 0.0871 0.4794
C14 C 0.3641(14) 0.063(2) 0.5027(14)
H14 H 0.3706 0.1061 0.5298
W1C W 0.48005(5) -0.10120(6) 0.14889(4)
W2C W 0.38812(5) -0.10160(7) 0.25864(5)
W3C W 0.37391(5) -0.25855(7) 0.16095(5)
W4C W 0.50860(5) -0.43230(7) 0.35161(4)
W5C W 0.40309(5) -0.27565(7) 0.36531(4)
W6C W 0.38824(5) -0.43128(7) 0.26806(5)
O1C O 0.3566(7) -0.3642(11) 0.3289(6)
O2C O 0.3354(8) -0.0233(11) 0.2778(7)
O3C O 0.5317(7) -0.1925(10) 0.1246(6)
O4C O 0.3596(7) -0.3385(11) 0.2198(7)
O5C O 0.5674(7) -0.3402(10) 0.3649(6)
O6C O 0.3398(7) -0.1682(10) 0.2079(7)
O7C O 0.4126(7) -0.1663(10) 0.1196(7)
O8C O 0.4244(7) -0.0404(10) 0.1957(7)
O9C O 0.4529(7) -0.2043(10) 0.2165(6)
O10C O 0.4861(7) -0.0295(11) 0.0943(7)
O11C O 0.5430(7) -0.0676(11) 0.1968(7)
O12C O 0.4542(8) -0.3649(11) 0.3965(7)
O13C O 0.5585(8) -0.4632(11) 0.2890(7)
O14C O 0.4412(7) -0.4913(10) 0.3197(7)
O15C O 0.3743(7) -0.1921(10) 0.3115(6)
O16C O 0.5300(9) -0.5082(13) 0.3993(7)
O17C O 0.3568(8) -0.2539(11) 0.4206(7)
O18C O 0.4629(7) -0.3281(10) 0.2935(6)
O19C O 0.3147(9) -0.2799(13) 0.1180(8)
O20C O 0.3326(8) -0.5085(12) 0.2617(7)
N1D N 0.5933(9) -0.0035(14) 0.5137(9)
N2D N 0.6793(9) 0.0193(15) 0.5605(10)
N3D N 1.0033(9) 0.3644(13) 0.5211(9)
N4D N 0.9825(9) 0.2228(13) 0.5237(9)
C1D C 0.8262(12) 0.0169(19) 0.5751(12)
H1D H 0.8187 -0.0395 0.5892
C2D C 0.8959(11) 0.1182(15) 0.5311(11)
C3D C 1.0117(12) 0.2446(17) 0.5720(10)
H2D H 1.0218 0.2059 0.6006
C4D C 0.9795(13) 0.2976(19) 0.4930(12)
H3D H 0.9632 0.3015 0.4575
C5D C 0.8837(12) 0.036(2) 0.5515(13)
H4D H 0.9134 -0.0076 0.5501
C6D C 0.6211(11) 0.0459(18) 0.5523(11)
H5D H 0.6028 0.0925 0.5712
C7D C 0.9567(14) 0.1388(17) 0.5052(13)
H6D H 0.9521 0.1404 0.4652
H7D H 0.9848 0.0913 0.5140
C8D C 0.7826(11) 0.079(2) 0.5773(11)
C9D C 1.0228(13) 0.3304(19) 0.5704(13)
H8D H 1.0412 0.3628 0.5985
C10D C 0.8509(13) 0.183(2) 0.5335(12)
H9D H 0.8585 0.2397 0.5195
C11D C 0.7950(12) 0.1637(18) 0.5567(12)
H10D H 0.7654 0.2075 0.5586
C12D C 0.7206(12) 0.057(2) 0.6018(12)
H11D H 0.7028 0.1112 0.6167
H12D H 0.7255 0.0157 0.6321
C13D C 0.6881(12) -0.053(2) 0.5245(15)
H13D H 0.7231 -0.0871 0.5206
C14D C 0.6359(14) -0.063(2) 0.4973(14)
H14D H 0.6294 -0.1061 0.4702
Co1B Co 0.0000 -0.5000 0.5000
Co1B_2 Co 1.0000 0.5000 0.5000
Co1C Co 0.5000 0.0000 0.0000
O10D O 0.4861(7) 0.0295(11) 0.5943(7)
N3B N 0.4967(9) -0.1356(13) 0.5211(9)
N3F N 0.5033(9) 0.1356(13) 0.4789(9)
N5 N 0.2520(10) 0.2345(14) 0.2771(8)
N6 N 0.3430(14) 0.224(2) 0.3074(13)
C15 C 0.277(2) 0.308(3) 0.2861(19)
C16 C 0.289(2) 0.165(3) 0.293(2)
C17 C 0.336(2) 0.301(3) 0.310(3)
C18 C 0.4594(18) 0.216(2) 0.2869(16)
C19 C 0.476(2) 0.311(2) 0.279(2)
C20 C 0.475(3) 0.137(2) 0.263(3)
C21 C 0.419(2) 0.246(5) 0.3363(19)
N5C N 0.7480(10) 0.2345(14) 0.2229(8)
N6C N 0.6570(14) 0.224(2) 0.1926(13)
C15C C 0.723(2) 0.308(3) 0.2139(19)
C16C C 0.711(2) 0.165(3) 0.207(2)
C17C C 0.664(2) 0.301(3) 0.190(3)
C18C C 0.5406(18) 0.216(2) 0.2131(16)
C19C C 0.524(2) 0.311(2) 0.221(2)
C20C C 0.525(3) 0.137(2) 0.237(3)
C21C C 0.581(2) 0.246(5) 0.1637(19)
O21 O -0.237(4) 0.514(6) -0.132(4)
O22 O -0.315(3) 0.505(5) -0.106(3)
O23 O -0.181(3) 0.417(4) -0.111(3)
C22? C 0.408(3) 0.185(5) 0.326(3)
loop_
_geom_bond_atom_site_label_1
_geom_bond_atom_site_label_2
_geom_bond_site_symmetry_1
_geom_bond_site_symmetry_2
Co1 O10 1_555 1_555
V1 O9 1_555 1_555
W1 O3 1_555 1_555
W2 O2 1_555 1_555
W3 O4 1_555 1_555
W4 O5 1_555 1_555
W5 O1 1_555 1_555
W6 O1 1_555 1_555
O3 W5C 1_555 1_555
O4 W6 1_555 1_555
O5 W3C 1_555 1_555
O6 W2 1_555 1_555
O7 W1 1_555 1_555
O8 W1 1_555 1_555
O9 W1 1_555 1_555
O10 W1 1_555 1_555
O11 W1 1_555 1_555
O12 W4 1_555 1_555
O13 W4 1_555 1_555
O14 W4 1_555 1_555
O15 W2 1_555 1_555
O16 W4 1_555 1_555
O17 W5 1_555 1_555
O18 V1 1_555 1_555
O19 W3 1_555 1_555
O20 W6 1_555 1_555
N1 Co1 1_555 1_555
N2 C6 1_555 1_555
N3 C4 1_555 1_555
N4 C3 1_555 1_555
C1 H1 1_555 1_555
C2 C5 1_555 1_555
C3 H2 1_555 1_555
C4 N4 1_555 1_555
H3 C4 1_555 1_555
C5 C1 1_555 1_555
H4 C5 1_555 1_555
C6 N1 1_555 1_555
H5 C6 1_555 1_555
C7 N4 1_555 1_555
H6 C7 1_555 1_555
H7 C7 1_555 1_555
C8 C1 1_555 1_555
C9 N3 1_555 1_555
H8 C9 1_555 1_555
C10 C2 1_555 1_555
H9 C10 1_555 1_555
C11 C8 1_555 1_555
H10 C11 1_555 1_555
C12 N2 1_555 1_555
H11 C12 1_555 1_555
H12 C12 1_555 1_555
C13 N2 1_555 1_555
H13 C13 1_555 1_555
C14 N1 1_555 1_555
H14 C14 1_555 1_555
N5 C15 1_555 1_555
N6 C16 1_555 1_555
C15 C17 1_555 1_555
C16 N5 1_555 1_555
C17 N6 1_555 1_555
C18 C19 1_555 1_555
C19 C19C 1_555 1_555
C20 C18 1_555 1_555
C21 N6 1_555 1_555
W1C O3C 1_555 1_555
W2C O11 1_555 1_555
W3C O4C 1_555 1_555
W4C O5C 1_555 1_555
W5C O1C 1_555 1_555
W6C O13 1_555 1_555
O1C W6C 1_555 1_555
O2C W2C 1_555 1_555
O3C W5 1_555 1_555
O4C W6C 1_555 1_555
O5C W3 1_555 1_555
O6C W2C 1_555 1_555
O7C W1C 1_555 1_555
O8C W1C 1_555 1_555
O9C V1 1_555 1_555
O10C W1C 1_555 1_555
O11C W2 1_555 1_555
O12C W4C 1_555 1_555
O13C W6 1_555 1_555
O14C W4C 1_555 1_555
O15C W2C 1_555 1_555
O16C W4C 1_555 1_555
O17C W5C 1_555 1_555
O18C V1 1_555 1_555
O19C W3C 1_555 1_555
O20C W6C 1_555 1_555
N1D Co1 1_555 1_555
N2D C6D 1_555 1_555
N3D C4D 1_555 1_555
N4D C3D 1_555 1_555
C1D H1D 1_555 1_555
C2D C5D 1_555 1_555
C3D H2D 1_555 1_555
C4D N4D 1_555 1_555
H3D C4D 1_555 1_555
C5D C1D 1_555 1_555
H4D C5D 1_555 1_555
C6D N1D 1_555 1_555
H5D C6D 1_555 1_555
C7D N4D 1_555 1_555
H6D C7D 1_555 1_555
H7D C7D 1_555 1_555
C8D C1D 1_555 1_555
C9D N3D 1_555 1_555
H8D C9D 1_555 1_555
C10D C2D 1_555 1_555
H9D C10D 1_555 1_555
C11D C8D 1_555 1_555
H10D C11D 1_555 1_555
C12D N2D 1_555 1_555
H11D C12D 1_555 1_555
H12D C12D 1_555 1_555
C13D N2D 1_555 1_555
H13D C13D 1_555 1_555
C14D N1D 1_555 1_555
H14D C14D 1_555 1_555
Co1B N3 1_555 1_555
Co1B_2 N3D 1_555 1_555
Co1C O10C 1_555 1_555
O10D Co1 1_555 1_555
N3B Co1 1_555 1_555
N3F Co1 1_555 1_555
N5C C15C 1_555 1_555
N6C C16C 1_555 1_555
C15C C17C 1_555 1_555
C16C N5C 1_555 1_555
C17C N6C 1_555 1_555
C18C C19C 1_555 1_555
C20C C20 1_555 1_555
C21C N6C 1_555 1_555
W2 O8 1_555 1_555
W2 O9 1_555 1_555
W3 O6 1_555 1_555
W3 O7 1_555 1_555
W3 O9 1_555 1_555
W4 O18 1_555 1_555
W5 O12 1_555 1_555
W5 O15 1_555 1_555
W5 O18 1_555 1_555
W6 O14 1_555 1_555
W6 O18 1_555 1_555
C2 C7 1_555 1_555
C3 C9 1_555 1_555
C8 C12 1_555 1_555
C10 C11 1_555 1_555
C13 C14 1_555 1_555
C18 C21 1_555 1_555
W1C O9C 1_555 1_555
W1C O11C 1_555 1_555
W2C O8C 1_555 1_555
W2C O9C 1_555 1_555
W3C O6C 1_555 1_555
W3C O7C 1_555 1_555
W3C O9C 1_555 1_555
W4C O13C 1_555 1_555
W4C O18C 1_555 1_555
W5C O12C 1_555 1_555
W5C O15C 1_555 1_555
W5C O18C 1_555 1_555
W6C O14C 1_555 1_555
W6C O18C 1_555 1_555
C2D C7D 1_555 1_555
C3D C9D 1_555 1_555
C8D C12D 1_555 1_555
C10D C11D 1_555 1_555
C13D C14D 1_555 1_555
C18C C20C 1_555 1_555
C18C C21C 1_555 1_555

#END
