
#######################################################################
#
#                 Cambridge Crystallographic Data Centre
#                                CCDC 
#
#######################################################################
#
# If this CIF has been generated from an entry in the Cambridge 
# Structural Database, then it will include bibliographic, chemical, 
# crystal, experimental, refinement or atomic coordinate data resulting 
# from the CCDC's data processing and validation procedures.
#
#######################################################################

data_NILHEW
_symmetry_cell_setting           triclinic
_symmetry_space_group_name_H-M   'P -1'
_symmetry_Int_Tables_number      2
_space_group_name_Hall           '-P 1'
loop_
_symmetry_equiv_pos_site_id
_symmetry_equiv_pos_as_xyz
1 x,y,z
2 -x,-y,-z
_cell_length_a                   10.6942(11)
_cell_length_b                   11.0809(11)
_cell_length_c                   36.563(4)
_cell_angle_alpha                83.401(6)
_cell_angle_beta                 88.734(7)
_cell_angle_gamma                80.383(7)
_cell_volume                     4243.55
loop_
_atom_site_label
_atom_site_type_symbol
_atom_site_fract_x
_atom_site_fract_y
_atom_site_fract_z
Cu1 Cu -0.19438(11) 1.16386(12) 0.37136(4)
Cu2 Cu -0.45918(12) 1.39533(11) 0.38523(3)
Cu3 Cu -0.42686(13) 1.08470(13) 0.43433(4)
Cu4 Cu 0.90681(15) 0.91345(14) 0.05169(4)
Cu5 Cu 0.97806(12) 0.64299(11) 0.10362(4)
Cu6 Cu 0.69665(11) 0.86246(12) 0.11843(3)
S1 S -0.3013(3) 1.0105(2) 0.38930(8)
S2 S -0.3289(2) 1.3190(2) 0.34161(7)
S3 S -0.5665(2) 1.2474(3) 0.40880(7)
S4 S -0.2966(3) 1.1000(3) 0.48358(9)
S5 S -0.6764(3) 1.6734(3) 0.28936(9)
S6 S 0.7894(3) 1.0170(2) 0.09237(8)
S7 S 1.0754(3) 0.7961(3) 0.07911(8)
S8 S 0.8436(2) 0.7162(2) 0.14678(7)
S9 S 1.1580(5) 0.3244(4) 0.19067(14)
S10 S 0.6980(8) 0.8162(9) -0.0501(2)
N1 N -0.0813(8) 1.2198(8) 0.4083(2)
N2 N 0.4021(8) 1.5093(8) 0.5763(2)
N3 N -0.4594(9) 1.0362(9) 0.5418(3)
N4 N -0.5692(9) 1.5414(9) 0.3538(3)
N5 N -0.0670(7) 1.1069(8) 0.3304(2)
N6 N 0.5796(8) 0.9226(8) 0.1625(2)
N7 N 0.5690(8) 0.8118(8) 0.0867(2)
N8 N 0.0918(9) 0.4382(9) -0.0641(3)
N9 N 1.0992(12) 0.4958(9) 0.1296(3)
N10 N 0.833(2) 0.899(2) 0.0042(6)
C1 C -0.3919(11) 1.0610(10) 0.5176(3)
C2 C -0.6109(10) 1.5976(10) 0.3265(3)
C3 C -0.0932(13) 1.3415(12) 0.4114(4)
H1 H -0.1493 1.3979 0.3953
C4 C -0.0261(13) 1.3864(11) 0.4372(4)
H2 H -0.0419 1.4723 0.4394
C5 C 0.0617(11) 1.3120(11) 0.4596(3)
C6 C 0.0743(14) 1.1879(12) 0.4551(5)
H3 H 0.1337 1.1294 0.4696
C7 C 0.0004(14) 1.1489(11) 0.4295(4)
H4 H 0.0113 1.0630 0.4275
C8 C 0.1291(11) 1.3636(11) 0.4880(3)
H5 H 0.0801 1.3571 0.5112
H6 H 0.1267 1.4524 0.4800
C9 C 0.2653(12) 1.3070(13) 0.4965(3)
H7 H 0.2697 1.2191 0.5061
H8 H 0.3164 1.3113 0.4736
C10 C 0.3192(10) 1.3729(11) 0.5244(3)
C11 C 0.3363(13) 1.4924(13) 0.5157(3)
H9 H 0.3188 1.5318 0.4914
C12 C 0.3791(12) 1.5568(11) 0.5422(3)
H10 H 0.3922 1.6390 0.5351
C13 C 0.3859(14) 1.3911(12) 0.5848(4)
H11 H 0.4040 1.3538 0.6093
C14 C 0.3446(15) 1.3216(11) 0.5602(4)
H12 H 0.3336 1.2391 0.5678
C15 C -0.6382(11) 1.1987(13) 0.3279(3)
C16 C -0.5387(11) 1.2087(10) 0.3025(3)
C17 C -0.4568(11) 1.0965(13) 0.3050(3)
C18 C -0.5095(17) 1.0157(11) 0.3311(4)
C19 C -0.6191(16) 1.0819(17) 0.3453(4)
C20 C -0.5296(17) 1.3191(14) 0.2752(4)
H13 H -0.4402 1.3220 0.2692
H14 H -0.5670 1.3942 0.2859
H15 H -0.5754 1.3132 0.2528
C21 C -0.769(2) 1.268(4) 0.3401(11)
H16 H -0.8338 1.2637 0.3221
H17 H -0.7627 1.3548 0.3417
H18 H -0.7922 1.2300 0.3643
C22 C -0.337(3) 1.098(4) 0.2766(11)
H19 H -0.3673 1.1008 0.2514
H20 H -0.2744 1.0242 0.2826
H21 H -0.2989 1.1715 0.2788
C23 C -0.431(3) 0.884(2) 0.3307(12)
H22 H -0.4009 0.8521 0.3556
H23 H -0.3585 0.8873 0.3140
H24 H -0.4851 0.8293 0.3222
C24 C -0.730(2) 1.057(2) 0.3750(6)
H25 H -0.7442 1.1229 0.3912
H26 H -0.7048 0.9776 0.3899
H27 H -0.8091 1.0559 0.3620
C29 C -0.0462(11) 1.1857(10) 0.3006(3)
H40 H -0.0889 1.2684 0.2996
C30 C 0.0318(10) 1.1544(10) 0.2720(3)
H41 H 0.0420 1.2143 0.2519
C31 C 0.0953(9) 1.0366(10) 0.2724(3)
C32 C 0.0749(10) 0.9515(10) 0.3019(3)
H42 H 0.1151 0.8680 0.3029
C33 C -0.0052(10) 0.9911(10) 0.3298(3)
H43 H -0.0175 0.9324 0.3501
C34 C 0.1862(9) 1.0001(10) 0.2418(3)
H44 H 0.1525 1.0440 0.2180
H45 H 0.1936 0.9105 0.2403
C35 C 0.3182(10) 1.0315(11) 0.2484(3)
H46 H 0.3108 1.1213 0.2496
H47 H 0.3511 0.9886 0.2724
C36 C 0.4115(9) 0.9935(11) 0.2180(3)
C37 C 0.4382(11) 1.0768(11) 0.1891(3)
H48 H 0.3997 1.1608 0.1879
C38 C 0.5202(10) 1.0374(10) 0.1623(3)
H49 H 0.5357 1.0958 0.1423
C39 C 0.5572(11) 0.8429(11) 0.1909(3)
H50 H 0.6007 0.7605 0.1920
C40 C 0.4731(10) 0.8742(10) 0.2191(3)
H51 H 0.4587 0.8143 0.2388
C41 C 1.1173(11) 0.4257(12) 0.1554(4)
C42 C 0.7824(15) 0.8819(15) -0.0194(4)
C43 C 0.5267(11) 0.7068(12) 0.0944(4)
H52 H 0.5550 0.6562 0.1164
C44 C 0.4423(14) 0.6663(12) 0.0719(5)
H53 H 0.4096 0.5928 0.0796
C45 C 0.4068(12) 0.7324(13) 0.0388(4)
C46 C 0.4458(11) 0.8421(13) 0.0311(4)
H54 H 0.4172 0.8939 0.0093
C47 C 0.5279(11) 0.8799(12) 0.0549(3)
H55 H 0.5561 0.9565 0.0486
C48 C 0.3231(15) 0.6875(14) 0.0112(5)
H56 H 0.2550 0.7566 0.0028
H57 H 0.3755 0.6666 -0.0105
C49 C 0.2645(16) 0.5817(18) 0.0249(5)
H58 H 0.2011 0.6045 0.0441
H59 H 0.3298 0.5142 0.0360
C50 C 0.1994(13) 0.5380(19) -0.0073(5)
C51 C 0.2501(13) 0.4269(15) -0.0170(4)
H60 H 0.3237 0.3811 -0.0049
C52 C 0.1935(11) 0.3792(14) -0.0450(4)
H61 H 0.2298 0.2995 -0.0509
C53 C 0.0406(13) 0.5507(12) -0.0544(4)
H62 H -0.0322 0.5962 -0.0670
C54 C 0.0940(15) 0.6005(16) -0.0262(5)
H63 H 0.0565 0.6794 -0.0199
C55 C 1.0370(11) 1.0363(12) 0.1411(4)
C56 C 0.9426(11) 1.0150(11) 0.1674(3)
C57 C 0.9765(12) 0.8932(11) 0.1867(3)
C58 C 1.0944(12) 0.8429(11) 0.1710(4)
C59 C 1.1310(10) 0.9304(12) 0.1440(4)
C60 C 1.0375(15) 1.1540(13) 0.1169(5)
H64 H 1.0691 1.2134 0.1307
H65 H 0.9511 1.1876 0.1084
H66 H 1.0927 1.1386 0.0956
C61 C 0.8294(12) 1.1094(11) 0.1770(4)
H67 H 0.8587 1.1708 0.1906
H68 H 0.7696 1.0677 0.1924
H69 H 0.7871 1.1504 0.1544
C62 C 0.9107(15) 0.8392(13) 0.2190(3)
H70 H 0.9254 0.7493 0.2196
H71 H 0.8195 0.8704 0.2171
H72 H 0.9437 0.8619 0.2415
C63 C 1.1673(16) 0.7187(14) 0.1840(5)
H73 H 1.2070 0.6801 0.1629
H74 H 1.1096 0.6671 0.1964
H75 H 1.2331 0.7277 0.2013
C64 C 1.2567(13) 0.9208(16) 0.1246(5)
H76 H 1.3126 0.9651 0.1369
H77 H 1.2443 0.9571 0.0990
H78 H 1.2954 0.8339 0.1253
Mo1 Mo -0.44429(8) 1.17064(8) 0.36226(2)
Mo2 Mo 0.94385(8) 0.87376(8) 0.12342(2)
Cu2A Cu 0.45918(12) 1.60467(11) 0.61477(3)
Cu3A Cu -0.57314(13) 0.91530(13) 0.56567(4)
Cu5A Cu 0.02194(12) 0.35701(11) -0.10362(4)
N2A N -0.4021(8) 1.4907(8) 0.4237(2)
N3A N -0.5406(9) 0.9638(9) 0.4582(3)
N8A N 0.9082(9) 0.5618(9) 0.0641(3)
N12 N 0.1009(17) 0.4944(16) 0.2626(5)
C65 C -0.032(2) 0.535(2) 0.2709(8)
C66 C -0.053(2) 0.616(3) 0.2992(7)
H79 H 0.0142 0.6421 0.3108
C67 C -0.1755(19) 0.652(3) 0.3082(6)
H80 H -0.1959 0.7046 0.3271
C68 C -0.270(2) 0.615(2) 0.2902(8)
H81 H -0.3554 0.6416 0.2973
C69 C -0.250(3) 0.540(2) 0.2623(9)
H82 H -0.3186 0.5156 0.2503
C70 C -0.1247(19) 0.5009(18) 0.2526(8)
H83 H -0.1051 0.4506 0.2332
N13 N 1.316(2) 0.6791(15) 0.4298(5)
C71 C 1.1977(9) 0.7004(9) 0.4225(3)
C72 C 1.1501(9) 0.6349(9) 0.3973(3)
H84 H 1.2057 0.5749 0.3856
C73 C 1.0213(8) 0.6572(7) 0.3894(2)
H85 H 0.9888 0.6124 0.3721
C74 C 0.9400(9) 0.7449(9) 0.4066(2)
H86 H 0.8519 0.7601 0.4011
C75 C 0.9875(9) 0.8104(10) 0.4318(3)
H87 H 0.9320 0.8704 0.4436
C76 C 1.1164(9) 0.7881(8) 0.4398(2)
H88 H 1.1489 0.8329 0.4570
N14 N 0.4368(17) 0.336(2) 0.1099(4)
C77 C 0.5164(13) 0.3792(19) 0.1300(5)
C78 C 0.4740(13) 0.4280(18) 0.1623(5)
H89 H 0.3881 0.4300 0.1698
C79 C 0.5572(16) 0.4738(17) 0.1836(4)
H90 H 0.5282 0.5072 0.2057
C80 C 0.6829(15) 0.4708(16) 0.1727(5)
H91 H 0.7398 0.5022 0.1873
C81 C 0.7254(12) 0.4220(17) 0.1404(5)
H92 H 0.8113 0.4199 0.1330
C82 C 0.6421(14) 0.3762(19) 0.1191(4)
H93 H 0.6711 0.3428 0.0970
S11? S 0.9234(8) 0.9382(8) -0.00880(19)
N11? N 0.689(2) 0.865(3) -0.0324(7)
C25? C -0.7393(19) 1.3179(18) 0.3304(6)
H28? H -0.8161 1.3112 0.3171
H29? H -0.7046 1.3901 0.3193
H30? H -0.7603 1.3268 0.3562
C26? C -0.349(2) 1.041(3) 0.2854(8)
H31? H -0.3778 1.0036 0.2649
H32? H -0.2969 0.9781 0.3021
H33? H -0.2991 1.1046 0.2759
C27? C -0.493(2) 0.8780(16) 0.3466(6)
H34? H -0.5101 0.8712 0.3732
H35? H -0.4066 0.8378 0.3421
H36? H -0.5534 0.8379 0.3345
C28? C -0.674(4) 0.985(4) 0.3718(11)
H37? H -0.7137 1.0243 0.3929
H38? H -0.6059 0.9184 0.3804
H39? H -0.7379 0.9524 0.3589
N15? N 0.537(5) 0.238(10) 0.066(3)
C83? C 0.545(2) 0.314(3) 0.0888(7)
C84? C 0.444(2) 0.342(3) 0.1127(8)
H94? H 0.3638 0.3203 0.1082
C85? C 0.460(2) 0.402(3) 0.1431(7)
H95? H 0.3916 0.4216 0.1595
C86? C 0.578(2) 0.434(3) 0.1496(6)
H96? H 0.5890 0.4751 0.1704
C87? C 0.6783(19) 0.406(3) 0.1257(7)
H97? H 0.7585 0.4275 0.1301
C88? C 0.662(2) 0.346(2) 0.0953(6)
H98? H 0.7306 0.3262 0.0789
loop_
_geom_bond_atom_site_label_1
_geom_bond_atom_site_label_2
_geom_bond_site_symmetry_1
_geom_bond_site_symmetry_2
Cu1 S1 1_555 1_555
Cu2 S2 1_555 1_555
Cu3 S1 1_555 1_555
Cu4 S6 1_555 1_555
Cu5 S7 1_555 1_555
Cu6 S6 1_555 1_555
S1 Mo1 1_555 1_555
S2 Cu1 1_555 1_555
S3 Cu2 1_555 1_555
S4 Cu3 1_555 1_555
S5 C2 1_555 1_555
S6 Mo2 1_555 1_555
S7 Cu4 1_555 1_555
S8 Cu5 1_555 1_555
S9 C41 1_555 1_555
S10 C42 1_555 1_555
N1 Cu1 1_555 1_555
N2 C12 1_555 1_555
N3 C1 1_555 1_555
N4 Cu2 1_555 1_555
N5 Cu1 1_555 1_555
N6 Cu6 1_555 1_555
N7 Cu6 1_555 1_555
N8 C52 1_555 1_555
N9 Cu5 1_555 1_555
N10 Cu4 1_555 1_555
N12 C65 1_555 1_555
N13 C71 1_555 1_555
C1 S4 1_555 1_555
C2 N4 1_555 1_555
C3 N1 1_555 1_555
H1 C3 1_555 1_555
C4 C3 1_555 1_555
H2 C4 1_555 1_555
C5 C4 1_555 1_555
C6 C5 1_555 1_555
H3 C6 1_555 1_555
C7 N1 1_555 1_555
H4 C7 1_555 1_555
C8 C5 1_555 1_555
H5 C8 1_555 1_555
H6 C8 1_555 1_555
C9 C8 1_555 1_555
H7 C9 1_555 1_555
H8 C9 1_555 1_555
C10 C9 1_555 1_555
C11 C10 1_555 1_555
H9 C11 1_555 1_555
C12 C11 1_555 1_555
H10 C12 1_555 1_555
C13 N2 1_555 1_555
H11 C13 1_555 1_555
C14 C10 1_555 1_555
H12 C14 1_555 1_555
C15 C16 1_555 1_555
C16 C17 1_555 1_555
C17 C18 1_555 1_555
C18 C19 1_555 1_555
C19 C15 1_555 1_555
C20 C16 1_555 1_555
H13 C20 1_555 1_555
H14 C20 1_555 1_555
H15 C20 1_555 1_555
C21 C15 1_555 1_555
H16 C21 1_555 1_555
H17 C21 1_555 1_555
H18 C21 1_555 1_555
C22 C17 1_555 1_555
H19 C22 1_555 1_555
H20 C22 1_555 1_555
H21 C22 1_555 1_555
C23 C18 1_555 1_555
H22 C23 1_555 1_555
H23 C23 1_555 1_555
H24 C23 1_555 1_555
C24 C19 1_555 1_555
H25 C24 1_555 1_555
H26 C24 1_555 1_555
H27 C24 1_555 1_555
C29 N5 1_555 1_555
H40 C29 1_555 1_555
C30 C29 1_555 1_555
H41 C30 1_555 1_555
C31 C30 1_555 1_555
C32 C31 1_555 1_555
H42 C32 1_555 1_555
C33 N5 1_555 1_555
H43 C33 1_555 1_555
C34 C31 1_555 1_555
H44 C34 1_555 1_555
H45 C34 1_555 1_555
C35 C34 1_555 1_555
H46 C35 1_555 1_555
H47 C35 1_555 1_555
C36 C35 1_555 1_555
C37 C36 1_555 1_555
H48 C37 1_555 1_555
C38 N6 1_555 1_555
H49 C38 1_555 1_555
C39 N6 1_555 1_555
H50 C39 1_555 1_555
C40 C36 1_555 1_555
H51 C40 1_555 1_555
C41 N9 1_555 1_555
C42 N10 1_555 1_555
C43 N7 1_555 1_555
H52 C43 1_555 1_555
C44 C43 1_555 1_555
H53 C44 1_555 1_555
C45 C44 1_555 1_555
C46 C45 1_555 1_555
H54 C46 1_555 1_555
C47 N7 1_555 1_555
H55 C47 1_555 1_555
C48 C45 1_555 1_555
H56 C48 1_555 1_555
H57 C48 1_555 1_555
C49 C48 1_555 1_555
H58 C49 1_555 1_555
H59 C49 1_555 1_555
C50 C49 1_555 1_555
C51 C50 1_555 1_555
H60 C51 1_555 1_555
C52 C51 1_555 1_555
H61 C52 1_555 1_555
C53 N8 1_555 1_555
H62 C53 1_555 1_555
C54 C50 1_555 1_555
H63 C54 1_555 1_555
C55 C56 1_555 1_555
C56 C57 1_555 1_555
C57 C58 1_555 1_555
C58 C59 1_555 1_555
C59 C55 1_555 1_555
C60 C55 1_555 1_555
H64 C60 1_555 1_555
H65 C60 1_555 1_555
H66 C60 1_555 1_555
C61 C56 1_555 1_555
H67 C61 1_555 1_555
H68 C61 1_555 1_555
H69 C61 1_555 1_555
C62 C57 1_555 1_555
H70 C62 1_555 1_555
H71 C62 1_555 1_555
H72 C62 1_555 1_555
C63 C58 1_555 1_555
H73 C63 1_555 1_555
H74 C63 1_555 1_555
H75 C63 1_555 1_555
C64 C59 1_555 1_555
H76 C64 1_555 1_555
H77 C64 1_555 1_555
H78 C64 1_555 1_555
C65 C66 1_555 1_555
C66 H79 1_555 1_555
C67 C66 1_555 1_555
H80 C67 1_555 1_555
C68 C67 1_555 1_555
H81 C68 1_555 1_555
C69 C68 1_555 1_555
H82 C69 1_555 1_555
C70 C65 1_555 1_555
H83 C70 1_555 1_555
C71 C72 1_555 1_555
C72 H84 1_555 1_555
C73 C72 1_555 1_555
H85 C73 1_555 1_555
C74 C73 1_555 1_555
H86 C74 1_555 1_555
C75 C74 1_555 1_555
H87 C75 1_555 1_555
C76 C71 1_555 1_555
H88 C76 1_555 1_555
N14 C77 1_555 1_555
C77 C78 1_555 1_555
C78 H89 1_555 1_555
C79 C78 1_555 1_555
H90 C79 1_555 1_555
C80 C79 1_555 1_555
H91 C80 1_555 1_555
C81 C80 1_555 1_555
H92 C81 1_555 1_555
C82 C77 1_555 1_555
H93 C82 1_555 1_555
Mo1 S2 1_555 1_555
Mo2 Cu4 1_555 1_555
Cu2A N2 1_555 1_555
Cu3A N3 1_555 1_555
Cu5A N8 1_555 1_555
N2A Cu2 1_555 1_555
N3A Cu3 1_555 1_555
N8A Cu5 1_555 1_555
Cu3 S3 1_555 1_555
Cu6 S8 1_555 1_555
Cu6 Mo2 1_555 1_555
S3 Mo1 1_555 1_555
S7 Mo2 1_555 1_555
S8 Mo2 1_555 1_555
C6 C7 1_555 1_555
C13 C14 1_555 1_555
C15 Mo1 1_555 1_555
C16 Mo1 1_555 1_555
C17 Mo1 1_555 1_555
C18 Mo1 1_555 1_555
C19 Mo1 1_555 1_555
C32 C33 1_555 1_555
C37 C38 1_555 1_555
C39 C40 1_555 1_555
C46 C47 1_555 1_555
C53 C54 1_555 1_555
C55 Mo2 1_555 1_555
C56 Mo2 1_555 1_555
C57 Mo2 1_555 1_555
C58 Mo2 1_555 1_555
C59 Mo2 1_555 1_555
C69 C70 1_555 1_555
C75 C76 1_555 1_555
C81 C82 1_555 1_555

#END
