
#######################################################################
#
#                 Cambridge Crystallographic Data Centre
#                                CCDC 
#
#######################################################################
#
# If this CIF has been generated from an entry in the Cambridge 
# Structural Database, then it will include bibliographic, chemical, 
# crystal, experimental, refinement or atomic coordinate data resulting 
# from the CCDC's data processing and validation procedures.
#
#######################################################################

data_NILKUQ
_symmetry_cell_setting           orthorhombic
_symmetry_space_group_name_H-M   'C 2 2 21'
_symmetry_Int_Tables_number      20
_space_group_name_Hall           'C 2n 2'
loop_
_symmetry_equiv_pos_site_id
_symmetry_equiv_pos_as_xyz
1 x,y,z
2 -x,-y,1/2+z
3 x,-y,-z
4 -x,y,1/2-z
5 1/2+x,1/2+y,z
6 1/2-x,1/2-y,1/2+z
7 1/2+x,1/2-y,-z
8 1/2-x,1/2+y,1/2-z
_cell_length_a                   10.408(2)
_cell_length_b                   25.175(3)
_cell_length_c                   10.745(2)
_cell_angle_alpha                90
_cell_angle_beta                 90
_cell_angle_gamma                90
_cell_volume                     2815.42
loop_
_atom_site_label
_atom_site_type_symbol
_atom_site_fract_x
_atom_site_fract_y
_atom_site_fract_z
Li1 Li 0.0000 -0.0203(4) -0.2500
O1 O 0.1461(3) 0.06811(12) 0.2400(3)
O2 O 0.0578(3) 0.02660(13) -0.1217(3)
N1 N 0.1021(3) 0.09761(13) 0.0010(4)
N2 N 0.3427(3) 0.0384(2) 0.2018(4)
H1 H 0.3519 0.0268 0.2766
H2 H 0.4038 0.0347 0.1487
C1 C 0.2362(3) 0.06163(18) 0.1691(4)
C2 C 0.2303(4) 0.08140(18) 0.0327(4)
C3 C 0.0246(4) 0.0681(2) -0.0701(4)
C4 C -0.1050(5) 0.0938(2) -0.0725(6)
C5 C -0.0842(6) 0.1497(2) -0.0239(6)
C6 C 0.0397(6) 0.1447(2) 0.0500(6)
C7 C -0.1738(7) 0.1795(4) 0.0620(8)
C8 C -0.3021(7) 0.1906(4) 0.0018(10)
C9 C -0.3983(9) 0.2116(5) 0.0948(14)
C10 C 0.3312(5) 0.1238(2) 0.0067(7)
C11 C 0.3362(8) 0.1389(3) -0.1308(7)
O1B O 0.1461(3) -0.06811(12) -0.2400(3)
O2B O 0.0578(3) -0.02660(13) 0.1217(3)
N1B N 0.1021(3) -0.09761(13) -0.0010(4)
N2B N 0.3427(3) -0.0384(2) -0.2018(4)
H1B H 0.3519 -0.0268 -0.2766
H2B H 0.4038 -0.0347 -0.1487
C1B C 0.2362(3) -0.06163(18) -0.1691(4)
C2B C 0.2303(4) -0.08140(18) -0.0327(4)
C3B C 0.0246(4) -0.0681(2) 0.0701(4)
C4B C -0.1050(5) -0.0938(2) 0.0725(6)
C5B C -0.0842(6) -0.1497(2) 0.0239(6)
C6B C 0.0397(6) -0.1447(2) -0.0500(6)
C7B C -0.1738(7) -0.1795(4) -0.0620(8)
C8B C -0.3021(7) -0.1906(4) -0.0018(10)
C9B C -0.3983(9) -0.2116(5) -0.0948(14)
C10B C 0.3312(5) -0.1238(2) -0.0067(7)
C11B C 0.3362(8) -0.1389(3) 0.1308(7)
Li1A Li 0.0000 0.0203(4) 0.2500
O1A O -0.1461(3) -0.06811(12) -0.2600(3)
O2C O -0.0578(3) 0.02660(13) -0.3783(3)
Br1 Br 0.57786(6) 0.0000 0.0000
loop_
_geom_bond_atom_site_label_1
_geom_bond_atom_site_label_2
_geom_bond_site_symmetry_1
_geom_bond_site_symmetry_2
Li1 O2 1_555 1_555
O1 C1 1_555 1_555
O2 C3 1_555 1_555
N1 C2 1_555 1_555
N2 H1 1_555 1_555
H2 N2 1_555 1_555
C1 N2 1_555 1_555
C2 C1 1_555 1_555
C3 N1 1_555 1_555
C4 C3 1_555 1_555
C5 C4 1_555 1_555
C6 N1 1_555 1_555
C7 C5 1_555 1_555
C8 C7 1_555 1_555
C9 C8 1_555 1_555
C10 C2 1_555 1_555
C11 C10 1_555 1_555
O1B Li1 1_555 1_555
O2B C3B 1_555 1_555
N1B C2B 1_555 1_555
N2B H1B 1_555 1_555
H2B N2B 1_555 1_555
C1B O1B 1_555 1_555
C2B C1B 1_555 1_555
C3B N1B 1_555 1_555
C4B C3B 1_555 1_555
C5B C4B 1_555 1_555
C6B N1B 1_555 1_555
C7B C5B 1_555 1_555
C8B C7B 1_555 1_555
C9B C8B 1_555 1_555
C10B C2B 1_555 1_555
C11B C10B 1_555 1_555
Li1A O1 1_555 1_555
O1A Li1 1_555 1_555
O2C Li1 1_555 1_555
C5 C6 1_555 1_555
O2B Li1A 1_555 1_555
N2B C1B 1_555 1_555
C5B C6B 1_555 1_555

#END
