
#######################################################################
#
#                 Cambridge Crystallographic Data Centre
#                                CCDC 
#
#######################################################################
#
# If this CIF has been generated from an entry in the Cambridge 
# Structural Database, then it will include bibliographic, chemical, 
# crystal, experimental, refinement or atomic coordinate data resulting 
# from the CCDC's data processing and validation procedures.
#
#######################################################################

data_NILLUQ
_symmetry_cell_setting           triclinic
_symmetry_space_group_name_H-M   'P -1'
_symmetry_Int_Tables_number      2
_space_group_name_Hall           '-P 1'
loop_
_symmetry_equiv_pos_site_id
_symmetry_equiv_pos_as_xyz
1 x,y,z
2 -x,-y,-z
_cell_length_a                   8.2580(8)
_cell_length_b                   11.7840(9)
_cell_length_c                   13.4970(11)
_cell_angle_alpha                111.778(4)
_cell_angle_beta                 96.308(5)
_cell_angle_gamma                95.193(4)
_cell_volume                     1199.97
loop_
_atom_site_label
_atom_site_type_symbol
_atom_site_fract_x
_atom_site_fract_y
_atom_site_fract_z
Eu1 Eu 0.18271(5) 0.42141(3) 0.53121(3)
Na1 Na 0.2166(4) 0.0724(3) 0.4959(2)
S1 S -0.0717(2) 0.22737(17) 0.64898(15)
S2 S 0.4508(2) -0.06350(17) 0.65466(15)
F1 F -0.0564(7) 0.1726(5) 0.8195(4)
F2 F 0.1684(7) 0.2691(6) 0.8059(4)
F3 F -0.0345(7) 0.3669(5) 0.8556(4)
F4 F 0.5452(10) -0.0438(5) 0.8515(4)
F5 F 0.5872(7) 0.1258(5) 0.8294(4)
F6 F 0.3432(8) 0.0545(6) 0.8350(5)
O1 O 0.3901(7) 0.5447(5) 0.6610(4)
O2 O 0.3334(6) 0.2888(4) 0.5991(4)
O3 O -0.0177(6) 0.4171(4) 0.3883(4)
O4 O 0.0771(6) 0.2037(5) 0.4194(4)
O5 O 0.2876(6) 0.5887(4) 0.4759(4)
H1 H 0.2073 0.6098 0.4463
H2 H 0.3040 0.6599 0.5247
O6 O 0.3558(6) 0.3404(5) 0.3984(4)
H3 H 0.4334 0.3758 0.3804
H4 H 0.3645 0.2669 0.3897
O7 O 0.0084(7) 0.3325(5) 0.6323(4)
O8 O -0.0159(7) 0.1105(5) 0.5941(4)
O9 O -0.2450(7) 0.2245(6) 0.6434(5)
O10 O 0.3819(8) 0.0212(5) 0.6137(5)
O11 O 0.6131(7) -0.0869(5) 0.6320(5)
O12 O 0.3412(8) -0.1729(5) 0.6386(5)
C1 C 0.4733(9) 0.5437(7) 0.7502(6)
C2 C 0.5446(11) 0.6562(7) 0.8343(7)
H5 H 0.5280 0.7322 0.8282
C3 C 0.6388(12) 0.6562(8) 0.9260(7)
H6 H 0.6867 0.7328 0.9818
C4 C 0.6644(12) 0.5476(8) 0.9381(7)
H7 H 0.7286 0.5494 1.0017
C5 C 0.5967(11) 0.4378(7) 0.8580(7)
H8 H 0.6154 0.3632 0.8662
C6 C 0.4991(9) 0.4320(7) 0.7626(6)
C7 C 0.4334(9) 0.3121(7) 0.6832(6)
H9 H 0.4694 0.2435 0.6955
C8 C -0.0433(9) 0.3407(7) 0.2843(6)
C9 C -0.0909(10) 0.3843(7) 0.2039(6)
H10 H -0.1021 0.4691 0.2236
C10 C -0.1222(12) 0.3053(8) 0.0949(6)
H11 H -0.1528 0.3377 0.0419
C11 C -0.1097(11) 0.1811(8) 0.0625(6)
H12 H -0.1316 0.1282 -0.0118
C12 C -0.0648(11) 0.1360(7) 0.1401(6)
H13 H -0.0573 0.0505 0.1189
C13 C -0.0296(10) 0.2132(7) 0.2503(6)
C14 C 0.0168(10) 0.1554(7) 0.3237(6)
H14 H -0.0017 0.0677 0.2940
C15 C 0.0051(11) 0.2609(8) 0.7903(6)
C16 C 0.4826(12) 0.0221(8) 0.8004(7)
Eu1A Eu -0.18271(5) 0.57859(3) 0.46879(3)
Na1A Na -0.2166(4) -0.0724(3) 0.5041(2)
Na1A_2 Na 0.7834(4) -0.0724(3) 0.5041(2)
O3A O 0.0177(6) 0.5829(4) 0.6117(4)
O8A O 0.0159(7) -0.1105(5) 0.4059(4)
O11A O 0.3869(7) 0.0869(5) 0.3680(5)
loop_
_geom_bond_atom_site_label_1
_geom_bond_atom_site_label_2
_geom_bond_site_symmetry_1
_geom_bond_site_symmetry_2
Eu1 O1 1_555 1_555
Na1 O2 1_555 1_555
S1 O7 1_555 1_555
S2 O10 1_555 1_555
F1 C15 1_555 1_555
F2 C15 1_555 1_555
F3 C15 1_555 1_555
F4 C16 1_555 1_555
F5 C16 1_555 1_555
F6 C16 1_555 1_555
O1 C1 1_555 1_555
O2 Eu1 1_555 1_555
O3 Eu1 1_555 1_555
O4 Eu1 1_555 1_555
O5 Eu1 1_555 1_555
H1 O5 1_555 1_555
H2 O5 1_555 1_555
O6 Eu1 1_555 1_555
H3 O6 1_555 1_555
H4 O6 1_555 1_555
O7 Eu1 1_555 1_555
O8 Na1 1_555 1_555
O9 S1 1_555 1_555
O10 Na1 1_555 1_555
O11 S2 1_555 1_555
O12 S2 1_555 1_555
C1 C2 1_555 1_555
C2 H5 1_555 1_555
C3 C2 1_555 1_555
H6 C3 1_555 1_555
C4 C3 1_555 1_555
H7 C4 1_555 1_555
C5 C4 1_555 1_555
H8 C5 1_555 1_555
C6 C1 1_555 1_555
C7 O2 1_555 1_555
H9 C7 1_555 1_555
C8 O3 1_555 1_555
C9 C8 1_555 1_555
H10 C9 1_555 1_555
C10 C9 1_555 1_555
H11 C10 1_555 1_555
C11 C10 1_555 1_555
H12 C11 1_555 1_555
C12 C11 1_555 1_555
H13 C12 1_555 1_555
C13 C8 1_555 1_555
C14 O4 1_555 1_555
H14 C14 1_555 1_555
C15 S1 1_555 1_555
C16 S2 1_555 1_555
Eu1A O3 1_555 1_555
Na1A O8 1_555 1_555
Na1A_2 O11 1_555 1_555
O3A Eu1 1_555 1_555
O8A Na1 1_555 1_555
O11A Na1 1_555 1_555
Na1 O4 1_555 1_555
S1 O8 1_555 1_555
C5 C6 1_555 1_555
C6 C7 1_555 1_555
C12 C13 1_555 1_555
C13 C14 1_555 1_555
Eu1A O3A 1_555 1_555
Na1A O8A 1_555 1_555

#END
