
#######################################################################
#
#                 Cambridge Crystallographic Data Centre
#                                CCDC 
#
#######################################################################
#
# If this CIF has been generated from an entry in the Cambridge 
# Structural Database, then it will include bibliographic, chemical, 
# crystal, experimental, refinement or atomic coordinate data resulting 
# from the CCDC's data processing and validation procedures.
#
#######################################################################

data_NILLOK
_symmetry_cell_setting           triclinic
_symmetry_space_group_name_H-M   'P -1'
_symmetry_Int_Tables_number      2
_space_group_name_Hall           '-P 1'
loop_
_symmetry_equiv_pos_site_id
_symmetry_equiv_pos_as_xyz
1 x,y,z
2 -x,-y,-z
_cell_length_a                   8.3000(3)
_cell_length_b                   11.8270(5)
_cell_length_c                   13.5250(6)
_cell_angle_alpha                111.950(2)
_cell_angle_beta                 96.120(3)
_cell_angle_gamma                95.258(2)
_cell_volume                     1211.9
loop_
_atom_site_label
_atom_site_type_symbol
_atom_site_fract_x
_atom_site_fract_y
_atom_site_fract_z
Nd1 Nd 0.315472(19) 0.578012(14) 0.467501(12)
O1 O 0.5174(3) 0.5853(2) 0.61329(17)
O2 O 0.4236(3) 0.7979(2) 0.58189(17)
O3 O 0.1047(3) 0.4557(2) 0.33589(18)
O4 O 0.1625(3) 0.7115(2) 0.39843(18)
O5 O 0.2137(3) 0.4082(2) 0.52378(19)
H1 H 0.258(4) 0.410(3) 0.5832(12)
H2 H 0.196(5) 0.3362(10) 0.4765(17)
O6 O 0.1434(3) 0.6613(2) 0.60332(19)
H3 H 0.065(3) 0.621(2) 0.615(3)
H4 H 0.128(4) 0.7345(11) 0.617(3)
C1 C 0.5436(4) 0.6613(3) 0.7168(2)
C2 C 0.5898(5) 0.6182(3) 0.7974(3)
H5 H 0.5984 0.5332 0.7776
C3 C 0.6230(5) 0.6959(4) 0.9048(3)
H6 H 0.6533 0.6633 0.9573
C4 C 0.6131(5) 0.8215(3) 0.9380(3)
H7 H 0.6369 0.8746 1.0121
C5 C 0.5679(4) 0.8662(3) 0.8606(3)
H8 H 0.5614 0.9516 0.8819
C6 C 0.5306(4) 0.7886(3) 0.7499(3)
C7 C 0.4845(4) 0.8476(3) 0.6781(3)
H9 H 0.5030 0.9350 0.7079
C8 C 0.0217(4) 0.4568(3) 0.2473(3)
C9 C -0.0494(5) 0.3459(3) 0.1633(3)
H10 H -0.0341 0.2699 0.1693
C10 C -0.1414(5) 0.3454(4) 0.0720(3)
H11 H -0.1881 0.2691 0.0159
C11 C -0.1671(6) 0.4551(4) 0.0605(3)
H12 H -0.2312 0.4537 -0.0025
C12 C -0.0987(5) 0.5642(3) 0.1411(3)
H13 H -0.1163 0.6392 0.1339
C13 C -0.0022(4) 0.5679(3) 0.2352(3)
C14 C 0.0648(4) 0.6880(3) 0.3146(3)
H14 H 0.0310 0.7564 0.3017
S1 S 0.57161(9) 0.77349(7) 0.34984(6)
O7 O 0.4895(3) 0.6695(2) 0.36659(19)
O8 O 0.5155(3) 0.8894(2) 0.40561(19)
O9 O 0.7449(3) 0.7775(3) 0.3560(2)
F1 F 0.3332(3) 0.7337(3) 0.19356(18)
F2 F 0.5583(3) 0.8283(2) 0.18008(19)
F3 F 0.5332(3) 0.6342(2) 0.14348(17)
C15 C 0.4955(4) 0.7402(3) 0.2090(3)
C16 C 0.0164(5) 0.9790(3) 0.2006(3)
S2 S 0.05001(10) 1.06297(7) 0.34634(7)
O10 O 0.1169(3) 0.9781(2) 0.3862(2)
O11 O -0.1124(3) 1.0868(2) 0.3693(2)
O12 O 0.1599(3) 1.1721(2) 0.3623(2)
F4 F -0.0877(3) 0.8760(2) 0.17126(18)
F5 F 0.1560(4) 0.9460(3) 0.1660(2)
F6 F -0.0428(5) 1.0453(2) 0.1495(2)
Na1 Na 0.28328(15) 0.92757(12) 0.50383(10)
Nd1A Nd 0.684528(19) 0.421988(14) 0.532499(12)
O1A O 0.4826(3) 0.4147(2) 0.38671(17)
O8A O 0.4845(3) 1.1106(2) 0.59439(19)
O11A O 0.1124(3) 0.9132(2) 0.6307(2)
Na1A Na 0.71672(15) 1.07243(12) 0.49617(10)
Na1A_2 Na -0.28328(15) 1.07243(12) 0.49617(10)
loop_
_geom_bond_atom_site_label_1
_geom_bond_atom_site_label_2
_geom_bond_site_symmetry_1
_geom_bond_site_symmetry_2
Nd1 O1 1_555 1_555
O1 C1 1_555 1_555
O2 Nd1 1_555 1_555
O3 Nd1 1_555 1_555
O4 Nd1 1_555 1_555
O5 Nd1 1_555 1_555
H1 O5 1_555 1_555
H2 O5 1_555 1_555
O6 Nd1 1_555 1_555
H3 O6 1_555 1_555
H4 O6 1_555 1_555
C1 C2 1_555 1_555
C2 H5 1_555 1_555
C3 C2 1_555 1_555
H6 C3 1_555 1_555
C4 C3 1_555 1_555
H7 C4 1_555 1_555
C5 C4 1_555 1_555
H8 C5 1_555 1_555
C6 C1 1_555 1_555
C7 O2 1_555 1_555
H9 C7 1_555 1_555
C8 O3 1_555 1_555
C9 C8 1_555 1_555
H10 C9 1_555 1_555
C10 C9 1_555 1_555
H11 C10 1_555 1_555
C11 C10 1_555 1_555
H12 C11 1_555 1_555
C12 C11 1_555 1_555
H13 C12 1_555 1_555
C13 C8 1_555 1_555
C14 O4 1_555 1_555
H14 C14 1_555 1_555
S1 O7 1_555 1_555
O7 Nd1 1_555 1_555
O8 S1 1_555 1_555
O9 S1 1_555 1_555
F1 C15 1_555 1_555
F2 C15 1_555 1_555
F3 C15 1_555 1_555
C15 S1 1_555 1_555
C16 S2 1_555 1_555
S2 O10 1_555 1_555
O10 Na1 1_555 1_555
O11 S2 1_555 1_555
O12 S2 1_555 1_555
F4 C16 1_555 1_555
F5 C16 1_555 1_555
F6 C16 1_555 1_555
Na1 O2 1_555 1_555
Nd1A O1 1_555 1_555
O1A Nd1 1_555 1_555
O8A Na1 1_555 1_555
O11A Na1 1_555 1_555
Na1A O8 1_555 1_555
Na1A_2 O11 1_555 1_555
O4 Na1 1_555 1_555
C5 C6 1_555 1_555
C6 C7 1_555 1_555
C12 C13 1_555 1_555
C13 C14 1_555 1_555
O8 Na1 1_555 1_555
Nd1A O1A 1_555 1_555
O8A Na1A 1_555 1_555

#END
