
#######################################################################
#
#                 Cambridge Crystallographic Data Centre
#                                CCDC 
#
#######################################################################
#
# If this CIF has been generated from an entry in the Cambridge 
# Structural Database, then it will include bibliographic, chemical, 
# crystal, experimental, refinement or atomic coordinate data resulting 
# from the CCDC's data processing and validation procedures.
#
#######################################################################

data_NILMIG
_symmetry_cell_setting           triclinic
_symmetry_space_group_name_H-M   'P -1'
_symmetry_Int_Tables_number      2
_space_group_name_Hall           '-P 1'
loop_
_symmetry_equiv_pos_site_id
_symmetry_equiv_pos_as_xyz
1 x,y,z
2 -x,-y,-z
_cell_length_a                   6.3061(9)
_cell_length_b                   6.9947(10)
_cell_length_c                   7.9080(12)
_cell_angle_alpha                76.149(5)
_cell_angle_beta                 74.174(5)
_cell_angle_gamma                69.324(5)
_cell_volume                     309.986
loop_
_atom_site_label
_atom_site_type_symbol
_atom_site_fract_x
_atom_site_fract_y
_atom_site_fract_z
Mn1 Mn 1.0000 0.5000 1.0000
O1 O 1.1619(5) 0.6973(5) 1.0510(3)
H1 H 1.2438 0.6312 1.1294
H2 H 1.2499 0.7365 0.9552
O2 O 0.6627(4) 0.7274(4) 1.0669(3)
H3 H 0.5911 0.7556 0.9827
H4 H 0.5843 0.6787 1.1626
N1 N 1.0342(4) 0.6502(4) 0.7050(3)
N2 N 0.8988(5) 0.8147(5) 0.4708(4)
N3 N 1.1230(5) 0.7270(4) 0.4115(4)
C1 C 1.2025(5) 0.6270(5) 0.5582(4)
C2 C 0.8449(5) 0.7699(5) 0.6450(4)
H5 H 0.6977 0.8149 0.7151
N4 N 1.4296(5) 0.5065(4) 0.5734(4)
N1A N 1.9658(4) 0.3498(4) 0.2950(3)
N2A N 2.1012(5) 0.1853(5) 0.5292(4)
N3A N 1.8770(5) 0.2730(4) 0.5885(4)
C1A C 1.7975(5) 0.3730(5) 0.4418(4)
C2A C 2.1551(5) 0.2301(5) 0.3550(4)
H5A H 2.3023 0.1851 0.2849
N4A N 1.5704(5) 0.4935(4) 0.4266(4)
O1A O 0.8381(5) 0.3027(5) 0.9490(3)
H1A H 0.7562 0.3688 0.8706
H2A H 0.7501 0.2635 1.0448
O2A O 1.3373(4) 0.2726(4) 0.9331(3)
H3A H 1.4089 0.2444 1.0173
H4A H 1.4157 0.3213 0.8374
Mn1_2 Mn 2.0000 0.5000 0.0000
N1A_2 N 0.9658(4) 0.3498(4) 1.2950(3)
O3 O 0.6349(4) 1.0560(4) 1.2096(3)
H6 H 0.6253 0.9642 1.1622
H7 H 0.6920 0.9935 1.2975
loop_
_geom_bond_atom_site_label_1
_geom_bond_atom_site_label_2
_geom_bond_site_symmetry_1
_geom_bond_site_symmetry_2
Mn1 O1 1_555 1_555
O1 H1 1_555 1_555
H2 O1 1_555 1_555
O2 Mn1 1_555 1_555
H3 O2 1_555 1_555
H4 O2 1_555 1_555
N1 Mn1 1_555 1_555
N2 N3 1_555 1_555
N3 C1 1_555 1_555
C1 N1 1_555 1_555
C2 N1 1_555 1_555
H5 C2 1_555 1_555
N4 C1 1_555 1_555
O3 H6 1_555 1_555
H7 O3 1_555 1_555
N1A C1A 1_555 1_555
N2A N3A 1_555 1_555
N3A C1A 1_555 1_555
C1A N4A 1_555 1_555
C2A N1A 1_555 1_555
H5A C2A 1_555 1_555
N4A N4 1_555 1_555
O1A Mn1 1_555 1_555
H1A O1A 1_555 1_555
H2A O1A 1_555 1_555
O2A Mn1 1_555 1_555
H3A O2A 1_555 1_555
H4A O2A 1_555 1_555
Mn1_2 N1A 1_555 1_555
N1A_2 Mn1 1_555 1_555
N2 C2 1_555 1_555
N2A C2A 1_555 1_555

#END
