
#######################################################################
#
#                 Cambridge Crystallographic Data Centre
#                                CCDC 
#
#######################################################################
#
# If this CIF has been generated from an entry in the Cambridge 
# Structural Database, then it will include bibliographic, chemical, 
# crystal, experimental, refinement or atomic coordinate data resulting 
# from the CCDC's data processing and validation procedures.
#
#######################################################################

data_NILNON
_symmetry_cell_setting           triclinic
_symmetry_space_group_name_H-M   'P -1'
_symmetry_Int_Tables_number      2
_space_group_name_Hall           '-P 1'
loop_
_symmetry_equiv_pos_site_id
_symmetry_equiv_pos_as_xyz
1 x,y,z
2 -x,-y,-z
_cell_length_a                   10.43890(10)
_cell_length_b                   10.58020(10)
_cell_length_c                   10.62060(10)
_cell_angle_alpha                93.3316(6)
_cell_angle_beta                 96.2652(6)
_cell_angle_gamma                116.4806(7)
_cell_volume                     1036.12
loop_
_atom_site_label
_atom_site_type_symbol
_atom_site_fract_x
_atom_site_fract_y
_atom_site_fract_z
K1 K 0.5000 0.5000 0.5000
Na1 Na 0.0000 0.5000 0.0000
S1 S 0.49833(3) 0.38615(3) 0.21503(3)
S2 S 0.52817(3) 0.80299(3) 0.41312(2)
S3 S 0.15997(3) 0.36457(3) 0.52552(2)
N1 N 0.25915(9) 0.42264(9) 0.12724(8)
N2 N 0.16947(10) 0.40046(10) 0.01274(8)
N3 N 0.33348(10) 0.32883(9) -0.01649(8)
N4 N 0.28865(9) 0.65828(9) 0.22718(8)
N5 N 0.21374(10) 0.68899(10) 0.12726(8)
N6 N 0.39697(10) 0.88623(9) 0.22444(9)
N7 N 0.09435(9) 0.42936(9) 0.28637(8)
N8 N -0.02542(9) 0.42195(10) 0.20854(8)
N9 N -0.08885(9) 0.33387(9) 0.38742(8)
C1 C 0.36151(11) 0.37968(10) 0.11027(10)
B1 B 0.24773(11) 0.50244(11) 0.24919(10)
H1 H 0.3219(13) 0.5026(13) 0.3251(12)
C2 C 0.21815(12) 0.34495(12) -0.07049(10)
H2 H 0.1801(16) 0.3181(16) -0.1587(15)
C3 C 0.41619(13) 0.27217(13) -0.08144(11)
H3 H 0.5141(17) 0.3212(16) -0.0445(15)
H4 H 0.4079(17) 0.2891(17) -0.1677(16)
H5 H 0.3805(17) 0.1715(17) -0.0739(15)
C4 C 0.40216(10) 0.77890(10) 0.28823(9)
C5 C 0.28215(12) 0.82636(11) 0.12882(10)
H6 H 0.2547(17) 0.8763(17) 0.0709(15)
C6 C 0.50044(13) 1.03621(12) 0.25325(12)
H7 H 0.5957(19) 1.0490(18) 0.2368(17)
H8 H 0.4650(18) 1.0899(18) 0.2010(16)
H9 H 0.5066(17) 1.0668(17) 0.3401(16)
C7 C 0.05684(11) 0.37629(10) 0.39732(9)
C8 C -0.13226(11) 0.36474(11) 0.27262(10)
H10 H -0.2296(16) 0.3462(15) 0.2451(14)
C9 C -0.17939(12) 0.27330(12) 0.48491(11)
H11 H -0.1217(18) 0.3096(17) 0.5679(16)
H12 H -0.2552(18) 0.3006(17) 0.4803(15)
H13 H -0.2194(17) 0.1718(18) 0.4729(15)
S1A S -0.49833(3) 0.61385(3) -0.21503(3)
S2A S -0.52817(3) 0.19701(3) -0.41312(2)
S3A S -0.15997(3) 0.63543(3) -0.52552(2)
N1A N -0.25915(9) 0.57736(9) -0.12724(8)
N2A N -0.16947(10) 0.59954(10) -0.01274(8)
N3A N -0.33348(10) 0.67117(9) 0.01649(8)
N4A N -0.28865(9) 0.34172(9) -0.22718(8)
N5A N -0.21374(10) 0.31101(10) -0.12726(8)
N6A N -0.39697(10) 0.11377(9) -0.22444(9)
N7A N -0.09435(9) 0.57064(9) -0.28637(8)
N8A N 0.02542(9) 0.57805(10) -0.20854(8)
N9A N 0.08885(9) 0.66613(9) -0.38742(8)
C1A C -0.36151(11) 0.62032(10) -0.11027(10)
B1A B -0.24773(11) 0.49756(11) -0.24919(10)
H1A H -0.3219(13) 0.4974(13) -0.3251(12)
C2A C -0.21815(12) 0.65505(12) 0.07049(10)
H2A H -0.1801(16) 0.6819(16) 0.1587(15)
C3A C -0.41619(13) 0.72783(13) 0.08144(11)
H3A H -0.5141(17) 0.6788(16) 0.0445(15)
H4A H -0.4079(17) 0.7109(17) 0.1677(16)
H5A H -0.3805(17) 0.8285(17) 0.0739(15)
C4A C -0.40216(10) 0.22110(10) -0.28823(9)
C5A C -0.28215(12) 0.17364(11) -0.12882(10)
H6A H -0.2547(17) 0.1237(17) -0.0709(15)
C6A C -0.50044(13) -0.03621(12) -0.25325(12)
H7A H -0.5957(19) -0.0490(18) -0.2368(17)
H8A H -0.4650(18) -0.0899(18) -0.2010(16)
H9A H -0.5066(17) -0.0668(17) -0.3401(16)
C7A C -0.05684(11) 0.62371(10) -0.39732(9)
C8A C 0.13226(11) 0.63526(11) -0.27262(10)
H10A H 0.2296(16) 0.6538(15) -0.2451(14)
C9A C 0.17939(12) 0.72670(12) -0.48491(11)
H11A H 0.1217(18) 0.6904(17) -0.5679(16)
H12A H 0.2552(18) 0.6994(17) -0.4803(15)
H13A H 0.2194(17) 0.8282(18) -0.4729(15)
K1_2 K -0.5000 0.5000 -0.5000
S1A_2 S 0.50167(3) 0.61385(3) 0.78497(3)
S2A_2 S 0.47183(3) 0.19701(3) 0.58688(2)
S3A_2 S 0.84003(3) 0.63543(3) 0.47448(2)
H1A_2 H 0.6781(13) 0.4974(13) 0.6749(12)
O1 O 0.15753(14) 0.94558(12) 0.90788(12)
N10 N -0.00521(11) 0.95618(10) 0.75423(10)
C10 C 0.03508(18) 0.92540(14) 0.86668(13)
H14 H -0.045(2) 0.885(2) 0.9180(18)
C11 C 0.09661(14) 1.01298(14) 0.66515(12)
H15 H 0.0668(16) 0.9496(16) 0.5876(15)
H16 H 0.1042(19) 1.1044(19) 0.6444(16)
H17 H 0.190(2) 1.029(2) 0.7015(18)
C12 C -0.15290(15) 0.93025(17) 0.71164(18)
H18 H -0.151(2) 1.024(2) 0.6927(19)
H19 H -0.206(2) 0.896(2) 0.781(2)
H20 H -0.197(2) 0.858(2) 0.633(2)
loop_
_geom_bond_atom_site_label_1
_geom_bond_atom_site_label_2
_geom_bond_site_symmetry_1
_geom_bond_site_symmetry_2
K1 S1 1_555 1_555
Na1 N2 1_555 1_555
S1 C1 1_555 1_555
S2 K1 1_555 1_555
S3 K1 1_555 1_555
N1 N2 1_555 1_555
N2 C2 1_555 1_555
N3 C1 1_555 1_555
N4 N5 1_555 1_555
N5 Na1 1_555 1_555
N6 C4 1_555 1_555
N7 N8 1_555 1_555
N8 Na1 1_555 1_555
N9 C7 1_555 1_555
C1 N1 1_555 1_555
B1 N1 1_555 1_555
H1 K1 1_555 1_555
C2 N3 1_555 1_555
H2 C2 1_555 1_555
C3 N3 1_555 1_555
H3 C3 1_555 1_555
H4 C3 1_555 1_555
H5 C3 1_555 1_555
C4 S2 1_555 1_555
C5 N5 1_555 1_555
H6 C5 1_555 1_555
C6 N6 1_555 1_555
H7 C6 1_555 1_555
H8 C6 1_555 1_555
H9 C6 1_555 1_555
C7 S3 1_555 1_555
C8 N8 1_555 1_555
H10 C8 1_555 1_555
C9 N9 1_555 1_555
H11 C9 1_555 1_555
H12 C9 1_555 1_555
H13 C9 1_555 1_555
O1 C10 1_555 1_555
N10 C10 1_555 1_555
C10 H14 1_555 1_555
C11 N10 1_555 1_555
H15 C11 1_555 1_555
H16 C11 1_555 1_555
H17 C11 1_555 1_555
C12 N10 1_555 1_555
H18 C12 1_555 1_555
H19 C12 1_555 1_555
H20 C12 1_555 1_555
S1A C1A 1_555 1_555
S2A C4A 1_555 1_555
S3A C7A 1_555 1_555
N1A N2A 1_555 1_555
N2A Na1 1_555 1_555
N3A C1A 1_555 1_555
N4A N5A 1_555 1_555
N5A Na1 1_555 1_555
N6A C4A 1_555 1_555
N7A N8A 1_555 1_555
N8A Na1 1_555 1_555
N9A C7A 1_555 1_555
C1A N1A 1_555 1_555
B1A N1A 1_555 1_555
H1A B1A 1_555 1_555
C2A N2A 1_555 1_555
H2A C2A 1_555 1_555
C3A N3A 1_555 1_555
H3A C3A 1_555 1_555
H4A C3A 1_555 1_555
H5A C3A 1_555 1_555
C4A N4A 1_555 1_555
C5A N5A 1_555 1_555
H6A C5A 1_555 1_555
C6A N6A 1_555 1_555
H7A C6A 1_555 1_555
H8A C6A 1_555 1_555
H9A C6A 1_555 1_555
C7A N7A 1_555 1_555
C8A N8A 1_555 1_555
H10A C8A 1_555 1_555
C9A N9A 1_555 1_555
H11A C9A 1_555 1_555
H12A C9A 1_555 1_555
H13A C9A 1_555 1_555
K1_2 S1A 1_555 1_555
S1A_2 K1 1_555 1_555
S2A_2 K1 1_555 1_555
S3A_2 K1 1_555 1_555
H1A_2 K1 1_555 1_555
N4 B1 1_555 1_555
N4 C4 1_555 1_555
N6 C5 1_555 1_555
N7 B1 1_555 1_555
N7 C7 1_555 1_555
N9 C8 1_555 1_555
B1 H1 1_555 1_555
S2A K1_2 1_555 1_555
S3A K1_2 1_555 1_555
N3A C2A 1_555 1_555
N4A B1A 1_555 1_555
N6A C5A 1_555 1_555
N7A B1A 1_555 1_555
N9A C8A 1_555 1_555
H1A K1_2 1_555 1_555

#END
