
#######################################################################
#
#                 Cambridge Crystallographic Data Centre
#                                CCDC 
#
#######################################################################
#
# If this CIF has been generated from an entry in the Cambridge 
# Structural Database, then it will include bibliographic, chemical, 
# crystal, experimental, refinement or atomic coordinate data resulting 
# from the CCDC's data processing and validation procedures.
#
#######################################################################

data_NILNUT
_symmetry_cell_setting           trigonal
_symmetry_space_group_name_H-M   'P -3 1 c'
_symmetry_Int_Tables_number      163
_space_group_name_Hall           "-P 3 2'c"
loop_
_symmetry_equiv_pos_site_id
_symmetry_equiv_pos_as_xyz
1 x,y,z
2 -y,x-y,z
3 -x+y,-x,z
4 -y,-x,1/2-z
5 -x+y,y,1/2-z
6 x,x-y,1/2-z
7 -x,-y,-z
8 y,-x+y,-z
9 x-y,x,-z
10 y,x,1/2+z
11 x-y,-y,1/2+z
12 -x,-x+y,1/2+z
_cell_length_a                   13.0298(7)
_cell_length_b                   13.0298(7)
_cell_length_c                   14.0697(9)
_cell_angle_alpha                90
_cell_angle_beta                 90
_cell_angle_gamma                120
_cell_volume                     2068.67
loop_
_atom_site_label
_atom_site_type_symbol
_atom_site_fract_x
_atom_site_fract_y
_atom_site_fract_z
K1 K 0.6667 0.3333 0.7500
S1 S 0.90128(8) 0.52373(8) 0.62933(7)
Na1 Na 0.6667 0.3333 0.2500
N1 N 0.7778(2) 0.4467(2) 0.46058(18)
N2 N 0.7889(3) 0.4821(3) 0.3670(2)
N3 N 0.9396(2) 0.6139(3) 0.4500(2)
B1 B 0.6667 0.3333 0.4963(4)
H1 H 0.6667 0.3333 0.5673
C1 C 0.8706(3) 0.5263(3) 0.5126(2)
C2 C 0.8881(3) 0.5832(4) 0.3638(3)
H2 H 0.9199 0.6292 0.3079
C3 C 1.0531(3) 0.7193(4) 0.4699(4)
H3 H 1.0396 0.7804 0.4978
H4 H 1.0980 0.7491 0.4107
H5 H 1.0981 0.6993 0.5146
S1A S 0.47627(8) 0.37755(11) 0.62933(7)
N1A N 0.5533(2) 0.3311(3) 0.46058(18)
N2A N 0.5179(3) 0.3068(4) 0.3670(2)
N3A N 0.3861(3) 0.3257(4) 0.4500(2)
C1A C 0.4737(3) 0.3443(4) 0.5126(2)
C2A C 0.4168(4) 0.3049(5) 0.3638(3)
H2A H 0.3708 0.2907 0.3079
C3A C 0.2807(4) 0.3338(5) 0.4699(4)
H3A H 0.2196 0.2592 0.4978
H4A H 0.2509 0.3489 0.4107
H5A H 0.3007 0.3988 0.5146
S1B S 0.62245(11) 0.09872(8) 0.62933(7)
N1B N 0.6689(3) 0.2222(2) 0.46058(18)
N2B N 0.6932(4) 0.2111(3) 0.3670(2)
N3B N 0.6743(4) 0.0604(2) 0.4500(2)
C1B C 0.6557(4) 0.1294(3) 0.5126(2)
C2B C 0.6951(5) 0.1119(3) 0.3638(3)
H2B H 0.7093 0.0801 0.3079
C3B C 0.6662(5) -0.0531(3) 0.4699(4)
H3B H 0.7408 -0.0396 0.4978
H4B H 0.6511 -0.0980 0.4107
H5B H 0.6012 -0.0981 0.5146
S1C S 0.47627(8) 0.09872(8) -0.12933(7)
N1C N 0.5533(2) 0.2222(2) 0.03942(18)
N2C N 0.5179(3) 0.2111(3) 0.1330(2)
N3C N 0.3861(3) 0.0604(2) 0.0500(2)
B1C B 0.6667 0.3333 0.0037(4)
H1C H 0.6667 0.3333 -0.0673
C1C C 0.4737(3) 0.1294(3) -0.0126(2)
C2C C 0.4168(4) 0.1119(3) 0.1362(3)
H2C H 0.3708 0.0801 0.1921
C3C C 0.2807(4) -0.0531(3) 0.0301(4)
H3C H 0.2196 -0.0396 0.0022
H4C H 0.2509 -0.0980 0.0893
H5C H 0.3007 -0.0981 -0.0146
S1D S 0.62245(11) 0.52373(8) -0.12933(7)
N1D N 0.6689(3) 0.4467(2) 0.03942(18)
N2D N 0.6932(4) 0.4821(3) 0.1330(2)
N3D N 0.6743(4) 0.6139(3) 0.0500(2)
C1D C 0.6557(4) 0.5263(3) -0.0126(2)
C2D C 0.6951(5) 0.5832(4) 0.1362(3)
H2D H 0.7093 0.6292 0.1921
C3D C 0.6662(5) 0.7193(4) 0.0301(4)
H3D H 0.7408 0.7804 0.0022
H4D H 0.6511 0.7491 0.0893
H5D H 0.6012 0.6993 -0.0146
S1E S 0.90128(8) 0.37755(11) -0.12933(7)
N1E N 0.7778(2) 0.3311(3) 0.03942(18)
N2E N 0.7889(3) 0.3068(4) 0.1330(2)
N3E N 0.9396(2) 0.3257(4) 0.0500(2)
C1E C 0.8706(3) 0.3443(4) -0.0126(2)
C2E C 0.8881(3) 0.3049(5) 0.1362(3)
H2E H 0.9199 0.2907 0.1921
C3E C 1.0531(3) 0.3338(5) 0.0301(4)
H3E H 1.0396 0.2592 0.0022
H4E H 1.0980 0.3489 0.0893
H5E H 1.0981 0.3988 -0.0146
K1_2 K 0.6667 0.3333 -0.2500
S1C_2 S 0.47627(8) 0.09872(8) 0.87067(7)
S1D_2 S 0.62245(11) 0.52373(8) 0.87067(7)
S1E_2 S 0.90128(8) 0.37755(11) 0.87067(7)
H1C_2 H 0.6667 0.3333 0.9327
loop_
_geom_bond_atom_site_label_1
_geom_bond_atom_site_label_2
_geom_bond_site_symmetry_1
_geom_bond_site_symmetry_2
K1 S1 1_555 1_555
S1 C1 1_555 1_555
Na1 N2 1_555 1_555
N1 N2 1_555 1_555
N2 C2 1_555 1_555
N3 C1 1_555 1_555
B1 N1 1_555 1_555
H1 K1 1_555 1_555
C1 N1 1_555 1_555
C2 N3 1_555 1_555
H2 C2 1_555 1_555
C3 N3 1_555 1_555
H3 C3 1_555 1_555
H4 C3 1_555 1_555
H5 C3 1_555 1_555
S1A K1 1_555 1_555
N1A B1 1_555 1_555
N2A Na1 1_555 1_555
N3A C1A 1_555 1_555
C1A S1A 1_555 1_555
C2A N2A 1_555 1_555
H2A C2A 1_555 1_555
C3A N3A 1_555 1_555
H3A C3A 1_555 1_555
H4A C3A 1_555 1_555
H5A C3A 1_555 1_555
S1B K1 1_555 1_555
N1B B1 1_555 1_555
N2B Na1 1_555 1_555
N3B C1B 1_555 1_555
C1B S1B 1_555 1_555
C2B N2B 1_555 1_555
H2B C2B 1_555 1_555
C3B N3B 1_555 1_555
H3B C3B 1_555 1_555
H4B C3B 1_555 1_555
H5B C3B 1_555 1_555
S1C C1C 1_555 1_555
N1C N2C 1_555 1_555
N2C Na1 1_555 1_555
N3C C1C 1_555 1_555
B1C N1C 1_555 1_555
H1C B1C 1_555 1_555
C1C N1C 1_555 1_555
C2C N2C 1_555 1_555
H2C C2C 1_555 1_555
C3C N3C 1_555 1_555
H3C C3C 1_555 1_555
H4C C3C 1_555 1_555
H5C C3C 1_555 1_555
S1D C1D 1_555 1_555
N1D B1C 1_555 1_555
N2D Na1 1_555 1_555
N3D C1D 1_555 1_555
C1D N1D 1_555 1_555
C2D N2D 1_555 1_555
H2D C2D 1_555 1_555
C3D N3D 1_555 1_555
H3D C3D 1_555 1_555
H4D C3D 1_555 1_555
H5D C3D 1_555 1_555
S1E C1E 1_555 1_555
N1E B1C 1_555 1_555
N2E Na1 1_555 1_555
N3E C1E 1_555 1_555
C1E N1E 1_555 1_555
C2E N2E 1_555 1_555
H2E C2E 1_555 1_555
C3E N3E 1_555 1_555
H3E C3E 1_555 1_555
H4E C3E 1_555 1_555
H5E C3E 1_555 1_555
K1_2 S1C 1_555 1_555
S1C_2 K1 1_555 1_555
S1D_2 K1 1_555 1_555
S1E_2 K1 1_555 1_555
H1C_2 K1 1_555 1_555
B1 H1 1_555 1_555
N1A N2A 1_555 1_555
N1A C1A 1_555 1_555
N3A C2A 1_555 1_555
N1B N2B 1_555 1_555
N1B C1B 1_555 1_555
N3B C2B 1_555 1_555
N3C C2C 1_555 1_555
H1C K1_2 1_555 1_555
S1D K1_2 1_555 1_555
N1D N2D 1_555 1_555
N3D C2D 1_555 1_555
S1E K1_2 1_555 1_555
N1E N2E 1_555 1_555
N3E C2E 1_555 1_555

#END
