
#######################################################################
#
#                 Cambridge Crystallographic Data Centre
#                                CCDC 
#
#######################################################################
#
# If this CIF has been generated from an entry in the Cambridge 
# Structural Database, then it will include bibliographic, chemical, 
# crystal, experimental, refinement or atomic coordinate data resulting 
# from the CCDC's data processing and validation procedures.
#
#######################################################################

data_NILPEF
_symmetry_cell_setting           tetragonal
_symmetry_space_group_name_H-M   'I 41/a'
_symmetry_Int_Tables_number      88
_space_group_name_Hall           '-I 4ad'
loop_
_symmetry_equiv_pos_site_id
_symmetry_equiv_pos_as_xyz
1 x,y,z
2 3/4-y,1/4+x,1/4+z
3 -x,1/2-y,z
4 1/4+y,1/4-x,1/4+z
5 1/2+x,1/2+y,1/2+z
6 1/4-y,3/4+x,3/4+z
7 1/2-x,-y,1/2+z
8 3/4+y,3/4-x,3/4+z
9 -x,-y,-z
10 1/4+y,3/4-x,3/4-z
11 x,1/2+y,-z
12 3/4-y,3/4+x,3/4-z
13 1/2-x,1/2-y,1/2-z
14 3/4+y,1/4-x,1/4-z
15 1/2+x,y,1/2-z
16 1/4-y,1/4+x,1/4-z
_cell_length_a                   30.8530(12)
_cell_length_b                   30.8530(12)
_cell_length_c                   9.6827(5)
_cell_angle_alpha                90
_cell_angle_beta                 90
_cell_angle_gamma                90
_cell_volume                     9217.04
loop_
_atom_site_label
_atom_site_type_symbol
_atom_site_fract_x
_atom_site_fract_y
_atom_site_fract_z
Bi1 Bi 0.635989(5) 0.516002(6) 0.822752(17)
Cl1 Cl 0.69272(4) 0.44807(4) 0.74006(13)
Cl2 Cl 0.59859(4) 0.46730(5) 1.02076(13)
S1 S 0.57154(4) 0.56747(4) 0.90502(13)
S2 S 0.66788(4) 0.58128(4) 0.65465(12)
S3 S 0.58765(4) 0.48608(4) 0.61063(13)
N1 N 0.57514(13) 0.62240(14) 0.6808(5)
N2 N 0.58960(16) 0.66353(16) 0.6490(7)
N3 N 0.60154(14) 0.64847(15) 0.8674(6)
N4 N 0.59886(13) 0.57912(15) 0.4723(4)
N5 N 0.59044(14) 0.56679(17) 0.3381(4)
N6 N 0.65837(13) 0.55493(14) 0.3897(4)
N7 N 0.53179(13) 0.55632(15) 0.6062(4)
N8 N 0.48987(13) 0.56641(16) 0.6472(5)
N9 N 0.50603(13) 0.49913(15) 0.7044(4)
B1 B 0.5593(2) 0.5949(2) 0.5551(7)
H1 H 0.5410 0.6136 0.4941
C1 C 0.58271(15) 0.61341(17) 0.8125(6)
C2 C 0.6054(2) 0.6775(2) 0.7649(9)
H2 H 0.6183 0.7053 0.7761
C3 C 0.6156(2) 0.6545(2) 1.0098(7)
H3 H 0.6409 0.6361 1.0279
H4 H 0.5921 0.6465 1.0726
H5 H 0.6234 0.6849 1.0246
C4 C 0.63997(16) 0.57194(16) 0.5049(5)
C5 C 0.62730(17) 0.5526(2) 0.2942(6)
H6 H 0.6318 0.5416 0.2036
C6 C 0.70358(16) 0.54125(18) 0.3773(6)
H7 H 0.7226 0.5646 0.4096
H8 H 0.7101 0.5347 0.2804
H9 H 0.7083 0.5153 0.4335
C7 C 0.54146(16) 0.51571(17) 0.6409(5)
C8 C 0.47585(17) 0.53140(19) 0.7051(5)
H10 H 0.4477 0.5285 0.7439
C9 C 0.50274(19) 0.45707(19) 0.7696(6)
H11 H 0.5266 0.4534 0.8354
H12 H 0.5044 0.4344 0.6990
H13 H 0.4750 0.4549 0.8184
Bi1E Bi 0.733998(6) 0.385989(5) 0.572752(17)
Cl1C Cl 0.69807(4) 0.55728(4) 0.99006(13)
loop_
_geom_bond_atom_site_label_1
_geom_bond_atom_site_label_2
_geom_bond_site_symmetry_1
_geom_bond_site_symmetry_2
Bi1 Cl1 1_555 1_555
Cl1 Bi1E 1_555 1_555
Cl2 Bi1 1_555 1_555
S1 Bi1 1_555 1_555
S2 Bi1 1_555 1_555
S3 Bi1 1_555 1_555
N1 N2 1_555 1_555
N2 C2 1_555 1_555
N3 C1 1_555 1_555
N4 N5 1_555 1_555
N5 C5 1_555 1_555
N6 C4 1_555 1_555
N7 N8 1_555 1_555
N8 C8 1_555 1_555
N9 C7 1_555 1_555
B1 N1 1_555 1_555
H1 B1 1_555 1_555
C1 S1 1_555 1_555
C2 N3 1_555 1_555
H2 C2 1_555 1_555
C3 N3 1_555 1_555
H3 C3 1_555 1_555
H4 C3 1_555 1_555
H5 C3 1_555 1_555
C4 S2 1_555 1_555
C5 N6 1_555 1_555
H6 C5 1_555 1_555
C6 N6 1_555 1_555
H7 C6 1_555 1_555
H8 C6 1_555 1_555
H9 C6 1_555 1_555
C7 S3 1_555 1_555
C8 N9 1_555 1_555
H10 C8 1_555 1_555
C9 N9 1_555 1_555
H11 C9 1_555 1_555
H12 C9 1_555 1_555
H13 C9 1_555 1_555
Cl1C Bi1 1_555 1_555
N1 C1 1_555 1_555
N4 B1 1_555 1_555
N4 C4 1_555 1_555
N7 B1 1_555 1_555
N7 C7 1_555 1_555

#END
