
#######################################################################
#
#                 Cambridge Crystallographic Data Centre
#                                CCDC 
#
#######################################################################
#
# If this CIF has been generated from an entry in the Cambridge 
# Structural Database, then it will include bibliographic, chemical, 
# crystal, experimental, refinement or atomic coordinate data resulting 
# from the CCDC's data processing and validation procedures.
#
#######################################################################

data_NILQOQ
_symmetry_cell_setting           cubic
_symmetry_space_group_name_H-M   'F -4 3 c'
_symmetry_Int_Tables_number      219
_space_group_name_Hall           'F -4a 2 3'
loop_
_symmetry_equiv_pos_site_id
_symmetry_equiv_pos_as_xyz
1 x,y,z
2 -x,-y,z
3 -x,y,-z
4 x,-y,-z
5 z,x,y
6 z,-x,-y
7 -z,-x,y
8 -z,x,-y
9 y,z,x
10 -y,z,-x
11 y,-z,-x
12 -y,-z,x
13 1/2+y,1/2+x,1/2+z
14 1/2-y,1/2-x,1/2+z
15 1/2+y,1/2-x,1/2-z
16 1/2-y,1/2+x,1/2-z
17 1/2+x,1/2+z,1/2+y
18 1/2-x,1/2+z,1/2-y
19 1/2-x,1/2-z,1/2+y
20 1/2+x,1/2-z,1/2-y
21 1/2+z,1/2+y,1/2+x
22 1/2+z,1/2-y,1/2-x
23 1/2-z,1/2+y,1/2-x
24 1/2-z,1/2-y,1/2+x
25 x,1/2+y,1/2+z
26 -x,1/2-y,1/2+z
27 -x,1/2+y,1/2-z
28 x,1/2-y,1/2-z
29 z,1/2+x,1/2+y
30 z,1/2-x,1/2-y
31 -z,1/2-x,1/2+y
32 -z,1/2+x,1/2-y
33 y,1/2+z,1/2+x
34 -y,1/2+z,1/2-x
35 y,1/2-z,1/2-x
36 -y,1/2-z,1/2+x
37 1/2+y,x,z
38 1/2-y,-x,z
39 1/2+y,-x,-z
40 1/2-y,x,-z
41 1/2+x,z,y
42 1/2-x,z,-y
43 1/2-x,-z,y
44 1/2+x,-z,-y
45 1/2+z,y,x
46 1/2+z,-y,-x
47 1/2-z,y,-x
48 1/2-z,-y,x
49 1/2+x,y,1/2+z
50 1/2-x,-y,1/2+z
51 1/2-x,y,1/2-z
52 1/2+x,-y,1/2-z
53 1/2+z,x,1/2+y
54 1/2+z,-x,1/2-y
55 1/2-z,-x,1/2+y
56 1/2-z,x,1/2-y
57 1/2+y,z,1/2+x
58 1/2-y,z,1/2-x
59 1/2+y,-z,1/2-x
60 1/2-y,-z,1/2+x
61 y,1/2+x,z
62 -y,1/2-x,z
63 y,1/2-x,-z
64 -y,1/2+x,-z
65 x,1/2+z,y
66 -x,1/2+z,-y
67 -x,1/2-z,y
68 x,1/2-z,-y
69 z,1/2+y,x
70 z,1/2-y,-x
71 -z,1/2+y,-x
72 -z,1/2-y,x
73 1/2+x,1/2+y,z
74 1/2-x,1/2-y,z
75 1/2-x,1/2+y,-z
76 1/2+x,1/2-y,-z
77 1/2+z,1/2+x,y
78 1/2+z,1/2-x,-y
79 1/2-z,1/2-x,y
80 1/2-z,1/2+x,-y
81 1/2+y,1/2+z,x
82 1/2-y,1/2+z,-x
83 1/2+y,1/2-z,-x
84 1/2-y,1/2-z,x
85 y,x,1/2+z
86 -y,-x,1/2+z
87 y,-x,1/2-z
88 -y,x,1/2-z
89 x,z,1/2+y
90 -x,z,1/2-y
91 -x,-z,1/2+y
92 x,-z,1/2-y
93 z,y,1/2+x
94 z,-y,1/2-x
95 -z,y,1/2-x
96 -z,-y,1/2+x
_cell_length_a                   30.6399(14)
_cell_length_b                   30.6399(14)
_cell_length_c                   30.6399(14)
_cell_angle_alpha                90
_cell_angle_beta                 90
_cell_angle_gamma                90
_cell_volume                     28764.8
loop_
_atom_site_label
_atom_site_type_symbol
_atom_site_fract_x
_atom_site_fract_y
_atom_site_fract_z
C1 C 0.3073(3) 0.4131(3) 0.1713(3)
C2 C 0.3331(3) 0.4550(2) 0.1736(3)
C3 C 0.3125(2) 0.4948(3) 0.1650(3)
H1 H 0.2836 0.4955 0.1558
C4 C 0.3361(3) 0.5332(2) 0.1704(3)
C5 C 0.3798(2) 0.5315(2) 0.1822(3)
H2 H 0.3956 0.5572 0.1859
C6 C 0.3995(2) 0.4925(2) 0.1881(2)
C7 C 0.3767(2) 0.4544(2) 0.1846(3)
H3 H 0.3907 0.4280 0.1897
C8 C 0.4649(2) 0.5214(2) 0.2214(3)
H4 H 0.4434 0.5361 0.2396
H5 H 0.4780 0.5428 0.2021
C9 C 0.5000 0.5000 0.2500
C10 C 0.3135(3) 0.5755(3) 0.1622(3)
O1 O 0.27486(17) 0.41318(17) 0.1470(2)
O2 O 0.32205(19) 0.38061(16) 0.1930(2)
O3 O 0.24450(18) 0.31839(17) 0.18357(17)
O4 O 0.3273(2) 0.60983(18) 0.1829(2)
O5 O 0.28347(16) 0.57802(17) 0.13605(18)
O6 O 0.44483(16) 0.48786(17) 0.19700(18)
Zn1 Zn 0.23391(3) 0.36445(3) 0.14072(3)
Zn2 Zn 0.31358(3) 0.31358(3) 0.18642(3)
P1 P 0.20904(13) 0.29096(13) 0.20904(13)
C1A C 0.6927(3) 0.5869(3) 0.1713(3)
C2A C 0.6669(3) 0.5450(2) 0.1736(3)
C3A C 0.6875(2) 0.5052(3) 0.1650(3)
H1A H 0.7164 0.5045 0.1558
C4A C 0.6639(3) 0.4668(2) 0.1704(3)
C5A C 0.6202(2) 0.4685(2) 0.1822(3)
H2A H 0.6044 0.4428 0.1859
C6A C 0.6005(2) 0.5075(2) 0.1881(2)
C7A C 0.6233(2) 0.5456(2) 0.1846(3)
H3A H 0.6093 0.5720 0.1897
C8A C 0.5351(2) 0.4786(2) 0.2214(3)
H4A H 0.5566 0.4639 0.2396
H5A H 0.5220 0.4572 0.2021
C10A C 0.6865(3) 0.4245(3) 0.1622(3)
O1A O 0.72514(17) 0.58682(17) 0.1470(2)
O2A O 0.67795(19) 0.61939(16) 0.1930(2)
O4A O 0.6727(2) 0.39017(18) 0.1829(2)
O5A O 0.71653(16) 0.42198(17) 0.13605(18)
O6A O 0.55517(16) 0.51214(17) 0.19700(18)
C1HC C 0.4131(3) 0.6927(3) 0.3287(3)
C2HC C 0.4550(2) 0.6669(3) 0.3264(3)
C3HC C 0.4948(3) 0.6875(2) 0.3350(3)
H1HC H 0.4955 0.7164 0.3442
C4HC C 0.5332(2) 0.6639(3) 0.3296(3)
C5HC C 0.5315(2) 0.6202(2) 0.3178(3)
H2HC H 0.5572 0.6044 0.3141
C6HC C 0.4925(2) 0.6005(2) 0.3119(2)
C7HC C 0.4544(2) 0.6233(2) 0.3154(3)
H3HC H 0.4280 0.6093 0.3103
C8HC C 0.5214(2) 0.5351(2) 0.2786(3)
H4HC H 0.5361 0.5566 0.2604
H5HC H 0.5428 0.5220 0.2979
C10HC C 0.5755(3) 0.6865(3) 0.3378(3)
O1HC O 0.41318(17) 0.72514(17) 0.3530(2)
O2HC O 0.38061(16) 0.67795(19) 0.3070(2)
O4HC O 0.60983(18) 0.6727(2) 0.3171(2)
O5HC O 0.57802(17) 0.71653(16) 0.36395(18)
O6HC O 0.48786(17) 0.55517(16) 0.30300(18)
C1IC C 0.5869(3) 0.3073(3) 0.3287(3)
C2IC C 0.5450(2) 0.3331(3) 0.3264(3)
C3IC C 0.5052(3) 0.3125(2) 0.3350(3)
H1IC H 0.5045 0.2836 0.3442
C4IC C 0.4668(2) 0.3361(3) 0.3296(3)
C5IC C 0.4685(2) 0.3798(2) 0.3178(3)
H2IC H 0.4428 0.3956 0.3141
C6IC C 0.5075(2) 0.3995(2) 0.3119(2)
C7IC C 0.5456(2) 0.3767(2) 0.3154(3)
H3IC H 0.5720 0.3907 0.3103
C8IC C 0.4786(2) 0.4649(2) 0.2786(3)
H4IC H 0.4639 0.4434 0.2604
H5IC H 0.4572 0.4780 0.2979
C10IC C 0.4245(3) 0.3135(3) 0.3378(3)
O1IC O 0.58682(17) 0.27486(17) 0.3530(2)
O2IC O 0.61939(16) 0.32205(19) 0.3070(2)
O4IC O 0.39017(18) 0.3273(2) 0.3171(2)
O5IC O 0.42198(17) 0.28347(16) 0.36395(18)
O6IC O 0.51214(17) 0.44483(16) 0.30300(18)
O3CA O 0.18357(17) 0.25550(18) 0.18161(17)
O3EC O 0.18161(17) 0.31643(17) 0.24450(18)
Zn1A Zn 0.76609(3) 0.63555(3) 0.14072(3)
Zn2A Zn 0.68642(3) 0.68642(3) 0.18642(3)
C1D C 0.1713(3) 0.3073(3) 0.4131(3)
C2D C 0.1736(3) 0.3331(3) 0.4550(2)
C3D C 0.1650(3) 0.3125(2) 0.4948(3)
H1D H 0.1558 0.2836 0.4955
C4D C 0.1704(3) 0.3361(3) 0.5332(2)
C5D C 0.1822(3) 0.3798(2) 0.5315(2)
H2D H 0.1859 0.3956 0.5572
C6D C 0.1881(2) 0.3995(2) 0.4925(2)
C7D C 0.1846(3) 0.3767(2) 0.4544(2)
H3D H 0.1897 0.3907 0.4280
C8D C 0.2214(3) 0.4649(2) 0.5214(2)
H4D H 0.2396 0.4434 0.5361
H5D H 0.2021 0.4780 0.5428
C9D C 0.2500 0.5000 0.5000
C10D C 0.1622(3) 0.3135(3) 0.5755(3)
O1D O 0.1470(2) 0.27486(17) 0.41318(17)
O2D O 0.1930(2) 0.32205(19) 0.38061(16)
O3D O 0.18357(17) 0.24450(18) 0.31839(17)
O4D O 0.1829(2) 0.3273(2) 0.60983(18)
O5D O 0.13605(18) 0.28347(16) 0.57802(17)
O6D O 0.19700(18) 0.44483(16) 0.48786(17)
Zn1D Zn 0.14072(3) 0.23391(3) 0.36445(3)
Zn2D Zn 0.18642(3) 0.31358(3) 0.31358(3)
P1D P 0.20904(13) 0.20904(13) 0.29096(13)
C1E C 0.1713(3) 0.6927(3) 0.5869(3)
C2E C 0.1736(3) 0.6669(3) 0.5450(2)
C3E C 0.1650(3) 0.6875(2) 0.5052(3)
H1E H 0.1558 0.7164 0.5045
C4E C 0.1704(3) 0.6639(3) 0.4668(2)
C5E C 0.1822(3) 0.6202(2) 0.4685(2)
H2E H 0.1859 0.6044 0.4428
C6E C 0.1881(2) 0.6005(2) 0.5075(2)
C7E C 0.1846(3) 0.6233(2) 0.5456(2)
H3E H 0.1897 0.6093 0.5720
C8E C 0.2214(3) 0.5351(2) 0.4786(2)
H4E H 0.2396 0.5566 0.4639
H5E H 0.2021 0.5220 0.4572
C10E C 0.1622(3) 0.6865(3) 0.4245(3)
O1E O 0.1470(2) 0.72514(17) 0.58682(17)
O2E O 0.1930(2) 0.67795(19) 0.61939(16)
O4E O 0.1829(2) 0.6727(2) 0.39017(18)
O5E O 0.13605(18) 0.71653(16) 0.42198(17)
O6E O 0.19700(18) 0.55517(16) 0.51214(17)
C1TA C 0.3287(3) 0.4131(3) 0.6927(3)
C2TA C 0.3264(3) 0.4550(2) 0.6669(3)
C3TA C 0.3350(3) 0.4948(3) 0.6875(2)
H1TA H 0.3442 0.4955 0.7164
C4TA C 0.3296(3) 0.5332(2) 0.6639(3)
C5TA C 0.3178(3) 0.5315(2) 0.6202(2)
H2TA H 0.3141 0.5572 0.6044
C6TA C 0.3119(2) 0.4925(2) 0.6005(2)
C7TA C 0.3154(3) 0.4544(2) 0.6233(2)
H3TA H 0.3103 0.4280 0.6093
C8TA C 0.2786(3) 0.5214(2) 0.5351(2)
H4TA H 0.2604 0.5361 0.5566
H5TA H 0.2979 0.5428 0.5220
C10TA C 0.3378(3) 0.5755(3) 0.6865(3)
O1TA O 0.3530(2) 0.41318(17) 0.72514(17)
O2TA O 0.3070(2) 0.38061(16) 0.67795(19)
O4TA O 0.3171(2) 0.60983(18) 0.6727(2)
O5TA O 0.36395(18) 0.57802(17) 0.71653(16)
O6TA O 0.30300(18) 0.48786(17) 0.55517(16)
C1UA C 0.3287(3) 0.5869(3) 0.3073(3)
C2UA C 0.3264(3) 0.5450(2) 0.3331(3)
C3UA C 0.3350(3) 0.5052(3) 0.3125(2)
H1UA H 0.3442 0.5045 0.2836
C4UA C 0.3296(3) 0.4668(2) 0.3361(3)
C5UA C 0.3178(3) 0.4685(2) 0.3798(2)
H2UA H 0.3141 0.4428 0.3956
C6UA C 0.3119(2) 0.5075(2) 0.3995(2)
C7UA C 0.3154(3) 0.5456(2) 0.3767(2)
H3UA H 0.3103 0.5720 0.3907
C8UA C 0.2786(3) 0.4786(2) 0.4649(2)
H4UA H 0.2604 0.4639 0.4434
H5UA H 0.2979 0.4572 0.4780
C10UA C 0.3378(3) 0.4245(3) 0.3135(3)
O1UA O 0.3530(2) 0.58682(17) 0.27486(17)
O2UA O 0.3070(2) 0.61939(16) 0.32205(19)
O4UA O 0.3171(2) 0.39017(18) 0.3273(2)
O5UA O 0.36395(18) 0.42198(17) 0.28347(16)
O6UA O 0.30300(18) 0.51214(17) 0.44483(16)
O3EB O 0.18161(17) 0.18357(17) 0.25550(18)
O3AA O 0.24450(18) 0.18161(17) 0.31643(17)
Zn1E Zn 0.14072(3) 0.76609(3) 0.63555(3)
O3H O 0.31839(17) 0.18357(17) 0.24450(18)
Zn1H Zn 0.36445(3) 0.14072(3) 0.23391(3)
Zn2H Zn 0.31358(3) 0.18642(3) 0.31358(3)
P1H P 0.29096(13) 0.20904(13) 0.20904(13)
O3UB O 0.25550(18) 0.18161(17) 0.18357(17)
O3CB O 0.31643(17) 0.24450(18) 0.18161(17)
C1Q C 0.1927(3) 0.6713(3) 0.0869(3)
C2Q C 0.1669(3) 0.6736(3) 0.0450(2)
C3Q C 0.1875(2) 0.6650(3) 0.0052(3)
H1Q H 0.2164 0.6558 0.0045
C4Q C 0.1639(3) 0.6704(3) -0.0332(2)
C5Q C 0.1202(2) 0.6822(3) -0.0315(2)
H2Q H 0.1044 0.6859 -0.0572
C6Q C 0.1005(2) 0.6881(2) 0.0075(2)
C7Q C 0.1233(2) 0.6846(3) 0.0456(2)
H3Q H 0.1093 0.6897 0.0720
C8Q C 0.0351(2) 0.7214(3) -0.0214(2)
H4Q H 0.0566 0.7396 -0.0361
H5Q H 0.0220 0.7021 -0.0428
C9P C 0.0000 0.7500 0.0000
C10Q C 0.1865(3) 0.6622(3) -0.0755(3)
O1Q O 0.22514(17) 0.6470(2) 0.08682(17)
O2Q O 0.17795(19) 0.6930(2) 0.11939(16)
O4Q O 0.1727(2) 0.6829(2) -0.10983(18)
O5Q O 0.21653(16) 0.63605(18) -0.07802(17)
O6Q O 0.05517(16) 0.69700(18) 0.01214(17)
Zn1Q Zn 0.26609(3) 0.64072(3) 0.13555(3)
C1P C -0.1927(3) 0.6713(3) -0.0869(3)
C2P C -0.1669(3) 0.6736(3) -0.0450(2)
C3P C -0.1875(2) 0.6650(3) -0.0052(3)
H1P H -0.2164 0.6558 -0.0045
C4P C -0.1639(3) 0.6704(3) 0.0332(2)
C5P C -0.1202(2) 0.6822(3) 0.0315(2)
H2P H -0.1044 0.6859 0.0572
C6P C -0.1005(2) 0.6881(2) -0.0075(2)
C7P C -0.1233(2) 0.6846(3) -0.0456(2)
H3P H -0.1093 0.6897 -0.0720
C8P C -0.0351(2) 0.7214(3) 0.0214(2)
H4P H -0.0566 0.7396 0.0361
H5P H -0.0220 0.7021 0.0428
C10P C -0.1865(3) 0.6622(3) 0.0755(3)
O1P O -0.22514(17) 0.6470(2) -0.08682(17)
O2P O -0.17795(19) 0.6930(2) -0.11939(16)
O4P O -0.1727(2) 0.6829(2) 0.10983(18)
O5P O -0.21653(16) 0.63605(18) 0.07802(17)
O6P O -0.05517(16) 0.69700(18) -0.01214(17)
C1GB C 0.0869(3) 0.8287(3) -0.1927(3)
C2GB C 0.0450(2) 0.8264(3) -0.1669(3)
C3GB C 0.0052(3) 0.8350(3) -0.1875(2)
H1GB H 0.0045 0.8442 -0.2164
C4GB C -0.0332(2) 0.8296(3) -0.1639(3)
C5GB C -0.0315(2) 0.8178(3) -0.1202(2)
H2GB H -0.0572 0.8141 -0.1044
C6GB C 0.0075(2) 0.8119(2) -0.1005(2)
C7GB C 0.0456(2) 0.8154(3) -0.1233(2)
H3GB H 0.0720 0.8103 -0.1093
C8GB C -0.0214(2) 0.7786(3) -0.0351(2)
H4GB H -0.0361 0.7604 -0.0566
H5GB H -0.0428 0.7979 -0.0220
C10GB C -0.0755(3) 0.8378(3) -0.1865(3)
O1GB O 0.08682(17) 0.8530(2) -0.22514(17)
O2GB O 0.11939(16) 0.8070(2) -0.17795(19)
O4GB O -0.10983(18) 0.8171(2) -0.1727(2)
O5GB O -0.07802(17) 0.86395(18) -0.21653(16)
O6GB O 0.01214(17) 0.80300(18) -0.05517(16)
C1FB C -0.0869(3) 0.8287(3) 0.1927(3)
C2FB C -0.0450(2) 0.8264(3) 0.1669(3)
C3FB C -0.0052(3) 0.8350(3) 0.1875(2)
H1FB H -0.0045 0.8442 0.2164
C4FB C 0.0332(2) 0.8296(3) 0.1639(3)
C5FB C 0.0315(2) 0.8178(3) 0.1202(2)
H2FB H 0.0572 0.8141 0.1044
C6FB C -0.0075(2) 0.8119(2) 0.1005(2)
C7FB C -0.0456(2) 0.8154(3) 0.1233(2)
H3FB H -0.0720 0.8103 0.1093
C8FB C 0.0214(2) 0.7786(3) 0.0351(2)
H4FB H 0.0361 0.7604 0.0566
H5FB H 0.0428 0.7979 0.0220
C10FB C 0.0755(3) 0.8378(3) 0.1865(3)
O1FB O -0.08682(17) 0.8530(2) 0.22514(17)
O2FB O -0.11939(16) 0.8070(2) 0.17795(19)
O4FB O 0.10983(18) 0.8171(2) 0.1727(2)
O5FB O 0.07802(17) 0.86395(18) 0.21653(16)
O6FB O -0.01214(17) 0.80300(18) 0.05517(16)
Zn1P Zn -0.26609(3) 0.64072(3) -0.13555(3)
O3UA O 0.31643(17) 0.68161(17) 0.24450(18)
Zn1UA Zn 0.35928(3) 0.63555(3) 0.23391(3)
P1Q P 0.29096(13) 0.70904(13) 0.20904(13)
O3HB O 0.31839(17) 0.74450(18) 0.18357(17)
O3Q O 0.25550(18) 0.68357(17) 0.18161(17)
Zn1RA Zn 0.64072(3) 0.36445(3) 0.23391(3)
Zn1S Zn 0.73391(3) 0.35928(3) 0.13555(3)
Zn1HC Zn 0.36445(3) 0.76609(3) 0.35928(3)
Zn1GA Zn 0.63555(3) 0.64072(3) 0.26609(3)
O1H O 0.41318(17) 0.1470(2) 0.27486(17)
O1S O 0.77486(17) 0.3530(2) 0.08682(17)
O1GA O 0.58682(17) 0.6470(2) 0.22514(17)
O1RA O 0.6470(2) 0.41318(17) 0.27486(17)
O2H O 0.38061(16) 0.1930(2) 0.32205(19)
O2AA O 0.32205(19) 0.11939(16) 0.3070(2)
O2GA O 0.61939(16) 0.6930(2) 0.17795(19)
O2HA O 0.38061(16) 0.3070(2) 0.17795(19)
O2XA O 0.17795(19) 0.38061(16) 0.3070(2)
O2AB O 0.6930(2) 0.67795(19) 0.11939(16)
O2CB O 0.3070(2) 0.32205(19) 0.11939(16)
O2ZB O 0.3070(2) 0.17795(19) 0.38061(16)
O2EC O 0.11939(16) 0.3070(2) 0.32205(19)
O3A O 0.75550(18) 0.68161(17) 0.18357(17)
O3E O 0.18357(17) 0.75550(18) 0.68161(17)
O3P O -0.25550(18) 0.68357(17) -0.18161(17)
O3S O 0.74450(18) 0.31643(17) 0.18161(17)
O3GA O 0.68161(17) 0.68357(17) 0.25550(18)
O3HA O 0.31839(17) 0.31643(17) 0.25550(18)
O3RA O 0.68357(17) 0.31839(17) 0.24450(18)
O3XA O 0.25550(18) 0.31839(17) 0.31643(17)
O3AB O 0.68357(17) 0.75550(18) 0.18161(17)
O3ZB O 0.31643(17) 0.25550(18) 0.31839(17)
O3HC O 0.31839(17) 0.75550(18) 0.31643(17)
O4K O 0.39017(18) 0.8171(2) 0.3273(2)
O4OA O 0.1727(2) 0.1829(2) 0.39017(18)
O4PA O 0.1727(2) 0.8171(2) 0.60983(18)
O4ZA O 0.6829(2) 0.3273(2) 0.10983(18)
O4AB O -0.3171(2) 0.6727(2) -0.10983(18)
O4BB O 0.3171(2) 0.6727(2) 0.10983(18)
O4IB O 0.39017(18) 0.1727(2) 0.1829(2)
O4OC O 0.1829(2) 0.39017(18) 0.1727(2)
O4PC O 0.8171(2) 0.60983(18) 0.1727(2)
O5B O -0.28347(16) 0.57802(17) -0.13605(18)
O5L O 0.07802(17) 0.78347(16) 0.63605(18)
O5N O 0.07802(17) 0.21653(16) 0.36395(18)
O5P_2 O 0.78347(16) 0.63605(18) 0.07802(17)
O5R O 0.21653(16) 0.36395(18) 0.07802(17)
O5V O 0.36395(18) 0.07802(17) 0.21653(16)
O5GA O 0.42198(17) 0.63605(18) 0.21653(16)
O5HA O 0.57802(17) 0.36395(18) 0.21653(16)
O5RA O 0.63605(18) 0.57802(17) 0.28347(16)
O5AC O 0.36395(18) 0.78347(16) 0.42198(17)
Zn1A_2 Zn -0.23391(3) 0.63555(3) 0.14072(3)
Zn1C Zn 0.23391(3) 0.63555(3) -0.14072(3)
Zn1M Zn 0.13555(3) 0.26609(3) 0.64072(3)
Zn1O Zn 0.13555(3) 0.73391(3) 0.35928(3)
Zn1AA Zn 0.23391(3) 0.13555(3) 0.35928(3)
Zn1BA Zn 0.14072(3) 0.73391(3) -0.13555(3)
Zn1CA Zn 0.14072(3) 0.26609(3) 0.13555(3)
Zn1EA Zn -0.14072(3) 0.73391(3) 0.13555(3)
Zn1FA Zn 0.36445(3) 0.64072(3) 0.73391(3)
Zn1HA Zn 0.36445(3) 0.35928(3) 0.26609(3)
Zn1KA Zn 0.13555(3) 0.76609(3) 0.14072(3)
Zn1LA Zn -0.13555(3) 0.76609(3) -0.14072(3)
Zn1TA Zn 0.35928(3) 0.36445(3) 0.76609(3)
Zn1WA Zn 0.26609(3) 0.63555(3) 0.64072(3)
Zn1XA Zn 0.26609(3) 0.36445(3) 0.35928(3)
Zn1CB Zn 0.35928(3) 0.23391(3) 0.13555(3)
Zn1EB Zn 0.13555(3) 0.14072(3) 0.26609(3)
Zn1FB Zn -0.13555(3) 0.85928(3) 0.26609(3)
Zn1GB Zn 0.13555(3) 0.85928(3) -0.26609(3)
Zn1HB Zn 0.36445(3) 0.73391(3) 0.14072(3)
Zn1LB Zn 0.23391(3) 0.64072(3) 0.36445(3)
Zn1OB Zn 0.23391(3) 0.35928(3) 0.63555(3)
Zn1PB Zn 0.14072(3) 0.86445(3) 0.23391(3)
Zn1RB Zn -0.14072(3) 0.86445(3) -0.23391(3)
Zn1UB Zn 0.26609(3) 0.13555(3) 0.14072(3)
Zn1XB Zn 0.64072(3) 0.73391(3) 0.36445(3)
Zn1ZB Zn 0.35928(3) 0.26609(3) 0.36445(3)
Zn1EC Zn 0.13555(3) 0.35928(3) 0.23391(3)
Zn1IC Zn 0.63555(3) 0.23391(3) 0.35928(3)
Zn2E Zn 0.18642(3) 0.68642(3) 0.68642(3)
Zn2P Zn -0.18642(3) 0.68642(3) -0.18642(3)
Zn2Q Zn 0.18642(3) 0.68642(3) 0.18642(3)
Zn2V Zn 0.31358(3) 0.81358(3) 0.18642(3)
Zn2BA Zn 0.18642(3) 0.81358(3) -0.18642(3)
Zn2CA Zn 0.18642(3) 0.18642(3) 0.18642(3)
Zn2EA Zn -0.18642(3) 0.81358(3) 0.18642(3)
Zn2RA Zn 0.68642(3) 0.31358(3) 0.31358(3)
Zn2TA Zn 0.31358(3) 0.31358(3) 0.68642(3)
Zn2UA Zn 0.31358(3) 0.68642(3) 0.31358(3)
loop_
_geom_bond_atom_site_label_1
_geom_bond_atom_site_label_2
_geom_bond_site_symmetry_1
_geom_bond_site_symmetry_2
C1 C2 1_555 1_555
C2 C3 1_555 1_555
C3 H1 1_555 1_555
C4 C3 1_555 1_555
C5 C4 1_555 1_555
H2 C5 1_555 1_555
C6 C5 1_555 1_555
C7 C2 1_555 1_555
H3 C7 1_555 1_555
C8 H4 1_555 1_555
H5 C8 1_555 1_555
C9 C8 1_555 1_555
C10 C4 1_555 1_555
O1 C1 1_555 1_555
O2 C1 1_555 1_555
O3 Zn1 1_555 1_555
O4 C10 1_555 1_555
O5 C10 1_555 1_555
O6 C6 1_555 1_555
Zn1 O1 1_555 1_555
Zn2 O2 1_555 1_555
P1 O3 1_555 1_555
C1A C2A 1_555 1_555
C2A C3A 1_555 1_555
C3A H1A 1_555 1_555
C4A C3A 1_555 1_555
C5A C4A 1_555 1_555
H2A C5A 1_555 1_555
C6A C5A 1_555 1_555
C7A C2A 1_555 1_555
H3A C7A 1_555 1_555
C8A C9 1_555 1_555
H4A C8A 1_555 1_555
H5A C8A 1_555 1_555
C10A C4A 1_555 1_555
O1A C1A 1_555 1_555
O2A C1A 1_555 1_555
O4A C10A 1_555 1_555
O5A C10A 1_555 1_555
O6A C6A 1_555 1_555
C1HC C2HC 1_555 1_555
C2HC C3HC 1_555 1_555
C3HC H1HC 1_555 1_555
C4HC C3HC 1_555 1_555
C5HC C4HC 1_555 1_555
H2HC C5HC 1_555 1_555
C6HC C5HC 1_555 1_555
C7HC C2HC 1_555 1_555
H3HC C7HC 1_555 1_555
C8HC C9 1_555 1_555
H4HC C8HC 1_555 1_555
H5HC C8HC 1_555 1_555
C10HC C4HC 1_555 1_555
O1HC C1HC 1_555 1_555
O2HC C1HC 1_555 1_555
O4HC C10HC 1_555 1_555
O5HC C10HC 1_555 1_555
O6HC C6HC 1_555 1_555
C1IC C2IC 1_555 1_555
C2IC C3IC 1_555 1_555
C3IC H1IC 1_555 1_555
C4IC C3IC 1_555 1_555
C5IC C4IC 1_555 1_555
H2IC C5IC 1_555 1_555
C6IC C5IC 1_555 1_555
C7IC C2IC 1_555 1_555
H3IC C7IC 1_555 1_555
C8IC C9 1_555 1_555
H4IC C8IC 1_555 1_555
H5IC C8IC 1_555 1_555
C10IC C4IC 1_555 1_555
O1IC C1IC 1_555 1_555
O2IC C1IC 1_555 1_555
O4IC C10IC 1_555 1_555
O5IC C10IC 1_555 1_555
O6IC C6IC 1_555 1_555
O3CA P1 1_555 1_555
O3EC P1 1_555 1_555
Zn1A O1A 1_555 1_555
Zn2A O2A 1_555 1_555
C1D C2D 1_555 1_555
C2D C3D 1_555 1_555
C3D H1D 1_555 1_555
C4D C3D 1_555 1_555
C5D C4D 1_555 1_555
H2D C5D 1_555 1_555
C6D C5D 1_555 1_555
C7D C2D 1_555 1_555
H3D C7D 1_555 1_555
C8D H4D 1_555 1_555
H5D C8D 1_555 1_555
C9D C8D 1_555 1_555
C10D C4D 1_555 1_555
O1D C1D 1_555 1_555
O2D C1D 1_555 1_555
O3D Zn1D 1_555 1_555
O4D C10D 1_555 1_555
O5D C10D 1_555 1_555
O6D C6D 1_555 1_555
Zn1D O1D 1_555 1_555
Zn2D O3EC 1_555 1_555
P1D O3D 1_555 1_555
C1E C2E 1_555 1_555
C2E C3E 1_555 1_555
C3E H1E 1_555 1_555
C4E C3E 1_555 1_555
C5E C4E 1_555 1_555
H2E C5E 1_555 1_555
C6E C5E 1_555 1_555
C7E C2E 1_555 1_555
H3E C7E 1_555 1_555
C8E C9D 1_555 1_555
H4E C8E 1_555 1_555
H5E C8E 1_555 1_555
C10E C4E 1_555 1_555
O1E C1E 1_555 1_555
O2E C1E 1_555 1_555
O4E C10E 1_555 1_555
O5E C10E 1_555 1_555
O6E C6E 1_555 1_555
C1TA C2TA 1_555 1_555
C2TA C3TA 1_555 1_555
C3TA H1TA 1_555 1_555
C4TA C3TA 1_555 1_555
C5TA C4TA 1_555 1_555
H2TA C5TA 1_555 1_555
C6TA C5TA 1_555 1_555
C7TA C2TA 1_555 1_555
H3TA C7TA 1_555 1_555
C8TA C9D 1_555 1_555
H4TA C8TA 1_555 1_555
H5TA C8TA 1_555 1_555
C10TA C4TA 1_555 1_555
O1TA C1TA 1_555 1_555
O2TA C1TA 1_555 1_555
O4TA C10TA 1_555 1_555
O5TA C10TA 1_555 1_555
O6TA C6TA 1_555 1_555
C1UA C2UA 1_555 1_555
C2UA C3UA 1_555 1_555
C3UA H1UA 1_555 1_555
C4UA C3UA 1_555 1_555
C5UA C4UA 1_555 1_555
H2UA C5UA 1_555 1_555
C6UA C5UA 1_555 1_555
C7UA C2UA 1_555 1_555
H3UA C7UA 1_555 1_555
C8UA C9D 1_555 1_555
H4UA C8UA 1_555 1_555
H5UA C8UA 1_555 1_555
C10UA C4UA 1_555 1_555
O1UA C1UA 1_555 1_555
O2UA C1UA 1_555 1_555
O4UA C10UA 1_555 1_555
O5UA C10UA 1_555 1_555
O6UA C6UA 1_555 1_555
O3EB P1D 1_555 1_555
O3AA P1D 1_555 1_555
Zn1E O1E 1_555 1_555
O3H Zn1H 1_555 1_555
Zn1H O1H 1_555 1_555
Zn2H O3AA 1_555 1_555
P1H O3H 1_555 1_555
O3UB P1H 1_555 1_555
O3CB Zn2 1_555 1_555
C1Q C2Q 1_555 1_555
C2Q C3Q 1_555 1_555
C3Q H1Q 1_555 1_555
C4Q C3Q 1_555 1_555
C5Q C4Q 1_555 1_555
H2Q C5Q 1_555 1_555
C6Q C5Q 1_555 1_555
C7Q C2Q 1_555 1_555
H3Q C7Q 1_555 1_555
C8Q H4Q 1_555 1_555
H5Q C8Q 1_555 1_555
C9P C8Q 1_555 1_555
C10Q C4Q 1_555 1_555
O1Q C1Q 1_555 1_555
O2Q C1Q 1_555 1_555
O4Q C10Q 1_555 1_555
O5Q C10Q 1_555 1_555
O6Q C6Q 1_555 1_555
Zn1Q O5 1_555 1_555
C1P C2P 1_555 1_555
C2P C3P 1_555 1_555
C3P H1P 1_555 1_555
C4P C3P 1_555 1_555
C5P C4P 1_555 1_555
H2P C5P 1_555 1_555
C6P C5P 1_555 1_555
C7P C2P 1_555 1_555
H3P C7P 1_555 1_555
C8P C9P 1_555 1_555
H4P C8P 1_555 1_555
H5P C8P 1_555 1_555
C10P C4P 1_555 1_555
O1P C1P 1_555 1_555
O2P C1P 1_555 1_555
O4P C10P 1_555 1_555
O5P C10P 1_555 1_555
O6P C6P 1_555 1_555
C1GB C2GB 1_555 1_555
C2GB C3GB 1_555 1_555
C3GB H1GB 1_555 1_555
C4GB C3GB 1_555 1_555
C5GB C4GB 1_555 1_555
H2GB C5GB 1_555 1_555
C6GB C5GB 1_555 1_555
C7GB C2GB 1_555 1_555
H3GB C7GB 1_555 1_555
C8GB C9P 1_555 1_555
H4GB C8GB 1_555 1_555
H5GB C8GB 1_555 1_555
C10GB C4GB 1_555 1_555
O1GB C1GB 1_555 1_555
O2GB C1GB 1_555 1_555
O4GB C10GB 1_555 1_555
O5GB C10GB 1_555 1_555
O6GB C6GB 1_555 1_555
C1FB C2FB 1_555 1_555
C2FB C3FB 1_555 1_555
C3FB H1FB 1_555 1_555
C4FB C3FB 1_555 1_555
C5FB C4FB 1_555 1_555
H2FB C5FB 1_555 1_555
C6FB C5FB 1_555 1_555
C7FB C2FB 1_555 1_555
H3FB C7FB 1_555 1_555
C8FB C9P 1_555 1_555
H4FB C8FB 1_555 1_555
H5FB C8FB 1_555 1_555
C10FB C4FB 1_555 1_555
O1FB C1FB 1_555 1_555
O2FB C1FB 1_555 1_555
O4FB C10FB 1_555 1_555
O5FB C10FB 1_555 1_555
O6FB C6FB 1_555 1_555
Zn1P O1P 1_555 1_555
O3UA Zn1UA 1_555 1_555
Zn1UA O4 1_555 1_555
P1Q O3UA 1_555 1_555
O3HB P1Q 1_555 1_555
O3Q Zn1Q 1_555 1_555
Zn1RA O4A 1_555 1_555
Zn1S O5A 1_555 1_555
Zn1HC O1HC 1_555 1_555
Zn1GA O4HC 1_555 1_555
O1S Zn1S 1_555 1_555
O1GA Zn1GA 1_555 1_555
O1RA Zn1RA 1_555 1_555
O2H Zn2H 1_555 1_555
O2AA Zn2H 1_555 1_555
O2GA Zn2A 1_555 1_555
O2HA Zn2 1_555 1_555
O2XA Zn2D 1_555 1_555
O2AB Zn2A 1_555 1_555
O2CB Zn2 1_555 1_555
O2ZB Zn2H 1_555 1_555
O2EC Zn2D 1_555 1_555
O3A Zn1A 1_555 1_555
O3E Zn1E 1_555 1_555
O3P Zn1P 1_555 1_555
O3S Zn1S 1_555 1_555
O3GA Zn2A 1_555 1_555
O3HA Zn2 1_555 1_555
O3RA Zn1RA 1_555 1_555
O3XA Zn2D 1_555 1_555
O3AB Zn2A 1_555 1_555
O3ZB Zn2H 1_555 1_555
O3HC Zn1HC 1_555 1_555
O4K Zn1HC 1_555 1_555
O4OA Zn1D 1_555 1_555
O4PA Zn1E 1_555 1_555
O4ZA Zn1S 1_555 1_555
O4AB Zn1P 1_555 1_555
O4BB Zn1Q 1_555 1_555
O4IB Zn1H 1_555 1_555
O4OC Zn1 1_555 1_555
O4PC Zn1A 1_555 1_555
O5B Zn1P 1_555 1_555
O5L Zn1E 1_555 1_555
O5N Zn1D 1_555 1_555
O5P_2 Zn1A 1_555 1_555
O5R Zn1 1_555 1_555
O5V Zn1H 1_555 1_555
O5GA Zn1UA 1_555 1_555
O5HA Zn1RA 1_555 1_555
O5RA Zn1GA 1_555 1_555
O5AC Zn1HC 1_555 1_555
Zn1A_2 O5P 1_555 1_555
Zn1C O5Q 1_555 1_555
Zn1M O5D 1_555 1_555
Zn1O O5E 1_555 1_555
Zn1AA O3AA 1_555 1_555
Zn1BA O4Q 1_555 1_555
Zn1CA O3CA 1_555 1_555
Zn1EA O4P 1_555 1_555
Zn1FA O5TA 1_555 1_555
Zn1HA O4IC 1_555 1_555
Zn1KA O4FB 1_555 1_555
Zn1LA O4GB 1_555 1_555
Zn1TA O1TA 1_555 1_555
Zn1WA O4TA 1_555 1_555
Zn1XA O4UA 1_555 1_555
Zn1CB O3CB 1_555 1_555
Zn1EB O3EB 1_555 1_555
Zn1FB O1FB 1_555 1_555
Zn1GB O1GB 1_555 1_555
Zn1HB O3HB 1_555 1_555
Zn1LB O4E 1_555 1_555
Zn1OB O4D 1_555 1_555
Zn1PB O5FB 1_555 1_555
Zn1RB O5GB 1_555 1_555
Zn1UB O3UB 1_555 1_555
Zn1XB O5HC 1_555 1_555
Zn1ZB O5IC 1_555 1_555
Zn1EC O3EC 1_555 1_555
Zn1IC O1IC 1_555 1_555
Zn2E O2E 1_555 1_555
Zn2P O2P 1_555 1_555
Zn2Q O2Q 1_555 1_555
Zn2V O3HB 1_555 1_555
Zn2BA O2GB 1_555 1_555
Zn2CA O3CA 1_555 1_555
Zn2EA O2FB 1_555 1_555
Zn2RA O2IC 1_555 1_555
Zn2TA O2TA 1_555 1_555
Zn2UA O2HC 1_555 1_555
C6 C7 1_555 1_555
C8 O6 1_555 1_555
O3 Zn2 1_555 1_555
C6A C7A 1_555 1_555
C8A O6A 1_555 1_555
C6HC C7HC 1_555 1_555
C8HC O6HC 1_555 1_555
C6IC C7IC 1_555 1_555
C8IC O6IC 1_555 1_555
Zn2A O3A 1_555 1_555
C6D C7D 1_555 1_555
C8D O6D 1_555 1_555
O2D Zn2D 1_555 1_555
O3D Zn2D 1_555 1_555
C6E C7E 1_555 1_555
C8E O6E 1_555 1_555
C6TA C7TA 1_555 1_555
C8TA O6TA 1_555 1_555
C6UA C7UA 1_555 1_555
C8UA O6UA 1_555 1_555
O1UA Zn1UA 1_555 1_555
O2UA Zn2UA 1_555 1_555
O5UA Zn1HA 1_555 1_555
O3EB Zn2CA 1_555 1_555
O3H Zn2H 1_555 1_555
P1H O3CB 1_555 1_555
O3UB Zn2CA 1_555 1_555
C6Q C7Q 1_555 1_555
C8Q O6Q 1_555 1_555
O1Q Zn1Q 1_555 1_555
C6P C7P 1_555 1_555
C8P O6P 1_555 1_555
C6GB C7GB 1_555 1_555
C8GB O6GB 1_555 1_555
C6FB C7FB 1_555 1_555
C8FB O6FB 1_555 1_555
O3UA Zn2UA 1_555 1_555
P1Q O3Q 1_555 1_555
O3Q Zn2Q 1_555 1_555
Zn1GA O3GA 1_555 1_555
O3E Zn2E 1_555 1_555
O3P Zn2P 1_555 1_555
O3HA Zn1HA 1_555 1_555
O3RA Zn2RA 1_555 1_555
O3XA Zn1XA 1_555 1_555
O3ZB Zn1ZB 1_555 1_555
O3HC Zn2UA 1_555 1_555

#END
