
#######################################################################
#
#                 Cambridge Crystallographic Data Centre
#                                CCDC 
#
#######################################################################
#
# If this CIF has been generated from an entry in the Cambridge 
# Structural Database, then it will include bibliographic, chemical, 
# crystal, experimental, refinement or atomic coordinate data resulting 
# from the CCDC's data processing and validation procedures.
#
#######################################################################

data_NILROP
_symmetry_cell_setting           monoclinic
_symmetry_space_group_name_H-M   'P 21/n'
_symmetry_Int_Tables_number      14
_space_group_name_Hall           '-P 2yn'
loop_
_symmetry_equiv_pos_site_id
_symmetry_equiv_pos_as_xyz
1 x,y,z
2 1/2-x,1/2+y,1/2-z
3 -x,-y,-z
4 1/2+x,1/2-y,1/2+z
_cell_length_a                   12.615(2)
_cell_length_b                   9.514(1)
_cell_length_c                   13.721(1)
_cell_angle_alpha                90
_cell_angle_beta                 116.58(1)
_cell_angle_gamma                90
_cell_volume                     1472.73
loop_
_atom_site_label
_atom_site_type_symbol
_atom_site_fract_x
_atom_site_fract_y
_atom_site_fract_z
Cu1 Cu 0.23252(2) 0.24655(3) 0.45955(2)
N1 N 0.3702(2) 0.4689(2) 0.3845(2)
N2 N 0.3452(2) 0.2252(2) 0.39884(14)
N3 N 0.2122(2) 0.4487(2) 0.43063(15)
N4 N 0.4985(2) 0.2984(2) 0.7308(2)
O1 O 0.4546(2) 0.2120(2) 0.7664(2)
O2 O 0.4536(2) 0.3306(2) 0.63201(14)
O3 O 0.5915(2) 0.3609(2) 0.7925(2)
O4 O 0.1444(2) 0.2252(2) 0.5484(2)
O5 O 0.24595(15) 0.0557(2) 0.52834(14)
C1 C 0.3786(2) 0.0925(3) 0.3882(2)
C2 C 0.4671(3) 0.0645(3) 0.3604(2)
C3 C 0.5261(2) 0.1738(4) 0.3426(2)
C4 C 0.4939(2) 0.3084(4) 0.3509(2)
C5 C 0.4010(2) 0.3318(2) 0.3784(2)
C6 C 0.2826(2) 0.5278(2) 0.4044(2)
C7 C 0.2699(2) 0.6750(3) 0.3965(2)
C8 C 0.1850(3) 0.7371(3) 0.4159(2)
C9 C 0.1099(3) 0.6557(3) 0.4410(2)
C10 C 0.1259(2) 0.5138(3) 0.4475(2)
C11 C 0.1814(2) 0.1006(3) 0.5694(2)
C12 C 0.1494(3) 0.0096(3) 0.6420(3)
H1 H 0.1524(3) -0.0871(3) 0.6234(3)
H2 H 0.0692(3) 0.0304(3) 0.6273(3)
C13 C 0.2233(4) 0.0268(5) 0.7539(3)
H3 H 0.1984(4) -0.0336(5) 0.7958(3)
H4 H 0.3032(4) 0.0042(5) 0.7686(3)
H5 H 0.2195(4) 0.1229(5) 0.7734(3)
H6 H 0.3386(22) 0.0212(26) 0.3967(19)
H7 H 0.4817(26) -0.0126(30) 0.3564(24)
H8 H 0.5871(27) 0.1719(31) 0.3245(22)
H9 H 0.5304(24) 0.3713(30) 0.3418(22)
H10 H 0.3183(27) 0.7286(28) 0.3854(24)
H11 H 0.1788(22) 0.8236(28) 0.4125(20)
H12 H 0.0560(27) 0.6841(35) 0.4570(24)
H13 H 0.0781(21) 0.4538(27) 0.4644(19)
H14 H 0.4066(22) 0.5186(25) 0.3739(19)
O3C O 0.0915(2) 0.1391(2) 0.2925(2)
Cu1C Cu 0.73252(2) 0.25345(3) 0.95955(2)
loop_
_geom_bond_atom_site_label_1
_geom_bond_atom_site_label_2
_geom_bond_site_symmetry_1
_geom_bond_site_symmetry_2
Cu1 N2 1_555 1_555
N1 C5 1_555 1_555
N2 C1 1_555 1_555
N3 Cu1 1_555 1_555
N4 O1 1_555 1_555
O2 Cu1 1_555 1_555
O3 N4 1_555 1_555
O4 Cu1 1_555 1_555
O5 Cu1 1_555 1_555
C1 C2 1_555 1_555
C2 C3 1_555 1_555
C3 C4 1_555 1_555
C4 C5 1_555 1_555
C5 N2 1_555 1_555
C6 N1 1_555 1_555
C7 C6 1_555 1_555
C8 C7 1_555 1_555
C9 C8 1_555 1_555
C10 N3 1_555 1_555
C11 O4 1_555 1_555
C12 C11 1_555 1_555
H1 C12 1_555 1_555
H2 C12 1_555 1_555
C13 C12 1_555 1_555
H3 C13 1_555 1_555
H4 C13 1_555 1_555
H5 C13 1_555 1_555
H6 C1 1_555 1_555
H7 C2 1_555 1_555
H8 C3 1_555 1_555
H9 C4 1_555 1_555
H10 C7 1_555 1_555
H11 C8 1_555 1_555
H12 C9 1_555 1_555
H13 C10 1_555 1_555
H14 N1 1_555 1_555
O3C Cu1 1_555 1_555
Cu1C O3 1_555 1_555
N3 C6 1_555 1_555
N4 O2 1_555 1_555
O5 C11 1_555 1_555
C9 C10 1_555 1_555

#END
