
#######################################################################
#
#                 Cambridge Crystallographic Data Centre
#                                CCDC 
#
#######################################################################
#
# If this CIF has been generated from an entry in the Cambridge 
# Structural Database, then it will include bibliographic, chemical, 
# crystal, experimental, refinement or atomic coordinate data resulting 
# from the CCDC's data processing and validation procedures.
#
#######################################################################

data_NILZOZ
_symmetry_cell_setting           monoclinic
_symmetry_space_group_name_H-M   'P 21/c'
_symmetry_Int_Tables_number      14
_space_group_name_Hall           '-P 2ybc'
loop_
_symmetry_equiv_pos_site_id
_symmetry_equiv_pos_as_xyz
1 x,y,z
2 -x,1/2+y,1/2-z
3 -x,-y,-z
4 x,1/2-y,1/2+z
_cell_length_a                   19.6238(8)
_cell_length_b                   9.2933(4)
_cell_length_c                   22.3113(9)
_cell_angle_alpha                90
_cell_angle_beta                 114.138(2)
_cell_angle_gamma                90
_cell_volume                     3713.14
loop_
_atom_site_label
_atom_site_type_symbol
_atom_site_fract_x
_atom_site_fract_y
_atom_site_fract_z
Cu1 Cu 0.33551(3) 0.56605(7) 0.26760(3)
Cu2 Cu 0.17697(3) 0.46799(7) 0.26098(3)
Br1 Br 0.21048(2) 0.66339(6) 0.19791(2)
Br2 Br 0.30517(2) 0.40239(6) 0.34358(2)
S1 S 0.58925(6) 0.23715(14) 0.16551(6)
S2 S 0.37104(6) 0.41987(14) 0.20225(6)
S3 S 0.12501(6) 0.59672(14) 0.32133(6)
S4 S -0.11549(6) 0.79089(14) 0.31186(6)
O1 O 0.40522(16) 0.3350(4) 0.04344(16)
O2 O 0.29400(18) 0.3285(4) 0.05216(16)
O3 O 0.14598(18) 0.7919(4) 0.46007(16)
O4 O 0.06770(16) 0.8848(4) 0.50666(15)
C1 C 0.4448(2) 0.3177(6) 0.0055(2)
C2 C 0.4279(3) 0.3926(6) -0.0524(2)
H1 H 0.3863 0.4561 -0.0687
C3 C 0.4726(3) 0.3737(6) -0.0864(3)
H2 H 0.4616 0.4249 -0.1261
C4 C 0.5332(3) 0.2809(7) -0.0632(3)
H3 H 0.5633 0.2680 -0.0870
C5 C 0.5494(3) 0.2070(6) -0.0048(3)
H4 H 0.5912 0.1440 0.0113
C6 C 0.5056(3) 0.2237(6) 0.0303(2)
C7 C 0.5236(3) 0.1413(6) 0.0929(2)
H5 H 0.5453 0.0470 0.0896
H6 H 0.4768 0.1229 0.0984
C8 C 0.5288(2) 0.3233(5) 0.1988(2)
H7 H 0.5589 0.3942 0.2322
H8 H 0.4897 0.3774 0.1629
C9 C 0.4908(3) 0.2250(6) 0.2297(3)
H9 H 0.5290 0.1666 0.2643
H10 H 0.4572 0.1585 0.1958
C10 C 0.4454(3) 0.3096(6) 0.2598(2)
H11 H 0.4799 0.3725 0.2949
H12 H 0.4233 0.2405 0.2806
C11 C 0.2925(2) 0.2943(6) 0.1735(2)
H13 H 0.2850 0.2581 0.2121
H14 H 0.2469 0.3479 0.1457
C12 C 0.3001(2) 0.1670(6) 0.1351(2)
C13 C 0.3023(3) 0.0269(6) 0.1576(3)
H15 H 0.3006 0.0108 0.1990
C14 C 0.3070(3) -0.0890(6) 0.1211(3)
H16 H 0.3095 -0.1838 0.1378
C15 C 0.3081(3) -0.0679(6) 0.0603(3)
H17 H 0.3106 -0.1483 0.0349
C16 C 0.3056(3) 0.0692(6) 0.0362(3)
H18 H 0.3073 0.0833 -0.0053
C17 C 0.3007(2) 0.1874(6) 0.0727(2)
C18 C 0.3276(3) 0.3665(6) 0.0097(2)
H19 H 0.3201 0.4701 -0.0013
H20 H 0.3056 0.3103 -0.0316
C19 C 0.1563(2) 0.9035(5) 0.4240(2)
C20 C 0.1374(3) 1.0460(6) 0.4285(3)
H21 H 0.1154 1.0717 0.4578
C21 C 0.1505(3) 1.1503(6) 0.3903(3)
H22 H 0.1380 1.2477 0.3939
C22 C 0.1818(3) 1.1140(6) 0.3469(3)
H23 H 0.1915 1.1860 0.3212
C23 C 0.1990(3) 0.9700(7) 0.3415(2)
H24 H 0.2198 0.9444 0.3112
C24 C 0.1863(2) 0.8636(5) 0.3794(2)
C25 C 0.2051(2) 0.7100(6) 0.3710(2)
H25 H 0.2303 0.6658 0.4150
H26 H 0.2412 0.7100 0.3503
C26 C 0.0629(2) 0.7161(5) 0.2574(2)
H27 H 0.0939 0.7856 0.2459
H28 H 0.0350 0.6578 0.2178
C27 C 0.0064(2) 0.8010(5) 0.2750(2)
H29 H 0.0334 0.8738 0.3088
H30 H -0.0284 0.8526 0.2355
C28 C -0.0384(2) 0.7039(5) 0.3007(2)
H31 H -0.0040 0.6632 0.3434
H32 H -0.0585 0.6226 0.2698
C29 C -0.0668(3) 0.8745(5) 0.3915(2)
H33 H -0.0185 0.9128 0.3942
H34 H -0.0967 0.9568 0.3953
C30 C -0.0518(2) 0.7736(5) 0.4489(2)
C31 C -0.1050(3) 0.6772(6) 0.4499(3)
H35 H -0.1504 0.6673 0.4119
C32 C -0.0940(3) 0.5949(6) 0.5047(3)
H36 H -0.1316 0.5293 0.5038
C33 C -0.0289(3) 0.6072(6) 0.5605(3)
H37 H -0.0214 0.5507 0.5982
C34 C 0.0259(3) 0.7033(6) 0.5613(2)
H38 H 0.0708 0.7136 0.5997
C35 C 0.0145(2) 0.7837(5) 0.5058(2)
C36 C 0.1395(2) 0.8304(6) 0.5192(2)
H39 H 0.1493 0.7448 0.5480
H40 H 0.1774 0.9042 0.5426
Cu1A Cu 0.66449(3) 0.06605(7) 0.23240(3)
Cu2A Cu -0.17697(3) 0.96799(7) 0.23902(3)
S1A S 0.41075(6) 0.73715(14) 0.33449(6)
S4A S 0.11549(6) 0.29089(14) 0.18814(6)
loop_
_geom_bond_atom_site_label_1
_geom_bond_atom_site_label_2
_geom_bond_site_symmetry_1
_geom_bond_site_symmetry_2
Cu1 Br1 1_555 1_555
Cu2 Br1 1_555 1_555
Br2 Cu1 1_555 1_555
S1 C7 1_555 1_555
S2 Cu1 1_555 1_555
S3 Cu2 1_555 1_555
S4 C28 1_555 1_555
O1 C1 1_555 1_555
O2 C17 1_555 1_555
O3 C19 1_555 1_555
O4 C35 1_555 1_555
C1 C2 1_555 1_555
C2 H1 1_555 1_555
C3 C2 1_555 1_555
H2 C3 1_555 1_555
C4 C3 1_555 1_555
H3 C4 1_555 1_555
C5 C4 1_555 1_555
H4 C5 1_555 1_555
C6 C1 1_555 1_555
C7 C6 1_555 1_555
H5 C7 1_555 1_555
H6 C7 1_555 1_555
C8 S1 1_555 1_555
H7 C8 1_555 1_555
H8 C8 1_555 1_555
C9 C8 1_555 1_555
H9 C9 1_555 1_555
H10 C9 1_555 1_555
C10 S2 1_555 1_555
H11 C10 1_555 1_555
H12 C10 1_555 1_555
C11 S2 1_555 1_555
H13 C11 1_555 1_555
H14 C11 1_555 1_555
C12 C11 1_555 1_555
C13 C12 1_555 1_555
H15 C13 1_555 1_555
C14 C13 1_555 1_555
H16 C14 1_555 1_555
C15 C14 1_555 1_555
H17 C15 1_555 1_555
C16 C15 1_555 1_555
H18 C16 1_555 1_555
C17 C12 1_555 1_555
C18 O1 1_555 1_555
H19 C18 1_555 1_555
H20 C18 1_555 1_555
C19 C20 1_555 1_555
C20 H21 1_555 1_555
C21 C20 1_555 1_555
H22 C21 1_555 1_555
C22 C21 1_555 1_555
H23 C22 1_555 1_555
C23 C22 1_555 1_555
H24 C23 1_555 1_555
C24 C19 1_555 1_555
C25 S3 1_555 1_555
H25 C25 1_555 1_555
H26 C25 1_555 1_555
C26 S3 1_555 1_555
H27 C26 1_555 1_555
H28 C26 1_555 1_555
C27 C26 1_555 1_555
H29 C27 1_555 1_555
H30 C27 1_555 1_555
C28 C27 1_555 1_555
H31 C28 1_555 1_555
H32 C28 1_555 1_555
C29 S4 1_555 1_555
H33 C29 1_555 1_555
H34 C29 1_555 1_555
C30 C29 1_555 1_555
C31 C30 1_555 1_555
H35 C31 1_555 1_555
C32 C31 1_555 1_555
H36 C32 1_555 1_555
C33 C32 1_555 1_555
H37 C33 1_555 1_555
C34 C33 1_555 1_555
H38 C34 1_555 1_555
C35 C30 1_555 1_555
C36 O3 1_555 1_555
H39 C36 1_555 1_555
H40 C36 1_555 1_555
Cu1A S1 1_555 1_555
Cu2A S4 1_555 1_555
S1A Cu1 1_555 1_555
S4A Cu2 1_555 1_555
Cu2 Br2 1_555 1_555
O2 C18 1_555 1_555
O4 C36 1_555 1_555
C5 C6 1_555 1_555
C9 C10 1_555 1_555
C16 C17 1_555 1_555
C23 C24 1_555 1_555
C24 C25 1_555 1_555
C34 C35 1_555 1_555

#END
