
#######################################################################
#
#                 Cambridge Crystallographic Data Centre
#                                CCDC 
#
#######################################################################
#
# If this CIF has been generated from an entry in the Cambridge 
# Structural Database, then it will include bibliographic, chemical, 
# crystal, experimental, refinement or atomic coordinate data resulting 
# from the CCDC's data processing and validation procedures.
#
#######################################################################

data_NILZUF
_symmetry_cell_setting           monoclinic
_symmetry_space_group_name_H-M   'P 21/c'
_symmetry_Int_Tables_number      14
_space_group_name_Hall           '-P 2ybc'
loop_
_symmetry_equiv_pos_site_id
_symmetry_equiv_pos_as_xyz
1 x,y,z
2 -x,1/2+y,1/2-z
3 -x,-y,-z
4 x,1/2-y,1/2+z
_cell_length_a                   11.814(12)
_cell_length_b                   14.973(15)
_cell_length_c                   11.418(12)
_cell_angle_alpha                90
_cell_angle_beta                 105.401(19)
_cell_angle_gamma                90
_cell_volume                     1947.21
loop_
_atom_site_label
_atom_site_type_symbol
_atom_site_fract_x
_atom_site_fract_y
_atom_site_fract_z
Cu1 Cu 0.67299(11) 1.22213(6) 0.78086(11)
O1 O 0.9287(5) 0.8905(3) 0.9572(5)
O2 O 0.7895(6) 0.7952(3) 0.8337(6)
S1 S 0.6545(2) 1.10238(12) 0.9083(2)
S2 S 0.4988(2) 0.80626(12) 0.7567(2)
S3 S 0.8218(2) 1.20054(13) 0.4330(2)
N1 N 0.7308(7) 1.2035(4) 0.6391(8)
C1 C 0.8996(8) 0.9192(5) 1.0618(8)
C2 C 0.9448(8) 0.8779(5) 1.1730(8)
H1 H 0.9885 0.8242 1.1764
C3 C 0.9278(9) 0.9128(5) 1.2790(9)
H2 H 0.9581 0.8839 1.3549
C4 C 0.8639(8) 0.9930(5) 1.2701(9)
H3 H 0.8508 1.0188 1.3414
C5 C 0.8208(8) 1.0337(5) 1.1616(9)
H4 H 0.7784 1.0879 1.1593
C6 C 0.8358(8) 0.9994(5) 1.0524(8)
C7 C 0.7953(8) 1.0474(5) 0.9331(8)
H5 H 0.7907 1.0039 0.8667
H6 H 0.8549 1.0927 0.9282
C8 C 0.5539(8) 1.0114(5) 0.8492(8)
H7 H 0.5794 0.9580 0.9006
H8 H 0.4748 1.0281 0.8558
C9 C 0.5453(9) 0.9865(5) 0.7170(8)
H9 H 0.6233 0.9668 0.7103
H10 H 0.5225 1.0401 0.6652
C10 C 0.4543(8) 0.9111(5) 0.6700(8)
H11 H 0.4473 0.9002 0.5828
H12 H 0.3764 0.9302 0.6781
C11 C 0.5815(8) 0.7507(5) 0.6632(9)
H13 H 0.6196 0.6969 0.7070
H14 H 0.5256 0.7303 0.5871
C12 C 0.6736(8) 0.8069(5) 0.6313(8)
C13 C 0.6540(8) 0.8405(5) 0.5152(9)
H15 H 0.5840 0.8247 0.4557
C14 C 0.7348(10) 0.8972(6) 0.4832(10)
H16 H 0.7197 0.9208 0.4034
C15 C 0.8372(9) 0.9182(6) 0.5700(9)
H17 H 0.8930 0.9558 0.5481
C16 C 0.8611(9) 0.8864(5) 0.6878(9)
H18 H 0.9319 0.9020 0.7462
C17 C 0.7774(9) 0.8300(5) 0.7191(8)
C18 C 0.8999(9) 0.8009(5) 0.9170(9)
H19 H 0.9602 0.7780 0.8787
H20 H 0.9010 0.7627 0.9880
C19 C 0.7687(8) 1.2032(5) 0.5505(9)
Cu1A Cu 0.32701(11) 0.72213(6) 0.71914(11)
Cu1C Cu 0.67299(11) 1.27787(6) 0.28086(11)
S2A S 0.5012(2) 1.30626(12) 0.7433(2)
S3C S 0.8218(2) 1.29946(13) 0.9330(2)
loop_
_geom_bond_atom_site_label_1
_geom_bond_atom_site_label_2
_geom_bond_site_symmetry_1
_geom_bond_site_symmetry_2
Cu1 S1 1_555 1_555
O1 C1 1_555 1_555
O2 C17 1_555 1_555
S1 C7 1_555 1_555
S2 C10 1_555 1_555
S3 C19 1_555 1_555
N1 Cu1 1_555 1_555
C1 C2 1_555 1_555
C2 H1 1_555 1_555
C3 C2 1_555 1_555
H2 C3 1_555 1_555
C4 C3 1_555 1_555
H3 C4 1_555 1_555
C5 C4 1_555 1_555
H4 C5 1_555 1_555
C6 C1 1_555 1_555
C7 C6 1_555 1_555
H5 C7 1_555 1_555
H6 C7 1_555 1_555
C8 S1 1_555 1_555
H7 C8 1_555 1_555
H8 C8 1_555 1_555
C9 C8 1_555 1_555
H9 C9 1_555 1_555
H10 C9 1_555 1_555
C10 C9 1_555 1_555
H11 C10 1_555 1_555
H12 C10 1_555 1_555
C11 S2 1_555 1_555
H13 C11 1_555 1_555
H14 C11 1_555 1_555
C12 C11 1_555 1_555
C13 C12 1_555 1_555
H15 C13 1_555 1_555
C14 C13 1_555 1_555
H16 C14 1_555 1_555
C15 C14 1_555 1_555
H17 C15 1_555 1_555
C16 C15 1_555 1_555
H18 C16 1_555 1_555
C17 C12 1_555 1_555
C18 O1 1_555 1_555
H19 C18 1_555 1_555
H20 C18 1_555 1_555
C19 N1 1_555 1_555
Cu1A S2 1_555 1_555
Cu1C S3 1_555 1_555
S2A Cu1 1_555 1_555
S3C Cu1 1_555 1_555
O2 C18 1_555 1_555
C5 C6 1_555 1_555
C16 C17 1_555 1_555

#END
