
#######################################################################
#
#                 Cambridge Crystallographic Data Centre
#                                CCDC 
#
#######################################################################
#
# If this CIF has been generated from an entry in the Cambridge 
# Structural Database, then it will include bibliographic, chemical, 
# crystal, experimental, refinement or atomic coordinate data resulting 
# from the CCDC's data processing and validation procedures.
#
#######################################################################

data_NIMBES
_symmetry_cell_setting           monoclinic
_symmetry_space_group_name_H-M   'P 21/c'
_symmetry_Int_Tables_number      14
_space_group_name_Hall           '-P 2ybc'
loop_
_symmetry_equiv_pos_site_id
_symmetry_equiv_pos_as_xyz
1 x,y,z
2 -x,1/2+y,1/2-z
3 -x,-y,-z
4 x,1/2-y,1/2+z
_cell_length_a                   12.9144(3)
_cell_length_b                   8.0371(2)
_cell_length_c                   25.7905(6)
_cell_angle_alpha                90
_cell_angle_beta                 100.2430(10)
_cell_angle_gamma                90
_cell_volume                     2634.24
loop_
_atom_site_label
_atom_site_type_symbol
_atom_site_fract_x
_atom_site_fract_y
_atom_site_fract_z
Hg1 Hg 0.09103(5) 0.79086(9) 0.70396(2)
Hg2 Hg 0.08539(5) 0.72509(9) 0.56227(2)
I1 I -0.10956(8) 0.74530(12) 0.71547(5)
I2 I 0.14953(8) 0.50346(11) 0.64626(4)
I3 I 0.12859(8) 1.01712(11) 0.62661(4)
I4 I -0.11417(8) 0.72905(13) 0.51233(4)
S1 S 0.2217(3) 0.8048(5) 1.00104(14)
S2 S 0.2246(3) 0.8179(4) 0.79005(13)
O1 O 0.4460(10) 0.7536(15) 0.9570(5)
O2 O 0.4457(10) 0.7712(15) 0.8733(4)
C1 C 0.4862(13) 0.739(2) 1.0093(7)
C2 C 0.5871(12) 0.7816(18) 1.0328(6)
H1 H 0.6348 0.8274 1.0125
C3 C 0.6176(16) 0.7567(17) 1.0860(7)
H2 H 0.6875 0.7840 1.1021
C4 C 0.5507(15) 0.694(2) 1.1164(7)
H3 H 0.5738 0.6800 1.1532
C5 C 0.4489(14) 0.6511(19) 1.0935(6)
H4 H 0.4017 0.6089 1.1147
C6 C 0.4164(13) 0.6699(19) 1.0397(7)
C7 C 0.3038(11) 0.6225(18) 1.0129(5)
H5 H 0.2733 0.5443 1.0358
H6 H 0.3061 0.5658 0.9791
C8 C 0.1396(12) 0.7598(18) 0.9367(5)
H7 H 0.1216 0.6400 0.9341
H8 H 0.0734 0.8246 0.9325
C9 C 0.2024(13) 0.808(2) 0.8936(5)
H9 H 0.2201 0.9280 0.8969
H10 H 0.2691 0.7447 0.8990
C10 C 0.1424(12) 0.7744(19) 0.8388(5)
H11 H 0.0787 0.8451 0.8320
H12 H 0.1197 0.6566 0.8360
C11 C 0.3016(10) 0.6258(19) 0.7956(6)
H13 H 0.3007 0.5747 0.8305
H14 H 0.2684 0.5465 0.7683
C12 C 0.4144(11) 0.6547(17) 0.7894(6)
C13 C 0.4509(13) 0.6067(19) 0.7448(6)
H15 H 0.4015 0.5665 0.7157
C14 C 0.5555(13) 0.6137(19) 0.7400(6)
H16 H 0.5779 0.5786 0.7085
C15 C 0.6260(13) 0.673(2) 0.7818(6)
H17 H 0.6988 0.6730 0.7799
C16 C 0.5933(14) 0.7335(19) 0.8275(7)
H18 H 0.6429 0.7812 0.8552
C17 C 0.4898(12) 0.7230(17) 0.8317(6)
C18 C 0.5113(12) 0.797(2) 0.9222(6)
H19 H 0.5741 0.7238 0.9263
H20 H 0.5341 0.9141 0.9267
Hg2C Hg 0.08539(5) 0.77491(9) 1.06227(2)
S1C S 0.2217(3) 0.6952(5) 0.50104(14)
loop_
_geom_bond_atom_site_label_1
_geom_bond_atom_site_label_2
_geom_bond_site_symmetry_1
_geom_bond_site_symmetry_2
Hg1 I1 1_555 1_555
Hg2 I2 1_555 1_555
I2 Hg1 1_555 1_555
I3 Hg1 1_555 1_555
I4 Hg2 1_555 1_555
S1 C7 1_555 1_555
S2 Hg1 1_555 1_555
O1 C1 1_555 1_555
O2 C17 1_555 1_555
C1 C2 1_555 1_555
C2 H1 1_555 1_555
C3 C2 1_555 1_555
H2 C3 1_555 1_555
C4 C3 1_555 1_555
H3 C4 1_555 1_555
C5 C4 1_555 1_555
H4 C5 1_555 1_555
C6 C1 1_555 1_555
C7 C6 1_555 1_555
H5 C7 1_555 1_555
H6 C7 1_555 1_555
C8 S1 1_555 1_555
H7 C8 1_555 1_555
H8 C8 1_555 1_555
C9 C8 1_555 1_555
H9 C9 1_555 1_555
H10 C9 1_555 1_555
C10 S2 1_555 1_555
H11 C10 1_555 1_555
H12 C10 1_555 1_555
C11 S2 1_555 1_555
H13 C11 1_555 1_555
H14 C11 1_555 1_555
C12 C11 1_555 1_555
C13 C12 1_555 1_555
H15 C13 1_555 1_555
C14 C13 1_555 1_555
H16 C14 1_555 1_555
C15 C14 1_555 1_555
H17 C15 1_555 1_555
C16 C15 1_555 1_555
H18 C16 1_555 1_555
C17 C12 1_555 1_555
C18 O1 1_555 1_555
H19 C18 1_555 1_555
H20 C18 1_555 1_555
Hg2C S1 1_555 1_555
S1C Hg2 1_555 1_555
Hg2 I3 1_555 1_555
O2 C18 1_555 1_555
C5 C6 1_555 1_555
C9 C10 1_555 1_555
C16 C17 1_555 1_555

#END
