
#######################################################################
#
#                 Cambridge Crystallographic Data Centre
#                                CCDC 
#
#######################################################################
#
# If this CIF has been generated from an entry in the Cambridge 
# Structural Database, then it will include bibliographic, chemical, 
# crystal, experimental, refinement or atomic coordinate data resulting 
# from the CCDC's data processing and validation procedures.
#
#######################################################################

data_NIMBAO
_symmetry_cell_setting           monoclinic
_symmetry_space_group_name_H-M   'P 21/c'
_symmetry_Int_Tables_number      14
_space_group_name_Hall           '-P 2ybc'
loop_
_symmetry_equiv_pos_site_id
_symmetry_equiv_pos_as_xyz
1 x,y,z
2 -x,1/2+y,1/2-z
3 -x,-y,-z
4 x,1/2-y,1/2+z
_cell_length_a                   12.9194(5)
_cell_length_b                   19.5010(6)
_cell_length_c                   8.3487(3)
_cell_angle_alpha                90
_cell_angle_beta                 93.550(2)
_cell_angle_gamma                90
_cell_volume                     2099.35
loop_
_atom_site_label
_atom_site_type_symbol
_atom_site_fract_x
_atom_site_fract_y
_atom_site_fract_z
Hg1 Hg 0.157774(17) 0.229449(10) 0.75589(2)
Br1 Br 0.01909(4) 0.23945(3) 1.03850(6)
Br2 Br 0.29402(5) 0.29781(3) 0.91457(7)
S1 S 0.53020(11) -0.03064(7) 0.70006(15)
S2 S 0.19300(10) 0.10091(6) 0.76448(13)
O1 O 0.2383(3) -0.1140(2) 0.6435(4)
O2 O 0.1082(3) -0.05814(18) 0.7544(4)
C1 C 0.2945(4) -0.1428(2) 0.7722(6)
C2 C 0.2497(5) -0.1734(3) 0.9033(6)
H1 H 0.1766 -0.1736 0.9100
C3 C 0.3141(6) -0.2036(3) 1.0239(7)
H2 H 0.2844 -0.2240 1.1136
C4 C 0.4193(5) -0.2043(3) 1.0147(7)
H3 H 0.4624 -0.2262 1.0956
C5 C 0.4619(5) -0.1729(3) 0.8869(6)
H4 H 0.5352 -0.1735 0.8815
C6 C 0.4025(4) -0.1405(3) 0.7660(6)
C7 C 0.4539(4) -0.1039(3) 0.6331(6)
H5 H 0.3997 -0.0885 0.5520
H6 H 0.4993 -0.1367 0.5803
C8 C 0.4324(5) 0.0358(3) 0.7186(6)
H7 H 0.4662 0.0810 0.7086
H8 H 0.3801 0.0312 0.6274
C9 C 0.3766(5) 0.0354(3) 0.8719(6)
H9 H 0.4280 0.0308 0.9643
H10 H 0.3297 -0.0047 0.8721
C10 C 0.3136(4) 0.1009(3) 0.8909(6)
H11 H 0.3560 0.1410 0.8628
H12 H 0.2971 0.1058 1.0046
C11 C 0.1036(4) 0.0652(2) 0.9047(5)
H13 H 0.1389 0.0284 0.9687
H14 H 0.0833 0.1015 0.9795
C12 C 0.0085(4) 0.0367(2) 0.8168(5)
C13 C -0.0858(4) 0.0711(3) 0.8132(6)
H15 H -0.0900 0.1146 0.8638
C14 C -0.1750(4) 0.0421(3) 0.7351(6)
H16 H -0.2393 0.0658 0.7338
C15 C -0.1691(4) -0.0208(3) 0.6605(6)
H17 H -0.2294 -0.0402 0.6074
C16 C -0.0754(4) -0.0559(3) 0.6627(6)
H18 H -0.0713 -0.0991 0.6108
C17 C 0.0123(4) -0.0274(3) 0.7412(5)
C18 C 0.1312(4) -0.1111(3) 0.6463(6)
H19 H 0.1037 -0.1555 0.6828
H20 H 0.0996 -0.1011 0.5378
Hg1C Hg 0.157774(17) 0.270551(10) 1.25589(2)
Br1C Br 0.01909(4) 0.26055(3) 0.53850(6)
loop_
_geom_bond_atom_site_label_1
_geom_bond_atom_site_label_2
_geom_bond_site_symmetry_1
_geom_bond_site_symmetry_2
Hg1 Br1 1_555 1_555
Br1 Hg1C 1_555 1_555
Br2 Hg1 1_555 1_555
S1 C7 1_555 1_555
S2 Hg1 1_555 1_555
O1 C1 1_555 1_555
O2 C17 1_555 1_555
C1 C2 1_555 1_555
C2 H1 1_555 1_555
C3 C2 1_555 1_555
H2 C3 1_555 1_555
C4 C3 1_555 1_555
H3 C4 1_555 1_555
C5 C4 1_555 1_555
H4 C5 1_555 1_555
C6 C1 1_555 1_555
C7 C6 1_555 1_555
H5 C7 1_555 1_555
H6 C7 1_555 1_555
C8 S1 1_555 1_555
H7 C8 1_555 1_555
H8 C8 1_555 1_555
C9 C8 1_555 1_555
H9 C9 1_555 1_555
H10 C9 1_555 1_555
C10 S2 1_555 1_555
H11 C10 1_555 1_555
H12 C10 1_555 1_555
C11 S2 1_555 1_555
H13 C11 1_555 1_555
H14 C11 1_555 1_555
C12 C11 1_555 1_555
C13 C12 1_555 1_555
H15 C13 1_555 1_555
C14 C13 1_555 1_555
H16 C14 1_555 1_555
C15 C14 1_555 1_555
H17 C15 1_555 1_555
C16 C15 1_555 1_555
H18 C16 1_555 1_555
C17 C12 1_555 1_555
C18 O1 1_555 1_555
H19 C18 1_555 1_555
H20 C18 1_555 1_555
Br1C Hg1 1_555 1_555
O2 C18 1_555 1_555
C5 C6 1_555 1_555
C9 C10 1_555 1_555
C16 C17 1_555 1_555

#END
