
#######################################################################
#
#                 Cambridge Crystallographic Data Centre
#                                CCDC 
#
#######################################################################
#
# If this CIF has been generated from an entry in the Cambridge 
# Structural Database, then it will include bibliographic, chemical, 
# crystal, experimental, refinement or atomic coordinate data resulting 
# from the CCDC's data processing and validation procedures.
#
#######################################################################

data_NIMBIV
_symmetry_cell_setting           orthorhombic
_symmetry_space_group_name_H-M   'C c c 2'
_symmetry_Int_Tables_number      37
_space_group_name_Hall           'C 2 -2c'
loop_
_symmetry_equiv_pos_site_id
_symmetry_equiv_pos_as_xyz
1 x,y,z
2 -x,-y,z
3 -x,y,1/2+z
4 x,-y,1/2+z
5 1/2+x,1/2+y,z
6 1/2-x,1/2-y,z
7 1/2-x,1/2+y,1/2+z
8 1/2+x,1/2-y,1/2+z
_cell_length_a                   14.311(5)
_cell_length_b                   20.398(7)
_cell_length_c                   10.832(4)
_cell_angle_alpha                90
_cell_angle_beta                 90
_cell_angle_gamma                90
_cell_volume                     3162.03
loop_
_atom_site_label
_atom_site_type_symbol
_atom_site_fract_x
_atom_site_fract_y
_atom_site_fract_z
Co1 Co 0.2500 0.2500 0.50743(16)
S1 S 0.2034(2) 0.02366(10) 0.9476(3)
S2 S 0.09951(19) 0.04814(11) 1.0603(2)
N1 N 0.2220(5) 0.1769(4) 0.6478(7)
N2 N 0.2069(5) 0.1789(3) 1.3695(7)
C1 C 0.1688(6) 0.1877(4) 0.7528(9)
H1 H 0.1361 0.2269 0.7596
C2 C 0.1621(6) 0.1430(5) 0.8472(8)
H2 H 0.1284 0.1530 0.9181
C3 C 0.2041(7) 0.0856(4) 0.8364(10)
C4 C 0.2589(7) 0.0706(4) 0.7261(9)
H3 H 0.2880 0.0301 0.7166
C5 C 0.2659(7) 0.1176(4) 0.6382(9)
H4 H 0.3019 0.1092 0.5686
C6 C 0.2652(6) 0.1650(4) 1.2731(9)
H5 H 0.3250 0.1828 1.2724
C7 C 0.2379(6) 0.1253(4) 1.1771(9)
H6 H 0.2782 0.1156 1.1123
C8 C 0.1451(7) 0.0994(4) 1.1809(9)
C9 C 0.0916(6) 0.1145(4) 1.2812(11)
H7 H 0.0313 0.0980 1.2889
C10 C 0.1268(7) 0.1527(4) 1.3664(8)
H8 H 0.0880 0.1617 1.4331
S3 S -0.07727(18) 0.28334(16) 0.5354(5)
N3 N 0.1139(5) 0.2820(3) 0.5143(9)
C11 C 0.0354(6) 0.2830(3) 0.5265(10)
Co1_2 Co 0.2500 0.2500 1.50743(16)
S1E S 0.2966(2) 0.47634(10) 0.9476(3)
S2E S 0.40049(19) 0.45186(11) 1.0603(2)
N1E N 0.2780(5) 0.3231(4) 0.6478(7)
N2E N 0.2931(5) 0.3211(3) 1.3695(7)
N2_2 N 0.2069(5) 0.1789(3) 0.3695(7)
N2E_2 N 0.2931(5) 0.3211(3) 0.3695(7)
C1E C 0.3312(6) 0.3123(4) 0.7528(9)
H1E H 0.3639 0.2731 0.7596
C2E C 0.3379(6) 0.3570(5) 0.8472(8)
H2E H 0.3716 0.3470 0.9181
C3E C 0.2959(7) 0.4144(4) 0.8364(10)
C4E C 0.2411(7) 0.4294(4) 0.7261(9)
H3E H 0.2120 0.4699 0.7166
C5E C 0.2341(7) 0.3824(4) 0.6382(9)
H4E H 0.1981 0.3908 0.5686
C6E C 0.2348(6) 0.3350(4) 1.2731(9)
H5E H 0.1750 0.3172 1.2724
C7E C 0.2621(6) 0.3747(4) 1.1771(9)
H6E H 0.2218 0.3844 1.1123
C8E C 0.3549(7) 0.4006(4) 1.1809(9)
C9E C 0.4084(6) 0.3855(4) 1.2812(11)
H7E H 0.4687 0.4020 1.2889
C10E C 0.3732(7) 0.3473(4) 1.3664(8)
H8E H 0.4120 0.3383 1.4331
S3E S 0.57727(18) 0.21666(16) 0.5354(5)
N3E N 0.3861(5) 0.2180(3) 0.5143(9)
C11E C 0.4646(6) 0.2170(3) 0.5265(10)
loop_
_geom_bond_atom_site_label_1
_geom_bond_atom_site_label_2
_geom_bond_site_symmetry_1
_geom_bond_site_symmetry_2
Co1 N1 1_555 1_555
S1 S2 1_555 1_555
S2 C8 1_555 1_555
N1 C1 1_555 1_555
N2 C6 1_555 1_555
C1 H1 1_555 1_555
C2 C1 1_555 1_555
H2 C2 1_555 1_555
C3 S1 1_555 1_555
C4 C3 1_555 1_555
H3 C4 1_555 1_555
C5 N1 1_555 1_555
H4 C5 1_555 1_555
C6 H5 1_555 1_555
C7 C6 1_555 1_555
H6 C7 1_555 1_555
C8 C7 1_555 1_555
C9 C8 1_555 1_555
H7 C9 1_555 1_555
C10 N2 1_555 1_555
H8 C10 1_555 1_555
S3 C11 1_555 1_555
N3 Co1 1_555 1_555
C11 N3 1_555 1_555
Co1_2 N2 1_555 1_555
S1E S2E 1_555 1_555
S2E C8E 1_555 1_555
N1E Co1 1_555 1_555
N2E Co1_2 1_555 1_555
N2_2 Co1 1_555 1_555
N2E_2 Co1 1_555 1_555
C1E N1E 1_555 1_555
H1E C1E 1_555 1_555
C2E C1E 1_555 1_555
H2E C2E 1_555 1_555
C3E S1E 1_555 1_555
C4E C3E 1_555 1_555
H3E C4E 1_555 1_555
C5E N1E 1_555 1_555
H4E C5E 1_555 1_555
C6E N2E 1_555 1_555
H5E C6E 1_555 1_555
C7E C6E 1_555 1_555
H6E C7E 1_555 1_555
C8E C7E 1_555 1_555
C9E C8E 1_555 1_555
H7E C9E 1_555 1_555
C10E N2E 1_555 1_555
H8E C10E 1_555 1_555
S3E C11E 1_555 1_555
N3E Co1 1_555 1_555
C11E N3E 1_555 1_555
C2 C3 1_555 1_555
C4 C5 1_555 1_555
C9 C10 1_555 1_555
C2E C3E 1_555 1_555
C4E C5E 1_555 1_555
C9E C10E 1_555 1_555

#END
