
#######################################################################
#
#                 Cambridge Crystallographic Data Centre
#                                CCDC 
#
#######################################################################
#
# If this CIF has been generated from an entry in the Cambridge 
# Structural Database, then it will include bibliographic, chemical, 
# crystal, experimental, refinement or atomic coordinate data resulting 
# from the CCDC's data processing and validation procedures.
#
#######################################################################

data_NIMDIY
_symmetry_cell_setting           monoclinic
_symmetry_space_group_name_H-M   'C 2/c'
_symmetry_Int_Tables_number      15
_space_group_name_Hall           '-C 2yn'
loop_
_symmetry_equiv_pos_site_id
_symmetry_equiv_pos_as_xyz
1 x,y,z
2 -x,y,1/2-z
3 1/2+x,1/2+y,z
4 1/2-x,1/2+y,1/2-z
5 -x,-y,-z
6 x,-y,1/2+z
7 1/2-x,1/2-y,-z
8 1/2+x,1/2-y,1/2+z
_cell_length_a                   10.0593(19)
_cell_length_b                   23.506(5)
_cell_length_c                   7.2278(14)
_cell_angle_alpha                90
_cell_angle_beta                 116.631(3)
_cell_angle_gamma                90
_cell_volume                     1527.73
loop_
_atom_site_label
_atom_site_type_symbol
_atom_site_fract_x
_atom_site_fract_y
_atom_site_fract_z
Ag1 Ag 0.37146(4) 0.466625(14) 0.34763(5)
S1 S 0.73535(10) 0.45278(4) 0.54841(15)
N1 N 0.5049(3) 0.38701(13) 0.4815(5)
C1 C 0.6535(4) 0.38707(15) 0.5605(5)
C2 C 0.4348(5) 0.33647(18) 0.4687(6)
H1 H 0.3317 0.3362 0.4143
C3 C 0.5103(5) 0.28600(18) 0.5330(6)
H2 H 0.4594 0.2520 0.5193
C4 C 0.6644(5) 0.28685(18) 0.6189(6)
H3 H 0.7185 0.2534 0.6667
C5 C 0.7366(4) 0.33763(17) 0.6328(6)
H4 H 0.8398 0.3388 0.6899
Ag2 Ag 1.0000 0.45118(2) 0.7500
Ag1A Ag 0.62854(4) 0.466625(14) 0.15237(5)
S1A S 0.26465(10) 0.45278(4) -0.04841(15)
N1A N 0.4951(3) 0.38701(13) 0.0185(5)
C1A C 0.3465(4) 0.38707(15) -0.0605(5)
C2A C 0.5652(5) 0.33647(18) 0.0313(6)
H1A H 0.6683 0.3362 0.0857
C3A C 0.4897(5) 0.28600(18) -0.0330(6)
H2A H 0.5406 0.2520 -0.0193
C4A C 0.3356(5) 0.28685(18) -0.1189(6)
H3A H 0.2815 0.2534 -0.1667
C5A C 0.2634(4) 0.33763(17) -0.1328(6)
H4A H 0.1602 0.3388 -0.1899
Ag1D Ag 0.62854(4) 0.533375(14) 0.65237(5)
Ag1E Ag 0.37146(4) 0.533375(14) -0.15237(5)
S1A_2 S 1.26465(10) 0.45278(4) 0.95159(15)
S1D S 0.26465(10) 0.54722(4) 0.45159(15)
S1E S 0.73535(10) 0.54722(4) 0.04841(15)
Ag2_2 Ag 0.0000 0.45118(2) -0.2500
Cl1 Cl 0.0000 0.38745(6) 0.2500
O1 O -0.0610(5) 0.35289(18) 0.3537(7)
O2 O 0.1150(5) 0.42196(18) 0.3976(6)
O1A O 0.0610(5) 0.35289(18) 0.1463(7)
O2A O -0.1150(5) 0.42196(18) 0.1024(6)
loop_
_geom_bond_atom_site_label_1
_geom_bond_atom_site_label_2
_geom_bond_site_symmetry_1
_geom_bond_site_symmetry_2
Ag1 N1 1_555 1_555
S1 C1 1_555 1_555
N1 C1 1_555 1_555
C1 C5 1_555 1_555
C2 N1 1_555 1_555
H1 C2 1_555 1_555
C3 C2 1_555 1_555
H2 C3 1_555 1_555
C4 C3 1_555 1_555
H3 C4 1_555 1_555
C5 C4 1_555 1_555
H4 C5 1_555 1_555
Ag2 S1 1_555 1_555
Cl1 O1 1_555 1_555
O2 Cl1 1_555 1_555
Ag1A S1 1_555 1_555
S1A Ag1 1_555 1_555
N1A Ag1A 1_555 1_555
C1A S1A 1_555 1_555
C2A N1A 1_555 1_555
H1A C2A 1_555 1_555
C3A C2A 1_555 1_555
H2A C3A 1_555 1_555
C4A C3A 1_555 1_555
H3A C4A 1_555 1_555
C5A C1A 1_555 1_555
H4A C5A 1_555 1_555
Ag1D Ag1 1_555 1_555
Ag1E Ag1A 1_555 1_555
S1A_2 Ag2 1_555 1_555
S1D Ag1 1_555 1_555
S1E Ag1A 1_555 1_555
Ag2_2 S1A 1_555 1_555
O1A Cl1 1_555 1_555
O2A Cl1 1_555 1_555
S1 Ag1D 1_555 1_555
S1A Ag1E 1_555 1_555
N1A C1A 1_555 1_555
C4A C5A 1_555 1_555

#END
