
#######################################################################
#
#                 Cambridge Crystallographic Data Centre
#                                CCDC 
#
#######################################################################
#
# If this CIF has been generated from an entry in the Cambridge 
# Structural Database, then it will include bibliographic, chemical, 
# crystal, experimental, refinement or atomic coordinate data resulting 
# from the CCDC's data processing and validation procedures.
#
#######################################################################

data_NIMFEW
_symmetry_cell_setting           triclinic
_symmetry_space_group_name_H-M   'P -1'
_symmetry_Int_Tables_number      2
_space_group_name_Hall           '-P 1'
loop_
_symmetry_equiv_pos_site_id
_symmetry_equiv_pos_as_xyz
1 x,y,z
2 -x,-y,-z
_cell_length_a                   10.959(10)
_cell_length_b                   12.244(10)
_cell_length_c                   14.385(17)
_cell_angle_alpha                87.42(5)
_cell_angle_beta                 88.82(5)
_cell_angle_gamma                68.55(5)
_cell_volume                     1794.68
loop_
_atom_site_label
_atom_site_type_symbol
_atom_site_fract_x
_atom_site_fract_y
_atom_site_fract_z
N10 N 0.8790(5) 0.2166(5) 0.4078(4)
O7 O 0.8873(5) 0.2656(5) 0.3316(4)
O8 O 0.9247(5) 0.1086(4) 0.4189(4)
O9 O 0.8199(5) 0.2806(4) 0.4735(3)
C1 C 1.6496(5) 0.5906(5) -0.1177(4)
C2 C 1.1207(7) 0.5601(5) -0.0549(5)
C3 C 1.5690(5) 0.6231(5) -0.0407(4)
H1 H 1.5163 0.5792 -0.0220
C4 C 1.0993(7) 0.6578(5) -0.0043(5)
H2 H 1.1468 0.7076 -0.0187
C5 C 1.5635(5) 0.7199(5) 0.0103(4)
H3 H 1.5087 0.7398 0.0637
C6 C 1.6375(5) 0.7865(5) -0.0167(4)
C7 C 1.7957(5) 0.8235(5) -0.1262(4)
C8 C 1.8682(5) 0.7964(5) -0.2067(4)
H4 H 1.9180 0.8424 -0.2269
C9 C 1.8703(5) 0.7019(5) -0.2597(4)
H5 H 1.9205 0.6853 -0.3154
C10 C 0.9915(7) 0.3158(5) -0.0678(5)
H6 H 1.0048 0.2483 -0.1027
C11 C 1.8001(5) 0.6335(4) -0.2311(4)
C12 C 1.0638(6) 0.3871(5) -0.0900(5)
C13 C 1.7225(5) 0.6597(5) -0.1487(4)
C14 C 1.0477(6) 0.4875(5) -0.0383(4)
C15 C 1.7185(5) 0.7576(5) -0.0967(4)
C16 C 1.6601(5) 0.4848(5) -0.1683(4)
C17 C 1.2232(7) 0.5260(5) -0.1291(5)
C18 C 1.8033(5) 0.5337(5) -0.2862(4)
C19 C 1.1617(7) 0.3571(5) -0.1665(5)
C20 C 1.6306(5) 0.8892(5) 0.0366(4)
C21 C 1.7989(5) 0.9205(5) -0.0699(4)
C22 C 1.7412(5) 0.3604(5) -0.3043(4)
H7 H 1.7565 0.3745 -0.3711
H8 H 1.6577 0.3466 -0.2985
C23 C 1.3437(7) 0.3922(6) -0.2501(5)
H9 H 1.3649 0.3087 -0.2637
H10 H 1.4227 0.3993 -0.2231
C24 C 1.8529(6) 0.2528(5) -0.2668(4)
H11 H 1.9340 0.2706 -0.2659
H12 H 1.8325 0.2344 -0.2020
C25 C 1.3091(7) 0.4668(6) -0.3412(5)
H13 H 1.2912 0.5496 -0.3271
H14 H 1.3864 0.4410 -0.3830
C26 C 1.8767(6) 0.1462(5) -0.3247(5)
H15 H 1.9056 0.1620 -0.3878
H16 H 1.9483 0.0784 -0.2962
C27 C 1.1911(7) 0.4611(5) -0.3932(4)
H17 H 1.1148 0.4812 -0.3505
H18 H 1.1687 0.5203 -0.4455
C28 C 1.7159(6) 0.0886(5) -0.4121(4)
H19 H 1.7552 0.0899 -0.4714
C29 C 1.3343(6) 0.2581(5) -0.4459(4)
H20 H 1.4160 0.2650 -0.4335
C30 C 1.5873(6) 0.0716(5) -0.3031(4)
H21 H 1.5177 0.0571 -0.2710
C31 C 1.1870(6) 0.1937(5) -0.4887(4)
H22 H 1.1466 0.1443 -0.5126
C32 C 1.6773(7) 0.1066(5) -0.2635(5)
H23 H 1.6819 0.1218 -0.1997
C33 C 1.1212(6) 0.3029(6) -0.4578(4)
H24 H 1.0288 0.3431 -0.4558
C34 C 1.7149(5) 1.0460(5) 0.0644(4)
H25 H 1.6295 1.0789 0.0969
H26 H 1.7246 1.1088 0.0225
C35 C 1.8252(5) 1.0071(5) 0.1360(4)
H27 H 1.8240 0.9361 0.1713
H28 H 1.9106 0.9862 0.1033
C36 C 1.8117(5) 1.1028(5) 0.2035(4)
H29 H 1.8927 1.0802 0.2409
H30 H 1.8019 1.1766 0.1677
C37 C 1.6820(6) 1.0451(5) 0.3298(4)
H31 H 1.7417 0.9663 0.3375
C38 C 1.5192(6) 1.2052(6) 0.3455(4)
H32 H 1.4398 1.2616 0.3673
C39 C 1.5938(6) 1.2259(6) 0.2778(4)
H33 H 1.5771 1.2982 0.2437
N1 N 1.7314(4) 0.4655(4) -0.2518(3)
N2 N 1.2355(5) 0.4282(4) -0.1809(4)
N3 N 1.7157(4) 0.9476(4) 0.0083(3)
N4 N 1.7597(5) 0.1156(4) -0.3324(4)
N5 N 1.2164(5) 0.3437(4) -0.4299(4)
N6 N 1.6122(4) 0.0604(4) -0.3972(3)
N7 N 1.3229(4) 0.1638(4) -0.4806(3)
N8 N 1.6988(4) 1.1239(4) 0.2663(3)
N9 N 1.5737(4) 1.0896(4) 0.3797(3)
O1 O 1.6133(4) 0.4128(3) -0.1378(3)
O2 O 1.2949(5) 0.5818(4) -0.1444(3)
O3 O 1.8679(4) 0.5069(4) -0.3576(3)
O4 O 1.1782(4) 0.2739(4) -0.2149(3)
O5 O 1.5546(4) 0.9227(3) 0.1019(3)
O6 O 1.8694(3) 0.9764(3) -0.0873(3)
Mn1 Mn 1.5000 0.0000 -0.5000
C2A C 0.8793(7) 0.4399(5) 0.0549(5)
C4A C 0.9007(7) 0.3422(5) 0.0043(5)
H2A H 0.8532 0.2924 0.0187
C10A C 1.0085(7) 0.6842(5) 0.0678(5)
H6A H 0.9952 0.7517 0.1027
C12A C 0.9362(6) 0.6129(5) 0.0900(5)
C14A C 0.9523(6) 0.5125(5) 0.0383(4)
C17A C 0.7768(7) 0.4740(5) 0.1291(5)
C19A C 0.8383(7) 0.6429(5) 0.1665(5)
C23A C 0.6563(7) 0.6078(6) 0.2501(5)
H9A H 0.6351 0.6913 0.2637
H10A H 0.5773 0.6007 0.2231
C25A C 0.6909(7) 0.5332(6) 0.3412(5)
H13A H 0.7088 0.4504 0.3271
H14A H 0.6136 0.5590 0.3830
C27A C 0.8089(7) 0.5389(5) 0.3932(4)
H17A H 0.8852 0.5188 0.3505
H18A H 0.8313 0.4797 0.4455
C29A C 0.6657(6) 0.7419(5) 0.4459(4)
H20A H 0.5840 0.7350 0.4335
C31A C 0.8130(6) 0.8063(5) 0.4887(4)
H22A H 0.8534 0.8557 0.5126
C33A C 0.8788(6) 0.6971(6) 0.4578(4)
H24A H 0.9712 0.6569 0.4558
N2A N 0.7645(5) 0.5718(4) 0.1809(4)
N5A N 0.7836(5) 0.6563(4) 0.4299(4)
N7A N 0.6771(4) 0.8362(4) 0.4806(3)
O2A O 0.7051(5) 0.4182(4) 0.1444(3)
O4A O 0.8218(4) 0.7261(4) 0.2149(3)
C1A C 1.3504(5) -0.5906(5) -0.8823(4)
C3A C 1.4310(5) -0.6231(5) -0.9593(4)
H1A H 1.4837 -0.5792 -0.9780
C5A C 1.4365(5) -0.7199(5) -1.0103(4)
H3A H 1.4913 -0.7398 -1.0637
C6A C 1.3625(5) -0.7865(5) -0.9833(4)
C7A C 1.2043(5) -0.8235(5) -0.8738(4)
C8A C 1.1318(5) -0.7964(5) -0.7933(4)
H4A H 1.0820 -0.8424 -0.7731
C9A C 1.1297(5) -0.7019(5) -0.7403(4)
H5A H 1.0795 -0.6853 -0.6846
C11A C 1.1999(5) -0.6335(4) -0.7689(4)
C13A C 1.2775(5) -0.6597(5) -0.8513(4)
C15A C 1.2815(5) -0.7576(5) -0.9033(4)
C16A C 1.3399(5) -0.4848(5) -0.8317(4)
C18A C 1.1967(5) -0.5337(5) -0.7138(4)
C20A C 1.3694(5) -0.8892(5) -1.0366(4)
C21A C 1.2011(5) -0.9205(5) -0.9301(4)
C22A C 1.2588(5) -0.3604(5) -0.6957(4)
H7A H 1.2435 -0.3745 -0.6289
H8A H 1.3423 -0.3466 -0.7015
C24A C 1.1471(6) -0.2528(5) -0.7332(4)
H11A H 1.0660 -0.2706 -0.7341
H12A H 1.1675 -0.2344 -0.7980
C26A C 1.1233(6) -0.1462(5) -0.6753(5)
H15A H 1.0944 -0.1620 -0.6122
H16A H 1.0517 -0.0784 -0.7038
C28A C 1.2841(6) -0.0886(5) -0.5879(4)
H19A H 1.2448 -0.0899 -0.5286
C30A C 1.4127(6) -0.0716(5) -0.6969(4)
H21A H 1.4823 -0.0571 -0.7290
C32A C 1.3227(7) -0.1066(5) -0.7365(5)
H23A H 1.3181 -0.1218 -0.8003
C34A C 1.2851(5) -1.0460(5) -1.0644(4)
H25A H 1.3705 -1.0789 -1.0969
H26A H 1.2754 -1.1088 -1.0225
C35A C 1.1748(5) -1.0071(5) -1.1360(4)
H27A H 1.1760 -0.9361 -1.1713
H28A H 1.0894 -0.9862 -1.1033
C36A C 1.1883(5) -1.1028(5) -1.2035(4)
H29A H 1.1073 -1.0802 -1.2409
H30A H 1.1981 -1.1766 -1.1677
C37A C 1.3180(6) -1.0451(5) -1.3298(4)
H31A H 1.2583 -0.9663 -1.3375
C38A C 1.4808(6) -1.2052(6) -1.3455(4)
H32A H 1.5602 -1.2616 -1.3673
C39A C 1.4062(6) -1.2259(6) -1.2778(4)
H33A H 1.4229 -1.2982 -1.2437
N1A N 1.2686(4) -0.4655(4) -0.7482(3)
N3A N 1.2843(4) -0.9476(4) -1.0083(3)
N4A N 1.2403(5) -0.1156(4) -0.6676(4)
N6A N 1.3878(4) -0.0604(4) -0.6028(3)
N8A N 1.3012(4) -1.1239(4) -1.2663(3)
N9A N 1.4263(4) -1.0896(4) -1.3797(3)
O1A O 1.3867(4) -0.4128(3) -0.8622(3)
O3A O 1.1321(4) -0.5069(4) -0.6424(3)
O5A O 1.4454(4) -0.9227(3) -1.1019(3)
O6A O 1.1306(3) -0.9764(3) -0.9127(3)
N7A_2 N 1.6771(4) -0.1638(4) -0.5194(3)
N9_2 N 1.5737(4) 0.0896(4) -0.6203(3)
N9A_2 N 1.4263(4) -0.0896(4) -0.3797(3)
Mn1_2 Mn 0.5000 1.0000 0.5000
Mn1_3 Mn 1.5000 -1.0000 -1.5000
Mn1_4 Mn 1.5000 1.0000 0.5000
loop_
_geom_bond_atom_site_label_1
_geom_bond_atom_site_label_2
_geom_bond_site_symmetry_1
_geom_bond_site_symmetry_2
C1 C3 1_555 1_555
C2 C4 1_555 1_555
C3 H1 1_555 1_555
C4 H2 1_555 1_555
C5 C3 1_555 1_555
H3 C5 1_555 1_555
C6 C5 1_555 1_555
C7 C8 1_555 1_555
C8 H4 1_555 1_555
C9 C8 1_555 1_555
H5 C9 1_555 1_555
C10 H6 1_555 1_555
C11 C9 1_555 1_555
C12 C10 1_555 1_555
C13 C1 1_555 1_555
C14 C2 1_555 1_555
C15 C6 1_555 1_555
C16 C1 1_555 1_555
C17 C2 1_555 1_555
C18 C11 1_555 1_555
C19 C12 1_555 1_555
C20 C6 1_555 1_555
C21 C7 1_555 1_555
C22 H7 1_555 1_555
H8 C22 1_555 1_555
C23 H9 1_555 1_555
H10 C23 1_555 1_555
C24 C22 1_555 1_555
H11 C24 1_555 1_555
H12 C24 1_555 1_555
C25 C23 1_555 1_555
H13 C25 1_555 1_555
H14 C25 1_555 1_555
C26 C24 1_555 1_555
H15 C26 1_555 1_555
H16 C26 1_555 1_555
C27 C25 1_555 1_555
H17 C27 1_555 1_555
H18 C27 1_555 1_555
C28 H19 1_555 1_555
C29 H20 1_555 1_555
C30 H21 1_555 1_555
C31 H22 1_555 1_555
C32 C30 1_555 1_555
H23 C32 1_555 1_555
C33 C31 1_555 1_555
H24 C33 1_555 1_555
C34 H25 1_555 1_555
H26 C34 1_555 1_555
C35 C34 1_555 1_555
H27 C35 1_555 1_555
H28 C35 1_555 1_555
C36 C35 1_555 1_555
H29 C36 1_555 1_555
H30 C36 1_555 1_555
C37 H31 1_555 1_555
C38 H32 1_555 1_555
C39 C38 1_555 1_555
H33 C39 1_555 1_555
N1 C16 1_555 1_555
N2 C17 1_555 1_555
N3 C20 1_555 1_555
N4 C26 1_555 1_555
N5 C27 1_555 1_555
N6 C28 1_555 1_555
N7 C29 1_555 1_555
N8 C36 1_555 1_555
N9 C37 1_555 1_555
O1 C16 1_555 1_555
O2 C17 1_555 1_555
O3 C18 1_555 1_555
O4 C19 1_555 1_555
O5 C20 1_555 1_555
O6 C21 1_555 1_555
Mn1 N6 1_555 1_555
N10 O7 1_555 1_555
O8 N10 1_555 1_555
O9 N10 1_555 1_555
C2A C4A 1_555 1_555
C4A C10 1_555 1_555
H2A C4A 1_555 1_555
C10A C4 1_555 1_555
H6A C10A 1_555 1_555
C12A C10A 1_555 1_555
C14A C14 1_555 1_555
C17A C2A 1_555 1_555
C19A C12A 1_555 1_555
C23A H9A 1_555 1_555
H10A C23A 1_555 1_555
C25A C23A 1_555 1_555
H13A C25A 1_555 1_555
H14A C25A 1_555 1_555
C27A C25A 1_555 1_555
H17A C27A 1_555 1_555
H18A C27A 1_555 1_555
C29A H20A 1_555 1_555
C31A H22A 1_555 1_555
C33A C31A 1_555 1_555
H24A C33A 1_555 1_555
N2A C17A 1_555 1_555
N5A C27A 1_555 1_555
N7A C29A 1_555 1_555
O2A C17A 1_555 1_555
O4A C19A 1_555 1_555
C1A C3A 1_555 1_555
C3A H1A 1_555 1_555
C5A C3A 1_555 1_555
H3A C5A 1_555 1_555
C6A C5A 1_555 1_555
C7A C8A 1_555 1_555
C8A H4A 1_555 1_555
C9A C8A 1_555 1_555
H5A C9A 1_555 1_555
C11A C9A 1_555 1_555
C13A C1A 1_555 1_555
C15A C6A 1_555 1_555
C16A C1A 1_555 1_555
C18A C11A 1_555 1_555
C20A C6A 1_555 1_555
C21A C7A 1_555 1_555
C22A H7A 1_555 1_555
H8A C22A 1_555 1_555
C24A C22A 1_555 1_555
H11A C24A 1_555 1_555
H12A C24A 1_555 1_555
C26A C24A 1_555 1_555
H15A C26A 1_555 1_555
H16A C26A 1_555 1_555
C28A H19A 1_555 1_555
C30A H21A 1_555 1_555
C32A C30A 1_555 1_555
H23A C32A 1_555 1_555
C34A H25A 1_555 1_555
H26A C34A 1_555 1_555
C35A C34A 1_555 1_555
H27A C35A 1_555 1_555
H28A C35A 1_555 1_555
C36A C35A 1_555 1_555
H29A C36A 1_555 1_555
H30A C36A 1_555 1_555
C37A H31A 1_555 1_555
C38A H32A 1_555 1_555
C39A C38A 1_555 1_555
H33A C39A 1_555 1_555
N1A C16A 1_555 1_555
N3A C20A 1_555 1_555
N4A C26A 1_555 1_555
N6A Mn1 1_555 1_555
N8A C36A 1_555 1_555
N9A C37A 1_555 1_555
O1A C16A 1_555 1_555
O3A C18A 1_555 1_555
O5A C20A 1_555 1_555
O6A C21A 1_555 1_555
N7A_2 Mn1 1_555 1_555
N9_2 Mn1 1_555 1_555
N9A_2 Mn1 1_555 1_555
Mn1_2 N7A 1_555 1_555
Mn1_3 N9A 1_555 1_555
Mn1_4 N9 1_555 1_555
C7 C15 1_555 1_555
C11 C13 1_555 1_555
C12 C14 1_555 1_555
C13 C15 1_555 1_555
C18 N1 1_555 1_555
C19 N2 1_555 1_555
C21 N3 1_555 1_555
C22 N1 1_555 1_555
C23 N2 1_555 1_555
C28 N4 1_555 1_555
C29 N5 1_555 1_555
C30 N6 1_555 1_555
C31 N7 1_555 1_555
C32 N4 1_555 1_555
C33 N5 1_555 1_555
C34 N3 1_555 1_555
C37 N8 1_555 1_555
C38 N9 1_555 1_555
C39 N8 1_555 1_555
N7 Mn1 1_555 1_555
C2A C14A 1_555 1_555
C12A C14A 1_555 1_555
C19A N2A 1_555 1_555
C23A N2A 1_555 1_555
C29A N5A 1_555 1_555
C31A N7A 1_555 1_555
C33A N5A 1_555 1_555
C7A C15A 1_555 1_555
C11A C13A 1_555 1_555
C13A C15A 1_555 1_555
C18A N1A 1_555 1_555
C21A N3A 1_555 1_555
C22A N1A 1_555 1_555
C28A N4A 1_555 1_555
C28A N6A 1_555 1_555
C30A N6A 1_555 1_555
C32A N4A 1_555 1_555
C34A N3A 1_555 1_555
C37A N8A 1_555 1_555
C38A N9A 1_555 1_555
C39A N8A 1_555 1_555

#END
