
#######################################################################
#
#                 Cambridge Crystallographic Data Centre
#                                CCDC 
#
#######################################################################
#
# If this CIF has been generated from an entry in the Cambridge 
# Structural Database, then it will include bibliographic, chemical, 
# crystal, experimental, refinement or atomic coordinate data resulting 
# from the CCDC's data processing and validation procedures.
#
#######################################################################

data_NIMFIA
_symmetry_cell_setting           triclinic
_symmetry_space_group_name_H-M   'P -1'
_symmetry_Int_Tables_number      2
_space_group_name_Hall           '-P 1'
loop_
_symmetry_equiv_pos_site_id
_symmetry_equiv_pos_as_xyz
1 x,y,z
2 -x,-y,-z
_cell_length_a                   8.861(5)
_cell_length_b                   13.585(7)
_cell_length_c                   19.115(9)
_cell_angle_alpha                97.849(4)
_cell_angle_beta                 94.829(6)
_cell_angle_gamma                106.464(10)
_cell_volume                     2167.62
loop_
_atom_site_label
_atom_site_type_symbol
_atom_site_fract_x
_atom_site_fract_y
_atom_site_fract_z
Mn1 Mn 1.0000 0.5000 0.5000
C1 C 0.7613(5) 0.2441(3) 0.9854(2)
C2 C 0.8650(6) 0.2736(4) 1.0475(3)
H1 H 0.9723 0.2744 1.0465
C3 C 0.8138(5) 0.3020(4) 1.1111(3)
H2 H 0.8867 0.3220 1.1536
C4 C 0.6589(5) 0.3019(3) 1.1143(2)
C5 C 0.3959(5) 0.2822(3) 1.0519(2)
C6 C 0.2952(5) 0.2619(4) 0.9890(3)
H3 H 0.1923 0.2701 0.9895
C7 C 0.3452(6) 0.2290(4) 0.9239(3)
H4 H 0.2739 0.2115 0.8810
C8 C 0.4951(5) 0.2223(3) 0.9226(2)
C9 C 0.6030(5) 0.2477(3) 0.9859(2)
C10 C 0.5520(5) 0.2772(3) 1.0512(2)
C11 C 0.8121(6) 0.2063(3) 0.9178(2)
O1 O 0.9443(4) 0.1966(3) 0.91430(19)
N1 N 0.6998(4) 0.1759(3) 0.8570(2)
C12 C 0.5489(5) 0.1876(3) 0.8537(2)
O2 O 0.4651(4) 0.1709(3) 0.79732(16)
C13 C 0.6030(5) 0.3242(3) 1.1828(2)
O3 O 0.6839(4) 0.3367(3) 1.23984(18)
N2 N 0.4467(5) 0.3289(3) 1.1814(2)
C14 C 0.3426(6) 0.3142(4) 1.1200(2)
O4 O 0.2095(4) 0.3232(3) 1.12386(19)
C15 C 0.7499(6) 0.1322(4) 0.7903(3)
H5 H 0.6543 0.0888 0.7577
H6 H 0.8147 0.0866 0.8018
C16 C 0.8455(6) 0.2161(4) 0.7522(3)
H7 H 0.9328 0.2654 0.7866
H8 H 0.8935 0.1831 0.7142
C17 C 0.7450(6) 0.2754(4) 0.7197(3)
H9 H 0.6614 0.2271 0.6832
H10 H 0.6924 0.3056 0.7571
N3 N 0.8433(5) 0.3599(3) 0.6867(2)
C18 C 0.8546(6) 0.3579(4) 0.6168(2)
H11 H 0.8034 0.2997 0.5807
N4 N 0.9454(4) 0.4469(3) 0.6050(2)
C19 C 0.9965(6) 0.5077(4) 0.6705(3)
H12 H 1.0649 0.5772 0.6790
C20 C 0.9344(6) 0.4533(4) 0.7222(3)
H13 H 0.9519 0.4765 0.7722
C21 C 0.3953(6) 0.3620(4) 1.2503(3)
H14 H 0.4410 0.3321 1.2883
H15 H 0.2782 0.3362 1.2469
C22 C 0.4502(6) 0.4797(4) 1.2686(3)
H16 H 0.3886 0.5083 1.2355
H17 H 0.5634 0.5056 1.2619
C23 C 0.4310(6) 0.5192(4) 1.3448(3)
H18 H 0.4631 0.5962 1.3533
H19 H 0.3181 0.4935 1.3520
N5 N 0.5286(5) 0.4833(3) 1.3956(2)
C24 C 0.6862(6) 0.5249(4) 1.4142(2)
H20 H 0.7499 0.5822 1.3960
N6 N 0.7413(4) 0.4762(3) 1.4607(2)
C25 C 0.6098(5) 0.3989(4) 1.4726(2)
H21 H 0.6110 0.3501 1.5036
C26 C 0.4796(6) 0.4043(4) 1.4326(3)
H22 H 0.3739 0.3610 1.4309
C27 C 1.0925(6) 0.0524(3) 0.0941(2)
C28 C 1.2460(5) 0.0529(3) 0.0889(2)
H23 H 1.3227 0.0756 0.1301
C29 C 0.7092(6) -0.0196(4) -0.0224(3)
H24 H 0.6022 -0.0210 -0.0193
C30 C 0.8178(5) 0.0142(3) 0.0368(2)
C31 C 0.9779(5) 0.0169(3) 0.0330(2)
C32 C 0.8448(6) 0.1279(4) 0.2322(3)
H25 H 0.7521 0.1534 0.2228
H26 H 0.9335 0.1874 0.2579
C33 C 0.8034(6) 0.0444(4) 0.2792(3)
H27 H 0.7254 -0.0190 0.2512
H28 H 0.9002 0.0262 0.2944
C34 C 0.7348(7) 0.0804(4) 0.3444(3)
H29 H 0.6392 0.1000 0.3292
H30 H 0.7018 0.0221 0.3713
C35 C 1.0475(6) 0.0892(3) 0.1638(2)
O5 O 1.1409(4) 0.1198(3) 0.21705(18)
N7 N 0.8898(5) 0.0892(3) 0.1645(2)
C36 C 0.7697(5) 0.0494(3) 0.1063(2)
O6 O 0.6335(4) 0.0441(3) 0.11357(19)
N8 N 0.8487(5) 0.1693(3) 0.3912(2)
C37 C 0.8352(6) 0.2658(4) 0.4054(3)
H31 H 0.7488 0.2861 0.3857
N9 N 0.9575(5) 0.3297(3) 0.4504(2)
C38 C 1.0524(6) 0.2682(4) 0.4640(3)
H32 H 1.1507 0.2914 0.4942
C39 C 0.9860(7) 0.1700(5) 0.4281(3)
H33 H 1.0277 0.1129 0.4287
C27A C 0.9075(6) -0.0524(3) -0.0941(2)
C28A C 0.7540(5) -0.0529(3) -0.0889(2)
H23A H 0.6773 -0.0756 -0.1301
C29A C 1.2908(6) 0.0196(4) 0.0224(3)
H24A H 1.3978 0.0210 0.0193
C30A C 1.1822(5) -0.0142(3) -0.0368(2)
C31A C 1.0221(5) -0.0169(3) -0.0330(2)
C32A C 1.1552(6) -0.1279(4) -0.2322(3)
H25A H 1.2479 -0.1534 -0.2228
H26A H 1.0665 -0.1874 -0.2579
C33A C 1.1966(6) -0.0444(4) -0.2792(3)
H27A H 1.2746 0.0190 -0.2512
H28A H 1.0998 -0.0262 -0.2944
C34A C 1.2652(7) -0.0804(4) -0.3444(3)
H29A H 1.3608 -0.1000 -0.3292
H30A H 1.2982 -0.0221 -0.3713
C35A C 0.9525(6) -0.0892(3) -0.1638(2)
O5A O 0.8591(4) -0.1198(3) -0.21705(18)
N7A N 1.1102(5) -0.0892(3) -0.1645(2)
C36A C 1.2303(5) -0.0494(3) -0.1063(2)
O6A O 1.3665(4) -0.0441(3) -0.11357(19)
N8A N 1.1513(5) -0.1693(3) -0.3912(2)
C37A C 1.1648(6) -0.2658(4) -0.4054(3)
H31A H 1.2512 -0.2861 -0.3857
N9A N 1.0425(5) -0.3297(3) -0.4504(2)
C38A C 0.9476(6) -0.2682(4) -0.4640(3)
H32A H 0.8493 -0.2914 -0.4942
C39A C 1.0140(7) -0.1700(5) -0.4281(3)
H33A H 0.9723 -0.1129 -0.4287
C1A C 1.2387(5) 0.7559(3) 0.0146(2)
C2A C 1.1350(6) 0.7264(4) -0.0475(3)
H1A H 1.0277 0.7256 -0.0465
C3A C 1.1862(5) 0.6980(4) -0.1111(3)
H2A H 1.1133 0.6780 -0.1536
C4A C 1.3411(5) 0.6981(3) -0.1143(2)
C5A C 1.6041(5) 0.7178(3) -0.0519(2)
C6A C 1.7048(5) 0.7381(4) 0.0110(3)
H3A H 1.8077 0.7299 0.0105
C7A C 1.6548(6) 0.7710(4) 0.0761(3)
H4A H 1.7261 0.7885 0.1190
C8A C 1.5049(5) 0.7777(3) 0.0774(2)
C9A C 1.3970(5) 0.7523(3) 0.0141(2)
C10A C 1.4480(5) 0.7228(3) -0.0512(2)
C11A C 1.1879(6) 0.7937(3) 0.0822(2)
O1A O 1.0557(4) 0.8034(3) 0.08570(19)
N1A N 1.3002(4) 0.8241(3) 0.1430(2)
C12A C 1.4511(5) 0.8124(3) 0.1463(2)
O2A O 1.5349(4) 0.8291(3) 0.20268(16)
C13A C 1.3970(5) 0.6758(3) -0.1828(2)
O3A O 1.3161(4) 0.6633(3) -0.23984(18)
N2A N 1.5533(5) 0.6711(3) -0.1814(2)
C14A C 1.6574(6) 0.6858(4) -0.1200(2)
O4A O 1.7905(4) 0.6768(3) -0.12386(19)
C15A C 1.2501(6) 0.8678(4) 0.2097(3)
H5A H 1.3457 0.9112 0.2423
H6A H 1.1853 0.9134 0.1982
C16A C 1.1545(6) 0.7839(4) 0.2478(3)
H7A H 1.0672 0.7346 0.2134
H8A H 1.1065 0.8169 0.2858
C17A C 1.2550(6) 0.7246(4) 0.2803(3)
H9A H 1.3386 0.7729 0.3168
H10A H 1.3076 0.6944 0.2429
N3A N 1.1567(5) 0.6401(3) 0.3133(2)
C18A C 1.1454(6) 0.6421(4) 0.3832(2)
H11A H 1.1966 0.7003 0.4193
N4A N 1.0546(4) 0.5531(3) 0.3950(2)
C19A C 1.0035(6) 0.4923(4) 0.3295(3)
H12A H 0.9351 0.4228 0.3210
C20A C 1.0656(6) 0.5467(4) 0.2778(3)
H13A H 1.0481 0.5235 0.2278
C21A C 1.6047(6) 0.6380(4) -0.2503(3)
H14A H 1.5590 0.6679 -0.2883
H15A H 1.7218 0.6638 -0.2469
C22A C 1.5498(6) 0.5203(4) -0.2686(3)
H16A H 1.6114 0.4917 -0.2355
H17A H 1.4366 0.4944 -0.2619
C23A C 1.5690(6) 0.4808(4) -0.3448(3)
H18A H 1.5369 0.4038 -0.3533
H19A H 1.6819 0.5065 -0.3520
N5A N 1.4714(5) 0.5167(3) -0.3956(2)
C24A C 1.3138(6) 0.4751(4) -0.4142(2)
H20A H 1.2501 0.4178 -0.3960
N6A N 1.2587(4) 0.5238(3) -0.4607(2)
C25A C 1.3902(5) 0.6011(4) -0.4726(2)
H21A H 1.3890 0.6499 -0.5036
C26A C 1.5204(6) 0.5957(4) -0.4326(3)
H22A H 1.6261 0.6390 -0.4309
Mn1_2 Mn 1.0000 -0.5000 -0.5000
Mn1_3 Mn 1.0000 0.5000 -0.5000
Mn1_4 Mn 1.0000 0.5000 1.5000
N6_2 N 0.7413(4) 0.4762(3) 0.4607(2)
N6A_2 N 1.2587(4) 0.5238(3) 0.5393(2)
N9A_2 N 1.0425(5) 0.6703(3) 0.5496(2)
loop_
_geom_bond_atom_site_label_1
_geom_bond_atom_site_label_2
_geom_bond_site_symmetry_1
_geom_bond_site_symmetry_2
Mn1 N4 1_555 1_555
C1 C2 1_555 1_555
C2 H1 1_555 1_555
C3 C2 1_555 1_555
H2 C3 1_555 1_555
C4 C3 1_555 1_555
C5 C6 1_555 1_555
C6 H3 1_555 1_555
C7 C6 1_555 1_555
H4 C7 1_555 1_555
C8 C7 1_555 1_555
C9 C1 1_555 1_555
C10 C4 1_555 1_555
C11 C1 1_555 1_555
O1 C11 1_555 1_555
N1 C11 1_555 1_555
C12 C8 1_555 1_555
O2 C12 1_555 1_555
C13 C4 1_555 1_555
O3 C13 1_555 1_555
N2 C13 1_555 1_555
C14 C5 1_555 1_555
O4 C14 1_555 1_555
C15 N1 1_555 1_555
H5 C15 1_555 1_555
H6 C15 1_555 1_555
C16 C15 1_555 1_555
H7 C16 1_555 1_555
H8 C16 1_555 1_555
C17 C16 1_555 1_555
H9 C17 1_555 1_555
H10 C17 1_555 1_555
N3 C17 1_555 1_555
C18 N3 1_555 1_555
H11 C18 1_555 1_555
N4 C18 1_555 1_555
C19 N4 1_555 1_555
H12 C19 1_555 1_555
C20 N3 1_555 1_555
H13 C20 1_555 1_555
C21 N2 1_555 1_555
H14 C21 1_555 1_555
H15 C21 1_555 1_555
C22 C21 1_555 1_555
H16 C22 1_555 1_555
H17 C22 1_555 1_555
C23 C22 1_555 1_555
H18 C23 1_555 1_555
H19 C23 1_555 1_555
N5 C23 1_555 1_555
C24 N5 1_555 1_555
H20 C24 1_555 1_555
N6 C24 1_555 1_555
C25 N6 1_555 1_555
H21 C25 1_555 1_555
C26 N5 1_555 1_555
H22 C26 1_555 1_555
C27 C28 1_555 1_555
C28 H23 1_555 1_555
C29 H24 1_555 1_555
C30 C29 1_555 1_555
C31 C27 1_555 1_555
C32 H25 1_555 1_555
H26 C32 1_555 1_555
C33 C32 1_555 1_555
H27 C33 1_555 1_555
H28 C33 1_555 1_555
C34 C33 1_555 1_555
H29 C34 1_555 1_555
H30 C34 1_555 1_555
C35 C27 1_555 1_555
O5 C35 1_555 1_555
N7 C32 1_555 1_555
C36 C30 1_555 1_555
O6 C36 1_555 1_555
N8 C34 1_555 1_555
C37 N8 1_555 1_555
H31 C37 1_555 1_555
N9 Mn1 1_555 1_555
C38 N9 1_555 1_555
H32 C38 1_555 1_555
C39 N8 1_555 1_555
H33 C39 1_555 1_555
C27A C28A 1_555 1_555
C28A C29 1_555 1_555
H23A C28A 1_555 1_555
C29A C28 1_555 1_555
H24A C29A 1_555 1_555
C30A C29A 1_555 1_555
C31A C31 1_555 1_555
C32A H25A 1_555 1_555
H26A C32A 1_555 1_555
C33A C32A 1_555 1_555
H27A C33A 1_555 1_555
H28A C33A 1_555 1_555
C34A C33A 1_555 1_555
H29A C34A 1_555 1_555
H30A C34A 1_555 1_555
C35A C27A 1_555 1_555
O5A C35A 1_555 1_555
N7A C32A 1_555 1_555
C36A C30A 1_555 1_555
O6A C36A 1_555 1_555
N8A C34A 1_555 1_555
C37A N8A 1_555 1_555
H31A C37A 1_555 1_555
N9A C37A 1_555 1_555
C38A N9A 1_555 1_555
H32A C38A 1_555 1_555
C39A N8A 1_555 1_555
H33A C39A 1_555 1_555
C1A C2A 1_555 1_555
C2A H1A 1_555 1_555
C3A C2A 1_555 1_555
H2A C3A 1_555 1_555
C4A C3A 1_555 1_555
C5A C6A 1_555 1_555
C6A H3A 1_555 1_555
C7A C6A 1_555 1_555
H4A C7A 1_555 1_555
C8A C7A 1_555 1_555
C9A C1A 1_555 1_555
C10A C4A 1_555 1_555
C11A C1A 1_555 1_555
O1A C11A 1_555 1_555
N1A C11A 1_555 1_555
C12A C8A 1_555 1_555
O2A C12A 1_555 1_555
C13A C4A 1_555 1_555
O3A C13A 1_555 1_555
N2A C13A 1_555 1_555
C14A C5A 1_555 1_555
O4A C14A 1_555 1_555
C15A N1A 1_555 1_555
H5A C15A 1_555 1_555
H6A C15A 1_555 1_555
C16A C15A 1_555 1_555
H7A C16A 1_555 1_555
H8A C16A 1_555 1_555
C17A C16A 1_555 1_555
H9A C17A 1_555 1_555
H10A C17A 1_555 1_555
N3A C17A 1_555 1_555
C18A N3A 1_555 1_555
H11A C18A 1_555 1_555
N4A Mn1 1_555 1_555
C19A N4A 1_555 1_555
H12A C19A 1_555 1_555
C20A N3A 1_555 1_555
H13A C20A 1_555 1_555
C21A N2A 1_555 1_555
H14A C21A 1_555 1_555
H15A C21A 1_555 1_555
C22A C21A 1_555 1_555
H16A C22A 1_555 1_555
H17A C22A 1_555 1_555
C23A C22A 1_555 1_555
H18A C23A 1_555 1_555
H19A C23A 1_555 1_555
N5A C23A 1_555 1_555
C24A N5A 1_555 1_555
H20A C24A 1_555 1_555
N6A C24A 1_555 1_555
C25A N6A 1_555 1_555
H21A C25A 1_555 1_555
C26A N5A 1_555 1_555
H22A C26A 1_555 1_555
Mn1_2 N9A 1_555 1_555
Mn1_3 N6A 1_555 1_555
Mn1_4 N6 1_555 1_555
N6_2 Mn1 1_555 1_555
N6A_2 Mn1 1_555 1_555
N9A_2 Mn1 1_555 1_555
C5 C10 1_555 1_555
C8 C9 1_555 1_555
C9 C10 1_555 1_555
N1 C12 1_555 1_555
N2 C14 1_555 1_555
C19 C20 1_555 1_555
C25 C26 1_555 1_555
C30 C31 1_555 1_555
C35 N7 1_555 1_555
N7 C36 1_555 1_555
C37 N9 1_555 1_555
C38 C39 1_555 1_555
C27A C31A 1_555 1_555
C30A C31A 1_555 1_555
C35A N7A 1_555 1_555
N7A C36A 1_555 1_555
C38A C39A 1_555 1_555
C5A C10A 1_555 1_555
C8A C9A 1_555 1_555
C9A C10A 1_555 1_555
N1A C12A 1_555 1_555
N2A C14A 1_555 1_555
C18A N4A 1_555 1_555
C19A C20A 1_555 1_555
C25A C26A 1_555 1_555

#END
