
#######################################################################
#
#                 Cambridge Crystallographic Data Centre
#                                CCDC 
#
#######################################################################
#
# If this CIF has been generated from an entry in the Cambridge 
# Structural Database, then it will include bibliographic, chemical, 
# crystal, experimental, refinement or atomic coordinate data resulting 
# from the CCDC's data processing and validation procedures.
#
#######################################################################

data_NIMKAW
_symmetry_cell_setting           orthorhombic
_symmetry_space_group_name_H-M   'P n a 21'
_symmetry_Int_Tables_number      33
_space_group_name_Hall           'P 2c -2n'
loop_
_symmetry_equiv_pos_site_id
_symmetry_equiv_pos_as_xyz
1 x,y,z
2 -x,-y,1/2+z
3 1/2-x,1/2+y,1/2+z
4 1/2+x,1/2-y,z
_cell_length_a                   8.8595(6)
_cell_length_b                   12.6901(9)
_cell_length_c                   19.8449(14)
_cell_angle_alpha                90
_cell_angle_beta                 90
_cell_angle_gamma                90
_cell_volume                     2231.12
loop_
_atom_site_label
_atom_site_type_symbol
_atom_site_fract_x
_atom_site_fract_y
_atom_site_fract_z
Ag1 Ag 0.73346(3) 0.65557(2) 0.01651(3)
S1 S 0.67255(10) 0.60319(7) -0.10322(5)
S2 S 0.38648(11) 0.42013(7) -0.38036(5)
N1 N 1.0735(3) 0.6286(3) 0.02672(18)
O1 O 0.9966(3) 0.6997(3) -0.00038(16)
O2 O 1.2119(3) 0.6430(3) 0.0332(2)
O3 O 1.0116(4) 0.5495(3) 0.0472(3)
C1 C 0.4764(4) 0.5588(3) -0.1027(2)
H1 H 0.4710 0.4903 -0.1243
H2 H 0.4440 0.5502 -0.0564
C2 C 0.3673(5) 0.6334(3) -0.1382(2)
H3 H 0.3577 0.6969 -0.1105
C3 C 0.2109(5) 0.5798(4) -0.1414(3)
H4 H 0.1352 0.6321 -0.1528
H5 H 0.1861 0.5514 -0.0974
C4 C 0.2070(4) 0.4913(4) -0.1935(2)
H6 H 0.2697 0.4337 -0.1776
H7 H 0.1044 0.4651 -0.1970
C5 C 0.2612(4) 0.5243(4) -0.2640(3)
H8 H 0.1893 0.5758 -0.2820
C6 C 0.4131(4) 0.5773(3) -0.2586(2)
H9 H 0.4878 0.5255 -0.2450
H10 H 0.4419 0.6040 -0.3025
C7 C 0.4137(6) 0.6671(3) -0.2085(3)
H11 H 0.5142 0.6973 -0.2066
H12 H 0.3452 0.7216 -0.2241
C8 C 0.2553(4) 0.4257(4) -0.3088(2)
H13 H 0.1535 0.4191 -0.3263
H14 H 0.2740 0.3647 -0.2806
C9 C 0.5157(4) 0.3147(3) -0.3553(2)
H15 H 0.4584 0.2510 -0.3468
H16 H 0.5852 0.3005 -0.3920
C10 C 0.6036(5) 0.3431(3) -0.2934(2)
C11 C 0.5656(5) 0.3015(3) -0.2314(2)
H17 H 0.4954 0.2471 -0.2289
C12 C 0.6312(5) 0.3400(3) -0.1725(2)
H18 H 0.6060 0.3106 -0.1311
C13 C 0.7342(4) 0.4220(4) -0.1758(3)
C14 C 0.7798(4) 0.4581(4) -0.2379(3)
H19 H 0.8534 0.5101 -0.2407
C15 C 0.7167(4) 0.4175(4) -0.2969(2)
H20 H 0.7510 0.4406 -0.3386
C16 C 0.7773(5) 0.4786(4) -0.1118(2)
H21 H 0.8848 0.4932 -0.1122
H22 H 0.7559 0.4338 -0.0734
Ag1A Ag 0.26654(3) 0.34443(2) -0.48349(3)
Ag1C Ag 1.23346(3) 0.84443(2) 0.01651(3)
S2A S 0.61352(11) 0.57987(7) 0.11964(5)
O2C O 0.7119(3) 0.8570(3) 0.0332(2)
O4 O 0.770(3) 0.1846(14) -0.0123(9)
C17 C 0.7193(14) 0.2815(9) 0.0005(7)
H23 H 0.7553 0.3312 -0.0330
H24 H 0.6099 0.2831 0.0013
C18 C 0.777(3) 0.3031(12) 0.0616(13)
H25 H 0.7055 0.3479 0.0850
H26 H 0.8681 0.3442 0.0550
C19 C 0.811(3) 0.2239(15) 0.1022(11)
H27 H 0.7342 0.2132 0.1363
H28 H 0.9084 0.2337 0.1236
C20 C 0.814(3) 0.1390(9) 0.0539(13)
H29 H 0.9140 0.1085 0.0514
H30 H 0.7432 0.0842 0.0670
loop_
_geom_bond_atom_site_label_1
_geom_bond_atom_site_label_2
_geom_bond_site_symmetry_1
_geom_bond_site_symmetry_2
Ag1 S1 1_555 1_555
S1 C1 1_555 1_555
S2 C8 1_555 1_555
N1 O1 1_555 1_555
O1 Ag1 1_555 1_555
O2 N1 1_555 1_555
O3 N1 1_555 1_555
C1 H1 1_555 1_555
H2 C1 1_555 1_555
C2 C1 1_555 1_555
H3 C2 1_555 1_555
C3 C2 1_555 1_555
H4 C3 1_555 1_555
H5 C3 1_555 1_555
C4 C3 1_555 1_555
H6 C4 1_555 1_555
H7 C4 1_555 1_555
C5 C4 1_555 1_555
H8 C5 1_555 1_555
C6 C5 1_555 1_555
H9 C6 1_555 1_555
H10 C6 1_555 1_555
C7 C2 1_555 1_555
H11 C7 1_555 1_555
H12 C7 1_555 1_555
C8 C5 1_555 1_555
H13 C8 1_555 1_555
H14 C8 1_555 1_555
C9 S2 1_555 1_555
H15 C9 1_555 1_555
H16 C9 1_555 1_555
C10 C9 1_555 1_555
C11 C10 1_555 1_555
H17 C11 1_555 1_555
C12 C11 1_555 1_555
H18 C12 1_555 1_555
C13 C12 1_555 1_555
C14 C13 1_555 1_555
H19 C14 1_555 1_555
C15 C10 1_555 1_555
H20 C15 1_555 1_555
C16 S1 1_555 1_555
H21 C16 1_555 1_555
H22 C16 1_555 1_555
O4 C17 1_555 1_555
C17 H23 1_555 1_555
H24 C17 1_555 1_555
C18 C17 1_555 1_555
H25 C18 1_555 1_555
H26 C18 1_555 1_555
C19 C18 1_555 1_555
H27 C19 1_555 1_555
H28 C19 1_555 1_555
C20 O4 1_555 1_555
H29 C20 1_555 1_555
H30 C20 1_555 1_555
Ag1A S2 1_555 1_555
Ag1C O2 1_555 1_555
S2A Ag1 1_555 1_555
O2C Ag1 1_555 1_555
C6 C7 1_555 1_555
C13 C16 1_555 1_555
C14 C15 1_555 1_555
C19 C20 1_555 1_555

#END
