
#######################################################################
#
#                 Cambridge Crystallographic Data Centre
#                                CCDC 
#
#######################################################################
#
# If this CIF has been generated from an entry in the Cambridge 
# Structural Database, then it will include bibliographic, chemical, 
# crystal, experimental, refinement or atomic coordinate data resulting 
# from the CCDC's data processing and validation procedures.
#
#######################################################################

data_NIMPII
_symmetry_cell_setting           monoclinic
_symmetry_space_group_name_H-M   'P 21/c'
_symmetry_Int_Tables_number      14
_space_group_name_Hall           '-P 2ybc'
loop_
_symmetry_equiv_pos_site_id
_symmetry_equiv_pos_as_xyz
1 x,y,z
2 -x,1/2+y,1/2-z
3 -x,-y,-z
4 x,1/2-y,1/2+z
_cell_length_a                   10.951(3)
_cell_length_b                   18.827(3)
_cell_length_c                   15.193(2)
_cell_angle_alpha                90
_cell_angle_beta                 105.90(2)
_cell_angle_gamma                90
_cell_volume                     3012.57
loop_
_atom_site_label
_atom_site_type_symbol
_atom_site_fract_x
_atom_site_fract_y
_atom_site_fract_z
Au1 Au -0.13824(13) 0.06473(7) -0.13027(8)
Au2 Au -0.23872(18) 0.17409(10) -0.28872(10)
Au3 Au -0.12564(13) 0.51550(8) -0.46015(8)
N1 N -0.0575(24) 0.4184(12) -0.3987(13)
N2 N 0.024(3) 0.3599(15) -0.2599(16)
N3 N -0.1263(24) 0.3002(15) -0.3827(15)
C1 C 0.0179(22) 0.4167(16) -0.3134(16)
C2 C -0.112(3) 0.3553(16) -0.4352(17)
C3 C -0.051(3) 0.3049(21) -0.2949(21)
C4 C 0.433(3) 0.5282(20) -0.1362(23)
C5 C 0.526(5) 0.649(3) -0.191(3)
C6 C 0.490(4) 0.6526(21) -0.0254(23)
C7 C 0.418(4) 0.6858(22) 0.0189(21)
C8 C 0.459(3) 0.7058(22) 0.1110(21)
C9 C 0.579(4) 0.6807(23) 0.1523(23)
C10 C 0.664(3) 0.6527(20) 0.1127(21)
C11 C 0.619(3) 0.6325(19) 0.0251(23)
C12 C -0.254(5) 0.652(3) -0.391(3)
C13 C -0.175(4) 0.6845(23) -0.539(3)
C14 C -0.397(3) 0.6035(22) -0.5691(25)
C15 C -0.476(5) 0.661(4) -0.566(4)
C16 C -0.596(6) 0.645(5) -0.613(5)
C17 C -0.627(5) 0.591(3) -0.670(3)
C18 C -0.575(5) 0.526(4) -0.656(3)
C19 C -0.439(4) 0.542(3) -0.599(3)
S1 S -0.1083(9) 0.5136(5) -0.7368(5)
S2 S -0.2008(10) 0.3477(5) -0.5484(5)
S3 S -0.0569(13) 0.2369(7) -0.2186(7)
P1 P 0.4244(10) 0.6229(6) -0.1425(6)
P2 P -0.2382(10) 0.6142(7) -0.4927(7)
H1 H 0.529 0.513 -0.108
H2 H 0.423 0.507 -0.199
H3 H 0.389 0.506 -0.107
H4 H 0.632 0.617 -0.165
H5 H 0.572 0.690 -0.201
H6 H 0.533 0.623 -0.260
H7 H 0.331 0.701 -0.016
H8 H 0.403 0.727 0.151
H9 H 0.614 0.705 0.212
H10 H 0.751 0.648 0.152
H11 H 0.684 0.610 -0.012
H12 H -0.327 0.688 -0.399
H13 H -0.199 0.657 -0.340
H14 H -0.321 0.611 -0.361
H15 H -0.234 0.729 -0.550
H16 H -0.157 0.678 -0.595
H17 H -0.098 0.705 -0.497
H18 H -0.465 0.693 -0.510
H19 H -0.672 0.670 -0.639
H20 H -0.685 0.588 -0.740
H21 H -0.644 0.473 -0.682
H22 H -0.408 0.491 -0.591
Au1A Au 0.13824(13) 0.56473(7) -0.36973(8)
Au2A Au 0.23872(18) 0.67409(10) -0.21128(10)
S3A S 0.0569(13) 0.7369(7) -0.2814(7)
C3A C 0.051(3) 0.8049(21) -0.2051(21)
Au3B Au 0.12564(13) 0.48450(8) -0.53985(8)
Au1C Au -0.13824(13) 0.43527(7) -0.63027(8)
N1B N 0.0575(24) 0.5816(12) -0.6013(13)
C1B C -0.0179(22) 0.5833(16) -0.6866(16)
N2B N -0.024(3) 0.6401(15) -0.7401(16)
C3B C 0.051(3) 0.6951(21) -0.7051(21)
Au2C Au -0.23872(18) 0.32591(10) -0.78872(10)
C2B C 0.112(3) 0.6447(16) -0.5648(17)
N3B N 0.1263(24) 0.6998(15) -0.6173(15)
S3B S 0.0569(13) 0.7631(7) -0.7814(7)
S2B S 0.2008(10) 0.6523(5) -0.4516(5)
S1B S 0.1083(9) 0.4864(5) -0.2632(5)
P2B P 0.2382(10) 0.3858(7) -0.5073(7)
C12B C 0.254(5) 0.348(3) -0.609(3)
H12B H 0.327 0.312 -0.601
H13B H 0.199 0.343 -0.660
H14B H 0.321 0.389 -0.639
C13B C 0.175(4) 0.3155(23) -0.461(3)
H15B H 0.234 0.271 -0.450
H16B H 0.157 0.322 -0.405
H17B H 0.098 0.295 -0.503
C14B C 0.397(3) 0.3965(22) -0.4309(25)
C15B C 0.476(5) 0.339(4) -0.434(4)
C16B C 0.596(6) 0.355(5) -0.387(5)
C17B C 0.627(5) 0.409(3) -0.330(3)
C18B C 0.575(5) 0.474(4) -0.344(3)
C19B C 0.439(4) 0.458(3) -0.401(3)
H22B H 0.408 0.509 -0.409
H21B H 0.644 0.527 -0.318
H20B H 0.685 0.412 -0.260
H19B H 0.672 0.330 -0.361
H18B H 0.465 0.307 -0.490
P1A P -0.4244(10) 0.1229(6) -0.3575(6)
C4A C -0.433(3) 0.0282(20) -0.3638(23)
H1A H -0.529 0.013 -0.392
H2A H -0.423 0.007 -0.301
H3A H -0.389 0.006 -0.393
C5A C -0.526(5) 0.149(3) -0.309(3)
H4A H -0.632 0.117 -0.335
H5A H -0.572 0.190 -0.299
H6A H -0.533 0.123 -0.240
C6A C -0.490(4) 0.1526(21) -0.4746(23)
C7A C -0.418(4) 0.1858(22) -0.5189(21)
C8A C -0.459(3) 0.2058(22) -0.6110(21)
C9A C -0.579(4) 0.1807(23) -0.6523(23)
C10A C -0.664(3) 0.1527(20) -0.6127(21)
C11A C -0.619(3) 0.1325(19) -0.5251(23)
H11A H -0.684 0.110 -0.488
H10A H -0.751 0.148 -0.652
H9A H -0.614 0.205 -0.712
H8A H -0.403 0.227 -0.651
H7A H -0.331 0.201 -0.484
C20 C 1.110(5) 0.579(4) 1.021(4)
O1 O 0.988(6) 0.6150(23) 0.956(4)
H23 H 1.137 0.552 1.084
H24 H 1.209 0.586 1.020
H25 H 1.118 0.522 0.986
H26 H 0.938 0.583 0.978
loop_
_geom_bond_atom_site_label_1
_geom_bond_atom_site_label_2
_geom_bond_site_symmetry_1
_geom_bond_site_symmetry_2
Au1 Au2 1_555 1_555
Au2 S3 1_555 1_555
Au3 N1 1_555 1_555
N1 C1 1_555 1_555
N2 C1 1_555 1_555
N3 C2 1_555 1_555
C1 S1B 1_555 1_555
C2 N1 1_555 1_555
C3 N2 1_555 1_555
C4 P1 1_555 1_555
C5 P1 1_555 1_555
C6 C7 1_555 1_555
C7 C8 1_555 1_555
C8 C9 1_555 1_555
C9 C10 1_555 1_555
C10 C11 1_555 1_555
C11 C6 1_555 1_555
C12 P2 1_555 1_555
C13 P2 1_555 1_555
C14 C15 1_555 1_555
C15 C16 1_555 1_555
C16 C17 1_555 1_555
C17 C18 1_555 1_555
C18 C19 1_555 1_555
C19 C14 1_555 1_555
C20 O1 1_555 1_555
O1 H26 1_555 1_555
S1 Au1C 1_555 1_555
S2 C2 1_555 1_555
S3 C3 1_555 1_555
P1 C6 1_555 1_555
P2 Au3 1_555 1_555
H1 C4 1_555 1_555
H2 C4 1_555 1_555
H3 C4 1_555 1_555
H4 C5 1_555 1_555
H5 C5 1_555 1_555
H6 C5 1_555 1_555
H7 C7 1_555 1_555
H8 C8 1_555 1_555
H9 C9 1_555 1_555
H10 C10 1_555 1_555
H11 C11 1_555 1_555
H12 C12 1_555 1_555
H13 C12 1_555 1_555
H14 C12 1_555 1_555
H15 C13 1_555 1_555
H16 C13 1_555 1_555
H17 C13 1_555 1_555
H18 C15 1_555 1_555
H19 C16 1_555 1_555
H20 C17 1_555 1_555
H21 C18 1_555 1_555
H22 C19 1_555 1_555
H23 C20 1_555 1_555
H24 C20 1_555 1_555
H25 C20 1_555 1_555
Au1A Au3 1_555 1_555
Au2A P1 1_555 1_555
S3A Au2A 1_555 1_555
C3A S3A 1_555 1_555
Au3B Au1A 1_555 1_555
Au1C Au3 1_555 1_555
N1B Au3B 1_555 1_555
C1B S1 1_555 1_555
N2B C1B 1_555 1_555
C3B N2B 1_555 1_555
Au2C Au1C 1_555 1_555
C2B N1B 1_555 1_555
N3B C3B 1_555 1_555
S3B C3B 1_555 1_555
S2B Au1A 1_555 1_555
S1B Au1A 1_555 1_555
P2B Au3B 1_555 1_555
C12B P2B 1_555 1_555
H12B C12B 1_555 1_555
H13B C12B 1_555 1_555
H14B C12B 1_555 1_555
C13B P2B 1_555 1_555
H15B C13B 1_555 1_555
H16B C13B 1_555 1_555
H17B C13B 1_555 1_555
C14B P2B 1_555 1_555
C15B C14B 1_555 1_555
C16B C15B 1_555 1_555
C17B C16B 1_555 1_555
C18B C17B 1_555 1_555
C19B C14B 1_555 1_555
H22B C19B 1_555 1_555
H21B C18B 1_555 1_555
H20B C17B 1_555 1_555
H19B C16B 1_555 1_555
H18B C15B 1_555 1_555
P1A Au2 1_555 1_555
C4A P1A 1_555 1_555
H1A C4A 1_555 1_555
H2A C4A 1_555 1_555
H3A C4A 1_555 1_555
C5A P1A 1_555 1_555
H4A C5A 1_555 1_555
H5A C5A 1_555 1_555
H6A C5A 1_555 1_555
C6A P1A 1_555 1_555
C7A C6A 1_555 1_555
C8A C7A 1_555 1_555
C9A C8A 1_555 1_555
C10A C9A 1_555 1_555
C11A C6A 1_555 1_555
H11A C11A 1_555 1_555
H10A C10A 1_555 1_555
H9A C9A 1_555 1_555
H8A C8A 1_555 1_555
H7A C7A 1_555 1_555
N3 C3 1_555 1_555
C14 P2 1_555 1_555
S2 Au1C 1_555 1_555
Au1A Au2A 1_555 1_555
Au3B Au1C 1_555 1_555
N1B C1B 1_555 1_555
C2B N3B 1_555 1_555
C2B S2B 1_555 1_555
C18B C19B 1_555 1_555
C10A C11A 1_555 1_555

#END
