
#######################################################################
#
#                 Cambridge Crystallographic Data Centre
#                                CCDC 
#
#######################################################################
#
# If this CIF has been generated from an entry in the Cambridge 
# Structural Database, then it will include bibliographic, chemical, 
# crystal, experimental, refinement or atomic coordinate data resulting 
# from the CCDC's data processing and validation procedures.
#
#######################################################################

data_NIMQAB
_symmetry_cell_setting           monoclinic
_symmetry_space_group_name_H-M   'C 2/m'
_symmetry_Int_Tables_number      12
_space_group_name_Hall           '-C 2y'
loop_
_symmetry_equiv_pos_site_id
_symmetry_equiv_pos_as_xyz
1 x,y,z
2 -x,y,-z
3 1/2+x,1/2+y,z
4 1/2-x,1/2+y,-z
5 -x,-y,-z
6 x,-y,z
7 1/2-x,1/2-y,-z
8 1/2+x,1/2-y,z
_cell_length_a                   9.0645(8)
_cell_length_b                   17.143(3)
_cell_length_c                   9.215(4)
_cell_angle_alpha                90
_cell_angle_beta                 93.66(2)
_cell_angle_gamma                90
_cell_volume                     1429.02
loop_
_atom_site_label
_atom_site_type_symbol
_atom_site_fract_x
_atom_site_fract_y
_atom_site_fract_z
C1 C 0.7321(5) 0.5000 0.9909(5)
C2 C 0.6121(4) 0.5412(2) 1.1892(3)
C3 C 0.6857(4) 0.5669(2) 1.0659(3)
C4 C 0.8182(8) 0.5000 0.8561(7)
C5 C 0.5515(6) 0.5933(3) 1.3017(5)
C6 C 0.7182(8) 0.6500(3) 1.0282(7)
Fe2 Fe 0.5000 0.5000 1.0000
H1 H 0.923(8) 0.5000 0.889(7)
H2 H 0.781(8) 0.540(4) 0.792(7)
H3 H 0.601(7) 0.597(3) 1.381(6)
H4 H 0.525(7) 0.643(3) 1.267(6)
H5 H 0.463(6) 0.569(3) 1.329(5)
H6 H 0.653(6) 0.679(3) 1.077(6)
H7 H 0.722(8) 0.655(4) 0.925(8)
H8 H 0.802(8) 0.662(4) 1.063(8)
C2E C 0.6121(4) 0.4588(2) 1.1892(3)
C3E C 0.6857(4) 0.4331(2) 1.0659(3)
H2E H 0.781(8) 0.460(4) 0.792(7)
C1A C 0.2679(5) 0.5000 1.0091(5)
C3A C 0.3143(4) 0.5669(2) 0.9341(3)
C2A C 0.3879(4) 0.5412(2) 0.8108(3)
C2D C 0.3879(4) 0.4588(2) 0.8108(3)
C5A C 0.4485(6) 0.5933(3) 0.6983(5)
H3A H 0.399(7) 0.597(3) 0.619(6)
H4A H 0.475(7) 0.643(3) 0.733(6)
H5A H 0.537(6) 0.569(3) 0.671(5)
C3D C 0.3143(4) 0.4331(2) 0.9341(3)
C4A C 0.1818(8) 0.5000 1.1439(7)
H1A H 0.077(8) 0.5000 1.111(7)
H2A H 0.219(8) 0.540(4) 1.208(7)
H2D H 0.219(8) 0.460(4) 1.208(7)
C6D C 0.2818(8) 0.3500(3) 0.9718(7)
H6D H 0.347(6) 0.321(3) 0.923(6)
H7D H 0.278(8) 0.345(4) 1.075(8)
H8D H 0.198(8) 0.338(4) 0.937(8)
C5E C 0.5515(6) 0.4067(3) 1.3017(5)
H3E H 0.601(7) 0.403(3) 1.381(6)
H4E H 0.525(7) 0.357(3) 1.267(6)
H5E H 0.463(6) 0.431(3) 1.329(5)
C6A C 0.2818(8) 0.6500(3) 0.9718(7)
H6A H 0.347(6) 0.679(3) 0.923(6)
H7A H 0.278(8) 0.655(4) 1.075(8)
H8A H 0.198(8) 0.662(4) 0.937(8)
C6E C 0.7182(8) 0.3500(3) 1.0282(7)
H6E H 0.653(6) 0.321(3) 1.077(6)
H7E H 0.722(8) 0.345(4) 0.925(8)
H8E H 0.802(8) 0.338(4) 1.063(8)
C5D C 0.4485(6) 0.4067(3) 0.6983(5)
H3D H 0.399(7) 0.403(3) 0.619(6)
H4D H 0.475(7) 0.357(3) 0.733(6)
H5D H 0.537(6) 0.431(3) 0.671(5)
O1 O 0.8148(3) 0.32159(12) 0.6218(2)
O2 O 0.6192(3) 0.24245(11) 0.6290(2)
O3 O 1.0788(3) 0.43461(12) 0.6267(2)
C7 C 0.4538(4) 0.0000 0.4268(4)
C8 C 0.7318(3) 0.26861(14) 0.5738(3)
Mn1 Mn 1.0000 0.34027(3) 0.5000
Mn1F Mn 0.5000 0.15973(3) 0.5000
O1F O 0.6852(3) 0.17841(12) 0.3782(2)
C8F C 0.7682(3) 0.23139(14) 0.4262(3)
O2F O 0.8808(3) 0.25755(11) 0.3710(2)
O1A O 1.1852(3) 0.32159(12) 0.3782(2)
C8A C 1.2682(3) 0.26861(14) 0.4262(3)
O2A O 1.3808(3) 0.24245(11) 0.3710(2)
Mn1G Mn 1.5000 0.15973(3) 0.5000
O1G O 1.3148(3) 0.17841(12) 0.6218(2)
C8G C 1.2318(3) 0.23139(14) 0.5738(3)
O2G O 1.1192(3) 0.25755(11) 0.6290(2)
O3A O 0.9212(3) 0.43461(12) 0.3733(2)
O3F O 0.4212(3) 0.06539(12) 0.3733(2)
O3G O 0.5788(3) 0.06539(12) 0.6267(2)
C7A C 0.5462(4) 0.0000 0.5732(4)
O3B O 0.5788(3) -0.06539(12) 0.6267(2)
Mn1B Mn 0.5000 -0.15973(3) 0.5000
O3C O 0.4212(3) -0.06539(12) 0.3733(2)
Fe1? Fe 1.0000 0.34027(3) 0.5000
loop_
_geom_bond_atom_site_label_1
_geom_bond_atom_site_label_2
_geom_bond_site_symmetry_1
_geom_bond_site_symmetry_2
O1 C8 1_555 1_555
O2 C8 1_555 1_555
O3 Mn1 1_555 1_555
C1 C3 1_555 1_555
C2 C3 1_555 1_555
C3 C6 1_555 1_555
C4 C1 1_555 1_555
C5 C2 1_555 1_555
C6 H6 1_555 1_555
C7 O3F 1_555 1_555
C8 C8F 1_555 1_555
Mn1 O1 1_555 1_555
Fe2 C1 1_555 1_555
H1 C4 1_555 1_555
H2 C4 1_555 1_555
H3 C5 1_555 1_555
H4 C5 1_555 1_555
H5 C5 1_555 1_555
H7 C6 1_555 1_555
H8 C6 1_555 1_555
Mn1F O2 1_555 1_555
O1F Mn1F 1_555 1_555
C8F O1F 1_555 1_555
O2F Mn1 1_555 1_555
O1A Mn1 1_555 1_555
C8A O1A 1_555 1_555
O2A C8A 1_555 1_555
Mn1G O2A 1_555 1_555
O1G Mn1G 1_555 1_555
C8G C8A 1_555 1_555
O2G Mn1 1_555 1_555
O3A Mn1 1_555 1_555
O3F Mn1F 1_555 1_555
O3G Mn1F 1_555 1_555
C7A C7 1_555 1_555
C2E C2 1_555 1_555
C3E C1 1_555 1_555
H2E C4 1_555 1_555
C1A Fe2 1_555 1_555
C3A Fe2 1_555 1_555
C2A Fe2 1_555 1_555
C2D Fe2 1_555 1_555
C5A C2A 1_555 1_555
H3A C5A 1_555 1_555
H4A C5A 1_555 1_555
H5A C5A 1_555 1_555
C3D Fe2 1_555 1_555
C4A C1A 1_555 1_555
H1A C4A 1_555 1_555
H2A C4A 1_555 1_555
H2D C4A 1_555 1_555
C6D C3D 1_555 1_555
H6D C6D 1_555 1_555
H7D C6D 1_555 1_555
H8D C6D 1_555 1_555
C5E C2E 1_555 1_555
H3E C5E 1_555 1_555
H4E C5E 1_555 1_555
H5E C5E 1_555 1_555
C6A C3A 1_555 1_555
H6A C6A 1_555 1_555
H7A C6A 1_555 1_555
H8A C6A 1_555 1_555
C6E C3E 1_555 1_555
H6E C6E 1_555 1_555
H7E C6E 1_555 1_555
H8E C6E 1_555 1_555
C5D C2D 1_555 1_555
H3D C5D 1_555 1_555
H4D C5D 1_555 1_555
H5D C5D 1_555 1_555
O3B C7A 1_555 1_555
Mn1B O3B 1_555 1_555
O3C C7 1_555 1_555
C2 Fe2 1_555 1_555
C3 Fe2 1_555 1_555
Fe2 C2E 1_555 1_555
Fe2 C3E 1_555 1_555
C8F O2F 1_555 1_555
O1G C8G 1_555 1_555
C8G O2G 1_555 1_555
O3G C7A 1_555 1_555
C2E C3E 1_555 1_555
C1A C3A 1_555 1_555
C1A C3D 1_555 1_555
C3A C2A 1_555 1_555
C2A C2D 1_555 1_555
C2D C3D 1_555 1_555
Mn1B O3C 1_555 1_555

#END
