
#######################################################################
#
#                 Cambridge Crystallographic Data Centre
#                                CCDC 
#
#######################################################################
#
# If this CIF has been generated from an entry in the Cambridge 
# Structural Database, then it will include bibliographic, chemical, 
# crystal, experimental, refinement or atomic coordinate data resulting 
# from the CCDC's data processing and validation procedures.
#
#######################################################################

data_NIMRAD
_symmetry_cell_setting           rhombohedral
_symmetry_space_group_name_H-M   'R -3'
_symmetry_Int_Tables_number      148
_space_group_name_Hall           '-R 3'
loop_
_symmetry_equiv_pos_site_id
_symmetry_equiv_pos_as_xyz
1 x,y,z
2 -y,x-y,z
3 -x+y,-x,z
4 2/3+x,1/3+y,1/3+z
5 2/3-y,1/3+x-y,1/3+z
6 2/3-x+y,1/3-x,1/3+z
7 1/3+x,2/3+y,2/3+z
8 1/3-y,2/3+x-y,2/3+z
9 1/3-x+y,2/3-x,2/3+z
10 -x,-y,-z
11 y,-x+y,-z
12 x-y,x,-z
13 1/3-x,2/3-y,2/3-z
14 1/3+y,2/3-x+y,2/3-z
15 1/3+x-y,2/3+x,2/3-z
16 2/3-x,1/3-y,1/3-z
17 2/3+y,1/3-x+y,1/3-z
18 2/3+x-y,1/3+x,1/3-z
_cell_length_a                   18.604(3)
_cell_length_b                   18.604(3)
_cell_length_c                   19.756(4)
_cell_angle_alpha                90
_cell_angle_beta                 90
_cell_angle_gamma                120.00
_cell_volume                     5921.64
loop_
_atom_site_label
_atom_site_type_symbol
_atom_site_fract_x
_atom_site_fract_y
_atom_site_fract_z
C1 C 0.4004(2) 0.55666(19) 0.00059(16)
C2 C 0.36564(19) 0.61358(18) -0.00279(17)
C3 C 0.28033(19) 0.58118(19) -0.00290(17)
H1 H 0.2448 0.5240 -0.0031
C4 C 0.5238(3) 0.5482(3) 0.1440(2)
H2 H 0.5556 0.6013 0.1262
C5 C 0.5158(3) 0.5393(3) 0.2134(2)
H3 H 0.5415 0.5857 0.2413
C6 C 0.4699(2) 0.4619(2) 0.24086(18)
C7 C 0.4337(3) 0.3965(3) 0.19655(19)
H4 H 0.4019 0.3427 0.2129
C8 C 0.4444(3) 0.4104(2) 0.12816(19)
H5 H 0.4194 0.3652 0.0989
C9 C 0.4559(3) 0.4418(2) 0.31541(18)
C10 C 0.4949(2) 0.5002(2) 0.42956(19)
C11 C 0.5091(3) 0.5687(2) 0.46648(19)
H6 H 0.5154 0.6156 0.4442
C12 C 0.4858(3) 0.4310(3) 0.46379(19)
H7 H 0.4762 0.3842 0.4396
Cu1 Cu 0.5000 0.5000 0.0000
H8 H 0.514(4) 0.559(3) 0.341(3)
N1 N 0.48894(18) 0.48584(17) 0.10218(15)
N2 N 0.4944(2) 0.5059(2) 0.35835(17)
O1 O 0.35405(15) 0.48028(14) -0.00062(13)
O2 O 0.47928(13) 0.59172(14) 0.00489(11)
O3 O 0.4114(3) 0.3702(2) 0.33325(16)
C1B C 0.15626(28) 0.5996(2) 0.00059(16)
C1A C 0.44334(19) 0.84374(28) 0.00059(16)
C1I C 0.5996(2) 0.44334(19) -0.00059(16)
C1K C 0.84374(28) 0.4004(2) -0.00059(16)
C1J C 0.55666(19) 0.15626(28) -0.00059(16)
C2B C 0.24794(26) 0.63436(19) -0.00279(17)
C2A C 0.38642(18) 0.75206(26) -0.00279(17)
C2I C 0.63436(19) 0.38642(18) 0.00279(17)
C2K C 0.75206(26) 0.36564(19) 0.00279(17)
C2J C 0.61358(18) 0.24794(26) 0.00279(17)
C3B C 0.30085(27) 0.71967(19) -0.00290(17)
C3A C 0.41882(19) 0.69915(27) -0.00290(17)
C3I C 0.71967(19) 0.41882(19) 0.00290(17)
C3K C 0.69915(27) 0.28033(19) 0.00290(17)
C3J C 0.58118(19) 0.30085(27) 0.00290(17)
H1A H 0.4760 0.7208 -0.0031
H1B H 0.2792 0.7552 -0.0031
H1I H 0.7552 0.4760 0.0031
H1J H 0.5240 0.2792 0.0031
H1K H 0.7208 0.2448 0.0031
C4I C 0.4762(3) 0.4518(3) 0.8560(2)
C4I_2 C 0.4762(3) 0.4518(3) -0.1440(2)
C4_2 C 0.5238(3) 0.5482(3) -0.8560(2)
C4_3 C 0.5238(3) 0.5482(3) 1.1440(2)
C4I_3 C 0.4762(3) 0.4518(3) 1.8560(2)
H2I H 0.4444 0.3987 0.8738
H2I_2 H 0.4444 0.3987 -0.1262
H2_2 H 0.5556 0.6013 -0.8738
H2_3 H 0.5556 0.6013 1.1262
H2I_3 H 0.4444 0.3987 1.8738
C5I C 0.4842(3) 0.4607(3) 0.7866(2)
C5I_2 C 0.4842(3) 0.4607(3) -0.2134(2)
C5_2 C 0.5158(3) 0.5393(3) -0.7866(2)
C5_3 C 0.5158(3) 0.5393(3) 1.2134(2)
C5I_3 C 0.4842(3) 0.4607(3) 1.7866(2)
H3I H 0.4585 0.4143 0.7587
H3I_2 H 0.4585 0.4143 -0.2413
H3_2 H 0.5415 0.5857 -0.7587
H3_3 H 0.5415 0.5857 1.2413
H3I_3 H 0.4585 0.4143 1.7587
C6I C 0.5301(2) 0.5381(2) 0.75914(18)
C6I_2 C 0.5301(2) 0.5381(2) -0.24086(18)
C6_2 C 0.4699(2) 0.4619(2) -0.75914(18)
C6_3 C 0.4699(2) 0.4619(2) 1.24086(18)
C6I_3 C 0.5301(2) 0.5381(2) 1.75914(18)
C7I C 0.5663(3) 0.6035(3) 0.80345(19)
C7I_2 C 0.5663(3) 0.6035(3) -0.19655(19)
C7_2 C 0.4337(3) 0.3965(3) -0.80345(19)
C7_3 C 0.4337(3) 0.3965(3) 1.19655(19)
C7I_3 C 0.5663(3) 0.6035(3) 1.80345(19)
H4I H 0.5981 0.6573 0.7871
H4I_2 H 0.5981 0.6573 -0.2129
H4_2 H 0.4019 0.3427 -0.7871
H4_3 H 0.4019 0.3427 1.2129
H4I_3 H 0.5981 0.6573 1.7871
C8I C 0.5556(3) 0.5896(2) 0.87184(19)
C8I_2 C 0.5556(3) 0.5896(2) -0.12816(19)
C8_2 C 0.4444(3) 0.4104(2) -0.87184(19)
C8_3 C 0.4444(3) 0.4104(2) 1.12816(19)
C8I_3 C 0.5556(3) 0.5896(2) 1.87184(19)
H5I H 0.5806 0.6348 0.9011
H5I_2 H 0.5806 0.6348 -0.0989
H5_2 H 0.4194 0.3652 -0.9011
H5_3 H 0.4194 0.3652 1.0989
H5I_3 H 0.5806 0.6348 1.9011
C9I C 0.5441(3) 0.5582(2) 0.68459(18)
C9I_2 C 0.5441(3) 0.5582(2) -0.31541(18)
C9_2 C 0.4559(3) 0.4418(2) -0.68459(18)
C9_3 C 0.4559(3) 0.4418(2) 1.31541(18)
C9I_3 C 0.5441(3) 0.5582(2) 1.68459(18)
C10I C 0.5051(2) 0.4998(2) 0.57044(19)
C10I_2 C 0.5051(2) 0.4998(2) -0.42956(19)
C10_2 C 0.4949(2) 0.5002(2) -0.57044(19)
C10_3 C 0.4949(2) 0.5002(2) 1.42956(19)
C10I_3 C 0.5051(2) 0.4998(2) 1.57044(19)
C11I C 0.4909(3) 0.4313(2) 0.53352(19)
C11I_2 C 0.4909(3) 0.4313(2) -0.46648(19)
C11_2 C 0.5091(3) 0.5687(2) -0.53352(19)
C11_3 C 0.5091(3) 0.5687(2) 1.46648(19)
C11I_3 C 0.4909(3) 0.4313(2) 1.53352(19)
H6I H 0.4846 0.3844 0.5558
H6I_2 H 0.4846 0.3844 -0.4442
H6_2 H 0.5154 0.6156 -0.5558
H6_3 H 0.5154 0.6156 1.4442
H6I_3 H 0.4846 0.3844 1.5558
C12I C 0.5142(3) 0.5690(3) 0.53621(19)
C12I_2 C 0.5142(3) 0.5690(3) -0.46379(19)
C12_2 C 0.4858(3) 0.4310(3) -0.53621(19)
C12_3 C 0.4858(3) 0.4310(3) 1.46379(19)
C12I_3 C 0.5142(3) 0.5690(3) 1.53621(19)
H7I H 0.5238 0.6158 0.5604
H7I_2 H 0.5238 0.6158 -0.4396
H7_2 H 0.4762 0.3842 -0.5604
H7_3 H 0.4762 0.3842 1.4396
H7I_3 H 0.5238 0.6158 1.5604
Cu1_2 Cu 0.5000 0.5000 1.0000
Cu1_3 Cu 0.5000 0.5000 -1.0000
Cu1B Cu 0.0000 0.5000 0.0000
Cu1A Cu 0.5000 1.0000 0.0000
Cu1B_2 Cu 1.0000 0.5000 0.0000
Cu1A_2 Cu 0.5000 0.0000 0.0000
Cu1_4 Cu 0.5000 0.5000 2.0000
H8I H 0.486(4) 0.441(3) 0.659(3)
H8I_2 H 0.486(4) 0.441(3) -0.341(3)
H8_2 H 0.514(4) 0.559(3) -0.659(3)
H8_3 H 0.514(4) 0.559(3) 1.341(3)
H8I_3 H 0.486(4) 0.441(3) 1.659(3)
N1I N 0.51106(18) 0.51416(17) 0.89782(15)
N1I_2 N 0.51106(18) 0.51416(17) -0.10218(15)
N1_2 N 0.48894(18) 0.48584(17) -0.89782(15)
N1_3 N 0.48894(18) 0.48584(17) 1.10218(15)
N1I_3 N 0.51106(18) 0.51416(17) 1.89782(15)
N1I_4 N 0.51106(18) 0.51416(17) -1.10218(15)
N2I N 0.5056(2) 0.4941(2) 0.64165(17)
N2I_2 N 0.5056(2) 0.4941(2) -0.35835(17)
N2_2 N 0.4944(2) 0.5059(2) -0.64165(17)
N2_3 N 0.4944(2) 0.5059(2) 1.35835(17)
N2I_3 N 0.5056(2) 0.4941(2) 1.64165(17)
O1B O 0.12623(21) 0.64595(15) -0.00062(13)
O1A O 0.51972(14) 0.87377(21) -0.00062(13)
O1I O 0.64595(15) 0.51972(14) 0.00062(13)
O1K O 0.87377(21) 0.35405(15) 0.00062(13)
O1J O 0.48028(14) 0.12623(21) 0.00062(13)
O2B O 0.11244(19) 0.52072(13) 0.00489(11)
O2A O 0.40828(14) 0.88756(19) 0.00489(11)
O2I O 0.52072(13) 0.40828(14) -0.00489(11)
O2K O 0.88756(19) 0.47928(13) -0.00489(11)
O2J O 0.59172(14) 0.11244(19) -0.00489(11)
O2_2 O 0.47928(13) 0.59172(14) 1.00489(11)
O2I_2 O 0.52072(13) 0.40828(14) 0.99511(11)
O2_3 O 0.47928(13) 0.59172(14) -0.99511(11)
O2I_3 O 0.52072(13) 0.40828(14) -1.00489(11)
O3I O 0.5886(3) 0.6298(2) 0.66675(16)
O3I_2 O 0.5886(3) 0.6298(2) -0.33325(16)
O3_2 O 0.4114(3) 0.3702(2) -0.66675(16)
O3_3 O 0.4114(3) 0.3702(2) 1.33325(16)
O3I_3 O 0.5886(3) 0.6298(2) 1.66675(16)
O4 O 0.3333 0.6667 0.1667
O5 O 0.3333 0.6667 0.8022(18)
O6? O 0.316(3) 0.745(2) 0.1664(7)
O7? O 0.3614(15) 0.7526(14) 0.8038(16)
loop_
_geom_bond_atom_site_label_1
_geom_bond_atom_site_label_2
_geom_bond_site_symmetry_1
_geom_bond_site_symmetry_2
C1 C2 1_555 1_555
C2 C3 1_555 1_555
C3 H1 1_555 1_555
C4 H2 1_555 1_555
C5 C4 1_555 1_555
H3 C5 1_555 1_555
C6 C5 1_555 1_555
C7 C6 1_555 1_555
H4 C7 1_555 1_555
C8 C7 1_555 1_555
H5 C8 1_555 1_555
C9 C6 1_555 1_555
C10 C11 1_555 1_555
C11 H6 1_555 1_555
C12 C10 1_555 1_555
H7 C12 1_555 1_555
Cu1 N1 1_555 1_555
H8 N2 1_555 1_555
N1 C4 1_555 1_555
N2 C9 1_555 1_555
O1 C1 1_555 1_555
O2 C1 1_555 1_555
O3 C9 1_555 1_555
C1B C2B 1_555 1_555
C1A C2A 1_555 1_555
C1I C2I 1_555 1_555
C1K C2K 1_555 1_555
C1J C2J 1_555 1_555
C2B C3 1_555 1_555
C2A C3B 1_555 1_555
C2I C3I 1_555 1_555
C2K C3I 1_555 1_555
C2J C3K 1_555 1_555
C3B C2B 1_555 1_555
C3A C2 1_555 1_555
C3I H1I 1_555 1_555
C3K C2K 1_555 1_555
C3J C2I 1_555 1_555
H1A C3A 1_555 1_555
H1B C3B 1_555 1_555
H1J C3J 1_555 1_555
H1K C3K 1_555 1_555
C4I H2I 1_555 1_555
C4I_2 H2I_2 1_555 1_555
C4_2 H2_2 1_555 1_555
C4_3 H2_3 1_555 1_555
C4I_3 H2I_3 1_555 1_555
C5I C4I 1_555 1_555
C5I_2 C4I_2 1_555 1_555
C5_2 C4_2 1_555 1_555
C5_3 C4_3 1_555 1_555
C5I_3 C4I_3 1_555 1_555
H3I C5I 1_555 1_555
H3I_2 C5I_2 1_555 1_555
H3_2 C5_2 1_555 1_555
H3_3 C5_3 1_555 1_555
H3I_3 C5I_3 1_555 1_555
C6I C5I 1_555 1_555
C6I_2 C5I_2 1_555 1_555
C6_2 C5_2 1_555 1_555
C6_3 C5_3 1_555 1_555
C6I_3 C5I_3 1_555 1_555
C7I C6I 1_555 1_555
C7I_2 C6I_2 1_555 1_555
C7_2 C6_2 1_555 1_555
C7_3 C6_3 1_555 1_555
C7I_3 C6I_3 1_555 1_555
H4I C7I 1_555 1_555
H4I_2 C7I_2 1_555 1_555
H4_2 C7_2 1_555 1_555
H4_3 C7_3 1_555 1_555
H4I_3 C7I_3 1_555 1_555
C8I C7I 1_555 1_555
C8I_2 C7I_2 1_555 1_555
C8_2 C7_2 1_555 1_555
C8_3 C7_3 1_555 1_555
C8I_3 C7I_3 1_555 1_555
H5I C8I 1_555 1_555
H5I_2 C8I_2 1_555 1_555
H5_2 C8_2 1_555 1_555
H5_3 C8_3 1_555 1_555
H5I_3 C8I_3 1_555 1_555
C9I C6I 1_555 1_555
C9I_2 C6I_2 1_555 1_555
C9_2 C6_2 1_555 1_555
C9_3 C6_3 1_555 1_555
C9I_3 C6I_3 1_555 1_555
C10I C11I 1_555 1_555
C10I_2 C11I_2 1_555 1_555
C10_2 C11_2 1_555 1_555
C10_3 C11_3 1_555 1_555
C10I_3 C11I_3 1_555 1_555
C11I C12 1_555 1_555
C11I_2 H6I_2 1_555 1_555
C11_2 H6_2 1_555 1_555
C11_3 H6_3 1_555 1_555
C11I_3 H6I_3 1_555 1_555
H6I C11I 1_555 1_555
C12I C11 1_555 1_555
C12I_2 C10I_2 1_555 1_555
C12_2 C10_2 1_555 1_555
C12_3 C10_3 1_555 1_555
C12I_3 C10I_3 1_555 1_555
H7I C12I 1_555 1_555
H7I_2 C12I_2 1_555 1_555
H7_2 C12_2 1_555 1_555
H7_3 C12_3 1_555 1_555
H7I_3 C12I_3 1_555 1_555
Cu1_2 N1I 1_555 1_555
Cu1_3 N1_2 1_555 1_555
Cu1B O2B 1_555 1_555
Cu1A O2A 1_555 1_555
Cu1B_2 O2K 1_555 1_555
Cu1A_2 O2J 1_555 1_555
Cu1_4 N1I_3 1_555 1_555
H8I N2I 1_555 1_555
H8I_2 N2I_2 1_555 1_555
H8_2 N2_2 1_555 1_555
H8_3 N2_3 1_555 1_555
H8I_3 N2I_3 1_555 1_555
N1I C4I 1_555 1_555
N1I_2 Cu1 1_555 1_555
N1_2 C4_2 1_555 1_555
N1_3 C4_3 1_555 1_555
N1I_3 C4I_3 1_555 1_555
N1I_4 Cu1_3 1_555 1_555
N2I C9I 1_555 1_555
N2I_2 C9I_2 1_555 1_555
N2_2 C9_2 1_555 1_555
N2_3 C9_3 1_555 1_555
N2I_3 C9I_3 1_555 1_555
O1B C1B 1_555 1_555
O1A C1A 1_555 1_555
O1I C1I 1_555 1_555
O1K C1K 1_555 1_555
O1J C1J 1_555 1_555
O2B C1B 1_555 1_555
O2A C1A 1_555 1_555
O2I Cu1 1_555 1_555
O2K C1K 1_555 1_555
O2J C1J 1_555 1_555
O2_2 Cu1_2 1_555 1_555
O2I_2 Cu1_2 1_555 1_555
O2_3 Cu1_3 1_555 1_555
O2I_3 Cu1_3 1_555 1_555
O3I C9I 1_555 1_555
O3I_2 C9I_2 1_555 1_555
O3_2 C9_2 1_555 1_555
O3_3 C9_3 1_555 1_555
O3I_3 C9I_3 1_555 1_555
C8 N1 1_555 1_555
C10 N2 1_555 1_555
Cu1 O2 1_555 1_555
C1I O2I 1_555 1_555
C2A C3A 1_555 1_555
C2J C3J 1_555 1_555
C4I_2 N1I_2 1_555 1_555
C8I N1I 1_555 1_555
C8I_2 N1I_2 1_555 1_555
C8_2 N1_2 1_555 1_555
C8_3 N1_3 1_555 1_555
C8I_3 N1I_3 1_555 1_555
C10I C12I 1_555 1_555
C10I N2I 1_555 1_555
C10I_2 N2I_2 1_555 1_555
C10_2 N2_2 1_555 1_555
C10_3 N2_3 1_555 1_555
C10I_3 N2I_3 1_555 1_555
C11I_2 C12_2 1_555 1_555
C11_2 C12I_2 1_555 1_555
C11_3 C12I_3 1_555 1_555
C11I_3 C12_3 1_555 1_555
Cu1_2 N1_3 1_555 1_555

#END
