
#######################################################################
#
#                 Cambridge Crystallographic Data Centre
#                                CCDC 
#
#######################################################################
#
# If this CIF has been generated from an entry in the Cambridge 
# Structural Database, then it will include bibliographic, chemical, 
# crystal, experimental, refinement or atomic coordinate data resulting 
# from the CCDC's data processing and validation procedures.
#
#######################################################################

data_NIMSAF
_symmetry_cell_setting           monoclinic
_symmetry_space_group_name_H-M   'P 21/a'
_symmetry_Int_Tables_number      14
_space_group_name_Hall           '-P 2yab'
loop_
_symmetry_equiv_pos_site_id
_symmetry_equiv_pos_as_xyz
1 x,y,z
2 1/2-x,1/2+y,-z
3 -x,-y,-z
4 1/2+x,1/2-y,z
_cell_length_a                   8.4049(8)
_cell_length_b                   21.2014(18)
_cell_length_c                   9.3965(6)
_cell_angle_alpha                90
_cell_angle_beta                 107.241(5)
_cell_angle_gamma                90
_cell_volume                     1599.18
loop_
_atom_site_label
_atom_site_type_symbol
_atom_site_fract_x
_atom_site_fract_y
_atom_site_fract_z
Bi1 Bi 0.51179(4) 0.347755(15) 1.23301(3)
Br1 Br 0.62973(11) 0.39629(5) 1.52894(9)
Br2 Br 0.30304(12) 0.44941(5) 1.15403(10)
Br3 Br 0.73549(13) 0.40588(5) 1.12226(12)
Br4 Br 0.74271(11) 0.23611(5) 1.30326(12)
O1 O 0.3830(7) 0.3146(3) 0.9837(6)
N1 N 0.7178(11) 0.0464(4) 0.5019(10)
N2 N 0.4438(8) 0.2691(3) 0.9109(7)
C1 C 0.4974(10) 0.2862(4) 0.7951(9)
H1 H 0.5031 0.3287 0.7722
C2 C 0.6159(12) 0.0910(5) 0.4290(11)
H2 H 0.5856 0.0932 0.3256
C3 C 0.5978(9) 0.1302(4) 0.6629(9)
C4 C 0.5557(10) 0.1341(5) 0.5102(10)
H3 H 0.4856 0.1663 0.461
C5 C 0.5441(9) 0.2406(4) 0.7099(9)
H4 H 0.5771 0.2521 0.6274
C6 C 0.4873(10) 0.1623(4) 0.8703(9)
H5 H 0.4851 0.1203 0.8985
C7 C 0.7039(13) 0.0810(4) 0.7345(10)
H6 H 0.7311 0.0765 0.8374
C8 C 0.7670(12) 0.0399(5) 0.6539(11)
H7 H 0.8412 0.0084 0.7005
C9 C 0.4373(10) 0.2084(4) 0.9494(10)
H8 H 0.399 0.1977 1.0295
C10 C 0.5412(9) 0.1772(4) 0.7486(8)
H9 H 0.738(12) 0.022(4) 0.464(11)
Bi1C Bi 1.01179(4) 0.152245(15) 1.23301(3)
Br4C Br 0.24271(11) 0.26389(5) 1.30326(12)
loop_
_geom_bond_atom_site_label_1
_geom_bond_atom_site_label_2
_geom_bond_site_symmetry_1
_geom_bond_site_symmetry_2
Bi1 Br1 1_555 1_555
Br2 Bi1 1_555 1_555
Br3 Bi1 1_555 1_555
Br4 Bi1 1_555 1_555
O1 Bi1 1_555 1_555
N1 C2 1_555 1_555
N2 O1 1_555 1_555
C1 N2 1_555 1_555
H1 C1 1_555 1_555
C2 H2 1_555 1_555
C3 C4 1_555 1_555
C4 C2 1_555 1_555
H3 C4 1_555 1_555
C5 C1 1_555 1_555
H4 C5 1_555 1_555
C6 H5 1_555 1_555
C7 C3 1_555 1_555
H6 C7 1_555 1_555
C8 N1 1_555 1_555
H7 C8 1_555 1_555
C9 N2 1_555 1_555
H8 C9 1_555 1_555
C10 C3 1_555 1_555
H9 N1 1_555 1_555
Bi1C Br4 1_555 1_555
Br4C Bi1 1_555 1_555
C5 C10 1_555 1_555
C6 C9 1_555 1_555
C6 C10 1_555 1_555
C7 C8 1_555 1_555

#END
