
#######################################################################
#
#                 Cambridge Crystallographic Data Centre
#                                CCDC 
#
#######################################################################
#
# If this CIF has been generated from an entry in the Cambridge 
# Structural Database, then it will include bibliographic, chemical, 
# crystal, experimental, refinement or atomic coordinate data resulting 
# from the CCDC's data processing and validation procedures.
#
#######################################################################

data_NIMTEI
_symmetry_cell_setting           monoclinic
_symmetry_space_group_name_H-M   'P 21/c'
_symmetry_Int_Tables_number      14
_space_group_name_Hall           '-P 2ybc'
loop_
_symmetry_equiv_pos_site_id
_symmetry_equiv_pos_as_xyz
1 x,y,z
2 x,1/2-y,1/2+z
3 -x,-y,-z
4 -x,1/2+y,1/2-z
_cell_length_a                   10.7590(15)
_cell_length_b                   12.7771(18)
_cell_length_c                   14.927(2)
_cell_angle_alpha                90
_cell_angle_beta                 99.825(3)
_cell_angle_gamma                90
_cell_volume                     2021.9
loop_
_atom_site_label
_atom_site_type_symbol
_atom_site_fract_x
_atom_site_fract_y
_atom_site_fract_z
Ag1 Ag 0.37356(3) 0.98241(3) 0.57928(2)
N1 N -0.2073(2) 1.1883(2) 0.46602(16)
N2 N 0.2316(3) 1.1035(3) 0.5438(3)
N3 N -0.4293(3) 1.0808(3) 0.5913(2)
N4 N -0.4521(3) 1.1616(2) 0.3494(2)
C1 C -0.5780(3) 1.1718(3) 0.3220(3)
H1 H -0.6308 1.1116 0.3246
C2 C -0.6334(4) 1.2643(4) 0.2908(3)
H2 H -0.7230 1.2685 0.2713
C3 C -0.5604(4) 1.3495(4) 0.2877(3)
H3 H -0.5978 1.4153 0.2672
C4 C -0.4291(3) 1.3412(3) 0.3150(2)
H4 H -0.3755 1.4009 0.3129
C5 C -0.3791(3) 1.2458(3) 0.3446(2)
C6 C -0.2380(3) 1.2308(3) 0.3738(2)
H5 H -0.1962 1.2969 0.3714
H6 H -0.2074 1.1840 0.3322
C7 C -0.0846(3) 1.1374(3) 0.4851(2)
H7 H -0.0769 1.1033 0.5431
H8 H -0.0818 1.0842 0.4401
C8 C 0.0305(3) 1.2105(3) 0.4865(3)
H9 H 0.0252 1.2682 0.5268
H10 H 0.0309 1.2380 0.4267
C9 C 0.1463(3) 1.1521(3) 0.5169(3)
C10 C -0.2292(3) 1.2643(3) 0.5346(2)
H11 H -0.1590 1.3116 0.5460
H12 H -0.3032 1.3045 0.5115
C11 C -0.2466(3) 1.2129(3) 0.6235(2)
H13 H -0.2650 1.2655 0.6653
H14 H -0.1699 1.1784 0.6501
C12 C -0.3489(3) 1.1372(3) 0.6080(2)
N3_2 N 0.5707(3) 1.0808(3) 0.5913(2)
N4B N 0.4521(3) 0.8384(2) 0.6506(2)
Ag1_2 Ag -0.62644(3) 0.98241(3) 0.57928(2)
Ag1B Ag -0.37356(3) 1.01759(3) 0.42072(2)
C13 C 0.0578(5) 0.4761(4) 0.3018(5)
F1 F 0.1628(3) 0.5196(4) 0.2966(5)
F2 F 0.0444(4) 0.3841(3) 0.2758(5)
F3 F 0.0763(7) 0.4644(5) 0.3934(5)
S1 S -0.07622(9) 0.55719(9) 0.26864(7)
O1 O -0.0499(5) 0.6489(4) 0.3149(4)
O2 O -0.0820(6) 0.5580(6) 0.1741(3)
O3 O -0.1787(4) 0.4980(4) 0.2858(4)
N5 N 0.4538(5) 0.5991(5) 0.3817(4)
C14 C 0.5527(5) 0.6012(4) 0.4199(4)
C15 C 0.6799(6) 0.5998(7) 0.4684(5)
H15 H 0.6951 0.5353 0.5014
H16 H 0.6924 0.6575 0.5101
H17 H 0.7374 0.6057 0.4260
loop_
_geom_bond_atom_site_label_1
_geom_bond_atom_site_label_2
_geom_bond_site_symmetry_1
_geom_bond_site_symmetry_2
Ag1 N2 1_555 1_555
N1 C6 1_555 1_555
N2 C9 1_555 1_555
N3 C12 1_555 1_555
N4 C1 1_555 1_555
C1 H1 1_555 1_555
C2 C1 1_555 1_555
H2 C2 1_555 1_555
C3 C2 1_555 1_555
H3 C3 1_555 1_555
C4 C3 1_555 1_555
H4 C4 1_555 1_555
C5 N4 1_555 1_555
C6 C5 1_555 1_555
H5 C6 1_555 1_555
H6 C6 1_555 1_555
C7 N1 1_555 1_555
H7 C7 1_555 1_555
H8 C7 1_555 1_555
C8 C7 1_555 1_555
H9 C8 1_555 1_555
H10 C8 1_555 1_555
C9 C8 1_555 1_555
C10 N1 1_555 1_555
H11 C10 1_555 1_555
H12 C10 1_555 1_555
C11 C10 1_555 1_555
H13 C11 1_555 1_555
H14 C11 1_555 1_555
C12 C11 1_555 1_555
C13 F1 1_555 1_555
F2 C13 1_555 1_555
F3 C13 1_555 1_555
S1 C13 1_555 1_555
O1 S1 1_555 1_555
O2 S1 1_555 1_555
O3 S1 1_555 1_555
N5 C14 1_555 1_555
C14 C15 1_555 1_555
C15 H15 1_555 1_555
H16 C15 1_555 1_555
H17 C15 1_555 1_555
N3_2 Ag1 1_555 1_555
N4B Ag1 1_555 1_555
Ag1_2 N3 1_555 1_555
Ag1B N4 1_555 1_555
C4 C5 1_555 1_555

#END
