
#######################################################################
#
#                 Cambridge Crystallographic Data Centre
#                                CCDC 
#
#######################################################################
#
# If this CIF has been generated from an entry in the Cambridge 
# Structural Database, then it will include bibliographic, chemical, 
# crystal, experimental, refinement or atomic coordinate data resulting 
# from the CCDC's data processing and validation procedures.
#
#######################################################################

data_NIMTUZ
_symmetry_cell_setting           monoclinic
_symmetry_space_group_name_H-M   'C 2/c'
_symmetry_Int_Tables_number      15
_space_group_name_Hall           '-C 2yn'
loop_
_symmetry_equiv_pos_site_id
_symmetry_equiv_pos_as_xyz
1 x,y,z
2 1/2+x,1/2+y,z
3 -x,y,1/2-z
4 1/2-x,1/2+y,1/2-z
5 -x,-y,-z
6 1/2-x,1/2-y,-z
7 x,-y,1/2+z
8 1/2+x,1/2-y,1/2+z
_cell_length_a                   17.825(14)
_cell_length_b                   9.979(6)
_cell_length_c                   12.985(9)
_cell_angle_alpha                90
_cell_angle_beta                 112.021(14)
_cell_angle_gamma                90
_cell_volume                     2141.21
loop_
_atom_site_label
_atom_site_type_symbol
_atom_site_fract_x
_atom_site_fract_y
_atom_site_fract_z
Eu1 Eu 0.175885(13) -0.96683(2) -0.074068(18)
C1 C 0.1263(3) -0.6283(6) -0.0805(4)
C2 C 0.0439(3) -0.5668(5) -0.1107(4)
C3 C -0.0242(3) -0.6491(6) -0.1366(4)
H1 H -0.0194 -0.7420 -0.1358
C4 C -0.0987(3) -0.5889(7) -0.1635(4)
H2 H -0.1440 -0.6435 -0.1798
C5 C -0.0443(3) -0.3790(6) -0.1421(5)
H3 H -0.0511 -0.2865 -0.1440
C6 C 0.0332(3) -0.4296(6) -0.1129(4)
H4 H 0.0774 -0.3722 -0.0950
C7 C 0.0152(3) -1.0119(5) -0.2987(4)
C8 C 0.2416(3) -1.2450(5) 0.0545(4)
O1 O 0.1709(3) -0.8805(4) 0.1011(3)
O2 O 0.1303(3) -0.7477(4) -0.1055(4)
O3 O 0.2424(2) -0.8739(4) -0.1954(3)
O4 O 0.1860(2) -0.5533(5) -0.0331(3)
O5 O 0.0906(2) -1.0056(4) -0.2708(3)
O6 O -0.0368(2) -1.0178(4) -0.3944(3)
O7 O 0.1972(2) -1.1501(3) 0.0601(3)
O8 O 0.2741(2) -1.3311(4) 0.1269(3)
N1 N -0.1094(3) -0.4563(5) -0.1676(4)
Eu1E Eu 0.324115(13) -0.53317(2) 0.074068(18)
Eu1B Eu -0.175885(13) -0.96683(2) -0.425932(18)
Eu1E_2 Eu 0.324115(13) -1.53317(2) 0.074068(18)
C1E C 0.3737(3) -0.8717(6) 0.0805(4)
C2E C 0.4561(3) -0.9332(5) 0.1107(4)
C3E C 0.5242(3) -0.8509(6) 0.1366(4)
H1E H 0.5194 -0.7580 0.1358
C4E C 0.5987(3) -0.9111(7) 0.1635(4)
H2E H 0.6440 -0.8565 0.1798
C5E C 0.5443(3) -1.1210(6) 0.1421(5)
H3E H 0.5511 -1.2135 0.1440
C6E C 0.4668(3) -1.0704(6) 0.1129(4)
H4E H 0.4226 -1.1278 0.0950
C7B C -0.0152(3) -1.0119(5) -0.2013(4)
C8E C 0.2584(3) -1.2550(5) -0.0545(4)
O1E O 0.3291(3) -0.6195(4) -0.1011(3)
O2E O 0.3697(3) -0.7523(4) 0.1055(4)
O3E O 0.2576(2) -0.6261(4) 0.1954(3)
O4E O 0.3140(2) -0.9467(5) 0.0331(3)
O5B O -0.0906(2) -1.0056(4) -0.2292(3)
O5E O 0.4094(2) -0.4944(4) 0.2708(3)
O6B O 0.0368(2) -1.0178(4) -0.1056(3)
O6G O 0.4632(2) -0.4822(4) 0.1056(3)
O7E O 0.3028(2) -1.3499(3) -0.0601(3)
O7E_2 O 0.3028(2) -0.3499(3) -0.0601(3)
O8E O 0.2259(2) -1.1689(4) -0.1269(3)
O8_2 O 0.2741(2) -0.3311(4) 0.1269(3)
N1E N 0.6094(3) -1.0437(5) 0.1676(4)
loop_
_geom_bond_atom_site_label_1
_geom_bond_atom_site_label_2
_geom_bond_site_symmetry_1
_geom_bond_site_symmetry_2
Eu1 O1 1_555 1_555
C1 C2 1_555 1_555
C2 C3 1_555 1_555
C3 H1 1_555 1_555
C4 C3 1_555 1_555
H2 C4 1_555 1_555
C5 H3 1_555 1_555
C6 C2 1_555 1_555
H4 C6 1_555 1_555
C7 O5 1_555 1_555
C8 O7 1_555 1_555
O2 Eu1 1_555 1_555
O3 Eu1 1_555 1_555
O4 C1 1_555 1_555
O5 Eu1 1_555 1_555
O6 C7 1_555 1_555
O7 Eu1 1_555 1_555
O8 C8 1_555 1_555
N1 C4 1_555 1_555
Eu1E O4 1_555 1_555
Eu1B O6 1_555 1_555
Eu1E_2 O8 1_555 1_555
C1E C2E 1_555 1_555
C2E C3E 1_555 1_555
C3E H1E 1_555 1_555
C4E C3E 1_555 1_555
H2E C4E 1_555 1_555
C5E H3E 1_555 1_555
C6E C2E 1_555 1_555
H4E C6E 1_555 1_555
C7B C7 1_555 1_555
C8E C8 1_555 1_555
O1E Eu1E 1_555 1_555
O2E Eu1E 1_555 1_555
O3E Eu1E 1_555 1_555
O4E Eu1 1_555 1_555
O5B Eu1B 1_555 1_555
O5E Eu1E 1_555 1_555
O6B Eu1 1_555 1_555
O6G Eu1E 1_555 1_555
O7E Eu1E_2 1_555 1_555
O7E_2 Eu1E 1_555 1_555
O8E Eu1 1_555 1_555
O8_2 Eu1E 1_555 1_555
N1E C4E 1_555 1_555
C1 O2 1_555 1_555
C5 C6 1_555 1_555
C5 N1 1_555 1_555
C1E O2E 1_555 1_555
C1E O4E 1_555 1_555
C5E C6E 1_555 1_555
C5E N1E 1_555 1_555
C7B O5B 1_555 1_555
C7B O6B 1_555 1_555
C8E O7E 1_555 1_555
C8E O8E 1_555 1_555

#END
