
#######################################################################
#
#                 Cambridge Crystallographic Data Centre
#                                CCDC 
#
#######################################################################
#
# If this CIF has been generated from an entry in the Cambridge 
# Structural Database, then it will include bibliographic, chemical, 
# crystal, experimental, refinement or atomic coordinate data resulting 
# from the CCDC's data processing and validation procedures.
#
#######################################################################

data_NIMVUC
_symmetry_cell_setting           monoclinic
_symmetry_space_group_name_H-M   'C 2/c'
_symmetry_Int_Tables_number      15
_space_group_name_Hall           '-C 2yn'
loop_
_symmetry_equiv_pos_site_id
_symmetry_equiv_pos_as_xyz
1 x,y,z
2 -x,y,1/2-z
3 1/2+x,1/2+y,z
4 1/2-x,1/2+y,1/2-z
5 -x,-y,-z
6 x,-y,1/2+z
7 1/2-x,1/2-y,-z
8 1/2+x,1/2-y,1/2+z
_cell_length_a                   15.1219(8)
_cell_length_b                   9.4338(5)
_cell_length_c                   9.0516(5)
_cell_angle_alpha                90
_cell_angle_beta                 113.6880(10)
_cell_angle_gamma                90
_cell_volume                     1182.48
loop_
_atom_site_label
_atom_site_type_symbol
_atom_site_fract_x
_atom_site_fract_y
_atom_site_fract_z
Cd1 Cd 0.5000 0.38181(2) 0.7500
F1 F 0.10625(15) 0.4206(3) -0.1880(2)
O1 O 0.37659(12) 0.3579(2) 0.4966(2)
O2 O 0.41856(12) 0.4354(2) 0.3012(2)
N1 N 0.10014(14) 0.2636(2) 0.1672(2)
C1 C 0.35974(17) 0.3893(2) 0.3531(3)
C2 C 0.25720(17) 0.3633(2) 0.2302(3)
C3 C 0.2292(2) 0.4104(3) 0.0731(3)
H1 H 0.2714 0.4598 0.0403
C4 C 0.1362(2) 0.3808(3) -0.0321(3)
C5 C 0.07332(19) 0.3091(3) 0.0156(3)
H2 H 0.0107 0.2918 -0.0590
C6 C 0.19101(17) 0.2907(3) 0.2709(3)
H3 H 0.2106 0.2586 0.3765
F1A F 0.89375(15) 0.4206(3) 1.6880(2)
O1A O 0.62341(12) 0.3579(2) 1.0034(2)
O2A O 0.58144(12) 0.4354(2) 1.1988(2)
N1A N 0.89986(14) 0.2636(2) 1.3328(2)
C1A C 0.64026(17) 0.3893(2) 1.1469(3)
C2A C 0.74280(17) 0.3633(2) 1.2698(3)
C3A C 0.7708(2) 0.4104(3) 1.4269(3)
H1A H 0.7286 0.4598 1.4597
C4A C 0.8638(2) 0.3808(3) 1.5321(3)
C5A C 0.92668(19) 0.3091(3) 1.4844(3)
H2A H 0.9893 0.2918 1.5590
C6A C 0.80899(17) 0.2907(3) 1.2291(3)
H3A H 0.7894 0.2586 1.1235
Cd1D Cd 0.5000 0.61819(2) 0.2500
Cd1D_2 Cd 0.5000 0.61819(2) 1.2500
Cd1F Cd 0.0000 0.11819(2) 0.2500
Cd1F_2 Cd 1.0000 0.11819(2) 1.2500
O2D O 0.58144(12) 0.5646(2) 0.6988(2)
O2E O 0.41856(12) 0.5646(2) 0.8012(2)
N1F N 0.39986(14) 0.2364(2) 0.8328(2)
N1G N 0.60014(14) 0.2364(2) 0.6672(2)
loop_
_geom_bond_atom_site_label_1
_geom_bond_atom_site_label_2
_geom_bond_site_symmetry_1
_geom_bond_site_symmetry_2
Cd1 O1 1_555 1_555
F1 C4 1_555 1_555
O1 C1 1_555 1_555
O2 C1 1_555 1_555
N1 C5 1_555 1_555
C1 C2 1_555 1_555
C2 C3 1_555 1_555
C3 H1 1_555 1_555
C4 C3 1_555 1_555
C5 C4 1_555 1_555
H2 C5 1_555 1_555
C6 N1 1_555 1_555
H3 C6 1_555 1_555
F1A C4A 1_555 1_555
O1A Cd1 1_555 1_555
O2A C1A 1_555 1_555
N1A C5A 1_555 1_555
C1A O1A 1_555 1_555
C2A C1A 1_555 1_555
C3A C2A 1_555 1_555
H1A C3A 1_555 1_555
C4A C3A 1_555 1_555
C5A C4A 1_555 1_555
H2A C5A 1_555 1_555
C6A N1A 1_555 1_555
H3A C6A 1_555 1_555
Cd1D O2 1_555 1_555
Cd1D_2 O2A 1_555 1_555
Cd1F N1 1_555 1_555
Cd1F_2 N1A 1_555 1_555
O2D Cd1 1_555 1_555
O2E Cd1 1_555 1_555
N1F Cd1 1_555 1_555
N1G Cd1 1_555 1_555
C2 C6 1_555 1_555
C2A C6A 1_555 1_555

#END
