
#######################################################################
#
#                 Cambridge Crystallographic Data Centre
#                                CCDC 
#
#######################################################################
#
# If this CIF has been generated from an entry in the Cambridge 
# Structural Database, then it will include bibliographic, chemical, 
# crystal, experimental, refinement or atomic coordinate data resulting 
# from the CCDC's data processing and validation procedures.
#
#######################################################################

data_NIMVUB
_symmetry_cell_setting           orthorhombic
_symmetry_space_group_name_H-M   'P b c n'
_symmetry_Int_Tables_number      60
_space_group_name_Hall           '-P 2n 2ab'
loop_
_symmetry_equiv_pos_site_id
_symmetry_equiv_pos_as_xyz
1 x,y,z
2 1/2-x,1/2-y,1/2+z
3 -x,y,1/2-z
4 1/2+x,1/2-y,-z
5 -x,-y,-z
6 1/2+x,1/2+y,1/2-z
7 x,-y,1/2+z
8 1/2-x,1/2+y,z
_cell_length_a                   7.4556(19)
_cell_length_b                   19.274(5)
_cell_length_c                   12.401(3)
_cell_angle_alpha                90
_cell_angle_beta                 90
_cell_angle_gamma                90
_cell_volume                     1782.01
loop_
_atom_site_label
_atom_site_type_symbol
_atom_site_fract_x
_atom_site_fract_y
_atom_site_fract_z
Tb1 Tb 0.23938(2) 0.266183(11) 0.958629(16)
C1 C 0.2338(6) 0.4090(3) 0.9606(4)
C2 C 0.2369(6) 0.4875(3) 0.9603(4)
C3 C 0.1931(9) 0.5244(3) 0.8670(5)
H1 H 0.1610 0.5011 0.8042
C4 C 0.1986(8) 0.5962(3) 0.8697(5)
H2 H 0.1666 0.6204 0.8078
C5 C 0.2870(8) 0.5966(3) 1.0467(5)
H3 H 0.3181 0.6211 1.1086
C6 C 0.2836(8) 0.5249(3) 1.0516(5)
H4 H 0.3124 0.5020 1.1153
C7 C 0.0866(5) 0.24998(18) 0.7170(3)
O1 O 0.1957(6) 0.37827(19) 0.8748(3)
O2 O 0.2702(5) 0.3783(3) 1.0468(3)
O3 O 0.2308(4) 0.24578(19) 0.7658(3)
O4 O 0.0647(4) 0.25385(16) 0.6147(2)
O5 O 0.5306(4) 0.25622(16) 0.9133(3)
N1 N 0.2475(5) 0.6327(3) 0.9572(3)
Tb1G Tb 0.26062(2) -0.233817(11) 0.958629(16)
Tb1A Tb 0.26062(2) 0.233817(11) 0.458629(16)
Tb1B Tb -0.23938(2) 0.266183(11) 0.541371(16)
Tb1C Tb 0.73938(2) 0.233817(11) 1.041371(16)
Tb1G_2 Tb 0.26062(2) 0.766183(11) 0.958629(16)
Tb1C_2 Tb -0.26062(2) 0.233817(11) 1.041371(16)
C1G C 0.2662(6) -0.0910(3) 0.9606(4)
C2G C 0.2631(6) -0.0125(3) 0.9603(4)
C3G C 0.3069(9) 0.0244(3) 0.8670(5)
H1G H 0.3390 0.0011 0.8042
C4G C 0.3014(8) 0.0962(3) 0.8697(5)
H2G H 0.3334 0.1204 0.8078
C5G C 0.2130(8) 0.0966(3) 1.0467(5)
H3G H 0.1819 0.1211 1.1086
C6G C 0.2164(8) 0.0249(3) 1.0516(5)
H4G H 0.1876 0.0020 1.1153
C7B C -0.0866(5) 0.24998(18) 0.7830(3)
O1G O 0.3043(6) -0.12173(19) 0.8748(3)
O2G O 0.2298(5) -0.1217(3) 1.0468(3)
O3B O -0.2308(4) 0.24578(19) 0.7342(3)
O3G O 0.2692(4) -0.25422(19) 0.7658(3)
O4B O -0.0647(4) 0.25385(16) 0.8853(2)
O4A O 0.4353(4) 0.24615(16) 1.1147(2)
O4E O 0.5647(4) -0.24615(16) 0.8853(2)
O4F O 0.0647(4) -0.25385(16) 1.1147(2)
O5C O 0.0306(4) 0.24378(16) 1.0867(3)
O5G O -0.0306(4) -0.24378(16) 0.9133(3)
O5D O 0.4694(4) -0.25622(16) 1.0867(3)
N1G N 0.2525(5) 0.1327(3) 0.9572(3)
N1_2 N 0.2475(5) -0.3673(3) 0.9572(3)
loop_
_geom_bond_atom_site_label_1
_geom_bond_atom_site_label_2
_geom_bond_site_symmetry_1
_geom_bond_site_symmetry_2
Tb1 O1 1_555 1_555
C1 C2 1_555 1_555
C2 C3 1_555 1_555
C3 H1 1_555 1_555
C4 C3 1_555 1_555
H2 C4 1_555 1_555
C5 H3 1_555 1_555
C6 C2 1_555 1_555
H4 C6 1_555 1_555
C7 O3 1_555 1_555
O1 C1 1_555 1_555
O2 Tb1 1_555 1_555
O3 Tb1 1_555 1_555
O4 C7 1_555 1_555
O5 Tb1 1_555 1_555
N1 C4 1_555 1_555
Tb1G O1G 1_555 1_555
Tb1A O4 1_555 1_555
Tb1B O4 1_555 1_555
Tb1C O5 1_555 1_555
Tb1G_2 N1 1_555 1_555
Tb1C_2 O4B 1_555 1_555
C1G C2G 1_555 1_555
C2G C3G 1_555 1_555
C3G H1G 1_555 1_555
C4G C3G 1_555 1_555
H2G C4G 1_555 1_555
C5G H3G 1_555 1_555
C6G C2G 1_555 1_555
H4G C6G 1_555 1_555
C7B C7 1_555 1_555
O1G C1G 1_555 1_555
O2G Tb1G 1_555 1_555
O3B Tb1B 1_555 1_555
O3G Tb1G 1_555 1_555
O4B Tb1 1_555 1_555
O4A Tb1 1_555 1_555
O4E Tb1G 1_555 1_555
O4F Tb1G 1_555 1_555
O5C Tb1 1_555 1_555
O5G Tb1G 1_555 1_555
O5D Tb1G 1_555 1_555
N1G Tb1 1_555 1_555
N1_2 Tb1G 1_555 1_555
C1 O2 1_555 1_555
C5 C6 1_555 1_555
C5 N1 1_555 1_555
Tb1C O4A 1_555 1_555
Tb1C_2 O5C 1_555 1_555
C1G O2G 1_555 1_555
C4G N1G 1_555 1_555
C5G C6G 1_555 1_555
C5G N1G 1_555 1_555
C7B O3B 1_555 1_555
C7B O4B 1_555 1_555

#END
