
#######################################################################
#
#                 Cambridge Crystallographic Data Centre
#                                CCDC 
#
#######################################################################
#
# If this CIF has been generated from an entry in the Cambridge 
# Structural Database, then it will include bibliographic, chemical, 
# crystal, experimental, refinement or atomic coordinate data resulting 
# from the CCDC's data processing and validation procedures.
#
#######################################################################

data_NIMVOV
_symmetry_cell_setting           monoclinic
_symmetry_space_group_name_H-M   'C 2/c'
_symmetry_Int_Tables_number      15
_space_group_name_Hall           '-C 2yn'
loop_
_symmetry_equiv_pos_site_id
_symmetry_equiv_pos_as_xyz
1 x,y,z
2 1/2+x,1/2+y,z
3 -x,y,1/2-z
4 1/2-x,1/2+y,1/2-z
5 -x,-y,-z
6 1/2-x,1/2-y,-z
7 x,-y,1/2+z
8 1/2+x,1/2-y,1/2+z
_cell_length_a                   17.856(6)
_cell_length_b                   10.009(3)
_cell_length_c                   13.003(5)
_cell_angle_alpha                90
_cell_angle_beta                 111.870(5)
_cell_angle_gamma                90
_cell_volume                     2156.66
loop_
_atom_site_label
_atom_site_type_symbol
_atom_site_fract_x
_atom_site_fract_y
_atom_site_fract_z
Sm1 Sm 0.175913(9) -0.966397(16) -0.073596(12)
C1 C 0.1266(2) -0.6271(4) -0.0797(2)
C2 C 0.04390(19) -0.5670(4) -0.1102(3)
C3 C -0.0236(2) -0.6477(4) -0.1364(3)
H1 H -0.0188 -0.7402 -0.1360
C4 C -0.0985(2) -0.5881(4) -0.1631(3)
H2 H -0.1435 -0.6428 -0.1794
C5 C -0.0440(2) -0.3790(4) -0.1413(3)
H3 H -0.0506 -0.2868 -0.1429
C6 C 0.0328(2) -0.4295(4) -0.1130(3)
H4 H 0.0767 -0.3722 -0.0959
C7 C 0.0151(2) -1.0111(3) -0.2983(3)
C8 C 0.24193(19) -1.2452(3) 0.0541(2)
O1 O 0.17114(16) -0.8803(3) 0.10198(19)
O2 O 0.13075(17) -0.7465(3) -0.1043(2)
O3 O 0.24253(13) -0.8732(2) -0.19575(18)
O4 O 0.18557(15) -0.5535(3) -0.0330(2)
O5 O 0.09039(14) -1.0051(3) -0.2708(2)
O6 O -0.03630(15) -1.0179(3) -0.3941(2)
O7 O 0.19762(14) -1.1501(2) 0.06033(19)
O8 O 0.27424(14) -1.3312(2) 0.12666(17)
N1 N -0.10918(18) -0.4558(4) -0.1666(3)
Sm1E Sm 0.324087(9) -0.533603(16) 0.073596(12)
Sm1B Sm -0.175913(9) -0.966397(16) -0.426404(12)
Sm1E_2 Sm 0.324087(9) -1.533603(16) 0.073596(12)
C1E C 0.3734(2) -0.8729(4) 0.0797(2)
C2E C 0.45610(19) -0.9330(4) 0.1102(3)
C3E C 0.5236(2) -0.8523(4) 0.1364(3)
H1E H 0.5188 -0.7598 0.1360
C4E C 0.5985(2) -0.9119(4) 0.1631(3)
H2E H 0.6435 -0.8572 0.1794
C5E C 0.5440(2) -1.1210(4) 0.1413(3)
H3E H 0.5506 -1.2132 0.1429
C6E C 0.4672(2) -1.0705(4) 0.1130(3)
H4E H 0.4233 -1.1278 0.0959
C7B C -0.0151(2) -1.0111(3) -0.2017(3)
C8E C 0.25807(19) -1.2548(3) -0.0541(2)
O1E O 0.32886(16) -0.6197(3) -0.10198(19)
O2E O 0.36925(17) -0.7535(3) 0.1043(2)
O3E O 0.25747(13) -0.6268(2) 0.19575(18)
O4E O 0.31443(15) -0.9465(3) 0.0330(2)
O5B O -0.09039(14) -1.0051(3) -0.2292(2)
O5E O 0.40961(14) -0.4949(3) 0.2708(2)
O6B O 0.03630(15) -1.0179(3) -0.1059(2)
O6G O 0.46370(15) -0.4821(3) 0.1059(2)
O7E O 0.30238(14) -1.3499(2) -0.06033(19)
O7E_2 O 0.30238(14) -0.3499(2) -0.06033(19)
O8E O 0.22576(14) -1.1688(2) -0.12666(17)
O8_2 O 0.27424(14) -0.3312(2) 0.12666(17)
N1E N 0.60918(18) -1.0442(4) 0.1666(3)
loop_
_geom_bond_atom_site_label_1
_geom_bond_atom_site_label_2
_geom_bond_site_symmetry_1
_geom_bond_site_symmetry_2
Sm1 O1 1_555 1_555
C1 C2 1_555 1_555
C2 C3 1_555 1_555
C3 H1 1_555 1_555
C4 C3 1_555 1_555
H2 C4 1_555 1_555
C5 H3 1_555 1_555
C6 C2 1_555 1_555
H4 C6 1_555 1_555
C7 O5 1_555 1_555
C8 O7 1_555 1_555
O2 Sm1 1_555 1_555
O3 Sm1 1_555 1_555
O4 C1 1_555 1_555
O5 Sm1 1_555 1_555
O6 C7 1_555 1_555
O7 Sm1 1_555 1_555
O8 C8 1_555 1_555
N1 C4 1_555 1_555
Sm1E O4 1_555 1_555
Sm1B O6 1_555 1_555
Sm1E_2 O8 1_555 1_555
C1E C2E 1_555 1_555
C2E C3E 1_555 1_555
C3E H1E 1_555 1_555
C4E C3E 1_555 1_555
H2E C4E 1_555 1_555
C5E H3E 1_555 1_555
C6E C2E 1_555 1_555
H4E C6E 1_555 1_555
C7B C7 1_555 1_555
C8E C8 1_555 1_555
O1E Sm1E 1_555 1_555
O2E Sm1E 1_555 1_555
O3E Sm1E 1_555 1_555
O4E Sm1 1_555 1_555
O5B Sm1B 1_555 1_555
O5E Sm1E 1_555 1_555
O6B Sm1 1_555 1_555
O6G Sm1E 1_555 1_555
O7E Sm1E_2 1_555 1_555
O7E_2 Sm1E 1_555 1_555
O8E Sm1 1_555 1_555
O8_2 Sm1E 1_555 1_555
N1E C4E 1_555 1_555
C1 O2 1_555 1_555
C5 C6 1_555 1_555
C5 N1 1_555 1_555
C1E O2E 1_555 1_555
C1E O4E 1_555 1_555
C5E C6E 1_555 1_555
C5E N1E 1_555 1_555
C7B O5B 1_555 1_555
C7B O6B 1_555 1_555
C8E O7E 1_555 1_555
C8E O8E 1_555 1_555

#END
