
#######################################################################
#
#                 Cambridge Crystallographic Data Centre
#                                CCDC 
#
#######################################################################
#
# If this CIF has been generated from an entry in the Cambridge 
# Structural Database, then it will include bibliographic, chemical, 
# crystal, experimental, refinement or atomic coordinate data resulting 
# from the CCDC's data processing and validation procedures.
#
#######################################################################

data_NIMVAH
_symmetry_cell_setting           monoclinic
_symmetry_space_group_name_H-M   'C 2/c'
_symmetry_Int_Tables_number      15
_space_group_name_Hall           '-C 2yn'
loop_
_symmetry_equiv_pos_site_id
_symmetry_equiv_pos_as_xyz
1 x,y,z
2 1/2+x,1/2+y,z
3 -x,y,1/2-z
4 1/2-x,1/2+y,1/2-z
5 -x,-y,-z
6 1/2-x,1/2-y,-z
7 x,-y,1/2+z
8 1/2+x,1/2-y,1/2+z
_cell_length_a                   17.811(2)
_cell_length_b                   9.9576(12)
_cell_length_c                   12.9733(16)
_cell_angle_alpha                90
_cell_angle_beta                 112.198(2)
_cell_angle_gamma                90
_cell_volume                     2130.34
loop_
_atom_site_label
_atom_site_type_symbol
_atom_site_fract_x
_atom_site_fract_y
_atom_site_fract_z
Gd1 Gd 0.17595(3) -0.96720(4) -0.07449(4)
C1 C 0.1266(6) -0.6272(11) -0.0806(7)
C2 C 0.0443(6) -0.5688(11) -0.1113(8)
C3 C -0.0235(6) -0.6507(11) -0.1364(8)
H1 H -0.0186 -0.7437 -0.1350
C4 C -0.0984(7) -0.5902(12) -0.1633(9)
H2 H -0.1438 -0.6450 -0.1803
C5 C -0.0440(6) -0.3804(11) -0.1415(9)
H3 H -0.0512 -0.2878 -0.1430
C6 C 0.0333(6) -0.4283(11) -0.1139(9)
H4 H 0.0771 -0.3700 -0.0975
C7 C 0.0143(6) -1.0140(10) -0.2991(8)
C8 C 0.2409(6) -1.2451(10) 0.0555(7)
O1 O 0.1703(5) -0.8801(8) 0.0996(6)
O2 O 0.1301(5) -0.7486(8) -0.1065(7)
O3 O 0.2417(4) -0.8757(7) -0.1952(6)
O4 O 0.1865(4) -0.5551(9) -0.0333(6)
O5 O 0.0898(4) -1.0052(8) -0.2715(6)
O6 O -0.0377(4) -1.0182(8) -0.3951(6)
O7 O 0.1972(4) -1.1500(7) 0.0598(6)
O8 O 0.2739(4) -1.3312(7) 0.1270(6)
N1 N -0.1091(5) -0.4571(10) -0.1663(7)
Gd1E Gd 0.32405(3) -0.53280(4) 0.07449(4)
Gd1B Gd -0.17595(3) -0.96720(4) -0.42551(4)
Gd1E_2 Gd 0.32405(3) -1.53280(4) 0.07449(4)
C1E C 0.3734(6) -0.8728(11) 0.0806(7)
C2E C 0.4557(6) -0.9312(11) 0.1113(8)
C3E C 0.5235(6) -0.8493(11) 0.1364(8)
H1E H 0.5186 -0.7563 0.1350
C4E C 0.5984(7) -0.9098(12) 0.1633(9)
H2E H 0.6438 -0.8550 0.1803
C5E C 0.5440(6) -1.1196(11) 0.1415(9)
H3E H 0.5512 -1.2122 0.1430
C6E C 0.4667(6) -1.0717(11) 0.1139(9)
H4E H 0.4229 -1.1300 0.0975
C7B C -0.0143(6) -1.0140(10) -0.2009(8)
C8E C 0.2591(6) -1.2549(10) -0.0555(7)
O1E O 0.3297(5) -0.6199(8) -0.0996(6)
O2E O 0.3699(5) -0.7514(8) 0.1065(7)
O3E O 0.2583(4) -0.6243(7) 0.1952(6)
O4E O 0.3135(4) -0.9449(9) 0.0333(6)
O5B O -0.0898(4) -1.0052(8) -0.2285(6)
O5E O 0.4102(4) -0.4948(8) 0.2715(6)
O6B O 0.0377(4) -1.0182(8) -0.1049(6)
O6G O 0.4623(4) -0.4818(8) 0.1049(6)
O7E O 0.3028(4) -1.3500(7) -0.0598(6)
O7E_2 O 0.3028(4) -0.3500(7) -0.0598(6)
O8E O 0.2261(4) -1.1688(7) -0.1270(6)
O8_2 O 0.2739(4) -0.3312(7) 0.1270(6)
N1E N 0.6091(5) -1.0429(10) 0.1663(7)
loop_
_geom_bond_atom_site_label_1
_geom_bond_atom_site_label_2
_geom_bond_site_symmetry_1
_geom_bond_site_symmetry_2
Gd1 O1 1_555 1_555
C1 C2 1_555 1_555
C2 C3 1_555 1_555
C3 H1 1_555 1_555
C4 C3 1_555 1_555
H2 C4 1_555 1_555
C5 H3 1_555 1_555
C6 C2 1_555 1_555
H4 C6 1_555 1_555
C7 O5 1_555 1_555
C8 O7 1_555 1_555
O2 Gd1 1_555 1_555
O3 Gd1 1_555 1_555
O4 C1 1_555 1_555
O5 Gd1 1_555 1_555
O6 C7 1_555 1_555
O7 Gd1 1_555 1_555
O8 C8 1_555 1_555
N1 C4 1_555 1_555
Gd1E O4 1_555 1_555
Gd1B O6 1_555 1_555
Gd1E_2 O8 1_555 1_555
C1E C2E 1_555 1_555
C2E C3E 1_555 1_555
C3E H1E 1_555 1_555
C4E C3E 1_555 1_555
H2E C4E 1_555 1_555
C5E H3E 1_555 1_555
C6E C2E 1_555 1_555
H4E C6E 1_555 1_555
C7B C7 1_555 1_555
C8E C8 1_555 1_555
O1E Gd1E 1_555 1_555
O2E Gd1E 1_555 1_555
O3E Gd1E 1_555 1_555
O4E Gd1 1_555 1_555
O5B Gd1B 1_555 1_555
O5E Gd1E 1_555 1_555
O6B Gd1 1_555 1_555
O6G Gd1E 1_555 1_555
O7E Gd1E_2 1_555 1_555
O7E_2 Gd1E 1_555 1_555
O8E Gd1 1_555 1_555
O8_2 Gd1E 1_555 1_555
N1E C4E 1_555 1_555
C1 O2 1_555 1_555
C5 C6 1_555 1_555
C5 N1 1_555 1_555
C1E O2E 1_555 1_555
C1E O4E 1_555 1_555
C5E C6E 1_555 1_555
C5E N1E 1_555 1_555
C7B O5B 1_555 1_555
C7B O6B 1_555 1_555
C8E O7E 1_555 1_555
C8E O8E 1_555 1_555

#END
