
#######################################################################
#
#                 Cambridge Crystallographic Data Centre
#                                CCDC 
#
#######################################################################
#
# If this CIF has been generated from an entry in the Cambridge 
# Structural Database, then it will include bibliographic, chemical, 
# crystal, experimental, refinement or atomic coordinate data resulting 
# from the CCDC's data processing and validation procedures.
#
#######################################################################

data_NIMWEN
_symmetry_cell_setting           monoclinic
_symmetry_space_group_name_H-M   'P 21/c'
_symmetry_Int_Tables_number      14
_space_group_name_Hall           '-P 2ybc'
loop_
_symmetry_equiv_pos_site_id
_symmetry_equiv_pos_as_xyz
1 x,y,z
2 -x,1/2+y,1/2-z
3 -x,-y,-z
4 x,1/2-y,1/2+z
_cell_length_a                   11.1319(6)
_cell_length_b                   9.9512(5)
_cell_length_c                   14.2568(6)
_cell_angle_alpha                90
_cell_angle_beta                 120.015(3)
_cell_angle_gamma                90
_cell_volume                     1367.51
loop_
_atom_site_label
_atom_site_type_symbol
_atom_site_fract_x
_atom_site_fract_y
_atom_site_fract_z
Cd1 Cd 0.816144(17) 0.879708(18) 0.403038(13)
Cl1 Cl 0.33476(8) 0.65468(9) -0.19566(6)
Cl2 Cl 1.27846(8) 0.49494(8) 0.55294(5)
O1 O 0.6278(2) 0.74164(19) 0.30999(15)
O2 O 0.6606(2) 0.87362(19) 0.20150(16)
O3 O 0.90441(18) 0.6953(2) 0.07347(13)
O4 O 1.0858(2) 0.5641(2) 0.12618(16)
N1 N 0.3120(2) 0.5346(2) 0.05803(16)
N2 N 0.9691(2) 0.7430(2) 0.37935(16)
C1 C 0.5997(3) 0.7790(3) 0.2175(2)
C2 C 0.4894(2) 0.7022(2) 0.1222(2)
C3 C 0.4682(3) 0.7203(3) 0.0189(2)
H1 H 0.5196 0.7829 0.0053
C4 C 0.3687(3) 0.6428(3) -0.0634(2)
C5 C 0.2936(3) 0.5509(3) -0.0411(2)
H2 H 0.2277 0.4985 -0.0973
C6 C 0.4098(3) 0.6087(2) 0.1383(2)
H3 H 0.4247 0.5967 0.2081
C7 C 1.0093(3) 0.6335(2) 0.1443(2)
C8 C 1.0377(2) 0.6480(2) 0.25909(19)
C9 C 0.9539(3) 0.7300(2) 0.28053(19)
H4 H 0.8839 0.7784 0.2237
C10 C 1.0687(3) 0.6711(3) 0.4602(2)
H5 H 1.0794 0.6775 0.5291
C11 C 1.1556(3) 0.5879(3) 0.44446(19)
C12 C 1.1422(3) 0.5764(3) 0.34361(19)
H6 H 1.2019 0.5219 0.3325
Cd1A Cd 0.183856(17) 0.379708(18) 0.096962(13)
Cd1A_2 Cd 1.183856(17) 0.379708(18) 0.096962(13)
Cd1C Cd 0.816144(17) 0.620292(18) -0.096962(13)
O3C O 0.90441(18) 0.8047(2) 0.57347(13)
O4A O 0.9142(2) 1.0641(2) 0.37382(16)
N1A N 0.6880(2) 1.0346(2) 0.44197(16)
loop_
_geom_bond_atom_site_label_1
_geom_bond_atom_site_label_2
_geom_bond_site_symmetry_1
_geom_bond_site_symmetry_2
Cd1 O1 1_555 1_555
Cl1 C4 1_555 1_555
Cl2 C11 1_555 1_555
O1 C1 1_555 1_555
O2 Cd1 1_555 1_555
O3 C7 1_555 1_555
O4 C7 1_555 1_555
N1 C5 1_555 1_555
N2 Cd1 1_555 1_555
C1 O2 1_555 1_555
C2 C1 1_555 1_555
C3 C2 1_555 1_555
H1 C3 1_555 1_555
C4 C3 1_555 1_555
C5 C4 1_555 1_555
H2 C5 1_555 1_555
C6 N1 1_555 1_555
H3 C6 1_555 1_555
C7 C8 1_555 1_555
C8 C9 1_555 1_555
C9 N2 1_555 1_555
H4 C9 1_555 1_555
C10 N2 1_555 1_555
H5 C10 1_555 1_555
C11 C10 1_555 1_555
C12 C8 1_555 1_555
H6 C12 1_555 1_555
Cd1A N1 1_555 1_555
Cd1A_2 O4 1_555 1_555
Cd1C O3 1_555 1_555
O3C Cd1 1_555 1_555
O4A Cd1 1_555 1_555
N1A Cd1 1_555 1_555
C2 C6 1_555 1_555
C11 C12 1_555 1_555

#END
