
#######################################################################
#
#                 Cambridge Crystallographic Data Centre
#                                CCDC 
#
#######################################################################
#
# If this CIF has been generated from an entry in the Cambridge 
# Structural Database, then it will include bibliographic, chemical, 
# crystal, experimental, refinement or atomic coordinate data resulting 
# from the CCDC's data processing and validation procedures.
#
#######################################################################

data_NIMWIR
_symmetry_cell_setting           monoclinic
_symmetry_space_group_name_H-M   'P 21/c'
_symmetry_Int_Tables_number      14
_space_group_name_Hall           '-P 2ybc'
loop_
_symmetry_equiv_pos_site_id
_symmetry_equiv_pos_as_xyz
1 x,y,z
2 -x,1/2+y,1/2-z
3 -x,-y,-z
4 x,1/2-y,1/2+z
_cell_length_a                   5.6741(14)
_cell_length_b                   9.260(2)
_cell_length_c                   15.044(4)
_cell_angle_alpha                90
_cell_angle_beta                 104.330(8)
_cell_angle_gamma                90
_cell_volume                     765.851
loop_
_atom_site_label
_atom_site_type_symbol
_atom_site_fract_x
_atom_site_fract_y
_atom_site_fract_z
Cd1 Cd 1.0000 0.5000 1.0000
Cl1 Cl 0.35853(12) 1.00772(6) 0.87545(4)
O1 O 0.8322(2) 0.91115(15) 0.61329(9)
O2 O 1.1280(3) 0.75798(19) 0.67811(11)
O3 O 1.3386(3) 0.64093(16) 1.05062(10)
H1 H 1.4816 0.6079 1.0711
H2 H 1.2854 0.6901 1.0893
N1 N 0.8365(3) 0.69152(18) 0.89924(10)
C1 C 0.9434(4) 0.8293(2) 0.67755(13)
C2 C 0.8398(3) 0.8193(2) 0.76076(12)
C3 C 0.9222(4) 0.7111(2) 0.82467(13)
H3 H 1.0429 0.6492 0.8153
C4 C 0.6667(4) 0.7828(2) 0.91294(13)
H4 H 0.6052 0.7706 0.9643
C5 C 0.5801(4) 0.8944(2) 0.85323(13)
C6 C 0.6653(4) 0.9140(2) 0.77561(13)
H5 H 0.6069 0.9886 0.7347
Cl1B Cl 1.64147(12) -0.00772(6) 1.12455(4)
O1B O 1.1678(2) 0.08885(15) 1.38671(9)
O2B O 0.8720(3) 0.24202(19) 1.32189(11)
O3B O 0.6614(3) 0.35907(16) 0.94938(10)
H1B H 0.5184 0.3921 0.9289
H2B H 0.7146 0.3099 0.9107
N1B N 1.1635(3) 0.30848(18) 1.10076(10)
C1B C 1.0566(4) 0.1707(2) 1.32245(13)
C2B C 1.1602(3) 0.1807(2) 1.23924(12)
C3B C 1.0778(4) 0.2889(2) 1.17533(13)
H3B H 0.9571 0.3508 1.1847
C4B C 1.3333(4) 0.2172(2) 1.08706(13)
H4B H 1.3948 0.2294 1.0357
C5B C 1.4199(4) 0.1056(2) 1.14677(13)
C6B C 1.3347(4) 0.0860(2) 1.22439(13)
H5B H 1.3931 0.0114 1.2653
Cd1A Cd 1.0000 0.0000 1.5000
Cd1A_2 Cd 1.0000 1.0000 0.5000
O1A O 1.1678(2) 0.41115(15) 0.88671(9)
O1C O 0.8322(2) 0.58885(15) 1.11329(9)
loop_
_geom_bond_atom_site_label_1
_geom_bond_atom_site_label_2
_geom_bond_site_symmetry_1
_geom_bond_site_symmetry_2
Cd1 O3 1_555 1_555
Cl1 C5 1_555 1_555
O1 C1 1_555 1_555
O2 C1 1_555 1_555
O3 H1 1_555 1_555
H2 O3 1_555 1_555
N1 Cd1 1_555 1_555
C1 C2 1_555 1_555
C2 C3 1_555 1_555
C3 N1 1_555 1_555
H3 C3 1_555 1_555
C4 N1 1_555 1_555
H4 C4 1_555 1_555
C5 C4 1_555 1_555
C6 C2 1_555 1_555
H5 C6 1_555 1_555
Cl1B C5B 1_555 1_555
O1B C1B 1_555 1_555
O2B C1B 1_555 1_555
O3B Cd1 1_555 1_555
H1B O3B 1_555 1_555
H2B O3B 1_555 1_555
N1B Cd1 1_555 1_555
C1B C2B 1_555 1_555
C2B C3B 1_555 1_555
C3B N1B 1_555 1_555
H3B C3B 1_555 1_555
C4B N1B 1_555 1_555
H4B C4B 1_555 1_555
C5B C4B 1_555 1_555
C6B C2B 1_555 1_555
H5B C6B 1_555 1_555
Cd1A O1B 1_555 1_555
Cd1A_2 O1 1_555 1_555
O1A Cd1 1_555 1_555
O1C Cd1 1_555 1_555
C5 C6 1_555 1_555
C5B C6B 1_555 1_555

#END
