
#######################################################################
#
#                 Cambridge Crystallographic Data Centre
#                                CCDC 
#
#######################################################################
#
# If this CIF has been generated from an entry in the Cambridge 
# Structural Database, then it will include bibliographic, chemical, 
# crystal, experimental, refinement or atomic coordinate data resulting 
# from the CCDC's data processing and validation procedures.
#
#######################################################################

data_NIMXAJ
_symmetry_cell_setting           monoclinic
_symmetry_space_group_name_H-M   'C 2/c'
_symmetry_Int_Tables_number      15
_space_group_name_Hall           '-C 2yn'
loop_
_symmetry_equiv_pos_site_id
_symmetry_equiv_pos_as_xyz
1 x,y,z
2 1/2+x,1/2+y,z
3 -x,y,1/2-z
4 1/2-x,1/2+y,1/2-z
5 -x,-y,-z
6 1/2-x,1/2-y,-z
7 x,-y,1/2+z
8 1/2+x,1/2-y,1/2+z
_cell_length_a                   23.1644(9)
_cell_length_b                   8.8907(3)
_cell_length_c                   22.8723(7)
_cell_angle_alpha                90
_cell_angle_beta                 93.0137(13)
_cell_angle_gamma                90
_cell_volume                     4703.98
loop_
_atom_site_label
_atom_site_type_symbol
_atom_site_fract_x
_atom_site_fract_y
_atom_site_fract_z
Zn1 Zn 0.033399(11) 0.44754(3) 0.445670(10)
Zn2 Zn 0.0000 0.29720(5) 0.2500
O1 O -0.04574(6) 0.41768(17) 0.48326(6)
O2 O -0.06892(7) 0.2976(2) 0.30212(6)
O3 O 0.09468(7) 0.52582(19) 0.39029(6)
O4 O 0.27445(12) 0.7288(4) 0.17309(14)
O5 O 0.20463(14) 0.8128(6) 0.12818(16)
N1 N -0.00848(8) 0.4247(2) 0.36728(7)
N2 N 0.02725(8) 0.4475(2) 0.31968(7)
N3 N 0.22428(14) 0.7473(4) 0.16698(14)
N4 N 0.07842(9) 0.2577(2) 0.47548(8)
N5 N -0.04228(10) 0.1110(3) 0.19815(9)
C1 C -0.09712(9) 0.3888(2) 0.45534(9)
C2 C -0.10397(9) 0.3531(3) 0.39475(9)
C3 C -0.15939(10) 0.3229(3) 0.37101(10)
H1 H -0.1637 0.2968 0.3316
C4 C -0.20798(11) 0.3298(3) 0.40299(11)
H2 H -0.2444 0.3101 0.3856
C5 C -0.20129(10) 0.3667(3) 0.46137(11)
H3 H -0.2336 0.3740 0.4837
C6 C -0.14707(10) 0.3928(3) 0.48691(10)
H4 H -0.1436 0.4140 0.5268
C7 C -0.05747(10) 0.3550(3) 0.35252(9)
C8 C 0.07699(11) 0.5066(3) 0.33707(9)
C9 C 0.11511(11) 0.5637(3) 0.29115(10)
C10 C 0.17453(11) 0.5664(3) 0.30216(11)
H5 H 0.1903 0.5285 0.3374
C11 C 0.21070(12) 0.6245(4) 0.26165(12)
H6 H 0.2506 0.6240 0.2687
C12 C 0.18615(12) 0.6831(4) 0.21067(12)
C13 C 0.12783(12) 0.6842(4) 0.19885(11)
H7 H 0.1123 0.7254 0.1641
C14 C 0.09241(12) 0.6241(3) 0.23873(11)
H8 H 0.0526 0.6235 0.2307
C15 C 0.05476(14) 0.1615(3) 0.51126(13)
H9 H 0.0164 0.1753 0.5201
C16 C 0.08492(18) 0.0411(4) 0.53613(15)
H10 H 0.0667 -0.0257 0.5605
C17 C 0.14098(17) 0.0218(4) 0.52468(15)
H11 H 0.1622 -0.0569 0.5419
C18 C 0.16606(14) 0.1189(4) 0.48764(15)
H12 H 0.2045 0.1069 0.4787
C19 C 0.13344(12) 0.2354(3) 0.46369(13)
H13 H 0.1506 0.3013 0.4382
C20 C -0.01198(15) 0.0039(4) 0.17347(13)
H14 H 0.0281 0.0065 0.1786
C21 C -0.03695(19) -0.1108(4) 0.14062(14)
H15 H -0.0142 -0.1841 0.1241
C22 C -0.0959(2) -0.1148(4) 0.13269(14)
H16 H -0.1140 -0.1905 0.1104
C23 C -0.12696(18) -0.0080(4) 0.15753(17)
H17 H -0.1671 -0.0083 0.1528
C24 C -0.09868(14) 0.1033(3) 0.19038(14)
H18 H -0.1209 0.1763 0.2078
Zn1B Zn -0.033399(11) 0.44754(3) 0.054330(10)
Zn1D Zn -0.033399(11) 0.55246(3) 0.554330(10)
Zn1F Zn 0.033399(11) 0.55246(3) -0.054330(10)
O1B O 0.04574(6) 0.41768(17) 0.01674(6)
O1D O 0.04574(6) 0.58232(17) 0.51674(6)
O1F O -0.04574(6) 0.58232(17) -0.01674(6)
O2B O 0.06892(7) 0.2976(2) 0.19788(6)
O3B O -0.09468(7) 0.52582(19) 0.10971(6)
O4B O -0.27445(12) 0.7288(4) 0.32691(14)
O5B O -0.20463(14) 0.8128(6) 0.37182(16)
N1B N 0.00848(8) 0.4247(2) 0.13272(7)
N2B N -0.02725(8) 0.4475(2) 0.18032(7)
N3B N -0.22428(14) 0.7473(4) 0.33302(14)
N4B N -0.07842(9) 0.2577(2) 0.02452(8)
N5B N 0.04228(10) 0.1110(3) 0.30185(9)
C1B C 0.09712(9) 0.3888(2) 0.04466(9)
C2B C 0.10397(9) 0.3531(3) 0.10525(9)
C3B C 0.15939(10) 0.3229(3) 0.12899(10)
H1B H 0.1637 0.2968 0.1684
C4B C 0.20798(11) 0.3298(3) 0.09701(11)
H2B H 0.2444 0.3101 0.1144
C5B C 0.20129(10) 0.3667(3) 0.03863(11)
H3B H 0.2336 0.3740 0.0163
C6B C 0.14707(10) 0.3928(3) 0.01309(10)
H4B H 0.1436 0.4140 -0.0268
C7B C 0.05747(10) 0.3550(3) 0.14748(9)
C8B C -0.07699(11) 0.5066(3) 0.16293(9)
C9B C -0.11511(11) 0.5637(3) 0.20885(10)
C10B C -0.17453(11) 0.5664(3) 0.19784(11)
H5B H -0.1903 0.5285 0.1626
C11B C -0.21070(12) 0.6245(4) 0.23835(12)
H6B H -0.2506 0.6240 0.2313
C12B C -0.18615(12) 0.6831(4) 0.28933(12)
C13B C -0.12783(12) 0.6842(4) 0.30115(11)
H7B H -0.1123 0.7254 0.3359
C14B C -0.09241(12) 0.6241(3) 0.26127(11)
H8B H -0.0526 0.6235 0.2693
C15B C -0.05476(14) 0.1615(3) -0.01126(13)
H9B H -0.0164 0.1753 -0.0201
C16B C -0.08492(18) 0.0411(4) -0.03613(15)
H10B H -0.0667 -0.0257 -0.0605
C17B C -0.14098(17) 0.0218(4) -0.02468(15)
H11B H -0.1622 -0.0569 -0.0419
C18B C -0.16606(14) 0.1189(4) 0.01236(15)
H12B H -0.2045 0.1069 0.0213
C19B C -0.13344(12) 0.2354(3) 0.03631(13)
H13B H -0.1506 0.3013 0.0618
C20B C 0.01198(15) 0.0039(4) 0.32653(13)
H14B H -0.0281 0.0065 0.3214
C21B C 0.03695(19) -0.1108(4) 0.35938(14)
H15B H 0.0142 -0.1841 0.3759
C22B C 0.0959(2) -0.1148(4) 0.36731(14)
H16B H 0.1140 -0.1905 0.3896
C23B C 0.12696(18) -0.0080(4) 0.34247(17)
H17B H 0.1671 -0.0083 0.3472
C24B C 0.09868(14) 0.1033(3) 0.30962(14)
H18B H 0.1209 0.1763 0.2922
loop_
_geom_bond_atom_site_label_1
_geom_bond_atom_site_label_2
_geom_bond_site_symmetry_1
_geom_bond_site_symmetry_2
Zn1 O1 1_555 1_555
Zn2 O2 1_555 1_555
O1 C1 1_555 1_555
O2 C7 1_555 1_555
O3 Zn1 1_555 1_555
O4 N3 1_555 1_555
O5 N3 1_555 1_555
N1 Zn1 1_555 1_555
N2 Zn2 1_555 1_555
N3 C12 1_555 1_555
N4 Zn1 1_555 1_555
N5 Zn2 1_555 1_555
C1 C2 1_555 1_555
C2 C3 1_555 1_555
C3 H1 1_555 1_555
C4 C3 1_555 1_555
H2 C4 1_555 1_555
C5 C4 1_555 1_555
H3 C5 1_555 1_555
C6 C1 1_555 1_555
H4 C6 1_555 1_555
C7 N1 1_555 1_555
C8 O3 1_555 1_555
C9 C8 1_555 1_555
C10 C9 1_555 1_555
H5 C10 1_555 1_555
C11 C10 1_555 1_555
H6 C11 1_555 1_555
C12 C11 1_555 1_555
C13 C12 1_555 1_555
H7 C13 1_555 1_555
C14 C9 1_555 1_555
H8 C14 1_555 1_555
C15 N4 1_555 1_555
H9 C15 1_555 1_555
C16 C15 1_555 1_555
H10 C16 1_555 1_555
C17 C16 1_555 1_555
H11 C17 1_555 1_555
C18 C17 1_555 1_555
H12 C18 1_555 1_555
C19 N4 1_555 1_555
H13 C19 1_555 1_555
C20 N5 1_555 1_555
H14 C20 1_555 1_555
C21 C20 1_555 1_555
H15 C21 1_555 1_555
C22 C21 1_555 1_555
H16 C22 1_555 1_555
C23 C22 1_555 1_555
H17 C23 1_555 1_555
C24 N5 1_555 1_555
H18 C24 1_555 1_555
Zn1B O1B 1_555 1_555
Zn1D O1 1_555 1_555
Zn1F O1B 1_555 1_555
O1B C1B 1_555 1_555
O1D Zn1 1_555 1_555
O1F Zn1B 1_555 1_555
O2B Zn2 1_555 1_555
O3B Zn1B 1_555 1_555
O4B N3B 1_555 1_555
O5B N3B 1_555 1_555
N1B Zn1B 1_555 1_555
N2B Zn2 1_555 1_555
N3B C12B 1_555 1_555
N4B Zn1B 1_555 1_555
N5B Zn2 1_555 1_555
C1B C2B 1_555 1_555
C2B C3B 1_555 1_555
C3B H1B 1_555 1_555
C4B C3B 1_555 1_555
H2B C4B 1_555 1_555
C5B C4B 1_555 1_555
H3B C5B 1_555 1_555
C6B C1B 1_555 1_555
H4B C6B 1_555 1_555
C7B O2B 1_555 1_555
C8B O3B 1_555 1_555
C9B C8B 1_555 1_555
C10B C9B 1_555 1_555
H5B C10B 1_555 1_555
C11B C10B 1_555 1_555
H6B C11B 1_555 1_555
C12B C11B 1_555 1_555
C13B C12B 1_555 1_555
H7B C13B 1_555 1_555
C14B C9B 1_555 1_555
H8B C14B 1_555 1_555
C15B N4B 1_555 1_555
H9B C15B 1_555 1_555
C16B C15B 1_555 1_555
H10B C16B 1_555 1_555
C17B C16B 1_555 1_555
H11B C17B 1_555 1_555
C18B C17B 1_555 1_555
H12B C18B 1_555 1_555
C19B N4B 1_555 1_555
H13B C19B 1_555 1_555
C20B N5B 1_555 1_555
H14B C20B 1_555 1_555
C21B C20B 1_555 1_555
H15B C21B 1_555 1_555
C22B C21B 1_555 1_555
H16B C22B 1_555 1_555
C23B C22B 1_555 1_555
H17B C23B 1_555 1_555
C24B N5B 1_555 1_555
H18B C24B 1_555 1_555
N1 N2 1_555 1_555
N2 C8 1_555 1_555
C2 C7 1_555 1_555
C5 C6 1_555 1_555
C13 C14 1_555 1_555
C18 C19 1_555 1_555
C23 C24 1_555 1_555
Zn1D O1D 1_555 1_555
Zn1F O1F 1_555 1_555
N1B N2B 1_555 1_555
N1B C7B 1_555 1_555
N2B C8B 1_555 1_555
C2B C7B 1_555 1_555
C5B C6B 1_555 1_555
C13B C14B 1_555 1_555
C18B C19B 1_555 1_555
C23B C24B 1_555 1_555

#END
