
#######################################################################
#
#                 Cambridge Crystallographic Data Centre
#                                CCDC 
#
#######################################################################
#
# If this CIF has been generated from an entry in the Cambridge 
# Structural Database, then it will include bibliographic, chemical, 
# crystal, experimental, refinement or atomic coordinate data resulting 
# from the CCDC's data processing and validation procedures.
#
#######################################################################

data_NIMZEP
_symmetry_cell_setting           orthorhombic
_symmetry_space_group_name_H-M   'P c a 21'
_symmetry_Int_Tables_number      29
_space_group_name_Hall           'P 2c -2ac'
loop_
_symmetry_equiv_pos_site_id
_symmetry_equiv_pos_as_xyz
1 x,y,z
2 1/2-x,y,1/2+z
3 1/2+x,-y,z
4 -x,-y,1/2+z
_cell_length_a                   18.144(2)
_cell_length_b                   10.9450(13)
_cell_length_c                   16.6741(17)
_cell_angle_alpha                90
_cell_angle_beta                 90
_cell_angle_gamma                90
_cell_volume                     3311.24
loop_
_atom_site_label
_atom_site_type_symbol
_atom_site_fract_x
_atom_site_fract_y
_atom_site_fract_z
Cu1 Cu 0.37439(3) 0.25564(6) 0.37423(6)
S1 S 0.58187(8) 0.62196(16) 0.59098(9)
S2 S 0.66330(8) 0.10397(14) 0.15793(9)
O1 O 0.4022(2) 0.0904(4) 0.4661(3)
O2 O 0.3419(2) 0.4088(4) 0.2838(2)
N1 N 0.4389(3) 0.3756(5) 0.4370(3)
N2 N 0.7857(2) 0.6996(4) 0.4413(3)
N3 N 0.4623(2) 0.2061(4) 0.3071(3)
N4 N 0.8120(2) -0.1363(4) 0.3111(3)
N5 N 0.5006(3) -0.0009(6) 0.5241(4)
N6 N 0.3184(3) 0.6037(5) 0.2468(3)
C1 C 0.4141(3) 0.4819(6) 0.4638(4)
H1 H 0.3649 0.5044 0.4510
C2 C 0.4555(3) 0.5619(6) 0.5094(4)
H2 H 0.4354 0.6374 0.5270
C3 C 0.5267(3) 0.5294(6) 0.5286(3)
C4 C 0.5533(3) 0.4186(6) 0.5024(4)
H3 H 0.6020 0.3940 0.5159
C5 C 0.5093(3) 0.3436(6) 0.4568(3)
H4 H 0.5283 0.2676 0.4387
C6 C 0.7876(3) 0.6961(5) 0.5224(4)
H5 H 0.8328 0.7135 0.5488
C7 C 0.7269(3) 0.6683(5) 0.5678(3)
H6 H 0.7305 0.6662 0.6247
C8 C 0.6600(3) 0.6434(5) 0.5305(3)
C9 C 0.6579(3) 0.6452(6) 0.4465(3)
H7 H 0.6134 0.6287 0.4184
C10 C 0.7218(3) 0.6713(5) 0.4056(4)
H8 H 0.7205 0.6693 0.3487
C11 C 0.5036(3) 0.2914(5) 0.2681(4)
H9 H 0.4898 0.3750 0.2716
C12 C 0.5647(3) 0.2598(5) 0.2235(4)
H10 H 0.5912 0.3216 0.1957
C13 C 0.5878(3) 0.1425(5) 0.2187(4)
C14 C 0.5457(3) 0.0532(5) 0.2595(4)
H11 H 0.5599 -0.0303 0.2584
C15 C 0.4837(3) 0.0895(5) 0.3010(4)
H12 H 0.4546 0.0286 0.3265
C16 C 0.8114(3) -0.1401(5) 0.2303(4)
H13 H 0.8442 -0.1947 0.2041
C17 C 0.7659(3) -0.0693(5) 0.1837(4)
H14 H 0.7674 -0.0759 0.1269
C18 C 0.7175(3) 0.0120(5) 0.2201(4)
C19 C 0.7195(3) 0.0198(5) 0.3040(4)
H15 H 0.6883 0.0753 0.3315
C20 C 0.7672(3) -0.0538(5) 0.3460(4)
H16 H 0.7686 -0.0462 0.4027
C21 C 0.4495(4) 0.0851(6) 0.5182(5)
H17 H 0.4497 0.1477 0.5576
C22 C 0.5599(4) 0.0080(10) 0.5826(6)
H18 H 0.5467 0.0678 0.6239
H19 H 0.6052 0.0341 0.5556
H20 H 0.5678 -0.0720 0.6076
C23 C 0.5011(8) -0.1037(9) 0.4686(7)
H21 H 0.4521 -0.1132 0.4448
H22 H 0.5143 -0.1785 0.4976
H23 H 0.5373 -0.0886 0.4262
C24 C 0.3606(3) 0.5158(5) 0.2716(4)
H24 H 0.4108 0.5356 0.2814
C25 C 0.3447(5) 0.7277(6) 0.2363(6)
H25 H 0.3972 0.7315 0.2497
H26 H 0.3171 0.7827 0.2715
H27 H 0.3377 0.7526 0.1803
C26 C 0.2395(4) 0.5841(7) 0.2335(5)
H28 H 0.2305 0.4975 0.2223
H29 H 0.2232 0.6334 0.1877
H30 H 0.2120 0.6084 0.2815
Cu1B Cu 0.87439(3) 0.74436(6) 0.37423(6)
Cu1B_2 Cu 0.87439(3) -0.25564(6) 0.37423(6)
N2B N 0.2857(2) 0.3004(4) 0.4413(3)
N4B N 0.3120(2) 0.1363(4) 0.3111(3)
Cl1 Cl 0.73829(11) 0.24594(18) 0.47429(12)
O3 O 0.8093(4) 0.2397(8) 0.4442(6)
O4 O 0.7236(5) 0.1300(8) 0.5062(5)
O5 O 0.6842(5) 0.2650(7) 0.4133(4)
O6 O 0.7331(5) 0.3368(8) 0.5333(5)
Cl2 Cl 0.42760(9) 0.32854(14) 0.72569(10)
O7 O 0.3541(3) 0.2899(7) 0.7197(5)
O8 O 0.4584(5) 0.2617(11) 0.7899(5)
O9 O 0.4335(5) 0.4456(7) 0.7567(11)
O10 O 0.4717(5) 0.2945(13) 0.6612(6)
loop_
_geom_bond_atom_site_label_1
_geom_bond_atom_site_label_2
_geom_bond_site_symmetry_1
_geom_bond_site_symmetry_2
Cu1 O1 1_555 1_555
Cl1 O3 1_555 1_555
Cl2 O7 1_555 1_555
S1 C3 1_555 1_555
S2 C13 1_555 1_555
O1 C21 1_555 1_555
O2 Cu1 1_555 1_555
O4 Cl1 1_555 1_555
O5 Cl1 1_555 1_555
O6 Cl1 1_555 1_555
O8 Cl2 1_555 1_555
O9 Cl2 1_555 1_555
O10 Cl2 1_555 1_555
N1 Cu1 1_555 1_555
N2 C6 1_555 1_555
N3 Cu1 1_555 1_555
N4 C16 1_555 1_555
N5 C21 1_555 1_555
N6 C24 1_555 1_555
C1 N1 1_555 1_555
H1 C1 1_555 1_555
C2 C1 1_555 1_555
H2 C2 1_555 1_555
C3 C2 1_555 1_555
C4 C3 1_555 1_555
H3 C4 1_555 1_555
C5 N1 1_555 1_555
H4 C5 1_555 1_555
C6 H5 1_555 1_555
C7 C6 1_555 1_555
H6 C7 1_555 1_555
C8 S1 1_555 1_555
C9 C8 1_555 1_555
H7 C9 1_555 1_555
C10 N2 1_555 1_555
H8 C10 1_555 1_555
C11 N3 1_555 1_555
H9 C11 1_555 1_555
C12 C11 1_555 1_555
H10 C12 1_555 1_555
C13 C12 1_555 1_555
C14 C13 1_555 1_555
H11 C14 1_555 1_555
C15 N3 1_555 1_555
H12 C15 1_555 1_555
C16 H13 1_555 1_555
C17 C16 1_555 1_555
H14 C17 1_555 1_555
C18 S2 1_555 1_555
C19 C18 1_555 1_555
H15 C19 1_555 1_555
C20 N4 1_555 1_555
H16 C20 1_555 1_555
C21 H17 1_555 1_555
C22 N5 1_555 1_555
H18 C22 1_555 1_555
H19 C22 1_555 1_555
H20 C22 1_555 1_555
C23 N5 1_555 1_555
H21 C23 1_555 1_555
H22 C23 1_555 1_555
H23 C23 1_555 1_555
C24 O2 1_555 1_555
H24 C24 1_555 1_555
C25 N6 1_555 1_555
H25 C25 1_555 1_555
H26 C25 1_555 1_555
H27 C25 1_555 1_555
C26 N6 1_555 1_555
H28 C26 1_555 1_555
H29 C26 1_555 1_555
H30 C26 1_555 1_555
Cu1B N2 1_555 1_555
Cu1B_2 N4 1_555 1_555
N2B Cu1 1_555 1_555
N4B Cu1 1_555 1_555
C4 C5 1_555 1_555
C7 C8 1_555 1_555
C9 C10 1_555 1_555
C14 C15 1_555 1_555
C17 C18 1_555 1_555
C19 C20 1_555 1_555

#END
