
#######################################################################
#
#                 Cambridge Crystallographic Data Centre
#                                CCDC 
#
#######################################################################
#
# If this CIF has been generated from an entry in the Cambridge 
# Structural Database, then it will include bibliographic, chemical, 
# crystal, experimental, refinement or atomic coordinate data resulting 
# from the CCDC's data processing and validation procedures.
#
#######################################################################

data_NIMZIT
_symmetry_cell_setting           trigonal
_symmetry_space_group_name_H-M   'P 31'
_symmetry_Int_Tables_number      144
_space_group_name_Hall           'P 31'
loop_
_symmetry_equiv_pos_site_id
_symmetry_equiv_pos_as_xyz
1 x,y,z
2 -y,x-y,1/3+z
3 -x+y,-x,2/3+z
_cell_length_a                   9.5830(9)
_cell_length_b                   9.5830(9)
_cell_length_c                   25.280(3)
_cell_angle_alpha                90
_cell_angle_beta                 90
_cell_angle_gamma                120
_cell_volume                     2010.53
loop_
_atom_site_label
_atom_site_type_symbol
_atom_site_fract_x
_atom_site_fract_y
_atom_site_fract_z
Cu1 Cu 0.76825(6) 0.66666(8) 0.49498(3)
S1 S 0.07886(15) 0.28855(17) 0.36725(5)
S2 S 0.45715(15) 1.04506(17) 0.62262(5)
O1 O 0.6565(5) 0.4526(5) 0.56124(17)
H1 H 0.718(5) 0.428(7) 0.577(2)
H2 H 0.560(3) 0.383(7) 0.566(3)
O2 O 0.8711(5) 0.8813(5) 0.42876(17)
H3 H 0.832(5) 0.938(7) 0.418(2)
H4 H 0.953(6) 0.911(8) 0.410(3)
N1 N 0.5626(5) 0.5513(5) 0.45131(19)
N2 N -0.1412(5) 0.5479(5) 0.45393(16)
N3 N 0.6781(5) 0.7820(5) 0.5380(2)
N4 N -0.0220(5) 0.7857(5) 0.53581(15)
C1 C 0.4913(6) 0.3931(6) 0.4419(2)
H9 H 0.5415 0.3351 0.4540
C2 C 0.3455(6) 0.3105(6) 0.4147(2)
H10 H 0.2980 0.1984 0.4078
C3 C 0.2716(5) 0.3949(6) 0.39816(19)
C4 C 0.3470(6) 0.5586(6) 0.4059(2)
H11 H 0.3006 0.6196 0.3932
C5 C 0.4923(6) 0.6322(6) 0.4327(2)
H12 H 0.5446 0.7454 0.4383
C6 C -0.0756(6) 0.4728(6) 0.4803(2)
H13 H -0.0741 0.4768 0.5178
C7 C -0.0110(6) 0.3910(7) 0.4557(2)
H14 H 0.0339 0.3391 0.4757
C8 C -0.0127(5) 0.3855(6) 0.4008(2)
C9 C -0.0833(6) 0.4574(6) 0.3736(2)
H15 H -0.0896 0.4518 0.3361
C10 C -0.1454(6) 0.5381(6) 0.4014(2)
H16 H -0.1931 0.5887 0.3823
C11 C 0.7642(5) 0.9407(6) 0.5481(2)
H17 H 0.8727 0.9991 0.5362
C12 C 0.7016(6) 1.0228(6) 0.5751(2)
H18 H 0.7663 1.1349 0.5820
C13 C 0.5438(6) 0.9391(6) 0.59185(19)
C14 C 0.4560(6) 0.7743(6) 0.5841(2)
H19 H 0.3490 0.7131 0.5972
C15 C 0.5259(6) 0.7006(6) 0.5572(2)
H20 H 0.4648 0.5875 0.5517
C16 C -0.0169(6) 0.7945(6) 0.5889(2)
H21 H -0.1152 0.7427 0.6081
C17 C 0.1258(6) 0.8758(6) 0.6164(2)
H22 H 0.1256 0.8819 0.6539
C18 C 0.2693(6) 0.9485(6) 0.5888(2)
C19 C 0.2647(6) 0.9419(7) 0.5342(2)
H23 H 0.3615 0.9933 0.5142
C20 C 0.1182(6) 0.8601(6) 0.5094(2)
H24 H 0.1158 0.8558 0.4719
Cu1_2 Cu -0.23175(6) 0.66666(8) 0.49498(3)
N2_2 N 0.8588(5) 0.5479(5) 0.45393(16)
N4_2 N 0.9780(5) 0.7857(5) 0.53581(15)
O3 O 0.3129(8) 0.2957(6) 0.6103(3)
O4 O 0.0863(6) 0.2621(9) 0.5918(4)
O5 O 0.2577(11) 0.3047(8) 0.5338(2)
N5 N 0.2172(5) 0.2900(5) 0.57838(18)
O6 O 0.6828(8) 0.0373(7) 0.3792(3)
O7 O 0.6187(13) 0.0289(9) 0.4558(3)
O8 O 0.4905(8) 0.0707(9) 0.3981(4)
N6 N 0.5941(5) 0.0434(5) 0.41169(18)
O9 O 0.9103(6) 0.4241(5) 0.61096(16)
H5 H 0.906(7) 0.435(7) 0.6436(6)
H6 H 0.957(14) 0.370(13) 0.608(2)
O10 O 0.1519(6) 0.9096(6) 0.37883(18)
H7 H 0.2523(19) 0.958(8) 0.384(3)
H8 H 0.124(9) 0.866(9) 0.3490(15)
loop_
_geom_bond_atom_site_label_1
_geom_bond_atom_site_label_2
_geom_bond_site_symmetry_1
_geom_bond_site_symmetry_2
Cu1 O1 1_555 1_555
S1 C3 1_555 1_555
S2 C13 1_555 1_555
O1 H1 1_555 1_555
H2 O1 1_555 1_555
O2 Cu1 1_555 1_555
H3 O2 1_555 1_555
H4 O2 1_555 1_555
O3 N5 1_555 1_555
O4 N5 1_555 1_555
O5 N5 1_555 1_555
O6 N6 1_555 1_555
O7 N6 1_555 1_555
O8 N6 1_555 1_555
O9 H5 1_555 1_555
H6 O9 1_555 1_555
O10 H7 1_555 1_555
H8 O10 1_555 1_555
N1 Cu1 1_555 1_555
N2 C6 1_555 1_555
N3 Cu1 1_555 1_555
N4 C16 1_555 1_555
C1 N1 1_555 1_555
H9 C1 1_555 1_555
C2 C1 1_555 1_555
H10 C2 1_555 1_555
C3 C2 1_555 1_555
C4 C3 1_555 1_555
H11 C4 1_555 1_555
C5 N1 1_555 1_555
H12 C5 1_555 1_555
C6 H13 1_555 1_555
C7 C6 1_555 1_555
H14 C7 1_555 1_555
C8 S1 1_555 1_555
C9 C8 1_555 1_555
H15 C9 1_555 1_555
C10 N2 1_555 1_555
H16 C10 1_555 1_555
C11 N3 1_555 1_555
H17 C11 1_555 1_555
C12 C11 1_555 1_555
H18 C12 1_555 1_555
C13 C12 1_555 1_555
C14 C13 1_555 1_555
H19 C14 1_555 1_555
C15 N3 1_555 1_555
H20 C15 1_555 1_555
C16 H21 1_555 1_555
C17 C16 1_555 1_555
H22 C17 1_555 1_555
C18 S2 1_555 1_555
C19 C18 1_555 1_555
H23 C19 1_555 1_555
C20 N4 1_555 1_555
H24 C20 1_555 1_555
Cu1_2 N2 1_555 1_555
N2_2 Cu1 1_555 1_555
N4_2 Cu1 1_555 1_555
N4 Cu1_2 1_555 1_555
C4 C5 1_555 1_555
C7 C8 1_555 1_555
C9 C10 1_555 1_555
C14 C15 1_555 1_555
C17 C18 1_555 1_555
C19 C20 1_555 1_555

#END
