
#######################################################################
#
#                 Cambridge Crystallographic Data Centre
#                                CCDC 
#
#######################################################################
#
# If this CIF has been generated from an entry in the Cambridge 
# Structural Database, then it will include bibliographic, chemical, 
# crystal, experimental, refinement or atomic coordinate data resulting 
# from the CCDC's data processing and validation procedures.
#
#######################################################################

data_NIMZIT01
_symmetry_cell_setting           monoclinic
_symmetry_space_group_name_H-M   'C 2/c'
_symmetry_Int_Tables_number      15
_space_group_name_Hall           '-C 2yn'
loop_
_symmetry_equiv_pos_site_id
_symmetry_equiv_pos_as_xyz
1 x,y,z
2 -x,y,1/2-z
3 1/2+x,1/2+y,z
4 1/2-x,1/2+y,1/2-z
5 -x,-y,-z
6 x,-y,1/2+z
7 1/2-x,1/2-y,-z
8 1/2+x,1/2-y,1/2+z
_cell_length_a                   17.076(3)
_cell_length_b                   9.7030(19)
_cell_length_c                   16.988(3)
_cell_angle_alpha                90
_cell_angle_beta                 111.26(3)
_cell_angle_gamma                90
_cell_volume                     2623.16
loop_
_atom_site_label
_atom_site_type_symbol
_atom_site_fract_x
_atom_site_fract_y
_atom_site_fract_z
Cu1 Cu 0.0000 0.92083(6) 0.2500
S1 S 0.26154(7) 1.42063(11) 0.42426(8)
N1 N 0.0839(2) 1.0672(3) 0.3097(3)
C1 C 0.1912(2) 1.5578(4) 0.3796(3)
N2 N 0.0828(2) 1.7714(3) 0.3075(2)
C2 C 0.1625(3) 1.0671(4) 0.3113(3)
H1 H 0.1801 0.9929 0.2872
C3 C 0.1196(3) 1.7614(4) 0.3904(3)
H2 H 0.1086 1.8286 0.4240
C4 C 0.1001(3) 1.6736(4) 0.2607(3)
H3 H 0.0739 1.6785 0.2023
C5 C 0.1121(3) 1.2822(4) 0.3805(3)
H4 H 0.0930 1.3555 0.4039
C6 C 0.0614(3) 1.1739(4) 0.3463(3)
H5 H 0.0078 1.1737 0.3485
C7 C 0.2178(3) 1.1695(4) 0.3462(3)
H6 H 0.2726 1.1639 0.3474
C8 C 0.1923(2) 1.2821(4) 0.3799(3)
C9 C 0.1535(3) 1.5681(4) 0.2935(3)
H7 H 0.1644 1.5035 0.2584
C10 C 0.1737(3) 1.6549(4) 0.4292(3)
H8 H 0.1977 1.6496 0.4878
O5 O 0.0510(2) 0.9274(3) 0.1309(2)
H11 H 0.0722 0.9957 0.1164
H12 H 0.0544 0.8557 0.1049
Cu1_2 Cu 0.0000 1.92083(6) 0.2500
S1A S -0.26154(7) 1.42063(11) 0.07574(8)
N1A N -0.0839(2) 1.0672(3) 0.1903(3)
C1A C -0.1912(2) 1.5578(4) 0.1204(3)
N2A N -0.0828(2) 1.7714(3) 0.1925(2)
N2_2 N 0.0828(2) 0.7714(3) 0.3075(2)
N2A_2 N -0.0828(2) 0.7714(3) 0.1925(2)
C2A C -0.1625(3) 1.0671(4) 0.1887(3)
H1A H -0.1801 0.9929 0.2128
C3A C -0.1196(3) 1.7614(4) 0.1096(3)
H2A H -0.1086 1.8286 0.0760
C4A C -0.1001(3) 1.6736(4) 0.2393(3)
H3A H -0.0739 1.6785 0.2977
C5A C -0.1121(3) 1.2822(4) 0.1195(3)
H4A H -0.0930 1.3555 0.0961
C6A C -0.0614(3) 1.1739(4) 0.1537(3)
H5A H -0.0078 1.1737 0.1515
C7A C -0.2178(3) 1.1695(4) 0.1538(3)
H6A H -0.2726 1.1639 0.1526
C8A C -0.1923(2) 1.2821(4) 0.1201(3)
C9A C -0.1535(3) 1.5681(4) 0.2065(3)
H7A H -0.1644 1.5035 0.2416
C10A C -0.1737(3) 1.6549(4) 0.0708(3)
H8A H -0.1977 1.6496 0.0122
O5A O -0.0510(2) 0.9274(3) 0.3691(2)
H11A H -0.0722 0.9957 0.3836
H12A H -0.0544 0.8557 0.3951
N3 N -0.1307(3) 0.6957(4) -0.1171(3)
O1 O -0.1138(3) 0.8118(4) -0.0878(3)
O2 O -0.1988(3) 0.6602(6) -0.1579(4)
O3 O -0.0719(3) 0.6125(5) -0.1016(4)
O4 O 0.0590(3) 0.6738(4) 0.0548(3)
H9 H 0.0805 0.5973 0.0768
H10 H 0.0111 0.6730 0.0132
loop_
_geom_bond_atom_site_label_1
_geom_bond_atom_site_label_2
_geom_bond_site_symmetry_1
_geom_bond_site_symmetry_2
Cu1 N1 1_555 1_555
S1 C1 1_555 1_555
N1 C2 1_555 1_555
C1 C9 1_555 1_555
N2 C3 1_555 1_555
C2 H1 1_555 1_555
C3 H2 1_555 1_555
C4 N2 1_555 1_555
H3 C4 1_555 1_555
C5 H4 1_555 1_555
C6 N1 1_555 1_555
H5 C6 1_555 1_555
C7 C2 1_555 1_555
H6 C7 1_555 1_555
C8 S1 1_555 1_555
C9 C4 1_555 1_555
H7 C9 1_555 1_555
C10 C1 1_555 1_555
H8 C10 1_555 1_555
N3 O1 1_555 1_555
O2 N3 1_555 1_555
O3 N3 1_555 1_555
O4 H9 1_555 1_555
H10 O4 1_555 1_555
O5 Cu1 1_555 1_555
H11 O5 1_555 1_555
H12 O5 1_555 1_555
Cu1_2 N2 1_555 1_555
S1A C1A 1_555 1_555
N1A Cu1 1_555 1_555
C1A C9A 1_555 1_555
N2A Cu1_2 1_555 1_555
N2_2 Cu1 1_555 1_555
N2A_2 Cu1 1_555 1_555
C2A N1A 1_555 1_555
H1A C2A 1_555 1_555
C3A N2A 1_555 1_555
H2A C3A 1_555 1_555
C4A N2A 1_555 1_555
H3A C4A 1_555 1_555
C5A H4A 1_555 1_555
C6A N1A 1_555 1_555
H5A C6A 1_555 1_555
C7A C2A 1_555 1_555
H6A C7A 1_555 1_555
C8A S1A 1_555 1_555
C9A C4A 1_555 1_555
H7A C9A 1_555 1_555
C10A C1A 1_555 1_555
H8A C10A 1_555 1_555
O5A Cu1 1_555 1_555
H11A O5A 1_555 1_555
H12A O5A 1_555 1_555
C3 C10 1_555 1_555
C5 C6 1_555 1_555
C5 C8 1_555 1_555
C7 C8 1_555 1_555
C3A C10A 1_555 1_555
C5A C6A 1_555 1_555
C5A C8A 1_555 1_555
C7A C8A 1_555 1_555

#END
