
#######################################################################
#
#                 Cambridge Crystallographic Data Centre
#                                CCDC 
#
#######################################################################
#
# If this CIF has been generated from an entry in the Cambridge 
# Structural Database, then it will include bibliographic, chemical, 
# crystal, experimental, refinement or atomic coordinate data resulting 
# from the CCDC's data processing and validation procedures.
#
#######################################################################

data_NINBAO
_symmetry_cell_setting           orthorhombic
_symmetry_space_group_name_H-M   'P c a 21'
_symmetry_Int_Tables_number      29
_space_group_name_Hall           'P 2c -2ac'
loop_
_symmetry_equiv_pos_site_id
_symmetry_equiv_pos_as_xyz
1 x,y,z
2 1/2-x,y,1/2+z
3 1/2+x,-y,z
4 -x,-y,1/2+z
_cell_length_a                   18.094(3)
_cell_length_b                   11.3809(18)
_cell_length_c                   44.077(6)
_cell_angle_alpha                90
_cell_angle_beta                 90
_cell_angle_gamma                90
_cell_volume                     9076.6
loop_
_atom_site_label
_atom_site_type_symbol
_atom_site_fract_x
_atom_site_fract_y
_atom_site_fract_z
Cu1 Cu 0.51707(10) 0.74563(12) 0.27746(3)
S1 S 0.7432(2) 0.4394(3) 0.36339(7)
S2 S 0.3131(2) 1.1114(3) 0.19896(7)
O1 O 0.4851(5) 0.5897(8) 0.2455(2)
O2 O 0.5458(5) 0.9092(7) 0.31397(19)
N1 N 0.5901(6) 0.6491(9) 0.3011(2)
N2 N 0.9324(5) 0.3059(9) 0.3041(2)
N3 N 0.4466(6) 0.8531(9) 0.2555(2)
N4 N 0.1012(6) 1.2052(9) 0.2493(2)
N5 N 0.4609(7) 0.4092(9) 0.2274(3)
C1 C 0.5702(8) 0.5413(11) 0.3121(3)
H1 H 0.5234 0.5101 0.3066
C2 C 0.6172(8) 0.4738(12) 0.3314(3)
H2 H 0.6013 0.4011 0.3397
C3 C 0.6867(7) 0.5185(11) 0.3376(3)
C4 C 0.7069(7) 0.6269(11) 0.3258(3)
H3 H 0.7543 0.6587 0.3300
C5 C 0.6585(8) 0.6873(12) 0.3082(3)
H4 H 0.6738 0.7611 0.3003
C6 C 0.9333(8) 0.3091(10) 0.3339(3)
H5 H 0.9771 0.2821 0.3435
C7 C 0.8770(7) 0.3477(12) 0.3527(3)
H6 H 0.8821 0.3466 0.3742
C8 C 0.8126(7) 0.3880(10) 0.3390(3)
C9 C 0.8086(8) 0.3860(10) 0.3080(3)
H7 H 0.7664 0.4147 0.2975
C10 C 0.8690(8) 0.3400(10) 0.2926(3)
H8 H 0.8639 0.3323 0.2712
C11 C 0.4320(7) 0.8333(12) 0.2259(3)
H9 H 0.4549 0.7687 0.2161
C12 C 0.3838(7) 0.9061(12) 0.2092(3)
H10 H 0.3684 0.8848 0.1893
C13 C 0.3601(7) 1.0069(11) 0.2222(3)
C14 C 0.3749(8) 1.0304(11) 0.2524(2)
H11 H 0.3570 1.0999 0.2618
C15 C 0.4169(7) 0.9496(12) 0.2685(3)
H12 H 0.4250 0.9627 0.2896
C16 C 0.1334(7) 1.0987(11) 0.2521(3)
H13 H 0.1097 1.0418 0.2645
C17 C 0.1982(9) 1.0676(13) 0.2381(3)
H14 H 0.2198 0.9927 0.2416
C18 C 0.2308(6) 1.1462(11) 0.2193(3)
C19 C 0.2021(8) 1.2571(11) 0.2159(3)
H15 H 0.2261 1.3145 0.2038
C20 C 0.1366(8) 1.2817(13) 0.2311(3)
H16 H 0.1154 1.3574 0.2284
C21 C 0.5042(8) 0.4901(11) 0.2386(2)
H17 H 0.5547 0.4700 0.2416
C22 C 0.4879(9) 0.2875(12) 0.2199(4)
H18 H 0.5416 0.2841 0.2224
H19 H 0.4750 0.2687 0.1988
H20 H 0.4645 0.2305 0.2335
C23 C 0.3823(10) 0.4362(14) 0.2197(5)
H21 H 0.3728 0.5200 0.2231
H22 H 0.3495 0.3896 0.2326
H23 H 0.3731 0.4169 0.1984
Cu1B Cu 1.01707(10) 0.25437(12) 0.27746(3)
Cu1B_2 Cu 0.01707(10) 1.25437(12) 0.27746(3)
N2B N 0.4324(5) 0.6941(9) 0.3041(2)
N4B N 0.6012(6) 0.7948(9) 0.2493(2)
Cu2 Cu 0.51736(9) 0.24749(13) 0.41902(3)
S3 S 0.7924(2) 0.0616(3) 0.33333(8)
S4 S 0.2272(2) 0.3985(3) 0.49994(8)
O3 O 0.5426(5) 0.0980(7) 0.4522(2)
O4 O 0.4895(5) 0.4132(7) 0.38386(19)
N6 N 0.6037(6) 0.1968(8) 0.3927(2)
N7 N 0.9477(5) -0.1503(9) 0.3947(2)
N8 N 0.4323(6) 0.2954(9) 0.4459(2)
N9 N 0.0853(6) 0.6439(9) 0.4431(2)
N10 N 0.5626(6) -0.0860(10) 0.4721(3)
C24 C 0.6013(7) 0.1935(11) 0.3614(3)
H24 H 0.5580 0.2201 0.3514
C25 C 0.6574(7) 0.1545(10) 0.3448(3)
H25 H 0.6530 0.1555 0.3233
C26 C 0.7240(7) 0.1113(11) 0.3581(3)
C27 C 0.7277(7) 0.1190(11) 0.3885(3)
H26 H 0.7722 0.0963 0.3983
C28 C 0.6701(7) 0.1581(10) 0.4061(3)
H27 H 0.6750 0.1591 0.4275
C29 C 0.8791(7) -0.1903(12) 0.3870(3)
H28 H 0.8648 -0.2654 0.3944
C30 C 0.8285(7) -0.1297(12) 0.3691(3)
H29 H 0.7816 -0.1622 0.3643
C31 C 0.8496(8) -0.0198(11) 0.3587(3)
C32 C 0.9180(8) 0.0219(11) 0.3667(3)
H30 H 0.9340 0.0963 0.3596
C33 C 0.9629(7) -0.0430(11) 0.3849(3)
H31 H 1.0084 -0.0090 0.3910
C34 C 0.3902(7) 0.2170(12) 0.4622(3)
H32 H 0.4064 0.1376 0.4624
C35 C 0.3279(8) 0.2421(12) 0.4780(3)
H33 H 0.3025 0.1827 0.4890
C36 C 0.3022(7) 0.3567(12) 0.4777(3)
C37 C 0.3456(9) 0.4402(12) 0.4618(3)
H34 H 0.3307 0.5201 0.4612
C38 C 0.4107(9) 0.4052(11) 0.4469(3)
H35 H 0.4401 0.4633 0.4372
C39 C 0.1211(7) 0.5526(11) 0.4293(2)
H36 H 0.1146 0.5404 0.4081
C40 C 0.1662(7) 0.4783(12) 0.4453(3)
H37 H 0.1904 0.4151 0.4353
C41 C 0.1763(8) 0.4961(11) 0.4762(3)
C42 C 0.1429(6) 0.5920(11) 0.4898(3)
H38 H 0.1502 0.6085 0.5107
C43 C 0.0990(6) 0.6623(10) 0.4721(2)
H39 H 0.0769 0.7289 0.4814
C44 C 0.5582(17) -0.003(3) 0.4537(8)
H40 H 0.5724 -0.0295 0.4342
C45 C 0.5929(16) -0.201(3) 0.4703(7)
H41 H 0.5533 -0.2589 0.4724
H42 H 0.6290 -0.2117 0.4866
H43 H 0.6173 -0.2109 0.4506
C46 C 0.5142(18) -0.067(3) 0.4958(7)
H44 H 0.4787 -0.0059 0.4902
H45 H 0.5419 -0.0424 0.5138
H46 H 0.4875 -0.1402 0.5003
Cu2B Cu 1.01736(9) -0.24749(13) 0.41902(3)
Cu2B_2 Cu 0.01736(9) 0.75251(13) 0.41902(3)
N7B N 0.4477(5) 0.1503(9) 0.3947(2)
N9B N 0.5853(6) 0.3561(9) 0.4431(2)
Cu3 Cu 0.18208(10) 0.73346(14) 0.60073(4)
S5 S 0.4617(2) 0.5842(5) 0.51559(9)
S6 S 0.4313(2) 1.0013(4) 0.68292(8)
O5 O 0.1845(6) 0.5728(8) 0.6350(2)
O6 O 0.1659(7) 0.9245(10) 0.5595(2)
N11 N 0.2654(5) 0.6753(9) 0.5745(2)
N12 N 0.6110(6) 0.3603(10) 0.5756(2)
N13 N 0.2550(6) 0.8210(9) 0.6251(2)
N14 N 0.5978(6) 1.1873(10) 0.6228(2)
C47 C 0.2675(7) 0.7059(12) 0.5442(3)
H47 H 0.2279 0.7479 0.5351
C48 C 0.3280(8) 0.6740(12) 0.5278(3)
H48 H 0.3298 0.6952 0.5069
C49 C 0.3856(7) 0.6141(13) 0.5395(3)
C50 C 0.3829(8) 0.5873(12) 0.5701(3)
H49 H 0.4233 0.5490 0.5797
C51 C 0.3202(9) 0.6172(13) 0.5868(3)
H50 H 0.3171 0.5949 0.6075
C52 C 0.5519(8) 0.3140(14) 0.5601(3)
H51 H 0.5418 0.2324 0.5619
C53 C 0.5069(7) 0.3816(15) 0.5421(3)
H52 H 0.4682 0.3450 0.5310
C54 C 0.5161(7) 0.4955(15) 0.5399(3)
C55 C 0.5740(8) 0.5476(14) 0.5545(3)
H53 H 0.5817 0.6299 0.5529
C56 C 0.6225(9) 0.4768(13) 0.5721(3)
H54 H 0.6639 0.5123 0.5817
C57 C 0.2604(8) 0.8097(10) 0.6558(3)
H55 H 0.2243 0.7629 0.6658
C58 C 0.3157(7) 0.8624(11) 0.6739(3)
H56 H 0.3182 0.8508 0.6952
C59 C 0.3644(7) 0.9298(12) 0.6590(3)
C60 C 0.3590(6) 0.9488(12) 0.6272(3)
H57 H 0.3919 0.9992 0.6166
C61 C 0.3040(7) 0.8906(12) 0.6132(3)
H58 H 0.3005 0.9019 0.5919
C62 C 0.5982(7) 1.0661(14) 0.6239(3)
H59 H 0.6349 1.0221 0.6136
C63 C 0.5426(8) 1.0094(14) 0.6409(3)
H60 H 0.5401 0.9260 0.6408
C64 C 0.4923(6) 1.0722(13) 0.6574(3)
C65 C 0.4929(6) 1.1905(11) 0.6541(3)
H61 H 0.4555 1.2357 0.6637
C66 C 0.5444(8) 1.2455(11) 0.6377(3)
H62 H 0.5432 1.3288 0.6366
Cu3B Cu 0.68208(10) 0.26654(14) 0.60073(4)
Cu3B_2 Cu 0.68208(10) 1.26654(14) 0.60073(4)
N12B N 0.1110(6) 0.6397(10) 0.5756(2)
N14B N 0.0978(6) 0.8127(10) 0.6228(2)
O7 O 0.4782(6) 0.3001(11) 0.3118(3)
O8 O 0.3877(5) 0.3742(9) 0.3362(3)
O9 O 0.3697(7) 0.2547(11) 0.2985(3)
N15 N 0.4103(8) 0.3075(11) 0.3150(3)
O10 O 0.6677(6) 0.7438(11) 0.3965(3)
O11 O 0.5575(7) 0.7967(11) 0.3839(3)
O12 O 0.6493(6) 0.8696(9) 0.3597(2)
N16 N 0.6270(7) 0.8035(11) 0.3793(3)
O13 O 0.3680(11) 0.9009(13) 0.4405(4)
O14 O 0.3688(9) 0.7226(11) 0.4518(3)
O15 O 0.2792(8) 0.8286(11) 0.4654(3)
N17 N 0.3400(12) 0.8203(17) 0.4516(3)
O16 O 0.7589(6) 0.3078(12) 0.2275(3)
O17 O 0.6823(8) 0.2049(11) 0.2548(4)
O18 O 0.6729(7) 0.3907(11) 0.2545(3)
N18 N 0.7013(9) 0.2999(13) 0.2440(4)
O19 O 0.4857(9) 0.7129(15) 0.6364(4)
O20 O 0.5959(8) 0.7112(14) 0.6172(4)
O21 O 0.5517(8) 0.5521(11) 0.6415(3)
N19 N 0.5487(11) 0.6594(16) 0.6331(4)
O22 O 0.0331(10) 0.0676(16) 0.0722(4)
O23 O 0.0904(10) 0.1419(16) 0.0335(4)
O24 O 0.1109(14) -0.0359(16) 0.0493(3)
N20 N 0.0784(14) 0.0587(19) 0.0514(4)
O25 O 0.1007(8) 0.3584(13) 0.1117(3)
N21 N 0.1997(9) 0.2556(12) 0.0997(4)
C67 C 0.1394(12) 0.3010(19) 0.0925(5)
H63 H 0.1220 0.2928 0.0723
C68 C 0.2521(12) 0.2041(19) 0.0795(5)
H64 H 0.2305 0.1983 0.0592
H65 H 0.2653 0.1254 0.0867
H66 H 0.2966 0.2532 0.0787
C69 C 0.2283(13) 0.2544(19) 0.1322(5)
H67 H 0.2108 0.3247 0.1428
H68 H 0.2825 0.2537 0.1320
H69 H 0.2101 0.1841 0.1426
O26 O 0.0839(9) 0.4710(13) 0.1645(4)
O27 O 0.4404(10) 0.1258(17) 0.0704(4)
O28 O 0.7348(8) 0.0104(10) 0.0135(3)
O29 O 0.7249(6) 0.4787(8) 0.1823(2)
O30 O 0.9841(6) 0.3674(8) 0.4155(2)
O31 O 0.5530(5) 0.1294(7) 0.28247(19)
loop_
_geom_bond_atom_site_label_1
_geom_bond_atom_site_label_2
_geom_bond_site_symmetry_1
_geom_bond_site_symmetry_2
Cu1 O1 1_555 1_555
Cu2 O3 1_555 1_555
Cu3 O5 1_555 1_555
S1 C3 1_555 1_555
S2 C13 1_555 1_555
S3 C26 1_555 1_555
S4 C36 1_555 1_555
S5 C49 1_555 1_555
S6 C59 1_555 1_555
O1 C21 1_555 1_555
O2 Cu1 1_555 1_555
O3 C44 1_555 1_555
O4 Cu2 1_555 1_555
O6 Cu3 1_555 1_555
O7 N15 1_555 1_555
O8 N15 1_555 1_555
O9 N15 1_555 1_555
O10 N16 1_555 1_555
O11 N16 1_555 1_555
O12 N16 1_555 1_555
O13 N17 1_555 1_555
O14 N17 1_555 1_555
O15 N17 1_555 1_555
O16 N18 1_555 1_555
O17 N18 1_555 1_555
O18 N18 1_555 1_555
O19 N19 1_555 1_555
O20 N19 1_555 1_555
O21 N19 1_555 1_555
O22 N20 1_555 1_555
O23 N20 1_555 1_555
O24 N20 1_555 1_555
O25 C67 1_555 1_555
N1 Cu1 1_555 1_555
N2 C6 1_555 1_555
N3 Cu1 1_555 1_555
N4 C16 1_555 1_555
N5 C21 1_555 1_555
N6 Cu2 1_555 1_555
N7 C29 1_555 1_555
N8 Cu2 1_555 1_555
N9 C39 1_555 1_555
N10 C44 1_555 1_555
N11 Cu3 1_555 1_555
N12 C52 1_555 1_555
N13 Cu3 1_555 1_555
N14 C62 1_555 1_555
N21 C67 1_555 1_555
C1 N1 1_555 1_555
H1 C1 1_555 1_555
C2 C1 1_555 1_555
H2 C2 1_555 1_555
C3 C2 1_555 1_555
C4 C3 1_555 1_555
H3 C4 1_555 1_555
C5 N1 1_555 1_555
H4 C5 1_555 1_555
C6 H5 1_555 1_555
C7 C6 1_555 1_555
H6 C7 1_555 1_555
C8 S1 1_555 1_555
C9 C8 1_555 1_555
H7 C9 1_555 1_555
C10 N2 1_555 1_555
H8 C10 1_555 1_555
C11 N3 1_555 1_555
H9 C11 1_555 1_555
C12 C11 1_555 1_555
H10 C12 1_555 1_555
C13 C12 1_555 1_555
C14 C13 1_555 1_555
H11 C14 1_555 1_555
C15 N3 1_555 1_555
H12 C15 1_555 1_555
C16 H13 1_555 1_555
C17 C16 1_555 1_555
H14 C17 1_555 1_555
C18 S2 1_555 1_555
C19 C18 1_555 1_555
H15 C19 1_555 1_555
C20 N4 1_555 1_555
H16 C20 1_555 1_555
C21 H17 1_555 1_555
C22 N5 1_555 1_555
H18 C22 1_555 1_555
H19 C22 1_555 1_555
H20 C22 1_555 1_555
C23 N5 1_555 1_555
H21 C23 1_555 1_555
H22 C23 1_555 1_555
H23 C23 1_555 1_555
C24 N6 1_555 1_555
H24 C24 1_555 1_555
C25 C24 1_555 1_555
H25 C25 1_555 1_555
C26 C25 1_555 1_555
C27 C26 1_555 1_555
H26 C27 1_555 1_555
C28 N6 1_555 1_555
H27 C28 1_555 1_555
C29 H28 1_555 1_555
C30 C29 1_555 1_555
H29 C30 1_555 1_555
C31 S3 1_555 1_555
C32 C31 1_555 1_555
H30 C32 1_555 1_555
C33 N7 1_555 1_555
H31 C33 1_555 1_555
C34 N8 1_555 1_555
H32 C34 1_555 1_555
C35 C34 1_555 1_555
H33 C35 1_555 1_555
C36 C35 1_555 1_555
C37 C36 1_555 1_555
H34 C37 1_555 1_555
C38 N8 1_555 1_555
H35 C38 1_555 1_555
C39 H36 1_555 1_555
C40 C39 1_555 1_555
H37 C40 1_555 1_555
C41 S4 1_555 1_555
C42 C41 1_555 1_555
H38 C42 1_555 1_555
C43 N9 1_555 1_555
H39 C43 1_555 1_555
C44 H40 1_555 1_555
C45 N10 1_555 1_555
H41 C45 1_555 1_555
H42 C45 1_555 1_555
H43 C45 1_555 1_555
C46 N10 1_555 1_555
H44 C46 1_555 1_555
H45 C46 1_555 1_555
H46 C46 1_555 1_555
C47 N11 1_555 1_555
H47 C47 1_555 1_555
C48 C47 1_555 1_555
H48 C48 1_555 1_555
C49 C48 1_555 1_555
C50 C49 1_555 1_555
H49 C50 1_555 1_555
C51 N11 1_555 1_555
H50 C51 1_555 1_555
C52 H51 1_555 1_555
C53 C52 1_555 1_555
H52 C53 1_555 1_555
C54 S5 1_555 1_555
C55 C54 1_555 1_555
H53 C55 1_555 1_555
C56 N12 1_555 1_555
H54 C56 1_555 1_555
C57 N13 1_555 1_555
H55 C57 1_555 1_555
C58 C57 1_555 1_555
H56 C58 1_555 1_555
C59 C58 1_555 1_555
C60 C59 1_555 1_555
H57 C60 1_555 1_555
C61 N13 1_555 1_555
H58 C61 1_555 1_555
C62 H59 1_555 1_555
C63 C62 1_555 1_555
H60 C63 1_555 1_555
C64 S6 1_555 1_555
C65 C64 1_555 1_555
H61 C65 1_555 1_555
C66 N14 1_555 1_555
H62 C66 1_555 1_555
C67 H63 1_555 1_555
C68 N21 1_555 1_555
H64 C68 1_555 1_555
H65 C68 1_555 1_555
H66 C68 1_555 1_555
C69 N21 1_555 1_555
H67 C69 1_555 1_555
H68 C69 1_555 1_555
H69 C69 1_555 1_555
Cu1B N2 1_555 1_555
Cu1B_2 N4 1_555 1_555
Cu2B N7 1_555 1_555
Cu2B_2 N9 1_555 1_555
Cu3B N12 1_555 1_555
Cu3B_2 N14 1_555 1_555
N2B Cu1 1_555 1_555
N4B Cu1 1_555 1_555
N7B Cu2 1_555 1_555
N9B Cu2 1_555 1_555
N12B Cu3 1_555 1_555
N14B Cu3 1_555 1_555
C4 C5 1_555 1_555
C7 C8 1_555 1_555
C9 C10 1_555 1_555
C14 C15 1_555 1_555
C17 C18 1_555 1_555
C19 C20 1_555 1_555
C27 C28 1_555 1_555
C30 C31 1_555 1_555
C32 C33 1_555 1_555
C37 C38 1_555 1_555
C40 C41 1_555 1_555
C42 C43 1_555 1_555
C50 C51 1_555 1_555
C53 C54 1_555 1_555
C55 C56 1_555 1_555
C60 C61 1_555 1_555
C63 C64 1_555 1_555
C65 C66 1_555 1_555

#END
