
#######################################################################
#
#                 Cambridge Crystallographic Data Centre
#                                CCDC 
#
#######################################################################
#
# If this CIF has been generated from an entry in the Cambridge 
# Structural Database, then it will include bibliographic, chemical, 
# crystal, experimental, refinement or atomic coordinate data resulting 
# from the CCDC's data processing and validation procedures.
#
#######################################################################

data_NINDEV
_symmetry_cell_setting           triclinic
_symmetry_space_group_name_H-M   'P -1'
_symmetry_Int_Tables_number      2
_space_group_name_Hall           '-P 1'
loop_
_symmetry_equiv_pos_site_id
_symmetry_equiv_pos_as_xyz
1 x,y,z
2 -x,-y,-z
_cell_length_a                   13.3422(3)
_cell_length_b                   14.4554(3)
_cell_length_c                   14.7576(3)
_cell_angle_alpha                97.852(2)
_cell_angle_beta                 94.281(2)
_cell_angle_gamma                98.419(2)
_cell_volume                     2776.14
loop_
_atom_site_label
_atom_site_type_symbol
_atom_site_fract_x
_atom_site_fract_y
_atom_site_fract_z
C1 C 0.4968(2) 0.0590(2) 0.23034(18)
C2 C 0.5026(2) 0.2869(2) 0.1690(2)
H1 H 0.5358 0.3428 0.1531
C3 C 0.3981(3) 0.2665(3) 0.1742(2)
H2 H 0.3500 0.3051 0.1629
C4 C 0.3804(2) 0.1790(3) 0.1990(2)
H3 H 0.3175 0.1460 0.2080
C5 C 0.6423(2) -0.0079(2) 0.04982(19)
H4 H 0.6962 0.0035 0.0142
C6 C 0.5727(3) -0.0915(2) 0.0383(2)
H5 H 0.5713 -0.1448 -0.0052
C7 C 0.5076(2) -0.0791(2) 0.1033(2)
H6 H 0.4525 -0.1228 0.1130
C8 C 0.7198(2) 0.1223(2) 0.38389(19)
H7 H 0.7883 0.1475 0.3988
C9 C 0.6572(3) 0.0805(3) 0.4435(2)
H8 H 0.6753 0.0733 0.5039
C10 C 0.5646(3) 0.0524(3) 0.3954(2)
H9 H 0.5067 0.0221 0.4168
C11 C 0.7305(2) 0.2856(2) -0.06459(19)
C12 C 0.6970(2) 0.3601(2) -0.0123(2)
C13 C 0.6857(3) 0.4556(2) -0.0318(2)
C14 C 0.6173(4) 0.5941(3) 0.0164(3)
H10 H 0.5655 0.5888 -0.0346
H11 H 0.6789 0.6316 0.0021
C15 C 0.5820(5) 0.6397(4) 0.1026(4)
H12 H 0.6339 0.6447 0.1525
H13 H 0.5210 0.6021 0.1160
H14 H 0.5685 0.7017 0.0949
C16 C 0.7630(2) 0.2720(2) -0.1584(2)
C17 C 0.7359(4) 0.3006(4) -0.3108(3)
H15 H 0.7986 0.3426 -0.3147
H16 H 0.7458 0.2362 -0.3310
C18 C 0.6537(6) 0.3246(7) -0.3677(4)
H17 H 0.6696 0.3186 -0.4304
H18 H 0.6448 0.3886 -0.3473
H19 H 0.5921 0.2826 -0.3632
C19 C 0.9696(2) 0.0947(2) 0.12186(19)
C20 C 1.0559(2) 0.0981(2) 0.0646(2)
C21 C 1.1370(3) 0.1805(3) -0.0449(3)
H20 H 1.1417 0.1241 -0.0872
H21 H 1.2002 0.1986 -0.0054
C22 C 1.1167(4) 0.2593(4) -0.0966(4)
H22 H 1.0538 0.2404 -0.1352
H23 H 1.1712 0.2734 -0.1340
H24 H 1.1121 0.3145 -0.0539
C23 C 0.9494(2) 0.0497(2) 0.1976(2)
C24 C 1.0045(3) -0.0156(4) 0.2417(3)
C25 C 1.0147(6) -0.1062(6) 0.3683(5)
H25 H 0.9683 -0.1313 0.4098
H26 H 1.0267 -0.1573 0.3226
C26 C 1.1033(6) -0.0581(10) 0.4146(6)
H27 H 1.0888 -0.0073 0.4581
H28 H 1.1466 -0.0329 0.3718
H29 H 1.1370 -0.1003 0.4464
C27 C 0.6810(2) 0.3954(2) 0.31468(19)
C28 C 0.6226(3) 0.3552(3) 0.3779(2)
H30 H 0.6391 0.3012 0.3994
C29 C 0.5407(3) 0.3941(3) 0.4093(3)
H31 H 0.5026 0.3667 0.4518
C30 C 0.5157(4) 0.4739(4) 0.3773(3)
H32 H 0.4604 0.5003 0.3980
C31 C 0.5726(4) 0.5145(3) 0.3147(3)
H33 H 0.5558 0.5686 0.2937
C32 C 0.6551(3) 0.4754(3) 0.2825(3)
H34 H 0.6926 0.5028 0.2397
C33 C 0.8634(2) 0.3285(2) 0.3723(2)
C34 C 0.9393(3) 0.2731(3) 0.3648(3)
H35 H 0.9440 0.2361 0.3090
C35 C 1.0085(3) 0.2719(3) 0.4398(3)
H36 H 1.0577 0.2325 0.4345
C36 C 1.0047(3) 0.3287(3) 0.5215(3)
H37 H 1.0515 0.3284 0.5714
C37 C 0.9324(4) 0.3852(4) 0.5293(3)
H38 H 0.9305 0.4243 0.5845
C38 C 0.8610(3) 0.3856(3) 0.4556(2)
H39 H 0.8114 0.4244 0.4622
C39 C 0.8644(2) 0.4121(2) 0.2160(2)
C40 C 0.8926(3) 0.5061(2) 0.2570(2)
H40 H 0.8629 0.5287 0.3088
C41 C 0.9645(3) 0.5658(3) 0.2211(3)
H41 H 0.9824 0.6285 0.2487
C42 C 1.0099(3) 0.5334(3) 0.1447(3)
H42 H 1.0581 0.5740 0.1207
C43 C 0.9833(3) 0.4406(3) 0.1043(3)
H43 H 1.0140 0.4184 0.0529
C44 C 0.9110(3) 0.3796(2) 0.1398(2)
H44 H 0.8939 0.3168 0.1123
N1 N 0.54873(17) 0.21588(17) 0.18980(15)
N2 N 0.47205(17) 0.14847(18) 0.20835(16)
N3 N 0.62142(17) 0.05262(16) 0.11789(15)
N4 N 0.53737(17) 0.00890(17) 0.15198(16)
N5 N 0.66861(17) 0.12145(17) 0.30308(15)
N6 N 0.57219(18) 0.07677(18) 0.31011(15)
N7 N 0.68255(19) 0.33504(17) 0.07100(16)
N8 N 0.70578(18) 0.24827(16) 0.06789(15)
N9 N 0.73575(18) 0.21595(17) -0.01329(15)
N10 N 0.89382(18) 0.14460(17) 0.10669(16)
N11 N 0.83138(17) 0.13036(16) 0.17170(15)
N12 N 0.8625(2) 0.07313(19) 0.22758(17)
O1 O 0.31298(17) -0.02984(19) 0.17298(17)
O2 O 0.34445(19) 0.0404(2) 0.33390(17)
O3 O 0.4143(2) -0.10051(19) 0.27947(19)
O4 O 0.7170(3) 0.4895(2) -0.0955(2)
O5 O 0.6366(2) 0.50128(17) 0.03148(18)
O6 O 0.83153(19) 0.22937(18) -0.17823(16)
O7 O 0.7084(2) 0.3106(2) -0.21666(15)
O8 O 1.12189(18) 0.05011(18) 0.06540(17)
O9 O 1.0515(3) 0.1635(3) 0.0095(2)
O10 O 1.0617(3) -0.0612(3) 0.2060(2)
O11 O 0.9755(3) -0.0274(3) 0.3241(2)
Na1 Na 0.84596(9) 0.10541(9) -0.08653(9)
S1 S 0.37705(6) -0.01745(6) 0.25792(5)
Ru1 Ru 0.696705(14) 0.184404(13) 0.185838(12)
P1 P 0.77713(5) 0.32919(5) 0.26896(4)
O1A O 0.68702(17) 0.02984(19) -0.17298(17)
O8A O 0.87811(18) -0.05011(18) -0.06540(17)
O10A O 0.9383(3) 0.0612(3) -0.2060(2)
Na1A Na 0.15404(9) -0.10541(9) 0.08653(9)
Na1A_2 Na 1.15404(9) -0.10541(9) 0.08653(9)
C45 C 0.7051(8) 0.8635(6) 0.2840(6)
H45 H 0.7488 0.8550 0.2357
H46 H 0.7211 0.9272 0.3155
H47 H 0.6354 0.8514 0.2582
C46 C 0.7204(6) 0.7979(5) 0.3486(7)
C47 C 0.6609(14) 0.8008(10) 0.4247(10)
H48 H 0.6778 0.7553 0.4625
H49 H 0.5900 0.7862 0.4028
H50 H 0.6748 0.8629 0.4601
O12 O 0.7726(6) 0.7378(6) 0.3371(7)
C48 C 0.2651(11) 0.3048(17) 0.3870(14)
H51 H 0.2624 0.2375 0.3801
H52 H 0.2375 0.3260 0.4430
H53 H 0.3345 0.3349 0.3891
C49 C 0.2048(15) 0.3296(14) 0.3084(14)
C50 C 0.1691(11) 0.4090(15) 0.2702(16)
H54 H 0.1260 0.3855 0.2143
H55 H 0.2266 0.4519 0.2575
H56 H 0.1315 0.4416 0.3138
O13 O 0.1699(9) 0.2552(12) 0.2650(12)
loop_
_geom_bond_atom_site_label_1
_geom_bond_atom_site_label_2
_geom_bond_site_symmetry_1
_geom_bond_site_symmetry_2
C1 N2 1_555 1_555
C2 H1 1_555 1_555
C3 C2 1_555 1_555
H2 C3 1_555 1_555
C4 C3 1_555 1_555
H3 C4 1_555 1_555
C5 H4 1_555 1_555
C6 C5 1_555 1_555
H5 C6 1_555 1_555
C7 C6 1_555 1_555
H6 C7 1_555 1_555
C8 H7 1_555 1_555
C9 C8 1_555 1_555
H8 C9 1_555 1_555
C10 C9 1_555 1_555
H9 C10 1_555 1_555
C11 C12 1_555 1_555
C12 C13 1_555 1_555
C13 O4 1_555 1_555
C14 H10 1_555 1_555
H11 C14 1_555 1_555
C15 C14 1_555 1_555
H12 C15 1_555 1_555
H13 C15 1_555 1_555
H14 C15 1_555 1_555
C16 C11 1_555 1_555
C17 H15 1_555 1_555
H16 C17 1_555 1_555
C18 C17 1_555 1_555
H17 C18 1_555 1_555
H18 C18 1_555 1_555
H19 C18 1_555 1_555
C19 C20 1_555 1_555
C20 O8 1_555 1_555
C21 H20 1_555 1_555
H21 C21 1_555 1_555
C22 C21 1_555 1_555
H22 C22 1_555 1_555
H23 C22 1_555 1_555
H24 C22 1_555 1_555
C23 C19 1_555 1_555
C24 C23 1_555 1_555
C25 H25 1_555 1_555
H26 C25 1_555 1_555
C26 C25 1_555 1_555
H27 C26 1_555 1_555
H28 C26 1_555 1_555
H29 C26 1_555 1_555
C27 C28 1_555 1_555
C28 H30 1_555 1_555
C29 C28 1_555 1_555
H31 C29 1_555 1_555
C30 C29 1_555 1_555
H32 C30 1_555 1_555
C31 C30 1_555 1_555
H33 C31 1_555 1_555
C32 C27 1_555 1_555
H34 C32 1_555 1_555
C33 C34 1_555 1_555
C34 H35 1_555 1_555
C35 C34 1_555 1_555
H36 C35 1_555 1_555
C36 C35 1_555 1_555
H37 C36 1_555 1_555
C37 C36 1_555 1_555
H38 C37 1_555 1_555
C38 C33 1_555 1_555
H39 C38 1_555 1_555
C39 C40 1_555 1_555
C40 H40 1_555 1_555
C41 C40 1_555 1_555
H41 C41 1_555 1_555
C42 C41 1_555 1_555
H42 C42 1_555 1_555
C43 C42 1_555 1_555
H43 C43 1_555 1_555
C44 C39 1_555 1_555
H44 C44 1_555 1_555
N1 C2 1_555 1_555
N2 C4 1_555 1_555
N3 C5 1_555 1_555
N4 C1 1_555 1_555
N5 C8 1_555 1_555
N6 C1 1_555 1_555
N7 C12 1_555 1_555
N8 N7 1_555 1_555
N9 C11 1_555 1_555
N10 C19 1_555 1_555
N11 N10 1_555 1_555
N12 C23 1_555 1_555
O1 S1 1_555 1_555
O2 S1 1_555 1_555
O3 S1 1_555 1_555
O5 C13 1_555 1_555
O6 C16 1_555 1_555
O7 C16 1_555 1_555
O8 Na1A_2 1_555 1_555
O9 C20 1_555 1_555
O10 C24 1_555 1_555
O11 C24 1_555 1_555
Na1 N9 1_555 1_555
S1 C1 1_555 1_555
Ru1 N1 1_555 1_555
P1 C27 1_555 1_555
C45 H45 1_555 1_555
H46 C45 1_555 1_555
H47 C45 1_555 1_555
C46 C45 1_555 1_555
C47 C46 1_555 1_555
H48 C47 1_555 1_555
H49 C47 1_555 1_555
H50 C47 1_555 1_555
O12 C46 1_555 1_555
C48 H51 1_555 1_555
H52 C48 1_555 1_555
H53 C48 1_555 1_555
C49 C48 1_555 1_555
C50 C49 1_555 1_555
H54 C50 1_555 1_555
H55 C50 1_555 1_555
H56 C50 1_555 1_555
O13 C49 1_555 1_555
O1A Na1 1_555 1_555
O8A Na1 1_555 1_555
O10A Na1 1_555 1_555
Na1A O1 1_555 1_555
Na1A_2 O10 1_555 1_555
C7 N4 1_555 1_555
C10 N6 1_555 1_555
C14 O5 1_555 1_555
C17 O7 1_555 1_555
C21 O9 1_555 1_555
C25 O11 1_555 1_555
C31 C32 1_555 1_555
C33 P1 1_555 1_555
C37 C38 1_555 1_555
C39 P1 1_555 1_555
C43 C44 1_555 1_555
N1 N2 1_555 1_555
N3 N4 1_555 1_555
N3 Ru1 1_555 1_555
N5 N6 1_555 1_555
N5 Ru1 1_555 1_555
N8 N9 1_555 1_555
N8 Ru1 1_555 1_555
N10 Na1 1_555 1_555
N11 N12 1_555 1_555
N11 Ru1 1_555 1_555
O6 Na1 1_555 1_555
O9 Na1 1_555 1_555
Ru1 P1 1_555 1_555

#END
