
#######################################################################
#
#                 Cambridge Crystallographic Data Centre
#                                CCDC 
#
#######################################################################
#
# If this CIF has been generated from an entry in the Cambridge 
# Structural Database, then it will include bibliographic, chemical, 
# crystal, experimental, refinement or atomic coordinate data resulting 
# from the CCDC's data processing and validation procedures.
#
#######################################################################

data_NINDUJ
_symmetry_cell_setting           orthorhombic
_symmetry_space_group_name_H-M   'P c c n'
_symmetry_Int_Tables_number      56
_space_group_name_Hall           '-P 2ab 2ac'
loop_
_symmetry_equiv_pos_site_id
_symmetry_equiv_pos_as_xyz
1 x,y,z
2 1/2-x,1/2-y,z
3 1/2+x,-y,1/2-z
4 -x,1/2+y,1/2-z
5 -x,-y,-z
6 1/2+x,1/2+y,-z
7 1/2-x,y,1/2+z
8 x,1/2-y,1/2+z
_cell_length_a                   13.839(14)
_cell_length_b                   14.058(16)
_cell_length_c                   7.763(6)
_cell_angle_alpha                90
_cell_angle_beta                 90
_cell_angle_gamma                90
_cell_volume                     1510.28
loop_
_atom_site_label
_atom_site_type_symbol
_atom_site_fract_x
_atom_site_fract_y
_atom_site_fract_z
Pb1 Pb 0.2500 0.2500 0.58529(9)
S1 S 0.1636(2) 0.1029(2) 0.3749(6)
S2 S 0.0760(3) 0.2966(3) 0.3970(6)
N1 N 0.5202(7) 0.1407(8) 0.809(2)
C1 C 0.437(1) 0.174(1) 0.852(2)
C2 C 0.534(1) 0.041(1) 0.750(3)
C3 C 0.631(1) 0.047(1) 0.658(4)
C4 C 0.683(1) 0.126(1) 0.737(4)
C5 C 0.6085(9) 0.198(1) 0.788(2)
H1 H 0.483(1) 0.021(1) 0.675(3)
H2 H 0.538(1) -0.001(1) 0.846(3)
H3 H 0.667(1) -0.011(1) 0.674(4)
H4 H 0.620(1) 0.057(1) 0.538(4)
H5 H 0.720(1) 0.105(1) 0.834(4)
H6 H 0.725(1) 0.153(1) 0.652(4)
H7 H 0.6270(9) 0.227(1) 0.894(2)
H8 H 0.5992(9) 0.245(1) 0.701(2)
Pb1F Pb 0.2500 0.2500 0.08529(9)
S1A S 0.3364(2) 0.3971(2) 0.3749(6)
S2A S 0.4240(3) 0.2034(3) 0.3970(6)
Pb1F_2 Pb 0.2500 0.2500 1.08529(9)
S1F S 0.3364(2) 0.1029(2) 0.8749(6)
S1G S 0.1636(2) 0.3971(2) 0.8749(6)
S2F S 0.4240(3) 0.2966(3) 0.8970(6)
S2G S 0.0760(3) 0.2034(3) 0.8970(6)
C1A C 0.063(1) 0.326(1) 0.852(2)
N1A N -0.0202(7) 0.3593(8) 0.809(2)
C2A C -0.034(1) 0.459(1) 0.750(3)
C3A C -0.131(1) 0.453(1) 0.658(4)
C4A C -0.183(1) 0.374(1) 0.737(4)
C5A C -0.1085(9) 0.302(1) 0.788(2)
H7A H -0.1270(9) 0.273(1) 0.894(2)
H8A H -0.0992(9) 0.255(1) 0.701(2)
H5A H -0.220(1) 0.395(1) 0.834(4)
H6A H -0.225(1) 0.347(1) 0.652(4)
H3A H -0.167(1) 0.511(1) 0.674(4)
H4A H -0.120(1) 0.443(1) 0.538(4)
H1A H 0.017(1) 0.479(1) 0.675(3)
H2A H -0.038(1) 0.501(1) 0.846(3)
loop_
_geom_bond_atom_site_label_1
_geom_bond_atom_site_label_2
_geom_bond_site_symmetry_1
_geom_bond_site_symmetry_2
Pb1 S1 1_555 1_555
S1 Pb1F 1_555 1_555
S2 Pb1 1_555 1_555
N1 C1 1_555 1_555
C1 S1F 1_555 1_555
C2 N1 1_555 1_555
C3 C2 1_555 1_555
C4 C3 1_555 1_555
C5 N1 1_555 1_555
H1 C2 1_555 1_555
H2 C2 1_555 1_555
H3 C3 1_555 1_555
H4 C3 1_555 1_555
H5 C4 1_555 1_555
H6 C4 1_555 1_555
H7 C5 1_555 1_555
H8 C5 1_555 1_555
Pb1F Pb1 1_555 1_555
S1A Pb1 1_555 1_555
S2A Pb1 1_555 1_555
Pb1F_2 Pb1 1_555 1_555
S1F Pb1 1_555 1_555
S1G Pb1 1_555 1_555
S2F Pb1 1_555 1_555
S2G Pb1 1_555 1_555
C1A S1G 1_555 1_555
N1A C1A 1_555 1_555
C2A N1A 1_555 1_555
C3A C2A 1_555 1_555
C4A C3A 1_555 1_555
C5A N1A 1_555 1_555
H7A C5A 1_555 1_555
H8A C5A 1_555 1_555
H5A C4A 1_555 1_555
H6A C4A 1_555 1_555
H3A C3A 1_555 1_555
H4A C3A 1_555 1_555
H1A C2A 1_555 1_555
H2A C2A 1_555 1_555
S2 Pb1F 1_555 1_555
C1 S2F 1_555 1_555
C4 C5 1_555 1_555
Pb1F S1A 1_555 1_555
Pb1F S2A 1_555 1_555
Pb1F_2 S1F 1_555 1_555
Pb1F_2 S1G 1_555 1_555
Pb1F_2 S2F 1_555 1_555
Pb1F_2 S2G 1_555 1_555
S2G C1A 1_555 1_555
C4A C5A 1_555 1_555

#END
