
#######################################################################
#
#                 Cambridge Crystallographic Data Centre
#                                CCDC 
#
#######################################################################
#
# If this CIF has been generated from an entry in the Cambridge 
# Structural Database, then it will include bibliographic, chemical, 
# crystal, experimental, refinement or atomic coordinate data resulting 
# from the CCDC's data processing and validation procedures.
#
#######################################################################

data_NINFUN
_symmetry_cell_setting           monoclinic
_symmetry_space_group_name_H-M   'C 2/c'
_symmetry_Int_Tables_number      15
_space_group_name_Hall           '-C 2yn'
loop_
_symmetry_equiv_pos_site_id
_symmetry_equiv_pos_as_xyz
1 x,y,z
2 -x,y,1/2-z
3 1/2+x,1/2+y,z
4 1/2-x,1/2+y,1/2-z
5 -x,-y,-z
6 x,-y,1/2+z
7 1/2-x,1/2-y,-z
8 1/2+x,1/2-y,1/2+z
_cell_length_a                   25.816(3)
_cell_length_b                   7.5170(10)
_cell_length_c                   10.8930(10)
_cell_angle_alpha                90
_cell_angle_beta                 102.080(10)
_cell_angle_gamma                90
_cell_volume                     2067.07
loop_
_atom_site_label
_atom_site_type_symbol
_atom_site_fract_x
_atom_site_fract_y
_atom_site_fract_z
K1 K 0.5000 0.78027(8) 0.7500
O1 O 0.43070(6) 0.1963(2) 0.39542(14)
O2 O 0.46278(5) 0.01959(18) 0.55496(12)
H1 H 0.5000 0.0000 0.5000
O3 O 0.36598(5) 0.45191(17) 0.45538(11)
O4 O 0.43801(7) 0.5374(2) 0.59395(13)
C1 C 0.38166(6) 0.1634(2) 0.55607(15)
C2 C 0.35393(6) 0.3240(2) 0.53814(16)
C3 C 0.31242(7) 0.3609(3) 0.5971(2)
C4 C 0.29777(9) 0.2294(4) 0.6719(3)
H2 H 0.2695 0.2498 0.7107
C5 C 0.32421(9) 0.0682(3) 0.6902(3)
H3 H 0.3136 -0.0185 0.7408
C6 C 0.36620(7) 0.0367(3) 0.6333(2)
H4 H 0.3844 -0.0707 0.6470
C7 C 0.42797(6) 0.1275(2) 0.49515(16)
C8 C 0.28555(11) 0.5406(4) 0.5818(3)
H5 H 0.3071 0.6255 0.6356
H6 H 0.2516 0.5319 0.6042
H7 H 0.2809 0.5786 0.4961
C9 C 0.41228(7) 0.5420(2) 0.48925(17)
C10 C 0.42553(10) 0.6434(3) 0.3833(2)
H8 H 0.4058 0.7526 0.3724
H9 H 0.4166 0.5739 0.3078
H10 H 0.4628 0.6692 0.4009
O1D O 0.56930(6) -0.1963(2) 0.60458(14)
O2D O 0.53722(5) -0.01959(18) 0.44504(12)
O3D O 0.63402(5) -0.45191(17) 0.54462(11)
O4D O 0.56199(7) -0.5374(2) 0.40605(13)
C1D C 0.61834(6) -0.1634(2) 0.44393(15)
C2D C 0.64607(6) -0.3240(2) 0.46186(16)
C3D C 0.68758(7) -0.3609(3) 0.4029(2)
C4D C 0.70223(9) -0.2294(4) 0.3281(3)
H2D H 0.7305 -0.2498 0.2893
C5D C 0.67579(9) -0.0682(3) 0.3098(3)
H3D H 0.6864 0.0185 0.2592
C6D C 0.63380(7) -0.0367(3) 0.3667(2)
H4D H 0.6156 0.0707 0.3530
C7D C 0.57203(6) -0.1275(2) 0.50485(16)
C8D C 0.71445(11) -0.5406(4) 0.4182(3)
H5D H 0.6929 -0.6255 0.3644
H6D H 0.7484 -0.5319 0.3958
H7D H 0.7191 -0.5786 0.5039
C9D C 0.58772(7) -0.5420(2) 0.51075(17)
C10D C 0.57447(10) -0.6434(3) 0.6167(2)
H8D H 0.5942 -0.7526 0.6276
H9D H 0.5834 -0.5739 0.6922
H10D H 0.5372 -0.6692 0.5991
K1_2 K 0.5000 -0.21973(8) 0.7500
K1D K 0.5000 -0.78027(8) 0.2500
K1D_2 K 0.5000 0.21973(8) 0.2500
O1D_2 O 0.56930(6) 0.8037(2) 0.60458(14)
O1E O 0.43070(6) 0.8037(2) 0.89542(14)
O2_2 O 0.46278(5) 1.01959(18) 0.55496(12)
O2A O 0.53722(5) 1.01959(18) 0.94504(12)
O4A O 0.56199(7) 0.5374(2) 0.90605(13)
loop_
_geom_bond_atom_site_label_1
_geom_bond_atom_site_label_2
_geom_bond_site_symmetry_1
_geom_bond_site_symmetry_2
K1 O4 1_555 1_555
O1 C7 1_555 1_555
O2 H1 1_555 1_555
H1 O2D 1_555 1_555
O3 C2 1_555 1_555
O4 C9 1_555 1_555
C1 C2 1_555 1_555
C2 C3 1_555 1_555
C3 C4 1_555 1_555
C4 H2 1_555 1_555
C5 C4 1_555 1_555
H3 C5 1_555 1_555
C6 C1 1_555 1_555
H4 C6 1_555 1_555
C7 O2 1_555 1_555
C8 C3 1_555 1_555
H5 C8 1_555 1_555
H6 C8 1_555 1_555
H7 C8 1_555 1_555
C9 O3 1_555 1_555
C10 C9 1_555 1_555
H8 C10 1_555 1_555
H9 C10 1_555 1_555
H10 C10 1_555 1_555
O1D C7D 1_555 1_555
O2D C7D 1_555 1_555
O3D C2D 1_555 1_555
O4D C9D 1_555 1_555
C1D C2D 1_555 1_555
C2D C3D 1_555 1_555
C3D C4D 1_555 1_555
C4D H2D 1_555 1_555
C5D C4D 1_555 1_555
H3D C5D 1_555 1_555
C6D C1D 1_555 1_555
H4D C6D 1_555 1_555
C7D C1D 1_555 1_555
C8D C3D 1_555 1_555
H5D C8D 1_555 1_555
H6D C8D 1_555 1_555
H7D C8D 1_555 1_555
C9D O3D 1_555 1_555
C10D C9D 1_555 1_555
H8D C10D 1_555 1_555
H9D C10D 1_555 1_555
H10D C10D 1_555 1_555
K1_2 O2 1_555 1_555
K1D O4D 1_555 1_555
K1D_2 O1 1_555 1_555
O1D_2 K1 1_555 1_555
O1E K1 1_555 1_555
O2_2 K1 1_555 1_555
O2A K1 1_555 1_555
O4A K1 1_555 1_555
C1 C7 1_555 1_555
C5 C6 1_555 1_555
O1D K1_2 1_555 1_555
O2D K1D_2 1_555 1_555
C5D C6D 1_555 1_555

#END
