
#######################################################################
#
#                 Cambridge Crystallographic Data Centre
#                                CCDC 
#
#######################################################################
#
# If this CIF has been generated from an entry in the Cambridge 
# Structural Database, then it will include bibliographic, chemical, 
# crystal, experimental, refinement or atomic coordinate data resulting 
# from the CCDC's data processing and validation procedures.
#
#######################################################################

data_NINHIB
_symmetry_cell_setting           monoclinic
_symmetry_space_group_name_H-M   'P 21/c'
_symmetry_Int_Tables_number      14
_space_group_name_Hall           '-P 2ybc'
loop_
_symmetry_equiv_pos_site_id
_symmetry_equiv_pos_as_xyz
1 x,y,z
2 x,1/2-y,1/2+z
3 -x,-y,-z
4 -x,1/2+y,1/2-z
_cell_length_a                   9.5444(14)
_cell_length_b                   18.787(3)
_cell_length_c                   8.6969(14)
_cell_angle_alpha                90
_cell_angle_beta                 90.325(3)
_cell_angle_gamma                90
_cell_volume                     1559.42
loop_
_atom_site_label
_atom_site_type_symbol
_atom_site_fract_x
_atom_site_fract_y
_atom_site_fract_z
Ag1 Ag 0.87458(7) 0.05317(3) 0.43725(10)
N1 N 0.2775(6) -0.1171(3) 0.3265(7)
N2 N 0.7518(8) -0.0377(4) 0.3662(10)
N3 N 0.0494(10) 0.0320(5) 0.2154(12)
N4 N 0.0363(6) -0.1571(3) 0.5083(8)
C1 C -0.0975(8) -0.1752(4) 0.5418(9)
H1 H -0.1547 -0.1407 0.5932
C2 C -0.1557(9) -0.2397(5) 0.5066(11)
H2 H -0.2499 -0.2507 0.5366
C3 C -0.0754(10) -0.2893(5) 0.4263(11)
H3 H -0.1144 -0.3343 0.3962
C4 C 0.0614(9) -0.2719(4) 0.3911(10)
H4 H 0.1192 -0.3055 0.3377
C5 C 0.1156(7) -0.2060(3) 0.4327(8)
C6 C 0.2672(8) -0.1865(4) 0.4047(9)
H5 H 0.3103 -0.2225 0.3425
H6 H 0.3165 -0.1844 0.5011
C7 C 0.4108(8) -0.0815(4) 0.3584(9)
H7 H 0.4072 -0.0346 0.3148
H8 H 0.4209 -0.0763 0.4677
C8 C 0.5419(9) -0.1197(5) 0.2963(11)
H9 H 0.5340 -0.1257 0.1870
H10 H 0.5507 -0.1659 0.3426
C9 C 0.6666(9) -0.0759(5) 0.3337(10)
C10 C 0.2407(8) -0.1232(4) 0.1642(8)
H11 H 0.3109 -0.1512 0.1137
H12 H 0.1533 -0.1482 0.1553
C11 C 0.2274(9) -0.0526(4) 0.0819(9)
H13 H 0.1974 -0.0608 -0.0221
H14 H 0.3176 -0.0300 0.0788
C12 C 0.1279(9) -0.0052(5) 0.1570(10)
Ag1B Ag 1.12542(7) -0.05317(3) 0.56275(10)
N3_2 N 1.0494(10) 0.0320(5) 0.2154(12)
N4B N 0.9637(6) 0.1571(3) 0.4917(8)
Ag1_2 Ag -0.12542(7) 0.05317(3) 0.43725(10)
Ag1B_2 Ag 0.12542(7) -0.05317(3) 0.56275(10)
Cl1 Cl 0.4864(2) 0.13586(12) 0.1979(2)
O1 O 0.4636(11) 0.1882(7) 0.0903(16)
O2 O 0.6312(8) 0.1294(5) 0.2321(9)
O3 O 0.462(2) 0.0775(10) 0.0912(18)
O4 O 0.4017(12) 0.1204(10) 0.3189(14)
O5? O 0.458(4) 0.2059(13) 0.300(4)
loop_
_geom_bond_atom_site_label_1
_geom_bond_atom_site_label_2
_geom_bond_site_symmetry_1
_geom_bond_site_symmetry_2
Ag1 N2 1_555 1_555
N1 C6 1_555 1_555
N2 C9 1_555 1_555
N3 C12 1_555 1_555
N4 C1 1_555 1_555
C1 H1 1_555 1_555
C2 C1 1_555 1_555
H2 C2 1_555 1_555
C3 C2 1_555 1_555
H3 C3 1_555 1_555
C4 C3 1_555 1_555
H4 C4 1_555 1_555
C5 N4 1_555 1_555
C6 C5 1_555 1_555
H5 C6 1_555 1_555
H6 C6 1_555 1_555
C7 N1 1_555 1_555
H7 C7 1_555 1_555
H8 C7 1_555 1_555
C8 C7 1_555 1_555
H9 C8 1_555 1_555
H10 C8 1_555 1_555
C9 C8 1_555 1_555
C10 N1 1_555 1_555
H11 C10 1_555 1_555
H12 C10 1_555 1_555
C11 C10 1_555 1_555
H13 C11 1_555 1_555
H14 C11 1_555 1_555
C12 C11 1_555 1_555
Cl1 O1 1_555 1_555
O2 Cl1 1_555 1_555
O3 Cl1 1_555 1_555
O4 Cl1 1_555 1_555
Ag1B Ag1 1_555 1_555
N3_2 Ag1 1_555 1_555
N4B Ag1 1_555 1_555
Ag1_2 N3 1_555 1_555
Ag1B_2 N4 1_555 1_555
C4 C5 1_555 1_555
Ag1_2 Ag1B_2 1_555 1_555

#END
