
#######################################################################
#
#                 Cambridge Crystallographic Data Centre
#                                CCDC 
#
#######################################################################
#
# If this CIF has been generated from an entry in the Cambridge 
# Structural Database, then it will include bibliographic, chemical, 
# crystal, experimental, refinement or atomic coordinate data resulting 
# from the CCDC's data processing and validation procedures.
#
#######################################################################

data_NINLAX
_symmetry_cell_setting           orthorhombic
_symmetry_space_group_name_H-M   'P 21 21 21'
_symmetry_Int_Tables_number      19
_space_group_name_Hall           'P 2ac 2ab'
loop_
_symmetry_equiv_pos_site_id
_symmetry_equiv_pos_as_xyz
1 x,y,z
2 1/2-x,-y,1/2+z
3 -x,1/2+y,1/2-z
4 1/2+x,1/2-y,-z
_cell_length_a                   8.5485(14)
_cell_length_b                   12.781(2)
_cell_length_c                   13.333(2)
_cell_angle_alpha                90
_cell_angle_beta                 90
_cell_angle_gamma                90
_cell_volume                     1456.74
loop_
_atom_site_label
_atom_site_type_symbol
_atom_site_fract_x
_atom_site_fract_y
_atom_site_fract_z
Ag1 Ag -0.53559(9) -0.01980(6) 0.62384(6)
N1 N -0.5750(11) 0.1352(6) 0.5422(6)
N2 N -0.5674(7) -0.0551(6) 0.4261(5)
N3 N -0.0398(13) -0.0770(9) 0.2974(9)
N4 N -0.8824(17) -0.3489(8) 0.3310(8)
C1 C -0.5403(15) 0.2285(8) 0.5843(8)
H1 H -0.4973 0.2296 0.6508
C2 C -0.5644(14) 0.3225(8) 0.5352(11)
H2 H -0.5426 0.3878 0.5681
C3 C -0.6201(16) 0.3206(9) 0.4385(11)
H3 H -0.6388 0.3843 0.4023
C4 C -0.6486(13) 0.2242(9) 0.3948(8)
H4 H -0.6820 0.2207 0.3262
C5 C -0.6298(9) 0.1349(7) 0.4478(7)
C6 C -0.6800(11) 0.0302(7) 0.4052(6)
H5 H -0.7799 0.0117 0.4330
H6 H -0.6925 0.0369 0.3339
C7 C -0.4263(9) -0.0410(6) 0.3660(7)
H7 H -0.3993 0.0319 0.3644
H8 H -0.4464 -0.0631 0.2984
C8 C -0.2887(12) -0.1038(9) 0.4088(8)
H9 H -0.2670 -0.0808 0.4760
H10 H -0.3160 -0.1766 0.4114
C9 C -0.1500(14) -0.0903(9) 0.3471(8)
C10 C -0.6351(15) -0.1580(8) 0.4218(7)
H11 H -0.7247 -0.1598 0.4651
H12 H -0.5603 -0.2073 0.4475
C11 C -0.6873(12) -0.1949(8) 0.3132(7)
H13 H -0.7372 -0.1380 0.2787
H14 H -0.5972 -0.2156 0.2751
C12 C -0.7950(12) -0.2823(8) 0.3218(7)
N4C N -0.3824(17) -0.1511(8) 0.6690(8)
Ag1C Ag -1.03559(9) -0.48020(6) 0.37616(6)
O1 O 0.5255(17) 0.0887(11) 0.0953(17)
O2 O 0.3459(13) -0.0106(8) 0.1419(7)
O3 O 0.310(2) 0.1496(11) 0.1502(8)
N5 N 0.3928(10) 0.0773(7) 0.1305(8)
loop_
_geom_bond_atom_site_label_1
_geom_bond_atom_site_label_2
_geom_bond_site_symmetry_1
_geom_bond_site_symmetry_2
Ag1 N1 1_555 1_555
O1 N5 1_555 1_555
O2 N5 1_555 1_555
O3 N5 1_555 1_555
N1 C1 1_555 1_555
N2 C6 1_555 1_555
N3 C9 1_555 1_555
N4 C12 1_555 1_555
C1 H1 1_555 1_555
C2 C1 1_555 1_555
H2 C2 1_555 1_555
C3 C2 1_555 1_555
H3 C3 1_555 1_555
C4 C3 1_555 1_555
H4 C4 1_555 1_555
C5 N1 1_555 1_555
C6 C5 1_555 1_555
H5 C6 1_555 1_555
H6 C6 1_555 1_555
C7 N2 1_555 1_555
H7 C7 1_555 1_555
H8 C7 1_555 1_555
C8 C7 1_555 1_555
H9 C8 1_555 1_555
H10 C8 1_555 1_555
C9 C8 1_555 1_555
C10 N2 1_555 1_555
H11 C10 1_555 1_555
H12 C10 1_555 1_555
C11 C10 1_555 1_555
H13 C11 1_555 1_555
H14 C11 1_555 1_555
C12 C11 1_555 1_555
N4C Ag1 1_555 1_555
Ag1C N4 1_555 1_555
C4 C5 1_555 1_555

#END
