
#######################################################################
#
#                 Cambridge Crystallographic Data Centre
#                                CCDC 
#
#######################################################################
#
# If this CIF has been generated from an entry in the Cambridge 
# Structural Database, then it will include bibliographic, chemical, 
# crystal, experimental, refinement or atomic coordinate data resulting 
# from the CCDC's data processing and validation procedures.
#
#######################################################################

data_NINMOM
_symmetry_cell_setting           monoclinic
_symmetry_space_group_name_H-M   'P 2/a'
_symmetry_Int_Tables_number      13
_space_group_name_Hall           '-P 2ya'
loop_
_symmetry_equiv_pos_site_id
_symmetry_equiv_pos_as_xyz
1 x,y,z
2 1/2-x,y,-z
3 -x,-y,-z
4 1/2+x,-y,z
_cell_length_a                   9.390(1)
_cell_length_b                   7.678(1)
_cell_length_c                   12.992(1)
_cell_angle_alpha                90
_cell_angle_beta                 104.12(1)
_cell_angle_gamma                90
_cell_volume                     908.377
loop_
_atom_site_label
_atom_site_type_symbol
_atom_site_fract_x
_atom_site_fract_y
_atom_site_fract_z
Ce1 Ce 0.27758(3) 0.22888(3) 0.25697(2)
Li1 Li -0.077(1) 0.320(1) 0.2975(7)
O1 O 0.1114(3) 0.2315(4) 0.3835(2)
O2 O 0.0951(4) 0.2221(5) 0.5515(3)
O3 O 0.2585(4) -0.1038(4) 0.2884(3)
O4 O 0.0144(4) -0.0890(4) 0.2549(3)
O5 O -0.0022(4) -0.4275(4) 0.2825(3)
O6 O 0.2377(4) -0.4541(4) 0.2946(3)
O7 O 0.2501(4) 0.4008(4) 0.0860(3)
O8 O 0.2483(4) 0.0518(4) 0.0852(3)
C1 C 0.1652(5) 0.2247(6) 0.4822(3)
C2 C 0.1334(5) -0.1681(6) 0.2767(3)
C3 C 0.1212(5) -0.3690(6) 0.2861(3)
C4 C 0.25000 0.3282(9) 0.00000
C5 C 0.25000 0.1271(8) 0.00000
O9 O -0.0038(4) 0.2331(4) 0.1678(2)
C1A C 0.3348(5) 0.2247(6) 0.5178(3)
O1A O 0.3886(3) 0.2315(4) 0.6165(2)
O2A O 0.4049(4) 0.2221(5) 0.4485(3)
O7A O 0.2499(4) 0.4008(4) -0.0860(3)
O8A O 0.2517(4) 0.0518(4) -0.0852(3)
O3C O 0.7585(4) 0.1038(4) 0.2884(3)
O4C O 0.5144(4) 0.0890(4) 0.2549(3)
O5C O 0.4978(4) 0.4275(4) 0.2825(3)
O6C O 0.7377(4) 0.4541(4) 0.2946(3)
C2C C 0.6334(5) 0.1681(6) 0.2767(3)
C3C C 0.6212(5) 0.3690(6) 0.2861(3)
Ce1A Ce 0.22242(3) 0.22888(3) 0.74303(2)
Li1A Li 0.577(1) 0.320(1) 0.7025(7)
O9A O 0.5038(4) 0.2331(4) 0.8322(2)
O6_2 O 0.2377(4) 0.5459(4) 0.2946(3)
O3C_2 O -0.2415(4) 0.1038(4) 0.2884(3)
O5_2 O -0.0022(4) 0.5725(4) 0.2825(3)
O6C_2 O -0.2623(4) 0.4541(4) 0.2946(3)
Li1C Li 0.423(1) -0.320(1) 0.2975(7)
Ce1C Ce -0.22242(3) -0.22888(3) 0.25697(2)
Li1_2 Li -0.077(1) -0.680(1) 0.2975(7)
Ce1_2 Ce 0.27758(3) -0.77112(3) 0.25697(2)
Ce1A_2 Ce 0.22242(3) 0.22888(3) -0.25697(2)
Ce1C_2 Ce 0.77758(3) -0.22888(3) 0.25697(2)
Li1_3 Li 0.923(1) 0.320(1) 0.2975(7)
Li1C_2 Li 0.423(1) 0.680(1) 0.2975(7)
Ce1C_3 Ce 0.77758(3) 0.77112(3) 0.25697(2)
O3A O 0.2415(4) -0.1038(4) 0.7116(3)
O4B O -0.0144(4) 0.0890(4) 0.7451(3)
O5B O 0.0022(4) 0.4275(4) 0.7175(3)
O6A O 0.2623(4) 0.5459(4) 0.7054(3)
O7A_2 O 0.2499(4) 0.4008(4) 0.9140(3)
O8A_2 O 0.2517(4) 0.0518(4) 0.9148(3)
O3B O 0.7415(4) 0.1038(4) 0.7116(3)
O5A O 0.5022(4) 0.5725(4) 0.7175(3)
O6B O 0.7623(4) 0.4541(4) 0.7054(3)
O10 O 0.0977(4) 0.7220(5) 0.0442(3)
loop_
_geom_bond_atom_site_label_1
_geom_bond_atom_site_label_2
_geom_bond_site_symmetry_1
_geom_bond_site_symmetry_2
Ce1 O1 1_555 1_555
Li1 O1 1_555 1_555
O1 C1 1_555 1_555
O2 C1 1_555 1_555
O3 Ce1 1_555 1_555
O4 C2 1_555 1_555
O5 C3 1_555 1_555
O6 C3 1_555 1_555
O7 Ce1 1_555 1_555
O8 Ce1 1_555 1_555
C1 C1A 1_555 1_555
C2 O3 1_555 1_555
C3 C2 1_555 1_555
C4 O7 1_555 1_555
C5 O8 1_555 1_555
O9 Ce1 1_555 1_555
C1A O1A 1_555 1_555
O1A Ce1A 1_555 1_555
O2A Ce1 1_555 1_555
O7A C4 1_555 1_555
O8A C5 1_555 1_555
O3C C2C 1_555 1_555
O4C Ce1 1_555 1_555
O5C Ce1 1_555 1_555
O6C C3C 1_555 1_555
C2C O4C 1_555 1_555
C3C O5C 1_555 1_555
Ce1A O2 1_555 1_555
Li1A O1A 1_555 1_555
O9A Ce1A 1_555 1_555
O6_2 Ce1 1_555 1_555
O3C_2 Li1 1_555 1_555
O5_2 Li1 1_555 1_555
O6C_2 Li1 1_555 1_555
Li1C O3 1_555 1_555
Ce1C O4 1_555 1_555
Li1_2 O5 1_555 1_555
Ce1_2 O6 1_555 1_555
Ce1A_2 O7A 1_555 1_555
Ce1C_2 O3C 1_555 1_555
Li1_3 O3C 1_555 1_555
Li1C_2 O5C 1_555 1_555
Ce1C_3 O6C 1_555 1_555
O3A Ce1A 1_555 1_555
O4B Ce1A 1_555 1_555
O5B Ce1A 1_555 1_555
O6A Ce1A 1_555 1_555
O7A_2 Ce1A 1_555 1_555
O8A_2 Ce1A 1_555 1_555
O3B Li1A 1_555 1_555
O5A Li1A 1_555 1_555
O6B Li1A 1_555 1_555
Li1 O9 1_555 1_555
O5 Ce1C 1_555 1_555
O6 Li1C 1_555 1_555
C4 C5 1_555 1_555
C1A O2A 1_555 1_555
O8A Ce1A_2 1_555 1_555
O6C Li1_3 1_555 1_555
C2C C3C 1_555 1_555
Li1A O9A 1_555 1_555
O6_2 Li1C_2 1_555 1_555
O3C_2 Ce1C 1_555 1_555

#END
