
#######################################################################
#
#                 Cambridge Crystallographic Data Centre
#                                CCDC 
#
#######################################################################
#
# If this CIF has been generated from an entry in the Cambridge 
# Structural Database, then it will include bibliographic, chemical, 
# crystal, experimental, refinement or atomic coordinate data resulting 
# from the CCDC's data processing and validation procedures.
#
#######################################################################

data_NINMUS
_symmetry_cell_setting           monoclinic
_symmetry_space_group_name_H-M   'P 2/a'
_symmetry_Int_Tables_number      13
_space_group_name_Hall           '-P 2ya'
loop_
_symmetry_equiv_pos_site_id
_symmetry_equiv_pos_as_xyz
1 x,y,z
2 1/2-x,y,-z
3 -x,-y,-z
4 1/2+x,-y,z
_cell_length_a                   10.066(1)
_cell_length_b                   7.614(1)
_cell_length_c                   13.139(1)
_cell_angle_alpha                90
_cell_angle_beta                 102.12(2)
_cell_angle_gamma                90
_cell_volume                     984.56
loop_
_atom_site_label
_atom_site_type_symbol
_atom_site_fract_x
_atom_site_fract_y
_atom_site_fract_z
Ce1 Ce 0.25271(2) 0.23140(2) 0.25002(2)
Na1 Na -0.1098(2) 0.2889(2) 0.3081(1)
O1 O 0.1147(3) 0.2112(5) 0.3929(2)
O2 O 0.1150(3) 0.1930(5) 0.5628(2)
O3 O 0.2003(3) -0.0964(4) 0.2743(2)
O4 O -0.0265(3) -0.0887(4) 0.2482(3)
O5 O -0.0391(3) -0.4265(4) 0.2764(2)
O6 O 0.1816(3) -0.4584(4) 0.2757(2)
O7 O 0.2417(3) 0.4023(4) 0.0835(2)
O8 O 0.2431(3) 0.0513(4) 0.0838(2)
C1 C 0.1714(4) 0.2001(6) 0.4867(3)
C2 C 0.0858(4) -0.1669(5) 0.2649(3)
C3 C 0.0765(4) -0.3694(5) 0.2737(3)
C4 C 0.25000 0.3293(8) 0.00000
C5 C 0.25000 0.1254(8) 0.00000
O9 O 0.0015(3) 0.2210(4) 0.1625(2)
O10 O -0.1214(4) 0.3629(7) 0.4785(3)
C1A C 0.3286(4) 0.2001(6) 0.5133(3)
O1A O 0.3853(3) 0.2112(5) 0.6071(2)
O2A O 0.3850(3) 0.1930(5) 0.4372(2)
O7A O 0.2583(3) 0.4023(4) -0.0835(2)
O8A O 0.2569(3) 0.0513(4) -0.0838(2)
O3C O 0.7003(3) 0.0964(4) 0.2743(2)
O4C O 0.4735(3) 0.0887(4) 0.2482(3)
O5C O 0.4609(3) 0.4265(4) 0.2764(2)
O6C O 0.6816(3) 0.4584(4) 0.2757(2)
C2C C 0.5858(4) 0.1669(5) 0.2649(3)
C3C C 0.5765(4) 0.3694(5) 0.2737(3)
Ce1A Ce 0.24729(2) 0.23140(2) 0.74998(2)
Na1A Na 0.6098(2) 0.2889(2) 0.6919(1)
O9A O 0.4985(3) 0.2210(4) 0.8375(2)
O10A O 0.6214(4) 0.3629(7) 0.5215(3)
O6_2 O 0.1816(3) 0.5416(4) 0.2757(2)
O3C_2 O -0.2997(3) 0.0964(4) 0.2743(2)
O5_2 O -0.0391(3) 0.5735(4) 0.2764(2)
O6C_2 O -0.3184(3) 0.4584(4) 0.2757(2)
Na1C Na 0.3902(2) -0.2889(2) 0.3081(1)
Ce1C Ce -0.24729(2) -0.23140(2) 0.25002(2)
Na1_2 Na -0.1098(2) -0.7111(2) 0.3081(1)
Ce1_2 Ce 0.25271(2) -0.76860(2) 0.25002(2)
Ce1A_2 Ce 0.24729(2) 0.23140(2) -0.25002(2)
Ce1C_2 Ce 0.75271(2) -0.23140(2) 0.25002(2)
Na1_3 Na 0.8902(2) 0.2889(2) 0.3081(1)
Na1C_2 Na 0.3902(2) 0.7111(2) 0.3081(1)
Ce1C_3 Ce 0.75271(2) 0.76860(2) 0.25002(2)
O3A O 0.2997(3) -0.0964(4) 0.7257(2)
O4B O 0.0265(3) 0.0887(4) 0.7518(3)
O5B O 0.0391(3) 0.4265(4) 0.7236(2)
O6A O 0.3184(3) 0.5416(4) 0.7243(2)
O7A_2 O 0.2583(3) 0.4023(4) 0.9165(2)
O8A_2 O 0.2569(3) 0.0513(4) 0.9162(2)
O3B O 0.7997(3) 0.0964(4) 0.7257(2)
O5A O 0.5391(3) 0.5735(4) 0.7236(2)
O6B O 0.8184(3) 0.4584(4) 0.7243(2)
O11 O 0.0946(4) 0.7250(4) 0.0427(3)
loop_
_geom_bond_atom_site_label_1
_geom_bond_atom_site_label_2
_geom_bond_site_symmetry_1
_geom_bond_site_symmetry_2
Ce1 O1 1_555 1_555
Na1 O1 1_555 1_555
O1 C1 1_555 1_555
O2 C1 1_555 1_555
O3 Ce1 1_555 1_555
O4 C2 1_555 1_555
O5 C3 1_555 1_555
O6 C3 1_555 1_555
O7 Ce1 1_555 1_555
O8 Ce1 1_555 1_555
C1 C1A 1_555 1_555
C2 O3 1_555 1_555
C3 C2 1_555 1_555
C4 O7 1_555 1_555
C5 O8 1_555 1_555
O9 Ce1 1_555 1_555
O10 Na1 1_555 1_555
C1A O1A 1_555 1_555
O1A Ce1A 1_555 1_555
O2A Ce1 1_555 1_555
O7A C4 1_555 1_555
O8A C5 1_555 1_555
O3C C2C 1_555 1_555
O4C Ce1 1_555 1_555
O5C Ce1 1_555 1_555
O6C C3C 1_555 1_555
C2C O4C 1_555 1_555
C3C O5C 1_555 1_555
Ce1A O2 1_555 1_555
Na1A O1A 1_555 1_555
O9A Ce1A 1_555 1_555
O10A Na1A 1_555 1_555
O6_2 Ce1 1_555 1_555
O3C_2 Na1 1_555 1_555
O5_2 Na1 1_555 1_555
O6C_2 Na1 1_555 1_555
Na1C O3 1_555 1_555
Ce1C O4 1_555 1_555
Na1_2 O5 1_555 1_555
Ce1_2 O6 1_555 1_555
Ce1A_2 O7A 1_555 1_555
Ce1C_2 O3C 1_555 1_555
Na1_3 O3C 1_555 1_555
Na1C_2 O5C 1_555 1_555
Ce1C_3 O6C 1_555 1_555
O3A Ce1A 1_555 1_555
O4B Ce1A 1_555 1_555
O5B Ce1A 1_555 1_555
O6A Ce1A 1_555 1_555
O7A_2 Ce1A 1_555 1_555
O8A_2 Ce1A 1_555 1_555
O3B Na1A 1_555 1_555
O5A Na1A 1_555 1_555
O6B Na1A 1_555 1_555
Na1 O9 1_555 1_555
O5 Ce1C 1_555 1_555
O6 Na1C 1_555 1_555
C4 C5 1_555 1_555
C1A O2A 1_555 1_555
O8A Ce1A_2 1_555 1_555
O6C Na1_3 1_555 1_555
C2C C3C 1_555 1_555
Na1A O9A 1_555 1_555
O6_2 Na1C_2 1_555 1_555
O3C_2 Ce1C 1_555 1_555

#END
