
#######################################################################
#
#                 Cambridge Crystallographic Data Centre
#                                CCDC 
#
#######################################################################
#
# If this CIF has been generated from an entry in the Cambridge 
# Structural Database, then it will include bibliographic, chemical, 
# crystal, experimental, refinement or atomic coordinate data resulting 
# from the CCDC's data processing and validation procedures.
#
#######################################################################

data_NINNUT
_symmetry_cell_setting           orthorhombic
_symmetry_space_group_name_H-M   'P b c 21'
_symmetry_Int_Tables_number      29
_space_group_name_Hall           'P 2c -2b'
loop_
_symmetry_equiv_pos_site_id
_symmetry_equiv_pos_as_xyz
1 x,y,z
2 -x,-y,1/2+z
3 -x,1/2+y,z
4 x,1/2-y,1/2+z
_cell_length_a                   7.0650(7)
_cell_length_b                   13.796(1)
_cell_length_c                   13.960(1)
_cell_angle_alpha                90
_cell_angle_beta                 90
_cell_angle_gamma                90
_cell_volume                     1360.66
loop_
_atom_site_label
_atom_site_type_symbol
_atom_site_fract_x
_atom_site_fract_y
_atom_site_fract_z
Co1 Co 0.3848(9) 0.88445(5) 0.4877(7)
N1 N 0.476(1) 0.8191(5) 0.6587(9)
O1 O 0.5775(7) 0.8546(4) 0.5905(8)
O2 O 0.3038(7) 0.8103(4) 0.6437(8)
O3 O 0.546(1) 0.7960(6) 0.7348(8)
N2 N 0.5004(8) 0.9458(4) 0.3175(8)
O4 O 0.5903(7) 0.9072(4) 0.3897(8)
O5 O 0.3268 0.9412 0.3228
O6 O 0.586(1) 0.9665(5) 0.2457(8)
C1 C 0.4316(8) 0.6509(4) 0.4683(8)
N3 N 0.2152(7) 0.7779(3) 0.4289(8)
C2 C 0.2606 0.6832 0.4225
C3 C 0.140(1) 0.6159(5) 0.3794(9)
C4 C -0.025(1) 0.6474(6) 0.339(1)
C5 C -0.0731(9) 0.7441(6) 0.3450(9)
C6 C 0.051(1) 0.8063(5) 0.3891(8)
C7 C 0.5729 0.6242 0.5061
N4 N 0.1992(7) 0.9916(3) 0.5419(8)
C8 C 0.7457(8) 0.5869(4) 0.5472(8)
C9 C 0.864(1) 0.6549(5) 0.5922(9)
C10 C 1.031(1) 0.6226(6) 0.630(1)
C11 C 1.0800(9) 0.5267(6) 0.6250(8)
C12 C 0.959(1) 0.4644(5) 0.5814(9)
H1 H 0.170(10) 0.557(6) 0.368(6)
H2 H -0.100(10) 0.618(5) 0.315(6)
H3 H -0.200(10) 0.767(5) 0.315(6)
H4 H 0.020(10) 0.874(5) 0.398(7)
H5 H 0.840(10) 0.726(5) 0.602(6)
H6 H 1.080(10) 0.665(6) 0.666(6)
H7 H 1.180(10) 0.503(5) 0.645(6)
H8 H 0.990(10) 0.414(6) 0.58(2)
N4B N 0.8008(7) 0.4916(3) 0.5419(8)
Co1B Co 0.6152(9) 0.38445(5) 0.4877(7)
loop_
_geom_bond_atom_site_label_1
_geom_bond_atom_site_label_2
_geom_bond_site_symmetry_1
_geom_bond_site_symmetry_2
Co1 O1 1_555 1_555
N1 O1 1_555 1_555
O2 Co1 1_555 1_555
O3 N1 1_555 1_555
N2 O4 1_555 1_555
O4 Co1 1_555 1_555
O5 Co1 1_555 1_555
O6 N2 1_555 1_555
C1 C2 1_555 1_555
N3 Co1 1_555 1_555
C2 N3 1_555 1_555
C3 C2 1_555 1_555
C4 C3 1_555 1_555
C5 C4 1_555 1_555
C6 N3 1_555 1_555
C7 C1 1_555 1_555
N4 Co1 1_555 1_555
C8 C7 1_555 1_555
C9 C8 1_555 1_555
C10 C9 1_555 1_555
C11 C10 1_555 1_555
C12 C11 1_555 1_555
H1 C3 1_555 1_555
H2 C4 1_555 1_555
H3 C5 1_555 1_555
H4 C6 1_555 1_555
H5 C9 1_555 1_555
H6 C10 1_555 1_555
H7 C11 1_555 1_555
H8 C12 1_555 1_555
N4B C8 1_555 1_555
Co1B N4B 1_555 1_555
N1 O2 1_555 1_555
N2 O5 1_555 1_555
C5 C6 1_555 1_555
C12 N4B 1_555 1_555

#END
