
#######################################################################
#
#                 Cambridge Crystallographic Data Centre
#                                CCDC 
#
#######################################################################
#
# If this CIF has been generated from an entry in the Cambridge 
# Structural Database, then it will include bibliographic, chemical, 
# crystal, experimental, refinement or atomic coordinate data resulting 
# from the CCDC's data processing and validation procedures.
#
#######################################################################

data_NINTUZ
_symmetry_cell_setting           monoclinic
_symmetry_space_group_name_H-M   'P 21/n'
_symmetry_Int_Tables_number      14
_space_group_name_Hall           '-P 2yn'
loop_
_symmetry_equiv_pos_site_id
_symmetry_equiv_pos_as_xyz
1 x,y,z
2 1/2+x,1/2-y,1/2+z
3 -x,-y,-z
4 1/2-x,1/2+y,1/2-z
_cell_length_a                   24.186(1)
_cell_length_b                   12.189(1)
_cell_length_c                   8.963(1)
_cell_angle_alpha                90
_cell_angle_beta                 92.344(2)
_cell_angle_gamma                90
_cell_volume                     2640.11
loop_
_atom_site_label
_atom_site_type_symbol
_atom_site_fract_x
_atom_site_fract_y
_atom_site_fract_z
Ag1 Ag 1.00614(1) 0.26227(1) 0.79519(2)
S1 S 0.91771(2) 0.12171(4) 0.75267(5)
S2 S 0.92437(2) 0.39687(4) 0.73298(5)
S3 S 0.83418(2) 0.13652(3) 0.49423(4)
S4 S 0.83273(2) 0.37823(3) 0.49984(4)
S5 S 0.77474(2) 0.13407(3) 0.16774(4)
S6 S 0.76468(2) 0.37797(3) 0.17688(4)
S7 S 0.75167(2) 0.13813(3) -0.17257(4)
S8 S 0.73984(2) 0.38160(3) -0.16245(4)
S9 S 0.68763(2) 0.13835(3) -0.50156(4)
S10 S 0.68094(2) 0.37922(3) -0.48953(4)
S11 S 0.59626(2) 0.11600(4) -0.73573(5)
S12 S 0.59170(2) 0.38934(4) -0.73655(5)
S13 S 1.03174(2) 0.28949(4) 1.15883(5)
F1 F 0.98793(6) 0.3853(1) 1.3894(2)
F2 F 0.98403(6) 0.2099(1) 1.3935(2)
F3 F 0.92928(5) 0.3004(1) 1.2456(2)
O1 O 1.01273(6) 0.1959(1) 1.0710(2)
O2 O 1.02530(6) 0.3918(1) 1.0803(2)
O3 O 1.08268(6) 0.2736(1) 1.2421(2)
C1 C 0.9303(1) -0.0025(2) 0.6513(3)
C2 C 0.89407(8) 0.3919(2) 0.9148(2)
C3 C 0.88025(7) 0.2015(1) 0.6225(2)
C4 C 0.88026(7) 0.3121(1) 0.6234(2)
C5 C 0.81566(7) 0.2584(1) 0.4008(2)
C6 C 0.78905(7) 0.2573(1) 0.2661(2)
C7 C 0.76124(7) 0.2033(1) -0.0005(2)
C8 C 0.75619(7) 0.3127(1) 0.0042(2)
C9 C 0.72704(7) 0.2585(1) -0.2620(2)
C10 C 0.70154(7) 0.2577(1) -0.3981(2)
C11 C 0.63839(7) 0.2017(1) -0.6227(2)
C12 C 0.63520(7) 0.3121(1) -0.6170(2)
C13 C 0.61690(9) 0.1493(2) -0.9228(2)
C14 C 0.57360(9) 0.5040(2) -0.6208(3)
C15 C 0.98046(8) 0.2971(2) 1.3037(2)
H1 H 0.9513(10) -0.048(2) 0.716(3)
H2 H 0.9489(10) 0.013(2) 0.566(3)
H3 H 0.897(1) -0.035(2) 0.631(3)
H4 H 0.9201(9) 0.428(2) 0.980(3)
H5 H 0.8597(10) 0.429(2) 0.907(2)
H6 H 0.8896(9) 0.316(2) 0.949(2)
H7 H 0.5952(9) 0.104(2) -0.988(3)
H8 H 0.6083(9) 0.222(2) -0.945(3)
H9 H 0.6557(10) 0.129(2) -0.932(2)
H10 H 0.5475(10) 0.544(2) -0.677(3)
H11 H 0.5581(9) 0.478(2) -0.534(3)
H12 H 0.6051(10) 0.545(2) -0.591(3)
S11A S 1.09626(2) 0.38400(4) 0.76427(5)
S12A S 1.09170(2) 0.11066(4) 0.76345(5)
Ag1A Ag 0.50614(1) 0.23773(1) -0.70481(2)
loop_
_geom_bond_atom_site_label_1
_geom_bond_atom_site_label_2
_geom_bond_site_symmetry_1
_geom_bond_site_symmetry_2
Ag1 S1 1_555 1_555
S1 C1 1_555 1_555
S2 Ag1 1_555 1_555
S3 C3 1_555 1_555
S4 C4 1_555 1_555
S5 C6 1_555 1_555
S6 C6 1_555 1_555
S7 C7 1_555 1_555
S8 C8 1_555 1_555
S9 C10 1_555 1_555
S10 C10 1_555 1_555
S11 C11 1_555 1_555
S12 C12 1_555 1_555
S13 O1 1_555 1_555
F1 C15 1_555 1_555
F2 C15 1_555 1_555
F3 C15 1_555 1_555
O1 Ag1 1_555 1_555
O2 S13 1_555 1_555
O3 S13 1_555 1_555
C1 H1 1_555 1_555
C2 S2 1_555 1_555
C3 S1 1_555 1_555
C4 S2 1_555 1_555
C5 S3 1_555 1_555
C6 C5 1_555 1_555
C7 S5 1_555 1_555
C8 S6 1_555 1_555
C9 S7 1_555 1_555
C10 C9 1_555 1_555
C11 S9 1_555 1_555
C12 S10 1_555 1_555
C13 S11 1_555 1_555
C14 S12 1_555 1_555
C15 S13 1_555 1_555
H2 C1 1_555 1_555
H3 C1 1_555 1_555
H4 C2 1_555 1_555
H5 C2 1_555 1_555
H6 C2 1_555 1_555
H7 C13 1_555 1_555
H8 C13 1_555 1_555
H9 C13 1_555 1_555
H10 C14 1_555 1_555
H11 C14 1_555 1_555
H12 C14 1_555 1_555
S11A Ag1 1_555 1_555
S12A Ag1 1_555 1_555
Ag1A S11 1_555 1_555
S4 C5 1_555 1_555
S8 C9 1_555 1_555
S12 Ag1A 1_555 1_555
C3 C4 1_555 1_555
C7 C8 1_555 1_555
C11 C12 1_555 1_555

#END
