
#######################################################################
#
#                 Cambridge Crystallographic Data Centre
#                                CCDC 
#
#######################################################################
#
# If this CIF has been generated from an entry in the Cambridge 
# Structural Database, then it will include bibliographic, chemical, 
# crystal, experimental, refinement or atomic coordinate data resulting 
# from the CCDC's data processing and validation procedures.
#
#######################################################################

data_NINVEM
_symmetry_cell_setting           cubic
_symmetry_space_group_name_H-M   'F m -3 m'
_symmetry_Int_Tables_number      225
_space_group_name_Hall           '-F 4 2 3'
loop_
_symmetry_equiv_pos_site_id
_symmetry_equiv_pos_as_xyz
1 x,y,z
2 z,x,y
3 y,z,x
4 y,x,-z
5 y,-x,z
6 -y,x,z
7 x,z,-y
8 -x,z,y
9 x,-z,y
10 z,y,-x
11 z,-y,x
12 -z,y,x
13 x,1/2+y,1/2+z
14 z,1/2+x,1/2+y
15 y,1/2+z,1/2+x
16 y,1/2+x,1/2-z
17 y,1/2-x,1/2+z
18 -y,1/2+x,1/2+z
19 x,1/2+z,1/2-y
20 -x,1/2+z,1/2+y
21 x,1/2-z,1/2+y
22 z,1/2+y,1/2-x
23 z,1/2-y,1/2+x
24 -z,1/2+y,1/2+x
25 1/2+x,y,1/2+z
26 1/2+z,x,1/2+y
27 1/2+y,z,1/2+x
28 1/2+y,x,1/2-z
29 1/2+y,-x,1/2+z
30 1/2-y,x,1/2+z
31 1/2+x,z,1/2-y
32 1/2-x,z,1/2+y
33 1/2+x,-z,1/2+y
34 1/2+z,y,1/2-x
35 1/2+z,-y,1/2+x
36 1/2-z,y,1/2+x
37 1/2+x,1/2+y,z
38 1/2+z,1/2+x,y
39 1/2+y,1/2+z,x
40 1/2+y,1/2+x,-z
41 1/2+y,1/2-x,z
42 1/2-y,1/2+x,z
43 1/2+x,1/2+z,-y
44 1/2-x,1/2+z,y
45 1/2+x,1/2-z,y
46 1/2+z,1/2+y,-x
47 1/2+z,1/2-y,x
48 1/2-z,1/2+y,x
49 -x,-y,z
50 -x,y,-z
51 x,-y,-z
52 z,-x,-y
53 -z,-x,y
54 -z,x,-y
55 -y,z,-x
56 y,-z,-x
57 -y,-z,x
58 -y,-x,-z
59 -x,-z,-y
60 -z,-y,-x
61 -x,1/2-y,1/2+z
62 -x,1/2+y,1/2-z
63 x,1/2-y,1/2-z
64 z,1/2-x,1/2-y
65 -z,1/2-x,1/2+y
66 -z,1/2+x,1/2-y
67 -y,1/2+z,1/2-x
68 y,1/2-z,1/2-x
69 -y,1/2-z,1/2+x
70 -y,1/2-x,1/2-z
71 -x,1/2-z,1/2-y
72 -z,1/2-y,1/2-x
73 1/2-x,-y,1/2+z
74 1/2-x,y,1/2-z
75 1/2+x,-y,1/2-z
76 1/2+z,-x,1/2-y
77 1/2-z,-x,1/2+y
78 1/2-z,x,1/2-y
79 1/2-y,z,1/2-x
80 1/2+y,-z,1/2-x
81 1/2-y,-z,1/2+x
82 1/2-y,-x,1/2-z
83 1/2-x,-z,1/2-y
84 1/2-z,-y,1/2-x
85 1/2-x,1/2-y,z
86 1/2-x,1/2+y,-z
87 1/2+x,1/2-y,-z
88 1/2+z,1/2-x,-y
89 1/2-z,1/2-x,y
90 1/2-z,1/2+x,-y
91 1/2-y,1/2+z,-x
92 1/2+y,1/2-z,-x
93 1/2-y,1/2-z,x
94 1/2-y,1/2-x,-z
95 1/2-x,1/2-z,-y
96 1/2-z,1/2-y,-x
97 -x,-y,-z
98 -z,-x,-y
99 -y,-z,-x
100 -y,-x,z
101 -y,x,-z
102 y,-x,-z
103 -x,-z,y
104 x,-z,-y
105 -x,z,-y
106 -z,-y,x
107 -z,y,-x
108 z,-y,-x
109 -x,1/2-y,1/2-z
110 -z,1/2-x,1/2-y
111 -y,1/2-z,1/2-x
112 -y,1/2-x,1/2+z
113 -y,1/2+x,1/2-z
114 y,1/2-x,1/2-z
115 -x,1/2-z,1/2+y
116 x,1/2-z,1/2-y
117 -x,1/2+z,1/2-y
118 -z,1/2-y,1/2+x
119 -z,1/2+y,1/2-x
120 z,1/2-y,1/2-x
121 1/2-x,-y,1/2-z
122 1/2-z,-x,1/2-y
123 1/2-y,-z,1/2-x
124 1/2-y,-x,1/2+z
125 1/2-y,x,1/2-z
126 1/2+y,-x,1/2-z
127 1/2-x,-z,1/2+y
128 1/2+x,-z,1/2-y
129 1/2-x,z,1/2-y
130 1/2-z,-y,1/2+x
131 1/2-z,y,1/2-x
132 1/2+z,-y,1/2-x
133 1/2-x,1/2-y,-z
134 1/2-z,1/2-x,-y
135 1/2-y,1/2-z,-x
136 1/2-y,1/2-x,z
137 1/2-y,1/2+x,-z
138 1/2+y,1/2-x,-z
139 1/2-x,1/2-z,y
140 1/2+x,1/2-z,-y
141 1/2-x,1/2+z,-y
142 1/2-z,1/2-y,x
143 1/2-z,1/2+y,-x
144 1/2+z,1/2-y,-x
145 x,y,-z
146 x,-y,z
147 -x,y,z
148 -z,x,y
149 z,x,-y
150 z,-x,y
151 y,-z,x
152 -y,z,x
153 y,z,-x
154 y,x,z
155 x,z,y
156 z,y,x
157 x,1/2+y,1/2-z
158 x,1/2-y,1/2+z
159 -x,1/2+y,1/2+z
160 -z,1/2+x,1/2+y
161 z,1/2+x,1/2-y
162 z,1/2-x,1/2+y
163 y,1/2-z,1/2+x
164 -y,1/2+z,1/2+x
165 y,1/2+z,1/2-x
166 y,1/2+x,1/2+z
167 x,1/2+z,1/2+y
168 z,1/2+y,1/2+x
169 1/2+x,y,1/2-z
170 1/2+x,-y,1/2+z
171 1/2-x,y,1/2+z
172 1/2-z,x,1/2+y
173 1/2+z,x,1/2-y
174 1/2+z,-x,1/2+y
175 1/2+y,-z,1/2+x
176 1/2-y,z,1/2+x
177 1/2+y,z,1/2-x
178 1/2+y,x,1/2+z
179 1/2+x,z,1/2+y
180 1/2+z,y,1/2+x
181 1/2+x,1/2+y,-z
182 1/2+x,1/2-y,z
183 1/2-x,1/2+y,z
184 1/2-z,1/2+x,y
185 1/2+z,1/2+x,-y
186 1/2+z,1/2-x,y
187 1/2+y,1/2-z,x
188 1/2-y,1/2+z,x
189 1/2+y,1/2+z,-x
190 1/2+y,1/2+x,z
191 1/2+x,1/2+z,y
192 1/2+z,1/2+y,x
_cell_length_a                   30.2083(16)
_cell_length_b                   30.2083(16)
_cell_length_c                   30.2083(16)
_cell_angle_alpha                90
_cell_angle_beta                 90
_cell_angle_gamma                90
_cell_volume                     27566.3
loop_
_atom_site_label
_atom_site_type_symbol
_atom_site_fract_x
_atom_site_fract_y
_atom_site_fract_z
C1 C 0.41816(11) 0.08184(11) 0.30126(16)
C2 C 0.39646(12) 0.10354(12) 0.33990(16)
C3 C 0.41511(15) 0.14126(12) 0.35874(12)
H1 H 0.4401 0.1539 0.3461
C4 C 0.4103(2) 0.05056(19) 0.1820(2)
C5 C 0.39232(18) 0.07635(13) 0.13899(14)
Cl1 Cl 0.5000 0.0000 0.27738(19)
Fe1 Fe 0.42540(2) 0.0000 0.24520(2)
O1 O 0.40095(9) 0.04727(8) 0.28669(9)
O2 O 0.44907(8) 0.05093(8) 0.19939(10)
O3 O 0.38144(14) 0.02369(13) 0.19473(14)
C1OA C 0.41816(11) -0.08184(11) 0.30126(16)
C1GG C 0.58184(11) -0.08184(11) 0.30126(16)
C1NA C 0.58184(11) 0.08184(11) 0.30126(16)
C1KD C 0.41816(11) 0.19874(16) 0.41816(11)
C1R C 0.41816(11) -0.19874(16) 0.41816(11)
C1J C 0.30126(16) -0.08184(11) 0.41816(11)
C1AD C 0.69874(16) -0.08184(11) 0.41816(11)
C1K C 0.69874(16) 0.08184(11) 0.41816(11)
C1YE C 0.30126(16) 0.08184(11) 0.41816(11)
C1DG C 0.58184(11) 0.19874(16) 0.41816(11)
C1LA C 0.58184(11) -0.19874(16) 0.41816(11)
C1T C 0.41816(11) 0.19874(16) 0.58184(11)
C1ZD C 0.19874(16) 0.08184(11) 0.08184(11)
C1AG C 0.19874(16) -0.08184(11) 0.08184(11)
C1IA C 0.19874(16) 0.08184(11) -0.08184(11)
C1JF C 0.41816(11) -0.19874(16) 0.58184(11)
C1M C 0.30126(16) -0.08184(11) 0.58184(11)
C1CF C 0.69874(16) -0.08184(11) 0.58184(11)
C1BD C 0.69874(16) 0.08184(11) 0.58184(11)
C1I C 0.30126(16) 0.08184(11) 0.58184(11)
C1JD C 0.58184(11) 0.19874(16) 0.58184(11)
C1S C 0.58184(11) -0.19874(16) 0.58184(11)
C2KD C 0.39646(12) 0.16010(16) 0.39646(12)
C2OA C 0.39646(12) -0.10354(12) 0.33990(16)
C2R C 0.39646(12) -0.16010(16) 0.39646(12)
C2J C 0.33990(16) -0.10354(12) 0.39646(12)
C2GG C 0.60354(12) -0.10354(12) 0.33990(16)
C2AD C 0.66010(16) -0.10354(12) 0.39646(12)
C2NA C 0.60354(12) 0.10354(12) 0.33990(16)
C2K C 0.66010(16) 0.10354(12) 0.39646(12)
C2YE C 0.33990(16) 0.10354(12) 0.39646(12)
C2DG C 0.60354(12) 0.16010(16) 0.39646(12)
C2LA C 0.60354(12) -0.16010(16) 0.39646(12)
C3EE C 0.35874(12) 0.08489(15) 0.35874(12)
C3R C 0.41511(15) -0.14126(12) 0.35874(12)
C3OA C 0.35874(12) -0.08489(15) 0.35874(12)
C3GG C 0.64126(12) -0.08489(15) 0.35874(12)
C3LD C 0.58489(15) -0.14126(12) 0.35874(12)
C3NA C 0.64126(12) 0.08489(15) 0.35874(12)
C3PE C 0.58489(15) 0.14126(12) 0.35874(12)
C3YE C 0.35874(12) 0.14126(12) 0.41511(15)
C3J C 0.35874(12) -0.14126(12) 0.41511(15)
C3LA C 0.64126(12) -0.14126(12) 0.41511(15)
C3K C 0.64126(12) 0.14126(12) 0.41511(15)
H1R H 0.4401 -0.1539 0.3461
H1OA H 0.3461 -0.0599 0.3461
H1GG H 0.6539 -0.0599 0.3461
H1NA H 0.6539 0.0599 0.3461
H1EE H 0.3461 0.0599 0.3461
H1PE H 0.5599 0.1539 0.3461
H1LD H 0.5599 -0.1539 0.3461
H1YE H 0.3461 0.1539 0.4401
H1J H 0.3461 -0.1539 0.4401
H1LA H 0.6539 -0.1539 0.4401
H1K H 0.6539 0.1539 0.4401
C4EE C 0.44944(19) 0.0897(2) 0.1820(2)
C4ZD C 0.3180(2) 0.05056(19) 0.0897(2)
C4OE C 0.4103(2) -0.05056(19) 0.1820(2)
C4OA C 0.44944(19) -0.0897(2) 0.1820(2)
C4JC C 0.3180(2) 0.0897(2) 0.05056(19)
C4ZB C 0.44944(19) 0.1820(2) 0.0897(2)
C4GG C 0.55056(19) -0.0897(2) 0.1820(2)
C4VA C 0.5897(2) -0.05056(19) 0.1820(2)
C4NA C 0.55056(19) 0.0897(2) 0.1820(2)
C4PE C 0.5897(2) 0.05056(19) 0.1820(2)
C4XE C 0.4103(2) 0.1820(2) 0.05056(19)
C4EC C 0.3180(2) -0.05056(19) 0.0897(2)
C4RD C 0.44944(19) -0.1820(2) 0.0897(2)
C4T C 0.4103(2) 0.3180(2) 0.55056(19)
C4DE C 0.44944(19) 0.3180(2) 0.5897(2)
C4KD C 0.4103(2) 0.3180(2) 0.44944(19)
C4NC C 0.44944(19) 0.3180(2) 0.4103(2)
C4DG C 0.55056(19) 0.3180(2) 0.4103(2)
C4RB C 0.5897(2) 0.3180(2) 0.44944(19)
C4CE C 0.3180(2) 0.0897(2) -0.05056(19)
C4AG C 0.3180(2) -0.0897(2) 0.05056(19)
C4IA C 0.3180(2) 0.05056(19) -0.0897(2)
C4TF C 0.55056(19) 0.1820(2) 0.0897(2)
C4R C 0.4103(2) -0.3180(2) 0.44944(19)
C4EG C 0.44944(19) -0.3180(2) 0.4103(2)
C4JF C 0.4103(2) -0.3180(2) 0.55056(19)
C4LC C 0.44944(19) -0.3180(2) 0.5897(2)
C4LA C 0.55056(19) -0.3180(2) 0.4103(2)
C4LD C 0.5897(2) -0.3180(2) 0.44944(19)
C4AC C 0.55056(19) -0.1820(2) 0.0897(2)
C4AE C 0.6820(2) -0.05056(19) 0.0897(2)
C4GA C 0.6820(2) 0.05056(19) 0.0897(2)
C4J C 0.1820(2) -0.05056(19) 0.4103(2)
C4DF C 0.1820(2) -0.0897(2) 0.44944(19)
C4YE C 0.1820(2) 0.05056(19) 0.4103(2)
C4KB C 0.1820(2) 0.0897(2) 0.44944(19)
C4M C 0.1820(2) -0.0897(2) 0.55056(19)
C4CD C 0.1820(2) -0.05056(19) 0.5897(2)
C4K C 0.8180(2) 0.05056(19) 0.4103(2)
C4ED C 0.8180(2) 0.0897(2) 0.44944(19)
C4AD C 0.8180(2) -0.05056(19) 0.4103(2)
C4MB C 0.8180(2) -0.0897(2) 0.44944(19)
C4CF C 0.8180(2) -0.0897(2) 0.55056(19)
C4GB C 0.8180(2) -0.05056(19) 0.5897(2)
C4BD C 0.8180(2) 0.05056(19) 0.5897(2)
C4LB C 0.8180(2) 0.0897(2) 0.55056(19)
C4I C 0.1820(2) 0.05056(19) 0.5897(2)
C4EF C 0.1820(2) 0.0897(2) 0.55056(19)
C4JD C 0.5897(2) 0.3180(2) 0.55056(19)
C4MC C 0.55056(19) 0.3180(2) 0.5897(2)
C4S C 0.5897(2) -0.3180(2) 0.55056(19)
C4FG C 0.55056(19) -0.3180(2) 0.5897(2)
C5ZD C 0.36101(14) 0.07635(13) 0.10768(18)
C5EE C 0.42365(13) 0.10768(18) 0.13899(14)
C5JC C 0.36101(14) 0.10768(18) 0.07635(13)
C5ZB C 0.42365(13) 0.13899(14) 0.10768(18)
C5XE C 0.39232(18) 0.13899(14) 0.07635(13)
C5OE C 0.39232(18) -0.07635(13) 0.13899(14)
C5OA C 0.42365(13) -0.10768(18) 0.13899(14)
C5EC C 0.36101(14) -0.07635(13) 0.10768(18)
C5GG C 0.57635(13) -0.10768(18) 0.13899(14)
C5VA C 0.60768(18) -0.07635(13) 0.13899(14)
C5NA C 0.57635(13) 0.10768(18) 0.13899(14)
C5PE C 0.60768(18) 0.07635(13) 0.13899(14)
C5RD C 0.42365(13) -0.13899(14) 0.10768(18)
C5AG C 0.36101(14) -0.10768(18) 0.07635(13)
C5AC C 0.57635(13) -0.13899(14) 0.10768(18)
C5AE C 0.63899(14) -0.07635(13) 0.10768(18)
C5TF C 0.57635(13) 0.13899(14) 0.10768(18)
C5GA C 0.63899(14) 0.07635(13) 0.10768(18)
C5H C 0.39232(18) -0.13899(14) 0.07635(13)
C5XC C 0.60768(18) -0.13899(14) 0.07635(13)
C5KA C 0.63899(14) -0.10768(18) 0.07635(13)
C5G C 0.60768(18) 0.13899(14) 0.07635(13)
C5CG C 0.63899(14) 0.10768(18) 0.07635(13)
Cl1T Cl 0.5000 0.22262(19) 0.5000
Cl1IA Cl 0.22262(19) 0.0000 0.0000
Cl1R Cl 0.5000 -0.22262(19) 0.5000
Cl1I Cl 0.27738(19) 0.0000 0.5000
Cl1K Cl 0.72262(19) 0.0000 0.5000
Cl1F Cl 0.5000 0.27738(19) 0.0000
Fe1OA Fe 0.5000 -0.07460(2) 0.24520(2)
Fe1NA Fe 0.5000 0.07460(2) 0.24520(2)
Fe1PE Fe 0.57460(2) 0.0000 0.24520(2)
Fe1T Fe 0.42540(2) 0.25480(2) 0.5000
Fe1DG Fe 0.5000 0.25480(2) 0.42540(2)
Fe1ZD Fe 0.25480(2) 0.0000 0.07460(2)
Fe1CE Fe 0.25480(2) 0.07460(2) 0.0000
Fe1R Fe 0.42540(2) -0.25480(2) 0.5000
Fe1LA Fe 0.5000 -0.25480(2) 0.42540(2)
Fe1J Fe 0.24520(2) 0.0000 0.42540(2)
Fe1M Fe 0.24520(2) -0.07460(2) 0.5000
Fe1K Fe 0.75480(2) 0.0000 0.42540(2)
Fe1CF Fe 0.75480(2) -0.07460(2) 0.5000
Fe1ED Fe 0.75480(2) 0.07460(2) 0.5000
Fe1EF Fe 0.24520(2) 0.07460(2) 0.5000
Fe1JD Fe 0.57460(2) 0.25480(2) 0.5000
Fe1S Fe 0.57460(2) -0.25480(2) 0.5000
Fe1F Fe 0.42540(2) 0.24520(2) 0.0000
Fe1TF Fe 0.5000 0.24520(2) 0.07460(2)
Fe1DE Fe 0.5000 0.25480(2) 0.57460(2)
Fe1IA Fe 0.25480(2) 0.0000 -0.07460(2)
Fe1AG Fe 0.25480(2) -0.07460(2) 0.0000
Fe1FG Fe 0.5000 -0.25480(2) 0.57460(2)
Fe1I Fe 0.24520(2) 0.0000 0.57460(2)
Fe1BD Fe 0.75480(2) 0.0000 0.57460(2)
O1EE O 0.45273(8) 0.09905(9) 0.28669(9)
O1OE O 0.40095(9) -0.04727(8) 0.28669(9)
O1OA O 0.45273(8) -0.09905(9) 0.28669(9)
O1GG O 0.54727(8) -0.09905(9) 0.28669(9)
O1VA O 0.59905(9) -0.04727(8) 0.28669(9)
O1NA O 0.54727(8) 0.09905(9) 0.28669(9)
O1PE O 0.59905(9) 0.04727(8) 0.28669(9)
O1KD O 0.40095(9) 0.21331(9) 0.45273(8)
O1NC O 0.45273(8) 0.21331(9) 0.40095(9)
O1R O 0.40095(9) -0.21331(9) 0.45273(8)
O1EG O 0.45273(8) -0.21331(9) 0.40095(9)
O1J O 0.28669(9) -0.04727(8) 0.40095(9)
O1DF O 0.28669(9) -0.09905(9) 0.45273(8)
O1AD O 0.71331(9) -0.04727(8) 0.40095(9)
O1MB O 0.71331(9) -0.09905(9) 0.45273(8)
O1K O 0.71331(9) 0.04727(8) 0.40095(9)
O1ED O 0.71331(9) 0.09905(9) 0.45273(8)
O1YE O 0.28669(9) 0.04727(8) 0.40095(9)
O1KB O 0.28669(9) 0.09905(9) 0.45273(8)
O1DG O 0.54727(8) 0.21331(9) 0.40095(9)
O1RB O 0.59905(9) 0.21331(9) 0.45273(8)
O1LA O 0.54727(8) -0.21331(9) 0.40095(9)
O1LD O 0.59905(9) -0.21331(9) 0.45273(8)
O1T O 0.40095(9) 0.21331(9) 0.54727(8)
O1ZD O 0.21331(9) 0.04727(8) 0.09905(9)
O1EC O 0.21331(9) -0.04727(8) 0.09905(9)
O1CE O 0.21331(9) 0.09905(9) -0.04727(8)
O1JC O 0.21331(9) 0.09905(9) 0.04727(8)
O1JF O 0.40095(9) -0.21331(9) 0.54727(8)
O1M O 0.28669(9) -0.09905(9) 0.54727(8)
O1CF O 0.71331(9) -0.09905(9) 0.54727(8)
O1LB O 0.71331(9) 0.09905(9) 0.54727(8)
O1EF O 0.28669(9) 0.09905(9) 0.54727(8)
O1JD O 0.59905(9) 0.21331(9) 0.54727(8)
O1S O 0.59905(9) -0.21331(9) 0.54727(8)
O1F O 0.40095(9) 0.28669(9) -0.04727(8)
O1XE O 0.40095(9) 0.28669(9) 0.04727(8)
O1TF O 0.54727(8) 0.28669(9) 0.09905(9)
O1ZB O 0.45273(8) 0.28669(9) 0.09905(9)
O2OA O 0.44907(8) -0.05093(8) 0.19939(10)
O2GG O 0.55093(8) -0.05093(8) 0.19939(10)
O2NA O 0.55093(8) 0.05093(8) 0.19939(10)
O2ZD O 0.30061(10) 0.05093(8) 0.05093(8)
O2XE O 0.44907(8) 0.19939(10) 0.05093(8)
O2T O 0.44907(8) 0.30061(10) 0.55093(8)
O2KD O 0.44907(8) 0.30061(10) 0.44907(8)
O2DG O 0.55093(8) 0.30061(10) 0.44907(8)
O2AG O 0.30061(10) -0.05093(8) 0.05093(8)
O2IA O 0.30061(10) 0.05093(8) -0.05093(8)
O2R O 0.44907(8) -0.30061(10) 0.44907(8)
O2JF O 0.44907(8) -0.30061(10) 0.55093(8)
O2LA O 0.55093(8) -0.30061(10) 0.44907(8)
O2J O 0.19939(10) -0.05093(8) 0.44907(8)
O2YE O 0.19939(10) 0.05093(8) 0.44907(8)
O2M O 0.19939(10) -0.05093(8) 0.55093(8)
O2K O 0.80061(10) 0.05093(8) 0.44907(8)
O2AD O 0.80061(10) -0.05093(8) 0.44907(8)
O2CF O 0.80061(10) -0.05093(8) 0.55093(8)
O2BD O 0.80061(10) 0.05093(8) 0.55093(8)
O2I O 0.19939(10) 0.05093(8) 0.55093(8)
O2JD O 0.55093(8) 0.30061(10) 0.55093(8)
O2S O 0.55093(8) -0.30061(10) 0.55093(8)
O2F O 0.44907(8) 0.19939(10) -0.05093(8)
O2G O 0.55093(8) 0.19939(10) 0.05093(8)
O3OE O 0.38144(14) -0.02369(13) 0.19473(14)
O3EE O 0.47631(13) 0.11856(14) 0.19473(14)
O3OA O 0.47631(13) -0.11856(14) 0.19473(14)
O3GG O 0.52369(13) -0.11856(14) 0.19473(14)
O3NA O 0.52369(13) 0.11856(14) 0.19473(14)
O3PE O 0.61856(14) 0.02369(13) 0.19473(14)
O3VA O 0.61856(14) -0.02369(13) 0.19473(14)
O3ZD O 0.30527(14) 0.02369(13) 0.11856(14)
O3JC O 0.30527(14) 0.11856(14) 0.02369(13)
O3EC O 0.30527(14) -0.02369(13) 0.11856(14)
O3ZB O 0.47631(13) 0.19473(14) 0.11856(14)
O3T O 0.38144(14) 0.30527(14) 0.52369(13)
O3KD O 0.38144(14) 0.30527(14) 0.47631(13)
O3DG O 0.52369(13) 0.30527(14) 0.38144(14)
O3NC O 0.47631(13) 0.30527(14) 0.38144(14)
O3CE O 0.30527(14) 0.11856(14) -0.02369(13)
O3XE O 0.38144(14) 0.19473(14) 0.02369(13)
O3TF O 0.52369(13) 0.19473(14) 0.11856(14)
O3R O 0.38144(14) -0.30527(14) 0.47631(13)
O3JF O 0.38144(14) -0.30527(14) 0.52369(13)
O3LA O 0.52369(13) -0.30527(14) 0.38144(14)
O3EG O 0.47631(13) -0.30527(14) 0.38144(14)
O3J O 0.19473(14) -0.02369(13) 0.38144(14)
O3YE O 0.19473(14) 0.02369(13) 0.38144(14)
O3M O 0.19473(14) -0.11856(14) 0.52369(13)
O3DF O 0.19473(14) -0.11856(14) 0.47631(13)
O3K O 0.80527(14) 0.02369(13) 0.38144(14)
O3AD O 0.80527(14) -0.02369(13) 0.38144(14)
O3CF O 0.80527(14) -0.11856(14) 0.52369(13)
O3MB O 0.80527(14) -0.11856(14) 0.47631(13)
O3ED O 0.80527(14) 0.11856(14) 0.47631(13)
O3LB O 0.80527(14) 0.11856(14) 0.52369(13)
O3EF O 0.19473(14) 0.11856(14) 0.52369(13)
O3KB O 0.19473(14) 0.11856(14) 0.47631(13)
O3JD O 0.61856(14) 0.30527(14) 0.52369(13)
O3RB O 0.61856(14) 0.30527(14) 0.47631(13)
O3S O 0.61856(14) -0.30527(14) 0.52369(13)
O3LD O 0.61856(14) -0.30527(14) 0.47631(13)
O3F O 0.38144(14) 0.19473(14) -0.02369(13)
loop_
_geom_bond_atom_site_label_1
_geom_bond_atom_site_label_2
_geom_bond_site_symmetry_1
_geom_bond_site_symmetry_2
C1 C2 1_555 1_555
C2 C3 1_555 1_555
C3 H1 1_555 1_555
C4 C5 1_555 1_555
C5 C5ZD 1_555 1_555
Cl1 Fe1 1_555 1_555
Fe1 O1 1_555 1_555
O1 C1 1_555 1_555
O2 C4 1_555 1_555
O3 C4 1_555 1_555
C1OA C2OA 1_555 1_555
C1GG C2GG 1_555 1_555
C1NA C2NA 1_555 1_555
C1KD C2KD 1_555 1_555
C1R C2R 1_555 1_555
C1J C2J 1_555 1_555
C1AD C2AD 1_555 1_555
C1K C2K 1_555 1_555
C1YE C2YE 1_555 1_555
C1DG C2DG 1_555 1_555
C1LA C2LA 1_555 1_555
C1T O1T 1_555 1_555
C1ZD O1ZD 1_555 1_555
C1AG O1EC 1_555 1_555
C1IA O1CE 1_555 1_555
C1JF O1JF 1_555 1_555
C1M O1M 1_555 1_555
C1CF O1CF 1_555 1_555
C1BD O1LB 1_555 1_555
C1I O1EF 1_555 1_555
C1JD O1JD 1_555 1_555
C1S O1S 1_555 1_555
C2KD C3 1_555 1_555
C2OA C3R 1_555 1_555
C2R C3R 1_555 1_555
C2J C3OA 1_555 1_555
C2GG C3GG 1_555 1_555
C2AD C3GG 1_555 1_555
C2NA C3NA 1_555 1_555
C2K C3NA 1_555 1_555
C2YE C3EE 1_555 1_555
C2DG C3PE 1_555 1_555
C2LA C3LD 1_555 1_555
C3EE C2 1_555 1_555
C3R H1R 1_555 1_555
C3OA C2OA 1_555 1_555
C3GG H1GG 1_555 1_555
C3LD C2GG 1_555 1_555
C3NA H1NA 1_555 1_555
C3PE C2NA 1_555 1_555
C3YE C2KD 1_555 1_555
C3J C2R 1_555 1_555
C3LA C2AD 1_555 1_555
C3K C2K 1_555 1_555
H1OA C3OA 1_555 1_555
H1EE C3EE 1_555 1_555
H1PE C3PE 1_555 1_555
H1LD C3LD 1_555 1_555
H1YE C3YE 1_555 1_555
H1J C3J 1_555 1_555
H1LA C3LA 1_555 1_555
H1K C3K 1_555 1_555
C4EE C4 1_555 1_555
C4ZD C4JC 1_555 1_555
C4OE C4OA 1_555 1_555
C4OA C5OA 1_555 1_555
C4JC C5JC 1_555 1_555
C4ZB C4XE 1_555 1_555
C4GG C4VA 1_555 1_555
C4VA C5VA 1_555 1_555
C4NA C4PE 1_555 1_555
C4PE C5PE 1_555 1_555
C4XE C5XE 1_555 1_555
C4EC C4AG 1_555 1_555
C4RD C5RD 1_555 1_555
C4T O2T 1_555 1_555
C4DE O2T 1_555 1_555
C4KD O2KD 1_555 1_555
C4NC O2KD 1_555 1_555
C4DG O2DG 1_555 1_555
C4RB O2DG 1_555 1_555
C4CE O2IA 1_555 1_555
C4AG C5AG 1_555 1_555
C4IA O2IA 1_555 1_555
C4TF C5TF 1_555 1_555
C4R O2R 1_555 1_555
C4EG O2R 1_555 1_555
C4JF O2JF 1_555 1_555
C4LC O2JF 1_555 1_555
C4LA O2LA 1_555 1_555
C4LD O2LA 1_555 1_555
C4AC C5AC 1_555 1_555
C4AE C5AE 1_555 1_555
C4GA C5GA 1_555 1_555
C4J O2J 1_555 1_555
C4DF O2J 1_555 1_555
C4YE O2YE 1_555 1_555
C4KB O2YE 1_555 1_555
C4M O2M 1_555 1_555
C4CD O2M 1_555 1_555
C4K O2K 1_555 1_555
C4ED O2K 1_555 1_555
C4AD O2AD 1_555 1_555
C4MB O2AD 1_555 1_555
C4CF O2CF 1_555 1_555
C4GB O2CF 1_555 1_555
C4BD O2BD 1_555 1_555
C4LB O2BD 1_555 1_555
C4I O2I 1_555 1_555
C4EF O2I 1_555 1_555
C4JD O2JD 1_555 1_555
C4MC O2JD 1_555 1_555
C4S O2S 1_555 1_555
C4FG O2S 1_555 1_555
C5ZD C4ZD 1_555 1_555
C5EE C5 1_555 1_555
C5JC C5ZD 1_555 1_555
C5ZB C4ZB 1_555 1_555
C5XE C5JC 1_555 1_555
C5OE C4OE 1_555 1_555
C5OA C5OE 1_555 1_555
C5EC C4EC 1_555 1_555
C5GG C4GG 1_555 1_555
C5VA C5GG 1_555 1_555
C5NA C4NA 1_555 1_555
C5PE C5NA 1_555 1_555
C5RD C5OA 1_555 1_555
C5AG C5EC 1_555 1_555
C5AC C5GG 1_555 1_555
C5AE C5VA 1_555 1_555
C5TF C5NA 1_555 1_555
C5GA C5PE 1_555 1_555
C5H C5RD 1_555 1_555
C5XC C5AC 1_555 1_555
C5KA C5AE 1_555 1_555
C5G C5TF 1_555 1_555
C5CG C5GA 1_555 1_555
Cl1T Fe1T 1_555 1_555
Cl1IA Fe1ZD 1_555 1_555
Cl1R Fe1R 1_555 1_555
Cl1I Fe1J 1_555 1_555
Cl1K Fe1K 1_555 1_555
Cl1F Fe1F 1_555 1_555
Fe1OA Cl1 1_555 1_555
Fe1NA Cl1 1_555 1_555
Fe1PE Cl1 1_555 1_555
Fe1T O1KD 1_555 1_555
Fe1DG Cl1T 1_555 1_555
Fe1ZD O1ZD 1_555 1_555
Fe1CE Cl1IA 1_555 1_555
Fe1R O1R 1_555 1_555
Fe1LA Cl1R 1_555 1_555
Fe1J O1J 1_555 1_555
Fe1M Cl1I 1_555 1_555
Fe1K O1AD 1_555 1_555
Fe1CF Cl1K 1_555 1_555
Fe1ED Cl1K 1_555 1_555
Fe1EF Cl1I 1_555 1_555
Fe1JD Cl1T 1_555 1_555
Fe1S Cl1R 1_555 1_555
Fe1F O1F 1_555 1_555
Fe1TF Cl1F 1_555 1_555
Fe1DE Cl1T 1_555 1_555
Fe1IA Cl1IA 1_555 1_555
Fe1AG Cl1IA 1_555 1_555
Fe1FG Cl1R 1_555 1_555
Fe1I Cl1I 1_555 1_555
Fe1BD Cl1K 1_555 1_555
O1EE C1 1_555 1_555
O1OE Fe1 1_555 1_555
O1OA C1OA 1_555 1_555
O1GG C1GG 1_555 1_555
O1VA C1GG 1_555 1_555
O1NA C1NA 1_555 1_555
O1PE C1NA 1_555 1_555
O1KD C1KD 1_555 1_555
O1NC C1KD 1_555 1_555
O1R C1R 1_555 1_555
O1EG C1R 1_555 1_555
O1J C1J 1_555 1_555
O1DF C1J 1_555 1_555
O1AD C1AD 1_555 1_555
O1MB C1AD 1_555 1_555
O1K C1K 1_555 1_555
O1ED C1K 1_555 1_555
O1YE C1YE 1_555 1_555
O1KB C1YE 1_555 1_555
O1DG C1DG 1_555 1_555
O1RB C1DG 1_555 1_555
O1LA C1LA 1_555 1_555
O1LD C1LA 1_555 1_555
O1T Fe1T 1_555 1_555
O1EC Fe1ZD 1_555 1_555
O1CE Fe1CE 1_555 1_555
O1JC C1ZD 1_555 1_555
O1JF Fe1R 1_555 1_555
O1M Fe1M 1_555 1_555
O1CF Fe1CF 1_555 1_555
O1LB Fe1ED 1_555 1_555
O1EF Fe1EF 1_555 1_555
O1JD Fe1JD 1_555 1_555
O1S Fe1S 1_555 1_555
O1XE Fe1F 1_555 1_555
O1TF Fe1TF 1_555 1_555
O1ZB Fe1TF 1_555 1_555
O2OA Fe1 1_555 1_555
O2GG C4GG 1_555 1_555
O2NA C4NA 1_555 1_555
O2ZD C4ZD 1_555 1_555
O2XE C4ZB 1_555 1_555
O2T Fe1T 1_555 1_555
O2KD Fe1T 1_555 1_555
O2DG Fe1DG 1_555 1_555
O2AG C4EC 1_555 1_555
O2IA Fe1CE 1_555 1_555
O2R Fe1R 1_555 1_555
O2JF Fe1R 1_555 1_555
O2LA Fe1LA 1_555 1_555
O2J Fe1J 1_555 1_555
O2YE Fe1J 1_555 1_555
O2M Fe1M 1_555 1_555
O2K Fe1K 1_555 1_555
O2AD Fe1K 1_555 1_555
O2CF Fe1CF 1_555 1_555
O2BD Fe1ED 1_555 1_555
O2I Fe1EF 1_555 1_555
O2JD Fe1JD 1_555 1_555
O2S Fe1S 1_555 1_555
O2F Fe1F 1_555 1_555
O2G Fe1TF 1_555 1_555
O3OE Fe1 1_555 1_555
O3EE C4EE 1_555 1_555
O3OA C4OA 1_555 1_555
O3GG C4GG 1_555 1_555
O3NA C4NA 1_555 1_555
O3PE C4PE 1_555 1_555
O3VA C4VA 1_555 1_555
O3ZD C4ZD 1_555 1_555
O3JC C4JC 1_555 1_555
O3EC C4EC 1_555 1_555
O3ZB C4ZB 1_555 1_555
O3T C4T 1_555 1_555
O3KD C4KD 1_555 1_555
O3DG C4DG 1_555 1_555
O3NC C4NC 1_555 1_555
O3CE C4CE 1_555 1_555
O3XE C4XE 1_555 1_555
O3TF C4TF 1_555 1_555
O3R C4R 1_555 1_555
O3JF C4JF 1_555 1_555
O3LA C4LA 1_555 1_555
O3EG C4EG 1_555 1_555
O3J C4J 1_555 1_555
O3YE C4YE 1_555 1_555
O3M C4M 1_555 1_555
O3DF C4DF 1_555 1_555
O3K C4K 1_555 1_555
O3AD C4AD 1_555 1_555
O3CF C4CF 1_555 1_555
O3MB C4MB 1_555 1_555
O3ED C4ED 1_555 1_555
O3LB C4LB 1_555 1_555
O3EF C4EF 1_555 1_555
O3KB C4KB 1_555 1_555
O3JD C4JD 1_555 1_555
O3RB C4RB 1_555 1_555
O3S C4S 1_555 1_555
O3LD C4LD 1_555 1_555
O3F Fe1F 1_555 1_555
Fe1 O2 1_555 1_555
Fe1 O3 1_555 1_555
O2 C4EE 1_555 1_555
O2 Fe1NA 1_555 1_555
O3 O3OE 1_555 1_555
C1OA O1OE 1_555 1_555
C2J C3J 1_555 1_555
C2YE C3YE 1_555 1_555
C2DG C3K 1_555 1_555
C2LA C3LA 1_555 1_555
C4EE C5EE 1_555 1_555
C4OE O2OA 1_555 1_555
C4OE O3OE 1_555 1_555
C4OA O2OA 1_555 1_555
C4JC O2ZD 1_555 1_555
C4VA O2GG 1_555 1_555
C4PE O2NA 1_555 1_555
C4XE O2XE 1_555 1_555
C4AG O2AG 1_555 1_555
C5EE C5ZB 1_555 1_555
C5ZB C5XE 1_555 1_555
C5OE C5EC 1_555 1_555
C5AG C5H 1_555 1_555
Fe1OA O1OA 1_555 1_555
Fe1OA O1GG 1_555 1_555
Fe1OA O2OA 1_555 1_555
Fe1OA O2GG 1_555 1_555
Fe1OA O3OA 1_555 1_555
Fe1OA O3GG 1_555 1_555
Fe1NA O1EE 1_555 1_555
Fe1NA O1NA 1_555 1_555
Fe1NA O2NA 1_555 1_555
Fe1NA O3EE 1_555 1_555
Fe1NA O3NA 1_555 1_555
Fe1PE O1VA 1_555 1_555
Fe1PE O1PE 1_555 1_555
Fe1PE O2GG 1_555 1_555
Fe1PE O2NA 1_555 1_555
Fe1PE O3PE 1_555 1_555
Fe1PE O3VA 1_555 1_555
Fe1T O3T 1_555 1_555
Fe1T O3KD 1_555 1_555
Fe1DG O1NC 1_555 1_555
Fe1DG O1DG 1_555 1_555
Fe1DG O2KD 1_555 1_555
Fe1DG O3DG 1_555 1_555
Fe1DG O3NC 1_555 1_555
Fe1ZD O2ZD 1_555 1_555
Fe1ZD O2AG 1_555 1_555
Fe1ZD O3ZD 1_555 1_555
Fe1ZD O3EC 1_555 1_555
Fe1CE O1JC 1_555 1_555
Fe1CE O2ZD 1_555 1_555
Fe1CE O3JC 1_555 1_555
Fe1CE O3CE 1_555 1_555
Fe1R O3R 1_555 1_555
Fe1R O3JF 1_555 1_555
Fe1LA O1EG 1_555 1_555
Fe1LA O1LA 1_555 1_555
Fe1LA O2R 1_555 1_555
Fe1LA O3LA 1_555 1_555
Fe1LA O3EG 1_555 1_555
Fe1J O1YE 1_555 1_555
Fe1J O3J 1_555 1_555
Fe1J O3YE 1_555 1_555
Fe1M O1DF 1_555 1_555
Fe1M O2J 1_555 1_555
Fe1M O3M 1_555 1_555
Fe1M O3DF 1_555 1_555
Fe1K O1K 1_555 1_555
Fe1K O3K 1_555 1_555
Fe1K O3AD 1_555 1_555
Fe1CF O1MB 1_555 1_555
Fe1CF O2AD 1_555 1_555
Fe1CF O3CF 1_555 1_555
Fe1CF O3MB 1_555 1_555
Fe1ED O1ED 1_555 1_555
Fe1ED O2K 1_555 1_555
Fe1ED O3ED 1_555 1_555
Fe1ED O3LB 1_555 1_555
Fe1EF O1KB 1_555 1_555
Fe1EF O2YE 1_555 1_555
Fe1EF O3EF 1_555 1_555
Fe1EF O3KB 1_555 1_555
Fe1JD O1RB 1_555 1_555
Fe1JD O2DG 1_555 1_555
Fe1JD O3JD 1_555 1_555
Fe1JD O3RB 1_555 1_555
Fe1S O1LD 1_555 1_555
Fe1S O2LA 1_555 1_555
Fe1S O3S 1_555 1_555
Fe1S O3LD 1_555 1_555
Fe1F O2XE 1_555 1_555
Fe1F O3XE 1_555 1_555
Fe1TF O2XE 1_555 1_555
Fe1TF O3ZB 1_555 1_555
Fe1TF O3TF 1_555 1_555
Fe1DE O2T 1_555 1_555
Fe1DE O2JD 1_555 1_555
Fe1IA O2IA 1_555 1_555
Fe1AG O2AG 1_555 1_555
Fe1FG O2JF 1_555 1_555
Fe1FG O2S 1_555 1_555
Fe1I O2M 1_555 1_555
Fe1I O2I 1_555 1_555
Fe1BD O2CF 1_555 1_555
Fe1BD O2BD 1_555 1_555
O3EE O3NA 1_555 1_555
O3OA O3GG 1_555 1_555
O3PE O3VA 1_555 1_555
O3ZD O3EC 1_555 1_555
O3JC O3CE 1_555 1_555
O3ZB O3TF 1_555 1_555
O3T O3KD 1_555 1_555
O3DG O3NC 1_555 1_555
O3XE O3F 1_555 1_555
O3R O3JF 1_555 1_555
O3LA O3EG 1_555 1_555
O3J O3YE 1_555 1_555
O3M O3DF 1_555 1_555
O3K O3AD 1_555 1_555
O3CF O3MB 1_555 1_555
O3ED O3LB 1_555 1_555
O3EF O3KB 1_555 1_555
O3JD O3RB 1_555 1_555
O3S O3LD 1_555 1_555

#END
