
#######################################################################
#
#                 Cambridge Crystallographic Data Centre
#                                CCDC 
#
#######################################################################
#
# If this CIF has been generated from an entry in the Cambridge 
# Structural Database, then it will include bibliographic, chemical, 
# crystal, experimental, refinement or atomic coordinate data resulting 
# from the CCDC's data processing and validation procedures.
#
#######################################################################

data_NINZAL
_symmetry_cell_setting           monoclinic
_symmetry_space_group_name_H-M   'P 21/n'
_symmetry_Int_Tables_number      14
_space_group_name_Hall           '-P 2yn'
loop_
_symmetry_equiv_pos_site_id
_symmetry_equiv_pos_as_xyz
1 x,y,z
2 1/2-x,1/2+y,1/2-z
3 -x,-y,-z
4 1/2+x,1/2-y,1/2+z
_cell_length_a                   18.211(9)
_cell_length_b                   22.444(4)
_cell_length_c                   18.479(5)
_cell_angle_alpha                90
_cell_angle_beta                 97.65(3)
_cell_angle_gamma                90
_cell_volume                     7485.66
loop_
_atom_site_label
_atom_site_type_symbol
_atom_site_fract_x
_atom_site_fract_y
_atom_site_fract_z
Nd1 Nd 0.2403(1) 0.1197(1) 1.2469(1)
Nd2 Nd 0.2644(1) 0.1294(1) 0.7553(1)
S1 S 0.1577(2) 0.1928(2) 1.0804(2)
S2 S 0.3297(2) 0.1627(2) 0.4305(2)
S3 S 0.1223(2) 0.0315(3) 0.8166(3)
S4 S 0.3803(2) 0.2210(3) 1.1902(3)
S5 S 0.3451(2) 0.0584(2) 0.9246(2)
S6 S 0.1695(2) 0.0855(2) 0.5736(2)
S7 S 0.3897(2) 0.0184(2) 0.6906(3)
S8 S 0.1096(2) 0.2245(3) 0.3115(3)
O1 O 0.1504(5) 0.1679(5) 1.1553(6)
O2 O 0.3302(5) 0.1482(5) 0.3504(6)
O3 O 0.2023(6) 0.0509(7) 0.8132(9)
O4 O 0.3045(6) 0.1969(7) 1.1894(7)
O5 O 0.3554(5) 0.0835(5) 0.8513(6)
O6 O 0.1720(6) 0.1006(5) 0.6534(7)
O7 O 0.3110(7) 0.0435(7) 0.6895(9)
O8 O 0.1868(6) 0.2006(7) 0.3171(7)
O9 O 0.0772(6) 0.0496(5) 1.3656(7)
O10 O 0.1097(7) 0.0923(7) 1.2701(8)
O11 O 0.1911(6) 0.0710(5) 1.3593(6)
O12 O 0.3740(6) 0.0802(6) 1.2381(7)
O13 O 0.3071(6) 0.0234(5) 1.2927(8)
O14 O 0.4223(5) 0.0032(4) 1.2946(6)
O15 O 0.1792(8) 0.0293(6) 1.1747(8)
O16 O 0.2572(6) 0.0741(5) 1.1196(6)
O17 O 0.1980(7) -0.0016(5) 1.0689(5)
O18 O 0.4287(6) 0.1994(4) 0.6377(7)
O19 O 0.3965(5) 0.1517(6) 0.7280(7)
O20 O 0.3159(5) 0.1766(5) 0.6442(5)
O21 O 0.1305(6) 0.1728(6) 0.7681(8)
O22 O 0.0844(5) 0.2477(4) 0.7030(6)
O23 O 0.1997(6) 0.2247(5) 0.7074(8)
O24 O 0.3297(8) 0.2188(5) 0.8241(8)
O25 O 0.2505(6) 0.1776(5) 0.8817(6)
O26 O 0.3133(7) 0.2510(5) 0.9318(6)
N1 N 0.1257(6) 0.0704(4) 1.3330(7)
N2 N 0.3697(6) 0.0355(5) 1.2740(7)
N3 N 0.2124(6) 0.0334(5) 1.1200(6)
N4 N 0.3806(6) 0.1768(5) 0.6690(7)
N5 N 0.1356(6) 0.2150(5) 0.7248(7)
N6 N 0.2973(7) 0.2176(5) 0.8806(7)
C1 C 0.1440(6) 0.2710(6) 1.0842(7)
C2 C 0.1040(7) 0.2970(7) 1.1359(8)
C3 C 0.0970(7) 0.3569(7) 1.1398(8)
C4 C 0.1297(8) 0.3933(7) 1.0908(9)
C5 C 0.1690(8) 0.3663(8) 1.0383(8)
C6 C 0.1778(8) 0.3060(7) 1.0361(8)
C7 C 0.3533(7) 0.2396(7) 0.4389(7)
C8 C 0.3320(7) 0.2698(7) 0.5005(8)
C9 C 0.3476(8) 0.3300(8) 0.5058(8)
C10 C 0.3754(8) 0.3599(7) 0.4512(9)
C11 C 0.3960(8) 0.3296(8) 0.3901(9)
C12 C 0.3849(8) 0.2677(8) 0.3853(9)
C13 C 0.1246(7) -0.0488(7) 0.8101(8)
C14 C 0.1901(7) -0.0773(7) 0.8037(9)
C15 C 0.1853(8) -0.1383(7) 0.7925(8)
C16 C 0.1166(9) -0.1686(8) 0.7900(10)
C17 C 0.0563(8) -0.1374(8) 0.7953(10)
C18 C 0.0566(8) -0.0775(7) 0.8064(9)
C19 C 0.1072(8) 0.0368(7) 0.9099(9)
C20 C 0.1068(8) 0.1021(8) 0.9341(9)
C21 C 0.0687(7) 0.1091(7) 1.0030(8)
C22 C 0.0707(8) 0.1748(7) 1.0268(8)
C23 C 0.3738(7) 0.3007(7) 1.1949(8)
C24 C 0.3087(7) 0.3278(6) 1.2015(8)
C25 C 0.3054(8) 0.3898(8) 1.2102(9)
C26 C 0.3677(9) 0.4209(8) 1.2116(10)
C27 C 0.4352(9) 0.3946(8) 1.2066(9)
C28 C 0.4388(9) 0.3328(8) 1.1999(10)
C29 C 0.4005(7) 0.2150(6) 1.0974(7)
C30 C 0.3963(7) 0.1513(7) 1.0717(8)
C31 C 0.4351(7) 0.1405(6) 1.0054(7)
C32 C 0.4300(8) 0.0743(7) 0.9820(8)
C33 C 0.3591(6) -0.0200(6) 0.9181(7)
C34 C 0.3972(7) -0.0434(8) 0.8660(8)
C35 C 0.4014(8) -0.1066(7) 0.8594(9)
C36 C 0.3692(8) -0.1421(7) 0.9069(8)
C37 C 0.3333(8) -0.1169(8) 0.9611(9)
C38 C 0.3264(7) -0.0552(7) 0.9644(8)
C39 C 0.1434(6) 0.0091(7) 0.5638(7)
C40 C 0.1645(7) -0.0209(7) 0.5045(8)
C41 C 0.1472(9) -0.0821(8) 0.4975(9)
C42 C 0.1120(8) -0.1102(7) 0.5491(9)
C43 C 0.0920(8) -0.0788(7) 0.6084(9)
C44 C 0.1093(7) -0.0195(7) 0.6158(8)
C45 C 0.3741(6) -0.0590(6) 0.6691(7)
C46 C 0.4378(7) -0.0947(6) 0.6725(8)
C47 C 0.4245(7) -0.1557(6) 0.6625(8)
C48 C 0.3525(8) -0.1783(7) 0.6499(8)
C49 C 0.2942(8) -0.1419(7) 0.6488(8)
C50 C 0.3045(7) -0.0816(6) 0.6591(8)
C51 C 0.4279(6) 0.0432(5) 0.6103(7)
C52 C 0.3744(7) 0.0401(6) 0.5398(7)
C53 C 0.4112(7) 0.0639(7) 0.4755(8)
C54 C 0.4156(7) 0.1313(7) 0.4730(8)
C55 C 0.1167(7) 0.3020(6) 0.3306(8)
C56 C 0.0522(9) 0.3349(8) 0.3256(10)
C57 C 0.0566(8) 0.3958(7) 0.3325(9)
C58 C 0.1266(7) 0.4250(6) 0.3461(6)
C59 C 0.1884(8) 0.3907(7) 0.3513(9)
C60 C 0.1857(7) 0.3280(6) 0.3433(8)
C61 C 0.0698(7) 0.2011(7) 0.3922(8)
C62 C 0.1235(8) 0.2081(7) 0.4623(9)
C63 C 0.0869(8) 0.1859(7) 0.5294(8)
C64 C 0.0818(7) 0.1167(6) 0.5334(8)
O2_2 O 0.3302(5) 0.1482(5) 1.3504(6)
O8_2 O 0.1868(6) 0.2006(7) 1.3171(7)
Nd1_2 Nd 0.2403(1) 0.1197(1) 0.2469(1)
loop_
_geom_bond_atom_site_label_1
_geom_bond_atom_site_label_2
_geom_bond_site_symmetry_1
_geom_bond_site_symmetry_2
Nd1 O1 1_555 1_555
Nd2 O3 1_555 1_555
S1 O1 1_555 1_555
S2 O2 1_555 1_555
S3 O3 1_555 1_555
S4 O4 1_555 1_555
S5 O5 1_555 1_555
S6 O6 1_555 1_555
S7 O7 1_555 1_555
S8 O8 1_555 1_555
O2 Nd1_2 1_555 1_555
O4 Nd1 1_555 1_555
O5 Nd2 1_555 1_555
O6 Nd2 1_555 1_555
O7 Nd2 1_555 1_555
O8 Nd1_2 1_555 1_555
O9 N1 1_555 1_555
O10 Nd1 1_555 1_555
O11 Nd1 1_555 1_555
O12 Nd1 1_555 1_555
O13 Nd1 1_555 1_555
O14 N2 1_555 1_555
O15 Nd1 1_555 1_555
O16 Nd1 1_555 1_555
O17 N3 1_555 1_555
O18 N4 1_555 1_555
O19 Nd2 1_555 1_555
O20 Nd2 1_555 1_555
O21 Nd2 1_555 1_555
O22 N5 1_555 1_555
O23 Nd2 1_555 1_555
O24 Nd2 1_555 1_555
O25 Nd2 1_555 1_555
O26 N6 1_555 1_555
N1 O10 1_555 1_555
N2 O12 1_555 1_555
N3 O15 1_555 1_555
N4 O19 1_555 1_555
N5 O21 1_555 1_555
N6 O24 1_555 1_555
C1 S1 1_555 1_555
C2 C1 1_555 1_555
C3 C2 1_555 1_555
C4 C3 1_555 1_555
C5 C4 1_555 1_555
C6 C1 1_555 1_555
C7 S2 1_555 1_555
C8 C7 1_555 1_555
C9 C8 1_555 1_555
C10 C9 1_555 1_555
C11 C10 1_555 1_555
C12 C7 1_555 1_555
C13 S3 1_555 1_555
C14 C13 1_555 1_555
C15 C14 1_555 1_555
C16 C15 1_555 1_555
C17 C16 1_555 1_555
C18 C13 1_555 1_555
C19 S3 1_555 1_555
C20 C19 1_555 1_555
C21 C20 1_555 1_555
C22 S1 1_555 1_555
C23 S4 1_555 1_555
C24 C23 1_555 1_555
C25 C24 1_555 1_555
C26 C25 1_555 1_555
C27 C26 1_555 1_555
C28 C23 1_555 1_555
C29 S4 1_555 1_555
C30 C29 1_555 1_555
C31 C30 1_555 1_555
C32 S5 1_555 1_555
C33 S5 1_555 1_555
C34 C33 1_555 1_555
C35 C34 1_555 1_555
C36 C35 1_555 1_555
C37 C36 1_555 1_555
C38 C33 1_555 1_555
C39 S6 1_555 1_555
C40 C39 1_555 1_555
C41 C40 1_555 1_555
C42 C41 1_555 1_555
C43 C42 1_555 1_555
C44 C39 1_555 1_555
C45 S7 1_555 1_555
C46 C45 1_555 1_555
C47 C46 1_555 1_555
C48 C47 1_555 1_555
C49 C48 1_555 1_555
C50 C45 1_555 1_555
C51 S7 1_555 1_555
C52 C51 1_555 1_555
C53 C52 1_555 1_555
C54 S2 1_555 1_555
C55 S8 1_555 1_555
C56 C55 1_555 1_555
C57 C56 1_555 1_555
C58 C57 1_555 1_555
C59 C58 1_555 1_555
C60 C55 1_555 1_555
C61 S8 1_555 1_555
C62 C61 1_555 1_555
C63 C62 1_555 1_555
C64 S6 1_555 1_555
O2_2 Nd1 1_555 1_555
O8_2 Nd1 1_555 1_555
O11 N1 1_555 1_555
O13 N2 1_555 1_555
O16 N3 1_555 1_555
O20 N4 1_555 1_555
O23 N5 1_555 1_555
O25 N6 1_555 1_555
C5 C6 1_555 1_555
C11 C12 1_555 1_555
C17 C18 1_555 1_555
C21 C22 1_555 1_555
C27 C28 1_555 1_555
C31 C32 1_555 1_555
C37 C38 1_555 1_555
C43 C44 1_555 1_555
C49 C50 1_555 1_555
C53 C54 1_555 1_555
C59 C60 1_555 1_555
C63 C64 1_555 1_555

#END
