
#######################################################################
#
#                 Cambridge Crystallographic Data Centre
#                                CCDC 
#
#######################################################################
#
# If this CIF has been generated from an entry in the Cambridge 
# Structural Database, then it will include bibliographic, chemical, 
# crystal, experimental, refinement or atomic coordinate data resulting 
# from the CCDC's data processing and validation procedures.
#
#######################################################################

data_NIPNUW
_symmetry_cell_setting           trigonal
_symmetry_space_group_name_H-M   'P -3'
_symmetry_Int_Tables_number      147
_space_group_name_Hall           '-P 3'
loop_
_symmetry_equiv_pos_site_id
_symmetry_equiv_pos_as_xyz
1 x,y,z
2 -y,x-y,z
3 -x+y,-x,z
4 -x,-y,-z
5 y,-x+y,-z
6 x-y,x,-z
_cell_length_a                   13.389(2)
_cell_length_b                   13.389(2)
_cell_length_c                   9.174(3)
_cell_angle_alpha                90
_cell_angle_beta                 90
_cell_angle_gamma                120
_cell_volume                     1424.25
loop_
_atom_site_label
_atom_site_type_symbol
_atom_site_fract_x
_atom_site_fract_y
_atom_site_fract_z
Fe1 Fe 0.6667 0.3333 0.13773(3)
N1 N 0.6667 0.3333 -0.2274(2)
N2 N 0.53240(9) 0.31838(9) 0.03209(10)
N3 N 0.54526(8) 0.21362(8) 0.25563(10)
N4 N 0.36133(10) 0.11308(10) 0.30555(13)
H1 H 0.2881 0.0859 0.3000
C1 C 0.56377(13) 0.34035(14) -0.23357(14)
H2 H 0.4994 0.2642 -0.2545
H3 H 0.5703 0.3903 -0.3140
C2 C 0.53648(12) 0.38542(13) -0.09520(13)
H4 H 0.5950 0.4655 -0.0806
H5 H 0.4627 0.3818 -0.1064
C3 C 0.43419(10) 0.25064(12) 0.09011(14)
H6 H 0.3651 0.2414 0.0544
C4 C 0.44126(10) 0.19066(11) 0.21509(13)
C5 C 0.41661(13) 0.08519(13) 0.40711(16)
H7 H 0.3829 0.0333 0.4836
C6 C 0.53087(11) 0.14770(11) 0.37565(14)
H8 H 0.5896 0.1458 0.4274
N2A N 0.68162(9) 0.21402(13) 0.03209(10)
N2B N 0.78598(13) 0.46760(9) 0.03209(10)
N3A N 0.78638(8) 0.33164(11) 0.25563(10)
N3B N 0.66836(11) 0.45474(8) 0.25563(10)
N4A N 0.88692(10) 0.24825(14) 0.30555(13)
N4B N 0.75175(14) 0.63867(10) 0.30555(13)
H1A H 0.9141 0.2022 0.3000
H1B H 0.7978 0.7119 0.3000
C1A C 0.65965(14) 0.22342(19) -0.23357(14)
C1B C 0.77658(19) 0.43623(13) -0.23357(14)
H2A H 0.7358 0.2352 -0.2545
H2B H 0.7648 0.5006 -0.2545
H3A H 0.6097 0.1800 -0.3140
H3B H 0.8200 0.4297 -0.3140
C2A C 0.61458(13) 0.15106(18) -0.09520(13)
C2B C 0.84894(18) 0.46352(12) -0.09520(13)
H4A H 0.5345 0.1295 -0.0806
H4B H 0.8705 0.4050 -0.0806
H5A H 0.6182 0.0809 -0.1064
H5B H 0.9191 0.5373 -0.1064
C3A C 0.74936(12) 0.18355(16) 0.09011(14)
C3B C 0.81645(16) 0.56581(10) 0.09011(14)
H6A H 0.7586 0.1237 0.0544
H6B H 0.8763 0.6349 0.0544
C4A C 0.80934(11) 0.25060(15) 0.21509(13)
C4B C 0.74940(15) 0.55874(10) 0.21509(13)
C5A C 0.91481(13) 0.33142(18) 0.40711(16)
C5B C 0.66858(18) 0.58339(13) 0.40711(16)
H7A H 0.9667 0.3496 0.4836
H7B H 0.6504 0.6171 0.4836
C6A C 0.85230(11) 0.38317(16) 0.37565(14)
C6B C 0.61683(16) 0.46913(11) 0.37565(14)
H8A H 0.8542 0.4438 0.4274
H8B H 0.5562 0.4104 0.4274
K1 K 1.0000 0.0000 0.0000
K2 K 1.0000 0.0000 -0.5000
Cl1 Cl 0.84481(2) -0.23069(2) -0.25597(3)
O1 O 0.89598(9) -0.23770(9) -0.38958(11)
O2 O 0.91026(11) -0.23629(10) -0.13617(11)
O3 O 0.84971(9) -0.12072(8) -0.25009(12)
O4 O 0.72801(9) -0.32124(9) -0.24754(14)
K2_2 K 1.0000 0.0000 0.5000
Cl1A Cl 1.23069(2) 0.07550(3) -0.25597(3)
Cl1B Cl 0.92450(3) 0.15519(2) -0.25597(3)
Cl1C Cl 1.15519(2) 0.23069(2) 0.25597(3)
Cl1D Cl 0.76931(2) -0.07550(3) 0.25597(3)
Cl1E Cl 1.07550(3) -0.15519(2) 0.25597(3)
O1A O 1.23770(9) 0.13368(13) -0.38958(11)
O1B O 0.86632(13) 0.10402(9) -0.38958(11)
O1C O 1.10402(9) 0.23770(9) 0.38958(11)
O1D O 0.76230(9) -0.13368(13) 0.38958(11)
O1E O 1.13368(13) -0.10402(9) 0.38958(11)
O1C_2 O 1.10402(9) 0.23770(9) -0.61042(11)
O1D_2 O 0.76230(9) -0.13368(13) -0.61042(11)
O1E_2 O 1.13368(13) -0.10402(9) -0.61042(11)
O2A O 1.23629(10) 0.14655(15) -0.13617(11)
O2B O 0.85345(15) 0.08974(11) -0.13617(11)
O2C O 1.08974(11) 0.23629(10) 0.13617(11)
O2D O 0.76371(10) -0.14655(15) 0.13617(11)
O2E O 1.14655(15) -0.08974(11) 0.13617(11)
O3A O 1.12072(8) -0.02957(12) -0.25009(12)
O3B O 1.02957(12) 0.15029(9) -0.25009(12)
O3C O 1.15029(9) 0.12072(8) 0.25009(12)
O3D O 0.87928(8) 0.02957(12) 0.25009(12)
O3E O 0.97043(12) -0.15029(9) 0.25009(12)
O3C_2 O 1.15029(9) 0.12072(8) -0.74991(12)
O3D_2 O 0.87928(8) 0.02957(12) -0.74991(12)
O3E_2 O 0.97043(12) -0.15029(9) -0.74991(12)
O4A O 1.32124(9) 0.04925(13) -0.24754(14)
O4B O 0.95075(13) 0.27199(9) -0.24754(14)
O4C O 1.27199(9) 0.32124(9) 0.24754(14)
O4D O 0.67876(9) -0.04925(13) 0.24754(14)
O4E O 1.04925(13) -0.27199(9) 0.24754(14)
loop_
_geom_bond_atom_site_label_1
_geom_bond_atom_site_label_2
_geom_bond_site_symmetry_1
_geom_bond_site_symmetry_2
Fe1 N2 1_555 1_555
K1 O2 1_555 1_555
K2 O1 1_555 1_555
Cl1 O1 1_555 1_555
O2 Cl1 1_555 1_555
O3 K1 1_555 1_555
O4 Cl1 1_555 1_555
N1 C1 1_555 1_555
N2 C2 1_555 1_555
N3 Fe1 1_555 1_555
N4 H1 1_555 1_555
C1 H2 1_555 1_555
H3 C1 1_555 1_555
C2 C1 1_555 1_555
H4 C2 1_555 1_555
H5 C2 1_555 1_555
C3 N2 1_555 1_555
H6 C3 1_555 1_555
C4 N3 1_555 1_555
C5 N4 1_555 1_555
H7 C5 1_555 1_555
C6 N3 1_555 1_555
H8 C6 1_555 1_555
K2_2 O1C 1_555 1_555
Cl1A O1A 1_555 1_555
Cl1B O1B 1_555 1_555
Cl1C O1C 1_555 1_555
Cl1D O1D 1_555 1_555
Cl1E O1E 1_555 1_555
O1A K2 1_555 1_555
O1B K2 1_555 1_555
O1D K2_2 1_555 1_555
O1E K2_2 1_555 1_555
O1C_2 K2 1_555 1_555
O1D_2 K2 1_555 1_555
O1E_2 K2 1_555 1_555
O2A K1 1_555 1_555
O2B K1 1_555 1_555
O2C K1 1_555 1_555
O2D K1 1_555 1_555
O2E K1 1_555 1_555
O3A K1 1_555 1_555
O3B K1 1_555 1_555
O3C K1 1_555 1_555
O3D K1 1_555 1_555
O3E K1 1_555 1_555
O3C_2 K2 1_555 1_555
O3D_2 K2 1_555 1_555
O3E_2 K2 1_555 1_555
O4A Cl1A 1_555 1_555
O4B Cl1B 1_555 1_555
O4C Cl1C 1_555 1_555
O4D Cl1D 1_555 1_555
O4E Cl1E 1_555 1_555
N2A Fe1 1_555 1_555
N2B Fe1 1_555 1_555
N3A Fe1 1_555 1_555
N3B Fe1 1_555 1_555
N4A H1A 1_555 1_555
N4B H1B 1_555 1_555
C1A N1 1_555 1_555
C1B N1 1_555 1_555
H2A C1A 1_555 1_555
H2B C1B 1_555 1_555
H3A C1A 1_555 1_555
H3B C1B 1_555 1_555
C2A N2A 1_555 1_555
C2B N2B 1_555 1_555
H4A C2A 1_555 1_555
H4B C2B 1_555 1_555
H5A C2A 1_555 1_555
H5B C2B 1_555 1_555
C3A N2A 1_555 1_555
C3B N2B 1_555 1_555
H6A C3A 1_555 1_555
H6B C3B 1_555 1_555
C4A N3A 1_555 1_555
C4B N3B 1_555 1_555
C5A N4A 1_555 1_555
C5B N4B 1_555 1_555
H7A C5A 1_555 1_555
H7B C5B 1_555 1_555
C6A N3A 1_555 1_555
C6B N3B 1_555 1_555
H8A C6A 1_555 1_555
H8B C6B 1_555 1_555
K2 O3 1_555 1_555
K2 O3A 1_555 1_555
K2 O3B 1_555 1_555
Cl1 O3 1_555 1_555
N4 C4 1_555 1_555
C3 C4 1_555 1_555
C5 C6 1_555 1_555
K2_2 O3C 1_555 1_555
K2_2 O3D 1_555 1_555
K2_2 O3E 1_555 1_555
Cl1A O2A 1_555 1_555
Cl1A O3A 1_555 1_555
Cl1B O2B 1_555 1_555
Cl1B O3B 1_555 1_555
Cl1C O2C 1_555 1_555
Cl1C O3C 1_555 1_555
Cl1D O2D 1_555 1_555
Cl1D O3D 1_555 1_555
Cl1E O2E 1_555 1_555
Cl1E O3E 1_555 1_555
N4A C4A 1_555 1_555
N4B C4B 1_555 1_555
C1A C2A 1_555 1_555
C1B C2B 1_555 1_555
C3A C4A 1_555 1_555
C3B C4B 1_555 1_555
C5A C6A 1_555 1_555
C5B C6B 1_555 1_555

#END
