
#######################################################################
#
#                 Cambridge Crystallographic Data Centre
#                                CCDC 
#
#######################################################################
#
# If this CIF has been generated from an entry in the Cambridge 
# Structural Database, then it will include bibliographic, chemical, 
# crystal, experimental, refinement or atomic coordinate data resulting 
# from the CCDC's data processing and validation procedures.
#
#######################################################################

data_NIPPAE
_symmetry_cell_setting           trigonal
_symmetry_space_group_name_H-M   'P -3'
_symmetry_Int_Tables_number      147
_space_group_name_Hall           '-P 3'
loop_
_symmetry_equiv_pos_site_id
_symmetry_equiv_pos_as_xyz
1 x,y,z
2 -y,x-y,z
3 -x+y,-x,z
4 -x,-y,-z
5 y,-x+y,-z
6 x-y,x,-z
_cell_length_a                   13.4744(8)
_cell_length_b                   13.4744(8)
_cell_length_c                   9.3487(11)
_cell_angle_alpha                90
_cell_angle_beta                 90
_cell_angle_gamma                120
_cell_volume                     1469.94
loop_
_atom_site_label
_atom_site_type_symbol
_atom_site_fract_x
_atom_site_fract_y
_atom_site_fract_z
Fe1 Fe 0.3333 0.6667 0.35743(3)
N1 N 0.3333 0.6667 0.7186(2)
N2 N 0.46877(10) 0.78363(10) 0.46217(12)
N3 N 0.45336(9) 0.66585(10) 0.24078(12)
N4 N 0.63701(12) 0.74511(14) 0.19246(17)
H1 H 0.701(2) 0.786(2) 0.198(3)
C1 C 0.43744(15) 0.77565(15) 0.72442(16)
H2 H 0.5018 0.7623 0.7459
H3 H 0.4316 0.8205 0.8046
C2 C 0.46607(14) 0.84761(13) 0.58737(15)
H4 H 0.4079 0.8710 0.5724
H5 H 0.5416 0.9179 0.5984
C3 C 0.56667(12) 0.81163(13) 0.40565(16)
H6 H 0.6375 0.8709 0.4422
C4 C 0.55807(12) 0.74436(13) 0.28196(15)
C5 C 0.46633(13) 0.61433(13) 0.12125(16)
H7 H 0.4060 0.5543 0.0683
C6 C 0.58090(15) 0.66390(16) 0.09094(19)
H8 H 0.6145 0.6451 0.0139
N2A N 0.21637(10) 0.68514(14) 0.46217(12)
N2B N 0.31486(14) 0.53123(10) 0.46217(12)
N3A N 0.33415(10) 0.78751(13) 0.24078(12)
N3B N 0.21249(13) 0.54664(9) 0.24078(12)
N4A N 0.25489(14) 0.89190(18) 0.19246(17)
N4B N 0.10810(18) 0.36299(12) 0.19246(17)
H1A H 0.214(2) 0.915(3) 0.198(3)
H1B H 0.085(3) 0.299(2) 0.198(3)
C1A C 0.22435(15) 0.66179(21) 0.72442(16)
C1B C 0.33821(21) 0.56256(15) 0.72442(16)
H2A H 0.2377 0.7395 0.7459
H2B H 0.2605 0.4982 0.7459
H3A H 0.1795 0.6111 0.8046
H3B H 0.3889 0.5684 0.8046
C2A C 0.15239(13) 0.61846(19) 0.58737(15)
C2B C 0.38154(19) 0.53393(14) 0.58737(15)
H4A H 0.1290 0.5369 0.5724
H4B H 0.4631 0.5921 0.5724
H5A H 0.0821 0.6237 0.5984
H5B H 0.3763 0.4584 0.5984
C3A C 0.18837(13) 0.75504(18) 0.40565(16)
C3B C 0.24496(18) 0.43333(12) 0.40565(16)
H6A H 0.1291 0.7666 0.4422
H6B H 0.2334 0.3625 0.4422
C4A C 0.25564(13) 0.81371(18) 0.28196(15)
C4B C 0.18629(18) 0.44193(12) 0.28196(15)
C5A C 0.38567(13) 0.85200(18) 0.12125(16)
C5B C 0.14800(18) 0.53367(13) 0.12125(16)
H7A H 0.4457 0.8517 0.0683
H7B H 0.1483 0.5940 0.0683
C6A C 0.33610(16) 0.91700(22) 0.09094(19)
C6B C 0.08300(22) 0.41910(15) 0.09094(19)
H8A H 0.3549 0.9694 0.0139
H8B H 0.0306 0.3855 0.0139
Rb1 Rb 1.0000 1.0000 0.0000
Rb2 Rb 1.0000 1.0000 0.5000
Cl1 Cl 0.83852(3) 1.07455(3) 0.24369(4)
O1 O 0.84357(10) 0.96950(9) 0.24920(12)
O2 O 0.88853(11) 1.13301(10) 0.11176(12)
O3 O 0.90488(12) 1.14644(11) 0.36081(13)
O4 O 0.72184(11) 1.04814(12) 0.25344(16)
Rb2_2 Rb 1.0000 1.0000 -0.5000
Cl1A Cl 0.92545(3) 0.76397(4) 0.24369(4)
Cl1B Cl 1.23603(4) 1.16148(3) 0.24369(4)
Cl1C Cl 1.16148(3) 0.92545(3) -0.24369(4)
Cl1D Cl 1.07455(3) 1.23603(4) -0.24369(4)
Cl1E Cl 0.76397(4) 0.83852(3) -0.24369(4)
O1A O 1.03050(9) 0.87407(13) 0.24920(12)
O1B O 1.12593(13) 1.15643(10) 0.24920(12)
O1C O 1.15643(10) 1.03050(9) -0.24920(12)
O1D O 0.96950(9) 1.12593(13) -0.24920(12)
O1E O 0.87407(13) 0.84357(10) -0.24920(12)
O1C_2 O 1.15643(10) 1.03050(9) 0.75080(12)
O1D_2 O 0.96950(9) 1.12593(13) 0.75080(12)
O1E_2 O 0.87407(13) 0.84357(10) 0.75080(12)
O2A O 0.86699(10) 0.75552(15) 0.11176(12)
O2B O 1.24448(15) 1.11147(11) 0.11176(12)
O2C O 1.11147(11) 0.86699(10) -0.11176(12)
O2D O 1.13301(10) 1.24448(15) -0.11176(12)
O2E O 0.75552(15) 0.88853(11) -0.11176(12)
O3A O 0.85356(11) 0.75844(16) 0.36081(13)
O3B O 1.24156(16) 1.09512(12) 0.36081(13)
O3C O 1.09512(12) 0.85356(11) -0.36081(13)
O3D O 1.14644(11) 1.24156(16) -0.36081(13)
O3E O 0.75844(16) 0.90488(12) -0.36081(13)
O3C_2 O 1.09512(12) 0.85356(11) 0.63919(13)
O3D_2 O 1.14644(11) 1.24156(16) 0.63919(13)
O3E_2 O 0.75844(16) 0.90488(12) 0.63919(13)
O4A O 0.95186(12) 0.67370(16) 0.25344(16)
O4B O 1.32630(16) 1.27816(11) 0.25344(16)
O4C O 1.27816(11) 0.95186(12) -0.25344(16)
O4D O 1.04814(12) 1.32630(16) -0.25344(16)
O4E O 0.67370(16) 0.72184(11) -0.25344(16)
loop_
_geom_bond_atom_site_label_1
_geom_bond_atom_site_label_2
_geom_bond_site_symmetry_1
_geom_bond_site_symmetry_2
Fe1 N2 1_555 1_555
Rb1 O1 1_555 1_555
Rb2 O1 1_555 1_555
Cl1 O1 1_555 1_555
O2 Rb1 1_555 1_555
O3 Rb2 1_555 1_555
O4 Cl1 1_555 1_555
N1 C1 1_555 1_555
N2 C2 1_555 1_555
N3 Fe1 1_555 1_555
N4 H1 1_555 1_555
C1 H2 1_555 1_555
H3 C1 1_555 1_555
C2 C1 1_555 1_555
H4 C2 1_555 1_555
H5 C2 1_555 1_555
C3 N2 1_555 1_555
H6 C3 1_555 1_555
C4 N3 1_555 1_555
C5 N3 1_555 1_555
H7 C5 1_555 1_555
C6 N4 1_555 1_555
H8 C6 1_555 1_555
Rb2_2 O1C 1_555 1_555
Cl1A O1A 1_555 1_555
Cl1B O1B 1_555 1_555
Cl1C O1C 1_555 1_555
Cl1D O1D 1_555 1_555
Cl1E O1E 1_555 1_555
O1A Rb1 1_555 1_555
O1B Rb1 1_555 1_555
O1C Rb1 1_555 1_555
O1D Rb1 1_555 1_555
O1E Rb1 1_555 1_555
O1C_2 Rb2 1_555 1_555
O1D_2 Rb2 1_555 1_555
O1E_2 Rb2 1_555 1_555
O2A Rb1 1_555 1_555
O2B Rb1 1_555 1_555
O2C Rb1 1_555 1_555
O2D Rb1 1_555 1_555
O2E Rb1 1_555 1_555
O3A Rb2 1_555 1_555
O3B Rb2 1_555 1_555
O3C Rb2_2 1_555 1_555
O3D Rb2_2 1_555 1_555
O3E Rb2_2 1_555 1_555
O3C_2 Rb2 1_555 1_555
O3D_2 Rb2 1_555 1_555
O3E_2 Rb2 1_555 1_555
O4A Cl1A 1_555 1_555
O4B Cl1B 1_555 1_555
O4C Cl1C 1_555 1_555
O4D Cl1D 1_555 1_555
O4E Cl1E 1_555 1_555
N2A Fe1 1_555 1_555
N2B Fe1 1_555 1_555
N3A Fe1 1_555 1_555
N3B Fe1 1_555 1_555
N4A H1A 1_555 1_555
N4B H1B 1_555 1_555
C1A N1 1_555 1_555
C1B N1 1_555 1_555
H2A C1A 1_555 1_555
H2B C1B 1_555 1_555
H3A C1A 1_555 1_555
H3B C1B 1_555 1_555
C2A N2A 1_555 1_555
C2B N2B 1_555 1_555
H4A C2A 1_555 1_555
H4B C2B 1_555 1_555
H5A C2A 1_555 1_555
H5B C2B 1_555 1_555
C3A N2A 1_555 1_555
C3B N2B 1_555 1_555
H6A C3A 1_555 1_555
H6B C3B 1_555 1_555
C4A N3A 1_555 1_555
C4B N3B 1_555 1_555
C5A N3A 1_555 1_555
C5B N3B 1_555 1_555
H7A C5A 1_555 1_555
H7B C5B 1_555 1_555
C6A N4A 1_555 1_555
C6B N4B 1_555 1_555
H8A C6A 1_555 1_555
H8B C6B 1_555 1_555
Rb2 O1A 1_555 1_555
Rb2 O1B 1_555 1_555
Cl1 O2 1_555 1_555
Cl1 O3 1_555 1_555
N4 C4 1_555 1_555
C3 C4 1_555 1_555
C5 C6 1_555 1_555
Rb2_2 O1D 1_555 1_555
Rb2_2 O1E 1_555 1_555
Cl1A O2A 1_555 1_555
Cl1A O3A 1_555 1_555
Cl1B O2B 1_555 1_555
Cl1B O3B 1_555 1_555
Cl1C O2C 1_555 1_555
Cl1C O3C 1_555 1_555
Cl1D O2D 1_555 1_555
Cl1D O3D 1_555 1_555
Cl1E O2E 1_555 1_555
Cl1E O3E 1_555 1_555
N4A C4A 1_555 1_555
N4B C4B 1_555 1_555
C1A C2A 1_555 1_555
C1B C2B 1_555 1_555
C3A C4A 1_555 1_555
C3B C4B 1_555 1_555
C5A C6A 1_555 1_555
C5B C6B 1_555 1_555

#END
