
#######################################################################
#
#                 Cambridge Crystallographic Data Centre
#                                CCDC 
#
#######################################################################
#
# If this CIF has been generated from an entry in the Cambridge 
# Structural Database, then it will include bibliographic, chemical, 
# crystal, experimental, refinement or atomic coordinate data resulting 
# from the CCDC's data processing and validation procedures.
#
#######################################################################

data_NIPPOS
_symmetry_cell_setting           trigonal
_symmetry_space_group_name_H-M   'P -3'
_symmetry_Int_Tables_number      147
_space_group_name_Hall           '-P 3'
loop_
_symmetry_equiv_pos_site_id
_symmetry_equiv_pos_as_xyz
1 x,y,z
2 -y,x-y,z
3 -x+y,-x,z
4 -x,-y,-z
5 y,-x+y,-z
6 x-y,x,-z
_cell_length_a                   13.5022(13)
_cell_length_b                   13.5022(13)
_cell_length_c                   9.5419(13)
_cell_angle_alpha                90
_cell_angle_beta                 90
_cell_angle_gamma                120
_cell_volume                     1506.52
loop_
_atom_site_label
_atom_site_type_symbol
_atom_site_fract_x
_atom_site_fract_y
_atom_site_fract_z
Cs1 Cs -1.0000 0.0000 0.0000
Cs2 Cs -1.0000 0.0000 -0.5000
Cl1 Cl -0.75540(6) 0.07276(6) -0.24243(8)
O1 O -0.86574(19) -0.03172(19) -0.2477(2)
O2 O -0.7461(2) 0.1313(2) -0.1132(3)
O3 O -0.7503(2) 0.1458(2) -0.3557(3)
O4 O -0.6661(2) 0.0457(3) -0.2526(4)
Cs2_2 Cs -1.0000 0.0000 0.5000
Cl1A Cl -1.07276(6) 0.17184(8) -0.24243(8)
Cl1B Cl -1.17184(8) -0.24460(6) -0.24243(8)
Cl1C Cl -1.24460(6) -0.07276(6) 0.24243(8)
Cl1D Cl -0.92724(6) -0.17184(8) 0.24243(8)
Cl1E Cl -0.82816(8) 0.24460(6) 0.24243(8)
O1A O -0.96828(19) 0.16598(27) -0.2477(2)
O1B O -1.16598(27) -0.13426(19) -0.2477(2)
O1C O -1.13426(19) 0.03172(19) 0.2477(2)
O1D O -1.03172(19) -0.16598(27) 0.2477(2)
O1E O -0.83402(27) 0.13426(19) 0.2477(2)
O1C_2 O -1.13426(19) 0.03172(19) -0.7523(2)
O1D_2 O -1.03172(19) -0.16598(27) -0.7523(2)
O1E_2 O -0.83402(27) 0.13426(19) -0.7523(2)
O2A O -1.1313(2) 0.1226(3) -0.1132(3)
O2B O -1.1226(3) -0.2539(2) -0.1132(3)
O2C O -1.2539(2) -0.1313(2) 0.1132(3)
O2D O -0.8687(2) -0.1226(3) 0.1132(3)
O2E O -0.8774(3) 0.2539(2) 0.1132(3)
O3A O -1.1458(2) 0.1039(3) -0.3557(3)
O3B O -1.1039(3) -0.2497(2) -0.3557(3)
O3C O -1.2497(2) -0.1458(2) 0.3557(3)
O3D O -0.8542(2) -0.1039(3) 0.3557(3)
O3E O -0.8961(3) 0.2497(2) 0.3557(3)
O3C_2 O -1.2497(2) -0.1458(2) -0.6443(3)
O3D_2 O -0.8542(2) -0.1039(3) -0.6443(3)
O3E_2 O -0.8961(3) 0.2497(2) -0.6443(3)
O4A O -1.0457(3) 0.2882(4) -0.2526(4)
O4B O -1.2882(4) -0.3339(2) -0.2526(4)
O4C O -1.3339(2) -0.0457(3) 0.2526(4)
O4D O -0.9543(3) -0.2882(4) 0.2526(4)
O4E O -0.7118(4) 0.3339(2) 0.2526(4)
Fe1 Fe -0.6667 -0.3333 -0.35285(6)
N1 N -0.6667 -0.3333 -0.7077(5)
N2 N -0.6886(2) -0.21880(19) -0.4563(2)
N3 N -0.78877(19) -0.33710(19) -0.2384(2)
N4 N -0.8984(3) -0.2631(3) -0.1934(3)
H1 H -0.9306 -0.2205 -0.2010
C1 C -0.6636(3) -0.2250(3) -0.7135(3)
H2 H -0.7414 -0.2395 -0.7355
H3 H -0.6128 -0.1794 -0.7914
C2 C -0.6225(3) -0.1538(3) -0.5791(3)
H4 H -0.5407 -0.1286 -0.5640
H5 H -0.6295 -0.0846 -0.5899
C3 C -0.7610(3) -0.1942(3) -0.4022(3)
H6 H -0.7753 -0.1371 -0.4390
C4 C -0.8182(2) -0.2614(3) -0.2807(3)
C5 C -0.9202(3) -0.3422(3) -0.0925(4)
H7 H -0.9723 -0.3615 -0.0167
C6 C -0.8526(3) -0.3890(3) -0.1210(3)
H8 H -0.8503 -0.4475 -0.0683
N2A N -0.78120(19) -0.46980(28) -0.4563(2)
N2B N -0.53020(28) -0.3114(2) -0.4563(2)
N3A N -0.66290(19) -0.45167(27) -0.2384(2)
N3B N -0.54833(27) -0.21123(19) -0.2384(2)
N4A N -0.7369(3) -0.6353(4) -0.1934(3)
N4B N -0.3647(4) -0.1016(3) -0.1934(3)
H1A H -0.7795 -0.7101 -0.2010
H1B H -0.2899 -0.0694 -0.2010
C1A C -0.7750(3) -0.4386(4) -0.7135(3)
C1B C -0.5614(4) -0.3364(3) -0.7135(3)
H2A H -0.7605 -0.5019 -0.7355
H2B H -0.4981 -0.2586 -0.7355
H3A H -0.8206 -0.4334 -0.7914
H3B H -0.5666 -0.3872 -0.7914
C2A C -0.8462(3) -0.4687(4) -0.5791(3)
C2B C -0.5313(4) -0.3775(3) -0.5791(3)
H4A H -0.8714 -0.4121 -0.5640
H4B H -0.5879 -0.4593 -0.5640
H5A H -0.9154 -0.5449 -0.5899
H5B H -0.4551 -0.3705 -0.5899
C3A C -0.8058(3) -0.5668(4) -0.4022(3)
C3B C -0.4332(4) -0.2390(3) -0.4022(3)
H6A H -0.8629 -0.6382 -0.4390
H6B H -0.3618 -0.2247 -0.4390
C4A C -0.7386(3) -0.5568(4) -0.2807(3)
C4B C -0.4432(4) -0.1818(2) -0.2807(3)
C5A C -0.6578(3) -0.5780(4) -0.0925(4)
C5B C -0.4220(4) -0.0798(3) -0.0925(4)
H7A H -0.6385 -0.6108 -0.0167
H7B H -0.3892 -0.0277 -0.0167
C6A C -0.6110(3) -0.4636(4) -0.1210(3)
C6B C -0.5364(4) -0.1474(3) -0.1210(3)
H8A H -0.5525 -0.4028 -0.0683
H8B H -0.5972 -0.1497 -0.0683
loop_
_geom_bond_atom_site_label_1
_geom_bond_atom_site_label_2
_geom_bond_site_symmetry_1
_geom_bond_site_symmetry_2
Cs1 O1 1_555 1_555
Cs2 O1 1_555 1_555
Fe1 N2 1_555 1_555
Cl1 O1 1_555 1_555
O2 Cs1 1_555 1_555
O3 Cs2 1_555 1_555
O4 Cl1 1_555 1_555
N1 C1 1_555 1_555
N2 C2 1_555 1_555
N3 Fe1 1_555 1_555
N4 H1 1_555 1_555
C1 H2 1_555 1_555
H3 C1 1_555 1_555
C2 C1 1_555 1_555
H4 C2 1_555 1_555
H5 C2 1_555 1_555
C3 N2 1_555 1_555
H6 C3 1_555 1_555
C4 N3 1_555 1_555
C5 N4 1_555 1_555
H7 C5 1_555 1_555
C6 N3 1_555 1_555
H8 C6 1_555 1_555
Cs2_2 O1C 1_555 1_555
Cl1A O1A 1_555 1_555
Cl1B O1B 1_555 1_555
Cl1C O1C 1_555 1_555
Cl1D O1D 1_555 1_555
Cl1E O1E 1_555 1_555
O1A Cs1 1_555 1_555
O1B Cs1 1_555 1_555
O1C Cs1 1_555 1_555
O1D Cs1 1_555 1_555
O1E Cs1 1_555 1_555
O1C_2 Cs2 1_555 1_555
O1D_2 Cs2 1_555 1_555
O1E_2 Cs2 1_555 1_555
O2A Cs1 1_555 1_555
O2B Cs1 1_555 1_555
O2C Cs1 1_555 1_555
O2D Cs1 1_555 1_555
O2E Cs1 1_555 1_555
O3A Cs2 1_555 1_555
O3B Cs2 1_555 1_555
O3C Cs2_2 1_555 1_555
O3D Cs2_2 1_555 1_555
O3E Cs2_2 1_555 1_555
O3C_2 Cs2 1_555 1_555
O3D_2 Cs2 1_555 1_555
O3E_2 Cs2 1_555 1_555
O4A Cl1A 1_555 1_555
O4B Cl1B 1_555 1_555
O4C Cl1C 1_555 1_555
O4D Cl1D 1_555 1_555
O4E Cl1E 1_555 1_555
N2A Fe1 1_555 1_555
N2B Fe1 1_555 1_555
N3A Fe1 1_555 1_555
N3B Fe1 1_555 1_555
N4A H1A 1_555 1_555
N4B H1B 1_555 1_555
C1A N1 1_555 1_555
C1B N1 1_555 1_555
H2A C1A 1_555 1_555
H2B C1B 1_555 1_555
H3A C1A 1_555 1_555
H3B C1B 1_555 1_555
C2A N2A 1_555 1_555
C2B N2B 1_555 1_555
H4A C2A 1_555 1_555
H4B C2B 1_555 1_555
H5A C2A 1_555 1_555
H5B C2B 1_555 1_555
C3A N2A 1_555 1_555
C3B N2B 1_555 1_555
H6A C3A 1_555 1_555
H6B C3B 1_555 1_555
C4A N3A 1_555 1_555
C4B N3B 1_555 1_555
C5A N4A 1_555 1_555
C5B N4B 1_555 1_555
H7A C5A 1_555 1_555
H7B C5B 1_555 1_555
C6A N3A 1_555 1_555
C6B N3B 1_555 1_555
H8A C6A 1_555 1_555
H8B C6B 1_555 1_555
Cs2 O1A 1_555 1_555
Cs2 O1B 1_555 1_555
Cl1 O2 1_555 1_555
Cl1 O3 1_555 1_555
N4 C4 1_555 1_555
C3 C4 1_555 1_555
C5 C6 1_555 1_555
Cs2_2 O1D 1_555 1_555
Cs2_2 O1E 1_555 1_555
Cl1A O2A 1_555 1_555
Cl1A O3A 1_555 1_555
Cl1B O2B 1_555 1_555
Cl1B O3B 1_555 1_555
Cl1C O2C 1_555 1_555
Cl1C O3C 1_555 1_555
Cl1D O2D 1_555 1_555
Cl1D O3D 1_555 1_555
Cl1E O2E 1_555 1_555
Cl1E O3E 1_555 1_555
N4A C4A 1_555 1_555
N4B C4B 1_555 1_555
C1A C2A 1_555 1_555
C1B C2B 1_555 1_555
C3A C4A 1_555 1_555
C3B C4B 1_555 1_555
C5A C6A 1_555 1_555
C5B C6B 1_555 1_555

#END
