
#######################################################################
#
#                 Cambridge Crystallographic Data Centre
#                                CCDC 
#
#######################################################################
#
# If this CIF has been generated from an entry in the Cambridge 
# Structural Database, then it will include bibliographic, chemical, 
# crystal, experimental, refinement or atomic coordinate data resulting 
# from the CCDC's data processing and validation procedures.
#
#######################################################################

data_NIPRUA
_symmetry_cell_setting           monoclinic
_symmetry_space_group_name_H-M   'P 21/m'
_symmetry_Int_Tables_number      11
_space_group_name_Hall           '-P 2yb'
loop_
_symmetry_equiv_pos_site_id
_symmetry_equiv_pos_as_xyz
1 x,y,z
2 -x,1/2+y,-z
3 -x,-y,-z
4 x,1/2-y,z
_cell_length_a                   8.137(2)
_cell_length_b                   6.5104(16)
_cell_length_c                   9.101(2)
_cell_angle_alpha                90
_cell_angle_beta                 115.664(4)
_cell_angle_gamma                90
_cell_volume                     434.564
loop_
_atom_site_label
_atom_site_type_symbol
_atom_site_fract_x
_atom_site_fract_y
_atom_site_fract_z
Zn1 Zn 0.21489(6) 0.2500 0.47521(5)
P1 P -0.15971(14) 0.2500 0.49523(12)
N1 N -0.0317(5) 0.2500 0.2629(4)
C1 C -0.1851(5) 0.2500 0.2837(5)
C2 C -0.3568(6) 0.2500 0.1513(5)
H1 H -0.4620 0.2500 0.1677
C3 C -0.3682(6) 0.2500 -0.0051(5)
C4 C -0.2096(6) 0.2500 -0.0257(6)
H2 H -0.2142 0.2500 -0.1296
C5 C -0.0437(6) 0.2500 0.1111(6)
H3 H 0.0630 0.2500 0.0974
C6 C -0.5468(6) 0.2500 -0.1522(5)
O1 O 0.0445(4) 0.2500 0.5959(4)
O2 O -0.2550(3) 0.0603(4) 0.5142(3)
O3 O -0.6895(4) 0.2500 -0.1224(4)
H4 H -0.7880 0.2500 -0.2097
O4 O -0.5514(4) 0.2500 -0.2867(4)
O5 O 0.3903(4) 0.2500 0.3593(4)
H5 H 0.4671 0.1439 0.3994
Zn1B Zn -0.21489(6) -0.2500 0.52479(5)
Zn1B_2 Zn -0.21489(6) 0.7500 0.52479(5)
Zn1_2 Zn -0.78511(6) 0.2500 -0.52479(5)
O2B O 0.2550(3) -0.0603(4) 0.4858(3)
O2C O -0.2550(3) 0.4397(4) 0.5142(3)
O2A O 0.2550(3) 0.5603(4) 0.4858(3)
O4_2 O 0.4486(4) 0.2500 0.7133(4)
H5C H 0.4671 0.3561 0.3994
loop_
_geom_bond_atom_site_label_1
_geom_bond_atom_site_label_2
_geom_bond_site_symmetry_1
_geom_bond_site_symmetry_2
Zn1 N1 1_555 1_555
P1 C1 1_555 1_555
N1 C1 1_555 1_555
C1 C2 1_555 1_555
C2 H1 1_555 1_555
C3 C2 1_555 1_555
C4 C3 1_555 1_555
H2 C4 1_555 1_555
C5 N1 1_555 1_555
H3 C5 1_555 1_555
C6 C3 1_555 1_555
O1 Zn1 1_555 1_555
O2 P1 1_555 1_555
O3 C6 1_555 1_555
H4 O3 1_555 1_555
O4 C6 1_555 1_555
O5 Zn1 1_555 1_555
H5 O5 1_555 1_555
Zn1B O2 1_555 1_555
Zn1B_2 O2C 1_555 1_555
Zn1_2 O4 1_555 1_555
O2B Zn1 1_555 1_555
O2C P1 1_555 1_555
O2A Zn1 1_555 1_555
O4_2 Zn1 1_555 1_555
H5C O5 1_555 1_555
P1 O1 1_555 1_555
C4 C5 1_555 1_555

#END
