
#######################################################################
#
#                 Cambridge Crystallographic Data Centre
#                                CCDC 
#
#######################################################################
#
# If this CIF has been generated from an entry in the Cambridge 
# Structural Database, then it will include bibliographic, chemical, 
# crystal, experimental, refinement or atomic coordinate data resulting 
# from the CCDC's data processing and validation procedures.
#
#######################################################################

data_NIPROU
_symmetry_cell_setting           monoclinic
_symmetry_space_group_name_H-M   'P 21/c'
_symmetry_Int_Tables_number      14
_space_group_name_Hall           '-P 2ybc'
loop_
_symmetry_equiv_pos_site_id
_symmetry_equiv_pos_as_xyz
1 x,y,z
2 -x,1/2+y,1/2-z
3 -x,-y,-z
4 x,1/2-y,1/2+z
_cell_length_a                   9.2706(10)
_cell_length_b                   8.7918(9)
_cell_length_c                   9.8810(10)
_cell_angle_alpha                90
_cell_angle_beta                 102.466(2)
_cell_angle_gamma                90
_cell_volume                     786.367
loop_
_atom_site_label
_atom_site_type_symbol
_atom_site_fract_x
_atom_site_fract_y
_atom_site_fract_z
Cd1 Cd 0.54508(2) -0.20812(2) -0.481520(19)
P1 P 0.44649(7) -0.50195(7) -0.29658(7)
N1 N 0.3133(3) -0.2644(3) -0.4515(3)
C1 C 0.2883(3) -0.3823(3) -0.3734(3)
C2 C 0.1478(3) -0.4095(3) -0.3492(3)
H1 H 0.1310 -0.4930 -0.2968
C3 C 0.0338(3) -0.3113(3) -0.4039(3)
C4 C 0.0610(3) -0.1926(4) -0.4876(3)
H2 H -0.0149 -0.1278 -0.5292
C5 C 0.2009(3) -0.1725(4) -0.5079(3)
H3 H 0.2189 -0.0920 -0.5630
C6 C -0.1186(3) -0.3213(3) -0.3767(3)
O1 O 0.4601(2) -0.4872(2) -0.14009(19)
O2 O 0.5764(2) -0.4349(2) -0.3472(2)
O3 O 0.4082(2) -0.6619(2) -0.3428(2)
O4 O -0.2004(2) -0.2112(2) -0.4039(3)
O5 O -0.1525(2) -0.4479(3) -0.3248(2)
H4 H -0.2417 -0.4376 -0.3037
Cd1C Cd 0.54508(2) -0.29188(2) 0.018480(19)
Cd1A Cd 0.45492(2) -0.70812(2) -0.018480(19)
Cd1B Cd 0.45492(2) -0.79188(2) -0.518480(19)
Cd1_2 Cd -0.45492(2) -0.20812(2) -0.481520(19)
O1C O 0.4601(2) -0.0128(2) -0.64009(19)
O1A O 0.5399(2) 0.0128(2) -0.35991(19)
O3B O 0.5918(2) -0.3381(2) -0.6572(2)
O4_2 O 0.7996(2) -0.2112(2) -0.4039(3)
loop_
_geom_bond_atom_site_label_1
_geom_bond_atom_site_label_2
_geom_bond_site_symmetry_1
_geom_bond_site_symmetry_2
Cd1 N1 1_555 1_555
P1 C1 1_555 1_555
N1 C1 1_555 1_555
C1 C2 1_555 1_555
C2 H1 1_555 1_555
C3 C2 1_555 1_555
C4 C3 1_555 1_555
H2 C4 1_555 1_555
C5 N1 1_555 1_555
H3 C5 1_555 1_555
C6 C3 1_555 1_555
O1 P1 1_555 1_555
O2 Cd1 1_555 1_555
O3 P1 1_555 1_555
O4 C6 1_555 1_555
O5 C6 1_555 1_555
H4 O5 1_555 1_555
Cd1C O1 1_555 1_555
Cd1A O1 1_555 1_555
Cd1B O3 1_555 1_555
Cd1_2 O4 1_555 1_555
O1C Cd1 1_555 1_555
O1A Cd1 1_555 1_555
O3B Cd1 1_555 1_555
O4_2 Cd1 1_555 1_555
P1 O2 1_555 1_555
C4 C5 1_555 1_555

#END
