
#######################################################################
#
#                 Cambridge Crystallographic Data Centre
#                                CCDC 
#
#######################################################################
#
# If this CIF has been generated from an entry in the Cambridge 
# Structural Database, then it will include bibliographic, chemical, 
# crystal, experimental, refinement or atomic coordinate data resulting 
# from the CCDC's data processing and validation procedures.
#
#######################################################################

data_NIPVUE
_symmetry_cell_setting           monoclinic
_symmetry_space_group_name_H-M   'P 21/c'
_symmetry_Int_Tables_number      14
_space_group_name_Hall           '-P 2ybc'
loop_
_symmetry_equiv_pos_site_id
_symmetry_equiv_pos_as_xyz
1 x,y,z
2 -x,1/2+y,1/2-z
3 -x,-y,-z
4 x,1/2-y,1/2+z
_cell_length_a                   14.3232(8)
_cell_length_b                   18.5768(12)
_cell_length_c                   12.4832(8)
_cell_angle_alpha                90
_cell_angle_beta                 111.061(4)
_cell_angle_gamma                90
_cell_volume                     3099.64
loop_
_atom_site_label
_atom_site_type_symbol
_atom_site_fract_x
_atom_site_fract_y
_atom_site_fract_z
C1 C 0.79707(13) 0.21326(10) 0.17592(16)
C2 C 0.83825(14) 0.26790(10) 0.25508(17)
H1 H 0.7991 0.2896 0.2936
C3 C 0.93522(14) 0.29098(10) 0.27845(18)
H2 H 0.9619 0.3289 0.3317
C4 C 0.99357(13) 0.25872(10) 0.22426(17)
C5 C 0.95438(16) 0.20368(13) 0.1464(2)
H3 H 0.9942 0.1811 0.1095
C6 C 0.85654(16) 0.18172(13) 0.1227(2)
H4 H 0.8297 0.1442 0.0688
C7 C 1.15370(15) 0.24837(12) 0.20908(19)
H5 H 1.1619 0.1983 0.2357
H6 H 1.2190 0.2724 0.2357
H7 H 1.1253 0.2493 0.1250
C8 C 0.59001(15) 0.05977(11) 0.07222(18)
H8 H 0.5525 0.0639 0.1240
H9 H 0.6087 0.0094 0.0681
H10 H 0.5482 0.0765 -0.0045
C9 C 0.65675(13) 0.38375(10) 0.30147(15)
H11 H 0.6297 0.3607 0.3518
C10 C 0.73414(13) 0.43208(10) 0.34728(16)
H12 H 0.7588 0.4428 0.4270
C11 C 0.77511(13) 0.46471(10) 0.27452(16)
C12 C 0.73621(14) 0.44869(10) 0.15838(17)
H13 H 0.7627 0.4705 0.1066
C13 C 0.65769(13) 0.40007(10) 0.11940(16)
H14 H 0.6309 0.3892 0.0397
C14 C 0.76438(13) 0.61565(10) 0.44005(16)
C15 C 0.74383(14) 0.64580(10) 0.53106(16)
H15 H 0.7836 0.6344 0.6082
C16 C 0.66414(14) 0.69280(10) 0.50667(16)
H16 H 0.6500 0.7132 0.5690
C17 C 0.62391(13) 0.67852(10) 0.31343(15)
H17 H 0.5814 0.6894 0.2371
C18 C 0.70075(14) 0.63006(10) 0.32901(16)
H18 H 0.7097 0.6072 0.2653
C19 C 0.21702(13) 0.41367(10) 0.08364(15)
C20 C 0.14810(14) 0.37788(11) -0.00810(17)
H19 H 0.1703 0.3533 -0.0613
C21 C 0.04651(14) 0.37725(11) -0.02382(17)
H20 H 0.0000 0.3524 -0.0871
C22 C 0.01407(13) 0.41319(10) 0.05383(17)
C23 C 0.08274(14) 0.45030(11) 0.14591(17)
H21 H 0.0603 0.4755 0.1984
C24 C 0.18278(14) 0.45045(10) 0.16087(16)
H22 H 0.2291 0.4756 0.2239
C25 C -0.15455(15) 0.37455(13) -0.0398(2)
H23 H -0.1558 0.3910 -0.1149
H24 H -0.2208 0.3812 -0.0350
H25 H -0.1365 0.3234 -0.0301
C26 C 0.47288(14) 0.52063(10) 0.16598(18)
H26 H 0.5143 0.4969 0.2373
H27 H 0.4740 0.5728 0.1782
H28 H 0.4993 0.5098 0.1054
N1 N 0.61773(11) 0.36765(8) 0.18892(12)
N2 N 0.60585(11) 0.71113(8) 0.39984(13)
O1 O 1.08837(10) 0.28474(8) 0.25387(14)
O2 O 0.67925(9) 0.10337(7) 0.11518(12)
O3 O -0.08219(10) 0.41550(8) 0.04880(13)
O4 O 0.37163(9) 0.49483(7) 0.13223(11)
P1 P 0.66859(3) 0.18711(2) 0.14162(4)
P2 P 0.34913(3) 0.41009(2) 0.11361(4)
S1 S 0.62448(3) 0.20430(2) 0.27320(4)
S2 S 0.57545(3) 0.23698(3) 0.00298(4)
S3 S 0.42036(3) 0.35440(2) 0.25645(4)
S4 S 0.38677(3) 0.37148(2) -0.01417(4)
S5 S 0.87517(3) 0.52772(3) 0.32126(5)
S6 S 0.87373(4) 0.56115(3) 0.47613(4)
Ni1 Ni 0.503522(16) 0.290593(12) 0.135205(18)
N2A N 0.39415(11) 0.21113(8) 0.10016(13)
Ni1A Ni 0.496478(16) 0.790593(12) 0.364795(18)
loop_
_geom_bond_atom_site_label_1
_geom_bond_atom_site_label_2
_geom_bond_site_symmetry_1
_geom_bond_site_symmetry_2
C1 C2 1_555 1_555
C2 H1 1_555 1_555
C3 C2 1_555 1_555
H2 C3 1_555 1_555
C4 C3 1_555 1_555
C5 C4 1_555 1_555
H3 C5 1_555 1_555
C6 C1 1_555 1_555
H4 C6 1_555 1_555
C7 H5 1_555 1_555
H6 C7 1_555 1_555
H7 C7 1_555 1_555
C8 H8 1_555 1_555
H9 C8 1_555 1_555
H10 C8 1_555 1_555
C9 H11 1_555 1_555
C10 C9 1_555 1_555
H12 C10 1_555 1_555
C11 C10 1_555 1_555
C12 C11 1_555 1_555
H13 C12 1_555 1_555
C13 C12 1_555 1_555
H14 C13 1_555 1_555
C14 C15 1_555 1_555
C15 H15 1_555 1_555
C16 C15 1_555 1_555
H16 C16 1_555 1_555
C17 H17 1_555 1_555
C18 C14 1_555 1_555
H18 C18 1_555 1_555
C19 C20 1_555 1_555
C20 H19 1_555 1_555
C21 C20 1_555 1_555
H20 C21 1_555 1_555
C22 C21 1_555 1_555
C23 C22 1_555 1_555
H21 C23 1_555 1_555
C24 C19 1_555 1_555
H22 C24 1_555 1_555
C25 H23 1_555 1_555
H24 C25 1_555 1_555
H25 C25 1_555 1_555
C26 H26 1_555 1_555
H27 C26 1_555 1_555
H28 C26 1_555 1_555
N1 C9 1_555 1_555
N2 C16 1_555 1_555
O1 C4 1_555 1_555
O2 C8 1_555 1_555
O3 C22 1_555 1_555
O4 C26 1_555 1_555
P1 C1 1_555 1_555
P2 C19 1_555 1_555
S1 P1 1_555 1_555
S2 P1 1_555 1_555
S3 P2 1_555 1_555
S4 P2 1_555 1_555
S5 C11 1_555 1_555
S6 C14 1_555 1_555
Ni1 N1 1_555 1_555
N2A Ni1 1_555 1_555
Ni1A N2 1_555 1_555
C5 C6 1_555 1_555
C7 O1 1_555 1_555
C13 N1 1_555 1_555
C17 C18 1_555 1_555
C17 N2 1_555 1_555
C23 C24 1_555 1_555
C25 O3 1_555 1_555
O2 P1 1_555 1_555
O4 P2 1_555 1_555
S1 Ni1 1_555 1_555
S2 Ni1 1_555 1_555
S3 Ni1 1_555 1_555
S4 Ni1 1_555 1_555
S5 S6 1_555 1_555

#END
