
#######################################################################
#
#                 Cambridge Crystallographic Data Centre
#                                CCDC 
#
#######################################################################
#
# If this CIF has been generated from an entry in the Cambridge 
# Structural Database, then it will include bibliographic, chemical, 
# crystal, experimental, refinement or atomic coordinate data resulting 
# from the CCDC's data processing and validation procedures.
#
#######################################################################

data_NIPVOX01
_symmetry_cell_setting           orthorhombic
_symmetry_space_group_name_H-M   'P 21 21 21'
_symmetry_Int_Tables_number      19
_space_group_name_Hall           'P 2ac 2ab'
loop_
_symmetry_equiv_pos_site_id
_symmetry_equiv_pos_as_xyz
1 x,y,z
2 1/2-x,-y,1/2+z
3 1/2+x,1/2-y,-z
4 -x,1/2+y,1/2-z
_cell_length_a                   6.7063(2)
_cell_length_b                   15.3526(4)
_cell_length_c                   20.2188(5)
_cell_angle_alpha                90
_cell_angle_beta                 90
_cell_angle_gamma                90
_cell_volume                     2081.71
loop_
_atom_site_label
_atom_site_type_symbol
_atom_site_fract_x
_atom_site_fract_y
_atom_site_fract_z
Cu1 Cu 0.48976(11) 0.89811(5) 0.17132(3)
N1 N 0.4752(6) 0.9291(2) 0.06413(19)
N2 N 0.4907(6) 0.7706(2) 0.11979(18)
O1 O 0.8013(5) 0.9498(2) 0.17531(15)
O2 O 0.6185(5) 0.8480(2) 0.25963(15)
O3 O 0.8200(5) 0.8819(2) 0.34239(15)
H1 H 0.8489 0.8373 0.3685
O4 O 1.1787(5) 0.87652(18) 0.20779(15)
O5 O 1.3810(5) 1.0216(2) 0.19888(16)
O6 O 1.1497(5) 1.0972(2) 0.25084(16)
H2 H 1.0644 1.1403 0.2444
C1 C 0.4656(7) 1.0069(4) 0.0358(2)
H3 H 0.4583 1.0558 0.0629
C2 C 0.4660(8) 1.0193(3) -0.0329(2)
H4 H 0.4556 1.0751 -0.0504
C3 C 0.4805(7) 0.9537(3) -0.0713(2)
H5 H 0.4875 0.9625 -0.1168
C4 C 0.4863(8) 0.8668(3) -0.0457(2)
C5 C 0.4867(8) 0.8584(3) 0.0225(2)
C6 C 0.4929(8) 0.7750(3) 0.0519(2)
C7 C 0.4926(8) 0.6994(3) 0.0119(2)
C8 C 0.4907(7) 0.7106(3) -0.0597(2)
H6 H 0.4890 0.6622 -0.0874
C9 C 0.4915(7) 0.7892(3) -0.0849(2)
H7 H 0.4957 0.7950 -0.1306
C10 C 0.4955(7) 0.6189(3) 0.0439(2)
H8 H 0.4964 0.5677 0.0194
C11 C 0.4972(8) 0.6156(3) 0.1102(2)
H9 H 0.4986 0.5620 0.1317
C12 C 0.4968(7) 0.6921(3) 0.1469(2)
H10 H 0.5011 0.6880 0.1927
C13 C 0.7631(7) 0.8908(3) 0.2846(2)
C14 C 0.8787(8) 0.9563(4) 0.2427(3)
H11 H 0.8474 1.0147 0.2593
C15 C 1.1009(8) 0.9453(3) 0.2451(2)
H12 H 1.1324 0.9315 0.2912
C16 C 1.2189(7) 1.0304(3) 0.2290(2)
Cu1_2 Cu 1.48976(11) 0.89811(5) 0.17132(3)
O4_2 O 0.1787(5) 0.87652(18) 0.20779(15)
O5_2 O 0.3810(5) 1.0216(2) 0.19888(16)
O7 O 0.9539(7) 1.0626(3) 0.09028(19)
H13 H 0.9060 1.0385 0.1253
H14 H 0.9826 1.1163 0.0985
O8 O 0.9498(6) 1.0939(3) -0.0481(2)
H15 H 0.8439 1.0991 -0.0723
H16 H 0.9147 1.0852 -0.0074
O9 O 1.1860(8) 1.2461(3) -0.0544(2)
H17 H 1.1196 1.1978 -0.0483
H18 H 1.1422 1.2696 -0.0911
O10 O 1.0853(7) 1.2380(3) 0.07994(19)
H19 H 1.1308 1.2395 0.0390
H20 H 0.9548 1.2428 0.0771
O11 O 1.3824(7) 1.2722(3) -0.2329(2)
H21 H 1.3650 1.2218 -0.2533
H22 H 1.2671 1.2837 -0.2134
O12 O 1.0180(6) 1.3046(2) -0.17253(18)
H23 H 0.9674 1.2631 -0.1958
H24 H 0.9673 1.3537 -0.1843
loop_
_geom_bond_atom_site_label_1
_geom_bond_atom_site_label_2
_geom_bond_site_symmetry_1
_geom_bond_site_symmetry_2
Cu1 N1 1_555 1_555
N1 C1 1_555 1_555
N2 Cu1 1_555 1_555
O1 Cu1 1_555 1_555
O2 Cu1 1_555 1_555
O3 H1 1_555 1_555
O4 C15 1_555 1_555
O5 C16 1_555 1_555
O6 H2 1_555 1_555
C1 H3 1_555 1_555
C2 C1 1_555 1_555
H4 C2 1_555 1_555
C3 C2 1_555 1_555
H5 C3 1_555 1_555
C4 C3 1_555 1_555
C5 N1 1_555 1_555
C6 N2 1_555 1_555
C7 C6 1_555 1_555
C8 C7 1_555 1_555
H6 C8 1_555 1_555
C9 C4 1_555 1_555
H7 C9 1_555 1_555
C10 C7 1_555 1_555
H8 C10 1_555 1_555
C11 C10 1_555 1_555
H9 C11 1_555 1_555
C12 N2 1_555 1_555
H10 C12 1_555 1_555
C13 O2 1_555 1_555
C14 O1 1_555 1_555
H11 C14 1_555 1_555
C15 C14 1_555 1_555
H12 C15 1_555 1_555
C16 O6 1_555 1_555
O7 H13 1_555 1_555
H14 O7 1_555 1_555
O8 H15 1_555 1_555
H16 O8 1_555 1_555
O9 H17 1_555 1_555
H18 O9 1_555 1_555
O10 H19 1_555 1_555
H20 O10 1_555 1_555
O11 H21 1_555 1_555
H22 O11 1_555 1_555
O12 H23 1_555 1_555
H24 O12 1_555 1_555
Cu1_2 O4 1_555 1_555
O4_2 Cu1 1_555 1_555
O5_2 Cu1 1_555 1_555
O3 C13 1_555 1_555
O5 Cu1_2 1_555 1_555
C4 C5 1_555 1_555
C5 C6 1_555 1_555
C8 C9 1_555 1_555
C11 C12 1_555 1_555
C13 C14 1_555 1_555
C15 C16 1_555 1_555

#END
