
#######################################################################
#
#                 Cambridge Crystallographic Data Centre
#                                CCDC 
#
#######################################################################
#
# If this CIF has been generated from an entry in the Cambridge 
# Structural Database, then it will include bibliographic, chemical, 
# crystal, experimental, refinement or atomic coordinate data resulting 
# from the CCDC's data processing and validation procedures.
#
#######################################################################

data_NIPWIT01
_symmetry_cell_setting           orthorhombic
_symmetry_space_group_name_H-M   'P n a 21'
_symmetry_Int_Tables_number      33
_space_group_name_Hall           'P 2c -2n'
loop_
_symmetry_equiv_pos_site_id
_symmetry_equiv_pos_as_xyz
1 x,y,z
2 -x,-y,1/2+z
3 1/2+x,1/2-y,z
4 1/2-x,1/2+y,1/2+z
_cell_length_a                   7.6827(6)
_cell_length_b                   18.7212(14)
_cell_length_c                   5.7833(4)
_cell_angle_alpha                90
_cell_angle_beta                 90
_cell_angle_gamma                90
_cell_volume                     831.808
loop_
_atom_site_label
_atom_site_type_symbol
_atom_site_fract_x
_atom_site_fract_y
_atom_site_fract_z
Zn1 Zn 0.85735(4) 0.466304(16) 1.00989(7)
Zn2 Zn 1.07247(4) 0.015050(17) 0.53486(8)
O1 O 1.0013(3) 0.45970(11) 0.6804(4)
O2 O 1.1090(3) 0.37795(12) 0.4365(4)
O3 O 1.0300(3) 0.11954(13) 0.6412(4)
O4 O 0.8738(3) 0.09248(12) 0.9569(4)
O5 O 0.7197(3) 0.44756(12) 1.2928(4)
H1 H 0.7450 0.4450 1.4310
O6 O 0.6545(3) 0.51226(12) 0.8538(4)
H2 H 0.6778 0.5605 0.8327
N1 N 0.8836(4) 0.35808(14) 0.9659(5)
C1 C 1.0296(4) 0.39477(18) 0.6115(6)
C2 C 0.9593(4) 0.33690(18) 0.7678(6)
C3 C 0.9782(5) 0.26497(17) 0.7119(6)
H3 H 1.0304 0.2514 0.5736
C4 C 0.9180(4) 0.21396(19) 0.8660(6)
C5 C 0.8386(4) 0.23633(17) 1.0691(6)
H4 H 0.7960 0.2031 1.1744
C6 C 0.8238(5) 0.30912(17) 1.1130(6)
H5 H 0.7705 0.3241 1.2491
C7 C 0.9418(4) 0.13487(17) 0.8167(6)
Zn1A Zn 1.14265(4) 0.533696(16) 0.50989(7)
Zn2A Zn 0.92753(4) -0.015050(17) 1.03486(8)
Zn2B Zn 0.57247(4) 0.484950(17) 1.53486(8)
Zn2B_2 Zn 0.57247(4) 0.484950(17) 0.53486(8)
Zn2C Zn 0.42753(4) 0.515050(17) 1.03486(8)
O1A O 0.9987(3) 0.54030(11) 1.1804(4)
O4A O 1.1262(3) -0.09248(12) 0.4569(4)
O5B O 1.2197(3) 0.05244(12) 0.2928(4)
H1B H 1.2450 0.0550 0.4310
O6B O 1.1545(3) -0.01226(12) 0.8538(4)
O6C O 0.8455(3) 0.01226(12) 0.3538(4)
H2B H 1.1778 -0.0605 0.8327
H2C H 0.8222 0.0605 0.3327
loop_
_geom_bond_atom_site_label_1
_geom_bond_atom_site_label_2
_geom_bond_site_symmetry_1
_geom_bond_site_symmetry_2
Zn1 O1 1_555 1_555
Zn2 O3 1_555 1_555
O1 C1 1_555 1_555
O2 C1 1_555 1_555
O3 C7 1_555 1_555
O4 C7 1_555 1_555
O5 Zn1 1_555 1_555
H1 O5 1_555 1_555
O6 Zn1 1_555 1_555
H2 O6 1_555 1_555
N1 Zn1 1_555 1_555
C1 C2 1_555 1_555
C2 N1 1_555 1_555
C3 C2 1_555 1_555
H3 C3 1_555 1_555
C4 C3 1_555 1_555
C5 C4 1_555 1_555
H4 C5 1_555 1_555
C6 N1 1_555 1_555
H5 C6 1_555 1_555
C7 C4 1_555 1_555
Zn1A O1 1_555 1_555
Zn2A O4 1_555 1_555
Zn2B O5 1_555 1_555
Zn2B_2 O6 1_555 1_555
Zn2C O6 1_555 1_555
O1A Zn1 1_555 1_555
O4A Zn2 1_555 1_555
O5B Zn2 1_555 1_555
H1B O5B 1_555 1_555
O6B Zn2 1_555 1_555
O6C Zn2 1_555 1_555
H2B O6B 1_555 1_555
H2C O6C 1_555 1_555
C5 C6 1_555 1_555
Zn2A O6B 1_555 1_555

#END
