
#######################################################################
#
#                 Cambridge Crystallographic Data Centre
#                                CCDC 
#
#######################################################################
#
# If this CIF has been generated from an entry in the Cambridge 
# Structural Database, then it will include bibliographic, chemical, 
# crystal, experimental, refinement or atomic coordinate data resulting 
# from the CCDC's data processing and validation procedures.
#
#######################################################################

data_NIPWEP
_symmetry_cell_setting           triclinic
_symmetry_space_group_name_H-M   'P -1'
_symmetry_Int_Tables_number      2
_space_group_name_Hall           '-P 1'
loop_
_symmetry_equiv_pos_site_id
_symmetry_equiv_pos_as_xyz
1 x,y,z
2 -x,-y,-z
_cell_length_a                   8.1601(4)
_cell_length_b                   9.4126(11)
_cell_length_c                   17.9991(9)
_cell_angle_alpha                99.453(7)
_cell_angle_beta                 99.986(5)
_cell_angle_gamma                94.511(9)
_cell_volume                     1334.85
loop_
_atom_site_label
_atom_site_type_symbol
_atom_site_fract_x
_atom_site_fract_y
_atom_site_fract_z
C1 C 0.4916(3) 0.6770(3) 0.64256(16)
H1 H 0.4941 0.5790 0.6130
H2 H 0.4077 0.6711 0.6759
C2 C 0.6621(4) 0.7332(3) 0.69048(18)
H3 H 0.6950 0.6676 0.7261
H4 H 0.6580 0.8300 0.7196
H5 H 0.7441 0.7384 0.6569
C3 C 0.1596(3) 0.9285(3) 0.44527(15)
H6 H 0.1258 1.0261 0.4607
H7 H 0.0605 0.8566 0.4384
C4 C 0.2221(4) 0.9207(3) 0.37116(16)
H8 H 0.1333 0.9406 0.3313
H9 H 0.2544 0.8236 0.3558
H10 H 0.3195 0.9928 0.3780
C5 C -0.1323(4) 1.3297(4) -0.14551(19)
H11 H -0.1380 1.2278 -0.1717
H12 H -0.0143 1.3640 -0.1213
C6 C -0.1958(4) 1.4226(3) -0.20205(17)
H13 H -0.1273 1.4178 -0.2419
H14 H -0.1890 1.5231 -0.1755
H15 H -0.3125 1.3876 -0.2257
C7 C -0.3767(6) 1.2624(6) 0.0876(3)
H16 H -0.2652 1.2651 0.1203
H17 H -0.4358 1.1640 0.0812
C8 C -0.4735(7) 1.3700(6) 0.1253(2)
H18 H -0.4861 1.3476 0.1754
H19 H -0.5843 1.3663 0.0932
H20 H -0.4141 1.4673 0.1322
C9 C -0.1260(3) 0.6017(3) 0.35155(14)
H21 H -0.0513 0.5381 0.3331
C10 C -0.2028(3) 0.6866(3) 0.30292(14)
H22 H -0.1802 0.6820 0.2526
C11 C -0.3142(3) 0.7790(3) 0.32920(14)
C12 C -0.3482(3) 0.7769(3) 0.40244(14)
H23 H -0.4277 0.8346 0.4213
C13 C -0.2640(3) 0.6894(3) 0.44689(14)
H24 H -0.2871 0.6893 0.4968
C14 C -0.0751(3) 1.0344(3) 0.16124(15)
H25 H 0.0209 1.1037 0.1722
C15 C -0.1594(4) 1.0154(3) 0.22019(15)
H26 H -0.1236 1.0721 0.2701
C16 C -0.2970(3) 0.9117(3) 0.20451(15)
C17 C -0.3447(3) 0.8314(3) 0.13150(15)
H27 H -0.4369 0.7580 0.1196
C18 C -0.2554(3) 0.8597(3) 0.07594(15)
H28 H -0.2899 0.8055 0.0254
N1 N -0.1514(3) 0.6044(2) 0.42345(12)
N2 N -0.1230(3) 0.9597(2) 0.08975(12)
O1 O 0.4487(2) 0.77725(19) 0.59090(10)
O2 O 0.2912(2) 0.89902(19) 0.50476(11)
O3 O -0.2362(3) 1.3396(2) -0.08832(11)
O4 O -0.3575(3) 1.2924(3) 0.01637(13)
P1 P 0.27178(7) 0.75076(6) 0.53491(4)
P2 P -0.21660(8) 1.23433(7) -0.02731(4)
S1 S 0.25159(7) 0.57997(6) 0.45178(3)
S2 S 0.08119(7) 0.73379(6) 0.58956(3)
S3 S 0.00607(8) 1.26581(7) 0.04073(4)
S4 S -0.27102(8) 1.02856(7) -0.07772(4)
S5 S -0.42103(9) 0.89441(8) 0.27532(4)
Ni1 Ni 0.0000 0.5000 0.5000
Ni2 Ni 0.0000 1.0000 0.0000
C1A C -0.4916(3) 0.3230(3) 0.35744(16)
H1A H -0.4941 0.4210 0.3870
H2A H -0.4077 0.3289 0.3241
C2A C -0.6621(4) 0.2668(3) 0.30952(18)
H3A H -0.6950 0.3324 0.2739
H4A H -0.6580 0.1700 0.2804
H5A H -0.7441 0.2616 0.3431
C3A C -0.1596(3) 0.0715(3) 0.55473(15)
H6A H -0.1258 -0.0261 0.5393
H7A H -0.0605 0.1434 0.5616
C4A C -0.2221(4) 0.0793(3) 0.62884(16)
H8A H -0.1333 0.0594 0.6687
H9A H -0.2544 0.1764 0.6442
H10A H -0.3195 0.0072 0.6220
C5A C 0.1323(4) 0.6703(4) 0.14551(19)
H11A H 0.1380 0.7722 0.1717
H12A H 0.0143 0.6360 0.1213
C6A C 0.1958(4) 0.5774(3) 0.20205(17)
H13A H 0.1273 0.5822 0.2419
H14A H 0.1890 0.4769 0.1755
H15A H 0.3125 0.6124 0.2257
C7A C 0.3767(6) 0.7376(6) -0.0876(3)
H16A H 0.2652 0.7349 -0.1203
H17A H 0.4358 0.8360 -0.0812
C8A C 0.4735(7) 0.6300(6) -0.1253(2)
H18A H 0.4861 0.6524 -0.1754
H19A H 0.5843 0.6337 -0.0932
H20A H 0.4141 0.5327 -0.1322
C9A C 0.1260(3) 0.3983(3) 0.64845(14)
H21A H 0.0513 0.4619 0.6669
C10A C 0.2028(3) 0.3134(3) 0.69708(14)
H22A H 0.1802 0.3180 0.7474
C11A C 0.3142(3) 0.2210(3) 0.67080(14)
C12A C 0.3482(3) 0.2231(3) 0.59756(14)
H23A H 0.4277 0.1654 0.5787
C13A C 0.2640(3) 0.3106(3) 0.55311(14)
H24A H 0.2871 0.3107 0.5032
C14A C 0.0751(3) -0.0344(3) 0.83876(15)
H25A H -0.0209 -0.1037 0.8278
C15A C 0.1594(4) -0.0154(3) 0.77981(15)
H26A H 0.1236 -0.0721 0.7299
C16A C 0.2970(3) 0.0883(3) 0.79549(15)
C17A C 0.3447(3) 0.1686(3) 0.86850(15)
H27A H 0.4369 0.2420 0.8804
C18A C 0.2554(3) 0.1403(3) 0.92406(15)
H28A H 0.2899 0.1945 0.9746
N1A N 0.1514(3) 0.3956(2) 0.57655(12)
N2A N 0.1230(3) 0.0403(2) 0.91025(12)
N2A_2 N 0.1230(3) 1.0403(2) -0.08975(12)
O1A O -0.4487(2) 0.22275(19) 0.40910(10)
O2A O -0.2912(2) 0.10098(19) 0.49524(11)
O3A O 0.2362(3) 0.6604(2) 0.08832(11)
O4A O 0.3575(3) 0.7076(3) -0.01637(13)
P1A P -0.27178(7) 0.24924(6) 0.46509(4)
P2A P 0.21660(8) 0.76567(7) 0.02731(4)
S1A S -0.25159(7) 0.42003(6) 0.54822(3)
S2A S -0.08119(7) 0.26621(6) 0.41044(3)
S3A S -0.00607(8) 0.73419(7) -0.04073(4)
S4A S 0.27102(8) 0.97144(7) 0.07772(4)
S5A S 0.42103(9) 0.10559(8) 0.72468(4)
Ni2_2 Ni 0.0000 0.0000 1.0000
loop_
_geom_bond_atom_site_label_1
_geom_bond_atom_site_label_2
_geom_bond_site_symmetry_1
_geom_bond_site_symmetry_2
C1 H1 1_555 1_555
H2 C1 1_555 1_555
C2 C1 1_555 1_555
H3 C2 1_555 1_555
H4 C2 1_555 1_555
H5 C2 1_555 1_555
C3 H6 1_555 1_555
H7 C3 1_555 1_555
C4 C3 1_555 1_555
H8 C4 1_555 1_555
H9 C4 1_555 1_555
H10 C4 1_555 1_555
C5 H11 1_555 1_555
H12 C5 1_555 1_555
C6 C5 1_555 1_555
H13 C6 1_555 1_555
H14 C6 1_555 1_555
H15 C6 1_555 1_555
C7 H16 1_555 1_555
H17 C7 1_555 1_555
C8 C7 1_555 1_555
H18 C8 1_555 1_555
H19 C8 1_555 1_555
H20 C8 1_555 1_555
C9 H21 1_555 1_555
C10 C9 1_555 1_555
H22 C10 1_555 1_555
C11 C10 1_555 1_555
C12 C11 1_555 1_555
H23 C12 1_555 1_555
C13 C12 1_555 1_555
H24 C13 1_555 1_555
C14 H25 1_555 1_555
C15 C14 1_555 1_555
H26 C15 1_555 1_555
C16 C15 1_555 1_555
C17 C16 1_555 1_555
H27 C17 1_555 1_555
C18 C17 1_555 1_555
H28 C18 1_555 1_555
N1 C9 1_555 1_555
N2 C14 1_555 1_555
O1 C1 1_555 1_555
O2 C3 1_555 1_555
O3 C5 1_555 1_555
O4 C7 1_555 1_555
P1 O1 1_555 1_555
P2 O3 1_555 1_555
S1 P1 1_555 1_555
S2 P1 1_555 1_555
S3 P2 1_555 1_555
S4 P2 1_555 1_555
S5 C11 1_555 1_555
Ni1 N1 1_555 1_555
Ni2 N2 1_555 1_555
C1A H1A 1_555 1_555
H2A C1A 1_555 1_555
C2A C1A 1_555 1_555
H3A C2A 1_555 1_555
H4A C2A 1_555 1_555
H5A C2A 1_555 1_555
C3A H6A 1_555 1_555
H7A C3A 1_555 1_555
C4A C3A 1_555 1_555
H8A C4A 1_555 1_555
H9A C4A 1_555 1_555
H10A C4A 1_555 1_555
C5A H11A 1_555 1_555
H12A C5A 1_555 1_555
C6A C5A 1_555 1_555
H13A C6A 1_555 1_555
H14A C6A 1_555 1_555
H15A C6A 1_555 1_555
C7A H16A 1_555 1_555
H17A C7A 1_555 1_555
C8A C7A 1_555 1_555
H18A C8A 1_555 1_555
H19A C8A 1_555 1_555
H20A C8A 1_555 1_555
C9A H21A 1_555 1_555
C10A C9A 1_555 1_555
H22A C10A 1_555 1_555
C11A C10A 1_555 1_555
C12A C11A 1_555 1_555
H23A C12A 1_555 1_555
C13A C12A 1_555 1_555
H24A C13A 1_555 1_555
C14A H25A 1_555 1_555
C15A C14A 1_555 1_555
H26A C15A 1_555 1_555
C16A C15A 1_555 1_555
C17A C16A 1_555 1_555
H27A C17A 1_555 1_555
C18A C17A 1_555 1_555
H28A C18A 1_555 1_555
N1A Ni1 1_555 1_555
N2A C14A 1_555 1_555
N2A_2 Ni2 1_555 1_555
O1A C1A 1_555 1_555
O2A C3A 1_555 1_555
O3A C5A 1_555 1_555
O4A C7A 1_555 1_555
P1A O1A 1_555 1_555
P2A O3A 1_555 1_555
S1A Ni1 1_555 1_555
S2A Ni1 1_555 1_555
S3A Ni2 1_555 1_555
S4A Ni2 1_555 1_555
S5A C11A 1_555 1_555
Ni2_2 N2A 1_555 1_555
C13 N1 1_555 1_555
C16 S5 1_555 1_555
C18 N2 1_555 1_555
O2 P1 1_555 1_555
O4 P2 1_555 1_555
S1 Ni1 1_555 1_555
S2 Ni1 1_555 1_555
S3 Ni2 1_555 1_555
S4 Ni2 1_555 1_555
C9A N1A 1_555 1_555
C13A N1A 1_555 1_555
C16A S5A 1_555 1_555
C18A N2A 1_555 1_555
O2A P1A 1_555 1_555
O4A P2A 1_555 1_555
P1A S1A 1_555 1_555
P1A S2A 1_555 1_555
P2A S3A 1_555 1_555
P2A S4A 1_555 1_555

#END
