
#######################################################################
#
#                 Cambridge Crystallographic Data Centre
#                                CCDC 
#
#######################################################################
#
# If this CIF has been generated from an entry in the Cambridge 
# Structural Database, then it will include bibliographic, chemical, 
# crystal, experimental, refinement or atomic coordinate data resulting 
# from the CCDC's data processing and validation procedures.
#
#######################################################################

data_NIPWIT
_symmetry_cell_setting           orthorhombic
_symmetry_space_group_name_H-M   'P n a 21'
_symmetry_Int_Tables_number      33
_space_group_name_Hall           'P 2c -2n'
loop_
_symmetry_equiv_pos_site_id
_symmetry_equiv_pos_as_xyz
1 x,y,z
2 -x,-y,1/2+z
3 1/2+x,1/2-y,z
4 1/2-x,1/2+y,1/2+z
_cell_length_a                   7.7477(8)
_cell_length_b                   18.698(2)
_cell_length_c                   5.7744(6)
_cell_angle_alpha                90
_cell_angle_beta                 90
_cell_angle_gamma                90
_cell_volume                     836.517
loop_
_atom_site_label
_atom_site_type_symbol
_atom_site_fract_x
_atom_site_fract_y
_atom_site_fract_z
Zn1 Zn 0.85588(5) 0.46675(2) 1.00989(9)
Zn2 Zn 1.07068(6) 0.01546(2) 0.53492(10)
O1 O 1.0026(4) 0.46007(14) 0.6821(6)
O2 O 1.1082(4) 0.37844(17) 0.4371(6)
O3 O 1.0285(4) 0.11979(15) 0.6412(5)
O4 O 0.8768(4) 0.09264(16) 0.9581(6)
O5 O 0.7170(4) 0.44839(14) 1.2925(5)
H1 H 0.8100 0.4470 1.3870
O6 O 0.6545(3) 0.51174(14) 0.8519(5)
H2 H 0.6778 0.5605 0.8327
N1 N 0.8824(4) 0.35856(16) 0.9646(6)
C1 C 1.0305(6) 0.3953(2) 0.6134(8)
C2 C 0.9590(5) 0.3367(2) 0.7682(7)
C3 C 0.9759(5) 0.2655(2) 0.7115(8)
H3 H 1.0266 0.2520 0.5722
C4 C 0.9165(5) 0.2144(2) 0.8640(8)
C5 C 0.8383(5) 0.2366(2) 1.0677(7)
H4 H 0.7976 0.2032 1.1740
C6 C 0.8215(5) 0.3089(2) 1.1106(7)
H5 H 0.7661 0.3236 1.2453
C7 C 0.9426(5) 0.1354(2) 0.8161(8)
Zn1A Zn 1.14412(5) 0.53325(2) 0.50989(9)
Zn2A Zn 0.92932(6) -0.01546(2) 1.03492(10)
Zn2B Zn 0.57068(6) 0.48454(2) 1.53492(10)
Zn2B_2 Zn 0.57068(6) 0.48454(2) 0.53492(10)
Zn2C Zn 0.42932(6) 0.51546(2) 1.03492(10)
O1A O 0.9974(4) 0.53993(14) 1.1821(6)
O4A O 1.1232(4) -0.09264(16) 0.4581(6)
O5B O 1.2170(4) 0.05161(14) 0.2925(5)
H1B H 1.3100 0.0530 0.3870
O6B O 1.1545(3) -0.01174(14) 0.8519(5)
O6C O 0.8455(3) 0.01174(14) 0.3519(5)
H2B H 1.1778 -0.0605 0.8327
H2C H 0.8222 0.0605 0.3327
loop_
_geom_bond_atom_site_label_1
_geom_bond_atom_site_label_2
_geom_bond_site_symmetry_1
_geom_bond_site_symmetry_2
Zn1 O1 1_555 1_555
Zn2 O3 1_555 1_555
O1 C1 1_555 1_555
O2 C1 1_555 1_555
O3 C7 1_555 1_555
O4 C7 1_555 1_555
O5 Zn1 1_555 1_555
H1 O5 1_555 1_555
O6 Zn1 1_555 1_555
H2 O6 1_555 1_555
N1 Zn1 1_555 1_555
C1 C2 1_555 1_555
C2 N1 1_555 1_555
C3 C2 1_555 1_555
H3 C3 1_555 1_555
C4 C3 1_555 1_555
C5 C4 1_555 1_555
H4 C5 1_555 1_555
C6 N1 1_555 1_555
H5 C6 1_555 1_555
C7 C4 1_555 1_555
Zn1A O1 1_555 1_555
Zn2A O4 1_555 1_555
Zn2B O5 1_555 1_555
Zn2B_2 O6 1_555 1_555
Zn2C O6 1_555 1_555
O1A Zn1 1_555 1_555
O4A Zn2 1_555 1_555
O5B Zn2 1_555 1_555
H1B O5B 1_555 1_555
O6B Zn2 1_555 1_555
O6C Zn2 1_555 1_555
H2B O6B 1_555 1_555
H2C O6C 1_555 1_555
C5 C6 1_555 1_555
Zn2A O6B 1_555 1_555

#END
