
#######################################################################
#
#                 Cambridge Crystallographic Data Centre
#                                CCDC 
#
#######################################################################
#
# If this CIF has been generated from an entry in the Cambridge 
# Structural Database, then it will include bibliographic, chemical, 
# crystal, experimental, refinement or atomic coordinate data resulting 
# from the CCDC's data processing and validation procedures.
#
#######################################################################

data_NIQGOK
_symmetry_cell_setting           orthorhombic
_symmetry_space_group_name_H-M   'P c a 21'
_symmetry_Int_Tables_number      29
_space_group_name_Hall           'P 2c -2ac'
loop_
_symmetry_equiv_pos_site_id
_symmetry_equiv_pos_as_xyz
1 x,y,z
2 -x,-y,1/2+z
3 1/2+x,-y,z
4 1/2-x,y,1/2+z
_cell_length_a                   10.209(2)
_cell_length_b                   13.870(3)
_cell_length_c                   13.583(3)
_cell_angle_alpha                90
_cell_angle_beta                 90
_cell_angle_gamma                90
_cell_volume                     1923.34
loop_
_atom_site_label
_atom_site_type_symbol
_atom_site_fract_x
_atom_site_fract_y
_atom_site_fract_z
Zn1 Zn 0.19333(9) 0.74668(7) 0.75914(15)
O1 O 0.3715(7) 0.7223(5) 0.5888(5)
O2 O 0.3432(6) 0.8244(5) 0.7131(5)
O3 O 0.3551(7) 0.8235(5) 0.3761(5)
O4 O 0.5256(8) 0.7258(5) 0.3876(6)
N1 N 0.2555(9) 0.6214(5) 0.8137(7)
N2 N 0.3722(10) 0.4877(7) 0.8343(9)
N3 N 0.0552(7) 0.7507(5) 0.6519(7)
N4 N -0.1320(9) 0.7819(7) 0.5765(9)
C1 C 0.4036(12) 0.4780(9) 1.0816(11)
H1 H 0.3777 0.4604 1.1471
H2 H 0.4203 0.5461 1.0790
H3 H 0.4817 0.4435 1.0640
C2 C 0.2942(11) 0.4526(9) 1.0096(10)
H4 H 0.3016 0.3847 0.9935
H5 H 0.2110 0.4616 1.0429
C3 C 0.2910(10) 0.5061(7) 0.9196(9)
C4 C 0.3455(9) 0.5592(7) 0.7707(9)
H6 H 0.3814 0.5660 0.7082
C5 C 0.2333(10) 0.5884(7) 0.9032(8)
H7 H 0.1822 0.6204 0.9495
C6 C -0.1131(13) 0.7339(10) 0.3451(11)
H8 H -0.0954 0.7436 0.2764
H9 H -0.2057 0.7378 0.3564
H10 H -0.0819 0.6715 0.3647
C7 C -0.0448(12) 0.8101(8) 0.4040(8)
H11 H 0.0423 0.8196 0.3771
H12 H -0.0922 0.8703 0.3968
C8 C -0.0330(10) 0.7880(7) 0.5088(8)
C9 C 0.0760(10) 0.7683(6) 0.5575(8)
H13 H 0.1585 0.7670 0.5285
C10 C -0.0729(10) 0.7633(8) 0.6662(9)
H14 H -0.1156 0.7600 0.7266
C11 C 0.3983(9) 0.7972(6) 0.6299(7)
C12 C 0.4649(9) 0.7984(7) 0.4131(7)
C13 C 0.5231(8) 0.8647(5) 0.4879(6)
C14 C 0.6150(10) 0.9321(7) 0.4505(8)
H15 H 0.6335 0.9334 0.3835
C15 C 0.6767(11) 0.9953(8) 0.5126(10)
H16 H 0.7393 1.0377 0.4881
C16 C 0.6455(12) 0.9963(9) 0.6132(10)
H17 H 0.6861 1.0399 0.6553
C17 C 0.5560(10) 0.9333(7) 0.6485(7)
H18 H 0.5359 0.9345 0.7153
C18 C 0.4937(8) 0.8675(6) 0.5892(7)
Zn1C Zn 0.30667(9) 0.74668(7) 0.25914(15)
O3C O 0.1449(7) 0.8235(5) 0.8761(5)
loop_
_geom_bond_atom_site_label_1
_geom_bond_atom_site_label_2
_geom_bond_site_symmetry_1
_geom_bond_site_symmetry_2
Zn1 O2 1_555 1_555
O1 C11 1_555 1_555
O2 C11 1_555 1_555
O3 C12 1_555 1_555
O4 C12 1_555 1_555
N1 Zn1 1_555 1_555
N2 C3 1_555 1_555
N3 Zn1 1_555 1_555
N4 C8 1_555 1_555
C1 H1 1_555 1_555
H2 C1 1_555 1_555
H3 C1 1_555 1_555
C2 C1 1_555 1_555
H4 C2 1_555 1_555
H5 C2 1_555 1_555
C3 C2 1_555 1_555
C4 N1 1_555 1_555
H6 C4 1_555 1_555
C5 N1 1_555 1_555
H7 C5 1_555 1_555
C6 H8 1_555 1_555
H9 C6 1_555 1_555
H10 C6 1_555 1_555
C7 C6 1_555 1_555
H11 C7 1_555 1_555
H12 C7 1_555 1_555
C8 C7 1_555 1_555
C9 N3 1_555 1_555
H13 C9 1_555 1_555
C10 N3 1_555 1_555
H14 C10 1_555 1_555
C11 C18 1_555 1_555
C12 C13 1_555 1_555
C13 C14 1_555 1_555
C14 H15 1_555 1_555
C15 C14 1_555 1_555
H16 C15 1_555 1_555
C16 C15 1_555 1_555
H17 C16 1_555 1_555
C17 C16 1_555 1_555
H18 C17 1_555 1_555
C18 C13 1_555 1_555
Zn1C O3 1_555 1_555
O3C Zn1 1_555 1_555
N2 C4 1_555 1_555
N4 C10 1_555 1_555
C3 C5 1_555 1_555
C8 C9 1_555 1_555
C17 C18 1_555 1_555

#END
