
#######################################################################
#
#                 Cambridge Crystallographic Data Centre
#                                CCDC 
#
#######################################################################
#
# If this CIF has been generated from an entry in the Cambridge 
# Structural Database, then it will include bibliographic, chemical, 
# crystal, experimental, refinement or atomic coordinate data resulting 
# from the CCDC's data processing and validation procedures.
#
#######################################################################

data_NIQHAX
_symmetry_cell_setting           monoclinic
_symmetry_space_group_name_H-M   'P 21/n'
_symmetry_Int_Tables_number      14
_space_group_name_Hall           '-P 2yn'
loop_
_symmetry_equiv_pos_site_id
_symmetry_equiv_pos_as_xyz
1 x,y,z
2 1/2-x,1/2+y,1/2-z
3 -x,-y,-z
4 1/2+x,1/2-y,1/2+z
_cell_length_a                   9.4547(10)
_cell_length_b                   12.4137(13)
_cell_length_c                   22.015(2)
_cell_angle_alpha                90
_cell_angle_beta                 100.414(2)
_cell_angle_gamma                90
_cell_volume                     2541.29
loop_
_atom_site_label
_atom_site_type_symbol
_atom_site_fract_x
_atom_site_fract_y
_atom_site_fract_z
Cd1 Cd 0.67647(4) 0.27255(3) 0.699658(16)
C1 C 0.9782(7) -0.0721(5) 0.3188(2)
H1 H 1.0326 -0.0774 0.2877
N1 N 0.7908(4) 0.2926(3) 0.61487(17)
N2 N 0.9236(4) 0.1112(3) 0.44113(17)
N3 N 0.7425(4) -0.0625(3) 0.45997(18)
N4 N 0.6417(4) 0.1177(3) 0.64049(17)
C2 C 0.8838(7) -0.1561(5) 0.3274(3)
H2 H 0.8764 -0.2153 0.3011
C3 C 0.6869(5) 0.0239(4) 0.5504(2)
C4 C 0.8477(5) 0.1110(4) 0.4866(2)
C5 C 0.7600(5) 0.0224(4) 0.4971(2)
C6 C 0.8573(5) 0.2064(4) 0.5264(2)
C7 C 0.5694(6) 0.0318(4) 0.6544(2)
H3 H 0.5293 0.0342 0.6900
C8 C 0.7007(5) 0.1139(4) 0.5894(2)
C9 C 0.9368(6) 0.2966(4) 0.5169(2)
H4 H 0.9854 0.2983 0.4838
C10 C 0.6083(5) -0.0640(4) 0.5661(2)
H5 H 0.5948 -0.1245 0.5408
C11 C 0.8032(6) -0.1541(4) 0.3725(2)
H6 H 0.7409 -0.2104 0.3770
C12 C 0.9098(6) 0.0230(4) 0.4037(2)
C13 C 0.7855(5) 0.2074(4) 0.5766(2)
C14 C 0.8689(6) 0.3771(4) 0.6044(2)
H7 H 0.8732 0.4355 0.6311
C15 C 0.8165(6) -0.0637(4) 0.4128(2)
O1 O 0.6178(4) 0.4561(3) 0.69209(16)
O2 O 0.4465(4) 0.3370(3) 0.67188(17)
C16 C 0.4883(6) 0.4330(4) 0.6775(2)
C17 C 0.9447(6) 0.3836(5) 0.5560(2)
H8 H 0.9985 0.4443 0.5503
C18 C 0.5510(6) -0.0602(4) 0.6192(3)
H9 H 0.5008 -0.1187 0.6310
C19 C 0.9907(6) 0.0171(5) 0.3557(2)
H10 H 1.0515 0.0732 0.3493
C20 C 0.2513(6) 0.5003(4) 0.6936(2)
H11 H 0.2387 0.4336 0.7111
C21 C 0.3766(5) 0.5201(4) 0.6692(2)
C22 C 0.3937(5) 0.6185(4) 0.6406(2)
C23 C 0.2847(5) 0.6948(4) 0.6400(2)
H12 H 0.2937 0.7612 0.6214
C24 C 0.1473(6) 0.5785(5) 0.6919(2)
H13 H 0.0654 0.5650 0.7086
C25 C 0.1654(6) 0.6760(5) 0.6655(2)
H14 H 0.0965 0.7296 0.6649
C26 C 0.5065(5) 0.6380(3) 0.6024(2)
C27 C 0.6490(5) 0.6666(4) 0.6241(2)
C28 C 0.4606(6) 0.6254(4) 0.5388(2)
H15 H 0.3653 0.6068 0.5238
C29 C 0.6930(6) 0.6629(4) 0.5189(2)
H16 H 0.7563 0.6699 0.4914
C30 C 0.5529(6) 0.6397(4) 0.4978(2)
H17 H 0.5191 0.6333 0.4555
C31 C 0.7421(6) 0.6764(4) 0.5818(2)
H18 H 0.8385 0.6922 0.5960
C32 C 0.7076(5) 0.6971(4) 0.6900(2)
O3 O 0.6252(3) 0.7352(3) 0.72288(14)
O4 O 0.8404(4) 0.6899(3) 0.70860(15)
Cd1A Cd 0.82353(4) 0.77255(3) 0.800342(16)
O3A O 0.8748(3) 0.2352(3) 0.77712(14)
O4A O 0.6596(4) 0.1899(3) 0.79140(15)
loop_
_geom_bond_atom_site_label_1
_geom_bond_atom_site_label_2
_geom_bond_site_symmetry_1
_geom_bond_site_symmetry_2
Cd1 N1 1_555 1_555
C1 H1 1_555 1_555
N1 C13 1_555 1_555
N2 C4 1_555 1_555
N3 C5 1_555 1_555
N4 Cd1 1_555 1_555
C2 C1 1_555 1_555
H2 C2 1_555 1_555
C3 C5 1_555 1_555
C4 C5 1_555 1_555
C6 C4 1_555 1_555
C7 N4 1_555 1_555
H3 C7 1_555 1_555
C8 N4 1_555 1_555
C9 C6 1_555 1_555
H4 C9 1_555 1_555
C10 C3 1_555 1_555
H5 C10 1_555 1_555
C11 C2 1_555 1_555
H6 C11 1_555 1_555
C12 N2 1_555 1_555
C13 C6 1_555 1_555
C14 N1 1_555 1_555
H7 C14 1_555 1_555
C15 N3 1_555 1_555
O1 Cd1 1_555 1_555
O2 Cd1 1_555 1_555
C16 O1 1_555 1_555
C17 C9 1_555 1_555
H8 C17 1_555 1_555
C18 C7 1_555 1_555
H9 C18 1_555 1_555
C19 C1 1_555 1_555
H10 C19 1_555 1_555
C20 H11 1_555 1_555
C21 C16 1_555 1_555
C22 C21 1_555 1_555
C23 C22 1_555 1_555
H12 C23 1_555 1_555
C24 C20 1_555 1_555
H13 C24 1_555 1_555
C25 C23 1_555 1_555
H14 C25 1_555 1_555
C26 C22 1_555 1_555
C27 C26 1_555 1_555
C28 C26 1_555 1_555
H15 C28 1_555 1_555
C29 H16 1_555 1_555
C30 C28 1_555 1_555
H17 C30 1_555 1_555
C31 C27 1_555 1_555
H18 C31 1_555 1_555
C32 C27 1_555 1_555
O3 C32 1_555 1_555
O4 C32 1_555 1_555
Cd1A O3 1_555 1_555
O3A Cd1 1_555 1_555
O4A Cd1 1_555 1_555
C3 C8 1_555 1_555
C8 C13 1_555 1_555
C10 C18 1_555 1_555
C11 C15 1_555 1_555
C12 C15 1_555 1_555
C12 C19 1_555 1_555
C14 C17 1_555 1_555
O2 C16 1_555 1_555
C20 C21 1_555 1_555
C24 C25 1_555 1_555
C29 C30 1_555 1_555
C29 C31 1_555 1_555
O4 Cd1A 1_555 1_555

#END
