
#######################################################################
#
#                 Cambridge Crystallographic Data Centre
#                                CCDC 
#
#######################################################################
#
# If this CIF has been generated from an entry in the Cambridge 
# Structural Database, then it will include bibliographic, chemical, 
# crystal, experimental, refinement or atomic coordinate data resulting 
# from the CCDC's data processing and validation procedures.
#
#######################################################################

data_NIQKUU
_symmetry_cell_setting           orthorhombic
_symmetry_space_group_name_H-M   'P b c a'
_symmetry_Int_Tables_number      61
_space_group_name_Hall           '-P 2ac 2ab'
loop_
_symmetry_equiv_pos_site_id
_symmetry_equiv_pos_as_xyz
1 x,y,z
2 1/2-x,-y,1/2+z
3 -x,1/2+y,1/2-z
4 1/2+x,1/2-y,-z
5 -x,-y,-z
6 1/2+x,y,1/2-z
7 x,1/2-y,1/2+z
8 1/2-x,1/2+y,z
_cell_length_a                   8.5905(9)
_cell_length_b                   14.8361(16)
_cell_length_c                   20.905(2)
_cell_angle_alpha                90
_cell_angle_beta                 90
_cell_angle_gamma                90
_cell_volume                     2664.33
loop_
_atom_site_label
_atom_site_type_symbol
_atom_site_fract_x
_atom_site_fract_y
_atom_site_fract_z
Cu1 Cu 0.14469(3) 0.665133(18) 0.410674(12)
N1 N 0.0006(2) 0.70131(12) 0.48135(8)
N2 N -0.1087(2) 0.76313(13) 0.49385(9)
N3 N -0.1560(2) 0.74998(13) 0.55297(9)
N4 N -0.0808(2) 0.68002(13) 0.58008(9)
N5 N 0.1939(2) 0.56565(12) 0.47656(9)
N6 N 0.2346(2) 0.60614(13) 0.33463(9)
N7 N 0.3321(3) 0.53800(15) 0.31895(11)
N8 N 0.3451(3) 0.53719(16) 0.25631(11)
N9 N 0.2584(3) 0.60382(15) 0.23010(9)
N10 N 0.0545(2) 0.74744(13) 0.34215(8)
C1 C 0.0149(3) 0.65195(15) 0.53450(10)
C2 C 0.1234(3) 0.57621(15) 0.53389(11)
C3 C 0.1519(3) 0.51949(16) 0.58505(11)
H1 H 0.1013 0.5280 0.6239
C4 C 0.2575(3) 0.44974(17) 0.57718(12)
H2 H 0.2803 0.4111 0.6109
C5 C 0.3281(3) 0.43854(17) 0.51872(13)
H3 H 0.3986 0.3918 0.5124
C6 C 0.2936(3) 0.49731(16) 0.46930(12)
H4 H 0.3413 0.4890 0.4298
C7 C 0.1927(3) 0.64422(16) 0.27966(11)
C8 C 0.0905(3) 0.72220(16) 0.28170(10)
C9 C 0.0337(3) 0.76779(18) 0.22914(11)
H5 H 0.0582 0.7485 0.1880
C10 C -0.0593(3) 0.84200(18) 0.23832(12)
H6 H -0.0991 0.8733 0.2034
C11 C -0.0928(3) 0.86950(19) 0.29970(12)
H7 H -0.1535 0.9204 0.3069
C12 C -0.0350(3) 0.82024(17) 0.35020(12)
H8 H -0.0592 0.8384 0.3916
Cu1C Cu -0.35531(3) 0.834867(18) 0.589326(12)
N3C N 0.3440(2) 0.75002(13) 0.44703(9)
loop_
_geom_bond_atom_site_label_1
_geom_bond_atom_site_label_2
_geom_bond_site_symmetry_1
_geom_bond_site_symmetry_2
Cu1 N1 1_555 1_555
N1 N2 1_555 1_555
N2 N3 1_555 1_555
N3 N4 1_555 1_555
N4 C1 1_555 1_555
N5 Cu1 1_555 1_555
N6 Cu1 1_555 1_555
N7 N6 1_555 1_555
N8 N7 1_555 1_555
N9 N8 1_555 1_555
N10 Cu1 1_555 1_555
C1 N1 1_555 1_555
C2 N5 1_555 1_555
C3 C2 1_555 1_555
H1 C3 1_555 1_555
C4 C3 1_555 1_555
H2 C4 1_555 1_555
C5 C4 1_555 1_555
H3 C5 1_555 1_555
C6 N5 1_555 1_555
H4 C6 1_555 1_555
C7 N6 1_555 1_555
C8 N10 1_555 1_555
C9 C8 1_555 1_555
H5 C9 1_555 1_555
C10 C9 1_555 1_555
H6 C10 1_555 1_555
C11 C10 1_555 1_555
H7 C11 1_555 1_555
C12 N10 1_555 1_555
H8 C12 1_555 1_555
Cu1C N3 1_555 1_555
N3C Cu1 1_555 1_555
N9 C7 1_555 1_555
C1 C2 1_555 1_555
C5 C6 1_555 1_555
C7 C8 1_555 1_555
C11 C12 1_555 1_555

#END
