
#######################################################################
#
#                 Cambridge Crystallographic Data Centre
#                                CCDC 
#
#######################################################################
#
# If this CIF has been generated from an entry in the Cambridge 
# Structural Database, then it will include bibliographic, chemical, 
# crystal, experimental, refinement or atomic coordinate data resulting 
# from the CCDC's data processing and validation procedures.
#
#######################################################################

data_NIQQUB
_symmetry_cell_setting           monoclinic
_symmetry_space_group_name_H-M   'P 21/c'
_symmetry_Int_Tables_number      14
_space_group_name_Hall           '-P 2ybc'
loop_
_symmetry_equiv_pos_site_id
_symmetry_equiv_pos_as_xyz
1 x,y,z
2 -x,1/2+y,1/2-z
3 -x,-y,-z
4 x,1/2-y,1/2+z
_cell_length_a                   9.9635(16)
_cell_length_b                   13.508(2)
_cell_length_c                   16.235(3)
_cell_angle_alpha                90
_cell_angle_beta                 90.776(2)
_cell_angle_gamma                90
_cell_volume                     2184.82
loop_
_atom_site_label
_atom_site_type_symbol
_atom_site_fract_x
_atom_site_fract_y
_atom_site_fract_z
Pt1 Pt 0.917761(13) 0.348111(10) 0.312591(8)
Mn1 Mn 0.63843(5) 0.74195(4) 0.35283(3)
S1 S 0.99230(10) 0.48323(7) 0.38930(7)
S2 S 0.76452(10) 0.44461(7) 0.24069(6)
S3 S 0.86894(10) 0.20274(7) 0.24213(6)
S4 S 1.07750(9) 0.25994(7) 0.39188(6)
N1 N 0.7978(3) 0.6356(2) 0.3871(2)
N2 N 0.5335(3) 0.3321(2) 0.2009(2)
N3 N 0.8614(5) 0.2531(3) 0.0727(2)
N4 N 1.2731(3) 0.2350(2) 0.2692(2)
N5 N 0.4863(3) 0.6261(2) 0.3848(2)
N6 N 0.5588(3) 0.7793(2) 0.47613(19)
N7 N 0.7453(3) 0.8781(2) 0.3982(2)
C1 C 0.8742(4) 0.5720(3) 0.3853(2)
C2 C 0.6321(4) 0.3728(3) 0.2178(2)
C3 C 0.8655(4) 0.2355(3) 0.1424(3)
C4 C 1.1928(4) 0.2441(3) 0.3189(2)
C5 C 0.4625(4) 0.5459(3) 0.3391(2)
C6 C 0.3798(4) 0.4690(3) 0.3638(2)
C7 C 0.3187(4) 0.4772(3) 0.4404(3)
C8 C 0.3410(4) 0.5598(3) 0.4873(2)
C9 C 0.4261(4) 0.6345(3) 0.4585(2)
C10 C 0.4593(4) 0.7243(3) 0.5070(2)
C11 C 0.3955(4) 0.7522(3) 0.5787(2)
C12 C 0.4356(4) 0.8379(3) 0.6182(3)
C13 C 0.5379(4) 0.8940(3) 0.5854(2)
C14 C 0.5974(4) 0.8628(3) 0.5137(2)
C15 C 0.7071(4) 0.9184(3) 0.4708(2)
C16 C 0.7650(4) 1.0035(3) 0.5020(2)
C17 C 0.8658(4) 1.0503(3) 0.4574(3)
C18 C 0.9056(4) 1.0092(3) 0.3842(2)
C19 C 0.8437(4) 0.9234(3) 0.3570(2)
H1 H 0.5038 0.5413 0.2868
H2 H 0.3647 0.4130 0.3295
H3 H 0.2628 0.4255 0.4599
H4 H 0.2988 0.5673 0.5390
H5 H 0.3245 0.7133 0.5999
H6 H 0.3939 0.8576 0.6679
H7 H 0.5664 0.9533 0.6118
H8 H 0.7363 1.0303 0.5529
H9 H 0.9067 1.1092 0.4775
H10 H 0.9744 1.0394 0.3529
H11 H 0.8718 0.8952 0.3065
Mn1A Mn 0.36157(5) 0.24195(4) 0.14717(3)
Mn1A_2 Mn 1.36157(5) 0.24195(4) 0.14717(3)
N2A N 0.4665(3) 0.8321(2) 0.2991(2)
N4A N 0.7269(3) 0.7350(2) 0.2308(2)
loop_
_geom_bond_atom_site_label_1
_geom_bond_atom_site_label_2
_geom_bond_site_symmetry_1
_geom_bond_site_symmetry_2
Pt1 S1 1_555 1_555
Mn1 N1 1_555 1_555
S1 C1 1_555 1_555
S2 Pt1 1_555 1_555
S3 Pt1 1_555 1_555
S4 Pt1 1_555 1_555
N1 C1 1_555 1_555
N2 C2 1_555 1_555
N3 C3 1_555 1_555
N4 C4 1_555 1_555
N5 Mn1 1_555 1_555
N6 Mn1 1_555 1_555
N7 Mn1 1_555 1_555
C2 S2 1_555 1_555
C3 S3 1_555 1_555
C4 S4 1_555 1_555
C5 N5 1_555 1_555
C6 C5 1_555 1_555
C7 C6 1_555 1_555
C8 C7 1_555 1_555
C9 N5 1_555 1_555
C10 N6 1_555 1_555
C11 C10 1_555 1_555
C12 C11 1_555 1_555
C13 C12 1_555 1_555
C14 N6 1_555 1_555
C15 N7 1_555 1_555
C16 C15 1_555 1_555
C17 C16 1_555 1_555
C18 C17 1_555 1_555
C19 N7 1_555 1_555
H1 C5 1_555 1_555
H2 C6 1_555 1_555
H3 C7 1_555 1_555
H4 C8 1_555 1_555
H5 C11 1_555 1_555
H6 C12 1_555 1_555
H7 C13 1_555 1_555
H8 C16 1_555 1_555
H9 C17 1_555 1_555
H10 C18 1_555 1_555
H11 C19 1_555 1_555
Mn1A N2 1_555 1_555
Mn1A_2 N4 1_555 1_555
N2A Mn1 1_555 1_555
N4A Mn1 1_555 1_555
C8 C9 1_555 1_555
C9 C10 1_555 1_555
C13 C14 1_555 1_555
C14 C15 1_555 1_555
C18 C19 1_555 1_555

#END
