
#######################################################################
#
#                 Cambridge Crystallographic Data Centre
#                                CCDC 
#
#######################################################################
#
# If this CIF has been generated from an entry in the Cambridge 
# Structural Database, then it will include bibliographic, chemical, 
# crystal, experimental, refinement or atomic coordinate data resulting 
# from the CCDC's data processing and validation procedures.
#
#######################################################################

data_NIQREK01
_symmetry_cell_setting           monoclinic
_symmetry_space_group_name_H-M   'C c'
_symmetry_Int_Tables_number      9
_space_group_name_Hall           'C -2yc'
loop_
_symmetry_equiv_pos_site_id
_symmetry_equiv_pos_as_xyz
1 x,y,z
2 x,-y,1/2+z
3 1/2+x,1/2+y,z
4 1/2+x,1/2-y,1/2+z
_cell_length_a                   5.702(2)
_cell_length_b                   16.183(5)
_cell_length_c                   6.801(3)
_cell_angle_alpha                90
_cell_angle_beta                 90.81(3)
_cell_angle_gamma                90
_cell_volume                     627.503
loop_
_atom_site_label
_atom_site_type_symbol
_atom_site_fract_x
_atom_site_fract_y
_atom_site_fract_z
Zn1 Zn 0.42482(4) 0.177440(1) 0.17524(3)
O1 O 0.7195(4) 0.1457(1) 0.0449(3)
O2 O 0.5292(4) 0.0272(1) 0.0443(3)
O3 O 1.2368(4) 0.2001(1) -0.0934(3)
O4 O 0.9646(3) 0.1992(1) -0.3275(3)
O5 O 0.5250(4) 0.1368(1) 0.4578(3)
O6 O 0.1025(4) 0.1616(2) 0.2846(3)
C1 C 0.7028(4) 0.0689(1) 0.0011(3)
C2 C 0.9007(4) 0.0307(1) -0.1024(3)
C3 C 1.0727(4) 0.0719(1) -0.1885(3)
C4 C 1.0925(4) 0.1632(1) -0.1992(3)
H1 H 0.904(9) -0.035(3) -0.096(7)
H2 H 1.202(8) 0.046(2) -0.275(6)
H3 H 0.590(14) 0.157(4) 0.506(11)
H4 H 0.514(10) 0.075(3) 0.493(8)
H5 H 0.084(14) 0.172(3) 0.388(11)
H6 H 0.000(14) 0.165(3) 0.227(10)
O3_2 O 0.2368(4) 0.2001(1) -0.0934(3)
O4C O 0.4646(3) 0.3008(1) 0.1725(3)
Zn1_2 Zn 1.42482(4) 0.177440(1) 0.17524(3)
Zn1C Zn 0.92482(4) 0.322560(1) -0.32476(3)
loop_
_geom_bond_atom_site_label_1
_geom_bond_atom_site_label_2
_geom_bond_site_symmetry_1
_geom_bond_site_symmetry_2
Zn1 O1 1_555 1_555
O1 C1 1_555 1_555
O2 C1 1_555 1_555
O3 C4 1_555 1_555
O4 C4 1_555 1_555
O5 Zn1 1_555 1_555
O6 Zn1 1_555 1_555
C1 C2 1_555 1_555
C2 C3 1_555 1_555
C3 C4 1_555 1_555
H1 C2 1_555 1_555
H2 C3 1_555 1_555
H3 O5 1_555 1_555
H4 O5 1_555 1_555
H5 O6 1_555 1_555
H6 O6 1_555 1_555
O3_2 Zn1 1_555 1_555
O4C Zn1 1_555 1_555
Zn1_2 O3 1_555 1_555
Zn1C O4 1_555 1_555

#END
