
#######################################################################
#
#                 Cambridge Crystallographic Data Centre
#                                CCDC 
#
#######################################################################
#
# If this CIF has been generated from an entry in the Cambridge 
# Structural Database, then it will include bibliographic, chemical, 
# crystal, experimental, refinement or atomic coordinate data resulting 
# from the CCDC's data processing and validation procedures.
#
#######################################################################

data_NIQREK
_symmetry_cell_setting           monoclinic
_symmetry_space_group_name_H-M   'C c'
_symmetry_Int_Tables_number      9
_space_group_name_Hall           'C -2yc'
loop_
_symmetry_equiv_pos_site_id
_symmetry_equiv_pos_as_xyz
1 x,y,z
2 x,-y,1/2+z
3 1/2+x,1/2+y,z
4 1/2+x,1/2-y,1/2+z
_cell_length_a                   5.725(1)
_cell_length_b                   16.251(2)
_cell_length_c                   6.825(1)
_cell_angle_alpha                90
_cell_angle_beta                 90.72(1)
_cell_angle_gamma                90
_cell_volume                     634.927
loop_
_atom_site_label
_atom_site_type_symbol
_atom_site_fract_x
_atom_site_fract_y
_atom_site_fract_z
O1 O 0.7201(5) 0.1452(2) 0.0450(4)
O2 O 0.5343(4) 0.0262(2) 0.0447(4)
O3 O 1.2408(4) 0.2003(1) -0.0915(4)
O4 O 0.9703(4) 0.1998(1) -0.3268(4)
O5 O 0.5285(5) 0.1372(2) 0.4572(4)
O6 O 0.1053(5) 0.1617(2) 0.2848(4)
C1 C 0.7061(5) 0.0687(2) 0.0012(4)
C2 C 0.9065(5) 0.0308(2) -0.1021(4)
C3 C 1.0774(5) 0.0722(2) -0.1874(4)
C4 C 1.0969(5) 0.1633(2) -0.1981(4)
Zn1 Zn 0.4246(2) 0.17685(2) 0.1752(2)
H1 H 0.9078 -0.0344 -0.0957
H2 H 1.19(1) 0.038(3) -0.236(8)
H3 H 0.64(1) 0.154(4) 0.46(1)
H4 H 0.53(1) 0.074(4) 0.496(8)
H5 H 0.01(1) 0.173(4) 0.244(9)
H6 H 0.07(1) 0.183(3) 0.397(9)
Zn1_2 Zn 1.4246(2) 0.17685(2) 0.1752(2)
Zn1C Zn 0.9246(2) 0.32315(2) -0.3248(2)
O3_2 O 0.2408(4) 0.2003(1) -0.0915(4)
O4C O 0.4703(4) 0.3002(1) 0.1732(4)
loop_
_geom_bond_atom_site_label_1
_geom_bond_atom_site_label_2
_geom_bond_site_symmetry_1
_geom_bond_site_symmetry_2
O1 C1 1_555 1_555
O2 C1 1_555 1_555
O3 C4 1_555 1_555
O4 C4 1_555 1_555
O5 Zn1 1_555 1_555
O6 Zn1 1_555 1_555
C1 C2 1_555 1_555
C2 C3 1_555 1_555
C3 C4 1_555 1_555
Zn1 O1 1_555 1_555
H1 C2 1_555 1_555
H2 C3 1_555 1_555
H3 O5 1_555 1_555
H4 O5 1_555 1_555
H5 O6 1_555 1_555
H6 O6 1_555 1_555
Zn1_2 O3 1_555 1_555
Zn1C O4 1_555 1_555
O3_2 Zn1 1_555 1_555
O4C Zn1 1_555 1_555

#END
