
#######################################################################
#
#                 Cambridge Crystallographic Data Centre
#                                CCDC 
#
#######################################################################
#
# If this CIF has been generated from an entry in the Cambridge 
# Structural Database, then it will include bibliographic, chemical, 
# crystal, experimental, refinement or atomic coordinate data resulting 
# from the CCDC's data processing and validation procedures.
#
#######################################################################

data_NIQROW
_symmetry_cell_setting           monoclinic
_symmetry_space_group_name_H-M   'C 2/c'
_symmetry_Int_Tables_number      15
_space_group_name_Hall           '-C 2yn'
loop_
_symmetry_equiv_pos_site_id
_symmetry_equiv_pos_as_xyz
1 x,y,z
2 -x,y,1/2-z
3 1/2+x,1/2+y,z
4 1/2-x,1/2+y,1/2-z
5 -x,-y,-z
6 x,-y,1/2+z
7 1/2-x,1/2-y,-z
8 1/2+x,1/2-y,1/2+z
_cell_length_a                   16.106(7)
_cell_length_b                   15.435(7)
_cell_length_c                   13.475(6)
_cell_angle_alpha                90
_cell_angle_beta                 106.184(6)
_cell_angle_gamma                90
_cell_volume                     3217.08
loop_
_atom_site_label
_atom_site_type_symbol
_atom_site_fract_x
_atom_site_fract_y
_atom_site_fract_z
Pb1 Pb 0.5000 0.10909(3) 0.2500
Pt1 Pt 0.2500 0.2500 0.5000
S1 S 0.22577(14) 0.13833(15) 0.37942(16)
S2 S 0.38947(14) 0.20930(16) 0.59045(16)
N1 N 0.4272(4) 0.1693(5) 0.0682(5)
C1 C 0.2941(6) 0.4049(6) 0.0379(6)
H1 H 0.2656 0.4578 0.0317
C2 C 0.3950(5) 0.1585(6) -0.1170(6)
H2 H 0.3988 0.1266 -0.1741
N2 N 0.4062(4) 0.2479(4) 0.2409(5)
C3 C 0.3836(5) 0.2449(5) 0.0553(6)
C4 C 0.3737(5) 0.2886(6) 0.1479(6)
C5 C 0.3540(6) 0.2363(6) -0.1297(6)
H3 H 0.3314 0.2588 -0.1958
C6 C 0.3525(6) 0.3660(6) 0.3219(7)
H4 H 0.3460 0.3902 0.3825
C7 C 0.3956(5) 0.2866(6) 0.3243(6)
H5 H 0.4180 0.2597 0.3879
C8 C 0.3014(6) 0.3632(6) -0.0488(6)
H6 H 0.2768 0.3878 -0.1132
C9 C 0.3296(6) 0.3683(6) 0.1372(6)
C10 C 0.3455(5) 0.2833(6) -0.0424(6)
C11 C 0.4318(5) 0.1268(6) -0.0162(6)
H7 H 0.4605 0.0739 -0.0083
C12 C 0.3201(6) 0.4078(6) 0.2286(7)
H8 H 0.2925 0.4611 0.2256
C13 C 0.3224(6) 0.0979(6) 0.3751(6)
N3 N 0.3847(5) 0.0666(5) 0.3654(5)
C14 C 0.3814(6) 0.1030(7) 0.6167(6)
N4 N 0.3802(6) 0.0295(6) 0.6372(6)
S1A S 0.77423(14) 0.13833(15) 0.12058(16)
N1A N 0.5728(4) 0.1693(5) 0.4318(5)
C1A C 0.7059(6) 0.4049(6) 0.4621(6)
H1A H 0.7344 0.4578 0.4683
C2A C 0.6050(5) 0.1585(6) 0.6170(6)
H2A H 0.6012 0.1266 0.6741
N2A N 0.5938(4) 0.2479(4) 0.2591(5)
C3A C 0.6164(5) 0.2449(5) 0.4447(6)
C4A C 0.6263(5) 0.2886(6) 0.3521(6)
C5A C 0.6460(6) 0.2363(6) 0.6297(6)
H3A H 0.6686 0.2588 0.6958
C6A C 0.6475(6) 0.3660(6) 0.1781(7)
H4A H 0.6540 0.3902 0.1175
C7A C 0.6044(5) 0.2866(6) 0.1757(6)
H5A H 0.5820 0.2597 0.1121
C8A C 0.6986(6) 0.3632(6) 0.5488(6)
H6A H 0.7232 0.3878 0.6132
C9A C 0.6704(6) 0.3683(6) 0.3628(6)
C10A C 0.6545(5) 0.2833(6) 0.5424(6)
C11A C 0.5682(5) 0.1268(6) 0.5162(6)
H7A H 0.5395 0.0739 0.5083
C12A C 0.6799(6) 0.4078(6) 0.2714(7)
H8A H 0.7075 0.4611 0.2744
C13A C 0.6776(6) 0.0979(6) 0.1249(6)
N3A N 0.6153(5) 0.0666(5) 0.1346(5)
S2F S 0.11053(14) 0.29070(16) 0.40955(16)
C14F C 0.1186(6) 0.3970(7) 0.3833(6)
N4F N 0.1198(6) 0.4705(6) 0.3628(6)
Pt1A Pt 0.7500 0.2500 0.0000
S1F S 0.27423(14) 0.36167(15) 0.62058(16)
loop_
_geom_bond_atom_site_label_1
_geom_bond_atom_site_label_2
_geom_bond_site_symmetry_1
_geom_bond_site_symmetry_2
Pb1 N1 1_555 1_555
Pt1 S1 1_555 1_555
S1 C13 1_555 1_555
S2 Pt1 1_555 1_555
N1 C3 1_555 1_555
C1 H1 1_555 1_555
C2 H2 1_555 1_555
N2 Pb1 1_555 1_555
C3 C4 1_555 1_555
C4 N2 1_555 1_555
C5 C2 1_555 1_555
H3 C5 1_555 1_555
C6 H4 1_555 1_555
C7 N2 1_555 1_555
H5 C7 1_555 1_555
C8 C1 1_555 1_555
H6 C8 1_555 1_555
C9 C1 1_555 1_555
C10 C3 1_555 1_555
C11 N1 1_555 1_555
H7 C11 1_555 1_555
C12 C6 1_555 1_555
H8 C12 1_555 1_555
C13 N3 1_555 1_555
N3 Pb1 1_555 1_555
C14 S2 1_555 1_555
N4 C14 1_555 1_555
S1A C13A 1_555 1_555
N1A Pb1 1_555 1_555
C1A H1A 1_555 1_555
C2A H2A 1_555 1_555
N2A Pb1 1_555 1_555
C3A N1A 1_555 1_555
C4A N2A 1_555 1_555
C5A C2A 1_555 1_555
H3A C5A 1_555 1_555
C6A H4A 1_555 1_555
C7A N2A 1_555 1_555
H5A C7A 1_555 1_555
C8A C1A 1_555 1_555
H6A C8A 1_555 1_555
C9A C1A 1_555 1_555
C10A C3A 1_555 1_555
C11A N1A 1_555 1_555
H7A C11A 1_555 1_555
C12A C6A 1_555 1_555
H8A C12A 1_555 1_555
C13A N3A 1_555 1_555
N3A Pb1 1_555 1_555
S2F Pt1 1_555 1_555
C14F S2F 1_555 1_555
N4F C14F 1_555 1_555
Pt1A S1A 1_555 1_555
S1F Pt1 1_555 1_555
C2 C11 1_555 1_555
C4 C9 1_555 1_555
C5 C10 1_555 1_555
C6 C7 1_555 1_555
C8 C10 1_555 1_555
C9 C12 1_555 1_555
C2A C11A 1_555 1_555
C3A C4A 1_555 1_555
C4A C9A 1_555 1_555
C5A C10A 1_555 1_555
C6A C7A 1_555 1_555
C8A C10A 1_555 1_555
C9A C12A 1_555 1_555

#END
