
#######################################################################
#
#                 Cambridge Crystallographic Data Centre
#                                CCDC 
#
#######################################################################
#
# If this CIF has been generated from an entry in the Cambridge 
# Structural Database, then it will include bibliographic, chemical, 
# crystal, experimental, refinement or atomic coordinate data resulting 
# from the CCDC's data processing and validation procedures.
#
#######################################################################

data_NIQSOX
_symmetry_cell_setting           triclinic
_symmetry_space_group_name_H-M   'P -1'
_symmetry_Int_Tables_number      2
_space_group_name_Hall           '-P 1'
loop_
_symmetry_equiv_pos_site_id
_symmetry_equiv_pos_as_xyz
1 x,y,z
2 -x,-y,-z
_cell_length_a                   10.6866(4)
_cell_length_b                   17.8276(9)
_cell_length_c                   19.8301(8)
_cell_angle_alpha                67.193(4)
_cell_angle_beta                 81.538(3)
_cell_angle_gamma                82.204(4)
_cell_volume                     3431.85
loop_
_atom_site_label
_atom_site_type_symbol
_atom_site_fract_x
_atom_site_fract_y
_atom_site_fract_z
C1 C 0.7804(13) 0.3017(8) 0.0619(8)
H1 H 0.8465 0.2801 0.0344
H2 H 0.8123 0.2975 0.1061
C2 C 0.6945(8) 0.1684(4) 0.1345(4)
H3 H 0.6421 0.1350 0.1245
H4 H 0.7813 0.1498 0.1247
C3 C 0.6700(5) 0.1555(4) 0.2132(3)
H5 H 0.6589 0.0971 0.2426
H6 H 0.7436 0.1702 0.2291
N1 N 0.6716(7) 0.2537(3) 0.0828(4)
H7 H 0.6462 0.2529 0.0407
C4 C 0.5586(4) 0.2286(3) 0.2901(2)
H8 H 0.6171 0.2721 0.2762
H9 H 0.5923 0.1807 0.3309
C5 C 0.4291(4) 0.2587(2) 0.3164(2)
C6 C 0.4071(5) 0.3099(3) 0.3551(2)
H10 H 0.4758 0.3327 0.3636
C7 C 0.2848(5) 0.3275(3) 0.3812(2)
H11 H 0.2689 0.3630 0.4075
C8 C 0.1845(5) 0.2939(3) 0.3693(2)
H12 H 0.0999 0.3045 0.3881
C9 C 0.2130(4) 0.2436(2) 0.3284(2)
C10 C 0.1134(4) 0.2008(3) 0.3137(2)
H13 H 0.0939 0.1518 0.3581
H14 H 0.0346 0.2378 0.3041
C11 C 0.1048(4) 0.2333(3) 0.1818(2)
H15 H 0.0128 0.2470 0.1914
H16 H 0.1164 0.2070 0.1452
C12 C 0.1731(4) 0.3107(2) 0.1509(2)
H17 H 0.1367 0.3494 0.1057
H18 H 0.1615 0.3372 0.1873
C13 C 0.3891(4) 0.3585(2) 0.1202(2)
H19 H 0.4729 0.3462 0.0962
H20 H 0.4033 0.3584 0.1685
C14 C 0.3385(4) 0.4443(2) 0.0736(2)
C15 C 0.2870(4) 0.5012(2) 0.1056(2)
C16 C 0.2753(4) 0.4811(3) 0.1837(2)
H21 H 0.2981 0.4266 0.2152
C17 C 0.2325(4) 0.5377(3) 0.2140(2)
H22 H 0.2250 0.5222 0.2659
C18 C 0.1989(4) 0.6195(3) 0.1685(3)
H23 H 0.1731 0.6594 0.1897
C19 C 0.2036(4) 0.6412(3) 0.0946(3)
H24 H 0.1776 0.6958 0.0650
C20 C 0.2471(4) 0.5832(2) 0.0600(2)
C21 C 0.2533(4) 0.6062(3) -0.0164(2)
C22 C 0.3095(4) 0.5505(3) -0.0491(2)
C23 C 0.3289(4) 0.5735(3) -0.1275(2)
H25 H 0.2994 0.6269 -0.1583
C24 C 0.3879(5) 0.5212(3) -0.1584(2)
H26 H 0.4006 0.5386 -0.2104
C25 C 0.4313(4) 0.4406(3) -0.1145(2)
H27 H 0.4729 0.4044 -0.1371
C26 C 0.4134(4) 0.4149(3) -0.0396(2)
H28 H 0.4410 0.3603 -0.0106
C27 C 0.3535(4) 0.4689(2) -0.0037(2)
C28 C 0.1917(5) -0.3651(3) 0.3823(3)
H29 H 0.2101 -0.3644 0.3317
H30 H 0.0983 -0.3590 0.3936
C29 C 0.2117(4) -0.2162(3) 0.3325(3)
H31 H 0.2251 -0.1731 0.3499
H32 H 0.1203 -0.2123 0.3268
C30 C 0.2887(4) -0.2025(3) 0.2589(2)
H33 H 0.2647 -0.2396 0.2374
H34 H 0.2704 -0.1456 0.2247
C31 C 0.5010(4) -0.2316(3) 0.2043(2)
H35 H 0.4752 -0.1878 0.1584
H36 H 0.4828 -0.2844 0.2038
C32 C 0.6406(4) -0.2323(2) 0.2067(2)
C33 C 0.7341(5) -0.2743(3) 0.1739(2)
H37 H 0.7117 -0.3087 0.1520
C34 C 0.8597(5) -0.2641(3) 0.1745(3)
H38 H 0.9250 -0.2925 0.1532
C35 C 0.8914(5) -0.2128(3) 0.2058(2)
H39 H 0.9776 -0.2051 0.2058
C36 C 0.7945(4) -0.1732(3) 0.2368(2)
C37 C 0.8152(4) -0.1092(3) 0.2659(2)
H40 H 0.8953 -0.1250 0.2895
H41 H 0.8243 -0.0562 0.2242
C38 C 0.7348(5) -0.1473(3) 0.3964(2)
H42 H 0.6722 -0.1284 0.4298
H43 H 0.8207 -0.1390 0.4040
C39 C 0.7254(4) -0.2373(3) 0.4146(2)
H44 H 0.7882 -0.2563 0.3813
H45 H 0.7448 -0.2692 0.4658
C40 C 0.5831(4) -0.3314(2) 0.4045(2)
H46 H 0.6167 -0.3302 0.3549
H47 H 0.4913 -0.3387 0.4108
C41 C 0.6472(4) -0.4069(2) 0.4607(2)
C42 C 0.5827(4) -0.4435(2) 0.5314(2)
C43 C 0.4603(4) -0.4109(3) 0.5525(2)
H48 H 0.4233 -0.3616 0.5188
C44 C 0.3952(5) -0.4482(3) 0.6191(3)
H49 H 0.3129 -0.4261 0.6312
C45 C 0.4516(6) -0.5208(3) 0.6708(3)
H50 H 0.4067 -0.5470 0.7175
C46 C 0.5677(6) -0.5526(3) 0.6540(2)
H51 H 0.6041 -0.6001 0.6901
C47 C 0.6386(4) -0.5176(3) 0.5836(2)
C48 C 0.7544(5) -0.5547(3) 0.5638(3)
C49 C 0.8160(4) -0.5207(3) 0.4921(3)
C50 C 0.9288(5) -0.5593(3) 0.4663(4)
H52 H 0.9657 -0.6090 0.4994
C51 C 0.9846(5) -0.5275(3) 0.3966(4)
H53 H 1.0574 -0.5560 0.3810
C52 C 0.9352(5) -0.4526(3) 0.3473(3)
H54 H 0.9762 -0.4295 0.2988
C53 C 0.8284(4) -0.4128(3) 0.3686(3)
H55 H 0.7964 -0.3621 0.3344
C54 C 0.7629(4) -0.4445(2) 0.4409(2)
N2 N 0.5551(3) 0.2056(2) 0.22648(19)
H56 H 0.5586 0.2547 0.1861
N3 N 0.3319(3) 0.22838(19) 0.30276(17)
N4 N 0.1545(3) 0.17592(19) 0.25049(18)
H57 H 0.1269 0.1248 0.2615
N5 N 0.3092(3) 0.29071(18) 0.13393(17)
H58 H 0.3182 0.2800 0.0910
N6 N 0.2486(3) -0.2969(2) 0.3875(2)
H59 H 0.2247 -0.2959 0.4336
N7 N 0.4258(3) -0.2181(2) 0.26828(17)
H60 H 0.4329 -0.2687 0.3068
N8 N 0.6737(3) -0.18468(19) 0.23810(17)
N9 N 0.7104(3) -0.0990(2) 0.31962(18)
H61 H 0.6975 -0.0441 0.3132
N10 N 0.5961(3) -0.25052(19) 0.40596(17)
H62 H 0.5432 -0.2463 0.4462
O1 O 0.3957(3) 0.10939(15) 0.16017(14)
O2 O 0.3175(3) 0.00227(16) 0.12774(14)
O3 O 0.5063(3) -0.03403(16) 0.20258(14)
O4 O 0.2849(2) -0.00807(15) 0.25741(13)
O5 O 0.3919(3) 0.05587(15) 0.32410(14)
O6 O 0.1954(3) -0.02073(18) 0.38347(15)
O7 O 0.4057(3) -0.09771(15) 0.36474(14)
P1 P 0.38259(9) 0.01857(6) 0.18247(5)
P2 P 0.32165(9) -0.01719(6) 0.33709(5)
Zn1 Zn 0.53332(5) -0.13703(3) 0.29909(3)
Zn2 Zn 0.36663(5) 0.16676(3) 0.23047(3)
C1A C 0.2196(13) 0.6983(8) -0.0619(8)
H1A H 0.1535 0.7199 -0.0344
H2A H 0.1877 0.7025 -0.1061
C2A C 0.3055(8) 0.8316(4) -0.1345(4)
H3A H 0.3579 0.8650 -0.1245
H4A H 0.2187 0.8502 -0.1247
C3A C 0.3300(5) 0.8445(4) -0.2132(3)
H5A H 0.3411 0.9029 -0.2426
H6A H 0.2564 0.8298 -0.2291
N1A N 0.3284(7) 0.7463(3) -0.0828(4)
H7A H 0.3538 0.7471 -0.0407
C4A C 0.4414(4) 0.7714(3) -0.2901(2)
H8A H 0.3829 0.7279 -0.2762
H9A H 0.4077 0.8193 -0.3309
C5A C 0.5709(4) 0.7413(2) -0.3164(2)
C6A C 0.5929(5) 0.6901(3) -0.3551(2)
H10A H 0.5242 0.6673 -0.3636
C7A C 0.7152(5) 0.6725(3) -0.3812(2)
H11A H 0.7311 0.6370 -0.4075
C8A C 0.8155(5) 0.7061(3) -0.3693(2)
H12A H 0.9001 0.6955 -0.3881
C9A C 0.7870(4) 0.7564(2) -0.3284(2)
C10A C 0.8866(4) 0.7992(3) -0.3137(2)
H13A H 0.9061 0.8482 -0.3581
H14A H 0.9654 0.7622 -0.3041
C11A C 0.8952(4) 0.7667(3) -0.1818(2)
H15A H 0.9872 0.7530 -0.1914
H16A H 0.8836 0.7930 -0.1452
C12A C 0.8269(4) 0.6893(2) -0.1509(2)
H17A H 0.8633 0.6506 -0.1057
H18A H 0.8385 0.6628 -0.1873
C13A C 0.6109(4) 0.6415(2) -0.1202(2)
H19A H 0.5271 0.6538 -0.0962
H20A H 0.5967 0.6416 -0.1685
C14A C 0.6615(4) 0.5557(2) -0.0736(2)
C15A C 0.7130(4) 0.4988(2) -0.1056(2)
C16A C 0.7247(4) 0.5189(3) -0.1837(2)
H21A H 0.7019 0.5734 -0.2152
C17A C 0.7675(4) 0.4623(3) -0.2140(2)
H22A H 0.7750 0.4778 -0.2659
C18A C 0.8011(4) 0.3805(3) -0.1685(3)
H23A H 0.8269 0.3406 -0.1897
C19A C 0.7964(4) 0.3588(3) -0.0946(3)
H24A H 0.8224 0.3042 -0.0650
C20A C 0.7529(4) 0.4168(2) -0.0600(2)
C21A C 0.7467(4) 0.3938(3) 0.0164(2)
C22A C 0.6905(4) 0.4495(3) 0.0491(2)
C23A C 0.6711(4) 0.4265(3) 0.1275(2)
H25A H 0.7006 0.3731 0.1583
C24A C 0.6121(5) 0.4788(3) 0.1584(2)
H26A H 0.5994 0.4614 0.2104
C25A C 0.5687(4) 0.5594(3) 0.1145(2)
H27A H 0.5271 0.5956 0.1371
C26A C 0.5866(4) 0.5851(3) 0.0396(2)
H28A H 0.5590 0.6397 0.0106
C27A C 0.6465(4) 0.5311(2) 0.0037(2)
N2A N 0.4449(3) 0.7944(2) -0.22648(19)
H56A H 0.4414 0.7453 -0.1861
N3A N 0.6681(3) 0.77162(19) -0.30276(17)
N4A N 0.8455(3) 0.82408(19) -0.25049(18)
H57A H 0.8731 0.8752 -0.2615
N5A N 0.6908(3) 0.70929(18) -0.13393(17)
H58A H 0.6818 0.7200 -0.0910
C28A C 0.8083(5) -0.6349(3) 0.6177(3)
H29A H 0.7899 -0.6356 0.6683
H30A H 0.9017 -0.6410 0.6064
C29A C 0.7883(4) -0.7838(3) 0.6675(3)
H31A H 0.7749 -0.8269 0.6501
H32A H 0.8797 -0.7877 0.6732
C30A C 0.7113(4) -0.7975(3) 0.7411(2)
H33A H 0.7353 -0.7604 0.7626
H34A H 0.7296 -0.8544 0.7753
C31A C 0.4990(4) -0.7684(3) 0.7957(2)
H35A H 0.5248 -0.8122 0.8416
H36A H 0.5172 -0.7156 0.7962
C32A C 0.3594(4) -0.7677(2) 0.7933(2)
C33A C 0.2659(5) -0.7257(3) 0.8261(2)
H37A H 0.2883 -0.6913 0.8480
C34A C 0.1403(5) -0.7359(3) 0.8255(3)
H38A H 0.0750 -0.7075 0.8468
C35A C 0.1086(5) -0.7872(3) 0.7942(2)
H39A H 0.0224 -0.7949 0.7942
C36A C 0.2055(4) -0.8268(3) 0.7632(2)
C37A C 0.1848(4) -0.8908(3) 0.7341(2)
H40A H 0.1047 -0.8750 0.7105
H41A H 0.1757 -0.9438 0.7758
C38A C 0.2652(5) -0.8527(3) 0.6036(2)
H42A H 0.3278 -0.8716 0.5702
H43A H 0.1793 -0.8610 0.5960
C39A C 0.2746(4) -0.7627(3) 0.5854(2)
H44A H 0.2118 -0.7437 0.6187
H45A H 0.2552 -0.7308 0.5342
C40A C 0.4169(4) -0.6686(2) 0.5955(2)
H46A H 0.3833 -0.6698 0.6451
H47A H 0.5087 -0.6613 0.5892
C41A C 0.3528(4) -0.5931(2) 0.5393(2)
C42A C 0.4173(4) -0.5565(2) 0.4686(2)
C43A C 0.5397(4) -0.5891(3) 0.4475(2)
H48A H 0.5767 -0.6384 0.4812
C44A C 0.6048(5) -0.5518(3) 0.3809(3)
H49A H 0.6871 -0.5739 0.3688
C45A C 0.5484(6) -0.4792(3) 0.3292(3)
H50A H 0.5933 -0.4530 0.2825
C46A C 0.4323(6) -0.4474(3) 0.3460(2)
H51A H 0.3959 -0.3999 0.3099
C47A C 0.3614(4) -0.4824(3) 0.4164(2)
C48A C 0.2456(5) -0.4453(3) 0.4362(3)
C49A C 0.1840(4) -0.4793(3) 0.5079(3)
C50A C 0.0712(5) -0.4407(3) 0.5337(4)
H52A H 0.0343 -0.3910 0.5006
C51A C 0.0154(5) -0.4725(3) 0.6034(4)
H53A H -0.0574 -0.4440 0.6190
C52A C 0.0648(5) -0.5474(3) 0.6527(3)
H54A H 0.0238 -0.5705 0.7012
C53A C 0.1716(4) -0.5872(3) 0.6314(3)
H55A H 0.2036 -0.6379 0.6656
C54A C 0.2371(4) -0.5555(2) 0.5591(2)
N6A N 0.7514(3) -0.7031(2) 0.6125(2)
H59A H 0.7753 -0.7041 0.5664
N7A N 0.5742(3) -0.7819(2) 0.73172(17)
H60A H 0.5671 -0.7313 0.6932
N8A N 0.3263(3) -0.81532(19) 0.76190(17)
N9A N 0.2896(3) -0.9010(2) 0.68038(18)
H61A H 0.3025 -0.9559 0.6868
N10A N 0.4039(3) -0.74948(19) 0.59404(17)
H62A H 0.4568 -0.7537 0.5538
O1A O 0.6043(3) -1.10939(15) 0.83983(14)
O2A O 0.6825(3) -1.00227(16) 0.87226(14)
O3A O 0.4937(3) -0.96597(16) 0.79742(14)
O4A O 0.7151(2) -0.99193(15) 0.74259(13)
O5A O 0.6081(3) -1.05587(15) 0.67590(14)
O6A O 0.8046(3) -0.97927(18) 0.61653(15)
O7A O 0.5943(3) -0.90229(15) 0.63526(14)
P1A P 0.61741(9) -1.01857(6) 0.81753(5)
P2A P 0.67835(9) -0.98281(6) 0.66291(5)
Zn1A Zn 0.46668(5) -0.86297(3) 0.70091(3)
Zn2A Zn 0.63337(5) -1.16676(3) 0.76953(3)
N2A_2 N 0.4449(3) -1.2056(2) 0.77352(19)
N3A_2 N 0.6681(3) -1.22838(19) 0.69724(17)
N4A_2 N 0.8455(3) -1.17592(19) 0.74951(18)
N5A_2 N 0.6908(3) -1.29071(18) 0.86607(17)
Zn2A_2 Zn 0.63337(5) 0.83324(3) -0.23047(3)
O8 O 0.4703(9) 0.2098(4) 0.0104(5)
O9 O 0.4260(3) 0.82100(19) 0.51132(16)
O10 O 0.9534(3) 0.9702(2) 0.07396(18)
O11 O 0.6910(3) 0.9769(2) 0.08842(17)
O12 O 0.7130(11) 0.8797(7) 0.0144(5)
O13 O 0.7700(10) 0.7304(7) 0.0014(6)
O14 O 0.9728(5) 0.8186(3) -0.0182(3)
O15 O 0.3577(3) 0.9044(2) 0.04717(18)
O16 O 0.1242(4) 0.8329(2) 0.0824(2)
O17 O 0.0388(4) 0.8607(3) 0.4805(3)
O18 O 0.9187(11) 0.4403(8) 0.2169(7)
O19 O 0.8159(9) 0.3203(7) 0.2893(8)
O20 O 0.8022(7) 0.2216(5) 0.4073(4)
O21 O 0.8160(5) 0.0940(4) 0.3743(3)
O22 O 0.9912(3) 0.0227(2) 0.29391(19)
O23 O 0.4406(3) 0.0728(2) 0.45220(17)
O24 O 0.1836(3) 0.0475(3) 0.48756(19)
O25 O 0.0587(4) 0.0415(3) 0.1485(2)
C55? C 0.8150(19) 0.3200(13) 0.0695(10)
H63? H 0.8844 0.2977 0.0444
H64? H 0.8475 0.3358 0.1042
C56? C 0.7739(10) 0.1915(7) 0.1716(6)
H65? H 0.8306 0.1542 0.1547
H66? H 0.8189 0.2109 0.1992
C57? C 0.6700(5) 0.1555(4) 0.2132(3)
H67? H 0.6968 0.1190 0.2619
H68? H 0.6449 0.1200 0.1904
N11? N 0.7231(11) 0.2611(6) 0.1094(6)
H69? H 0.6978 0.2417 0.0772
O26? O 0.5374(14) 0.2079(6) 0.0375(6)
O27? O 0.8509(14) 0.7563(9) 0.0031(8)
O28? O 0.8541(14) 0.6876(9) 0.0151(8)
O29? O 0.836(2) 0.8421(13) -0.0058(12)
O30? O 0.6231(12) 0.8845(7) 0.0156(6)
O31? O 0.9265(14) 0.5669(9) 0.0660(8)
O32? O 0.8776(13) 0.3771(9) 0.2744(7)
O33? O 0.7972(12) 0.2653(8) 0.4495(7)
O34? O 0.7859(13) 0.0542(9) 0.3746(8)
O35? O 0.070(2) -0.0184(16) 0.1772(13)
O36? O 0.9353(6) 0.5043(5) 0.1547(6)
loop_
_geom_bond_atom_site_label_1
_geom_bond_atom_site_label_2
_geom_bond_site_symmetry_1
_geom_bond_site_symmetry_2
C1 H1 1_555 1_555
H2 C1 1_555 1_555
C2 H3 1_555 1_555
H4 C2 1_555 1_555
C3 C2 1_555 1_555
H5 C3 1_555 1_555
H6 C3 1_555 1_555
N1 C1 1_555 1_555
H7 N1 1_555 1_555
C4 H8 1_555 1_555
H9 C4 1_555 1_555
C5 C4 1_555 1_555
C6 C5 1_555 1_555
H10 C6 1_555 1_555
C7 C6 1_555 1_555
H11 C7 1_555 1_555
C8 C7 1_555 1_555
H12 C8 1_555 1_555
C9 C8 1_555 1_555
C10 C9 1_555 1_555
H13 C10 1_555 1_555
H14 C10 1_555 1_555
C11 H15 1_555 1_555
H16 C11 1_555 1_555
C12 C11 1_555 1_555
H17 C12 1_555 1_555
H18 C12 1_555 1_555
C13 H19 1_555 1_555
H20 C13 1_555 1_555
C14 C13 1_555 1_555
C15 C14 1_555 1_555
C16 C15 1_555 1_555
H21 C16 1_555 1_555
C17 C16 1_555 1_555
H22 C17 1_555 1_555
C18 C17 1_555 1_555
H23 C18 1_555 1_555
C19 C18 1_555 1_555
H24 C19 1_555 1_555
C20 C15 1_555 1_555
C21 C20 1_555 1_555
C22 C21 1_555 1_555
C23 C22 1_555 1_555
H25 C23 1_555 1_555
C24 C23 1_555 1_555
H26 C24 1_555 1_555
C25 C24 1_555 1_555
H27 C25 1_555 1_555
C26 C25 1_555 1_555
H28 C26 1_555 1_555
C27 C14 1_555 1_555
C28 H29 1_555 1_555
H30 C28 1_555 1_555
C29 H31 1_555 1_555
H32 C29 1_555 1_555
C30 C29 1_555 1_555
H33 C30 1_555 1_555
H34 C30 1_555 1_555
C31 H35 1_555 1_555
H36 C31 1_555 1_555
C32 C31 1_555 1_555
C33 C32 1_555 1_555
H37 C33 1_555 1_555
C34 C33 1_555 1_555
H38 C34 1_555 1_555
C35 C34 1_555 1_555
H39 C35 1_555 1_555
C36 C35 1_555 1_555
C37 C36 1_555 1_555
H40 C37 1_555 1_555
H41 C37 1_555 1_555
C38 H42 1_555 1_555
H43 C38 1_555 1_555
C39 C38 1_555 1_555
H44 C39 1_555 1_555
H45 C39 1_555 1_555
C40 H46 1_555 1_555
H47 C40 1_555 1_555
C41 C40 1_555 1_555
C42 C41 1_555 1_555
C43 C42 1_555 1_555
H48 C43 1_555 1_555
C44 C43 1_555 1_555
H49 C44 1_555 1_555
C45 C44 1_555 1_555
H50 C45 1_555 1_555
C46 C45 1_555 1_555
H51 C46 1_555 1_555
C47 C42 1_555 1_555
C48 C47 1_555 1_555
C49 C48 1_555 1_555
C50 C49 1_555 1_555
H52 C50 1_555 1_555
C51 C50 1_555 1_555
H53 C51 1_555 1_555
C52 C51 1_555 1_555
H54 C52 1_555 1_555
C53 C52 1_555 1_555
H55 C53 1_555 1_555
C54 C41 1_555 1_555
N2 C3 1_555 1_555
H56 N2 1_555 1_555
N3 C5 1_555 1_555
N4 C10 1_555 1_555
H57 N4 1_555 1_555
N5 C12 1_555 1_555
H58 N5 1_555 1_555
N6 C28 1_555 1_555
H59 N6 1_555 1_555
N7 C30 1_555 1_555
H60 N7 1_555 1_555
N8 C32 1_555 1_555
N9 C37 1_555 1_555
H61 N9 1_555 1_555
N10 C39 1_555 1_555
H62 N10 1_555 1_555
O1 P1 1_555 1_555
O2 P1 1_555 1_555
O3 P1 1_555 1_555
O4 P1 1_555 1_555
O5 P2 1_555 1_555
O6 P2 1_555 1_555
O7 P2 1_555 1_555
P2 O4 1_555 1_555
Zn1 N7 1_555 1_555
Zn2 N2 1_555 1_555
C1A C21 1_555 1_555
H1A C1A 1_555 1_555
H2A C1A 1_555 1_555
C2A H3A 1_555 1_555
H4A C2A 1_555 1_555
C3A C2A 1_555 1_555
H5A C3A 1_555 1_555
H6A C3A 1_555 1_555
N1A C1A 1_555 1_555
H7A N1A 1_555 1_555
C4A H8A 1_555 1_555
H9A C4A 1_555 1_555
C5A C4A 1_555 1_555
C6A C5A 1_555 1_555
H10A C6A 1_555 1_555
C7A C6A 1_555 1_555
H11A C7A 1_555 1_555
C8A C7A 1_555 1_555
H12A C8A 1_555 1_555
C9A C8A 1_555 1_555
C10A C9A 1_555 1_555
H13A C10A 1_555 1_555
H14A C10A 1_555 1_555
C11A H15A 1_555 1_555
H16A C11A 1_555 1_555
C12A C11A 1_555 1_555
H17A C12A 1_555 1_555
H18A C12A 1_555 1_555
C13A H19A 1_555 1_555
H20A C13A 1_555 1_555
C14A C13A 1_555 1_555
C15A C14A 1_555 1_555
C16A C15A 1_555 1_555
H21A C16A 1_555 1_555
C17A C16A 1_555 1_555
H22A C17A 1_555 1_555
C18A C17A 1_555 1_555
H23A C18A 1_555 1_555
C19A C18A 1_555 1_555
H24A C19A 1_555 1_555
C20A C15A 1_555 1_555
C21A C1 1_555 1_555
C22A C21A 1_555 1_555
C23A C22A 1_555 1_555
H25A C23A 1_555 1_555
C24A C23A 1_555 1_555
H26A C24A 1_555 1_555
C25A C24A 1_555 1_555
H27A C25A 1_555 1_555
C26A C25A 1_555 1_555
H28A C26A 1_555 1_555
C27A C14A 1_555 1_555
N2A C3A 1_555 1_555
H56A N2A 1_555 1_555
N3A C5A 1_555 1_555
N4A C10A 1_555 1_555
H57A N4A 1_555 1_555
N5A C12A 1_555 1_555
H58A N5A 1_555 1_555
C28A C48 1_555 1_555
H29A C28A 1_555 1_555
H30A C28A 1_555 1_555
C29A H31A 1_555 1_555
H32A C29A 1_555 1_555
C30A C29A 1_555 1_555
H33A C30A 1_555 1_555
H34A C30A 1_555 1_555
C31A H35A 1_555 1_555
H36A C31A 1_555 1_555
C32A C31A 1_555 1_555
C33A C32A 1_555 1_555
H37A C33A 1_555 1_555
C34A C33A 1_555 1_555
H38A C34A 1_555 1_555
C35A C34A 1_555 1_555
H39A C35A 1_555 1_555
C36A C35A 1_555 1_555
C37A C36A 1_555 1_555
H40A C37A 1_555 1_555
H41A C37A 1_555 1_555
C38A H42A 1_555 1_555
H43A C38A 1_555 1_555
C39A C38A 1_555 1_555
H44A C39A 1_555 1_555
H45A C39A 1_555 1_555
C40A H46A 1_555 1_555
H47A C40A 1_555 1_555
C41A C40A 1_555 1_555
C42A C41A 1_555 1_555
C43A C42A 1_555 1_555
H48A C43A 1_555 1_555
C44A C43A 1_555 1_555
H49A C44A 1_555 1_555
C45A C44A 1_555 1_555
H50A C45A 1_555 1_555
C46A C45A 1_555 1_555
H51A C46A 1_555 1_555
C47A C42A 1_555 1_555
C48A C28 1_555 1_555
C49A C48A 1_555 1_555
C50A C49A 1_555 1_555
H52A C50A 1_555 1_555
C51A C50A 1_555 1_555
H53A C51A 1_555 1_555
C52A C51A 1_555 1_555
H54A C52A 1_555 1_555
C53A C52A 1_555 1_555
H55A C53A 1_555 1_555
C54A C41A 1_555 1_555
N6A C28A 1_555 1_555
H59A N6A 1_555 1_555
N7A C30A 1_555 1_555
H60A N7A 1_555 1_555
N8A C32A 1_555 1_555
N9A C37A 1_555 1_555
H61A N9A 1_555 1_555
N10A C39A 1_555 1_555
H62A N10A 1_555 1_555
O1A P1A 1_555 1_555
O2A P1A 1_555 1_555
O3A P1A 1_555 1_555
O4A P1A 1_555 1_555
O5A P2A 1_555 1_555
O6A P2A 1_555 1_555
O7A P2A 1_555 1_555
P2A O4A 1_555 1_555
Zn1A N7A 1_555 1_555
Zn2A O1A 1_555 1_555
N2A_2 Zn2A 1_555 1_555
N3A_2 Zn2A 1_555 1_555
N4A_2 Zn2A 1_555 1_555
N5A_2 Zn2A 1_555 1_555
Zn2A_2 N2A 1_555 1_555
C2 N1 1_555 1_555
C4 N2 1_555 1_555
C9 N3 1_555 1_555
C11 N4 1_555 1_555
C13 N5 1_555 1_555
C19 C20 1_555 1_555
C22 C27 1_555 1_555
C26 C27 1_555 1_555
C29 N6 1_555 1_555
C31 N7 1_555 1_555
C36 N8 1_555 1_555
C38 N9 1_555 1_555
C40 N10 1_555 1_555
C46 C47 1_555 1_555
C49 C54 1_555 1_555
C53 C54 1_555 1_555
N3 Zn2 1_555 1_555
N4 Zn2 1_555 1_555
N5 Zn2 1_555 1_555
N8 Zn1 1_555 1_555
N9 Zn1 1_555 1_555
N10 Zn1 1_555 1_555
O1 Zn2 1_555 1_555
O3 Zn1 1_555 1_555
O5 Zn2 1_555 1_555
O7 Zn1 1_555 1_555
C2A N1A 1_555 1_555
C4A N2A 1_555 1_555
C9A N3A 1_555 1_555
C11A N4A 1_555 1_555
C13A N5A 1_555 1_555
C19A C20A 1_555 1_555
C20A C21A 1_555 1_555
C22A C27A 1_555 1_555
C26A C27A 1_555 1_555
N3A Zn2A_2 1_555 1_555
N4A Zn2A_2 1_555 1_555
N5A Zn2A_2 1_555 1_555
C29A N6A 1_555 1_555
C31A N7A 1_555 1_555
C36A N8A 1_555 1_555
C38A N9A 1_555 1_555
C40A N10A 1_555 1_555
C46A C47A 1_555 1_555
C47A C48A 1_555 1_555
C49A C54A 1_555 1_555
C53A C54A 1_555 1_555
N8A Zn1A 1_555 1_555
N9A Zn1A 1_555 1_555
N10A Zn1A 1_555 1_555
O3A Zn1A 1_555 1_555
O5A Zn2A 1_555 1_555
O7A Zn1A 1_555 1_555

#END
