
#######################################################################
#
#                 Cambridge Crystallographic Data Centre
#                                CCDC 
#
#######################################################################
#
# If this CIF has been generated from an entry in the Cambridge 
# Structural Database, then it will include bibliographic, chemical, 
# crystal, experimental, refinement or atomic coordinate data resulting 
# from the CCDC's data processing and validation procedures.
#
#######################################################################

data_NIQWUG
_symmetry_cell_setting           monoclinic
_symmetry_space_group_name_H-M   'P 21/c'
_symmetry_Int_Tables_number      14
_space_group_name_Hall           '-P 2ybc'
loop_
_symmetry_equiv_pos_site_id
_symmetry_equiv_pos_as_xyz
1 x,y,z
2 -x,1/2+y,1/2-z
3 -x,-y,-z
4 x,1/2-y,1/2+z
_cell_length_a                   8.1582(18)
_cell_length_b                   6.3620(12)
_cell_length_c                   18.679(3)
_cell_angle_alpha                90
_cell_angle_beta                 101.862(15)
_cell_angle_gamma                90
_cell_volume                     948.783
loop_
_atom_site_label
_atom_site_type_symbol
_atom_site_fract_x
_atom_site_fract_y
_atom_site_fract_z
Cu1 Cu 0.11209(3) 0.72576(4) 0.501800(11)
C1 C 0.3356(2) 0.7260(3) 0.63644(10)
C2 C 0.2373(2) 0.9262(3) 0.63423(9)
C3 C 0.2260(2) 1.1011(3) 0.67817(9)
H1 H 0.2843 1.1266 0.7256
C4 C 0.1067(2) 1.2288(3) 0.63437(10)
C5 C 0.0225(2) 1.4354(3) 0.63753(9)
N1 N 0.1315(2) 0.9517(2) 0.56971(8)
N2 N 0.0535(2) 1.1346(2) 0.56948(8)
O1 O 0.29805(16) 0.6162(2) 0.57641(7)
O2 O 0.44127(18) 0.6763(3) 0.69028(8)
O3 O -0.07916(17) 1.4892(2) 0.57719(7)
O4 O 0.04633(18) 1.5447(2) 0.69333(7)
Cu1B Cu -0.11209(3) 1.27424(4) 0.498200(11)
Cu1_2 Cu 0.11209(3) 1.72576(4) 0.501800(11)
Cu1B_2 Cu -0.11209(3) 0.27424(4) 0.498200(11)
C1B C -0.3356(2) 1.2740(3) 0.36356(10)
C2B C -0.2373(2) 1.0738(3) 0.36577(9)
C3B C -0.2260(2) 0.8989(3) 0.32183(9)
H1B H -0.2843 0.8734 0.2744
C4B C -0.1067(2) 0.7712(3) 0.36563(10)
C5B C -0.0225(2) 0.5646(3) 0.36247(9)
N1B N -0.1315(2) 1.0483(2) 0.43029(8)
N2B N -0.0535(2) 0.8654(2) 0.43052(8)
O1B O -0.29805(16) 1.3838(2) 0.42359(7)
O2B O -0.44127(18) 1.3237(3) 0.30972(8)
O3B O 0.07916(17) 0.5108(2) 0.42281(7)
O3_2 O -0.07916(17) 0.4892(2) 0.57719(7)
O3B_2 O 0.07916(17) 1.5108(2) 0.42281(7)
O4B O -0.04633(18) 0.4553(2) 0.30667(7)
C6 C 0.3833(3) 1.7140(3) 0.85036(11)
H2 H 0.4011 1.8292 0.8223
C7 C 0.4729(3) 1.6925(3) 0.92106(11)
H3 H 0.5494 1.7956 0.9413
C8 C 0.4491(2) 1.5165(3) 0.96242(9)
C9 C 0.3284(2) 1.3702(3) 0.93080(10)
H4 H 0.3078 1.2525 0.9571
C10 C 0.2399(3) 1.4006(4) 0.86062(10)
H5 H 0.1584 1.3043 0.8396
N3 N 0.2707(2) 1.5681(3) 0.82268(8)
H6 H 0.2158 1.5826 0.7785
C6B C 0.6167(3) 1.2860(3) 1.14964(11)
H2B H 0.5989 1.1708 1.1777
C7B C 0.5271(3) 1.3075(3) 1.07894(11)
H3B H 0.4506 1.2044 1.0587
C8B C 0.5509(2) 1.4835(3) 1.03758(9)
C9B C 0.6716(2) 1.6298(3) 1.06920(10)
H4B H 0.6922 1.7475 1.0429
C10B C 0.7601(3) 1.5994(4) 1.13938(10)
H5B H 0.8416 1.6957 1.1604
N3B N 0.7293(2) 1.4319(3) 1.17732(8)
H6B H 0.7842 1.4174 1.2215
loop_
_geom_bond_atom_site_label_1
_geom_bond_atom_site_label_2
_geom_bond_site_symmetry_1
_geom_bond_site_symmetry_2
Cu1 N1 1_555 1_555
C1 C2 1_555 1_555
C2 C3 1_555 1_555
C3 H1 1_555 1_555
C4 C3 1_555 1_555
C5 C4 1_555 1_555
C6 H2 1_555 1_555
C7 C6 1_555 1_555
H3 C7 1_555 1_555
C8 C7 1_555 1_555
C9 C8 1_555 1_555
H4 C9 1_555 1_555
C10 C9 1_555 1_555
H5 C10 1_555 1_555
N1 C2 1_555 1_555
N2 C4 1_555 1_555
N3 C6 1_555 1_555
H6 N3 1_555 1_555
O1 Cu1 1_555 1_555
O2 C1 1_555 1_555
O3 C5 1_555 1_555
O4 C5 1_555 1_555
Cu1B N2 1_555 1_555
Cu1_2 O3 1_555 1_555
Cu1B_2 O3B 1_555 1_555
C1B C2B 1_555 1_555
C2B C3B 1_555 1_555
C3B H1B 1_555 1_555
C4B C3B 1_555 1_555
C5B C4B 1_555 1_555
C6B H2B 1_555 1_555
C7B C6B 1_555 1_555
H3B C7B 1_555 1_555
C8B C8 1_555 1_555
C9B C8B 1_555 1_555
H4B C9B 1_555 1_555
C10B C9B 1_555 1_555
H5B C10B 1_555 1_555
N1B Cu1B 1_555 1_555
N2B Cu1 1_555 1_555
N3B C6B 1_555 1_555
H6B N3B 1_555 1_555
O1B Cu1B 1_555 1_555
O2B C1B 1_555 1_555
O3B Cu1 1_555 1_555
O3_2 Cu1 1_555 1_555
O3B_2 Cu1B 1_555 1_555
O4B C5B 1_555 1_555
C1 O1 1_555 1_555
C10 N3 1_555 1_555
N1 N2 1_555 1_555
O3 Cu1B 1_555 1_555
Cu1_2 O3B_2 1_555 1_555
Cu1B_2 O3_2 1_555 1_555
C1B O1B 1_555 1_555
C2B N1B 1_555 1_555
C4B N2B 1_555 1_555
C5B O3B 1_555 1_555
C7B C8B 1_555 1_555
C10B N3B 1_555 1_555
N1B N2B 1_555 1_555

#END
