
#######################################################################
#
#                 Cambridge Crystallographic Data Centre
#                                CCDC 
#
#######################################################################
#
# If this CIF has been generated from an entry in the Cambridge 
# Structural Database, then it will include bibliographic, chemical, 
# crystal, experimental, refinement or atomic coordinate data resulting 
# from the CCDC's data processing and validation procedures.
#
#######################################################################

data_NIQXUH
_symmetry_cell_setting           rhombohedral
_symmetry_space_group_name_H-M   'R -3'
_symmetry_Int_Tables_number      148
_space_group_name_Hall           '-R 3'
loop_
_symmetry_equiv_pos_site_id
_symmetry_equiv_pos_as_xyz
1 x,y,z
2 -y,x-y,z
3 -x+y,-x,z
4 2/3+x,1/3+y,1/3+z
5 2/3-y,1/3+x-y,1/3+z
6 2/3-x+y,1/3-x,1/3+z
7 1/3+x,2/3+y,2/3+z
8 1/3-y,2/3+x-y,2/3+z
9 1/3-x+y,2/3-x,2/3+z
10 -x,-y,-z
11 y,-x+y,-z
12 x-y,x,-z
13 1/3-x,2/3-y,2/3-z
14 1/3+y,2/3-x+y,2/3-z
15 1/3+x-y,2/3+x,2/3-z
16 2/3-x,1/3-y,1/3-z
17 2/3+y,1/3-x+y,1/3-z
18 2/3+x-y,1/3+x,1/3-z
_cell_length_a                   18.5943(16)
_cell_length_b                   18.5943(16)
_cell_length_c                   19.761(3)
_cell_angle_alpha                90
_cell_angle_beta                 90
_cell_angle_gamma                120.00
_cell_volume                     5916.97
loop_
_atom_site_label
_atom_site_type_symbol
_atom_site_fract_x
_atom_site_fract_y
_atom_site_fract_z
C1 C 0.5558(3) 0.1560(3) 0.9927(2)
C2 C 0.6134(3) 0.2480(3) 0.9913(3)
C3 C 0.6990(3) 0.2804(3) 0.9912(3)
H1 H 0.7206 0.2448 0.9909
C4 C 0.4089(3) -0.0395(4) 0.8721(3)
H2 H 0.3635 -0.0611 0.9011
C5 C 0.3952(3) -0.0423(4) 0.8042(3)
H3 H 0.3412 -0.0645 0.7881
C6 C 0.5477(3) 0.0222(4) 0.8557(3)
H4 H 0.6010 0.0450 0.8734
C7 C 0.5389(4) 0.0208(4) 0.7864(3)
H5 H 0.5852 0.0421 0.7584
C8 C 0.4602(3) -0.0126(3) 0.7592(2)
C9 C 0.4405(4) -0.0179(4) 0.6844(2)
C10 C 0.4998(3) 0.0041(3) 0.5707(2)
C11 C 0.5677(3) 0.0597(4) 0.5341(3)
H6 H 0.6139 0.1005 0.5569
C12 C 0.4309(3) -0.0567(4) 0.5363(2)
H7 H 0.3841 -0.0950 0.5601
Cu1 Cu 0.5000 0.0000 1.0000
H8 H 0.558(4) 0.041(4) 0.657(3)
N1 N 0.4843(2) -0.0073(2) 0.89861(19)
N2 N 0.5044(3) 0.0096(3) 0.6419(2)
O1 O 0.5915(2) 0.11200(19) 0.99152(16)
O2 O 0.4795(2) 0.1260(2) 0.99553(18)
O3 O 0.3686(3) -0.0469(4) 0.6668(2)
C1A C 0.8440(3) 0.3998(4) 0.9927(2)
C1B C 0.6002(4) 0.4442(3) 0.9927(2)
C1I C 0.4442(3) -0.1560(3) 1.0073(2)
C1J C 0.1560(3) -0.3998(4) 1.0073(2)
C1K C 0.3998(4) -0.4442(3) 1.0073(2)
C2A C 0.7520(3) 0.3654(4) 0.9913(3)
C2B C 0.6346(4) 0.3866(3) 0.9913(3)
C2I C 0.3866(3) -0.2480(3) 1.0087(3)
C2J C 0.2480(3) -0.3654(4) 1.0087(3)
C2K C 0.3654(4) -0.3866(3) 1.0087(3)
C3A C 0.7196(3) 0.4186(4) 0.9912(3)
C3B C 0.5814(4) 0.3010(3) 0.9912(3)
C3I C 0.3010(3) -0.2804(3) 1.0088(3)
C3J C 0.2804(3) -0.4186(4) 1.0088(3)
C3K C 0.4186(4) -0.3010(3) 1.0088(3)
H1B H 0.5242 0.2794 0.9909
H1A H 0.7552 0.4758 0.9909
H1I H 0.2794 -0.2448 1.0091
H1K H 0.4758 -0.2794 1.0091
H1J H 0.2448 -0.4758 1.0091
C4I C 0.5911(3) 0.0395(4) 0.1279(3)
C4I_2 C 0.5911(3) 0.0395(4) 1.1279(3)
C4_2 C 0.4089(3) -0.0395(4) 1.8721(3)
C4_3 C 0.4089(3) -0.0395(4) -0.1279(3)
C4I_3 C 0.5911(3) 0.0395(4) -0.8721(3)
H2I H 0.6365 0.0611 0.0989
H2I_2 H 0.6365 0.0611 1.0989
H2_2 H 0.3635 -0.0611 1.9011
H2_3 H 0.3635 -0.0611 -0.0989
H2I_3 H 0.6365 0.0611 -0.9011
C5I C 0.6048(3) 0.0423(4) 0.1958(3)
C5I_2 C 0.6048(3) 0.0423(4) 1.1958(3)
C5_2 C 0.3952(3) -0.0423(4) 1.8042(3)
C5_3 C 0.3952(3) -0.0423(4) -0.1958(3)
C5I_3 C 0.6048(3) 0.0423(4) -0.8042(3)
H3I H 0.6588 0.0645 0.2119
H3I_2 H 0.6588 0.0645 1.2119
H3_2 H 0.3412 -0.0645 1.7881
H3_3 H 0.3412 -0.0645 -0.2119
H3I_3 H 0.6588 0.0645 -0.7881
C6I C 0.4523(3) -0.0222(4) 0.1443(3)
C6I_2 C 0.4523(3) -0.0222(4) 1.1443(3)
C6_2 C 0.5477(3) 0.0222(4) 1.8557(3)
C6_3 C 0.5477(3) 0.0222(4) -0.1443(3)
C6I_3 C 0.4523(3) -0.0222(4) -0.8557(3)
H4I H 0.3990 -0.0450 0.1266
H4I_2 H 0.3990 -0.0450 1.1266
H4_2 H 0.6010 0.0450 1.8734
H4_3 H 0.6010 0.0450 -0.1266
H4I_3 H 0.3990 -0.0450 -0.8734
C7I C 0.4611(4) -0.0208(4) 0.2136(3)
C7I_2 C 0.4611(4) -0.0208(4) 1.2136(3)
C7_2 C 0.5389(4) 0.0208(4) 1.7864(3)
C7_3 C 0.5389(4) 0.0208(4) -0.2136(3)
C7I_3 C 0.4611(4) -0.0208(4) -0.7864(3)
H5I H 0.4148 -0.0421 0.2416
H5I_2 H 0.4148 -0.0421 1.2416
H5_2 H 0.5852 0.0421 1.7584
H5_3 H 0.5852 0.0421 -0.2416
H5I_3 H 0.4148 -0.0421 -0.7584
C8I C 0.5398(3) 0.0126(3) 0.2408(2)
C8I_2 C 0.5398(3) 0.0126(3) 1.2408(2)
C8_2 C 0.4602(3) -0.0126(3) 1.7592(2)
C8_3 C 0.4602(3) -0.0126(3) -0.2408(2)
C8I_3 C 0.5398(3) 0.0126(3) -0.7592(2)
C9I C 0.5595(4) 0.0179(4) 0.3156(2)
C9I_2 C 0.5595(4) 0.0179(4) 1.3156(2)
C9_2 C 0.4405(4) -0.0179(4) 1.6844(2)
C9_3 C 0.4405(4) -0.0179(4) -0.3156(2)
C9I_3 C 0.5595(4) 0.0179(4) -0.6844(2)
C10I C 0.5002(3) -0.0041(3) 0.4293(2)
C10I_2 C 0.5002(3) -0.0041(3) 1.4293(2)
C10_2 C 0.4998(3) 0.0041(3) 1.5707(2)
C10_3 C 0.4998(3) 0.0041(3) -0.4293(2)
C10I_3 C 0.5002(3) -0.0041(3) -0.5707(2)
C11I C 0.4323(3) -0.0597(4) 0.4659(3)
C11I_2 C 0.4323(3) -0.0597(4) 1.4659(3)
C11_2 C 0.5677(3) 0.0597(4) 1.5341(3)
C11_3 C 0.5677(3) 0.0597(4) -0.4659(3)
C11I_3 C 0.4323(3) -0.0597(4) -0.5341(3)
H6I H 0.3861 -0.1005 0.4431
H6I_2 H 0.3861 -0.1005 1.4431
H6_2 H 0.6139 0.1005 1.5569
H6_3 H 0.6139 0.1005 -0.4431
H6I_3 H 0.3861 -0.1005 -0.5569
C12I C 0.5691(3) 0.0567(4) 0.4637(2)
C12I_2 C 0.5691(3) 0.0567(4) 1.4637(2)
C12_2 C 0.4309(3) -0.0567(4) 1.5363(2)
C12_3 C 0.4309(3) -0.0567(4) -0.4637(2)
C12I_3 C 0.5691(3) 0.0567(4) -0.5363(2)
H7I H 0.6159 0.0950 0.4399
H7I_2 H 0.6159 0.0950 1.4399
H7_2 H 0.3841 -0.0950 1.5601
H7_3 H 0.3841 -0.0950 -0.4399
H7I_3 H 0.6159 0.0950 -0.5601
Cu1_2 Cu 0.5000 0.0000 0.0000
Cu1_3 Cu 0.5000 0.0000 2.0000
Cu1A Cu 1.0000 0.5000 1.0000
Cu1B Cu 0.5000 0.5000 1.0000
Cu1A_2 Cu 0.0000 -0.5000 1.0000
Cu1B_2 Cu 0.5000 -0.5000 1.0000
Cu1_4 Cu 0.5000 0.0000 -1.0000
H8I H 0.442(4) -0.041(4) 0.343(3)
H8I_2 H 0.442(4) -0.041(4) 1.343(3)
H8_2 H 0.558(4) 0.041(4) 1.657(3)
H8_3 H 0.558(4) 0.041(4) -0.343(3)
H8I_3 H 0.442(4) -0.041(4) -0.657(3)
N1I N 0.5157(2) 0.0073(2) 0.10139(19)
N1I_2 N 0.5157(2) 0.0073(2) 1.10139(19)
N1_2 N 0.4843(2) -0.0073(2) 1.89861(19)
N1_3 N 0.4843(2) -0.0073(2) -0.10139(19)
N1I_3 N 0.5157(2) 0.0073(2) -0.89861(19)
N1I_4 N 0.5157(2) 0.0073(2) 2.10139(19)
N2I N 0.4956(3) -0.0096(3) 0.3581(2)
N2I_2 N 0.4956(3) -0.0096(3) 1.3581(2)
N2_2 N 0.5044(3) 0.0096(3) 1.6419(2)
N2_3 N 0.5044(3) 0.0096(3) -0.3581(2)
N2I_3 N 0.4956(3) -0.0096(3) -0.6419(2)
O1A O 0.88800(19) 0.47950(28) 0.99152(16)
O1B O 0.52050(28) 0.4085(2) 0.99152(16)
O1I O 0.4085(2) -0.11200(19) 1.00848(16)
O1J O 0.11200(19) -0.47950(28) 1.00848(16)
O1K O 0.47950(28) -0.4085(2) 1.00848(16)
O1_2 O 0.5915(2) 0.11200(19) -0.00848(16)
O1I_2 O 0.4085(2) -0.11200(19) 0.00848(16)
O1_3 O 0.5915(2) 0.11200(19) 1.99152(16)
O1I_3 O 0.4085(2) -0.11200(19) 2.00848(16)
O2A O 0.8740(2) 0.3535(3) 0.99553(18)
O2B O 0.6465(3) 0.5205(2) 0.99553(18)
O2I O 0.5205(2) -0.1260(2) 1.00447(18)
O2J O 0.1260(2) -0.3535(3) 1.00447(18)
O2K O 0.3535(3) -0.5205(2) 1.00447(18)
O3I O 0.6314(3) 0.0469(4) 0.3332(2)
O3I_2 O 0.6314(3) 0.0469(4) 1.3332(2)
O3_2 O 0.3686(3) -0.0469(4) 1.6668(2)
O3_3 O 0.3686(3) -0.0469(4) -0.3332(2)
O3I_3 O 0.6314(3) 0.0469(4) -0.6668(2)
loop_
_geom_bond_atom_site_label_1
_geom_bond_atom_site_label_2
_geom_bond_site_symmetry_1
_geom_bond_site_symmetry_2
C1 C2 1_555 1_555
C2 C3 1_555 1_555
C3 H1 1_555 1_555
C4 H2 1_555 1_555
C5 C4 1_555 1_555
H3 C5 1_555 1_555
C6 H4 1_555 1_555
C7 C6 1_555 1_555
H5 C7 1_555 1_555
C8 C5 1_555 1_555
C9 C8 1_555 1_555
C10 C11 1_555 1_555
C11 H6 1_555 1_555
C12 C10 1_555 1_555
H7 C12 1_555 1_555
Cu1 N1 1_555 1_555
H8 N2 1_555 1_555
N1 C4 1_555 1_555
N2 C9 1_555 1_555
O1 C1 1_555 1_555
O2 C1 1_555 1_555
O3 C9 1_555 1_555
C1A C2A 1_555 1_555
C1B C2B 1_555 1_555
C1I C2I 1_555 1_555
C1J C2J 1_555 1_555
C1K C2K 1_555 1_555
C2A C3 1_555 1_555
C2B C3A 1_555 1_555
C2I C3I 1_555 1_555
C2J C3I 1_555 1_555
C2K C3J 1_555 1_555
C3A C2A 1_555 1_555
C3B C2 1_555 1_555
C3I H1I 1_555 1_555
C3J C2J 1_555 1_555
C3K C2I 1_555 1_555
H1B C3B 1_555 1_555
H1A C3A 1_555 1_555
H1K C3K 1_555 1_555
H1J C3J 1_555 1_555
C4I H2I 1_555 1_555
C4I_2 H2I_2 1_555 1_555
C4_2 H2_2 1_555 1_555
C4_3 H2_3 1_555 1_555
C4I_3 H2I_3 1_555 1_555
C5I C4I 1_555 1_555
C5I_2 C4I_2 1_555 1_555
C5_2 C4_2 1_555 1_555
C5_3 C4_3 1_555 1_555
C5I_3 C4I_3 1_555 1_555
H3I C5I 1_555 1_555
H3I_2 C5I_2 1_555 1_555
H3_2 C5_2 1_555 1_555
H3_3 C5_3 1_555 1_555
H3I_3 C5I_3 1_555 1_555
C6I H4I 1_555 1_555
C6I_2 H4I_2 1_555 1_555
C6_2 H4_2 1_555 1_555
C6_3 H4_3 1_555 1_555
C6I_3 H4I_3 1_555 1_555
C7I C6I 1_555 1_555
C7I_2 C6I_2 1_555 1_555
C7_2 C6_2 1_555 1_555
C7_3 C6_3 1_555 1_555
C7I_3 C6I_3 1_555 1_555
H5I C7I 1_555 1_555
H5I_2 C7I_2 1_555 1_555
H5_2 C7_2 1_555 1_555
H5_3 C7_3 1_555 1_555
H5I_3 C7I_3 1_555 1_555
C8I C5I 1_555 1_555
C8I_2 C5I_2 1_555 1_555
C8_2 C5_2 1_555 1_555
C8_3 C5_3 1_555 1_555
C8I_3 C5I_3 1_555 1_555
C9I C8I 1_555 1_555
C9I_2 C8I_2 1_555 1_555
C9_2 C8_2 1_555 1_555
C9_3 C8_3 1_555 1_555
C9I_3 C8I_3 1_555 1_555
C10I C11I 1_555 1_555
C10I_2 C11I_2 1_555 1_555
C10_2 C11_2 1_555 1_555
C10_3 C11_3 1_555 1_555
C10I_3 C11I_3 1_555 1_555
C11I C12 1_555 1_555
C11I_2 H6I_2 1_555 1_555
C11_2 H6_2 1_555 1_555
C11_3 H6_3 1_555 1_555
C11I_3 H6I_3 1_555 1_555
H6I C11I 1_555 1_555
C12I C11 1_555 1_555
C12I_2 C10I_2 1_555 1_555
C12_2 C10_2 1_555 1_555
C12_3 C10_3 1_555 1_555
C12I_3 C10I_3 1_555 1_555
H7I C12I 1_555 1_555
H7I_2 C12I_2 1_555 1_555
H7_2 C12_2 1_555 1_555
H7_3 C12_3 1_555 1_555
H7I_3 C12I_3 1_555 1_555
Cu1_2 N1I 1_555 1_555
Cu1_3 N1_2 1_555 1_555
Cu1A O1A 1_555 1_555
Cu1B O1B 1_555 1_555
Cu1A_2 O1J 1_555 1_555
Cu1B_2 O1K 1_555 1_555
Cu1_4 N1I_3 1_555 1_555
H8I N2I 1_555 1_555
H8I_2 N2I_2 1_555 1_555
H8_2 N2_2 1_555 1_555
H8_3 N2_3 1_555 1_555
H8I_3 N2I_3 1_555 1_555
N1I C4I 1_555 1_555
N1I_2 Cu1 1_555 1_555
N1_2 C4_2 1_555 1_555
N1_3 C4_3 1_555 1_555
N1I_3 C4I_3 1_555 1_555
N1I_4 Cu1_3 1_555 1_555
N2I C9I 1_555 1_555
N2I_2 C9I_2 1_555 1_555
N2_2 C9_2 1_555 1_555
N2_3 C9_3 1_555 1_555
N2I_3 C9I_3 1_555 1_555
O1A C1A 1_555 1_555
O1B C1B 1_555 1_555
O1I Cu1 1_555 1_555
O1J C1J 1_555 1_555
O1K C1K 1_555 1_555
O1_2 Cu1_2 1_555 1_555
O1I_2 Cu1_2 1_555 1_555
O1_3 Cu1_3 1_555 1_555
O1I_3 Cu1_3 1_555 1_555
O2A C1A 1_555 1_555
O2B C1B 1_555 1_555
O2I C1I 1_555 1_555
O2J C1J 1_555 1_555
O2K C1K 1_555 1_555
O3I C9I 1_555 1_555
O3I_2 C9I_2 1_555 1_555
O3_2 C9_2 1_555 1_555
O3_3 C9_3 1_555 1_555
O3I_3 C9I_3 1_555 1_555
C6 N1 1_555 1_555
C7 C8 1_555 1_555
C10 N2 1_555 1_555
Cu1 O1 1_555 1_555
C1I O1I 1_555 1_555
C2B C3B 1_555 1_555
C2K C3K 1_555 1_555
C4I_2 N1I_2 1_555 1_555
C6I N1I 1_555 1_555
C6I_2 N1I_2 1_555 1_555
C6_2 N1_2 1_555 1_555
C6_3 N1_3 1_555 1_555
C6I_3 N1I_3 1_555 1_555
C7I C8I 1_555 1_555
C7I_2 C8I_2 1_555 1_555
C7_2 C8_2 1_555 1_555
C7_3 C8_3 1_555 1_555
C7I_3 C8I_3 1_555 1_555
C10I C12I 1_555 1_555
C10I N2I 1_555 1_555
C10I_2 N2I_2 1_555 1_555
C10_2 N2_2 1_555 1_555
C10_3 N2_3 1_555 1_555
C10I_3 N2I_3 1_555 1_555
C11I_2 C12_2 1_555 1_555
C11_2 C12I_2 1_555 1_555
C11_3 C12I_3 1_555 1_555
C11I_3 C12_3 1_555 1_555
Cu1_2 N1_3 1_555 1_555

#END
