
#######################################################################
#
#                 Cambridge Crystallographic Data Centre
#                                CCDC 
#
#######################################################################
#
# If this CIF has been generated from an entry in the Cambridge 
# Structural Database, then it will include bibliographic, chemical, 
# crystal, experimental, refinement or atomic coordinate data resulting 
# from the CCDC's data processing and validation procedures.
#
#######################################################################

data_NIRCIB
_symmetry_cell_setting           orthorhombic
_symmetry_space_group_name_H-M   'C m c a'
_symmetry_Int_Tables_number      64
_space_group_name_Hall           '-C 2ac 2'
loop_
_symmetry_equiv_pos_site_id
_symmetry_equiv_pos_as_xyz
1 x,y,z
2 1/2+x,1/2+y,z
3 -x,1/2-y,1/2+z
4 -x,1/2+y,1/2-z
5 x,-y,-z
6 1/2-x,-y,1/2+z
7 1/2-x,y,1/2-z
8 1/2+x,1/2-y,-z
9 -x,-y,-z
10 1/2-x,1/2-y,-z
11 x,1/2+y,1/2-z
12 x,1/2-y,1/2+z
13 -x,y,z
14 1/2+x,y,1/2-z
15 1/2+x,-y,1/2+z
16 1/2-x,1/2+y,z
_cell_length_a                   9.140(3)
_cell_length_b                   15.831(3)
_cell_length_c                   13.961(5)
_cell_angle_alpha                90
_cell_angle_beta                 90
_cell_angle_gamma                90
_cell_volume                     2020.09
loop_
_atom_site_label
_atom_site_type_symbol
_atom_site_fract_x
_atom_site_fract_y
_atom_site_fract_z
Fe1 Fe 1.0000 1.0000 0.0000
N1 N 0.63151(19) 0.89336(12) 0.15600(12)
N2 N 0.82493(19) 0.92650(12) 0.06946(12)
N3 N 1.0000 1.08706(19) 0.1188(2)
S1 S 1.0000 1.15665(7) 0.30205(7)
C1 C 0.7153(2) 0.95637(14) 0.12056(15)
H1 H 0.6978 1.0135 0.1309
C2 C 0.8079(3) 0.84039(16) 0.07176(18)
H2 H 0.8688 0.8021 0.0406
C3 C 0.6911(3) 0.81880(15) 0.12533(19)
H3 H 0.6578 0.7645 0.1387
C4 C 0.5000 0.9020(2) 0.2137(2)
H4 H 0.5000 0.8592 0.2634
H5 H 0.5000 0.9569 0.2445
C5 C 1.0000 1.1162(2) 0.1950(2)
Fe1_2 Fe 0.0000 1.0000 0.0000
Fe1_3 Fe 2.0000 1.0000 0.0000
N1L N 0.36849(19) 0.89336(12) 0.15600(12)
N1L_2 N 1.36849(19) 0.89336(12) 0.15600(12)
N1_2 N 1.63151(19) 0.89336(12) 0.15600(12)
N2L N 0.17507(19) 0.92650(12) 0.06946(12)
N2L_2 N 1.17507(19) 0.92650(12) 0.06946(12)
N2_2 N 1.82493(19) 0.92650(12) 0.06946(12)
N2H N 1.17507(19) 1.07350(12) -0.06946(12)
N2D N 0.82493(19) 1.07350(12) -0.06946(12)
N3H N 1.0000 0.91294(19) -0.1188(2)
S1H S 1.0000 0.84335(7) -0.30205(7)
C1L C 0.2847(2) 0.95637(14) 0.12056(15)
C1L_2 C 1.2847(2) 0.95637(14) 0.12056(15)
C1_2 C 1.7153(2) 0.95637(14) 0.12056(15)
H1L H 0.3022 1.0135 0.1309
H1L_2 H 1.3022 1.0135 0.1309
H1_2 H 1.6978 1.0135 0.1309
C2L C 0.1921(3) 0.84039(16) 0.07176(18)
C2L_2 C 1.1921(3) 0.84039(16) 0.07176(18)
C2_2 C 1.8079(3) 0.84039(16) 0.07176(18)
H2L H 0.1312 0.8021 0.0406
H2L_2 H 1.1312 0.8021 0.0406
H2_2 H 1.8688 0.8021 0.0406
C3L C 0.3089(3) 0.81880(15) 0.12533(19)
C3L_2 C 1.3089(3) 0.81880(15) 0.12533(19)
C3_2 C 1.6911(3) 0.81880(15) 0.12533(19)
H3L H 0.3422 0.7645 0.1387
H3L_2 H 1.3422 0.7645 0.1387
H3_2 H 1.6578 0.7645 0.1387
C4_2 C 1.5000 0.9020(2) 0.2137(2)
H4_2 H 1.5000 0.8592 0.2634
H5_2 H 1.5000 0.9569 0.2445
C5H C 1.0000 0.8838(2) -0.1950(2)
loop_
_geom_bond_atom_site_label_1
_geom_bond_atom_site_label_2
_geom_bond_site_symmetry_1
_geom_bond_site_symmetry_2
Fe1 N2 1_555 1_555
N1 C1 1_555 1_555
N2 C1 1_555 1_555
N3 Fe1 1_555 1_555
S1 C5 1_555 1_555
C1 H1 1_555 1_555
C2 N2 1_555 1_555
H2 C2 1_555 1_555
C3 N1 1_555 1_555
H3 C3 1_555 1_555
C4 N1 1_555 1_555
H4 C4 1_555 1_555
H5 C4 1_555 1_555
C5 N3 1_555 1_555
Fe1_2 N2L 1_555 1_555
Fe1_3 N2_2 1_555 1_555
N1L C4 1_555 1_555
N1L_2 C1L_2 1_555 1_555
N1_2 C1_2 1_555 1_555
N2L C1L 1_555 1_555
N2L_2 Fe1 1_555 1_555
N2_2 C1_2 1_555 1_555
N2H Fe1 1_555 1_555
N2D Fe1 1_555 1_555
N3H Fe1 1_555 1_555
S1H C5H 1_555 1_555
C1L N1L 1_555 1_555
C1L_2 N2L_2 1_555 1_555
C1_2 H1_2 1_555 1_555
H1L C1L 1_555 1_555
H1L_2 C1L_2 1_555 1_555
C2L N2L 1_555 1_555
C2L_2 N2L_2 1_555 1_555
C2_2 N2_2 1_555 1_555
H2L C2L 1_555 1_555
H2L_2 C2L_2 1_555 1_555
H2_2 C2_2 1_555 1_555
C3L N1L 1_555 1_555
C3L_2 N1L_2 1_555 1_555
C3_2 N1_2 1_555 1_555
H3L C3L 1_555 1_555
H3L_2 C3L_2 1_555 1_555
H3_2 C3_2 1_555 1_555
C4_2 N1L_2 1_555 1_555
H4_2 C4_2 1_555 1_555
H5_2 C4_2 1_555 1_555
C5H N3H 1_555 1_555
C2 C3 1_555 1_555
N1_2 C4_2 1_555 1_555
C2L C3L 1_555 1_555
C2L_2 C3L_2 1_555 1_555
C2_2 C3_2 1_555 1_555

#END
