
#######################################################################
#
#                 Cambridge Crystallographic Data Centre
#                                CCDC 
#
#######################################################################
#
# If this CIF has been generated from an entry in the Cambridge 
# Structural Database, then it will include bibliographic, chemical, 
# crystal, experimental, refinement or atomic coordinate data resulting 
# from the CCDC's data processing and validation procedures.
#
#######################################################################

data_NIRCEX
_symmetry_cell_setting           monoclinic
_symmetry_space_group_name_H-M   'P 21/c'
_symmetry_Int_Tables_number      14
_space_group_name_Hall           '-P 2ybc'
loop_
_symmetry_equiv_pos_site_id
_symmetry_equiv_pos_as_xyz
1 x,y,z
2 -x,1/2+y,1/2-z
3 -x,-y,-z
4 x,1/2-y,1/2+z
_cell_length_a                   8.1530(16)
_cell_length_b                   17.810(4)
_cell_length_c                   9.0426(18)
_cell_angle_alpha                90
_cell_angle_beta                 110.93(3)
_cell_angle_gamma                90
_cell_volume                     1226.39
loop_
_atom_site_label
_atom_site_type_symbol
_atom_site_fract_x
_atom_site_fract_y
_atom_site_fract_z
Cd1 Cd 0.0000 0.5000 0.5000
N1 N 0.0708(6) 0.3811(2) 0.4289(5)
N2 N 0.1967(6) 0.2944(2) 0.3322(5)
N3 N 0.9689(5) 0.0491(2) 0.2239(5)
N4 N 0.8495(5) 0.0954(2) 0.3877(4)
O1 O 0.5461(7) 0.5513(4) 0.8146(7)
O2 O 0.3925(7) 0.6077(4) 0.6116(7)
C1 C 0.2093(7) 0.3636(3) 0.3928(6)
H1 H 0.3042 0.3955 0.4078
C2 C -0.0343(7) 0.3190(3) 0.3894(7)
H2 H -0.1420 0.3144 0.4024
C3 C 0.0400(8) 0.2656(3) 0.3292(7)
H3 H -0.0059 0.2185 0.2928
C4 C 0.8207(7) 0.0703(3) 0.2406(6)
H4 H 0.7107 0.0680 0.1607
C5 C 1.0977(6) 0.0608(3) 0.3685(6)
H5 H 1.2165 0.0508 0.3931
C6 C 1.0260(7) 0.0891(3) 0.4696(6)
H6 H 1.0852 0.1019 0.5751
C7 C 0.7171(8) 0.1239(3) 0.4485(6)
H7 H 0.7751 0.1527 0.5440
H8 H 0.6585 0.0818 0.4764
C8 C 0.5818(7) 0.1728(3) 0.3301(6)
H9 H 0.5131 0.1422 0.2406
H10 H 0.6414 0.2109 0.2913
C9 C 0.4587(7) 0.2109(3) 0.4002(6)
H11 H 0.4006 0.1732 0.4415
H12 H 0.5258 0.2433 0.4869
C10 C 0.3232(8) 0.2567(3) 0.2748(6)
H13 H 0.3828 0.2944 0.2349
H14 H 0.2596 0.2241 0.1872
N5 N 0.4164(8) 0.5478(4) 0.6991(8)
O3 O 0.3082(9) 0.5002(3) 0.6573(8)
Cd1C Cd 1.0000 0.0000 0.0000
Cd1C_2 Cd -1.0000 1.0000 1.0000
N1B N -0.0708(6) 0.6189(2) 0.5711(5)
N2B N -0.1967(6) 0.7056(2) 0.6678(5)
N3B N -0.9689(5) 0.9509(2) 0.7761(5)
N3C N -0.0311(5) 0.4509(2) 0.7239(5)
N3A N 0.0311(5) 0.5491(2) 0.2761(5)
N4B N -0.8495(5) 0.9046(2) 0.6123(4)
O1B O -0.5461(7) 0.4487(4) 0.1854(7)
O2B O -0.3925(7) 0.3923(4) 0.3884(7)
C1B C -0.2093(7) 0.6364(3) 0.6072(6)
H1B H -0.3042 0.6045 0.5922
C2B C 0.0343(7) 0.6810(3) 0.6106(7)
H2B H 0.1420 0.6856 0.5976
C3B C -0.0400(8) 0.7344(3) 0.6708(7)
H3B H 0.0059 0.7815 0.7072
C4B C -0.8207(7) 0.9297(3) 0.7594(6)
H4B H -0.7107 0.9320 0.8393
C5B C -1.0977(6) 0.9392(3) 0.6315(6)
H5B H -1.2165 0.9492 0.6069
C6B C -1.0260(7) 0.9109(3) 0.5304(6)
H6B H -1.0852 0.8981 0.4249
C7B C -0.7171(8) 0.8761(3) 0.5515(6)
H7B H -0.7751 0.8473 0.4560
H8B H -0.6585 0.9182 0.5236
C8B C -0.5818(7) 0.8272(3) 0.6699(6)
H9B H -0.5131 0.8578 0.7594
H10B H -0.6414 0.7891 0.7087
C9B C -0.4587(7) 0.7891(3) 0.5998(6)
H11B H -0.4006 0.8268 0.5585
H12B H -0.5258 0.7567 0.5131
C10B C -0.3232(8) 0.7433(3) 0.7252(6)
H13B H -0.3828 0.7056 0.7651
H14B H -0.2596 0.7759 0.8128
N5B N -0.4164(8) 0.4522(4) 0.3009(8)
O3B O -0.3082(9) 0.4998(3) 0.3427(8)
loop_
_geom_bond_atom_site_label_1
_geom_bond_atom_site_label_2
_geom_bond_site_symmetry_1
_geom_bond_site_symmetry_2
Cd1 N1 1_555 1_555
N1 C1 1_555 1_555
N2 C1 1_555 1_555
N3 C4 1_555 1_555
N4 C4 1_555 1_555
O1 N5 1_555 1_555
O2 N5 1_555 1_555
C1 H1 1_555 1_555
C2 N1 1_555 1_555
H2 C2 1_555 1_555
C3 N2 1_555 1_555
H3 C3 1_555 1_555
C4 H4 1_555 1_555
C5 N3 1_555 1_555
H5 C5 1_555 1_555
C6 N4 1_555 1_555
H6 C6 1_555 1_555
C7 N4 1_555 1_555
H7 C7 1_555 1_555
H8 C7 1_555 1_555
C8 C7 1_555 1_555
H9 C8 1_555 1_555
H10 C8 1_555 1_555
C9 C8 1_555 1_555
H11 C9 1_555 1_555
H12 C9 1_555 1_555
C10 N2 1_555 1_555
H13 C10 1_555 1_555
H14 C10 1_555 1_555
N5 O3 1_555 1_555
O3 Cd1 1_555 1_555
Cd1C N3 1_555 1_555
Cd1C_2 N3B 1_555 1_555
N1B Cd1 1_555 1_555
N2B C1B 1_555 1_555
N3B C4B 1_555 1_555
N3C Cd1 1_555 1_555
N3A Cd1 1_555 1_555
N4B C4B 1_555 1_555
O1B N5B 1_555 1_555
O2B N5B 1_555 1_555
C1B N1B 1_555 1_555
H1B C1B 1_555 1_555
C2B N1B 1_555 1_555
H2B C2B 1_555 1_555
C3B N2B 1_555 1_555
H3B C3B 1_555 1_555
C4B H4B 1_555 1_555
C5B N3B 1_555 1_555
H5B C5B 1_555 1_555
C6B N4B 1_555 1_555
H6B C6B 1_555 1_555
C7B N4B 1_555 1_555
H7B C7B 1_555 1_555
H8B C7B 1_555 1_555
C8B C7B 1_555 1_555
H9B C8B 1_555 1_555
H10B C8B 1_555 1_555
C9B C8B 1_555 1_555
H11B C9B 1_555 1_555
H12B C9B 1_555 1_555
C10B N2B 1_555 1_555
H13B C10B 1_555 1_555
H14B C10B 1_555 1_555
N5B O3B 1_555 1_555
O3B Cd1 1_555 1_555
C2 C3 1_555 1_555
C5 C6 1_555 1_555
C9 C10 1_555 1_555
C2B C3B 1_555 1_555
C5B C6B 1_555 1_555
C9B C10B 1_555 1_555

#END
