
#######################################################################
#
#                 Cambridge Crystallographic Data Centre
#                                CCDC 
#
#######################################################################
#
# If this CIF has been generated from an entry in the Cambridge 
# Structural Database, then it will include bibliographic, chemical, 
# crystal, experimental, refinement or atomic coordinate data resulting 
# from the CCDC's data processing and validation procedures.
#
#######################################################################

data_NIRCUN
_symmetry_cell_setting           monoclinic
_symmetry_space_group_name_H-M   'P 21/c'
_symmetry_Int_Tables_number      14
_space_group_name_Hall           '-P 2ybc'
loop_
_symmetry_equiv_pos_site_id
_symmetry_equiv_pos_as_xyz
1 x,y,z
2 -x,1/2+y,1/2-z
3 -x,-y,-z
4 x,1/2-y,1/2+z
_cell_length_a                   8.582(3)
_cell_length_b                   13.450(5)
_cell_length_c                   9.381(3)
_cell_angle_alpha                90
_cell_angle_beta                 106.997(4)
_cell_angle_gamma                90
_cell_volume                     1035.53
loop_
_atom_site_label
_atom_site_type_symbol
_atom_site_fract_x
_atom_site_fract_y
_atom_site_fract_z
Mn1 Mn 0.5000 0.0000 0.5000
N1 N 0.7181(3) 0.14575(19) 0.9314(2)
N2 N 0.6541(3) 0.06529(19) 0.7179(3)
N3 N 0.7188(3) 0.15121(19) 1.1892(3)
N4 N 0.6566(3) 0.06542(19) 1.3650(3)
O1 O 0.3402(3) 0.13161(19) 0.4556(2)
H1 H 0.2935 0.1581 0.5145
H2 H 0.2971 0.1589 0.3715
C1 C 0.5986(4) 0.1190(2) 0.8087(3)
H5 H 0.4898 0.1367 0.7907
C2 C 0.8181(4) 0.0567(3) 0.7868(3)
H6 H 0.8907 0.0218 0.7489
C3 C 0.8589(4) 0.1060(3) 0.9172(4)
H7 H 0.9625 0.1118 0.9842
C4 C 0.5996(4) 0.1077(3) 1.2336(3)
H8 H 0.4903 0.1075 1.1781
C5 C 0.8206(4) 0.0839(3) 1.4068(3)
H9 H 0.8939 0.0631 1.4959
C6 C 0.8606(4) 0.1363(3) 1.3005(3)
H10 H 0.9640 0.1580 1.3023
C7 C 0.7010(5) 0.2069(2) 1.0534(3)
H11 H 0.7824 0.2591 1.0728
H12 H 0.5945 0.2382 1.0239
Mn1_2 Mn 0.5000 0.0000 1.5000
Mn1_3 Mn 0.5000 0.0000 -0.5000
N1B N 0.2819(3) -0.14575(19) 0.0686(2)
N2B N 0.3459(3) -0.06529(19) 0.2821(3)
N3B N 0.2812(3) -0.15121(19) -0.1892(3)
N4B N 0.3434(3) -0.06542(19) -0.3650(3)
N4_2 N 0.6566(3) 0.06542(19) 0.3650(3)
N4B_2 N 0.3434(3) -0.06542(19) 0.6350(3)
O1B O 0.6598(3) -0.13161(19) 0.5444(2)
H1B H 0.7065 -0.1581 0.4855
H2B H 0.7029 -0.1589 0.6285
C1B C 0.4014(4) -0.1190(2) 0.1913(3)
H5B H 0.5102 -0.1367 0.2093
C2B C 0.1819(4) -0.0567(3) 0.2132(3)
H6B H 0.1093 -0.0218 0.2511
C3B C 0.1411(4) -0.1060(3) 0.0828(4)
H7B H 0.0375 -0.1118 0.0158
C4B C 0.4004(4) -0.1077(3) -0.2336(3)
H8B H 0.5097 -0.1075 -0.1781
C5B C 0.1794(4) -0.0839(3) -0.4068(3)
H9B H 0.1061 -0.0631 -0.4959
C6B C 0.1394(4) -0.1363(3) -0.3005(3)
H10B H 0.0360 -0.1580 -0.3023
C7B C 0.2990(5) -0.2069(2) -0.0534(3)
H11B H 0.2176 -0.2591 -0.0728
H12B H 0.4055 -0.2382 -0.0239
Cl1 Cl 0.18669(12) 0.24712(8) 0.66563(9)
O2 O 0.2708(5) 0.0911(3) 0.9353(5)
H3 H 0.2294 0.1153 0.8488
H4 H 0.2251 0.1195 0.9934
loop_
_geom_bond_atom_site_label_1
_geom_bond_atom_site_label_2
_geom_bond_site_symmetry_1
_geom_bond_site_symmetry_2
Mn1 N2 1_555 1_555
N1 C1 1_555 1_555
N2 C1 1_555 1_555
N3 C4 1_555 1_555
N4 C4 1_555 1_555
O1 Mn1 1_555 1_555
H1 O1 1_555 1_555
H2 O1 1_555 1_555
O2 H3 1_555 1_555
H4 O2 1_555 1_555
C1 H5 1_555 1_555
C2 N2 1_555 1_555
H6 C2 1_555 1_555
C3 N1 1_555 1_555
H7 C3 1_555 1_555
C4 H8 1_555 1_555
C5 N4 1_555 1_555
H9 C5 1_555 1_555
C6 N3 1_555 1_555
H10 C6 1_555 1_555
C7 N1 1_555 1_555
H11 C7 1_555 1_555
H12 C7 1_555 1_555
Mn1_2 N4 1_555 1_555
Mn1_3 N4B 1_555 1_555
N1B C1B 1_555 1_555
N2B Mn1 1_555 1_555
N3B C4B 1_555 1_555
N4B C4B 1_555 1_555
N4_2 Mn1 1_555 1_555
N4B_2 Mn1 1_555 1_555
O1B Mn1 1_555 1_555
H1B O1B 1_555 1_555
H2B O1B 1_555 1_555
C1B N2B 1_555 1_555
H5B C1B 1_555 1_555
C2B N2B 1_555 1_555
H6B C2B 1_555 1_555
C3B N1B 1_555 1_555
H7B C3B 1_555 1_555
C4B H8B 1_555 1_555
C5B N4B 1_555 1_555
H9B C5B 1_555 1_555
C6B N3B 1_555 1_555
H10B C6B 1_555 1_555
C7B N1B 1_555 1_555
H11B C7B 1_555 1_555
H12B C7B 1_555 1_555
N3 C7 1_555 1_555
C2 C3 1_555 1_555
C5 C6 1_555 1_555
N3B C7B 1_555 1_555
C2B C3B 1_555 1_555
C5B C6B 1_555 1_555

#END
