
#######################################################################
#
#                 Cambridge Crystallographic Data Centre
#                                CCDC 
#
#######################################################################
#
# If this CIF has been generated from an entry in the Cambridge 
# Structural Database, then it will include bibliographic, chemical, 
# crystal, experimental, refinement or atomic coordinate data resulting 
# from the CCDC's data processing and validation procedures.
#
#######################################################################

data_NIRCOH
_symmetry_cell_setting           monoclinic
_symmetry_space_group_name_H-M   'C 2/c'
_symmetry_Int_Tables_number      15
_space_group_name_Hall           '-C 2yn'
loop_
_symmetry_equiv_pos_site_id
_symmetry_equiv_pos_as_xyz
1 x,y,z
2 1/2+x,1/2+y,z
3 -x,y,1/2-z
4 1/2-x,1/2+y,1/2-z
5 -x,-y,-z
6 1/2-x,1/2-y,-z
7 x,-y,1/2+z
8 1/2+x,1/2-y,1/2+z
_cell_length_a                   26.098(7)
_cell_length_b                   6.5711(18)
_cell_length_c                   16.638(5)
_cell_angle_alpha                90
_cell_angle_beta                 118.509(3)
_cell_angle_gamma                90
_cell_volume                     2507.31
loop_
_atom_site_label
_atom_site_type_symbol
_atom_site_fract_x
_atom_site_fract_y
_atom_site_fract_z
Zn1 Zn 0.5000 0.69861(8) 0.7500
N1 N 0.55847(16) 1.1468(6) 0.6391(3)
N2 N 0.54046(13) 0.8837(5) 0.70216(19)
N3 N 0.22860(18) 0.0208(8) 0.3486(4)
O1 O 0.44119(13) 0.4885(5) 0.6756(2)
O2 O 0.40350(16) 0.7383(5) 0.5764(3)
O3 O 0.1958(2) 0.0875(8) 0.2739(3)
O4 O 0.2254(2) -0.1492(8) 0.3729(4)
C1 C 0.52136(19) 1.0567(6) 0.6609(3)
H1 H 0.4854 1.1116 0.6479
C2 C 0.59437(18) 0.8633(7) 0.7088(3)
H2 H 0.6199 0.7557 0.7369
C3 C 0.6048(2) 1.0222(7) 0.6684(4)
H3 H 0.6379 1.0426 0.6619
C4 C 0.5538(3) 1.3562(9) 0.6030(4)
H4 H 0.5551 1.4520 0.6484
H5 H 0.5872 1.3826 0.5939
C5 C 0.5015(2) 1.3915(7) 0.5185(3)
H6 H 0.4680 1.3689 0.5277
H7 H 0.4996 1.2943 0.4733
C6 C 0.40455(19) 0.5623(7) 0.6016(3)
C7 C 0.35755(16) 0.4139(6) 0.5367(3)
C8 C 0.35308(18) 0.2169(7) 0.5622(3)
H8 H 0.3786 0.1718 0.6210
C9 C 0.31056(18) 0.0861(7) 0.5003(3)
H9 H 0.3072 -0.0465 0.5168
C10 C 0.27408(18) 0.1577(8) 0.4152(3)
C11 C 0.2773(2) 0.3521(9) 0.3886(3)
H10 H 0.2515 0.3967 0.3299
C12 C 0.3192(2) 0.4801(8) 0.4500(3)
H11 H 0.3218 0.6128 0.4328
Zn1F Zn 0.5000 2.30139(8) 0.2500
N1D N 0.44153(16) 1.8532(6) 0.3609(3)
N2D N 0.45954(13) 2.1163(5) 0.29784(19)
N2B N 0.45954(13) 0.8837(5) 0.79784(19)
N3B N 0.77140(18) 0.0208(8) 1.1514(4)
O1B O 0.55881(13) 0.4885(5) 0.8244(2)
O2B O 0.59650(16) 0.7383(5) 0.9236(3)
O3B O 0.8042(2) 0.0875(8) 1.2261(3)
O4B O 0.7746(2) -0.1492(8) 1.1271(4)
C1D C 0.47864(19) 1.9433(6) 0.3391(3)
H1D H 0.5146 1.8884 0.3521
C2D C 0.40563(18) 2.1367(7) 0.2912(3)
H2D H 0.3801 2.2443 0.2631
C3D C 0.3952(2) 1.9778(7) 0.3316(4)
H3D H 0.3621 1.9574 0.3381
C4D C 0.4462(3) 1.6438(9) 0.3970(4)
H4D H 0.4449 1.5480 0.3516
H5D H 0.4128 1.6174 0.4061
C5D C 0.4985(2) 1.6085(7) 0.4815(3)
H6D H 0.5320 1.6311 0.4723
H7D H 0.5004 1.7057 0.5267
C6B C 0.59545(19) 0.5623(7) 0.8984(3)
C7B C 0.64245(16) 0.4139(6) 0.9633(3)
C8B C 0.64692(18) 0.2169(7) 0.9378(3)
H8B H 0.6214 0.1718 0.8790
C9B C 0.68944(18) 0.0861(7) 0.9997(3)
H9B H 0.6928 -0.0465 0.9832
C10B C 0.72592(18) 0.1577(8) 1.0848(3)
C11B C 0.7227(2) 0.3521(9) 1.1114(3)
H10B H 0.7485 0.3967 1.1701
C12B C 0.6808(2) 0.4801(8) 1.0500(3)
H11B H 0.6782 0.6128 1.0672
loop_
_geom_bond_atom_site_label_1
_geom_bond_atom_site_label_2
_geom_bond_site_symmetry_1
_geom_bond_site_symmetry_2
Zn1 N2 1_555 1_555
N1 C1 1_555 1_555
N2 C1 1_555 1_555
N3 O3 1_555 1_555
O1 Zn1 1_555 1_555
O2 C6 1_555 1_555
O4 N3 1_555 1_555
C1 H1 1_555 1_555
C2 N2 1_555 1_555
H2 C2 1_555 1_555
C3 N1 1_555 1_555
H3 C3 1_555 1_555
C4 N1 1_555 1_555
H4 C4 1_555 1_555
H5 C4 1_555 1_555
C5 C4 1_555 1_555
H6 C5 1_555 1_555
H7 C5 1_555 1_555
C6 O1 1_555 1_555
C7 C6 1_555 1_555
C8 C7 1_555 1_555
H8 C8 1_555 1_555
C9 C8 1_555 1_555
H9 C9 1_555 1_555
C10 N3 1_555 1_555
C11 C10 1_555 1_555
H10 C11 1_555 1_555
C12 C7 1_555 1_555
H11 C12 1_555 1_555
Zn1F N2D 1_555 1_555
N1D C1D 1_555 1_555
N2D C1D 1_555 1_555
N2B Zn1 1_555 1_555
N3B O3B 1_555 1_555
O1B Zn1 1_555 1_555
O2B C6B 1_555 1_555
O4B N3B 1_555 1_555
C1D H1D 1_555 1_555
C2D N2D 1_555 1_555
H2D C2D 1_555 1_555
C3D N1D 1_555 1_555
H3D C3D 1_555 1_555
C4D N1D 1_555 1_555
H4D C4D 1_555 1_555
H5D C4D 1_555 1_555
C5D C5 1_555 1_555
H6D C5D 1_555 1_555
H7D C5D 1_555 1_555
C6B O1B 1_555 1_555
C7B C6B 1_555 1_555
C8B C7B 1_555 1_555
H8B C8B 1_555 1_555
C9B C8B 1_555 1_555
H9B C9B 1_555 1_555
C10B N3B 1_555 1_555
C11B C10B 1_555 1_555
H10B C11B 1_555 1_555
C12B C7B 1_555 1_555
H11B C12B 1_555 1_555
C2 C3 1_555 1_555
C9 C10 1_555 1_555
C11 C12 1_555 1_555
C2D C3D 1_555 1_555
C4D C5D 1_555 1_555
C9B C10B 1_555 1_555
C11B C12B 1_555 1_555

#END
