
#######################################################################
#
#                 Cambridge Crystallographic Data Centre
#                                CCDC 
#
#######################################################################
#
# If this CIF has been generated from an entry in the Cambridge 
# Structural Database, then it will include bibliographic, chemical, 
# crystal, experimental, refinement or atomic coordinate data resulting 
# from the CCDC's data processing and validation procedures.
#
#######################################################################

data_NIRCUO
_symmetry_cell_setting           orthorhombic
_symmetry_space_group_name_H-M   'C 2 2 21'
_symmetry_Int_Tables_number      20
_space_group_name_Hall           'C 2n 2'
loop_
_symmetry_equiv_pos_site_id
_symmetry_equiv_pos_as_xyz
1 x,y,z
2 -x,-y,1/2+z
3 x,-y,-z
4 -x,y,1/2-z
5 1/2+x,1/2+y,z
6 1/2-x,1/2-y,1/2+z
7 1/2+x,1/2-y,-z
8 1/2-x,1/2+y,1/2-z
_cell_length_a                   5.5637(5)
_cell_length_b                   9.3007(8)
_cell_length_c                   24.992(2)
_cell_angle_alpha                90
_cell_angle_beta                 90
_cell_angle_gamma                90
_cell_volume                     1293.24
loop_
_atom_site_label
_atom_site_type_symbol
_atom_site_fract_x
_atom_site_fract_y
_atom_site_fract_z
O1 O 0.8172(3) 0.03715(15) 0.19596(6)
O2 O 1.0000 0.3675(2) 0.2500
H1 H 1.101(3) 0.4207(18) 0.2343(9)
O3 O 1.0383(3) -0.15674(15) 0.17719(6)
O4 O 1.1206(3) 0.21640(15) 0.15217(7)
H2 H 1.246(5) 0.260(3) 0.1608(11)
O5 O 1.3837(3) 0.11836(15) 0.06346(7)
H3 H 1.536(5) 0.072(3) 0.0653(11)
C1 C 0.9651(4) 0.0665(2) 0.05923(9)
C2 C 0.9976(4) -0.0236(2) 0.17568(9)
C3 C 1.1816(4) 0.0688(2) 0.14671(9)
H4 H 1.3387 0.0533 0.1635
C4 C 1.2030(4) 0.0317(2) 0.08685(9)
H5 H 1.2422 -0.0703 0.0823
Li1 Li 0.8328(7) 0.2474(4) 0.19513(17)
Li2 Li 1.2575(7) 0.2912(4) 0.03225(16)
O6 O 0.7949(3) -0.02027(15) 0.06721(6)
O7 O 0.9532(3) 0.17993(15) 0.03174(6)
H1C H 0.899(3) 0.4207(18) 0.2657(9)
O1C O 1.1828(3) 0.03715(15) 0.30404(6)
O3C O 0.9617(3) -0.15674(15) 0.32281(6)
O4C O 0.8794(3) 0.21640(15) 0.34783(7)
H2C H 0.754(5) 0.260(3) 0.3392(11)
O5C O 0.6163(3) 0.11836(15) 0.43654(7)
H3C H 0.464(5) 0.072(3) 0.4347(11)
C1C C 1.0349(4) 0.0665(2) 0.44077(9)
C2C C 1.0024(4) -0.0236(2) 0.32432(9)
C3C C 0.8184(4) 0.0688(2) 0.35329(9)
H4C H 0.6613 0.0533 0.3365
C4C C 0.7970(4) 0.0317(2) 0.41315(9)
H5C H 0.7578 -0.0703 0.4177
Li1C Li 1.1672(7) 0.2474(4) 0.30487(17)
Li2C Li 0.7425(7) 0.2912(4) 0.46775(16)
O6C O 1.2051(3) -0.02027(15) 0.43279(6)
O7C O 1.0468(3) 0.17993(15) 0.46826(6)
O3D O 0.5383(3) 0.34326(15) 0.17719(6)
O3G O 1.4617(3) 0.34326(15) 0.32281(6)
Li1D Li 1.3328(7) -0.2526(4) 0.19513(17)
Li1G Li 0.6672(7) -0.2526(4) 0.30487(17)
Li2D Li 0.7575(7) -0.2088(4) 0.03225(16)
Li2E Li 1.2425(7) 0.2088(4) 0.53225(16)
Li2F Li 0.7575(7) 0.2088(4) -0.03225(16)
Li2G Li 1.2425(7) -0.2088(4) 0.46775(16)
O6D O 1.2949(3) 0.47973(15) 0.06721(6)
O6G O 0.7051(3) 0.47973(15) 0.43279(6)
O7E O 0.5468(3) 0.32007(15) 0.53174(6)
O7F O 1.4532(3) 0.32007(15) -0.03174(6)
loop_
_geom_bond_atom_site_label_1
_geom_bond_atom_site_label_2
_geom_bond_site_symmetry_1
_geom_bond_site_symmetry_2
O1 C2 1_555 1_555
O2 H1 1_555 1_555
O3 C2 1_555 1_555
O4 H2 1_555 1_555
O5 H3 1_555 1_555
C1 C4 1_555 1_555
C2 C3 1_555 1_555
C3 O4 1_555 1_555
H4 C3 1_555 1_555
C4 O5 1_555 1_555
H5 C4 1_555 1_555
Li1 O1 1_555 1_555
Li2 O5 1_555 1_555
O6 C1 1_555 1_555
O7 C1 1_555 1_555
H1C O2 1_555 1_555
O1C C2C 1_555 1_555
O3C C2C 1_555 1_555
O4C H2C 1_555 1_555
O5C H3C 1_555 1_555
C1C C4C 1_555 1_555
C2C C3C 1_555 1_555
C3C O4C 1_555 1_555
H4C C3C 1_555 1_555
C4C O5C 1_555 1_555
H5C C4C 1_555 1_555
Li1C O2 1_555 1_555
Li2C O5C 1_555 1_555
O6C C1C 1_555 1_555
O7C C1C 1_555 1_555
O3D Li1 1_555 1_555
O3G Li1C 1_555 1_555
Li1D O3 1_555 1_555
Li1G O3C 1_555 1_555
Li2D O6 1_555 1_555
Li2E O7C 1_555 1_555
Li2F O7 1_555 1_555
Li2G O6C 1_555 1_555
O6D Li2 1_555 1_555
O6G Li2C 1_555 1_555
O7E Li2C 1_555 1_555
O7F Li2 1_555 1_555
O2 Li1 1_555 1_555
O4 Li1 1_555 1_555
C3 C4 1_555 1_555
Li2 O7 1_555 1_555
O1C Li1C 1_555 1_555
O4C Li1C 1_555 1_555
C3C C4C 1_555 1_555
Li2C O7C 1_555 1_555

#END
