
#######################################################################
#
#                 Cambridge Crystallographic Data Centre
#                                CCDC 
#
#######################################################################
#
# If this CIF has been generated from an entry in the Cambridge 
# Structural Database, then it will include bibliographic, chemical, 
# crystal, experimental, refinement or atomic coordinate data resulting 
# from the CCDC's data processing and validation procedures.
#
#######################################################################

data_NIRCAT
_symmetry_cell_setting           triclinic
_symmetry_space_group_name_H-M   'P -1'
_symmetry_Int_Tables_number      2
_space_group_name_Hall           '-P 1'
loop_
_symmetry_equiv_pos_site_id
_symmetry_equiv_pos_as_xyz
1 x,y,z
2 -x,-y,-z
_cell_length_a                   8.681(8)
_cell_length_b                   8.861(9)
_cell_length_c                   14.809(14)
_cell_angle_alpha                105.630(13)
_cell_angle_beta                 103.226(12)
_cell_angle_gamma                91.186(13)
_cell_volume                     1063.79
loop_
_atom_site_label
_atom_site_type_symbol
_atom_site_fract_x
_atom_site_fract_y
_atom_site_fract_z
Cd1 Cd 0.92464(10) 0.06352(10) 0.69467(7)
N1 N 0.8222(13) 0.2816(12) 0.6547(9)
N2 N 0.7084(11) 0.5050(11) 0.6784(8)
N3 N 0.0239(13) 0.8477(11) 0.7425(9)
N4 N 0.1270(12) 0.6228(11) 0.7366(8)
N5 N 0.7084(11) 0.0648(12) 0.7638(8)
N6 N 0.5711(11) 0.1412(12) 0.8763(8)
N7 N 1.1204(13) 0.0653(14) 0.6098(8)
N8 N 1.0723(13) 0.2231(13) 0.8405(8)
S1 S 1.2702(5) 0.1407(4) 0.4778(3)
S2 S 1.2201(6) 0.4421(6) 1.0183(4)
C1 C 0.7767(17) 0.3962(14) 0.7202(10)
H1 H 0.7898 0.4006 0.7850
C2 C 0.7122(19) 0.4600(16) 0.5873(12)
H2 H 0.6729 0.5103 0.5403
C3 C 0.7844(18) 0.3264(16) 0.5760(12)
H3 H 0.8056 0.2710 0.5178
C4 C 0.0795(15) 0.7323(15) 0.6906(12)
H4 H 0.0865 0.7247 0.6278
C5 C 0.0999(17) 0.6724(16) 0.8214(11)
H5 H 0.1228 0.6217 0.8697
C6 C 0.0310(16) 0.8138(15) 0.8284(11)
H6 H -0.0035 0.8736 0.8808
C7 C 0.6375(17) 0.6443(15) 0.7275(11)
H7 H 0.6757 0.7358 0.7122
H8 H 0.6734 0.6618 0.7968
C8 C 0.4606(18) 0.6295(15) 0.7002(11)
H9 H 0.4245 0.6065 0.6305
H10 H 0.4233 0.7295 0.7286
C9 C 0.3881(17) 0.5042(15) 0.7319(14)
H11 H 0.4187 0.5310 0.8019
H12 H 0.4311 0.4056 0.7070
C10 C 0.2077(16) 0.4807(15) 0.6988(12)
H13 H 0.1771 0.4507 0.6287
H14 H 0.1708 0.3946 0.7195
C11 C 0.7183(16) 0.1177(15) 0.8591(10)
H15 H 0.8126 0.1360 0.9069
C12 C 0.4628(14) 0.1003(15) 0.7850(9)
H16 H 0.3533 0.1048 0.7730
C13 C 0.5495(15) 0.0523(15) 0.7169(10)
H17 H 0.5080 0.0173 0.6504
C14 C 0.5365(18) 0.1956(15) 0.9700(10)
H18 H 0.4680 0.2808 0.9700
H19 H 0.6346 0.2366 1.0185
C15 C 0.4565(18) 0.0664(15) 0.9962(10)
H20 H 0.4304 0.1118 1.0576
H21 H 0.3571 0.0291 0.9481
C16 C 1.1823(14) 0.0977(13) 0.5564(10)
C17 C 1.1310(15) 0.3118(14) 0.9169(8)
Cd1_2 Cd 1.92464(10) -0.93648(10) 0.69467(7)
Cd1_3 Cd -0.07536(10) 1.06352(10) 0.69467(7)
Cd1A Cd 1.07536(10) -0.06352(10) 0.30533(7)
Cd1A_2 Cd 0.07536(10) -0.06352(10) 1.30533(7)
N1_2 N 1.8222(13) -0.7184(12) 0.6547(9)
N2_2 N 1.7084(11) -0.4950(11) 0.6784(8)
N3_2 N 1.0239(13) -0.1523(11) 0.7425(9)
N3_3 N 2.0239(13) -1.1523(11) 0.7425(9)
N4_2 N 1.1270(12) -0.3772(11) 0.7366(8)
N5A N 0.2916(11) -0.0648(12) 1.2362(8)
N5_2 N 1.7084(11) -0.9352(12) 0.7638(8)
N6A N 0.4289(11) -0.1412(12) 1.1237(8)
N7A N 0.8796(13) -0.0653(14) 0.3902(8)
N7_2 N 2.1204(13) -0.9347(14) 0.6098(8)
N8_2 N 2.0723(13) -0.7769(13) 0.8405(8)
S1A S 0.7298(5) -0.1407(4) 0.5222(3)
S1A_2 S 1.7298(5) -1.1407(4) 0.5222(3)
S2_2 S 2.2201(6) -0.5579(6) 1.0183(4)
C1_2 C 1.7767(17) -0.6038(14) 0.7202(10)
H1_2 H 1.7898 -0.5994 0.7850
C2_2 C 1.7122(19) -0.5400(16) 0.5873(12)
H2_2 H 1.6729 -0.4897 0.5403
C3_2 C 1.7844(18) -0.6736(16) 0.5760(12)
H3_2 H 1.8056 -0.7290 0.5178
C4_2 C 1.0795(15) -0.2677(15) 0.6906(12)
H4_2 H 1.0865 -0.2753 0.6278
C5_2 C 1.0999(17) -0.3276(16) 0.8214(11)
H5_2 H 1.1228 -0.3783 0.8697
C6_2 C 1.0310(16) -0.1862(15) 0.8284(11)
H6_2 H 0.9965 -0.1264 0.8808
C7_2 C 1.6375(17) -0.3557(15) 0.7275(11)
H7_2 H 1.6757 -0.2642 0.7122
H8_2 H 1.6734 -0.3382 0.7968
C8_2 C 1.4606(18) -0.3705(15) 0.7002(11)
H9_2 H 1.4245 -0.3935 0.6305
H10_2 H 1.4233 -0.2705 0.7286
C9_2 C 1.3881(17) -0.4958(15) 0.7319(14)
H11_2 H 1.4187 -0.4690 0.8019
H12_2 H 1.4311 -0.5944 0.7070
C10_2 C 1.2077(16) -0.5193(15) 0.6988(12)
H13_2 H 1.1771 -0.5493 0.6287
H14_2 H 1.1708 -0.6054 0.7195
C11A C 0.2817(16) -0.1177(15) 1.1409(10)
H15A H 0.1874 -0.1360 1.0931
C12A C 0.5372(14) -0.1003(15) 1.2150(9)
H16A H 0.6467 -0.1048 1.2270
C13A C 0.4505(15) -0.0523(15) 1.2831(10)
H17A H 0.4920 -0.0173 1.3496
C14A C 0.4635(18) -0.1956(15) 1.0300(10)
H18A H 0.5320 -0.2808 1.0300
H19A H 0.3654 -0.2366 0.9815
C15A C 0.5435(18) -0.0664(15) 1.0038(10)
H20A H 0.5696 -0.1118 0.9424
H21A H 0.6429 -0.0291 1.0519
C16A C 0.8177(14) -0.0977(13) 0.4436(10)
C17_2 C 2.1310(15) -0.6882(14) 0.9169(8)
loop_
_geom_bond_atom_site_label_1
_geom_bond_atom_site_label_2
_geom_bond_site_symmetry_1
_geom_bond_site_symmetry_2
Cd1 N1 1_555 1_555
N1 C1 1_555 1_555
N2 C1 1_555 1_555
N3 C4 1_555 1_555
N4 C4 1_555 1_555
N5 Cd1 1_555 1_555
N6 C11 1_555 1_555
N7 Cd1 1_555 1_555
N8 Cd1 1_555 1_555
S1 C16 1_555 1_555
S2 C17 1_555 1_555
C1 H1 1_555 1_555
C2 N2 1_555 1_555
H2 C2 1_555 1_555
C3 N1 1_555 1_555
H3 C3 1_555 1_555
C4 H4 1_555 1_555
C5 N4 1_555 1_555
H5 C5 1_555 1_555
C6 N3 1_555 1_555
H6 C6 1_555 1_555
C7 N2 1_555 1_555
H7 C7 1_555 1_555
H8 C7 1_555 1_555
C8 C7 1_555 1_555
H9 C8 1_555 1_555
H10 C8 1_555 1_555
C9 C8 1_555 1_555
H11 C9 1_555 1_555
H12 C9 1_555 1_555
C10 N4 1_555 1_555
H13 C10 1_555 1_555
H14 C10 1_555 1_555
C11 N5 1_555 1_555
H15 C11 1_555 1_555
C12 N6 1_555 1_555
H16 C12 1_555 1_555
C13 N5 1_555 1_555
H17 C13 1_555 1_555
C14 N6 1_555 1_555
H18 C14 1_555 1_555
H19 C14 1_555 1_555
C15 C14 1_555 1_555
H20 C15 1_555 1_555
H21 C15 1_555 1_555
C16 N7 1_555 1_555
C17 N8 1_555 1_555
Cd1_2 N1_2 1_555 1_555
Cd1_3 N3 1_555 1_555
Cd1A S1 1_555 1_555
Cd1A_2 N5A 1_555 1_555
N1_2 C1_2 1_555 1_555
N2_2 C1_2 1_555 1_555
N3_2 Cd1 1_555 1_555
N3_3 Cd1_2 1_555 1_555
N4_2 C4_2 1_555 1_555
N5A C11A 1_555 1_555
N5_2 Cd1_2 1_555 1_555
N6A C11A 1_555 1_555
N7A Cd1A 1_555 1_555
N7_2 Cd1_2 1_555 1_555
N8_2 Cd1_2 1_555 1_555
S1A Cd1 1_555 1_555
S1A_2 Cd1_2 1_555 1_555
S2_2 C17_2 1_555 1_555
C1_2 H1_2 1_555 1_555
C2_2 N2_2 1_555 1_555
H2_2 C2_2 1_555 1_555
C3_2 N1_2 1_555 1_555
H3_2 C3_2 1_555 1_555
C4_2 N3_2 1_555 1_555
H4_2 C4_2 1_555 1_555
C5_2 N4_2 1_555 1_555
H5_2 C5_2 1_555 1_555
C6_2 N3_2 1_555 1_555
H6_2 C6_2 1_555 1_555
C7_2 N2_2 1_555 1_555
H7_2 C7_2 1_555 1_555
H8_2 C7_2 1_555 1_555
C8_2 C7_2 1_555 1_555
H9_2 C8_2 1_555 1_555
H10_2 C8_2 1_555 1_555
C9_2 C8_2 1_555 1_555
H11_2 C9_2 1_555 1_555
H12_2 C9_2 1_555 1_555
C10_2 N4_2 1_555 1_555
H13_2 C10_2 1_555 1_555
H14_2 C10_2 1_555 1_555
C11A H15A 1_555 1_555
C12A N6A 1_555 1_555
H16A C12A 1_555 1_555
C13A N5A 1_555 1_555
H17A C13A 1_555 1_555
C14A N6A 1_555 1_555
H18A C14A 1_555 1_555
H19A C14A 1_555 1_555
C15A C15 1_555 1_555
H20A C15A 1_555 1_555
H21A C15A 1_555 1_555
C16A N7A 1_555 1_555
C17_2 N8_2 1_555 1_555
C2 C3 1_555 1_555
C5 C6 1_555 1_555
C9 C10 1_555 1_555
C12 C13 1_555 1_555
S1A C16A 1_555 1_555
C2_2 C3_2 1_555 1_555
C5_2 C6_2 1_555 1_555
C9_2 C10_2 1_555 1_555
C12A C13A 1_555 1_555
C14A C15A 1_555 1_555

#END
