
#######################################################################
#
#                 Cambridge Crystallographic Data Centre
#                                CCDC 
#
#######################################################################
#
# If this CIF has been generated from an entry in the Cambridge 
# Structural Database, then it will include bibliographic, chemical, 
# crystal, experimental, refinement or atomic coordinate data resulting 
# from the CCDC's data processing and validation procedures.
#
#######################################################################

data_NIRDAU
_symmetry_cell_setting           triclinic
_symmetry_space_group_name_H-M   'P -1'
_symmetry_Int_Tables_number      2
_space_group_name_Hall           '-P 1'
loop_
_symmetry_equiv_pos_site_id
_symmetry_equiv_pos_as_xyz
1 x,y,z
2 -x,-y,-z
_cell_length_a                   8.252(18)
_cell_length_b                   9.674(19)
_cell_length_c                   11.76(2)
_cell_angle_alpha                99.71(5)
_cell_angle_beta                 97.52(4)
_cell_angle_gamma                104.18(5)
_cell_volume                     882.472
loop_
_atom_site_label
_atom_site_type_symbol
_atom_site_fract_x
_atom_site_fract_y
_atom_site_fract_z
Cd1 Cd 0.5000 0.5000 0.5000
N1 N 0.3143(6) 0.4826(6) 0.6349(4)
N2 N 0.1892(7) 0.4990(6) 0.7869(5)
N3 N 0.3964(6) 0.6803(5) 0.4430(4)
N4 N 0.3045(7) 0.8751(6) 0.4535(5)
O1 O 0.2686(5) 0.3168(5) 0.3690(4)
O2 O 0.2695(6) 0.3448(6) 0.1722(5)
O3 O 0.3777(6) 0.1574(6) 0.2379(5)
S1 S 0.25966(19) 0.24446(17) 0.24870(13)
C1 C 0.3346(8) 0.5148(8) 0.7489(6)
H1 H 0.4401 0.5456 0.7981
C2 C 0.0625(9) 0.4529(9) 0.6891(6)
H2 H -0.0541 0.4319 0.6872
C3 C 0.1430(8) 0.4446(7) 0.5973(6)
H3 H 0.0895 0.4169 0.5191
C4 C 0.3424(8) 0.7755(7) 0.5106(6)
H4 H 0.3320 0.7738 0.5882
C5 C 0.3356(9) 0.8430(8) 0.3447(6)
H5 H 0.3205 0.8936 0.2853
C6 C 0.3926(9) 0.7238(8) 0.3374(6)
H6 H 0.4246 0.6779 0.2714
C7 C 0.1736(10) 0.5391(10) 0.9103(7)
H7 H 0.2015 0.6445 0.9330
H8 H 0.2562 0.5071 0.9584
C8 C 0.0030(9) 0.4765(8) 0.9355(6)
H9 H -0.0254 0.3710 0.9144
H10 H -0.0806 0.5083 0.8883
C9 C 0.0376(8) 0.9406(7) 0.4756(6)
H11 H -0.0033 0.9099 0.3917
H12 H 0.0007 0.8572 0.5109
C10 C 0.2304(9) 0.9918(7) 0.4993(7)
H13 H 0.2672 1.0741 0.4629
H14 H 0.2711 1.0242 0.5832
C11 C 0.0543(8) 0.1224(7) 0.2065(5)
C12 C -0.0861(9) 0.1676(8) 0.2300(6)
H15 H -0.0715 0.2600 0.2751
C13 C -0.2482(10) 0.0773(10) 0.1873(6)
H16 H -0.3416 0.1100 0.2027
C14 C -0.2728(9) -0.0619(9) 0.1216(6)
C15 C -0.1314(10) -0.1054(8) 0.1000(7)
H17 H -0.1451 -0.1980 0.0554
C16 C 0.0305(9) -0.0154(8) 0.1426(6)
H18 H 0.1240 -0.0485 0.1279
C17 C -0.4476(11) -0.1612(11) 0.0711(8)
H19 H -0.5312 -0.1140 0.0945
H20 H -0.4612 -0.2500 0.0995
H21 H -0.4620 -0.1830 -0.0129
Cd1_2 Cd -0.5000 0.5000 1.5000
Cd1_3 Cd -0.5000 1.5000 0.5000
N1A N -0.3143(6) 0.5174(6) 1.3651(4)
N1A_2 N 0.6857(6) 0.5174(6) 0.3651(4)
N2A N -0.1892(7) 0.5010(6) 1.2131(5)
N3A N -0.3964(6) 1.3197(5) 0.5570(4)
N3A_2 N 0.6036(6) 0.3197(5) 0.5570(4)
N4A N -0.3045(7) 1.1249(6) 0.5465(5)
O1A O 0.7314(5) 0.6832(5) 0.6310(4)
O2A O 0.7305(6) 0.6552(6) 0.8278(5)
O3A O 0.6223(6) 0.8426(6) 0.7621(5)
S1A S 0.74034(19) 0.75554(17) 0.75130(13)
C1A C -0.3346(8) 0.4852(8) 1.2511(6)
H1A H -0.4401 0.4544 1.2019
C2A C -0.0625(9) 0.5471(9) 1.3109(6)
H2A H 0.0541 0.5681 1.3128
C3A C -0.1430(8) 0.5554(7) 1.4027(6)
H3A H -0.0895 0.5831 1.4809
C4A C -0.3424(8) 1.2245(7) 0.4894(6)
H4A H -0.3320 1.2262 0.4118
C5A C -0.3356(9) 1.1570(8) 0.6553(6)
H5A H -0.3205 1.1064 0.7147
C6A C -0.3926(9) 1.2762(8) 0.6626(6)
H6A H -0.4246 1.3221 0.7286
C7A C -0.1736(10) 0.4609(10) 1.0897(7)
H7A H -0.2015 0.3555 1.0670
H8A H -0.2562 0.4929 1.0416
C8A C -0.0030(9) 0.5235(8) 1.0645(6)
H9A H 0.0254 0.6290 1.0856
H10A H 0.0806 0.4917 1.1117
C9A C -0.0376(8) 1.0594(7) 0.5244(6)
H11A H 0.0033 1.0901 0.6083
H12A H -0.0007 1.1428 0.4891
C10A C -0.2304(9) 1.0082(7) 0.5007(7)
H13A H -0.2672 0.9259 0.5371
H14A H -0.2711 0.9758 0.4168
C11A C 0.9457(8) 0.8776(7) 0.7935(5)
C12A C 1.0861(9) 0.8324(8) 0.7700(6)
H15A H 1.0715 0.7400 0.7249
C13A C 1.2482(10) 0.9227(10) 0.8127(6)
H16A H 1.3416 0.8900 0.7973
C14A C 1.2728(9) 1.0619(9) 0.8784(6)
C15A C 1.1314(10) 1.1054(8) 0.9000(7)
H17A H 1.1451 1.1980 0.9446
C16A C 0.9695(9) 1.0154(8) 0.8574(6)
H18A H 0.8760 1.0485 0.8721
C17A C 1.4476(11) 1.1612(11) 0.9289(8)
H19A H 1.5312 1.1140 0.9055
H20A H 1.4612 1.2500 0.9005
H21A H 1.4620 1.1830 1.0129
loop_
_geom_bond_atom_site_label_1
_geom_bond_atom_site_label_2
_geom_bond_site_symmetry_1
_geom_bond_site_symmetry_2
Cd1 N1 1_555 1_555
N1 C1 1_555 1_555
N2 C1 1_555 1_555
N3 Cd1 1_555 1_555
N4 C4 1_555 1_555
O1 Cd1 1_555 1_555
O2 S1 1_555 1_555
O3 S1 1_555 1_555
S1 O1 1_555 1_555
C1 H1 1_555 1_555
C2 N2 1_555 1_555
H2 C2 1_555 1_555
C3 N1 1_555 1_555
H3 C3 1_555 1_555
C4 N3 1_555 1_555
H4 C4 1_555 1_555
C5 N4 1_555 1_555
H5 C5 1_555 1_555
C6 N3 1_555 1_555
H6 C6 1_555 1_555
C7 N2 1_555 1_555
H7 C7 1_555 1_555
H8 C7 1_555 1_555
C8 C7 1_555 1_555
H9 C8 1_555 1_555
H10 C8 1_555 1_555
C9 H11 1_555 1_555
H12 C9 1_555 1_555
C10 N4 1_555 1_555
H13 C10 1_555 1_555
H14 C10 1_555 1_555
C11 S1 1_555 1_555
C12 C11 1_555 1_555
H15 C12 1_555 1_555
C13 C12 1_555 1_555
H16 C13 1_555 1_555
C14 C13 1_555 1_555
C15 C14 1_555 1_555
H17 C15 1_555 1_555
C16 C11 1_555 1_555
H18 C16 1_555 1_555
C17 C14 1_555 1_555
H19 C17 1_555 1_555
H20 C17 1_555 1_555
H21 C17 1_555 1_555
Cd1_2 N1A 1_555 1_555
Cd1_3 N3A 1_555 1_555
N1A C1A 1_555 1_555
N1A_2 Cd1 1_555 1_555
N2A C1A 1_555 1_555
N3A C4A 1_555 1_555
N3A_2 Cd1 1_555 1_555
N4A C4A 1_555 1_555
O1A Cd1 1_555 1_555
O2A S1A 1_555 1_555
O3A S1A 1_555 1_555
S1A O1A 1_555 1_555
C1A H1A 1_555 1_555
C2A N2A 1_555 1_555
H2A C2A 1_555 1_555
C3A N1A 1_555 1_555
H3A C3A 1_555 1_555
C4A H4A 1_555 1_555
C5A N4A 1_555 1_555
H5A C5A 1_555 1_555
C6A N3A 1_555 1_555
H6A C6A 1_555 1_555
C7A N2A 1_555 1_555
H7A C7A 1_555 1_555
H8A C7A 1_555 1_555
C8A C8 1_555 1_555
H9A C8A 1_555 1_555
H10A C8A 1_555 1_555
C9A C9 1_555 1_555
H11A C9A 1_555 1_555
H12A C9A 1_555 1_555
C10A N4A 1_555 1_555
H13A C10A 1_555 1_555
H14A C10A 1_555 1_555
C11A S1A 1_555 1_555
C12A C11A 1_555 1_555
H15A C12A 1_555 1_555
C13A C12A 1_555 1_555
H16A C13A 1_555 1_555
C14A C13A 1_555 1_555
C15A C14A 1_555 1_555
H17A C15A 1_555 1_555
C16A C11A 1_555 1_555
H18A C16A 1_555 1_555
C17A C14A 1_555 1_555
H19A C17A 1_555 1_555
H20A C17A 1_555 1_555
H21A C17A 1_555 1_555
C2 C3 1_555 1_555
C5 C6 1_555 1_555
C9 C10 1_555 1_555
C15 C16 1_555 1_555
C2A C3A 1_555 1_555
C5A C6A 1_555 1_555
C7A C8A 1_555 1_555
C9A C10A 1_555 1_555
C15A C16A 1_555 1_555

#END
