
#######################################################################
#
#                 Cambridge Crystallographic Data Centre
#                                CCDC 
#
#######################################################################
#
# If this CIF has been generated from an entry in the Cambridge 
# Structural Database, then it will include bibliographic, chemical, 
# crystal, experimental, refinement or atomic coordinate data resulting 
# from the CCDC's data processing and validation procedures.
#
#######################################################################

data_NIRDAV
_symmetry_cell_setting           triclinic
_symmetry_space_group_name_H-M   'P -1'
_symmetry_Int_Tables_number      2
_space_group_name_Hall           '-P 1'
loop_
_symmetry_equiv_pos_site_id
_symmetry_equiv_pos_as_xyz
1 x,y,z
2 -x,-y,-z
_cell_length_a                   6.1037(4)
_cell_length_b                   7.3350(7)
_cell_length_c                   9.0294(8)
_cell_angle_alpha                103.450(8)
_cell_angle_beta                 90.701(7)
_cell_angle_gamma                100.790(7)
_cell_volume                     385.555
loop_
_atom_site_label
_atom_site_type_symbol
_atom_site_fract_x
_atom_site_fract_y
_atom_site_fract_z
O1 O 0.15936(17) 1.26454(14) 0.03726(12)
H1 H 0.062(2) 1.202(2) -0.0334(16)
H2 H 0.263(2) 1.325(2) -0.0047(18)
O2 O 0.11168(16) 0.93370(14) 0.22100(11)
H3 H 0.044(3) 1.003(2) 0.291(2)
O3 O 0.51532(17) 0.25860(14) 0.30828(12)
H4 H 0.621(2) 0.215(2) 0.3424(18)
H5 H 0.421(2) 0.272(2) 0.3785(15)
O4 O 0.50177(16) 0.62774(14) 0.15991(11)
O5 O -0.03596(17) 0.53048(14) 0.22005(12)
H6 H 0.026(3) 0.443(2) 0.171(2)
O6 O 0.10824(17) 0.84881(14) 0.58545(11)
O7 O 0.40667(17) 0.83636(14) 0.03844(11)
O8 O -0.21932(16) 0.68195(14) 0.46784(11)
C1 C 0.1170(2) 0.6585(2) 0.33500(16)
H7 H 0.2227 0.5874 0.3667
C2 C 0.2495(2) 0.82444(19) 0.27735(16)
H8 H 0.3469 0.9098 0.3623
C3 C 0.3969(2) 0.75537(19) 0.14758(16)
C4 C -0.0108(2) 0.7351(2) 0.47389(16)
Li1 Li 0.3536(4) 1.1041(4) 0.1045(3)
Li2 Li 0.6584(4) 0.5081(4) 0.2734(3)
O3_2 O 0.51532(17) 1.25860(14) 0.30828(12)
O5_2 O 0.96404(17) 0.53048(14) 0.22005(12)
O7A O 0.59333(17) 1.16364(14) -0.03844(11)
O8_2 O 0.78068(16) 0.68195(14) 0.46784(11)
Li1_2 Li 0.3536(4) 0.1041(4) 0.1045(3)
Li1A Li 0.6464(4) 0.8959(4) -0.1045(3)
Li2_2 Li -0.3416(4) 0.5081(4) 0.2734(3)
loop_
_geom_bond_atom_site_label_1
_geom_bond_atom_site_label_2
_geom_bond_site_symmetry_1
_geom_bond_site_symmetry_2
O1 H1 1_555 1_555
H2 O1 1_555 1_555
O2 H3 1_555 1_555
O3 H4 1_555 1_555
H5 O3 1_555 1_555
O4 C3 1_555 1_555
O5 H6 1_555 1_555
O6 C4 1_555 1_555
O7 C3 1_555 1_555
O8 C4 1_555 1_555
C1 O5 1_555 1_555
H7 C1 1_555 1_555
C2 O2 1_555 1_555
H8 C2 1_555 1_555
C3 C2 1_555 1_555
C4 C1 1_555 1_555
Li1 O1 1_555 1_555
Li2 O3 1_555 1_555
O3_2 Li1 1_555 1_555
O5_2 Li2 1_555 1_555
O7A Li1 1_555 1_555
O8_2 Li2 1_555 1_555
Li1_2 O3 1_555 1_555
Li1A O7 1_555 1_555
Li2_2 O5 1_555 1_555
O2 Li1 1_555 1_555
O4 Li2 1_555 1_555
O7 Li1 1_555 1_555
O8 Li2_2 1_555 1_555
C1 C2 1_555 1_555
O7A Li1A 1_555 1_555

#END
