
#######################################################################
#
#                 Cambridge Crystallographic Data Centre
#                                CCDC 
#
#######################################################################
#
# If this CIF has been generated from an entry in the Cambridge 
# Structural Database, then it will include bibliographic, chemical, 
# crystal, experimental, refinement or atomic coordinate data resulting 
# from the CCDC's data processing and validation procedures.
#
#######################################################################

data_NIRGIG
_symmetry_cell_setting           triclinic
_symmetry_space_group_name_H-M   'P -1'
_symmetry_Int_Tables_number      2
_space_group_name_Hall           '-P 1'
loop_
_symmetry_equiv_pos_site_id
_symmetry_equiv_pos_as_xyz
1 x,y,z
2 -x,-y,-z
_cell_length_a                   14.692(2)
_cell_length_b                   18.436(3)
_cell_length_c                   19.8419(16)
_cell_angle_alpha                115.514(2)
_cell_angle_beta                 96.834(3)
_cell_angle_gamma                108.036(2)
_cell_volume                     4408.04
loop_
_atom_site_label
_atom_site_type_symbol
_atom_site_fract_x
_atom_site_fract_y
_atom_site_fract_z
C34 C 0.4510(2) 0.7249(2) 0.31002(17)
C35 C 0.4003(2) 0.68340(19) 0.35313(17)
C36 C 0.3160(2) 0.69645(19) 0.37234(17)
H28 H 0.2926 0.7310 0.3584
C37 C 0.2664(2) 0.65812(18) 0.41221(17)
H29 H 0.2095 0.6662 0.4235
C38 C 0.3017(2) 0.60836(18) 0.43483(17)
C39 C 0.3870(2) 0.59545(19) 0.41568(18)
H30 H 0.4109 0.5614 0.4300
C40 C 0.4352(2) 0.63299(19) 0.37590(17)
H31 H 0.4918 0.6245 0.3642
C41 C 0.1688(2) 0.57532(19) 0.49076(18)
H32 H 0.1163 0.5481 0.4423
H33 H 0.1793 0.6365 0.5208
C42 C 0.1392(2) 0.52948(19) 0.53599(17)
C43 C 0.0921(2) 0.43818(19) 0.49719(17)
C44 C 0.0722(2) 0.38559(19) 0.41054(17)
H34 H 0.0014 0.3587 0.3854
H35 H 0.0977 0.3409 0.3991
H36 H 0.1048 0.4236 0.3916
C45 C 0.0628(2) 0.39437(19) 0.53946(17)
C46 C 0.0171(2) 0.29552(18) 0.49850(18)
H37 H 0.0399 0.2717 0.4530
H38 H 0.0365 0.2753 0.5334
C47 C 0.0776(2) 0.44274(19) 0.62004(17)
C48 C 0.0392(2) 0.39519(19) 0.66378(17)
H39 H 0.0949 0.3994 0.6981
H40 H -0.0019 0.3345 0.6271
H41 H 0.0003 0.4216 0.6938
C49 C 0.1272(2) 0.53436(19) 0.65911(17)
C50 C 0.1524(2) 0.5857(2) 0.74619(17)
H42 H 0.1479 0.6419 0.7624
H43 H 0.1069 0.5537 0.7650
C51 C 0.1601(2) 0.57832(19) 0.61844(17)
C52 C 0.2168(2) 0.67655(19) 0.66063(17)
H44 H 0.1704 0.7042 0.6695
H45 H 0.2546 0.6929 0.6294
H46 H 0.2615 0.6952 0.7098
C53 C 0.2909(2) 0.62543(19) 0.85315(17)
C54 C 0.3855(2) 0.62765(19) 0.87476(18)
H47 H 0.4192 0.6116 0.8377
C55 C 0.4295(2) 0.65373(19) 0.95148(17)
H48 H 0.4929 0.6550 0.9656
C56 C 0.3804(2) 0.67806(19) 1.00795(17)
C57 C 0.2860(2) 0.67602(19) 0.98500(17)
H49 H 0.2519 0.6916 1.0219
C58 C 0.2415(2) 0.65153(19) 0.90887(17)
H50 H 0.1793 0.6525 0.8951
C59 C 0.4274(2) 0.70651(19) 1.09088(17)
C60 C -0.1480(2) 0.17928(19) 0.43251(17)
C61 C -0.2500(2) 0.15571(19) 0.40317(17)
H51 H -0.2754 0.1987 0.4156
C62 C -0.3130(2) 0.06814(18) 0.35555(17)
H52 H -0.3806 0.0525 0.3343
C63 C -0.2763(2) 0.00323(19) 0.33910(17)
C64 C -0.1764(2) 0.02740(19) 0.37051(17)
H53 H -0.1519 -0.0159 0.3604
C65 C -0.1112(2) 0.11462(18) 0.41682(17)
H54 H -0.0435 0.1298 0.4372
C66 C -0.3470(2) -0.09016(19) 0.28794(17)
C67 C 0.4082(2) 0.9663(2) 0.39815(17)
H55 H 0.3837 0.9156 0.4018
C68 C 0.4354(2) 1.11751(19) 0.44600(18)
H56 H 0.4964 1.1598 0.4870
H57 H 0.3849 1.1408 0.4518
H58 H 0.4468 1.1050 0.3963
C69 C 0.3646(2) 1.0398(2) 0.51547(18)
H59 H 0.3361 0.9814 0.5078
H60 H 0.3142 1.0631 0.5185
H61 H 0.4187 1.0765 0.5632
C70 C 0.7151(2) 0.6803(2) 0.14119(19)
H62 H 0.7091 0.7177 0.1228
C71 C 0.8628(2) 0.6735(2) 0.08939(19)
H63 H 0.9277 0.6898 0.1218
H64 H 0.8595 0.7235 0.0869
H65 H 0.8517 0.6275 0.0377
C72 C 0.7885(2) 0.5793(2) 0.14072(18)
H66 H 0.7863 0.5972 0.1934
H67 H 0.8494 0.5715 0.1357
H68 H 0.7322 0.5249 0.1056
N1 N 0.40212(19) 1.03743(16) 0.45038(14)
N2 N 0.7850(2) 0.64209(17) 0.12294(15)
O11 O 0.44514(15) 0.96303(13) 0.34376(12)
O12 O 0.50643(15) 0.69118(13) 0.27400(12)
O13 O 0.43899(15) 0.78973(13) 0.31285(12)
O14 O 0.26042(14) 0.56911(12) 0.47448(11)
O15 O 0.51030(15) 0.70249(13) 1.10690(12)
O16 O 0.38177(15) 0.73226(13) 1.13988(11)
O17 O 0.25413(15) 0.59811(13) 0.77610(11)
O18 O -0.31596(15) -0.14951(13) 0.28132(11)
O19 O -0.43160(15) -0.10831(13) 0.25065(11)
O20 O -0.09100(14) 0.26704(12) 0.47504(11)
O21 O 0.66221(15) 0.66497(13) 0.18073(12)
O22 O 0.40238(15) 0.90846(13) 0.17870(12)
O23 O 0.27051(15) 0.80747(13) 0.24105(12)
Zn2 Zn 0.41790(3) 0.84537(2) 0.24384(2)
Zn3 Zn 0.57526(3) 0.73383(2) 0.21218(2)
O15_2 O 0.51030(15) 0.70249(13) 0.10690(12)
O16_2 O 0.38177(15) 0.73226(13) 0.13988(11)
O18_2 O 0.68404(15) 0.85049(13) 0.28132(11)
O19_2 O 0.56840(15) 0.89169(13) 0.25065(11)
Zn2_2 Zn -0.58210(3) -0.15463(2) 0.24384(2)
Zn2_3 Zn 0.41790(3) 0.84537(2) 1.24384(2)
Zn3_2 Zn -0.42474(3) -0.26617(2) 0.21218(2)
Zn3_3 Zn 0.57526(3) 0.73383(2) 1.21218(2)
C1 C 0.3604(2) 0.10805(19) 0.21751(18)
C2 C 0.4112(2) 0.20607(19) 0.25449(17)
C3 C 0.4975(2) 0.25102(19) 0.31800(17)
H1 H 0.5219 0.2197 0.3361
C4 C 0.5468(2) 0.34066(19) 0.35413(18)
H2 H 0.6044 0.3692 0.3961
C5 C 0.5121(2) 0.38916(19) 0.32894(17)
C6 C 0.4265(2) 0.34426(19) 0.26381(17)
H3 H 0.4031 0.3753 0.2448
C7 C 0.3772(2) 0.25391(18) 0.22808(17)
H4 H 0.3202 0.2249 0.1855
C8 C 0.6514(2) 0.52116(18) 0.41610(17)
H5 H 0.6956 0.4999 0.3881
H6 H 0.6509 0.5063 0.4574
C9 C 0.6904(2) 0.61917(19) 0.45134(17)
C10 C 0.7170(2) 0.65761(19) 0.40576(17)
C11 C 0.6954(2) 0.59971(19) 0.31927(16)
H7 H 0.6821 0.5406 0.3079
H8 H 0.7523 0.6208 0.3031
H9 H 0.6380 0.6008 0.2916
C12 C 0.7652(2) 0.74908(18) 0.44068(17)
C13 C 0.7988(2) 0.78921(19) 0.39242(18)
H10 H 0.7600 0.7501 0.3379
H11 H 0.7913 0.8444 0.4101
C14 C 0.7911(2) 0.80140(19) 0.52243(17)
C15 C 0.8505(2) 0.89959(18) 0.56211(18)
H12 H 0.8795 0.9142 0.5264
H13 H 0.9028 0.9178 0.6072
H14 H 0.8069 0.9291 0.5779
C16 C 0.7640(2) 0.76234(19) 0.56800(17)
C17 C 0.8070(2) 0.81748(19) 0.65682(17)
H15 H 0.8048 0.8748 0.6757
H16 H 0.7703 0.7883 0.6819
C18 C 0.7100(2) 0.67067(19) 0.53236(17)
C19 C 0.6731(2) 0.62859(19) 0.57997(17)
H17 H 0.7220 0.6105 0.5965
H18 H 0.6111 0.5783 0.5487
H19 H 0.6629 0.6702 0.6250
C20 C 0.9593(2) 0.84508(19) 0.74348(17)
C21 C 0.9260(2) 0.87313(19) 0.80961(17)
H20 H 0.8663 0.8809 0.8069
C22 C 0.9835(2) 0.88931(19) 0.87953(17)
H21 H 0.9620 0.9086 0.9239
C23 C 1.0718(2) 0.87728(19) 0.88432(17)
C24 C 1.1039(2) 0.84921(19) 0.81769(17)
H22 H 1.1630 0.8404 0.8202
C25 C 1.0492(2) 0.83445(19) 0.74828(17)
H23 H 1.0722 0.8174 0.7046
C26 C 1.1315(2) 0.89088(19) 0.95819(17)
C27 C 0.9517(2) 0.83270(19) 0.35877(17)
C28 C 1.0518(2) 0.84780(19) 0.37321(18)
H24 H 1.0821 0.8391 0.4113
C29 C 1.1068(2) 0.87582(19) 0.33111(17)
H25 H 1.1744 0.8862 0.3408
C30 C 1.0609(2) 0.88867(19) 0.27360(17)
C31 C 0.9615(2) 0.87475(19) 0.26066(17)
H26 H 0.9314 0.8842 0.2231
C32 C 0.9054(2) 0.84670(19) 0.30306(17)
H27 H 0.8382 0.8375 0.2943
C33 C 1.1212(2) 0.91847(19) 0.22806(18)
O1 O 0.40423(15) 0.06892(13) 0.23404(12)
O2 O 0.27259(15) 0.07344(13) 0.16993(11)
O3 O 0.55227(15) 0.47902(13) 0.36367(12)
O4 O 1.20184(15) 0.86491(13) 0.95515(12)
O5 O 1.10586(15) 0.92634(13) 1.01938(12)
O6 O 0.90906(15) 0.82522(13) 0.67147(12)
O7 O 1.21147(15) 0.93146(13) 0.24051(12)
O8 O 1.07816(15) 0.93045(13) 0.17614(12)
O9 O 0.90259(14) 0.80337(13) 0.40231(11)
O10 O 0.22063(15) -0.14898(12) 0.07978(12)
Zn1 Zn 0.17969(3) -0.04744(2) 0.12279(2)
O5_2 O 0.10586(15) -0.07366(13) 0.01938(12)
O7_2 O 0.21147(15) -0.06854(13) 0.24051(12)
O8_2 O 0.07816(15) -0.06955(13) 0.17614(12)
Zn1_2 Zn 1.17969(3) 0.95256(2) 0.12279(2)
Zn1_3 Zn 1.17969(3) 0.95256(2) 1.12279(2)
loop_
_geom_bond_atom_site_label_1
_geom_bond_atom_site_label_2
_geom_bond_site_symmetry_1
_geom_bond_site_symmetry_2
C1 C2 1_555 1_555
C2 C3 1_555 1_555
C3 H1 1_555 1_555
C4 C3 1_555 1_555
H2 C4 1_555 1_555
C5 C4 1_555 1_555
C6 C5 1_555 1_555
H3 C6 1_555 1_555
C7 C2 1_555 1_555
H4 C7 1_555 1_555
C8 H5 1_555 1_555
H6 C8 1_555 1_555
C9 C8 1_555 1_555
C10 C9 1_555 1_555
C11 C10 1_555 1_555
H7 C11 1_555 1_555
H8 C11 1_555 1_555
H9 C11 1_555 1_555
C12 C10 1_555 1_555
C13 C12 1_555 1_555
H10 C13 1_555 1_555
H11 C13 1_555 1_555
C14 C12 1_555 1_555
C15 C14 1_555 1_555
H12 C15 1_555 1_555
H13 C15 1_555 1_555
H14 C15 1_555 1_555
C16 C14 1_555 1_555
C17 C16 1_555 1_555
H15 C17 1_555 1_555
H16 C17 1_555 1_555
C18 C9 1_555 1_555
C19 C18 1_555 1_555
H17 C19 1_555 1_555
H18 C19 1_555 1_555
H19 C19 1_555 1_555
C20 C21 1_555 1_555
C21 H20 1_555 1_555
C22 C21 1_555 1_555
H21 C22 1_555 1_555
C23 C22 1_555 1_555
C24 C23 1_555 1_555
H22 C24 1_555 1_555
C25 C20 1_555 1_555
H23 C25 1_555 1_555
C26 C23 1_555 1_555
C27 C28 1_555 1_555
C28 H24 1_555 1_555
C29 C28 1_555 1_555
H25 C29 1_555 1_555
C30 C29 1_555 1_555
C31 C30 1_555 1_555
H26 C31 1_555 1_555
C32 C27 1_555 1_555
H27 C32 1_555 1_555
C33 C30 1_555 1_555
O1 C1 1_555 1_555
O2 C1 1_555 1_555
O3 C5 1_555 1_555
O4 C26 1_555 1_555
O5 C26 1_555 1_555
O6 C17 1_555 1_555
O7 C33 1_555 1_555
O8 C33 1_555 1_555
O9 C13 1_555 1_555
O10 Zn1 1_555 1_555
Zn1 O2 1_555 1_555
C34 C35 1_555 1_555
C35 C36 1_555 1_555
C36 H28 1_555 1_555
C37 C36 1_555 1_555
H29 C37 1_555 1_555
C38 C37 1_555 1_555
C39 C38 1_555 1_555
H30 C39 1_555 1_555
C40 C35 1_555 1_555
H31 C40 1_555 1_555
C41 H32 1_555 1_555
H33 C41 1_555 1_555
C42 C41 1_555 1_555
C43 C42 1_555 1_555
C44 C43 1_555 1_555
H34 C44 1_555 1_555
H35 C44 1_555 1_555
H36 C44 1_555 1_555
C45 C43 1_555 1_555
C46 C45 1_555 1_555
H37 C46 1_555 1_555
H38 C46 1_555 1_555
C47 C45 1_555 1_555
C48 C47 1_555 1_555
H39 C48 1_555 1_555
H40 C48 1_555 1_555
H41 C48 1_555 1_555
C49 C47 1_555 1_555
C50 C49 1_555 1_555
H42 C50 1_555 1_555
H43 C50 1_555 1_555
C51 C42 1_555 1_555
C52 C51 1_555 1_555
H44 C52 1_555 1_555
H45 C52 1_555 1_555
H46 C52 1_555 1_555
C53 C54 1_555 1_555
C54 H47 1_555 1_555
C55 C54 1_555 1_555
H48 C55 1_555 1_555
C56 C55 1_555 1_555
C57 C56 1_555 1_555
H49 C57 1_555 1_555
C58 C53 1_555 1_555
H50 C58 1_555 1_555
C59 C56 1_555 1_555
C60 C61 1_555 1_555
C61 H51 1_555 1_555
C62 C61 1_555 1_555
H52 C62 1_555 1_555
C63 C62 1_555 1_555
C64 C63 1_555 1_555
H53 C64 1_555 1_555
C65 C60 1_555 1_555
H54 C65 1_555 1_555
C66 C63 1_555 1_555
C67 H55 1_555 1_555
C68 H56 1_555 1_555
H57 C68 1_555 1_555
H58 C68 1_555 1_555
C69 H59 1_555 1_555
H60 C69 1_555 1_555
H61 C69 1_555 1_555
C70 H62 1_555 1_555
C71 H63 1_555 1_555
H64 C71 1_555 1_555
H65 C71 1_555 1_555
C72 H66 1_555 1_555
H67 C72 1_555 1_555
H68 C72 1_555 1_555
N1 C67 1_555 1_555
N2 C70 1_555 1_555
O11 C67 1_555 1_555
O12 C34 1_555 1_555
O13 C34 1_555 1_555
O14 C38 1_555 1_555
O15 C59 1_555 1_555
O16 C59 1_555 1_555
O17 C50 1_555 1_555
O18 C66 1_555 1_555
O19 C66 1_555 1_555
O20 C46 1_555 1_555
O21 C70 1_555 1_555
O22 Zn2 1_555 1_555
O23 Zn2 1_555 1_555
Zn2 O11 1_555 1_555
Zn3 O12 1_555 1_555
O5_2 Zn1 1_555 1_555
O7_2 Zn1 1_555 1_555
O8_2 Zn1 1_555 1_555
Zn1_2 O7 1_555 1_555
Zn1_3 O5 1_555 1_555
O15_2 Zn3 1_555 1_555
O16_2 Zn2 1_555 1_555
O18_2 Zn3 1_555 1_555
O19_2 Zn2 1_555 1_555
Zn2_2 O19 1_555 1_555
Zn2_3 O16 1_555 1_555
Zn3_2 O18 1_555 1_555
Zn3_3 O15 1_555 1_555
C6 C7 1_555 1_555
C8 O3 1_555 1_555
C16 C18 1_555 1_555
C20 O6 1_555 1_555
C24 C25 1_555 1_555
C27 O9 1_555 1_555
C31 C32 1_555 1_555
O8 Zn1_2 1_555 1_555
C39 C40 1_555 1_555
C41 O14 1_555 1_555
C49 C51 1_555 1_555
C53 O17 1_555 1_555
C57 C58 1_555 1_555
C60 O20 1_555 1_555
C64 C65 1_555 1_555
C68 N1 1_555 1_555
C69 N1 1_555 1_555
C71 N2 1_555 1_555
C72 N2 1_555 1_555
O13 Zn2 1_555 1_555
O21 Zn3 1_555 1_555

#END
