
#######################################################################
#
#                 Cambridge Crystallographic Data Centre
#                                CCDC 
#
#######################################################################
#
# If this CIF has been generated from an entry in the Cambridge 
# Structural Database, then it will include bibliographic, chemical, 
# crystal, experimental, refinement or atomic coordinate data resulting 
# from the CCDC's data processing and validation procedures.
#
#######################################################################

data_NIRGEC
_symmetry_cell_setting           triclinic
_symmetry_space_group_name_H-M   'P -1'
_symmetry_Int_Tables_number      2
_space_group_name_Hall           '-P 1'
loop_
_symmetry_equiv_pos_site_id
_symmetry_equiv_pos_as_xyz
1 x,y,z
2 -x,-y,-z
_cell_length_a                   15.260(2)
_cell_length_b                   17.273(3)
_cell_length_c                   20.297(3)
_cell_angle_alpha                99.832(2)
_cell_angle_beta                 104.423(3)
_cell_angle_gamma                115.202(2)
_cell_volume                     4448.12
loop_
_atom_site_label
_atom_site_type_symbol
_atom_site_fract_x
_atom_site_fract_y
_atom_site_fract_z
C1 C 1.5971(3) 0.6739(2) 1.04443(18)
H1 H 1.5858 0.7192 1.0319
C2 C 1.6846(3) 0.6819(2) 0.95942(19)
H2 H 1.6580 0.7213 0.9481
H3 H 1.6620 0.6340 0.9166
H4 H 1.7591 0.7154 0.9790
C3 C 1.6739(3) 0.5812(2) 1.03604(18)
H5 H 1.7463 0.6125 1.0655
H6 H 1.6612 0.5352 0.9951
H7 H 1.6333 0.5540 1.0633
C4 C 1.3070(3) 0.6633(2) 0.98960(17)
C5 C 1.2541(3) 0.6151(2) 0.91014(17)
C6 C 1.1605(3) 0.6075(2) 0.87398(17)
H8 H 1.1307 0.6334 0.8986
C7 C 1.1094(3) 0.5611(2) 0.80039(18)
H9 H 1.0459 0.5556 0.7754
C8 C 1.1569(3) 0.5234(2) 0.76608(17)
C9 C 1.2472(3) 0.5280(2) 0.80171(17)
H10 H 1.2761 0.5006 0.7776
C10 C 1.2964(3) 0.5740(2) 0.87456(17)
H11 H 1.3584 0.5771 0.8995
C11 C 1.1603(3) 0.4542(2) 0.65583(17)
H12 H 1.1618 0.4013 0.6648
H13 H 1.2310 0.5027 0.6701
C12 C 1.0970(3) 0.4330(2) 0.57503(17)
C13 C 1.1355(3) 0.4977(2) 0.54008(18)
C14 C 1.0777(3) 0.4662(2) 0.46316(17)
C15 C 0.9821(3) 0.3849(2) 0.42917(17)
C16 C 0.9425(3) 0.3325(2) 0.46991(17)
C17 C 0.9987(3) 0.3537(2) 0.54259(17)
C18 C 0.9511(3) 0.2893(2) 0.58371(18)
H14 H 0.8965 0.2971 0.5935
H15 H 1.0039 0.3027 0.6281
H16 H 0.9234 0.2280 0.5551
C19 C 1.2435(3) 0.5833(2) 0.56494(19)
H17 H 1.2816 0.5947 0.6142
H18 H 1.2344 0.6340 0.5602
H19 H 1.2812 0.5741 0.5358
C20 C 0.9247(3) 0.3535(2) 0.34879(17)
H20 H 0.8783 0.2896 0.3325
H21 H 0.9739 0.3670 0.3250
H22 H 0.8857 0.3840 0.3381
C21 C 0.8349(3) 0.2481(2) 0.43183(19)
H23 H 0.7983 0.2347 0.4648
H24 H 0.7932 0.2564 0.3919
C22 C 0.7734(3) 0.1022(2) 0.35673(19)
C23 C 0.7970(3) 0.0399(2) 0.3246(2)
H25 H 0.8653 0.0511 0.3386
C24 C 0.7188(3) -0.0392(2) 0.2714(2)
H26 H 0.7349 -0.0808 0.2499
C25 C 0.6166(3) -0.0568(2) 0.2502(2)
C26 C 0.5934(3) 0.0063(2) 0.28247(19)
H27 H 0.5252 -0.0047 0.2683
C27 C 0.6712(3) 0.0852(2) 0.33522(19)
H28 H 0.6553 0.1271 0.3565
C28 C 0.5312(3) -0.1430(2) 0.1923(2)
C29 C 1.1171(3) 0.5245(2) 0.41878(18)
H29 H 1.0600 0.5234 0.3836
H30 H 1.1653 0.5864 0.4490
C30 C 1.2007(3) 0.5206(2) 0.33238(17)
C31 C 1.1918(3) 0.5910(2) 0.31147(17)
H31 H 1.1601 0.6188 0.3319
C32 C 1.2304(3) 0.6181(2) 0.26036(17)
H32 H 1.2235 0.6641 0.2458
C33 C 1.2795(3) 0.5790(2) 0.22987(18)
C34 C 1.2868(3) 0.5093(2) 0.24999(18)
H33 H 1.3191 0.4822 0.2295
C35 C 1.2471(3) 0.4792(2) 0.29993(18)
H34 H 1.2510 0.4310 0.3122
C36 C 1.3309(3) 0.6153(2) 0.18021(18)
C37 C 1.2494(3) 0.8774(2) 1.22708(18)
H35 H 1.2472 0.9064 1.1926
C38 C 1.1847(3) 0.9631(2) 1.28359(18)
H36 H 1.2026 0.9963 1.2512
H37 H 1.2165 1.0040 1.3316
H38 H 1.1106 0.9320 1.2706
C39 C 1.2168(3) 0.8537(2) 1.33512(18)
H39 H 1.1484 0.8032 1.3210
H40 H 1.2325 0.8954 1.3798
H41 H 1.2666 0.8330 1.3407
C40 C 1.0715(3) 0.6740(2) 1.02991(17)
H42 H 1.0986 0.7143 1.0059
C41 C 0.9109(3) 0.6070(2) 0.93291(18)
H43 H 0.9514 0.6550 0.9173
H44 H 0.8531 0.6129 0.9383
H45 H 0.8859 0.5501 0.8980
C42 C 0.9244(3) 0.5449(2) 1.03233(18)
H46 H 0.9740 0.5557 1.0774
H47 H 0.8998 0.4857 1.0012
H48 H 0.8670 0.5495 1.0401
C43 C 1.3351(3) 0.9165(2) 1.05676(18)
H49 H 1.3990 0.9185 1.0656
C44 C 1.0589(3) 0.8688(2) 0.90679(18)
C45 C 1.0048(3) 0.8479(2) 0.82959(17)
C46 C 0.9843(3) 0.7686(2) 0.78229(17)
H50 H 1.0042 0.7303 0.8005
C47 C 0.9348(3) 0.7446(2) 0.70862(18)
H51 H 0.9243 0.6923 0.6779
C48 C 0.9017(3) 0.7997(2) 0.68188(17)
C49 C 0.9219(3) 0.8792(2) 0.72853(17)
H52 H 0.9012 0.9172 0.7104
C50 C 0.9722(3) 0.9028(2) 0.80161(17)
H53 H 0.9843 0.9560 0.8321
C51 C 0.8509(3) 0.7111(2) 0.56187(17)
H54 H 0.8296 0.6579 0.5772
H55 H 0.9211 0.7312 0.5627
C52 C 0.7788(3) 0.6877(2) 0.48630(17)
C53 C 0.6819(3) 0.6077(2) 0.45915(17)
C54 C 0.6221(3) 0.5771(2) 0.38673(17)
C55 C 0.6555(3) 0.6237(2) 0.34036(18)
C56 C 0.7485(3) 0.7069(2) 0.36978(17)
C57 C 0.8098(3) 0.7396(2) 0.44179(17)
C58 C 0.9120(3) 0.8272(2) 0.47260(18)
H56 H 0.9379 0.8403 0.4350
H57 H 0.9613 0.8217 0.5086
H58 H 0.9014 0.8752 0.4937
C59 C 0.6482(3) 0.5562(2) 0.50928(18)
H59 H 0.5802 0.5050 0.4839
H60 H 0.6465 0.5947 0.5485
H61 H 0.6964 0.5362 0.5274
C60 C 0.5160(3) 0.4925(2) 0.35545(19)
H62 H 0.4820 0.4872 0.3903
H63 H 0.4725 0.4954 0.3131
C61 C 0.4489(3) 0.3381(2) 0.28662(19)
C62 C 0.3530(3) 0.3262(2) 0.25663(17)
H64 H 0.3377 0.3715 0.2712
C63 C 0.2765(3) 0.2448(2) 0.20320(18)
H65 H 0.2113 0.2379 0.1810
C64 C 0.2953(3) 0.1753(2) 0.18276(18)
C65 C 0.3938(3) 0.1878(2) 0.21785(19)
H66 H 0.4082 0.1412 0.2063
C66 C 0.4702(3) 0.2686(2) 0.26942(19)
H67 H 0.5355 0.2762 0.2924
C67 C 0.2153(3) 0.0907(2) 0.12315(17)
C68 C 0.5949(3) 0.5833(2) 0.26049(17)
H68 H 0.5702 0.5196 0.2462
H69 H 0.6391 0.6108 0.2354
H70 H 0.5369 0.5939 0.2492
C69 C 0.7808(3) 0.7589(2) 0.31884(17)
H71 H 0.7202 0.7504 0.2819
H72 H 0.8249 0.8228 0.3447
C70 C 0.8659(3) 0.7545(2) 0.23453(18)
C71 C 0.9280(3) 0.7285(2) 0.21089(17)
H73 H 0.9444 0.6885 0.2290
C72 C 0.9673(3) 0.7596(2) 0.16090(17)
H74 H 1.0102 0.7413 0.1458
C73 C 0.8387(3) 0.8136(2) 0.20679(18)
H75 H 0.7956 0.8315 0.2220
C74 C 0.8779(3) 0.8447(2) 0.15572(18)
H76 H 0.8601 0.8836 0.1368
C75 C 0.9415(3) 0.8198(2) 0.13285(18)
C76 C 0.9853(3) 0.8596(2) 0.08145(17)
Co1 Co 1.0000 1.0000 1.0000
Co2 Co 1.16397(4) 0.91287(3) 1.03486(2)
Co3 Co 1.45933(4) 0.67451(3) 1.11762(2)
Co4 Co 1.29079(4) 0.76849(3) 1.12272(2)
N1 N 0.9734(2) 0.61144(18) 0.99946(15)
N2 N 1.2210(2) 0.89894(18) 1.27968(15)
N3 N 1.6456(2) 0.64373(19) 1.01256(15)
O1 O 1.07762(18) 0.94118(14) 0.95161(12)
O2 O 1.09153(18) 0.81966(15) 0.92848(11)
O3 O 1.31399(19) 0.96288(15) 1.02159(12)
O4 O 1.27038(18) 0.86671(15) 1.08047(12)
O5 O 1.27946(18) 0.82075(15) 1.21975(12)
O6 O 1.13135(18) 0.68304(15) 1.08962(12)
O7 O 1.38359(19) 0.65416(15) 1.02024(12)
O8 O 1.56319(19) 0.64417(15) 1.09302(12)
O9 O 0.84887(18) 0.78137(15) 0.61053(12)
O10 O 0.53139(19) 0.41606(15) 0.33711(13)
O11 O 0.83599(18) 0.72432(15) 0.28771(12)
O12 O 0.13944(18) 0.09190(14) 0.08168(12)
O13 O 0.22992(18) 0.02383(14) 0.12003(12)
O14 O 0.96310(18) 0.91319(15) 0.05932(11)
O15 O 1.04888(18) 0.83744(14) 0.06674(12)
O16 O 1.10288(18) 0.48110(15) 0.69333(12)
O17 O 0.85641(19) 0.17688(14) 0.40701(12)
O18 O 1.16888(18) 0.48789(15) 0.38351(12)
O19 O 1.32558(18) 0.67763(15) 0.16097(12)
O20 O 1.38557(18) 0.58394(15) 0.16167(12)
O21 O 0.55410(18) -0.20483(15) 0.18202(12)
O22 O 0.45002(19) -0.14347(15) 0.16325(12)
O23 O 1.27491(18) 0.70850(15) 1.02012(12)
C1A C -0.5971(3) 0.3261(2) -0.04443(18)
H1A H -0.5858 0.2808 -0.0319
C2A C -0.6846(3) 0.3181(2) 0.04058(19)
H2A H -0.6580 0.2787 0.0519
H3A H -0.6620 0.3660 0.0834
H4A H -0.7591 0.2846 0.0210
C3A C -0.6739(3) 0.4188(2) -0.03604(18)
H5A H -0.7463 0.3875 -0.0655
H6A H -0.6612 0.4648 0.0049
H7A H -0.6333 0.4460 -0.0633
C4A C -0.3070(3) 0.3367(2) 0.01040(17)
C5A C -0.2541(3) 0.3849(2) 0.08986(17)
C6A C -0.1605(3) 0.3925(2) 0.12602(17)
H8A H -0.1307 0.3666 0.1014
C7A C -0.1094(3) 0.4389(2) 0.19961(18)
H9A H -0.0459 0.4444 0.2246
C8A C -0.1569(3) 0.4766(2) 0.23392(17)
C9A C -0.2472(3) 0.4720(2) 0.19829(17)
H10A H -0.2761 0.4994 0.2224
C10A C -0.2964(3) 0.4260(2) 0.12544(17)
H11A H -0.3584 0.4229 0.1005
C11A C -0.1603(3) 0.5458(2) 0.34417(17)
H12A H -0.1618 0.5987 0.3352
H13A H -0.2310 0.4973 0.3299
C12A C -0.0970(3) 0.5670(2) 0.42497(17)
C13A C -0.1355(3) 0.5023(2) 0.45992(18)
C14A C -0.0777(3) 0.5338(2) 0.53684(17)
C15A C 0.0179(3) 0.6151(2) 0.57083(17)
C16A C 0.0575(3) 0.6675(2) 0.53009(17)
C17A C 0.0013(3) 0.6463(2) 0.45741(17)
C18A C 0.0489(3) 0.7107(2) 0.41629(18)
H14A H 0.1035 0.7029 0.4065
H15A H -0.0039 0.6973 0.3719
H16A H 0.0766 0.7720 0.4449
C19A C -0.2435(3) 0.4167(2) 0.43506(19)
H17A H -0.2816 0.4053 0.3858
H18A H -0.2344 0.3660 0.4398
H19A H -0.2812 0.4259 0.4642
C20A C 0.0753(3) 0.6465(2) 0.65121(17)
H20A H 0.1217 0.7104 0.6675
H21A H 0.0261 0.6330 0.6750
H22A H 0.1143 0.6160 0.6619
C21A C 0.1651(3) 0.7519(2) 0.56817(19)
H23A H 0.2017 0.7653 0.5352
H24A H 0.2068 0.7436 0.6081
C22A C 0.2266(3) 0.8978(2) 0.64327(19)
C23A C 0.2030(3) 0.9601(2) 0.6754(2)
H25A H 0.1347 0.9489 0.6614
C24A C 0.2812(3) 1.0392(2) 0.7286(2)
H26A H 0.2651 1.0808 0.7501
C25A C 0.3834(3) 1.0568(2) 0.7498(2)
C26A C 0.4066(3) 0.9937(2) 0.71753(19)
H27A H 0.4748 1.0047 0.7317
C27A C 0.3288(3) 0.9148(2) 0.66478(19)
H28A H 0.3447 0.8729 0.6435
C28A C 0.4688(3) 1.1430(2) 0.8077(2)
C29A C -0.1171(3) 0.4755(2) 0.58122(18)
H29A H -0.0600 0.4766 0.6164
H30A H -0.1653 0.4136 0.5510
C30A C -0.2007(3) 0.4794(2) 0.66762(17)
C31A C -0.1918(3) 0.4090(2) 0.68853(17)
H31A H -0.1601 0.3812 0.6681
C32A C -0.2304(3) 0.3819(2) 0.73964(17)
H32A H -0.2235 0.3359 0.7542
C33A C -0.2795(3) 0.4210(2) 0.77013(18)
C34A C -0.2868(3) 0.4907(2) 0.75001(18)
H33A H -0.3191 0.5178 0.7705
C35A C -0.2471(3) 0.5208(2) 0.70007(18)
H34A H -0.2510 0.5690 0.6878
C36A C -0.3309(3) 0.3847(2) 0.81979(18)
C37A C -0.2494(3) 0.1226(2) -0.22708(18)
H35A H -0.2472 0.0936 -0.1926
C38A C -0.1847(3) 0.0369(2) -0.28359(18)
H36A H -0.2026 0.0037 -0.2512
H37A H -0.2165 -0.0040 -0.3316
H38A H -0.1106 0.0680 -0.2706
C39A C -0.2168(3) 0.1463(2) -0.33512(18)
H39A H -0.1484 0.1968 -0.3210
H40A H -0.2325 0.1046 -0.3798
H41A H -0.2666 0.1670 -0.3407
C40A C -0.0715(3) 0.3260(2) -0.02991(17)
H42A H -0.0986 0.2857 -0.0059
C41A C 0.0891(3) 0.3930(2) 0.06709(18)
H43A H 0.0486 0.3450 0.0827
H44A H 0.1469 0.3871 0.0617
H45A H 0.1141 0.4499 0.1020
C42A C 0.0756(3) 0.4551(2) -0.03233(18)
H46A H 0.0260 0.4443 -0.0774
H47A H 0.1002 0.5143 -0.0012
H48A H 0.1330 0.4505 -0.0401
C43A C -0.3351(3) 0.0835(2) -0.05676(18)
H49A H -0.3990 0.0815 -0.0656
C44A C -0.0589(3) 0.1312(2) 0.09321(18)
C45A C -0.0048(3) 0.1521(2) 0.17041(17)
C46A C 0.0157(3) 0.2314(2) 0.21771(17)
H50A H -0.0042 0.2697 0.1995
C47A C 0.0652(3) 0.2554(2) 0.29138(18)
H51A H 0.0757 0.3077 0.3221
C48A C 0.0983(3) 0.2003(2) 0.31812(17)
C49A C 0.0781(3) 0.1208(2) 0.27147(17)
H52A H 0.0988 0.0828 0.2896
C50A C 0.0278(3) 0.0972(2) 0.19839(17)
H53A H 0.0157 0.0440 0.1679
C51A C 0.1491(3) 0.2889(2) 0.43813(17)
H54A H 0.1704 0.3421 0.4228
H55A H 0.0789 0.2688 0.4373
C52A C 0.2212(3) 0.3123(2) 0.51370(17)
C53A C 0.3181(3) 0.3923(2) 0.54085(17)
C54A C 0.3779(3) 0.4229(2) 0.61327(17)
C55A C 0.3445(3) 0.3763(2) 0.65964(18)
C56A C 0.2515(3) 0.2931(2) 0.63022(17)
C57A C 0.1902(3) 0.2604(2) 0.55821(17)
C58A C 0.0880(3) 0.1728(2) 0.52740(18)
H56A H 0.0621 0.1597 0.5650
H57A H 0.0387 0.1783 0.4914
H58A H 0.0986 0.1248 0.5063
C59A C 0.3518(3) 0.4438(2) 0.49072(18)
H59A H 0.4198 0.4950 0.5161
H60A H 0.3535 0.4053 0.4515
H61A H 0.3036 0.4638 0.4726
C60A C 0.4840(3) 0.5075(2) 0.64455(19)
H62A H 0.5180 0.5128 0.6097
H63A H 0.5275 0.5046 0.6869
C61A C 0.5511(3) 0.6619(2) 0.71338(19)
C62A C 0.6470(3) 0.6738(2) 0.74337(17)
H64A H 0.6623 0.6285 0.7288
C63A C 0.7235(3) 0.7552(2) 0.79680(18)
H65A H 0.7887 0.7621 0.8190
C64A C 0.7047(3) 0.8247(2) 0.81724(18)
C65A C 0.6062(3) 0.8122(2) 0.78215(19)
H66A H 0.5918 0.8588 0.7937
C66A C 0.5298(3) 0.7314(2) 0.73058(19)
H67A H 0.4645 0.7238 0.7076
C67A C 0.7847(3) 0.9093(2) 0.87685(17)
C68A C 0.4051(3) 0.4167(2) 0.73951(17)
H68A H 0.4298 0.4804 0.7538
H69A H 0.3609 0.3892 0.7646
H70A H 0.4631 0.4061 0.7508
C69A C 0.2192(3) 0.2411(2) 0.68116(17)
H71A H 0.2798 0.2496 0.7181
H72A H 0.1751 0.1772 0.6553
C70A C 0.1341(3) 0.2455(2) 0.76547(18)
C71A C 0.0720(3) 0.2715(2) 0.78911(17)
H73A H 0.0556 0.3115 0.7710
C72A C 0.0327(3) 0.2404(2) 0.83910(17)
H74A H -0.0102 0.2587 0.8542
C73A C 0.1613(3) 0.1864(2) 0.79321(18)
H75A H 0.2044 0.1685 0.7780
C74A C 0.1221(3) 0.1553(2) 0.84428(18)
H76A H 0.1399 0.1164 0.8632
C75A C 0.0585(3) 0.1802(2) 0.86715(18)
C76A C 0.0147(3) 0.1404(2) 0.91855(17)
Co2A Co -0.16397(4) 0.08713(3) -0.03486(2)
Co3A Co -0.45933(4) 0.32549(3) -0.11762(2)
Co4A Co -0.29079(4) 0.23151(3) -0.12272(2)
N1A N 0.0266(2) 0.38856(18) 0.00054(15)
N2A N -0.2210(2) 0.10106(18) -0.27968(15)
N3A N -0.6456(2) 0.35627(19) -0.01256(15)
O1A O -0.07762(18) 0.05882(14) 0.04839(12)
O2A O -0.09153(18) 0.18034(15) 0.07152(11)
O3A O -0.31399(19) 0.03712(15) -0.02159(12)
O4A O -0.27038(18) 0.13329(15) -0.08047(12)
O5A O -0.27946(18) 0.17925(15) -0.21975(12)
O6A O -0.13135(18) 0.31696(15) -0.08962(12)
O7A O -0.38359(19) 0.34584(15) -0.02024(12)
O8A O -0.56319(19) 0.35583(15) -0.09302(12)
O9A O 0.15113(18) 0.21863(15) 0.38947(12)
O10A O 0.46861(19) 0.58394(15) 0.66289(13)
O11A O 0.16401(18) 0.27568(15) 0.71229(12)
O12A O 0.86056(18) 0.90810(14) 0.91832(12)
O13A O 0.77008(18) 0.97617(14) 0.87997(12)
O14A O 0.03690(18) 0.08681(15) 0.94068(11)
O15A O -0.04888(18) 0.16256(14) 0.93326(12)
O16A O -0.10288(18) 0.51890(15) 0.30667(12)
O17A O 0.14359(19) 0.82312(14) 0.59299(12)
O18A O -0.16888(18) 0.51211(15) 0.61649(12)
O19A O -0.32558(18) 0.32237(15) 0.83903(12)
O20A O -0.38557(18) 0.41606(15) 0.83833(12)
O21A O 0.44590(18) 1.20483(15) 0.81798(12)
O22A O 0.54998(19) 1.14347(15) 0.83675(12)
O23A O -0.27491(18) 0.29150(15) -0.02012(12)
Co1_2 Co 0.0000 0.0000 0.0000
Co1_3 Co 0.0000 0.0000 1.0000
Co1_4 Co 1.0000 1.0000 0.0000
Co2_2 Co 0.16397(4) -0.08713(3) 0.03486(2)
Co2_3 Co 1.16397(4) 0.91287(3) 0.03486(2)
Co2A_2 Co -0.16397(4) 0.08713(3) 0.96514(2)
Co2A_3 Co 0.83603(4) 1.08713(3) 0.96514(2)
Co3_2 Co 0.45933(4) -0.32549(3) 0.11762(2)
Co3_3 Co 1.45933(4) 0.67451(3) 0.11762(2)
Co3A_2 Co -0.45933(4) 0.32549(3) 0.88238(2)
Co3A_3 Co 0.54067(4) 1.32549(3) 0.88238(2)
Co4_2 Co 0.29079(4) -0.23151(3) 0.12272(2)
Co4_3 Co 1.29079(4) 0.76849(3) 0.12272(2)
Co4A_2 Co -0.29079(4) 0.23151(3) 0.87728(2)
Co4A_3 Co 0.70921(4) 1.23151(3) 0.87728(2)
O1A_2 O 0.92238(18) 1.05882(14) 1.04839(12)
O12_2 O 1.13944(18) 1.09190(14) 1.08168(12)
O13_2 O 1.22992(18) 1.02383(14) 1.12003(12)
O13A_2 O -0.22992(18) -0.02383(14) -0.12003(12)
O14_2 O 0.96310(18) 0.91319(15) 1.05932(11)
O14A_2 O 1.03690(18) 1.08681(15) 0.94068(11)
O15_2 O 1.04888(18) 0.83744(14) 1.06674(12)
O15A_2 O -0.04888(18) 0.16256(14) -0.06674(12)
O19_2 O 1.32558(18) 0.67763(15) 1.16097(12)
O19A_2 O -0.32558(18) 0.32237(15) -0.16097(12)
O20_2 O 1.38557(18) 0.58394(15) 1.16167(12)
O20A_2 O -0.38557(18) 0.41606(15) -0.16167(12)
O21_2 O 1.55410(18) 0.79517(15) 1.18202(12)
O21A_2 O -0.55410(18) 0.20483(15) -0.18202(12)
O22_2 O 1.45002(19) 0.85653(15) 1.16325(12)
O22A_2 O -0.45002(19) 0.14347(15) -0.16325(12)
loop_
_geom_bond_atom_site_label_1
_geom_bond_atom_site_label_2
_geom_bond_site_symmetry_1
_geom_bond_site_symmetry_2
C1 H1 1_555 1_555
C2 H2 1_555 1_555
H3 C2 1_555 1_555
H4 C2 1_555 1_555
C3 H5 1_555 1_555
H6 C3 1_555 1_555
H7 C3 1_555 1_555
C4 C5 1_555 1_555
C5 C6 1_555 1_555
C6 H8 1_555 1_555
C7 C6 1_555 1_555
H9 C7 1_555 1_555
C8 C7 1_555 1_555
C9 C8 1_555 1_555
H10 C9 1_555 1_555
C10 C5 1_555 1_555
H11 C10 1_555 1_555
C11 H12 1_555 1_555
H13 C11 1_555 1_555
C12 C11 1_555 1_555
C13 C12 1_555 1_555
C14 C13 1_555 1_555
C15 C14 1_555 1_555
C16 C15 1_555 1_555
C17 C12 1_555 1_555
C18 C17 1_555 1_555
H14 C18 1_555 1_555
H15 C18 1_555 1_555
H16 C18 1_555 1_555
C19 C13 1_555 1_555
H17 C19 1_555 1_555
H18 C19 1_555 1_555
H19 C19 1_555 1_555
C20 C15 1_555 1_555
H20 C20 1_555 1_555
H21 C20 1_555 1_555
H22 C20 1_555 1_555
C21 C16 1_555 1_555
H23 C21 1_555 1_555
H24 C21 1_555 1_555
C22 C23 1_555 1_555
C23 H25 1_555 1_555
C24 C23 1_555 1_555
H26 C24 1_555 1_555
C25 C24 1_555 1_555
C26 C25 1_555 1_555
H27 C26 1_555 1_555
C27 C22 1_555 1_555
H28 C27 1_555 1_555
C28 C25 1_555 1_555
C29 C14 1_555 1_555
H29 C29 1_555 1_555
H30 C29 1_555 1_555
C30 C31 1_555 1_555
C31 H31 1_555 1_555
C32 C31 1_555 1_555
H32 C32 1_555 1_555
C33 C32 1_555 1_555
C34 C33 1_555 1_555
H33 C34 1_555 1_555
C35 C30 1_555 1_555
H34 C35 1_555 1_555
C36 C33 1_555 1_555
C37 H35 1_555 1_555
C38 H36 1_555 1_555
H37 C38 1_555 1_555
H38 C38 1_555 1_555
C39 H39 1_555 1_555
H40 C39 1_555 1_555
H41 C39 1_555 1_555
C40 H42 1_555 1_555
C41 H43 1_555 1_555
H44 C41 1_555 1_555
H45 C41 1_555 1_555
C42 H46 1_555 1_555
H47 C42 1_555 1_555
H48 C42 1_555 1_555
C43 H49 1_555 1_555
C44 C45 1_555 1_555
C45 C46 1_555 1_555
C46 H50 1_555 1_555
C47 C46 1_555 1_555
H51 C47 1_555 1_555
C48 C47 1_555 1_555
C49 C48 1_555 1_555
H52 C49 1_555 1_555
C50 C45 1_555 1_555
H53 C50 1_555 1_555
C51 H54 1_555 1_555
H55 C51 1_555 1_555
C52 C51 1_555 1_555
C53 C52 1_555 1_555
C54 C53 1_555 1_555
C55 C54 1_555 1_555
C56 C55 1_555 1_555
C57 C52 1_555 1_555
C58 C57 1_555 1_555
H56 C58 1_555 1_555
H57 C58 1_555 1_555
H58 C58 1_555 1_555
C59 C53 1_555 1_555
H59 C59 1_555 1_555
H60 C59 1_555 1_555
H61 C59 1_555 1_555
C60 C54 1_555 1_555
H62 C60 1_555 1_555
H63 C60 1_555 1_555
C61 C62 1_555 1_555
C62 H64 1_555 1_555
C63 C62 1_555 1_555
H65 C63 1_555 1_555
C64 C63 1_555 1_555
C65 C64 1_555 1_555
H66 C65 1_555 1_555
C66 C61 1_555 1_555
H67 C66 1_555 1_555
C67 C64 1_555 1_555
C68 C55 1_555 1_555
H68 C68 1_555 1_555
H69 C68 1_555 1_555
H70 C68 1_555 1_555
C69 C56 1_555 1_555
H71 C69 1_555 1_555
H72 C69 1_555 1_555
C70 C71 1_555 1_555
C71 H73 1_555 1_555
C72 C71 1_555 1_555
H74 C72 1_555 1_555
C73 C70 1_555 1_555
H75 C73 1_555 1_555
C74 C73 1_555 1_555
H76 C74 1_555 1_555
C75 C72 1_555 1_555
C76 C75 1_555 1_555
Co1 O1 1_555 1_555
Co2 O1 1_555 1_555
Co3 O7 1_555 1_555
Co4 O4 1_555 1_555
N1 C40 1_555 1_555
N2 C37 1_555 1_555
N3 C1 1_555 1_555
O1 C44 1_555 1_555
O2 C44 1_555 1_555
O3 C43 1_555 1_555
O4 C43 1_555 1_555
O5 C37 1_555 1_555
O6 C40 1_555 1_555
O7 C4 1_555 1_555
O8 C1 1_555 1_555
O9 C48 1_555 1_555
O10 C60 1_555 1_555
O11 C69 1_555 1_555
O12 C67 1_555 1_555
O13 C67 1_555 1_555
O14 C76 1_555 1_555
O15 C76 1_555 1_555
O16 C8 1_555 1_555
O17 C21 1_555 1_555
O18 C29 1_555 1_555
O19 C36 1_555 1_555
O20 C36 1_555 1_555
O21 C28 1_555 1_555
O22 C28 1_555 1_555
O23 C4 1_555 1_555
C1A H1A 1_555 1_555
C2A H2A 1_555 1_555
H3A C2A 1_555 1_555
H4A C2A 1_555 1_555
C3A H5A 1_555 1_555
H6A C3A 1_555 1_555
H7A C3A 1_555 1_555
C4A C5A 1_555 1_555
C5A C6A 1_555 1_555
C6A H8A 1_555 1_555
C7A C6A 1_555 1_555
H9A C7A 1_555 1_555
C8A C7A 1_555 1_555
C9A C8A 1_555 1_555
H10A C9A 1_555 1_555
C10A C5A 1_555 1_555
H11A C10A 1_555 1_555
C11A H12A 1_555 1_555
H13A C11A 1_555 1_555
C12A C11A 1_555 1_555
C13A C12A 1_555 1_555
C14A C13A 1_555 1_555
C15A C14A 1_555 1_555
C16A C15A 1_555 1_555
C17A C12A 1_555 1_555
C18A C17A 1_555 1_555
H14A C18A 1_555 1_555
H15A C18A 1_555 1_555
H16A C18A 1_555 1_555
C19A C13A 1_555 1_555
H17A C19A 1_555 1_555
H18A C19A 1_555 1_555
H19A C19A 1_555 1_555
C20A C15A 1_555 1_555
H20A C20A 1_555 1_555
H21A C20A 1_555 1_555
H22A C20A 1_555 1_555
C21A C16A 1_555 1_555
H23A C21A 1_555 1_555
H24A C21A 1_555 1_555
C22A C23A 1_555 1_555
C23A H25A 1_555 1_555
C24A C23A 1_555 1_555
H26A C24A 1_555 1_555
C25A C24A 1_555 1_555
C26A C25A 1_555 1_555
H27A C26A 1_555 1_555
C27A C22A 1_555 1_555
H28A C27A 1_555 1_555
C28A C25A 1_555 1_555
C29A C14A 1_555 1_555
H29A C29A 1_555 1_555
H30A C29A 1_555 1_555
C30A C31A 1_555 1_555
C31A H31A 1_555 1_555
C32A C31A 1_555 1_555
H32A C32A 1_555 1_555
C33A C32A 1_555 1_555
C34A C33A 1_555 1_555
H33A C34A 1_555 1_555
C35A C30A 1_555 1_555
H34A C35A 1_555 1_555
C36A C33A 1_555 1_555
C37A H35A 1_555 1_555
C38A H36A 1_555 1_555
H37A C38A 1_555 1_555
H38A C38A 1_555 1_555
C39A H39A 1_555 1_555
H40A C39A 1_555 1_555
H41A C39A 1_555 1_555
C40A H42A 1_555 1_555
C41A H43A 1_555 1_555
H44A C41A 1_555 1_555
H45A C41A 1_555 1_555
C42A H46A 1_555 1_555
H47A C42A 1_555 1_555
H48A C42A 1_555 1_555
C43A H49A 1_555 1_555
C44A C45A 1_555 1_555
C45A C46A 1_555 1_555
C46A H50A 1_555 1_555
C47A C46A 1_555 1_555
H51A C47A 1_555 1_555
C48A C47A 1_555 1_555
C49A C48A 1_555 1_555
H52A C49A 1_555 1_555
C50A C45A 1_555 1_555
H53A C50A 1_555 1_555
C51A H54A 1_555 1_555
H55A C51A 1_555 1_555
C52A C51A 1_555 1_555
C53A C52A 1_555 1_555
C54A C53A 1_555 1_555
C55A C54A 1_555 1_555
C56A C55A 1_555 1_555
C57A C52A 1_555 1_555
C58A C57A 1_555 1_555
H56A C58A 1_555 1_555
H57A C58A 1_555 1_555
H58A C58A 1_555 1_555
C59A C53A 1_555 1_555
H59A C59A 1_555 1_555
H60A C59A 1_555 1_555
H61A C59A 1_555 1_555
C60A C54A 1_555 1_555
H62A C60A 1_555 1_555
H63A C60A 1_555 1_555
C61A C62A 1_555 1_555
C62A H64A 1_555 1_555
C63A C62A 1_555 1_555
H65A C63A 1_555 1_555
C64A C63A 1_555 1_555
C65A C64A 1_555 1_555
H66A C65A 1_555 1_555
C66A C61A 1_555 1_555
H67A C66A 1_555 1_555
C67A C64A 1_555 1_555
C68A C55A 1_555 1_555
H68A C68A 1_555 1_555
H69A C68A 1_555 1_555
H70A C68A 1_555 1_555
C69A C56A 1_555 1_555
H71A C69A 1_555 1_555
H72A C69A 1_555 1_555
C70A C71A 1_555 1_555
C71A H73A 1_555 1_555
C72A C71A 1_555 1_555
H74A C72A 1_555 1_555
C73A C70A 1_555 1_555
H75A C73A 1_555 1_555
C74A C73A 1_555 1_555
H76A C74A 1_555 1_555
C75A C72A 1_555 1_555
C76A C75A 1_555 1_555
Co2A O1A 1_555 1_555
Co3A O7A 1_555 1_555
Co4A O4A 1_555 1_555
N1A C40A 1_555 1_555
N2A C37A 1_555 1_555
N3A C1A 1_555 1_555
O1A C44A 1_555 1_555
O2A C44A 1_555 1_555
O3A C43A 1_555 1_555
O4A C43A 1_555 1_555
O5A C37A 1_555 1_555
O6A C40A 1_555 1_555
O7A C4A 1_555 1_555
O8A C1A 1_555 1_555
O9A C48A 1_555 1_555
O10A C60A 1_555 1_555
O11A C69A 1_555 1_555
O12A Co1 1_555 1_555
O13A C67A 1_555 1_555
O14A C76A 1_555 1_555
O15A C76A 1_555 1_555
O16A C8A 1_555 1_555
O17A C21A 1_555 1_555
O18A C29A 1_555 1_555
O19A C36A 1_555 1_555
O20A C36A 1_555 1_555
O21A C28A 1_555 1_555
O22A C28A 1_555 1_555
O23A C4A 1_555 1_555
Co1_2 O12 1_555 1_555
Co1_3 O14A 1_555 1_555
Co1_4 O14 1_555 1_555
Co2_2 O13 1_555 1_555
Co2_3 O15 1_555 1_555
Co2A_2 O15A 1_555 1_555
Co2A_3 O13A 1_555 1_555
Co3_2 O21 1_555 1_555
Co3_3 O19 1_555 1_555
Co3A_2 O19A 1_555 1_555
Co3A_3 O21A 1_555 1_555
Co4_2 O22 1_555 1_555
Co4_3 O19 1_555 1_555
Co4A_2 O19A 1_555 1_555
Co4A_3 O22A 1_555 1_555
O1A_2 Co1 1_555 1_555
O12_2 Co1 1_555 1_555
O13_2 Co2 1_555 1_555
O13A_2 Co2A 1_555 1_555
O14_2 Co1 1_555 1_555
O14A_2 Co1 1_555 1_555
O15_2 Co2 1_555 1_555
O15A_2 Co2A 1_555 1_555
O19_2 Co3 1_555 1_555
O19A_2 Co3A 1_555 1_555
O20_2 Co3 1_555 1_555
O20A_2 Co3A 1_555 1_555
O21_2 Co3 1_555 1_555
O21A_2 Co3A 1_555 1_555
O22_2 Co4 1_555 1_555
O22A_2 Co4A 1_555 1_555
C2 N3 1_555 1_555
C3 N3 1_555 1_555
C9 C10 1_555 1_555
C11 O16 1_555 1_555
C16 C17 1_555 1_555
C22 O17 1_555 1_555
C26 C27 1_555 1_555
C30 O18 1_555 1_555
C34 C35 1_555 1_555
C38 N2 1_555 1_555
C39 N2 1_555 1_555
C41 N1 1_555 1_555
C42 N1 1_555 1_555
C49 C50 1_555 1_555
C51 O9 1_555 1_555
C56 C57 1_555 1_555
C61 O10 1_555 1_555
C65 C66 1_555 1_555
C70 O11 1_555 1_555
C74 C75 1_555 1_555
Co2 O2 1_555 1_555
Co2 O3 1_555 1_555
Co2 O4 1_555 1_555
Co3 O8 1_555 1_555
Co4 O5 1_555 1_555
Co4 O6 1_555 1_555
Co4 O23 1_555 1_555
Co4 O19_2 1_555 1_555
O20 Co3_3 1_555 1_555
C2A N3A 1_555 1_555
C3A N3A 1_555 1_555
C9A C10A 1_555 1_555
C11A O16A 1_555 1_555
C16A C17A 1_555 1_555
C22A O17A 1_555 1_555
C26A C27A 1_555 1_555
C30A O18A 1_555 1_555
C34A C35A 1_555 1_555
C38A N2A 1_555 1_555
C39A N2A 1_555 1_555
C41A N1A 1_555 1_555
C42A N1A 1_555 1_555
C49A C50A 1_555 1_555
C51A O9A 1_555 1_555
C56A C57A 1_555 1_555
C61A O10A 1_555 1_555
C65A C66A 1_555 1_555
C67A O12A 1_555 1_555
C70A O11A 1_555 1_555
C74A C75A 1_555 1_555
Co2A O2A 1_555 1_555
Co2A O3A 1_555 1_555
Co2A O4A 1_555 1_555
Co3A O8A 1_555 1_555
Co4A O5A 1_555 1_555
Co4A O6A 1_555 1_555
Co4A O23A 1_555 1_555
Co4A O19A_2 1_555 1_555
O1A Co1_2 1_555 1_555
O20A Co3A_2 1_555 1_555
Co2A_3 O1A_2 1_555 1_555

#END
