
#######################################################################
#
#                 Cambridge Crystallographic Data Centre
#                                CCDC 
#
#######################################################################
#
# If this CIF has been generated from an entry in the Cambridge 
# Structural Database, then it will include bibliographic, chemical, 
# crystal, experimental, refinement or atomic coordinate data resulting 
# from the CCDC's data processing and validation procedures.
#
#######################################################################

data_NIRMUW01
_symmetry_cell_setting           triclinic
_symmetry_space_group_name_H-M   'P -1'
_symmetry_Int_Tables_number      2
_space_group_name_Hall           '-P 1'
loop_
_symmetry_equiv_pos_site_id
_symmetry_equiv_pos_as_xyz
1 x,y,z
2 -x,-y,-z
_cell_length_a                   9.1625(2)
_cell_length_b                   11.0890(3)
_cell_length_c                   12.9065(3)
_cell_angle_alpha                115.3710(10)
_cell_angle_beta                 96.5930(10)
_cell_angle_gamma                95.1770(10)
_cell_volume                     1162.74
loop_
_atom_site_label
_atom_site_type_symbol
_atom_site_fract_x
_atom_site_fract_y
_atom_site_fract_z
Ba1 Ba 0.87214(4) 0.37250(3) 0.31287(3)
C1 C 0.4418(6) 0.0482(6) 0.1441(5)
C2 C 0.3048(6) 0.0934(6) 0.1573(4)
H1 H 0.3012 0.1883 0.1979
C3 C 0.1725(6) 0.0021(6) 0.1185(5)
C4 C 0.1763(6) -0.1360(5) 0.0579(4)
H2 H 0.0852 -0.1988 0.0259
C5 C 0.3127(6) -0.1808(6) 0.0435(5)
C6 C 0.4462(6) -0.0892(5) 0.0894(5)
H3 H 0.5399 -0.1219 0.0828
C7 C 0.5823(7) 0.1514(6) 0.1912(5)
C8 C 0.0327(6) 0.0577(6) 0.1426(5)
C9 C 0.3157(6) -0.3308(6) -0.0225(5)
O1 O 0.7054(4) 0.1101(4) 0.1933(3)
O2 O 0.5687(4) 0.2729(4) 0.2275(4)
O3 O 0.0304(4) 0.1798(4) 0.1870(4)
O4 O -0.0870(4) -0.0300(4) 0.1144(3)
O5 O 0.4203(4) -0.3767(4) 0.0129(3)
O6 O 0.2172(4) -0.3991(4) -0.1094(3)
O7 O 1.1098(4) 0.5455(4) 0.2975(3)
H4 H 1.1935 0.5195 0.2859
H5 H 1.1030 0.6278 0.3159
O8 O 0.7234(5) 0.3203(4) 0.4747(3)
H6 H 0.6851 0.3852 0.5209
H7 H 0.7705 0.2815 0.5092
H8 H -0.1673 0.0210 0.1392
Ba2 Ba 1.37211(4) 1.37248(3) 0.81297(3)
C10 C 0.6730(6) 1.0031(6) 0.6187(5)
C11 C 0.8033(6) 1.0943(6) 0.6613(4)
H9 H 0.8006 1.1896 0.6996
C12 C 0.9383(6) 1.0493(5) 0.6447(5)
C13 C 0.9436(6) 0.9117(6) 0.5901(5)
H10 H 1.0371 0.8788 0.5830
C14 C 0.8182(6) 0.6708(5) 0.4781(5)
C15 C 1.0805(7) 1.1509(6) 0.6914(5)
C16 C 0.5354(7) 1.0597(6) 0.6434(5)
O9 O 0.9213(4) 0.6234(4) 0.5132(3)
O10 O 0.7177(4) 0.6008(4) 0.3907(3)
O11 O 1.0686(4) 1.2732(4) 0.7286(4)
O12 O 1.2038(4) 1.1100(4) 0.6919(3)
O13 O 0.4126(4) 0.9690(4) 0.6141(3)
O14 O 0.5324(4) 1.1808(4) 0.6880(4)
O15 O 1.6112(4) 1.5485(4) 0.7978(3)
H11 H 1.6859 1.5545 0.8463
H12 H 1.6336 1.5082 0.7304
O16 O 1.2248(5) 1.3190(5) 0.9756(3)
C17 C 0.6778(6) 0.8654(6) 0.5591(4)
H13 H 0.5878 0.8012 0.5281
C18 C 0.8114(6) 0.8200(6) 0.5446(5)
H14 H 0.3342 1.0168 0.6396
Ba1_2 Ba -0.12786(4) 0.37250(3) 0.31287(3)
Ba1A Ba 0.12786(4) -0.37250(3) -0.31287(3)
Ba1A_2 Ba 1.12786(4) 0.62750(3) 0.68713(3)
O3_2 O 1.0304(4) 0.1798(4) 0.1870(4)
O5_2 O 1.4203(4) 1.6233(4) 1.0129(3)
O5A O 1.5797(4) 1.3767(4) 0.9871(3)
O6_2 O 1.2172(4) 1.6009(4) 0.8906(3)
O6A O 0.7828(4) 0.3991(4) 0.1094(3)
Ba2_2 Ba 0.37211(4) -0.62752(3) -0.18703(3)
Ba2_3 Ba 0.37211(4) 1.37248(3) 0.81297(3)
Ba2A Ba 0.62789(4) -0.37248(3) 0.18703(3)
Ba2A_2 Ba 0.62789(4) 0.62752(3) 0.18703(3)
O9A O 1.0787(4) 0.3766(4) 0.4868(3)
O10A O 1.2823(4) 1.3992(4) 0.6093(3)
O14_2 O 1.5324(4) 1.1808(4) 0.6880(4)
O17 O 0.0000 0.5000 0.0000
O18 O 0.5000 0.5000 0.5000
loop_
_geom_bond_atom_site_label_1
_geom_bond_atom_site_label_2
_geom_bond_site_symmetry_1
_geom_bond_site_symmetry_2
Ba1 O1 1_555 1_555
C1 C2 1_555 1_555
C2 H1 1_555 1_555
C3 C2 1_555 1_555
C4 C3 1_555 1_555
H2 C4 1_555 1_555
C5 C4 1_555 1_555
C6 C1 1_555 1_555
H3 C6 1_555 1_555
C7 C1 1_555 1_555
C8 C3 1_555 1_555
C9 C5 1_555 1_555
O1 C7 1_555 1_555
O2 Ba1 1_555 1_555
O3 C8 1_555 1_555
O4 C8 1_555 1_555
O5 C9 1_555 1_555
O6 C9 1_555 1_555
O7 Ba1 1_555 1_555
H4 O7 1_555 1_555
H5 O7 1_555 1_555
O8 Ba1 1_555 1_555
H6 O8 1_555 1_555
H7 O8 1_555 1_555
H8 O4 1_555 1_555
Ba2 O11 1_555 1_555
C10 C11 1_555 1_555
C11 H9 1_555 1_555
C12 C11 1_555 1_555
C13 C12 1_555 1_555
H10 C13 1_555 1_555
C14 O9 1_555 1_555
C15 C12 1_555 1_555
C16 C10 1_555 1_555
O9 Ba1 1_555 1_555
O10 Ba1 1_555 1_555
O11 C15 1_555 1_555
O12 Ba2 1_555 1_555
O13 C16 1_555 1_555
O14 C16 1_555 1_555
O15 Ba2 1_555 1_555
H11 O15 1_555 1_555
H12 O15 1_555 1_555
O16 Ba2 1_555 1_555
C17 C10 1_555 1_555
H13 C17 1_555 1_555
C18 C13 1_555 1_555
H14 O13 1_555 1_555
Ba1_2 O3 1_555 1_555
Ba1A O6 1_555 1_555
Ba1A_2 O9 1_555 1_555
O3_2 Ba1 1_555 1_555
O5_2 Ba2 1_555 1_555
O5A Ba2 1_555 1_555
O6_2 Ba2 1_555 1_555
O6A Ba1 1_555 1_555
Ba2_2 O5 1_555 1_555
Ba2_3 O14 1_555 1_555
Ba2A O5 1_555 1_555
Ba2A_2 O10 1_555 1_555
O9A Ba1 1_555 1_555
O10A Ba2 1_555 1_555
O14_2 Ba2 1_555 1_555
C5 C6 1_555 1_555
C7 O2 1_555 1_555
O6 Ba2_2 1_555 1_555
C14 O10 1_555 1_555
C14 C18 1_555 1_555
C15 O12 1_555 1_555
C17 C18 1_555 1_555
Ba1A_2 O9A 1_555 1_555
O6A Ba2A_2 1_555 1_555

#END
