
#######################################################################
#
#                 Cambridge Crystallographic Data Centre
#                                CCDC 
#
#######################################################################
#
# If this CIF has been generated from an entry in the Cambridge 
# Structural Database, then it will include bibliographic, chemical, 
# crystal, experimental, refinement or atomic coordinate data resulting 
# from the CCDC's data processing and validation procedures.
#
#######################################################################

data_NIRMUW
_symmetry_cell_setting           triclinic
_symmetry_space_group_name_H-M   'P -1'
_symmetry_Int_Tables_number      2
_space_group_name_Hall           '-P 1'
loop_
_symmetry_equiv_pos_site_id
_symmetry_equiv_pos_as_xyz
1 x,y,z
2 -x,-y,-z
_cell_length_a                   7.481(8)
_cell_length_b                   8.336(10)
_cell_length_c                   10.420(9)
_cell_angle_alpha                93.56(8)
_cell_angle_beta                 105.39(8)
_cell_angle_gamma                109.35(9)
_cell_volume                     583.023
loop_
_atom_site_label
_atom_site_type_symbol
_atom_site_fract_x
_atom_site_fract_y
_atom_site_fract_z
C1 C 0.9624(7) 0.7311(6) 0.8193(5)
C2 C 1.1295(7) 0.8826(6) 0.8648(5)
H1 H 1.1859(7) 0.9404(6) 0.8035(5)
C3 C 1.2115(7) 0.9468(6) 1.0026(5)
C4 C 1.1301(8) 0.8558(6) 1.0943(5)
H2 H 1.1879(8) 0.8965(6) 1.1864(5)
C5 C 0.9633(8) 0.7046(6) 1.0490(5)
C6 C 0.8769(7) 0.6452(6) 0.9112(5)
H3 H 0.7615(7) 0.5477(6) 0.8801(5)
C7 C 0.8759(7) 0.6609(6) 0.6698(5)
C8 C 1.3823(8) 1.1108(6) 1.0587(5)
C9 C 0.8791(9) 0.6111(7) 1.1510(6)
O1 O 0.6890(6) 0.5928(6) 0.6230(4)
O2 O 0.9926(6) 0.6741(6) 0.6006(4)
O3 O 1.4416(7) 1.2020(5) 0.9691(4)
H4 H 1.5311(96) 1.2934(52) 1.0081(5)
O4 O 1.4621(7) 1.1571(5) 1.1807(4)
O5 O 0.9762(7) 0.6598(6) 1.2728(4)
O6 O 0.7133(7) 0.4889(6) 1.1099(5)
Ba1 Ba 0.68735(4) 0.44059(3) 0.37255(2)
O7 O 0.6384(8) 0.1853(7) 0.5468(5)
O8 O 0.6196(9) 0.7515(8) 0.3196(6)
O1A O 0.3110(6) 0.4072(6) 0.3770(4)
O5_2 O 0.9762(7) 0.6598(6) 0.2728(4)
O6_2 O 0.7133(7) 0.4889(6) 0.1099(5)
O2A O 1.0074(6) 0.3259(6) 0.3994(4)
O4_2 O 0.4621(7) 0.1571(5) 0.1807(4)
Ba1A Ba 1.31265(4) 0.55941(3) 0.62745(2)
Ba1A_2 Ba 0.31265(4) 0.55941(3) 0.62745(2)
Ba1_2 Ba 1.68735(4) 1.44059(3) 1.37255(2)
Ba1_3 Ba 0.68735(4) 0.44059(3) 1.37255(2)
O9 O 0.0000 0.0000 0.5000
loop_
_geom_bond_atom_site_label_1
_geom_bond_atom_site_label_2
_geom_bond_site_symmetry_1
_geom_bond_site_symmetry_2
C1 C2 1_555 1_555
C2 H1 1_555 1_555
C3 C2 1_555 1_555
C4 C3 1_555 1_555
H2 C4 1_555 1_555
C5 C4 1_555 1_555
C6 C1 1_555 1_555
H3 C6 1_555 1_555
C7 C1 1_555 1_555
C8 C3 1_555 1_555
C9 C5 1_555 1_555
O1 C7 1_555 1_555
O2 C7 1_555 1_555
O3 C8 1_555 1_555
H4 O3 1_555 1_555
O4 C8 1_555 1_555
O5 C9 1_555 1_555
O6 C9 1_555 1_555
Ba1 O1 1_555 1_555
O7 Ba1 1_555 1_555
O8 Ba1 1_555 1_555
O1A Ba1 1_555 1_555
O5_2 Ba1 1_555 1_555
O6_2 Ba1 1_555 1_555
O2A Ba1 1_555 1_555
O4_2 Ba1 1_555 1_555
Ba1A O2 1_555 1_555
Ba1A_2 O1 1_555 1_555
Ba1_2 O4 1_555 1_555
Ba1_3 O5 1_555 1_555
C5 C6 1_555 1_555
O2 Ba1 1_555 1_555
O6 Ba1_3 1_555 1_555
O1A Ba1A_2 1_555 1_555
O2A Ba1A 1_555 1_555

#END
