
#######################################################################
#
#                 Cambridge Crystallographic Data Centre
#                                CCDC 
#
#######################################################################
#
# If this CIF has been generated from an entry in the Cambridge 
# Structural Database, then it will include bibliographic, chemical, 
# crystal, experimental, refinement or atomic coordinate data resulting 
# from the CCDC's data processing and validation procedures.
#
#######################################################################

data_NIRRUD
_symmetry_cell_setting           triclinic
_symmetry_space_group_name_H-M   'P -1'
_symmetry_Int_Tables_number      2
_space_group_name_Hall           '-P 1'
loop_
_symmetry_equiv_pos_site_id
_symmetry_equiv_pos_as_xyz
1 x,y,z
2 -x,-y,-z
_cell_length_a                   3.6653(3)
_cell_length_b                   9.6754(12)
_cell_length_c                   11.3399(11)
_cell_angle_alpha                110.236(10)
_cell_angle_beta                 96.556(7)
_cell_angle_gamma                100.513(8)
_cell_volume                     364.078
loop_
_atom_site_label
_atom_site_type_symbol
_atom_site_fract_x
_atom_site_fract_y
_atom_site_fract_z
Co1 Co 0.0000 0.0000 0.5000
N1 N -0.3198(7) 0.0745(3) 0.8801(3)
C1 C -0.1323(9) 0.2003(4) 0.9845(3)
N2 N -0.1932(9) 0.1993(3) 1.0983(3)
H1 H -0.0864 0.2765 1.1671
H2 H -0.3391 0.1216 1.1027
N3 N 0.1019(8) 0.3272(3) 0.9848(3)
C2 C 0.1519(9) 0.3154(3) 0.8664(3)
C3 C -0.0136(8) 0.1907(4) 0.7564(3)
C4 C -0.2599(9) 0.0683(3) 0.7640(3)
S1 S -0.4761(2) -0.08414(8) 0.62110(7)
N4 N 0.1103(7) 0.2097(3) 0.6513(2)
C5 C 0.3421(9) 0.3462(4) 0.6985(3)
H3 H 0.4706 0.3900 0.6492
N5 N 0.3717(8) 0.4157(3) 0.8279(3)
H4 H 0.5032 0.5052 0.8757
N1A N -0.6802(7) -0.0745(3) 0.1199(3)
C1A C -0.8677(9) -0.2003(4) 0.0155(3)
N2A N -0.8068(9) -0.1993(3) -0.0983(3)
H1A H -0.9136 -0.2765 -0.1671
H2A H -0.6609 -0.1216 -0.1027
N3A N -1.1019(8) -0.3272(3) 0.0152(3)
C2A C -1.1519(9) -0.3154(3) 0.1336(3)
C3A C -0.9864(8) -0.1907(4) 0.2436(3)
C4A C -0.7401(9) -0.0683(3) 0.2360(3)
S1A S -0.5239(2) 0.08414(8) 0.37890(7)
N4A N -1.1103(7) -0.2097(3) 0.3487(2)
C5A C -1.3421(9) -0.3462(4) 0.3015(3)
H3A H -1.4706 -0.3900 0.3508
N5A N -1.3717(8) -0.4157(3) 0.1721(3)
H4A H -1.5032 -0.5052 0.1243
Co1_2 Co -1.0000 0.0000 0.5000
S1_2 S 0.5239(2) -0.08414(8) 0.62110(7)
S1A_2 S 0.4761(2) 0.08414(8) 0.37890(7)
N4A_2 N -0.1103(7) -0.2097(3) 0.3487(2)
O1 O 0.1302(15) 0.3995(5) 0.3919(4)
loop_
_geom_bond_atom_site_label_1
_geom_bond_atom_site_label_2
_geom_bond_site_symmetry_1
_geom_bond_site_symmetry_2
Co1 S1 1_555 1_555
N1 C1 1_555 1_555
C1 N2 1_555 1_555
N2 H1 1_555 1_555
H2 N2 1_555 1_555
N3 C1 1_555 1_555
C2 N3 1_555 1_555
C3 C2 1_555 1_555
C4 N1 1_555 1_555
S1 C4 1_555 1_555
N4 Co1 1_555 1_555
C5 N4 1_555 1_555
H3 C5 1_555 1_555
N5 C2 1_555 1_555
H4 N5 1_555 1_555
N1A C1A 1_555 1_555
C1A N2A 1_555 1_555
N2A H1A 1_555 1_555
H2A N2A 1_555 1_555
N3A C1A 1_555 1_555
C2A N3A 1_555 1_555
C3A C2A 1_555 1_555
C4A N1A 1_555 1_555
S1A Co1 1_555 1_555
N4A C3A 1_555 1_555
C5A N4A 1_555 1_555
H3A C5A 1_555 1_555
N5A C2A 1_555 1_555
H4A N5A 1_555 1_555
Co1_2 S1 1_555 1_555
S1_2 Co1 1_555 1_555
S1A_2 Co1 1_555 1_555
N4A_2 Co1 1_555 1_555
C3 C4 1_555 1_555
C3 N4 1_555 1_555
C5 N5 1_555 1_555
C3A C4A 1_555 1_555
C4A S1A 1_555 1_555
S1A Co1_2 1_555 1_555
N4A Co1_2 1_555 1_555
C5A N5A 1_555 1_555

#END
