
#######################################################################
#
#                 Cambridge Crystallographic Data Centre
#                                CCDC 
#
#######################################################################
#
# If this CIF has been generated from an entry in the Cambridge 
# Structural Database, then it will include bibliographic, chemical, 
# crystal, experimental, refinement or atomic coordinate data resulting 
# from the CCDC's data processing and validation procedures.
#
#######################################################################

data_NIRXUH
_symmetry_cell_setting           monoclinic
_symmetry_space_group_name_H-M   'P 21/c'
_symmetry_Int_Tables_number      14
_space_group_name_Hall           '-P 2ybc'
loop_
_symmetry_equiv_pos_site_id
_symmetry_equiv_pos_as_xyz
1 x,y,z
2 x,1/2-y,1/2+z
3 -x,-y,-z
4 -x,1/2+y,1/2-z
_cell_length_a                   8.716(1)
_cell_length_b                   10.609(1)
_cell_length_c                   19.359(2)
_cell_angle_alpha                90
_cell_angle_beta                 91.46(1)
_cell_angle_gamma                90
_cell_volume                     1789.51
loop_
_atom_site_label
_atom_site_type_symbol
_atom_site_fract_x
_atom_site_fract_y
_atom_site_fract_z
In1 In -0.09068(3) 0.63393(2) 0.027472(11)
Br1 Br -0.20156(5) 0.83102(4) 0.08176(2)
C1 C -0.0354(3) 0.4887(3) 0.10196(15)
C2 C -0.0418(3) 0.6212(3) -0.0807(2)
C3 C -0.0799(4) 0.7126(4) -0.1306(2)
H1 H -0.1327(4) 0.7875(4) -0.1167(2)
C4 C -0.0421(5) 0.6968(4) -0.1990(2)
H2 H -0.0683(5) 0.7608(4) -0.2323(2)
C5 C 0.0335(5) 0.5902(4) -0.2197(2)
H3 H 0.0581(5) 0.5791(4) -0.2673(2)
C6 C -0.0718(4) 0.5014(4) 0.1717(2)
H4 H -0.1260(4) 0.5752(4) 0.1861(2)
N1 N -0.3549(3) 0.5523(3) 0.00901(13)
C7 C -0.4436(4) 0.5270(4) 0.0625(2)
H5 H -0.4059(4) 0.5457(4) 0.1083(2)
C8 C -0.4121(4) 0.5245(4) -0.0533(2)
H6 H -0.3514(4) 0.5414(4) -0.0930(2)
O1 O 0.1675(3) 0.7237(2) 0.04690(13)
C9 C 0.2287(6) 0.8094(5) -0.0028(3)
H7 H 0.1490(6) 0.8616(5) -0.0226(3)
H8 H 0.2769(6) 0.7636(5) -0.0392(3)
C10 C 0.3446(7) 0.8867(6) 0.0369(4)
H9 H 0.3487(7) 0.9711(6) 0.0191(4)
H10 H 0.4451(7) 0.8499(6) 0.0348(4)
C11 C 0.2904(10) 0.8839(7) 0.1074(4)
H11 H 0.2167(10) 0.9498(7) 0.1139(4)
H12 H 0.3742(10) 0.8951(7) 0.1399(4)
C12 C 0.2169(5) 0.7602(4) 0.1155(2)
H13 H 0.2897(5) 0.7006(4) 0.1343(2)
H14 H 0.1309(5) 0.7648(4) 0.1454(2)
C2B C 0.0418(3) 0.3788(3) 0.0807(2)
In1B In 0.09068(3) 0.36607(2) -0.027472(11)
Br1B Br 0.20156(5) 0.16898(4) -0.08176(2)
C1B C 0.0354(3) 0.5113(3) -0.10196(15)
C8B C -0.5879(4) 0.4755(4) 0.0533(2)
N1B N -0.6451(3) 0.4477(3) -0.00901(13)
In1B_2 In -0.90932(3) 0.36607(2) -0.027472(11)
C7B C -0.5564(4) 0.4730(4) -0.0625(2)
H5B H -0.5941(4) 0.4543(4) -0.1083(2)
H6B H -0.6486(4) 0.4586(4) 0.0930(2)
C6B C 0.0718(4) 0.4986(4) -0.1717(2)
H4B H 0.1260(4) 0.4248(4) -0.1861(2)
N1B_2 N 0.3549(3) 0.4477(3) -0.00901(13)
O1B O -0.1675(3) 0.2763(2) -0.04690(13)
C9B C -0.2287(6) 0.1906(5) 0.0028(3)
H7B H -0.1490(6) 0.1384(5) 0.0226(3)
H8B H -0.2769(6) 0.2364(5) 0.0392(3)
C10B C -0.3446(7) 0.1133(6) -0.0369(4)
H9B H -0.3487(7) 0.0289(6) -0.0191(4)
H10B H -0.4451(7) 0.1501(6) -0.0348(4)
C11B C -0.2904(10) 0.1161(7) -0.1074(4)
H11B H -0.2167(10) 0.0502(7) -0.1139(4)
H12B H -0.3742(10) 0.1049(7) -0.1399(4)
C12B C -0.2169(5) 0.2398(4) -0.1155(2)
H13B H -0.2897(5) 0.2994(4) -0.1343(2)
H14B H -0.1309(5) 0.2352(4) -0.1454(2)
C3B C 0.0799(4) 0.2874(4) 0.1306(2)
H1B H 0.1327(4) 0.2125(4) 0.1167(2)
C4B C 0.0421(5) 0.3032(4) 0.1990(2)
H2B H 0.0683(5) 0.2392(4) 0.2323(2)
C5B C -0.0335(5) 0.4098(4) 0.2197(2)
H3B H -0.0581(5) 0.4209(4) 0.2673(2)
O2 O 0.5173(4) 0.0644(4) 0.2763(2)
C13 C 0.6431(6) 0.0300(5) 0.2384(3)
H15 H 0.6274(6) -0.0523(5) 0.2188(3)
H16 H 0.7336(6) 0.0279(5) 0.2676(3)
C14 C 0.6614(7) 0.1224(5) 0.1836(3)
H17 H 0.6546(7) 0.0822(5) 0.1392(3)
H18 H 0.7596(7) 0.1629(5) 0.1882(3)
C15 C 0.5399(8) 0.2146(6) 0.1902(3)
H19 H 0.4861(8) 0.2264(6) 0.1468(3)
H20 H 0.5798(8) 0.2943(6) 0.2058(3)
C16 C 0.4375(6) 0.1587(5) 0.2426(3)
H21 H 0.4064(6) 0.2218(5) 0.2750(3)
H22 H 0.3473(6) 0.1239(5) 0.2204(3)
loop_
_geom_bond_atom_site_label_1
_geom_bond_atom_site_label_2
_geom_bond_site_symmetry_1
_geom_bond_site_symmetry_2
In1 Br1 1_555 1_555
C1 In1 1_555 1_555
C2 In1 1_555 1_555
C3 C2 1_555 1_555
H1 C3 1_555 1_555
C4 C3 1_555 1_555
H2 C4 1_555 1_555
C5 C4 1_555 1_555
H3 C5 1_555 1_555
C6 C1 1_555 1_555
H4 C6 1_555 1_555
N1 In1 1_555 1_555
C7 N1 1_555 1_555
H5 C7 1_555 1_555
C8 N1 1_555 1_555
H6 C8 1_555 1_555
O1 In1 1_555 1_555
C9 O1 1_555 1_555
H7 C9 1_555 1_555
H8 C9 1_555 1_555
C10 C9 1_555 1_555
H9 C10 1_555 1_555
H10 C10 1_555 1_555
C11 C10 1_555 1_555
H11 C11 1_555 1_555
H12 C11 1_555 1_555
C12 O1 1_555 1_555
H13 C12 1_555 1_555
H14 C12 1_555 1_555
O2 C13 1_555 1_555
C13 H15 1_555 1_555
H16 C13 1_555 1_555
C14 C13 1_555 1_555
H17 C14 1_555 1_555
H18 C14 1_555 1_555
C15 C14 1_555 1_555
H19 C15 1_555 1_555
H20 C15 1_555 1_555
C16 O2 1_555 1_555
H21 C16 1_555 1_555
H22 C16 1_555 1_555
C2B C1 1_555 1_555
In1B C2B 1_555 1_555
Br1B In1B 1_555 1_555
C1B C2 1_555 1_555
C8B C7 1_555 1_555
N1B C8B 1_555 1_555
In1B_2 N1B 1_555 1_555
C7B C8 1_555 1_555
H5B C7B 1_555 1_555
H6B C8B 1_555 1_555
C6B C5 1_555 1_555
H4B C6B 1_555 1_555
N1B_2 In1B 1_555 1_555
O1B In1B 1_555 1_555
C9B O1B 1_555 1_555
H7B C9B 1_555 1_555
H8B C9B 1_555 1_555
C10B C9B 1_555 1_555
H9B C10B 1_555 1_555
H10B C10B 1_555 1_555
C11B C10B 1_555 1_555
H11B C11B 1_555 1_555
H12B C11B 1_555 1_555
C12B O1B 1_555 1_555
H13B C12B 1_555 1_555
H14B C12B 1_555 1_555
C3B C2B 1_555 1_555
H1B C3B 1_555 1_555
C4B C3B 1_555 1_555
H2B C4B 1_555 1_555
C5B C6 1_555 1_555
H3B C5B 1_555 1_555
C11 C12 1_555 1_555
C15 C16 1_555 1_555
In1B C1B 1_555 1_555
C1B C6B 1_555 1_555
N1B C7B 1_555 1_555
C11B C12B 1_555 1_555
C4B C5B 1_555 1_555

#END
