
#######################################################################
#
#                 Cambridge Crystallographic Data Centre
#                                CCDC 
#
#######################################################################
#
# If this CIF has been generated from an entry in the Cambridge 
# Structural Database, then it will include bibliographic, chemical, 
# crystal, experimental, refinement or atomic coordinate data resulting 
# from the CCDC's data processing and validation procedures.
#
#######################################################################

data_NISCOJ
_symmetry_cell_setting           orthorhombic
_symmetry_space_group_name_H-M   'P c a 21'
_symmetry_Int_Tables_number      29
_space_group_name_Hall           'P 2c -2ac'
loop_
_symmetry_equiv_pos_site_id
_symmetry_equiv_pos_as_xyz
1 x,y,z
2 -x,-y,1/2+z
3 1/2-x,y,1/2+z
4 1/2+x,-y,z
_cell_length_a                   18.3139(11)
_cell_length_b                   7.8463(6)
_cell_length_c                   19.3760(11)
_cell_angle_alpha                90
_cell_angle_beta                 90
_cell_angle_gamma                90
_cell_volume                     2784.26
loop_
_atom_site_label
_atom_site_type_symbol
_atom_site_fract_x
_atom_site_fract_y
_atom_site_fract_z
C1 C 0.13057(11) 1.3773(3) 0.4989(2)
C2 C 0.18100(12) 1.2280(3) 0.51217(14)
C3 C 0.25554(13) 1.2535(3) 0.52138(16)
H1 H 0.2747 1.3646 0.5192
C4 C 0.30198(13) 1.1174(3) 0.53368(16)
H2 H 0.3520 1.1356 0.5414
C5 C 0.27311(13) 0.9532(3) 0.53433(14)
C6 C 0.19926(13) 0.9250(3) 0.52463(14)
H3 H 0.1805 0.8134 0.5248
C7 C 0.15310(12) 1.0630(3) 0.51461(13)
H4 H 0.1026 1.0451 0.5094
C8 C 0.41014(15) 0.8617(4) 0.44834(15)
H5 H 0.4388 0.9563 0.4658
H6 H 0.3705 0.9049 0.4201
H7 H 0.4410 0.7879 0.4207
C9 C 0.37945(11) 0.7629(3) 0.50756(16)
C10 C 0.31138(14) 0.6822(3) 0.59400(15)
C11 C 0.25289(19) 0.6794(5) 0.6477(2)
H8 H 0.2075 0.6408 0.6272
H9 H 0.2463 0.7933 0.6663
H10 H 0.2669 0.6025 0.6846
C12 C 0.48278(16) -0.2734(4) 0.10235(17)
C13 C 0.47662(15) -0.1265(3) 0.15301(15)
C14 C 0.4494(2) -0.1621(4) 0.21766(18)
H11 H 0.4349 -0.2737 0.2289
C15 C 0.4432(2) -0.0321(4) 0.26637(17)
H12 H 0.4235 -0.0554 0.3101
C16 C 0.46612(15) 0.1304(3) 0.25041(14)
C17 C 0.49221(17) 0.1693(3) 0.18549(15)
H13 H 0.5063 0.2812 0.1743
C18 C 0.49729(16) 0.0382(4) 0.13660(14)
H14 H 0.5150 0.0625 0.0921
C19 C 0.56594(16) 0.1853(4) 0.37767(17)
H15 H 0.5936 0.2464 0.4125
H16 H 0.5951 0.1740 0.3362
H17 H 0.5534 0.0729 0.3949
C20 C 0.49791(14) 0.2809(3) 0.36157(14)
C21 C 0.39993(16) 0.3716(4) 0.30845(15)
C22 C 0.3428(2) 0.3895(6) 0.2549(2)
H18 H 0.3067 0.4721 0.2699
H19 H 0.3193 0.2802 0.2475
H20 H 0.3649 0.4279 0.2121
N1 N 0.40469(10) 0.6166(2) 0.53102(11)
N2 N 0.36175(11) 0.5660(3) 0.58678(12)
N3 N 0.32045(10) 0.8089(2) 0.54593(12)
N4 N 0.46740(12) 0.3979(3) 0.39988(12)
N5 N 0.40464(13) 0.4563(3) 0.36612(13)
N6 N 0.45757(12) 0.2603(3) 0.30237(11)
O1 O 0.06279(8) 1.34072(19) 0.49404(14)
O2 O 0.15606(9) 1.5232(2) 0.49280(19)
O3 O 0.50621(11) -0.2400(2) 0.04185(11)
O4 O 0.46658(15) -0.4197(3) 0.12061(13)
Zn1 Zn 0.491856(10) 0.47462(3) 0.500008(18)
O1C O 0.56279(8) 0.65928(19) 0.49404(14)
O3A O 0.49379(11) 0.2400(2) 0.54185(11)
O4A O 0.53342(15) 0.4197(3) 0.62061(13)
Zn1A Zn 0.508144(10) -0.47462(3) 0.000008(18)
Zn1C Zn -0.008144(10) 1.52538(3) 0.500008(18)
C23 C 0.3443(3) 0.1835(7) 0.7143(3)
H21 H 0.3445 0.2250 0.6688
C24 C 0.3992(4) 0.4440(7) 0.7543(3)
H22 H 0.4489 0.4344 0.7710
H23 H 0.3747 0.5366 0.7781
H24 H 0.3997 0.4668 0.7051
C25 C 0.3449(5) 0.2444(10) 0.8365(3)
H25 H 0.3094 0.1526 0.8373
H26 H 0.3250 0.3431 0.8601
H27 H 0.3892 0.2080 0.8596
N7 N 0.3610(3) 0.2877(6) 0.7672(2)
O5 O 0.3280(7) 0.0246(13) 0.7266(5)
O7 O 0.26053(17) 0.6224(5) 0.3952(2)
H28 H 0.3018(11) 0.573(4) 0.3963(16)
H29 H 0.2344(15) 0.585(4) 0.4276(14)
O8 O 0.2761(6) 0.9480(17) 0.3350(7)
O6? O 0.3014(9) 0.0673(17) 0.7143(6)
O9? O 0.2829(7) 0.890(2) 0.3126(9)
loop_
_geom_bond_atom_site_label_1
_geom_bond_atom_site_label_2
_geom_bond_site_symmetry_1
_geom_bond_site_symmetry_2
C1 C2 1_555 1_555
C2 C3 1_555 1_555
C3 H1 1_555 1_555
C4 C3 1_555 1_555
H2 C4 1_555 1_555
C5 C4 1_555 1_555
C6 C5 1_555 1_555
H3 C6 1_555 1_555
C7 C2 1_555 1_555
H4 C7 1_555 1_555
C8 H5 1_555 1_555
H6 C8 1_555 1_555
H7 C8 1_555 1_555
C9 C8 1_555 1_555
C10 C11 1_555 1_555
C11 H8 1_555 1_555
H9 C11 1_555 1_555
H10 C11 1_555 1_555
C12 C13 1_555 1_555
C13 C14 1_555 1_555
C14 H11 1_555 1_555
C15 C14 1_555 1_555
H12 C15 1_555 1_555
C16 C15 1_555 1_555
C17 C16 1_555 1_555
H13 C17 1_555 1_555
C18 C13 1_555 1_555
H14 C18 1_555 1_555
C19 H15 1_555 1_555
H16 C19 1_555 1_555
H17 C19 1_555 1_555
C20 C19 1_555 1_555
C21 C22 1_555 1_555
C22 H18 1_555 1_555
H19 C22 1_555 1_555
H20 C22 1_555 1_555
N1 C9 1_555 1_555
N2 C10 1_555 1_555
N3 C5 1_555 1_555
N4 C20 1_555 1_555
N5 C21 1_555 1_555
N6 C16 1_555 1_555
O1 C1 1_555 1_555
O2 C1 1_555 1_555
O3 C12 1_555 1_555
O4 C12 1_555 1_555
Zn1 N1 1_555 1_555
C23 H21 1_555 1_555
C24 H22 1_555 1_555
H23 C24 1_555 1_555
H24 C24 1_555 1_555
C25 H25 1_555 1_555
H26 C25 1_555 1_555
H27 C25 1_555 1_555
N7 C23 1_555 1_555
O5 C23 1_555 1_555
O7 H28 1_555 1_555
H29 O7 1_555 1_555
O1C Zn1 1_555 1_555
O3A Zn1 1_555 1_555
O4A Zn1 1_555 1_555
Zn1A O3 1_555 1_555
Zn1C O1 1_555 1_555
C6 C7 1_555 1_555
C9 N3 1_555 1_555
C10 N3 1_555 1_555
C17 C18 1_555 1_555
C20 N6 1_555 1_555
C21 N6 1_555 1_555
N1 N2 1_555 1_555
N4 N5 1_555 1_555
N4 Zn1 1_555 1_555
O4 Zn1A 1_555 1_555
C24 N7 1_555 1_555
C25 N7 1_555 1_555

#END
