
#######################################################################
#
#                 Cambridge Crystallographic Data Centre
#                                CCDC 
#
#######################################################################
#
# If this CIF has been generated from an entry in the Cambridge 
# Structural Database, then it will include bibliographic, chemical, 
# crystal, experimental, refinement or atomic coordinate data resulting 
# from the CCDC's data processing and validation procedures.
#
#######################################################################

data_NISDOK
_symmetry_cell_setting           triclinic
_symmetry_space_group_name_H-M   'P -1'
_symmetry_Int_Tables_number      2
_space_group_name_Hall           '-P 1'
loop_
_symmetry_equiv_pos_site_id
_symmetry_equiv_pos_as_xyz
1 x,y,z
2 -x,-y,-z
_cell_length_a                   7.51030(10)
_cell_length_b                   11.2490(2)
_cell_length_c                   16.5318(3)
_cell_angle_alpha                88.7870(10)
_cell_angle_beta                 85.2000(10)
_cell_angle_gamma                72.3260(10)
_cell_volume                     1326.06
loop_
_atom_site_label
_atom_site_type_symbol
_atom_site_fract_x
_atom_site_fract_y
_atom_site_fract_z
C1 C 0.2555(6) 0.2586(4) 1.0689(3)
H1 H 0.3014 0.2235 1.1173
C2 C 0.1357(6) 0.3791(4) 1.0707(3)
H2 H 0.1030 0.4228 1.1195
C3 C 0.0638(5) 0.4353(3) 1.0002(2)
C4 C 0.1183(7) 0.3637(4) 0.9311(3)
H3 H 0.0749 0.3965 0.8818
C5 C 0.2362(7) 0.2443(4) 0.9341(3)
H4 H 0.2677 0.1981 0.8862
N1 N 0.3088(4) 0.1900(3) 1.0013(2)
O1 O 0.2701(4) -0.0696(3) 0.98928(19)
H5 H 0.181(5) -0.029(5) 0.954(2)
H6 H 0.212(6) -0.075(5) 1.0404(15)
O2 O 0.5296(4) 0.0106(3) 0.87401(17)
H7 H 0.520(6) -0.047(4) 0.835(2)
H8 H 0.622(5) 0.046(4) 0.854(3)
Zn1 Zn 0.5000 0.0000 1.0000
C1A C -0.2555(6) 0.7414(4) 0.9311(3)
H1A H -0.3014 0.7765 0.8827
C2A C -0.1357(6) 0.6209(4) 0.9293(3)
H2A H -0.1030 0.5772 0.8805
C3A C -0.0638(5) 0.5647(3) 0.9998(2)
C4A C -0.1183(7) 0.6363(4) 1.0689(3)
H3A H -0.0749 0.6035 1.1182
C5A C -0.2362(7) 0.7557(4) 1.0659(3)
H4A H -0.2677 0.8019 1.1138
N1A N -0.3088(4) 0.8100(3) 0.9987(2)
O1A O 0.7299(4) 0.0696(3) 1.01072(19)
H5A H 0.819(5) 0.029(5) 1.046(2)
H6A H 0.788(6) 0.075(5) 0.9596(15)
O2A O 0.4704(4) -0.0106(3) 1.12599(17)
H7A H 0.480(6) 0.047(4) 1.165(2)
H8A H 0.378(5) -0.046(4) 1.146(3)
N1A_2 N 0.6912(4) -0.1900(3) 0.9987(2)
Zn1_2 Zn -0.5000 1.0000 1.0000
C6 C 0.5039(7) 0.4854(4) 0.8151(3)
H9 H 0.5583 0.4334 0.7710
C7 C 0.5542(7) 0.4437(4) 0.8908(3)
H10 H 0.6395 0.3652 0.8973
C8 C 0.4760(5) 0.5202(4) 0.9580(2)
C9 C 0.3477(6) 0.6338(4) 0.9431(3)
H11 H 0.2903 0.6874 0.9862
C10 C 0.3042(6) 0.6685(4) 0.8655(3)
H12 H 0.2170 0.7457 0.8574
C11 C 0.6493(7) 0.6768(5) 0.5889(4)
H13 H 0.5977 0.7600 0.6044
C12 C 0.8221(7) 0.6412(5) 0.5459(4)
H14 H 0.8828 0.7007 0.5327
C13 C 0.9062(5) 0.5202(4) 0.5222(2)
C14 C 0.8051(7) 0.4396(5) 0.5425(3)
H15 H 0.8539 0.3561 0.5274
C15 C 0.6320(7) 0.4809(4) 0.5849(3)
H16 H 0.5671 0.4235 0.5972
C16 C 0.1358(6) 0.4425(3) 0.6994(2)
C17 C 0.1813(5) 0.3024(4) 0.6992(2)
C18 C 0.3500(7) 0.2269(4) 0.6654(3)
H17 H 0.4335 0.2625 0.6372
C19 C 0.3972(7) 0.0983(4) 0.6726(4)
H18 H 0.5130 0.0491 0.6501
C20 C 0.2757(6) 0.0414(4) 0.7128(2)
C21 C 0.3455(6) -0.0997(4) 0.7217(3)
C22 C 0.1034(5) 0.1179(3) 0.7459(2)
C23 C 0.0562(5) 0.2458(3) 0.7390(2)
H19 H -0.0601 0.2952 0.7610
N2 N 0.3816(5) 0.5961(3) 0.8009(2)
N3 N 0.5523(5) 0.5980(3) 0.6095(2)
O3 O 0.0561(8) -0.0347(6) 0.8581(3)
O4 O -0.1233(7) -0.0184(5) 0.7451(4)
O5 O -0.1944(13) 0.1487(7) 0.8421(6)
O6 O 0.0195(5) 0.7270(3) 0.7010(3)
H20 H -0.057(7) 0.808(2) 0.713(4)
H21 H -0.048(7) 0.671(4) 0.718(4)
O7 O 0.2564(4) 0.4856(3) 0.66190(17)
O8 O -0.0128(4) 0.5049(3) 0.7371(2)
O9 O 0.2846(4) -0.1616(3) 0.6752(2)
O10 O 0.4660(5) -0.1436(3) 0.7698(2)
S1 S -0.05461(15) 0.05310(10) 0.80411(7)
Zn2 Zn 0.30492(6) 0.65253(4) 0.68630(3)
C6A C 0.4961(7) 0.5146(4) 1.1849(3)
H9A H 0.4417 0.5666 1.2290
C7A C 0.4458(7) 0.5563(4) 1.1092(3)
H10A H 0.3605 0.6348 1.1027
C8A C 0.5240(5) 0.4798(4) 1.0420(2)
C9A C 0.6523(6) 0.3662(4) 1.0569(3)
H11A H 0.7097 0.3126 1.0138
C10A C 0.6958(6) 0.3315(4) 1.1345(3)
H12A H 0.7830 0.2543 1.1426
N2A N 0.6184(5) 0.4039(3) 1.1991(2)
C11A C 1.3507(7) 0.3232(5) 0.4111(4)
H13A H 1.4023 0.2400 0.3956
C12A C 1.1779(7) 0.3588(5) 0.4541(4)
H14A H 1.1172 0.2993 0.4673
C13A C 1.0938(5) 0.4798(4) 0.4778(2)
C14A C 1.1949(7) 0.5604(5) 0.4575(3)
H15A H 1.1461 0.6439 0.4726
C15A C 1.3680(7) 0.5191(4) 0.4151(3)
H16A H 1.4329 0.5765 0.4028
N3A N 1.4477(5) 0.4020(3) 0.3905(2)
C16A C 0.8642(6) 0.5575(3) 1.3006(2)
C17A C 0.8187(5) 0.6976(4) 1.3008(2)
C18A C 0.6500(7) 0.7731(4) 1.3346(3)
H17A H 0.5665 0.7375 1.3628
C19A C 0.6028(7) 0.9017(4) 1.3274(4)
H18A H 0.4870 0.9509 1.3499
C20A C 0.7243(6) 0.9586(4) 1.2872(2)
C21A C 0.6545(6) 1.0997(4) 1.2783(3)
C22A C 0.8966(5) 0.8821(3) 1.2541(2)
C23A C 0.9438(5) 0.7542(3) 1.2610(2)
H19A H 1.0601 0.7048 1.2390
O3A O 0.9439(8) 1.0347(6) 1.1419(3)
O4A O 1.1233(7) 1.0184(5) 1.2549(4)
O5A O 1.1944(13) 0.8513(7) 1.1579(6)
O6A O 0.9805(5) 0.2730(3) 1.2990(3)
H20A H 1.057(7) 0.192(2) 1.287(4)
H21A H 1.048(7) 0.329(4) 1.282(4)
O7A O 0.7436(4) 0.5144(3) 1.33810(17)
O8A O 1.0128(4) 0.4951(3) 1.2629(2)
O9A O 0.7154(4) 1.1616(3) 1.3248(2)
O10A O 0.5340(5) 1.1436(3) 1.2302(2)
S1A S 1.05461(15) 0.94690(10) 1.19589(7)
Zn2A Zn 0.69508(6) 0.34747(4) 1.31370(3)
N3A_2 N 0.4477(5) 0.4020(3) 1.3905(2)
O9_2 O 0.2846(4) 0.8384(3) 0.6752(2)
O9A_2 O 0.7154(4) 0.1616(3) 1.3248(2)
Zn2_2 Zn 0.30492(6) -0.34747(4) 0.68630(3)
Zn2A_2 Zn 0.69508(6) 1.34747(4) 1.31370(3)
Zn2A_3 Zn 1.69508(6) 0.34747(4) 0.31370(3)
O14 O 0.890(4) 0.123(3) 0.4850(17)
O11? O -0.0025(17) 0.0676(16) 0.8924(8)
O12? O -0.029(2) -0.0637(13) 0.7905(10)
O13? O -0.2419(17) 0.1529(14) 0.8054(8)
loop_
_geom_bond_atom_site_label_1
_geom_bond_atom_site_label_2
_geom_bond_site_symmetry_1
_geom_bond_site_symmetry_2
C1 H1 1_555 1_555
C2 C1 1_555 1_555
H2 C2 1_555 1_555
C3 C2 1_555 1_555
C4 C3 1_555 1_555
H3 C4 1_555 1_555
C5 C4 1_555 1_555
H4 C5 1_555 1_555
N1 C1 1_555 1_555
O1 H5 1_555 1_555
H6 O1 1_555 1_555
O2 H7 1_555 1_555
H8 O2 1_555 1_555
Zn1 N1 1_555 1_555
C6 H9 1_555 1_555
C7 C6 1_555 1_555
H10 C7 1_555 1_555
C8 C7 1_555 1_555
C9 C8 1_555 1_555
H11 C9 1_555 1_555
C10 C9 1_555 1_555
H12 C10 1_555 1_555
C11 H13 1_555 1_555
C12 C11 1_555 1_555
H14 C12 1_555 1_555
C13 C12 1_555 1_555
C14 C13 1_555 1_555
H15 C14 1_555 1_555
C15 C14 1_555 1_555
H16 C15 1_555 1_555
C16 C17 1_555 1_555
C17 C18 1_555 1_555
C18 H17 1_555 1_555
C19 C18 1_555 1_555
H18 C19 1_555 1_555
C20 C19 1_555 1_555
C21 C20 1_555 1_555
C22 C20 1_555 1_555
C23 C17 1_555 1_555
H19 C23 1_555 1_555
N2 C6 1_555 1_555
N3 C11 1_555 1_555
O3 S1 1_555 1_555
O4 S1 1_555 1_555
O5 S1 1_555 1_555
O6 H20 1_555 1_555
H21 O6 1_555 1_555
O7 C16 1_555 1_555
O8 C16 1_555 1_555
O9 C21 1_555 1_555
O10 C21 1_555 1_555
S1 C22 1_555 1_555
Zn2 N2 1_555 1_555
C1A H1A 1_555 1_555
C2A C1A 1_555 1_555
H2A C2A 1_555 1_555
C3A C3 1_555 1_555
C4A C3A 1_555 1_555
H3A C4A 1_555 1_555
C5A C4A 1_555 1_555
H4A C5A 1_555 1_555
N1A C1A 1_555 1_555
O1A Zn1 1_555 1_555
H5A O1A 1_555 1_555
H6A O1A 1_555 1_555
O2A Zn1 1_555 1_555
H7A O2A 1_555 1_555
H8A O2A 1_555 1_555
N1A_2 Zn1 1_555 1_555
Zn1_2 N1A 1_555 1_555
C6A H9A 1_555 1_555
C7A C6A 1_555 1_555
H10A C7A 1_555 1_555
C8A C8 1_555 1_555
C9A C8A 1_555 1_555
H11A C9A 1_555 1_555
C10A C9A 1_555 1_555
H12A C10A 1_555 1_555
N2A C6A 1_555 1_555
C11A H13A 1_555 1_555
C12A C11A 1_555 1_555
H14A C12A 1_555 1_555
C13A C13 1_555 1_555
C14A C13A 1_555 1_555
H15A C14A 1_555 1_555
C15A C14A 1_555 1_555
H16A C15A 1_555 1_555
N3A C11A 1_555 1_555
C16A C17A 1_555 1_555
C17A C18A 1_555 1_555
C18A H17A 1_555 1_555
C19A C18A 1_555 1_555
H18A C19A 1_555 1_555
C20A C19A 1_555 1_555
C21A C20A 1_555 1_555
C22A C20A 1_555 1_555
C23A C17A 1_555 1_555
H19A C23A 1_555 1_555
O3A S1A 1_555 1_555
O4A S1A 1_555 1_555
O5A S1A 1_555 1_555
O6A H20A 1_555 1_555
H21A O6A 1_555 1_555
O7A C16A 1_555 1_555
O8A C16A 1_555 1_555
O9A C21A 1_555 1_555
O10A C21A 1_555 1_555
S1A C22A 1_555 1_555
Zn2A N2A 1_555 1_555
N3A_2 Zn2A 1_555 1_555
O9_2 Zn2 1_555 1_555
O9A_2 Zn2A 1_555 1_555
Zn2_2 O9 1_555 1_555
Zn2A_2 O9A 1_555 1_555
Zn2A_3 N3A 1_555 1_555
C5 N1 1_555 1_555
O1 Zn1 1_555 1_555
O2 Zn1 1_555 1_555
C10 N2 1_555 1_555
C15 N3 1_555 1_555
C22 C23 1_555 1_555
N3 Zn2 1_555 1_555
O6 Zn2 1_555 1_555
O7 Zn2 1_555 1_555
C2A C3A 1_555 1_555
C5A N1A 1_555 1_555
C7A C8A 1_555 1_555
C10A N2A 1_555 1_555
C12A C13A 1_555 1_555
C15A N3A 1_555 1_555
C22A C23A 1_555 1_555
O6A Zn2A 1_555 1_555
O7A Zn2A 1_555 1_555

#END
