
#######################################################################
#
#                 Cambridge Crystallographic Data Centre
#                                CCDC 
#
#######################################################################
#
# If this CIF has been generated from an entry in the Cambridge 
# Structural Database, then it will include bibliographic, chemical, 
# crystal, experimental, refinement or atomic coordinate data resulting 
# from the CCDC's data processing and validation procedures.
#
#######################################################################

data_NISDIE
_symmetry_cell_setting           monoclinic
_symmetry_space_group_name_H-M   'P 21/n'
_symmetry_Int_Tables_number      14
_space_group_name_Hall           '-P 2yn'
loop_
_symmetry_equiv_pos_site_id
_symmetry_equiv_pos_as_xyz
1 x,y,z
2 1/2-x,1/2+y,1/2-z
3 -x,-y,-z
4 1/2+x,1/2-y,1/2+z
_cell_length_a                   17.7190(3)
_cell_length_b                   13.8615(2)
_cell_length_c                   19.5725(3)
_cell_angle_alpha                90
_cell_angle_beta                 99.7760(10)
_cell_angle_gamma                90
_cell_volume                     4737.43
loop_
_atom_site_label
_atom_site_type_symbol
_atom_site_fract_x
_atom_site_fract_y
_atom_site_fract_z
C1 C 0.8060(2) 0.3695(3) 0.53287(19)
C2 C 0.8174(2) 0.4206(3) 0.60169(19)
C3 C 0.7582(2) 0.4460(3) 0.6373(2)
C4 C 0.7744(2) 0.4890(3) 0.7014(2)
H1 H 0.7342 0.5061 0.7240
C5 C 0.8497(2) 0.5076(3) 0.7334(2)
C6 C 0.8637(2) 0.5587(3) 0.8021(2)
C7 C 0.9094(2) 0.4812(3) 0.6990(2)
H2 H 0.9600 0.4911 0.7197
C8 C 0.8926(2) 0.4401(3) 0.6338(2)
H3 H 0.9326 0.4249 0.6105
C9 C 0.6989(2) 0.2406(4) 0.2852(2)
H4 H 0.7380 0.2168 0.2638
C10 C 0.6263(2) 0.2424(4) 0.2477(2)
H5 H 0.6173 0.2213 0.2020
C11 C 0.5658(2) 0.2759(3) 0.2786(2)
C12 C 0.5838(2) 0.3047(4) 0.3470(2)
H6 H 0.5453 0.3260 0.3703
C13 C 0.6589(2) 0.3020(4) 0.3809(2)
H7 H 0.6696 0.3226 0.4267
C14 C 0.4872(2) 0.2839(3) 0.2388(2)
C15 C 0.4743(2) 0.3135(3) 0.1708(2)
H8 H 0.5156 0.3285 0.1491
C16 C 0.4004(2) 0.3215(3) 0.1341(2)
H9 H 0.3933 0.3409 0.0880
C17 C 0.3513(2) 0.2741(4) 0.2293(2)
H10 H 0.3090 0.2604 0.2500
C18 C 0.4228(2) 0.2642(4) 0.2687(2)
H11 H 0.4282 0.2446 0.3148
C19 C 1.0084(2) 0.3664(3) 0.4608(2)
H12 H 0.9826 0.4198 0.4395
C20 C 1.0809(2) 0.3794(3) 0.4987(2)
H13 H 1.1026 0.4406 0.5036
C21 C 1.1210(2) 0.3003(3) 0.5291(2)
C22 C 1.0849(2) 0.2107(3) 0.5207(2)
H14 H 1.1097 0.1558 0.5404
C23 C 1.0117(2) 0.2046(3) 0.4824(2)
H15 H 0.9882 0.1444 0.4768
C24 C 1.1984(2) 0.3103(3) 0.5714(2)
C25 C 1.2207(2) 0.3954(3) 0.6072(2)
H16 H 1.1876 0.4479 0.6032
C26 C 1.2915(2) 0.4017(4) 0.6484(2)
H17 H 1.3052 0.4591 0.6718
C27 C 1.3218(2) 0.2486(4) 0.6198(2)
H18 H 1.3571 0.1984 0.6225
C28 C 1.2513(2) 0.2367(3) 0.5779(2)
H19 H 1.2397 0.1790 0.5542
C29 C 0.7810(2) 0.0890(3) 0.46941(19)
C30 C 0.7413(2) 0.0431(3) 0.40332(19)
C31 C 0.7774(2) 0.0164(3) 0.34730(19)
C32 C 0.7354(2) -0.0293(3) 0.29049(19)
H20 H 0.7599 -0.0480 0.2542
C33 C 0.6585(2) -0.0479(3) 0.28614(19)
C34 C 0.6192(2) -0.1096(3) 0.2267(2)
C35 C 0.6220(2) -0.0178(3) 0.3389(2)
H21 H 0.5696 -0.0274 0.3355
C36 C 0.6624(2) 0.0263(3) 0.3969(2)
H22 H 0.6368 0.0453 0.4324
C37 C 1.1004(2) 0.2634(4) 0.3278(3)
H23 H 1.0720 0.3189 0.3151
C38 C 1.1750(2) 0.2735(4) 0.3604(3)
H24 H 1.1958 0.3348 0.3688
C39 C 1.2195(2) 0.1931(3) 0.3808(2)
C40 C 1.1835(3) 0.1057(4) 0.3685(3)
H25 H 1.2099 0.0491 0.3824
C41 C 1.1082(3) 0.1013(4) 0.3354(3)
H26 H 1.0853 0.0410 0.3280
C42 C 1.3011(2) 0.2013(3) 0.4138(2)
C43 C 1.3367(3) 0.2889(4) 0.4325(3)
H27 H 1.3088 0.3459 0.4253
C44 C 1.4126(3) 0.2921(4) 0.4616(3)
H28 H 1.4345 0.3521 0.4732
C45 C 1.4224(3) 0.1304(4) 0.4566(3)
H29 H 1.4517 0.0746 0.4643
C46 C 1.3462(2) 0.1207(4) 0.4277(3)
H30 H 1.3254 0.0597 0.4177
Cd1 Cd 0.717596(15) 0.18848(2) 0.592407(14)
Cd2 Cd 0.844622(15) 0.27764(2) 0.406493(14)
Cd3 Cd 0.951508(16) 0.17574(3) 0.239090(15)
N1 N 0.71701(17) 0.2711(3) 0.35084(17)
N2 N 0.33889(17) 0.3020(3) 0.16332(16)
N3 N 0.97359(17) 0.2807(3) 0.45344(17)
N4 N 1.34178(18) 0.3282(3) 0.65632(17)
N5 N 1.06684(19) 0.1786(3) 0.3137(2)
N6 N 1.4567(2) 0.2145(3) 0.4742(2)
O1 O 0.76326(15) 0.2970(2) 0.52421(13)
O2 O 0.84186(15) 0.4002(2) 0.48756(14)
O3 O 0.64701(16) 0.3236(2) 0.61922(17)
O4 O 0.61810(16) 0.4883(2) 0.64192(18)
O5 O 0.64896(17) 0.4461(3) 0.52972(17)
O6 O 0.80555(16) 0.5943(3) 0.82106(15)
O7 O 0.93066(15) 0.5631(2) 0.83474(14)
O8 O 0.75249(14) 0.0713(2) 0.52319(13)
O9 O 0.83809(14) 0.1424(2) 0.46827(13)
O10 O 0.88231(14) 0.1429(2) 0.33117(13)
O11 O 0.89071(15) -0.0141(2) 0.28236(15)
O12 O 0.92270(15) 0.0039(2) 0.40658(14)
O13 O 0.64593(16) -0.1059(2) 0.17163(14)
O14 O 0.56548(15) -0.1624(2) 0.23809(15)
O15 O 0.59624(15) 0.1383(3) 0.53979(15)
H31 H 0.565(2) 0.183(3) 0.524(2)
H32 H 0.582(2) 0.114(3) 0.5760(16)
O16 O 1.01096(16) 0.2480(3) 0.15562(18)
H33 H 1.048(2) 0.212(3) 0.150(3)
H34 H 1.029(2) 0.3048(16) 0.162(3)
O17 O 0.9882(2) 0.0348(3) 0.1929(3)
H35 H 0.969(3) -0.015(3) 0.206(3)
H36 H 1.028(2) 0.024(4) 0.175(3)
S1 S 0.87688(5) 0.03705(8) 0.34365(5)
S2 S 0.65999(6) 0.42532(9) 0.60263(6)
Cd1A Cd 0.782404(15) 0.68848(2) 0.907593(14)
Cd1C Cd 0.217596(15) 0.31152(2) 0.092407(14)
Cd2A Cd 0.655378(15) -0.22236(2) 0.093507(14)
Cd3A Cd 0.548492(16) -0.32426(3) 0.260910(15)
Cd3C Cd 1.451508(16) 0.32426(3) 0.739090(15)
N2C N 0.83889(17) 0.1980(3) 0.66332(16)
N4C N 0.84178(18) 0.1718(3) 0.15632(17)
O6A O 0.69445(16) 0.0943(3) 0.67894(15)
O13A O 0.85407(16) 0.3941(2) 0.32837(14)
O14A O 0.93452(15) 0.3376(2) 0.26191(15)
loop_
_geom_bond_atom_site_label_1
_geom_bond_atom_site_label_2
_geom_bond_site_symmetry_1
_geom_bond_site_symmetry_2
C1 C2 1_555 1_555
C2 C3 1_555 1_555
C3 C4 1_555 1_555
C4 H1 1_555 1_555
C5 C4 1_555 1_555
C6 C5 1_555 1_555
C7 C5 1_555 1_555
H2 C7 1_555 1_555
C8 C2 1_555 1_555
H3 C8 1_555 1_555
C9 H4 1_555 1_555
C10 C9 1_555 1_555
H5 C10 1_555 1_555
C11 C10 1_555 1_555
C12 C11 1_555 1_555
H6 C12 1_555 1_555
C13 C12 1_555 1_555
H7 C13 1_555 1_555
C14 C11 1_555 1_555
C15 C14 1_555 1_555
H8 C15 1_555 1_555
C16 C15 1_555 1_555
H9 C16 1_555 1_555
C17 H10 1_555 1_555
C18 C14 1_555 1_555
H11 C18 1_555 1_555
C19 H12 1_555 1_555
C20 C19 1_555 1_555
H13 C20 1_555 1_555
C21 C20 1_555 1_555
C22 C21 1_555 1_555
H14 C22 1_555 1_555
C23 C22 1_555 1_555
H15 C23 1_555 1_555
C24 C21 1_555 1_555
C25 C24 1_555 1_555
H16 C25 1_555 1_555
C26 C25 1_555 1_555
H17 C26 1_555 1_555
C27 H18 1_555 1_555
C28 C24 1_555 1_555
H19 C28 1_555 1_555
C29 C30 1_555 1_555
C30 C31 1_555 1_555
C31 C32 1_555 1_555
C32 H20 1_555 1_555
C33 C32 1_555 1_555
C34 C33 1_555 1_555
C35 C33 1_555 1_555
H21 C35 1_555 1_555
C36 C30 1_555 1_555
H22 C36 1_555 1_555
C37 H23 1_555 1_555
C38 C37 1_555 1_555
H24 C38 1_555 1_555
C39 C38 1_555 1_555
C40 C39 1_555 1_555
H25 C40 1_555 1_555
C41 C40 1_555 1_555
H26 C41 1_555 1_555
C42 C39 1_555 1_555
C43 C42 1_555 1_555
H27 C43 1_555 1_555
C44 C43 1_555 1_555
H28 C44 1_555 1_555
C45 H29 1_555 1_555
C46 C42 1_555 1_555
H30 C46 1_555 1_555
Cd1 O1 1_555 1_555
Cd2 N1 1_555 1_555
Cd3 N5 1_555 1_555
N1 C9 1_555 1_555
N2 C16 1_555 1_555
N3 C19 1_555 1_555
N4 C26 1_555 1_555
N5 C37 1_555 1_555
N6 C44 1_555 1_555
O1 C1 1_555 1_555
O2 C1 1_555 1_555
O3 Cd1 1_555 1_555
O4 S2 1_555 1_555
O5 S2 1_555 1_555
O6 C6 1_555 1_555
O7 C6 1_555 1_555
O8 C29 1_555 1_555
O9 C29 1_555 1_555
O10 Cd2 1_555 1_555
O11 S1 1_555 1_555
O12 S1 1_555 1_555
O13 C34 1_555 1_555
O14 C34 1_555 1_555
O15 Cd1 1_555 1_555
H31 O15 1_555 1_555
H32 O15 1_555 1_555
O16 Cd3 1_555 1_555
H33 O16 1_555 1_555
H34 O16 1_555 1_555
O17 Cd3 1_555 1_555
H35 O17 1_555 1_555
H36 O17 1_555 1_555
S1 C31 1_555 1_555
S2 C3 1_555 1_555
Cd1A O6 1_555 1_555
Cd1C N2 1_555 1_555
Cd2A O13 1_555 1_555
Cd3A O14 1_555 1_555
Cd3C N4 1_555 1_555
N2C Cd1 1_555 1_555
N4C Cd3 1_555 1_555
O6A Cd1 1_555 1_555
O13A Cd2 1_555 1_555
O14A Cd3 1_555 1_555
C7 C8 1_555 1_555
C13 N1 1_555 1_555
C17 C18 1_555 1_555
C17 N2 1_555 1_555
C23 N3 1_555 1_555
C27 C28 1_555 1_555
C27 N4 1_555 1_555
C35 C36 1_555 1_555
C41 N5 1_555 1_555
C45 C46 1_555 1_555
C45 N6 1_555 1_555
Cd1 O8 1_555 1_555
Cd2 N3 1_555 1_555
Cd2 O2 1_555 1_555
Cd2 O9 1_555 1_555
Cd3 O10 1_555 1_555
O3 S2 1_555 1_555
O10 S1 1_555 1_555

#END
