
#######################################################################
#
#                 Cambridge Crystallographic Data Centre
#                                CCDC 
#
#######################################################################
#
# If this CIF has been generated from an entry in the Cambridge 
# Structural Database, then it will include bibliographic, chemical, 
# crystal, experimental, refinement or atomic coordinate data resulting 
# from the CCDC's data processing and validation procedures.
#
#######################################################################

data_NISQUC
_symmetry_cell_setting           triclinic
_symmetry_space_group_name_H-M   'P -1'
_symmetry_Int_Tables_number      2
_space_group_name_Hall           '-P 1'
loop_
_symmetry_equiv_pos_site_id
_symmetry_equiv_pos_as_xyz
1 x,y,z
2 -x,-y,-z
_cell_length_a                   8.3118(1)
_cell_length_b                   10.0115(1)
_cell_length_c                   16.5213(2)
_cell_angle_alpha                90.820(1)
_cell_angle_beta                 103.299(1)
_cell_angle_gamma                110.498(1)
_cell_volume                     1246.41
loop_
_atom_site_label
_atom_site_type_symbol
_atom_site_fract_x
_atom_site_fract_y
_atom_site_fract_z
Ag1 Ag 0.11412(12) -0.02080(11) 0.46511(6)
Ag2 Ag -0.16523(6) 0.33923(4) 0.00176(2)
Ag3 Ag 0.5000 0.0000 0.0000
C1 C 0.6249(5) 0.5442(4) 0.6398(2)
C2 C 0.6789(5) 0.4963(4) 0.7243(2)
C3 C 0.6060(6) 0.5178(5) 0.7890(3)
H1 H 0.5236 0.5628 0.7803
C4 C 0.6554(6) 0.4729(5) 0.8654(3)
H2 H 0.6039 0.4867 0.9077
C5 C 0.8456(5) 0.3875(4) 0.8189(2)
H3 H 0.9279 0.3425 0.8292
C6 C 0.8003(5) 0.4288(4) 0.7405(2)
H4 H 0.8510 0.4114 0.6987
C7 C 0.3947(4) -0.0386(4) 0.3742(2)
C8 C 0.4149(5) -0.0305(4) 0.2858(2)
C9 C 0.3414(6) 0.0469(5) 0.2315(2)
H5 H 0.2795 0.0983 0.2491
C10 C 0.3597(6) 0.0482(6) 0.1503(3)
H6 H 0.3046 0.0979 0.1135
C11 C 0.5288(6) -0.0910(4) 0.1767(3)
H7 H 0.5967 -0.1364 0.1589
C12 C 0.5111(5) -0.1016(4) 0.2572(2)
H8 H 0.5628 -0.1554 0.2921
C13 C -0.1451(5) 0.1694(5) 0.3760(2)
C14 C -0.1424(5) 0.2117(4) 0.2892(2)
C15 C -0.2297(6) 0.3004(5) 0.2543(3)
H9 H -0.2887 0.3371 0.2848
C16 C -0.2276(6) 0.3331(5) 0.1739(3)
H10 H -0.2839 0.3947 0.1517
C17 C -0.0649(6) 0.1960(5) 0.1600(3)
H11 H -0.0092 0.1589 0.1277
C18 C -0.0570(6) 0.1607(5) 0.2408(3)
H12 H 0.0054 0.1028 0.2625
C19 C 0.9660(5) 0.5384(4) 0.4633(2)
Eu1 Eu 0.60396(2) 0.291107(18) 0.483936(10)
N1 N 0.4532(5) -0.0188(4) 0.1225(2)
N2 N -0.1494(5) 0.2812(4) 0.1261(2)
N3 N 0.7753(5) 0.4097(4) 0.8814(2)
O5 O 0.6503(5) 0.4867(3) 0.57888(17)
O6 O 0.5576(4) 0.6384(3) 0.63613(18)
O7 O -0.2584(4) 0.1890(3) 0.40719(17)
O8 O -0.0398(6) 0.1144(6) 0.4098(2)
O9 O 0.3813(4) 0.0663(3) 0.40968(16)
O10 O 0.3911(4) -0.1522(3) 0.40460(16)
O11 O 0.8023(4) 0.4999(3) 0.43518(18)
O12 O 1.0810(4) 0.6347(3) 0.43786(17)
O13 O 0.3198(4) 0.2544(4) 0.5203(2)
O14 O -0.0960(12) -0.1968(8) 0.3439(6)
H13 H -0.0444 -0.1989 0.3074
H14 H 0.2301 0.2518 0.4859
H15 H 0.309(4) 0.286(6) 0.5641(11)
H16 H -0.189(4) -0.266(4) 0.329(2)
Ag1A Ag 0.88588(12) 0.02080(11) -0.46511(6)
Ag1A_2 Ag -0.11412(12) 0.02080(11) 0.53489(6)
Ag1_2 Ag 1.11412(12) -0.02080(11) -0.53489(6)
Ag2A Ag 0.16523(6) -0.33923(4) 0.99824(2)
Ag2_2 Ag 0.83477(6) 0.33923(4) 1.00176(2)
Ag2A_2 Ag 0.16523(6) 0.66077(4) -0.00176(2)
C1A C 0.3751(5) 0.4558(4) 0.3602(2)
C2A C 0.3211(5) 0.5037(4) 0.2757(2)
C3A C 0.3940(6) 0.4822(5) 0.2110(3)
H1A H 0.4764 0.4372 0.2197
C4A C 0.3446(6) 0.5271(5) 0.1346(3)
H2A H 0.3961 0.5133 0.0923
C5A C 0.1544(5) 0.6125(4) 0.1811(2)
H3A H 0.0721 0.6575 0.1708
C6A C 0.1997(5) 0.5712(4) 0.2595(2)
H4A H 0.1490 0.5886 0.3013
C7A C 0.6053(4) 0.0386(4) -0.3742(2)
C8A C 0.5851(5) 0.0305(4) -0.2858(2)
C9A C 0.6586(6) -0.0469(5) -0.2315(2)
H5A H 0.7205 -0.0983 -0.2491
C10A C 0.6403(6) -0.0482(6) -0.1503(3)
H6A H 0.6954 -0.0979 -0.1135
C11A C 0.4712(6) 0.0910(4) -0.1767(3)
H7A H 0.4033 0.1364 -0.1589
C12A C 0.4889(5) 0.1016(4) -0.2572(2)
H8A H 0.4372 0.1554 -0.2921
C13A C 0.1451(5) -0.1694(5) 0.6240(2)
C14A C 0.1424(5) -0.2117(4) 0.7108(2)
C15A C 0.2297(6) -0.3004(5) 0.7457(3)
H9A H 0.2887 -0.3371 0.7152
C16A C 0.2276(6) -0.3331(5) 0.8261(3)
H10A H 0.2839 -0.3947 0.8483
C17A C 0.0649(6) -0.1960(5) 0.8400(3)
H11A H 0.0092 -0.1589 0.8723
C18A C 0.0570(6) -0.1607(5) 0.7592(3)
H12A H -0.0054 -0.1028 0.7375
C19A C 1.0340(5) 0.4616(4) 0.5367(2)
Eu1A Eu 0.39604(2) -0.291107(18) -0.483936(10)
Eu1A_2 Eu 0.39604(2) 0.708893(18) 0.516064(10)
Eu1_2 Eu -0.39604(2) 0.291107(18) 0.483936(10)
Eu1A_3 Eu 0.39604(2) -0.291107(18) 0.516064(10)
Eu1A_4 Eu 1.39604(2) 0.708893(18) 0.516064(10)
Eu1_3 Eu 0.60396(2) 0.291107(18) -0.516064(10)
N1A N 0.5468(5) 0.0188(4) -0.1225(2)
N2A N 0.1494(5) -0.2812(4) 0.8739(2)
N3A N 0.2247(5) 0.5903(4) 0.1186(2)
N3_2 N -0.2247(5) 0.4097(4) -0.1186(2)
N3A_2 N 0.2247(5) -0.4097(4) 1.1186(2)
O5A O 0.3497(5) 0.5133(3) 0.42112(17)
O5A_2 O 0.3497(5) -0.4867(3) -0.57888(17)
O6A O 0.4424(4) 0.3616(3) 0.36387(18)
O6_2 O 0.5576(4) -0.3616(3) -0.36387(18)
O7A O 0.2584(4) -0.1890(3) 0.59281(17)
O7_2 O 0.7416(4) 0.1890(3) 0.40719(17)
O7A_2 O 0.2584(4) -0.1890(3) -0.40719(17)
O8A O 0.0398(6) -0.1144(6) 0.5902(2)
O8_2 O 0.9602(6) 0.1144(6) -0.5902(2)
O8A_2 O 1.0398(6) -0.1144(6) -0.4098(2)
O9A O 0.6187(4) -0.0663(3) -0.40968(16)
O10A O 0.6089(4) 0.1522(3) -0.40460(16)
O10A_2 O 0.6089(4) 0.1522(3) 0.59540(16)
O10_2 O 0.3911(4) -0.1522(3) -0.59540(16)
O11A O 1.1977(4) 0.5001(3) 0.56482(18)
O11A_2 O 0.1977(4) -0.4999(3) -0.43518(18)
O12A O 0.9190(4) 0.3653(3) 0.56214(17)
O12_2 O 0.0810(4) -0.3653(3) -0.56214(17)
O13A O 0.6802(4) -0.2544(4) -0.5203(2)
O14A O 1.0960(12) 0.1968(8) -0.3439(6)
H13A H 1.0444 0.1989 -0.3074
H14A H 0.7699 -0.2518 -0.4859
H15A H 0.691(4) -0.286(6) -0.5641(11)
H16A H 1.189(4) 0.266(4) -0.329(2)
Cl1 Cl 0.78942(17) 0.74858(14) 0.05350(8)
O1 O 0.6246(6) 0.7582(6) 0.0133(3)
O2 O 0.9065(7) 0.7788(8) 0.0008(3)
O3 O 0.8669(7) 0.8308(7) 0.1313(3)
O4 O 0.7575(8) 0.6022(5) 0.0697(4)
loop_
_geom_bond_atom_site_label_1
_geom_bond_atom_site_label_2
_geom_bond_site_symmetry_1
_geom_bond_site_symmetry_2
Cl1 O1 1_555 1_555
O2 Cl1 1_555 1_555
O3 Cl1 1_555 1_555
O4 Cl1 1_555 1_555
Ag1 O8 1_555 1_555
Ag2 N2 1_555 1_555
Ag3 N1 1_555 1_555
C1 C2 1_555 1_555
C2 C3 1_555 1_555
C3 H1 1_555 1_555
C4 C3 1_555 1_555
H2 C4 1_555 1_555
C5 H3 1_555 1_555
C6 C2 1_555 1_555
H4 C6 1_555 1_555
C7 C8 1_555 1_555
C8 C9 1_555 1_555
C9 H5 1_555 1_555
C10 C9 1_555 1_555
H6 C10 1_555 1_555
C11 H7 1_555 1_555
C12 C8 1_555 1_555
H8 C12 1_555 1_555
C13 C14 1_555 1_555
C14 C15 1_555 1_555
C15 H9 1_555 1_555
C16 C15 1_555 1_555
H10 C16 1_555 1_555
C17 H11 1_555 1_555
C18 C14 1_555 1_555
H12 C18 1_555 1_555
C19 O11 1_555 1_555
Eu1 O5 1_555 1_555
N1 C10 1_555 1_555
N2 C16 1_555 1_555
N3 C4 1_555 1_555
O5 C1 1_555 1_555
O6 C1 1_555 1_555
O7 C13 1_555 1_555
O8 C13 1_555 1_555
O9 Ag1 1_555 1_555
O10 C7 1_555 1_555
O11 Eu1 1_555 1_555
O12 C19 1_555 1_555
O13 Eu1 1_555 1_555
O14 Ag1 1_555 1_555
H13 O14 1_555 1_555
H14 O13 1_555 1_555
H15 O13 1_555 1_555
H16 O14 1_555 1_555
Ag1A Ag1_2 1_555 1_555
Ag1A_2 Ag1 1_555 1_555
Ag1_2 O8_2 1_555 1_555
Ag2A N2A 1_555 1_555
Ag2_2 N3 1_555 1_555
Ag2A_2 N3A 1_555 1_555
C1A C2A 1_555 1_555
C2A C3A 1_555 1_555
C3A H1A 1_555 1_555
C4A C3A 1_555 1_555
H2A C4A 1_555 1_555
C5A H3A 1_555 1_555
C6A C2A 1_555 1_555
H4A C6A 1_555 1_555
C7A C8A 1_555 1_555
C8A C9A 1_555 1_555
C9A H5A 1_555 1_555
C10A C9A 1_555 1_555
H6A C10A 1_555 1_555
C11A H7A 1_555 1_555
C12A C8A 1_555 1_555
H8A C12A 1_555 1_555
C13A C14A 1_555 1_555
C14A C15A 1_555 1_555
C15A H9A 1_555 1_555
C16A C15A 1_555 1_555
H10A C16A 1_555 1_555
C17A H11A 1_555 1_555
C18A C14A 1_555 1_555
H12A C18A 1_555 1_555
C19A C19 1_555 1_555
Eu1A O5A_2 1_555 1_555
Eu1A_2 O6 1_555 1_555
Eu1_2 O7 1_555 1_555
Eu1A_3 O10 1_555 1_555
Eu1A_4 O12 1_555 1_555
Eu1_3 O10A 1_555 1_555
N1A Ag3 1_555 1_555
N2A C16A 1_555 1_555
N3A C4A 1_555 1_555
N3_2 Ag2 1_555 1_555
N3A_2 Ag2A 1_555 1_555
O5A C1A 1_555 1_555
O6A Eu1 1_555 1_555
O6_2 Eu1A 1_555 1_555
O7A C13A 1_555 1_555
O7_2 Eu1 1_555 1_555
O7A_2 Eu1A 1_555 1_555
O8A Ag1 1_555 1_555
O8_2 Ag1A 1_555 1_555
O8A_2 Ag1A 1_555 1_555
O9A Ag1A 1_555 1_555
O10A C7A 1_555 1_555
O10A_2 Eu1 1_555 1_555
O10_2 Eu1A 1_555 1_555
O11A C19A 1_555 1_555
O11A_2 Eu1A 1_555 1_555
O12A Eu1 1_555 1_555
O12_2 Eu1A 1_555 1_555
O13A Eu1A 1_555 1_555
O14A Ag1A 1_555 1_555
H13A O14A 1_555 1_555
H14A O13A 1_555 1_555
H15A O13A 1_555 1_555
H16A O14A 1_555 1_555
C5 C6 1_555 1_555
C5 N3 1_555 1_555
C7 O9 1_555 1_555
C11 C12 1_555 1_555
C11 N1 1_555 1_555
C17 C18 1_555 1_555
C17 N2 1_555 1_555
Eu1 O9 1_555 1_555
O8 Ag1A_2 1_555 1_555
Ag1A_2 O8A 1_555 1_555
Ag1_2 O8A_2 1_555 1_555
C1A O6A 1_555 1_555
C5A C6A 1_555 1_555
C5A N3A 1_555 1_555
C7A O9A 1_555 1_555
C10A N1A 1_555 1_555
C11A C12A 1_555 1_555
C11A N1A 1_555 1_555
C13A O8A 1_555 1_555
C17A C18A 1_555 1_555
C17A N2A 1_555 1_555
C19A O12A 1_555 1_555
Eu1A O9A 1_555 1_555
Eu1A_2 O5A 1_555 1_555
Eu1A_3 O7A 1_555 1_555
Eu1A_4 O11A 1_555 1_555

#END
