
#######################################################################
#
#                 Cambridge Crystallographic Data Centre
#                                CCDC 
#
#######################################################################
#
# If this CIF has been generated from an entry in the Cambridge 
# Structural Database, then it will include bibliographic, chemical, 
# crystal, experimental, refinement or atomic coordinate data resulting 
# from the CCDC's data processing and validation procedures.
#
#######################################################################

data_NISQOW
_symmetry_cell_setting           triclinic
_symmetry_space_group_name_H-M   'P -1'
_symmetry_Int_Tables_number      2
_space_group_name_Hall           '-P 1'
loop_
_symmetry_equiv_pos_site_id
_symmetry_equiv_pos_as_xyz
1 x,y,z
2 -x,-y,-z
_cell_length_a                   8.3173(3)
_cell_length_b                   10.0725(4)
_cell_length_c                   16.622(2)
_cell_angle_alpha                91.248(2)
_cell_angle_beta                 102.677(2)
_cell_angle_gamma                110.576(2)
_cell_volume                     1264.43
loop_
_atom_site_label
_atom_site_type_symbol
_atom_site_fract_x
_atom_site_fract_y
_atom_site_fract_z
Nd1 Nd 0.59842(10) 0.79027(7) 0.48284(4)
Ag1 Ag 0.83306(19) 0.84189(15) 1.00034(7)
Ag2 Ag 0.5000 0.5000 1.0000
Ag3 Ag 0.1039(7) 0.4701(6) 0.4637(3)
O5 O 0.6408(17) 0.9847(11) 0.5816(6)
O6 O 0.4400(13) 0.8591(10) 0.3587(6)
O7 O 0.6039(14) 0.6520(9) 0.5970(6)
O8 O 0.3786(13) 0.5632(9) 0.4072(6)
O9 O 0.7425(14) 0.6903(11) 0.4039(6)
O10 O 0.032(2) 0.377(2) 0.5948(8)
O11 O 0.8058(14) 1.0039(11) 0.4364(7)
O12 O 0.9177(13) 0.8642(10) 0.5601(6)
O13 O 0.3038(14) 0.7486(11) 0.5146(7)
H1 H 0.2569 0.8000 0.4897
H2 H 0.3160 0.7658 0.5645
N1 N 0.7757(17) 0.9105(13) 0.8809(7)
N2 N 0.5471(18) 0.5198(13) 0.8785(7)
N3 N 0.8475(17) 0.7838(14) 1.1238(7)
C1 C 0.6235(18) 1.0461(13) 0.6436(8)
C2 C 0.6780(17) 0.9992(13) 0.7256(8)
C3 C 0.611(2) 1.0201(18) 0.7910(10)
H3 H 0.5296 1.0658 0.7828
C4 C 0.655(2) 0.9777(19) 0.8673(11)
H4 H 0.6055 0.9941 0.9096
C5 C 0.845(2) 0.8897(15) 0.8184(9)
H5 H 0.9292 0.8469 0.8278
C6 C 0.7960(19) 0.9299(15) 0.7399(9)
H6 H 0.8429 0.9101 0.6972
C7 C 0.6028(16) 0.5405(13) 0.6283(8)
C8 C 0.5827(17) 0.5314(12) 0.7137(8)
C9 C 0.4842(19) 0.6020(14) 0.7430(9)
H7 H 0.4309 0.6546 0.7089
C10 C 0.469(2) 0.5905(15) 0.8246(10)
H8 H 0.4009 0.6345 0.8433
C11 C 0.641(2) 0.4536(19) 0.8500(10)
H9 H 0.6978 0.4056 0.8859
C12 C 0.655(2) 0.4546(17) 0.7679(9)
H10 H 0.7154 0.4024 0.7494
C13 C 0.855(2) 0.6691(17) 0.3727(10)
C14 C 0.8546(18) 0.7140(15) 0.2842(9)
C15 C 0.769(2) 0.7997(16) 0.2508(9)
H11 H 0.7093 0.8346 0.2820
C16 C 0.769(2) 0.8347(18) 1.1732(10)
H12 H 0.7129 0.8966 1.1528
C17 C 0.933(2) 0.6999(17) 1.1569(10)
H13 H 0.9906 0.6649 1.1246
C18 C 0.939(2) 0.6635(17) 0.2360(10)
H14 H 1.0005 0.6052 0.2569
C19 C 0.9688(19) 1.0402(14) 0.4633(8)
O14 O -0.125(6) 0.279(4) 0.342(2)
H15 H -0.0246 0.2899 0.3191
H16 H -0.2411 0.2163 0.3077
Ag3A Ag -0.1039(7) 0.5299(6) 0.5363(3)
O6A O 0.5600(13) 1.1409(10) 0.6413(6)
O8A O 0.6214(13) 0.4368(9) 0.5928(6)
O10A O -0.032(2) 0.623(2) 0.4052(8)
O10A_2 O 0.968(2) 0.623(2) 0.4052(8)
O12A O 1.0823(13) 1.1358(10) 0.4399(6)
N2A N 0.4529(18) 0.4802(13) 1.1215(7)
C1A C 0.3765(18) 0.9539(13) 0.3564(8)
C7A C 0.3972(16) 0.4595(13) 0.3717(8)
C13A C 0.145(2) 0.3309(17) 0.6273(10)
C15_2 C 0.769(2) 0.7997(16) 1.2508(9)
C16_2 C 0.769(2) 0.8347(18) 0.1732(10)
C17_2 C 0.933(2) 0.6999(17) 0.1569(10)
C18_2 C 0.939(2) 0.6635(17) 1.2360(10)
C19A C 1.0312(19) 0.9598(14) 0.5367(8)
Cl1 Cl 0.7937(6) 0.2510(5) 0.0544(3)
O1 O 0.754(3) 0.1050(13) 0.0684(15)
O2 O 0.872(3) 0.334(3) 0.1337(10)
O3 O 0.6263(18) 0.256(2) 0.0099(10)
O4 O 0.911(3) 0.275(3) 0.0018(14)
loop_
_geom_bond_atom_site_label_1
_geom_bond_atom_site_label_2
_geom_bond_site_symmetry_1
_geom_bond_site_symmetry_2
Cl1 O1 1_555 1_555
O2 Cl1 1_555 1_555
O3 Cl1 1_555 1_555
O4 Cl1 1_555 1_555
Nd1 O5 1_555 1_555
Ag1 N1 1_555 1_555
Ag2 N2 1_555 1_555
Ag3 O8 1_555 1_555
O5 C1 1_555 1_555
O6 Nd1 1_555 1_555
O7 Nd1 1_555 1_555
O8 Nd1 1_555 1_555
O9 Nd1 1_555 1_555
O10 Ag3 1_555 1_555
O11 Nd1 1_555 1_555
O12 Nd1 1_555 1_555
O13 Nd1 1_555 1_555
H1 O13 1_555 1_555
H2 O13 1_555 1_555
N1 C4 1_555 1_555
N2 C10 1_555 1_555
N3 Ag1 1_555 1_555
C1 C2 1_555 1_555
C2 C3 1_555 1_555
C3 H3 1_555 1_555
C4 C3 1_555 1_555
H4 C4 1_555 1_555
C5 N1 1_555 1_555
H5 C5 1_555 1_555
C6 C2 1_555 1_555
H6 C6 1_555 1_555
C7 O7 1_555 1_555
C8 C7 1_555 1_555
C9 C8 1_555 1_555
H7 C9 1_555 1_555
C10 C9 1_555 1_555
H8 C10 1_555 1_555
C11 N2 1_555 1_555
H9 C11 1_555 1_555
C12 C8 1_555 1_555
H10 C12 1_555 1_555
C13 O9 1_555 1_555
C14 C13 1_555 1_555
C15 C14 1_555 1_555
H11 C15 1_555 1_555
C16 N3 1_555 1_555
H12 C16 1_555 1_555
C17 N3 1_555 1_555
H13 C17 1_555 1_555
C18 C14 1_555 1_555
H14 C18 1_555 1_555
C19 O11 1_555 1_555
O14 Ag3 1_555 1_555
H15 O14 1_555 1_555
H16 O14 1_555 1_555
Ag3A Ag3 1_555 1_555
O6A C1 1_555 1_555
O8A C7 1_555 1_555
O10A Ag3 1_555 1_555
O10A_2 C13 1_555 1_555
O12A C19 1_555 1_555
N2A Ag2 1_555 1_555
C1A O6 1_555 1_555
C7A O8 1_555 1_555
C13A O10 1_555 1_555
C15_2 C16 1_555 1_555
C16_2 C15 1_555 1_555
C17_2 C18 1_555 1_555
C18_2 C17 1_555 1_555
C19A O12 1_555 1_555
O10 Ag3A 1_555 1_555
C5 C6 1_555 1_555
C11 C12 1_555 1_555
C19 C19A 1_555 1_555
Ag3A O10A 1_555 1_555

#END
