
#######################################################################
#
#                 Cambridge Crystallographic Data Centre
#                                CCDC 
#
#######################################################################
#
# If this CIF has been generated from an entry in the Cambridge 
# Structural Database, then it will include bibliographic, chemical, 
# crystal, experimental, refinement or atomic coordinate data resulting 
# from the CCDC's data processing and validation procedures.
#
#######################################################################

data_NISYAR
_symmetry_cell_setting           monoclinic
_symmetry_space_group_name_H-M   'P 2/c'
_symmetry_Int_Tables_number      13
_space_group_name_Hall           '-P 2yc'
loop_
_symmetry_equiv_pos_site_id
_symmetry_equiv_pos_as_xyz
1 x,y,z
2 -x,y,1/2-z
3 -x,-y,-z
4 x,-y,1/2+z
_cell_length_a                   4.266(5)
_cell_length_b                   12.434(5)
_cell_length_c                   35.955(5)
_cell_angle_alpha                90
_cell_angle_beta                 91.706(5)
_cell_angle_gamma                90
_cell_volume                     1906.33
loop_
_atom_site_label
_atom_site_type_symbol
_atom_site_fract_x
_atom_site_fract_y
_atom_site_fract_z
Ag1 Ag 0.0000 0.86923(4) 0.25000
Br1 Br -0.5 0.74108(6) 0.25000
O1 O 0.2072(7) 1.1245(2) 0.08027(8)
O2 O 0.0932(8) 0.7631(2) 0.12679(9)
N1 N -0.1591(8) 1.1103(3) 0.22599(9)
C1 C 0.0000 1.0422(5) 0.25000
C2 C 0.1544(10) 0.9393(4) 0.10378(11)
H1 H 0.2705 0.9108 0.0846
C3 C -0.1877(9) 1.0260(4) 0.16232(11)
C4 C 0.4342(10) 1.1774(4) 0.02234(11)
C5 C 0.0288(11) 0.8714(3) 0.13097(12)
C6 C 0.1021(10) 1.0500(3) 0.10594(11)
C7 C 0.0804(11) 0.5770(4) 0.14663(13)
C8 C 0.3719(13) 1.0842(4) 0.04860(12)
C9 C -0.1474(10) 0.9137(4) 0.16018(11)
H2 H -0.235 0.8684 0.1776
C10 C -0.0983(12) 1.2163(4) 0.23486(14)
C11 C -0.0649(10) 1.0939(4) 0.13530(11)
H3 H -0.0939 1.1679 0.1368
C12 C 0.6131(12) 1.2657(4) 0.03502(14)
H4 H 0.694 1.2674 0.0593
C13 C 0.3156(12) 1.1756(4) -0.01423(12)
H5 H 0.1959 1.1174 -0.0225
C14 C 0.0556(13) 0.5293(4) 0.11180(15)
H6 H -0.0404 0.567 0.0922
C15 C -0.0436(14) 0.6890(4) 0.15380(15)
C16 C 0.6681(13) 1.3510(5) 0.01065(16)
H7 H 0.7856 1.4097 0.0189
C17 C 0.2204(15) 0.5194(4) 0.17548(16)
H8 H 0.2389 0.5497 0.1991
C18 C 0.3130(13) 0.3697(4) 0.1342(2)
H9 H 0.3939 0.3013 0.1302
C19 C 0.5493(13) 1.3490(5) -0.02581(15)
H10 H 0.586 1.4064 -0.0417
C20 C 0.1715(13) 0.4257(5) 0.10531(17)
H11 H 0.1528 0.3951 0.0817
C21 C 0.3748(15) 1.2606(5) -0.03858(14)
H12 H 0.2986 1.2582 -0.0631
C22 C 0.3347(16) 0.4153(6) 0.1692(2)
H13 H 0.426 0.3766 0.1889
C23 C -0.3678(11) 1.0705(4) 0.19467(12)
H14 H -0.475(12) 1.123(4) 0.1898(14)
H15 H -0.518(10) 1.011(4) 0.2069(12)
H16 H 0.582(11) 1.049(4) 0.0566(12)
H17 H -0.266(12) 0.695(4) 0.1496(13)
H18 H 0.243(13) 1.037(5) 0.0369(16)
H19 H -0.167(11) 1.270(4) 0.2219(13)
H20 H -0.009(14) 0.704(5) 0.1800(18)
O1A O -0.2072(7) 1.1245(2) 0.41973(8)
O2A O -0.0932(8) 0.7631(2) 0.37321(9)
N1A N 0.1591(8) 1.1103(3) 0.27401(9)
C2A C -0.1544(10) 0.9393(4) 0.39622(11)
H1A H -0.2705 0.9108 0.4154
C3A C 0.1877(9) 1.0260(4) 0.33768(11)
C4A C -0.4342(10) 1.1774(4) 0.47766(11)
C5A C -0.0288(11) 0.8714(3) 0.36903(12)
C6A C -0.1021(10) 1.0500(3) 0.39406(11)
C7A C -0.0804(11) 0.5770(4) 0.35337(13)
C8A C -0.3719(13) 1.0842(4) 0.45140(12)
C9A C 0.1474(10) 0.9137(4) 0.33982(11)
H2A H 0.235 0.8684 0.3224
C10A C 0.0983(12) 1.2163(4) 0.26514(14)
C11A C 0.0649(10) 1.0939(4) 0.36470(11)
H3A H 0.0939 1.1679 0.3632
C12A C -0.6131(12) 1.2657(4) 0.46498(14)
H4A H -0.694 1.2674 0.4407
C13A C -0.3156(12) 1.1756(4) 0.51423(12)
H5A H -0.1959 1.1174 0.5225
C14A C -0.0556(13) 0.5293(4) 0.38820(15)
H6A H 0.0404 0.567 0.4078
C15A C 0.0436(14) 0.6890(4) 0.34620(15)
C16A C -0.6681(13) 1.3510(5) 0.48935(16)
H7A H -0.7856 1.4097 0.4811
C17A C -0.2204(15) 0.5194(4) 0.32452(16)
H8A H -0.2389 0.5497 0.3009
C18A C -0.3130(13) 0.3697(4) 0.3658(2)
H9A H -0.3939 0.3013 0.3698
C19A C -0.5493(13) 1.3490(5) 0.52581(15)
H10A H -0.586 1.4064 0.5417
C20A C -0.1715(13) 0.4257(5) 0.39469(17)
H11A H -0.1528 0.3951 0.4183
C21A C -0.3748(15) 1.2606(5) 0.53858(14)
H12A H -0.2986 1.2582 0.5631
C22A C -0.3347(16) 0.4153(6) 0.3308(2)
H13A H -0.426 0.3766 0.3111
C23A C 0.3678(11) 1.0705(4) 0.30533(12)
H14A H 0.475(12) 1.123(4) 0.3102(14)
H15A H 0.518(10) 1.011(4) 0.2931(12)
H16A H -0.582(11) 1.049(4) 0.4434(12)
H17A H 0.266(12) 0.695(4) 0.3504(13)
H18A H -0.243(13) 1.037(5) 0.4631(16)
H19A H 0.167(11) 1.270(4) 0.2781(13)
H20A H 0.009(14) 0.704(5) 0.3200(18)
Ag1_2 Ag -1.0000 0.86923(4) 0.25000
Br1_2 Br 0.5 0.74108(6) 0.25000
loop_
_geom_bond_atom_site_label_1
_geom_bond_atom_site_label_2
_geom_bond_site_symmetry_1
_geom_bond_site_symmetry_2
Ag1 Br1 1_555 1_555
Br1 Ag1_2 1_555 1_555
O1 C6 1_555 1_555
O2 C5 1_555 1_555
N1 C1 1_555 1_555
C1 Ag1 1_555 1_555
C2 H1 1_555 1_555
C3 C9 1_555 1_555
C4 C8 1_555 1_555
C5 C2 1_555 1_555
C6 C2 1_555 1_555
C7 C14 1_555 1_555
C8 O1 1_555 1_555
C9 C5 1_555 1_555
H2 C9 1_555 1_555
C10 N1 1_555 1_555
C11 C3 1_555 1_555
H3 C11 1_555 1_555
C12 C4 1_555 1_555
H4 C12 1_555 1_555
C13 C4 1_555 1_555
H5 C13 1_555 1_555
C14 H6 1_555 1_555
C15 O2 1_555 1_555
C16 C12 1_555 1_555
H7 C16 1_555 1_555
C17 C7 1_555 1_555
H8 C17 1_555 1_555
C18 H9 1_555 1_555
C19 C16 1_555 1_555
H10 C19 1_555 1_555
C20 C14 1_555 1_555
H11 C20 1_555 1_555
C21 C13 1_555 1_555
H12 C21 1_555 1_555
C22 C17 1_555 1_555
H13 C22 1_555 1_555
C23 N1 1_555 1_555
H14 C23 1_555 1_555
H15 C23 1_555 1_555
H16 C8 1_555 1_555
H17 C15 1_555 1_555
H18 C8 1_555 1_555
H19 C10 1_555 1_555
H20 C15 1_555 1_555
O1A C6A 1_555 1_555
O2A C5A 1_555 1_555
N1A C1 1_555 1_555
C2A H1A 1_555 1_555
C3A C9A 1_555 1_555
C4A C8A 1_555 1_555
C5A C2A 1_555 1_555
C6A C2A 1_555 1_555
C7A C14A 1_555 1_555
C8A O1A 1_555 1_555
C9A C5A 1_555 1_555
H2A C9A 1_555 1_555
C10A C10 1_555 1_555
C11A C3A 1_555 1_555
H3A C11A 1_555 1_555
C12A C4A 1_555 1_555
H4A C12A 1_555 1_555
C13A C4A 1_555 1_555
H5A C13A 1_555 1_555
C14A H6A 1_555 1_555
C15A O2A 1_555 1_555
C16A C12A 1_555 1_555
H7A C16A 1_555 1_555
C17A C7A 1_555 1_555
H8A C17A 1_555 1_555
C18A H9A 1_555 1_555
C19A C16A 1_555 1_555
H10A C19A 1_555 1_555
C20A C14A 1_555 1_555
H11A C20A 1_555 1_555
C21A C13A 1_555 1_555
H12A C21A 1_555 1_555
C22A C17A 1_555 1_555
H13A C22A 1_555 1_555
C23A N1A 1_555 1_555
H14A C23A 1_555 1_555
H15A C23A 1_555 1_555
H16A C8A 1_555 1_555
H17A C15A 1_555 1_555
H18A C8A 1_555 1_555
H19A C10A 1_555 1_555
H20A C15A 1_555 1_555
Br1_2 Ag1 1_555 1_555
C3 C23 1_555 1_555
C6 C11 1_555 1_555
C7 C15 1_555 1_555
C18 C20 1_555 1_555
C18 C22 1_555 1_555
C19 C21 1_555 1_555
N1A C10A 1_555 1_555
C3A C23A 1_555 1_555
C6A C11A 1_555 1_555
C7A C15A 1_555 1_555
C18A C20A 1_555 1_555
C18A C22A 1_555 1_555
C19A C21A 1_555 1_555

#END
