
#######################################################################
#
#                 Cambridge Crystallographic Data Centre
#                                CCDC 
#
#######################################################################
#
# If this CIF has been generated from an entry in the Cambridge 
# Structural Database, then it will include bibliographic, chemical, 
# crystal, experimental, refinement or atomic coordinate data resulting 
# from the CCDC's data processing and validation procedures.
#
#######################################################################

data_NISYUJ
_symmetry_cell_setting           monoclinic
_symmetry_space_group_name_H-M   'P 21/n'
_symmetry_Int_Tables_number      14
_space_group_name_Hall           '-P 2yn'
loop_
_symmetry_equiv_pos_site_id
_symmetry_equiv_pos_as_xyz
1 x,y,z
2 1/2-x,1/2+y,1/2-z
3 -x,-y,-z
4 1/2+x,1/2-y,1/2+z
_cell_length_a                   10.0516(3)
_cell_length_b                   16.2988(5)
_cell_length_c                   15.8084(5)
_cell_angle_alpha                90
_cell_angle_beta                 100.0740(10)
_cell_angle_gamma                90
_cell_volume                     2549.95
loop_
_atom_site_label
_atom_site_type_symbol
_atom_site_fract_x
_atom_site_fract_y
_atom_site_fract_z
O1 O 0.8627(5) 0.1300(4) 0.9163(4)
O2 O 0.7761(6) 0.0596(4) 0.7610(4)
O3 O 0.5938(5) 0.1420(3) 0.8487(3)
O4 O 0.8010(5) -0.0343(3) 0.9160(3)
O5 O 0.8839(6) 0.0100(4) 1.0879(4)
O6 O 0.8490(5) -0.1509(3) 1.0466(3)
O7 O 0.6142(5) 0.0425(3) 0.9851(3)
O8 O 0.6429(5) -0.0598(3) 1.1113(3)
O9 O 0.5584(6) -0.0169(3) 0.8206(3)
O10 O 0.5786(5) -0.1217(3) 0.9606(3)
O11 O 0.3365(6) -0.1070(4) 0.8388(4)
O12 O 0.3854(6) 0.2333(4) 0.8963(4)
O13 O 0.6226(6) 0.2256(4) 1.0048(4)
N1 N 0.9758(7) 0.2637(4) 1.0355(4)
N2 N 1.1030(7) 0.3343(4) 0.9237(4)
N3 N 0.9899(7) 0.2065(4) 0.7842(4)
N4 N 0.8218(7) 0.2966(4) 0.8542(4)
C1 C 0.9025(9) 0.2252(6) 1.0866(6)
C2 C 0.8740(9) 0.2611(6) 1.1609(5)
C3 C 0.9213(9) 0.3384(7) 1.1823(6)
C4 C 1.0033(9) 0.3778(6) 1.1327(5)
C5 C 1.0273(8) 0.3382(5) 1.0589(5)
C6 C 1.1082(8) 0.3760(5) 0.9985(5)
C7 C 1.1816(10) 0.4467(5) 1.0158(6)
C8 C 1.2491(11) 0.4780(6) 0.9534(7)
C9 C 1.2447(10) 0.4364(6) 0.8773(6)
C10 C 1.1703(8) 0.3651(5) 0.8655(6)
C11 C 1.0770(10) 0.1570(6) 0.7536(6)
C12 C 1.0619(12) 0.1391(7) 0.6661(6)
C13 C 0.9594(11) 0.1721(6) 0.6101(6)
C14 C 0.8700(10) 0.2234(6) 0.6408(6)
C15 C 0.8878(9) 0.2396(5) 0.7281(5)
C16 C 0.7957(8) 0.2933(5) 0.7676(5)
C17 C 0.6900(10) 0.3350(6) 0.7189(6)
C18 C 0.6064(10) 0.3839(6) 0.7603(7)
C19 C 0.6306(10) 0.3864(6) 0.8493(7)
C20 C 0.7394(9) 0.3431(5) 0.8927(6)
H1 H 0.8697(9) 0.1728(6) 1.0718(6)
H2 H 0.8235(9) 0.2331(6) 1.1956(5)
H3 H 0.8986(9) 0.3647(7) 1.2301(6)
H4 H 1.0409(9) 0.4289(6) 1.1483(5)
H5 H 1.1861(10) 0.4732(5) 1.0683(6)
H6 H 1.2971(11) 0.5269(6) 0.9629(7)
H7 H 1.2906(10) 0.4557(6) 0.8352(6)
H8 H 1.1669(8) 0.3369(5) 0.8141(6)
H9 H 1.1489(10) 0.1343(6) 0.7913(6)
H10 H 1.1229(12) 0.1041(7) 0.6464(6)
H11 H 0.9492(11) 0.1604(6) 0.5517(6)
H12 H 0.7985(10) 0.2470(6) 0.6034(6)
H13 H 0.6743(10) 0.3307(6) 0.6593(6)
H14 H 0.5362(10) 0.4141(6) 0.7288(7)
H15 H 0.5750(10) 0.4164(6) 0.8790(7)
H16 H 0.7568(9) 0.3462(5) 0.9524(6)
Mo1 Mo 0.7394(1) 0.0659(1) 0.8611(1)
Mo2 Mo 0.7738(1) -0.0552(1) 1.0293(1)
Mo3 Mo 0.4548(1) -0.0444(1) 0.8942(1)
Mo4 Mo 0.5055(1) 0.1666(1) 0.9431(1)
Ni1 Ni 0.9880(1) 0.2292(1) 0.9118(1)
Ni1B Ni 1.0120(1) -0.2292(1) 1.0882(1)
Mo3B Mo 0.5452(1) 0.0444(1) 1.1058(1)
Mo4B Mo 0.4945(1) -0.1666(1) 1.0569(1)
O7B O 0.3858(5) -0.0425(3) 1.0149(3)
O8B O 0.3571(5) 0.0598(3) 0.8887(3)
O10B O 0.4214(5) 0.1217(3) 1.0394(3)
O6B O 1.1510(5) 0.1509(3) 0.9534(3)
loop_
_geom_bond_atom_site_label_1
_geom_bond_atom_site_label_2
_geom_bond_site_symmetry_1
_geom_bond_site_symmetry_2
O1 Mo1 1_555 1_555
O2 Mo1 1_555 1_555
O3 Mo1 1_555 1_555
O4 Mo1 1_555 1_555
O5 Mo2 1_555 1_555
O6 Mo2 1_555 1_555
O7 Mo2 1_555 1_555
O8 Mo2 1_555 1_555
O9 Mo1 1_555 1_555
O10 Mo2 1_555 1_555
O11 Mo3 1_555 1_555
O12 Mo4 1_555 1_555
O13 Mo4 1_555 1_555
N1 C1 1_555 1_555
N2 C6 1_555 1_555
N3 C11 1_555 1_555
N4 C16 1_555 1_555
C1 C2 1_555 1_555
C2 C3 1_555 1_555
C3 C4 1_555 1_555
C4 C5 1_555 1_555
C5 N1 1_555 1_555
C6 C5 1_555 1_555
C7 C6 1_555 1_555
C8 C7 1_555 1_555
C9 C8 1_555 1_555
C10 N2 1_555 1_555
C11 C12 1_555 1_555
C12 C13 1_555 1_555
C13 C14 1_555 1_555
C14 C15 1_555 1_555
C15 N3 1_555 1_555
C16 C15 1_555 1_555
C17 C16 1_555 1_555
C18 C17 1_555 1_555
C19 C18 1_555 1_555
C20 N4 1_555 1_555
H1 C1 1_555 1_555
H2 C2 1_555 1_555
H3 C3 1_555 1_555
H4 C4 1_555 1_555
H5 C7 1_555 1_555
H6 C8 1_555 1_555
H7 C9 1_555 1_555
H8 C10 1_555 1_555
H9 C11 1_555 1_555
H10 C12 1_555 1_555
H11 C13 1_555 1_555
H12 C14 1_555 1_555
H13 C17 1_555 1_555
H14 C18 1_555 1_555
H15 C19 1_555 1_555
H16 C20 1_555 1_555
Mo2 O4 1_555 1_555
Mo3 O7 1_555 1_555
Mo4 O3 1_555 1_555
Ni1 O1 1_555 1_555
Ni1B O6 1_555 1_555
Mo3B O7 1_555 1_555
Mo4B O8 1_555 1_555
O7B Mo3 1_555 1_555
O8B Mo3 1_555 1_555
O10B Mo4 1_555 1_555
O6B Ni1 1_555 1_555
O7 Mo4 1_555 1_555
O8 Mo3B 1_555 1_555
O9 Mo3 1_555 1_555
O10 Mo3 1_555 1_555
O10 Mo4B 1_555 1_555
N1 Ni1 1_555 1_555
N2 Ni1 1_555 1_555
N3 Ni1 1_555 1_555
N4 Ni1 1_555 1_555
C9 C10 1_555 1_555
C19 C20 1_555 1_555
Mo4 O8B 1_555 1_555
Mo3B O7B 1_555 1_555
Mo3B O10B 1_555 1_555
Mo4B O7B 1_555 1_555

#END
