
#######################################################################
#
#                 Cambridge Crystallographic Data Centre
#                                CCDC 
#
#######################################################################
#
# If this CIF has been generated from an entry in the Cambridge 
# Structural Database, then it will include bibliographic, chemical, 
# crystal, experimental, refinement or atomic coordinate data resulting 
# from the CCDC's data processing and validation procedures.
#
#######################################################################

data_NISZEU
_symmetry_cell_setting           triclinic
_symmetry_space_group_name_H-M   'P -1'
_symmetry_Int_Tables_number      2
_space_group_name_Hall           '-P 1'
loop_
_symmetry_equiv_pos_site_id
_symmetry_equiv_pos_as_xyz
1 x,y,z
2 -x,-y,-z
_cell_length_a                   6.9889(6)
_cell_length_b                   10.5877(9)
_cell_length_c                   11.0077(9)
_cell_angle_alpha                88.674(2)
_cell_angle_beta                 89.930(2)
_cell_angle_gamma                79.9850(10)
_cell_volume                     801.9
loop_
_atom_site_label
_atom_site_type_symbol
_atom_site_fract_x
_atom_site_fract_y
_atom_site_fract_z
O1 O -0.0080(13) 0.2658(9) 0.1087(9)
O2 O 0.2116(12) 0.2475(8) -0.0929(7)
O3 O 0.0845(11) 0.5424(7) 0.0805(7)
O4 O 0.3378(11) 0.3594(7) 0.1173(7)
O5 O 0.3689(13) 0.5507(8) 0.2821(7)
O6 O 0.6284(10) 0.5054(7) 0.0929(7)
O7 O 0.3280(11) 0.7096(7) 0.0740(7)
O8 O -0.0581(11) 0.0836(8) -0.1799(7)
O9 O 0.2684(12) -0.0318(8) -0.0345(7)
O10 O 0.5455(10) 0.0765(7) -0.1956(7)
N1 N 0.2168(12) 0.1776(9) -0.3608(8)
N2 N 0.2735(12) -0.0705(8) -0.3144(8)
C1 C 0.2022(18) 0.3046(12) -0.3780(12)
C2 C 0.1978(21) 0.3638(15) -0.4930(15)
C3 C 0.2107(22) 0.2872(15) -0.5921(12)
C4 C 0.2281(20) 0.1573(14) -0.5745(12)
C5 C 0.2320(15) 0.1034(11) -0.4594(9)
C6 C 0.2583(16) -0.0357(11) -0.4330(9)
C7 C 0.2607(20) -0.1248(13) -0.5225(12)
C8 C 0.2859(20) -0.2522(14) -0.4897(13)
C9 C 0.3043(18) -0.2908(12) -0.3686(13)
C10 C 0.2988(15) -0.1942(10) -0.2847(11)
H1 H 0.1945(18) 0.3559(12) -0.3101(12)
H2 H 0.1865(21) 0.4523(15) -0.5018(15)
H3 H 0.2077(22) 0.3229(15) -0.6703(12)
H4 H 0.2375(20) 0.1046(14) -0.6414(12)
H5 H 0.2453(20) -0.0989(13) -0.6037(12)
H6 H 0.2907(20) -0.3134(14) -0.5494(13)
H7 H 0.3195(18) -0.3768(12) -0.3447(13)
H8 H 0.3138(15) -0.2179(10) -0.2029(11)
Mo1 Mo 0.1163(1) 0.3511(1) 0.0191(1)
Mo2 Mo 0.3782(1) 0.5331(1) 0.1304(1)
Mo3 Mo 0.2766(1) 0.8828(1) 0.1016(1)
Co1 Co 0.2418(2) 0.0786(1) -0.1919(1)
Mo1A Mo -0.1163(1) 0.6489(1) -0.0191(1)
O3A O -0.0845(11) 0.4576(7) -0.0805(7)
O6A O 0.3716(10) 0.4946(7) -0.0929(7)
Mo3_2 Mo 0.2766(1) -0.1172(1) 0.1016(1)
Mo3A Mo 0.7234(1) 0.1172(1) -0.1016(1)
Mo2A Mo 0.6218(1) 0.4669(1) -0.1304(1)
Mo3A_2 Mo -0.2766(1) 0.1172(1) -0.1016(1)
O8A O 0.0581(11) 0.9164(8) 0.1799(7)
O9_2 O 0.2684(12) 0.9682(8) -0.0345(7)
O10A O 0.4545(10) 0.9235(7) 0.1956(7)
loop_
_geom_bond_atom_site_label_1
_geom_bond_atom_site_label_2
_geom_bond_site_symmetry_1
_geom_bond_site_symmetry_2
O1 Mo1 1_555 1_555
O2 Mo1 1_555 1_555
O3 Mo1 1_555 1_555
O4 Mo1 1_555 1_555
O5 Mo2 1_555 1_555
O6 Mo2 1_555 1_555
O7 Mo2 1_555 1_555
O8 Co1 1_555 1_555
O9 Co1 1_555 1_555
O10 Co1 1_555 1_555
N1 C1 1_555 1_555
N2 C6 1_555 1_555
C1 C2 1_555 1_555
C2 C3 1_555 1_555
C3 C4 1_555 1_555
C4 C5 1_555 1_555
C5 N1 1_555 1_555
C6 C5 1_555 1_555
C7 C6 1_555 1_555
C8 C7 1_555 1_555
C9 C8 1_555 1_555
C10 N2 1_555 1_555
H1 C1 1_555 1_555
H2 C2 1_555 1_555
H3 C3 1_555 1_555
H4 C4 1_555 1_555
H5 C7 1_555 1_555
H6 C8 1_555 1_555
H7 C9 1_555 1_555
H8 C10 1_555 1_555
Mo1 O3A 1_555 1_555
Mo2 O3 1_555 1_555
Mo3 O7 1_555 1_555
Co1 O2 1_555 1_555
Mo1A O3 1_555 1_555
O3A Mo1A 1_555 1_555
O6A Mo2 1_555 1_555
Mo3_2 O9 1_555 1_555
Mo3A O10 1_555 1_555
Mo2A O6 1_555 1_555
Mo3A_2 O8 1_555 1_555
O8A Mo3 1_555 1_555
O9_2 Mo3 1_555 1_555
O10A Mo3 1_555 1_555
O4 Mo2 1_555 1_555
N1 Co1 1_555 1_555
N2 Co1 1_555 1_555
C9 C10 1_555 1_555
O6A Mo2A 1_555 1_555

#END
