
#######################################################################
#
#                 Cambridge Crystallographic Data Centre
#                                CCDC 
#
#######################################################################
#
# If this CIF has been generated from an entry in the Cambridge 
# Structural Database, then it will include bibliographic, chemical, 
# crystal, experimental, refinement or atomic coordinate data resulting 
# from the CCDC's data processing and validation procedures.
#
#######################################################################

data_NITBAU
_symmetry_cell_setting           rhombohedral
_symmetry_space_group_name_H-M   'R -3 c'
_symmetry_Int_Tables_number      167
_space_group_name_Hall           '-R 3 2"c'
loop_
_symmetry_equiv_pos_site_id
_symmetry_equiv_pos_as_xyz
1 x,y,z
2 -y,x-y,z
3 -x+y,-x,z
4 y,x,1/2-z
5 2/3+x,1/3+y,1/3+z
6 2/3-y,1/3+x-y,1/3+z
7 2/3-x+y,1/3-x,1/3+z
8 2/3+y,1/3+x,5/6-z
9 1/3+x,2/3+y,2/3+z
10 1/3+y,2/3+x,1/6-z
11 x-y,-y,1/2-z
12 -x,-x+y,1/2-z
13 1/3-y,2/3+x-y,2/3+z
14 1/3-x+y,2/3-x,2/3+z
15 1/3+x-y,2/3-y,1/6-z
16 1/3-x,2/3-x+y,1/6-z
17 2/3+x-y,1/3-y,5/6-z
18 2/3-x,1/3-x+y,5/6-z
19 -x,-y,-z
20 y,-x+y,-z
21 x-y,x,-z
22 -y,-x,1/2+z
23 1/3-x,2/3-y,2/3-z
24 1/3+y,2/3-x+y,2/3-z
25 1/3+x-y,2/3+x,2/3-z
26 1/3-y,2/3-x,1/6+z
27 2/3-x,1/3-y,1/3-z
28 2/3-y,1/3-x,5/6+z
29 -x+y,y,1/2+z
30 x,x-y,1/2+z
31 2/3+y,1/3-x+y,1/3-z
32 2/3+x-y,1/3+x,1/3-z
33 2/3-x+y,1/3+y,5/6+z
34 2/3+x,1/3+x-y,5/6+z
35 1/3-x+y,2/3+y,1/6+z
36 1/3+x,2/3+x-y,1/6+z
_cell_length_a                   15.222(3)
_cell_length_b                   15.222(3)
_cell_length_c                   93.80(3)
_cell_angle_alpha                90
_cell_angle_beta                 90
_cell_angle_gamma                120.00
_cell_volume                     18822.5
loop_
_atom_site_label
_atom_site_type_symbol
_atom_site_fract_x
_atom_site_fract_y
_atom_site_fract_z
O1 O 0.780(2) 1.3333 0.5833
I1 I 1.0000 1.0000 0.568721(5)
I2 I 1.21073(3) 1.3333 0.5833
C1 C 0.6019(4) 0.8077(3) 0.50171(5)
C2 C 0.6884(4) 0.8452(3) 0.51230(5)
C3 C 0.7541(4) 0.8087(5) 0.51197(6)
H1 H 0.7431 0.7568 0.5057
C4 C 0.8365(5) 0.8489(5) 0.52094(7)
H2 H 0.8821 0.8253 0.5201
C5 C 0.7870(4) 0.9503(4) 0.53165(5)
H3 H 0.7959 0.9968 0.5387
C6 C 0.7051(4) 0.9175(4) 0.52277(6)
H4 H 0.6611 0.9429 0.5237
C7 C 0.5247(4) 0.7437(4) 0.46573(5)
C8 C 0.5996(4) 0.8117(4) 0.45470(5)
C9 C 0.6436(4) 0.9158(4) 0.45569(6)
H5 H 0.6265 0.9449 0.4631
C10 C 0.7134(4) 0.9762(4) 0.44547(6)
H6 H 0.7436 1.0463 0.4463
C11 C 0.6987(4) 0.8378(5) 0.43392(6)
H7 H 0.7183 0.8102 0.4266
C12 C 0.6292(4) 0.7728(4) 0.44374(6)
H8 H 0.6027 0.7032 0.4429
C13 C 0.5673(3) 1.0939(3) 0.47829(5)
C14 C 0.5904(3) 1.1141(3) 0.46278(5)
C15 C 0.5277(4) 1.0476(4) 0.45230(6)
H9 H 0.4685 0.9884 0.4547
C16 C 0.5553(4) 1.0714(5) 0.43804(6)
H10 H 0.5125 1.0274 0.4310
C17 C 0.7002(4) 1.2175(4) 0.44427(5)
H11 H 0.7602 1.2751 0.4416
C18 C 0.6776(4) 1.2013(4) 0.45862(5)
H12 H 0.7201 1.2481 0.4653
N1 N 0.8552(3) 0.9192(3) 0.53071(5)
N2 N 0.7391(3) 0.9378(3) 0.43443(5)
N3 N 0.6405(3) 1.1548(3) 0.43388(4)
O2 O 0.5644(3) 0.8634(3) 0.49950(4)
O3 O 0.5766(3) 0.7247(3) 0.49572(4)
O4 O 0.4764(4) 0.7774(3) 0.47251(4)
O5 O 0.3418(3) 0.8556(3) 0.46758(4)
O6 O 0.5166(3) 1.0044(3) 0.48274(4)
O7 O 0.3982(3) 0.8301(3) 0.51366(4)
O8 O 0.3333 0.6667 0.49510(5)
Y1 Y 0.41510(3) 0.84034(3) 0.488880(4)
Cu1 Cu 1.0000 1.0000 0.540676(12)
Cu2 Cu 1.02473(5) 1.18097(6) 0.580077(7)
I1I I 1.3333 1.6667 0.597946(5)
I1R I 1.0000 1.0000 0.431279(5)
I1FA I 0.6667 1.3333 0.402054(5)
I1_2 I 0.0000 0.0000 0.568721(5)
I2A I 0.6667 0.87743(3) 0.5833
I2B I 1.12257(3) 0.78927(3) 0.5833
I2GA I 0.87740(3) 1.21076(3) 0.4166
C1A C 0.1923(3) 0.7942(5) 0.50171(5)
C1B C 0.2058(5) 0.3981(4) 0.50171(5)
C1A_2 C 1.1923(3) 0.7942(5) 0.50171(5)
C1B_2 C 1.2058(5) 1.3981(4) 0.50171(5)
C1A_3 C 0.1923(3) -0.2058(5) 0.50171(5)
C2B C 0.1568(5) 0.3116(4) 0.51230(5)
C2A C 0.1548(3) 0.8432(5) 0.51230(5)
C2B_2 C 1.1568(5) 1.3116(4) 0.51230(5)
C2A_2 C 1.1548(3) 0.8432(5) 0.51230(5)
C2A_3 C 0.1548(3) -0.1568(5) 0.51230(5)
C3B C 0.0546(6) 0.2459(4) 0.51197(6)
C3A C 0.1913(5) 0.9454(6) 0.51197(6)
C3A_2 C 1.1913(5) 0.9454(6) 0.51197(6)
C3B_2 C 1.0546(6) 1.2459(4) 0.51197(6)
C3A_3 C 0.1913(5) -0.0546(6) 0.51197(6)
H1B H 0.0137 0.2569 0.5057
H1A H 0.2432 0.9863 0.5057
H1B_2 H 1.0137 1.2569 0.5057
H1A_2 H 1.2432 0.9863 0.5057
H1A_3 H 0.2432 -0.0137 0.5057
C4B C 1.0124(7) 1.1635(5) 0.52094(7)
C4A C 1.1511(5) 0.9876(7) 0.52094(7)
C4B_2 C 0.0124(7) 0.1635(5) 0.52094(7)
C4A_2 C 0.1511(5) 0.9876(7) 0.52094(7)
C4A_3 C 0.1511(5) -0.0124(7) 0.52094(7)
H2B H -0.0568 0.1179 0.5201
H2A H 1.1747 1.0568 0.5201
H2B_2 H 0.9432 1.1179 0.5201
H2A_2 H 0.1747 0.0568 0.5201
C5B C 1.1633(6) 1.2130(4) 0.53165(5)
C5A C 1.0497(4) 0.8367(6) 0.53165(5)
C5B_2 C 0.1633(6) 0.2130(4) 0.53165(5)
C5A_2 C 0.0497(4) 0.8367(6) 0.53165(5)
C5A_3 C 0.0497(4) -0.1633(6) 0.53165(5)
H3B H 0.2009 0.2041 0.5387
H3A H 0.0032 0.7991 0.5387
H3A_2 H 1.0032 0.7991 0.5387
H3B_2 H 1.2009 1.2041 0.5387
H3A_3 H 0.0032 -0.2009 0.5387
C6B C 0.2124(6) 0.2949(4) 0.52277(6)
C6A C 0.0825(4) 0.7876(6) 0.52277(6)
C6A_2 C 1.0825(4) 0.7876(6) 0.52277(6)
C6B_2 C 1.2124(6) 1.2949(4) 0.52277(6)
C6A_3 C 0.0825(4) -0.2124(6) 0.52277(6)
H4B H 0.2818 0.3389 0.5237
H4A H 0.0571 0.7182 0.5237
H4B_2 H 1.2818 1.3389 0.5237
H4A_2 H 1.0571 0.7182 0.5237
H4A_3 H 0.0571 -0.2818 0.5237
C7A C 0.2563(4) 0.7810(6) 0.46573(5)
C7IA C 0.8580(4) 1.4477(6) 0.63240(5)
C7B C 0.2190(6) 0.4753(4) 0.46573(5)
C7S C 0.7437(4) 1.2190(6) 0.53427(5)
C8A C 0.1883(4) 0.7879(6) 0.45470(5)
C8IA C 0.9329(4) 1.4546(6) 0.62137(5)
C8B C 0.2121(6) 0.4004(4) 0.45470(5)
C8S C 0.8117(4) 1.2121(6) 0.54530(5)
C9S C 0.9158(4) 1.2722(6) 0.54431(6)
C9IA C 0.9769(4) 1.3945(6) 0.62236(6)
C9A C 0.0842(4) 0.7278(6) 0.45569(6)
C9B C 0.2722(6) 0.3564(4) 0.45569(6)
H5IA H 0.9598 1.3483 0.6298
H5A H 0.0551 0.6816 0.4631
H5B H 0.3184 0.3735 0.4631
H5S H 0.9449 1.3184 0.5369
C10S C 0.9762(4) 1.2628(6) 0.55453(6)
C10IA C 1.0467(4) 1.4039(6) 0.61214(6)
C10A C 0.0238(4) 0.7372(6) 0.44547(6)
C10B C 0.2628(6) 0.2866(4) 0.44547(6)
H6S H 1.0463 1.3027 0.5537
H6IA H 1.0769 1.3640 0.6130
H6A H -0.0463 0.6973 0.4463
H6B H 0.3027 0.2564 0.4463
C11S C 0.8378(5) 1.1391(6) 0.56608(6)
C11IA C 1.0320(4) 1.5276(6) 0.60059(6)
C11A C 0.1622(5) 0.8609(6) 0.43392(6)
C11B C 0.1391(6) 0.3013(4) 0.43392(6)
H7S H 0.8102 1.0919 0.5734
H7IA H 1.0516 1.5748 0.5933
H7A H 0.1898 0.9081 0.4266
H7B H 0.0919 0.2817 0.4266
C12S C 0.7728(4) 1.1436(6) 0.55626(6)
C12IA C 0.9625(4) 1.5231(6) 0.61041(6)
C12A C 0.2272(4) 0.8564(6) 0.44374(6)
C12B C 0.1436(6) 0.3708(4) 0.44374(6)
H8IA H 0.9360 1.5662 0.6096
H8A H 0.2968 0.8995 0.4429
H8B H 0.1005 0.3973 0.4429
H8S H 0.7032 1.1005 0.5571
C13R C 0.4327(3) 0.9061(3) 0.52171(5)
C13IA C 0.9006(3) 1.1401(4) 0.64496(5)
C13B C 0.5266(4) 0.4327(3) 0.47829(5)
C13T C 0.4734(4) 0.5673(3) 0.52171(5)
C13S C 0.0939(3) 0.5266(4) 0.52171(5)
C13S_2 C 1.0939(3) 1.5266(4) 0.52171(5)
C13A C -0.0939(3) 0.4734(4) 0.47829(5)
C14R C 0.4096(3) 0.8859(3) 0.53722(5)
C14S C 1.1141(3) 1.5237(4) 0.53722(5)
C14IA C 0.9237(3) 1.1430(4) 0.62945(5)
C14B C 0.5237(4) 0.4096(3) 0.46278(5)
C14T C 0.4763(4) 0.5904(3) 0.53722(5)
C14S_2 C 0.1141(3) 0.5237(4) 0.53722(5)
C14A C -0.1141(3) 0.4763(4) 0.46278(5)
C15S C 1.0476(4) 1.5199(6) 0.54770(6)
C15IA C 0.8610(4) 1.1468(6) 0.61897(6)
C15R C 0.4723(4) 0.9524(4) 0.54770(6)
C15T C 0.4801(6) 0.5277(4) 0.54770(6)
C15S_2 C 0.0476(4) 0.5199(6) 0.54770(6)
C15A C -0.0476(4) 0.4801(6) 0.45230(6)
H9S H 0.9884 1.5199 0.5453
H9IA H 0.8018 1.1468 0.6214
H9R H 0.5315 1.0116 0.5453
H9T H 0.4801 0.4685 0.5453
H9S_2 H -0.0116 0.5199 0.5453
H9A H 0.0116 0.4801 0.4547
C16IA C 0.8886(4) 1.1506(6) 0.60471(6)
C16S C 1.0714(5) 1.5161(6) 0.56196(6)
C16R C 0.4447(4) 0.9286(5) 0.56196(6)
C16T C 0.4839(6) 0.5553(4) 0.56196(6)
C16S_2 C 0.0714(5) 0.5161(6) 0.56196(6)
C16A C -0.0714(5) 0.4839(6) 0.43804(6)
H10S H 1.0274 1.5149 0.5690
H10IA H 0.8458 1.1518 0.5977
H10R H 0.4875 0.9726 0.5690
H10T H 0.4851 0.5125 0.5690
H10S_2 H 0.0274 0.5149 0.5690
H10A H -0.0274 0.4851 0.4310
C17IA C 1.0335(4) 1.1494(6) 0.61094(5)
C17S C 1.2175(4) 1.5173(6) 0.55573(5)
C17R C 0.2998(4) 0.7825(4) 0.55573(5)
C17T C 0.4827(6) 0.7002(4) 0.55573(5)
C17S_2 C 0.2175(4) 0.5173(6) 0.55573(5)
C17A C -0.2175(4) 0.4827(6) 0.44427(5)
H11S H 1.2751 1.5149 0.5584
H11IA H 1.0935 1.1518 0.6083
H11R H 0.2398 0.7249 0.5584
H11T H 0.4851 0.7602 0.5584
H11S_2 H 0.2751 0.5149 0.5584
H11A H -0.2751 0.4851 0.4416
C18S C 1.2013(4) 1.5237(6) 0.54138(5)
C18IA C 1.0109(4) 1.1430(6) 0.62529(5)
C18R C 0.3224(4) 0.7987(4) 0.54138(5)
C18T C 0.4763(6) 0.6776(4) 0.54138(5)
C18S_2 C 0.2013(4) 0.5237(6) 0.54138(5)
C18A C -0.2013(4) 0.4763(6) 0.45862(5)
H12S H 1.2481 1.5280 0.5347
H12IA H 1.0534 1.1387 0.6320
H12R H 0.2799 0.7519 0.5347
H12T H 0.4720 0.7201 0.5347
H12S_2 H 0.2481 0.5280 0.5347
H12A H -0.2481 0.4720 0.4653
N1B N 1.0640(4) 1.1448(3) 0.53071(5)
N1A N 1.0808(3) 0.9360(4) 0.53071(5)
N1B_2 N 0.0640(4) 0.1448(3) 0.53071(5)
N1_2 N -0.1448(3) -0.0808(3) 0.53071(5)
N1A_2 N 0.0808(3) -0.0640(4) 0.53071(5)
N1A_3 N 0.0808(3) 0.9360(4) 0.53071(5)
N1I N 1.2525(3) 1.5219(3) 0.63596(5)
N1N N 1.2693(4) 1.7475(3) 0.63596(5)
N1O N 1.4781(3) 1.7307(4) 0.63596(5)
N2S N 0.9378(3) 1.1987(4) 0.56557(5)
N2T N 0.8013(4) 0.7391(3) 0.56557(5)
N2R N 1.2609(3) 1.0622(3) 0.56557(5)
N2IA N 1.0724(3) 1.4680(4) 0.60110(5)
N2G N 0.6045(3) 1.0724(3) 0.39890(5)
N2A N 0.0622(3) 0.8013(4) 0.43443(5)
N2B N 0.1987(4) 0.2609(3) 0.43443(5)
N3IA N 0.9738(3) 1.1524(4) 0.60055(4)
N3HA N 0.8476(4) 0.8215(3) 0.60055(4)
N3Y N 1.1785(3) 1.0262(3) 0.60055(4)
N3S N 1.1548(3) 1.5143(4) 0.56612(4)
N3G N 0.8215(3) 0.9738(3) 0.39945(4)
N3R N 0.3595(3) 0.8452(3) 0.56612(4)
N3T N 0.4857(4) 0.6405(3) 0.56612(4)
N3S_2 N 0.1548(3) 0.5143(4) 0.56612(4)
N3A N -0.1548(3) 0.4857(4) 0.43388(4)
O2B O 0.2990(4) 0.4356(3) 0.49950(4)
O2A O 0.1366(3) 0.7010(4) 0.49950(4)
O2IA O 0.8977(3) 1.3677(4) 0.66617(4)
O2A_2 O 1.1366(3) 0.7010(4) 0.49950(4)
O2B_2 O 1.2990(4) 1.4356(3) 0.49950(4)
O2R O 0.4356(3) 1.1366(3) 0.50050(4)
O2A_3 O 0.1366(3) -0.2990(4) 0.49950(4)
O3A O 0.2753(3) 0.8519(4) 0.49572(4)
O3B O 0.1481(4) 0.4234(3) 0.49572(4)
O3Y O 0.6086(3) 1.0901(3) 0.66239(4)
O3A_2 O 1.2753(3) 0.8519(4) 0.49572(4)
O3B_2 O 1.1481(4) 1.4234(3) 0.49572(4)
O3S O 0.7247(3) 1.1481(4) 0.50428(4)
O3A_3 O 0.2753(3) -0.1481(4) 0.49572(4)
O4B O 0.3010(5) 0.5236(4) 0.47251(4)
O4A O 0.2226(3) 0.6990(5) 0.47251(4)
O4IA O 0.8097(4) 1.3657(5) 0.63918(4)
O4S O 0.7774(3) 1.3010(5) 0.52749(4)
O4R O 0.5236(4) 1.2226(3) 0.52749(4)
O5B O 0.5138(4) 0.6582(3) 0.46758(4)
O5A O 0.1444(3) 0.4862(4) 0.46758(4)
O5HA O 0.8471(4) 1.5223(3) 0.63425(4)
O5IA O 0.6751(3) 1.1529(4) 0.63425(4)
O5R O 0.6582(3) 1.1444(3) 0.53242(4)
O6B O 0.4878(4) 0.4834(3) 0.48274(4)
O6R O 0.4834(3) 0.9956(3) 0.51726(4)
O6A O -0.0044(3) 0.5122(4) 0.48274(4)
O6IA O 0.8499(3) 1.1789(4) 0.64941(4)
O6T O 0.5122(4) 0.5166(3) 0.51726(4)
O6S O 0.0044(3) 0.4878(4) 0.51726(4)
O6S_2 O 1.0044(3) 1.4878(4) 0.51726(4)
O7R O 0.6018(3) 1.1699(3) 0.48634(4)
O7B O 0.4319(4) 0.6018(3) 0.51366(4)
O7A O 0.1699(3) 0.5681(4) 0.51366(4)
O7O O 0.9351(3) 1.0986(4) 0.65301(4)
O7IA O 0.7315(3) 1.2348(4) 0.68033(4)
O7T O 0.5681(4) 0.3982(3) 0.48634(4)
O7A_2 O 1.1699(3) 1.5681(4) 0.51366(4)
O7S O -0.1699(3) 0.4319(4) 0.48634(4)
O8HA O 0.6667 1.3334 0.66177(5)
O8R O 0.6667 1.3333 0.50490(5)
Y1B Y 0.42524(4) 0.58490(3) 0.488880(4)
Y1A Y 0.15966(3) 0.57476(4) 0.488880(4)
Y1R Y 0.58490(3) 1.15966(3) 0.511120(4)
Y1HA Y 0.75857(4) 1.50701(3) 0.655547(4)
Y1IA Y 0.74843(3) 1.24143(4) 0.655547(4)
Y1O Y 0.91823(3) 1.09191(4) 0.677787(4)
Y1T Y 0.57476(4) 0.41510(3) 0.511120(4)
Y1S Y -0.15966(3) 0.42524(4) 0.511120(4)
Y1S_2 Y 0.84034(3) 1.42524(4) 0.511120(4)
Y1_2 Y 1.41510(3) 0.84034(3) 0.488880(4)
Y1A_2 Y 1.15966(3) 0.57476(4) 0.488880(4)
Y1B_2 Y 1.42524(4) 1.58490(3) 0.488880(4)
Y1A_3 Y 1.15966(3) 1.57476(4) 0.488880(4)
Y1_3 Y 0.41510(3) -0.15966(3) 0.488880(4)
Y1A_4 Y 0.15966(3) -0.42524(4) 0.488880(4)
Cu1I Cu 1.3333 1.6667 0.625991(12)
Cu1_2 Cu 0.0000 0.0000 0.540676(12)
Cu1_3 Cu 0.0000 1.0000 0.540676(12)
Cu2A Cu 0.81903(6) 0.84376(8) 0.580077(7)
Cu2B Cu 1.15624(8) 0.97527(5) 0.580077(7)
Cu2N Cu 1.17709(8) 1.48570(6) 0.586590(7)
Cu2T Cu 0.84376(8) 1.02473(5) 0.419923(7)
Cu2GA Cu 0.69140(5) 1.17709(8) 0.413410(7)
Cu2I Cu 1.51430(6) 1.69140(5) 0.586590(7)
Cu2O Cu 1.30860(5) 1.82291(8) 0.586590(7)
Cu2R Cu -0.02473(5) 0.81903(6) 0.419923(7)
Cu2S Cu 0.18097(6) 0.15624(8) 0.419923(7)
Cu2O_2 Cu 0.30860(5) 0.82291(8) 0.586590(7)
Cu2I_2 Cu 0.51430(6) 0.69140(5) 0.586590(7)
Cu2N_2 Cu 0.17709(8) 0.48570(6) 0.586590(7)
Cu2FA Cu -0.17709(8) 0.51430(6) 0.413410(7)
loop_
_geom_bond_atom_site_label_1
_geom_bond_atom_site_label_2
_geom_bond_site_symmetry_1
_geom_bond_site_symmetry_2
I1 Cu1 1_555 1_555
I2 Cu2 1_555 1_555
C1 C2 1_555 1_555
C2 C3 1_555 1_555
C3 H1 1_555 1_555
C4 C3 1_555 1_555
H2 C4 1_555 1_555
C5 H3 1_555 1_555
C6 C2 1_555 1_555
H4 C6 1_555 1_555
C7 C8 1_555 1_555
C8 C9 1_555 1_555
C9 H5 1_555 1_555
C10 C9 1_555 1_555
H6 C10 1_555 1_555
C11 H7 1_555 1_555
C12 C8 1_555 1_555
H8 C12 1_555 1_555
C13 C14 1_555 1_555
C14 C15 1_555 1_555
C15 H9 1_555 1_555
C16 C15 1_555 1_555
H10 C16 1_555 1_555
C17 H11 1_555 1_555
C18 C14 1_555 1_555
H12 C18 1_555 1_555
N1 C4 1_555 1_555
N2 C10 1_555 1_555
N3 C16 1_555 1_555
O2 C1 1_555 1_555
O3 C1 1_555 1_555
O4 C7 1_555 1_555
O5 Y1 1_555 1_555
O6 C13 1_555 1_555
O7 Y1 1_555 1_555
O8 Y1 1_555 1_555
Y1 O2 1_555 1_555
Cu1 N1 1_555 1_555
Cu2 I1 1_555 1_555
I1I Cu1I 1_555 1_555
I1R Cu2T 1_555 1_555
I1FA Cu2GA 1_555 1_555
I1_2 Cu1_2 1_555 1_555
I2A Cu2A 1_555 1_555
I2B Cu2B 1_555 1_555
I2GA Cu2T 1_555 1_555
C1A C2A 1_555 1_555
C1B C2B 1_555 1_555
C1A_2 C2A_2 1_555 1_555
C1B_2 C2B_2 1_555 1_555
C1A_3 C2A_3 1_555 1_555
C2B C3B 1_555 1_555
C2A C3A 1_555 1_555
C2B_2 C3B_2 1_555 1_555
C2A_2 C3A_2 1_555 1_555
C2A_3 C3A_3 1_555 1_555
C3B H1B 1_555 1_555
C3A H1A 1_555 1_555
C3A_2 H1A_2 1_555 1_555
C3B_2 H1B_2 1_555 1_555
C3A_3 H1A_3 1_555 1_555
C4B C3B_2 1_555 1_555
C4A C3A_2 1_555 1_555
C4B_2 C3B 1_555 1_555
C4A_2 C3A 1_555 1_555
C4A_3 C3A_3 1_555 1_555
H2B C4B_2 1_555 1_555
H2A C4A 1_555 1_555
H2B_2 C4B 1_555 1_555
H2A_2 C4A_3 1_555 1_555
C5B H3B_2 1_555 1_555
C5A H3A_2 1_555 1_555
C5B_2 H3B 1_555 1_555
C5A_2 H3A 1_555 1_555
C5A_3 H3A_3 1_555 1_555
C6B C2B 1_555 1_555
C6A C2A 1_555 1_555
C6A_2 C2A_2 1_555 1_555
C6B_2 C2B_2 1_555 1_555
C6A_3 C2A_3 1_555 1_555
H4B C6B 1_555 1_555
H4A C6A 1_555 1_555
H4B_2 C6B_2 1_555 1_555
H4A_2 C6A_2 1_555 1_555
H4A_3 C6A_3 1_555 1_555
C7A O5 1_555 1_555
C7IA C8IA 1_555 1_555
C7B C8B 1_555 1_555
C7S C8S 1_555 1_555
C8A C7A 1_555 1_555
C8IA C9IA 1_555 1_555
C8B C9B 1_555 1_555
C8S C9S 1_555 1_555
C9S H5S 1_555 1_555
C9IA H5IA 1_555 1_555
C9A C8A 1_555 1_555
C9B H5B 1_555 1_555
H5A C9A 1_555 1_555
C10S C9S 1_555 1_555
C10IA C9IA 1_555 1_555
C10A C9A 1_555 1_555
C10B C9B 1_555 1_555
H6S C10S 1_555 1_555
H6IA C10IA 1_555 1_555
H6A C10A 1_555 1_555
H6B C10B 1_555 1_555
C11S H7S 1_555 1_555
C11IA H7IA 1_555 1_555
C11A H7A 1_555 1_555
C11B H7B 1_555 1_555
C12S C8S 1_555 1_555
C12IA C8IA 1_555 1_555
C12A C8A 1_555 1_555
C12B C8B 1_555 1_555
H8IA C12IA 1_555 1_555
H8A C12A 1_555 1_555
H8B C12B 1_555 1_555
H8S C12S 1_555 1_555
C13R O7 1_555 1_555
C13IA C14IA 1_555 1_555
C13B C14B 1_555 1_555
C13T C14T 1_555 1_555
C13S C14S_2 1_555 1_555
C13S_2 C14S 1_555 1_555
C13A C14A 1_555 1_555
C14R C13R 1_555 1_555
C14S C15S 1_555 1_555
C14IA C15IA 1_555 1_555
C14T C15T 1_555 1_555
C14S_2 C15S_2 1_555 1_555
C14A C15A 1_555 1_555
C15S H9S 1_555 1_555
C15IA H9IA 1_555 1_555
C15R C14R 1_555 1_555
C15T H9T 1_555 1_555
C15S_2 H9S_2 1_555 1_555
C15A H9A 1_555 1_555
H9R C15R 1_555 1_555
C16IA C15IA 1_555 1_555
C16S C15S 1_555 1_555
C16R C15R 1_555 1_555
C16T C15T 1_555 1_555
C16S_2 C15S_2 1_555 1_555
C16A C15A 1_555 1_555
H10S C16S 1_555 1_555
H10IA C16IA 1_555 1_555
H10R C16R 1_555 1_555
H10T C16T 1_555 1_555
H10S_2 C16S_2 1_555 1_555
H10A C16A 1_555 1_555
C17IA H11IA 1_555 1_555
C17S H11S 1_555 1_555
C17R H11R 1_555 1_555
C17T H11T 1_555 1_555
C17S_2 H11S_2 1_555 1_555
C17A H11A 1_555 1_555
C18S C14S 1_555 1_555
C18IA C14IA 1_555 1_555
C18R C14R 1_555 1_555
C18T C14T 1_555 1_555
C18S_2 C14S_2 1_555 1_555
C18A C14A 1_555 1_555
H12S C18S 1_555 1_555
H12IA C18IA 1_555 1_555
H12R C18R 1_555 1_555
H12T C18T 1_555 1_555
H12S_2 C18S_2 1_555 1_555
H12A C18A 1_555 1_555
N1B Cu1 1_555 1_555
N1A Cu1 1_555 1_555
N1B_2 C4B_2 1_555 1_555
N1_2 Cu1_2 1_555 1_555
N1A_2 C4A_3 1_555 1_555
N1A_3 C4A_2 1_555 1_555
N1I Cu1I 1_555 1_555
N1N Cu1I 1_555 1_555
N1O Cu1I 1_555 1_555
N2S Cu2 1_555 1_555
N2T Cu2A 1_555 1_555
N2R Cu2B 1_555 1_555
N2IA C10IA 1_555 1_555
N2G Cu2GA 1_555 1_555
N2A C10A 1_555 1_555
N2B C10B 1_555 1_555
N3IA Cu2 1_555 1_555
N3HA Cu2A 1_555 1_555
N3Y Cu2B 1_555 1_555
N3S C16S 1_555 1_555
N3G Cu2T 1_555 1_555
N3R C16R 1_555 1_555
N3T C16T 1_555 1_555
N3S_2 C16S_2 1_555 1_555
N3A C16A 1_555 1_555
O2B C1B 1_555 1_555
O2A C1A 1_555 1_555
O2IA Y1IA 1_555 1_555
O2A_2 C1A_2 1_555 1_555
O2B_2 C1B_2 1_555 1_555
O2R Y1R 1_555 1_555
O2A_3 C1A_3 1_555 1_555
O3A Y1 1_555 1_555
O3B C1B 1_555 1_555
O3Y Y1IA 1_555 1_555
O3A_2 C1A_2 1_555 1_555
O3B_2 C1B_2 1_555 1_555
O3S Y1R 1_555 1_555
O3A_3 C1A_3 1_555 1_555
O4B C7B 1_555 1_555
O4A C7A 1_555 1_555
O4IA C7IA 1_555 1_555
O4S C7S 1_555 1_555
O4R Y1R 1_555 1_555
O5B C7 1_555 1_555
O5A C7B 1_555 1_555
O5HA C7IA 1_555 1_555
O5IA Y1IA 1_555 1_555
O5R C7S 1_555 1_555
O6B C13B 1_555 1_555
O6R C13R 1_555 1_555
O6A C13A 1_555 1_555
O6IA C13IA 1_555 1_555
O6T C13T 1_555 1_555
O6S C13S 1_555 1_555
O6S_2 C13S_2 1_555 1_555
O7R C13 1_555 1_555
O7B C13T 1_555 1_555
O7A C13S 1_555 1_555
O7O C13IA 1_555 1_555
O7IA Y1IA 1_555 1_555
O7T C13B 1_555 1_555
O7A_2 C13S_2 1_555 1_555
O7S C13A 1_555 1_555
O8HA Y1IA 1_555 1_555
O8R Y1R 1_555 1_555
Y1B O3 1_555 1_555
Y1A O8 1_555 1_555
Y1R O5R 1_555 1_555
Y1HA O5HA 1_555 1_555
Y1IA O4IA 1_555 1_555
Y1O O7O 1_555 1_555
Y1T O6T 1_555 1_555
Y1S O6S 1_555 1_555
Y1S_2 O4S 1_555 1_555
Y1_2 O3A_2 1_555 1_555
Y1A_2 O2A_2 1_555 1_555
Y1B_2 O2B_2 1_555 1_555
Y1A_3 O3B_2 1_555 1_555
Y1_3 O3A_3 1_555 1_555
Y1A_4 O2A_3 1_555 1_555
Cu1_2 N1B_2 1_555 1_555
Cu1_3 N1A_3 1_555 1_555
Cu2A I1 1_555 1_555
Cu2B I1 1_555 1_555
Cu2N I2 1_555 1_555
Cu2T N2 1_555 1_555
Cu2GA N3 1_555 1_555
Cu2I I1I 1_555 1_555
Cu2O I1I 1_555 1_555
Cu2R N2A 1_555 1_555
Cu2S N2B 1_555 1_555
Cu2O_2 N3R 1_555 1_555
Cu2I_2 I2A 1_555 1_555
Cu2N_2 N3S_2 1_555 1_555
Cu2FA N3A 1_555 1_555
C5 C6 1_555 1_555
C5 N1 1_555 1_555
C11 C12 1_555 1_555
C11 N2 1_555 1_555
C17 C18 1_555 1_555
C17 N3 1_555 1_555
O4 Y1 1_555 1_555
O6 Y1 1_555 1_555
O8 Y1B 1_555 1_555
I1I Cu2N 1_555 1_555
I2GA Cu2GA 1_555 1_555
C1A O3A 1_555 1_555
C4B N1B 1_555 1_555
C4A N1A 1_555 1_555
C5B C6B_2 1_555 1_555
C5B N1B 1_555 1_555
C5A C6A_2 1_555 1_555
C5A N1A 1_555 1_555
C5B_2 C6B 1_555 1_555
C5B_2 N1B_2 1_555 1_555
C5A_2 C6A 1_555 1_555
C5A_2 N1A_3 1_555 1_555
C5A_3 C6A_3 1_555 1_555
C5A_3 N1A_2 1_555 1_555
C10S N2S 1_555 1_555
C11S C12S 1_555 1_555
C11S N2S 1_555 1_555
C11IA C12IA 1_555 1_555
C11IA N2IA 1_555 1_555
C11A C12A 1_555 1_555
C11A N2A 1_555 1_555
C11B C12B 1_555 1_555
C11B N2B 1_555 1_555
C16IA N3IA 1_555 1_555
C17IA C18IA 1_555 1_555
C17IA N3IA 1_555 1_555
C17S C18S 1_555 1_555
C17S N3S 1_555 1_555
C17R C18R 1_555 1_555
C17R N3R 1_555 1_555
C17T C18T 1_555 1_555
C17T N3T 1_555 1_555
C17S_2 C18S_2 1_555 1_555
C17S_2 N3S_2 1_555 1_555
C17A C18A 1_555 1_555
C17A N3A 1_555 1_555
N1A_2 Cu1_2 1_555 1_555
N2IA Cu2N 1_555 1_555
N3S Cu2N 1_555 1_555
N3T Cu2I_2 1_555 1_555
O2B Y1B 1_555 1_555
O2A Y1A 1_555 1_555
O3B Y1A 1_555 1_555
O4B Y1B 1_555 1_555
O4A Y1A 1_555 1_555
O5B Y1B 1_555 1_555
O5A Y1A 1_555 1_555
O6B Y1B 1_555 1_555
O6R Y1R 1_555 1_555
O6A Y1A 1_555 1_555
O6IA Y1IA 1_555 1_555
O6S_2 Y1S_2 1_555 1_555
O7R Y1R 1_555 1_555
O7B Y1B 1_555 1_555
O7A Y1A 1_555 1_555
O7T Y1T 1_555 1_555
O7A_2 Y1A_3 1_555 1_555
O7S Y1S 1_555 1_555

#END
