
#######################################################################
#
#                 Cambridge Crystallographic Data Centre
#                                CCDC 
#
#######################################################################
#
# If this CIF has been generated from an entry in the Cambridge 
# Structural Database, then it will include bibliographic, chemical, 
# crystal, experimental, refinement or atomic coordinate data resulting 
# from the CCDC's data processing and validation procedures.
#
#######################################################################

data_NITBUO
_symmetry_cell_setting           rhombohedral
_symmetry_space_group_name_H-M   'R -3 c'
_symmetry_Int_Tables_number      167
_space_group_name_Hall           '-R 3 2"c'
loop_
_symmetry_equiv_pos_site_id
_symmetry_equiv_pos_as_xyz
1 x,y,z
2 -y,x-y,z
3 -x+y,-x,z
4 y,x,1/2-z
5 2/3+x,1/3+y,1/3+z
6 2/3-y,1/3+x-y,1/3+z
7 2/3-x+y,1/3-x,1/3+z
8 2/3+y,1/3+x,5/6-z
9 1/3+x,2/3+y,2/3+z
10 1/3+y,2/3+x,1/6-z
11 x-y,-y,1/2-z
12 -x,-x+y,1/2-z
13 1/3-y,2/3+x-y,2/3+z
14 1/3-x+y,2/3-x,2/3+z
15 1/3+x-y,2/3-y,1/6-z
16 1/3-x,2/3-x+y,1/6-z
17 2/3+x-y,1/3-y,5/6-z
18 2/3-x,1/3-x+y,5/6-z
19 -x,-y,-z
20 y,-x+y,-z
21 x-y,x,-z
22 -y,-x,1/2+z
23 1/3-x,2/3-y,2/3-z
24 1/3+y,2/3-x+y,2/3-z
25 1/3+x-y,2/3+x,2/3-z
26 1/3-y,2/3-x,1/6+z
27 2/3-x,1/3-y,1/3-z
28 2/3-y,1/3-x,5/6+z
29 -x+y,y,1/2+z
30 x,x-y,1/2+z
31 2/3+y,1/3-x+y,1/3-z
32 2/3+x-y,1/3+x,1/3-z
33 2/3-x+y,1/3+y,5/6+z
34 2/3+x,1/3+x-y,5/6+z
35 1/3-x+y,2/3+y,1/6+z
36 1/3+x,2/3+x-y,1/6+z
_cell_length_a                   15.2988(4)
_cell_length_b                   15.2988(4)
_cell_length_c                   93.559(4)
_cell_angle_alpha                90
_cell_angle_beta                 90
_cell_angle_gamma                120.00
_cell_volume                     18964
loop_
_atom_site_label
_atom_site_type_symbol
_atom_site_fract_x
_atom_site_fract_y
_atom_site_fract_z
O1 O 0.8028(18) 1.3333 0.5833
Gd1 Gd 0.917554(18) 1.092012(18) 0.677735(3)
Cu1 Cu 0.3333 0.6667 0.625930(14)
Cu2 Cu 0.30537(6) 0.82210(8) 0.587100(9)
I1 I 0.3333 0.6667 0.597940(7)
I2 I 0.12071(4) 0.7874 0.5834
C1 C 0.7294(4) 0.8708(4) 0.66468(6)
C2 C 0.6437(4) 0.8225(4) 0.65410(7)
C3 C 0.5777(5) 0.7209(6) 0.65456(8)
H1 H 0.5885 0.6805 0.6609
C4 C 0.4954(5) 0.6785(6) 0.64563(8)
H2 H 0.4500 0.6097 0.6466
C5 C 0.5449(5) 0.8278(5) 0.63469(7)
H3 H 0.5368 0.8648 0.6275
C6 C 0.6266(5) 0.8772(5) 0.64376(8)
H4 H 0.6698 0.9465 0.6430
C7 C 0.5924(5) 1.1410(5) 0.63212(6)
C8 C 0.5225(4) 1.0660(4) 0.62141(6)
C9 C 0.4193(5) 1.0252(5) 0.62255(7)
H5 H 0.3920 1.0444 0.6300
C10 C 0.3580(5) 0.9562(5) 0.61257(7)
H6 H 0.2886 0.9294 0.6134
C11 C 0.4924(5) 0.9626(5) 0.60125(7)
H7 H 0.5181 0.9401 0.5941
C12 C 0.5588(5) 1.0321(5) 0.61074(7)
H8 H 0.6277 1.0559 0.6100
C13 C 0.4303(4) 0.9030(4) 0.52198(6)
C14 C 0.4076(4) 0.8841(4) 0.53755(6)
C15 C 0.4697(4) 0.9505(5) 0.54811(6)
H9 H 0.5285 1.0093 0.5457
C16 C 0.4426(5) 0.9277(5) 0.56222(7)
H10 H 0.4852 0.9721 0.5692
C17 C 0.2989(5) 0.7815(5) 0.55622(7)
H11 H 0.2394 0.7239 0.5589
C18 C 0.3214(5) 0.7972(5) 0.54188(6)
H12 H 0.2792 0.7500 0.5352
N1 N 0.4766(4) 0.7292(4) 0.63579(6)
N2 N 0.3932(4) 0.9256(4) 0.60178(6)
N3 N 0.3575(4) 0.8442(4) 0.56657(5)
O2 O 0.7669(3) 0.9631(4) 0.66686(5)
O3 O 1.0591(3) 1.2454(3) 0.67070(6)
O4 O 0.8585(4) 0.9618(4) 0.69396(5)
O5 O 0.9894(3) 1.1841(4) 0.69948(5)
O6 O 0.8124(3) 1.1533(4) 0.68415(5)
O7 O 0.9358(4) 1.0969(4) 0.65222(5)
O8 O 1.0000 1.0000 0.67123(7)
Gd1B Gd 1.174458(25) 1.082446(18) 0.677735(3)
Gd1A Gd 0.907988(18) 0.825542(25) 0.677735(3)
Gd1Z Gd 0.749113(18) 1.241321(18) 0.655598(3)
Gd1DA Gd 0.758679(18) 1.507791(25) 0.655598(3)
Gd1EA Gd 0.492209(25) 1.250887(18) 0.655598(3)
Gd1GA Gd 0.584221(18) 1.158875(25) 0.511068(3)
Gd1O Gd 0.415779(18) 0.841125(25) 0.488932(3)
Gd1IA Gd 1.250887(18) 1.492209(25) 0.844402(3)
Gd1K Gd 1.082446(18) 1.174458(25) 0.822265(3)
Gd1B_2 Gd 0.174458(25) 0.082446(18) 0.677735(3)
Gd1_2 Gd -0.082446(18) 0.092012(18) 0.677735(3)
Gd1DA_2 Gd -0.241321(18) 0.507791(25) 0.655598(3)
Gd1Z_2 Gd -0.250887(18) 0.241321(18) 0.655598(3)
Gd1N Gd 0.158875(25) 0.574655(18) 0.488932(3)
Gd1FA Gd -0.158875(25) 0.425345(18) 0.511068(3)
Gd1J Gd 0.825542(25) 0.907988(18) 0.822265(3)
Gd1EA_2 Gd 1.492209(25) 1.250887(18) 0.655598(3)
Gd1B_3 Gd 0.174458(25) 1.082446(18) 0.677735(3)
Cu1_2 Cu 1.3333 1.6667 0.625930(14)
Cu1I Cu 0.0000 1.0000 0.540737(14)
Cu1_3 Cu 1.3333 0.6667 0.625930(14)
Cu2A Cu 0.17790(8) 0.48327(10) 0.587100(9)
Cu2B Cu 0.51673(10) 0.69463(6) 0.587100(9)
Cu2I Cu 0.15543(8) 0.97204(6) 0.579567(9)
Cu2O Cu 1.02796(6) 1.18340(10) 0.579567(9)
Cu2Z Cu 1.36130(6) 1.51123(8) 0.746233(9)
Cu2DA Cu 0.48877(8) 0.85006(10) 0.746233(9)
Cu2IA Cu 0.63870(6) 1.14994(10) 0.753767(9)
Cu2O_2 Cu 0.02796(6) 0.18340(10) 0.579567(9)
Cu2N Cu -0.18340(10) 0.84457(8) 0.579567(9)
Cu2O_3 Cu 0.02796(6) 1.18340(10) 0.579567(9)
Cu2N_2 Cu 0.81660(10) 0.84457(8) 0.579567(9)
Cu2Y Cu 1.51123(8) 1.36130(6) 0.753767(9)
Cu2I_2 Cu 1.15543(8) 0.97204(6) 0.579567(9)
Cu2EA Cu 1.14994(10) 0.63870(6) 0.746233(9)
I1I I 0.0000 1.0000 0.568727(7)
I1I_2 I 1.0000 1.0000 0.568727(7)
I1_2 I 1.3333 1.6667 0.597940(7)
I1DA I 1.3334 1.6667 0.735393(7)
I1DA_2 I 0.3334 0.6667 0.735393(7)
I1HA I 0.6667 1.3334 0.764607(7)
I2A I 0.2126 0.33331(4) 0.5834
I2B I 0.66669(4) 0.87929(4) 0.5834
I2A_2 I 1.2126 1.33331(4) 0.5834
I2Y I 1.5459 1.54596(4) 0.7501
I2DA I 0.4541 1.00002(4) 0.7499
C1B C 1.1414(6) 1.2706(4) 0.66468(6)
C1Z C 0.9373(4) 1.4625(4) 0.66865(6)
C1EA C 0.5253(6) 1.0627(4) 0.66865(6)
C1A C 1.1292(4) 0.8586(6) 0.66468(6)
C1B_2 C 0.1414(6) 0.2706(4) 0.66468(6)
C2B C 1.1788(6) 1.3563(4) 0.65410(7)
C2B_2 C 0.1788(6) 0.3563(4) 0.65410(7)
C2A C 1.1775(4) 0.8212(6) 0.65410(7)
C3B C 1.1432(8) 1.4223(5) 0.65456(8)
C3B_2 C 0.1432(8) 0.4223(5) 0.65456(8)
C3A C 1.2791(6) 0.8568(8) 0.65456(8)
H1B H 1.0920 1.4115 0.6609
H1B_2 H 0.0920 0.4115 0.6609
H1A H 1.3195 0.9080 0.6609
C4B C 1.1831(8) 1.5046(5) 0.64563(8)
C4B_2 C 0.1831(8) 0.5046(5) 0.64563(8)
C4A C 0.3215(6) 0.8169(8) 0.64563(8)
C4A_2 C 1.3215(6) 0.8169(8) 0.64563(8)
H2B H 1.1597 1.5500 0.6466
H2B_2 H 0.1597 0.5500 0.6466
H2A H 1.3903 0.8403 0.6466
C5B C 1.2829(7) 1.4551(5) 0.63469(7)
C5B_2 C 0.2829(7) 0.4551(5) 0.63469(7)
C5A C 0.1722(5) 0.7171(7) 0.63469(7)
C5A_2 C 1.1722(5) 0.7171(7) 0.63469(7)
H3B H 1.3280 1.4632 0.6275
H3B_2 H 0.3280 0.4632 0.6275
H3A H 1.1352 0.6720 0.6275
C6B C 1.2506(7) 1.3734(5) 0.64376(8)
C6B_2 C 0.2506(7) 0.3734(5) 0.64376(8)
C6A C 1.1228(5) 0.7494(7) 0.64376(8)
H4B H 1.2767 1.3302 0.6430
H4B_2 H 0.2767 0.3302 0.6430
H4A H 1.0535 0.7233 0.6430
C7DA C 0.8077(5) 0.8819(7) 0.70121(6)
C7Z C 1.0743(5) 1.1923(5) 0.70121(6)
C7A C 0.8590(5) 1.4514(7) 0.63212(6)
C7EA C 1.1181(7) 0.9257(5) 0.70121(6)
C7A_2 C -0.1410(5) 0.4514(7) 0.63212(6)
C7IA C 0.9257(5) 1.1181(7) 0.79879(6)
C8Z C 1.1442(4) 1.2673(4) 0.71192(6)
C8DA C 0.7327(4) 0.8768(6) 0.71192(6)
C8A C -0.0660(4) 0.4565(6) 0.62141(6)
C8IA C 0.8558(4) 1.1232(6) 0.78808(6)
C8EA C 1.1232(6) 0.8558(4) 0.71192(6)
C9Z C 1.2474(5) 1.3081(5) 0.71078(7)
C9DA C 0.6919(5) 0.9392(7) 0.71078(7)
C9A C -0.0252(5) 0.3941(7) 0.62255(7)
C9IA C 0.7526(5) 1.0608(7) 0.78922(7)
C9EA C 1.0608(7) 0.7526(5) 0.71078(7)
H5Z H 1.2747 1.2889 0.7033
H5DA H 0.7111 0.9857 0.7033
H5A H -0.0444 0.3476 0.6300
H5IA H 0.7253 1.0143 0.7967
H5EA H 1.0143 0.7253 0.7033
C10Z C 1.3087(5) 1.3771(5) 0.72076(7)
C10DA C 0.6229(5) 0.9315(7) 0.72076(7)
C10A C 0.0438(5) 0.4018(7) 0.61257(7)
C10I C 0.2895(5) 1.0247(5) 0.55410(7)
C10B C 0.5982(7) 0.6420(5) 0.61257(7)
C10IA C 0.6913(5) 1.0685(7) 0.77924(7)
C10EA C 1.0685(7) 0.6913(5) 0.72076(7)
H6Z H 1.3781 1.4039 0.7199
H6DA H 0.5961 0.9741 0.7199
H6A H 0.0706 0.3592 0.6134
H6IA H 0.6219 1.0259 0.7801
H6EA H 1.0259 0.6219 0.7199
C11Z C 1.1743(5) 1.3707(5) 0.73208(7)
C11DA C 0.6293(5) 0.8035(7) 0.73208(7)
C11A C 0.0374(5) 0.5298(7) 0.60125(7)
C11I C 0.2959(5) 1.1591(5) 0.56542(7)
C11B C 0.4702(7) 0.5076(5) 0.60125(7)
C11IA C 0.8257(5) 1.1965(7) 0.76792(7)
C11EA C 1.1965(7) 0.8257(5) 0.73208(7)
H7Z H 1.1486 1.3932 0.7392
H7DA H 0.6068 0.7553 0.7392
H7A H 0.0599 0.5780 0.5941
H7IA H 0.8514 1.2447 0.7608
H7EA H 1.2447 0.8514 0.7392
C12Z C 1.1079(5) 1.3012(5) 0.72259(7)
C12DA C 0.6988(5) 0.8066(7) 0.72259(7)
C12A C -0.0321(5) 0.5267(7) 0.61074(7)
C12IA C 0.8921(5) 1.1934(7) 0.77741(7)
C12EA C 1.1934(7) 0.8921(5) 0.72259(7)
H8Z H 1.0390 1.2774 0.7233
H8DA H 0.7226 0.7615 0.7233
H8A H -0.0559 0.5718 0.6100
H8IA H 0.9610 1.2385 0.7767
H8EA H 1.2385 0.9610 0.7233
C13IA C 0.7636(4) 1.1940(6) 0.68865(6)
C13O C 0.9030(4) 1.1394(6) 0.64469(6)
C13Y C 1.4303(4) 1.2364(4) 0.68865(6)
C13I C 1.2363(4) 1.0970(4) 0.64469(6)
C13Z C 1.2364(4) 1.4303(4) 0.81135(6)
C13A C 0.0970(4) 0.5273(6) 0.52198(6)
C13I_2 C 0.2363(4) 1.0970(4) 0.64469(6)
C14O C 0.9257(4) 1.1432(6) 0.62912(6)
C14IA C 0.7409(4) 1.1902(6) 0.70422(6)
C14Z C 1.2591(4) 1.4492(4) 0.79578(6)
C14A C 0.1159(4) 0.5235(6) 0.53755(6)
C14I C 1.2174(4) 1.0743(4) 0.62912(6)
C14Y C 1.4492(4) 1.2591(4) 0.70422(6)
C14I_2 C 0.2174(4) 1.0743(4) 0.62912(6)
C15O C 0.8636(4) 1.1475(6) 0.61856(6)
C15IA C 0.8030(4) 1.1859(6) 0.71478(6)
C15Z C 1.1970(4) 1.3828(5) 0.78522(6)
C15A C 0.0495(5) 0.5192(6) 0.54811(6)
C15I C 1.2838(5) 1.1364(4) 0.61856(6)
C15Y C 1.3828(5) 1.1970(4) 0.71478(6)
C15I_2 C 0.2838(5) 1.1364(4) 0.61856(6)
H9O H 0.8048 1.1475 0.6210
H9IA H 0.8618 1.1859 0.7124
H9Z H 1.1382 1.3240 0.7876
H9A H -0.0093 0.5192 0.5457
H9I H 1.3426 1.1952 0.6210
H9Y H 1.3240 1.1382 0.7124
H9I_2 H 0.3426 1.1952 0.6210
C16O C 0.8907(5) 1.1518(7) 0.60445(7)
C16IA C 0.7759(5) 1.1816(7) 0.72889(7)
C16A C 0.0723(5) 0.5149(7) 0.56222(7)
C16I C 0.2610(5) 1.1093(5) 0.60445(7)
C16B C 0.4851(7) 0.5574(5) 0.56222(7)
C16Z C 1.2241(5) 1.4056(5) 0.77111(7)
C16I_2 C 1.2610(5) 1.1093(5) 0.60445(7)
C16Y C 1.4056(5) 1.2241(5) 0.72889(7)
H10O H 0.8481 1.1536 0.5975
H10IA H 0.8185 1.1798 0.7359
H10Z H 1.1815 1.3612 0.7641
H10A H 0.0279 0.5131 0.5692
H10I H 1.3054 1.1519 0.5975
H10Y H 1.3612 1.1815 0.7359
H10I_2 H 0.3054 1.1519 0.5975
C17O C 1.0344(5) 1.1493(7) 0.61045(7)
C17IA C 0.6322(5) 1.1841(7) 0.72289(7)
C17A C 0.2185(5) 0.5174(7) 0.55622(7)
C17I C 0.1148(5) 0.9656(5) 0.61045(7)
C17B C 0.4826(7) 0.7011(5) 0.55622(7)
C17Z C 1.3678(5) 1.5518(5) 0.77711(7)
C17I_2 C 1.1148(5) 0.9656(5) 0.61045(7)
C17Y C 1.5518(5) 1.3678(5) 0.72289(7)
H11O H 1.0939 1.1512 0.6078
H11IA H 0.5727 1.1822 0.7256
H11Z H 1.4273 1.6094 0.7744
H11A H 0.2761 0.5155 0.5589
H11I H 1.0572 0.9061 0.6078
H11Y H 1.6094 1.4273 0.7256
H11I_2 H 0.0572 0.9061 0.6078
C18O C 1.0119(5) 1.1425(7) 0.62479(6)
C18IA C 0.6547(5) 1.1909(7) 0.70855(6)
C18Z C 1.3453(5) 1.5361(5) 0.79145(6)
C18A C 0.2028(5) 0.5242(7) 0.54188(6)
C18I C 1.1305(5) 0.9881(5) 0.62479(6)
C18Y C 1.5361(5) 1.3453(5) 0.70855(6)
C18I_2 C 0.1305(5) 0.9881(5) 0.62479(6)
H12O H 1.0541 1.1375 0.6315
H12IA H 0.6125 1.1959 0.7019
H12Z H 1.3875 1.5833 0.7981
H12A H 0.2500 0.5292 0.5352
H12I H 1.0833 0.9459 0.6315
H12Y H 1.5833 1.3875 0.7019
H12I_2 H 0.0833 0.9459 0.6315
N1B N 0.2526(6) 0.5234(4) 0.63579(6)
N1A N 0.2708(4) 0.7474(6) 0.63579(6)
N1B_2 N 1.2526(6) 1.5234(4) 0.63579(6)
N1_2 N 1.4766(4) 1.7292(4) 0.63579(6)
N1A_2 N 1.2708(4) 1.7474(6) 0.63579(6)
N1A_3 N 1.2708(4) 0.7474(6) 0.63579(6)
N2A N 0.0744(4) 0.4676(6) 0.60178(6)
N2I N 0.2589(4) 1.0599(4) 0.56489(6)
N2B N 0.5324(6) 0.6068(4) 0.60178(6)
N2Z N 1.2735(4) 1.4077(4) 0.73155(6)
N2DA N 0.5923(4) 0.8657(6) 0.73155(6)
N2O N 0.9401(4) 1.1991(6) 0.56489(6)
N2IA N 0.7265(4) 1.1343(6) 0.76845(6)
N2EA N 1.1343(6) 0.7265(4) 0.73155(6)
N3A N 0.1558(4) 0.5133(6) 0.56657(5)
N3I N 0.1775(4) 1.0242(4) 0.60010(5)
N3B N 0.4867(6) 0.6425(4) 0.56657(5)
N3O N 0.9758(4) 1.1534(6) 0.60010(5)
N3IA N 0.6908(4) 1.1800(6) 0.73324(5)
N3Z N 1.3092(4) 1.4891(4) 0.76676(5)
N3DA N 0.5109(4) 0.8200(6) 0.76676(5)
N3I_2 N 1.1775(4) 1.0242(4) 0.60010(5)
N3Y N 1.4891(4) 1.3092(4) 0.73324(5)
O2B O 1.1962(5) 1.2331(3) 0.66686(5)
O2Z O 0.8998(3) 1.3702(4) 0.66647(5)
O2A O 1.0369(4) 0.8038(5) 0.66686(5)
O2DA O 0.6298(4) 1.5295(5) 0.66647(5)
O2EA O 0.4705(5) 1.1002(3) 0.66647(5)
O2GA O 0.4336(3) 1.1371(5) 0.50019(5)
O2O O 0.5664(3) 0.8629(5) 0.49981(5)
O2B_2 O 0.1962(5) 0.2331(3) 0.66686(5)
O3A O 0.7546(3) 0.8137(4) 0.67070(6)
O3Z O 0.6076(3) 1.0879(3) 0.66263(6)
O3B O 1.1863(4) 0.9409(3) 0.67070(6)
O3DA O 0.9121(3) 1.5196(4) 0.66263(6)
O3EA O 0.4804(4) 1.3924(3) 0.66263(6)
O3GA O 0.7258(3) 1.1470(4) 0.50403(6)
O3O O 0.2742(3) 0.8530(4) 0.49597(6)
O3_2 O 0.0591(3) 0.2454(3) 0.67070(6)
O4EA O 0.5634(6) 1.1918(4) 0.63937(5)
O4B O 1.1033(6) 1.1415(4) 0.69396(5)
O4Z O 0.8082(4) 1.3715(4) 0.63937(5)
O4A O 1.0382(4) 0.8967(6) 0.69396(5)
O4DA O 0.6285(4) 1.4366(6) 0.63937(5)
O4GA O 0.5252(4) 1.2300(6) 0.52729(5)
O4O O 0.4748(4) 0.7700(6) 0.47271(5)
O4Z_2 O -0.1918(4) 0.3715(4) 0.63937(5)
O4J O 0.8967(6) 1.0382(4) 0.80604(5)
O5Z O 0.6773(3) 1.1492(4) 0.63385(5)
O5A O 0.8159(4) 0.8053(5) 0.69948(5)
O5B O 1.1947(5) 1.0106(3) 0.69948(5)
O5DA O 0.8508(4) 1.5280(5) 0.63385(5)
O5EA O 0.4720(5) 1.3227(3) 0.63385(5)
O5GA O 0.6561(3) 1.1386(5) 0.53281(5)
O5O O 0.3439(3) 0.8614(5) 0.46719(5)
O5DA_2 O -0.1492(4) 0.5280(5) 0.63385(5)
O5K O 1.0106(3) 1.1947(5) 0.80052(5)
O6GA O 0.4791(3) 0.9924(5) 0.51748(5)
O6Z O 0.8543(3) 1.1800(4) 0.64918(5)
O6B O 1.3409(5) 1.1876(3) 0.68415(5)
O6A O 0.8467(4) 0.6591(5) 0.68415(5)
O6DA O 0.8200(4) 1.6742(5) 0.64918(5)
O6EA O 0.3258(5) 1.1457(3) 0.64918(5)
O6O O 0.5209(3) 1.0076(5) 0.48252(5)
O6K O 1.1876(3) 1.3409(5) 0.81585(5)
O6FA O 0.0076(5) 0.4866(4) 0.51748(5)
O6EA_2 O 1.3258(5) 1.1457(3) 0.64918(5)
O7O O 0.3975(4) 0.8278(6) 0.51445(5)
O7Z O 0.7309(4) 1.2364(4) 0.68111(5)
O7B O 1.1611(6) 1.0642(4) 0.65222(5)
O7A O 0.9031(4) 0.8389(6) 0.65222(5)
O7DA O 0.7636(4) 1.4944(6) 0.68111(5)
O7EA O 0.5056(6) 1.2691(4) 0.68111(5)
O7GA O 0.6025(4) 1.1722(6) 0.48555(5)
O7IA O 1.2691(4) 1.5056(6) 0.81889(5)
O7N O 0.1722(6) 0.5698(4) 0.51445(5)
O7EA_2 O 1.5056(6) 1.2691(4) 0.68111(5)
O7B_2 O 0.1611(6) 1.0642(4) 0.65222(5)
O8DA O 0.6667 1.3333 0.66210(7)
O8FA O 0.6667 1.3333 0.50456(7)
O8I O 0.3333 0.6667 0.49544(7)
loop_
_geom_bond_atom_site_label_1
_geom_bond_atom_site_label_2
_geom_bond_site_symmetry_1
_geom_bond_site_symmetry_2
Gd1 O2 1_555 1_555
Cu1 I1 1_555 1_555
Cu2 I1 1_555 1_555
I1 Cu2A 1_555 1_555
I2 Cu2 1_555 1_555
C1 C2 1_555 1_555
C2 C3 1_555 1_555
C3 H1 1_555 1_555
C4 C3 1_555 1_555
H2 C4 1_555 1_555
C5 H3 1_555 1_555
C6 C2 1_555 1_555
H4 C6 1_555 1_555
C7 C8 1_555 1_555
C8 C9 1_555 1_555
C9 H5 1_555 1_555
C10 C9 1_555 1_555
H6 C10 1_555 1_555
C11 H7 1_555 1_555
C12 C8 1_555 1_555
H8 C12 1_555 1_555
C13 C14 1_555 1_555
C14 C15 1_555 1_555
C15 H9 1_555 1_555
C16 C15 1_555 1_555
H10 C16 1_555 1_555
C17 H11 1_555 1_555
C18 C14 1_555 1_555
H12 C18 1_555 1_555
N1 Cu1 1_555 1_555
N2 Cu2 1_555 1_555
N3 Cu2 1_555 1_555
O2 C1 1_555 1_555
O3 Gd1 1_555 1_555
O4 Gd1 1_555 1_555
O5 Gd1 1_555 1_555
O6 Gd1 1_555 1_555
O7 Gd1 1_555 1_555
O8 Gd1 1_555 1_555
Gd1B O8 1_555 1_555
Gd1A O8 1_555 1_555
Gd1Z O2Z 1_555 1_555
Gd1DA O2DA 1_555 1_555
Gd1EA O2EA 1_555 1_555
Gd1GA O2GA 1_555 1_555
Gd1O O2O 1_555 1_555
Gd1IA O7IA 1_555 1_555
Gd1K O5K 1_555 1_555
Gd1B_2 O2B_2 1_555 1_555
Gd1_2 O3_2 1_555 1_555
Gd1DA_2 O5DA_2 1_555 1_555
Gd1Z_2 O4Z_2 1_555 1_555
Gd1N O7N 1_555 1_555
Gd1FA O6FA 1_555 1_555
Gd1J O4J 1_555 1_555
Gd1EA_2 O6EA_2 1_555 1_555
Gd1B_3 O7B_2 1_555 1_555
Cu1_2 I1_2 1_555 1_555
Cu1I I1I 1_555 1_555
Cu1_3 N1A_3 1_555 1_555
Cu2A I2A 1_555 1_555
Cu2B I1 1_555 1_555
Cu2I I2 1_555 1_555
Cu2O I1I_2 1_555 1_555
Cu2Z I1DA 1_555 1_555
Cu2DA I1DA_2 1_555 1_555
Cu2IA I1HA 1_555 1_555
Cu2O_2 I2A 1_555 1_555
Cu2N I1I 1_555 1_555
Cu2O_3 I1I 1_555 1_555
Cu2N_2 I2B 1_555 1_555
Cu2Y I2Y 1_555 1_555
Cu2I_2 N3I_2 1_555 1_555
Cu2EA N2EA 1_555 1_555
I1I Cu2I 1_555 1_555
I2B Cu2B 1_555 1_555
I2A_2 Cu2O 1_555 1_555
I2Y Cu2Z 1_555 1_555
I2DA Cu2DA 1_555 1_555
C1B O3 1_555 1_555
C1Z O2Z 1_555 1_555
C1EA O3Z 1_555 1_555
C1A C2A 1_555 1_555
C1B_2 C2B_2 1_555 1_555
C2B C1B 1_555 1_555
C2B_2 C3B_2 1_555 1_555
C2A C3A 1_555 1_555
C3B C2B 1_555 1_555
C3B_2 H1B_2 1_555 1_555
C3A H1A 1_555 1_555
H1B C3B 1_555 1_555
C4B C3B 1_555 1_555
C4B_2 C3B_2 1_555 1_555
C4A N1A 1_555 1_555
C4A_2 C3A 1_555 1_555
H2B C4B 1_555 1_555
H2B_2 C4B_2 1_555 1_555
H2A C4A_2 1_555 1_555
C5B H3B 1_555 1_555
C5B_2 H3B_2 1_555 1_555
C5A N1A 1_555 1_555
C5A_2 H3A 1_555 1_555
C6B C2B 1_555 1_555
C6B_2 C2B_2 1_555 1_555
C6A C2A 1_555 1_555
H4B C6B 1_555 1_555
H4B_2 C6B_2 1_555 1_555
H4A C6A 1_555 1_555
C7DA O4 1_555 1_555
C7Z O5 1_555 1_555
C7A O4Z 1_555 1_555
C7EA C8EA 1_555 1_555
C7A_2 C8A 1_555 1_555
C7IA C8IA 1_555 1_555
C8Z C7Z 1_555 1_555
C8DA C7DA 1_555 1_555
C8A C9A 1_555 1_555
C8IA C9IA 1_555 1_555
C8EA C9EA 1_555 1_555
C9Z C8Z 1_555 1_555
C9DA C8DA 1_555 1_555
C9A H5A 1_555 1_555
C9IA H5IA 1_555 1_555
C9EA H5EA 1_555 1_555
H5Z C9Z 1_555 1_555
H5DA C9DA 1_555 1_555
C10Z C9Z 1_555 1_555
C10DA C9DA 1_555 1_555
C10A C9A 1_555 1_555
C10I N2I 1_555 1_555
C10B N2B 1_555 1_555
C10IA C9IA 1_555 1_555
C10EA C9EA 1_555 1_555
H6Z C10Z 1_555 1_555
H6DA C10DA 1_555 1_555
H6A C10A 1_555 1_555
H6IA C10IA 1_555 1_555
H6EA C10EA 1_555 1_555
C11Z H7Z 1_555 1_555
C11DA H7DA 1_555 1_555
C11A H7A 1_555 1_555
C11I N2I 1_555 1_555
C11B N2B 1_555 1_555
C11IA H7IA 1_555 1_555
C11EA H7EA 1_555 1_555
C12Z C8Z 1_555 1_555
C12DA C8DA 1_555 1_555
C12A C8A 1_555 1_555
C12IA C8IA 1_555 1_555
C12EA C8EA 1_555 1_555
H8Z C12Z 1_555 1_555
H8DA C12DA 1_555 1_555
H8A C12A 1_555 1_555
H8IA C12IA 1_555 1_555
H8EA C12EA 1_555 1_555
C13IA O6 1_555 1_555
C13O O7 1_555 1_555
C13Y C14Y 1_555 1_555
C13I C14I 1_555 1_555
C13Z C14Z 1_555 1_555
C13A C14A 1_555 1_555
C13I_2 C14I_2 1_555 1_555
C14O C13O 1_555 1_555
C14IA C13IA 1_555 1_555
C14Z C15Z 1_555 1_555
C14A C15A 1_555 1_555
C14I C15I 1_555 1_555
C14Y C15Y 1_555 1_555
C14I_2 C15I_2 1_555 1_555
C15O C14O 1_555 1_555
C15IA C14IA 1_555 1_555
C15Z H9Z 1_555 1_555
C15A H9A 1_555 1_555
C15I H9I 1_555 1_555
C15Y H9Y 1_555 1_555
C15I_2 H9I_2 1_555 1_555
H9O C15O 1_555 1_555
H9IA C15IA 1_555 1_555
C16O C15O 1_555 1_555
C16IA C15IA 1_555 1_555
C16A C15A 1_555 1_555
C16I C15I_2 1_555 1_555
C16B N3B 1_555 1_555
C16Z C15Z 1_555 1_555
C16I_2 C15I 1_555 1_555
C16Y C15Y 1_555 1_555
H10O C16O 1_555 1_555
H10IA C16IA 1_555 1_555
H10Z C16Z 1_555 1_555
H10A C16A 1_555 1_555
H10I C16I_2 1_555 1_555
H10Y C16Y 1_555 1_555
H10I_2 C16I 1_555 1_555
C17O H11O 1_555 1_555
C17IA H11IA 1_555 1_555
C17A H11A 1_555 1_555
C17I H11I_2 1_555 1_555
C17B N3B 1_555 1_555
C17Z H11Z 1_555 1_555
C17I_2 H11I 1_555 1_555
C17Y H11Y 1_555 1_555
C18O C14O 1_555 1_555
C18IA C14IA 1_555 1_555
C18Z C14Z 1_555 1_555
C18A C14A 1_555 1_555
C18I C14I 1_555 1_555
C18Y C14Y 1_555 1_555
C18I_2 C14I_2 1_555 1_555
H12O C18O 1_555 1_555
H12IA C18IA 1_555 1_555
H12Z C18Z 1_555 1_555
H12A C18A 1_555 1_555
H12I C18I 1_555 1_555
H12Y C18Y 1_555 1_555
H12I_2 C18I_2 1_555 1_555
N1B Cu1 1_555 1_555
N1A Cu1 1_555 1_555
N1B_2 Cu1_2 1_555 1_555
N1_2 Cu1_2 1_555 1_555
N1A_2 Cu1_2 1_555 1_555
N1A_3 C4A_2 1_555 1_555
N2A Cu2A 1_555 1_555
N2I Cu2I 1_555 1_555
N2B Cu2B 1_555 1_555
N2Z Cu2Z 1_555 1_555
N2DA Cu2DA 1_555 1_555
N2O Cu2O 1_555 1_555
N2IA Cu2IA 1_555 1_555
N2EA C10EA 1_555 1_555
N3A Cu2A 1_555 1_555
N3I Cu2I 1_555 1_555
N3B Cu2B 1_555 1_555
N3O Cu2O 1_555 1_555
N3IA Cu2IA 1_555 1_555
N3Z Cu2Z 1_555 1_555
N3DA Cu2DA 1_555 1_555
N3I_2 C16I_2 1_555 1_555
N3Y Cu2Y 1_555 1_555
O2B Gd1B 1_555 1_555
O2A Gd1A 1_555 1_555
O2B_2 C1B_2 1_555 1_555
O3A C1 1_555 1_555
O3Z Gd1Z 1_555 1_555
O3B Gd1B 1_555 1_555
O3DA Gd1DA 1_555 1_555
O3EA Gd1EA 1_555 1_555
O3GA Gd1GA 1_555 1_555
O3O Gd1O 1_555 1_555
O3_2 C1B_2 1_555 1_555
O4EA C7 1_555 1_555
O4B Gd1B 1_555 1_555
O4Z Gd1Z 1_555 1_555
O4A Gd1A 1_555 1_555
O4DA Gd1DA 1_555 1_555
O4GA Gd1GA 1_555 1_555
O4O Gd1O 1_555 1_555
O4Z_2 C7A_2 1_555 1_555
O4J C7IA 1_555 1_555
O5Z C7 1_555 1_555
O5A Gd1A 1_555 1_555
O5B Gd1B 1_555 1_555
O5DA Gd1DA 1_555 1_555
O5EA Gd1EA 1_555 1_555
O5GA Gd1GA 1_555 1_555
O5O Gd1O 1_555 1_555
O5DA_2 C7A_2 1_555 1_555
O5K C7IA 1_555 1_555
O6GA C13 1_555 1_555
O6Z Gd1Z 1_555 1_555
O6B Gd1B 1_555 1_555
O6A Gd1A 1_555 1_555
O6DA Gd1DA 1_555 1_555
O6EA Gd1EA 1_555 1_555
O6O Gd1O 1_555 1_555
O6K Gd1K 1_555 1_555
O6FA C13A 1_555 1_555
O6EA_2 C13I 1_555 1_555
O7O C13 1_555 1_555
O7Z Gd1Z 1_555 1_555
O7B Gd1B 1_555 1_555
O7A Gd1A 1_555 1_555
O7DA Gd1DA 1_555 1_555
O7EA Gd1EA 1_555 1_555
O7GA Gd1GA 1_555 1_555
O7IA C13Z 1_555 1_555
O7N C13A 1_555 1_555
O7EA_2 Gd1EA_2 1_555 1_555
O7B_2 C13I_2 1_555 1_555
O8DA Gd1Z 1_555 1_555
O8FA Gd1GA 1_555 1_555
O8I Gd1O 1_555 1_555
C4 N1 1_555 1_555
C5 C6 1_555 1_555
C5 N1 1_555 1_555
C10 N2 1_555 1_555
C11 C12 1_555 1_555
C11 N2 1_555 1_555
C16 N3 1_555 1_555
C17 C18 1_555 1_555
C17 N3 1_555 1_555
Gd1A O3A 1_555 1_555
Gd1Z O5Z 1_555 1_555
Gd1DA O8DA 1_555 1_555
Gd1EA O4EA 1_555 1_555
Gd1EA O8DA 1_555 1_555
Gd1GA O6GA 1_555 1_555
Gd1O O7O 1_555 1_555
Cu2IA I2DA 1_555 1_555
C1B O2B 1_555 1_555
C1A O2A 1_555 1_555
C1A O3B 1_555 1_555
C4B N1B_2 1_555 1_555
C4B_2 N1B 1_555 1_555
C5B C6B 1_555 1_555
C5B N1B_2 1_555 1_555
C5B_2 C6B_2 1_555 1_555
C5B_2 N1B 1_555 1_555
C5A_2 C6A 1_555 1_555
C5A_2 N1A_3 1_555 1_555
C7DA O5A 1_555 1_555
C7Z O4B 1_555 1_555
C7EA O4A 1_555 1_555
C7EA O5B 1_555 1_555
C10Z N2Z 1_555 1_555
C10DA N2DA 1_555 1_555
C10A N2A 1_555 1_555
C10IA N2IA 1_555 1_555
C11Z C12Z 1_555 1_555
C11Z N2Z 1_555 1_555
C11DA C12DA 1_555 1_555
C11DA N2DA 1_555 1_555
C11A C12A 1_555 1_555
C11A N2A 1_555 1_555
C11IA C12IA 1_555 1_555
C11IA N2IA 1_555 1_555
C11EA C12EA 1_555 1_555
C11EA N2EA 1_555 1_555
C13IA O7Z 1_555 1_555
C13O O6Z 1_555 1_555
C13Y O6B 1_555 1_555
C13Y O7EA_2 1_555 1_555
C13I O7B 1_555 1_555
C13Z O6K 1_555 1_555
C13I_2 O6EA 1_555 1_555
C16O N3O 1_555 1_555
C16IA N3IA 1_555 1_555
C16A N3A 1_555 1_555
C16I N3I 1_555 1_555
C16Z N3Z 1_555 1_555
C16Y N3Y 1_555 1_555
C17O C18O 1_555 1_555
C17O N3O 1_555 1_555
C17IA C18IA 1_555 1_555
C17IA N3IA 1_555 1_555
C17A C18A 1_555 1_555
C17A N3A 1_555 1_555
C17I C18I_2 1_555 1_555
C17I N3I 1_555 1_555
C17Z C18Z 1_555 1_555
C17Z N3Z 1_555 1_555
C17I_2 C18I 1_555 1_555
C17I_2 N3I_2 1_555 1_555
C17Y C18Y 1_555 1_555
C17Y N3Y 1_555 1_555

#END
