
#######################################################################
#
#                 Cambridge Crystallographic Data Centre
#                                CCDC 
#
#######################################################################
#
# If this CIF has been generated from an entry in the Cambridge 
# Structural Database, then it will include bibliographic, chemical, 
# crystal, experimental, refinement or atomic coordinate data resulting 
# from the CCDC's data processing and validation procedures.
#
#######################################################################

data_NITBOH
_symmetry_cell_setting           triclinic
_symmetry_space_group_name_H-M   'P -1'
_symmetry_Int_Tables_number      2
_space_group_name_Hall           '-P 1'
loop_
_symmetry_equiv_pos_site_id
_symmetry_equiv_pos_as_xyz
1 x,y,z
2 -x,-y,-z
_cell_length_a                   10.9196(2)
_cell_length_b                   14.3306(3)
_cell_length_c                   15.0364(3)
_cell_angle_alpha                113.9670(10)
_cell_angle_beta                 104.25
_cell_angle_gamma                100.6350(10)
_cell_volume                     1973.45
loop_
_atom_site_label
_atom_site_type_symbol
_atom_site_fract_x
_atom_site_fract_y
_atom_site_fract_z
P1 P 0.6019(3) 1.2340(2) -0.1362(2)
F1 F 0.6971(7) 1.2299(7) -0.2023(6)
F2 F 0.6480(8) 1.1436(6) -0.1149(7)
F3 F 0.7226(7) 1.3233(6) -0.0343(6)
F4 F 0.4818(7) 1.1425(6) -0.2393(6)
F5 F 0.5065(7) 1.2352(7) -0.0711(6)
F6 F 0.5554(8) 1.3226(6) -0.1594(7)
P2 P -0.3444(4) 0.5107(3) 0.3474(3)
F7 F -0.2628(10) 0.6175(7) 0.3517(8)
F8 F -0.3941(11) 0.4464(8) 0.2242(6)
F9 F -0.2175(10) 0.4751(9) 0.3524(11)
F10 F -0.2706(21) 0.5655(16) 0.4716(10)
F12 F -0.4781(19) 0.5286(22) 0.3599(21)
F14 F -0.3868(22) 0.3987(13) 0.3528(16)
N1 N 0.0125(9) 1.2706(9) -0.2851(7)
N2 N -0.1032(8) 1.0542(7) -0.3693(7)
N3 N -0.5893(8) 0.8350(7) -0.5339(7)
C1 C 0.0627(13) 1.3793(10) -0.2279(10)
C2 C 0.1896(12) 1.4323(10) -0.1528(10)
C3 C 0.2674(13) 1.3726(11) -0.1353(11)
C4 C 0.2182(10) 1.2596(12) -0.1949(9)
C5 C 0.0907(12) 1.2133(9) -0.2670(9)
C6 C 0.0317(11) 1.0932(9) -0.3290(8)
C7 C 0.1097(11) 1.0269(10) -0.3440(9)
C8 C 0.0486(11) 0.9138(9) -0.3996(9)
C9 C -0.0901(10) 0.8743(9) -0.4392(8)
C10 C -0.1612(10) 0.9467(9) -0.4223(8)
C11 C 0.0467(14) 0.7034(11) -0.4563(13)
C12 C -0.3106(10) 0.9075(8) -0.4617(9)
C13 C -0.3788(11) 0.9634(9) -0.4009(9)
C14 C -0.5163(11) 0.9260(8) -0.4417(9)
C15 C -0.5229(11) 0.7899(10) -0.5890(9)
C16 C -0.3843(11) 0.8184(9) -0.5557(9)
Ag1 Ag -0.19877(9) 1.18516(8) -0.39522(8)
S1 S 0.1547(3) 0.8363(3) -0.4117(2)
H1 H 0.0091 1.4205 -0.2396
H2 H 0.2216 1.5080 -0.1146
H3 H 0.3533 1.4067 -0.0838
H4 H 0.2711 1.2170 -0.1857
H5 H 0.2032 1.0568 -0.3173
H6 H -0.1350 0.7996 -0.4769
H7 H 0.0999 0.6581 -0.4486
H8 H -0.0081 0.6732 -0.5291
H9 H -0.0102 0.7071 -0.4154
H10 H -0.3321 1.0238 -0.3349
H11 H -0.5625 0.9655 -0.4038
H12 H -0.5719 0.7334 -0.6568
H13 H -0.3424 0.7774 -0.5970
Ag1A Ag -0.80123(9) 0.81484(8) -0.60478(8)
N3A N -0.4107(8) 1.1650(7) -0.4661(7)
S1A S -0.1547(3) 1.1637(3) -0.5883(2)
Ag1A_2 Ag 0.19877(9) 0.81484(8) -0.60478(8)
N4 N 1.2270(9) 1.2881(8) 0.0606(8)
N5 N 1.1545(9) 1.0695(7) -0.0672(7)
N6 N 1.4498(7) 0.8349(6) -0.1286(6)
C17 C 1.2688(13) 1.3961(10) 0.1106(10)
C18 C 1.1837(13) 1.4568(10) 0.1054(10)
C19 C 1.0551(15) 1.4011(11) 0.0409(12)
C20 C 1.0093(12) 1.2903(10) -0.0135(10)
C21 C 1.1005(11) 1.2350(10) -0.0028(9)
C22 C 1.0586(11) 1.1165(10) -0.0613(8)
C23 C 0.9237(10) 1.0535(9) -0.1073(9)
C24 C 0.8878(10) 0.9415(9) -0.1654(8)
C25 C 0.9903(11) 0.8970(9) -0.1723(8)
C26 C 1.1215(10) 0.9629(9) -0.1225(8)
C27 C 0.7100(14) 0.7356(12) -0.3097(12)
C28 C 1.2333(11) 0.9180(9) -0.1264(8)
C29 C 1.3500(11) 0.9747(9) -0.1281(8)
C30 C 1.4546(11) 0.9335(9) -0.1266(9)
C31 C 1.3351(12) 0.7843(9) -0.1264(8)
C32 C 1.2236(11) 0.8184(9) -0.1301(9)
Ag2 Ag 1.36637(9) 1.19514(8) 0.07952(7)
S2 S 0.7175(3) 0.8694(3) -0.2232(3)
H14 H 1.3598 1.4327 0.1511
H15 H 1.2140 1.5324 0.1446
H16 H 0.9954 1.4393 0.0331
H17 H 0.9193 1.2527 -0.0566
H18 H 0.8575 1.0865 -0.0991
H19 H 0.9701 0.8220 -0.2111
H20 H 0.7487 0.7383 -0.3605
H21 H 0.6177 0.6894 -0.3454
H22 H 0.7595 0.7071 -0.2699
H23 H 1.3574 1.0401 -0.1302
H24 H 1.5343 0.9747 -0.1241
H25 H 1.3296 0.7201 -0.1221
H26 H 1.1436 0.7752 -0.1349
Ag2A Ag 1.63363(9) 0.80486(8) -0.07952(7)
N6A N 1.5502(7) 1.1651(6) 0.1286(6)
S2A S 1.2825(3) 1.1306(3) 0.2232(3)
Ag2A_2 Ag 0.63363(9) 0.80486(8) -0.07952(7)
C33 C 0.2707(19) 0.5613(15) 0.4049(17)
C34 C 0.1486(22) 0.4709(15) 0.3396(16)
N7 N 0.0579(17) 0.3967(15) 0.2872(15)
H27 H 0.2671 0.6189 0.3870
H28 H 0.3463 0.5384 0.3938
H29 H 0.2804 0.5871 0.4775
F11? F -0.3239(23) 0.5871(16) 0.4647(11)
F13? F -0.4625(16) 0.5622(15) 0.3214(15)
F15? F -0.4615(21) 0.4179(16) 0.3327(19)
loop_
_geom_bond_atom_site_label_1
_geom_bond_atom_site_label_2
_geom_bond_site_symmetry_1
_geom_bond_site_symmetry_2
P1 F1 1_555 1_555
F2 P1 1_555 1_555
F3 P1 1_555 1_555
F4 P1 1_555 1_555
F5 P1 1_555 1_555
F6 P1 1_555 1_555
P2 F7 1_555 1_555
F8 P2 1_555 1_555
F9 P2 1_555 1_555
F10 P2 1_555 1_555
F12 P2 1_555 1_555
F14 P2 1_555 1_555
N1 C1 1_555 1_555
N2 C6 1_555 1_555
N3 C14 1_555 1_555
N4 C17 1_555 1_555
N5 C22 1_555 1_555
N6 C30 1_555 1_555
C1 C2 1_555 1_555
C2 C3 1_555 1_555
C3 C4 1_555 1_555
C4 C5 1_555 1_555
C5 N1 1_555 1_555
C6 C5 1_555 1_555
C7 C6 1_555 1_555
C8 C7 1_555 1_555
C9 C8 1_555 1_555
C10 N2 1_555 1_555
C11 S1 1_555 1_555
C12 C10 1_555 1_555
C13 C12 1_555 1_555
C14 C13 1_555 1_555
C15 N3 1_555 1_555
C16 C12 1_555 1_555
C17 C18 1_555 1_555
C18 C19 1_555 1_555
C19 C20 1_555 1_555
C20 C21 1_555 1_555
C21 N4 1_555 1_555
C22 C21 1_555 1_555
C23 C22 1_555 1_555
C24 C23 1_555 1_555
C25 C24 1_555 1_555
C26 N5 1_555 1_555
C27 S2 1_555 1_555
C28 C26 1_555 1_555
C29 C28 1_555 1_555
C30 C29 1_555 1_555
C31 N6 1_555 1_555
C32 C28 1_555 1_555
C33 C34 1_555 1_555
C34 N7 1_555 1_555
Ag1 N1 1_555 1_555
Ag2 N4 1_555 1_555
S1 C8 1_555 1_555
S2 C24 1_555 1_555
H1 C1 1_555 1_555
H2 C2 1_555 1_555
H3 C3 1_555 1_555
H4 C4 1_555 1_555
H5 C7 1_555 1_555
H6 C9 1_555 1_555
H7 C11 1_555 1_555
H8 C11 1_555 1_555
H9 C11 1_555 1_555
H10 C13 1_555 1_555
H11 C14 1_555 1_555
H12 C15 1_555 1_555
H13 C16 1_555 1_555
H14 C17 1_555 1_555
H15 C18 1_555 1_555
H16 C19 1_555 1_555
H17 C20 1_555 1_555
H18 C23 1_555 1_555
H19 C25 1_555 1_555
H20 C27 1_555 1_555
H21 C27 1_555 1_555
H22 C27 1_555 1_555
H23 C29 1_555 1_555
H24 C30 1_555 1_555
H25 C31 1_555 1_555
H26 C32 1_555 1_555
H27 C33 1_555 1_555
H28 C33 1_555 1_555
H29 C33 1_555 1_555
Ag1A N3 1_555 1_555
Ag2A N6 1_555 1_555
N3A Ag1 1_555 1_555
S1A Ag1 1_555 1_555
N6A Ag2 1_555 1_555
S2A Ag2 1_555 1_555
Ag1A_2 S1 1_555 1_555
Ag2A_2 S2 1_555 1_555
N2 Ag1 1_555 1_555
N5 Ag2 1_555 1_555
C9 C10 1_555 1_555
C15 C16 1_555 1_555
C25 C26 1_555 1_555
C31 C32 1_555 1_555

#END
