
#######################################################################
#
#                 Cambridge Crystallographic Data Centre
#                                CCDC 
#
#######################################################################
#
# If this CIF has been generated from an entry in the Cambridge 
# Structural Database, then it will include bibliographic, chemical, 
# crystal, experimental, refinement or atomic coordinate data resulting 
# from the CCDC's data processing and validation procedures.
#
#######################################################################

data_NITBIC
_symmetry_cell_setting           rhombohedral
_symmetry_space_group_name_H-M   'R -3 c'
_symmetry_Int_Tables_number      167
_space_group_name_Hall           '-R 3 2"c'
loop_
_symmetry_equiv_pos_site_id
_symmetry_equiv_pos_as_xyz
1 x,y,z
2 -y,x-y,z
3 -x+y,-x,z
4 y,x,1/2-z
5 2/3+x,1/3+y,1/3+z
6 2/3-y,1/3+x-y,1/3+z
7 2/3-x+y,1/3-x,1/3+z
8 2/3+y,1/3+x,5/6-z
9 1/3+x,2/3+y,2/3+z
10 1/3+y,2/3+x,1/6-z
11 x-y,-y,1/2-z
12 -x,-x+y,1/2-z
13 1/3-y,2/3+x-y,2/3+z
14 1/3-x+y,2/3-x,2/3+z
15 1/3+x-y,2/3-y,1/6-z
16 1/3-x,2/3-x+y,1/6-z
17 2/3+x-y,1/3-y,5/6-z
18 2/3-x,1/3-x+y,5/6-z
19 -x,-y,-z
20 y,-x+y,-z
21 x-y,x,-z
22 -y,-x,1/2+z
23 1/3-x,2/3-y,2/3-z
24 1/3+y,2/3-x+y,2/3-z
25 1/3+x-y,2/3+x,2/3-z
26 1/3-y,2/3-x,1/6+z
27 2/3-x,1/3-y,1/3-z
28 2/3-y,1/3-x,5/6+z
29 -x+y,y,1/2+z
30 x,x-y,1/2+z
31 2/3+y,1/3-x+y,1/3-z
32 2/3+x-y,1/3+x,1/3-z
33 2/3-x+y,1/3+y,5/6+z
34 2/3+x,1/3+x-y,5/6+z
35 1/3-x+y,2/3+y,1/6+z
36 1/3+x,2/3+x-y,1/6+z
_cell_length_a                   15.3539(4)
_cell_length_b                   15.3539(4)
_cell_length_c                   93.851(5)
_cell_angle_alpha                90
_cell_angle_beta                 90
_cell_angle_gamma                120
_cell_volume                     19160.5
loop_
_atom_site_label
_atom_site_type_symbol
_atom_site_fract_x
_atom_site_fract_y
_atom_site_fract_z
O8 O 0.8081(15) 1.3333 0.5833
Sm1 Sm 0.917092(18) 1.092726(18) 0.677610(3)
O1 O 0.7662(3) 0.9614(4) 0.66661(5)
O2 O 1.0000 1.0000 0.67115(6)
O3 O 1.0593(5) 1.2470(3) 0.67062(5)
O4 O 1.1022(6) 1.1423(4) 0.69406(5)
O5 O 0.9893(3) 1.1849(4) 0.69963(5)
O6 O 0.8108(4) 1.1541(7) 0.68423(5)
O7 O 0.9374(4) 1.0965(7) 0.65199(5)
C1 C 0.7283(4) 0.8697(4) 0.66454(6)
C2 C 0.6429(4) 0.8209(4) 0.65392(6)
C3 C 0.5767(5) 0.7196(5) 0.65452(8)
C4 C 0.6261(4) 0.8757(5) 0.64359(7)
H1 H 0.5869 0.6795 0.6610
C5 C 0.4951(6) 0.6775(6) 0.64552(8)
C6 C 0.5447(4) 0.8266(5) 0.63459(7)
H2 H 0.6693 0.9447 0.6428
H3 H 0.4501 0.6090 0.6464
N1 N 0.4759(4) 0.7283(4) 0.63560(5)
H4 H 0.5368 0.8637 0.6274
Cu1 Cu 0.3333 0.6667 0.625860(14)
I1 I 0.3333 0.6667 0.597920(6)
Cu2 Cu 0.30487(7) 0.82203(8) 0.587230(8)
I2 I 0.12075(4) 0.7874 0.5834
N2 N 0.3925(4) 0.9256(4) 0.60185(5)
N3 N 0.3568(4) 0.8436(4) 0.56677(5)
C7 C 0.3579(5) 0.9572(5) 0.61256(7)
C8 C 0.4912(5) 0.9606(5) 0.60138(7)
C9 C 0.4414(5) 0.9268(6) 0.56244(6)
C10 C 0.2981(5) 0.7810(5) 0.55648(6)
C11 C 0.4196(5) 1.0262(5) 0.62257(7)
H5 H 0.2888 0.9313 0.6133
H6 H 0.5162 0.9366 0.5943
C12 C 0.5579(5) 1.0304(5) 0.61080(7)
C13 C 0.4690(4) 0.9491(5) 0.54813(6)
H7 H 0.4835 0.9718 0.5694
H8 H 0.2390 0.7235 0.5592
C14 C 0.3200(5) 0.7965(5) 0.54218(6)
C15 C 0.5220(4) 1.0652(4) 0.62158(6)
H9 H 0.3925 1.0462 0.6299
H10 H 0.6265 1.0540 0.6100
C16 C 0.4066(4) 0.8831(4) 0.53782(6)
H11 H 0.5282 1.0071 0.5456
H12 H 0.2775 0.7498 0.5355
C17 C 0.5926(5) 1.1399(5) 0.63212(6)
C18 C 0.4294(4) 0.9014(4) 0.52218(6)
O4A O 0.8577(4) 0.9599(7) 0.69406(5)
Sm1A Sm 0.907274(18) 0.824366(25) 0.677610(3)
Sm1B Sm 1.175634(25) 1.082908(18) 0.677610(3)
O3A O 0.7530(3) 0.8123(6) 0.67062(5)
N1A N 0.2717(4) 0.7476(6) 0.63560(5)
N1B N 0.2524(6) 0.5241(4) 0.63560(5)
Cu2A Cu 0.17797(8) 0.48284(11) 0.587230(8)
Cu2B Cu 0.51716(11) 0.69513(7) 0.587230(8)
C5A C 0.3225(6) 0.8176(8) 0.64552(8)
C6A C 0.1734(5) 0.7181(6) 0.63459(7)
C5B C 0.1824(8) 0.5049(6) 0.64552(8)
C6B C 0.2819(6) 0.4553(4) 0.63459(7)
I2A I 0.2126 0.33335(4) 0.5834
N2A N 0.0744(4) 0.4669(6) 0.60185(5)
N3A N 0.1564(4) 0.5132(6) 0.56677(5)
I2B I 0.66665(4) 0.87925(4) 0.5834
N2B N 0.5331(6) 0.6075(4) 0.60185(5)
N3B N 0.4868(6) 0.6432(4) 0.56677(5)
C3A C 0.2804(5) 0.8571(7) 0.65452(8)
H3A H 0.3910 0.8411 0.6464
H4A H 0.1363 0.6731 0.6274
C4A C 0.1243(5) 0.7504(6) 0.64359(7)
C3B C 0.1429(7) 0.4233(5) 0.65452(8)
H3B H 0.1589 0.5499 0.6464
H4B H 0.3269 0.4632 0.6274
C4B C 0.2496(6) 0.3739(4) 0.64359(7)
Cu2I Cu 0.15536(8) 0.97154(7) 0.579437(8)
Cu2O Cu 0.02846(7) 0.18383(11) 0.579437(8)
C7A C 0.0428(5) 0.4007(7) 0.61256(7)
C8A C 0.0394(5) 0.5306(7) 0.60138(7)
C9A C 0.0732(6) 0.5146(8) 0.56244(6)
C10A C 0.2190(5) 0.5171(7) 0.55648(6)
Cu2N Cu 0.81617(11) 0.84464(8) 0.579437(8)
C7B C 0.5993(7) 0.6421(5) 0.61256(7)
C8B C 0.4694(7) 0.5088(5) 0.60138(7)
C9B C 0.4854(8) 0.5586(5) 0.56244(6)
C10B C 0.4829(7) 0.7019(5) 0.55648(6)
C2A C 0.1791(4) 0.8220(6) 0.65392(6)
H1A H 0.3205 0.9074 0.6610
H2A H 0.0553 0.7246 0.6428
C2B C 0.1780(6) 0.3571(4) 0.65392(6)
H1B H 0.0926 0.4131 0.6610
H2B H 0.2754 0.3307 0.6428
C11A C -0.0262(5) 0.3934(7) 0.62257(7)
H5A H 0.0687 0.3575 0.6133
H6A H 0.0634 0.5796 0.5943
C12A C -0.0304(5) 0.5275(7) 0.61080(7)
C13A C 0.0509(5) 0.5199(6) 0.54813(6)
H7A H 0.0282 0.5117 0.5694
H8A H 0.2765 0.5155 0.5592
C14A C 0.2035(5) 0.5235(7) 0.54218(6)
C11B C 0.6066(7) 0.5804(5) 0.62257(7)
H5B H 0.6425 0.7112 0.6133
H6B H 0.4204 0.4838 0.5943
C12B C 0.4725(7) 0.4421(5) 0.61080(7)
C13B C 0.4801(6) 0.5310(4) 0.54813(6)
H7B H 0.4883 0.5165 0.5694
H8B H 0.4845 0.7610 0.5592
C14B C 0.4765(7) 0.6800(5) 0.54218(6)
C1A C 0.1303(4) 0.8586(6) 0.66454(6)
C1B C 0.1414(6) 0.2717(4) 0.66454(6)
C15A C -0.0652(4) 0.4568(6) 0.62158(6)
H9A H -0.0462 0.3463 0.6299
H10A H -0.0540 0.5725 0.6100
C16A C 0.1169(4) 0.5235(6) 0.53782(6)
H11A H -0.0071 0.5211 0.5456
H12A H 0.2502 0.5277 0.5355
C15B C 0.5432(6) 0.4780(4) 0.62158(6)
H9B H 0.6537 0.6075 0.6299
H10B H 0.4275 0.3735 0.6100
C16B C 0.4765(6) 0.5934(4) 0.53782(6)
H11B H 0.4789 0.4718 0.5456
H12B H 0.4723 0.7225 0.5355
O1A O 0.0386(4) 0.8048(5) 0.66661(5)
O3B O 0.1877(6) 0.9407(5) 0.67062(5)
O1B O 0.1952(5) 0.2338(3) 0.66661(5)
O3_2 O 0.0593(5) 0.2470(3) 0.67062(5)
C17A C -0.1399(5) 0.4527(7) 0.63212(6)
C18A C 0.0986(4) 0.5280(6) 0.52218(6)
C17B C 0.5473(7) 0.4074(5) 0.63212(6)
C18B C 0.4720(6) 0.5706(4) 0.52218(6)
Sm1A_2 Sm -0.092726(18) 0.824366(25) 0.677610(3)
Sm1B_2 Sm 0.175634(25) 1.082908(18) 0.677610(3)
Sm1B_3 Sm 0.175634(25) 0.082908(18) 0.677610(3)
Sm1_2 Sm -0.082908(18) 0.092726(18) 0.677610(3)
O4Z O 0.5645(6) 1.1910(4) 0.63927(5)
O5Z O 0.6774(3) 1.1484(4) 0.63370(5)
O6GA O 0.4775(4) 0.9900(8) 0.51756(5)
O7O O 0.3959(4) 0.8258(8) 0.51468(5)
O4DA O -0.1910(4) 0.3734(7) 0.63927(5)
O5DA O -0.1484(4) 0.5289(5) 0.63370(5)
O6FA O 0.0100(8) 0.4874(7) 0.51756(5)
O7N O 0.1742(8) 0.5702(7) 0.51468(5)
O4EA O 0.6266(7) 0.4355(6) 0.63927(5)
O5EA O 0.4711(5) 0.3226(3) 0.63370(5)
O6AA O 0.5126(7) 0.5225(4) 0.51756(5)
O7I O 0.4298(7) 0.6041(4) 0.51468(5)
O4A_2 O -0.1423(4) 0.9599(7) 0.69406(5)
O5A O -0.1849(4) 0.8044(5) 0.69963(5)
O4B O 0.0401(7) 0.8978(6) 0.69406(5)
O3A_2 O -0.2470(3) 0.8123(6) 0.67062(5)
O6A O -0.1541(7) 0.6567(8) 0.68423(5)
O7A O -0.0965(7) 0.8409(8) 0.65199(5)
O2_2 O 0.0000 1.0000 0.67115(6)
O5B O 0.1956(5) 1.0107(3) 0.69963(5)
O4_2 O 0.1022(6) 0.1423(4) 0.69406(5)
O3B_2 O 0.1877(6) -0.0593(5) 0.67062(5)
O4B_2 O 0.0401(7) -0.1022(6) 0.69406(5)
O5B_2 O 0.1956(5) 0.0107(3) 0.69963(5)
O6B O 0.3433(8) 0.1892(4) 0.68423(5)
O7B O 0.1591(8) 0.0626(4) 0.65199(5)
O2_3 O 0.0000 0.0000 0.67115(6)
O5_2 O -0.0107(3) 0.1849(4) 0.69963(5)
Sm1EA Sm 0.491033(25) 1.250425(18) 0.655723(3)
Sm1Z Sm 0.749575(18) 1.240607(18) 0.655723(3)
Sm1GA Sm 0.583759(18) 1.157699(25) 0.510943(3)
Sm1O Sm 0.416241(18) 0.842301(25) 0.489057(3)
Sm1Z_2 Sm -0.250425(18) 0.240607(18) 0.655723(3)
Sm1DA Sm -0.240607(18) 0.508967(25) 0.655723(3)
Sm1FA Sm -0.157699(25) 0.426059(18) 0.510943(3)
Sm1N Sm 0.157699(25) 0.573941(18) 0.489057(3)
Sm1DA_2 Sm 0.759393(18) 0.508967(25) 0.655723(3)
Sm1EA_2 Sm 0.491033(25) 0.250425(18) 0.655723(3)
Sm1AA Sm 0.573941(18) 0.416241(18) 0.510943(3)
Sm1I Sm 0.426059(18) 0.583759(18) 0.489057(3)
C17DA C -0.1934(5) 0.8806(7) 0.70121(6)
Sm1_3 Sm -0.082908(18) 1.092726(18) 0.677610(3)
C17EA C 0.1194(7) 0.9259(5) 0.70121(6)
C17Z C 0.0741(5) 0.1934(5) 0.70121(6)
O1EA O 0.4715(5) 1.0995(3) 0.66672(5)
O3EA O 0.4790(6) 1.3926(5) 0.66271(5)
O4EA_2 O 0.6266(7) 1.4355(6) 0.63927(5)
O5EA_2 O 0.4711(5) 1.3226(3) 0.63370(5)
O6EA O 0.3234(8) 1.1441(4) 0.64910(5)
O7EA O 0.5076(8) 1.2707(4) 0.68134(5)
O2Z O 0.6667 1.3333 0.66218(6)
O3Z O 0.6074(5) 1.0863(3) 0.66271(5)
O1Z O -0.0995(3) 0.3719(4) 0.66672(5)
O2Z_2 O -0.3333 0.3333 0.66218(6)
O3Z_2 O -0.3926(5) 0.0863(3) 0.66271(5)
O4Z_2 O -0.4355(6) 0.1910(4) 0.63927(5)
O5Z_2 O -0.3226(3) 0.1484(4) 0.63370(5)
O6Z O -0.1441(4) 0.1792(7) 0.64910(5)
O7Z O -0.2707(4) 0.2368(7) 0.68134(5)
O3DA O -0.0863(3) 0.5210(6) 0.66271(5)
O1DA O -0.3719(4) 0.5285(5) 0.66672(5)
O4EA_3 O -0.3734(7) 0.4355(6) 0.63927(5)
O6DA O -0.1792(7) 0.6766(8) 0.64910(5)
O7DA O -0.2368(7) 0.4924(8) 0.68134(5)
C15DA C -0.2681(4) 0.8765(6) 0.71175(6)
C15EA C 0.1235(6) 0.8553(4) 0.71175(6)
C15Z C 0.1447(4) 0.2681(4) 0.71175(6)
C1EA C 0.5253(6) 1.0616(4) 0.66879(6)
C1Z C -0.0616(4) 0.4636(4) 0.66879(6)
Sm1EA_3 Sm -0.508967(25) 0.250425(18) 0.655723(3)
C1DA C -0.4636(4) 0.4747(6) 0.66879(6)
C11DA C -0.3071(5) 0.9399(7) 0.71076(7)
C12DA C -0.3029(5) 0.8058(7) 0.72253(7)
C11EA C 0.0601(7) 0.7529(5) 0.71076(7)
C12EA C 0.1942(7) 0.8912(5) 0.72253(7)
C11Z C 0.2471(5) 0.3071(5) 0.71076(7)
C12Z C 0.1088(5) 0.3029(5) 0.72253(7)
C2EA C 0.4887(6) 0.9762(4) 0.67941(6)
C2Z C 0.0238(4) 0.5124(4) 0.67941(6)
O3EA_2 O -0.5210(6) 0.3926(5) 0.66271(5)
C2DA C -0.5124(4) 0.5113(6) 0.67941(6)
H9DA H -0.2871 0.9870 0.7034
C7DA C -0.3761(5) 0.9326(7) 0.72077(7)
C8DA C -0.3727(5) 0.8027(7) 0.73195(7)
H10DA H -0.2793 0.7608 0.7233
H9EA H 0.0130 0.7258 0.7034
C7EA C 0.0674(7) 0.6912(5) 0.72077(7)
C8EA C 0.1973(7) 0.8245(5) 0.73195(7)
H10EA H 0.2392 0.9598 0.7233
H9Z H 0.2742 0.2871 0.7034
C7Z C 0.3088(5) 0.3761(5) 0.72077(7)
C8Z C 0.1755(5) 0.3727(5) 0.73195(7)
H10Z H 0.0402 0.2793 0.7233
C3EA C 0.5238(7) 0.9100(5) 0.67881(8)
C4EA C 0.4171(6) 0.9594(4) 0.68974(7)
C3Z C 0.0900(5) 0.6137(5) 0.67881(8)
C4Z C 0.0406(4) 0.4576(5) 0.68974(7)
C3DA C -0.6137(5) 0.4762(7) 0.67881(8)
C4DA C -0.4576(5) 0.5829(6) 0.68974(7)
H5DA H -0.4020 0.9758 0.7200
N2DA N -0.4077(4) 0.8664(6) 0.73148(5)
H6DA H -0.3967 0.7537 0.7390
H5EA H 0.0242 0.6221 0.7200
N2EA N 0.1336(6) 0.7258(4) 0.73148(5)
H6EA H 0.2463 0.8495 0.7390
H5Z H 0.3779 0.4020 0.7200
N2Z N 0.2742(4) 0.4077(4) 0.73148(5)
H6Z H 0.1505 0.3967 0.7390
H1EA H 0.5741 0.9202 0.6723
C5EA C 0.4843(8) 0.8284(6) 0.68781(8)
C6EA C 0.3848(6) 0.8780(4) 0.69874(7)
H2EA H 0.3913 1.0026 0.6905
H1Z H 0.0798 0.6538 0.6723
C5Z C 0.1716(6) 0.6558(6) 0.68781(8)
C6Z C 0.1220(4) 0.5067(5) 0.69874(7)
H2Z H -0.0026 0.3886 0.6905
H1DA H -0.6538 0.4259 0.6723
C5DA C -0.6558(6) 0.5157(8) 0.68781(8)
C6DA C -0.5067(5) 0.6152(6) 0.69874(7)
H2DA H -0.3886 0.6087 0.6905
Cu2DA Cu -0.51130(8) 0.85049(11) 0.746103(8)
Cu2EA Cu 0.14951(11) 0.63820(7) 0.746103(8)
Cu2Z Cu 0.36180(7) 0.51130(8) 0.746103(8)
H3EA H 0.5078 0.7834 0.6869
N1EA N 0.4143(6) 0.8092(4) 0.69773(5)
H4EA H 0.3398 0.8701 0.7059
H3Z H 0.2166 0.7243 0.6869
N1Z N 0.1908(4) 0.6050(4) 0.69773(5)
H4Z H 0.1299 0.4696 0.7059
H3DA H -0.7243 0.4922 0.6869
N1DA N -0.6050(4) 0.5857(6) 0.69773(5)
H4DA H -0.4696 0.6602 0.7059
N3DA N -0.4897(4) 0.8201(6) 0.76656(5)
I1Z I -0.6666 0.6666 0.735413(6)
I2DA I -0.5459 0.99998(4) 0.7499
I1Z_2 I 0.3334 0.6666 0.735413(6)
N3EA N 0.1799(6) 0.6901(4) 0.76656(5)
I2EA I 0.00002(4) 0.45408(4) 0.7499
N3Z N 0.3099(4) 0.4897(4) 0.76656(5)
I2Y I 0.5459 0.54592(4) 0.7501
Cu1Z Cu 0.3334 0.6666 0.707473(14)
Cu1Z_2 Cu -0.6666 0.6666 0.707473(14)
C9DA C -0.4065(6) 0.8187(8) 0.77089(6)
C10DA C -0.5523(5) 0.8162(7) 0.77685(6)
Cu2DA_2 Cu 0.48870(8) 0.85049(11) 0.746103(8)
C9EA C 0.1813(8) 0.7747(5) 0.77089(6)
C10EA C 0.1838(7) 0.6314(5) 0.77685(6)
C9Z C 0.2253(5) 0.4065(6) 0.77089(6)
C10Z C 0.3686(5) 0.5523(5) 0.77685(6)
N1DA_2 N 0.3950(4) 0.5857(6) 0.69773(5)
C13DA C -0.3842(5) 0.8134(6) 0.78520(6)
H7DA H -0.3615 0.8216 0.7639
H8DA H -0.6098 0.8178 0.7741
C14DA C -0.5368(5) 0.8098(7) 0.79115(6)
C13EA C 0.1866(6) 0.8023(4) 0.78520(6)
H7EA H 0.1784 0.8168 0.7639
H8EA H 0.1822 0.5723 0.7741
C14EA C 0.1902(7) 0.6533(5) 0.79115(6)
C13Z C 0.1977(4) 0.3842(5) 0.78520(6)
H7Z H 0.1832 0.3615 0.7639
H8Z H 0.4277 0.6098 0.7741
C14Z C 0.3467(5) 0.5368(5) 0.79115(6)
C16DA C -0.4502(4) 0.8098(6) 0.79551(6)
H11DA H -0.3262 0.8122 0.7877
H12DA H -0.5835 0.8056 0.7978
C16EA C 0.1902(6) 0.7399(4) 0.79551(6)
H11EA H 0.1878 0.8615 0.7877
H12EA H 0.1944 0.6108 0.7978
C16Z C 0.2601(4) 0.4502(4) 0.79551(6)
H11Z H 0.1385 0.3262 0.7877
H12Z H 0.3892 0.5835 0.7978
C18DA C -0.4319(4) 0.8053(6) 0.81115(6)
C18EA C 0.1947(6) 0.7627(4) 0.81115(6)
C18Z C 0.2373(4) 0.4319(4) 0.81115(6)
O6J O -0.3433(8) 0.8459(7) 0.81577(5)
O7HA O -0.5076(8) 0.7632(7) 0.81866(5)
O6C O 0.1541(7) 0.8108(4) 0.81577(5)
O7Y O 0.2368(7) 0.7293(4) 0.81866(5)
O6K O 0.1892(4) 0.3433(8) 0.81577(5)
O7IA O 0.2707(4) 0.5076(8) 0.81866(5)
Sm1J Sm -0.175634(25) 0.907274(18) 0.822390(3)
Sm1HA Sm -0.491033(25) 0.759393(18) 0.844277(3)
Sm1C Sm 0.092726(18) 0.917092(18) 0.822390(3)
Sm1Y Sm 0.240607(18) 0.749575(18) 0.844277(3)
Sm1K Sm 0.082908(18) 0.175634(25) 0.822390(3)
Sm1IA Sm 0.250425(18) 0.491033(25) 0.844277(3)
loop_
_geom_bond_atom_site_label_1
_geom_bond_atom_site_label_2
_geom_bond_site_symmetry_1
_geom_bond_site_symmetry_2
Sm1 O1 1_555 1_555
O1 C1 1_555 1_555
O2 Sm1 1_555 1_555
O3 Sm1 1_555 1_555
O4 Sm1 1_555 1_555
O5 Sm1 1_555 1_555
O6 Sm1 1_555 1_555
O7 Sm1 1_555 1_555
C1 C2 1_555 1_555
C2 C3 1_555 1_555
C3 H1 1_555 1_555
C4 C2 1_555 1_555
C5 C3 1_555 1_555
C6 C4 1_555 1_555
H2 C4 1_555 1_555
H3 C5 1_555 1_555
N1 C5 1_555 1_555
H4 C6 1_555 1_555
Cu1 N1 1_555 1_555
I1 Cu1 1_555 1_555
Cu2 I1 1_555 1_555
I2 Cu2 1_555 1_555
N2 Cu2 1_555 1_555
N3 Cu2 1_555 1_555
C7 N2 1_555 1_555
C8 N2 1_555 1_555
C9 N3 1_555 1_555
C10 N3 1_555 1_555
C11 C7 1_555 1_555
H5 C7 1_555 1_555
H6 C8 1_555 1_555
C12 C8 1_555 1_555
C13 C9 1_555 1_555
H7 C9 1_555 1_555
H8 C10 1_555 1_555
C14 C10 1_555 1_555
C15 C11 1_555 1_555
H9 C11 1_555 1_555
H10 C12 1_555 1_555
C16 C13 1_555 1_555
H11 C13 1_555 1_555
H12 C14 1_555 1_555
C17 C15 1_555 1_555
C18 C16 1_555 1_555
O4A Sm1 1_555 1_555
Sm1A O2 1_555 1_555
Sm1B O2 1_555 1_555
O3A C1 1_555 1_555
N1A Cu1 1_555 1_555
N1B Cu1 1_555 1_555
Cu2A I1 1_555 1_555
Cu2B I1 1_555 1_555
C5A N1A 1_555 1_555
C6A N1A 1_555 1_555
C5B N1B 1_555 1_555
C6B N1B 1_555 1_555
I2A Cu2A 1_555 1_555
N2A Cu2A 1_555 1_555
N3A Cu2A 1_555 1_555
I2B Cu2B 1_555 1_555
N2B Cu2B 1_555 1_555
N3B Cu2B 1_555 1_555
C3A C5A 1_555 1_555
H3A C5A 1_555 1_555
H4A C6A 1_555 1_555
C4A C6A 1_555 1_555
C3B C5B 1_555 1_555
H3B C5B 1_555 1_555
H4B C6B 1_555 1_555
C4B C6B 1_555 1_555
Cu2I I2 1_555 1_555
Cu2O I2A 1_555 1_555
C7A N2A 1_555 1_555
C8A N2A 1_555 1_555
C9A N3A 1_555 1_555
C10A N3A 1_555 1_555
Cu2N I2B 1_555 1_555
C7B N2B 1_555 1_555
C8B N2B 1_555 1_555
C9B N3B 1_555 1_555
C10B N3B 1_555 1_555
C2A C3A 1_555 1_555
H1A C3A 1_555 1_555
H2A C4A 1_555 1_555
C2B C3B 1_555 1_555
H1B C3B 1_555 1_555
H2B C4B 1_555 1_555
C11A C7A 1_555 1_555
H5A C7A 1_555 1_555
H6A C8A 1_555 1_555
C12A C8A 1_555 1_555
C13A C9A 1_555 1_555
H7A C9A 1_555 1_555
H8A C10A 1_555 1_555
C14A C10A 1_555 1_555
C11B C7B 1_555 1_555
H5B C7B 1_555 1_555
H6B C8B 1_555 1_555
C12B C8B 1_555 1_555
C13B C9B 1_555 1_555
H7B C9B 1_555 1_555
H8B C10B 1_555 1_555
C14B C10B 1_555 1_555
C1A C2A 1_555 1_555
C1B C2B 1_555 1_555
C15A C11A 1_555 1_555
H9A C11A 1_555 1_555
H10A C12A 1_555 1_555
C16A C13A 1_555 1_555
H11A C13A 1_555 1_555
H12A C14A 1_555 1_555
C15B C11B 1_555 1_555
H9B C11B 1_555 1_555
H10B C12B 1_555 1_555
C16B C13B 1_555 1_555
H11B C13B 1_555 1_555
H12B C14B 1_555 1_555
O1A C1A 1_555 1_555
O3B C1A 1_555 1_555
O1B C1B 1_555 1_555
O3_2 C1B 1_555 1_555
C17A C15A 1_555 1_555
C18A C16A 1_555 1_555
C17B C15B 1_555 1_555
C18B C16B 1_555 1_555
Sm1A_2 O1A 1_555 1_555
Sm1B_2 O3B 1_555 1_555
Sm1B_3 O1B 1_555 1_555
Sm1_2 O3_2 1_555 1_555
O4Z C17 1_555 1_555
O5Z C17 1_555 1_555
O6GA C18 1_555 1_555
O7O C18 1_555 1_555
O4DA C17A 1_555 1_555
O5DA C17A 1_555 1_555
O6FA C18A 1_555 1_555
O7N C18A 1_555 1_555
O4EA C17B 1_555 1_555
O5EA C17B 1_555 1_555
O6AA C18B 1_555 1_555
O7I C18B 1_555 1_555
O4A_2 Sm1A_2 1_555 1_555
O5A Sm1A_2 1_555 1_555
O4B Sm1A_2 1_555 1_555
O3A_2 Sm1A_2 1_555 1_555
O6A Sm1A_2 1_555 1_555
O7A Sm1A_2 1_555 1_555
O2_2 Sm1A_2 1_555 1_555
O5B Sm1B_2 1_555 1_555
O4_2 Sm1B_3 1_555 1_555
O3B_2 Sm1B_3 1_555 1_555
O4B_2 Sm1B_3 1_555 1_555
O5B_2 Sm1B_3 1_555 1_555
O6B Sm1B_3 1_555 1_555
O7B Sm1B_3 1_555 1_555
O2_3 Sm1B_3 1_555 1_555
O5_2 Sm1_2 1_555 1_555
Sm1EA O4Z 1_555 1_555
Sm1Z O4Z 1_555 1_555
Sm1GA O6GA 1_555 1_555
Sm1O O7O 1_555 1_555
Sm1Z_2 O4DA 1_555 1_555
Sm1DA O4DA 1_555 1_555
Sm1FA O6FA 1_555 1_555
Sm1N O7N 1_555 1_555
Sm1DA_2 O4EA 1_555 1_555
Sm1EA_2 O4EA 1_555 1_555
Sm1AA O6AA 1_555 1_555
Sm1I O7I 1_555 1_555
C17DA O4A_2 1_555 1_555
Sm1_3 O4A_2 1_555 1_555
C17EA O4B 1_555 1_555
C17Z O4_2 1_555 1_555
O1EA Sm1EA 1_555 1_555
O3EA Sm1EA 1_555 1_555
O4EA_2 Sm1EA 1_555 1_555
O5EA_2 Sm1EA 1_555 1_555
O6EA Sm1EA 1_555 1_555
O7EA Sm1EA 1_555 1_555
O2Z Sm1EA 1_555 1_555
O3Z Sm1Z 1_555 1_555
O1Z Sm1Z_2 1_555 1_555
O2Z_2 Sm1Z_2 1_555 1_555
O3Z_2 Sm1Z_2 1_555 1_555
O4Z_2 Sm1Z_2 1_555 1_555
O5Z_2 Sm1Z_2 1_555 1_555
O6Z Sm1Z_2 1_555 1_555
O7Z Sm1Z_2 1_555 1_555
O3DA Sm1DA 1_555 1_555
O1DA Sm1DA 1_555 1_555
O4EA_3 Sm1DA 1_555 1_555
O6DA Sm1DA 1_555 1_555
O7DA Sm1DA 1_555 1_555
C15DA C17DA 1_555 1_555
C15EA C17EA 1_555 1_555
C15Z C17Z 1_555 1_555
C1EA O1EA 1_555 1_555
C1Z O1Z 1_555 1_555
Sm1EA_3 O2Z_2 1_555 1_555
C1DA O1DA 1_555 1_555
C11DA C15DA 1_555 1_555
C12DA C15DA 1_555 1_555
C11EA C15EA 1_555 1_555
C12EA C15EA 1_555 1_555
C11Z C15Z 1_555 1_555
C12Z C15Z 1_555 1_555
C2EA C1EA 1_555 1_555
C2Z C1Z 1_555 1_555
O3EA_2 Sm1EA_3 1_555 1_555
C2DA C1DA 1_555 1_555
H9DA C11DA 1_555 1_555
C7DA C11DA 1_555 1_555
C8DA C12DA 1_555 1_555
H10DA C12DA 1_555 1_555
H9EA C11EA 1_555 1_555
C7EA C11EA 1_555 1_555
C8EA C12EA 1_555 1_555
H10EA C12EA 1_555 1_555
H9Z C11Z 1_555 1_555
C7Z C11Z 1_555 1_555
C8Z C12Z 1_555 1_555
H10Z C12Z 1_555 1_555
C3EA C2EA 1_555 1_555
C4EA C2EA 1_555 1_555
C3Z C2Z 1_555 1_555
C4Z C2Z 1_555 1_555
C3DA C2DA 1_555 1_555
C4DA C2DA 1_555 1_555
H5DA C7DA 1_555 1_555
N2DA C7DA 1_555 1_555
H6DA C8DA 1_555 1_555
H5EA C7EA 1_555 1_555
N2EA C7EA 1_555 1_555
H6EA C8EA 1_555 1_555
H5Z C7Z 1_555 1_555
N2Z C7Z 1_555 1_555
H6Z C8Z 1_555 1_555
H1EA C3EA 1_555 1_555
C5EA C3EA 1_555 1_555
C6EA C4EA 1_555 1_555
H2EA C4EA 1_555 1_555
H1Z C3Z 1_555 1_555
C5Z C3Z 1_555 1_555
C6Z C4Z 1_555 1_555
H2Z C4Z 1_555 1_555
H1DA C3DA 1_555 1_555
C5DA C3DA 1_555 1_555
C6DA C4DA 1_555 1_555
H2DA C4DA 1_555 1_555
Cu2DA N2DA 1_555 1_555
Cu2EA N2EA 1_555 1_555
Cu2Z N2Z 1_555 1_555
H3EA C5EA 1_555 1_555
N1EA C5EA 1_555 1_555
H4EA C6EA 1_555 1_555
H3Z C5Z 1_555 1_555
N1Z C5Z 1_555 1_555
H4Z C6Z 1_555 1_555
H3DA C5DA 1_555 1_555
N1DA C5DA 1_555 1_555
H4DA C6DA 1_555 1_555
N3DA Cu2DA 1_555 1_555
I1Z Cu2DA 1_555 1_555
I2DA Cu2DA 1_555 1_555
I1Z_2 Cu2EA 1_555 1_555
N3EA Cu2EA 1_555 1_555
I2EA Cu2EA 1_555 1_555
N3Z Cu2Z 1_555 1_555
I2Y Cu2Z 1_555 1_555
Cu1Z N1EA 1_555 1_555
Cu1Z_2 N1DA 1_555 1_555
C9DA N3DA 1_555 1_555
C10DA N3DA 1_555 1_555
Cu2DA_2 I1Z_2 1_555 1_555
C9EA N3EA 1_555 1_555
C10EA N3EA 1_555 1_555
C9Z N3Z 1_555 1_555
C10Z N3Z 1_555 1_555
N1DA_2 Cu1Z 1_555 1_555
C13DA C9DA 1_555 1_555
H7DA C9DA 1_555 1_555
H8DA C10DA 1_555 1_555
C14DA C10DA 1_555 1_555
C13EA C9EA 1_555 1_555
H7EA C9EA 1_555 1_555
H8EA C10EA 1_555 1_555
C14EA C10EA 1_555 1_555
C13Z C9Z 1_555 1_555
H7Z C9Z 1_555 1_555
H8Z C10Z 1_555 1_555
C14Z C10Z 1_555 1_555
C16DA C13DA 1_555 1_555
H11DA C13DA 1_555 1_555
H12DA C14DA 1_555 1_555
C16EA C13EA 1_555 1_555
H11EA C13EA 1_555 1_555
H12EA C14EA 1_555 1_555
C16Z C13Z 1_555 1_555
H11Z C13Z 1_555 1_555
H12Z C14Z 1_555 1_555
C18DA C16DA 1_555 1_555
C18EA C16EA 1_555 1_555
C18Z C16Z 1_555 1_555
O6J C18DA 1_555 1_555
O7HA C18DA 1_555 1_555
O6C C18EA 1_555 1_555
O7Y C18EA 1_555 1_555
O6K C18Z 1_555 1_555
O7IA C18Z 1_555 1_555
Sm1J O6J 1_555 1_555
Sm1HA O7HA 1_555 1_555
Sm1C O6C 1_555 1_555
Sm1Y O7Y 1_555 1_555
Sm1K O6K 1_555 1_555
Sm1IA O7IA 1_555 1_555
O4 Sm1B 1_555 1_555
C6 N1 1_555 1_555
C12 C15 1_555 1_555
C14 C16 1_555 1_555
O4A Sm1A 1_555 1_555
Sm1A O3A 1_555 1_555
C4A C2A 1_555 1_555
C4B C2B 1_555 1_555
C12A C15A 1_555 1_555
C14A C16A 1_555 1_555
C12B C15B 1_555 1_555
C14B C16B 1_555 1_555
Sm1B_2 O4B 1_555 1_555
Sm1B_2 O2_2 1_555 1_555
Sm1_2 O4_2 1_555 1_555
Sm1_2 O2_3 1_555 1_555
O5Z Sm1Z 1_555 1_555
O5DA Sm1DA 1_555 1_555
O5EA Sm1EA_2 1_555 1_555
O5A C17DA 1_555 1_555
O2_2 Sm1_3 1_555 1_555
O5B C17EA 1_555 1_555
O5_2 C17Z 1_555 1_555
Sm1Z O2Z 1_555 1_555
Sm1DA O2Z_2 1_555 1_555
O3Z C1EA 1_555 1_555
O4Z_2 Sm1EA_3 1_555 1_555
O3DA C1Z 1_555 1_555
O4EA_3 Sm1EA_3 1_555 1_555
C1DA O3EA_2 1_555 1_555
C8DA N2DA 1_555 1_555
C8EA N2EA 1_555 1_555
C8Z N2Z 1_555 1_555
C6EA N1EA 1_555 1_555
C6Z N1Z 1_555 1_555
C6DA N1DA 1_555 1_555
Cu2Z I1Z_2 1_555 1_555
N1Z Cu1Z 1_555 1_555
I1Z Cu1Z_2 1_555 1_555
I1Z_2 Cu1Z 1_555 1_555
C14DA C16DA 1_555 1_555
C14EA C16EA 1_555 1_555
C14Z C16Z 1_555 1_555

#END
