
#######################################################################
#
#                 Cambridge Crystallographic Data Centre
#                                CCDC 
#
#######################################################################
#
# If this CIF has been generated from an entry in the Cambridge 
# Structural Database, then it will include bibliographic, chemical, 
# crystal, experimental, refinement or atomic coordinate data resulting 
# from the CCDC's data processing and validation procedures.
#
#######################################################################

data_NITBEY
_symmetry_cell_setting           rhombohedral
_symmetry_space_group_name_H-M   'R -3 c'
_symmetry_Int_Tables_number      167
_space_group_name_Hall           '-R 3 2"c'
loop_
_symmetry_equiv_pos_site_id
_symmetry_equiv_pos_as_xyz
1 x,y,z
2 -y,x-y,z
3 -x+y,-x,z
4 y,x,1/2-z
5 2/3+x,1/3+y,1/3+z
6 2/3-y,1/3+x-y,1/3+z
7 2/3-x+y,1/3-x,1/3+z
8 2/3+y,1/3+x,5/6-z
9 1/3+x,2/3+y,2/3+z
10 1/3+y,2/3+x,1/6-z
11 x-y,-y,1/2-z
12 -x,-x+y,1/2-z
13 1/3-y,2/3+x-y,2/3+z
14 1/3-x+y,2/3-x,2/3+z
15 1/3+x-y,2/3-y,1/6-z
16 1/3-x,2/3-x+y,1/6-z
17 2/3+x-y,1/3-y,5/6-z
18 2/3-x,1/3-x+y,5/6-z
19 -x,-y,-z
20 y,-x+y,-z
21 x-y,x,-z
22 -y,-x,1/2+z
23 1/3-x,2/3-y,2/3-z
24 1/3+y,2/3-x+y,2/3-z
25 1/3+x-y,2/3+x,2/3-z
26 1/3-y,2/3-x,1/6+z
27 2/3-x,1/3-y,1/3-z
28 2/3-y,1/3-x,5/6+z
29 -x+y,y,1/2+z
30 x,x-y,1/2+z
31 2/3+y,1/3-x+y,1/3-z
32 2/3+x-y,1/3+x,1/3-z
33 2/3-x+y,1/3+y,5/6+z
34 2/3+x,1/3+x-y,5/6+z
35 1/3-x+y,2/3+y,1/6+z
36 1/3+x,2/3+x-y,1/6+z
_cell_length_a                   15.3844(6)
_cell_length_b                   15.3844(6)
_cell_length_c                   93.975(8)
_cell_angle_alpha                90
_cell_angle_beta                 90
_cell_angle_gamma                120
_cell_volume                     19262.1
loop_
_atom_site_label
_atom_site_type_symbol
_atom_site_fract_x
_atom_site_fract_y
_atom_site_fract_z
Nd1 Nd 0.91645(2) 1.09338(2) 0.677460(3)
Cu1 Cu 0.3333 0.6667 0.625530(15)
Cu2 Cu 0.30425(7) 0.82308(9) 0.587390(9)
I1 I 0.3333 0.6667 0.597710(7)
I2 I 0.12001(4) 0.7867 0.5834
C1 C 0.7270(5) 0.8703(5) 0.66432(7)
C2 C 0.6414(5) 0.8214(5) 0.65365(7)
C3 C 0.5759(6) 0.7202(6) 0.65429(9)
H1 H 0.5867 0.6805 0.6607
C4 C 0.4937(6) 0.6775(6) 0.64532(9)
H2 H 0.4483 0.6094 0.6463
C5 C 0.5435(5) 0.8256(5) 0.63418(8)
H3 H 0.5359 0.8620 0.6269
C6 C 0.6243(5) 0.8749(6) 0.64322(8)
H4 H 0.6671 0.9437 0.6424
C7 C 0.5934(5) 1.1387(5) 0.63225(7)
C8 C 0.5220(5) 1.0642(5) 0.62166(6)
C9 C 0.4198(5) 1.0258(5) 0.62272(8)
H5 H 0.3933 1.0462 0.6301
C10 C 0.3576(5) 0.9568(5) 0.61280(8)
H6 H 0.2888 0.9313 0.6136
C11 C 0.4901(5) 0.9610(6) 0.60141(7)
H7 H 0.5148 0.9382 0.5942
C12 C 0.5575(5) 1.0296(5) 0.61079(7)
H8 H 0.6258 1.0526 0.6099
C13 C 0.4278(5) 0.8989(5) 0.52248(6)
C14 C 0.4056(4) 0.8821(4) 0.53800(6)
C15 C 0.4676(5) 0.9482(5) 0.54830(7)
H9 H 0.5266 1.0060 0.5458
C16 C 0.4403(5) 0.9268(6) 0.56251(7)
H10 H 0.4824 0.9721 0.5694
C17 C 0.2977(5) 0.7809(5) 0.55674(7)
H11 H 0.2388 0.7238 0.5595
C18 C 0.3197(5) 0.7954(5) 0.54250(7)
H12 H 0.2776 0.7478 0.5359
N1 N 0.4756(4) 0.7283(4) 0.63538(6)
N2 N 0.3915(4) 0.9246(4) 0.60202(6)
N3 N 0.3568(4) 0.8448(4) 0.56694(6)
O2 O 0.7636(4) 0.9617(4) 0.66645(6)
O3 O 0.7523(4) 0.8133(6) 0.67023(6)
O4 O 0.5664(6) 1.1898(4) 0.63951(5)
O5 O 0.6778(4) 1.1466(4) 0.63366(6)
O6 O 0.4750(4) 0.9862(6) 0.51749(5)
O7 O 0.3949(5) 0.8223(7) 0.51507(5)
O8 O 1.0000 1.0000 0.67097(7)
Nd1A Nd -0.09338(2) 0.82307(3) 0.677460(3)
Cu2A Cu 0.17692(9) 0.48117(11) 0.587390(9)
I2A I 0.2133 0.33331(4) 0.5834
C1A C 0.1297(5) 0.8567(7) 0.66432(7)
C2A C 0.1786(5) 0.8200(7) 0.65365(7)
C3A C 0.2798(6) 0.8557(8) 0.65429(9)
H1A H 0.3195 0.9062 0.6607
C4A C 0.3225(6) 0.8162(8) 0.64532(9)
H2A H 0.3906 0.8389 0.6463
C5A C 0.1744(5) 0.7179(7) 0.63418(8)
H3A H 0.1380 0.6739 0.6269
C6A C 0.1251(6) 0.7494(8) 0.64322(8)
H4A H 0.0563 0.7234 0.6424
C7A C -0.1387(5) 0.4547(7) 0.63225(7)
C8A C -0.0642(5) 0.4578(7) 0.62166(6)
C9A C -0.0258(5) 0.3940(7) 0.62272(8)
H5A H -0.0462 0.3471 0.6301
C10A C 0.0432(5) 0.4008(7) 0.61280(8)
H6A H 0.0687 0.3575 0.6136
C11A C 0.0390(6) 0.5291(8) 0.60141(7)
H7A H 0.0618 0.5766 0.5942
C12A C -0.0296(5) 0.5279(7) 0.61079(7)
H8A H -0.0526 0.5732 0.6099
C13A C 0.1011(5) 0.5289(7) 0.52248(6)
C14A C 0.1179(4) 0.5235(6) 0.53800(6)
C15A C 0.0518(5) 0.5194(7) 0.54830(7)
H9A H -0.0060 0.5206 0.5458
C16A C 0.0732(6) 0.5135(8) 0.56251(7)
H10A H 0.0279 0.5103 0.5694
C17A C 0.2191(5) 0.5168(7) 0.55674(7)
H11A H 0.2762 0.5150 0.5595
C18A C 0.2046(5) 0.5243(7) 0.54250(7)
H12A H 0.2522 0.5298 0.5359
N1A N 0.2717(4) 0.7473(6) 0.63538(6)
N2A N 0.0754(4) 0.4669(6) 0.60202(6)
N3A N 0.1552(4) 0.5120(6) 0.56694(6)
O2A O 0.0383(4) 0.8019(6) 0.66645(6)
O3A O 0.1867(6) 0.9390(7) 0.67023(6)
O4A O -0.1898(4) 0.3766(7) 0.63951(5)
O5A O -0.1466(4) 0.5312(6) 0.63366(6)
O6A O 0.0138(6) 0.4888(7) 0.51749(5)
O7A O 0.1777(7) 0.5726(9) 0.51507(5)
Nd1B Nd 0.17693(3) 0.08355(2) 0.677460(3)
Cu2B Cu 0.51883(11) 0.69575(7) 0.587390(9)
I2B I 0.66669(4) 0.87999(4) 0.5834
C1B C 0.1433(7) 0.2730(5) 0.66432(7)
C2B C 0.1800(7) 0.3586(5) 0.65365(7)
C3B C 0.1443(8) 0.4241(6) 0.65429(9)
H1B H 0.0938 0.4133 0.6607
C4B C 0.1838(8) 0.5063(6) 0.64532(9)
H2B H 0.1611 0.5517 0.6463
C5B C 0.2821(7) 0.4565(5) 0.63418(8)
H3B H 0.3261 0.4641 0.6269
C6B C 0.2506(8) 0.3757(5) 0.64322(8)
H4B H 0.2766 0.3329 0.6424
C7B C 0.5453(7) 0.4066(5) 0.63225(7)
C8B C 0.5422(7) 0.4780(5) 0.62166(6)
C9B C 0.6060(7) 0.5802(5) 0.62272(8)
H5B H 0.6529 0.6067 0.6301
C10B C 0.5992(7) 0.6424(5) 0.61280(8)
H6B H 0.6425 0.7112 0.6136
C11B C 0.4709(8) 0.5099(5) 0.60141(7)
H7B H 0.4234 0.4852 0.5942
C12B C 0.4721(7) 0.4425(5) 0.61079(7)
H8B H 0.4268 0.3742 0.6099
C13B C 0.4711(7) 0.5722(5) 0.52248(6)
C14B C 0.4765(6) 0.5944(4) 0.53800(6)
C15B C 0.4806(7) 0.5324(5) 0.54830(7)
H9B H 0.4794 0.4734 0.5458
C16B C 0.4865(8) 0.5597(5) 0.56251(7)
H10B H 0.4897 0.5176 0.5694
C17B C 0.4832(7) 0.7023(5) 0.55674(7)
H11B H 0.4850 0.7612 0.5595
C18B C 0.4757(7) 0.6803(5) 0.54250(7)
H12B H 0.4702 0.7224 0.5359
N1B N 0.2527(6) 0.5244(4) 0.63538(6)
N2B N 0.5331(6) 0.6085(4) 0.60202(6)
N3B N 0.4880(6) 0.6432(4) 0.56694(6)
O2B O 0.1981(6) 0.2364(4) 0.66645(6)
O3B O 0.0610(7) 0.2477(4) 0.67023(6)
O4B O 0.6234(7) 0.4336(6) 0.63951(5)
O5B O 0.4688(6) 0.3222(4) 0.63366(6)
O6B O 0.5112(7) 0.5250(4) 0.51749(5)
O7B O 0.4274(9) 0.6051(5) 0.51507(5)
Nd1Z Nd -0.24978(2) 0.23995(2) 0.655873(3)
Cu1Z Cu 0.3334 0.6666 0.707803(15)
Cu2Z Cu 0.36242(7) 0.51025(9) 0.745943(9)
I1Z I 0.3334 0.6666 0.735623(7)
C1Z C -0.0603(5) 0.4630(5) 0.66901(7)
C2Z C 0.0253(5) 0.5119(5) 0.67968(7)
C3Z C 0.0908(6) 0.6131(6) 0.67904(9)
H1Z H 0.0800 0.6528 0.6726
C4Z C 0.1730(6) 0.6558(6) 0.68801(9)
H2Z H 0.2184 0.7239 0.6870
C5Z C 0.1232(5) 0.5077(5) 0.69915(8)
H3Z H 0.1308 0.4713 0.7064
C6Z C 0.0424(5) 0.4584(6) 0.69011(8)
H4Z H -0.0004 0.3896 0.6909
C7Z C 0.0733(5) 0.1946(5) 0.70108(7)
C8Z C 0.1447(5) 0.2691(5) 0.71167(6)
C9Z C 0.2469(5) 0.3075(5) 0.71061(8)
H5Z H 0.2734 0.2871 0.7032
C10Z C 0.3091(5) 0.3765(5) 0.72053(8)
H6Z H 0.3779 0.4020 0.7197
C11Z C 0.1766(5) 0.3723(6) 0.73192(7)
H7Z H 0.1519 0.3951 0.7391
C12Z C 0.1092(5) 0.3037(5) 0.72254(7)
H8Z H 0.0409 0.2807 0.7234
C13Z C 0.2389(5) 0.4344(5) 0.81085(6)
C14Z C 0.2611(4) 0.4512(4) 0.79533(6)
C15Z C 0.1991(5) 0.3851(5) 0.78503(7)
H9Z H 0.1401 0.3273 0.7875
C16Z C 0.2264(5) 0.4065(6) 0.77082(7)
H10Z H 0.1843 0.3612 0.7639
C17Z C 0.3690(5) 0.5524(5) 0.77659(7)
H11Z H 0.4279 0.6095 0.7738
C18Z C 0.3470(5) 0.5379(5) 0.79083(7)
H12Z H 0.3891 0.5855 0.7974
N1Z N 0.1911(4) 0.6050(4) 0.69795(6)
N2Z N 0.2752(4) 0.4087(4) 0.73131(6)
N3Z N 0.3099(4) 0.4885(4) 0.76639(6)
O2Z O -0.0969(4) 0.3716(4) 0.66688(6)
O3Z O -0.0856(4) 0.5200(6) 0.66310(6)
O4Z O 0.1003(6) 0.1435(4) 0.69382(5)
O5Z O -0.0111(4) 0.1867(4) 0.69967(6)
O6Z O 0.1917(4) 0.3471(6) 0.81584(5)
O7Z O 0.2718(5) 0.5110(7) 0.81826(5)
O8Z O -0.3333 0.3333 0.66236(7)
Nd1DA Nd -0.23995(2) 0.51026(3) 0.655873(3)
Cu2DA Cu -0.51025(9) 0.85216(11) 0.745943(9)
C1DA C -0.4630(5) 0.4766(7) 0.66901(7)
C2DA C -0.5119(5) 0.5133(7) 0.67968(7)
C3DA C -0.6131(6) 0.4776(8) 0.67904(9)
H1DA H -0.6528 0.4271 0.6726
C4DA C -0.6558(6) 0.5171(8) 0.68801(9)
H2DA H -0.7239 0.4944 0.6870
C5DA C -0.5077(5) 0.6154(7) 0.69915(8)
H3DA H -0.4713 0.6594 0.7064
C6DA C -0.4584(6) 0.5839(8) 0.69011(8)
H4DA H -0.3896 0.6099 0.6909
C7DA C -0.1946(5) 0.8786(7) 0.70108(7)
C8DA C -0.2691(5) 0.8755(7) 0.71167(6)
C9DA C -0.3075(5) 0.9393(7) 0.71061(8)
H5DA H -0.2871 0.9862 0.7032
C10DA C -0.3765(5) 0.9325(7) 0.72053(8)
H6DA H -0.4020 0.9758 0.7197
C11DA C -0.3723(6) 0.8042(8) 0.73192(7)
H7DA H -0.3951 0.7567 0.7391
C12DA C -0.3037(5) 0.8054(7) 0.72254(7)
H8DA H -0.2807 0.7601 0.7234
C13DA C -0.4344(5) 0.8044(7) 0.81085(6)
C14DA C -0.4512(4) 0.8098(6) 0.79533(6)
C15DA C -0.3851(5) 0.8139(7) 0.78503(7)
H9DA H -0.3273 0.8127 0.7875
C16DA C -0.4065(6) 0.8198(8) 0.77082(7)
H10DA H -0.3612 0.8230 0.7639
C17DA C -0.5524(5) 0.8165(7) 0.77659(7)
H11DA H -0.6095 0.8183 0.7738
C18DA C -0.5379(5) 0.8090(7) 0.79083(7)
H12DA H -0.5855 0.8035 0.7974
N1DA N -0.6050(4) 0.5860(6) 0.69795(6)
N2DA N -0.4087(4) 0.8664(6) 0.73131(6)
N3DA N -0.4885(4) 0.8213(6) 0.76639(6)
O2DA O -0.3716(4) 0.5314(6) 0.66688(6)
O3DA O -0.5200(6) 0.3943(7) 0.66310(6)
O4DA O -0.1435(4) 0.9567(7) 0.69382(5)
O5DA O -0.1867(4) 0.8021(6) 0.69967(6)
O6DA O -0.3471(6) 0.8445(7) 0.81584(5)
O7DA O -0.5110(7) 0.7607(9) 0.81826(5)
Nd1EA Nd 0.48974(3) 1.24978(2) 0.655873(3)
Cu2EA Cu 0.14784(11) 0.63758(7) 0.745943(9)
C1EA C 0.5234(7) 1.0603(5) 0.66901(7)
C2EA C 0.4867(7) 0.9747(5) 0.67968(7)
C3EA C 0.5224(8) 0.9092(6) 0.67904(9)
H1EA H 0.5729 0.9200 0.6726
C4EA C 0.4829(8) 0.8270(6) 0.68801(9)
H2EA H 0.5056 0.7816 0.6870
C5EA C 0.3846(7) 0.8768(5) 0.69915(8)
H3EA H 0.3406 0.8692 0.7064
C6EA C 0.4161(8) 0.9576(5) 0.69011(8)
H4EA H 0.3901 1.0004 0.6909
C7EA C 0.1214(7) 0.9267(5) 0.70108(7)
C8EA C 0.1245(7) 0.8553(5) 0.71167(6)
C9EA C 0.0607(7) 0.7531(5) 0.71061(8)
H5EA H 0.0138 0.7266 0.7032
C10EA C 0.0675(7) 0.6909(5) 0.72053(8)
H6EA H 0.0242 0.6221 0.7197
C11EA C 0.1958(8) 0.8234(5) 0.73192(7)
H7EA H 0.2433 0.8481 0.7391
C12EA C 0.1946(7) 0.8908(5) 0.72254(7)
H8EA H 0.2399 0.9591 0.7234
C13EA C 0.1956(7) 0.7611(5) 0.81085(6)
C14EA C 0.1902(6) 0.7389(4) 0.79533(6)
C15EA C 0.1861(7) 0.8009(5) 0.78503(7)
H9EA H 0.1873 0.8599 0.7875
C16EA C 0.1802(8) 0.7736(5) 0.77082(7)
H10EA H 0.1770 0.8157 0.7639
C17EA C 0.1835(7) 0.6310(5) 0.77659(7)
H11EA H 0.1817 0.5721 0.7738
C18EA C 0.1910(7) 0.6530(5) 0.79083(7)
H12EA H 0.1965 0.6109 0.7974
N1EA N 0.4140(6) 0.8089(4) 0.69795(6)
N2EA N 0.1336(6) 0.7248(4) 0.73131(6)
N3EA N 0.1787(6) 0.6901(4) 0.76639(6)
O2EA O 0.4686(6) 1.0969(4) 0.66688(6)
O3EA O 0.6057(7) 1.0856(4) 0.66310(6)
O4EA O 0.0433(7) 0.8997(6) 0.69382(5)
O5EA O 0.1979(6) 1.0111(4) 0.69967(6)
O6EA O 0.1555(7) 0.8083(4) 0.81584(5)
O7EA O 0.2393(9) 0.7282(5) 0.81826(5)
Nd1_2 Nd -0.08355(2) 0.09338(2) 0.677460(3)
Nd1_3 Nd -0.08355(2) 1.09338(2) 0.677460(3)
Nd1A_2 Nd 0.90662(2) 0.82307(3) 0.677460(3)
Nd1B_2 Nd 0.17693(3) 1.08355(2) 0.677460(3)
Nd1B_3 Nd 1.17693(3) 1.08355(2) 0.677460(3)
Nd1C Nd 0.09338(2) 0.91645(2) 0.822540(3)
Nd1I Nd 0.42671(2) 0.58312(2) 0.489207(3)
Nd1J Nd -0.17693(3) 0.90662(2) 0.822540(3)
Nd1K Nd 0.08355(2) 0.17693(3) 0.822540(3)
Nd1N Nd 0.15640(3) 0.57329(2) 0.489207(3)
Nd1O Nd 0.41688(2) 0.84360(3) 0.489207(3)
Nd1Y Nd 0.23995(2) 0.75022(2) 0.844127(3)
Nd1Z_2 Nd 0.75022(2) 1.23995(2) 0.655873(3)
Nd1AA Nd 0.57329(2) 0.41688(2) 0.510793(3)
Nd1DA_2 Nd 0.76005(2) 0.51026(3) 0.655873(3)
Nd1EA_2 Nd -0.51026(3) 0.24978(2) 0.655873(3)
Nd1EA_3 Nd 0.48974(3) 0.24978(2) 0.655873(3)
Nd1FA Nd -0.15640(3) 0.42671(2) 0.510793(3)
Nd1GA Nd 0.58312(2) 1.15640(3) 0.510793(3)
Nd1HA Nd -0.48974(3) 0.76005(2) 0.844127(3)
Nd1IA Nd 0.24978(2) 0.48974(3) 0.844127(3)
Cu1Z_2 Cu -0.6666 0.6666 0.707803(15)
Cu2I Cu 0.15641(9) 0.97092(7) 0.579277(9)
Cu2N Cu 0.81450(11) 0.84359(9) 0.579277(9)
Cu2O Cu 0.02908(7) 0.18550(11) 0.579277(9)
Cu2DA_2 Cu 0.48975(9) 0.85216(11) 0.745943(9)
I1Z_2 I -0.6666 0.6666 0.735623(7)
I2Y I 0.5466 0.54666(4) 0.7501
I2DA I -0.5466 1.00002(4) 0.7499
I2EA I -0.00002(4) 0.45334(4) 0.7499
N1DA_2 N 0.3950(4) 0.5860(6) 0.69795(6)
O3_2 O -0.2477(4) 0.8133(6) 0.67023(6)
O3A_2 O 0.1867(6) -0.0610(7) 0.67023(6)
O3B_2 O 1.0610(7) 1.2477(4) 0.67023(6)
O3DA_2 O 0.4800(6) 1.3943(7) 0.66310(6)
O3EA_2 O -0.3943(7) 0.0856(4) 0.66310(6)
O4B_2 O -0.3766(7) 0.4336(6) 0.63951(5)
O4DA_2 O 0.8565(4) 0.9567(7) 0.69382(5)
O5_2 O -0.3222(4) 0.1466(4) 0.63366(6)
O5B_2 O 0.4688(6) 1.3222(4) 0.63366(6)
O5Z_2 O 0.9889(4) 1.1867(4) 0.69967(6)
O5EA_2 O 0.1979(6) 0.0111(4) 0.69967(6)
O6I O 0.3195(6) 1.1417(4) 0.64918(5)
O6N O -0.1779(7) 0.6805(6) 0.64918(5)
O6O O -0.1417(4) 0.1779(7) 0.64918(5)
O6Y O 0.3471(6) 0.1917(4) 0.68416(5)
O6HA O -0.1555(7) 0.6529(6) 0.68416(5)
O6IA O 0.8083(4) 1.1555(7) 0.68416(5)
O7I O 0.1556(7) 0.0616(5) 0.65160(5)
O7N O -0.0941(9) 0.8444(7) 0.65160(5)
O7O O 0.9384(5) 1.0941(9) 0.65160(5)
O7Y O 0.5110(7) 1.2718(5) 0.68174(5)
O7HA O -0.2393(9) 0.4890(7) 0.68174(5)
O7IA O -0.2718(5) 0.2393(9) 0.68174(5)
O8_2 O 0.0000 0.0000 0.67097(7)
O8_3 O 0.0000 1.0000 0.67097(7)
O8Z_2 O 0.6667 1.3333 0.66236(7)
O1 O 0.8029(19) 1.3333 0.5833
loop_
_geom_bond_atom_site_label_1
_geom_bond_atom_site_label_2
_geom_bond_site_symmetry_1
_geom_bond_site_symmetry_2
Nd1 O2 1_555 1_555
Cu1 I1 1_555 1_555
Cu2 I1 1_555 1_555
I1 Cu2A 1_555 1_555
I2 Cu2 1_555 1_555
C1 C2 1_555 1_555
C2 C3 1_555 1_555
C3 H1 1_555 1_555
C4 C3 1_555 1_555
H2 C4 1_555 1_555
C5 H3 1_555 1_555
C6 C2 1_555 1_555
H4 C6 1_555 1_555
C7 C8 1_555 1_555
C8 C9 1_555 1_555
C9 H5 1_555 1_555
C10 C9 1_555 1_555
H6 C10 1_555 1_555
C11 H7 1_555 1_555
C12 C8 1_555 1_555
H8 C12 1_555 1_555
C13 C14 1_555 1_555
C14 C15 1_555 1_555
C15 H9 1_555 1_555
C16 C15 1_555 1_555
H10 C16 1_555 1_555
C17 H11 1_555 1_555
C18 C14 1_555 1_555
H12 C18 1_555 1_555
N1 Cu1 1_555 1_555
N2 Cu2 1_555 1_555
N3 Cu2 1_555 1_555
O2 C1 1_555 1_555
O3 C1 1_555 1_555
O4 C7 1_555 1_555
O5 C7 1_555 1_555
O6 C13 1_555 1_555
O7 C13 1_555 1_555
O8 Nd1 1_555 1_555
Nd1A O2A 1_555 1_555
Cu2A I2A 1_555 1_555
I2A Cu2O 1_555 1_555
C1A C2A 1_555 1_555
C2A C3A 1_555 1_555
C3A H1A 1_555 1_555
C4A C3A 1_555 1_555
H2A C4A 1_555 1_555
C5A H3A 1_555 1_555
C6A C2A 1_555 1_555
H4A C6A 1_555 1_555
C7A C8A 1_555 1_555
C8A C9A 1_555 1_555
C9A H5A 1_555 1_555
C10A C9A 1_555 1_555
H6A C10A 1_555 1_555
C11A H7A 1_555 1_555
C12A C8A 1_555 1_555
H8A C12A 1_555 1_555
C13A C14A 1_555 1_555
C14A C15A 1_555 1_555
C15A H9A 1_555 1_555
C16A C15A 1_555 1_555
H10A C16A 1_555 1_555
C17A H11A 1_555 1_555
C18A C14A 1_555 1_555
H12A C18A 1_555 1_555
N1A Cu1 1_555 1_555
N2A Cu2A 1_555 1_555
N3A Cu2A 1_555 1_555
O2A C1A 1_555 1_555
O3A C1A 1_555 1_555
O4A C7A 1_555 1_555
O5A C7A 1_555 1_555
O6A C13A 1_555 1_555
O7A C13A 1_555 1_555
Nd1B O2B 1_555 1_555
Cu2B I1 1_555 1_555
I2B Cu2B 1_555 1_555
C1B C2B 1_555 1_555
C2B C3B 1_555 1_555
C3B H1B 1_555 1_555
C4B C3B 1_555 1_555
H2B C4B 1_555 1_555
C5B H3B 1_555 1_555
C6B C2B 1_555 1_555
H4B C6B 1_555 1_555
C7B C8B 1_555 1_555
C8B C9B 1_555 1_555
C9B H5B 1_555 1_555
C10B C9B 1_555 1_555
H6B C10B 1_555 1_555
C11B H7B 1_555 1_555
C12B C8B 1_555 1_555
H8B C12B 1_555 1_555
C13B C14B 1_555 1_555
C14B C15B 1_555 1_555
C15B H9B 1_555 1_555
C16B C15B 1_555 1_555
H10B C16B 1_555 1_555
C17B H11B 1_555 1_555
C18B C14B 1_555 1_555
H12B C18B 1_555 1_555
N1B Cu1 1_555 1_555
N2B Cu2B 1_555 1_555
N3B Cu2B 1_555 1_555
O2B C1B 1_555 1_555
O3B C1B 1_555 1_555
O4B C7B 1_555 1_555
O5B C7B 1_555 1_555
O6B C13B 1_555 1_555
O7B C13B 1_555 1_555
Nd1Z O4A 1_555 1_555
Cu1Z I1Z 1_555 1_555
Cu2Z I1Z 1_555 1_555
I1Z Cu2EA 1_555 1_555
C1Z C2Z 1_555 1_555
C2Z C3Z 1_555 1_555
C3Z H1Z 1_555 1_555
C4Z C3Z 1_555 1_555
H2Z C4Z 1_555 1_555
C5Z H3Z 1_555 1_555
C6Z C2Z 1_555 1_555
H4Z C6Z 1_555 1_555
C7Z C8Z 1_555 1_555
C8Z C9Z 1_555 1_555
C9Z H5Z 1_555 1_555
C10Z C9Z 1_555 1_555
H6Z C10Z 1_555 1_555
C11Z H7Z 1_555 1_555
C12Z C8Z 1_555 1_555
H8Z C12Z 1_555 1_555
C13Z C14Z 1_555 1_555
C14Z C15Z 1_555 1_555
C15Z H9Z 1_555 1_555
C16Z C15Z 1_555 1_555
H10Z C16Z 1_555 1_555
C17Z H11Z 1_555 1_555
C18Z C14Z 1_555 1_555
H12Z C18Z 1_555 1_555
N1Z Cu1Z 1_555 1_555
N2Z Cu2Z 1_555 1_555
N3Z Cu2Z 1_555 1_555
O2Z Nd1Z 1_555 1_555
O3Z C1Z 1_555 1_555
O4Z Nd1B 1_555 1_555
O5Z C7Z 1_555 1_555
O6Z C13Z 1_555 1_555
O7Z C13Z 1_555 1_555
O8Z Nd1Z 1_555 1_555
Nd1DA O5A 1_555 1_555
Cu2DA N2DA 1_555 1_555
C1DA C2DA 1_555 1_555
C2DA C3DA 1_555 1_555
C3DA H1DA 1_555 1_555
C4DA C3DA 1_555 1_555
H2DA C4DA 1_555 1_555
C5DA H3DA 1_555 1_555
C6DA C2DA 1_555 1_555
H4DA C6DA 1_555 1_555
C7DA C8DA 1_555 1_555
C8DA C9DA 1_555 1_555
C9DA H5DA 1_555 1_555
C10DA C9DA 1_555 1_555
H6DA C10DA 1_555 1_555
C11DA H7DA 1_555 1_555
C12DA C8DA 1_555 1_555
H8DA C12DA 1_555 1_555
C13DA C14DA 1_555 1_555
C14DA C15DA 1_555 1_555
C15DA H9DA 1_555 1_555
C16DA C15DA 1_555 1_555
H10DA C16DA 1_555 1_555
C17DA H11DA 1_555 1_555
C18DA C14DA 1_555 1_555
H12DA C18DA 1_555 1_555
N1DA C4DA 1_555 1_555
N2DA C10DA 1_555 1_555
N3DA Cu2DA 1_555 1_555
O2DA Nd1DA 1_555 1_555
O3DA C1DA 1_555 1_555
O4DA C7DA 1_555 1_555
O5DA Nd1A 1_555 1_555
O6DA C13DA 1_555 1_555
O7DA C13DA 1_555 1_555
Nd1EA O4 1_555 1_555
Cu2EA N2EA 1_555 1_555
C1EA C2EA 1_555 1_555
C2EA C3EA 1_555 1_555
C3EA H1EA 1_555 1_555
C4EA C3EA 1_555 1_555
H2EA C4EA 1_555 1_555
C5EA H3EA 1_555 1_555
C6EA C2EA 1_555 1_555
H4EA C6EA 1_555 1_555
C7EA C8EA 1_555 1_555
C8EA C9EA 1_555 1_555
C9EA H5EA 1_555 1_555
C10EA C9EA 1_555 1_555
H6EA C10EA 1_555 1_555
C11EA H7EA 1_555 1_555
C12EA C8EA 1_555 1_555
H8EA C12EA 1_555 1_555
C13EA C14EA 1_555 1_555
C14EA C15EA 1_555 1_555
C15EA H9EA 1_555 1_555
C16EA C15EA 1_555 1_555
H10EA C16EA 1_555 1_555
C17EA H11EA 1_555 1_555
C18EA C14EA 1_555 1_555
H12EA C18EA 1_555 1_555
N1EA Cu1Z 1_555 1_555
N2EA C10EA 1_555 1_555
N3EA Cu2EA 1_555 1_555
O2EA Nd1EA 1_555 1_555
O3EA C1EA 1_555 1_555
O4EA Nd1A 1_555 1_555
O5EA C7EA 1_555 1_555
O6EA C13EA 1_555 1_555
O7EA C13EA 1_555 1_555
Nd1_2 O3B 1_555 1_555
Nd1_3 O4DA 1_555 1_555
Nd1A_2 O3 1_555 1_555
Nd1B_2 O3A 1_555 1_555
Nd1B_3 O8 1_555 1_555
Nd1C O6EA 1_555 1_555
Nd1I O7B 1_555 1_555
Nd1J O6DA 1_555 1_555
Nd1K O6Z 1_555 1_555
Nd1N O7A 1_555 1_555
Nd1O O7 1_555 1_555
Nd1Y O7EA 1_555 1_555
Nd1Z_2 O5 1_555 1_555
Nd1AA O6B 1_555 1_555
Nd1DA_2 O4B 1_555 1_555
Nd1EA_2 O8Z 1_555 1_555
Nd1EA_3 O5B 1_555 1_555
Nd1FA O6A 1_555 1_555
Nd1GA O6 1_555 1_555
Nd1HA O7DA 1_555 1_555
Nd1IA O7Z 1_555 1_555
Cu1Z_2 N1DA 1_555 1_555
Cu2I I2 1_555 1_555
Cu2N I2B 1_555 1_555
Cu2DA_2 I1Z 1_555 1_555
I1Z_2 Cu2DA 1_555 1_555
I2Y Cu2Z 1_555 1_555
I2DA Cu2DA 1_555 1_555
I2EA Cu2EA 1_555 1_555
N1DA_2 Cu1Z 1_555 1_555
O3_2 Nd1A 1_555 1_555
O3A_2 Nd1B 1_555 1_555
O3B_2 Nd1 1_555 1_555
O3DA_2 Nd1EA 1_555 1_555
O3EA_2 Nd1Z 1_555 1_555
O4B_2 Nd1DA 1_555 1_555
O4DA_2 Nd1 1_555 1_555
O5_2 Nd1Z 1_555 1_555
O5B_2 Nd1EA 1_555 1_555
O5Z_2 Nd1 1_555 1_555
O5EA_2 Nd1B 1_555 1_555
O6I Nd1EA 1_555 1_555
O6N Nd1DA 1_555 1_555
O6O Nd1Z 1_555 1_555
O6Y Nd1B 1_555 1_555
O6HA Nd1A 1_555 1_555
O6IA Nd1 1_555 1_555
O7I Nd1B 1_555 1_555
O7N Nd1A 1_555 1_555
O7O Nd1 1_555 1_555
O7Y Nd1EA 1_555 1_555
O7HA Nd1DA 1_555 1_555
O7IA Nd1Z 1_555 1_555
O8_2 Nd1B 1_555 1_555
O8_3 Nd1A 1_555 1_555
O8Z_2 Nd1EA 1_555 1_555
C4 N1 1_555 1_555
C5 C6 1_555 1_555
C5 N1 1_555 1_555
C10 N2 1_555 1_555
C11 C12 1_555 1_555
C11 N2 1_555 1_555
C16 N3 1_555 1_555
C17 C18 1_555 1_555
C17 N3 1_555 1_555
O8 Nd1A_2 1_555 1_555
C4A N1A 1_555 1_555
C5A C6A 1_555 1_555
C5A N1A 1_555 1_555
C10A N2A 1_555 1_555
C11A C12A 1_555 1_555
C11A N2A 1_555 1_555
C16A N3A 1_555 1_555
C17A C18A 1_555 1_555
C17A N3A 1_555 1_555
C4B N1B 1_555 1_555
C5B C6B 1_555 1_555
C5B N1B 1_555 1_555
C10B N2B 1_555 1_555
C11B C12B 1_555 1_555
C11B N2B 1_555 1_555
C16B N3B 1_555 1_555
C17B C18B 1_555 1_555
C17B N3B 1_555 1_555
C1Z O2Z 1_555 1_555
C4Z N1Z 1_555 1_555
C5Z C6Z 1_555 1_555
C5Z N1Z 1_555 1_555
C7Z O4Z 1_555 1_555
C10Z N2Z 1_555 1_555
C11Z C12Z 1_555 1_555
C11Z N2Z 1_555 1_555
C16Z N3Z 1_555 1_555
C17Z C18Z 1_555 1_555
C17Z N3Z 1_555 1_555
O3Z Nd1DA 1_555 1_555
O5Z Nd1_2 1_555 1_555
O8Z Nd1DA 1_555 1_555
C1DA O2DA 1_555 1_555
C5DA C6DA 1_555 1_555
C5DA N1DA 1_555 1_555
C7DA O5DA 1_555 1_555
C11DA C12DA 1_555 1_555
C11DA N2DA 1_555 1_555
C16DA N3DA 1_555 1_555
C17DA C18DA 1_555 1_555
C17DA N3DA 1_555 1_555
O3DA Nd1EA_2 1_555 1_555
C1EA O2EA 1_555 1_555
C4EA N1EA 1_555 1_555
C5EA C6EA 1_555 1_555
C5EA N1EA 1_555 1_555
C7EA O4EA 1_555 1_555
C11EA C12EA 1_555 1_555
C11EA N2EA 1_555 1_555
C16EA N3EA 1_555 1_555
C17EA C18EA 1_555 1_555
C17EA N3EA 1_555 1_555
O3EA Nd1Z_2 1_555 1_555
O5EA Nd1B_2 1_555 1_555
Nd1_2 O8_2 1_555 1_555
Nd1_3 O8_3 1_555 1_555
Nd1B_2 O8_3 1_555 1_555
Nd1Z_2 O8Z_2 1_555 1_555
Cu1Z_2 I1Z_2 1_555 1_555

#END
