
#######################################################################
#
#                 Cambridge Crystallographic Data Centre
#                                CCDC 
#
#######################################################################
#
# If this CIF has been generated from an entry in the Cambridge 
# Structural Database, then it will include bibliographic, chemical, 
# crystal, experimental, refinement or atomic coordinate data resulting 
# from the CCDC's data processing and validation procedures.
#
#######################################################################

data_NITCUP
_symmetry_cell_setting           orthorhombic
_symmetry_space_group_name_H-M   'P c a 21'
_symmetry_Int_Tables_number      29
_space_group_name_Hall           'P 2c -2ac'
loop_
_symmetry_equiv_pos_site_id
_symmetry_equiv_pos_as_xyz
1 x,y,z
2 -x,-y,1/2+z
3 1/2+x,-y,z
4 1/2-x,y,1/2+z
_cell_length_a                   21.3583(5)
_cell_length_b                   7.2270(2)
_cell_length_c                   35.2833(8)
_cell_angle_alpha                90
_cell_angle_beta                 90
_cell_angle_gamma                90
_cell_volume                     5446.2
loop_
_atom_site_label
_atom_site_type_symbol
_atom_site_fract_x
_atom_site_fract_y
_atom_site_fract_z
Tb1 Tb 0.12400(3) 0.86926(9) 0.457683(19)
Tb2 Tb -0.16132(3) 1.57175(9) 0.47741(2)
Cu1 Cu 0.26071(11) 0.4210(3) 0.24525(6)
Cu2 Cu 0.35119(11) -0.0925(3) 0.24250(6)
Cu3 Cu 0.02467(13) 0.5064(4) 0.21402(7)
Cu4 Cu 0.14347(11) 0.6426(3) 0.68956(6)
Cu5 Cu 0.23073(10) 1.1482(3) 0.69891(6)
I1 I 0.15937(5) 0.26950(16) 0.21995(4)
I2 I 0.37327(5) 0.30560(14) 0.22677(3)
I3 I 0.24759(5) 0.77733(13) 0.21616(3)
I4 I -0.04056(5) 0.19028(15) 0.21402(4)
C1 C -0.1655(7) 1.7703(19) 0.4085(4)
C2 C -0.1638(7) 1.873(2) 0.3707(5)
C3 C -0.2161(7) 1.925(2) 0.3515(5)
H1 H -0.2554 1.9093 0.3623
C4 C -0.2104(8) 2.000(2) 0.3160(4)
H2 H -0.2469 2.0315 0.3033
C5 C -0.1048(7) 1.983(2) 0.3181(5)
H3 H -0.0660 2.0033 0.3069
C6 C -0.1058(8) 1.905(2) 0.3540(5)
H4 H -0.0689 1.8743 0.3665
C7 C 0.1956(7) 0.5273(18) 0.5139(4)
C8 C 0.1807(6) 0.551(2) 0.5554(4)
C9 C 0.1215(7) 0.597(2) 0.5684(4)
H5 H 0.0882 0.6086 0.5516
C10 C 0.1125(9) 0.625(3) 0.6070(5)
H6 H 0.0730 0.6627 0.6149
C11 C 0.2137(8) 0.557(2) 0.6202(5)
H7 H 0.2464 0.5455 0.6374
C12 C 0.2272(8) 0.526(2) 0.5820(4)
H8 H 0.2670 0.4882 0.5745
C13 C 0.1665(7) 1.015(2) 0.5268(4)
C14 C 0.1834(7) 1.053(2) 0.5679(4)
C15 C 0.1373(8) 1.104(2) 0.5920(5)
H9 H 0.0962 1.1197 0.5838
C16 C 0.1537(8) 1.133(2) 0.6296(5)
H10 H 0.1225 1.1682 0.6465
C17 C 0.2543(8) 1.066(3) 0.6182(5)
H11 H 0.2952 1.0536 0.6270
C18 C 0.2434(8) 1.032(2) 0.5801(4)
H12 H 0.2754 0.9963 0.5637
C19 C -0.1141(7) 1.279(2) 0.5496(4)
C20 C -0.0888(7) 1.336(2) 0.5884(4)
C21 C -0.0669(10) 1.205(3) 0.6141(5)
H13 H -0.0665 1.0806 0.6075
C22 C -0.0463(11) 1.259(3) 0.6487(4)
H14 H -0.0328 1.1677 0.6654
C23 C -0.0630(10) 1.559(3) 0.6349(5)
H15 H -0.0609 1.6831 0.6417
C24 C -0.0851(8) 1.516(2) 0.5998(4)
H16 H -0.0978 1.6095 0.5835
C25 C 0.2546(7) 0.682(2) 0.4162(4)
C26 C 0.2584(7) 0.604(2) 0.3760(4)
C27 C 0.2049(8) 0.555(3) 0.3571(4)
H17 H 0.1664 0.5629 0.3692
C28 C 0.2082(8) 0.495(3) 0.3208(4)
H18 H 0.1712 0.4603 0.3087
C29 C 0.3152(8) 0.524(2) 0.3209(4)
H19 H 0.3536 0.5095 0.3088
C30 C 0.3141(7) 0.585(2) 0.3572(4)
H20 H 0.3513 0.6146 0.3694
C31 C 0.0875(7) 0.915(3) 0.3669(5)
C32 C 0.0703(8) 0.820(2) 0.3303(4)
C33 C 0.0401(8) 0.648(3) 0.3323(4)
H21 H 0.0296 0.5943 0.3554
C34 C 0.0263(8) 0.560(2) 0.2971(5)
H22 H 0.0053 0.4471 0.2977
C35 C 0.0693(9) 0.797(3) 0.2625(4)
H23 H 0.0790 0.8514 0.2394
C36 C 0.0837(8) 0.891(3) 0.2957(5)
H24 H 0.1031 1.0056 0.2941
C37 C -0.0118(6) 1.6125(16) 0.4780(5)
C38 C -0.0154(6) 1.4075(17) 0.4660(3)
C39 C 0.0378(6) 1.2942(18) 0.4632(4)
H25 H 0.0773 1.3431 0.4681
C40 C -0.0264(7) 1.058(2) 0.4466(4)
H26 H -0.0318 0.9350 0.4396
C41 C -0.0781(7) 1.166(2) 0.4490(4)
H27 H -0.1172 1.1169 0.4432
N1 N -0.1560(6) 2.0305(17) 0.2985(3)
N2 N 0.1571(6) 0.6022(19) 0.6339(4)
N3 N 0.2117(6) 1.1135(19) 0.6426(4)
N4 N -0.0442(7) 1.432(2) 0.6602(3)
N5 N 0.2614(6) 0.4822(18) 0.3014(3)
N6 N 0.0421(6) 0.6304(19) 0.2627(3)
N7 N -0.0729(5) 1.3457(14) 0.4598(4)
N8 N 0.0319(5) 1.1164(15) 0.4536(3)
O1 O -0.2179(4) 1.7528(13) 0.4255(3)
O2 O -0.1732(5) 1.8766(15) 0.4995(3)
O3 O -0.1160(4) 1.7034(15) 0.4204(3)
O4 O 0.1583(4) 1.1525(14) 0.4301(3)
O5 O 0.2419(4) 0.4336(14) 0.5048(3)
O7 O 0.1588(5) 0.6079(14) 0.4908(3)
O8 O 0.2089(5) 0.9772(16) 0.5025(3)
O9 O 0.1093(5) 1.0117(16) 0.5172(3)
O10 O -0.1073(6) 1.1164(17) 0.5401(3)
O11 O -0.1414(5) 1.4028(16) 0.5314(3)
O12 O 0.2070(5) 0.7785(16) 0.4228(3)
O13 O 0.3000(5) 0.6524(14) 0.4381(3)
O14 O 0.1100(8) 1.076(2) 0.3632(4)
O15 O 0.0795(4) 0.8323(15) 0.3971(3)
O16 O -0.0602(4) 1.6764(14) 0.4928(3)
O17 O 0.0390(4) 1.6918(13) 0.4720(3)
Tb1_2 Tb 0.12400(3) 1.86926(9) 0.457683(19)
Tb2B Tb 0.33868(3) 0.42825(9) 0.47741(2)
Cu1C Cu 0.23929(11) 1.4210(3) 0.74525(6)
Cu2C Cu 0.14881(11) 0.9075(3) 0.74250(6)
Cu2_2 Cu 0.35119(11) 0.9075(3) 0.24250(6)
Cu2B Cu -0.14881(11) 0.0925(3) 0.24250(6)
Cu2B_2 Cu -0.14881(11) 2.0925(3) 0.24250(6)
Cu3A Cu -0.02467(13) 1.4936(4) 0.71402(7)
Cu4C Cu 0.35653(11) -0.3574(3) 0.18956(6)
Cu4C_2 Cu 0.35653(11) 0.6426(3) 0.18956(6)
Cu4A Cu -0.14347(11) 0.3574(3) 0.18956(6)
Cu5C Cu 0.26927(10) 0.1482(3) 0.19891(6)
Cu5C_2 Cu 0.26927(10) 1.1482(3) 0.19891(6)
I1C I 0.34063(5) 1.26950(16) 0.71995(4)
I2C I 0.12673(5) 0.30560(14) 0.72677(3)
I2C_2 I 0.12673(5) 1.30560(14) 0.72677(3)
I3_2 I 0.24759(5) -0.22267(13) 0.21616(3)
I3C I 0.25241(5) 0.77733(13) 0.71616(3)
I4B I 0.45944(5) -0.19028(15) 0.21402(4)
I4A I 0.04056(5) 0.80972(15) 0.71402(4)
N1B N 0.3440(6) -0.0305(17) 0.2985(3)
N4A N 0.0442(7) 0.568(2) 0.1602(3)
O5B O -0.2581(4) 1.5664(14) 0.5048(3)
O13B O -0.2000(5) 1.3476(14) 0.4381(3)
O17_2 O 0.0390(4) 0.6918(13) 0.4720(3)
O6 O 0.0007(7) -0.121(2) 0.5629(4)
loop_
_geom_bond_atom_site_label_1
_geom_bond_atom_site_label_2
_geom_bond_site_symmetry_1
_geom_bond_site_symmetry_2
Tb1 N8 1_555 1_555
Tb2 N7 1_555 1_555
Cu1 I1 1_555 1_555
Cu2 I2 1_555 1_555
Cu3 I4 1_555 1_555
Cu4 N2 1_555 1_555
Cu5 N3 1_555 1_555
I1 Cu5C 1_555 1_555
I2 Cu1 1_555 1_555
I3 Cu1 1_555 1_555
I4 Cu2B 1_555 1_555
C1 C2 1_555 1_555
C2 C3 1_555 1_555
C3 H1 1_555 1_555
C4 C3 1_555 1_555
H2 C4 1_555 1_555
C5 H3 1_555 1_555
C6 C2 1_555 1_555
H4 C6 1_555 1_555
C7 C8 1_555 1_555
C8 C9 1_555 1_555
C9 H5 1_555 1_555
C10 C9 1_555 1_555
H6 C10 1_555 1_555
C11 H7 1_555 1_555
C12 C8 1_555 1_555
H8 C12 1_555 1_555
C13 C14 1_555 1_555
C14 C15 1_555 1_555
C15 H9 1_555 1_555
C16 C15 1_555 1_555
H10 C16 1_555 1_555
C17 H11 1_555 1_555
C18 C14 1_555 1_555
H12 C18 1_555 1_555
C19 C20 1_555 1_555
C20 C21 1_555 1_555
C21 H13 1_555 1_555
C22 C21 1_555 1_555
H14 C22 1_555 1_555
C23 H15 1_555 1_555
C24 C20 1_555 1_555
H16 C24 1_555 1_555
C25 C26 1_555 1_555
C26 C27 1_555 1_555
C27 H17 1_555 1_555
C28 C27 1_555 1_555
H18 C28 1_555 1_555
C29 H19 1_555 1_555
C30 C26 1_555 1_555
H20 C30 1_555 1_555
C31 C32 1_555 1_555
C32 C33 1_555 1_555
C33 H21 1_555 1_555
C34 C33 1_555 1_555
H22 C34 1_555 1_555
C35 H23 1_555 1_555
C36 C32 1_555 1_555
H24 C36 1_555 1_555
C37 C38 1_555 1_555
C38 C39 1_555 1_555
C39 H25 1_555 1_555
C40 H26 1_555 1_555
C41 C40 1_555 1_555
H27 C41 1_555 1_555
N1 C4 1_555 1_555
N2 C10 1_555 1_555
N3 C16 1_555 1_555
N4 C22 1_555 1_555
N5 Cu1 1_555 1_555
N6 Cu3 1_555 1_555
N7 C38 1_555 1_555
N8 C39 1_555 1_555
O1 Tb2 1_555 1_555
O2 Tb2 1_555 1_555
O3 Tb2 1_555 1_555
O4 Tb1 1_555 1_555
O5 C7 1_555 1_555
O7 Tb1 1_555 1_555
O8 Tb1 1_555 1_555
O9 Tb1 1_555 1_555
O10 C19 1_555 1_555
O11 Tb2 1_555 1_555
O12 Tb1 1_555 1_555
O13 C25 1_555 1_555
O14 C31 1_555 1_555
O15 Tb1 1_555 1_555
O16 Tb2 1_555 1_555
O17 C37 1_555 1_555
Tb1_2 O17 1_555 1_555
Tb2B O5 1_555 1_555
Cu1C Cu5 1_555 1_555
Cu2C Cu4 1_555 1_555
Cu2_2 I3 1_555 1_555
Cu2B Cu4A 1_555 1_555
Cu2B_2 N1 1_555 1_555
Cu3A N4 1_555 1_555
Cu4C Cu2 1_555 1_555
Cu4C_2 I2 1_555 1_555
Cu4A I4 1_555 1_555
Cu5C Cu1 1_555 1_555
Cu5C_2 I3 1_555 1_555
I1C Cu5 1_555 1_555
I2C Cu4 1_555 1_555
I2C_2 Cu5 1_555 1_555
I3_2 Cu2 1_555 1_555
I3C Cu4 1_555 1_555
I4B Cu2 1_555 1_555
I4A Cu4 1_555 1_555
N1B Cu2 1_555 1_555
N4A Cu3 1_555 1_555
O5B Tb2 1_555 1_555
O13B Tb2 1_555 1_555
O17_2 Tb1 1_555 1_555
Cu2 Cu5C 1_555 1_555
Cu5 Cu2C 1_555 1_555
Cu5 I3C 1_555 1_555
I2 Cu5C 1_555 1_555
I3 Cu4C_2 1_555 1_555
C1 O1 1_555 1_555
C1 O3 1_555 1_555
C5 C6 1_555 1_555
C5 N1 1_555 1_555
C7 O7 1_555 1_555
C11 C12 1_555 1_555
C11 N2 1_555 1_555
C13 O8 1_555 1_555
C13 O9 1_555 1_555
C17 C18 1_555 1_555
C17 N3 1_555 1_555
C19 O11 1_555 1_555
C23 C24 1_555 1_555
C23 N4 1_555 1_555
C25 O12 1_555 1_555
C28 N5 1_555 1_555
C29 C30 1_555 1_555
C29 N5 1_555 1_555
C31 O15 1_555 1_555
C34 N6 1_555 1_555
C35 C36 1_555 1_555
C35 N6 1_555 1_555
C37 O16 1_555 1_555
C40 N8 1_555 1_555
C41 N7 1_555 1_555
O13 Tb2B 1_555 1_555
Cu1C I1C 1_555 1_555
Cu1C I2C_2 1_555 1_555
Cu2C I2C_2 1_555 1_555
Cu2C I3C 1_555 1_555
Cu2C I4A 1_555 1_555
Cu2_2 Cu4C_2 1_555 1_555
Cu2_2 Cu5C_2 1_555 1_555
Cu4C I3_2 1_555 1_555
Cu4C I4B 1_555 1_555
Cu5C I3_2 1_555 1_555

#END
