
#######################################################################
#
#                 Cambridge Crystallographic Data Centre
#                                CCDC 
#
#######################################################################
#
# If this CIF has been generated from an entry in the Cambridge 
# Structural Database, then it will include bibliographic, chemical, 
# crystal, experimental, refinement or atomic coordinate data resulting 
# from the CCDC's data processing and validation procedures.
#
#######################################################################

data_NITCID
_symmetry_cell_setting           orthorhombic
_symmetry_space_group_name_H-M   'P c a 21'
_symmetry_Int_Tables_number      29
_space_group_name_Hall           'P 2c -2ac'
loop_
_symmetry_equiv_pos_site_id
_symmetry_equiv_pos_as_xyz
1 x,y,z
2 -x,-y,1/2+z
3 1/2+x,-y,z
4 1/2-x,y,1/2+z
_cell_length_a                   21.290(4)
_cell_length_b                   7.2185(14)
_cell_length_c                   35.203(7)
_cell_angle_alpha                90
_cell_angle_beta                 90
_cell_angle_gamma                90
_cell_volume                     5410.06
loop_
_atom_site_label
_atom_site_type_symbol
_atom_site_fract_x
_atom_site_fract_y
_atom_site_fract_z
Y1 Y 0.12450(3) 0.86804(10) 0.457983(18)
Y2 Y -0.16046(3) 1.57131(10) 0.477130(18)
Cu1 Cu 0.26057(6) 0.42159(19) 0.24528(3)
Cu2 Cu 0.35069(6) -0.09199(19) 0.24248(3)
Cu3 Cu 0.02596(8) 0.5063(2) 0.21412(4)
Cu4 Cu 0.14394(7) 0.6413(2) 0.68950(3)
Cu5 Cu 0.23102(6) 1.14740(18) 0.69905(3)
I1 I 0.15859(3) 0.26839(9) 0.22027(2)
I2 I 0.37353(3) 0.30504(7) 0.226770(14)
I3 I 0.24658(3) 0.77677(7) 0.216140(17)
I4 I -0.04058(3) 0.19077(8) 0.213830(18)
C1 C -0.1664(3) 1.7726(10) 0.40785(19)
C2 C -0.1634(4) 1.8719(11) 0.3708(2)
C3 C -0.2170(4) 1.9260(11) 0.3510(2)
H1 H -0.2566 1.9108 0.3618
C4 C -0.2110(4) 2.0019(12) 0.3156(2)
H2 H -0.2474 2.0352 0.3027
C5 C -0.1036(4) 1.9861(13) 0.3183(2)
H3 H -0.0644 2.0095 0.3077
C6 C -0.1067(4) 1.9070(13) 0.3538(2)
H4 H -0.0698 1.8767 0.3665
C7 C 0.1951(3) 0.5317(10) 0.5135(2)
C8 C 0.1816(4) 0.5501(10) 0.5554(2)
C9 C 0.1224(4) 0.6002(12) 0.5683(2)
H5 H 0.0898 0.6188 0.5512
C10 C 0.1124(4) 0.6220(13) 0.6066(2)
H6 H 0.0722 0.6513 0.6149
C11 C 0.2147(4) 0.5558(12) 0.6201(2)
H7 H 0.2469 0.5417 0.6378
C12 C 0.2283(4) 0.5266(12) 0.5821(2)
H8 H 0.2685 0.4916 0.5746
C13 C 0.1678(4) 1.0106(10) 0.5267(2)
C14 C 0.1837(4) 1.0532(11) 0.5668(2)
C15 C 0.1374(4) 1.1035(13) 0.5920(2)
H9 H 0.0962 1.1186 0.5838
C16 C 0.1528(4) 1.1311(13) 0.6295(2)
H10 H 0.1210 1.1629 0.6463
C17 C 0.2563(4) 1.0634(13) 0.6185(2)
H11 H 0.2971 1.0492 0.6275
C18 C 0.2448(4) 1.0308(13) 0.5805(2)
H12 H 0.2771 0.9946 0.5643
C19 C -0.1140(4) 1.2803(12) 0.5494(2)
C20 C -0.0884(4) 1.3367(12) 0.5887(2)
C21 C -0.0687(6) 1.2021(14) 0.6139(3)
H13 H -0.0698 1.0776 0.6072
C22 C -0.0473(6) 1.2553(14) 0.6492(3)
H14 H -0.0339 1.1639 0.6660
C23 C -0.0625(5) 1.5584(13) 0.6358(2)
H15 H -0.0599 1.6822 0.6429
C24 C -0.0844(5) 1.5180(12) 0.6001(2)
H16 H -0.0964 1.6128 0.5837
C25 C 0.2548(4) 0.6817(10) 0.4157(2)
C26 C 0.2589(4) 0.6039(11) 0.3763(2)
C27 C 0.2045(4) 0.5554(14) 0.3573(2)
H17 H 0.1658 0.5647 0.3695
C28 C 0.2075(5) 0.4933(15) 0.3205(2)
H18 H 0.1705 0.4597 0.3083
C29 C 0.3151(5) 0.5250(12) 0.3199(2)
H19 H 0.3532 0.5152 0.3072
C30 C 0.3150(4) 0.5867(11) 0.3577(2)
H20 H 0.3525 0.6154 0.3699
C31 C 0.0875(4) 0.9185(13) 0.3665(2)
C32 C 0.0690(4) 0.8158(13) 0.3305(2)
C33 C 0.0397(4) 0.6466(14) 0.3307(2)
H21 H 0.0287 0.5914 0.3536
C34 C 0.0266(5) 0.5579(14) 0.2966(2)
H22 H 0.0065 0.4435 0.2973
C35 C 0.0693(5) 0.7963(13) 0.2631(2)
H23 H 0.0799 0.8496 0.2399
C36 C 0.0832(5) 0.8934(14) 0.2957(2)
H24 H 0.1018 1.0097 0.2943
C37 C -0.0112(3) 1.6099(10) 0.4776(2)
C38 C -0.0143(3) 1.4064(9) 0.4665(2)
C39 C 0.0379(3) 1.2921(10) 0.4637(2)
H25 H 0.0776 1.3402 0.4687
C40 C -0.0265(4) 1.0552(10) 0.4455(2)
H26 H -0.0320 0.9338 0.4373
C41 C -0.0787(4) 1.1694(10) 0.4485(2)
H27 H -0.1183 1.1222 0.4430
N1 N -0.1557(4) 2.0306(10) 0.29862(18)
N2 N 0.1584(3) 0.6027(10) 0.63267(18)
N3 N 0.2114(3) 1.1145(10) 0.64303(18)
N4 N -0.0449(4) 1.4317(11) 0.66055(19)
N5 N 0.2620(4) 0.4794(11) 0.30143(19)
N6 N 0.0417(4) 0.6306(11) 0.26264(19)
N7 N -0.0730(3) 1.3451(8) 0.45922(18)
N8 N 0.0319(3) 1.1137(9) 0.45410(18)
O1 O -0.2172(2) 1.7533(8) 0.42613(14)
O2 O -0.1730(3) 1.8718(8) 0.49951(17)
O3 O -0.1161(3) 1.7029(8) 0.42035(15)
O4 O 0.1594(2) 1.1478(8) 0.43101(16)
O5 O 0.2423(2) 0.4358(8) 0.50421(15)
O7 O 0.1586(3) 0.6086(8) 0.49110(14)
O8 O 0.2094(3) 0.9774(8) 0.50240(14)
O9 O 0.1099(3) 1.0059(9) 0.51780(15)
O10 O -0.1069(4) 1.1184(9) 0.54012(18)
O11 O -0.1412(3) 1.4036(9) 0.53041(15)
O12 O 0.2076(3) 0.7783(8) 0.42299(15)
O13 O 0.2990(2) 0.6490(7) 0.43827(15)
O14 O 0.1091(5) 1.0765(11) 0.36361(19)
O15 O 0.0800(3) 0.8307(8) 0.39802(15)
O16 O -0.0596(2) 1.6770(8) 0.49210(15)
O17 O 0.0398(3) 1.6925(7) 0.47221(18)
Y1_2 Y 0.12450(3) 1.86804(10) 0.457983(18)
Y2B Y 0.33954(3) 0.42869(10) 0.477130(18)
Cu1C Cu 0.23943(6) 1.42159(19) 0.74528(3)
Cu2C Cu 0.14931(6) 0.90801(19) 0.74248(3)
Cu2_2 Cu 0.35069(6) 0.90801(19) 0.24248(3)
Cu2B Cu -0.14931(6) 0.09199(19) 0.24248(3)
Cu2B_2 Cu -0.14931(6) 2.09199(19) 0.24248(3)
Cu3A Cu -0.02596(8) 1.4937(2) 0.71412(4)
Cu4C Cu 0.35606(7) -0.3587(2) 0.18950(3)
Cu4C_2 Cu 0.35606(7) 0.6413(2) 0.18950(3)
Cu4A Cu -0.14394(7) 0.3587(2) 0.18950(3)
Cu5C Cu 0.26898(6) 0.14740(18) 0.19905(3)
Cu5C_2 Cu 0.26898(6) 1.14740(18) 0.19905(3)
I1C I 0.34141(3) 1.26839(9) 0.72027(2)
I2C I 0.12647(3) 0.30504(7) 0.726770(14)
I2C_2 I 0.12647(3) 1.30504(7) 0.726770(14)
I3_2 I 0.24658(3) -0.22323(7) 0.216140(17)
I3C I 0.25342(3) 0.77677(7) 0.716140(17)
I4B I 0.45942(3) -0.19077(8) 0.213830(18)
I4A I 0.04058(3) 0.80923(8) 0.713830(18)
N1B N 0.3443(4) -0.0306(10) 0.29862(18)
N4A N 0.0449(4) 0.5683(11) 0.16055(19)
O5B O -0.2577(2) 1.5642(8) 0.50421(15)
O13B O -0.2010(2) 1.3510(7) 0.43827(15)
O17_2 O 0.0398(3) 0.6925(7) 0.47221(18)
O6 O 0.0011(4) -0.1225(14) 0.5633(2)
loop_
_geom_bond_atom_site_label_1
_geom_bond_atom_site_label_2
_geom_bond_site_symmetry_1
_geom_bond_site_symmetry_2
Y1 N8 1_555 1_555
Y2 N7 1_555 1_555
Cu1 I1 1_555 1_555
Cu2 I2 1_555 1_555
Cu3 I4 1_555 1_555
Cu4 N2 1_555 1_555
Cu5 N3 1_555 1_555
I1 Cu5C 1_555 1_555
I2 Cu1 1_555 1_555
I3 Cu1 1_555 1_555
I4 Cu2B 1_555 1_555
C1 C2 1_555 1_555
C2 C3 1_555 1_555
C3 H1 1_555 1_555
C4 C3 1_555 1_555
H2 C4 1_555 1_555
C5 H3 1_555 1_555
C6 C2 1_555 1_555
H4 C6 1_555 1_555
C7 C8 1_555 1_555
C8 C9 1_555 1_555
C9 H5 1_555 1_555
C10 C9 1_555 1_555
H6 C10 1_555 1_555
C11 H7 1_555 1_555
C12 C8 1_555 1_555
H8 C12 1_555 1_555
C13 C14 1_555 1_555
C14 C15 1_555 1_555
C15 H9 1_555 1_555
C16 C15 1_555 1_555
H10 C16 1_555 1_555
C17 H11 1_555 1_555
C18 C14 1_555 1_555
H12 C18 1_555 1_555
C19 C20 1_555 1_555
C20 C21 1_555 1_555
C21 H13 1_555 1_555
C22 C21 1_555 1_555
H14 C22 1_555 1_555
C23 H15 1_555 1_555
C24 C20 1_555 1_555
H16 C24 1_555 1_555
C25 C26 1_555 1_555
C26 C27 1_555 1_555
C27 H17 1_555 1_555
C28 C27 1_555 1_555
H18 C28 1_555 1_555
C29 H19 1_555 1_555
C30 C26 1_555 1_555
H20 C30 1_555 1_555
C31 C32 1_555 1_555
C32 C33 1_555 1_555
C33 H21 1_555 1_555
C34 C33 1_555 1_555
H22 C34 1_555 1_555
C35 H23 1_555 1_555
C36 C32 1_555 1_555
H24 C36 1_555 1_555
C37 C38 1_555 1_555
C38 C39 1_555 1_555
C39 H25 1_555 1_555
C40 H26 1_555 1_555
C41 C40 1_555 1_555
H27 C41 1_555 1_555
N1 C4 1_555 1_555
N2 C10 1_555 1_555
N3 C16 1_555 1_555
N4 C22 1_555 1_555
N5 Cu1 1_555 1_555
N6 Cu3 1_555 1_555
N7 C38 1_555 1_555
N8 C39 1_555 1_555
O1 Y2 1_555 1_555
O2 Y2 1_555 1_555
O3 Y2 1_555 1_555
O4 Y1 1_555 1_555
O5 C7 1_555 1_555
O7 Y1 1_555 1_555
O8 Y1 1_555 1_555
O9 Y1 1_555 1_555
O10 C19 1_555 1_555
O11 Y2 1_555 1_555
O12 Y1 1_555 1_555
O13 C25 1_555 1_555
O14 C31 1_555 1_555
O15 Y1 1_555 1_555
O16 Y2 1_555 1_555
O17 C37 1_555 1_555
Y1_2 O17 1_555 1_555
Y2B O5 1_555 1_555
Cu1C Cu5 1_555 1_555
Cu2C Cu4 1_555 1_555
Cu2_2 I3 1_555 1_555
Cu2B Cu4A 1_555 1_555
Cu2B_2 N1 1_555 1_555
Cu3A N4 1_555 1_555
Cu4C Cu2 1_555 1_555
Cu4C_2 I2 1_555 1_555
Cu4A I4 1_555 1_555
Cu5C Cu1 1_555 1_555
Cu5C_2 I3 1_555 1_555
I1C Cu5 1_555 1_555
I2C Cu4 1_555 1_555
I2C_2 Cu5 1_555 1_555
I3_2 Cu2 1_555 1_555
I3C Cu4 1_555 1_555
I4B Cu2 1_555 1_555
I4A Cu4 1_555 1_555
N1B Cu2 1_555 1_555
N4A Cu3 1_555 1_555
O5B Y2 1_555 1_555
O13B Y2 1_555 1_555
O17_2 Y1 1_555 1_555
Cu2 Cu5C 1_555 1_555
Cu5 Cu2C 1_555 1_555
Cu5 I3C 1_555 1_555
I2 Cu5C 1_555 1_555
I3 Cu4C_2 1_555 1_555
C1 O1 1_555 1_555
C1 O3 1_555 1_555
C5 C6 1_555 1_555
C5 N1 1_555 1_555
C7 O7 1_555 1_555
C11 C12 1_555 1_555
C11 N2 1_555 1_555
C13 O8 1_555 1_555
C13 O9 1_555 1_555
C17 C18 1_555 1_555
C17 N3 1_555 1_555
C19 O11 1_555 1_555
C23 C24 1_555 1_555
C23 N4 1_555 1_555
C25 O12 1_555 1_555
C28 N5 1_555 1_555
C29 C30 1_555 1_555
C29 N5 1_555 1_555
C31 O15 1_555 1_555
C34 N6 1_555 1_555
C35 C36 1_555 1_555
C35 N6 1_555 1_555
C37 O16 1_555 1_555
C40 N8 1_555 1_555
C41 N7 1_555 1_555
O13 Y2B 1_555 1_555
Cu1C I1C 1_555 1_555
Cu1C I2C_2 1_555 1_555
Cu2C I2C_2 1_555 1_555
Cu2C I3C 1_555 1_555
Cu2C I4A 1_555 1_555
Cu2_2 Cu4C_2 1_555 1_555
Cu2_2 Cu5C_2 1_555 1_555
Cu4C I3_2 1_555 1_555
Cu4C I4B 1_555 1_555
Cu5C I3_2 1_555 1_555

#END
