
#######################################################################
#
#                 Cambridge Crystallographic Data Centre
#                                CCDC 
#
#######################################################################
#
# If this CIF has been generated from an entry in the Cambridge 
# Structural Database, then it will include bibliographic, chemical, 
# crystal, experimental, refinement or atomic coordinate data resulting 
# from the CCDC's data processing and validation procedures.
#
#######################################################################

data_NITCEZ
_symmetry_cell_setting           rhombohedral
_symmetry_space_group_name_H-M   'R -3 c'
_symmetry_Int_Tables_number      167
_space_group_name_Hall           '-R 3 2"c'
loop_
_symmetry_equiv_pos_site_id
_symmetry_equiv_pos_as_xyz
1 x,y,z
2 -y,x-y,z
3 -x+y,-x,z
4 y,x,1/2-z
5 2/3+x,1/3+y,1/3+z
6 2/3-y,1/3+x-y,1/3+z
7 2/3-x+y,1/3-x,1/3+z
8 2/3+y,1/3+x,5/6-z
9 1/3+x,2/3+y,2/3+z
10 1/3+y,2/3+x,1/6-z
11 x-y,-y,1/2-z
12 -x,-x+y,1/2-z
13 1/3-y,2/3+x-y,2/3+z
14 1/3-x+y,2/3-x,2/3+z
15 1/3+x-y,2/3-y,1/6-z
16 1/3-x,2/3-x+y,1/6-z
17 2/3+x-y,1/3-y,5/6-z
18 2/3-x,1/3-x+y,5/6-z
19 -x,-y,-z
20 y,-x+y,-z
21 x-y,x,-z
22 -y,-x,1/2+z
23 1/3-x,2/3-y,2/3-z
24 1/3+y,2/3-x+y,2/3-z
25 1/3+x-y,2/3+x,2/3-z
26 1/3-y,2/3-x,1/6+z
27 2/3-x,1/3-y,1/3-z
28 2/3-y,1/3-x,5/6+z
29 -x+y,y,1/2+z
30 x,x-y,1/2+z
31 2/3+y,1/3-x+y,1/3-z
32 2/3+x-y,1/3+x,1/3-z
33 2/3-x+y,1/3+y,5/6+z
34 2/3+x,1/3+x-y,5/6+z
35 1/3-x+y,2/3+y,1/6+z
36 1/3+x,2/3+x-y,1/6+z
_cell_length_a                   15.2435(3)
_cell_length_b                   15.2435(3)
_cell_length_c                   93.897(3)
_cell_angle_alpha                90
_cell_angle_beta                 90
_cell_angle_gamma                120.00
_cell_volume                     18895.2
loop_
_atom_site_label
_atom_site_type_symbol
_atom_site_fract_x
_atom_site_fract_y
_atom_site_fract_z
O1 O 0.796(2) 1.3333 0.5833
Dy1 Dy 0.918132(19) 1.09191(2) 0.677720(3)
Cu1 Cu 0.3333 0.6667 0.625950(16)
Cu2 Cu 0.30806(7) 0.82286(8) 0.586710(9)
I1 I 0.3333 0.6667 0.597930(7)
I2 I 0.12238(4) 0.7890 0.5834
C1 C 0.7313(5) 0.8719(5) 0.66480(7)
C2 C 0.6442(5) 0.8230(4) 0.65417(7)
C3 C 0.5788(6) 0.7220(6) 0.65460(8)
H1 H 0.5895 0.6816 0.6610
C4 C 0.4971(6) 0.6793(6) 0.64567(9)
H2 H 0.4523 0.6100 0.6465
C5 C 0.5467(5) 0.8296(5) 0.63483(8)
H3 H 0.5392 0.8670 0.6276
C6 C 0.6275(5) 0.8782(5) 0.64388(8)
H4 H 0.6708 0.9477 0.6432
C7 C 0.5899(5) 1.1406(6) 0.63218(7)
C8 C 0.5218(5) 1.0665(5) 0.62140(7)
C9 C 0.4187(5) 1.0244(5) 0.62230(8)
H5 H 0.3901 1.0430 0.6296
C10 C 0.3586(5) 0.9551(6) 0.61236(8)
H6 H 0.2887 0.9256 0.6133
C11 C 0.4936(6) 0.9661(6) 0.60107(9)
H7 H 0.5203 0.9448 0.5939
C12 C 0.5598(5) 1.0352(6) 0.61055(8)
H8 H 0.6291 1.0605 0.6097
C13 C 0.4314(5) 0.9045(5) 0.52183(6)
C14 C 0.4093(5) 0.8860(4) 0.53726(6)
C15 C 0.4712(5) 0.9516(5) 0.54777(7)
H9 H 0.5306 1.0103 0.5453
C16 C 0.4446(6) 0.9296(6) 0.56186(7)
H10 H 0.4871 0.9748 0.5688
C17 C 0.2991(5) 0.7832(6) 0.55601(7)
H11 H 0.2384 0.7267 0.5587
C18 C 0.3221(5) 0.7987(5) 0.54159(7)
H12 H 0.2797 0.7513 0.5349
N1 N 0.4773(5) 0.7301(4) 0.63589(7)
N2 N 0.3947(4) 0.9272(4) 0.60137(6)
N3 N 0.3595(5) 0.8452(4) 0.56624(6)
O2 O 0.7681(3) 0.9641(4) 0.66701(6)
O3 O 1.0588(3) 1.2446(3) 0.67088(6)
O4 O 0.8572(5) 0.9663(4) 0.69409(5)
O5 O 0.9910(4) 1.1811(4) 0.69917(5)
O6 O 0.8151(4) 1.1536(4) 0.68397(5)
O7 O 0.9357(4) 1.0982(4) 0.65260(6)
O8 O 1.0000 1.0000 0.67151(8)
Dy1B Dy 1.173778(28) 1.081868(19) 0.677720(3)
Dy1A Dy 0.90809(2) 0.826222(28) 0.677720(3)
Dy1EA Dy 0.492889(28) 1.251465(19) 0.655613(3)
Dy1Z Dy 0.748535(19) 1.24142(2) 0.655613(3)
Dy1GA Dy 0.584799(19) 1.159555(28) 0.511053(3)
Dy1O Dy 0.415201(19) 0.840445(28) 0.488947(3)
Dy1DA Dy 0.75858(2) 1.507111(28) 0.655613(3)
Dy1DA_2 Dy 0.75858(2) 0.507111(28) 0.655613(3)
Dy1EA_2 Dy 1.492889(28) 1.251465(19) 0.655613(3)
Dy1_2 Dy -0.081868(19) 0.09191(2) 0.677720(3)
Dy1B_2 Dy 0.173778(28) 0.081868(19) 0.677720(3)
Dy1Z_2 Dy -0.251465(19) 0.24142(2) 0.655613(3)
Dy1DA_3 Dy -0.24142(2) 0.507111(28) 0.655613(3)
Dy1FA Dy -0.159555(28) 0.42524(2) 0.511053(3)
Dy1N Dy 0.159555(28) 0.57476(2) 0.488947(3)
Dy1B_3 Dy 0.173778(28) 1.081868(19) 0.677720(3)
Dy1AA Dy 0.57476(2) 1.415201(19) 0.511053(3)
Dy1AA_2 Dy 0.57476(2) 0.415201(19) 0.511053(3)
Dy1I Dy 0.42524(2) 0.584799(19) 0.488947(3)
Dy1A_2 Dy -0.09191(2) 0.826222(28) 0.677720(3)
Cu1I Cu 0.0000 1.0000 0.540717(16)
Cu1_2 Cu 1.3333 0.6667 0.625950(16)
Cu1_3 Cu 1.3333 1.6667 0.625950(16)
Cu2A Cu 0.17714(8) 0.48520(11) 0.586710(9)
Cu2B Cu 0.51480(11) 0.69194(7) 0.586710(9)
Cu2I Cu 0.15619(8) 0.97473(7) 0.579957(9)
Cu2O Cu 0.02527(7) 0.18147(11) 0.579957(9)
Cu2N Cu 0.81853(11) 0.84381(8) 0.579957(9)
Cu2N_2 Cu -0.18147(11) 0.84381(8) 0.579957(9)
Cu2O_2 Cu 0.02527(7) 1.18147(11) 0.579957(9)
Cu2Z Cu 1.35861(7) 1.51047(8) 0.746623(9)
Cu2Y Cu 1.51047(8) 1.35861(7) 0.753377(9)
Cu2EA Cu 1.15187(11) 0.64139(7) 0.746623(9)
Cu2HA Cu 0.84813(11) 0.48953(8) 0.753377(9)
Cu2DA Cu 0.48953(8) 0.84813(11) 0.746623(9)
Cu2IA Cu 0.64139(7) 1.15187(11) 0.753377(9)
Cu2I_2 Cu 1.15619(8) 0.97473(7) 0.579957(9)
Cu2O_3 Cu 1.02527(7) 1.18147(11) 0.579957(9)
I1I I 0.0000 1.0000 0.568737(7)
I1I_2 I 1.0000 1.0000 0.568737(7)
I2A I 0.2110 0.33338(4) 0.5834
I2B I 0.66662(4) 0.87762(4) 0.5834
I2B_2 I -0.33338(4) 0.87762(4) 0.5834
C1B C 1.1406(7) 1.2687(5) 0.66480(7)
C1A C 1.1281(5) 0.8594(7) 0.66480(7)
C1A_2 C 0.1281(5) 0.8594(7) 0.66480(7)
C1B_2 C 0.1406(7) 0.2687(5) 0.66480(7)
C2B C 1.1788(6) 1.3558(5) 0.65417(7)
C2A C 1.1770(4) 0.8212(6) 0.65417(7)
C2B_2 C 0.1788(6) 0.3558(5) 0.65417(7)
C2A_2 C 0.1770(4) 0.8212(6) 0.65417(7)
C3B C 0.1432(8) 0.4212(6) 0.65460(8)
C3A C 0.2780(6) 0.8568(8) 0.65460(8)
C3B_2 C 1.1432(8) 1.4212(6) 0.65460(8)
C3A_2 C 1.2780(6) 0.8568(8) 0.65460(8)
H1B H 1.0921 1.4105 0.6610
H1A H 0.3184 0.9079 0.6610
H1B_2 H 0.0921 0.4105 0.6610
H1A_2 H 1.3184 0.9079 0.6610
C4B C 0.1822(8) 0.5029(6) 0.64567(9)
C4A C 0.3207(6) 0.8178(8) 0.64567(9)
C4B_2 C 1.1822(8) 1.5029(6) 0.64567(9)
C4A_2 C 1.3207(6) 0.8178(8) 0.64567(9)
H2B H 0.1577 0.5477 0.6465
H2A H 0.3900 0.8423 0.6465
H2B_2 H 1.1577 1.5477 0.6465
H2A_2 H 1.3900 0.8423 0.6465
C5B C 0.2829(7) 0.4533(5) 0.63483(8)
C5A C 0.1704(5) 0.7171(7) 0.63483(8)
C5B_2 C 1.2829(7) 1.4533(5) 0.63483(8)
C5A_2 C 1.1704(5) 0.7171(7) 0.63483(8)
H3B H 0.3278 0.4608 0.6276
H3A H 0.1330 0.6722 0.6276
H3B_2 H 1.3278 1.4608 0.6276
H3A_2 H 1.1330 0.6722 0.6276
C6B C 0.2507(7) 0.3725(5) 0.64388(8)
C6A C 0.1218(5) 0.7493(7) 0.64388(8)
C6B_2 C 1.2507(7) 1.3725(5) 0.64388(8)
C6A_2 C 1.1218(5) 0.7493(7) 0.64388(8)
H4B H 1.2769 1.3292 0.6432
H4B_2 H 0.2769 0.3292 0.6432
H4A H 0.0523 0.7231 0.6432
H4A_2 H 1.0523 0.7231 0.6432
C7DA C 0.8073(6) 0.8840(8) 0.70115(7)
C7Z C 1.0768(5) 1.1927(6) 0.70115(7)
C7EA C 1.1160(8) 0.9232(5) 0.70115(7)
C7A C -0.1406(6) 0.4493(8) 0.63218(7)
C7I C 0.4739(6) 1.2566(5) 0.53449(7)
C8DA C 0.7332(5) 0.8780(7) 0.71193(7)
C8Z C 1.1449(5) 1.2668(5) 0.71193(7)
C8EA C 1.1220(7) 0.8551(5) 0.71193(7)
C8B C 0.5447(7) 0.4782(5) 0.62140(7)
C8A C -0.0665(5) 0.4553(7) 0.62140(7)
C8I C 0.3998(5) 1.1885(5) 0.54527(7)
C9DA C 0.6911(5) 0.9390(7) 0.71103(8)
C9Z C 1.2480(5) 1.3089(5) 0.71103(8)
C9EA C 1.0610(7) 0.7520(5) 0.71103(8)
C9B C 0.6057(7) 0.5813(5) 0.62230(8)
C9A C -0.0244(5) 0.3943(7) 0.62230(8)
C9I C 0.3577(5) 1.0854(5) 0.54437(8)
H5Z H 1.2766 1.2903 0.7037
H5DA H 0.7097 0.9862 0.7037
H5B H 0.6529 0.6099 0.6296
H5EA H 1.0138 0.7234 0.7037
H5A H -0.0430 0.3471 0.6296
H5I H 0.3763 1.0568 0.5371
C10A C 0.0449(6) 0.4035(8) 0.61236(8)
C10B C 0.5965(8) 0.6414(5) 0.61236(8)
C10I C 0.2884(6) 1.0253(5) 0.55431(8)
C10Z C 1.3081(5) 1.3782(6) 0.72097(8)
C10DA C 0.6218(6) 0.9298(8) 0.72097(8)
C10EA C 1.0702(8) 0.6919(5) 0.72097(8)
H6Z H 1.3780 1.4077 0.7200
H6DA H 0.5923 0.9702 0.7200
H6B H 0.6369 0.7113 0.6133
H6EA H 1.0298 0.6220 0.7200
H6A H 0.0744 0.3631 0.6133
H6I H 0.2589 0.9554 0.5534
C11A C 0.0339(6) 0.5275(8) 0.60107(9)
C11B C 0.4725(8) 0.5064(6) 0.60107(9)
C11I C 0.2994(6) 1.1603(6) 0.56560(9)
C11Z C 1.1731(6) 1.3672(6) 0.73226(9)
C11DA C 0.6328(6) 0.8058(8) 0.73226(9)
C11EA C 1.1942(8) 0.8269(6) 0.73226(9)
H7Z H 1.1464 1.3885 0.7394
H7DA H 0.6115 0.7578 0.7394
H7B H 0.4245 0.4797 0.5939
H7EA H 1.2422 0.8536 0.7394
H7A H 0.0552 0.5755 0.5939
H7I H 0.2781 1.1870 0.5728
C12DA C 0.7019(6) 0.8087(8) 0.72278(8)
C12Z C 1.1069(5) 1.2981(6) 0.72278(8)
C12EA C 1.1913(8) 0.8931(5) 0.72278(8)
C12B C 0.4754(8) 0.4402(5) 0.61055(8)
C12A C -0.0352(6) 0.5246(8) 0.61055(8)
C12I C 0.3685(6) 1.2265(5) 0.55612(8)
H8Z H 1.0376 1.2728 0.7236
H8DA H 0.7272 0.7647 0.7236
H8B H 0.4314 0.3709 0.6097
H8EA H 1.2353 0.9624 0.7236
H8A H -0.0605 0.5686 0.6097
H8I H 0.3938 1.2958 0.5570
C13IA C 0.7647(5) 1.1936(7) 0.68850(6)
C13O C 0.9019(5) 1.1398(7) 0.64484(6)
C13Y C 1.4288(5) 1.2353(5) 0.68850(6)
C13I C 1.2378(5) 1.0981(5) 0.64484(6)
C13HA C 0.8064(7) 0.5712(5) 0.68850(6)
C13N C 0.8602(7) 0.7622(5) 0.64484(6)
C13A C 0.0955(5) 0.5269(7) 0.52183(6)
C13I_2 C 0.2378(5) 1.0981(5) 0.64484(6)
C13B C 0.4731(7) 0.5686(5) 0.52183(6)
C14IA C 0.7426(5) 1.1900(6) 0.70393(6)
C14O C 0.9240(5) 1.1434(6) 0.62941(6)
C14I C 1.2193(4) 1.0760(5) 0.62941(6)
C14N C 0.8566(6) 0.7807(4) 0.62941(6)
C14HA C 0.8100(6) 0.5527(4) 0.70393(6)
C14Y C 1.4473(4) 1.2574(5) 0.70393(6)
C14A C 0.1140(4) 0.5233(6) 0.53726(6)
C14B C 0.4767(6) 0.5907(5) 0.53726(6)
C14I_2 C 0.2193(4) 1.0760(5) 0.62941(6)
C15IA C 0.8045(5) 1.1863(7) 0.71444(7)
C15O C 0.8621(5) 1.1471(7) 0.61890(7)
C15Y C 1.3817(5) 1.1955(5) 0.71444(7)
C15A C 0.0484(5) 0.5196(7) 0.54777(7)
C15B C 0.4804(7) 0.5288(5) 0.54777(7)
C15HA C 0.8137(7) 0.6183(5) 0.71444(7)
C15N C 0.8529(7) 0.7151(5) 0.61890(7)
C15I C 1.2849(5) 1.1379(5) 0.61890(7)
C15I_2 C 0.2849(5) 1.1379(5) 0.61890(7)
H9IA H 0.8639 1.1870 0.7120
H9O H 0.8027 1.1464 0.6214
H9Y H 1.3230 1.1361 0.7120
H9HA H 0.8130 0.6770 0.7120
H9I H 1.3436 1.1973 0.6214
H9N H 0.8536 0.6564 0.6214
H9A H -0.0103 0.5203 0.5453
H9B H 0.4797 0.4694 0.5453
H9I_2 H 0.3436 1.1973 0.6214
C16A C 0.0704(6) 0.5150(8) 0.56186(7)
C16B C 0.4850(8) 0.5554(6) 0.56186(7)
C16I C 0.2629(6) 1.1113(6) 0.60481(7)
C16IA C 0.7779(6) 1.1817(8) 0.72853(7)
C16O C 0.8887(6) 1.1517(8) 0.60481(7)
C16Y C 1.4037(6) 1.2221(6) 0.72853(7)
C16HA C 0.8183(8) 0.5963(6) 0.72853(7)
C16I_2 C 1.2629(6) 1.1113(6) 0.60481(7)
C16N C 0.8483(8) 0.7371(6) 0.60481(7)
H10IA H 0.8204 1.1790 0.7355
H10A H 0.0252 0.5123 0.5688
H10B H 0.4877 0.5129 0.5688
H10Y H 1.3585 1.1796 0.7355
H10HA H 0.8210 0.6415 0.7355
H10O H 0.8462 1.1544 0.5979
H10I H 1.3081 1.1538 0.5979
H10N H 0.8456 0.6919 0.5979
H10I_2 H 0.3081 1.1538 0.5979
C17A C 0.2168(6) 0.5159(8) 0.55601(7)
C17B C 0.4841(8) 0.7009(5) 0.55601(7)
C17I C 0.1165(6) 0.9658(5) 0.61066(7)
C17IA C 0.6324(5) 1.1826(8) 0.72268(7)
C17O C 1.0342(5) 1.1508(8) 0.61066(7)
C17Y C 1.5501(6) 1.3676(5) 0.72268(7)
C17HA C 0.8174(8) 0.4499(6) 0.72268(7)
C17I_2 C 1.1165(6) 0.9658(5) 0.61066(7)
C17N C 0.8492(8) 0.8835(6) 0.61066(7)
H11IA H 0.5717 1.1784 0.7254
H11A H 0.2733 0.5117 0.5587
H11B H 0.4883 0.7616 0.5587
H11Y H 1.6066 1.4283 0.7254
H11HA H 0.8216 0.3934 0.7254
H11O H 1.0949 1.1550 0.6080
H11I H 1.0600 0.9051 0.6080
H11N H 0.8450 0.9400 0.6080
H11I_2 H 0.0600 0.9051 0.6080
C18IA C 0.6554(5) 1.1901(7) 0.70826(7)
C18O C 1.0112(5) 1.1433(7) 0.62508(7)
C18Y C 1.5346(5) 1.3446(5) 0.70826(7)
C18A C 0.2013(5) 0.5234(7) 0.54159(7)
C18B C 0.4766(7) 0.6779(5) 0.54159(7)
C18HA C 0.8099(7) 0.4654(5) 0.70826(7)
C18N C 0.8567(7) 0.8680(5) 0.62508(7)
C18I C 1.1320(5) 0.9888(5) 0.62508(7)
C18I_2 C 0.1320(5) 0.9888(5) 0.62508(7)
H12IA H 0.6130 1.1951 0.7016
H12O H 1.0536 1.1383 0.6318
H12Y H 1.5820 1.3870 0.7016
H12HA H 0.8049 0.4180 0.7016
H12I H 1.0846 0.9464 0.6318
H12N H 0.8617 0.9154 0.6318
H12A H 0.2487 0.5284 0.5349
H12I_2 H 0.0846 0.9464 0.6318
H12B H 0.4716 0.7203 0.5349
N1B N 0.2528(6) 0.5227(5) 0.63589(7)
N1A N 0.2699(4) 0.7472(6) 0.63589(7)
N1B_2 N 1.2528(6) 1.5227(5) 0.63589(7)
N1A_2 N 1.2699(4) 0.7472(6) 0.63589(7)
N1I N 0.0634(4) 1.1440(5) 0.53078(7)
N1N N 0.0805(6) 0.9366(4) 0.53078(7)
N1O N -0.1440(5) 0.9195(6) 0.53078(7)
N2A N 0.0728(4) 0.4675(6) 0.60137(6)
N2B N 0.5325(6) 0.6053(4) 0.60137(6)
N2I N 0.2605(4) 1.0614(4) 0.56530(6)
N2Z N 1.2720(4) 1.4061(4) 0.73196(6)
N2DA N 0.5939(4) 0.8658(6) 0.73196(6)
N2EA N 1.1342(6) 0.7280(4) 0.73196(6)
N2N N -0.1992(6) 0.7395(4) 0.56530(6)
N2N_2 N 0.8008(6) 0.7395(4) 0.56530(6)
N3A N 0.1548(4) 0.5143(6) 0.56624(6)
N3B N 0.4857(6) 0.6405(5) 0.56624(6)
N3I N 0.1785(4) 1.0262(5) 0.60043(6)
N3IA N 0.6928(5) 1.1810(6) 0.73291(6)
N3Y N 1.4881(4) 1.3072(5) 0.73291(6)
N3HA N 0.8190(6) 0.5119(4) 0.73291(6)
N3O N 0.9738(5) 1.1524(6) 0.60043(6)
N3I_2 N 1.1785(4) 1.0262(5) 0.60043(6)
N3N N 0.8476(6) 0.8215(4) 0.60043(6)
N3N_2 N -0.1524(6) 0.8215(4) 0.60043(6)
O2B O 1.1960(5) 1.2319(3) 0.66701(6)
O2A O 1.0359(4) 0.8040(5) 0.66701(6)
O2EA O 0.4707(5) 1.1014(3) 0.66632(6)
O2Z O 0.8986(3) 1.3692(4) 0.66632(6)
O2GA O 0.4348(3) 1.1373(5) 0.50034(6)
O2O O 0.5652(3) 0.8627(5) 0.49966(6)
O2B_2 O 0.1960(5) 0.2319(3) 0.66701(6)
O2A_2 O 0.0359(4) 0.8040(5) 0.66701(6)
O3A O 0.7554(3) 0.8142(4) 0.67088(6)
O3B O 1.1858(4) 0.9412(3) 0.67088(6)
O3EA O 0.4809(4) 1.3921(3) 0.66245(6)
O3Z O 0.6079(3) 1.0887(3) 0.66245(6)
O3GA O 0.7255(3) 1.1475(4) 0.50421(6)
O3O O 0.2745(3) 0.8525(4) 0.49579(6)
O3_2 O 0.0588(3) 0.2446(3) 0.67088(6)
O3B_2 O 0.1858(4) 0.9412(3) 0.67088(6)
O4EA O 0.5576(6) 1.1905(5) 0.63924(5)
O4B O 1.1091(6) 1.1428(5) 0.69409(5)
O4A O 1.0337(4) 0.8909(6) 0.69409(5)
O4Z O 0.8095(5) 1.3670(4) 0.63924(5)
O4GA O 0.5239(5) 1.2242(6) 0.52742(5)
O4O O 0.4761(5) 0.7758(6) 0.47258(5)
O4Z_2 O -0.1905(5) 0.3670(4) 0.63924(5)
O5Z O 0.6757(4) 1.1522(4) 0.63416(5)
O5A O 0.8189(4) 0.8099(6) 0.69917(5)
O5B O 1.1901(6) 1.0090(4) 0.69917(5)
O5EA O 0.4766(6) 1.3243(4) 0.63416(5)
O5GA O 0.6577(4) 1.1432(6) 0.53250(5)
O5O O 0.3423(4) 0.8568(6) 0.46750(5)
O5DA O -0.1522(4) 0.5234(6) 0.63416(5)
O5AA O 0.4856(4) 1.3423(4) 0.53250(5)
O6GA O 0.4818(4) 0.9948(6) 0.51730(5)
O6Z O 0.8516(4) 1.1797(4) 0.64936(5)
O6B O 1.3385(6) 1.1849(4) 0.68397(5)
O6A O 0.8464(4) 0.6615(6) 0.68397(5)
O6EA O 0.3282(6) 1.1484(4) 0.64936(5)
O6O O 0.5182(4) 1.0052(6) 0.48270(5)
O6EA_2 O 1.3282(6) 1.1484(4) 0.64936(5)
O6DA O 0.8203(4) 0.6718(6) 0.64936(5)
O6FA O 0.0052(6) 0.4869(4) 0.51730(5)
O6AA O 0.5131(4) 0.5182(4) 0.51730(5)
O7O O 0.3976(4) 0.8292(6) 0.51407(6)
O7Z O 0.7310(4) 1.2351(4) 0.68073(6)
O7B O 1.1625(6) 1.0643(4) 0.65260(6)
O7A O 0.9018(4) 0.8375(6) 0.65260(6)
O7EA O 0.5042(6) 1.2690(4) 0.68073(6)
O7GA O 0.6024(4) 1.1708(6) 0.48593(6)
O7DA O 0.7649(4) 0.4958(6) 0.68073(6)
O7EA_2 O 1.5042(6) 1.2690(4) 0.68073(6)
O7N O 0.1708(6) 0.5685(4) 0.51407(6)
O7B_2 O 0.1625(6) 1.0643(4) 0.65260(6)
O7I O 0.4315(4) 0.6024(4) 0.51407(6)
O8DA O 0.6667 1.3333 0.66182(8)
O8FA O 0.6667 1.3333 0.50484(8)
O8I O 0.3333 0.6667 0.49516(8)
loop_
_geom_bond_atom_site_label_1
_geom_bond_atom_site_label_2
_geom_bond_site_symmetry_1
_geom_bond_site_symmetry_2
Dy1 O2 1_555 1_555
Cu1 I1 1_555 1_555
Cu2 I1 1_555 1_555
I1 Cu2A 1_555 1_555
I2 Cu2 1_555 1_555
C1 C2 1_555 1_555
C2 C3 1_555 1_555
C3 H1 1_555 1_555
C4 C3 1_555 1_555
H2 C4 1_555 1_555
C5 H3 1_555 1_555
C6 C2 1_555 1_555
H4 C6 1_555 1_555
C7 C8 1_555 1_555
C8 C9 1_555 1_555
C9 H5 1_555 1_555
C10 C9 1_555 1_555
H6 C10 1_555 1_555
C11 H7 1_555 1_555
C12 C8 1_555 1_555
H8 C12 1_555 1_555
C13 C14 1_555 1_555
C14 C15 1_555 1_555
C15 H9 1_555 1_555
C16 C15 1_555 1_555
H10 C16 1_555 1_555
C17 H11 1_555 1_555
C18 C14 1_555 1_555
H12 C18 1_555 1_555
N1 Cu1 1_555 1_555
N2 Cu2 1_555 1_555
N3 Cu2 1_555 1_555
O2 C1 1_555 1_555
O3 Dy1 1_555 1_555
O4 Dy1 1_555 1_555
O5 Dy1 1_555 1_555
O6 Dy1 1_555 1_555
O7 Dy1 1_555 1_555
O8 Dy1 1_555 1_555
Dy1B O8 1_555 1_555
Dy1A O8 1_555 1_555
Dy1EA O2EA 1_555 1_555
Dy1Z O2Z 1_555 1_555
Dy1GA O2GA 1_555 1_555
Dy1O O2O 1_555 1_555
Dy1DA O8DA 1_555 1_555
Dy1DA_2 O6DA 1_555 1_555
Dy1EA_2 O6EA_2 1_555 1_555
Dy1_2 O3_2 1_555 1_555
Dy1B_2 O2B_2 1_555 1_555
Dy1Z_2 O4Z_2 1_555 1_555
Dy1DA_3 O5DA 1_555 1_555
Dy1FA O6FA 1_555 1_555
Dy1N O7N 1_555 1_555
Dy1B_3 O3B_2 1_555 1_555
Dy1AA O5AA 1_555 1_555
Dy1AA_2 O6AA 1_555 1_555
Dy1I O7I 1_555 1_555
Dy1A_2 O2A_2 1_555 1_555
Cu1I I1I 1_555 1_555
Cu1_2 N1A_2 1_555 1_555
Cu1_3 N1B_2 1_555 1_555
Cu2A I2A 1_555 1_555
Cu2B I1 1_555 1_555
Cu2I I2 1_555 1_555
Cu2O I2A 1_555 1_555
Cu2N I1I_2 1_555 1_555
Cu2N_2 I1I 1_555 1_555
Cu2O_2 I1I 1_555 1_555
Cu2Z N2Z 1_555 1_555
Cu2Y N3Y 1_555 1_555
Cu2EA N2EA 1_555 1_555
Cu2HA N3HA 1_555 1_555
Cu2DA N2DA 1_555 1_555
Cu2IA N3IA 1_555 1_555
Cu2I_2 I1I_2 1_555 1_555
Cu2O_3 I1I_2 1_555 1_555
I1I Cu2I 1_555 1_555
I2B Cu2B 1_555 1_555
I2B_2 Cu2N_2 1_555 1_555
C1B O3 1_555 1_555
C1A C2A 1_555 1_555
C1A_2 C2A_2 1_555 1_555
C1B_2 C2B_2 1_555 1_555
C2B C1B 1_555 1_555
C2A C3A_2 1_555 1_555
C2B_2 C3B 1_555 1_555
C2A_2 C3A 1_555 1_555
C3B H1B_2 1_555 1_555
C3A H1A 1_555 1_555
C3B_2 C2B 1_555 1_555
C3A_2 H1A_2 1_555 1_555
H1B C3B_2 1_555 1_555
C4B C3B 1_555 1_555
C4A C3A 1_555 1_555
C4B_2 C3B_2 1_555 1_555
C4A_2 C3A_2 1_555 1_555
H2B C4B 1_555 1_555
H2A C4A 1_555 1_555
H2B_2 C4B_2 1_555 1_555
H2A_2 C4A_2 1_555 1_555
C5B H3B 1_555 1_555
C5A H3A 1_555 1_555
C5B_2 H3B_2 1_555 1_555
C5A_2 H3A_2 1_555 1_555
C6B C2B_2 1_555 1_555
C6A C2A_2 1_555 1_555
C6B_2 C2B 1_555 1_555
C6A_2 C2A 1_555 1_555
H4B C6B_2 1_555 1_555
H4B_2 C6B 1_555 1_555
H4A C6A 1_555 1_555
H4A_2 C6A_2 1_555 1_555
C7DA O4 1_555 1_555
C7Z O5 1_555 1_555
C7EA C8EA 1_555 1_555
C7A C8A 1_555 1_555
C7I C8I 1_555 1_555
C8DA C7DA 1_555 1_555
C8Z C7Z 1_555 1_555
C8EA C9EA 1_555 1_555
C8B C9B 1_555 1_555
C8A C9A 1_555 1_555
C8I C9I 1_555 1_555
C9DA C8DA 1_555 1_555
C9Z C8Z 1_555 1_555
C9EA H5EA 1_555 1_555
C9B H5B 1_555 1_555
C9A H5A 1_555 1_555
C9I H5I 1_555 1_555
H5Z C9Z 1_555 1_555
H5DA C9DA 1_555 1_555
C10A C9A 1_555 1_555
C10B C9B 1_555 1_555
C10I C9I 1_555 1_555
C10Z C9Z 1_555 1_555
C10DA C9DA 1_555 1_555
C10EA C9EA 1_555 1_555
H6Z C10Z 1_555 1_555
H6DA C10DA 1_555 1_555
H6B C10B 1_555 1_555
H6EA C10EA 1_555 1_555
H6A C10A 1_555 1_555
H6I C10I 1_555 1_555
C11A H7A 1_555 1_555
C11B H7B 1_555 1_555
C11I H7I 1_555 1_555
C11Z H7Z 1_555 1_555
C11DA H7DA 1_555 1_555
C11EA H7EA 1_555 1_555
C12DA C8DA 1_555 1_555
C12Z C8Z 1_555 1_555
C12EA C8EA 1_555 1_555
C12B C8B 1_555 1_555
C12A C8A 1_555 1_555
C12I C8I 1_555 1_555
H8Z C12Z 1_555 1_555
H8DA C12DA 1_555 1_555
H8B C12B 1_555 1_555
H8EA C12EA 1_555 1_555
H8A C12A 1_555 1_555
H8I C12I 1_555 1_555
C13IA O6 1_555 1_555
C13O O7 1_555 1_555
C13Y C14Y 1_555 1_555
C13I C14I 1_555 1_555
C13HA C14HA 1_555 1_555
C13N C14N 1_555 1_555
C13A C14A 1_555 1_555
C13I_2 C14I_2 1_555 1_555
C13B C14B 1_555 1_555
C14IA C13IA 1_555 1_555
C14O C13O 1_555 1_555
C14I C15I 1_555 1_555
C14N C15N 1_555 1_555
C14HA C15HA 1_555 1_555
C14Y C15Y 1_555 1_555
C14A C15A 1_555 1_555
C14B C15B 1_555 1_555
C14I_2 C15I_2 1_555 1_555
C15IA C14IA 1_555 1_555
C15O C14O 1_555 1_555
C15Y H9Y 1_555 1_555
C15A H9A 1_555 1_555
C15B H9B 1_555 1_555
C15HA H9HA 1_555 1_555
C15N H9N 1_555 1_555
C15I H9I 1_555 1_555
C15I_2 H9I_2 1_555 1_555
H9IA C15IA 1_555 1_555
H9O C15O 1_555 1_555
C16A C15A 1_555 1_555
C16B C15B 1_555 1_555
C16I C15I_2 1_555 1_555
C16IA C15IA 1_555 1_555
C16O C15O 1_555 1_555
C16Y C15Y 1_555 1_555
C16HA C15HA 1_555 1_555
C16I_2 C15I 1_555 1_555
C16N C15N 1_555 1_555
H10IA C16IA 1_555 1_555
H10A C16A 1_555 1_555
H10B C16B 1_555 1_555
H10Y C16Y 1_555 1_555
H10HA C16HA 1_555 1_555
H10O C16O 1_555 1_555
H10I C16I_2 1_555 1_555
H10N C16N 1_555 1_555
H10I_2 C16I 1_555 1_555
C17A H11A 1_555 1_555
C17B H11B 1_555 1_555
C17I H11I_2 1_555 1_555
C17IA H11IA 1_555 1_555
C17O H11O 1_555 1_555
C17Y H11Y 1_555 1_555
C17HA H11HA 1_555 1_555
C17I_2 H11I 1_555 1_555
C17N H11N 1_555 1_555
C18IA C14IA 1_555 1_555
C18O C14O 1_555 1_555
C18Y C14Y 1_555 1_555
C18A C14A 1_555 1_555
C18B C14B 1_555 1_555
C18HA C14HA 1_555 1_555
C18N C14N 1_555 1_555
C18I C14I 1_555 1_555
C18I_2 C14I_2 1_555 1_555
H12IA C18IA 1_555 1_555
H12O C18O 1_555 1_555
H12Y C18Y 1_555 1_555
H12HA C18HA 1_555 1_555
H12I C18I 1_555 1_555
H12N C18N 1_555 1_555
H12A C18A 1_555 1_555
H12I_2 C18I_2 1_555 1_555
H12B C18B 1_555 1_555
N1B Cu1 1_555 1_555
N1A Cu1 1_555 1_555
N1B_2 C4B_2 1_555 1_555
N1A_2 C4A_2 1_555 1_555
N1I Cu1I 1_555 1_555
N1N Cu1I 1_555 1_555
N1O Cu1I 1_555 1_555
N2A Cu2A 1_555 1_555
N2B Cu2B 1_555 1_555
N2I Cu2I 1_555 1_555
N2Z C10Z 1_555 1_555
N2DA C10DA 1_555 1_555
N2EA C10EA 1_555 1_555
N2N Cu2N_2 1_555 1_555
N2N_2 Cu2N 1_555 1_555
N3A Cu2A 1_555 1_555
N3B Cu2B 1_555 1_555
N3I Cu2I 1_555 1_555
N3IA C16IA 1_555 1_555
N3Y C16Y 1_555 1_555
N3HA C16HA 1_555 1_555
N3O Cu2O_3 1_555 1_555
N3I_2 Cu2I_2 1_555 1_555
N3N Cu2N 1_555 1_555
N3N_2 Cu2N_2 1_555 1_555
O2B Dy1B 1_555 1_555
O2A Dy1A 1_555 1_555
O2B_2 C1B_2 1_555 1_555
O2A_2 C1A_2 1_555 1_555
O3A C1 1_555 1_555
O3B Dy1B 1_555 1_555
O3EA Dy1EA 1_555 1_555
O3Z Dy1Z 1_555 1_555
O3GA Dy1GA 1_555 1_555
O3O Dy1O 1_555 1_555
O3_2 C1B_2 1_555 1_555
O3B_2 C1A_2 1_555 1_555
O4EA C7 1_555 1_555
O4B Dy1B 1_555 1_555
O4A Dy1A 1_555 1_555
O4Z Dy1Z 1_555 1_555
O4GA Dy1GA 1_555 1_555
O4O Dy1O 1_555 1_555
O4Z_2 C7A 1_555 1_555
O5Z C7 1_555 1_555
O5A Dy1A 1_555 1_555
O5B Dy1B 1_555 1_555
O5EA Dy1EA 1_555 1_555
O5GA Dy1GA 1_555 1_555
O5O Dy1O 1_555 1_555
O5DA C7A 1_555 1_555
O5AA C7I 1_555 1_555
O6GA C13 1_555 1_555
O6Z Dy1Z 1_555 1_555
O6B Dy1B 1_555 1_555
O6A Dy1A 1_555 1_555
O6EA Dy1EA 1_555 1_555
O6O Dy1O 1_555 1_555
O6EA_2 C13I 1_555 1_555
O6DA C13N 1_555 1_555
O6FA C13A 1_555 1_555
O6AA C13B 1_555 1_555
O7O C13 1_555 1_555
O7Z Dy1Z 1_555 1_555
O7B Dy1B 1_555 1_555
O7A Dy1A 1_555 1_555
O7EA Dy1EA 1_555 1_555
O7GA Dy1GA 1_555 1_555
O7DA Dy1DA_2 1_555 1_555
O7EA_2 Dy1EA_2 1_555 1_555
O7N C13A 1_555 1_555
O7B_2 Dy1B_3 1_555 1_555
O7I C13B 1_555 1_555
O8DA Dy1EA 1_555 1_555
O8FA Dy1GA 1_555 1_555
O8I Dy1O 1_555 1_555
C4 N1 1_555 1_555
C5 C6 1_555 1_555
C5 N1 1_555 1_555
C10 N2 1_555 1_555
C11 C12 1_555 1_555
C11 N2 1_555 1_555
C16 N3 1_555 1_555
C17 C18 1_555 1_555
C17 N3 1_555 1_555
Dy1A O3A 1_555 1_555
Dy1EA O4EA 1_555 1_555
Dy1Z O5Z 1_555 1_555
Dy1Z O8DA 1_555 1_555
Dy1GA O6GA 1_555 1_555
Dy1O O7O 1_555 1_555
Dy1N O8I 1_555 1_555
Dy1AA O8FA 1_555 1_555
Dy1I O8I 1_555 1_555
Cu2N I2B 1_555 1_555
C1B O2B 1_555 1_555
C1A O2A 1_555 1_555
C1A O3B 1_555 1_555
C4B N1B 1_555 1_555
C4A N1A 1_555 1_555
C5B C6B 1_555 1_555
C5B N1B 1_555 1_555
C5A C6A 1_555 1_555
C5A N1A 1_555 1_555
C5B_2 C6B_2 1_555 1_555
C5B_2 N1B_2 1_555 1_555
C5A_2 C6A_2 1_555 1_555
C5A_2 N1A_2 1_555 1_555
C7DA O5A 1_555 1_555
C7Z O4B 1_555 1_555
C7EA O4A 1_555 1_555
C7EA O5B 1_555 1_555
C7I O4GA 1_555 1_555
C10A N2A 1_555 1_555
C10B N2B 1_555 1_555
C10I N2I 1_555 1_555
C11A C12A 1_555 1_555
C11A N2A 1_555 1_555
C11B C12B 1_555 1_555
C11B N2B 1_555 1_555
C11I C12I 1_555 1_555
C11I N2I 1_555 1_555
C11Z C12Z 1_555 1_555
C11Z N2Z 1_555 1_555
C11DA C12DA 1_555 1_555
C11DA N2DA 1_555 1_555
C11EA C12EA 1_555 1_555
C11EA N2EA 1_555 1_555
C13IA O7Z 1_555 1_555
C13O O6Z 1_555 1_555
C13Y O6B 1_555 1_555
C13Y O7EA_2 1_555 1_555
C13I O7B 1_555 1_555
C13HA O6A 1_555 1_555
C13HA O7DA 1_555 1_555
C13N O7A 1_555 1_555
C13I_2 O6EA 1_555 1_555
C13I_2 O7B_2 1_555 1_555
C16A N3A 1_555 1_555
C16B N3B 1_555 1_555
C16I N3I 1_555 1_555
C16O N3O 1_555 1_555
C16I_2 N3I_2 1_555 1_555
C16N N3N 1_555 1_555
C17A C18A 1_555 1_555
C17A N3A 1_555 1_555
C17B C18B 1_555 1_555
C17B N3B 1_555 1_555
C17I C18I_2 1_555 1_555
C17I N3I 1_555 1_555
C17IA C18IA 1_555 1_555
C17IA N3IA 1_555 1_555
C17O C18O 1_555 1_555
C17O N3O 1_555 1_555
C17Y C18Y 1_555 1_555
C17Y N3Y 1_555 1_555
C17HA C18HA 1_555 1_555
C17HA N3HA 1_555 1_555
C17I_2 C18I 1_555 1_555
C17I_2 N3I_2 1_555 1_555
C17N C18N 1_555 1_555
C17N N3N 1_555 1_555

#END
