
#######################################################################
#
#                 Cambridge Crystallographic Data Centre
#                                CCDC 
#
#######################################################################
#
# If this CIF has been generated from an entry in the Cambridge 
# Structural Database, then it will include bibliographic, chemical, 
# crystal, experimental, refinement or atomic coordinate data resulting 
# from the CCDC's data processing and validation procedures.
#
#######################################################################

data_NITCAV
_symmetry_cell_setting           rhombohedral
_symmetry_space_group_name_H-M   'R -3 c'
_symmetry_Int_Tables_number      167
_space_group_name_Hall           '-R 3 2"c'
loop_
_symmetry_equiv_pos_site_id
_symmetry_equiv_pos_as_xyz
1 x,y,z
2 -y,x-y,z
3 -x+y,-x,z
4 y,x,1/2-z
5 2/3+x,1/3+y,1/3+z
6 2/3-y,1/3+x-y,1/3+z
7 2/3-x+y,1/3-x,1/3+z
8 2/3+y,1/3+x,5/6-z
9 1/3+x,2/3+y,2/3+z
10 1/3+y,2/3+x,1/6-z
11 x-y,-y,1/2-z
12 -x,-x+y,1/2-z
13 1/3-y,2/3+x-y,2/3+z
14 1/3-x+y,2/3-x,2/3+z
15 1/3+x-y,2/3-y,1/6-z
16 1/3-x,2/3-x+y,1/6-z
17 2/3+x-y,1/3-y,5/6-z
18 2/3-x,1/3-x+y,5/6-z
19 -x,-y,-z
20 y,-x+y,-z
21 x-y,x,-z
22 -y,-x,1/2+z
23 1/3-x,2/3-y,2/3-z
24 1/3+y,2/3-x+y,2/3-z
25 1/3+x-y,2/3+x,2/3-z
26 1/3-y,2/3-x,1/6+z
27 2/3-x,1/3-y,1/3-z
28 2/3-y,1/3-x,5/6+z
29 -x+y,y,1/2+z
30 x,x-y,1/2+z
31 2/3+y,1/3-x+y,1/3-z
32 2/3+x-y,1/3+x,1/3-z
33 2/3-x+y,1/3+y,5/6+z
34 2/3+x,1/3+x-y,5/6+z
35 1/3-x+y,2/3+y,1/6+z
36 1/3+x,2/3+x-y,1/6+z
_cell_length_a                   15.274(2)
_cell_length_b                   15.274(2)
_cell_length_c                   93.866(18)
_cell_angle_alpha                90
_cell_angle_beta                 90
_cell_angle_gamma                120.00
_cell_volume                     18964.6
loop_
_atom_site_label
_atom_site_type_symbol
_atom_site_fract_x
_atom_site_fract_y
_atom_site_fract_z
O1 O 0.7952(16) 1.3333 0.5833
Tb1 Tb 0.917969(15) 1.092036(15) 0.677700(2)
Cu1 Cu 0.3333 0.6667 0.625920(11)
Cu2 Cu 0.30699(5) 0.82247(6) 0.586870(7)
I1 I 0.3333 0.6667 0.597940(5)
I2 I 0.12175(3) 0.7884 0.5834
C1 C 0.7305(3) 0.8716(4) 0.66475(5)
C2 C 0.6442(3) 0.8227(3) 0.65414(5)
C3 C 0.5784(4) 0.7208(5) 0.65458(6)
H1 H 0.5892 0.6804 0.6610
C4 C 0.4960(5) 0.6779(5) 0.64561(7)
H2 H 0.4509 0.6090 0.6465
C5 C 0.5457(4) 0.8285(4) 0.63477(6)
H3 H 0.5376 0.8659 0.6276
C6 C 0.6273(4) 0.8777(4) 0.64379(6)
H4 H 0.6707 0.9470 0.6430
C7 C 0.5909(4) 1.1411(4) 0.63228(5)
C8 C 0.5218(4) 1.0663(4) 0.62148(5)
C9 C 0.4184(4) 1.0243(4) 0.62248(6)
H5 H 0.3902 1.0427 0.6299
C10 C 0.3579(4) 0.9553(4) 0.61241(6)
H6 H 0.2883 0.9274 0.6132
C11 C 0.4933(4) 0.9643(4) 0.60105(6)
H7 H 0.5197 0.9427 0.5939
C12 C 0.5593(4) 1.0340(4) 0.61061(5)
H8 H 0.6284 1.0591 0.6098
C13 C 0.4312(4) 0.9044(4) 0.52190(5)
C14 C 0.4086(3) 0.8850(3) 0.53748(5)
C15 C 0.4707(4) 0.9510(4) 0.54789(5)
H9 H 0.5297 1.0098 0.5454
C16 C 0.4434(4) 0.9280(5) 0.56211(5)
H10 H 0.4860 0.9725 0.5691
C17 C 0.2987(4) 0.7818(4) 0.55612(5)
H11 H 0.2388 0.7247 0.5589
C18 C 0.3218(4) 0.7980(4) 0.54175(5)
H12 H 0.2796 0.7511 0.5351
N1 N 0.4771(3) 0.7295(3) 0.63575(4)
N2 N 0.3942(3) 0.9263(3) 0.60154(4)
N3 N 0.3591(3) 0.8451(3) 0.56635(4)
O2 O 0.7679(3) 0.9637(3) 0.66687(4)
O3 O 1.0588(3) 1.2454(3) 0.67080(4)
O4 O 0.8574(3) 0.9639(3) 0.69399(4)
O5 O 0.9904(3) 1.1828(3) 0.69928(4)
O6 O 0.8139(3) 1.1535(3) 0.68411(4)
O7 O 0.9360(3) 1.0979(3) 0.65249(4)
O8 O 1.0000 1.0000 0.67129(5)
Tb1B Tb 1.174067(21) 1.082031(15) 0.677700(2)
Tb1A Tb 0.907964(15) 0.825933(21) 0.677700(2)
Tb1Z Tb 0.748698(15) 1.241297(15) 0.655633(2)
Tb1EA Tb 0.492600(21) 1.251302(15) 0.655633(2)
Tb1O Tb 0.415364(15) 0.840734(21) 0.488967(2)
Tb1GA Tb 0.584636(15) 1.159266(21) 0.511033(2)
Tb1EA_2 Tb 1.492600(21) 1.251302(15) 0.655633(2)
Tb1AA Tb 0.574631(15) 1.415364(15) 0.511033(2)
Tb1B_2 Tb 0.174067(21) 1.082031(15) 0.677700(2)
Tb1B_3 Tb 0.174067(21) 0.082031(15) 0.677700(2)
Tb1_2 Tb -0.082031(15) 0.092036(15) 0.677700(2)
Tb1DA Tb -0.241297(15) 0.507400(21) 0.655633(2)
Tb1Z_2 Tb -0.251302(15) 0.241297(15) 0.655633(2)
Tb1I Tb 0.425369(15) 1.584636(15) 0.488967(2)
Tb1N Tb 0.159266(21) 1.574631(15) 0.488967(2)
Tb1O_2 Tb -0.584636(15) 0.840734(21) 0.488967(2)
Tb1I_2 Tb -0.574631(15) 0.584636(15) 0.488967(2)
Cu1_2 Cu 1.3333 1.6667 0.625920(11)
Cu1_3 Cu 1.3333 0.6667 0.625920(11)
Cu1I Cu 0.0000 1.0000 0.540747(11)
Cu2A Cu 0.17753(6) 0.48452(8) 0.586870(7)
Cu2B Cu 0.51548(8) 0.69301(5) 0.586870(7)
Cu2I Cu 0.15580(6) 0.97366(5) 0.579797(7)
Cu2Z Cu 1.35968(5) 1.51086(6) 0.746463(7)
Cu2DA Cu 0.48914(6) 0.84881(8) 0.746463(7)
Cu2O Cu 1.02634(5) 1.18215(8) 0.579797(7)
Cu2Y Cu 1.51086(6) 1.35968(5) 0.753537(7)
Cu2I_2 Cu 1.15580(6) 0.97366(5) 0.579797(7)
Cu2N Cu -0.18215(8) 0.84420(6) 0.579797(7)
Cu2O_2 Cu 0.02634(5) 1.18215(8) 0.579797(7)
Cu2B_2 Cu -0.48452(8) 0.69301(5) 0.586870(7)
Cu2O_3 Cu 0.02634(5) 0.18215(8) 0.579797(7)
Cu2EA Cu 1.15119(8) 0.64032(5) 0.746463(7)
I1I I 0.0000 1.0000 0.568727(5)
I1_2 I 1.3333 0.6667 0.597940(5)
I2B I -0.33335(3) 0.87825(3) 0.5834
I2A I 0.2116 0.33335(3) 0.5834
C1B C 1.1411(5) 1.2695(3) 0.66475(5)
C1A C 1.1284(4) 0.8589(5) 0.66475(5)
C1B_2 C 0.1411(5) 0.2695(3) 0.66475(5)
C1I C 0.2049(4) 1.3972(3) 0.50192(5)
C1O C -0.3972(3) 0.8078(5) 0.50192(5)
C2B C 1.1785(4) 1.3558(3) 0.65414(5)
C2A C 1.1773(3) 0.8215(4) 0.65414(5)
C2B_2 C 0.1785(4) 0.3558(3) 0.65414(5)
C2I C 0.1560(3) 1.3109(3) 0.51253(5)
C2O C -0.3109(3) 0.8452(4) 0.51253(5)
C3B C 1.1424(6) 1.4216(4) 0.65458(6)
C3A C 1.2792(5) 0.8576(6) 0.65458(6)
C3B_2 C 0.1424(6) 0.4216(4) 0.65458(6)
C3I C 0.0541(5) 1.2451(4) 0.51209(6)
C3O C -0.2451(4) 0.8091(6) 0.51209(6)
H1B H 1.0912 1.4108 0.6610
H1A H 1.3196 0.9088 0.6610
H1B_2 H 0.0912 0.4108 0.6610
H1I H 0.0137 1.2559 0.5057
H1O H -0.2559 0.7579 0.5057
C4B C 1.1819(7) 1.5040(5) 0.64561(7)
C4A C 1.3221(5) 0.8181(7) 0.64561(7)
C4B_2 C 0.1819(7) 0.5040(5) 0.64561(7)
C4I C 0.0112(5) 1.1627(5) 0.52106(7)
C4O C -0.1627(5) 0.8486(7) 0.52106(7)
H2B H 1.1581 1.5491 0.6465
H2A H 1.3910 0.8419 0.6465
H2B_2 H 0.1581 0.5491 0.6465
H2I H -0.0577 1.1176 0.5202
H2O H -0.1176 0.8248 0.5202
C5B C 1.2828(6) 1.4543(4) 0.63477(6)
C5A C 1.1715(4) 0.7172(6) 0.63477(6)
C5B_2 C 0.2828(6) 0.4543(4) 0.63477(6)
C5I C 0.1618(4) 1.2124(4) 0.53190(6)
C5O C -0.2124(4) 0.9495(6) 0.53190(6)
H3B H 1.3283 1.4624 0.6276
H3A H 1.1341 0.6717 0.6276
H3B_2 H 0.3283 0.4624 0.6276
H3I H 0.1992 1.2043 0.5391
H3O H -0.2043 0.9950 0.5391
C6B C 1.2504(6) 1.3727(4) 0.64379(6)
C6A C 1.1223(4) 0.7496(6) 0.64379(6)
C6B_2 C 0.2504(6) 0.3727(4) 0.64379(6)
C6I C 0.2110(4) 1.2940(4) 0.52288(6)
C6O C -0.2940(4) 0.9171(6) 0.52288(6)
H4B H 1.2763 1.3293 0.6430
H4A H 1.0530 0.7237 0.6430
H4B_2 H 0.2763 0.3293 0.6430
H4I H 0.2803 1.3374 0.5237
H4O H -0.3374 0.9430 0.5237
C7DA C 0.8078(4) 0.8835(6) 0.70105(5)
C7Z C 1.0758(4) 1.1922(4) 0.70105(5)
C7EA C 1.1165(6) 0.9242(4) 0.70105(5)
C7I C 0.4744(4) 1.2576(4) 0.53439(5)
C7A C -0.1411(4) 0.4498(6) 0.63228(5)
C8Z C 1.1449(4) 1.2670(4) 0.71185(5)
C8DA C 0.7330(4) 0.8778(6) 0.71185(5)
C8EA C 1.1222(6) 0.8551(4) 0.71185(5)
C8I C 0.3996(4) 1.1885(4) 0.54519(5)
C8A C -0.0663(4) 0.4555(6) 0.62148(5)
C9Z C 1.2483(4) 1.3090(4) 0.71085(6)
C9DA C 0.6910(4) 0.9392(6) 0.71085(6)
C9I C 0.3576(4) 1.0851(4) 0.54419(6)
C9A C -0.0243(4) 0.3941(6) 0.62248(6)
C9EA C 1.0608(6) 0.7517(4) 0.71085(6)
H5Z H 1.2765 1.2906 0.7034
H5DA H 0.7094 0.9858 0.7034
H5I H 0.3760 1.0569 0.5368
H5A H -0.0427 0.3475 0.6299
H5EA H 1.0142 0.7235 0.7034
C10Z C 1.3088(4) 1.3780(4) 0.72092(6)
C10DA C 0.6220(4) 0.9307(6) 0.72092(6)
C10I C 0.2886(4) 1.0246(4) 0.55426(6)
C10A C 0.0447(4) 0.4026(6) 0.61241(6)
C10EA C 1.0693(6) 0.6912(4) 0.72092(6)
H6Z H 1.3784 1.4059 0.7201
H6DA H 0.5941 0.9724 0.7201
H6I H 0.2607 0.9550 0.5535
H6A H 0.0726 0.3609 0.6132
H6EA H 1.0276 0.6216 0.7201
C11Z C 1.1734(4) 1.3690(4) 0.73228(6)
C11DA C 0.6310(4) 0.8043(6) 0.73228(6)
C11I C 0.2976(4) 1.1600(4) 0.56562(6)
C11A C 0.0357(4) 0.5290(6) 0.60105(6)
C11EA C 1.1957(6) 0.8266(4) 0.73228(6)
H7Z H 1.1470 1.3906 0.7394
H7DA H 0.6094 0.7563 0.7394
H7I H 0.2760 1.1864 0.5728
H7A H 0.0573 0.5770 0.5939
H7EA H 1.2437 0.8530 0.7394
C12Z C 1.1074(4) 1.2993(4) 0.72272(5)
C12DA C 0.7007(4) 0.8080(6) 0.72272(5)
C12I C 0.3673(4) 1.2260(4) 0.55606(5)
C12A C -0.0340(4) 0.5253(6) 0.61061(5)
C12EA C 1.1920(6) 0.8926(4) 0.72272(5)
H8Z H 1.0383 1.2742 0.7235
H8DA H 0.7258 0.7640 0.7235
H8I H 0.3924 1.2951 0.5569
H8A H -0.0591 0.5693 0.6098
H8EA H 1.2360 0.9617 0.7235
C13IA C 0.7645(4) 1.1935(6) 0.68857(5)
C13O C 0.9021(4) 1.1399(6) 0.64477(5)
C13I C 1.2377(4) 1.0979(4) 0.64477(5)
C13Y C 1.4289(4) 1.2355(4) 0.68857(5)
C13I_2 C 0.2377(4) 1.0979(4) 0.64477(5)
C14O C 0.9247(3) 1.1431(4) 0.62919(5)
C14I C 1.2183(3) 1.0753(3) 0.62919(5)
C14Y C 1.4483(3) 1.2581(3) 0.70415(5)
C14IA C 0.7419(3) 1.1903(4) 0.70415(5)
C14I_2 C 0.2183(3) 1.0753(3) 0.62919(5)
C15O C 0.8626(4) 1.1470(6) 0.61878(5)
C15I C 1.2843(4) 1.1374(4) 0.61878(5)
C15Y C 1.3823(4) 1.1960(4) 0.71456(5)
C15I_2 C 0.2843(4) 1.1374(4) 0.61878(5)
H9O H 0.8036 1.1468 0.6213
H9Y H 1.3235 1.1370 0.7121
H9I H 1.3431 1.1964 0.6213
H9I_2 H 0.3431 1.1964 0.6213
C16O C 0.8899(4) 1.1513(6) 0.60456(5)
C16Y C 1.4053(5) 1.2233(4) 0.72878(5)
C16I C 1.2613(5) 1.1101(4) 0.60456(5)
C16I_2 C 0.2613(5) 1.1101(4) 0.60456(5)
H10O H 0.8473 1.1532 0.5976
H10I H 1.3058 1.1527 0.5976
H10Y H 1.3608 1.1807 0.7358
H10I_2 H 0.3058 1.1527 0.5976
C17O C 1.0346(4) 1.1498(6) 0.61055(5)
C17Y C 1.5515(4) 1.3680(4) 0.72279(5)
C17I C 1.1151(4) 0.9654(4) 0.61055(5)
C17I_2 C 0.1151(4) 0.9654(4) 0.61055(5)
H11O H 1.0945 1.1526 0.6078
H11I H 1.0580 0.9055 0.6078
H11Y H 1.6086 1.4279 0.7256
H11I_2 H 0.0580 0.9055 0.6078
C18O C 1.0115(4) 1.1429(6) 0.62492(5)
C18I C 1.1313(4) 0.9885(4) 0.62492(5)
C18Y C 1.5353(4) 1.3449(4) 0.70842(5)
C18I_2 C 0.1313(4) 0.9885(4) 0.62492(5)
H12O H 1.0537 1.1382 0.6316
H12Y H 1.5822 1.3871 0.7018
H12I H 1.0844 0.9463 0.6316
H12I_2 H 0.0844 0.9463 0.6316
N1B N 0.2524(4) 0.5229(3) 0.63575(4)
N1A N 0.2705(3) 0.7476(4) 0.63575(4)
N1B_2 N 1.2524(4) 1.5229(3) 0.63575(4)
N1A_2 N 1.2705(3) 0.7476(4) 0.63575(4)
N1I N 0.0628(3) 1.1438(3) 0.53092(4)
N1N N 0.0809(4) 0.9372(3) 0.53092(4)
N1O N -0.1438(3) 0.9191(4) 0.53092(4)
N1_2 N 1.4771(3) 0.7295(3) 0.63575(4)
N1B_3 N 1.2524(4) 0.5229(3) 0.63575(4)
N2Z N 1.2725(3) 1.4070(3) 0.73179(4)
N2DA N 0.5930(3) 0.8654(4) 0.73179(4)
N2I N 0.2596(3) 1.0609(3) 0.56513(4)
N2N N -0.1988(4) 0.7404(3) 0.56513(4)
N2A N 0.0737(3) 0.4679(4) 0.60154(4)
N2EA N 1.1346(4) 0.7275(3) 0.73179(4)
N3O N 0.9742(3) 1.1527(4) 0.60032(4)
N3I N 1.1784(3) 1.0258(3) 0.60032(4)
N3Y N 1.4882(3) 1.3076(3) 0.73302(4)
N3I_2 N 0.1784(3) 1.0258(3) 0.60032(4)
N3N N -0.1527(4) 0.8216(3) 0.60032(4)
N3A N 0.1549(3) 0.5140(4) 0.56635(4)
O2B O 1.1958(4) 1.2321(3) 0.66687(4)
O2Z O 0.8988(3) 1.3696(3) 0.66646(4)
O2A O 1.0363(3) 0.8042(4) 0.66687(4)
O2B_2 O 0.1958(4) 0.2321(3) 0.66687(4)
O2I O 0.2970(3) 1.4346(3) 0.49980(4)
O2EA O 1.4709(4) 1.1012(3) 0.66646(4)
O2B_3 O 0.1958(4) 1.2321(3) 0.66687(4)
O2O O -0.4346(3) 0.8625(4) 0.49980(4)
O3A O 0.7546(3) 0.8134(4) 0.67080(4)
O3B O 1.1866(4) 0.9412(3) 0.67080(4)
O3Z O 0.6079(3) 1.0879(3) 0.66253(4)
O3_2 O 0.0588(3) 0.2454(3) 0.67080(4)
O3N O 0.1467(4) 1.4213(3) 0.49587(4)
O3EA O 1.4801(4) 1.3921(3) 0.66253(4)
O3B_2 O 0.1866(4) 0.9412(3) 0.67080(4)
O3I O -0.4213(3) 0.7255(3) 0.49587(4)
O4EA O 0.5602(4) 1.1907(3) 0.63934(4)
O4B O 1.1065(4) 1.1426(3) 0.69399(4)
O4Z O 0.8093(3) 1.3694(3) 0.63934(4)
O4A O 1.0361(3) 0.8935(4) 0.69399(4)
O4GA O 0.5241(3) 1.2268(4) 0.52732(4)
O4Z_2 O -0.1907(3) 0.3694(3) 0.63934(4)
O4EA_2 O 1.5602(4) 1.1907(3) 0.63934(4)
O4B_2 O 0.1065(4) 1.1426(3) 0.69399(4)
O5Z O 0.6763(3) 1.1505(3) 0.63405(4)
O5B O 1.1924(4) 1.0096(3) 0.69928(4)
O5A O 0.8172(3) 0.8076(4) 0.69928(4)
O5AA O 0.4839(3) 1.3429(3) 0.53261(4)
O5DA O -0.1505(3) 0.5257(4) 0.63405(4)
O5EA O 1.4743(4) 1.3237(3) 0.63405(4)
O5B_2 O 0.1924(4) 1.0096(3) 0.69928(4)
O6GA O 0.4806(3) 0.9937(4) 0.51744(4)
O6B O 1.3396(4) 1.1861(3) 0.68411(4)
O6Z O 0.8528(3) 1.1798(3) 0.64922(4)
O6EA O 1.3271(4) 1.1472(3) 0.64922(4)
O6EA_2 O 0.3271(4) 1.1472(3) 0.64922(4)
O6A O 0.8465(3) 0.6604(4) 0.68411(4)
O6B_2 O 0.3396(4) 1.1861(3) 0.68411(4)
O7O O 0.3973(3) 0.8286(4) 0.51418(4)
O7B O 1.1619(4) 1.0640(3) 0.65249(4)
O7Z O 0.7307(3) 1.2354(3) 0.68084(4)
O7EA O 1.5048(4) 1.2693(3) 0.68084(4)
O7B_2 O 0.1619(4) 1.0640(3) 0.65249(4)
O7A O 0.9021(3) 0.8381(4) 0.65249(4)
O8DA O 0.6667 1.3333 0.66204(5)
O8DA_2 O 1.6667 1.3333 0.66204(5)
O8_2 O 0.0000 1.0000 0.67129(5)
loop_
_geom_bond_atom_site_label_1
_geom_bond_atom_site_label_2
_geom_bond_site_symmetry_1
_geom_bond_site_symmetry_2
Tb1 O2 1_555 1_555
Cu1 I1 1_555 1_555
Cu2 I1 1_555 1_555
I1 Cu2A 1_555 1_555
I2 Cu2 1_555 1_555
C1 C2 1_555 1_555
C2 C3 1_555 1_555
C3 H1 1_555 1_555
C4 C3 1_555 1_555
H2 C4 1_555 1_555
C5 H3 1_555 1_555
C6 C2 1_555 1_555
H4 C6 1_555 1_555
C7 C8 1_555 1_555
C8 C9 1_555 1_555
C9 H5 1_555 1_555
C10 C9 1_555 1_555
H6 C10 1_555 1_555
C11 H7 1_555 1_555
C12 C8 1_555 1_555
H8 C12 1_555 1_555
C13 C14 1_555 1_555
C14 C15 1_555 1_555
C15 H9 1_555 1_555
C16 C15 1_555 1_555
H10 C16 1_555 1_555
C17 H11 1_555 1_555
C18 C14 1_555 1_555
H12 C18 1_555 1_555
N1 Cu1 1_555 1_555
N2 Cu2 1_555 1_555
N3 Cu2 1_555 1_555
O2 C1 1_555 1_555
O3 Tb1 1_555 1_555
O4 Tb1 1_555 1_555
O5 Tb1 1_555 1_555
O6 Tb1 1_555 1_555
O7 Tb1 1_555 1_555
O8 Tb1 1_555 1_555
Tb1B O8 1_555 1_555
Tb1A O8 1_555 1_555
Tb1Z O2Z 1_555 1_555
Tb1EA O4EA 1_555 1_555
Tb1O O7O 1_555 1_555
Tb1GA O4GA 1_555 1_555
Tb1EA_2 O2EA 1_555 1_555
Tb1AA O5AA 1_555 1_555
Tb1B_2 O2B_3 1_555 1_555
Tb1B_3 O2B_2 1_555 1_555
Tb1_2 O3_2 1_555 1_555
Tb1DA O5DA 1_555 1_555
Tb1Z_2 O4Z_2 1_555 1_555
Tb1I O2I 1_555 1_555
Tb1N O3N 1_555 1_555
Tb1O_2 O2O 1_555 1_555
Tb1I_2 O3I 1_555 1_555
Cu1_2 N1B_2 1_555 1_555
Cu1_3 I1_2 1_555 1_555
Cu1I I1I 1_555 1_555
Cu2A I2A 1_555 1_555
Cu2B I1 1_555 1_555
Cu2I I2 1_555 1_555
Cu2Z N2Z 1_555 1_555
Cu2DA N2DA 1_555 1_555
Cu2O N3O 1_555 1_555
Cu2Y N3Y 1_555 1_555
Cu2I_2 N3I 1_555 1_555
Cu2N I1I 1_555 1_555
Cu2O_2 I1I 1_555 1_555
Cu2B_2 I2B 1_555 1_555
Cu2O_3 I2A 1_555 1_555
Cu2EA N2EA 1_555 1_555
I1I Cu2I 1_555 1_555
I2B Cu2N 1_555 1_555
C1B O3 1_555 1_555
C1A C2A 1_555 1_555
C1B_2 C2B_2 1_555 1_555
C1I C2I 1_555 1_555
C1O C2O 1_555 1_555
C2B C1B 1_555 1_555
C2A C3A 1_555 1_555
C2B_2 C3B_2 1_555 1_555
C2I C3I 1_555 1_555
C2O C3O 1_555 1_555
C3B C2B 1_555 1_555
C3A H1A 1_555 1_555
C3B_2 H1B_2 1_555 1_555
C3I H1I 1_555 1_555
C3O H1O 1_555 1_555
H1B C3B 1_555 1_555
C4B C3B 1_555 1_555
C4A C3A 1_555 1_555
C4B_2 C3B_2 1_555 1_555
C4I C3I 1_555 1_555
C4O C3O 1_555 1_555
H2B C4B 1_555 1_555
H2A C4A 1_555 1_555
H2B_2 C4B_2 1_555 1_555
H2I C4I 1_555 1_555
H2O C4O 1_555 1_555
C5B H3B 1_555 1_555
C5A H3A 1_555 1_555
C5B_2 H3B_2 1_555 1_555
C5I H3I 1_555 1_555
C5O H3O 1_555 1_555
C6B C2B 1_555 1_555
C6A C2A 1_555 1_555
C6B_2 C2B_2 1_555 1_555
C6I C2I 1_555 1_555
C6O C2O 1_555 1_555
H4B C6B 1_555 1_555
H4A C6A 1_555 1_555
H4B_2 C6B_2 1_555 1_555
H4I C6I 1_555 1_555
H4O C6O 1_555 1_555
C7DA O4 1_555 1_555
C7Z O5 1_555 1_555
C7EA C8EA 1_555 1_555
C7I C8I 1_555 1_555
C7A C8A 1_555 1_555
C8Z C7Z 1_555 1_555
C8DA C7DA 1_555 1_555
C8EA C9EA 1_555 1_555
C8I C9I 1_555 1_555
C8A C9A 1_555 1_555
C9Z C8Z 1_555 1_555
C9DA C8DA 1_555 1_555
C9I H5I 1_555 1_555
C9A H5A 1_555 1_555
C9EA H5EA 1_555 1_555
H5Z C9Z 1_555 1_555
H5DA C9DA 1_555 1_555
C10Z C9Z 1_555 1_555
C10DA C9DA 1_555 1_555
C10I C9I 1_555 1_555
C10A C9A 1_555 1_555
C10EA C9EA 1_555 1_555
H6Z C10Z 1_555 1_555
H6DA C10DA 1_555 1_555
H6I C10I 1_555 1_555
H6A C10A 1_555 1_555
H6EA C10EA 1_555 1_555
C11Z H7Z 1_555 1_555
C11DA H7DA 1_555 1_555
C11I H7I 1_555 1_555
C11A H7A 1_555 1_555
C11EA H7EA 1_555 1_555
C12Z C8Z 1_555 1_555
C12DA C8DA 1_555 1_555
C12I C8I 1_555 1_555
C12A C8A 1_555 1_555
C12EA C8EA 1_555 1_555
H8Z C12Z 1_555 1_555
H8DA C12DA 1_555 1_555
H8I C12I 1_555 1_555
H8A C12A 1_555 1_555
H8EA C12EA 1_555 1_555
C13IA O6 1_555 1_555
C13O O7 1_555 1_555
C13I C14I 1_555 1_555
C13Y C14Y 1_555 1_555
C13I_2 C14I_2 1_555 1_555
C14O C13O 1_555 1_555
C14I C15I 1_555 1_555
C14Y C15Y 1_555 1_555
C14IA C13IA 1_555 1_555
C14I_2 C15I_2 1_555 1_555
C15O C14O 1_555 1_555
C15I H9I 1_555 1_555
C15Y H9Y 1_555 1_555
C15I_2 H9I_2 1_555 1_555
H9O C15O 1_555 1_555
C16O C15O 1_555 1_555
C16Y C15Y 1_555 1_555
C16I C15I 1_555 1_555
C16I_2 C15I_2 1_555 1_555
H10O C16O 1_555 1_555
H10I C16I 1_555 1_555
H10Y C16Y 1_555 1_555
H10I_2 C16I_2 1_555 1_555
C17O H11O 1_555 1_555
C17Y H11Y 1_555 1_555
C17I H11I 1_555 1_555
C17I_2 H11I_2 1_555 1_555
C18O C14O 1_555 1_555
C18I C14I 1_555 1_555
C18Y C14Y 1_555 1_555
C18I_2 C14I_2 1_555 1_555
H12O C18O 1_555 1_555
H12Y C18Y 1_555 1_555
H12I C18I 1_555 1_555
H12I_2 C18I_2 1_555 1_555
N1B Cu1 1_555 1_555
N1A Cu1 1_555 1_555
N1B_2 C4B 1_555 1_555
N1A_2 Cu1_3 1_555 1_555
N1I Cu1I 1_555 1_555
N1N Cu1I 1_555 1_555
N1O Cu1I 1_555 1_555
N1_2 Cu1_3 1_555 1_555
N1B_3 Cu1_3 1_555 1_555
N2Z C10Z 1_555 1_555
N2DA C10DA 1_555 1_555
N2I Cu2I 1_555 1_555
N2N Cu2N 1_555 1_555
N2A Cu2A 1_555 1_555
N2EA C10EA 1_555 1_555
N3O C16O 1_555 1_555
N3I C16I 1_555 1_555
N3Y C16Y 1_555 1_555
N3I_2 Cu2I 1_555 1_555
N3N Cu2N 1_555 1_555
N3A Cu2A 1_555 1_555
O2B Tb1B 1_555 1_555
O2A Tb1A 1_555 1_555
O2B_2 C1B_2 1_555 1_555
O2I C1I 1_555 1_555
O2O C1O 1_555 1_555
O3A C1 1_555 1_555
O3B Tb1B 1_555 1_555
O3Z Tb1Z 1_555 1_555
O3_2 C1B_2 1_555 1_555
O3N C1I 1_555 1_555
O3EA Tb1EA_2 1_555 1_555
O3B_2 Tb1B_2 1_555 1_555
O3I C1O 1_555 1_555
O4EA C7 1_555 1_555
O4B Tb1B 1_555 1_555
O4Z Tb1Z 1_555 1_555
O4A Tb1A 1_555 1_555
O4GA C7I 1_555 1_555
O4Z_2 C7A 1_555 1_555
O4EA_2 Tb1EA_2 1_555 1_555
O4B_2 Tb1B_2 1_555 1_555
O5Z C7 1_555 1_555
O5B Tb1B 1_555 1_555
O5A Tb1A 1_555 1_555
O5AA C7I 1_555 1_555
O5DA C7A 1_555 1_555
O5EA Tb1EA_2 1_555 1_555
O5B_2 Tb1B_2 1_555 1_555
O6GA C13 1_555 1_555
O6B Tb1B 1_555 1_555
O6Z Tb1Z 1_555 1_555
O6EA Tb1EA_2 1_555 1_555
O6EA_2 Tb1EA 1_555 1_555
O6A Tb1A 1_555 1_555
O6B_2 Tb1B_2 1_555 1_555
O7O C13 1_555 1_555
O7B Tb1B 1_555 1_555
O7Z Tb1Z 1_555 1_555
O7EA Tb1EA_2 1_555 1_555
O7B_2 Tb1B_2 1_555 1_555
O7A Tb1A 1_555 1_555
O8DA Tb1Z 1_555 1_555
O8DA_2 Tb1EA_2 1_555 1_555
O8_2 Tb1B_2 1_555 1_555
C4 N1 1_555 1_555
C5 C6 1_555 1_555
C5 N1 1_555 1_555
C10 N2 1_555 1_555
C11 C12 1_555 1_555
C11 N2 1_555 1_555
C16 N3 1_555 1_555
C17 C18 1_555 1_555
C17 N3 1_555 1_555
Tb1A O3A 1_555 1_555
Tb1Z O5Z 1_555 1_555
Tb1GA O6GA 1_555 1_555
C1B O2B 1_555 1_555
C1A O2A 1_555 1_555
C1A O3B 1_555 1_555
C4A N1A_2 1_555 1_555
C4B_2 N1B 1_555 1_555
C4I N1I 1_555 1_555
C4O N1O 1_555 1_555
C5B C6B 1_555 1_555
C5B N1B_2 1_555 1_555
C5A C6A 1_555 1_555
C5A N1A_2 1_555 1_555
C5B_2 C6B_2 1_555 1_555
C5B_2 N1B 1_555 1_555
C5I C6I 1_555 1_555
C5I N1I 1_555 1_555
C5O C6O 1_555 1_555
C5O N1O 1_555 1_555
C7DA O5A 1_555 1_555
C7Z O4B 1_555 1_555
C7EA O4A 1_555 1_555
C7EA O5B 1_555 1_555
C10I N2I 1_555 1_555
C10A N2A 1_555 1_555
C11Z C12Z 1_555 1_555
C11Z N2Z 1_555 1_555
C11DA C12DA 1_555 1_555
C11DA N2DA 1_555 1_555
C11I C12I 1_555 1_555
C11I N2I 1_555 1_555
C11A C12A 1_555 1_555
C11A N2A 1_555 1_555
C11EA C12EA 1_555 1_555
C11EA N2EA 1_555 1_555
C13IA O7Z 1_555 1_555
C13O O6Z 1_555 1_555
C13I O6EA 1_555 1_555
C13I O7B 1_555 1_555
C13Y O6B 1_555 1_555
C13Y O7EA 1_555 1_555
C13I_2 O6EA_2 1_555 1_555
C13I_2 O7B_2 1_555 1_555
C16I_2 N3I_2 1_555 1_555
C17O C18O 1_555 1_555
C17O N3O 1_555 1_555
C17Y C18Y 1_555 1_555
C17Y N3Y 1_555 1_555
C17I C18I 1_555 1_555
C17I N3I 1_555 1_555
C17I_2 C18I_2 1_555 1_555
C17I_2 N3I_2 1_555 1_555

#END
