
#######################################################################
#
#                 Cambridge Crystallographic Data Centre
#                                CCDC 
#
#######################################################################
#
# If this CIF has been generated from an entry in the Cambridge 
# Structural Database, then it will include bibliographic, chemical, 
# crystal, experimental, refinement or atomic coordinate data resulting 
# from the CCDC's data processing and validation procedures.
#
#######################################################################

data_NITDAW
_symmetry_cell_setting           orthorhombic
_symmetry_space_group_name_H-M   'P c a 21'
_symmetry_Int_Tables_number      29
_space_group_name_Hall           'P 2c -2ac'
loop_
_symmetry_equiv_pos_site_id
_symmetry_equiv_pos_as_xyz
1 x,y,z
2 -x,-y,1/2+z
3 1/2+x,-y,z
4 1/2-x,y,1/2+z
_cell_length_a                   21.296(2)
_cell_length_b                   7.2116(7)
_cell_length_c                   35.191(4)
_cell_angle_alpha                90
_cell_angle_beta                 90
_cell_angle_gamma                90
_cell_volume                     5404.57
loop_
_atom_site_label
_atom_site_type_symbol
_atom_site_fract_x
_atom_site_fract_y
_atom_site_fract_z
Dy1 Dy 0.124142(11) 0.86900(4) 0.457835(9)
Dy2 Dy -0.160920(11) 1.57127(4) 0.477190(9)
Cu1 Cu 0.26068(5) 0.42146(17) 0.24529(4)
Cu2 Cu 0.35099(5) -0.09195(18) 0.24246(4)
Cu3 Cu 0.02529(8) 0.5064(2) 0.21405(4)
Cu4 Cu 0.14361(6) 0.64174(19) 0.68950(4)
Cu5 Cu 0.23075(5) 1.14752(15) 0.69907(3)
I1 I 0.15893(2) 0.26891(8) 0.22014(2)
I2 I 0.37339(2) 0.30563(6) 0.226780(14)
I3 I 0.24711(2) 0.77702(6) 0.216160(16)
I4 I -0.04046(2) 0.19008(7) 0.213930(19)
C1 C -0.1670(3) 1.7724(9) 0.4082(2)
C2 C -0.1639(3) 1.8719(9) 0.3709(2)
C3 C -0.2169(3) 1.9266(9) 0.3519(2)
H1 H -0.2564 1.9130 0.3629
C4 C -0.2106(4) 2.0028(10) 0.3159(2)
H2 H -0.2468 2.0365 0.3029
C5 C -0.1031(4) 1.9846(13) 0.3184(2)
H3 H -0.0641 2.0068 0.3075
C6 C -0.1056(4) 1.9066(11) 0.3537(3)
H4 H -0.0686 1.8766 0.3664
C7 C 0.1954(3) 0.5310(9) 0.5138(2)
C8 C 0.1815(3) 0.5516(9) 0.5554(2)
C9 C 0.1219(3) 0.5998(11) 0.5685(3)
H5 H 0.0891 0.6163 0.5514
C10 C 0.1120(4) 0.6229(12) 0.6069(3)
H6 H 0.0718 0.6533 0.6151
C11 C 0.2143(4) 0.5557(11) 0.6199(3)
H7 H 0.2466 0.5419 0.6374
C12 C 0.2280(3) 0.5254(11) 0.5820(2)
H8 H 0.2679 0.4880 0.5746
C13 C 0.1676(3) 1.0133(10) 0.5264(2)
C14 C 0.1837(4) 1.0521(9) 0.5672(2)
C15 C 0.1372(4) 1.1040(11) 0.5923(2)
H9 H 0.0961 1.1200 0.5841
C16 C 0.1529(4) 1.1317(12) 0.6298(3)
H10 H 0.1212 1.1644 0.6467
C17 C 0.2562(4) 1.0653(11) 0.6183(3)
H11 H 0.2972 1.0531 0.6270
C18 C 0.2440(4) 1.0327(11) 0.5804(2)
H12 H 0.2762 0.9980 0.5641
C19 C -0.1144(3) 1.2796(10) 0.5500(2)
C20 C -0.0889(4) 1.3350(11) 0.5888(2)
C21 C -0.0683(6) 1.2016(12) 0.6143(3)
H13 H -0.0685 1.0766 0.6079
C22 C -0.0471(6) 1.2598(13) 0.6501(3)
H14 H -0.0343 1.1693 0.6672
C23 C -0.0625(5) 1.5595(11) 0.6360(3)
H15 H -0.0601 1.6835 0.6431
C24 C -0.0844(5) 1.5178(11) 0.6006(3)
H16 H -0.0965 1.6127 0.5843
C25 C 0.2546(3) 0.6823(9) 0.4158(2)
C26 C 0.2584(3) 0.6039(9) 0.3763(2)
C27 C 0.2041(4) 0.5543(12) 0.3578(3)
H17 H 0.1656 0.5629 0.3702
C28 C 0.2071(4) 0.4913(13) 0.3206(3)
H18 H 0.1701 0.4571 0.3084
C29 C 0.3147(4) 0.5263(11) 0.3198(2)
H19 H 0.3525 0.5207 0.3067
C30 C 0.3152(3) 0.5840(10) 0.3574(2)
H20 H 0.3529 0.6090 0.3697
C31 C 0.0870(4) 0.9179(12) 0.3667(2)
C32 C 0.0693(3) 0.8178(11) 0.3304(2)
C33 C 0.0397(4) 0.6464(12) 0.3307(2)
H21 H 0.0290 0.5906 0.3536
C34 C 0.0261(4) 0.5583(12) 0.2965(3)
H22 H 0.0058 0.4442 0.2973
C35 C 0.0689(5) 0.7962(12) 0.2622(3)
H23 H 0.0785 0.8505 0.2390
C36 C 0.0841(5) 0.8903(12) 0.2955(3)
H24 H 0.1046 1.0039 0.2940
C37 C -0.0119(3) 1.6089(8) 0.4780(2)
C38 C -0.0146(3) 1.4082(8) 0.4666(2)
C39 C 0.0375(3) 1.2929(8) 0.4636(2)
H25 H 0.0773 1.3412 0.4681
C40 C -0.0266(3) 1.0531(8) 0.4458(2)
H26 H -0.0320 0.9310 0.4379
C41 C -0.0781(3) 1.1690(9) 0.4483(2)
H27 H -0.1175 1.1235 0.4416
N1 N -0.1554(3) 2.0306(9) 0.29879(19)
N2 N 0.1574(3) 0.6038(9) 0.6331(2)
N3 N 0.2117(3) 1.1137(9) 0.64303(19)
N4 N -0.0444(4) 1.4314(10) 0.6608(2)
N5 N 0.2615(3) 0.4781(10) 0.3016(2)
N6 N 0.0408(3) 0.6295(10) 0.2626(2)
N7 N -0.0732(2) 1.3447(7) 0.46009(18)
N8 N 0.0314(2) 1.1150(7) 0.45456(19)
O1 O -0.2174(2) 1.7543(7) 0.42561(16)
O2 O -0.1731(2) 1.8752(7) 0.49923(19)
O3 O -0.1167(2) 1.7034(7) 0.42016(16)
O4 O 0.1588(2) 1.1508(7) 0.43080(18)
O5 O 0.2416(2) 0.4343(7) 0.50480(16)
O7 O 0.1586(2) 0.6085(8) 0.49111(18)
O8 O 0.2088(2) 0.9799(7) 0.50217(16)
O9 O 0.1104(3) 1.0095(8) 0.51786(17)
O10 O -0.1071(4) 1.1148(8) 0.5404(2)
O11 O -0.1423(3) 1.4032(8) 0.53114(17)
O12 O 0.2074(2) 0.7779(8) 0.42284(16)
O13 O 0.2987(2) 0.6500(6) 0.43822(16)
O14 O 0.1096(5) 1.0781(10) 0.3630(2)
O15 O 0.0793(2) 0.8321(7) 0.39773(17)
O16 O -0.0602(2) 1.6776(7) 0.49246(17)
O17 O 0.0393(2) 1.6918(6) 0.4726(2)
Dy1_2 Dy 0.124142(11) 1.86900(4) 0.457835(9)
Dy2B Dy 0.339080(11) 0.42873(4) 0.477190(9)
Cu1C Cu 0.23932(5) 1.42146(17) 0.74529(4)
Cu2C Cu 0.14901(5) 0.90805(18) 0.74246(4)
Cu2_2 Cu 0.35099(5) 0.90805(18) 0.24246(4)
Cu2B Cu -0.14901(5) 0.09195(18) 0.24246(4)
Cu2B_2 Cu -0.14901(5) 2.09195(18) 0.24246(4)
Cu3A Cu -0.02529(8) 1.4936(2) 0.71405(4)
Cu4C Cu 0.35639(6) -0.35826(19) 0.18950(4)
Cu4C_2 Cu 0.35639(6) 0.64174(19) 0.18950(4)
Cu4A Cu -0.14361(6) 0.35826(19) 0.18950(4)
Cu5C Cu 0.26925(5) 0.14752(15) 0.19907(3)
Cu5C_2 Cu 0.26925(5) 1.14752(15) 0.19907(3)
I1C I 0.34107(2) 1.26891(8) 0.72014(2)
I2C I 0.12661(2) 0.30563(6) 0.726780(14)
I2C_2 I 0.12661(2) 1.30563(6) 0.726780(14)
I3_2 I 0.24711(2) -0.22298(6) 0.216160(16)
I3C I 0.25289(2) 0.77702(6) 0.716160(16)
I4B I 0.45954(2) -0.19008(7) 0.213930(19)
I4A I 0.04046(2) 0.80992(7) 0.713930(19)
N1B N 0.3446(3) -0.0306(9) 0.29879(19)
N4A N 0.0444(4) 0.5686(10) 0.1608(2)
O5B O -0.2584(2) 1.5657(7) 0.50480(16)
O13B O -0.2013(2) 1.3500(6) 0.43822(16)
O17_2 O 0.0393(2) 0.6918(6) 0.4726(2)
O6 O 0.0011(4) -0.1194(14) 0.5641(3)
loop_
_geom_bond_atom_site_label_1
_geom_bond_atom_site_label_2
_geom_bond_site_symmetry_1
_geom_bond_site_symmetry_2
Dy1 N8 1_555 1_555
Dy2 N7 1_555 1_555
Cu1 I1 1_555 1_555
Cu2 I2 1_555 1_555
Cu3 I4 1_555 1_555
Cu4 N2 1_555 1_555
Cu5 N3 1_555 1_555
I1 Cu5C 1_555 1_555
I2 Cu1 1_555 1_555
I3 Cu1 1_555 1_555
I4 Cu2B 1_555 1_555
C1 C2 1_555 1_555
C2 C3 1_555 1_555
C3 H1 1_555 1_555
C4 C3 1_555 1_555
H2 C4 1_555 1_555
C5 H3 1_555 1_555
C6 C2 1_555 1_555
H4 C6 1_555 1_555
C7 C8 1_555 1_555
C8 C9 1_555 1_555
C9 H5 1_555 1_555
C10 C9 1_555 1_555
H6 C10 1_555 1_555
C11 H7 1_555 1_555
C12 C8 1_555 1_555
H8 C12 1_555 1_555
C13 C14 1_555 1_555
C14 C15 1_555 1_555
C15 H9 1_555 1_555
C16 C15 1_555 1_555
H10 C16 1_555 1_555
C17 H11 1_555 1_555
C18 C14 1_555 1_555
H12 C18 1_555 1_555
C19 C20 1_555 1_555
C20 C21 1_555 1_555
C21 H13 1_555 1_555
C22 C21 1_555 1_555
H14 C22 1_555 1_555
C23 H15 1_555 1_555
C24 C20 1_555 1_555
H16 C24 1_555 1_555
C25 C26 1_555 1_555
C26 C27 1_555 1_555
C27 H17 1_555 1_555
C28 C27 1_555 1_555
H18 C28 1_555 1_555
C29 H19 1_555 1_555
C30 C26 1_555 1_555
H20 C30 1_555 1_555
C31 C32 1_555 1_555
C32 C33 1_555 1_555
C33 H21 1_555 1_555
C34 C33 1_555 1_555
H22 C34 1_555 1_555
C35 H23 1_555 1_555
C36 C32 1_555 1_555
H24 C36 1_555 1_555
C37 C38 1_555 1_555
C38 C39 1_555 1_555
C39 H25 1_555 1_555
C40 H26 1_555 1_555
C41 C40 1_555 1_555
H27 C41 1_555 1_555
N1 C4 1_555 1_555
N2 C10 1_555 1_555
N3 C16 1_555 1_555
N4 C22 1_555 1_555
N5 Cu1 1_555 1_555
N6 Cu3 1_555 1_555
N7 C38 1_555 1_555
N8 C39 1_555 1_555
O1 Dy2 1_555 1_555
O2 Dy2 1_555 1_555
O3 Dy2 1_555 1_555
O4 Dy1 1_555 1_555
O5 C7 1_555 1_555
O7 Dy1 1_555 1_555
O8 Dy1 1_555 1_555
O9 Dy1 1_555 1_555
O10 C19 1_555 1_555
O11 Dy2 1_555 1_555
O12 Dy1 1_555 1_555
O13 C25 1_555 1_555
O14 C31 1_555 1_555
O15 Dy1 1_555 1_555
O16 Dy2 1_555 1_555
O17 C37 1_555 1_555
Dy1_2 O17 1_555 1_555
Dy2B O5 1_555 1_555
Cu1C Cu5 1_555 1_555
Cu2C Cu4 1_555 1_555
Cu2_2 I3 1_555 1_555
Cu2B Cu4A 1_555 1_555
Cu2B_2 N1 1_555 1_555
Cu3A N4 1_555 1_555
Cu4C Cu2 1_555 1_555
Cu4C_2 I2 1_555 1_555
Cu4A I4 1_555 1_555
Cu5C Cu1 1_555 1_555
Cu5C_2 I3 1_555 1_555
I1C Cu5 1_555 1_555
I2C Cu4 1_555 1_555
I2C_2 Cu5 1_555 1_555
I3_2 Cu2 1_555 1_555
I3C Cu4 1_555 1_555
I4B Cu2 1_555 1_555
I4A Cu4 1_555 1_555
N1B Cu2 1_555 1_555
N4A Cu3 1_555 1_555
O5B Dy2 1_555 1_555
O13B Dy2 1_555 1_555
O17_2 Dy1 1_555 1_555
Cu2 Cu5C 1_555 1_555
Cu5 Cu2C 1_555 1_555
Cu5 I3C 1_555 1_555
I2 Cu5C 1_555 1_555
I3 Cu4C_2 1_555 1_555
C1 O1 1_555 1_555
C1 O3 1_555 1_555
C5 C6 1_555 1_555
C5 N1 1_555 1_555
C7 O7 1_555 1_555
C11 C12 1_555 1_555
C11 N2 1_555 1_555
C13 O8 1_555 1_555
C13 O9 1_555 1_555
C17 C18 1_555 1_555
C17 N3 1_555 1_555
C19 O11 1_555 1_555
C23 C24 1_555 1_555
C23 N4 1_555 1_555
C25 O12 1_555 1_555
C28 N5 1_555 1_555
C29 C30 1_555 1_555
C29 N5 1_555 1_555
C31 O15 1_555 1_555
C34 N6 1_555 1_555
C35 C36 1_555 1_555
C35 N6 1_555 1_555
C37 O16 1_555 1_555
C40 N8 1_555 1_555
C41 N7 1_555 1_555
O13 Dy2B 1_555 1_555
Cu1C I1C 1_555 1_555
Cu1C I2C_2 1_555 1_555
Cu2C I2C_2 1_555 1_555
Cu2C I3C 1_555 1_555
Cu2C I4A 1_555 1_555
Cu2_2 Cu4C_2 1_555 1_555
Cu2_2 Cu5C_2 1_555 1_555
Cu4C I3_2 1_555 1_555
Cu4C I4B 1_555 1_555
Cu5C I3_2 1_555 1_555

#END
