
#######################################################################
#
#                 Cambridge Crystallographic Data Centre
#                                CCDC 
#
#######################################################################
#
# If this CIF has been generated from an entry in the Cambridge 
# Structural Database, then it will include bibliographic, chemical, 
# crystal, experimental, refinement or atomic coordinate data resulting 
# from the CCDC's data processing and validation procedures.
#
#######################################################################

data_NITDEA
_symmetry_cell_setting           orthorhombic
_symmetry_space_group_name_H-M   'P c a 21'
_symmetry_Int_Tables_number      29
_space_group_name_Hall           'P 2c -2ac'
loop_
_symmetry_equiv_pos_site_id
_symmetry_equiv_pos_as_xyz
1 x,y,z
2 -x,-y,1/2+z
3 1/2-x,y,1/2+z
4 1/2+x,-y,z
_cell_length_a                   21.209(4)
_cell_length_b                   7.1996(15)
_cell_length_c                   35.148(10)
_cell_angle_alpha                90
_cell_angle_beta                 90
_cell_angle_gamma                90
_cell_volume                     5366.97
loop_
_atom_site_label
_atom_site_type_symbol
_atom_site_fract_x
_atom_site_fract_y
_atom_site_fract_z
Er1 Er 0.124467(16) 0.86865(5) 0.458065(12)
Er2 Er -0.160190(16) 1.57040(5) 0.476920(12)
Cu1 Cu 0.26047(8) 0.4218(3) 0.24546(5)
Cu2 Cu 0.35058(8) -0.0917(3) 0.24243(4)
Cu3 Cu 0.02663(11) 0.5067(3) 0.21415(5)
Cu4 Cu 0.14371(9) 0.6420(3) 0.68922(5)
Cu5 Cu 0.23097(7) 1.1478(2) 0.69911(4)
I1 I 0.15822(3) 0.26812(12) 0.22057(3)
I2 I 0.37363(3) 0.30545(10) 0.22686(2)
I3 I 0.24637(4) 0.77661(9) 0.21605(2)
I4 I -0.04042(3) 0.19006(10) 0.21383(3)
C1 C -0.1665(4) 1.7729(14) 0.4082(3)
C2 C -0.1633(5) 1.8747(14) 0.3706(3)
C3 C -0.2175(5) 1.9247(15) 0.3520(3)
H1 H -0.2569 1.9094 0.3631
C4 C -0.2110(5) 1.9998(15) 0.3155(3)
H2 H -0.2474 2.0315 0.3023
C5 C -0.1036(5) 1.9848(18) 0.3184(3)
H3 H -0.0644 2.0079 0.3075
C6 C -0.1059(5) 1.9069(18) 0.3542(3)
H4 H -0.0689 1.8766 0.3669
C7 C 0.1960(4) 0.5320(13) 0.5132(3)
C8 C 0.1828(5) 0.5524(13) 0.5552(3)
C9 C 0.1229(5) 0.5997(17) 0.5678(4)
H5 H 0.0900 0.6141 0.5505
C10 C 0.1126(6) 0.6252(18) 0.6065(4)
H6 H 0.0725 0.6588 0.6146
C11 C 0.2155(6) 0.5575(17) 0.6197(3)
H7 H 0.2478 0.5463 0.6374
C12 C 0.2292(5) 0.5260(17) 0.5817(3)
H8 H 0.2692 0.4876 0.5743
C13 C 0.1678(5) 1.0126(16) 0.5263(3)
C14 C 0.1842(5) 1.0536(14) 0.5672(3)
C15 C 0.1372(6) 1.1015(19) 0.5924(3)
H9 H 0.0955 1.1125 0.5845
C16 C 0.1541(5) 1.1324(17) 0.6294(3)
H10 H 0.1227 1.1685 0.6463
C17 C 0.2575(6) 1.0638(18) 0.6182(4)
H11 H 0.2984 1.0483 0.6272
C18 C 0.2454(5) 1.0340(18) 0.5800(3)
H12 H 0.2777 1.0016 0.5634
C19 C -0.1140(5) 1.2786(16) 0.5489(3)
C20 C -0.0897(6) 1.3335(16) 0.5883(3)
C21 C -0.0687(8) 1.1996(19) 0.6145(4)
H13 H -0.0689 1.0745 0.6079
C22 C -0.0479(8) 1.253(2) 0.6497(4)
H14 H -0.0352 1.1618 0.6668
C23 C -0.0621(8) 1.5600(18) 0.6361(3)
H15 H -0.0585 1.6837 0.6434
C24 C -0.0854(7) 1.5197(17) 0.5998(3)
H16 H -0.0979 1.6148 0.5835
C25 C 0.2547(4) 0.6822(13) 0.4162(3)
C26 C 0.2585(4) 0.6035(14) 0.3769(3)
C27 C 0.2034(5) 0.5526(18) 0.3578(4)
H17 H 0.1646 0.5603 0.3700
C28 C 0.2074(6) 0.491(2) 0.3211(3)
H18 H 0.1705 0.4556 0.3088
C29 C 0.3155(5) 0.5263(16) 0.3200(3)
H19 H 0.3537 0.5189 0.3071
C30 C 0.3152(5) 0.5858(15) 0.3579(3)
H20 H 0.3529 0.6133 0.3702
C31 C 0.0880(5) 0.9180(16) 0.3669(3)
C32 C 0.0688(5) 0.8185(17) 0.3308(3)
C33 C 0.0393(5) 0.6454(17) 0.3314(3)
H21 H 0.0287 0.5887 0.3543
C34 C 0.0262(6) 0.5590(18) 0.2963(4)
H22 H 0.0056 0.4450 0.2965
C35 C 0.0701(6) 0.7944(17) 0.2630(4)
H23 H 0.0813 0.8454 0.2397
C36 C 0.0843(7) 0.8936(18) 0.2954(4)
H24 H 0.1039 1.0088 0.2937
C37 C -0.0111(4) 1.6101(12) 0.4777(3)
C38 C -0.0147(4) 1.4085(11) 0.4670(3)
C39 C 0.0381(4) 1.2934(12) 0.4633(3)
H25 H 0.0781 1.3430 0.4671
C40 C -0.0262(4) 1.0539(13) 0.4456(3)
H26 H -0.0315 0.9317 0.4376
C41 C -0.0786(5) 1.1691(14) 0.4482(3)
H27 H -0.1182 1.1226 0.4419
N1 N -0.1554(5) 2.0283(14) 0.2986(3)
N2 N 0.1573(5) 0.6038(14) 0.6322(3)
N3 N 0.2117(5) 1.1145(13) 0.6427(3)
N4 N -0.0450(6) 1.4304(14) 0.6604(3)
N5 N 0.2624(5) 0.4798(15) 0.3021(3)
N6 N 0.0418(5) 0.6327(14) 0.2630(3)
N7 N -0.0732(3) 1.3435(11) 0.4594(3)
N8 N 0.0325(4) 1.1157(11) 0.4544(2)
O1 O -0.2172(3) 1.7530(11) 0.4262(2)
O2 O -0.1728(3) 1.8706(11) 0.4993(2)
O3 O -0.1168(3) 1.7016(11) 0.4204(2)
O4 O 0.1590(3) 1.1485(10) 0.4317(2)
O5 O 0.2422(3) 0.4347(10) 0.5040(2)
O7 O 0.1594(3) 0.6082(11) 0.4904(2)
O8 O 0.2094(3) 0.9786(11) 0.5022(2)
O9 O 0.1106(4) 1.0059(12) 0.5174(2)
O10 O -0.1073(5) 1.1161(12) 0.5392(3)
O11 O -0.1413(4) 1.4049(12) 0.5307(2)
O12 O 0.2071(3) 0.7810(12) 0.4232(2)
O13 O 0.2988(3) 0.6497(10) 0.4389(2)
O14 O 0.1084(7) 1.0774(14) 0.3636(3)
O15 O 0.0796(3) 0.8312(12) 0.3983(2)
O16 O -0.0601(3) 1.6788(10) 0.4922(2)
O17 O 0.0398(3) 1.6927(9) 0.4724(3)
Er1_2 Er 0.124467(16) 1.86865(5) 0.458065(12)
Er2C Er 0.339810(16) 0.42960(5) 0.476920(12)
Cu1B Cu 0.23953(8) 1.4218(3) 0.74546(5)
Cu2B Cu 0.14942(8) 0.9083(3) 0.74243(4)
Cu2_2 Cu 0.35058(8) 0.9083(3) 0.24243(4)
Cu2C Cu -0.14942(8) 0.0917(3) 0.24243(4)
Cu2C_2 Cu -0.14942(8) 2.0917(3) 0.24243(4)
Cu3A Cu -0.02663(11) 1.4933(3) 0.71415(5)
Cu4B Cu 0.35629(9) -0.3580(3) 0.18922(5)
Cu4B_2 Cu 0.35629(9) 0.6420(3) 0.18922(5)
Cu4A Cu -0.14371(9) 0.3580(3) 0.18922(5)
Cu5B Cu 0.26903(7) 0.1478(2) 0.19911(4)
Cu5B_2 Cu 0.26903(7) 1.1478(2) 0.19911(4)
I1B I 0.34178(3) 1.26812(12) 0.72057(3)
I2B I 0.12637(3) 0.30545(10) 0.72686(2)
I2B_2 I 0.12637(3) 1.30545(10) 0.72686(2)
I3_2 I 0.24637(4) -0.22339(9) 0.21605(2)
I3B I 0.25363(4) 0.77661(9) 0.71605(2)
I4C I 0.45958(3) -0.19006(10) 0.21383(3)
I4A I 0.04042(3) 0.80994(10) 0.71383(3)
N1C N 0.3446(5) -0.0283(14) 0.2986(3)
N4A N 0.0450(6) 0.5696(14) 0.1604(3)
O5C O -0.2578(3) 1.5653(10) 0.5040(2)
O13C O -0.2012(3) 1.3503(10) 0.4389(2)
O17_2 O 0.0398(3) 0.6927(9) 0.4724(3)
O6 O 0.0005(5) -0.1200(19) 0.5636(4)
loop_
_geom_bond_atom_site_label_1
_geom_bond_atom_site_label_2
_geom_bond_site_symmetry_1
_geom_bond_site_symmetry_2
Er1 N8 1_555 1_555
Er2 N7 1_555 1_555
Cu1 I1 1_555 1_555
Cu2 I2 1_555 1_555
Cu3 I4 1_555 1_555
Cu4 N2 1_555 1_555
Cu5 N3 1_555 1_555
I1 Cu5B 1_555 1_555
I2 Cu1 1_555 1_555
I3 Cu1 1_555 1_555
I4 Cu2C 1_555 1_555
C1 C2 1_555 1_555
C2 C3 1_555 1_555
C3 H1 1_555 1_555
C4 C3 1_555 1_555
H2 C4 1_555 1_555
C5 H3 1_555 1_555
C6 C2 1_555 1_555
H4 C6 1_555 1_555
C7 C8 1_555 1_555
C8 C9 1_555 1_555
C9 H5 1_555 1_555
C10 C9 1_555 1_555
H6 C10 1_555 1_555
C11 H7 1_555 1_555
C12 C8 1_555 1_555
H8 C12 1_555 1_555
C13 C14 1_555 1_555
C14 C15 1_555 1_555
C15 H9 1_555 1_555
C16 C15 1_555 1_555
H10 C16 1_555 1_555
C17 H11 1_555 1_555
C18 C14 1_555 1_555
H12 C18 1_555 1_555
C19 C20 1_555 1_555
C20 C21 1_555 1_555
C21 H13 1_555 1_555
C22 C21 1_555 1_555
H14 C22 1_555 1_555
C23 H15 1_555 1_555
C24 C20 1_555 1_555
H16 C24 1_555 1_555
C25 C26 1_555 1_555
C26 C27 1_555 1_555
C27 H17 1_555 1_555
C28 C27 1_555 1_555
H18 C28 1_555 1_555
C29 H19 1_555 1_555
C30 C26 1_555 1_555
H20 C30 1_555 1_555
C31 C32 1_555 1_555
C32 C33 1_555 1_555
C33 H21 1_555 1_555
C34 C33 1_555 1_555
H22 C34 1_555 1_555
C35 H23 1_555 1_555
C36 C32 1_555 1_555
H24 C36 1_555 1_555
C37 C38 1_555 1_555
C38 C39 1_555 1_555
C39 H25 1_555 1_555
C40 H26 1_555 1_555
C41 C40 1_555 1_555
H27 C41 1_555 1_555
N1 C4 1_555 1_555
N2 C10 1_555 1_555
N3 C16 1_555 1_555
N4 C22 1_555 1_555
N5 Cu1 1_555 1_555
N6 Cu3 1_555 1_555
N7 C38 1_555 1_555
N8 C39 1_555 1_555
O1 Er2 1_555 1_555
O2 Er2 1_555 1_555
O3 Er2 1_555 1_555
O4 Er1 1_555 1_555
O5 C7 1_555 1_555
O7 Er1 1_555 1_555
O8 Er1 1_555 1_555
O9 Er1 1_555 1_555
O10 C19 1_555 1_555
O11 Er2 1_555 1_555
O12 Er1 1_555 1_555
O13 C25 1_555 1_555
O14 C31 1_555 1_555
O15 Er1 1_555 1_555
O16 Er2 1_555 1_555
O17 C37 1_555 1_555
Er1_2 O17 1_555 1_555
Er2C O5 1_555 1_555
Cu1B Cu5 1_555 1_555
Cu2B Cu4 1_555 1_555
Cu2_2 I3 1_555 1_555
Cu2C Cu4A 1_555 1_555
Cu2C_2 N1 1_555 1_555
Cu3A N4 1_555 1_555
Cu4B Cu2 1_555 1_555
Cu4B_2 I2 1_555 1_555
Cu4A I4 1_555 1_555
Cu5B Cu1 1_555 1_555
Cu5B_2 I3 1_555 1_555
I1B Cu5 1_555 1_555
I2B Cu4 1_555 1_555
I2B_2 Cu5 1_555 1_555
I3_2 Cu2 1_555 1_555
I3B Cu4 1_555 1_555
I4C Cu2 1_555 1_555
I4A Cu4 1_555 1_555
N1C Cu2 1_555 1_555
N4A Cu3 1_555 1_555
O5C Er2 1_555 1_555
O13C Er2 1_555 1_555
O17_2 Er1 1_555 1_555
Cu2 Cu5B 1_555 1_555
Cu5 Cu2B 1_555 1_555
Cu5 I3B 1_555 1_555
I2 Cu5B 1_555 1_555
I3 Cu4B_2 1_555 1_555
C1 O1 1_555 1_555
C1 O3 1_555 1_555
C5 C6 1_555 1_555
C5 N1 1_555 1_555
C7 O7 1_555 1_555
C11 C12 1_555 1_555
C11 N2 1_555 1_555
C13 O8 1_555 1_555
C13 O9 1_555 1_555
C17 C18 1_555 1_555
C17 N3 1_555 1_555
C19 O11 1_555 1_555
C23 C24 1_555 1_555
C23 N4 1_555 1_555
C25 O12 1_555 1_555
C28 N5 1_555 1_555
C29 C30 1_555 1_555
C29 N5 1_555 1_555
C31 O15 1_555 1_555
C34 N6 1_555 1_555
C35 C36 1_555 1_555
C35 N6 1_555 1_555
C37 O16 1_555 1_555
C40 N8 1_555 1_555
C41 N7 1_555 1_555
O13 Er2C 1_555 1_555
Cu1B I1B 1_555 1_555
Cu1B I2B_2 1_555 1_555
Cu2B I2B_2 1_555 1_555
Cu2B I3B 1_555 1_555
Cu2B I4A 1_555 1_555
Cu2_2 Cu4B_2 1_555 1_555
Cu2_2 Cu5B_2 1_555 1_555
Cu4B I3_2 1_555 1_555
Cu4B I4C 1_555 1_555
Cu5B I3_2 1_555 1_555

#END
