
#######################################################################
#
#                 Cambridge Crystallographic Data Centre
#                                CCDC 
#
#######################################################################
#
# If this CIF has been generated from an entry in the Cambridge 
# Structural Database, then it will include bibliographic, chemical, 
# crystal, experimental, refinement or atomic coordinate data resulting 
# from the CCDC's data processing and validation procedures.
#
#######################################################################

data_NITGUT
_symmetry_cell_setting           tetragonal
_symmetry_space_group_name_H-M   'P 4/n'
_symmetry_Int_Tables_number      85
_space_group_name_Hall           '-P 4a'
loop_
_symmetry_equiv_pos_site_id
_symmetry_equiv_pos_as_xyz
1 x,y,z
2 1/2-y,x,z
3 y,1/2-x,z
4 1/2-x,1/2-y,z
5 -x,-y,-z
6 1/2+y,-x,-z
7 -y,1/2+x,-z
8 1/2+x,1/2+y,-z
_cell_length_a                   39.134(6)
_cell_length_b                   39.134(6)
_cell_length_c                   14.553(3)
_cell_angle_alpha                90
_cell_angle_beta                 90
_cell_angle_gamma                90
_cell_volume                     22287.5
loop_
_atom_site_label
_atom_site_type_symbol
_atom_site_fract_x
_atom_site_fract_y
_atom_site_fract_z
S4 S 0.08545(3) 0.27249(3) 0.37897(9)
O18 O 0.08493(7) 0.30156(6) 0.4474(2)
C93 C 0.08947(14) 0.23549(10) 0.4495(3)
H58 H 0.1133 0.2329 0.4690
H59 H 0.0825 0.2152 0.4146
H60 H 0.0748 0.2379 0.5038
C94 C 0.04239(12) 0.26650(13) 0.3415(4)
H61 H 0.0271 0.2663 0.3949
H62 H 0.0405 0.2447 0.3088
H63 H 0.0359 0.2852 0.3002
S5 S 0.84435(4) 0.61770(4) 0.01411(12)
O19 O 0.82857(7) 0.59041(7) 0.0727(2)
C95 C 0.86072(15) 0.64817(13) 0.0967(4)
C96 C 0.88274(14) 0.59897(16) -0.0310(4)
Mn1 Mn 0.219284(14) 0.499329(14) 0.04292(5)
O1 O 0.21621(7) 0.54274(7) -0.0120(2)
O2 O 0.14245(7) 0.54300(6) 0.2038(2)
O3 O 0.21536(6) 0.45667(6) 0.10940(18)
O4 O 0.18263(6) 0.47658(7) -0.0556(2)
N1 N 0.18346(8) 0.51107(8) 0.1287(2)
N2 N 0.17051(8) 0.48323(7) 0.1784(2)
C1 C 0.20546(11) 0.57119(11) 0.0283(3)
C2 C 0.18118(11) 0.57201(10) 0.1054(3)
C3 C 0.17096(11) 0.60263(10) 0.1416(4)
H1 H 0.1548 0.6026 0.1904
C4 C 0.17334(14) 0.66543(12) 0.1507(5)
H2 H 0.1587 0.6659 0.2028
C5 C 0.1858(2) 0.69542(14) 0.1118(6)
H3 H 0.1782 0.7167 0.1355
C6 C 0.20899(18) 0.69529(16) 0.0393(7)
H4 H 0.2181 0.7162 0.0171
C7 C 0.21849(15) 0.66542(13) 0.0006(5)
H5 H 0.2337 0.6658 -0.0503
C8 C 0.21700(11) 0.60248(12) -0.0039(4)
H6 H 0.2328 0.6028 -0.0535
C9 C 0.20634(13) 0.63331(12) 0.0338(5)
C10 C 0.18331(13) 0.63398(11) 0.1096(4)
C11 C 0.16723(10) 0.54066(9) 0.1483(3)
C12 C 0.18961(9) 0.45591(10) 0.1636(3)
C13 C 0.18189(9) 0.42523(9) 0.2152(3)
H7 H 0.1620 0.4252 0.2525
C14 C 0.20074(9) 0.39716(9) 0.2138(3)
H8 H 0.2197 0.3970 0.1731
C15 C 0.19526(9) 0.36624(9) 0.2691(3)
C16 C 0.21951(9) 0.33976(9) 0.2635(3)
H9 H 0.2385 0.3416 0.2233
C17 C 0.21522(10) 0.31103(9) 0.3176(3)
H10 H 0.2321 0.2935 0.3167
C18 C 0.18695(10) 0.30746(10) 0.3726(3)
H11 H 0.1838 0.2871 0.4072
C19 C 0.16344(10) 0.33301(10) 0.3777(3)
H12 H 0.1444 0.3309 0.4176
C20 C 0.16735(9) 0.36139(9) 0.3256(3)
H13 H 0.1503 0.3786 0.3281
C21 C 0.15498(12) 0.49366(12) -0.1047(4)
C22 C 0.12613(15) 0.5000(2) -0.0480(5)
Mn2 Mn 0.126123(15) 0.501708(14) 0.26616(5)
O5 O 0.15444(7) 0.50751(7) 0.3665(2)
O6 O 0.10128(6) 0.41414(6) 0.41315(17)
O7 O 0.09473(6) 0.48962(6) 0.17023(18)
N3 N 0.10868(7) 0.45903(7) 0.3154(2)
N4 N 0.08308(7) 0.44323(8) 0.2612(2)
C23 C 0.16083(10) 0.48674(10) 0.4368(3)
C24 C 0.14417(8) 0.45445(9) 0.4520(3)
C25 C 0.15266(9) 0.43549(10) 0.5265(3)
H14 H 0.1417 0.4140 0.5348
C26 C 0.18389(10) 0.42743(11) 0.6726(3)
H15 H 0.1726 0.4063 0.6837
C27 C 0.20709(11) 0.43966(15) 0.7351(3)
H16 H 0.2124 0.4265 0.7882
C28 C 0.22306(12) 0.47131(13) 0.7215(4)
H17 H 0.2384 0.4799 0.7667
C29 C 0.21698(11) 0.48957(13) 0.6457(3)
H18 H 0.2286 0.5106 0.6368
C30 C 0.18543(10) 0.49712(10) 0.4998(3)
H19 H 0.1973 0.5179 0.4891
C31 C 0.19340(10) 0.47812(11) 0.5783(3)
C32 C 0.17679(9) 0.44592(11) 0.5923(3)
C33 C 0.11612(9) 0.44222(10) 0.3901(3)
C34 C 0.07748(9) 0.46146(10) 0.1881(3)
C35 C 0.05162(9) 0.45055(10) 0.1218(3)
H20 H 0.0396 0.4299 0.1332
C36 C 0.04415(9) 0.46786(9) 0.0475(3)
H21 H 0.0579 0.4874 0.0355
C37 C 0.01677(10) 0.46065(9) -0.0204(3)
C38 C 0.01881(11) 0.47370(10) -0.1072(3)
H22 H 0.0378 0.4873 -0.1247
C39 C -0.00755(13) 0.46680(11) -0.1705(3)
H23 H -0.0063 0.4755 -0.2314
C40 C -0.03475(12) 0.44771(12) -0.1442(4)
H24 H -0.0526 0.4433 -0.1869
C41 C -0.03703(11) 0.43438(11) -0.0556(3)
H25 H -0.0563 0.4212 -0.0376
C42 C -0.01132(10) 0.44061(10) 0.0041(3)
H26 H -0.0124 0.4311 0.0641
S1 S 0.08928(6) 0.56403(6) 0.38061(18)
O8 O 0.08703(8) 0.53503(8) 0.3283(2)
C43 C 0.10299(13) 0.55409(12) 0.4948(3)
C44 C 0.04286(14) 0.57064(17) 0.4161(4)
Mn3 Mn 0.060998(13) 0.399453(14) 0.34142(4)
O10 O 0.42983(6) 0.46887(6) 0.39745(18)
O11 O 0.38241(6) 0.52646(6) 0.18552(19)
O12 O 0.36466(6) 0.41480(6) 0.27297(18)
O13 O 0.05013(6) 0.36018(6) 0.44736(19)
N5 N 0.38315(7) 0.47572(7) 0.2620(2)
N6 N 0.35511(7) 0.46675(7) 0.2064(2)
C47 C 0.44398(9) 0.49621(9) 0.3590(3)
C48 C 0.42743(8) 0.51675(9) 0.2915(3)
C49 C 0.44180(9) 0.54800(9) 0.2654(3)
H27 H 0.4302 0.5619 0.2220
C50 C 0.48698(11) 0.59119(12) 0.2788(3)
H28 H 0.4753 0.6058 0.2371
C51 C 0.51714(13) 0.60130(13) 0.3158(3)
H29 H 0.5262 0.6231 0.3006
C52 C 0.53488(13) 0.58000(12) 0.3757(3)
H30 H 0.5557 0.5876 0.4023
C53 C 0.52287(11) 0.54864(11) 0.3967(3)
H31 H 0.5362 0.5339 0.4341
C54 C 0.47608(10) 0.50595(10) 0.3886(3)
H32 H 0.4886 0.4908 0.4269
C55 C 0.49084(10) 0.53731(9) 0.3642(3)
C56 C 0.47282(10) 0.55920(10) 0.3017(3)
C57 C 0.39574(9) 0.50628(9) 0.2449(3)
C58 C 0.34812(9) 0.43434(9) 0.2156(3)
C59 C 0.32179(9) 0.42018(9) 0.1581(3)
H33 H 0.3086 0.4352 0.1213
C60 C 0.31517(9) 0.38658(9) 0.1545(3)
H34 H 0.3271 0.3723 0.1964
C61 C 0.29097(9) 0.36993(8) 0.0910(3)
C62 C 0.29100(9) 0.33437(9) 0.0850(3)
H35 H 0.3054 0.3215 0.1246
C63 C 0.27011(10) 0.31723(10) 0.0214(3)
C64 C 0.24785(10) 0.33693(10) -0.0324(3)
H36 H 0.2333 0.3259 -0.0753
C65 C 0.24673(10) 0.37158(10) -0.0246(3)
H37 H 0.2311 0.3843 -0.0609
C66 C 0.26803(9) 0.38818(9) 0.0354(3)
H38 H 0.2673 0.4124 0.0394
C67 C 0.01701(18) 0.35604(17) 0.4877(6)
C68 C 0.0083(4) 0.3316(5) 0.5466(16)
Mn4 Mn 0.340480(14) 0.512160(14) 0.11828(5)
S3 S 0.34383(4) 0.59501(5) 0.10547(14)
O14 O 0.36166(7) 0.49457(6) 0.0166(2)
O15 O 0.25583(6) 0.48244(7) -0.03572(19)
O16 O 0.31170(6) 0.52978(6) 0.21372(19)
O17 O 0.34099(7) 0.56320(8) 0.0529(2)
N7 N 0.29595(7) 0.50044(7) 0.0665(2)
N8 N 0.26808(8) 0.51291(8) 0.1180(2)
C71 C 0.35008(10) 0.47639(11) -0.0552(3)
C72 C 0.37230(10) 0.46298(10) -0.1178(3)
H39 H 0.3961 0.4665 -0.1088
C73 C 0.38479(13) 0.43108(13) -0.2602(4)
H40 H 0.4086 0.4352 -0.2544
C74 C 0.37209(14) 0.41186(14) -0.3338(4)
H41 H 0.3878 0.4025 -0.3767
C75 C 0.33761(13) 0.40590(13) -0.3466(4)
H42 H 0.3298 0.3933 -0.3983
C76 C 0.31520(11) 0.41815(13) -0.2848(4)
H43 H 0.2915 0.4139 -0.2932
C77 C 0.30349(10) 0.45136(11) -0.1433(3)
H44 H 0.2798 0.4471 -0.1512
C78 C 0.31366(10) 0.47095(9) -0.0695(3)
C79 C 0.32624(10) 0.43745(10) -0.2068(3)
C80 C 0.36177(11) 0.44422(11) -0.1949(3)
C81 C 0.28747(9) 0.48521(10) -0.0107(3)
C82 C 0.27839(9) 0.52757(10) 0.1925(3)
C83 C 0.25406(10) 0.54228(11) 0.2569(3)
H45 H 0.2305 0.5414 0.2411
C84 C 0.26234(12) 0.55657(12) 0.3348(3)
H46 H 0.2858 0.5556 0.3511
C85 C 0.24054(13) 0.57337(13) 0.3978(4)
C86 C 0.20633(11) 0.58216(13) 0.3787(4)
H47 H 0.1973 0.5760 0.3204
C87 C 0.18557(15) 0.59880(16) 0.4384(5)
H48 H 0.1627 0.6043 0.4222
C88 C 0.1988(2) 0.6076(2) 0.5243(6)
H49 H 0.1849 0.6202 0.5661
C89 C 0.2317(3) 0.5985(2) 0.5501(6)
H50 H 0.2404 0.6043 0.6090
C90 C 0.2514(2) 0.58060(17) 0.4875(5)
H51 H 0.2734 0.5729 0.5062
C91 C 0.37960(17) 0.6165(2) 0.0586(6)
H52 H 0.3994 0.6134 0.0992
H53 H 0.3745 0.6409 0.0527
H54 H 0.3849 0.6070 -0.0022
C92 C 0.3108(2) 0.6219(2) 0.0577(8)
H55 H 0.3099 0.6188 -0.0091
H56 H 0.3158 0.6459 0.0718
H57 H 0.2887 0.6156 0.0844
Mn3B Mn 0.399453(14) 0.439002(13) 0.34142(4)
O10A O 0.03113(6) 0.42983(6) 0.39745(18)
O12A O 0.08520(6) 0.36466(6) 0.27297(18)
N5A N 0.02428(7) 0.38315(7) 0.2620(2)
S2? S 0.07339(6) 0.53454(5) 0.41631(18)
O9? O 0.08703(8) 0.53503(8) 0.3283(2)
C45? C 0.10299(13) 0.55409(12) 0.4948(3)
C46? C 0.04286(14) 0.57064(17) 0.4161(4)
C69? C 0.01701(18) 0.35604(17) 0.4877(6)
C70? C -0.0044(5) 0.3322(7) 0.4575(19)
S6? S 0.86796(17) 0.60077(15) 0.0689(5)
loop_
_geom_bond_atom_site_label_1
_geom_bond_atom_site_label_2
_geom_bond_site_symmetry_1
_geom_bond_site_symmetry_2
Mn1 O1 1_555 1_555
O1 C1 1_555 1_555
O2 C11 1_555 1_555
O3 Mn1 1_555 1_555
O4 Mn1 1_555 1_555
N1 Mn1 1_555 1_555
N2 N1 1_555 1_555
C1 C2 1_555 1_555
C2 C3 1_555 1_555
C3 H1 1_555 1_555
C4 H2 1_555 1_555
C5 C4 1_555 1_555
H3 C5 1_555 1_555
C6 C5 1_555 1_555
H4 C6 1_555 1_555
C7 C6 1_555 1_555
H5 C7 1_555 1_555
C8 C1 1_555 1_555
H6 C8 1_555 1_555
C9 C7 1_555 1_555
C10 C3 1_555 1_555
C11 N1 1_555 1_555
C12 O3 1_555 1_555
C13 C12 1_555 1_555
H7 C13 1_555 1_555
C14 C13 1_555 1_555
H8 C14 1_555 1_555
C15 C14 1_555 1_555
C16 C15 1_555 1_555
H9 C16 1_555 1_555
C17 C16 1_555 1_555
H10 C17 1_555 1_555
C18 C17 1_555 1_555
H11 C18 1_555 1_555
C19 C18 1_555 1_555
H12 C19 1_555 1_555
C20 C15 1_555 1_555
H13 C20 1_555 1_555
C21 O4 1_555 1_555
C22 C21 1_555 1_555
Mn2 O2 1_555 1_555
O5 Mn2 1_555 1_555
O6 C33 1_555 1_555
O7 Mn2 1_555 1_555
N3 Mn2 1_555 1_555
N4 N3 1_555 1_555
C23 O5 1_555 1_555
C24 C23 1_555 1_555
C25 C24 1_555 1_555
H14 C25 1_555 1_555
C26 H15 1_555 1_555
C27 C26 1_555 1_555
H16 C27 1_555 1_555
C28 C27 1_555 1_555
H17 C28 1_555 1_555
C29 C28 1_555 1_555
H18 C29 1_555 1_555
C30 C23 1_555 1_555
H19 C30 1_555 1_555
C31 C29 1_555 1_555
C32 C25 1_555 1_555
C33 N3 1_555 1_555
C34 O7 1_555 1_555
C35 C34 1_555 1_555
H20 C35 1_555 1_555
C36 C35 1_555 1_555
H21 C36 1_555 1_555
C37 C36 1_555 1_555
C38 C37 1_555 1_555
H22 C38 1_555 1_555
C39 C38 1_555 1_555
H23 C39 1_555 1_555
C40 C39 1_555 1_555
H24 C40 1_555 1_555
C41 C40 1_555 1_555
H25 C41 1_555 1_555
C42 C37 1_555 1_555
H26 C42 1_555 1_555
S1 O8 1_555 1_555
O8 Mn2 1_555 1_555
C43 S1 1_555 1_555
C44 S1 1_555 1_555
Mn3 O6 1_555 1_555
O10 C47 1_555 1_555
O11 C57 1_555 1_555
O12 C58 1_555 1_555
O13 Mn3 1_555 1_555
N5 N6 1_555 1_555
N6 C58 1_555 1_555
C47 C48 1_555 1_555
C48 C49 1_555 1_555
C49 H27 1_555 1_555
C50 H28 1_555 1_555
C51 C50 1_555 1_555
H29 C51 1_555 1_555
C52 C51 1_555 1_555
H30 C52 1_555 1_555
C53 C52 1_555 1_555
H31 C53 1_555 1_555
C54 C47 1_555 1_555
H32 C54 1_555 1_555
C55 C53 1_555 1_555
C56 C49 1_555 1_555
C57 N5 1_555 1_555
C58 C59 1_555 1_555
C59 H33 1_555 1_555
C60 C59 1_555 1_555
H34 C60 1_555 1_555
C61 C60 1_555 1_555
C62 C61 1_555 1_555
H35 C62 1_555 1_555
C63 C62 1_555 1_555
C64 C63 1_555 1_555
H36 C64 1_555 1_555
C65 C64 1_555 1_555
H37 C65 1_555 1_555
C66 C61 1_555 1_555
H38 C66 1_555 1_555
C67 O13 1_555 1_555
C68 C67 1_555 1_555
Mn4 O11 1_555 1_555
S3 O17 1_555 1_555
O14 Mn4 1_555 1_555
O15 Mn1 1_555 1_555
O16 Mn4 1_555 1_555
O17 Mn4 1_555 1_555
N7 Mn4 1_555 1_555
N8 Mn1 1_555 1_555
C71 O14 1_555 1_555
C72 C71 1_555 1_555
H39 C72 1_555 1_555
C73 H40 1_555 1_555
C74 C73 1_555 1_555
H41 C74 1_555 1_555
C75 C74 1_555 1_555
H42 C75 1_555 1_555
C76 C75 1_555 1_555
H43 C76 1_555 1_555
C77 H44 1_555 1_555
C78 C71 1_555 1_555
C79 C76 1_555 1_555
C80 C72 1_555 1_555
C81 O15 1_555 1_555
C82 O16 1_555 1_555
C83 C82 1_555 1_555
H45 C83 1_555 1_555
C84 C83 1_555 1_555
H46 C84 1_555 1_555
C85 C84 1_555 1_555
C86 C85 1_555 1_555
H47 C86 1_555 1_555
C87 C86 1_555 1_555
H48 C87 1_555 1_555
C88 C87 1_555 1_555
H49 C88 1_555 1_555
C89 C88 1_555 1_555
H50 C89 1_555 1_555
C90 C85 1_555 1_555
H51 C90 1_555 1_555
C91 S3 1_555 1_555
H52 C91 1_555 1_555
H53 C91 1_555 1_555
H54 C91 1_555 1_555
C92 S3 1_555 1_555
H55 C92 1_555 1_555
H56 C92 1_555 1_555
H57 C92 1_555 1_555
S4 O18 1_555 1_555
C93 S4 1_555 1_555
H58 C93 1_555 1_555
H59 C93 1_555 1_555
H60 C93 1_555 1_555
C94 S4 1_555 1_555
H61 C94 1_555 1_555
H62 C94 1_555 1_555
H63 C94 1_555 1_555
S5 O19 1_555 1_555
C95 S5 1_555 1_555
C96 S5 1_555 1_555
Mn3B O10 1_555 1_555
O10A Mn3 1_555 1_555
O12A Mn3 1_555 1_555
N5A Mn3 1_555 1_555
N2 C12 1_555 1_555
N2 Mn2 1_555 1_555
C2 C11 1_555 1_555
C4 C10 1_555 1_555
C8 C9 1_555 1_555
C9 C10 1_555 1_555
C19 C20 1_555 1_555
N4 C34 1_555 1_555
N4 Mn3 1_555 1_555
C24 C33 1_555 1_555
C26 C32 1_555 1_555
C30 C31 1_555 1_555
C31 C32 1_555 1_555
C41 C42 1_555 1_555
O12 Mn3B 1_555 1_555
N5 Mn3B 1_555 1_555
N6 Mn4 1_555 1_555
C48 C57 1_555 1_555
C50 C56 1_555 1_555
C54 C55 1_555 1_555
C55 C56 1_555 1_555
C65 C66 1_555 1_555
N7 N8 1_555 1_555
N7 C81 1_555 1_555
N8 C82 1_555 1_555
C73 C80 1_555 1_555
C77 C78 1_555 1_555
C77 C79 1_555 1_555
C78 C81 1_555 1_555
C79 C80 1_555 1_555
C89 C90 1_555 1_555

#END
