
#######################################################################
#
#                 Cambridge Crystallographic Data Centre
#                                CCDC 
#
#######################################################################
#
# If this CIF has been generated from an entry in the Cambridge 
# Structural Database, then it will include bibliographic, chemical, 
# crystal, experimental, refinement or atomic coordinate data resulting 
# from the CCDC's data processing and validation procedures.
#
#######################################################################

data_NITJIK
_symmetry_cell_setting           triclinic
_symmetry_space_group_name_H-M   'P -1'
_symmetry_Int_Tables_number      2
_space_group_name_Hall           '-P 1'
loop_
_symmetry_equiv_pos_site_id
_symmetry_equiv_pos_as_xyz
1 x,y,z
2 -x,-y,-z
_cell_length_a                   8.7632(5)
_cell_length_b                   9.0574(5)
_cell_length_c                   14.0903(8)
_cell_angle_alpha                84.163(1)
_cell_angle_beta                 82.506(1)
_cell_angle_gamma                77.109(1)
_cell_volume                     1077.82
loop_
_atom_site_label
_atom_site_type_symbol
_atom_site_fract_x
_atom_site_fract_y
_atom_site_fract_z
B1 B 0.6536(3) 0.7982(3) 1.13204(18)
C1 C 0.6571(3) 0.6582(3) 0.97554(17)
H1 H 0.5636 0.6242 0.9905
C2 C 0.7615(3) 0.6298(3) 0.89583(17)
H2 H 0.7503 0.5729 0.8468
C3 C 0.8540(3) 0.7661(3) 0.97985(17)
H3 H 0.9192 0.8216 1.0006
C4 C 0.6961(3) 1.0744(3) 1.08150(16)
H4 H 0.6398 1.0943 1.0284
C5 C 0.7748(3) 1.1688(3) 1.11404(16)
H5 H 0.7809 1.2656 1.0868
C6 C 0.8061(3) 0.9634(3) 1.20825(16)
H6 H 0.8379 0.8916 1.2578
C7 C 0.6669(3) 0.6607(3) 1.30483(16)
H7 H 0.5950 0.7340 1.3388
C8 C 0.7446(3) 0.5246(3) 1.34147(17)
H8 H 0.7352 0.4894 1.4059
C9 C 0.8192(3) 0.5376(3) 1.19020(17)
H9 H 0.8705 0.5137 1.1299
C10 C 0.3779(3) 0.7270(3) 1.15670(17)
H10 H 0.4119 0.6238 1.1485
C11 C 0.2269(3) 0.8020(3) 1.17931(17)
H11 H 0.1394 0.7579 1.1885
C12 C 0.3718(3) 0.9667(3) 1.16772(16)
H12 H 0.4040 1.0578 1.1679
C13 C 1.1288(3) 1.0066(3) 0.57154(16)
C14 C 1.2015(3) 1.1097(3) 0.49883(16)
C15 C 1.1329(3) 1.2649(3) 0.48999(17)
H13 H 1.0385 1.3016 0.5268
C16 C 1.2031(3) 1.3646(3) 0.42750(17)
H14 H 1.1543 1.4669 0.4212
C17 C 1.3479(3) 1.3116(3) 0.37358(16)
C18 C 1.4144(3) 1.1556(3) 0.37955(17)
H15 H 1.5076 1.1184 0.3417
C19 C 1.3420(3) 1.0567(3) 0.44175(17)
H16 H 1.3877 0.9535 0.4455
N1 N 0.8870(2) 0.6984(2) 0.89869(14)
N2 N 0.7156(2) 0.7468(2) 1.03014(13)
N3 N 0.7151(2) 0.9425(2) 1.14229(13)
N4 N 0.8445(2) 1.0983(2) 1.19397(14)
N5 N 0.7150(2) 0.6699(2) 1.20685(14)
N6 N 0.8400(2) 0.4460(2) 1.26901(15)
N7 N 0.4720(2) 0.8335(2) 1.14814(13)
N8 N 0.2229(2) 0.9539(2) 1.18658(14)
N9 N 1.4202(3) 1.4139(3) 0.31383(15)
H19 H 1.5240 1.3783 0.3069
H20 H 1.3988 1.5029 0.3397
H21 H 1.3843 1.4260 0.2567
O1 O 1.1888(2) 0.86564(19) 0.58051(12)
O2 O 1.0080(2) 1.06646(19) 0.62666(11)
Pb1 Pb 0.970027(9) 0.825681(8) 0.717758(5)
N4A N 1.1555(2) 0.9017(2) 0.80603(14)
N6A N 1.1600(2) 0.5540(2) 0.73099(15)
N8A N 0.7771(2) 1.0461(2) 0.81342(14)
Pb1A Pb 1.029973(9) 1.174319(8) 1.282242(5)
Pb1A_2 Pb 1.029973(9) 0.174319(8) 1.282242(5)
Pb1A_3 Pb 0.029973(9) 1.174319(8) 1.282242(5)
H17 H 0.790(4) 0.230(4) 0.615(2)
H18 H 0.734(4) 0.257(4) 0.538(3)
O3 O 0.7213(2) 0.2880(2) 0.59008(15)
loop_
_geom_bond_atom_site_label_1
_geom_bond_atom_site_label_2
_geom_bond_site_symmetry_1
_geom_bond_site_symmetry_2
B1 N2 1_555 1_555
C1 H1 1_555 1_555
C2 C1 1_555 1_555
H2 C2 1_555 1_555
C3 H3 1_555 1_555
C4 H4 1_555 1_555
C5 C4 1_555 1_555
H5 C5 1_555 1_555
C6 H6 1_555 1_555
C7 H7 1_555 1_555
C8 C7 1_555 1_555
H8 C8 1_555 1_555
C9 H9 1_555 1_555
C10 H10 1_555 1_555
C11 C10 1_555 1_555
H11 C11 1_555 1_555
C12 H12 1_555 1_555
C13 C14 1_555 1_555
C14 C15 1_555 1_555
C15 H13 1_555 1_555
C16 C15 1_555 1_555
H14 C16 1_555 1_555
C17 C16 1_555 1_555
C18 C17 1_555 1_555
H15 C18 1_555 1_555
C19 C14 1_555 1_555
H16 C19 1_555 1_555
H17 O3 1_555 1_555
H18 O3 1_555 1_555
N1 C2 1_555 1_555
N2 C1 1_555 1_555
N3 B1 1_555 1_555
N4 C5 1_555 1_555
N5 B1 1_555 1_555
N6 C8 1_555 1_555
N7 B1 1_555 1_555
N8 C11 1_555 1_555
N9 C17 1_555 1_555
H19 N9 1_555 1_555
H20 N9 1_555 1_555
H21 N9 1_555 1_555
O1 C13 1_555 1_555
O2 C13 1_555 1_555
Pb1 N1 1_555 1_555
N4A Pb1 1_555 1_555
N6A Pb1 1_555 1_555
N8A Pb1 1_555 1_555
Pb1A N4 1_555 1_555
Pb1A_2 N6 1_555 1_555
Pb1A_3 N8 1_555 1_555
C3 N1 1_555 1_555
C3 N2 1_555 1_555
C4 N3 1_555 1_555
C6 N3 1_555 1_555
C6 N4 1_555 1_555
C7 N5 1_555 1_555
C9 N5 1_555 1_555
C9 N6 1_555 1_555
C10 N7 1_555 1_555
C12 N7 1_555 1_555
C12 N8 1_555 1_555
C18 C19 1_555 1_555
O1 Pb1 1_555 1_555
O2 Pb1 1_555 1_555

#END
