
#######################################################################
#
#                 Cambridge Crystallographic Data Centre
#                                CCDC 
#
#######################################################################
#
# If this CIF has been generated from an entry in the Cambridge 
# Structural Database, then it will include bibliographic, chemical, 
# crystal, experimental, refinement or atomic coordinate data resulting 
# from the CCDC's data processing and validation procedures.
#
#######################################################################

data_NITJOQ
_symmetry_cell_setting           triclinic
_symmetry_space_group_name_H-M   'P -1'
_symmetry_Int_Tables_number      2
_space_group_name_Hall           '-P 1'
loop_
_symmetry_equiv_pos_site_id
_symmetry_equiv_pos_as_xyz
1 x,y,z
2 -x,-y,-z
_cell_length_a                   8.3409(11)
_cell_length_b                   11.1636(15)
_cell_length_c                   12.3672(16)
_cell_angle_alpha                89.295(2)
_cell_angle_beta                 71.341(2)
_cell_angle_gamma                82.638(2)
_cell_volume                     1081.54
loop_
_atom_site_label
_atom_site_type_symbol
_atom_site_fract_x
_atom_site_fract_y
_atom_site_fract_z
B1 B 0.8446(7) 0.7115(5) -0.0747(5)
C1 C 0.5549(6) 0.7617(4) 0.0824(4)
H1 H 0.5294 0.8375 0.0555
C2 C 0.5472(6) 0.6035(5) 0.1857(5)
H2 H 0.5134 0.5510 0.2453
C3 C 0.6889(6) 0.5847(4) 0.0968(5)
H3 H 0.7685 0.5155 0.0817
C4 C 0.8189(6) 0.9369(4) -0.1323(4)
H4 H 0.8979 0.9600 -0.1007
C5 C 0.6293(6) 0.9421(4) -0.2156(4)
H5 H 0.5519 0.9700 -0.2531
C6 C 0.6612(6) 0.8260(4) -0.1867(4)
H6 H 0.6100 0.7610 -0.2003
C7 C 0.8018(7) 0.5118(4) -0.1609(5)
H7 H 0.6911 0.5100 -0.1123
C8 C 1.0375(7) 0.4665(5) -0.2924(5)
H8 H 1.1238 0.4258 -0.3529
C9 C 1.0485(6) 0.5696(4) -0.2429(4)
H9 H 1.1412 0.6131 -0.2635
C10 C 0.9954(7) 0.7450(4) 0.0705(5)
H10 H 0.9084 0.7221 0.1324
C11 C 1.2251(6) 0.8085(4) -0.0284(4)
H11 H 1.3296 0.8382 -0.0489
C12 C 1.1434(6) 0.7839(4) -0.1020(5)
H12 H 1.1803 0.7931 -0.1806
N1 N 0.6978(5) 0.6852(3) 0.0309(4)
N2 N 0.4558(5) 0.7168(4) 0.1748(4)
N3 N 0.7833(5) 0.8222(3) -0.1334(4)
N4 N 0.7296(5) 1.0123(4) -0.1808(4)
N5 N 0.8977(5) 0.5994(4) -0.1560(4)
N6 N 0.8816(5) 0.4296(4) -0.2414(4)
N7 N 0.9933(5) 0.7420(4) -0.0370(4)
N8 N 1.1330(5) 0.7837(4) 0.0802(4)
Pb1 Pb 0.16475(2) 0.795846(15) 0.273465(15)
N4A N 0.2704(5) 0.9877(4) 0.1808(4)
N6A N 0.1184(5) 0.5704(4) 0.2414(4)
N8_2 N 0.1330(5) 0.7837(4) 0.0802(4)
Pb1A Pb 0.83525(2) 1.204154(15) -0.273465(15)
Pb1A_2 Pb 0.83525(2) 0.204154(15) -0.273465(15)
Pb1_2 Pb 1.16475(2) 0.795846(15) 0.273465(15)
C13 C 0.5211(6) 0.7456(4) 0.5282(4)
C14 C 0.5639(6) 0.6296(4) 0.5587(5)
H13 H 0.4889 0.5726 0.5673
C15 C 0.7193(7) 0.5988(5) 0.5765(4)
H14 H 0.7480 0.5209 0.5978
C16 C 0.8321(7) 0.6819(4) 0.5633(4)
H15 H 0.9379 0.6591 0.5728
C17 C 0.7880(6) 0.8000(5) 0.5356(4)
C18 C 0.6322(6) 0.8307(4) 0.5163(4)
H16 H 0.6028 0.9086 0.4954
N9 N 0.8990(5) 0.8863(4) 0.5243(4)
H17 H 0.9584 0.8711 0.5723
H18 H 0.8390 0.9595 0.5403
H19 H 0.9702 0.8834 0.4530
O1 O 0.3498(5) 0.8827(3) 0.4222(3)
O2 O 0.2775(5) 0.6824(3) 0.4638(3)
O3 O 0.2049(5) 0.8333(3) 0.6167(3)
S1 S 0.32397(15) 0.78831(11) 0.50585(11)
O4 O 0.8253(6) 0.9423(4) 0.2694(4)
loop_
_geom_bond_atom_site_label_1
_geom_bond_atom_site_label_2
_geom_bond_site_symmetry_1
_geom_bond_site_symmetry_2
B1 N1 1_555 1_555
C1 H1 1_555 1_555
C2 H2 1_555 1_555
C3 C2 1_555 1_555
H3 C3 1_555 1_555
C4 H4 1_555 1_555
C5 H5 1_555 1_555
C6 C5 1_555 1_555
H6 C6 1_555 1_555
C7 H7 1_555 1_555
C8 H8 1_555 1_555
C9 C8 1_555 1_555
H9 C9 1_555 1_555
C10 H10 1_555 1_555
C11 H11 1_555 1_555
C12 C11 1_555 1_555
H12 C12 1_555 1_555
C13 C14 1_555 1_555
C14 H13 1_555 1_555
C15 C14 1_555 1_555
H14 C15 1_555 1_555
C16 C15 1_555 1_555
H15 C16 1_555 1_555
C17 C16 1_555 1_555
C18 C13 1_555 1_555
H16 C18 1_555 1_555
N1 C1 1_555 1_555
N2 C1 1_555 1_555
N3 B1 1_555 1_555
N4 C4 1_555 1_555
N5 B1 1_555 1_555
N6 C7 1_555 1_555
N7 B1 1_555 1_555
N8 C10 1_555 1_555
N9 C17 1_555 1_555
H17 N9 1_555 1_555
H18 N9 1_555 1_555
H19 N9 1_555 1_555
O1 S1 1_555 1_555
O2 S1 1_555 1_555
O3 S1 1_555 1_555
Pb1 N2 1_555 1_555
S1 C13 1_555 1_555
N4A Pb1 1_555 1_555
N6A Pb1 1_555 1_555
N8_2 Pb1 1_555 1_555
Pb1A N4 1_555 1_555
Pb1A_2 N6 1_555 1_555
Pb1_2 N8 1_555 1_555
C2 N2 1_555 1_555
C3 N1 1_555 1_555
C4 N3 1_555 1_555
C5 N4 1_555 1_555
C6 N3 1_555 1_555
C7 N5 1_555 1_555
C8 N6 1_555 1_555
C9 N5 1_555 1_555
C10 N7 1_555 1_555
C11 N8 1_555 1_555
C12 N7 1_555 1_555
C17 C18 1_555 1_555

#END
