
#######################################################################
#
#                 Cambridge Crystallographic Data Centre
#                                CCDC 
#
#######################################################################
#
# If this CIF has been generated from an entry in the Cambridge 
# Structural Database, then it will include bibliographic, chemical, 
# crystal, experimental, refinement or atomic coordinate data resulting 
# from the CCDC's data processing and validation procedures.
#
#######################################################################

data_NITJEG
_symmetry_cell_setting           triclinic
_symmetry_space_group_name_H-M   'P -1'
_symmetry_Int_Tables_number      2
_space_group_name_Hall           '-P 1'
loop_
_symmetry_equiv_pos_site_id
_symmetry_equiv_pos_as_xyz
1 x,y,z
2 -x,-y,-z
_cell_length_a                   8.8415(11)
_cell_length_b                   8.9151(11)
_cell_length_c                   14.2785(18)
_cell_angle_alpha                81.486(2)
_cell_angle_beta                 80.621(2)
_cell_angle_gamma                79.454(2)
_cell_volume                     1083.53
loop_
_atom_site_label
_atom_site_type_symbol
_atom_site_fract_x
_atom_site_fract_y
_atom_site_fract_z
B1 B 0.7207(11) 0.8445(10) 0.3668(7)
C1 C 0.8775(14) 0.8223(13) 0.5124(8)
H1 H 0.9328 0.9028 0.4903
C2 C 0.8933(13) 0.7240(12) 0.5946(7)
H2 H 0.9600 0.7279 0.6380
C3 C 0.7221(11) 0.6590(11) 0.5253(6)
H3 H 0.6476 0.6068 0.5122
C4 C 0.4360(9) 0.7925(9) 0.4154(6)
H4 H 0.4077 0.8525 0.4655
C5 C 0.3453(9) 0.7038(9) 0.3867(6)
H5 H 0.2444 0.6930 0.4142
C6 C 0.5663(9) 0.6799(9) 0.2935(5)
H6 H 0.6456 0.6506 0.2451
C7 C 0.7807(10) 1.1256(9) 0.3536(6)
H7 H 0.8798 1.1007 0.3714
C8 C 0.7068(10) 1.2693(10) 0.3249(7)
H8 H 0.7478 1.3595 0.3203
C9 C 0.5521(10) 1.1125(10) 0.3191(6)
H9 H 0.4665 1.0730 0.3089
C10 C 0.8863(10) 0.8527(9) 0.1945(6)
H10 H 0.8230 0.9323 0.1627
C11 C 1.0229(10) 0.7706(10) 0.1560(6)
H11 H 1.0675 0.7846 0.0924
C12 C 0.9811(9) 0.6790(9) 0.3067(6)
H12 H 0.9910 0.6191 0.3652
C13 C 0.4329(10) 0.3853(10) 0.9307(6)
C14 C 0.3209(10) 0.3197(9) 1.0120(6)
C15 C 0.1757(10) 0.4050(10) 1.0381(6)
H13 H 0.1473 0.5029 1.0069
C16 C 0.0730(10) 0.3413(10) 1.1121(7)
H14 H -0.0241 0.3977 1.1304
C17 C 0.1150(10) 0.1939(10) 1.1586(6)
H15 H 0.0439 0.1513 1.2057
C18 C 0.2640(11) 0.1087(10) 1.1350(6)
C19 C 0.3665(10) 0.1729(9) 1.0611(6)
H16 H 0.4651 0.1185 1.0442
N1 N 0.7664(8) 0.7826(8) 0.4678(5)
N2 N 0.7944(9) 0.6181(8) 0.6029(5)
N3 N 0.5759(8) 0.7773(8) 0.3573(5)
N4 N 0.4291(8) 0.6323(8) 0.3094(5)
N5 N 0.6814(8) 1.0241(8) 0.3514(5)
N6 N 0.5630(9) 1.2605(8) 0.3040(5)
N7 N 0.8604(8) 0.7933(7) 0.2913(5)
N8 N 1.0851(9) 0.6627(9) 0.2269(5)
N9 N 0.3101(10) -0.0357(9) 1.1859(6)
H17 H 0.3777 -0.0940 1.1475
H18 H 0.2273 -0.0811 1.2072
H19 H 0.3546 -0.0234 1.2352
O1 O 0.5738(7) 0.3176(7) 0.9168(4)
O2 O 0.3802(7) 0.5042(7) 0.8768(4)
Pb1 Pb 0.64927(3) 0.53827(3) 0.783657(19)
N4A N 0.5709(8) 0.3677(8) 0.6906(5)
N6A N 0.4370(9) 0.7395(8) 0.6960(5)
N8A N 0.9149(9) 0.3373(9) 0.7731(5)
Pb1A Pb 0.35073(3) 0.46173(3) 0.216343(19)
Pb1A_2 Pb 0.35073(3) 1.46173(3) 0.216343(19)
Pb1A_3 Pb 1.35073(3) 0.46173(3) 0.216343(19)
O3 O 0.7475(9) 0.1875(9) 0.0715(6)
loop_
_geom_bond_atom_site_label_1
_geom_bond_atom_site_label_2
_geom_bond_site_symmetry_1
_geom_bond_site_symmetry_2
B1 N1 1_555 1_555
C1 H1 1_555 1_555
C2 C1 1_555 1_555
H2 C2 1_555 1_555
C3 H3 1_555 1_555
C4 H4 1_555 1_555
C5 C4 1_555 1_555
H5 C5 1_555 1_555
C6 H6 1_555 1_555
C7 H7 1_555 1_555
C8 C7 1_555 1_555
H8 C8 1_555 1_555
C9 H9 1_555 1_555
C10 H10 1_555 1_555
C11 C10 1_555 1_555
H11 C11 1_555 1_555
C12 H12 1_555 1_555
C13 C14 1_555 1_555
C14 C15 1_555 1_555
C15 H13 1_555 1_555
C16 C15 1_555 1_555
H14 C16 1_555 1_555
C17 C16 1_555 1_555
H15 C17 1_555 1_555
C18 C17 1_555 1_555
C19 C14 1_555 1_555
H16 C19 1_555 1_555
N1 C1 1_555 1_555
N2 C2 1_555 1_555
N3 B1 1_555 1_555
N4 C5 1_555 1_555
N5 B1 1_555 1_555
N6 C8 1_555 1_555
N7 B1 1_555 1_555
N8 C11 1_555 1_555
N9 C18 1_555 1_555
H17 N9 1_555 1_555
H18 N9 1_555 1_555
H19 N9 1_555 1_555
O1 C13 1_555 1_555
O2 C13 1_555 1_555
Pb1 N2 1_555 1_555
N4A Pb1 1_555 1_555
N6A Pb1 1_555 1_555
N8A Pb1 1_555 1_555
Pb1A N4 1_555 1_555
Pb1A_2 N6 1_555 1_555
Pb1A_3 N8 1_555 1_555
C3 N1 1_555 1_555
C3 N2 1_555 1_555
C4 N3 1_555 1_555
C6 N3 1_555 1_555
C6 N4 1_555 1_555
C7 N5 1_555 1_555
C9 N5 1_555 1_555
C9 N6 1_555 1_555
C10 N7 1_555 1_555
C12 N7 1_555 1_555
C12 N8 1_555 1_555
C18 C19 1_555 1_555
O1 Pb1 1_555 1_555
O2 Pb1 1_555 1_555

#END
