
#######################################################################
#
#                 Cambridge Crystallographic Data Centre
#                                CCDC 
#
#######################################################################
#
# If this CIF has been generated from an entry in the Cambridge 
# Structural Database, then it will include bibliographic, chemical, 
# crystal, experimental, refinement or atomic coordinate data resulting 
# from the CCDC's data processing and validation procedures.
#
#######################################################################

data_NITPHG
_symmetry_cell_setting           monoclinic
_symmetry_space_group_name_H-M   'P 21/c'
_symmetry_Int_Tables_number      14
_space_group_name_Hall           '-P 2ybc'
loop_
_symmetry_equiv_pos_site_id
_symmetry_equiv_pos_as_xyz
1 x,y,z
2 -x,1/2+y,1/2-z
3 -x,-y,-z
4 x,1/2-y,1/2+z
_cell_length_a                   10.39(1)
_cell_length_b                   9.56(1)
_cell_length_c                   19.44(2)
_cell_angle_alpha                90
_cell_angle_beta                 94.3(1)
_cell_angle_gamma                90
_cell_volume                     1925.51
loop_
_atom_site_label
_atom_site_type_symbol
_atom_site_fract_x
_atom_site_fract_y
_atom_site_fract_z
C1 C 0.20720 0.06460 0.43260
C2 C 0.42570 0.08110 0.34610
C3 C 0.47740 0.17280 0.39350
C4 C 0.59890 0.23230 0.38360
C5 C 0.66050 0.19800 0.32620
C6 C 0.60820 0.10780 0.27820
C7 C 0.49140 0.04600 0.28840
C8 C 0.11360 0.16950 0.42410
C9 C 0.31430 -0.18620 0.37950
C10 C 0.21350 -0.28090 0.37830
C11 C 0.23640 -0.41710 0.39870
C12 C 0.35930 -0.45830 0.41890
C13 C 0.46100 -0.36680 0.41870
C14 C 0.43820 -0.22810 0.39850
C15 C 0.06240 0.22530 0.48340
C16 C 0.10440 0.17750 0.54600
C17 C 0.19530 0.07440 0.55520
C18 C 0.24840 0.01950 0.49760
Hg1 Hg 0.13380 0.01690 0.25910
N1 N 0.17500 0.00860 0.11660
N2 N -0.11930 -0.15670 0.25390
O1 O 0.07390 -0.02100 0.15020
O2 O 0.26880 0.05680 0.14820
O3 O 0.16430 -0.01700 0.05470
O4 O -0.09450 -0.02810 0.26780
O5 O 0.02890 0.25840 0.24410
O6 O -0.22910 -0.19380 0.23880
P1 P 0.27680 -0.00570 0.35860
O5A O -0.02890 -0.24160 0.25590
N2A N 0.11930 0.34330 0.24610
Hg1A Hg -0.13380 -0.48310 0.24090
O4A O 0.09450 0.47190 0.23220
O6A O 0.22910 0.30620 0.26120
O1A O -0.07390 -0.52100 0.34980
O2A O -0.26880 -0.44320 0.35180
O4A_2 O 0.09450 -0.52810 0.23220
P1A P -0.27680 -0.50570 0.14140
Hg1A_2 Hg -0.13380 0.51690 0.24090
N1A N -0.17500 -0.49140 0.38340
C1A C -0.20720 -0.43540 0.06740
C2A C -0.42570 -0.41890 0.15390
C9A C -0.31430 -0.68620 0.12050
O3A O -0.16430 -0.51700 0.44530
C8A C -0.11360 -0.33050 0.07590
C18A C -0.24840 -0.48050 0.00240
C3A C -0.47740 -0.32720 0.10650
C7A C -0.49140 -0.45400 0.21160
C10A C -0.21350 -0.78090 0.12170
C14A C -0.43820 -0.72810 0.10150
C15A C -0.06240 -0.27470 0.01660
C17A C -0.19530 -0.42560 -0.05520
C4A C -0.59890 -0.26770 0.11640
C6A C -0.60820 -0.39220 0.22180
C11A C -0.23640 -0.91710 0.10130
C13A C -0.46100 -0.86680 0.08130
C16A C -0.10440 -0.32250 -0.04600
C5A C -0.66050 -0.30200 0.17380
C12A C -0.35930 -0.95830 0.08110
loop_
_geom_bond_atom_site_label_1
_geom_bond_atom_site_label_2
_geom_bond_site_symmetry_1
_geom_bond_site_symmetry_2
C1 C8 1_555 1_555
C2 C3 1_555 1_555
C3 C4 1_555 1_555
C4 C5 1_555 1_555
C5 C6 1_555 1_555
C6 C7 1_555 1_555
C7 C2 1_555 1_555
C8 C15 1_555 1_555
C9 C10 1_555 1_555
C10 C11 1_555 1_555
C11 C12 1_555 1_555
C12 C13 1_555 1_555
C13 C14 1_555 1_555
C14 C9 1_555 1_555
C15 C16 1_555 1_555
C16 C17 1_555 1_555
C17 C18 1_555 1_555
C18 C1 1_555 1_555
Hg1 O1 1_555 1_555
N1 O1 1_555 1_555
N2 O4 1_555 1_555
O2 Hg1 1_555 1_555
O3 N1 1_555 1_555
O4 Hg1 1_555 1_555
O5 Hg1 1_555 1_555
O6 N2 1_555 1_555
P1 C1 1_555 1_555
O5A N2 1_555 1_555
N2A O5 1_555 1_555
Hg1A O5A 1_555 1_555
O4A N2A 1_555 1_555
O6A N2A 1_555 1_555
O1A Hg1A 1_555 1_555
O2A Hg1A 1_555 1_555
O4A_2 Hg1A 1_555 1_555
P1A Hg1A 1_555 1_555
Hg1A_2 O4A 1_555 1_555
N1A O1A 1_555 1_555
C1A P1A 1_555 1_555
C2A P1A 1_555 1_555
C9A P1A 1_555 1_555
O3A N1A 1_555 1_555
C8A C1A 1_555 1_555
C18A C1A 1_555 1_555
C3A C2A 1_555 1_555
C7A C2A 1_555 1_555
C10A C9A 1_555 1_555
C14A C9A 1_555 1_555
C15A C8A 1_555 1_555
C17A C18A 1_555 1_555
C4A C3A 1_555 1_555
C6A C7A 1_555 1_555
C11A C10A 1_555 1_555
C13A C14A 1_555 1_555
C16A C15A 1_555 1_555
C5A C4A 1_555 1_555
C12A C11A 1_555 1_555
C2 P1 1_555 1_555
C9 P1 1_555 1_555
Hg1 P1 1_555 1_555
N1 O2 1_555 1_555
O2A N1A 1_555 1_555
C17A C16A 1_555 1_555
C6A C5A 1_555 1_555
C13A C12A 1_555 1_555

#END
