
#######################################################################
#
#                 Cambridge Crystallographic Data Centre
#                                CCDC 
#
#######################################################################
#
# If this CIF has been generated from an entry in the Cambridge 
# Structural Database, then it will include bibliographic, chemical, 
# crystal, experimental, refinement or atomic coordinate data resulting 
# from the CCDC's data processing and validation procedures.
#
#######################################################################

data_NITROY
_symmetry_cell_setting           monoclinic
_symmetry_space_group_name_H-M   'P 2/c'
_symmetry_Int_Tables_number      13
_space_group_name_Hall           '-P 2yc'
loop_
_symmetry_equiv_pos_site_id
_symmetry_equiv_pos_as_xyz
1 x,y,z
2 -x,y,1/2-z
3 -x,-y,-z
4 x,-y,1/2+z
_cell_length_a                   7.580(4)
_cell_length_b                   6.859(4)
_cell_length_c                   23.290(12)
_cell_angle_alpha                90
_cell_angle_beta                 98.041(7)
_cell_angle_gamma                90
_cell_volume                     1198.97
loop_
_atom_site_label
_atom_site_type_symbol
_atom_site_fract_x
_atom_site_fract_y
_atom_site_fract_z
Cd1 Cd 1.0000 0.19888(6) 0.7500
N1 N 0.7882(4) 0.0439(4) 0.69131(11)
N2 N 1.2451(5) 0.3347(5) 0.68171(13)
O1 O 1.2005(3) 0.1615(4) 0.67719(10)
O2 O 1.1720(4) 0.4403(4) 0.71696(11)
O3 O 1.3504(4) 0.4048(5) 0.65255(13)
C1 C 0.7312(5) -0.1268(5) 0.71038(15)
H1 H 0.7816 -0.1715 0.7467
C2 C 0.6041(5) -0.2361(5) 0.67919(18)
H2 H 0.5683 -0.3539 0.6936
C3 C 0.5287(5) -0.1697(6) 0.62564(17)
H3 H 0.4402 -0.2419 0.6035
C4 C 0.5844(4) 0.0029(5) 0.60524(15)
H4 H 0.5348 0.0483 0.5689
C5 C 0.7157(4) 0.1106(5) 0.63890(14)
C6 C 0.7810(4) 0.2960(5) 0.62083(14)
H5 H 0.8501 0.3682 0.6494
C7 C 0.7540(4) 0.3746(5) 0.56864(14)
H6 H 0.6819 0.3046 0.5403
C8 C 0.8243(4) 0.5583(5) 0.55054(13)
C9 C 0.9456(4) 0.6723(5) 0.58630(13)
H7 H 0.9825 0.6319 0.6242
C10 C 1.0118(4) 0.8420(4) 0.56721(13)
H8 H 1.0917 0.9150 0.5925
C11 C 0.9620(4) 0.9089(4) 0.51023(13)
C12 C 0.8415(4) 0.7955(5) 0.47523(13)
H9 H 0.8040 0.8358 0.4374
C13 C 0.7749(4) 0.6254(5) 0.49428(13)
H10 H 0.6947 0.5530 0.4689
Cd1C Cd 1.0000 1.80112(6) 0.2500
N1B N 1.2118(4) 1.9561(4) 0.30869(11)
N1A N 1.2118(4) 0.0439(4) 0.80869(11)
N2A N 0.7549(5) 0.3347(5) 0.81829(13)
O1A O 0.7995(3) 0.1615(4) 0.82281(10)
O2A O 0.8280(4) 0.4403(4) 0.78304(11)
O3A O 0.6496(4) 0.4048(5) 0.84745(13)
C1B C 1.2688(5) 2.1268(5) 0.28962(15)
H1B H 1.2184 2.1715 0.2533
C2B C 1.3959(5) 2.2361(5) 0.32081(18)
H2B H 1.4317 2.3539 0.3064
C3B C 1.4713(5) 2.1697(6) 0.37436(17)
H3B H 1.5598 2.2419 0.3965
C4B C 1.4156(4) 1.9971(5) 0.39476(15)
H4B H 1.4652 1.9517 0.4311
C5B C 1.2843(4) 1.8894(5) 0.36110(14)
C6B C 1.2190(4) 1.7040(5) 0.37917(14)
H5B H 1.1499 1.6318 0.3506
C7B C 1.2460(4) 1.6254(5) 0.43136(14)
H6B H 1.3181 1.6954 0.4597
C8B C 1.1757(4) 1.4417(5) 0.44946(13)
C9B C 1.0544(4) 1.3277(5) 0.41370(13)
H7B H 1.0175 1.3681 0.3758
C10B C 0.9882(4) 1.1580(4) 0.43279(13)
H8B H 0.9083 1.0850 0.4075
C11B C 1.0380(4) 1.0911(4) 0.48977(13)
C12B C 1.1585(4) 1.2045(5) 0.52477(13)
H9B H 1.1960 1.1642 0.5626
C13B C 1.2251(4) 1.3746(5) 0.50572(13)
H10B H 1.3053 1.4470 0.5311
loop_
_geom_bond_atom_site_label_1
_geom_bond_atom_site_label_2
_geom_bond_site_symmetry_1
_geom_bond_site_symmetry_2
Cd1 N1 1_555 1_555
N1 C1 1_555 1_555
N2 O1 1_555 1_555
O1 Cd1 1_555 1_555
O2 Cd1 1_555 1_555
O3 N2 1_555 1_555
C1 H1 1_555 1_555
C2 C1 1_555 1_555
H2 C2 1_555 1_555
C3 C2 1_555 1_555
H3 C3 1_555 1_555
C4 C3 1_555 1_555
H4 C4 1_555 1_555
C5 N1 1_555 1_555
C6 C5 1_555 1_555
H5 C6 1_555 1_555
C7 C6 1_555 1_555
H6 C7 1_555 1_555
C8 C7 1_555 1_555
C9 C8 1_555 1_555
H7 C9 1_555 1_555
C10 C9 1_555 1_555
H8 C10 1_555 1_555
C11 C10 1_555 1_555
C12 C11 1_555 1_555
H9 C12 1_555 1_555
C13 C8 1_555 1_555
H10 C13 1_555 1_555
Cd1C N1B 1_555 1_555
N1B C1B 1_555 1_555
N1A Cd1 1_555 1_555
N2A O1A 1_555 1_555
O1A Cd1 1_555 1_555
O2A Cd1 1_555 1_555
O3A N2A 1_555 1_555
C1B H1B 1_555 1_555
C2B C1B 1_555 1_555
H2B C2B 1_555 1_555
C3B C2B 1_555 1_555
H3B C3B 1_555 1_555
C4B C3B 1_555 1_555
H4B C4B 1_555 1_555
C5B N1B 1_555 1_555
C6B C5B 1_555 1_555
H5B C6B 1_555 1_555
C7B C6B 1_555 1_555
H6B C7B 1_555 1_555
C8B C7B 1_555 1_555
C9B C8B 1_555 1_555
H7B C9B 1_555 1_555
C10B C9B 1_555 1_555
H8B C10B 1_555 1_555
C11B C11 1_555 1_555
C12B C11B 1_555 1_555
H9B C12B 1_555 1_555
C13B C8B 1_555 1_555
H10B C13B 1_555 1_555
N2 O2 1_555 1_555
C4 C5 1_555 1_555
C12 C13 1_555 1_555
N2A O2A 1_555 1_555
C4B C5B 1_555 1_555
C10B C11B 1_555 1_555
C12B C13B 1_555 1_555

#END
