
#######################################################################
#
#                 Cambridge Crystallographic Data Centre
#                                CCDC 
#
#######################################################################
#
# If this CIF has been generated from an entry in the Cambridge 
# Structural Database, then it will include bibliographic, chemical, 
# crystal, experimental, refinement or atomic coordinate data resulting 
# from the CCDC's data processing and validation procedures.
#
#######################################################################

data_NIVFUT01
_symmetry_cell_setting           monoclinic
_symmetry_space_group_name_H-M   'P 21/n'
_symmetry_Int_Tables_number      14
_space_group_name_Hall           '-P 2yn'
loop_
_symmetry_equiv_pos_site_id
_symmetry_equiv_pos_as_xyz
1 x,y,z
2 1/2-x,1/2+y,1/2-z
3 -x,-y,-z
4 1/2+x,1/2-y,1/2+z
_cell_length_a                   9.624(2)
_cell_length_b                   11.283(2)
_cell_length_c                   14.916(3)
_cell_angle_alpha                90
_cell_angle_beta                 90.47(3)
_cell_angle_gamma                90
_cell_volume                     1619.64
loop_
_atom_site_label
_atom_site_type_symbol
_atom_site_fract_x
_atom_site_fract_y
_atom_site_fract_z
O1 O -0.0570(3) -0.0966(3) -0.0065(2)
C1 C -0.1350(5) -0.1979(4) -0.0131(3)
C2 C -0.0713(6) -0.3028(5) -0.0399(4)
O2 O -0.3609(4) -0.5108(3) -0.0280(3)
O3 O -0.4417(3) 0.3697(3) 0.3215(2)
C3 C -0.1476(6) -0.4059(5) -0.0448(4)
C4 C -0.2872(6) -0.4068(5) -0.0233(4)
O4 O -0.1995(4) 0.0602(3) 0.0858(2)
O5 O 0.0413(3) 0.0961(3) 0.1922(2)
C5 C -0.3493(6) -0.3021(5) 0.0030(4)
C6 C -0.2746(6) -0.1978(5) 0.0076(4)
C7 C -0.3859(5) 0.2928(4) 0.2614(3)
C8 C -0.3445(5) 0.1814(5) 0.2898(4)
C9 C -0.2868(5) 0.1027(5) 0.2303(4)
C10 C -0.2672(5) 0.1392(5) 0.1417(3)
C11 C -0.3106(5) 0.2480(5) 0.1126(3)
C12 C -0.3715(5) 0.3251(5) 0.1724(4)
C13 C 0.1025(5) 0.1736(5) 0.2492(3)
C14 C 0.0405(6) 0.2804(5) 0.2692(3)
C15 C 0.1090(5) 0.3618(5) 0.3223(4)
C16 C 0.2381(5) 0.3358(5) 0.3587(3)
C17 C 0.2960(6) 0.2246(5) 0.3430(3)
C18 C 0.2290(5) 0.1456(5) 0.2875(4)
O6 O 0.3087(3) 0.4190(3) 0.4088(2)
H1 H 0.0225(6) -0.3033(5) -0.0545(4)
H2 H -0.4417(4) -0.4985(3) -0.0137(3)
H3 H -0.1048(6) -0.4757(5) -0.0627(4)
H4 H -0.2462(4) 0.0371(3) 0.0338(2)
H5 H -0.4430(6) -0.3019(5) 0.0178(4)
H6 H -0.3181(6) -0.1279(5) 0.0246(4)
H7 H -0.3558(5) 0.1596(5) 0.3494(4)
H8 H -0.2614(5) 0.0269(5) 0.2486(4)
H9 H -0.2992(5) 0.2699(5) 0.0530(3)
H10 H -0.4029(5) 0.3987(5) 0.1529(4)
H11 H -0.0477(6) 0.2976(5) 0.2468(3)
H12 H 0.0681(5) 0.4348(5) 0.3339(4)
H13 H 0.3800(6) 0.2039(5) 0.3700(3)
H14 H 0.2695(5) 0.0724(5) 0.2757(4)
Ti1 Ti 0.0091(1) -0.0157(1) 0.1091(1)
O1B O 0.0570(3) 0.0966(3) 0.0065(2)
C1B C 0.1350(5) 0.1979(4) 0.0131(3)
C2B C 0.0713(6) 0.3028(5) 0.0399(4)
O2B O 0.3609(4) 0.5108(3) 0.0280(3)
C3B C 0.1476(6) 0.4059(5) 0.0448(4)
C4B C 0.2872(6) 0.4068(5) 0.0233(4)
C5B C 0.3493(6) 0.3021(5) -0.0030(4)
C6B C 0.2746(6) 0.1978(5) -0.0076(4)
H1B H -0.0225(6) 0.3033(5) 0.0545(4)
H2B H 0.4417(4) 0.4985(3) 0.0137(3)
H3B H 0.1048(6) 0.4757(5) 0.0627(4)
H5B H 0.4430(6) 0.3019(5) -0.0178(4)
H6B H 0.3181(6) 0.1279(5) -0.0246(4)
O3A O -0.0583(3) -0.1303(3) 0.1785(2)
O6A O 0.1913(3) -0.0810(3) 0.0912(2)
Ti1B Ti -0.0091(1) 0.0157(1) -0.1091(1)
Ti1A Ti -0.5091(1) 0.4843(1) 0.3909(1)
Ti1A_2 Ti 0.4909(1) 0.4843(1) 0.3909(1)
O3C O 0.0583(3) 0.1303(3) -0.1785(2)
O3B O 0.4417(3) -0.3697(3) -0.3215(2)
O4B O 0.1995(4) -0.0602(3) -0.0858(2)
C7B C 0.3859(5) -0.2928(4) -0.2614(3)
C8B C 0.3445(5) -0.1814(5) -0.2898(4)
C9B C 0.2868(5) -0.1027(5) -0.2303(4)
C10B C 0.2672(5) -0.1392(5) -0.1417(3)
C11B C 0.3106(5) -0.2480(5) -0.1126(3)
C12B C 0.3715(5) -0.3251(5) -0.1724(4)
H4B H 0.2462(4) -0.0371(3) -0.0338(2)
H7B H 0.3558(5) -0.1596(5) -0.3494(4)
H8B H 0.2614(5) -0.0269(5) -0.2486(4)
H9B H 0.2992(5) -0.2699(5) -0.0530(3)
H10B H 0.4029(5) -0.3987(5) -0.1529(4)
O5B O -0.0413(3) -0.0961(3) -0.1922(2)
C13B C -0.1025(5) -0.1736(5) -0.2492(3)
C14B C -0.0405(6) -0.2804(5) -0.2692(3)
C15B C -0.1090(5) -0.3618(5) -0.3223(4)
C16B C -0.2381(5) -0.3358(5) -0.3587(3)
C17B C -0.2960(6) -0.2246(5) -0.3430(3)
C18B C -0.2290(5) -0.1456(5) -0.2875(4)
O6B O -0.3087(3) -0.4190(3) -0.4088(2)
H11B H 0.0477(6) -0.2976(5) -0.2468(3)
H12B H -0.0681(5) -0.4348(5) -0.3339(4)
H13B H -0.3800(6) -0.2039(5) -0.3700(3)
H14B H -0.2695(5) -0.0724(5) -0.2757(4)
O6C O -0.1913(3) 0.0810(3) -0.0912(2)
Ti1C Ti 0.5091(1) -0.4843(1) -0.3909(1)
Ti1C_2 Ti -0.4909(1) -0.4843(1) -0.3909(1)
loop_
_geom_bond_atom_site_label_1
_geom_bond_atom_site_label_2
_geom_bond_site_symmetry_1
_geom_bond_site_symmetry_2
O1 C1 1_555 1_555
C1 C2 1_555 1_555
C2 C3 1_555 1_555
O2 C4 1_555 1_555
O3 C7 1_555 1_555
C3 C4 1_555 1_555
C4 C5 1_555 1_555
O4 C10 1_555 1_555
O5 C13 1_555 1_555
C5 C6 1_555 1_555
C6 C1 1_555 1_555
C7 C8 1_555 1_555
C8 C9 1_555 1_555
C9 C10 1_555 1_555
C10 C11 1_555 1_555
C11 C12 1_555 1_555
C12 C7 1_555 1_555
C13 C14 1_555 1_555
C14 C15 1_555 1_555
C15 C16 1_555 1_555
C16 C17 1_555 1_555
C17 C18 1_555 1_555
C18 C13 1_555 1_555
O6 C16 1_555 1_555
H1 C2 1_555 1_555
H2 O2 1_555 1_555
H3 C3 1_555 1_555
H4 O4 1_555 1_555
H5 C5 1_555 1_555
H6 C6 1_555 1_555
H7 C8 1_555 1_555
H8 C9 1_555 1_555
H9 C11 1_555 1_555
H10 C12 1_555 1_555
H11 C14 1_555 1_555
H12 C15 1_555 1_555
H13 C17 1_555 1_555
H14 C18 1_555 1_555
Ti1 O1 1_555 1_555
O1B Ti1 1_555 1_555
C1B O1B 1_555 1_555
C2B C1B 1_555 1_555
O2B C4B 1_555 1_555
C3B C2B 1_555 1_555
C4B C3B 1_555 1_555
C5B C4B 1_555 1_555
C6B C1B 1_555 1_555
H1B C2B 1_555 1_555
H2B O2B 1_555 1_555
H3B C3B 1_555 1_555
H5B C5B 1_555 1_555
H6B C6B 1_555 1_555
O3A Ti1 1_555 1_555
O6A Ti1 1_555 1_555
Ti1B O1 1_555 1_555
Ti1A O3 1_555 1_555
Ti1A_2 O6 1_555 1_555
O3C Ti1B 1_555 1_555
O3B C7B 1_555 1_555
O4B Ti1B 1_555 1_555
C7B C8B 1_555 1_555
C8B C9B 1_555 1_555
C9B C10B 1_555 1_555
C10B O4B 1_555 1_555
C11B C10B 1_555 1_555
C12B C7B 1_555 1_555
H4B O4B 1_555 1_555
H7B C8B 1_555 1_555
H8B C9B 1_555 1_555
H9B C11B 1_555 1_555
H10B C12B 1_555 1_555
O5B Ti1B 1_555 1_555
C13B O5B 1_555 1_555
C14B C13B 1_555 1_555
C15B C14B 1_555 1_555
C16B C15B 1_555 1_555
C17B C16B 1_555 1_555
C18B C13B 1_555 1_555
O6B C16B 1_555 1_555
H11B C14B 1_555 1_555
H12B C15B 1_555 1_555
H13B C17B 1_555 1_555
H14B C18B 1_555 1_555
O6C Ti1B 1_555 1_555
Ti1C O3B 1_555 1_555
Ti1C_2 O6B 1_555 1_555
O4 Ti1 1_555 1_555
O5 Ti1 1_555 1_555
O1B Ti1B 1_555 1_555
C5B C6B 1_555 1_555
C11B C12B 1_555 1_555
C17B C18B 1_555 1_555

#END
