
#######################################################################
#
#                 Cambridge Crystallographic Data Centre
#                                CCDC 
#
#######################################################################
#
# If this CIF has been generated from an entry in the Cambridge 
# Structural Database, then it will include bibliographic, chemical, 
# crystal, experimental, refinement or atomic coordinate data resulting 
# from the CCDC's data processing and validation procedures.
#
#######################################################################

data_NIVTIW
_symmetry_cell_setting           triclinic
_symmetry_space_group_name_H-M   'P -1'
_symmetry_Int_Tables_number      2
_space_group_name_Hall           '-P 1'
loop_
_symmetry_equiv_pos_site_id
_symmetry_equiv_pos_as_xyz
1 x,y,z
2 -x,-y,-z
_cell_length_a                   8.6735(6)
_cell_length_b                   9.4223(6)
_cell_length_c                   12.1291(8)
_cell_angle_alpha                77.492(3)
_cell_angle_beta                 73.345(3)
_cell_angle_gamma                82.557(3)
_cell_volume                     924.703
loop_
_atom_site_label
_atom_site_type_symbol
_atom_site_fract_x
_atom_site_fract_y
_atom_site_fract_z
Au1 Au 0.349375(6) 0.232860(6) 0.503119(5)
Ag1 Ag 0.819720(13) 0.007550(12) 0.522240(10)
S1 S 0.52162(4) 0.12398(4) 0.61638(3)
Cl1 Cl -0.04937(4) 0.27067(4) 0.57995(3)
Cl2 Cl -0.26367(4) 0.41684(4) 0.41360(4)
Cl3 Cl -0.10319(5) 0.56281(5) 0.15643(4)
Cl4 Cl 0.27120(5) 0.55834(5) 0.06566(4)
Cl5 Cl 0.48471(4) 0.40186(4) 0.22798(4)
F1 F 1.07445(17) -0.00309(15) 0.09514(11)
F2 F 0.91474(15) 0.18997(16) 0.10812(11)
F3 F 1.16981(15) 0.20393(15) 0.07444(10)
O1 O 0.89167(14) 0.08843(13) 0.33156(11)
O2 O 1.16363(14) 0.06117(13) 0.29238(11)
C1 C 0.20995(18) 0.33783(15) 0.39726(14)
C2 C 0.04162(18) 0.34782(15) 0.43572(14)
C3 C -0.05686(18) 0.41480(16) 0.36318(14)
C4 C 0.01464(19) 0.47901(17) 0.24799(15)
C5 C 0.18255(19) 0.47632(17) 0.20689(14)
C6 C 0.27636(18) 0.40525(16) 0.28173(14)
C7 C 0.5204(2) 0.25084(18) 0.71303(15)
H1 H 0.6260 0.2932 0.6917
H2 H 0.4353 0.3309 0.7078
C8 C 0.4861(2) 0.1580(2) 0.83595(16)
H3 H 0.5864 0.1040 0.8502
H4 H 0.4418 0.2204 0.8955
C9 C 0.3638(2) 0.0525(2) 0.84256(17)
H5 H 0.2580 0.1054 0.8409
H6 H 0.3499 -0.0212 0.9159
C10 C 0.42994(19) -0.02047(17) 0.73660(15)
H7 H 0.3422 -0.0603 0.7181
H8 H 0.5116 -0.1008 0.7512
C11 C 1.03210(19) 0.08890(16) 0.26709(14)
C12 C 1.0471(2) 0.1224(2) 0.13466(16)
Au1A Au 0.650625(6) -0.232860(6) 0.496881(5)
Ag1A Ag 0.180280(13) -0.007550(12) 0.477760(10)
Ag1A_2 Ag 1.180280(13) -0.007550(12) 0.477760(10)
O2A O 0.83637(14) -0.06117(13) 0.70762(11)
loop_
_geom_bond_atom_site_label_1
_geom_bond_atom_site_label_2
_geom_bond_site_symmetry_1
_geom_bond_site_symmetry_2
Au1 S1 1_555 1_555
Ag1 S1 1_555 1_555
S1 C7 1_555 1_555
Cl1 C2 1_555 1_555
Cl2 C3 1_555 1_555
Cl3 C4 1_555 1_555
Cl4 C5 1_555 1_555
Cl5 C6 1_555 1_555
F1 C12 1_555 1_555
F2 C12 1_555 1_555
F3 C12 1_555 1_555
O1 Ag1 1_555 1_555
O2 C11 1_555 1_555
C1 Au1 1_555 1_555
C2 C1 1_555 1_555
C3 C2 1_555 1_555
C4 C3 1_555 1_555
C5 C4 1_555 1_555
C6 C1 1_555 1_555
C7 H1 1_555 1_555
H2 C7 1_555 1_555
C8 C7 1_555 1_555
H3 C8 1_555 1_555
H4 C8 1_555 1_555
C9 C8 1_555 1_555
H5 C9 1_555 1_555
H6 C9 1_555 1_555
C10 S1 1_555 1_555
H7 C10 1_555 1_555
H8 C10 1_555 1_555
C11 O1 1_555 1_555
C12 C11 1_555 1_555
Au1A Ag1 1_555 1_555
Ag1A Au1 1_555 1_555
Ag1A_2 Ag1 1_555 1_555
O2A Ag1 1_555 1_555
O2 Ag1A_2 1_555 1_555
C5 C6 1_555 1_555
C9 C10 1_555 1_555

#END
