
#######################################################################
#
#                 Cambridge Crystallographic Data Centre
#                                CCDC 
#
#######################################################################
#
# If this CIF has been generated from an entry in the Cambridge 
# Structural Database, then it will include bibliographic, chemical, 
# crystal, experimental, refinement or atomic coordinate data resulting 
# from the CCDC's data processing and validation procedures.
#
#######################################################################

data_NIVWIY
_symmetry_cell_setting           orthorhombic
_symmetry_space_group_name_H-M   'C 2 m m'
_symmetry_Int_Tables_number      38
_space_group_name_Hall           'C -2 2'
loop_
_symmetry_equiv_pos_site_id
_symmetry_equiv_pos_as_xyz
1 x,y,z
2 x,y,-z
3 x,-y,-z
4 x,-y,z
5 1/2+x,1/2+y,z
6 1/2+x,1/2+y,-z
7 1/2+x,1/2-y,-z
8 1/2+x,1/2-y,z
_cell_length_a                   7.8941(9)
_cell_length_b                   15.127(2)
_cell_length_c                   4.7931(4)
_cell_angle_alpha                90
_cell_angle_beta                 90
_cell_angle_gamma                90
_cell_volume                     572.363
loop_
_atom_site_label
_atom_site_type_symbol
_atom_site_fract_x
_atom_site_fract_y
_atom_site_fract_z
O1 O 1.1721(5) 0.9255(5) -1.5
O2 O 0.8338(5) 0.9267(5) -1.5
O3 O 0.7463(6) 0.7542(6) -0.7644(5)
O4 O 0.9479(5) 0.8194(3) -1.0000
O5 O 1.0113(6) 0.6336(3) -0.5
C1 C 1.1034(6) 1.00000 -1.5
C2 C 0.9083(6) 1.00000 -1.5
C3 C 0.8078(5) 0.7751(4) -1.0000
Gd1 Gd 0.5000 0.70718(2) -0.5
O3A O 0.7463(6) 0.7542(6) -1.2356(5)
Gd1F Gd 1.0000 0.79282(2) -1.5
O3_2 O 0.7463(6) 0.7542(6) -1.7644(5)
Gd1_2 Gd 0.5000 0.70718(2) -1.5
O3G O 1.2463(6) 0.7458(6) -1.7644(5)
Gd1_3 Gd 1.5000 0.70718(2) -1.5
O3F O 1.2463(6) 0.7458(6) -1.2356(5)
C3F C 1.3078(5) 0.7249(4) -1.0000
Gd1F_2 Gd 1.0000 0.79282(2) -0.5
O1_2 O 1.1721(5) 0.9255(5) -0.5
O2_2 O 0.8338(5) 0.9267(5) -0.5
O3A_2 O 0.7463(6) 0.7542(6) -0.2356(5)
O3G_2 O 1.2463(6) 0.7458(6) -0.7644(5)
O3F_2 O 1.2463(6) 0.7458(6) -0.2356(5)
O4_2 O 0.9479(5) 0.8194(3) 0.0000
O4_3 O 0.9479(5) 0.8194(3) -2.0000
O5_2 O 1.0113(6) 0.6336(3) -1.5
O2B O 0.8338(5) 1.0733(5) -1.5
Gd1D Gd 1.0000 1.20718(2) -1.5
O1B O 1.1721(5) 1.0745(5) -1.5
Gd1_4 Gd 1.5000 0.70718(2) -0.5
O4F O 1.4479(5) 0.6806(3) -1.0000
loop_
_geom_bond_atom_site_label_1
_geom_bond_atom_site_label_2
_geom_bond_site_symmetry_1
_geom_bond_site_symmetry_2
O1 C1 1_555 1_555
O2 C2 1_555 1_555
O3 C3 1_555 1_555
O4 C3 1_555 1_555
O5 Gd1F_2 1_555 1_555
C1 C2 1_555 1_555
C2 O2B 1_555 1_555
C3 O3A 1_555 1_555
Gd1 O3 1_555 1_555
O3A Gd1F 1_555 1_555
Gd1F O1 1_555 1_555
O3_2 Gd1F 1_555 1_555
Gd1_2 O3A 1_555 1_555
O3G Gd1F 1_555 1_555
Gd1_3 O3G 1_555 1_555
O3F Gd1F 1_555 1_555
C3F O3F 1_555 1_555
Gd1F_2 O3 1_555 1_555
O1_2 Gd1F_2 1_555 1_555
O2_2 Gd1F_2 1_555 1_555
O3A_2 Gd1 1_555 1_555
O3G_2 C3F 1_555 1_555
O3F_2 Gd1F_2 1_555 1_555
O4_2 Gd1F_2 1_555 1_555
O4_3 Gd1F 1_555 1_555
O5_2 Gd1F 1_555 1_555
O2B Gd1D 1_555 1_555
Gd1D O1B 1_555 1_555
O1B C1 1_555 1_555
Gd1_4 O3G_2 1_555 1_555
O4F Gd1_3 1_555 1_555
O2 Gd1F 1_555 1_555
O4 Gd1F 1_555 1_555
O4 Gd1F_2 1_555 1_555
O3_2 Gd1_2 1_555 1_555
Gd1_3 O3F 1_555 1_555
C3F O4F 1_555 1_555
Gd1F_2 O3A_2 1_555 1_555
Gd1F_2 O3G_2 1_555 1_555
O3F_2 Gd1_4 1_555 1_555
Gd1_4 O4F 1_555 1_555

#END
