
#######################################################################
#
#                 Cambridge Crystallographic Data Centre
#                                CCDC 
#
#######################################################################
#
# If this CIF has been generated from an entry in the Cambridge 
# Structural Database, then it will include bibliographic, chemical, 
# crystal, experimental, refinement or atomic coordinate data resulting 
# from the CCDC's data processing and validation procedures.
#
#######################################################################

data_NIWJIN
_symmetry_cell_setting           monoclinic
_symmetry_space_group_name_H-M   'P 21/c'
_symmetry_Int_Tables_number      14
_space_group_name_Hall           '-P 2ybc'
loop_
_symmetry_equiv_pos_site_id
_symmetry_equiv_pos_as_xyz
1 x,y,z
2 -x,1/2+y,1/2-z
3 -x,-y,-z
4 x,1/2-y,1/2+z
_cell_length_a                   11.0418(13)
_cell_length_b                   11.1924(14)
_cell_length_c                   16.8687(17)
_cell_angle_alpha                90
_cell_angle_beta                 115.249(7)
_cell_angle_gamma                90
_cell_volume                     1885.54
loop_
_atom_site_label
_atom_site_type_symbol
_atom_site_fract_x
_atom_site_fract_y
_atom_site_fract_z
Zn1 Zn 0.21026(3) 1.06213(2) 0.850451(16)
O1 O 0.1788(2) 0.88899(17) 0.71665(12)
O2 O 0.2385(2) 1.07900(15) 0.74443(11)
O3 O 0.2086(3) 1.3428(2) 0.50730(17)
O4 O 0.22045(18) 1.27148(16) 0.38941(11)
N1 N 0.0122(2) 1.02485(18) 0.81573(13)
N2 N -0.6793(2) 0.57042(18) 0.43261(13)
C1 C 0.1641(2) 1.0385(2) 0.43263(15)
H1 H 0.1559 1.0490 0.3759
C2 C 0.1551(2) 0.9102(2) 0.54416(16)
H2 H 0.1387 0.8354 0.5616
C3 C -0.0341(3) 0.9129(2) 0.81017(17)
H3 H 0.0255 0.8498 0.8201
C4 C -0.4016(3) 0.9562(3) 0.7578(2)
H4 H -0.4054 0.9442 0.8137
H5 H -0.4533 1.0272 0.7313
C5 C -0.1657(3) 0.8869(2) 0.79050(16)
H6 H -0.1931 0.8078 0.7875
C6 C -0.2578(2) 0.9791(2) 0.77504(15)
C7 C 0.1420(3) 0.9271(2) 0.45968(17)
H7 H 0.1182 0.8632 0.4207
C8 C 0.2136(2) 1.1160(2) 0.57552(14)
H8 H 0.2380 1.1798 0.6146
C9 C 0.1985(2) 1.1341(2) 0.49008(14)
C10 C 0.2109(3) 1.2590(2) 0.46194(16)
C11 C 0.2035(2) 0.9872(2) 0.69431(14)
C12 C -0.5521(2) 0.7617(2) 0.54535(15)
C13 C 0.1929(2) 1.0050(2) 0.60318(14)
C14 C -0.6157(5) 0.6730(3) 0.5680(2)
H9 H -0.6171 0.6748 0.6227
C15 C -0.6780(5) 0.5802(3) 0.5112(2)
H10 H -0.7210 0.5218 0.5290
C16 C -0.6178(3) 0.6568(3) 0.41049(19)
H11 H -0.6171 0.6531 0.3556
C17 C -0.5549(3) 0.7519(3) 0.46411(18)
H12 H -0.5138 0.8100 0.4446
C18 C -0.0769(3) 1.1138(2) 0.79964(17)
H13 H -0.0472 1.1921 0.8027
C19 C -0.4686(3) 0.8497(2) 0.69901(16)
H14 H -0.4147 0.7790 0.7231
H15 H -0.5554 0.8365 0.6990
C20 C -0.4873(2) 0.8665(2) 0.60512(16)
H16 H -0.4004 0.8810 0.6055
H17 H -0.5418 0.9370 0.5811
C21 C -0.2100(3) 1.0941(2) 0.77886(18)
H18 H -0.2682 1.1586 0.7673
Zn1C Zn 0.21026(3) 1.43787(2) 0.350451(16)
Zn1C_2 Zn -0.78974(3) 0.43787(2) 0.350451(16)
O4C O 0.22045(18) 1.22852(16) 0.88941(11)
N2C N 0.3207(2) 0.92958(18) 0.93261(13)
loop_
_geom_bond_atom_site_label_1
_geom_bond_atom_site_label_2
_geom_bond_site_symmetry_1
_geom_bond_site_symmetry_2
Zn1 O2 1_555 1_555
O1 C11 1_555 1_555
O2 C11 1_555 1_555
O3 C10 1_555 1_555
O4 C10 1_555 1_555
N1 Zn1 1_555 1_555
N2 C15 1_555 1_555
C1 H1 1_555 1_555
C2 H2 1_555 1_555
C3 N1 1_555 1_555
H3 C3 1_555 1_555
C4 H4 1_555 1_555
H5 C4 1_555 1_555
C5 C3 1_555 1_555
H6 C5 1_555 1_555
C6 C4 1_555 1_555
C7 C1 1_555 1_555
H7 C7 1_555 1_555
C8 H8 1_555 1_555
C9 C1 1_555 1_555
C10 C9 1_555 1_555
C11 C13 1_555 1_555
C12 C14 1_555 1_555
C13 C2 1_555 1_555
C14 H9 1_555 1_555
C15 C14 1_555 1_555
H10 C15 1_555 1_555
C16 N2 1_555 1_555
H11 C16 1_555 1_555
C17 C12 1_555 1_555
H12 C17 1_555 1_555
C18 N1 1_555 1_555
H13 C18 1_555 1_555
C19 C4 1_555 1_555
H14 C19 1_555 1_555
H15 C19 1_555 1_555
C20 C12 1_555 1_555
H16 C20 1_555 1_555
H17 C20 1_555 1_555
C21 C6 1_555 1_555
H18 C21 1_555 1_555
Zn1C O4 1_555 1_555
Zn1C_2 N2 1_555 1_555
O4C Zn1 1_555 1_555
N2C Zn1 1_555 1_555
C2 C7 1_555 1_555
C5 C6 1_555 1_555
C8 C9 1_555 1_555
C8 C13 1_555 1_555
C16 C17 1_555 1_555
C18 C21 1_555 1_555
C19 C20 1_555 1_555

#END
