
#######################################################################
#
#                 Cambridge Crystallographic Data Centre
#                                CCDC 
#
#######################################################################
#
# If this CIF has been generated from an entry in the Cambridge 
# Structural Database, then it will include bibliographic, chemical, 
# crystal, experimental, refinement or atomic coordinate data resulting 
# from the CCDC's data processing and validation procedures.
#
#######################################################################

data_NIWKEK
_symmetry_cell_setting           monoclinic
_symmetry_space_group_name_H-M   'P 21/n'
_symmetry_Int_Tables_number      14
_space_group_name_Hall           '-P 2yn'
loop_
_symmetry_equiv_pos_site_id
_symmetry_equiv_pos_as_xyz
1 x,y,z
2 1/2-x,1/2+y,1/2-z
3 -x,-y,-z
4 1/2+x,1/2-y,1/2+z
_cell_length_a                   12.9990(13)
_cell_length_b                   5.4039(5)
_cell_length_c                   20.195(2)
_cell_angle_alpha                90
_cell_angle_beta                 101.459(4)
_cell_angle_gamma                90
_cell_volume                     1390.33
loop_
_atom_site_label
_atom_site_type_symbol
_atom_site_fract_x
_atom_site_fract_y
_atom_site_fract_z
Zn1 Zn 1.45602(2) 1.18961(6) 0.680619(15)
S1 S 1.23784(6) 0.24683(15) 0.42060(4)
Cl1 Cl 1.34567(6) 1.43843(14) 0.71674(4)
Cl2 Cl 1.59540(6) 1.29522(15) 0.63700(4)
N1 N 1.37010(17) 0.9563(4) 0.60991(10)
N2 N 1.10437(18) 0.3373(5) 0.49394(11)
N3 N 1.06015(18) 0.1586(5) 0.45020(12)
N4 N 1.01683(17) -0.4543(4) 0.25889(10)
C1 C 1.2665(2) 0.9276(5) 0.60620(14)
H1 H 1.2329 1.0288 0.6325
C2 C 1.2081(2) 0.7546(6) 0.56503(14)
H2 H 1.1362 0.7423 0.5630
C3 C 1.2576(2) 0.5981(5) 0.52646(12)
C4 C 1.3644(2) 0.6283(6) 0.53025(14)
H3 H 1.4002 0.5273 0.5052
C5 C 1.4169(2) 0.8089(6) 0.57142(14)
H4 H 1.4883 0.8300 0.5727
C6 C 1.1964(2) 0.4066(5) 0.48470(12)
C7 C 1.1201(2) 0.0891(5) 0.40919(13)
C8 C 1.0874(2) -0.1003(5) 0.35760(13)
C9 C 1.0054(2) -0.2613(5) 0.36310(14)
H5 H 0.9736 -0.2536 0.4004
C10 C 0.9723(2) -0.4310(5) 0.31285(13)
H6 H 0.9165 -0.5344 0.3165
C11 C 1.0960(2) -0.3019(5) 0.25406(14)
H7 H 1.1278 -0.3178 0.2169
C12 C 1.1329(2) -0.1232(6) 0.30118(14)
H8 H 1.1875 -0.0193 0.2954
Zn1C Zn 0.95602(2) -0.68961(6) 0.180619(15)
N4C N 1.51683(17) 0.9543(4) 0.75889(10)
loop_
_geom_bond_atom_site_label_1
_geom_bond_atom_site_label_2
_geom_bond_site_symmetry_1
_geom_bond_site_symmetry_2
Zn1 Cl1 1_555 1_555
S1 C6 1_555 1_555
Cl2 Zn1 1_555 1_555
N1 Zn1 1_555 1_555
N2 N3 1_555 1_555
N3 C7 1_555 1_555
N4 C10 1_555 1_555
C1 N1 1_555 1_555
H1 C1 1_555 1_555
C2 C1 1_555 1_555
H2 C2 1_555 1_555
C3 C2 1_555 1_555
C4 C3 1_555 1_555
H3 C4 1_555 1_555
C5 N1 1_555 1_555
H4 C5 1_555 1_555
C6 N2 1_555 1_555
C7 S1 1_555 1_555
C8 C7 1_555 1_555
C9 C8 1_555 1_555
H5 C9 1_555 1_555
C10 C9 1_555 1_555
H6 C10 1_555 1_555
C11 N4 1_555 1_555
H7 C11 1_555 1_555
C12 C8 1_555 1_555
H8 C12 1_555 1_555
Zn1C N4 1_555 1_555
N4C Zn1 1_555 1_555
C3 C6 1_555 1_555
C4 C5 1_555 1_555
C11 C12 1_555 1_555

#END
