
#######################################################################
#
#                 Cambridge Crystallographic Data Centre
#                                CCDC 
#
#######################################################################
#
# If this CIF has been generated from an entry in the Cambridge 
# Structural Database, then it will include bibliographic, chemical, 
# crystal, experimental, refinement or atomic coordinate data resulting 
# from the CCDC's data processing and validation procedures.
#
#######################################################################

data_NIWKAG
_symmetry_cell_setting           triclinic
_symmetry_space_group_name_H-M   'P -1'
_symmetry_Int_Tables_number      2
_space_group_name_Hall           '-P 1'
loop_
_symmetry_equiv_pos_site_id
_symmetry_equiv_pos_as_xyz
1 x,y,z
2 -x,-y,-z
_cell_length_a                   10.9860(12)
_cell_length_b                   16.1541(18)
_cell_length_c                   20.336(2)
_cell_angle_alpha                82.821(2)
_cell_angle_beta                 89.030(2)
_cell_angle_gamma                74.237(2)
_cell_volume                     3445.51
loop_
_atom_site_label
_atom_site_type_symbol
_atom_site_fract_x
_atom_site_fract_y
_atom_site_fract_z
B1 B 0.9148(14) 0.0567(12) 0.2166(8)
F1 F 0.9614(9) -0.0327(6) 0.2453(5)
F2 F 1.0190(10) 0.0665(7) 0.1914(5)
F3 F 0.8700(9) 0.1076(7) 0.2601(5)
F4 F 0.8255(10) 0.0519(7) 0.1752(5)
B2 B 0.4736(11) 0.4350(9) 0.2520(6)
F5 F 0.5923(7) 0.4249(6) 0.2422(4)
F6 F 0.4082(9) 0.5169(6) 0.2445(5)
F7 F 0.4209(9) 0.4062(6) 0.2021(4)
F8 F 0.4520(7) 0.3947(5) 0.3116(3)
C61 C 0.8862(11) 0.9237(16) 0.6448(6)
H53 H 0.9490 0.8679 0.6511
H54 H 0.8997 0.9561 0.6798
Cl1 Cl 0.9139(14) 0.9790(8) 0.5688(5)
Cl2 Cl 0.7380(10) 0.9060(8) 0.6547(9)
C63 C 0.2991(13) 0.7668(9) 0.6418(7)
H57 H 0.2551 0.8206 0.6583
H58 H 0.3513 0.7293 0.6776
Cl5 Cl 0.3935(6) 0.7879(4) 0.5765(3)
Cl6 Cl 0.1885(5) 0.7164(4) 0.6152(2)
C64 C 0.4294(14) 0.8051(9) 0.8138(7)
H59 H 0.4437 0.7503 0.7961
H60 H 0.3401 0.8352 0.8086
Cl7 Cl 0.5165(7) 0.8663(4) 0.7710(3)
Cl8 Cl 0.4723(6) 0.7864(3) 0.8974(2)
Cu1 Cu 0.78585(7) 0.65849(5) 0.13999(4)
Cu2 Cu 0.78806(7) 0.65568(5) 0.32279(4)
P1 P 0.98370(15) 0.57875(11) 0.16926(8)
P2 P 0.99714(16) 0.59589(11) 0.32001(8)
P3 P 0.72735(15) 0.80272(10) 0.13569(8)
P4 P 0.67290(16) 0.78988(11) 0.28283(8)
N1 N 0.6855(5) 0.6018(4) 0.0866(3)
N2 N 0.6907(5) 0.5954(4) 0.3888(3)
C1 C 1.0679(6) 0.6038(4) 0.2380(3)
H1 H 1.1528 0.5650 0.2409
H2 H 1.0757 0.6623 0.2271
C2 C 0.7395(6) 0.8469(4) 0.2137(3)
H3 H 0.8277 0.8415 0.2235
H4 H 0.6947 0.9081 0.2087
C3 C 0.6815(7) 0.6091(5) 0.0209(4)
H5 H 0.7289 0.6421 -0.0028
C4 C 0.6106(7) 0.5704(5) -0.0141(4)
H6 H 0.6118 0.5775 -0.0602
C5 C 0.5390(6) 0.5220(4) 0.0178(3)
C6 C 0.5439(9) 0.5137(7) 0.0860(4)
H7 H 0.4981 0.4804 0.1106
C7 C 0.6158(9) 0.5541(6) 0.1177(4)
H8 H 0.6158 0.5479 0.1638
C8 C 0.6417(9) 0.5347(6) 0.3733(4)
H9 H 0.6570 0.5173 0.3313
C9 C 0.5684(9) 0.4951(6) 0.4156(4)
H10 H 0.5372 0.4519 0.4019
C10 C 0.5414(6) 0.5194(5) 0.4778(3)
C11 C 0.5956(8) 0.5812(6) 0.4941(4)
H11 H 0.5836 0.5987 0.5361
C12 C 0.6671(7) 0.6179(6) 0.4498(4)
H12 H 0.7008 0.6604 0.4627
C13 C 1.0142(7) 0.4618(4) 0.1806(3)
C14 C 0.9186(8) 0.4251(5) 0.2047(4)
H13 H 0.8407 0.4606 0.2153
C15 C 0.9390(12) 0.3367(7) 0.2129(5)
H14 H 0.8738 0.3131 0.2282
C16 C 1.0505(14) 0.2838(6) 0.1992(5)
H15 H 1.0623 0.2241 0.2056
C17 C 1.1473(11) 0.3168(6) 0.1760(5)
H16 H 1.2249 0.2797 0.1669
C18 C 1.1293(8) 0.4070(5) 0.1658(4)
H17 H 1.1943 0.4299 0.1491
C19 C 1.0747(6) 0.6024(4) 0.0971(3)
C20 C 1.1738(7) 0.6396(5) 0.0979(4)
H18 H 1.2033 0.6488 0.1382
C21 C 1.2309(9) 0.6638(5) 0.0393(4)
H19 H 1.2968 0.6896 0.0407
C22 C 1.1886(9) 0.6493(5) -0.0210(4)
H20 H 1.2259 0.6651 -0.0602
C23 C 1.0928(9) 0.6119(6) -0.0220(4)
H21 H 1.0648 0.6016 -0.0624
C24 C 1.0350(7) 0.5885(5) 0.0361(3)
H22 H 0.9688 0.5632 0.0340
C25 C 1.0569(7) 0.4842(4) 0.3587(3)
C26 C 0.9971(8) 0.4582(6) 0.4146(4)
H23 H 0.9282 0.4977 0.4305
C27 C 1.0364(10) 0.3756(6) 0.4474(4)
H24 H 0.9945 0.3594 0.4849
C28 C 1.1388(11) 0.3170(6) 0.4240(5)
H25 H 1.1665 0.2610 0.4460
C29 C 1.1986(10) 0.3405(6) 0.3695(5)
H26 H 1.2669 0.3005 0.3538
C30 C 1.1588(8) 0.4248(5) 0.3364(4)
H27 H 1.2015 0.4406 0.2991
C31 C 1.0784(7) 0.6594(4) 0.3634(3)
C32 C 1.0151(10) 0.7392(6) 0.3748(6)
H28 H 0.9295 0.7595 0.3636
C33 C 1.0740(12) 0.7925(7) 0.4027(7)
H29 H 1.0285 0.8486 0.4087
C34 C 1.1969(11) 0.7635(7) 0.4213(5)
H30 H 1.2365 0.7982 0.4413
C35 C 1.2608(11) 0.6829(8) 0.4102(7)
H31 H 1.3458 0.6619 0.4225
C36 C 1.2027(9) 0.6315(6) 0.3812(6)
H32 H 1.2493 0.5763 0.3736
C37 C 0.5734(6) 0.8662(4) 0.1014(3)
C38 C 0.4900(7) 0.8261(5) 0.0793(4)
H33 H 0.5128 0.7659 0.0819
C39 C 0.3730(8) 0.8729(6) 0.0533(5)
H34 H 0.3181 0.8444 0.0382
C40 C 0.3380(8) 0.9606(6) 0.0498(5)
H35 H 0.2591 0.9922 0.0323
C41 C 0.4191(8) 1.0023(5) 0.0721(4)
H36 H 0.3946 1.0624 0.0702
C42 C 0.5378(7) 0.9556(5) 0.0976(4)
H37 H 0.5931 0.9844 0.1121
C43 C 0.8411(6) 0.8383(4) 0.0809(3)
C44 C 0.9262(7) 0.8800(5) 0.1004(4)
H38 H 0.9246 0.8949 0.1431
C45 C 1.0150(8) 0.8998(6) 0.0553(5)
H39 H 1.0732 0.9269 0.0688
C46 C 1.0176(8) 0.8800(6) -0.0076(5)
H40 H 1.0762 0.8945 -0.0372
C47 C 0.9345(9) 0.8392(5) -0.0273(4)
H41 H 0.9370 0.8250 -0.0703
C48 C 0.8463(7) 0.8185(5) 0.0161(4)
H42 H 0.7894 0.7909 0.0017
C49 C 0.5100(6) 0.8011(5) 0.2594(3)
C50 C 0.4726(8) 0.7277(5) 0.2510(4)
H43 H 0.5312 0.6736 0.2573
C51 C 0.3485(9) 0.7345(7) 0.2334(5)
H44 H 0.3243 0.6846 0.2288
C52 C 0.2625(9) 0.8124(8) 0.2227(5)
H45 H 0.1804 0.8161 0.2096
C53 C 0.2958(8) 0.8862(7) 0.2313(5)
H46 H 0.2357 0.9397 0.2249
C54 C 0.4209(7) 0.8813(5) 0.2496(4)
H47 H 0.4436 0.9314 0.2552
C55 C 0.6621(7) 0.8577(5) 0.3482(3)
C56 C 0.5872(9) 0.8459(6) 0.4022(4)
H48 H 0.5355 0.8089 0.4023
C57 C 0.5906(13) 0.8909(9) 0.4570(5)
H49 H 0.5426 0.8820 0.4940
C58 C 0.6634(15) 0.9473(9) 0.4567(6)
H50 H 0.6628 0.9774 0.4929
C59 C 0.7358(11) 0.9597(8) 0.4046(6)
H51 H 0.7848 0.9985 0.4045
C60 C 0.7373(8) 0.9144(6) 0.3511(4)
H52 H 0.7900 0.9220 0.3159
Cu1A Cu 0.21415(7) 0.34151(5) -0.13999(4)
Cu2A Cu 0.21194(7) 0.34432(5) -0.32279(4)
Cu2A_2 Cu 0.21194(7) 0.34432(5) 0.67721(4)
P1A P 0.01630(15) 0.42125(11) -0.16926(8)
P2A P 0.00286(16) 0.40411(11) -0.32001(8)
P3A P 0.27265(15) 0.19728(10) -0.13569(8)
P4A P 0.32710(16) 0.21012(11) -0.28283(8)
N1A N 0.3145(5) 0.3982(4) -0.0866(3)
N2A N 0.3093(5) 0.4046(4) 0.6112(3)
N2A_2 N 0.3093(5) 0.4046(4) -0.3888(3)
C1A C -0.0679(6) 0.3962(4) -0.2380(3)
H1A H -0.1528 0.4350 -0.2409
H2A H -0.0757 0.3377 -0.2271
C2A C 0.2605(6) 0.1531(4) -0.2137(3)
H3A H 0.1723 0.1585 -0.2235
H4A H 0.3053 0.0919 -0.2087
C3A C 0.3185(7) 0.3909(5) -0.0209(4)
H5A H 0.2711 0.3579 0.0028
C4A C 0.3894(7) 0.4296(5) 0.0141(4)
H6A H 0.3882 0.4225 0.0602
C5A C 0.4610(6) 0.4780(4) -0.0178(3)
C6A C 0.4561(9) 0.4863(7) -0.0860(4)
H7A H 0.5019 0.5196 -0.1106
C7A C 0.3842(9) 0.4459(6) -0.1177(4)
H8A H 0.3842 0.4521 -0.1638
C8A C 0.3583(9) 0.4653(6) 0.6267(4)
H9A H 0.3430 0.4827 0.6687
C9A C 0.4316(9) 0.5049(6) 0.5844(4)
H10A H 0.4628 0.5481 0.5981
C10A C 0.4586(6) 0.4806(5) 0.5222(3)
C11A C 0.4044(8) 0.4188(6) 0.5059(4)
H11A H 0.4164 0.4013 0.4639
C12A C 0.3329(7) 0.3821(6) 0.5502(4)
H12A H 0.2992 0.3396 0.5373
C13A C -0.0142(7) 0.5382(4) -0.1806(3)
C14A C 0.0814(8) 0.5749(5) -0.2047(4)
H13A H 0.1593 0.5394 -0.2153
C15A C 0.0610(12) 0.6633(7) -0.2129(5)
H14A H 0.1262 0.6869 -0.2282
C16A C -0.0505(14) 0.7162(6) -0.1992(5)
H15A H -0.0623 0.7759 -0.2056
C17A C -0.1473(11) 0.6832(6) -0.1760(5)
H16A H -0.2249 0.7203 -0.1669
C18A C -0.1293(8) 0.5930(5) -0.1658(4)
H17A H -0.1943 0.5701 -0.1491
C19A C -0.0747(6) 0.3976(4) -0.0971(3)
C20A C -0.1738(7) 0.3604(5) -0.0979(4)
H18A H -0.2033 0.3512 -0.1382
C21A C -0.2309(9) 0.3362(5) -0.0393(4)
H19A H -0.2968 0.3104 -0.0407
C22A C -0.1886(9) 0.3507(5) 0.0210(4)
H20A H -0.2259 0.3349 0.0602
C23A C -0.0928(9) 0.3881(6) 0.0220(4)
H21A H -0.0648 0.3984 0.0624
C24A C -0.0350(7) 0.4115(5) -0.0361(3)
H22A H 0.0312 0.4368 -0.0340
C25A C -0.0569(7) 0.5158(4) -0.3587(3)
C26A C 0.0029(8) 0.5418(6) -0.4146(4)
H23A H 0.0718 0.5023 -0.4305
C27A C -0.0364(10) 0.6244(6) -0.4474(4)
H24A H 0.0055 0.6406 -0.4849
C28A C -0.1388(11) 0.6830(6) -0.4240(5)
H25A H -0.1665 0.7390 -0.4460
C29A C -0.1986(10) 0.6595(6) -0.3695(5)
H26A H -0.2669 0.6995 -0.3538
C30A C -0.1588(8) 0.5752(5) -0.3364(4)
H27A H -0.2015 0.5594 -0.2991
C31A C -0.0784(7) 0.3406(4) -0.3634(3)
C32A C -0.0151(10) 0.2608(6) -0.3748(6)
H28A H 0.0705 0.2405 -0.3636
C33A C -0.0740(12) 0.2075(7) -0.4027(7)
H29A H -0.0285 0.1514 -0.4087
C34A C -0.1969(11) 0.2365(7) -0.4213(5)
H30A H -0.2365 0.2018 -0.4413
C35A C -0.2608(11) 0.3171(8) -0.4102(7)
H31A H -0.3458 0.3381 -0.4225
C36A C -0.2027(9) 0.3685(6) -0.3812(6)
H32A H -0.2493 0.4237 -0.3736
C37A C 0.4266(6) 0.1338(4) -0.1014(3)
C38A C 0.5100(7) 0.1739(5) -0.0793(4)
H33A H 0.4872 0.2341 -0.0819
C39A C 0.6270(8) 0.1271(6) -0.0533(5)
H34A H 0.6819 0.1556 -0.0382
C40A C 0.6620(8) 0.0394(6) -0.0498(5)
H35A H 0.7409 0.0078 -0.0323
C41A C 0.5809(8) -0.0023(5) -0.0721(4)
H36A H 0.6054 -0.0624 -0.0702
C42A C 0.4622(7) 0.0444(5) -0.0976(4)
H37A H 0.4069 0.0156 -0.1121
C43A C 0.1589(6) 0.1617(4) -0.0809(3)
C44A C 0.0738(7) 0.1200(5) -0.1004(4)
H38A H 0.0754 0.1051 -0.1431
C45A C -0.0150(8) 0.1002(6) -0.0553(5)
H39A H -0.0732 0.0731 -0.0688
C46A C -0.0176(8) 0.1200(6) 0.0076(5)
H40A H -0.0762 0.1055 0.0372
C47A C 0.0655(9) 0.1608(5) 0.0273(4)
H41A H 0.0630 0.1750 0.0703
C48A C 0.1537(7) 0.1815(5) -0.0161(4)
H42A H 0.2106 0.2091 -0.0017
C49A C 0.4900(6) 0.1989(5) -0.2594(3)
C50A C 0.5274(8) 0.2723(5) -0.2510(4)
H43A H 0.4688 0.3264 -0.2573
C51A C 0.6515(9) 0.2655(7) -0.2334(5)
H44A H 0.6757 0.3154 -0.2288
C52A C 0.7375(9) 0.1876(8) -0.2227(5)
H45A H 0.8196 0.1839 -0.2096
C53A C 0.7042(8) 0.1138(7) -0.2313(5)
H46A H 0.7643 0.0603 -0.2249
C54A C 0.5791(7) 0.1187(5) -0.2496(4)
H47A H 0.5564 0.0686 -0.2552
C55A C 0.3379(7) 0.1423(5) -0.3482(3)
C56A C 0.4128(9) 0.1541(6) -0.4022(4)
H48A H 0.4645 0.1911 -0.4023
C57A C 0.4094(13) 0.1091(9) -0.4570(5)
H49A H 0.4574 0.1180 -0.4940
C58A C 0.3366(15) 0.0527(9) -0.4567(6)
H50A H 0.3372 0.0226 -0.4929
C59A C 0.2642(11) 0.0403(8) -0.4046(6)
H51A H 0.2152 0.0015 -0.4045
C60A C 0.2627(8) 0.0856(6) -0.3511(4)
H52A H 0.2100 0.0780 -0.3159
C62? C 0.8862(11) 0.9237(16) 0.6448(6)
H55? H 0.9049 0.9650 0.6711
H56? H 0.9262 0.8660 0.6667
Cl3? Cl 0.9515(13) 0.9359(9) 0.5672(5)
Cl4? Cl 0.7237(10) 0.9386(11) 0.6427(8)
loop_
_geom_bond_atom_site_label_1
_geom_bond_atom_site_label_2
_geom_bond_site_symmetry_1
_geom_bond_site_symmetry_2
Cu1 P1 1_555 1_555
Cu2 P2 1_555 1_555
P1 C1 1_555 1_555
P2 C1 1_555 1_555
P3 Cu1 1_555 1_555
P4 Cu2 1_555 1_555
N1 Cu1 1_555 1_555
N2 Cu2 1_555 1_555
C1 H1 1_555 1_555
H2 C1 1_555 1_555
C2 P3 1_555 1_555
H3 C2 1_555 1_555
H4 C2 1_555 1_555
C3 N1 1_555 1_555
H5 C3 1_555 1_555
C4 C3 1_555 1_555
H6 C4 1_555 1_555
C5 C4 1_555 1_555
C6 C5 1_555 1_555
H7 C6 1_555 1_555
C7 N1 1_555 1_555
H8 C7 1_555 1_555
C8 N2 1_555 1_555
H9 C8 1_555 1_555
C9 C8 1_555 1_555
H10 C9 1_555 1_555
C10 C9 1_555 1_555
C11 C10 1_555 1_555
H11 C11 1_555 1_555
C12 N2 1_555 1_555
H12 C12 1_555 1_555
C13 P1 1_555 1_555
C14 C13 1_555 1_555
H13 C14 1_555 1_555
C15 C14 1_555 1_555
H14 C15 1_555 1_555
C16 C15 1_555 1_555
H15 C16 1_555 1_555
C17 C16 1_555 1_555
H16 C17 1_555 1_555
C18 C13 1_555 1_555
H17 C18 1_555 1_555
C19 P1 1_555 1_555
C20 C19 1_555 1_555
H18 C20 1_555 1_555
C21 C20 1_555 1_555
H19 C21 1_555 1_555
C22 C21 1_555 1_555
H20 C22 1_555 1_555
C23 C22 1_555 1_555
H21 C23 1_555 1_555
C24 C19 1_555 1_555
H22 C24 1_555 1_555
C25 P2 1_555 1_555
C26 C25 1_555 1_555
H23 C26 1_555 1_555
C27 C26 1_555 1_555
H24 C27 1_555 1_555
C28 C27 1_555 1_555
H25 C28 1_555 1_555
C29 C28 1_555 1_555
H26 C29 1_555 1_555
C30 C25 1_555 1_555
H27 C30 1_555 1_555
C31 P2 1_555 1_555
C32 C31 1_555 1_555
H28 C32 1_555 1_555
C33 C32 1_555 1_555
H29 C33 1_555 1_555
C34 C33 1_555 1_555
H30 C34 1_555 1_555
C35 C34 1_555 1_555
H31 C35 1_555 1_555
C36 C31 1_555 1_555
H32 C36 1_555 1_555
C37 P3 1_555 1_555
C38 C37 1_555 1_555
H33 C38 1_555 1_555
C39 C38 1_555 1_555
H34 C39 1_555 1_555
C40 C39 1_555 1_555
H35 C40 1_555 1_555
C41 C40 1_555 1_555
H36 C41 1_555 1_555
C42 C37 1_555 1_555
H37 C42 1_555 1_555
C43 P3 1_555 1_555
C44 C43 1_555 1_555
H38 C44 1_555 1_555
C45 C44 1_555 1_555
H39 C45 1_555 1_555
C46 C45 1_555 1_555
H40 C46 1_555 1_555
C47 C46 1_555 1_555
H41 C47 1_555 1_555
C48 C43 1_555 1_555
H42 C48 1_555 1_555
C49 P4 1_555 1_555
C50 C49 1_555 1_555
H43 C50 1_555 1_555
C51 C50 1_555 1_555
H44 C51 1_555 1_555
C52 C51 1_555 1_555
H45 C52 1_555 1_555
C53 C52 1_555 1_555
H46 C53 1_555 1_555
C54 C49 1_555 1_555
H47 C54 1_555 1_555
C55 P4 1_555 1_555
C56 C55 1_555 1_555
H48 C56 1_555 1_555
C57 C56 1_555 1_555
H49 C57 1_555 1_555
C58 C57 1_555 1_555
H50 C58 1_555 1_555
C59 C58 1_555 1_555
H51 C59 1_555 1_555
C60 C55 1_555 1_555
H52 C60 1_555 1_555
B1 F1 1_555 1_555
B2 F5 1_555 1_555
F2 B1 1_555 1_555
F3 B1 1_555 1_555
F4 B1 1_555 1_555
F6 B2 1_555 1_555
F7 B2 1_555 1_555
F8 B2 1_555 1_555
C61 H53 1_555 1_555
H54 C61 1_555 1_555
Cl1 C61 1_555 1_555
Cl2 C61 1_555 1_555
C63 H57 1_555 1_555
H58 C63 1_555 1_555
Cl5 C63 1_555 1_555
Cl6 C63 1_555 1_555
C64 H59 1_555 1_555
H60 C64 1_555 1_555
Cl7 C64 1_555 1_555
Cl8 C64 1_555 1_555
Cu1A P1A 1_555 1_555
Cu2A P2A 1_555 1_555
Cu2A_2 N2A 1_555 1_555
P1A C1A 1_555 1_555
P2A C1A 1_555 1_555
P3A Cu1A 1_555 1_555
P4A Cu2A 1_555 1_555
N1A Cu1A 1_555 1_555
N2A C8A 1_555 1_555
N2A_2 Cu2A 1_555 1_555
C1A H1A 1_555 1_555
H2A C1A 1_555 1_555
C2A P3A 1_555 1_555
H3A C2A 1_555 1_555
H4A C2A 1_555 1_555
C3A N1A 1_555 1_555
H5A C3A 1_555 1_555
C4A C3A 1_555 1_555
H6A C4A 1_555 1_555
C5A C5 1_555 1_555
C6A C5A 1_555 1_555
H7A C6A 1_555 1_555
C7A N1A 1_555 1_555
H8A C7A 1_555 1_555
C8A H9A 1_555 1_555
C9A C8A 1_555 1_555
H10A C9A 1_555 1_555
C10A C10 1_555 1_555
C11A C10A 1_555 1_555
H11A C11A 1_555 1_555
C12A N2A 1_555 1_555
H12A C12A 1_555 1_555
C13A P1A 1_555 1_555
C14A C13A 1_555 1_555
H13A C14A 1_555 1_555
C15A C14A 1_555 1_555
H14A C15A 1_555 1_555
C16A C15A 1_555 1_555
H15A C16A 1_555 1_555
C17A C16A 1_555 1_555
H16A C17A 1_555 1_555
C18A C13A 1_555 1_555
H17A C18A 1_555 1_555
C19A P1A 1_555 1_555
C20A C19A 1_555 1_555
H18A C20A 1_555 1_555
C21A C20A 1_555 1_555
H19A C21A 1_555 1_555
C22A C21A 1_555 1_555
H20A C22A 1_555 1_555
C23A C22A 1_555 1_555
H21A C23A 1_555 1_555
C24A C19A 1_555 1_555
H22A C24A 1_555 1_555
C25A P2A 1_555 1_555
C26A C25A 1_555 1_555
H23A C26A 1_555 1_555
C27A C26A 1_555 1_555
H24A C27A 1_555 1_555
C28A C27A 1_555 1_555
H25A C28A 1_555 1_555
C29A C28A 1_555 1_555
H26A C29A 1_555 1_555
C30A C25A 1_555 1_555
H27A C30A 1_555 1_555
C31A P2A 1_555 1_555
C32A C31A 1_555 1_555
H28A C32A 1_555 1_555
C33A C32A 1_555 1_555
H29A C33A 1_555 1_555
C34A C33A 1_555 1_555
H30A C34A 1_555 1_555
C35A C34A 1_555 1_555
H31A C35A 1_555 1_555
C36A C31A 1_555 1_555
H32A C36A 1_555 1_555
C37A P3A 1_555 1_555
C38A C37A 1_555 1_555
H33A C38A 1_555 1_555
C39A C38A 1_555 1_555
H34A C39A 1_555 1_555
C40A C39A 1_555 1_555
H35A C40A 1_555 1_555
C41A C40A 1_555 1_555
H36A C41A 1_555 1_555
C42A C37A 1_555 1_555
H37A C42A 1_555 1_555
C43A P3A 1_555 1_555
C44A C43A 1_555 1_555
H38A C44A 1_555 1_555
C45A C44A 1_555 1_555
H39A C45A 1_555 1_555
C46A C45A 1_555 1_555
H40A C46A 1_555 1_555
C47A C46A 1_555 1_555
H41A C47A 1_555 1_555
C48A C43A 1_555 1_555
H42A C48A 1_555 1_555
C49A P4A 1_555 1_555
C50A C49A 1_555 1_555
H43A C50A 1_555 1_555
C51A C50A 1_555 1_555
H44A C51A 1_555 1_555
C52A C51A 1_555 1_555
H45A C52A 1_555 1_555
C53A C52A 1_555 1_555
H46A C53A 1_555 1_555
C54A C49A 1_555 1_555
H47A C54A 1_555 1_555
C55A P4A 1_555 1_555
C56A C55A 1_555 1_555
H48A C56A 1_555 1_555
C57A C56A 1_555 1_555
H49A C57A 1_555 1_555
C58A C57A 1_555 1_555
H50A C58A 1_555 1_555
C59A C58A 1_555 1_555
H51A C59A 1_555 1_555
C60A C55A 1_555 1_555
H52A C60A 1_555 1_555
P4 C2 1_555 1_555
C6 C7 1_555 1_555
C11 C12 1_555 1_555
C17 C18 1_555 1_555
C23 C24 1_555 1_555
C29 C30 1_555 1_555
C35 C36 1_555 1_555
C41 C42 1_555 1_555
C47 C48 1_555 1_555
C53 C54 1_555 1_555
C59 C60 1_555 1_555
P4A C2A 1_555 1_555
C4A C5A 1_555 1_555
C6A C7A 1_555 1_555
C9A C10A 1_555 1_555
C11A C12A 1_555 1_555
C17A C18A 1_555 1_555
C23A C24A 1_555 1_555
C29A C30A 1_555 1_555
C35A C36A 1_555 1_555
C41A C42A 1_555 1_555
C47A C48A 1_555 1_555
C53A C54A 1_555 1_555
C59A C60A 1_555 1_555

#END
