
#######################################################################
#
#                 Cambridge Crystallographic Data Centre
#                                CCDC 
#
#######################################################################
#
# If this CIF has been generated from an entry in the Cambridge 
# Structural Database, then it will include bibliographic, chemical, 
# crystal, experimental, refinement or atomic coordinate data resulting 
# from the CCDC's data processing and validation procedures.
#
#######################################################################

data_NIWLIQ
_symmetry_cell_setting           triclinic
_symmetry_space_group_name_H-M   'P -1'
_symmetry_Int_Tables_number      2
_space_group_name_Hall           '-P 1'
loop_
_symmetry_equiv_pos_site_id
_symmetry_equiv_pos_as_xyz
1 x,y,z
2 -x,-y,-z
_cell_length_a                   8.8738(9)
_cell_length_b                   10.2258(10)
_cell_length_c                   11.1100(11)
_cell_angle_alpha                92.066(2)
_cell_angle_beta                 98.016(2)
_cell_angle_gamma                100.127(2)
_cell_volume                     980.838
loop_
_atom_site_label
_atom_site_type_symbol
_atom_site_fract_x
_atom_site_fract_y
_atom_site_fract_z
C1 C 0.2618(4) 0.2948(4) 0.1639(3)
H1 H 0.2185 0.3734 0.1606
C2 C 0.3117(5) 0.2498(4) 0.0608(4)
H2 H 0.3013 0.2951 -0.0122
C3 C 0.3777(5) 0.1360(4) 0.0666(4)
H3 H 0.4157 0.1036 -0.0024
C4 C 0.3878(5) 0.0711(4) 0.1722(4)
H4 H 0.4318 -0.0071 0.1780
C5 C 0.3314(4) 0.1232(3) 0.2713(3)
C6 C 0.2411(4) 0.0218(3) 0.5550(3)
H5 H 0.2832 -0.0573 0.5620
C7 C 0.1544(4) 0.0637(3) 0.6456(3)
C8 C 0.1269(5) -0.0130(4) 0.7438(3)
H6 H 0.1676 -0.0925 0.7537
C9 C 0.0396(5) 0.0278(4) 0.8268(4)
H7 H 0.0197 -0.0230 0.8947
C10 C -0.0177(5) 0.1429(4) 0.8096(4)
H8 H -0.0794 0.1725 0.8646
C11 C 0.0157(4) 0.2152(4) 0.7107(4)
H9 H -0.0241 0.2950 0.6998
C12 C 0.5706(5) 0.3383(4) 0.7833(4)
C13 C -0.1595(5) 0.4070(4) 0.1668(3)
N1 N 0.2708(3) 0.2338(3) 0.2688(3)
N2 N 0.3363(4) 0.0560(3) 0.3778(3)
N3 N 0.2594(3) 0.0950(3) 0.4646(3)
N4 N 0.1013(3) 0.1785(3) 0.6295(3)
Ca1 Ca 0.20521(7) 0.33023(6) 0.46713(6)
F1 F 0.4668(3) 0.2293(3) 0.7938(3)
F2 F 0.5157(3) 0.4409(3) 0.8206(3)
F3 F 0.6993(3) 0.3309(3) 0.8567(2)
F4 F -0.2759(4) 0.4571(3) 0.1103(2)
F5 F -0.1569(3) 0.2920(3) 0.1077(2)
F6 F -0.0291(3) 0.4893(3) 0.1546(3)
O1 O 0.4587(3) 0.3591(3) 0.5608(2)
O2 O 0.6572(3) 0.2251(2) 0.6034(3)
O3 O -0.0407(3) 0.3287(3) 0.3683(2)
O4 O -0.3193(3) 0.2925(3) 0.3218(3)
O5 O -0.1715(3) 0.5166(2) 0.3766(2)
O6 O 0.7233(3) 0.4654(2) 0.6290(2)
S1 S 0.60632(9) 0.34731(7) 0.62589(7)
S2 S -0.17756(9) 0.38307(8) 0.32601(7)
H10 H 0.360(5) -0.023(4) 0.375(4)
Ca1A Ca -0.20521(7) 0.66977(6) 0.53287(6)
Ca1A_2 Ca 0.79479(7) 0.66977(6) 0.53287(6)
O5A O 0.1715(3) 0.4834(2) 0.6234(2)
O6A O 0.2767(3) 0.5346(2) 0.3710(2)
loop_
_geom_bond_atom_site_label_1
_geom_bond_atom_site_label_2
_geom_bond_site_symmetry_1
_geom_bond_site_symmetry_2
C1 H1 1_555 1_555
C2 C1 1_555 1_555
H2 C2 1_555 1_555
C3 C2 1_555 1_555
H3 C3 1_555 1_555
C4 C3 1_555 1_555
H4 C4 1_555 1_555
C5 C4 1_555 1_555
C6 H5 1_555 1_555
C7 C6 1_555 1_555
C8 C7 1_555 1_555
H6 C8 1_555 1_555
C9 C8 1_555 1_555
H7 C9 1_555 1_555
C10 C9 1_555 1_555
H8 C10 1_555 1_555
C11 C10 1_555 1_555
H9 C11 1_555 1_555
C12 F1 1_555 1_555
C13 F4 1_555 1_555
N1 C1 1_555 1_555
N2 C5 1_555 1_555
N3 C6 1_555 1_555
N4 C7 1_555 1_555
Ca1 N1 1_555 1_555
F2 C12 1_555 1_555
F3 C12 1_555 1_555
F5 C13 1_555 1_555
F6 C13 1_555 1_555
O1 Ca1 1_555 1_555
O2 S1 1_555 1_555
O3 Ca1 1_555 1_555
O4 S2 1_555 1_555
O5 S2 1_555 1_555
O6 S1 1_555 1_555
S1 C12 1_555 1_555
S2 C13 1_555 1_555
H10 N2 1_555 1_555
Ca1A O5 1_555 1_555
Ca1A_2 O6 1_555 1_555
O5A Ca1 1_555 1_555
O6A Ca1 1_555 1_555
C5 N1 1_555 1_555
C11 N4 1_555 1_555
N2 N3 1_555 1_555
N3 Ca1 1_555 1_555
N4 Ca1 1_555 1_555
O1 S1 1_555 1_555
O3 S2 1_555 1_555

#END
