
#######################################################################
#
#                 Cambridge Crystallographic Data Centre
#                                CCDC 
#
#######################################################################
#
# If this CIF has been generated from an entry in the Cambridge 
# Structural Database, then it will include bibliographic, chemical, 
# crystal, experimental, refinement or atomic coordinate data resulting 
# from the CCDC's data processing and validation procedures.
#
#######################################################################

data_NIWMEM
_symmetry_cell_setting           triclinic
_symmetry_space_group_name_H-M   'P -1'
_symmetry_Int_Tables_number      2
_space_group_name_Hall           '-P 1'
loop_
_symmetry_equiv_pos_site_id
_symmetry_equiv_pos_as_xyz
1 x,y,z
2 -x,-y,-z
_cell_length_a                   7.098(3)
_cell_length_b                   8.922(3)
_cell_length_c                   9.720(2)
_cell_angle_alpha                90.942(6)
_cell_angle_beta                 101.375(6)
_cell_angle_gamma                108.112(5)
_cell_volume                     571.559
loop_
_atom_site_label
_atom_site_type_symbol
_atom_site_fract_x
_atom_site_fract_y
_atom_site_fract_z
Fe1 Fe 0.5000 0.5000 0.0000
Fe2 Fe 1.0000 0.5000 0.5000
C1 C 0.6446(4) 0.3738(3) 0.2523(3)
C2 C 0.4924(4) 0.2309(3) 0.1667(3)
C3 C 0.4514(5) 0.0824(3) 0.2147(3)
H1 H 0.5126 0.0679 0.3050
C4 C 0.3189(5) -0.0438(3) 0.1270(3)
H2 H 0.2889 -0.1449 0.1579
C5 C 0.2302(4) -0.0216(3) -0.0065(3)
C6 C 0.2767(4) 0.1328(3) -0.0474(3)
H3 H 0.2161 0.1496 -0.1372
C7 C 0.0905(4) -0.1587(4) -0.1093(3)
N1 N 0.4039(3) 0.2565(3) 0.0369(3)
O1 O 0.8315(4) 0.6187(3) 0.5803(3)
H4 H 0.7132 0.6145 0.5373
H5 H 0.9150 0.7017 0.6279
O2 O 0.9411(3) 0.3350(3) 0.6494(2)
H6 H 0.8576 0.2419 0.6286
H7 H 1.0460 0.3570 0.7156
O3 O 0.7348(3) 0.3533(2) 0.3701(2)
O4 O 0.6748(3) 0.5047(2) 0.1970(2)
O5 O 0.2787(3) 0.5429(3) 0.0954(2)
H8 H 0.1792 0.5354 0.0276
H9 H 0.2288 0.4806 0.1537
O6 O 0.0097(4) -0.1287(3) -0.2262(3)
O7 O 0.0653(4) -0.2939(3) -0.0688(3)
Fe2_2 Fe 0.0000 0.5000 -0.5000
C1A C 0.3554(4) 0.6262(3) -0.2523(3)
C2A C 0.5076(4) 0.7691(3) -0.1667(3)
C3A C 0.5486(5) 0.9176(3) -0.2147(3)
H1A H 0.4874 0.9321 -0.3050
C4A C 0.6811(5) 1.0438(3) -0.1270(3)
H2A H 0.7111 1.1449 -0.1579
C5A C 0.7698(4) 1.0216(3) 0.0065(3)
C6A C 0.7233(4) 0.8672(3) 0.0474(3)
H3A H 0.7839 0.8504 0.1372
C7A C 0.9095(4) 1.1587(4) 0.1093(3)
N1A N 0.5961(3) 0.7435(3) -0.0369(3)
O1A O 1.1685(4) 0.3813(3) 0.4197(3)
H4A H 1.2868 0.3855 0.4627
H5A H 1.0850 0.2983 0.3721
O2A O 1.0589(3) 0.6650(3) 0.3506(2)
H6A H 1.1424 0.7581 0.3714
H7A H 0.9540 0.6430 0.2844
O3A O 0.2652(3) 0.6467(2) -0.3701(2)
O3A_2 O 1.2652(3) 0.6467(2) 0.6299(2)
O4A O 0.3252(3) 0.4953(2) -0.1970(2)
O5A O 0.7213(3) 0.4571(3) -0.0954(2)
H8A H 0.8208 0.4646 -0.0276
H9A H 0.7712 0.5194 -0.1537
O6A O 0.9903(4) 1.1287(3) 0.2262(3)
O7A O 0.9347(4) 1.2939(3) 0.0688(3)
O8 O 0.4663(4) 0.2880(4) 0.6019(3)
H10 H 0.4601 0.3105 0.6859
H11 H 0.5871 0.3270 0.5904
O9 O 0.1591(7) -0.0327(5) 0.4428(6)
H12 H 0.2489 0.0471 0.4912
H13 H 0.1463 0.0205 0.3718
loop_
_geom_bond_atom_site_label_1
_geom_bond_atom_site_label_2
_geom_bond_site_symmetry_1
_geom_bond_site_symmetry_2
Fe1 N1 1_555 1_555
Fe2 O1 1_555 1_555
C1 C2 1_555 1_555
C2 C3 1_555 1_555
C3 H1 1_555 1_555
C4 C3 1_555 1_555
H2 C4 1_555 1_555
C5 C4 1_555 1_555
C6 C5 1_555 1_555
H3 C6 1_555 1_555
C7 C5 1_555 1_555
N1 C2 1_555 1_555
O1 H4 1_555 1_555
H5 O1 1_555 1_555
O2 Fe2 1_555 1_555
H6 O2 1_555 1_555
H7 O2 1_555 1_555
O3 Fe2 1_555 1_555
O4 Fe1 1_555 1_555
O5 Fe1 1_555 1_555
H8 O5 1_555 1_555
H9 O5 1_555 1_555
O6 C7 1_555 1_555
O7 C7 1_555 1_555
O8 H10 1_555 1_555
H11 O8 1_555 1_555
O9 H12 1_555 1_555
H13 O9 1_555 1_555
Fe2_2 O3A 1_555 1_555
C1A C2A 1_555 1_555
C2A C3A 1_555 1_555
C3A H1A 1_555 1_555
C4A C3A 1_555 1_555
H2A C4A 1_555 1_555
C5A C4A 1_555 1_555
C6A C5A 1_555 1_555
H3A C6A 1_555 1_555
C7A C5A 1_555 1_555
N1A Fe1 1_555 1_555
O1A Fe2 1_555 1_555
H4A O1A 1_555 1_555
H5A O1A 1_555 1_555
O2A Fe2 1_555 1_555
H6A O2A 1_555 1_555
H7A O2A 1_555 1_555
O3A C1A 1_555 1_555
O3A_2 Fe2 1_555 1_555
O4A Fe1 1_555 1_555
O5A Fe1 1_555 1_555
H8A O5A 1_555 1_555
H9A O5A 1_555 1_555
O6A C7A 1_555 1_555
O7A C7A 1_555 1_555
C1 O3 1_555 1_555
C1 O4 1_555 1_555
C6 N1 1_555 1_555
C1A O4A 1_555 1_555
C2A N1A 1_555 1_555
C6A N1A 1_555 1_555

#END
