
#######################################################################
#
#                 Cambridge Crystallographic Data Centre
#                                CCDC 
#
#######################################################################
#
# If this CIF has been generated from an entry in the Cambridge 
# Structural Database, then it will include bibliographic, chemical, 
# crystal, experimental, refinement or atomic coordinate data resulting 
# from the CCDC's data processing and validation procedures.
#
#######################################################################

data_NIWQIV
_symmetry_cell_setting           triclinic
_symmetry_space_group_name_H-M   'P -1'
_symmetry_Int_Tables_number      2
_space_group_name_Hall           '-P 1'
loop_
_symmetry_equiv_pos_site_id
_symmetry_equiv_pos_as_xyz
1 x,y,z
2 -x,-y,-z
_cell_length_a                   6.2784(5)
_cell_length_b                   6.6630(3)
_cell_length_c                   10.1465(8)
_cell_angle_alpha                81.519(8)
_cell_angle_beta                 82.589(8)
_cell_angle_gamma                85.660(6)
_cell_volume                     415.615
loop_
_atom_site_label
_atom_site_type_symbol
_atom_site_fract_x
_atom_site_fract_y
_atom_site_fract_z
Ni1 Ni 0.5183(7) 0.2578(5) -0.0044(4)
Ni2 Ni 0.00000 0.50000 0.00000
O1 O 0.0440(12) 0.2166(4) 0.1354(3)
O2 O 0.3830(12) 0.2183(4) 0.1891(3)
O3 O 0.0006(12) 0.3326(4) 0.8457(3)
O4 O -0.3405(12) 0.2840(4) 0.8066(3)
C1 C 0.1800(12) 0.2226(4) 0.2205(3)
C2 C 0.0961(12) 0.2348(4) 0.3631(3)
C3 C 0.2379(12) 0.2656(4) 0.4535(3)
C4 C 0.1612(12) 0.2834(4) 0.5860(3)
C5 C -0.0548(12) 0.2684(4) 0.6300(3)
C6 C -0.1956(12) 0.2329(4) 0.5403(3)
C7 C -0.1196(12) 0.2179(4) 0.4071(3)
C8 C -0.1386(12) 0.2968(4) 0.7715(3)
O5 O 0.6837(5) 0.4875(7) 0.0474(11)
O6 O 0.700(2) -0.0316(11) 0.034(3)
H1 H 0.4077(12) 0.2791(4) 0.4167(3)
H2 H 0.2698(12) 0.3126(4) 0.6561(3)
H3 H -0.3653(12) 0.2185(4) 0.5774(3)
H4 H -0.2281(12) 0.1917(4) 0.3361(3)
H5 H 0.6635(5) 0.4629(7) 0.1456(11)
H6 H 0.789(2) -0.0938(11) -0.005(3)
H7 H 0.754(2) -0.0659(11) 0.121(3)
Ni1A Ni -0.5183(7) 0.7422(5) 0.0044(4)
O1A O -0.0440(12) 0.7834(4) -0.1354(3)
O2A O -0.3830(12) 0.7817(4) -0.1891(3)
O3A O -0.0006(12) 0.6674(4) -0.8457(3)
O4A O 0.3405(12) 0.7160(4) -0.8066(3)
C1A C -0.1800(12) 0.7774(4) -0.2205(3)
C2A C -0.0961(12) 0.7652(4) -0.3631(3)
C3A C -0.2379(12) 0.7344(4) -0.4535(3)
C4A C -0.1612(12) 0.7166(4) -0.5860(3)
C5A C 0.0548(12) 0.7316(4) -0.6300(3)
C6A C 0.1956(12) 0.7671(4) -0.5403(3)
C7A C 0.1196(12) 0.7821(4) -0.4071(3)
C8A C 0.1386(12) 0.7032(4) -0.7715(3)
O5A O -0.6837(5) 0.5125(7) -0.0474(11)
O6A O -0.700(2) 1.0316(11) -0.034(3)
H1A H -0.4077(12) 0.7209(4) -0.4167(3)
H2A H -0.2698(12) 0.6874(4) -0.6561(3)
H3A H 0.3653(12) 0.7815(4) -0.5774(3)
H4A H 0.2281(12) 0.8083(4) -0.3361(3)
H5A H -0.6635(5) 0.5371(7) -0.1456(11)
H6A H -0.789(2) 1.0938(11) 0.005(3)
H7A H -0.754(2) 1.0659(11) -0.121(3)
Ni1_2 Ni -0.4817(7) 0.2578(5) -0.0044(4)
Ni1_3 Ni -0.4817(7) 0.2578(5) 0.9956(4)
Ni1_4 Ni -0.4817(7) 1.2578(5) -0.0044(4)
Ni1A_2 Ni 0.4817(7) -0.2578(5) 0.0044(4)
Ni1A_3 Ni 0.4817(7) 0.7422(5) -0.9956(4)
Ni1A_4 Ni 0.4817(7) 0.7422(5) 0.0044(4)
Ni2_2 Ni -1.00000 0.50000 0.00000
Ni2_3 Ni 0.00000 0.50000 -1.00000
Ni2_4 Ni 0.00000 0.50000 1.00000
Ni2_5 Ni 1.00000 0.50000 0.00000
O3_2 O 0.0006(12) 0.3326(4) -0.1543(3)
O3A_2 O -0.0006(12) 0.6674(4) 0.1543(3)
O4_2 O 0.6595(12) 0.2840(4) -0.1934(3)
O4A_2 O -0.6595(12) 0.7160(4) 0.1934(3)
O5_2 O -0.3163(5) 0.4875(7) 0.0474(11)
O5A_2 O 0.3163(5) 0.5125(7) -0.0474(11)
O6_2 O -0.300(2) 0.9684(11) 0.034(3)
O6A_2 O 0.300(2) 0.0316(11) -0.034(3)
loop_
_geom_bond_atom_site_label_1
_geom_bond_atom_site_label_2
_geom_bond_site_symmetry_1
_geom_bond_site_symmetry_2
Ni1 O2 1_555 1_555
Ni2 O1 1_555 1_555
O1 C1 1_555 1_555
O2 C1 1_555 1_555
O3 C8 1_555 1_555
O4 C8 1_555 1_555
C1 C2 1_555 1_555
C2 C3 1_555 1_555
C3 C4 1_555 1_555
C4 C5 1_555 1_555
C5 C6 1_555 1_555
C6 C7 1_555 1_555
C7 C2 1_555 1_555
C8 C5 1_555 1_555
O5 Ni1 1_555 1_555
O6 Ni1 1_555 1_555
H1 C3 1_555 1_555
H2 C4 1_555 1_555
H3 C6 1_555 1_555
H4 C7 1_555 1_555
H5 O5 1_555 1_555
H6 O6 1_555 1_555
H7 O6 1_555 1_555
Ni1A O2A 1_555 1_555
O1A Ni2 1_555 1_555
O2A C1A 1_555 1_555
O3A C8A 1_555 1_555
O4A C8A 1_555 1_555
C1A O1A 1_555 1_555
C2A C1A 1_555 1_555
C3A C2A 1_555 1_555
C4A C3A 1_555 1_555
C5A C4A 1_555 1_555
C6A C5A 1_555 1_555
C7A C2A 1_555 1_555
C8A C5A 1_555 1_555
O5A Ni1A 1_555 1_555
O6A Ni1A 1_555 1_555
H1A C3A 1_555 1_555
H2A C4A 1_555 1_555
H3A C6A 1_555 1_555
H4A C7A 1_555 1_555
H5A O5A 1_555 1_555
H6A O6A 1_555 1_555
H7A O6A 1_555 1_555
Ni1_2 O5A 1_555 1_555
Ni1_3 O4 1_555 1_555
Ni1_4 O6A 1_555 1_555
Ni1A_2 O6 1_555 1_555
Ni1A_3 O4A 1_555 1_555
Ni1A_4 O5 1_555 1_555
Ni2_2 O5A 1_555 1_555
Ni2_3 O3A 1_555 1_555
Ni2_4 O3 1_555 1_555
Ni2_5 O5 1_555 1_555
O3_2 Ni2 1_555 1_555
O3A_2 Ni2 1_555 1_555
O4_2 Ni1 1_555 1_555
O4A_2 Ni1A 1_555 1_555
O5_2 Ni2 1_555 1_555
O5A_2 Ni1 1_555 1_555
O6_2 Ni1A 1_555 1_555
O6A_2 Ni1 1_555 1_555
Ni2 O5A_2 1_555 1_555
Ni1A O5_2 1_555 1_555
C6A C7A 1_555 1_555
Ni1_2 O5_2 1_555 1_555
Ni1_4 O6_2 1_555 1_555
Ni1A_2 O6A_2 1_555 1_555
Ni1A_4 O5A_2 1_555 1_555

#END
