
#######################################################################
#
#                 Cambridge Crystallographic Data Centre
#                                CCDC 
#
#######################################################################
#
# If this CIF has been generated from an entry in the Cambridge 
# Structural Database, then it will include bibliographic, chemical, 
# crystal, experimental, refinement or atomic coordinate data resulting 
# from the CCDC's data processing and validation procedures.
#
#######################################################################

data_NIWTUJ
_symmetry_cell_setting           monoclinic
_symmetry_space_group_name_H-M   'P 21/n'
_symmetry_Int_Tables_number      14
_space_group_name_Hall           '-P 2yn'
loop_
_symmetry_equiv_pos_site_id
_symmetry_equiv_pos_as_xyz
1 x,y,z
2 1/2-x,1/2+y,1/2-z
3 -x,-y,-z
4 1/2+x,1/2-y,1/2+z
_cell_length_a                   7.6902(15)
_cell_length_b                   11.742(2)
_cell_length_c                   11.651(2)
_cell_angle_alpha                90
_cell_angle_beta                 92.815(3)
_cell_angle_gamma                90
_cell_volume                     1050.8
loop_
_atom_site_label
_atom_site_type_symbol
_atom_site_fract_x
_atom_site_fract_y
_atom_site_fract_z
Tl1 Tl 0.01843(3) 0.263547(17) 0.737899(18)
Cl1 Cl 0.02111(19) 0.42505(13) 0.87198(13)
Cl2 Cl 0.00419(19) 0.13110(13) 0.57449(13)
Cl3 Cl 0.0398(2) 0.11413(14) 0.88837(14)
N1 N -0.3038(6) 0.2815(4) 0.7219(4)
N2 N -0.6655(6) 0.2817(4) 0.7179(4)
C1 C -0.3983(8) 0.2133(5) 0.6528(5)
H1 H -0.3401 0.1641 0.6026
C2 C -0.3911(7) 0.3519(5) 0.7883(5)
H2 H -0.3285 0.4024 0.8389
C3 C -0.5783(8) 0.2111(5) 0.6511(5)
H3 H -0.6406 0.1590 0.6021
C4 C -0.5724(8) 0.3526(5) 0.7844(5)
H4 H -0.6308 0.4054 0.8308
C5 C 0.1067(8) 0.4125(5) 0.4945(5)
H5 H 0.1837 0.3498 0.4878
C6 C 0.1025(8) 0.4946(5) 0.4111(5)
H6 H 0.1782 0.4892 0.3493
N3 N 0.0080(6) 0.4170(4) 0.5840(4)
Tl1_2 Tl 1.01843(3) 0.263547(17) 0.737899(18)
Tl1_3 Tl -0.98157(3) 0.263547(17) 0.737899(18)
Tl1B Tl -0.01843(3) 0.736453(17) 0.262101(18)
Cl1_2 Cl 1.02111(19) 0.42505(13) 0.87198(13)
Cl2_2 Cl 1.00419(19) 0.13110(13) 0.57449(13)
Cl3_2 Cl 1.0398(2) 0.11413(14) 0.88837(14)
N1_2 N 0.6962(6) 0.2815(4) 0.7219(4)
N2_2 N 0.3345(6) 0.2817(4) 0.7179(4)
N2_3 N 1.3345(6) 0.2817(4) 0.7179(4)
C1_2 C 0.6017(8) 0.2133(5) 0.6528(5)
H1_2 H 0.6599 0.1641 0.6026
C2_2 C 0.6089(7) 0.3519(5) 0.7883(5)
H2_2 H 0.6715 0.4024 0.8389
C3_2 C 0.4217(8) 0.2111(5) 0.6511(5)
H3_2 H 0.3594 0.1590 0.6021
C4_2 C 0.4276(8) 0.3526(5) 0.7844(5)
H4_2 H 0.3692 0.4054 0.8308
C5B C -0.1067(8) 0.5875(5) 0.5055(5)
H5B H -0.1837 0.6502 0.5122
C6B C -0.1025(8) 0.5054(5) 0.5889(5)
H6B H -0.1782 0.5108 0.6507
N3B N -0.0080(6) 0.5830(4) 0.4160(4)
N3_2 N 1.0080(6) 0.4170(4) 0.5840(4)
loop_
_geom_bond_atom_site_label_1
_geom_bond_atom_site_label_2
_geom_bond_site_symmetry_1
_geom_bond_site_symmetry_2
Tl1 Cl1 1_555 1_555
Cl2 Tl1 1_555 1_555
Cl3 Tl1 1_555 1_555
N1 Tl1 1_555 1_555
N2 C3 1_555 1_555
C1 N1 1_555 1_555
H1 C1 1_555 1_555
C2 N1 1_555 1_555
H2 C2 1_555 1_555
C3 C1 1_555 1_555
H3 C3 1_555 1_555
C4 N2 1_555 1_555
H4 C4 1_555 1_555
C5 H5 1_555 1_555
C6 C5 1_555 1_555
H6 C6 1_555 1_555
N3 Tl1 1_555 1_555
Tl1_2 Cl1_2 1_555 1_555
Tl1_3 N2 1_555 1_555
Tl1B N3B 1_555 1_555
Cl2_2 Tl1_2 1_555 1_555
Cl3_2 Tl1_2 1_555 1_555
N1_2 Tl1_2 1_555 1_555
N2_2 Tl1 1_555 1_555
N2_3 Tl1_2 1_555 1_555
C1_2 N1_2 1_555 1_555
H1_2 C1_2 1_555 1_555
C2_2 N1_2 1_555 1_555
H2_2 C2_2 1_555 1_555
C3_2 N2_2 1_555 1_555
H3_2 C3_2 1_555 1_555
C4_2 N2_2 1_555 1_555
H4_2 C4_2 1_555 1_555
C5B H5B 1_555 1_555
C6B N3 1_555 1_555
H6B C6B 1_555 1_555
N3B C6 1_555 1_555
N3_2 Tl1_2 1_555 1_555
C2 C4 1_555 1_555
C5 N3 1_555 1_555
C1_2 C3_2 1_555 1_555
C2_2 C4_2 1_555 1_555
C5B C6B 1_555 1_555
C5B N3B 1_555 1_555

#END
