
#######################################################################
#
#                 Cambridge Crystallographic Data Centre
#                                CCDC 
#
#######################################################################
#
# If this CIF has been generated from an entry in the Cambridge 
# Structural Database, then it will include bibliographic, chemical, 
# crystal, experimental, refinement or atomic coordinate data resulting 
# from the CCDC's data processing and validation procedures.
#
#######################################################################

data_NIWTOD01
_symmetry_cell_setting           monoclinic
_symmetry_space_group_name_H-M   'C 2/c'
_symmetry_Int_Tables_number      15
_space_group_name_Hall           '-C 2yn'
loop_
_symmetry_equiv_pos_site_id
_symmetry_equiv_pos_as_xyz
1 x,y,z
2 -x,y,1/2-z
3 1/2+x,1/2+y,z
4 1/2-x,1/2+y,1/2-z
5 -x,-y,-z
6 x,-y,1/2+z
7 1/2-x,1/2-y,-z
8 1/2+x,1/2-y,1/2+z
_cell_length_a                   11.1474(7)
_cell_length_b                   6.3189(5)
_cell_length_c                   11.5922(8)
_cell_angle_alpha                90
_cell_angle_beta                 101.953(7)
_cell_angle_gamma                90
_cell_volume                     798.842
loop_
_atom_site_label
_atom_site_type_symbol
_atom_site_fract_x
_atom_site_fract_y
_atom_site_fract_z
Ga1 Ga 0.50000 0.22026(14) 0.25000
Cl1 Cl 0.39262(12) 0.3790(2) 0.36223(12)
Cl2 Cl 0.50000 -0.1238(3) 0.25000
N1 N 0.3426(4) 0.2334(7) 0.0997(4)
C1 C 0.3273(5) 0.0877(9) 0.0148(5)
C2 C 0.2646(5) 0.3961(9) 0.0842(5)
H1 H 0.38130 -0.03030 0.02280
H2 H 0.27280 0.50310 0.14280
N1F N 0.1574(4) 0.2666(7) -0.0997(4)
C1F C 0.1727(5) 0.4123(9) -0.0148(5)
C2F C 0.2354(5) 0.1039(9) -0.0842(5)
H1F H 0.11870 0.53030 -0.02280
H2F H 0.22720 -0.00310 -0.14280
Cl1A Cl 0.60738(12) 0.3790(2) 0.13777(12)
Ga1F Ga 0.00000 0.27974(14) -0.25000
N1A N 0.6574(4) 0.2334(7) 0.4003(4)
loop_
_geom_bond_atom_site_label_1
_geom_bond_atom_site_label_2
_geom_bond_site_symmetry_1
_geom_bond_site_symmetry_2
Ga1 Cl1 1_555 1_555
Cl2 Ga1 1_555 1_555
N1 Ga1 1_555 1_555
C1 N1 1_555 1_555
C2 N1 1_555 1_555
H1 C1 1_555 1_555
H2 C2 1_555 1_555
N1F C1F 1_555 1_555
C1F C2 1_555 1_555
C2F C1 1_555 1_555
H1F C1F 1_555 1_555
H2F C2F 1_555 1_555
Cl1A Ga1 1_555 1_555
Ga1F N1F 1_555 1_555
N1A Ga1 1_555 1_555
N1F C2F 1_555 1_555

#END
