
#######################################################################
#
#                 Cambridge Crystallographic Data Centre
#                                CCDC 
#
#######################################################################
#
# If this CIF has been generated from an entry in the Cambridge 
# Structural Database, then it will include bibliographic, chemical, 
# crystal, experimental, refinement or atomic coordinate data resulting 
# from the CCDC's data processing and validation procedures.
#
#######################################################################

data_NIWTIX
_symmetry_cell_setting           monoclinic
_symmetry_space_group_name_H-M   'C 2/c'
_symmetry_Int_Tables_number      15
_space_group_name_Hall           '-C 2yn'
loop_
_symmetry_equiv_pos_site_id
_symmetry_equiv_pos_as_xyz
1 x,y,z
2 1/2+x,1/2+y,z
3 -x,y,1/2-z
4 1/2-x,1/2+y,1/2-z
5 -x,-y,-z
6 1/2-x,1/2-y,-z
7 x,-y,1/2+z
8 1/2+x,1/2-y,1/2+z
_cell_length_a                   11.3941(16)
_cell_length_b                   6.7356(10)
_cell_length_c                   11.9568(18)
_cell_angle_alpha                90
_cell_angle_beta                 102.903(2)
_cell_angle_gamma                90
_cell_volume                     894.467
loop_
_atom_site_label
_atom_site_type_symbol
_atom_site_fract_x
_atom_site_fract_y
_atom_site_fract_z
Ga1 Ga 0.5000 -0.21484(16) 0.7500
Br1 Br 0.5000 0.12968(14) 0.7500
Br2 Br 0.61070(7) -0.37162(11) 0.63354(7)
N1 N 0.3407(5) -0.2317(9) 0.5987(5)
C1 C 0.3249(7) -0.1001(11) 0.5155(7)
H1 H 0.3767 0.0122 0.5244
C2 C 0.2624(8) -0.3832(10) 0.5836(7)
H2 H 0.2676 -0.4801 0.6422
Ga1G Ga 0.0000 -0.28516(16) 0.2500
Br2B Br 0.38930(7) -0.37162(11) 0.86646(7)
N1E N 0.1593(5) -0.2683(9) 0.4013(5)
N1B N 0.6593(5) -0.2317(9) 0.9013(5)
C1E C 0.1751(7) -0.3999(11) 0.4845(7)
H1E H 0.1233 -0.5122 0.4756
C2E C 0.2376(8) -0.1168(10) 0.4164(7)
H2E H 0.2324 -0.0199 0.3578
loop_
_geom_bond_atom_site_label_1
_geom_bond_atom_site_label_2
_geom_bond_site_symmetry_1
_geom_bond_site_symmetry_2
Ga1 Br1 1_555 1_555
Br2 Ga1 1_555 1_555
N1 Ga1 1_555 1_555
C1 N1 1_555 1_555
H1 C1 1_555 1_555
C2 N1 1_555 1_555
H2 C2 1_555 1_555
Ga1G N1E 1_555 1_555
Br2B Ga1 1_555 1_555
N1E C1E 1_555 1_555
N1B Ga1 1_555 1_555
C1E C2 1_555 1_555
H1E C1E 1_555 1_555
C2E C1 1_555 1_555
H2E C2E 1_555 1_555
N1E C2E 1_555 1_555

#END
