
#######################################################################
#
#                 Cambridge Crystallographic Data Centre
#                                CCDC 
#
#######################################################################
#
# If this CIF has been generated from an entry in the Cambridge 
# Structural Database, then it will include bibliographic, chemical, 
# crystal, experimental, refinement or atomic coordinate data resulting 
# from the CCDC's data processing and validation procedures.
#
#######################################################################

data_NIWVUK
_symmetry_cell_setting           triclinic
_symmetry_space_group_name_H-M   'P -1'
_symmetry_Int_Tables_number      2
_space_group_name_Hall           '-P 1'
loop_
_symmetry_equiv_pos_site_id
_symmetry_equiv_pos_as_xyz
1 x,y,z
2 -x,-y,-z
_cell_length_a                   12.789(6)
_cell_length_b                   15.139(6)
_cell_length_c                   16.192(8)
_cell_angle_alpha                110.59(5)
_cell_angle_beta                 91.36(4)
_cell_angle_gamma                107.43(4)
_cell_volume                     2770.57
loop_
_atom_site_label
_atom_site_type_symbol
_atom_site_fract_x
_atom_site_fract_y
_atom_site_fract_z
N1 N 0.0653(7) 0.1628(6) -0.5649(6)
C1 C 0.1546(8) 0.2287(8) -0.5090(7)
C2 C 0.2358(9) 0.2060(9) -0.4715(8)
C3 C 0.2236(9) 0.1057(8) -0.4934(7)
C4 C 0.1314(9) 0.0357(9) -0.5522(9)
C5 C 0.0544(9) 0.0670(8) -0.5850(8)
C6 C 0.3059(12) 0.0759(12) -0.4580(11)
C7 C 0.3741(12) 0.0519(12) -0.4297(11)
N2 N 0.7099(7) -0.1603(6) -0.2935(7)
C8 C 0.6153(9) -0.2125(9) -0.3520(9)
C9 C 0.5494(9) -0.1685(8) -0.3810(8)
C10 C 0.5818(8) -0.0646(7) -0.3480(8)
C11 C 0.6790(10) -0.0090(8) -0.2868(9)
C12 C 0.7375(10) -0.0611(8) -0.2620(9)
C13 C 0.5132(12) -0.0163(11) -0.3764(10)
C14 C 0.4502(11) 0.0164(10) -0.4007(10)
N3 N -0.1390(6) 0.2257(7) -0.4787(6)
C15 C -0.2475(9) 0.2101(10) -0.4839(8)
C16 C -0.3082(9) 0.2154(10) -0.4147(8)
C17 C -0.2511(9) 0.2422(9) -0.3301(8)
C18 C -0.1375(9) 0.2564(10) -0.3234(8)
C19 C -0.0862(10) 0.2474(10) -0.3976(7)
C20 C -0.3095(13) 0.2490(10) -0.2544(10)
C21 C -0.3591(12) 0.2520(11) -0.1917(12)
N4 N -0.6755(7) 0.2390(8) 0.1346(7)
C22 C -0.7157(10) 0.2198(10) 0.0520(7)
C23 C -0.6541(9) 0.2257(10) -0.0150(8)
C24 C -0.5388(9) 0.2511(10) 0.0051(8)
C25 C -0.4945(10) 0.2732(13) 0.0922(9)
C26 C -0.5640(9) 0.2681(13) 0.1549(9)
C27 C -0.4715(12) 0.2545(10) -0.0641(11)
C28 C -0.4186(13) 0.2533(11) -0.1248(11)
N5 N -1.0703(8) -0.1897(7) -1.1772(7)
C29 C -1.0287(9) -0.2501(8) -1.1542(10)
C30 C -0.9297(10) -0.2195(9) -1.1004(10)
C31 C -0.8664(9) -0.1178(8) -1.0670(8)
C32 C -0.9058(10) -0.0546(9) -1.0928(10)
C33 C -1.0069(9) -0.0940(8) -1.1455(10)
C34 C -0.7610(13) -0.0815(11) -1.0117(10)
C35 C -0.6730(11) -0.0523(11) -0.9654(9)
N6 N -0.1834(8) 0.1407(7) -0.6904(7)
C36 C -0.2334(9) 0.1945(8) -0.7154(9)
C37 C -0.3275(9) 0.1573(9) -0.7747(8)
C38 C -0.3821(9) 0.0537(8) -0.8114(8)
C39 C -0.3327(9) -0.0038(8) -0.7847(9)
C40 C -0.2348(10) 0.0407(8) -0.7278(9)
C41 C -0.4859(11) 0.0131(11) -0.8675(10)
C42 C -0.5737(11) -0.0173(10) -0.9148(9)
Cu1 Cu -0.0573(1) 0.2101(1) -0.5904(1)
Cu2 Cu 0.7743(1) -0.2367(1) -0.2372(1)
N7 N 0.0097(8) 0.3457(9) -0.5943(8)
C43 C 0.0434(10) 0.4192(11) -0.6025(9)
C44 C 0.0851(14) 0.5178(10) -0.6104(12)
N8 N 0.7120(10) -0.3780(9) -0.3202(8)
C45 C 0.6582(17) -0.4575(16) -0.3607(13)
C46 C 0.5868(18) -0.5606(16) -0.4100(15)
H1 H 0.1635 0.2974 -0.4935
H2 H 0.2982 0.2571 -0.4319
H3 H 0.1211 -0.0335 -0.5700
H4 H -0.0095 0.0017 -0.6239
H5 H 0.5929 -0.2834 -0.3744
H6 H 0.4837 -0.2082 -0.4223
H7 H 0.7038 0.0620 -0.2633
H8 H 0.8022 -0.0234 -0.2193
H9 H -0.2864 0.1937 -0.5408
H10 H -0.3860 0.2015 -0.4238
H11 H -0.0962 0.2723 -0.2676
H12 H -0.0091 0.2569 -0.3916
H13 H -0.7938 0.2004 0.0380
H14 H -0.6878 0.2130 -0.0727
H15 H -0.4168 0.2917 0.1081
H16 H -0.5328 0.2857 0.2146
H17 H -1.0706 -0.3193 -1.1765
H18 H -0.9047 -0.2662 -1.0863
H19 H -0.8641 0.0143 -1.0746
H20 H -1.0341 -0.0490 -1.1607
H21 H -0.2005 0.2651 -0.6895
H22 H -0.3559 0.2009 -0.7912
H23 H -0.3669 -0.0742 -0.8060
H24 H -0.2007 -0.0011 -0.7138
H25 H 0.0234 0.5429 -0.6133
H26 H 0.1196 0.5110 -0.6648
H27 H 0.1401 0.5648 -0.5584
H28 H 0.5793 -0.5987 -0.3713
H29 H 0.6197 -0.5912 -0.4621
H30 H 0.5136 -0.5610 -0.4298
Cu2A Cu -0.7743(1) 0.2367(1) 0.2372(1)
Cu2_2 Cu -1.2257(1) -0.2367(1) -1.2372(1)
N4A N 0.6755(7) -0.2390(8) -0.1346(7)
N5_2 N 0.9297(8) -0.1897(7) -0.1772(7)
P1 P 0.9416(4) -0.1943(3) 0.1654(4)
F1 F 0.8660(18) -0.1317(16) 0.1944(13)
F2 F 0.8437(15) -0.2837(14) 0.0967(12)
F3 F 0.9179(13) -0.2423(14) 0.2340(12)
F4 F 1.0419(14) -0.1136(13) 0.2304(12)
F5 F 0.9582(12) -0.1505(12) 0.0874(10)
F6 F 1.0273(14) -0.2547(13) 0.1274(11)
P2 P 1.2896(14) -0.4662(11) -0.3514(10)
F13 F 1.3800(2) -0.4800(2) -0.2938(16)
F14 F 1.1950(17) -0.5584(15) -0.3478(15)
F15 F 1.3825(16) -0.3735(14) -0.3522(14)
F16 F 1.3235(17) -0.5400(14) -0.4341(13)
F17 F 1.2068(17) -0.4470(16) -0.4113(13)
F18 F 1.2643(17) -0.3918(13) -0.2646(11)
C47 C 1.0880(4) -0.4900(3) -0.1620(3)
C48 C 1.0080(3) -0.4860(3) -0.1260(2)
O1 O 0.9175(19) -0.4871(17) -0.1570(15)
C49 C 0.8290(3) -0.4910(2) -0.1040(2)
C50 C 0.7380(3) -0.4830(3) -0.1320(2)
H31 H 1.1458 -0.4901 -0.1214
H32 H 1.1159 -0.4324 -0.1797
H33 H 1.0681 -0.5518 -0.2158
H34 H 1.0346 -0.4235 -0.0725
H35 H 0.9899 -0.5412 -0.1046
H36 H 0.8102 -0.5553 -0.0953
H37 H 0.8589 -0.4372 -0.0444
H38 H 0.6897 -0.4778 -0.0857
H39 H 0.6997 -0.5416 -0.1858
H40 H 0.7549 -0.4226 -0.1464
N9 N -0.6250(4) 0.3900(3) -0.1850(3)
C51 C -0.5860(3) 0.3420(3) -0.2420(2)
C52 C -0.5270(3) 0.3080(3) -0.3140(2)
F7? F 0.8160(3) -0.1800(3) 0.1990(2)
F8? F 0.9190(3) -0.2960(3) 0.1730(3)
F9? F 0.9600(3) -0.1690(3) 0.2880(3)
F10? F 0.8970(4) -0.2400(4) 0.0630(3)
F11? F 0.9720(4) -0.0710(3) 0.2310(3)
F12? F 1.0660(4) -0.1640(4) 0.1800(3)
P3? P 1.3048(13) -0.4559(12) -0.3795(11)
F19? F 1.1760(16) -0.4830(2) -0.3901(18)
F20? F 1.3190(2) -0.3806(17) -0.2834(13)
F21? F 1.3010(3) -0.5430(2) -0.3480(2)
F22? F 1.2915(18) -0.5281(16) -0.4791(13)
F23? F 1.3140(2) -0.3729(17) -0.4175(17)
F24? F 1.4341(16) -0.4270(2) -0.3757(17)
loop_
_geom_bond_atom_site_label_1
_geom_bond_atom_site_label_2
_geom_bond_site_symmetry_1
_geom_bond_site_symmetry_2
N1 C1 1_555 1_555
C1 C2 1_555 1_555
C2 C3 1_555 1_555
C3 C4 1_555 1_555
C4 C5 1_555 1_555
C5 N1 1_555 1_555
C6 C3 1_555 1_555
C7 C6 1_555 1_555
N2 C8 1_555 1_555
C8 C9 1_555 1_555
C9 C10 1_555 1_555
C10 C11 1_555 1_555
C11 C12 1_555 1_555
C12 N2 1_555 1_555
C13 C10 1_555 1_555
C14 C7 1_555 1_555
N3 C15 1_555 1_555
C15 C16 1_555 1_555
C16 C17 1_555 1_555
C17 C18 1_555 1_555
C18 C19 1_555 1_555
C19 N3 1_555 1_555
C20 C17 1_555 1_555
C21 C20 1_555 1_555
N4 C22 1_555 1_555
C22 C23 1_555 1_555
C23 C24 1_555 1_555
C24 C25 1_555 1_555
C25 C26 1_555 1_555
C26 N4 1_555 1_555
C27 C24 1_555 1_555
C28 C21 1_555 1_555
N5 C29 1_555 1_555
C29 C30 1_555 1_555
C30 C31 1_555 1_555
C31 C32 1_555 1_555
C32 C33 1_555 1_555
C33 N5 1_555 1_555
C34 C31 1_555 1_555
C35 C34 1_555 1_555
N6 C36 1_555 1_555
C36 C37 1_555 1_555
C37 C38 1_555 1_555
C38 C39 1_555 1_555
C39 C40 1_555 1_555
C40 N6 1_555 1_555
C41 C38 1_555 1_555
C42 C35 1_555 1_555
Cu1 N1 1_555 1_555
Cu2 N2 1_555 1_555
N7 Cu1 1_555 1_555
C43 N7 1_555 1_555
C44 C43 1_555 1_555
N8 Cu2 1_555 1_555
C45 N8 1_555 1_555
C46 C45 1_555 1_555
P1 F1 1_555 1_555
F2 P1 1_555 1_555
F3 P1 1_555 1_555
F4 P1 1_555 1_555
F5 P1 1_555 1_555
F6 P1 1_555 1_555
P2 F13 1_555 1_555
F14 P2 1_555 1_555
F15 P2 1_555 1_555
F16 P2 1_555 1_555
F17 P2 1_555 1_555
F18 P2 1_555 1_555
C47 C48 1_555 1_555
C48 O1 1_555 1_555
O1 C49 1_555 1_555
C49 C50 1_555 1_555
C50 H38 1_555 1_555
N9 C51 1_555 1_555
C51 C52 1_555 1_555
H1 C1 1_555 1_555
H2 C2 1_555 1_555
H3 C4 1_555 1_555
H4 C5 1_555 1_555
H5 C8 1_555 1_555
H6 C9 1_555 1_555
H7 C11 1_555 1_555
H8 C12 1_555 1_555
H9 C15 1_555 1_555
H10 C16 1_555 1_555
H11 C18 1_555 1_555
H12 C19 1_555 1_555
H13 C22 1_555 1_555
H14 C23 1_555 1_555
H15 C25 1_555 1_555
H16 C26 1_555 1_555
H17 C29 1_555 1_555
H18 C30 1_555 1_555
H19 C32 1_555 1_555
H20 C33 1_555 1_555
H21 C36 1_555 1_555
H22 C37 1_555 1_555
H23 C39 1_555 1_555
H24 C40 1_555 1_555
H25 C44 1_555 1_555
H26 C44 1_555 1_555
H27 C44 1_555 1_555
H28 C46 1_555 1_555
H29 C46 1_555 1_555
H30 C46 1_555 1_555
H31 C47 1_555 1_555
H32 C47 1_555 1_555
H33 C47 1_555 1_555
H34 C48 1_555 1_555
H35 C48 1_555 1_555
H36 C49 1_555 1_555
H37 C49 1_555 1_555
H39 C50 1_555 1_555
H40 C50 1_555 1_555
Cu2A N4 1_555 1_555
Cu2_2 N5 1_555 1_555
N4A Cu2 1_555 1_555
N5_2 Cu2 1_555 1_555
C13 C14 1_555 1_555
N3 Cu1 1_555 1_555
C27 C28 1_555 1_555
N6 Cu1 1_555 1_555
C41 C42 1_555 1_555

#END
