
#######################################################################
#
#                 Cambridge Crystallographic Data Centre
#                                CCDC 
#
#######################################################################
#
# If this CIF has been generated from an entry in the Cambridge 
# Structural Database, then it will include bibliographic, chemical, 
# crystal, experimental, refinement or atomic coordinate data resulting 
# from the CCDC's data processing and validation procedures.
#
#######################################################################

data_NIWVAR
_symmetry_cell_setting           orthorhombic
_symmetry_space_group_name_H-M   'C m c m'
_symmetry_Int_Tables_number      63
_space_group_name_Hall           '-C 2n 2'
loop_
_symmetry_equiv_pos_site_id
_symmetry_equiv_pos_as_xyz
1 x,y,z
2 1/2+x,1/2+y,z
3 -x,-y,1/2+z
4 x,-y,-z
5 -x,y,1/2-z
6 1/2-x,1/2-y,1/2+z
7 1/2+x,1/2-y,-z
8 1/2-x,1/2+y,1/2-z
9 -x,-y,-z
10 1/2-x,1/2-y,-z
11 x,y,1/2-z
12 -x,y,z
13 x,-y,1/2+z
14 1/2+x,1/2+y,1/2-z
15 1/2-x,1/2+y,z
16 1/2+x,1/2-y,1/2+z
_cell_length_a                   7.5198(5)
_cell_length_b                   13.3712(9)
_cell_length_c                   14.2231(9)
_cell_angle_alpha                90
_cell_angle_beta                 90
_cell_angle_gamma                90
_cell_volume                     1430.11
loop_
_atom_site_label
_atom_site_type_symbol
_atom_site_fract_x
_atom_site_fract_y
_atom_site_fract_z
In1 In 0.5000 0.30934(5) 0.2500
Br1 Br 0.5000 0.30060(8) 0.43227(5)
Br2 Br 0.5000 0.50346(9) 0.2500
O1 O 0.5000 0.1475(6) 0.2500
N1 N 0.1844(8) 0.2972(4) 0.2500
C1 C 0.0923(10) 0.2934(11) 0.1736(5)
H1 H 0.1531 0.2904 0.1151
In1_2 In -0.5000 0.30934(5) 0.2500
Br1J Br 0.5000 0.30060(8) 0.06773(5)
N1K N -0.1844(8) 0.2972(4) 0.2500
N1K_2 N 0.8156(8) 0.2972(4) 0.2500
C1K C -0.0923(10) 0.2934(11) 0.1736(5)
C1D C -0.0923(10) 0.2934(11) 0.3264(5)
C1J C 0.0923(10) 0.2934(11) 0.3264(5)
H1J H 0.1531 0.2904 0.3849
H1D H -0.1531 0.2904 0.3849
H1K H -0.1531 0.2904 0.1151
N2 N 0.5000 0.0364(8) 0.0912(10)
C2 C 0.3491(12) 0.0194(6) 0.0444(9)
H2 H 0.2389 0.0347 0.0736
N2H N 0.5000 -0.0364(8) -0.0912(10)
C2C C 0.3491(12) -0.0194(6) -0.0444(9)
C2H C 0.6509(12) -0.0194(6) -0.0444(9)
C2K C 0.6509(12) 0.0194(6) 0.0444(9)
H2K H 0.7611 0.0347 0.0736
H2H H 0.7611 -0.0347 -0.0736
H2C H 0.2389 -0.0347 -0.0736
loop_
_geom_bond_atom_site_label_1
_geom_bond_atom_site_label_2
_geom_bond_site_symmetry_1
_geom_bond_site_symmetry_2
In1 Br1 1_555 1_555
Br2 In1 1_555 1_555
O1 In1 1_555 1_555
N1 In1 1_555 1_555
C1 N1 1_555 1_555
H1 C1 1_555 1_555
N2 C2 1_555 1_555
C2 H2 1_555 1_555
In1_2 N1K 1_555 1_555
Br1J In1 1_555 1_555
N1K C1K 1_555 1_555
N1K_2 In1 1_555 1_555
C1K C1 1_555 1_555
C1D N1K 1_555 1_555
C1J N1 1_555 1_555
H1J C1J 1_555 1_555
H1D C1D 1_555 1_555
H1K C1K 1_555 1_555
N2H C2C 1_555 1_555
C2C C2 1_555 1_555
C2H N2H 1_555 1_555
C2K N2 1_555 1_555
H2K C2K 1_555 1_555
H2H C2H 1_555 1_555
H2C C2C 1_555 1_555
C1D C1J 1_555 1_555
C2H C2K 1_555 1_555

#END
