
#######################################################################
#
#                 Cambridge Crystallographic Data Centre
#                                CCDC 
#
#######################################################################
#
# If this CIF has been generated from an entry in the Cambridge 
# Structural Database, then it will include bibliographic, chemical, 
# crystal, experimental, refinement or atomic coordinate data resulting 
# from the CCDC's data processing and validation procedures.
#
#######################################################################

data_NIWXUO
_symmetry_cell_setting           monoclinic
_symmetry_space_group_name_H-M   'P 21/c'
_symmetry_Int_Tables_number      14
_space_group_name_Hall           '-P 2ybc'
loop_
_symmetry_equiv_pos_site_id
_symmetry_equiv_pos_as_xyz
1 x,y,z
2 -x,1/2+y,1/2-z
3 -x,-y,-z
4 x,1/2-y,1/2+z
_cell_length_a                   15.157(3)
_cell_length_b                   16.822(3)
_cell_length_c                   8.6649(17)
_cell_angle_alpha                90
_cell_angle_beta                 100.08(3)
_cell_angle_gamma                90
_cell_volume                     2175.2
loop_
_atom_site_label
_atom_site_type_symbol
_atom_site_fract_x
_atom_site_fract_y
_atom_site_fract_z
Zn1 Zn 0.667102(17) 0.126577(15) 0.73673(3)
O1 O 0.57281(11) 0.20497(10) 0.7554(2)
O2 O 0.48200(14) 0.11793(10) 0.8459(3)
O3 O 0.38215(12) 0.52991(9) 0.8821(2)
O4 O 0.48434(13) 0.48658(10) 0.7437(3)
O5 O 0.24278(12) 0.19815(10) 1.0970(2)
O6 O 0.21341(12) 0.32568(11) 1.1414(2)
C1 C 0.45132(14) 0.25332(13) 0.8684(3)
C2 C 0.46783(14) 0.33210(13) 0.8337(3)
H1 H 0.5138 0.3446 0.7795
C3 C 0.41482(15) 0.39217(13) 0.8809(3)
C4 C 0.34628(15) 0.37357(13) 0.9634(3)
H2 H 0.3115 0.4138 0.9954
C5 C 0.33015(14) 0.29482(13) 0.9975(3)
C6 C 0.38227(15) 0.23467(13) 0.9490(3)
H3 H 0.3709 0.1819 0.9705
C7 C 0.50626(15) 0.18700(13) 0.8184(3)
C8 C 0.42727(15) 0.47616(13) 0.8347(3)
C9 C 0.25608(15) 0.27609(14) 1.0862(3)
O7 O 0.82091(11) 0.07572(10) 0.6643(2)
O8 O 0.74856(11) 0.18983(10) 0.6362(2)
O9 O 0.93748(12) 0.42907(10) 0.5583(2)
O10 O 1.03590(13) 0.41487(10) 0.3961(2)
O11 O 1.07271(13) 0.04054(10) 0.3912(2)
O12 O 1.13221(12) 0.13818(10) 0.2695(2)
C10 C 0.88796(14) 0.18355(13) 0.5455(3)
C11 C 0.94778(15) 0.13520(13) 0.4841(3)
H4 H 0.9427 0.0802 0.4901
C12 C 1.01532(14) 0.16832(13) 0.4135(3)
C13 C 1.02396(14) 0.25058(13) 0.4051(3)
H5 H 1.0680 0.2729 0.3562
C14 C 0.96581(14) 0.29908(13) 0.4710(3)
C15 C 0.89743(15) 0.26585(13) 0.5393(3)
H6 H 0.8581 0.2987 0.5809
C16 C 0.81536(14) 0.14618(13) 0.6207(3)
C17 C 1.07937(15) 0.11537(13) 0.3502(3)
C18 C 0.97827(15) 0.38718(13) 0.4776(3)
N1 N 0.70261(13) 0.08359(12) 0.9563(2)
C19 C 0.68824(18) 0.12663(16) 1.0804(3)
H7 H 0.6637 0.1772 1.0638
C20 C 0.7088(2) 0.0979(2) 1.2310(3)
H8 H 0.6992 0.1290 1.3152
C21 C 0.7442(2) 0.0219(2) 1.2554(4)
H9 H 0.7586 0.0015 1.3564
C22 C 0.7577(2) -0.02268(18) 1.1292(4)
H10 H 0.7803 -0.0741 1.1432
C23 C 0.73733(18) 0.00988(16) 0.9809(3)
H11 H 0.7478 -0.0199 0.8955
Zn1A Zn 0.332898(17) 0.626577(15) 0.76327(3)
O3A O 0.61785(12) 0.02991(9) 0.6179(2)
loop_
_geom_bond_atom_site_label_1
_geom_bond_atom_site_label_2
_geom_bond_site_symmetry_1
_geom_bond_site_symmetry_2
Zn1 O1 1_555 1_555
O1 C7 1_555 1_555
O2 C7 1_555 1_555
O3 C8 1_555 1_555
O4 C8 1_555 1_555
O5 C9 1_555 1_555
O6 C9 1_555 1_555
C1 C2 1_555 1_555
C2 H1 1_555 1_555
C3 C2 1_555 1_555
C4 C3 1_555 1_555
H2 C4 1_555 1_555
C5 C4 1_555 1_555
C6 C1 1_555 1_555
H3 C6 1_555 1_555
C7 C1 1_555 1_555
C8 C3 1_555 1_555
C9 C5 1_555 1_555
O7 C16 1_555 1_555
O8 Zn1 1_555 1_555
O9 C18 1_555 1_555
O10 C18 1_555 1_555
O11 C17 1_555 1_555
O12 C17 1_555 1_555
C10 C11 1_555 1_555
C11 H4 1_555 1_555
C12 C11 1_555 1_555
C13 C12 1_555 1_555
H5 C13 1_555 1_555
C14 C13 1_555 1_555
C15 C10 1_555 1_555
H6 C15 1_555 1_555
C16 O8 1_555 1_555
C17 C12 1_555 1_555
C18 C14 1_555 1_555
N1 Zn1 1_555 1_555
C19 N1 1_555 1_555
H7 C19 1_555 1_555
C20 C19 1_555 1_555
H8 C20 1_555 1_555
C21 C20 1_555 1_555
H9 C21 1_555 1_555
C22 C21 1_555 1_555
H10 C22 1_555 1_555
C23 N1 1_555 1_555
H11 C23 1_555 1_555
Zn1A O3 1_555 1_555
O3A Zn1 1_555 1_555
C5 C6 1_555 1_555
C10 C16 1_555 1_555
C14 C15 1_555 1_555
C22 C23 1_555 1_555

#END
