
#######################################################################
#
#                 Cambridge Crystallographic Data Centre
#                                CCDC 
#
#######################################################################
#
# If this CIF has been generated from an entry in the Cambridge 
# Structural Database, then it will include bibliographic, chemical, 
# crystal, experimental, refinement or atomic coordinate data resulting 
# from the CCDC's data processing and validation procedures.
#
#######################################################################

data_NIXBUS
_symmetry_cell_setting           monoclinic
_symmetry_space_group_name_H-M   'P 21/c'
_symmetry_Int_Tables_number      14
_space_group_name_Hall           '-P 2ybc'
loop_
_symmetry_equiv_pos_site_id
_symmetry_equiv_pos_as_xyz
1 x,y,z
2 -x,1/2+y,1/2-z
3 -x,-y,-z
4 x,1/2-y,1/2+z
_cell_length_a                   15.715(3)
_cell_length_b                   11.425(2)
_cell_length_c                   27.309(6)
_cell_angle_alpha                90.00
_cell_angle_beta                 104.72(3)
_cell_angle_gamma                90.00
_cell_volume                     4742.24
loop_
_atom_site_label
_atom_site_type_symbol
_atom_site_fract_x
_atom_site_fract_y
_atom_site_fract_z
Pb1 Pb 0.99003(2) 0.65042(3) 0.157232(12)
Cl1 Cl 0.97696(14) 0.38209(18) 0.22577(8)
O1 O 1.0252(4) 0.5944(6) 0.0807(2)
O3 O 1.0072(5) 0.3961(5) 0.1806(3)
O7 O 0.9898(5) 0.4888(6) 0.2539(3)
O8 O 0.8858(5) 0.3514(7) 0.2127(3)
O9 O 1.0273(5) 0.2898(6) 0.2565(3)
N1 N 0.8392(5) 0.5765(6) 0.0966(3)
N2 N 0.8936(5) 0.8005(6) 0.1018(3)
N3 N 1.0656(5) 0.8383(7) 0.1495(3)
N4 N 1.1623(5) 0.6447(7) 0.1783(3)
C1 C 0.8161(6) 0.4640(8) 0.0927(4)
H2 H 0.8585 0.4073 0.1097
C2 C 0.7337(6) 0.4235(9) 0.0652(4)
H3 H 0.7196 0.3416 0.0631
C3 C 0.6734(6) 0.5072(9) 0.0410(4)
H4 H 0.6157 0.4838 0.0221
C4 C 0.6964(6) 0.6231(9) 0.0443(4)
H5 H 0.6552 0.6811 0.0274
C5 C 0.7804(6) 0.6569(8) 0.0725(3)
C6 C 0.8107(6) 0.7814(8) 0.0771(3)
C7 C 0.7522(6) 0.8725(9) 0.0558(4)
H6 H 0.6923 0.8562 0.0381
C8 C 0.7836(7) 0.9850(8) 0.0610(4)
H7 H 0.7447 1.0482 0.0469
C9 C 0.8699(7) 1.0095(8) 0.0860(4)
C10 C 0.9070(7) 1.1256(9) 0.0935(4)
H8 H 0.8707 1.1918 0.0804
C11 C 0.9915(8) 1.1427(9) 0.1187(4)
H9 H 1.0141 1.2211 0.1236
C12 C 1.0481(6) 1.0475(8) 0.1382(3)
C13 C 1.0160(6) 0.9334(8) 0.1328(3)
C14 C 0.9246(6) 0.9125(8) 0.1067(3)
C15 C 1.1352(7) 1.0631(10) 0.1641(4)
H10 H 1.1589 1.1408 0.1700
C16 C 1.1883(7) 0.9682(10) 0.1816(4)
H11 H 1.2491 0.9784 0.1991
C17 C 1.1504(6) 0.8550(9) 0.1729(4)
C18 C 1.2048(6) 0.7465(9) 0.1876(3)
C19 C 1.2965(7) 0.7495(11) 0.2073(4)
H12 H 1.3268 0.8230 0.2141
C20 C 1.3421(7) 0.6468(13) 0.2167(4)
H13 H 1.4047 0.6478 0.2306
C21 C 1.2985(7) 0.5422(12) 0.2062(4)
H14 H 1.3298 0.4692 0.2114
C22 C 1.2069(7) 0.5452(10) 0.1876(4)
H15 H 1.1752 0.4726 0.1813
Pb1A Pb 1.00997(2) 0.15042(3) 0.342768(12)
O9A O 0.9727(5) 0.7898(6) 0.2435(3)
Pb2 Pb 1.48237(2) 0.92471(3) 0.109172(13)
Cl3 Cl 1.39497(15) 1.1946(2) 0.19649(9)
Cl4 Cl 1.48014(14) 0.8011(2) -0.01322(8)
O2 O 1.4718(5) 0.9083(6) 0.1979(2)
H1 H 1.4833 0.8363 0.2123
O5 O 1.5389(5) 0.8334(8) 0.0343(3)
O10 O 1.4180(6) 1.1534(7) 0.1517(3)
N5 N 1.6416(5) 1.0034(7) 0.1533(3)
N6 N 1.6007(5) 0.7751(6) 0.1496(3)
N7 N 1.4261(5) 0.7165(7) 0.1068(3)
N8 N 1.3090(5) 0.8957(8) 0.0838(3)
O12 O 1.3948(5) 0.8375(10) -0.0133(4)
O14 O 1.5122(6) 0.8470(9) -0.0528(3)
O15 O 1.4486(7) 1.2926(9) 0.2163(3)
O16 O 1.4084(7) 1.1031(8) 0.2335(3)
O17 O 1.4810(7) 0.6782(8) -0.0163(4)
C23 C 1.6604(7) 1.1166(9) 0.1519(4)
H16 H 1.6134 1.1693 0.1368
C24 C 1.7446(6) 1.1636(8) 0.1711(4)
H17 H 1.7558 1.2461 0.1700
C25 C 1.8106(6) 1.0851(8) 0.1916(3)
H18 H 1.8696 1.1129 0.2048
C26 C 1.7934(6) 0.9691(8) 0.1933(3)
H19 H 1.8396 0.9151 0.2080
C27 C 1.7074(5) 0.9291(8) 0.1734(3)
C28 C 1.6841(6) 0.8035(8) 0.1719(3)
C29 C 1.7468(6) 0.7168(8) 0.1922(4)
H20 H 1.8061 0.7389 0.2087
C30 C 1.7238(7) 0.6025(9) 0.1885(4)
H21 H 1.7667 0.5435 0.2023
C31 C 1.6368(7) 0.5701(8) 0.1642(3)
C32 C 1.6095(8) 0.4479(9) 0.1587(4)
H22 H 1.6512 0.3869 0.1715
C33 C 1.5268(8) 0.4214(9) 0.1359(4)
H23 H 1.5097 0.3406 0.1320
C34 C 1.4623(7) 0.5102(9) 0.1170(4)
C35 C 1.4855(6) 0.6313(8) 0.1215(3)
C36 C 1.5774(6) 0.6593(8) 0.1457(3)
C37 C 1.3734(8) 0.4827(9) 0.0940(4)
H24 H 1.3546 0.4027 0.0889
C38 C 1.3154(7) 0.5712(10) 0.0792(4)
H25 H 1.2550 0.5526 0.0635
C39 C 1.3404(7) 0.6897(9) 0.0862(4)
C40 C 1.2779(6) 0.7868(9) 0.0723(3)
C41 C 1.1884(7) 0.7675(11) 0.0496(4)
H26 H 1.1658 0.6895 0.0427
C42 C 1.1335(7) 0.8631(12) 0.0375(4)
H27 H 1.0723 0.8520 0.0213
C43 C 1.1662(7) 0.9740(11) 0.0486(4)
H28 H 1.1285 1.0412 0.0405
C44 C 1.2552(6) 0.9867(10) 0.0719(4)
H29 H 1.2787 1.0640 0.0796
O18 O 1.3063(6) 1.2315(10) 0.1845(5)
Pb2B Pb 1.51763(2) 1.07529(3) -0.109172(13)
O14B O 1.4878(6) 1.1530(9) 0.0528(3)
Cl2 Cl 0.87418(15) 0.6649(2) -0.04232(9)
O4 O 0.8818(5) 0.5645(7) -0.0091(3)
O6 O 0.8902(6) 0.6273(7) -0.0894(3)
O11 O 0.7878(5) 0.7131(8) -0.0513(3)
O13 O 0.9360(6) 0.7512(8) -0.0188(3)
loop_
_geom_bond_atom_site_label_1
_geom_bond_atom_site_label_2
_geom_bond_site_symmetry_1
_geom_bond_site_symmetry_2
Pb1 O1 1_555 1_555
Pb2 O2 1_555 1_555
Cl1 O3 1_555 1_555
Cl2 O4 1_555 1_555
Cl3 O10 1_555 1_555
Cl4 O5 1_555 1_555
O2 H1 1_555 1_555
O3 Pb1 1_555 1_555
O5 Pb2 1_555 1_555
O6 Cl2 1_555 1_555
O7 Pb1 1_555 1_555
O8 Cl1 1_555 1_555
O9 Cl1 1_555 1_555
N1 Pb1 1_555 1_555
N2 Pb1 1_555 1_555
N3 Pb1 1_555 1_555
N4 Pb1 1_555 1_555
O10 Pb2 1_555 1_555
O11 Cl2 1_555 1_555
N5 Pb2 1_555 1_555
N6 Pb2 1_555 1_555
N7 Pb2 1_555 1_555
N8 Pb2 1_555 1_555
O12 Cl4 1_555 1_555
O13 Cl2 1_555 1_555
O14 Cl4 1_555 1_555
C1 N1 1_555 1_555
H2 C1 1_555 1_555
C2 C1 1_555 1_555
H3 C2 1_555 1_555
C3 C2 1_555 1_555
H4 C3 1_555 1_555
C4 C3 1_555 1_555
H5 C4 1_555 1_555
C5 N1 1_555 1_555
C6 N2 1_555 1_555
C7 C6 1_555 1_555
H6 C7 1_555 1_555
C8 C7 1_555 1_555
H7 C8 1_555 1_555
C9 C8 1_555 1_555
C10 C9 1_555 1_555
H8 C10 1_555 1_555
C11 C10 1_555 1_555
H9 C11 1_555 1_555
C12 C11 1_555 1_555
C13 N3 1_555 1_555
C14 N2 1_555 1_555
C15 C12 1_555 1_555
H10 C15 1_555 1_555
C16 C15 1_555 1_555
H11 C16 1_555 1_555
C17 N3 1_555 1_555
C18 N4 1_555 1_555
C19 C18 1_555 1_555
H12 C19 1_555 1_555
C20 C19 1_555 1_555
H13 C20 1_555 1_555
C21 C20 1_555 1_555
H14 C21 1_555 1_555
C22 N4 1_555 1_555
H15 C22 1_555 1_555
O15 Cl3 1_555 1_555
O16 Cl3 1_555 1_555
O17 Cl4 1_555 1_555
C23 N5 1_555 1_555
H16 C23 1_555 1_555
C24 C23 1_555 1_555
H17 C24 1_555 1_555
C25 C24 1_555 1_555
H18 C25 1_555 1_555
C26 C25 1_555 1_555
H19 C26 1_555 1_555
C27 N5 1_555 1_555
C28 N6 1_555 1_555
C29 C28 1_555 1_555
H20 C29 1_555 1_555
C30 C29 1_555 1_555
H21 C30 1_555 1_555
C31 C30 1_555 1_555
C32 C31 1_555 1_555
H22 C32 1_555 1_555
C33 C32 1_555 1_555
H23 C33 1_555 1_555
C34 C33 1_555 1_555
C35 N7 1_555 1_555
C36 N6 1_555 1_555
C37 C34 1_555 1_555
H24 C37 1_555 1_555
C38 C37 1_555 1_555
H25 C38 1_555 1_555
C39 N7 1_555 1_555
C40 N8 1_555 1_555
C41 C40 1_555 1_555
H26 C41 1_555 1_555
C42 C41 1_555 1_555
H27 C42 1_555 1_555
C43 C42 1_555 1_555
H28 C43 1_555 1_555
C44 N8 1_555 1_555
H29 C44 1_555 1_555
O18 Cl3 1_555 1_555
Pb1A O9 1_555 1_555
Pb2B O14 1_555 1_555
O9A Pb1 1_555 1_555
O14B Pb2 1_555 1_555
Cl1 O7 1_555 1_555
C4 C5 1_555 1_555
C5 C6 1_555 1_555
C9 C14 1_555 1_555
C12 C13 1_555 1_555
C13 C14 1_555 1_555
C16 C17 1_555 1_555
C17 C18 1_555 1_555
C21 C22 1_555 1_555
C26 C27 1_555 1_555
C27 C28 1_555 1_555
C31 C36 1_555 1_555
C34 C35 1_555 1_555
C35 C36 1_555 1_555
C38 C39 1_555 1_555
C39 C40 1_555 1_555
C43 C44 1_555 1_555

#END
