
#######################################################################
#
#                 Cambridge Crystallographic Data Centre
#                                CCDC 
#
#######################################################################
#
# If this CIF has been generated from an entry in the Cambridge 
# Structural Database, then it will include bibliographic, chemical, 
# crystal, experimental, refinement or atomic coordinate data resulting 
# from the CCDC's data processing and validation procedures.
#
#######################################################################

data_NIXCUT
_symmetry_cell_setting           orthorhombic
_symmetry_space_group_name_H-M   'P n m a'
_symmetry_Int_Tables_number      62
_space_group_name_Hall           '-P 2ac 2n'
loop_
_symmetry_equiv_pos_site_id
_symmetry_equiv_pos_as_xyz
1 x,y,z
2 1/2-x,-y,1/2+z
3 -x,1/2+y,-z
4 1/2+x,1/2-y,1/2-z
5 -x,-y,-z
6 1/2+x,y,1/2-z
7 x,1/2-y,z
8 1/2-x,1/2+y,1/2+z
_cell_length_a                   10.438(2)
_cell_length_b                   8.6510(17)
_cell_length_c                   10.398(2)
_cell_angle_alpha                90
_cell_angle_beta                 90
_cell_angle_gamma                90
_cell_volume                     938.93
loop_
_atom_site_label
_atom_site_type_symbol
_atom_site_fract_x
_atom_site_fract_y
_atom_site_fract_z
Eu1 Eu 1.14810(3) 0.2500 0.11296(3)
P1 P 0.84041(10) 0.07489(14) 0.12664(10)
O1 O 0.9760(3) 0.0793(4) 0.1808(3)
O2 O 0.7381(3) 0.0838(3) 0.2298(3)
O3 O 0.8179(3) -0.0615(4) 0.0393(3)
O4 O 0.9474(4) 0.2500 -0.0505(4)
C1 C 0.8298(5) 0.2500 0.0285(6)
C2 C 0.7116(6) 0.2500 -0.0578(6)
H1 H 0.6342 0.2500 -0.0044
H2 H 0.7123 0.1575 -0.1122
H3 H 0.7123 0.3425 -0.1122
O5 O 1.3847(5) 0.2500 0.0782(5)
H4 H 1.408(6) 0.1604(6) 0.032(4)
Eu1E Eu 0.64810(3) 0.2500 0.38704(3)
Eu1D Eu 0.85190(3) -0.2500 -0.11296(3)
Eu1D_2 Eu 0.85190(3) 0.7500 -0.11296(3)
P1F P 0.84041(10) 0.42511(14) 0.12664(10)
O1F O 0.9760(3) 0.4207(4) 0.1808(3)
O2F O 0.7381(3) 0.4162(3) 0.2298(3)
O2E O 1.2381(3) 0.0838(3) 0.2702(3)
O2C O 1.2381(3) 0.4162(3) 0.2702(3)
O3F O 0.8179(3) 0.5615(4) 0.0393(3)
O3D O 1.1821(3) 0.0615(4) -0.0393(3)
O3B O 1.1821(3) 0.4385(4) -0.0393(3)
H4F H 1.408(6) 0.3396(6) 0.032(4)
Na1 Na 1.0900(5) -0.1211(6) 0.2538(7)
O6 O 1.5000 0.0000 0.0000
Na2? Na 1.0683(5) -0.1293(8) 0.3422(6)
loop_
_geom_bond_atom_site_label_1
_geom_bond_atom_site_label_2
_geom_bond_site_symmetry_1
_geom_bond_site_symmetry_2
Eu1 O1 1_555 1_555
P1 O1 1_555 1_555
O2 P1 1_555 1_555
O3 P1 1_555 1_555
O4 Eu1 1_555 1_555
C1 P1 1_555 1_555
C2 C1 1_555 1_555
H1 C2 1_555 1_555
H2 C2 1_555 1_555
H3 C2 1_555 1_555
O5 Eu1 1_555 1_555
H4 O5 1_555 1_555
Eu1E O2 1_555 1_555
Eu1D O3 1_555 1_555
Eu1D_2 O3F 1_555 1_555
P1F C1 1_555 1_555
O1F Eu1 1_555 1_555
O2F Eu1E 1_555 1_555
O2E Eu1 1_555 1_555
O2C Eu1 1_555 1_555
O3F P1F 1_555 1_555
O3D Eu1 1_555 1_555
O3B Eu1 1_555 1_555
H4F O5 1_555 1_555
O4 C1 1_555 1_555
P1F O1F 1_555 1_555
P1F O2F 1_555 1_555

#END
