
#######################################################################
#
#                 Cambridge Crystallographic Data Centre
#                                CCDC 
#
#######################################################################
#
# If this CIF has been generated from an entry in the Cambridge 
# Structural Database, then it will include bibliographic, chemical, 
# crystal, experimental, refinement or atomic coordinate data resulting 
# from the CCDC's data processing and validation procedures.
#
#######################################################################

data_NIXCIH
_symmetry_cell_setting           orthorhombic
_symmetry_space_group_name_H-M   'P n m a'
_symmetry_Int_Tables_number      62
_space_group_name_Hall           '-P 2ac 2n'
loop_
_symmetry_equiv_pos_site_id
_symmetry_equiv_pos_as_xyz
1 x,y,z
2 1/2-x,-y,1/2+z
3 -x,1/2+y,-z
4 1/2+x,1/2-y,1/2-z
5 -x,-y,-z
6 1/2+x,y,1/2-z
7 x,1/2-y,z
8 1/2-x,1/2+y,1/2+z
_cell_length_a                   10.755(2)
_cell_length_b                   8.8470(18)
_cell_length_c                   10.534(2)
_cell_angle_alpha                90
_cell_angle_beta                 90
_cell_angle_gamma                90
_cell_volume                     1002.3
loop_
_atom_site_label
_atom_site_type_symbol
_atom_site_fract_x
_atom_site_fract_y
_atom_site_fract_z
Na1 Na 0.4252(7) 0.8770(10) 0.2625(8)
La1 La 0.35880(3) 0.2500 0.11401(3)
O1 O 0.5339(3) 0.0802(4) 0.1872(3)
O2 O 0.6807(4) -0.0562(5) 0.0392(4)
O3 O 0.7676(3) 0.0831(4) 0.2244(4)
O4 O 0.5578(4) 0.2500 -0.0445(4)
P1 P 0.66329(10) 0.07672(15) 0.12737(12)
O5 O 0.1137(5) 0.2500 0.0771(6)
H1 H 0.087(8) 0.1623(6) 0.121(5)
C1 C 0.6719(6) 0.2500 0.0314(6)
C2 C 0.7856(6) 0.2500 -0.0551(7)
H2 H 0.8613 0.2500 -0.0033
H3 H 0.7843 0.3404 -0.1088
H4 H 0.7843 0.1596 -0.1088
La1D La 0.64120(3) -0.2500 -0.11401(3)
La1E La 0.85880(3) 0.2500 0.38599(3)
La1D_2 La 0.64120(3) 0.7500 -0.11401(3)
O1F O 0.5339(3) 0.4198(4) 0.1872(3)
O2F O 0.6807(4) 0.5562(5) 0.0392(4)
O2D O 0.3193(4) 0.0562(5) -0.0392(4)
O2B O 0.3193(4) 0.4438(5) -0.0392(4)
O3F O 0.7676(3) 0.4169(4) 0.2244(4)
O3E O 0.2676(3) 0.0831(4) 0.2756(4)
O3C O 0.2676(3) 0.4169(4) 0.2756(4)
P1F P 0.66329(10) 0.42328(15) 0.12737(12)
H1F H 0.087(8) 0.3377(6) 0.121(5)
Na2? Na 0.9245(6) 0.8838(11) 0.1555(8)
O6? O 0.9640(15) 0.963(2) 0.0090(19)
loop_
_geom_bond_atom_site_label_1
_geom_bond_atom_site_label_2
_geom_bond_site_symmetry_1
_geom_bond_site_symmetry_2
La1 O1 1_555 1_555
O1 P1 1_555 1_555
O2 P1 1_555 1_555
O3 P1 1_555 1_555
O4 La1 1_555 1_555
P1 C1 1_555 1_555
O5 La1 1_555 1_555
H1 O5 1_555 1_555
C1 O4 1_555 1_555
C2 C1 1_555 1_555
H2 C2 1_555 1_555
H3 C2 1_555 1_555
H4 C2 1_555 1_555
La1D O2 1_555 1_555
La1E O3 1_555 1_555
La1D_2 O2F 1_555 1_555
O1F La1 1_555 1_555
O2F P1F 1_555 1_555
O2D La1 1_555 1_555
O2B La1 1_555 1_555
O3F La1E 1_555 1_555
O3E La1 1_555 1_555
O3C La1 1_555 1_555
P1F C1 1_555 1_555
H1F O5 1_555 1_555
O1F P1F 1_555 1_555
O3F P1F 1_555 1_555

#END
