
#######################################################################
#
#                 Cambridge Crystallographic Data Centre
#                                CCDC 
#
#######################################################################
#
# If this CIF has been generated from an entry in the Cambridge 
# Structural Database, then it will include bibliographic, chemical, 
# crystal, experimental, refinement or atomic coordinate data resulting 
# from the CCDC's data processing and validation procedures.
#
#######################################################################

data_NIXDIH
_symmetry_cell_setting           monoclinic
_symmetry_space_group_name_H-M   'P 21/c'
_symmetry_Int_Tables_number      14
_space_group_name_Hall           '-P 2ybc'
loop_
_symmetry_equiv_pos_site_id
_symmetry_equiv_pos_as_xyz
1 x,y,z
2 -x,1/2+y,1/2-z
3 -x,-y,-z
4 x,1/2-y,1/2+z
_cell_length_a                   15.879(5)
_cell_length_b                   7.383(2)
_cell_length_c                   10.475(3)
_cell_angle_alpha                90
_cell_angle_beta                 105.01(5)
_cell_angle_gamma                90
_cell_volume                     1186.13
loop_
_atom_site_label
_atom_site_type_symbol
_atom_site_fract_x
_atom_site_fract_y
_atom_site_fract_z
Zn1 Zn 0.41802(4) 0.40730(8) 0.61634(5)
P1 P 0.39839(8) 0.0926(2) 0.8072(1)
P2 P 0.3132(1) -0.2079(2) 0.9358(1)
O1 O 0.3619(2) 0.2320(5) 0.7009(3)
O2 O 0.4224(2) 0.1758(5) 0.9430(3)
O3 O 0.4707(2) -0.0177(6) 0.7772(3)
O4 O 0.3323(2) -0.1086(5) 1.0656(3)
C1 C 0.3070(4) -0.0584(7) 0.7996(5)
C2 C 0.3901(4) -0.3814(8) 0.9348(6)
C3 C 0.2075(4) -0.3093(9) 0.9044(6)
C4 C 0.1852(6) -0.452(1) 0.8176(9)
C5 C 0.1036(9) -0.525(2) 0.787(1)
C6 C 0.0425(8) -0.453(2) 0.841(1)
C7 C 0.0626(6) -0.316(2) 0.931(1)
C8 C 0.1453(5) -0.239(1) 0.9588(8)
H1 H 0.2551(4) 0.0154(7) 0.7892(5)
H2 H 0.2988(4) -0.1315(7) 0.7204(5)
H3 H 0.374(2) -0.445(4) 0.852(2)
H4 H 0.391(2) -0.465(3) 1.006(3)
H5 H 0.4469(6) -0.3288(9) 0.946(4)
H6 H 0.2270(6) -0.5(1) 0.7790(9)
H7 H 0.0900(8) -0.623(2) 0.729(1)
H8 H -0.0141(8) -0.498(2) 0.817(1)
H9 H 0.0214(6) -0.274(2) 0.973(1)
H10 H 0.1584(5) -0.140(1) 1.0150(8)
O2C O 0.4224(2) 0.3242(5) 0.4430(3)
O3A O 0.5293(2) 0.4823(6) 0.7228(3)
O4C O 0.3323(2) 0.6086(5) 0.5656(3)
Zn1C Zn 0.41802(4) 0.09270(8) 1.11634(5)
Zn1A Zn 0.58198(4) -0.09270(8) 0.88366(5)
O5 O 0.8224(7) 0.756(2) 0.929(1)
loop_
_geom_bond_atom_site_label_1
_geom_bond_atom_site_label_2
_geom_bond_site_symmetry_1
_geom_bond_site_symmetry_2
Zn1 O1 1_555 1_555
P1 O1 1_555 1_555
P2 O4 1_555 1_555
O2 P1 1_555 1_555
O3 P1 1_555 1_555
O4 Zn1C 1_555 1_555
C1 P1 1_555 1_555
C2 P2 1_555 1_555
C3 P2 1_555 1_555
C4 C3 1_555 1_555
C5 C4 1_555 1_555
C6 C5 1_555 1_555
C7 C6 1_555 1_555
C8 C3 1_555 1_555
H1 C1 1_555 1_555
H2 C1 1_555 1_555
H3 C2 1_555 1_555
H4 C2 1_555 1_555
H5 C2 1_555 1_555
H6 C4 1_555 1_555
H7 C5 1_555 1_555
H8 C6 1_555 1_555
H9 C7 1_555 1_555
H10 C8 1_555 1_555
O2C Zn1 1_555 1_555
O3A Zn1 1_555 1_555
O4C Zn1 1_555 1_555
Zn1C O2 1_555 1_555
Zn1A O3 1_555 1_555
P2 C1 1_555 1_555
C7 C8 1_555 1_555

#END
