
#######################################################################
#
#                 Cambridge Crystallographic Data Centre
#                                CCDC 
#
#######################################################################
#
# If this CIF has been generated from an entry in the Cambridge 
# Structural Database, then it will include bibliographic, chemical, 
# crystal, experimental, refinement or atomic coordinate data resulting 
# from the CCDC's data processing and validation procedures.
#
#######################################################################

data_NIXFIK
_symmetry_cell_setting           monoclinic
_symmetry_space_group_name_H-M   'P 21/c'
_symmetry_Int_Tables_number      14
_space_group_name_Hall           '-P 2ybc'
loop_
_symmetry_equiv_pos_site_id
_symmetry_equiv_pos_as_xyz
1 x,y,z
2 -x,1/2+y,1/2-z
3 -x,-y,-z
4 x,1/2-y,1/2+z
_cell_length_a                   11.6223(2)
_cell_length_b                   9.1515(2)
_cell_length_c                   11.1093(2)
_cell_angle_alpha                90
_cell_angle_beta                 111.3720(10)
_cell_angle_gamma                90
_cell_volume                     1100.35
loop_
_atom_site_label
_atom_site_type_symbol
_atom_site_fract_x
_atom_site_fract_y
_atom_site_fract_z
Y1 Y 0.55712(2) 0.19070(2) 0.08635(2)
P1 P 0.73781(6) 0.29931(7) -0.07613(6)
P2 P 0.58190(6) 0.03033(7) -0.18306(5)
O1 O 0.73124(16) 0.06437(19) 0.05309(15)
O2 O 0.87502(16) 0.34302(19) 0.00364(16)
O3 O 0.58808(15) -0.13646(18) -0.18408(15)
O4 O 0.38604(16) 0.32680(18) -0.05860(16)
O5 O 0.49192(15) 0.06864(18) -0.11469(14)
C1 C 0.7319(2) 0.0990(3) -0.0746(2)
O6 O 0.70186(15) 0.35403(18) -0.21321(15)
O7 O 0.55284(15) 0.09747(17) -0.31370(15)
C2 C 0.8381(2) 0.0299(3) -0.1028(2)
H1 H 0.9149 0.0699 -0.0454
H2 H 0.8290 0.0500 -0.1906
H3 H 0.8376 -0.0738 -0.0902
O8 O 0.65889(16) 0.34925(18) -0.00268(15)
H4 H 0.379(3) 0.4217(15) -0.031(2)
H10 H 0.931(2) 0.342(3) -0.040(3)
H12 H 0.390(3) 0.328(3) -0.1419(15)
H13 H 0.8021(18) 0.014(3) 0.106(2)
Y1B Y 0.44288(2) -0.19070(2) -0.08635(2)
Y1C Y 0.55712(2) 0.30930(2) -0.41365(2)
O3B O 0.41192(15) 0.13646(18) 0.18408(15)
O5B O 0.50808(15) -0.06864(18) 0.11469(14)
O6C O 0.70186(15) 0.14597(18) 0.28679(15)
O7C O 0.55284(15) 0.40253(17) 0.18630(15)
O9 O 0.76546(16) -0.34956(19) -0.14044(17)
H5 H 0.707(2) -0.273(2) -0.153(3)
H8 H 0.725(2) -0.4357(17) -0.180(3)
O10 O 0.91540(18) -0.0915(2) 0.22164(16)
H6 H 0.9788(19) -0.033(3) 0.279(2)
H7 H 0.866(2) -0.130(3) 0.266(2)
O11 O 1.04036(17) 0.3497(2) -0.10753(18)
H9 H 1.1134(17) 0.366(3) -0.0364(19)
H11 H 1.044(2) 0.264(2) -0.151(2)
loop_
_geom_bond_atom_site_label_1
_geom_bond_atom_site_label_2
_geom_bond_site_symmetry_1
_geom_bond_site_symmetry_2
Y1 O1 1_555 1_555
P1 O2 1_555 1_555
P2 O3 1_555 1_555
O1 C1 1_555 1_555
O2 H10 1_555 1_555
O3 Y1B 1_555 1_555
O4 Y1 1_555 1_555
O5 Y1 1_555 1_555
C1 P1 1_555 1_555
O6 P1 1_555 1_555
O7 P2 1_555 1_555
C2 C1 1_555 1_555
H1 C2 1_555 1_555
H2 C2 1_555 1_555
H3 C2 1_555 1_555
O8 Y1 1_555 1_555
O9 H5 1_555 1_555
O10 H6 1_555 1_555
O11 H9 1_555 1_555
H4 O4 1_555 1_555
H7 O10 1_555 1_555
H8 O9 1_555 1_555
H11 O11 1_555 1_555
H12 O4 1_555 1_555
H13 O1 1_555 1_555
Y1B O5 1_555 1_555
Y1C O6 1_555 1_555
O3B Y1 1_555 1_555
O5B Y1 1_555 1_555
O6C Y1 1_555 1_555
O7C Y1 1_555 1_555
P1 O8 1_555 1_555
P2 O5 1_555 1_555
P2 C1 1_555 1_555
O7 Y1C 1_555 1_555
Y1B O5B 1_555 1_555

#END
