
#######################################################################
#
#                 Cambridge Crystallographic Data Centre
#                                CCDC 
#
#######################################################################
#
# If this CIF has been generated from an entry in the Cambridge 
# Structural Database, then it will include bibliographic, chemical, 
# crystal, experimental, refinement or atomic coordinate data resulting 
# from the CCDC's data processing and validation procedures.
#
#######################################################################

data_NIXHUZ
_symmetry_cell_setting           monoclinic
_symmetry_space_group_name_H-M   'P 21'
_symmetry_Int_Tables_number      4
_space_group_name_Hall           'P 2yb'
loop_
_symmetry_equiv_pos_site_id
_symmetry_equiv_pos_as_xyz
1 x,y,z
2 -x,1/2+y,-z
_cell_length_a                   7.2123(5)
_cell_length_b                   24.0547(18)
_cell_length_c                   11.7186(8)
_cell_angle_alpha                90
_cell_angle_beta                 90.042(2)
_cell_angle_gamma                90
_cell_volume                     2033.06
loop_
_atom_site_label
_atom_site_type_symbol
_atom_site_fract_x
_atom_site_fract_y
_atom_site_fract_z
W1 W 0.00450(8) 0.79844(2) 0.35692(7)
W2 W -0.00464(8) 1.00993(2) -0.14347(7)
Co1 Co 0.5030(3) 0.88144(19) -0.3513(3)
Co2 Co 0.4968(3) 0.92678(18) 0.1490(3)
Co3 Co 0.5077(4) 0.65410(19) 0.2495(4)
O1 O 0.456(2) 0.8164(7) -0.2290(14)
H1 H 0.37(2) 0.836(4) -0.190(12)
O2 O 0.452(2) 0.4923(7) 0.7295(15)
H2 H 0.3338 0.4972 0.7477
O3 O 0.537(3) 0.9466(10) -0.474(2)
H3 H 0.5327 0.9637 -0.542(4)
H4 H 0.6332 0.9211 -0.482(9)
O4 O 0.466(2) 0.8605(9) 0.029(2)
H5 H 0.3531 0.8446 0.0124
H6 H 0.53(3) 0.861(11) -0.038(12)
N1 N 0.328(2) 0.7070(8) 0.293(2)
N2 N 0.001(5) 0.7651(16) 0.082(3)
N3 N 0.293(2) 0.8934(7) 0.2496(17)
N4 N 0.698(2) 0.8813(6) 0.2332(18)
N5 N 0.295(3) 0.8465(9) 0.544(2)
N6 N 0.710(2) 0.8397(9) -0.449(2)
N7 N 0.007(2) 0.6984(8) 0.5534(16)
N8 N 0.686(2) 0.7061(8) 0.2920(18)
N9 N 0.299(2) 0.9294(7) -0.2639(17)
N10 N -0.290(3) 0.9157(9) -0.2503(19)
N11 N -0.016(3) 1.0205(10) -0.4235(19)
N12 N 0.6907(18) 0.6028(6) 0.2074(17)
N13 N 0.324(2) 0.6011(8) 0.210(2)
N14 N -0.011(3) 1.1017(12) 0.072(3)
N15 N 0.2892(19) 0.9681(8) 0.0556(15)
N16 N 0.706(2) 0.9605(7) 0.0500(16)
C1 C 0.218(2) 0.7423(10) 0.315(2)
C2 C 0.017(3) 0.7923(10) 0.166(2)
C3 C 0.190(2) 0.8620(8) 0.2873(19)
C4 C 0.802(3) 0.8530(9) 0.275(2)
C5 C 0.190(3) 0.8320(10) 0.484(3)
C6 C 0.816(2) 0.8255(9) -0.5064(18)
C7 C 0.008(2) 0.7331(10) 0.497(2)
C8 C 0.797(2) 0.7413(8) 0.3147(17)
C9 C 0.189(2) 0.9572(9) -0.219(2)
C10 C -0.178(2) 0.9491(9) -0.2104(17)
C11 C -0.020(3) 1.0220(10) -0.319(2)
C12 C 0.794(3) 0.5696(9) 0.182(2)
C13 C 0.223(2) 0.5665(10) 0.178(2)
C14 C -0.006(3) 1.0735(11) -0.021(2)
C15 C 0.184(2) 0.9825(8) -0.0165(19)
C16 C 0.811(2) 0.9788(7) -0.0258(16)
N17 N 0.5116(14) 0.6853(5) 0.0978(8)
C17 C 0.3492(12) 0.6957(5) 0.0375(10)
H7 H 0.2325 0.6868 0.0703
C18 C 0.3577(15) 0.7191(6) -0.0708(10)
H8 H 0.2467 0.7262 -0.1120
C19 C 0.5284(18) 0.7321(7) -0.1188(9)
C20 C 0.6908(14) 0.7216(6) -0.0585(12)
H9 H 0.8075 0.7305 -0.0914
C21 C 0.6824(12) 0.6982(5) 0.0498(11)
H10 H 0.7933 0.6911 0.0910
C22 C 0.554(3) 0.7648(8) -0.2306(18)
H11 H 0.6895 0.7721 -0.2427
C23 C 0.486(4) 0.7269(12) -0.321(2)
H12 H 0.3547 0.7189 -0.3077
H13 H 0.5571 0.6922 -0.3182
H14 H 0.5018 0.7446 -0.3953
N18 N 0.5106(16) 0.6265(7) 0.4087(12)
C24 C 0.3505(13) 0.6141(7) 0.4696(12)
H15 H 0.2326 0.6239 0.4394
C25 C 0.3629(17) 0.5873(7) 0.5745(12)
H16 H 0.2534 0.5789 0.6160
C26 C 0.535(2) 0.5730(8) 0.6185(11)
C27 C 0.6955(16) 0.5854(8) 0.5577(15)
H17 H 0.8134 0.5756 0.5878
C28 C 0.6831(13) 0.6121(8) 0.4528(15)
H18 H 0.7926 0.6206 0.4112
C29 C 0.544(3) 0.5446(9) 0.7337(19)
H19 H 0.6782 0.5354 0.7453
C30 C 0.489(3) 0.5836(13) 0.840(3)
H20 H 0.5787 0.6141 0.8466
H21 H 0.4909 0.5615 0.9105
H22 H 0.3648 0.5988 0.8283
W1_2 W 1.00450(8) 0.79844(2) -0.64308(7)
W1_3 W 1.00450(8) 0.79844(2) 0.35692(7)
W2_2 W 0.99536(8) 1.00993(2) -0.14347(7)
W2A W 0.00464(8) 0.50993(2) 0.14347(7)
W2A_2 W 1.00464(8) 0.50993(2) 0.14347(7)
Co1_2 Co -0.4970(3) 0.88144(19) -0.3513(3)
Co1_3 Co 0.5030(3) 0.88144(19) 0.6487(3)
Co2A Co 0.5032(3) 0.42678(18) 0.8510(3)
O2A O 0.548(2) 0.9923(7) 0.2705(15)
N5_2 N 0.295(3) 0.8465(9) -0.456(2)
N10_2 N 0.710(3) 0.9157(9) -0.2503(19)
C4_2 C -0.198(3) 0.8530(9) 0.275(2)
C6_2 C -0.184(2) 0.8255(9) 0.4936(18)
C8_2 C -0.203(2) 0.7413(8) 0.3147(17)
C12A C 0.206(3) 1.0696(9) -0.182(2)
C13A C -0.223(2) 1.0665(10) -0.178(2)
C16_2 C -0.189(2) 0.9788(7) -0.0258(16)
O5 O 0.068(5) 0.8049(14) 0.791(4)
O6 O 0.992(7) 1.1984(17) 0.240(3)
H23 H 1.07(4) 1.169(9) 0.24(4)
H24 H 0.9908 1.2206 0.3046
O8 O 0.924(4) 1.0065(10) 0.276(2)
H27 H 0.9101 1.0347 0.2180
H28 H 0.8997 0.9814 0.3378
N19? N 0.046(6) 0.7969(19) 0.065(3)
O7? O 1.016(9) 1.0118(14) 0.386(4)
H25? H 1.0376 0.9801 0.3474
H26? H 0.9774 1.0287 0.4479
loop_
_geom_bond_atom_site_label_1
_geom_bond_atom_site_label_2
_geom_bond_site_symmetry_1
_geom_bond_site_symmetry_2
W1 C1 1_555 1_555
W2 C9 1_555 1_555
Co1 O1 1_555 1_555
Co2 O4 1_555 1_555
Co3 N1 1_555 1_555
O1 H1 1_555 1_555
O2 H2 1_555 1_555
O3 Co1 1_555 1_555
H3 O3 1_555 1_555
H4 O3 1_555 1_555
O4 H5 1_555 1_555
H6 O4 1_555 1_555
N1 C1 1_555 1_555
N2 C2 1_555 1_555
N3 Co2 1_555 1_555
N4 Co2 1_555 1_555
N5 C5 1_555 1_555
N6 Co1 1_555 1_555
N7 C7 1_555 1_555
N8 Co3 1_555 1_555
N9 Co1 1_555 1_555
N10 C10 1_555 1_555
N11 C11 1_555 1_555
N12 Co3 1_555 1_555
N13 Co3 1_555 1_555
N14 C14 1_555 1_555
N15 Co2 1_555 1_555
N16 Co2 1_555 1_555
C2 W1 1_555 1_555
C3 W1 1_555 1_555
C4 N4 1_555 1_555
C5 W1 1_555 1_555
C6 N6 1_555 1_555
C7 W1 1_555 1_555
C8 N8 1_555 1_555
C9 N9 1_555 1_555
C10 W2 1_555 1_555
C11 W2 1_555 1_555
C12 N12 1_555 1_555
C13 N13 1_555 1_555
C14 W2 1_555 1_555
C15 W2 1_555 1_555
C16 N16 1_555 1_555
N17 Co3 1_555 1_555
C17 N17 1_555 1_555
H7 C17 1_555 1_555
C18 C17 1_555 1_555
H8 C18 1_555 1_555
C19 C18 1_555 1_555
C20 C19 1_555 1_555
H9 C20 1_555 1_555
C21 N17 1_555 1_555
H10 C21 1_555 1_555
C22 O1 1_555 1_555
H11 C22 1_555 1_555
C23 C22 1_555 1_555
H12 C23 1_555 1_555
H13 C23 1_555 1_555
H14 C23 1_555 1_555
N18 Co3 1_555 1_555
C24 N18 1_555 1_555
H15 C24 1_555 1_555
C25 C24 1_555 1_555
H16 C25 1_555 1_555
C26 C25 1_555 1_555
C27 C26 1_555 1_555
H17 C27 1_555 1_555
C28 N18 1_555 1_555
H18 C28 1_555 1_555
C29 O2 1_555 1_555
H19 C29 1_555 1_555
C30 C29 1_555 1_555
H20 C30 1_555 1_555
H21 C30 1_555 1_555
H22 C30 1_555 1_555
O6 H23 1_555 1_555
H24 O6 1_555 1_555
O8 H27 1_555 1_555
H28 O8 1_555 1_555
W1_2 C6 1_555 1_555
W1_3 C4 1_555 1_555
W2_2 C16 1_555 1_555
W2A C13 1_555 1_555
W2A_2 C12 1_555 1_555
Co1_2 N10 1_555 1_555
Co1_3 N5 1_555 1_555
Co2A O2 1_555 1_555
O2A Co2 1_555 1_555
N5_2 Co1 1_555 1_555
N10_2 Co1 1_555 1_555
C4_2 W1 1_555 1_555
C6_2 W1 1_555 1_555
C8_2 W1 1_555 1_555
C12A W2 1_555 1_555
C13A W2 1_555 1_555
C16_2 W2 1_555 1_555
N3 C3 1_555 1_555
N15 C15 1_555 1_555
C8 W1_3 1_555 1_555
C19 C22 1_555 1_555
C20 C21 1_555 1_555
C26 C29 1_555 1_555
C27 C28 1_555 1_555

#END
