
#######################################################################
#
#                 Cambridge Crystallographic Data Centre
#                                CCDC 
#
#######################################################################
#
# If this CIF has been generated from an entry in the Cambridge 
# Structural Database, then it will include bibliographic, chemical, 
# crystal, experimental, refinement or atomic coordinate data resulting 
# from the CCDC's data processing and validation procedures.
#
#######################################################################

data_NIXJOV
_symmetry_cell_setting           triclinic
_symmetry_space_group_name_H-M   'P -1'
_symmetry_Int_Tables_number      2
_space_group_name_Hall           '-P 1'
loop_
_symmetry_equiv_pos_site_id
_symmetry_equiv_pos_as_xyz
1 x,y,z
2 -x,-y,-z
_cell_length_a                   9.804(2)
_cell_length_b                   10.291(3)
_cell_length_c                   12.584(3)
_cell_angle_alpha                80.787(11)
_cell_angle_beta                 68.059(10)
_cell_angle_gamma                84.556(12)
_cell_volume                     1161.63
loop_
_atom_site_label
_atom_site_type_symbol
_atom_site_fract_x
_atom_site_fract_y
_atom_site_fract_z
Zn1 Zn 1.31315(3) 0.12021(3) 0.05661(3)
O1 O 1.1836(3) 0.2778(2) 0.1320(2)
O2 O 1.1183(3) 0.2225(3) -0.0020(2)
O3 O 0.6445(3) 0.0086(2) 0.0577(2)
O4 O 0.4246(2) 0.0850(2) 0.16638(19)
N1 N 0.4778(3) -0.7459(3) 0.9322(2)
N2 N 1.1545(3) -0.0212(2) 0.1786(2)
N3 N 0.8840(3) -0.3448(3) 0.5226(2)
N4 N 0.7974(3) -0.4533(3) 0.5873(2)
C1 C 0.9613(3) 0.3799(3) 0.1178(3)
H1 H 0.9302 0.4099 0.0529
H2 H 0.9887 0.4567 0.1399
C2 C 0.5168(3) 0.2428(3) 0.3173(3)
H3 H 0.4326 0.2059 0.3814
H4 H 0.4873 0.2697 0.2513
C3 C 0.7778(3) 0.1978(3) 0.1879(2)
H5 H 0.7531 0.2244 0.1195
H6 H 0.8571 0.1313 0.1699
C4 C 1.1325(4) -0.0341(3) 0.2916(3)
H7 H 1.1785 0.0234 0.3164
C5 C 0.6424(3) 0.1382(3) 0.2876(2)
C6 C 0.6820(3) -0.5673(3) 0.7758(3)
C7 C 1.0821(4) -0.1024(3) 0.1463(3)
H8 H 1.0927 -0.0923 0.0689
C8 C 0.8304(3) 0.3182(3) 0.2193(2)
C9 C 0.5524(3) 0.0374(3) 0.1515(2)
C10 C 1.0962(3) 0.2880(3) 0.0783(3)
C11 C 0.9929(4) -0.2000(3) 0.2210(3)
H9 H 0.9453 -0.2537 0.1941
C12 C 0.7018(3) 0.4196(3) 0.2474(3)
H10 H 0.6754 0.4462 0.1799
H11 H 0.7318 0.4971 0.2667
C13 C 0.5523(4) -0.6701(4) 0.9672(3)
H12 H 0.5353 -0.6784 1.0457
C14 C 0.5960(3) 0.0145(3) 0.2577(2)
H13 H 0.6767 -0.0507 0.2450
H14 H 0.5134 -0.0221 0.3236
C15 C 0.7328(4) 0.2182(3) 0.4291(3)
H15 H 0.7584 0.1910 0.4979
C16 C 0.9753(3) -0.2166(3) 0.3380(3)
C17 C 0.6075(4) -0.6498(3) 0.7394(3)
H16 H 0.6273 -0.6480 0.6609
C18 C 0.8880(4) -0.3234(3) 0.4193(3)
H17 H 0.8357 -0.3756 0.3951
C19 C 0.8687(3) 0.2757(3) 0.3278(3)
H18 H 0.9006 0.3510 0.3487
H19 H 0.9488 0.2099 0.3119
C20 C 0.7790(3) -0.4641(3) 0.6935(3)
H20 H 0.8254 -0.4083 0.7194
C21 C 0.6855(3) 0.0976(3) 0.3948(3)
H21 H 0.6023 0.0588 0.4588
H22 H 0.7658 0.0320 0.3780
C22 C 1.0446(3) -0.1288(3) 0.3733(3)
H23 H 1.0320 -0.1336 0.4509
C23 C 0.6072(4) 0.3215(4) 0.4554(3)
H24 H 0.5226 0.2856 0.5197
H25 H 0.6370 0.3975 0.4769
C24 C 0.5663(3) 0.3630(3) 0.3497(3)
H26 H 0.4861 0.4302 0.3664
C25 C 0.6535(4) -0.5798(4) 0.8925(3)
H27 H 0.7014 -0.5284 0.9211
C26 C 0.5056(4) -0.7333(4) 0.8187(3)
H28 H 0.4534 -0.7833 0.7925
Zn1_2 Zn 0.31315(3) -0.87979(3) 1.05661(3)
Zn1_3 Zn 0.31315(3) 0.12021(3) 0.05661(3)
Zn1A Zn 0.68685(3) -0.12021(3) -0.05661(3)
O3A O 1.3555(3) -0.0086(2) -0.0577(2)
O4_2 O 1.4246(2) 0.0850(2) 0.16638(19)
N1_2 N 1.4778(3) 0.2541(3) -0.0678(2)
loop_
_geom_bond_atom_site_label_1
_geom_bond_atom_site_label_2
_geom_bond_site_symmetry_1
_geom_bond_site_symmetry_2
Zn1 O1 1_555 1_555
O1 C10 1_555 1_555
O2 Zn1 1_555 1_555
O3 C9 1_555 1_555
O4 C9 1_555 1_555
N1 C13 1_555 1_555
N2 Zn1 1_555 1_555
N3 N4 1_555 1_555
N4 C20 1_555 1_555
C1 H1 1_555 1_555
H2 C1 1_555 1_555
C2 H3 1_555 1_555
H4 C2 1_555 1_555
C3 H5 1_555 1_555
H6 C3 1_555 1_555
C4 N2 1_555 1_555
H7 C4 1_555 1_555
C5 C2 1_555 1_555
C6 C17 1_555 1_555
C7 N2 1_555 1_555
H8 C7 1_555 1_555
C8 C1 1_555 1_555
C9 C14 1_555 1_555
C10 O2 1_555 1_555
C11 C7 1_555 1_555
H9 C11 1_555 1_555
C12 C8 1_555 1_555
H10 C12 1_555 1_555
H11 C12 1_555 1_555
C13 H12 1_555 1_555
C14 C5 1_555 1_555
H13 C14 1_555 1_555
H14 C14 1_555 1_555
C15 H15 1_555 1_555
C16 C11 1_555 1_555
C17 H16 1_555 1_555
C18 N3 1_555 1_555
H17 C18 1_555 1_555
C19 C8 1_555 1_555
H18 C19 1_555 1_555
H19 C19 1_555 1_555
C20 C6 1_555 1_555
H20 C20 1_555 1_555
C21 C5 1_555 1_555
H21 C21 1_555 1_555
H22 C21 1_555 1_555
C22 C4 1_555 1_555
H23 C22 1_555 1_555
C23 C15 1_555 1_555
H24 C23 1_555 1_555
H25 C23 1_555 1_555
C24 C2 1_555 1_555
H26 C24 1_555 1_555
C25 C6 1_555 1_555
H27 C25 1_555 1_555
C26 N1 1_555 1_555
H28 C26 1_555 1_555
Zn1_2 N1 1_555 1_555
Zn1_3 O4 1_555 1_555
Zn1A O3 1_555 1_555
O3A Zn1 1_555 1_555
O4_2 Zn1 1_555 1_555
N1_2 Zn1 1_555 1_555
C1 C10 1_555 1_555
C3 C5 1_555 1_555
C3 C8 1_555 1_555
C12 C24 1_555 1_555
C13 C25 1_555 1_555
C15 C19 1_555 1_555
C15 C21 1_555 1_555
C16 C18 1_555 1_555
C16 C22 1_555 1_555
C17 C26 1_555 1_555
C23 C24 1_555 1_555

#END
