
#######################################################################
#
#                 Cambridge Crystallographic Data Centre
#                                CCDC 
#
#######################################################################
#
# If this CIF has been generated from an entry in the Cambridge 
# Structural Database, then it will include bibliographic, chemical, 
# crystal, experimental, refinement or atomic coordinate data resulting 
# from the CCDC's data processing and validation procedures.
#
#######################################################################

data_NIXJEL
_symmetry_cell_setting           monoclinic
_symmetry_space_group_name_H-M   'P 21/c'
_symmetry_Int_Tables_number      14
_space_group_name_Hall           '-P 2ybc'
loop_
_symmetry_equiv_pos_site_id
_symmetry_equiv_pos_as_xyz
1 x,y,z
2 -x,1/2+y,1/2-z
3 -x,-y,-z
4 x,1/2-y,1/2+z
_cell_length_a                   10.2678(8)
_cell_length_b                   13.0131(10)
_cell_length_c                   15.9584(11)
_cell_angle_alpha                90
_cell_angle_beta                 110.229(5)
_cell_angle_gamma                90
_cell_volume                     2000.77
loop_
_atom_site_label
_atom_site_type_symbol
_atom_site_fract_x
_atom_site_fract_y
_atom_site_fract_z
Zn1 Zn 0.42729(2) 0.35672(2) 0.473637(15)
O1 O 0.59240(16) 0.39433(18) 0.43603(10)
O2 O 0.70411(17) 0.53666(16) 0.50098(10)
O3 O 0.70543(17) 0.73295(16) 0.01067(10)
O4 O 0.53270(17) 0.68851(18) 0.05426(11)
N1 N 0.5479(2) 0.35517(17) 0.61388(12)
N2 N 1.29331(19) 0.36724(18) 1.33612(12)
N3 N 0.9190(2) 0.3727(2) 1.02746(13)
N4 N 0.8743(2) 0.3700(2) 0.93260(13)
C1 C 0.6866(2) 0.3591(2) 0.65067(15)
H1 H 0.7387 0.3577 0.6132
C2 C 0.7556(2) 0.3652(2) 0.74199(15)
H2 H 0.8521 0.3677 0.7651
C3 C 0.6786(2) 0.3676(2) 0.79896(14)
C4 C 0.5344(2) 0.3625(2) 0.76130(15)
H3 H 0.4798 0.3629 0.7972
C5 C 0.4741(2) 0.3568(2) 0.66913(15)
H4 H 0.3778 0.3539 0.6442
C6 C 0.7425(2) 0.3696(2) 0.89693(14)
H5 H 0.6873 0.3705 0.9324
C7 C 0.6931(2) 0.4554(2) 0.45762(13)
C8 C 0.8134(2) 0.4275(2) 0.42671(15)
H6 H 0.8975 0.4602 0.4656
H7 H 0.8276 0.3538 0.4311
C9 C 0.7019(2) 0.4022(2) 0.26015(15)
H8 H 0.6649 0.3410 0.2720
C10 C 0.6725(2) 0.4334(2) 0.17166(15)
H9 H 0.6155 0.3929 0.1255
C11 C 0.8118(2) 0.5835(2) 0.22259(16)
H10 H 0.8495 0.6446 0.2108
C12 C 0.8402(2) 0.5517(2) 0.31109(15)
H11 H 0.8968 0.5921 0.3575
C13 C 0.7856(2) 0.4617(2) 0.33062(14)
C14 C 0.7270(2) 0.5235(2) 0.15183(14)
C15 C 0.6971(3) 0.5578(2) 0.05613(16)
H12 H 0.7819 0.5533 0.0424
H13 H 0.6300 0.5113 0.0164
C16 C 0.6415(2) 0.6665(2) 0.03884(14)
C17 C 1.0675(2) 0.3717(2) 1.22239(14)
H14 H 0.9718 0.3773 1.2074
C18 C 1.3491(2) 0.3577(2) 1.27211(15)
H15 H 1.4452 0.3542 1.2888
C19 C 1.1547(2) 0.3750(2) 1.31103(15)
H16 H 1.1153 0.3829 1.3550
C20 C 1.1269(2) 0.3599(2) 1.15598(14)
C21 C 1.0486(2) 0.3557(2) 1.05979(14)
H17 H 1.0957 0.3400 1.0210
C22 C 1.2705(2) 0.3528(2) 1.18229(15)
H18 H 1.3132 0.3448 1.1399
Zn1_2 Zn 1.42729(2) 0.35672(2) 1.473637(15)
Zn1A Zn 0.57271(2) 0.85672(2) 0.026363(15)
Zn1B Zn 0.57271(2) 0.64328(2) 0.526363(15)
O2B O 0.29589(17) 0.46334(16) 0.49902(10)
O3A O 0.29457(17) 0.23295(16) 0.48933(10)
O4A O 0.46730(17) 0.18851(18) 0.44574(11)
N2_2 N 0.29331(19) 0.36724(18) 0.33612(12)
loop_
_geom_bond_atom_site_label_1
_geom_bond_atom_site_label_2
_geom_bond_site_symmetry_1
_geom_bond_site_symmetry_2
Zn1 O1 1_555 1_555
O1 C7 1_555 1_555
O2 C7 1_555 1_555
O3 C16 1_555 1_555
O4 C16 1_555 1_555
N1 Zn1 1_555 1_555
N2 C18 1_555 1_555
N3 N4 1_555 1_555
N4 C6 1_555 1_555
C1 N1 1_555 1_555
H1 C1 1_555 1_555
C2 C1 1_555 1_555
H2 C2 1_555 1_555
C3 C2 1_555 1_555
C4 C3 1_555 1_555
H3 C4 1_555 1_555
C5 N1 1_555 1_555
H4 C5 1_555 1_555
C6 C3 1_555 1_555
H5 C6 1_555 1_555
C7 C8 1_555 1_555
C8 H6 1_555 1_555
H7 C8 1_555 1_555
C9 H8 1_555 1_555
C10 C9 1_555 1_555
H9 C10 1_555 1_555
C11 H10 1_555 1_555
C12 C11 1_555 1_555
H11 C12 1_555 1_555
C13 C8 1_555 1_555
C14 C10 1_555 1_555
C15 C14 1_555 1_555
H12 C15 1_555 1_555
H13 C15 1_555 1_555
C16 C15 1_555 1_555
C17 H14 1_555 1_555
C18 H15 1_555 1_555
C19 N2 1_555 1_555
H16 C19 1_555 1_555
C20 C17 1_555 1_555
C21 N3 1_555 1_555
H17 C21 1_555 1_555
C22 C18 1_555 1_555
H18 C22 1_555 1_555
Zn1_2 N2 1_555 1_555
Zn1A O3 1_555 1_555
Zn1B O2 1_555 1_555
O2B Zn1 1_555 1_555
O3A Zn1 1_555 1_555
O4A Zn1 1_555 1_555
N2_2 Zn1 1_555 1_555
O4 Zn1A 1_555 1_555
C4 C5 1_555 1_555
C9 C13 1_555 1_555
C11 C14 1_555 1_555
C12 C13 1_555 1_555
C17 C19 1_555 1_555
C20 C21 1_555 1_555
C20 C22 1_555 1_555

#END
