
#######################################################################
#
#                 Cambridge Crystallographic Data Centre
#                                CCDC 
#
#######################################################################
#
# If this CIF has been generated from an entry in the Cambridge 
# Structural Database, then it will include bibliographic, chemical, 
# crystal, experimental, refinement or atomic coordinate data resulting 
# from the CCDC's data processing and validation procedures.
#
#######################################################################

data_NIXJIP
_symmetry_cell_setting           triclinic
_symmetry_space_group_name_H-M   'P -1'
_symmetry_Int_Tables_number      2
_space_group_name_Hall           '-P 1'
loop_
_symmetry_equiv_pos_site_id
_symmetry_equiv_pos_as_xyz
1 x,y,z
2 -x,-y,-z
_cell_length_a                   9.2841(11)
_cell_length_b                   10.7513(13)
_cell_length_c                   13.1913(15)
_cell_angle_alpha                75.121(5)
_cell_angle_beta                 73.020(5)
_cell_angle_gamma                83.385(5)
_cell_volume                     1215.93
loop_
_atom_site_label
_atom_site_type_symbol
_atom_site_fract_x
_atom_site_fract_y
_atom_site_fract_z
Cd1 Cd 0.179845(18) 0.388274(16) -0.005306(13)
O1 O 0.2099(2) 0.46067(19) 0.15203(17)
O2 O 0.0205(2) 0.5393(2) 0.08407(17)
O3 O 0.7341(2) 0.7633(2) 0.12145(18)
O4 O 0.5943(2) 0.7371(2) 0.01966(17)
N1 N 1.0303(3) 1.2259(2) -0.87975(19)
N2 N 0.3179(3) 0.5543(2) -0.13274(19)
N3 N 0.6128(3) 0.8438(2) -0.4794(2)
N4 N 0.7177(3) 0.9363(2) -0.5453(2)
C1 C 0.5132(3) 0.7271(2) -0.2959(2)
C2 C 0.4200(3) 0.6543(3) -0.3220(2)
H1 H 0.4221 0.6620 -0.3942
C3 C 0.9162(3) 1.1217(3) -0.6939(2)
H2 H 0.9075 1.1124 -0.6203
C4 C 0.1362(3) 0.6628(2) 0.2842(2)
C5 C 0.4085(3) 0.6239(3) -0.1085(2)
H3 H 0.4057 0.6131 -0.0357
C6 C 0.8322(3) 1.0479(3) -0.7264(2)
C7 C 0.3249(3) 0.5708(3) -0.2390(2)
H4 H 0.2624 0.5234 -0.2571
C8 C 0.0932(3) 0.5321(2) 0.1536(2)
C9 C 1.0126(3) 1.2090(3) -0.7723(2)
H5 H 1.0678 1.2583 -0.7497
C10 C 0.5066(3) 0.7113(3) -0.1869(2)
H6 H 0.5668 0.7586 -0.1667
C11 C 0.6143(3) 0.7854(3) 0.0913(2)
C12 C 0.3643(3) 0.7972(2) 0.2369(2)
C13 C 0.2637(3) 0.7346(2) 0.1915(2)
H7 H 0.3244 0.6746 0.1508
H8 H 0.2204 0.8006 0.1420
C14 C 0.8531(4) 1.0630(3) -0.8380(3)
H9 H 0.8008 1.0136 -0.8628
C15 C 0.2058(3) 0.5584(2) 0.3622(2)
H10 H 0.2669 0.4970 0.3231
H11 H 0.1263 0.5125 0.4208
C16 C 0.2655(3) 0.8918(3) 0.3018(2)
H12 H 0.3275 0.9317 0.3313
H13 H 0.2223 0.9594 0.2533
C17 C 0.6159(3) 0.8181(3) -0.3801(2)
H14 H 0.6845 0.8579 -0.3609
C18 C 0.9525(4) 1.1524(3) -0.9115(3)
H15 H 0.9658 1.1619 -0.9857
C19 C 0.7275(3) 0.9545(3) -0.6466(3)
H16 H 0.6686 0.9088 -0.6695
C20 C 0.0273(3) 0.6081(3) 0.2400(2)
H17 H -0.0401 0.5530 0.3013
H18 H -0.0339 0.6796 0.2103
C21 C 0.4895(3) 0.8720(3) 0.1449(2)
H19 H 0.4453 0.9265 0.0898
H20 H 0.5334 0.9276 0.1744
C22 C 0.4302(3) 0.6918(3) 0.3164(2)
H21 H 0.4930 0.7305 0.3462
H22 H 0.4928 0.6308 0.2777
C23 C 0.0413(3) 0.7598(3) 0.3482(2)
H23 H -0.0042 0.8259 0.3002
H24 H -0.0392 0.7157 0.4072
C24 C 0.1389(3) 0.8221(3) 0.3948(2)
H25 H 0.0770 0.8840 0.4344
C25 C 0.3038(3) 0.6210(3) 0.4096(2)
H26 H 0.3482 0.5540 0.4590
C26 C 0.2079(3) 0.7178(3) 0.4728(2)
H27 H 0.1285 0.6737 0.5327
H28 H 0.2704 0.7568 0.5026
Cd1_2 Cd 1.179845(18) 1.388274(16) -1.005306(13)
Cd1A Cd -0.179845(18) 0.611726(16) 0.005306(13)
Cd1A_2 Cd 0.820155(18) 0.611726(16) 0.005306(13)
O2A O -0.0205(2) 0.4607(2) -0.08407(17)
O3A O 0.2659(2) 0.2367(2) -0.12145(18)
O4A O 0.4057(2) 0.2629(2) -0.01966(17)
N1_2 N 0.0303(3) 0.2259(2) 0.12025(19)
loop_
_geom_bond_atom_site_label_1
_geom_bond_atom_site_label_2
_geom_bond_site_symmetry_1
_geom_bond_site_symmetry_2
Cd1 O1 1_555 1_555
O1 C8 1_555 1_555
O2 Cd1 1_555 1_555
O3 C11 1_555 1_555
O4 C11 1_555 1_555
N1 C9 1_555 1_555
N2 Cd1 1_555 1_555
N3 N4 1_555 1_555
N4 C19 1_555 1_555
C1 C2 1_555 1_555
C2 H1 1_555 1_555
C3 H2 1_555 1_555
C4 C13 1_555 1_555
C5 N2 1_555 1_555
H3 C5 1_555 1_555
C6 C3 1_555 1_555
C7 N2 1_555 1_555
H4 C7 1_555 1_555
C8 O2 1_555 1_555
C9 C3 1_555 1_555
H5 C9 1_555 1_555
C10 C1 1_555 1_555
H6 C10 1_555 1_555
C11 C21 1_555 1_555
C12 C13 1_555 1_555
C13 H7 1_555 1_555
H8 C13 1_555 1_555
C14 C6 1_555 1_555
H9 C14 1_555 1_555
C15 C4 1_555 1_555
H10 C15 1_555 1_555
H11 C15 1_555 1_555
C16 C12 1_555 1_555
H12 C16 1_555 1_555
H13 C16 1_555 1_555
C17 N3 1_555 1_555
H14 C17 1_555 1_555
C18 N1 1_555 1_555
H15 C18 1_555 1_555
C19 C6 1_555 1_555
H16 C19 1_555 1_555
C20 C4 1_555 1_555
H17 C20 1_555 1_555
H18 C20 1_555 1_555
C21 C12 1_555 1_555
H19 C21 1_555 1_555
H20 C21 1_555 1_555
C22 C12 1_555 1_555
H21 C22 1_555 1_555
H22 C22 1_555 1_555
C23 C4 1_555 1_555
H23 C23 1_555 1_555
H24 C23 1_555 1_555
C24 C16 1_555 1_555
H25 C24 1_555 1_555
C25 C15 1_555 1_555
H26 C25 1_555 1_555
C26 C24 1_555 1_555
H27 C26 1_555 1_555
H28 C26 1_555 1_555
Cd1_2 N1 1_555 1_555
Cd1A O2 1_555 1_555
Cd1A_2 O3 1_555 1_555
O2A Cd1 1_555 1_555
O3A Cd1 1_555 1_555
O4A Cd1 1_555 1_555
N1_2 Cd1 1_555 1_555
O4 Cd1A_2 1_555 1_555
C1 C17 1_555 1_555
C2 C7 1_555 1_555
C5 C10 1_555 1_555
C8 C20 1_555 1_555
C14 C18 1_555 1_555
C22 C25 1_555 1_555
C23 C24 1_555 1_555
C25 C26 1_555 1_555
Cd1A O2A 1_555 1_555

#END
