
#######################################################################
#
#                 Cambridge Crystallographic Data Centre
#                                CCDC 
#
#######################################################################
#
# If this CIF has been generated from an entry in the Cambridge 
# Structural Database, then it will include bibliographic, chemical, 
# crystal, experimental, refinement or atomic coordinate data resulting 
# from the CCDC's data processing and validation procedures.
#
#######################################################################

data_NIXJAH
_symmetry_cell_setting           monoclinic
_symmetry_space_group_name_H-M   'P 21/c'
_symmetry_Int_Tables_number      14
_space_group_name_Hall           '-P 2ybc'
loop_
_symmetry_equiv_pos_site_id
_symmetry_equiv_pos_as_xyz
1 x,y,z
2 -x,1/2+y,1/2-z
3 -x,-y,-z
4 x,1/2-y,1/2+z
_cell_length_a                   10.327(3)
_cell_length_b                   12.999(4)
_cell_length_c                   15.985(5)
_cell_angle_alpha                90
_cell_angle_beta                 110.367(19)
_cell_angle_gamma                90
_cell_volume                     2011.68
loop_
_atom_site_label
_atom_site_type_symbol
_atom_site_fract_x
_atom_site_fract_y
_atom_site_fract_z
Co1 Co -0.07577(7) 0.14463(5) 0.47187(4)
O1 O 0.0838(4) 0.1021(3) 0.4364(3)
O2 O 0.1975(4) -0.0355(3) 0.5052(2)
O3 O 0.2080(3) -0.2324(3) 0.0147(2)
O4 O 0.0411(4) -0.1908(3) 0.0549(3)
N1 N 0.0383(5) 0.1521(4) 0.6144(3)
N2 N 0.8019(5) 0.1356(4) 1.3294(4)
N3 N 0.3685(6) 0.1291(4) 0.9324(4)
N4 N 0.4162(5) 0.1272(4) 1.0255(3)
C1 C 0.1772(6) 0.0628(5) 0.1730(4)
H1 H 0.1274 0.1058 0.1265
C2 C 0.0286(6) 0.1368(5) 0.7605(4)
H2 H -0.0238 0.1354 0.7975
C3 C 0.3423(5) -0.0541(5) 0.3104(3)
H3 H 0.4017 -0.0940 0.3559
C4 C 0.1812(8) 0.1289(6) 0.7951(5)
C5 C -0.0310(5) 0.1466(4) 0.6667(3)
H4 H -0.1268 0.1492 0.6415
C6 C 0.8489(7) 0.1412(5) 1.2667(4)
H5 H 0.9443 0.1431 1.2815
C7 C 0.2420(7) 0.1288(5) 0.8968(4)
H6 H 0.1851 0.1286 0.9309
C8 C 0.2037(6) -0.0599(5) 0.0586(4)
H7 H 0.2924 -0.0603 0.0504
H8 H 0.1438 -0.0126 0.0155
C9 C 0.1902(6) 0.1430(4) 0.6527(4)
H9 H 0.2391 0.1427 0.6136
C10 C 0.2625(6) 0.1350(5) 0.7409(4)
H10 H 0.3585 0.1337 0.7638
C11 C 0.6209(7) 0.1370(5) 1.1554(4)
C12 C 0.7719(8) 0.1444(5) 1.1819(4)
H11 H 0.8127 0.1515 1.1387
C13 C 0.1407(6) -0.1689(5) 0.0405(4)
C14 C 0.6548(8) 0.1232(6) 1.3117(6)
H12 H 0.6200 0.1135 1.3575
C15 C 0.1972(4) 0.0427(3) 0.4543(3)
C16 C 0.1956(6) 0.0984(4) 0.2641(4)
H13 H 0.1513 0.1557 0.2763
C17 C 0.3096(5) -0.0848(4) 0.2239(4)
H14 H 0.3434 -0.1471 0.2116
C18 C 0.3101(6) 0.0725(5) 0.4273(4)
H15 H 0.3951 0.0433 0.4681
H16 H 0.3192 0.1468 0.4300
C19 C 0.5398(7) 0.1406(5) 1.0599(4)
H17 H 0.5879 0.1545 1.0217
C20 C 0.5660(6) 0.1266(4) 1.2196(4)
H18 H 0.4708 0.1216 1.2047
C21 C 0.2231(5) -0.0221(4) 0.1510(3)
C22 C 0.2883(8) 0.0355(6) 0.3312(5)
Co1_2 Co 0.92423(7) 0.14463(5) 1.47187(4)
Co1A Co 0.07577(7) -0.35537(5) 0.02813(4)
Co1B Co 0.07577(7) -0.14463(5) 0.52813(4)
O2B O -0.1975(4) 0.0355(3) 0.4948(2)
O3A O -0.2080(3) 0.2676(3) 0.4853(2)
O4A O -0.0411(4) 0.3092(3) 0.4451(3)
N2_2 N -0.1981(5) 0.1356(4) 0.3294(4)
loop_
_geom_bond_atom_site_label_1
_geom_bond_atom_site_label_2
_geom_bond_site_symmetry_1
_geom_bond_site_symmetry_2
Co1 O1 1_555 1_555
O1 C15 1_555 1_555
O2 C15 1_555 1_555
O3 C13 1_555 1_555
O4 C13 1_555 1_555
N1 Co1 1_555 1_555
N2 C6 1_555 1_555
N3 N4 1_555 1_555
N4 C19 1_555 1_555
C1 H1 1_555 1_555
C2 H2 1_555 1_555
C3 H3 1_555 1_555
C4 C2 1_555 1_555
C5 N1 1_555 1_555
H4 C5 1_555 1_555
C6 H5 1_555 1_555
C7 N3 1_555 1_555
H6 C7 1_555 1_555
C8 H7 1_555 1_555
H8 C8 1_555 1_555
C9 N1 1_555 1_555
H9 C9 1_555 1_555
C10 C4 1_555 1_555
H10 C10 1_555 1_555
C11 C12 1_555 1_555
C12 C6 1_555 1_555
H11 C12 1_555 1_555
C13 C8 1_555 1_555
C14 N2 1_555 1_555
H12 C14 1_555 1_555
C15 C18 1_555 1_555
C16 C1 1_555 1_555
H13 C16 1_555 1_555
C17 C3 1_555 1_555
H14 C17 1_555 1_555
C18 H15 1_555 1_555
H16 C18 1_555 1_555
C19 C11 1_555 1_555
H17 C19 1_555 1_555
C20 C11 1_555 1_555
H18 C20 1_555 1_555
C21 C1 1_555 1_555
C22 C3 1_555 1_555
Co1_2 N2 1_555 1_555
Co1A O3 1_555 1_555
Co1B O2 1_555 1_555
O2B Co1 1_555 1_555
O3A Co1 1_555 1_555
O4A Co1 1_555 1_555
N2_2 Co1 1_555 1_555
O4 Co1A 1_555 1_555
C2 C5 1_555 1_555
C4 C7 1_555 1_555
C8 C21 1_555 1_555
C9 C10 1_555 1_555
C14 C20 1_555 1_555
C16 C22 1_555 1_555
C17 C21 1_555 1_555
C18 C22 1_555 1_555

#END
