
#######################################################################
#
#                 Cambridge Crystallographic Data Centre
#                                CCDC 
#
#######################################################################
#
# If this CIF has been generated from an entry in the Cambridge 
# Structural Database, then it will include bibliographic, chemical, 
# crystal, experimental, refinement or atomic coordinate data resulting 
# from the CCDC's data processing and validation procedures.
#
#######################################################################

data_NIXPEQ
_symmetry_cell_setting           triclinic
_symmetry_space_group_name_H-M   'P -1'
_symmetry_Int_Tables_number      2
_space_group_name_Hall           '-P 1'
loop_
_symmetry_equiv_pos_site_id
_symmetry_equiv_pos_as_xyz
1 x,y,z
2 -x,-y,-z
_cell_length_a                   7.095(3)
_cell_length_b                   11.730(4)
_cell_length_c                   13.726(3)
_cell_angle_alpha                105.95(2)
_cell_angle_beta                 103.52(2)
_cell_angle_gamma                103.78(3)
_cell_volume                     1010.49
loop_
_atom_site_label
_atom_site_type_symbol
_atom_site_fract_x
_atom_site_fract_y
_atom_site_fract_z
C1 C 0.9206(3) 0.7790(2) 0.33602(16)
C2 C 0.8632(3) 0.8954(2) 0.35814(16)
C3 C 0.9769(4) 1.0145(2) 0.36838(18)
H1 H 1.1078 1.0305 0.3624
C4 C 0.8904(4) 1.1087(2) 0.38762(19)
H2 H 0.9644 1.1892 0.3950
C5 C 0.6943(4) 1.0851(2) 0.3961(2)
H3 H 0.6394 1.1502 0.4086
C6 C 0.5793(4) 0.9668(2) 0.38637(19)
H4 H 0.4483 0.9504 0.3922
C7 C 0.6695(3) 0.8744(2) 0.36758(16)
C8 C 0.5660(3) 0.2163(2) 0.18888(18)
C9 C 0.3845(3) 0.1011(2) 0.15530(18)
C10 C 0.3759(5) -0.0220(3) 0.1206(2)
H5 H 0.4919 -0.0432 0.1144
C11 C 0.1902(5) -0.1141(3) 0.0949(3)
H6 H 0.1815 -0.1980 0.0708
C12 C 0.0194(4) -0.0832(2) 0.1045(2)
H7 H -0.1028 -0.1468 0.0877
C13 C 0.0238(4) 0.0403(2) 0.13854(19)
H8 H -0.0924 0.0615 0.1442
C14 C 0.2104(3) 0.1302(2) 0.16357(16)
C15 C 0.7819(3) 0.4677(2) 0.46555(16)
H9 H 0.6479 0.4042 0.4308
H10 H 0.7617 0.5480 0.4921
C16 C 0.8979(3) 0.4397(2) 0.55926(16)
H11 H 0.9047 0.3556 0.5337
H12 H 0.8231 0.4426 0.6102
C17 C 0.5321(3) 0.3914(2) 0.01629(16)
H13 H 0.4842 0.3143 0.0296
H14 H 0.6650 0.3976 0.0068
C18 C 0.3835(3) 0.3855(2) -0.08591(16)
H15 H 0.2479 0.3723 -0.0788
H16 H 0.3766 0.3147 -0.1449
N1 N 0.7723(3) 0.67967(16) 0.33566(13)
N2 N 0.5156(3) 0.32309(16) 0.22034(14)
N3 N 0.8910(2) 0.47066(16) 0.38560(13)
H17 H 0.9047 0.3935 0.3623
N4 N 0.5553(3) 0.49877(16) 0.11048(13)
H18 H 0.4268 0.4899 0.1147
O1 O 1.0787(2) 0.77285(16) 0.31742(15)
O2 O 0.5620(3) 0.71431(18) 0.46109(14)
O3 O 0.9712(3) 0.5135(2) 0.18692(14)
O4 O 0.3979(2) 0.64489(16) 0.26857(14)
O5 O 0.7365(3) 0.21698(18) 0.18900(18)
O6 O 0.1745(2) 0.33656(15) 0.12997(13)
O7 O 0.2471(3) 0.33917(17) 0.31289(13)
S1 S 0.57787(8) 0.71801(5) 0.35985(4)
S2 S 0.27453(8) 0.29406(5) 0.21098(4)
Cu1 Cu 0.72573(4) 0.49404(2) 0.253628(18)
H19 H 1.025(6) 0.463(4) 0.176(3)
H20 H 1.048(6) 0.575(4) 0.216(3)
C1A C 1.0794(3) 0.2210(2) 0.66398(16)
C2A C 1.1368(3) 0.1046(2) 0.64186(16)
C3A C 1.0231(4) -0.0145(2) 0.63162(18)
H1A H 0.8922 -0.0305 0.6376
C4A C 1.1096(4) -0.1087(2) 0.61238(19)
H2A H 1.0356 -0.1892 0.6050
C5A C 1.3057(4) -0.0851(2) 0.6039(2)
H3A H 1.3606 -0.1502 0.5914
C6A C 1.4207(4) 0.0332(2) 0.61363(19)
H4A H 1.5517 0.0496 0.6078
C7A C 1.3305(3) 0.1256(2) 0.63242(16)
C8A C 1.4340(3) 0.7837(2) 0.81112(18)
C9A C 1.6155(3) 0.8989(2) 0.84470(18)
C10A C 1.6241(5) 1.0220(3) 0.8794(2)
H5A H 1.5081 1.0432 0.8856
C11A C 1.8098(5) 1.1141(3) 0.9051(3)
H6A H 1.8185 1.1980 0.9292
C12A C 1.9806(4) 1.0832(2) 0.8955(2)
H7A H 2.1028 1.1468 0.9123
C13A C 1.9762(4) 0.9597(2) 0.86146(19)
H8A H 2.0924 0.9385 0.8558
C14A C 1.7896(3) 0.8698(2) 0.83643(16)
C15A C 1.2181(3) 0.5323(2) 0.53445(16)
H9A H 1.3521 0.5958 0.5692
H10A H 1.2383 0.4520 0.5079
C16A C 1.1021(3) 0.5603(2) 0.44074(16)
H11A H 1.0953 0.6444 0.4663
H12A H 1.1769 0.5574 0.3898
C17A C 0.4679(3) 0.6086(2) -0.01629(16)
H13A H 0.5158 0.6857 -0.0296
H14A H 0.3350 0.6024 -0.0068
C18A C 0.6165(3) 0.6145(2) 0.08591(16)
H15A H 0.7521 0.6277 0.0788
H16A H 0.6234 0.6853 0.1449
N1A N 1.2277(3) 0.32033(16) 0.66434(13)
N2A N 1.4844(3) 0.67691(16) 0.77966(14)
N3A N 1.1090(2) 0.52934(16) 0.61440(13)
H17A H 1.0953 0.6065 0.6377
N4A N 0.4447(3) 0.50123(16) -0.11048(13)
N4A_2 N 1.4447(3) 0.50123(16) 0.88952(13)
H18A H 0.5732 0.5101 -0.1147
H18A_2 H 1.5732 0.5101 0.8853
O1A O 0.9213(2) 0.22715(16) 0.68258(15)
O2A O 1.4380(3) 0.28569(18) 0.53891(14)
O3A O 1.0288(3) 0.4865(2) 0.81308(14)
O4A O 1.6021(2) 0.35511(16) 0.73143(14)
O5A O 1.2635(3) 0.78302(18) 0.81100(18)
O6A O 1.8255(2) 0.66344(15) 0.87003(13)
O7A O 1.7529(3) 0.66083(17) 0.68711(13)
S1A S 1.42213(8) 0.28199(5) 0.64015(4)
S2A S 1.72547(8) 0.70594(5) 0.78902(4)
Cu1A Cu 1.27427(4) 0.50596(2) 0.746372(18)
Cu1A_2 Cu 0.27427(4) 0.50596(2) -0.253628(18)
H19A H 0.975(6) 0.537(4) 0.824(3)
H20A H 0.952(6) 0.425(4) 0.784(3)
loop_
_geom_bond_atom_site_label_1
_geom_bond_atom_site_label_2
_geom_bond_site_symmetry_1
_geom_bond_site_symmetry_2
C1 C2 1_555 1_555
C2 C3 1_555 1_555
C3 H1 1_555 1_555
C4 C3 1_555 1_555
H2 C4 1_555 1_555
C5 C4 1_555 1_555
H3 C5 1_555 1_555
C6 C5 1_555 1_555
H4 C6 1_555 1_555
C7 C2 1_555 1_555
C8 C9 1_555 1_555
C9 C10 1_555 1_555
C10 H5 1_555 1_555
C11 C10 1_555 1_555
H6 C11 1_555 1_555
C12 C11 1_555 1_555
H7 C12 1_555 1_555
C13 C12 1_555 1_555
H8 C13 1_555 1_555
C14 C9 1_555 1_555
C15 H9 1_555 1_555
H10 C15 1_555 1_555
C16 C15 1_555 1_555
H11 C16 1_555 1_555
H12 C16 1_555 1_555
C17 H13 1_555 1_555
H14 C17 1_555 1_555
C18 C17 1_555 1_555
H15 C18 1_555 1_555
H16 C18 1_555 1_555
N1 C1 1_555 1_555
N2 C8 1_555 1_555
N3 C15 1_555 1_555
H17 N3 1_555 1_555
N4 C17 1_555 1_555
H18 N4 1_555 1_555
O1 C1 1_555 1_555
O2 S1 1_555 1_555
O3 Cu1 1_555 1_555
O4 S1 1_555 1_555
O5 C8 1_555 1_555
O6 S2 1_555 1_555
O7 S2 1_555 1_555
S1 C7 1_555 1_555
S2 C14 1_555 1_555
Cu1 N1 1_555 1_555
H19 O3 1_555 1_555
H20 O3 1_555 1_555
C1A C2A 1_555 1_555
C2A C3A 1_555 1_555
C3A H1A 1_555 1_555
C4A C3A 1_555 1_555
H2A C4A 1_555 1_555
C5A C4A 1_555 1_555
H3A C5A 1_555 1_555
C6A C5A 1_555 1_555
H4A C6A 1_555 1_555
C7A C2A 1_555 1_555
C8A C9A 1_555 1_555
C9A C10A 1_555 1_555
C10A H5A 1_555 1_555
C11A C10A 1_555 1_555
H6A C11A 1_555 1_555
C12A C11A 1_555 1_555
H7A C12A 1_555 1_555
C13A C12A 1_555 1_555
H8A C13A 1_555 1_555
C14A C9A 1_555 1_555
C15A H9A 1_555 1_555
H10A C15A 1_555 1_555
C16A N3 1_555 1_555
H11A C16A 1_555 1_555
H12A C16A 1_555 1_555
C17A H13A 1_555 1_555
H14A C17A 1_555 1_555
C18A N4 1_555 1_555
H15A C18A 1_555 1_555
H16A C18A 1_555 1_555
N1A C1A 1_555 1_555
N2A C8A 1_555 1_555
N3A C16 1_555 1_555
H17A N3A 1_555 1_555
N4A C18 1_555 1_555
N4A_2 H18A_2 1_555 1_555
H18A N4A 1_555 1_555
O1A C1A 1_555 1_555
O2A S1A 1_555 1_555
O3A Cu1A 1_555 1_555
O4A S1A 1_555 1_555
O5A C8A 1_555 1_555
O6A S2A 1_555 1_555
O7A S2A 1_555 1_555
S1A C7A 1_555 1_555
S2A C14A 1_555 1_555
Cu1A N1A 1_555 1_555
Cu1A_2 N4A 1_555 1_555
H19A O3A 1_555 1_555
H20A O3A 1_555 1_555
C6 C7 1_555 1_555
C13 C14 1_555 1_555
N1 S1 1_555 1_555
N2 S2 1_555 1_555
N2 Cu1 1_555 1_555
N3 Cu1 1_555 1_555
N4 Cu1 1_555 1_555
C6A C7A 1_555 1_555
C13A C14A 1_555 1_555
C15A C16A 1_555 1_555
C15A N3A 1_555 1_555
C17A C18A 1_555 1_555
C17A N4A 1_555 1_555
N1A S1A 1_555 1_555
N2A S2A 1_555 1_555
N2A Cu1A 1_555 1_555
N3A Cu1A 1_555 1_555
N4A_2 Cu1A 1_555 1_555

#END
