
#######################################################################
#
#                 Cambridge Crystallographic Data Centre
#                                CCDC 
#
#######################################################################
#
# If this CIF has been generated from an entry in the Cambridge 
# Structural Database, then it will include bibliographic, chemical, 
# crystal, experimental, refinement or atomic coordinate data resulting 
# from the CCDC's data processing and validation procedures.
#
#######################################################################

data_NIXPUG
_symmetry_cell_setting           monoclinic
_symmetry_space_group_name_H-M   'P 21/n'
_symmetry_Int_Tables_number      14
_space_group_name_Hall           '-P 2yn'
loop_
_symmetry_equiv_pos_site_id
_symmetry_equiv_pos_as_xyz
1 x,y,z
2 1/2-x,1/2+y,1/2-z
3 -x,-y,-z
4 1/2+x,1/2-y,1/2+z
_cell_length_a                   18.6584(5)
_cell_length_b                   8.8969(2)
_cell_length_c                   20.1351(6)
_cell_angle_alpha                90.00
_cell_angle_beta                 101.7620(10)
_cell_angle_gamma                90.00
_cell_volume                     3272.28
loop_
_atom_site_label
_atom_site_type_symbol
_atom_site_fract_x
_atom_site_fract_y
_atom_site_fract_z
Sb1 Sb 0.706563(14) 0.30663(3) 0.051134(14)
F1 F 0.7091(2) 0.4342(5) 0.1241(2)
F2 F 0.7070(2) 0.1749(5) -0.02021(17)
F3 F 0.63467(18) 0.4215(4) -0.0021(2)
F4 F 0.77859(15) 0.1896(4) 0.10474(16)
F5 F 0.77871(16) 0.4223(4) 0.02408(19)
F6 F 0.63573(15) 0.1877(4) 0.07837(17)
Sb2 Sb 0.593658(17) 0.67889(4) -0.316874(15)
F7 F 0.5832(2) 0.8502(5) -0.3708(2)
F8 F 0.6001(2) 0.5154(4) -0.25885(19)
F9 F 0.6776(4) 0.7606(8) -0.2559(3)
F10 F 0.6570(6) 0.6164(13) -0.3674(4)
F11 F 0.5399(6) 0.7607(11) -0.2571(5)
F12 F 0.5164(6) 0.6058(14) -0.3719(5)
Ag1 Ag 0.979106(19) -0.58079(5) 0.406986(16)
Ag2 Ag 0.591195(18) -0.91137(4) 0.513488(16)
S1 S 0.70041(5) -0.82931(14) 0.60944(5)
S2 S 0.64872(5) -0.70867(11) 0.44550(5)
S3 S 0.85288(5) -0.76990(12) 0.58963(5)
S4 S 0.80857(5) -0.67094(11) 0.45224(5)
S5 S 0.96822(5) -0.68575(12) 0.51733(5)
S6 S 0.91833(6) -0.44064(12) 0.29840(5)
S7 S 1.06641(7) -0.6889(2) 0.32931(6)
S9 S 1.03738(6) -0.71413(14) 0.17901(5)
S10 S 0.91102(5) -0.52613(12) 0.15433(5)
S11 S 0.96143(5) -0.65965(12) 0.03640(5)
C1 C 0.7442(3) -1.0010(6) 0.6451(2)
H1 H 0.7850 -0.9769 0.6808
H2 H 0.7611 -1.0564 0.6103
H3 H 0.7097 -1.0608 0.6629
C2 C 0.6191(3) -0.5327(6) 0.4768(3)
H4 H 0.6377 -0.4502 0.4546
H5 H 0.6374 -0.5259 0.5248
H6 H 0.5666 -0.5288 0.4675
C3 C 0.75919(19) -0.7716(4) 0.55697(18)
C4 C 0.73866(19) -0.7220(4) 0.49268(18)
C5 C 0.8792(2) -0.7075(4) 0.51788(18)
C6 C 1.1531(3) -0.6083(8) 0.3233(3)
H7 H 1.1748 -0.6664 0.2923
H8 H 1.1850 -0.6088 0.3672
H9 H 1.1460 -0.5068 0.3071
C7 C 0.8220(2) -0.4896(6) 0.2770(2)
H10 H 0.7991 -0.4374 0.2365
H11 H 0.7989 -0.4611 0.3136
H12 H 0.8170 -0.5960 0.2697
C8 C 1.0132(2) -0.6347(5) 0.2505(2)
C9 C 0.9534(2) -0.5469(4) 0.23886(19)
C10 C 0.9705(2) -0.6318(4) 0.12039(19)
Ag1B Ag 1.020894(19) -0.41921(5) 0.593014(16)
Ag2C Ag 1.091195(18) -0.58863(4) 0.013488(16)
Ag2A Ag 0.908805(18) -0.41137(4) -0.013488(16)
S5B S 1.03178(5) -0.31425(12) 0.48267(5)
S11C S 0.46143(5) -0.84035(12) 0.53640(5)
S11A S 0.53857(5) -1.15965(12) 0.46360(5)
C11 C 0.8816(3) -0.9975(7) 0.2488(3)
H13 H 0.8474 -0.9292 0.2224
H14 H 0.8567 -1.0882 0.2566
H15 H 0.9196 -1.0208 0.2247
C12 C 0.9143(2) -0.9268(5) 0.3148(2)
C13 C 0.9685(3) -1.0176(6) 0.3620(3)
H16 H 0.9858 -0.9615 0.4029
H17 H 1.0090 -1.0411 0.3411
H18 H 0.9460 -1.1090 0.3727
O1 O 0.89689(19) -0.8013(4) 0.32812(19)
S8? S 1.0754(5) -0.579(2) 0.3343(5)
F13? F 0.4915(6) 0.6981(18) -0.3218(10)
F14? F 0.6131(16) 0.8122(14) -0.2553(6)
F15? F 0.6859(6) 0.652(3) -0.3189(15)
F16? F 0.5667(12) 0.5314(14) -0.3875(6)
loop_
_geom_bond_atom_site_label_1
_geom_bond_atom_site_label_2
_geom_bond_site_symmetry_1
_geom_bond_site_symmetry_2
Sb1 F1 1_555 1_555
Sb2 F7 1_555 1_555
Ag1 S5 1_555 1_555
Ag2 S1 1_555 1_555
S1 C1 1_555 1_555
S2 Ag2 1_555 1_555
S3 C3 1_555 1_555
S4 C4 1_555 1_555
S5 C5 1_555 1_555
S6 Ag1 1_555 1_555
S7 Ag1 1_555 1_555
S9 C8 1_555 1_555
S10 C9 1_555 1_555
S11 C10 1_555 1_555
C1 H1 1_555 1_555
H2 C1 1_555 1_555
H3 C1 1_555 1_555
C2 S2 1_555 1_555
H4 C2 1_555 1_555
H5 C2 1_555 1_555
H6 C2 1_555 1_555
C3 S1 1_555 1_555
C4 S2 1_555 1_555
C5 S3 1_555 1_555
C6 S7 1_555 1_555
H7 C6 1_555 1_555
H8 C6 1_555 1_555
H9 C6 1_555 1_555
C7 S6 1_555 1_555
H10 C7 1_555 1_555
H11 C7 1_555 1_555
H12 C7 1_555 1_555
C8 S7 1_555 1_555
C9 S6 1_555 1_555
C10 S9 1_555 1_555
C11 H13 1_555 1_555
H14 C11 1_555 1_555
H15 C11 1_555 1_555
C12 C11 1_555 1_555
C13 C12 1_555 1_555
H16 C13 1_555 1_555
H17 C13 1_555 1_555
H18 C13 1_555 1_555
O1 C12 1_555 1_555
F2 Sb1 1_555 1_555
F3 Sb1 1_555 1_555
F4 Sb1 1_555 1_555
F5 Sb1 1_555 1_555
F6 Sb1 1_555 1_555
F8 Sb2 1_555 1_555
F9 Sb2 1_555 1_555
F10 Sb2 1_555 1_555
F11 Sb2 1_555 1_555
F12 Sb2 1_555 1_555
Ag1B S5 1_555 1_555
Ag2C S11 1_555 1_555
Ag2A S11 1_555 1_555
S5B Ag1 1_555 1_555
S11C Ag2 1_555 1_555
S11A Ag2 1_555 1_555
S4 C5 1_555 1_555
S10 C10 1_555 1_555
C3 C4 1_555 1_555
C8 C9 1_555 1_555
Ag1B S5B 1_555 1_555

#END
