
#######################################################################
#
#                 Cambridge Crystallographic Data Centre
#                                CCDC 
#
#######################################################################
#
# If this CIF has been generated from an entry in the Cambridge 
# Structural Database, then it will include bibliographic, chemical, 
# crystal, experimental, refinement or atomic coordinate data resulting 
# from the CCDC's data processing and validation procedures.
#
#######################################################################

data_NIXQIV
_symmetry_cell_setting           monoclinic
_symmetry_space_group_name_H-M   'P 21/c'
_symmetry_Int_Tables_number      14
_space_group_name_Hall           '-P 2ybc'
loop_
_symmetry_equiv_pos_site_id
_symmetry_equiv_pos_as_xyz
1 x,y,z
2 -x,1/2+y,1/2-z
3 -x,-y,-z
4 x,1/2-y,1/2+z
_cell_length_a                   12.909(3)
_cell_length_b                   6.740(2)
_cell_length_c                   28.312(9)
_cell_angle_alpha                90
_cell_angle_beta                 94.43(2)
_cell_angle_gamma                90
_cell_volume                     2455.97
loop_
_atom_site_label
_atom_site_type_symbol
_atom_site_fract_x
_atom_site_fract_y
_atom_site_fract_z
Zn1 Zn 0.47288(3) 0.10240(6) 0.190286(14)
Zn2 Zn 0.43018(3) 0.10181(6) 0.301051(13)
N1 N 0.5528(2) 0.0591(5) 0.25641(10)
N2 N 0.6434(2) 0.0964(5) 0.26600(11)
N3 N 0.7291(3) 0.1287(6) 0.27557(15)
N4 N 0.3517(2) 0.1000(5) 0.23490(11)
N5 N 0.2599(2) 0.1113(5) 0.22363(11)
N6 N 0.1727(3) 0.1194(6) 0.21204(14)
N7 N 0.5659(2) 0.3280(4) 0.16831(10)
N8 N 0.5953(2) 0.3122(5) 0.12832(12)
N9 N 0.6228(3) 0.2975(7) 0.09153(14)
N10 N 0.4982(2) -0.1700(4) 0.16134(10)
N11 N 0.4864(2) -0.1883(5) 0.11824(12)
N12 N 0.4733(3) -0.2079(7) 0.07822(13)
N13 N 0.3521(2) 0.1943(5) 0.13279(11)
N14 N 0.3375(3) 0.3918(5) 0.12924(12)
N15 N 0.2472(3) 0.4355(5) 0.10859(13)
N16 N 0.2011(2) 0.2581(5) 0.09810(11)
C1 C 0.1034(3) 0.2303(8) 0.0761(2)
H1 H 0.0611 0.3365 0.0663
C2 C 0.0723(4) 0.0418(8) 0.0697(2)
H2 H 0.0070 0.0159 0.0548
C3 C 0.1369(3) -0.1178(7) 0.0851(2)
H3 H 0.1130 -0.2469 0.0802
C4 C 0.2329(3) -0.0886(6) 0.1069(2)
H4 H 0.2751 -0.1943 0.1172
C5 C 0.2657(3) 0.1090(6) 0.11315(13)
N17 N 0.2802(2) 0.1899(5) 0.33103(12)
N18 N 0.2612(3) 0.3870(5) 0.3348(2)
N19 N 0.1624(3) 0.4252(5) 0.3318(2)
N20 N 0.1147(2) 0.2452(5) 0.32529(12)
C6 C 0.0098(3) 0.2128(8) 0.3184(2)
H5 H -0.0378 0.3165 0.3185
C7 C -0.0208(3) 0.0242(8) 0.3117(2)
H6 H -0.0912 -0.0044 0.3065
C8 C 0.0518(3) -0.1306(7) 0.3124(2)
H7 H 0.0283 -0.2603 0.3082
C9 C 0.1557(3) -0.0960(6) 0.3190(2)
H8 H 0.2036 -0.1990 0.3193
C10 C 0.1872(3) 0.1019(6) 0.32534(13)
Zn2A Zn 0.56982(3) 0.60181(6) 0.198949(13)
Zn2A_2 Zn 0.56982(3) -0.39819(6) 0.198949(13)
N7A N 0.4341(2) -0.1720(4) 0.33169(10)
N10A N 0.5018(2) 0.3300(4) 0.33866(10)
N21 N 0.1130(4) 0.1769(11) 0.4408(2)
C11 C 0.2037(3) 0.2242(7) 0.4618(2)
C12 C 0.2553(5) 0.4017(9) 0.4651(2)
H9 H 0.2277 0.5152 0.4503
C13 C 0.3454(6) 0.4052(11) 0.4902(2)
H10 H 0.3817 0.5243 0.4931
C14 C 0.3877(4) 0.2400(14) 0.5119(2)
H11 H 0.4516 0.2507 0.5294
C15 C 0.3400(4) 0.0617(10) 0.5091(2)
H12 H 0.3691 -0.0518 0.5233
N22 N 0.2434(3) 0.0609(6) 0.48309(15)
N23 N 0.1744(6) -0.0899(9) 0.4749(2)
N24 N 0.1008(6) -0.0227(15) 0.4510(3)
loop_
_geom_bond_atom_site_label_1
_geom_bond_atom_site_label_2
_geom_bond_site_symmetry_1
_geom_bond_site_symmetry_2
Zn1 N1 1_555 1_555
Zn2 N1 1_555 1_555
N1 N2 1_555 1_555
N2 N3 1_555 1_555
N4 Zn1 1_555 1_555
N5 N4 1_555 1_555
N6 N5 1_555 1_555
N7 Zn1 1_555 1_555
N8 N7 1_555 1_555
N9 N8 1_555 1_555
N10 Zn1 1_555 1_555
N11 N10 1_555 1_555
N12 N11 1_555 1_555
N13 Zn1 1_555 1_555
N14 N13 1_555 1_555
N15 N14 1_555 1_555
N16 N15 1_555 1_555
C1 N16 1_555 1_555
H1 C1 1_555 1_555
C2 C1 1_555 1_555
H2 C2 1_555 1_555
C3 C2 1_555 1_555
H3 C3 1_555 1_555
C4 C3 1_555 1_555
H4 C4 1_555 1_555
C5 N13 1_555 1_555
N17 Zn2 1_555 1_555
N18 N17 1_555 1_555
N19 N18 1_555 1_555
N20 N19 1_555 1_555
C6 N20 1_555 1_555
H5 C6 1_555 1_555
C7 C6 1_555 1_555
H6 C7 1_555 1_555
C8 C7 1_555 1_555
H7 C8 1_555 1_555
C9 C8 1_555 1_555
H8 C9 1_555 1_555
C10 N17 1_555 1_555
N21 C11 1_555 1_555
C11 C12 1_555 1_555
C12 H9 1_555 1_555
C13 C12 1_555 1_555
H10 C13 1_555 1_555
C14 C13 1_555 1_555
H11 C14 1_555 1_555
C15 C14 1_555 1_555
H12 C15 1_555 1_555
N22 C11 1_555 1_555
N23 N22 1_555 1_555
N24 N21 1_555 1_555
Zn2A N7 1_555 1_555
Zn2A_2 N10 1_555 1_555
N7A Zn2 1_555 1_555
N10A Zn2 1_555 1_555
Zn2 N4 1_555 1_555
N16 C5 1_555 1_555
C4 C5 1_555 1_555
N20 C10 1_555 1_555
C9 C10 1_555 1_555
C15 N22 1_555 1_555
N23 N24 1_555 1_555

#END
